data_ZIF-71								
_audit_creation_date              2017-08-10								
_audit_creation_method            'Materials Studio'								
_symmetry_space_group_name_H-M    'P1'								
_symmetry_Int_Tables_number       1								
_symmetry_cell_setting            triclinic								
loop_								
_symmetry_equiv_pos_as_xyz								
  x,y,z								
_cell_length_a                    28.5539								
_cell_length_b                    28.5539								
_cell_length_c                    28.5539								
_cell_angle_alpha                 90.0000								
_cell_angle_beta                  90.0000								
_cell_angle_gamma                 90.0000								
loop_								
_atom_site_label								
_atom_site_type_symbol								
_atom_site_fract_x								
_atom_site_fract_y								
_atom_site_fract_z								
_atom_site_charge								
_atom_site_U_iso_or_equiv								
_atom_site_adp_type								
_atom_site_occupancy								
Zn1	Zn	0.39551	0.10433	0.25207	0.270743	0	Uiso	1
N2	N	0.3721	0.038	0.2443	0.501082	0	Uiso	1
C3	C	0.3358	0.0243	0.2215	-0.201898	0	Uiso	1
Cl4	Cl	0.29541	0.06062	0.19564	0.009005	0	Uiso	1
N5	N	0.4603	0.0991	0.2769	0.085607	0	Uiso	1
C6	C	0.4776	0.0827	0.3208	-0.038298	0	Uiso	1
Cl7	Cl	0.43906	0.06862	0.36268	-0.029782	0	Uiso	1
N8	N	0.3539	0.1349	0.2972	0.137571	0	Uiso	1
C9	C	0.3566	0.1753	0.3241	-0.097355	0	Uiso	1
Cl10	Cl	0.39754	0.21522	0.3109	0.000966	0	Uiso	1
N11	N	0.4007	0.1361	0.1923	-0.117559	0	Uiso	1
C12	C	0.4171	0.1186	0.1507	-0.044947	0	Uiso	1
Cl13	Cl	0.4331	0.05954	0.14477	-0.033278	0	Uiso	1
Zn14	Zn	0.60449	0.89567	0.25207	0.280929	0	Uiso	1
N15	N	0.6279	0.962	0.2443	0.492529	0	Uiso	1
C16	C	0.6642	0.9757	0.2215	-0.202587	0	Uiso	1
Cl17	Cl	0.70459	0.93938	0.19564	0.008967	0	Uiso	1
N18	N	0.5397	0.9009	0.2769	0.080317	0	Uiso	1
C19	C	0.5224	0.9173	0.3208	-0.036108	0	Uiso	1
Cl20	Cl	0.56094	0.93138	0.36268	-0.031016	0	Uiso	1
N21	N	0.6461	0.8651	0.2972	0.137241	0	Uiso	1
C22	C	0.6434	0.8247	0.3241	-0.096435	0	Uiso	1
Cl23	Cl	0.60246	0.78478	0.3109	0.001104	0	Uiso	1
N24	N	0.5993	0.8639	0.1923	-0.11948	0	Uiso	1
C25	C	0.5829	0.8814	0.1507	-0.04295	0	Uiso	1
Cl26	Cl	0.5669	0.94046	0.14477	-0.034013	0	Uiso	1
Zn27	Zn	0.60449	0.10433	0.74793	0.262474	0	Uiso	1
N28	N	0.6279	0.038	0.7557	0.497043	0	Uiso	1
C29	C	0.6642	0.0243	0.7785	-0.202379	0	Uiso	1
Cl30	Cl	0.70459	0.06062	0.80436	0.009284	0	Uiso	1
N31	N	0.5397	0.0991	0.7231	0.086797	0	Uiso	1
C32	C	0.5224	0.0827	0.6792	-0.038442	0	Uiso	1
Cl33	Cl	0.56094	0.06862	0.63732	-0.029528	0	Uiso	1
N34	N	0.6461	0.1349	0.7028	0.144153	0	Uiso	1
C35	C	0.6434	0.1753	0.6759	-0.099679	0	Uiso	1
Cl36	Cl	0.60246	0.21522	0.6891	0.001911	0	Uiso	1
N37	N	0.5993	0.1361	0.8077	-0.107093	0	Uiso	1
C38	C	0.5829	0.1186	0.8493	-0.047499	0	Uiso	1
Cl39	Cl	0.5669	0.05954	0.85523	-0.033169	0	Uiso	1
Zn40	Zn	0.39551	0.89567	0.74793	0.274861	0	Uiso	1
N41	N	0.3721	0.962	0.7557	0.496093	0	Uiso	1
C42	C	0.3358	0.9757	0.7785	-0.203049	0	Uiso	1
Cl43	Cl	0.29541	0.93938	0.80436	0.00966	0	Uiso	1
N44	N	0.4603	0.9009	0.7231	0.082941	0	Uiso	1
C45	C	0.4776	0.9173	0.6792	-0.036656	0	Uiso	1
Cl46	Cl	0.43906	0.93138	0.63732	-0.0305	0	Uiso	1
N47	N	0.3539	0.8651	0.7028	0.140644	0	Uiso	1
C48	C	0.3566	0.8247	0.6759	-0.099465	0	Uiso	1
Cl49	Cl	0.39754	0.78478	0.6891	0.001668	0	Uiso	1
N50	N	0.4007	0.8639	0.8077	-0.118314	0	Uiso	1
C51	C	0.4171	0.8814	0.8493	-0.044819	0	Uiso	1
Cl52	Cl	0.4331	0.94046	0.85523	-0.033073	0	Uiso	1
Zn53	Zn	0.25207	0.39551	0.10433	0.270775	0	Uiso	1
N54	N	0.2443	0.3721	0.038	0.501117	0	Uiso	1
C55	C	0.2215	0.3358	0.0243	-0.20186	0	Uiso	1
Cl56	Cl	0.19564	0.29541	0.06062	0.009009	0	Uiso	1
N57	N	0.2769	0.4603	0.0991	0.085614	0	Uiso	1
C58	C	0.3208	0.4776	0.0827	-0.038278	0	Uiso	1
Cl59	Cl	0.36268	0.43906	0.06862	-0.02978	0	Uiso	1
N60	N	0.2972	0.3539	0.1349	0.137542	0	Uiso	1
C61	C	0.3241	0.3566	0.1753	-0.097395	0	Uiso	1
Cl62	Cl	0.3109	0.39754	0.21522	0.000982	0	Uiso	1
N63	N	0.1923	0.4007	0.1361	-0.117558	0	Uiso	1
C64	C	0.1507	0.4171	0.1186	-0.045016	0	Uiso	1
Cl65	Cl	0.14477	0.4331	0.05954	-0.033293	0	Uiso	1
Zn66	Zn	0.25207	0.60449	0.89567	0.280894	0	Uiso	1
N67	N	0.2443	0.6279	0.962	0.492571	0	Uiso	1
C68	C	0.2215	0.6642	0.9757	-0.202522	0	Uiso	1
Cl69	Cl	0.19564	0.70459	0.93938	0.008996	0	Uiso	1
N70	N	0.2769	0.5397	0.9009	0.080433	0	Uiso	1
C71	C	0.3208	0.5224	0.9173	-0.03618	0	Uiso	1
Cl72	Cl	0.36268	0.56094	0.93138	-0.030988	0	Uiso	1
N73	N	0.2972	0.6461	0.8651	0.137204	0	Uiso	1
C74	C	0.3241	0.6434	0.8247	-0.096433	0	Uiso	1
Cl75	Cl	0.3109	0.60246	0.78478	0.001112	0	Uiso	1
N76	N	0.1923	0.5993	0.8639	-0.119529	0	Uiso	1
C77	C	0.1507	0.5829	0.8814	-0.042975	0	Uiso	1
Cl78	Cl	0.14477	0.5669	0.94046	-0.034025	0	Uiso	1
Zn79	Zn	0.74793	0.60449	0.10433	0.262491	0	Uiso	1
N80	N	0.7557	0.6279	0.038	0.496924	0	Uiso	1
C81	C	0.7785	0.6642	0.0243	-0.202344	0	Uiso	1
Cl82	Cl	0.80436	0.70459	0.06062	0.009257	0	Uiso	1
N83	N	0.7231	0.5397	0.0991	0.086823	0	Uiso	1
C84	C	0.6792	0.5224	0.0827	-0.038477	0	Uiso	1
Cl85	Cl	0.63732	0.56094	0.06862	-0.029517	0	Uiso	1
N86	N	0.7028	0.6461	0.1349	0.144163	0	Uiso	1
C87	C	0.6759	0.6434	0.1753	-0.099696	0	Uiso	1
Cl88	Cl	0.6891	0.60246	0.21522	0.001925	0	Uiso	1
N89	N	0.8077	0.5993	0.1361	-0.1071	0	Uiso	1
C90	C	0.8493	0.5829	0.1186	-0.047479	0	Uiso	1
Cl91	Cl	0.85523	0.5669	0.05954	-0.033201	0	Uiso	1
Zn92	Zn	0.74793	0.39551	0.89567	0.274833	0	Uiso	1
N93	N	0.7557	0.3721	0.962	0.496068	0	Uiso	1
C94	C	0.7785	0.3358	0.9757	-0.202969	0	Uiso	1
Cl95	Cl	0.80436	0.29541	0.93938	0.009679	0	Uiso	1
N96	N	0.7231	0.4603	0.9009	0.082951	0	Uiso	1
C97	C	0.6792	0.4776	0.9173	-0.036628	0	Uiso	1
Cl98	Cl	0.63732	0.43906	0.93138	-0.030495	0	Uiso	1
N99	N	0.7028	0.3539	0.8651	0.140667	0	Uiso	1
C100	C	0.6759	0.3566	0.8247	-0.099457	0	Uiso	1
Cl101	Cl	0.6891	0.39754	0.78478	0.001644	0	Uiso	1
N102	N	0.8077	0.4007	0.8639	-0.118371	0	Uiso	1
C103	C	0.8493	0.4171	0.8814	-0.044847	0	Uiso	1
Cl104	Cl	0.85523	0.4331	0.94046	-0.033054	0	Uiso	1
Zn105	Zn	0.10433	0.25207	0.39551	0.270741	0	Uiso	1
N106	N	0.038	0.2443	0.3721	0.501081	0	Uiso	1
C107	C	0.0243	0.2215	0.3358	-0.201887	0	Uiso	1
Cl108	Cl	0.06062	0.19564	0.29541	0.00904	0	Uiso	1
N109	N	0.0991	0.2769	0.4603	0.085685	0	Uiso	1
C110	C	0.0827	0.3208	0.4776	-0.038359	0	Uiso	1
Cl111	Cl	0.06862	0.36268	0.43906	-0.029764	0	Uiso	1
N112	N	0.1349	0.2972	0.3539	0.137506	0	Uiso	1
C113	C	0.1753	0.3241	0.3566	-0.097331	0	Uiso	1
Cl114	Cl	0.21522	0.3109	0.39754	0.000971	0	Uiso	1
N115	N	0.1361	0.1923	0.4007	-0.117533	0	Uiso	1
C116	C	0.1186	0.1507	0.4171	-0.045005	0	Uiso	1
Cl117	Cl	0.05954	0.14477	0.4331	-0.03326	0	Uiso	1
Zn118	Zn	0.89567	0.25207	0.60449	0.280925	0	Uiso	1
N119	N	0.962	0.2443	0.6279	0.492559	0	Uiso	1
C120	C	0.9757	0.2215	0.6642	-0.202636	0	Uiso	1
Cl121	Cl	0.93938	0.19564	0.70459	0.009013	0	Uiso	1
N122	N	0.9009	0.2769	0.5397	0.080391	0	Uiso	1
C123	C	0.9173	0.3208	0.5224	-0.036157	0	Uiso	1
Cl124	Cl	0.93138	0.36268	0.56094	-0.031007	0	Uiso	1
N125	N	0.8651	0.2972	0.6461	0.137229	0	Uiso	1
C126	C	0.8247	0.3241	0.6434	-0.096454	0	Uiso	1
Cl127	Cl	0.78478	0.3109	0.60246	0.001119	0	Uiso	1
N128	N	0.8639	0.1923	0.5993	-0.119533	0	Uiso	1
C129	C	0.8814	0.1507	0.5829	-0.042934	0	Uiso	1
Cl130	Cl	0.94046	0.14477	0.5669	-0.034015	0	Uiso	1
Zn131	Zn	0.10433	0.74793	0.60449	0.262469	0	Uiso	1
N132	N	0.038	0.7557	0.6279	0.497038	0	Uiso	1
C133	C	0.0243	0.7785	0.6642	-0.202352	0	Uiso	1
Cl134	Cl	0.06062	0.80436	0.70459	0.009277	0	Uiso	1
N135	N	0.0991	0.7231	0.5397	0.086835	0	Uiso	1
C136	C	0.0827	0.6792	0.5224	-0.038449	0	Uiso	1
Cl137	Cl	0.06862	0.63732	0.56094	-0.029505	0	Uiso	1
N138	N	0.1349	0.7028	0.6461	0.144136	0	Uiso	1
C139	C	0.1753	0.6759	0.6434	-0.099682	0	Uiso	1
Cl140	Cl	0.21522	0.6891	0.60246	0.001891	0	Uiso	1
N141	N	0.1361	0.8077	0.5993	-0.107115	0	Uiso	1
C142	C	0.1186	0.8493	0.5829	-0.04749	0	Uiso	1
Cl143	Cl	0.05954	0.85523	0.5669	-0.033169	0	Uiso	1
Zn144	Zn	0.89567	0.74793	0.39551	0.274861	0	Uiso	1
N145	N	0.962	0.7557	0.3721	0.496058	0	Uiso	1
C146	C	0.9757	0.7785	0.3358	-0.202956	0	Uiso	1
Cl147	Cl	0.93938	0.80436	0.29541	0.009641	0	Uiso	1
N148	N	0.9009	0.7231	0.4603	0.082928	0	Uiso	1
C149	C	0.9173	0.6792	0.4776	-0.036627	0	Uiso	1
Cl150	Cl	0.93138	0.63732	0.43906	-0.030509	0	Uiso	1
N151	N	0.8651	0.7028	0.3539	0.140577	0	Uiso	1
C152	C	0.8247	0.6759	0.3566	-0.09943	0	Uiso	1
Cl153	Cl	0.78478	0.6891	0.39754	0.00166	0	Uiso	1
N154	N	0.8639	0.8077	0.4007	-0.11831	0	Uiso	1
C155	C	0.8814	0.8493	0.4171	-0.044811	0	Uiso	1
Cl156	Cl	0.94046	0.85523	0.4331	-0.033069	0	Uiso	1
Zn157	Zn	0.10433	0.39551	0.74793	0.264673	0	Uiso	1
N158	N	0.038	0.3721	0.7557	0.504781	0	Uiso	1
C159	C	0.0243	0.3358	0.7785	-0.204367	0	Uiso	1
Cl160	Cl	0.06062	0.29541	0.80436	0.00955	0	Uiso	1
N161	N	0.0991	0.4603	0.7231	0.085532	0	Uiso	1
C162	C	0.0827	0.4776	0.6792	-0.036474	0	Uiso	1
Cl163	Cl	0.06862	0.43906	0.63732	-0.030524	0	Uiso	1
N164	N	0.1349	0.3539	0.7028	0.141748	0	Uiso	1
C165	C	0.1753	0.3566	0.6759	-0.09696	0	Uiso	1
Cl166	Cl	0.21522	0.39754	0.6891	0.00144	0	Uiso	1
N167	N	0.1361	0.4007	0.8077	-0.110206	0	Uiso	1
C168	C	0.1186	0.4171	0.8493	-0.046774	0	Uiso	1
Cl169	Cl	0.05954	0.4331	0.85523	-0.033079	0	Uiso	1
Zn170	Zn	0.89567	0.60449	0.74793	0.269376	0	Uiso	1
N171	N	0.962	0.6279	0.7557	0.494386	0	Uiso	1
C172	C	0.9757	0.6642	0.7785	-0.200683	0	Uiso	1
Cl173	Cl	0.93938	0.70459	0.80436	0.009006	0	Uiso	1
N174	N	0.9009	0.5397	0.7231	0.084321	0	Uiso	1
C175	C	0.9173	0.5224	0.6792	-0.036472	0	Uiso	1
Cl176	Cl	0.93138	0.56094	0.63732	-0.030217	0	Uiso	1
N177	N	0.8651	0.6461	0.7028	0.138819	0	Uiso	1
C178	C	0.8247	0.6434	0.6759	-0.098388	0	Uiso	1
Cl179	Cl	0.78478	0.60246	0.6891	0.001736	0	Uiso	1
N180	N	0.8639	0.5993	0.8077	-0.110086	0	Uiso	1
C181	C	0.8814	0.5829	0.8493	-0.046208	0	Uiso	1
Cl182	Cl	0.94046	0.5669	0.85523	-0.033558	0	Uiso	1
Zn183	Zn	0.10433	0.60449	0.25207	0.263513	0	Uiso	1
N184	N	0.038	0.6279	0.2443	0.497363	0	Uiso	1
C185	C	0.0243	0.6642	0.2215	-0.198887	0	Uiso	1
Cl186	Cl	0.06062	0.70459	0.19564	0.008583	0	Uiso	1
N187	N	0.0991	0.5397	0.2769	0.087618	0	Uiso	1
C188	C	0.0827	0.5224	0.3208	-0.038432	0	Uiso	1
Cl189	Cl	0.06862	0.56094	0.36268	-0.029528	0	Uiso	1
N190	N	0.1349	0.6461	0.2972	0.147828	0	Uiso	1
C191	C	0.1753	0.6434	0.3241	-0.102675	0	Uiso	1
Cl192	Cl	0.21522	0.60246	0.3109	0.002236	0	Uiso	1
N193	N	0.1361	0.5993	0.1923	-0.114235	0	Uiso	1
C194	C	0.1186	0.5829	0.1507	-0.046356	0	Uiso	1
Cl195	Cl	0.05954	0.5669	0.14477	-0.03246	0	Uiso	1
Zn196	Zn	0.89567	0.39551	0.25207	0.275186	0	Uiso	1
N197	N	0.962	0.3721	0.2443	0.495499	0	Uiso	1
C198	C	0.9757	0.3358	0.2215	-0.202464	0	Uiso	1
Cl199	Cl	0.93938	0.29541	0.19564	0.009234	0	Uiso	1
N200	N	0.9009	0.4603	0.2769	0.083158	0	Uiso	1
C201	C	0.9173	0.4776	0.3208	-0.035651	0	Uiso	1
Cl202	Cl	0.93138	0.43906	0.36268	-0.030781	0	Uiso	1
N203	N	0.8651	0.3539	0.2972	0.136562	0	Uiso	1
C204	C	0.8247	0.3566	0.3241	-0.097143	0	Uiso	1
Cl205	Cl	0.78478	0.39754	0.3109	0.001221	0	Uiso	1
N206	N	0.8639	0.4007	0.1923	-0.115292	0	Uiso	1
C207	C	0.8814	0.4171	0.1507	-0.046441	0	Uiso	1
Cl208	Cl	0.94046	0.4331	0.14477	-0.032716	0	Uiso	1
Zn209	Zn	0.39551	0.25207	0.89567	0.275192	0	Uiso	1
N210	N	0.3721	0.2443	0.962	0.495438	0	Uiso	1
C211	C	0.3358	0.2215	0.9757	-0.202409	0	Uiso	1
Cl212	Cl	0.29541	0.19564	0.93938	0.009221	0	Uiso	1
N213	N	0.4603	0.2769	0.9009	0.08319	0	Uiso	1
C214	C	0.4776	0.3208	0.9173	-0.035679	0	Uiso	1
Cl215	Cl	0.43906	0.36268	0.93138	-0.030791	0	Uiso	1
N216	N	0.3539	0.2972	0.8651	0.136511	0	Uiso	1
C217	C	0.3566	0.3241	0.8247	-0.097145	0	Uiso	1
Cl218	Cl	0.39754	0.3109	0.78478	0.001244	0	Uiso	1
N219	N	0.4007	0.1923	0.8639	-0.115325	0	Uiso	1
C220	C	0.4171	0.1507	0.8814	-0.046426	0	Uiso	1
Cl221	Cl	0.4331	0.14477	0.94046	-0.032722	0	Uiso	1
Zn222	Zn	0.60449	0.25207	0.10433	0.263501	0	Uiso	1
N223	N	0.6279	0.2443	0.038	0.497334	0	Uiso	1
C224	C	0.6642	0.2215	0.0243	-0.198864	0	Uiso	1
Cl225	Cl	0.70459	0.19564	0.06062	0.008577	0	Uiso	1
N226	N	0.5397	0.2769	0.0991	0.087609	0	Uiso	1
C227	C	0.5224	0.3208	0.0827	-0.038398	0	Uiso	1
Cl228	Cl	0.56094	0.36268	0.06862	-0.029543	0	Uiso	1
N229	N	0.6461	0.2972	0.1349	0.147822	0	Uiso	1
C230	C	0.6434	0.3241	0.1753	-0.102626	0	Uiso	1
Cl231	Cl	0.60246	0.3109	0.21522	0.002206	0	Uiso	1
N232	N	0.5993	0.1923	0.1361	-0.114222	0	Uiso	1
C233	C	0.5829	0.1507	0.1186	-0.046353	0	Uiso	1
Cl234	Cl	0.5669	0.14477	0.05954	-0.03247	0	Uiso	1
Zn235	Zn	0.60449	0.74793	0.89567	0.269366	0	Uiso	1
N236	N	0.6279	0.7557	0.962	0.494402	0	Uiso	1
C237	C	0.6642	0.7785	0.9757	-0.200726	0	Uiso	1
Cl238	Cl	0.70459	0.80436	0.93938	0.009022	0	Uiso	1
N239	N	0.5397	0.7231	0.9009	0.084364	0	Uiso	1
C240	C	0.5224	0.6792	0.9173	-0.036476	0	Uiso	1
Cl241	Cl	0.56094	0.63732	0.93138	-0.030195	0	Uiso	1
N242	N	0.6461	0.7028	0.8651	0.138813	0	Uiso	1
C243	C	0.6434	0.6759	0.8247	-0.098369	0	Uiso	1
Cl244	Cl	0.60246	0.6891	0.78478	0.001758	0	Uiso	1
N245	N	0.5993	0.8077	0.8639	-0.110063	0	Uiso	1
C246	C	0.5829	0.8493	0.8814	-0.046143	0	Uiso	1
Cl247	Cl	0.5669	0.85523	0.94046	-0.033551	0	Uiso	1
Zn248	Zn	0.39551	0.74793	0.10433	0.264649	0	Uiso	1
N249	N	0.3721	0.7557	0.038	0.504762	0	Uiso	1
C250	C	0.3358	0.7785	0.0243	-0.204316	0	Uiso	1
Cl251	Cl	0.29541	0.80436	0.06062	0.009532	0	Uiso	1
N252	N	0.4603	0.7231	0.0991	0.085585	0	Uiso	1
C253	C	0.4776	0.6792	0.0827	-0.03647	0	Uiso	1
Cl254	Cl	0.43906	0.63732	0.06862	-0.03054	0	Uiso	1
N255	N	0.3539	0.7028	0.1349	0.141797	0	Uiso	1
C256	C	0.3566	0.6759	0.1753	-0.097015	0	Uiso	1
Cl257	Cl	0.39754	0.6891	0.21522	0.00144	0	Uiso	1
N258	N	0.4007	0.8077	0.1361	-0.110176	0	Uiso	1
C259	C	0.4171	0.8493	0.1186	-0.046813	0	Uiso	1
Cl260	Cl	0.4331	0.85523	0.05954	-0.033066	0	Uiso	1
Zn261	Zn	0.25207	0.10433	0.60449	0.263547	0	Uiso	1
N262	N	0.2443	0.038	0.6279	0.497294	0	Uiso	1
C263	C	0.2215	0.0243	0.6642	-0.198871	0	Uiso	1
Cl264	Cl	0.19564	0.06062	0.70459	0.008519	0	Uiso	1
N265	N	0.2769	0.0991	0.5397	0.087524	0	Uiso	1
C266	C	0.3208	0.0827	0.5224	-0.038379	0	Uiso	1
Cl267	Cl	0.36268	0.06862	0.56094	-0.029587	0	Uiso	1
N268	N	0.2972	0.1349	0.6461	0.14787	0	Uiso	1
C269	C	0.3241	0.1753	0.6434	-0.102661	0	Uiso	1
Cl270	Cl	0.3109	0.21522	0.60246	0.002211	0	Uiso	1
N271	N	0.1923	0.1361	0.5993	-0.114179	0	Uiso	1
C272	C	0.1507	0.1186	0.5829	-0.046357	0	Uiso	1
Cl273	Cl	0.14477	0.05954	0.5669	-0.032485	0	Uiso	1
Zn274	Zn	0.25207	0.89567	0.39551	0.27516	0	Uiso	1
N275	N	0.2443	0.962	0.3721	0.495443	0	Uiso	1
C276	C	0.2215	0.9757	0.3358	-0.202384	0	Uiso	1
Cl277	Cl	0.19564	0.93938	0.29541	0.009204	0	Uiso	1
N278	N	0.2769	0.9009	0.4603	0.083179	0	Uiso	1
C279	C	0.3208	0.9173	0.4776	-0.035688	0	Uiso	1
Cl280	Cl	0.36268	0.93138	0.43906	-0.030794	0	Uiso	1
N281	N	0.2972	0.8651	0.3539	0.136584	0	Uiso	1
C282	C	0.3241	0.8247	0.3566	-0.097135	0	Uiso	1
Cl283	Cl	0.3109	0.78478	0.39754	0.001257	0	Uiso	1
N284	N	0.1923	0.8639	0.4007	-0.115286	0	Uiso	1
C285	C	0.1507	0.8814	0.4171	-0.046454	0	Uiso	1
Cl286	Cl	0.14477	0.94046	0.4331	-0.03271	0	Uiso	1
Zn287	Zn	0.74793	0.10433	0.39551	0.264661	0	Uiso	1
N288	N	0.7557	0.038	0.3721	0.50467	0	Uiso	1
C289	C	0.7785	0.0243	0.3358	-0.20433	0	Uiso	1
Cl290	Cl	0.80436	0.06062	0.29541	0.009504	0	Uiso	1
N291	N	0.7231	0.0991	0.4603	0.085573	0	Uiso	1
C292	C	0.6792	0.0827	0.4776	-0.036482	0	Uiso	1
Cl293	Cl	0.63732	0.06862	0.43906	-0.03051	0	Uiso	1
N294	N	0.7028	0.1349	0.3539	0.141787	0	Uiso	1
C295	C	0.6759	0.1753	0.3566	-0.097007	0	Uiso	1
Cl296	Cl	0.6891	0.21522	0.39754	0.001439	0	Uiso	1
N297	N	0.8077	0.1361	0.4007	-0.110115	0	Uiso	1
C298	C	0.8493	0.1186	0.4171	-0.046824	0	Uiso	1
Cl299	Cl	0.85523	0.05954	0.4331	-0.033065	0	Uiso	1
Zn300	Zn	0.74793	0.89567	0.60449	0.269352	0	Uiso	1
N301	N	0.7557	0.962	0.6279	0.494409	0	Uiso	1
C302	C	0.7785	0.9757	0.6642	-0.200749	0	Uiso	1
Cl303	Cl	0.80436	0.93938	0.70459	0.008988	0	Uiso	1
N304	N	0.7231	0.9009	0.5397	0.084337	0	Uiso	1
C305	C	0.6792	0.9173	0.5224	-0.036453	0	Uiso	1
Cl306	Cl	0.63732	0.93138	0.56094	-0.030209	0	Uiso	1
N307	N	0.7028	0.8651	0.6461	0.138912	0	Uiso	1
C308	C	0.6759	0.8247	0.6434	-0.098371	0	Uiso	1
Cl309	Cl	0.6891	0.78478	0.60246	0.001732	0	Uiso	1
N310	N	0.8077	0.8639	0.5993	-0.11007	0	Uiso	1
C311	C	0.8493	0.8814	0.5829	-0.046131	0	Uiso	1
Cl312	Cl	0.85523	0.94046	0.5669	-0.033562	0	Uiso	1
Zn313	Zn	0.60449	0.89567	0.74793	0.269348	0	Uiso	1
N314	N	0.6279	0.962	0.7557	0.494449	0	Uiso	1
C315	C	0.6642	0.9757	0.7785	-0.20076	0	Uiso	1
Cl316	Cl	0.70459	0.93938	0.80436	0.009029	0	Uiso	1
N317	N	0.5397	0.9009	0.7231	0.08436	0	Uiso	1
C318	C	0.5224	0.9173	0.6792	-0.036475	0	Uiso	1
Cl319	Cl	0.56094	0.93138	0.63732	-0.030188	0	Uiso	1
N320	N	0.6461	0.8651	0.7028	0.138887	0	Uiso	1
C321	C	0.6434	0.8247	0.6759	-0.098343	0	Uiso	1
Cl322	Cl	0.60246	0.78478	0.6891	0.001749	0	Uiso	1
N323	N	0.5993	0.8639	0.8077	-0.110069	0	Uiso	1
C324	C	0.5829	0.8814	0.8493	-0.046183	0	Uiso	1
Cl325	Cl	0.5669	0.94046	0.85523	-0.033584	0	Uiso	1
Zn326	Zn	0.39551	0.10433	0.74793	0.264681	0	Uiso	1
N327	N	0.3721	0.038	0.7557	0.50468	0	Uiso	1
C328	C	0.3358	0.0243	0.7785	-0.20429	0	Uiso	1
Cl329	Cl	0.29541	0.06062	0.80436	0.009537	0	Uiso	1
N330	N	0.4603	0.0991	0.7231	0.085559	0	Uiso	1
C331	C	0.4776	0.0827	0.6792	-0.036474	0	Uiso	1
Cl332	Cl	0.43906	0.06862	0.63732	-0.030521	0	Uiso	1
N333	N	0.3539	0.1349	0.7028	0.141772	0	Uiso	1
C334	C	0.3566	0.1753	0.6759	-0.096999	0	Uiso	1
Cl335	Cl	0.39754	0.21522	0.6891	0.001463	0	Uiso	1
N336	N	0.4007	0.1361	0.8077	-0.110228	0	Uiso	1
C337	C	0.4171	0.1186	0.8493	-0.046787	0	Uiso	1
Cl338	Cl	0.4331	0.05954	0.85523	-0.03308	0	Uiso	1
Zn339	Zn	0.39551	0.89567	0.25207	0.275184	0	Uiso	1
N340	N	0.3721	0.962	0.2443	0.495436	0	Uiso	1
C341	C	0.3358	0.9757	0.2215	-0.202422	0	Uiso	1
Cl342	Cl	0.29541	0.93938	0.19564	0.009228	0	Uiso	1
N343	N	0.4603	0.9009	0.2769	0.083176	0	Uiso	1
C344	C	0.4776	0.9173	0.3208	-0.035731	0	Uiso	1
Cl345	Cl	0.43906	0.93138	0.36268	-0.030788	0	Uiso	1
N346	N	0.3539	0.8651	0.2972	0.13655	0	Uiso	1
C347	C	0.3566	0.8247	0.3241	-0.097149	0	Uiso	1
Cl348	Cl	0.39754	0.78478	0.3109	0.001216	0	Uiso	1
N349	N	0.4007	0.8639	0.1923	-0.115343	0	Uiso	1
C350	C	0.4171	0.8814	0.1507	-0.046437	0	Uiso	1
Cl351	Cl	0.4331	0.94046	0.14477	-0.032712	0	Uiso	1
Zn352	Zn	0.60449	0.10433	0.25207	0.263531	0	Uiso	1
N353	N	0.6279	0.038	0.2443	0.497244	0	Uiso	1
C354	C	0.6642	0.0243	0.2215	-0.198777	0	Uiso	1
Cl355	Cl	0.70459	0.06062	0.19564	0.00851	0	Uiso	1
N356	N	0.5397	0.0991	0.2769	0.087594	0	Uiso	1
C357	C	0.5224	0.0827	0.3208	-0.038354	0	Uiso	1
Cl358	Cl	0.56094	0.06862	0.36268	-0.029551	0	Uiso	1
N359	N	0.6461	0.1349	0.2972	0.147815	0	Uiso	1
C360	C	0.6434	0.1753	0.3241	-0.102671	0	Uiso	1
Cl361	Cl	0.60246	0.21522	0.3109	0.002231	0	Uiso	1
N362	N	0.5993	0.1361	0.1923	-0.114236	0	Uiso	1
C363	C	0.5829	0.1186	0.1507	-0.046376	0	Uiso	1
Cl364	Cl	0.5669	0.05954	0.14477	-0.032492	0	Uiso	1
Zn365	Zn	0.74793	0.60449	0.89567	0.269364	0	Uiso	1
N366	N	0.7557	0.6279	0.962	0.494329	0	Uiso	1
C367	C	0.7785	0.6642	0.9757	-0.200753	0	Uiso	1
Cl368	Cl	0.80436	0.70459	0.93938	0.009009	0	Uiso	1
N369	N	0.7231	0.5397	0.9009	0.084357	0	Uiso	1
C370	C	0.6792	0.5224	0.9173	-0.03647	0	Uiso	1
Cl371	Cl	0.63732	0.56094	0.93138	-0.030201	0	Uiso	1
N372	N	0.7028	0.6461	0.8651	0.138856	0	Uiso	1
C373	C	0.6759	0.6434	0.8247	-0.09837	0	Uiso	1
Cl374	Cl	0.6891	0.60246	0.78478	0.001744	0	Uiso	1
N375	N	0.8077	0.5993	0.8639	-0.11004	0	Uiso	1
C376	C	0.8493	0.5829	0.8814	-0.046117	0	Uiso	1
Cl377	Cl	0.85523	0.5669	0.94046	-0.033566	0	Uiso	1
Zn378	Zn	0.74793	0.39551	0.10433	0.264697	0	Uiso	1
N379	N	0.7557	0.3721	0.038	0.504637	0	Uiso	1
C380	C	0.7785	0.3358	0.0243	-0.204331	0	Uiso	1
Cl381	Cl	0.80436	0.29541	0.06062	0.009511	0	Uiso	1
N382	N	0.7231	0.4603	0.0991	0.085487	0	Uiso	1
C383	C	0.6792	0.4776	0.0827	-0.036415	0	Uiso	1
Cl384	Cl	0.63732	0.43906	0.06862	-0.030543	0	Uiso	1
N385	N	0.7028	0.3539	0.1349	0.141848	0	Uiso	1
C386	C	0.6759	0.3566	0.1753	-0.097033	0	Uiso	1
Cl387	Cl	0.6891	0.39754	0.21522	0.001441	0	Uiso	1
N388	N	0.8077	0.4007	0.1361	-0.11017	0	Uiso	1
C389	C	0.8493	0.4171	0.1186	-0.046761	0	Uiso	1
Cl390	Cl	0.85523	0.4331	0.05954	-0.033087	0	Uiso	1
Zn391	Zn	0.25207	0.39551	0.89567	0.275152	0	Uiso	1
N392	N	0.2443	0.3721	0.962	0.495438	0	Uiso	1
C393	C	0.2215	0.3358	0.9757	-0.202463	0	Uiso	1
Cl394	Cl	0.19564	0.29541	0.93938	0.009236	0	Uiso	1
N395	N	0.2769	0.4603	0.9009	0.083235	0	Uiso	1
C396	C	0.3208	0.4776	0.9173	-0.035657	0	Uiso	1
Cl397	Cl	0.36268	0.43906	0.93138	-0.030808	0	Uiso	1
N398	N	0.2972	0.3539	0.8651	0.136576	0	Uiso	1
C399	C	0.3241	0.3566	0.8247	-0.0972	0	Uiso	1
Cl400	Cl	0.3109	0.39754	0.78478	0.00124	0	Uiso	1
N401	N	0.1923	0.4007	0.8639	-0.115259	0	Uiso	1
C402	C	0.1507	0.4171	0.8814	-0.046454	0	Uiso	1
Cl403	Cl	0.14477	0.4331	0.94046	-0.032708	0	Uiso	1
Zn404	Zn	0.25207	0.60449	0.10433	0.263491	0	Uiso	1
N405	N	0.2443	0.6279	0.038	0.497326	0	Uiso	1
C406	C	0.2215	0.6642	0.0243	-0.198886	0	Uiso	1
Cl407	Cl	0.19564	0.70459	0.06062	0.008579	0	Uiso	1
N408	N	0.2769	0.5397	0.0991	0.087662	0	Uiso	1
C409	C	0.3208	0.5224	0.0827	-0.03841	0	Uiso	1
Cl410	Cl	0.36268	0.56094	0.06862	-0.029548	0	Uiso	1
N411	N	0.2972	0.6461	0.1349	0.147828	0	Uiso	1
C412	C	0.3241	0.6434	0.1753	-0.102658	0	Uiso	1
Cl413	Cl	0.3109	0.60246	0.21522	0.002215	0	Uiso	1
N414	N	0.1923	0.5993	0.1361	-0.114192	0	Uiso	1
C415	C	0.1507	0.5829	0.1186	-0.046381	0	Uiso	1
Cl416	Cl	0.14477	0.5669	0.05954	-0.032469	0	Uiso	1
Zn417	Zn	0.89567	0.74793	0.60449	0.269342	0	Uiso	1
N418	N	0.962	0.7557	0.6279	0.494441	0	Uiso	1
C419	C	0.9757	0.7785	0.6642	-0.200778	0	Uiso	1
Cl420	Cl	0.93938	0.80436	0.70459	0.009026	0	Uiso	1
N421	N	0.9009	0.7231	0.5397	0.084366	0	Uiso	1
C422	C	0.9173	0.6792	0.5224	-0.036491	0	Uiso	1
Cl423	Cl	0.93138	0.63732	0.56094	-0.030195	0	Uiso	1
N424	N	0.8651	0.7028	0.6461	0.138839	0	Uiso	1
C425	C	0.8247	0.6759	0.6434	-0.098352	0	Uiso	1
Cl426	Cl	0.78478	0.6891	0.60246	0.001721	0	Uiso	1
N427	N	0.8639	0.8077	0.5993	-0.110046	0	Uiso	1
C428	C	0.8814	0.8493	0.5829	-0.04618	0	Uiso	1
Cl429	Cl	0.94046	0.85523	0.5669	-0.033565	0	Uiso	1
Zn430	Zn	0.10433	0.74793	0.39551	0.264667	0	Uiso	1
N431	N	0.038	0.7557	0.3721	0.504715	0	Uiso	1
C432	C	0.0243	0.7785	0.3358	-0.204338	0	Uiso	1
Cl433	Cl	0.06062	0.80436	0.29541	0.009541	0	Uiso	1
N434	N	0.0991	0.7231	0.4603	0.085536	0	Uiso	1
C435	C	0.0827	0.6792	0.4776	-0.036465	0	Uiso	1
Cl436	Cl	0.06862	0.63732	0.43906	-0.030526	0	Uiso	1
N437	N	0.1349	0.7028	0.3539	0.141725	0	Uiso	1
C438	C	0.1753	0.6759	0.3566	-0.09701	0	Uiso	1
Cl439	Cl	0.21522	0.6891	0.39754	0.00144	0	Uiso	1
N440	N	0.1361	0.8077	0.4007	-0.110214	0	Uiso	1
C441	C	0.1186	0.8493	0.4171	-0.046791	0	Uiso	1
Cl442	Cl	0.05954	0.85523	0.4331	-0.03308	0	Uiso	1
Zn443	Zn	0.89567	0.25207	0.39551	0.275155	0	Uiso	1
N444	N	0.962	0.2443	0.3721	0.495465	0	Uiso	1
C445	C	0.9757	0.2215	0.3358	-0.202426	0	Uiso	1
Cl446	Cl	0.93938	0.19564	0.29541	0.009233	0	Uiso	1
N447	N	0.9009	0.2769	0.4603	0.083189	0	Uiso	1
C448	C	0.9173	0.3208	0.4776	-0.03564	0	Uiso	1
Cl449	Cl	0.93138	0.36268	0.43906	-0.030802	0	Uiso	1
N450	N	0.8651	0.2972	0.3539	0.136567	0	Uiso	1
C451	C	0.8247	0.3241	0.3566	-0.097173	0	Uiso	1
Cl452	Cl	0.78478	0.3109	0.39754	0.001246	0	Uiso	1
N453	N	0.8639	0.1923	0.4007	-0.11527	0	Uiso	1
C454	C	0.8814	0.1507	0.4171	-0.046424	0	Uiso	1
Cl455	Cl	0.94046	0.14477	0.4331	-0.032724	0	Uiso	1
Zn456	Zn	0.10433	0.25207	0.60449	0.263511	0	Uiso	1
N457	N	0.038	0.2443	0.6279	0.497247	0	Uiso	1
C458	C	0.0243	0.2215	0.6642	-0.198766	0	Uiso	1
Cl459	Cl	0.06062	0.19564	0.70459	0.008527	0	Uiso	1
N460	N	0.0991	0.2769	0.5397	0.087628	0	Uiso	1
C461	C	0.0827	0.3208	0.5224	-0.038355	0	Uiso	1
Cl462	Cl	0.06862	0.36268	0.56094	-0.029586	0	Uiso	1
N463	N	0.1349	0.2972	0.6461	0.147857	0	Uiso	1
C464	C	0.1753	0.3241	0.6434	-0.102704	0	Uiso	1
Cl465	Cl	0.21522	0.3109	0.60246	0.002244	0	Uiso	1
N466	N	0.1361	0.1923	0.5993	-0.114171	0	Uiso	1
C467	C	0.1186	0.1507	0.5829	-0.046378	0	Uiso	1
Cl468	Cl	0.05954	0.14477	0.5669	-0.032476	0	Uiso	1
Zn469	Zn	0.89567	0.60449	0.25207	0.280931	0	Uiso	1
N470	N	0.962	0.6279	0.2443	0.492556	0	Uiso	1
C471	C	0.9757	0.6642	0.2215	-0.202568	0	Uiso	1
Cl472	Cl	0.93938	0.70459	0.19564	0.008953	0	Uiso	1
N473	N	0.9009	0.5397	0.2769	0.080372	0	Uiso	1
C474	C	0.9173	0.5224	0.3208	-0.036164	0	Uiso	1
Cl475	Cl	0.93138	0.56094	0.36268	-0.031002	0	Uiso	1
N476	N	0.8651	0.6461	0.2972	0.137224	0	Uiso	1
C477	C	0.8247	0.6434	0.3241	-0.096454	0	Uiso	1
Cl478	Cl	0.78478	0.60246	0.3109	0.001132	0	Uiso	1
N479	N	0.8639	0.5993	0.1923	-0.119531	0	Uiso	1
C480	C	0.8814	0.5829	0.1507	-0.042928	0	Uiso	1
Cl481	Cl	0.94046	0.5669	0.14477	-0.034014	0	Uiso	1
Zn482	Zn	0.10433	0.39551	0.25207	0.270771	0	Uiso	1
N483	N	0.038	0.3721	0.2443	0.501129	0	Uiso	1
C484	C	0.0243	0.3358	0.2215	-0.201859	0	Uiso	1
Cl485	Cl	0.06062	0.29541	0.19564	0.009015	0	Uiso	1
N486	N	0.0991	0.4603	0.2769	0.085622	0	Uiso	1
C487	C	0.0827	0.4776	0.3208	-0.038261	0	Uiso	1
Cl488	Cl	0.06862	0.43906	0.36268	-0.029794	0	Uiso	1
N489	N	0.1349	0.3539	0.2972	0.137508	0	Uiso	1
C490	C	0.1753	0.3566	0.3241	-0.097334	0	Uiso	1
Cl491	Cl	0.21522	0.39754	0.3109	0.000963	0	Uiso	1
N492	N	0.1361	0.4007	0.1923	-0.117587	0	Uiso	1
C493	C	0.1186	0.4171	0.1507	-0.044956	0	Uiso	1
Cl494	Cl	0.05954	0.4331	0.14477	-0.033299	0	Uiso	1
Zn495	Zn	0.89567	0.39551	0.74793	0.274825	0	Uiso	1
N496	N	0.962	0.3721	0.7557	0.496152	0	Uiso	1
C497	C	0.9757	0.3358	0.7785	-0.202965	0	Uiso	1
Cl498	Cl	0.93938	0.29541	0.80436	0.009663	0	Uiso	1
N499	N	0.9009	0.4603	0.7231	0.082906	0	Uiso	1
C500	C	0.9173	0.4776	0.6792	-0.036638	0	Uiso	1
Cl501	Cl	0.93138	0.43906	0.63732	-0.030484	0	Uiso	1
N502	N	0.8651	0.3539	0.7028	0.140625	0	Uiso	1
C503	C	0.8247	0.3566	0.6759	-0.099439	0	Uiso	1
Cl504	Cl	0.78478	0.39754	0.6891	0.001673	0	Uiso	1
N505	N	0.8639	0.4007	0.8077	-0.118353	0	Uiso	1
C506	C	0.8814	0.4171	0.8493	-0.04492	0	Uiso	1
Cl507	Cl	0.94046	0.4331	0.85523	-0.033053	0	Uiso	1
Zn508	Zn	0.10433	0.60449	0.74793	0.262481	0	Uiso	1
N509	N	0.038	0.6279	0.7557	0.497073	0	Uiso	1
C510	C	0.0243	0.6642	0.7785	-0.202434	0	Uiso	1
Cl511	Cl	0.06062	0.70459	0.80436	0.009312	0	Uiso	1
N512	N	0.0991	0.5397	0.7231	0.086795	0	Uiso	1
C513	C	0.0827	0.5224	0.6792	-0.038434	0	Uiso	1
Cl514	Cl	0.06862	0.56094	0.63732	-0.029522	0	Uiso	1
N515	N	0.1349	0.6461	0.7028	0.144186	0	Uiso	1
C516	C	0.1753	0.6434	0.6759	-0.099743	0	Uiso	1
Cl517	Cl	0.21522	0.60246	0.6891	0.001933	0	Uiso	1
N518	N	0.1361	0.5993	0.8077	-0.107124	0	Uiso	1
C519	C	0.1186	0.5829	0.8493	-0.047488	0	Uiso	1
Cl520	Cl	0.05954	0.5669	0.85523	-0.033142	0	Uiso	1
Zn521	Zn	0.60449	0.74793	0.10433	0.262444	0	Uiso	1
N522	N	0.6279	0.7557	0.038	0.497051	0	Uiso	1
C523	C	0.6642	0.7785	0.0243	-0.202386	0	Uiso	1
Cl524	Cl	0.70459	0.80436	0.06062	0.00929	0	Uiso	1
N525	N	0.5397	0.7231	0.0991	0.086836	0	Uiso	1
C526	C	0.5224	0.6792	0.0827	-0.038442	0	Uiso	1
Cl527	Cl	0.56094	0.63732	0.06862	-0.029523	0	Uiso	1
N528	N	0.6461	0.7028	0.1349	0.144157	0	Uiso	1
C529	C	0.6434	0.6759	0.1753	-0.099706	0	Uiso	1
Cl530	Cl	0.60246	0.6891	0.21522	0.0019	0	Uiso	1
N531	N	0.5993	0.8077	0.1361	-0.107013	0	Uiso	1
C532	C	0.5829	0.8493	0.1186	-0.047516	0	Uiso	1
Cl533	Cl	0.5669	0.85523	0.05954	-0.033156	0	Uiso	1
Zn534	Zn	0.39551	0.74793	0.89567	0.274839	0	Uiso	1
N535	N	0.3721	0.7557	0.962	0.496129	0	Uiso	1
C536	C	0.3358	0.7785	0.9757	-0.202975	0	Uiso	1
Cl537	Cl	0.29541	0.80436	0.93938	0.009654	0	Uiso	1
N538	N	0.4603	0.7231	0.9009	0.082938	0	Uiso	1
C539	C	0.4776	0.6792	0.9173	-0.036641	0	Uiso	1
Cl540	Cl	0.43906	0.63732	0.93138	-0.030494	0	Uiso	1
N541	N	0.3539	0.7028	0.8651	0.140639	0	Uiso	1
C542	C	0.3566	0.6759	0.8247	-0.099448	0	Uiso	1
Cl543	Cl	0.39754	0.6891	0.78478	0.001667	0	Uiso	1
N544	N	0.4007	0.8077	0.8639	-0.118308	0	Uiso	1
C545	C	0.4171	0.8493	0.8814	-0.04487	0	Uiso	1
Cl546	Cl	0.4331	0.85523	0.94046	-0.03306	0	Uiso	1
Zn547	Zn	0.39551	0.25207	0.10433	0.270766	0	Uiso	1
N548	N	0.3721	0.2443	0.038	0.501103	0	Uiso	1
C549	C	0.3358	0.2215	0.0243	-0.201862	0	Uiso	1
Cl550	Cl	0.29541	0.19564	0.06062	0.009017	0	Uiso	1
N551	N	0.4603	0.2769	0.0991	0.08566	0	Uiso	1
C552	C	0.4776	0.3208	0.0827	-0.038286	0	Uiso	1
Cl553	Cl	0.43906	0.36268	0.06862	-0.029783	0	Uiso	1
N554	N	0.3539	0.2972	0.1349	0.137539	0	Uiso	1
C555	C	0.3566	0.3241	0.1753	-0.097336	0	Uiso	1
Cl556	Cl	0.39754	0.3109	0.21522	0.000978	0	Uiso	1
N557	N	0.4007	0.1923	0.1361	-0.117565	0	Uiso	1
C558	C	0.4171	0.1507	0.1186	-0.045009	0	Uiso	1
Cl559	Cl	0.4331	0.14477	0.05954	-0.033286	0	Uiso	1
Zn560	Zn	0.60449	0.25207	0.89567	0.280929	0	Uiso	1
N561	N	0.6279	0.2443	0.962	0.492562	0	Uiso	1
C562	C	0.6642	0.2215	0.9757	-0.202591	0	Uiso	1
Cl563	Cl	0.70459	0.19564	0.93938	0.008984	0	Uiso	1
N564	N	0.5397	0.2769	0.9009	0.080378	0	Uiso	1
C565	C	0.5224	0.3208	0.9173	-0.036157	0	Uiso	1
Cl566	Cl	0.56094	0.36268	0.93138	-0.030998	0	Uiso	1
N567	N	0.6461	0.2972	0.8651	0.137212	0	Uiso	1
C568	C	0.6434	0.3241	0.8247	-0.096403	0	Uiso	1
Cl569	Cl	0.60246	0.3109	0.78478	0.001116	0	Uiso	1
N570	N	0.5993	0.1923	0.8639	-0.119553	0	Uiso	1
C571	C	0.5829	0.1507	0.8814	-0.042913	0	Uiso	1
Cl572	Cl	0.5669	0.14477	0.94046	-0.034017	0	Uiso	1
Zn573	Zn	0.74793	0.89567	0.39551	0.274858	0	Uiso	1
N574	N	0.7557	0.962	0.3721	0.49607	0	Uiso	1
C575	C	0.7785	0.9757	0.3358	-0.202973	0	Uiso	1
Cl576	Cl	0.80436	0.93938	0.29541	0.009667	0	Uiso	1
N577	N	0.7231	0.9009	0.4603	0.082953	0	Uiso	1
C578	C	0.6792	0.9173	0.4776	-0.036664	0	Uiso	1
Cl579	Cl	0.63732	0.93138	0.43906	-0.030488	0	Uiso	1
N580	N	0.7028	0.8651	0.3539	0.140641	0	Uiso	1
C581	C	0.6759	0.8247	0.3566	-0.099442	0	Uiso	1
Cl582	Cl	0.6891	0.78478	0.39754	0.001668	0	Uiso	1
N583	N	0.8077	0.8639	0.4007	-0.118292	0	Uiso	1
C584	C	0.8493	0.8814	0.4171	-0.044889	0	Uiso	1
Cl585	Cl	0.85523	0.94046	0.4331	-0.033057	0	Uiso	1
Zn586	Zn	0.74793	0.10433	0.60449	0.262493	0	Uiso	1
N587	N	0.7557	0.038	0.6279	0.497037	0	Uiso	1
C588	C	0.7785	0.0243	0.6642	-0.202415	0	Uiso	1
Cl589	Cl	0.80436	0.06062	0.70459	0.009286	0	Uiso	1
N590	N	0.7231	0.0991	0.5397	0.086811	0	Uiso	1
C591	C	0.6792	0.0827	0.5224	-0.03844	0	Uiso	1
Cl592	Cl	0.63732	0.06862	0.56094	-0.029528	0	Uiso	1
N593	N	0.7028	0.1349	0.6461	0.144167	0	Uiso	1
C594	C	0.6759	0.1753	0.6434	-0.09974	0	Uiso	1
Cl595	Cl	0.6891	0.21522	0.60246	0.00191	0	Uiso	1
N596	N	0.8077	0.1361	0.5993	-0.107069	0	Uiso	1
C597	C	0.8493	0.1186	0.5829	-0.047524	0	Uiso	1
Cl598	Cl	0.85523	0.05954	0.5669	-0.033174	0	Uiso	1
Zn599	Zn	0.25207	0.89567	0.60449	0.280932	0	Uiso	1
N600	N	0.2443	0.962	0.6279	0.492511	0	Uiso	1
C601	C	0.2215	0.9757	0.6642	-0.202544	0	Uiso	1
Cl602	Cl	0.19564	0.93938	0.70459	0.008986	0	Uiso	1
N603	N	0.2769	0.9009	0.5397	0.08039	0	Uiso	1
C604	C	0.3208	0.9173	0.5224	-0.036163	0	Uiso	1
Cl605	Cl	0.36268	0.93138	0.56094	-0.030985	0	Uiso	1
N606	N	0.2972	0.8651	0.6461	0.137183	0	Uiso	1
C607	C	0.3241	0.8247	0.6434	-0.096433	0	Uiso	1
Cl608	Cl	0.3109	0.78478	0.60246	0.001105	0	Uiso	1
N609	N	0.1923	0.8639	0.5993	-0.119538	0	Uiso	1
C610	C	0.1507	0.8814	0.5829	-0.042924	0	Uiso	1
Cl611	Cl	0.14477	0.94046	0.5669	-0.034042	0	Uiso	1
Zn612	Zn	0.25207	0.10433	0.39551	0.27073	0	Uiso	1
N613	N	0.2443	0.038	0.3721	0.501145	0	Uiso	1
C614	C	0.2215	0.0243	0.3358	-0.201899	0	Uiso	1
Cl615	Cl	0.19564	0.06062	0.29541	0.00902	0	Uiso	1
N616	N	0.2769	0.0991	0.4603	0.085614	0	Uiso	1
C617	C	0.3208	0.0827	0.4776	-0.03829	0	Uiso	1
Cl618	Cl	0.36268	0.06862	0.43906	-0.029755	0	Uiso	1
N619	N	0.2972	0.1349	0.3539	0.137563	0	Uiso	1
C620	C	0.3241	0.1753	0.3566	-0.097387	0	Uiso	1
Cl621	Cl	0.3109	0.21522	0.39754	0.000992	0	Uiso	1
N622	N	0.1923	0.1361	0.4007	-0.117561	0	Uiso	1
C623	C	0.1507	0.1186	0.4171	-0.044976	0	Uiso	1
Cl624	Cl	0.14477	0.05954	0.4331	-0.033279	0	Uiso	1
C625	C	0.3957	0	0.259	-0.915319	0	Uiso	1
H626	H	0.4239	0	0.2766	0.36997	0	Uiso	1
C627	C	0.6043	0	0.259	-0.909584	0	Uiso	1
H628	H	0.5761	0	0.2766	0.368504	0	Uiso	1
C629	C	0.6043	0	0.741	-0.907652	0	Uiso	1
H630	H	0.5761	0	0.7234	0.367691	0	Uiso	1
C631	C	0.3957	0	0.741	-0.914722	0	Uiso	1
H632	H	0.4239	0	0.7234	0.369368	0	Uiso	1
C633	C	0.259	0.3957	0	-0.915366	0	Uiso	1
H634	H	0.2766	0.4239	0	0.369958	0	Uiso	1
C635	C	0.259	0.6043	0	-0.909665	0	Uiso	1
H636	H	0.2766	0.5761	0	0.368505	0	Uiso	1
C637	C	0.741	0.6043	0	-0.907434	0	Uiso	1
H638	H	0.7234	0.5761	0	0.367646	0	Uiso	1
C639	C	0.741	0.3957	0	-0.914679	0	Uiso	1
H640	H	0.7234	0.4239	0	0.369365	0	Uiso	1
C641	C	0	0.259	0.3957	-0.915338	0	Uiso	1
H642	H	0	0.2766	0.4239	0.369957	0	Uiso	1
C643	C	0	0.259	0.6043	-0.909603	0	Uiso	1
H644	H	0	0.2766	0.5761	0.368499	0	Uiso	1
C645	C	0	0.741	0.6043	-0.907666	0	Uiso	1
H646	H	0	0.7234	0.5761	0.367696	0	Uiso	1
C647	C	0	0.741	0.3957	-0.914768	0	Uiso	1
H648	H	0	0.7234	0.4239	0.369374	0	Uiso	1
C649	C	0	0.3957	0.741	-0.914902	0	Uiso	1
H650	H	0	0.4239	0.7234	0.369418	0	Uiso	1
C651	C	0	0.6043	0.741	-0.907669	0	Uiso	1
H652	H	0	0.5761	0.7234	0.367675	0	Uiso	1
C653	C	0	0.6043	0.259	-0.909675	0	Uiso	1
H654	H	0	0.5761	0.2766	0.368531	0	Uiso	1
C655	C	0	0.3957	0.259	-0.91546	0	Uiso	1
H656	H	0	0.4239	0.2766	0.369982	0	Uiso	1
C657	C	0.3957	0.259	0	-0.915382	0	Uiso	1
H658	H	0.4239	0.2766	0	0.369954	0	Uiso	1
C659	C	0.6043	0.259	0	-0.909622	0	Uiso	1
H660	H	0.5761	0.2766	0	0.368501	0	Uiso	1
C661	C	0.6043	0.741	0	-0.907693	0	Uiso	1
H662	H	0.5761	0.7234	0	0.367686	0	Uiso	1
C663	C	0.3957	0.741	0	-0.914898	0	Uiso	1
H664	H	0.4239	0.7234	0	0.369417	0	Uiso	1
C665	C	0.259	0	0.6043	-0.90955	0	Uiso	1
H666	H	0.2766	0	0.5761	0.368484	0	Uiso	1
C667	C	0.259	0	0.3957	-0.915439	0	Uiso	1
H668	H	0.2766	0	0.4239	0.369993	0	Uiso	1
C669	C	0.741	0	0.3957	-0.914701	0	Uiso	1
H670	H	0.7234	0	0.4239	0.369369	0	Uiso	1
C671	C	0.741	0	0.6043	-0.907576	0	Uiso	1
H672	H	0.7234	0	0.5761	0.367672	0	Uiso	1
C673	C	0.5	0.1065	0.2548	-0.481022	0	Uiso	1
H674	H	0.5	0.1171	0.2232	0.333329	0	Uiso	1
C675	C	0.5	0.8935	0.2548	-0.479384	0	Uiso	1
H676	H	0.5	0.8829	0.2232	0.333216	0	Uiso	1
C677	C	0.5	0.1065	0.7452	-0.480582	0	Uiso	1
H678	H	0.5	0.1171	0.7768	0.333028	0	Uiso	1
C679	C	0.5	0.8935	0.7452	-0.479935	0	Uiso	1
H680	H	0.5	0.8829	0.7768	0.33303	0	Uiso	1
C681	C	0.2548	0.5	0.1065	-0.481057	0	Uiso	1
H682	H	0.2232	0.5	0.1171	0.333347	0	Uiso	1
C683	C	0.2548	0.5	0.8935	-0.479543	0	Uiso	1
H684	H	0.2232	0.5	0.8829	0.333262	0	Uiso	1
C685	C	0.7452	0.5	0.1065	-0.480559	0	Uiso	1
H686	H	0.7768	0.5	0.1171	0.332999	0	Uiso	1
C687	C	0.7452	0.5	0.8935	-0.47995	0	Uiso	1
H688	H	0.7768	0.5	0.8829	0.333025	0	Uiso	1
C689	C	0.1065	0.2548	0.5	-0.481076	0	Uiso	1
H690	H	0.1171	0.2232	0.5	0.333344	0	Uiso	1
C691	C	0.8935	0.2548	0.5	-0.479518	0	Uiso	1
H692	H	0.8829	0.2232	0.5	0.333255	0	Uiso	1
C693	C	0.1065	0.7452	0.5	-0.480596	0	Uiso	1
H694	H	0.1171	0.7768	0.5	0.333022	0	Uiso	1
C695	C	0.8935	0.7452	0.5	-0.479899	0	Uiso	1
H696	H	0.8829	0.7768	0.5	0.333011	0	Uiso	1
C697	C	0.1065	0.5	0.7452	-0.480574	0	Uiso	1
H698	H	0.1171	0.5	0.7768	0.333012	0	Uiso	1
C699	C	0.8935	0.5	0.7452	-0.479817	0	Uiso	1
H700	H	0.8829	0.5	0.7768	0.333009	0	Uiso	1
C701	C	0.1065	0.5	0.2548	-0.481021	0	Uiso	1
H702	H	0.1171	0.5	0.2232	0.333319	0	Uiso	1
C703	C	0.8935	0.5	0.2548	-0.479467	0	Uiso	1
H704	H	0.8829	0.5	0.2232	0.333235	0	Uiso	1
C705	C	0.5	0.2548	0.8935	-0.479473	0	Uiso	1
H706	H	0.5	0.2232	0.8829	0.333255	0	Uiso	1
C707	C	0.5	0.2548	0.1065	-0.481075	0	Uiso	1
H708	H	0.5	0.2232	0.1171	0.333346	0	Uiso	1
C709	C	0.5	0.7452	0.8935	-0.479927	0	Uiso	1
H710	H	0.5	0.7768	0.8829	0.333033	0	Uiso	1
C711	C	0.5	0.7452	0.1065	-0.480642	0	Uiso	1
H712	H	0.5	0.7768	0.1171	0.333004	0	Uiso	1
C713	C	0.2548	0.1065	0.5	-0.480926	0	Uiso	1
H714	H	0.2232	0.1171	0.5	0.333314	0	Uiso	1
C715	C	0.2548	0.8935	0.5	-0.479461	0	Uiso	1
H716	H	0.2232	0.8829	0.5	0.333239	0	Uiso	1
C717	C	0.7452	0.1065	0.5	-0.480607	0	Uiso	1
H718	H	0.7768	0.1171	0.5	0.333009	0	Uiso	1
C719	C	0.7452	0.8935	0.5	-0.479934	0	Uiso	1
H720	H	0.7768	0.8829	0.5	0.333023	0	Uiso	1
C721	C	0.3176	0.1142	0.3176	-0.41421	0	Uiso	1
H722	H	0.3065	0.0849	0.3065	0.142368	0	Uiso	1
C723	C	0.6824	0.8858	0.3176	-0.420817	0	Uiso	1
H724	H	0.6935	0.9151	0.3065	0.145842	0	Uiso	1
C725	C	0.6824	0.1142	0.6824	-0.422529	0	Uiso	1
H726	H	0.6935	0.0849	0.6935	0.146546	0	Uiso	1
C727	C	0.3176	0.8858	0.6824	-0.420743	0	Uiso	1
H728	H	0.3065	0.9151	0.6935	0.145844	0	Uiso	1
C729	C	0.3176	0.3176	0.1142	-0.414158	0	Uiso	1
H730	H	0.3065	0.3065	0.0849	0.142349	0	Uiso	1
C731	C	0.3176	0.6824	0.8858	-0.420767	0	Uiso	1
H732	H	0.3065	0.6935	0.9151	0.145827	0	Uiso	1
C733	C	0.6824	0.6824	0.1142	-0.422528	0	Uiso	1
H734	H	0.6935	0.6935	0.0849	0.146572	0	Uiso	1
C735	C	0.6824	0.3176	0.8858	-0.420824	0	Uiso	1
H736	H	0.6935	0.3065	0.9151	0.145842	0	Uiso	1
C737	C	0.1142	0.3176	0.3176	-0.41415	0	Uiso	1
H738	H	0.0849	0.3065	0.3065	0.142353	0	Uiso	1
C739	C	0.8858	0.3176	0.6824	-0.420785	0	Uiso	1
H740	H	0.9151	0.3065	0.6935	0.14583	0	Uiso	1
C741	C	0.1142	0.6824	0.6824	-0.422532	0	Uiso	1
H742	H	0.0849	0.6935	0.6935	0.146543	0	Uiso	1
C743	C	0.8858	0.6824	0.3176	-0.420733	0	Uiso	1
H744	H	0.9151	0.6935	0.3065	0.145829	0	Uiso	1
C745	C	0.1142	0.3176	0.6824	-0.423396	0	Uiso	1
H746	H	0.0849	0.3065	0.6935	0.145392	0	Uiso	1
C747	C	0.8858	0.6824	0.6824	-0.416365	0	Uiso	1
H748	H	0.9151	0.6935	0.6935	0.144344	0	Uiso	1
C749	C	0.1142	0.6824	0.3176	-0.42332	0	Uiso	1
H750	H	0.0849	0.6935	0.3065	0.145399	0	Uiso	1
C751	C	0.8858	0.3176	0.3176	-0.41661	0	Uiso	1
H752	H	0.9151	0.3065	0.3065	0.14566	0	Uiso	1
C753	C	0.3176	0.3176	0.8858	-0.416557	0	Uiso	1
H754	H	0.3065	0.3065	0.9151	0.145656	0	Uiso	1
C755	C	0.6824	0.3176	0.1142	-0.423439	0	Uiso	1
H756	H	0.6935	0.3065	0.0849	0.14541	0	Uiso	1
C757	C	0.6824	0.6824	0.8858	-0.416386	0	Uiso	1
H758	H	0.6935	0.6935	0.9151	0.14434	0	Uiso	1
C759	C	0.3176	0.6824	0.1142	-0.423392	0	Uiso	1
H760	H	0.3065	0.6935	0.0849	0.145405	0	Uiso	1
C761	C	0.3176	0.1142	0.6824	-0.423421	0	Uiso	1
H762	H	0.3065	0.0849	0.6935	0.145391	0	Uiso	1
C763	C	0.3176	0.8858	0.3176	-0.416639	0	Uiso	1
H764	H	0.3065	0.9151	0.3065	0.145667	0	Uiso	1
C765	C	0.6824	0.1142	0.3176	-0.423346	0	Uiso	1
H766	H	0.6935	0.0849	0.3065	0.145389	0	Uiso	1
C767	C	0.6824	0.8858	0.6824	-0.41653	0	Uiso	1
H768	H	0.6935	0.9151	0.6935	0.144334	0	Uiso	1
C769	C	0.3949	0.1781	0.1781	0.008889	0	Uiso	1
H770	H	0.3856	0.2007	0.2007	0.074529	0	Uiso	1
C771	C	0.6051	0.8219	0.1781	0.001737	0	Uiso	1
H772	H	0.6144	0.7993	0.2007	0.075869	0	Uiso	1
C773	C	0.6051	0.1781	0.8219	0.001822	0	Uiso	1
H774	H	0.6144	0.2007	0.7993	0.075853	0	Uiso	1
C775	C	0.3949	0.8219	0.8219	0.008539	0	Uiso	1
H776	H	0.3856	0.7993	0.7993	0.074504	0	Uiso	1
C777	C	0.1781	0.3949	0.1781	0.008939	0	Uiso	1
H778	H	0.2007	0.3856	0.2007	0.074514	0	Uiso	1
C779	C	0.1781	0.6051	0.8219	0.001899	0	Uiso	1
H780	H	0.2007	0.6144	0.7993	0.07584	0	Uiso	1
C781	C	0.8219	0.6051	0.1781	0.001814	0	Uiso	1
H782	H	0.7993	0.6144	0.2007	0.075865	0	Uiso	1
C783	C	0.8219	0.3949	0.8219	0.008711	0	Uiso	1
H784	H	0.7993	0.3856	0.7993	0.07449	0	Uiso	1
C785	C	0.1781	0.1781	0.3949	0.008891	0	Uiso	1
H786	H	0.2007	0.2007	0.3856	0.074518	0	Uiso	1
C787	C	0.8219	0.1781	0.6051	0.001838	0	Uiso	1
H788	H	0.7993	0.2007	0.6144	0.075861	0	Uiso	1
C789	C	0.1781	0.8219	0.6051	0.00183	0	Uiso	1
H790	H	0.2007	0.7993	0.6144	0.075876	0	Uiso	1
C791	C	0.8219	0.8219	0.3949	0.008526	0	Uiso	1
H792	H	0.7993	0.7993	0.3856	0.074505	0	Uiso	1
C793	C	0.1781	0.3949	0.8219	0.003055	0	Uiso	1
H794	H	0.2007	0.3856	0.7993	0.075462	0	Uiso	1
C795	C	0.8219	0.6051	0.8219	-0.001873	0	Uiso	1
H796	H	0.7993	0.6144	0.7993	0.077209	0	Uiso	1
C797	C	0.1781	0.6051	0.1781	0.007856	0	Uiso	1
H798	H	0.2007	0.6144	0.2007	0.073805	0	Uiso	1
C799	C	0.8219	0.3949	0.1781	0.003061	0	Uiso	1
H800	H	0.7993	0.3856	0.2007	0.075454	0	Uiso	1
C801	C	0.3949	0.1781	0.8219	0.003137	0	Uiso	1
H802	H	0.3856	0.2007	0.7993	0.075433	0	Uiso	1
C803	C	0.6051	0.1781	0.1781	0.007906	0	Uiso	1
H804	H	0.6144	0.2007	0.2007	0.0738	0	Uiso	1
C805	C	0.6051	0.8219	0.8219	-0.001865	0	Uiso	1
H806	H	0.6144	0.7993	0.7993	0.077199	0	Uiso	1
C807	C	0.3949	0.8219	0.1781	0.003177	0	Uiso	1
H808	H	0.3856	0.7993	0.2007	0.075444	0	Uiso	1
C809	C	0.1781	0.1781	0.6051	0.007793	0	Uiso	1
H810	H	0.2007	0.2007	0.6144	0.073818	0	Uiso	1
C811	C	0.1781	0.8219	0.3949	0.003129	0	Uiso	1
H812	H	0.2007	0.7993	0.3856	0.075444	0	Uiso	1
C813	C	0.8219	0.1781	0.3949	0.003004	0	Uiso	1
H814	H	0.7993	0.2007	0.3856	0.075462	0	Uiso	1
C815	C	0.8219	0.8219	0.6051	-0.001868	0	Uiso	1
H816	H	0.7993	0.7993	0.6144	0.077226	0	Uiso	1