
#######################################################################
#
#                 Cambridge Crystallographic Data Centre
#                                CCDC 
#
#######################################################################
#
# If this CIF has been generated from an entry in the Cambridge 
# Structural Database, then it will include bibliographic, chemical, 
# crystal, experimental, refinement or atomic coordinate data resulting 
# from the CCDC's data processing and validation procedures.
#
#######################################################################

data_ABACUF01
_symmetry_cell_setting           triclinic
_symmetry_space_group_name_H-M   'P -1'
_symmetry_Int_Tables_number      2
_space_group_name_Hall           '-P 1'
loop_
_symmetry_equiv_pos_site_id
_symmetry_equiv_pos_as_xyz
1 x,y,z
2 -x,-y,-z
_cell_length_a                   8.8166(9)
_cell_length_b                   7.1279(7)
_cell_length_c                   6.9281(7)
_cell_angle_alpha                98.000(2)
_cell_angle_beta                 108.9400(10)
_cell_angle_gamma                82.546(2)
_cell_volume                     406.143
loop_
_atom_site_label
_atom_site_type_symbol
_atom_site_fract_x
_atom_site_fract_y
_atom_site_fract_z
Ba1 Ba 0.349540(19) -0.26530(2) -0.09766(2)
Cu1 Cu 0.0000 0.0000 0.0000
C1 C 0.1635(4) -0.1910(5) 0.3496(5)
H1 H 0.087(4) -0.113(5) 0.407(5)
O1 O 0.1600(3) -0.1816(3) 0.1670(3)
O2 O 0.2602(3) -0.2958(4) 0.4692(4)
C2 C 0.1948(4) 0.2734(5) -0.0480(5)
H2 H 0.109(4) 0.352(5) -0.011(6)
O3 O 0.3085(3) 0.3468(4) -0.0624(4)
O4 O 0.1797(3) 0.0959(3) -0.0685(3)
C3 C 0.1268(4) 0.2804(5) 0.4095(5)
H3 H 0.110(5) 0.385(5) 0.504(5)
O5 O 0.0025(3) 0.2367(4) 0.2691(4)
O6 O 0.2676(3) 0.2078(4) 0.4344(4)
O7 O 0.5053(3) -0.0129(4) -0.2388(4)
H4 H 0.444(4) 0.041(5) -0.338(5)
H5 H 0.586(3) -0.066(5) -0.267(6)
O8 O 0.5013(3) -0.5762(3) -0.2861(3)
H6 H 0.431(4) -0.644(5) -0.380(5)
H7 H 0.575(3) -0.568(5) -0.338(5)
C1A C -0.1635(4) 0.1910(5) -0.3496(5)
H1A H -0.087(4) 0.113(5) -0.407(5)
O1A O -0.1600(3) 0.1816(3) -0.1670(3)
O2A O -0.2602(3) 0.2958(4) -0.4692(4)
C2A C -0.1948(4) -0.2734(5) 0.0480(5)
H2A H -0.109(4) -0.352(5) 0.011(6)
O3A O -0.3085(3) -0.3468(4) 0.0624(4)
O4A O -0.1797(3) -0.0959(3) 0.0685(3)
C3A C -0.1268(4) -0.2804(5) -0.4095(5)
H3A H -0.110(5) -0.385(5) -0.504(5)
O5A O -0.0025(3) -0.2367(4) -0.2691(4)
O6A O -0.2676(3) -0.2078(4) -0.4344(4)
Ba1A Ba -0.349540(19) 0.26530(2) 0.09766(2)
O7A O 0.4947(3) 0.0129(4) 0.2388(4)
H4A H 0.556(4) -0.041(5) 0.338(5)
H5A H 0.414(3) 0.066(5) 0.267(6)
O8A O 0.4987(3) -0.4238(3) 0.2861(3)
H6A H 0.569(4) -0.356(5) 0.380(5)
H7A H 0.425(3) -0.432(5) 0.338(5)
O2_2 O 0.2602(3) -0.2958(4) -0.5308(4)
O3_2 O 0.3085(3) -0.6532(4) -0.0624(4)
O3A_2 O 0.6915(3) -0.3468(4) 0.0624(4)
Ba1_2 Ba 0.349540(19) -0.26530(2) 0.90234(2)
Ba1_3 Ba 0.349540(19) 0.73470(2) -0.09766(2)
Ba1A_2 Ba 0.650460(19) 0.26530(2) 0.09766(2)
Ba1A_3 Ba 0.650460(19) -0.73470(2) 0.09766(2)
Ba1A_4 Ba -0.349540(19) 0.26530(2) -0.90234(2)
Ba1_4 Ba -0.650460(19) -0.26530(2) -0.09766(2)
Ba1A_5 Ba -0.349540(19) -0.73470(2) 0.09766(2)
O2A_2 O -0.2602(3) 0.2958(4) 0.5308(4)
O3_3 O -0.6915(3) 0.3468(4) -0.0624(4)
O3A_3 O -0.3085(3) 0.6532(4) 0.0624(4)
O7_2 O -0.4947(3) -0.0129(4) -0.2388(4)
O7A_2 O -0.5053(3) 0.0129(4) 0.2388(4)
O8_2 O -0.4987(3) 0.4238(3) -0.2861(3)
O8A_2 O -0.5013(3) 0.5762(3) 0.2861(3)
H4_2 H -0.556(4) 0.041(5) -0.338(5)
H5_2 H -0.414(3) -0.066(5) -0.267(6)
H4A_2 H -0.444(4) -0.041(5) 0.338(5)
H5A_2 H -0.586(3) 0.066(5) 0.267(6)
H6_2 H -0.569(4) 0.356(5) -0.380(5)
H7_2 H -0.425(3) 0.432(5) -0.338(5)
H6A_2 H -0.431(4) 0.644(5) 0.380(5)
H7A_2 H -0.575(3) 0.568(5) 0.338(5)
loop_
_geom_bond_atom_site_label_1
_geom_bond_atom_site_label_2
_geom_bond_site_symmetry_1
_geom_bond_site_symmetry_2
Ba1 O1 1_555 1_555
Cu1 O1 1_555 1_555
C1 H1 1_555 1_555
O1 C1 1_555 1_555
O2 C1 1_555 1_555
C2 H2 1_555 1_555
O3 C2 1_555 1_555
O4 Ba1 1_555 1_555
C3 H3 1_555 1_555
O5 Cu1 1_555 1_555
O6 C3 1_555 1_555
O7 Ba1 1_555 1_555
H4 O7 1_555 1_555
H5 O7 1_555 1_555
O8 Ba1 1_555 1_555
H6 O8 1_555 1_555
H7 O8 1_555 1_555
C1A H1A 1_555 1_555
O1A Cu1 1_555 1_555
O2A C1A 1_555 1_555
C2A H2A 1_555 1_555
O3A C2A 1_555 1_555
O4A Cu1 1_555 1_555
C3A H3A 1_555 1_555
O5A Ba1 1_555 1_555
O6A C3A 1_555 1_555
Ba1A O5 1_555 1_555
O7A Ba1 1_555 1_555
H4A O7A 1_555 1_555
H5A O7A 1_555 1_555
O8A Ba1 1_555 1_555
H6A O8A 1_555 1_555
H7A O8A 1_555 1_555
O2_2 Ba1 1_555 1_555
O3_2 Ba1 1_555 1_555
O3A_2 Ba1 1_555 1_555
Ba1_2 O2 1_555 1_555
Ba1_3 O3 1_555 1_555
Ba1A_2 O3 1_555 1_555
Ba1A_3 O8 1_555 1_555
Ba1A_4 O2A 1_555 1_555
Ba1_4 O3A 1_555 1_555
Ba1A_5 O3A 1_555 1_555
O2A_2 Ba1A 1_555 1_555
O3_3 Ba1A 1_555 1_555
O3A_3 Ba1A 1_555 1_555
O7_2 Ba1A 1_555 1_555
O7A_2 Ba1A 1_555 1_555
O8_2 Ba1A 1_555 1_555
O8A_2 Ba1A 1_555 1_555
H4_2 O7_2 1_555 1_555
H5_2 O7_2 1_555 1_555
H4A_2 O7A_2 1_555 1_555
H5A_2 O7A_2 1_555 1_555
H6_2 O8_2 1_555 1_555
H7_2 O8_2 1_555 1_555
H6A_2 O8A_2 1_555 1_555
H7A_2 O8A_2 1_555 1_555
Cu1 O5A 1_555 1_555
Cu1 O4 1_555 1_555
C2 O4 1_555 1_555
C3 O5 1_555 1_555
O7 Ba1A_2 1_555 1_555
C1A O1A 1_555 1_555
O1A Ba1A 1_555 1_555
C2A O4A 1_555 1_555
O4A Ba1A 1_555 1_555
C3A O5A 1_555 1_555
O7A Ba1A_2 1_555 1_555
O8A Ba1A_3 1_555 1_555
O3_2 Ba1A_3 1_555 1_555
O3A_2 Ba1A_3 1_555 1_555
Ba1_4 O7_2 1_555 1_555
Ba1_4 O7A_2 1_555 1_555

#END
