
#######################################################################
#
#                 Cambridge Crystallographic Data Centre
#                                CCDC 
#
#######################################################################
#
# If this CIF has been generated from an entry in the Cambridge 
# Structural Database, then it will include bibliographic, chemical, 
# crystal, experimental, refinement or atomic coordinate data resulting 
# from the CCDC's data processing and validation procedures.
#
#######################################################################

data_ABALOF
_symmetry_cell_setting           monoclinic
_symmetry_space_group_name_H-M   'P 21/c'
_symmetry_Int_Tables_number      14
_space_group_name_Hall           '-P 2ybc'
loop_
_symmetry_equiv_pos_site_id
_symmetry_equiv_pos_as_xyz
1 x,y,z
2 x,1/2-y,1/2+z
3 -x,-y,-z
4 -x,1/2+y,1/2-z
_cell_length_a                   11.196
_cell_length_b                   15.5253(10)
_cell_length_c                   11.311
_cell_angle_alpha                90
_cell_angle_beta                 108.132(3)
_cell_angle_gamma                90
_cell_volume                     1868.46
loop_
_atom_site_label
_atom_site_type_symbol
_atom_site_fract_x
_atom_site_fract_y
_atom_site_fract_z
I1 I 0.47562(5) 0.83603(5) 0.35654(5)
I2 I 0.25417(5) 0.87248(4) -0.02438(5)
I3 I 0.06198(5) 0.83553(5) 0.23656(5)
I4 I 0.27820(5) 0.61371(4) 0.12019(5)
Cu1 Cu 0.25778(11) 0.78826(11) 0.17456(11)
Cu2 Cu 0.26214(11) 0.79453(9) 0.42039(10)
Cu3 Cu 0.39886(10) 0.67731(9) 0.34085(10)
S1 S 0.57062(18) 0.58587(18) 0.43258(19)
N1 N 0.8472(6) 0.5873(5) 0.2170(6)
C1 C 0.6823(7) 0.5914(6) 0.3539(7)
C2 C 0.6449(8) 0.5628(7) 0.2324(8)
H1 H 0.5618 0.5463 0.1949
C3 C 0.8059(8) 0.6195(8) 0.4022(8)
H2 H 0.8348 0.6408 0.4830
C4 C 0.9364(8) 0.5813(8) 0.1445(9)
H3 H 1.0160 0.6062 0.1931
H4 H 0.9509 0.5210 0.1312
C5 C 0.7278(8) 0.5584(8) 0.1670(8)
H5 H 0.7024 0.5353 0.0872
C6 C 0.8939(10) 0.6248(8) 0.0231(9)
H6 H 0.9566 0.6186 -0.0180
H7 H 0.8807 0.6848 0.0351
H8 H 0.8166 0.5993 -0.0270
C7 C 0.677(2) 0.6016(10) 0.620(2)
H9 H 0.6388 0.5751 0.6768
H10 H 0.7635 0.5832 0.6378
C8 C 0.8834(9) 0.6162(8) 0.3330(9)
H11 H 0.9658 0.6349 0.3676
C9 C 0.6642(13) 0.6785(13) 0.6130(12)
H12 H 0.7056 0.7037 0.6928
H13 H 0.5763 0.6925 0.5883
H14 H 0.7005 0.7007 0.5527
Cu2A Cu 0.26214(11) 0.70547(9) -0.07961(10)
Cu3A Cu 0.39886(10) 0.82269(9) -0.15915(10)
I2A I 0.25417(5) 0.62752(4) 0.47562(5)
I4A I 0.27820(5) 0.88629(4) 0.62019(5)
Cu1A Cu 0.25778(11) 0.71174(11) 0.67456(11)
loop_
_geom_bond_atom_site_label_1
_geom_bond_atom_site_label_2
_geom_bond_site_symmetry_1
_geom_bond_site_symmetry_2
I1 Cu1 1_555 1_555
I2 Cu1 1_555 1_555
I3 Cu1 1_555 1_555
I4 Cu1 1_555 1_555
Cu1 Cu2 1_555 1_555
Cu2 I1 1_555 1_555
Cu3 I1 1_555 1_555
S1 Cu3 1_555 1_555
N1 C4 1_555 1_555
C1 S1 1_555 1_555
C2 C1 1_555 1_555
H1 C2 1_555 1_555
C3 C1 1_555 1_555
H2 C3 1_555 1_555
C4 H3 1_555 1_555
H4 C4 1_555 1_555
C5 N1 1_555 1_555
H5 C5 1_555 1_555
C6 C4 1_555 1_555
H6 C6 1_555 1_555
H7 C6 1_555 1_555
H8 C6 1_555 1_555
C7 S1 1_555 1_555
H9 C7 1_555 1_555
H10 C7 1_555 1_555
C8 N1 1_555 1_555
H11 C8 1_555 1_555
C9 C7 1_555 1_555
H12 C9 1_555 1_555
H13 C9 1_555 1_555
H14 C9 1_555 1_555
Cu2A I2 1_555 1_555
Cu3A I2 1_555 1_555
I2A Cu2 1_555 1_555
I4A Cu2 1_555 1_555
Cu1A Cu2 1_555 1_555
I3 Cu2 1_555 1_555
I4 Cu3 1_555 1_555
I4 Cu2A 1_555 1_555
Cu1 Cu3 1_555 1_555
Cu1 Cu2A 1_555 1_555
Cu2 Cu3 1_555 1_555
Cu3 I2A 1_555 1_555
C2 C5 1_555 1_555
C3 C8 1_555 1_555
Cu2A Cu3A 1_555 1_555
I2A Cu1A 1_555 1_555
I4A Cu1A 1_555 1_555

#END
