
#######################################################################
#
#                 Cambridge Crystallographic Data Centre
#                                CCDC 
#
#######################################################################
#
# If this CIF has been generated from an entry in the Cambridge 
# Structural Database, then it will include bibliographic, chemical, 
# crystal, experimental, refinement or atomic coordinate data resulting 
# from the CCDC's data processing and validation procedures.
#
#######################################################################

data_ABAYEI
_symmetry_cell_setting           triclinic
_symmetry_space_group_name_H-M   'P -1'
_symmetry_Int_Tables_number      2
_space_group_name_Hall           '-P 1'
loop_
_symmetry_equiv_pos_site_id
_symmetry_equiv_pos_as_xyz
1 x,y,z
2 -x,-y,-z
_cell_length_a                   7.1933(18)
_cell_length_b                   9.374(2)
_cell_length_c                   9.900(2)
_cell_angle_alpha                87.550(4)
_cell_angle_beta                 68.912(4)
_cell_angle_gamma                78.787(4)
_cell_volume                     610.69
loop_
_atom_site_label
_atom_site_type_symbol
_atom_site_fract_x
_atom_site_fract_y
_atom_site_fract_z
Ag1 Ag 0.29033(8) 0.27521(5) 0.60546(5)
Ag2 Ag 0.03218(8) -0.06818(6) 0.75711(5)
Ag3 Ag 0.13175(8) -0.55622(6) 0.36439(6)
O1 O 0.2189(7) -0.3396(5) 0.3451(5)
O2 O 0.0886(6) -0.2947(5) 0.5837(4)
O3 O 0.5630(9) 0.1527(6) 0.1172(5)
O4 O 0.4725(7) 0.3023(5) 0.3067(5)
N1 N 0.2909(7) 0.0909(5) 0.4876(5)
N2 N 0.2146(7) -0.0296(5) 0.5432(5)
C1 C 0.1826(9) -0.2620(6) 0.4569(6)
C2 C 0.2596(9) -0.1239(6) 0.4318(6)
C3 C 0.3661(9) -0.0654(6) 0.3030(6)
H1 H 0.4167 -0.1089 0.2075
C4 C 0.3869(8) 0.0691(6) 0.3422(6)
C5 C 0.4797(10) 0.1838(7) 0.2493(7)
O5 O 0.2810(9) 0.4514(6) 0.7401(6)
H2 H 0.3757 0.4995 0.7057
H3 H 0.2549 0.4337 0.8293
O6 O -0.1457(9) -0.1168(7) 0.9722(6)
H4 H -0.1222 -0.2082 0.9830
H5 H -0.2708 -0.0903 0.9847
Ag3A Ag -0.13175(8) -0.44378(6) 0.63561(6)
O2A O -0.0886(6) -0.7053(5) 0.4163(4)
O4_2 O 0.4725(7) -0.6977(5) 0.3067(5)
Ag3_2 Ag 0.13175(8) 0.44378(6) 0.36439(6)
O7 O 0.2528(10) 0.4108(7) 0.0727(6)
H6 H 0.2301 0.5032 0.0737
H7 H 0.2513 0.3203 0.0734
O8 O 0.1766(10) 0.7046(7) 0.0770(6)
H8 H 0.2881 0.7301 0.0275
H9 H 0.1473 0.7327 0.1640
loop_
_geom_bond_atom_site_label_1
_geom_bond_atom_site_label_2
_geom_bond_site_symmetry_1
_geom_bond_site_symmetry_2
Ag1 N1 1_555 1_555
Ag2 N2 1_555 1_555
Ag3 O1 1_555 1_555
O1 C1 1_555 1_555
O2 C1 1_555 1_555
O3 C5 1_555 1_555
O4 C5 1_555 1_555
N1 N2 1_555 1_555
N2 C2 1_555 1_555
C1 C2 1_555 1_555
C2 C3 1_555 1_555
C3 H1 1_555 1_555
C4 N1 1_555 1_555
C5 C4 1_555 1_555
O5 Ag1 1_555 1_555
H2 O5 1_555 1_555
H3 O5 1_555 1_555
O6 Ag2 1_555 1_555
H4 O6 1_555 1_555
H5 O6 1_555 1_555
O7 H6 1_555 1_555
H7 O7 1_555 1_555
O8 H8 1_555 1_555
H9 O8 1_555 1_555
Ag3A Ag3 1_555 1_555
O2A Ag3 1_555 1_555
O4_2 Ag3 1_555 1_555
Ag3_2 O4 1_555 1_555
O2 Ag3A 1_555 1_555
C3 C4 1_555 1_555

#END
