
#######################################################################
#
#                 Cambridge Crystallographic Data Centre
#                                CCDC 
#
#######################################################################
#
# If this CIF has been generated from an entry in the Cambridge 
# Structural Database, then it will include bibliographic, chemical, 
# crystal, experimental, refinement or atomic coordinate data resulting 
# from the CCDC's data processing and validation procedures.
#
#######################################################################

data_ABAZAF01
_symmetry_cell_setting           monoclinic
_symmetry_space_group_name_H-M   'P 21/n'
_symmetry_Int_Tables_number      14
_space_group_name_Hall           '-P 2yn'
loop_
_symmetry_equiv_pos_site_id
_symmetry_equiv_pos_as_xyz
1 x,y,z
2 1/2-x,1/2+y,1/2-z
3 -x,-y,-z
4 1/2+x,1/2-y,1/2+z
_cell_length_a                   12.8286(17)
_cell_length_b                   13.0650(19)
_cell_length_c                   13.8347(19)
_cell_angle_alpha                90
_cell_angle_beta                 102.683(3)
_cell_angle_gamma                90
_cell_volume                     2262.2
loop_
_atom_site_label
_atom_site_type_symbol
_atom_site_fract_x
_atom_site_fract_y
_atom_site_fract_z
Zn1 Zn 0.63779(6) 0.43298(6) 0.19565(5)
N1 N 0.6867(4) 0.5274(4) 0.0968(4)
N2 N 1.0240(4) 0.9831(4) -0.2549(4)
O1 O 0.7436(4) 0.4525(4) 0.3150(3)
O2 O 0.8441(4) 0.3199(4) 0.2955(3)
O3 O 0.8734(4) 0.5747(4) 0.6623(3)
H1 H 0.8344 0.6152 0.6258
O4 O 1.0566(4) 0.2344(4) 0.7467(4)
O5 O 1.0754(3) 0.1751(3) 0.6036(3)
C1 C 0.8169(6) 0.3889(5) 0.3451(5)
C2 C 0.8718(5) 0.4003(5) 0.4535(4)
C3 C 0.8494(5) 0.4837(5) 0.5077(5)
H2 H 0.8036 0.5348 0.4764
C4 C 0.8943(5) 0.4915(5) 0.6074(5)
C5 C 0.9584(5) 0.4145(5) 0.6541(4)
H3 H 0.9876 0.4193 0.7217
C6 C 0.9803(5) 0.3301(5) 0.6024(5)
C7 C 1.0425(5) 0.2408(5) 0.6554(5)
C8 C 0.9380(5) 0.3243(5) 0.5016(4)
H4 H 0.9543 0.2685 0.4659
C9 C 0.7502(5) 0.6076(5) 0.1274(5)
H5 H 0.7661 0.6235 0.1945
C10 C 0.7930(5) 0.6676(5) 0.0645(5)
H6 H 0.8361 0.7231 0.0892
C11 C 0.7723(5) 0.6454(5) -0.0361(5)
C12 C 0.7071(5) 0.5620(5) -0.0676(5)
H7 H 0.6914 0.5436 -0.1342
C13 C 0.6659(5) 0.5066(5) -0.0006(5)
H8 H 0.6212 0.4517 -0.0238
C14 C 0.8202(5) 0.7051(6) -0.1050(5)
H9 H 0.8327 0.6722 -0.1610
C15 C 0.8460(5) 0.8008(6) -0.0925(5)
H10 H 0.8262 0.8339 -0.0398
C16 C 0.9032(5) 0.8621(5) -0.1526(5)
C17 C 0.9196(6) 0.9662(5) -0.1330(5)
H11 H 0.8889 0.9976 -0.0857
C18 C 0.9808(6) 1.0224(5) -0.1833(5)
H12 H 0.9928 1.0911 -0.1669
C19 C 1.0057(5) 0.8843(5) -0.2751(4)
H13 H 1.0340 0.8555 -0.3252
C20 C 0.9477(5) 0.8224(5) -0.2265(5)
H14 H 0.9384 0.7536 -0.2435
Zn1C Zn 1.13779(6) 0.06702(6) 0.69565(5)
Zn1C_2 Zn 1.13779(6) 1.06702(6) -0.30435(5)
N2C N 0.5240(4) 0.5169(4) 0.2451(4)
O5C O 0.5754(3) 0.3249(3) 0.1036(3)
N3 N 0.7769(5) 0.2099(5) 0.9374(5)
C21 C 0.7961(7) 0.2465(6) 1.0315(7)
H15 H 0.7628 0.2147 1.0768
C22 C 0.8632(6) 0.3290(6) 1.0634(6)
H16 H 0.8739 0.3511 1.1287
C23 C 0.9145(5) 0.3790(6) 0.9977(6)
C24 C 0.9808(5) 0.4698(6) 1.0289(5)
H17 H 0.9966 0.4853 1.0961
C25 C 0.8968(6) 0.3384(7) 0.9017(6)
H18 H 0.9296 0.3674 0.8547
C26 C 0.8310(7) 0.2562(6) 0.8782(6)
H19 H 0.8231 0.2298 0.8146
N3B N 1.2231(5) 0.7901(5) 1.0626(5)
C21B C 1.2039(7) 0.7535(6) 0.9685(7)
H15B H 1.2372 0.7853 0.9232
C22B C 1.1368(6) 0.6710(6) 0.9366(6)
H16B H 1.1261 0.6489 0.8713
C23B C 1.0855(5) 0.6210(6) 1.0023(6)
C24B C 1.0192(5) 0.5302(6) 0.9711(5)
H17B H 1.0034 0.5147 0.9039
C25B C 1.1032(6) 0.6616(7) 1.0983(6)
H18B H 1.0704 0.6326 1.1453
C26B C 1.1690(7) 0.7438(6) 1.1218(6)
H19B H 1.1769 0.7702 1.1854
loop_
_geom_bond_atom_site_label_1
_geom_bond_atom_site_label_2
_geom_bond_site_symmetry_1
_geom_bond_site_symmetry_2
Zn1 N1 1_555 1_555
N1 C9 1_555 1_555
N2 C18 1_555 1_555
O1 Zn1 1_555 1_555
O2 C1 1_555 1_555
O3 H1 1_555 1_555
O4 C7 1_555 1_555
O5 C7 1_555 1_555
C1 O1 1_555 1_555
C2 C1 1_555 1_555
C3 C2 1_555 1_555
H2 C3 1_555 1_555
C4 O3 1_555 1_555
C5 C4 1_555 1_555
H3 C5 1_555 1_555
C6 C5 1_555 1_555
C7 C6 1_555 1_555
C8 C2 1_555 1_555
H4 C8 1_555 1_555
C9 H5 1_555 1_555
C10 C9 1_555 1_555
H6 C10 1_555 1_555
C11 C10 1_555 1_555
C12 C11 1_555 1_555
H7 C12 1_555 1_555
C13 N1 1_555 1_555
H8 C13 1_555 1_555
C14 C11 1_555 1_555
H9 C14 1_555 1_555
C15 C14 1_555 1_555
H10 C15 1_555 1_555
C16 C15 1_555 1_555
C17 C16 1_555 1_555
H11 C17 1_555 1_555
C18 C17 1_555 1_555
H12 C18 1_555 1_555
C19 N2 1_555 1_555
H13 C19 1_555 1_555
C20 C16 1_555 1_555
H14 C20 1_555 1_555
N3 C21 1_555 1_555
C21 H15 1_555 1_555
C22 C21 1_555 1_555
H16 C22 1_555 1_555
C23 C22 1_555 1_555
C24 C23 1_555 1_555
H17 C24 1_555 1_555
C25 C23 1_555 1_555
H18 C25 1_555 1_555
C26 N3 1_555 1_555
H19 C26 1_555 1_555
Zn1C O5 1_555 1_555
Zn1C_2 N2 1_555 1_555
N2C Zn1 1_555 1_555
O5C Zn1 1_555 1_555
N3B C21B 1_555 1_555
C21B H15B 1_555 1_555
C22B C21B 1_555 1_555
H16B C22B 1_555 1_555
C23B C22B 1_555 1_555
C24B C24 1_555 1_555
H17B C24B 1_555 1_555
C25B C23B 1_555 1_555
H18B C25B 1_555 1_555
C26B N3B 1_555 1_555
H19B C26B 1_555 1_555
C3 C4 1_555 1_555
C6 C8 1_555 1_555
C12 C13 1_555 1_555
C19 C20 1_555 1_555
C25 C26 1_555 1_555
C23B C24B 1_555 1_555
C25B C26B 1_555 1_555

#END
