
#######################################################################
#
#                 Cambridge Crystallographic Data Centre
#                                CCDC 
#
#######################################################################
#
# If this CIF has been generated from an entry in the Cambridge 
# Structural Database, then it will include bibliographic, chemical, 
# crystal, experimental, refinement or atomic coordinate data resulting 
# from the CCDC's data processing and validation procedures.
#
#######################################################################

data_ABAZEI
_symmetry_cell_setting           orthorhombic
_symmetry_space_group_name_H-M   'P 21 21 21'
_symmetry_Int_Tables_number      19
_space_group_name_Hall           'P 2ac 2ab'
loop_
_symmetry_equiv_pos_site_id
_symmetry_equiv_pos_as_xyz
1 x,y,z
2 1/2-x,-y,1/2+z
3 1/2+x,1/2-y,-z
4 -x,1/2+y,1/2-z
_cell_length_a                   7.574(2)
_cell_length_b                   14.331(3)
_cell_length_c                   27.131(5)
_cell_angle_alpha                90
_cell_angle_beta                 90
_cell_angle_gamma                90
_cell_volume                     2944.88
loop_
_atom_site_label
_atom_site_type_symbol
_atom_site_fract_x
_atom_site_fract_y
_atom_site_fract_z
Na1 Na 0.1479(2) 0.0893(1) 0.2296(1)
B1 B 0.1715(5) 0.4633(3) 0.2785(2)
O1 O 0.1937(3) 0.3672(2) 0.2580(1)
O2 O 0.0861(3) 0.2254(2) 0.2742(1)
O3 O 0.0270(3) 0.4558(1) 0.3129(1)
O4 O 0.3449(3) 0.4906(2) 0.3013(1)
O5 O 0.5506(3) 0.6003(2) 0.2897(1)
O6 O 0.1396(3) 0.5355(1) 0.2422(1)
C1 C 0.0917(4) 0.3080(3) 0.2817(1)
C2 C -0.0130(4) 0.3604(2) 0.3208(1)
C3 C 0.0273(4) 0.3283(2) 0.3725(1)
C4 C -0.0514(5) 0.2484(3) 0.3906(2)
C5 C -0.0131(6) 0.2179(3) 0.4381(2)
C6 C 0.1025(6) 0.2662(3) 0.4669(1)
C7 C 0.1794(6) 0.3458(3) 0.4498(2)
C8 C 0.1429(5) 0.3761(2) 0.4022(1)
C9 C 0.4105(5) 0.5649(2) 0.2792(1)
C10 C 0.2817(4) 0.5987(2) 0.2399(1)
C11 C 0.3610(5) 0.6060(2) 0.1893(1)
C12 C 0.4725(5) 0.6789(3) 0.1783(2)
C13 C 0.5431(5) 0.6889(4) 0.1316(2)
C14 C 0.5011(6) 0.6266(4) 0.0954(2)
C15 C 0.3911(6) 0.5530(3) 0.1055(2)
C16 C 0.3218(5) 0.5422(2) 0.1529(2)
N1 N 0.0796(5) 0.1726(2) 0.1505(1)
C17 C 0.1777(6) 0.2470(3) 0.1419(2)
C18 C 0.2056(8) 0.2828(3) 0.0957(2)
C19 C 0.1266(10) 0.2415(4) 0.0560(2)
C20 C 0.0209(8) 0.1660(4) 0.0642(2)
C21 C 0.0026(6) 0.1344(3) 0.1117(2)
N2 N 0.2476(4) -0.0327(2) 0.2892(1)
C22 C 0.3450(5) -0.1073(3) 0.2819(2)
C23 C 0.3750(7) -0.1744(3) 0.3161(2)
C24 C 0.3039(11) -0.1642(5) 0.3618(3)
C25 C 0.2021(8) -0.0885(6) 0.3708(2)
C26 C 0.1778(6) -0.0248(3) 0.3342(2)
H1 H -0.1365(4) 0.3507(2) 0.3146(1)
H2 H -0.1320(5) 0.2141(3) 0.3702(2)
H3 H -0.0692(6) 0.1627(3) 0.4506(2)
H4 H 0.1305(6) 0.2436(3) 0.4993(1)
H5 H 0.2567(6) 0.3815(3) 0.4705(2)
H6 H 0.1999(5) 0.4309(2) 0.3896(1)
H7 H 0.2385(4) 0.6591(2) 0.2494(1)
H8 H 0.5013(5) 0.7232(3) 0.2036(2)
H9 H 0.6193(5) 0.7407(4) 0.1245(2)
H10 H 0.5505(6) 0.6337(4) 0.0630(2)
H11 H 0.3626(6) 0.5091(3) 0.0800(2)
H12 H 0.2470(5) 0.4900(2) 0.1602(2)
H13 H 0.2303(6) 0.2781(3) 0.1696(2)
H14 H 0.2828(8) 0.3352(3) 0.0913(2)
H15 H 0.1478(10) 0.2650(4) 0.0234(2)
H16 H -0.0432(8) 0.1376(4) 0.0376(2)
H17 H -0.0687(6) 0.0801(3) 0.1173(2)
H18 H 0.3965(5) -0.1141(3) 0.2498(2)
H19 H 0.4462(7) -0.2277(3) 0.3080(2)
H20 H 0.3276(11) -0.2100(5) 0.3868(3)
H21 H 0.1474(8) -0.0820(6) 0.4026(2)
H22 H 0.1068(6) 0.0290(3) 0.3413(2)
O3C O -0.0270(3) -0.0442(1) 0.1871(1)
O5C O 0.4494(3) 0.1003(2) 0.2103(1)
O6C O -0.1396(3) 0.0355(1) 0.2578(1)
Na1C Na -0.1479(2) 0.5893(1) 0.2704(1)
Na1C_2 Na 0.8521(2) 0.5893(1) 0.2704(1)
N3 N 0.4788(8) 0.0510(4) 0.0005(2)
C27 C 0.5494(7) 0.0870(3) 0.0407(2)
C28 C 0.4997(8) 0.0595(4) 0.0836(2)
C29 C 0.3800(8) -0.0076(4) 0.0903(2)
C30 C 0.3017(7) -0.0469(3) 0.0502(2)
C31 C 0.3501(7) -0.0166(3) 0.0053(2)
H23 H 0.6330(7) 0.1313(3) 0.0375(2)
H24 H 0.5516(8) 0.0893(4) 0.1118(2)
H25 H 0.3492(8) -0.0281(4) 0.1229(2)
H26 H 0.2136(7) -0.0947(3) 0.0534(2)
H27 H 0.2973(7) -0.0427(3) -0.0238(2)
loop_
_geom_bond_atom_site_label_1
_geom_bond_atom_site_label_2
_geom_bond_site_symmetry_1
_geom_bond_site_symmetry_2
Na1 O2 1_555 1_555
B1 O1 1_555 1_555
O1 C1 1_555 1_555
O2 C1 1_555 1_555
O3 B1 1_555 1_555
O4 B1 1_555 1_555
O5 C9 1_555 1_555
O6 B1 1_555 1_555
C1 C2 1_555 1_555
C2 O3 1_555 1_555
C3 C2 1_555 1_555
C4 C3 1_555 1_555
C5 C4 1_555 1_555
C6 C5 1_555 1_555
C7 C6 1_555 1_555
C8 C3 1_555 1_555
C9 O4 1_555 1_555
C10 O6 1_555 1_555
C11 C10 1_555 1_555
C12 C11 1_555 1_555
C13 C12 1_555 1_555
C14 C13 1_555 1_555
C15 C14 1_555 1_555
C16 C11 1_555 1_555
N1 Na1 1_555 1_555
C17 N1 1_555 1_555
C18 C17 1_555 1_555
C19 C18 1_555 1_555
C20 C19 1_555 1_555
C21 N1 1_555 1_555
N2 Na1 1_555 1_555
C22 N2 1_555 1_555
C23 C22 1_555 1_555
C24 C23 1_555 1_555
C25 C24 1_555 1_555
C26 N2 1_555 1_555
N3 C27 1_555 1_555
C27 C28 1_555 1_555
C28 C29 1_555 1_555
C29 C30 1_555 1_555
C30 C31 1_555 1_555
C31 N3 1_555 1_555
H1 C2 1_555 1_555
H2 C4 1_555 1_555
H3 C5 1_555 1_555
H4 C6 1_555 1_555
H5 C7 1_555 1_555
H6 C8 1_555 1_555
H7 C10 1_555 1_555
H8 C12 1_555 1_555
H9 C13 1_555 1_555
H10 C14 1_555 1_555
H11 C15 1_555 1_555
H12 C16 1_555 1_555
H13 C17 1_555 1_555
H14 C18 1_555 1_555
H15 C19 1_555 1_555
H16 C20 1_555 1_555
H17 C21 1_555 1_555
H18 C22 1_555 1_555
H19 C23 1_555 1_555
H20 C24 1_555 1_555
H21 C25 1_555 1_555
H22 C26 1_555 1_555
H23 C27 1_555 1_555
H24 C28 1_555 1_555
H25 C29 1_555 1_555
H26 C30 1_555 1_555
H27 C31 1_555 1_555
O3C Na1 1_555 1_555
O5C Na1 1_555 1_555
O6C Na1 1_555 1_555
Na1C O3 1_555 1_555
Na1C_2 O5 1_555 1_555
O6 Na1C 1_555 1_555
C7 C8 1_555 1_555
C9 C10 1_555 1_555
C15 C16 1_555 1_555
C20 C21 1_555 1_555
C25 C26 1_555 1_555

#END
