
#######################################################################
#
#                 Cambridge Crystallographic Data Centre
#                                CCDC 
#
#######################################################################
#
# If this CIF has been generated from an entry in the Cambridge 
# Structural Database, then it will include bibliographic, chemical, 
# crystal, experimental, refinement or atomic coordinate data resulting 
# from the CCDC's data processing and validation procedures.
#
#######################################################################

data_ABEWIP
_symmetry_cell_setting           monoclinic
_symmetry_space_group_name_H-M   'C 2/c'
_symmetry_Int_Tables_number      15
_space_group_name_Hall           '-C 2yn'
loop_
_symmetry_equiv_pos_site_id
_symmetry_equiv_pos_as_xyz
1 x,y,z
2 -x,y,1/2-z
3 1/2+x,1/2+y,z
4 1/2-x,1/2+y,1/2-z
5 -x,-y,-z
6 x,-y,1/2+z
7 1/2-x,1/2-y,-z
8 1/2+x,1/2-y,1/2+z
_cell_length_a                   18.5717(9)
_cell_length_b                   13.0317(3)
_cell_length_c                   13.9718(7)
_cell_angle_alpha                90
_cell_angle_beta                 131.145(8)
_cell_angle_gamma                90
_cell_volume                     2546.4
loop_
_atom_site_label
_atom_site_type_symbol
_atom_site_fract_x
_atom_site_fract_y
_atom_site_fract_z
Tm1 Tm 0.821641(9) -0.250408(18) 0.270328(13)
N1 N 0.8509(2) -0.0605(2) 0.3147(3)
C1 C 0.7895(3) 0.0104(3) 0.2920(4)
H1 H 0.7352 -0.0132 0.2761
N2 N 0.7982(2) 0.1114(2) 0.2900(3)
C2 C 0.8777(3) 0.1438(3) 0.3148(3)
C3 C 0.9465(3) 0.0774(3) 0.3412(3)
H2 H 1.0012 0.1013 0.3587
C4 C 0.9308(3) -0.0264(3) 0.3408(3)
C5 C 1.0001(3) -0.1097(3) 0.3693(4)
O1 O 0.96903(18) -0.2007(2) 0.3525(3)
O2 O 1.07904(17) -0.0839(2) 0.4074(3)
C6 C 0.8842(2) 0.2604(3) 0.3069(3)
O3 O 0.81351(17) 0.3102(2) 0.2748(2)
O4 O 0.95598(17) 0.2957(2) 0.3294(3)
O5 O 0.81404(19) -0.34173(19) 0.1193(2)
C7 C 0.7728(2) -0.3030(3) 0.0130(4)
O6 O 0.76360(18) -0.34029(19) -0.0779(3)
O7 O 0.86104(15) -0.2479(2) 0.4646(2)
O8 O 0.91240(17) -0.3962(2) 0.3706(2)
H3 H 0.9193 -0.2600 0.5288
H4 H 0.8472 -0.1937 0.4858
H5 H 0.9044 -0.4315 0.4156
H6 H 0.9699 -0.4119 0.4041
Tm1F Tm 0.678359(9) -0.249592(18) -0.270328(13)
Tm1C Tm 0.678359(9) 0.249592(18) 0.229672(13)
Tm1E Tm 0.821641(9) -0.749592(18) -0.229672(13)
N1F N 0.6491(2) -0.4395(2) -0.3147(3)
C1F C 0.7105(3) -0.5104(3) -0.2920(4)
H1F H 0.7648 -0.4868 -0.2761
N2F N 0.7018(2) -0.6114(2) -0.2900(3)
N2C N 0.7018(2) -0.3886(2) 0.2100(3)
N2E N 0.7982(2) -0.1114(2) -0.2100(3)
C2F C 0.6223(3) -0.6438(3) -0.3148(3)
C3F C 0.5535(3) -0.5774(3) -0.3412(3)
H2F H 0.4988 -0.6013 -0.3587
C4F C 0.5692(3) -0.4736(3) -0.3408(3)
C5F C 0.4999(3) -0.3903(3) -0.3693(4)
O1F O 0.53097(18) -0.2993(2) -0.3525(3)
O2F O 0.42096(17) -0.4161(2) -0.4074(3)
C6F C 0.6158(2) -0.7604(3) -0.3069(3)
O3F O 0.68649(17) -0.8102(2) -0.2748(2)
O3C O 0.68649(17) -0.1898(2) 0.2252(2)
O3E O 0.81351(17) -0.3102(2) -0.2252(2)
O4F O 0.54402(17) -0.7957(2) -0.3294(3)
O5F O 0.68596(19) -0.15827(19) -0.1193(2)
C7F C 0.7272(2) -0.1970(3) -0.0130(4)
O6F O 0.73640(18) -0.15971(19) 0.0779(3)
O7F O 0.63896(15) -0.2521(2) -0.4646(2)
O8F O 0.58760(17) -0.1038(2) -0.3706(2)
H3F H 0.5807 -0.2400 -0.5288
H4F H 0.6528 -0.3063 -0.4858
H5F H 0.5956 -0.0685 -0.4156
H6F H 0.5301 -0.0881 -0.4041
O9 O 0.88218(19) 0.4562(2) 0.1630(3)
H7 H 0.9218 0.4230 0.2402
H8 H 0.8552 0.5121 0.1697
O10 O 0.81103(19) -0.0931(2) 0.5372(3)
H9 H 0.7549 -0.0843 0.4591
H10 H 0.8425 -0.0403 0.5472
O11 O 0.91288(19) -0.5292(2) 0.5148(3)
H11 H 0.9039 -0.4904 0.5583
H12 H 0.8674 -0.5747 0.4789
loop_
_geom_bond_atom_site_label_1
_geom_bond_atom_site_label_2
_geom_bond_site_symmetry_1
_geom_bond_site_symmetry_2
Tm1 N1 1_555 1_555
N1 C1 1_555 1_555
C1 H1 1_555 1_555
N2 C1 1_555 1_555
C2 N2 1_555 1_555
C3 C2 1_555 1_555
H2 C3 1_555 1_555
C4 N1 1_555 1_555
C5 C4 1_555 1_555
O1 Tm1 1_555 1_555
O2 C5 1_555 1_555
C6 C2 1_555 1_555
O3 C6 1_555 1_555
O4 C6 1_555 1_555
O5 Tm1 1_555 1_555
C7 O5 1_555 1_555
O6 C7 1_555 1_555
O7 Tm1 1_555 1_555
O8 Tm1 1_555 1_555
O9 H7 1_555 1_555
O10 H9 1_555 1_555
O11 H11 1_555 1_555
H3 O7 1_555 1_555
H4 O7 1_555 1_555
H5 O8 1_555 1_555
H6 O8 1_555 1_555
H8 O9 1_555 1_555
H10 O10 1_555 1_555
H12 O11 1_555 1_555
Tm1F O6 1_555 1_555
Tm1C N2 1_555 1_555
Tm1E N2F 1_555 1_555
N1F Tm1F 1_555 1_555
C1F N1F 1_555 1_555
H1F C1F 1_555 1_555
N2F C1F 1_555 1_555
N2C Tm1 1_555 1_555
N2E Tm1F 1_555 1_555
C2F N2F 1_555 1_555
C3F C2F 1_555 1_555
H2F C3F 1_555 1_555
C4F N1F 1_555 1_555
C5F C4F 1_555 1_555
O1F Tm1F 1_555 1_555
O2F C5F 1_555 1_555
C6F C2F 1_555 1_555
O3F Tm1E 1_555 1_555
O3C Tm1 1_555 1_555
O3E Tm1F 1_555 1_555
O4F C6F 1_555 1_555
O5F Tm1F 1_555 1_555
C7F C7 1_555 1_555
O6F Tm1 1_555 1_555
O7F Tm1F 1_555 1_555
O8F Tm1F 1_555 1_555
H3F O7F 1_555 1_555
H4F O7F 1_555 1_555
H5F O8F 1_555 1_555
H6F O8F 1_555 1_555
C3 C4 1_555 1_555
C5 O1 1_555 1_555
O3 Tm1C 1_555 1_555
C3F C4F 1_555 1_555
C5F O1F 1_555 1_555
C6F O3F 1_555 1_555
O5F C7F 1_555 1_555
C7F O6F 1_555 1_555

#END
