
#######################################################################
#
#                 Cambridge Crystallographic Data Centre
#                                CCDC 
#
#######################################################################
#
# If this CIF has been generated from an entry in the Cambridge 
# Structural Database, then it will include bibliographic, chemical, 
# crystal, experimental, refinement or atomic coordinate data resulting 
# from the CCDC's data processing and validation procedures.
#
#######################################################################

data_ABEWOV
_symmetry_cell_setting           monoclinic
_symmetry_space_group_name_H-M   'C 2/c'
_symmetry_Int_Tables_number      15
_space_group_name_Hall           '-C 2yn'
loop_
_symmetry_equiv_pos_site_id
_symmetry_equiv_pos_as_xyz
1 x,y,z
2 -x,y,1/2-z
3 1/2+x,1/2+y,z
4 1/2-x,1/2+y,1/2-z
5 -x,-y,-z
6 x,-y,1/2+z
7 1/2-x,1/2-y,-z
8 1/2+x,1/2-y,1/2+z
_cell_length_a                   18.589(3)
_cell_length_b                   13.0259(10)
_cell_length_c                   14.065(2)
_cell_angle_alpha                90
_cell_angle_beta                 131.74(2)
_cell_angle_gamma                90
_cell_volume                     2541.23
loop_
_atom_site_label
_atom_site_type_symbol
_atom_site_fract_x
_atom_site_fract_y
_atom_site_fract_z
Yb1 Yb 0.301413(9) 0.999722(12) 0.230482(12)
N1 N 0.2857(2) 1.1895(2) 0.1847(3)
C1 C 0.2466(3) 1.2604(3) 0.2075(4)
H1 H 0.2081 1.2369 0.2232
N2 N 0.2579(2) 1.3613(2) 0.2096(3)
C2 C 0.3128(3) 1.3943(3) 0.1850(3)
C3 C 0.3550(3) 1.3270(3) 0.1587(3)
H2 H 0.3924 1.3505 0.1412
C4 C 0.3396(3) 1.2229(3) 0.1596(3)
C5 C 0.3815(3) 1.1396(3) 0.1324(4)
O1 O 0.3674(2) 1.0486(2) 0.1500(3)
O2 O 0.4215(2) 1.1651(2) 0.0929(3)
C6 C 0.3270(3) 1.5099(3) 0.1928(3)
O3 O 0.28732(19) 1.5603(2) 0.2237(2)
O4 O 0.3763(2) 1.5460(2) 0.1706(3)
O5 O 0.40880(19) 1.09065(19) 0.4226(2)
C7 C 0.4903(2) 1.0529(3) 0.5125(3)
O6 O 0.55558(19) 1.09162(19) 0.6193(2)
O7 O 0.29110(19) 0.85477(19) 0.1289(3)
O8 O 0.14743(19) 1.00282(18) 0.0372(2)
H3 H 0.3110 0.8364 0.0919
H4 H 0.2496 0.8030 0.1097
H5 H 0.1348 0.9875 -0.0315
H6 H 0.1043 1.0483 0.0114
Yb1D Yb 0.698587(9) 1.000278(12) 0.769518(12)
Yb1C Yb 0.198587(9) 1.499722(12) 0.269518(12)
Yb1G Yb 0.801413(9) 0.500278(12) 0.730482(12)
N1D N 0.7143(2) 0.8105(2) 0.8153(3)
C1D C 0.7534(3) 0.7396(3) 0.7925(4)
H1D H 0.7919 0.7631 0.7768
N2D N 0.7421(2) 0.6387(2) 0.7904(3)
N2C N 0.2421(2) 0.8613(2) 0.2904(3)
N2G N 0.7579(2) 1.1387(2) 0.7096(3)
C2D C 0.6872(3) 0.6057(3) 0.8150(3)
C3D C 0.6450(3) 0.6730(3) 0.8413(3)
H2D H 0.6076 0.6495 0.8588
C4D C 0.6604(3) 0.7771(3) 0.8404(3)
C5D C 0.6185(3) 0.8604(3) 0.8676(4)
O1D O 0.6326(2) 0.9514(2) 0.8500(3)
O2D O 0.5785(2) 0.8349(2) 0.9071(3)
C6D C 0.6730(3) 0.4901(3) 0.8072(3)
O3D O 0.71268(19) 0.4397(2) 0.7763(2)
O3C O 0.21268(19) 1.0603(2) 0.2763(2)
O3G O 0.78732(19) 0.9397(2) 0.7237(2)
O4D O 0.6237(2) 0.4540(2) 0.8294(3)
O5D O 0.59120(19) 0.90935(19) 0.5774(2)
C7D C 0.5097(2) 0.9471(3) 0.4875(3)
O6D O 0.44442(19) 0.90838(19) 0.3807(2)
O7D O 0.70890(19) 1.14523(19) 0.8711(3)
O8D O 0.85257(19) 0.99718(18) 0.9628(2)
H3D H 0.6890 1.1636 0.9081
H4D H 0.7504 1.1970 0.8903
H5D H 0.8652 1.0125 1.0315
H6D H 0.8957 0.9517 0.9886
O9 O 0.03133(19) 1.20599(19) 0.1637(3)
H7 H 0.0613 1.1557 0.2154
H8 H 0.0382 1.2691 0.1536
O10 O 0.5250(2) 0.3430(2) 0.4636(3)
H9 H 0.5297 0.3250 0.5269
H10 H 0.5422 0.2885 0.4492
O11 O 0.14811(19) 0.7209(2) 0.9849(3)
H11 H 0.0917 0.7488 0.9395
H12 H 0.1338 0.6808 1.0183
loop_
_geom_bond_atom_site_label_1
_geom_bond_atom_site_label_2
_geom_bond_site_symmetry_1
_geom_bond_site_symmetry_2
Yb1 N1 1_555 1_555
N1 C1 1_555 1_555
C1 H1 1_555 1_555
N2 C1 1_555 1_555
C2 N2 1_555 1_555
C3 C2 1_555 1_555
H2 C3 1_555 1_555
C4 N1 1_555 1_555
C5 C4 1_555 1_555
O1 Yb1 1_555 1_555
O2 C5 1_555 1_555
C6 C2 1_555 1_555
O3 C6 1_555 1_555
O4 C6 1_555 1_555
O5 Yb1 1_555 1_555
C7 O5 1_555 1_555
O6 C7 1_555 1_555
O7 Yb1 1_555 1_555
O8 Yb1 1_555 1_555
O9 H7 1_555 1_555
O10 H9 1_555 1_555
O11 H11 1_555 1_555
H3 O7 1_555 1_555
H4 O7 1_555 1_555
H5 O8 1_555 1_555
H6 O8 1_555 1_555
H8 O9 1_555 1_555
H10 O10 1_555 1_555
H12 O11 1_555 1_555
Yb1D O6 1_555 1_555
Yb1C N2 1_555 1_555
Yb1G N2D 1_555 1_555
N1D Yb1D 1_555 1_555
C1D N1D 1_555 1_555
H1D C1D 1_555 1_555
N2D C1D 1_555 1_555
N2C Yb1 1_555 1_555
N2G Yb1D 1_555 1_555
C2D N2D 1_555 1_555
C3D C2D 1_555 1_555
H2D C3D 1_555 1_555
C4D N1D 1_555 1_555
C5D C4D 1_555 1_555
O1D Yb1D 1_555 1_555
O2D C5D 1_555 1_555
C6D C2D 1_555 1_555
O3D Yb1G 1_555 1_555
O3C Yb1 1_555 1_555
O3G Yb1D 1_555 1_555
O4D C6D 1_555 1_555
O5D Yb1D 1_555 1_555
C7D C7 1_555 1_555
O6D Yb1 1_555 1_555
O7D Yb1D 1_555 1_555
O8D Yb1D 1_555 1_555
H3D O7D 1_555 1_555
H4D O7D 1_555 1_555
H5D O8D 1_555 1_555
H6D O8D 1_555 1_555
C3 C4 1_555 1_555
C5 O1 1_555 1_555
O3 Yb1C 1_555 1_555
C3D C4D 1_555 1_555
C5D O1D 1_555 1_555
C6D O3D 1_555 1_555
O5D C7D 1_555 1_555
C7D O6D 1_555 1_555

#END
