
#######################################################################
#
#                 Cambridge Crystallographic Data Centre
#                                CCDC 
#
#######################################################################
#
# If this CIF has been generated from an entry in the Cambridge 
# Structural Database, then it will include bibliographic, chemical, 
# crystal, experimental, refinement or atomic coordinate data resulting 
# from the CCDC's data processing and validation procedures.
#
#######################################################################

data_ABEXAI
_symmetry_cell_setting           monoclinic
_symmetry_space_group_name_H-M   'P 21/n'
_symmetry_Int_Tables_number      14
_space_group_name_Hall           '-P 2yn'
loop_
_symmetry_equiv_pos_site_id
_symmetry_equiv_pos_as_xyz
1 x,y,z
2 1/2-x,1/2+y,1/2-z
3 -x,-y,-z
4 1/2+x,1/2-y,1/2+z
_cell_length_a                   7.8600(6)
_cell_length_b                   12.9730(8)
_cell_length_c                   12.8920(8)
_cell_angle_alpha                90
_cell_angle_beta                 94.350(6)
_cell_angle_gamma                90
_cell_volume                     1310.78
loop_
_atom_site_label
_atom_site_type_symbol
_atom_site_fract_x
_atom_site_fract_y
_atom_site_fract_z
Er1 Er 0.597138(17) 0.163927(9) 0.663102(9)
N1 N 0.6856(4) 0.3587(2) 0.6407(2)
C1 C 0.7250(4) 0.4267(2) 0.7165(2)
H1 H 0.7207 0.4041 0.7847
N2 N 0.7704(3) 0.52527(18) 0.70206(19)
C2 C 0.7770(4) 0.5564(2) 0.6035(2)
C3 C 0.7347(4) 0.4929(2) 0.5195(2)
H2 H 0.7367 0.5160 0.4513
C4 C 0.6890(4) 0.3926(2) 0.5429(2)
C5 C 0.6390(4) 0.3137(2) 0.4581(2)
O1 O 0.6197(3) 0.22270(16) 0.49034(16)
O2 O 0.6225(3) 0.34292(16) 0.36606(18)
C6 C 0.8351(4) 0.6672(2) 0.5896(2)
O3 O 0.8552(3) 0.72185(16) 0.67091(16)
O4 O 0.8627(3) 0.69601(17) 0.50068(16)
O5 O 0.6901(3) 0.01849(16) 0.57661(16)
C7 C 0.5909(4) -0.0225(2) 0.5066(2)
O6 O 0.6261(3) -0.09420(15) 0.44823(17)
O7 O 0.3927(3) 0.06881(16) 0.76400(17)
O8 O 0.9000(3) 0.17633(17) 0.67083(18)
O9 O 0.3585(3) 0.27175(18) 0.66973(17)
H3 H 0.3319 0.1007 0.7758
H4 H 0.3533 0.0168 0.7357
H5 H 0.9612 0.1732 0.7281
H6 H 0.9381 0.1541 0.6147
H7 H 0.3323 0.3035 0.7250
H8 H 0.2955 0.2790 0.6132
Er1B Er 0.402862(17) -0.163927(9) 0.336898(9)
Er1A Er 0.902862(17) 0.663927(9) 0.836898(9)
Er1C Er 0.097138(17) -0.663927(9) 0.163102(9)
N1B N 0.3144(4) -0.3587(2) 0.3593(2)
C1B C 0.2750(4) -0.4267(2) 0.2835(2)
H1B H 0.2793 -0.4041 0.2153
N2B N 0.2296(3) -0.52527(18) 0.29794(19)
N2A N 0.7296(3) 0.02527(18) 0.79794(19)
N2C N 0.2704(3) -0.02527(18) 0.20206(19)
C2B C 0.2230(4) -0.5564(2) 0.3965(2)
C3B C 0.2653(4) -0.4929(2) 0.4805(2)
H2B H 0.2633 -0.5160 0.5487
C4B C 0.3110(4) -0.3926(2) 0.4571(2)
C5B C 0.3610(4) -0.3137(2) 0.5419(2)
O1B O 0.3803(3) -0.22270(16) 0.50966(16)
O2B O 0.3775(3) -0.34292(16) 0.63394(18)
C6B C 0.1649(4) -0.6672(2) 0.4104(2)
O3B O 0.1448(3) -0.72185(16) 0.32909(16)
O3A O 0.6448(3) 0.22185(16) 0.82909(16)
O3C O 0.3552(3) -0.22185(16) 0.17091(16)
O4B O 0.1373(3) -0.69601(17) 0.49932(16)
O5B O 0.3099(3) -0.01849(16) 0.42339(16)
C7B C 0.4091(4) 0.0225(2) 0.4934(2)
O6B O 0.3739(3) 0.09420(15) 0.55177(17)
O7B O 0.6073(3) -0.06881(16) 0.23600(17)
O8B O 0.1000(3) -0.17633(17) 0.32917(18)
O9B O 0.6415(3) -0.27175(18) 0.33027(17)
H3B H 0.6681 -0.1007 0.2242
H4B H 0.6467 -0.0168 0.2643
H5B H 0.0388 -0.1732 0.2719
H6B H 0.0619 -0.1541 0.3853
H7B H 0.6677 -0.3035 0.2750
H8B H 0.7045 -0.2790 0.3868
O10 O 0.2541(3) 0.39127(17) 0.82737(17)
O11 O 1.0097(3) 0.10716(17) 0.48139(18)
loop_
_geom_bond_atom_site_label_1
_geom_bond_atom_site_label_2
_geom_bond_site_symmetry_1
_geom_bond_site_symmetry_2
Er1 N1 1_555 1_555
N1 C1 1_555 1_555
C1 H1 1_555 1_555
N2 C1 1_555 1_555
C2 N2 1_555 1_555
C3 C2 1_555 1_555
H2 C3 1_555 1_555
C4 N1 1_555 1_555
C5 C4 1_555 1_555
O1 Er1 1_555 1_555
O2 C5 1_555 1_555
C6 C2 1_555 1_555
O3 C6 1_555 1_555
O4 C6 1_555 1_555
O5 Er1 1_555 1_555
C7 O5 1_555 1_555
O6 C7 1_555 1_555
O7 Er1 1_555 1_555
O8 Er1 1_555 1_555
O9 Er1 1_555 1_555
H3 O7 1_555 1_555
H4 O7 1_555 1_555
H5 O8 1_555 1_555
H6 O8 1_555 1_555
H7 O9 1_555 1_555
H8 O9 1_555 1_555
Er1B O6 1_555 1_555
Er1A N2 1_555 1_555
Er1C N2B 1_555 1_555
N1B Er1B 1_555 1_555
C1B N1B 1_555 1_555
H1B C1B 1_555 1_555
N2B C1B 1_555 1_555
N2A Er1 1_555 1_555
N2C Er1B 1_555 1_555
C2B N2B 1_555 1_555
C3B C2B 1_555 1_555
H2B C3B 1_555 1_555
C4B N1B 1_555 1_555
C5B C4B 1_555 1_555
O1B Er1B 1_555 1_555
O2B C5B 1_555 1_555
C6B C2B 1_555 1_555
O3B Er1C 1_555 1_555
O3A Er1 1_555 1_555
O3C Er1B 1_555 1_555
O4B C6B 1_555 1_555
O5B Er1B 1_555 1_555
C7B C7 1_555 1_555
O6B Er1 1_555 1_555
O7B Er1B 1_555 1_555
O8B Er1B 1_555 1_555
O9B Er1B 1_555 1_555
H3B O7B 1_555 1_555
H4B O7B 1_555 1_555
H5B O8B 1_555 1_555
H6B O8B 1_555 1_555
H7B O9B 1_555 1_555
H8B O9B 1_555 1_555
C3 C4 1_555 1_555
C5 O1 1_555 1_555
O3 Er1A 1_555 1_555
C3B C4B 1_555 1_555
C5B O1B 1_555 1_555
C6B O3B 1_555 1_555
O5B C7B 1_555 1_555
C7B O6B 1_555 1_555

#END
