
#######################################################################
#
#                 Cambridge Crystallographic Data Centre
#                                CCDC 
#
#######################################################################
#
# If this CIF has been generated from an entry in the Cambridge 
# Structural Database, then it will include bibliographic, chemical, 
# crystal, experimental, refinement or atomic coordinate data resulting 
# from the CCDC's data processing and validation procedures.
#
#######################################################################

data_ABEYOX
_symmetry_cell_setting           monoclinic
_symmetry_space_group_name_H-M   'P 21/n'
_symmetry_Int_Tables_number      14
_space_group_name_Hall           '-P 2yn'
loop_
_symmetry_equiv_pos_site_id
_symmetry_equiv_pos_as_xyz
1 x,y,z
2 1/2-x,1/2+y,1/2-z
3 -x,-y,-z
4 1/2+x,1/2-y,1/2+z
_cell_length_a                   6.9220(11)
_cell_length_b                   16.9702(2)
_cell_length_c                   9.8262(2)
_cell_angle_alpha                90
_cell_angle_beta                 100.154(2)
_cell_angle_gamma                90
_cell_volume                     1136.18
loop_
_atom_site_label
_atom_site_type_symbol
_atom_site_fract_x
_atom_site_fract_y
_atom_site_fract_z
La1 La 0.735219(18) 0.143556(7) 0.173343(12)
N1 N 0.5714(3) 0.15706(11) 0.41223(19)
C1 C 0.4781(3) 0.21941(13) 0.4525(2)
H1 H 0.4276 0.2557 0.3845
N2 N 0.4503(3) 0.23473(11) 0.58111(19)
C2 C 0.5267(3) 0.18234(13) 0.6788(2)
C3 C 0.6173(3) 0.11370(13) 0.6466(2)
H2 H 0.6641 0.0766 0.7141
C4 C 0.6352(3) 0.10273(13) 0.5105(2)
C5 C 0.7326(3) 0.02992(13) 0.4630(2)
O1 O 0.7775(2) 0.03526(10) 0.34310(15)
O2 O 0.7566(2) -0.02749(9) 0.54043(16)
C6 C 0.5166(3) 0.20294(13) 0.8275(2)
O3 O 0.4027(2) 0.25753(9) 0.84885(16)
O4 O 0.6270(2) 0.16429(9) 0.91757(16)
O5 O 0.4137(2) 0.07335(10) 0.09996(16)
C7 C 0.4013(3) 0.01589(13) 0.0172(2)
O6 O 0.2472(2) -0.01715(9) -0.03874(16)
O7 O 0.4999(3) 0.25953(9) 0.13810(16)
O8 O 1.0935(2) 0.10620(10) 0.22138(17)
H3 H 0.5384 0.3048 0.1720
H4 H 0.5110 0.2641 0.0485
H5 H 1.1862 0.0975 0.1759
H6 H 1.1312 0.0827 0.2983
La1B La 0.264781(18) -0.143556(7) -0.173343(12)
La1_2 La 0.735219(18) 0.143556(7) 1.173343(12)
La1A La 0.764781(18) -0.356444(7) -0.673343(12)
La1B_2 La 0.264781(18) -0.143556(7) -1.173343(12)
La1C La 0.235219(18) 0.356444(7) 0.673343(12)
N1B N 0.4286(3) -0.15706(11) -0.41223(19)
C1B C 0.5219(3) -0.21941(13) -0.4525(2)
H1B H 0.5724 -0.2557 -0.3845
N2B N 0.5497(3) -0.23473(11) -0.58111(19)
N2A N 0.0497(3) -0.26527(11) -0.08111(19)
N2C N 0.9503(3) 0.26527(11) 0.08111(19)
C2B C 0.4733(3) -0.18234(13) -0.6788(2)
C3B C 0.3827(3) -0.11370(13) -0.6466(2)
H2B H 0.3359 -0.0766 -0.7141
C4B C 0.3648(3) -0.10273(13) -0.5105(2)
C5B C 0.2674(3) -0.02992(13) -0.4630(2)
O1B O 0.2225(2) -0.03526(10) -0.34310(15)
O2B O 0.2434(2) 0.02749(9) -0.54043(16)
C6B C 0.4834(3) -0.20294(13) -0.8275(2)
O3B O 0.5973(2) -0.25753(9) -0.84885(16)
O3A O 0.0973(2) -0.24247(9) -0.34885(16)
O3C O 0.9027(2) 0.24247(9) 0.34885(16)
O4B O 0.3730(2) -0.16429(9) -0.91757(16)
O4_2 O 0.6270(2) 0.16429(9) -0.08243(16)
O4B_2 O 0.3730(2) -0.16429(9) 0.08243(16)
O5B O 0.5863(2) -0.07335(10) -0.09996(16)
C7B C 0.5987(3) -0.01589(13) -0.0172(2)
O6B O 0.7528(2) 0.01715(9) 0.03874(16)
O7B O 0.5001(3) -0.25953(9) -0.13810(16)
O8B O -0.0935(2) -0.10620(10) -0.22138(17)
H3B H 0.4616 -0.3048 -0.1720
H4B H 0.4890 -0.2641 -0.0485
H5B H -0.1862 -0.0975 -0.1759
H6B H -0.1312 -0.0827 -0.2983
O9 O 0.5876(3) 0.39838(11) 0.25750(18)
H7 H 0.6248 0.4378 0.2120
H8 H 0.6184 0.4263 0.3352
loop_
_geom_bond_atom_site_label_1
_geom_bond_atom_site_label_2
_geom_bond_site_symmetry_1
_geom_bond_site_symmetry_2
La1 N1 1_555 1_555
N1 C1 1_555 1_555
C1 H1 1_555 1_555
N2 C1 1_555 1_555
C2 N2 1_555 1_555
C3 C2 1_555 1_555
H2 C3 1_555 1_555
C4 N1 1_555 1_555
C5 C4 1_555 1_555
O1 La1 1_555 1_555
O2 C5 1_555 1_555
C6 C2 1_555 1_555
O3 C6 1_555 1_555
O4 C6 1_555 1_555
O5 La1 1_555 1_555
C7 O5 1_555 1_555
O6 C7 1_555 1_555
O7 La1 1_555 1_555
O8 La1 1_555 1_555
O9 H7 1_555 1_555
H3 O7 1_555 1_555
H4 O7 1_555 1_555
H5 O8 1_555 1_555
H6 O8 1_555 1_555
H8 O9 1_555 1_555
La1B O6 1_555 1_555
La1_2 O4 1_555 1_555
La1A N2B 1_555 1_555
La1B_2 O4B 1_555 1_555
La1C N2 1_555 1_555
N1B La1B 1_555 1_555
C1B N1B 1_555 1_555
H1B C1B 1_555 1_555
N2B C1B 1_555 1_555
N2A La1B 1_555 1_555
N2C La1 1_555 1_555
C2B N2B 1_555 1_555
C3B C2B 1_555 1_555
H2B C3B 1_555 1_555
C4B N1B 1_555 1_555
C5B C4B 1_555 1_555
O1B La1B 1_555 1_555
O2B C5B 1_555 1_555
C6B C2B 1_555 1_555
O3B La1A 1_555 1_555
O3A La1B 1_555 1_555
O3C La1 1_555 1_555
O4B C6B 1_555 1_555
O4_2 La1 1_555 1_555
O4B_2 La1B 1_555 1_555
O5B La1B 1_555 1_555
C7B C7 1_555 1_555
O6B La1 1_555 1_555
O7B La1B 1_555 1_555
O8B La1B 1_555 1_555
H3B O7B 1_555 1_555
H4B O7B 1_555 1_555
H5B O8B 1_555 1_555
H6B O8B 1_555 1_555
C3 C4 1_555 1_555
C5 O1 1_555 1_555
O3 La1C 1_555 1_555
C3B C4B 1_555 1_555
C5B O1B 1_555 1_555
C6B O3B 1_555 1_555
O5B C7B 1_555 1_555
C7B O6B 1_555 1_555

#END
