
#######################################################################
#
#                 Cambridge Crystallographic Data Centre
#                                CCDC 
#
#######################################################################
#
# If this CIF has been generated from an entry in the Cambridge 
# Structural Database, then it will include bibliographic, chemical, 
# crystal, experimental, refinement or atomic coordinate data resulting 
# from the CCDC's data processing and validation procedures.
#
#######################################################################

data_ABIFAT
_symmetry_cell_setting           triclinic
_symmetry_space_group_name_H-M   'P -1'
_symmetry_Int_Tables_number      2
_space_group_name_Hall           '-P 1'
loop_
_symmetry_equiv_pos_site_id
_symmetry_equiv_pos_as_xyz
1 x,y,z
2 -x,-y,-z
_cell_length_a                   7.1312(5)
_cell_length_b                   10.1622(8)
_cell_length_c                   11.9270(9)
_cell_angle_alpha                88.758(2)
_cell_angle_beta                 79.0820(10)
_cell_angle_gamma                89.269(2)
_cell_volume                     848.457
loop_
_atom_site_label
_atom_site_type_symbol
_atom_site_fract_x
_atom_site_fract_y
_atom_site_fract_z
Mn1 Mn 0.32284(6) 0.02829(4) 0.23123(3)
O1 O 0.5179(3) 0.1873(2) 0.21550(17)
O2 O 0.5368(3) 0.2256(2) 0.02790(18)
O3 O 0.9113(3) 0.1006(2) 0.10292(18)
O4 O 1.1082(3) 0.1713(2) 0.21312(19)
O5 O 0.1681(3) -0.0931(2) 0.12974(18)
H1 H 0.079(4) -0.048(3) 0.110(3)
H2 H 0.227(5) -0.133(3) 0.071(2)
O6 O 0.5853(3) -0.0721(2) 0.12663(19)
H3 H 0.572(5) -0.112(3) 0.068(2)
H4 H 0.680(4) -0.025(3) 0.111(3)
N1 N 0.3200(4) -0.1560(2) 0.3486(2)
N2 N 0.2496(4) 0.0875(2) 0.4186(2)
C1 C 0.5818(4) 0.2472(3) 0.1226(2)
C2 C 0.7208(4) 0.3549(3) 0.1282(2)
C3 C 0.6643(5) 0.4857(3) 0.1160(3)
H5 H 0.5433 0.5042 0.1010
C4 C 0.7855(5) 0.5878(3) 0.1259(3)
H6 H 0.7462 0.6744 0.1170
C5 C 0.9647(5) 0.5618(3) 0.1491(3)
H7 H 1.0460 0.6306 0.1563
C6 C 1.0229(5) 0.4328(3) 0.1614(3)
H8 H 1.1438 0.4154 0.1771
C7 C 0.9032(4) 0.3284(3) 0.1507(2)
C8 C 0.9788(4) 0.1890(3) 0.1554(2)
C9 C 0.3471(5) -0.2785(3) 0.3086(3)
H9 H 0.3679 -0.2898 0.2300
C10 C 0.3455(5) -0.3879(3) 0.3782(3)
H10 H 0.3608 -0.4716 0.3475
C11 C 0.3209(6) -0.3714(4) 0.4948(3)
H11 H 0.3217 -0.4438 0.5437
C12 C 0.2952(5) -0.2465(3) 0.5376(3)
H12 H 0.2790 -0.2333 0.6158
C13 C 0.2938(4) -0.1404(3) 0.4622(2)
C14 C 0.2579(4) -0.0023(3) 0.5010(2)
C15 C 0.2314(5) 0.0309(3) 0.6155(3)
H13 H 0.2420 -0.0328 0.6712
C16 C 0.1892(5) 0.1601(3) 0.6451(3)
H14 H 0.1689 0.1844 0.7212
C17 C 0.1777(5) 0.2519(3) 0.5609(3)
H15 H 0.1489 0.3393 0.5789
C18 C 0.2093(5) 0.2126(3) 0.4493(3)
H16 H 0.2025 0.2755 0.3924
O4_2 O 0.1082(3) 0.1713(2) 0.21312(19)
Mn1_2 Mn 1.32284(6) 0.02829(4) 0.23123(3)
loop_
_geom_bond_atom_site_label_1
_geom_bond_atom_site_label_2
_geom_bond_site_symmetry_1
_geom_bond_site_symmetry_2
Mn1 O1 1_555 1_555
O1 C1 1_555 1_555
O2 C1 1_555 1_555
O3 C8 1_555 1_555
O4 C8 1_555 1_555
O5 Mn1 1_555 1_555
H1 O5 1_555 1_555
H2 O5 1_555 1_555
O6 Mn1 1_555 1_555
H3 O6 1_555 1_555
H4 O6 1_555 1_555
N1 Mn1 1_555 1_555
N2 Mn1 1_555 1_555
C1 C2 1_555 1_555
C2 C3 1_555 1_555
C3 H5 1_555 1_555
C4 C3 1_555 1_555
H6 C4 1_555 1_555
C5 C4 1_555 1_555
H7 C5 1_555 1_555
C6 C5 1_555 1_555
H8 C6 1_555 1_555
C7 C2 1_555 1_555
C8 C7 1_555 1_555
C9 N1 1_555 1_555
H9 C9 1_555 1_555
C10 C9 1_555 1_555
H10 C10 1_555 1_555
C11 C10 1_555 1_555
H11 C11 1_555 1_555
C12 C11 1_555 1_555
H12 C12 1_555 1_555
C13 N1 1_555 1_555
C14 N2 1_555 1_555
C15 C14 1_555 1_555
H13 C15 1_555 1_555
C16 C15 1_555 1_555
H14 C16 1_555 1_555
C17 C16 1_555 1_555
H15 C17 1_555 1_555
C18 N2 1_555 1_555
H16 C18 1_555 1_555
O4_2 Mn1 1_555 1_555
Mn1_2 O4 1_555 1_555
C6 C7 1_555 1_555
C12 C13 1_555 1_555
C13 C14 1_555 1_555
C17 C18 1_555 1_555

#END
