
#######################################################################
#
#                 Cambridge Crystallographic Data Centre
#                                CCDC 
#
#######################################################################
#
# If this CIF has been generated from an entry in the Cambridge 
# Structural Database, then it will include bibliographic, chemical, 
# crystal, experimental, refinement or atomic coordinate data resulting 
# from the CCDC's data processing and validation procedures.
#
#######################################################################

data_ABIFAT01
_symmetry_cell_setting           triclinic
_symmetry_space_group_name_H-M   'P -1'
_symmetry_Int_Tables_number      2
_space_group_name_Hall           '-P 1'
loop_
_symmetry_equiv_pos_site_id
_symmetry_equiv_pos_as_xyz
1 x,y,z
2 -x,-y,-z
_cell_length_a                   7.1494(13)
_cell_length_b                   10.1706(18)
_cell_length_c                   11.936(2)
_cell_angle_alpha                88.657(4)
_cell_angle_beta                 79.007(5)
_cell_angle_gamma                89.083(6)
_cell_volume                     851.692
loop_
_atom_site_label
_atom_site_type_symbol
_atom_site_fract_x
_atom_site_fract_y
_atom_site_fract_z
Mn1 Mn 0.32289(9) 0.02830(6) 0.73115(5)
O1 O 0.5167(4) 0.1871(2) 0.7158(2)
O2 O 0.5363(4) 0.2263(2) 0.5279(2)
O3 O 0.9116(4) 0.1006(2) 0.6026(2)
O4 O 1.1081(4) 0.1713(2) 0.7133(2)
O5 O 0.1694(4) -0.0929(3) 0.6294(2)
O6 O 0.5847(4) -0.0712(3) 0.6264(2)
N1 N 0.2502(5) 0.0867(3) 0.9193(3)
N2 N 0.3199(4) -0.1553(3) 0.8481(2)
C1 C 0.2099(6) 0.2133(4) 0.9475(3)
H1 H 0.2031 0.2759 0.8904
C2 C 0.1781(6) 0.2517(4) 1.0615(3)
H2 H 0.1496 0.3389 1.0803
C3 C 0.1897(6) 0.1589(4) 1.1446(3)
H3 H 0.1697 0.1829 1.2206
C4 C 0.2304(6) 0.0310(4) 1.1162(3)
H4 H 0.2407 -0.0326 1.1721
C5 C 0.2562(5) -0.0021(4) 1.0013(3)
C6 C 0.2931(5) -0.1406(4) 0.9623(3)
C7 C 0.2947(6) -0.2462(4) 1.0364(4)
H5 H 0.2780 -0.2329 1.1145
C8 C 0.3211(7) -0.3719(4) 0.9945(4)
H6 H 0.3222 -0.4444 1.0434
C9 C 0.3457(6) -0.3869(4) 0.8782(4)
H7 H 0.3611 -0.4702 0.8470
C10 C 0.3472(6) -0.2770(4) 0.8091(3)
H8 H 0.3684 -0.2882 0.7306
C11 C 0.7216(5) 0.3553(3) 0.6276(3)
C12 C 0.9041(5) 0.3280(3) 0.6498(3)
C13 C 1.0229(6) 0.4313(4) 0.6611(3)
H9 H 1.1433 0.4135 0.6769
C14 C 0.9645(7) 0.5616(4) 0.6490(4)
H10 H 1.0454 0.6301 0.6570
C15 C 0.7865(7) 0.5881(4) 0.6253(3)
H11 H 0.7479 0.6747 0.6156
C16 C 0.6638(6) 0.4852(4) 0.6159(3)
H12 H 0.5425 0.5038 0.6017
C17 C 0.5822(5) 0.2467(3) 0.6222(3)
C18 C 0.9804(6) 0.1898(4) 0.6549(3)
H13 H 0.074(3) -0.046(3) 0.617(2)
H14 H 0.234(4) -0.115(3) 0.5647(15)
H15 H 0.573(4) -0.108(3) 0.5649(16)
H16 H 0.683(3) -0.023(3) 0.612(2)
Mn1_2 Mn 1.32289(9) 0.02830(6) 0.73115(5)
O4_2 O 0.1081(4) 0.1713(2) 0.7133(2)
loop_
_geom_bond_atom_site_label_1
_geom_bond_atom_site_label_2
_geom_bond_site_symmetry_1
_geom_bond_site_symmetry_2
Mn1 O1 1_555 1_555
O1 C17 1_555 1_555
O2 C17 1_555 1_555
O3 C18 1_555 1_555
O4 C18 1_555 1_555
O5 Mn1 1_555 1_555
O6 Mn1 1_555 1_555
N1 Mn1 1_555 1_555
N2 Mn1 1_555 1_555
C1 N1 1_555 1_555
H1 C1 1_555 1_555
C2 C1 1_555 1_555
H2 C2 1_555 1_555
C3 C2 1_555 1_555
H3 C3 1_555 1_555
C4 C3 1_555 1_555
H4 C4 1_555 1_555
C5 N1 1_555 1_555
C6 N2 1_555 1_555
C7 C6 1_555 1_555
H5 C7 1_555 1_555
C8 C7 1_555 1_555
H6 C8 1_555 1_555
C9 C8 1_555 1_555
H7 C9 1_555 1_555
C10 N2 1_555 1_555
H8 C10 1_555 1_555
C11 C12 1_555 1_555
C12 C13 1_555 1_555
C13 H9 1_555 1_555
C14 C13 1_555 1_555
H10 C14 1_555 1_555
C15 C14 1_555 1_555
H11 C15 1_555 1_555
C16 C11 1_555 1_555
H12 C16 1_555 1_555
C17 C11 1_555 1_555
C18 C12 1_555 1_555
H13 O5 1_555 1_555
H14 O5 1_555 1_555
H15 O6 1_555 1_555
H16 O6 1_555 1_555
Mn1_2 O4 1_555 1_555
O4_2 Mn1 1_555 1_555
C4 C5 1_555 1_555
C5 C6 1_555 1_555
C9 C10 1_555 1_555
C15 C16 1_555 1_555

#END
