
#######################################################################
#
#                 Cambridge Crystallographic Data Centre
#                                CCDC 
#
#######################################################################
#
# If this CIF has been generated from an entry in the Cambridge 
# Structural Database, then it will include bibliographic, chemical, 
# crystal, experimental, refinement or atomic coordinate data resulting 
# from the CCDC's data processing and validation procedures.
#
#######################################################################

data_ABIGEZ04
_symmetry_cell_setting           monoclinic
_symmetry_space_group_name_H-M   'P 21/c'
_symmetry_Int_Tables_number      14
_space_group_name_Hall           '-P 2ybc'
loop_
_symmetry_equiv_pos_site_id
_symmetry_equiv_pos_as_xyz
1 x,y,z
2 -x,1/2+y,1/2-z
3 -x,-y,-z
4 x,1/2-y,1/2+z
_cell_length_a                   3.6988(3)
_cell_length_b                   14.7379(12)
_cell_length_c                   13.0078(11)
_cell_angle_alpha                90
_cell_angle_beta                 92.2308(13)
_cell_angle_gamma                90
_cell_volume                     708.551
loop_
_atom_site_label
_atom_site_type_symbol
_atom_site_fract_x
_atom_site_fract_y
_atom_site_fract_z
Co1 Co 1.0000 0.5000 0.5000
S1 S 0.54294(12) 0.55761(3) 0.38499(3)
N1 N 0.9380(4) 0.38386(10) 0.41057(11)
C1 C 0.6026(5) 0.47692(13) 0.28843(14)
C2 C 0.4641(5) 0.48864(14) 0.18872(16)
H1 H 0.3478 0.5426 0.1708
C3 C 0.7839(4) 0.39398(12) 0.31311(13)
C4 C 0.6567(5) 0.33945(15) 0.13847(15)
H2 H 0.6706 0.2945 0.0886
C5 C 0.8017(5) 0.32377(13) 0.23923(14)
C6 C 1.0807(5) 0.30429(13) 0.43615(15)
H3 H 1.1797 0.2971 0.5025
C7 C 1.0906(5) 0.23038(13) 0.36873(16)
H4 H 1.1852 0.1750 0.3910
C8 C 0.4966(5) 0.42046(16) 0.11454(15)
H5 H 0.4072 0.4307 0.0477
C9 C 0.9598(5) 0.24068(13) 0.26990(17)
H6 H 0.9749 0.1932 0.2232
Co1_2 Co 0.0000 0.5000 0.5000
Co1_3 Co 2.0000 0.5000 0.5000
S1_2 S 1.54294(12) 0.55761(3) 0.38499(3)
S1B S 0.45706(12) 0.44239(3) 0.61501(3)
S1B_2 S 1.45706(12) 0.44239(3) 0.61501(3)
N1B N 1.0620(4) 0.61614(10) 0.58943(11)
C1B C 1.3974(5) 0.52308(13) 0.71157(14)
C2B C 1.5359(5) 0.51136(14) 0.81128(16)
H1B H 1.6522 0.4574 0.8292
C3B C 1.2161(4) 0.60602(12) 0.68689(13)
C4B C 1.3433(5) 0.66055(15) 0.86153(15)
H2B H 1.3294 0.7055 0.9114
C5B C 1.1983(5) 0.67623(13) 0.76077(14)
C6B C 0.9193(5) 0.69571(13) 0.56385(15)
H3B H 0.8203 0.7029 0.4975
C7B C 0.9094(5) 0.76962(13) 0.63127(16)
H4B H 0.8148 0.8250 0.6090
C8B C 1.5034(5) 0.57954(16) 0.88546(15)
H5B H 1.5928 0.5693 0.9523
C9B C 1.0402(5) 0.75932(13) 0.73010(17)
H6B H 1.0251 0.8068 0.7768
loop_
_geom_bond_atom_site_label_1
_geom_bond_atom_site_label_2
_geom_bond_site_symmetry_1
_geom_bond_site_symmetry_2
Co1 S1 1_555 1_555
S1 C1 1_555 1_555
N1 Co1 1_555 1_555
C1 C2 1_555 1_555
C2 H1 1_555 1_555
C3 N1 1_555 1_555
C4 H2 1_555 1_555
C5 C3 1_555 1_555
C6 N1 1_555 1_555
H3 C6 1_555 1_555
C7 C6 1_555 1_555
H4 C7 1_555 1_555
C8 C2 1_555 1_555
H5 C8 1_555 1_555
C9 C5 1_555 1_555
H6 C9 1_555 1_555
Co1_2 S1 1_555 1_555
Co1_3 S1_2 1_555 1_555
S1_2 Co1 1_555 1_555
S1B Co1 1_555 1_555
S1B_2 Co1 1_555 1_555
N1B Co1 1_555 1_555
C1B S1B_2 1_555 1_555
C2B C1B 1_555 1_555
H1B C2B 1_555 1_555
C3B N1B 1_555 1_555
C4B H2B 1_555 1_555
C5B C3B 1_555 1_555
C6B N1B 1_555 1_555
H3B C6B 1_555 1_555
C7B C6B 1_555 1_555
H4B C7B 1_555 1_555
C8B C2B 1_555 1_555
H5B C8B 1_555 1_555
C9B C5B 1_555 1_555
H6B C9B 1_555 1_555
C1 C3 1_555 1_555
C4 C5 1_555 1_555
C4 C8 1_555 1_555
C7 C9 1_555 1_555
Co1_2 S1B 1_555 1_555
Co1_3 S1B_2 1_555 1_555
C1B C3B 1_555 1_555
C4B C5B 1_555 1_555
C4B C8B 1_555 1_555
C7B C9B 1_555 1_555

#END
