
#######################################################################
#
#                 Cambridge Crystallographic Data Centre
#                                CCDC 
#
#######################################################################
#
# If this CIF has been generated from an entry in the Cambridge 
# Structural Database, then it will include bibliographic, chemical, 
# crystal, experimental, refinement or atomic coordinate data resulting 
# from the CCDC's data processing and validation procedures.
#
#######################################################################

data_ABIGEZ03
_symmetry_cell_setting           monoclinic
_symmetry_space_group_name_H-M   'P 21/c'
_symmetry_Int_Tables_number      14
_space_group_name_Hall           '-P 2ybc'
loop_
_symmetry_equiv_pos_site_id
_symmetry_equiv_pos_as_xyz
1 x,y,z
2 -x,1/2+y,1/2-z
3 -x,-y,-z
4 x,1/2-y,1/2+z
_cell_length_a                   3.6947(3)
_cell_length_b                   14.7215(13)
_cell_length_c                   12.9900(12)
_cell_angle_alpha                90
_cell_angle_beta                 92.2964(14)
_cell_angle_gamma                90
_cell_volume                     705.979
loop_
_atom_site_label
_atom_site_type_symbol
_atom_site_fract_x
_atom_site_fract_y
_atom_site_fract_z
Co1 Co 0.5000 0.5000 0.5000
S1 S 0.04387(12) 0.55782(3) 0.38531(3)
N1 N 0.4389(4) 0.38433(10) 0.41092(11)
C1 C 0.5815(5) 0.30454(13) 0.43661(15)
H1 H 0.6801 0.2973 0.5031
C2 C 0.1027(5) 0.47731(13) 0.28843(14)
C3 C -0.0043(5) 0.42067(16) 0.11427(15)
H2 H -0.0943 0.4308 0.0474
C4 C 0.3022(5) 0.32397(13) 0.23919(14)
C5 C -0.0367(5) 0.48896(14) 0.18857(16)
H3 H -0.1535 0.5430 0.1706
C6 C 0.1565(5) 0.33962(14) 0.13823(15)
H4 H 0.1706 0.2946 0.0883
C7 C 0.4608(5) 0.24066(13) 0.26991(16)
H5 H 0.4761 0.1931 0.2231
C8 C 0.2847(4) 0.39433(12) 0.31313(13)
C9 C 0.5918(5) 0.23041(13) 0.36915(16)
H6 H 0.6865 0.1750 0.3916
Co1_2 Co -0.5000 0.5000 0.5000
Co1_3 Co 1.5000 0.5000 0.5000
S1_2 S 1.04387(12) 0.55782(3) 0.38531(3)
S1B S -0.04387(12) 0.44218(3) 0.61469(3)
S1B_2 S 0.95613(12) 0.44218(3) 0.61469(3)
N1B N 0.5611(4) 0.61567(10) 0.58908(11)
C1B C 0.4185(5) 0.69546(13) 0.56339(15)
H1B H 0.3199 0.7027 0.4969
C2B C 0.8973(5) 0.52269(13) 0.71157(14)
C3B C 1.0043(5) 0.57933(16) 0.88573(15)
H2B H 1.0943 0.5692 0.9526
C4B C 0.6978(5) 0.67603(13) 0.76081(14)
C5B C 1.0367(5) 0.51104(14) 0.81143(16)
H3B H 1.1535 0.4570 0.8294
C6B C 0.8435(5) 0.66038(14) 0.86177(15)
H4B H 0.8294 0.7054 0.9117
C7B C 0.5392(5) 0.75934(13) 0.73009(16)
H5B H 0.5239 0.8069 0.7769
C8B C 0.7153(4) 0.60567(12) 0.68687(13)
C9B C 0.4082(5) 0.76959(13) 0.63085(16)
H6B H 0.3135 0.8250 0.6084
loop_
_geom_bond_atom_site_label_1
_geom_bond_atom_site_label_2
_geom_bond_site_symmetry_1
_geom_bond_site_symmetry_2
Co1 S1 1_555 1_555
S1 C2 1_555 1_555
N1 Co1 1_555 1_555
C1 N1 1_555 1_555
H1 C1 1_555 1_555
C2 C5 1_555 1_555
C3 H2 1_555 1_555
C4 C6 1_555 1_555
C5 C3 1_555 1_555
H3 C5 1_555 1_555
C6 C3 1_555 1_555
H4 C6 1_555 1_555
C7 C4 1_555 1_555
H5 C7 1_555 1_555
C8 N1 1_555 1_555
C9 C1 1_555 1_555
H6 C9 1_555 1_555
Co1_2 S1 1_555 1_555
Co1_3 S1_2 1_555 1_555
S1_2 Co1 1_555 1_555
S1B Co1 1_555 1_555
S1B_2 Co1 1_555 1_555
N1B Co1 1_555 1_555
C1B N1B 1_555 1_555
H1B C1B 1_555 1_555
C2B S1B_2 1_555 1_555
C3B H2B 1_555 1_555
C4B C6B 1_555 1_555
C5B C2B 1_555 1_555
H3B C5B 1_555 1_555
C6B C3B 1_555 1_555
H4B C6B 1_555 1_555
C7B C4B 1_555 1_555
H5B C7B 1_555 1_555
C8B N1B 1_555 1_555
C9B C1B 1_555 1_555
H6B C9B 1_555 1_555
C2 C8 1_555 1_555
C4 C8 1_555 1_555
C7 C9 1_555 1_555
Co1_2 S1B 1_555 1_555
Co1_3 S1B_2 1_555 1_555
C2B C8B 1_555 1_555
C3B C5B 1_555 1_555
C4B C8B 1_555 1_555
C7B C9B 1_555 1_555

#END
