
#######################################################################
#
#                 Cambridge Crystallographic Data Centre
#                                CCDC 
#
#######################################################################
#
# If this CIF has been generated from an entry in the Cambridge 
# Structural Database, then it will include bibliographic, chemical, 
# crystal, experimental, refinement or atomic coordinate data resulting 
# from the CCDC's data processing and validation procedures.
#
#######################################################################

data_ABIGEZ05
_symmetry_cell_setting           monoclinic
_symmetry_space_group_name_H-M   'P 21/c'
_symmetry_Int_Tables_number      14
_space_group_name_Hall           '-P 2ybc'
loop_
_symmetry_equiv_pos_site_id
_symmetry_equiv_pos_as_xyz
1 x,y,z
2 -x,1/2+y,1/2-z
3 -x,-y,-z
4 x,1/2-y,1/2+z
_cell_length_a                   3.7060(4)
_cell_length_b                   14.7577(14)
_cell_length_c                   13.0266(13)
_cell_angle_alpha                90
_cell_angle_beta                 92.2066(15)
_cell_angle_gamma                90
_cell_volume                     711.923
loop_
_atom_site_label
_atom_site_type_symbol
_atom_site_fract_x
_atom_site_fract_y
_atom_site_fract_z
Co1 Co -0.5000 -0.5000 0.0000
S1 S -0.04314(12) -0.55750(3) 0.11521(3)
N1 N -0.4374(4) -0.38368(10) 0.08951(11)
C1 C -0.1032(5) -0.47675(13) 0.21146(14)
C2 C -0.2835(4) -0.39386(12) 0.18691(13)
C3 C -0.1568(5) -0.33947(15) 0.36136(15)
H1 H -0.1712 -0.2946 0.4112
C4 C -0.3011(5) -0.32371(13) 0.26066(14)
C5 C -0.5803(5) -0.30419(12) 0.06412(15)
H2 H -0.6796 -0.2970 -0.0020
C6 C 0.0351(5) -0.48836(14) 0.31114(16)
H3 H 0.1512 -0.5423 0.3291
C7 C -0.5901(5) -0.23035(13) 0.13133(16)
H4 H -0.6844 -0.1750 0.1091
C8 C -0.4593(5) -0.24071(13) 0.23006(17)
H5 H -0.4745 -0.1933 0.2768
C9 C 0.0027(5) -0.42016(17) 0.38514(15)
H6 H 0.0921 -0.4303 0.4518
Co1_2 Co -1.5000 -0.5000 0.0000
Co1_3 Co 0.5000 -0.5000 0.0000
S1_2 S -1.04314(12) -0.55750(3) 0.11521(3)
S1B S -0.95686(12) -0.44250(3) -0.11521(3)
S1B_2 S 0.04314(12) -0.44250(3) -0.11521(3)
N1B N -0.5626(4) -0.61632(10) -0.08951(11)
C1B C -0.8968(5) -0.52325(13) -0.21146(14)
C2B C -0.7165(4) -0.60614(12) -0.18691(13)
C3B C -0.8432(5) -0.66053(15) -0.36136(15)
H1B H -0.8288 -0.7054 -0.4112
C4B C -0.6989(5) -0.67629(13) -0.26066(14)
C5B C -0.4197(5) -0.69581(12) -0.06412(15)
H2B H -0.3204 -0.7030 0.0020
C6B C -1.0351(5) -0.51164(14) -0.31114(16)
H3B H -1.1512 -0.4577 -0.3291
C7B C -0.4099(5) -0.76965(13) -0.13133(16)
H4B H -0.3156 -0.8250 -0.1091
C8B C -0.5407(5) -0.75929(13) -0.23006(17)
H5B H -0.5255 -0.8067 -0.2768
C9B C -1.0027(5) -0.57984(17) -0.38514(15)
H6B H -1.0921 -0.5697 -0.4518
loop_
_geom_bond_atom_site_label_1
_geom_bond_atom_site_label_2
_geom_bond_site_symmetry_1
_geom_bond_site_symmetry_2
Co1 S1 1_555 1_555
S1 C1 1_555 1_555
N1 Co1 1_555 1_555
C1 C2 1_555 1_555
C2 N1 1_555 1_555
C3 H1 1_555 1_555
C4 C2 1_555 1_555
C5 N1 1_555 1_555
H2 C5 1_555 1_555
C6 C1 1_555 1_555
H3 C6 1_555 1_555
C7 C5 1_555 1_555
H4 C7 1_555 1_555
C8 C4 1_555 1_555
H5 C8 1_555 1_555
C9 C3 1_555 1_555
H6 C9 1_555 1_555
Co1_2 S1_2 1_555 1_555
Co1_3 S1 1_555 1_555
S1_2 Co1 1_555 1_555
S1B Co1 1_555 1_555
S1B_2 Co1 1_555 1_555
N1B Co1 1_555 1_555
C1B S1B 1_555 1_555
C2B N1B 1_555 1_555
C3B H1B 1_555 1_555
C4B C2B 1_555 1_555
C5B N1B 1_555 1_555
H2B C5B 1_555 1_555
C6B C1B 1_555 1_555
H3B C6B 1_555 1_555
C7B C5B 1_555 1_555
H4B C7B 1_555 1_555
C8B C4B 1_555 1_555
H5B C8B 1_555 1_555
C9B C3B 1_555 1_555
H6B C9B 1_555 1_555
C3 C4 1_555 1_555
C6 C9 1_555 1_555
C7 C8 1_555 1_555
Co1_2 S1B 1_555 1_555
Co1_3 S1B_2 1_555 1_555
C1B C2B 1_555 1_555
C3B C4B 1_555 1_555
C6B C9B 1_555 1_555
C7B C8B 1_555 1_555

#END
