
#######################################################################
#
#                 Cambridge Crystallographic Data Centre
#                                CCDC 
#
#######################################################################
#
# If this CIF has been generated from an entry in the Cambridge 
# Structural Database, then it will include bibliographic, chemical, 
# crystal, experimental, refinement or atomic coordinate data resulting 
# from the CCDC's data processing and validation procedures.
#
#######################################################################

data_ABIGEZ02
_symmetry_cell_setting           monoclinic
_symmetry_space_group_name_H-M   'P 21/c'
_symmetry_Int_Tables_number      14
_space_group_name_Hall           '-P 2ybc'
loop_
_symmetry_equiv_pos_site_id
_symmetry_equiv_pos_as_xyz
1 x,y,z
2 -x,1/2+y,1/2-z
3 -x,-y,-z
4 x,1/2-y,1/2+z
_cell_length_a                   3.6911(4)
_cell_length_b                   14.6918(14)
_cell_length_c                   12.9593(12)
_cell_angle_alpha                90
_cell_angle_beta                 92.4986(15)
_cell_angle_gamma                90
_cell_volume                     702.1
loop_
_atom_site_label
_atom_site_type_symbol
_atom_site_fract_x
_atom_site_fract_y
_atom_site_fract_z
Co1 Co 0.0000 -0.5000 0.0000
S1 S 0.45122(12) -0.55835(3) 0.11382(4)
N1 N 0.0581(4) -0.38549(10) 0.08841(11)
C1 C 0.5376(5) -0.48982(14) 0.31137(16)
H1 H 0.6557 -0.5438 0.3293
C2 C 0.2130(4) -0.39507(12) 0.18662(13)
C3 C 0.1969(5) -0.32461(13) 0.26050(15)
C4 C 0.3440(5) -0.34015(14) 0.36174(15)
H2 H 0.3303 -0.2950 0.4118
C5 C 0.3956(5) -0.47826(13) 0.21148(14)
C6 C 0.5060(5) -0.42137(16) 0.38582(15)
H3 H 0.5970 -0.4315 0.4529
C7 C -0.0834(5) -0.30527(13) 0.06239(15)
H4 H -0.1815 -0.2980 -0.0044
C8 C -0.0933(5) -0.23108(13) 0.12986(16)
H5 H -0.1880 -0.1756 0.1072
C9 C 0.0379(5) -0.24110(13) 0.22960(17)
H6 H 0.0225 -0.1934 0.2764
Co1_2 Co -1.0000 -0.5000 0.0000
Co1_3 Co 1.0000 -0.5000 0.0000
S1_2 S -0.54878(12) -0.55835(3) 0.11382(4)
S1B S -0.45122(12) -0.44165(3) -0.11382(4)
S1B_2 S 0.54878(12) -0.44165(3) -0.11382(4)
N1B N -0.0581(4) -0.61451(10) -0.08841(11)
C1B C -0.5376(5) -0.51018(14) -0.31137(16)
H1B H -0.6557 -0.4562 -0.3293
C2B C -0.2130(4) -0.60493(12) -0.18662(13)
C3B C -0.1969(5) -0.67539(13) -0.26050(15)
C4B C -0.3440(5) -0.65985(14) -0.36174(15)
H2B H -0.3303 -0.7050 -0.4118
C5B C -0.3956(5) -0.52174(13) -0.21148(14)
C6B C -0.5060(5) -0.57863(16) -0.38582(15)
H3B H -0.5970 -0.5685 -0.4529
C7B C 0.0834(5) -0.69473(13) -0.06239(15)
H4B H 0.1815 -0.7020 0.0044
C8B C 0.0933(5) -0.76892(13) -0.12986(16)
H5B H 0.1880 -0.8244 -0.1072
C9B C -0.0379(5) -0.75890(13) -0.22960(17)
H6B H -0.0225 -0.8066 -0.2764
loop_
_geom_bond_atom_site_label_1
_geom_bond_atom_site_label_2
_geom_bond_site_symmetry_1
_geom_bond_site_symmetry_2
Co1 S1 1_555 1_555
S1 C5 1_555 1_555
N1 Co1 1_555 1_555
C1 H1 1_555 1_555
C2 N1 1_555 1_555
C3 C2 1_555 1_555
C4 C3 1_555 1_555
H2 C4 1_555 1_555
C5 C1 1_555 1_555
C6 C1 1_555 1_555
H3 C6 1_555 1_555
C7 N1 1_555 1_555
H4 C7 1_555 1_555
C8 C7 1_555 1_555
H5 C8 1_555 1_555
C9 C3 1_555 1_555
H6 C9 1_555 1_555
Co1_2 S1_2 1_555 1_555
Co1_3 S1 1_555 1_555
S1_2 Co1 1_555 1_555
S1B Co1 1_555 1_555
S1B_2 Co1 1_555 1_555
N1B Co1 1_555 1_555
C1B H1B 1_555 1_555
C2B N1B 1_555 1_555
C3B C2B 1_555 1_555
C4B C3B 1_555 1_555
H2B C4B 1_555 1_555
C5B S1B 1_555 1_555
C6B C1B 1_555 1_555
H3B C6B 1_555 1_555
C7B N1B 1_555 1_555
H4B C7B 1_555 1_555
C8B C7B 1_555 1_555
H5B C8B 1_555 1_555
C9B C3B 1_555 1_555
H6B C9B 1_555 1_555
C2 C5 1_555 1_555
C4 C6 1_555 1_555
C8 C9 1_555 1_555
Co1_2 S1B 1_555 1_555
Co1_3 S1B_2 1_555 1_555
C1B C5B 1_555 1_555
C2B C5B 1_555 1_555
C4B C6B 1_555 1_555
C8B C9B 1_555 1_555

#END
