
#######################################################################
#
#                 Cambridge Crystallographic Data Centre
#                                CCDC 
#
#######################################################################
#
# If this CIF has been generated from an entry in the Cambridge 
# Structural Database, then it will include bibliographic, chemical, 
# crystal, experimental, refinement or atomic coordinate data resulting 
# from the CCDC's data processing and validation procedures.
#
#######################################################################

data_ABIGEZ06
_symmetry_cell_setting           monoclinic
_symmetry_space_group_name_H-M   'P 21/c'
_symmetry_Int_Tables_number      14
_space_group_name_Hall           '-P 2ybc'
loop_
_symmetry_equiv_pos_site_id
_symmetry_equiv_pos_as_xyz
1 x,y,z
2 -x,1/2+y,1/2-z
3 -x,-y,-z
4 x,1/2-y,1/2+z
_cell_length_a                   3.7109(4)
_cell_length_b                   14.7647(14)
_cell_length_c                   13.0315(13)
_cell_angle_alpha                90
_cell_angle_beta                 92.1943(15)
_cell_angle_gamma                90
_cell_volume                     713.477
loop_
_atom_site_label
_atom_site_type_symbol
_atom_site_fract_x
_atom_site_fract_y
_atom_site_fract_z
Co1 Co 1.0000 0.5000 0.5000
S1 S 0.54385(12) 0.55744(3) 0.38466(3)
N1 N 0.9375(4) 0.38361(10) 0.41047(11)
C1 C 0.8010(5) 0.32367(13) 0.23951(14)
C2 C 0.6034(5) 0.47664(13) 0.28857(14)
C3 C 1.0799(5) 0.30409(13) 0.43570(15)
H1 H 1.1794 0.2969 0.5018
C4 C 0.7836(4) 0.39385(12) 0.31315(13)
C5 C 0.6565(5) 0.33940(15) 0.13887(15)
H2 H 0.6704 0.2945 0.0891
C6 C 0.9585(5) 0.24076(13) 0.26996(17)
H3 H 0.9734 0.1934 0.2232
C7 C 0.4658(6) 0.48807(15) 0.18907(16)
H4 H 0.3501 0.5420 0.1711
C8 C 0.4974(5) 0.42018(18) 0.11506(14)
H5 H 0.4081 0.4304 0.0484
C9 C 1.0892(5) 0.23034(13) 0.36860(16)
H6 H 1.1829 0.1750 0.3908
Co1_2 Co 0.0000 0.5000 0.5000
Co1_3 Co 2.0000 0.5000 0.5000
S1_2 S 1.54385(12) 0.55744(3) 0.38466(3)
S1B S 0.45615(12) 0.44256(3) 0.61534(3)
S1B_2 S 1.45615(12) 0.44256(3) 0.61534(3)
N1B N 1.0625(4) 0.61639(10) 0.58953(11)
C1B C 1.1990(5) 0.67633(13) 0.76049(14)
C2B C 1.3966(5) 0.52336(13) 0.71143(14)
C3B C 0.9201(5) 0.69591(13) 0.56430(15)
H1B H 0.8206 0.7031 0.4982
C4B C 1.2164(4) 0.60615(12) 0.68685(13)
C5B C 1.3435(5) 0.66060(15) 0.86113(15)
H2B H 1.3296 0.7055 0.9109
C6B C 1.0415(5) 0.75924(13) 0.73004(17)
H3B H 1.0266 0.8066 0.7768
C7B C 1.5342(6) 0.51193(15) 0.81093(16)
H4B H 1.6499 0.4580 0.8289
C8B C 1.5026(5) 0.57982(18) 0.88494(14)
H5B H 1.5919 0.5696 0.9516
C9B C 0.9108(5) 0.76966(13) 0.63140(16)
H6B H 0.8171 0.8250 0.6092
loop_
_geom_bond_atom_site_label_1
_geom_bond_atom_site_label_2
_geom_bond_site_symmetry_1
_geom_bond_site_symmetry_2
Co1 S1 1_555 1_555
S1 C2 1_555 1_555
N1 Co1 1_555 1_555
C1 C4 1_555 1_555
C2 C4 1_555 1_555
C3 N1 1_555 1_555
H1 C3 1_555 1_555
C4 N1 1_555 1_555
C5 C1 1_555 1_555
H2 C5 1_555 1_555
C6 C1 1_555 1_555
H3 C6 1_555 1_555
C7 C2 1_555 1_555
H4 C7 1_555 1_555
C8 C5 1_555 1_555
H5 C8 1_555 1_555
C9 C3 1_555 1_555
H6 C9 1_555 1_555
Co1_2 S1 1_555 1_555
Co1_3 S1_2 1_555 1_555
S1_2 Co1 1_555 1_555
S1B Co1 1_555 1_555
S1B_2 Co1 1_555 1_555
N1B Co1 1_555 1_555
C1B C4B 1_555 1_555
C2B S1B_2 1_555 1_555
C3B N1B 1_555 1_555
H1B C3B 1_555 1_555
C4B N1B 1_555 1_555
C5B C1B 1_555 1_555
H2B C5B 1_555 1_555
C6B C1B 1_555 1_555
H3B C6B 1_555 1_555
C7B C2B 1_555 1_555
H4B C7B 1_555 1_555
C8B C5B 1_555 1_555
H5B C8B 1_555 1_555
C9B C3B 1_555 1_555
H6B C9B 1_555 1_555
C6 C9 1_555 1_555
C7 C8 1_555 1_555
Co1_2 S1B 1_555 1_555
Co1_3 S1B_2 1_555 1_555
C2B C4B 1_555 1_555
C6B C9B 1_555 1_555
C7B C8B 1_555 1_555

#END
