
#######################################################################
#
#                 Cambridge Crystallographic Data Centre
#                                CCDC 
#
#######################################################################
#
# If this CIF has been generated from an entry in the Cambridge 
# Structural Database, then it will include bibliographic, chemical, 
# crystal, experimental, refinement or atomic coordinate data resulting 
# from the CCDC's data processing and validation procedures.
#
#######################################################################

data_ABIGEZ
_symmetry_cell_setting           monoclinic
_symmetry_space_group_name_H-M   'P 21/c'
_symmetry_Int_Tables_number      14
_space_group_name_Hall           '-P 2ybc'
loop_
_symmetry_equiv_pos_site_id
_symmetry_equiv_pos_as_xyz
1 x,y,z
2 -x,1/2+y,1/2-z
3 -x,-y,-z
4 x,1/2-y,1/2+z
_cell_length_a                   3.6858(4)
_cell_length_b                   14.6127(15)
_cell_length_c                   12.8816(13)
_cell_angle_alpha                90
_cell_angle_beta                 93.1048(16)
_cell_angle_gamma                90
_cell_volume                     692.778
loop_
_atom_site_label
_atom_site_type_symbol
_atom_site_fract_x
_atom_site_fract_y
_atom_site_fract_z
Co1 Co 0.0000 -0.5000 0.0000
S1 S 0.43622(11) -0.55989(3) 0.11142(3)
N1 N 0.0489(4) -0.38876(10) 0.08634(11)
C1 C 0.3899(5) -0.48091(13) 0.21095(14)
C2 C 0.1939(5) -0.32631(13) 0.25964(14)
C3 C 0.2069(4) -0.39766(12) 0.18582(13)
C4 C 0.3463(5) -0.34159(14) 0.36164(14)
H1 H 0.3339 -0.2961 0.4119
C5 C 0.5396(5) -0.49235(13) 0.31146(16)
H2 H 0.6599 -0.5465 0.3294
C6 C 0.0346(5) -0.24231(13) 0.22821(16)
H3 H 0.0194 -0.1943 0.2751
C7 C -0.0895(5) -0.30756(12) 0.05947(14)
H4 H -0.1865 -0.3001 -0.0082
C8 C 0.5113(5) -0.42314(15) 0.38612(14)
H5 H 0.6066 -0.4329 0.4535
C9 C -0.0975(5) -0.23273(13) 0.12714(15)
H6 H -0.1917 -0.1769 0.1038
Co1_2 Co -1.0000 -0.5000 0.0000
Co1_3 Co 1.0000 -0.5000 0.0000
S1_2 S -0.56378(11) -0.55989(3) 0.11142(3)
S1B S -0.43622(11) -0.44011(3) -0.11142(3)
S1B_2 S 0.56378(11) -0.44011(3) -0.11142(3)
N1B N -0.0489(4) -0.61124(10) -0.08634(11)
C1B C -0.3899(5) -0.51909(13) -0.21095(14)
C2B C -0.1939(5) -0.67369(13) -0.25964(14)
C3B C -0.2069(4) -0.60234(12) -0.18582(13)
C4B C -0.3463(5) -0.65841(14) -0.36164(14)
H1B H -0.3339 -0.7039 -0.4119
C5B C -0.5396(5) -0.50765(13) -0.31146(16)
H2B H -0.6599 -0.4535 -0.3294
C6B C -0.0346(5) -0.75769(13) -0.22821(16)
H3B H -0.0194 -0.8057 -0.2751
C7B C 0.0895(5) -0.69244(12) -0.05947(14)
H4B H 0.1865 -0.6999 0.0082
C8B C -0.5113(5) -0.57686(15) -0.38612(14)
H5B H -0.6066 -0.5671 -0.4535
C9B C 0.0975(5) -0.76727(13) -0.12714(15)
H6B H 0.1917 -0.8231 -0.1038
loop_
_geom_bond_atom_site_label_1
_geom_bond_atom_site_label_2
_geom_bond_site_symmetry_1
_geom_bond_site_symmetry_2
Co1 S1 1_555 1_555
S1 C1 1_555 1_555
N1 Co1 1_555 1_555
C1 C3 1_555 1_555
C2 C3 1_555 1_555
C3 N1 1_555 1_555
C4 C2 1_555 1_555
H1 C4 1_555 1_555
C5 C1 1_555 1_555
H2 C5 1_555 1_555
C6 C2 1_555 1_555
H3 C6 1_555 1_555
C7 N1 1_555 1_555
H4 C7 1_555 1_555
C8 C4 1_555 1_555
H5 C8 1_555 1_555
C9 C6 1_555 1_555
H6 C9 1_555 1_555
Co1_2 S1_2 1_555 1_555
Co1_3 S1 1_555 1_555
S1_2 Co1 1_555 1_555
S1B Co1 1_555 1_555
S1B_2 Co1 1_555 1_555
N1B Co1 1_555 1_555
C1B S1B 1_555 1_555
C2B C3B 1_555 1_555
C3B N1B 1_555 1_555
C4B C2B 1_555 1_555
H1B C4B 1_555 1_555
C5B C1B 1_555 1_555
H2B C5B 1_555 1_555
C6B C2B 1_555 1_555
H3B C6B 1_555 1_555
C7B N1B 1_555 1_555
H4B C7B 1_555 1_555
C8B C4B 1_555 1_555
H5B C8B 1_555 1_555
C9B C6B 1_555 1_555
H6B C9B 1_555 1_555
C5 C8 1_555 1_555
C7 C9 1_555 1_555
Co1_2 S1B 1_555 1_555
Co1_3 S1B_2 1_555 1_555
C1B C3B 1_555 1_555
C5B C8B 1_555 1_555
C7B C9B 1_555 1_555

#END
