
#######################################################################
#
#                 Cambridge Crystallographic Data Centre
#                                CCDC 
#
#######################################################################
#
# If this CIF has been generated from an entry in the Cambridge 
# Structural Database, then it will include bibliographic, chemical, 
# crystal, experimental, refinement or atomic coordinate data resulting 
# from the CCDC's data processing and validation procedures.
#
#######################################################################

data_ABIJUS
_symmetry_cell_setting           triclinic
_symmetry_space_group_name_H-M   'P -1'
_symmetry_Int_Tables_number      2
_space_group_name_Hall           '-P 1'
loop_
_symmetry_equiv_pos_site_id
_symmetry_equiv_pos_as_xyz
1 x,y,z
2 -x,-y,-z
_cell_length_a                   10.7696(6)
_cell_length_b                   13.8437(7)
_cell_length_c                   24.4199(14)
_cell_angle_alpha                89.154(3)
_cell_angle_beta                 89.071(3)
_cell_angle_gamma                84.376(3)
_cell_volume                     3622.47
loop_
_atom_site_label
_atom_site_type_symbol
_atom_site_fract_x
_atom_site_fract_y
_atom_site_fract_z
Mo1 Mo 0.45431(4) 0.96317(2) 0.254636(16)
C1 C 0.2659(5) 1.0161(3) 0.23126(19)
N1 N 0.1644(4) 1.0420(3) 0.22027(16)
C2 C 0.3387(4) 0.9446(3) 0.3262(2)
N2 N 0.2769(4) 0.9361(3) 0.36419(18)
C3 C 0.3553(5) 0.8412(3) 0.2323(2)
N3 N 0.3022(4) 0.7765(3) 0.2221(2)
C4 C 0.5782(5) 0.8314(4) 0.2580(3)
N4 N 0.6447(5) 0.7625(4) 0.2601(4)
C5 C 0.5585(5) 0.9780(4) 0.3280(2)
N5 N 0.6145(5) 0.9866(4) 0.3674(2)
C6 C 0.4593(4) 0.9798(3) 0.1670(2)
N6 N 0.4563(4) 0.9930(3) 0.12038(19)
C7 C 0.4358(4) 1.1191(3) 0.26335(19)
N7 N 0.4273(4) 1.2014(3) 0.26728(18)
C8 C 0.6368(5) 1.0061(3) 0.23211(19)
N8 N 0.7351(4) 1.0285(3) 0.22257(18)
Mn1 Mn -0.05075(7) 1.04425(5) 0.21528(3)
O1 O -0.0675(3) 1.1810(2) 0.21466(13)
O2 O -0.0567(3) 1.0370(2) 0.13946(13)
N9 N -0.0473(4) 1.0393(3) 0.29646(17)
N10 N -0.0264(4) 0.9005(3) 0.22411(16)
C9 C -0.0251(4) 1.2353(3) 0.2527(2)
C10 C -0.0113(5) 1.3341(3) 0.2388(2)
H1 H -0.0291 1.3569 0.2026
C11 C 0.0272(5) 1.3968(3) 0.2765(2)
H2 H 0.0369 1.4622 0.2664
C12 C 0.0518(5) 1.3640(4) 0.3298(2)
C13 C 0.0397(5) 1.2698(3) 0.3449(2)
H3 H 0.0569 1.2487 0.3815
C14 C 0.0021(4) 1.2046(3) 0.3069(2)
C15 C -0.0170(5) 1.1074(3) 0.3265(2)
H4 H -0.0061 1.0937 0.3645
C16 C -0.0709(5) 0.9413(3) 0.3179(2)
H5 H -0.1609 0.9332 0.3118
C17 C -0.0463(5) 0.9228(4) 0.3776(2)
H6 H -0.1042 0.9669 0.3998
H7 H 0.0401 0.9361 0.3858
C18 C -0.0642(6) 0.8172(4) 0.3926(2)
H8 H -0.0407 0.8044 0.4312
H9 H -0.1533 0.8068 0.3891
C19 C 0.0128(6) 0.7473(4) 0.3566(2)
H10 H -0.0040 0.6803 0.3667
H11 H 0.1023 0.7532 0.3629
C20 C -0.0150(6) 0.7655(3) 0.2962(2)
H12 H -0.1024 0.7537 0.2890
H13 H 0.0407 0.7203 0.2737
C21 C 0.0055(6) 0.8701(3) 0.2811(2)
H14 H 0.0956 0.8784 0.2865
C22 C -0.0375(5) 0.8395(3) 0.1856(2)
H15 H -0.0287 0.7725 0.1953
C23 C -0.0617(4) 0.8635(3) 0.1296(2)
C24 C -0.0712(4) 0.7862(3) 0.0932(2)
H16 H -0.0656 0.7212 0.1066
C25 C -0.0883(5) 0.8054(3) 0.0390(2)
C26 C -0.1017(5) 0.9001(3) 0.0188(2)
H17 H -0.1166 0.9121 -0.0190
C27 C -0.0935(5) 0.9761(3) 0.0534(2)
H18 H -0.1037 1.0406 0.0392
C28 C -0.0704(4) 0.9607(3) 0.1093(2)
Br1 Br 0.09938(6) 1.45340(4) 0.38204(2)
Br2 Br -0.09750(5) 0.70239(3) -0.01083(2)
N8_2 N -0.2649(4) 1.0285(3) 0.22257(18)
Mn1_2 Mn 0.94925(7) 1.04425(5) 0.21528(3)
Fe1 Fe 0.5000 0.5000 0.5000
N11 N 0.4683(4) 0.5432(3) 0.41533(17)
N12 N 0.4482(4) 0.4699(3) 0.38030(17)
N13 N 0.6316(4) 0.3873(3) 0.46468(16)
N14 N 0.5978(4) 0.3482(3) 0.41709(17)
N15 N 0.3604(4) 0.4012(3) 0.48463(18)
N16 N 0.3817(4) 0.3446(3) 0.43909(17)
C29 C 0.4540(6) 0.7214(3) 0.4105(2)
H19 H 0.4761 0.7131 0.4492
H20 H 0.3743 0.7618 0.4075
H21 H 0.5192 0.7531 0.3907
C30 C 0.4424(5) 0.6252(3) 0.3863(2)
C31 C 0.4067(6) 0.6044(4) 0.3335(2)
H22 H 0.3834 0.6503 0.3053
C32 C 0.4115(5) 0.5051(3) 0.3300(2)
C33 C 0.3845(6) 0.4423(4) 0.2839(2)
H23 H 0.4605 0.4016 0.2734
H24 H 0.3553 0.4829 0.2526
H25 H 0.3197 0.4008 0.2952
C34 C 0.8207(6) 0.3729(4) 0.5215(2)
H26 H 0.7739 0.4255 0.5418
H27 H 0.9005 0.3940 0.5088
H28 H 0.8360 0.3158 0.5456
C35 C 0.7467(5) 0.3476(3) 0.4733(2)
C36 C 0.7850(5) 0.2826(3) 0.4322(2)
H29 H 0.8632 0.2446 0.4296
C37 C 0.6890(5) 0.2837(3) 0.3961(2)
C38 C 0.6758(5) 0.2312(4) 0.3441(3)
H30 H 0.5874 0.2241 0.3381
H31 H 0.7224 0.1669 0.3465
H32 H 0.7089 0.2681 0.3136
C39 C 0.2278(6) 0.3979(4) 0.5680(2)
H33 H 0.2687 0.4561 0.5763
H34 H 0.2447 0.3494 0.5973
H35 H 0.1376 0.4149 0.5655
C40 C 0.2777(5) 0.3569(3) 0.5145(2)
C41 C 0.2487(5) 0.2727(4) 0.4892(2)
H36 H 0.1922 0.2291 0.5026
C42 C 0.3166(5) 0.2647(3) 0.4419(2)
C43 C 0.3271(5) 0.1899(4) 0.3984(2)
H37 H 0.2639 0.1445 0.4048
H38 H 0.4104 0.1544 0.3991
H39 H 0.3140 0.2216 0.3625
C44 C 0.4712(4) 0.3695(3) 0.3980(2)
H40 H 0.4615 0.3281 0.3654
N11A N 0.5317(4) 0.4568(3) 0.58467(17)
N12A N 0.5518(4) 0.5301(3) 0.61970(17)
N13A N 0.3684(4) 0.6127(3) 0.53532(16)
N14A N 0.4022(4) 0.6518(3) 0.58291(17)
N15A N 0.6396(4) 0.5988(3) 0.51537(18)
N16A N 0.6183(4) 0.6554(3) 0.56091(17)
C29A C 0.5460(6) 0.2786(3) 0.5895(2)
H19A H 0.5239 0.2869 0.5508
H20A H 0.6257 0.2382 0.5925
H21A H 0.4808 0.2469 0.6093
C30A C 0.5576(5) 0.3748(3) 0.6137(2)
C31A C 0.5933(6) 0.3956(4) 0.6665(2)
H22A H 0.6166 0.3497 0.6947
C32A C 0.5885(5) 0.4949(3) 0.6700(2)
C33A C 0.6155(6) 0.5577(4) 0.7161(2)
H23A H 0.5395 0.5984 0.7266
H24A H 0.6447 0.5171 0.7474
H25A H 0.6803 0.5992 0.7048
C34A C 0.1793(6) 0.6271(4) 0.4785(2)
H26A H 0.2261 0.5745 0.4582
H27A H 0.0995 0.6060 0.4912
H28A H 0.1640 0.6842 0.4544
C35A C 0.2533(5) 0.6524(3) 0.5267(2)
C36A C 0.2150(5) 0.7174(3) 0.5678(2)
H29A H 0.1368 0.7554 0.5704
C37A C 0.3110(5) 0.7163(3) 0.6039(2)
C38A C 0.3242(5) 0.7688(4) 0.6559(3)
H30A H 0.4126 0.7759 0.6619
H31A H 0.2776 0.8331 0.6535
H32A H 0.2911 0.7319 0.6864
C39A C 0.7722(6) 0.6021(4) 0.4320(2)
H33A H 0.7313 0.5439 0.4237
H34A H 0.7553 0.6506 0.4027
H35A H 0.8624 0.5851 0.4345
C40A C 0.7223(5) 0.6431(3) 0.4855(2)
C41A C 0.7513(5) 0.7273(4) 0.5108(2)
H36A H 0.8078 0.7709 0.4974
C42A C 0.6834(5) 0.7353(3) 0.5581(2)
C43A C 0.6729(5) 0.8101(4) 0.6016(2)
H37A H 0.7361 0.8555 0.5952
H38A H 0.5896 0.8456 0.6009
H39A H 0.6860 0.7784 0.6375
C44A C 0.5288(4) 0.6305(3) 0.6020(2)
H40A H 0.5385 0.6719 0.6346
Fe2 Fe 0.5000 0.5000 0.0000
N17 N 0.3602(4) 0.4554(3) 0.05752(19)
N18 N 0.3740(4) 0.3603(2) 0.07538(17)
N19 N 0.6307(4) 0.4066(3) 0.04937(19)
N20 N 0.5925(4) 0.3164(3) 0.06264(18)
N21 N 0.4680(4) 0.3690(3) -0.04197(19)
N22 N 0.4525(4) 0.2894(2) -0.00900(17)
C45 C 0.2187(6) 0.6000(4) 0.0806(3)
H41 H 0.2410 0.6349 0.1131
H42 H 0.1278 0.6072 0.0767
H43 H 0.2578 0.6270 0.0481
C46 C 0.2634(5) 0.4952(3) 0.0867(3)
C47 C 0.2171(5) 0.4263(4) 0.1225(2)
H44 H 0.1489 0.4372 0.1476
C48 C 0.2893(5) 0.3405(3) 0.1142(2)
C49 C 0.2806(5) 0.2420(3) 0.1395(2)
H45 H 0.2677 0.1955 0.1107
H46 H 0.2102 0.2449 0.1656
H47 H 0.3580 0.2212 0.1587
C50 C 0.8220(6) 0.4881(4) 0.0615(3)
H48 H 0.8862 0.4743 0.0330
H49 H 0.8618 0.5001 0.0962
H50 H 0.7669 0.5456 0.0508
C51 C 0.7471(5) 0.4030(4) 0.0682(3)
C52 C 0.7825(5) 0.3120(4) 0.0923(3)
H51 H 0.8610 0.2916 0.1080
C53 C 0.6830(5) 0.2583(3) 0.0891(2)
C54 C 0.6649(5) 0.1578(4) 0.1072(3)
H52 H 0.5977 0.1594 0.1348
H53 H 0.7424 0.1273 0.1231
H54 H 0.6427 0.1203 0.0757
C55 C 0.4549(6) 0.4060(4) -0.1414(2)
H55 H 0.4832 0.4675 -0.1296
H56 H 0.5150 0.3752 -0.1679
H57 H 0.3731 0.4184 -0.1584
C56 C 0.4451(5) 0.3397(3) -0.0925(2)
C57 C 0.4145(5) 0.2440(3) -0.0914(2)
H58 H 0.3939 0.2075 -0.1220
C58 C 0.4199(5) 0.2128(3) -0.0382(2)
C59 C 0.4006(5) 0.1185(3) -0.0113(2)
H59 H 0.3325 0.1280 0.0157
H60 H 0.3791 0.0726 -0.0390
H61 H 0.4774 0.0927 0.0069
C60 C 0.4696(4) 0.2940(3) 0.0494(2)
H62 H 0.4599 0.2278 0.0647
N17A N 0.6398(4) 0.5446(3) -0.05752(19)
N18A N 0.6260(4) 0.6397(2) -0.07538(17)
N19A N 0.3693(4) 0.5934(3) -0.04937(19)
N20A N 0.4075(4) 0.6836(3) -0.06264(18)
N21A N 0.5320(4) 0.6310(3) 0.04197(19)
N22A N 0.5475(4) 0.7106(2) 0.00900(17)
C45A C 0.7813(6) 0.4000(4) -0.0806(3)
H41A H 0.7590 0.3651 -0.1131
H42A H 0.8722 0.3928 -0.0767
H43A H 0.7422 0.3730 -0.0481
C46A C 0.7366(5) 0.5048(3) -0.0867(3)
C47A C 0.7829(5) 0.5737(4) -0.1225(2)
H44A H 0.8511 0.5628 -0.1476
C48A C 0.7107(5) 0.6595(3) -0.1142(2)
C49A C 0.7194(5) 0.7580(3) -0.1395(2)
H45A H 0.7323 0.8045 -0.1107
H46A H 0.7898 0.7551 -0.1656
H47A H 0.6420 0.7788 -0.1587
C50A C 0.1780(6) 0.5119(4) -0.0615(3)
H48A H 0.1138 0.5257 -0.0330
H49A H 0.1382 0.4999 -0.0962
H50A H 0.2331 0.4544 -0.0508
C51A C 0.2529(5) 0.5970(4) -0.0682(3)
C52A C 0.2175(5) 0.6880(4) -0.0923(3)
H51A H 0.1390 0.7084 -0.1080
C53A C 0.3170(5) 0.7417(3) -0.0891(2)
C54A C 0.3351(5) 0.8422(4) -0.1072(3)
H52A H 0.4023 0.8406 -0.1348
H53A H 0.2576 0.8727 -0.1231
H54A H 0.3573 0.8797 -0.0757
C55A C 0.5451(6) 0.5940(4) 0.1414(2)
H55A H 0.5168 0.5325 0.1296
H56A H 0.4850 0.6248 0.1679
H57A H 0.6269 0.5816 0.1584
C56A C 0.5549(5) 0.6603(3) 0.0925(2)
C57A C 0.5855(5) 0.7560(3) 0.0914(2)
H58A H 0.6061 0.7925 0.1220
C58A C 0.5801(5) 0.7872(3) 0.0382(2)
C59A C 0.5994(5) 0.8815(3) 0.0113(2)
H59A H 0.6675 0.8720 -0.0157
H60A H 0.6209 0.9274 0.0390
H61A H 0.5226 0.9073 -0.0069
C60A C 0.5304(4) 0.7060(3) -0.0494(2)
H62A H 0.5401 0.7722 -0.0647
O3 O 0.0194(4) 0.1160(3) 0.46702(15)
O4 O 0.1895(8) 0.6014(5) 0.2197(4)
O5 O 0.9590(7) 0.5790(4) 0.1783(3)
O6 O 0.1933(4) 0.9476(3) 0.47453(16)
O7 O 0.7862(6) 0.5803(4) 0.2596(3)
H63 H 0.7994 0.6202 0.2839
C61 C 0.7247(9) 0.5067(6) 0.2824(5)
H64 H 0.7740 0.4760 0.3125
H65 H 0.7134 0.4583 0.2545
H66 H 0.6430 0.5334 0.2965
O8 O 0.2986(4) 0.9267(3) 0.03711(16)
H67 H 0.3476 0.9503 0.0585
C62 C 0.2448(6) 0.8519(4) 0.0632(3)
H68 H 0.3099 0.8003 0.0730
H69 H 0.1854 0.8260 0.0386
H70 H 0.2009 0.8762 0.0964
O9 O 0.3964(10) 1.0022(6) 0.5167(3)
O10? O 0.3995(10) 0.8914(6) 0.5314(3)
loop_
_geom_bond_atom_site_label_1
_geom_bond_atom_site_label_2
_geom_bond_site_symmetry_1
_geom_bond_site_symmetry_2
Mo1 C1 1_555 1_555
C1 N1 1_555 1_555
N1 Mn1 1_555 1_555
C2 Mo1 1_555 1_555
N2 C2 1_555 1_555
C3 Mo1 1_555 1_555
N3 C3 1_555 1_555
C4 Mo1 1_555 1_555
N4 C4 1_555 1_555
C5 Mo1 1_555 1_555
N5 C5 1_555 1_555
C6 Mo1 1_555 1_555
N6 C6 1_555 1_555
C7 Mo1 1_555 1_555
N7 C7 1_555 1_555
C8 Mo1 1_555 1_555
N8 C8 1_555 1_555
Mn1 O1 1_555 1_555
O1 C9 1_555 1_555
O2 Mn1 1_555 1_555
N9 Mn1 1_555 1_555
N10 Mn1 1_555 1_555
C9 C10 1_555 1_555
C10 H1 1_555 1_555
C11 C10 1_555 1_555
H2 C11 1_555 1_555
C12 C11 1_555 1_555
C13 C12 1_555 1_555
H3 C13 1_555 1_555
C14 C9 1_555 1_555
C15 N9 1_555 1_555
H4 C15 1_555 1_555
C16 N9 1_555 1_555
H5 C16 1_555 1_555
C17 C16 1_555 1_555
H6 C17 1_555 1_555
H7 C17 1_555 1_555
C18 C17 1_555 1_555
H8 C18 1_555 1_555
H9 C18 1_555 1_555
C19 C18 1_555 1_555
H10 C19 1_555 1_555
H11 C19 1_555 1_555
C20 C19 1_555 1_555
H12 C20 1_555 1_555
H13 C20 1_555 1_555
C21 N10 1_555 1_555
H14 C21 1_555 1_555
C22 N10 1_555 1_555
H15 C22 1_555 1_555
C23 C22 1_555 1_555
C24 C23 1_555 1_555
H16 C24 1_555 1_555
C25 C24 1_555 1_555
C26 C25 1_555 1_555
H17 C26 1_555 1_555
C27 C26 1_555 1_555
H18 C27 1_555 1_555
C28 O2 1_555 1_555
Br1 C12 1_555 1_555
Br2 C25 1_555 1_555
Fe1 N11 1_555 1_555
N11 N12 1_555 1_555
N12 C32 1_555 1_555
N13 Fe1 1_555 1_555
N14 N13 1_555 1_555
N15 Fe1 1_555 1_555
N16 N15 1_555 1_555
C29 H19 1_555 1_555
H20 C29 1_555 1_555
H21 C29 1_555 1_555
C30 N11 1_555 1_555
C31 C30 1_555 1_555
H22 C31 1_555 1_555
C32 C31 1_555 1_555
C33 C32 1_555 1_555
H23 C33 1_555 1_555
H24 C33 1_555 1_555
H25 C33 1_555 1_555
C34 H26 1_555 1_555
H27 C34 1_555 1_555
H28 C34 1_555 1_555
C35 N13 1_555 1_555
C36 C35 1_555 1_555
H29 C36 1_555 1_555
C37 N14 1_555 1_555
C38 C37 1_555 1_555
H30 C38 1_555 1_555
H31 C38 1_555 1_555
H32 C38 1_555 1_555
C39 H33 1_555 1_555
H34 C39 1_555 1_555
H35 C39 1_555 1_555
C40 N15 1_555 1_555
C41 C40 1_555 1_555
H36 C41 1_555 1_555
C42 N16 1_555 1_555
C43 C42 1_555 1_555
H37 C43 1_555 1_555
H38 C43 1_555 1_555
H39 C43 1_555 1_555
C44 N12 1_555 1_555
H40 C44 1_555 1_555
Fe2 N17 1_555 1_555
N17 N18 1_555 1_555
N18 C48 1_555 1_555
N19 Fe2 1_555 1_555
N20 N19 1_555 1_555
N21 Fe2 1_555 1_555
N22 N21 1_555 1_555
C45 H41 1_555 1_555
H42 C45 1_555 1_555
H43 C45 1_555 1_555
C46 N17 1_555 1_555
C47 C46 1_555 1_555
H44 C47 1_555 1_555
C48 C47 1_555 1_555
C49 C48 1_555 1_555
H45 C49 1_555 1_555
H46 C49 1_555 1_555
H47 C49 1_555 1_555
C50 H48 1_555 1_555
H49 C50 1_555 1_555
H50 C50 1_555 1_555
C51 N19 1_555 1_555
C52 C51 1_555 1_555
H51 C52 1_555 1_555
C53 N20 1_555 1_555
C54 C53 1_555 1_555
H52 C54 1_555 1_555
H53 C54 1_555 1_555
H54 C54 1_555 1_555
C55 H55 1_555 1_555
H56 C55 1_555 1_555
H57 C55 1_555 1_555
C56 N21 1_555 1_555
C57 C56 1_555 1_555
H58 C57 1_555 1_555
C58 N22 1_555 1_555
C59 C58 1_555 1_555
H59 C59 1_555 1_555
H60 C59 1_555 1_555
H61 C59 1_555 1_555
C60 N18 1_555 1_555
H62 C60 1_555 1_555
O7 H63 1_555 1_555
C61 O7 1_555 1_555
H64 C61 1_555 1_555
H65 C61 1_555 1_555
H66 C61 1_555 1_555
O8 H67 1_555 1_555
C62 O8 1_555 1_555
H68 C62 1_555 1_555
H69 C62 1_555 1_555
H70 C62 1_555 1_555
N8_2 Mn1 1_555 1_555
Mn1_2 N8 1_555 1_555
N11A Fe1 1_555 1_555
N12A N11A 1_555 1_555
N13A Fe1 1_555 1_555
N14A N13A 1_555 1_555
N15A Fe1 1_555 1_555
N16A N15A 1_555 1_555
C29A H19A 1_555 1_555
H20A C29A 1_555 1_555
H21A C29A 1_555 1_555
C30A N11A 1_555 1_555
C31A C30A 1_555 1_555
H22A C31A 1_555 1_555
C32A N12A 1_555 1_555
C33A C32A 1_555 1_555
H23A C33A 1_555 1_555
H24A C33A 1_555 1_555
H25A C33A 1_555 1_555
C34A H26A 1_555 1_555
H27A C34A 1_555 1_555
H28A C34A 1_555 1_555
C35A N13A 1_555 1_555
C36A C35A 1_555 1_555
H29A C36A 1_555 1_555
C37A N14A 1_555 1_555
C38A C37A 1_555 1_555
H30A C38A 1_555 1_555
H31A C38A 1_555 1_555
H32A C38A 1_555 1_555
C39A H33A 1_555 1_555
H34A C39A 1_555 1_555
H35A C39A 1_555 1_555
C40A N15A 1_555 1_555
C41A C40A 1_555 1_555
H36A C41A 1_555 1_555
C42A N16A 1_555 1_555
C43A C42A 1_555 1_555
H37A C43A 1_555 1_555
H38A C43A 1_555 1_555
H39A C43A 1_555 1_555
C44A N12A 1_555 1_555
H40A C44A 1_555 1_555
N17A Fe2 1_555 1_555
N18A N17A 1_555 1_555
N19A Fe2 1_555 1_555
N20A N19A 1_555 1_555
N21A Fe2 1_555 1_555
N22A N21A 1_555 1_555
C45A H41A 1_555 1_555
H42A C45A 1_555 1_555
H43A C45A 1_555 1_555
C46A N17A 1_555 1_555
C47A C46A 1_555 1_555
H44A C47A 1_555 1_555
C48A N18A 1_555 1_555
C49A C48A 1_555 1_555
H45A C49A 1_555 1_555
H46A C49A 1_555 1_555
H47A C49A 1_555 1_555
C50A H48A 1_555 1_555
H49A C50A 1_555 1_555
H50A C50A 1_555 1_555
C51A N19A 1_555 1_555
C52A C51A 1_555 1_555
H51A C52A 1_555 1_555
C53A N20A 1_555 1_555
C54A C53A 1_555 1_555
H52A C54A 1_555 1_555
H53A C54A 1_555 1_555
H54A C54A 1_555 1_555
C55A H55A 1_555 1_555
H56A C55A 1_555 1_555
H57A C55A 1_555 1_555
C56A N21A 1_555 1_555
C57A C56A 1_555 1_555
H58A C57A 1_555 1_555
C58A N22A 1_555 1_555
C59A C58A 1_555 1_555
H59A C59A 1_555 1_555
H60A C59A 1_555 1_555
H61A C59A 1_555 1_555
C60A N18A 1_555 1_555
H62A C60A 1_555 1_555
C13 C14 1_555 1_555
C14 C15 1_555 1_555
C16 C21 1_555 1_555
C20 C21 1_555 1_555
C23 C28 1_555 1_555
C27 C28 1_555 1_555
N14 C44 1_555 1_555
N16 C44 1_555 1_555
C29 C30 1_555 1_555
C34 C35 1_555 1_555
C36 C37 1_555 1_555
C39 C40 1_555 1_555
C41 C42 1_555 1_555
N20 C60 1_555 1_555
N22 C60 1_555 1_555
C45 C46 1_555 1_555
C50 C51 1_555 1_555
C52 C53 1_555 1_555
C55 C56 1_555 1_555
C57 C58 1_555 1_555
N14A C44A 1_555 1_555
N16A C44A 1_555 1_555
C29A C30A 1_555 1_555
C31A C32A 1_555 1_555
C34A C35A 1_555 1_555
C36A C37A 1_555 1_555
C39A C40A 1_555 1_555
C41A C42A 1_555 1_555
N20A C60A 1_555 1_555
N22A C60A 1_555 1_555
C45A C46A 1_555 1_555
C47A C48A 1_555 1_555
C50A C51A 1_555 1_555
C52A C53A 1_555 1_555
C55A C56A 1_555 1_555
C57A C58A 1_555 1_555

#END
