
#######################################################################
#
#                 Cambridge Crystallographic Data Centre
#                                CCDC 
#
#######################################################################
#
# If this CIF has been generated from an entry in the Cambridge 
# Structural Database, then it will include bibliographic, chemical, 
# crystal, experimental, refinement or atomic coordinate data resulting 
# from the CCDC's data processing and validation procedures.
#
#######################################################################

data_ABINOQ
_symmetry_cell_setting           monoclinic
_symmetry_space_group_name_H-M   'P 21/c'
_symmetry_Int_Tables_number      14
_space_group_name_Hall           '-P 2ybc'
loop_
_symmetry_equiv_pos_site_id
_symmetry_equiv_pos_as_xyz
1 x,y,z
2 -x,1/2+y,1/2-z
3 -x,-y,-z
4 x,1/2-y,1/2+z
_cell_length_a                   12.0867(2)
_cell_length_b                   18.9621(3)
_cell_length_c                   14.1751(3)
_cell_angle_alpha                90
_cell_angle_beta                 103.425(2)
_cell_angle_gamma                90
_cell_volume                     3160.01
loop_
_atom_site_label
_atom_site_type_symbol
_atom_site_fract_x
_atom_site_fract_y
_atom_site_fract_z
Zn1 Zn 0.220469(19) 0.194581(12) 0.082515(18)
Zn2 Zn 0.27931(2) 0.343561(12) 0.338263(18)
S1 S 0.30817(5) 0.08789(3) 0.10226(4)
S2 S 0.22946(5) 0.24766(3) -0.06935(4)
S3 S 0.26918(5) 0.29538(3) 0.17932(4)
S4 S 0.21164(6) 0.45495(3) 0.33974(5)
N1 N 0.04810(13) 0.18284(9) 0.06788(12)
N2 N -0.54695(13) 0.15671(8) -0.10431(12)
C1 C -0.02034(17) 0.23842(11) 0.06530(15)
H1 H 0.0118 0.2820 0.0856
C2 C -0.13661(17) 0.23360(11) 0.03368(15)
H2 H -0.1813 0.2736 0.0331
C3 C -0.18739(17) 0.16977(10) 0.00282(15)
C4 C -0.11611(18) 0.11225(11) 0.00902(17)
H3 H -0.1463 0.0676 -0.0077
C5 C -0.00071(18) 0.12100(11) 0.03994(17)
H4 H 0.0458 0.0817 0.0415
C6 C -0.48909(18) 0.21474(11) -0.11445(15)
H5 H -0.5292 0.2535 -0.1449
C7 C -0.37368(17) 0.22032(11) -0.08244(15)
H6 H -0.3370 0.2619 -0.0923
C8 C -0.31142(17) 0.16391(10) -0.03528(15)
C9 C -0.37140(17) 0.10341(10) -0.02549(16)
H7 H -0.3335 0.0639 0.0050
C10 C -0.48722(18) 0.10179(11) -0.06095(16)
H8 H -0.5259 0.0603 -0.0544
C11 C 0.40295(19) 0.09102(10) 0.21826(16)
C12 C 0.5171(2) 0.07448(11) 0.22630(18)
H9 H 0.5424 0.0643 0.1707
C13 C 0.5929(2) 0.07301(12) 0.3154(2)
H10 H 0.6688 0.0620 0.3196
C14 C 0.5565(3) 0.08772(13) 0.3980(2)
H11 H 0.6074 0.0863 0.4583
C15 C 0.4437(3) 0.10471(12) 0.39120(19)
H12 H 0.4187 0.1149 0.4470
C16 C 0.3684(2) 0.10656(11) 0.30208(17)
H13 H 0.2928 0.1185 0.2983
C17 C 0.08677(18) 0.26981(10) -0.12729(15)
C18 C 0.0534(2) 0.33963(11) -0.12987(19)
H14 H 0.1057 0.3742 -0.1027
C19 C -0.0573(3) 0.35806(13) -0.1726(2)
H15 H -0.0791 0.4052 -0.1744
C20 C -0.1354(2) 0.30793(15) -0.21234(19)
H16 H -0.2099 0.3207 -0.2410
C21 C -0.1030(2) 0.23883(14) -0.20949(17)
H17 H -0.1561 0.2045 -0.2359
C22 C 0.00733(18) 0.21936(11) -0.16802(16)
H18 H 0.0285 0.1722 -0.1674
C23 C 0.40627(17) 0.31690(10) 0.16214(15)
C24 C 0.48009(18) 0.26551(11) 0.14440(15)
H19 H 0.4559 0.2189 0.1358
C25 C 0.58980(19) 0.28307(12) 0.13935(16)
H20 H 0.6391 0.2483 0.1276
C26 C 0.6258(2) 0.35191(13) 0.15167(17)
H21 H 0.6997 0.3636 0.1492
C27 C 0.5528(2) 0.40321(12) 0.16761(18)
H22 H 0.5773 0.4498 0.1755
C28 C 0.4426(2) 0.38630(11) 0.17217(17)
H23 H 0.3930 0.4216 0.1820
C29 C 0.07879(19) 0.45502(10) 0.25443(17)
C30 C -0.0180(2) 0.47330(11) 0.2851(2)
H24 H -0.0124 0.4822 0.3506
C31 C -0.1221(2) 0.47852(14) 0.2211(3)
H25 H -0.1856 0.4914 0.2435
C32 C -0.1328(3) 0.46503(14) 0.1256(3)
H26 H -0.2033 0.4688 0.0823
C33 C -0.0383(3) 0.44571(14) 0.0935(2)
H27 H -0.0454 0.4354 0.0282
C34 C 0.0676(2) 0.44131(11) 0.15708(18)
H28 H 0.1311 0.4291 0.1341
Zn2C Zn -0.72069(2) 0.156439(12) -0.161737(18)
Zn2C_2 Zn 0.27931(2) 0.156439(12) -0.161737(18)
S2C S 0.22946(5) 0.25234(3) 0.43065(4)
N2C N 0.45305(13) 0.34329(8) 0.39569(12)
loop_
_geom_bond_atom_site_label_1
_geom_bond_atom_site_label_2
_geom_bond_site_symmetry_1
_geom_bond_site_symmetry_2
Zn1 S1 1_555 1_555
Zn2 S3 1_555 1_555
S1 C11 1_555 1_555
S2 Zn1 1_555 1_555
S3 Zn1 1_555 1_555
S4 Zn2 1_555 1_555
N1 Zn1 1_555 1_555
N2 C6 1_555 1_555
C1 N1 1_555 1_555
H1 C1 1_555 1_555
C2 C1 1_555 1_555
H2 C2 1_555 1_555
C3 C2 1_555 1_555
C4 C3 1_555 1_555
H3 C4 1_555 1_555
C5 N1 1_555 1_555
H4 C5 1_555 1_555
C6 H5 1_555 1_555
C7 C6 1_555 1_555
H6 C7 1_555 1_555
C8 C3 1_555 1_555
C9 C8 1_555 1_555
H7 C9 1_555 1_555
C10 N2 1_555 1_555
H8 C10 1_555 1_555
C11 C12 1_555 1_555
C12 H9 1_555 1_555
C13 C12 1_555 1_555
H10 C13 1_555 1_555
C14 C13 1_555 1_555
H11 C14 1_555 1_555
C15 C14 1_555 1_555
H12 C15 1_555 1_555
C16 C11 1_555 1_555
H13 C16 1_555 1_555
C17 S2 1_555 1_555
C18 C17 1_555 1_555
H14 C18 1_555 1_555
C19 C18 1_555 1_555
H15 C19 1_555 1_555
C20 C19 1_555 1_555
H16 C20 1_555 1_555
C21 C20 1_555 1_555
H17 C21 1_555 1_555
C22 C17 1_555 1_555
H18 C22 1_555 1_555
C23 S3 1_555 1_555
C24 C23 1_555 1_555
H19 C24 1_555 1_555
C25 C24 1_555 1_555
H20 C25 1_555 1_555
C26 C25 1_555 1_555
H21 C26 1_555 1_555
C27 C26 1_555 1_555
H22 C27 1_555 1_555
C28 C23 1_555 1_555
H23 C28 1_555 1_555
C29 S4 1_555 1_555
C30 C29 1_555 1_555
H24 C30 1_555 1_555
C31 C30 1_555 1_555
H25 C31 1_555 1_555
C32 C31 1_555 1_555
H26 C32 1_555 1_555
C33 C32 1_555 1_555
H27 C33 1_555 1_555
C34 C29 1_555 1_555
H28 C34 1_555 1_555
Zn2C N2 1_555 1_555
Zn2C_2 S2 1_555 1_555
S2C Zn2 1_555 1_555
N2C Zn2 1_555 1_555
C4 C5 1_555 1_555
C7 C8 1_555 1_555
C9 C10 1_555 1_555
C15 C16 1_555 1_555
C21 C22 1_555 1_555
C27 C28 1_555 1_555
C33 C34 1_555 1_555

#END
