
#######################################################################
#
#                 Cambridge Crystallographic Data Centre
#                                CCDC 
#
#######################################################################
#
# If this CIF has been generated from an entry in the Cambridge 
# Structural Database, then it will include bibliographic, chemical, 
# crystal, experimental, refinement or atomic coordinate data resulting 
# from the CCDC's data processing and validation procedures.
#
#######################################################################

data_ABINIK
_symmetry_cell_setting           monoclinic
_symmetry_space_group_name_H-M   'P 21'
_symmetry_Int_Tables_number      4
_space_group_name_Hall           'P 2yb'
loop_
_symmetry_equiv_pos_site_id
_symmetry_equiv_pos_as_xyz
1 x,y,z
2 -x,1/2+y,-z
_cell_length_a                   13.3740(4)
_cell_length_b                   25.7135(6)
_cell_length_c                   14.7678(5)
_cell_angle_alpha                90
_cell_angle_beta                 106.709(3)
_cell_angle_gamma                90
_cell_volume                     4864.1
loop_
_atom_site_label
_atom_site_type_symbol
_atom_site_fract_x
_atom_site_fract_y
_atom_site_fract_z
Zn1 Zn 0.34535(10) 0.15813(6) 0.04529(11)
Zn2 Zn 0.27305(11) 0.10102(6) 0.24490(12)
Zn3 Zn 0.36563(12) 0.23331(6) 0.28002(12)
Zn4 Zn 0.30730(12) 0.29763(6) 0.04413(15)
Zn5 Zn 0.61587(13) 0.11713(8) 0.04007(13)
Zn6 Zn 0.55366(11) 0.12332(7) 0.27677(12)
Zn7 Zn 0.65332(13) 0.24755(8) 0.42017(13)
Zn8 Zn 0.57385(11) 0.24720(6) 0.14849(12)
S1 S 0.4550(2) 0.19051(13) 0.1869(2)
S2 S 0.4340(3) 0.09253(14) -0.0059(3)
S3 S 0.3142(3) 0.22971(15) -0.0580(3)
S4 S 0.1971(2) 0.13414(13) 0.0912(3)
S5 S 0.4285(3) 0.05563(14) 0.2571(3)
S6 S 0.3059(2) 0.16535(15) 0.3599(3)
S7 S 0.4843(3) 0.28721(17) 0.3847(3)
S8 S 0.2312(3) 0.27621(14) 0.1655(3)
S9 S 0.4779(3) 0.32569(14) 0.1130(4)
S10 S 0.6133(3) 0.20875(16) 0.0190(3)
S11 S 0.6830(3) 0.10486(17) 0.2062(3)
S12 S 0.6175(3) 0.15578(19) 0.4291(3)
S13 S 0.7126(3) 0.25810(18) 0.2854(3)
S14 S 0.7192(6) 0.0687(3) -0.0222(5)
S15 S 0.7622(6) 0.2746(4) 0.5600(5)
N1 N -0.2112(10) -0.1450(6) 0.0308(10)
N2 N 0.1615(9) 0.0472(5) 0.2434(8)
C1 C -0.2306(12) -0.0967(6) 0.0128(11)
H1 H -0.2940 -0.0873 -0.0297
C2 C -0.1573(12) -0.0560(7) 0.0562(11)
H2 H -0.1736 -0.0214 0.0406
C3 C -0.0664(11) -0.0684(6) 0.1188(10)
C4 C -0.061(2) -0.1188(11) 0.1562(19)
H3 H -0.0069 -0.1281 0.2091
C5 C -0.1387(18) -0.1554(11) 0.1123(18)
H4 H -0.1394 -0.1875 0.1408
C6 C 0.0608(13) 0.0591(7) 0.2037(12)
H5 H 0.0414 0.0939 0.2009
C7 C -0.0166(12) 0.0221(6) 0.1664(11)
H6 H -0.0858 0.0327 0.1425
C8 C 0.0083(10) -0.0296(5) 0.1645(10)
C9 C 0.1103(11) -0.0419(6) 0.2114(11)
H7 H 0.1304 -0.0766 0.2185
C10 C 0.1850(12) -0.0028(6) 0.2490(11)
H8 H 0.2534 -0.0126 0.2789
C11 C 0.3814(10) 0.0976(5) -0.1295(8)
C12 C 0.2873(11) 0.0725(6) -0.1710(11)
H9 H 0.2538 0.0544 -0.1337
C13 C 0.2432(10) 0.0746(6) -0.2684(11)
H10 H 0.1802 0.0578 -0.2962
C14 C 0.2932(14) 0.1018(7) -0.3243(8)
H11 H 0.2637 0.1031 -0.3894
C15 C 0.3873(14) 0.1268(7) -0.2827(11)
H12 H 0.4208 0.1450 -0.3201
C16 C 0.4314(10) 0.1247(6) -0.1853(11)
H13 H 0.4944 0.1415 -0.1575
C17 C 0.1882(9) 0.2204(5) -0.1357(10)
C18 C 0.0970(12) 0.2137(6) -0.1099(10)
H14 H 0.0991 0.2143 -0.0464
C19 C 0.0026(9) 0.2061(7) -0.1790(16)
H15 H -0.0585 0.2016 -0.1618
C20 C -0.0006(14) 0.2053(9) -0.2739(14)
H16 H -0.0637 0.2002 -0.3201
C21 C 0.091(2) 0.2120(11) -0.2997(8)
H17 H 0.0886 0.2114 -0.3632
C22 C 0.1851(14) 0.2195(9) -0.2306(12)
H18 H 0.2462 0.2240 -0.2479
C23 C 0.1366(7) 0.0804(3) 0.0219(6)
C24 C 0.1869(6) 0.0327(4) 0.0275(7)
H19 H 0.2550 0.0289 0.0661
C25 C 0.1354(8) -0.0093(3) -0.0247(8)
H20 H 0.1691 -0.0413 -0.0210
C26 C 0.0337(8) -0.0037(4) -0.0824(7)
H21 H -0.0007 -0.0318 -0.1173
C27 C -0.0166(6) 0.0440(4) -0.0879(7)
H22 H -0.0847 0.0478 -0.1265
C28 C 0.0349(7) 0.0861(3) -0.0358(7)
H23 H 0.0012 0.1180 -0.0395
C29 C 0.4532(9) 0.0188(5) 0.3626(8)
C30 C 0.4943(11) -0.0307(6) 0.3607(10)
H24 H 0.5104 -0.0422 0.3068
C31 C 0.5115(13) -0.0629(5) 0.4392(13)
H25 H 0.5390 -0.0960 0.4379
C32 C 0.4874(14) -0.0456(6) 0.5197(10)
H26 H 0.4989 -0.0672 0.5722
C33 C 0.4463(11) 0.0039(7) 0.5216(8)
H27 H 0.4302 0.0154 0.5754
C34 C 0.4291(9) 0.0361(5) 0.4430(10)
H28 H 0.4016 0.0692 0.4443
C35 C 0.1829(11) 0.1859(6) 0.3754(13)
C36 C 0.0850(14) 0.1875(7) 0.3095(11)
H29 H 0.0756 0.1740 0.2492
C37 C 0.0010(10) 0.2092(8) 0.3337(17)
H30 H -0.0646 0.2102 0.2896
C38 C 0.0149(17) 0.2294(9) 0.424(2)
H31 H -0.0413 0.2439 0.4400
C39 C 0.113(2) 0.2278(11) 0.4897(14)
H32 H 0.1222 0.2413 0.5500
C40 C 0.1969(14) 0.2061(10) 0.4656(12)
H33 H 0.2624 0.2051 0.5097
C41 C 0.4363(10) 0.2870(5) 0.4849(8)
C42 C 0.3500(10) 0.3178(5) 0.4821(9)
H34 H 0.3162 0.3357 0.4272
C43 C 0.3143(10) 0.3217(6) 0.5614(13)
H35 H 0.2565 0.3422 0.5595
C44 C 0.3648(14) 0.2948(7) 0.6435(10)
H36 H 0.3409 0.2974 0.6965
C45 C 0.4511(13) 0.2641(6) 0.6463(9)
H37 H 0.4849 0.2461 0.7012
C46 C 0.4869(10) 0.2601(5) 0.5670(11)
H38 H 0.5446 0.2396 0.5689
C47 C 0.2112(11) 0.3354(4) 0.2200(9)
C48 C 0.1206(10) 0.3406(6) 0.2475(11)
H39 H 0.0735 0.3132 0.2387
C49 C 0.1006(11) 0.3867(7) 0.2881(12)
H40 H 0.0401 0.3902 0.3065
C50 C 0.1712(14) 0.4277(5) 0.3012(11)
H41 H 0.1578 0.4586 0.3284
C51 C 0.2617(12) 0.4225(5) 0.2737(11)
H42 H 0.3089 0.4499 0.2824
C52 C 0.2817(9) 0.3764(6) 0.2330(10)
H43 H 0.3423 0.3729 0.2146
C53 C 0.5165(10) 0.3607(5) 0.0245(9)
C54 C 0.5548(11) 0.4106(6) 0.0490(9)
H44 H 0.5552 0.4245 0.1072
C55 C 0.5926(11) 0.4396(5) -0.0135(12)
H45 H 0.6183 0.4730 0.0029
C56 C 0.5921(12) 0.4187(7) -0.1005(11)
H46 H 0.6173 0.4381 -0.1423
C57 C 0.5537(13) 0.3688(7) -0.1250(9)
H47 H 0.5533 0.3549 -0.1832
C58 C 0.5159(11) 0.3398(5) -0.0625(11)
H48 H 0.4902 0.3065 -0.0788
C59 C 0.7420(8) 0.2296(6) 0.0259(10)
C60 C 0.8302(11) 0.2038(5) 0.0802(9)
H49 H 0.8231 0.1744 0.1144
C61 C 0.9290(9) 0.2220(6) 0.0834(11)
H50 H 0.9880 0.2047 0.1197
C62 C 0.9396(10) 0.2660(7) 0.0322(13)
H51 H 1.0058 0.2781 0.0344
C63 C 0.8514(15) 0.2918(6) -0.0220(11)
H52 H 0.8585 0.3212 -0.0562
C64 C 0.7526(11) 0.2736(6) -0.0252(10)
H53 H 0.6936 0.2909 -0.0615
C65 C 0.7128(10) 0.0383(4) 0.2267(9)
C66 C 0.8028(9) 0.0258(6) 0.2979(9)
H54 H 0.8461 0.0520 0.3308
C67 C 0.8282(10) -0.0260(7) 0.3199(10)
H55 H 0.8885 -0.0344 0.3675
C68 C 0.7635(14) -0.0653(5) 0.2707(12)
H56 H 0.7805 -0.0999 0.2855
C69 C 0.6735(12) -0.0527(5) 0.1995(11)
H57 H 0.6302 -0.0789 0.1666
C70 C 0.6481(8) -0.0009(6) 0.1775(8)
H58 H 0.5879 0.0075 0.1299
C71 C 0.7308(11) 0.1194(6) 0.4758(10)
C72 C 0.8307(15) 0.1404(6) 0.5041(14)
H59 H 0.8406 0.1756 0.4954
C73 C 0.9158(10) 0.1087(9) 0.5456(15)
H60 H 0.9827 0.1228 0.5646
C74 C 0.9010(12) 0.0561(8) 0.5587(12)
H61 H 0.9580 0.0349 0.5865
C75 C 0.8011(15) 0.0351(5) 0.5303(12)
H62 H 0.7912 -0.0002 0.5391
C76 C 0.7159(10) 0.0667(6) 0.4888(10)
H63 H 0.6491 0.0526 0.4699
C77 C 0.7438(9) 0.3232(4) 0.2678(8)
C78 C 0.8077(9) 0.3325(5) 0.2100(8)
H64 H 0.8317 0.3048 0.1816
C79 C 0.8355(9) 0.3831(6) 0.1948(9)
H65 H 0.8782 0.3893 0.1561
C80 C 0.7995(11) 0.4245(4) 0.2373(10)
H66 H 0.8181 0.4584 0.2271
C81 C 0.7357(10) 0.4152(4) 0.2951(9)
H67 H 0.7116 0.4429 0.3235
C82 C 0.7079(8) 0.3646(5) 0.3104(8)
H68 H 0.6652 0.3584 0.3490
C83 C 0.7010(12) 0.0934(7) -0.1338(10)
C84 C 0.7365(12) 0.1426(7) -0.1489(13)
H69 H 0.7700 0.1634 -0.0977
C85 C 0.7219(15) 0.1606(7) -0.2406(17)
H70 H 0.7456 0.1935 -0.2507
C86 C 0.6718(17) 0.1295(10) -0.3171(11)
H71 H 0.6620 0.1415 -0.3784
C87 C 0.6363(16) 0.0803(10) -0.3020(12)
H72 H 0.6028 0.0595 -0.3533
C88 C 0.6509(14) 0.0623(6) -0.2104(16)
H73 H 0.6272 0.0294 -0.2003
C89 C 0.8208(16) 0.3258(7) 0.5477(13)
C90 C 0.9124(18) 0.3259(10) 0.5211(17)
H74 H 0.9426 0.2946 0.5114
C91 C 0.9589(16) 0.3728(14) 0.5091(18)
H75 H 1.0202 0.3728 0.4914
C92 C 0.914(2) 0.4196(10) 0.5236(17)
H76 H 0.9447 0.4509 0.5156
C93 C 0.822(2) 0.4195(7) 0.5502(18)
H77 H 0.7918 0.4508 0.5599
C94 C 0.7756(15) 0.3726(10) 0.5622(15)
H78 H 0.7142 0.3726 0.5800
Zn4A Zn -0.30730(12) -0.20237(6) -0.04413(15)
N1A N 0.2112(10) 0.3550(6) -0.0308(10)
loop_
_geom_bond_atom_site_label_1
_geom_bond_atom_site_label_2
_geom_bond_site_symmetry_1
_geom_bond_site_symmetry_2
Zn1 S1 1_555 1_555
Zn2 S4 1_555 1_555
Zn3 S1 1_555 1_555
Zn4 S3 1_555 1_555
Zn5 S2 1_555 1_555
Zn6 S1 1_555 1_555
Zn7 S7 1_555 1_555
Zn8 S1 1_555 1_555
S2 Zn1 1_555 1_555
S3 Zn1 1_555 1_555
S4 Zn1 1_555 1_555
S5 Zn2 1_555 1_555
S6 Zn2 1_555 1_555
S7 Zn3 1_555 1_555
S8 Zn3 1_555 1_555
S9 Zn4 1_555 1_555
S10 Zn5 1_555 1_555
S11 Zn5 1_555 1_555
S12 Zn6 1_555 1_555
S13 Zn7 1_555 1_555
S14 Zn5 1_555 1_555
S15 Zn7 1_555 1_555
N1 C1 1_555 1_555
N2 Zn2 1_555 1_555
C1 H1 1_555 1_555
C2 C1 1_555 1_555
H2 C2 1_555 1_555
C3 C2 1_555 1_555
C4 C3 1_555 1_555
H3 C4 1_555 1_555
C5 N1 1_555 1_555
H4 C5 1_555 1_555
C6 N2 1_555 1_555
H5 C6 1_555 1_555
C7 C6 1_555 1_555
H6 C7 1_555 1_555
C8 C3 1_555 1_555
C9 C8 1_555 1_555
H7 C9 1_555 1_555
C10 N2 1_555 1_555
H8 C10 1_555 1_555
C11 S2 1_555 1_555
C12 C11 1_555 1_555
H9 C12 1_555 1_555
C13 C12 1_555 1_555
H10 C13 1_555 1_555
C14 C13 1_555 1_555
H11 C14 1_555 1_555
C15 C14 1_555 1_555
H12 C15 1_555 1_555
C16 C11 1_555 1_555
H13 C16 1_555 1_555
C17 S3 1_555 1_555
C18 C17 1_555 1_555
H14 C18 1_555 1_555
C19 C18 1_555 1_555
H15 C19 1_555 1_555
C20 C19 1_555 1_555
H16 C20 1_555 1_555
C21 C20 1_555 1_555
H17 C21 1_555 1_555
C22 C17 1_555 1_555
H18 C22 1_555 1_555
C23 S4 1_555 1_555
C24 C23 1_555 1_555
H19 C24 1_555 1_555
C25 C24 1_555 1_555
H20 C25 1_555 1_555
C26 C25 1_555 1_555
H21 C26 1_555 1_555
C27 C26 1_555 1_555
H22 C27 1_555 1_555
C28 C23 1_555 1_555
H23 C28 1_555 1_555
C29 S5 1_555 1_555
C30 C29 1_555 1_555
H24 C30 1_555 1_555
C31 C30 1_555 1_555
H25 C31 1_555 1_555
C32 C31 1_555 1_555
H26 C32 1_555 1_555
C33 C32 1_555 1_555
H27 C33 1_555 1_555
C34 C29 1_555 1_555
H28 C34 1_555 1_555
C35 S6 1_555 1_555
C36 C35 1_555 1_555
H29 C36 1_555 1_555
C37 C36 1_555 1_555
H30 C37 1_555 1_555
C38 C37 1_555 1_555
H31 C38 1_555 1_555
C39 C38 1_555 1_555
H32 C39 1_555 1_555
C40 C35 1_555 1_555
H33 C40 1_555 1_555
C41 S7 1_555 1_555
C42 C41 1_555 1_555
H34 C42 1_555 1_555
C43 C42 1_555 1_555
H35 C43 1_555 1_555
C44 C43 1_555 1_555
H36 C44 1_555 1_555
C45 C44 1_555 1_555
H37 C45 1_555 1_555
C46 C41 1_555 1_555
H38 C46 1_555 1_555
C47 S8 1_555 1_555
C48 C47 1_555 1_555
H39 C48 1_555 1_555
C49 C48 1_555 1_555
H40 C49 1_555 1_555
C50 C49 1_555 1_555
H41 C50 1_555 1_555
C51 C50 1_555 1_555
H42 C51 1_555 1_555
C52 C47 1_555 1_555
H43 C52 1_555 1_555
C53 S9 1_555 1_555
C54 C53 1_555 1_555
H44 C54 1_555 1_555
C55 C54 1_555 1_555
H45 C55 1_555 1_555
C56 C55 1_555 1_555
H46 C56 1_555 1_555
C57 C56 1_555 1_555
H47 C57 1_555 1_555
C58 C53 1_555 1_555
H48 C58 1_555 1_555
C59 S10 1_555 1_555
C60 C59 1_555 1_555
H49 C60 1_555 1_555
C61 C60 1_555 1_555
H50 C61 1_555 1_555
C62 C61 1_555 1_555
H51 C62 1_555 1_555
C63 C62 1_555 1_555
H52 C63 1_555 1_555
C64 C59 1_555 1_555
H53 C64 1_555 1_555
C65 S11 1_555 1_555
C66 C65 1_555 1_555
H54 C66 1_555 1_555
C67 C66 1_555 1_555
H55 C67 1_555 1_555
C68 C67 1_555 1_555
H56 C68 1_555 1_555
C69 C68 1_555 1_555
H57 C69 1_555 1_555
C70 C65 1_555 1_555
H58 C70 1_555 1_555
C71 S12 1_555 1_555
C72 C71 1_555 1_555
H59 C72 1_555 1_555
C73 C72 1_555 1_555
H60 C73 1_555 1_555
C74 C73 1_555 1_555
H61 C74 1_555 1_555
C75 C74 1_555 1_555
H62 C75 1_555 1_555
C76 C71 1_555 1_555
H63 C76 1_555 1_555
C77 S13 1_555 1_555
C78 C77 1_555 1_555
H64 C78 1_555 1_555
C79 C78 1_555 1_555
H65 C79 1_555 1_555
C80 C79 1_555 1_555
H66 C80 1_555 1_555
C81 C80 1_555 1_555
H67 C81 1_555 1_555
C82 C77 1_555 1_555
H68 C82 1_555 1_555
C83 S14 1_555 1_555
C84 C83 1_555 1_555
H69 C84 1_555 1_555
C85 C84 1_555 1_555
H70 C85 1_555 1_555
C86 C85 1_555 1_555
H71 C86 1_555 1_555
C87 C86 1_555 1_555
H72 C87 1_555 1_555
C88 C83 1_555 1_555
H73 C88 1_555 1_555
C89 S15 1_555 1_555
C90 C89 1_555 1_555
H74 C90 1_555 1_555
C91 C90 1_555 1_555
H75 C91 1_555 1_555
C92 C91 1_555 1_555
H76 C92 1_555 1_555
C93 C92 1_555 1_555
H77 C93 1_555 1_555
C94 C89 1_555 1_555
H78 C94 1_555 1_555
Zn4A N1 1_555 1_555
N1A Zn4 1_555 1_555
Zn3 S6 1_555 1_555
Zn4 S8 1_555 1_555
Zn6 S5 1_555 1_555
Zn6 S11 1_555 1_555
Zn7 S12 1_555 1_555
Zn8 S9 1_555 1_555
Zn8 S10 1_555 1_555
Zn8 S13 1_555 1_555
C4 C5 1_555 1_555
C7 C8 1_555 1_555
C9 C10 1_555 1_555
C15 C16 1_555 1_555
C21 C22 1_555 1_555
C27 C28 1_555 1_555
C33 C34 1_555 1_555
C39 C40 1_555 1_555
C45 C46 1_555 1_555
C51 C52 1_555 1_555
C57 C58 1_555 1_555
C63 C64 1_555 1_555
C69 C70 1_555 1_555
C75 C76 1_555 1_555
C81 C82 1_555 1_555
C87 C88 1_555 1_555
C93 C94 1_555 1_555

#END
