
#######################################################################
#
#                 Cambridge Crystallographic Data Centre
#                                CCDC 
#
#######################################################################
#
# If this CIF has been generated from an entry in the Cambridge 
# Structural Database, then it will include bibliographic, chemical, 
# crystal, experimental, refinement or atomic coordinate data resulting 
# from the CCDC's data processing and validation procedures.
#
#######################################################################

data_ABINEF
_symmetry_cell_setting           monoclinic
_symmetry_space_group_name_H-M   'C 2/c'
_symmetry_Int_Tables_number      15
_space_group_name_Hall           '-C 2yn'
loop_
_symmetry_equiv_pos_site_id
_symmetry_equiv_pos_as_xyz
1 x,y,z
2 1/2+x,1/2+y,z
3 x,-y,1/2+z
4 1/2+x,1/2-y,1/2+z
5 -x,-y,-z
6 1/2-x,1/2-y,-z
7 -x,y,1/2-z
8 1/2-x,1/2+y,1/2-z
_cell_length_a                   14.2656(8)
_cell_length_b                   24.5432(12)
_cell_length_c                   29.298(2)
_cell_angle_alpha                90
_cell_angle_beta                 99.132(8)
_cell_angle_gamma                90
_cell_volume                     10127.9
loop_
_atom_site_label
_atom_site_type_symbol
_atom_site_fract_x
_atom_site_fract_y
_atom_site_fract_z
N10 N 0.5000 0.4173(5) 0.2500
C19 C 0.4794(8) 0.3842(5) 0.2062(5)
H10 H 0.5353 0.3628 0.2032
H11 H 0.4688 0.4091 0.1802
C20 C 0.3919(9) 0.3445(5) 0.2024(5)
H12 H 0.4009 0.3194 0.2284
H13 H 0.3346 0.3653 0.2037
C21 C 0.3814(12) 0.3135(6) 0.1589(6)
H14 H 0.3278 0.2895 0.1572
H15 H 0.4378 0.2925 0.1579
H16 H 0.3717 0.3383 0.1333
C22 C 0.5892(8) 0.4525(4) 0.2483(5)
H17 H 0.6065 0.4707 0.2778
H18 H 0.6414 0.4288 0.2439
C23 C 0.5762(10) 0.4954(5) 0.2099(6)
H19 H 0.5563 0.4782 0.1802
H20 H 0.5282 0.5216 0.2152
C24 C 0.6717(11) 0.5236(6) 0.2109(6)
H21 H 0.6662 0.5509 0.1872
H22 H 0.7185 0.4972 0.2057
H23 H 0.6905 0.5404 0.2405
C19F C 0.5206(8) 0.3842(5) 0.2938(5)
H10F H 0.4647 0.3628 0.2968
H11F H 0.5312 0.4091 0.3198
C20F C 0.6081(9) 0.3445(5) 0.2976(5)
H12F H 0.5991 0.3194 0.2716
H13F H 0.6654 0.3653 0.2963
C21F C 0.6186(12) 0.3135(6) 0.3411(6)
H14F H 0.6722 0.2895 0.3428
H15F H 0.5622 0.2925 0.3421
H16F H 0.6283 0.3383 0.3667
C22F C 0.4108(8) 0.4525(4) 0.2517(5)
H17F H 0.3935 0.4707 0.2222
H18F H 0.3586 0.4288 0.2561
C23F C 0.4238(10) 0.4954(5) 0.2901(6)
H19F H 0.4437 0.4782 0.3198
H20F H 0.4718 0.5216 0.2848
C24F C 0.3283(11) 0.5236(6) 0.2891(6)
H21F H 0.3338 0.5509 0.3128
H22F H 0.2815 0.4972 0.2943
H23F H 0.3095 0.5404 0.2595
N11 N 0.0000 0.4198(4) 0.2500
C25 C 0.0633(7) 0.3845(4) 0.2254(4)
H24 H 0.1049 0.3637 0.2484
H25 H 0.1031 0.4082 0.2101
C26 C 0.0128(11) 0.3449(6) 0.1897(6)
H26 H -0.0249 0.3649 0.1646
H27 H -0.0292 0.3215 0.2038
C27 C 0.0888(13) 0.3102(7) 0.1707(6)
H28 H 0.0581 0.2853 0.1478
H29 H 0.1251 0.2901 0.1956
H30 H 0.1303 0.3337 0.1569
C28 C -0.0672(8) 0.4552(5) 0.2176(4)
H31 H -0.1142 0.4319 0.1997
H32 H -0.1005 0.4791 0.2360
C29 C -0.0219(9) 0.4895(5) 0.1850(6)
H33 H 0.0220 0.5150 0.2024
H34 H 0.0137 0.4664 0.1670
C30 C -0.0953(11) 0.5202(6) 0.1532(6)
H35 H -0.0651 0.5418 0.1324
H36 H -0.1297 0.5436 0.1710
H37 H -0.1384 0.4950 0.1358
C25F C -0.0633(7) 0.3845(4) 0.2746(4)
H24F H -0.1049 0.3637 0.2516
H25F H -0.1031 0.4082 0.2899
C26F C -0.0128(11) 0.3449(6) 0.3103(6)
H26F H 0.0249 0.3649 0.3354
H27F H 0.0292 0.3215 0.2962
C27F C -0.0888(13) 0.3102(7) 0.3293(6)
H28F H -0.0581 0.2853 0.3522
H29F H -0.1251 0.2901 0.3044
H30F H -0.1303 0.3337 0.3431
C28F C 0.0672(8) 0.4552(5) 0.2824(4)
H31F H 0.1142 0.4319 0.3003
H32F H 0.1005 0.4791 0.2640
C29F C 0.0219(9) 0.4895(5) 0.3150(6)
H33F H -0.0220 0.5150 0.2976
H34F H -0.0137 0.4664 0.3330
C30F C 0.0953(11) 0.5202(6) 0.3468(6)
H35F H 0.0651 0.5418 0.3676
H36F H 0.1297 0.5436 0.3290
H37F H 0.1384 0.4950 0.3642
O1 O 0.5000(11) 0.2324(6) 0.2500(6)
C31 C 0.5526(11) 0.1946(6) 0.2357(6)
H38 H 0.6133 0.2031 0.2543
H39 H 0.5580 0.2087 0.2053
C32 C 0.5648(11) 0.1412(6) 0.2285(6)
H40 H 0.6301 0.1317 0.2406
H41 H 0.5553 0.1347 0.1955
O2 O 0.5000(11) 0.1035(6) 0.2500(6)
C32F C 0.4352(11) 0.1412(6) 0.2715(6)
C31F C 0.4474(11) 0.1946(6) 0.2643(6)
H38F H 0.3867 0.2031 0.2457
H39F H 0.4420 0.2087 0.2947
H40F H 0.3699 0.1317 0.2594
H41F H 0.4447 0.1347 0.3045
N12 N 0.8339(11) 0.1189(6) 0.1878(6)
C33 C 0.8065(11) 0.1626(6) 0.1906(6)
C34 C 0.8121(11) 0.2149(6) 0.1924(6)
H42 H 0.7771 0.2283 0.2155
H43 H 0.7860 0.2299 0.1629
H44 H 0.8775 0.2256 0.2003
Cu1 Cu 0.97344(8) 0.00182(4) 0.41629(5)
Cu2 Cu 1.04773(8) 0.08814(4) 0.47305(5)
Cu3 Cu 1.09331(8) -0.07290(4) 0.47253(5)
Cu4 Cu 0.83221(8) -0.01558(4) 0.47225(5)
S1 S 1.19810(17) 0.06525(9) 0.46740(11)
S2 S 1.11573(17) -0.03119(9) 0.40670(11)
C1 C 1.1976(6) 0.0221(3) 0.4204(4)
C2 C 1.2652(7) 0.0297(4) 0.3927(4)
C3 C 1.2720(8) -0.0050(5) 0.3544(5)
C4 C 1.3319(7) 0.0730(4) 0.3993(4)
N1 N 1.3857(6) 0.1071(3) 0.4037(4)
N2 N 1.2803(8) -0.0326(5) 0.3232(5)
S3 S 0.94279(17) 0.09138(9) 0.40700(11)
S4 S 1.21242(17) -0.07250(9) 0.53254(11)
C5 C 0.8280(6) 0.1021(3) 0.4199(4)
C6 C 0.7687(7) 0.1349(3) 0.3915(5)
C7 C 0.6740(8) 0.1448(4) 0.3994(5)
C8 C 0.7955(8) 0.1621(5) 0.3525(6)
N3 N 0.5981(7) 0.1548(3) 0.4042(5)
N4 N 0.8130(10) 0.1844(5) 0.3188(6)
S5 S 1.02016(16) 0.13769(8) 0.53401(10)
S6 S 0.85003(16) -0.05660(8) 0.40552(10)
C9 C 1.1013(6) 0.1214(3) 0.5811(4)
C10 C 1.1330(7) 0.1622(3) 0.6134(4)
C11 C 1.1950(8) 0.1527(4) 0.6559(5)
C12 C 1.1003(7) 0.2173(3) 0.6053(4)
N5 N 1.2422(9) 0.1448(4) 0.6898(4)
N6 N 1.0759(6) 0.2610(3) 0.5996(4)
Cu5 Cu 1.47330(8) 0.16753(4) 0.42147(5)
N7 N 1.436(2) 0.1670(13) 0.4904(12)
C13 C 1.403(3) 0.1601(17) 0.5236(15)
C14 C 1.354(4) 0.167(2) 0.5599(19)
H1 H 1.3949 0.1830 0.5854
H2 H 1.3328 0.1318 0.5690
H3 H 1.3002 0.1898 0.5506
Cu3D Cu 0.90669(8) 0.07290(4) 0.52747(5)
Cu1D Cu 1.02656(8) -0.00182(4) 0.58371(5)
Cu2D Cu 0.95227(8) -0.08814(4) 0.52695(5)
S1D S 0.80190(17) -0.06525(9) 0.53260(11)
S2D S 0.88427(17) 0.03119(9) 0.59330(11)
Cu4D Cu 1.16779(8) 0.01558(4) 0.52775(5)
S4D S 0.78758(17) 0.07250(9) 0.46746(11)
C9D C 0.8987(6) -0.1214(3) 0.4189(4)
S5D S 0.97984(16) -0.13769(8) 0.46599(10)
S3D S 1.05721(17) -0.09138(9) 0.59300(11)
S6D S 1.14997(16) 0.05660(8) 0.59448(10)
C5D C 1.1720(6) -0.1021(3) 0.5801(4)
C6D C 1.2313(7) -0.1349(3) 0.6085(5)
C7D C 1.3260(8) -0.1448(4) 0.6006(5)
N3D N 1.4019(7) -0.1548(3) 0.5958(5)
Cu5D Cu 1.52670(8) -0.16753(4) 0.57853(5)
C8D C 1.2045(8) -0.1621(5) 0.6475(6)
N4D N 1.1870(10) -0.1844(5) 0.6812(6)
C10D C 0.8670(7) -0.1622(3) 0.3866(4)
C11D C 0.8050(8) -0.1527(4) 0.3441(5)
N5D N 0.7578(9) -0.1448(4) 0.3102(4)
C12D C 0.8997(7) -0.2173(3) 0.3947(4)
N6D N 0.9241(6) -0.2610(3) 0.4004(4)
Cu5A Cu 0.97330(8) -0.33247(4) 0.42147(5)
N1A N 0.8857(6) -0.3929(3) 0.4037(4)
N3A N 1.0981(7) -0.3452(3) 0.4042(5)
N7A N 0.936(2) -0.3330(13) 0.4904(12)
C13A C 0.903(3) -0.3399(17) 0.5236(15)
C14A C 0.854(4) -0.333(2) 0.5599(19)
H1A H 0.8949 -0.3170 0.5854
H2A H 0.8328 -0.3682 0.5690
H3A H 0.8002 -0.3102 0.5506
C1D C 0.8024(6) -0.0221(3) 0.5796(4)
Cu5_2 Cu 0.47330(8) 0.16753(4) 0.42147(5)
Cu5E Cu 1.02670(8) 0.33247(4) 0.57853(5)
N3_2 N 1.5981(7) 0.1548(3) 0.4042(5)
N6E N 1.4241(6) 0.2390(3) 0.4004(4)
C2D C 0.7348(7) -0.0297(4) 0.6073(4)
C3D C 0.7280(8) 0.0050(5) 0.6456(5)
C4D C 0.6681(7) -0.0730(4) 0.6007(4)
N2D N 0.7197(8) 0.0326(5) 0.6768(5)
N1D N 0.6143(6) -0.1071(3) 0.5963(4)
Cu5D_2 Cu 0.52670(8) -0.16753(4) 0.57853(5)
N8? N 1.034(3) -0.3511(15) 0.4857(12)
C15? C 1.072(3) -0.3698(17) 0.5177(15)
C16? C 1.123(4) -0.3878(19) 0.5580(18)
H4? H 1.1036 -0.4243 0.5639
H5? H 1.1110 -0.3645 0.5829
H6? H 1.1891 -0.3873 0.5559
N9? N 1.004(2) -0.3039(13) 0.4834(11)
C17? C 1.026(4) -0.276(2) 0.512(2)
C18? C 1.058(4) -0.2462(19) 0.559(3)
H7? H 1.0038 -0.2290 0.5688
H8? H 1.1045 -0.2191 0.5554
H9? H 1.0845 -0.2721 0.5821
loop_
_geom_bond_atom_site_label_1
_geom_bond_atom_site_label_2
_geom_bond_site_symmetry_1
_geom_bond_site_symmetry_2
Cu1 Cu2 1_555 1_555
Cu2 S1 1_555 1_555
Cu3 Cu1 1_555 1_555
Cu4 Cu1 1_555 1_555
S1 C1 1_555 1_555
S2 Cu1 1_555 1_555
C1 S2 1_555 1_555
C2 C1 1_555 1_555
C3 C2 1_555 1_555
C4 C2 1_555 1_555
N1 C4 1_555 1_555
N2 C3 1_555 1_555
S3 Cu1 1_555 1_555
S4 Cu3 1_555 1_555
C5 S3 1_555 1_555
C6 C5 1_555 1_555
C7 C6 1_555 1_555
C8 C6 1_555 1_555
N3 C7 1_555 1_555
N4 C8 1_555 1_555
S5 Cu2 1_555 1_555
S6 Cu1 1_555 1_555
C9 S5 1_555 1_555
C10 C9 1_555 1_555
C11 C10 1_555 1_555
C12 C10 1_555 1_555
N5 C11 1_555 1_555
N6 C12 1_555 1_555
Cu5 N1 1_555 1_555
N7 Cu5 1_555 1_555
C13 N7 1_555 1_555
C14 C13 1_555 1_555
H1 C14 1_555 1_555
H2 C14 1_555 1_555
H3 C14 1_555 1_555
N10 C19 1_555 1_555
C19 H10 1_555 1_555
H11 C19 1_555 1_555
C20 C19 1_555 1_555
H12 C20 1_555 1_555
H13 C20 1_555 1_555
C21 C20 1_555 1_555
H14 C21 1_555 1_555
H15 C21 1_555 1_555
H16 C21 1_555 1_555
C22 N10 1_555 1_555
H17 C22 1_555 1_555
H18 C22 1_555 1_555
C23 C22 1_555 1_555
H19 C23 1_555 1_555
H20 C23 1_555 1_555
C24 C23 1_555 1_555
H21 C24 1_555 1_555
H22 C24 1_555 1_555
H23 C24 1_555 1_555
N11 C25 1_555 1_555
C25 H24 1_555 1_555
H25 C25 1_555 1_555
C26 C25 1_555 1_555
H26 C26 1_555 1_555
H27 C26 1_555 1_555
C27 C26 1_555 1_555
H28 C27 1_555 1_555
H29 C27 1_555 1_555
H30 C27 1_555 1_555
C28 N11 1_555 1_555
H31 C28 1_555 1_555
H32 C28 1_555 1_555
C29 C28 1_555 1_555
H33 C29 1_555 1_555
H34 C29 1_555 1_555
C30 C29 1_555 1_555
H35 C30 1_555 1_555
H36 C30 1_555 1_555
H37 C30 1_555 1_555
O1 C31 1_555 1_555
C31 H38 1_555 1_555
H39 C31 1_555 1_555
C32 C31 1_555 1_555
H40 C32 1_555 1_555
H41 C32 1_555 1_555
O2 C32 1_555 1_555
N12 C33 1_555 1_555
C33 C34 1_555 1_555
C34 H42 1_555 1_555
H43 C34 1_555 1_555
H44 C34 1_555 1_555
Cu3D Cu2 1_555 1_555
Cu1D Cu3D 1_555 1_555
Cu2D Cu3 1_555 1_555
S1D Cu4 1_555 1_555
S2D Cu3D 1_555 1_555
Cu4D Cu2 1_555 1_555
S4D Cu4 1_555 1_555
C9D S6 1_555 1_555
S5D Cu3 1_555 1_555
S3D Cu1D 1_555 1_555
S6D C9 1_555 1_555
C5D S4 1_555 1_555
C6D C5D 1_555 1_555
C7D C6D 1_555 1_555
N3D C7D 1_555 1_555
Cu5D N3D 1_555 1_555
C8D C6D 1_555 1_555
N4D C8D 1_555 1_555
C10D C9D 1_555 1_555
C11D C10D 1_555 1_555
N5D C11D 1_555 1_555
C12D C10D 1_555 1_555
N6D C12D 1_555 1_555
Cu5A N6D 1_555 1_555
N1A Cu5A 1_555 1_555
N3A Cu5A 1_555 1_555
N7A Cu5A 1_555 1_555
C13A N7A 1_555 1_555
C14A C13A 1_555 1_555
H1A C14A 1_555 1_555
H2A C14A 1_555 1_555
H3A C14A 1_555 1_555
C1D S1D 1_555 1_555
Cu5_2 N3 1_555 1_555
Cu5E N6 1_555 1_555
N3_2 Cu5 1_555 1_555
N6E Cu5 1_555 1_555
C19F N10 1_555 1_555
H10F C19F 1_555 1_555
H11F C19F 1_555 1_555
C20F C19F 1_555 1_555
H12F C20F 1_555 1_555
H13F C20F 1_555 1_555
C21F C20F 1_555 1_555
H14F C21F 1_555 1_555
H15F C21F 1_555 1_555
H16F C21F 1_555 1_555
C22F N10 1_555 1_555
H17F C22F 1_555 1_555
H18F C22F 1_555 1_555
C23F C22F 1_555 1_555
H19F C23F 1_555 1_555
H20F C23F 1_555 1_555
C24F C23F 1_555 1_555
H21F C24F 1_555 1_555
H22F C24F 1_555 1_555
H23F C24F 1_555 1_555
C25F N11 1_555 1_555
H24F C25F 1_555 1_555
H25F C25F 1_555 1_555
C26F C25F 1_555 1_555
H26F C26F 1_555 1_555
H27F C26F 1_555 1_555
C27F C26F 1_555 1_555
H28F C27F 1_555 1_555
H29F C27F 1_555 1_555
H30F C27F 1_555 1_555
C28F N11 1_555 1_555
H31F C28F 1_555 1_555
H32F C28F 1_555 1_555
C29F C28F 1_555 1_555
H33F C29F 1_555 1_555
H34F C29F 1_555 1_555
C30F C29F 1_555 1_555
H35F C30F 1_555 1_555
H36F C30F 1_555 1_555
H37F C30F 1_555 1_555
C32F O2 1_555 1_555
C31F O1 1_555 1_555
H38F C31F 1_555 1_555
H39F C31F 1_555 1_555
H40F C32F 1_555 1_555
H41F C32F 1_555 1_555
C2D C1D 1_555 1_555
C3D C2D 1_555 1_555
C4D C2D 1_555 1_555
N2D C3D 1_555 1_555
N1D C4D 1_555 1_555
Cu5D_2 N1D 1_555 1_555
Cu2 S3 1_555 1_555
Cu3 S2 1_555 1_555
Cu3 Cu4D 1_555 1_555
Cu4 S6 1_555 1_555
Cu4 Cu2D 1_555 1_555
Cu4 Cu3D 1_555 1_555
S1 Cu4D 1_555 1_555
S4 Cu4D 1_555 1_555
C5 S4D 1_555 1_555
S5 Cu3D 1_555 1_555
Cu3D S4D 1_555 1_555
Cu1D Cu2D 1_555 1_555
Cu1D Cu4D 1_555 1_555
Cu1D S6D 1_555 1_555
Cu1D S2D 1_555 1_555
Cu2D S1D 1_555 1_555
Cu2D S3D 1_555 1_555
Cu2D S5D 1_555 1_555
S2D C1D 1_555 1_555
Cu4D S6D 1_555 1_555
C9D S5D 1_555 1_555
S3D C5D 1_555 1_555
C32F C31F 1_555 1_555

#END
