
#######################################################################
#
#                 Cambridge Crystallographic Data Centre
#                                CCDC 
#
#######################################################################
#
# If this CIF has been generated from an entry in the Cambridge 
# Structural Database, then it will include bibliographic, chemical, 
# crystal, experimental, refinement or atomic coordinate data resulting 
# from the CCDC's data processing and validation procedures.
#
#######################################################################

data_ABIQAE
_symmetry_cell_setting           triclinic
_symmetry_space_group_name_H-M   'P -1'
_symmetry_Int_Tables_number      2
_space_group_name_Hall           '-P 1'
loop_
_symmetry_equiv_pos_site_id
_symmetry_equiv_pos_as_xyz
1 x,y,z
2 -x,-y,-z
_cell_length_a                   8.9730(12)
_cell_length_b                   9.2498(13)
_cell_length_c                   10.0061(14)
_cell_angle_alpha                99.915(2)
_cell_angle_beta                 99.601(2)
_cell_angle_gamma                103.337(2)
_cell_volume                     777.329
loop_
_atom_site_label
_atom_site_type_symbol
_atom_site_fract_x
_atom_site_fract_y
_atom_site_fract_z
Cd1 Cd -0.11599(3) 0.09623(3) 0.24466(3)
S1 S -0.24545(11) -0.17975(11) 0.28801(11)
S2 S -0.31270(11) 0.00115(13) -0.01092(11)
N1 N -0.0676(4) 0.3580(3) 0.2286(3)
N2 N -0.3160(3) 0.1962(3) 0.3197(3)
N3 N -0.0406(4) -0.1832(4) 0.5311(4)
N4 N -0.0875(4) -0.0341(4) -0.1681(4)
C1 C -0.1732(4) 0.4202(4) 0.2606(4)
H1 H -0.1621 0.5218 0.2568
C2 C -0.3117(4) 0.3381(4) 0.3031(4)
C3 C -0.4307(5) 0.4062(5) 0.3261(5)
H2 H -0.4243 0.5047 0.3141
C4 C -0.5583(5) 0.3254(5) 0.3669(5)
H3 H -0.6403 0.3679 0.3808
C5 C -0.5627(5) 0.1814(5) 0.3866(4)
H4 H -0.6457 0.1262 0.4173
C6 C -0.4411(4) 0.1197(5) 0.3598(4)
H5 H -0.4463 0.0208 0.3702
C7 C 0.0674(4) 0.4469(4) 0.1939(4)
C8 C 0.1404(5) 0.5954(5) 0.2672(5)
H6 H 0.1028 0.6386 0.3412
C9 C 0.2704(5) 0.6789(5) 0.2290(5)
H7 H 0.3190 0.7786 0.2771
C10 C 0.3278(5) 0.6151(5) 0.1206(5)
H8 H 0.4145 0.6716 0.0954
C11 C 0.2557(5) 0.4669(5) 0.0494(5)
H9 H 0.2946 0.4235 -0.0236
C12 C 0.1262(4) 0.3823(4) 0.0856(4)
H10 H 0.0787 0.2824 0.0375
C13 C -0.1239(4) -0.1790(4) 0.4315(4)
C14 C -0.1784(4) -0.0188(4) -0.1012(4)
N3A N 0.0406(4) 0.1832(4) 0.4689(4)
Cd1A Cd 0.11599(3) -0.09623(3) 0.75534(3)
N4A N 0.0875(4) 0.0341(4) 0.1681(4)
Cd1A_2 Cd 0.11599(3) -0.09623(3) -0.24466(3)
loop_
_geom_bond_atom_site_label_1
_geom_bond_atom_site_label_2
_geom_bond_site_symmetry_1
_geom_bond_site_symmetry_2
Cd1 S1 1_555 1_555
S1 C13 1_555 1_555
S2 Cd1 1_555 1_555
N1 Cd1 1_555 1_555
N2 Cd1 1_555 1_555
N3 C13 1_555 1_555
N4 C14 1_555 1_555
C1 N1 1_555 1_555
H1 C1 1_555 1_555
C2 N2 1_555 1_555
C3 C2 1_555 1_555
H2 C3 1_555 1_555
C4 C3 1_555 1_555
H3 C4 1_555 1_555
C5 C4 1_555 1_555
H4 C5 1_555 1_555
C6 N2 1_555 1_555
H5 C6 1_555 1_555
C7 N1 1_555 1_555
C8 C7 1_555 1_555
H6 C8 1_555 1_555
C9 C8 1_555 1_555
H7 C9 1_555 1_555
C10 C9 1_555 1_555
H8 C10 1_555 1_555
C11 C10 1_555 1_555
H9 C11 1_555 1_555
C12 C7 1_555 1_555
H10 C12 1_555 1_555
C14 S2 1_555 1_555
N3A Cd1 1_555 1_555
Cd1A N3 1_555 1_555
N4A Cd1 1_555 1_555
Cd1A_2 N4 1_555 1_555
C1 C2 1_555 1_555
C5 C6 1_555 1_555
C11 C12 1_555 1_555

#END
