
#######################################################################
#
#                 Cambridge Crystallographic Data Centre
#                                CCDC 
#
#######################################################################
#
# If this CIF has been generated from an entry in the Cambridge 
# Structural Database, then it will include bibliographic, chemical, 
# crystal, experimental, refinement or atomic coordinate data resulting 
# from the CCDC's data processing and validation procedures.
#
#######################################################################

data_ABIRIN
_symmetry_cell_setting           monoclinic
_symmetry_space_group_name_H-M   'P 21/c'
_symmetry_Int_Tables_number      14
_space_group_name_Hall           '-P 2ybc'
loop_
_symmetry_equiv_pos_site_id
_symmetry_equiv_pos_as_xyz
1 x,y,z
2 -x,1/2+y,1/2-z
3 -x,-y,-z
4 x,1/2-y,1/2+z
_cell_length_a                   8.4228(4)
_cell_length_b                   7.6234(4)
_cell_length_c                   16.4719(8)
_cell_angle_alpha                90
_cell_angle_beta                 97.792(3)
_cell_angle_gamma                90
_cell_volume                     1047.9
loop_
_atom_site_label
_atom_site_type_symbol
_atom_site_fract_x
_atom_site_fract_y
_atom_site_fract_z
Ag1 Ag -0.25319(3) 0.07317(4) 0.261460(16)
C1 C -0.2352(4) 0.3712(5) 0.3998(2)
H1 H -0.1980 0.4030 0.4582
C2 C -0.4163(4) 0.3936(5) 0.3828(2)
H2 H -0.4553 0.3505 0.3270
H3 H -0.4673 0.3220 0.4223
C3 C -0.4649(4) 0.5835(5) 0.38995(19)
H4 H -0.4322 0.6241 0.4475
C4 C -0.3837(4) 0.6980(5) 0.33221(19)
H5 H -0.4144 0.8219 0.3391
H6 H -0.4218 0.6635 0.2749
C5 C -0.2020(4) 0.6820(4) 0.3479(2)
H7 H -0.1646 0.7268 0.4043
C6 C -0.1519(4) 0.4907(4) 0.3439(2)
H8 H -0.0345 0.4820 0.3596
H9 H -0.1771 0.4489 0.2867
N1 N -0.1936(4) 0.1866(4) 0.38646(16)
H10 H -0.2433 0.1189 0.4218
H11 H -0.0849 0.1745 0.4016
N2 N -0.6418(4) 0.6007(4) 0.36943(18)
H12 H -0.670(4) 0.708(3) 0.379(2)
H13 H -0.692(4) 0.524(4) 0.3960(19)
N3 N -0.1300(4) 0.7929(4) 0.28846(18)
H14 H -0.134(4) 0.737(4) 0.2420(14)
H15 H -0.028(2) 0.805(5) 0.3089(19)
N3_2 N -0.1300(4) -0.2071(4) 0.28846(18)
Ag1_2 Ag -0.25319(3) 1.07317(4) 0.261460(16)
H14_2 H -0.134(4) -0.263(4) 0.2420(14)
H15_2 H -0.028(2) -0.195(5) 0.3089(19)
N2A N -0.3582(4) 0.1007(4) 0.13057(18)
Ag1A Ag -0.74681(3) 0.57317(4) 0.238540(16)
H12A H -0.330(4) 0.208(3) 0.121(2)
H13A H -0.308(4) 0.024(4) 0.1040(19)
B1 B 0.2490(5) 0.0641(6) 0.4215(2)
F1 F 0.1771(3) 0.2288(3) 0.40473(14)
F2 F 0.3475(3) 0.0275(3) 0.36307(13)
F3 F 0.3329(3) 0.0661(3) 0.49881(11)
F4 F 0.1299(3) -0.0642(3) 0.41760(14)
loop_
_geom_bond_atom_site_label_1
_geom_bond_atom_site_label_2
_geom_bond_site_symmetry_1
_geom_bond_site_symmetry_2
Ag1 N1 1_555 1_555
C1 H1 1_555 1_555
C2 C1 1_555 1_555
H2 C2 1_555 1_555
H3 C2 1_555 1_555
C3 C2 1_555 1_555
H4 C3 1_555 1_555
C4 C3 1_555 1_555
H5 C4 1_555 1_555
H6 C4 1_555 1_555
C5 C4 1_555 1_555
H7 C5 1_555 1_555
C6 C1 1_555 1_555
H8 C6 1_555 1_555
H9 C6 1_555 1_555
N1 C1 1_555 1_555
H10 N1 1_555 1_555
H11 N1 1_555 1_555
N2 C3 1_555 1_555
H12 N2 1_555 1_555
H13 N2 1_555 1_555
N3 C5 1_555 1_555
H14 N3 1_555 1_555
H15 N3 1_555 1_555
B1 F1 1_555 1_555
F2 B1 1_555 1_555
F3 B1 1_555 1_555
F4 B1 1_555 1_555
N3_2 Ag1 1_555 1_555
Ag1_2 N3 1_555 1_555
H14_2 N3_2 1_555 1_555
H15_2 N3_2 1_555 1_555
N2A Ag1 1_555 1_555
Ag1A N2 1_555 1_555
H12A N2A 1_555 1_555
H13A N2A 1_555 1_555
C5 C6 1_555 1_555

#END
