
#######################################################################
#
#                 Cambridge Crystallographic Data Centre
#                                CCDC 
#
#######################################################################
#
# If this CIF has been generated from an entry in the Cambridge 
# Structural Database, then it will include bibliographic, chemical, 
# crystal, experimental, refinement or atomic coordinate data resulting 
# from the CCDC's data processing and validation procedures.
#
#######################################################################

data_ABIREJ
_symmetry_cell_setting           monoclinic
_symmetry_space_group_name_H-M   'P 21'
_symmetry_Int_Tables_number      4
_space_group_name_Hall           'P 2yb'
loop_
_symmetry_equiv_pos_site_id
_symmetry_equiv_pos_as_xyz
1 x,y,z
2 -x,1/2+y,-z
_cell_length_a                   7.3136(8)
_cell_length_b                   8.0334(13)
_cell_length_c                   8.9245(12)
_cell_angle_alpha                90
_cell_angle_beta                 101.289(8)
_cell_angle_gamma                90
_cell_volume                     514.197
loop_
_atom_site_label
_atom_site_type_symbol
_atom_site_fract_x
_atom_site_fract_y
_atom_site_fract_z
Ag1 Ag -0.23989(13) 0.74968(19) -0.51125(12)
C1 C 0.0957(16) 0.3100(15) -0.1599(16)
H1 H 0.1389 0.3475 -0.0519
C2 C -0.074(2) 0.0674(19) -0.3039(18)
H2 H 0.0130 0.0665 -0.3771
N1 N -0.1456(14) -0.1037(13) -0.2918(12)
N2 N 0.2678(13) 0.3130(13) -0.2367(12)
N3 N -0.3250(14) 0.4815(14) -0.4470(13)
C3 C -0.1681(19) 0.3578(17) -0.3882(18)
H3 H -0.0822 0.3526 -0.4625
C4 C -0.2398(19) 0.1861(17) -0.3669(17)
H4 H -0.3092 0.1434 -0.4659
H5 H -0.3266 0.1901 -0.2946
C5 C -0.058(2) 0.427(2) -0.2321(18)
H6 H -0.0042 0.5366 -0.2491
H7 H -0.1458 0.4431 -0.1615
C6 C 0.027(2) 0.1367(19) -0.1536(19)
H8 H -0.0585 0.1328 -0.0800
H9 H 0.1340 0.0635 -0.1138
N2A N -0.2678(13) 0.8130(13) -0.7633(12)
Ag1A Ag 0.23989(13) 0.24968(19) -0.48875(12)
N1_2 N -0.1456(14) 0.8963(13) -0.2918(12)
Ag1_2 Ag -0.23989(13) -0.25032(19) -0.51125(12)
Cl1 Cl 0.5902(4) 0.2764(7) -0.8498(4)
O1 O 0.4499(17) 0.1494(16) -0.8371(16)
O2 O 0.6420(12) 0.2750(18) -0.9947(10)
O3 O 0.7532(11) 0.244(3) -0.7346(9)
O4 O 0.5165(17) 0.4357(14) -0.8215(16)
loop_
_geom_bond_atom_site_label_1
_geom_bond_atom_site_label_2
_geom_bond_site_symmetry_1
_geom_bond_site_symmetry_2
Ag1 N3 1_555 1_555
Cl1 O1 1_555 1_555
O2 Cl1 1_555 1_555
O3 Cl1 1_555 1_555
C1 H1 1_555 1_555
C2 H2 1_555 1_555
N1 C2 1_555 1_555
N2 C1 1_555 1_555
O4 Cl1 1_555 1_555
N3 C3 1_555 1_555
C3 H3 1_555 1_555
C4 C2 1_555 1_555
H4 C4 1_555 1_555
H5 C4 1_555 1_555
C5 C1 1_555 1_555
H6 C5 1_555 1_555
H7 C5 1_555 1_555
C6 C1 1_555 1_555
H8 C6 1_555 1_555
H9 C6 1_555 1_555
N2A Ag1 1_555 1_555
Ag1A N2 1_555 1_555
N1_2 Ag1 1_555 1_555
Ag1_2 N1 1_555 1_555
C2 C6 1_555 1_555
C3 C5 1_555 1_555
C3 C4 1_555 1_555

#END
