
#######################################################################
#
#                 Cambridge Crystallographic Data Centre
#                                CCDC 
#
#######################################################################
#
# If this CIF has been generated from an entry in the Cambridge 
# Structural Database, then it will include bibliographic, chemical, 
# crystal, experimental, refinement or atomic coordinate data resulting 
# from the CCDC's data processing and validation procedures.
#
#######################################################################

data_ABITIP
_symmetry_cell_setting           hexagonal
_symmetry_space_group_name_H-M   'P 61'
_symmetry_Int_Tables_number      169
_space_group_name_Hall           'P 61'
loop_
_symmetry_equiv_pos_site_id
_symmetry_equiv_pos_as_xyz
1 x,y,z
2 -y,x-y,1/3+z
3 -x+y,-x,2/3+z
4 -x,-y,1/2+z
5 y,-x+y,5/6+z
6 x-y,x,1/6+z
_cell_length_a                   13.1912(3)
_cell_length_b                   13.1912(3)
_cell_length_c                   32.5625(13)
_cell_angle_alpha                90
_cell_angle_beta                 90
_cell_angle_gamma                120
_cell_volume                     4907.01
loop_
_atom_site_label
_atom_site_type_symbol
_atom_site_fract_x
_atom_site_fract_y
_atom_site_fract_z
Au1 Au 0.951304(10) 0.100368(11) 0.704527(4)
Ag1 Ag 0.87207(2) 0.01861(3) 0.787485(9)
N1 N 0.7550(2) -0.1526(2) 0.70929(9)
N2 N 0.6938(3) -0.0462(3) 0.68122(10)
N3 N 1.2138(2) 0.2275(3) 0.70051(11)
N4 N 1.1594(3) 0.3386(3) 0.72965(10)
N5 N 0.7477(3) 0.0856(3) 0.78487(12)
N6 N 0.8957(3) -0.1293(3) 0.75870(11)
C1 C 0.5897(4) 0.0610(4) 0.67237(14)
H1 H 0.5235 0.0006 0.6862
N7 N 1.1437(3) 0.0822(3) 0.64978(10)
C2 C 0.9884(3) 0.3644(3) 0.72580(13)
H2 H 0.9646 0.3219 0.7007
C3 C 0.7901(3) -0.0405(3) 0.69826(11)
C4 C 0.6381(3) -0.2273(3) 0.69878(13)
H3 H 0.5941 -0.3095 0.7030
C5 C 0.6003(3) -0.1597(3) 0.68159(12)
H4 H 0.5237 -0.1851 0.6715
C6 C 0.8326(3) -0.1896(3) 0.72623(12)
C7 C 0.8396(3) -0.2794(3) 0.70777(13)
H5 H 0.7910 -0.3206 0.6851
C8 C 0.9203(4) -0.3080(4) 0.72338(13)
H6 H 0.9282 -0.3695 0.7116
C9 C 0.9888(3) -0.2451(3) 0.75644(13)
H7 H 1.0458 -0.2617 0.7673
C10 C 0.9733(3) -0.1577(3) 0.77356(13)
H8 H 1.0192 -0.1163 0.7967
C11 C 0.6897(3) 0.0542(3) 0.66601(11)
N8 N 0.7861(3) 0.1353(3) 0.64711(11)
C12 C 0.7846(3) 0.2304(3) 0.63368(12)
H9 H 0.8527 0.2900 0.6205
C13 C 0.6889(4) 0.2469(4) 0.63787(14)
H10 H 0.6913 0.3154 0.6275
C14 C 0.5903(4) 0.1613(4) 0.65745(16)
H11 H 0.5236 0.1701 0.6608
C15 C 1.1165(3) 0.2335(3) 0.71061(11)
C16 C 1.3147(3) 0.3253(4) 0.71454(13)
H12 H 1.3927 0.3401 0.7118
C17 C 1.2807(3) 0.3948(4) 0.73262(14)
H13 H 1.3302 0.4685 0.7451
C18 C 1.1399(4) -0.0128(3) 0.63315(14)
H14 H 1.0909 -0.0481 0.6100
C19 C 1.2037(4) -0.0615(4) 0.64809(14)
H15 H 1.1982 -0.1293 0.6357
C20 C 1.2762(4) -0.0091(4) 0.68158(14)
H16 H 1.3223 -0.0400 0.6921
C21 C 1.2814(4) 0.0870(4) 0.69930(13)
H17 H 1.3300 0.1240 0.7224
C22 C 1.2125(3) 0.1289(3) 0.68219(12)
C23 C 1.0892(3) 0.3839(3) 0.74586(12)
N9 N 1.1318(3) 0.4472(3) 0.78017(11)
C24 C 1.0701(4) 0.4919(4) 0.79652(13)
H18 H 1.0993 0.5387 0.8205
C25 C 0.9628(4) 0.4728(4) 0.77980(14)
H19 H 0.9190 0.5027 0.7930
C26 C 0.9233(4) 0.4092(3) 0.74365(13)
H20 H 0.8527 0.3965 0.7312
C27 C 0.6961(4) 0.1321(4) 0.77968(16)
C28 C 0.6297(5) 0.1926(5) 0.7709(2)
Ag1D Ag 1.01861(3) 0.14654(4) 0.620818(9)
Au1E Au 0.850936(15) -0.048696(10) 0.871194(4)
N7E N 1.0615(4) 0.1437(3) 0.81645(10)
B1 B 0.0870(5) 0.4378(4) 0.12106(16)
F1 F 0.1943(3) 0.4451(3) 0.12783(9)
F2 F 0.0918(3) 0.4972(2) 0.08487(8)
F3 F 0.0610(2) 0.4885(2) 0.15371(8)
F4 F 0.0000(3) 0.3220(2) 0.11768(11)
B2 B 0.1682(4) 0.5985(4) 0.91912(15)
F5 F 0.2449(2) 0.7172(2) 0.92642(9)
F6 F 0.1556(2) 0.5375(2) 0.95559(10)
F7 F 0.2160(2) 0.5592(3) 0.88897(9)
F8 F 0.0600(2) 0.5794(2) 0.90591(9)
N10 N 0.3731(6) 0.7290(6) 0.0278(2)
C29 C 0.3184(5) 0.5079(5) 0.0369(2)
H21 H 0.3039 0.4845 0.0659
H22 H 0.3838 0.4998 0.0268
H23 H 0.2480 0.4577 0.0208
C30 C 0.3469(5) 0.6292(6) 0.0330(2)
loop_
_geom_bond_atom_site_label_1
_geom_bond_atom_site_label_2
_geom_bond_site_symmetry_1
_geom_bond_site_symmetry_2
Au1 Ag1 1_555 1_555
Ag1 N5 1_555 1_555
B1 F1 1_555 1_555
B2 F5 1_555 1_555
F2 B1 1_555 1_555
F3 B1 1_555 1_555
F4 B1 1_555 1_555
F6 B2 1_555 1_555
F7 B2 1_555 1_555
F8 B2 1_555 1_555
N1 C3 1_555 1_555
N2 C3 1_555 1_555
N3 C15 1_555 1_555
N4 C15 1_555 1_555
N5 C27 1_555 1_555
N6 Ag1 1_555 1_555
C1 H1 1_555 1_555
N7 C18 1_555 1_555
C2 H2 1_555 1_555
C3 Au1 1_555 1_555
C4 N1 1_555 1_555
H3 C4 1_555 1_555
C5 N2 1_555 1_555
H4 C5 1_555 1_555
C6 N1 1_555 1_555
C7 C6 1_555 1_555
H5 C7 1_555 1_555
C8 C7 1_555 1_555
H6 C8 1_555 1_555
C9 C8 1_555 1_555
H7 C9 1_555 1_555
C10 N6 1_555 1_555
H8 C10 1_555 1_555
C11 N2 1_555 1_555
N8 C11 1_555 1_555
C12 N8 1_555 1_555
H9 C12 1_555 1_555
C13 C12 1_555 1_555
H10 C13 1_555 1_555
C14 C1 1_555 1_555
H11 C14 1_555 1_555
C15 Au1 1_555 1_555
C16 N3 1_555 1_555
H12 C16 1_555 1_555
C17 N4 1_555 1_555
H13 C17 1_555 1_555
C18 H14 1_555 1_555
C19 C18 1_555 1_555
H15 C19 1_555 1_555
C20 C19 1_555 1_555
H16 C20 1_555 1_555
C21 C20 1_555 1_555
H17 C21 1_555 1_555
C22 N3 1_555 1_555
C23 N4 1_555 1_555
N9 C23 1_555 1_555
C24 N9 1_555 1_555
H18 C24 1_555 1_555
C25 C24 1_555 1_555
H19 C25 1_555 1_555
C26 C2 1_555 1_555
H20 C26 1_555 1_555
C27 C28 1_555 1_555
N10 C30 1_555 1_555
C29 H21 1_555 1_555
H22 C29 1_555 1_555
H23 C29 1_555 1_555
C30 C29 1_555 1_555
Ag1D Au1 1_555 1_555
Au1E Ag1 1_555 1_555
N7E Ag1 1_555 1_555
N6 C6 1_555 1_555
C1 C11 1_555 1_555
N7 C22 1_555 1_555
N7 Ag1D 1_555 1_555
C2 C23 1_555 1_555
C4 C5 1_555 1_555
C9 C10 1_555 1_555
C13 C14 1_555 1_555
C16 C17 1_555 1_555
C21 C22 1_555 1_555
C25 C26 1_555 1_555

#END
