
#######################################################################
#
#                 Cambridge Crystallographic Data Centre
#                                CCDC 
#
#######################################################################
#
# If this CIF has been generated from an entry in the Cambridge 
# Structural Database, then it will include bibliographic, chemical, 
# crystal, experimental, refinement or atomic coordinate data resulting 
# from the CCDC's data processing and validation procedures.
#
#######################################################################

data_ABIVEO
_symmetry_cell_setting           monoclinic
_symmetry_space_group_name_H-M   'P 21/n'
_symmetry_Int_Tables_number      14
_space_group_name_Hall           '-P 2yn'
loop_
_symmetry_equiv_pos_site_id
_symmetry_equiv_pos_as_xyz
1 x,y,z
2 1/2-x,1/2+y,1/2-z
3 -x,-y,-z
4 1/2+x,1/2-y,1/2+z
_cell_length_a                   9.1594(10)
_cell_length_b                   6.8864(7)
_cell_length_c                   17.290(2)
_cell_angle_alpha                90
_cell_angle_beta                 102.629(3)
_cell_angle_gamma                90
_cell_volume                     1064.19
loop_
_atom_site_label
_atom_site_type_symbol
_atom_site_fract_x
_atom_site_fract_y
_atom_site_fract_z
Co1 Co 0.65493(3) 0.18066(4) 0.345904(15)
Cl1 Cl 0.78145(6) 0.33046(8) 0.45778(3)
O1 O 0.72214(14) 0.35310(18) 0.26733(8)
O2 O 0.73349(14) 0.42904(19) 0.14367(8)
O3 O 0.50160(13) 0.11233(18) 0.22442(8)
N1 N 0.44182(18) 0.1639(2) 0.36545(10)
C1 C 0.68119(19) 0.3355(2) 0.19372(12)
C2 C 0.5564(2) 0.1948(3) 0.15974(12)
H1 H 0.4755 0.2630 0.1234
H2 H 0.5941 0.0919 0.1301
C3 C 0.35201(19) 0.1336(2) 0.22521(12)
C4 C 0.2378(2) 0.1324(3) 0.15959(13)
H3 H 0.2581 0.1235 0.1087
C5 C 0.0887(2) 0.1449(3) 0.16906(14)
H4 H 0.0099 0.1454 0.1239
C6 C 0.0569(2) 0.1562(3) 0.24199(15)
H5 H -0.0433 0.1626 0.2467
C7 C 0.1729(2) 0.1583(3) 0.31090(14)
C8 C 0.1498(2) 0.1733(3) 0.38867(15)
H6 H 0.0519 0.1772 0.3971
C9 C 0.2682(3) 0.1822(3) 0.45158(15)
H7 H 0.2531 0.1895 0.5036
C10 C 0.4145(2) 0.1805(3) 0.43736(13)
H8 H 0.4961 0.1916 0.4809
C11 C 0.3236(2) 0.1501(2) 0.30236(12)
Co1A Co 0.84507(3) 0.68066(4) 0.154096(15)
O2A O 0.76651(14) -0.07096(19) 0.35633(8)
loop_
_geom_bond_atom_site_label_1
_geom_bond_atom_site_label_2
_geom_bond_site_symmetry_1
_geom_bond_site_symmetry_2
Co1 Cl1 1_555 1_555
O1 Co1 1_555 1_555
O2 C1 1_555 1_555
O3 Co1 1_555 1_555
N1 Co1 1_555 1_555
C1 O1 1_555 1_555
C2 O3 1_555 1_555
H1 C2 1_555 1_555
H2 C2 1_555 1_555
C3 O3 1_555 1_555
C4 C3 1_555 1_555
H3 C4 1_555 1_555
C5 C4 1_555 1_555
H4 C5 1_555 1_555
C6 C5 1_555 1_555
H5 C6 1_555 1_555
C7 C6 1_555 1_555
C8 C7 1_555 1_555
H6 C8 1_555 1_555
C9 C8 1_555 1_555
H7 C9 1_555 1_555
C10 N1 1_555 1_555
H8 C10 1_555 1_555
C11 N1 1_555 1_555
Co1A O2 1_555 1_555
O2A Co1 1_555 1_555
C1 C2 1_555 1_555
C3 C11 1_555 1_555
C7 C11 1_555 1_555
C9 C10 1_555 1_555

#END
