
#######################################################################
#
#                 Cambridge Crystallographic Data Centre
#                                CCDC 
#
#######################################################################
#
# If this CIF has been generated from an entry in the Cambridge 
# Structural Database, then it will include bibliographic, chemical, 
# crystal, experimental, refinement or atomic coordinate data resulting 
# from the CCDC's data processing and validation procedures.
#
#######################################################################

data_ABIVOY
_symmetry_cell_setting           orthorhombic
_symmetry_space_group_name_H-M   'P n a 21'
_symmetry_Int_Tables_number      33
_space_group_name_Hall           'P 2c -2n'
loop_
_symmetry_equiv_pos_site_id
_symmetry_equiv_pos_as_xyz
1 x,y,z
2 -x,-y,1/2+z
3 1/2+x,1/2-y,z
4 1/2-x,1/2+y,1/2+z
_cell_length_a                   7.3333(2)
_cell_length_b                   16.7044(3)
_cell_length_c                   10.4817(2)
_cell_angle_alpha                90
_cell_angle_beta                 90
_cell_angle_gamma                90
_cell_volume                     1283.99
loop_
_atom_site_label
_atom_site_type_symbol
_atom_site_fract_x
_atom_site_fract_y
_atom_site_fract_z
Ba1 Ba 0.89079(3) 0.081641(12) 0.66811(5)
C1 C 0.6237(7) 0.2730(3) 0.2560(5)
C2 C 0.6393(8) 0.1901(3) 0.2503(5)
C3 C 0.6800(7) 0.1510(3) 0.1365(4)
H1 H 0.6927 0.0938 0.1349
C4 C 0.7047(8) 0.1967(3) 0.0265(5)
C5 C 0.6919(9) 0.2797(3) 0.0318(5)
C6 C 0.6518(7) 0.3172(3) 0.1460(5)
C7 C 0.6362(7) 0.4073(3) 0.1521(9)
C8 C 0.7515(9) 0.1567(3) -0.1005(5)
H2 H 0.599(8) 0.301(4) 0.343(7)
H3 H 0.716(8) 0.309(3) -0.046(6)
O1 O 0.6552(7) 0.4488(3) 0.0531(4)
H4 H 0.6746 0.4368 -0.0245
O2 O 0.6001(7) 0.4401(3) 0.2549(5)
O3 O 0.7672(7) 0.1396(3) 0.4679(4)
O4 O 1.1643(9) 0.0843(2) 0.8051(6)
H5 H 1.1460 0.0540 0.8690
H6 H 1.2562 0.0676 0.7636
O5 O 1.1737(7) 0.0528(3) 0.5393(5)
H7 H 1.2050 0.0945 0.4982
H8 H 1.1527 0.0149 0.4873
O6 O 0.5545(5) 0.0502(2) 0.6726(6)
H9 H 0.5282 0.0284 0.7435
H10 H 0.4942 0.0934 0.6645
O7 O 0.7546(7) 0.1974(2) -0.1997(3)
O8 O 0.7895(7) 0.08304(19) -0.1013(3)
O9 O 1.0567(6) 0.2084(2) 0.6210(4)
H11 H 1.1421 0.2145 0.6749
H12 H 0.9832 0.2476 0.6261
O10 O 0.5686(6) 0.0511(2) 0.3520(4)
O11 O 0.4455(6) 0.1699(2) 0.4546(4)
S1 S 0.60158(19) 0.13306(7) 0.39118(11)
Ba1C Ba 0.60921(3) 0.581641(12) 0.16811(5)
Ba1_2 Ba 0.89079(3) 0.081641(12) -0.33189(5)
O1C O 0.8448(7) -0.0512(3) 0.5531(4)
H4C H 0.8254 -0.0632 0.4755
O2C O 0.8999(7) -0.0599(3) 0.7549(5)
O7_2 O 0.7546(7) 0.1974(2) 0.8003(3)
O8_2 O 0.7895(7) 0.08304(19) 0.8987(3)
loop_
_geom_bond_atom_site_label_1
_geom_bond_atom_site_label_2
_geom_bond_site_symmetry_1
_geom_bond_site_symmetry_2
Ba1 O3 1_555 1_555
C1 C2 1_555 1_555
C2 C3 1_555 1_555
C3 H1 1_555 1_555
C4 C3 1_555 1_555
C5 C4 1_555 1_555
C6 C1 1_555 1_555
C7 C6 1_555 1_555
C8 C4 1_555 1_555
H2 C1 1_555 1_555
H3 C5 1_555 1_555
O1 C7 1_555 1_555
H4 O1 1_555 1_555
O2 C7 1_555 1_555
O3 S1 1_555 1_555
O4 Ba1 1_555 1_555
H5 O4 1_555 1_555
H6 O4 1_555 1_555
O5 Ba1 1_555 1_555
H7 O5 1_555 1_555
H8 O5 1_555 1_555
O6 Ba1 1_555 1_555
H9 O6 1_555 1_555
H10 O6 1_555 1_555
O7 C8 1_555 1_555
O8 C8 1_555 1_555
O9 Ba1 1_555 1_555
H11 O9 1_555 1_555
H12 O9 1_555 1_555
O10 S1 1_555 1_555
O11 S1 1_555 1_555
S1 C2 1_555 1_555
Ba1C O1 1_555 1_555
Ba1_2 O7 1_555 1_555
O1C Ba1 1_555 1_555
H4C O1C 1_555 1_555
O2C Ba1 1_555 1_555
O7_2 Ba1 1_555 1_555
O8_2 Ba1 1_555 1_555
C5 C6 1_555 1_555
O2 Ba1C 1_555 1_555
O8 Ba1_2 1_555 1_555

#END
