
#######################################################################
#
#                 Cambridge Crystallographic Data Centre
#                                CCDC 
#
#######################################################################
#
# If this CIF has been generated from an entry in the Cambridge 
# Structural Database, then it will include bibliographic, chemical, 
# crystal, experimental, refinement or atomic coordinate data resulting 
# from the CCDC's data processing and validation procedures.
#
#######################################################################

data_ABIWOY
_symmetry_cell_setting           orthorhombic
_symmetry_space_group_name_H-M   'P b c a'
_symmetry_Int_Tables_number      61
_space_group_name_Hall           '-P 2ac 2ab'
loop_
_symmetry_equiv_pos_site_id
_symmetry_equiv_pos_as_xyz
1 x,y,z
2 1/2+x,y,1/2-z
3 1/2-x,1/2+y,z
4 x,1/2-y,1/2+z
5 -x,-y,-z
6 1/2-x,-y,1/2+z
7 1/2+x,1/2-y,-z
8 -x,1/2+y,1/2-z
_cell_length_a                   9.3620(11)
_cell_length_b                   18.642(2)
_cell_length_c                   25.440(3)
_cell_angle_alpha                90
_cell_angle_beta                 90
_cell_angle_gamma                90
_cell_volume                     4439.95
loop_
_atom_site_label
_atom_site_type_symbol
_atom_site_fract_x
_atom_site_fract_y
_atom_site_fract_z
Cu1 Cu 0.84268(6) -0.09143(3) 0.13558(2)
Cu2 Cu 0.92726(6) 0.05838(3) 0.05798(2)
O1 O 1.0696(3) 0.04844(16) 0.11223(14)
O2 O 1.0293(3) -0.05264(18) 0.15787(12)
O3 O 0.8482(3) -0.15590(17) 0.19291(12)
O4 O 1.0091(3) 0.14811(16) 0.04067(13)
O5 O 0.8295(3) -0.02839(16) 0.07574(12)
N1 N 0.6868(4) -0.1422(2) 0.10155(15)
N2 N 0.8019(4) 0.0594(2) -0.00204(15)
N3 N 1.7000(4) -0.0086(3) 0.19575(19)
H1 H 1.746(5) 0.032(3) 0.1933(17)
H2 H 1.724(5) -0.038(3) 0.2226(18)
C1 C 0.7768(5) -0.2154(3) 0.19830(19)
C2 C 0.8021(6) -0.2577(3) 0.2426(2)
H3 H 0.8698 -0.2427 0.2669
C3 C 0.7303(7) -0.3208(3) 0.2514(3)
H4 H 0.7509 -0.3477 0.2812
C4 C 0.6272(6) -0.3453(3) 0.2163(3)
H5 H 0.5781 -0.3877 0.2227
C5 C 0.5996(5) -0.3054(3) 0.1722(2)
H6 H 0.5318 -0.3217 0.1483
C6 C 0.6712(5) -0.2406(2) 0.1623(2)
C7 C 0.6334(5) -0.2020(3) 0.1164(2)
H7 H 0.5632 -0.2220 0.0950
C8 C 0.6389(6) -0.1070(3) 0.0538(2)
H8 H 0.6478 -0.1401 0.0246
H9 H 0.5387 -0.0947 0.0574
C9 C 0.7026(5) -0.0005(3) -0.0016(2)
H10 H 0.6059 0.0181 -0.0028
H11 H 0.7175 -0.0290 -0.0330
C10 C 0.8048(5) 0.1044(2) -0.04017(19)
H12 H 0.7400 0.0973 -0.0674
C11 C 0.8986(5) 0.1645(2) -0.04452(19)
C12 C 0.8954(5) 0.2057(3) -0.0905(2)
H13 H 0.8327 0.1928 -0.1172
C13 C 0.9809(6) 0.2644(3) -0.0975(2)
H14 H 0.9761 0.2912 -0.1283
C14 C 1.0752(6) 0.2829(3) -0.0576(2)
H15 H 1.1349 0.3223 -0.0619
C15 C 1.0820(5) 0.2443(3) -0.0121(2)
H16 H 1.1462 0.2584 0.0138
C16 C 0.9945(5) 0.1836(2) -0.0030(2)
C17 C 1.1075(5) -0.0028(3) 0.14156(19)
C18 C 1.2616(5) -0.0036(2) 0.15709(16)
C19 C 1.3541(5) 0.0520(2) 0.14267(17)
H17 H 1.3185 0.0907 0.1236
C20 C 1.4966(5) 0.0508(2) 0.15612(17)
H18 H 1.5560 0.0882 0.1459
C21 C 1.5526(5) -0.0063(2) 0.18503(16)
C22 C 1.4627(5) -0.0613(2) 0.19958(17)
H19 H 1.4989 -0.0998 0.2186
C23 C 1.3190(5) -0.0600(2) 0.18630(17)
H20 H 1.2600 -0.0973 0.1970
C24 C 0.7169(7) -0.0444(3) 0.0423(2)
H21 H 0.6509 -0.0146 0.0628
N3_2 N 0.7000(4) -0.0086(3) 0.19575(19)
Cu1_2 Cu 1.84268(6) -0.09143(3) 0.13558(2)
H1_2 H 0.746(5) 0.032(3) 0.1933(17)
H2_2 H 0.724(5) -0.038(3) 0.2226(18)
loop_
_geom_bond_atom_site_label_1
_geom_bond_atom_site_label_2
_geom_bond_site_symmetry_1
_geom_bond_site_symmetry_2
Cu1 O2 1_555 1_555
Cu2 O1 1_555 1_555
O1 C17 1_555 1_555
O2 C17 1_555 1_555
O3 Cu1 1_555 1_555
O4 Cu2 1_555 1_555
O5 Cu1 1_555 1_555
N1 Cu1 1_555 1_555
N2 Cu2 1_555 1_555
N3 H1 1_555 1_555
H2 N3 1_555 1_555
C1 O3 1_555 1_555
C2 C1 1_555 1_555
H3 C2 1_555 1_555
C3 C2 1_555 1_555
H4 C3 1_555 1_555
C4 C3 1_555 1_555
H5 C4 1_555 1_555
C5 C4 1_555 1_555
H6 C5 1_555 1_555
C6 C1 1_555 1_555
C7 N1 1_555 1_555
H7 C7 1_555 1_555
C8 N1 1_555 1_555
H8 C8 1_555 1_555
H9 C8 1_555 1_555
C9 N2 1_555 1_555
H10 C9 1_555 1_555
H11 C9 1_555 1_555
C10 N2 1_555 1_555
H12 C10 1_555 1_555
C11 C10 1_555 1_555
C12 C11 1_555 1_555
H13 C12 1_555 1_555
C13 C12 1_555 1_555
H14 C13 1_555 1_555
C14 C13 1_555 1_555
H15 C14 1_555 1_555
C15 C14 1_555 1_555
H16 C15 1_555 1_555
C16 O4 1_555 1_555
C17 C18 1_555 1_555
C18 C19 1_555 1_555
C19 H17 1_555 1_555
C20 C19 1_555 1_555
H18 C20 1_555 1_555
C21 N3 1_555 1_555
C22 C21 1_555 1_555
H19 C22 1_555 1_555
C23 C18 1_555 1_555
H20 C23 1_555 1_555
C24 O5 1_555 1_555
H21 C24 1_555 1_555
N3_2 Cu1 1_555 1_555
Cu1_2 N3 1_555 1_555
H1_2 N3_2 1_555 1_555
H2_2 N3_2 1_555 1_555
Cu2 O5 1_555 1_555
C5 C6 1_555 1_555
C6 C7 1_555 1_555
C8 C24 1_555 1_555
C9 C24 1_555 1_555
C11 C16 1_555 1_555
C15 C16 1_555 1_555
C20 C21 1_555 1_555
C22 C23 1_555 1_555

#END
