
#######################################################################
#
#                 Cambridge Crystallographic Data Centre
#                                CCDC 
#
#######################################################################
#
# If this CIF has been generated from an entry in the Cambridge 
# Structural Database, then it will include bibliographic, chemical, 
# crystal, experimental, refinement or atomic coordinate data resulting 
# from the CCDC's data processing and validation procedures.
#
#######################################################################

data_ABIWEN
_symmetry_cell_setting           triclinic
_symmetry_space_group_name_H-M   'P -1'
_symmetry_Int_Tables_number      2
_space_group_name_Hall           '-P 1'
loop_
_symmetry_equiv_pos_site_id
_symmetry_equiv_pos_as_xyz
1 x,y,z
2 -x,-y,-z
_cell_length_a                   10.5271(3)
_cell_length_b                   15.5541(3)
_cell_length_c                   15.5872(4)
_cell_angle_alpha                102.377(5)
_cell_angle_beta                 94.021(6)
_cell_angle_gamma                109.653(5)
_cell_volume                     2319.48
loop_
_atom_site_label
_atom_site_type_symbol
_atom_site_fract_x
_atom_site_fract_y
_atom_site_fract_z
Cu1 Cu 0.18116(4) 0.05083(2) 0.09867(3)
Cu2 Cu 0.71762(6) 0.26183(3) 0.64716(3)
S1 S 0.69484(9) 0.23668(6) 0.28920(6)
S2 S 0.26788(9) -0.20880(6) 0.06796(6)
O1 O 0.2940(2) 0.18439(14) 0.15573(15)
O2 O 0.4236(2) 0.12541(15) 0.22361(18)
O3 O 0.8009(4) 0.3069(2) 0.54961(18)
O4 O 0.7844(4) 0.1720(2) 0.4606(2)
O5 O 0.1270(2) -0.08686(14) 0.06990(15)
O6 O -0.0194(3) -0.10376(15) -0.04673(17)
O7 O 0.3583(3) -0.24123(16) 0.24438(15)
O8 O 0.3181(3) -0.39352(16) 0.22840(17)
O9 O 0.7025(4) 0.1061(2) 0.6042(2)
H1 H 0.6072 0.0881 0.5515
N1 N 0.0929(3) 0.04506(18) 0.20949(19)
C1 C 0.0121(5) 0.0921(3) 0.2344(3)
H2 H -0.0048 0.1292 0.1988
C2 C -0.0477(5) 0.0895(3) 0.3087(3)
H3 H -0.1046 0.1234 0.3227
C3 C -0.0236(6) 0.0372(4) 0.3618(4)
H4 H -0.0651 0.0330 0.4123
C4 C 0.0639(7) -0.0101(4) 0.3397(4)
H5 H 0.0856 -0.0448 0.3763
C5 C 0.1181(5) -0.0049(3) 0.2630(3)
H6 H 0.1755 -0.0381 0.2476
N2 N 0.2706(3) 0.05618(18) -0.01174(19)
C6 C 0.3340(4) -0.0023(3) -0.0430(3)
H7 H 0.3391 -0.0461 -0.0120
C7 C 0.3920(5) -0.0008(3) -0.1191(3)
H8 H 0.4384 -0.0413 -0.1371
C8 C 0.3820(5) 0.0597(3) -0.1681(3)
H9 H 0.4189 0.0605 -0.2205
C9 C 0.3157(5) 0.1195(3) -0.1376(3)
H10 H 0.3062 0.1618 -0.1695
C10 C 0.2630(4) 0.1165(3) -0.0593(3)
H11 H 0.2200 0.1586 -0.0387
N3 N 0.9092(4) 0.3068(3) 0.7167(2)
C11 C 0.9419(7) 0.2559(5) 0.7669(4)
H12 H 0.8786 0.1975 0.7672
C12 C 1.0692(9) 0.2891(6) 0.8187(5)
H13 H 1.0941 0.2507 0.8495
C13 C 1.1592(8) 0.3792(6) 0.8247(5)
H14 H 1.2407 0.4044 0.8642
C14 C 1.1270(7) 0.4303(5) 0.7722(5)
H15 H 1.1873 0.4897 0.7717
C15 C 1.0008(6) 0.3903(4) 0.7194(3)
H16 H 0.9784 0.4247 0.6829
N4 N 0.5299(4) 0.2412(2) 0.5849(2)
C16 C 0.5134(7) 0.2919(4) 0.5303(3)
H17 H 0.5905 0.3352 0.5175
C17 C 0.3881(9) 0.2836(6) 0.4918(4)
H18 H 0.3823 0.3200 0.4525
C18 C 0.2731(10) 0.2242(6) 0.5092(6)
H19 H 0.1871 0.2155 0.4812
C19 C 0.2912(10) 0.1777(7) 0.5703(7)
H20 H 0.2159 0.1440 0.5929
C20 C 0.4250(8) 0.1792(5) 0.6013(5)
H21 H 0.4346 0.1364 0.6323
C21 C 0.3923(3) 0.1920(2) 0.2120(2)
C22 C 0.4736(3) 0.2913(2) 0.2662(2)
C23 C 0.4102(4) 0.3571(2) 0.2765(2)
H22 H 0.3202 0.3387 0.2498
C24 C 0.4772(4) 0.4493(3) 0.3254(3)
H23 H 0.4330 0.4924 0.3314
C25 C 0.6097(4) 0.4760(3) 0.3648(3)
H24 H 0.6561 0.5380 0.3976
C26 C 0.6755(4) 0.4115(2) 0.3564(3)
H25 H 0.7649 0.4306 0.3847
C27 C 0.6097(3) 0.3186(2) 0.3062(2)
C28 C 0.8655(3) 0.3079(2) 0.3384(2)
C29 C 0.9544(4) 0.3574(3) 0.2886(3)
H26 H 0.9239 0.3523 0.2296
C30 C 1.0886(4) 0.4145(3) 0.3262(3)
H27 H 1.1472 0.4473 0.2926
C31 C 1.1331(4) 0.4219(3) 0.4127(3)
H28 H 1.2223 0.4604 0.4382
C32 C 1.0472(4) 0.3728(3) 0.4627(3)
H29 H 1.0792 0.3787 0.5216
C33 C 0.9133(4) 0.3145(2) 0.4266(2)
C34 C 0.8264(4) 0.2587(3) 0.4824(2)
C35 C 0.0419(3) -0.1363(2) -0.0002(2)
C36 C 0.0160(3) -0.2400(2) -0.0255(2)
C37 C -0.1108(3) -0.2988(2) -0.0760(2)
H30 H -0.1727 -0.2722 -0.0922
C38 C -0.1459(4) -0.3955(2) -0.1022(2)
H31 H -0.2315 -0.4337 -0.1344
C39 C -0.0523(4) -0.4346(2) -0.0801(2)
H32 H -0.0746 -0.4996 -0.0984
C40 C 0.0745(4) -0.3782(2) -0.0312(2)
H33 H 0.1370 -0.4056 -0.0179
C41 C 0.1101(3) -0.2802(2) -0.0013(2)
C42 C 0.3652(3) -0.2824(2) 0.0480(2)
C43 C 0.4159(4) -0.2928(3) -0.0329(3)
H34 H 0.3914 -0.2655 -0.0758
C44 C 0.5007(5) -0.3424(3) -0.0498(3)
H35 H 0.5342 -0.3479 -0.1035
C45 C 0.5365(5) -0.3842(3) 0.0123(3)
H36 H 0.5951 -0.4171 0.0008
C46 C 0.4860(4) -0.3772(2) 0.0910(3)
H37 H 0.5094 -0.4069 0.1320
C47 C 0.4002(3) -0.3268(2) 0.1108(2)
C48 C 0.3537(3) -0.3222(2) 0.2000(2)
O6A O 0.0194(3) 0.10376(15) 0.04673(17)
O7A O 0.6417(3) 0.24123(16) 0.75562(15)
Cu1A Cu -0.18116(4) -0.05083(2) -0.09867(3)
Cu2A Cu 0.28238(6) -0.26183(3) 0.35284(3)
O10 O 0.4983(4) 0.0479(2) 0.3636(3)
H38 H 0.4815 0.0869 0.3216
loop_
_geom_bond_atom_site_label_1
_geom_bond_atom_site_label_2
_geom_bond_site_symmetry_1
_geom_bond_site_symmetry_2
Cu1 O1 1_555 1_555
Cu2 O3 1_555 1_555
S1 C27 1_555 1_555
S2 C41 1_555 1_555
O1 C21 1_555 1_555
O2 C21 1_555 1_555
O3 C34 1_555 1_555
O4 C34 1_555 1_555
O5 Cu1 1_555 1_555
O6 C35 1_555 1_555
O7 C48 1_555 1_555
O8 C48 1_555 1_555
O9 Cu2 1_555 1_555
H1 O9 1_555 1_555
N1 Cu1 1_555 1_555
C1 N1 1_555 1_555
H2 C1 1_555 1_555
C2 C1 1_555 1_555
H3 C2 1_555 1_555
C3 C2 1_555 1_555
H4 C3 1_555 1_555
C4 C3 1_555 1_555
H5 C4 1_555 1_555
C5 N1 1_555 1_555
H6 C5 1_555 1_555
N2 Cu1 1_555 1_555
C6 N2 1_555 1_555
H7 C6 1_555 1_555
C7 C6 1_555 1_555
H8 C7 1_555 1_555
C8 C7 1_555 1_555
H9 C8 1_555 1_555
C9 C8 1_555 1_555
H10 C9 1_555 1_555
C10 N2 1_555 1_555
H11 C10 1_555 1_555
N3 Cu2 1_555 1_555
C11 N3 1_555 1_555
H12 C11 1_555 1_555
C12 C11 1_555 1_555
H13 C12 1_555 1_555
C13 C12 1_555 1_555
H14 C13 1_555 1_555
C14 C13 1_555 1_555
H15 C14 1_555 1_555
C15 N3 1_555 1_555
H16 C15 1_555 1_555
N4 Cu2 1_555 1_555
C16 N4 1_555 1_555
H17 C16 1_555 1_555
C17 C16 1_555 1_555
H18 C17 1_555 1_555
C18 C17 1_555 1_555
H19 C18 1_555 1_555
C19 C18 1_555 1_555
H20 C19 1_555 1_555
C20 N4 1_555 1_555
H21 C20 1_555 1_555
C21 C22 1_555 1_555
C22 C23 1_555 1_555
C23 H22 1_555 1_555
C24 C23 1_555 1_555
H23 C24 1_555 1_555
C25 C24 1_555 1_555
H24 C25 1_555 1_555
C26 C25 1_555 1_555
H25 C26 1_555 1_555
C27 C22 1_555 1_555
C28 S1 1_555 1_555
C29 C28 1_555 1_555
H26 C29 1_555 1_555
C30 C29 1_555 1_555
H27 C30 1_555 1_555
C31 C30 1_555 1_555
H28 C31 1_555 1_555
C32 C31 1_555 1_555
H29 C32 1_555 1_555
C33 C28 1_555 1_555
C34 C33 1_555 1_555
C35 O5 1_555 1_555
C36 C35 1_555 1_555
C37 C36 1_555 1_555
H30 C37 1_555 1_555
C38 C37 1_555 1_555
H31 C38 1_555 1_555
C39 C38 1_555 1_555
H32 C39 1_555 1_555
C40 C39 1_555 1_555
H33 C40 1_555 1_555
C41 C36 1_555 1_555
C42 S2 1_555 1_555
C43 C42 1_555 1_555
H34 C43 1_555 1_555
C44 C43 1_555 1_555
H35 C44 1_555 1_555
C45 C44 1_555 1_555
H36 C45 1_555 1_555
C46 C45 1_555 1_555
H37 C46 1_555 1_555
C47 C42 1_555 1_555
C48 C47 1_555 1_555
O10 H38 1_555 1_555
O6A Cu1 1_555 1_555
O7A Cu2 1_555 1_555
Cu1A O6 1_555 1_555
Cu2A O7 1_555 1_555
C4 C5 1_555 1_555
C9 C10 1_555 1_555
C14 C15 1_555 1_555
C19 C20 1_555 1_555
C26 C27 1_555 1_555
C32 C33 1_555 1_555
C40 C41 1_555 1_555
C46 C47 1_555 1_555

#END
