
#######################################################################
#
#                 Cambridge Crystallographic Data Centre
#                                CCDC 
#
#######################################################################
#
# If this CIF has been generated from an entry in the Cambridge 
# Structural Database, then it will include bibliographic, chemical, 
# crystal, experimental, refinement or atomic coordinate data resulting 
# from the CCDC's data processing and validation procedures.
#
#######################################################################

data_ABIWAL
_symmetry_cell_setting           monoclinic
_symmetry_space_group_name_H-M   'P 21/c'
_symmetry_Int_Tables_number      14
_space_group_name_Hall           '-P 2ybc'
loop_
_symmetry_equiv_pos_site_id
_symmetry_equiv_pos_as_xyz
1 x,y,z
2 -x,1/2+y,1/2-z
3 -x,-y,-z
4 x,1/2-y,1/2+z
_cell_length_a                   8.2603(9)
_cell_length_b                   11.8162(13)
_cell_length_c                   14.4138(16)
_cell_angle_alpha                90
_cell_angle_beta                 105.309(2)
_cell_angle_gamma                90
_cell_volume                     1356.94
loop_
_atom_site_label
_atom_site_type_symbol
_atom_site_fract_x
_atom_site_fract_y
_atom_site_fract_z
Cd1 Cd 1.0000 0.5000 0.5000
C1 C 0.4992(8) 0.9795(4) 0.4061(4)
H1 H 0.4978 0.9667 0.3422
C2 C 0.5729(5) 0.9014(3) 0.4751(3)
C3 C 0.5725(7) 0.9234(4) 0.5695(4)
H2 H 0.6216 0.8716 0.6173
C4 C 0.6556(5) 0.7997(3) 0.4516(3)
C5 C 0.7718(5) 0.7297(3) 0.5082(3)
H3 H 0.8105 0.7349 0.5748
C6 C 0.7384(6) 0.6728(4) 0.3647(3)
H4 H 0.7473 0.6313 0.3115
C7 C 0.9107(6) 0.4054(4) -0.0393(3)
H5 H 0.8502 0.3413 -0.0650
C8 C 0.9482(6) 0.4248(4) 0.0587(3)
H6 H 0.9127 0.3733 0.0980
C9 C 1.0379(6) 0.5198(3) 0.0994(3)
C10 C 1.0730(5) 0.5375(4) 0.2028(3)
C11 C 1.0220(6) 0.4798(4) 0.2723(3)
H7 H 0.9541 0.4158 0.2616
C12 C 1.1738(6) 0.6166(4) 0.3442(3)
H8 H 1.2318 0.6663 0.3914
C13 C 0.6642(5) 0.3575(3) 0.3628(3)
C14 C 0.5231(7) 0.4229(6) 0.3846(5)
H9 H 0.4824 0.3831 0.4320
H10 H 0.4338 0.4313 0.3270
H11 H 0.5628 0.4963 0.4090
N1 N 0.8233(4) 0.6509(3) 0.4527(3)
N2 N 0.6367(5) 0.7622(3) 0.3603(3)
H12 H 0.5714 0.7905 0.3089
N3 N 1.0863(5) 0.5306(3) 0.3609(3)
N4 N 1.1701(5) 0.6247(3) 0.2509(2)
H13 H 1.2197 0.6755 0.2256
O1 O 0.8085(4) 0.3695(3) 0.4130(3)
O2 O 0.6265(4) 0.2894(3) 0.2941(2)
Cd1_2 Cd 0.0000 1.5000 0.5000
Cd1_3 Cd 1.0000 0.5000 -0.5000
C1B C 0.5008(8) 1.0205(4) 0.5939(4)
H1B H 0.5022 1.0333 0.6578
C2B C 0.4271(5) 1.0986(3) 0.5249(3)
C3B C 0.4275(7) 1.0766(4) 0.4305(4)
H2B H 0.3784 1.1284 0.3827
C4B C 0.3444(5) 1.2003(3) 0.5484(3)
C5B C 0.2282(5) 1.2703(3) 0.4918(3)
H3B H 0.1895 1.2651 0.4252
C6B C 0.2616(6) 1.3272(4) 0.6353(3)
H4B H 0.2527 1.3687 0.6885
C7B C 1.0893(6) 0.5946(4) 0.0393(3)
H5B H 1.1498 0.6587 0.0650
C8B C 1.0518(6) 0.5752(4) -0.0587(3)
H6B H 1.0873 0.6267 -0.0980
C9B C 0.9621(6) 0.4802(3) -0.0994(3)
C10B C 0.9270(5) 0.4625(4) -0.2028(3)
C11B C 0.9780(6) 0.5202(4) -0.2723(3)
H7B H 1.0459 0.5842 -0.2616
C12B C 0.8262(6) 0.3834(4) -0.3442(3)
H8B H 0.7682 0.3337 -0.3914
C13B C 1.3358(5) 0.6425(3) 0.6372(3)
C14B C 1.4769(7) 0.5771(6) 0.6154(5)
H9B H 1.5176 0.6169 0.5680
H10B H 1.5662 0.5687 0.6730
H11B H 1.4372 0.5037 0.5910
N1B N 0.1767(4) 1.3491(3) 0.5473(3)
N1B_2 N 1.1767(4) 0.3491(3) 0.5473(3)
N2B N 0.3633(5) 1.2378(3) 0.6397(3)
H12B H 0.4286 1.2095 0.6911
N3B N 0.9137(5) 0.4694(3) -0.3609(3)
N3B_2 N 0.9137(5) 0.4694(3) 0.6391(3)
N4B N 0.8299(5) 0.3753(3) -0.2509(2)
H13B H 0.7803 0.3245 -0.2256
O1B O 1.1915(4) 0.6305(3) 0.5870(3)
O2B O 1.3735(4) 0.7106(3) 0.7059(2)
loop_
_geom_bond_atom_site_label_1
_geom_bond_atom_site_label_2
_geom_bond_site_symmetry_1
_geom_bond_site_symmetry_2
Cd1 N1 1_555 1_555
C1 H1 1_555 1_555
C2 C1 1_555 1_555
C3 C2 1_555 1_555
H2 C3 1_555 1_555
C4 C2 1_555 1_555
C5 C4 1_555 1_555
H3 C5 1_555 1_555
C6 H4 1_555 1_555
C7 H5 1_555 1_555
C8 C7 1_555 1_555
H6 C8 1_555 1_555
C9 C8 1_555 1_555
C10 C9 1_555 1_555
C11 C10 1_555 1_555
H7 C11 1_555 1_555
C12 H8 1_555 1_555
C13 C14 1_555 1_555
C14 H9 1_555 1_555
H10 C14 1_555 1_555
H11 C14 1_555 1_555
N1 C5 1_555 1_555
N2 C4 1_555 1_555
H12 N2 1_555 1_555
N3 Cd1 1_555 1_555
N4 C10 1_555 1_555
H13 N4 1_555 1_555
O1 Cd1 1_555 1_555
O2 C13 1_555 1_555
Cd1_2 N1B 1_555 1_555
Cd1_3 N3B 1_555 1_555
C1B C3 1_555 1_555
H1B C1B 1_555 1_555
C2B C1B 1_555 1_555
C3B C1 1_555 1_555
H2B C3B 1_555 1_555
C4B C2B 1_555 1_555
C5B C4B 1_555 1_555
H3B C5B 1_555 1_555
C6B H4B 1_555 1_555
C7B C9 1_555 1_555
H5B C7B 1_555 1_555
C8B C7B 1_555 1_555
H6B C8B 1_555 1_555
C9B C7 1_555 1_555
C10B C9B 1_555 1_555
C11B C10B 1_555 1_555
H7B C11B 1_555 1_555
C12B H8B 1_555 1_555
C13B C14B 1_555 1_555
C14B H9B 1_555 1_555
H10B C14B 1_555 1_555
H11B C14B 1_555 1_555
N1B C5B 1_555 1_555
N1B_2 Cd1 1_555 1_555
N2B C4B 1_555 1_555
H12B N2B 1_555 1_555
N3B C11B 1_555 1_555
N3B_2 Cd1 1_555 1_555
N4B C10B 1_555 1_555
H13B N4B 1_555 1_555
O1B Cd1 1_555 1_555
O2B C13B 1_555 1_555
C6 N1 1_555 1_555
C6 N2 1_555 1_555
C11 N3 1_555 1_555
C12 N3 1_555 1_555
C12 N4 1_555 1_555
C13 O1 1_555 1_555
C2B C3B 1_555 1_555
C6B N1B 1_555 1_555
C6B N2B 1_555 1_555
C8B C9B 1_555 1_555
C12B N3B 1_555 1_555
C12B N4B 1_555 1_555
C13B O1B 1_555 1_555

#END
