
#######################################################################
#
#                 Cambridge Crystallographic Data Centre
#                                CCDC 
#
#######################################################################
#
# If this CIF has been generated from an entry in the Cambridge 
# Structural Database, then it will include bibliographic, chemical, 
# crystal, experimental, refinement or atomic coordinate data resulting 
# from the CCDC's data processing and validation procedures.
#
#######################################################################

data_ABIWUF
_symmetry_cell_setting           orthorhombic
_symmetry_space_group_name_H-M   'P 21 21 2'
_symmetry_Int_Tables_number      18
_space_group_name_Hall           'P 2 2ab'
loop_
_symmetry_equiv_pos_site_id
_symmetry_equiv_pos_as_xyz
1 x,y,z
2 -x,-y,z
3 1/2-x,1/2+y,-z
4 1/2+x,1/2-y,-z
_cell_length_a                   14.212(3)
_cell_length_b                   14.392(3)
_cell_length_c                   7.0498(14)
_cell_angle_alpha                90
_cell_angle_beta                 90
_cell_angle_gamma                90
_cell_volume                     1441.96
loop_
_atom_site_label
_atom_site_type_symbol
_atom_site_fract_x
_atom_site_fract_y
_atom_site_fract_z
Cd1 Cd 0.5000 1.0000 0.69323(6)
I1 I 0.64850(3) 1.07494(3) 0.87706(5)
N1 N 0.5398(2) 0.88785(16) 0.4742(3)
C1 C 0.5784(3) 0.91284(14) 0.3004(4)
H1 H 0.5968 0.9739 0.2788
C2 C 0.5895(2) 0.84651(18) 0.1588(3)
H2 H 0.6153 0.8632 0.0425
C3 C 0.5620(2) 0.75519(16) 0.1911(3)
C4 C 0.5234(3) 0.73020(14) 0.3649(4)
H3 H 0.5050 0.6691 0.3865
C5 C 0.5123(3) 0.79653(18) 0.5065(3)
H4 H 0.4864 0.7798 0.6228
O1 O 0.4433(2) 0.5908(2) 0.1375(5)
C6 C 0.5728(2) 0.68458(15) 0.0275(3)
C7 C 0.51551(18) 0.60667(17) 0.0123(4)
C8 C 0.53037(18) 0.54294(14) -0.1328(4)
C9 C 0.6025(2) 0.55713(17) -0.2627(3)
C10 C 0.65983(19) 0.63505(19) -0.2475(4)
C11 C 0.64497(19) 0.69878(15) -0.1025(4)
H5 H 0.6833 0.7509 -0.0923
C12 C 0.7392(4) 0.6547(4) -0.3846(8)
H6 H 0.7701 0.7114 -0.3490
H7 H 0.7143 0.6608 -0.5106
H8 H 0.7836 0.6045 -0.3814
C13 C 0.6233(4) 0.4854(4) -0.4170(8)
H9 H 0.5780 0.4360 -0.4098
H10 H 0.6853 0.4606 -0.3988
H11 H 0.6195 0.5145 -0.5393
C14 C 0.3560(4) 0.6304(4) 0.0842(10)
H12 H 0.3095 0.6163 0.1786
H13 H 0.3366 0.6053 -0.0358
H14 H 0.3627 0.6966 0.0736
Cd1_2 Cd 0.5000 0.0000 0.69323(6)
I1A I 0.35150(3) 0.92506(3) 0.87706(5)
N1A N 0.4602(2) 0.11215(16) 0.4742(3)
N1A_2 N 0.4602(2) 1.11215(16) 0.4742(3)
C1A C 0.4216(3) 0.08716(14) 0.3004(4)
H1A H 0.4032 0.0261 0.2788
C2A C 0.4105(2) 0.15349(18) 0.1588(3)
H2A H 0.3847 0.1368 0.0425
C3A C 0.4380(2) 0.24481(16) 0.1911(3)
C4A C 0.4766(3) 0.26980(14) 0.3649(4)
H3A H 0.4950 0.3309 0.3865
C5A C 0.4877(3) 0.20347(18) 0.5065(3)
H4A H 0.5136 0.2202 0.6228
O1A O 0.5567(2) 0.4092(2) 0.1375(5)
C6A C 0.4272(2) 0.31542(15) 0.0275(3)
C7A C 0.48449(18) 0.39333(17) 0.0123(4)
C8A C 0.46963(18) 0.45706(14) -0.1328(4)
C9A C 0.3975(2) 0.44287(17) -0.2627(3)
C10A C 0.34017(19) 0.36495(19) -0.2475(4)
C11A C 0.35503(19) 0.30122(15) -0.1025(4)
H5A H 0.3167 0.2491 -0.0923
C12A C 0.2608(4) 0.3453(4) -0.3846(8)
H6A H 0.2299 0.2886 -0.3490
H7A H 0.2857 0.3392 -0.5106
H8A H 0.2164 0.3955 -0.3814
C13A C 0.3767(4) 0.5146(4) -0.4170(8)
H9A H 0.4220 0.5640 -0.4098
H10A H 0.3147 0.5394 -0.3988
H11A H 0.3805 0.4855 -0.5393
C14A C 0.6440(4) 0.3696(4) 0.0842(10)
H12A H 0.6905 0.3837 0.1786
H13A H 0.6634 0.3947 -0.0358
H14A H 0.6373 0.3034 0.0736
loop_
_geom_bond_atom_site_label_1
_geom_bond_atom_site_label_2
_geom_bond_site_symmetry_1
_geom_bond_site_symmetry_2
Cd1 I1 1_555 1_555
N1 Cd1 1_555 1_555
C1 N1 1_555 1_555
H1 C1 1_555 1_555
C2 C1 1_555 1_555
H2 C2 1_555 1_555
C3 C2 1_555 1_555
C4 C3 1_555 1_555
H3 C4 1_555 1_555
C5 N1 1_555 1_555
H4 C5 1_555 1_555
O1 C7 1_555 1_555
C6 C3 1_555 1_555
C7 C6 1_555 1_555
C8 C7 1_555 1_555
C9 C8 1_555 1_555
C10 C9 1_555 1_555
C11 C6 1_555 1_555
H5 C11 1_555 1_555
C12 C10 1_555 1_555
H6 C12 1_555 1_555
H7 C12 1_555 1_555
H8 C12 1_555 1_555
C13 C9 1_555 1_555
H9 C13 1_555 1_555
H10 C13 1_555 1_555
H11 C13 1_555 1_555
C14 O1 1_555 1_555
H12 C14 1_555 1_555
H13 C14 1_555 1_555
H14 C14 1_555 1_555
Cd1_2 N1A 1_555 1_555
I1A Cd1 1_555 1_555
N1A C1A 1_555 1_555
N1A_2 Cd1 1_555 1_555
C1A H1A 1_555 1_555
C2A C1A 1_555 1_555
H2A C2A 1_555 1_555
C3A C2A 1_555 1_555
C4A C3A 1_555 1_555
H3A C4A 1_555 1_555
C5A N1A 1_555 1_555
H4A C5A 1_555 1_555
O1A C7A 1_555 1_555
C6A C3A 1_555 1_555
C7A C6A 1_555 1_555
C8A C8 1_555 1_555
C9A C8A 1_555 1_555
C10A C9A 1_555 1_555
C11A C6A 1_555 1_555
H5A C11A 1_555 1_555
C12A C10A 1_555 1_555
H6A C12A 1_555 1_555
H7A C12A 1_555 1_555
H8A C12A 1_555 1_555
C13A C9A 1_555 1_555
H9A C13A 1_555 1_555
H10A C13A 1_555 1_555
H11A C13A 1_555 1_555
C14A O1A 1_555 1_555
H12A C14A 1_555 1_555
H13A C14A 1_555 1_555
H14A C14A 1_555 1_555
C4 C5 1_555 1_555
C10 C11 1_555 1_555
C4A C5A 1_555 1_555
C7A C8A 1_555 1_555
C10A C11A 1_555 1_555

#END
