
#######################################################################
#
#                 Cambridge Crystallographic Data Centre
#                                CCDC 
#
#######################################################################
#
# If this CIF has been generated from an entry in the Cambridge 
# Structural Database, then it will include bibliographic, chemical, 
# crystal, experimental, refinement or atomic coordinate data resulting 
# from the CCDC's data processing and validation procedures.
#
#######################################################################

data_ABIWOX
_symmetry_cell_setting           monoclinic
_symmetry_space_group_name_H-M   'P 21/c'
_symmetry_Int_Tables_number      14
_space_group_name_Hall           '-P 2ybc'
loop_
_symmetry_equiv_pos_site_id
_symmetry_equiv_pos_as_xyz
1 x,y,z
2 x,1/2-y,1/2+z
3 -x,-y,-z
4 -x,1/2+y,1/2-z
_cell_length_a                   7.7895(7)
_cell_length_b                   15.2368(10)
_cell_length_c                   6.4433(6)
_cell_angle_alpha                90.00
_cell_angle_beta                 108.455(7)
_cell_angle_gamma                90.00
_cell_volume                     725.408
loop_
_atom_site_label
_atom_site_type_symbol
_atom_site_fract_x
_atom_site_fract_y
_atom_site_fract_z
Co1 Co 0.22249(6) 0.41924(3) 0.24871(8)
O1 O 0.0994(4) 0.42232(16) -0.1031(5)
O2 O 0.3394(5) 0.4146(2) 0.5974(5)
O3 O -0.5153(4) 0.06240(17) -0.2873(5)
O4 O -0.6160(4) 0.19524(17) -0.2759(5)
O5 O -0.1926(4) 0.45041(17) -0.2795(5)
N1 N 0.0034(4) 0.15540(19) -0.2212(5)
C1 C -0.0619(5) 0.3997(2) -0.1986(6)
C2 C -0.1066(5) 0.3030(2) -0.2201(6)
C3 C -0.2805(5) 0.2718(2) -0.2566(6)
C4 C 0.0327(5) 0.2425(2) -0.1968(6)
C5 C -0.1659(5) 0.1260(2) -0.2546(6)
C6 C -0.3088(5) 0.1815(2) -0.2654(6)
C7 C -0.4922(5) 0.1449(2) -0.2803(6)
H1 H -0.376(6) 0.310(3) -0.274(7)
H2 H 0.163(6) 0.259(3) -0.156(6)
H3 H -0.172(6) 0.068(3) -0.251(7)
H4 H 0.398(8) 0.456(4) 0.668(9)
H5 H 0.277(9) 0.409(4) 0.663(12)
O3A O 0.4847(4) 0.43760(17) 0.2127(5)
O4A O 0.3840(4) 0.30476(17) 0.2241(5)
O5B O 0.1926(4) 0.54959(17) 0.2795(5)
N1A N 0.0034(4) 0.34460(19) 0.2788(5)
Co1A Co -0.77751(6) 0.08076(3) -0.25129(8)
Co1B Co -0.22249(6) 0.58076(3) -0.24871(8)
Co1A_2 Co 0.22249(6) 0.08076(3) -0.25129(8)
loop_
_geom_bond_atom_site_label_1
_geom_bond_atom_site_label_2
_geom_bond_site_symmetry_1
_geom_bond_site_symmetry_2
Co1 O1 1_555 1_555
O1 C1 1_555 1_555
O2 Co1 1_555 1_555
O3 C7 1_555 1_555
O4 C7 1_555 1_555
O5 C1 1_555 1_555
N1 C4 1_555 1_555
C1 C2 1_555 1_555
C2 C3 1_555 1_555
C3 C6 1_555 1_555
C4 C2 1_555 1_555
C5 N1 1_555 1_555
C6 C5 1_555 1_555
C7 C6 1_555 1_555
H1 C3 1_555 1_555
H2 C4 1_555 1_555
H3 C5 1_555 1_555
H4 O2 1_555 1_555
H5 O2 1_555 1_555
O3A Co1 1_555 1_555
O4A Co1 1_555 1_555
O5B Co1 1_555 1_555
N1A Co1 1_555 1_555
Co1A O3 1_555 1_555
Co1B O5 1_555 1_555
Co1A_2 N1 1_555 1_555
O4 Co1A 1_555 1_555

#END
