
#######################################################################
#
#                 Cambridge Crystallographic Data Centre
#                                CCDC 
#
#######################################################################
#
# If this CIF has been generated from an entry in the Cambridge 
# Structural Database, then it will include bibliographic, chemical, 
# crystal, experimental, refinement or atomic coordinate data resulting 
# from the CCDC's data processing and validation procedures.
#
#######################################################################

data_ABIXAM
_symmetry_cell_setting           orthorhombic
_symmetry_space_group_name_H-M   'P 21 21 2'
_symmetry_Int_Tables_number      18
_space_group_name_Hall           'P 2 2ab'
loop_
_symmetry_equiv_pos_site_id
_symmetry_equiv_pos_as_xyz
1 x,y,z
2 -x,-y,z
3 1/2-x,1/2+y,-z
4 1/2+x,1/2-y,-z
_cell_length_a                   14.2038(16)
_cell_length_b                   14.3630(17)
_cell_length_c                   7.0257(8)
_cell_angle_alpha                90
_cell_angle_beta                 90
_cell_angle_gamma                90
_cell_volume                     1433.31
loop_
_atom_site_label
_atom_site_type_symbol
_atom_site_fract_x
_atom_site_fract_y
_atom_site_fract_z
Hg1 Hg 1.0000 1.0000 -0.22527(4)
I1 I 1.15316(3) 0.92369(3) -0.37802(7)
N1 N 0.9607(3) 0.88671(19) 0.0163(4)
C1 C 0.9888(3) 0.7952(2) -0.0140(4)
H1 H 1.0145 0.7779 -0.1305
C2 C 0.9783(3) 0.72950(16) 0.1297(5)
H2 H 0.9971 0.6683 0.1094
C3 C 0.9399(3) 0.75534(19) 0.3038(4)
C4 C 0.9118(3) 0.8469(2) 0.3342(4)
H3 H 0.8861 0.8641 0.4506
C5 C 0.9223(3) 0.91255(16) 0.1904(5)
H4 H 0.9035 0.9738 0.2107
O1 O 1.0578(2) 0.5911(2) 0.3598(5)
C6 C 0.9286(2) 0.68523(19) 0.4686(4)
C7 C 0.9855(2) 0.6069(2) 0.4841(4)
C8 C 0.9702(2) 0.54307(17) 0.6295(5)
C9 C 0.8979(2) 0.5576(2) 0.7595(4)
C10 C 0.8409(2) 0.6359(2) 0.7440(4)
C11 C 0.8562(2) 0.69972(17) 0.5986(5)
H5 H 0.8181 0.7521 0.5882
C12 C 0.7621(4) 0.6572(5) 0.8848(9)
H6 H 0.7314 0.7140 0.8488
H7 H 0.7881 0.6638 1.0102
H8 H 0.7173 0.6071 0.8842
C13 C 0.8758(4) 0.4860(5) 0.9154(9)
H9 H 0.9206 0.4360 0.9093
H10 H 0.8135 0.4617 0.8967
H11 H 0.8795 0.5154 1.0379
C14 C 1.1454(4) 0.6309(5) 0.4160(12)
H12 H 1.1924 0.6171 0.3220
H13 H 1.1642 0.6053 0.5363
H14 H 1.1385 0.6971 0.4275
Hg1_2 Hg 1.0000 0.0000 -0.22527(4)
I1A I 0.84684(3) 1.07631(3) -0.37802(7)
N1A N 1.0393(3) 0.11329(19) 0.0163(4)
N1A_2 N 1.0393(3) 1.11329(19) 0.0163(4)
C1A C 1.0112(3) 0.2048(2) -0.0140(4)
H1A H 0.9855 0.2221 -0.1305
C2A C 1.0217(3) 0.27050(16) 0.1297(5)
H2A H 1.0029 0.3317 0.1094
C3A C 1.0601(3) 0.24466(19) 0.3038(4)
C4A C 1.0882(3) 0.1531(2) 0.3342(4)
H3A H 1.1139 0.1359 0.4506
C5A C 1.0777(3) 0.08745(16) 0.1904(5)
H4A H 1.0965 0.0262 0.2107
O1A O 0.9422(2) 0.4089(2) 0.3598(5)
C6A C 1.0714(2) 0.31477(19) 0.4686(4)
C7A C 1.0145(2) 0.3931(2) 0.4841(4)
C8A C 1.0298(2) 0.45693(17) 0.6295(5)
C9A C 1.1021(2) 0.4424(2) 0.7595(4)
C10A C 1.1591(2) 0.3641(2) 0.7440(4)
C11A C 1.1438(2) 0.30028(17) 0.5986(5)
H5A H 1.1819 0.2479 0.5882
C12A C 1.2379(4) 0.3428(5) 0.8848(9)
H6A H 1.2686 0.2860 0.8488
H7A H 1.2119 0.3362 1.0102
H8A H 1.2827 0.3929 0.8842
C13A C 1.1242(4) 0.5140(5) 0.9154(9)
H9A H 1.0794 0.5640 0.9093
H10A H 1.1865 0.5383 0.8967
H11A H 1.1205 0.4846 1.0379
C14A C 0.8546(4) 0.3691(5) 0.4160(12)
H12A H 0.8076 0.3829 0.3220
H13A H 0.8358 0.3947 0.5363
H14A H 0.8615 0.3029 0.4275
loop_
_geom_bond_atom_site_label_1
_geom_bond_atom_site_label_2
_geom_bond_site_symmetry_1
_geom_bond_site_symmetry_2
Hg1 I1 1_555 1_555
N1 Hg1 1_555 1_555
C1 N1 1_555 1_555
H1 C1 1_555 1_555
C2 C1 1_555 1_555
H2 C2 1_555 1_555
C3 C2 1_555 1_555
C4 C3 1_555 1_555
H3 C4 1_555 1_555
C5 N1 1_555 1_555
H4 C5 1_555 1_555
O1 C7 1_555 1_555
C6 C3 1_555 1_555
C7 C6 1_555 1_555
C8 C7 1_555 1_555
C9 C8 1_555 1_555
C10 C9 1_555 1_555
C11 C6 1_555 1_555
H5 C11 1_555 1_555
C12 C10 1_555 1_555
H6 C12 1_555 1_555
H7 C12 1_555 1_555
H8 C12 1_555 1_555
C13 C9 1_555 1_555
H9 C13 1_555 1_555
H10 C13 1_555 1_555
H11 C13 1_555 1_555
C14 O1 1_555 1_555
H12 C14 1_555 1_555
H13 C14 1_555 1_555
H14 C14 1_555 1_555
Hg1_2 N1A 1_555 1_555
I1A Hg1 1_555 1_555
N1A C1A 1_555 1_555
N1A_2 Hg1 1_555 1_555
C1A H1A 1_555 1_555
C2A C1A 1_555 1_555
H2A C2A 1_555 1_555
C3A C2A 1_555 1_555
C4A C3A 1_555 1_555
H3A C4A 1_555 1_555
C5A N1A 1_555 1_555
H4A C5A 1_555 1_555
O1A C7A 1_555 1_555
C6A C3A 1_555 1_555
C7A C6A 1_555 1_555
C8A C8 1_555 1_555
C9A C8A 1_555 1_555
C10A C9A 1_555 1_555
C11A C6A 1_555 1_555
H5A C11A 1_555 1_555
C12A C10A 1_555 1_555
H6A C12A 1_555 1_555
H7A C12A 1_555 1_555
H8A C12A 1_555 1_555
C13A C9A 1_555 1_555
H9A C13A 1_555 1_555
H10A C13A 1_555 1_555
H11A C13A 1_555 1_555
C14A O1A 1_555 1_555
H12A C14A 1_555 1_555
H13A C14A 1_555 1_555
H14A C14A 1_555 1_555
C4 C5 1_555 1_555
C10 C11 1_555 1_555
C4A C5A 1_555 1_555
C7A C8A 1_555 1_555
C10A C11A 1_555 1_555

#END
