
#######################################################################
#
#                 Cambridge Crystallographic Data Centre
#                                CCDC 
#
#######################################################################
#
# If this CIF has been generated from an entry in the Cambridge 
# Structural Database, then it will include bibliographic, chemical, 
# crystal, experimental, refinement or atomic coordinate data resulting 
# from the CCDC's data processing and validation procedures.
#
#######################################################################

data_ABIXEP
_symmetry_cell_setting           monoclinic
_symmetry_space_group_name_H-M   'P 21/c'
_symmetry_Int_Tables_number      14
_space_group_name_Hall           '-P 2ybc'
loop_
_symmetry_equiv_pos_site_id
_symmetry_equiv_pos_as_xyz
1 x,y,z
2 -x,1/2+y,1/2-z
3 -x,-y,-z
4 x,1/2-y,1/2+z
_cell_length_a                   19.0473(13)
_cell_length_b                   8.1540(6)
_cell_length_c                   29.083(2)
_cell_angle_alpha                90
_cell_angle_beta                 91.183(2)
_cell_angle_gamma                90
_cell_volume                     4515.97
loop_
_atom_site_label
_atom_site_type_symbol
_atom_site_fract_x
_atom_site_fract_y
_atom_site_fract_z
Pb1 Pb 0.251055(15) 0.31373(4) 0.807597(12)
Pb2 Pb -0.245510(17) -0.68032(4) 0.834710(12)
C1 C 0.1511(4) -0.0400(11) 0.8207(3)
H1 H 0.1969 -0.0799 0.8208
C2 C 0.0963(4) -0.1500(11) 0.8215(3)
H2 H 0.1056 -0.2620 0.8215
C3 C 0.0279(4) -0.0959(10) 0.8226(3)
C4 C 0.0182(4) 0.0728(11) 0.8225(3)
H3 H -0.0269 0.1162 0.8241
C5 C 0.0748(4) 0.1752(11) 0.8201(3)
H4 H 0.0666 0.2876 0.8188
C6 C -0.0320(5) -0.2118(12) 0.8228(3)
C7 C -0.0289(5) -0.3620(10) 0.8003(3)
H5 H 0.0111 -0.3904 0.7843
C8 C -0.0852(5) -0.4698(12) 0.8017(3)
H6 H -0.0821 -0.5685 0.7859
C9 C -0.1463(5) -0.2910(12) 0.8455(4)
H7 H -0.1871 -0.2641 0.8609
C10 C -0.0931(5) -0.1768(12) 0.8455(4)
H8 H -0.0982 -0.0772 0.8606
C11 C 0.4294(5) 0.4665(12) 0.8215(4)
H9 H 0.4379 0.3541 0.8210
C12 C 0.4858(5) 0.5705(12) 0.8240(4)
H10 H 0.5311 0.5284 0.8252
C13 C 0.4753(5) 0.7382(11) 0.8249(3)
C14 C 0.4067(5) 0.7896(11) 0.8224(4)
H11 H 0.3970 0.9014 0.8225
C15 C 0.3520(5) 0.6808(13) 0.8199(4)
H12 H 0.3063 0.7206 0.8185
C16 C 0.5348(5) 0.8571(11) 0.8255(3)
C17 C 0.5331(5) 0.9980(12) 0.8010(4)
H13 H 0.4944 1.0223 0.7822
C18 C 0.5895(6) 1.1069(13) 0.8039(4)
H14 H 0.5876 1.2024 0.7864
C19 C 0.6470(5) 0.9396(14) 0.8546(4)
H15 H 0.6860 0.9173 0.8734
C20 C 0.5935(5) 0.8265(12) 0.8528(4)
H16 H 0.5968 0.7303 0.8699
N1 N 0.1408(4) 0.1229(9) 0.8197(3)
N2 N -0.1439(4) -0.4379(10) 0.8250(3)
N3 N 0.3627(4) 0.5185(9) 0.8195(3)
N4 N 0.6462(4) 1.0800(10) 0.8307(3)
N5 N 0.3312(4) 0.0639(10) 0.7428(3)
N6 N 0.1711(4) 0.5682(10) 0.7422(3)
N7 N -0.1677(5) -0.8457(11) 0.9148(4)
N8 N -0.3116(5) -0.4870(10) 0.9131(3)
O1 O 0.3649(4) 0.1570(9) 0.7682(3)
O2 O 0.2672(4) 0.0542(12) 0.7468(4)
O3 O 0.3599(4) -0.0280(10) 0.7158(3)
O4 O 0.1386(3) 0.4710(8) 0.7670(3)
O5 O 0.2356(4) 0.5666(12) 0.7422(3)
O6 O 0.1401(4) 0.6686(9) 0.7182(3)
O7 O -0.1350(4) -0.7634(11) 0.8858(3)
O8 O -0.2300(4) -0.8726(11) 0.9055(3)
O9 O -0.1391(6) -0.8901(14) 0.9489(4)
O10 O -0.2474(4) -0.4931(11) 0.9055(3)
O11 O -0.3491(4) -0.5714(12) 0.8877(3)
O12 O -0.3339(5) -0.4033(12) 0.9435(3)
O13 O 0.2857(4) 0.1382(10) 0.8755(2)
H17 H 0.257(4) 0.152(14) 0.899(2)
H18 H 0.3310(15) 0.132(14) 0.885(3)
O14 O 0.2043(4) 0.4969(10) 0.8673(2)
H19 H 0.219(5) 0.477(14) 0.8964(13)
H20 H 0.1589(19) 0.528(14) 0.869(3)
N4_2 N -0.3538(4) -0.9200(10) 0.8307(3)
O2A O -0.2672(4) -0.4458(12) 0.7532(4)
O3A O -0.3599(4) -0.5280(10) 0.7842(3)
O5A O -0.2356(4) -0.9334(12) 0.7578(3)
O6A O -0.1401(4) -0.8314(9) 0.7818(3)
Pb2_2 Pb 0.754490(17) 1.31968(4) 0.834710(12)
Pb2A Pb 0.245510(17) -0.18032(4) 0.665290(12)
Pb2A_2 Pb 0.245510(17) 0.81968(4) 0.665290(12)
C21 C 0.1997(6) 0.2538(17) 0.4788(5)
H21 H 0.2468 0.2273 0.4834
C22 C 0.1535(6) 0.1940(14) 0.5095(4)
H22 H 0.1688 0.1285 0.5338
C23 C 0.0827(5) 0.2327(12) 0.5036(3)
C24 C 0.0655(6) 0.3319(12) 0.4675(4)
H23 H 0.0190 0.3626 0.4623
C25 C 0.1166(6) 0.3869(13) 0.4386(4)
H24 H 0.1030 0.4564 0.4147
C26 C 0.0300(5) 0.1652(11) 0.5351(3)
C27 C 0.0440(5) 0.0346(12) 0.5650(3)
H25 H 0.0884 -0.0131 0.5656
C28 C -0.0068(5) -0.0245(12) 0.5937(3)
H26 H 0.0046 -0.1115 0.6131
C29 C -0.0851(6) 0.1598(13) 0.5671(4)
H27 H -0.1297 0.2057 0.5682
C30 C -0.0379(5) 0.2282(12) 0.5357(4)
H28 H -0.0516 0.3129 0.5161
N9 N 0.1830(5) 0.3480(13) 0.4425(4)
N10 N -0.0713(4) 0.0364(10) 0.5950(3)
C31 C 0.5270(6) 0.6496(14) 0.5881(4)
H29 H 0.5234 0.6262 0.6193
C32 C 0.4671(6) 0.6923(15) 0.5638(4)
H30 H 0.4244 0.6971 0.5786
C33 C 0.4698(5) 0.7273(12) 0.5185(4)
C34 C 0.5345(6) 0.7150(13) 0.4978(4)
H31 H 0.5390 0.7352 0.4666
C35 C 0.5922(6) 0.6718(15) 0.5249(5)
H32 H 0.6356 0.6646 0.5109
C36 C 0.4074(6) 0.7777(12) 0.4915(4)
C37 C 0.3407(6) 0.7222(14) 0.5009(4)
H33 H 0.3340 0.6493 0.5251
C38 C 0.2835(7) 0.7755(17) 0.4744(5)
H34 H 0.2396 0.7321 0.4807
C39 C 0.3521(7) 0.9420(16) 0.4335(4)
H35 H 0.3568 1.0238 0.4115
C40 C 0.4118(7) 0.8895(14) 0.4562(4)
H36 H 0.4554 0.9295 0.4477
N11 N 0.5895(5) 0.6402(11) 0.5693(4)
N12 N 0.2876(6) 0.8839(13) 0.4407(4)
loop_
_geom_bond_atom_site_label_1
_geom_bond_atom_site_label_2
_geom_bond_site_symmetry_1
_geom_bond_site_symmetry_2
Pb1 N1 1_555 1_555
Pb2 N2 1_555 1_555
C1 H1 1_555 1_555
C2 C1 1_555 1_555
H2 C2 1_555 1_555
C3 C2 1_555 1_555
C4 C3 1_555 1_555
H3 C4 1_555 1_555
C5 C4 1_555 1_555
H4 C5 1_555 1_555
C6 C3 1_555 1_555
C7 C6 1_555 1_555
H5 C7 1_555 1_555
C8 C7 1_555 1_555
H6 C8 1_555 1_555
C9 H7 1_555 1_555
C10 C6 1_555 1_555
H8 C10 1_555 1_555
C11 H9 1_555 1_555
C12 C11 1_555 1_555
H10 C12 1_555 1_555
C13 C12 1_555 1_555
C14 C13 1_555 1_555
H11 C14 1_555 1_555
C15 C14 1_555 1_555
H12 C15 1_555 1_555
C16 C13 1_555 1_555
C17 C16 1_555 1_555
H13 C17 1_555 1_555
C18 C17 1_555 1_555
H14 C18 1_555 1_555
C19 H15 1_555 1_555
C20 C16 1_555 1_555
H16 C20 1_555 1_555
N1 C1 1_555 1_555
N2 C8 1_555 1_555
N3 Pb1 1_555 1_555
N4 C18 1_555 1_555
N5 O1 1_555 1_555
N6 O4 1_555 1_555
N7 O7 1_555 1_555
N8 O10 1_555 1_555
O1 Pb1 1_555 1_555
O2 Pb1 1_555 1_555
O3 N5 1_555 1_555
O4 Pb1 1_555 1_555
O5 Pb1 1_555 1_555
O6 N6 1_555 1_555
O7 Pb2 1_555 1_555
O8 Pb2 1_555 1_555
O9 N7 1_555 1_555
O10 Pb2 1_555 1_555
O11 Pb2 1_555 1_555
O12 N8 1_555 1_555
O13 Pb1 1_555 1_555
H17 O13 1_555 1_555
H18 O13 1_555 1_555
O14 Pb1 1_555 1_555
H19 O14 1_555 1_555
H20 O14 1_555 1_555
C21 H21 1_555 1_555
C22 C21 1_555 1_555
H22 C22 1_555 1_555
C23 C22 1_555 1_555
C24 C23 1_555 1_555
H23 C24 1_555 1_555
C25 C24 1_555 1_555
H24 C25 1_555 1_555
C26 C23 1_555 1_555
C27 C26 1_555 1_555
H25 C27 1_555 1_555
C28 C27 1_555 1_555
H26 C28 1_555 1_555
C29 H27 1_555 1_555
C30 C26 1_555 1_555
H28 C30 1_555 1_555
N9 C21 1_555 1_555
N10 C28 1_555 1_555
C31 H29 1_555 1_555
C32 C31 1_555 1_555
H30 C32 1_555 1_555
C33 C32 1_555 1_555
C34 C33 1_555 1_555
H31 C34 1_555 1_555
C35 C34 1_555 1_555
H32 C35 1_555 1_555
C36 C33 1_555 1_555
C37 C36 1_555 1_555
H33 C37 1_555 1_555
C38 C37 1_555 1_555
H34 C38 1_555 1_555
C39 H35 1_555 1_555
C40 C36 1_555 1_555
H36 C40 1_555 1_555
N11 C31 1_555 1_555
N12 C38 1_555 1_555
N4_2 Pb2 1_555 1_555
O2A Pb2 1_555 1_555
O3A Pb2 1_555 1_555
O5A Pb2 1_555 1_555
O6A Pb2 1_555 1_555
Pb2_2 N4 1_555 1_555
Pb2A O2 1_555 1_555
Pb2A_2 O5 1_555 1_555
C5 N1 1_555 1_555
C9 C10 1_555 1_555
C9 N2 1_555 1_555
C11 N3 1_555 1_555
C15 N3 1_555 1_555
C19 C20 1_555 1_555
C19 N4 1_555 1_555
N5 O2 1_555 1_555
N6 O5 1_555 1_555
N7 O8 1_555 1_555
N8 O11 1_555 1_555
O3 Pb2A 1_555 1_555
O6 Pb2A_2 1_555 1_555
C25 N9 1_555 1_555
C29 C30 1_555 1_555
C29 N10 1_555 1_555
C35 N11 1_555 1_555
C39 C40 1_555 1_555
C39 N12 1_555 1_555

#END
