
#######################################################################
#
#                 Cambridge Crystallographic Data Centre
#                                CCDC 
#
#######################################################################
#
# If this CIF has been generated from an entry in the Cambridge 
# Structural Database, then it will include bibliographic, chemical, 
# crystal, experimental, refinement or atomic coordinate data resulting 
# from the CCDC's data processing and validation procedures.
#
#######################################################################

data_ABIXAL
_symmetry_cell_setting           triclinic
_symmetry_space_group_name_H-M   'P -1'
_symmetry_Int_Tables_number      2
_space_group_name_Hall           '-P 1'
loop_
_symmetry_equiv_pos_site_id
_symmetry_equiv_pos_as_xyz
1 x,y,z
2 -x,-y,-z
_cell_length_a                   3.9813(3)
_cell_length_b                   11.9563(10)
_cell_length_c                   12.3748(10)
_cell_angle_alpha                93.535(2)
_cell_angle_beta                 92.737(2)
_cell_angle_gamma                94.481(2)
_cell_volume                     585.324
loop_
_atom_site_label
_atom_site_type_symbol
_atom_site_fract_x
_atom_site_fract_y
_atom_site_fract_z
Pb1 Pb 0.27485(7) 0.21660(2) 0.25207(2)
Cl1 Cl -0.1333(5) 0.25969(16) 0.41937(14)
Cl2 Cl -0.1959(5) 0.23863(17) 0.08779(14)
C1 C 0.468(2) 0.4906(6) 0.3408(6)
H1 H 0.4909 0.4534 0.4042
C2 C 0.563(2) 0.6039(6) 0.3447(6)
H2 H 0.6467 0.6414 0.4097
C3 C 0.5349(17) 0.6615(5) 0.2530(6)
C4 C 0.400(2) 0.5998(6) 0.1582(6)
H3 H 0.3674 0.6350 0.0940
C5 C 0.316(2) 0.4862(6) 0.1625(6)
H4 H 0.2321 0.4460 0.0989
C6 C 0.864(2) 0.9435(7) 0.1658(7)
H5 H 0.9373 0.9742 0.1029
C7 C 0.762(2) 0.8306(6) 0.1603(6)
H6 H 0.7708 0.7869 0.0958
C8 C 0.6448(17) 0.7830(6) 0.2520(6)
C9 C 0.637(2) 0.8532(6) 0.3457(6)
H7 H 0.5541 0.8251 0.4085
C10 C 0.754(2) 0.9657(6) 0.3445(6)
H8 H 0.7557 1.0111 0.4084
N1 N 0.3456(16) 0.4309(5) 0.2506(5)
N2 N 0.8657(18) 1.0120(5) 0.2552(5)
Pb1_2 Pb -0.72515(7) 0.21660(2) 0.25207(2)
Pb1_3 Pb 1.27485(7) 1.21660(2) 0.25207(2)
Cl1_2 Cl 0.8667(5) 0.25969(16) 0.41937(14)
Cl2_2 Cl 0.8041(5) 0.23863(17) 0.08779(14)
N2_2 N -0.1343(18) 0.0120(5) 0.2552(5)
loop_
_geom_bond_atom_site_label_1
_geom_bond_atom_site_label_2
_geom_bond_site_symmetry_1
_geom_bond_site_symmetry_2
Pb1 Cl1 1_555 1_555
Cl1 Pb1_2 1_555 1_555
Cl2 Pb1 1_555 1_555
C1 H1 1_555 1_555
C2 C1 1_555 1_555
H2 C2 1_555 1_555
C3 C2 1_555 1_555
C4 C3 1_555 1_555
H3 C4 1_555 1_555
C5 C4 1_555 1_555
H4 C5 1_555 1_555
C6 H5 1_555 1_555
C7 C6 1_555 1_555
H6 C7 1_555 1_555
C8 C3 1_555 1_555
C9 C8 1_555 1_555
H7 C9 1_555 1_555
C10 C9 1_555 1_555
H8 C10 1_555 1_555
N1 Pb1 1_555 1_555
N2 C6 1_555 1_555
Pb1_2 Cl2 1_555 1_555
Pb1_3 N2 1_555 1_555
Cl1_2 Pb1 1_555 1_555
Cl2_2 Pb1 1_555 1_555
N2_2 Pb1 1_555 1_555
C1 N1 1_555 1_555
C5 N1 1_555 1_555
C7 C8 1_555 1_555
C10 N2 1_555 1_555

#END
