
#######################################################################
#
#                 Cambridge Crystallographic Data Centre
#                                CCDC 
#
#######################################################################
#
# If this CIF has been generated from an entry in the Cambridge 
# Structural Database, then it will include bibliographic, chemical, 
# crystal, experimental, refinement or atomic coordinate data resulting 
# from the CCDC's data processing and validation procedures.
#
#######################################################################

data_ABIXAL01
_symmetry_cell_setting           triclinic
_symmetry_space_group_name_H-M   'P -1'
_symmetry_Int_Tables_number      2
_space_group_name_Hall           '-P 1'
loop_
_symmetry_equiv_pos_site_id
_symmetry_equiv_pos_as_xyz
1 x,y,z
2 -x,-y,-z
_cell_length_a                   3.9490(13)
_cell_length_b                   11.853(4)
_cell_length_c                   12.324(4)
_cell_angle_alpha                94.094(7)
_cell_angle_beta                 93.195(7)
_cell_angle_gamma                93.396(7)
_cell_volume                     573.331
loop_
_atom_site_label
_atom_site_type_symbol
_atom_site_fract_x
_atom_site_fract_y
_atom_site_fract_z
Pb1 Pb 0.27516(16) -0.28754(6) 0.25182(5)
Cl1 Cl -0.2015(10) -0.2658(4) 0.0866(3)
Cl2 Cl -0.1296(10) -0.2408(4) 0.4205(3)
N1 N -0.128(4) -0.4904(14) 0.2547(12)
N2 N -0.667(3) -1.0705(13) 0.2509(11)
C1 C -0.132(4) -0.5642(15) 0.1685(14)
H1 H -0.0540 -0.5340 0.1016
C2 C -0.230(4) -0.6776(15) 0.1612(14)
H2 H -0.2057 -0.7262 0.0947
C3 C -0.367(4) -0.7205(14) 0.2537(12)
C4 C -0.359(4) -0.6478(15) 0.3456(13)
H3 H -0.4288 -0.6767 0.4140
C5 C -0.256(4) -0.5356(16) 0.3436(14)
H4 H -0.2761 -0.4854 0.4093
C6 C -0.540(5) -1.0130(17) 0.3399(16)
H5 H -0.5071 -1.0534 0.4061
C7 C -0.450(4) -0.8990(16) 0.3454(14)
H6 H -0.3699 -0.8587 0.4151
C8 C -0.474(4) -0.8404(15) 0.2501(14)
C9 C -0.602(4) -0.9032(17) 0.1566(15)
H7 H -0.6257 -0.8670 0.0877
C10 C -0.700(5) -1.0190(17) 0.1598(16)
H8 H -0.7947 -1.0622 0.0931
Pb1_2 Pb -0.72484(16) -0.28754(6) 0.25182(5)
Pb1_3 Pb -0.72484(16) -1.28754(6) 0.25182(5)
Cl1_2 Cl 0.7985(10) -0.2658(4) 0.0866(3)
Cl2_2 Cl 0.8704(10) -0.2408(4) 0.4205(3)
N2_2 N 0.333(3) -0.0705(13) 0.2509(11)
loop_
_geom_bond_atom_site_label_1
_geom_bond_atom_site_label_2
_geom_bond_site_symmetry_1
_geom_bond_site_symmetry_2
Pb1 Cl1 1_555 1_555
Cl1 Pb1_2 1_555 1_555
Cl2 Pb1 1_555 1_555
N1 Pb1 1_555 1_555
N2 C6 1_555 1_555
C1 N1 1_555 1_555
H1 C1 1_555 1_555
C2 C1 1_555 1_555
H2 C2 1_555 1_555
C3 C2 1_555 1_555
C4 C3 1_555 1_555
H3 C4 1_555 1_555
C5 N1 1_555 1_555
H4 C5 1_555 1_555
C6 H5 1_555 1_555
C7 C6 1_555 1_555
H6 C7 1_555 1_555
C8 C3 1_555 1_555
C9 C8 1_555 1_555
H7 C9 1_555 1_555
C10 N2 1_555 1_555
H8 C10 1_555 1_555
Pb1_2 Cl2 1_555 1_555
Pb1_3 N2 1_555 1_555
Cl1_2 Pb1 1_555 1_555
Cl2_2 Pb1 1_555 1_555
N2_2 Pb1 1_555 1_555
C4 C5 1_555 1_555
C7 C8 1_555 1_555
C9 C10 1_555 1_555

#END
