
#######################################################################
#
#                 Cambridge Crystallographic Data Centre
#                                CCDC 
#
#######################################################################
#
# If this CIF has been generated from an entry in the Cambridge 
# Structural Database, then it will include bibliographic, chemical, 
# crystal, experimental, refinement or atomic coordinate data resulting 
# from the CCDC's data processing and validation procedures.
#
#######################################################################

data_ABOBUQ
_symmetry_cell_setting           monoclinic
_symmetry_space_group_name_H-M   'P 21/c'
_symmetry_Int_Tables_number      14
_space_group_name_Hall           '-P 2ybc'
loop_
_symmetry_equiv_pos_site_id
_symmetry_equiv_pos_as_xyz
1 x,y,z
2 -x,1/2+y,1/2-z
3 -x,-y,-z
4 x,1/2-y,1/2+z
_cell_length_a                   9.7606(10)
_cell_length_b                   7.3145(8)
_cell_length_c                   19.572(2)
_cell_angle_alpha                90
_cell_angle_beta                 119.148(9)
_cell_angle_gamma                90
_cell_volume                     1220.37
loop_
_atom_site_label
_atom_site_type_symbol
_atom_site_fract_x
_atom_site_fract_y
_atom_site_fract_z
Ag1 Ag -0.48135(4) -0.27714(5) -0.474700(18)
N1 N -0.2324(4) -0.2188(5) -0.40097(18)
N2 N 0.2672(4) -0.1894(5) -0.05469(18)
C1 C -0.1683(4) -0.2157(6) -0.3227(2)
H1 H -0.2323 -0.2506 -0.3007
C2 C -0.0128(5) -0.1643(6) -0.2714(2)
C3 C 0.0813(5) -0.1169(6) -0.3023(2)
H2 H 0.1875 -0.0823 -0.2694
C4 C 0.0179(5) -0.1208(6) -0.3826(2)
H3 H 0.0806 -0.0905 -0.4058
C5 C -0.1392(5) -0.1697(6) -0.4294(2)
H4 H -0.1816 -0.1678 -0.4846
C6 C 0.2049(5) -0.1926(5) -0.1333(2)
H5 H 0.273 -0.2173 -0.1541
C7 C 0.0464(5) -0.1619(5) -0.1860(2)
C8 C -0.0532(5) -0.1315(6) -0.1562(2)
H6 H -0.1617 -0.1096 -0.1897
C9 C 0.0096(5) -0.1340(6) -0.0761(2)
H7 H -0.0572 -0.1164 -0.054
C10 C 0.1686(5) -0.1619(6) -0.0272(3)
H8 H 0.2083 -0.1614 0.0278
Ag1C Ag 0.51865(4) -0.22286(5) 0.025300(18)
N2C N -0.7328(4) -0.3106(5) -0.55469(18)
Cl1 Cl 0.54870(13) -0.43450(16) -0.15539(6)
O1 O 0.3975(3) -0.4092(5) -0.22230(18)
O2 O 0.6488(4) -0.2856(5) -0.1410(2)
O3 O 0.5256(4) -0.4594(5) -0.08941(18)
O4 O 0.6195(4) -0.5962(5) -0.1636(2)
O5 O 0.4853(4) -0.9367(5) -0.14995(18)
H9 H 0.5317 -1.0263 -0.157
H10 H 0.4984 -0.8444 -0.1747
loop_
_geom_bond_atom_site_label_1
_geom_bond_atom_site_label_2
_geom_bond_site_symmetry_1
_geom_bond_site_symmetry_2
Ag1 N1 1_555 1_555
N1 C1 1_555 1_555
N2 C6 1_555 1_555
C1 H1 1_555 1_555
C2 C1 1_555 1_555
C3 C2 1_555 1_555
H2 C3 1_555 1_555
C4 C3 1_555 1_555
H3 C4 1_555 1_555
C5 N1 1_555 1_555
H4 C5 1_555 1_555
C6 H5 1_555 1_555
C7 C2 1_555 1_555
C8 C7 1_555 1_555
H6 C8 1_555 1_555
C9 C8 1_555 1_555
H7 C9 1_555 1_555
C10 N2 1_555 1_555
H8 C10 1_555 1_555
Cl1 O1 1_555 1_555
O2 Cl1 1_555 1_555
O3 Cl1 1_555 1_555
O4 Cl1 1_555 1_555
O5 H9 1_555 1_555
H10 O5 1_555 1_555
Ag1C N2 1_555 1_555
N2C Ag1 1_555 1_555
C4 C5 1_555 1_555
C6 C7 1_555 1_555
C9 C10 1_555 1_555

#END
