
#######################################################################
#
#                 Cambridge Crystallographic Data Centre
#                                CCDC 
#
#######################################################################
#
# If this CIF has been generated from an entry in the Cambridge 
# Structural Database, then it will include bibliographic, chemical, 
# crystal, experimental, refinement or atomic coordinate data resulting 
# from the CCDC's data processing and validation procedures.
#
#######################################################################

data_ABOCAV
_symmetry_cell_setting           monoclinic
_symmetry_space_group_name_H-M   'P 2/c'
_symmetry_Int_Tables_number      13
_space_group_name_Hall           '-P 2yc'
loop_
_symmetry_equiv_pos_site_id
_symmetry_equiv_pos_as_xyz
1 x,y,z
2 x,-y,1/2+z
3 -x,-y,-z
4 -x,y,1/2-z
_cell_length_a                   13.814(4)
_cell_length_b                   9.338(2)
_cell_length_c                   14.974(4)
_cell_angle_alpha                90
_cell_angle_beta                 116.21(2)
_cell_angle_gamma                90
_cell_volume                     1732.97
loop_
_atom_site_label
_atom_site_type_symbol
_atom_site_fract_x
_atom_site_fract_y
_atom_site_fract_z
Ag1 Ag 0.0958(1) 0.5753(1) 0.07060(9)
P1 P 0.1695(3) 0.3420(3) 0.1248(2)
O1 O 0.0000 0.495(2) 0.2500
O2 O 0.032(1) 0.692(1) 0.1962(8)
N1 N -0.0366(7) 0.241(1) 0.0332(6)
N2 N 0.0631(8) 0.0860(10) 0.1443(7)
N3 N 0.0000 0.626(2) 0.2500
C1 C -0.0971(10) 0.126(1) 0.0292(9)
C2 C -0.036(1) 0.030(1) 0.0969(9)
C3 C 0.0608(9) 0.215(1) 0.1021(8)
C4 C 0.153(1) 0.009(1) 0.2226(9)
C5 C 0.2612(9) 0.335(1) 0.2561(8)
C6 C 0.2245(10) 0.325(1) 0.3298(9)
C7 C 0.294(1) 0.328(2) 0.4272(10)
C8 C 0.404(1) 0.341(2) 0.460(1)
C9 C 0.441(1) 0.353(2) 0.387(1)
C10 C 0.370(1) 0.350(1) 0.2863(9)
C11 C 0.239(1) 0.263(1) 0.0590(10)
C12 C 0.305(1) 0.139(2) 0.094(1)
C13 C 0.351(2) 0.079(2) 0.035(2)
C14 C 0.338(2) 0.139(3) -0.052(2)
C15 C 0.276(2) 0.259(3) -0.084(1)
C16 C 0.223(1) 0.324(2) -0.0310(10)
H1 H -0.1714 0.1148 -0.0150
H2 H -0.0594 -0.0605 0.1092
H3 H 0.1360 -0.0101 0.2765
H4 H 0.1643 -0.0790 0.1967
H5 H 0.2163 0.0657 0.2453
H6 H 0.1494 0.3169 0.3107
H7 H 0.2668 0.3209 0.4750
H8 H 0.4529 0.3416 0.5290
H9 H 0.5161 0.3639 0.4070
H10 H 0.3975 0.3591 0.2382
H11 H 0.3176 0.0968 0.1556
H12 H 0.3924 -0.0061 0.0573
H13 H 0.3712 0.0985 -0.0896
H14 H 0.2673 0.3021 -0.1449
H15 H 0.1790 0.4061 -0.0562
O2C O -0.032(1) 0.692(1) 0.3038(8)
P1B P -0.1695(3) 0.6580(3) -0.1248(2)
N1B N 0.0366(7) 0.759(1) -0.0332(6)
N2B N -0.0631(8) 0.9140(10) -0.1443(7)
C1B C 0.0971(10) 0.874(1) -0.0292(9)
C2B C 0.036(1) 0.970(1) -0.0969(9)
C3B C -0.0608(9) 0.785(1) -0.1021(8)
C4B C -0.153(1) 0.991(1) -0.2226(9)
C5B C -0.2612(9) 0.665(1) -0.2561(8)
C6B C -0.2245(10) 0.675(1) -0.3298(9)
C7B C -0.294(1) 0.672(2) -0.4272(10)
C8B C -0.404(1) 0.659(2) -0.460(1)
C9B C -0.441(1) 0.647(2) -0.387(1)
C10B C -0.370(1) 0.650(1) -0.2863(9)
C11B C -0.239(1) 0.737(1) -0.0590(10)
C12B C -0.305(1) 0.861(2) -0.094(1)
C13B C -0.351(2) 0.921(2) -0.035(2)
C14B C -0.338(2) 0.861(3) 0.052(2)
C15B C -0.276(2) 0.741(3) 0.084(1)
C16B C -0.223(1) 0.676(2) 0.0310(10)
H1B H 0.1714 0.8852 0.0150
H2B H 0.0594 1.0605 -0.1092
H3B H -0.1360 1.0101 -0.2765
H4B H -0.1643 1.0790 -0.1967
H5B H -0.2163 0.9343 -0.2453
H6B H -0.1494 0.6831 -0.3107
H7B H -0.2668 0.6791 -0.4750
H8B H -0.4529 0.6584 -0.5290
H9B H -0.5161 0.6361 -0.4070
H10B H -0.3975 0.6409 -0.2382
H11B H -0.3176 0.9032 -0.1556
H12B H -0.3924 1.0061 -0.0573
H13B H -0.3712 0.9015 0.0896
H14B H -0.2673 0.6979 0.1449
H15B H -0.1790 0.5939 0.0562
Ag1B Ag -0.0958(1) 0.4247(1) -0.07060(9)
Ag1C Ag -0.0958(1) 0.5753(1) 0.42940(9)
O2B O -0.032(1) 0.308(1) -0.1962(8)
O3 O 0.387(3) 0.343(4) 0.678(2)
O4 O 0.277(2) 0.259(3) 0.678(2)
O5 O 0.403(2) 0.166(2) 0.743(2)
N4 N 0.356(1) 0.254(3) 0.701(1)
loop_
_geom_bond_atom_site_label_1
_geom_bond_atom_site_label_2
_geom_bond_site_symmetry_1
_geom_bond_site_symmetry_2
Ag1 P1 1_555 1_555
P1 C3 1_555 1_555
O1 N3 1_555 1_555
O2 Ag1 1_555 1_555
O3 N4 1_555 1_555
O4 N4 1_555 1_555
O5 N4 1_555 1_555
N1 C1 1_555 1_555
N2 C2 1_555 1_555
N3 O2 1_555 1_555
C1 C2 1_555 1_555
C2 H2 1_555 1_555
C3 N1 1_555 1_555
C4 N2 1_555 1_555
C5 P1 1_555 1_555
C6 C5 1_555 1_555
C7 C6 1_555 1_555
C8 C7 1_555 1_555
C9 C8 1_555 1_555
C10 C5 1_555 1_555
C11 P1 1_555 1_555
C12 C11 1_555 1_555
C13 C12 1_555 1_555
C14 C13 1_555 1_555
C15 C14 1_555 1_555
C16 C11 1_555 1_555
H1 C1 1_555 1_555
H3 C4 1_555 1_555
H4 C4 1_555 1_555
H5 C4 1_555 1_555
H6 C6 1_555 1_555
H7 C7 1_555 1_555
H8 C8 1_555 1_555
H9 C9 1_555 1_555
H10 C10 1_555 1_555
H11 C12 1_555 1_555
H12 C13 1_555 1_555
H13 C14 1_555 1_555
H14 C15 1_555 1_555
H15 C16 1_555 1_555
O2C N3 1_555 1_555
P1B C3B 1_555 1_555
N1B Ag1 1_555 1_555
N2B C2B 1_555 1_555
C1B N1B 1_555 1_555
C2B C1B 1_555 1_555
C3B N1B 1_555 1_555
C4B N2B 1_555 1_555
C5B P1B 1_555 1_555
C6B C5B 1_555 1_555
C7B C6B 1_555 1_555
C8B C7B 1_555 1_555
C9B C8B 1_555 1_555
C10B C5B 1_555 1_555
C11B P1B 1_555 1_555
C12B C11B 1_555 1_555
C13B C12B 1_555 1_555
C14B C13B 1_555 1_555
C15B C14B 1_555 1_555
C16B C11B 1_555 1_555
H1B C1B 1_555 1_555
H2B C2B 1_555 1_555
H3B C4B 1_555 1_555
H4B C4B 1_555 1_555
H5B C4B 1_555 1_555
H6B C6B 1_555 1_555
H7B C7B 1_555 1_555
H8B C8B 1_555 1_555
H9B C9B 1_555 1_555
H10B C10B 1_555 1_555
H11B C12B 1_555 1_555
H12B C13B 1_555 1_555
H13B C14B 1_555 1_555
H14B C15B 1_555 1_555
H15B C16B 1_555 1_555
Ag1B N1 1_555 1_555
Ag1C O2C 1_555 1_555
O2B Ag1B 1_555 1_555
N2 C3 1_555 1_555
C9 C10 1_555 1_555
C15 C16 1_555 1_555
P1B Ag1B 1_555 1_555
N2B C3B 1_555 1_555
C9B C10B 1_555 1_555
C15B C16B 1_555 1_555

#END
