
#######################################################################
#
#                 Cambridge Crystallographic Data Centre
#                                CCDC 
#
#######################################################################
#
# If this CIF has been generated from an entry in the Cambridge 
# Structural Database, then it will include bibliographic, chemical, 
# crystal, experimental, refinement or atomic coordinate data resulting 
# from the CCDC's data processing and validation procedures.
#
#######################################################################

data_ABOHOO
_symmetry_cell_setting           monoclinic
_symmetry_space_group_name_H-M   'C m'
_symmetry_Int_Tables_number      8
_space_group_name_Hall           'C -2y'
loop_
_symmetry_equiv_pos_site_id
_symmetry_equiv_pos_as_xyz
1 x,y,z
2 x,-y,z
3 1/2+x,1/2+y,z
4 1/2+x,1/2-y,z
_cell_length_a                   16.331(3)
_cell_length_b                   25.873(4)
_cell_length_c                   10.726(2)
_cell_angle_alpha                90
_cell_angle_beta                 118.902(14)
_cell_angle_gamma                90
_cell_volume                     3967.6
loop_
_atom_site_label
_atom_site_type_symbol
_atom_site_fract_x
_atom_site_fract_y
_atom_site_fract_z
W1 W 0.31192(4) 0.56669(3) -0.00563(5)
W2 W 0.31053(4) 0.56609(3) -0.35388(6)
W3 W -0.04257(4) 0.42922(3) -0.27742(6)
W4 W -0.03961(4) 0.56972(3) -0.60073(6)
W5 W 0.13028(9) 0.636907(19) -0.30778(11)
W6 W 0.14033(9) 0.5000 0.02845(12)
Co1 Co 0.1440(3) 0.5000 -0.6220(3)
P1 P 0.1380(6) 0.5000 -0.3073(9)
O1 O -0.0759(13) 0.5000 -0.303(2)
O2 O -0.0768(13) 0.5000 -0.605(2)
O3 O 0.3977(12) 0.6058(7) 0.1172(18)
O4 O -0.1257(11) 0.5993(7) -0.7465(14)
O5 O 0.2377(9) 0.5507(5) 0.0848(13)
O6 O -0.1268(11) 0.4047(7) -0.2422(17)
O7 O 0.2140(9) 0.6136(5) -0.1209(12)
O8 O 0.0451(10) 0.5526(5) -0.6492(13)
O9 O 0.3955(13) 0.6053(8) -0.3399(18)
O10 O 0.2444(9) 0.5554(5) -0.5455(13)
O11 O 0.120(2) 0.5000 0.174(2)
O12 O 0.0523(8) 0.4501(5) -0.0905(12)
O13 O 0.2181(10) 0.6129(5) -0.3620(13)
O14 O 0.0322(9) 0.6310(5) -0.5004(12)
O15 O 0.1449(13) 0.7021(4) -0.2959(15)
O16 O 0.3411(9) 0.5609(5) -0.1502(12)
O17 O 0.1981(11) 0.5000 -0.3750(17)
O18 O 0.3745(12) 0.5000 -0.316(2)
O19 O 0.1950(11) 0.5000 -0.1447(15)
O20 O -0.0978(9) 0.4184(5) -0.4758(12)
O21 O 0.3678(13) 0.5000 0.0641(19)
O22 O 0.0734(8) 0.5484(4) -0.3519(10)
O23 O 0.0341(11) 0.3693(5) -0.2540(14)
O22A O 0.0734(8) 0.4516(4) -0.3519(10)
O5A O 0.2377(9) 0.4493(5) 0.0848(13)
O12A O 0.0523(8) 0.5499(5) -0.0905(12)
W1A W 0.31192(4) 0.43331(3) -0.00563(5)
W2A W 0.31053(4) 0.43391(3) -0.35388(6)
W3A W -0.04257(4) 0.57078(3) -0.27742(6)
W4A W -0.03961(4) 0.43028(3) -0.60073(6)
W5A W 0.13028(9) 0.363093(19) -0.30778(11)
O20A O -0.0978(9) 0.5816(5) -0.4758(12)
O23A O 0.0341(11) 0.6307(5) -0.2540(14)
O3A O 0.3977(12) 0.3942(7) 0.1172(18)
O7A O 0.2140(9) 0.3864(5) -0.1209(12)
O16A O 0.3411(9) 0.4391(5) -0.1502(12)
O9A O 0.3955(13) 0.3947(8) -0.3399(18)
O13A O 0.2181(10) 0.3871(5) -0.3620(13)
O6A O -0.1268(11) 0.5953(7) -0.2422(17)
O4A O -0.1257(11) 0.4007(7) -0.7465(14)
O14A O 0.0322(9) 0.3690(5) -0.5004(12)
O15A O 0.1449(13) 0.2979(4) -0.2959(15)
Co1_2 Co 0.1440(3) 0.5000 0.3780(3)
O10A O 0.2444(9) 0.4446(5) -0.5455(13)
O8A O 0.0451(10) 0.4474(5) -0.6492(13)
O11_2 O 0.120(2) 0.5000 -0.826(2)
Co2 Co 0.1388(3) 0.29504(7) -0.8030(3)
O24 O 0.1474(11) 0.3534(6) -0.6586(15)
H1 H 0.1823 0.3343 -0.5773
H2 H 0.0914 0.3638 -0.6620
O25 O 0.1321(11) 0.3552(6) -0.9359(15)
H3 H 0.1508 0.3848 -0.8824
H4 H 0.1323 0.3610 -1.0266
N1 N 0.2850(12) 0.2904(8) -0.7134(19)
N2 N -0.0056(13) 0.2877(8) -0.8833(18)
N3 N 0.0036(13) 0.1994(7) -0.833(2)
H5 H -0.0181 0.1698 -0.8710
N4 N 0.1380(14) 0.2387(8) -0.9483(18)
N5 N 0.1434(13) 0.2396(7) -0.6567(18)
N6 N 0.2759(16) 0.2005(8) -0.774(2)
H6 H 0.3006 0.1715 -0.7346
C1 C -0.1543(18) 0.3242(10) -1.049(3)
H7 H -0.1899 0.3527 -1.0978
C2 C 0.3365(12) 0.3296(8) -0.648(2)
H8 H 0.3076 0.3617 -0.6626
C3 C -0.0481(15) 0.2409(9) -0.905(2)
C4 C 0.1927(14) 0.1966(9) -0.899(2)
C5 C -0.1426(16) 0.2344(8) -0.993(2)
H9 H -0.1711 0.2028 -0.9967
C6 C 0.3264(18) 0.2443(9) -0.702(2)
C7 C 0.0884(16) 0.1982(8) -0.703(2)
C8 C 0.4233(16) 0.2379(9) -0.602(2)
H10 H 0.4497 0.2051 -0.5856
C9 C 0.4750(15) 0.2770(10) -0.533(2)
H11 H 0.5382 0.2726 -0.4686
C10 C 0.215(2) 0.2350(10) -0.528(2)
H12 H 0.2517 0.2642 -0.4883
C11 C 0.0599(19) 0.2350(11) -1.082(2)
H13 H 0.0238 0.2647 -1.1182
C12 C 0.110(2) 0.1483(10) -0.633(3)
H14 H 0.0726 0.1196 -0.6755
C13 C 0.089(3) 0.1509(10) -1.102(4)
H15 H 0.0692 0.1199 -1.1513
C14 C 0.1686(19) 0.1515(9) -0.978(3)
H16 H 0.2068 0.1224 -0.9464
C15 C 0.188(2) 0.1446(10) -0.502(3)
H17 H 0.2045 0.1134 -0.4528
C16 C 0.242(3) 0.1888(11) -0.445(3)
H18 H 0.2938 0.1883 -0.3548
C17 C 0.033(2) 0.1940(14) -1.159(3)
H19 H -0.0200 0.1935 -1.2485
C18 C -0.066(2) 0.3291(7) -0.956(2)
H20 H -0.0416 0.3623 -0.9364
C19 C 0.4330(16) 0.3272(11) -0.556(3)
H21 H 0.4681 0.3566 -0.5134
C20 C -0.1938(15) 0.2752(10) -1.074(3)
H22 H -0.2550 0.2701 -1.1457
N7 N -0.4248(17) 0.5000 -0.097(2)
N8 N -0.301(3) 0.5000 -0.147(3)
H23 H -0.2632 0.5278 -0.1249
N9 N -0.443(3) 0.5000 -0.338(4)
C21 C -0.305(3) 0.5000 -0.370(4)
H24 H -0.2400 0.5000 -0.3281
C22 C -0.408(5) 0.5000 0.137(8)
H25 H -0.4341 0.5000 0.1961
C23 C -0.459(3) 0.5000 -0.009(4)
H26 H -0.5237 0.5000 -0.0485
C24 C -0.273(2) 0.5000 0.091(3)
H27 H -0.2087 0.5000 0.1243
C25 C -0.334(2) 0.5000 -0.051(3)
C26 C -0.3522(18) 0.5000 -0.287(3)
C27 C -0.309(5) 0.5000 0.188(7)
H28 H -0.2686 0.5000 0.2852
C28 C -0.363(4) 0.5000 -0.520(4)
H29 H -0.3351 0.5000 -0.5788
C29 C -0.502(3) 0.5000 -0.493(5)
H30 H -0.5665 0.5000 -0.5326
C30 C -0.462(3) 0.5000 -0.583(5)
H31 H -0.4996 0.5000 -0.6813
H23A H -0.2632 0.4722 -0.1249
loop_
_geom_bond_atom_site_label_1
_geom_bond_atom_site_label_2
_geom_bond_site_symmetry_1
_geom_bond_site_symmetry_2
W1 O3 1_555 1_555
W2 O9 1_555 1_555
W3 O1 1_555 1_555
W4 O2 1_555 1_555
W5 O7 1_555 1_555
W6 O5 1_555 1_555
Co1 O8 1_555 1_555
P1 O17 1_555 1_555
O1 W3A 1_555 1_555
O2 W4A 1_555 1_555
O4 W4 1_555 1_555
O5 W1 1_555 1_555
O6 W3 1_555 1_555
O7 W1 1_555 1_555
O8 W4 1_555 1_555
O10 W2 1_555 1_555
O11 W6 1_555 1_555
O12 W3 1_555 1_555
O13 W2 1_555 1_555
O14 W4 1_555 1_555
O15 W5 1_555 1_555
O16 W1 1_555 1_555
O17 W2 1_555 1_555
O18 W2 1_555 1_555
O19 W1 1_555 1_555
O20 W3 1_555 1_555
O21 W1 1_555 1_555
O22 W4 1_555 1_555
O23 W3 1_555 1_555
Co2 O24 1_555 1_555
O24 H1 1_555 1_555
H2 O24 1_555 1_555
O25 Co2 1_555 1_555
H3 O25 1_555 1_555
H4 O25 1_555 1_555
N1 Co2 1_555 1_555
N2 Co2 1_555 1_555
N3 H5 1_555 1_555
N4 Co2 1_555 1_555
N5 Co2 1_555 1_555
N6 H6 1_555 1_555
C1 H7 1_555 1_555
C2 N1 1_555 1_555
H8 C2 1_555 1_555
C3 N2 1_555 1_555
C4 N4 1_555 1_555
C5 C3 1_555 1_555
H9 C5 1_555 1_555
C6 N1 1_555 1_555
C7 N3 1_555 1_555
C8 C6 1_555 1_555
H10 C8 1_555 1_555
C9 C8 1_555 1_555
H11 C9 1_555 1_555
C10 N5 1_555 1_555
H12 C10 1_555 1_555
C11 N4 1_555 1_555
H13 C11 1_555 1_555
C12 C7 1_555 1_555
H14 C12 1_555 1_555
C13 H15 1_555 1_555
C14 C4 1_555 1_555
H16 C14 1_555 1_555
C15 C12 1_555 1_555
H17 C15 1_555 1_555
C16 C10 1_555 1_555
H18 C16 1_555 1_555
C17 C11 1_555 1_555
H19 C17 1_555 1_555
C18 N2 1_555 1_555
H20 C18 1_555 1_555
C19 C2 1_555 1_555
H21 C19 1_555 1_555
C20 C1 1_555 1_555
H22 C20 1_555 1_555
N7 C23 1_555 1_555
N8 H23 1_555 1_555
N9 C26 1_555 1_555
C21 H24 1_555 1_555
C22 H25 1_555 1_555
C23 C22 1_555 1_555
H26 C23 1_555 1_555
C24 H27 1_555 1_555
C25 N7 1_555 1_555
C26 N8 1_555 1_555
C27 C22 1_555 1_555
H28 C27 1_555 1_555
C28 C21 1_555 1_555
H29 C28 1_555 1_555
C29 N9 1_555 1_555
H30 C29 1_555 1_555
C30 C28 1_555 1_555
H31 C30 1_555 1_555
O22A W3 1_555 1_555
O5A W6 1_555 1_555
O12A W6 1_555 1_555
W1A O19 1_555 1_555
W2A O17 1_555 1_555
W3A O22 1_555 1_555
W4A O20 1_555 1_555
W5A O23 1_555 1_555
O20A W4 1_555 1_555
O23A W5 1_555 1_555
O3A W1A 1_555 1_555
O7A W1A 1_555 1_555
O16A W1A 1_555 1_555
O9A W2A 1_555 1_555
O13A W2A 1_555 1_555
O6A W3A 1_555 1_555
O4A W4A 1_555 1_555
O14A W4A 1_555 1_555
O15A W5A 1_555 1_555
Co1_2 O11 1_555 1_555
O10A Co1 1_555 1_555
O8A Co1 1_555 1_555
O11_2 Co1 1_555 1_555
H23A N8 1_555 1_555
W2 O16 1_555 1_555
W5 O13 1_555 1_555
W5 O14 1_555 1_555
W5 O22 1_555 1_555
W6 O12 1_555 1_555
W6 O19 1_555 1_555
Co1 O10 1_555 1_555
Co1 O17 1_555 1_555
P1 O19 1_555 1_555
P1 O22 1_555 1_555
P1 O22A 1_555 1_555
O18 W2A 1_555 1_555
O21 W1A 1_555 1_555
N3 C3 1_555 1_555
N5 C7 1_555 1_555
N6 C4 1_555 1_555
N6 C6 1_555 1_555
C1 C18 1_555 1_555
C5 C20 1_555 1_555
C9 C19 1_555 1_555
C13 C14 1_555 1_555
C13 C17 1_555 1_555
C15 C16 1_555 1_555
N8 C25 1_555 1_555
C21 C26 1_555 1_555
C24 C25 1_555 1_555
C24 C27 1_555 1_555
C29 C30 1_555 1_555
O22A W4A 1_555 1_555
O22A W5A 1_555 1_555
O5A W1A 1_555 1_555
O12A W3A 1_555 1_555
W2A O16A 1_555 1_555
W2A O10A 1_555 1_555
W3A O20A 1_555 1_555
W3A O23A 1_555 1_555
W4A O8A 1_555 1_555
W5A O7A 1_555 1_555
W5A O13A 1_555 1_555
W5A O14A 1_555 1_555

#END
