
#######################################################################
#
#                 Cambridge Crystallographic Data Centre
#                                CCDC 
#
#######################################################################
#
# If this CIF has been generated from an entry in the Cambridge 
# Structural Database, then it will include bibliographic, chemical, 
# crystal, experimental, refinement or atomic coordinate data resulting 
# from the CCDC's data processing and validation procedures.
#
#######################################################################

data_ABOTUG01
_symmetry_cell_setting           monoclinic
_symmetry_space_group_name_H-M   'P 21/a'
_symmetry_Int_Tables_number      14
_space_group_name_Hall           '-P 2yab'
loop_
_symmetry_equiv_pos_site_id
_symmetry_equiv_pos_as_xyz
1 x,y,z
2 1/2+x,1/2-y,z
3 -x,-y,-z
4 1/2-x,1/2+y,-z
_cell_length_a                   7.542(2)
_cell_length_b                   21.220(5)
_cell_length_c                   9.478(2)
_cell_angle_alpha                90
_cell_angle_beta                 95.836(4)
_cell_angle_gamma                90
_cell_volume                     1509.01
loop_
_atom_site_label
_atom_site_type_symbol
_atom_site_fract_x
_atom_site_fract_y
_atom_site_fract_z
Co1 Co 1.04533(11) 0.35895(4) 0.35260(9)
O1 O 0.7685(6) 0.3943(2) 0.2966(5)
O2 O 0.9321(6) 0.4236(2) 0.4897(5)
O3 O 0.2881(6) 0.34408(19) 0.4591(5)
O4 O 0.5732(6) 0.32861(19) 0.5194(5)
O5 O 0.9319(7) 0.2902(2) 0.4671(7)
H1 H 0.826(4) 0.295(3) 0.488(8)
H2 H 0.965(8) 0.2530(10) 0.484(8)
C1 C 1.1777(9) 0.3999(4) 0.0864(7)
C2 C 1.1399(10) 0.4884(3) 0.2192(9)
H3 H 1.1018 0.5070 0.2997
C3 C 1.2053(12) 0.5266(5) 0.1173(11)
H4 H 1.2136 0.5699 0.1320
C4 C 1.2569(12) 0.5016(5) -0.0024(11)
H5 H 1.3001 0.5271 -0.0710
C5 C 1.2438(11) 0.4360(5) -0.0212(10)
C6 C 1.2827(15) 0.4035(7) -0.1479(10)
H6 H 1.3245 0.4267 -0.2209
C7 C 1.2609(16) 0.3412(7) -0.1648(10)
H7 H 1.2857 0.3224 -0.2493
C8 C 1.2001(13) 0.3031(5) -0.0548(9)
C9 C 1.1854(14) 0.2374(5) -0.0606(10)
H8 H 1.2086 0.2158 -0.1421
C10 C 1.1376(12) 0.2056(4) 0.0525(9)
H9 H 1.1319 0.1618 0.0507
C11 C 1.0969(11) 0.2384(4) 0.1716(9)
H10 H 1.0630 0.2157 0.2483
C12 C 1.1582(10) 0.3325(4) 0.0704(7)
C13 C 0.7867(8) 0.4230(3) 0.4116(7)
C14 C 0.6357(8) 0.4610(3) 0.4598(6)
C15 C 0.4736(8) 0.4344(3) 0.4886(6)
C16 C 0.6593(8) 0.5261(3) 0.4721(6)
H11 H 0.7676 0.5435 0.4534
C17 C 0.4432(8) 0.3640(3) 0.4874(7)
N1 N 1.1300(7) 0.4262(3) 0.2054(6)
N2 N 1.1041(7) 0.3008(3) 0.1813(6)
C16B C 0.3407(8) 0.4739(3) 0.5279(6)
C14B C 0.3643(8) 0.5390(3) 0.5402(6)
C13B C 0.2133(8) 0.5770(3) 0.5884(7)
O1B O 0.2315(6) 0.6057(2) 0.7034(5)
O2B O 0.0679(6) 0.5764(2) 0.5103(5)
C15B C 0.5264(8) 0.5656(3) 0.5114(6)
C17B C 0.5568(8) 0.6360(3) 0.5126(7)
O3B O 0.7119(6) 0.65592(19) 0.5409(5)
O4B O 0.4268(6) 0.67139(19) 0.4806(5)
H11B H 0.2324 0.4565 0.5466
Co1B Co -0.04533(11) 0.64105(4) 0.64740(9)
O5B O 0.0681(7) 0.7098(2) 0.5329(7)
H1B H 0.174(4) 0.705(3) 0.512(8)
H2B H 0.035(8) 0.7470(10) 0.516(8)
C1B C -0.1777(9) 0.6001(4) 0.9136(7)
C2B C -0.1399(10) 0.5116(3) 0.7808(9)
H3B H -0.1018 0.4930 0.7003
C3B C -0.2053(12) 0.4734(5) 0.8827(11)
H4B H -0.2136 0.4301 0.8680
C4B C -0.2569(12) 0.4984(5) 1.0024(11)
H5B H -0.3001 0.4729 1.0710
C5B C -0.2438(11) 0.5640(5) 1.0212(10)
C6B C -0.2827(15) 0.5965(7) 1.1479(10)
H6B H -0.3245 0.5733 1.2209
C7B C -0.2609(16) 0.6588(7) 1.1648(10)
H7B H -0.2857 0.6776 1.2493
C8B C -0.2001(13) 0.6969(5) 1.0548(9)
C9B C -0.1854(14) 0.7626(5) 1.0606(10)
H8B H -0.2086 0.7842 1.1421
C10B C -0.1376(12) 0.7944(4) 0.9475(9)
H9B H -0.1319 0.8382 0.9493
C11B C -0.0969(11) 0.7616(4) 0.8284(9)
H10B H -0.0630 0.7843 0.7517
C12B C -0.1582(10) 0.6675(4) 0.9296(7)
N1B N -0.1300(7) 0.5738(3) 0.7946(6)
N2B N -0.1041(7) 0.6992(3) 0.8187(6)
O3_2 O 1.2881(6) 0.34408(19) 0.4591(5)
Co1_2 Co 0.04533(11) 0.35895(4) 0.35260(9)
Co1B_2 Co 0.95467(11) 0.64105(4) 0.64740(9)
O3B_2 O -0.2881(6) 0.65592(19) 0.5409(5)
loop_
_geom_bond_atom_site_label_1
_geom_bond_atom_site_label_2
_geom_bond_site_symmetry_1
_geom_bond_site_symmetry_2
Co1 O1 1_555 1_555
O1 C13 1_555 1_555
O2 Co1 1_555 1_555
O3 C17 1_555 1_555
O4 C17 1_555 1_555
O5 Co1 1_555 1_555
H1 O5 1_555 1_555
H2 O5 1_555 1_555
C1 C5 1_555 1_555
C2 H3 1_555 1_555
C3 C2 1_555 1_555
H4 C3 1_555 1_555
C4 C3 1_555 1_555
H5 C4 1_555 1_555
C5 C4 1_555 1_555
C6 C5 1_555 1_555
H6 C6 1_555 1_555
C7 C6 1_555 1_555
H7 C7 1_555 1_555
C8 C7 1_555 1_555
C9 C8 1_555 1_555
H8 C9 1_555 1_555
C10 C9 1_555 1_555
H9 C10 1_555 1_555
C11 C10 1_555 1_555
H10 C11 1_555 1_555
C12 C1 1_555 1_555
C13 O2 1_555 1_555
C14 C13 1_555 1_555
C15 C14 1_555 1_555
C16 C14 1_555 1_555
H11 C16 1_555 1_555
C17 C15 1_555 1_555
N1 Co1 1_555 1_555
N2 Co1 1_555 1_555
C16B C15 1_555 1_555
C14B C16B 1_555 1_555
C13B C14B 1_555 1_555
O1B C13B 1_555 1_555
O2B C13B 1_555 1_555
C15B C16 1_555 1_555
C17B C15B 1_555 1_555
O3B C17B 1_555 1_555
O4B C17B 1_555 1_555
H11B C16B 1_555 1_555
Co1B O1B 1_555 1_555
O5B Co1B 1_555 1_555
H1B O5B 1_555 1_555
H2B O5B 1_555 1_555
C1B C5B 1_555 1_555
C2B H3B 1_555 1_555
C3B C2B 1_555 1_555
H4B C3B 1_555 1_555
C4B C3B 1_555 1_555
H5B C4B 1_555 1_555
C5B C4B 1_555 1_555
C6B C5B 1_555 1_555
H6B C6B 1_555 1_555
C7B C6B 1_555 1_555
H7B C7B 1_555 1_555
C8B C7B 1_555 1_555
C9B C8B 1_555 1_555
H8B C9B 1_555 1_555
C10B C9B 1_555 1_555
H9B C10B 1_555 1_555
C11B C10B 1_555 1_555
H10B C11B 1_555 1_555
C12B C1B 1_555 1_555
N1B Co1B 1_555 1_555
N2B Co1B 1_555 1_555
O3_2 Co1 1_555 1_555
Co1_2 O3 1_555 1_555
Co1B_2 O3B 1_555 1_555
O3B_2 Co1B 1_555 1_555
C1 N1 1_555 1_555
C2 N1 1_555 1_555
C8 C12 1_555 1_555
C11 N2 1_555 1_555
C12 N2 1_555 1_555
C14B C15B 1_555 1_555
O2B Co1B 1_555 1_555
C1B N1B 1_555 1_555
C2B N1B 1_555 1_555
C8B C12B 1_555 1_555
C11B N2B 1_555 1_555
C12B N2B 1_555 1_555

#END
