
#######################################################################
#
#                 Cambridge Crystallographic Data Centre
#                                CCDC 
#
#######################################################################
#
# If this CIF has been generated from an entry in the Cambridge 
# Structural Database, then it will include bibliographic, chemical, 
# crystal, experimental, refinement or atomic coordinate data resulting 
# from the CCDC's data processing and validation procedures.
#
#######################################################################

data_ABOTUG
_symmetry_cell_setting           monoclinic
_symmetry_space_group_name_H-M   'P 21/n'
_symmetry_Int_Tables_number      14
_space_group_name_Hall           '-P 2yn'
loop_
_symmetry_equiv_pos_site_id
_symmetry_equiv_pos_as_xyz
1 x,y,z
2 1/2+x,1/2-y,1/2+z
3 -x,-y,-z
4 1/2-x,1/2+y,1/2-z
_cell_length_a                   10.192(2)
_cell_length_b                   9.206(2)
_cell_length_c                   15.765(3)
_cell_angle_alpha                90.00
_cell_angle_beta                 92.34(3)
_cell_angle_gamma                90.00
_cell_volume                     1477.96
loop_
_atom_site_label
_atom_site_type_symbol
_atom_site_fract_x
_atom_site_fract_y
_atom_site_fract_z
Co1 Co 0.65142(3) 0.65681(4) 0.81469(2)
N1 N 0.4953(2) 0.7767(3) 0.86272(13)
N2 N 0.6604(2) 0.5938(3) 0.94483(13)
C1 C 0.4098(3) 0.8609(4) 0.8200(2)
H1 H 0.4135(3) 0.8660(4) 0.7612(2)
C2 C 0.3149(3) 0.9417(4) 0.8600(2)
H2 H 0.2551(3) 0.9978(4) 0.8282(2)
C3 C 0.3107(3) 0.9379(4) 0.9465(2)
H3 H 0.2491(3) 0.9934(4) 0.9740(2)
C4 C 0.3991(3) 0.8502(3) 0.9936(2)
C5 C 0.4002(3) 0.8368(4) 1.0848(2)
H4 H 0.3410(3) 0.8904(4) 1.1153(2)
C6 C 0.4854(3) 0.7481(4) 1.1263(2)
H5 H 0.4841(3) 0.7414(4) 1.1851(2)
C7 C 0.5778(3) 0.6641(3) 1.0818(2)
C8 C 0.6684(3) 0.5687(4) 1.1215(2)
H6 H 0.6720(3) 0.5593(4) 1.1802(2)
C9 C 0.7510(3) 0.4900(4) 1.0739(2)
H7 H 0.8117(3) 0.4273(4) 1.1000(2)
C10 C 0.7443(3) 0.5040(3) 0.9846(2)
H8 H 0.8004(3) 0.4486(3) 0.9526(2)
C11 C 0.5788(3) 0.6741(3) 0.9924(2)
C12 C 0.4889(3) 0.7693(3) 0.9482(2)
C13 C 0.5564(2) 0.5997(3) 0.6717(2)
C14 C 0.5282(2) 0.5468(3) 0.58281(15)
C15 C 0.4913(2) 0.6451(3) 0.51957(15)
H9 H 0.4861(2) 0.7432(3) 0.53294(15)
C16 C 0.5382(2) 0.3992(3) 0.5629(2)
C17 C 0.5930(3) 0.2875(3) 0.6247(2)
O1 O 0.6142(2) 0.7197(2) 0.68335(11)
O2 O 0.5253(2) 0.5212(2) 0.73309(11)
O3 O 0.7099(2) 0.3111(2) 0.65249(11)
O4 O 0.5261(2) 0.1786(2) 0.63882(14)
O5 O 0.7992(2) 0.5185(2) 0.78139(13)
C16B C 0.4618(2) 0.6008(3) 0.4371(2)
C14B C 0.4718(2) 0.4532(3) 0.41719(15)
C13B C 0.4436(2) 0.4003(3) 0.3283(2)
O1B O 0.3858(2) 0.2803(2) 0.31665(11)
O2B O 0.4747(2) 0.4788(2) 0.26691(11)
C15B C 0.5087(2) 0.3549(3) 0.48043(15)
H9B H 0.5139(2) 0.2568(3) 0.46706(15)
C17B C 0.4070(3) 0.7125(3) 0.3753(2)
O3B O 0.2901(2) 0.6889(2) 0.34751(11)
O4B O 0.4739(2) 0.8214(2) 0.36118(14)
Co1B Co 0.34858(3) 0.34319(4) 0.18531(2)
N1B N 0.5047(2) 0.2233(3) 0.13728(13)
N2B N 0.3396(2) 0.4062(3) 0.05517(13)
C1B C 0.5902(3) 0.1391(4) 0.1800(2)
H1B H 0.5865(3) 0.1340(4) 0.2388(2)
C2B C 0.6851(3) 0.0583(4) 0.1400(2)
H2B H 0.7449(3) 0.0022(4) 0.1718(2)
C3B C 0.6893(3) 0.0621(4) 0.0535(2)
H3B H 0.7509(3) 0.0066(4) 0.0260(2)
C4B C 0.6009(3) 0.1498(3) 0.0064(2)
C5B C 0.5998(3) 0.1632(4) -0.0848(2)
H4B H 0.6590(3) 0.1096(4) -0.1153(2)
C6B C 0.5146(3) 0.2519(4) -0.1263(2)
H5B H 0.5159(3) 0.2586(4) -0.1851(2)
C7B C 0.4222(3) 0.3359(3) -0.0818(2)
C8B C 0.3316(3) 0.4313(4) -0.1215(2)
H6B H 0.3280(3) 0.4407(4) -0.1802(2)
C9B C 0.2490(3) 0.5100(4) -0.0739(2)
H7B H 0.1883(3) 0.5727(4) -0.1000(2)
C10B C 0.2557(3) 0.4960(3) 0.0154(2)
H8B H 0.1996(3) 0.5514(3) 0.0474(2)
C11B C 0.4212(3) 0.3259(3) 0.0076(2)
C12B C 0.5111(3) 0.2307(3) 0.0518(2)
O5B O 0.2008(2) 0.4815(2) 0.21861(13)
O3C O 0.7901(2) 0.8111(2) 0.84751(11)
Co1C Co 0.84858(3) 0.15681(4) 0.68531(2)
Co1A Co 0.15142(3) 0.84319(4) 0.31469(2)
O3A O 0.2099(2) 0.1889(2) 0.15249(11)
loop_
_geom_bond_atom_site_label_1
_geom_bond_atom_site_label_2
_geom_bond_site_symmetry_1
_geom_bond_site_symmetry_2
Co1 N1 1_555 1_555
N1 C1 1_555 1_555
N2 Co1 1_555 1_555
C1 H1 1_555 1_555
C2 C1 1_555 1_555
H2 C2 1_555 1_555
C3 C2 1_555 1_555
H3 C3 1_555 1_555
C4 C3 1_555 1_555
C5 C4 1_555 1_555
H4 C5 1_555 1_555
C6 C5 1_555 1_555
H5 C6 1_555 1_555
C7 C6 1_555 1_555
C8 C7 1_555 1_555
H6 C8 1_555 1_555
C9 C8 1_555 1_555
H7 C9 1_555 1_555
C10 N2 1_555 1_555
H8 C10 1_555 1_555
C11 N2 1_555 1_555
C12 N1 1_555 1_555
C13 C14 1_555 1_555
C14 C15 1_555 1_555
C15 H9 1_555 1_555
C16 C14 1_555 1_555
C17 C16 1_555 1_555
O1 Co1 1_555 1_555
O2 Co1 1_555 1_555
O3 C17 1_555 1_555
O4 C17 1_555 1_555
O5 Co1 1_555 1_555
C16B C15 1_555 1_555
C14B C16B 1_555 1_555
C13B C14B 1_555 1_555
O1B C13B 1_555 1_555
O2B C13B 1_555 1_555
C15B C16 1_555 1_555
H9B C15B 1_555 1_555
C17B C16B 1_555 1_555
O3B C17B 1_555 1_555
O4B C17B 1_555 1_555
Co1B O1B 1_555 1_555
N1B Co1B 1_555 1_555
N2B Co1B 1_555 1_555
C1B N1B 1_555 1_555
H1B C1B 1_555 1_555
C2B C1B 1_555 1_555
H2B C2B 1_555 1_555
C3B C2B 1_555 1_555
H3B C3B 1_555 1_555
C4B C3B 1_555 1_555
C5B C4B 1_555 1_555
H4B C5B 1_555 1_555
C6B C5B 1_555 1_555
H5B C6B 1_555 1_555
C7B C6B 1_555 1_555
C8B C7B 1_555 1_555
H6B C8B 1_555 1_555
C9B C8B 1_555 1_555
H7B C9B 1_555 1_555
C10B N2B 1_555 1_555
H8B C10B 1_555 1_555
C11B N2B 1_555 1_555
C12B N1B 1_555 1_555
O5B Co1B 1_555 1_555
O3C Co1 1_555 1_555
Co1C O3 1_555 1_555
Co1A O3B 1_555 1_555
O3A Co1B 1_555 1_555
C4 C12 1_555 1_555
C7 C11 1_555 1_555
C9 C10 1_555 1_555
C11 C12 1_555 1_555
C13 O1 1_555 1_555
C13 O2 1_555 1_555
C14B C15B 1_555 1_555
O2B Co1B 1_555 1_555
C4B C12B 1_555 1_555
C7B C11B 1_555 1_555
C9B C10B 1_555 1_555
C11B C12B 1_555 1_555

#END
