
#######################################################################
#
#                 Cambridge Crystallographic Data Centre
#                                CCDC 
#
#######################################################################
#
# If this CIF has been generated from an entry in the Cambridge 
# Structural Database, then it will include bibliographic, chemical, 
# crystal, experimental, refinement or atomic coordinate data resulting 
# from the CCDC's data processing and validation procedures.
#
#######################################################################

data_ABOXAR
_symmetry_cell_setting           orthorhombic
_symmetry_space_group_name_H-M   'P b c a'
_symmetry_Int_Tables_number      61
_space_group_name_Hall           '-P 2ac 2ab'
loop_
_symmetry_equiv_pos_site_id
_symmetry_equiv_pos_as_xyz
1 x,y,z
2 1/2+x,y,1/2-z
3 x,1/2-y,1/2+z
4 1/2-x,1/2+y,z
5 -x,-y,-z
6 1/2-x,-y,1/2+z
7 -x,1/2+y,1/2-z
8 1/2+x,1/2-y,-z
_cell_length_a                   20.319(2)
_cell_length_b                   19.014(2)
_cell_length_c                   23.236(3)
_cell_angle_alpha                90
_cell_angle_beta                 90
_cell_angle_gamma                90
_cell_volume                     8977.12
loop_
_atom_site_label
_atom_site_type_symbol
_atom_site_fract_x
_atom_site_fract_y
_atom_site_fract_z
C1 C 0.10889(17) 0.8130(3) 0.76863(16)
C2 C 0.33912(10) 0.85671(12) 0.89663(10)
C3 C 0.36947(13) 0.90781(12) 0.92953(11)
H1 H 0.3515 0.9203 0.9649
C4 C 0.42624(15) 0.94054(14) 0.91050(13)
H2 H 0.4465 0.9746 0.9331
C5 C 0.45242(14) 0.92276(17) 0.85846(13)
H3 H 0.4909 0.9442 0.8458
C6 C 0.42213(13) 0.87343(16) 0.82487(12)
H4 H 0.4397 0.8618 0.7892
C7 C 0.36574(13) 0.84101(15) 0.84377(10)
H5 H 0.3452 0.8079 0.8204
C8 C 0.18949(11) 0.86176(11) 0.98037(10)
C9 C 0.12639(12) 0.87157(14) 0.96066(12)
H6 H 0.1140 0.8524 0.9254
C10 C 0.08109(13) 0.90931(16) 0.99222(15)
H7 H 0.0383 0.9148 0.9786
C11 C 0.09925(17) 0.93873(15) 1.04367(14)
H8 H 0.0688 0.9641 1.0652
C12 C 0.16170(18) 0.93078(18) 1.06300(13)
H9 H 0.1744 0.9516 1.0975
C13 C 0.20646(14) 0.89194(15) 1.03166(11)
H10 H 0.2490 0.8862 1.0457
C14 C 0.24411(11) 0.69588(12) 0.91108(11)
C15 C 0.25901(15) 0.67005(16) 0.85710(12)
H11 H 0.2725 0.7008 0.8283
C16 C 0.25402(17) 0.59937(18) 0.84550(13)
H12 H 0.2655 0.5826 0.8093
C17 C 0.23260(17) 0.55387(16) 0.88604(16)
H13 H 0.2286 0.5063 0.8776
C18 C 0.22363(14) 0.64772(15) 0.95243(12)
H14 H 0.2144 0.6632 0.9895
C19 C 0.21695(17) 0.57842(17) 0.93955(14)
H15 H 0.2016 0.5474 0.9674
C20 C 0.32624(13) 0.77523(12) 1.18550(10)
C21 C 0.38816(14) 0.78155(15) 1.20825(12)
H16 H 0.4146 0.7418 1.2117
C22 C 0.28785(16) 0.83498(15) 1.18023(15)
H17 H 0.2455 0.8320 1.1652
C23 C 0.3133(2) 0.89978(16) 1.19768(16)
H18 H 0.2878 0.9401 1.1940
C24 C 0.3749(2) 0.90445(19) 1.21997(15)
H19 H 0.3915 0.9480 1.2310
C25 C 0.4121(2) 0.84633(19) 1.22625(15)
H20 H 0.4538 0.8496 1.2426
C26 C 0.20364(11) 0.65899(14) 1.11585(10)
C27 C 0.16572(14) 0.71443(17) 1.09679(12)
H21 H 0.1796 0.7602 1.1040
C28 C 0.10807(17) 0.7036(2) 1.06742(14)
H22 H 0.0833 0.7417 1.0547
C29 C 0.08757(17) 0.6373(3) 1.05718(15)
H23 H 0.0482 0.6298 1.0377
C30 C 0.1237(2) 0.5812(2) 1.07495(15)
H24 H 0.1091 0.5357 1.0675
C31 C 0.18263(15) 0.59177(17) 1.10439(12)
H25 H 0.2077 0.5535 1.1162
C32 C 0.35193(11) 0.58918(11) 1.18377(9)
C33 C 0.32751(13) 0.53693(13) 1.21897(11)
H26 H 0.2838 0.5387 1.2307
C34 C 0.41762(13) 0.58521(14) 1.16708(11)
H27 H 0.4351 0.6195 1.1430
C35 C 0.45677(15) 0.53117(17) 1.18584(14)
H28 H 0.5008 0.5296 1.1751
C36 C 0.43142(17) 0.47978(17) 1.22009(14)
H29 H 0.4580 0.4428 1.2321
C37 C 0.36679(16) 0.48236(15) 1.23696(13)
H30 H 0.3496 0.4473 1.2605
C38 C 0.43354(11) 0.78818(12) 1.05916(9)
C39 C 0.42335(13) 0.85778(13) 1.07216(11)
H31 H 0.3824 0.8781 1.0657
C40 C 0.49481(12) 0.75926(15) 1.06929(12)
H32 H 0.5023 0.7122 1.0607
C41 C 0.54508(14) 0.79932(17) 1.09200(14)
H33 H 0.5861 0.7793 1.0989
C42 C 0.53416(14) 0.86871(17) 1.10422(12)
H34 H 0.5680 0.8963 1.1190
C43 C 0.47357(14) 0.89733(15) 1.09471(13)
H35 H 0.4662 0.9444 1.1037
C44 C 0.40239(11) 0.68457(12) 0.97321(10)
C45 C 0.43902(13) 0.71898(15) 0.93143(10)
H36 H 0.4493 0.7664 0.9358
C46 C 0.38875(14) 0.61416(13) 0.96701(11)
H37 H 0.3651 0.5905 0.9953
C47 C 0.45997(17) 0.68311(18) 0.88394(13)
H38 H 0.4848 0.7060 0.8560
C48 C 0.44445(19) 0.6135(2) 0.87752(13)
H39 H 0.4575 0.5896 0.8445
C49 C 0.40999(18) 0.57898(17) 0.91920(13)
H40 H 0.4009 0.5313 0.9151
O1 O 0.31379(7) 0.78109(8) 1.01127(6)
O2 O 0.34838(8) 0.68127(8) 1.07743(7)
O3 O 0.19596(10) 0.82689(12) 0.84571(7)
O4 O 0.23282(9) 0.82958(11) 0.74876(8)
O5 O 0.17139(15) 0.92712(13) 0.78677(13)
F1 F 0.11753(14) 0.7457(2) 0.76551(17)
F2 F 0.06336(9) 0.82620(14) 0.80633(10)
F3 F 0.08935(12) 0.8379(2) 0.71955(11)
P1 P 0.36878(3) 0.73382(3) 1.03173(2)
Sn1 Sn 0.259603(7) 0.801552(8) 0.933571(6)
Sn2 Sn 0.295530(7) 0.675781(8) 1.155542(6)
S1 S 0.18603(3) 0.85462(4) 0.78954(3)
Sn2B Sn 0.295530(7) 0.824219(8) 0.655542(6)
O4B O 0.23282(9) 0.67042(11) 1.24876(8)
loop_
_geom_bond_atom_site_label_1
_geom_bond_atom_site_label_2
_geom_bond_site_symmetry_1
_geom_bond_site_symmetry_2
C1 F1 1_555 1_555
C2 C3 1_555 1_555
C3 H1 1_555 1_555
C4 C3 1_555 1_555
H2 C4 1_555 1_555
C5 C4 1_555 1_555
H3 C5 1_555 1_555
C6 C5 1_555 1_555
H4 C6 1_555 1_555
C7 C2 1_555 1_555
H5 C7 1_555 1_555
C8 C9 1_555 1_555
C9 H6 1_555 1_555
C10 C9 1_555 1_555
H7 C10 1_555 1_555
C11 C10 1_555 1_555
H8 C11 1_555 1_555
C12 C11 1_555 1_555
H9 C12 1_555 1_555
C13 C8 1_555 1_555
H10 C13 1_555 1_555
C14 C15 1_555 1_555
C15 H11 1_555 1_555
C16 C15 1_555 1_555
H12 C16 1_555 1_555
C17 C16 1_555 1_555
H13 C17 1_555 1_555
C18 C14 1_555 1_555
H14 C18 1_555 1_555
C19 C17 1_555 1_555
H15 C19 1_555 1_555
C20 C21 1_555 1_555
C21 H16 1_555 1_555
C22 C20 1_555 1_555
H17 C22 1_555 1_555
C23 C22 1_555 1_555
H18 C23 1_555 1_555
C24 C23 1_555 1_555
H19 C24 1_555 1_555
C25 C21 1_555 1_555
H20 C25 1_555 1_555
C26 C27 1_555 1_555
C27 H21 1_555 1_555
C28 C27 1_555 1_555
H22 C28 1_555 1_555
C29 C28 1_555 1_555
H23 C29 1_555 1_555
C30 C29 1_555 1_555
H24 C30 1_555 1_555
C31 C26 1_555 1_555
H25 C31 1_555 1_555
C32 C33 1_555 1_555
C33 H26 1_555 1_555
C34 C32 1_555 1_555
H27 C34 1_555 1_555
C35 C34 1_555 1_555
H28 C35 1_555 1_555
C36 C35 1_555 1_555
H29 C36 1_555 1_555
C37 C33 1_555 1_555
H30 C37 1_555 1_555
C38 C39 1_555 1_555
C39 H31 1_555 1_555
C40 C38 1_555 1_555
H32 C40 1_555 1_555
C41 C40 1_555 1_555
H33 C41 1_555 1_555
C42 C41 1_555 1_555
H34 C42 1_555 1_555
C43 C39 1_555 1_555
H35 C43 1_555 1_555
C44 C45 1_555 1_555
C45 H36 1_555 1_555
C46 C44 1_555 1_555
H37 C46 1_555 1_555
C47 C45 1_555 1_555
H38 C47 1_555 1_555
C48 C47 1_555 1_555
H39 C48 1_555 1_555
C49 C46 1_555 1_555
H40 C49 1_555 1_555
O1 P1 1_555 1_555
O2 P1 1_555 1_555
O3 Sn1 1_555 1_555
O4 S1 1_555 1_555
O5 S1 1_555 1_555
F2 C1 1_555 1_555
F3 C1 1_555 1_555
P1 C38 1_555 1_555
Sn1 C2 1_555 1_555
Sn2 C20 1_555 1_555
S1 C1 1_555 1_555
Sn2B O4 1_555 1_555
O4B Sn2 1_555 1_555
C6 C7 1_555 1_555
C8 Sn1 1_555 1_555
C12 C13 1_555 1_555
C14 Sn1 1_555 1_555
C18 C19 1_555 1_555
C24 C25 1_555 1_555
C26 Sn2 1_555 1_555
C30 C31 1_555 1_555
C32 Sn2 1_555 1_555
C36 C37 1_555 1_555
C42 C43 1_555 1_555
C44 P1 1_555 1_555
C48 C49 1_555 1_555
O1 Sn1 1_555 1_555
O2 Sn2 1_555 1_555
O3 S1 1_555 1_555

#END
