
#######################################################################
#
#                 Cambridge Crystallographic Data Centre
#                                CCDC 
#
#######################################################################
#
# If this CIF has been generated from an entry in the Cambridge 
# Structural Database, then it will include bibliographic, chemical, 
# crystal, experimental, refinement or atomic coordinate data resulting 
# from the CCDC's data processing and validation procedures.
#
#######################################################################

data_ABOYAS
_symmetry_cell_setting           monoclinic
_symmetry_space_group_name_H-M   'P 21/a'
_symmetry_Int_Tables_number      14
_space_group_name_Hall           '-P 2yab'
loop_
_symmetry_equiv_pos_site_id
_symmetry_equiv_pos_as_xyz
1 x,y,z
2 1/2+x,1/2-y,z
3 -x,-y,-z
4 1/2-x,1/2+y,-z
_cell_length_a                   17.8710(3)
_cell_length_b                   7.08800(10)
_cell_length_c                   22.7860(3)
_cell_angle_alpha                90
_cell_angle_beta                 112.8550(10)
_cell_angle_gamma                90
_cell_volume                     2659.69
loop_
_atom_site_label
_atom_site_type_symbol
_atom_site_fract_x
_atom_site_fract_y
_atom_site_fract_z
Sn1 Sn 0.554470(12) 0.49092(3) 0.291168(9)
Sn2 Sn 0.260560(12) 0.29409(3) 0.212030(9)
O1 O 0.51517(12) 0.4603(3) 0.37012(9)
O2 O 0.38714(12) 0.4245(3) 0.30128(9)
O3 O 0.18764(14) 0.4006(4) 0.40413(12)
O4 O 0.21893(15) 0.2484(4) 0.49303(12)
O5 O 0.59192(14) 0.1711(4) 0.58091(11)
O6 O 0.49835(15) 0.0672(3) 0.61129(10)
O7 O 0.64620(12) 0.3048(3) 0.14071(10)
O8 O 0.61425(12) 0.4844(3) 0.20851(10)
O9 O 0.40685(15) 0.0900(4) -0.04614(11)
O10 O 0.30984(16) 0.2888(4) -0.09199(11)
O11 O 0.29974(15) 0.8753(4) 0.01377(12)
O12 O 0.40601(17) 0.9648(3) 0.09478(12)
N1 N 0.23618(17) 0.3195(4) 0.45072(13)
N2 N 0.52080(18) 0.1498(4) 0.57335(12)
N3 N 0.37199(16) 0.2397(4) -0.04817(12)
N4 N 0.36806(17) 0.8493(4) 0.05382(12)
C1 C 0.4814(2) 0.7276(4) 0.24781(15)
H1 H 0.4618 0.7866 0.2781
H2 H 0.4350 0.6866 0.2100
H3 H 0.5137 0.8190 0.2353
C2 C 0.52135(19) 0.2096(4) 0.25983(16)
H4 H 0.5382 0.1812 0.2247
H5 H 0.4623 0.1954 0.2452
H6 H 0.5482 0.1223 0.2951
C3 C 0.67441(19) 0.5585(5) 0.35378(15)
H7 H 0.6868 0.6887 0.3462
H8 H 0.7127 0.4725 0.3462
H9 H 0.6793 0.5456 0.3979
C4 C 0.44059(17) 0.4183(4) 0.35560(13)
C5 C 0.41949(18) 0.3575(4) 0.41119(13)
C6 C 0.34009(19) 0.3666(4) 0.40609(14)
H10 H 0.2989 0.4147 0.3685
C7 C 0.32116(19) 0.3051(4) 0.45628(15)
C8 C 0.37856(19) 0.2301(4) 0.51120(14)
H11 H 0.3645 0.1833 0.5446
C9 C 0.45751(19) 0.2265(4) 0.51504(13)
C10 C 0.48009(19) 0.2899(4) 0.46678(13)
H12 H 0.5353 0.2875 0.4715
C11 C 0.2031(2) 0.5119(4) 0.24261(17)
H13 H 0.1551 0.5557 0.2065
H14 H 0.1866 0.4637 0.2761
H15 H 0.2410 0.6172 0.2594
C12 C 0.3068(2) 0.3778(5) 0.14358(15)
H16 H 0.3573 0.4488 0.1646
H17 H 0.3177 0.2658 0.1230
H18 H 0.2669 0.4578 0.1115
C13 C 0.30585(19) 0.0309(4) 0.25554(16)
H19 H 0.3634 0.0200 0.2628
H20 H 0.2997 0.0227 0.2964
H21 H 0.2753 -0.0715 0.2276
C14 C 0.59956(17) 0.4139(4) 0.15541(13)
C15 C 0.51932(16) 0.4570(4) 0.10171(13)
C16 C 0.48331(17) 0.3275(4) 0.05255(13)
H22 H 0.5090 0.2109 0.0516
C17 C 0.40908(17) 0.3737(4) 0.00514(13)
C18 C 0.36952(17) 0.5424(4) 0.00392(14)
H23 H 0.3186 0.5709 -0.0291
C19 C 0.40757(17) 0.6670(4) 0.05288(13)
C20 C 0.48189(17) 0.6282(4) 0.10202(13)
H24 H 0.5065 0.7173 0.1351
O7A O 0.14620(12) 0.1952(3) 0.14071(10)
Sn2A Sn 0.760560(12) 0.20591(3) 0.212030(9)
loop_
_geom_bond_atom_site_label_1
_geom_bond_atom_site_label_2
_geom_bond_site_symmetry_1
_geom_bond_site_symmetry_2
Sn1 O1 1_555 1_555
Sn2 O2 1_555 1_555
O1 C4 1_555 1_555
O2 C4 1_555 1_555
O3 N1 1_555 1_555
O4 N1 1_555 1_555
O5 N2 1_555 1_555
O6 N2 1_555 1_555
O7 C14 1_555 1_555
O8 Sn1 1_555 1_555
O9 N3 1_555 1_555
O10 N3 1_555 1_555
O11 N4 1_555 1_555
O12 N4 1_555 1_555
N1 C7 1_555 1_555
N2 C9 1_555 1_555
N3 C17 1_555 1_555
N4 C19 1_555 1_555
C1 Sn1 1_555 1_555
H1 C1 1_555 1_555
H2 C1 1_555 1_555
H3 C1 1_555 1_555
C2 Sn1 1_555 1_555
H4 C2 1_555 1_555
H5 C2 1_555 1_555
H6 C2 1_555 1_555
C3 Sn1 1_555 1_555
H7 C3 1_555 1_555
H8 C3 1_555 1_555
H9 C3 1_555 1_555
C4 C5 1_555 1_555
C5 C6 1_555 1_555
C6 H10 1_555 1_555
C7 C6 1_555 1_555
C8 C7 1_555 1_555
H11 C8 1_555 1_555
C9 C8 1_555 1_555
C10 C5 1_555 1_555
H12 C10 1_555 1_555
C11 Sn2 1_555 1_555
H13 C11 1_555 1_555
H14 C11 1_555 1_555
H15 C11 1_555 1_555
C12 Sn2 1_555 1_555
H16 C12 1_555 1_555
H17 C12 1_555 1_555
H18 C12 1_555 1_555
C13 Sn2 1_555 1_555
H19 C13 1_555 1_555
H20 C13 1_555 1_555
H21 C13 1_555 1_555
C14 O8 1_555 1_555
C15 C14 1_555 1_555
C16 C15 1_555 1_555
H22 C16 1_555 1_555
C17 C16 1_555 1_555
C18 C17 1_555 1_555
H23 C18 1_555 1_555
C19 C18 1_555 1_555
C20 C15 1_555 1_555
H24 C20 1_555 1_555
O7A Sn2 1_555 1_555
Sn2A O7 1_555 1_555
C9 C10 1_555 1_555
C19 C20 1_555 1_555

#END
