
#######################################################################
#
#                 Cambridge Crystallographic Data Centre
#                                CCDC 
#
#######################################################################
#
# If this CIF has been generated from an entry in the Cambridge 
# Structural Database, then it will include bibliographic, chemical, 
# crystal, experimental, refinement or atomic coordinate data resulting 
# from the CCDC's data processing and validation procedures.
#
#######################################################################

data_ABOZUO
_symmetry_cell_setting           orthorhombic
_symmetry_space_group_name_H-M   'P b c a'
_symmetry_Int_Tables_number      61
_space_group_name_Hall           '-P 2ac 2ab'
loop_
_symmetry_equiv_pos_site_id
_symmetry_equiv_pos_as_xyz
1 x,y,z
2 1/2-x,-y,1/2+z
3 -x,1/2+y,1/2-z
4 1/2+x,1/2-y,-z
5 -x,-y,-z
6 1/2+x,y,1/2-z
7 x,1/2-y,1/2+z
8 1/2-x,1/2+y,z
_cell_length_a                   15.028(4)
_cell_length_b                   14.959(4)
_cell_length_c                   20.254(6)
_cell_angle_alpha                90
_cell_angle_beta                 90
_cell_angle_gamma                90
_cell_volume                     4553.18
loop_
_atom_site_label
_atom_site_type_symbol
_atom_site_fract_x
_atom_site_fract_y
_atom_site_fract_z
U1 U 0.977449(17) 0.133742(16) 0.476309(13)
Ce1 Ce 0.86857(3) 0.52592(3) 0.48271(2)
P1 P 0.95763(12) 0.36769(12) 0.41213(9)
P2 P 0.84416(12) -0.03549(12) 0.55988(10)
P3 P 0.76682(13) 0.17332(12) 0.57260(10)
P4 P 1.04546(13) 0.56998(13) 0.37225(10)
O1 O 0.8602(3) 0.4003(3) 0.4152(3)
O2 O 1.0029(3) 0.4258(3) 0.4652(2)
O3 O 0.7713(3) -0.0216(3) 0.5090(2)
O4 O 0.8457(3) 0.1694(3) 0.5261(3)
O5 O 0.9331(3) 0.0041(3) 0.5351(2)
O6 O 0.6795(3) 0.1470(3) 0.5400(2)
O7 O 0.8696(3) -0.1335(3) 0.5716(3)
O8 O 1.0347(3) 0.1726(3) 0.5467(3)
O9 O 0.9533(3) 0.5878(3) 0.3997(3)
O10 O 1.1180(3) 0.5517(3) 0.4233(2)
O11 O 0.9196(3) 0.0927(3) 0.4063(2)
O12 O 0.7698(3) 0.5990(3) 0.4035(2)
O13 O 1.0779(3) 0.6541(3) 0.3314(2)
O14 O 0.7598(3) 0.2697(3) 0.6024(2)
C1 C 0.8159(5) 0.0130(5) 0.6376(4)
C2 C 1.0376(5) 0.4790(5) 0.3142(4)
C3 C 1.0040(5) 0.3938(5) 0.3321(4)
C4 C 1.0003(5) 0.3264(5) 0.2849(4)
H1 H 0.9802 0.2685 0.2970
C5 C 0.7662(5) 0.1363(5) 0.7051(4)
H2 H 0.7427 0.1950 0.7088
C6 C 1.0561(5) 0.4267(5) 0.2020(4)
H3 H 1.0728 0.4384 0.1575
C7 C 0.8112(6) -0.0018(5) 0.7562(4)
H4 H 0.8204 -0.0376 0.7943
C8 C 1.0621(5) 0.4933(5) 0.2490(3)
H5 H 1.0835 0.5505 0.2364
C9 C 1.0259(5) 0.3432(5) 0.2200(4)
H6 H 1.0224 0.2970 0.1880
C10 C 0.8290(5) -0.0362(5) 0.6937(4)
H7 H 0.8509 -0.0955 0.6899
C11 C 0.7863(5) 0.1028(5) 0.6433(4)
C12 C 0.7797(5) 0.0858(6) 0.7627(4)
H8 H 0.7678 0.1105 0.8050
O15 O 0.9675(3) 0.2688(3) 0.4237(2)
U1D U 1.022551(17) -0.133742(16) 0.523691(13)
Ce1D Ce 1.13143(3) 0.47408(3) 0.51729(2)
Ce1G Ce 0.63143(3) 0.02592(3) 0.48271(2)
O2D O 0.9971(3) 0.5742(3) 0.5348(2)
O3G O 0.7287(3) 0.4784(3) 0.5090(2)
O5D O 1.0669(3) -0.0041(3) 0.4649(2)
O6G O 0.8205(3) 0.6470(3) 0.5400(2)
O7D O 1.1304(3) 0.1335(3) 0.4284(3)
O10D O 0.8820(3) 0.4483(3) 0.5767(2)
O16 O 1.2880(4) -0.2760(4) 0.6007(3)
H9 H 1.342(6) -0.287(6) 0.577(4)
H10 H 1.249(6) -0.289(7) 0.595(5)
loop_
_geom_bond_atom_site_label_1
_geom_bond_atom_site_label_2
_geom_bond_site_symmetry_1
_geom_bond_site_symmetry_2
U1 O4 1_555 1_555
Ce1 O1 1_555 1_555
P1 O1 1_555 1_555
P2 O3 1_555 1_555
P3 O4 1_555 1_555
P4 O9 1_555 1_555
O2 Ce1 1_555 1_555
O3 Ce1G 1_555 1_555
O5 U1 1_555 1_555
O6 P3 1_555 1_555
O7 P2 1_555 1_555
O8 U1 1_555 1_555
O9 Ce1 1_555 1_555
O10 P4 1_555 1_555
O11 U1 1_555 1_555
O12 Ce1 1_555 1_555
O13 P4 1_555 1_555
O14 P3 1_555 1_555
C1 P2 1_555 1_555
C2 P4 1_555 1_555
C3 P1 1_555 1_555
C4 C3 1_555 1_555
H1 C4 1_555 1_555
C5 H2 1_555 1_555
C6 H3 1_555 1_555
C7 H4 1_555 1_555
C8 C2 1_555 1_555
H5 C8 1_555 1_555
C9 C4 1_555 1_555
H6 C9 1_555 1_555
C10 C1 1_555 1_555
H7 C10 1_555 1_555
C11 P3 1_555 1_555
C12 C5 1_555 1_555
H8 C12 1_555 1_555
O15 U1 1_555 1_555
O16 H9 1_555 1_555
H10 O16 1_555 1_555
U1D O5 1_555 1_555
Ce1D O2 1_555 1_555
Ce1G O6 1_555 1_555
O2D Ce1 1_555 1_555
O3G Ce1 1_555 1_555
O5D U1 1_555 1_555
O6G Ce1 1_555 1_555
O7D U1 1_555 1_555
O10D Ce1 1_555 1_555
P1 O2 1_555 1_555
P1 O15 1_555 1_555
P2 O5 1_555 1_555
O7 U1D 1_555 1_555
O10 Ce1D 1_555 1_555
C1 C11 1_555 1_555
C2 C3 1_555 1_555
C5 C11 1_555 1_555
C6 C8 1_555 1_555
C6 C9 1_555 1_555
C7 C10 1_555 1_555
C7 C12 1_555 1_555
U1D O5D 1_555 1_555
Ce1D O2D 1_555 1_555

#END
