
#######################################################################
#
#                 Cambridge Crystallographic Data Centre
#                                CCDC 
#
#######################################################################
#
# If this CIF has been generated from an entry in the Cambridge 
# Structural Database, then it will include bibliographic, chemical, 
# crystal, experimental, refinement or atomic coordinate data resulting 
# from the CCDC's data processing and validation procedures.
#
#######################################################################

data_ABPZCU03
_symmetry_cell_setting           triclinic
_symmetry_space_group_name_H-M   'P -1'
_symmetry_Int_Tables_number      2
_space_group_name_Hall           '-P 1'
loop_
_symmetry_equiv_pos_site_id
_symmetry_equiv_pos_as_xyz
1 x,y,z
2 -x,-y,-z
_cell_length_a                   6.9630(10)
_cell_length_b                   9.8040(10)
_cell_length_c                   9.8190(10)
_cell_angle_alpha                78.900(10)
_cell_angle_beta                 77.680(10)
_cell_angle_gamma                78.050(10)
_cell_volume                     632.906
loop_
_atom_site_label
_atom_site_type_symbol
_atom_site_fract_x
_atom_site_fract_y
_atom_site_fract_z
Cu1 Cu 0.25000(7) 0.27435(4) 0.22566(4)
S1 S -0.2502(1) 0.3461(1) 0.1539(1)
O1 O -0.1136(4) 0.3148(3) 0.2550(3)
O2 O -0.3687(4) 0.4912(2) 0.1583(3)
O3 O -0.1316(4) 0.3413(3) 0.0087(2)
O4 O -0.3865(4) 0.2457(3) 0.1849(3)
N1 N 0.2721(4) 0.0641(3) 0.2596(3)
N2 N 0.2276(4) 0.2408(3) 0.4357(3)
C1 C 0.2961(5) -0.0180(3) 0.1602(3)
C2 C 0.3132(5) -0.1618(3) 0.1919(4)
C3 C 0.3029(5) -0.2236(3) 0.3316(4)
C4 C 0.2781(5) -0.1413(3) 0.4352(3)
C5 C 0.2619(4) 0.0035(3) 0.3960(3)
C6 C 0.2368(4) 0.1050(3) 0.4958(3)
C7 C 0.2232(5) 0.0643(4) 0.6404(3)
C8 C 0.1969(5) 0.1682(4) 0.7246(3)
C9 C 0.1862(5) 0.3086(4) 0.6616(3)
C10 C 0.2035(5) 0.3404(3) 0.5168(3)
O5 O 0.2473(4) 0.2894(2) 0.0227(2)
O6 O 0.2530(4) 0.4779(2) 0.2108(2)
H1 H 0.3017 0.0256 0.0634
H2 H 0.3318 -0.2179 0.1185
H3 H 0.3134 -0.3241 0.3562
H4 H 0.2722 -0.1829 0.5325
H5 H 0.2345 -0.0336 0.6812
H6 H 0.1821 0.1425 0.8252
H7 H 0.1689 0.3820 0.7176
H8 H 0.2000 0.4368 0.4723
H9 H 0.1231 0.2978 0.0124
H10 H 0.3276 0.3282 -0.0440
H11 H 0.3704 0.4927 0.1994
H12 H 0.1979 0.5135 0.1387
O4_2 O 0.6135(4) 0.2457(3) 0.1849(3)
Cu1_2 Cu -0.75000(7) 0.27435(4) 0.22566(4)
loop_
_geom_bond_atom_site_label_1
_geom_bond_atom_site_label_2
_geom_bond_site_symmetry_1
_geom_bond_site_symmetry_2
Cu1 O1 1_555 1_555
S1 O1 1_555 1_555
O2 S1 1_555 1_555
O3 S1 1_555 1_555
O4 S1 1_555 1_555
N1 Cu1 1_555 1_555
N2 Cu1 1_555 1_555
C1 N1 1_555 1_555
C2 C1 1_555 1_555
C3 C2 1_555 1_555
C4 C3 1_555 1_555
C5 N1 1_555 1_555
C6 N2 1_555 1_555
C7 C6 1_555 1_555
C8 C7 1_555 1_555
C9 C8 1_555 1_555
C10 N2 1_555 1_555
O5 Cu1 1_555 1_555
O6 Cu1 1_555 1_555
H1 C1 1_555 1_555
H2 C2 1_555 1_555
H3 C3 1_555 1_555
H4 C4 1_555 1_555
H5 C7 1_555 1_555
H6 C8 1_555 1_555
H7 C9 1_555 1_555
H8 C10 1_555 1_555
H9 O5 1_555 1_555
H10 O5 1_555 1_555
H11 O6 1_555 1_555
H12 O6 1_555 1_555
O4_2 Cu1 1_555 1_555
Cu1_2 O4 1_555 1_555
C4 C5 1_555 1_555
C5 C6 1_555 1_555
C9 C10 1_555 1_555

#END
