
#######################################################################
#
#                 Cambridge Crystallographic Data Centre
#                                CCDC 
#
#######################################################################
#
# If this CIF has been generated from an entry in the Cambridge 
# Structural Database, then it will include bibliographic, chemical, 
# crystal, experimental, refinement or atomic coordinate data resulting 
# from the CCDC's data processing and validation procedures.
#
#######################################################################

data_ABUBUW
_symmetry_cell_setting           triclinic
_symmetry_space_group_name_H-M   'P -1'
_symmetry_Int_Tables_number      2
_space_group_name_Hall           '-P 1'
loop_
_symmetry_equiv_pos_site_id
_symmetry_equiv_pos_as_xyz
1 x,y,z
2 -x,-y,-z
_cell_length_a                   7.931(3)
_cell_length_b                   9.961(3)
_cell_length_c                   12.952(4)
_cell_angle_alpha                99.711(4)
_cell_angle_beta                 95.693(4)
_cell_angle_gamma                102.967(3)
_cell_volume                     972.781
loop_
_atom_site_label
_atom_site_type_symbol
_atom_site_fract_x
_atom_site_fract_y
_atom_site_fract_z
U1 U 0.50143(5) 0.25209(4) 0.50652(3)
P1 P 0.4441(3) 0.0188(2) 0.70342(18)
P2 P 0.8318(3) 0.0943(2) 0.61729(18)
P3 P 0.2228(3) 0.4676(2) 0.61764(18)
P4 P 0.6503(3) 0.5893(2) 0.70560(18)
O1 O 0.2445(7) 0.3213(6) 0.5741(5)
O2 O 0.7892(8) 0.2211(6) 0.5773(5)
O3 O 0.6610(7) 0.6999(6) 0.6375(5)
O4 O 0.4603(7) 0.1395(6) 0.6453(5)
O5 O 0.4002(7) -0.1250(6) 0.6316(5)
O6 O 0.3025(8) 0.0193(7) 0.7803(5)
O7 O 0.8285(8) 0.6256(6) 0.7825(5)
O8 O 0.3078(8) 0.5789(6) 0.5612(5)
O9 O 0.0234(7) 0.4630(6) 0.6141(5)
O10 O 0.7197(8) -0.0461(6) 0.5589(5)
O11 O 1.0303(7) 0.0979(6) 0.6133(5)
O12 O 0.6079(8) 0.4408(6) 0.6431(5)
C1 C 0.3092(12) 0.5303(9) 0.7580(7)
C2 C 0.8086(11) 0.0992(9) 0.7569(7)
C3 C 0.4884(11) 0.5925(9) 0.7951(7)
C4 C 0.6473(11) 0.0558(8) 0.7911(7)
C5 C 0.1903(12) 0.5208(10) 0.8316(8)
H1 H 0.0695 0.4801 0.8080
C6 C 0.5401(13) 0.6438(10) 0.8997(8)
H2 H 0.6604 0.6863 0.9238
C7 C 0.6421(13) 0.0474(11) 0.8962(8)
H3 H 0.5329 0.0132 0.9187
C8 C 0.9519(13) 0.1360(11) 0.9369(8)
H4 H 1.0557 0.1658 0.9868
C9 C 0.9603(12) 0.1413(9) 0.8308(8)
H5 H 1.0702 0.1737 0.8084
C10 C 0.2499(14) 0.5712(12) 0.9394(8)
H6 H 0.1702 0.5602 0.9893
C11 C 0.4233(16) 0.6369(12) 0.9738(9)
H7 H 0.4629 0.6767 1.0465
C12 C 0.7935(14) 0.0878(13) 0.9696(9)
H8 H 0.7875 0.0821 1.0417
U1A U 0.49857(5) 0.74791(4) 0.49348(3)
U1A_2 U 0.49857(5) -0.25209(4) 0.49348(3)
O3A O 0.3390(7) 0.3001(6) 0.3625(5)
O5A O 0.5998(7) 0.1250(6) 0.3684(5)
O8A O 0.6922(8) 0.4211(6) 0.4388(5)
O10A O 0.2803(8) 0.0461(6) 0.4411(5)
O13 O 0.9965(19) 0.2500(17) 0.4905(10)
O14 O 0.9599(8) 0.2042(7) 0.3237(6)
loop_
_geom_bond_atom_site_label_1
_geom_bond_atom_site_label_2
_geom_bond_site_symmetry_1
_geom_bond_site_symmetry_2
U1 O1 1_555 1_555
P1 O4 1_555 1_555
P2 O2 1_555 1_555
P3 O1 1_555 1_555
P4 O3 1_555 1_555
O2 U1 1_555 1_555
O3 U1A 1_555 1_555
O4 U1 1_555 1_555
O5 P1 1_555 1_555
O6 P1 1_555 1_555
O7 P4 1_555 1_555
O8 P3 1_555 1_555
O9 P3 1_555 1_555
O10 P2 1_555 1_555
O11 P2 1_555 1_555
O12 U1 1_555 1_555
C1 P3 1_555 1_555
C2 P2 1_555 1_555
C3 P4 1_555 1_555
C4 P1 1_555 1_555
C5 C1 1_555 1_555
H1 C5 1_555 1_555
C6 C3 1_555 1_555
H2 C6 1_555 1_555
C7 C4 1_555 1_555
H3 C7 1_555 1_555
C8 H4 1_555 1_555
C9 C2 1_555 1_555
H5 C9 1_555 1_555
C10 C5 1_555 1_555
H6 C10 1_555 1_555
C11 C6 1_555 1_555
H7 C11 1_555 1_555
C12 C7 1_555 1_555
H8 C12 1_555 1_555
U1A O8 1_555 1_555
U1A_2 O5 1_555 1_555
O3A U1 1_555 1_555
O5A U1 1_555 1_555
O8A U1 1_555 1_555
O10A U1 1_555 1_555
P4 O12 1_555 1_555
O10 U1A_2 1_555 1_555
C1 C3 1_555 1_555
C2 C4 1_555 1_555
C8 C9 1_555 1_555
C8 C12 1_555 1_555
C10 C11 1_555 1_555

#END
