
#######################################################################
#
#                 Cambridge Crystallographic Data Centre
#                                CCDC 
#
#######################################################################
#
# If this CIF has been generated from an entry in the Cambridge 
# Structural Database, then it will include bibliographic, chemical, 
# crystal, experimental, refinement or atomic coordinate data resulting 
# from the CCDC's data processing and validation procedures.
#
#######################################################################

data_ABUBOQ
_symmetry_cell_setting           monoclinic
_symmetry_space_group_name_H-M   'P 21/c'
_symmetry_Int_Tables_number      14
_space_group_name_Hall           '-P 2ybc'
loop_
_symmetry_equiv_pos_site_id
_symmetry_equiv_pos_as_xyz
1 x,y,z
2 -x,1/2+y,1/2-z
3 -x,-y,-z
4 x,1/2-y,1/2+z
_cell_length_a                   16.189(2)
_cell_length_b                   7.8000(11)
_cell_length_c                   12.1137(18)
_cell_angle_alpha                90
_cell_angle_beta                 108.276(2)
_cell_angle_gamma                90
_cell_volume                     1452.49
loop_
_atom_site_label
_atom_site_type_symbol
_atom_site_fract_x
_atom_site_fract_y
_atom_site_fract_z
Pu1 Pu 0.28338(2) 0.35675(4) 0.73454(2)
P1 P 0.23744(15) 0.0408(3) 0.50393(17)
P2 P 0.24088(16) 0.4631(3) 0.42816(18)
O1 O 0.1712(4) 0.3463(7) 0.6876(5)
O2 O 0.3959(4) 0.3666(8) 0.7819(5)
O3 O 0.2897(4) 0.1205(8) 0.6183(5)
O4 O 0.2897(4) 0.0313(7) 0.4184(5)
O5 O 0.2918(4) 0.3803(7) 0.3568(5)
O6 O 0.2934(4) 0.4712(8) 0.5565(5)
O7 O 0.2692(5) 0.6726(8) 0.7277(5)
O8 O 0.2081(4) -0.1389(8) 0.5262(5)
O9 O 0.2137(5) 0.6451(8) 0.3826(5)
C1 C 0.1431(6) 0.3433(10) 0.4138(7)
C2 C 0.1418(6) 0.1673(11) 0.4394(7)
C3 C 0.0614(6) 0.0862(12) 0.4189(7)
H1 H 0.0596 -0.0328 0.4345
C4 C 0.0651(7) 0.4322(12) 0.3720(8)
H2 H 0.0660 0.5514 0.3563
C5 C -0.0166(7) 0.1776(14) 0.3758(8)
H3 H -0.0707 0.1205 0.3626
C6 C -0.0151(7) 0.3488(13) 0.3527(8)
H4 H -0.0679 0.4110 0.3237
Pu1C Pu 0.28338(2) 0.14325(4) 0.23454(2)
O4C O 0.2897(4) 0.4687(7) 0.9184(5)
O5C O 0.2918(4) 0.1197(7) 0.8568(5)
O10 O 0.4401(8) 0.654(2) 0.6286(13)
O11 O 0.4315(8) -0.067(2) 0.7936(16)
O12 O 0.4420(9) 0.612(4) 0.987(2)
loop_
_geom_bond_atom_site_label_1
_geom_bond_atom_site_label_2
_geom_bond_site_symmetry_1
_geom_bond_site_symmetry_2
Pu1 O1 1_555 1_555
P1 O3 1_555 1_555
P2 O5 1_555 1_555
O2 Pu1 1_555 1_555
O3 Pu1 1_555 1_555
O4 P1 1_555 1_555
O5 Pu1C 1_555 1_555
O6 Pu1 1_555 1_555
O7 Pu1 1_555 1_555
O8 P1 1_555 1_555
O9 P2 1_555 1_555
C1 P2 1_555 1_555
C2 P1 1_555 1_555
C3 C2 1_555 1_555
H1 C3 1_555 1_555
C4 C1 1_555 1_555
H2 C4 1_555 1_555
C5 C3 1_555 1_555
H3 C5 1_555 1_555
C6 C4 1_555 1_555
H4 C6 1_555 1_555
Pu1C O4 1_555 1_555
O4C Pu1 1_555 1_555
O5C Pu1 1_555 1_555
P2 O6 1_555 1_555
C1 C2 1_555 1_555
C5 C6 1_555 1_555

#END
