
#######################################################################
#
#                 Cambridge Crystallographic Data Centre
#                                CCDC 
#
#######################################################################
#
# If this CIF has been generated from an entry in the Cambridge 
# Structural Database, then it will include bibliographic, chemical, 
# crystal, experimental, refinement or atomic coordinate data resulting 
# from the CCDC's data processing and validation procedures.
#
#######################################################################

data_ABUBEG
_symmetry_cell_setting           monoclinic
_symmetry_space_group_name_H-M   'P 21/n'
_symmetry_Int_Tables_number      14
_space_group_name_Hall           '-P 2yn'
loop_
_symmetry_equiv_pos_site_id
_symmetry_equiv_pos_as_xyz
1 x,y,z
2 1/2-x,1/2+y,1/2-z
3 -x,-y,-z
4 1/2+x,1/2-y,1/2+z
_cell_length_a                   9.1781(7)
_cell_length_b                   7.2095(6)
_cell_length_c                   19.3227(15)
_cell_angle_alpha                90
_cell_angle_beta                 92.0730(10)
_cell_angle_gamma                90
_cell_volume                     1277.74
loop_
_atom_site_label
_atom_site_type_symbol
_atom_site_fract_x
_atom_site_fract_y
_atom_site_fract_z
U1 U 0.734994(9) 0.377085(13) 0.100909(4)
P1 P 0.40117(7) 0.31012(9) -0.23389(3)
P2 P 0.58784(7) 0.30682(9) -0.07496(3)
O1 O 0.6933(2) 0.3763(3) -0.01953(9)
O2 O 0.4390(2) 0.3937(3) -0.07797(9)
O3 O 0.5988(2) 0.2025(3) 0.10646(9)
O4 O 0.3655(2) 0.2733(3) -0.30945(9)
O5 O 0.8708(2) 0.5485(3) 0.09050(9)
O6 O 0.9067(2) 0.1552(3) 0.05152(11)
O7 O 0.32895(19) 0.4870(3) -0.20931(9)
O8 O 0.3517(2) 0.1391(3) -0.18931(9)
O9 O 0.5703(2) 0.0899(3) -0.06132(10)
C1 C 0.5966(3) 0.3220(4) -0.22177(13)
C2 C 0.6730(3) 0.3257(4) -0.15724(13)
C3 C 0.8250(3) 0.3299(4) -0.15488(13)
H1 H 0.8764 0.3330 -0.1114
C4 C 0.6754(3) 0.3239(4) -0.28221(13)
H2 H 0.6248 0.3228 -0.3260
C5 C 0.9023(3) 0.3296(4) -0.21577(14)
H3 H 1.0059 0.3308 -0.2137
C6 C 0.8271(3) 0.3274(4) -0.27923(14)
H4 H 0.8792 0.3283 -0.3208
U1B U 0.265006(9) 0.622915(13) -0.100909(4)
U1C U 0.234994(9) 0.122915(13) -0.399091(4)
O2B O 0.5610(2) 0.6063(3) 0.07797(9)
O4C O 0.8655(2) 0.2267(3) 0.19055(9)
O7B O 0.67105(19) 0.5130(3) 0.20931(9)
O10 O 0.8021(3) -0.1515(4) -0.01622(15)
H5 H 0.720(4) -0.105(5) -0.0367(18)
H6 H 0.780(4) -0.223(5) 0.001(2)
loop_
_geom_bond_atom_site_label_1
_geom_bond_atom_site_label_2
_geom_bond_site_symmetry_1
_geom_bond_site_symmetry_2
U1 O1 1_555 1_555
P1 O4 1_555 1_555
P2 O1 1_555 1_555
O2 P2 1_555 1_555
O3 U1 1_555 1_555
O4 U1C 1_555 1_555
O5 U1 1_555 1_555
O6 U1 1_555 1_555
O7 P1 1_555 1_555
O8 P1 1_555 1_555
O9 P2 1_555 1_555
O10 H5 1_555 1_555
C1 P1 1_555 1_555
C2 P2 1_555 1_555
C3 C2 1_555 1_555
H1 C3 1_555 1_555
C4 C1 1_555 1_555
H2 C4 1_555 1_555
C5 C3 1_555 1_555
H3 C5 1_555 1_555
C6 C4 1_555 1_555
H4 C6 1_555 1_555
H6 O10 1_555 1_555
U1B O2 1_555 1_555
O2B U1 1_555 1_555
O4C U1 1_555 1_555
O7B U1 1_555 1_555
O7 U1B 1_555 1_555
C1 C2 1_555 1_555
C5 C6 1_555 1_555

#END
