
#######################################################################
#
#                 Cambridge Crystallographic Data Centre
#                                CCDC 
#
#######################################################################
#
# If this CIF has been generated from an entry in the Cambridge 
# Structural Database, then it will include bibliographic, chemical, 
# crystal, experimental, refinement or atomic coordinate data resulting 
# from the CCDC's data processing and validation procedures.
#
#######################################################################

data_ABUCIK
_symmetry_cell_setting           triclinic
_symmetry_space_group_name_H-M   'P -1'
_symmetry_Int_Tables_number      2
_space_group_name_Hall           '-P 1'
loop_
_symmetry_equiv_pos_site_id
_symmetry_equiv_pos_as_xyz
1 x,y,z
2 -x,-y,-z
_cell_length_a                   11.6798(2)
_cell_length_b                   13.00600(10)
_cell_length_c                   14.1926(3)
_cell_angle_alpha                90.8330(10)
_cell_angle_beta                 113.6790(10)
_cell_angle_gamma                90.2230(10)
_cell_volume                     1974.13
loop_
_atom_site_label
_atom_site_type_symbol
_atom_site_fract_x
_atom_site_fract_y
_atom_site_fract_z
Cd1 Cd 0.15250(5) 0.45628(4) 0.49373(4)
Cd2 Cd 0.55452(5) -0.04141(4) 0.89608(4)
O1 O 0.2484(5) 0.3374(4) 0.6370(4)
O2 O 0.2888(5) 0.5022(4) 0.6581(4)
O3 O 0.6330(5) 0.1417(4) 0.8999(4)
O4 O 0.5102(5) 0.1010(4) 0.9755(4)
O5 O 0.3889(5) 1.0061(4) 0.7451(4)
O6 O 0.3924(5) 0.8445(4) 0.7845(4)
O7 O 0.1701(5) 0.6358(4) 0.4387(4)
O8 O 0.0353(4) 0.6013(4) 0.5037(4)
N1 N 0.6812(6) -0.0867(5) 0.8082(5)
N2 N 0.7534(5) -0.0816(4) 1.0157(4)
N3 N 0.3053(6) 0.3985(5) 0.4374(5)
N4 N 0.0595(6) 0.4249(5) 0.3153(5)
C1 C 0.3021(7) 0.4134(7) 0.6938(6)
C2 C 0.3911(7) 0.3980(6) 0.8051(5)
H1 H 0.4005 0.4654 0.8424
C3 C 0.5195(6) 0.3678(6) 0.8108(6)
H2 H 0.5506 0.4214 0.7779
H3 H 0.5120 0.3025 0.7720
C4 C 0.3429(7) 0.3201(6) 0.8587(6)
H4 H 0.3316 0.2525 0.8229
H5 H 0.2608 0.3421 0.8563
C5 C 0.6139(8) 0.3546(6) 0.9222(6)
H6 H 0.6937 0.3292 0.9222
H7 H 0.6305 0.4222 0.9584
C6 C 0.4360(8) 0.3101(6) 0.9713(6)
H8 H 0.4421 0.3766 1.0079
H9 H 0.4043 0.2578 1.0051
C7 C 0.5658(7) 0.2793(6) 0.9799(5)
H10 H 0.6230 0.2862 1.0543
C8 C 0.5700(6) 0.1680(6) 0.9493(5)
C9 C 0.3407(7) 0.9174(6) 0.7265(6)
C10 C 0.2234(6) 0.9000(6) 0.6308(5)
H11 H 0.1793 0.9672 0.6121
C11 C 0.2573(7) 0.8650(6) 0.5405(5)
H12 H 0.3119 0.9175 0.5292
H13 H 0.3041 0.7998 0.5581
C12 C 0.1331(7) 0.8227(7) 0.6445(6)
H14 H 0.1745 0.7552 0.6628
H15 H 0.1111 0.8460 0.7017
C13 C 0.1394(7) 0.8494(6) 0.4419(5)
H16 H 0.0991 0.9167 0.4196
H17 H 0.1631 0.8220 0.3869
C14 C 0.0151(7) 0.8105(6) 0.5474(6)
H18 H -0.0293 0.8768 0.5315
H19 H -0.0408 0.7590 0.5585
C15 C 0.0459(6) 0.7756(5) 0.4561(5)
H20 H -0.0333 0.7793 0.3928
C16 C 0.0873(6) 0.6647(5) 0.4666(5)
C17 C 0.6448(8) -0.0910(6) 0.7073(6)
H21 H 0.5599 -0.0774 0.6650
C18 C 0.7267(10) -0.1148(7) 0.6600(7)
H22 H 0.6975 -0.1174 0.5872
C19 C 0.8479(9) -0.1340(7) 0.7200(8)
H23 H 0.9045 -0.1489 0.6889
C20 C 0.8911(8) -0.1321(6) 0.8280(7)
C21 C 1.0153(9) -0.1515(6) 0.8956(8)
H24 H 1.0747 -0.1679 0.8677
C22 C 1.0523(8) -0.1474(7) 0.9978(8)
H25 H 1.1371 -0.1607 1.0410
C23 C 0.9651(7) -0.1231(6) 1.0432(6)
C24 C 0.9973(8) -0.1178(7) 1.1487(7)
H26 H 1.0811 -0.1302 1.1948
C25 C 0.9107(7) -0.0950(7) 1.1864(6)
H27 H 0.9324 -0.0921 1.2584
C26 C 0.7862(8) -0.0756(6) 1.1156(6)
H28 H 0.7252 -0.0578 1.1413
C27 C 0.8398(6) -0.1033(5) 0.9775(6)
C28 C 0.8050(7) -0.1088(5) 0.8702(6)
C29 C 0.4248(7) 0.3821(6) 0.4969(7)
H29 H 0.4506 0.3864 0.5694
C30 C 0.5126(8) 0.3592(7) 0.4586(9)
H30 H 0.5965 0.3462 0.5041
C31 C 0.4786(9) 0.3552(7) 0.3548(9)
H31 H 0.5391 0.3405 0.3276
C32 C 0.3540(9) 0.3727(6) 0.2883(8)
C33 C 0.3099(11) 0.3680(7) 0.1790(8)
H32 H 0.3674 0.3540 0.1485
C34 C 0.1911(11) 0.3824(7) 0.1190(8)
H33 H 0.1654 0.3786 0.0464
C35 C 0.0984(8) 0.4039(6) 0.1611(6)
C36 C -0.0288(10) 0.4152(7) 0.1023(7)
H34 H -0.0609 0.4102 0.0293
C37 C -0.1074(9) 0.4335(7) 0.1511(7)
H35 H -0.1939 0.4442 0.1117
C38 C -0.0606(8) 0.4365(7) 0.2585(7)
H36 H -0.1164 0.4472 0.2912
C39 C 0.1389(7) 0.4083(5) 0.2686(6)
C40 C 0.2700(7) 0.3932(5) 0.3328(7)
O8A O -0.0353(4) 0.3987(4) 0.4963(4)
O4A O 0.4898(5) -0.1010(4) 1.0245(4)
O5_2 O 0.3889(5) 0.0061(4) 0.7451(4)
O6_2 O 0.3924(5) -0.1555(4) 0.7845(4)
Cd2A Cd 0.44548(5) 0.04141(4) 1.10392(4)
Cd2_2 Cd 0.55452(5) 0.95859(4) 0.89608(4)
Cd1A Cd -0.15250(5) 0.54372(4) 0.50627(4)
O9 O 0.6495(10) 0.1671(6) 0.7078(7)
O10 O -0.3530(8) 0.8450(5) 0.4014(5)
O11 O 0.2007(11) -0.3481(7) 0.2468(8)
O12 O 0.365(3) 0.645(2) 0.8004(18)
loop_
_geom_bond_atom_site_label_1
_geom_bond_atom_site_label_2
_geom_bond_site_symmetry_1
_geom_bond_site_symmetry_2
Cd1 O1 1_555 1_555
Cd2 O3 1_555 1_555
O1 C1 1_555 1_555
O2 Cd1 1_555 1_555
O3 C8 1_555 1_555
O4 Cd2 1_555 1_555
O5 C9 1_555 1_555
O6 C9 1_555 1_555
O7 Cd1 1_555 1_555
O8 Cd1 1_555 1_555
N1 Cd2 1_555 1_555
N2 Cd2 1_555 1_555
N3 Cd1 1_555 1_555
N4 Cd1 1_555 1_555
C1 O2 1_555 1_555
C2 C1 1_555 1_555
H1 C2 1_555 1_555
C3 C2 1_555 1_555
H2 C3 1_555 1_555
H3 C3 1_555 1_555
C4 C2 1_555 1_555
H4 C4 1_555 1_555
H5 C4 1_555 1_555
C5 C3 1_555 1_555
H6 C5 1_555 1_555
H7 C5 1_555 1_555
C6 C4 1_555 1_555
H8 C6 1_555 1_555
H9 C6 1_555 1_555
C7 C5 1_555 1_555
H10 C7 1_555 1_555
C8 O4 1_555 1_555
C9 C10 1_555 1_555
C10 H11 1_555 1_555
C11 C10 1_555 1_555
H12 C11 1_555 1_555
H13 C11 1_555 1_555
C12 C10 1_555 1_555
H14 C12 1_555 1_555
H15 C12 1_555 1_555
C13 C11 1_555 1_555
H16 C13 1_555 1_555
H17 C13 1_555 1_555
C14 C12 1_555 1_555
H18 C14 1_555 1_555
H19 C14 1_555 1_555
C15 C13 1_555 1_555
H20 C15 1_555 1_555
C16 O7 1_555 1_555
C17 N1 1_555 1_555
H21 C17 1_555 1_555
C18 C17 1_555 1_555
H22 C18 1_555 1_555
C19 C18 1_555 1_555
H23 C19 1_555 1_555
C20 C19 1_555 1_555
C21 C20 1_555 1_555
H24 C21 1_555 1_555
C22 C21 1_555 1_555
H25 C22 1_555 1_555
C23 C22 1_555 1_555
C24 C23 1_555 1_555
H26 C24 1_555 1_555
C25 C24 1_555 1_555
H27 C25 1_555 1_555
C26 N2 1_555 1_555
H28 C26 1_555 1_555
C27 N2 1_555 1_555
C28 N1 1_555 1_555
C29 N3 1_555 1_555
H29 C29 1_555 1_555
C30 C29 1_555 1_555
H30 C30 1_555 1_555
C31 C30 1_555 1_555
H31 C31 1_555 1_555
C32 C31 1_555 1_555
C33 C32 1_555 1_555
H32 C33 1_555 1_555
C34 C33 1_555 1_555
H33 C34 1_555 1_555
C35 C34 1_555 1_555
C36 C35 1_555 1_555
H34 C36 1_555 1_555
C37 C36 1_555 1_555
H35 C37 1_555 1_555
C38 N4 1_555 1_555
H36 C38 1_555 1_555
C39 N4 1_555 1_555
C40 N3 1_555 1_555
O8A Cd1 1_555 1_555
O4A Cd2 1_555 1_555
O5_2 Cd2 1_555 1_555
O6_2 Cd2 1_555 1_555
Cd2A O4 1_555 1_555
Cd2_2 O5 1_555 1_555
Cd1A O8 1_555 1_555
O6 Cd2_2 1_555 1_555
O8 C16 1_555 1_555
C6 C7 1_555 1_555
C7 C8 1_555 1_555
C14 C15 1_555 1_555
C15 C16 1_555 1_555
C20 C28 1_555 1_555
C23 C27 1_555 1_555
C25 C26 1_555 1_555
C27 C28 1_555 1_555
C32 C40 1_555 1_555
C35 C39 1_555 1_555
C37 C38 1_555 1_555
C39 C40 1_555 1_555
O8A Cd1A 1_555 1_555
O4A Cd2A 1_555 1_555

#END
