
#######################################################################
#
#                 Cambridge Crystallographic Data Centre
#                                CCDC 
#
#######################################################################
#
# If this CIF has been generated from an entry in the Cambridge 
# Structural Database, then it will include bibliographic, chemical, 
# crystal, experimental, refinement or atomic coordinate data resulting 
# from the CCDC's data processing and validation procedures.
#
#######################################################################

data_ABULUG
_symmetry_cell_setting           triclinic
_symmetry_space_group_name_H-M   'P -1'
_symmetry_Int_Tables_number      2
_space_group_name_Hall           '-P 1'
loop_
_symmetry_equiv_pos_site_id
_symmetry_equiv_pos_as_xyz
1 x,y,z
2 -x,-y,-z
_cell_length_a                   8.2111(13)
_cell_length_b                   14.050(2)
_cell_length_c                   15.266(2)
_cell_angle_alpha                86.962(2)
_cell_angle_beta                 79.901(2)
_cell_angle_gamma                79.317(2)
_cell_volume                     1703.46
loop_
_atom_site_label
_atom_site_type_symbol
_atom_site_fract_x
_atom_site_fract_y
_atom_site_fract_z
C1 C 0.5262(6) 0.1993(4) 0.7684(3)
C2 C 0.3936(6) 0.2713(4) 0.7610(3)
H1 H 0.2833 0.2560 0.7652
C3 C 0.4153(6) 0.3680(4) 0.7470(3)
C4 C 0.5772(7) 0.3895(4) 0.7404(3)
C5 C 0.7118(7) 0.3145(4) 0.7517(4)
H2 H 0.8217 0.3294 0.7502
C6 C 0.6860(7) 0.2207(4) 0.7656(4)
H3 H 0.7781 0.1699 0.7738
C7 C 0.2720(7) 0.4473(4) 0.7346(3)
O1 O 0.6035(5) 0.4806(3) 0.7228(3)
O2 O 0.3094(5) 0.5304(3) 0.7102(3)
O3 O 0.1270(4) 0.4290(2) 0.7479(2)
O4 O 0.6209(5) 0.0247(3) 0.7129(2)
O5 O 0.3248(4) 0.0786(3) 0.7683(2)
O6 O 0.5211(4) 0.0460(3) 0.8702(2)
S1 S 0.49648(17) 0.07740(10) 0.78026(8)
C8 C 0.0233(7) 0.2789(4) 0.4463(3)
H4 H -0.0292 0.3113 0.3988
C9 C 0.0748(7) 0.1797(4) 0.4442(3)
H5 H 0.0577 0.1440 0.3957
C10 C 0.1505(6) 0.1311(3) 0.5122(3)
C11 C 0.1678(7) 0.1871(3) 0.5815(3)
H6 H 0.2168 0.1567 0.6309
C12 C 0.1141(7) 0.2856(3) 0.5783(3)
H7 H 0.1267 0.3226 0.6270
C13 C 0.2143(6) 0.0269(3) 0.5058(3)
H8 H 0.1915 -0.0062 0.4571
C14 C 0.3001(7) -0.0265(3) 0.5623(4)
H9 H 0.3198 0.0060 0.6122
C15 C 0.3690(7) -0.1311(3) 0.5549(3)
C16 C 0.3548(6) -0.1849(4) 0.4840(3)
H10 H 0.2989 -0.1547 0.4368
C17 C 0.4230(7) -0.2821(4) 0.4821(4)
H11 H 0.4108 -0.3186 0.4329
C18 C 0.4503(8) -0.1792(4) 0.6194(4)
H12 H 0.4608 -0.1456 0.6706
C19 C 0.5170(8) -0.2768(4) 0.6109(4)
H13 H 0.5774 -0.3082 0.6560
Cd2 Cd 0.0000 0.5000 0.5000
N1 N 0.5039(6) -0.3295(3) 0.5437(3)
N2 N 0.0440(5) 0.3324(3) 0.5116(3)
O7 O 0.2781(4) 0.4970(2) 0.5156(2)
H24 H 0.2952 0.5304 0.5569
H25 H 0.3504 0.4957 0.4682
O8 O 0.0884(4) 0.4780(2) 0.3508(2)
H26 H 0.1901 0.4824 0.3307
H27 H 0.0202 0.5037 0.3167
C8A C -0.0233(7) 0.7211(4) 0.5537(3)
H4A H 0.0292 0.6887 0.6012
C9A C -0.0748(7) 0.8203(4) 0.5558(3)
H5A H -0.0577 0.8560 0.6043
C10A C -0.1505(6) 0.8689(3) 0.4878(3)
C11A C -0.1678(7) 0.8129(3) 0.4185(3)
H6A H -0.2168 0.8433 0.3691
C12A C -0.1141(7) 0.7144(3) 0.4217(3)
H7A H -0.1267 0.6774 0.3730
C13A C -0.2143(6) 0.9731(3) 0.4942(3)
H8A H -0.1915 1.0062 0.5429
C14A C -0.3001(7) 1.0265(3) 0.4377(4)
H9A H -0.3198 0.9940 0.3878
C15A C -0.3690(7) 1.1311(3) 0.4451(3)
C16A C -0.3548(6) 1.1849(4) 0.5160(3)
H10A H -0.2989 1.1547 0.5632
C17A C -0.4230(7) 1.2821(4) 0.5179(4)
H11A H -0.4108 1.3186 0.5671
C18A C -0.4503(8) 1.1792(4) 0.3806(4)
H12A H -0.4608 1.1456 0.3294
C19A C -0.5170(8) 1.2768(4) 0.3891(4)
H13A H -0.5774 1.3082 0.3440
N1A N -0.5039(6) 1.3295(3) 0.4563(3)
N2A N -0.0440(5) 0.6676(3) 0.4884(3)
O7A O -0.2781(4) 0.5030(2) 0.4844(2)
H24A H -0.2952 0.4696 0.4431
H25A H -0.3504 0.5043 0.5318
O8A O -0.0884(4) 0.5220(2) 0.6492(2)
H26A H -0.1901 0.5176 0.6693
H27A H -0.0202 0.4963 0.6833
C20 C 0.3843(9) 0.2173(5) 0.0645(6)
H14 H 0.4103 0.1525 0.0428
C21 C 0.4623(8) 0.2864(5) 0.0155(5)
H15 H 0.5427 0.2690 -0.0374
C22 C 0.4265(8) 0.3809(4) 0.0437(4)
C23 C 0.3138(9) 0.3994(5) 0.1225(4)
H16 H 0.2863 0.4640 0.1448
C24 C 0.2433(9) 0.3258(5) 0.1663(4)
H17 H 0.1656 0.3411 0.2205
C25 C 0.5090(8) 0.4543(4) -0.0090(4)
H18 H 0.5814 0.4243 -0.0602
N3 N 0.2746(7) 0.2346(4) 0.1400(4)
C20A C 0.6157(9) 0.7827(5) -0.0645(6)
H14A H 0.5897 0.8475 -0.0428
C21A C 0.5377(8) 0.7136(5) -0.0155(5)
H15A H 0.4573 0.7310 0.0374
C22A C 0.5735(8) 0.6191(4) -0.0437(4)
C23A C 0.6862(9) 0.6006(5) -0.1225(4)
H16A H 0.7137 0.5360 -0.1448
C24A C 0.7567(9) 0.6742(5) -0.1663(4)
H17A H 0.8344 0.6589 -0.2205
C25A C 0.4910(8) 0.5457(4) 0.0090(4)
H18A H 0.4186 0.5757 0.0602
N3A N 0.7254(7) 0.7654(4) -0.1400(4)
C26 C 0.0420(6) 0.5274(3) 0.9713(3)
H19 H 0.1073 0.4963 0.9188
C27 C 0.0450(6) 0.6301(3) 0.9802(3)
C28 C 0.1270(6) 0.6826(3) 0.9129(4)
H20 H 0.1891 0.6503 0.8602
C29 C 0.1196(6) 0.7799(3) 0.9210(4)
H21 H 0.1761 0.8145 0.8726
C30 C -0.0351(7) 0.6824(4) 1.0545(4)
H22 H -0.0879 0.6493 1.1052
C31 C -0.0387(8) 0.7803(4) 1.0573(4)
H23 H -0.0990 0.8150 1.1091
Cd1 Cd 0.0000 1.0000 1.0000
N4 N 0.0375(5) 0.8302(3) 0.9912(3)
O9 O 0.0405(5) 1.0138(3) 0.8494(2)
H28 H 0.1388 1.0151 0.8209
H29 H -0.0412 1.0404 0.8241
O10 O 0.2813(4) 0.9869(3) 0.9985(2)
H30 H 0.3154 0.9802 1.0483
H31 H 0.3356 1.0198 0.9594
C26A C -0.0420(6) 0.4726(3) 1.0287(3)
H19A H -0.1073 0.5037 1.0812
C27A C -0.0450(6) 0.3699(3) 1.0198(3)
C28A C -0.1270(6) 0.3174(3) 1.0871(4)
H20A H -0.1891 0.3497 1.1398
C29A C -0.1196(6) 0.2201(3) 1.0790(4)
H21A H -0.1761 0.1855 1.1274
C30A C 0.0351(7) 0.3176(4) 0.9455(4)
H22A H 0.0879 0.3507 0.8948
C31A C 0.0387(8) 0.2197(4) 0.9427(4)
H23A H 0.0990 0.1850 0.8909
Cd1_2 Cd 0.0000 0.0000 1.0000
N4A N -0.0375(5) 0.1698(3) 1.0088(3)
N4A_2 N -0.0375(5) 1.1698(3) 1.0088(3)
O9A O -0.0405(5) 0.9862(3) 1.1506(2)
H28A H -0.1388 0.9849 1.1791
H29A H 0.0412 0.9596 1.1759
O10A O -0.2813(4) 1.0131(3) 1.0015(2)
H30A H -0.3154 1.0198 0.9517
H31A H -0.3356 0.9802 1.0406
O11 O 0.8911(5) 0.9025(3) 0.7664(2)
H32 H 0.8954 0.9404 0.7211
H33 H 0.9538 0.9084 0.8039
loop_
_geom_bond_atom_site_label_1
_geom_bond_atom_site_label_2
_geom_bond_site_symmetry_1
_geom_bond_site_symmetry_2
C1 C2 1_555 1_555
C2 H1 1_555 1_555
C3 C2 1_555 1_555
C4 C3 1_555 1_555
C5 C4 1_555 1_555
H2 C5 1_555 1_555
C6 C1 1_555 1_555
H3 C6 1_555 1_555
C7 C3 1_555 1_555
C8 H4 1_555 1_555
C9 C8 1_555 1_555
H5 C9 1_555 1_555
C10 C9 1_555 1_555
C11 C10 1_555 1_555
H6 C11 1_555 1_555
C12 C11 1_555 1_555
H7 C12 1_555 1_555
C13 C10 1_555 1_555
H8 C13 1_555 1_555
C14 C13 1_555 1_555
H9 C14 1_555 1_555
C15 C14 1_555 1_555
C16 C15 1_555 1_555
H10 C16 1_555 1_555
C17 C16 1_555 1_555
H11 C17 1_555 1_555
C18 C15 1_555 1_555
H12 C18 1_555 1_555
C19 C18 1_555 1_555
H13 C19 1_555 1_555
C20 H14 1_555 1_555
C21 C20 1_555 1_555
H15 C21 1_555 1_555
C22 C21 1_555 1_555
C23 C22 1_555 1_555
H16 C23 1_555 1_555
C24 C23 1_555 1_555
H17 C24 1_555 1_555
C25 C22 1_555 1_555
H18 C25 1_555 1_555
C26 H19 1_555 1_555
C27 C26 1_555 1_555
C28 C27 1_555 1_555
H20 C28 1_555 1_555
C29 C28 1_555 1_555
H21 C29 1_555 1_555
C30 C27 1_555 1_555
H22 C30 1_555 1_555
C31 C30 1_555 1_555
H23 C31 1_555 1_555
Cd1 N4 1_555 1_555
Cd2 N2 1_555 1_555
N1 C17 1_555 1_555
N2 C8 1_555 1_555
N3 C20 1_555 1_555
N4 C29 1_555 1_555
O1 C4 1_555 1_555
O2 C7 1_555 1_555
O3 C7 1_555 1_555
O4 S1 1_555 1_555
O5 S1 1_555 1_555
O6 S1 1_555 1_555
O7 Cd2 1_555 1_555
H24 O7 1_555 1_555
H25 O7 1_555 1_555
O8 Cd2 1_555 1_555
H26 O8 1_555 1_555
H27 O8 1_555 1_555
O9 Cd1 1_555 1_555
H28 O9 1_555 1_555
H29 O9 1_555 1_555
O10 Cd1 1_555 1_555
H30 O10 1_555 1_555
H31 O10 1_555 1_555
O11 H32 1_555 1_555
H33 O11 1_555 1_555
S1 C1 1_555 1_555
C8A H4A 1_555 1_555
C9A C8A 1_555 1_555
H5A C9A 1_555 1_555
C10A C9A 1_555 1_555
C11A C10A 1_555 1_555
H6A C11A 1_555 1_555
C12A C11A 1_555 1_555
H7A C12A 1_555 1_555
C13A C10A 1_555 1_555
H8A C13A 1_555 1_555
C14A C13A 1_555 1_555
H9A C14A 1_555 1_555
C15A C14A 1_555 1_555
C16A C15A 1_555 1_555
H10A C16A 1_555 1_555
C17A C16A 1_555 1_555
H11A C17A 1_555 1_555
C18A C15A 1_555 1_555
H12A C18A 1_555 1_555
C19A C18A 1_555 1_555
H13A C19A 1_555 1_555
C20A H14A 1_555 1_555
C21A C20A 1_555 1_555
H15A C21A 1_555 1_555
C22A C21A 1_555 1_555
C23A C22A 1_555 1_555
H16A C23A 1_555 1_555
C24A C23A 1_555 1_555
H17A C24A 1_555 1_555
C25A C25 1_555 1_555
H18A C25A 1_555 1_555
C26A C26 1_555 1_555
H19A C26A 1_555 1_555
C27A C26A 1_555 1_555
C28A C27A 1_555 1_555
H20A C28A 1_555 1_555
C29A C28A 1_555 1_555
H21A C29A 1_555 1_555
C30A C27A 1_555 1_555
H22A C30A 1_555 1_555
C31A C30A 1_555 1_555
H23A C31A 1_555 1_555
Cd1_2 N4A 1_555 1_555
N1A C17A 1_555 1_555
N2A Cd2 1_555 1_555
N3A C20A 1_555 1_555
N4A C29A 1_555 1_555
N4A_2 Cd1 1_555 1_555
O7A Cd2 1_555 1_555
H24A O7A 1_555 1_555
H25A O7A 1_555 1_555
O8A Cd2 1_555 1_555
H26A O8A 1_555 1_555
H27A O8A 1_555 1_555
O9A Cd1 1_555 1_555
H28A O9A 1_555 1_555
H29A O9A 1_555 1_555
O10A Cd1 1_555 1_555
H30A O10A 1_555 1_555
H31A O10A 1_555 1_555
C5 C6 1_555 1_555
C12 N2 1_555 1_555
C19 N1 1_555 1_555
C24 N3 1_555 1_555
C31 N4 1_555 1_555
C8A N2A 1_555 1_555
C12A N2A 1_555 1_555
C19A N1A 1_555 1_555
C22A C25A 1_555 1_555
C24A N3A 1_555 1_555
C31A N4A 1_555 1_555

#END
