
#######################################################################
#
#                 Cambridge Crystallographic Data Centre
#                                CCDC 
#
#######################################################################
#
# If this CIF has been generated from an entry in the Cambridge 
# Structural Database, then it will include bibliographic, chemical, 
# crystal, experimental, refinement or atomic coordinate data resulting 
# from the CCDC's data processing and validation procedures.
#
#######################################################################

data_ABUPOD
_symmetry_cell_setting           orthorhombic
_symmetry_space_group_name_H-M   'P 21 21 21'
_symmetry_Int_Tables_number      19
_space_group_name_Hall           'P 2ac 2ab'
loop_
_symmetry_equiv_pos_site_id
_symmetry_equiv_pos_as_xyz
1 x,y,z
2 1/2-x,-y,1/2+z
3 -x,1/2+y,1/2-z
4 1/2+x,1/2-y,-z
_cell_length_a                   15.709(3)
_cell_length_b                   16.580(4)
_cell_length_c                   17.556(4)
_cell_angle_alpha                90
_cell_angle_beta                 90
_cell_angle_gamma                90
_cell_volume                     4572.55
loop_
_atom_site_label
_atom_site_type_symbol
_atom_site_fract_x
_atom_site_fract_y
_atom_site_fract_z
Rb1 Rb 0.21559(7) 1.03513(6) -0.04114(6)
Rb2 Rb 0.40004(7) 1.00747(6) 0.09825(6)
Rb3 Rb 0.25063(7) 0.85039(6) -0.17498(6)
Rb4 Rb 0.23166(7) 0.94413(6) 0.23077(6)
O1 O 0.2486(5) 0.9152(4) 0.0714(4)
O2 O 0.1297(4) 0.9894(4) -0.1682(4)
O3 O 0.2690(4) 1.1021(4) 0.1738(4)
O4 O 0.3478(4) 0.9899(4) -0.1439(4)
O5 O 0.2162(5) 0.7637(4) 0.2333(5)
O6 O 0.3459(8) 0.7084(6) -0.2251(6)
C1 C 0.2343(7) 0.8441(6) 0.0383(6)
C2 C 0.1549(6) 0.8258(6) 0.0070(6)
C3 C 0.1433(7) 0.7528(6) -0.0355(6)
C4 C 0.2092(7) 0.6973(7) -0.0415(7)
C5 C 0.2862(7) 0.7129(6) -0.0046(7)
C6 C 0.2991(7) 0.7838(6) 0.0349(6)
C7 C 0.0810(7) 0.8822(7) 0.0148(8)
C8 C 0.3835(7) 0.7992(7) 0.0791(6)
C9 C 0.0620(7) 1.0019(7) -0.2105(6)
C10 C 0.0344(7) 1.0822(6) -0.2301(6)
C11 C -0.0357(7) 1.0933(7) -0.2782(7)
C12 C -0.0824(7) 1.0281(8) -0.3087(7)
C13 C -0.0582(7) 0.9505(8) -0.2873(7)
C14 C 0.0112(7) 0.9365(6) -0.2400(6)
C15 C 0.0792(7) 1.1543(7) -0.1927(8)
C16 C 0.0356(7) 0.8515(6) -0.2118(7)
C17 C 0.2312(7) 1.1451(6) 0.1183(6)
C18 C 0.1420(7) 1.1391(7) 0.1038(6)
C19 C 0.1050(9) 1.1783(7) 0.0453(8)
C20 C 0.1575(10) 1.2332(7) -0.0035(7)
C21 C 0.2456(9) 1.2446(7) 0.0161(6)
C22 C 0.2812(9) 1.2006(6) 0.0747(6)
C23 C 0.0889(7) 1.0843(7) 0.1532(7)
C24 C 0.3719(9) 1.2204(7) 0.0934(9)
C25 C 0.4187(7) 1.0045(7) -0.1049(6)
C26 C 0.4407(7) 1.0879(6) -0.0851(6)
C27 C 0.5140(8) 1.1006(8) -0.0390(7)
C28 C 0.5662(7) 1.0363(8) -0.0116(6)
C29 C 0.5460(6) 0.9599(7) -0.0332(6)
C30 C 0.4740(6) 0.9407(6) -0.0762(6)
C31 C 0.3938(7) 1.1584(7) -0.1186(7)
C32 C 0.4551(6) 0.8563(6) -0.1039(7)
C33 C 0.2624(11) 0.6985(8) 0.2784(11)
C34 C 0.2153(11) 0.6272(9) 0.2675(11)
C35 C 0.1459(13) 0.6447(10) 0.2145(12)
C36 C 0.1487(8) 0.7292(7) 0.1879(8)
C37 C 0.4188(16) 0.6654(12) -0.1931(13)
C38 C 0.4205(10) 0.5824(10) -0.2261(10)
C39 C 0.3510(13) 0.5785(8) -0.2805(10)
C40 C 0.3213(16) 0.6692(10) -0.2999(13)
Rb4A Rb 0.26834(7) 1.05587(6) -0.26923(6)
O3A O 0.2310(4) 0.8979(4) -0.3262(4)
Rb1A Rb 0.28441(7) 0.96487(6) 0.45886(6)
Rb3A Rb 0.24937(7) 1.14961(6) 0.32502(6)
O4A O 0.1522(4) 1.0101(4) 0.3561(4)
loop_
_geom_bond_atom_site_label_1
_geom_bond_atom_site_label_2
_geom_bond_site_symmetry_1
_geom_bond_site_symmetry_2
Rb1 O1 1_555 1_555
Rb2 O1 1_555 1_555
Rb3 O2 1_555 1_555
Rb4 O1 1_555 1_555
O1 C1 1_555 1_555
O2 Rb1 1_555 1_555
O3 Rb2 1_555 1_555
O4 Rb1 1_555 1_555
O5 Rb4 1_555 1_555
O6 Rb3 1_555 1_555
C1 C2 1_555 1_555
C2 C3 1_555 1_555
C3 C4 1_555 1_555
C4 C5 1_555 1_555
C5 C6 1_555 1_555
C6 C1 1_555 1_555
C7 C2 1_555 1_555
C8 C6 1_555 1_555
C9 O2 1_555 1_555
C10 C9 1_555 1_555
C11 C10 1_555 1_555
C12 C11 1_555 1_555
C13 C12 1_555 1_555
C14 C9 1_555 1_555
C15 C10 1_555 1_555
C16 C14 1_555 1_555
C17 O3 1_555 1_555
C18 C17 1_555 1_555
C19 C18 1_555 1_555
C20 C19 1_555 1_555
C21 C20 1_555 1_555
C22 C17 1_555 1_555
C23 C18 1_555 1_555
C24 C22 1_555 1_555
C25 O4 1_555 1_555
C26 C25 1_555 1_555
C27 C26 1_555 1_555
C28 C27 1_555 1_555
C29 C28 1_555 1_555
C30 C25 1_555 1_555
C31 C26 1_555 1_555
C32 C30 1_555 1_555
C33 O5 1_555 1_555
C34 C33 1_555 1_555
C35 C34 1_555 1_555
C36 O5 1_555 1_555
C37 O6 1_555 1_555
C38 C37 1_555 1_555
C39 C38 1_555 1_555
C40 O6 1_555 1_555
Rb4A O4 1_555 1_555
O3A Rb3 1_555 1_555
Rb1A O4A 1_555 1_555
Rb3A O3 1_555 1_555
O4A Rb4 1_555 1_555
Rb3 O4 1_555 1_555
Rb4 O3 1_555 1_555
C13 C14 1_555 1_555
C21 C22 1_555 1_555
C29 C30 1_555 1_555
C35 C36 1_555 1_555
C39 C40 1_555 1_555
Rb4A O3A 1_555 1_555
Rb3A O4A 1_555 1_555

#END
