
#######################################################################
#
#                 Cambridge Crystallographic Data Centre
#                                CCDC 
#
#######################################################################
#
# If this CIF has been generated from an entry in the Cambridge 
# Structural Database, then it will include bibliographic, chemical, 
# crystal, experimental, refinement or atomic coordinate data resulting 
# from the CCDC's data processing and validation procedures.
#
#######################################################################

data_ABUQIY
_symmetry_cell_setting           monoclinic
_symmetry_space_group_name_H-M   'P 21/c'
_symmetry_Int_Tables_number      14
_space_group_name_Hall           '-P 2ybc'
loop_
_symmetry_equiv_pos_site_id
_symmetry_equiv_pos_as_xyz
1 x,y,z
2 x,1/2-y,1/2+z
3 -x,-y,-z
4 -x,1/2+y,1/2-z
_cell_length_a                   13.986(4)
_cell_length_b                   13.874(4)
_cell_length_c                   20.684(6)
_cell_angle_alpha                90
_cell_angle_beta                 101.688(7)
_cell_angle_gamma                90
_cell_volume                     3930.34
loop_
_atom_site_label
_atom_site_type_symbol
_atom_site_fract_x
_atom_site_fract_y
_atom_site_fract_z
Ti1 Ti -0.15138(11) 1.08257(11) 0.23053(8)
Rb1 Rb -0.04251(6) 0.85685(6) 0.24300(5)
O1 O -0.0081(4) 1.0632(4) 0.2501(3)
O2 O -0.1560(4) 1.0071(5) 0.1564(3)
O3 O -0.1553(4) 1.0045(4) 0.3013(3)
O4 O -0.1141(4) 1.2185(4) 0.2368(3)
O5 O -0.2789(4) 1.1125(5) 0.2137(3)
C1 C 0.0740(6) 1.1141(6) 0.2619(4)
C2 C 0.1175(7) 1.1378(7) 0.2082(5)
C3 C 0.2034(6) 1.1926(7) 0.2212(6)
H1 H 0.2308 1.2133 0.1851
C4 C 0.2496(6) 1.2175(8) 0.2842(5)
H2 H 0.3098 1.2516 0.2921
C5 C 0.2055(6) 1.1913(7) 0.3356(5)
H3 H 0.2352 1.2098 0.3793
C6 C 0.1185(7) 1.1385(7) 0.3255(5)
C7 C 0.0747(7) 1.1091(8) 0.3820(5)
H4 H 0.0191 1.1510 0.3843
H5 H 0.1237 1.1147 0.4230
H6 H 0.0524 1.0421 0.3760
C8 C 0.0743(7) 1.1058(7) 0.1391(5)
H7 H 0.0736 1.0352 0.1371
H8 H 0.1137 1.1311 0.1087
H9 H 0.0073 1.1302 0.1263
C9 C -0.2321(7) 0.9675(8) 0.1073(5)
H10 H -0.2884 1.0122 0.0997
H11 H -0.2538 0.9058 0.1236
C10 C -0.2001(7) 0.9503(8) 0.0432(5)
C11 C -0.1738(9) 1.0425(9) 0.0121(5)
H12 H -0.1504 1.0274 -0.0283
H13 H -0.1223 1.0761 0.0432
H14 H -0.2316 1.0839 0.0013
C12 C -0.2836(9) 0.8986(11) -0.0035(6)
H15 H -0.3421 0.9392 -0.0108
H16 H -0.2976 0.8373 0.0163
H17 H -0.2645 0.8861 -0.0458
C13 C -0.1079(9) 0.8852(8) 0.0551(5)
H18 H -0.0915 0.8686 0.0126
H19 H -0.1209 0.8261 0.0778
H20 H -0.0531 0.9198 0.0823
C14 C -0.2297(7) 0.9613(7) 0.3301(5)
H21 H -0.2484 0.8988 0.3081
H22 H -0.2880 1.0034 0.3217
C15 C -0.1989(8) 0.9449(8) 0.4031(5)
C16 C -0.1736(10) 1.0381(9) 0.4419(6)
H23 H -0.1251 1.0742 0.4234
H24 H -0.1467 1.0228 0.4883
H25 H -0.2326 1.0772 0.4389
C17 C -0.2805(9) 0.8900(10) 0.4270(6)
H26 H -0.3414 0.9269 0.4159
H27 H -0.2626 0.8812 0.4749
H28 H -0.2896 0.8269 0.4054
C18 C -0.1033(9) 0.8818(8) 0.4150(5)
H29 H -0.1165 0.8211 0.3906
H30 H -0.0826 0.8682 0.4622
H31 H -0.0515 0.9170 0.3995
C19 C -0.1746(6) 1.2965(7) 0.2284(5)
C20 C -0.2012(8) 1.3374(7) 0.1662(6)
C21 C -0.2623(9) 1.4201(9) 0.1605(7)
H32 H -0.2830 1.4499 0.1187
C22 C -0.2919(9) 1.4574(9) 0.2145(9)
H33 H -0.3335 1.5122 0.2094
C23 C -0.2634(8) 1.4184(9) 0.2738(8)
H34 H -0.2831 1.4472 0.3107
C24 C -0.2044(8) 1.3348(7) 0.2833(6)
C25 C -0.1731(11) 1.2892(10) 0.3502(7)
H35 H -0.1961 1.2223 0.3485
H36 H -0.2010 1.3252 0.3827
H37 H -0.1017 1.2902 0.3630
C26 C -0.1694(10) 1.2915(9) 0.1065(6)
H38 H -0.0980 1.2864 0.1152
H39 H -0.1915 1.3318 0.0674
H40 H -0.1982 1.2271 0.0988
C27 C -0.3629(19) 1.161(2) 0.1909(14)
H41 H -0.3558 1.2224 0.2160
H42 H -0.3602 1.1787 0.1449
C28 C -0.4554(7) 1.1338(10) 0.1884(8)
C29 C -0.445(3) 1.161(3) 0.2692(13)
H43 H -0.3805 1.1413 0.2937
H44 H -0.4958 1.1279 0.2867
H45 H -0.4522 1.2312 0.2739
C30 C -0.5394(19) 1.187(2) 0.1731(14)
H46 H -0.5428 1.2313 0.2094
H47 H -0.5960 1.1438 0.1662
H48 H -0.5396 1.2239 0.1327
C31 C -0.4721(9) 1.0259(10) 0.1836(9)
H49 H -0.4103 0.9923 0.2002
H50 H -0.4969 1.0080 0.1374
H51 H -0.5198 1.0075 0.2101
O4C O 0.1141(4) 0.7185(4) 0.2632(3)
Rb1C Rb 0.04251(6) 1.35685(6) 0.25700(5)
loop_
_geom_bond_atom_site_label_1
_geom_bond_atom_site_label_2
_geom_bond_site_symmetry_1
_geom_bond_site_symmetry_2
Ti1 O1 1_555 1_555
Rb1 O1 1_555 1_555
O1 C1 1_555 1_555
O2 Ti1 1_555 1_555
O3 Ti1 1_555 1_555
O4 Ti1 1_555 1_555
O5 Ti1 1_555 1_555
C1 C2 1_555 1_555
C2 C3 1_555 1_555
C3 H1 1_555 1_555
C4 C3 1_555 1_555
H2 C4 1_555 1_555
C5 C4 1_555 1_555
H3 C5 1_555 1_555
C6 C1 1_555 1_555
C7 C6 1_555 1_555
H4 C7 1_555 1_555
H5 C7 1_555 1_555
H6 C7 1_555 1_555
C8 C2 1_555 1_555
H7 C8 1_555 1_555
H8 C8 1_555 1_555
H9 C8 1_555 1_555
C9 O2 1_555 1_555
H10 C9 1_555 1_555
H11 C9 1_555 1_555
C10 C9 1_555 1_555
C11 C10 1_555 1_555
H12 C11 1_555 1_555
H13 C11 1_555 1_555
H14 C11 1_555 1_555
C12 C10 1_555 1_555
H15 C12 1_555 1_555
H16 C12 1_555 1_555
H17 C12 1_555 1_555
C13 C10 1_555 1_555
H18 C13 1_555 1_555
H19 C13 1_555 1_555
H20 C13 1_555 1_555
C14 O3 1_555 1_555
H21 C14 1_555 1_555
H22 C14 1_555 1_555
C15 C14 1_555 1_555
C16 C15 1_555 1_555
H23 C16 1_555 1_555
H24 C16 1_555 1_555
H25 C16 1_555 1_555
C17 C15 1_555 1_555
H26 C17 1_555 1_555
H27 C17 1_555 1_555
H28 C17 1_555 1_555
C18 C15 1_555 1_555
H29 C18 1_555 1_555
H30 C18 1_555 1_555
H31 C18 1_555 1_555
C19 O4 1_555 1_555
C20 C19 1_555 1_555
C21 C20 1_555 1_555
H32 C21 1_555 1_555
C22 C21 1_555 1_555
H33 C22 1_555 1_555
C23 C22 1_555 1_555
H34 C23 1_555 1_555
C24 C19 1_555 1_555
C25 C24 1_555 1_555
H35 C25 1_555 1_555
H36 C25 1_555 1_555
H37 C25 1_555 1_555
C26 C20 1_555 1_555
H38 C26 1_555 1_555
H39 C26 1_555 1_555
H40 C26 1_555 1_555
C27 O5 1_555 1_555
H41 C27 1_555 1_555
H42 C27 1_555 1_555
C28 C27 1_555 1_555
C29 C28 1_555 1_555
H43 C29 1_555 1_555
H44 C29 1_555 1_555
H45 C29 1_555 1_555
C30 C28 1_555 1_555
H46 C30 1_555 1_555
H47 C30 1_555 1_555
H48 C30 1_555 1_555
C31 C28 1_555 1_555
H49 C31 1_555 1_555
H50 C31 1_555 1_555
H51 C31 1_555 1_555
O4C Rb1 1_555 1_555
Rb1C O4 1_555 1_555
Rb1 O2 1_555 1_555
Rb1 O3 1_555 1_555
C5 C6 1_555 1_555
C23 C24 1_555 1_555

#END
