
#######################################################################
#
#                 Cambridge Crystallographic Data Centre
#                                CCDC 
#
#######################################################################
#
# If this CIF has been generated from an entry in the Cambridge 
# Structural Database, then it will include bibliographic, chemical, 
# crystal, experimental, refinement or atomic coordinate data resulting 
# from the CCDC's data processing and validation procedures.
#
#######################################################################

data_ABUSOG
_symmetry_cell_setting           monoclinic
_symmetry_space_group_name_H-M   'P 21/c'
_symmetry_Int_Tables_number      14
_space_group_name_Hall           '-P 2ybc'
loop_
_symmetry_equiv_pos_site_id
_symmetry_equiv_pos_as_xyz
1 x,y,z
2 x,1/2-y,1/2+z
3 -x,-y,-z
4 -x,1/2+y,1/2-z
_cell_length_a                   14.0134(13)
_cell_length_b                   12.0867(11)
_cell_length_c                   7.5457(7)
_cell_angle_alpha                90
_cell_angle_beta                 95.867(4)
_cell_angle_gamma                90
_cell_volume                     1271.36
loop_
_atom_site_label
_atom_site_type_symbol
_atom_site_fract_x
_atom_site_fract_y
_atom_site_fract_z
Mn1 Mn 0.5000 0.5000 0.0000
N1 N 0.5644(3) 0.3994(4) 0.2248(6)
N2 N 0.7940(4) 0.2109(5) 0.5398(8)
N3 N 0.5793(3) 0.4112(4) 0.8032(6)
C1 C 0.6499(4) 0.3439(4) 0.5253(7)
C2 C 0.6035(4) 0.3743(4) 0.3602(7)
C3 C 0.7305(4) 0.2712(5) 0.5358(8)
C4 C 0.6123(4) 0.3806(4) 0.6786(8)
N4 N 0.3753(3) 0.3809(3) -0.0529(6)
N5 N -0.0101(4) 0.0035(5) -0.2458(8)
C5 C 0.3863(4) 0.2716(5) -0.0363(8)
H1 H 0.4476 0.2456 0.0006
C6 C 0.3159(4) 0.1951(5) -0.0687(8)
H2 H 0.3293 0.1201 -0.0542
C7 C 0.2223(4) 0.2311(4) -0.1246(7)
C8 C 0.1418(4) 0.1523(4) -0.1632(7)
C9 C 0.1569(4) 0.0476(5) -0.2287(8)
H3 H 0.2185 0.0246 -0.2468
C10 C 0.0788(5) -0.0233(5) -0.2672(9)
H4 H 0.0904 -0.0935 -0.3106
C11 C -0.0238(4) 0.1025(6) -0.1821(10)
H5 H -0.0864 0.1224 -0.1653
C12 C 0.0480(4) 0.1804(5) -0.1376(9)
H6 H 0.0335 0.2492 -0.0921
C13 C 0.2089(4) 0.3439(5) -0.1418(8)
H7 H 0.1483 0.3720 -0.1783
C14 C 0.2857(4) 0.4152(5) -0.1045(8)
H8 H 0.2746 0.4908 -0.1160
N1B N 0.4356(3) 0.6006(4) -0.2248(6)
N2B N 0.2060(4) 0.7891(5) -0.5398(8)
N3B N 0.4207(3) 0.5888(4) -0.8032(6)
C1B C 0.3501(4) 0.6561(4) -0.5253(7)
C2B C 0.3965(4) 0.6257(4) -0.3602(7)
C3B C 0.2695(4) 0.7288(5) -0.5358(8)
C4B C 0.3877(4) 0.6194(4) -0.6786(8)
N4B N 0.6247(3) 0.6191(3) 0.0529(6)
N5B N 1.0101(4) 0.9965(5) 0.2458(8)
C5B C 0.6137(4) 0.7284(5) 0.0363(8)
H1B H 0.5524 0.7544 -0.0006
C6B C 0.6841(4) 0.8049(5) 0.0687(8)
H2B H 0.6707 0.8799 0.0542
C7B C 0.7777(4) 0.7689(4) 0.1246(7)
C8B C 0.8582(4) 0.8477(4) 0.1632(7)
C9B C 0.8431(4) 0.9524(5) 0.2287(8)
H3B H 0.7815 0.9754 0.2468
C10B C 0.9212(5) 1.0233(5) 0.2672(9)
H4B H 0.9096 1.0935 0.3106
C11B C 1.0238(4) 0.8975(6) 0.1821(10)
H5B H 1.0864 0.8776 0.1653
C12B C 0.9520(4) 0.8196(5) 0.1376(9)
H6B H 0.9665 0.7508 0.0921
C13B C 0.7911(4) 0.6561(5) 0.1418(8)
H7B H 0.8517 0.6280 0.1783
C14B C 0.7143(4) 0.5848(5) 0.1045(8)
H8B H 0.7254 0.5092 0.1160
N3_2 N 0.5793(3) 0.4112(4) -0.1968(6)
N3B_2 N 0.4207(3) 0.5888(4) 0.1968(6)
Mn1_2 Mn 0.5000 0.5000 1.0000
Mn1_3 Mn 0.5000 0.5000 -1.0000
loop_
_geom_bond_atom_site_label_1
_geom_bond_atom_site_label_2
_geom_bond_site_symmetry_1
_geom_bond_site_symmetry_2
Mn1 N1 1_555 1_555
N1 C2 1_555 1_555
N2 C3 1_555 1_555
N3 C4 1_555 1_555
C1 C2 1_555 1_555
C3 C1 1_555 1_555
C4 C1 1_555 1_555
N4 Mn1 1_555 1_555
N5 C10 1_555 1_555
C5 N4 1_555 1_555
H1 C5 1_555 1_555
C6 C5 1_555 1_555
H2 C6 1_555 1_555
C7 C6 1_555 1_555
C8 C7 1_555 1_555
C9 C8 1_555 1_555
H3 C9 1_555 1_555
C10 C9 1_555 1_555
H4 C10 1_555 1_555
C11 N5 1_555 1_555
H5 C11 1_555 1_555
C12 C8 1_555 1_555
H6 C12 1_555 1_555
C13 C7 1_555 1_555
H7 C13 1_555 1_555
C14 N4 1_555 1_555
H8 C14 1_555 1_555
N1B Mn1 1_555 1_555
N2B C3B 1_555 1_555
N3B C4B 1_555 1_555
C1B C2B 1_555 1_555
C2B N1B 1_555 1_555
C3B C1B 1_555 1_555
C4B C1B 1_555 1_555
N4B Mn1 1_555 1_555
N5B C10B 1_555 1_555
C5B N4B 1_555 1_555
H1B C5B 1_555 1_555
C6B C5B 1_555 1_555
H2B C6B 1_555 1_555
C7B C6B 1_555 1_555
C8B C7B 1_555 1_555
C9B C8B 1_555 1_555
H3B C9B 1_555 1_555
C10B C9B 1_555 1_555
H4B C10B 1_555 1_555
C11B N5B 1_555 1_555
H5B C11B 1_555 1_555
C12B C8B 1_555 1_555
H6B C12B 1_555 1_555
C13B C7B 1_555 1_555
H7B C13B 1_555 1_555
C14B N4B 1_555 1_555
H8B C14B 1_555 1_555
N3_2 Mn1 1_555 1_555
N3B_2 Mn1 1_555 1_555
Mn1_2 N3 1_555 1_555
Mn1_3 N3B 1_555 1_555
C11 C12 1_555 1_555
C13 C14 1_555 1_555
C11B C12B 1_555 1_555
C13B C14B 1_555 1_555

#END
