
#######################################################################
#
#                 Cambridge Crystallographic Data Centre
#                                CCDC 
#
#######################################################################
#
# If this CIF has been generated from an entry in the Cambridge 
# Structural Database, then it will include bibliographic, chemical, 
# crystal, experimental, refinement or atomic coordinate data resulting 
# from the CCDC's data processing and validation procedures.
#
#######################################################################

data_ABUWOJ
_symmetry_cell_setting           orthorhombic
_symmetry_space_group_name_H-M   'P b c a'
_symmetry_Int_Tables_number      61
_space_group_name_Hall           '-P 2ac 2ab'
loop_
_symmetry_equiv_pos_site_id
_symmetry_equiv_pos_as_xyz
1 x,y,z
2 1/2+x,y,1/2-z
3 x,1/2-y,1/2+z
4 1/2-x,1/2+y,z
5 -x,-y,-z
6 1/2-x,-y,1/2+z
7 -x,1/2+y,1/2-z
8 1/2+x,1/2-y,-z
_cell_length_a                   14.4988(2)
_cell_length_b                   17.16590(10)
_cell_length_c                   18.1536(5)
_cell_angle_alpha                90
_cell_angle_beta                 90
_cell_angle_gamma                90
_cell_volume                     4518.16
loop_
_atom_site_label
_atom_site_type_symbol
_atom_site_fract_x
_atom_site_fract_y
_atom_site_fract_z
Zn1 Zn 0.55551(5) 0.06052(4) 0.54823(4)
Zn2 Zn 0.34708(5) 0.05295(4) 0.60236(4)
S1 S 0.62938(15) 0.20725(11) 0.46236(11)
S2 S 0.73751(15) 0.04497(14) 0.64932(12)
O1 O 0.4193(3) 0.0397(2) 0.5129(2)
H1 H 0.3903(7) 0.0724(7) 0.4789(8)
O2 O 0.5771(4) 0.1320(3) 0.4588(2)
O3 O 0.6927(3) 0.0796(3) 0.5822(2)
O4 O 0.5409(3) -0.0143(2) 0.6402(2)
O5 O 0.3956(3) -0.0159(3) 0.6800(2)
O6 O 0.4844(3) -0.3425(3) 0.8885(2)
O7 O 0.6315(3) -0.3431(3) 0.8528(2)
O8 O 0.2186(3) 0.0194(3) 0.5967(3)
O9 O 0.2152(4) 0.1107(3) 0.5125(4)
C1 C 0.7294(9) 0.1879(8) 0.4128(8)
H2 H 0.7689 0.1546 0.4412
H3 H 0.7608 0.2359 0.4024
H4 H 0.7137 0.1625 0.3673
C2 C 0.5754(11) 0.2669(6) 0.3958(7)
H5 H 0.5168 0.2842 0.4142
H6 H 0.5664 0.2378 0.3513
H7 H 0.6137 0.3113 0.3858
C3 C 0.6908(6) 0.0934(7) 0.7263(4)
H8 H 0.6279 0.0775 0.7332
H9 H 0.6931 0.1486 0.7184
H10 H 0.7260 0.0804 0.7694
C4 C 0.8496(5) 0.0862(6) 0.6520(5)
H11 H 0.8859 0.0654 0.6124
H12 H 0.8784 0.0738 0.6982
H13 H 0.8453 0.1418 0.6470
C5 C 0.4772(5) -0.0409(3) 0.6793(3)
C6 C 0.4993(4) -0.1076(4) 0.7296(3)
C7 C 0.5848(5) -0.1421(4) 0.7274(4)
H14 H 0.6309 -0.1208 0.6980
C8 C 0.6032(5) -0.2086(4) 0.7686(4)
H15 H 0.6612 -0.2318 0.7666
C9 C 0.5346(4) -0.2402(4) 0.8127(3)
C10 C 0.4494(5) -0.2048(4) 0.8163(4)
H16 H 0.4040 -0.2252 0.8469
C11 C 0.4314(4) -0.1391(4) 0.7749(3)
H17 H 0.3735 -0.1158 0.7773
C12 C 0.5507(5) -0.3142(3) 0.8553(3)
C13 C 0.1803(4) 0.0549(5) 0.5457(4)
C14 C 0.0858(4) 0.0265(4) 0.5231(4)
C15 C 0.0384(5) 0.0649(5) 0.4680(4)
H18 H 0.0642 0.1089 0.4463
C16 C 0.0471(5) -0.0388(5) 0.5553(4)
H19 H 0.0784 -0.0651 0.5925
C16D C -0.0471(5) 0.0388(5) 0.4447(4)
C14D C -0.0858(4) -0.0265(4) 0.4769(4)
C13D C -0.1803(4) -0.0549(5) 0.4543(4)
O8D O -0.2186(3) -0.0194(3) 0.4033(3)
O9D O -0.2152(4) -0.1107(3) 0.4875(4)
C15D C -0.0384(5) -0.0649(5) 0.5320(4)
H18D H -0.0642 -0.1089 0.5537
H19D H -0.0784 0.0651 0.4075
O1D O 0.5807(3) -0.0397(2) 0.4871(2)
H1D H 0.6097(7) -0.0724(7) 0.5211(8)
O4F O 0.4591(3) 0.4857(2) 0.8598(2)
O5F O 0.6044(3) 0.4841(3) 0.8200(2)
O6F O 0.5156(3) 0.1575(3) 0.6115(2)
O7F O 0.3685(3) 0.1569(3) 0.6472(2)
C5F C 0.5228(5) 0.4591(3) 0.8207(3)
C6F C 0.5007(4) 0.3924(4) 0.7704(3)
C7F C 0.4152(5) 0.3579(4) 0.7726(4)
H14F H 0.3691 0.3792 0.8020
C8F C 0.3968(5) 0.2914(4) 0.7314(4)
H15F H 0.3388 0.2682 0.7334
C9F C 0.4654(4) 0.2598(4) 0.6873(3)
C10F C 0.5506(5) 0.2952(4) 0.6837(4)
H16F H 0.5960 0.2748 0.6531
C11F C 0.5686(4) 0.3609(4) 0.7251(3)
H17F H 0.6265 0.3842 0.7227
C12F C 0.4493(5) 0.1858(3) 0.6447(3)
Zn1D Zn 0.44449(5) -0.06052(4) 0.45177(4)
Zn1F Zn 0.44449(5) 0.56052(4) 0.95177(4)
Zn1F_2 Zn 0.44449(5) -0.43948(4) 0.95177(4)
Zn2D Zn 0.65292(5) -0.05295(4) 0.39764(4)
Zn2F Zn 0.65292(5) 0.55295(4) 0.89764(4)
Zn2F_2 Zn 0.65292(5) -0.44705(4) 0.89764(4)
S1D S 0.37062(15) -0.20725(11) 0.53764(11)
O2D O 0.4229(4) -0.1320(3) 0.5412(2)
C1D C 0.2706(9) -0.1879(8) 0.5872(8)
H2D H 0.2311 -0.1546 0.5588
H3D H 0.2392 -0.2359 0.5976
H4D H 0.2863 -0.1625 0.6327
C2D C 0.4246(11) -0.2669(6) 0.6042(7)
H5D H 0.4832 -0.2842 0.5858
H6D H 0.4336 -0.2378 0.6487
H7D H 0.3863 -0.3113 0.6142
S2D S 0.26249(15) -0.04497(14) 0.35068(12)
O3D O 0.3073(3) -0.0796(3) 0.4178(2)
C3D C 0.3092(6) -0.0934(7) 0.2737(4)
H8D H 0.3721 -0.0775 0.2668
H9D H 0.3069 -0.1486 0.2816
H10D H 0.2740 -0.0804 0.2306
C4D C 0.1504(5) -0.0862(6) 0.3480(5)
H11D H 0.1141 -0.0654 0.3876
H12D H 0.1216 -0.0738 0.3018
H13D H 0.1547 -0.1418 0.3530
O4D O 0.4591(3) 0.0143(2) 0.3598(2)
O5D O 0.6044(3) 0.0159(3) 0.3200(2)
O6B O 0.4844(3) -0.1575(3) 0.3885(2)
O7B O 0.6315(3) -0.1569(3) 0.3528(2)
O8D_2 O 0.7814(3) -0.0194(3) 0.4033(3)
Zn2D_2 Zn -0.34708(5) -0.05295(4) 0.39764(4)
O10 O 0.3082(15) 0.2097(12) 0.4212(10)
H20 H 0.2861(15) 0.2497(13) 0.4523(11)
H21 H 0.2817(15) 0.1618(14) 0.4409(10)
loop_
_geom_bond_atom_site_label_1
_geom_bond_atom_site_label_2
_geom_bond_site_symmetry_1
_geom_bond_site_symmetry_2
Zn1 O1 1_555 1_555
Zn2 O1 1_555 1_555
S1 O2 1_555 1_555
S2 O3 1_555 1_555
O1 H1 1_555 1_555
O2 Zn1 1_555 1_555
O3 Zn1 1_555 1_555
O4 Zn1 1_555 1_555
O5 Zn2 1_555 1_555
O6 C12 1_555 1_555
O7 C12 1_555 1_555
O8 Zn2 1_555 1_555
O9 C13 1_555 1_555
C1 S1 1_555 1_555
H2 C1 1_555 1_555
H3 C1 1_555 1_555
H4 C1 1_555 1_555
C2 S1 1_555 1_555
H5 C2 1_555 1_555
H6 C2 1_555 1_555
H7 C2 1_555 1_555
C3 S2 1_555 1_555
H8 C3 1_555 1_555
H9 C3 1_555 1_555
H10 C3 1_555 1_555
C4 S2 1_555 1_555
H11 C4 1_555 1_555
H12 C4 1_555 1_555
H13 C4 1_555 1_555
C5 O4 1_555 1_555
C6 C5 1_555 1_555
C7 C6 1_555 1_555
H14 C7 1_555 1_555
C8 C7 1_555 1_555
H15 C8 1_555 1_555
C9 C8 1_555 1_555
C10 C9 1_555 1_555
H16 C10 1_555 1_555
C11 C6 1_555 1_555
H17 C11 1_555 1_555
C12 C9 1_555 1_555
C13 O8 1_555 1_555
C14 C13 1_555 1_555
C15 C14 1_555 1_555
H18 C15 1_555 1_555
C16 C14 1_555 1_555
H19 C16 1_555 1_555
O10 H20 1_555 1_555
H21 O10 1_555 1_555
C16D C15 1_555 1_555
C14D C16D 1_555 1_555
C13D C14D 1_555 1_555
O8D C13D 1_555 1_555
O9D C13D 1_555 1_555
C15D C16 1_555 1_555
H18D C15D 1_555 1_555
H19D C16D 1_555 1_555
O1D Zn1 1_555 1_555
H1D O1D 1_555 1_555
O4F C5F 1_555 1_555
O5F C5F 1_555 1_555
O6F Zn1 1_555 1_555
O7F Zn2 1_555 1_555
C5F C6F 1_555 1_555
C6F C7F 1_555 1_555
C7F H14F 1_555 1_555
C8F C7F 1_555 1_555
H15F C8F 1_555 1_555
C9F C8F 1_555 1_555
C10F C9F 1_555 1_555
H16F C10F 1_555 1_555
C11F C6F 1_555 1_555
H17F C11F 1_555 1_555
C12F O6F 1_555 1_555
Zn1D O1 1_555 1_555
Zn1F O4F 1_555 1_555
Zn1F_2 O6 1_555 1_555
Zn2D O1D 1_555 1_555
Zn2F O5F 1_555 1_555
Zn2F_2 O7 1_555 1_555
S1D O2D 1_555 1_555
O2D Zn1D 1_555 1_555
C1D S1D 1_555 1_555
H2D C1D 1_555 1_555
H3D C1D 1_555 1_555
H4D C1D 1_555 1_555
C2D S1D 1_555 1_555
H5D C2D 1_555 1_555
H6D C2D 1_555 1_555
H7D C2D 1_555 1_555
S2D O3D 1_555 1_555
O3D Zn1D 1_555 1_555
C3D S2D 1_555 1_555
H8D C3D 1_555 1_555
H9D C3D 1_555 1_555
H10D C3D 1_555 1_555
C4D S2D 1_555 1_555
H11D C4D 1_555 1_555
H12D C4D 1_555 1_555
H13D C4D 1_555 1_555
O4D Zn1D 1_555 1_555
O5D Zn2D 1_555 1_555
O6B Zn1D 1_555 1_555
O7B Zn2D 1_555 1_555
O8D_2 Zn2D 1_555 1_555
Zn2D_2 O8D 1_555 1_555
O5 C5 1_555 1_555
C10 C11 1_555 1_555
C14D C15D 1_555 1_555
O1D Zn1D 1_555 1_555
O7F C12F 1_555 1_555
C9F C12F 1_555 1_555
C10F C11F 1_555 1_555

#END
