
#######################################################################
#
#                 Cambridge Crystallographic Data Centre
#                                CCDC 
#
#######################################################################
#
# If this CIF has been generated from an entry in the Cambridge 
# Structural Database, then it will include bibliographic, chemical, 
# crystal, experimental, refinement or atomic coordinate data resulting 
# from the CCDC's data processing and validation procedures.
#
#######################################################################

data_ABUXAX
_symmetry_cell_setting           monoclinic
_symmetry_space_group_name_H-M   'C 2/c'
_symmetry_Int_Tables_number      15
_space_group_name_Hall           '-C 2yn'
loop_
_symmetry_equiv_pos_site_id
_symmetry_equiv_pos_as_xyz
1 x,y,z
2 x,-y,1/2+z
3 1/2+x,1/2+y,z
4 1/2+x,1/2-y,1/2+z
5 -x,-y,-z
6 -x,y,1/2-z
7 1/2-x,1/2-y,-z
8 1/2-x,1/2+y,1/2-z
_cell_length_a                   20.3688
_cell_length_b                   6.4232
_cell_length_c                   18.1059
_cell_angle_alpha                90
_cell_angle_beta                 118.437
_cell_angle_gamma                90
_cell_volume                     2083.02
loop_
_atom_site_label
_atom_site_type_symbol
_atom_site_fract_x
_atom_site_fract_y
_atom_site_fract_z
Pb1 Pb 0.00000 0.27053(6) 0.25000
Pb2 Pb 0.319330(16) -0.16974(4) 0.318570(16)
N1 N 0.3246(3) 0.0003(8) 0.5235(3)
N2 N 0.2892(3) -0.0193(8) 0.4392(3)
O1 O 0.1847(3) -0.0402(7) 0.2741(3)
O2 O 0.0923(3) -0.0539(7) 0.3072(3)
O3 O 0.2503(3) 0.0127(7) 0.6679(3)
O4 O 0.3652(3) 0.0900(8) 0.6936(3)
C1 C 0.1596(4) -0.0402(9) 0.3268(4)
C2 C 0.2153(4) -0.0205(9) 0.4165(4)
C3 C 0.2041(4) -0.0029(8) 0.4867(4)
C4 C 0.2751(4) 0.0102(9) 0.5541(4)
C5 C 0.2996(4) 0.0398(9) 0.6457(4)
N3 N 0.0104(4) 0.2251(9) 0.0589(4)
O5 O 0.0421(3) 0.1798(8) 0.1362(3)
O6 O 0.0487(3) 0.2761(10) 0.0261(3)
O7 O -0.0592(3) 0.2195(9) 0.0180(3)
O8 O 0.0244(3) 0.6008(7) 0.3470(3)
O9 O 0.3888(3) 0.1755(7) 0.3517(3)
H1 H 0.1558 -0.0002 0.4884
N1E N -0.3246(3) 0.0003(8) -0.0235(3)
N2E N -0.2892(3) -0.0193(8) 0.0608(3)
O1E O -0.1847(3) -0.0402(7) 0.2259(3)
O2E O -0.0923(3) -0.0539(7) 0.1928(3)
O3E O -0.2503(3) 0.0127(7) -0.1679(3)
O4E O -0.3652(3) 0.0900(8) -0.1936(3)
C1E C -0.1596(4) -0.0402(9) 0.1732(4)
C2E C -0.2153(4) -0.0205(9) 0.0835(4)
C3E C -0.2041(4) -0.0029(8) 0.0133(4)
C4E C -0.2751(4) 0.0102(9) -0.0541(4)
C5E C -0.2996(4) 0.0398(9) -0.1457(4)
H1E H -0.1558 -0.0002 0.0116
N3E N -0.0104(4) 0.2251(9) 0.4411(4)
O5E O -0.0421(3) 0.1798(8) 0.3638(3)
O6E O -0.0487(3) 0.2761(10) 0.4739(3)
O7E O 0.0592(3) 0.2195(9) 0.4820(3)
O8E O -0.0244(3) 0.6008(7) 0.1530(3)
Pb2E Pb -0.319330(16) -0.16974(4) 0.181430(16)
O9E O -0.3888(3) 0.1755(7) 0.1483(3)
O4C O -0.1348(3) 0.4100(8) 0.1936(3)
O4F O 0.1348(3) 0.4100(8) 0.3064(3)
O1G O 0.3153(3) -0.5402(7) 0.2259(3)
O3A O 0.2503(3) -0.0127(7) 0.1679(3)
O3F O 0.2497(3) -0.5127(7) 0.3321(3)
O4A O 0.3652(3) -0.0900(8) 0.1936(3)
O5G O 0.4579(3) -0.3202(8) 0.3638(3)
O6G O 0.4513(3) -0.2239(10) 0.4739(3)
Pb2G Pb 0.180670(16) 0.33026(4) 0.181430(16)
Pb2A Pb 0.319330(16) 0.16974(4) 0.818570(16)
Pb2F Pb 0.180670(16) -0.33026(4) 0.681430(16)
Pb1C Pb 0.50000 0.22947(6) 0.75000
Pb2B Pb -0.180670(16) 0.33026(4) 0.318570(16)
Pb2C Pb -0.180670(16) -0.33026(4) -0.181430(16)
Pb2D Pb -0.319330(16) 0.16974(4) -0.318570(16)
Pb1C_2 Pb -0.50000 0.22947(6) -0.25000
O1B O -0.3153(3) -0.5402(7) 0.2741(3)
O3C O -0.2497(3) -0.5127(7) 0.1679(3)
O3D O -0.2503(3) -0.0127(7) 0.3321(3)
O4D O -0.3652(3) -0.0900(8) 0.3064(3)
O5B O -0.4579(3) -0.3202(8) 0.1362(3)
O6B O -0.4513(3) -0.2239(10) 0.0261(3)
loop_
_geom_bond_atom_site_label_1
_geom_bond_atom_site_label_2
_geom_bond_site_symmetry_1
_geom_bond_site_symmetry_2
Pb1 O2 1_555 1_555
Pb2 N2 1_555 1_555
N1 N2 1_555 1_555
N2 C2 1_555 1_555
O1 Pb2 1_555 1_555
O2 C1 1_555 1_555
O3 C5 1_555 1_555
O4 C5 1_555 1_555
C1 O1 1_555 1_555
C2 C1 1_555 1_555
C3 C2 1_555 1_555
C4 N1 1_555 1_555
C5 C4 1_555 1_555
N3 O5 1_555 1_555
O5 Pb1 1_555 1_555
O6 N3 1_555 1_555
O7 N3 1_555 1_555
O8 Pb1 1_555 1_555
O9 Pb2 1_555 1_555
H1 C3 1_555 1_555
N1E N2E 1_555 1_555
N2E C2E 1_555 1_555
O1E C1E 1_555 1_555
O2E Pb1 1_555 1_555
O3E C5E 1_555 1_555
O4E C5E 1_555 1_555
C1E O2E 1_555 1_555
C2E C1E 1_555 1_555
C3E C2E 1_555 1_555
C4E N1E 1_555 1_555
C5E C4E 1_555 1_555
H1E C3E 1_555 1_555
N3E O5E 1_555 1_555
O5E Pb1 1_555 1_555
O6E N3E 1_555 1_555
O7E N3E 1_555 1_555
O8E Pb1 1_555 1_555
Pb2E N2E 1_555 1_555
O9E Pb2E 1_555 1_555
O4C Pb1 1_555 1_555
O4F Pb1 1_555 1_555
O1G Pb2 1_555 1_555
O3A Pb2 1_555 1_555
O3F Pb2 1_555 1_555
O4A Pb2 1_555 1_555
O5G Pb2 1_555 1_555
O6G Pb2 1_555 1_555
Pb2G O1 1_555 1_555
Pb2A O3 1_555 1_555
Pb2F O3 1_555 1_555
Pb1C O4 1_555 1_555
Pb2B O1E 1_555 1_555
Pb2C O3E 1_555 1_555
Pb2D O3E 1_555 1_555
Pb1C_2 O4E 1_555 1_555
O1B Pb2E 1_555 1_555
O3C Pb2E 1_555 1_555
O3D Pb2E 1_555 1_555
O4D Pb2E 1_555 1_555
O5B Pb2E 1_555 1_555
O6B Pb2E 1_555 1_555
O4 Pb2A 1_555 1_555
C3 C4 1_555 1_555
O5 Pb2G 1_555 1_555
O6 Pb2G 1_555 1_555
O1E Pb2E 1_555 1_555
O4E Pb2D 1_555 1_555
C3E C4E 1_555 1_555
O5E Pb2B 1_555 1_555
O6E Pb2B 1_555 1_555
O4C Pb2B 1_555 1_555
O4F Pb2G 1_555 1_555
O3A Pb2G 1_555 1_555
Pb2B O3D 1_555 1_555

#END
