
#######################################################################
#
#                 Cambridge Crystallographic Data Centre
#                                CCDC 
#
#######################################################################
#
# If this CIF has been generated from an entry in the Cambridge 
# Structural Database, then it will include bibliographic, chemical, 
# crystal, experimental, refinement or atomic coordinate data resulting 
# from the CCDC's data processing and validation procedures.
#
#######################################################################

data_ABUXEB
_symmetry_cell_setting           monoclinic
_symmetry_space_group_name_H-M   'P 21/c'
_symmetry_Int_Tables_number      14
_space_group_name_Hall           '-P 2ybc'
loop_
_symmetry_equiv_pos_site_id
_symmetry_equiv_pos_as_xyz
1 x,y,z
2 x,1/2-y,1/2+z
3 -x,-y,-z
4 -x,1/2+y,1/2-z
_cell_length_a                   15.612(3)
_cell_length_b                   14.830(3)
_cell_length_c                   10.548(2)
_cell_angle_alpha                90
_cell_angle_beta                 91.90(3)
_cell_angle_gamma                90
_cell_volume                     2440.79
loop_
_atom_site_label
_atom_site_type_symbol
_atom_site_fract_x
_atom_site_fract_y
_atom_site_fract_z
Co1 Co 0.733155(18) 0.02098(2) 0.70079(3)
V1 V 0.81298(2) -0.19854(3) 0.81442(3)
V2 V 0.58531(2) -0.05778(3) 0.92473(4)
V3 V 0.75047(3) -0.35682(3) 0.60417(4)
N1 N 0.82617(14) 0.08358(15) 0.81552(19)
O1 O 0.64713(12) 0.01465(13) 0.84852(19)
N2 N 0.67761(15) 0.13884(14) 0.6248(2)
O2 O 0.74971(14) -0.28959(14) 0.74163(18)
C1 C 0.59817(18) -0.1509(2) 0.4247(3)
H1 H 0.5923 -0.2124 0.4093
O3 O 0.64576(15) -0.12159(18) 1.0466(2)
O4 O 0.77752(14) -0.10234(13) 0.7575(2)
N3 N 0.83474(14) 0.03836(16) 0.5723(2)
N4 N 0.65100(13) -0.03208(14) 0.5619(2)
O5 O 0.5000 0.0000 1.0000
O6 O 0.80493(15) -0.20044(18) 0.98645(18)
C2 C 0.90077(17) 0.08717(19) 0.6199(3)
C3 C 0.90043(16) 0.10298(19) 0.7591(2)
C4 C 0.8214(2) 0.0965(2) 0.9413(3)
H2 H 0.7704 0.0830 0.9804
O7 O 0.91329(12) -0.21094(16) 0.7835(2)
O8 O 0.54710(16) -0.13069(15) 0.8232(2)
C5 C 0.61707(16) 0.02937(18) 0.4787(2)
C6 C 0.62856(16) 0.12505(18) 0.5166(2)
C7 C 0.64121(17) -0.11979(18) 0.5361(3)
H3 H 0.6636 -0.1618 0.5937
C8 C 0.83404(19) 0.0174(2) 0.4470(3)
H4 H 0.7901 -0.0186 0.4136
C9 C 0.5925(2) 0.1975(2) 0.4494(3)
H5 H 0.5602 0.1876 0.3750
C10 C 0.56540(19) -0.0895(2) 0.3401(3)
H6 H 0.5376 -0.1086 0.2655
C11 C 0.6885(2) 0.22270(19) 0.6678(3)
H7 H 0.7210 0.2317 0.7422
O9 O 0.7976(2) -0.4490(2) 0.6376(3)
C12 C 0.6055(2) 0.2844(2) 0.4947(4)
H8 H 0.5823 0.3334 0.4506
C13 C 0.57401(19) 0.0033(2) 0.3665(3)
H9 H 0.5515 0.0462 0.3104
C14 C 0.9728(2) 0.1337(3) 0.8277(3)
H10 H 1.0236 0.1458 0.7874
C15 C 0.8965(2) 0.0478(3) 0.3669(3)
H11 H 0.8946 0.0318 0.2816
C16 C 0.9651(2) 0.1210(2) 0.5427(3)
H12 H 1.0095 0.1558 0.5775
C17 C 0.6528(3) 0.2976(2) 0.6053(4)
H13 H 0.6610 0.3553 0.6379
C18 C 0.8904(3) 0.1296(3) 1.0153(3)
H14 H 0.8843 0.1404 1.1014
C19 C 0.9615(2) 0.1021(3) 0.4152(3)
H15 H 1.0024 0.1255 0.3621
C20 C 0.9667(2) 0.1458(3) 0.9600(3)
H16 H 1.0141 0.1646 1.0088
V2B V 0.41469(2) 0.05778(3) 1.07527(4)
V3A V 0.75047(3) -0.14318(3) 1.10417(4)
O3A O 0.64576(15) -0.37841(18) 0.5466(2)
O6A O 0.80493(15) -0.29956(18) 0.48645(18)
O1B O 0.35287(12) -0.01465(13) 1.15148(19)
O8B O 0.45290(16) 0.13069(15) 1.1768(2)
O2A O 0.74971(14) -0.21041(14) 1.24163(18)
O9A O 0.7976(2) -0.0510(2) 1.1376(3)
Co1B Co 0.266845(18) -0.02098(2) 1.29921(3)
V1A V 0.81298(2) -0.30146(3) 1.31442(3)
N1B N 0.17383(14) -0.08358(15) 1.18448(19)
N3B N 0.16526(14) -0.03836(16) 1.4277(2)
C2B C 0.09923(17) -0.08717(19) 1.3801(3)
C3B C 0.09957(16) -0.10298(19) 1.2409(2)
C4B C 0.1786(2) -0.0965(2) 1.0587(3)
H2B H 0.2296 -0.0830 1.0196
C8B C 0.16596(19) -0.0174(2) 1.5530(3)
H4B H 0.2099 0.0186 1.5864
C14B C 0.0272(2) -0.1337(3) 1.1723(3)
H10B H -0.0236 -0.1458 1.2126
C15B C 0.1035(2) -0.0478(3) 1.6331(3)
H11B H 0.1054 -0.0318 1.7184
C16B C 0.0349(2) -0.1210(2) 1.4573(3)
H12B H -0.0095 -0.1558 1.4225
C18B C 0.1096(3) -0.1296(3) 0.9847(3)
H14B H 0.1157 -0.1404 0.8986
C19B C 0.0385(2) -0.1021(3) 1.5848(3)
H15B H -0.0024 -0.1255 1.6379
C20B C 0.0333(2) -0.1458(3) 1.0400(3)
H16B H -0.0141 -0.1646 0.9912
N2B N 0.32239(15) -0.13884(14) 1.3752(2)
C1B C 0.40183(18) 0.1509(2) 1.5753(3)
H1B H 0.4077 0.2124 1.5907
N4B N 0.34900(13) 0.03208(14) 1.4381(2)
C5B C 0.38293(16) -0.02937(18) 1.5213(2)
C6B C 0.37144(16) -0.12505(18) 1.4834(2)
C7B C 0.35879(17) 0.11979(18) 1.4639(3)
H3B H 0.3364 0.1618 1.4063
C9B C 0.4075(2) -0.1975(2) 1.5506(3)
H5B H 0.4398 -0.1876 1.6250
C10B C 0.43460(19) 0.0895(2) 1.6599(3)
H6B H 0.4624 0.1086 1.7345
C11B C 0.3115(2) -0.22270(19) 1.3322(3)
H7B H 0.2790 -0.2317 1.2578
C12B C 0.3945(2) -0.2844(2) 1.5053(4)
H8B H 0.4177 -0.3334 1.5494
C13B C 0.42599(19) -0.0033(2) 1.6335(3)
H9B H 0.4485 -0.0462 1.6896
C17B C 0.3472(3) -0.2976(2) 1.3947(4)
H13B H 0.3390 -0.3553 1.3621
O4B O 0.22248(14) 0.10234(13) 1.2425(2)
O7A O 0.91329(12) -0.28906(16) 1.2835(2)
O3B O 0.35424(15) 0.12159(18) 0.9534(2)
V2A V 0.58531(2) -0.44222(3) 0.42473(4)
V1A_2 V 0.81298(2) -0.30146(3) 0.31442(3)
O4A O 0.77752(14) -0.39766(13) 1.2575(2)
O6A_2 O 0.80493(15) -0.29956(18) 1.48645(18)
V1B V 0.18702(2) 0.19854(3) 1.18558(3)
loop_
_geom_bond_atom_site_label_1
_geom_bond_atom_site_label_2
_geom_bond_site_symmetry_1
_geom_bond_site_symmetry_2
Co1 N1 1_555 1_555
V1 O2 1_555 1_555
V2 O1 1_555 1_555
V3 O2 1_555 1_555
N1 C3 1_555 1_555
O1 Co1 1_555 1_555
N2 Co1 1_555 1_555
C1 H1 1_555 1_555
O3 V2 1_555 1_555
O4 Co1 1_555 1_555
N3 Co1 1_555 1_555
N4 Co1 1_555 1_555
O5 V2 1_555 1_555
O6 V1 1_555 1_555
C2 N3 1_555 1_555
C3 C2 1_555 1_555
C4 N1 1_555 1_555
H2 C4 1_555 1_555
O7 V1 1_555 1_555
O8 V2 1_555 1_555
C5 N4 1_555 1_555
C6 N2 1_555 1_555
C7 C1 1_555 1_555
H3 C7 1_555 1_555
C8 N3 1_555 1_555
H4 C8 1_555 1_555
C9 C6 1_555 1_555
H5 C9 1_555 1_555
C10 C1 1_555 1_555
H6 C10 1_555 1_555
C11 N2 1_555 1_555
H7 C11 1_555 1_555
O9 V3 1_555 1_555
C12 C9 1_555 1_555
H8 C12 1_555 1_555
C13 C5 1_555 1_555
H9 C13 1_555 1_555
C14 C3 1_555 1_555
H10 C14 1_555 1_555
C15 C8 1_555 1_555
H11 C15 1_555 1_555
C16 C2 1_555 1_555
H12 C16 1_555 1_555
C17 C11 1_555 1_555
H13 C17 1_555 1_555
C18 C4 1_555 1_555
H14 C18 1_555 1_555
C19 C15 1_555 1_555
H15 C19 1_555 1_555
C20 C14 1_555 1_555
H16 C20 1_555 1_555
V2B O5 1_555 1_555
V3A O3 1_555 1_555
O3A V3 1_555 1_555
O6A V3 1_555 1_555
O1B V2B 1_555 1_555
O8B V2B 1_555 1_555
O2A V3A 1_555 1_555
O9A V3A 1_555 1_555
Co1B O1B 1_555 1_555
V1A O2A 1_555 1_555
N1B Co1B 1_555 1_555
N3B Co1B 1_555 1_555
C2B N3B 1_555 1_555
C3B N1B 1_555 1_555
C4B N1B 1_555 1_555
H2B C4B 1_555 1_555
C8B N3B 1_555 1_555
H4B C8B 1_555 1_555
C14B C3B 1_555 1_555
H10B C14B 1_555 1_555
C15B C8B 1_555 1_555
H11B C15B 1_555 1_555
C16B C2B 1_555 1_555
H12B C16B 1_555 1_555
C18B C4B 1_555 1_555
H14B C18B 1_555 1_555
C19B C15B 1_555 1_555
H15B C19B 1_555 1_555
C20B C14B 1_555 1_555
H16B C20B 1_555 1_555
N2B Co1B 1_555 1_555
C1B H1B 1_555 1_555
N4B Co1B 1_555 1_555
C5B N4B 1_555 1_555
C6B N2B 1_555 1_555
C7B C1B 1_555 1_555
H3B C7B 1_555 1_555
C9B C6B 1_555 1_555
H5B C9B 1_555 1_555
C10B C1B 1_555 1_555
H6B C10B 1_555 1_555
C11B N2B 1_555 1_555
H7B C11B 1_555 1_555
C12B C9B 1_555 1_555
H8B C12B 1_555 1_555
C13B C5B 1_555 1_555
H9B C13B 1_555 1_555
C17B C11B 1_555 1_555
H13B C17B 1_555 1_555
O4B Co1B 1_555 1_555
O7A V1A 1_555 1_555
O3B V2B 1_555 1_555
V2A O3A 1_555 1_555
V1A_2 O6A 1_555 1_555
O4A V1A 1_555 1_555
O6A_2 V1A 1_555 1_555
V1B O4B 1_555 1_555
V1 O4 1_555 1_555
N4 C7 1_555 1_555
O6 V3A 1_555 1_555
C5 C6 1_555 1_555
C10 C13 1_555 1_555
C12 C17 1_555 1_555
C16 C19 1_555 1_555
C18 C20 1_555 1_555
C2B C3B 1_555 1_555
C16B C19B 1_555 1_555
C18B C20B 1_555 1_555
N4B C7B 1_555 1_555
C5B C6B 1_555 1_555
C10B C13B 1_555 1_555
C12B C17B 1_555 1_555

#END
