
#######################################################################
#
#                 Cambridge Crystallographic Data Centre
#                                CCDC 
#
#######################################################################
#
# If this CIF has been generated from an entry in the Cambridge 
# Structural Database, then it will include bibliographic, chemical, 
# crystal, experimental, refinement or atomic coordinate data resulting 
# from the CCDC's data processing and validation procedures.
#
#######################################################################

data_ABZCUH02
_symmetry_cell_setting           monoclinic
_symmetry_space_group_name_H-M   'C 2/c'
_symmetry_Int_Tables_number      15
_space_group_name_Hall           '-C 2yn'
loop_
_symmetry_equiv_pos_site_id
_symmetry_equiv_pos_as_xyz
1 x,y,z
2 1/2+x,1/2+y,z
3 -x,y,1/2-z
4 1/2-x,1/2+y,1/2-z
5 -x,-y,-z
6 1/2-x,1/2-y,-z
7 x,-y,1/2+z
8 1/2+x,1/2-y,1/2+z
_cell_length_a                   15.2963(19)
_cell_length_b                   6.2028(7)
_cell_length_c                   17.8150(18)
_cell_angle_alpha                90
_cell_angle_beta                 106.196(4)
_cell_angle_gamma                90
_cell_volume                     1623.2
loop_
_atom_site_label
_atom_site_type_symbol
_atom_site_fract_x
_atom_site_fract_y
_atom_site_fract_z
Cd1 Cd 0.00000 -0.17340 0.25000
O1 O 0.08205 -0.22035 0.158
O2 O 0.0499 0.1135 0.17995
O3 O 0.00000 -0.54260 0.25000
N1 N 0.1433 0.20835 -0.14825
C1 C 0.07967 -0.02288 0.1405
C2 C 0.1073 0.04715 0.07045
C3 C 0.13842 -0.10448 0.0268
C4 C 0.15397 -0.05058 -0.04390
C5 C 0.13778 0.15778 -0.07225
C6 C 0.10932 0.31343 -0.02725
C7 C 0.09412 0.25853 0.04295
O1B O -0.08205 -0.22035 0.342
O2B O -0.0499 0.1135 0.32005
N1B N -0.1433 0.20835 0.64825
C1B C -0.07967 -0.02288 0.3595
C2B C -0.1073 0.04715 0.42955
C3B C -0.13842 -0.10448 0.4732
C4B C -0.15397 -0.05058 0.54390
C5B C -0.13778 0.15778 0.57225
C6B C -0.10932 0.31343 0.52725
C7B C -0.09412 0.25853 0.45705
N1F N 0.1433 -0.20835 0.35175
N1D N -0.1433 -0.20835 0.14825
Cd1F Cd 0.00000 0.17340 -0.25000
Cd1F_2 Cd 0.00000 0.17340 0.75000
O4 O 0.2574 0.06635 0.28135
loop_
_geom_bond_atom_site_label_1
_geom_bond_atom_site_label_2
_geom_bond_site_symmetry_1
_geom_bond_site_symmetry_2
Cd1 O1 1_555 1_555
O1 C1 1_555 1_555
O2 Cd1 1_555 1_555
O3 Cd1 1_555 1_555
N1 C5 1_555 1_555
C1 O2 1_555 1_555
C2 C1 1_555 1_555
C3 C2 1_555 1_555
C4 C3 1_555 1_555
C5 C4 1_555 1_555
C6 C5 1_555 1_555
C7 C2 1_555 1_555
O1B Cd1 1_555 1_555
O2B Cd1 1_555 1_555
N1B C5B 1_555 1_555
C1B O1B 1_555 1_555
C2B C1B 1_555 1_555
C3B C2B 1_555 1_555
C4B C3B 1_555 1_555
C5B C4B 1_555 1_555
C6B C5B 1_555 1_555
C7B C2B 1_555 1_555
N1F Cd1 1_555 1_555
N1D Cd1 1_555 1_555
Cd1F N1 1_555 1_555
Cd1F_2 N1B 1_555 1_555
C6 C7 1_555 1_555
O2B C1B 1_555 1_555
C6B C7B 1_555 1_555

#END
