
#######################################################################
#
#                 Cambridge Crystallographic Data Centre
#                                CCDC 
#
#######################################################################
#
# If this CIF has been generated from an entry in the Cambridge 
# Structural Database, then it will include bibliographic, chemical, 
# crystal, experimental, refinement or atomic coordinate data resulting 
# from the CCDC's data processing and validation procedures.
#
#######################################################################

data_ABZCUH
_symmetry_cell_setting           triclinic
_symmetry_space_group_name_H-M   'P -1'
_symmetry_Int_Tables_number      2
_space_group_name_Hall           '-P 1'
loop_
_symmetry_equiv_pos_site_id
_symmetry_equiv_pos_as_xyz
1 x,y,z
2 -x,-y,-z
_cell_length_a                   17.798(4)
_cell_length_b                   6.187(1)
_cell_length_c                   8.261(2)
_cell_angle_alpha                111.98(2)
_cell_angle_beta                 105.00(2)
_cell_angle_gamma                89.98(2)
_cell_volume                     810.062
loop_
_atom_site_label
_atom_site_type_symbol
_atom_site_fract_x
_atom_site_fract_y
_atom_site_fract_z
Cd1 Cd 0.25000 0.17380 -0.00010
O1 O 0.34090 0.13890 -0.16750
O2 O 0.15830 0.30530 0.16600
O3 O 0.18020 -0.06160 0.10450
O4 O 0.32110 -0.16430 -0.10230
N1 N 0.64850 -0.35340 -0.28750
N2 N -0.14890 -0.06760 0.28730
C1 C 0.07140 0.06420 0.21770
C2 C 0.02840 0.24770 0.28020
C3 C -0.04560 0.21010 0.30870
C4 C -0.07430 -0.01680 0.27480
C5 C -0.02550 -0.21050 0.21730
C6 C 0.04300 -0.16720 0.18700
C7 C 0.14030 0.10140 0.16340
C8 C 0.35960 -0.06470 -0.16360
C9 C 0.42760 -0.15170 -0.21630
C10 C 0.45570 -0.35410 -0.18690
C11 C 0.52830 -0.42430 -0.21530
C12 C 0.57300 -0.29250 -0.27200
C13 C 0.54450 -0.09780 -0.31040
C14 C 0.47170 -0.03150 -0.28000
O5 O 0.24820 0.55680 -0.00330
N1A N 0.35150 0.35340 0.28750
Cd1A Cd -0.25000 -0.17380 0.00010
Cd1A_2 Cd 0.75000 -0.17380 0.00010
N2A N 0.14890 0.06760 -0.28730
O6 O 0.28290 0.19300 0.51930
O7 O 0.21570 0.67380 0.48140
loop_
_geom_bond_atom_site_label_1
_geom_bond_atom_site_label_2
_geom_bond_site_symmetry_1
_geom_bond_site_symmetry_2
Cd1 O1 1_555 1_555
O1 C8 1_555 1_555
O2 Cd1 1_555 1_555
O3 Cd1 1_555 1_555
O4 Cd1 1_555 1_555
N1 C12 1_555 1_555
N2 C4 1_555 1_555
C1 C2 1_555 1_555
C2 C3 1_555 1_555
C3 C4 1_555 1_555
C4 C5 1_555 1_555
C5 C6 1_555 1_555
C6 C1 1_555 1_555
C7 O2 1_555 1_555
C8 O4 1_555 1_555
C9 C8 1_555 1_555
C10 C9 1_555 1_555
C11 C10 1_555 1_555
C12 C11 1_555 1_555
C13 C12 1_555 1_555
C14 C9 1_555 1_555
O5 Cd1 1_555 1_555
N1A Cd1 1_555 1_555
Cd1A N2 1_555 1_555
Cd1A_2 N1 1_555 1_555
N2A Cd1 1_555 1_555
O3 C7 1_555 1_555
C1 C7 1_555 1_555
C13 C14 1_555 1_555

#END
