
#######################################################################
#
#                 Cambridge Crystallographic Data Centre
#                                CCDC 
#
#######################################################################
#
# If this CIF has been generated from an entry in the Cambridge 
# Structural Database, then it will include bibliographic, chemical, 
# crystal, experimental, refinement or atomic coordinate data resulting 
# from the CCDC's data processing and validation procedures.
#
#######################################################################

data_ABZCUH01
_symmetry_cell_setting           triclinic
_symmetry_space_group_name_H-M   'P -1'
_symmetry_Int_Tables_number      2
_space_group_name_Hall           '-P 1'
loop_
_symmetry_equiv_pos_site_id
_symmetry_equiv_pos_as_xyz
1 x,y,z
2 -x,-y,-z
_cell_length_a                   6.2028(7)
_cell_length_b                   8.253(1)
_cell_length_c                   17.592(2)
_cell_angle_alpha                94.295(1)
_cell_angle_beta                 100.153(1)
_cell_angle_gamma                112.072(4)
_cell_volume                     811.604
loop_
_atom_site_label
_atom_site_type_symbol
_atom_site_fract_x
_atom_site_fract_y
_atom_site_fract_z
Cd1 Cd -0.07660(3) -0.25000(3) -0.24999(1)
O1 O -0.2037(3) -0.5062(3) -0.3420(1)
O2 O -0.4831(4) -0.4196(3) -0.3201(1)
O3 O 0.1443(4) 0.0060(3) -0.1580(1)
O4 O -0.2437(4) -0.0799(3) -0.1800(1)
O5 O 0.2927(5) -0.2498(5) -0.2500(2)
N1 N -0.9999(4) -0.9349(3) -0.6481(1)
N2 N 0.0833(5) 0.4348(3) 0.1484(1)
C1 C -0.4159(5) -0.5189(4) -0.3594(2)
C2 C -0.5840(5) -0.6442(3) -0.4295(1)
C3 C -0.5068(5) -0.7501(4) -0.4733(2)
C4 C -0.6474(5) -0.8520(4) -0.5440(2)
C5 C -0.8675(5) -0.8475(4) -0.5721(2)
C6 C -0.9507(5) -0.7459(4) -0.5272(2)
C7 C -0.8099(5) -0.6453(4) -0.4572(2)
C8 C -0.0383(5) 0.0188(4) -0.1404(2)
C9 C -0.0103(5) 0.1441(3) -0.0704(1)
C10 C 0.2156(5) 0.2500(4) -0.0269(2)
C11 C 0.2483(5) 0.3517(4) 0.0438(2)
C12 C 0.0524(5) 0.3481(4) 0.0724(2)
C13 C -0.1761(5) 0.2459(4) 0.0273(2)
C14 C -0.2073(5) 0.1453(4) -0.0431(2)
H1 H -0.3559 -0.7542 -0.4546
H2 H -0.5951 -0.9261 -0.5738
H3 H -1.1037 -0.7450 -0.5457
H4 H -0.8658 -0.5759 -0.4270
H5 H -0.9441 -1.0043 -0.6789
H6 H -1.1450 -0.9233 -0.6690
H7 H 0.3514 0.2521 -0.0452
H8 H 0.4037 0.4212 0.0717
H9 H -0.3105 0.2479 0.0455
H10 H -0.3635 0.0771 -0.0734
H11 H 0.2402 0.4957 0.1803
H12 H -0.0507 0.4326 0.1677
H13 H 0.4121 -0.1874 -0.2174
H14 H 0.3094 -0.3501 -0.2787
N1A N -0.0001(4) -0.0651(3) -0.3519(1)
N2A N -0.0833(5) -0.4348(3) -0.1484(1)
Cd1A Cd -0.92340(3) -0.75000(3) -0.75001(1)
Cd1A_2 Cd 0.07660(3) 0.25000(3) 0.24999(1)
H5A H -0.0559 0.0043 -0.3211
H6A H 0.1450 -0.0767 -0.3310
H11A H -0.2402 -0.4957 -0.1803
H12A H 0.0507 -0.4326 -0.1677
O6 O -0.0896(7) -0.7664(5) -0.2812(2)
O7 O -0.5428(6) -0.7333(5) -0.2185(2)
loop_
_geom_bond_atom_site_label_1
_geom_bond_atom_site_label_2
_geom_bond_site_symmetry_1
_geom_bond_site_symmetry_2
Cd1 O1 1_555 1_555
O1 C1 1_555 1_555
O2 Cd1 1_555 1_555
O3 Cd1 1_555 1_555
O4 Cd1 1_555 1_555
O5 Cd1 1_555 1_555
N1 C5 1_555 1_555
N2 C12 1_555 1_555
C1 O2 1_555 1_555
C2 C1 1_555 1_555
C3 C2 1_555 1_555
C4 C3 1_555 1_555
C5 C4 1_555 1_555
C6 C5 1_555 1_555
C7 C2 1_555 1_555
C8 O3 1_555 1_555
C9 C8 1_555 1_555
C10 C9 1_555 1_555
C11 C10 1_555 1_555
C12 C11 1_555 1_555
C13 C12 1_555 1_555
C14 C9 1_555 1_555
H1 C3 1_555 1_555
H2 C4 1_555 1_555
H3 C6 1_555 1_555
H4 C7 1_555 1_555
H5 N1 1_555 1_555
H6 N1 1_555 1_555
H7 C10 1_555 1_555
H8 C11 1_555 1_555
H9 C13 1_555 1_555
H10 C14 1_555 1_555
H11 N2 1_555 1_555
H12 N2 1_555 1_555
H13 O5 1_555 1_555
H14 O5 1_555 1_555
N1A Cd1 1_555 1_555
N2A Cd1 1_555 1_555
Cd1A N1 1_555 1_555
Cd1A_2 N2 1_555 1_555
H5A N1A 1_555 1_555
H6A N1A 1_555 1_555
H11A N2A 1_555 1_555
H12A N2A 1_555 1_555
O4 C8 1_555 1_555
C6 C7 1_555 1_555
C13 C14 1_555 1_555

#END
