
#######################################################################
#
#                 Cambridge Crystallographic Data Centre
#                                CCDC 
#
#######################################################################
#
# If this CIF has been generated from an entry in the Cambridge 
# Structural Database, then it will include bibliographic, chemical, 
# crystal, experimental, refinement or atomic coordinate data resulting 
# from the CCDC's data processing and validation procedures.
#
#######################################################################

data_ABZCUH03
_symmetry_cell_setting           monoclinic
_symmetry_space_group_name_H-M   'P 21/c'
_symmetry_Int_Tables_number      14
_space_group_name_Hall           '-P 2ybc'
loop_
_symmetry_equiv_pos_site_id
_symmetry_equiv_pos_as_xyz
1 x,y,z
2 -x,1/2+y,1/2-z
3 -x,-y,-z
4 x,1/2-y,1/2+z
_cell_length_a                   14.855(15)
_cell_length_b                   6.150(10)
_cell_length_c                   17.756(19)
_cell_angle_alpha                90
_cell_angle_beta                 104.23(4)
_cell_angle_gamma                90
_cell_volume                     1572.38
loop_
_atom_site_label
_atom_site_type_symbol
_atom_site_fract_x
_atom_site_fract_y
_atom_site_fract_z
Cd1 Cd 0.74562(1) 0.07237(5) 0.75976(1)
O1 O 0.8283(2) 0.0182(5) 0.6648(1)
O2 O 0.7957(2) 0.3582(5) 0.6865(1)
O3 O 0.6604(2) 0.0221(5) 0.8554(1)
O4 O 0.6832(2) 0.3599(5) 0.8244(1)
O5 O 0.7757(2) -0.3034(5) 0.7776(2)
N1 N 0.8932(2) 0.4392(5) 0.3552(2)
N2 N 0.6054(2) 0.4807(6) 1.1628(2)
C1 C 0.8867(2) 0.3898(6) 0.4318(2)
C2 C 0.9014(2) 0.1798(7) 0.4597(2)
C3 C 0.8859(2) 0.1275(6) 0.5317(2)
C4 C 0.8550(2) 0.2852(6) 0.5759(2)
C5 C 0.8438(2) 0.4979(7) 0.5486(2)
C6 C 0.8593(3) 0.5499(6) 0.4771(2)
C7 C 0.8263(2) 0.2174(6) 0.6470(2)
C8 C 0.6093(2) 0.4215(6) 1.0859(2)
C9 C 0.6379(2) 0.5739(6) 1.0386(2)
C10 C 0.6500(2) 0.5134(7) 0.9665(2)
C11 C 0.6348(2) 0.2999(6) 0.9413(2)
C12 C 0.6043(2) 0.1489(7) 0.9884(2)
C13 C 0.5920(2) 0.2091(6) 1.0603(2)
C14 C 0.6592(2) 0.2223(6) 0.8689(2)
H1 H 0.9216 0.0735 0.4304
H2 H 0.8961 -0.0139 0.5505
H3 H 0.8259 0.6056 0.5787
H4 H 0.8515 0.6925 0.4593
H5 H 0.6489 0.7169 1.0554
H6 H 0.6683 0.6163 0.9349
H7 H 0.5922 0.0065 0.9712
H8 H 0.5720 0.1073 1.0913
H9 H 0.9062 0.3378 0.3262
H10 H 0.8841 0.5698 0.3377
H11 H 0.5891 0.6217 1.1629
H12 H 0.5603 0.4020 1.1757
H13 H 0.7304 -0.3516 0.7893
H14 H 0.7883 -0.3371 0.7309
Cd1C Cd 0.74562(1) 0.42763(5) 0.25976(1)
Cd1C_2 Cd 0.74562(1) 0.42763(5) 1.25976(1)
N1C N 0.8932(2) 0.0608(5) 0.8552(2)
N2C N 0.6054(2) 0.0193(6) 0.6628(2)
H9C H 0.9062 0.1622 0.8262
H10C H 0.8841 -0.0698 0.8377
H11C H 0.5891 -0.1217 0.6629
H12C H 0.5603 0.0980 0.6757
O6 O 0.4573(2) 0.1980(5) 0.7286(1)
H15 H 0.4213 0.0580 0.7199
H16 H 0.4263 0.3050 0.6999
O7 O 1.0066(2) 0.3178(5) 0.7766(2)
H17 H 0.9804 0.4523 0.7644
H18 H 1.0685 0.3638 0.7975
loop_
_geom_bond_atom_site_label_1
_geom_bond_atom_site_label_2
_geom_bond_site_symmetry_1
_geom_bond_site_symmetry_2
Cd1 O1 1_555 1_555
O1 C7 1_555 1_555
O2 Cd1 1_555 1_555
O3 Cd1 1_555 1_555
O4 Cd1 1_555 1_555
O5 Cd1 1_555 1_555
N1 C1 1_555 1_555
N2 C8 1_555 1_555
C1 C2 1_555 1_555
C2 C3 1_555 1_555
C3 C4 1_555 1_555
C4 C5 1_555 1_555
C5 C6 1_555 1_555
C6 C1 1_555 1_555
C7 O2 1_555 1_555
C8 C9 1_555 1_555
C9 C10 1_555 1_555
C10 C11 1_555 1_555
C11 C12 1_555 1_555
C12 C13 1_555 1_555
C13 C8 1_555 1_555
C14 O3 1_555 1_555
H1 C2 1_555 1_555
H2 C3 1_555 1_555
H3 C5 1_555 1_555
H4 C6 1_555 1_555
H5 C9 1_555 1_555
H6 C10 1_555 1_555
H7 C12 1_555 1_555
H8 C13 1_555 1_555
H9 N1 1_555 1_555
H10 N1 1_555 1_555
H11 N2 1_555 1_555
H12 N2 1_555 1_555
H13 O5 1_555 1_555
H14 O5 1_555 1_555
O6 H15 1_555 1_555
H16 O6 1_555 1_555
O7 H17 1_555 1_555
H18 O7 1_555 1_555
Cd1C N1 1_555 1_555
Cd1C_2 N2 1_555 1_555
N1C Cd1 1_555 1_555
N2C Cd1 1_555 1_555
H9C N1C 1_555 1_555
H10C N1C 1_555 1_555
H11C N2C 1_555 1_555
H12C N2C 1_555 1_555
O4 C14 1_555 1_555
C4 C7 1_555 1_555
C11 C14 1_555 1_555

#END
