
#######################################################################
#
#                 Cambridge Crystallographic Data Centre
#                                CCDC 
#
#######################################################################
#
# If this CIF has been generated from an entry in the Cambridge 
# Structural Database, then it will include bibliographic, chemical, 
# crystal, experimental, refinement or atomic coordinate data resulting 
# from the CCDC's data processing and validation procedures.
#
#######################################################################

data_ACAFIV
_symmetry_cell_setting           monoclinic
_symmetry_space_group_name_H-M   'C 2'
_symmetry_Int_Tables_number      5
_space_group_name_Hall           'C 2y'
loop_
_symmetry_equiv_pos_site_id
_symmetry_equiv_pos_as_xyz
1 x,y,z
2 -x,y,-z
3 1/2+x,1/2+y,z
4 1/2-x,1/2+y,-z
_cell_length_a                   23.97(3)
_cell_length_b                   15.082(16)
_cell_length_c                   13.040(14)
_cell_angle_alpha                90
_cell_angle_beta                 111.702(10)
_cell_angle_gamma                90
_cell_volume                     4380.02
loop_
_atom_site_label
_atom_site_type_symbol
_atom_site_fract_x
_atom_site_fract_y
_atom_site_fract_z
Ag1 Ag 0.70854(6) 0.70843(14) 1.41006(12)
Ag2 Ag 0.73176(7) 0.78983(13) 1.20894(14)
Ag3 Ag 0.5000 0.51167(19) 1.5000
C1 C 0.7566(10) 0.5971(15) 1.1797(18)
H1 H 0.7200 0.6066 1.1190
C2 C 0.7867(9) 0.5120(16) 1.1892(17)
H2 H 0.7702 0.4648 1.1389
C3 C 0.8425(9) 0.5045(15) 1.2786(17)
H3 H 0.8666 0.4532 1.2861
C4 C 0.8597(10) 0.5651(15) 1.3469(18)
H4 H 0.8965 0.5582 1.4078
C5 C 0.8264(10) 0.6448(15) 1.3379(17)
C6 C 0.8462(9) 0.7172(16) 1.4279(17)
H5 H 0.8898 0.7109 1.4707
H6 H 0.8396 0.7761 1.3919
C7 C 0.8299(9) 0.7704(15) 1.5928(18)
H7 H 0.8306 0.8326 1.5669
C8 C 0.8946(9) 0.7455(14) 1.6815(19)
H8 H 0.8928 0.6889 1.7187
H9 H 0.9241 0.7390 1.6451
C9 C 0.9128(9) 0.8213(14) 1.7649(19)
H10 H 0.9541 0.8106 1.8184
H11 H 0.9131 0.8774 1.7258
C10 C 0.8752(9) 0.8296(15) 1.8202(19)
H12 H 0.8879 0.8818 1.8693
H13 H 0.8801 0.7768 1.8678
C11 C 0.8078(9) 0.8398(15) 1.7494(19)
H14 H 0.8004 0.8984 1.7127
H15 H 0.7840 0.8362 1.7972
C12 C 0.7881(9) 0.7656(14) 1.6615(18)
H16 H 0.7902 0.7060 1.6964
C13 C 0.6798(9) 0.7609(14) 1.6390(19)
H17 H 0.6933 0.7072 1.6853
H18 H 0.6765 0.8105 1.6861
C14 C 0.6192(11) 0.7442(16) 1.5430(18)
C15 C 0.5829(10) 0.8145(17) 1.4750(18)
H19 H 0.5937 0.8755 1.4800
C16 C 0.5271(10) 0.7767(17) 1.3971(18)
H20 H 0.4983 0.8167 1.3500
C17 C 0.5141(10) 0.6953(16) 1.3876(17)
H21 H 0.4771 0.6779 1.3324
C18 C 0.6016(11) 0.6560(17) 1.5227(18)
H22 H 0.6286 0.6110 1.5629
C19 C 0.1077(9) 0.0947(13) 1.2531(17)
H23 H 0.1365 0.0513 1.2917
C20 C 0.0522(9) 0.0663(13) 1.1851(17)
H24 H 0.0428 0.0049 1.1772
C21 C 0.0094(9) 0.1299(13) 1.1273(17)
H25 H -0.0299 0.1132 1.0799
C22 C 0.0279(8) 0.2236(13) 1.1429(16)
H26 H 0.0017 0.2697 1.1035
C23 C 0.0842(9) 0.2413(13) 1.2165(18)
C24 C 0.1057(9) 0.3405(15) 1.2303(19)
H27 H 0.0708 0.3811 1.2101
H28 H 0.1322 0.3524 1.3077
C25 C 0.1387(8) 0.4544(15) 1.1391(19)
H29 H 0.1475 0.4866 1.2104
C26 C 0.0809(8) 0.4869(14) 1.0516(18)
H30 H 0.0739 0.4545 0.9819
H31 H 0.0470 0.4742 1.0752
C27 C 0.0832(8) 0.5830(14) 1.0320(19)
H32 H 0.0899 0.6157 1.1015
H33 H 0.0444 0.6026 0.9765
C28 C 0.1323(8) 0.6036(15) 0.9921(19)
H34 H 0.1248 0.5719 0.9218
H35 H 0.1322 0.6680 0.9773
C29 C 0.1908(8) 0.5786(14) 1.0708(19)
H36 H 0.1989 0.6090 1.1422
H37 H 0.2226 0.5950 1.0429
C30 C 0.1891(8) 0.4766(14) 1.0853(19)
H38 H 0.1769 0.4477 1.0112
C31 C 0.2987(8) 0.4396(15) 1.1168(18)
H39 H 0.2864 0.4072 1.0459
H40 H 0.3066 0.5020 1.1030
C32 C 0.3521(10) 0.4009(16) 1.194(2)
C33 C 0.3714(9) 0.3211(15) 1.188(2)
H41 H 0.3483 0.2860 1.1259
C34 C 0.4219(9) 0.2838(18) 1.2616(18)
H42 H 0.4313 0.2228 1.2599
C35 C 0.4586(10) 0.3425(15) 1.340(2)
H43 H 0.4967 0.3218 1.3886
C36 C 0.3912(9) 0.4556(16) 1.2682(19)
H44 H 0.3830 0.5174 1.2648
N1 N 0.7774(8) 0.6597(12) 1.2499(14)
N2 N 0.8143(7) 0.7131(14) 1.5031(14)
H45 H 0.8237 0.6573 1.5351
N3 N 0.7250(7) 0.7849(14) 1.5789(14)
H46 H 0.7221 0.8455 1.5643
N4 N 0.5491(9) 0.6326(13) 1.4502(15)
N5 N 0.1237(7) 0.1803(10) 1.2687(14)
N6 N 0.1387(7) 0.3530(12) 1.1553(15)
H47 H 0.1154 0.3282 1.0876
N7 N 0.2481(7) 0.4363(12) 1.1615(15)
H48 H 0.2608 0.4693 1.2264
N8 N 0.4439(8) 0.4230(13) 1.3509(16)
Ag1A Ag 0.29146(6) 0.70843(14) 1.58994(12)
Ag1B Ag 0.20854(6) 0.20843(14) 1.41006(12)
Ag1C Ag 0.79146(6) 0.20843(14) 1.58994(12)
Ag2A Ag 0.26824(7) 0.78983(13) 1.79106(14)
Ag2B Ag 0.23176(7) 0.28983(13) 1.20894(14)
Ag2C Ag 0.76824(7) 0.28983(13) 1.79106(14)
C1A C 0.2434(10) 0.5971(15) 1.8203(18)
H1A H 0.2800 0.6066 1.8810
C2A C 0.2133(9) 0.5120(16) 1.8108(17)
H2A H 0.2298 0.4648 1.8611
C3A C 0.1575(9) 0.5045(15) 1.7214(17)
H3A H 0.1334 0.4532 1.7139
C4A C 0.1403(10) 0.5651(15) 1.6531(18)
H4A H 0.1035 0.5582 1.5922
C5A C 0.1736(10) 0.6448(15) 1.6621(17)
C6A C 0.1538(9) 0.7172(16) 1.5721(17)
H5A H 0.1102 0.7109 1.5293
H6A H 0.1604 0.7761 1.6081
C7A C 0.1701(9) 0.7704(15) 1.4072(18)
H7A H 0.1694 0.8326 1.4331
C8A C 0.1054(9) 0.7455(14) 1.3185(19)
H8A H 0.1072 0.6889 1.2813
H9A H 0.0759 0.7390 1.3549
C9A C 0.0872(9) 0.8213(14) 1.2351(19)
H10A H 0.0459 0.8106 1.1816
H11A H 0.0869 0.8774 1.2742
C10A C 0.1248(9) 0.8296(15) 1.1798(19)
H12A H 0.1121 0.8818 1.1307
H13A H 0.1199 0.7768 1.1322
C11A C 0.1922(9) 0.8398(15) 1.2506(19)
H14A H 0.1996 0.8984 1.2873
H15A H 0.2160 0.8362 1.2028
C12A C 0.2119(9) 0.7656(14) 1.3385(18)
H16A H 0.2098 0.7060 1.3036
C13A C 0.3202(9) 0.7609(14) 1.3610(19)
H17A H 0.3067 0.7072 1.3147
H18A H 0.3235 0.8105 1.3139
C14A C 0.3808(11) 0.7442(16) 1.4570(18)
C15A C 0.4171(10) 0.8145(17) 1.5250(18)
H19A H 0.4063 0.8755 1.5200
C16A C 0.4729(10) 0.7767(17) 1.6029(18)
H20A H 0.5017 0.8167 1.6500
C17A C 0.4859(10) 0.6953(16) 1.6124(17)
H21A H 0.5229 0.6779 1.6676
C18A C 0.3984(11) 0.6560(17) 1.4773(18)
H22A H 0.3714 0.6110 1.4371
C19A C 0.8923(9) 0.0947(13) 1.7469(17)
H23A H 0.8635 0.0513 1.7083
C20A C 0.9478(9) 0.0663(13) 1.8149(17)
H24A H 0.9572 0.0049 1.8228
C21A C 0.9906(9) 0.1299(13) 1.8727(17)
H25A H 1.0299 0.1132 1.9201
C22A C 0.9721(8) 0.2236(13) 1.8571(16)
H26A H 0.9983 0.2697 1.8965
C23A C 0.9158(9) 0.2413(13) 1.7835(18)
C24A C 0.8943(9) 0.3405(15) 1.7697(19)
H27A H 0.9292 0.3811 1.7899
H28A H 0.8678 0.3524 1.6923
C25A C 0.8613(8) 0.4544(15) 1.8609(19)
H29A H 0.8525 0.4866 1.7896
C26A C 0.9191(8) 0.4869(14) 1.9484(18)
H30A H 0.9261 0.4545 2.0181
H31A H 0.9530 0.4742 1.9248
C27A C 0.9168(8) 0.5830(14) 1.9680(19)
H32A H 0.9101 0.6157 1.8985
H33A H 0.9556 0.6026 2.0235
C28A C 0.8677(8) 0.6036(15) 2.0079(19)
H34A H 0.8752 0.5719 2.0782
H35A H 0.8678 0.6680 2.0227
C29A C 0.8092(8) 0.5786(14) 1.9292(19)
H36A H 0.8011 0.6090 1.8578
H37A H 0.7774 0.5950 1.9571
C30A C 0.8109(8) 0.4766(14) 1.9147(19)
H38A H 0.8231 0.4477 1.9888
C31A C 0.7013(8) 0.4396(15) 1.8832(18)
H39A H 0.7136 0.4072 1.9541
H40A H 0.6934 0.5020 1.8970
C32A C 0.6479(10) 0.4009(16) 1.806(2)
C33A C 0.6286(9) 0.3211(15) 1.812(2)
H41A H 0.6517 0.2860 1.8741
C34A C 0.5781(9) 0.2838(18) 1.7384(18)
H42A H 0.5687 0.2228 1.7401
C35A C 0.5414(10) 0.3425(15) 1.660(2)
H43A H 0.5033 0.3218 1.6114
C36A C 0.6088(9) 0.4556(16) 1.7318(19)
H44A H 0.6170 0.5174 1.7352
N1A N 0.2226(8) 0.6597(12) 1.7501(14)
N2A N 0.1857(7) 0.7131(14) 1.4969(14)
H45A H 0.1763 0.6573 1.4649
N3A N 0.2750(7) 0.7849(14) 1.4211(14)
H46A H 0.2779 0.8455 1.4357
N4A N 0.4509(9) 0.6326(13) 1.5498(15)
N5A N 0.8763(7) 0.1803(10) 1.7313(14)
N5B N 0.6237(7) 0.6803(10) 1.2687(14)
N5C N 0.3763(7) 0.6803(10) 1.7313(14)
N6A N 0.8613(7) 0.3530(12) 1.8447(15)
N6B N 0.6387(7) 0.8530(12) 1.1553(15)
N6C N 0.3613(7) 0.8530(12) 1.8447(15)
H47A H 0.8846 0.3282 1.9124
H47B H 0.6154 0.8282 1.0876
H47C H 0.3846 0.8282 1.9124
N7A N 0.7519(7) 0.4363(12) 1.8385(15)
N7B N 0.7481(7) 0.9363(12) 1.1615(15)
N7C N 0.2519(7) 0.9363(12) 1.8385(15)
H48A H 0.7392 0.4693 1.7736
H48B H 0.7608 0.9693 1.2264
H48C H 0.2392 0.9693 1.7736
N8A N 0.5561(8) 0.4230(13) 1.6491(16)
B1 B 0.6525(6) 0.7373(9) 0.9005(11)
F1 F 0.6470(7) 0.6683(9) 0.8299(11)
F2 F 0.6202(6) 0.8090(8) 0.8452(11)
F3 F 0.6332(6) 0.7097(11) 0.9811(10)
F4 F 0.7112(5) 0.7639(9) 0.9451(12)
B2 B 0.5355(11) 1.0696(18) 1.350(3)
F5 F 0.5259(14) 1.1532(18) 1.378(3)
F6 F 0.5054(13) 1.014(2) 1.392(3)
F7 F 0.5142(15) 1.063(3) 1.238(3)
F8 F 0.5951(10) 1.051(2) 1.392(3)
B3 B 0.7593(7) 0.4965(8) 1.5654(10)
F9 F 0.7526(8) 0.4108(7) 1.5920(13)
F10 F 0.7412(8) 0.5524(9) 1.6285(12)
F11 F 0.7275(8) 0.5118(10) 1.4567(9)
F12 F 0.8193(6) 0.5101(11) 1.5869(13)
loop_
_geom_bond_atom_site_label_1
_geom_bond_atom_site_label_2
_geom_bond_site_symmetry_1
_geom_bond_site_symmetry_2
Ag1 N2 1_555 1_555
Ag2 N1 1_555 1_555
Ag3 N4 1_555 1_555
C1 H1 1_555 1_555
C2 C1 1_555 1_555
H2 C2 1_555 1_555
C3 C2 1_555 1_555
H3 C3 1_555 1_555
C4 C3 1_555 1_555
H4 C4 1_555 1_555
C5 C4 1_555 1_555
C6 C5 1_555 1_555
H5 C6 1_555 1_555
H6 C6 1_555 1_555
C7 H7 1_555 1_555
C8 C7 1_555 1_555
H8 C8 1_555 1_555
H9 C8 1_555 1_555
C9 C8 1_555 1_555
H10 C9 1_555 1_555
H11 C9 1_555 1_555
C10 C9 1_555 1_555
H12 C10 1_555 1_555
H13 C10 1_555 1_555
C11 C10 1_555 1_555
H14 C11 1_555 1_555
H15 C11 1_555 1_555
C12 C7 1_555 1_555
H16 C12 1_555 1_555
C13 H17 1_555 1_555
H18 C13 1_555 1_555
C14 C13 1_555 1_555
C15 C14 1_555 1_555
H19 C15 1_555 1_555
C16 C15 1_555 1_555
H20 C16 1_555 1_555
C17 C16 1_555 1_555
H21 C17 1_555 1_555
C18 C14 1_555 1_555
H22 C18 1_555 1_555
C19 H23 1_555 1_555
C20 C19 1_555 1_555
H24 C20 1_555 1_555
C21 C20 1_555 1_555
H25 C21 1_555 1_555
C22 C21 1_555 1_555
H26 C22 1_555 1_555
C23 C22 1_555 1_555
C24 C23 1_555 1_555
H27 C24 1_555 1_555
H28 C24 1_555 1_555
C25 H29 1_555 1_555
C26 C25 1_555 1_555
H30 C26 1_555 1_555
H31 C26 1_555 1_555
C27 C26 1_555 1_555
H32 C27 1_555 1_555
H33 C27 1_555 1_555
C28 C27 1_555 1_555
H34 C28 1_555 1_555
H35 C28 1_555 1_555
C29 C28 1_555 1_555
H36 C29 1_555 1_555
H37 C29 1_555 1_555
C30 C25 1_555 1_555
H38 C30 1_555 1_555
C31 H39 1_555 1_555
H40 C31 1_555 1_555
C32 C31 1_555 1_555
C33 C32 1_555 1_555
H41 C33 1_555 1_555
C34 C33 1_555 1_555
H42 C34 1_555 1_555
C35 C34 1_555 1_555
H43 C35 1_555 1_555
C36 C32 1_555 1_555
H44 C36 1_555 1_555
N1 C1 1_555 1_555
N2 C6 1_555 1_555
H45 N2 1_555 1_555
N3 Ag1 1_555 1_555
H46 N3 1_555 1_555
N4 C17 1_555 1_555
N5 C19 1_555 1_555
N6 C24 1_555 1_555
H47 N6 1_555 1_555
N7 C30 1_555 1_555
H48 N7 1_555 1_555
N8 Ag3 1_555 1_555
B1 F1 1_555 1_555
F2 B1 1_555 1_555
F3 B1 1_555 1_555
F4 B1 1_555 1_555
B2 F5 1_555 1_555
F6 B2 1_555 1_555
F7 B2 1_555 1_555
F8 B2 1_555 1_555
B3 F9 1_555 1_555
F10 B3 1_555 1_555
F11 B3 1_555 1_555
F12 B3 1_555 1_555
Ag1A N2A 1_555 1_555
Ag1B N5 1_555 1_555
Ag1C N5A 1_555 1_555
Ag2A N1A 1_555 1_555
Ag2B N6 1_555 1_555
Ag2C N6A 1_555 1_555
C1A H1A 1_555 1_555
C2A C1A 1_555 1_555
H2A C2A 1_555 1_555
C3A C2A 1_555 1_555
H3A C3A 1_555 1_555
C4A C3A 1_555 1_555
H4A C4A 1_555 1_555
C5A C4A 1_555 1_555
C6A C5A 1_555 1_555
H5A C6A 1_555 1_555
H6A C6A 1_555 1_555
C7A H7A 1_555 1_555
C8A C7A 1_555 1_555
H8A C8A 1_555 1_555
H9A C8A 1_555 1_555
C9A C8A 1_555 1_555
H10A C9A 1_555 1_555
H11A C9A 1_555 1_555
C10A C9A 1_555 1_555
H12A C10A 1_555 1_555
H13A C10A 1_555 1_555
C11A C10A 1_555 1_555
H14A C11A 1_555 1_555
H15A C11A 1_555 1_555
C12A C7A 1_555 1_555
H16A C12A 1_555 1_555
C13A H17A 1_555 1_555
H18A C13A 1_555 1_555
C14A C13A 1_555 1_555
C15A C14A 1_555 1_555
H19A C15A 1_555 1_555
C16A C15A 1_555 1_555
H20A C16A 1_555 1_555
C17A C16A 1_555 1_555
H21A C17A 1_555 1_555
C18A C14A 1_555 1_555
H22A C18A 1_555 1_555
C19A H23A 1_555 1_555
C20A C19A 1_555 1_555
H24A C20A 1_555 1_555
C21A C20A 1_555 1_555
H25A C21A 1_555 1_555
C22A C21A 1_555 1_555
H26A C22A 1_555 1_555
C23A C22A 1_555 1_555
C24A C23A 1_555 1_555
H27A C24A 1_555 1_555
H28A C24A 1_555 1_555
C25A H29A 1_555 1_555
C26A C25A 1_555 1_555
H30A C26A 1_555 1_555
H31A C26A 1_555 1_555
C27A C26A 1_555 1_555
H32A C27A 1_555 1_555
H33A C27A 1_555 1_555
C28A C27A 1_555 1_555
H34A C28A 1_555 1_555
H35A C28A 1_555 1_555
C29A C28A 1_555 1_555
H36A C29A 1_555 1_555
H37A C29A 1_555 1_555
C30A C25A 1_555 1_555
H38A C30A 1_555 1_555
C31A H39A 1_555 1_555
H40A C31A 1_555 1_555
C32A C31A 1_555 1_555
C33A C32A 1_555 1_555
H41A C33A 1_555 1_555
C34A C33A 1_555 1_555
H42A C34A 1_555 1_555
C35A C34A 1_555 1_555
H43A C35A 1_555 1_555
C36A C32A 1_555 1_555
H44A C36A 1_555 1_555
N1A C1A 1_555 1_555
N2A C6A 1_555 1_555
H45A N2A 1_555 1_555
N3A Ag1A 1_555 1_555
H46A N3A 1_555 1_555
N4A Ag3 1_555 1_555
N5A C19A 1_555 1_555
N5B Ag1 1_555 1_555
N5C Ag1A 1_555 1_555
N6A C24A 1_555 1_555
N6B Ag2 1_555 1_555
N6C Ag2A 1_555 1_555
H47A N6A 1_555 1_555
H47B N6B 1_555 1_555
H47C N6C 1_555 1_555
N7A Ag2C 1_555 1_555
N7B Ag2 1_555 1_555
N7C Ag2A 1_555 1_555
H48A N7A 1_555 1_555
H48B N7B 1_555 1_555
H48C N7C 1_555 1_555
N8A Ag3 1_555 1_555
C5 N1 1_555 1_555
C7 N2 1_555 1_555
C11 C12 1_555 1_555
C12 N3 1_555 1_555
C13 N3 1_555 1_555
C18 N4 1_555 1_555
C23 N5 1_555 1_555
C25 N6 1_555 1_555
C29 C30 1_555 1_555
C31 N7 1_555 1_555
C35 N8 1_555 1_555
C36 N8 1_555 1_555
N7 Ag2B 1_555 1_555
C5A N1A 1_555 1_555
C7A N2A 1_555 1_555
C11A C12A 1_555 1_555
C12A N3A 1_555 1_555
C13A N3A 1_555 1_555
C17A N4A 1_555 1_555
C18A N4A 1_555 1_555
C23A N5A 1_555 1_555
C25A N6A 1_555 1_555
C29A C30A 1_555 1_555
C30A N7A 1_555 1_555
C31A N7A 1_555 1_555
C35A N8A 1_555 1_555
C36A N8A 1_555 1_555

#END
