
#######################################################################
#
#                 Cambridge Crystallographic Data Centre
#                                CCDC 
#
#######################################################################
#
# If this CIF has been generated from an entry in the Cambridge 
# Structural Database, then it will include bibliographic, chemical, 
# crystal, experimental, refinement or atomic coordinate data resulting 
# from the CCDC's data processing and validation procedures.
#
#######################################################################

data_ACAFER
_symmetry_cell_setting           monoclinic
_symmetry_space_group_name_H-M   'P 21'
_symmetry_Int_Tables_number      4
_space_group_name_Hall           'P 2yb'
loop_
_symmetry_equiv_pos_site_id
_symmetry_equiv_pos_as_xyz
1 x,y,z
2 -x,1/2+y,-z
_cell_length_a                   13.6526(14)
_cell_length_b                   17.5146(17)
_cell_length_c                   19.2169(19)
_cell_angle_alpha                90
_cell_angle_beta                 93.6670(10)
_cell_angle_gamma                90
_cell_volume                     4585.73
loop_
_atom_site_label
_atom_site_type_symbol
_atom_site_fract_x
_atom_site_fract_y
_atom_site_fract_z
Ag1 Ag -0.03575(5) 0.92256(4) 1.04563(4)
Ag2 Ag -0.06651(5) 1.09949(4) 1.03561(4)
Ag3 Ag -0.48770(5) 0.98054(4) 0.57472(4)
Ag4 Ag -0.59487(5) 0.83268(4) 0.55586(4)
Ag5 Ag -0.18941(5) 0.79758(5) 0.82181(4)
B4 B -0.4290(6) 1.1548(6) 0.5236(5)
F13 F -0.4536(14) 1.2089(8) 0.5673(8)
F14 F -0.3649(8) 1.1838(11) 0.4837(7)
F15 F -0.3852(12) 1.0934(9) 0.5530(10)
F16 F -0.5098(6) 1.1302(5) 0.4910(5)
C1 C 0.1276(8) 1.1004(7) 0.9677(7)
H1 H 0.0865 1.1234 0.9318
C2 C 0.2257(10) 1.0823(7) 0.9564(8)
H2 H 0.2505 1.0890 0.9117
C3 C 0.2850(10) 1.0547(10) 1.0110(11)
H3 H 0.3525 1.0455 1.0051
C4 C 0.2466(9) 1.0404(9) 1.0744(10)
H4 H 0.2877 1.0214 1.1123
C5 C 0.1486(7) 1.0536(7) 1.0828(6)
C6 C 0.1037(8) 1.0366(7) 1.1495(6)
H5 H 0.0518 1.0746 1.1572
H6 H 0.1543 1.0405 1.1886
C7 C 0.0049(7) 0.9401(6) 1.2085(5)
H7 H -0.0462 0.9806 1.2123
C8 C 0.0677(9) 0.9390(9) 1.2764(6)
H8 H 0.0998 0.9894 1.2834
H9 H 0.1199 0.9002 1.2733
C9 C 0.0069(13) 0.9208(13) 1.3409(7)
H10 H 0.0500 0.9209 1.3843
H11 H -0.0455 0.9593 1.3453
C10 C -0.0383(11) 0.8403(10) 1.3273(7)
H12 H 0.0146 0.8025 1.3221
H13 H -0.0759 0.8247 1.3674
C11 C -0.1055(8) 0.8424(7) 1.2616(5)
H14 H -0.1580 0.8805 1.2670
H15 H -0.1369 0.7918 1.2541
C12 C -0.0482(7) 0.8631(6) 1.1978(5)
H16 H 0.0019 0.8225 1.1912
C13 C -0.1613(8) 0.7933(6) 1.1135(5)
H17 H -0.1978 0.7738 1.1527
H18 H -0.1100 0.7557 1.1035
C14 C -0.2306(7) 0.8041(5) 1.0498(5)
C15 C -0.3232(8) 0.8263(7) 1.0538(6)
H19 H -0.3479 0.8346 1.0982
C16 C -0.3850(8) 0.8378(7) 0.9935(6)
H20 H -0.4508 0.8544 0.9967
C17 C -0.3478(7) 0.8245(6) 0.9291(6)
H21 H -0.3887 0.8326 0.8879
C18 C -0.1974(7) 0.7905(6) 0.9842(5)
H22 H -0.1316 0.7738 0.9811
C19 C 0.0761(7) 0.9271(6) 0.9114(6)
H23 H 0.1256 0.9055 0.9425
C20 C 0.0990(9) 0.9430(7) 0.8464(7)
H24 H 0.1620 0.9308 0.8314
C21 C 0.0280(9) 0.9782(8) 0.8006(6)
H25 H 0.0417 0.9908 0.7542
C22 C -0.0595(8) 0.9933(7) 0.8252(5)
H26 H -0.1079 1.0180 0.7954
C23 C -0.0824(7) 0.9749(6) 0.8914(5)
C24 C -0.1837(6) 0.9876(5) 0.9161(5)
H27 H -0.2326 0.9835 0.8760
H28 H -0.1983 0.9474 0.9502
C25 C -0.2888(6) 1.0732(5) 0.9772(5)
H29 H -0.3008 1.0284 1.0077
C26 C -0.3734(6) 1.0773(7) 0.9222(5)
H30 H -0.3613 1.1197 0.8898
H31 H -0.3756 1.0293 0.8950
C27 C -0.4683(7) 1.0890(9) 0.9515(6)
H32 H -0.4847 1.0434 0.9789
H33 H -0.5195 1.0947 0.9130
C28 C -0.4689(7) 1.1566(8) 0.9965(6)
H34 H -0.5327 1.1592 1.0181
H35 H -0.4631 1.2028 0.9673
C29 C -0.3876(6) 1.1571(6) 1.0532(5)
H36 H -0.3992 1.1160 1.0870
H37 H -0.3880 1.2064 1.0783
C30 C -0.2875(6) 1.1454(6) 1.0238(5)
H38 H -0.2726 1.1907 0.9946
C31 C -0.1963(7) 1.2062(6) 1.1249(5)
H39 H -0.2562 1.2139 1.1504
H40 H -0.1878 1.2515 1.0950
C32 C -0.1095(7) 1.1986(5) 1.1757(5)
C33 C -0.1123(7) 1.1546(6) 1.2359(5)
H41 H -0.1697 1.1266 1.2451
C34 C -0.0297(8) 1.1522(7) 1.2826(5)
H42 H -0.0299 1.1236 1.3245
C35 C 0.0517(7) 1.1924(6) 1.2660(5)
H43 H 0.1081 1.1908 1.2976
C36 C -0.0208(7) 1.2364(6) 1.1641(5)
H44 H -0.0169 1.2653 1.1226
C37 C -0.6215(10) 0.8766(8) 0.4047(6)
H45 H -0.5826 0.8318 0.4026
C38 C -0.6450(11) 0.9157(10) 0.3428(6)
H46 H -0.6269 0.8966 0.2991
C39 C -0.6957(10) 0.9830(10) 0.3478(7)
H47 H -0.7103 1.0128 0.3072
C40 C -0.7248(8) 1.0073(7) 0.4098(6)
H48 H -0.7607 1.0535 0.4137
C41 C -0.7001(7) 0.9616(6) 0.4685(6)
C42 C -0.7281(7) 0.9878(7) 0.5409(5)
H49 H -0.7872 1.0206 0.5359
H50 H -0.7440 0.9426 0.5691
C43 C -0.6680(7) 1.0481(6) 0.6499(5)
H51 H -0.6807 0.9988 0.6739
C44 C -0.7568(8) 1.0978(7) 0.6558(6)
H52 H -0.8158 1.0702 0.6368
H53 H -0.7497 1.1445 0.6275
C45 C -0.7709(11) 1.1209(10) 0.7322(7)
H54 H -0.8285 1.1550 0.7336
H55 H -0.7840 1.0746 0.7597
C46 C -0.6840(12) 1.1598(9) 0.7632(7)
H56 H -0.6943 1.1722 0.8125
H57 H -0.6744 1.2083 0.7381
C47 C -0.5901(10) 1.1093(8) 0.7598(5)
H58 H -0.5318 1.1392 0.7767
H59 H -0.5954 1.0645 0.7908
C48 C -0.5770(8) 1.0817(7) 0.6842(5)
H60 H -0.5581 1.1268 0.6561
C49 C -0.3986(8) 1.0552(6) 0.7143(6)
H61 H -0.4026 1.0644 0.7649
H62 H -0.3853 1.1046 0.6918
C50 C -0.3153(8) 1.0005(6) 0.7031(6)
C51 C -0.2495(8) 1.0119(8) 0.6512(6)
H63 H -0.2563 1.0542 0.6203
C52 C -0.1756(8) 0.9605(8) 0.6464(6)
H64 H -0.1283 0.9687 0.6130
C53 C -0.1674(7) 0.8979(7) 0.6880(5)
H65 H -0.1160 0.8625 0.6815
C54 C -0.3036(7) 0.9356(6) 0.7448(5)
H66 H -0.3489 0.9265 0.7793
C55 C -0.4159(8) 0.9637(7) 0.4302(5)
H67 H -0.4480 1.0117 0.4258
C56 C -0.3782(10) 0.9324(8) 0.3739(6)
H68 H -0.3858 0.9570 0.3298
C57 C -0.3272(11) 0.8625(9) 0.3810(7)
H69 H -0.2967 0.8412 0.3425
C58 C -0.3221(8) 0.8260(8) 0.4434(5)
H70 H -0.2925 0.7771 0.4486
C59 C -0.3614(7) 0.8620(6) 0.4994(5)
C60 C -0.3506(7) 0.8271(7) 0.5710(5)
H71 H -0.2910 0.7948 0.5748
H72 H -0.3423 0.8682 0.6063
C61 C -0.4345(6) 0.7557(6) 0.6604(5)
H73 H -0.4243 0.8019 0.6906
C62 C -0.3509(6) 0.6997(6) 0.6771(5)
H74 H -0.2875 0.7250 0.6698
H75 H -0.3577 0.6556 0.6449
C63 C -0.3506(7) 0.6707(6) 0.7535(5)
H76 H -0.2979 0.6323 0.7616
H77 H -0.3361 0.7140 0.7857
C64 C -0.4471(7) 0.6358(7) 0.7691(6)
H78 H -0.4574 0.5883 0.7417
H79 H -0.4462 0.6224 0.8192
C65 C -0.5294(8) 0.6897(6) 0.7515(5)
H80 H -0.5230 0.7341 0.7834
H81 H -0.5921 0.6639 0.7597
C66 C -0.5333(6) 0.7191(6) 0.6750(5)
H82 H -0.5446 0.6745 0.6430
C67 C -0.7134(7) 0.7397(7) 0.6648(6)
H83 H -0.7261 0.7316 0.7144
H84 H -0.7132 0.6891 0.6419
C68 C -0.7942(7) 0.7868(7) 0.6312(7)
C69 C -0.8250(8) 0.7797(7) 0.5643(7)
H85 H -0.7960 0.7430 0.5355
C70 C -0.9000(9) 0.8266(9) 0.5373(8)
H86 H -0.9238 0.8216 0.4899
C71 C -0.9394(9) 0.8797(9) 0.5790(9)
H87 H -0.9894 0.9124 0.5594
C72 C -0.8397(8) 0.8421(8) 0.6696(7)
H88 H -0.8183 0.8479 0.7174
N1 N 0.0911(5) 1.0839(4) 1.0330(4)
N2 N 0.0603(6) 0.9578(5) 1.1477(4)
H92 H 0.1135 0.9246 1.1502
N3 N -0.1151(5) 0.8682(5) 1.1328(4)
H93 H -0.1530 0.8996 1.1566
N4 N -0.2545(5) 0.8000(5) 0.9237(4)
N5 N -0.0146(5) 0.9402(4) 0.9359(4)
N6 N -0.1921(5) 1.0620(4) 0.9484(4)
H94 H -0.1933 1.1031 0.9203
N7 N -0.2078(5) 1.1375(4) 1.0810(4)
H95 H -0.2447 1.1168 1.1133
N8 N 0.0562(6) 1.2335(5) 1.2081(4)
N9 N -0.6490(6) 0.8974(5) 0.4642(5)
N10 N -0.6484(6) 1.0299(5) 0.5764(4)
H96 H -0.6399 1.0759 0.5568
N11 N -0.4939(6) 1.0245(5) 0.6848(4)
H97 H -0.5114 0.9850 0.7113
N12 N -0.2288(5) 0.8844(5) 0.7375(4)
N13 N -0.4093(5) 0.9293(5) 0.4915(4)
H98 H -0.3526 0.9563 0.5050
N14 N -0.4381(5) 0.7797(4) 0.5859(4)
H99 H -0.4346 0.7445 0.5521
N15 N -0.6151(5) 0.7756(5) 0.6606(4)
N16 N -0.9116(8) 0.8874(8) 0.6437(7)
Ag5A Ag 0.18941(5) 1.29758(5) 1.17819(4)
N8A N -0.0562(6) 0.7335(5) 0.7919(4)
B1 B -0.3218(10) 0.9814(9) 1.1909(7)
F1 F -0.4178(12) 0.9959(8) 1.1543(12)
F2 F -0.3243(10) 1.0364(6) 1.2348(6)
F3 F -0.2555(6) 0.9929(4) 1.1457(5)
F4 F -0.3327(6) 0.9114(4) 1.2094(4)
B2 B 0.1299(9) 1.1857(9) 1.4699(8)
F5 F 0.0922(6) 1.2092(6) 1.5308(4)
F6 F 0.1237(5) 1.2431(4) 1.4207(3)
F7 F 0.0798(6) 1.1227(5) 1.4425(5)
F8 F 0.2279(4) 1.1671(4) 1.4840(4)
B3 B 0.5978(9) 1.3955(7) 1.1659(8)
F9 F 0.6450(10) 1.4550(7) 1.1377(7)
F10 F 0.5209(8) 1.4069(7) 1.1997(9)
F11 F 0.5889(10) 1.3353(8) 1.1249(7)
F12 F 0.6630(12) 1.3747(11) 1.2112(8)
C73 C -0.1653(15) 1.0507(14) 1.4698(14)
H89 H -0.2108 1.0149 1.4901
H90 H -0.1421 1.0289 1.4269
H91 H -0.1991 1.0990 1.4592
O4 O -0.0827(13) 1.0641(16) 1.5190(16)
H100 H -0.0346 1.0834 1.4992
N17 N -0.0902(8) 1.2588(8) 0.9358(6)
O1 O -0.1403(9) 1.3133(7) 0.9241(8)
O2 O -0.0443(7) 1.2537(8) 0.9914(6)
O3 O -0.0889(9) 1.2067(6) 0.8946(6)
O5 O -0.0484(19) 1.1402(14) 1.6144(13)
H101 H -0.0759 1.1177 1.5792
H102 H -0.0084 1.1679 1.5934
O6 O -0.2120(16) 1.2156(11) 1.6484(10)
H103 H -0.1965 1.1982 1.6093
H104 H -0.1925 1.2309 1.6889
O7 O -0.2308(16) 1.195(4) 1.7933(13)
H105 H -0.1948 1.1683 1.8215
H106 H -0.2896 1.1998 1.8048
loop_
_geom_bond_atom_site_label_1
_geom_bond_atom_site_label_2
_geom_bond_site_symmetry_1
_geom_bond_site_symmetry_2
Ag1 N2 1_555 1_555
Ag2 N1 1_555 1_555
Ag3 F15 1_555 1_555
Ag4 N9 1_555 1_555
Ag5 N4 1_555 1_555
B1 F1 1_555 1_555
B2 F5 1_555 1_555
B3 F9 1_555 1_555
B4 F13 1_555 1_555
F2 B1 1_555 1_555
F3 B1 1_555 1_555
F4 B1 1_555 1_555
F6 B2 1_555 1_555
F7 B2 1_555 1_555
F8 B2 1_555 1_555
F10 B3 1_555 1_555
F11 B3 1_555 1_555
F12 B3 1_555 1_555
F14 B4 1_555 1_555
F15 B4 1_555 1_555
F16 B4 1_555 1_555
C1 H1 1_555 1_555
C2 C1 1_555 1_555
H2 C2 1_555 1_555
C3 C2 1_555 1_555
H3 C3 1_555 1_555
C4 C3 1_555 1_555
H4 C4 1_555 1_555
C5 C4 1_555 1_555
C6 C5 1_555 1_555
H5 C6 1_555 1_555
H6 C6 1_555 1_555
C7 H7 1_555 1_555
C8 C7 1_555 1_555
H8 C8 1_555 1_555
H9 C8 1_555 1_555
C9 C8 1_555 1_555
H10 C9 1_555 1_555
H11 C9 1_555 1_555
C10 C9 1_555 1_555
H12 C10 1_555 1_555
H13 C10 1_555 1_555
C11 C10 1_555 1_555
H14 C11 1_555 1_555
H15 C11 1_555 1_555
C12 C7 1_555 1_555
H16 C12 1_555 1_555
C13 H17 1_555 1_555
H18 C13 1_555 1_555
C14 C13 1_555 1_555
C15 C14 1_555 1_555
H19 C15 1_555 1_555
C16 C15 1_555 1_555
H20 C16 1_555 1_555
C17 C16 1_555 1_555
H21 C17 1_555 1_555
C18 C14 1_555 1_555
H22 C18 1_555 1_555
C19 H23 1_555 1_555
C20 C19 1_555 1_555
H24 C20 1_555 1_555
C21 C20 1_555 1_555
H25 C21 1_555 1_555
C22 C21 1_555 1_555
H26 C22 1_555 1_555
C23 C22 1_555 1_555
C24 C23 1_555 1_555
H27 C24 1_555 1_555
H28 C24 1_555 1_555
C25 H29 1_555 1_555
C26 C25 1_555 1_555
H30 C26 1_555 1_555
H31 C26 1_555 1_555
C27 C26 1_555 1_555
H32 C27 1_555 1_555
H33 C27 1_555 1_555
C28 C27 1_555 1_555
H34 C28 1_555 1_555
H35 C28 1_555 1_555
C29 C28 1_555 1_555
H36 C29 1_555 1_555
H37 C29 1_555 1_555
C30 C25 1_555 1_555
H38 C30 1_555 1_555
C31 H39 1_555 1_555
H40 C31 1_555 1_555
C32 C31 1_555 1_555
C33 C32 1_555 1_555
H41 C33 1_555 1_555
C34 C33 1_555 1_555
H42 C34 1_555 1_555
C35 C34 1_555 1_555
H43 C35 1_555 1_555
C36 C32 1_555 1_555
H44 C36 1_555 1_555
C37 H45 1_555 1_555
C38 C37 1_555 1_555
H46 C38 1_555 1_555
C39 C38 1_555 1_555
H47 C39 1_555 1_555
C40 C39 1_555 1_555
H48 C40 1_555 1_555
C41 C40 1_555 1_555
C42 C41 1_555 1_555
H49 C42 1_555 1_555
H50 C42 1_555 1_555
C43 H51 1_555 1_555
C44 C43 1_555 1_555
H52 C44 1_555 1_555
H53 C44 1_555 1_555
C45 C44 1_555 1_555
H54 C45 1_555 1_555
H55 C45 1_555 1_555
C46 C45 1_555 1_555
H56 C46 1_555 1_555
H57 C46 1_555 1_555
C47 C46 1_555 1_555
H58 C47 1_555 1_555
H59 C47 1_555 1_555
C48 C43 1_555 1_555
H60 C48 1_555 1_555
C49 H61 1_555 1_555
H62 C49 1_555 1_555
C50 C49 1_555 1_555
C51 C50 1_555 1_555
H63 C51 1_555 1_555
C52 C51 1_555 1_555
H64 C52 1_555 1_555
C53 C52 1_555 1_555
H65 C53 1_555 1_555
C54 C50 1_555 1_555
H66 C54 1_555 1_555
C55 H67 1_555 1_555
C56 C55 1_555 1_555
H68 C56 1_555 1_555
C57 C56 1_555 1_555
H69 C57 1_555 1_555
C58 C57 1_555 1_555
H70 C58 1_555 1_555
C59 C58 1_555 1_555
C60 C59 1_555 1_555
H71 C60 1_555 1_555
H72 C60 1_555 1_555
C61 H73 1_555 1_555
C62 C61 1_555 1_555
H74 C62 1_555 1_555
H75 C62 1_555 1_555
C63 C62 1_555 1_555
H76 C63 1_555 1_555
H77 C63 1_555 1_555
C64 C63 1_555 1_555
H78 C64 1_555 1_555
H79 C64 1_555 1_555
C65 C64 1_555 1_555
H80 C65 1_555 1_555
H81 C65 1_555 1_555
C66 C61 1_555 1_555
H82 C66 1_555 1_555
C67 H83 1_555 1_555
H84 C67 1_555 1_555
C68 C67 1_555 1_555
C69 C68 1_555 1_555
H85 C69 1_555 1_555
C70 C69 1_555 1_555
H86 C70 1_555 1_555
C71 C70 1_555 1_555
H87 C71 1_555 1_555
C72 C68 1_555 1_555
H88 C72 1_555 1_555
C73 H89 1_555 1_555
H90 C73 1_555 1_555
H91 C73 1_555 1_555
N1 C1 1_555 1_555
N2 C6 1_555 1_555
H92 N2 1_555 1_555
N3 Ag1 1_555 1_555
H93 N3 1_555 1_555
N4 C17 1_555 1_555
N5 Ag1 1_555 1_555
N6 Ag2 1_555 1_555
H94 N6 1_555 1_555
N7 Ag2 1_555 1_555
H95 N7 1_555 1_555
N8 C35 1_555 1_555
N9 C37 1_555 1_555
N10 Ag3 1_555 1_555
H96 N10 1_555 1_555
N11 Ag3 1_555 1_555
H97 N11 1_555 1_555
N12 Ag5 1_555 1_555
N13 Ag3 1_555 1_555
H98 N13 1_555 1_555
N14 Ag4 1_555 1_555
H99 N14 1_555 1_555
N15 Ag4 1_555 1_555
N16 C71 1_555 1_555
N17 O1 1_555 1_555
O2 N17 1_555 1_555
O3 N17 1_555 1_555
O4 C73 1_555 1_555
H100 O4 1_555 1_555
O5 H101 1_555 1_555
H102 O5 1_555 1_555
O6 H103 1_555 1_555
H104 O6 1_555 1_555
O7 H105 1_555 1_555
H106 O7 1_555 1_555
Ag5A N8 1_555 1_555
N8A Ag5 1_555 1_555
C5 N1 1_555 1_555
C7 N2 1_555 1_555
C11 C12 1_555 1_555
C12 N3 1_555 1_555
C13 N3 1_555 1_555
C18 N4 1_555 1_555
C19 N5 1_555 1_555
C23 N5 1_555 1_555
C24 N6 1_555 1_555
C25 N6 1_555 1_555
C29 C30 1_555 1_555
C30 N7 1_555 1_555
C31 N7 1_555 1_555
C36 N8 1_555 1_555
C41 N9 1_555 1_555
C42 N10 1_555 1_555
C43 N10 1_555 1_555
C47 C48 1_555 1_555
C48 N11 1_555 1_555
C49 N11 1_555 1_555
C53 N12 1_555 1_555
C54 N12 1_555 1_555
C55 N13 1_555 1_555
C59 N13 1_555 1_555
C60 N14 1_555 1_555
C61 N14 1_555 1_555
C65 C66 1_555 1_555
C66 N15 1_555 1_555
C67 N15 1_555 1_555
C72 N16 1_555 1_555

#END
