
#######################################################################
#
#                 Cambridge Crystallographic Data Centre
#                                CCDC 
#
#######################################################################
#
# If this CIF has been generated from an entry in the Cambridge 
# Structural Database, then it will include bibliographic, chemical, 
# crystal, experimental, refinement or atomic coordinate data resulting 
# from the CCDC's data processing and validation procedures.
#
#######################################################################

data_ACAFUF
_symmetry_cell_setting           orthorhombic
_symmetry_space_group_name_H-M   'P c c n'
_symmetry_Int_Tables_number      56
_space_group_name_Hall           '-P 2ab 2ac'
loop_
_symmetry_equiv_pos_site_id
_symmetry_equiv_pos_as_xyz
1 x,y,z
2 1/2+x,1/2+y,-z
3 x,1/2-y,1/2+z
4 1/2-x,y,1/2+z
5 -x,-y,-z
6 1/2-x,1/2-y,z
7 -x,1/2+y,1/2-z
8 1/2+x,-y,1/2-z
_cell_length_a                   19.493(4)
_cell_length_b                   10.760(2)
_cell_length_c                   17.334(4)
_cell_angle_alpha                90
_cell_angle_beta                 90
_cell_angle_gamma                90
_cell_volume                     3635.71
loop_
_atom_site_label
_atom_site_type_symbol
_atom_site_fract_x
_atom_site_fract_y
_atom_site_fract_z
N3 N 0.4528(6) 0.7619(11) 0.0094(8)
C11 C 0.4719(6) 0.6769(11) 0.0062(9)
C12 C 0.5033(12) 0.5595(15) 0.0042(13)
H9 H 0.5535 0.5692 0.0107
H10 H 0.4860 0.5084 0.0475
C13 C 0.4899(14) 0.499(3) -0.0652(14)
H11 H 0.4414 0.5092 -0.0785
H12 H 0.4994 0.5894 0.0599
H13 H 0.5184 0.5353 -0.1060
C12D C 0.4967(12) 0.4405(15) -0.0042(13)
C11D C 0.5281(6) 0.3231(11) -0.0062(9)
N3D N 0.5472(6) 0.2381(11) -0.0094(8)
H9D H 0.4465 0.4308 -0.0107
H10D H 0.5140 0.4916 -0.0475
C13D C 0.5101(14) 0.501(3) 0.0652(14)
H12D H 0.5006 0.4106 -0.0599
H11D H 0.5586 0.4908 0.0785
H13D H 0.4816 0.4647 0.1060
I1 I 0.641927(13) 0.79967(3) 0.106818(18)
I2 I 0.715492(13) 0.54920(3) -0.076903(16)
Cu1 Cu 0.68526(2) 0.78258(5) -0.03973(3)
Cu2 Cu 0.73473(3) 0.62286(5) 0.06639(3)
S1 S 0.38703(6) 0.79535(9) -0.30351(6)
S2 S 0.41546(6) 0.94656(9) -0.24188(8)
N1 N 0.60566(16) 0.8345(3) -0.1069(2)
C1 C 0.5705(2) 0.9374(4) -0.0911(3)
H1 H 0.5849 0.9876 -0.0491
C2 C 0.5135(2) 0.9745(4) -0.1333(3)
H2 H 0.4903 1.0498 -0.1214
C3 C 0.49130(18) 0.8998(3) -0.1930(2)
C4 C 0.5282(2) 0.7956(4) -0.2108(3)
H3 H 0.5151 0.7441 -0.2527
C5 C 0.5850(2) 0.7666(5) -0.1664(3)
H4 H 0.6106 0.6944 -0.1793
C6 C 0.34878(19) 0.6958(4) -0.2345(3)
C7 C 0.3207(2) 0.5873(4) -0.2631(3)
H5 H 0.3201 0.5712 -0.3170
C8 C 0.2937(3) 0.5033(5) -0.2119(3)
H6 H 0.2746 0.4288 -0.2319
C9 C 0.3184(3) 0.6272(5) -0.1099(3)
H7 H 0.3171 0.6419 -0.0559
C10 C 0.3465(2) 0.7177(4) -0.1564(3)
H8 H 0.3638 0.7929 -0.1352
N2 N 0.29277(18) 0.5200(4) -0.1361(2)
I2E I 0.784508(13) 0.95080(3) -0.076903(16)
Cu1E Cu 0.81474(2) 0.71742(5) -0.03973(3)
Cu2E Cu 0.76527(3) 0.87714(5) 0.06639(3)
I1E I 0.858073(13) 0.70033(3) 0.106818(18)
S1D S 0.61297(6) 0.20465(9) 0.30351(6)
S2D S 0.58454(6) 0.05344(9) 0.24188(8)
N1D N 0.39434(16) 0.1655(3) 0.1069(2)
C1D C 0.4295(2) 0.0626(4) 0.0911(3)
H1D H 0.4151 0.0124 0.0491
C2D C 0.4865(2) 0.0255(4) 0.1333(3)
H2D H 0.5097 -0.0498 0.1214
C3D C 0.50870(18) 0.1002(3) 0.1930(2)
C4D C 0.4718(2) 0.2044(4) 0.2108(3)
H3D H 0.4849 0.2559 0.2527
C5D C 0.4150(2) 0.2334(5) 0.1664(3)
H4D H 0.3894 0.3056 0.1793
C6D C 0.65122(19) 0.3042(4) 0.2345(3)
C7D C 0.6793(2) 0.4127(4) 0.2631(3)
H5D H 0.6799 0.4288 0.3170
C8D C 0.7063(3) 0.4967(5) 0.2119(3)
H6D H 0.7254 0.5712 0.2319
C9D C 0.6816(3) 0.3728(5) 0.1099(3)
H7D H 0.6829 0.3581 0.0559
C10D C 0.6535(2) 0.2823(4) 0.1564(3)
H8D H 0.6362 0.2071 0.1352
N2D N 0.70723(18) 0.4800(4) 0.1361(2)
Cu2D Cu 0.26527(3) 0.37714(5) -0.06639(3)
N1E N 0.89434(16) 0.6655(3) -0.1069(2)
N2A N 0.79277(18) 1.0200(4) 0.1361(2)
Cu1D Cu 0.31474(2) 0.21742(5) 0.03973(3)
loop_
_geom_bond_atom_site_label_1
_geom_bond_atom_site_label_2
_geom_bond_site_symmetry_1
_geom_bond_site_symmetry_2
I1 Cu1 1_555 1_555
I2 Cu1 1_555 1_555
Cu1 N1 1_555 1_555
Cu2 I1 1_555 1_555
S1 S2 1_555 1_555
S2 C3 1_555 1_555
N1 C1 1_555 1_555
C1 H1 1_555 1_555
C2 C1 1_555 1_555
H2 C2 1_555 1_555
C3 C2 1_555 1_555
C4 C3 1_555 1_555
H3 C4 1_555 1_555
C5 N1 1_555 1_555
H4 C5 1_555 1_555
C6 S1 1_555 1_555
C7 C6 1_555 1_555
H5 C7 1_555 1_555
C8 C7 1_555 1_555
H6 C8 1_555 1_555
C9 H7 1_555 1_555
C10 C6 1_555 1_555
H8 C10 1_555 1_555
N2 C8 1_555 1_555
N3 C11 1_555 1_555
C11 C12 1_555 1_555
C12 H9 1_555 1_555
H10 C12 1_555 1_555
C13 C12 1_555 1_555
H11 C13 1_555 1_555
H12 C12 1_555 1_555
H13 C13 1_555 1_555
C12D C12 1_555 1_555
C11D C12D 1_555 1_555
N3D C11D 1_555 1_555
H9D C12D 1_555 1_555
H10D C12 1_555 1_555
C13D C12 1_555 1_555
H12D C13 1_555 1_555
H11D C13D 1_555 1_555
H13D C13D 1_555 1_555
I2E Cu1 1_555 1_555
Cu1E I2 1_555 1_555
Cu2E I1 1_555 1_555
I1E Cu2 1_555 1_555
S1D S2D 1_555 1_555
S2D C3D 1_555 1_555
N1D C1D 1_555 1_555
C1D H1D 1_555 1_555
C2D C1D 1_555 1_555
H2D C2D 1_555 1_555
C3D C2D 1_555 1_555
C4D C3D 1_555 1_555
H3D C4D 1_555 1_555
C5D N1D 1_555 1_555
H4D C5D 1_555 1_555
C6D S1D 1_555 1_555
C7D C6D 1_555 1_555
H5D C7D 1_555 1_555
C8D C7D 1_555 1_555
H6D C8D 1_555 1_555
C9D H7D 1_555 1_555
C10D C6D 1_555 1_555
H8D C10D 1_555 1_555
N2D Cu2 1_555 1_555
Cu2D N2 1_555 1_555
N1E Cu1E 1_555 1_555
N2A Cu2E 1_555 1_555
Cu1D N1D 1_555 1_555
I2 Cu2 1_555 1_555
C4 C5 1_555 1_555
C9 N2 1_555 1_555
C9 C10 1_555 1_555
H10 C12D 1_555 1_555
H10 C13D 1_555 1_555
C13 C12D 1_555 1_555
C13 H10D 1_555 1_555
H12 C13D 1_555 1_555
C12D H10D 1_555 1_555
C12D C13D 1_555 1_555
C12D H12D 1_555 1_555
I2E Cu1E 1_555 1_555
I2E Cu2E 1_555 1_555
Cu1E I1E 1_555 1_555
Cu2E I1E 1_555 1_555
C4D C5D 1_555 1_555
C8D N2D 1_555 1_555
C9D N2D 1_555 1_555
C9D C10D 1_555 1_555

#END
