
#######################################################################
#
#                 Cambridge Crystallographic Data Centre
#                                CCDC 
#
#######################################################################
#
# If this CIF has been generated from an entry in the Cambridge 
# Structural Database, then it will include bibliographic, chemical, 
# crystal, experimental, refinement or atomic coordinate data resulting 
# from the CCDC's data processing and validation procedures.
#
#######################################################################

data_ACAFIT
_symmetry_cell_setting           triclinic
_symmetry_space_group_name_H-M   'P -1'
_symmetry_Int_Tables_number      2
_space_group_name_Hall           '-P 1'
loop_
_symmetry_equiv_pos_site_id
_symmetry_equiv_pos_as_xyz
1 x,y,z
2 -x,-y,-z
_cell_length_a                   8.745(2)
_cell_length_b                   8.955(4)
_cell_length_c                   10.636(3)
_cell_angle_alpha                94.48(4)
_cell_angle_beta                 96.63(3)
_cell_angle_gamma                106.11(4)
_cell_volume                     789.549
loop_
_atom_site_label
_atom_site_type_symbol
_atom_site_fract_x
_atom_site_fract_y
_atom_site_fract_z
I1 I 0.60432(5) 0.81734(5) 0.90995(4)
Cu1 Cu 0.45444(9) 1.03224(8) 0.88760(7)
S1 S -0.25800(18) 0.72629(18) 0.53392(16)
S2 S -0.27185(19) 0.50363(18) 0.46712(14)
N1 N 0.2352(6) 0.9285(6) 0.7751(5)
C1 C 0.1758(7) 0.7741(7) 0.7407(6)
H1 H 0.2390 0.7088 0.7682
C2 C 0.0280(7) 0.7040(7) 0.6676(6)
H2 H -0.0093 0.5936 0.6468
C3 C -0.0645(7) 0.7978(7) 0.6254(6)
C4 C -0.0060(8) 0.9579(7) 0.6602(6)
H3 H -0.0669 1.0255 0.6335
C5 C 0.1422(8) 1.0172(7) 0.7342(6)
H4 H 0.1810 1.1271 0.7578
N2 N -0.4324(6) 0.1908(6) 0.7732(5)
C6 C -0.3949(7) 0.1389(7) 0.6628(6)
H5 H -0.4033 0.0308 0.6476
C7 C -0.3454(8) 0.2319(7) 0.5706(6)
H6 H -0.3205 0.1888 0.4938
C8 C -0.3319(7) 0.3913(6) 0.5911(5)
C9 C -0.3686(7) 0.4459(7) 0.7047(6)
H7 H -0.3599 0.5538 0.7227
C10 C -0.4178(8) 0.3445(7) 0.7920(6)
H8 H -0.4429 0.3850 0.8697
Cu1A Cu 0.54556(9) 0.96776(8) 1.11240(7)
I1A I 0.39568(5) 1.18266(5) 1.09005(4)
N2_2 N 0.5676(6) 1.1908(6) 0.7732(5)
Cu1_2 Cu -0.54556(9) 0.03224(8) 0.88760(7)
N3 N 0.9516(11) 0.6290(10) 1.2234(9)
C11 C 0.9929(10) 0.6798(9) 1.1370(8)
C12 C 1.0473(12) 0.7474(14) 1.0250(10)
H9 H 1.1608 0.8083 1.0452
H10 H 0.9831 0.8161 0.9978
H11 H 1.0350 0.6637 0.9562
loop_
_geom_bond_atom_site_label_1
_geom_bond_atom_site_label_2
_geom_bond_site_symmetry_1
_geom_bond_site_symmetry_2
I1 Cu1 1_555 1_555
Cu1 N1 1_555 1_555
S1 S2 1_555 1_555
S2 C8 1_555 1_555
N1 C1 1_555 1_555
C1 H1 1_555 1_555
C2 C1 1_555 1_555
H2 C2 1_555 1_555
C3 S1 1_555 1_555
C4 C3 1_555 1_555
H3 C4 1_555 1_555
C5 N1 1_555 1_555
H4 C5 1_555 1_555
N2 C6 1_555 1_555
C6 H5 1_555 1_555
C7 C6 1_555 1_555
H6 C7 1_555 1_555
C8 C7 1_555 1_555
C9 C8 1_555 1_555
H7 C9 1_555 1_555
C10 N2 1_555 1_555
H8 C10 1_555 1_555
N3 C11 1_555 1_555
C11 C12 1_555 1_555
C12 H9 1_555 1_555
H10 C12 1_555 1_555
H11 C12 1_555 1_555
Cu1A I1 1_555 1_555
I1A Cu1 1_555 1_555
N2_2 Cu1 1_555 1_555
Cu1_2 N2 1_555 1_555
C2 C3 1_555 1_555
C4 C5 1_555 1_555
C9 C10 1_555 1_555
Cu1A I1A 1_555 1_555

#END
