
#######################################################################
#
#                 Cambridge Crystallographic Data Centre
#                                CCDC 
#
#######################################################################
#
# If this CIF has been generated from an entry in the Cambridge 
# Structural Database, then it will include bibliographic, chemical, 
# crystal, experimental, refinement or atomic coordinate data resulting 
# from the CCDC's data processing and validation procedures.
#
#######################################################################

data_ACAFAN
_symmetry_cell_setting           monoclinic
_symmetry_space_group_name_H-M   'P 21'
_symmetry_Int_Tables_number      4
_space_group_name_Hall           'P 2yb'
loop_
_symmetry_equiv_pos_site_id
_symmetry_equiv_pos_as_xyz
1 x,y,z
2 -x,1/2+y,-z
_cell_length_a                   10.402(2)
_cell_length_b                   18.512(4)
_cell_length_c                   12.824(3)
_cell_angle_alpha                90
_cell_angle_beta                 100.298(3)
_cell_angle_gamma                90
_cell_volume                     2429.63
loop_
_atom_site_label
_atom_site_type_symbol
_atom_site_fract_x
_atom_site_fract_y
_atom_site_fract_z
Ag1 Ag 0.12106(7) -0.80012(4) 0.06554(5)
Ag2 Ag 0.13648(7) -0.94523(4) 0.18774(6)
Ag3 Ag 0.17116(10) -0.79147(5) -0.32374(6)
C1 C -0.1217(9) -0.9644(5) 0.0407(7)
H1 H -0.0769 -1.0048 0.0231
C2 C -0.2426(9) -0.9488(6) -0.0217(8)
H2 H -0.2774 -0.9768 -0.0801
C3 C -0.3078(10) -0.8893(5) 0.0084(9)
H3 H -0.3882 -0.8762 -0.0313
C4 C -0.2555(10) -0.8495(5) 0.0958(8)
H4 H -0.3015 -0.8110 0.1177
C5 C -0.1321(9) -0.8679(5) 0.1514(8)
C6 C -0.0629(10) -0.8215(5) 0.2401(7)
H5 H -0.1265 -0.7993 0.2769
H6 H -0.0054 -0.8513 0.2904
C7 C 0.1075(9) -0.7277(5) 0.2808(7)
H7 H 0.1713 -0.7636 0.3137
C8 C 0.0472(10) -0.6937(5) 0.3693(7)
H8 H 0.0090 -0.7313 0.4068
H9 H -0.0222 -0.6610 0.3387
C9 C 0.1507(11) -0.6518(7) 0.4488(8)
H10 H 0.1082 -0.6287 0.5014
H11 H 0.2146 -0.6855 0.4852
C10 C 0.2190(11) -0.5956(6) 0.3948(9)
H12 H 0.1564 -0.5601 0.3614
H13 H 0.2837 -0.5710 0.4466
C11 C 0.2838(10) -0.6307(6) 0.3134(8)
H14 H 0.3493 -0.6645 0.3475
H15 H 0.3273 -0.5943 0.2778
C12 C 0.1811(10) -0.6715(5) 0.2304(8)
H16 H 0.1177 -0.6360 0.1956
C13 C 0.2832(10) -0.6528(6) 0.0707(8)
H17 H 0.3483 -0.6200 0.1079
H18 H 0.2073 -0.6246 0.0397
C14 C 0.3370(11) -0.6905(5) -0.0153(8)
C15 C 0.4706(11) -0.7010(6) -0.0072(10)
H19 H 0.5274 -0.6856 0.0531
C16 C 0.5201(11) -0.7344(6) -0.0891(10)
H20 H 0.6097 -0.7402 -0.0850
C17 C 0.4332(13) -0.7591(6) -0.1771(11)
H21 H 0.4651 -0.7826 -0.2313
C18 C 0.2599(10) -0.7148(6) -0.1069(8)
H22 H 0.1703 -0.7068 -0.1157
C19 C 0.0003(9) -0.8783(5) -0.1401(7)
H23 H -0.0663 -0.8455 -0.1355
C20 C -0.0172(10) -0.9266(5) -0.2217(7)
H24 H -0.0961 -0.9283 -0.2691
C21 C 0.0836(10) -0.9731(5) -0.2333(7)
H25 H 0.0750 -1.0052 -0.2899
C22 C 0.1967(10) -0.9706(5) -0.1594(7)
H26 H 0.2664 -1.0007 -0.1659
C23 C 0.2059(9) -0.9238(5) -0.0763(7)
C24 C 0.3282(9) -0.9247(5) 0.0087(7)
H27 H 0.4018 -0.9417 -0.0216
H28 H 0.3475 -0.8761 0.0353
C25 C 0.4311(9) -0.9824(5) 0.1752(7)
H29 H 0.4677 -0.9343 0.1937
C26 C 0.5342(9) -1.0259(5) 0.1337(7)
H30 H 0.5000 -1.0737 0.1140
H31 H 0.5538 -1.0028 0.0705
C27 C 0.6588(9) -1.0331(6) 0.2141(7)
H32 H 0.6963 -0.9857 0.2314
H33 H 0.7217 -1.0617 0.1845
C28 C 0.6297(10) -1.0693(6) 0.3140(8)
H34 H 0.6004 -1.1184 0.2975
H35 H 0.7092 -1.0715 0.3666
C29 C 0.5279(9) -1.0295(6) 0.3586(8)
H36 H 0.5631 -0.9830 0.3846
H37 H 0.5077 -1.0563 0.4186
C30 C 0.3988(9) -1.0167(5) 0.2779(7)
H38 H 0.3615 -1.0645 0.2583
C31 C 0.2464(10) -1.0130(6) 0.4047(8)
H39 H 0.3179 -1.0235 0.4623
H40 H 0.2073 -1.0585 0.3782
C32 C 0.1456(10) -0.9678(5) 0.4459(8)
C33 C 0.0111(10) -0.9812(5) 0.4166(8)
H41 H -0.0188 -1.0196 0.3720
C34 C -0.0747(10) -0.9373(7) 0.4545(8)
H42 H -0.1642 -0.9457 0.4374
C35 C -0.0269(13) -0.8801(6) 0.5189(8)
H43 H -0.0867 -0.8493 0.5420
C36 C 0.1800(10) -0.9110(6) 0.5126(7)
H44 H 0.2691 -0.9028 0.5339
N1 N -0.0659(7) -0.9251(4) 0.1242(6)
N2 N 0.0132(7) -0.7653(4) 0.1992(6)
H45 H -0.0455 -0.7312 0.1704
N3 N 0.2457(7) -0.7059(4) 0.1467(6)
H46 H 0.3214 -0.7257 0.1812
N4 N 0.3067(10) -0.7497(5) -0.1848(7)
N5 N 0.1104(7) -0.8758(4) -0.0653(6)
N6 N 0.3091(7) -0.9725(4) 0.0965(6)
H47 H 0.2899 -1.0167 0.0668
N7 N 0.2982(8) -0.9752(4) 0.3180(6)
H48 H 0.3360 -0.9334 0.3456
N8 N 0.1008(9) -0.8663(5) 0.5503(7)
O1 O -0.0026(9) -0.6971(5) -0.3307(6)
H49 H -0.0783 -0.7000 -0.3816
H50 H 0.0085 -0.6592 -0.2823
Ag3_2 Ag 0.17116(10) -0.79147(5) 0.67626(6)
N8_2 N 0.1008(9) -0.8663(5) -0.4497(7)
B1 B 0.1059(14) -1.1415(7) 0.0856(10)
F1 F 0.0525(7) -1.1081(4) 0.1637(6)
F2 F 0.2343(7) -1.1352(4) 0.1022(8)
F3 F 0.0579(9) -1.1059(5) -0.0082(6)
F4 F 0.0677(7) -1.2104(4) 0.0737(6)
B2 B 0.5391(13) -0.7965(11) 0.3343(11)
F5 F 0.6392(7) -0.8483(4) 0.3470(6)
F6 F 0.5077(6) -0.7810(5) 0.2275(5)
F7 F 0.4313(7) -0.8269(4) 0.3652(6)
F8 F 0.5803(8) -0.7369(4) 0.3900(6)
B3 B -0.5266(14) -0.4476(11) 0.2944(14)
F9 F -0.6528(6) -0.4397(5) 0.2876(5)
F10 F -0.4767(7) -0.5009(4) 0.3675(5)
F11 F -0.4555(9) -0.3902(5) 0.3220(11)
F12 F -0.5026(7) -0.4749(7) 0.1980(6)
O2 O -0.2242(8) -0.6668(4) 0.1433(6)
H51 H -0.1749 -0.6488 0.1039
H52 H -0.2522 -0.6498 0.1966
O3 O -0.3103(12) -0.6108(5) 0.3167(9)
H53 H -0.3458 -0.5696 0.3180
H54 H -0.3423 -0.6490 0.3388
O4 O -0.2743(13) -0.7558(8) -0.3976(11)
H55 H -0.3495 -0.7506 -0.4356
H56 H -0.2557 -0.7478 -0.3313
loop_
_geom_bond_atom_site_label_1
_geom_bond_atom_site_label_2
_geom_bond_site_symmetry_1
_geom_bond_site_symmetry_2
Ag1 N2 1_555 1_555
Ag2 N1 1_555 1_555
Ag3 N4 1_555 1_555
B1 F1 1_555 1_555
B2 F5 1_555 1_555
B3 F9 1_555 1_555
F2 B1 1_555 1_555
F3 B1 1_555 1_555
F4 B1 1_555 1_555
F6 B2 1_555 1_555
F7 B2 1_555 1_555
F8 B2 1_555 1_555
F10 B3 1_555 1_555
F11 B3 1_555 1_555
F12 B3 1_555 1_555
C1 H1 1_555 1_555
C2 C1 1_555 1_555
H2 C2 1_555 1_555
C3 C2 1_555 1_555
H3 C3 1_555 1_555
C4 C3 1_555 1_555
H4 C4 1_555 1_555
C5 C4 1_555 1_555
C6 C5 1_555 1_555
H5 C6 1_555 1_555
H6 C6 1_555 1_555
C7 H7 1_555 1_555
C8 C7 1_555 1_555
H8 C8 1_555 1_555
H9 C8 1_555 1_555
C9 C8 1_555 1_555
H10 C9 1_555 1_555
H11 C9 1_555 1_555
C10 C9 1_555 1_555
H12 C10 1_555 1_555
H13 C10 1_555 1_555
C11 C10 1_555 1_555
H14 C11 1_555 1_555
H15 C11 1_555 1_555
C12 C7 1_555 1_555
H16 C12 1_555 1_555
C13 H17 1_555 1_555
H18 C13 1_555 1_555
C14 C13 1_555 1_555
C15 C14 1_555 1_555
H19 C15 1_555 1_555
C16 C15 1_555 1_555
H20 C16 1_555 1_555
C17 C16 1_555 1_555
H21 C17 1_555 1_555
C18 C14 1_555 1_555
H22 C18 1_555 1_555
C19 H23 1_555 1_555
C20 C19 1_555 1_555
H24 C20 1_555 1_555
C21 C20 1_555 1_555
H25 C21 1_555 1_555
C22 C21 1_555 1_555
H26 C22 1_555 1_555
C23 C22 1_555 1_555
C24 C23 1_555 1_555
H27 C24 1_555 1_555
H28 C24 1_555 1_555
C25 H29 1_555 1_555
C26 C25 1_555 1_555
H30 C26 1_555 1_555
H31 C26 1_555 1_555
C27 C26 1_555 1_555
H32 C27 1_555 1_555
H33 C27 1_555 1_555
C28 C27 1_555 1_555
H34 C28 1_555 1_555
H35 C28 1_555 1_555
C29 C28 1_555 1_555
H36 C29 1_555 1_555
H37 C29 1_555 1_555
C30 C25 1_555 1_555
H38 C30 1_555 1_555
C31 H39 1_555 1_555
H40 C31 1_555 1_555
C32 C31 1_555 1_555
C33 C32 1_555 1_555
H41 C33 1_555 1_555
C34 C33 1_555 1_555
H42 C34 1_555 1_555
C35 C34 1_555 1_555
H43 C35 1_555 1_555
C36 C32 1_555 1_555
H44 C36 1_555 1_555
N1 C1 1_555 1_555
N2 C6 1_555 1_555
H45 N2 1_555 1_555
N3 Ag1 1_555 1_555
H46 N3 1_555 1_555
N4 C17 1_555 1_555
N5 Ag1 1_555 1_555
N6 Ag2 1_555 1_555
H47 N6 1_555 1_555
N7 Ag2 1_555 1_555
H48 N7 1_555 1_555
N8 C35 1_555 1_555
O1 Ag3 1_555 1_555
H49 O1 1_555 1_555
H50 O1 1_555 1_555
O2 H51 1_555 1_555
H52 O2 1_555 1_555
O3 H53 1_555 1_555
H54 O3 1_555 1_555
O4 H55 1_555 1_555
H56 O4 1_555 1_555
Ag3_2 N8 1_555 1_555
N8_2 Ag3 1_555 1_555
C5 N1 1_555 1_555
C7 N2 1_555 1_555
C11 C12 1_555 1_555
C12 N3 1_555 1_555
C13 N3 1_555 1_555
C18 N4 1_555 1_555
C19 N5 1_555 1_555
C23 N5 1_555 1_555
C24 N6 1_555 1_555
C25 N6 1_555 1_555
C29 C30 1_555 1_555
C30 N7 1_555 1_555
C31 N7 1_555 1_555
C36 N8 1_555 1_555

#END
