
#######################################################################
#
#                 Cambridge Crystallographic Data Centre
#                                CCDC 
#
#######################################################################
#
# If this CIF has been generated from an entry in the Cambridge 
# Structural Database, then it will include bibliographic, chemical, 
# crystal, experimental, refinement or atomic coordinate data resulting 
# from the CCDC's data processing and validation procedures.
#
#######################################################################

data_ACAFOZ
_symmetry_cell_setting           triclinic
_symmetry_space_group_name_H-M   'P -1'
_symmetry_Int_Tables_number      2
_space_group_name_Hall           '-P 1'
loop_
_symmetry_equiv_pos_site_id
_symmetry_equiv_pos_as_xyz
1 x,y,z
2 -x,-y,-z
_cell_length_a                   8.4250(17)
_cell_length_b                   10.318(2)
_cell_length_c                   10.670(2)
_cell_angle_alpha                113.92(3)
_cell_angle_beta                 97.23(3)
_cell_angle_gamma                92.21(3)
_cell_volume                     837.014
loop_
_atom_site_label
_atom_site_type_symbol
_atom_site_fract_x
_atom_site_fract_y
_atom_site_fract_z
I1 I 0.30807(4) 1.65061(3) 0.57235(4)
Cu1 Cu 0.38866(7) 1.38992(6) 0.44700(7)
S1 S 0.07133(15) 0.96267(12) 0.69510(13)
S2 S -0.07213(14) 1.07677(13) 0.83118(13)
N1 N 0.2989(5) 1.2652(4) 0.5376(5)
C1 C 0.3296(6) 1.1274(5) 0.4962(5)
H1 H 0.4016 1.0920 0.4310
C2 C 0.2611(6) 1.0352(5) 0.5441(5)
H2 H 0.2861 0.9392 0.5127
C3 C 0.1561(5) 1.0861(5) 0.6384(5)
C4 C 0.1211(7) 1.2272(5) 0.6815(6)
H3 H 0.0479 1.2644 0.7452
C5 C 0.1963(7) 1.3118(5) 0.6287(6)
H4 H 0.1735 1.4084 0.6590
N2 N 0.2518(5) 1.2988(4) 1.2509(4)
C6 C 0.0918(6) 1.3068(6) 1.2351(6)
H5 H 0.0451 1.3614 1.3144
C7 C -0.0066(6) 1.2398(5) 1.1098(6)
H6 H -0.1191 1.2473 1.1030
C8 C 0.0613(6) 1.1602(5) 0.9924(5)
C9 C 0.2240(6) 1.1494(6) 1.0064(5)
H7 H 0.2736 1.0953 0.9287
C10 C 0.3139(6) 1.2201(6) 1.1382(6)
H8 H 0.4262 1.2118 1.1484
Cu1A Cu 0.61134(7) 1.61008(6) 0.55300(7)
I1A I 0.69193(4) 1.34939(3) 0.42765(4)
N2_2 N 0.2518(5) 1.2988(4) 0.2509(4)
Cu1_2 Cu 0.38866(7) 1.38992(6) 1.44700(7)
C11 C 0.3674(15) 0.6176(16) 0.1773(13)
H9 H 0.3410 0.6616 0.2726
H10 H 0.4436 0.5461 0.1747
Cl1 Cl 0.1956(5) 0.5326(3) 0.0647(5)
Cl2 Cl 0.4573(5) 0.7428(6) 0.1428(7)
loop_
_geom_bond_atom_site_label_1
_geom_bond_atom_site_label_2
_geom_bond_site_symmetry_1
_geom_bond_site_symmetry_2
I1 Cu1 1_555 1_555
Cu1 N1 1_555 1_555
S1 S2 1_555 1_555
S2 C8 1_555 1_555
N1 C1 1_555 1_555
C1 H1 1_555 1_555
C2 C1 1_555 1_555
H2 C2 1_555 1_555
C3 S1 1_555 1_555
C4 C3 1_555 1_555
H3 C4 1_555 1_555
C5 N1 1_555 1_555
H4 C5 1_555 1_555
N2 C6 1_555 1_555
C6 H5 1_555 1_555
C7 C6 1_555 1_555
H6 C7 1_555 1_555
C8 C7 1_555 1_555
C9 C8 1_555 1_555
H7 C9 1_555 1_555
C10 N2 1_555 1_555
H8 C10 1_555 1_555
C11 H9 1_555 1_555
H10 C11 1_555 1_555
Cl1 C11 1_555 1_555
Cl2 C11 1_555 1_555
Cu1A I1 1_555 1_555
I1A Cu1 1_555 1_555
N2_2 Cu1 1_555 1_555
Cu1_2 N2 1_555 1_555
C2 C3 1_555 1_555
C4 C5 1_555 1_555
C9 C10 1_555 1_555
Cu1A I1A 1_555 1_555

#END
