
#######################################################################
#
#                 Cambridge Crystallographic Data Centre
#                                CCDC 
#
#######################################################################
#
# If this CIF has been generated from an entry in the Cambridge 
# Structural Database, then it will include bibliographic, chemical, 
# crystal, experimental, refinement or atomic coordinate data resulting 
# from the CCDC's data processing and validation procedures.
#
#######################################################################

data_ACAFOB
_symmetry_cell_setting           monoclinic
_symmetry_space_group_name_H-M   'C 2'
_symmetry_Int_Tables_number      5
_space_group_name_Hall           'C 2y'
loop_
_symmetry_equiv_pos_site_id
_symmetry_equiv_pos_as_xyz
1 x,y,z
2 -x,y,-z
3 1/2+x,1/2+y,z
4 1/2-x,1/2+y,-z
_cell_length_a                   23.966(3)
_cell_length_b                   15.116(2)
_cell_length_c                   13.0659(18)
_cell_angle_alpha                90
_cell_angle_beta                 111.7460(10)
_cell_angle_gamma                90
_cell_volume                     4396.54
loop_
_atom_site_label
_atom_site_type_symbol
_atom_site_fract_x
_atom_site_fract_y
_atom_site_fract_z
Ag1 Ag -0.29138(8) 0.70956(18) 0.41004(16)
Ag2 Ag -0.26807(9) 0.79112(18) 0.20924(18)
Ag3 Ag -0.5000 0.5132(3) 0.5000
C1 C -0.2413(13) 0.597(2) 0.178(2)
H1 H -0.2739 0.6082 0.1104
C2 C -0.2163(16) 0.517(2) 0.192(3)
H2 H -0.2373 0.4690 0.1471
C3 C -0.1614(17) 0.504(2) 0.270(3)
H3 H -0.1377 0.4535 0.2685
C4 C -0.1411(12) 0.569(2) 0.354(2)
H4 H -0.1064 0.5584 0.4184
C5 C -0.1732(12) 0.6481(18) 0.340(3)
C6 C -0.1539(10) 0.7209(19) 0.427(2)
H5 H -0.1101 0.7175 0.4701
H6 H -0.1633 0.7799 0.3922
C7 C -0.1682(10) 0.7705(17) 0.593(2)
H7 H -0.1674 0.8308 0.5617
C8 C -0.1049(12) 0.750(2) 0.682(2)
H8 H -0.1063 0.6922 0.7173
H9 H -0.0750 0.7453 0.6468
C9 C -0.0855(14) 0.821(3) 0.770(3)
H10 H -0.0443 0.8087 0.8223
H11 H -0.0852 0.8792 0.7348
C10 C -0.1270(13) 0.825(2) 0.830(3)
H12 H -0.1160 0.8754 0.8818
H13 H -0.1231 0.7700 0.8733
C11 C -0.1928(14) 0.835(2) 0.750(2)
H14 H -0.2195 0.8285 0.7914
H15 H -0.1983 0.8961 0.7191
C12 C -0.2119(11) 0.7713(18) 0.656(2)
H16 H -0.2100 0.7111 0.6890
C13 C -0.3196(11) 0.765(2) 0.628(2)
H17 H -0.3057 0.7137 0.6780
H18 H -0.3235 0.8162 0.6714
C14 C -0.3779(12) 0.745(2) 0.544(2)
C15 C -0.4177(13) 0.812(2) 0.481(2)
H19 H -0.4079 0.8726 0.4944
C16 C -0.4716(12) 0.786(3) 0.398(2)
H20 H -0.4969 0.8278 0.3482
C17 C -0.4867(14) 0.701(3) 0.389(3)
H21 H -0.5253 0.6863 0.3369
C18 C -0.3984(12) 0.658(2) 0.524(2)
H22 H -0.3727 0.6122 0.5657
C19 C -0.8943(13) 0.0959(19) 0.253(2)
H23 H -0.8664 0.0511 0.2905
C20 C -0.9516(13) 0.0700(19) 0.184(2)
H24 H -0.9627 0.0094 0.1759
C21 C -0.9894(12) 0.131(2) 0.132(2)
H25 H -1.0288 0.1146 0.0844
C22 C -0.9737(9) 0.218(2) 0.1439(19)
H26 H -1.0020 0.2624 0.1064
C23 C -0.9145(11) 0.2412(19) 0.213(2)
C24 C -0.8948(11) 0.3377(18) 0.227(2)
H27 H -0.9303 0.3770 0.2082
H28 H -0.8684 0.3493 0.3048
C25 C -0.8586(11) 0.4503(18) 0.133(2)
H29 H -0.8483 0.4817 0.2052
C26 C -0.9193(11) 0.4889(19) 0.052(2)
H30 H -0.9307 0.4569 -0.0192
H31 H -0.9508 0.4775 0.0820
C27 C -0.9178(13) 0.588(2) 0.030(3)
H32 H -0.9566 0.6068 -0.0270
H33 H -0.9118 0.6218 0.0979
C28 C -0.8678(13) 0.608(2) -0.010(3)
H34 H -0.8645 0.6731 -0.0163
H35 H -0.8774 0.5821 -0.0838
C29 C -0.8086(12) 0.5724(19) 0.067(2)
H36 H -0.7772 0.5865 0.0372
H37 H -0.7975 0.6019 0.1395
C30 C -0.8103(12) 0.478(2) 0.082(2)
H38 H -0.8217 0.4490 0.0080
C31 C -0.7047(12) 0.441(2) 0.111(2)
H39 H -0.6992 0.5036 0.0941
H40 H -0.7168 0.4066 0.0422
C32 C -0.6458(11) 0.4049(18) 0.194(2)
C33 C -0.6295(13) 0.3168(19) 0.184(2)
H41 H -0.6541 0.2794 0.1267
C34 C -0.5754(13) 0.287(2) 0.263(3)
H42 H -0.5625 0.2279 0.2595
C35 C -0.5409(11) 0.343(2) 0.344(3)
H43 H -0.5046 0.3203 0.3967
C36 C -0.6077(11) 0.458(2) 0.275(2)
H44 H -0.6176 0.5182 0.2761
N1 N -0.2238(8) 0.6619(15) 0.2507(17)
N2 N -0.1883(8) 0.7062(17) 0.5017(15)
H45 H -0.1792 0.6546 0.5308
N3 N -0.2749(8) 0.7848(17) 0.5788(15)
H46 H -0.2784 0.8403 0.5632
N4 N -0.4527(10) 0.6335(18) 0.448(2)
N5 N -0.8764(9) 0.1793(14) 0.2694(16)
N6 N -0.8620(9) 0.3548(15) 0.1532(18)
H47 H -0.8828 0.3313 0.0907
N7 N -0.7522(9) 0.4352(15) 0.1592(17)
H48 H -0.7405 0.4663 0.2186
N8 N -0.5551(9) 0.4262(17) 0.354(2)
Ag1A Ag -0.70862(8) 0.70956(18) 0.58996(16)
Ag1B Ag -0.79138(8) 0.20956(18) 0.41004(16)
Ag1C Ag -0.20862(8) 0.20956(18) 0.58996(16)
Ag2A Ag -0.73193(9) 0.79112(18) 0.79076(18)
Ag2B Ag -0.76807(9) 0.29112(18) 0.20924(18)
Ag2C Ag -0.23193(9) 0.29112(18) 0.79076(18)
C1A C -0.7587(13) 0.597(2) 0.822(2)
H1A H -0.7261 0.6082 0.8896
C2A C -0.7837(16) 0.517(2) 0.808(3)
H2A H -0.7627 0.4690 0.8529
C3A C -0.8386(17) 0.504(2) 0.730(3)
H3A H -0.8623 0.4535 0.7315
C4A C -0.8589(12) 0.569(2) 0.646(2)
H4A H -0.8936 0.5584 0.5816
C5A C -0.8268(12) 0.6481(18) 0.660(3)
C6A C -0.8461(10) 0.7209(19) 0.573(2)
H5A H -0.8899 0.7175 0.5299
H6A H -0.8367 0.7799 0.6078
C7A C -0.8318(10) 0.7705(17) 0.407(2)
H7A H -0.8326 0.8308 0.4383
C8A C -0.8951(12) 0.750(2) 0.318(2)
H8A H -0.8937 0.6922 0.2827
H9A H -0.9250 0.7453 0.3532
C9A C -0.9145(14) 0.821(3) 0.230(3)
H10A H -0.9557 0.8087 0.1777
H11A H -0.9148 0.8792 0.2652
C10A C -0.8730(13) 0.825(2) 0.170(3)
H12A H -0.8840 0.8754 0.1182
H13A H -0.8769 0.7700 0.1267
C11A C -0.8072(14) 0.835(2) 0.250(2)
H14A H -0.7805 0.8285 0.2086
H15A H -0.8017 0.8961 0.2809
C12A C -0.7881(11) 0.7713(18) 0.344(2)
H16A H -0.7900 0.7111 0.3110
C13A C -0.6804(11) 0.765(2) 0.372(2)
H17A H -0.6943 0.7137 0.3220
H18A H -0.6765 0.8162 0.3286
C14A C -0.6221(12) 0.745(2) 0.456(2)
C15A C -0.5823(13) 0.812(2) 0.519(2)
H19A H -0.5921 0.8726 0.5056
C16A C -0.5284(12) 0.786(3) 0.602(2)
H20A H -0.5031 0.8278 0.6518
C17A C -0.5133(14) 0.701(3) 0.611(3)
H21A H -0.4747 0.6863 0.6631
C18A C -0.6016(12) 0.658(2) 0.476(2)
H22A H -0.6273 0.6122 0.4343
C19A C -0.1057(13) 0.0959(19) 0.747(2)
H23A H -0.1336 0.0511 0.7095
C20A C -0.0484(13) 0.0700(19) 0.816(2)
H24A H -0.0373 0.0094 0.8241
C21A C -0.0106(12) 0.131(2) 0.868(2)
H25A H 0.0288 0.1146 0.9156
C22A C -0.0263(9) 0.218(2) 0.8561(19)
H26A H 0.0020 0.2624 0.8936
C23A C -0.0855(11) 0.2412(19) 0.787(2)
C24A C -0.1052(11) 0.3377(18) 0.773(2)
H27A H -0.0697 0.3770 0.7918
H28A H -0.1316 0.3493 0.6952
C25A C -0.1414(11) 0.4503(18) 0.867(2)
H29A H -0.1517 0.4817 0.7948
C26A C -0.0807(11) 0.4889(19) 0.948(2)
H30A H -0.0693 0.4569 1.0192
H31A H -0.0492 0.4775 0.9180
C27A C -0.0822(13) 0.588(2) 0.970(3)
H32A H -0.0434 0.6068 1.0270
H33A H -0.0882 0.6218 0.9021
C28A C -0.1322(13) 0.608(2) 1.010(3)
H34A H -0.1355 0.6731 1.0163
H35A H -0.1226 0.5821 1.0838
C29A C -0.1914(12) 0.5724(19) 0.933(2)
H36A H -0.2228 0.5865 0.9628
H37A H -0.2025 0.6019 0.8605
C30A C -0.1897(12) 0.478(2) 0.918(2)
H38A H -0.1783 0.4490 0.9920
C31A C -0.2953(12) 0.441(2) 0.889(2)
H39A H -0.3008 0.5036 0.9059
H40A H -0.2832 0.4066 0.9578
C32A C -0.3542(11) 0.4049(18) 0.806(2)
C33A C -0.3705(13) 0.3168(19) 0.816(2)
H41A H -0.3459 0.2794 0.8733
C34A C -0.4246(13) 0.287(2) 0.737(3)
H42A H -0.4375 0.2279 0.7405
C35A C -0.4591(11) 0.343(2) 0.656(3)
H43A H -0.4954 0.3203 0.6033
C36A C -0.3923(11) 0.458(2) 0.725(2)
H44A H -0.3824 0.5182 0.7239
N1A N -0.7762(8) 0.6619(15) 0.7493(17)
N2A N -0.8117(8) 0.7062(17) 0.4983(15)
H45A H -0.8208 0.6546 0.4692
N3A N -0.7251(8) 0.7848(17) 0.4212(15)
H46A H -0.7216 0.8403 0.4368
N4A N -0.5473(10) 0.6335(18) 0.552(2)
N5A N -0.1236(9) 0.1793(14) 0.7306(16)
N5B N -0.3764(9) 0.6793(14) 0.2694(16)
N5C N -0.6236(9) 0.6793(14) 0.7306(16)
N6A N -0.1380(9) 0.3548(15) 0.8468(18)
N6B N -0.3620(9) 0.8548(15) 0.1532(18)
N6C N -0.6380(9) 0.8548(15) 0.8468(18)
H47A H -0.1172 0.3313 0.9093
H47B H -0.3828 0.8313 0.0907
H47C H -0.6172 0.8313 0.9093
N7A N -0.2478(9) 0.4352(15) 0.8408(17)
N7B N -0.2522(9) 0.9352(15) 0.1592(17)
N7C N -0.7478(9) 0.9352(15) 0.8408(17)
H48A H -0.2595 0.4663 0.7814
H48B H -0.2405 0.9663 0.2186
H48C H -0.7595 0.9663 0.7814
N8A N -0.4449(9) 0.4262(17) 0.646(2)
Cl1 Cl -0.3479(3) 0.7391(5) -0.0998(6)
O1 O -0.3838(11) 0.8138(13) -0.155(2)
O2 O -0.3560(11) 0.6692(12) -0.1783(16)
O3 O -0.2859(7) 0.7646(19) -0.052(2)
O4 O -0.3672(10) 0.7089(18) -0.0141(14)
Cl2 Cl -0.0165(5) 0.5420(8) 0.6499(10)
O5 O -0.0082(13) 0.6270(13) 0.610(2)
O6 O -0.0782(8) 0.527(2) 0.638(2)
O7 O -0.0024(12) 0.4805(16) 0.5786(19)
O8 O 0.0213(11) 0.5250(19) 0.7602(14)
Cl3 Cl -0.2642(10) 0.4908(13) 0.5521(17)
O9 O -0.2326(19) 0.411(2) 0.597(3)
O10 O -0.250(2) 0.562(2) 0.630(3)
O11 O -0.257(2) 0.516(3) 0.452(2)
O12 O -0.3281(11) 0.472(3) 0.523(3)
loop_
_geom_bond_atom_site_label_1
_geom_bond_atom_site_label_2
_geom_bond_site_symmetry_1
_geom_bond_site_symmetry_2
Ag1 N2 1_555 1_555
Ag2 N1 1_555 1_555
Ag3 N4 1_555 1_555
C1 H1 1_555 1_555
C2 C1 1_555 1_555
H2 C2 1_555 1_555
C3 C2 1_555 1_555
H3 C3 1_555 1_555
C4 C3 1_555 1_555
H4 C4 1_555 1_555
C5 C4 1_555 1_555
C6 C5 1_555 1_555
H5 C6 1_555 1_555
H6 C6 1_555 1_555
C7 H7 1_555 1_555
C8 C7 1_555 1_555
H8 C8 1_555 1_555
H9 C8 1_555 1_555
C9 C8 1_555 1_555
H10 C9 1_555 1_555
H11 C9 1_555 1_555
C10 C9 1_555 1_555
H12 C10 1_555 1_555
H13 C10 1_555 1_555
C11 C10 1_555 1_555
H14 C11 1_555 1_555
H15 C11 1_555 1_555
C12 C7 1_555 1_555
H16 C12 1_555 1_555
C13 H17 1_555 1_555
H18 C13 1_555 1_555
C14 C13 1_555 1_555
C15 C14 1_555 1_555
H19 C15 1_555 1_555
C16 C15 1_555 1_555
H20 C16 1_555 1_555
C17 C16 1_555 1_555
H21 C17 1_555 1_555
C18 C14 1_555 1_555
H22 C18 1_555 1_555
C19 H23 1_555 1_555
C20 C19 1_555 1_555
H24 C20 1_555 1_555
C21 C20 1_555 1_555
H25 C21 1_555 1_555
C22 C21 1_555 1_555
H26 C22 1_555 1_555
C23 C22 1_555 1_555
C24 C23 1_555 1_555
H27 C24 1_555 1_555
H28 C24 1_555 1_555
C25 H29 1_555 1_555
C26 C25 1_555 1_555
H30 C26 1_555 1_555
H31 C26 1_555 1_555
C27 C26 1_555 1_555
H32 C27 1_555 1_555
H33 C27 1_555 1_555
C28 C27 1_555 1_555
H34 C28 1_555 1_555
H35 C28 1_555 1_555
C29 C28 1_555 1_555
H36 C29 1_555 1_555
H37 C29 1_555 1_555
C30 C25 1_555 1_555
H38 C30 1_555 1_555
C31 H39 1_555 1_555
H40 C31 1_555 1_555
C32 C31 1_555 1_555
C33 C32 1_555 1_555
H41 C33 1_555 1_555
C34 C33 1_555 1_555
H42 C34 1_555 1_555
C35 C34 1_555 1_555
H43 C35 1_555 1_555
C36 C32 1_555 1_555
H44 C36 1_555 1_555
N1 C1 1_555 1_555
N2 C6 1_555 1_555
H45 N2 1_555 1_555
N3 Ag1 1_555 1_555
H46 N3 1_555 1_555
N4 C17 1_555 1_555
N5 C19 1_555 1_555
N6 C24 1_555 1_555
H47 N6 1_555 1_555
N7 C30 1_555 1_555
H48 N7 1_555 1_555
N8 Ag3 1_555 1_555
Cl1 O1 1_555 1_555
O2 Cl1 1_555 1_555
O3 Cl1 1_555 1_555
O4 Cl1 1_555 1_555
Cl2 O5 1_555 1_555
O6 Cl2 1_555 1_555
O7 Cl2 1_555 1_555
O8 Cl2 1_555 1_555
Cl3 O9 1_555 1_555
O10 Cl3 1_555 1_555
O11 Cl3 1_555 1_555
O12 Cl3 1_555 1_555
Ag1A N2A 1_555 1_555
Ag1B N5 1_555 1_555
Ag1C N5A 1_555 1_555
Ag2A N1A 1_555 1_555
Ag2B N6 1_555 1_555
Ag2C N6A 1_555 1_555
C1A H1A 1_555 1_555
C2A C1A 1_555 1_555
H2A C2A 1_555 1_555
C3A C2A 1_555 1_555
H3A C3A 1_555 1_555
C4A C3A 1_555 1_555
H4A C4A 1_555 1_555
C5A C4A 1_555 1_555
C6A C5A 1_555 1_555
H5A C6A 1_555 1_555
H6A C6A 1_555 1_555
C7A H7A 1_555 1_555
C8A C7A 1_555 1_555
H8A C8A 1_555 1_555
H9A C8A 1_555 1_555
C9A C8A 1_555 1_555
H10A C9A 1_555 1_555
H11A C9A 1_555 1_555
C10A C9A 1_555 1_555
H12A C10A 1_555 1_555
H13A C10A 1_555 1_555
C11A C10A 1_555 1_555
H14A C11A 1_555 1_555
H15A C11A 1_555 1_555
C12A C7A 1_555 1_555
H16A C12A 1_555 1_555
C13A H17A 1_555 1_555
H18A C13A 1_555 1_555
C14A C13A 1_555 1_555
C15A C14A 1_555 1_555
H19A C15A 1_555 1_555
C16A C15A 1_555 1_555
H20A C16A 1_555 1_555
C17A C16A 1_555 1_555
H21A C17A 1_555 1_555
C18A C14A 1_555 1_555
H22A C18A 1_555 1_555
C19A H23A 1_555 1_555
C20A C19A 1_555 1_555
H24A C20A 1_555 1_555
C21A C20A 1_555 1_555
H25A C21A 1_555 1_555
C22A C21A 1_555 1_555
H26A C22A 1_555 1_555
C23A C22A 1_555 1_555
C24A C23A 1_555 1_555
H27A C24A 1_555 1_555
H28A C24A 1_555 1_555
C25A H29A 1_555 1_555
C26A C25A 1_555 1_555
H30A C26A 1_555 1_555
H31A C26A 1_555 1_555
C27A C26A 1_555 1_555
H32A C27A 1_555 1_555
H33A C27A 1_555 1_555
C28A C27A 1_555 1_555
H34A C28A 1_555 1_555
H35A C28A 1_555 1_555
C29A C28A 1_555 1_555
H36A C29A 1_555 1_555
H37A C29A 1_555 1_555
C30A C25A 1_555 1_555
H38A C30A 1_555 1_555
C31A H39A 1_555 1_555
H40A C31A 1_555 1_555
C32A C31A 1_555 1_555
C33A C32A 1_555 1_555
H41A C33A 1_555 1_555
C34A C33A 1_555 1_555
H42A C34A 1_555 1_555
C35A C34A 1_555 1_555
H43A C35A 1_555 1_555
C36A C32A 1_555 1_555
H44A C36A 1_555 1_555
N1A C1A 1_555 1_555
N2A C6A 1_555 1_555
H45A N2A 1_555 1_555
N3A Ag1A 1_555 1_555
H46A N3A 1_555 1_555
N4A Ag3 1_555 1_555
N5A C19A 1_555 1_555
N5B Ag1 1_555 1_555
N5C Ag1A 1_555 1_555
N6A C24A 1_555 1_555
N6B Ag2 1_555 1_555
N6C Ag2A 1_555 1_555
H47A N6A 1_555 1_555
H47B N6B 1_555 1_555
H47C N6C 1_555 1_555
N7A Ag2C 1_555 1_555
N7B Ag2 1_555 1_555
N7C Ag2A 1_555 1_555
H48A N7A 1_555 1_555
H48B N7B 1_555 1_555
H48C N7C 1_555 1_555
N8A Ag3 1_555 1_555
C5 N1 1_555 1_555
C7 N2 1_555 1_555
C11 C12 1_555 1_555
C12 N3 1_555 1_555
C13 N3 1_555 1_555
C18 N4 1_555 1_555
C23 N5 1_555 1_555
C25 N6 1_555 1_555
C29 C30 1_555 1_555
C31 N7 1_555 1_555
C35 N8 1_555 1_555
C36 N8 1_555 1_555
N7 Ag2B 1_555 1_555
C5A N1A 1_555 1_555
C7A N2A 1_555 1_555
C11A C12A 1_555 1_555
C12A N3A 1_555 1_555
C13A N3A 1_555 1_555
C17A N4A 1_555 1_555
C18A N4A 1_555 1_555
C23A N5A 1_555 1_555
C25A N6A 1_555 1_555
C29A C30A 1_555 1_555
C30A N7A 1_555 1_555
C31A N7A 1_555 1_555
C35A N8A 1_555 1_555
C36A N8A 1_555 1_555

#END
