
#######################################################################
#
#                 Cambridge Crystallographic Data Centre
#                                CCDC 
#
#######################################################################
#
# If this CIF has been generated from an entry in the Cambridge 
# Structural Database, then it will include bibliographic, chemical, 
# crystal, experimental, refinement or atomic coordinate data resulting 
# from the CCDC's data processing and validation procedures.
#
#######################################################################

data_ACAGOB
_symmetry_cell_setting           monoclinic
_symmetry_space_group_name_H-M   'P 21/c'
_symmetry_Int_Tables_number      14
_space_group_name_Hall           '-P 2ybc'
loop_
_symmetry_equiv_pos_site_id
_symmetry_equiv_pos_as_xyz
1 x,y,z
2 x,1/2-y,1/2+z
3 -x,-y,-z
4 -x,1/2+y,1/2-z
_cell_length_a                   17.9797(9)
_cell_length_b                   7.2044(4)
_cell_length_c                   8.1885(5)
_cell_angle_alpha                90
_cell_angle_beta                 96.929(5)
_cell_angle_gamma                90
_cell_volume                     1052.93
loop_
_atom_site_label
_atom_site_type_symbol
_atom_site_fract_x
_atom_site_fract_y
_atom_site_fract_z
Cd1 Cd 0.0000 0.5000 0.5000
Cl1 Cl 0.46722(6) 0.2481(2) 0.43518(15)
C1 C 0.07197(13) 0.3780(3) 0.1837(3)
O1 O 0.18373(10) 0.5285(3) 0.0953(2)
O2 O 0.08298(10) 0.4705(3) 0.3127(2)
O3 O 0.01857(11) 0.2670(3) 0.1489(2)
O4 O 0.09773(12) 0.6369(3) 0.6678(3)
C2 C 0.24814(15) 0.4580(4) 0.1825(3)
C3 C 0.31066(16) 0.5737(4) 0.1912(4)
C4 C 0.12347(15) 0.4040(4) 0.0524(3)
C5 C 0.25234(17) 0.2848(4) 0.2540(4)
C6 C 0.32008(19) 0.2211(5) 0.3335(4)
C7 C 0.38205(18) 0.3314(6) 0.3397(4)
C8 C 0.37771(19) 0.5054(5) 0.2714(4)
C9 C 0.3055(3) 0.7604(6) 0.1154(6)
H1 H 0.1416(17) 0.283(5) 0.022(4)
H2 H 0.0940(19) 0.460(4) -0.039(4)
H3 H 0.2130(18) 0.210(4) 0.245(4)
H4 H 0.3237(17) 0.103(5) 0.381(4)
H5 H 0.4164(19) 0.577(5) 0.275(4)
H6 H 0.3481(19) 0.822(5) 0.134(4)
H7 H 0.2698(19) 0.839(5) 0.161(4)
H8 H 0.2820(18) 0.768(5) 0.016(4)
H9 H 0.0787(19) 0.694(5) 0.730(4)
H10 H 0.1254(19) 0.693(5) 0.634(4)
Cl1B Cl -0.46722(6) 0.7519(2) 0.56482(15)
C1B C -0.07197(13) 0.6220(3) 0.8163(3)
O1B O -0.18373(10) 0.4715(3) 0.9047(2)
O2B O -0.08298(10) 0.5295(3) 0.6873(2)
O3B O -0.01857(11) 0.7330(3) 0.8511(2)
C2B C -0.24814(15) 0.5420(4) 0.8175(3)
C3B C -0.31066(16) 0.4263(4) 0.8088(4)
C4B C -0.12347(15) 0.5960(4) 0.9476(3)
C5B C -0.25234(17) 0.7152(4) 0.7460(4)
C6B C -0.32008(19) 0.7789(5) 0.6665(4)
C7B C -0.38205(18) 0.6686(6) 0.6603(4)
C8B C -0.37771(19) 0.4946(5) 0.7286(4)
C9B C -0.3055(3) 0.2396(6) 0.8846(6)
H1B H -0.1416(17) 0.717(5) 0.978(4)
H2B H -0.0940(19) 0.540(4) 1.039(4)
H3B H -0.2130(18) 0.790(4) 0.755(4)
H4B H -0.3237(17) 0.897(5) 0.619(4)
H5B H -0.4164(19) 0.423(5) 0.725(4)
H6B H -0.3481(19) 0.178(5) 0.866(4)
H7B H -0.2698(19) 0.161(5) 0.839(4)
H8B H -0.2820(18) 0.232(5) 0.984(4)
O4B O -0.09773(12) 0.3631(3) 0.3322(3)
H9B H -0.0787(19) 0.306(5) 0.270(4)
H10B H -0.1254(19) 0.307(5) 0.366(4)
O3A O 0.01857(11) 0.2330(3) 0.6489(2)
O3C O -0.01857(11) 0.7670(3) 0.3511(2)
Cd1A Cd 0.0000 0.0000 0.0000
Cd1A_2 Cd 0.0000 1.0000 1.0000
loop_
_geom_bond_atom_site_label_1
_geom_bond_atom_site_label_2
_geom_bond_site_symmetry_1
_geom_bond_site_symmetry_2
Cd1 O2 1_555 1_555
Cl1 C7 1_555 1_555
C1 O2 1_555 1_555
O1 C2 1_555 1_555
O3 C1 1_555 1_555
O4 Cd1 1_555 1_555
C2 C3 1_555 1_555
C3 C8 1_555 1_555
C4 C1 1_555 1_555
C5 C2 1_555 1_555
C6 C5 1_555 1_555
C7 C6 1_555 1_555
C8 C7 1_555 1_555
C9 C3 1_555 1_555
H1 C4 1_555 1_555
H2 C4 1_555 1_555
H3 C5 1_555 1_555
H4 C6 1_555 1_555
H5 C8 1_555 1_555
H6 C9 1_555 1_555
H7 C9 1_555 1_555
H8 C9 1_555 1_555
H9 O4 1_555 1_555
H10 O4 1_555 1_555
Cl1B C7B 1_555 1_555
C1B O2B 1_555 1_555
O1B C2B 1_555 1_555
O2B Cd1 1_555 1_555
O3B C1B 1_555 1_555
C2B C3B 1_555 1_555
C3B C8B 1_555 1_555
C4B C1B 1_555 1_555
C5B C2B 1_555 1_555
C6B C5B 1_555 1_555
C7B C6B 1_555 1_555
C8B C7B 1_555 1_555
C9B C3B 1_555 1_555
H1B C4B 1_555 1_555
H2B C4B 1_555 1_555
H3B C5B 1_555 1_555
H4B C6B 1_555 1_555
H5B C8B 1_555 1_555
H6B C9B 1_555 1_555
H7B C9B 1_555 1_555
H8B C9B 1_555 1_555
O4B Cd1 1_555 1_555
H9B O4B 1_555 1_555
H10B O4B 1_555 1_555
O3A Cd1 1_555 1_555
O3C Cd1 1_555 1_555
Cd1A O3 1_555 1_555
Cd1A_2 O3B 1_555 1_555
O1 C4 1_555 1_555
O1B C4B 1_555 1_555

#END
