
#######################################################################
#
#                 Cambridge Crystallographic Data Centre
#                                CCDC 
#
#######################################################################
#
# If this CIF has been generated from an entry in the Cambridge 
# Structural Database, then it will include bibliographic, chemical, 
# crystal, experimental, refinement or atomic coordinate data resulting 
# from the CCDC's data processing and validation procedures.
#
#######################################################################

data_ACAGAM
_symmetry_cell_setting           triclinic
_symmetry_space_group_name_H-M   'P -1'
_symmetry_Int_Tables_number      2
_space_group_name_Hall           '-P 1'
loop_
_symmetry_equiv_pos_site_id
_symmetry_equiv_pos_as_xyz
1 x,y,z
2 -x,-y,-z
_cell_length_a                   8.878(1)
_cell_length_b                   10.212(1)
_cell_length_c                   19.307(2)
_cell_angle_alpha                90.249(2)
_cell_angle_beta                 103.023(2)
_cell_angle_gamma                92.796(2)
_cell_volume                     1703.15
loop_
_atom_site_label
_atom_site_type_symbol
_atom_site_fract_x
_atom_site_fract_y
_atom_site_fract_z
Cu1 Cu 0.06266(5) 0.67039(5) 0.81487(2)
Cu2 Cu 0.13469(5) 0.46132(4) 0.75026(3)
Cu3 Cu -0.16107(6) 0.53424(5) 0.72371(3)
Cu4 Cu 0.04271(5) 0.67847(4) 0.67644(2)
I1 I -0.05060(3) 0.42395(2) 0.844148(13)
I2 I 0.32626(3) 0.67655(2) 0.772023(13)
I3 I -0.17234(3) 0.79080(2) 0.729606(12)
I4 I -0.00517(3) 0.44284(2) 0.613998(12)
N1 N 0.1101(3) 0.7640(3) 0.91068(15)
C1 C 0.2531(5) 0.8143(4) 0.9415(2)
H1 H 0.3333 0.8078 0.9166
C2 C 0.2881(4) 0.8751(4) 1.0082(2)
H2 H 0.3904 0.9087 1.0282
C3 C 0.1740(4) 0.8863(3) 1.04484(18)
C4 C 0.0240(4) 0.8345(3) 1.01299(19)
H3 H -0.0582 0.8398 1.0368
C5 C -0.0006(4) 0.7764(3) 0.94693(19)
H4 H -0.1023 0.7430 0.9256
S1 S 0.19735(11) 0.95762(9) 1.13046(5)
S2 S 0.41866(11) 1.03444(9) 1.15440(5)
N2 N 0.7258(4) 0.6915(3) 1.22397(18)
C6 C 0.7829(5) 0.8157(4) 1.2206(2)
H5 H 0.8920 0.8317 1.2328
C7 C 0.6922(5) 0.9201(4) 1.2004(2)
H6 H 0.7376 1.0059 1.1990
C8 C 0.5328(4) 0.8973(3) 1.18213(18)
C9 C 0.4719(4) 0.7707(4) 1.1851(2)
H7 H 0.3632 0.7521 1.1730
C10 C 0.5719(4) 0.6724(4) 1.2059(2)
H8 H 0.5291 0.5857 1.2076
N3 N -0.3630(3) 0.4504(3) 0.66815(17)
C11 C -0.4691(4) 0.5214(4) 0.6261(2)
H9 H -0.4644 0.6135 0.6343
C12 C -0.5836(4) 0.4690(4) 0.5722(2)
H10 H -0.6551 0.5237 0.5434
C13 C -0.5936(4) 0.3342(4) 0.5602(2)
C14 C -0.4905(4) 0.2572(4) 0.6051(2)
H11 H -0.4976 0.1644 0.6001
C15 C -0.3770(4) 0.3199(4) 0.6576(2)
H12 H -0.3050 0.2675 0.6878
S3 S -0.74179(12) 0.27406(9) 0.48760(5)
S4 S -0.68275(12) 0.08989(10) 0.46958(5)
N4 N -0.8976(3) -0.1882(3) 0.60838(16)
C16 C -0.8411(5) -0.2281(4) 0.5533(2)
H13 H -0.8467 -0.3194 0.5426
C17 C -0.7760(5) -0.1449(4) 0.5118(2)
H14 H -0.7353 -0.1780 0.4741
C18 C -0.7704(4) -0.0116(4) 0.52548(19)
C19 C -0.8308(5) 0.0333(4) 0.5807(2)
H15 H -0.8295 0.1243 0.5912
C20 C -0.8938(5) -0.0597(4) 0.6207(2)
H16 H -0.9361 -0.0294 0.6585
N2A N 0.2742(4) 0.3085(3) 0.77603(18)
N4_2 N 0.1024(3) 0.8118(3) 0.60838(16)
Cu2A Cu 0.86531(5) 0.53868(4) 1.24974(3)
Cu4_2 Cu -0.95729(5) -0.32153(4) 0.67644(2)
N5 N 0.6395(5) 0.7486(5) 1.0136(2)
C21 C 0.6656(7) 0.6449(5) 1.0015(3)
C22 C 0.7027(8) 0.5090(7) 0.9885(4)
loop_
_geom_bond_atom_site_label_1
_geom_bond_atom_site_label_2
_geom_bond_site_symmetry_1
_geom_bond_site_symmetry_2
Cu1 I1 1_555 1_555
Cu2 I1 1_555 1_555
Cu3 I1 1_555 1_555
Cu4 I2 1_555 1_555
I2 Cu1 1_555 1_555
I3 Cu1 1_555 1_555
I4 Cu2 1_555 1_555
N1 Cu1 1_555 1_555
C1 N1 1_555 1_555
H1 C1 1_555 1_555
C2 C1 1_555 1_555
H2 C2 1_555 1_555
C3 C2 1_555 1_555
C4 C3 1_555 1_555
H3 C4 1_555 1_555
C5 N1 1_555 1_555
H4 C5 1_555 1_555
S1 C3 1_555 1_555
S2 S1 1_555 1_555
N2 C6 1_555 1_555
C6 H5 1_555 1_555
C7 C6 1_555 1_555
H6 C7 1_555 1_555
C8 S2 1_555 1_555
C9 C8 1_555 1_555
H7 C9 1_555 1_555
C10 N2 1_555 1_555
H8 C10 1_555 1_555
N3 Cu3 1_555 1_555
C11 N3 1_555 1_555
H9 C11 1_555 1_555
C12 C11 1_555 1_555
H10 C12 1_555 1_555
C13 C12 1_555 1_555
C14 C13 1_555 1_555
H11 C14 1_555 1_555
C15 N3 1_555 1_555
H12 C15 1_555 1_555
S3 C13 1_555 1_555
S4 S3 1_555 1_555
N4 C16 1_555 1_555
C16 H13 1_555 1_555
C17 C16 1_555 1_555
H14 C17 1_555 1_555
C18 S4 1_555 1_555
C19 C18 1_555 1_555
H15 C19 1_555 1_555
C20 N4 1_555 1_555
H16 C20 1_555 1_555
N5 C21 1_555 1_555
C21 C22 1_555 1_555
N2A Cu2 1_555 1_555
N4_2 Cu4 1_555 1_555
Cu2A N2 1_555 1_555
Cu4_2 N4 1_555 1_555
Cu2 I2 1_555 1_555
Cu3 I3 1_555 1_555
Cu3 I4 1_555 1_555
Cu4 I3 1_555 1_555
Cu4 I4 1_555 1_555
C4 C5 1_555 1_555
C7 C8 1_555 1_555
C9 C10 1_555 1_555
C14 C15 1_555 1_555
C17 C18 1_555 1_555
C19 C20 1_555 1_555

#END
