
#######################################################################
#
#                 Cambridge Crystallographic Data Centre
#                                CCDC 
#
#######################################################################
#
# If this CIF has been generated from an entry in the Cambridge 
# Structural Database, then it will include bibliographic, chemical, 
# crystal, experimental, refinement or atomic coordinate data resulting 
# from the CCDC's data processing and validation procedures.
#
#######################################################################

data_ACAHIW
_symmetry_cell_setting           hexagonal
_symmetry_space_group_name_H-M   'P 63'
_symmetry_Int_Tables_number      173
_space_group_name_Hall           'P 6c'
loop_
_symmetry_equiv_pos_site_id
_symmetry_equiv_pos_as_xyz
1 x,y,z
2 -y,x-y,z
3 -x+y,-x,z
4 -x,-y,1/2+z
5 y,-x+y,1/2+z
6 x-y,x,1/2+z
_cell_length_a                   9.3530(10)
_cell_length_b                   9.3530(10)
_cell_length_c                   15.850(3)
_cell_angle_alpha                90
_cell_angle_beta                 90
_cell_angle_gamma                120
_cell_volume                     1200.78
loop_
_atom_site_label
_atom_site_type_symbol
_atom_site_fract_x
_atom_site_fract_y
_atom_site_fract_z
Cr1 Cr 0.3333 0.6667 0.3398(3)
Mn1 Mn 0.0000 0.0000 0.3348(2)
O1 O 0.3194(6) 0.4831(5) 0.4058(4)
O2 O 0.1666(7) 0.4866(6) 0.2689(5)
O3 O 0.1858(6) 0.2090(6) 0.4081(5)
O4 O 0.0276(7) 0.2129(7) 0.2657(5)
C1 C 0.1277(9) 0.3448(10) 0.2996(8)
C2 C 0.2163(9) 0.3427(9) 0.3784(6)
O1A O 0.5169(5) 0.8363(8) 0.4058(4)
O2A O 0.5134(6) 0.6800(9) 0.2689(5)
O3A O 0.7910(6) 0.9768(8) 0.4081(5)
O4A O 0.7871(7) 0.8147(10) 0.2657(5)
C1A C 0.6552(10) 0.7829(13) 0.2996(8)
C2A C 0.6573(9) 0.8736(13) 0.3784(6)
O1B O 0.1637(8) 0.6806(6) 0.4058(4)
O2B O 0.3200(9) 0.8334(7) 0.2689(5)
O3B O 0.0232(8) 0.8142(6) 0.4081(5)
O4B O 0.1853(10) 0.9724(7) 0.2657(5)
C1B C 0.2171(13) 0.8723(9) 0.2996(8)
C2B C 0.1264(13) 0.7837(9) 0.3784(6)
O3A_2 O -0.2090(6) -0.0232(8) 0.4081(5)
O3B_2 O 0.0232(8) -0.1858(6) 0.4081(5)
O4A_2 O -0.2129(7) -0.1853(10) 0.2657(5)
O4B_2 O 0.1853(10) -0.0276(7) 0.2657(5)
Mn1_2 Mn 1.0000 1.0000 0.3348(2)
Mn1_3 Mn 0.0000 1.0000 0.3348(2)
N2 N 0.3333 0.6667 0.0207(24)
C9 C 0.3759(57) 0.5552(43) 0.0668(45)
C10 C 0.2892(54) 0.3724(45) 0.0632(45)
C11 C 0.3395(77) 0.2562(75) 0.1013(51)
C9A C 0.4448(43) 0.8207(71) 0.0668(45)
C10A C 0.6276(45) 0.9168(70) 0.0632(45)
C11A C 0.7438(75) 1.083(11) 0.1013(51)
C9B C 0.1793(71) 0.6241(57) 0.0668(45)
C10B C 0.0832(70) 0.7108(54) 0.0632(45)
C11B C -0.083(11) 0.6605(77) 0.1013(51)
N1? N 0.3333 0.6667 0.6499(26)
C3? C 0.4163(49) 0.8422(41) 0.6211(41)
C4? C 0.3165(58) 0.9246(57) 0.6036(41)
C5? C 0.4339(67) 1.0546(67) 0.5443(39)
C6? C 0.335(11) 0.6117(76) 0.7399(23)
C7? C 0.3333 0.6667 0.8274(28)
C8? C 0.2525(81) 0.6260(80) 0.9109(32)
C12? C 0.322(14) 0.5680(87) -0.0567(27)
C13? C 0.3333 0.6667 -0.1281(33)
C14? C 0.2722(75) 0.6117(77) -0.2177(35)
loop_
_geom_bond_atom_site_label_1
_geom_bond_atom_site_label_2
_geom_bond_site_symmetry_1
_geom_bond_site_symmetry_2
Cr1 O1 1_555 1_555
Mn1 O3 1_555 1_555
O1 C2 1_555 1_555
O2 Cr1 1_555 1_555
O3 C2 1_555 1_555
O4 Mn1 1_555 1_555
C1 O2 1_555 1_555
C2 C1 1_555 1_555
N2 C9 1_555 1_555
C9 C10 1_555 1_555
C10 C11 1_555 1_555
C9A N2 1_555 1_555
C10A C9A 1_555 1_555
C11A C10A 1_555 1_555
C9B N2 1_555 1_555
C10B C9B 1_555 1_555
C11B C10B 1_555 1_555
O1A Cr1 1_555 1_555
O2A Cr1 1_555 1_555
O3A C2A 1_555 1_555
O4A C1A 1_555 1_555
C1A O2A 1_555 1_555
C2A O1A 1_555 1_555
O1B Cr1 1_555 1_555
O2B Cr1 1_555 1_555
O3B C2B 1_555 1_555
O4B C1B 1_555 1_555
C1B O2B 1_555 1_555
C2B O1B 1_555 1_555
O3A_2 Mn1 1_555 1_555
O3B_2 Mn1 1_555 1_555
O4A_2 Mn1 1_555 1_555
O4B_2 Mn1 1_555 1_555
Mn1_2 O3A 1_555 1_555
Mn1_3 O3B 1_555 1_555
O4 C1 1_555 1_555
O4A Mn1_2 1_555 1_555
C1A C2A 1_555 1_555
O4B Mn1_3 1_555 1_555
C1B C2B 1_555 1_555

#END
