
#######################################################################
#
#                 Cambridge Crystallographic Data Centre
#                                CCDC 
#
#######################################################################
#
# If this CIF has been generated from an entry in the Cambridge 
# Structural Database, then it will include bibliographic, chemical, 
# crystal, experimental, refinement or atomic coordinate data resulting 
# from the CCDC's data processing and validation procedures.
#
#######################################################################

data_ACAHAN
_symmetry_cell_setting           monoclinic
_symmetry_space_group_name_H-M   'P 21/n'
_symmetry_Int_Tables_number      14
_space_group_name_Hall           '-P 2yn'
loop_
_symmetry_equiv_pos_site_id
_symmetry_equiv_pos_as_xyz
1 x,y,z
2 1/2-x,1/2+y,1/2-z
3 -x,-y,-z
4 1/2+x,1/2-y,1/2+z
_cell_length_a                   15.8104(7)
_cell_length_b                   13.5732(7)
_cell_length_c                   18.9822(5)
_cell_angle_alpha                90
_cell_angle_beta                 101.738(3)
_cell_angle_gamma                90
_cell_volume                     3988.35
loop_
_atom_site_label
_atom_site_type_symbol
_atom_site_fract_x
_atom_site_fract_y
_atom_site_fract_z
Re1 Re 0.51371(3) -0.55834(4) 0.09309(2)
Re2 Re 0.61010(3) -0.43944(4) 0.02687(2)
Re3 Re 0.44748(3) -0.38777(4) 0.03357(2)
Te1 Te 0.57233(5) -0.38640(7) 0.15327(4)
Te2 Te 0.35098(5) -0.50727(6) 0.09956(4)
Te3 Te 0.67688(5) -0.60977(7) 0.08743(4)
Te4 Te 0.45699(5) -0.73202(6) 0.03151(4)
Mn1 Mn 0.38882(12) -0.26402(15) -0.34896(9)
Mn2 Mn 0.33746(15) -0.15102(18) 0.20061(12)
O1 O 0.3322(6) -0.3775(7) -0.3931(4)
O2 O 0.4754(6) -0.2600(7) -0.4052(4)
O3 O 0.3433(7) -0.0138(8) 0.1873(6)
O4 O 0.4497(6) -0.1549(7) 0.2595(5)
N1 N 0.7994(7) -0.3354(8) 0.0722(5)
N2 N 0.4367(7) -0.1451(9) -0.2961(6)
N3 N 0.3007(7) -0.2484(8) -0.2872(5)
N4 N 0.4679(7) -0.3491(8) -0.2555(5)
N5 N 0.3619(7) -0.2001(8) 0.0993(6)
N6 N 0.2098(8) -0.1459(10) 0.1797(7)
N7 N 0.3137(8) -0.2894(10) 0.2276(6)
C1 C 0.4093(13) -0.1323(14) -0.2294(8)
H1 H 0.4472 -0.1709 -0.1913
H2 H 0.4142 -0.0619 -0.2154
C2 C 0.3210(10) -0.1643(12) -0.2360(8)
H3 H 0.3113 -0.1846 -0.1882
H4 H 0.2816 -0.1087 -0.2531
C3 C 0.2284(8) -0.2925(10) -0.2957(6)
H5 H 0.1905 -0.2747 -0.2649
C4 C 0.1996(9) -0.3684(12) -0.3494(7)
C5 C 0.1113(9) -0.4010(11) -0.3592(7)
H6 H 0.0754 -0.3740 -0.3296
C6 C 0.0784(10) -0.4681(11) -0.4088(7)
H7 H 0.0199 -0.4885 -0.4144
C7 C 0.1312(9) -0.5078(12) -0.4522(7)
H8 H 0.1088 -0.5571 -0.4865
C8 C 0.2139(9) -0.4772(11) -0.4463(7)
H9 H 0.2478 -0.5052 -0.4772
C9 C 0.2513(9) -0.4058(10) -0.3962(6)
C10 C 0.4876(9) -0.0806(10) -0.3174(7)
H10 H 0.5023 -0.0234 -0.2887
C11 C 0.5231(9) -0.0902(11) -0.3818(7)
C12 C 0.5700(8) -0.0104(12) -0.4006(7)
H11 H 0.5751 0.0482 -0.3726
C13 C 0.6078(9) -0.0159(12) -0.4576(7)
H12 H 0.6366 0.0400 -0.4716
C14 C 0.6047(9) -0.1042(13) -0.4968(8)
H13 H 0.6347 -0.1091 -0.5352
C15 C 0.5589(9) -0.1830(14) -0.4800(7)
H14 H 0.5557 -0.2410 -0.5084
C16 C 0.5160(8) -0.1809(10) -0.4215(6)
C17 C 0.1679(9) -0.2295(12) 0.2094(7)
H15 H 0.1077 -0.2388 0.1828
H16 H 0.1677 -0.2194 0.2610
C18 C 0.2254(9) -0.3180(13) 0.1983(8)
H17 H 0.2097 -0.3769 0.2236
H18 H 0.2181 -0.3336 0.1465
C19 C 0.3728(10) -0.3492(13) 0.2615(7)
H19 H 0.3549 -0.4154 0.2657
C20 C 0.4569(9) -0.3291(11) 0.2917(7)
C21 C 0.5100(10) -0.4069(12) 0.3243(8)
H20 H 0.4878 -0.4722 0.3211
C22 C 0.5927(11) -0.3901(14) 0.3603(8)
H21 H 0.6274 -0.4429 0.3828
C23 C 0.6247(10) -0.2971(13) 0.3636(7)
H22 H 0.6814 -0.2853 0.3903
C24 C 0.5770(9) -0.2180(12) 0.3288(7)
H23 H 0.6025 -0.1545 0.3303
C25 C 0.4923(10) -0.2317(14) 0.2921(7)
C26 C 0.1629(11) -0.0777(15) 0.1411(9)
H24 H 0.1021 -0.0867 0.1283
C27 C 0.1987(11) 0.0078(14) 0.1183(8)
C28 C 0.1384(12) 0.0762(16) 0.0726(8)
H25 H 0.0802 0.0571 0.0550
C29 C 0.1667(12) 0.1681(15) 0.0556(9)
H26 H 0.1289 0.2103 0.0238
C30 C 0.2500(13) 0.1982(14) 0.0849(9)
H27 H 0.2686 0.2623 0.0747
C31 C 0.3074(11) 0.1347(12) 0.1297(8)
H28 H 0.3642 0.1570 0.1497
C32 C 0.2831(9) 0.0397(11) 0.1457(7)
C33 C 0.7310(9) -0.3735(10) 0.0558(7)
C34 C 0.4748(9) -0.3830(10) -0.1976(7)
C35 C 0.3896(9) -0.2645(10) 0.0737(7)
Mn1C Mn 0.88882(12) -0.23598(15) 0.15104(9)
Re2B Re 0.38990(3) -0.56056(4) -0.02687(2)
Re1B Re 0.48629(3) -0.44166(4) -0.09309(2)
Re3B Re 0.55252(3) -0.61223(4) -0.03357(2)
Te1B Te 0.42767(5) -0.61360(7) -0.15327(4)
Te2B Te 0.64902(5) -0.49273(6) -0.09956(4)
Te3B Te 0.32312(5) -0.39023(7) -0.08743(4)
Te4B Te 0.54301(5) -0.26798(6) -0.03151(4)
N1C N 0.2994(7) -0.1646(8) -0.4278(5)
C33B C 0.2690(9) -0.6265(10) -0.0558(7)
N1B N 0.2006(7) -0.6646(8) -0.0722(5)
Mn1A Mn 0.11118(12) -0.76402(15) -0.15104(9)
C35B C 0.6104(9) -0.7355(10) -0.0737(7)
N5B N 0.6381(7) -0.7999(8) -0.0993(6)
Mn2B Mn 0.66254(15) -0.84898(18) -0.20061(12)
O3B O 0.6567(7) -0.9862(8) -0.1873(6)
C32B C 0.7169(9) -1.0397(11) -0.1457(7)
C27B C 0.8013(11) -1.0078(14) -0.1183(8)
C26B C 0.8371(11) -0.9223(15) -0.1411(9)
N6B N 0.7902(8) -0.8541(10) -0.1797(7)
O4B O 0.5503(6) -0.8451(7) -0.2595(5)
C25B C 0.5077(10) -0.7683(14) -0.2921(7)
C20B C 0.5431(9) -0.6709(11) -0.2917(7)
C19B C 0.6272(10) -0.6508(13) -0.2615(7)
N7B N 0.6863(8) -0.7106(10) -0.2276(6)
C18B C 0.7746(9) -0.6820(13) -0.1983(8)
C17B C 0.8321(9) -0.7705(12) -0.2094(7)
H15B H 0.8923 -0.7612 -0.1828
H16B H 0.8323 -0.7806 -0.2610
H17B H 0.7903 -0.6231 -0.2236
H18B H 0.7819 -0.6664 -0.1465
H19B H 0.6451 -0.5846 -0.2657
C21B C 0.4900(10) -0.5931(12) -0.3243(8)
H20B H 0.5122 -0.5278 -0.3211
C22B C 0.4073(11) -0.6099(14) -0.3603(8)
H21B H 0.3726 -0.5571 -0.3828
C23B C 0.3753(10) -0.7029(13) -0.3636(7)
H22B H 0.3186 -0.7147 -0.3903
C24B C 0.4230(9) -0.7820(12) -0.3288(7)
H23B H 0.3975 -0.8455 -0.3303
H24B H 0.8979 -0.9133 -0.1283
C28B C 0.8616(12) -1.0762(16) -0.0726(8)
H25B H 0.9198 -1.0571 -0.0550
C29B C 0.8333(12) -1.1681(15) -0.0556(9)
H26B H 0.8711 -1.2103 -0.0238
C30B C 0.7500(13) -1.1982(14) -0.0849(9)
H27B H 0.7314 -1.2623 -0.0747
C31B C 0.6926(11) -1.1347(12) -0.1297(8)
H28B H 0.6358 -1.1570 -0.1497
C34B C 0.5252(9) -0.6170(10) 0.1976(7)
N4B N 0.5321(7) -0.6509(8) 0.2555(5)
Mn1B Mn 0.61118(12) -0.73598(15) 0.34896(9)
O1B O 0.6678(6) -0.6225(7) 0.3931(4)
C9B C 0.7487(9) -0.5942(10) 0.3962(6)
C4B C 0.8004(9) -0.6316(12) 0.3494(7)
C3B C 0.7716(8) -0.7075(10) 0.2957(6)
N3B N 0.6993(7) -0.7516(8) 0.2872(5)
O2B O 0.5246(6) -0.7400(7) 0.4052(4)
C16B C 0.4840(8) -0.8191(10) 0.4215(6)
C11B C 0.4769(9) -0.9098(11) 0.3818(7)
C10B C 0.5124(9) -0.9194(10) 0.3174(7)
N2B N 0.5633(7) -0.8549(9) 0.2961(6)
N1A N 0.7006(7) -0.8354(8) 0.4278(5)
C1B C 0.5907(13) -0.8677(14) 0.2294(8)
H1B H 0.5528 -0.8291 0.1913
H2B H 0.5858 -0.9381 0.2154
C2B C 0.6790(10) -0.8357(12) 0.2360(8)
H3B H 0.6887 -0.8154 0.1882
H4B H 0.7184 -0.8913 0.2531
H10B H 0.4977 -0.9766 0.2887
C12B C 0.4300(8) -0.9896(12) 0.4006(7)
H11B H 0.4249 -1.0482 0.3726
C13B C 0.3922(9) -0.9841(12) 0.4576(7)
H12B H 0.3634 -1.0400 0.4716
C14B C 0.3953(9) -0.8958(13) 0.4968(8)
H13B H 0.3653 -0.8909 0.5352
C15B C 0.4411(9) -0.8170(14) 0.4800(7)
H14B H 0.4443 -0.7590 0.5084
H5B H 0.8095 -0.7253 0.2649
C5B C 0.8887(9) -0.5990(11) 0.3592(7)
H6B H 0.9246 -0.6260 0.3296
C6B C 0.9216(10) -0.5319(11) 0.4088(7)
H7B H 0.9801 -0.5115 0.4144
C7B C 0.8688(9) -0.4922(12) 0.4522(7)
H8B H 0.8912 -0.4429 0.4865
C8B C 0.7861(9) -0.5228(11) 0.4463(7)
H9B H 0.7522 -0.4948 0.4772
loop_
_geom_bond_atom_site_label_1
_geom_bond_atom_site_label_2
_geom_bond_site_symmetry_1
_geom_bond_site_symmetry_2
Re1 Re2 1_555 1_555
Re2 Re3 1_555 1_555
Re3 Re1 1_555 1_555
Te1 Re1 1_555 1_555
Te2 Re1 1_555 1_555
Te3 Re1 1_555 1_555
Te4 Re1 1_555 1_555
Mn1 O1 1_555 1_555
Mn2 O3 1_555 1_555
O1 C9 1_555 1_555
O2 Mn1 1_555 1_555
O3 C32 1_555 1_555
O4 Mn2 1_555 1_555
N1 C33 1_555 1_555
N2 Mn1 1_555 1_555
N3 Mn1 1_555 1_555
N4 Mn1 1_555 1_555
N5 Mn2 1_555 1_555
N6 Mn2 1_555 1_555
N7 Mn2 1_555 1_555
C1 N2 1_555 1_555
H1 C1 1_555 1_555
H2 C1 1_555 1_555
C2 N3 1_555 1_555
H3 C2 1_555 1_555
H4 C2 1_555 1_555
C3 N3 1_555 1_555
H5 C3 1_555 1_555
C4 C3 1_555 1_555
C5 C4 1_555 1_555
H6 C5 1_555 1_555
C6 C5 1_555 1_555
H7 C6 1_555 1_555
C7 C6 1_555 1_555
H8 C7 1_555 1_555
C8 C7 1_555 1_555
H9 C8 1_555 1_555
C9 C4 1_555 1_555
C10 N2 1_555 1_555
H10 C10 1_555 1_555
C11 C10 1_555 1_555
C12 C11 1_555 1_555
H11 C12 1_555 1_555
C13 C12 1_555 1_555
H12 C13 1_555 1_555
C14 C13 1_555 1_555
H13 C14 1_555 1_555
C15 C14 1_555 1_555
H14 C15 1_555 1_555
C16 O2 1_555 1_555
C17 N6 1_555 1_555
H15 C17 1_555 1_555
H16 C17 1_555 1_555
C18 N7 1_555 1_555
H17 C18 1_555 1_555
H18 C18 1_555 1_555
C19 N7 1_555 1_555
H19 C19 1_555 1_555
C20 C19 1_555 1_555
C21 C20 1_555 1_555
H20 C21 1_555 1_555
C22 C21 1_555 1_555
H21 C22 1_555 1_555
C23 C22 1_555 1_555
H22 C23 1_555 1_555
C24 C23 1_555 1_555
H23 C24 1_555 1_555
C25 O4 1_555 1_555
C26 N6 1_555 1_555
H24 C26 1_555 1_555
C27 C26 1_555 1_555
C28 C27 1_555 1_555
H25 C28 1_555 1_555
C29 C28 1_555 1_555
H26 C29 1_555 1_555
C30 C29 1_555 1_555
H27 C30 1_555 1_555
C31 C30 1_555 1_555
H28 C31 1_555 1_555
C32 C27 1_555 1_555
C33 Re2 1_555 1_555
C34 N4 1_555 1_555
C35 Re3 1_555 1_555
Mn1C N1 1_555 1_555
Re2B Re1 1_555 1_555
Re1B Re2 1_555 1_555
Re3B Re1 1_555 1_555
Te1B Re2B 1_555 1_555
Te2B Re2 1_555 1_555
Te3B Re3 1_555 1_555
Te4B Re2 1_555 1_555
N1C Mn1 1_555 1_555
C33B Re2B 1_555 1_555
N1B C33B 1_555 1_555
Mn1A N1B 1_555 1_555
C35B Re3B 1_555 1_555
N5B C35B 1_555 1_555
Mn2B N5B 1_555 1_555
O3B Mn2B 1_555 1_555
C32B O3B 1_555 1_555
C27B C32B 1_555 1_555
C26B C27B 1_555 1_555
N6B Mn2B 1_555 1_555
O4B Mn2B 1_555 1_555
C25B O4B 1_555 1_555
C20B C25B 1_555 1_555
C19B C20B 1_555 1_555
N7B Mn2B 1_555 1_555
C18B N7B 1_555 1_555
C17B N6B 1_555 1_555
H15B C17B 1_555 1_555
H16B C17B 1_555 1_555
H17B C18B 1_555 1_555
H18B C18B 1_555 1_555
H19B C19B 1_555 1_555
C21B C20B 1_555 1_555
H20B C21B 1_555 1_555
C22B C21B 1_555 1_555
H21B C22B 1_555 1_555
C23B C22B 1_555 1_555
H22B C23B 1_555 1_555
C24B C25B 1_555 1_555
H23B C24B 1_555 1_555
H24B C26B 1_555 1_555
C28B C27B 1_555 1_555
H25B C28B 1_555 1_555
C29B C28B 1_555 1_555
H26B C29B 1_555 1_555
C30B C29B 1_555 1_555
H27B C30B 1_555 1_555
C31B C32B 1_555 1_555
H28B C31B 1_555 1_555
C34B Re1 1_555 1_555
N4B C34B 1_555 1_555
Mn1B N4B 1_555 1_555
O1B Mn1B 1_555 1_555
C9B O1B 1_555 1_555
C4B C9B 1_555 1_555
C3B C4B 1_555 1_555
N3B Mn1B 1_555 1_555
O2B Mn1B 1_555 1_555
C16B O2B 1_555 1_555
C11B C16B 1_555 1_555
C10B C11B 1_555 1_555
N2B Mn1B 1_555 1_555
N1A Mn1B 1_555 1_555
C1B N2B 1_555 1_555
H1B C1B 1_555 1_555
H2B C1B 1_555 1_555
C2B N3B 1_555 1_555
H3B C2B 1_555 1_555
H4B C2B 1_555 1_555
H10B C10B 1_555 1_555
C12B C11B 1_555 1_555
H11B C12B 1_555 1_555
C13B C12B 1_555 1_555
H12B C13B 1_555 1_555
C14B C13B 1_555 1_555
H13B C14B 1_555 1_555
C15B C16B 1_555 1_555
H14B C15B 1_555 1_555
H5B C3B 1_555 1_555
C5B C4B 1_555 1_555
H6B C5B 1_555 1_555
C6B C5B 1_555 1_555
H7B C6B 1_555 1_555
C7B C6B 1_555 1_555
H8B C7B 1_555 1_555
C8B C9B 1_555 1_555
H9B C8B 1_555 1_555
Re2 Te1 1_555 1_555
Re2 Te3 1_555 1_555
Re2 Re3B 1_555 1_555
Re3 Te1 1_555 1_555
Re3 Te2 1_555 1_555
Re3 Re2B 1_555 1_555
Re3 Re1B 1_555 1_555
Re3 Te4B 1_555 1_555
Te2 Re2B 1_555 1_555
Te3 Re3B 1_555 1_555
Te4 Re2B 1_555 1_555
Te4 Re3B 1_555 1_555
N5 C35 1_555 1_555
C1 C2 1_555 1_555
C8 C9 1_555 1_555
C11 C16 1_555 1_555
C15 C16 1_555 1_555
C17 C18 1_555 1_555
C20 C25 1_555 1_555
C24 C25 1_555 1_555
C31 C32 1_555 1_555
C34 Re1B 1_555 1_555
Re2B Re1B 1_555 1_555
Re2B Re3B 1_555 1_555
Re2B Te3B 1_555 1_555
Re1B Re3B 1_555 1_555
Re1B Te1B 1_555 1_555
Re1B Te2B 1_555 1_555
Re1B Te3B 1_555 1_555
Re1B Te4B 1_555 1_555
Re3B Te1B 1_555 1_555
Re3B Te2B 1_555 1_555
C26B N6B 1_555 1_555
C19B N7B 1_555 1_555
C18B C17B 1_555 1_555
C23B C24B 1_555 1_555
C30B C31B 1_555 1_555
C3B N3B 1_555 1_555
C10B N2B 1_555 1_555
C1B C2B 1_555 1_555
C14B C15B 1_555 1_555
C7B C8B 1_555 1_555

#END
