
#######################################################################
#
#                 Cambridge Crystallographic Data Centre
#                                CCDC 
#
#######################################################################
#
# If this CIF has been generated from an entry in the Cambridge 
# Structural Database, then it will include bibliographic, chemical, 
# crystal, experimental, refinement or atomic coordinate data resulting 
# from the CCDC's data processing and validation procedures.
#
#######################################################################

data_ACAJEU
_symmetry_cell_setting           monoclinic
_symmetry_space_group_name_H-M   'C 2/c'
_symmetry_Int_Tables_number      15
_space_group_name_Hall           '-C 2yn'
loop_
_symmetry_equiv_pos_site_id
_symmetry_equiv_pos_as_xyz
1 x,y,z
2 1/2+x,1/2+y,z
3 -x,y,1/2-z
4 1/2-x,1/2+y,1/2-z
5 -x,-y,-z
6 1/2-x,1/2-y,-z
7 x,-y,1/2+z
8 1/2+x,1/2-y,1/2+z
_cell_length_a                   18.5212(11)
_cell_length_b                   8.9503(5)
_cell_length_c                   18.0019(9)
_cell_angle_alpha                90
_cell_angle_beta                 90.566(7)
_cell_angle_gamma                90
_cell_volume                     2984.03
loop_
_atom_site_label
_atom_site_type_symbol
_atom_site_fract_x
_atom_site_fract_y
_atom_site_fract_z
Cu1 Cu 0.0000 1.0000 1.0000
N1 N 0.06071(8) 0.59752(18) 0.90409(8)
N2 N 0.11525(8) 0.69292(17) 0.89479(8)
N3 N 0.10738(8) 0.82119(18) 0.92822(8)
N4 N 0.04423(8) 0.81245(17) 0.96184(8)
C1 C 0.01696(10) 0.6762(2) 0.94696(10)
N5 N 0.17605(9) 1.0049(2) 0.65149(9)
N6 N 0.12274(8) 0.93818(18) 0.68756(8)
N7 N 0.06268(8) 0.92313(18) 0.64892(8)
N8 N 0.07663(8) 0.98408(17) 0.58343(8)
C2 C 0.14528(11) 1.0323(2) 0.58575(11)
N9 N 0.15463(9) 1.2715(2) 0.85071(9)
N10 N 0.08876(8) 1.26228(18) 0.82041(8)
N11 N 0.04163(9) 1.1921(2) 0.86197(9)
N12 N 0.07697(9) 1.15157(18) 0.92309(8)
C3 C 0.14508(11) 1.2006(2) 0.91498(10)
C4 C 0.17555(10) 0.6683(2) 0.84403(10)
C5 C 0.15659(11) 0.7219(2) 0.76550(10)
C6 C 0.13137(11) 0.8841(2) 0.76454(9)
C7 C 0.06979(11) 1.3260(2) 0.74760(10)
C8 C 0.0000 1.4152(3) 0.7500
H1 H 0.1847(12) 0.561(3) 0.8434(12)
H2 H 0.0847(13) 0.896(3) 0.7872(13)
H3 H 0.2140(12) 0.725(2) 0.8653(11)
H4 H 0.0661(12) 1.243(3) 0.7123(12)
H5 H -0.0267(14) 0.641(3) 0.9624(13)
H6 H 0.1640(14) 0.951(3) 0.7883(13)
H7 H 0.1999(15) 0.715(3) 0.7364(14)
H8 H 0.1214(14) 0.660(3) 0.7445(13)
H9 H 0.1112(15) 1.387(3) 0.7346(14)
H10 H 0.0023(16) 1.480(3) 0.7909(15)
H11 H 0.1673(15) 1.077(3) 0.5454(15)
H12 H 0.1804(15) 1.189(3) 0.9521(14)
C7B C -0.06979(11) 1.3260(2) 0.75240(10)
N10B N -0.08876(8) 1.26228(18) 0.67959(8)
N9B N -0.15463(9) 1.2715(2) 0.64929(9)
C3B C -0.14508(11) 1.2006(2) 0.58502(10)
N12B N -0.07697(9) 1.15157(18) 0.57691(8)
N11B N -0.04163(9) 1.1921(2) 0.63803(9)
H12B H -0.1804(15) 1.189(3) 0.5479(14)
H4B H -0.0661(12) 1.243(3) 0.7877(12)
H9B H -0.1112(15) 1.387(3) 0.7654(14)
H10B H -0.0023(16) 1.480(3) 0.7091(15)
N1D N -0.06071(8) 1.40248(18) 1.09591(8)
N2D N -0.11525(8) 1.30708(17) 1.10521(8)
N3D N -0.10738(8) 1.17881(18) 1.07178(8)
N4D N -0.04423(8) 1.18755(17) 1.03816(8)
C1D C -0.01696(10) 1.3238(2) 1.05304(10)
N5D N -0.17605(9) 0.9951(2) 1.34851(9)
N6D N -0.12274(8) 1.06182(18) 1.31244(8)
N7D N -0.06268(8) 1.07687(18) 1.35108(8)
N8D N -0.07663(8) 1.01592(17) 1.41657(8)
C2D C -0.14528(11) 0.9677(2) 1.41425(11)
C4D C -0.17555(10) 1.3317(2) 1.15597(10)
C5D C -0.15659(11) 1.2781(2) 1.23450(10)
C6D C -0.13137(11) 1.1159(2) 1.23546(9)
H1D H -0.1847(12) 1.439(3) 1.1566(12)
H2D H -0.0847(13) 1.104(3) 1.2128(13)
H3D H -0.2140(12) 1.275(2) 1.1347(11)
H5D H 0.0267(14) 1.359(3) 1.0376(13)
H6D H -0.1640(14) 1.049(3) 1.2117(13)
H7D H -0.1999(15) 1.285(3) 1.2636(14)
H8D H -0.1214(14) 1.340(3) 1.2555(13)
H11D H -0.1673(15) 0.923(3) 1.4546(15)
N8F N 0.07663(8) 1.01592(17) 1.08343(8)
N8B N -0.07663(8) 0.98408(17) 0.91657(8)
N12D N -0.07697(9) 0.84843(18) 1.07691(8)
Cu1F Cu 0.0000 1.0000 0.5000
Cu1F_2 Cu 0.0000 1.0000 1.5000
Cl1 Cl 0.17543(2) 0.50592(5) 1.08081(2)
O1 O 0.21414(8) 0.54017(18) 1.14888(8)
O2 O 0.10606(8) 0.5785(2) 1.08176(9)
O3 O 0.16469(11) 0.3474(2) 1.07587(10)
O4 O 0.21552(10) 0.5577(3) 1.01829(10)
loop_
_geom_bond_atom_site_label_1
_geom_bond_atom_site_label_2
_geom_bond_site_symmetry_1
_geom_bond_site_symmetry_2
Cu1 N4 1_555 1_555
N1 N2 1_555 1_555
N2 N3 1_555 1_555
N3 N4 1_555 1_555
N4 C1 1_555 1_555
C1 N1 1_555 1_555
N5 N6 1_555 1_555
N6 N7 1_555 1_555
N7 N8 1_555 1_555
N8 C2 1_555 1_555
C2 N5 1_555 1_555
N9 N10 1_555 1_555
N10 N11 1_555 1_555
N11 N12 1_555 1_555
N12 Cu1 1_555 1_555
C3 N9 1_555 1_555
C4 N2 1_555 1_555
C5 C4 1_555 1_555
C6 N6 1_555 1_555
C7 N10 1_555 1_555
C8 C7 1_555 1_555
H1 C4 1_555 1_555
H2 C6 1_555 1_555
H3 C4 1_555 1_555
H4 C7 1_555 1_555
H5 C1 1_555 1_555
H6 C6 1_555 1_555
H7 C5 1_555 1_555
H8 C5 1_555 1_555
H9 C7 1_555 1_555
H10 C8 1_555 1_555
H11 C2 1_555 1_555
H12 C3 1_555 1_555
Cl1 O1 1_555 1_555
O2 Cl1 1_555 1_555
O3 Cl1 1_555 1_555
O4 Cl1 1_555 1_555
C7B C8 1_555 1_555
N10B C7B 1_555 1_555
N9B N10B 1_555 1_555
C3B N9B 1_555 1_555
N12B C3B 1_555 1_555
N11B N10B 1_555 1_555
H12B C3B 1_555 1_555
H4B C7B 1_555 1_555
H9B C7B 1_555 1_555
H10B C8 1_555 1_555
N1D N2D 1_555 1_555
N2D N3D 1_555 1_555
N3D N4D 1_555 1_555
N4D Cu1 1_555 1_555
C1D N1D 1_555 1_555
N5D N6D 1_555 1_555
N6D N7D 1_555 1_555
N7D N8D 1_555 1_555
N8D C2D 1_555 1_555
C2D N5D 1_555 1_555
C4D N2D 1_555 1_555
C5D C4D 1_555 1_555
C6D N6D 1_555 1_555
H1D C4D 1_555 1_555
H2D C6D 1_555 1_555
H3D C4D 1_555 1_555
H5D C1D 1_555 1_555
H6D C6D 1_555 1_555
H7D C5D 1_555 1_555
H8D C5D 1_555 1_555
H11D C2D 1_555 1_555
N8F Cu1 1_555 1_555
N8B Cu1 1_555 1_555
N12D Cu1 1_555 1_555
Cu1F N8 1_555 1_555
Cu1F_2 N8D 1_555 1_555
N12 C3 1_555 1_555
C5 C6 1_555 1_555
N12B N11B 1_555 1_555
N12B Cu1F 1_555 1_555
N4D C1D 1_555 1_555
C5D C6D 1_555 1_555

#END
