
#######################################################################
#
#                 Cambridge Crystallographic Data Centre
#                                CCDC 
#
#######################################################################
#
# If this CIF has been generated from an entry in the Cambridge 
# Structural Database, then it will include bibliographic, chemical, 
# crystal, experimental, refinement or atomic coordinate data resulting 
# from the CCDC's data processing and validation procedures.
#
#######################################################################

data_ACAKUM
_symmetry_cell_setting           monoclinic
_symmetry_space_group_name_H-M   'P 21/c'
_symmetry_Int_Tables_number      14
_space_group_name_Hall           '-P 2ybc'
loop_
_symmetry_equiv_pos_site_id
_symmetry_equiv_pos_as_xyz
1 x,y,z
2 -x,1/2+y,1/2-z
3 -x,-y,-z
4 x,1/2-y,1/2+z
_cell_length_a                   10.779(2)
_cell_length_b                   21.445(4)
_cell_length_c                   10.395(2)
_cell_angle_alpha                90
_cell_angle_beta                 112.06(3)
_cell_angle_gamma                90
_cell_volume                     2226.95
loop_
_atom_site_label
_atom_site_type_symbol
_atom_site_fract_x
_atom_site_fract_y
_atom_site_fract_z
La1 La 0.240573(18) 0.472202(8) 0.233056(17)
O1 O 0.2765(3) 0.13011(12) 0.4149(2)
O2 O 0.3990(2) 0.42324(11) 0.4761(2)
O3 O 1.1614(3) 0.29703(11) 1.7100(2)
H1 H 1.1951 0.3265 1.7711
O4 O 0.3230(3) 0.56300(12) 0.4214(3)
O5 O 0.9155(3) 0.06172(12) 1.3425(3)
O6 O 0.2403(2) 0.36208(11) 0.3377(2)
N1 N 0.7629(3) 0.27331(14) 1.1222(3)
O7 O 1.0905(3) 0.37638(12) 1.5623(3)
O8 O 0.3648(3) 0.09967(11) 0.6344(2)
N2 N 0.7250(3) 0.33375(14) 1.1021(3)
C1 C 0.3387(3) 0.37055(15) 0.4471(3)
C2 C 0.8587(3) 0.25100(15) 1.2545(3)
O9 O 0.4841(3) 0.50915(14) 0.2828(3)
C3 C 0.8723(3) 0.18780(15) 1.2836(3)
H2 H 0.8216 0.1592 1.2175
C4 C 0.9786(3) 0.09754(15) 1.4401(3)
C5 C 0.9616(3) 0.16689(15) 1.4116(3)
O10 O 0.0865(3) 0.47018(14) 0.3677(3)
O11 O 1.0536(3) 0.08038(12) 1.5584(3)
C6 C 1.0197(3) 0.27309(15) 1.4824(3)
C7 C 0.6166(3) 0.28407(14) 0.9120(3)
C8 C 0.5236(3) 0.27507(15) 0.7709(3)
C9 C 0.4814(3) 0.32622(15) 0.6823(3)
H3 H 0.5134 0.3660 0.7130
C10 C 1.0942(3) 0.32109(16) 1.5888(3)
C11 C 0.9345(3) 0.29414(15) 1.3532(3)
H4 H 0.9280 0.3365 1.3326
C12 C 0.3381(3) 0.14092(15) 0.5412(3)
C13 C 1.0341(3) 0.20966(15) 1.5132(3)
H5 H 1.0912 0.1960 1.6002
O12 O 0.2515(5) 0.52470(17) 0.0106(4)
C14 C 0.6947(3) 0.24098(15) 1.0037(3)
H6 H 0.7001 0.1985 0.9884
C15 C 0.3907(3) 0.31687(15) 0.5471(3)
N3 N 0.6375(3) 0.34050(14) 0.9742(3)
C16 C 0.4764(3) 0.21573(15) 0.7253(3)
H7 H 0.5041 0.1821 0.7858
C17 C 0.3448(3) 0.25712(15) 0.5007(3)
H8 H 0.2851 0.2513 0.4098
C18 C 0.3872(3) 0.20622(15) 0.5886(3)
La1A La 0.759427(18) 0.972202(8) 1.266944(17)
La1A_2 La 0.759427(18) -0.027798(8) 1.266944(17)
La1C La 0.240573(18) 0.027798(8) 0.733056(17)
La1C_2 La 1.240573(18) 0.027798(8) 1.733056(17)
La1B La 0.759427(18) 0.527798(8) 0.766944(17)
La1B_2 La -0.240573(18) 0.527798(8) -0.233056(17)
O1A O 0.7235(3) 0.63011(12) 1.0851(2)
O2A O 0.6010(2) 0.92324(11) 1.0239(2)
O3A O -0.1614(3) 0.79703(11) -0.2100(2)
H1A H -0.1951 0.8265 -0.2711
O4A O 0.6770(3) 1.06300(12) 1.0786(3)
O5A O 0.0845(3) 0.56172(12) 0.1575(3)
O5_2 O 0.9155(3) 1.06172(12) 1.3425(3)
O6A O 0.7597(2) 0.86208(11) 1.1623(2)
N1A N 0.2371(3) 0.77331(14) 0.3778(3)
O7A O -0.0905(3) 0.87638(12) -0.0623(3)
O8A O 0.6352(3) 0.59967(11) 0.8656(2)
O8C O 0.3648(3) 0.40033(11) 0.1344(2)
O8B O 0.6352(3) 0.90033(11) 1.3656(2)
N2A N 0.2750(3) 0.83375(14) 0.3979(3)
C1A C 0.6613(3) 0.87055(15) 1.0529(3)
C2A C 0.1413(3) 0.75100(15) 0.2455(3)
O9A O 0.5159(3) 1.00915(14) 1.2172(3)
C3A C 0.1277(3) 0.68780(15) 0.2164(3)
H2A H 0.1784 0.6592 0.2825
C4A C 0.0214(3) 0.59754(15) 0.0599(3)
C5A C 0.0384(3) 0.66689(15) 0.0884(3)
O10A O 0.9135(3) 0.97018(14) 1.1323(3)
O11A O -0.0536(3) 0.58038(12) -0.0584(3)
O11C O 0.0536(3) 0.41962(12) 0.0584(3)
O11B O 0.9464(3) 0.91962(12) 1.4416(3)
C6A C -0.0197(3) 0.77309(15) 0.0176(3)
C7A C 0.3834(3) 0.78407(14) 0.5880(3)
C8A C 0.4764(3) 0.77507(15) 0.7291(3)
C9A C 0.5186(3) 0.82622(15) 0.8177(3)
H3A H 0.4866 0.8660 0.7870
C10A C -0.0942(3) 0.82109(16) -0.0888(3)
C11A C 0.0655(3) 0.79414(15) 0.1468(3)
H4A H 0.0720 0.8365 0.1674
C12A C 0.6619(3) 0.64092(15) 0.9588(3)
C13A C -0.0341(3) 0.70966(15) -0.0132(3)
H5A H -0.0912 0.6960 -0.1002
O12A O 0.7485(5) 1.02470(17) 1.4894(4)
C14A C 0.3053(3) 0.74098(15) 0.4963(3)
H6A H 0.2999 0.6985 0.5116
C15A C 0.6093(3) 0.81687(15) 0.9529(3)
N3A N 0.3625(3) 0.84050(14) 0.5258(3)
C16A C 0.5236(3) 0.71573(15) 0.7747(3)
H7A H 0.4959 0.6821 0.7142
C17A C 0.6552(3) 0.75712(15) 0.9993(3)
H8A H 0.7149 0.7513 1.0902
C18A C 0.6128(3) 0.70622(15) 0.9114(3)
O13 O 0.8380(4) 0.52203(16) 0.2693(4)
O14 O 0.2973(4) 0.5781(2) 0.6826(4)
O15 O 0.5000 0.5000 0.0000
loop_
_geom_bond_atom_site_label_1
_geom_bond_atom_site_label_2
_geom_bond_site_symmetry_1
_geom_bond_site_symmetry_2
La1 O2 1_555 1_555
O1 C12 1_555 1_555
O2 C1 1_555 1_555
O3 H1 1_555 1_555
O4 La1 1_555 1_555
O5 C4 1_555 1_555
O6 La1 1_555 1_555
N1 N2 1_555 1_555
O7 C10 1_555 1_555
O8 C12 1_555 1_555
N2 N3 1_555 1_555
C1 O6 1_555 1_555
C2 N1 1_555 1_555
O9 La1 1_555 1_555
C3 C2 1_555 1_555
H2 C3 1_555 1_555
C4 C5 1_555 1_555
C5 C3 1_555 1_555
O10 La1 1_555 1_555
O11 C4 1_555 1_555
C6 C10 1_555 1_555
C7 C8 1_555 1_555
C8 C9 1_555 1_555
C9 H3 1_555 1_555
C10 O3 1_555 1_555
C11 C2 1_555 1_555
H4 C11 1_555 1_555
C12 C18 1_555 1_555
C13 C5 1_555 1_555
H5 C13 1_555 1_555
O12 La1 1_555 1_555
C14 N1 1_555 1_555
H6 C14 1_555 1_555
C15 C1 1_555 1_555
N3 C7 1_555 1_555
C16 C8 1_555 1_555
H7 C16 1_555 1_555
C17 C15 1_555 1_555
H8 C17 1_555 1_555
C18 C16 1_555 1_555
La1A O2A 1_555 1_555
La1A_2 O5 1_555 1_555
La1C O8 1_555 1_555
La1C_2 O11 1_555 1_555
La1B O8A 1_555 1_555
La1B_2 O11A 1_555 1_555
O1A C12A 1_555 1_555
O2A C1A 1_555 1_555
O3A H1A 1_555 1_555
O4A La1A 1_555 1_555
O5A La1 1_555 1_555
O5_2 La1A 1_555 1_555
O6A La1A 1_555 1_555
N1A N2A 1_555 1_555
O7A C10A 1_555 1_555
O8A C12A 1_555 1_555
O8C La1 1_555 1_555
O8B La1A 1_555 1_555
N2A N3A 1_555 1_555
C1A O6A 1_555 1_555
C2A N1A 1_555 1_555
O9A La1A 1_555 1_555
C3A C2A 1_555 1_555
H2A C3A 1_555 1_555
C4A O5A 1_555 1_555
C5A C3A 1_555 1_555
O10A La1A 1_555 1_555
O11A C4A 1_555 1_555
O11C La1 1_555 1_555
O11B La1A 1_555 1_555
C6A C10A 1_555 1_555
C7A C8A 1_555 1_555
C8A C9A 1_555 1_555
C9A H3A 1_555 1_555
C10A O3A 1_555 1_555
C11A C2A 1_555 1_555
H4A C11A 1_555 1_555
C12A C18A 1_555 1_555
C13A C5A 1_555 1_555
H5A C13A 1_555 1_555
O12A La1A 1_555 1_555
C14A N1A 1_555 1_555
H6A C14A 1_555 1_555
C15A C1A 1_555 1_555
N3A C7A 1_555 1_555
C16A C8A 1_555 1_555
H7A C16A 1_555 1_555
C17A C15A 1_555 1_555
H8A C17A 1_555 1_555
C18A C16A 1_555 1_555
C6 C11 1_555 1_555
C6 C13 1_555 1_555
C7 C14 1_555 1_555
C9 C15 1_555 1_555
C17 C18 1_555 1_555
C4A C5A 1_555 1_555
C6A C11A 1_555 1_555
C6A C13A 1_555 1_555
C7A C14A 1_555 1_555
C9A C15A 1_555 1_555
C17A C18A 1_555 1_555

#END
