
#######################################################################
#
#                 Cambridge Crystallographic Data Centre
#                                CCDC 
#
#######################################################################
#
# If this CIF has been generated from an entry in the Cambridge 
# Structural Database, then it will include bibliographic, chemical, 
# crystal, experimental, refinement or atomic coordinate data resulting 
# from the CCDC's data processing and validation procedures.
#
#######################################################################

data_ACALAT
_symmetry_cell_setting           monoclinic
_symmetry_space_group_name_H-M   'P 21/c'
_symmetry_Int_Tables_number      14
_space_group_name_Hall           '-P 2ybc'
loop_
_symmetry_equiv_pos_site_id
_symmetry_equiv_pos_as_xyz
1 x,y,z
2 -x,1/2+y,1/2-z
3 -x,-y,-z
4 x,1/2-y,1/2+z
_cell_length_a                   10.491(2)
_cell_length_b                   20.597(4)
_cell_length_c                   10.108(2)
_cell_angle_alpha                90
_cell_angle_beta                 109.95(3)
_cell_angle_gamma                90
_cell_volume                     2053.1
loop_
_atom_site_label
_atom_site_type_symbol
_atom_site_fract_x
_atom_site_fract_y
_atom_site_fract_z
Eu1 Eu -0.22592(5) 0.02606(2) 0.27290(6)
O1 O -0.0399(7) 0.0867(3) 0.4300(8)
O2 O -0.1560(7) 0.3109(3) 0.2991(8)
H1 H -0.1830 0.3408 0.2379
O3 O 0.5988(8) 0.4254(4) 1.5523(9)
C1 C 0.4857(9) 0.2789(4) 1.2367(10)
O4 O -0.0526(8) 0.3941(3) 0.4301(8)
O5 O -0.3152(8) -0.0592(4) 0.0729(9)
N1 N 0.2524(8) 0.2821(4) 0.8831(9)
C2 C 0.1560(10) 0.2612(5) 0.7461(11)
N2 N 0.3696(9) 0.3506(4) 1.0336(10)
C3 C 0.6704(10) 0.3763(5) 1.5650(11)
N3 N 0.2864(9) 0.3459(4) 0.9099(10)
C4 C 0.3184(10) 0.2475(4) 0.9972(10)
H2 H 0.3144 0.2028 1.0078
O6 O 0.7855(7) 0.3718(4) 1.6549(8)
C5 C 0.3924(9) 0.2903(4) 1.0947(10)
C6 C 0.0506(9) 0.1752(4) 0.5839(10)
C7 C -0.0725(10) 0.3369(5) 0.4119(10)
C8 C -0.0005(9) 0.2864(4) 0.5189(10)
C9 C 0.0327(10) 0.1030(4) 0.5493(11)
C10 C 0.0869(9) 0.3071(4) 0.6477(11)
H3 H 0.0991 0.3511 0.6681
C11 C -0.0188(9) 0.2207(5) 0.4848(11)
H4 H -0.0769 0.2076 0.3968
C12 C 0.5280(10) 0.3306(5) 1.3320(11)
H5 H 0.4945 0.3722 1.3053
O7 O -0.0582(9) 0.0164(4) 0.1453(10)
O8 O -0.2015(9) 0.0001(4) 0.5352(10)
C13 C 0.6199(9) 0.3197(5) 1.4662(10)
C14 C 0.5302(10) 0.2176(5) 1.2803(11)
H6 H 0.4994 0.1829 1.2187
C15 C 0.6637(10) 0.2580(5) 1.5086(11)
H7 H 0.7221 0.2507 1.6000
C16 C 0.1381(10) 0.1956(4) 0.7131(11)
H8 H 0.1857 0.1650 0.7791
C17 C 0.6213(10) 0.2062(4) 1.4158(11)
O9 O 0.6462(8) 0.0994(4) 1.3572(8)
O10 O 0.7273(8) 0.1222(3) 1.5795(8)
O11 O 0.0940(8) 0.0653(3) 0.6476(8)
C18 C 0.6705(10) 0.1385(5) 1.4561(12)
O12 O -0.4270(10) -0.0296(4) 0.2953(12)
Eu1C Eu 0.77408(5) 0.47394(2) 1.77290(6)
Eu1_2 Eu 0.77408(5) 0.02606(2) 1.27290(6)
Eu1B Eu 0.22592(5) -0.02606(2) 0.72710(6)
O3C O -0.4012(8) 0.0746(4) 0.0523(9)
O6C O -0.2145(7) 0.1282(4) 0.1549(8)
O9_2 O -0.3538(8) 0.0994(4) 0.3572(8)
O11B O -0.0940(8) -0.0653(3) 0.3524(8)
O13 O 0.3173(15) 0.0387(7) 0.2222(16)
loop_
_geom_bond_atom_site_label_1
_geom_bond_atom_site_label_2
_geom_bond_site_symmetry_1
_geom_bond_site_symmetry_2
Eu1 O1 1_555 1_555
O1 C9 1_555 1_555
O2 H1 1_555 1_555
O3 C3 1_555 1_555
C1 C5 1_555 1_555
O4 C7 1_555 1_555
O5 Eu1 1_555 1_555
N1 C2 1_555 1_555
C2 C10 1_555 1_555
N2 N3 1_555 1_555
C3 O6 1_555 1_555
N3 N1 1_555 1_555
C4 N1 1_555 1_555
H2 C4 1_555 1_555
O6 Eu1C 1_555 1_555
C5 N2 1_555 1_555
C6 C9 1_555 1_555
C7 O2 1_555 1_555
C8 C7 1_555 1_555
C9 O11 1_555 1_555
C10 C8 1_555 1_555
H3 C10 1_555 1_555
C11 C6 1_555 1_555
H4 C11 1_555 1_555
C12 C1 1_555 1_555
H5 C12 1_555 1_555
O7 Eu1 1_555 1_555
O8 Eu1 1_555 1_555
C13 C3 1_555 1_555
C14 C1 1_555 1_555
H6 C14 1_555 1_555
C15 C13 1_555 1_555
H7 C15 1_555 1_555
C16 C2 1_555 1_555
H8 C16 1_555 1_555
C17 C14 1_555 1_555
O9 C18 1_555 1_555
O10 C18 1_555 1_555
O11 Eu1B 1_555 1_555
C18 C17 1_555 1_555
O12 Eu1 1_555 1_555
Eu1C O3 1_555 1_555
Eu1_2 O9 1_555 1_555
O3C Eu1 1_555 1_555
O6C Eu1 1_555 1_555
O9_2 Eu1 1_555 1_555
O11B Eu1 1_555 1_555
C4 C5 1_555 1_555
C6 C16 1_555 1_555
C8 C11 1_555 1_555
C12 C13 1_555 1_555
C15 C17 1_555 1_555

#END
