
#######################################################################
#
#                 Cambridge Crystallographic Data Centre
#                                CCDC 
#
#######################################################################
#
# If this CIF has been generated from an entry in the Cambridge 
# Structural Database, then it will include bibliographic, chemical, 
# crystal, experimental, refinement or atomic coordinate data resulting 
# from the CCDC's data processing and validation procedures.
#
#######################################################################

data_ACALIB
_symmetry_cell_setting           monoclinic
_symmetry_space_group_name_H-M   'P 21/c'
_symmetry_Int_Tables_number      14
_space_group_name_Hall           '-P 2ybc'
loop_
_symmetry_equiv_pos_site_id
_symmetry_equiv_pos_as_xyz
1 x,y,z
2 -x,1/2+y,1/2-z
3 -x,-y,-z
4 x,1/2-y,1/2+z
_cell_length_a                   11.0484(4)
_cell_length_b                   20.4845(8)
_cell_length_c                   9.7494(4)
_cell_angle_alpha                90
_cell_angle_beta                 108.8980(10)
_cell_angle_gamma                90
_cell_volume                     2087.56
loop_
_atom_site_label
_atom_site_type_symbol
_atom_site_fract_x
_atom_site_fract_y
_atom_site_fract_z
Er1 Er 0.68478(3) 1.034659(13) 0.69984(3)
O1 O 0.6064(5) 0.9299(2) 0.6784(5)
O2 O 0.3783(5) 0.6858(2) 0.3105(5)
H1 H 0.3372 0.6569 0.2496
O3 O 1.2383(5) 0.8800(2) 1.5937(5)
O4 O 0.8655(5) 0.9664(2) 0.7679(5)
O5 O 1.1795(5) 0.5677(2) 1.5612(5)
C1 C 1.0173(6) 0.7167(3) 1.2520(6)
C2 C 1.1644(6) 0.6784(3) 1.4769(6)
N1 N 0.8744(6) 0.6432(3) 1.0710(6)
C3 C 1.1440(6) 0.7935(3) 1.4260(6)
C4 C 0.6613(6) 0.7986(3) 0.7392(6)
H2 H 0.7064 0.8292 0.8072
O6 O 1.3259(5) 0.6369(2) 1.6840(5)
O7 O 0.6979(5) 0.9966(2) 0.4720(5)
C5 C 0.8575(6) 0.7473(3) 1.0072(6)
H3 H 0.8691 0.7923 1.0071
N2 N 0.7864(6) 0.6468(3) 0.9435(6)
C6 C 0.6173(6) 0.6862(3) 0.6626(6)
H4 H 0.6332 0.6419 0.6797
C7 C 1.2268(6) 0.6245(3) 1.5794(6)
C8 C 0.6832(6) 0.7320(3) 0.7663(6)
C9 C 1.0537(6) 0.7802(3) 1.2918(6)
H5 H 1.0177 0.8142 1.2286
C10 C 0.5487(6) 0.8909(3) 0.5802(6)
C11 C 1.1870(6) 0.8632(3) 1.4645(6)
C12 C 0.5276(6) 0.7073(3) 0.5338(6)
C13 C 0.5717(6) 0.8191(3) 0.6098(6)
O8 O 0.4743(5) 0.9083(2) 0.4590(5)
O9 O 1.1678(5) 0.9014(2) 1.3589(5)
O10 O 0.4699(5) 0.6000(2) 0.4404(5)
O11 O 0.5398(6) 1.0210(2) 0.8304(6)
C14 C 0.5067(6) 0.7740(3) 0.5070(6)
H6 H 0.4488 0.7881 0.4196
C15 C 0.4578(6) 0.6584(3) 0.4259(6)
C16 C 0.7749(5) 0.7110(3) 0.9019(6)
C17 C 1.1978(6) 0.7424(3) 1.5195(6)
H7 H 1.2561 0.7511 1.6106
C18 C 1.0742(6) 0.6651(3) 1.3431(6)
H8 H 1.0521 0.6223 1.3146
N3 N 0.9203(5) 0.7043(3) 1.1134(6)
Er1A Er 1.31522(3) 0.534659(13) 1.80016(3)
Er1B Er 0.31522(3) 0.965341(13) 0.30016(3)
Er1B_2 Er 1.31522(3) 0.965341(13) 1.30016(3)
O5A O 0.8205(5) 1.0677(2) 0.9388(5)
O6A O 0.6741(5) 1.1369(2) 0.8160(5)
O8B O 0.5257(5) 1.0917(2) 0.5410(5)
O9B O 0.8322(5) 1.0986(2) 0.6411(5)
O12 O 0.9129(6) 0.9100(3) 0.0357(6)
O13 O 0.7945(12) 0.9833(6) 0.1937(14)
loop_
_geom_bond_atom_site_label_1
_geom_bond_atom_site_label_2
_geom_bond_site_symmetry_1
_geom_bond_site_symmetry_2
Er1 O1 1_555 1_555
O1 C10 1_555 1_555
O2 H1 1_555 1_555
O3 C11 1_555 1_555
O4 Er1 1_555 1_555
O5 C7 1_555 1_555
C1 C9 1_555 1_555
C2 C7 1_555 1_555
N1 N2 1_555 1_555
C3 C9 1_555 1_555
C4 H2 1_555 1_555
O6 C7 1_555 1_555
O7 Er1 1_555 1_555
C5 H3 1_555 1_555
N2 C16 1_555 1_555
C6 H4 1_555 1_555
C8 C4 1_555 1_555
C9 H5 1_555 1_555
C10 C13 1_555 1_555
C11 C3 1_555 1_555
C12 C6 1_555 1_555
C13 C4 1_555 1_555
O8 C10 1_555 1_555
O9 C11 1_555 1_555
O10 C15 1_555 1_555
O11 Er1 1_555 1_555
C14 C12 1_555 1_555
H6 C14 1_555 1_555
C15 O2 1_555 1_555
C16 C5 1_555 1_555
C17 C2 1_555 1_555
H7 C17 1_555 1_555
C18 C1 1_555 1_555
H8 C18 1_555 1_555
N3 C1 1_555 1_555
Er1A O5 1_555 1_555
Er1B O8 1_555 1_555
Er1B_2 O9 1_555 1_555
O5A Er1 1_555 1_555
O6A Er1 1_555 1_555
O8B Er1 1_555 1_555
O9B Er1 1_555 1_555
C2 C18 1_555 1_555
N1 N3 1_555 1_555
C3 C17 1_555 1_555
O6 Er1A 1_555 1_555
C5 N3 1_555 1_555
C6 C8 1_555 1_555
C8 C16 1_555 1_555
C12 C15 1_555 1_555
C13 C14 1_555 1_555

#END
