
#######################################################################
#
#                 Cambridge Crystallographic Data Centre
#                                CCDC 
#
#######################################################################
#
# If this CIF has been generated from an entry in the Cambridge 
# Structural Database, then it will include bibliographic, chemical, 
# crystal, experimental, refinement or atomic coordinate data resulting 
# from the CCDC's data processing and validation procedures.
#
#######################################################################

data_ACASUT
_symmetry_cell_setting           monoclinic
_symmetry_space_group_name_H-M   'C 2/m'
_symmetry_Int_Tables_number      12
_space_group_name_Hall           '-C 2y'
loop_
_symmetry_equiv_pos_site_id
_symmetry_equiv_pos_as_xyz
1 x,y,z
2 x,-y,z
3 1/2+x,1/2+y,z
4 1/2+x,1/2-y,z
5 -x,-y,-z
6 -x,y,-z
7 1/2-x,1/2-y,-z
8 1/2-x,1/2+y,-z
_cell_length_a                   15.139(4)
_cell_length_b                   15.426(9)
_cell_length_c                   10.676(1)
_cell_angle_alpha                90
_cell_angle_beta                 131.270(3)
_cell_angle_gamma                90
_cell_volume                     1873.92
loop_
_atom_site_label
_atom_site_type_symbol
_atom_site_fract_x
_atom_site_fract_y
_atom_site_fract_z
Cu1 Cu 0.5772(1) 0.0000 0.1667(2)
F1 F 0.6466(7) 0.2839(4) 0.125(1)
F2 F 0.7678(8) 0.4076(3) 0.121(1)
O1 O 0.6551(5) 0.0893(3) 0.1400(8)
O2 O 0.5274(5) 0.0897(4) -0.1369(8)
O3 O 0.6952(9) 0.0000 0.423(1)
C1 C 0.6158(8) 0.1150(5) -0.001(1)
C2 C 0.7608(8) 0.3298(5) 0.062(1)
C3 C 0.6851(7) 0.1847(5) 0.000(1)
C4 C 0.6990(9) 0.2663(5) 0.065(1)
C5 C 0.668(3) 0.0000 0.528(4)
H1 H 0.7389 0.0000 0.6416
H2 H 0.6225 0.0498 0.5051
H3 H 0.7762 0.0000 0.4773
C3F C 0.8149(7) 0.3153(5) 0.000(1)
C1F C 0.8842(8) 0.3850(5) 0.001(1)
O1F O 0.8449(5) 0.4107(3) -0.1400(8)
O2F O 0.9726(5) 0.4103(4) 0.1369(8)
C4F C 0.8010(9) 0.2337(5) -0.065(1)
F1F F 0.8534(7) 0.2161(4) -0.125(1)
C2F C 0.7392(8) 0.1702(5) -0.062(1)
F2F F 0.7322(8) 0.0924(3) -0.121(1)
H2A H 0.6225 -0.0498 0.5051
Cu1D Cu 0.4228(1) 0.0000 -0.1667(2)
O1A O 0.6551(5) -0.0893(3) 0.1400(8)
O2D O 0.4726(5) -0.0897(4) 0.1369(8)
O2E O 0.4726(5) 0.0897(4) 0.1369(8)
Cu1F Cu 0.9228(1) 0.5000 -0.1667(2)
Cu1B Cu 1.0772(1) 0.5000 0.1667(2)
loop_
_geom_bond_atom_site_label_1
_geom_bond_atom_site_label_2
_geom_bond_site_symmetry_1
_geom_bond_site_symmetry_2
Cu1 O1 1_555 1_555
F1 C4 1_555 1_555
F2 C2 1_555 1_555
O1 C1 1_555 1_555
O2 C1 1_555 1_555
O3 Cu1 1_555 1_555
C1 C3 1_555 1_555
C2 C4 1_555 1_555
C3 C4 1_555 1_555
C5 O3 1_555 1_555
H1 C5 1_555 1_555
H2 C5 1_555 1_555
H3 O3 1_555 1_555
C3F C2 1_555 1_555
C1F C3F 1_555 1_555
O1F C1F 1_555 1_555
O2F C1F 1_555 1_555
C4F C3F 1_555 1_555
F1F C4F 1_555 1_555
C2F C3 1_555 1_555
F2F C2F 1_555 1_555
H2A C5 1_555 1_555
Cu1D Cu1 1_555 1_555
O1A Cu1 1_555 1_555
O2D Cu1 1_555 1_555
O2E Cu1 1_555 1_555
Cu1F O1F 1_555 1_555
Cu1B O2F 1_555 1_555
O2 Cu1D 1_555 1_555
C4F C2F 1_555 1_555
Cu1F Cu1B 1_555 1_555

#END
