
#######################################################################
#
#                 Cambridge Crystallographic Data Centre
#                                CCDC 
#
#######################################################################
#
# If this CIF has been generated from an entry in the Cambridge 
# Structural Database, then it will include bibliographic, chemical, 
# crystal, experimental, refinement or atomic coordinate data resulting 
# from the CCDC's data processing and validation procedures.
#
#######################################################################

data_ACATAB
_symmetry_cell_setting           monoclinic
_symmetry_space_group_name_H-M   'P 21/c'
_symmetry_Int_Tables_number      14
_space_group_name_Hall           '-P 2ybc'
loop_
_symmetry_equiv_pos_site_id
_symmetry_equiv_pos_as_xyz
1 x,y,z
2 -x,1/2+y,1/2-z
3 -x,-y,-z
4 x,1/2-y,1/2+z
_cell_length_a                   6.8206(14)
_cell_length_b                   22.830(5)
_cell_length_c                   25.065(5)
_cell_angle_alpha                90
_cell_angle_beta                 95.38(3)
_cell_angle_gamma                90
_cell_volume                     3885.79
loop_
_atom_site_label
_atom_site_type_symbol
_atom_site_fract_x
_atom_site_fract_y
_atom_site_fract_z
Ag1 Ag -0.01455(4) 0.467886(10) 0.232180(10)
N1 N -0.0018(4) 0.37322(12) 0.24435(11)
N2 N 0.0169(4) 0.06312(12) 0.26102(11)
C1 C 0.0453(5) 0.34634(14) 0.29192(13)
H1 H 0.0721 0.3694 0.3223
C2 C 0.0552(5) 0.28624(14) 0.29728(13)
H2 H 0.0892 0.2695 0.3307
C3 C 0.0139(5) 0.25060(13) 0.25204(13)
C4 C -0.0334(5) 0.27869(14) 0.20296(13)
H3 H -0.0606 0.2568 0.1718
C5 C -0.0396(5) 0.33921(14) 0.20100(14)
H4 H -0.0714 0.3572 0.1680
C6 C -0.0093(5) 0.09611(14) 0.30442(13)
H5 H -0.0273 0.0773 0.3365
C7 C -0.0105(5) 0.15653(14) 0.30336(13)
H6 H -0.0292 0.1777 0.3342
C8 C 0.0167(5) 0.18584(14) 0.25536(13)
C9 C 0.0451(5) 0.15128(14) 0.21107(13)
H7 H 0.0652 0.1688 0.1785
C10 C 0.0434(5) 0.09112(14) 0.21541(13)
H8 H 0.0616 0.0689 0.1852
C21 C -0.0589(5) 0.46775(13) 0.11005(13)
C22 C 0.0787(6) 0.44402(15) 0.02179(13)
H17 H 0.2096 0.4553 0.0368
H18 H 0.0626 0.4024 0.0280
C23 C -0.0758(5) 0.47843(15) 0.04962(13)
H19 H -0.2066 0.4655 0.0347
C24 C -0.0569(6) 0.54382(15) 0.03838(13)
H20 H -0.1576 0.5651 0.0553
H21 H 0.0706 0.5576 0.0537
O1 O 0.1052(4) 0.47334(11) 0.13667(9)
O2 O -0.2159(4) 0.45496(11) 0.13143(10)
Ag1A Ag 0.01455(4) 0.967886(10) 0.267820(10)
Ag1A_2 Ag 0.01455(4) -0.032114(10) 0.267820(10)
Ag1B Ag 0.01455(4) 0.532114(10) -0.232180(10)
N1A N 0.0018(4) 0.87322(12) 0.25565(11)
N2A N -0.0169(4) 0.56312(12) 0.23898(11)
N2_2 N 0.0169(4) 1.06312(12) 0.26102(11)
C1A C -0.0453(5) 0.84634(14) 0.20808(13)
H1A H -0.0721 0.8694 0.1777
C2A C -0.0552(5) 0.78624(14) 0.20272(13)
H2A H -0.0892 0.7695 0.1693
C3A C -0.0139(5) 0.75060(13) 0.24796(13)
C4A C 0.0334(5) 0.77869(14) 0.29704(13)
H3A H 0.0606 0.7568 0.3282
C5A C 0.0396(5) 0.83921(14) 0.29900(14)
H4A H 0.0714 0.8572 0.3320
C6A C 0.0093(5) 0.59611(14) 0.19558(13)
H5A H 0.0273 0.5773 0.1635
C7A C 0.0105(5) 0.65653(14) 0.19664(13)
H6A H 0.0292 0.6777 0.1658
C8A C -0.0167(5) 0.68584(14) 0.24464(13)
C9A C -0.0451(5) 0.65128(14) 0.28893(13)
H7A H -0.0652 0.6688 0.3215
C10A C -0.0434(5) 0.59112(14) 0.28459(13)
H8A H -0.0616 0.5689 0.3148
C21B C 0.0589(5) 0.53225(13) -0.11005(13)
C22B C -0.0787(6) 0.55598(15) -0.02179(13)
H17B H -0.2096 0.5447 -0.0368
H18B H -0.0626 0.5976 -0.0280
C23B C 0.0758(5) 0.52157(15) -0.04962(13)
H19B H 0.2066 0.5345 -0.0347
C24B C 0.0569(6) 0.45618(15) -0.03838(13)
H20B H 0.1576 0.4349 -0.0553
H21B H -0.0706 0.4424 -0.0537
O1B O -0.1052(4) 0.52666(11) -0.13667(9)
O1A O -0.1052(4) 0.97334(11) 0.36333(9)
O2B O 0.2159(4) 0.54504(11) -0.13143(10)
Ag2 Ag 0.48206(4) 0.521010(10) 0.260087(10)
N3 N 0.5057(4) 0.42639(12) 0.25529(12)
N4 N 0.5209(4) 0.11573(11) 0.24916(11)
C11 C 0.5651(5) 0.39530(14) 0.29938(14)
H9 H 0.6052 0.4155 0.3307
C12 C 0.5693(5) 0.33482(14) 0.30040(13)
H10 H 0.6100 0.3151 0.3320
C13 C 0.5118(5) 0.30363(13) 0.25365(13)
C14 C 0.4511(5) 0.33593(14) 0.20785(13)
H11 H 0.4114 0.3168 0.1759
C15 C 0.4501(5) 0.39641(14) 0.20996(13)
H12 H 0.4096 0.4172 0.1790
C16 C 0.5008(5) 0.14446(14) 0.29504(13)
H13 H 0.4887 0.1228 0.3260
C17 C 0.4974(5) 0.20496(14) 0.29828(13)
H14 H 0.4842 0.2231 0.3310
C18 C 0.5139(5) 0.23865(13) 0.25245(13)
C19 C 0.5331(5) 0.20844(14) 0.20449(13)
H15 H 0.5435 0.2289 0.1728
C20 C 0.5365(5) 0.14804(14) 0.20482(13)
H16 H 0.5503 0.1286 0.1728
C25 C 0.4992(5) 0.51550(14) 0.38365(13)
C26 C 0.3863(5) 0.54728(15) 0.47151(13)
H22 H 0.4793 0.5795 0.4738
H23 H 0.2652 0.5608 0.4520
C27 C 0.4710(5) 0.49597(14) 0.44087(13)
H24 H 0.3719 0.4648 0.4383
C28 C 0.6550(5) 0.47147(16) 0.47197(13)
H25 H 0.7576 0.5010 0.4744
H26 H 0.7018 0.4380 0.4530
O3 O 0.3473(4) 0.51797(11) 0.35117(9)
O4 O 0.6691(4) 0.52864(11) 0.37146(10)
Ag2A Ag 0.51794(4) 1.021010(10) 0.239913(10)
Ag2A_2 Ag 0.51794(4) 0.021010(10) 0.239913(10)
Ag2B Ag 0.51794(4) 0.478990(10) 0.739913(10)
N3A N 0.4943(4) 0.92639(12) 0.24471(12)
N4A N 0.4791(4) 0.61573(11) 0.25084(11)
N4_2 N 0.5209(4) 1.11573(11) 0.24916(11)
C11A C 0.4349(5) 0.89530(14) 0.20062(14)
H9A H 0.3948 0.9155 0.1693
C12A C 0.4307(5) 0.83482(14) 0.19960(13)
H10A H 0.3900 0.8151 0.1680
C13A C 0.4882(5) 0.80363(13) 0.24635(13)
C14A C 0.5489(5) 0.83593(14) 0.29215(13)
H11A H 0.5886 0.8168 0.3241
C15A C 0.5499(5) 0.89641(14) 0.29004(13)
H12A H 0.5904 0.9172 0.3210
C16A C 0.4992(5) 0.64446(14) 0.20496(13)
H13A H 0.5113 0.6228 0.1740
C17A C 0.5026(5) 0.70496(14) 0.20172(13)
H14A H 0.5158 0.7231 0.1690
C18A C 0.4861(5) 0.73865(13) 0.24755(13)
C19A C 0.4669(5) 0.70844(14) 0.29551(13)
H15A H 0.4565 0.7289 0.3272
C20A C 0.4635(5) 0.64804(14) 0.29518(13)
H16A H 0.4497 0.6286 0.3272
C25B C 0.5008(5) 0.48450(14) 0.61635(13)
C26B C 0.6137(5) 0.45272(15) 0.52849(13)
H22B H 0.5207 0.4205 0.5262
H23B H 0.7348 0.4392 0.5480
C27B C 0.5290(5) 0.50403(14) 0.55913(13)
H24B H 0.6281 0.5352 0.5617
C28B C 0.3450(5) 0.52853(16) 0.52803(13)
H25B H 0.2424 0.4990 0.5256
H26B H 0.2982 0.5620 0.5470
O3B O 0.6527(4) 0.48203(11) 0.64883(9)
O3A O 0.6527(4) 1.01797(11) 0.14883(9)
O4B O 0.3309(4) 0.47136(11) 0.62854(10)
O5 O 0.5458(4) 0.02900(11) 0.38099(11)
H27 H 0.6479 0.0101 0.3743
H28 H 0.4459 0.0071 0.3740
O6 O 0.0150(4) 0.46084(11) 0.37493(11)
H29 H -0.0779 0.4855 0.3758
H30 H 0.1151 0.4784 0.3649
O7 O 0.0734(4) 0.38328(12) 0.45645(11)
H31 H 0.0503 0.4086 0.4318
H32 H -0.0256 0.3606 0.4562
O8 O 0.3926(4) 0.31050(12) 0.45158(12)
H33 H 0.3756 0.2764 0.4384
H34 H 0.2980 0.3321 0.4389
O9 O 0.2648(4) 0.20280(12) 0.41645(11)
H35 H 0.1545 0.1961 0.4285
H36 H 0.3435 0.1753 0.4267
O10 O 0.5535(4) 0.12083(11) 0.44872(11)
H37 H 0.5533 0.0875 0.4335
H38 H 0.5497 0.1154 0.4821
O11 O 0.8811(4) 0.19358(12) 0.44460(13)
H39 H 0.7913 0.1679 0.4389
H40 H 0.9105 0.1962 0.4782
O12 O 0.7689(3) 0.30683(8) 0.42161(8)
H41 H 0.8140 0.2759 0.4371
H42 H 0.6614 0.3157 0.4342
O13 O 0.1114(3) 0.38774(8) 0.56894(8)
H43 H 0.1788 0.4155 0.5839
H44 H 0.1046 0.3928 0.5352
O14 O 0.4126(4) 0.30707(12) 0.56162(12)
H45 H 0.3222 0.3308 0.5684
H46 H 0.4138 0.3047 0.5278
O15 O 0.2891(4) 0.19746(12) 0.58700(11)
H47 H 0.1653 0.1960 0.5790
H48 H 0.3305 0.2304 0.5770
O16 O 0.5825(4) 0.12463(12) 0.56162(11)
H49 H 0.6133 0.0969 0.5834
H50 H 0.4640 0.1344 0.5648
O17 O 0.8890(4) 0.20179(12) 0.55499(12)
H51 H 0.8587 0.2369 0.5620
H52 H 0.7901 0.1801 0.5589
O18 O 0.8107(4) 0.30992(11) 0.59248(11)
H53 H 0.6897 0.3180 0.5849
H54 H 0.8777 0.3408 0.5888
loop_
_geom_bond_atom_site_label_1
_geom_bond_atom_site_label_2
_geom_bond_site_symmetry_1
_geom_bond_site_symmetry_2
Ag1 N1 1_555 1_555
Ag2 N3 1_555 1_555
N1 C1 1_555 1_555
N2 C6 1_555 1_555
N3 C11 1_555 1_555
N4 C16 1_555 1_555
C1 H1 1_555 1_555
C2 C1 1_555 1_555
H2 C2 1_555 1_555
C3 C2 1_555 1_555
C4 C3 1_555 1_555
H3 C4 1_555 1_555
C5 N1 1_555 1_555
H4 C5 1_555 1_555
C6 H5 1_555 1_555
C7 C6 1_555 1_555
H6 C7 1_555 1_555
C8 C3 1_555 1_555
C9 C8 1_555 1_555
H7 C9 1_555 1_555
C10 N2 1_555 1_555
H8 C10 1_555 1_555
C11 H9 1_555 1_555
C12 C11 1_555 1_555
H10 C12 1_555 1_555
C13 C12 1_555 1_555
C14 C13 1_555 1_555
H11 C14 1_555 1_555
C15 N3 1_555 1_555
H12 C15 1_555 1_555
C16 H13 1_555 1_555
C17 C16 1_555 1_555
H14 C17 1_555 1_555
C18 C13 1_555 1_555
C19 C18 1_555 1_555
H15 C19 1_555 1_555
C20 N4 1_555 1_555
H16 C20 1_555 1_555
C21 C23 1_555 1_555
C22 H17 1_555 1_555
H18 C22 1_555 1_555
C23 C22 1_555 1_555
H19 C23 1_555 1_555
C24 C23 1_555 1_555
H20 C24 1_555 1_555
H21 C24 1_555 1_555
C25 C27 1_555 1_555
C26 H22 1_555 1_555
H23 C26 1_555 1_555
C27 C26 1_555 1_555
H24 C27 1_555 1_555
C28 C27 1_555 1_555
H25 C28 1_555 1_555
H26 C28 1_555 1_555
O1 Ag1 1_555 1_555
O2 C21 1_555 1_555
O3 Ag2 1_555 1_555
O4 C25 1_555 1_555
O5 H27 1_555 1_555
H28 O5 1_555 1_555
O6 H29 1_555 1_555
H30 O6 1_555 1_555
O7 H31 1_555 1_555
H32 O7 1_555 1_555
O8 H33 1_555 1_555
H34 O8 1_555 1_555
O9 H35 1_555 1_555
H36 O9 1_555 1_555
O10 H37 1_555 1_555
H38 O10 1_555 1_555
O11 H39 1_555 1_555
H40 O11 1_555 1_555
O12 H41 1_555 1_555
H42 O12 1_555 1_555
O13 H43 1_555 1_555
H44 O13 1_555 1_555
O14 H45 1_555 1_555
H46 O14 1_555 1_555
O15 H47 1_555 1_555
H48 O15 1_555 1_555
O16 H49 1_555 1_555
H50 O16 1_555 1_555
O17 H51 1_555 1_555
H52 O17 1_555 1_555
O18 H53 1_555 1_555
H54 O18 1_555 1_555
Ag1A N1A 1_555 1_555
Ag1A_2 N2 1_555 1_555
Ag1B O1B 1_555 1_555
Ag2A N3A 1_555 1_555
Ag2A_2 N4 1_555 1_555
Ag2B O3B 1_555 1_555
N1A C1A 1_555 1_555
N2A Ag1 1_555 1_555
N2_2 Ag1A 1_555 1_555
N3A C11A 1_555 1_555
N4A Ag2 1_555 1_555
N4_2 Ag2A 1_555 1_555
C1A H1A 1_555 1_555
C2A C1A 1_555 1_555
H2A C2A 1_555 1_555
C3A C2A 1_555 1_555
C4A C3A 1_555 1_555
H3A C4A 1_555 1_555
C5A N1A 1_555 1_555
H4A C5A 1_555 1_555
C6A N2A 1_555 1_555
H5A C6A 1_555 1_555
C7A C6A 1_555 1_555
H6A C7A 1_555 1_555
C8A C3A 1_555 1_555
C9A C8A 1_555 1_555
H7A C9A 1_555 1_555
C10A N2A 1_555 1_555
H8A C10A 1_555 1_555
C11A H9A 1_555 1_555
C12A C11A 1_555 1_555
H10A C12A 1_555 1_555
C13A C12A 1_555 1_555
C14A C13A 1_555 1_555
H11A C14A 1_555 1_555
C15A N3A 1_555 1_555
H12A C15A 1_555 1_555
C16A N4A 1_555 1_555
H13A C16A 1_555 1_555
C17A C16A 1_555 1_555
H14A C17A 1_555 1_555
C18A C13A 1_555 1_555
C19A C18A 1_555 1_555
H15A C19A 1_555 1_555
C20A N4A 1_555 1_555
H16A C20A 1_555 1_555
C21B C23B 1_555 1_555
C22B C24 1_555 1_555
H17B C22B 1_555 1_555
H18B C22B 1_555 1_555
C23B C22B 1_555 1_555
H19B C23B 1_555 1_555
C24B C22 1_555 1_555
H20B C24B 1_555 1_555
H21B C24B 1_555 1_555
C25B C27B 1_555 1_555
C26B C28 1_555 1_555
H22B C26B 1_555 1_555
H23B C26B 1_555 1_555
C27B C26B 1_555 1_555
H24B C27B 1_555 1_555
C28B C26 1_555 1_555
H25B C28B 1_555 1_555
H26B C28B 1_555 1_555
O1B C21B 1_555 1_555
O1A Ag1A 1_555 1_555
O2B C21B 1_555 1_555
O3B C25B 1_555 1_555
O3A Ag2A 1_555 1_555
O4B C25B 1_555 1_555
C4 C5 1_555 1_555
C7 C8 1_555 1_555
C9 C10 1_555 1_555
C14 C15 1_555 1_555
C17 C18 1_555 1_555
C19 C20 1_555 1_555
C21 O1 1_555 1_555
C25 O3 1_555 1_555
C4A C5A 1_555 1_555
C7A C8A 1_555 1_555
C9A C10A 1_555 1_555
C14A C15A 1_555 1_555
C17A C18A 1_555 1_555
C19A C20A 1_555 1_555
C23B C24B 1_555 1_555
C27B C28B 1_555 1_555

#END
