
#######################################################################
#
#                 Cambridge Crystallographic Data Centre
#                                CCDC 
#
#######################################################################
#
# If this CIF has been generated from an entry in the Cambridge 
# Structural Database, then it will include bibliographic, chemical, 
# crystal, experimental, refinement or atomic coordinate data resulting 
# from the CCDC's data processing and validation procedures.
#
#######################################################################

data_ACATEF
_symmetry_cell_setting           triclinic
_symmetry_space_group_name_H-M   'P -1'
_symmetry_Int_Tables_number      2
_space_group_name_Hall           '-P 1'
loop_
_symmetry_equiv_pos_site_id
_symmetry_equiv_pos_as_xyz
1 x,y,z
2 -x,-y,-z
_cell_length_a                   8.7488(17)
_cell_length_b                   9.867(2)
_cell_length_c                   11.657(2)
_cell_angle_alpha                102.01(3)
_cell_angle_beta                 93.04(3)
_cell_angle_gamma                104.10(3)
_cell_volume                     948.88
loop_
_atom_site_label
_atom_site_type_symbol
_atom_site_fract_x
_atom_site_fract_y
_atom_site_fract_z
Ag1 Ag 0.15721(3) -0.05089(3) 0.49933(2)
N1 N -0.0174(3) -0.2607(3) 0.4824(2)
N2 N -0.6372(3) -0.8768(3) 0.4838(2)
C1 C -0.1215(4) -0.3261(3) 0.3871(3)
H1 H -0.1131 -0.2868 0.3210
C2 C -0.2404(4) -0.4484(3) 0.3817(3)
H2 H -0.3095 -0.4899 0.3131
C3 C -0.2574(3) -0.5102(3) 0.4787(3)
C4 C -0.1494(4) -0.4416(3) 0.5776(3)
H3 H -0.1562 -0.4775 0.6454
C5 C -0.0322(4) -0.3205(3) 0.5754(3)
H4 H 0.0403 -0.2782 0.6421
C6 C -0.6259(4) -0.8166(4) 0.3911(3)
H5 H -0.7040 -0.8551 0.3274
C7 C -0.5047(4) -0.7006(4) 0.3847(3)
H6 H -0.5020 -0.6632 0.3178
C8 C -0.3862(3) -0.6393(3) 0.4785(3)
C9 C -0.3969(4) -0.7045(4) 0.5728(3)
H7 H -0.3194 -0.6698 0.6371
C10 C -0.5217(4) -0.8205(4) 0.5719(3)
H8 H -0.5256 -0.8619 0.6368
C11 C 0.0970(4) 0.0060(3) 0.7646(2)
C12 C 0.0972(4) 0.1313(3) 0.9744(2)
H9 H 0.0174 0.1759 0.9503
H10 H 0.2006 0.1935 0.9708
C13 C 0.0777(4) -0.0135(3) 0.8900(2)
H11 H 0.1621 -0.0546 0.9140
C14 C -0.0812(4) -0.1155(3) 0.8987(2)
H12 H -0.0898 -0.2088 0.8477
H13 H -0.1668 -0.0790 0.8719
O1 O -0.0133(3) 0.0346(3) 0.70971(19)
O2 O 0.2225(3) -0.0089(3) 0.7226(2)
Ag1_2 Ag 1.15721(3) 0.94911(3) 0.49933(2)
Ag1_3 Ag -0.84279(3) -1.05089(3) 0.49933(2)
Ag1A Ag -0.15721(3) 0.05089(3) 1.50067(2)
N1_2 N 0.9826(3) 0.7393(3) 0.4824(2)
N2_2 N 0.3628(3) 0.1232(3) 0.4838(2)
N2_3 N 1.3628(3) 1.1232(3) 0.4838(2)
C1_2 C 0.8785(4) 0.6739(3) 0.3871(3)
H1_2 H 0.8869 0.7132 0.3210
C2_2 C 0.7596(4) 0.5516(3) 0.3817(3)
H2_2 H 0.6905 0.5101 0.3131
C3_2 C 0.7426(3) 0.4898(3) 0.4787(3)
C4_2 C 0.8506(4) 0.5584(3) 0.5776(3)
H3_2 H 0.8438 0.5225 0.6454
C5_2 C 0.9678(4) 0.6795(3) 0.5754(3)
H4_2 H 1.0403 0.7218 0.6421
C6_2 C 0.3741(4) 0.1834(4) 0.3911(3)
H5_2 H 0.2960 0.1449 0.3274
C7_2 C 0.4953(4) 0.2994(4) 0.3847(3)
H6_2 H 0.4980 0.3368 0.3178
C8_2 C 0.6138(3) 0.3607(3) 0.4785(3)
C9_2 C 0.6031(4) 0.2955(4) 0.5728(3)
H7_2 H 0.6806 0.3302 0.6371
C10_2 C 0.4783(4) 0.1795(4) 0.5719(3)
H8_2 H 0.4744 0.1381 0.6368
C11A C -0.0970(4) -0.0060(3) 1.2354(2)
C12A C -0.0972(4) -0.1313(3) 1.0256(2)
H9A H -0.0174 -0.1759 1.0497
H10A H -0.2006 -0.1935 1.0292
C13A C -0.0777(4) 0.0135(3) 1.1100(2)
H11A H -0.1621 0.0546 1.0860
C14A C 0.0812(4) 0.1155(3) 1.1013(2)
H12A H 0.0898 0.2088 1.1523
H13A H 0.1668 0.0790 1.1281
O1A O 0.0133(3) -0.0346(3) 1.29029(19)
O2A O -0.2225(3) 0.0089(3) 1.2774(2)
O2_2 O 1.2225(3) 0.9911(3) 0.7226(2)
O3 O 0.2245(3) 0.8112(3) 0.2104(3)
H14 H 0.3090 0.8603 0.1910
H15 H 0.1627 0.8652 0.2274
C15 C 0.5165(7) 0.5315(7) 0.0636(5)
H16 H 0.6281 0.5453 0.0878
H17 H 0.4943 0.6248 0.0801
O5 O 0.4239(4) 0.4430(4) 0.1304(3)
H21 H 0.3368 0.4599 0.1340
C15A C 0.4835(7) 0.4685(7) -0.0636(5)
H16A H 0.3719 0.4547 -0.0878
H17A H 0.5057 0.3752 -0.0801
O5A O 0.5761(4) 0.5570(4) -0.1304(3)
H21A H 0.6632 0.5401 -0.1340
O4 O 0.1369(4) 0.5281(3) 0.1335(3)
H18 H 0.1789 0.6140 0.1427
C16 C -0.0113(5) 0.4913(5) 0.0608(4)
H19 H -0.0768 0.5520 0.0955
H20 H -0.0666 0.3925 0.0581
O4A O -0.1369(4) 0.4719(3) -0.1335(3)
H18A H -0.1789 0.3860 -0.1427
C16A C 0.0113(5) 0.5087(5) -0.0608(4)
H19A H 0.0768 0.4480 -0.0955
H20A H 0.0666 0.6075 -0.0581
O6 O 0.4989(4) -0.0305(4) 0.1519(3)
H22 H 0.5872 -0.0141 0.1874
C17 C 0.5079(11) 0.0554(11) 0.0620(9)
O6A O 0.5011(4) 0.0305(4) -0.1519(3)
H22A H 0.4128 0.0141 -0.1874
C17A C 0.4921(11) -0.0554(11) -0.0620(9)
C18? C 0.515(2) 0.075(2) -0.0257(19)
H23? H 0.4723 0.2420 0.0940
O7? O 0.544(2) 0.2046(15) 0.0739(12)
loop_
_geom_bond_atom_site_label_1
_geom_bond_atom_site_label_2
_geom_bond_site_symmetry_1
_geom_bond_site_symmetry_2
Ag1 N1 1_555 1_555
N1 C1 1_555 1_555
N2 C6 1_555 1_555
C1 H1 1_555 1_555
C2 C1 1_555 1_555
H2 C2 1_555 1_555
C3 C2 1_555 1_555
C4 C3 1_555 1_555
H3 C4 1_555 1_555
C5 N1 1_555 1_555
H4 C5 1_555 1_555
C6 H5 1_555 1_555
C7 C6 1_555 1_555
H6 C7 1_555 1_555
C8 C3 1_555 1_555
C9 C8 1_555 1_555
H7 C9 1_555 1_555
C10 N2 1_555 1_555
H8 C10 1_555 1_555
C11 C13 1_555 1_555
C12 H9 1_555 1_555
H10 C12 1_555 1_555
C13 C12 1_555 1_555
H11 C13 1_555 1_555
C14 C13 1_555 1_555
H12 C14 1_555 1_555
H13 C14 1_555 1_555
O1 C11 1_555 1_555
O2 Ag1 1_555 1_555
O3 H14 1_555 1_555
H15 O3 1_555 1_555
C15 H16 1_555 1_555
H17 C15 1_555 1_555
O4 H18 1_555 1_555
C16 O4 1_555 1_555
H19 C16 1_555 1_555
H20 C16 1_555 1_555
O5 C15 1_555 1_555
H21 O5 1_555 1_555
O6 H22 1_555 1_555
C17 O6 1_555 1_555
Ag1_2 N1_2 1_555 1_555
Ag1_3 N2 1_555 1_555
Ag1A O2A 1_555 1_555
N1_2 C1_2 1_555 1_555
N2_2 Ag1 1_555 1_555
N2_3 Ag1_2 1_555 1_555
C1_2 H1_2 1_555 1_555
C2_2 C1_2 1_555 1_555
H2_2 C2_2 1_555 1_555
C3_2 C2_2 1_555 1_555
C4_2 C3_2 1_555 1_555
H3_2 C4_2 1_555 1_555
C5_2 N1_2 1_555 1_555
H4_2 C5_2 1_555 1_555
C6_2 N2_2 1_555 1_555
H5_2 C6_2 1_555 1_555
C7_2 C6_2 1_555 1_555
H6_2 C7_2 1_555 1_555
C8_2 C3_2 1_555 1_555
C9_2 C8_2 1_555 1_555
H7_2 C9_2 1_555 1_555
C10_2 N2_2 1_555 1_555
H8_2 C10_2 1_555 1_555
C11A C13A 1_555 1_555
C12A C14 1_555 1_555
H9A C12A 1_555 1_555
H10A C12A 1_555 1_555
C13A C12A 1_555 1_555
H11A C13A 1_555 1_555
C14A C12 1_555 1_555
H12A C14A 1_555 1_555
H13A C14A 1_555 1_555
O1A C11A 1_555 1_555
O2A C11A 1_555 1_555
O2_2 Ag1_2 1_555 1_555
C15A C15 1_555 1_555
H16A C15A 1_555 1_555
H17A C15A 1_555 1_555
O4A H18A 1_555 1_555
C16A C16 1_555 1_555
H19A C16A 1_555 1_555
H20A C16A 1_555 1_555
O5A C15A 1_555 1_555
H21A O5A 1_555 1_555
O6A H22A 1_555 1_555
C17A C17 1_555 1_555
C4 C5 1_555 1_555
C7 C8 1_555 1_555
C9 C10 1_555 1_555
C11 O2 1_555 1_555
C4_2 C5_2 1_555 1_555
C7_2 C8_2 1_555 1_555
C9_2 C10_2 1_555 1_555
C13A C14A 1_555 1_555
O4A C16A 1_555 1_555
O6A C17A 1_555 1_555

#END
