
#######################################################################
#
#                 Cambridge Crystallographic Data Centre
#                                CCDC 
#
#######################################################################
#
# If this CIF has been generated from an entry in the Cambridge 
# Structural Database, then it will include bibliographic, chemical, 
# crystal, experimental, refinement or atomic coordinate data resulting 
# from the CCDC's data processing and validation procedures.
#
#######################################################################

data_ACAZAG
_symmetry_cell_setting           monoclinic
_symmetry_space_group_name_H-M   'P 21/c'
_symmetry_Int_Tables_number      14
_space_group_name_Hall           '-P 2ybc'
loop_
_symmetry_equiv_pos_site_id
_symmetry_equiv_pos_as_xyz
1 x,y,z
2 x,1/2-y,1/2+z
3 -x,-y,-z
4 -x,1/2+y,1/2-z
_cell_length_a                   6.6261(7)
_cell_length_b                   7.6673(5)
_cell_length_c                   11.7076(12)
_cell_angle_alpha                90.00
_cell_angle_beta                 97.277(12)
_cell_angle_gamma                90.00
_cell_volume                     590.006
loop_
_atom_site_label
_atom_site_type_symbol
_atom_site_fract_x
_atom_site_fract_y
_atom_site_fract_z
Ag1 Ag 0.37409(4) 0.46057(4) 0.38247(2)
Br1 Br 0.29900(4) 0.76054(4) 0.48802(3)
N1 N 0.5795(4) 0.5290(4) 0.2448(2)
H1 H 0.6113 0.4281 0.2086
H2 H 0.5082 0.5997 0.1904
C1 C 0.7712(5) 0.6185(5) 0.2911(3)
H3 H 0.8357 0.5529 0.3589
H4 H 0.7376 0.7363 0.3177
C2 C 0.9240(5) 0.6366(5) 0.2052(3)
H5 H 1.0443 0.7020 0.2412
H6 H 0.9700 0.5193 0.1843
N2 N 0.8333(4) 0.7291(4) 0.0992(3)
H7 H 0.7606 0.6487 0.0524
H8 H 0.9384 0.7670 0.0612
Br1B Br 0.70100(4) 0.23946(4) 0.51198(3)
N2C N 0.1667(4) 0.2291(4) 0.4008(3)
Ag1B Ag 0.62591(4) 0.53943(4) 0.61753(2)
Ag1C Ag 0.62591(4) 0.96057(4) 0.11753(2)
H7C H 0.2394 0.1487 0.4476
H8C H 0.0616 0.2670 0.4388
loop_
_geom_bond_atom_site_label_1
_geom_bond_atom_site_label_2
_geom_bond_site_symmetry_1
_geom_bond_site_symmetry_2
Ag1 Br1 1_555 1_555
Br1 Ag1B 1_555 1_555
N1 Ag1 1_555 1_555
H1 N1 1_555 1_555
H2 N1 1_555 1_555
C1 N1 1_555 1_555
H3 C1 1_555 1_555
H4 C1 1_555 1_555
C2 C1 1_555 1_555
H5 C2 1_555 1_555
H6 C2 1_555 1_555
N2 C2 1_555 1_555
H7 N2 1_555 1_555
H8 N2 1_555 1_555
Br1B Ag1 1_555 1_555
N2C Ag1 1_555 1_555
Ag1B Br1B 1_555 1_555
Ag1C N2 1_555 1_555
H7C N2C 1_555 1_555
H8C N2C 1_555 1_555

#END
