
#######################################################################
#
#                 Cambridge Crystallographic Data Centre
#                                CCDC 
#
#######################################################################
#
# If this CIF has been generated from an entry in the Cambridge 
# Structural Database, then it will include bibliographic, chemical, 
# crystal, experimental, refinement or atomic coordinate data resulting 
# from the CCDC's data processing and validation procedures.
#
#######################################################################

data_ACAZEK
_symmetry_cell_setting           tetragonal
_symmetry_space_group_name_H-M   'P 41 21 2'
_symmetry_Int_Tables_number      92
_space_group_name_Hall           'P 4abw 2nw'
loop_
_symmetry_equiv_pos_site_id
_symmetry_equiv_pos_as_xyz
1 x,y,z
2 -x,-y,1/2+z
3 1/2-y,1/2+x,1/4+z
4 1/2+y,1/2-x,3/4+z
5 1/2-x,1/2+y,1/4-z
6 1/2+x,1/2-y,3/4-z
7 y,x,-z
8 -y,-x,1/2-z
_cell_length_a                   7.4979(6)
_cell_length_b                   7.4979(6)
_cell_length_c                   14.2086(11)
_cell_angle_alpha                90
_cell_angle_beta                 90
_cell_angle_gamma                90
_cell_volume                     798.786
loop_
_atom_site_label
_atom_site_type_symbol
_atom_site_fract_x
_atom_site_fract_y
_atom_site_fract_z
Ag1 Ag 0.39812(7) 0.86489(7) 0.70664(4)
Br1 Br 0.29105(8) 0.91940(8) 0.88202(4)
N1 N 0.5831(7) 0.6707(7) 0.6318(3)
H1 H 0.6993 0.6943 0.6484
H2 H 0.5568 0.5560 0.6503
C1 C 0.5632(9) 0.6861(9) 0.5279(4)
H3 H 0.5874 0.8110 0.5092
H4 H 0.4381 0.6589 0.5109
C1F C 0.6861(9) 0.5632(9) 0.4721(4)
N1F N 0.6707(7) 0.5831(7) 0.3682(3)
H1F H 0.6943 0.6993 0.3516
H2F H 0.5560 0.5568 0.3497
H3F H 0.8110 0.5874 0.4908
H4F H 0.6589 0.4381 0.4891
Br1C Br 0.41940(8) 1.20895(8) 0.63202(4)
Ag1C Ag 0.36489(7) 1.10188(7) 0.45664(4)
Br1G Br 0.08060(8) 0.70895(8) 0.61798(4)
Ag1B Ag 0.63511(7) 0.89812(7) 0.95664(4)
Ag1G Ag 0.13511(7) 0.60188(7) 0.79336(4)
Ag1F Ag 0.86489(7) 0.39812(7) 0.29336(4)
Ag1D Ag 0.10188(7) 1.36489(7) 0.54336(4)
Br1A Br 0.70895(8) 1.08060(8) 0.38202(4)
Br1D Br 0.20895(8) 1.41940(8) 0.36798(4)
N1C N 0.1707(7) 0.9169(7) 0.3818(3)
H1C H 0.1943 0.8007 0.3984
H2C H 0.0560 0.9432 0.4003
loop_
_geom_bond_atom_site_label_1
_geom_bond_atom_site_label_2
_geom_bond_site_symmetry_1
_geom_bond_site_symmetry_2
Ag1 Br1 1_555 1_555
Br1 Ag1B 1_555 1_555
N1 Ag1 1_555 1_555
H1 N1 1_555 1_555
H2 N1 1_555 1_555
C1 N1 1_555 1_555
H3 C1 1_555 1_555
H4 C1 1_555 1_555
C1F C1 1_555 1_555
N1F C1F 1_555 1_555
H1F N1F 1_555 1_555
H2F N1F 1_555 1_555
H3F C1F 1_555 1_555
H4F C1F 1_555 1_555
Br1C Ag1 1_555 1_555
Ag1C Br1C 1_555 1_555
Br1G Ag1 1_555 1_555
Ag1G Br1 1_555 1_555
Ag1F N1F 1_555 1_555
Ag1D Br1C 1_555 1_555
Br1A Ag1C 1_555 1_555
Br1D Ag1C 1_555 1_555
N1C Ag1C 1_555 1_555
H1C N1C 1_555 1_555
H2C N1C 1_555 1_555
Br1G Ag1G 1_555 1_555
Ag1D Br1D 1_555 1_555

#END
