
#######################################################################
#
#                 Cambridge Crystallographic Data Centre
#                                CCDC 
#
#######################################################################
#
# If this CIF has been generated from an entry in the Cambridge 
# Structural Database, then it will include bibliographic, chemical, 
# crystal, experimental, refinement or atomic coordinate data resulting 
# from the CCDC's data processing and validation procedures.
#
#######################################################################

data_ACBZNM
_symmetry_cell_setting           monoclinic
_symmetry_space_group_name_H-M   'P 21/c'
_symmetry_Int_Tables_number      14
_space_group_name_Hall           '-P 2ybc'
loop_
_symmetry_equiv_pos_site_id
_symmetry_equiv_pos_as_xyz
1 x,y,z
2 -x,1/2+y,1/2-z
3 -x,-y,-z
4 x,1/2-y,1/2+z
_cell_length_a                   12.779(4)
_cell_length_b                   23.732(6)
_cell_length_c                   14.749(6)
_cell_angle_alpha                90
_cell_angle_beta                 147.98(4)
_cell_angle_gamma                90
_cell_volume                     2371.62
loop_
_atom_site_label
_atom_site_type_symbol
_atom_site_fract_x
_atom_site_fract_y
_atom_site_fract_z
Zn1 Zn 0.07240 0.06100 0.04720
Zn2 Zn 0.44940 -0.02170 0.36270
Cl1 Cl 0.31720 0.22860 0.36740
Cl2 Cl 0.86710 0.05970 0.46740
Cl3 Cl -0.71860 0.15990 -0.37750
O1 O 0.29490 0.11550 0.25830
O2 O 0.50980 0.05500 0.47550
O3 O 0.48450 0.01620 0.26710
O4 O 0.20920 0.06510 0.02930
O5 O -0.44760 0.10100 -0.31260
O6 O -0.12590 0.11100 -0.03460
O7 O 0.78220 -0.02190 0.59090
O8 O 0.14970 -0.00910 0.16890
C1 C 0.56230 0.20640 0.51790
C2 C 0.71470 0.24830 0.62690
C3 C 0.91210 0.23380 0.75130
C4 C 0.96610 0.17810 0.77740
C5 C 0.81350 0.13740 0.66820
C6 C 0.61050 0.15050 0.53550
C7 C 0.45550 0.10450 0.41220
C8 C 0.68340 0.06480 0.25170
C9 C 0.75650 0.07780 0.22330
C10 C 0.62140 0.08390 0.05720
C11 C 0.41480 0.07750 -0.07770
C12 C 0.34530 0.06580 -0.04380
C13 C 0.47700 0.05850 0.12070
C14 C 0.38250 0.04550 0.14090
C15 C -0.52820 0.20650 -0.27240
C16 C -0.55690 0.26480 -0.27610
C17 C -0.40830 0.30210 -0.18970
C18 C -0.23310 0.28490 -0.09860
C19 C -0.19770 0.22760 -0.08970
C20 C -0.34940 0.18790 -0.18060
C21 C -0.30760 0.12850 -0.17840
H1 H 0.68600 0.28800 0.62200
H2 H 1.05200 0.26400 0.86000
H3 H 1.12600 0.16800 0.88100
H4 H 0.84400 0.10200 0.66800
H5 H 0.92000 0.08500 0.33400
H6 H 0.65400 0.09900 0.01600
H7 H 0.31400 0.08200 -0.20200
H8 H 0.20700 0.05600 -0.12400
H9 H -0.69300 0.28000 -0.34600
H10 H -0.41600 0.34800 -0.17700
H11 H -0.12400 0.31600 -0.03700
H12 H -0.08100 0.21900 -0.02100
H13 H 0.82900 -0.04700 0.62300
H14 H 0.16700 -0.01200 0.23500
O8B O -0.14970 0.00910 -0.16890
O2B O 0.49020 -0.05500 0.52450
Zn2B Zn 0.55060 0.02170 0.63730
Zn1B Zn -0.07240 -0.06100 -0.04720
O5B O 0.44760 -0.10100 0.31260
Zn2B_2 Zn -0.44940 0.02170 -0.36270
H14B H -0.16700 0.01200 -0.23500
O9 O 0.04860 0.12400 0.26140
H15 H 0.04400 0.12600 0.21600
loop_
_geom_bond_atom_site_label_1
_geom_bond_atom_site_label_2
_geom_bond_site_symmetry_1
_geom_bond_site_symmetry_2
Zn1 O1 1_555 1_555
Zn2 O2 1_555 1_555
Cl1 C1 1_555 1_555
Cl2 C8 1_555 1_555
Cl3 C15 1_555 1_555
O1 C7 1_555 1_555
O2 C7 1_555 1_555
O3 Zn2 1_555 1_555
O4 Zn1 1_555 1_555
O5 C21 1_555 1_555
O6 Zn1 1_555 1_555
O7 Zn2 1_555 1_555
O8 Zn1 1_555 1_555
C1 C2 1_555 1_555
C2 C3 1_555 1_555
C3 C4 1_555 1_555
C4 C5 1_555 1_555
C5 C6 1_555 1_555
C6 C1 1_555 1_555
C7 C6 1_555 1_555
C8 C9 1_555 1_555
C9 C10 1_555 1_555
C10 C11 1_555 1_555
C11 C12 1_555 1_555
C12 C13 1_555 1_555
C13 C8 1_555 1_555
C14 O3 1_555 1_555
C15 C16 1_555 1_555
C16 C17 1_555 1_555
C17 C18 1_555 1_555
C18 C19 1_555 1_555
C19 C20 1_555 1_555
C20 C15 1_555 1_555
C21 O6 1_555 1_555
H1 C2 1_555 1_555
H2 C3 1_555 1_555
H3 C4 1_555 1_555
H4 C5 1_555 1_555
H5 C9 1_555 1_555
H6 C10 1_555 1_555
H7 C11 1_555 1_555
H8 C12 1_555 1_555
H9 C16 1_555 1_555
H10 C17 1_555 1_555
H11 C18 1_555 1_555
H12 C19 1_555 1_555
H13 O7 1_555 1_555
H14 O8 1_555 1_555
O9 H15 1_555 1_555
O8B Zn1 1_555 1_555
O2B Zn2 1_555 1_555
Zn2B O2 1_555 1_555
Zn1B O8 1_555 1_555
O5B Zn2 1_555 1_555
Zn2B_2 O5 1_555 1_555
H14B O8B 1_555 1_555
Zn2 O8 1_555 1_555
O4 C14 1_555 1_555
C13 C14 1_555 1_555
C20 C21 1_555 1_555
O8B Zn1B 1_555 1_555
O8B Zn2B_2 1_555 1_555
O2B Zn2B 1_555 1_555

#END
