
#######################################################################
#
#                 Cambridge Crystallographic Data Centre
#                                CCDC 
#
#######################################################################
#
# If this CIF has been generated from an entry in the Cambridge 
# Structural Database, then it will include bibliographic, chemical, 
# crystal, experimental, refinement or atomic coordinate data resulting 
# from the CCDC's data processing and validation procedures.
#
#######################################################################

data_ACDOXY10
_symmetry_cell_setting           orthorhombic
_symmetry_space_group_name_H-M   'P 21 21 21'
_symmetry_Int_Tables_number      19
_space_group_name_Hall           'P 2ac 2ab'
loop_
_symmetry_equiv_pos_site_id
_symmetry_equiv_pos_as_xyz
1 x,y,z
2 1/2+x,1/2-y,-z
3 -x,1/2+y,1/2-z
4 1/2-x,-y,1/2+z
_cell_length_a                   7.3934(7)
_cell_length_b                   8.8955(10)
_cell_length_c                   13.3536(15)
_cell_angle_alpha                90
_cell_angle_beta                 90
_cell_angle_gamma                90
_cell_volume                     878.239
loop_
_atom_site_label
_atom_site_type_symbol
_atom_site_fract_x
_atom_site_fract_y
_atom_site_fract_z
Cd1 Cd 0.09180 0.56540 -0.51320
O1 O 0.28030 0.43040 -0.38760
O2 O 0.33490 0.70150 -0.45640
O3 O 0.60000 0.72150 -0.38390
O4 O 0.44770 0.20550 -0.49540
O5 O 0.37390 0.03310 -0.38680
O6 O -0.06170 0.61220 -0.36530
O7 O 0.29290 0.43230 -0.61550
C1 C 0.45240 0.49780 -0.35620
C2 C 0.45930 0.64720 -0.40560
C3 C 0.27050 0.27630 -0.35160
C4 C 0.36740 0.16720 -0.41990
O2A O -0.16510 0.79850 -0.54360
Cd1A Cd 0.59180 0.93460 -0.48680
O3A O 0.10000 0.77850 -0.61610
O4A O -0.05230 0.29450 -0.50460
O5A O -0.12610 0.46690 -0.61320
Cd1A_2 Cd 0.59180 -0.06540 -0.48680
O8 O 0.57960 0.59320 -0.70390
loop_
_geom_bond_atom_site_label_1
_geom_bond_atom_site_label_2
_geom_bond_site_symmetry_1
_geom_bond_site_symmetry_2
Cd1 O1 1_555 1_555
O1 C1 1_555 1_555
O2 Cd1 1_555 1_555
O3 C2 1_555 1_555
O4 C4 1_555 1_555
O5 C4 1_555 1_555
O6 Cd1 1_555 1_555
O7 Cd1 1_555 1_555
C1 C2 1_555 1_555
C2 O2 1_555 1_555
C3 O1 1_555 1_555
C4 C3 1_555 1_555
O2A Cd1 1_555 1_555
Cd1A O2 1_555 1_555
O3A Cd1 1_555 1_555
O4A Cd1 1_555 1_555
O5A Cd1 1_555 1_555
Cd1A_2 O4 1_555 1_555
O3 Cd1A 1_555 1_555
O5 Cd1A_2 1_555 1_555

#END
