
#######################################################################
#
#                 Cambridge Crystallographic Data Centre
#                                CCDC 
#
#######################################################################
#
# If this CIF has been generated from an entry in the Cambridge 
# Structural Database, then it will include bibliographic, chemical, 
# crystal, experimental, refinement or atomic coordinate data resulting 
# from the CCDC's data processing and validation procedures.
#
#######################################################################

data_ACECIV
_symmetry_cell_setting           monoclinic
_symmetry_space_group_name_H-M   'P 21/n'
_symmetry_Int_Tables_number      14
_space_group_name_Hall           '-P 2yn'
loop_
_symmetry_equiv_pos_site_id
_symmetry_equiv_pos_as_xyz
1 x,y,z
2 1/2+x,1/2-y,1/2+z
3 -x,-y,-z
4 1/2-x,1/2+y,1/2-z
_cell_length_a                   10.601(2)
_cell_length_b                   26.841(5)
_cell_length_c                   11.464(2)
_cell_angle_alpha                90
_cell_angle_beta                 97.32(3)
_cell_angle_gamma                90
_cell_volume                     3235.4
loop_
_atom_site_label
_atom_site_type_symbol
_atom_site_fract_x
_atom_site_fract_y
_atom_site_fract_z
K1 K 0.5167(4) 0.37406(19) -0.3149(4)
K2 K 0.8964(5) 0.49039(13) -0.3608(3)
K3 K 0.8149(4) 0.24226(15) -0.3837(3)
S1 S 0.5311(6) 0.2303(2) -0.0601(5)
N1 N 0.6215(18) 0.2752(7) -0.2527(18)
C13 C 0.5841(16) 0.2558(6) -0.1740(18)
S3 S 0.511(6) 0.517(3) -0.509(6)
N3 N 0.651(3) 0.4760(13) -0.315(3)
C15 C 0.593(3) 0.4885(13) -0.399(4)
S3B S 0.489(6) 0.483(3) -0.491(6)
C15B C 0.407(3) 0.5115(13) -0.601(4)
N3B N 0.349(3) 0.5240(13) -0.685(3)
Pb1 Pb 0.13332(6) 0.37412(2) -0.43636(5)
Pb2 Pb 0.26127(6) 0.39041(2) -0.08777(6)
Pb3 Pb 0.39172(7) 0.39575(3) -0.72173(6)
S2 S -0.3155(6) 0.3597(3) -0.5405(7)
O1 O -0.0374(12) 0.3243(4) -0.3216(10)
O2 O 0.0386(13) 0.3969(5) -0.2607(12)
O3 O 0.1565(13) 0.4693(5) -0.4169(11)
O4 O 0.3007(12) 0.4290(4) -0.2954(11)
O5 O 0.4378(12) 0.3581(5) 0.0814(10)
O6 O 0.4875(14) 0.3831(5) -0.0888(11)
O7 O 0.2020(13) 0.3016(5) -0.0879(10)
O8 O 0.2728(12) 0.3292(4) -0.2480(11)
O9 O 0.3932(14) 0.3093(6) -0.6794(13)
O10 O 0.3799(12) 0.3498(5) -0.5225(11)
O11 O 0.1641(12) 0.4054(5) -0.6802(11)
O12 O 0.2003(14) 0.3690(7) -0.8450(14)
N2 N -0.0834(13) 0.4106(5) -0.5180(12)
C1 C -0.0368(16) 0.3615(6) -0.2549(14)
C2 C -0.126(2) 0.3622(10) -0.161(2)
H1 H -0.1770 0.3326 -0.1673
H2 H -0.1800 0.3910 -0.1720
H3 H -0.0768 0.3636 -0.0848
C3 C 0.2475(17) 0.4694(6) -0.3322(15)
C4 C 0.288(3) 0.5186(11) -0.265(3)
H4 H 0.2391 0.5459 -0.3007
H5 H 0.3769 0.5246 -0.2683
H6 H 0.2735 0.5155 -0.1843
C5 C 0.5206(15) 0.3696(6) 0.0153(13)
C6 C 0.6583(19) 0.3673(9) 0.0628(19)
H7 H 0.6672 0.3546 0.1418
H8 H 0.6945 0.4001 0.0628
H9 H 0.7018 0.3456 0.0145
C7 C 0.2258(16) 0.2949(6) -0.1891(14)
C8 C 0.200(3) 0.2446(7) -0.2462(16)
H10 H 0.2771 0.2254 -0.2382
H11 H 0.1699 0.2490 -0.3282
H12 H 0.1368 0.2274 -0.2087
C9 C 0.3890(15) 0.3086(8) -0.5755(15)
C10 C 0.399(2) 0.2627(10) -0.512(2)
H13 H 0.3623 0.2665 -0.4404
H14 H 0.4867 0.2535 -0.4947
H15 H 0.3539 0.2371 -0.5594
C11 C 0.132(2) 0.3830(6) -0.7724(15)
C12 C -0.0159(17) 0.3745(10) -0.8121(17)
H16 H -0.0592 0.3717 -0.7437
H17 H -0.0279 0.3444 -0.8575
H18 H -0.0497 0.4022 -0.8589
C14 C -0.180(2) 0.3909(8) -0.5248(19)
Pb2_2 Pb 0.26127(6) 0.39041(2) -1.08777(6)
O11_2 O 0.1641(12) 0.4054(5) 0.3198(11)
O12_2 O 0.2003(14) 0.3690(7) 0.1550(14)
C11_2 C 0.132(2) 0.3830(6) 0.2276(15)
C12_2 C -0.0159(17) 0.3745(10) 0.1879(17)
H16_2 H -0.0592 0.3717 0.2563
H17_2 H -0.0279 0.3444 0.1425
H18_2 H -0.0497 0.4022 0.1411
O5_2 O 0.4378(12) 0.3581(5) -0.9186(10)
O6_2 O 0.4875(14) 0.3831(5) -1.0888(11)
C5_2 C 0.5206(15) 0.3696(6) -0.9847(13)
C6_2 C 0.6583(19) 0.3673(9) -0.9372(19)
H7_2 H 0.6672 0.3546 -0.8582
H8_2 H 0.6945 0.4001 -0.9372
H9_2 H 0.7018 0.3456 -0.9855
O1_2 O -0.0374(12) 0.3243(4) -1.3216(10)
O2_2 O 0.0386(13) 0.3969(5) -1.2607(12)
C1_2 C -0.0368(16) 0.3615(6) -1.2549(14)
C2_2 C -0.126(2) 0.3622(10) -1.161(2)
H1_2 H -0.1770 0.3326 -1.1673
H2_2 H -0.1800 0.3910 -1.1720
H3_2 H -0.0768 0.3636 -1.0848
O3_2 O 0.1565(13) 0.4693(5) -1.4169(11)
O4_2 O 0.3007(12) 0.4290(4) -1.2954(11)
C3_2 C 0.2475(17) 0.4694(6) -1.3322(15)
C4_2 C 0.288(3) 0.5186(11) -1.265(3)
H4_2 H 0.2391 0.5459 -1.3007
H5_2 H 0.3769 0.5246 -1.2683
H6_2 H 0.2735 0.5155 -1.1843
O7_2 O 0.2020(13) 0.3016(5) -1.0879(10)
O8_2 O 0.2728(12) 0.3292(4) -1.2480(11)
C7_2 C 0.2258(16) 0.2949(6) -1.1891(14)
C8_2 C 0.200(3) 0.2446(7) -1.2462(16)
H10_2 H 0.2771 0.2254 -1.2382
H11_2 H 0.1699 0.2490 -1.3282
H12_2 H 0.1368 0.2274 -1.2087
Pb1_2 Pb 0.13332(6) 0.37412(2) -1.43636(5)
Pb3_2 Pb 0.39172(7) 0.39575(3) 0.27827(6)
O9_2 O 0.3932(14) 0.3093(6) -1.6794(13)
O10_2 O 0.3799(12) 0.3498(5) -1.5225(11)
C9_2 C 0.3890(15) 0.3086(8) -1.5755(15)
C10_2 C 0.399(2) 0.2627(10) -1.512(2)
H13_2 H 0.3623 0.2665 -1.4404
H14_2 H 0.4867 0.2535 -1.4947
H15_2 H 0.3539 0.2371 -1.5594
S2_2 S -0.3155(6) 0.3597(3) -1.5405(7)
N2_2 N -0.0834(13) 0.4106(5) -1.5180(12)
C14_2 C -0.180(2) 0.3909(8) -1.5248(19)
Pb1_3 Pb 0.13332(6) 0.37412(2) 0.56364(5)
O11_3 O 0.1641(12) 0.4054(5) -1.6802(11)
O9_3 O 0.3932(14) 0.3093(6) 0.3206(13)
O10_3 O 0.3799(12) 0.3498(5) 0.4775(11)
Pb3_3 Pb 0.39172(7) 0.39575(3) -1.72173(6)
S4? S 0.608(3) 0.5109(8) -0.048(3)
N4? N 0.841(9) 0.504(8) -0.127(17)
C16? C 0.742(6) 0.504(2) -0.103(6)
loop_
_geom_bond_atom_site_label_1
_geom_bond_atom_site_label_2
_geom_bond_site_symmetry_1
_geom_bond_site_symmetry_2
Pb1 O1 1_555 1_555
Pb2 O2 1_555 1_555
Pb3 O9 1_555 1_555
S1 C13 1_555 1_555
S2 C14 1_555 1_555
S3 C15 1_555 1_555
O1 C1 1_555 1_555
O2 Pb1 1_555 1_555
O3 Pb1 1_555 1_555
O4 Pb1 1_555 1_555
O5 Pb2 1_555 1_555
O6 Pb2 1_555 1_555
O7 Pb2 1_555 1_555
O8 Pb1 1_555 1_555
O9 C9 1_555 1_555
O10 Pb1 1_555 1_555
O11 Pb1 1_555 1_555
O12 Pb3 1_555 1_555
N1 C13 1_555 1_555
N2 Pb1 1_555 1_555
N3 C15 1_555 1_555
C1 O2 1_555 1_555
C2 C1 1_555 1_555
H1 C2 1_555 1_555
H2 C2 1_555 1_555
H3 C2 1_555 1_555
C3 O3 1_555 1_555
C4 C3 1_555 1_555
H4 C4 1_555 1_555
H5 C4 1_555 1_555
H6 C4 1_555 1_555
C5 O5 1_555 1_555
C6 C5 1_555 1_555
H7 C6 1_555 1_555
H8 C6 1_555 1_555
H9 C6 1_555 1_555
C7 O7 1_555 1_555
C8 C7 1_555 1_555
H10 C8 1_555 1_555
H11 C8 1_555 1_555
H12 C8 1_555 1_555
C9 O10 1_555 1_555
C10 C9 1_555 1_555
H13 C10 1_555 1_555
H14 C10 1_555 1_555
H15 C10 1_555 1_555
C11 O11 1_555 1_555
C12 C11 1_555 1_555
H16 C12 1_555 1_555
H17 C12 1_555 1_555
H18 C12 1_555 1_555
C14 N2 1_555 1_555
C15 S3B 1_555 1_555
S3B S3 1_555 1_555
C15B S3 1_555 1_555
N3B C15B 1_555 1_555
Pb2_2 O12 1_555 1_555
O11_2 C11_2 1_555 1_555
O12_2 Pb2 1_555 1_555
C11_2 O12_2 1_555 1_555
C12_2 C11_2 1_555 1_555
H16_2 C12_2 1_555 1_555
H17_2 C12_2 1_555 1_555
H18_2 C12_2 1_555 1_555
O5_2 Pb3 1_555 1_555
O6_2 Pb2_2 1_555 1_555
C5_2 O5_2 1_555 1_555
C6_2 C5_2 1_555 1_555
H7_2 C6_2 1_555 1_555
H8_2 C6_2 1_555 1_555
H9_2 C6_2 1_555 1_555
O1_2 C1_2 1_555 1_555
O2_2 Pb2_2 1_555 1_555
C1_2 O2_2 1_555 1_555
C2_2 C1_2 1_555 1_555
H1_2 C2_2 1_555 1_555
H2_2 C2_2 1_555 1_555
H3_2 C2_2 1_555 1_555
O3_2 C3_2 1_555 1_555
O4_2 Pb2_2 1_555 1_555
C3_2 O4_2 1_555 1_555
C4_2 C3_2 1_555 1_555
H4_2 C4_2 1_555 1_555
H5_2 C4_2 1_555 1_555
H6_2 C4_2 1_555 1_555
O7_2 Pb2_2 1_555 1_555
O8_2 Pb2_2 1_555 1_555
C7_2 O7_2 1_555 1_555
C8_2 C7_2 1_555 1_555
H10_2 C8_2 1_555 1_555
H11_2 C8_2 1_555 1_555
H12_2 C8_2 1_555 1_555
Pb1_2 O1_2 1_555 1_555
Pb3_2 O5 1_555 1_555
O9_2 C9_2 1_555 1_555
O10_2 Pb1_2 1_555 1_555
C9_2 O10_2 1_555 1_555
C10_2 C9_2 1_555 1_555
H13_2 C10_2 1_555 1_555
H14_2 C10_2 1_555 1_555
H15_2 C10_2 1_555 1_555
S2_2 C14_2 1_555 1_555
N2_2 Pb1_2 1_555 1_555
C14_2 N2_2 1_555 1_555
Pb1_3 O11_2 1_555 1_555
O11_3 Pb1_2 1_555 1_555
O9_3 Pb3_2 1_555 1_555
O10_3 Pb3_2 1_555 1_555
Pb3_3 O9_2 1_555 1_555
Pb2 O4 1_555 1_555
Pb2 O8 1_555 1_555
Pb3 O10 1_555 1_555
Pb3 O11 1_555 1_555
O4 C3 1_555 1_555
O6 C5 1_555 1_555
O8 C7 1_555 1_555
O12 C11 1_555 1_555
S3B C15B 1_555 1_555
Pb2_2 O5_2 1_555 1_555
O11_2 Pb3_2 1_555 1_555
O12_2 Pb3_2 1_555 1_555
O6_2 C5_2 1_555 1_555
O2_2 Pb1_2 1_555 1_555
O3_2 Pb1_2 1_555 1_555
O4_2 Pb1_2 1_555 1_555
O8_2 Pb1_2 1_555 1_555
O8_2 C7_2 1_555 1_555
O10_2 Pb3_3 1_555 1_555
Pb1_3 O10_3 1_555 1_555
O11_3 Pb3_3 1_555 1_555

#END
