
#######################################################################
#
#                 Cambridge Crystallographic Data Centre
#                                CCDC 
#
#######################################################################
#
# If this CIF has been generated from an entry in the Cambridge 
# Structural Database, then it will include bibliographic, chemical, 
# crystal, experimental, refinement or atomic coordinate data resulting 
# from the CCDC's data processing and validation procedures.
#
#######################################################################

data_ACEFUL
_symmetry_cell_setting           orthorhombic
_symmetry_space_group_name_H-M   'F d d 2'
_symmetry_Int_Tables_number      43
_space_group_name_Hall           'F 2 -2d'
loop_
_symmetry_equiv_pos_site_id
_symmetry_equiv_pos_as_xyz
1 x,y,z
2 -x,-y,z
3 1/4-x,1/4+y,1/4+z
4 1/4+x,1/4-y,1/4+z
5 x,1/2+y,1/2+z
6 -x,1/2-y,1/2+z
7 1/4-x,3/4+y,3/4+z
8 1/4+x,3/4-y,3/4+z
9 1/2+x,y,1/2+z
10 1/2-x,-y,1/2+z
11 3/4-x,1/4+y,3/4+z
12 3/4+x,1/4-y,3/4+z
13 1/2+x,1/2+y,z
14 1/2-x,1/2-y,z
15 3/4-x,3/4+y,1/4+z
16 3/4+x,3/4-y,1/4+z
_cell_length_a                   35.5141(11)
_cell_length_b                   37.5405(12)
_cell_length_c                   10.7672(3)
_cell_angle_alpha                90
_cell_angle_beta                 90
_cell_angle_gamma                90
_cell_volume                     14355
loop_
_atom_site_label
_atom_site_type_symbol
_atom_site_fract_x
_atom_site_fract_y
_atom_site_fract_z
Cd1 Cd 0.343046(6) 0.608961(6) -0.06915(2)
Cd2 Cd 0.405650(6) 0.824910(6) 0.24115(2)
S1 S 0.45529(2) 0.78044(2) 0.12371(8)
S2 S 0.28229(2) 0.64283(2) 0.06043(9)
C1 C 0.31639(9) 0.84081(9) 0.3010(4)
H1 H 0.3218 0.8628 0.2658
C2 C 0.28069(10) 0.83491(11) 0.3452(4)
H2 H 0.2626 0.8528 0.3417
C3 C 0.27229(9) 0.80252(11) 0.3941(4)
H3 H 0.2482 0.7978 0.4235
C4 C 0.29988(9) 0.77666(10) 0.3996(3)
H4 H 0.2947 0.7543 0.4329
C5 C 0.33540(9) 0.78452(9) 0.3549(3)
C6 C 0.36586(9) 0.75807(9) 0.3594(3)
H5 H 0.3611 0.7352 0.3888
C7 C 0.42945(9) 0.74283(8) 0.3278(3)
C8 C 0.43210(10) 0.71560(8) 0.4150(3)
H6 H 0.4128 0.7120 0.4719
C9 C 0.46379(10) 0.69386(9) 0.4166(4)
H7 H 0.4656 0.6757 0.4749
C10 C 0.49248(10) 0.69903(9) 0.3328(4)
H8 H 0.5135 0.6842 0.3345
C11 C 0.49033(9) 0.72584(8) 0.2470(4)
H9 H 0.5100 0.7293 0.1912
C12 C 0.45893(8) 0.74786(8) 0.2430(3)
C13 C 0.43420(9) 0.75315(9) -0.0015(4)
H10 H 0.4527 0.7359 -0.0294
H11 H 0.4284 0.7685 -0.0713
C14 C 0.39912(9) 0.73374(9) 0.0362(3)
C15 C 0.36355(10) 0.74804(9) 0.0158(3)
H12 H 0.3613 0.7697 -0.0253
C16 C 0.33144(10) 0.73043(9) 0.0559(3)
H13 H 0.3079 0.7403 0.0408
C17 C 0.33409(9) 0.69817(9) 0.1184(3)
C18 C 0.40167(9) 0.70099(9) 0.0958(4)
H14 H 0.4251 0.6905 0.1078
C19 C 0.36950(10) 0.68384(9) 0.1376(3)
H15 H 0.3718 0.6623 0.1794
C20 C 0.29945(10) 0.67888(9) 0.1626(3)
H16 H 0.3047 0.6688 0.2438
H17 H 0.2794 0.6962 0.1728
C21 C 0.26504(9) 0.66795(8) -0.0666(3)
C22 C 0.22721(9) 0.67848(9) -0.0679(4)
H18 H 0.2115 0.6726 -0.0018
C23 C 0.21327(10) 0.69741(10) -0.1660(4)
H19 H 0.1883 0.7048 -0.1654
C24 C 0.23593(9) 0.70558(9) -0.2657(4)
H20 H 0.2260 0.7181 -0.3328
C25 C 0.27329(9) 0.69532(8) -0.2666(4)
H21 H 0.2885 0.7010 -0.3340
C26 C 0.28803(9) 0.67652(8) -0.1665(4)
C27 C 0.35275(9) 0.68194(9) -0.2110(3)
H22 H 0.3479 0.7032 -0.2524
C28 C 0.39154(9) 0.66861(8) -0.2005(3)
C29 C 0.42133(9) 0.68783(9) -0.2500(4)
H23 H 0.4172 0.7090 -0.2928
C30 C 0.45726(9) 0.67477(10) -0.2342(4)
H24 H 0.4777 0.6869 -0.2675
C31 C 0.46269(9) 0.64389(10) -0.1694(4)
H25 H 0.4868 0.6349 -0.1572
C32 C 0.43151(9) 0.62607(9) -0.1218(4)
H26 H 0.4352 0.6051 -0.0773
N1 N 0.34363(7) 0.81656(7) 0.3060(3)
N2 N 0.39872(7) 0.76657(7) 0.3229(3)
N3 N 0.32590(7) 0.66418(7) -0.1629(3)
N4 N 0.39656(7) 0.63814(7) -0.1383(3)
N5 N 0.41897(8) 0.90034(7) 0.2296(3)
N6 N 0.36138(8) 0.59135(8) 0.2083(3)
N7 N 0.36889(9) 0.53455(8) -0.0911(3)
N8 N 0.29811(8) 0.58031(7) -0.2727(3)
O1 O 0.42786(7) 0.93209(6) 0.2188(3)
O2 O 0.38653(7) 0.89114(7) 0.2592(3)
O3 O 0.44272(7) 0.87619(6) 0.2093(3)
O4 O 0.32660(7) 0.59059(9) 0.2082(3)
O5 O 0.37908(7) 0.59867(7) 0.1118(3)
O6 O 0.37934(7) 0.58468(7) 0.3055(2)
O7 O 0.38866(8) 0.55965(7) -0.1261(3)
O8 O 0.33756(9) 0.54310(10) -0.0445(3)
O9 O 0.37953(11) 0.50427(7) -0.1057(3)
O10 O 0.28376(8) 0.58777(7) -0.1711(3)
O11 O 0.33162(6) 0.59078(7) -0.2925(3)
O12 O 0.28145(7) 0.56359(7) -0.3531(3)
Cd2N Cd 0.344350(6) 0.574910(6) 0.49115(2)
Cd2N_2 Cd 0.344350(6) 0.574910(6) -0.50885(2)
O6J O 0.37066(7) 0.83468(7) 0.0555(2)
O11J O 0.41838(6) 0.84078(7) 0.4575(3)
loop_
_geom_bond_atom_site_label_1
_geom_bond_atom_site_label_2
_geom_bond_site_symmetry_1
_geom_bond_site_symmetry_2
Cd1 N3 1_555 1_555
Cd2 S1 1_555 1_555
S1 C12 1_555 1_555
S2 C20 1_555 1_555
C1 H1 1_555 1_555
C2 C1 1_555 1_555
H2 C2 1_555 1_555
C3 C2 1_555 1_555
H3 C3 1_555 1_555
C4 C3 1_555 1_555
H4 C4 1_555 1_555
C5 C4 1_555 1_555
C6 C5 1_555 1_555
H5 C6 1_555 1_555
C7 C8 1_555 1_555
C8 H6 1_555 1_555
C9 C8 1_555 1_555
H7 C9 1_555 1_555
C10 C9 1_555 1_555
H8 C10 1_555 1_555
C11 C10 1_555 1_555
H9 C11 1_555 1_555
C12 C7 1_555 1_555
C13 S1 1_555 1_555
H10 C13 1_555 1_555
H11 C13 1_555 1_555
C14 C13 1_555 1_555
C15 C14 1_555 1_555
H12 C15 1_555 1_555
C16 C15 1_555 1_555
H13 C16 1_555 1_555
C17 C16 1_555 1_555
C18 C14 1_555 1_555
H14 C18 1_555 1_555
C19 C17 1_555 1_555
H15 C19 1_555 1_555
C20 C17 1_555 1_555
H16 C20 1_555 1_555
H17 C20 1_555 1_555
C21 S2 1_555 1_555
C22 C21 1_555 1_555
H18 C22 1_555 1_555
C23 C22 1_555 1_555
H19 C23 1_555 1_555
C24 C23 1_555 1_555
H20 C24 1_555 1_555
C25 C24 1_555 1_555
H21 C25 1_555 1_555
C26 C21 1_555 1_555
C27 H22 1_555 1_555
C28 C27 1_555 1_555
C29 C28 1_555 1_555
H23 C29 1_555 1_555
C30 C29 1_555 1_555
H24 C30 1_555 1_555
C31 C30 1_555 1_555
H25 C31 1_555 1_555
C32 C31 1_555 1_555
H26 C32 1_555 1_555
N1 Cd2 1_555 1_555
N2 Cd2 1_555 1_555
N3 C26 1_555 1_555
N4 Cd1 1_555 1_555
N5 O1 1_555 1_555
N6 O4 1_555 1_555
N7 O7 1_555 1_555
N8 O10 1_555 1_555
O2 N5 1_555 1_555
O3 Cd2 1_555 1_555
O5 Cd1 1_555 1_555
O6 N6 1_555 1_555
O8 Cd1 1_555 1_555
O9 N7 1_555 1_555
O10 Cd1 1_555 1_555
O11 N8 1_555 1_555
O12 N8 1_555 1_555
Cd2N O6 1_555 1_555
Cd2N_2 O11 1_555 1_555
O6J Cd2 1_555 1_555
O11J Cd2 1_555 1_555
C1 N1 1_555 1_555
C5 N1 1_555 1_555
C6 N2 1_555 1_555
C7 N2 1_555 1_555
C11 C12 1_555 1_555
C18 C19 1_555 1_555
C25 C26 1_555 1_555
C27 N3 1_555 1_555
C28 N4 1_555 1_555
C32 N4 1_555 1_555
N5 O3 1_555 1_555
N6 O5 1_555 1_555
N7 O8 1_555 1_555

#END
