
#######################################################################
#
#                 Cambridge Crystallographic Data Centre
#                                CCDC 
#
#######################################################################
#
# If this CIF has been generated from an entry in the Cambridge 
# Structural Database, then it will include bibliographic, chemical, 
# crystal, experimental, refinement or atomic coordinate data resulting 
# from the CCDC's data processing and validation procedures.
#
#######################################################################

data_ACEGOG
_symmetry_cell_setting           triclinic
_symmetry_space_group_name_H-M   'P -1'
_symmetry_Int_Tables_number      2
_space_group_name_Hall           '-P 1'
loop_
_symmetry_equiv_pos_site_id
_symmetry_equiv_pos_as_xyz
1 x,y,z
2 -x,-y,-z
_cell_length_a                   8.7941(18)
_cell_length_b                   9.871(2)
_cell_length_c                   11.704(2)
_cell_angle_alpha                71.15(3)
_cell_angle_beta                 86.38(3)
_cell_angle_gamma                68.34(3)
_cell_volume                     891.783
loop_
_atom_site_label
_atom_site_type_symbol
_atom_site_fract_x
_atom_site_fract_y
_atom_site_fract_z
Cd1 Cd 0.37402(2) 0.99885(2) 0.368422(18)
Cl1 Cl 0.34013(9) 1.16278(9) 0.50639(8)
Cl2 Cl 0.45714(13) 1.11867(12) 0.17189(8)
N1 N 0.0920(3) 1.0916(3) 0.3459(3)
N2 N -0.1700(3) 1.2125(3) 0.3639(2)
N3 N -0.3608(3) 1.2358(3) 0.6140(2)
N4 N -0.2753(3) 1.4311(3) 0.5451(3)
H1 H -0.2433 1.4997 0.4956
C1 C -0.0136(4) 1.1890(4) 0.3929(3)
H2 H 0.0151 1.2364 0.4403
C2 C -0.0016(5) 1.0515(5) 0.2821(4)
H3 H 0.0405 0.9832 0.2386
C3 C -0.1611(4) 1.1245(5) 0.2915(4)
H4 H -0.2485 1.1173 0.2563
C4 C -0.3205(4) 1.3200(4) 0.3918(3)
H5 H -0.3409 1.4222 0.3349
H6 H -0.4112 1.2907 0.3810
C5 C -0.3160(3) 1.3258(3) 0.5176(3)
C6 C -0.3481(4) 1.2880(3) 0.7085(3)
C7 C -0.3883(4) 1.2393(4) 0.8293(3)
H7 H -0.4245 1.1577 0.8580
C8 C -0.3720(5) 1.3171(5) 0.9031(3)
H8 H -0.3979 1.2878 0.9834
C9 C -0.3164(5) 1.4409(5) 0.8594(4)
H9 H -0.3080 1.4923 0.9114
C10 C -0.2742(5) 1.4875(4) 0.7409(3)
H10 H -0.2346 1.5669 0.7125
C11 C -0.2941(4) 1.4096(3) 0.6672(3)
Cd1A Cd 0.62598(2) 1.00115(2) 0.631578(18)
Cd1A_2 Cd -0.37402(2) 1.00115(2) 0.631578(18)
Cl1A Cl 0.65987(9) 0.83722(9) 0.49361(8)
N3A N 0.3608(3) 0.7642(3) 0.3860(2)
N5 N 0.1475(4) 0.2800(4) 0.8515(3)
C12 C 0.1464(8) 0.1332(6) 0.9308(4)
H11 H 0.1582 0.0661 0.8843
H12 H 0.0446 0.1490 0.9694
H13 H 0.2357 0.0875 0.9912
C13 C 0.1273(8) 0.3968(7) 0.9062(5)
H14 H 0.1276 0.4891 0.8451
H15 H 0.2158 0.3608 0.9658
H16 H 0.0251 0.4183 0.9443
C14 C 0.1584(5) 0.3083(5) 0.7341(4)
H17 H 0.1682 0.2299 0.7032
O1 O 0.1564(5) 0.4327(4) 0.6622(3)
loop_
_geom_bond_atom_site_label_1
_geom_bond_atom_site_label_2
_geom_bond_site_symmetry_1
_geom_bond_site_symmetry_2
Cd1 Cl1 1_555 1_555
Cl1 Cd1A 1_555 1_555
Cl2 Cd1 1_555 1_555
N1 Cd1 1_555 1_555
N2 C1 1_555 1_555
N3 C5 1_555 1_555
N4 H1 1_555 1_555
C1 N1 1_555 1_555
H2 C1 1_555 1_555
C2 N1 1_555 1_555
H3 C2 1_555 1_555
C3 N2 1_555 1_555
H4 C3 1_555 1_555
C4 N2 1_555 1_555
H5 C4 1_555 1_555
H6 C4 1_555 1_555
C5 N4 1_555 1_555
C6 N3 1_555 1_555
C7 C6 1_555 1_555
H7 C7 1_555 1_555
C8 C7 1_555 1_555
H8 C8 1_555 1_555
C9 C8 1_555 1_555
H9 C9 1_555 1_555
C10 C9 1_555 1_555
H10 C10 1_555 1_555
C11 N4 1_555 1_555
N5 C12 1_555 1_555
C12 H11 1_555 1_555
H12 C12 1_555 1_555
H13 C12 1_555 1_555
C13 N5 1_555 1_555
H14 C13 1_555 1_555
H15 C13 1_555 1_555
H16 C13 1_555 1_555
C14 N5 1_555 1_555
H17 C14 1_555 1_555
O1 C14 1_555 1_555
Cd1A Cl1A 1_555 1_555
Cd1A_2 N3 1_555 1_555
Cl1A Cd1 1_555 1_555
N3A Cd1 1_555 1_555
C2 C3 1_555 1_555
C4 C5 1_555 1_555
C6 C11 1_555 1_555
C10 C11 1_555 1_555

#END
