
#######################################################################
#
#                 Cambridge Crystallographic Data Centre
#                                CCDC 
#
#######################################################################
#
# If this CIF has been generated from an entry in the Cambridge 
# Structural Database, then it will include bibliographic, chemical, 
# crystal, experimental, refinement or atomic coordinate data resulting 
# from the CCDC's data processing and validation procedures.
#
#######################################################################

data_ACEGIA
_symmetry_cell_setting           triclinic
_symmetry_space_group_name_H-M   'P -1'
_symmetry_Int_Tables_number      2
_space_group_name_Hall           '-P 1'
loop_
_symmetry_equiv_pos_site_id
_symmetry_equiv_pos_as_xyz
1 x,y,z
2 -x,-y,-z
_cell_length_a                   8.3263(17)
_cell_length_b                   10.048(2)
_cell_length_c                   10.073(2)
_cell_angle_alpha                75.78(3)
_cell_angle_beta                 87.08(3)
_cell_angle_gamma                73.75(3)
_cell_volume                     784.133
loop_
_atom_site_label
_atom_site_type_symbol
_atom_site_fract_x
_atom_site_fract_y
_atom_site_fract_z
Cd1 Cd 0.5793 0.9629 0.8264
Cl1 Cl 0.7186(1) 0.9582(1) 1.0422(1)
Cl2 Cl 0.4822(1) 1.1670(1) 0.6276(1)
N1 N -0.1602(2) 0.8829(2) 0.7299(2)
N2 N 0.0969(2) 0.8669(2) 0.6617(2)
N3 N 0.5132(2) 0.7674(2) 0.8050(2)
N4 N 0.4086(2) 0.6217(2) 0.7256(2)
H1 H 0.3441 0.5935 0.6814
C1 C -0.0199(3) 0.9102(2) 0.7506(2)
H2 H -0.0033 0.9540 0.8181
C2 C -0.1329(3) 0.8191(3) 0.6224(3)
H3 H -0.2112 0.7876 0.5851
C3 C 0.0256(3) 0.8088(3) 0.5785(3)
H4 H 0.0758 0.7702 0.5067
C4 C 0.2658(3) 0.8845(2) 0.6514(3)
H5 H 0.2660 0.9668 0.6855
H6 H 0.2957 0.9040 0.5557
C5 C 0.3949(3) 0.7577(2) 0.7288(2)
C6 C 0.5463(3) 0.5358(2) 0.8068(3)
C7 C 0.6169(3) 0.3879(3) 0.8419(3)
H7 H 0.5735 0.3266 0.8082
C8 C 0.7540(3) 0.3380(3) 0.9289(3)
H8 H 0.8060 0.2404 0.9537
C9 C 0.8173(3) 0.4298(3) 0.9811(3)
H9 H 0.9092 0.3915 1.0409
C10 C 0.7477(3) 0.5753(3) 0.9468(3)
H10 H 0.7902 0.6358 0.9824
C11 C 0.6108(3) 0.6282(2) 0.8563(2)
Cd1A Cd 0.4207 1.0371 1.1736
Cd1_2 Cd -0.4207 0.9629 0.8264
Cd1A_2 Cd 1.4207 1.0371 1.1736
Cl1A Cl 0.2814(1) 1.0418(1) 0.9578(1)
Cl2A Cl 0.5178(1) 0.8330(1) 1.3724(1)
N1A N 1.1602(2) 1.1171(2) 1.2701(2)
N1_2 N 0.8398(2) 0.8829(2) 0.7299(2)
N1A_2 N 0.1602(2) 1.1171(2) 1.2701(2)
N2A N 0.9031(2) 1.1331(2) 1.3383(2)
N3A N 0.4868(2) 1.2326(2) 1.1950(2)
N4A N 0.5914(2) 1.3783(2) 1.2744(2)
H1A H 0.6559 1.4065 1.3186
C1A C 1.0199(3) 1.0898(2) 1.2494(2)
H2A H 1.0033 1.0460 1.1819
C2A C 1.1329(3) 1.1809(3) 1.3776(3)
H3A H 1.2112 1.2124 1.4149
C3A C 0.9744(3) 1.1912(3) 1.4215(3)
H4A H 0.9242 1.2298 1.4933
C4A C 0.7342(3) 1.1155(2) 1.3486(3)
H5A H 0.7340 1.0332 1.3145
H6A H 0.7043 1.0960 1.4443
C5A C 0.6051(3) 1.2423(2) 1.2712(2)
C6A C 0.4537(3) 1.4642(2) 1.1932(3)
C7A C 0.3831(3) 1.6121(3) 1.1581(3)
H7A H 0.4265 1.6734 1.1918
C8A C 0.2460(3) 1.6620(3) 1.0711(3)
H8A H 0.1940 1.7596 1.0463
C9A C 0.1827(3) 1.5702(3) 1.0189(3)
H9A H 0.0908 1.6085 0.9591
C10A C 0.2523(3) 1.4247(3) 1.0532(3)
H10A H 0.2098 1.3642 1.0176
C11A C 0.3892(3) 1.3718(2) 1.1437(2)
C12 C 0.0942(5) 0.4246(4) 0.6853(5)
H11 H 0.1347 0.3504 0.7661
H12 H 0.0409 0.3888 0.6249
H13 H 0.0150 0.5038 0.7105
O1 O 0.2298(3) 0.4700(2) 0.6181(3)
H14 H 0.3015 0.4010 0.6030
loop_
_geom_bond_atom_site_label_1
_geom_bond_atom_site_label_2
_geom_bond_site_symmetry_1
_geom_bond_site_symmetry_2
Cd1 Cl1 1_555 1_555
Cl1 Cd1A 1_555 1_555
Cl2 Cd1 1_555 1_555
N1 C1 1_555 1_555
N2 C1 1_555 1_555
N3 Cd1 1_555 1_555
N4 H1 1_555 1_555
C1 H2 1_555 1_555
C2 N1 1_555 1_555
H3 C2 1_555 1_555
C3 N2 1_555 1_555
H4 C3 1_555 1_555
C4 N2 1_555 1_555
H5 C4 1_555 1_555
H6 C4 1_555 1_555
C5 N3 1_555 1_555
C6 N4 1_555 1_555
C7 C6 1_555 1_555
H7 C7 1_555 1_555
C8 C7 1_555 1_555
H8 C8 1_555 1_555
C9 C8 1_555 1_555
H9 C9 1_555 1_555
C10 C9 1_555 1_555
H10 C10 1_555 1_555
C11 N3 1_555 1_555
C12 H11 1_555 1_555
H12 C12 1_555 1_555
H13 C12 1_555 1_555
O1 C12 1_555 1_555
H14 O1 1_555 1_555
Cd1A Cl1A 1_555 1_555
Cd1_2 N1 1_555 1_555
Cd1A_2 N1A 1_555 1_555
Cl1A Cd1 1_555 1_555
Cl2A Cd1A 1_555 1_555
N1A C1A 1_555 1_555
N1_2 Cd1 1_555 1_555
N1A_2 Cd1A 1_555 1_555
N2A C1A 1_555 1_555
N3A Cd1A 1_555 1_555
N4A H1A 1_555 1_555
C1A H2A 1_555 1_555
C2A N1A 1_555 1_555
H3A C2A 1_555 1_555
C3A N2A 1_555 1_555
H4A C3A 1_555 1_555
C4A N2A 1_555 1_555
H5A C4A 1_555 1_555
H6A C4A 1_555 1_555
C5A N3A 1_555 1_555
C6A N4A 1_555 1_555
C7A C6A 1_555 1_555
H7A C7A 1_555 1_555
C8A C7A 1_555 1_555
H8A C8A 1_555 1_555
C9A C8A 1_555 1_555
H9A C9A 1_555 1_555
C10A C9A 1_555 1_555
H10A C10A 1_555 1_555
C11A N3A 1_555 1_555
N4 C5 1_555 1_555
C2 C3 1_555 1_555
C4 C5 1_555 1_555
C6 C11 1_555 1_555
C10 C11 1_555 1_555
N4A C5A 1_555 1_555
C2A C3A 1_555 1_555
C4A C5A 1_555 1_555
C6A C11A 1_555 1_555
C10A C11A 1_555 1_555

#END
