
#######################################################################
#
#                 Cambridge Crystallographic Data Centre
#                                CCDC 
#
#######################################################################
#
# If this CIF has been generated from an entry in the Cambridge 
# Structural Database, then it will include bibliographic, chemical, 
# crystal, experimental, refinement or atomic coordinate data resulting 
# from the CCDC's data processing and validation procedures.
#
#######################################################################

data_ACEGEW
_symmetry_cell_setting           triclinic
_symmetry_space_group_name_H-M   'P -1'
_symmetry_Int_Tables_number      2
_space_group_name_Hall           '-P 1'
loop_
_symmetry_equiv_pos_site_id
_symmetry_equiv_pos_as_xyz
1 x,y,z
2 -x,-y,-z
_cell_length_a                   8.9045(11)
_cell_length_b                   10.3308(12)
_cell_length_c                   14.0372(17)
_cell_angle_alpha                106.489(3)
_cell_angle_beta                 100.946(3)
_cell_angle_gamma                90.640(3)
_cell_volume                     1212.75
loop_
_atom_site_label
_atom_site_type_symbol
_atom_site_fract_x
_atom_site_fract_y
_atom_site_fract_z
Mn1 Mn 0.34320(3) 0.11806(2) 0.642568(19)
Mn2 Mn 0.0000 0.0000 0.5000
C1 C 0.1974(2) 0.22746(17) 0.46618(13)
C2 C 0.2027(2) 0.33753(17) 0.41421(13)
C3 C 0.0698(2) 0.39234(19) 0.37984(15)
H1 H -0.0239 0.3646 0.3904
C4 C 0.0772(2) 0.48828(19) 0.32983(15)
H2 H -0.0114 0.5273 0.3080
C5 C 0.3426(2) 0.47539(18) 0.34645(14)
H3 H 0.4349 0.5041 0.3346
C6 C 0.3409(2) 0.38167(18) 0.39864(14)
H4 H 0.4319 0.3480 0.4234
C7 C 0.2150(2) 0.61492(17) 0.24641(14)
H5 H 0.3089 0.6732 0.2701
H6 H 0.1293 0.6720 0.2507
C8 C 0.20609(19) 0.53295(17) 0.13712(13)
C9 C 0.1643(2) 0.39537(18) 0.10405(15)
H7 H 0.1436 0.3521 0.1503
C10 C 0.1528(2) 0.32122(19) 0.00379(15)
H8 H 0.1244 0.2290 -0.0169
C11 C 0.1833(2) 0.3841(2) -0.06525(15)
H9 H 0.1757 0.3346 -0.1328
C12 C 0.2253(2) 0.52119(19) -0.03385(14)
H10 H 0.2457 0.5634 -0.0808
C13 C 0.23738(19) 0.59695(17) 0.06653(14)
C14 C 0.2803(2) 0.74753(18) 0.10133(14)
H11 H 0.1942 0.7956 0.1232
H12 H 0.3655 0.7680 0.1589
C15 C 0.2195(2) 0.8463(2) -0.03948(17)
H13 H 0.1198 0.8528 -0.0284
C16 C 0.2583(2) 0.8891(2) -0.11577(16)
H14 H 0.1855 0.9259 -0.1555
C17 C 0.4052(2) 0.87801(17) -0.13398(14)
C18 C 0.5089(2) 0.8209(2) -0.07416(15)
H15 H 0.6079 0.8097 -0.0859
C19 C 0.4664(2) 0.7806(2) 0.00250(15)
H16 H 0.5371 0.7430 0.0429
C20 C 0.4515(2) 0.93488(18) -0.21390(14)
N1 N 0.41206(19) 0.31453(17) 0.75458(13)
N2 N 0.3543(2) 0.41215(18) 0.74574(13)
N3 N 0.2995(3) 0.5121(2) 0.7386(2)
N4 N 0.08738(17) 0.13841(15) 0.65596(12)
N5 N 0.04222(17) 0.11252(14) 0.72278(12)
N6 N -0.0031(2) 0.09121(19) 0.78970(14)
N7 N 0.24037(17) -0.07206(15) 0.51701(12)
N8 N 0.25912(18) -0.18220(15) 0.53014(12)
N9 N 0.2778(3) -0.28607(19) 0.54258(18)
N10 N 0.21188(17) 0.52595(14) 0.31232(11)
N11 N 0.32372(17) 0.79517(14) 0.01951(11)
O1 O 0.07374(16) 0.15817(14) 0.44414(11)
O2 O 0.31770(15) 0.21667(14) 0.52479(10)
O3 O 0.35940(16) 1.01046(14) -0.24535(11)
O4 O 0.57640(17) 0.90590(18) -0.23818(13)
O5 O 0.58198(16) 0.06969(15) 0.63728(12)
H17 H 0.598(3) 0.009(3) 0.664(2)
H18 H 0.631(3) 0.066(3) 0.596(2)
Mn1A Mn -0.34320(3) -0.11806(2) 0.357432(19)
Mn1_2 Mn 0.34320(3) 1.11806(2) -0.357432(19)
Mn1A_2 Mn -0.34320(3) -1.11806(2) 1.357432(19)
C1A C -0.1974(2) -0.22746(17) 0.53382(13)
C2A C -0.2027(2) -0.33753(17) 0.58579(13)
C3A C -0.0698(2) -0.39234(19) 0.62016(15)
H1A H 0.0239 -0.3646 0.6096
C4A C -0.0772(2) -0.48828(19) 0.67017(15)
H2A H 0.0114 -0.5273 0.6920
C5A C -0.3426(2) -0.47539(18) 0.65355(14)
H3A H -0.4349 -0.5041 0.6654
C6A C -0.3409(2) -0.38167(18) 0.60136(14)
H4A H -0.4319 -0.3480 0.5766
C7A C -0.2150(2) -0.61492(17) 0.75359(14)
H5A H -0.3089 -0.6732 0.7299
H6A H -0.1293 -0.6720 0.7493
C8A C -0.20609(19) -0.53295(17) 0.86288(13)
C9A C -0.1643(2) -0.39537(18) 0.89595(15)
H7A H -0.1436 -0.3521 0.8497
C10A C -0.1528(2) -0.32122(19) 0.99621(15)
H8A H -0.1244 -0.2290 1.0169
C11A C -0.1833(2) -0.3841(2) 1.06525(15)
H9A H -0.1757 -0.3346 1.1328
C12A C -0.2253(2) -0.52119(19) 1.03385(14)
H10A H -0.2457 -0.5634 1.0808
C13A C -0.23738(19) -0.59695(17) 0.93347(14)
C14A C -0.2803(2) -0.74753(18) 0.89867(14)
H11A H -0.1942 -0.7956 0.8768
H12A H -0.3655 -0.7680 0.8411
C15A C -0.2195(2) -0.8463(2) 1.03948(17)
H13A H -0.1198 -0.8528 1.0284
C16A C -0.2583(2) -0.8891(2) 1.11577(16)
H14A H -0.1855 -0.9259 1.1555
C17A C -0.4052(2) -0.87801(17) 1.13398(14)
C18A C -0.5089(2) -0.8209(2) 1.07416(15)
H15A H -0.6079 -0.8097 1.0859
C19A C -0.4664(2) -0.7806(2) 0.99750(15)
H16A H -0.5371 -0.7430 0.9571
C20A C -0.4515(2) -0.93488(18) 1.21390(14)
N1A N -0.41206(19) -0.31453(17) 0.24542(13)
N2A N -0.3543(2) -0.41215(18) 0.25426(13)
N3A N -0.2995(3) -0.5121(2) 0.2614(2)
N4A N -0.08738(17) -0.13841(15) 0.34404(12)
N5A N -0.04222(17) -0.11252(14) 0.27722(12)
N6A N 0.0031(2) -0.09121(19) 0.21030(14)
N7A N -0.24037(17) 0.07206(15) 0.48299(12)
N8A N -0.25912(18) 0.18220(15) 0.46986(12)
N9A N -0.2778(3) 0.28607(19) 0.45742(18)
N10A N -0.21188(17) -0.52595(14) 0.68768(11)
N11A N -0.32372(17) -0.79517(14) 0.98049(11)
O1A O -0.07374(16) -0.15817(14) 0.55586(11)
O2A O -0.31770(15) -0.21667(14) 0.47521(10)
O3A O -0.35940(16) -1.01046(14) 1.24535(11)
O3_2 O 0.35940(16) 0.01046(14) 0.75465(11)
O3A_2 O -0.35940(16) -0.01046(14) 0.24535(11)
O4A O -0.57640(17) -0.90590(18) 1.23818(13)
O5A O -0.58198(16) -0.06969(15) 0.36272(12)
H17A H -0.598(3) -0.009(3) 0.336(2)
H18A H -0.631(3) -0.066(3) 0.404(2)
O6 O 0.1287(2) 0.1060(2) 0.13660(19)
H19 H 0.222(4) 0.110(3) 0.168(3)
H20 H 0.087(4) 0.049(3) 0.162(2)
loop_
_geom_bond_atom_site_label_1
_geom_bond_atom_site_label_2
_geom_bond_site_symmetry_1
_geom_bond_site_symmetry_2
Mn1 N1 1_555 1_555
Mn2 N4 1_555 1_555
C1 C2 1_555 1_555
C2 C3 1_555 1_555
C3 H1 1_555 1_555
C4 C3 1_555 1_555
H2 C4 1_555 1_555
C5 H3 1_555 1_555
C6 C2 1_555 1_555
H4 C6 1_555 1_555
C7 H5 1_555 1_555
H6 C7 1_555 1_555
C8 C7 1_555 1_555
C9 C8 1_555 1_555
H7 C9 1_555 1_555
C10 C9 1_555 1_555
H8 C10 1_555 1_555
C11 C10 1_555 1_555
H9 C11 1_555 1_555
C12 C11 1_555 1_555
H10 C12 1_555 1_555
C13 C8 1_555 1_555
C14 C13 1_555 1_555
H11 C14 1_555 1_555
H12 C14 1_555 1_555
C15 H13 1_555 1_555
C16 C15 1_555 1_555
H14 C16 1_555 1_555
C17 C16 1_555 1_555
C18 C17 1_555 1_555
H15 C18 1_555 1_555
C19 C18 1_555 1_555
H16 C19 1_555 1_555
C20 C17 1_555 1_555
N1 N2 1_555 1_555
N2 N3 1_555 1_555
N4 Mn1 1_555 1_555
N5 N4 1_555 1_555
N6 N5 1_555 1_555
N7 Mn1 1_555 1_555
N8 N7 1_555 1_555
N9 N8 1_555 1_555
N10 C4 1_555 1_555
N11 C14 1_555 1_555
O1 Mn2 1_555 1_555
O2 Mn1 1_555 1_555
O3 C20 1_555 1_555
O4 C20 1_555 1_555
O5 Mn1 1_555 1_555
H17 O5 1_555 1_555
H18 O5 1_555 1_555
O6 H19 1_555 1_555
H20 O6 1_555 1_555
Mn1A N1A 1_555 1_555
Mn1_2 O3 1_555 1_555
Mn1A_2 O3A 1_555 1_555
C1A C2A 1_555 1_555
C2A C3A 1_555 1_555
C3A H1A 1_555 1_555
C4A C3A 1_555 1_555
H2A C4A 1_555 1_555
C5A H3A 1_555 1_555
C6A C2A 1_555 1_555
H4A C6A 1_555 1_555
C7A H5A 1_555 1_555
H6A C7A 1_555 1_555
C8A C7A 1_555 1_555
C9A C8A 1_555 1_555
H7A C9A 1_555 1_555
C10A C9A 1_555 1_555
H8A C10A 1_555 1_555
C11A C10A 1_555 1_555
H9A C11A 1_555 1_555
C12A C11A 1_555 1_555
H10A C12A 1_555 1_555
C13A C8A 1_555 1_555
C14A C13A 1_555 1_555
H11A C14A 1_555 1_555
H12A C14A 1_555 1_555
C15A H13A 1_555 1_555
C16A C15A 1_555 1_555
H14A C16A 1_555 1_555
C17A C16A 1_555 1_555
C18A C17A 1_555 1_555
H15A C18A 1_555 1_555
C19A C18A 1_555 1_555
H16A C19A 1_555 1_555
C20A C17A 1_555 1_555
N1A N2A 1_555 1_555
N2A N3A 1_555 1_555
N4A Mn2 1_555 1_555
N5A N4A 1_555 1_555
N6A N5A 1_555 1_555
N7A Mn2 1_555 1_555
N8A N7A 1_555 1_555
N9A N8A 1_555 1_555
N10A C4A 1_555 1_555
N11A C14A 1_555 1_555
O1A Mn2 1_555 1_555
O2A Mn1A 1_555 1_555
O3A C20A 1_555 1_555
O3_2 Mn1 1_555 1_555
O3A_2 Mn1A 1_555 1_555
O4A C20A 1_555 1_555
O5A Mn1A 1_555 1_555
H17A O5A 1_555 1_555
H18A O5A 1_555 1_555
Mn2 N7 1_555 1_555
C1 O1 1_555 1_555
C1 O2 1_555 1_555
C5 C6 1_555 1_555
C5 N10 1_555 1_555
C7 N10 1_555 1_555
C12 C13 1_555 1_555
C15 N11 1_555 1_555
C19 N11 1_555 1_555
Mn1A N4A 1_555 1_555
Mn1A N7A 1_555 1_555
C1A O1A 1_555 1_555
C1A O2A 1_555 1_555
C5A C6A 1_555 1_555
C5A N10A 1_555 1_555
C7A N10A 1_555 1_555
C12A C13A 1_555 1_555
C15A N11A 1_555 1_555
C19A N11A 1_555 1_555

#END
