
#######################################################################
#
#                 Cambridge Crystallographic Data Centre
#                                CCDC 
#
#######################################################################
#
# If this CIF has been generated from an entry in the Cambridge 
# Structural Database, then it will include bibliographic, chemical, 
# crystal, experimental, refinement or atomic coordinate data resulting 
# from the CCDC's data processing and validation procedures.
#
#######################################################################

data_ACEKOK
_symmetry_cell_setting           triclinic
_symmetry_space_group_name_H-M   'P -1'
_symmetry_Int_Tables_number      2
_space_group_name_Hall           '-P 1'
loop_
_symmetry_equiv_pos_site_id
_symmetry_equiv_pos_as_xyz
1 x,y,z
2 -x,-y,-z
_cell_length_a                   10.237(2)
_cell_length_b                   11.057(2)
_cell_length_c                   11.529(2)
_cell_angle_alpha                93.36(3)
_cell_angle_beta                 95.30(3)
_cell_angle_gamma                108.21(3)
_cell_volume                     1229.03
loop_
_atom_site_label
_atom_site_type_symbol
_atom_site_fract_x
_atom_site_fract_y
_atom_site_fract_z
Cd1 Cd 0.611304(17) 0.767582(16) 0.906624(15)
N1 N 0.7740(2) 0.9359(2) 1.03345(19)
N2 N 0.9533(2) 1.1045(2) 1.1075(2)
H1 H 1.0150 1.1787 1.1125
N3 N 0.5538(2) 1.2290(2) 0.96838(19)
N4 N 0.7053(3) 1.2505(2) 0.8362(2)
N5 N 0.7303(2) 1.1768(2) 0.91973(18)
O1 O 0.5134(2) 0.9160(2) 0.80357(17)
O2 O 0.6449(2) 0.8275(2) 0.71449(17)
O3 O 0.80036(18) 0.69915(17) 0.88818(17)
O4 O 0.67653(18) 0.58118(18) 1.01151(17)
O5 O 0.4344(2) 0.58605(18) 0.82446(17)
H2 H 0.4001 0.5308 0.8710
H3 H 0.4631 0.5484 0.7708
C1 C 0.5654(3) 0.8948(2) 0.7144(2)
C2 C 0.5945(3) 0.9342(3) 0.5039(2)
H4 H 0.6584 0.8900 0.5059
C3 C 0.5333(3) 0.9505(2) 0.6031(2)
C4 C 0.4388(3) 1.0167(3) 0.5988(2)
H5 H 0.3973 1.0284 0.6651
C5 C 0.7816(2) 0.6128(2) 0.9588(2)
C6 C 0.9865(3) 0.5578(3) 0.8986(2)
H6 H 0.9776 0.5967 0.8302
C7 C 0.8940(2) 0.5527(2) 0.9797(2)
C8 C 0.9074(3) 0.4947(2) 1.0818(2)
H7 H 0.8456 0.4910 1.1368
C9 C 0.8222(3) 0.9138(2) 1.1447(2)
C10 C 0.7754(3) 0.8086(3) 1.2092(3)
H8 H 0.6988 0.7388 1.1803
C11 C 0.8472(3) 0.8125(3) 1.3170(3)
H9 H 0.8177 0.7442 1.3621
C12 C 0.9633(3) 0.9166(3) 1.3605(3)
H10 H 1.0108 0.9143 1.4327
C13 C 1.0093(3) 1.0219(3) 1.2997(3)
H11 H 1.0855 1.0917 1.3295
C14 C 0.9358(3) 1.0188(3) 1.1909(2)
C15 C 0.8557(3) 1.0505(2) 1.0159(2)
C16 C 0.8386(3) 1.1178(3) 0.9100(2)
H12 H 0.9253 1.1831 0.9018
H13 H 0.8143 1.0573 0.8410
C17 C 0.6397(3) 1.1646(2) 0.9967(2)
H14 H 0.6368 1.1175 1.0612
C18 C 0.5993(3) 1.2798(3) 0.8702(3)
H15 H 0.5585 1.3316 0.8297
Cd1A Cd 0.388696(17) 1.232418(16) 1.093376(15)
Cd1A_2 Cd 0.388696(17) 1.232418(16) 0.093376(15)
Cd1A_3 Cd 1.388696(17) 0.232418(16) 1.093376(15)
N1A N 0.2260(2) 1.0641(2) 0.96655(19)
N2A N 0.0467(2) 0.8955(2) 0.8925(2)
H1A H -0.0150 0.8213 0.8875
N3A N 0.4462(2) 0.7710(2) 1.03162(19)
N4A N 0.2947(3) 0.7495(2) 1.1638(2)
N5A N 0.2697(2) 0.8232(2) 1.08027(18)
O1A O 0.4866(2) 1.0840(2) 0.19643(17)
O1A_2 O 0.4866(2) 1.0840(2) 1.19643(17)
O2A O 0.3551(2) 1.1725(2) 0.28551(17)
O2A_2 O 0.3551(2) 1.1725(2) 1.28551(17)
O3A O 1.19964(18) 0.30085(17) 1.11182(17)
O3A_2 O 0.19964(18) 1.30085(17) 1.11182(17)
O4A O 1.32347(18) 0.41882(18) 0.98849(17)
O5A O 0.5656(2) 1.41395(18) 1.17554(17)
H2A H 0.5999 1.4692 1.1290
H3A H 0.5369 1.4516 1.2292
C1A C 0.4346(3) 1.1052(2) 0.2856(2)
C2A C 0.4055(3) 1.0658(3) 0.4961(2)
H4A H 0.3416 1.1100 0.4941
C3A C 0.4667(3) 1.0495(2) 0.3969(2)
C4A C 0.5612(3) 0.9833(3) 0.4012(2)
H5A H 0.6027 0.9716 0.3349
C5A C 1.2184(2) 0.3872(2) 1.0412(2)
C6A C 1.0135(3) 0.4422(3) 1.1014(2)
H6A H 1.0224 0.4033 1.1698
C7A C 1.1060(2) 0.4473(2) 1.0203(2)
C8A C 1.0926(3) 0.5053(2) 0.9182(2)
H7A H 1.1544 0.5090 0.8632
C9A C 0.1778(3) 1.0862(2) 0.8553(2)
C10A C 0.2246(3) 1.1914(3) 0.7908(3)
H8A H 0.3012 1.2612 0.8197
C11A C 0.1528(3) 1.1875(3) 0.6830(3)
H9A H 0.1823 1.2558 0.6379
C12A C 0.0367(3) 1.0834(3) 0.6395(3)
H10A H -0.0108 1.0857 0.5673
C13A C -0.0093(3) 0.9781(3) 0.7003(3)
H11A H -0.0855 0.9083 0.6705
C14A C 0.0642(3) 0.9812(3) 0.8091(2)
C15A C 0.1443(3) 0.9495(2) 0.9841(2)
C16A C 0.1614(3) 0.8822(3) 1.0900(2)
H12A H 0.0747 0.8169 1.0982
H13A H 0.1857 0.9427 1.1590
C17A C 0.3603(3) 0.8354(2) 1.0033(2)
H14A H 0.3632 0.8825 0.9388
C18A C 0.4007(3) 0.7202(3) 1.1298(3)
H15A H 0.4415 0.6684 1.1703
N6 N 1.1539(3) 0.6673(3) 0.5271(3)
O6 O 0.9568(4) 0.6496(4) 0.6086(4)
C19 C 1.2315(6) 0.6634(9) 0.6328(6)
H16 H 1.1738 0.6542 0.6949
H17 H 1.3079 0.7413 0.6493
H18 H 1.2659 0.5922 0.6267
C20 C 1.2173(7) 0.6796(5) 0.4210(5)
H19 H 1.1503 0.6796 0.3571
H20 H 1.2515 0.6091 0.4069
H21 H 1.2929 0.7583 0.4279
C21 C 1.0221(5) 0.6583(4) 0.5269(4)
H22 H 0.9743 0.6588 0.4544
O7 O 0.4863(3) 0.4363(2) 0.6492(2)
H23 H 0.5546 0.4764 0.6146
H24 H 0.4241 0.4102 0.5910
O8 O 0.6882(3) 0.6410(2) 0.5687(2)
H25 H 0.7725 0.6455 0.5840
H26 H 0.6671 0.7018 0.6022
loop_
_geom_bond_atom_site_label_1
_geom_bond_atom_site_label_2
_geom_bond_site_symmetry_1
_geom_bond_site_symmetry_2
Cd1 N1 1_555 1_555
N1 C9 1_555 1_555
N2 H1 1_555 1_555
N3 C17 1_555 1_555
N4 N5 1_555 1_555
N5 C16 1_555 1_555
O1 Cd1 1_555 1_555
O2 Cd1 1_555 1_555
O3 Cd1 1_555 1_555
O4 C5 1_555 1_555
O5 Cd1 1_555 1_555
H2 O5 1_555 1_555
H3 O5 1_555 1_555
C1 O1 1_555 1_555
C2 H4 1_555 1_555
C3 C1 1_555 1_555
C4 C3 1_555 1_555
H5 C4 1_555 1_555
C5 O3 1_555 1_555
C6 H6 1_555 1_555
C7 C5 1_555 1_555
C8 C7 1_555 1_555
H7 C8 1_555 1_555
C9 C10 1_555 1_555
C10 H8 1_555 1_555
C11 C10 1_555 1_555
H9 C11 1_555 1_555
C12 C11 1_555 1_555
H10 C12 1_555 1_555
C13 C12 1_555 1_555
H11 C13 1_555 1_555
C14 N2 1_555 1_555
C15 N1 1_555 1_555
C16 C15 1_555 1_555
H12 C16 1_555 1_555
H13 C16 1_555 1_555
C17 N5 1_555 1_555
H14 C17 1_555 1_555
C18 N3 1_555 1_555
H15 C18 1_555 1_555
N6 C19 1_555 1_555
O6 C21 1_555 1_555
C19 H16 1_555 1_555
H17 C19 1_555 1_555
H18 C19 1_555 1_555
C20 N6 1_555 1_555
H19 C20 1_555 1_555
H20 C20 1_555 1_555
H21 C20 1_555 1_555
C21 N6 1_555 1_555
H22 C21 1_555 1_555
O7 H23 1_555 1_555
H24 O7 1_555 1_555
O8 H25 1_555 1_555
H26 O8 1_555 1_555
Cd1A N3 1_555 1_555
Cd1A_2 O1A 1_555 1_555
Cd1A_3 O3A 1_555 1_555
N1A Cd1A 1_555 1_555
N2A H1A 1_555 1_555
N3A Cd1 1_555 1_555
N4A N5A 1_555 1_555
N5A C16A 1_555 1_555
O1A C1A 1_555 1_555
O1A_2 Cd1A 1_555 1_555
O2A Cd1A_2 1_555 1_555
O2A_2 Cd1A 1_555 1_555
O3A C5A 1_555 1_555
O3A_2 Cd1A 1_555 1_555
O4A C5A 1_555 1_555
O5A Cd1A 1_555 1_555
H2A O5A 1_555 1_555
H3A O5A 1_555 1_555
C1A O2A 1_555 1_555
C2A C4 1_555 1_555
H4A C2A 1_555 1_555
C3A C1A 1_555 1_555
C4A C2 1_555 1_555
H5A C4A 1_555 1_555
C5A C7A 1_555 1_555
C6A C8 1_555 1_555
H6A C6A 1_555 1_555
C7A C6A 1_555 1_555
C8A C6 1_555 1_555
H7A C8A 1_555 1_555
C9A N1A 1_555 1_555
C10A C9A 1_555 1_555
H8A C10A 1_555 1_555
C11A C10A 1_555 1_555
H9A C11A 1_555 1_555
C12A C11A 1_555 1_555
H10A C12A 1_555 1_555
C13A C12A 1_555 1_555
H11A C13A 1_555 1_555
C14A N2A 1_555 1_555
C15A N1A 1_555 1_555
C16A C15A 1_555 1_555
H12A C16A 1_555 1_555
H13A C16A 1_555 1_555
C17A N3A 1_555 1_555
H14A C17A 1_555 1_555
C18A N3A 1_555 1_555
H15A C18A 1_555 1_555
N2 C15 1_555 1_555
N4 C18 1_555 1_555
O2 C1 1_555 1_555
C2 C3 1_555 1_555
C6 C7 1_555 1_555
C9 C14 1_555 1_555
C13 C14 1_555 1_555
N2A C15A 1_555 1_555
N4A C18A 1_555 1_555
N5A C17A 1_555 1_555
C2A C3A 1_555 1_555
C3A C4A 1_555 1_555
C7A C8A 1_555 1_555
C9A C14A 1_555 1_555
C13A C14A 1_555 1_555

#END
