
#######################################################################
#
#                 Cambridge Crystallographic Data Centre
#                                CCDC 
#
#######################################################################
#
# If this CIF has been generated from an entry in the Cambridge 
# Structural Database, then it will include bibliographic, chemical, 
# crystal, experimental, refinement or atomic coordinate data resulting 
# from the CCDC's data processing and validation procedures.
#
#######################################################################

data_ACEKIE
_symmetry_cell_setting           triclinic
_symmetry_space_group_name_H-M   'P -1'
_symmetry_Int_Tables_number      2
_space_group_name_Hall           '-P 1'
loop_
_symmetry_equiv_pos_site_id
_symmetry_equiv_pos_as_xyz
1 x,y,z
2 -x,-y,-z
_cell_length_a                   8.1745(16)
_cell_length_b                   10.034(2)
_cell_length_c                   13.195(3)
_cell_angle_alpha                107.10(3)
_cell_angle_beta                 97.84(3)
_cell_angle_gamma                96.55(3)
_cell_volume                     1011.1
loop_
_atom_site_label
_atom_site_type_symbol
_atom_site_fract_x
_atom_site_fract_y
_atom_site_fract_z
Cd1 Cd 1.34151(4) 0.39144(3) 0.30767(3)
N1 N 1.0693(5) 0.2881(4) 0.2169(3)
N2 N 0.8770(5) 0.1059(4) 0.1081(3)
N3 N 0.8055(5) 0.1982(4) 0.1795(3)
N4 N 0.4201(4) 0.3216(4) 0.1406(3)
N5 N 0.5380(5) 0.2134(4) 0.0037(3)
H1 H 0.6003 0.1608 -0.0319
O1 O 1.3496(5) 0.6388(4) 0.3064(3)
O2 O 1.2493(5) 0.5730(3) 0.4323(3)
O3 O 1.3541(4) 1.1393(3) 0.3076(3)
O4 O 1.3179(6) 1.2972(3) 0.4528(3)
O5 O 1.6308(4) 0.4624(3) 0.3786(3)
H2 H 1.6460 0.4302 0.4314
H3 H 1.6398 0.5503 0.4115
C1 C 0.9220(6) 0.3044(5) 0.2438(4)
H4 H 0.9019 0.3791 0.2994
C2 C 1.0345(6) 0.1645(5) 0.1333(4)
H5 H 1.1161 0.1251 0.0972
C3 C 0.6272(6) 0.1706(5) 0.1793(4)
H6 H 0.6070 0.2073 0.2524
H7 H 0.5892 0.0694 0.1543
C4 C 0.5289(5) 0.2368(5) 0.1089(4)
C5 C 0.3553(6) 0.3564(5) 0.0502(4)
C6 C 0.2422(6) 0.4452(5) 0.0375(4)
H8 H 0.1934 0.4925 0.0945
C7 C 0.2042(7) 0.4613(6) -0.0630(4)
H9 H 0.1281 0.5203 -0.0735
C8 C 0.2762(7) 0.3919(6) -0.1488(4)
H10 H 0.2461 0.4049 -0.2154
C9 C 0.3912(7) 0.3044(6) -0.1381(4)
H11 H 0.4405 0.2584 -0.1953
C10 C 0.4293(6) 0.2890(5) -0.0361(4)
C11 C 1.2934(6) 0.6672(5) 0.3902(4)
C12 C 1.2701(6) 0.8153(5) 0.4468(4)
C13 C 1.2067(7) 0.8480(5) 0.5412(4)
H12 H 1.1755 0.7767 0.5700
C14 C 1.1890(8) 0.9854(5) 0.5938(4)
H13 H 1.1491 1.0067 0.6585
C15 C 1.2307(7) 1.0903(5) 0.5498(4)
H14 H 1.2192 1.1828 0.5851
C16 C 1.2895(6) 1.0593(5) 0.4536(4)
C17 C 1.3123(6) 0.9224(5) 0.4036(4)
H15 H 1.3563 0.9019 0.3404
C18 C 1.3256(6) 1.1724(5) 0.4008(4)
Cd1_2 Cd 0.34151(4) 0.39144(3) 0.30767(3)
Cd1_3 Cd 1.34151(4) 1.39144(3) 0.30767(3)
N4_2 N 1.4201(4) 0.3216(4) 0.1406(3)
O4_2 O 1.3179(6) 0.2972(3) 0.4528(3)
O6 O 0.2676(5) 0.9084(4) 0.1369(3)
H16 H 0.2918 0.9750 0.1929
C19 C 0.1177(8) 0.8225(6) 0.1378(5)
H17 H 0.1425 0.7621 0.1804
H18 H 0.0684 0.7658 0.0654
H19 H 0.0407 0.8815 0.1682
loop_
_geom_bond_atom_site_label_1
_geom_bond_atom_site_label_2
_geom_bond_site_symmetry_1
_geom_bond_site_symmetry_2
Cd1 N1 1_555 1_555
N1 C1 1_555 1_555
N2 N3 1_555 1_555
N3 C1 1_555 1_555
N4 C4 1_555 1_555
N5 H1 1_555 1_555
O1 Cd1 1_555 1_555
O2 Cd1 1_555 1_555
O3 C18 1_555 1_555
O4 C18 1_555 1_555
O5 Cd1 1_555 1_555
H2 O5 1_555 1_555
H3 O5 1_555 1_555
C1 H4 1_555 1_555
C2 N1 1_555 1_555
H5 C2 1_555 1_555
C3 N3 1_555 1_555
H6 C3 1_555 1_555
H7 C3 1_555 1_555
C4 N5 1_555 1_555
C5 N4 1_555 1_555
C6 C5 1_555 1_555
H8 C6 1_555 1_555
C7 C6 1_555 1_555
H9 C7 1_555 1_555
C8 C7 1_555 1_555
H10 C8 1_555 1_555
C9 C8 1_555 1_555
H11 C9 1_555 1_555
C10 N5 1_555 1_555
C11 O1 1_555 1_555
C12 C11 1_555 1_555
C13 C12 1_555 1_555
H12 C13 1_555 1_555
C14 C13 1_555 1_555
H13 C14 1_555 1_555
C15 C14 1_555 1_555
H14 C15 1_555 1_555
C16 C15 1_555 1_555
C17 C12 1_555 1_555
H15 C17 1_555 1_555
C18 C16 1_555 1_555
O6 H16 1_555 1_555
C19 O6 1_555 1_555
H17 C19 1_555 1_555
H18 C19 1_555 1_555
H19 C19 1_555 1_555
Cd1_2 N4 1_555 1_555
Cd1_3 O4 1_555 1_555
N4_2 Cd1 1_555 1_555
O4_2 Cd1 1_555 1_555
N2 C2 1_555 1_555
O2 C11 1_555 1_555
C3 C4 1_555 1_555
C5 C10 1_555 1_555
C9 C10 1_555 1_555
C16 C17 1_555 1_555

#END
