
#######################################################################
#
#                 Cambridge Crystallographic Data Centre
#                                CCDC 
#
#######################################################################
#
# If this CIF has been generated from an entry in the Cambridge 
# Structural Database, then it will include bibliographic, chemical, 
# crystal, experimental, refinement or atomic coordinate data resulting 
# from the CCDC's data processing and validation procedures.
#
#######################################################################

data_ACEKUQ
_symmetry_cell_setting           monoclinic
_symmetry_space_group_name_H-M   'P 21/c'
_symmetry_Int_Tables_number      14
_space_group_name_Hall           '-P 2ybc'
loop_
_symmetry_equiv_pos_site_id
_symmetry_equiv_pos_as_xyz
1 x,y,z
2 -x,1/2+y,1/2-z
3 -x,-y,-z
4 x,1/2-y,1/2+z
_cell_length_a                   10.9057(5)
_cell_length_b                   14.5648(7)
_cell_length_c                   15.9285(7)
_cell_angle_alpha                90
_cell_angle_beta                 113.526(3)
_cell_angle_gamma                90
_cell_volume                     2319.77
loop_
_atom_site_label
_atom_site_type_symbol
_atom_site_fract_x
_atom_site_fract_y
_atom_site_fract_z
I1 I 0.91596(11) 0.87603(9) 0.35201(8)
I2 I 0.95829(9) 0.82060(9) 0.66272(6)
Cd1 Cd 0.83196(7) 0.80764(5) 0.47722(5)
N1 N 0.8629(8) 0.5234(6) 0.3909(6)
N2 N 0.8123(8) 0.6551(6) 0.4389(6)
N3 N 0.5719(8) 0.4300(5) 0.1311(5)
N4 N 0.3780(8) 0.3582(6) 0.0561(5)
C1 C 0.704(2) 0.3315(10) 0.5899(10)
H1 H 0.6100 0.3217 0.5724
H2 H 0.7477 0.3353 0.6554
H3 H 0.7409 0.2812 0.5685
C2 C 0.7250(12) 0.4180(8) 0.5489(7)
C3 C 0.6858(13) 0.5054(8) 0.5764(7)
C4 C 0.6165(17) 0.5073(12) 0.6412(9)
H4 H 0.5810 0.5675 0.6414
H5 H 0.6794 0.4921 0.7018
H6 H 0.5449 0.4633 0.6218
C5 C 0.7117(11) 0.5852(8) 0.5422(7)
H7 H 0.6879 0.6409 0.5600
C6 C 0.7732(10) 0.5842(7) 0.4812(7)
C7 C 0.8053(10) 0.4996(7) 0.4518(7)
C8 C 0.7838(13) 0.4175(7) 0.4868(8)
H8 H 0.8087 0.3623 0.4686
C9 C 0.8649(10) 0.6157(7) 0.3877(7)
H9 H 0.9003 0.6482 0.3524
C10 C 0.9056(11) 0.4608(8) 0.3367(7)
H10 H 0.9668 0.4159 0.3769
H11 H 0.9532 0.4950 0.3069
C11 C 0.7857(10) 0.4103(7) 0.2634(7)
H12 H 0.8171 0.3750 0.2243
H13 H 0.7479 0.3678 0.2934
C12 C 0.6787(10) 0.4758(7) 0.2054(7)
H14 H 0.6414 0.5069 0.2437
H15 H 0.7185 0.5219 0.1802
C13 C 0.4520(10) 0.4030(7) 0.1290(7)
H16 H 0.4248 0.4156 0.1763
C14 C 0.5750(9) 0.4005(6) 0.0493(6)
C15 C 0.6717(10) 0.4085(7) 0.0131(7)
H17 H 0.7524 0.4382 0.0454
C16 C 0.6439(9) 0.3706(7) -0.0724(7)
C17 C 0.7483(13) 0.3733(12) -0.1125(9)
H18 H 0.8183 0.4151 -0.0778
H19 H 0.7077 0.3935 -0.1750
H20 H 0.7850 0.3130 -0.1101
C18 C 0.5213(11) 0.3265(8) -0.1213(7)
C19 C 0.4243(10) 0.3198(7) -0.0848(7)
H21 H 0.3422 0.2921 -0.1176
C20 C 0.4539(9) 0.3558(6) 0.0018(6)
C21 C 0.4874(14) 0.2832(11) -0.2144(9)
H22 H 0.4747 0.3305 -0.2590
H23 H 0.4068 0.2479 -0.2311
H24 H 0.5593 0.2438 -0.2119
Cd1A Cd 0.16804(7) 0.30764(5) 0.02278(5)
N4A N 0.6220(8) 0.8582(6) 0.4439(5)
loop_
_geom_bond_atom_site_label_1
_geom_bond_atom_site_label_2
_geom_bond_site_symmetry_1
_geom_bond_site_symmetry_2
I1 Cd1 1_555 1_555
I2 Cd1 1_555 1_555
Cd1 N2 1_555 1_555
N1 C7 1_555 1_555
N2 C6 1_555 1_555
N3 C12 1_555 1_555
N4 C13 1_555 1_555
C1 H1 1_555 1_555
H2 C1 1_555 1_555
H3 C1 1_555 1_555
C2 C1 1_555 1_555
C3 C2 1_555 1_555
C4 C3 1_555 1_555
H4 C4 1_555 1_555
H5 C4 1_555 1_555
H6 C4 1_555 1_555
C5 C3 1_555 1_555
H7 C5 1_555 1_555
C6 C5 1_555 1_555
C7 C6 1_555 1_555
C8 C2 1_555 1_555
H8 C8 1_555 1_555
C9 N1 1_555 1_555
H9 C9 1_555 1_555
C10 N1 1_555 1_555
H10 C10 1_555 1_555
H11 C10 1_555 1_555
C11 C10 1_555 1_555
H12 C11 1_555 1_555
H13 C11 1_555 1_555
C12 C11 1_555 1_555
H14 C12 1_555 1_555
H15 C12 1_555 1_555
C13 N3 1_555 1_555
H16 C13 1_555 1_555
C14 N3 1_555 1_555
C15 C14 1_555 1_555
H17 C15 1_555 1_555
C16 C15 1_555 1_555
C17 C16 1_555 1_555
H18 C17 1_555 1_555
H19 C17 1_555 1_555
H20 C17 1_555 1_555
C18 C16 1_555 1_555
C19 C18 1_555 1_555
H21 C19 1_555 1_555
C20 N4 1_555 1_555
C21 C18 1_555 1_555
H22 C21 1_555 1_555
H23 C21 1_555 1_555
H24 C21 1_555 1_555
Cd1A N4 1_555 1_555
N4A Cd1 1_555 1_555
N2 C9 1_555 1_555
C7 C8 1_555 1_555
C14 C20 1_555 1_555
C19 C20 1_555 1_555

#END
