
#######################################################################
#
#                 Cambridge Crystallographic Data Centre
#                                CCDC 
#
#######################################################################
#
# If this CIF has been generated from an entry in the Cambridge 
# Structural Database, then it will include bibliographic, chemical, 
# crystal, experimental, refinement or atomic coordinate data resulting 
# from the CCDC's data processing and validation procedures.
#
#######################################################################

data_ACELIF
_symmetry_cell_setting           triclinic
_symmetry_space_group_name_H-M   'P -1'
_symmetry_Int_Tables_number      2
_space_group_name_Hall           '-P 1'
loop_
_symmetry_equiv_pos_site_id
_symmetry_equiv_pos_as_xyz
1 x,y,z
2 -x,-y,-z
_cell_length_a                   13.8490(10)
_cell_length_b                   14.932(2)
_cell_length_c                   14.993(3)
_cell_angle_alpha                107.534(4)
_cell_angle_beta                 94.670(4)
_cell_angle_gamma                103.836(5)
_cell_volume                     2830.91
loop_
_atom_site_label
_atom_site_type_symbol
_atom_site_fract_x
_atom_site_fract_y
_atom_site_fract_z
C1 C 0.0042(4) 0.0543(3) -0.0967(3)
H1 H 0.0735 0.0635 -0.0925
C2 C -0.0595(4) -0.0393(3) -0.1416(3)
H2 H -0.0327 -0.0913 -0.1665
C3 C -0.1616(4) -0.0548(3) -0.1490(3)
H3 H -0.2046 -0.1173 -0.1789
C4 C -0.2012(3) 0.0246(3) -0.1112(3)
C5 C -0.1310(3) 0.1172(3) -0.0652(3)
C6 C -0.1648(3) 0.2022(3) -0.0206(3)
C7 C -0.2677(3) 0.1955(3) -0.0189(3)
C8 C -0.2875(4) 0.2765(3) 0.0304(3)
H4 H -0.3549 0.2731 0.0342
C9 C -0.2192(4) 0.3645(3) 0.0764(3)
H5 H -0.2378 0.4192 0.1105
C10 C -0.1193(4) 0.3662(3) 0.0684(3)
H6 H -0.0697 0.4252 0.0965
C11 C -0.3056(4) 0.0201(3) -0.1137(3)
C12 C -0.3359(3) 0.1014(3) -0.0705(3)
C13 C -0.4673(4) -0.0245(3) -0.1403(3)
C14 C -0.5734(4) -0.0812(3) -0.1730(3)
C15 C -0.6514(4) -0.0472(3) -0.1382(4)
H7 H -0.6369 0.0142 -0.0922
C16 C -0.7507(4) -0.1018(4) -0.1697(4)
H8 H -0.8027 -0.0778 -0.1457
C17 C -0.7705(5) -0.1912(4) -0.2365(5)
C18 C -0.6967(5) -0.2279(4) -0.2749(4)
H9 H -0.7126 -0.2888 -0.3218
C19 C -0.5976(4) -0.1727(3) -0.2427(4)
H10 H -0.5464 -0.1970 -0.2680
C20 C 0.0969(3) 0.3510(3) 0.1922(3)
C21 C 0.1196(3) 0.3959(3) 0.2967(3)
C22 C 0.1680(3) 0.4956(3) 0.3407(3)
H11 H 0.1865 0.5349 0.3037
C23 C 0.1885(4) 0.5360(3) 0.4382(3)
H12 H 0.2202 0.6025 0.4666
C24 C 0.1621(3) 0.4782(3) 0.4936(3)
C25 C 0.1127(4) 0.3799(3) 0.4513(3)
H13 H 0.0934 0.3409 0.4883
C26 C 0.0924(3) 0.3404(3) 0.3543(3)
H14 H 0.0593 0.2742 0.3264
C27 C 0.1723(4) 0.4685(3) 0.6507(3)
C28 C 0.0841(4) 0.4551(3) 0.6860(3)
H15 H 0.0329 0.4789 0.6666
C29 C 0.0713(4) 0.4055(3) 0.7513(3)
H16 H 0.0114 0.3969 0.7757
C30 C 0.1464(3) 0.3691(3) 0.7804(3)
C31 C 0.2361(4) 0.3849(3) 0.7445(3)
H17 H 0.2880 0.3620 0.7641
C32 C 0.2488(4) 0.4348(3) 0.6795(3)
H18 H 0.3090 0.4452 0.6557
C33 C 0.1358(4) 0.3160(3) 0.8524(3)
O1 O 0.0578(2) 0.26031(19) 0.1552(2)
O2 O 0.1170(2) 0.40301(19) 0.1387(2)
O3 O 0.1882(3) 0.5243(2) 0.5904(2)
O4 O 0.0727(2) 0.32860(19) 0.9066(2)
O5 O 0.1934(3) 0.2626(2) 0.8542(2)
O6 O 0.1889(2) 0.2374(2) 0.0140(2)
N1 N -0.0302(3) 0.1315(2) -0.0594(2)
N2 N -0.0913(3) 0.2876(2) 0.0226(2)
N3 N -0.3886(3) -0.0592(2) -0.1573(3)
N4 N -0.4391(3) 0.0725(2) -0.0867(2)
H19 H -0.4784 0.1083 -0.0671
F1 F -0.8670(3) -0.2449(3) -0.2677(3)
Ni1 Ni 0.05267(4) 0.27323(4) 0.01863(4)
O4_2 O 0.0727(2) 0.32860(19) -0.0934(2)
Ni1_2 Ni 0.05267(4) 0.27323(4) 1.01863(4)
C34 C -0.3222(4) 0.3435(3) -0.1644(3)
H20 H -0.3470 0.3953 -0.1342
C35 C -0.2181(4) 0.3589(3) -0.1561(3)
H21 H -0.1751 0.4205 -0.1227
C36 C -0.1795(4) 0.2832(3) -0.1973(3)
H22 H -0.1102 0.2916 -0.1886
C37 C -0.2466(3) 0.1917(3) -0.2533(3)
C38 C -0.3497(3) 0.1832(3) -0.2600(3)
C39 C -0.4240(3) 0.0927(3) -0.3171(3)
C40 C -0.5919(3) 0.0097(3) -0.3699(3)
H23 H -0.6595 0.0079 -0.3702
C41 C -0.5683(4) -0.0731(3) -0.4244(3)
H24 H -0.6192 -0.1284 -0.4608
C42 C -0.4698(4) -0.0723(3) -0.4242(3)
H25 H -0.4532 -0.1275 -0.4600
C43 C -0.3936(3) 0.0117(3) -0.3700(3)
C44 C -0.2876(3) 0.0245(3) -0.3623(3)
C45 C -0.2160(3) 0.1086(3) -0.3051(3)
C46 C -0.1337(3) 0.0092(3) -0.3706(3)
C47 C -0.0529(3) -0.0358(3) -0.3977(3)
C48 C -0.0681(4) -0.1167(3) -0.4796(3)
H26 H -0.1310 -0.1433 -0.5180
C49 C 0.0095(4) -0.1574(3) -0.5038(4)
H27 H 0.0001 -0.2107 -0.5587
C50 C 0.1002(4) -0.1175(4) -0.4451(4)
C51 C 0.1181(4) -0.0389(4) -0.3643(4)
H28 H 0.1809 -0.0140 -0.3256
C52 C 0.0412(4) 0.0025(3) -0.3416(4)
H29 H 0.0525 0.0571 -0.2876
C53 C -0.5506(3) 0.2869(3) -0.0632(3)
C54 C -0.5503(3) 0.3282(3) 0.0393(3)
C55 C -0.5701(3) 0.2682(3) 0.0940(3)
H30 H -0.5879 0.2008 0.0650
C56 C -0.5638(3) 0.3066(3) 0.1903(3)
H31 H -0.5791 0.2657 0.2263
C57 C -0.5343(4) 0.4070(3) 0.2334(3)
C58 C -0.5165(4) 0.4675(3) 0.1806(3)
H32 H -0.4914 0.5347 0.2106
C59 C -0.5352(4) 0.4305(3) 0.0850(3)
H33 H -0.5382 0.4712 0.0492
C60 C -0.4617(4) 0.3966(3) 0.4501(3)
H34 H -0.3953 0.4250 0.4463
C61 C -0.4832(4) 0.3520(3) 0.5175(3)
H35 H -0.4311 0.3528 0.5613
C62 C -0.5818(3) 0.3062(3) 0.5200(3)
C63 C -0.6595(4) 0.3073(3) 0.4559(3)
H36 H -0.7259 0.2762 0.4571
C64 C -0.6385(4) 0.3542(3) 0.3907(3)
H37 H -0.6903 0.3560 0.3483
C65 C -0.5400(4) 0.3983(3) 0.3891(3)
C66 C -0.6064(3) 0.2577(3) 0.5919(3)
O7 O -0.5158(3) 0.4530(2) 0.3294(2)
O8 O -0.5419(2) 0.28305(18) 0.66549(19)
O9 O -0.6892(2) 0.1928(2) 0.57405(19)
O10 O -0.5509(2) 0.19744(18) -0.10003(19)
O11 O -0.5483(2) 0.33905(18) -0.11640(19)
O12 O -0.6991(2) 0.1646(2) -0.2615(2)
H38 H -0.713(3) 0.167(3) -0.3171(13)
H39 H -0.736(4) 0.195(4) -0.229(3)
N5 N -0.3877(3) 0.2578(2) -0.2137(2)
N6 N -0.5228(3) 0.0908(2) -0.3175(2)
N7 N -0.2338(3) -0.0382(2) -0.4043(2)
H40 H -0.2582 -0.0963 -0.4443
N8 N -0.1198(3) 0.0988(2) -0.3094(3)
F2 F 0.1775(2) -0.1586(2) -0.4687(3)
Ni2 Ni -0.54410(4) 0.21971(3) -0.23325(4)
O8_2 O -0.5419(2) 0.28305(18) -0.33451(19)
Ni2_2 Ni -0.54410(4) 0.21971(3) 0.76675(4)
loop_
_geom_bond_atom_site_label_1
_geom_bond_atom_site_label_2
_geom_bond_site_symmetry_1
_geom_bond_site_symmetry_2
C1 H1 1_555 1_555
C2 C1 1_555 1_555
H2 C2 1_555 1_555
C3 C2 1_555 1_555
H3 C3 1_555 1_555
C4 C3 1_555 1_555
C5 C4 1_555 1_555
C6 C5 1_555 1_555
C7 C6 1_555 1_555
C8 C7 1_555 1_555
H4 C8 1_555 1_555
C9 C8 1_555 1_555
H5 C9 1_555 1_555
C10 C9 1_555 1_555
H6 C10 1_555 1_555
C11 C4 1_555 1_555
C12 C7 1_555 1_555
C13 C14 1_555 1_555
C14 C15 1_555 1_555
C15 H7 1_555 1_555
C16 C15 1_555 1_555
H8 C16 1_555 1_555
C17 C16 1_555 1_555
C18 C17 1_555 1_555
H9 C18 1_555 1_555
C19 C14 1_555 1_555
H10 C19 1_555 1_555
C20 C21 1_555 1_555
C21 C22 1_555 1_555
C22 H11 1_555 1_555
C23 C22 1_555 1_555
H12 C23 1_555 1_555
C24 C23 1_555 1_555
C25 C24 1_555 1_555
H13 C25 1_555 1_555
C26 C21 1_555 1_555
H14 C26 1_555 1_555
C27 C28 1_555 1_555
C28 H15 1_555 1_555
C29 C28 1_555 1_555
H16 C29 1_555 1_555
C30 C29 1_555 1_555
C31 C30 1_555 1_555
H17 C31 1_555 1_555
C32 C27 1_555 1_555
H18 C32 1_555 1_555
C33 C30 1_555 1_555
O1 C20 1_555 1_555
O2 C20 1_555 1_555
O3 C24 1_555 1_555
O4 C33 1_555 1_555
O5 C33 1_555 1_555
O6 Ni1 1_555 1_555
N1 C1 1_555 1_555
N2 C6 1_555 1_555
N3 C11 1_555 1_555
N4 C12 1_555 1_555
H19 N4 1_555 1_555
F1 C17 1_555 1_555
Ni1 O1 1_555 1_555
C34 H20 1_555 1_555
C35 C34 1_555 1_555
H21 C35 1_555 1_555
C36 C35 1_555 1_555
H22 C36 1_555 1_555
C37 C36 1_555 1_555
C38 C37 1_555 1_555
C39 C38 1_555 1_555
C40 H23 1_555 1_555
C41 C40 1_555 1_555
H24 C41 1_555 1_555
C42 C41 1_555 1_555
H25 C42 1_555 1_555
C43 C39 1_555 1_555
C44 C43 1_555 1_555
C45 C37 1_555 1_555
C46 C47 1_555 1_555
C47 C48 1_555 1_555
C48 H26 1_555 1_555
C49 C48 1_555 1_555
H27 C49 1_555 1_555
C50 C49 1_555 1_555
C51 C50 1_555 1_555
H28 C51 1_555 1_555
C52 C47 1_555 1_555
H29 C52 1_555 1_555
C53 C54 1_555 1_555
C54 C55 1_555 1_555
C55 H30 1_555 1_555
C56 C55 1_555 1_555
H31 C56 1_555 1_555
C57 C56 1_555 1_555
C58 C57 1_555 1_555
H32 C58 1_555 1_555
C59 C54 1_555 1_555
H33 C59 1_555 1_555
C60 H34 1_555 1_555
C61 C60 1_555 1_555
H35 C61 1_555 1_555
C62 C61 1_555 1_555
C63 C62 1_555 1_555
H36 C63 1_555 1_555
C64 C63 1_555 1_555
H37 C64 1_555 1_555
C65 C60 1_555 1_555
C66 C62 1_555 1_555
O7 C57 1_555 1_555
O8 C66 1_555 1_555
O9 C66 1_555 1_555
O10 C53 1_555 1_555
O11 C53 1_555 1_555
O12 H38 1_555 1_555
H39 O12 1_555 1_555
N5 C34 1_555 1_555
N6 C39 1_555 1_555
N7 C44 1_555 1_555
H40 N7 1_555 1_555
N8 C45 1_555 1_555
F2 C50 1_555 1_555
Ni2 O10 1_555 1_555
O4_2 Ni1 1_555 1_555
Ni1_2 O4 1_555 1_555
O8_2 Ni2 1_555 1_555
Ni2_2 O8 1_555 1_555
C5 N1 1_555 1_555
C10 N2 1_555 1_555
C11 C12 1_555 1_555
C13 N3 1_555 1_555
C13 N4 1_555 1_555
C18 C19 1_555 1_555
C25 C26 1_555 1_555
C27 O3 1_555 1_555
C31 C32 1_555 1_555
O2 Ni1 1_555 1_555
N1 Ni1 1_555 1_555
N2 Ni1 1_555 1_555
C38 N5 1_555 1_555
C40 N6 1_555 1_555
C42 C43 1_555 1_555
C44 C45 1_555 1_555
C46 N7 1_555 1_555
C46 N8 1_555 1_555
C51 C52 1_555 1_555
C58 C59 1_555 1_555
C64 C65 1_555 1_555
C65 O7 1_555 1_555
O11 Ni2 1_555 1_555
O12 Ni2 1_555 1_555
N5 Ni2 1_555 1_555
N6 Ni2 1_555 1_555

#END
