
#######################################################################
#
#                 Cambridge Crystallographic Data Centre
#                                CCDC 
#
#######################################################################
#
# If this CIF has been generated from an entry in the Cambridge 
# Structural Database, then it will include bibliographic, chemical, 
# crystal, experimental, refinement or atomic coordinate data resulting 
# from the CCDC's data processing and validation procedures.
#
#######################################################################

data_ACELAX
_symmetry_cell_setting           monoclinic
_symmetry_space_group_name_H-M   'P 21/c'
_symmetry_Int_Tables_number      14
_space_group_name_Hall           '-P 2ybc'
loop_
_symmetry_equiv_pos_site_id
_symmetry_equiv_pos_as_xyz
1 x,y,z
2 -x,1/2+y,1/2-z
3 -x,-y,-z
4 x,1/2-y,1/2+z
_cell_length_a                   10.2302(7)
_cell_length_b                   17.1414(12)
_cell_length_c                   14.7536(10)
_cell_angle_alpha                90
_cell_angle_beta                 100.1870(10)
_cell_angle_gamma                90
_cell_volume                     2546.41
loop_
_atom_site_label
_atom_site_type_symbol
_atom_site_fract_x
_atom_site_fract_y
_atom_site_fract_z
Cd1 Cd 0.35521(4) 1.06012(3) 0.22448(3)
Br1 Br 0.38780(11) 1.20672(5) 0.23984(6)
C1 C 0.2103(6) 0.9949(4) 0.5962(4)
C2 C 0.3433(5) 0.9433(3) 0.4940(4)
N1 N 0.3666(4) 0.9935(3) 0.3562(3)
C3 C 0.0645(5) 0.5113(4) 0.4016(3)
N2 N 0.4312(4) 0.8978(3) 0.4557(3)
C4 C -0.0572(5) 0.4881(3) 0.3513(3)
C5 C 0.1415(6) 0.3818(5) 0.4074(4)
N3 N -0.1381(4) 0.5538(3) 0.3318(3)
C6 C 0.2978(6) 0.9383(4) 0.5777(4)
H1 H 0.3255 0.8984 0.6193
C7 C 0.4396(6) 0.9304(4) 0.3745(4)
H2 H 0.4921 0.9103 0.3346
C8 C 0.3036(5) 1.0030(3) 0.4326(3)
C9 C 0.1649(6) 0.4581(4) 0.4307(4)
H3 H 0.2457 0.4739 0.4651
C10 C 0.2165(6) 1.0596(3) 0.4518(4)
H4 H 0.1902 1.0998 0.4103
C11 C -0.0801(6) 0.4112(4) 0.3267(4)
H5 H -0.1612 0.3959 0.2924
N4 N 0.0557(5) 0.5906(3) 0.4125(3)
C12 C 0.1685(6) 1.0556(4) 0.5345(4)
C13 C -0.0648(7) 0.6119(4) 0.3701(4)
H6 H -0.0944 0.6632 0.3679
C14 C 0.0190(7) 0.3573(4) 0.3536(4)
C15 C 0.1625(7) 0.6465(5) 0.4531(5)
H7 H 0.1227 0.6958 0.4658
H8 H 0.2097 0.6258 0.5109
C16 C 0.4926(6) 0.8244(3) 0.4917(5)
H9 H 0.5342 0.8322 0.5554
H10 H 0.5621 0.8111 0.4574
C17 C 0.3958(8) 0.7551(5) 0.4869(7)
H11 H 0.4455 0.7079 0.5058
H12 H 0.3349 0.7640 0.5293
C18 C 0.2494(8) 0.3210(5) 0.4393(5)
H13 H 0.3213 0.3449 0.4806
H14 H 0.2818 0.3005 0.3869
H15 H 0.2129 0.2793 0.4705
C19 C 0.3243(9) 0.7451(5) 0.3991(6)
H16 H 0.3829 0.7500 0.3544
H17 H 0.2564 0.7850 0.3863
C20 C 0.0733(8) 1.1166(4) 0.5565(5)
H18 H -0.0058 1.0918 0.5687
H19 H 0.0510 1.1513 0.5050
H20 H 0.1140 1.1456 0.6097
C21 C -0.0052(9) 0.2726(5) 0.3253(6)
H21 H -0.0953 0.2664 0.2942
H22 H 0.0101 0.2401 0.3791
H23 H 0.0543 0.2578 0.2848
C22 C 0.1599(8) 0.9900(5) 0.6881(4)
H24 H 0.1830 1.0370 0.7226
H25 H 0.2002 0.9461 0.7227
H26 H 0.0652 0.9838 0.6764
C23 C 0.2557(9) 0.6596(6) 0.3908(7)
H27 H 0.2093 0.6524 0.3281
H28 H 0.3250 0.6204 0.4027
Br2 Br 0.48145(8) 0.97194(6) 0.13433(5)
Cd1A Cd -0.35521(4) 0.56012(3) 0.27552(3)
N3A N 0.1381(4) 1.0538(3) 0.1682(3)
loop_
_geom_bond_atom_site_label_1
_geom_bond_atom_site_label_2
_geom_bond_site_symmetry_1
_geom_bond_site_symmetry_2
Cd1 Br1 1_555 1_555
C1 C6 1_555 1_555
C2 N2 1_555 1_555
N1 Cd1 1_555 1_555
C3 C4 1_555 1_555
N2 C7 1_555 1_555
C4 N3 1_555 1_555
C5 C9 1_555 1_555
N3 C13 1_555 1_555
C6 C2 1_555 1_555
H1 C6 1_555 1_555
C7 N1 1_555 1_555
H2 C7 1_555 1_555
C8 C2 1_555 1_555
C9 C3 1_555 1_555
H3 C9 1_555 1_555
C10 C8 1_555 1_555
H4 C10 1_555 1_555
C11 C4 1_555 1_555
H5 C11 1_555 1_555
N4 C3 1_555 1_555
C12 C1 1_555 1_555
C13 N4 1_555 1_555
H6 C13 1_555 1_555
C14 C5 1_555 1_555
C15 N4 1_555 1_555
H7 C15 1_555 1_555
H8 C15 1_555 1_555
C16 N2 1_555 1_555
H9 C16 1_555 1_555
H10 C16 1_555 1_555
C17 C16 1_555 1_555
H11 C17 1_555 1_555
H12 C17 1_555 1_555
C18 C5 1_555 1_555
H13 C18 1_555 1_555
H14 C18 1_555 1_555
H15 C18 1_555 1_555
C19 C17 1_555 1_555
H16 C19 1_555 1_555
H17 C19 1_555 1_555
C20 C12 1_555 1_555
H18 C20 1_555 1_555
H19 C20 1_555 1_555
H20 C20 1_555 1_555
C21 C14 1_555 1_555
H21 C21 1_555 1_555
H22 C21 1_555 1_555
H23 C21 1_555 1_555
C22 C1 1_555 1_555
H24 C22 1_555 1_555
H25 C22 1_555 1_555
H26 C22 1_555 1_555
C23 C15 1_555 1_555
H27 C23 1_555 1_555
H28 C23 1_555 1_555
Br2 Cd1 1_555 1_555
Cd1A N3 1_555 1_555
N3A Cd1 1_555 1_555
N1 C8 1_555 1_555
C10 C12 1_555 1_555
C11 C14 1_555 1_555
C19 C23 1_555 1_555

#END
