
#######################################################################
#
#                 Cambridge Crystallographic Data Centre
#                                CCDC 
#
#######################################################################
#
# If this CIF has been generated from an entry in the Cambridge 
# Structural Database, then it will include bibliographic, chemical, 
# crystal, experimental, refinement or atomic coordinate data resulting 
# from the CCDC's data processing and validation procedures.
#
#######################################################################

data_ACELIE
_symmetry_cell_setting           triclinic
_symmetry_space_group_name_H-M   'P -1'
_symmetry_Int_Tables_number      2
_space_group_name_Hall           '-P 1'
loop_
_symmetry_equiv_pos_site_id
_symmetry_equiv_pos_as_xyz
1 x,y,z
2 -x,-y,-z
_cell_length_a                   10.0741(16)
_cell_length_b                   11.5506(18)
_cell_length_c                   11.5642(18)
_cell_angle_alpha                88.526(2)
_cell_angle_beta                 85.621(2)
_cell_angle_gamma                69.490(2)
_cell_volume                     1256.65
loop_
_atom_site_label
_atom_site_type_symbol
_atom_site_fract_x
_atom_site_fract_y
_atom_site_fract_z
Tb1 Tb 0.26852(2) 0.474951(19) 1.022958(18)
Br1 Br -0.09559(6) 1.01350(6) 1.21287(7)
Br2 Br 0.81044(8) 0.14568(8) 0.55330(7)
Br3 Br -0.51081(8) 1.01435(7) 1.29203(6)
N1 N 0.2628(5) 1.0606(4) 1.0686(5)
N2 N 0.4428(5) 0.3640(5) 0.4167(4)
N3 N -0.1602(5) 0.7757(5) 1.4379(4)
O1 O 0.3619(3) 0.6306(3) 1.0168(3)
O2 O 0.5344(3) 0.7080(3) 0.9999(3)
O3 O 0.1999(4) 0.5568(4) 0.7020(3)
O4 O 0.3671(3) 0.4591(3) 0.8210(3)
O5 O 0.0701(3) 0.5776(3) 1.1510(3)
O6 O -0.1285(3) 0.6182(3) 1.0616(3)
O7 O 0.3803(4) 0.4791(4) 1.1972(3)
O8 O 0.2337(4) 0.3169(4) 1.1511(3)
O9 O 0.0985(3) 0.6383(3) 0.9153(3)
C1 C 0.4076(5) 0.7184(4) 1.0207(4)
C2 C 0.3049(5) 0.8436(4) 1.0540(4)
C3 C 0.1711(5) 0.8608(4) 1.1052(4)
H1 H 0.1390 0.7948 1.1170
C4 C 0.0866(5) 0.9790(4) 1.1381(5)
C5 C 0.1343(6) 1.0753(4) 1.1182(5)
H2 H 0.0746 1.1543 1.1403
C6 C 0.3456(5) 0.9458(4) 1.0375(5)
H3 H 0.4357 0.9339 1.0028
C7 C 0.3177(5) 0.4796(4) 0.7209(4)
C8 C 0.4108(5) 0.4058(4) 0.6213(4)
C9 C 0.5432(5) 0.3198(5) 0.6355(4)
H4 H 0.5770 0.3027 0.7089
C10 C 0.6254(6) 0.2591(5) 0.5393(5)
C11 C 0.5713(7) 0.2831(6) 0.4319(5)
H5 H 0.6270 0.2412 0.3677
C12 C 0.3656(6) 0.4232(5) 0.5100(4)
H6 H 0.2754 0.4799 0.4997
C13 C -0.0613(5) 0.6288(4) 1.1447(4)
C14 C -0.1441(5) 0.7121(4) 1.2414(4)
C15 C -0.2733(5) 0.8020(4) 1.2230(4)
H7 H -0.3132 0.8089 1.1521
C16 C -0.3409(5) 0.8810(5) 1.3127(4)
C17 C -0.2828(6) 0.8659(5) 1.4188(4)
H8 H -0.3304 0.9202 1.4788
C18 C -0.0926(5) 0.7034(5) 1.3500(4)
H9 H -0.0051 0.6429 1.3616
H10 H 0.438(8) 0.516(8) 1.198(8)
H11 H 0.377(6) 0.439(5) 1.258(3)
H12 H 0.268(5) 0.248(3) 1.122(4)
H13 H 0.203(5) 0.320(5) 1.219(2)
O2A O 0.4656(3) 0.2920(3) 1.0001(3)
O6A O 0.1285(3) 0.3818(3) 0.9384(3)
Tb1A Tb 0.73148(2) 0.525049(19) 0.977042(18)
Tb1A_2 Tb -0.26852(2) 0.525049(19) 0.977042(18)
O10 O 0.0799(7) 0.3254(10) 0.3444(5)
H14 H 0.102(7) 0.261(3) 0.385(4)
H15 H 0.059(6) 0.388(2) 0.383(4)
loop_
_geom_bond_atom_site_label_1
_geom_bond_atom_site_label_2
_geom_bond_site_symmetry_1
_geom_bond_site_symmetry_2
Tb1 O1 1_555 1_555
Br1 C4 1_555 1_555
Br2 C10 1_555 1_555
Br3 C16 1_555 1_555
N1 C5 1_555 1_555
N2 C11 1_555 1_555
N3 C17 1_555 1_555
O1 C1 1_555 1_555
O2 C1 1_555 1_555
O3 C7 1_555 1_555
O4 Tb1 1_555 1_555
O5 Tb1 1_555 1_555
O6 C13 1_555 1_555
O7 Tb1 1_555 1_555
O8 Tb1 1_555 1_555
O9 Tb1 1_555 1_555
O10 H14 1_555 1_555
C1 C2 1_555 1_555
C2 C3 1_555 1_555
C3 H1 1_555 1_555
C4 C3 1_555 1_555
C5 C4 1_555 1_555
H2 C5 1_555 1_555
C6 N1 1_555 1_555
H3 C6 1_555 1_555
C7 O4 1_555 1_555
C8 C7 1_555 1_555
C9 C8 1_555 1_555
H4 C9 1_555 1_555
C10 C9 1_555 1_555
C11 C10 1_555 1_555
H5 C11 1_555 1_555
C12 N2 1_555 1_555
H6 C12 1_555 1_555
C13 O5 1_555 1_555
C14 C13 1_555 1_555
C15 C14 1_555 1_555
H7 C15 1_555 1_555
C16 C15 1_555 1_555
C17 C16 1_555 1_555
H8 C17 1_555 1_555
C18 N3 1_555 1_555
H9 C18 1_555 1_555
H10 O7 1_555 1_555
H11 O7 1_555 1_555
H12 O8 1_555 1_555
H13 O8 1_555 1_555
H15 O10 1_555 1_555
O2A Tb1 1_555 1_555
O6A Tb1 1_555 1_555
Tb1A O2 1_555 1_555
Tb1A_2 O6 1_555 1_555
C2 C6 1_555 1_555
C8 C12 1_555 1_555
C14 C18 1_555 1_555

#END
