
#######################################################################
#
#                 Cambridge Crystallographic Data Centre
#                                CCDC 
#
#######################################################################
#
# If this CIF has been generated from an entry in the Cambridge 
# Structural Database, then it will include bibliographic, chemical, 
# crystal, experimental, refinement or atomic coordinate data resulting 
# from the CCDC's data processing and validation procedures.
#
#######################################################################

data_ACENIF
_symmetry_cell_setting           orthorhombic
_symmetry_space_group_name_H-M   'F d d 2'
_symmetry_Int_Tables_number      43
_space_group_name_Hall           'F 2 -2d'
loop_
_symmetry_equiv_pos_site_id
_symmetry_equiv_pos_as_xyz
1 x,y,z
2 -x,-y,z
3 1/4+x,1/4-y,1/4+z
4 1/4-x,1/4+y,1/4+z
5 x,1/2+y,1/2+z
6 -x,1/2-y,1/2+z
7 1/4+x,3/4-y,3/4+z
8 1/4-x,3/4+y,3/4+z
9 1/2+x,y,1/2+z
10 1/2-x,-y,1/2+z
11 3/4+x,1/4-y,3/4+z
12 3/4-x,1/4+y,3/4+z
13 1/2+x,1/2+y,z
14 1/2-x,1/2-y,z
15 3/4+x,3/4-y,1/4+z
16 3/4-x,3/4+y,1/4+z
_cell_length_a                   16.627(1)
_cell_length_b                   27.141(2)
_cell_length_c                   28.356(2)
_cell_angle_alpha                90
_cell_angle_beta                 90
_cell_angle_gamma                90
_cell_volume                     12796.3
loop_
_atom_site_label
_atom_site_type_symbol
_atom_site_fract_x
_atom_site_fract_y
_atom_site_fract_z
Zn1 Zn -0.15908(7) 0.21298(5) 0.77813(4)
Zn2 Zn -0.30617(7) 0.14867(4) 0.83368(4)
Zn3 Zn -0.09729(8) 0.30554(5) 0.70706(4)
O1 O -0.2361(4) 0.2082(2) 0.8286(2)
N1 N -0.3601(5) 0.1976(3) 0.8832(3)
C1 C -0.4239(8) 0.1876(5) 0.9110(5)
H1 H -0.4489(8) 0.1571(5) 0.9081(5)
C2 C -0.4524(8) 0.2194(5) 0.9424(5)
H2 H -0.4975(8) 0.2115(5) 0.9603(5)
C3 C -0.4134(8) 0.2656(6) 0.9484(5)
H3 H -0.4317(8) 0.2880(6) 0.9708(5)
C4 C -0.3494(7) 0.2762(5) 0.9211(4)
H4 H -0.3235(7) 0.3064(5) 0.9233(4)
C5 C -0.3228(6) 0.2399(3) 0.8890(3)
C6 C -0.2500 0.2500 0.8562(4)
O2 O -0.1804(4) 0.2552(2) 0.7253(2)
N2 N -0.1929(5) 0.3242(3) 0.6617(3)
C7 C -0.1933(9) 0.3644(6) 0.6323(5)
H5 H -0.1474(9) 0.3837(6) 0.6292(5)
C8 C -0.2587(10) 0.3754(6) 0.6085(7)
H6 H -0.2598(10) 0.4043(6) 0.5908(7)
C9 C -0.3303(10) 0.3434(6) 0.6090(6)
H7 H -0.3746(10) 0.3488(6) 0.5897(6)
C10 C -0.3261(8) 0.3043(4) 0.6411(4)
H8 H -0.3712(8) 0.2846(4) 0.6457(4)
C11 C -0.2581(6) 0.2945(3) 0.6655(3)
C12 C -0.2500 0.2500 0.6976(4)
O3 O -0.4196(6) 0.1265(3) 0.7328(3)
O4 O -0.4130(4) 0.1265(3) 0.8111(2)
C13 C -0.4409(6) 0.1150(4) 0.7722(4)
C14 C -0.5113(10) 0.0783(7) 0.7752(6)
H9 H -0.4941(29) 0.0492(25) 0.7915(48)
H10 H -0.5286(61) 0.0697(44) 0.7439(6)
H11 H -0.5551(36) 0.0932(22) 0.7920(48)
O5 O -0.0112(5) 0.2811(3) 0.7568(3)
O6 O -0.0592(5) 0.2317(3) 0.8102(3)
C15 C -0.0062(6) 0.2607(4) 0.7933(4)
C16 C 0.0642(8) 0.2687(7) 0.8254(6)
H12 H 0.0500(18) 0.2592(30) 0.8569(8)
H13 H 0.0790(32) 0.3029(8) 0.8250(23)
H14 H 0.1088(17) 0.2491(24) 0.8148(18)
O7 O -0.2434(5) 0.1109(3) 0.7812(4)
O8 O -0.1324(5) 0.1467(3) 0.7562(3)
C17 C -0.1772(7) 0.1110(4) 0.7643(5)
C18 C -0.1423(12) 0.0635(6) 0.7463(10)
H15 H -0.0852(13) 0.0669(12) 0.7428(31)
H16 H -0.1659(39) 0.0557(16) 0.7163(16)
H17 H -0.1537(46) 0.0375(9) 0.7683(16)
O9 O -0.2671(5) 0.0997(3) 0.8807(3)
O10 O -0.2258(5) 0.0279(3) 0.9084(3)
C19 C -0.2691(7) 0.0540(5) 0.8810(4)
C20 C -0.3225(10) 0.0251(5) 0.8482(6)
H18 H -0.3265(52) -0.0083(11) 0.8591(22)
H19 H -0.3001(32) 0.0255(32) 0.8170(10)
H20 H -0.3751(19) 0.0397(23) 0.8477(28)
O1M O -0.2639(4) 0.2918(2) 0.8286(2)
C5M C -0.1772(6) 0.2601(3) 0.8890(3)
N1M N -0.1399(5) 0.3024(3) 0.8832(3)
C1M C -0.0761(8) 0.3124(5) 0.9110(5)
H1M H -0.0511(8) 0.3429(5) 0.9081(5)
C2M C -0.0476(8) 0.2806(5) 0.9424(5)
H2M H -0.0025(8) 0.2885(5) 0.9603(5)
C3M C -0.0866(8) 0.2344(6) 0.9484(5)
H3M H -0.0683(8) 0.2120(6) 0.9708(5)
C4M C -0.1506(7) 0.2238(5) 0.9211(4)
H4M H -0.1765(7) 0.1936(5) 0.9233(4)
O2M O -0.3196(4) 0.2448(2) 0.7253(2)
C11M C -0.2419(6) 0.2055(3) 0.6655(3)
N2M N -0.3071(5) 0.1758(3) 0.6617(3)
C7M C -0.3067(9) 0.1356(6) 0.6323(5)
H5M H -0.3526(9) 0.1163(6) 0.6292(5)
C8M C -0.2413(10) 0.1246(6) 0.6085(7)
H6M H -0.2402(10) 0.0957(6) 0.5908(7)
C9M C -0.1697(10) 0.1566(6) 0.6090(6)
H7M H -0.1254(10) 0.1512(6) 0.5897(6)
C10M C -0.1739(8) 0.1957(4) 0.6411(4)
H8M H -0.1288(8) 0.2154(4) 0.6457(4)
Zn1M Zn -0.34092(7) 0.28702(5) 0.77813(4)
Zn2M Zn -0.19383(7) 0.35133(4) 0.83368(4)
Zn3M Zn -0.40271(8) 0.19446(5) 0.70706(4)
O3M O -0.0804(6) 0.3735(3) 0.7328(3)
O4M O -0.0870(4) 0.3735(3) 0.8111(2)
C13M C -0.0591(6) 0.3850(4) 0.7722(4)
C14M C 0.0113(10) 0.4217(7) 0.7752(6)
H9M H -0.0059(29) 0.4508(25) 0.7915(48)
H10M H 0.0286(61) 0.4303(44) 0.7439(6)
H11M H 0.0551(36) 0.4068(22) 0.7920(48)
O9K O 0.0171(5) 0.3497(3) 0.6307(3)
O10K O -0.0242(5) 0.2779(3) 0.6584(3)
C19K C 0.0191(7) 0.3040(5) 0.6310(4)
C20K C 0.0725(10) 0.2751(5) 0.5982(6)
H18K H 0.0765(52) 0.2417(11) 0.6091(22)
H19K H 0.0501(32) 0.2755(32) 0.5670(10)
H20K H 0.1251(19) 0.2897(23) 0.5977(28)
O5M O -0.4888(5) 0.2189(3) 0.7568(3)
O6M O -0.4408(5) 0.2683(3) 0.8102(3)
C15M C -0.4938(6) 0.2393(4) 0.7933(4)
C16M C -0.5642(8) 0.2313(7) 0.8254(6)
H12M H -0.5500(18) 0.2408(30) 0.8569(8)
H13M H -0.5790(32) 0.1971(8) 0.8250(23)
H14M H -0.6088(17) 0.2509(24) 0.8148(18)
O7M O -0.2566(5) 0.3891(3) 0.7812(4)
O8M O -0.3676(5) 0.3533(3) 0.7562(3)
C17M C -0.3228(7) 0.3890(4) 0.7643(5)
C18M C -0.3577(12) 0.4365(6) 0.7463(10)
H15M H -0.4148(13) 0.4331(12) 0.7428(31)
H16M H -0.3341(39) 0.4443(16) 0.7163(16)
H17M H -0.3463(46) 0.4625(9) 0.7683(16)
Zn3O Zn -0.15271(8) 0.05554(5) 0.95706(4)
O9M O -0.2329(5) 0.4003(3) 0.8807(3)
O10J O -0.4758(5) 0.2221(3) 0.6584(3)
Zn2K Zn 0.05617(7) 0.39867(4) 0.58368(4)
loop_
_geom_bond_atom_site_label_1
_geom_bond_atom_site_label_2
_geom_bond_site_symmetry_1
_geom_bond_site_symmetry_2
Zn1 O1 1_555 1_555
Zn2 O1 1_555 1_555
Zn3 O2 1_555 1_555
O1 C6 1_555 1_555
N1 Zn2 1_555 1_555
C1 N1 1_555 1_555
H1 C1 1_555 1_555
C2 C1 1_555 1_555
H2 C2 1_555 1_555
C3 C2 1_555 1_555
H3 C3 1_555 1_555
C4 C3 1_555 1_555
H4 C4 1_555 1_555
C5 N1 1_555 1_555
C6 C5 1_555 1_555
O2 Zn1 1_555 1_555
N2 Zn3 1_555 1_555
C7 N2 1_555 1_555
H5 C7 1_555 1_555
C8 C7 1_555 1_555
H6 C8 1_555 1_555
C9 C8 1_555 1_555
H7 C9 1_555 1_555
C10 C9 1_555 1_555
H8 C10 1_555 1_555
C11 N2 1_555 1_555
C12 O2 1_555 1_555
O3 C13 1_555 1_555
O4 Zn2 1_555 1_555
C13 O4 1_555 1_555
C14 C13 1_555 1_555
H9 C14 1_555 1_555
H10 C14 1_555 1_555
H11 C14 1_555 1_555
O5 Zn3 1_555 1_555
O6 Zn1 1_555 1_555
C15 O5 1_555 1_555
C16 C15 1_555 1_555
H12 C16 1_555 1_555
H13 C16 1_555 1_555
H14 C16 1_555 1_555
O7 Zn2 1_555 1_555
O8 Zn1 1_555 1_555
C17 O7 1_555 1_555
C18 C17 1_555 1_555
H15 C18 1_555 1_555
H16 C18 1_555 1_555
H17 C18 1_555 1_555
O9 Zn2 1_555 1_555
O10 C19 1_555 1_555
C19 O9 1_555 1_555
C20 C19 1_555 1_555
H18 C20 1_555 1_555
H19 C20 1_555 1_555
H20 C20 1_555 1_555
O1M C6 1_555 1_555
C5M C6 1_555 1_555
N1M C5M 1_555 1_555
C1M N1M 1_555 1_555
H1M C1M 1_555 1_555
C2M C1M 1_555 1_555
H2M C2M 1_555 1_555
C3M C2M 1_555 1_555
H3M C3M 1_555 1_555
C4M C5M 1_555 1_555
H4M C4M 1_555 1_555
O2M C12 1_555 1_555
C11M C12 1_555 1_555
N2M C11M 1_555 1_555
C7M N2M 1_555 1_555
H5M C7M 1_555 1_555
C8M C7M 1_555 1_555
H6M C8M 1_555 1_555
C9M C8M 1_555 1_555
H7M C9M 1_555 1_555
C10M C11M 1_555 1_555
H8M C10M 1_555 1_555
Zn1M O1M 1_555 1_555
Zn2M O1M 1_555 1_555
Zn3M O3 1_555 1_555
O3M Zn3 1_555 1_555
O4M Zn2M 1_555 1_555
C13M O3M 1_555 1_555
C14M C13M 1_555 1_555
H9M C14M 1_555 1_555
H10M C14M 1_555 1_555
H11M C14M 1_555 1_555
O9K C19K 1_555 1_555
O10K Zn3 1_555 1_555
C19K O10K 1_555 1_555
C20K C19K 1_555 1_555
H18K C20K 1_555 1_555
H19K C20K 1_555 1_555
H20K C20K 1_555 1_555
O5M Zn3M 1_555 1_555
O6M Zn1M 1_555 1_555
C15M O5M 1_555 1_555
C16M C15M 1_555 1_555
H12M C16M 1_555 1_555
H13M C16M 1_555 1_555
H14M C16M 1_555 1_555
O7M Zn2M 1_555 1_555
O8M Zn1M 1_555 1_555
C17M O7M 1_555 1_555
C18M C17M 1_555 1_555
H15M C18M 1_555 1_555
H16M C18M 1_555 1_555
H17M C18M 1_555 1_555
Zn3O O10 1_555 1_555
O9M Zn2M 1_555 1_555
O10J Zn3M 1_555 1_555
Zn2K O9K 1_555 1_555
C4 C5 1_555 1_555
C10 C11 1_555 1_555
C11 C12 1_555 1_555
O6 C15 1_555 1_555
O8 C17 1_555 1_555
N1M Zn2M 1_555 1_555
C3M C4M 1_555 1_555
O2M Zn1M 1_555 1_555
O2M Zn3M 1_555 1_555
N2M Zn3M 1_555 1_555
C9M C10M 1_555 1_555
O4M C13M 1_555 1_555
O6M C15M 1_555 1_555
O8M C17M 1_555 1_555

#END
