
#######################################################################
#
#                 Cambridge Crystallographic Data Centre
#                                CCDC 
#
#######################################################################
#
# If this CIF has been generated from an entry in the Cambridge 
# Structural Database, then it will include bibliographic, chemical, 
# crystal, experimental, refinement or atomic coordinate data resulting 
# from the CCDC's data processing and validation procedures.
#
#######################################################################

data_ACEPIH
_symmetry_cell_setting           triclinic
_symmetry_space_group_name_H-M   'P -1'
_symmetry_Int_Tables_number      2
_space_group_name_Hall           '-P 1'
loop_
_symmetry_equiv_pos_site_id
_symmetry_equiv_pos_as_xyz
1 x,y,z
2 -x,-y,-z
_cell_length_a                   9.4375(7)
_cell_length_b                   15.2188(11)
_cell_length_c                   18.9663(15)
_cell_angle_alpha                78.966(2)
_cell_angle_beta                 84.350(2)
_cell_angle_gamma                80.514(2)
_cell_volume                     2630.86
loop_
_atom_site_label
_atom_site_type_symbol
_atom_site_fract_x
_atom_site_fract_y
_atom_site_fract_z
Cu1 Cu 0.5000 0.0000 0.5000
S1 S 0.49255(12) 0.11999(7) 0.33516(6)
O1 O 0.3366(3) 0.10035(18) 0.49742(14)
C1 C 0.6094(5) 0.1607(3) 0.2594(2)
H1 H 0.6913 0.1793 0.2765
H2 H 0.6452 0.1120 0.2329
Cu2 Cu 0.5000 0.5000 0.0000
S2 S 0.43337(13) 0.42132(8) 0.17514(6)
C2 C 0.5311(5) 0.2410(3) 0.2087(2)
H3 H 0.5888 0.2520 0.1636
H4 H 0.4400 0.2261 0.1984
O2 O -0.3767(3) 0.06803(18) 0.54187(14)
O3 O 0.5910(3) 0.05426(19) 0.38515(14)
C3 C 0.5036(6) 0.3257(3) 0.2416(2)
H5 H 0.5926 0.3366 0.2576
H6 H 0.4349 0.3181 0.2830
S3 S -0.24287(10) 0.09987(7) 0.49933(5)
S4 S 0.29440(10) 0.14566(7) 0.56339(6)
O4 O 0.5546(3) 0.43177(19) 0.11901(15)
C4 C 0.1220(4) 0.1129(3) 0.5962(2)
H7 H 0.1356 0.0489 0.6167
H8 H 0.0820 0.1458 0.6344
S5 S -0.36703(10) 0.62626(7) 0.06806(5)
C5 C 0.0148(4) 0.1304(3) 0.5386(2)
H9 H 0.0568 0.1017 0.4983
H10 H -0.0073 0.1950 0.5212
O5 O 0.3504(3) 0.58761(18) 0.03848(15)
O6 O -0.3542(3) 0.57721(17) 0.00420(14)
S6 S 0.21073(10) 0.61510(7) -0.00037(6)
C6 C -0.1232(4) 0.0930(3) 0.5689(2)
H11 H -0.1712 0.1270 0.6050
H12 H -0.0995 0.0303 0.5920
C7 C -0.1898(4) 0.6001(3) 0.1007(2)
H13 H -0.1866 0.6331 0.1394
H14 H -0.1708 0.5359 0.1204
C8 C -0.0728(4) 0.6237(3) 0.0426(2)
H15 H -0.0796 0.5942 0.0023
H16 H -0.0865 0.6886 0.0254
C9 C 0.0748(4) 0.5938(3) 0.0714(2)
H17 H 0.0864 0.5298 0.0918
H18 H 0.0848 0.6268 0.1092
C10 C 0.3972(5) 0.0550(3) 0.2935(2)
C11 C 0.2531(6) 0.0862(5) 0.2844(3)
H19 H 0.2082 0.1400 0.2982
C12 C 0.1776(10) 0.0329(7) 0.2532(4)
H20 H 0.0805 0.0525 0.2464
C13 C 0.2396(15) -0.0446(9) 0.2331(5)
H21 H 0.1868 -0.0782 0.2123
C14 C 0.3800(12) -0.0731(5) 0.2434(4)
H22 H 0.4230 -0.1277 0.2302
C15 C 0.4629(7) -0.0240(4) 0.2730(3)
H23 H 0.5602 -0.0443 0.2788
C16 C 0.4323(5) 0.5058(2) 0.22757(18)
C17 C 0.5598(4) 0.5292(3) 0.2442(2)
H24 H 0.6476 0.4959 0.2322
C18 C 0.5559(7) 0.6024(3) 0.2787(2)
H25 H 0.6412 0.6180 0.2899
C19 C 0.4246(9) 0.6522(2) 0.2966(2)
H26 H 0.4220 0.7012 0.3197
C20 C 0.2971(7) 0.6288(3) 0.2800(3)
H27 H 0.2092 0.6622 0.2920
C21 C 0.3010(4) 0.5556(3) 0.2455(2)
H28 H 0.2157 0.5400 0.2343
C22 C -0.2868(4) 0.2188(3) 0.4753(2)
C23 C -0.3851(5) 0.2657(3) 0.5193(3)
H29 H -0.4261 0.2354 0.5618
C24 C -0.4208(6) 0.3581(4) 0.4988(4)
H30 H -0.4867 0.3904 0.5277
C25 C -0.3606(7) 0.4023(4) 0.4369(4)
H31 H -0.3863 0.4646 0.4236
C26 C -0.2631(7) 0.3563(4) 0.3944(3)
H32 H -0.2215 0.3873 0.3524
C27 C -0.2253(5) 0.2630(3) 0.4132(2)
H33 H -0.1593 0.2312 0.3840
C28 C 0.2412(4) 0.2617(3) 0.5262(3)
C29 C 0.2419(6) 0.2909(3) 0.4528(3)
H34 H 0.2651 0.2497 0.4215
C30 C 0.2073(7) 0.3823(4) 0.4264(4)
H35 H 0.2072 0.4031 0.3770
C31 C 0.1736(7) 0.4419(4) 0.4726(5)
H36 H 0.1515 0.5034 0.4541
C32 C 0.1713(7) 0.4138(4) 0.5454(4)
H37 H 0.1473 0.4556 0.5761
C33 C 0.2050(5) 0.3222(3) 0.5733(3)
H38 H 0.2032 0.3019 0.6228
C34 C -0.3649(4) 0.7420(3) 0.0280(2)
C35 C -0.3770(6) 0.8046(4) 0.0725(3)
H39 H -0.3907 0.7876 0.1222
C36 C -0.3682(9) 0.8934(4) 0.0415(5)
H40 H -0.3728 0.9369 0.0704
C37 C -0.3526(9) 0.9175(4) -0.0320(5)
H41 H -0.3495 0.9777 -0.0528
C38 C -0.3417(8) 0.8551(4) -0.0743(4)
H42 H -0.3305 0.8725 -0.1241
C39 C -0.3467(6) 0.7657(3) -0.0450(3)
H43 H -0.3380 0.7224 -0.0744
C40 C 0.1826(4) 0.7354(3) -0.0165(2)
C41 C 0.2161(7) 0.7812(4) 0.0332(4)
H44 H 0.2543 0.7498 0.0758
C42 C 0.1930(9) 0.8748(5) 0.0197(5)
H45 H 0.2107 0.9069 0.0542
C43 C 0.1434(9) 0.9201(5) -0.0456(6)
H46 H 0.1340 0.9830 -0.0563
C44 C 0.1090(8) 0.8755(5) -0.0930(4)
H47 H 0.0705 0.9072 -0.1355
C45 C 0.1303(6) 0.7806(4) -0.0798(3)
H48 H 0.1088 0.7490 -0.1138
O1A O 0.6634(3) -0.10035(18) 0.50258(14)
O2A O 1.3767(3) -0.06803(18) 0.45813(14)
S3A S 1.24287(10) -0.09987(7) 0.50067(5)
S4A S 0.70560(10) -0.14566(7) 0.43661(6)
C4A C 0.8780(4) -0.1129(3) 0.4038(2)
H7A H 0.8644 -0.0489 0.3833
H8A H 0.9180 -0.1458 0.3656
C5A C 0.9852(4) -0.1304(3) 0.4614(2)
H9A H 0.9432 -0.1017 0.5017
H10A H 1.0073 -0.1950 0.4788
C6A C 1.1232(4) -0.0930(3) 0.4311(2)
H11A H 1.1712 -0.1270 0.3950
H12A H 1.0995 -0.0303 0.4080
C22A C 1.2868(4) -0.2188(3) 0.5247(2)
C23A C 1.3851(5) -0.2657(3) 0.4807(3)
H29A H 1.4261 -0.2354 0.4382
C24A C 1.4208(6) -0.3581(4) 0.5012(4)
H30A H 1.4867 -0.3904 0.4723
C25A C 1.3606(7) -0.4023(4) 0.5631(4)
H31A H 1.3863 -0.4646 0.5764
C26A C 1.2631(7) -0.3563(4) 0.6056(3)
H32A H 1.2215 -0.3873 0.6476
C27A C 1.2253(5) -0.2630(3) 0.5868(2)
H33A H 1.1593 -0.2312 0.6160
C28A C 0.7588(4) -0.2617(3) 0.4738(3)
C29A C 0.7581(6) -0.2909(3) 0.5472(3)
H34A H 0.7349 -0.2497 0.5785
C30A C 0.7927(7) -0.3823(4) 0.5736(4)
H35A H 0.7928 -0.4031 0.6230
C31A C 0.8264(7) -0.4419(4) 0.5274(5)
H36A H 0.8485 -0.5034 0.5459
C32A C 0.8287(7) -0.4138(4) 0.4546(4)
H37A H 0.8527 -0.4556 0.4239
C33A C 0.7950(5) -0.3222(3) 0.4267(3)
H38A H 0.7968 -0.3019 0.3772
S1A S 0.50745(12) -0.11999(7) 0.66484(6)
C1A C 0.3906(5) -0.1607(3) 0.7406(2)
H1A H 0.3087 -0.1793 0.7235
H2A H 0.3548 -0.1120 0.7671
S2A S 0.56663(13) -0.42132(8) 0.82486(6)
C2A C 0.4689(5) -0.2410(3) 0.7913(2)
H3A H 0.4112 -0.2520 0.8364
H4A H 0.5600 -0.2261 0.8016
O3A O 0.4090(3) -0.05426(19) 0.61485(14)
C3A C 0.4964(6) -0.3257(3) 0.7584(2)
H5A H 0.4074 -0.3366 0.7424
H6A H 0.5651 -0.3181 0.7170
O4A O 0.4454(3) -0.43177(19) 0.88099(15)
C10A C 0.6028(5) -0.0550(3) 0.7065(2)
C11A C 0.7469(6) -0.0862(5) 0.7156(3)
H19A H 0.7918 -0.1400 0.7018
C12A C 0.8224(10) -0.0329(7) 0.7468(4)
H20A H 0.9195 -0.0525 0.7536
C13A C 0.7604(15) 0.0446(9) 0.7669(5)
H21A H 0.8132 0.0782 0.7877
C14A C 0.6200(12) 0.0731(5) 0.7566(4)
H22A H 0.5770 0.1277 0.7698
C15A C 0.5371(7) 0.0240(4) 0.7270(3)
H23A H 0.4398 0.0443 0.7212
C16A C 0.5677(5) -0.5058(2) 0.77243(18)
C17A C 0.4402(4) -0.5292(3) 0.7558(2)
H24A H 0.3524 -0.4959 0.7678
C18A C 0.4441(7) -0.6024(3) 0.7213(2)
H25A H 0.3588 -0.6180 0.7101
C19A C 0.5754(9) -0.6522(2) 0.7034(2)
H26A H 0.5780 -0.7012 0.6803
C20A C 0.7029(7) -0.6288(3) 0.7200(3)
H27A H 0.7908 -0.6622 0.7080
C21A C 0.6990(4) -0.5556(3) 0.7545(2)
H28A H 0.7843 -0.5400 0.7657
S5A S 1.36703(10) 0.37374(7) -0.06806(5)
O5A O 0.6496(3) 0.41239(18) -0.03848(15)
O6A O 1.3542(3) 0.42279(17) -0.00420(14)
S6A S 0.78927(10) 0.38490(7) 0.00037(6)
C7A C 1.1898(4) 0.3999(3) -0.1007(2)
H13A H 1.1866 0.3669 -0.1394
H14A H 1.1708 0.4641 -0.1204
C8A C 1.0728(4) 0.3763(3) -0.0426(2)
H15A H 1.0796 0.4058 -0.0023
H16A H 1.0865 0.3114 -0.0254
C9A C 0.9252(4) 0.4062(3) -0.0714(2)
H17A H 0.9136 0.4702 -0.0918
H18A H 0.9152 0.3732 -0.1092
C34A C 1.3649(4) 0.2580(3) -0.0280(2)
C35A C 1.3770(6) 0.1954(4) -0.0725(3)
H39A H 1.3907 0.2124 -0.1222
C36A C 1.3682(9) 0.1066(4) -0.0415(5)
H40A H 1.3728 0.0631 -0.0704
C37A C 1.3526(9) 0.0825(4) 0.0320(5)
H41A H 1.3495 0.0223 0.0528
C38A C 1.3417(8) 0.1449(4) 0.0743(4)
H42A H 1.3305 0.1275 0.1241
C39A C 1.3467(6) 0.2343(3) 0.0450(3)
H43A H 1.3380 0.2776 0.0744
C40A C 0.8174(4) 0.2646(3) 0.0165(2)
C41A C 0.7839(7) 0.2188(4) -0.0332(4)
H44A H 0.7457 0.2502 -0.0758
C42A C 0.8070(9) 0.1252(5) -0.0197(5)
H45A H 0.7893 0.0931 -0.0542
C43A C 0.8566(9) 0.0799(5) 0.0456(6)
H46A H 0.8660 0.0170 0.0563
C44A C 0.8910(8) 0.1245(5) 0.0930(4)
H47A H 0.9295 0.0928 0.1355
C45A C 0.8697(6) 0.2194(4) 0.0798(3)
H48A H 0.8912 0.2510 0.1138
O2_2 O 0.6233(3) 0.06803(18) 0.54187(14)
O2A_2 O 0.3767(3) -0.06803(18) 0.45813(14)
O4A_2 O 0.4454(3) 0.56823(19) -0.11901(15)
O6_2 O 0.6458(3) 0.57721(17) 0.00420(14)
O6A_2 O 0.3542(3) 0.42279(17) -0.00420(14)
Cu1_2 Cu -0.5000 0.0000 0.5000
Cu2_2 Cu -0.5000 0.5000 0.0000
Cu1_3 Cu 1.5000 0.0000 0.5000
Cu2_3 Cu 0.5000 -0.5000 1.0000
Cu2_4 Cu 1.5000 0.5000 0.0000
Cl1 Cl 0.02546(18) 0.33995(12) 0.22671(8)
O7 O 0.1339(8) 0.3194(5) 0.2722(4)
O8 O -0.0416(9) 0.4260(5) 0.2368(5)
O9 O 0.0800(9) 0.3422(6) 0.1570(3)
O10 O -0.0677(7) 0.2774(4) 0.2466(3)
Cl2 Cl 0.8959(2) 0.81153(13) 0.21745(9)
O11 O 0.7648(7) 0.7985(6) 0.2501(4)
O12 O 0.9238(9) 0.7723(9) 0.1627(5)
O13 O 0.8801(13) 0.9015(6) 0.1994(7)
O14 O 1.0034(6) 0.7901(4) 0.2661(3)
loop_
_geom_bond_atom_site_label_1
_geom_bond_atom_site_label_2
_geom_bond_site_symmetry_1
_geom_bond_site_symmetry_2
Cu1 O1 1_555 1_555
S1 C1 1_555 1_555
O1 S4 1_555 1_555
C1 H1 1_555 1_555
H2 C1 1_555 1_555
Cu2 O4 1_555 1_555
S2 C3 1_555 1_555
C2 C1 1_555 1_555
H3 C2 1_555 1_555
H4 C2 1_555 1_555
O2 S3 1_555 1_555
O3 Cu1 1_555 1_555
C3 C2 1_555 1_555
H5 C3 1_555 1_555
H6 C3 1_555 1_555
S3 C6 1_555 1_555
S4 C4 1_555 1_555
O4 S2 1_555 1_555
C4 H7 1_555 1_555
H8 C4 1_555 1_555
S5 O6 1_555 1_555
C5 C4 1_555 1_555
H9 C5 1_555 1_555
H10 C5 1_555 1_555
O5 Cu2 1_555 1_555
O6 Cu2_2 1_555 1_555
S6 O5 1_555 1_555
C6 C5 1_555 1_555
H11 C6 1_555 1_555
H12 C6 1_555 1_555
C7 S5 1_555 1_555
H13 C7 1_555 1_555
H14 C7 1_555 1_555
C8 C7 1_555 1_555
H15 C8 1_555 1_555
H16 C8 1_555 1_555
C9 S6 1_555 1_555
H17 C9 1_555 1_555
H18 C9 1_555 1_555
C10 S1 1_555 1_555
C11 C10 1_555 1_555
H19 C11 1_555 1_555
C12 C11 1_555 1_555
H20 C12 1_555 1_555
C13 C12 1_555 1_555
H21 C13 1_555 1_555
C14 C13 1_555 1_555
H22 C14 1_555 1_555
C15 C10 1_555 1_555
H23 C15 1_555 1_555
C16 S2 1_555 1_555
C17 C16 1_555 1_555
H24 C17 1_555 1_555
C18 C17 1_555 1_555
H25 C18 1_555 1_555
C19 C18 1_555 1_555
H26 C19 1_555 1_555
C20 C19 1_555 1_555
H27 C20 1_555 1_555
C21 C16 1_555 1_555
H28 C21 1_555 1_555
C22 S3 1_555 1_555
C23 C22 1_555 1_555
H29 C23 1_555 1_555
C24 C23 1_555 1_555
H30 C24 1_555 1_555
C25 C24 1_555 1_555
H31 C25 1_555 1_555
C26 C25 1_555 1_555
H32 C26 1_555 1_555
C27 C22 1_555 1_555
H33 C27 1_555 1_555
C28 S4 1_555 1_555
C29 C28 1_555 1_555
H34 C29 1_555 1_555
C30 C29 1_555 1_555
H35 C30 1_555 1_555
C31 C30 1_555 1_555
H36 C31 1_555 1_555
C32 C31 1_555 1_555
H37 C32 1_555 1_555
C33 C28 1_555 1_555
H38 C33 1_555 1_555
C34 S5 1_555 1_555
C35 C34 1_555 1_555
H39 C35 1_555 1_555
C36 C35 1_555 1_555
H40 C36 1_555 1_555
C37 C36 1_555 1_555
H41 C37 1_555 1_555
C38 C37 1_555 1_555
H42 C38 1_555 1_555
C39 C34 1_555 1_555
H43 C39 1_555 1_555
C40 S6 1_555 1_555
C41 C40 1_555 1_555
H44 C41 1_555 1_555
C42 C41 1_555 1_555
H45 C42 1_555 1_555
C43 C42 1_555 1_555
H46 C43 1_555 1_555
C44 C43 1_555 1_555
H47 C44 1_555 1_555
C45 C40 1_555 1_555
H48 C45 1_555 1_555
Cl1 O7 1_555 1_555
O8 Cl1 1_555 1_555
O9 Cl1 1_555 1_555
O10 Cl1 1_555 1_555
Cl2 O11 1_555 1_555
O12 Cl2 1_555 1_555
O13 Cl2 1_555 1_555
O14 Cl2 1_555 1_555
O1A Cu1 1_555 1_555
O2A S3A 1_555 1_555
S3A C6A 1_555 1_555
S4A O1A 1_555 1_555
C4A S4A 1_555 1_555
H7A C4A 1_555 1_555
H8A C4A 1_555 1_555
C5A C4A 1_555 1_555
H9A C5A 1_555 1_555
H10A C5A 1_555 1_555
C6A C5A 1_555 1_555
H11A C6A 1_555 1_555
H12A C6A 1_555 1_555
C22A S3A 1_555 1_555
C23A C22A 1_555 1_555
H29A C23A 1_555 1_555
C24A C23A 1_555 1_555
H30A C24A 1_555 1_555
C25A C24A 1_555 1_555
H31A C25A 1_555 1_555
C26A C25A 1_555 1_555
H32A C26A 1_555 1_555
C27A C22A 1_555 1_555
H33A C27A 1_555 1_555
C28A S4A 1_555 1_555
C29A C28A 1_555 1_555
H34A C29A 1_555 1_555
C30A C29A 1_555 1_555
H35A C30A 1_555 1_555
C31A C30A 1_555 1_555
H36A C31A 1_555 1_555
C32A C31A 1_555 1_555
H37A C32A 1_555 1_555
C33A C28A 1_555 1_555
H38A C33A 1_555 1_555
S1A C1A 1_555 1_555
C1A H1A 1_555 1_555
H2A C1A 1_555 1_555
S2A C3A 1_555 1_555
C2A C1A 1_555 1_555
H3A C2A 1_555 1_555
H4A C2A 1_555 1_555
O3A Cu1 1_555 1_555
C3A C2A 1_555 1_555
H5A C3A 1_555 1_555
H6A C3A 1_555 1_555
O4A S2A 1_555 1_555
C10A S1A 1_555 1_555
C11A C10A 1_555 1_555
H19A C11A 1_555 1_555
C12A C11A 1_555 1_555
H20A C12A 1_555 1_555
C13A C12A 1_555 1_555
H21A C13A 1_555 1_555
C14A C13A 1_555 1_555
H22A C14A 1_555 1_555
C15A C10A 1_555 1_555
H23A C15A 1_555 1_555
C16A S2A 1_555 1_555
C17A C16A 1_555 1_555
H24A C17A 1_555 1_555
C18A C17A 1_555 1_555
H25A C18A 1_555 1_555
C19A C18A 1_555 1_555
H26A C19A 1_555 1_555
C20A C19A 1_555 1_555
H27A C20A 1_555 1_555
C21A C16A 1_555 1_555
H28A C21A 1_555 1_555
S5A O6A 1_555 1_555
O5A Cu2 1_555 1_555
O6A Cu2_4 1_555 1_555
S6A O5A 1_555 1_555
C7A S5A 1_555 1_555
H13A C7A 1_555 1_555
H14A C7A 1_555 1_555
C8A C7A 1_555 1_555
H15A C8A 1_555 1_555
H16A C8A 1_555 1_555
C9A S6A 1_555 1_555
H17A C9A 1_555 1_555
H18A C9A 1_555 1_555
C34A S5A 1_555 1_555
C35A C34A 1_555 1_555
H39A C35A 1_555 1_555
C36A C35A 1_555 1_555
H40A C36A 1_555 1_555
C37A C36A 1_555 1_555
H41A C37A 1_555 1_555
C38A C37A 1_555 1_555
H42A C38A 1_555 1_555
C39A C34A 1_555 1_555
H43A C39A 1_555 1_555
C40A S6A 1_555 1_555
C41A C40A 1_555 1_555
H44A C41A 1_555 1_555
C42A C41A 1_555 1_555
H45A C42A 1_555 1_555
C43A C42A 1_555 1_555
H46A C43A 1_555 1_555
C44A C43A 1_555 1_555
H47A C44A 1_555 1_555
C45A C40A 1_555 1_555
H48A C45A 1_555 1_555
O2_2 Cu1 1_555 1_555
O2A_2 Cu1 1_555 1_555
O4A_2 Cu2 1_555 1_555
O6_2 Cu2 1_555 1_555
O6A_2 Cu2 1_555 1_555
Cu1_2 O2 1_555 1_555
Cu1_3 O2A 1_555 1_555
Cu2_3 O4A 1_555 1_555
S1 O3 1_555 1_555
C8 C9 1_555 1_555
C14 C15 1_555 1_555
C20 C21 1_555 1_555
C26 C27 1_555 1_555
C32 C33 1_555 1_555
C38 C39 1_555 1_555
C44 C45 1_555 1_555
C26A C27A 1_555 1_555
C32A C33A 1_555 1_555
S1A O3A 1_555 1_555
C14A C15A 1_555 1_555
C20A C21A 1_555 1_555
C8A C9A 1_555 1_555
C38A C39A 1_555 1_555
C44A C45A 1_555 1_555

#END
