
#######################################################################
#
#                 Cambridge Crystallographic Data Centre
#                                CCDC 
#
#######################################################################
#
# If this CIF has been generated from an entry in the Cambridge 
# Structural Database, then it will include bibliographic, chemical, 
# crystal, experimental, refinement or atomic coordinate data resulting 
# from the CCDC's data processing and validation procedures.
#
#######################################################################

data_ACESMN
_symmetry_cell_setting           monoclinic
_symmetry_space_group_name_H-M   'P 2/c'
_symmetry_Int_Tables_number      13
_space_group_name_Hall           '-P 2yc'
loop_
_symmetry_equiv_pos_site_id
_symmetry_equiv_pos_as_xyz
1 x,y,z
2 -x,y,1/2-z
3 -x,-y,-z
4 x,-y,1/2+z
_cell_length_a                   6.536(7)
_cell_length_b                   7.768(8)
_cell_length_c                   17.194(17)
_cell_angle_alpha                90
_cell_angle_beta                 108.8(1)
_cell_angle_gamma                90
_cell_volume                     826.394
loop_
_atom_site_label
_atom_site_type_symbol
_atom_site_fract_x
_atom_site_fract_y
_atom_site_fract_z
C1 C 0.50000 0.14100 0.25000
C2 C 0.15740 0.23720 0.41570
C3 C 0.21880 0.38340 0.46480
C4 C 0.32420 0.36620 0.55140
C5 C 0.36430 0.20240 0.58730
C6 C 0.30090 0.06090 0.53950
C7 C 0.19690 0.07330 0.45260
C8 C 0.13480 -0.08760 0.40880
C9 C -0.02380 -0.26410 0.29090
C10 C 0.50000 0.33170 0.25000
H1 H 0.18800 0.50600 0.43800
H2 H 0.37200 0.47700 0.58800
H3 H 0.44300 0.18900 0.65100
H4 H 0.32900 -0.06100 0.56700
H5 H 0.15700 -0.20300 0.44300
H6 H 0.06000 -0.36500 0.32900
H7 H -0.19000 -0.27800 0.28000
Mn1 Mn 0.00000 0.09860 0.25000
N1 N 0.05250 -0.09500 0.32970
O1 O 0.06150 0.26400 0.33490
O2 O 0.33990 0.06150 0.25790
O2A O 0.66010 0.06150 0.24210
N1A N -0.05250 -0.09500 0.17030
O1A O -0.06150 0.26400 0.16510
O2A_2 O -0.33990 0.06150 0.24210
C9A C 0.02380 -0.26410 0.20910
Mn1_2 Mn 1.00000 0.09860 0.25000
C8A C -0.13480 -0.08760 0.09120
C2A C -0.15740 0.23720 0.08430
H6A H -0.06000 -0.36500 0.17100
H7A H 0.19000 -0.27800 0.22000
C7A C -0.19690 0.07330 0.04740
H5A H -0.15700 -0.20300 0.05700
C3A C -0.21880 0.38340 0.03520
C6A C -0.30090 0.06090 -0.03950
C4A C -0.32420 0.36620 -0.05140
H1A H -0.18800 0.50600 0.06200
C5A C -0.36430 0.20240 -0.08730
H4A H -0.32900 -0.06100 -0.06700
H2A H -0.37200 0.47700 -0.08800
H3A H -0.44300 0.18900 -0.15100
loop_
_geom_bond_atom_site_label_1
_geom_bond_atom_site_label_2
_geom_bond_site_symmetry_1
_geom_bond_site_symmetry_2
C1 C10 1_555 1_555
C2 C3 1_555 1_555
C3 C4 1_555 1_555
C4 C5 1_555 1_555
C5 C6 1_555 1_555
C6 C7 1_555 1_555
C7 C2 1_555 1_555
C8 C7 1_555 1_555
C9 H6 1_555 1_555
H1 C3 1_555 1_555
H2 C4 1_555 1_555
H3 C5 1_555 1_555
H4 C6 1_555 1_555
H5 C8 1_555 1_555
H7 C9 1_555 1_555
Mn1 N1 1_555 1_555
N1 C8 1_555 1_555
O1 C2 1_555 1_555
O2 C1 1_555 1_555
O2A C1 1_555 1_555
N1A Mn1 1_555 1_555
O1A Mn1 1_555 1_555
O2A_2 Mn1 1_555 1_555
C9A C9 1_555 1_555
Mn1_2 O2A 1_555 1_555
C8A N1A 1_555 1_555
C2A O1A 1_555 1_555
H6A C9A 1_555 1_555
H7A C9A 1_555 1_555
C7A C8A 1_555 1_555
H5A C8A 1_555 1_555
C3A C2A 1_555 1_555
C6A C7A 1_555 1_555
C4A C3A 1_555 1_555
H1A C3A 1_555 1_555
C5A C6A 1_555 1_555
H4A C6A 1_555 1_555
H2A C4A 1_555 1_555
H3A C5A 1_555 1_555
C9 N1 1_555 1_555
Mn1 O1 1_555 1_555
Mn1 O2 1_555 1_555
N1A C9A 1_555 1_555
C2A C7A 1_555 1_555
C4A C5A 1_555 1_555

#END
