
#######################################################################
#
#                 Cambridge Crystallographic Data Centre
#                                CCDC 
#
#######################################################################
#
# If this CIF has been generated from an entry in the Cambridge 
# Structural Database, then it will include bibliographic, chemical, 
# crystal, experimental, refinement or atomic coordinate data resulting 
# from the CCDC's data processing and validation procedures.
#
#######################################################################

data_ACETCO
_symmetry_cell_setting           triclinic
_symmetry_space_group_name_H-M   'P -1'
_symmetry_Int_Tables_number      2
_space_group_name_Hall           '-P 1'
loop_
_symmetry_equiv_pos_site_id
_symmetry_equiv_pos_as_xyz
1 x,y,z
2 -x,-y,-z
_cell_length_a                   5.002(5)
_cell_length_b                   7.586(5)
_cell_length_c                   14.218(10)
_cell_angle_alpha                100.0(6)
_cell_angle_beta                 92.85(7)
_cell_angle_gamma                101.28(7)
_cell_volume                     519.085
loop_
_atom_site_label
_atom_site_type_symbol
_atom_site_fract_x
_atom_site_fract_y
_atom_site_fract_z
Co1 Co 0.00000 0.00000 0.00000
S1 S -0.26180 0.09800 0.40043
S2 S 0.02210 -0.23080 0.38270
O1 O -0.22960 -0.01250 0.11830
O2 O 0.09290 0.14150 0.23100
O3 O -0.66680 -0.59470 0.36530
O4 O -0.37160 -0.54710 0.25580
O5 O 0.24450 -0.16620 0.04670
O6 O 0.29020 0.24010 0.06820
C1 C 0.01070 -0.00560 0.44560
C2 C -0.33710 -0.00990 0.27690
C3 C -0.14100 0.04690 0.20510
C4 C -0.28900 -0.36260 0.41470
C5 C -0.44170 -0.50970 0.33490
H1 H -0.75200 -0.68600 0.32700
H2 H 0.15700 -0.26200 0.07600
H3 H 0.37700 -0.12300 0.08300
H4 H 0.26400 0.23200 0.12900
H5 H 0.45200 0.29300 0.04100
H8 H 0.17500 0.06500 0.43300
H9 H -0.35800 -0.14200 0.27100
H10 H -0.47200 0.01600 0.26100
H11 H -0.26100 -0.41900 0.46700
H12 H -0.39400 -0.27700 0.44200
O1A O 0.22960 0.01250 -0.11830
O5A O -0.24450 0.16620 -0.04670
O6A O -0.29020 -0.24010 -0.06820
C1A C -0.01070 0.00560 0.55440
H2A H -0.15700 0.26200 -0.07600
H3A H -0.37700 0.12300 -0.08300
H4A H -0.26400 -0.23200 -0.12900
H5A H -0.45200 -0.29300 -0.04100
S1A S 0.26180 -0.09800 0.59957
S2A S -0.02210 0.23080 0.61730
H8A H -0.17500 -0.06500 0.56700
C2A C 0.33710 0.00990 0.72310
C4A C 0.28900 0.36260 0.58530
C5A C 0.44170 0.50970 0.66510
H11A H 0.26100 0.41900 0.53300
H12A H 0.39400 0.27700 0.55800
O3A O 0.66680 0.59470 0.63470
O4A O 0.37160 0.54710 0.74420
H1A H 0.75200 0.68600 0.67300
C3A C 0.14100 -0.04690 0.79490
H9A H 0.35800 0.14200 0.72900
H10A H 0.47200 -0.01600 0.73900
O1A_2 O 0.22960 0.01250 0.88170
O2A O -0.09290 -0.14150 0.76900
Co1_2 Co 0.00000 0.00000 1.00000
O7 O 0.00230 0.55350 0.12030
H6 H -0.09200 0.54600 0.16700
H7 H 0.03400 0.46200 0.09200
loop_
_geom_bond_atom_site_label_1
_geom_bond_atom_site_label_2
_geom_bond_site_symmetry_1
_geom_bond_site_symmetry_2
Co1 O1 1_555 1_555
S1 C1 1_555 1_555
S2 C1 1_555 1_555
O1 C3 1_555 1_555
O2 C3 1_555 1_555
O3 C5 1_555 1_555
O4 C5 1_555 1_555
O5 Co1 1_555 1_555
O6 Co1 1_555 1_555
O7 H6 1_555 1_555
C1 H8 1_555 1_555
C2 S1 1_555 1_555
C3 C2 1_555 1_555
C4 S2 1_555 1_555
C5 C4 1_555 1_555
H1 O3 1_555 1_555
H2 O5 1_555 1_555
H3 O5 1_555 1_555
H4 O6 1_555 1_555
H5 O6 1_555 1_555
H7 O7 1_555 1_555
H9 C2 1_555 1_555
H10 C2 1_555 1_555
H11 C4 1_555 1_555
H12 C4 1_555 1_555
O1A Co1 1_555 1_555
O5A Co1 1_555 1_555
O6A Co1 1_555 1_555
C1A C1 1_555 1_555
H2A O5A 1_555 1_555
H3A O5A 1_555 1_555
H4A O6A 1_555 1_555
H5A O6A 1_555 1_555
S1A C1A 1_555 1_555
S2A C1A 1_555 1_555
H8A C1A 1_555 1_555
C2A S1A 1_555 1_555
C4A S2A 1_555 1_555
C5A C4A 1_555 1_555
H11A C4A 1_555 1_555
H12A C4A 1_555 1_555
O3A C5A 1_555 1_555
O4A C5A 1_555 1_555
H1A O3A 1_555 1_555
C3A C2A 1_555 1_555
H9A C2A 1_555 1_555
H10A C2A 1_555 1_555
O1A_2 C3A 1_555 1_555
O2A C3A 1_555 1_555
Co1_2 O1A_2 1_555 1_555

#END
