
#######################################################################
#
#                 Cambridge Crystallographic Data Centre
#                                CCDC 
#
#######################################################################
#
# If this CIF has been generated from an entry in the Cambridge 
# Structural Database, then it will include bibliographic, chemical, 
# crystal, experimental, refinement or atomic coordinate data resulting 
# from the CCDC's data processing and validation procedures.
#
#######################################################################

data_ACIBEU
_symmetry_cell_setting           trigonal
_symmetry_space_group_name_H-M   'P -3'
_symmetry_Int_Tables_number      147
_space_group_name_Hall           '-P 3'
loop_
_symmetry_equiv_pos_site_id
_symmetry_equiv_pos_as_xyz
1 x,y,z
2 -y,x-y,z
3 -x+y,-x,z
4 -x,-y,-z
5 y,-x+y,-z
6 x-y,x,-z
_cell_length_a                   13.975(2)
_cell_length_b                   13.975(2)
_cell_length_c                   8.1650(16)
_cell_angle_alpha                90
_cell_angle_beta                 90
_cell_angle_gamma                120
_cell_volume                     1380.99
loop_
_atom_site_label
_atom_site_type_symbol
_atom_site_fract_x
_atom_site_fract_y
_atom_site_fract_z
Co1 Co 0.21990(3) 0.98623(3) 0.10019(5)
O1 O 0.25457(19) 0.92427(18) 0.3200(3)
O2 O 0.38495(15) 1.10168(15) 0.0763(3)
O3 O 0.04971(15) 0.86474(15) 0.1152(3)
O4 O -0.10494(17) 0.80806(16) 0.2616(3)
O5 O 0.37540(15) 1.25383(15) 0.0186(3)
C1 C 0.3129(3) 0.9887(3) 0.4311(5)
H1 H 0.333(3) 1.074(3) 0.433(5)
C2 C 0.4178(3) 1.0372(4) 0.6856(5)
H2 H 0.4435 1.0023 0.7611
H3 H 0.3699 1.0571 0.7417
H4 H 0.4798 1.1023 0.6414
C3 C 0.3369(4) 0.8478(4) 0.5628(6)
H5 H 0.3744 0.8410 0.6567
H6 H 0.3641 0.8308 0.4655
H7 H 0.2590 0.7973 0.5729
C4 C -0.0034(2) 0.8509(2) 0.2476(4)
H8 H 0.044(3) 0.874(3) 0.368(4)
C5 C 0.55107(19) 1.27006(19) 0.0344(3)
C6 C 0.4269(2) 1.2023(2) 0.0419(4)
C7 C 0.61430(19) 1.2185(2) 0.0337(4)
H9 H 0.5795 1.1418 0.0328
N1 N 0.3570(2) 0.9605(3) 0.5525(4)
Co1A Co 1.01377(3) 1.23367(4) 0.10019(5)
Co1B Co 0.76633(4) 1.78010(3) 0.10019(5)
Co1D Co -0.01377(3) 0.76633(4) -0.10019(5)
Co1B_2 Co -0.23367(4) 0.78010(3) 0.10019(5)
Co1E Co 0.23367(4) 1.21990(3) -0.10019(5)
Co1C Co 0.78010(3) 1.01377(3) -0.10019(5)
Co1D_2 Co 0.98623(3) 1.76633(4) -0.10019(5)
Co1A_2 Co 0.01377(3) 1.23367(4) 0.10019(5)
O1A O 1.07573(18) 1.33030(26) 0.3200(3)
O1B O 0.66970(26) 1.74543(19) 0.3200(3)
O2A O 0.89832(15) 1.28327(21) 0.0763(3)
O2B O 0.71673(21) 1.61505(15) 0.0763(3)
O3E O 0.18497(21) 1.04971(15) -0.1152(3)
O3A O 0.13526(15) 1.18497(21) 0.1152(3)
O3A_2 O 1.13526(15) 1.18497(21) 0.1152(3)
O3C O 0.95029(15) 1.13526(15) -0.1152(3)
O3B O 0.81503(21) 1.95029(15) 0.1152(3)
O3D O 0.86474(15) 1.81503(21) -0.1152(3)
O4E O 0.08700(23) 0.89506(17) -0.2616(3)
O4A O 0.19194(16) 1.08700(23) 0.2616(3)
O4B O 0.91300(23) 1.10494(17) 0.2616(3)
O4_2 O 0.89506(17) 1.80806(16) 0.2616(3)
O5A O 0.74617(15) 1.12157(21) 0.0186(3)
O5B O 0.87843(21) 1.62460(15) 0.0186(3)
O5D O 0.25383(15) 0.87843(21) -0.0186(3)
O5E O 1.12157(21) 1.37540(15) -0.0186(3)
O5C O 0.62460(15) 1.74617(15) -0.0186(3)
C1A C 1.0113(3) 1.3242(4) 0.4311(5)
C1B C 0.6758(4) 1.6871(3) 0.4311(5)
H1A H 0.926(3) 1.259(4) 0.433(5)
H1B H 0.741(4) 1.667(3) 0.433(5)
C2A C 0.9628(4) 1.3806(5) 0.6856(5)
C2B C 0.6194(5) 1.5822(3) 0.6856(5)
H2A H 0.9977 1.4412 0.7611
H2B H 0.5588 1.5565 0.7611
H3A H 0.9429 1.3128 0.7417
H3B H 0.6872 1.6301 0.7417
H4A H 0.8977 1.3775 0.6414
H4B H 0.6225 1.5202 0.6414
C3A C 1.1522(4) 1.4891(6) 0.5628(6)
C3B C 0.5109(6) 1.6631(4) 0.5628(6)
H5A H 1.1590 1.5334 0.6567
H5B H 0.4666 1.6256 0.6567
H6A H 1.1692 1.5333 0.4655
H6B H 0.4667 1.6359 0.4655
H7A H 1.2027 1.4617 0.5729
H7B H 0.5383 1.7410 0.5729
C4E C 0.1457(3) 0.9966(2) -0.2476(4)
C4A C 0.1491(2) 1.1457(3) 0.2476(4)
H8E H 0.170(4) 1.044(3) -0.368(4)
H8A H 0.126(3) 1.170(4) 0.368(4)
C5A C 0.72994(19) 1.28101(27) 0.0344(3)
C5B C 0.71899(27) 1.44893(19) 0.0344(3)
C6A C 0.7977(2) 1.2246(3) 0.0419(4)
C6B C 0.7754(3) 1.5731(2) 0.0419(4)
C7A C 0.7815(2) 1.39580(28) 0.0337(4)
C7B C 0.60420(28) 1.38570(19) 0.0337(4)
H9B H 0.5623 1.4205 0.0328
H9A H 0.8582 1.4377 0.0328
N1A N 1.0395(3) 1.3965(4) 0.5525(4)
N1B N 0.6035(4) 1.6430(2) 0.5525(4)
loop_
_geom_bond_atom_site_label_1
_geom_bond_atom_site_label_2
_geom_bond_site_symmetry_1
_geom_bond_site_symmetry_2
Co1 O1 1_555 1_555
O1 C1 1_555 1_555
O2 Co1 1_555 1_555
O3 Co1 1_555 1_555
O4 C4 1_555 1_555
O5 C6 1_555 1_555
C1 H1 1_555 1_555
C2 H2 1_555 1_555
H3 C2 1_555 1_555
H4 C2 1_555 1_555
C3 H5 1_555 1_555
H6 C3 1_555 1_555
H7 C3 1_555 1_555
C4 O3 1_555 1_555
H8 C4 1_555 1_555
C5 C6 1_555 1_555
C6 O2 1_555 1_555
C7 C5 1_555 1_555
H9 C7 1_555 1_555
N1 C1 1_555 1_555
Co1A O1A 1_555 1_555
Co1B O1B 1_555 1_555
Co1D O3 1_555 1_555
Co1B_2 O4 1_555 1_555
Co1E O5 1_555 1_555
Co1C O3C 1_555 1_555
Co1D_2 O3D 1_555 1_555
Co1A_2 O3A 1_555 1_555
O1A C1A 1_555 1_555
O1B C1B 1_555 1_555
O2A Co1A 1_555 1_555
O2B Co1B 1_555 1_555
O3E Co1 1_555 1_555
O3A Co1E 1_555 1_555
O3A_2 Co1A 1_555 1_555
O3C Co1A 1_555 1_555
O3B Co1B 1_555 1_555
O3D Co1B 1_555 1_555
O4E Co1D 1_555 1_555
O4A Co1 1_555 1_555
O4B Co1A 1_555 1_555
O4_2 Co1B 1_555 1_555
O5A Co1C 1_555 1_555
O5B Co1D_2 1_555 1_555
O5D Co1 1_555 1_555
O5E Co1A 1_555 1_555
O5C Co1B 1_555 1_555
C1A H1A 1_555 1_555
C1B H1B 1_555 1_555
C2A H2A 1_555 1_555
C2B H2B 1_555 1_555
H3A C2A 1_555 1_555
H3B C2B 1_555 1_555
H4A C2A 1_555 1_555
H4B C2B 1_555 1_555
C3A H5A 1_555 1_555
C3B H5B 1_555 1_555
H6A C3A 1_555 1_555
H6B C3B 1_555 1_555
H7A C3A 1_555 1_555
H7B C3B 1_555 1_555
C4E O3E 1_555 1_555
C4A O3A 1_555 1_555
H8E C4E 1_555 1_555
H8A C4A 1_555 1_555
C5A C7 1_555 1_555
C5B C6B 1_555 1_555
C6A O2A 1_555 1_555
C6B O2B 1_555 1_555
C7A C5A 1_555 1_555
C7B C5 1_555 1_555
H9B C7B 1_555 1_555
H9A C7A 1_555 1_555
N1A C1A 1_555 1_555
N1B C1B 1_555 1_555
C2 N1 1_555 1_555
C3 N1 1_555 1_555
Co1E O3E 1_555 1_555
O4E C4E 1_555 1_555
O4A C4A 1_555 1_555
O5A C6A 1_555 1_555
O5B C6B 1_555 1_555
C2A N1A 1_555 1_555
C2B N1B 1_555 1_555
C3A N1A 1_555 1_555
C3B N1B 1_555 1_555
C5A C6A 1_555 1_555
C5B C7A 1_555 1_555
C5B C7B 1_555 1_555

#END
