
#######################################################################
#
#                 Cambridge Crystallographic Data Centre
#                                CCDC 
#
#######################################################################
#
# If this CIF has been generated from an entry in the Cambridge 
# Structural Database, then it will include bibliographic, chemical, 
# crystal, experimental, refinement or atomic coordinate data resulting 
# from the CCDC's data processing and validation procedures.
#
#######################################################################

data_ACICOF
_symmetry_cell_setting           monoclinic
_symmetry_space_group_name_H-M   'P 2/c'
_symmetry_Int_Tables_number      13
_space_group_name_Hall           '-P 2yc'
loop_
_symmetry_equiv_pos_site_id
_symmetry_equiv_pos_as_xyz
1 x,y,z
2 -x,y,1/2-z
3 -x,-y,-z
4 x,-y,1/2+z
_cell_length_a                   8.3839(9)
_cell_length_b                   8.2773(7)
_cell_length_c                   16.645(2)
_cell_angle_alpha                90
_cell_angle_beta                 99.144(11)
_cell_angle_gamma                90
_cell_volume                     1140.42
loop_
_atom_site_label
_atom_site_type_symbol
_atom_site_fract_x
_atom_site_fract_y
_atom_site_fract_z
Zn1 Zn 0.5000 0.62013(5) 0.7500
O1 O 0.7363(3) 0.6131(4) 0.72849(18)
O2 O 0.4584(3) 0.3801(3) 0.68589(14)
O3 O 0.5000 0.1535(4) 0.7500
N1 N 0.4315(3) 0.7511(2) 0.64223(13)
N2 N 0.1466(3) 1.1922(3) 0.49719(13)
N3 N 0.5000 0.2985(4) 0.7500
C1 C 0.4715(4) 0.6880(4) 0.57338(18)
C2 C 0.4196(5) 0.7543(4) 0.49752(19)
C3 C 0.3267(5) 0.8912(4) 0.49137(19)
C4 C 0.2863(3) 0.9615(3) 0.56181(16)
C5 C 0.3400(3) 0.8851(3) 0.63557(17)
C6 C 0.1962(4) 1.1142(3) 0.56190(17)
C7 C 0.0740(3) 1.3469(3) 0.50107(15)
C8 C -0.0313(4) 1.4003(3) 0.43264(18)
C9 C 0.1046(3) 1.4496(3) 0.56812(17)
H1 H 0.540(4) 0.593(4) 0.5820(18)
H2 H 0.448(5) 0.705(6) 0.447(3)
H3 H 0.290(4) 0.932(4) 0.439(2)
H4 H 0.309(4) 0.931(4) 0.681(2)
H5 H 0.173(4) 1.158(4) 0.613(2)
H6 H -0.052(4) 1.332(4) 0.3859(19)
H7 H 0.182(4) 1.429(4) 0.6129(19)
H8 H 0.772(4) 0.687(5) 0.710(2)
H9 H 0.786(4) 0.547(4) 0.730(2)
Zn1C Zn -0.5000 2.37987(5) 0.2500
O1A O 0.2637(3) 0.6131(4) 0.77151(18)
O2A O 0.5416(3) 0.3801(3) 0.81411(14)
N1B N -0.4315(3) 2.2489(2) 0.35777(13)
N1A N 0.5685(3) 0.7511(2) 0.85777(13)
N2B N -0.1466(3) 1.8078(3) 0.50281(13)
C1B C -0.4715(4) 2.3120(4) 0.42662(18)
C2B C -0.4196(5) 2.2457(4) 0.50248(19)
C3B C -0.3267(5) 2.1088(4) 0.50863(19)
C4B C -0.2863(3) 2.0385(3) 0.43819(16)
C5B C -0.3400(3) 2.1149(3) 0.36443(17)
C6B C -0.1962(4) 1.8858(3) 0.43810(17)
C7B C -0.0740(3) 1.6531(3) 0.49893(15)
C8B C 0.0313(4) 1.5997(3) 0.56736(18)
C9B C -0.1046(3) 1.5504(3) 0.43188(17)
H1B H -0.540(4) 2.407(4) 0.4180(18)
H2B H -0.448(5) 2.295(6) 0.553(3)
H3B H -0.290(4) 2.068(4) 0.561(2)
H4B H -0.309(4) 2.069(4) 0.319(2)
H5B H -0.173(4) 1.842(4) 0.387(2)
H6B H 0.052(4) 1.668(4) 0.6141(19)
H7B H -0.182(4) 1.571(4) 0.3871(19)
H8A H 0.228(4) 0.687(5) 0.790(2)
H9A H 0.214(4) 0.547(4) 0.770(2)
O4 O 0.0000 0.4162(5) 0.7500
O5 O -0.1293(4) 0.1954(5) 0.7349(3)
N4 N 0.0000 0.2662(5) 0.7500
O5A O 0.1293(4) 0.1954(5) 0.7651(3)
O6 O 0.1465(6) 0.1252(3) 0.32848(19)
H10 H 0.133(7) 0.034(7) 0.306(3)
H11 H 0.158(6) 0.120(6) 0.385(4)
loop_
_geom_bond_atom_site_label_1
_geom_bond_atom_site_label_2
_geom_bond_site_symmetry_1
_geom_bond_site_symmetry_2
Zn1 O1 1_555 1_555
O1 H8 1_555 1_555
O2 Zn1 1_555 1_555
O3 N3 1_555 1_555
O4 N4 1_555 1_555
O5 N4 1_555 1_555
O6 H10 1_555 1_555
N1 Zn1 1_555 1_555
N2 C6 1_555 1_555
N3 O2 1_555 1_555
N4 O5A 1_555 1_555
C1 N1 1_555 1_555
C2 C1 1_555 1_555
C3 C2 1_555 1_555
C4 C3 1_555 1_555
C5 N1 1_555 1_555
C6 C4 1_555 1_555
C7 N2 1_555 1_555
C8 C7 1_555 1_555
C9 C7 1_555 1_555
H1 C1 1_555 1_555
H2 C2 1_555 1_555
H3 C3 1_555 1_555
H4 C5 1_555 1_555
H5 C6 1_555 1_555
H6 C8 1_555 1_555
H7 C9 1_555 1_555
H9 O1 1_555 1_555
H11 O6 1_555 1_555
Zn1C N1B 1_555 1_555
O1A Zn1 1_555 1_555
O2A Zn1 1_555 1_555
N1B C1B 1_555 1_555
N1A Zn1 1_555 1_555
N2B C6B 1_555 1_555
C1B C2B 1_555 1_555
C2B C3B 1_555 1_555
C3B C4B 1_555 1_555
C4B C5B 1_555 1_555
C5B N1B 1_555 1_555
C6B C4B 1_555 1_555
C7B N2B 1_555 1_555
C8B C9 1_555 1_555
C9B C8 1_555 1_555
H1B C1B 1_555 1_555
H2B C2B 1_555 1_555
H3B C3B 1_555 1_555
H4B C5B 1_555 1_555
H5B C6B 1_555 1_555
H6B C8B 1_555 1_555
H7B C9B 1_555 1_555
H8A O1A 1_555 1_555
H9A O1A 1_555 1_555
N3 O2A 1_555 1_555
C4 C5 1_555 1_555
C7B C8B 1_555 1_555
C7B C9B 1_555 1_555

#END
