
#######################################################################
#
#                 Cambridge Crystallographic Data Centre
#                                CCDC 
#
#######################################################################
#
# If this CIF has been generated from an entry in the Cambridge 
# Structural Database, then it will include bibliographic, chemical, 
# crystal, experimental, refinement or atomic coordinate data resulting 
# from the CCDC's data processing and validation procedures.
#
#######################################################################

data_ACIDAT
_symmetry_cell_setting           monoclinic
_symmetry_space_group_name_H-M   'P 21/c'
_symmetry_Int_Tables_number      14
_space_group_name_Hall           '-P 2ybc'
loop_
_symmetry_equiv_pos_site_id
_symmetry_equiv_pos_as_xyz
1 x,y,z
2 -x,1/2+y,1/2-z
3 -x,-y,-z
4 x,1/2-y,1/2+z
_cell_length_a                   15.460(3)
_cell_length_b                   8.0382(16)
_cell_length_c                   13.998(3)
_cell_angle_alpha                90
_cell_angle_beta                 97.26(3)
_cell_angle_gamma                90
_cell_volume                     1725.59
loop_
_atom_site_label
_atom_site_type_symbol
_atom_site_fract_x
_atom_site_fract_y
_atom_site_fract_z
C1 C 0.2480(2) -0.1506(4) 0.3567(2)
H1 H 0.2441 -0.2603 0.3355
C2 C 0.29666(19) -0.0278(4) 0.3247(2)
H2 H 0.3330 -0.0395 0.2770
C3 C 0.2292(2) 0.0809(4) 0.4351(2)
H3 H 0.2094 0.1559 0.4781
C4 C 0.14500(19) -0.1616(4) 0.4843(2)
H4 H 0.1728 -0.2596 0.5148
H5 H 0.1319 -0.0865 0.5348
C5 C 0.03635(19) -0.3669(4) 0.3995(2)
C6 C -0.0498(2) -0.3424(4) 0.3581(2)
C7 C -0.1014(2) -0.4766(5) 0.3233(3)
H6 H -0.1592 -0.4618 0.2968
C8 C -0.0642(3) -0.6308(5) 0.3297(3)
H7 H -0.0970 -0.7225 0.3065
C9 C 0.0228(3) -0.6535(4) 0.3705(3)
H8 H 0.0461 -0.7604 0.3734
C10 C 0.0746(2) -0.5240(4) 0.4062(2)
H9 H 0.1321 -0.5401 0.4334
C11 C 0.32539(19) 0.5366(4) 0.5209(2)
C12 C 0.39930(18) 0.6127(3) 0.4743(2)
C13 C 0.47216(19) 0.6125(4) 0.3405(2)
H10 H 0.4788 0.5702 0.2800
C14 C 0.52625(18) 0.7410(3) 0.3778(2)
C15 C 0.59455(19) 0.8148(4) 0.3217(2)
C16 C 0.45062(19) 0.7400(4) 0.5169(2)
H11 H 0.4412 0.7829 0.5764
C17 C 0.5165(2) 0.8020(4) 0.4684(2)
H12 H 0.5538 0.8840 0.4964
Cu1 Cu 0.33558(2) 0.34224(4) 0.35934(3)
N1 N 0.28424(16) 0.1178(3) 0.37381(18)
N2 N 0.20536(16) -0.0801(3) 0.42708(18)
N3 N 0.06438(16) -0.2101(3) 0.42678(19)
N4 N 0.00024(18) -0.0970(3) 0.4037(2)
N5 N -0.06841(19) -0.1744(4) 0.3621(2)
N6 N 0.41089(15) 0.5478(3) 0.38863(17)
O1 O 0.28668(14) 0.4147(3) 0.47398(16)
O2 O 0.30570(16) 0.5952(3) 0.59594(17)
O3 O 0.59448(14) 0.7572(3) 0.23652(15)
O4 O 0.64111(16) 0.9274(3) 0.35945(17)
O5 O 0.22948(15) 0.4766(3) 0.25032(18)
H13 H 0.1869 0.4158 0.2385
H14 H 0.263(2) 0.479(5) 0.207(2)
Cu1A Cu 0.66442(2) 0.84224(4) 0.14066(3)
O3A O 0.40552(14) 0.2572(3) 0.26348(15)
loop_
_geom_bond_atom_site_label_1
_geom_bond_atom_site_label_2
_geom_bond_site_symmetry_1
_geom_bond_site_symmetry_2
C1 H1 1_555 1_555
C2 C1 1_555 1_555
H2 C2 1_555 1_555
C3 H3 1_555 1_555
C4 H4 1_555 1_555
H5 C4 1_555 1_555
C5 C6 1_555 1_555
C6 C7 1_555 1_555
C7 H6 1_555 1_555
C8 C7 1_555 1_555
H7 C8 1_555 1_555
C9 C8 1_555 1_555
H8 C9 1_555 1_555
C10 C5 1_555 1_555
H9 C10 1_555 1_555
C11 C12 1_555 1_555
C12 C16 1_555 1_555
C13 H10 1_555 1_555
C14 C13 1_555 1_555
C15 C14 1_555 1_555
C16 H11 1_555 1_555
C17 C14 1_555 1_555
H12 C17 1_555 1_555
Cu1 N1 1_555 1_555
N1 C2 1_555 1_555
N2 C1 1_555 1_555
N3 C4 1_555 1_555
N4 N3 1_555 1_555
N5 C6 1_555 1_555
N6 C12 1_555 1_555
O1 C11 1_555 1_555
O2 C11 1_555 1_555
O3 C15 1_555 1_555
O4 C15 1_555 1_555
O5 Cu1 1_555 1_555
H13 O5 1_555 1_555
H14 O5 1_555 1_555
Cu1A O3 1_555 1_555
O3A Cu1 1_555 1_555
C3 N1 1_555 1_555
C3 N2 1_555 1_555
C4 N2 1_555 1_555
C5 N3 1_555 1_555
C9 C10 1_555 1_555
C13 N6 1_555 1_555
C16 C17 1_555 1_555
Cu1 N6 1_555 1_555
Cu1 O1 1_555 1_555
N4 N5 1_555 1_555

#END
