
#######################################################################
#
#                 Cambridge Crystallographic Data Centre
#                                CCDC 
#
#######################################################################
#
# If this CIF has been generated from an entry in the Cambridge 
# Structural Database, then it will include bibliographic, chemical, 
# crystal, experimental, refinement or atomic coordinate data resulting 
# from the CCDC's data processing and validation procedures.
#
#######################################################################

data_ACIJAX
_symmetry_cell_setting           triclinic
_symmetry_space_group_name_H-M   'P -1'
_symmetry_Int_Tables_number      2
_space_group_name_Hall           '-P 1'
loop_
_symmetry_equiv_pos_site_id
_symmetry_equiv_pos_as_xyz
1 x,y,z
2 -x,-y,-z
_cell_length_a                   9.3422(2)
_cell_length_b                   9.4593(2)
_cell_length_c                   14.69600(10)
_cell_angle_alpha                80.7390(10)
_cell_angle_beta                 76.7900(10)
_cell_angle_gamma                89.2120(10)
_cell_volume                     1247.49
loop_
_atom_site_label
_atom_site_type_symbol
_atom_site_fract_x
_atom_site_fract_y
_atom_site_fract_z
Cu1 Cu 0.10833(4) 0.22904(4) 0.28389(2)
N1 N -0.0251(3) 0.3091(2) 0.39145(16)
N2 N -0.0386(3) 0.3217(3) 0.21421(18)
N3 N 0.2516(3) 0.1485(3) 0.36216(17)
N4 N 0.2408(3) 0.1521(3) 0.17233(17)
N5 N 0.2260(3) 0.5671(3) 0.18813(19)
N6 N -0.1560(3) -0.0466(3) 0.33223(19)
C1 C -0.0123(3) 0.2951(3) 0.4819(2)
H1 H 0.0658 0.2436 0.4988
C2 C -0.1095(4) 0.3537(3) 0.5503(2)
H2 H -0.0985 0.3405 0.6124
C3 C -0.2235(4) 0.4323(4) 0.5251(3)
H3 H -0.2909 0.4730 0.5699
C4 C -0.2366(4) 0.4499(3) 0.4317(3)
H4 H -0.3118 0.5042 0.4131
C5 C -0.1371(3) 0.3861(3) 0.3667(2)
C6 C -0.1463(3) 0.3893(3) 0.2666(2)
C7 C -0.2604(4) 0.4536(4) 0.2299(3)
H5 H -0.3333 0.5014 0.2669
C8 C -0.2627(5) 0.4448(5) 0.1372(3)
H6 H -0.3386 0.4858 0.1114
C9 C -0.1540(6) 0.3764(5) 0.0839(3)
H7 H -0.1545 0.3705 0.0214
C10 C -0.0422(5) 0.3155(4) 0.1241(2)
H8 H 0.0324 0.2690 0.0875
C11 C 0.3710(4) 0.2202(4) 0.3645(3)
H9 H 0.3890 0.3116 0.3292
C12 C 0.4702(4) 0.1654(4) 0.4170(3)
H10 H 0.5527 0.2201 0.4161
C13 C 0.4485(3) 0.0308(3) 0.4709(2)
C14 C 0.3244(4) -0.0431(3) 0.4677(3)
H11 H 0.3048 -0.1352 0.5017
C15 C 0.2291(4) 0.0177(4) 0.4149(3)
H12 H 0.1449 -0.0343 0.4157
C16 C 0.2265(4) 0.0162(4) 0.1602(2)
H13 H 0.1465 -0.0387 0.1981
C17 C 0.3253(4) -0.0460(3) 0.0939(2)
H14 H 0.3111 -0.1410 0.0883
C18 C 0.4454(3) 0.0321(3) 0.0358(2)
C19 C 0.4567(5) 0.1735(4) 0.0472(3)
H15 H 0.5339 0.2316 0.0089
C20 C 0.3537(4) 0.2293(4) 0.1153(3)
H16 H 0.3640 0.3248 0.1213
O1 O 0.24735(13) 0.46670(11) 0.24977(10)
O2 O 0.12526(13) 0.65145(11) 0.21046(11)
O3 O 0.30298(13) 0.58284(11) 0.10749(10)
O4 O -0.03563(12) 0.00080(11) 0.33834(9)
O5 O -0.19083(12) -0.17357(11) 0.36451(12)
O6 O -0.24267(12) 0.03357(11) 0.29882(9)
C13A C 0.5515(3) -0.0308(3) 0.5291(2)
C12A C 0.5298(4) -0.1654(4) 0.5830(3)
C11A C 0.6290(4) -0.2202(4) 0.6355(3)
N3A N 0.7484(3) -0.1485(3) 0.63784(17)
C15A C 0.7709(4) -0.0177(4) 0.5851(3)
C14A C 0.6756(4) 0.0431(3) 0.5323(3)
H11A H 0.6952 0.1352 0.4983
H12A H 0.8551 0.0343 0.5843
H9A H 0.6110 -0.3116 0.6708
H10A H 0.4473 -0.2201 0.5839
C18A C 0.5546(3) -0.0321(3) -0.0358(2)
C17A C 0.6747(4) 0.0460(3) -0.0939(2)
C16A C 0.7735(4) -0.0162(4) -0.1602(2)
N4A N 0.7592(3) -0.1521(3) -0.17233(17)
C20A C 0.6463(4) -0.2293(4) -0.1153(3)
C19A C 0.5433(5) -0.1735(4) -0.0472(3)
H15A H 0.4661 -0.2316 -0.0089
H16A H 0.6360 -0.3248 -0.1213
H13A H 0.8535 0.0387 -0.1981
H14A H 0.6889 0.1410 -0.0883
Cu1A Cu 0.89167(4) -0.22904(4) 0.71611(2)
N1A N 1.0251(3) -0.3091(2) 0.60855(16)
N2A N 1.0386(3) -0.3217(3) 0.78579(18)
C1A C 1.0123(3) -0.2951(3) 0.5181(2)
H1A H 0.9342 -0.2436 0.5012
C2A C 1.1095(4) -0.3537(3) 0.4497(2)
H2A H 1.0985 -0.3405 0.3876
C3A C 1.2235(4) -0.4323(4) 0.4749(3)
H3A H 1.2909 -0.4730 0.4301
C4A C 1.2366(4) -0.4499(3) 0.5683(3)
H4A H 1.3118 -0.5042 0.5869
C5A C 1.1371(3) -0.3861(3) 0.6333(2)
C6A C 1.1463(3) -0.3893(3) 0.7334(2)
C7A C 1.2604(4) -0.4536(4) 0.7701(3)
H5A H 1.3333 -0.5014 0.7331
C8A C 1.2627(5) -0.4448(5) 0.8628(3)
H6A H 1.3386 -0.4858 0.8886
C9A C 1.1540(6) -0.3764(5) 0.9161(3)
H7A H 1.1545 -0.3705 0.9786
C10A C 1.0422(5) -0.3155(4) 0.8759(2)
H8A H 0.9676 -0.2690 0.9125
N5A N 0.7740(3) -0.5671(3) 0.81187(19)
O1A O 0.75265(13) -0.46670(11) 0.75023(10)
O2A O 0.87474(13) -0.65145(11) 0.78954(11)
O3A O 0.69702(13) -0.58284(11) 0.89251(10)
N6A N 1.1560(3) 0.0466(3) 0.66777(19)
O4A O 1.03563(12) -0.00080(11) 0.66166(9)
O5A O 1.19083(12) 0.17357(11) 0.63549(12)
O6A O 1.24267(12) -0.03357(11) 0.70118(9)
Cu1A_2 Cu 0.89167(4) -0.22904(4) -0.28389(2)
N4A_2 N 0.7592(3) -0.1521(3) 0.82767(17)
C21 C 0.4853(5) -0.2196(5) 0.2720(3)
H17 H 0.3806 -0.2355 0.2875
H18 H 0.5279 -0.2576 0.2154
H19 H 0.5070 -0.1186 0.2620
O7 O 0.54441(12) -0.28876(11) 0.34729(11)
H23 H 0.6144 -0.2412 0.3519
C22 C 0.01192(16) 0.1895(3) 0.92837(9)
H20 H -0.0304 0.1264 0.9860
H21 H -0.0499 0.1898 0.8844
H22 H 0.0203 0.2847 0.9417
O8 O 0.1379(9) 0.1468(14) 0.8929(6)
H24 H 0.1427 0.0607 0.9113
loop_
_geom_bond_atom_site_label_1
_geom_bond_atom_site_label_2
_geom_bond_site_symmetry_1
_geom_bond_site_symmetry_2
Cu1 N1 1_555 1_555
N1 C1 1_555 1_555
N2 Cu1 1_555 1_555
N3 Cu1 1_555 1_555
N4 Cu1 1_555 1_555
N5 O1 1_555 1_555
N6 O4 1_555 1_555
C1 H1 1_555 1_555
C2 C1 1_555 1_555
H2 C2 1_555 1_555
C3 C2 1_555 1_555
H3 C3 1_555 1_555
C4 C3 1_555 1_555
H4 C4 1_555 1_555
C5 N1 1_555 1_555
C6 N2 1_555 1_555
C7 C6 1_555 1_555
H5 C7 1_555 1_555
C8 C7 1_555 1_555
H6 C8 1_555 1_555
C9 C8 1_555 1_555
H7 C9 1_555 1_555
C10 N2 1_555 1_555
H8 C10 1_555 1_555
C11 N3 1_555 1_555
H9 C11 1_555 1_555
C12 C11 1_555 1_555
H10 C12 1_555 1_555
C13 C12 1_555 1_555
C14 C13 1_555 1_555
H11 C14 1_555 1_555
C15 N3 1_555 1_555
H12 C15 1_555 1_555
C16 N4 1_555 1_555
H13 C16 1_555 1_555
C17 C16 1_555 1_555
H14 C17 1_555 1_555
C18 C17 1_555 1_555
C19 C18 1_555 1_555
H15 C19 1_555 1_555
C20 N4 1_555 1_555
H16 C20 1_555 1_555
C21 H17 1_555 1_555
H18 C21 1_555 1_555
H19 C21 1_555 1_555
C22 H20 1_555 1_555
H21 C22 1_555 1_555
H22 C22 1_555 1_555
O1 Cu1 1_555 1_555
O2 N5 1_555 1_555
O3 N5 1_555 1_555
O4 Cu1 1_555 1_555
O5 N6 1_555 1_555
O6 N6 1_555 1_555
O7 C21 1_555 1_555
H23 O7 1_555 1_555
O8 C22 1_555 1_555
H24 O8 1_555 1_555
C13A C13 1_555 1_555
C12A C13A 1_555 1_555
C11A C12A 1_555 1_555
N3A C11A 1_555 1_555
C15A N3A 1_555 1_555
C14A C13A 1_555 1_555
H11A C14A 1_555 1_555
H12A C15A 1_555 1_555
H9A C11A 1_555 1_555
H10A C12A 1_555 1_555
C18A C18 1_555 1_555
C17A C18A 1_555 1_555
C16A C17A 1_555 1_555
N4A C16A 1_555 1_555
C20A N4A 1_555 1_555
C19A C18A 1_555 1_555
H15A C19A 1_555 1_555
H16A C20A 1_555 1_555
H13A C16A 1_555 1_555
H14A C17A 1_555 1_555
Cu1A N3A 1_555 1_555
N1A Cu1A 1_555 1_555
N2A Cu1A 1_555 1_555
C1A N1A 1_555 1_555
H1A C1A 1_555 1_555
C2A C1A 1_555 1_555
H2A C2A 1_555 1_555
C3A C2A 1_555 1_555
H3A C3A 1_555 1_555
C4A C3A 1_555 1_555
H4A C4A 1_555 1_555
C5A N1A 1_555 1_555
C6A N2A 1_555 1_555
C7A C6A 1_555 1_555
H5A C7A 1_555 1_555
C8A C7A 1_555 1_555
H6A C8A 1_555 1_555
C9A C8A 1_555 1_555
H7A C9A 1_555 1_555
C10A N2A 1_555 1_555
H8A C10A 1_555 1_555
N5A O1A 1_555 1_555
O1A Cu1A 1_555 1_555
O2A N5A 1_555 1_555
O3A N5A 1_555 1_555
N6A O4A 1_555 1_555
O4A Cu1A 1_555 1_555
O5A N6A 1_555 1_555
O6A N6A 1_555 1_555
Cu1A_2 N4A 1_555 1_555
N4A_2 Cu1A 1_555 1_555
C4 C5 1_555 1_555
C5 C6 1_555 1_555
C9 C10 1_555 1_555
C14 C15 1_555 1_555
C19 C20 1_555 1_555
C15A C14A 1_555 1_555
C20A C19A 1_555 1_555
C4A C5A 1_555 1_555
C5A C6A 1_555 1_555
C9A C10A 1_555 1_555

#END
