
#######################################################################
#
#                 Cambridge Crystallographic Data Centre
#                                CCDC 
#
#######################################################################
#
# If this CIF has been generated from an entry in the Cambridge 
# Structural Database, then it will include bibliographic, chemical, 
# crystal, experimental, refinement or atomic coordinate data resulting 
# from the CCDC's data processing and validation procedures.
#
#######################################################################

data_ACIJEB
_symmetry_cell_setting           monoclinic
_symmetry_space_group_name_H-M   'P 21/n'
_symmetry_Int_Tables_number      14
_space_group_name_Hall           '-P 2yn'
loop_
_symmetry_equiv_pos_site_id
_symmetry_equiv_pos_as_xyz
1 x,y,z
2 1/2+x,1/2-y,1/2+z
3 -x,-y,-z
4 1/2-x,1/2+y,1/2-z
_cell_length_a                   9.4493(17)
_cell_length_b                   15.649(3)
_cell_length_c                   15.071(3)
_cell_angle_alpha                90.00
_cell_angle_beta                 91.026(15)
_cell_angle_gamma                90.00
_cell_volume                     2228.22
loop_
_atom_site_label
_atom_site_type_symbol
_atom_site_fract_x
_atom_site_fract_y
_atom_site_fract_z
Ni1 Ni 0.81477(5) 0.90218(3) 0.76746(3)
N1 N 0.6202(3) 0.8372(2) 0.7801(2)
N2 N 0.8080(4) 0.8966(2) 0.9097(3)
H1 H 0.8882 0.8727 0.9312
H2 H 0.8020 0.9499 0.9318
N3 N 0.6793(4) 1.0082(2) 0.7606(3)
H3 H 0.7200 1.0531 0.7883
H4 H 0.6629 1.0226 0.7035
N4 N 0.7847(4) 0.8699(2) 0.6302(2)
H5 H 0.7916 0.9172 0.5966
H6 H 0.8519 0.8328 0.6135
N5 N 0.9740(4) 0.7982(2) 0.7738(2)
N6 N 1.5147(3) 0.4882(2) 0.7445(2)
C1 C 0.6316(5) 0.7892(3) 0.8642(3)
H7 H 0.6960 0.7415 0.8571
H8 H 0.5396 0.7664 0.8791
C2 C 0.6847(5) 0.8458(3) 0.9382(3)
H9 H 0.6096 0.8840 0.9561
H10 H 0.7117 0.8110 0.9890
C3 C 0.4992(5) 0.8992(3) 0.7812(4)
H11 H 0.4523 0.8992 0.7234
H12 H 0.4312 0.8805 0.8245
C4 C 0.5456(5) 0.9871(3) 0.8030(4)
H13 H 0.4732 1.0272 0.7836
H14 H 0.5571 0.9925 0.8669
C5 C 0.6085(6) 0.7810(3) 0.7009(4)
H15 H 0.5130 0.7585 0.6955
H16 H 0.6731 0.7331 0.7075
C6 C 0.6440(5) 0.8314(3) 0.6181(3)
H17 H 0.6434 0.7938 0.5669
H18 H 0.5738 0.8757 0.6079
C7 C 0.9897(4) 0.7353(3) 0.8347(3)
H19 H 0.9255 0.7329 0.8807
C8 C 1.0938(4) 0.6751(3) 0.8327(3)
H20 H 1.1005 0.6339 0.8771
C9 C 1.1897(4) 0.6757(3) 0.7641(3)
C10 C 1.1768(4) 0.7403(3) 0.7024(3)
H21 H 1.2399 0.7435 0.6559
C11 C 1.0717(4) 0.7995(3) 0.7093(3)
H22 H 1.0669 0.8431 0.6674
C12 C 1.3022(4) 0.6111(3) 0.7566(3)
C13 C 1.3216(4) 0.5662(3) 0.6800(3)
H23 H 1.2648 0.5772 0.6302
C14 C 1.3928(5) 0.5930(3) 0.8288(3)
H24 H 1.3832 0.6216 0.8824
C15 C 1.4964(4) 0.5321(3) 0.8185(3)
H25 H 1.5572 0.5211 0.8664
C16 C 1.4264(5) 0.5040(3) 0.6766(3)
H26 H 1.4352 0.4721 0.6249
N6C N 0.9853(3) 0.9882(2) 0.7555(2)
Ni1C Ni 1.68523(5) 0.40218(3) 0.73254(3)
Cl1 Cl 0.26433(13) 0.87103(8) 0.01322(8)
O1 O 0.3289(5) 0.9478(3) -0.0165(3)
O2 O 0.1243(8) 0.8856(6) 0.0306(7)
O3 O 0.3315(9) 0.8414(4) 0.0888(6)
O4 O 0.2685(9) 0.8119(4) -0.0526(5)
Cl2 Cl 0.23235(13) 0.41264(8) 0.98485(8)
O5 O 0.3825(5) 0.3994(5) 0.9850(3)
O6 O 0.1657(6) 0.3312(4) 0.9756(4)
O7 O 0.1897(7) 0.4413(6) 1.0691(4)
O8 O 0.1817(8) 0.4612(5) 0.9126(6)
loop_
_geom_bond_atom_site_label_1
_geom_bond_atom_site_label_2
_geom_bond_site_symmetry_1
_geom_bond_site_symmetry_2
Ni1 N1 1_555 1_555
N1 C1 1_555 1_555
N2 Ni1 1_555 1_555
H1 N2 1_555 1_555
H2 N2 1_555 1_555
N3 Ni1 1_555 1_555
H3 N3 1_555 1_555
H4 N3 1_555 1_555
N4 Ni1 1_555 1_555
H5 N4 1_555 1_555
H6 N4 1_555 1_555
N5 Ni1 1_555 1_555
N6 C15 1_555 1_555
C1 H7 1_555 1_555
H8 C1 1_555 1_555
C2 N2 1_555 1_555
H9 C2 1_555 1_555
H10 C2 1_555 1_555
C3 N1 1_555 1_555
H11 C3 1_555 1_555
H12 C3 1_555 1_555
C4 N3 1_555 1_555
H13 C4 1_555 1_555
H14 C4 1_555 1_555
C5 N1 1_555 1_555
H15 C5 1_555 1_555
H16 C5 1_555 1_555
C6 N4 1_555 1_555
H17 C6 1_555 1_555
H18 C6 1_555 1_555
C7 N5 1_555 1_555
H19 C7 1_555 1_555
C8 C7 1_555 1_555
H20 C8 1_555 1_555
C9 C8 1_555 1_555
C10 C9 1_555 1_555
H21 C10 1_555 1_555
C11 N5 1_555 1_555
H22 C11 1_555 1_555
C12 C9 1_555 1_555
C13 C12 1_555 1_555
H23 C13 1_555 1_555
C14 C12 1_555 1_555
H24 C14 1_555 1_555
C15 C14 1_555 1_555
H25 C15 1_555 1_555
C16 N6 1_555 1_555
H26 C16 1_555 1_555
Cl1 O1 1_555 1_555
O2 Cl1 1_555 1_555
O3 Cl1 1_555 1_555
O4 Cl1 1_555 1_555
Cl2 O5 1_555 1_555
O6 Cl2 1_555 1_555
O7 Cl2 1_555 1_555
O8 Cl2 1_555 1_555
N6C Ni1 1_555 1_555
Ni1C N6 1_555 1_555
C1 C2 1_555 1_555
C3 C4 1_555 1_555
C5 C6 1_555 1_555
C10 C11 1_555 1_555
C13 C16 1_555 1_555

#END
