
#######################################################################
#
#                 Cambridge Crystallographic Data Centre
#                                CCDC 
#
#######################################################################
#
# If this CIF has been generated from an entry in the Cambridge 
# Structural Database, then it will include bibliographic, chemical, 
# crystal, experimental, refinement or atomic coordinate data resulting 
# from the CCDC's data processing and validation procedures.
#
#######################################################################

data_ACIJUT
_symmetry_cell_setting           orthorhombic
_symmetry_space_group_name_H-M   'P n m a'
_symmetry_Int_Tables_number      62
_space_group_name_Hall           '-P 2ac 2n'
loop_
_symmetry_equiv_pos_site_id
_symmetry_equiv_pos_as_xyz
1 x,y,z
2 1/2-x,-y,1/2+z
3 -x,1/2+y,-z
4 1/2+x,1/2-y,1/2-z
5 -x,-y,-z
6 1/2+x,y,1/2-z
7 x,1/2-y,z
8 1/2-x,1/2+y,1/2+z
_cell_length_a                   15.8346(12)
_cell_length_b                   14.6066(9)
_cell_length_c                   7.6479(4)
_cell_angle_alpha                90
_cell_angle_beta                 90
_cell_angle_gamma                90
_cell_volume                     1768.88
loop_
_atom_site_label
_atom_site_type_symbol
_atom_site_fract_x
_atom_site_fract_y
_atom_site_fract_z
Zn1 Zn 0.14073(6) -0.2500 -0.32550(12)
Br1 Br 0.29059(7) -0.2500 -0.31181(12)
Br2 Br 0.07767(6) -0.2500 -0.60495(11)
C1 C 0.1185(4) -0.0476(4) -0.1528(7)
C2 C 0.1293(4) 0.0557(3) -0.1635(6)
H1 H 0.0742 0.0863 -0.1462
H2 H 0.1684 0.0768 -0.0709
C3 C 0.1272(4) 0.0283(3) -0.6378(7)
C4 C 0.0958(3) 0.0772(4) -0.4777(6)
H3 H 0.0453 0.0455 -0.4315
H4 H 0.0795 0.1406 -0.5088
C5 C 0.2160(4) 0.1654(3) -0.3442(6)
H5 H 0.2382 0.1743 -0.4640
H6 H 0.2648 0.1588 -0.2643
C6 C 0.1647(5) 0.2500 -0.2910(10)
H7 H 0.1093 0.2500 -0.3510
H8 H 0.1548 0.2500 -0.1632
N1 N 0.1641(3) 0.0792(3) -0.3391(5)
O1 O 0.1336(3) -0.0938(3) -0.2856(5)
O2 O 0.0676(5) -0.2500 -0.1136(7)
H9 H 0.0701 -0.1985 -0.0649
O3 O 0.0954(3) -0.0791(2) -0.0069(4)
O4 O 0.1988(2) 0.0042(3) -0.6543(5)
O5 O 0.0659(3) 0.0184(3) -0.7488(5)
H10 H 0.091(4) -0.009(3) -0.832(5)
H11 H 0.2087(14) 0.0523(14) -0.371(8)
Zn1_2 Zn 0.14073(6) 0.7500 -0.32550(12)
C1F C 0.1185(4) 0.5476(4) -0.1528(7)
C2F C 0.1293(4) 0.4443(3) -0.1635(6)
H1F H 0.0742 0.4137 -0.1462
H2F H 0.1684 0.4232 -0.0709
C3F C 0.1272(4) 0.4717(3) -0.6378(7)
C4F C 0.0958(3) 0.4228(4) -0.4777(6)
H3F H 0.0453 0.4545 -0.4315
H4F H 0.0795 0.3594 -0.5088
C5F C 0.2160(4) 0.3346(3) -0.3442(6)
H5F H 0.2382 0.3257 -0.4640
H6F H 0.2648 0.3412 -0.2643
N1F N 0.1641(3) 0.4208(3) -0.3391(5)
O1F O 0.1336(3) 0.5938(3) -0.2856(5)
O1F_2 O 0.1336(3) -0.4062(3) -0.2856(5)
H9F H 0.0701 -0.3015 -0.0649
O3F O 0.0954(3) 0.5791(2) -0.0069(4)
O4F O 0.1988(2) 0.4958(3) -0.6543(5)
O5F O 0.0659(3) 0.4816(3) -0.7488(5)
H10F H 0.091(4) 0.509(3) -0.832(5)
H11F H 0.2087(14) 0.4477(14) -0.371(8)
loop_
_geom_bond_atom_site_label_1
_geom_bond_atom_site_label_2
_geom_bond_site_symmetry_1
_geom_bond_site_symmetry_2
Zn1 Br1 1_555 1_555
Br2 Zn1 1_555 1_555
C1 C2 1_555 1_555
C2 H1 1_555 1_555
H2 C2 1_555 1_555
C3 C4 1_555 1_555
C4 H3 1_555 1_555
H4 C4 1_555 1_555
C5 H5 1_555 1_555
H6 C5 1_555 1_555
C6 C5 1_555 1_555
H7 C6 1_555 1_555
H8 C6 1_555 1_555
N1 C2 1_555 1_555
O1 Zn1 1_555 1_555
O2 Zn1 1_555 1_555
H9 O2 1_555 1_555
O3 C1 1_555 1_555
O4 C3 1_555 1_555
O5 C3 1_555 1_555
H10 O5 1_555 1_555
H11 N1 1_555 1_555
Zn1_2 O1F 1_555 1_555
C1F C2F 1_555 1_555
C2F H1F 1_555 1_555
H2F C2F 1_555 1_555
C3F C4F 1_555 1_555
C4F H3F 1_555 1_555
H4F C4F 1_555 1_555
C5F C6 1_555 1_555
H5F C5F 1_555 1_555
H6F C5F 1_555 1_555
N1F C2F 1_555 1_555
O1F C1F 1_555 1_555
O1F_2 Zn1 1_555 1_555
H9F O2 1_555 1_555
O3F C1F 1_555 1_555
O4F C3F 1_555 1_555
O5F C3F 1_555 1_555
H10F O5F 1_555 1_555
H11F N1F 1_555 1_555
C1 O1 1_555 1_555
C4 N1 1_555 1_555
C5 N1 1_555 1_555
C4F N1F 1_555 1_555
C5F N1F 1_555 1_555

#END
