
#######################################################################
#
#                 Cambridge Crystallographic Data Centre
#                                CCDC 
#
#######################################################################
#
# If this CIF has been generated from an entry in the Cambridge 
# Structural Database, then it will include bibliographic, chemical, 
# crystal, experimental, refinement or atomic coordinate data resulting 
# from the CCDC's data processing and validation procedures.
#
#######################################################################

data_ACIKAA
_symmetry_cell_setting           monoclinic
_symmetry_space_group_name_H-M   'P 21/m'
_symmetry_Int_Tables_number      11
_space_group_name_Hall           '-P 2yb'
loop_
_symmetry_equiv_pos_site_id
_symmetry_equiv_pos_as_xyz
1 x,y,z
2 -x,1/2+y,-z
3 -x,-y,-z
4 x,1/2-y,z
_cell_length_a                   7.8633(4)
_cell_length_b                   14.2085(6)
_cell_length_c                   8.8490(4)
_cell_angle_alpha                90
_cell_angle_beta                 97.363(4)
_cell_angle_gamma                90
_cell_volume                     980.508
loop_
_atom_site_label
_atom_site_type_symbol
_atom_site_fract_x
_atom_site_fract_y
_atom_site_fract_z
Zn1 Zn 0.71162(8) 0.2500 0.62866(7)
S1 S 1.2328(2) 0.2500 0.95462(16)
S2 S 0.7191(3) 0.2500 0.09813(19)
C1 C 0.6411(4) -0.0611(2) 0.6994(4)
H1 H 0.6281 -0.0932 0.7965
H2 H 0.5581 -0.0889 0.6179
C2 C 0.6078(5) 0.0449(2) 0.7132(4)
C3 C 0.9477(4) -0.0584(3) 0.8005(4)
H3 H 0.9668 -0.1185 0.8565
H4 H 0.9006 -0.0125 0.8684
C4 C 1.1167(5) -0.0223(2) 0.7591(4)
C5 C 0.8483(5) -0.1628(2) 0.5760(4)
H5 H 0.9695 -0.1667 0.5572
H6 H 0.7758 -0.1612 0.4759
C6 C 0.8037(7) -0.2500 0.6632(6)
H7 H 0.8693 -0.2500 0.7664
H8 H 0.6799 -0.2500 0.6738
C7 C 0.7053(7) 0.2500 0.2808(7)
C8 C 1.0601(8) 0.2500 0.8334(7)
N1 N 0.8218(4) -0.0732(2) 0.6616(3)
H9 H 0.837(5) -0.026(3) 0.611(5)
N2 N 0.9408(8) 0.2500 0.7457(7)
N3 N 0.6950(7) 0.2500 0.4067(6)
O1 O 0.4815(5) 0.2500 0.6986(4)
H10 H 0.4608 0.3037 0.7315
O2 O 0.7012(4) 0.09749(19) 0.6471(3)
O3 O 0.4896(3) 0.06937(18) 0.7859(3)
O4 O 1.1428(4) -0.0115(2) 0.6288(3)
O5 O 1.2240(3) -0.0042(2) 0.8799(3)
H11 H 1.357(6) 0.016(3) 0.885(5)
Zn1_2 Zn 0.71162(8) -0.7500 0.62866(7)
C1C C 0.6411(4) -0.4389(2) 0.6994(4)
H1C H 0.6281 -0.4068 0.7965
H2C H 0.5581 -0.4111 0.6179
C2C C 0.6078(5) -0.5449(2) 0.7132(4)
C3C C 0.9477(4) -0.4416(3) 0.8005(4)
H3C H 0.9668 -0.3815 0.8565
H4C H 0.9006 -0.4875 0.8684
C4C C 1.1167(5) -0.4777(2) 0.7591(4)
C5C C 0.8483(5) -0.3372(2) 0.5760(4)
H5C H 0.9695 -0.3333 0.5572
H6C H 0.7758 -0.3388 0.4759
N1C N 0.8218(4) -0.4268(2) 0.6616(3)
H9C H 0.837(5) -0.474(3) 0.611(5)
H10C H 0.4608 0.1963 0.7315
O2C O 0.7012(4) -0.59749(19) 0.6471(3)
O2C_2 O 0.7012(4) 0.40251(19) 0.6471(3)
O3C O 0.4896(3) -0.56937(18) 0.7859(3)
O4C O 1.1428(4) -0.4885(2) 0.6288(3)
O5C O 1.2240(3) -0.4958(2) 0.8799(3)
H11C H 1.357(6) -0.516(3) 0.885(5)
loop_
_geom_bond_atom_site_label_1
_geom_bond_atom_site_label_2
_geom_bond_site_symmetry_1
_geom_bond_site_symmetry_2
Zn1 N2 1_555 1_555
S1 C8 1_555 1_555
S2 C7 1_555 1_555
C1 H1 1_555 1_555
H2 C1 1_555 1_555
C2 C1 1_555 1_555
C3 H3 1_555 1_555
H4 C3 1_555 1_555
C4 C3 1_555 1_555
C5 H5 1_555 1_555
H6 C5 1_555 1_555
C6 C5 1_555 1_555
H7 C6 1_555 1_555
H8 C6 1_555 1_555
C7 N3 1_555 1_555
C8 N2 1_555 1_555
N1 C1 1_555 1_555
H9 N1 1_555 1_555
N3 Zn1 1_555 1_555
O1 Zn1 1_555 1_555
H10 O1 1_555 1_555
O2 Zn1 1_555 1_555
O3 C2 1_555 1_555
O4 C4 1_555 1_555
O5 C4 1_555 1_555
H11 O5 1_555 1_555
Zn1_2 O2C 1_555 1_555
C1C H1C 1_555 1_555
H2C C1C 1_555 1_555
C2C C1C 1_555 1_555
C3C H3C 1_555 1_555
H4C C3C 1_555 1_555
C4C C3C 1_555 1_555
C5C C6 1_555 1_555
H5C C5C 1_555 1_555
H6C C5C 1_555 1_555
N1C C1C 1_555 1_555
H9C N1C 1_555 1_555
H10C O1 1_555 1_555
O2C C2C 1_555 1_555
O2C_2 Zn1 1_555 1_555
O3C C2C 1_555 1_555
O4C C4C 1_555 1_555
O5C C4C 1_555 1_555
H11C O5C 1_555 1_555
C2 O2 1_555 1_555
C3 N1 1_555 1_555
C5 N1 1_555 1_555
C3C N1C 1_555 1_555
C5C N1C 1_555 1_555

#END
