
#######################################################################
#
#                 Cambridge Crystallographic Data Centre
#                                CCDC 
#
#######################################################################
#
# If this CIF has been generated from an entry in the Cambridge 
# Structural Database, then it will include bibliographic, chemical, 
# crystal, experimental, refinement or atomic coordinate data resulting 
# from the CCDC's data processing and validation procedures.
#
#######################################################################

data_ACIPAF
_symmetry_cell_setting           triclinic
_symmetry_space_group_name_H-M   'P -1'
_symmetry_Int_Tables_number      2
_space_group_name_Hall           '-P 1'
loop_
_symmetry_equiv_pos_site_id
_symmetry_equiv_pos_as_xyz
1 x,y,z
2 -x,-y,-z
_cell_length_a                   8.6717(2)
_cell_length_b                   10.3082(2)
_cell_length_c                   17.7374(4)
_cell_angle_alpha                79.638(2)
_cell_angle_beta                 79.641(2)
_cell_angle_gamma                68.700(3)
_cell_volume                     1441.76
loop_
_atom_site_label
_atom_site_type_symbol
_atom_site_fract_x
_atom_site_fract_y
_atom_site_fract_z
Cu1 Cu 0.5000 0.0000 0.0000
Ni1 Ni 0.5000 -0.5000 0.0000
N1 N 0.5543(3) -0.0578(2) 0.11063(14)
N2 N 0.6225(3) -0.0580(3) 0.22425(14)
N3 N 0.2633(3) 0.1229(2) 0.03574(14)
N4 N 0.0459(3) 0.2718(3) 0.09561(18)
N5 N 0.4068(3) -0.1918(2) 0.00689(15)
N6 N 0.4618(4) -0.5684(3) 0.17298(18)
C1 C 0.5874(4) -0.1903(3) 0.15046(17)
H3 H 0.5817 -0.2672 0.1321
C2 C 0.6296(4) -0.1918(3) 0.22052(18)
H4 H 0.6577 -0.2683 0.2586
C3 C 0.5771(4) 0.0189(3) 0.15727(17)
H5 H 0.5634 0.1137 0.1451
C4 C 0.6548(4) -0.0088(4) 0.29125(19)
H6 H 0.7255 -0.0881 0.3222
H7 H 0.5501 0.0308 0.3232
C5 C 0.7377(4) 0.0996(3) 0.26686(19)
H8 H 0.7756 0.1158 0.3108
H9 H 0.6594 0.1856 0.2457
H10 H 0.8312 0.0669 0.2284
C6 C 0.1203(4) 0.1191(3) 0.01444(19)
H11 H 0.1168 0.0618 -0.0197
C7 C -0.0149(4) 0.2116(3) 0.0508(2)
H12 H -0.1263 0.2302 0.0462
C8 C 0.2126(4) 0.2162(3) 0.0846(2)
H13 H 0.2835 0.2406 0.1085
C9 C -0.0527(5) 0.3768(5) 0.1497(3)
H14 H -0.1692 0.3849 0.1566
H15 H -0.0121 0.3466 0.1997
C10 C -0.0366(7) 0.5067(5) 0.1193(4)
H16 H -0.0945 0.5733 0.1553
H17 H -0.0837 0.5390 0.0715
H18 H 0.0793 0.4971 0.1103
C11 C 0.4396(4) -0.3093(3) 0.00568(17)
C12 C 0.4764(4) -0.5398(3) 0.1070(2)
Cu1_2 Cu 0.5000 -1.0000 0.0000
N1A N 0.4457(3) 0.0578(2) -0.11063(14)
N2A N 0.3775(3) 0.0580(3) -0.22425(14)
N3A N 0.7367(3) -0.1229(2) -0.03574(14)
N4A N 0.9541(3) -0.2718(3) -0.09561(18)
N5A N 0.5932(3) 0.1918(2) -0.00689(15)
N5A_2 N 0.5932(3) -0.8082(2) -0.00689(15)
N6A N 0.5382(4) -0.4316(3) -0.17298(18)
C1A C 0.4126(4) 0.1903(3) -0.15046(17)
H3A H 0.4183 0.2672 -0.1321
C2A C 0.3704(4) 0.1918(3) -0.22052(18)
H4A H 0.3423 0.2683 -0.2586
C3A C 0.4229(4) -0.0189(3) -0.15727(17)
H5A H 0.4366 -0.1137 -0.1451
C4A C 0.3452(4) 0.0088(4) -0.29125(19)
H6A H 0.2745 0.0881 -0.3222
H7A H 0.4499 -0.0308 -0.3232
C5A C 0.2623(4) -0.0996(3) -0.26686(19)
H8A H 0.2244 -0.1158 -0.3108
H9A H 0.3406 -0.1856 -0.2457
H10A H 0.1688 -0.0669 -0.2284
C6A C 0.8797(4) -0.1191(3) -0.01444(19)
H11A H 0.8832 -0.0618 0.0197
C7A C 1.0149(4) -0.2116(3) -0.0508(2)
H12A H 1.1263 -0.2302 -0.0462
C8A C 0.7874(4) -0.2162(3) -0.0846(2)
H13A H 0.7165 -0.2406 -0.1085
C9A C 1.0527(5) -0.3768(5) -0.1497(3)
H14A H 1.1692 -0.3849 -0.1566
H15A H 1.0121 -0.3466 -0.1997
C10A C 1.0366(7) -0.5067(5) -0.1193(4)
H16A H 1.0945 -0.5733 -0.1553
H17A H 1.0837 -0.5390 -0.0715
H18A H 0.9207 -0.4971 -0.1103
C11A C 0.5604(4) -0.6907(3) -0.00568(17)
C12A C 0.5236(4) -0.4602(3) -0.1070(2)
Cu2 Cu 0.0000 0.0000 0.5000
Ni2 Ni 0.0000 0.5000 0.5000
N7 N 0.0846(3) -0.0377(2) 0.38813(13)
N8 N 0.1547(3) -0.1408(2) 0.28280(14)
N9 N -0.2142(3) 0.1426(2) 0.46646(13)
N10 N -0.3901(3) 0.3246(2) 0.40450(14)
N11 N 0.1180(3) 0.1935(2) 0.48023(15)
N12 N -0.0958(5) 0.5702(3) 0.33876(19)
C13 C 0.1624(4) 0.0362(3) 0.33161(17)
H19 H 0.1819 0.1167 0.3372
C14 C 0.2063(4) -0.0275(3) 0.26636(18)
H20 H 0.2607 0.0007 0.2197
C15 C 0.0823(4) -0.1434(3) 0.35644(16)
H21 H 0.0367 -0.2109 0.3818
C16 C 0.1834(4) -0.2485(3) 0.23230(18)
H22 H 0.1492 -0.3244 0.2619
H23 H 0.3018 -0.2868 0.2150
C17 C 0.0903(5) -0.1925(4) 0.1629(2)
H24 H 0.1209 -0.2645 0.1299
H25 H 0.1182 -0.1135 0.1351
H26 H -0.0275 -0.1638 0.1795
C18 C -0.3683(4) 0.1282(3) 0.48010(19)
H27 H -0.3937 0.0534 0.5105
C19 C -0.4778(4) 0.2405(3) 0.44217(19)
H28 H -0.5905 0.2569 0.4419
C20 C -0.2334(4) 0.2622(3) 0.42069(16)
H29 H -0.1480 0.2984 0.4020
C21 C -0.4539(4) 0.4578(3) 0.35509(18)
H30 H -0.5221 0.4472 0.3205
H31 H -0.3605 0.4797 0.3238
C22 C -0.5549(5) 0.5770(3) 0.3997(2)
H32 H -0.5934 0.6612 0.3646
H33 H -0.4874 0.5896 0.4332
H34 H -0.6490 0.5570 0.4300
C23 C 0.0783(4) 0.3103(3) 0.48659(17)
C24 C -0.0622(4) 0.5455(3) 0.4009(2)
Cu2_2 Cu 0.0000 1.0000 0.5000
N7A N -0.0846(3) 0.0377(2) 0.61187(13)
N8A N -0.1547(3) 0.1408(2) 0.71720(14)
N9A N 0.2142(3) -0.1426(2) 0.53354(13)
N10A N 0.3901(3) -0.3246(2) 0.59550(14)
N11A N -0.1180(3) -0.1935(2) 0.51977(15)
N11A_2 N -0.1180(3) 0.8065(2) 0.51977(15)
N12A N 0.0958(5) 0.4298(3) 0.66124(19)
C13A C -0.1624(4) -0.0362(3) 0.66839(17)
H19A H -0.1819 -0.1167 0.6628
C14A C -0.2063(4) 0.0275(3) 0.73364(18)
H20A H -0.2607 -0.0007 0.7803
C15A C -0.0823(4) 0.1434(3) 0.64356(16)
H21A H -0.0367 0.2109 0.6182
C16A C -0.1834(4) 0.2485(3) 0.76770(18)
H22A H -0.1492 0.3244 0.7381
H23A H -0.3018 0.2868 0.7850
C17A C -0.0903(5) 0.1925(4) 0.8371(2)
H24A H -0.1209 0.2645 0.8701
H25A H -0.1182 0.1135 0.8649
H26A H 0.0275 0.1638 0.8205
C18A C 0.3683(4) -0.1282(3) 0.51990(19)
H27A H 0.3937 -0.0534 0.4895
C19A C 0.4778(4) -0.2405(3) 0.55783(19)
H28A H 0.5905 -0.2569 0.5581
C20A C 0.2334(4) -0.2622(3) 0.57931(16)
H29A H 0.1480 -0.2984 0.5980
C21A C 0.4539(4) -0.4578(3) 0.64491(18)
H30A H 0.5221 -0.4472 0.6795
H31A H 0.3605 -0.4797 0.6762
C22A C 0.5549(5) -0.5770(3) 0.6003(2)
H32A H 0.5934 -0.6612 0.6354
H33A H 0.4874 -0.5896 0.5668
H34A H 0.6490 -0.5570 0.5700
C23A C -0.0783(4) 0.6897(3) 0.51341(17)
C24A C 0.0622(4) 0.4545(3) 0.5991(2)
O1 O 0.2492(5) -0.6775(4) 0.2798(3)
H1 H 0.159(6) -0.599(5) 0.287(4)
H2 H 0.311(7) -0.630(6) 0.246(3)
loop_
_geom_bond_atom_site_label_1
_geom_bond_atom_site_label_2
_geom_bond_site_symmetry_1
_geom_bond_site_symmetry_2
Cu1 N1 1_555 1_555
Cu2 N7 1_555 1_555
Ni1 C11 1_555 1_555
Ni2 C23 1_555 1_555
O1 H1 1_555 1_555
H2 O1 1_555 1_555
N1 C1 1_555 1_555
N2 C2 1_555 1_555
N3 Cu1 1_555 1_555
N4 C7 1_555 1_555
N5 Cu1 1_555 1_555
N6 C12 1_555 1_555
N7 C13 1_555 1_555
N8 C14 1_555 1_555
N9 Cu2 1_555 1_555
N10 C19 1_555 1_555
N11 Cu2 1_555 1_555
N12 C24 1_555 1_555
C1 H3 1_555 1_555
C2 C1 1_555 1_555
H4 C2 1_555 1_555
C3 N1 1_555 1_555
H5 C3 1_555 1_555
C4 N2 1_555 1_555
H6 C4 1_555 1_555
H7 C4 1_555 1_555
C5 C4 1_555 1_555
H8 C5 1_555 1_555
H9 C5 1_555 1_555
H10 C5 1_555 1_555
C6 N3 1_555 1_555
H11 C6 1_555 1_555
C7 C6 1_555 1_555
H12 C7 1_555 1_555
C8 N3 1_555 1_555
H13 C8 1_555 1_555
C9 N4 1_555 1_555
H14 C9 1_555 1_555
H15 C9 1_555 1_555
C10 C9 1_555 1_555
H16 C10 1_555 1_555
H17 C10 1_555 1_555
H18 C10 1_555 1_555
C11 N5 1_555 1_555
C12 Ni1 1_555 1_555
C13 H19 1_555 1_555
C14 C13 1_555 1_555
H20 C14 1_555 1_555
C15 N7 1_555 1_555
H21 C15 1_555 1_555
C16 N8 1_555 1_555
H22 C16 1_555 1_555
H23 C16 1_555 1_555
C17 C16 1_555 1_555
H24 C17 1_555 1_555
H25 C17 1_555 1_555
H26 C17 1_555 1_555
C18 N9 1_555 1_555
H27 C18 1_555 1_555
C19 C18 1_555 1_555
H28 C19 1_555 1_555
C20 N9 1_555 1_555
H29 C20 1_555 1_555
C21 N10 1_555 1_555
H30 C21 1_555 1_555
H31 C21 1_555 1_555
C22 C21 1_555 1_555
H32 C22 1_555 1_555
H33 C22 1_555 1_555
H34 C22 1_555 1_555
C23 N11 1_555 1_555
C24 Ni2 1_555 1_555
Cu1_2 N5A_2 1_555 1_555
Cu2_2 N11A_2 1_555 1_555
N1A Cu1 1_555 1_555
N2A C2A 1_555 1_555
N3A Cu1 1_555 1_555
N4A C7A 1_555 1_555
N5A Cu1 1_555 1_555
N5A_2 C11A 1_555 1_555
N6A C12A 1_555 1_555
N7A Cu2 1_555 1_555
N8A C14A 1_555 1_555
N9A Cu2 1_555 1_555
N10A C19A 1_555 1_555
N11A Cu2 1_555 1_555
N11A_2 C23A 1_555 1_555
N12A C24A 1_555 1_555
C1A N1A 1_555 1_555
H3A C1A 1_555 1_555
C2A C1A 1_555 1_555
H4A C2A 1_555 1_555
C3A N1A 1_555 1_555
H5A C3A 1_555 1_555
C4A N2A 1_555 1_555
H6A C4A 1_555 1_555
H7A C4A 1_555 1_555
C5A C4A 1_555 1_555
H8A C5A 1_555 1_555
H9A C5A 1_555 1_555
H10A C5A 1_555 1_555
C6A N3A 1_555 1_555
H11A C6A 1_555 1_555
C7A C6A 1_555 1_555
H12A C7A 1_555 1_555
C8A N3A 1_555 1_555
H13A C8A 1_555 1_555
C9A N4A 1_555 1_555
H14A C9A 1_555 1_555
H15A C9A 1_555 1_555
C10A C9A 1_555 1_555
H16A C10A 1_555 1_555
H17A C10A 1_555 1_555
H18A C10A 1_555 1_555
C11A Ni1 1_555 1_555
C12A Ni1 1_555 1_555
C13A N7A 1_555 1_555
H19A C13A 1_555 1_555
C14A C13A 1_555 1_555
H20A C14A 1_555 1_555
C15A N7A 1_555 1_555
H21A C15A 1_555 1_555
C16A N8A 1_555 1_555
H22A C16A 1_555 1_555
H23A C16A 1_555 1_555
C17A C16A 1_555 1_555
H24A C17A 1_555 1_555
H25A C17A 1_555 1_555
H26A C17A 1_555 1_555
C18A N9A 1_555 1_555
H27A C18A 1_555 1_555
C19A C18A 1_555 1_555
H28A C19A 1_555 1_555
C20A N9A 1_555 1_555
H29A C20A 1_555 1_555
C21A N10A 1_555 1_555
H30A C21A 1_555 1_555
H31A C21A 1_555 1_555
C22A C21A 1_555 1_555
H32A C22A 1_555 1_555
H33A C22A 1_555 1_555
H34A C22A 1_555 1_555
C23A Ni2 1_555 1_555
C24A Ni2 1_555 1_555
N2 C3 1_555 1_555
N4 C8 1_555 1_555
N8 C15 1_555 1_555
N10 C20 1_555 1_555
N2A C3A 1_555 1_555
N4A C8A 1_555 1_555
N8A C15A 1_555 1_555
N10A C20A 1_555 1_555

#END
