
#######################################################################
#
#                 Cambridge Crystallographic Data Centre
#                                CCDC 
#
#######################################################################
#
# If this CIF has been generated from an entry in the Cambridge 
# Structural Database, then it will include bibliographic, chemical, 
# crystal, experimental, refinement or atomic coordinate data resulting 
# from the CCDC's data processing and validation procedures.
#
#######################################################################

data_ACISEM
_symmetry_cell_setting           monoclinic
_symmetry_space_group_name_H-M   'P 21/n'
_symmetry_Int_Tables_number      14
_space_group_name_Hall           '-P 2yn'
loop_
_symmetry_equiv_pos_site_id
_symmetry_equiv_pos_as_xyz
1 x,y,z
2 1/2-x,1/2+y,1/2-z
3 -x,-y,-z
4 1/2+x,1/2-y,1/2+z
_cell_length_a                   8.8153(12)
_cell_length_b                   12.9316(18)
_cell_length_c                   13.1313(18)
_cell_angle_alpha                90
_cell_angle_beta                 92.685(2)
_cell_angle_gamma                90
_cell_volume                     1495.27
loop_
_atom_site_label
_atom_site_type_symbol
_atom_site_fract_x
_atom_site_fract_y
_atom_site_fract_z
Cu1 Cu 0.98741(4) 0.30502(3) 0.83960(2)
C1 C 0.9767(4) 0.3128(2) 1.1564(2)
H1 H 0.9417 0.2907 1.2185
C2 C 1.0811(4) 0.3895(2) 1.1437(2)
H2 H 1.1303 0.4296 1.1939
C3 C 1.0970(3) 0.3940(2) 1.0399(2)
H3 H 1.1603 0.4403 1.0082
C4 C 0.9884(4) 0.1640(2) 0.5518(2)
H4 H 0.9668 0.1596 0.4819
C5 C 1.0769(4) 0.0969(2) 0.6086(2)
H5 H 1.1268 0.0384 0.5862
C6 C 1.0759(4) 0.1351(2) 0.7063(2)
H6 H 1.1274 0.1050 0.7621
C7 C 0.8328(4) 0.1873(2) 1.0428(2)
H7 H 0.7657 0.2041 0.9845
H8 H 0.7705 0.1755 1.1007
C8 C 0.9187(3) 0.0902(2) 1.0207(2)
C9 C 1.0073(3) 0.0415(2) 1.0962(2)
H9 H 1.0132 0.0690 1.1617
C10 C 0.9130(4) 0.0473(2) 0.9244(2)
H10 H 0.8545 0.0789 0.8724
C11 C 0.8411(3) 0.3245(2) 0.5840(2)
H11 H 0.7883 0.3476 0.6431
H12 H 0.7652 0.3013 0.5332
C12 C 0.9260(3) 0.4152(2) 0.5413(2)
C13 C 0.9199(4) 0.4333(2) 0.4373(2)
H13 H 0.8657 0.3883 0.3941
C14 C 1.0070(4) 0.4829(2) 0.6032(2)
H14 H 1.0128 0.4723 0.6733
N1 N 1.0106(3) 0.32406(17) 0.99080(17)
N2 N 0.9335(3) 0.27475(17) 1.06497(17)
N3 N 0.9918(3) 0.22077(17) 0.71104(17)
N4 N 0.9379(3) 0.23747(17) 0.61374(16)
Cl1 Cl 1.23223(9) 0.34807(7) 0.82116(6)
Cl2 Cl 0.74108(9) 0.34524(7) 0.83314(6)
Cu1B Cu 1.01259(4) -0.30502(3) 1.16040(2)
Cu1B_2 Cu 1.01259(4) 0.69498(3) 0.16040(2)
C1B C 1.0233(4) -0.3128(2) 0.8436(2)
H1B H 1.0583 -0.2907 0.7815
C2B C 0.9189(4) -0.3895(2) 0.8563(2)
H2B H 0.8697 -0.4296 0.8061
C3B C 0.9030(3) -0.3940(2) 0.9601(2)
H3B H 0.8397 -0.4403 0.9918
C4B C 1.0116(4) 0.8360(2) 0.4482(2)
H4B H 1.0332 0.8404 0.5181
C5B C 0.9231(4) 0.9031(2) 0.3914(2)
H5B H 0.8732 0.9616 0.4138
C6B C 0.9241(4) 0.8649(2) 0.2937(2)
H6B H 0.8726 0.8950 0.2379
C7B C 1.1672(4) -0.1873(2) 0.9572(2)
H7B H 1.2343 -0.2041 1.0155
H8B H 1.2295 -0.1755 0.8993
C8B C 1.0813(3) -0.0902(2) 0.9793(2)
C9B C 0.9927(3) -0.0415(2) 0.9038(2)
H9B H 0.9868 -0.0690 0.8383
C10B C 1.0870(4) -0.0473(2) 1.0756(2)
H10B H 1.1455 -0.0789 1.1276
C11B C 1.1589(3) 0.6755(2) 0.4160(2)
H11B H 1.2117 0.6524 0.3569
H12B H 1.2348 0.6987 0.4668
C12B C 1.0740(3) 0.5848(2) 0.4587(2)
C13B C 1.0801(4) 0.5667(2) 0.5627(2)
H13B H 1.1343 0.6117 0.6059
C14B C 0.9930(4) 0.5171(2) 0.3968(2)
H14B H 0.9872 0.5277 0.3267
N1B N 0.9894(3) -0.32406(17) 1.00920(17)
N2B N 1.0665(3) -0.27475(17) 0.93503(17)
N3B N 1.0082(3) 0.77923(17) 0.28896(17)
N3B_2 N 1.0082(3) -0.22077(17) 1.28896(17)
N4B N 1.0621(3) 0.76253(17) 0.38626(16)
Cl1B Cl 0.76777(9) -0.34807(7) 1.17884(6)
Cl2B Cl 1.25892(9) -0.34524(7) 1.16686(6)
loop_
_geom_bond_atom_site_label_1
_geom_bond_atom_site_label_2
_geom_bond_site_symmetry_1
_geom_bond_site_symmetry_2
Cu1 N1 1_555 1_555
C1 H1 1_555 1_555
C2 C1 1_555 1_555
H2 C2 1_555 1_555
C3 C2 1_555 1_555
H3 C3 1_555 1_555
C4 H4 1_555 1_555
C5 C4 1_555 1_555
H5 C5 1_555 1_555
C6 C5 1_555 1_555
H6 C6 1_555 1_555
C7 H7 1_555 1_555
H8 C7 1_555 1_555
C8 C7 1_555 1_555
C9 C8 1_555 1_555
H9 C9 1_555 1_555
C10 C8 1_555 1_555
H10 C10 1_555 1_555
C11 H11 1_555 1_555
H12 C11 1_555 1_555
C12 C11 1_555 1_555
C13 C12 1_555 1_555
H13 C13 1_555 1_555
C14 C12 1_555 1_555
H14 C14 1_555 1_555
N1 C3 1_555 1_555
N2 C1 1_555 1_555
N3 Cu1 1_555 1_555
N4 C4 1_555 1_555
Cl1 Cu1 1_555 1_555
Cl2 Cu1 1_555 1_555
Cu1B N1B 1_555 1_555
Cu1B_2 N3B 1_555 1_555
C1B H1B 1_555 1_555
C2B C1B 1_555 1_555
H2B C2B 1_555 1_555
C3B C2B 1_555 1_555
H3B C3B 1_555 1_555
C4B H4B 1_555 1_555
C5B C4B 1_555 1_555
H5B C5B 1_555 1_555
C6B C5B 1_555 1_555
H6B C6B 1_555 1_555
C7B H7B 1_555 1_555
H8B C7B 1_555 1_555
C8B C7B 1_555 1_555
C9B C10 1_555 1_555
H9B C9B 1_555 1_555
C10B C9 1_555 1_555
H10B C10B 1_555 1_555
C11B H11B 1_555 1_555
H12B C11B 1_555 1_555
C12B C11B 1_555 1_555
C13B C14 1_555 1_555
H13B C13B 1_555 1_555
C14B C13 1_555 1_555
H14B C14B 1_555 1_555
N1B C3B 1_555 1_555
N2B C1B 1_555 1_555
N3B C6B 1_555 1_555
N3B_2 Cu1B 1_555 1_555
N4B C4B 1_555 1_555
Cl1B Cu1B 1_555 1_555
Cl2B Cu1B 1_555 1_555
C6 N3 1_555 1_555
C7 N2 1_555 1_555
C11 N4 1_555 1_555
N1 N2 1_555 1_555
N3 N4 1_555 1_555
C7B N2B 1_555 1_555
C8B C9B 1_555 1_555
C8B C10B 1_555 1_555
C11B N4B 1_555 1_555
C12B C13B 1_555 1_555
C12B C14B 1_555 1_555
N1B N2B 1_555 1_555
N3B N4B 1_555 1_555

#END
