
#######################################################################
#
#                 Cambridge Crystallographic Data Centre
#                                CCDC 
#
#######################################################################
#
# If this CIF has been generated from an entry in the Cambridge 
# Structural Database, then it will include bibliographic, chemical, 
# crystal, experimental, refinement or atomic coordinate data resulting 
# from the CCDC's data processing and validation procedures.
#
#######################################################################

data_ACITIQ
_symmetry_cell_setting           triclinic
_symmetry_space_group_name_H-M   'P -1'
_symmetry_Int_Tables_number      2
_space_group_name_Hall           '-P 1'
loop_
_symmetry_equiv_pos_site_id
_symmetry_equiv_pos_as_xyz
1 x,y,z
2 -x,-y,-z
_cell_length_a                   10.014(3)
_cell_length_b                   11.025(3)
_cell_length_c                   14.399(3)
_cell_angle_alpha                78.36(2)
_cell_angle_beta                 84.60(2)
_cell_angle_gamma                75.62(2)
_cell_volume                     1506.61
loop_
_atom_site_label
_atom_site_type_symbol
_atom_site_fract_x
_atom_site_fract_y
_atom_site_fract_z
Na1 Na 0.66091(17) 1.05777(15) 0.01779(12)
Na2 Na 0.99269(17) 1.13903(15) 0.03884(11)
Na3 Na 0.31111(17) 1.21182(16) 0.07600(12)
O1 O 1.1055(3) 1.1826(3) 0.1615(2)
H1 H 1.099(5) 1.104(3) 0.198(3)
H2 H 1.065(5) 1.238(3) 0.200(3)
O2 O 0.7873(3) 1.1118(3) 0.1285(2)
H3 H 0.799(5) 1.035(3) 0.170(3)
H4 H 0.749(5) 1.174(3) 0.164(3)
O3 O 0.5065(3) 1.2594(3) -0.0122(2)
H5 H 0.506(5) 1.253(5) -0.073(2)
H6 H 0.545(5) 1.324(4) -0.008(3)
O4 O 0.3986(5) 1.2366(4) 0.2146(3)
H7 H 0.340(4) 1.261(5) 0.269(3)
H8 H 0.482(3) 1.253(5) 0.227(3)
N1 N 0.5511(4) 1.0386(4) -0.2707(3)
H9 H 0.5638 0.9577 -0.2668
C1 C 0.5456(4) 1.0848(4) -0.1889(3)
O5 O 0.5585(3) 1.0100(3) -0.1106(2)
N2 N 0.5243(4) 1.2113(4) -0.1952(3)
C2 C 0.5099(5) 1.2885(5) -0.2801(4)
N3 N 0.4880(5) 1.4135(4) -0.2819(4)
H10 H 0.4836 1.4414 -0.2299
H11 H 0.4782 1.4660 -0.3352
C3 C 0.5166(6) 1.2419(6) -0.3636(4)
H12 H 0.5069 1.2966 -0.4221
C4 C 0.5377(5) 1.1133(6) -0.3570(4)
H13 H 0.5427 1.0782 -0.4111
N4 N 0.8499(4) 1.2633(3) -0.2006(3)
H14 H 0.8427 1.3058 -0.1557
C5 C 0.8748(4) 1.1335(4) -0.1779(3)
O6 O 0.8866(3) 1.0801(3) -0.0927(2)
N5 N 0.8851(3) 1.0680(3) -0.2485(2)
C6 C 0.8733(4) 1.1307(4) -0.3384(3)
N6 N 0.8858(5) 1.0628(4) -0.4064(3)
H15 H 0.9010 0.9811 -0.3921
H16 H 0.8787 1.1005 -0.4648
C7 C 0.8474(5) 1.2656(5) -0.3618(3)
H17 H 0.8388 1.3085 -0.4243
C8 C 0.8362(5) 1.3275(4) -0.2907(3)
H18 H 0.8187 1.4160 -0.3029
N7 N 0.8271(4) 0.6598(3) 0.1632(2)
H19 H 0.8332 0.6180 0.1180
C9 C 0.8033(4) 0.7893(4) 0.1416(3)
O7 O 0.7917(3) 0.8445(3) 0.05605(19)
N8 N 0.7948(3) 0.8553(3) 0.2117(2)
C10 C 0.8080(4) 0.7919(4) 0.3010(3)
N9 N 0.7985(4) 0.8605(4) 0.3691(3)
H20 H 0.7845 0.9421 0.3545
H21 H 0.8065 0.8230 0.4274
C11 C 0.8337(5) 0.6570(4) 0.3249(3)
H22 H 0.8444 0.6140 0.3873
C12 C 0.8415(5) 0.5953(4) 0.2530(3)
H23 H 0.8571 0.5069 0.2651
Cl1 Cl 0.77630(14) 1.45690(10) -0.00600(9)
O8 O 0.8191(4) 1.5729(3) -0.0239(3)
O9 O 0.7315(10) 1.4313(5) 0.0882(4)
O10 O 0.6682(5) 1.4676(5) -0.0686(5)
O11 O 0.8863(4) 1.3559(3) -0.0280(3)
Na1A Na 0.33909(17) 0.94223(15) -0.01779(12)
Na2A Na 1.00731(17) 0.86097(15) -0.03884(11)
Na3_2 Na 1.31111(17) 1.21182(16) 0.07600(12)
Na3A Na 0.68889(17) 0.78818(16) -0.07600(12)
Na3A_2 Na 0.68889(17) 1.78818(16) -0.07600(12)
O1_2 O 0.1055(3) 1.1826(3) 0.1615(2)
H1_2 H 0.099(5) 1.104(3) 0.198(3)
H2_2 H 0.065(5) 1.238(3) 0.200(3)
O5A O 0.4415(3) 0.9900(3) 0.1106(2)
O6A O 1.1134(3) 0.9199(3) 0.0927(2)
O7A O 1.2083(3) 1.1555(3) -0.05605(19)
O7A_2 O 0.2083(3) 1.1555(3) -0.05605(19)
O8A O 0.1809(4) 1.4271(3) 0.0239(3)
Cl2 Cl 0.87670(19) 0.68196(14) -0.38771(10)
O12 O 0.9805(13) 0.6169(8) -0.4379(5)
O13 O 0.8779(6) 0.6371(4) -0.2922(3)
O14 O 0.7754(13) 0.6358(10) -0.4196(8)
O15 O 0.8294(10) 0.8102(5) -0.4128(5)
Cl3 Cl 0.31908(19) 0.77189(15) -0.36489(10)
O16 O 0.1932(8) 0.8558(7) -0.3743(6)
O17 O 0.4138(9) 0.8541(7) -0.4017(5)
O18 O 0.3486(6) 0.7183(5) -0.2704(3)
O19 O 0.3348(8) 0.6767(6) -0.4164(4)
loop_
_geom_bond_atom_site_label_1
_geom_bond_atom_site_label_2
_geom_bond_site_symmetry_1
_geom_bond_site_symmetry_2
Na1 O2 1_555 1_555
Na2 O1 1_555 1_555
Na3 O3 1_555 1_555
O1 H1 1_555 1_555
H2 O1 1_555 1_555
O2 Na2 1_555 1_555
H3 O2 1_555 1_555
H4 O2 1_555 1_555
O3 Na1 1_555 1_555
H5 O3 1_555 1_555
H6 O3 1_555 1_555
O4 Na3 1_555 1_555
H7 O4 1_555 1_555
H8 O4 1_555 1_555
N1 H9 1_555 1_555
C1 N1 1_555 1_555
O5 Na1 1_555 1_555
N2 C1 1_555 1_555
C2 N2 1_555 1_555
N3 C2 1_555 1_555
H10 N3 1_555 1_555
H11 N3 1_555 1_555
C3 C2 1_555 1_555
H12 C3 1_555 1_555
C4 N1 1_555 1_555
H13 C4 1_555 1_555
N4 H14 1_555 1_555
C5 N4 1_555 1_555
O6 Na1 1_555 1_555
N5 C5 1_555 1_555
C6 N5 1_555 1_555
N6 C6 1_555 1_555
H15 N6 1_555 1_555
H16 N6 1_555 1_555
C7 C6 1_555 1_555
H17 C7 1_555 1_555
C8 N4 1_555 1_555
H18 C8 1_555 1_555
N7 H19 1_555 1_555
C9 N7 1_555 1_555
O7 Na1 1_555 1_555
N8 C9 1_555 1_555
C10 N8 1_555 1_555
N9 C10 1_555 1_555
H20 N9 1_555 1_555
H21 N9 1_555 1_555
C11 C10 1_555 1_555
H22 C11 1_555 1_555
C12 N7 1_555 1_555
H23 C12 1_555 1_555
Cl1 O8 1_555 1_555
O8 Na3A_2 1_555 1_555
O9 Cl1 1_555 1_555
O10 Cl1 1_555 1_555
O11 Na2 1_555 1_555
Cl2 O12 1_555 1_555
O13 Cl2 1_555 1_555
O14 Cl2 1_555 1_555
O15 Cl2 1_555 1_555
Cl3 O16 1_555 1_555
O17 Cl3 1_555 1_555
O18 Cl3 1_555 1_555
O19 Cl3 1_555 1_555
Na1A O5 1_555 1_555
Na2A O6 1_555 1_555
Na3_2 O1 1_555 1_555
Na3A O5 1_555 1_555
O1_2 Na3 1_555 1_555
H1_2 O1_2 1_555 1_555
H2_2 O1_2 1_555 1_555
O5A Na1 1_555 1_555
O6A Na2 1_555 1_555
O7A Na2 1_555 1_555
O7A_2 Na3 1_555 1_555
O8A Na3 1_555 1_555
Na2 O6 1_555 1_555
Na3 O5A 1_555 1_555
C1 O5 1_555 1_555
C3 C4 1_555 1_555
C5 O6 1_555 1_555
C7 C8 1_555 1_555
C9 O7 1_555 1_555
O7 Na2A 1_555 1_555
O7 Na3A 1_555 1_555
C11 C12 1_555 1_555
Cl1 O11 1_555 1_555
Na1A O5A 1_555 1_555
Na1A O7A_2 1_555 1_555
Na2A O6A 1_555 1_555
Na3_2 O7A 1_555 1_555

#END
