
#######################################################################
#
#                 Cambridge Crystallographic Data Centre
#                                CCDC 
#
#######################################################################
#
# If this CIF has been generated from an entry in the Cambridge 
# Structural Database, then it will include bibliographic, chemical, 
# crystal, experimental, refinement or atomic coordinate data resulting 
# from the CCDC's data processing and validation procedures.
#
#######################################################################

data_ACIWUF
_symmetry_cell_setting           monoclinic
_symmetry_space_group_name_H-M   'P 2/c'
_symmetry_Int_Tables_number      13
_space_group_name_Hall           '-P 2yc'
loop_
_symmetry_equiv_pos_site_id
_symmetry_equiv_pos_as_xyz
1 x,y,z
2 -x,y,1/2-z
3 -x,-y,-z
4 x,-y,1/2+z
_cell_length_a                   13.0454(5)
_cell_length_b                   5.0255(10)
_cell_length_c                   13.777(2)
_cell_angle_alpha                90
_cell_angle_beta                 96.005(9)
_cell_angle_gamma                90
_cell_volume                     898.259
loop_
_atom_site_label
_atom_site_type_symbol
_atom_site_fract_x
_atom_site_fract_y
_atom_site_fract_z
Hg1 Hg 0.5000 -0.00379(4) 0.2500
N1 N 0.3710(2) 0.3202(6) 0.1847(2)
C1 C 0.3764(3) 0.4553(8) 0.1017(3)
C2 C 0.2970(3) 0.3840(7) 0.2413(2)
C3 C 0.2267(3) 0.5893(7) 0.2187(2)
C4 C 0.2347(3) 0.7307(8) 0.1333(3)
C5 C 0.1517(2) 0.6673(6) 0.2878(2)
C6 C 0.3094(3) 0.6608(8) 0.0736(3)
Cl1 Cl 0.58545(7) -0.1154(2) 0.11315(7)
N2 N 0.1162(3) 0.4652(5) 0.3398(2)
O1 O 0.1272(2) 0.9020(6) 0.2967(2)
C7 C 0.0563(3) 0.4904(6) 0.4193(3)
C8 C -0.0174(3) 0.2969(7) 0.4321(3)
C9 C 0.0733(3) 0.6953(7) 0.4879(3)
H1 H 0.4278 0.4082 0.0608
H2 H 0.2922 0.2844 0.2993
H3 H 0.1893 0.8748 0.1158
H4 H 0.3146 0.7530 0.0141
H5 H 0.1321 0.3027 0.3228
H6 H -0.0296 0.1583 0.3854
H7 H 0.1231 0.8289 0.4796
Hg1C Hg -0.5000 1.00379(4) 0.7500
N1B N -0.3710(2) 0.6798(6) 0.8153(2)
N1A N 0.6290(2) 0.3202(6) 0.3153(2)
C1B C -0.3764(3) 0.5447(8) 0.8983(3)
C2B C -0.2970(3) 0.6160(7) 0.7587(2)
C3B C -0.2267(3) 0.4107(7) 0.7813(2)
C4B C -0.2347(3) 0.2693(8) 0.8667(3)
C5B C -0.1517(2) 0.3327(6) 0.7122(2)
C6B C -0.3094(3) 0.3392(8) 0.9264(3)
Cl1A Cl 0.41455(7) -0.1154(2) 0.38685(7)
N2B N -0.1162(3) 0.5348(5) 0.6602(2)
O1B O -0.1272(2) 0.0980(6) 0.7033(2)
C7B C -0.0563(3) 0.5096(6) 0.5807(3)
C8B C 0.0174(3) 0.7031(7) 0.5679(3)
C9B C -0.0733(3) 0.3047(7) 0.5121(3)
H1B H -0.4278 0.5918 0.9392
H2B H -0.2922 0.7156 0.7007
H3B H -0.1893 0.1252 0.8842
H4B H -0.3146 0.2470 0.9859
H5B H -0.1321 0.6973 0.6772
H6B H 0.0296 0.8417 0.6146
H7B H -0.1231 0.1711 0.5204
loop_
_geom_bond_atom_site_label_1
_geom_bond_atom_site_label_2
_geom_bond_site_symmetry_1
_geom_bond_site_symmetry_2
Hg1 N1 1_555 1_555
N1 C1 1_555 1_555
C1 C6 1_555 1_555
C2 N1 1_555 1_555
C3 C2 1_555 1_555
C4 C3 1_555 1_555
C5 C3 1_555 1_555
C6 C4 1_555 1_555
Cl1 Hg1 1_555 1_555
N2 C5 1_555 1_555
O1 C5 1_555 1_555
C7 N2 1_555 1_555
C8 C7 1_555 1_555
C9 C7 1_555 1_555
H1 C1 1_555 1_555
H2 C2 1_555 1_555
H3 C4 1_555 1_555
H4 C6 1_555 1_555
H5 N2 1_555 1_555
H6 C8 1_555 1_555
H7 C9 1_555 1_555
Hg1C N1B 1_555 1_555
N1B C1B 1_555 1_555
N1A Hg1 1_555 1_555
C1B C6B 1_555 1_555
C2B N1B 1_555 1_555
C3B C2B 1_555 1_555
C4B C3B 1_555 1_555
C5B C3B 1_555 1_555
C6B C4B 1_555 1_555
Cl1A Hg1 1_555 1_555
N2B C5B 1_555 1_555
O1B C5B 1_555 1_555
C7B N2B 1_555 1_555
C8B C9 1_555 1_555
C9B C8 1_555 1_555
H1B C1B 1_555 1_555
H2B C2B 1_555 1_555
H3B C4B 1_555 1_555
H4B C6B 1_555 1_555
H5B N2B 1_555 1_555
H6B C8B 1_555 1_555
H7B C9B 1_555 1_555
C7B C8B 1_555 1_555
C7B C9B 1_555 1_555

#END
