
#######################################################################
#
#                 Cambridge Crystallographic Data Centre
#                                CCDC 
#
#######################################################################
#
# If this CIF has been generated from an entry in the Cambridge 
# Structural Database, then it will include bibliographic, chemical, 
# crystal, experimental, refinement or atomic coordinate data resulting 
# from the CCDC's data processing and validation procedures.
#
#######################################################################

data_ACIXAM
_symmetry_cell_setting           monoclinic
_symmetry_space_group_name_H-M   'P 21/n'
_symmetry_Int_Tables_number      14
_space_group_name_Hall           '-P 2yn'
loop_
_symmetry_equiv_pos_site_id
_symmetry_equiv_pos_as_xyz
1 x,y,z
2 1/2-x,1/2+y,1/2-z
3 -x,-y,-z
4 1/2+x,1/2-y,1/2+z
_cell_length_a                   8.3336(2)
_cell_length_b                   9.2373(2)
_cell_length_c                   11.4459(3)
_cell_angle_alpha                90
_cell_angle_beta                 94.207(5)
_cell_angle_gamma                90
_cell_volume                     878.731
loop_
_atom_site_label
_atom_site_type_symbol
_atom_site_fract_x
_atom_site_fract_y
_atom_site_fract_z
Hg1 Hg 0.0000 0.0000 1.0000
Cl1 Cl 0.03522(7) -0.25026(6) 1.04430(5)
N1 N 0.2670(3) 0.0052(1) 0.8927(2)
C1 C 0.3648(3) -0.1102(2) 0.9039(2)
C2 C 0.5128(3) -0.1158(2) 0.8589(2)
C3 C 0.5646(4) 0.0011(2) 0.7957(3)
C4 C 0.4647(3) 0.1219(2) 0.7836(2)
C5 C 0.3194(3) 0.1197(2) 0.8339(2)
C6 C 0.7259(4) -0.0147(2) 0.7472(2)
O1 O 0.8323(2) -0.0841(1) 0.8008(1)
N2 N 0.7428(2) 0.0478(2) 0.6412(2)
C7 C 0.8741(3) 0.0228(2) 0.5718(2)
C8 C 1.0303(4) 0.0025(2) 0.6212(3)
C9 C 0.8445(3) 0.0197(2) 0.4510(2)
H1 H 0.6417 0.0850 0.5923
H2 H 0.3297 -0.1923 0.9451
H3 H 0.5791 -0.1989 0.8709
H4 H 0.4962 0.2045 0.7415
H5 H 0.2530 0.2033 0.8267
H6 H 1.0514 0.0038 0.7039
H7 H 0.7380 0.0329 0.4173
Hg1_2 Hg 1.0000 0.0000 1.0000
Hg1_3 Hg 2.0000 0.0000 0.0000
Hg1_4 Hg 1.0000 0.0000 0.0000
Cl1B Cl -0.03522(7) 0.25026(6) 0.95570(5)
N1B N 1.7330(3) -0.0052(1) 0.1073(2)
N1B_2 N -0.2670(3) -0.0052(1) 1.1073(2)
C1B C 1.6352(3) 0.1102(2) 0.0961(2)
C2B C 1.4872(3) 0.1158(2) 0.1411(2)
C3B C 1.4354(4) -0.0011(2) 0.2043(3)
C4B C 1.5353(3) -0.1219(2) 0.2164(2)
C5B C 1.6806(3) -0.1197(2) 0.1661(2)
C6B C 1.2741(4) 0.0147(2) 0.2528(2)
O1B O 1.1677(2) 0.0841(1) 0.1992(1)
O1_2 O -0.1677(2) -0.0841(1) 0.8008(1)
O1B_2 O 0.1677(2) 0.0841(1) 1.1992(1)
N2B N 1.2572(2) -0.0478(2) 0.3588(2)
C7B C 1.1259(3) -0.0228(2) 0.4282(2)
C8B C 0.9697(4) -0.0025(2) 0.3788(3)
C9B C 1.1555(3) -0.0197(2) 0.5490(2)
H1B H 1.3583 -0.0850 0.4077
H2B H 1.6703 0.1923 0.0549
H3B H 1.4209 0.1989 0.1291
H4B H 1.5038 -0.2045 0.2585
H5B H 1.7470 -0.2033 0.1733
H6B H 0.9486 -0.0038 0.2961
H7B H 1.2620 -0.0329 0.5827
loop_
_geom_bond_atom_site_label_1
_geom_bond_atom_site_label_2
_geom_bond_site_symmetry_1
_geom_bond_site_symmetry_2
Hg1 Cl1 1_555 1_555
N1 Hg1 1_555 1_555
C1 N1 1_555 1_555
C2 C1 1_555 1_555
C3 C2 1_555 1_555
C4 C3 1_555 1_555
C5 N1 1_555 1_555
C6 C3 1_555 1_555
O1 C6 1_555 1_555
N2 C6 1_555 1_555
C7 N2 1_555 1_555
C8 C7 1_555 1_555
C9 C7 1_555 1_555
H1 N2 1_555 1_555
H2 C1 1_555 1_555
H3 C2 1_555 1_555
H4 C4 1_555 1_555
H5 C5 1_555 1_555
H6 C8 1_555 1_555
H7 C9 1_555 1_555
Hg1_2 O1 1_555 1_555
Hg1_3 N1B 1_555 1_555
Hg1_4 O1B 1_555 1_555
Cl1B Hg1 1_555 1_555
N1B C1B 1_555 1_555
N1B_2 Hg1 1_555 1_555
C1B C2B 1_555 1_555
C2B C3B 1_555 1_555
C3B C4B 1_555 1_555
C4B C5B 1_555 1_555
C5B N1B 1_555 1_555
C6B C3B 1_555 1_555
O1B C6B 1_555 1_555
O1_2 Hg1 1_555 1_555
O1B_2 Hg1 1_555 1_555
N2B C6B 1_555 1_555
C7B N2B 1_555 1_555
C8B C9 1_555 1_555
C9B C8 1_555 1_555
H1B N2B 1_555 1_555
H2B C1B 1_555 1_555
H3B C2B 1_555 1_555
H4B C4B 1_555 1_555
H5B C5B 1_555 1_555
H6B C8B 1_555 1_555
H7B C9B 1_555 1_555
C4 C5 1_555 1_555
C7B C8B 1_555 1_555
C7B C9B 1_555 1_555

#END
