
#######################################################################
#
#                 Cambridge Crystallographic Data Centre
#                                CCDC 
#
#######################################################################
#
# If this CIF has been generated from an entry in the Cambridge 
# Structural Database, then it will include bibliographic, chemical, 
# crystal, experimental, refinement or atomic coordinate data resulting 
# from the CCDC's data processing and validation procedures.
#
#######################################################################

data_ACIYIV
_symmetry_cell_setting           monoclinic
_symmetry_space_group_name_H-M   'C 2/m'
_symmetry_Int_Tables_number      12
_space_group_name_Hall           '-C 2y'
loop_
_symmetry_equiv_pos_site_id
_symmetry_equiv_pos_as_xyz
1 x,y,z
2 1/2+x,1/2+y,z
3 -x,y,-z
4 1/2-x,1/2+y,-z
5 -x,-y,-z
6 1/2-x,1/2-y,-z
7 x,-y,z
8 1/2+x,1/2-y,z
_cell_length_a                   18.921(8)
_cell_length_b                   9.708(4)
_cell_length_c                   12.432(5)
_cell_angle_alpha                90
_cell_angle_beta                 128.173(8)
_cell_angle_gamma                90
_cell_volume                     1795.23
loop_
_atom_site_label
_atom_site_type_symbol
_atom_site_fract_x
_atom_site_fract_y
_atom_site_fract_z
O4 O 0.285(6) 0.5000 0.942(11)
O5 O 0.360(6) 0.5000 0.993(10)
C1 C 0.164(3) 0.5000 0.578(3)
C2 C 0.260(2) 0.5000 0.621(3)
C3 C 0.3022(15) 0.379(3) 0.635(2)
H1 H 0.2734 0.2961 0.6213
C4 C 0.3860(15) 0.380(3) 0.670(3)
H2 H 0.4128 0.2968 0.6757
C5 C 0.431(3) 0.5000 0.696(4)
H3 H 0.4907 0.5000 0.7300
C6 C 0.0747(15) 0.0703(12) 0.602(2)
C7 C 0.161(7) 0.153(13) 0.721(10)
H4 H 0.1996 0.1688 0.6959
H5 H 0.1931 0.1011 0.8040
H6 H 0.1433 0.2402 0.7336
C8 C 0.074(4) 0.5000 0.760(7)
C9 C 0.114(3) 0.5000 0.908(5)
C10 C 0.132(3) 0.387(2) 0.970(5)
H7 H 0.1191 0.3038 0.9243
C11 C 0.167(4) 0.387(2) 1.097(5)
H8 H 0.1803 0.3038 1.1433
C12 C 0.183(5) 0.5000 1.159(6)
H9 H 0.2075 0.5000 1.2510
N1 N 0.0000 0.141(3) 0.5000
O1 O 0.1265(11) 0.383(2) 0.5562(16)
O2 O 0.058(3) 0.381(4) 0.705(2)
Rh1 Rh 0.0000 0.3767(4) 0.5000
C4F C 0.3860(15) 0.620(3) 0.670(3)
C3F C 0.3022(15) 0.621(3) 0.635(2)
H1F H 0.2734 0.7039 0.6213
H2F H 0.4128 0.7032 0.6757
O1F O 0.1265(11) 0.617(2) 0.5562(16)
C6F C 0.0747(15) -0.0703(12) 0.602(2)
C7F C 0.161(7) -0.153(13) 0.721(10)
H4F H 0.1996 -0.1688 0.6959
H5F H 0.1931 -0.1011 0.8040
H6F H 0.1433 -0.2402 0.7336
N1F N 0.0000 -0.141(3) 0.5000
C6D C -0.0747(15) -0.0703(12) 0.398(2)
C6B C -0.0747(15) 0.0703(12) 0.398(2)
C7B C -0.161(7) 0.153(13) 0.279(10)
H4B H -0.1996 0.1688 0.3041
H5B H -0.1931 0.1011 0.1960
H6B H -0.1433 0.2402 0.2664
C7D C -0.161(7) -0.153(13) 0.279(10)
H4D H -0.1996 -0.1688 0.3041
H5D H -0.1931 -0.1011 0.1960
H6D H -0.1433 -0.2402 0.2664
C11F C 0.167(4) 0.613(2) 1.097(5)
C10F C 0.132(3) 0.613(2) 0.970(5)
H8F H 0.1803 0.6962 1.1433
H7F H 0.1191 0.6962 0.9243
O2F O 0.058(3) 0.619(4) 0.705(2)
C1B C -0.164(3) 0.5000 0.422(3)
C2B C -0.260(2) 0.5000 0.379(3)
C3B C -0.3022(15) 0.379(3) 0.365(2)
H1B H -0.2734 0.2961 0.3787
C4B C -0.3860(15) 0.380(3) 0.330(3)
H2B H -0.4128 0.2968 0.3243
C5B C -0.431(3) 0.5000 0.304(4)
H3B H -0.4907 0.5000 0.2700
O1B O -0.1265(11) 0.383(2) 0.4438(16)
C4D C -0.3860(15) 0.620(3) 0.330(3)
C3D C -0.3022(15) 0.621(3) 0.365(2)
H1D H -0.2734 0.7039 0.3787
H2D H -0.4128 0.7032 0.3243
O1D O -0.1265(11) 0.617(2) 0.4438(16)
C8B C -0.074(4) 0.5000 0.240(7)
C9B C -0.114(3) 0.5000 0.092(5)
C10B C -0.132(3) 0.387(2) 0.030(5)
H7B H -0.1191 0.3038 0.0757
C11B C -0.167(4) 0.387(2) -0.097(5)
H8B H -0.1803 0.3038 -0.1433
C12B C -0.183(5) 0.5000 -0.159(6)
H9B H -0.2075 0.5000 -0.2510
O2B O -0.058(3) 0.381(4) 0.295(2)
C11D C -0.167(4) 0.613(2) -0.097(5)
C10D C -0.132(3) 0.613(2) 0.030(5)
H8D H -0.1803 0.6962 -0.1433
H7D H -0.1191 0.6962 0.0757
O2D O -0.058(3) 0.619(4) 0.295(2)
Rh1F Rh 0.0000 -0.3767(4) 0.5000
Rh1D Rh 0.0000 0.6233(4) 0.5000
O1D_2 O -0.1265(11) -0.383(2) 0.4438(16)
O1F_2 O 0.1265(11) -0.383(2) 0.5562(16)
O2D_2 O -0.058(3) -0.381(4) 0.295(2)
O2F_2 O 0.058(3) -0.381(4) 0.705(2)
Rh1_2 Rh 0.0000 -0.6233(4) 0.5000
C13? C 0.055(4) 0.5000 0.765(6)
C14? C 0.075(2) 0.5000 0.901(4)
C15? C 0.083(2) 0.387(2) 0.959(4)
H10? H 0.0746 0.3040 0.9150
C16? C 0.104(3) 0.387(2) 1.078(4)
H11? H 0.1095 0.3040 1.1199
C17? C 0.116(4) 0.5000 1.138(5)
H12? H 0.1337 0.5000 1.2263
O3? O 0.042(3) 0.390(3) 0.697(2)
loop_
_geom_bond_atom_site_label_1
_geom_bond_atom_site_label_2
_geom_bond_site_symmetry_1
_geom_bond_site_symmetry_2
C1 C2 1_555 1_555
C2 C3 1_555 1_555
C3 H1 1_555 1_555
C4 C3 1_555 1_555
H2 C4 1_555 1_555
C5 C4 1_555 1_555
H3 C5 1_555 1_555
C6 C7 1_555 1_555
C7 H4 1_555 1_555
H5 C7 1_555 1_555
H6 C7 1_555 1_555
C8 C9 1_555 1_555
C9 C10 1_555 1_555
C10 H7 1_555 1_555
C11 C10 1_555 1_555
H8 C11 1_555 1_555
C12 C11 1_555 1_555
H9 C12 1_555 1_555
N1 C6 1_555 1_555
O1 C1 1_555 1_555
O2 C8 1_555 1_555
O4 O5 1_555 1_555
Rh1 N1 1_555 1_555
C4F C5 1_555 1_555
C3F C2 1_555 1_555
H1F C3F 1_555 1_555
H2F C4F 1_555 1_555
O1F C1 1_555 1_555
C6F C6 1_555 1_555
C7F C6F 1_555 1_555
H4F C7F 1_555 1_555
H5F C7F 1_555 1_555
H6F C7F 1_555 1_555
N1F C6F 1_555 1_555
C6D N1F 1_555 1_555
C6B N1 1_555 1_555
C7B C6B 1_555 1_555
H4B C7B 1_555 1_555
H5B C7B 1_555 1_555
H6B C7B 1_555 1_555
C7D C6D 1_555 1_555
H4D C7D 1_555 1_555
H5D C7D 1_555 1_555
H6D C7D 1_555 1_555
C11F C12 1_555 1_555
C10F C9 1_555 1_555
H8F C11F 1_555 1_555
H7F C10F 1_555 1_555
O2F C8 1_555 1_555
C1B C2B 1_555 1_555
C2B C3B 1_555 1_555
C3B H1B 1_555 1_555
C4B C3B 1_555 1_555
H2B C4B 1_555 1_555
C5B C4B 1_555 1_555
H3B C5B 1_555 1_555
O1B Rh1 1_555 1_555
C4D C5B 1_555 1_555
C3D C2B 1_555 1_555
H1D C3D 1_555 1_555
H2D C4D 1_555 1_555
O1D C1B 1_555 1_555
C8B C9B 1_555 1_555
C9B C10B 1_555 1_555
C10B H7B 1_555 1_555
C11B C10B 1_555 1_555
H8B C11B 1_555 1_555
C12B C11B 1_555 1_555
H9B C12B 1_555 1_555
O2B Rh1 1_555 1_555
C11D C12B 1_555 1_555
C10D C9B 1_555 1_555
H8D C11D 1_555 1_555
H7D C10D 1_555 1_555
O2D C8B 1_555 1_555
Rh1F N1F 1_555 1_555
Rh1D Rh1 1_555 1_555
O1D_2 Rh1F 1_555 1_555
O1F_2 Rh1F 1_555 1_555
O2D_2 Rh1F 1_555 1_555
O2F_2 Rh1F 1_555 1_555
Rh1_2 Rh1F 1_555 1_555
O1 Rh1 1_555 1_555
O2 Rh1 1_555 1_555
C4F C3F 1_555 1_555
O1F Rh1D 1_555 1_555
C6D C6B 1_555 1_555
C11F C10F 1_555 1_555
O2F Rh1D 1_555 1_555
C1B O1B 1_555 1_555
C4D C3D 1_555 1_555
O1D Rh1D 1_555 1_555
C8B O2B 1_555 1_555
C11D C10D 1_555 1_555
O2D Rh1D 1_555 1_555

#END
