
#######################################################################
#
#                 Cambridge Crystallographic Data Centre
#                                CCDC 
#
#######################################################################
#
# If this CIF has been generated from an entry in the Cambridge 
# Structural Database, then it will include bibliographic, chemical, 
# crystal, experimental, refinement or atomic coordinate data resulting 
# from the CCDC's data processing and validation procedures.
#
#######################################################################

data_ACIYER06
_symmetry_cell_setting           triclinic
_symmetry_space_group_name_H-M   'P -1'
_symmetry_Int_Tables_number      2
_space_group_name_Hall           '-P 1'
loop_
_symmetry_equiv_pos_site_id
_symmetry_equiv_pos_as_xyz
1 x,y,z
2 -x,-y,-z
_cell_length_a                   9.599(3)
_cell_length_b                   10.531(3)
_cell_length_c                   10.748(4)
_cell_angle_alpha                71.525(7)
_cell_angle_beta                 63.500(5)
_cell_angle_gamma                62.985(6)
_cell_volume                     857.303
loop_
_atom_site_label
_atom_site_type_symbol
_atom_site_fract_x
_atom_site_fract_y
_atom_site_fract_z
O7 O 0.5705(11) 0.478(4) 0.989(4)
O7A O 0.4295(11) 0.522(4) 1.011(4)
O8 O 0.685(4) 0.135(3) 1.012(3)
O9 O 0.787(5) 0.150(5) 0.906(4)
C1 C 0.8316(14) 1.2557(12) 0.5797(13)
C2 C 0.7400(13) 1.4050(12) 0.6160(13)
C3 C 0.5714(14) 1.4739(12) 0.6342(14)
H1 H 0.5156 1.4254 0.6236
C4 C 0.4835(18) 1.6128(13) 0.6677(15)
H2 H 0.3684 1.6608 0.6792
C5 C 0.5694(16) 1.6798(15) 0.6838(16)
H3 H 0.5107 1.7742 0.7086
C6 C 0.7377(15) 1.6126(13) 0.6648(15)
H4 H 0.7944 1.6612 0.6742
C7 C 0.8224(16) 1.4742(12) 0.6322(14)
H5 H 0.9375 1.4263 0.6208
C8 C 0.6496(15) 0.9499(12) 0.3985(13)
C9 C 0.5030(14) 0.9488(12) 0.4005(14)
C10 C 0.798(5) 0.897(4) 0.266(4)
H6 H 0.8752 0.9467 0.2380
H7 H 0.7581 0.9172 0.1901
H8 H 0.8575 0.7929 0.2854
C11 C 0.538(6) 0.895(4) 0.269(4)
H9 H 0.4575 0.9640 0.2236
H10 H 0.6521 0.8861 0.2028
H11 H 0.5278 0.8010 0.2948
C12 C 0.936(3) 0.8773(10) 0.7579(18)
C13 C 0.886(2) 0.8047(12) 0.9099(15)
C14 C 0.741(2) 0.7776(15) 0.968(2)
H12 H 0.6742 0.8041 0.9140
C15 C 0.694(2) 0.7129(19) 1.104(2)
H13 H 0.5931 0.6943 1.1441
C16 C 0.790(3) 0.675(2) 1.1807(18)
H14 H 0.7573 0.6299 1.2752
C17 C 0.934(3) 0.7015(19) 1.124(2)
H15 H 1.0013 0.6749 1.1778
C18 C 0.982(2) 0.7666(16) 0.988(2)
H16 H 1.0825 0.7853 0.9473
N1 N 0.6419(14) 0.9971(13) 0.5008(13)
O1 O 0.7514(9) 1.1972(8) 0.5641(9)
O2 O 0.9867(9) 1.1960(8) 0.5642(9)
O3 O 0.834(3) 0.9055(9) 0.7029(12)
O4 O 1.065(2) 0.9035(10) 0.7037(12)
Rh1 Rh 0.87546(14) 1.00086(12) 0.49956(13)
C1A C 1.1684(14) 0.7443(12) 0.4203(13)
C2A C 1.2600(13) 0.5950(12) 0.3840(13)
C3A C 1.4286(14) 0.5261(12) 0.3658(14)
H1A H 1.4844 0.5746 0.3764
C4A C 1.5165(18) 0.3872(13) 0.3323(15)
H2A H 1.6316 0.3392 0.3208
C5A C 1.4306(16) 0.3202(15) 0.3162(16)
H3A H 1.4893 0.2258 0.2914
C6A C 1.2623(15) 0.3874(13) 0.3352(15)
H4A H 1.2056 0.3388 0.3258
C7A C 1.1776(16) 0.5258(12) 0.3678(14)
H5A H 1.0625 0.5737 0.3792
C8A C 0.3504(15) 1.0501(12) 0.6015(13)
C9A C 0.4970(14) 1.0512(12) 0.5995(14)
C10A C 0.202(5) 1.103(4) 0.734(4)
H6A H 0.1248 1.0533 0.7620
H7A H 0.2419 1.0828 0.8099
H8A H 0.1425 1.2071 0.7146
C11A C 0.462(6) 1.105(4) 0.731(4)
H9A H 0.5425 1.0360 0.7764
H10A H 0.3479 1.1139 0.7972
H11A H 0.4722 1.1990 0.7052
C12A C 1.064(3) 1.1227(10) 0.2421(18)
C13A C 1.114(2) 1.1953(12) 0.0901(15)
C14A C 1.259(2) 1.2224(15) 0.032(2)
H12A H 1.3258 1.1959 0.0860
C15A C 1.306(2) 1.2871(19) -0.104(2)
H13A H 1.4069 1.3057 -0.1441
C16A C 1.210(3) 1.325(2) -0.1807(18)
H14A H 1.2427 1.3701 -0.2752
C17A C 1.066(3) 1.2985(19) -0.124(2)
H15A H 0.9987 1.3251 -0.1778
C18A C 1.018(2) 1.2334(16) 0.012(2)
H16A H 0.9175 1.2147 0.0527
N1A N 0.3581(14) 1.0029(13) 0.4992(13)
O1A O 1.2486(9) 0.8028(8) 0.4359(9)
O1A_2 O 0.2486(9) 0.8028(8) 0.4359(9)
O2A O 1.0133(9) 0.8040(8) 0.4358(9)
O2_2 O -0.0133(9) 1.1960(8) 0.5642(9)
O3A O 1.166(3) 1.0945(9) 0.2971(12)
O3A_2 O 0.166(3) 1.0945(9) 0.2971(12)
O4A O 0.935(2) 1.0965(10) 0.2963(12)
O4_2 O 0.065(2) 0.9035(10) 0.7037(12)
Rh1A Rh 0.12454(14) 0.99914(12) 0.50044(13)
Rh1A_2 Rh 1.12454(14) 0.99914(12) 0.50044(13)
Rh1_2 Rh -0.12454(14) 1.00086(12) 0.49956(13)
C19? C 0.947(3) 0.8480(13) 0.7444(19)
C20? C 0.928(3) 0.7573(14) 0.8896(16)
C21? C 0.795(3) 0.7151(18) 0.958(2)
H17? H 0.7156 0.7422 0.9161
C22? C 0.776(3) 0.634(2) 1.087(2)
H18? H 0.6821 0.6051 1.1343
C23? C 0.887(3) 0.595(2) 1.148(2)
H19? H 0.8726 0.5392 1.2387
C24? C 1.020(3) 0.637(2) 1.080(2)
H20? H 1.0997 0.6100 1.1230
C25? C 1.041(3) 0.7175(18) 0.951(2)
H21? H 1.1348 0.7462 0.9041
O5? O 0.841(4) 0.8824(11) 0.6921(13)
O6? O 1.070(4) 0.8810(11) 0.6917(14)
O10? O 0.656(7) 0.150(5) 0.915(5)
loop_
_geom_bond_atom_site_label_1
_geom_bond_atom_site_label_2
_geom_bond_site_symmetry_1
_geom_bond_site_symmetry_2
C1 C2 1_555 1_555
C2 C3 1_555 1_555
C3 H1 1_555 1_555
C4 C3 1_555 1_555
H2 C4 1_555 1_555
C5 C4 1_555 1_555
H3 C5 1_555 1_555
C6 C5 1_555 1_555
H4 C6 1_555 1_555
C7 C2 1_555 1_555
H5 C7 1_555 1_555
C8 C9 1_555 1_555
C9 C11 1_555 1_555
C10 C8 1_555 1_555
H6 C10 1_555 1_555
H7 C10 1_555 1_555
H8 C10 1_555 1_555
C11 H9 1_555 1_555
H10 C11 1_555 1_555
H11 C11 1_555 1_555
C12 C13 1_555 1_555
C13 C14 1_555 1_555
C14 H12 1_555 1_555
C15 C14 1_555 1_555
H13 C15 1_555 1_555
C16 C15 1_555 1_555
H14 C16 1_555 1_555
C17 C16 1_555 1_555
H15 C17 1_555 1_555
C18 C13 1_555 1_555
H16 C18 1_555 1_555
N1 C8 1_555 1_555
O1 C1 1_555 1_555
O2 C1 1_555 1_555
O3 C12 1_555 1_555
O4 C12 1_555 1_555
O7 O7A 1_555 1_555
O8 O9 1_555 1_555
Rh1 N1 1_555 1_555
C1A C2A 1_555 1_555
C2A C3A 1_555 1_555
C3A H1A 1_555 1_555
C4A C3A 1_555 1_555
H2A C4A 1_555 1_555
C5A C4A 1_555 1_555
H3A C5A 1_555 1_555
C6A C5A 1_555 1_555
H4A C6A 1_555 1_555
C7A C2A 1_555 1_555
H5A C7A 1_555 1_555
C8A C9A 1_555 1_555
C9A N1 1_555 1_555
C10A C8A 1_555 1_555
H6A C10A 1_555 1_555
H7A C10A 1_555 1_555
H8A C10A 1_555 1_555
C11A C9A 1_555 1_555
H9A C11A 1_555 1_555
H10A C11A 1_555 1_555
H11A C11A 1_555 1_555
C12A C13A 1_555 1_555
C13A C14A 1_555 1_555
C14A H12A 1_555 1_555
C15A C14A 1_555 1_555
H13A C15A 1_555 1_555
C16A C15A 1_555 1_555
H14A C16A 1_555 1_555
C17A C16A 1_555 1_555
H15A C17A 1_555 1_555
C18A C13A 1_555 1_555
H16A C18A 1_555 1_555
N1A C9 1_555 1_555
O1A C1A 1_555 1_555
O1A_2 Rh1A 1_555 1_555
O2A Rh1 1_555 1_555
O2_2 Rh1A 1_555 1_555
O3A C12A 1_555 1_555
O3A_2 Rh1A 1_555 1_555
O4A Rh1 1_555 1_555
O4_2 Rh1A 1_555 1_555
Rh1A N1A 1_555 1_555
Rh1A_2 O2 1_555 1_555
Rh1_2 Rh1A 1_555 1_555
C6 C7 1_555 1_555
C17 C18 1_555 1_555
O1 Rh1 1_555 1_555
O3 Rh1 1_555 1_555
O4 Rh1A_2 1_555 1_555
Rh1 Rh1A_2 1_555 1_555
C1A O2A 1_555 1_555
C6A C7A 1_555 1_555
C8A N1A 1_555 1_555
C12A O4A 1_555 1_555
C17A C18A 1_555 1_555
O1A Rh1A_2 1_555 1_555
O3A Rh1A_2 1_555 1_555

#END
