
#######################################################################
#
#                 Cambridge Crystallographic Data Centre
#                                CCDC 
#
#######################################################################
#
# If this CIF has been generated from an entry in the Cambridge 
# Structural Database, then it will include bibliographic, chemical, 
# crystal, experimental, refinement or atomic coordinate data resulting 
# from the CCDC's data processing and validation procedures.
#
#######################################################################

data_ACIYER07
_symmetry_cell_setting           triclinic
_symmetry_space_group_name_H-M   'P -1'
_symmetry_Int_Tables_number      2
_space_group_name_Hall           '-P 1'
loop_
_symmetry_equiv_pos_site_id
_symmetry_equiv_pos_as_xyz
1 x,y,z
2 -x,-y,-z
_cell_length_a                   9.597(5)
_cell_length_b                   10.532(5)
_cell_length_c                   10.624(5)
_cell_angle_alpha                72.586(9)
_cell_angle_beta                 63.552(9)
_cell_angle_gamma                63.392(10)
_cell_volume                     852.909
loop_
_atom_site_label
_atom_site_type_symbol
_atom_site_fract_x
_atom_site_fract_y
_atom_site_fract_z
O7 O 0.5616(17) 0.501(3) 0.9938(18)
O7A O 0.4384(17) 0.499(3) 1.0062(18)
O8 O 0.725(3) 0.148(3) 0.921(3)
O9 O 0.601(3) 0.132(3) 0.985(3)
C1 C 1.1695(15) 0.7445(13) 0.4196(13)
C2 C 1.2682(16) 0.5960(14) 0.3820(13)
C3 C 1.4394(15) 0.5308(13) 0.3623(13)
H1 H 1.4937 0.5817 0.3719
C4 C 1.5276(17) 0.3925(14) 0.3288(14)
H2 H 1.6439 0.3493 0.3127
C5 C 1.4488(17) 0.3171(15) 0.3187(14)
H3 H 1.5107 0.2221 0.2949
C6 C 1.2786(17) 0.3792(15) 0.3432(15)
H4 H 1.2238 0.3251 0.3395
C7 C 1.1892(17) 0.5179(14) 0.3727(14)
H5 H 1.0736 0.5606 0.3866
C8 C 0.6511(16) 0.9418(13) 0.4021(14)
C9 C 0.5081(16) 0.9507(13) 0.3913(13)
C10 C 0.790(6) 0.872(4) 0.271(4)
H6 H 0.8554 0.9331 0.2149
H7 H 0.7401 0.8610 0.2143
H8 H 0.8630 0.7782 0.3008
C11 C 0.544(5) 0.904(4) 0.254(4)
H9 H 0.6651 0.8695 0.2006
H10 H 0.5035 0.8262 0.2763
H11 H 0.4871 0.9848 0.1975
C12 C 1.055(3) 1.124(2) 0.240(3)
C13 C 1.071(2) 1.199(2) 0.091(2)
C14 C 1.195(3) 1.254(3) 0.023(2)
H12 H 1.2666 1.2420 0.0687
C15 C 1.216(3) 1.327(3) -0.112(2)
H13 H 1.2989 1.3693 -0.1573
C16 C 1.117(3) 1.338(3) -0.179(2)
H14 H 1.1316 1.3882 -0.2720
C17 C 0.998(3) 1.277(3) -0.113(2)
H15 H 0.9289 1.2866 -0.1598
C18 C 0.979(3) 1.204(3) 0.020(2)
H16 H 0.9023 1.1555 0.0630
N1 N 0.6429(14) 0.9910(12) 0.5088(12)
O1 O 1.2512(10) 0.8072(9) 0.4302(9)
O2 O 1.0157(10) 0.7997(9) 0.4378(9)
O3 O 1.156(4) 1.106(3) 0.2963(17)
O4 O 0.932(3) 1.085(3) 0.286(3)
Rh1 Rh 0.87596(14) 0.99467(13) 0.50446(13)
C1A C 0.8305(15) 1.2555(13) 0.5804(13)
C2A C 0.7318(16) 1.4040(14) 0.6180(13)
C3A C 0.5606(15) 1.4692(13) 0.6377(13)
H1A H 0.5063 1.4183 0.6281
C4A C 0.4724(17) 1.6075(14) 0.6712(14)
H2A H 0.3561 1.6507 0.6873
C5A C 0.5512(17) 1.6829(15) 0.6813(14)
H3A H 0.4893 1.7779 0.7051
C6A C 0.7214(17) 1.6208(15) 0.6568(15)
H4A H 0.7762 1.6749 0.6605
C7A C 0.8108(17) 1.4821(14) 0.6273(14)
H5A H 0.9264 1.4394 0.6134
C8A C 0.3489(16) 1.0582(13) 0.5979(14)
C9A C 0.4919(16) 1.0493(13) 0.6087(13)
C10A C 0.210(6) 1.128(4) 0.729(4)
H6A H 0.1446 1.0669 0.7851
H7A H 0.2599 1.1390 0.7857
H8A H 0.1370 1.2218 0.6992
C11A C 0.456(5) 1.096(4) 0.746(4)
H9A H 0.3349 1.1305 0.7994
H10A H 0.4965 1.1738 0.7237
H11A H 0.5129 1.0152 0.8025
C12A C 0.945(3) 0.876(2) 0.760(3)
C13A C 0.929(2) 0.801(2) 0.909(2)
C14A C 0.805(3) 0.746(3) 0.977(2)
H12A H 0.7334 0.7580 0.9313
C15A C 0.784(3) 0.673(3) 1.112(2)
H13A H 0.7011 0.6307 1.1573
C16A C 0.883(3) 0.662(3) 1.179(2)
H14A H 0.8684 0.6118 1.2720
C17A C 1.002(3) 0.723(3) 1.113(2)
H15A H 1.0711 0.7134 1.1598
C18A C 1.021(3) 0.796(3) 0.980(2)
H16A H 1.0977 0.8445 0.9370
N1A N 0.3571(14) 1.0090(12) 0.4912(12)
N1A_2 N 1.3571(14) 1.0090(12) 0.4912(12)
O1A O 0.7488(10) 1.1928(9) 0.5698(9)
O2A O 0.9843(10) 1.2003(9) 0.5622(9)
O3A O 0.844(4) 0.894(3) 0.7037(17)
O4A O 1.068(3) 0.915(3) 0.714(3)
Rh1A Rh 1.12404(14) 1.00533(13) 0.49554(13)
Rh1A_2 Rh 0.12404(14) 1.00533(13) 0.49554(13)
C19? C 0.953(4) 0.869(3) 0.755(3)
C20? C 0.934(3) 0.769(2) 0.892(3)
C21? C 0.829(3) 0.697(3) 0.948(3)
H17? H 0.7586 0.7106 0.8996
C22? C 0.821(4) 0.604(3) 1.070(3)
H18? H 0.7504 0.5509 1.1024
C23? C 0.910(4) 0.586(4) 1.147(4)
H19? H 0.9035 0.5226 1.2329
C24? C 1.009(4) 0.665(4) 1.096(4)
H20? H 1.0668 0.6622 1.1507
C25? C 1.029(4) 0.752(4) 0.960(4)
H21? H 1.1089 0.7958 0.9199
O5? O 0.846(5) 0.893(3) 0.7031(18)
O6? O 1.081(4) 0.904(3) 0.684(3)
loop_
_geom_bond_atom_site_label_1
_geom_bond_atom_site_label_2
_geom_bond_site_symmetry_1
_geom_bond_site_symmetry_2
C1 C2 1_555 1_555
C2 C3 1_555 1_555
C3 H1 1_555 1_555
C4 C3 1_555 1_555
H2 C4 1_555 1_555
C5 C4 1_555 1_555
H3 C5 1_555 1_555
C6 C5 1_555 1_555
H4 C6 1_555 1_555
C7 C2 1_555 1_555
H5 C7 1_555 1_555
C8 C9 1_555 1_555
C9 C11 1_555 1_555
C10 C8 1_555 1_555
H6 C10 1_555 1_555
H7 C10 1_555 1_555
H8 C10 1_555 1_555
C11 H9 1_555 1_555
H10 C11 1_555 1_555
H11 C11 1_555 1_555
C12 C13 1_555 1_555
C13 C14 1_555 1_555
C14 H12 1_555 1_555
C15 C14 1_555 1_555
H13 C15 1_555 1_555
C16 C15 1_555 1_555
H14 C16 1_555 1_555
C17 C16 1_555 1_555
H15 C17 1_555 1_555
C18 C13 1_555 1_555
H16 C18 1_555 1_555
N1 C8 1_555 1_555
O1 C1 1_555 1_555
O2 C1 1_555 1_555
O3 C12 1_555 1_555
O4 C12 1_555 1_555
O7 O7A 1_555 1_555
O8 O9 1_555 1_555
Rh1 N1 1_555 1_555
C1A C2A 1_555 1_555
C2A C3A 1_555 1_555
C3A H1A 1_555 1_555
C4A C3A 1_555 1_555
H2A C4A 1_555 1_555
C5A C4A 1_555 1_555
H3A C5A 1_555 1_555
C6A C5A 1_555 1_555
H4A C6A 1_555 1_555
C7A C2A 1_555 1_555
H5A C7A 1_555 1_555
C8A C9A 1_555 1_555
C9A N1 1_555 1_555
C10A C8A 1_555 1_555
H6A C10A 1_555 1_555
H7A C10A 1_555 1_555
H8A C10A 1_555 1_555
C11A C9A 1_555 1_555
H9A C11A 1_555 1_555
H10A C11A 1_555 1_555
H11A C11A 1_555 1_555
C12A C13A 1_555 1_555
C13A C14A 1_555 1_555
C14A H12A 1_555 1_555
C15A C14A 1_555 1_555
H13A C15A 1_555 1_555
C16A C15A 1_555 1_555
H14A C16A 1_555 1_555
C17A C16A 1_555 1_555
H15A C17A 1_555 1_555
C18A C13A 1_555 1_555
H16A C18A 1_555 1_555
N1A C9 1_555 1_555
N1A_2 Rh1A 1_555 1_555
O1A Rh1 1_555 1_555
O2A C1A 1_555 1_555
O3A Rh1 1_555 1_555
O4A C12A 1_555 1_555
Rh1A O1 1_555 1_555
Rh1A_2 N1A 1_555 1_555
C6 C7 1_555 1_555
C17 C18 1_555 1_555
O2 Rh1 1_555 1_555
O3 Rh1A 1_555 1_555
O4 Rh1 1_555 1_555
Rh1 Rh1A 1_555 1_555
C1A O1A 1_555 1_555
C6A C7A 1_555 1_555
C8A N1A 1_555 1_555
C12A O3A 1_555 1_555
C17A C18A 1_555 1_555
O2A Rh1A 1_555 1_555
O4A Rh1A 1_555 1_555

#END
