
#######################################################################
#
#                 Cambridge Crystallographic Data Centre
#                                CCDC 
#
#######################################################################
#
# If this CIF has been generated from an entry in the Cambridge 
# Structural Database, then it will include bibliographic, chemical, 
# crystal, experimental, refinement or atomic coordinate data resulting 
# from the CCDC's data processing and validation procedures.
#
#######################################################################

data_ACIYER08
_symmetry_cell_setting           monoclinic
_symmetry_space_group_name_H-M   'C 2/m'
_symmetry_Int_Tables_number      12
_space_group_name_Hall           '-C 2y'
loop_
_symmetry_equiv_pos_site_id
_symmetry_equiv_pos_as_xyz
1 x,y,z
2 -x,y,-z
3 1/2+x,1/2+y,z
4 1/2-x,1/2+y,-z
5 -x,-y,-z
6 x,-y,z
7 1/2-x,1/2-y,-z
8 1/2+x,1/2-y,z
_cell_length_a                   18.778(8)
_cell_length_b                   9.615(5)
_cell_length_c                   12.478(6)
_cell_angle_alpha                90
_cell_angle_beta                 130.316(7)
_cell_angle_gamma                90
_cell_volume                     1717.82
loop_
_atom_site_label
_atom_site_type_symbol
_atom_site_fract_x
_atom_site_fract_y
_atom_site_fract_z
O4 O 0.5000 0.0597(5) 1.0000
O4D O 0.5000 -0.0597(5) 1.0000
O5 O 0.283(2) 0.0000 0.919(3)
O6 O 0.321(2) 0.076(4) 1.012(3)
O6E O 0.321(2) -0.076(4) 1.012(3)
C1 C 0.1676(10) 0.0000 0.5791(14)
C2 C 0.2615(9) 0.0000 0.6170(12)
C3 C 0.3040(7) 0.1258(12) 0.6322(11)
H1 H 0.2736 0.2114 0.6179
C4 C 0.3909(7) 0.1250(13) 0.6682(12)
H2 H 0.4212 0.2104 0.6813
C5 C 0.4338(11) 0.0000 0.6852(19)
H3 H 0.4931 0.0000 0.7087
C6 C 0.0770(7) 0.4296(12) 0.6019(12)
C7 C 0.168(3) 0.376(5) 0.745(4)
H4 H 0.1515 0.3109 0.7868
H5 H 0.2028 0.4543 0.8086
H6 H 0.2065 0.3274 0.7294
C8 C 0.066(3) 0.0000 0.755(3)
C9 C 0.1045(15) 0.0000 0.911(2)
C10 C 0.1221(13) 0.1199(13) 0.977(2)
H7 H 0.1112 0.2054 0.9306
C11 C 0.1551(16) 0.1200(13) 1.109(2)
H8 H 0.1687 0.2054 1.1576
C12 C 0.169(2) 0.0000 1.173(3)
H9 H 0.1887 0.0000 1.2652
N1 N 0.0000 0.3576(16) 0.5000
O1 O 0.1311(5) 0.1176(8) 0.5637(7)
O2 O 0.055(2) 0.1164(18) 0.7054(16)
Rh1 Rh 0.0000 0.12449(14) 0.5000
C1A C -0.1676(10) 0.0000 0.4209(14)
C2A C -0.2615(9) 0.0000 0.3830(12)
C3E C 0.3040(7) -0.1258(12) 0.6322(11)
C3A C -0.3040(7) 0.1258(12) 0.3678(11)
C3D C -0.3040(7) -0.1258(12) 0.3678(11)
H1E H 0.2736 -0.2114 0.6179
H1A H -0.2736 0.2114 0.3821
H1D H -0.2736 -0.2114 0.3821
C4E C 0.3909(7) -0.1250(13) 0.6682(12)
C4A C -0.3909(7) 0.1250(13) 0.3318(12)
C4D C -0.3909(7) -0.1250(13) 0.3318(12)
H2E H 0.4212 -0.2104 0.6813
H2A H -0.4212 0.2104 0.3187
H2D H -0.4212 -0.2104 0.3187
C5A C -0.4338(11) 0.0000 0.3148(19)
H3A H -0.4931 0.0000 0.2913
C6E C 0.0770(7) 0.5704(12) 0.6019(12)
C6D C -0.0770(7) 0.5704(12) 0.3981(12)
C6A C -0.0770(7) 0.4296(12) 0.3981(12)
C7E C 0.168(3) 0.624(5) 0.745(4)
C7A C -0.168(3) 0.376(5) 0.255(4)
C7D C -0.168(3) 0.624(5) 0.255(4)
H4E H 0.1515 0.6891 0.7868
H4A H -0.1515 0.3109 0.2132
H4D H -0.1515 0.6891 0.2132
H5E H 0.2028 0.5457 0.8086
H5A H -0.2028 0.4543 0.1914
H5D H -0.2028 0.5457 0.1914
H6E H 0.2065 0.6726 0.7294
H6A H -0.2065 0.3274 0.2706
H6D H -0.2065 0.6726 0.2706
C8A C -0.066(3) 0.0000 0.245(3)
C9A C -0.1045(15) 0.0000 0.089(2)
C10E C 0.1221(13) -0.1199(13) 0.977(2)
C10A C -0.1221(13) 0.1199(13) 0.023(2)
C10D C -0.1221(13) -0.1199(13) 0.023(2)
H7E H 0.1112 -0.2054 0.9306
H7A H -0.1112 0.2054 0.0694
H7D H -0.1112 -0.2054 0.0694
C11E C 0.1551(16) -0.1200(13) 1.109(2)
C11A C -0.1551(16) 0.1200(13) -0.109(2)
C11D C -0.1551(16) -0.1200(13) -0.109(2)
H8E H 0.1687 -0.2054 1.1576
H8A H -0.1687 0.2054 -0.1576
H8D H -0.1687 -0.2054 -0.1576
C12A C -0.169(2) 0.0000 -0.173(3)
H9A H -0.1887 0.0000 -0.2652
N1D N 0.0000 0.6424(16) 0.5000
O1E O 0.1311(5) -0.1176(8) 0.5637(7)
O1A O -0.1311(5) 0.1176(8) 0.4363(7)
O1D O -0.1311(5) -0.1176(8) 0.4363(7)
O1E_2 O 0.1311(5) 0.8824(8) 0.5637(7)
O1D_2 O -0.1311(5) 0.8824(8) 0.4363(7)
O2E O 0.055(2) -0.1164(18) 0.7054(16)
O2A O -0.055(2) 0.1164(18) 0.2946(16)
O2D O -0.055(2) -0.1164(18) 0.2946(16)
O2E_2 O 0.055(2) 0.8836(18) 0.7054(16)
O2D_2 O -0.055(2) 0.8836(18) 0.2946(16)
Rh1D Rh 0.0000 0.87551(14) 0.5000
Rh1D_2 Rh 0.0000 -0.12449(14) 0.5000
Rh1_2 Rh 0.0000 1.12449(14) 0.5000
C13? C 0.056(3) 0.0000 0.751(3)
C14? C 0.0700(15) 0.0000 0.891(2)
C15? C 0.0764(13) 0.1187(13) 0.950(2)
H10? H 0.0679 0.2043 0.9048
C16? C 0.0946(17) 0.1187(13) 1.072(2)
H11? H 0.0994 0.2043 1.1138
C17? C 0.106(3) 0.0000 1.134(3)
H12? H 0.1225 0.0000 1.2239
O3? O 0.046(2) 0.1153(19) 0.7004(17)
loop_
_geom_bond_atom_site_label_1
_geom_bond_atom_site_label_2
_geom_bond_site_symmetry_1
_geom_bond_site_symmetry_2
C1 C2 1_555 1_555
C2 C3 1_555 1_555
C3 H1 1_555 1_555
C4 C3 1_555 1_555
H2 C4 1_555 1_555
C5 C4 1_555 1_555
H3 C5 1_555 1_555
C6 C7 1_555 1_555
C7 H4 1_555 1_555
H5 C7 1_555 1_555
H6 C7 1_555 1_555
C8 C9 1_555 1_555
C9 C10 1_555 1_555
C10 H7 1_555 1_555
C11 C10 1_555 1_555
H8 C11 1_555 1_555
C12 C11 1_555 1_555
H9 C12 1_555 1_555
N1 C6 1_555 1_555
O1 C1 1_555 1_555
O2 C8 1_555 1_555
O4 O4D 1_555 1_555
O5 O6 1_555 1_555
O6 O6E 1_555 1_555
Rh1 N1 1_555 1_555
C1A C2A 1_555 1_555
C2A C3A 1_555 1_555
C3E C2 1_555 1_555
C3A H1A 1_555 1_555
C3D C2A 1_555 1_555
H1E C3E 1_555 1_555
H1D C3D 1_555 1_555
C4E C5 1_555 1_555
C4A C3A 1_555 1_555
C4D C3D 1_555 1_555
H2E C4E 1_555 1_555
H2A C4A 1_555 1_555
H2D C4D 1_555 1_555
C5A C4A 1_555 1_555
H3A C5A 1_555 1_555
C6E C6 1_555 1_555
C6D C6A 1_555 1_555
C6A N1 1_555 1_555
C7E C6E 1_555 1_555
C7A C6A 1_555 1_555
C7D C6D 1_555 1_555
H4E C7E 1_555 1_555
H4A C7A 1_555 1_555
H4D C7D 1_555 1_555
H5E C7E 1_555 1_555
H5A C7A 1_555 1_555
H5D C7D 1_555 1_555
H6E C7E 1_555 1_555
H6A C7A 1_555 1_555
H6D C7D 1_555 1_555
C8A C9A 1_555 1_555
C9A C10A 1_555 1_555
C10E C9 1_555 1_555
C10A H7A 1_555 1_555
C10D C9A 1_555 1_555
H7E C10E 1_555 1_555
H7D C10D 1_555 1_555
C11E C12 1_555 1_555
C11A C10A 1_555 1_555
C11D C10D 1_555 1_555
H8E C11E 1_555 1_555
H8A C11A 1_555 1_555
H8D C11D 1_555 1_555
C12A C11A 1_555 1_555
H9A C12A 1_555 1_555
N1D C6E 1_555 1_555
O1E C1 1_555 1_555
O1A Rh1 1_555 1_555
O1D C1A 1_555 1_555
O1E_2 Rh1D 1_555 1_555
O1D_2 Rh1D 1_555 1_555
O2E C8 1_555 1_555
O2A Rh1 1_555 1_555
O2D C8A 1_555 1_555
O2E_2 Rh1D 1_555 1_555
O2D_2 Rh1D 1_555 1_555
O6E O5 1_555 1_555
Rh1D N1D 1_555 1_555
Rh1D_2 Rh1 1_555 1_555
Rh1_2 Rh1D 1_555 1_555
O1 Rh1 1_555 1_555
O2 Rh1 1_555 1_555
C1A O1A 1_555 1_555
C3E C4E 1_555 1_555
C4D C5A 1_555 1_555
C6D N1D 1_555 1_555
C8A O2A 1_555 1_555
C10E C11E 1_555 1_555
C11D C12A 1_555 1_555
O1E Rh1D_2 1_555 1_555
O1D Rh1D_2 1_555 1_555
O2E Rh1D_2 1_555 1_555
O2D Rh1D_2 1_555 1_555

#END
