
#######################################################################
#
#                 Cambridge Crystallographic Data Centre
#                                CCDC 
#
#######################################################################
#
# If this CIF has been generated from an entry in the Cambridge 
# Structural Database, then it will include bibliographic, chemical, 
# crystal, experimental, refinement or atomic coordinate data resulting 
# from the CCDC's data processing and validation procedures.
#
#######################################################################

data_ACIYER05
_symmetry_cell_setting           triclinic
_symmetry_space_group_name_H-M   'P -1'
_symmetry_Int_Tables_number      2
_space_group_name_Hall           '-P 1'
loop_
_symmetry_equiv_pos_site_id
_symmetry_equiv_pos_as_xyz
1 x,y,z
2 -x,-y,-z
_cell_length_a                   9.603(7)
_cell_length_b                   10.580(8)
_cell_length_c                   10.753(9)
_cell_angle_alpha                71.450(16)
_cell_angle_beta                 63.831(14)
_cell_angle_gamma                63.018(15)
_cell_volume                     864.219
loop_
_atom_site_label
_atom_site_type_symbol
_atom_site_fract_x
_atom_site_fract_y
_atom_site_fract_z
O7 O 0.5647(17) 0.494(3) 0.994(3)
O7A O 0.4353(17) 0.506(3) 1.006(3)
O8 O 0.615(3) 0.120(3) 1.011(3)
O9 O 0.728(5) 0.148(6) 0.932(5)
C1 C 0.8301(14) 1.2538(13) 0.5789(13)
C2 C 0.7346(12) 1.4030(11) 0.6146(12)
C3 C 0.5667(12) 1.4674(11) 0.6357(12)
H1 H 0.5113 1.4171 0.6276
C4 C 0.4792(14) 1.6039(11) 0.6684(13)
H2 H 0.3635 1.6484 0.6823
C5 C 0.5593(14) 1.6764(12) 0.6810(14)
H3 H 0.4984 1.7703 0.7057
C6 C 0.7259(13) 1.6137(11) 0.6582(14)
H4 H 0.7818 1.6650 0.6640
C7 C 0.8132(13) 1.4764(11) 0.6268(14)
H5 H 0.9288 1.4321 0.6134
C8 C 0.6504(14) 0.9460(12) 0.4036(12)
C9 C 0.4960(15) 1.0453(13) 0.6068(13)
C10 C 0.791(6) 0.885(4) 0.275(4)
H6 H 0.8549 0.9481 0.2256
H7 H 0.7446 0.8792 0.2132
H8 H 0.8641 0.7895 0.3032
C11 C 0.455(5) 1.095(4) 0.741(4)
H9 H 0.5161 1.0163 0.7977
H10 H 0.3347 1.1224 0.7932
H11 H 0.4872 1.1770 0.7178
C12 C 0.947(4) 0.877(2) 0.760(4)
C13 C 0.925(3) 0.802(3) 0.906(2)
C14 C 0.800(3) 0.747(3) 0.977(2)
H12 H 0.7271 0.7590 0.9329
C15 C 0.780(3) 0.673(3) 1.112(2)
H13 H 0.6948 0.6347 1.1601
C16 C 0.887(3) 0.655(3) 1.177(2)
H14 H 0.8799 0.5987 1.2667
C17 C 1.003(3) 0.721(3) 1.111(2)
H15 H 1.0694 0.7156 1.1584
C18 C 1.022(3) 0.794(3) 0.976(2)
H16 H 1.1017 0.8395 0.9306
N1 N 0.6452(13) 0.9938(12) 0.5074(11)
O1 O 0.7534(10) 1.1920(9) 0.5663(9)
O2 O 0.9835(10) 1.2003(9) 0.5607(9)
O3 O 0.843(4) 0.897(3) 0.716(3)
O4 O 0.921(5) 1.087(3) 0.304(4)
Rh1 Rh 0.87550(14) 0.99634(13) 0.50376(13)
C8A C 0.3496(14) 1.0540(12) 0.5964(12)
C9A C 0.5040(15) 0.9547(13) 0.3932(13)
C12A C 1.053(4) 1.123(2) 0.240(4)
O2A O 1.0165(10) 0.7997(9) 0.4393(9)
O4A O 1.079(5) 0.913(3) 0.696(4)
Rh1A Rh 1.12450(14) 1.00366(13) 0.49624(13)
C19? C 0.953(5) 0.852(3) 0.750(4)
C20? C 0.932(3) 0.756(3) 0.895(3)
C21? C 0.820(3) 0.691(3) 0.947(3)
H17? H 0.7491 0.7095 0.8989
C22? C 0.810(3) 0.599(3) 1.068(3)
H18? H 0.7327 0.5525 1.1049
C23? C 0.910(3) 0.572(3) 1.138(3)
H19? H 0.9025 0.5081 1.2236
C24? C 1.021(3) 0.637(3) 1.086(3)
H20? H 1.0887 0.6219 1.1369
C25? C 1.037(3) 0.725(3) 0.961(3)
H21? H 1.1212 0.7646 0.9205
O5? O 0.850(4) 0.887(3) 0.687(3)
O6? O 1.069(5) 0.894(4) 0.703(5)
O10? O 0.662(6) 0.160(5) 0.893(3)
loop_
_geom_bond_atom_site_label_1
_geom_bond_atom_site_label_2
_geom_bond_site_symmetry_1
_geom_bond_site_symmetry_2
C1 C2 1_555 1_555
C2 C3 1_555 1_555
C3 H1 1_555 1_555
C4 C3 1_555 1_555
H2 C4 1_555 1_555
C5 C4 1_555 1_555
H3 C5 1_555 1_555
C6 C5 1_555 1_555
H4 C6 1_555 1_555
C7 C2 1_555 1_555
H5 C7 1_555 1_555
C8 C10 1_555 1_555
C9 C11 1_555 1_555
C10 H6 1_555 1_555
H7 C10 1_555 1_555
H8 C10 1_555 1_555
C11 H9 1_555 1_555
H10 C11 1_555 1_555
H11 C11 1_555 1_555
C12 C13 1_555 1_555
C13 C14 1_555 1_555
C14 H12 1_555 1_555
C15 C14 1_555 1_555
H13 C15 1_555 1_555
C16 C15 1_555 1_555
H14 C16 1_555 1_555
C17 C16 1_555 1_555
H15 C17 1_555 1_555
C18 C13 1_555 1_555
H16 C18 1_555 1_555
N1 C8 1_555 1_555
O1 C1 1_555 1_555
O2 C1 1_555 1_555
O3 C12 1_555 1_555
O4 Rh1 1_555 1_555
O7 O7A 1_555 1_555
O8 O9 1_555 1_555
Rh1 N1 1_555 1_555
C8A C9 1_555 1_555
C9A C8 1_555 1_555
C12A O4 1_555 1_555
O2A Rh1 1_555 1_555
O4A C12 1_555 1_555
Rh1A O2 1_555 1_555
C6 C7 1_555 1_555
C9 N1 1_555 1_555
C17 C18 1_555 1_555
O1 Rh1 1_555 1_555
O3 Rh1 1_555 1_555
Rh1 Rh1A 1_555 1_555
O4A Rh1A 1_555 1_555

#END
