
#######################################################################
#
#                 Cambridge Crystallographic Data Centre
#                                CCDC 
#
#######################################################################
#
# If this CIF has been generated from an entry in the Cambridge 
# Structural Database, then it will include bibliographic, chemical, 
# crystal, experimental, refinement or atomic coordinate data resulting 
# from the CCDC's data processing and validation procedures.
#
#######################################################################

data_ACIYER04
_symmetry_cell_setting           monoclinic
_symmetry_space_group_name_H-M   'C 2/m'
_symmetry_Int_Tables_number      12
_space_group_name_Hall           '-C 2y'
loop_
_symmetry_equiv_pos_site_id
_symmetry_equiv_pos_as_xyz
1 x,y,z
2 -x,y,-z
3 1/2+x,1/2+y,z
4 1/2-x,1/2+y,-z
5 -x,-y,-z
6 x,-y,z
7 1/2-x,1/2-y,-z
8 1/2+x,1/2-y,z
_cell_length_a                   18.881(6)
_cell_length_b                   9.610(3)
_cell_length_c                   12.479(4)
_cell_angle_alpha                90
_cell_angle_beta                 129.747(5)
_cell_angle_gamma                90
_cell_volume                     1740.94
loop_
_atom_site_label
_atom_site_type_symbol
_atom_site_fract_x
_atom_site_fract_y
_atom_site_fract_z
O4 O 0.5000 -0.0597(5) 1.0000
O4D O 0.5000 0.0597(5) 1.0000
O5 O 0.307(3) 0.0000 1.004(5)
O6 O 0.276(4) 0.064(6) 0.906(4)
O6E O 0.276(4) -0.064(6) 0.906(4)
C1 C -0.1653(13) 0.0000 0.4210(16)
C2 C -0.2568(11) 0.0000 0.3848(15)
C3 C -0.2992(7) -0.1239(14) 0.3700(12)
H1 H -0.2701 -0.2095 0.3808
C4 C -0.3837(7) -0.1249(14) 0.3397(13)
H2 H -0.4112 -0.2105 0.3336
C5 C -0.4278(12) 0.0000 0.318(2)
H3 H -0.4883 0.0000 0.2890
C6 C -0.0750(8) -0.4305(14) 0.3994(13)
C7 C -0.169(3) -0.367(6) 0.261(5)
H4 H -0.2088 -0.3371 0.2809
H5 H -0.1544 -0.2871 0.2289
H6 H -0.2005 -0.4383 0.1876
C8 C -0.068(2) 0.0000 0.242(3)
C9 C -0.1058(13) 0.0000 0.093(2)
C10 C -0.1238(11) -0.1229(13) 0.0255(19)
H7 H -0.1122 -0.2084 0.0724
C11 C -0.1584(14) -0.1229(13) -0.109(2)
H8 H -0.1712 -0.2083 -0.1571
C12 C -0.1746(19) 0.0000 -0.176(2)
H9 H -0.1974 0.0000 -0.2691
N1 N 0.0000 -0.3535(16) 0.5000
O1 O -0.1293(5) -0.1162(10) 0.4368(8)
O2 O -0.0560(13) -0.1155(19) 0.2963(14)
Rh1 Rh 0.0000 -0.12458(15) 0.5000
C1A C 0.1653(13) 0.0000 0.5790(16)
C2A C 0.2568(11) 0.0000 0.6152(15)
C3E C -0.2992(7) 0.1239(14) 0.3700(12)
C3A C 0.2992(7) -0.1239(14) 0.6300(12)
C3D C 0.2992(7) 0.1239(14) 0.6300(12)
H1E H -0.2701 0.2095 0.3808
H1A H 0.2701 -0.2095 0.6192
H1D H 0.2701 0.2095 0.6192
C4E C -0.3837(7) 0.1249(14) 0.3397(13)
C4A C 0.3837(7) -0.1249(14) 0.6603(13)
C4D C 0.3837(7) 0.1249(14) 0.6603(13)
H2E H -0.4112 0.2105 0.3336
H2A H 0.4112 -0.2105 0.6664
H2D H 0.4112 0.2105 0.6664
C5A C 0.4278(12) 0.0000 0.682(2)
H3A H 0.4883 0.0000 0.7110
C6E C -0.0750(8) -0.5695(14) 0.3994(13)
C6D C 0.0750(8) -0.5695(14) 0.6006(13)
C6A C 0.0750(8) -0.4305(14) 0.6006(13)
C7E C -0.169(3) -0.633(6) 0.261(5)
C7A C 0.169(3) -0.367(6) 0.739(5)
C7D C 0.169(3) -0.633(6) 0.739(5)
H4E H -0.2088 -0.6629 0.2809
H4A H 0.2088 -0.3371 0.7191
H4D H 0.2088 -0.6629 0.7191
H5E H -0.1544 -0.7129 0.2289
H5A H 0.1544 -0.2871 0.7711
H5D H 0.1544 -0.7129 0.7711
H6E H -0.2005 -0.5617 0.1876
H6A H 0.2005 -0.4383 0.8124
H6D H 0.2005 -0.5617 0.8124
C8A C 0.068(2) 0.0000 0.758(3)
C9A C 0.1058(13) 0.0000 0.907(2)
C10E C -0.1238(11) 0.1229(13) 0.0255(19)
C10A C 0.1238(11) -0.1229(13) 0.9745(19)
C10D C 0.1238(11) 0.1229(13) 0.9745(19)
H7E H -0.1122 0.2084 0.0724
H7A H 0.1122 -0.2084 0.9276
H7D H 0.1122 0.2084 0.9276
C11E C -0.1584(14) 0.1229(13) -0.109(2)
C11A C 0.1584(14) -0.1229(13) 1.109(2)
C11D C 0.1584(14) 0.1229(13) 1.109(2)
H8E H -0.1712 0.2083 -0.1571
H8A H 0.1712 -0.2083 1.1571
H8D H 0.1712 0.2083 1.1571
C12A C 0.1746(19) 0.0000 1.176(2)
H9A H 0.1974 0.0000 1.2691
N1D N 0.0000 -0.6465(16) 0.5000
O1E O -0.1293(5) 0.1162(10) 0.4368(8)
O1A O 0.1293(5) -0.1162(10) 0.5632(8)
O1D O 0.1293(5) 0.1162(10) 0.5632(8)
O1E_2 O -0.1293(5) -0.8838(10) 0.4368(8)
O1D_2 O 0.1293(5) -0.8838(10) 0.5632(8)
O2E O -0.0560(13) 0.1155(19) 0.2963(14)
O2A O 0.0560(13) -0.1155(19) 0.7037(14)
O2D O 0.0560(13) 0.1155(19) 0.7037(14)
O2E_2 O -0.0560(13) -0.8845(19) 0.2963(14)
O2D_2 O 0.0560(13) -0.8845(19) 0.7037(14)
Rh1D Rh 0.0000 -0.87542(15) 0.5000
Rh1D_2 Rh 0.0000 0.12458(15) 0.5000
Rh1_2 Rh 0.0000 -1.12458(15) 0.5000
C13? C -0.052(2) 0.0000 0.250(3)
C14? C -0.0707(12) 0.0000 0.112(2)
C15? C -0.0792(11) -0.1214(13) 0.0501(18)
H10? H -0.0706 -0.2070 0.0952
C16? C -0.1000(13) -0.1215(13) -0.076(2)
H11? H -0.1065 -0.2071 -0.1198
C17? C -0.1114(19) 0.0000 -0.140(3)
H12? H -0.1275 0.0000 -0.2289
O3? O -0.0414(13) -0.1141(19) 0.3049(14)
loop_
_geom_bond_atom_site_label_1
_geom_bond_atom_site_label_2
_geom_bond_site_symmetry_1
_geom_bond_site_symmetry_2
C1 C2 1_555 1_555
C2 C3 1_555 1_555
C3 H1 1_555 1_555
C4 C3 1_555 1_555
H2 C4 1_555 1_555
C5 C4 1_555 1_555
H3 C5 1_555 1_555
C6 C7 1_555 1_555
C7 H4 1_555 1_555
H5 C7 1_555 1_555
H6 C7 1_555 1_555
C8 C9 1_555 1_555
C9 C10 1_555 1_555
C10 H7 1_555 1_555
C11 C10 1_555 1_555
H8 C11 1_555 1_555
C12 C11 1_555 1_555
H9 C12 1_555 1_555
N1 C6 1_555 1_555
O1 C1 1_555 1_555
O2 C8 1_555 1_555
O4 O4D 1_555 1_555
O5 O6 1_555 1_555
O6 O6E 1_555 1_555
Rh1 N1 1_555 1_555
C1A C2A 1_555 1_555
C2A C3A 1_555 1_555
C3E C2 1_555 1_555
C3A H1A 1_555 1_555
C3D C2A 1_555 1_555
H1E C3E 1_555 1_555
H1D C3D 1_555 1_555
C4E C5 1_555 1_555
C4A C3A 1_555 1_555
C4D C3D 1_555 1_555
H2E C4E 1_555 1_555
H2A C4A 1_555 1_555
H2D C4D 1_555 1_555
C5A C4A 1_555 1_555
H3A C5A 1_555 1_555
C6E C6 1_555 1_555
C6D C6A 1_555 1_555
C6A N1 1_555 1_555
C7E C6E 1_555 1_555
C7A C6A 1_555 1_555
C7D C6D 1_555 1_555
H4E C7E 1_555 1_555
H4A C7A 1_555 1_555
H4D C7D 1_555 1_555
H5E C7E 1_555 1_555
H5A C7A 1_555 1_555
H5D C7D 1_555 1_555
H6E C7E 1_555 1_555
H6A C7A 1_555 1_555
H6D C7D 1_555 1_555
C8A C9A 1_555 1_555
C9A C10A 1_555 1_555
C10E C9 1_555 1_555
C10A H7A 1_555 1_555
C10D C9A 1_555 1_555
H7E C10E 1_555 1_555
H7D C10D 1_555 1_555
C11E C12 1_555 1_555
C11A C10A 1_555 1_555
C11D C10D 1_555 1_555
H8E C11E 1_555 1_555
H8A C11A 1_555 1_555
H8D C11D 1_555 1_555
C12A C11A 1_555 1_555
H9A C12A 1_555 1_555
N1D C6E 1_555 1_555
O1E C1 1_555 1_555
O1A Rh1 1_555 1_555
O1D C1A 1_555 1_555
O1E_2 Rh1D 1_555 1_555
O1D_2 Rh1D 1_555 1_555
O2E C8 1_555 1_555
O2A Rh1 1_555 1_555
O2D C8A 1_555 1_555
O2E_2 Rh1D 1_555 1_555
O2D_2 Rh1D 1_555 1_555
O6E O5 1_555 1_555
Rh1D N1D 1_555 1_555
Rh1D_2 Rh1 1_555 1_555
Rh1_2 Rh1D 1_555 1_555
O1 Rh1 1_555 1_555
O2 Rh1 1_555 1_555
C1A O1A 1_555 1_555
C3E C4E 1_555 1_555
C4D C5A 1_555 1_555
C6D N1D 1_555 1_555
C8A O2A 1_555 1_555
C10E C11E 1_555 1_555
C11D C12A 1_555 1_555
O1E Rh1D_2 1_555 1_555
O1D Rh1D_2 1_555 1_555
O2E Rh1D_2 1_555 1_555
O2D Rh1D_2 1_555 1_555

#END
