
#######################################################################
#
#                 Cambridge Crystallographic Data Centre
#                                CCDC 
#
#######################################################################
#
# If this CIF has been generated from an entry in the Cambridge 
# Structural Database, then it will include bibliographic, chemical, 
# crystal, experimental, refinement or atomic coordinate data resulting 
# from the CCDC's data processing and validation procedures.
#
#######################################################################

data_ACIYER
_symmetry_cell_setting           monoclinic
_symmetry_space_group_name_H-M   'C 2/m'
_symmetry_Int_Tables_number      12
_space_group_name_Hall           '-C 2y'
loop_
_symmetry_equiv_pos_site_id
_symmetry_equiv_pos_as_xyz
1 x,y,z
2 1/2+x,1/2+y,z
3 -x,y,-z
4 1/2-x,1/2+y,-z
5 -x,-y,-z
6 1/2-x,1/2-y,-z
7 x,-y,z
8 1/2+x,1/2-y,z
_cell_length_a                   18.768(5)
_cell_length_b                   9.563(3)
_cell_length_c                   12.483(3)
_cell_angle_alpha                90
_cell_angle_beta                 131.032(4)
_cell_angle_gamma                90
_cell_volume                     1690.05
loop_
_atom_site_label
_atom_site_type_symbol
_atom_site_fract_x
_atom_site_fract_y
_atom_site_fract_z
O4 O 0.5000 0.0598(5) 1.0000
O4D O 0.5000 -0.0598(5) 1.0000
C1 C 0.1679(14) 0.0000 0.5820(17)
C2 C 0.2607(12) 0.0000 0.6168(15)
C3 C 0.3026(8) 0.1272(14) 0.6309(14)
H1 H 0.2724 0.2131 0.6180
C4 C 0.3892(9) 0.1265(15) 0.6640(15)
H2 H 0.4193 0.2121 0.6755
C5 C 0.4317(14) 0.0000 0.680(2)
H3 H 0.4909 0.0000 0.7029
C6 C 0.0776(11) 0.4266(15) 0.6015(17)
C7 C 0.165(4) 0.361(7) 0.738(6)
H4 H 0.2083 0.4355 0.8043
H5 H 0.1968 0.3016 0.7172
H6 H 0.1464 0.3050 0.7820
C8 C 0.068(3) 0.0000 0.759(3)
C9 C 0.1055(17) 0.0000 0.912(3)
C10 C 0.1221(16) 0.1207(14) 0.978(2)
H7 H 0.1110 0.2067 0.9309
C11 C 0.155(2) 0.1208(14) 1.110(3)
H8 H 0.1675 0.2067 1.1582
C12 C 0.169(3) 0.0000 1.175(3)
H9 H 0.1889 0.0000 1.2673
N1 N 0.0000 0.359(2) 0.5000
O1 O 0.1327(6) 0.1169(11) 0.5680(9)
O2 O 0.057(2) 0.1152(19) 0.7063(17)
Rh1 Rh 0.0000 0.1246(2) 0.5000
O1F O 0.1327(6) -0.1169(11) 0.5680(9)
C3F C 0.3026(8) -0.1272(14) 0.6309(14)
C4F C 0.3892(9) -0.1265(15) 0.6640(15)
C6F C 0.0776(11) 0.5734(15) 0.6015(17)
O2F O 0.057(2) -0.1152(19) 0.7063(17)
C10F C 0.1221(16) -0.1207(14) 0.978(2)
C11F C 0.155(2) -0.1208(14) 1.110(3)
C6B C -0.0776(11) 0.4266(15) 0.3985(17)
Rh1D Rh 0.0000 -0.1246(2) 0.5000
O1B O -0.1327(6) 0.1169(11) 0.4320(9)
O2B O -0.057(2) 0.1152(19) 0.2937(17)
C8B C -0.068(3) 0.0000 0.241(3)
C1B C -0.1679(14) 0.0000 0.4180(17)
C6D C -0.0776(11) 0.5734(15) 0.3985(17)
C7B C -0.165(4) 0.361(7) 0.262(6)
C7F C 0.165(4) 0.639(7) 0.738(6)
N1D N 0.0000 0.641(2) 0.5000
C9B C -0.1055(17) 0.0000 0.088(3)
O2D O -0.057(2) -0.1152(19) 0.2937(17)
C2B C -0.2607(12) 0.0000 0.3832(15)
O1D O -0.1327(6) -0.1169(11) 0.4320(9)
H4B H -0.2083 0.4355 0.1957
H5B H -0.1968 0.3016 0.2828
H6B H -0.1464 0.3050 0.2180
C7D C -0.165(4) 0.639(7) 0.262(6)
Rh1D_2 Rh 0.0000 0.8754(2) 0.5000
H4F H 0.2083 0.5645 0.8043
H5F H 0.1968 0.6984 0.7172
H6F H 0.1464 0.6950 0.7820
C3B C -0.3026(8) 0.1272(14) 0.3691(14)
C3D C -0.3026(8) -0.1272(14) 0.3691(14)
N1D_2 N 0.0000 -0.359(2) 0.5000
C13? C 0.054(3) 0.0000 0.750(4)
C14? C 0.0689(19) 0.0000 0.887(3)
C15? C 0.0768(18) 0.1198(14) 0.948(3)
H10? H 0.0691 0.2059 0.9033
C16? C 0.095(2) 0.1197(14) 1.070(3)
H11? H 0.1019 0.2057 1.1138
C17? C 0.105(3) 0.0000 1.131(4)
H12? H 0.1188 0.0000 1.2194
O3? O 0.046(2) 0.116(2) 0.700(2)
O5? O 0.282(2) 0.0000 0.917(3)
O6? O 0.317(3) 0.078(4) 1.009(3)
loop_
_geom_bond_atom_site_label_1
_geom_bond_atom_site_label_2
_geom_bond_site_symmetry_1
_geom_bond_site_symmetry_2
C1 C2 1_555 1_555
C2 C3 1_555 1_555
C3 H1 1_555 1_555
C4 C3 1_555 1_555
H2 C4 1_555 1_555
C5 C4 1_555 1_555
H3 C5 1_555 1_555
C6 C7 1_555 1_555
C7 H4 1_555 1_555
H5 C7 1_555 1_555
H6 C7 1_555 1_555
C8 C9 1_555 1_555
C9 C10 1_555 1_555
C10 H7 1_555 1_555
C11 C10 1_555 1_555
H8 C11 1_555 1_555
C12 C11 1_555 1_555
H9 C12 1_555 1_555
N1 C6 1_555 1_555
O1 C1 1_555 1_555
O2 C8 1_555 1_555
O4 O4D 1_555 1_555
Rh1 N1 1_555 1_555
O1F C1 1_555 1_555
C3F C2 1_555 1_555
C4F C5 1_555 1_555
C6F C6 1_555 1_555
O2F C8 1_555 1_555
C10F C9 1_555 1_555
C11F C12 1_555 1_555
C6B N1 1_555 1_555
Rh1D Rh1 1_555 1_555
O1B Rh1 1_555 1_555
O2B Rh1 1_555 1_555
C8B O2B 1_555 1_555
C1B O1B 1_555 1_555
C6D C6B 1_555 1_555
C7B C6B 1_555 1_555
C7F C6F 1_555 1_555
N1D C6F 1_555 1_555
C9B C8B 1_555 1_555
O2D Rh1D 1_555 1_555
C2B C1B 1_555 1_555
O1D Rh1D 1_555 1_555
H4B C7B 1_555 1_555
H5B C7B 1_555 1_555
H6B C7B 1_555 1_555
C7D C6D 1_555 1_555
Rh1D_2 N1D 1_555 1_555
H4F C7F 1_555 1_555
H5F C7F 1_555 1_555
H6F C7F 1_555 1_555
C3B C2B 1_555 1_555
C3D C2B 1_555 1_555
N1D_2 Rh1D 1_555 1_555
O1 Rh1 1_555 1_555
O2 Rh1 1_555 1_555
O1F Rh1D 1_555 1_555
C3F C4F 1_555 1_555
O2F Rh1D 1_555 1_555
C10F C11F 1_555 1_555
C8B O2D 1_555 1_555
C1B O1D 1_555 1_555
C6D N1D 1_555 1_555

#END
