
#######################################################################
#
#                 Cambridge Crystallographic Data Centre
#                                CCDC 
#
#######################################################################
#
# If this CIF has been generated from an entry in the Cambridge 
# Structural Database, then it will include bibliographic, chemical, 
# crystal, experimental, refinement or atomic coordinate data resulting 
# from the CCDC's data processing and validation procedures.
#
#######################################################################

data_ACIYER03
_symmetry_cell_setting           monoclinic
_symmetry_space_group_name_H-M   'C 2/m'
_symmetry_Int_Tables_number      12
_space_group_name_Hall           '-C 2y'
loop_
_symmetry_equiv_pos_site_id
_symmetry_equiv_pos_as_xyz
1 x,y,z
2 -x,y,-z
3 1/2+x,1/2+y,z
4 1/2-x,1/2+y,-z
5 -x,-y,-z
6 x,-y,z
7 1/2-x,1/2-y,-z
8 1/2+x,1/2-y,z
_cell_length_a                   18.892(9)
_cell_length_b                   9.621(5)
_cell_length_c                   12.451(6)
_cell_angle_alpha                90
_cell_angle_beta                 129.508(9)
_cell_angle_gamma                90
_cell_volume                     1746.06
loop_
_atom_site_label
_atom_site_type_symbol
_atom_site_fract_x
_atom_site_fract_y
_atom_site_fract_z
O4 O 0.5000 0.0596(5) 1.0000
O4D O 0.5000 -0.0596(5) 1.0000
O5 O 0.316(3) 0.0000 1.002(4)
O6 O 0.280(3) 0.083(4) 0.916(3)
O6E O 0.280(3) -0.083(4) 0.916(3)
C1 C 0.1660(10) 0.0000 0.5795(16)
C2 C 0.2569(11) 0.0000 0.6117(17)
C3 C 0.3008(7) 0.1253(14) 0.6327(11)
H1 H 0.2731 0.2109 0.6259
C4 C 0.3863(8) 0.1237(16) 0.6640(12)
H2 H 0.4152 0.2088 0.6729
C5 C 0.4285(13) 0.0000 0.682(2)
H3 H 0.4876 0.0000 0.7065
C6 C 0.0760(7) 0.4282(11) 0.5982(12)
C7 C 0.164(3) 0.384(5) 0.737(4)
H4 H 0.1506 0.3168 0.7807
H5 H 0.1941 0.4660 0.7975
H6 H 0.2050 0.3419 0.7233
C13 C 0.0506(17) 0.0000 0.749(3)
C14 C 0.0709(15) 0.0000 0.887(3)
C15 C 0.0766(16) 0.1187(16) 0.946(2)
H10 H 0.0673 0.2042 0.9004
C16 C 0.0951(19) 0.1189(17) 1.068(2)
H11 H 0.1005 0.2045 1.1105
C17 C 0.106(3) 0.0000 1.131(3)
H12 H 0.1219 0.0000 1.2198
N1 N 0.0000 0.3556(15) 0.5000
O1 O 0.1299(4) 0.1173(8) 0.5647(7)
O3 O 0.0419(19) 0.1152(19) 0.6943(15)
Rh1 Rh 0.0000 0.12453(14) 0.5000
C1A C -0.1660(10) 0.0000 0.4205(16)
C2A C -0.2569(11) 0.0000 0.3883(17)
C3E C 0.3008(7) -0.1253(14) 0.6327(11)
C3A C -0.3008(7) 0.1253(14) 0.3673(11)
C3D C -0.3008(7) -0.1253(14) 0.3673(11)
H1E H 0.2731 -0.2109 0.6259
H1A H -0.2731 0.2109 0.3741
H1D H -0.2731 -0.2109 0.3741
C4E C 0.3863(8) -0.1237(16) 0.6640(12)
C4A C -0.3863(8) 0.1237(16) 0.3360(12)
C4D C -0.3863(8) -0.1237(16) 0.3360(12)
H2E H 0.4152 -0.2088 0.6729
H2A H -0.4152 0.2088 0.3271
H2D H -0.4152 -0.2088 0.3271
C5A C -0.4285(13) 0.0000 0.318(2)
H3A H -0.4876 0.0000 0.2935
C6E C 0.0760(7) 0.5718(11) 0.5982(12)
C6D C -0.0760(7) 0.5718(11) 0.4018(12)
C6A C -0.0760(7) 0.4282(11) 0.4018(12)
C7E C 0.164(3) 0.616(5) 0.737(4)
C7A C -0.164(3) 0.384(5) 0.263(4)
C7D C -0.164(3) 0.616(5) 0.263(4)
H4E H 0.1506 0.6832 0.7807
H4A H -0.1506 0.3168 0.2193
H4D H -0.1506 0.6832 0.2193
H5E H 0.1941 0.5340 0.7975
H5A H -0.1941 0.4660 0.2025
H5D H -0.1941 0.5340 0.2025
H6E H 0.2050 0.6581 0.7233
H6A H -0.2050 0.3419 0.2767
H6D H -0.2050 0.6581 0.2767
C13A C -0.0506(17) 0.0000 0.251(3)
C14A C -0.0709(15) 0.0000 0.113(3)
C15E C 0.0766(16) -0.1187(16) 0.946(2)
C15A C -0.0766(16) 0.1187(16) 0.054(2)
C15D C -0.0766(16) -0.1187(16) 0.054(2)
H10E H 0.0673 -0.2042 0.9004
H10A H -0.0673 0.2042 0.0996
H10D H -0.0673 -0.2042 0.0996
C16E C 0.0951(19) -0.1189(17) 1.068(2)
C16A C -0.0951(19) 0.1189(17) -0.068(2)
C16D C -0.0951(19) -0.1189(17) -0.068(2)
H11E H 0.1005 -0.2045 1.1105
H11A H -0.1005 0.2045 -0.1105
H11D H -0.1005 -0.2045 -0.1105
C17A C -0.106(3) 0.0000 -0.131(3)
H12A H -0.1219 0.0000 -0.2198
N1D N 0.0000 0.6444(15) 0.5000
O1E O 0.1299(4) -0.1173(8) 0.5647(7)
O1A O -0.1299(4) 0.1173(8) 0.4353(7)
O1D O -0.1299(4) -0.1173(8) 0.4353(7)
O1E_2 O 0.1299(4) 0.8827(8) 0.5647(7)
O1D_2 O -0.1299(4) 0.8827(8) 0.4353(7)
O3E O 0.0419(19) -0.1152(19) 0.6943(15)
O3A O -0.0419(19) 0.1152(19) 0.3057(15)
O3D O -0.0419(19) -0.1152(19) 0.3057(15)
O3E_2 O 0.0419(19) 0.8848(19) 0.6943(15)
O3D_2 O -0.0419(19) 0.8848(19) 0.3057(15)
Rh1D Rh 0.0000 0.87547(14) 0.5000
Rh1D_2 Rh 0.0000 -0.12453(14) 0.5000
Rh1_2 Rh 0.0000 1.12453(14) 0.5000
C8? C 0.0675(19) 0.0000 0.754(3)
C9? C 0.1048(16) 0.0000 0.902(3)
C10? C 0.1218(17) 0.1229(19) 0.969(2)
H7? H 0.1104 0.2083 0.9223
C11? C 0.155(2) 0.1230(19) 1.104(3)
H8? H 0.1706 0.2081 1.1530
C12? C 0.167(3) 0.0000 1.168(3)
H9? H 0.1833 0.0000 1.2576
O2? O 0.054(2) 0.118(2) 0.7012(17)
loop_
_geom_bond_atom_site_label_1
_geom_bond_atom_site_label_2
_geom_bond_site_symmetry_1
_geom_bond_site_symmetry_2
C1 C2 1_555 1_555
C2 C3 1_555 1_555
C3 H1 1_555 1_555
C4 C3 1_555 1_555
H2 C4 1_555 1_555
C5 C4 1_555 1_555
H3 C5 1_555 1_555
C6 C7 1_555 1_555
C7 H4 1_555 1_555
H5 C7 1_555 1_555
H6 C7 1_555 1_555
C13 C14 1_555 1_555
C14 C15 1_555 1_555
C15 H10 1_555 1_555
C16 C15 1_555 1_555
H11 C16 1_555 1_555
C17 C16 1_555 1_555
H12 C17 1_555 1_555
N1 C6 1_555 1_555
O1 C1 1_555 1_555
O3 C13 1_555 1_555
O4 O4D 1_555 1_555
O5 O6 1_555 1_555
O6 O6E 1_555 1_555
Rh1 N1 1_555 1_555
C1A C2A 1_555 1_555
C2A C3A 1_555 1_555
C3E C2 1_555 1_555
C3A H1A 1_555 1_555
C3D C2A 1_555 1_555
H1E C3E 1_555 1_555
H1D C3D 1_555 1_555
C4E C5 1_555 1_555
C4A C3A 1_555 1_555
C4D C3D 1_555 1_555
H2E C4E 1_555 1_555
H2A C4A 1_555 1_555
H2D C4D 1_555 1_555
C5A C4A 1_555 1_555
H3A C5A 1_555 1_555
C6E C6 1_555 1_555
C6D C6A 1_555 1_555
C6A N1 1_555 1_555
C7E C6E 1_555 1_555
C7A C6A 1_555 1_555
C7D C6D 1_555 1_555
H4E C7E 1_555 1_555
H4A C7A 1_555 1_555
H4D C7D 1_555 1_555
H5E C7E 1_555 1_555
H5A C7A 1_555 1_555
H5D C7D 1_555 1_555
H6E C7E 1_555 1_555
H6A C7A 1_555 1_555
H6D C7D 1_555 1_555
C13A C14A 1_555 1_555
C14A C15A 1_555 1_555
C15E C14 1_555 1_555
C15A H10A 1_555 1_555
C15D C14A 1_555 1_555
H10E C15E 1_555 1_555
H10D C15D 1_555 1_555
C16E C17 1_555 1_555
C16A C15A 1_555 1_555
C16D C15D 1_555 1_555
H11E C16E 1_555 1_555
H11A C16A 1_555 1_555
H11D C16D 1_555 1_555
C17A C16A 1_555 1_555
H12A C17A 1_555 1_555
N1D C6E 1_555 1_555
O1E C1 1_555 1_555
O1A Rh1 1_555 1_555
O1D C1A 1_555 1_555
O1E_2 Rh1D 1_555 1_555
O1D_2 Rh1D 1_555 1_555
O3E C13 1_555 1_555
O3A Rh1 1_555 1_555
O3D C13A 1_555 1_555
O3E_2 Rh1D 1_555 1_555
O3D_2 Rh1D 1_555 1_555
O6E O5 1_555 1_555
Rh1D N1D 1_555 1_555
Rh1D_2 Rh1 1_555 1_555
Rh1_2 Rh1D 1_555 1_555
O1 Rh1 1_555 1_555
O3 Rh1 1_555 1_555
C1A O1A 1_555 1_555
C3E C4E 1_555 1_555
C4D C5A 1_555 1_555
C6D N1D 1_555 1_555
C13A O3A 1_555 1_555
C15E C16E 1_555 1_555
C16D C17A 1_555 1_555
O1E Rh1D_2 1_555 1_555
O1D Rh1D_2 1_555 1_555
O3E Rh1D_2 1_555 1_555
O3D Rh1D_2 1_555 1_555

#END
