
#######################################################################
#
#                 Cambridge Crystallographic Data Centre
#                                CCDC 
#
#######################################################################
#
# If this CIF has been generated from an entry in the Cambridge 
# Structural Database, then it will include bibliographic, chemical, 
# crystal, experimental, refinement or atomic coordinate data resulting 
# from the CCDC's data processing and validation procedures.
#
#######################################################################

data_ACIZIX
_symmetry_cell_setting           monoclinic
_symmetry_space_group_name_H-M   'P 21/c'
_symmetry_Int_Tables_number      14
_space_group_name_Hall           '-P 2ybc'
loop_
_symmetry_equiv_pos_site_id
_symmetry_equiv_pos_as_xyz
1 x,y,z
2 -x,1/2+y,1/2-z
3 -x,-y,-z
4 x,1/2-y,1/2+z
_cell_length_a                   10.0311(7)
_cell_length_b                   13.0707(5)
_cell_length_c                   7.0632(3)
_cell_angle_alpha                90
_cell_angle_beta                 96.682(7)
_cell_angle_gamma                90
_cell_volume                     919.79
loop_
_atom_site_label
_atom_site_type_symbol
_atom_site_fract_x
_atom_site_fract_y
_atom_site_fract_z
I1 I 0.80667(5) 0.65100(4) 0.26338(7)
O1 O 0.8005(7) 0.5670(6) 0.0618(10)
O2 O 0.8102(7) 0.7757(6) 0.1561(10)
C1 C 0.6009(9) 0.6439(7) 0.2954(12)
C2 C 0.5337(10) 0.5531(8) 0.2496(15)
C3 C 0.3968(10) 0.5466(8) 0.2752(15)
C4 C 0.3357(9) 0.6300(8) 0.3515(12)
S1 S 0.1680(2) 0.61485(18) 0.4032(3)
O3 O 0.0879(8) 0.5871(8) 0.2270(12)
O4 O 0.1273(8) 0.7108(6) 0.4812(12)
O5 O 0.1734(8) 0.5328(8) 0.5405(14)
C5 C 0.4034(9) 0.7207(7) 0.3901(14)
C6 C 0.5381(9) 0.7292(8) 0.3617(13)
K1 K 0.9757(2) 0.39243(17) 0.1628(3)
H1 H 0.5784 0.4980 0.2014
H2 H 0.3485 0.4876 0.2429
H3 H 0.3593 0.7765 0.4353
H4 H 0.5853 0.7896 0.3865
O1B O 1.1995(7) 0.4330(6) -0.0618(10)
O2A O 1.1898(7) 0.2757(6) 0.3439(10)
O3_2 O 1.0879(8) 0.5871(8) 0.2270(12)
O3B O 0.9121(8) 0.4129(8) -0.2270(12)
O4A O 0.8727(8) 0.2108(6) 0.0188(12)
O4B O 0.8727(8) 0.2892(6) 0.5188(12)
O5B O 0.8266(8) 0.4672(8) 0.4595(14)
K1B K 1.0243(2) 0.60757(17) -0.1628(3)
K1A K 1.0243(2) 0.89243(17) 0.3372(3)
K1_2 K -0.0243(2) 0.39243(17) 0.1628(3)
K1B_2 K 0.0243(2) 0.60757(17) -0.1628(3)
K1A_2 K 0.0243(2) 0.89243(17) 0.3372(3)
K1B_3 K 0.0243(2) 0.60757(17) 0.8372(3)
loop_
_geom_bond_atom_site_label_1
_geom_bond_atom_site_label_2
_geom_bond_site_symmetry_1
_geom_bond_site_symmetry_2
I1 O1 1_555 1_555
O1 K1 1_555 1_555
O2 I1 1_555 1_555
C1 I1 1_555 1_555
C2 C1 1_555 1_555
C3 C2 1_555 1_555
C4 C3 1_555 1_555
S1 C4 1_555 1_555
O3 S1 1_555 1_555
O4 S1 1_555 1_555
O5 S1 1_555 1_555
C5 C4 1_555 1_555
C6 C1 1_555 1_555
K1 O1B 1_555 1_555
H1 C2 1_555 1_555
H2 C3 1_555 1_555
H3 C5 1_555 1_555
H4 C6 1_555 1_555
O1B K1B 1_555 1_555
O2A K1 1_555 1_555
O3_2 K1 1_555 1_555
O3B K1 1_555 1_555
O4A K1 1_555 1_555
O4B K1 1_555 1_555
O5B K1 1_555 1_555
K1B O1 1_555 1_555
K1A O2 1_555 1_555
K1_2 O3 1_555 1_555
K1B_2 O3 1_555 1_555
K1A_2 O4 1_555 1_555
K1B_3 O4 1_555 1_555
O5 K1B_3 1_555 1_555
C5 C6 1_555 1_555
O3_2 K1B 1_555 1_555
O3B K1B 1_555 1_555

#END
