
#######################################################################
#
#                 Cambridge Crystallographic Data Centre
#                                CCDC 
#
#######################################################################
#
# If this CIF has been generated from an entry in the Cambridge 
# Structural Database, then it will include bibliographic, chemical, 
# crystal, experimental, refinement or atomic coordinate data resulting 
# from the CCDC's data processing and validation procedures.
#
#######################################################################

data_ACODED
_symmetry_cell_setting           orthorhombic
_symmetry_space_group_name_H-M   'P b c n'
_symmetry_Int_Tables_number      60
_space_group_name_Hall           '-P 2n 2ab'
loop_
_symmetry_equiv_pos_site_id
_symmetry_equiv_pos_as_xyz
1 x,y,z
2 1/2-x,1/2-y,1/2+z
3 -x,y,1/2-z
4 1/2+x,1/2-y,-z
5 -x,-y,-z
6 1/2+x,1/2+y,1/2-z
7 x,-y,1/2+z
8 1/2-x,1/2+y,z
_cell_length_a                   16.0811(4)
_cell_length_b                   24.0918(6)
_cell_length_c                   14.2992(4)
_cell_angle_alpha                90
_cell_angle_beta                 90
_cell_angle_gamma                90
_cell_volume                     5539.83
loop_
_atom_site_label
_atom_site_type_symbol
_atom_site_fract_x
_atom_site_fract_y
_atom_site_fract_z
Cu1 Cu 0.439732(16) 0.647317(10) 0.811672(18)
O1 O 0.33839(10) 0.64613(6) 0.90240(11)
O2 O 0.04119(19) 0.47765(16) 0.6016(2)
O3 O 0.0520(2) 0.56142(19) 0.5366(2)
H1 H 0.0100 0.5525 0.5052
O4 O 0.11259(10) 0.80333(7) 1.21961(11)
O5 O 0.40110(10) 0.41774(6) 1.23962(10)
O6 O 0.48386(9) 0.40017(6) 1.11631(10)
O7 O -0.00415(10) 0.78739(6) 1.13560(12)
P1 P 0.26673(4) 0.61111(2) 0.93235(4)
C1 C 0.20525(15) 0.58670(11) 0.83593(16)
C2 C 0.16329(18) 0.53591(14) 0.8382(2)
H2 H 0.1662 0.5134 0.8927
C3 C 0.11764(19) 0.51799(17) 0.7620(2)
H3 H 0.0901 0.4831 0.7643
C4 C 0.1119(2) 0.54969(18) 0.6845(3)
C5 C 0.1513(3) 0.60032(19) 0.6803(2)
H4 H 0.1453 0.6227 0.6260
C6 C 0.2006(2) 0.61954(13) 0.7560(2)
H5 H 0.2296 0.6538 0.7521
C7 C 0.0636(2) 0.5268(2) 0.5987(3)
C8 C 0.20144(15) 0.65309(9) 1.00549(15)
C9 C 0.11737(16) 0.66080(11) 0.9893(2)
H6 H 0.0892 0.6389 0.9440
C10 C 0.24129(17) 0.68393(12) 1.07426(19)
H7 H 0.2986 0.6777 1.0867
C11 C 0.30171(13) 0.55160(9) 0.99746(15)
C12 C 0.36260(14) 0.51868(10) 0.95587(15)
H8 H 0.3781 0.5250 0.8926
C13 C 0.19841(16) 0.72345(11) 1.12450(19)
H9 H 0.2260 0.7443 1.1716
C14 C 0.11491(14) 0.73264(9) 1.10620(16)
C15 C 0.07424(16) 0.70114(12) 1.0401(2)
H10 H 0.0166 0.7069 1.0289
C16 C 0.07074(14) 0.77801(10) 1.15794(17)
C17 C 0.27693(15) 0.54098(10) 1.08920(16)
H11 H 0.2339 0.5624 1.1169
C18 C 0.31540(15) 0.49883(10) 1.14009(16)
H12 H 0.2986 0.4915 1.2026
C19 C 0.37842(14) 0.46742(9) 1.09936(15)
C20 C 0.40062(14) 0.47672(9) 1.00655(15)
H13 H 0.4419 0.4543 0.9779
C21 C 0.42439(13) 0.42516(9) 1.15632(15)
Cu1A Cu 0.060268(16) 0.852683(10) 1.311672(18)
Cu1F Cu 0.439732(16) 0.352683(10) 1.311672(18)
Cu1D Cu 0.560268(16) 0.352683(10) 1.188328(18)
Cu1C Cu -0.060268(16) 0.852683(10) 1.188328(18)
O4A O 0.38741(10) 0.69667(7) 0.71961(11)
O5F O 0.40110(10) 0.58226(6) 0.73962(10)
O6D O 0.51614(9) 0.59983(6) 0.88369(10)
O7C O 0.49585(10) 0.71261(6) 0.86440(12)
loop_
_geom_bond_atom_site_label_1
_geom_bond_atom_site_label_2
_geom_bond_site_symmetry_1
_geom_bond_site_symmetry_2
Cu1 O1 1_555 1_555
O1 P1 1_555 1_555
O2 C7 1_555 1_555
O3 H1 1_555 1_555
O4 C16 1_555 1_555
O5 C21 1_555 1_555
O6 C21 1_555 1_555
O7 C16 1_555 1_555
P1 C1 1_555 1_555
C1 C2 1_555 1_555
C2 H2 1_555 1_555
C3 C2 1_555 1_555
H3 C3 1_555 1_555
C4 C3 1_555 1_555
C5 C4 1_555 1_555
H4 C5 1_555 1_555
C6 C1 1_555 1_555
H5 C6 1_555 1_555
C7 O3 1_555 1_555
C8 P1 1_555 1_555
C9 C8 1_555 1_555
H6 C9 1_555 1_555
C10 C8 1_555 1_555
H7 C10 1_555 1_555
C11 P1 1_555 1_555
C12 C11 1_555 1_555
H8 C12 1_555 1_555
C13 C10 1_555 1_555
H9 C13 1_555 1_555
C14 C13 1_555 1_555
C15 C9 1_555 1_555
H10 C15 1_555 1_555
C16 C14 1_555 1_555
C17 C11 1_555 1_555
H11 C17 1_555 1_555
C18 C17 1_555 1_555
H12 C18 1_555 1_555
C19 C18 1_555 1_555
C20 C12 1_555 1_555
H13 C20 1_555 1_555
C21 C19 1_555 1_555
Cu1A O4 1_555 1_555
Cu1F O5 1_555 1_555
Cu1D O6 1_555 1_555
Cu1C O7 1_555 1_555
O4A Cu1 1_555 1_555
O5F Cu1 1_555 1_555
O6D Cu1 1_555 1_555
O7C Cu1 1_555 1_555
C4 C7 1_555 1_555
C5 C6 1_555 1_555
C14 C15 1_555 1_555
C19 C20 1_555 1_555

#END
