
#######################################################################
#
#                 Cambridge Crystallographic Data Centre
#                                CCDC 
#
#######################################################################
#
# If this CIF has been generated from an entry in the Cambridge 
# Structural Database, then it will include bibliographic, chemical, 
# crystal, experimental, refinement or atomic coordinate data resulting 
# from the CCDC's data processing and validation procedures.
#
#######################################################################

data_ACOFUU
_symmetry_cell_setting           monoclinic
_symmetry_space_group_name_H-M   'P 21/c'
_symmetry_Int_Tables_number      14
_space_group_name_Hall           '-P 2ybc'
loop_
_symmetry_equiv_pos_site_id
_symmetry_equiv_pos_as_xyz
1 x,y,z
2 -x,1/2+y,1/2-z
3 -x,-y,-z
4 x,1/2-y,1/2+z
_cell_length_a                   10.5783(5)
_cell_length_b                   26.5867(12)
_cell_length_c                   15.7293(7)
_cell_angle_alpha                90
_cell_angle_beta                 108.604(2)
_cell_angle_gamma                90
_cell_volume                     4192.58
loop_
_atom_site_label
_atom_site_type_symbol
_atom_site_fract_x
_atom_site_fract_y
_atom_site_fract_z
Zn1 Zn -0.93295(9) 0.17750(3) -0.57767(7)
Br1 Br -1.09079(11) 0.12141(4) -0.66850(10)
Br2 Br -0.95032(14) 0.19343(5) -0.43486(8)
O1 O 0.4389(5) -0.0144(2) -0.3758(4)
O2 O 0.2238(5) 0.0900(2) -0.2428(4)
N1 N 0.2540(6) 0.0009(2) -0.4900(4)
N2 N 0.0587(5) 0.0513(2) -0.3496(4)
N3 N 0.4020(6) -0.0622(2) -0.5010(4)
H1 H 0.3464 -0.0677 -0.5535
N4 N 0.7476(6) -0.1489(2) -0.4393(5)
N5 N 0.0095(6) 0.1152(2) -0.2652(4)
H2 H -0.0705 0.1035 -0.2818
N6 N 0.0556(6) 0.2560(2) -0.1408(4)
C1 C 0.2145(7) 0.0386(3) -0.4364(5)
H3 H 0.1497 0.0609 -0.4763
H4 H 0.2920 0.0587 -0.4051
C2 C 0.1555(7) 0.0175(3) -0.3687(5)
H5 H 0.2268 0.0107 -0.3133
H6 H 0.1120 -0.0142 -0.3909
C3 C 0.1607(7) -0.0100(3) -0.5794(5)
H7 H 0.2105 -0.0168 -0.6203
H8 H 0.1050 0.0192 -0.6014
C4 C -0.0731(7) 0.0549(3) -0.4226(5)
H9 H -0.1180 0.0856 -0.4151
H10 H -0.0585 0.0564 -0.4804
C5 C 0.3683(7) -0.0244(3) -0.4497(5)
C6 C 0.7282(9) -0.1181(3) -0.3779(6)
H11 H 0.7946 -0.1159 -0.3226
C7 C 0.6137(8) -0.0888(4) -0.3921(6)
H12 H 0.6037 -0.0681 -0.3470
C8 C 0.5148(7) -0.0913(3) -0.4755(5)
C9 C 0.5343(8) -0.1257(3) -0.5361(6)
H13 H 0.4689 -0.1300 -0.5914
C10 C 0.6478(8) -0.1531(3) -0.5156(6)
H14 H 0.6564 -0.1763 -0.5577
C11 C 0.1073(7) 0.0864(2) -0.2831(5)
C12 C 0.1613(8) 0.2293(3) -0.1392(6)
H15 H 0.2449 0.2428 -0.1098
C13 C 0.1559(7) 0.1821(3) -0.1786(6)
H16 H 0.2337 0.1648 -0.1757
C14 C 0.0312(7) 0.1614(2) -0.2225(5)
C15 C -0.0795(7) 0.1901(3) -0.2248(6)
H17 H -0.1648 0.1778 -0.2533
C16 C -0.0631(8) 0.2363(3) -0.1852(6)
H18 H -0.1390 0.2552 -0.1894
Zn1B Zn 0.93295(9) -0.17750(3) -0.42233(7)
Zn1C Zn 0.06705(9) 0.32250(3) -0.07767(7)
Zn1A Zn -0.06705(9) -0.32250(3) -0.92233(7)
Br1B Br 1.09079(11) -0.12141(4) -0.33150(10)
Br2B Br 0.95032(14) -0.19343(5) -0.56514(8)
O1B O -0.4389(5) 0.0144(2) -0.6242(4)
O2B O -0.2238(5) -0.0900(2) -0.7572(4)
N1B N -0.2540(6) -0.0009(2) -0.5100(4)
N2B N -0.0587(5) -0.0513(2) -0.6504(4)
N3B N -0.4020(6) 0.0622(2) -0.4990(4)
H1B H -0.3464 0.0677 -0.4465
N4B N -0.7476(6) 0.1489(2) -0.5607(5)
N5B N -0.0095(6) -0.1152(2) -0.7348(4)
H2B H 0.0705 -0.1035 -0.7182
N6B N -0.0556(6) -0.2560(2) -0.8592(4)
N6A N 0.9444(6) -0.2440(2) -0.3592(4)
N6C N -0.9444(6) 0.2440(2) -0.6408(4)
C1B C -0.2145(7) -0.0386(3) -0.5636(5)
H3B H -0.1497 -0.0609 -0.5237
H4B H -0.2920 -0.0587 -0.5949
C2B C -0.1555(7) -0.0175(3) -0.6313(5)
H5B H -0.2268 -0.0107 -0.6867
H6B H -0.1120 0.0142 -0.6091
C3B C -0.1607(7) 0.0100(3) -0.4206(5)
H7B H -0.2105 0.0168 -0.3797
H8B H -0.1050 -0.0192 -0.3986
C4B C 0.0731(7) -0.0549(3) -0.5774(5)
H9B H 0.1180 -0.0856 -0.5849
H10B H 0.0585 -0.0564 -0.5196
C5B C -0.3683(7) 0.0244(3) -0.5503(5)
C6B C -0.7282(9) 0.1181(3) -0.6221(6)
H11B H -0.7946 0.1159 -0.6774
C7B C -0.6137(8) 0.0888(4) -0.6079(6)
H12B H -0.6037 0.0681 -0.6530
C8B C -0.5148(7) 0.0913(3) -0.5245(5)
C9B C -0.5343(8) 0.1257(3) -0.4639(6)
H13B H -0.4689 0.1300 -0.4086
C10B C -0.6478(8) 0.1531(3) -0.4844(6)
H14B H -0.6564 0.1763 -0.4423
C11B C -0.1073(7) -0.0864(2) -0.7169(5)
C12B C -0.1613(8) -0.2293(3) -0.8608(6)
H15B H -0.2449 -0.2428 -0.8902
C13B C -0.1559(7) -0.1821(3) -0.8214(6)
H16B H -0.2337 -0.1648 -0.8243
C14B C -0.0312(7) -0.1614(2) -0.7775(5)
C15B C 0.0795(7) -0.1901(3) -0.7752(6)
H17B H 0.1648 -0.1778 -0.7467
C16B C 0.0631(8) -0.2363(3) -0.8148(6)
H18B H 0.1390 -0.2552 -0.8106
S1 S 0.2859(2) -0.08267(11) -0.78986(16)
O3 O 0.2692(5) -0.0874(2) -0.6980(3)
C17 C 0.4559(13) -0.0968(7) -0.7749(9)
H19 H 0.4771 -0.1294 -0.7480
H20 H 0.5119 -0.0720 -0.7366
H21 H 0.4705 -0.0966 -0.8321
C18 C 0.2929(19) -0.0178(5) -0.8094(10)
H22 H 0.2125 -0.0021 -0.8067
H23 H 0.3017 -0.0125 -0.8676
H24 H 0.3682 -0.0034 -0.7644
O4 O -0.0932(15) -0.1062(5) -0.1145(7)
H25 H -0.0758 -0.1114 -0.0605
C19 C -0.2354(19) -0.1076(7) -0.1564(9)
H26 H -0.2643 -0.1419 -0.1670
H27 H -0.2587 -0.0898 -0.2124
H28 H -0.2780 -0.0920 -0.1177
O5 O 0.5203(9) -0.2684(4) -0.6854(6)
H29 H 0.5597 -0.2734 -0.7213
C20 C 0.4275(19) -0.2241(7) -0.7167(15)
H30 H 0.3657 -0.2311 -0.7751
H31 H 0.4786 -0.1947 -0.7196
H32 H 0.3792 -0.2184 -0.6752
O6 O 0.4084(11) -0.0955(5) -0.0643(6)
H33 H 0.4335 -0.0744 -0.0941
C21 C 0.349(2) -0.0691(11) -0.0017(13)
H34 H 0.3803 -0.0349 0.0062
H35 H 0.3764 -0.0859 0.0553
H36 H 0.2539 -0.0695 -0.0264
O7 O 0.3820(11) -0.2504(6) -0.4887(9)
H37 H 0.3221 -0.2667 -0.4679
C22 C 0.505(2) -0.2805(15) -0.469(2)
H39 H 0.5703 -0.2622 -0.4874
H40 H 0.4858 -0.3118 -0.5009
H41 H 0.5395 -0.2870 -0.4057
H38? H 0.4450 -0.2712 -0.4944
C23? C 0.301(3) -0.2855(14) -0.454(2)
H42? H 0.2159 -0.2708 -0.4605
H43? H 0.3468 -0.2918 -0.3911
H44? H 0.2898 -0.3166 -0.4862
loop_
_geom_bond_atom_site_label_1
_geom_bond_atom_site_label_2
_geom_bond_site_symmetry_1
_geom_bond_site_symmetry_2
Zn1 Br1 1_555 1_555
Br2 Zn1 1_555 1_555
O1 C5 1_555 1_555
O2 C11 1_555 1_555
N1 C1 1_555 1_555
N2 C2 1_555 1_555
N3 H1 1_555 1_555
N4 C6 1_555 1_555
N5 H2 1_555 1_555
N6 C12 1_555 1_555
C1 H3 1_555 1_555
H4 C1 1_555 1_555
C2 C1 1_555 1_555
H5 C2 1_555 1_555
H6 C2 1_555 1_555
C3 N1 1_555 1_555
H7 C3 1_555 1_555
H8 C3 1_555 1_555
C4 N2 1_555 1_555
H9 C4 1_555 1_555
H10 C4 1_555 1_555
C5 N1 1_555 1_555
C6 H11 1_555 1_555
C7 C6 1_555 1_555
H12 C7 1_555 1_555
C8 N3 1_555 1_555
C9 C8 1_555 1_555
H13 C9 1_555 1_555
C10 N4 1_555 1_555
H14 C10 1_555 1_555
C11 N2 1_555 1_555
C12 H15 1_555 1_555
C13 C12 1_555 1_555
H16 C13 1_555 1_555
C14 N5 1_555 1_555
C15 C14 1_555 1_555
H17 C15 1_555 1_555
C16 N6 1_555 1_555
H18 C16 1_555 1_555
S1 O3 1_555 1_555
C17 S1 1_555 1_555
H19 C17 1_555 1_555
H20 C17 1_555 1_555
H21 C17 1_555 1_555
C18 S1 1_555 1_555
H22 C18 1_555 1_555
H23 C18 1_555 1_555
H24 C18 1_555 1_555
O4 H25 1_555 1_555
C19 O4 1_555 1_555
H26 C19 1_555 1_555
H27 C19 1_555 1_555
H28 C19 1_555 1_555
O5 H29 1_555 1_555
C20 O5 1_555 1_555
H30 C20 1_555 1_555
H31 C20 1_555 1_555
H32 C20 1_555 1_555
O6 H33 1_555 1_555
C21 O6 1_555 1_555
H34 C21 1_555 1_555
H35 C21 1_555 1_555
H36 C21 1_555 1_555
O7 H37 1_555 1_555
C22 O7 1_555 1_555
H39 C22 1_555 1_555
H40 C22 1_555 1_555
H41 C22 1_555 1_555
Zn1B N4 1_555 1_555
Zn1C N6 1_555 1_555
Zn1A N6B 1_555 1_555
Br1B Zn1B 1_555 1_555
Br2B Zn1B 1_555 1_555
O1B C5B 1_555 1_555
O2B C11B 1_555 1_555
N1B C1B 1_555 1_555
N2B C2B 1_555 1_555
N3B H1B 1_555 1_555
N4B Zn1 1_555 1_555
N5B H2B 1_555 1_555
N6B C12B 1_555 1_555
N6A Zn1B 1_555 1_555
N6C Zn1 1_555 1_555
C1B H3B 1_555 1_555
H4B C1B 1_555 1_555
C2B C1B 1_555 1_555
H5B C2B 1_555 1_555
H6B C2B 1_555 1_555
C3B C4 1_555 1_555
H7B C3B 1_555 1_555
H8B C3B 1_555 1_555
C4B C3 1_555 1_555
H9B C4B 1_555 1_555
H10B C4B 1_555 1_555
C5B N1B 1_555 1_555
C6B N4B 1_555 1_555
H11B C6B 1_555 1_555
C7B C6B 1_555 1_555
H12B C7B 1_555 1_555
C8B N3B 1_555 1_555
C9B C8B 1_555 1_555
H13B C9B 1_555 1_555
C10B N4B 1_555 1_555
H14B C10B 1_555 1_555
C11B N2B 1_555 1_555
C12B H15B 1_555 1_555
C13B C12B 1_555 1_555
H16B C13B 1_555 1_555
C14B N5B 1_555 1_555
C15B C14B 1_555 1_555
H17B C15B 1_555 1_555
C16B N6B 1_555 1_555
H18B C16B 1_555 1_555
N3 C5 1_555 1_555
N5 C11 1_555 1_555
C7 C8 1_555 1_555
C9 C10 1_555 1_555
C13 C14 1_555 1_555
C15 C16 1_555 1_555
N1B C3B 1_555 1_555
N2B C4B 1_555 1_555
N3B C5B 1_555 1_555
N5B C11B 1_555 1_555
C7B C8B 1_555 1_555
C9B C10B 1_555 1_555
C13B C14B 1_555 1_555
C15B C16B 1_555 1_555

#END
