
#######################################################################
#
#                 Cambridge Crystallographic Data Centre
#                                CCDC 
#
#######################################################################
#
# If this CIF has been generated from an entry in the Cambridge 
# Structural Database, then it will include bibliographic, chemical, 
# crystal, experimental, refinement or atomic coordinate data resulting 
# from the CCDC's data processing and validation procedures.
#
#######################################################################

data_ACOGEF
_symmetry_cell_setting           monoclinic
_symmetry_space_group_name_H-M   'C 2/c'
_symmetry_Int_Tables_number      15
_space_group_name_Hall           '-C 2yn'
loop_
_symmetry_equiv_pos_site_id
_symmetry_equiv_pos_as_xyz
1 x,y,z
2 1/2+x,1/2+y,z
3 -x,y,1/2-z
4 1/2-x,1/2+y,1/2-z
5 -x,-y,-z
6 1/2-x,1/2-y,-z
7 x,-y,1/2+z
8 1/2+x,1/2-y,1/2+z
_cell_length_a                   33.074(3)
_cell_length_b                   9.8463(7)
_cell_length_c                   16.8512(12)
_cell_angle_alpha                90
_cell_angle_beta                 101.712(2)
_cell_angle_gamma                90
_cell_volume                     5373.45
loop_
_atom_site_label
_atom_site_type_symbol
_atom_site_fract_x
_atom_site_fract_y
_atom_site_fract_z
Cd1 Cd 1.0000 0.0000 0.5000
I1 I 1.046806(11) 0.25904(3) 0.46969(2)
O1 O 0.82753(12) -0.0660(4) 0.1408(2)
O2 O 0.80437(11) 0.6678(4) -0.0422(2)
N1 N 0.81837(11) 0.0942(4) 0.0432(2)
N2 N 0.79596(12) 0.4635(4) 0.0122(2)
N3 N 0.87610(12) 0.0993(5) 0.1475(3)
H1 H 0.8831 0.1693 0.1230
N4 N 0.95874(14) 0.0047(5) 0.3638(3)
N5 N 0.85691(12) 0.5846(4) 0.0550(3)
H2 H 0.8634 0.5234 0.0918
N6 N 0.94948(11) 0.8678(4) 0.0391(3)
C1 C 0.82615(14) 0.2309(5) 0.0151(3)
H3 H 0.8131 0.2391 -0.0416
H4 H 0.8556 0.2424 0.0194
C2 C 0.81014(14) 0.3454(5) 0.0630(3)
H5 H 0.7875 0.3111 0.0859
H6 H 0.8321 0.3732 0.1074
C3 C 0.78022(14) 0.0271(5) 0.0029(3)
H7 H 0.7850 -0.0701 0.0023
H8 H 0.7731 0.0578 -0.0529
C4 C 0.75599(13) 0.4455(5) -0.0436(3)
H9 H 0.7545 0.5067 -0.0892
H10 H 0.7541 0.3533 -0.0643
C5 C 0.83958(14) 0.0357(5) 0.1123(3)
C6 C 0.9268(3) -0.0709(8) 0.3351(6)
H11 H 0.9230 -0.1475 0.3650
C7 C 0.8983(3) -0.0486(8) 0.2652(5)
H12 H 0.8763 -0.1081 0.2497
C8 C 0.90248(15) 0.0605(6) 0.2188(3)
C9 C 0.9365(2) 0.1342(12) 0.2446(5)
H13 H 0.9421 0.2088 0.2148
C10 C 0.9636(2) 0.0995(13) 0.3162(5)
H14 H 0.9876 0.1510 0.3303
C11 C 0.81802(13) 0.5781(4) 0.0053(3)
C12 C 0.91014(16) 0.8939(5) 0.0059(4)
H15 H 0.9041 0.9759 -0.0213
C13 C 0.87771(15) 0.8065(5) 0.0094(4)
H16 H 0.8508 0.8299 -0.0146
C14 C 0.88623(13) 0.6836(5) 0.0492(3)
C15 C 0.92703(15) 0.6567(6) 0.0853(3)
H17 H 0.9340 0.5765 0.1140
C16 C 0.95670(16) 0.7493(5) 0.0782(4)
H18 H 0.9839 0.7286 0.1021
O1E O 0.67247(12) 0.5660(4) -0.1408(2)
O2E O 0.69563(11) -0.1678(4) 0.0422(2)
N1E N 0.68163(11) 0.4058(4) -0.0432(2)
N2E N 0.70404(12) 0.0365(4) -0.0122(2)
N3E N 0.62390(12) 0.4007(5) -0.1475(3)
H1E H 0.6169 0.3307 -0.1230
N4E N 0.54126(14) 0.4953(5) -0.3638(3)
N5E N 0.64309(12) -0.0846(4) -0.0550(3)
H2E H 0.6366 -0.0234 -0.0918
N6E N 0.55052(11) -0.3678(4) -0.0391(3)
C1E C 0.67385(14) 0.2691(5) -0.0151(3)
H3E H 0.6869 0.2609 0.0416
H4E H 0.6444 0.2576 -0.0194
C2E C 0.68986(14) 0.1546(5) -0.0630(3)
H5E H 0.7125 0.1889 -0.0859
H6E H 0.6679 0.1268 -0.1074
C3E C 0.71978(14) 0.4729(5) -0.0029(3)
H7E H 0.7150 0.5701 -0.0023
H8E H 0.7269 0.4422 0.0529
C4E C 0.74401(13) 0.0545(5) 0.0436(3)
H9E H 0.7455 -0.0067 0.0892
H10E H 0.7459 0.1467 0.0643
C5E C 0.66042(14) 0.4643(5) -0.1123(3)
C6E C 0.5732(3) 0.5709(8) -0.3351(6)
H11E H 0.5770 0.6475 -0.3650
C7E C 0.6017(3) 0.5486(8) -0.2652(5)
H12E H 0.6237 0.6081 -0.2497
C8E C 0.59752(15) 0.4395(6) -0.2188(3)
C9E C 0.5635(2) 0.3658(12) -0.2446(5)
H13E H 0.5579 0.2912 -0.2148
C10E C 0.5364(2) 0.4005(13) -0.3162(5)
H14E H 0.5124 0.3490 -0.3303
C11E C 0.68198(13) -0.0781(4) -0.0053(3)
C12E C 0.58986(16) -0.3939(5) -0.0059(4)
H15E H 0.5959 -0.4759 0.0213
C13E C 0.62229(15) -0.3065(5) -0.0094(4)
H16E H 0.6492 -0.3299 0.0146
C14E C 0.61377(13) -0.1836(5) -0.0492(3)
C15E C 0.57297(15) -0.1567(6) -0.0853(3)
H17E H 0.5660 -0.0765 -0.1140
C16E C 0.54330(16) -0.2493(5) -0.0782(4)
H18E H 0.5161 -0.2286 -0.1021
I1D I 0.953194(11) -0.25904(3) 0.53031(2)
Cd1A Cd 0.5000 0.5000 -0.5000
Cd1B Cd 1.0000 1.0000 0.0000
Cd1C Cd 0.5000 -0.5000 0.0000
N4D N 1.04126(14) -0.0047(5) 0.6362(3)
N6B N 1.05052(11) -0.1322(4) 0.4609(3)
N6F N 0.94948(11) 0.1322(4) 0.5391(3)
S1 S 0.25193(7) 0.79459(19) 0.26701(10)
O3 O 0.2302(2) 0.7907(8) 0.1811(3)
C17 C 0.2967(3) 0.6946(12) 0.2735(5)
H19 H 0.2889 0.6018 0.2615
H20 H 0.3131 0.7005 0.3273
H21 H 0.3124 0.7271 0.2353
C18 C 0.2264(2) 0.6846(7) 0.3215(5)
H22 H 0.2004 0.7236 0.3263
H23 H 0.2430 0.6704 0.3746
H24 H 0.2217 0.5992 0.2936
S2? S 0.10103(11) 0.5396(4) 0.21767(17)
O4? O 0.1159(2) 0.4492(6) 0.2877(3)
C19? C 0.1221(8) 0.488(3) 0.1658(14)
H25? H 0.1497 0.5238 0.1773
H26? H 0.1089 0.5128 0.1116
H27? H 0.1230 0.3912 0.1707
C20? C 0.0588(6) 0.475(2) 0.1606(12)
H28? H 0.0604 0.4271 0.1139
H29? H 0.0334 0.4875 0.1753
loop_
_geom_bond_atom_site_label_1
_geom_bond_atom_site_label_2
_geom_bond_site_symmetry_1
_geom_bond_site_symmetry_2
Cd1 I1 1_555 1_555
O1 C5 1_555 1_555
O2 C11 1_555 1_555
N1 C1 1_555 1_555
N2 C2 1_555 1_555
N3 H1 1_555 1_555
N4 Cd1 1_555 1_555
N5 H2 1_555 1_555
N6 C12 1_555 1_555
C1 H3 1_555 1_555
H4 C1 1_555 1_555
C2 C1 1_555 1_555
H5 C2 1_555 1_555
H6 C2 1_555 1_555
C3 N1 1_555 1_555
H7 C3 1_555 1_555
H8 C3 1_555 1_555
C4 N2 1_555 1_555
H9 C4 1_555 1_555
H10 C4 1_555 1_555
C5 N1 1_555 1_555
C6 N4 1_555 1_555
H11 C6 1_555 1_555
C7 C6 1_555 1_555
H12 C7 1_555 1_555
C8 N3 1_555 1_555
C9 C8 1_555 1_555
H13 C9 1_555 1_555
C10 N4 1_555 1_555
H14 C10 1_555 1_555
C11 N2 1_555 1_555
C12 H15 1_555 1_555
C13 C12 1_555 1_555
H16 C13 1_555 1_555
C14 N5 1_555 1_555
C15 C14 1_555 1_555
H17 C15 1_555 1_555
C16 N6 1_555 1_555
H18 C16 1_555 1_555
S1 O3 1_555 1_555
C17 S1 1_555 1_555
H19 C17 1_555 1_555
H20 C17 1_555 1_555
H21 C17 1_555 1_555
C18 S1 1_555 1_555
H22 C18 1_555 1_555
H23 C18 1_555 1_555
H24 C18 1_555 1_555
O1E C5E 1_555 1_555
O2E C11E 1_555 1_555
N1E C1E 1_555 1_555
N2E C2E 1_555 1_555
N3E H1E 1_555 1_555
N4E C6E 1_555 1_555
N5E H2E 1_555 1_555
N6E C12E 1_555 1_555
C1E H3E 1_555 1_555
H4E C1E 1_555 1_555
C2E C1E 1_555 1_555
H5E C2E 1_555 1_555
H6E C2E 1_555 1_555
C3E C4 1_555 1_555
H7E C3E 1_555 1_555
H8E C3E 1_555 1_555
C4E C3 1_555 1_555
H9E C4E 1_555 1_555
H10E C4E 1_555 1_555
C5E N1E 1_555 1_555
C6E H11E 1_555 1_555
C7E C6E 1_555 1_555
H12E C7E 1_555 1_555
C8E N3E 1_555 1_555
C9E C8E 1_555 1_555
H13E C9E 1_555 1_555
C10E N4E 1_555 1_555
H14E C10E 1_555 1_555
C11E N2E 1_555 1_555
C12E H15E 1_555 1_555
C13E C12E 1_555 1_555
H16E C13E 1_555 1_555
C14E N5E 1_555 1_555
C15E C14E 1_555 1_555
H17E C15E 1_555 1_555
C16E N6E 1_555 1_555
H18E C16E 1_555 1_555
I1D Cd1 1_555 1_555
Cd1A N4E 1_555 1_555
Cd1B N6 1_555 1_555
Cd1C N6E 1_555 1_555
N4D Cd1 1_555 1_555
N6B Cd1 1_555 1_555
N6F Cd1 1_555 1_555
N3 C5 1_555 1_555
N5 C11 1_555 1_555
C7 C8 1_555 1_555
C9 C10 1_555 1_555
C13 C14 1_555 1_555
C15 C16 1_555 1_555
N1E C3E 1_555 1_555
N2E C4E 1_555 1_555
N3E C5E 1_555 1_555
N5E C11E 1_555 1_555
C7E C8E 1_555 1_555
C9E C10E 1_555 1_555
C13E C14E 1_555 1_555
C15E C16E 1_555 1_555

#END
