
#######################################################################
#
#                 Cambridge Crystallographic Data Centre
#                                CCDC 
#
#######################################################################
#
# If this CIF has been generated from an entry in the Cambridge 
# Structural Database, then it will include bibliographic, chemical, 
# crystal, experimental, refinement or atomic coordinate data resulting 
# from the CCDC's data processing and validation procedures.
#
#######################################################################

data_ACOGUV
_symmetry_cell_setting           monoclinic
_symmetry_space_group_name_H-M   'C 2/c'
_symmetry_Int_Tables_number      15
_space_group_name_Hall           '-C 2yn'
loop_
_symmetry_equiv_pos_site_id
_symmetry_equiv_pos_as_xyz
1 x,y,z
2 1/2+x,1/2+y,z
3 -x,y,1/2-z
4 1/2-x,1/2+y,1/2-z
5 -x,-y,-z
6 1/2-x,1/2-y,-z
7 x,-y,1/2+z
8 1/2+x,1/2-y,1/2+z
_cell_length_a                   27.9123(16)
_cell_length_b                   11.7730(7)
_cell_length_c                   16.9549(9)
_cell_angle_alpha                90
_cell_angle_beta                 96.105(3)
_cell_angle_gamma                90
_cell_volume                     5539.98
loop_
_atom_site_label
_atom_site_type_symbol
_atom_site_fract_x
_atom_site_fract_y
_atom_site_fract_z
Zn1 Zn 0.426945(17) 0.87875(4) 0.24417(3)
Zn2 Zn 0.32240(2) 1.07303(5) 0.03035(3)
C1 C 0.4486(3) 0.6199(6) 0.1965(5)
H1 H 0.4682 0.6593 0.1631
C2 C 0.4228(2) 0.3144(6) 0.2463(4)
O1 O 0.3907(3) 0.9180(6) 0.1158(4)
C3 C 0.4210(3) 0.4421(6) 0.2440(4)
C4 C 0.4381(4) 0.2529(7) 0.1840(5)
H2 H 0.4466 0.2907 0.1380
N1 N 0.4221(2) 0.6806(5) 0.2423(3)
C5 C 0.4488(3) 0.5013(7) 0.1955(5)
H3 H 0.4680 0.4616 0.1616
O2 O 0.3145(3) 1.0819(5) 0.1647(3)
C6 C 0.3817(3) 0.8717(6) 0.0520(5)
C7 C 0.4526(3) 0.7575(7) 0.0170(4)
C8 C 0.3938(3) 0.6232(6) 0.2864(5)
H4 H 0.3731 0.6647 0.3167
O3 O 0.2952(2) 1.2327(5) 0.0928(3)
C9 C 0.4103(3) 0.2519(6) 0.3102(4)
H5 H 0.3989 0.2895 0.3542
C10 C 0.4042(3) 0.7615(6) 0.0318(4)
C11 C 0.3946(4) 0.5669(7) -0.0005(7)
H6 H 0.3750 0.5007 -0.0055
C12 C 0.3931(3) 0.5046(6) 0.2902(5)
H7 H 0.3734 0.4674 0.3246
C13 C 0.3762(3) 0.6641(7) 0.0231(6)
H8 H 0.3436 0.6667 0.0340
C14 C 0.4703(4) 0.6568(8) -0.0093(5)
H9 H 0.5026 0.6539 -0.0219
O4 O 0.4962(2) 0.8656(6) 0.1686(3)
C15 C 0.3003(2) 1.1843(6) 0.1586(4)
C16 C 0.5157(2) 0.8663(6) 0.1066(4)
C17 C 0.4143(3) 0.1354(6) 0.3102(5)
H10 H 0.4056 0.0947 0.3550
C18 C 0.2498(3) 1.4324(6) 0.0933(4)
C19 C 0.2842(3) 1.3666(6) 0.2311(4)
O5 O 0.3536(4) 0.9140(7) -0.0031(5)
C20 C 0.2894(3) 1.4397(7) 0.1596(5)
H11 H 0.3200 1.4192 0.1385
H12 H 0.2922 1.5198 0.1773
C21 C 0.2899(2) 1.2477(7) 0.2316(4)
C22 C 0.4408(4) 0.1358(7) 0.1894(5)
H13 H 0.4513 0.0951 0.1460
C23 C 0.4848(3) 0.8607(7) 0.0265(5)
H14 H 0.4645 0.9298 0.0202
H15 H 0.5062 0.8608 -0.0164
C24 C 0.2861(3) 1.1865(7) 0.3005(5)
H16 H 0.2909 1.1066 0.3003
O6 O 0.2084(2) 1.3945(5) 0.1068(3)
N2 N 0.4296(2) 0.0776(5) 0.2511(4)
O7 O 0.2573(2) 1.4681(5) 0.0268(3)
C25 C 0.2745(3) 1.4177(8) 0.3013(5)
H17 H 0.2707 1.4978 0.3027
C26 C 0.2701(4) 1.3542(9) 0.3704(5)
H18 H 0.2634 1.3913 0.4178
C27 C 0.2756(3) 1.2384(8) 0.3692(5)
H19 H 0.2722 1.1946 0.4153
C28 C 0.4427(4) 0.5614(8) -0.0179(7)
H20 H 0.4557 0.4923 -0.0352
O8 O 0.3465(2) 0.8938(6) 0.2640(4)
O9 O 0.5598(2) 0.8735(6) 0.1084(3)
O11 O 0.3846(2) 1.1925(6) 0.0033(4)
H22 H 0.4049 1.1789 -0.0441
H24 H 0.3197 0.8947 0.3039
H25 H 0.3269 0.9673 0.2294
Zn1B Zn 0.573055(17) 0.87875(4) 0.25583(3)
Zn1_2 Zn 0.426945(17) -0.12125(4) 0.24417(3)
Zn2E Zn 0.17760(2) 1.42697(5) -0.03035(3)
O4B O 0.5038(2) 0.8656(6) 0.3314(3)
O6E O 0.2916(2) 1.1055(5) -0.1068(3)
N2_2 N 0.4296(2) 1.0776(5) 0.2511(4)
O7E O 0.2427(2) 1.0319(5) -0.0268(3)
O9B O 0.4402(2) 0.8735(6) 0.3916(3)
O10 O 0.3177(2) 1.3472(6) -0.0695(4)
H21 H 0.3497 1.3535 -0.0889
H23 H 0.2915 1.3635 -0.0328
loop_
_geom_bond_atom_site_label_1
_geom_bond_atom_site_label_2
_geom_bond_site_symmetry_1
_geom_bond_site_symmetry_2
Zn1 O1 1_555 1_555
Zn2 O2 1_555 1_555
C1 H1 1_555 1_555
C2 C3 1_555 1_555
O1 C6 1_555 1_555
C3 C5 1_555 1_555
C4 C2 1_555 1_555
H2 C4 1_555 1_555
N1 Zn1 1_555 1_555
C5 C1 1_555 1_555
H3 C5 1_555 1_555
O2 C15 1_555 1_555
C6 C10 1_555 1_555
C7 C10 1_555 1_555
C8 N1 1_555 1_555
H4 C8 1_555 1_555
O3 Zn2 1_555 1_555
C9 C2 1_555 1_555
H5 C9 1_555 1_555
C10 C13 1_555 1_555
C11 H6 1_555 1_555
C12 C3 1_555 1_555
H7 C12 1_555 1_555
C13 C11 1_555 1_555
H8 C13 1_555 1_555
C14 C7 1_555 1_555
H9 C14 1_555 1_555
O4 Zn1 1_555 1_555
C15 O3 1_555 1_555
C16 O4 1_555 1_555
C17 C9 1_555 1_555
H10 C17 1_555 1_555
C18 C20 1_555 1_555
C19 C20 1_555 1_555
O5 Zn2 1_555 1_555
C20 H11 1_555 1_555
H12 C20 1_555 1_555
C21 C15 1_555 1_555
C22 C4 1_555 1_555
H13 C22 1_555 1_555
C23 C7 1_555 1_555
H14 C23 1_555 1_555
H15 C23 1_555 1_555
C24 C21 1_555 1_555
H16 C24 1_555 1_555
O6 C18 1_555 1_555
N2 C17 1_555 1_555
O7 C18 1_555 1_555
C25 C19 1_555 1_555
H17 C25 1_555 1_555
C26 C25 1_555 1_555
H18 C26 1_555 1_555
C27 C24 1_555 1_555
H19 C27 1_555 1_555
C28 C11 1_555 1_555
H20 C28 1_555 1_555
O8 Zn1 1_555 1_555
O9 C16 1_555 1_555
O10 H21 1_555 1_555
O11 Zn2 1_555 1_555
H22 O11 1_555 1_555
H23 O10 1_555 1_555
H24 O8 1_555 1_555
H25 O8 1_555 1_555
Zn1B O4 1_555 1_555
Zn1_2 N2 1_555 1_555
Zn2E O6 1_555 1_555
O4B Zn1 1_555 1_555
O6E Zn2 1_555 1_555
N2_2 Zn1 1_555 1_555
O7E Zn2 1_555 1_555
O9B Zn1 1_555 1_555
C1 N1 1_555 1_555
C6 O5 1_555 1_555
C8 C12 1_555 1_555
C14 C28 1_555 1_555
C16 C23 1_555 1_555
C19 C21 1_555 1_555
C22 N2 1_555 1_555
O7 Zn2E 1_555 1_555
C26 C27 1_555 1_555
O9 Zn1B 1_555 1_555
Zn1B O4B 1_555 1_555

#END
