
#######################################################################
#
#                 Cambridge Crystallographic Data Centre
#                                CCDC 
#
#######################################################################
#
# If this CIF has been generated from an entry in the Cambridge 
# Structural Database, then it will include bibliographic, chemical, 
# crystal, experimental, refinement or atomic coordinate data resulting 
# from the CCDC's data processing and validation procedures.
#
#######################################################################

data_ACOHUW01
_symmetry_cell_setting           triclinic
_symmetry_space_group_name_H-M   'P -1'
_symmetry_Int_Tables_number      2
_space_group_name_Hall           '-P 1'
loop_
_symmetry_equiv_pos_site_id
_symmetry_equiv_pos_as_xyz
1 x,y,z
2 -x,-y,-z
_cell_length_a                   7.7255(15)
_cell_length_b                   8.5693(17)
_cell_length_c                   8.6765(17)
_cell_angle_alpha                85.07(3)
_cell_angle_beta                 76.20(3)
_cell_angle_gamma                66.30(3)
_cell_volume                     510.745
loop_
_atom_site_label
_atom_site_type_symbol
_atom_site_fract_x
_atom_site_fract_y
_atom_site_fract_z
Mn1 Mn 0.02954(3) 0.38702(2) -0.28445(2)
C1 C -0.18889(19) 0.26111(17) -0.07721(16)
C2 C -0.71894(19) 0.30657(17) 0.40291(15)
C3 C -0.30381(19) 0.18025(17) 0.03991(15)
C4 C -0.45453(19) 0.27969(17) 0.16057(15)
H1 H -0.4887 0.3990 0.1655
C5 C -0.55430(19) 0.20156(17) 0.27388(15)
C6 C -0.49948(19) 0.02547(17) 0.26998(16)
H2 H -0.5649 -0.0272 0.3499
C7 C -0.34921(19) -0.07375(17) 0.14931(16)
C8 C -0.25477(19) 0.00509(17) 0.03164(16)
H3 H -0.1571 -0.0606 -0.0541
O1 O 0.04679(17) 0.61880(14) -0.22783(14)
H4 H 0.097(3) 0.614(3) -0.153(3)
H5 H 0.058(3) 0.694(3) -0.285(3)
O2 O -0.10101(15) 0.19360(13) -0.21259(11)
O3 O -0.17828(15) 0.39537(13) -0.03740(11)
O5 O -0.79014(14) 0.46750(12) 0.38930(11)
O7 O -0.77851(14) 0.23002(13) 0.52030(11)
N1 N -0.28494(18) -0.25444(15) 0.15171(15)
H10 H -0.367(3) -0.288(3) 0.209(2)
H11 H -0.254(3) -0.293(3) 0.061(3)
Mn1A Mn -1.02954(3) 0.61298(2) 0.28445(2)
Mn1_2 Mn -0.97046(3) 0.38702(2) 0.71555(2)
Mn1A_2 Mn -0.02954(3) -0.38702(2) 0.28445(2)
O5A O -0.20986(14) 0.53250(12) -0.38930(11)
O7_2 O 0.22149(14) 0.23002(13) -0.47970(11)
N1A N 0.28494(18) 0.25444(15) -0.15171(15)
H10A H 0.367(3) 0.288(3) -0.209(2)
H11A H 0.254(3) 0.293(3) -0.061(3)
O4 O 0.4348(2) 0.6536(2) -0.59094(17)
H6 H 0.386(9) 0.709(8) -0.518(8)
H7 H 0.389(5) 0.618(5) -0.614(4)
O6 O 0.1017(2) 0.88986(16) -0.39150(16)
H8 H 0.091(4) 0.961(3) -0.330(3)
H9 H 0.142(8) 0.898(8) -0.452(7)
loop_
_geom_bond_atom_site_label_1
_geom_bond_atom_site_label_2
_geom_bond_site_symmetry_1
_geom_bond_site_symmetry_2
Mn1 O1 1_555 1_555
C1 C3 1_555 1_555
C2 C5 1_555 1_555
C3 C4 1_555 1_555
C4 H1 1_555 1_555
C5 C4 1_555 1_555
C6 C5 1_555 1_555
H2 C6 1_555 1_555
C7 C6 1_555 1_555
C8 C3 1_555 1_555
H3 C8 1_555 1_555
O1 H4 1_555 1_555
H5 O1 1_555 1_555
O2 Mn1 1_555 1_555
O3 Mn1 1_555 1_555
O4 H6 1_555 1_555
H7 O4 1_555 1_555
O5 C2 1_555 1_555
O6 H8 1_555 1_555
H9 O6 1_555 1_555
O7 C2 1_555 1_555
N1 C7 1_555 1_555
H10 N1 1_555 1_555
H11 N1 1_555 1_555
Mn1A O5 1_555 1_555
Mn1_2 O7 1_555 1_555
Mn1A_2 N1 1_555 1_555
O5A Mn1 1_555 1_555
O7_2 Mn1 1_555 1_555
N1A Mn1 1_555 1_555
H10A N1A 1_555 1_555
H11A N1A 1_555 1_555
C1 O2 1_555 1_555
C1 O3 1_555 1_555
C7 C8 1_555 1_555

#END
