
#######################################################################
#
#                 Cambridge Crystallographic Data Centre
#                                CCDC 
#
#######################################################################
#
# If this CIF has been generated from an entry in the Cambridge 
# Structural Database, then it will include bibliographic, chemical, 
# crystal, experimental, refinement or atomic coordinate data resulting 
# from the CCDC's data processing and validation procedures.
#
#######################################################################

data_ACOHAB
_symmetry_cell_setting           orthorhombic
_symmetry_space_group_name_H-M   'C m c a'
_symmetry_Int_Tables_number      64
_space_group_name_Hall           '-C 2ac 2'
loop_
_symmetry_equiv_pos_site_id
_symmetry_equiv_pos_as_xyz
1 x,y,z
2 1/2+x,1/2+y,z
3 x,1/2+y,1/2-z
4 x,1/2-y,1/2+z
5 -x,y,z
6 1/2+x,y,1/2-z
7 1/2+x,-y,1/2+z
8 1/2-x,1/2+y,z
9 -x,-y,-z
10 1/2-x,1/2-y,-z
11 -x,1/2-y,1/2+z
12 -x,1/2+y,1/2-z
13 x,-y,-z
14 1/2-x,-y,1/2+z
15 1/2-x,y,1/2-z
16 1/2+x,1/2-y,-z
_cell_length_a                   12.5745(2)
_cell_length_b                   12.3972(2)
_cell_length_c                   14.2861(2)
_cell_angle_alpha                90
_cell_angle_beta                 90
_cell_angle_gamma                90
_cell_volume                     2227.04
loop_
_atom_site_label
_atom_site_type_symbol
_atom_site_fract_x
_atom_site_fract_y
_atom_site_fract_z
Ag1 Ag 0.5000 0.02812(3) 0.62883(2)
F1 F 0.5000 0.2796(3) 0.5990(2)
F2 F 0.4238(6) 0.3664(4) 0.4976(3)
O1 O 0.5000 0.1178(3) 0.4799(3)
O2 O 0.5000 0.2269(4) 0.3606(3)
N1 N 0.33873(19) 0.03552(19) 0.70463(16)
C1 C 0.5000 0.3015(4) 0.5107(4)
C2 C 0.5000 0.2062(4) 0.4436(3)
C3 C 0.3510(3) -0.0178(4) 0.7964(3)
H1 H 0.4024 0.0223 0.8344
H2 H 0.3786 -0.0910 0.7873
C4 C 0.2564(3) -0.0232(4) 0.6521(3)
H3 H 0.2778 -0.0987 0.6446
H4 H 0.2489 0.0085 0.5896
C5 C 0.3014(3) 0.1464(3) 0.7205(3)
H5 H 0.2878 0.1814 0.6602
H6 H 0.3566 0.1876 0.7532
F2D F 0.5762(6) 0.3664(4) 0.4976(3)
C4N C 0.2436(3) -0.0232(4) 0.8479(3)
N1N N 0.16127(19) 0.03552(19) 0.79537(16)
C3N C 0.1490(3) -0.0178(4) 0.7036(3)
H1N H 0.0976 0.0223 0.6656
H2N H 0.1214 -0.0910 0.7127
C5N C 0.1986(3) 0.1464(3) 0.7795(3)
H5N H 0.2122 0.1814 0.8398
H6N H 0.1434 0.1876 0.7468
H3N H 0.2222 -0.0987 0.8554
H4N H 0.2511 0.0085 0.9104
O1H O 0.5000 -0.1178(3) 0.5201(3)
N1D N 0.66127(19) 0.03552(19) 0.70463(16)
Ag1H Ag 0.5000 -0.02812(3) 0.37117(2)
Ag1E Ag 0.0000 0.02812(3) 0.87117(2)
loop_
_geom_bond_atom_site_label_1
_geom_bond_atom_site_label_2
_geom_bond_site_symmetry_1
_geom_bond_site_symmetry_2
Ag1 O1 1_555 1_555
F1 C1 1_555 1_555
F2 C1 1_555 1_555
O1 C2 1_555 1_555
O2 C2 1_555 1_555
N1 Ag1 1_555 1_555
C1 C2 1_555 1_555
C3 N1 1_555 1_555
H1 C3 1_555 1_555
H2 C3 1_555 1_555
C4 N1 1_555 1_555
H3 C4 1_555 1_555
H4 C4 1_555 1_555
C5 N1 1_555 1_555
H5 C5 1_555 1_555
H6 C5 1_555 1_555
F2D C1 1_555 1_555
C4N C3 1_555 1_555
N1N C4N 1_555 1_555
C3N C4 1_555 1_555
H1N C3N 1_555 1_555
H2N C3N 1_555 1_555
C5N C5 1_555 1_555
H5N C5N 1_555 1_555
H6N C5N 1_555 1_555
H3N C4N 1_555 1_555
H4N C4N 1_555 1_555
O1H Ag1 1_555 1_555
N1D Ag1 1_555 1_555
Ag1H O1 1_555 1_555
Ag1E N1N 1_555 1_555
N1N C3N 1_555 1_555
N1N C5N 1_555 1_555
O1H Ag1H 1_555 1_555

#END
