
#######################################################################
#
#                 Cambridge Crystallographic Data Centre
#                                CCDC 
#
#######################################################################
#
# If this CIF has been generated from an entry in the Cambridge 
# Structural Database, then it will include bibliographic, chemical, 
# crystal, experimental, refinement or atomic coordinate data resulting 
# from the CCDC's data processing and validation procedures.
#
#######################################################################

data_ACOHUW02
_symmetry_cell_setting           triclinic
_symmetry_space_group_name_H-M   'P -1'
_symmetry_Int_Tables_number      2
_space_group_name_Hall           '-P 1'
loop_
_symmetry_equiv_pos_site_id
_symmetry_equiv_pos_as_xyz
1 x,y,z
2 -x,-y,-z
_cell_length_a                   7.7447(8)
_cell_length_b                   8.6024(9)
_cell_length_c                   8.7006(9)
_cell_angle_alpha                85.465(2)
_cell_angle_beta                 75.991(2)
_cell_angle_gamma                66.563(2)
_cell_volume                     515.922
loop_
_atom_site_label
_atom_site_type_symbol
_atom_site_fract_x
_atom_site_fract_y
_atom_site_fract_z
Mn1 Mn 0.52853(5) -0.61491(4) -0.28480(4)
O1 O 0.2906(2) -0.4662(2) -0.3872(2)
O2 O 0.2803(2) -0.2325(2) -0.5180(2)
O3 O -0.3203(3) -0.3939(2) 0.0377(2)
O4 O -0.3978(2) -0.1931(2) 0.21218(19)
N1 N -0.2164(3) 0.2522(2) -0.1524(2)
H1 H -0.1159 0.2797 -0.2007
H2 H -0.2565 0.2929 -0.0521
C1 C 0.2204(3) -0.3072(3) -0.4013(3)
C2 C 0.0549(3) -0.2021(3) -0.2725(3)
C3 C -0.0442(3) -0.2791(3) -0.1596(3)
H3 H -0.0101 -0.3955 -0.1639
C4 C -0.1953(3) -0.1798(3) -0.0399(3)
C5 C -0.2458(3) -0.0055(3) -0.0323(3)
H4 H -0.3426 0.0589 0.0510
C6 C -0.1517(3) 0.0720(3) -0.1491(3)
C7 C -0.0014(3) -0.0270(3) -0.2689(3)
H5 H 0.0622 0.0242 -0.3474
C8 C -0.3097(3) -0.2611(3) 0.0775(3)
O7 O 0.5520(3) -0.3871(2) -0.2272(2)
H6 H 0.609(5) -0.390(5) -0.156(3)
H7 H 0.561(5) -0.307(4) -0.285(4)
Mn1A Mn 0.47147(5) -0.38509(4) -0.71520(4)
Mn1A_2 Mn -0.52853(5) -0.38509(4) 0.28480(4)
Mn1_2 Mn -0.47147(5) 0.38509(4) -0.28480(4)
O2A O 0.7197(2) -0.7675(2) -0.4820(2)
O3A O 0.3203(3) -0.6061(2) -0.0377(2)
O4A O 0.3978(2) -0.8069(2) -0.21218(19)
N1_2 N 0.7836(3) -0.7478(2) -0.1524(2)
H1_2 H 0.8841 -0.7203 -0.2007
H2_2 H 0.7435 -0.7071 -0.0521
O5 O 0.5972(4) -0.1128(3) -0.3886(3)
H9 H 0.518(10) -0.090(9) -0.446(9)
H11 H 0.589(8) -0.038(5) -0.328(6)
O6 O 0.0645(4) -0.6534(4) -0.4073(3)
H8 H 0.119(7) -0.599(6) -0.379(6)
H10 H 0.149(8) -0.726(7) -0.473(6)
loop_
_geom_bond_atom_site_label_1
_geom_bond_atom_site_label_2
_geom_bond_site_symmetry_1
_geom_bond_site_symmetry_2
Mn1 O1 1_555 1_555
O1 C1 1_555 1_555
O2 C1 1_555 1_555
O3 C8 1_555 1_555
O4 C8 1_555 1_555
O5 H9 1_555 1_555
O6 H8 1_555 1_555
N1 H1 1_555 1_555
H2 N1 1_555 1_555
C1 C2 1_555 1_555
C2 C3 1_555 1_555
C3 H3 1_555 1_555
C4 C3 1_555 1_555
C5 C4 1_555 1_555
H4 C5 1_555 1_555
C6 N1 1_555 1_555
C7 C2 1_555 1_555
H5 C7 1_555 1_555
C8 C4 1_555 1_555
O7 Mn1 1_555 1_555
H6 O7 1_555 1_555
H7 O7 1_555 1_555
H10 O6 1_555 1_555
H11 O5 1_555 1_555
Mn1A O2 1_555 1_555
Mn1A_2 O3 1_555 1_555
Mn1_2 N1 1_555 1_555
O2A Mn1 1_555 1_555
O3A Mn1 1_555 1_555
O4A Mn1 1_555 1_555
N1_2 Mn1 1_555 1_555
H1_2 N1_2 1_555 1_555
H2_2 N1_2 1_555 1_555
O4 Mn1A_2 1_555 1_555
C5 C6 1_555 1_555
C6 C7 1_555 1_555

#END
