
#######################################################################
#
#                 Cambridge Crystallographic Data Centre
#                                CCDC 
#
#######################################################################
#
# If this CIF has been generated from an entry in the Cambridge 
# Structural Database, then it will include bibliographic, chemical, 
# crystal, experimental, refinement or atomic coordinate data resulting 
# from the CCDC's data processing and validation procedures.
#
#######################################################################

data_ACOHUW03
_symmetry_cell_setting           triclinic
_symmetry_space_group_name_H-M   'P -1'
_symmetry_Int_Tables_number      2
_space_group_name_Hall           '-P 1'
loop_
_symmetry_equiv_pos_site_id
_symmetry_equiv_pos_as_xyz
1 x,y,z
2 -x,-y,-z
_cell_length_a                   7.7732(16)
_cell_length_b                   8.6392(17)
_cell_length_c                   8.7331(17)
_cell_angle_alpha                85.45(3)
_cell_angle_beta                 76.06(3)
_cell_angle_gamma                66.56(3)
_cell_volume                     522.131
loop_
_atom_site_label
_atom_site_type_symbol
_atom_site_fract_x
_atom_site_fract_y
_atom_site_fract_z
Mn1 Mn 0.47145(4) 0.11486(3) 0.28491(3)
O1 O 0.6024(2) 0.30656(18) 0.21225(16)
O2 O 0.6801(2) 0.10567(17) 0.03780(16)
O3 O 1.2799(2) 0.26818(17) -0.51806(16)
O4 O 1.29079(18) 0.03378(16) -0.38753(16)
O5 O 0.4481(3) -0.1133(2) 0.2276(2)
N1 N 0.7830(2) 0.75216(19) -0.15176(19)
H1 H 0.7426 0.7924 -0.0518
H2 H 0.8830 0.7797 -0.1994
C1 C 0.8047(2) 0.3202(2) -0.0395(2)
C2 C 1.2202(2) 0.1929(2) -0.4011(2)
C3 C 1.0546(2) 0.2982(2) -0.2727(2)
C4 C 0.9557(3) 0.2212(2) -0.1593(2)
H3 H 0.9900 0.1052 -0.1633
C5 C 0.9986(3) 0.4731(2) -0.2691(2)
H4 H 1.0619 0.5241 -0.3472
C6 C 0.8478(3) 0.5721(2) -0.1490(2)
C7 C 0.7543(3) 0.4939(2) -0.0322(2)
H5 H 0.6579 0.5579 0.0509
C8 C 0.6903(3) 0.2391(2) 0.0775(2)
H10 H 0.397(4) -0.108(3) 0.157(4)
H11 H 0.449(4) -0.197(4) 0.283(4)
Mn1_2 Mn 1.47145(4) 0.11486(3) -0.71509(3)
Mn1A Mn 1.52855(4) -0.11486(3) -0.28491(3)
Mn1A_2 Mn 0.52855(4) 0.88514(3) -0.28491(3)
O3_2 O 0.2799(2) 0.26818(17) 0.48194(16)
O4A O 0.70921(18) -0.03378(16) 0.38753(16)
N1A N 0.2170(2) 0.24784(19) 0.15176(19)
H1A H 0.2574 0.2076 0.0518
H2A H 0.1170 0.2203 0.1994
O6 O 0.5984(3) 0.3868(2) 0.6111(2)
H6 H 0.573(5) 0.470(3) 0.670(4)
H7 H 0.514(7) 0.419(7) 0.557(7)
O7 O 0.9354(3) 0.1537(3) 0.4069(3)
H8 H 0.853(5) 0.230(6) 0.473(6)
H9 H 0.868(5) 0.114(5) 0.372(5)
loop_
_geom_bond_atom_site_label_1
_geom_bond_atom_site_label_2
_geom_bond_site_symmetry_1
_geom_bond_site_symmetry_2
Mn1 O1 1_555 1_555
O1 C8 1_555 1_555
O2 Mn1 1_555 1_555
O3 C2 1_555 1_555
O4 C2 1_555 1_555
O5 Mn1 1_555 1_555
O6 H6 1_555 1_555
O7 H8 1_555 1_555
N1 H1 1_555 1_555
H2 N1 1_555 1_555
C1 C4 1_555 1_555
C2 C3 1_555 1_555
C3 C4 1_555 1_555
C4 H3 1_555 1_555
C5 C3 1_555 1_555
H4 C5 1_555 1_555
C6 N1 1_555 1_555
C7 C1 1_555 1_555
H5 C7 1_555 1_555
C8 O2 1_555 1_555
H7 O6 1_555 1_555
H9 O7 1_555 1_555
H10 O5 1_555 1_555
H11 O5 1_555 1_555
Mn1_2 O3 1_555 1_555
Mn1A O4 1_555 1_555
Mn1A_2 N1 1_555 1_555
O3_2 Mn1 1_555 1_555
O4A Mn1 1_555 1_555
N1A Mn1 1_555 1_555
H1A N1A 1_555 1_555
H2A N1A 1_555 1_555
C1 C8 1_555 1_555
C5 C6 1_555 1_555
C6 C7 1_555 1_555

#END
