
#######################################################################
#
#                 Cambridge Crystallographic Data Centre
#                                CCDC 
#
#######################################################################
#
# If this CIF has been generated from an entry in the Cambridge 
# Structural Database, then it will include bibliographic, chemical, 
# crystal, experimental, refinement or atomic coordinate data resulting 
# from the CCDC's data processing and validation procedures.
#
#######################################################################

data_ACOHEF
_symmetry_cell_setting           triclinic
_symmetry_space_group_name_H-M   'P -1'
_symmetry_Int_Tables_number      2
_space_group_name_Hall           '-P 1'
loop_
_symmetry_equiv_pos_site_id
_symmetry_equiv_pos_as_xyz
1 x,y,z
2 -x,-y,-z
_cell_length_a                   9.0587(2)
_cell_length_b                   9.1231(2)
_cell_length_c                   9.6097(2)
_cell_angle_alpha                117.553(1)
_cell_angle_beta                 116.433(1)
_cell_angle_gamma                91.471(1)
_cell_volume                     603.074
loop_
_atom_site_label
_atom_site_type_symbol
_atom_site_fract_x
_atom_site_fract_y
_atom_site_fract_z
Ag1 Ag 0.392119(19) -0.109663(19) 0.740580(19)
F1 F 0.5867(2) 0.4995(2) 1.1749(3)
F2 F 0.8339(3) 0.4783(2) 1.3247(2)
F3 F 0.7924(2) 0.5640(2) 1.1417(3)
O1 O 0.5724(2) 0.16023(19) 1.0079(2)
O2 O 0.7324(3) 0.2299(3) 0.9143(3)
N1 N 0.46502(19) -0.34711(19) 0.5839(2)
N2 N 0.14594(19) -0.0333(2) 0.5994(2)
C1 C 0.6701(3) 0.2614(3) 1.0094(3)
C2 C 0.7199(3) 0.4522(3) 1.1613(3)
C3 C 0.3559(2) -0.4669(2) 0.4056(2)
C4 C 0.6089(2) -0.3778(2) 0.6791(2)
C5 C 0.1996(3) -0.4271(3) 0.3017(3)
C6 C 0.7270(3) -0.2404(3) 0.8764(3)
C7 C 0.1469(2) 0.0334(2) 0.5007(2)
C8 C 0.0009(2) -0.0669(2) 0.5997(2)
C9 C 0.3098(3) 0.0703(3) 0.5018(3)
C10 C 0.0023(3) -0.1404(3) 0.7105(3)
H1 H 0.105(3) -0.520(4) 0.222(4)
H2 H 0.172(4) -0.342(4) 0.372(4)
H3 H 0.213(5) -0.405(5) 0.225(5)
H4 H 0.840(3) -0.237(4) 0.919(4)
H5 H 0.726(5) -0.131(3) 0.900(5)
H6 H 0.718(5) -0.256(5) 0.959(4)
H7 H 0.292(4) 0.002(4) 0.387(3)
H8 H 0.401(3) 0.073(4) 0.597(3)
H9 H 0.340(4) 0.177(3) 0.521(5)
H10 H -0.077(3) -0.249(3) 0.640(4)
H11 H 0.114(3) -0.135(4) 0.784(4)
H12 H -0.034(5) -0.074(4) 0.790(4)
C4A C 0.3911(2) -0.6222(2) 0.3209(2)
N1A N 0.53498(19) -0.65289(19) 0.4161(2)
C3A C 0.6441(2) -0.5331(2) 0.5944(2)
C5A C 0.8004(3) -0.5729(3) 0.6983(3)
H1A H 0.895(3) -0.480(4) 0.778(4)
H2A H 0.828(4) -0.658(4) 0.628(4)
H3A H 0.787(5) -0.595(5) 0.775(5)
C6A C 0.2730(3) -0.7596(3) 0.1236(3)
H4A H 0.160(3) -0.763(4) 0.081(4)
H5A H 0.274(5) -0.869(3) 0.100(5)
H6A H 0.282(5) -0.744(5) 0.041(4)
C8A C -0.0009(2) 0.0669(2) 0.4003(2)
N2A N -0.14594(19) 0.0333(2) 0.4006(2)
C7A C -0.1469(2) -0.0334(2) 0.4993(2)
C9A C -0.3098(3) -0.0703(3) 0.4982(3)
H7A H -0.292(4) -0.002(4) 0.613(3)
H8A H -0.401(3) -0.073(4) 0.403(3)
H9A H -0.340(4) -0.177(3) 0.479(5)
C10A C -0.0023(3) 0.1404(3) 0.2895(3)
H10A H 0.077(3) 0.249(3) 0.360(4)
H11A H -0.114(3) 0.135(4) 0.216(4)
H12A H 0.034(5) 0.074(4) 0.210(4)
F1A F 0.4133(2) -0.4995(2) 0.8251(3)
F2A F 0.1661(3) -0.4783(2) 0.6753(2)
F3A F 0.2076(2) -0.5640(2) 0.8583(3)
O1A O 0.4276(2) -0.16023(19) 0.9921(2)
O2A O 0.2676(3) -0.2299(3) 1.0857(3)
C1A C 0.3299(3) -0.2614(3) 0.9906(3)
C2A C 0.2801(3) -0.4522(3) 0.8387(3)
Ag1A Ag 0.607881(19) 0.109663(19) 1.259420(19)
Ag1A_2 Ag 0.607881(19) -0.890337(19) 0.259420(19)
Ag1A_3 Ag -0.392119(19) 0.109663(19) 0.259420(19)
N1A_2 N 0.53498(19) 0.34711(19) 1.4161(2)
N2A_2 N 0.85406(19) 0.0333(2) 1.4006(2)
loop_
_geom_bond_atom_site_label_1
_geom_bond_atom_site_label_2
_geom_bond_site_symmetry_1
_geom_bond_site_symmetry_2
Ag1 O1 1_555 1_555
F1 C2 1_555 1_555
F2 C2 1_555 1_555
F3 C2 1_555 1_555
O1 C1 1_555 1_555
O2 C1 1_555 1_555
N1 Ag1 1_555 1_555
N2 Ag1 1_555 1_555
C1 C2 1_555 1_555
C3 N1 1_555 1_555
C4 N1 1_555 1_555
C5 C3 1_555 1_555
C6 C4 1_555 1_555
C7 N2 1_555 1_555
C8 N2 1_555 1_555
C9 C7 1_555 1_555
C10 C8 1_555 1_555
H1 C5 1_555 1_555
H2 C5 1_555 1_555
H3 C5 1_555 1_555
H4 C6 1_555 1_555
H5 C6 1_555 1_555
H6 C6 1_555 1_555
H7 C9 1_555 1_555
H8 C9 1_555 1_555
H9 C9 1_555 1_555
H10 C10 1_555 1_555
H11 C10 1_555 1_555
H12 C10 1_555 1_555
C4A C3 1_555 1_555
N1A C4A 1_555 1_555
C3A C4 1_555 1_555
C5A C3A 1_555 1_555
H1A C5A 1_555 1_555
H2A C5A 1_555 1_555
H3A C5A 1_555 1_555
C6A C4A 1_555 1_555
H4A C6A 1_555 1_555
H5A C6A 1_555 1_555
H6A C6A 1_555 1_555
C8A C7 1_555 1_555
N2A C8A 1_555 1_555
C7A C8 1_555 1_555
C9A C7A 1_555 1_555
H7A C9A 1_555 1_555
H8A C9A 1_555 1_555
H9A C9A 1_555 1_555
C10A C8A 1_555 1_555
H10A C10A 1_555 1_555
H11A C10A 1_555 1_555
H12A C10A 1_555 1_555
F1A C2A 1_555 1_555
F2A C2A 1_555 1_555
F3A C2A 1_555 1_555
O1A Ag1 1_555 1_555
O2A C1A 1_555 1_555
C1A O1A 1_555 1_555
C2A C1A 1_555 1_555
Ag1A O1 1_555 1_555
Ag1A_2 N1A 1_555 1_555
Ag1A_3 N2A 1_555 1_555
N1A_2 Ag1A 1_555 1_555
N2A_2 Ag1A 1_555 1_555
N1A C3A 1_555 1_555
N2A C7A 1_555 1_555
O1A Ag1A 1_555 1_555

#END
