
#######################################################################
#
#                 Cambridge Crystallographic Data Centre
#                                CCDC 
#
#######################################################################
#
# If this CIF has been generated from an entry in the Cambridge 
# Structural Database, then it will include bibliographic, chemical, 
# crystal, experimental, refinement or atomic coordinate data resulting 
# from the CCDC's data processing and validation procedures.
#
#######################################################################

data_ACOHUV
_symmetry_cell_setting           orthorhombic
_symmetry_space_group_name_H-M   'P n a 21'
_symmetry_Int_Tables_number      33
_space_group_name_Hall           'P 2c -2n'
loop_
_symmetry_equiv_pos_site_id
_symmetry_equiv_pos_as_xyz
1 x,y,z
2 -x,-y,1/2+z
3 1/2+x,1/2-y,z
4 1/2-x,1/2+y,1/2+z
_cell_length_a                   11.830(2)
_cell_length_b                   8.6933(17)
_cell_length_c                   14.914(3)
_cell_angle_alpha                90
_cell_angle_beta                 90
_cell_angle_gamma                90
_cell_volume                     1533.78
loop_
_atom_site_label
_atom_site_type_symbol
_atom_site_fract_x
_atom_site_fract_y
_atom_site_fract_z
Li1 Li 0.4162(4) 0.5970(5) 0.9949(3)
C1 C 0.6489(3) 0.9670(4) 1.2519(2)
H1 H 0.6702 1.0260 1.3028
C2 C 0.3810(3) 0.6066(4) 0.7051(2)
H2 H 0.4176 0.5439 0.6579
H3 H 0.3615 0.7085 0.6798
C3 C 0.2749(3) 0.5252(4) 0.7418(2)
H4 H 0.2119 0.5987 0.7503
H5 H 0.2500 0.4416 0.7013
C4 C 0.3152(3) 0.4616(4) 0.8307(2)
H6 H 0.2513 0.4500 0.8730
H7 H 0.3521 0.3604 0.8226
O1 O 0.39495(19) 0.5741(2) 0.86305(14)
C5 C 0.4581(3) 0.6233(4) 0.7865(2)
H8 H 0.5265 0.5589 0.7791
H9 H 0.4819 0.7318 0.7936
O2 O 0.43999(18) 0.3772(2) 1.02207(14)
C6 C 0.5337(3) 0.2993(3) 0.97875(19)
H10 H 0.6067 0.3420 0.9996
H11 H 0.5290 0.3111 0.9128
C7 C 0.5231(3) 0.1323(4) 1.0049(2)
H12 H 0.5621 0.1110 1.0623
H13 H 0.5538 0.0638 0.9578
C8 C 0.3625(3) 0.2641(4) 1.0577(3)
H14 H 0.2835 0.2913 1.0426
H15 H 0.3697 0.2572 1.1237
C9 C 0.3956(3) 0.1138(4) 1.0141(2)
H16 H 0.3589 0.1013 0.9549
H17 H 0.3761 0.0249 1.0527
As1 As 0.68039(2) 0.71647(3) 0.95714(3)
C10 C 0.5820(3) 0.7910(3) 1.1030(2)
C11 C 0.6937(2) 0.8541(4) 1.1080(2)
C12 C 0.7261(3) 0.9396(4) 1.1844(2)
H18 H 0.8010 0.9782 1.1893
C13 C 0.5049(3) 0.8204(4) 1.1735(2)
H19 H 0.4304 0.7801 1.1710
N1 N 0.5574(2) 0.7117(3) 1.02661(18)
C14 C 0.5383(3) 0.9072(4) 1.2454(2)
H20 H 0.4857 0.9277 1.2920
N2 N 0.7609(2) 0.8272(3) 1.03546(17)
N2B N 0.2609(2) 0.6728(3) 1.03546(17)
Li1B Li 0.9162(4) 0.9030(5) 0.9949(3)
loop_
_geom_bond_atom_site_label_1
_geom_bond_atom_site_label_2
_geom_bond_site_symmetry_1
_geom_bond_site_symmetry_2
Li1 O1 1_555 1_555
C1 H1 1_555 1_555
C2 H2 1_555 1_555
H3 C2 1_555 1_555
C3 C2 1_555 1_555
H4 C3 1_555 1_555
H5 C3 1_555 1_555
C4 C3 1_555 1_555
H6 C4 1_555 1_555
H7 C4 1_555 1_555
O1 C4 1_555 1_555
C5 C2 1_555 1_555
H8 C5 1_555 1_555
H9 C5 1_555 1_555
O2 Li1 1_555 1_555
C6 O2 1_555 1_555
H10 C6 1_555 1_555
H11 C6 1_555 1_555
C7 C6 1_555 1_555
H12 C7 1_555 1_555
H13 C7 1_555 1_555
C8 O2 1_555 1_555
H14 C8 1_555 1_555
H15 C8 1_555 1_555
C9 C7 1_555 1_555
H16 C9 1_555 1_555
H17 C9 1_555 1_555
As1 N1 1_555 1_555
C10 C11 1_555 1_555
C11 C12 1_555 1_555
C12 C1 1_555 1_555
H18 C12 1_555 1_555
C13 C10 1_555 1_555
H19 C13 1_555 1_555
N1 Li1 1_555 1_555
C14 C1 1_555 1_555
H20 C14 1_555 1_555
N2 As1 1_555 1_555
N2B Li1 1_555 1_555
Li1B N2 1_555 1_555
O1 C5 1_555 1_555
C8 C9 1_555 1_555
C10 N1 1_555 1_555
C11 N2 1_555 1_555
C13 C14 1_555 1_555

#END
