
#######################################################################
#
#                 Cambridge Crystallographic Data Centre
#                                CCDC 
#
#######################################################################
#
# If this CIF has been generated from an entry in the Cambridge 
# Structural Database, then it will include bibliographic, chemical, 
# crystal, experimental, refinement or atomic coordinate data resulting 
# from the CCDC's data processing and validation procedures.
#
#######################################################################

data_ACOLAG
_symmetry_cell_setting           monoclinic
_symmetry_space_group_name_H-M   'C 2/c'
_symmetry_Int_Tables_number      15
_space_group_name_Hall           '-C 2yn'
loop_
_symmetry_equiv_pos_site_id
_symmetry_equiv_pos_as_xyz
1 x,y,z
2 1/2+x,1/2+y,z
3 -x,y,1/2-z
4 1/2-x,1/2+y,1/2-z
5 -x,-y,-z
6 1/2-x,1/2-y,-z
7 x,-y,1/2+z
8 1/2+x,1/2-y,1/2+z
_cell_length_a                   37.884(5)
_cell_length_b                   11.2578(17)
_cell_length_c                   8.4692(14)
_cell_angle_alpha                90
_cell_angle_beta                 90.573(2)
_cell_angle_gamma                90
_cell_volume                     3611.85
loop_
_atom_site_label
_atom_site_type_symbol
_atom_site_fract_x
_atom_site_fract_y
_atom_site_fract_z
Fe1 Fe 0.5000 0.34781(9) -0.2500
Cl1 Cl 0.53526(5) 0.21429(17) -0.3676(2)
O1 O 0.52884(9) 0.3865(3) -0.0528(4)
O2 O 0.53053(9) 0.5091(3) 0.1530(5)
C11 C 0.51700(13) 0.4704(5) 0.0303(6)
Fe1F Fe 0.5000 0.65219(9) 0.2500
Cl1B Cl 0.46474(5) 0.21429(17) -0.1324(2)
O1D O 0.47116(9) 0.6135(3) 0.0528(4)
O1B O 0.47116(9) 0.3865(3) -0.4472(4)
O2D O 0.46947(9) 0.4909(3) -0.1530(5)
O2F O 0.53053(9) 0.4909(3) -0.3470(5)
C11D C 0.48300(13) 0.5296(5) -0.0303(6)
Se1 Se 0.682918(12) 0.26114(4) 0.28948(6)
Se2 Se 0.679858(13) 0.04012(4) 0.05727(6)
Se3 Se 0.771897(12) 0.25856(4) 0.27797(6)
Se4 Se 0.769269(12) 0.04222(4) 0.03712(6)
S1 S 0.60273(4) 0.26062(12) 0.3326(2)
S2 S 0.60064(4) 0.01079(13) 0.0940(2)
S3 S 0.85206(3) 0.25573(11) 0.29655(18)
S4 S 0.84838(3) 0.01434(12) 0.03723(18)
C1 C 0.70783(11) 0.1486(3) 0.1710(5)
C2 C 0.74392(11) 0.1497(3) 0.1638(5)
C3 C 0.63851(11) 0.1886(4) 0.2468(6)
C4 C 0.63763(12) 0.0930(4) 0.1503(6)
C5 C 0.81487(12) 0.1864(4) 0.2162(5)
C6 C 0.81340(11) 0.0947(4) 0.1158(6)
C7 C 0.56616(16) 0.1956(7) 0.2319(9)
H1 H 0.5469 0.1966 0.3063
H2 H 0.5597 0.2510 0.1487
C8 C 0.5656(2) 0.0931(8) 0.1686(18)
H3 H 0.5488 0.0994 0.0819
H4 H 0.5546 0.0418 0.2461
C9 C 0.88546(18) 0.1946(8) 0.1835(11)
H5 H 0.8875 0.2448 0.0910
H6 H 0.9071 0.2051 0.2439
C10 C 0.88587(15) 0.0827(6) 0.1307(12)
H7 H 0.8922 0.0330 0.2201
H8 H 0.9052 0.0773 0.0567
loop_
_geom_bond_atom_site_label_1
_geom_bond_atom_site_label_2
_geom_bond_site_symmetry_1
_geom_bond_site_symmetry_2
Se1 C1 1_555 1_555
Se2 C1 1_555 1_555
Se3 C2 1_555 1_555
Se4 C2 1_555 1_555
Fe1 Cl1 1_555 1_555
S1 C3 1_555 1_555
S2 C4 1_555 1_555
S3 C5 1_555 1_555
S4 C6 1_555 1_555
O1 Fe1 1_555 1_555
O2 C11 1_555 1_555
C1 C2 1_555 1_555
C3 Se1 1_555 1_555
C4 Se2 1_555 1_555
C5 Se3 1_555 1_555
C6 Se4 1_555 1_555
C7 S1 1_555 1_555
H1 C7 1_555 1_555
H2 C7 1_555 1_555
C8 S2 1_555 1_555
H3 C8 1_555 1_555
H4 C8 1_555 1_555
C9 S3 1_555 1_555
H5 C9 1_555 1_555
H6 C9 1_555 1_555
C10 S4 1_555 1_555
H7 C10 1_555 1_555
H8 C10 1_555 1_555
C11 O1 1_555 1_555
Fe1F O2 1_555 1_555
Cl1B Fe1 1_555 1_555
O1D Fe1F 1_555 1_555
O1B Fe1 1_555 1_555
O2D Fe1 1_555 1_555
O2F Fe1 1_555 1_555
C11D C11 1_555 1_555
C3 C4 1_555 1_555
C5 C6 1_555 1_555
C7 C8 1_555 1_555
C9 C10 1_555 1_555
O1D C11D 1_555 1_555
O2D C11D 1_555 1_555

#END
