
#######################################################################
#
#                 Cambridge Crystallographic Data Centre
#                                CCDC 
#
#######################################################################
#
# If this CIF has been generated from an entry in the Cambridge 
# Structural Database, then it will include bibliographic, chemical, 
# crystal, experimental, refinement or atomic coordinate data resulting 
# from the CCDC's data processing and validation procedures.
#
#######################################################################

data_ACOLEL
_symmetry_cell_setting           monoclinic
_symmetry_space_group_name_H-M   'C c'
_symmetry_Int_Tables_number      9
_space_group_name_Hall           'C -2yc'
loop_
_symmetry_equiv_pos_site_id
_symmetry_equiv_pos_as_xyz
1 x,y,z
2 x,-y,1/2+z
3 1/2+x,1/2+y,z
4 1/2+x,1/2-y,1/2+z
_cell_length_a                   34.569(3)
_cell_length_b                   17.656(2)
_cell_length_c                   20.504(2)
_cell_angle_alpha                90
_cell_angle_beta                 108.326(3)
_cell_angle_gamma                90
_cell_volume                     11879.9
loop_
_atom_site_label
_atom_site_type_symbol
_atom_site_fract_x
_atom_site_fract_y
_atom_site_fract_z
C1 C 0.56140(12) -0.0219(2) 0.34232(19)
C2 C 0.52395(13) -0.0071(2) 0.2912(2)
C3 C 0.52358(13) 0.0067(2) 0.2246(2)
H1 H 0.4989 0.0153 0.1904
C4 C 0.56023(14) 0.0079(3) 0.2079(2)
C5 C 0.59763(13) -0.0077(2) 0.2604(2)
H2 H 0.6221 -0.0083 0.2506
C6 C 0.59660(13) -0.0219(2) 0.3259(2)
H3 H 0.6210 -0.0320 0.3604
C7 C 0.56182(12) -0.0471(2) 0.4130(2)
C8 C 0.55986(13) 0.0318(2) 0.13838(19)
C9 C 0.64195(14) 0.1650(3) 0.1175(2)
H4 H 0.6560 0.1202 0.1172
C10 C 0.59188(14) 0.2520(3) 0.1067(2)
H5 H 0.5661 0.2733 0.0977
C11 C 0.62737(12) 0.2906(3) 0.1344(2)
H6 H 0.6303 0.3417 0.1457
C12 C 0.69976(13) 0.2492(3) 0.1770(2)
C13 C 0.71576(13) 0.3205(3) 0.1988(2)
H7 H 0.6992 0.3631 0.1866
C14 C 0.75625(13) 0.3284(3) 0.2386(2)
H8 H 0.7668 0.3761 0.2534
C15 C 0.78104(12) 0.2646(3) 0.2562(2)
C16 C 0.76505(14) 0.1928(3) 0.2350(3)
H9 H 0.7816 0.1502 0.2470
C17 C 0.72445(15) 0.1851(3) 0.1958(2)
H10 H 0.7137 0.1373 0.1821
C18 C 0.82465(12) 0.2744(2) 0.2949(2)
C19 C 0.84821(12) 0.3406(2) 0.3021(2)
H11 H 0.8370 0.3841 0.2778
C20 C 0.88840(12) 0.3411(3) 0.3459(2)
H12 H 0.9039 0.3852 0.3521
C21 C 0.90499(14) 0.2751(3) 0.3800(2)
C22 C 0.88404(14) 0.2079(3) 0.3710(2)
H13 H 0.8964 0.1627 0.3898
C23 C 0.84460(13) 0.2113(2) 0.3333(2)
H14 H 0.8290 0.1682 0.3324
C24 C 0.96766(14) 0.3425(3) 0.4542(3)
H15 H 0.9569 0.3912 0.4508
C25 C 0.97464(14) 0.2190(3) 0.4407(2)
H16 H 0.9686 0.1688 0.4279
C26 C 1.01100(14) 0.2441(3) 0.4769(2)
H17 H 1.0346 0.2150 0.4911
Mn1 Mn 0.55735(3) 0.10402(4) 0.02374(4)
N1 N 0.48616(11) -0.0085(2) 0.2994(2)
H18 H 0.4648 -0.0012 0.2646
H19 H 0.4838 -0.0168 0.3393
N2 N 0.59916(12) 0.1740(2) 0.0931(2)
N3 N 0.65973(11) 0.2357(2) 0.14250(18)
N4 N 0.94610(13) 0.2792(2) 0.4241(2)
N5 N 1.00839(13) 0.3234(3) 0.4908(2)
O1 O 0.59162(10) -0.08098(19) 0.45135(16)
O2 O 0.53016(9) -0.02999(17) 0.42682(16)
O3 O 0.52891(9) 0.05785(18) 0.09777(16)
O4 O 0.59078(10) 0.02770(18) 0.11895(16)
Mn1C Mn 1.05735(3) 0.39598(4) 0.52374(4)
Mn1A Mn 0.55735(3) -0.10402(4) 0.52374(4)
N5C N 0.50839(13) 0.1766(3) -0.0092(2)
O1A O 0.59162(10) 0.08098(19) -0.04865(16)
O2A O 0.53016(9) 0.02999(17) -0.07318(16)
C27 C 0.41903(13) 0.5094(2) 0.3998(2)
C28 C 0.38277(13) 0.4914(3) 0.3459(2)
C29 C 0.38449(12) 0.4754(2) 0.2812(2)
H20 H 0.3605 0.4646 0.2461
C30 C 0.42117(12) 0.4750(2) 0.26697(19)
C31 C 0.45714(13) 0.4916(2) 0.32026(19)
H21 H 0.4820 0.4914 0.3115
C32 C 0.45609(12) 0.5083(2) 0.38639(19)
H22 H 0.4801 0.5187 0.4214
C33 C 0.41873(13) 0.5335(3) 0.4665(2)
C34 C 0.42296(12) 0.4593(3) 0.1969(2)
C35 C 0.50550(15) 0.3395(3) 0.1562(2)
H23 H 0.5152 0.3877 0.1710
C36 C 0.46308(15) 0.2416(3) 0.1037(2)
H24 H 0.4406 0.2137 0.0783
C37 C 0.50362(13) 0.2133(2) 0.13522(19)
H25 H 0.5116 0.1631 0.1346
C38 C 0.57104(14) 0.2743(3) 0.2075(2)
C39 C 0.59350(14) 0.2103(3) 0.2043(2)
H26 H 0.5803 0.1667 0.1832
C40 C 0.63318(14) 0.2109(3) 0.2309(3)
H27 H 0.6472 0.1682 0.2239
C41 C 0.65672(11) 0.2712(2) 0.2696(2)
C42 C 0.63429(13) 0.3383(3) 0.2697(2)
H28 H 0.6477 0.3820 0.2901
C43 C 0.59313(13) 0.3390(3) 0.2400(2)
H29 H 0.5790 0.3835 0.2411
C44 C 0.69784(13) 0.2547(3) 0.3110(2)
C45 C 0.70947(14) 0.1798(3) 0.3295(3)
H30 H 0.6928 0.1397 0.3081
C46 C 0.74605(13) 0.1665(3) 0.3801(2)
H31 H 0.7541 0.1169 0.3926
C47 C 0.77093(14) 0.2255(3) 0.4124(2)
C48 C 0.75941(13) 0.2993(3) 0.3929(2)
H32 H 0.7763 0.3391 0.4140
C49 C 0.72291(14) 0.3143(3) 0.3420(2)
H33 H 0.7153 0.3639 0.3289
C50 C 0.82668(14) 0.1540(3) 0.4889(2)
H34 H 0.8182 0.1087 0.4657
C51 C 0.82904(12) 0.2779(2) 0.51823(18)
H35 H 0.8231 0.3292 0.5180
C52 C 0.86332(14) 0.2417(2) 0.5657(2)
H36 H 0.8829 0.2639 0.6028
Mn2 Mn 0.41581(3) 0.39911(4) 0.07705(4)
N6 N 0.34418(11) 0.49717(19) 0.35243(17)
H37 H 0.3230 0.4909 0.3171
H38 H 0.3414 0.5071 0.3918
N7 N 0.46381(11) 0.3198(2) 0.11865(17)
N8 N 0.52872(13) 0.2721(2) 0.1664(2)
N9 N 0.80595(12) 0.2250(2) 0.47245(19)
N10 N 0.86142(12) 0.1636(2) 0.54461(19)
O5 O 0.45043(9) 0.55496(19) 0.51087(15)
O6 O 0.38757(9) 0.53124(17) 0.48289(15)
O7 O 0.39133(9) 0.43187(17) 0.15748(14)
O8 O 0.45057(10) 0.47409(19) 0.17398(17)
Mn2C Mn 0.91581(3) 0.10089(4) 0.57705(4)
Mn2A Mn 0.41581(3) 0.60089(4) 0.57705(4)
N10C N 0.36142(12) 0.3364(2) 0.04461(19)
O5A O 0.45043(9) 0.44504(19) 0.01087(15)
O6A O 0.38757(9) 0.46876(17) -0.01711(15)
C53 C 0.38287(13) -0.0184(2) 0.5660(2)
C54 C 0.34741(13) -0.0044(2) 0.51517(19)
C55 C 0.34740(14) 0.0105(2) 0.4476(2)
H39 H 0.3231 0.0203 0.4130
C56 C 0.38351(13) 0.0105(2) 0.4335(2)
C57 C 0.42019(13) 0.0009(2) 0.4865(2)
H40 H 0.4447 0.0060 0.4773
C58 C 0.42051(13) -0.0161(2) 0.5525(2)
H41 H 0.4449 -0.0257 0.5871
C59 C 0.38304(13) -0.0430(2) 0.6369(2)
C60 C 0.38530(13) 0.0314(3) 0.3636(2)
C61 C 0.47247(12) 0.1639(2) 0.3512(2)
H42 H 0.4770 0.1227 0.3809
C62 C 0.44353(13) 0.2491(2) 0.2658(2)
H43 H 0.4246 0.2731 0.2291
C63 C 0.48140(12) 0.2757(2) 0.2993(2)
H44 H 0.4931 0.3196 0.2888
C64 C 0.54314(13) 0.2288(2) 0.3997(2)
C65 C 0.56109(13) 0.1676(2) 0.4408(2)
H45 H 0.5465 0.1230 0.4389
C66 C 0.60087(14) 0.1731(2) 0.4847(2)
H46 H 0.6129 0.1322 0.5121
C67 C 0.62271(14) 0.2398(2) 0.4875(2)
C68 C 0.60477(15) 0.3010(3) 0.4464(2)
H47 H 0.6194 0.3456 0.4483
C69 C 0.56498(12) 0.2955(2) 0.4026(2)
H48 H 0.5530 0.3364 0.3751
C70 C 0.66526(15) 0.2552(3) 0.5303(2)
C71 C 0.68797(14) 0.1915(3) 0.5414(2)
H49 H 0.6767 0.1479 0.5175
C72 C 0.72747(14) 0.1877(3) 0.5869(2)
H50 H 0.7418 0.1424 0.5964
C73 C 0.74439(13) 0.2562(2) 0.6174(2)
C74 C 0.72288(12) 0.3219(2) 0.6048(2)
H51 H 0.7353 0.3663 0.6255
C75 C 0.68306(12) 0.3244(3) 0.5623(2)
H52 H 0.6683 0.3694 0.5547
C76 C 0.81113(12) 0.3160(2) 0.6835(2)
H53 H 0.8023 0.3647 0.6687
C77 C 0.81284(12) 0.1899(2) 0.6996(2)
H54 H 0.8052 0.1393 0.6981
C78 C 0.85079(11) 0.2183(2) 0.73672(19)
H55 H 0.8728 0.1897 0.7628
Mn3 Mn 0.38421(3) 0.10253(4) 0.24978(4)
N11 N 0.30827(11) -0.0064(2) 0.51562(19)
H56 H 0.3042 -0.0182 0.5556
H57 H 0.2861 0.0035 0.4794
N12 N 0.43687(12) 0.1768(2) 0.29579(18)
N13 N 0.50015(12) 0.22375(18) 0.35424(17)
N14 N 0.78772(10) 0.2488(2) 0.66492(19)
N15 N 0.85038(11) 0.2966(2) 0.72845(18)
O9 O 0.41454(9) -0.07034(17) 0.68058(15)
O10 O 0.35187(9) -0.03243(17) 0.65094(14)
O11 O 0.35299(9) 0.05636(17) 0.32358(15)
O12 O 0.41440(9) 0.02951(16) 0.33961(15)
Mn3C Mn 0.88421(3) 0.39747(4) 0.74978(4)
Mn3A Mn 0.38421(3) -0.10253(4) 0.74978(4)
N15C N 0.35038(11) 0.2034(2) 0.22845(18)
O9A O 0.41454(9) 0.07034(17) 0.18058(15)
O10A O 0.35187(9) 0.03243(17) 0.15094(14)
C79 C 0.09848(13) -0.0139(2) 0.67730(19)
C80 C 0.06335(11) 0.0030(2) 0.62494(19)
C81 C 0.06471(11) 0.0179(2) 0.55660(19)
H58 H 0.0407 0.0267 0.5210
C82 C 0.10137(12) 0.0189(3) 0.5443(2)
C83 C 0.13672(12) 0.0044(2) 0.59731(19)
H59 H 0.1616 0.0059 0.5889
C84 C 0.13587(12) -0.0125(2) 0.6634(2)
H60 H 0.1600 -0.0229 0.6983
C85 C 0.09710(12) -0.0327(2) 0.7434(2)
C86 C 0.10181(13) 0.0342(2) 0.47317(19)
C87 C 0.18532(12) 0.1546(2) 0.4327(2)
H61 H 0.1969 0.1110 0.4214
C88 C 0.13809(14) 0.2431(3) 0.4377(2)
H62 H 0.1136 0.2685 0.4311
C89 C 0.17750(13) 0.2694(3) 0.4765(2)
H63 H 0.1833 0.3152 0.4999
C90 C 0.24886(14) 0.2209(3) 0.5162(2)
C91 C 0.26521(15) 0.2913(3) 0.5414(2)
H64 H 0.2485 0.3338 0.5342
C92 C 0.30612(14) 0.2978(3) 0.5768(2)
H65 H 0.3168 0.3448 0.5937
C93 C 0.33165(12) 0.2349(2) 0.5877(2)
C94 C 0.31537(14) 0.1647(2) 0.5623(2)
H66 H 0.3322 0.1223 0.5692
C95 C 0.27406(13) 0.1580(2) 0.5268(2)
H67 H 0.2633 0.1110 0.5100
C96 C 0.37609(13) 0.2435(2) 0.6273(2)
C97 C 0.39702(13) 0.3135(2) 0.6356(2)
H68 H 0.3835 0.3572 0.6154
C98 C 0.43793(14) 0.3162(3) 0.6742(2)
H69 H 0.4516 0.3624 0.6804
C99 C 0.45848(14) 0.2526(3) 0.7031(2)
C100 C 0.43823(12) 0.1838(2) 0.6973(2)
H70 H 0.4521 0.1407 0.7185
C101 C 0.39744(13) 0.1798(2) 0.6601(2)
H71 H 0.3839 0.1338 0.6567
C102 C 0.52109(14) 0.3178(2) 0.7678(2)
H72 H 0.5096 0.3659 0.7633
C103 C 0.52878(12) 0.1896(2) 0.75692(18)
H73 H 0.5233 0.1392 0.7441
C104 C 0.56666(14) 0.2208(3) 0.7985(2)
H74 H 0.5905 0.1935 0.8180
Mn4 Mn 0.09279(2) 0.10245(4) 0.35211(4)
N16 N 0.02510(10) -0.00057(16) 0.63207(18)
H75 H 0.0223 -0.0139 0.6707
H76 H 0.0040 0.0105 0.5979
N17 N 0.14319(10) 0.1717(2) 0.41125(18)
N18 N 0.20673(12) 0.2135(2) 0.47337(19)
N19 N 0.50152(12) 0.2511(2) 0.73954(17)
N20 N 0.56210(11) 0.29832(19) 0.80487(17)
O13 O 0.12918(8) -0.05584(16) 0.78935(13)
O14 O 0.06629(9) -0.02997(18) 0.76165(15)
O15 O 0.06995(9) 0.06283(17) 0.43353(14)
O16 O 0.13017(9) 0.02166(17) 0.45072(14)
Mn4C Mn 0.59279(2) 0.39755(4) 0.85211(4)
Mn4A Mn 0.09279(2) -0.10245(4) 0.85211(4)
N20C N 0.06210(11) 0.20168(19) 0.30487(17)
O13A O 0.12918(8) 0.05584(16) 0.28935(13)
O14A O 0.06629(9) 0.02997(18) 0.26165(15)
C105 C 0.24267(12) 0.4879(3) 1.1203(2)
C106 C 0.20469(13) 0.4995(3) 1.0690(2)
C107 C 0.20518(13) 0.5110(2) 1.0027(2)
H77 H 0.1808 0.5197 0.9678
C108 C 0.24124(12) 0.5098(2) 0.9876(2)
C109 C 0.27746(14) 0.4979(3) 1.0374(2)
H78 H 0.3015 0.4965 1.0262
C110 C 0.27840(13) 0.4880(3) 1.1050(2)
H79 H 0.3031 0.4814 1.1396
C111 C 0.24190(12) 0.4726(2) 1.1922(2)
C112 C 0.24115(14) 0.5247(3) 0.9165(2)
C113 C 0.32852(12) 0.6522(3) 0.90498(19)
H80 H 0.3344 0.6059 0.9276
C114 C 0.29503(13) 0.7453(3) 0.8321(2)
H81 H 0.2756 0.7713 0.7975
C115 C 0.33244(13) 0.7763(2) 0.8779(2)
H82 H 0.3412 0.8262 0.8789
C116 C 0.39349(11) 0.7225(2) 0.9646(2)
C117 C 0.40615(11) 0.7920(2) 1.0002(2)
H83 H 0.3885 0.8330 0.9941
C118 C 0.44430(12) 0.7960(2) 1.0425(2)
H84 H 0.4529 0.8410 1.0662
C119 C 0.47255(13) 0.7350(3) 1.0534(2)
C120 C 0.45974(13) 0.6666(3) 1.0189(2)
H85 H 0.4775 0.6259 1.0243
C121 C 0.41970(13) 0.6615(2) 0.9764(2)
H86 H 0.4103 0.6155 0.9552
C122 C 0.51517(12) 0.7438(2) 1.10043(19)
C123 C 0.52968(13) 0.8154(3) 1.1251(2)
H87 H 0.5124 0.8571 1.1138
C124 C 0.57005(12) 0.8245(2) 1.1667(2)
H88 H 0.5798 0.8723 1.1827
C125 C 0.59566(12) 0.7620(2) 1.1843(2)
C126 C 0.58116(14) 0.6911(3) 1.1600(2)
H89 H 0.5983 0.6493 1.1718
C127 C 0.54124(13) 0.6817(3) 1.1183(2)
H90 H 0.5318 0.6337 1.1022
C128 C 0.65794(13) 0.8392(3) 1.2360(2)
H91 H 0.6489 0.8855 1.2152
C129 C 0.66001(14) 0.7130(3) 1.2650(3)
H92 H 0.6528 0.6623 1.2651
C130 C 0.69803(14) 0.7469(3) 1.3060(2)
H93 H 0.7191 0.7228 1.3392
Mn5 Mn 0.24454(2) 0.59183(3) 0.80604(4)
N21 N 0.16767(11) 0.5046(2) 1.0779(2)
H94 H 0.1465 0.5145 1.0435
H95 H 0.1653 0.4980 1.1180
N22 N 0.29348(11) 0.6687(2) 0.84959(19)
N23 N 0.35307(10) 0.7172(2) 0.92047(19)
N24 N 0.63592(12) 0.7714(2) 1.2247(2)
N25 N 0.69683(12) 0.8247(2) 1.2854(2)
O17 O 0.27355(9) 0.45342(18) 1.23514(15)
O18 O 0.21058(9) 0.48306(18) 1.20964(16)
O19 O 0.20791(9) 0.54898(17) 0.87581(14)
O20 O 0.26940(11) 0.5178(2) 0.89249(18)
Mn5C Mn 0.74454(2) 0.90817(3) 1.30604(4)
Mn5A Mn 0.24454(2) 0.40817(3) 1.30604(4)
N25C N 0.19683(12) 0.6753(2) 0.7854(2)
O17A O 0.27355(9) 0.54658(18) 0.73514(15)
O18A O 0.21058(9) 0.51694(18) 0.70964(16)
O21 O 0.7194(3) 0.4941(5) 0.4848(5)
H96 H 0.7070 0.4708 0.4479
H97 H 0.7046 0.4948 0.5109
H98 H 0.2578 0.9997 0.7284
H99 H 0.2553 0.9356 0.7661
O22 O 0.2711(4) 0.9698(8) 0.7600(7)
loop_
_geom_bond_atom_site_label_1
_geom_bond_atom_site_label_2
_geom_bond_site_symmetry_1
_geom_bond_site_symmetry_2
C1 C2 1_555 1_555
C2 C3 1_555 1_555
C3 H1 1_555 1_555
C4 C3 1_555 1_555
C5 C4 1_555 1_555
H2 C5 1_555 1_555
C6 C1 1_555 1_555
H3 C6 1_555 1_555
C7 C1 1_555 1_555
C8 C4 1_555 1_555
C9 H4 1_555 1_555
C10 H5 1_555 1_555
C11 C10 1_555 1_555
H6 C11 1_555 1_555
C12 C13 1_555 1_555
C13 H7 1_555 1_555
C14 C13 1_555 1_555
H8 C14 1_555 1_555
C15 C14 1_555 1_555
C16 C15 1_555 1_555
H9 C16 1_555 1_555
C17 C12 1_555 1_555
H10 C17 1_555 1_555
C18 C15 1_555 1_555
C19 C18 1_555 1_555
H11 C19 1_555 1_555
C20 C19 1_555 1_555
H12 C20 1_555 1_555
C21 C20 1_555 1_555
C22 C21 1_555 1_555
H13 C22 1_555 1_555
C23 C18 1_555 1_555
H14 C23 1_555 1_555
C24 H15 1_555 1_555
C25 H16 1_555 1_555
C26 C25 1_555 1_555
H17 C26 1_555 1_555
Mn1 N2 1_555 1_555
N1 C2 1_555 1_555
H18 N1 1_555 1_555
H19 N1 1_555 1_555
N2 C9 1_555 1_555
N3 C9 1_555 1_555
N4 C21 1_555 1_555
N5 C24 1_555 1_555
O1 C7 1_555 1_555
O2 C7 1_555 1_555
O3 C8 1_555 1_555
O4 C8 1_555 1_555
C27 C28 1_555 1_555
C28 C29 1_555 1_555
C29 H20 1_555 1_555
C30 C29 1_555 1_555
C31 C30 1_555 1_555
H21 C31 1_555 1_555
C32 C27 1_555 1_555
H22 C32 1_555 1_555
C33 C27 1_555 1_555
C34 C30 1_555 1_555
C35 H23 1_555 1_555
C36 H24 1_555 1_555
C37 C36 1_555 1_555
H25 C37 1_555 1_555
C38 C39 1_555 1_555
C39 H26 1_555 1_555
C40 C39 1_555 1_555
H27 C40 1_555 1_555
C41 C40 1_555 1_555
C42 C41 1_555 1_555
H28 C42 1_555 1_555
C43 C38 1_555 1_555
H29 C43 1_555 1_555
C44 C41 1_555 1_555
C45 C44 1_555 1_555
H30 C45 1_555 1_555
C46 C45 1_555 1_555
H31 C46 1_555 1_555
C47 C46 1_555 1_555
C48 C47 1_555 1_555
H32 C48 1_555 1_555
C49 C44 1_555 1_555
H33 C49 1_555 1_555
C50 H34 1_555 1_555
C51 H35 1_555 1_555
C52 C51 1_555 1_555
H36 C52 1_555 1_555
Mn2 N7 1_555 1_555
N6 C28 1_555 1_555
H37 N6 1_555 1_555
H38 N6 1_555 1_555
N7 C35 1_555 1_555
N8 C35 1_555 1_555
N9 C47 1_555 1_555
N10 C50 1_555 1_555
O5 C33 1_555 1_555
O6 C33 1_555 1_555
O7 C34 1_555 1_555
O8 C34 1_555 1_555
C53 C54 1_555 1_555
C54 C55 1_555 1_555
C55 H39 1_555 1_555
C56 C55 1_555 1_555
C57 C56 1_555 1_555
H40 C57 1_555 1_555
C58 C53 1_555 1_555
H41 C58 1_555 1_555
C59 C53 1_555 1_555
C60 C56 1_555 1_555
C61 H42 1_555 1_555
C62 H43 1_555 1_555
C63 C62 1_555 1_555
H44 C63 1_555 1_555
C64 C65 1_555 1_555
C65 H45 1_555 1_555
C66 C65 1_555 1_555
H46 C66 1_555 1_555
C67 C66 1_555 1_555
C68 C67 1_555 1_555
H47 C68 1_555 1_555
C69 C64 1_555 1_555
H48 C69 1_555 1_555
C70 C67 1_555 1_555
C71 C70 1_555 1_555
H49 C71 1_555 1_555
C72 C71 1_555 1_555
H50 C72 1_555 1_555
C73 C72 1_555 1_555
C74 C73 1_555 1_555
H51 C74 1_555 1_555
C75 C70 1_555 1_555
H52 C75 1_555 1_555
C76 H53 1_555 1_555
C77 H54 1_555 1_555
C78 C77 1_555 1_555
H55 C78 1_555 1_555
Mn3 N12 1_555 1_555
N11 C54 1_555 1_555
H56 N11 1_555 1_555
H57 N11 1_555 1_555
N12 C61 1_555 1_555
N13 C61 1_555 1_555
N14 C73 1_555 1_555
N15 C76 1_555 1_555
O9 C59 1_555 1_555
O10 C59 1_555 1_555
O11 C60 1_555 1_555
O12 C60 1_555 1_555
C79 C80 1_555 1_555
C80 C81 1_555 1_555
C81 H58 1_555 1_555
C82 C81 1_555 1_555
C83 C82 1_555 1_555
H59 C83 1_555 1_555
C84 C79 1_555 1_555
H60 C84 1_555 1_555
C85 C79 1_555 1_555
C86 C82 1_555 1_555
C87 H61 1_555 1_555
C88 H62 1_555 1_555
C89 C88 1_555 1_555
H63 C89 1_555 1_555
C90 C91 1_555 1_555
C91 H64 1_555 1_555
C92 C91 1_555 1_555
H65 C92 1_555 1_555
C93 C92 1_555 1_555
C94 C93 1_555 1_555
H66 C94 1_555 1_555
C95 C90 1_555 1_555
H67 C95 1_555 1_555
C96 C93 1_555 1_555
C97 C96 1_555 1_555
H68 C97 1_555 1_555
C98 C97 1_555 1_555
H69 C98 1_555 1_555
C99 C98 1_555 1_555
C100 C99 1_555 1_555
H70 C100 1_555 1_555
C101 C96 1_555 1_555
H71 C101 1_555 1_555
C102 H72 1_555 1_555
C103 H73 1_555 1_555
C104 C103 1_555 1_555
H74 C104 1_555 1_555
Mn4 N17 1_555 1_555
N16 C80 1_555 1_555
H75 N16 1_555 1_555
H76 N16 1_555 1_555
N17 C87 1_555 1_555
N18 C87 1_555 1_555
N19 C99 1_555 1_555
N20 C102 1_555 1_555
O13 C85 1_555 1_555
O14 C85 1_555 1_555
O15 C86 1_555 1_555
O16 C86 1_555 1_555
C105 C106 1_555 1_555
C106 C107 1_555 1_555
C107 H77 1_555 1_555
C108 C107 1_555 1_555
C109 C108 1_555 1_555
H78 C109 1_555 1_555
C110 C105 1_555 1_555
H79 C110 1_555 1_555
C111 C105 1_555 1_555
C112 C108 1_555 1_555
C113 H80 1_555 1_555
C114 H81 1_555 1_555
C115 C114 1_555 1_555
H82 C115 1_555 1_555
C116 C117 1_555 1_555
C117 H83 1_555 1_555
C118 C117 1_555 1_555
H84 C118 1_555 1_555
C119 C118 1_555 1_555
C120 C119 1_555 1_555
H85 C120 1_555 1_555
C121 C116 1_555 1_555
H86 C121 1_555 1_555
C122 C119 1_555 1_555
C123 C122 1_555 1_555
H87 C123 1_555 1_555
C124 C123 1_555 1_555
H88 C124 1_555 1_555
C125 C124 1_555 1_555
C126 C125 1_555 1_555
H89 C126 1_555 1_555
C127 C122 1_555 1_555
H90 C127 1_555 1_555
C128 H91 1_555 1_555
C129 H92 1_555 1_555
C130 C129 1_555 1_555
H93 C130 1_555 1_555
Mn5 N22 1_555 1_555
N21 C106 1_555 1_555
H94 N21 1_555 1_555
H95 N21 1_555 1_555
N22 C113 1_555 1_555
N23 C113 1_555 1_555
N24 C125 1_555 1_555
N25 C128 1_555 1_555
O17 C111 1_555 1_555
O18 C111 1_555 1_555
O19 C112 1_555 1_555
O20 C112 1_555 1_555
O21 H96 1_555 1_555
H97 O21 1_555 1_555
H98 O22 1_555 1_555
H99 O22 1_555 1_555
Mn1C N5 1_555 1_555
Mn1A O1 1_555 1_555
N5C Mn1 1_555 1_555
O1A Mn1 1_555 1_555
O2A Mn1 1_555 1_555
Mn2C N10 1_555 1_555
Mn2A O5 1_555 1_555
N10C Mn2 1_555 1_555
O5A Mn2 1_555 1_555
O6A Mn2 1_555 1_555
Mn3C N15 1_555 1_555
Mn3A O9 1_555 1_555
N15C Mn3 1_555 1_555
O9A Mn3 1_555 1_555
O10A Mn3 1_555 1_555
Mn4C N20 1_555 1_555
Mn4A O13 1_555 1_555
N20C Mn4 1_555 1_555
O13A Mn4 1_555 1_555
O14A Mn4 1_555 1_555
Mn5C N25 1_555 1_555
Mn5A O17 1_555 1_555
N25C Mn5 1_555 1_555
O17A Mn5 1_555 1_555
O18A Mn5 1_555 1_555
C5 C6 1_555 1_555
C10 N2 1_555 1_555
C11 N3 1_555 1_555
C12 N3 1_555 1_555
C16 C17 1_555 1_555
C22 C23 1_555 1_555
C24 N4 1_555 1_555
C25 N4 1_555 1_555
C26 N5 1_555 1_555
Mn1 O3 1_555 1_555
Mn1 O4 1_555 1_555
O2 Mn1A 1_555 1_555
C31 C32 1_555 1_555
C36 N7 1_555 1_555
C37 N8 1_555 1_555
C38 N8 1_555 1_555
C42 C43 1_555 1_555
C48 C49 1_555 1_555
C50 N9 1_555 1_555
C51 N9 1_555 1_555
C52 N10 1_555 1_555
Mn2 O7 1_555 1_555
Mn2 O8 1_555 1_555
O6 Mn2A 1_555 1_555
C57 C58 1_555 1_555
C62 N12 1_555 1_555
C63 N13 1_555 1_555
C64 N13 1_555 1_555
C68 C69 1_555 1_555
C74 C75 1_555 1_555
C76 N14 1_555 1_555
C77 N14 1_555 1_555
C78 N15 1_555 1_555
Mn3 O11 1_555 1_555
Mn3 O12 1_555 1_555
O10 Mn3A 1_555 1_555
C83 C84 1_555 1_555
C88 N17 1_555 1_555
C89 N18 1_555 1_555
C90 N18 1_555 1_555
C94 C95 1_555 1_555
C100 C101 1_555 1_555
C102 N19 1_555 1_555
C103 N19 1_555 1_555
C104 N20 1_555 1_555
Mn4 O15 1_555 1_555
Mn4 O16 1_555 1_555
O14 Mn4A 1_555 1_555
C109 C110 1_555 1_555
C114 N22 1_555 1_555
C115 N23 1_555 1_555
C116 N23 1_555 1_555
C120 C121 1_555 1_555
C126 C127 1_555 1_555
C128 N24 1_555 1_555
C129 N24 1_555 1_555
C130 N25 1_555 1_555
Mn5 O19 1_555 1_555
Mn5 O20 1_555 1_555
O18 Mn5A 1_555 1_555

#END
