
#######################################################################
#
#                 Cambridge Crystallographic Data Centre
#                                CCDC 
#
#######################################################################
#
# If this CIF has been generated from an entry in the Cambridge 
# Structural Database, then it will include bibliographic, chemical, 
# crystal, experimental, refinement or atomic coordinate data resulting 
# from the CCDC's data processing and validation procedures.
#
#######################################################################

data_ACOPEO
_symmetry_cell_setting           monoclinic
_symmetry_space_group_name_H-M   'C 2/c'
_symmetry_Int_Tables_number      15
_space_group_name_Hall           '-C 2yn'
loop_
_symmetry_equiv_pos_site_id
_symmetry_equiv_pos_as_xyz
1 x,y,z
2 1/2+x,1/2+y,z
3 -x,y,1/2-z
4 1/2-x,1/2+y,1/2-z
5 -x,-y,-z
6 1/2-x,1/2-y,-z
7 x,-y,1/2+z
8 1/2+x,1/2-y,1/2+z
_cell_length_a                   11.679(2)
_cell_length_b                   16.358(3)
_cell_length_c                   15.793(3)
_cell_angle_alpha                90
_cell_angle_beta                 93.16(3)
_cell_angle_gamma                90
_cell_volume                     3012.59
loop_
_atom_site_label
_atom_site_type_symbol
_atom_site_fract_x
_atom_site_fract_y
_atom_site_fract_z
Pb1 Pb 0.73657(2) 0.312902(14) 0.371357(15)
Cl1 Cl 0.5000 0.19077(16) 0.2500
Cl2 Cl 1.0000 0.31969(16) 0.2500
O1 O 0.6252(7) 0.2694(5) 0.5066(4)
O2 O 0.5590(5) 0.3599(4) 0.4164(4)
O3 O 0.5963(8) 0.2360(6) 0.2286(9)
O4 O 0.4668(15) 0.1453(14) 0.1791(9)
O5 O 0.9611(6) 0.3674(5) 0.3155(5)
O6 O 0.9056(12) 0.2744(9) 0.2188(8)
N1 N 0.7969(5) 0.4373(4) 0.4441(4)
N2 N 0.6979(5) 0.4375(4) 0.2866(3)
C1 C 0.8443(7) 0.4343(5) 0.5237(4)
H1 H 0.8525 0.3838 0.5505
C2 C 0.8811(7) 0.5036(6) 0.5666(5)
H2 H 0.9097 0.5003 0.6226
C3 C 0.8749(8) 0.5773(5) 0.5258(6)
H3 H 0.9027 0.6242 0.5530
C4 C 0.8266(7) 0.5815(5) 0.4433(5)
H4 H 0.8212 0.6312 0.4149
C5 C 0.7868(5) 0.5100(4) 0.4043(4)
C6 C 0.7273(6) 0.5098(4) 0.3187(4)
C7 C 0.7001(7) 0.5820(4) 0.2767(5)
H5 H 0.7202 0.6320 0.3013
C8 C 0.6424(8) 0.5790(5) 0.1972(6)
H6 H 0.6253 0.6267 0.1670
C9 C 0.6112(8) 0.5037(6) 0.1645(5)
H7 H 0.5713 0.4994 0.1121
C10 C 0.6402(7) 0.4353(5) 0.2108(5)
H8 H 0.6187 0.3846 0.1885
C11 C 0.5476(7) 0.3151(5) 0.4794(5)
C12 C 0.4350(9) 0.3198(7) 0.5226(8)
H9 H 0.4371 0.2830 0.5700
H10 H 0.3732 0.3047 0.4830
H11 H 0.4233 0.3746 0.5421
Pb1E Pb 0.76343(2) 0.187098(14) 0.628643(15)
Pb1B Pb 0.26343(2) 0.312902(14) 0.128643(15)
Pb1B_2 Pb 1.26343(2) 0.312902(14) 0.128643(15)
O1E O 0.8748(7) 0.2306(5) 0.4934(4)
O2E O 0.9410(5) 0.1401(4) 0.5836(4)
O3B O 0.4037(8) 0.2360(6) 0.2714(9)
O3E O 0.9037(8) 0.2640(6) 0.7714(9)
O4B O 0.5332(15) 0.1453(14) 0.3209(9)
O5B O 1.0389(6) 0.3674(5) 0.1845(5)
O5E O 0.5389(6) 0.1326(5) 0.6845(5)
O6B O 1.0944(12) 0.2744(9) 0.2812(8)
O6E O 0.5944(12) 0.2256(9) 0.7812(8)
N1E N 0.7031(5) 0.0627(4) 0.5559(4)
N2E N 0.8021(5) 0.0625(4) 0.7134(3)
C1E C 0.6557(7) 0.0657(5) 0.4763(4)
H1E H 0.6475 0.1162 0.4495
C2E C 0.6189(7) -0.0036(6) 0.4334(5)
H2E H 0.5903 -0.0003 0.3774
C3E C 0.6251(8) -0.0773(5) 0.4742(6)
H3E H 0.5973 -0.1242 0.4470
C4E C 0.6734(7) -0.0815(5) 0.5567(5)
H4E H 0.6788 -0.1312 0.5851
C5E C 0.7132(5) -0.0100(4) 0.5957(4)
C6E C 0.7727(6) -0.0098(4) 0.6813(4)
C7E C 0.7999(7) -0.0820(4) 0.7233(5)
H5E H 0.7798 -0.1320 0.6987
C8E C 0.8576(8) -0.0790(5) 0.8028(6)
H6E H 0.8747 -0.1267 0.8330
C9E C 0.8888(8) -0.0037(6) 0.8355(5)
H7E H 0.9287 0.0006 0.8879
C10E C 0.8598(7) 0.0647(5) 0.7892(5)
H8E H 0.8813 0.1154 0.8115
C11E C 0.9524(7) 0.1849(5) 0.5206(5)
C12E C 1.0650(9) 0.1802(7) 0.4774(8)
H9E H 1.0629 0.2170 0.4300
H10E H 1.1268 0.1953 0.5170
H11E H 1.0767 0.1254 0.4579
loop_
_geom_bond_atom_site_label_1
_geom_bond_atom_site_label_2
_geom_bond_site_symmetry_1
_geom_bond_site_symmetry_2
Pb1 O1 1_555 1_555
Cl1 O3 1_555 1_555
Cl2 O5 1_555 1_555
O1 C11 1_555 1_555
O2 Pb1 1_555 1_555
O3 Pb1 1_555 1_555
O4 Cl1 1_555 1_555
O5 Pb1 1_555 1_555
O6 Pb1 1_555 1_555
N1 Pb1 1_555 1_555
N2 Pb1 1_555 1_555
C1 N1 1_555 1_555
H1 C1 1_555 1_555
C2 C1 1_555 1_555
H2 C2 1_555 1_555
C3 C2 1_555 1_555
H3 C3 1_555 1_555
C4 C3 1_555 1_555
H4 C4 1_555 1_555
C5 N1 1_555 1_555
C6 N2 1_555 1_555
C7 C6 1_555 1_555
H5 C7 1_555 1_555
C8 C7 1_555 1_555
H6 C8 1_555 1_555
C9 C8 1_555 1_555
H7 C9 1_555 1_555
C10 N2 1_555 1_555
H8 C10 1_555 1_555
C11 O2 1_555 1_555
C12 C11 1_555 1_555
H9 C12 1_555 1_555
H10 C12 1_555 1_555
H11 C12 1_555 1_555
Pb1E O1 1_555 1_555
Pb1B O3B 1_555 1_555
Pb1B_2 O5B 1_555 1_555
O1E Pb1 1_555 1_555
O2E Pb1E 1_555 1_555
O3B Cl1 1_555 1_555
O3E Pb1E 1_555 1_555
O4B Cl1 1_555 1_555
O5B Cl2 1_555 1_555
O5E Pb1E 1_555 1_555
O6B Cl2 1_555 1_555
O6E Pb1E 1_555 1_555
N1E Pb1E 1_555 1_555
N2E Pb1E 1_555 1_555
C1E N1E 1_555 1_555
H1E C1E 1_555 1_555
C2E C1E 1_555 1_555
H2E C2E 1_555 1_555
C3E C2E 1_555 1_555
H3E C3E 1_555 1_555
C4E C3E 1_555 1_555
H4E C4E 1_555 1_555
C5E N1E 1_555 1_555
C6E N2E 1_555 1_555
C7E C6E 1_555 1_555
H5E C7E 1_555 1_555
C8E C7E 1_555 1_555
H6E C8E 1_555 1_555
C9E C8E 1_555 1_555
H7E C9E 1_555 1_555
C10E N2E 1_555 1_555
H8E C10E 1_555 1_555
C11E O1E 1_555 1_555
C12E C11E 1_555 1_555
H9E C12E 1_555 1_555
H10E C12E 1_555 1_555
H11E C12E 1_555 1_555
Cl2 O6 1_555 1_555
C4 C5 1_555 1_555
C5 C6 1_555 1_555
C9 C10 1_555 1_555
Pb1E O1E 1_555 1_555
Pb1B_2 O6B 1_555 1_555
O2E C11E 1_555 1_555
C4E C5E 1_555 1_555
C5E C6E 1_555 1_555
C9E C10E 1_555 1_555

#END
