
#######################################################################
#
#                 Cambridge Crystallographic Data Centre
#                                CCDC 
#
#######################################################################
#
# If this CIF has been generated from an entry in the Cambridge 
# Structural Database, then it will include bibliographic, chemical, 
# crystal, experimental, refinement or atomic coordinate data resulting 
# from the CCDC's data processing and validation procedures.
#
#######################################################################

data_ACOPOY
_symmetry_cell_setting           triclinic
_symmetry_space_group_name_H-M   'P -1'
_symmetry_Int_Tables_number      2
_space_group_name_Hall           '-P 1'
loop_
_symmetry_equiv_pos_site_id
_symmetry_equiv_pos_as_xyz
1 x,y,z
2 -x,-y,-z
_cell_length_a                   10.991(12)
_cell_length_b                   11.011(12)
_cell_length_c                   11.305(12)
_cell_angle_alpha                70.44(2)
_cell_angle_beta                 87.44(2)
_cell_angle_gamma                62.552(19)
_cell_volume                     1134.19
loop_
_atom_site_label
_atom_site_type_symbol
_atom_site_fract_x
_atom_site_fract_y
_atom_site_fract_z
Ni1 Ni 1.0000 0.0000 0.0000
Na1 Na 0.6995(4) 0.4780(5) 0.3908(4)
N1 N 0.8771(11) 0.4139(16) 0.2585(11)
N2 N 1.3090(11) 0.2268(15) 0.1726(12)
O1 O 0.7425(14) 0.6860(17) 0.4229(17)
O2 O 0.8285(14) 0.422(3) 0.6132(12)
O3 O 0.848(2) 0.208(2) 0.554(2)
O4 O 0.6167(18) 0.275(2) 0.375(2)
O5 O 0.5327(12) 0.519(2) 0.1972(12)
O6 O 0.5638(12) 0.7445(13) 0.2234(12)
O7 O 0.5000 0.5000 0.5000
S1 S 0.8864(3) 0.1797(4) 0.0709(3)
S2 S 1.1583(3) 0.0635(4) 0.0199(3)
C1 C 0.746(3) 0.687(3) 0.546(2)
H1 H 0.6583 0.7033 0.5783
H2 H 0.7694 0.7599 0.5510
C2 C 0.860(2) 0.533(3) 0.6135(18)
H3 H 0.9426 0.5201 0.5739
H4 H 0.8793 0.5212 0.7006
C3 C 0.958(2) 0.283(3) 0.649(2)
H5 H 1.0156 0.2673 0.7204
H6 H 1.0104 0.2718 0.5782
C4 C 0.884(3) 0.193(3) 0.6817(18)
H7 H 0.9450 0.0916 0.7339
H8 H 0.8034 0.2336 0.7226
C5 C 0.803(4) 0.103(2) 0.563(2)
H9 H 0.7665 0.0846 0.6430
H10 H 0.8848 0.0126 0.5685
C6 C 0.697(3) 0.133(2) 0.462(3)
H11 H 0.7460 0.0715 0.4131
H12 H 0.6341 0.0999 0.5043
C7 C 0.590(3) 0.276(2) 0.259(2)
H13 H 0.5611 0.2041 0.2616
H14 H 0.6672 0.2643 0.2099
C8 C 0.475(2) 0.427(3) 0.213(2)
H15 H 0.4265 0.4474 0.1337
H16 H 0.4101 0.4399 0.2747
C9 C 0.4478(18) 0.664(2) 0.122(2)
H17 H 0.3682 0.7074 0.1636
H18 H 0.4152 0.6692 0.0415
C10 C 0.533(3) 0.747(3) 0.1017(17)
H19 H 0.6169 0.6992 0.0674
H20 H 0.4792 0.8471 0.0438
C11 C 0.612(3) 0.850(2) 0.207(2)
H21 H 0.5387 0.9492 0.1648
H22 H 0.6891 0.8323 0.1579
C12 C 0.657(3) 0.8295(18) 0.339(2)
H23 H 0.7054 0.8859 0.3325
H24 H 0.5746 0.8720 0.3773
C13 C 1.0395(10) 0.1864(14) 0.0840(10)
C14 C 1.0699(16) 0.2582(16) 0.1459(11)
C15 C 0.9589(13) 0.3502(16) 0.2080(11)
C16 C 1.2038(15) 0.2452(17) 0.1562(13)
Na1A Na 1.3005(4) -0.4780(5) -0.3908(4)
Na1A_2 Na 0.3005(4) 0.5220(5) 0.6092(4)
N1A N 1.1229(11) -0.4139(16) -0.2585(11)
N2A N 0.6910(11) -0.2268(15) -0.1726(12)
O1A O 1.2575(14) -0.6860(17) -0.4229(17)
O2A O 1.1715(14) -0.422(3) -0.6132(12)
O3A O 1.152(2) -0.208(2) -0.554(2)
O4A O 1.3833(18) -0.275(2) -0.375(2)
O5A O 1.4673(12) -0.519(2) -0.1972(12)
O6A O 1.4362(12) -0.7445(13) -0.2234(12)
O7_2 O 1.5000 -0.5000 -0.5000
S1A S 1.1136(3) -0.1797(4) -0.0709(3)
S2A S 0.8417(3) -0.0635(4) -0.0199(3)
C1A C 1.254(3) -0.687(3) -0.546(2)
H1A H 1.3417 -0.7033 -0.5783
H2A H 1.2306 -0.7599 -0.5510
C2A C 1.140(2) -0.533(3) -0.6135(18)
H3A H 1.0574 -0.5201 -0.5739
H4A H 1.1207 -0.5212 -0.7006
C3A C 1.042(2) -0.283(3) -0.649(2)
H5A H 0.9844 -0.2673 -0.7204
H6A H 0.9896 -0.2718 -0.5782
C4A C 1.116(3) -0.193(3) -0.6817(18)
H7A H 1.0550 -0.0916 -0.7339
H8A H 1.1966 -0.2336 -0.7226
C5A C 1.197(4) -0.103(2) -0.563(2)
H9A H 1.2335 -0.0846 -0.6430
H10A H 1.1152 -0.0126 -0.5685
C6A C 1.303(3) -0.133(2) -0.462(3)
H11A H 1.2540 -0.0715 -0.4131
H12A H 1.3659 -0.0999 -0.5043
C7A C 1.410(3) -0.276(2) -0.259(2)
H13A H 1.4389 -0.2041 -0.2616
H14A H 1.3328 -0.2643 -0.2099
C8A C 1.525(2) -0.427(3) -0.213(2)
H15A H 1.5735 -0.4474 -0.1337
H16A H 1.5899 -0.4399 -0.2747
C9A C 1.5522(18) -0.664(2) -0.122(2)
H17A H 1.6318 -0.7074 -0.1636
H18A H 1.5848 -0.6692 -0.0415
C10A C 1.467(3) -0.747(3) -0.1017(17)
H19A H 1.3831 -0.6992 -0.0674
H20A H 1.5208 -0.8471 -0.0438
C11A C 1.388(3) -0.850(2) -0.207(2)
H21A H 1.4613 -0.9492 -0.1648
H22A H 1.3109 -0.8323 -0.1579
C12A C 1.343(3) -0.8295(18) -0.339(2)
H23A H 1.2946 -0.8859 -0.3325
H24A H 1.4254 -0.8720 -0.3773
C13A C 0.9605(10) -0.1864(14) -0.0840(10)
C14A C 0.9301(16) -0.2582(16) -0.1459(11)
C15A C 1.0411(13) -0.3502(16) -0.2080(11)
C16A C 0.7962(15) -0.2452(17) -0.1562(13)
loop_
_geom_bond_atom_site_label_1
_geom_bond_atom_site_label_2
_geom_bond_site_symmetry_1
_geom_bond_site_symmetry_2
Ni1 S1 1_555 1_555
Na1 N1 1_555 1_555
N1 C15 1_555 1_555
N2 C16 1_555 1_555
O1 Na1 1_555 1_555
O2 Na1 1_555 1_555
O3 Na1 1_555 1_555
O4 Na1 1_555 1_555
O5 Na1 1_555 1_555
O6 Na1 1_555 1_555
O7 Na1 1_555 1_555
S1 C13 1_555 1_555
S2 Ni1 1_555 1_555
C1 O1 1_555 1_555
H1 C1 1_555 1_555
H2 C1 1_555 1_555
C2 O2 1_555 1_555
H3 C2 1_555 1_555
H4 C2 1_555 1_555
C3 O2 1_555 1_555
H5 C3 1_555 1_555
H6 C3 1_555 1_555
C4 O3 1_555 1_555
H7 C4 1_555 1_555
H8 C4 1_555 1_555
C5 O3 1_555 1_555
H9 C5 1_555 1_555
H10 C5 1_555 1_555
C6 O4 1_555 1_555
H11 C6 1_555 1_555
H12 C6 1_555 1_555
C7 O4 1_555 1_555
H13 C7 1_555 1_555
H14 C7 1_555 1_555
C8 O5 1_555 1_555
H15 C8 1_555 1_555
H16 C8 1_555 1_555
C9 O5 1_555 1_555
H17 C9 1_555 1_555
H18 C9 1_555 1_555
C10 O6 1_555 1_555
H19 C10 1_555 1_555
H20 C10 1_555 1_555
C11 O6 1_555 1_555
H21 C11 1_555 1_555
H22 C11 1_555 1_555
C12 O1 1_555 1_555
H23 C12 1_555 1_555
H24 C12 1_555 1_555
C13 S2 1_555 1_555
C14 C13 1_555 1_555
C15 C14 1_555 1_555
C16 C14 1_555 1_555
Na1A N1A 1_555 1_555
Na1A_2 O7 1_555 1_555
N1A C15A 1_555 1_555
N2A C16A 1_555 1_555
O1A Na1A 1_555 1_555
O2A Na1A 1_555 1_555
O3A Na1A 1_555 1_555
O4A Na1A 1_555 1_555
O5A Na1A 1_555 1_555
O6A Na1A 1_555 1_555
O7_2 Na1A 1_555 1_555
S1A Ni1 1_555 1_555
S2A Ni1 1_555 1_555
C1A O1A 1_555 1_555
H1A C1A 1_555 1_555
H2A C1A 1_555 1_555
C2A O2A 1_555 1_555
H3A C2A 1_555 1_555
H4A C2A 1_555 1_555
C3A O2A 1_555 1_555
H5A C3A 1_555 1_555
H6A C3A 1_555 1_555
C4A O3A 1_555 1_555
H7A C4A 1_555 1_555
H8A C4A 1_555 1_555
C5A O3A 1_555 1_555
H9A C5A 1_555 1_555
H10A C5A 1_555 1_555
C6A O4A 1_555 1_555
H11A C6A 1_555 1_555
H12A C6A 1_555 1_555
C7A O4A 1_555 1_555
H13A C7A 1_555 1_555
H14A C7A 1_555 1_555
C8A O5A 1_555 1_555
H15A C8A 1_555 1_555
H16A C8A 1_555 1_555
C9A O5A 1_555 1_555
H17A C9A 1_555 1_555
H18A C9A 1_555 1_555
C10A O6A 1_555 1_555
H19A C10A 1_555 1_555
H20A C10A 1_555 1_555
C11A O6A 1_555 1_555
H21A C11A 1_555 1_555
H22A C11A 1_555 1_555
C12A O1A 1_555 1_555
H23A C12A 1_555 1_555
H24A C12A 1_555 1_555
C13A S1A 1_555 1_555
C14A C13A 1_555 1_555
C15A C14A 1_555 1_555
C16A C14A 1_555 1_555
C1 C2 1_555 1_555
C3 C4 1_555 1_555
C5 C6 1_555 1_555
C7 C8 1_555 1_555
C9 C10 1_555 1_555
C11 C12 1_555 1_555
S2A C13A 1_555 1_555
C1A C2A 1_555 1_555
C3A C4A 1_555 1_555
C5A C6A 1_555 1_555
C7A C8A 1_555 1_555
C9A C10A 1_555 1_555
C11A C12A 1_555 1_555

#END
