
#######################################################################
#
#                 Cambridge Crystallographic Data Centre
#                                CCDC 
#
#######################################################################
#
# If this CIF has been generated from an entry in the Cambridge 
# Structural Database, then it will include bibliographic, chemical, 
# crystal, experimental, refinement or atomic coordinate data resulting 
# from the CCDC's data processing and validation procedures.
#
#######################################################################

data_ACOPUE
_symmetry_cell_setting           monoclinic
_symmetry_space_group_name_H-M   'P 21/n'
_symmetry_Int_Tables_number      14
_space_group_name_Hall           '-P 2yn'
loop_
_symmetry_equiv_pos_site_id
_symmetry_equiv_pos_as_xyz
1 x,y,z
2 1/2-x,1/2+y,1/2-z
3 -x,-y,-z
4 1/2+x,1/2-y,1/2+z
_cell_length_a                   17.341(6)
_cell_length_b                   6.744(2)
_cell_length_c                   34.555(12)
_cell_angle_alpha                90
_cell_angle_beta                 100.493(6)
_cell_angle_gamma                90
_cell_volume                     3973.55
loop_
_atom_site_label
_atom_site_type_symbol
_atom_site_fract_x
_atom_site_fract_y
_atom_site_fract_z
Cu1 Cu 0.43725(3) 0.28611(8) 0.249428(13)
N1 N 0.44340(17) 0.2651(5) 0.30793(8)
N2 N 0.41173(18) 0.2924(6) 0.44956(9)
H1 H 0.3696 0.3169 0.4329
N3 N 0.3685(2) 0.3870(6) 0.60464(11)
O1 O 0.53811(17) 0.1951(5) 0.45237(8)
O2 O 0.4231(2) 0.3564(6) 0.63197(9)
O3 O 0.3031(2) 0.4376(6) 0.60938(10)
C1 C 0.4891(2) 0.1293(7) 0.32894(11)
H2 H 0.5149 0.0376 0.3157
C2 C 0.4998(2) 0.1195(6) 0.36959(11)
H3 H 0.5330 0.0249 0.3833
C3 C 0.4605(2) 0.2514(6) 0.38941(10)
C4 C 0.4126(2) 0.3905(6) 0.36781(11)
H4 H 0.3849 0.4809 0.3803
C5 C 0.4062(2) 0.3938(6) 0.32756(11)
H5 H 0.3746 0.4900 0.3133
C6 C 0.4748(2) 0.2417(6) 0.43362(11)
C7 C 0.4054(2) 0.3105(6) 0.48900(11)
C8 C 0.4670(2) 0.2801(6) 0.52028(10)
H6 H 0.5161 0.2435 0.5156
C9 C 0.4548(2) 0.3046(6) 0.55822(11)
H7 H 0.4955 0.2839 0.5794
C10 C 0.3816(2) 0.3602(6) 0.56447(11)
C11 C 0.3202(2) 0.3916(7) 0.53402(13)
H8 H 0.2712 0.4287 0.5389
C12 C 0.3325(2) 0.3673(7) 0.49634(12)
H9 H 0.2915 0.3891 0.4754
N4 N 0.55475(17) 0.3283(5) 0.26071(8)
N5 N 0.81859(18) 0.4561(5) 0.34246(9)
H10 H 0.7821 0.5239 0.3501
N6 N 1.1044(3) 0.4241(6) 0.44815(14)
O4 O 0.84599(16) 0.2800(5) 0.29040(8)
O5 O 1.1047(2) 0.4564(7) 0.48284(12)
O6 O 1.1633(2) 0.3847(7) 0.43504(13)
C13 C 0.6039(2) 0.1819(7) 0.25592(11)
H11 H 0.5838 0.0688 0.2423
C14 C 0.6835(2) 0.1919(7) 0.27043(11)
H12 H 0.7163 0.0871 0.2668
C15 C 0.7136(2) 0.3603(6) 0.29045(10)
C16 C 0.6633(2) 0.5144(6) 0.29423(11)
H13 H 0.6821 0.6314 0.3068
C17 C 0.5847(2) 0.4924(7) 0.27920(11)
H14 H 0.5510 0.5963 0.2820
C18 C 0.7995(2) 0.3612(6) 0.30728(11)
C19 C 0.8921(2) 0.4546(6) 0.36763(11)
C20 C 0.9614(2) 0.4184(6) 0.35427(12)
H15 H 0.9613 0.4018 0.3275
C21 C 1.0306(2) 0.4074(6) 0.38104(13)
H16 H 1.0774 0.3797 0.3726
C22 C 1.0299(3) 0.4377(7) 0.42017(13)
C23 C 0.9628(3) 0.4794(8) 0.43351(14)
H17 H 0.9641 0.5016 0.4602
C24 C 0.8936(3) 0.4886(8) 0.40748(13)
H18 H 0.8474 0.5176 0.4164
N7 N 0.42941(17) 0.3178(5) 0.19083(8)
N8 N 0.33497(19) 0.4072(5) 0.04367(9)
H19 H 0.2965 0.3852 0.0556
N9 N 0.2475(2) 0.4872(6) -0.12001(11)
O7 O 0.46638(17) 0.4539(6) 0.05430(8)
O8 O 0.1802(2) 0.4539(8) -0.13502(10)
O9 O 0.2960(2) 0.5396(7) -0.13936(9)
C25 C 0.4836(2) 0.4160(6) 0.17499(11)
H20 H 0.5274 0.4662 0.1917
C26 C 0.4774(2) 0.4453(6) 0.13533(11)
H21 H 0.5172 0.5097 0.1256
C27 C 0.4114(2) 0.3787(6) 0.10984(10)
C28 C 0.3566(2) 0.2742(6) 0.12579(10)
H22 H 0.3122 0.2234 0.1096
C29 C 0.3678(2) 0.2453(6) 0.16565(11)
H23 H 0.3307 0.1715 0.1758
C30 C 0.4070(2) 0.4182(6) 0.06654(11)
C31 C 0.3160(2) 0.4279(6) 0.00258(11)
C32 C 0.3701(2) 0.4849(7) -0.02048(12)
H24 H 0.4219 0.5100 -0.0088
C33 C 0.3472(3) 0.5041(7) -0.06037(12)
H25 H 0.3830 0.5443 -0.0758
C34 C 0.2712(2) 0.4638(6) -0.07747(11)
C35 C 0.2167(2) 0.4055(7) -0.05532(12)
H26 H 0.1654 0.3779 -0.0673
C36 C 0.2392(2) 0.3888(7) -0.01540(12)
H27 H 0.2027 0.3509 -0.0002
N10 N 0.40999(19) -0.2074(6) 0.23158(10)
O10 O 0.45850(18) -0.0739(5) 0.24200(10)
O11 O 0.40587(19) -0.3510(5) 0.25358(9)
O12 O 0.3661(2) -0.1999(6) 0.19922(10)
O16 O 0.32303(14) 0.2427(4) 0.24266(7)
H28 H 0.3060 0.1892 0.2616
H29 H 0.2946 0.3363 0.2316
Cu1_2 Cu 0.43725(3) -0.71389(8) 0.249428(13)
O11_2 O 0.40587(19) 0.6490(5) 0.25358(9)
N11 N 0.1812(2) 0.3960(8) 0.10357(13)
O13 O 0.1603(2) 0.3497(6) 0.13441(11)
O14 O 0.2152(2) 0.5556(7) 0.10160(14)
O15 O 0.1716(3) 0.2817(9) 0.07554(12)
O17 O 0.23916(17) 0.5415(5) 0.20212(8)
H30 H 0.2779 0.6117 0.1981
H31 H 0.2109 0.5011 0.1808
loop_
_geom_bond_atom_site_label_1
_geom_bond_atom_site_label_2
_geom_bond_site_symmetry_1
_geom_bond_site_symmetry_2
Cu1 N1 1_555 1_555
N1 C1 1_555 1_555
N2 H1 1_555 1_555
N3 O2 1_555 1_555
O1 C6 1_555 1_555
O3 N3 1_555 1_555
C1 H2 1_555 1_555
C2 C1 1_555 1_555
H3 C2 1_555 1_555
C3 C2 1_555 1_555
C4 C3 1_555 1_555
H4 C4 1_555 1_555
C5 N1 1_555 1_555
H5 C5 1_555 1_555
C6 N2 1_555 1_555
C7 N2 1_555 1_555
C8 C7 1_555 1_555
H6 C8 1_555 1_555
C9 C8 1_555 1_555
H7 C9 1_555 1_555
C10 N3 1_555 1_555
C11 C10 1_555 1_555
H8 C11 1_555 1_555
C12 C7 1_555 1_555
H9 C12 1_555 1_555
N4 Cu1 1_555 1_555
N5 H10 1_555 1_555
N6 O5 1_555 1_555
O4 C18 1_555 1_555
O6 N6 1_555 1_555
C13 N4 1_555 1_555
H11 C13 1_555 1_555
C14 C13 1_555 1_555
H12 C14 1_555 1_555
C15 C14 1_555 1_555
C16 C15 1_555 1_555
H13 C16 1_555 1_555
C17 N4 1_555 1_555
H14 C17 1_555 1_555
C18 N5 1_555 1_555
C19 N5 1_555 1_555
C20 C19 1_555 1_555
H15 C20 1_555 1_555
C21 C20 1_555 1_555
H16 C21 1_555 1_555
C22 N6 1_555 1_555
C23 C22 1_555 1_555
H17 C23 1_555 1_555
C24 C19 1_555 1_555
H18 C24 1_555 1_555
N7 Cu1 1_555 1_555
N8 H19 1_555 1_555
N9 O8 1_555 1_555
O7 C30 1_555 1_555
O9 N9 1_555 1_555
C25 N7 1_555 1_555
H20 C25 1_555 1_555
C26 C25 1_555 1_555
H21 C26 1_555 1_555
C27 C26 1_555 1_555
C28 C27 1_555 1_555
H22 C28 1_555 1_555
C29 N7 1_555 1_555
H23 C29 1_555 1_555
C30 N8 1_555 1_555
C31 N8 1_555 1_555
C32 C31 1_555 1_555
H24 C32 1_555 1_555
C33 C32 1_555 1_555
H25 C33 1_555 1_555
C34 N9 1_555 1_555
C35 C34 1_555 1_555
H26 C35 1_555 1_555
C36 C31 1_555 1_555
H27 C36 1_555 1_555
N10 O10 1_555 1_555
O10 Cu1 1_555 1_555
O11 N10 1_555 1_555
O12 N10 1_555 1_555
N11 O13 1_555 1_555
O14 N11 1_555 1_555
O15 N11 1_555 1_555
O16 Cu1 1_555 1_555
H28 O16 1_555 1_555
H29 O16 1_555 1_555
O17 H30 1_555 1_555
H31 O17 1_555 1_555
Cu1_2 O11 1_555 1_555
O11_2 Cu1 1_555 1_555
C3 C6 1_555 1_555
C4 C5 1_555 1_555
C9 C10 1_555 1_555
C11 C12 1_555 1_555
C15 C18 1_555 1_555
C16 C17 1_555 1_555
C21 C22 1_555 1_555
C23 C24 1_555 1_555
C27 C30 1_555 1_555
C28 C29 1_555 1_555
C33 C34 1_555 1_555
C35 C36 1_555 1_555

#END
