
#######################################################################
#
#                 Cambridge Crystallographic Data Centre
#                                CCDC 
#
#######################################################################
#
# If this CIF has been generated from an entry in the Cambridge 
# Structural Database, then it will include bibliographic, chemical, 
# crystal, experimental, refinement or atomic coordinate data resulting 
# from the CCDC's data processing and validation procedures.
#
#######################################################################

data_ACOXEV
_symmetry_cell_setting           monoclinic
_symmetry_space_group_name_H-M   'P 21'
_symmetry_Int_Tables_number      4
_space_group_name_Hall           'P 2yb'
loop_
_symmetry_equiv_pos_site_id
_symmetry_equiv_pos_as_xyz
1 x,y,z
2 -x,1/2+y,-z
_cell_length_a                   9.5140(10)
_cell_length_b                   9.0660(8)
_cell_length_c                   19.706(2)
_cell_angle_alpha                90
_cell_angle_beta                 97.896(10)
_cell_angle_gamma                90
_cell_volume                     1683.6
loop_
_atom_site_label
_atom_site_type_symbol
_atom_site_fract_x
_atom_site_fract_y
_atom_site_fract_z
Tb1 Tb 0.63793(3) 0.00000(3) 0.419421(14)
Tb2 Tb 0.26268(3) 0.13595(3) 0.451984(15)
Tb3 Tb 0.75989(3) 0.22543(3) -0.038580(15)
Tb4 Tb 0.87297(3) 0.58590(3) 0.083860(15)
O1 O 0.9335(5) 0.0187(6) -0.0183(3)
O2 O 0.9827(5) -0.2023(6) 0.0316(3)
O3 O 0.6892(5) 0.0288(6) 0.0314(3)
O4 O 0.7196(6) -0.2042(6) 0.0663(4)
O5 O 0.5171(5) 0.2145(6) 0.4654(2)
O6 O 0.5590(5) 0.4337(6) 0.5185(3)
O7 O 0.8192(5) 0.4356(6) 0.4863(3)
O8 O 0.7831(5) 0.2155(7) 0.4361(3)
O9 O 0.8488(5) 0.3055(7) 0.0747(2)
O10 O 0.9456(6) 0.4059(7) 0.1698(3)
O11 O 0.8734(5) -0.0537(6) 0.4020(2)
O12 O 1.0768(5) 0.0401(7) 0.3774(2)
O13 O 0.5701(6) 0.1405(8) 0.3168(3)
O14 O 0.3885(5) 0.0537(7) 0.3609(2)
O15 O 0.2237(6) 0.0217(9) 0.0275(3)
O16 O 0.3061(8) -0.0837(7) 0.1216(3)
O17 O 0.6612(5) -0.2817(6) 0.4329(2)
O18 O 0.5950(7) -0.1837(7) 0.3326(3)
O19 O 0.4304(5) -0.3918(8) 0.1003(3)
O20 O 0.6504(5) -0.4729(6) 0.1147(3)
O21 O 0.8694(5) 0.1517(7) 0.8640(3)
O22 O 1.0501(6) 0.2329(8) 0.8177(3)
O23 O 0.7612(8) -0.1641(7) 0.6260(4)
O24 O 0.7321(7) -0.0445(12) 0.5316(3)
O25 O 0.0639(5) 0.2320(8) 0.4934(3)
O26 O 0.5602(5) 0.3242(7) 0.0054(3)
C1 C 0.9062(6) -0.0903(8) 0.0159(3)
C2 C 0.7592(7) -0.0872(8) 0.0406(4)
C3 C 0.5928(6) 0.3241(8) 0.4845(3)
C4 C 0.7441(7) 0.3260(8) 0.4676(3)
C5 C 0.8931(7) 0.2949(8) 0.1384(4)
C6 C 0.8783(10) 0.1520(10) 0.1741(4)
C7 C 0.9242(10) 0.1578(10) 0.2514(4)
C8 C 0.8860(7) 0.0154(9) 0.2857(3)
C9 C 0.9491(6) 0.0024(8) 0.3603(3)
C10 C 0.4422(7) 0.1127(8) 0.3104(3)
C11 C 0.3444(8) 0.1393(11) 0.2447(4)
C12 C 0.4254(10) 0.1744(11) 0.1852(4)
C13 C 0.3281(12) 0.1799(10) 0.1164(4)
C14 C 0.2856(8) 0.0316(10) 0.0884(4)
C15 C 0.6379(7) -0.2949(8) 0.3678(3)
C16 C 0.6671(11) -0.4391(11) 0.3350(4)
C17 C 0.6793(10) -0.4364(12) 0.2594(4)
C18 C 0.5467(9) -0.3920(13) 0.2127(5)
C19 C 0.5463(7) -0.4182(8) 0.1364(3)
C20 C 0.9190(7) 0.2074(8) 0.8127(3)
C21 C 0.8256(8) 0.2297(11) 0.7466(4)
C22 C 0.8300(11) 0.0852(11) 0.7061(4)
C23 C 0.7625(12) 0.1020(11) 0.6331(5)
C24 C 0.7529(9) -0.0437(11) 0.5951(4)
H1 H 0.7742 0.1224 0.1660
H2 H 0.9329 0.0753 0.1542
H3 H 0.8759 0.2415 0.2723
H4 H 1.0279 0.1724 0.2615
H5 H 0.7800 0.0089 0.2823
H6 H 0.9192 -0.0690 0.2597
H7 H 0.2794 0.2228 0.2509
H8 H 0.2849 0.0491 0.2330
H9 H 0.4753 0.2695 0.1947
H10 H 0.4978 0.0952 0.1829
H11 H 0.3758 0.2362 0.0832
H12 H 0.2396 0.2363 0.1240
H13 H 0.7559 -0.4805 0.3607
H14 H 0.5873 -0.5076 0.3410
H15 H 0.7143 -0.5317 0.2442
H16 H 0.7562 -0.3592 0.2520
H17 H 0.4664 -0.4521 0.2281
H18 H 0.5251 -0.2864 0.2204
H19 H 0.8606 0.3141 0.7200
H20 H 0.7266 0.2530 0.7540
H21 H 0.9322 0.0550 0.7070
H22 H 0.7813 0.0066 0.7291
H23 H 0.8172 0.1736 0.6084
H24 H 0.6638 0.1413 0.6318
O6A O 0.4410(5) -0.0663(6) 0.4815(3)
O7A O 0.1808(5) -0.0644(6) 0.5137(3)
O12_2 O 0.0768(5) 0.0401(7) 0.3774(2)
O17A O 0.3388(5) 0.2183(6) 0.5671(2)
O23A O 0.2388(8) 0.3359(7) 0.3740(4)
O24A O 0.2679(7) 0.4555(12) 0.4684(3)
O2A O 1.0173(5) 0.2977(6) -0.0316(3)
O15A O 0.7763(6) 0.5217(9) -0.0275(3)
O16A O 0.6939(8) 0.4163(7) -0.1216(3)
O19A O 0.5696(5) 0.1082(8) -0.1003(3)
O21_2 O 0.8694(5) 0.1517(7) -0.1360(3)
O1A O 1.0665(5) 0.5187(6) 0.0183(3)
O2_2 O 0.9827(5) 0.7977(6) 0.0316(3)
O4_2 O 0.7196(6) 0.7958(6) 0.0663(4)
O20_2 O 0.6504(5) 0.5271(6) 0.1147(3)
O21A O 1.1306(5) 0.6517(7) 0.1360(3)
O22A O 0.9499(6) 0.7329(8) 0.1823(3)
Tb4A Tb 1.12703(3) 0.08590(3) -0.083860(15)
Tb3A Tb 1.24011(3) -0.27457(3) 0.038580(15)
Tb4_2 Tb 0.87297(3) -0.41410(3) 0.083860(15)
Tb1A Tb 0.36207(3) 0.50000(3) 0.580579(14)
Tb2A Tb 0.73732(3) 0.63595(3) 0.548016(15)
Tb2_2 Tb 1.26268(3) 0.13595(3) 0.451984(15)
Tb3A_2 Tb 0.24011(3) -0.27457(3) 0.038580(15)
Tb4A_2 Tb 0.12703(3) 0.08590(3) -0.083860(15)
Tb2A_2 Tb 0.73732(3) -0.36405(3) 0.548016(15)
Tb3_2 Tb 0.75989(3) 0.22543(3) 0.961420(15)
Tb4A_3 Tb 1.12703(3) 0.08590(3) 0.916140(15)
loop_
_geom_bond_atom_site_label_1
_geom_bond_atom_site_label_2
_geom_bond_site_symmetry_1
_geom_bond_site_symmetry_2
Tb1 O5 1_555 1_555
Tb2 O5 1_555 1_555
Tb3 O1 1_555 1_555
Tb4 O9 1_555 1_555
O1 C1 1_555 1_555
O2 C1 1_555 1_555
O3 Tb3 1_555 1_555
O4 C2 1_555 1_555
O5 C3 1_555 1_555
O6 C3 1_555 1_555
O7 C4 1_555 1_555
O8 Tb1 1_555 1_555
O9 Tb3 1_555 1_555
O10 Tb4 1_555 1_555
O11 Tb1 1_555 1_555
O12 C9 1_555 1_555
O13 Tb1 1_555 1_555
O14 Tb1 1_555 1_555
O15 C14 1_555 1_555
O16 C14 1_555 1_555
O17 Tb1 1_555 1_555
O18 Tb1 1_555 1_555
O19 C19 1_555 1_555
O20 C19 1_555 1_555
O21 C20 1_555 1_555
O22 C20 1_555 1_555
O23 C24 1_555 1_555
O24 Tb1 1_555 1_555
O25 Tb2 1_555 1_555
O26 Tb3 1_555 1_555
C1 C2 1_555 1_555
C2 O3 1_555 1_555
C3 C4 1_555 1_555
C4 O8 1_555 1_555
C5 O9 1_555 1_555
C6 C5 1_555 1_555
C7 C6 1_555 1_555
C8 C7 1_555 1_555
C9 O11 1_555 1_555
C10 O13 1_555 1_555
C11 C10 1_555 1_555
C12 C11 1_555 1_555
C13 C12 1_555 1_555
C14 C13 1_555 1_555
C15 O17 1_555 1_555
C16 C15 1_555 1_555
C17 C16 1_555 1_555
C18 C17 1_555 1_555
C19 C18 1_555 1_555
C20 C21 1_555 1_555
C21 C22 1_555 1_555
C22 C23 1_555 1_555
C23 C24 1_555 1_555
C24 O24 1_555 1_555
H1 C6 1_555 1_555
H2 C6 1_555 1_555
H3 C7 1_555 1_555
H4 C7 1_555 1_555
H5 C8 1_555 1_555
H6 C8 1_555 1_555
H7 C11 1_555 1_555
H8 C11 1_555 1_555
H9 C12 1_555 1_555
H10 C12 1_555 1_555
H11 C13 1_555 1_555
H12 C13 1_555 1_555
H13 C16 1_555 1_555
H14 C16 1_555 1_555
H15 C17 1_555 1_555
H16 C17 1_555 1_555
H17 C18 1_555 1_555
H18 C18 1_555 1_555
H19 C21 1_555 1_555
H20 C21 1_555 1_555
H21 C22 1_555 1_555
H22 C22 1_555 1_555
H23 C23 1_555 1_555
H24 C23 1_555 1_555
O6A Tb1 1_555 1_555
O7A Tb2 1_555 1_555
O12_2 Tb2 1_555 1_555
O17A Tb2 1_555 1_555
O23A Tb2 1_555 1_555
O24A Tb2 1_555 1_555
O2A Tb3 1_555 1_555
O15A Tb3 1_555 1_555
O16A Tb3 1_555 1_555
O19A Tb3 1_555 1_555
O21_2 Tb3 1_555 1_555
O1A Tb4 1_555 1_555
O2_2 Tb4 1_555 1_555
O4_2 Tb4 1_555 1_555
O20_2 Tb4 1_555 1_555
O21A Tb4 1_555 1_555
O22A Tb4 1_555 1_555
Tb4A O1 1_555 1_555
Tb3A O2 1_555 1_555
Tb4_2 O2 1_555 1_555
Tb1A O6 1_555 1_555
Tb2A O6 1_555 1_555
Tb2_2 O12 1_555 1_555
Tb3A_2 O15 1_555 1_555
Tb4A_2 O15 1_555 1_555
Tb2A_2 O17 1_555 1_555
Tb3_2 O21 1_555 1_555
Tb4A_3 O21 1_555 1_555
Tb2 O14 1_555 1_555
Tb2 O6A 1_555 1_555
Tb4 O15A 1_555 1_555
O4 Tb4_2 1_555 1_555
O7 Tb2A 1_555 1_555
O10 C5 1_555 1_555
O14 C10 1_555 1_555
O16 Tb3A_2 1_555 1_555
O18 C15 1_555 1_555
O19 Tb3A_2 1_555 1_555
O20 Tb4_2 1_555 1_555
O22 Tb4A_3 1_555 1_555
O23 Tb2A_2 1_555 1_555
O24 Tb2A_2 1_555 1_555
C8 C9 1_555 1_555
O17A Tb1A 1_555 1_555
O24A Tb1A 1_555 1_555
O2A Tb4A 1_555 1_555
O21_2 Tb4A 1_555 1_555

#END
