
#######################################################################
#
#                 Cambridge Crystallographic Data Centre
#                                CCDC 
#
#######################################################################
#
# If this CIF has been generated from an entry in the Cambridge 
# Structural Database, then it will include bibliographic, chemical, 
# crystal, experimental, refinement or atomic coordinate data resulting 
# from the CCDC's data processing and validation procedures.
#
#######################################################################

data_ACOYAU
_symmetry_cell_setting           triclinic
_symmetry_space_group_name_H-M   'P -1'
_symmetry_Int_Tables_number      2
_space_group_name_Hall           '-P 1'
loop_
_symmetry_equiv_pos_site_id
_symmetry_equiv_pos_as_xyz
1 x,y,z
2 -x,-y,-z
_cell_length_a                   8.075(5)
_cell_length_b                   8.188(5)
_cell_length_c                   12.486(5)
_cell_angle_alpha                94.988(5)
_cell_angle_beta                 107.158(5)
_cell_angle_gamma                104.866(5)
_cell_volume                     750.492
loop_
_atom_site_label
_atom_site_type_symbol
_atom_site_fract_x
_atom_site_fract_y
_atom_site_fract_z
Mo1 Mo 0.51105(3) 0.20578(3) 0.02291(2)
Cu1 Cu 0.26024(5) 0.49609(4) -0.89713(3)
O1 O 0.3161(4) -0.3995(3) -0.4402(3)
N1 N 0.1868(4) 0.3374(3) -0.7971(2)
C1 C 0.1738(4) -0.0765(4) -0.5888(3)
H1 H 0.1104 -0.1404 -0.6615
Mo2 Mo -0.12954(3) 0.16057(3) -1.03693(2)
O3 O 0.5449(3) 0.3664(3) -0.23754(19)
N2 N 0.0106(4) 0.2303(3) -0.8319(2)
C2 C 0.2996(4) 0.2006(4) -0.4620(3)
H2 H 0.3229 0.3192 -0.4511
O4 O 0.3367(3) -0.0168(3) -0.00543(18)
N3 N 0.1615(4) 0.1834(3) -0.6668(2)
C3 C 0.2106(4) 0.1015(4) -0.5695(3)
O5 O 0.0986(4) -0.4501(3) -0.6029(2)
C4 C 0.3218(4) -0.0600(4) -0.3886(3)
H3 H 0.3602 -0.1140 -0.3274
O6 O 0.0488(3) 0.3454(3) -1.02405(19)
C5 C 0.2185(5) -0.3451(4) -0.5118(3)
O7 O 0.0000 0.0000 -1.0000
C6 C 0.4443(4) 0.2145(4) -0.2503(3)
O8 O 0.5997(3) 0.2456(3) 0.1667(2)
C7 C 0.2740(4) 0.3088(4) -0.6982(3)
H4 H 0.3946 0.3655 -0.6558
O9 O 0.7255(3) 0.3219(3) -0.01248(17)
C8 C 0.3532(4) 0.1179(4) -0.3706(3)
O10 O 0.3836(3) 0.3450(3) 0.0000(2)
C9 C -0.0011(4) 0.1389(4) -0.7529(3)
H5 H -0.1051 0.0553 -0.7547
O11 O 0.4117(3) 0.1354(3) -0.17441(18)
C10 C 0.2335(4) -0.1565(4) -0.4975(3)
O12 O -0.2212(3) 0.0974(3) -1.1795(2)
Mo1A Mo 0.48895(3) -0.20578(3) -0.02291(2)
Mo1A_2 Mo 0.48895(3) 0.79422(3) -1.02291(2)
Mo1_2 Mo 0.51105(3) 0.20578(3) -0.97709(2)
Cu1A Cu 0.73976(5) 0.50391(4) -0.10287(3)
Cu1_2 Cu 0.26024(5) 0.49609(4) 0.10287(3)
O1A O 0.6839(4) 1.3995(3) -0.5598(3)
N1A N 0.8132(4) 0.6626(3) -0.2029(2)
C1A C 0.8262(4) 1.0765(4) -0.4112(3)
H1A H 0.8896 1.1404 -0.3385
Mo2A Mo 0.12954(3) -0.16057(3) 0.03693(2)
Mo2A_2 Mo 0.12954(3) -0.16057(3) -0.96307(2)
Mo2_2 Mo 0.87046(3) 0.16057(3) -0.03693(2)
Mo2A_3 Mo 1.12954(3) 0.83943(3) 0.03693(2)
Mo2A_4 Mo 0.12954(3) 0.83943(3) -0.96307(2)
O3A O 0.4551(3) 0.6336(3) -0.76246(19)
N2A N 0.9894(4) 0.7697(3) -0.1681(2)
N2A_2 N -0.0106(4) -0.2303(3) -0.1681(2)
C2A C 0.7004(4) 0.7994(4) -0.5380(3)
H2A H 0.6771 0.6808 -0.5489
O4A O 0.6633(3) 0.0168(3) 0.00543(18)
O4A_2 O -0.3367(3) 0.0168(3) -0.99457(18)
N3A N 0.8385(4) 0.8166(3) -0.3332(2)
C3A C 0.7894(4) 0.8985(4) -0.4305(3)
O5A O 0.9014(4) 1.4501(3) -0.3971(2)
C4A C 0.6782(4) 1.0600(4) -0.6114(3)
H3A H 0.6398 1.1140 -0.6726
O6A O 0.9512(3) 0.6546(3) 0.02405(19)
O6A_2 O -0.0488(3) -0.3454(3) 0.02405(19)
C5A C 0.7815(5) 1.3451(4) -0.4882(3)
O7_2 O 0.0000 0.0000 0.0000
C6A C 0.5557(4) 0.7855(4) -0.7497(3)
O8A O 0.4003(3) -0.2456(3) -0.1667(2)
C7A C 0.7260(4) 0.6912(4) -0.3018(3)
H4A H 0.6054 0.6345 -0.3442
O9A O 0.2745(3) 0.6781(3) -0.98752(17)
O9_2 O -0.2745(3) 0.3219(3) -1.01248(17)
O9A_2 O 0.2745(3) -0.3219(3) 0.01248(17)
C8A C 0.6468(4) 0.8821(4) -0.6294(3)
O10_2 O 0.3836(3) 0.3450(3) -1.0000(2)
O10A O 0.6164(3) -0.3450(3) 0.0000(2)
O10A_2 O 0.6164(3) 0.6550(3) 0.0000(2)
C9A C 1.0011(4) 0.8611(4) -0.2471(3)
H5A H 1.1051 0.9447 -0.2453
O11A O 0.5883(3) 0.8646(3) -0.82559(18)
O11A_2 O 0.5883(3) -0.1354(3) 0.17441(18)
C10A C 0.7665(4) 1.1565(4) -0.5025(3)
O12A O 0.2212(3) -0.0974(3) 0.1795(2)
O2 O -1.1570(4) -1.3938(4) -0.7632(2)
loop_
_geom_bond_atom_site_label_1
_geom_bond_atom_site_label_2
_geom_bond_site_symmetry_1
_geom_bond_site_symmetry_2
Mo1 O4 1_555 1_555
Cu1 N1 1_555 1_555
O1 C5 1_555 1_555
N1 N2 1_555 1_555
C1 H1 1_555 1_555
Mo2 N2 1_555 1_555
O3 C6 1_555 1_555
N2 C9 1_555 1_555
C2 H2 1_555 1_555
O4 Mo1A 1_555 1_555
N3 C3 1_555 1_555
C3 C1 1_555 1_555
O5 C5 1_555 1_555
C4 H3 1_555 1_555
O6 Cu1 1_555 1_555
C5 C10 1_555 1_555
O7 Mo2 1_555 1_555
C6 C8 1_555 1_555
O8 Mo1 1_555 1_555
C7 N1 1_555 1_555
H4 C7 1_555 1_555
O9 Mo1 1_555 1_555
C8 C2 1_555 1_555
O10 Mo1 1_555 1_555
C9 N3 1_555 1_555
H5 C9 1_555 1_555
O11 Mo1 1_555 1_555
C10 C1 1_555 1_555
O12 Mo2 1_555 1_555
Mo1A O4A 1_555 1_555
Mo1A_2 O9A 1_555 1_555
Mo1_2 O10_2 1_555 1_555
Cu1A O3 1_555 1_555
Cu1_2 O10 1_555 1_555
O1A C5A 1_555 1_555
N1A Cu1A 1_555 1_555
C1A H1A 1_555 1_555
Mo2A O4 1_555 1_555
Mo2A_2 O7 1_555 1_555
Mo2_2 O9 1_555 1_555
Mo2A_3 N2A 1_555 1_555
Mo2A_4 O9A 1_555 1_555
O3A Cu1 1_555 1_555
N2A N1A 1_555 1_555
N2A_2 Mo2A 1_555 1_555
C2A H2A 1_555 1_555
O4A Mo1 1_555 1_555
O4A_2 Mo2 1_555 1_555
N3A C3A 1_555 1_555
C3A C1A 1_555 1_555
O5A C5A 1_555 1_555
C4A H3A 1_555 1_555
O6A Cu1A 1_555 1_555
O6A_2 Mo2A 1_555 1_555
C5A C10A 1_555 1_555
O7_2 Mo2A 1_555 1_555
C6A O3A 1_555 1_555
O8A Mo1A 1_555 1_555
C7A N1A 1_555 1_555
H4A C7A 1_555 1_555
O9A Cu1 1_555 1_555
O9_2 Mo2 1_555 1_555
O9A_2 Mo1A 1_555 1_555
C8A C2A 1_555 1_555
O10_2 Cu1 1_555 1_555
O10A Mo1A 1_555 1_555
O10A_2 Cu1A 1_555 1_555
C9A N2A 1_555 1_555
H5A C9A 1_555 1_555
O11A Mo1A_2 1_555 1_555
O11A_2 Mo1A 1_555 1_555
C10A C1A 1_555 1_555
O12A Mo2A 1_555 1_555
Mo2 O6 1_555 1_555
C2 C3 1_555 1_555
N3 C7 1_555 1_555
C4 C8 1_555 1_555
C4 C10 1_555 1_555
C6 O11 1_555 1_555
O9 Cu1A 1_555 1_555
Mo2A O9A_2 1_555 1_555
Mo2_2 O4A 1_555 1_555
Mo2A_3 O6A 1_555 1_555
C2A C3A 1_555 1_555
N3A C7A 1_555 1_555
N3A C9A 1_555 1_555
C4A C8A 1_555 1_555
C4A C10A 1_555 1_555
C6A C8A 1_555 1_555
C6A O11A 1_555 1_555

#END
