
#######################################################################
#
#                 Cambridge Crystallographic Data Centre
#                                CCDC 
#
#######################################################################
#
# If this CIF has been generated from an entry in the Cambridge 
# Structural Database, then it will include bibliographic, chemical, 
# crystal, experimental, refinement or atomic coordinate data resulting 
# from the CCDC's data processing and validation procedures.
#
#######################################################################

data_ACOZOH
_symmetry_cell_setting           monoclinic
_symmetry_space_group_name_H-M   'P 21/n'
_symmetry_Int_Tables_number      14
_space_group_name_Hall           '-P 2yn'
loop_
_symmetry_equiv_pos_site_id
_symmetry_equiv_pos_as_xyz
1 x,y,z
2 1/2+x,1/2-y,1/2+z
3 -x,-y,-z
4 1/2-x,1/2+y,1/2-z
_cell_length_a                   14.9179(13)
_cell_length_b                   12.7554(11)
_cell_length_c                   16.3222(14)
_cell_angle_alpha                90
_cell_angle_beta                 93.890(2)
_cell_angle_gamma                90
_cell_volume                     3098.69
loop_
_atom_site_label
_atom_site_type_symbol
_atom_site_fract_x
_atom_site_fract_y
_atom_site_fract_z
Hg1 Hg 0.62311(2) 0.04383(2) -0.218066(19)
Cl1 Cl 0.47931(14) 0.11659(17) -0.20850(15)
Cl2 Cl 0.74417(15) -0.0191(2) -0.28900(16)
C1 C 0.6581(5) 0.2494(6) -0.1001(5)
H1 H 0.5961 0.2569 -0.1166
C2 C 0.7009(6) 0.3274(6) -0.0515(5)
H2 H 0.6687 0.3880 -0.0367
C3 C 0.7899(6) 0.3158(6) -0.0255(5)
C4 C 0.8349(6) 0.2247(6) -0.0468(5)
H3 H 0.8957 0.2124 -0.0281
C5 C 0.7864(5) 0.1517(6) -0.0973(5)
H4 H 0.8161 0.0897 -0.1130
C6 C 0.8347(6) 0.3983(6) 0.0234(5)
C7 C 0.8666(5) 0.4684(6) 0.0608(5)
C8 C 0.8979(5) 0.5585(6) 0.1069(5)
C9 C 0.8349(5) 0.6255(6) 0.1363(5)
H5 H 0.7727 0.6126 0.1244
C10 C 0.8629(5) 0.7126(6) 0.1837(5)
C11 C 0.9551(5) 0.7290(5) 0.2023(4)
C12 C 1.0186(5) 0.6640(5) 0.1715(5)
H6 H 1.0809 0.6775 0.1826
C13 C 0.9897(5) 0.5785(5) 0.1241(4)
H7 H 1.0328 0.5328 0.1030
C14 C 0.8060(5) 0.7939(6) 0.2236(5)
C15 C 0.7532(6) 0.8593(7) 0.1586(6)
H8 H 0.7067 0.8137 0.1312
H9 H 0.7216 0.9152 0.1873
C16 C 0.8019(7) 0.9080(8) 0.0961(7)
H10 H 0.8426 0.9612 0.1210
H11 H 0.7595 0.9413 0.0556
H12 H 0.8369 0.8548 0.0689
C17 C 0.7417(6) 0.7418(8) 0.2819(6)
H13 H 0.7081 0.7975 0.3089
H14 H 0.6975 0.6987 0.2488
C18 C 0.7869(7) 0.6747(7) 0.3461(6)
H15 H 0.8201 0.6188 0.3201
H16 H 0.7417 0.6435 0.3796
H17 H 0.8287 0.7172 0.3811
C19 C 0.9635(5) 0.8233(5) 0.2540(4)
C20 C 0.8778(5) 0.8572(6) 0.2699(5)
C21 C 0.8665(5) 0.9408(6) 0.3220(5)
H18 H 0.8078 0.9621 0.3340
C22 C 0.9423(5) 0.9947(6) 0.3574(5)
C23 C 1.0267(5) 0.9607(6) 0.3371(5)
H19 H 1.0782 0.9971 0.3598
C24 C 1.0392(5) 0.8768(6) 0.2857(4)
H20 H 1.0977 0.8563 0.2725
C25 C 0.9323(5) 1.0785(6) 0.4119(5)
C26 C 0.9207(5) 1.1491(7) 0.4575(5)
C27 C 0.8237(6) 1.3289(7) 0.6079(6)
H21 H 0.7699 1.3352 0.6355
C28 C 0.8328(6) 1.2430(7) 0.5543(6)
H22 H 0.7867 1.1917 0.5474
C29 C 0.9084(6) 1.2350(6) 0.5127(5)
C30 C 0.9734(6) 1.3120(7) 0.5256(6)
H23 H 1.0268 1.3096 0.4972
C31 C 0.9597(7) 1.3916(7) 0.5799(7)
H24 H 1.0052 1.4434 0.5883
N1 N 0.7014(4) 0.1655(5) -0.1237(4)
N2 N 0.8865(4) 1.4005(5) 0.6213(4)
N2C N 0.6135(4) -0.0995(5) -0.1213(4)
Hg1C Hg 0.87689(2) 1.54383(2) 0.718066(19)
C32 C 0.0470(12) 0.1717(12) 0.1579(10)
H25 H 0.0939 0.1503 0.2003
H26 H -0.0065 0.1953 0.1856
Cl3 Cl 0.0893(3) 0.2798(3) 0.0938(4)
Cl4 Cl 0.0205(4) 0.0728(4) 0.0964(4)
loop_
_geom_bond_atom_site_label_1
_geom_bond_atom_site_label_2
_geom_bond_site_symmetry_1
_geom_bond_site_symmetry_2
Hg1 Cl1 1_555 1_555
Cl2 Hg1 1_555 1_555
C1 H1 1_555 1_555
C2 C1 1_555 1_555
H2 C2 1_555 1_555
C3 C2 1_555 1_555
C4 C3 1_555 1_555
H3 C4 1_555 1_555
C5 C4 1_555 1_555
H4 C5 1_555 1_555
C6 C3 1_555 1_555
C7 C6 1_555 1_555
C8 C7 1_555 1_555
C9 C8 1_555 1_555
H5 C9 1_555 1_555
C10 C9 1_555 1_555
C11 C10 1_555 1_555
C12 C11 1_555 1_555
H6 C12 1_555 1_555
C13 C8 1_555 1_555
H7 C13 1_555 1_555
C14 C10 1_555 1_555
C15 C14 1_555 1_555
H8 C15 1_555 1_555
H9 C15 1_555 1_555
C16 C15 1_555 1_555
H10 C16 1_555 1_555
H11 C16 1_555 1_555
H12 C16 1_555 1_555
C17 C14 1_555 1_555
H13 C17 1_555 1_555
H14 C17 1_555 1_555
C18 C17 1_555 1_555
H15 C18 1_555 1_555
H16 C18 1_555 1_555
H17 C18 1_555 1_555
C19 C11 1_555 1_555
C20 C14 1_555 1_555
C21 C20 1_555 1_555
H18 C21 1_555 1_555
C22 C21 1_555 1_555
C23 C22 1_555 1_555
H19 C23 1_555 1_555
C24 C19 1_555 1_555
H20 C24 1_555 1_555
C25 C22 1_555 1_555
C26 C25 1_555 1_555
C27 H21 1_555 1_555
C28 C27 1_555 1_555
H22 C28 1_555 1_555
C29 C26 1_555 1_555
C30 C29 1_555 1_555
H23 C30 1_555 1_555
C31 C30 1_555 1_555
H24 C31 1_555 1_555
N1 Hg1 1_555 1_555
N2 C27 1_555 1_555
C32 H25 1_555 1_555
H26 C32 1_555 1_555
Cl3 C32 1_555 1_555
Cl4 C32 1_555 1_555
N2C Hg1 1_555 1_555
Hg1C N2 1_555 1_555
C1 N1 1_555 1_555
C5 N1 1_555 1_555
C12 C13 1_555 1_555
C19 C20 1_555 1_555
C23 C24 1_555 1_555
C28 C29 1_555 1_555
C31 N2 1_555 1_555

#END
