
#######################################################################
#
#                 Cambridge Crystallographic Data Centre
#                                CCDC 
#
#######################################################################
#
# If this CIF has been generated from an entry in the Cambridge 
# Structural Database, then it will include bibliographic, chemical, 
# crystal, experimental, refinement or atomic coordinate data resulting 
# from the CCDC's data processing and validation procedures.
#
#######################################################################

data_ACOZUN
_symmetry_cell_setting           monoclinic
_symmetry_space_group_name_H-M   'P 21/n'
_symmetry_Int_Tables_number      14
_space_group_name_Hall           '-P 2yn'
loop_
_symmetry_equiv_pos_site_id
_symmetry_equiv_pos_as_xyz
1 x,y,z
2 1/2-x,1/2+y,1/2-z
3 -x,-y,-z
4 1/2+x,1/2-y,1/2+z
_cell_length_a                   15.2145(13)
_cell_length_b                   12.7376(11)
_cell_length_c                   16.4406(15)
_cell_angle_alpha                90
_cell_angle_beta                 94.706(2)
_cell_angle_gamma                90
_cell_volume                     3175.38
loop_
_atom_site_label
_atom_site_type_symbol
_atom_site_fract_x
_atom_site_fract_y
_atom_site_fract_z
Hg1 Hg 0.124222(17) 0.04415(2) 0.285776(17)
Br1 Br 0.24708(5) -0.02165(7) 0.21065(5)
Br2 Br -0.02452(5) 0.12136(6) 0.29013(5)
N1 N 0.2026(4) 0.1635(4) 0.3808(4)
C1 C 0.4003(4) 0.5591(5) 0.6077(4)
C2 C 0.1610(5) 0.2483(5) 0.4059(4)
H1 H 0.1002 0.2572 0.3893
C3 C 0.3696(5) 0.4679(5) 0.5628(4)
C4 C 0.3374(4) 0.6239(5) 0.6373(4)
H2 H 0.2765 0.6090 0.6258
C5 C 0.4552(4) 0.7300(5) 0.7024(4)
C6 C 0.5164(4) 0.6663(5) 0.6705(4)
H3 H 0.5775 0.6815 0.6805
C7 C 0.4894(4) 0.5799(5) 0.6239(4)
H4 H 0.5320 0.5349 0.6031
C8 C 0.4405(5) 0.9936(5) 0.8570(4)
C9 C 0.3782(4) 0.8550(5) 0.7705(4)
C10 C 0.2032(5) 0.3234(5) 0.4551(4)
H5 H 0.1712 0.3818 0.4732
C11 C 0.3661(5) 0.9393(5) 0.8236(5)
H6 H 0.3087 0.9590 0.8366
C12 C 0.5357(4) 0.8776(5) 0.7878(4)
H7 H 0.5931 0.8567 0.7758
C13 C 0.4623(4) 0.8244(5) 0.7548(4)
C14 C 0.3369(5) 0.3950(6) 0.5254(4)
C15 C 0.3640(4) 0.7107(5) 0.6840(4)
C16 C 0.3077(4) 0.7890(5) 0.7244(5)
C17 C 0.2932(5) 0.3132(5) 0.4784(4)
C18 C 0.5242(5) 0.9616(5) 0.8384(4)
H8 H 0.5745 0.9986 0.8613
C19 C 0.4194(5) 1.1482(6) 0.9587(4)
C20 C 0.2874(5) 0.1523(5) 0.4057(4)
H9 H 0.3170 0.0912 0.3890
C21 C 0.4294(4) 1.0775(6) 0.9129(4)
C22 C 0.3347(5) 0.2236(5) 0.4539(4)
H10 H 0.3952 0.2116 0.4702
C23 C 0.2534(5) 0.8565(6) 0.6592(5)
H11 H 0.2079 0.8109 0.6309
H12 H 0.2222 0.9118 0.6879
C24 C 0.2456(5) 0.7367(6) 0.7810(5)
H13 H 0.2116 0.7921 0.8068
H14 H 0.2030 0.6924 0.7477
C25 C 0.2910(6) 0.6698(6) 0.8471(6)
H15 H 0.3213 0.6116 0.8224
H16 H 0.2472 0.6419 0.8819
H17 H 0.3340 0.7124 0.8802
C26 C 0.3029(6) 0.9067(7) 0.5978(6)
H18 H 0.3452 0.9564 0.6244
H19 H 0.2621 0.9443 0.5588
H20 H 0.3346 0.8532 0.5690
C27 C 0.4081(5) 1.2336(5) 1.0128(4)
C28 C 0.3243(5) 1.3276(6) 1.1056(5)
H21 H 0.2717 1.3339 1.1327
C29 C 0.3327(5) 1.2427(6) 1.0540(5)
H22 H 0.2873 1.1915 1.0469
C30 C 0.4590(5) 1.3902(6) 1.0813(5)
H23 H 0.5045 1.4407 1.0914
C31 C 0.4713(5) 1.3095(6) 1.0281(5)
H24 H 0.5244 1.3061 1.0016
N2 N 0.3859(4) 1.4003(4) 1.1190(3)
N2A N 0.1141(4) -0.0997(4) 0.3810(3)
Hg1A Hg 0.375778(17) 1.54415(2) 1.214224(17)
Cl1 Cl 0.4769(3) 0.9341(3) 0.4071(2)
Cl2 Cl 0.4108(2) 0.7230(3) 0.4115(3)
C32 C 0.4542(9) 0.8271(9) 0.3500(8)
H25 H 0.5085 0.8025 0.3267
H26 H 0.4103 0.8449 0.3042
loop_
_geom_bond_atom_site_label_1
_geom_bond_atom_site_label_2
_geom_bond_site_symmetry_1
_geom_bond_site_symmetry_2
Hg1 Br1 1_555 1_555
Br2 Hg1 1_555 1_555
N1 Hg1 1_555 1_555
C1 C3 1_555 1_555
C2 N1 1_555 1_555
H1 C2 1_555 1_555
C3 C14 1_555 1_555
C4 C1 1_555 1_555
H2 C4 1_555 1_555
C5 C6 1_555 1_555
C6 H3 1_555 1_555
C7 C1 1_555 1_555
H4 C7 1_555 1_555
C8 C11 1_555 1_555
C9 C11 1_555 1_555
C10 C2 1_555 1_555
H5 C10 1_555 1_555
C11 H6 1_555 1_555
C12 H7 1_555 1_555
C13 C5 1_555 1_555
C14 C17 1_555 1_555
C15 C4 1_555 1_555
C16 C9 1_555 1_555
C17 C10 1_555 1_555
C18 C8 1_555 1_555
H8 C18 1_555 1_555
C19 C21 1_555 1_555
C20 N1 1_555 1_555
H9 C20 1_555 1_555
C21 C8 1_555 1_555
C22 C17 1_555 1_555
H10 C22 1_555 1_555
C23 C16 1_555 1_555
H11 C23 1_555 1_555
H12 C23 1_555 1_555
C24 C16 1_555 1_555
H13 C24 1_555 1_555
H14 C24 1_555 1_555
C25 C24 1_555 1_555
H15 C25 1_555 1_555
H16 C25 1_555 1_555
H17 C25 1_555 1_555
C26 C23 1_555 1_555
H18 C26 1_555 1_555
H19 C26 1_555 1_555
H20 C26 1_555 1_555
C27 C19 1_555 1_555
C28 H21 1_555 1_555
C29 C27 1_555 1_555
H22 C29 1_555 1_555
C30 H23 1_555 1_555
C31 C27 1_555 1_555
H24 C31 1_555 1_555
N2 C28 1_555 1_555
Cl1 C32 1_555 1_555
Cl2 C32 1_555 1_555
C32 H25 1_555 1_555
H26 C32 1_555 1_555
N2A Hg1 1_555 1_555
Hg1A N2 1_555 1_555
C5 C15 1_555 1_555
C6 C7 1_555 1_555
C9 C13 1_555 1_555
C12 C13 1_555 1_555
C12 C18 1_555 1_555
C15 C16 1_555 1_555
C20 C22 1_555 1_555
C28 C29 1_555 1_555
C30 C31 1_555 1_555
C30 N2 1_555 1_555

#END
