
#######################################################################
#
#                 Cambridge Crystallographic Data Centre
#                                CCDC 
#
#######################################################################
#
# If this CIF has been generated from an entry in the Cambridge 
# Structural Database, then it will include bibliographic, chemical, 
# crystal, experimental, refinement or atomic coordinate data resulting 
# from the CCDC's data processing and validation procedures.
#
#######################################################################

data_ACPCRB
_symmetry_cell_setting           monoclinic
_symmetry_space_group_name_H-M   'C 2/m'
_symmetry_Int_Tables_number      12
_space_group_name_Hall           '-C 2y'
loop_
_symmetry_equiv_pos_site_id
_symmetry_equiv_pos_as_xyz
1 x,y,z
2 1/2+x,1/2+y,z
3 -x,y,-z
4 1/2-x,1/2+y,-z
5 -x,-y,-z
6 1/2-x,1/2-y,-z
7 x,-y,z
8 1/2+x,1/2-y,z
_cell_length_a                   7.979(2)
_cell_length_b                   14.350(4)
_cell_length_c                   7.376(2)
_cell_angle_alpha                90
_cell_angle_beta                 101.78(2)
_cell_angle_gamma                90
_cell_volume                     826.755
loop_
_atom_site_label
_atom_site_type_symbol
_atom_site_fract_x
_atom_site_fract_y
_atom_site_fract_z
C1 C 0.52200 0.00000 0.32800
Cr1 Cr 0.12220 0.00000 0.11320
O1 O 0.01650 -0.10030 0.24360
O2 O 0.22010 0.09790 -0.02920
N1 N 0.36000 0.00000 0.35300
C2 C 0.65800 0.00000 0.47300
C3 C -0.13100 -0.12950 0.17600
C4 C -0.20200 -0.20960 0.27300
C2B C 0.34200 0.00000 0.52700
Cr1B Cr -0.12220 0.00000 -0.11320
O1F O 0.01650 0.10030 0.24360
O2F O 0.22010 -0.09790 -0.02920
C3D C 0.13100 0.12950 -0.17600
N1B N 0.64000 0.00000 0.64700
O2D O -0.22010 -0.09790 0.02920
C1B C 0.47800 0.00000 0.67200
O1D O -0.01650 0.10030 -0.24360
O1B O -0.01650 -0.10030 -0.24360
O2B O -0.22010 0.09790 0.02920
N1B_2 N -0.36000 0.00000 -0.35300
C3F C -0.13100 0.12950 0.17600
C3B C 0.13100 -0.12950 -0.17600
C4D C 0.20200 0.20960 -0.27300
Cr1B_2 Cr 0.87780 0.00000 0.88680
C4F C -0.20200 0.20960 0.27300
C4B C 0.20200 -0.20960 -0.27300
loop_
_geom_bond_atom_site_label_1
_geom_bond_atom_site_label_2
_geom_bond_site_symmetry_1
_geom_bond_site_symmetry_2
C1 N1 1_555 1_555
Cr1 O1 1_555 1_555
O1 C3 1_555 1_555
O2 Cr1 1_555 1_555
N1 Cr1 1_555 1_555
C2 C1 1_555 1_555
C3 C4 1_555 1_555
C2B N1 1_555 1_555
Cr1B Cr1 1_555 1_555
O1F Cr1 1_555 1_555
O2F Cr1 1_555 1_555
C3D O2 1_555 1_555
N1B C2 1_555 1_555
O2D C3 1_555 1_555
C1B C2B 1_555 1_555
O1D Cr1B 1_555 1_555
O1B Cr1B 1_555 1_555
O2B Cr1B 1_555 1_555
N1B_2 Cr1B 1_555 1_555
C3F O1F 1_555 1_555
C3B O2F 1_555 1_555
C4D C3D 1_555 1_555
Cr1B_2 N1B 1_555 1_555
C4F C3F 1_555 1_555
C4B C3B 1_555 1_555
Cr1B O2D 1_555 1_555
C3D O1D 1_555 1_555
N1B C1B 1_555 1_555
O1B C3B 1_555 1_555
O2B C3F 1_555 1_555

#END
