
#######################################################################
#
#                 Cambridge Crystallographic Data Centre
#                                CCDC 
#
#######################################################################
#
# If this CIF has been generated from an entry in the Cambridge 
# Structural Database, then it will include bibliographic, chemical, 
# crystal, experimental, refinement or atomic coordinate data resulting 
# from the CCDC's data processing and validation procedures.
#
#######################################################################

data_ACUBOP01
_symmetry_cell_setting           monoclinic
_symmetry_space_group_name_H-M   'P 21/n'
_symmetry_Int_Tables_number      14
_space_group_name_Hall           '-P 2yn'
loop_
_symmetry_equiv_pos_site_id
_symmetry_equiv_pos_as_xyz
1 x,y,z
2 1/2-x,1/2+y,1/2-z
3 -x,-y,-z
4 1/2+x,1/2-y,1/2+z
_cell_length_a                   10.107(1)
_cell_length_b                   10.204(1)
_cell_length_c                   12.743(1)
_cell_angle_alpha                90
_cell_angle_beta                 115.35(1)
_cell_angle_gamma                90
_cell_volume                     1187.66
loop_
_atom_site_label
_atom_site_type_symbol
_atom_site_fract_x
_atom_site_fract_y
_atom_site_fract_z
Cd1 Cd 0.0950(1) 0.1294(1) 0.9350(1)
O1 O 0.0699(2) 0.1443(2) 0.7499(2)
O2 O 0.1940(2) 0.2095(2) 1.1028(2)
O3 O 0.2121(2) 0.2942(2) 0.8415(2)
O4 O 0.0706(2) 0.0385(2) 1.1246(2)
N1 N 0.2410(2) 0.4670(2) 0.5512(2)
N2 N 0.4098(2) 0.2291(2) 1.4185(2)
C1 C 0.1482(3) 0.4311(3) 0.4584(2)
C2 C 0.0508(3) 0.3354(3) 0.4553(2)
C3 C 0.0479(3) 0.2727(3) 0.5512(2)
C4 C 0.1437(3) 0.3088(3) 0.6477(2)
C5 C 0.2368(3) 0.4059(3) 0.6433(2)
C6 C 0.3851(3) 0.1438(3) 1.4908(2)
C7 C 0.2820(3) 0.0507(3) 1.4644(2)
C8 C 0.2007(3) 0.0436(3) 1.3575(2)
C9 C 0.2265(3) 0.1303(2) 1.2817(2)
C10 C 0.3306(3) 0.2223(3) 1.3158(2)
C11 C 0.1566(3) 0.1266(2) 1.1619(2)
C12 C 0.1433(3) 0.2450(3) 0.7541(2)
H1 H 0.1428 0.4678 0.3899
H2 H -0.0194 0.3104 0.3825
H3 H -0.0205 0.2083 0.5440
H4 H 0.3074 0.4331 0.7151
H5 H 0.4485 0.1512 1.5691
H6 H 0.2718 -0.0029 1.5196
H7 H 0.1252 -0.0175 1.3288
H8 H 0.3417 0.2786 1.2628
O4B O -0.0706(2) -0.0385(2) 0.8754(2)
N1A N 0.2590(2) -0.0330(2) 0.9488(2)
N2C N -0.0902(2) 0.2709(2) 0.9185(2)
Cd1B Cd -0.0950(1) -0.1294(1) 1.0650(1)
Cd1A Cd 0.4050(1) 0.6294(1) 0.5650(1)
Cd1C Cd 0.5950(1) 0.3706(1) 1.4350(1)
loop_
_geom_bond_atom_site_label_1
_geom_bond_atom_site_label_2
_geom_bond_site_symmetry_1
_geom_bond_site_symmetry_2
Cd1 O1 1_555 1_555
O1 C12 1_555 1_555
O2 Cd1 1_555 1_555
O3 Cd1 1_555 1_555
O4 Cd1 1_555 1_555
N1 C1 1_555 1_555
N2 C6 1_555 1_555
C1 C2 1_555 1_555
C2 C3 1_555 1_555
C3 C4 1_555 1_555
C4 C5 1_555 1_555
C5 N1 1_555 1_555
C6 C7 1_555 1_555
C7 C8 1_555 1_555
C8 C9 1_555 1_555
C9 C10 1_555 1_555
C10 N2 1_555 1_555
C11 O2 1_555 1_555
C12 O3 1_555 1_555
H1 C1 1_555 1_555
H2 C2 1_555 1_555
H3 C3 1_555 1_555
H4 C5 1_555 1_555
H5 C6 1_555 1_555
H6 C7 1_555 1_555
H7 C8 1_555 1_555
H8 C10 1_555 1_555
O4B Cd1 1_555 1_555
N1A Cd1 1_555 1_555
N2C Cd1 1_555 1_555
Cd1B O4 1_555 1_555
Cd1A N1 1_555 1_555
Cd1C N2 1_555 1_555
O4 C11 1_555 1_555
C4 C12 1_555 1_555
C9 C11 1_555 1_555
O4B Cd1B 1_555 1_555

#END
