
#######################################################################
#
#                 Cambridge Crystallographic Data Centre
#                                CCDC 
#
#######################################################################
#
# If this CIF has been generated from an entry in the Cambridge 
# Structural Database, then it will include bibliographic, chemical, 
# crystal, experimental, refinement or atomic coordinate data resulting 
# from the CCDC's data processing and validation procedures.
#
#######################################################################

data_ACUBOP
_symmetry_cell_setting           monoclinic
_symmetry_space_group_name_H-M   'P 21/n'
_symmetry_Int_Tables_number      14
_space_group_name_Hall           '-P 2yn'
loop_
_symmetry_equiv_pos_site_id
_symmetry_equiv_pos_as_xyz
1 x,y,z
2 1/2+x,1/2-y,1/2+z
3 -x,-y,-z
4 1/2-x,1/2+y,1/2-z
_cell_length_a                   10.0548(8)
_cell_length_b                   10.2194(8)
_cell_length_c                   12.7326(10)
_cell_angle_alpha                90.00
_cell_angle_beta                 105.169(2)
_cell_angle_gamma                90.00
_cell_volume                     1262.74
loop_
_atom_site_label
_atom_site_type_symbol
_atom_site_fract_x
_atom_site_fract_y
_atom_site_fract_z
Cd1 Cd 0.40493(4) 0.12957(4) 0.06431(3)
O1 O 0.4291(4) 0.1437(4) 0.2499(3)
C1 C 0.3436(6) 0.1269(6) -0.1618(4)
C2 C 0.2746(6) 0.1311(5) -0.2826(4)
O2 O 0.3054(4) 0.2108(4) -0.1038(3)
O3 O 0.2881(5) 0.2937(5) 0.1582(3)
C3 C 0.1153(6) 0.1433(6) -0.4912(5)
H1 H 0.0588 0.1455 -0.5638
C4 C 0.1702(6) 0.2228(6) -0.3179(5)
H2 H 0.1545 0.2841 -0.2663
C5 C 0.3569(6) 0.2446(6) 0.2458(4)
C6 C 0.3570(6) 0.3089(6) 0.3520(5)
C7 C 0.4514(6) 0.2730(6) 0.4479(5)
H3 H 0.5167 0.2059 0.4474
C8 C 0.2997(6) 0.0429(6) -0.3572(4)
H4 H 0.3700 -0.0213 -0.3362
C9 C 0.2193(6) 0.0505(6) -0.4642(5)
H5 H 0.2354 -0.0072 -0.5181
O4 O 0.4286(4) 0.0388(4) -0.1240(3)
N1 N 0.0908(5) 0.2302(5) -0.4194(4)
N2 N 0.2594(5) 0.4679(5) 0.4493(4)
C10 C 0.2638(6) 0.4060(6) 0.3570(5)
H6 H 0.1988 0.4308 0.2914
C11 C 0.3514(6) 0.4303(6) 0.5403(5)
H7 H 0.3486 0.4715 0.6066
C12 C 0.4504(6) 0.3351(6) 0.5443(5)
H8 H 0.5153 0.3132 0.6107
O4B O 0.5714(4) -0.0388(4) 0.1240(3)
N1A N 0.5908(5) 0.2698(5) 0.0806(4)
N2C N 0.2406(5) -0.0321(5) 0.0507(4)
Cd1B Cd 0.59507(4) -0.12957(4) -0.06431(3)
Cd1A Cd -0.09507(4) 0.37043(4) -0.43569(3)
Cd1C Cd 0.09507(4) 0.62957(4) 0.43569(3)
loop_
_geom_bond_atom_site_label_1
_geom_bond_atom_site_label_2
_geom_bond_site_symmetry_1
_geom_bond_site_symmetry_2
Cd1 O1 1_555 1_555
O1 C5 1_555 1_555
C1 C2 1_555 1_555
C2 C4 1_555 1_555
O2 Cd1 1_555 1_555
O3 Cd1 1_555 1_555
C3 H1 1_555 1_555
C4 H2 1_555 1_555
C5 O3 1_555 1_555
C6 C5 1_555 1_555
C7 C6 1_555 1_555
H3 C7 1_555 1_555
C8 C2 1_555 1_555
H4 C8 1_555 1_555
C9 C3 1_555 1_555
H5 C9 1_555 1_555
O4 Cd1 1_555 1_555
N1 C3 1_555 1_555
N2 C10 1_555 1_555
C10 C6 1_555 1_555
H6 C10 1_555 1_555
C11 N2 1_555 1_555
H7 C11 1_555 1_555
C12 C7 1_555 1_555
H8 C12 1_555 1_555
O4B Cd1 1_555 1_555
N1A Cd1 1_555 1_555
N2C Cd1 1_555 1_555
Cd1B O4 1_555 1_555
Cd1A N1 1_555 1_555
Cd1C N2 1_555 1_555
C1 O2 1_555 1_555
C1 O4 1_555 1_555
C4 N1 1_555 1_555
C8 C9 1_555 1_555
C11 C12 1_555 1_555
O4B Cd1B 1_555 1_555

#END
