
#######################################################################
#
#                 Cambridge Crystallographic Data Centre
#                                CCDC 
#
#######################################################################
#
# If this CIF has been generated from an entry in the Cambridge 
# Structural Database, then it will include bibliographic, chemical, 
# crystal, experimental, refinement or atomic coordinate data resulting 
# from the CCDC's data processing and validation procedures.
#
#######################################################################

data_ACUCAC
_symmetry_cell_setting           monoclinic
_symmetry_space_group_name_H-M   'C c'
_symmetry_Int_Tables_number      9
_space_group_name_Hall           'C -2yc'
loop_
_symmetry_equiv_pos_site_id
_symmetry_equiv_pos_as_xyz
1 x,y,z
2 x,-y,1/2+z
3 1/2+x,1/2+y,z
4 1/2+x,1/2-y,1/2+z
_cell_length_a                   21.8745(12)
_cell_length_b                   15.1576(8)
_cell_length_c                   32.8632(18)
_cell_angle_alpha                90.00
_cell_angle_beta                 102.9970(10)
_cell_angle_gamma                90.00
_cell_volume                     10617.1
loop_
_atom_site_label
_atom_site_type_symbol
_atom_site_fract_x
_atom_site_fract_y
_atom_site_fract_z
Zn1 Zn 0.08099(9) 0.05055(16) 1.37265(7)
O1 O 0.0423(6) 0.0922(9) 1.3142(4)
N1 N -0.3583(7) 0.4643(11) 1.3480(4)
C1 C 0.0039(10) 0.1472(14) 1.3268(7)
O2 O 0.0030(6) 0.1523(9) 1.3618(5)
N2 N 0.0214(6) -0.0360(9) 1.3927(4)
C2 C -0.0377(9) 0.2087(12) 1.2939(7)
O3 O -0.3462(6) -0.3511(9) 1.3905(6)
C3 C -0.0200(8) 0.2341(10) 1.2554(5)
H1 H 0.0154 0.2072 1.2482
O4 O -0.3763(7) -0.4105(10) 1.4431(6)
C4 C -0.0519(7) 0.2931(10) 1.2309(5)
H2 H -0.0377 0.3130 1.2072
C5 C -0.1054(8) 0.3262(11) 1.2390(6)
H3 H -0.1326 0.3599 1.2180
C6 C -0.1219(9) 0.3126(12) 1.2769(7)
C7 C -0.0864(9) 0.2466(12) 1.3017(7)
H4 H -0.0995 0.2286 1.3261
C8 C -0.1774(9) 0.3545(12) 1.2865(6)
H5 H -0.1845 0.4130 1.2762
C9 C -0.2198(10) 0.3261(16) 1.3071(7)
H6 H -0.2151 0.2662 1.3157
C10 C -0.2714(7) 0.3713(10) 1.3182(5)
C11 C -0.2744(9) 0.4655(13) 1.3135(6)
H7 H -0.2476 0.4974 1.2996
C12 C -0.3197(8) 0.5065(12) 1.3309(5)
H8 H -0.3220 0.5691 1.3301
C13 C -0.3567(8) 0.3830(13) 1.3527(6)
H9 H -0.3840 0.3532 1.3669
C14 C -0.3104(8) 0.3363(13) 1.3354(6)
H10 H -0.3099 0.2738 1.3374
C15 C -0.3442(9) -0.3596(12) 1.4340(6)
C16 C -0.2984(8) -0.2963(11) 1.4574(6)
C17 C -0.3085(10) -0.2799(12) 1.4956(7)
H11 H -0.3429 -0.3062 1.5042
C18 C -0.2668(8) -0.2228(10) 1.5228(6)
H12 H -0.2750 -0.2087 1.5493
C19 C -0.2167(8) -0.1885(10) 1.5122(5)
H13 H -0.1883 -0.1539 1.5321
C20 C -0.2052(8) -0.2010(10) 1.4751(5)
C21 C -0.2474(9) -0.2569(12) 1.4454(7)
H14 H -0.2404 -0.2664 1.4183
C22 C -0.1526(9) -0.1580(12) 1.4629(6)
H15 H -0.1281 -0.1201 1.4832
C23 C -0.1333(8) -0.1651(10) 1.4248(6)
H16 H -0.1582 -0.1999 1.4032
C24 C -0.0805(8) -0.1249(10) 1.4168(6)
C25 C -0.0443(8) -0.0638(11) 1.4413(6)
H17 H -0.0533 -0.0493 1.4674
C26 C 0.0048(8) -0.0221(11) 1.4297(6)
H18 H 0.0287 0.0190 1.4487
C27 C -0.0130(9) -0.0937(11) 1.3684(6)
H19 H -0.0042 -0.1044 1.3418
C28 C -0.0637(7) -0.1424(10) 1.3796(5)
H20 H -0.0854 -0.1864 1.3613
N1B N 0.1417(7) -0.0357(11) 1.3480(4)
O3B O 0.1538(6) 0.1489(9) 1.3905(6)
O4B O 0.1237(7) 0.0895(10) 1.4431(6)
Zn1B Zn -0.41901(9) 0.55055(16) 1.37265(7)
Zn1B_2 Zn -0.41901(9) -0.44945(16) 1.37265(7)
Zn2 Zn 0.96752(9) 0.86277(15) 1.21780(7)
N3 N 1.0288(8) 0.9456(11) 1.1995(6)
N4 N 0.9077(7) 0.9427(10) 1.2423(5)
O5 O 1.4162(6) 1.3334(8) 1.1577(4)
O6 O 1.3866(6) 1.2516(9) 1.2049(5)
O7 O 0.5359(6) 1.2443(9) 1.2242(4)
O8 O 0.5063(6) 1.3148(8) 1.2765(4)
C29 C 1.3819(8) 1.2742(11) 1.1665(6)
C30 C 1.3351(8) 1.2311(10) 1.1347(6)
C31 C 1.3350(7) 1.2430(9) 1.0919(6)
H21 H 1.3651 1.2809 1.0842
C32 C 1.2920(7) 1.2008(9) 1.0617(6)
H22 H 1.2916 1.2092 1.0330
C33 C 1.2501(9) 1.1468(11) 1.0735(6)
H23 H 1.2218 1.1155 1.0522
C34 C 1.2451(10) 1.1335(13) 1.1148(7)
C35 C 1.2878(9) 1.1782(12) 1.1450(7)
H24 H 1.2852 1.1734 1.1734
C36 C 1.1903(9) 1.0839(13) 1.1269(6)
H25 H 1.1700 1.0389 1.1086
C37 C 1.1693(8) 1.1003(12) 1.1617(6)
H26 H 1.1871 1.1484 1.1789
C38 C 1.1200(8) 1.0471(12) 1.1745(6)
C39 C 1.0828(9) 0.9842(11) 1.1476(7)
H27 H 1.0902 0.9747 1.1205
C40 C 1.0384(8) 0.9389(10) 1.1595(6)
H28 H 1.0123 0.9007 1.1401
C41 C 1.0612(7) 1.0116(9) 1.2244(5)
H29 H 1.0526 1.0226 1.2510
C42 C 1.1066(8) 1.0628(12) 1.2111(6)
H30 H 1.1277 1.1087 1.2285
C43 C 0.5353(10) 1.2543(14) 1.2636(7)
C44 C 0.5755(9) 1.1868(11) 1.2934(7)
C45 C 0.5636(8) 1.1704(10) 1.3345(6)
H31 H 0.5291 1.1985 1.3424
C46 C 0.5977(9) 1.1204(11) 1.3594(7)
H32 H 0.5894 1.1102 1.3862
C47 C 0.6506(7) 1.0772(10) 1.3477(5)
H33 H 0.6765 1.0384 1.3668
C48 C 0.6626(8) 1.0909(11) 1.3116(6)
C49 C 0.6265(8) 1.1430(10) 1.2837(6)
H34 H 0.6354 1.1505 1.2569
C50 C 0.7181(7) 1.0459(11) 1.3030(5)
H35 H 0.7324 0.9934 1.3179
C51 C 0.7517(9) 1.0775(14) 1.2731(7)
H36 H 0.7390 1.1315 1.2590
C52 C 0.8064(9) 1.0277(13) 1.2632(6)
C53 C 0.8277(7) 0.9438(10) 1.2802(5)
H37 H 0.8082 0.9153 1.2996
C54 C 0.8770(7) 0.9054(10) 1.2677(5)
H38 H 0.8898 0.8482 1.2781
C55 C 0.8873(9) 1.0239(12) 1.2243(6)
H39 H 0.9092 1.0501 1.2054
C56 C 0.8356(9) 1.0679(13) 1.2332(6)
H40 H 0.8207 1.1219 1.2199
O5B O 0.9162(6) 0.8334(8) 1.1577(4)
O6B O 0.8866(6) 0.7516(9) 1.2049(5)
O7B O 1.0359(6) 0.7443(9) 1.2242(4)
O8B O 1.0063(6) 0.8148(8) 1.2765(4)
Zn2B Zn 1.46752(9) 1.36277(15) 1.21780(7)
Zn2B_2 Zn 0.46752(9) 1.36277(15) 1.21780(7)
Zn3 Zn 0.50894(9) 0.13866(16) 1.04195(7)
N5 N 0.5711(7) 0.0539(10) 1.0230(5)
N6 N 0.4459(5) 0.0515(8) 1.0597(4)
O9 O 0.9701(5) -0.3094(8) 0.9822(4)
O10 O 0.9415(6) -0.2486(9) 1.0335(5)
O11 O 0.0841(7) -0.2452(9) 1.0536(5)
O12 O 0.0594(6) -0.3338(9) 1.1003(4)
C57 C 0.9396(9) -0.2497(13) 0.9964(7)
C58 C 0.8997(8) -0.1912(11) 0.9661(6)
C59 C 0.9140(7) -0.1791(10) 0.9293(5)
H41 H 0.9478 -0.2099 0.9220
C60 C 0.8739(7) -0.1134(9) 0.8989(6)
H42 H 0.8841 -0.1021 0.8727
C61 C 0.8263(8) -0.0726(11) 0.9083(6)
H43 H 0.8020 -0.0330 0.8887
C62 C 0.8092(9) -0.0880(12) 0.9505(7)
C63 C 0.8518(9) -0.1487(11) 0.9787(7)
H44 H 0.8458 -0.1585 1.0061
C64 C 0.7540(9) -0.0485(13) 0.9617(6)
H45 H 0.7410 0.0063 0.9485
C65 C 0.7214(10) -0.0753(14) 0.9857(7)
H46 H 0.7339 -0.1301 0.9991
C66 C 0.6678(7) -0.0348(10) 0.9958(5)
C67 C 0.6423(7) 0.0422(9) 0.9763(5)
H47 H 0.6575 0.0671 0.9539
C68 C 0.5956(8) 0.0800(11) 0.9899(5)
H48 H 0.5772 0.1307 0.9751
C69 C 0.5920(10) -0.0216(14) 1.0374(7)
H49 H 0.5753 -0.0465 1.0591
C70 C 0.6371(9) -0.0690(13) 1.0233(6)
H50 H 0.6467 -0.1274 1.0333
C71 C 0.0918(9) -0.2696(12) 1.0892(6)
C72 C 0.1402(9) -0.2255(12) 1.1251(7)
C73 C 0.1346(7) -0.2262(9) 1.1661(5)
H51 H 0.1012 -0.2578 1.1736
C74 C 0.1775(7) -0.1810(9) 1.1964(5)
H52 H 0.1728 -0.1806 1.2244
C75 C 0.2286(9) -0.1350(12) 1.1858(7)
H53 H 0.2580 -0.1037 1.2064
C76 C 0.2343(9) -0.1373(12) 1.1448(7)
C77 C 0.1860(8) -0.1781(11) 1.1140(7)
H54 H 0.1861 -0.1718 1.0853
C78 C 0.2862(11) -0.0872(15) 1.1358(8)
H55 H 0.3110 -0.0522 1.1573
C79 C 0.3006(8) -0.0885(11) 1.0983(6)
H56 H 0.2738 -0.1210 1.0767
C80 C 0.3542(9) -0.0436(13) 1.0882(7)
C81 C 0.3908(9) 0.0153(12) 1.1142(8)
H57 H 0.3872 0.0229 1.1423
C82 C 0.4343(10) 0.0647(13) 1.0974(7)
H58 H 0.4568 0.1104 1.1141
C83 C 0.4098(9) 0.0028(12) 1.0342(7)
H59 H 0.4139 0.0018 1.0060
C84 C 0.3640(8) -0.0499(11) 1.0451(6)
H60 H 0.3395 -0.0890 1.0254
O9B O 0.4701(5) 0.1906(8) 0.9822(4)
O10B O 0.4415(6) 0.2514(9) 1.0335(5)
O11B O 0.5841(7) 0.2548(9) 1.0536(5)
O12B O 0.5594(6) 0.1662(9) 1.1003(4)
Zn3B Zn 1.00894(9) -0.36134(16) 1.04195(7)
Zn3B_2 Zn 0.00894(9) -0.36134(16) 1.04195(7)
Zn4 Zn 0.39508(9) 0.94968(16) 0.88712(7)
N7 N 0.4548(7) 1.0338(9) 0.8665(5)
N8 N 0.3396(7) 1.0303(10) 0.9132(5)
O13 O 0.8522(7) 1.4091(10) 0.8172(6)
O14 O 0.8217(7) 1.3520(10) 0.8711(4)
O15 O -0.0648(6) 1.4001(9) 0.9493(5)
O16 O -0.0234(7) 1.3476(8) 0.8971(4)
C85 C 0.8202(7) 1.3546(10) 0.8358(6)
C86 C 0.7759(10) 1.2929(14) 0.8041(8)
C87 C 0.7872(9) 1.2715(11) 0.7642(6)
H61 H 0.8213 1.2984 0.7555
C88 C 0.7506(9) 1.2143(12) 0.7389(7)
H62 H 0.7586 1.1998 0.7125
C89 C 0.6996(7) 1.1759(10) 0.7523(5)
H63 H 0.6741 1.1334 0.7351
C90 C 0.6859(7) 1.2002(10) 0.7916(5)
C91 C 0.7257(9) 1.2565(11) 0.8161(7)
H64 H 0.7185 1.2714 0.8427
C92 C 0.6297(9) 1.1579(12) 0.8020(6)
H65 H 0.6095 1.1126 0.7839
C93 C 0.6066(8) 1.1773(11) 0.8330(5)
H66 H 0.6238 1.2261 0.8499
C94 C 0.5516(9) 1.1256(11) 0.8449(6)
C95 C 0.5159(9) 1.0622(12) 0.8171(7)
H67 H 0.5250 1.0511 0.7906
C96 C 0.4681(8) 1.0175(12) 0.8292(6)
H68 H 0.4444 0.9748 0.8111
C97 C 0.4873(9) 1.0989(12) 0.8919(6)
H69 H 0.4746 1.1147 0.9167
C98 C 0.5339(8) 1.1382(11) 0.8828(6)
H70 H 0.5577 1.1777 0.9027
C99 C -0.0276(9) 1.3512(13) 0.9374(6)
C100 C 0.0118(9) 1.2948(12) 0.9675(7)
C101 C -0.0037(8) 1.2816(11) 1.0032(6)
H71 H -0.0369 1.3148 1.0099
C102 C 0.0295(11) 1.2161(15) 1.0333(9)
H72 H 0.0221 1.2105 1.0606
C103 C 0.0761(8) 1.1584(12) 1.0180(6)
H73 H 0.0901 1.1041 1.0313
C104 C 0.0978(11) 1.1884(14) 0.9835(8)
C105 C 0.0642(8) 1.2478(10) 0.9557(6)
H74 H 0.0745 1.2584 0.9295
C106 C 0.1499(9) 1.1352(12) 0.9727(6)
H75 H 0.1528 1.0737 0.9784
C107 C 0.1928(7) 1.1750(11) 0.9549(5)
H76 H 0.1908 1.2366 0.9495
C108 C 0.2428(8) 1.1200(12) 0.9440(5)
C109 C 0.2882(8) 1.1711(13) 0.9215(5)
H77 H 0.2848 1.2328 0.9164
C110 C 0.3311(8) 1.1226(12) 0.9104(5)
H78 H 0.3606 1.1539 0.8987
C111 C 0.3017(7) 0.9916(10) 0.9375(4)
H79 H 0.3082 0.9314 0.9453
C112 C 0.2562(7) 1.0369(11) 0.9503(5)
H80 H 0.2315 1.0046 0.9655
O13B O 0.3522(7) 0.9091(10) 0.8172(6)
O14B O 0.3217(7) 0.8520(10) 0.8711(4)
O15B O 0.4352(6) 0.9001(9) 0.9493(5)
O16B O 0.4766(7) 0.8476(8) 0.8971(4)
Zn4B Zn 0.89508(9) 1.44968(16) 0.88712(7)
Zn4B_2 Zn -0.10492(9) 1.44968(16) 0.88712(7)
O17 O 0.4272(6) 0.4080(7) 1.0801(4)
O18 O 0.4523(5) 0.5288(7) 1.0459(3)
C113 C 0.4261(6) 0.4987(9) 1.0726(4)
C114 C 0.3888(5) 0.5525(7) 1.0945(4)
C115 C 0.4070(4) 0.6384(7) 1.1062(4)
C116 C 0.3697(6) 0.6909(6) 1.1254(4)
C117 C 0.3141(5) 0.6576(7) 1.1329(4)
C118 C 0.2958(4) 0.5717(7) 1.1213(4)
C119 C 0.3332(5) 0.5192(6) 1.1021(4)
C120 C 0.2365(10) 0.5362(12) 1.1337(7)
C121 C 0.2207(8) 0.4524(12) 1.1306(5)
C122 C 0.1591(5) 0.4215(8) 1.1403(4)
C123 C 0.1415(5) 0.3339(7) 1.1325(4)
C124 C 0.0861(6) 0.3031(6) 1.1415(4)
N9 N 0.0484(5) 0.3599(8) 1.1583(4)
C125 C 0.0660(6) 0.4475(8) 1.1662(4)
C126 C 0.1214(6) 0.4783(6) 1.1571(5)
O19 O 0.8895(5) 0.5588(4) 1.2226(3)
loop_
_geom_bond_atom_site_label_1
_geom_bond_atom_site_label_2
_geom_bond_site_symmetry_1
_geom_bond_site_symmetry_2
Zn1 O1 1_555 1_555
O1 C1 1_555 1_555
N1 C12 1_555 1_555
C1 O2 1_555 1_555
Zn2 N3 1_555 1_555
O2 Zn1 1_555 1_555
N2 Zn1 1_555 1_555
C2 C1 1_555 1_555
Zn3 N5 1_555 1_555
O3 C15 1_555 1_555
N3 C40 1_555 1_555
C3 C2 1_555 1_555
H1 C3 1_555 1_555
Zn4 N7 1_555 1_555
O4 C15 1_555 1_555
N4 Zn2 1_555 1_555
C4 C3 1_555 1_555
H2 C4 1_555 1_555
O5 C29 1_555 1_555
N5 C68 1_555 1_555
C5 C4 1_555 1_555
H3 C5 1_555 1_555
O6 C29 1_555 1_555
N6 Zn3 1_555 1_555
C6 C5 1_555 1_555
O7 C43 1_555 1_555
N7 C96 1_555 1_555
C7 C2 1_555 1_555
H4 C7 1_555 1_555
O8 C43 1_555 1_555
N8 Zn4 1_555 1_555
C8 C6 1_555 1_555
H5 C8 1_555 1_555
O9 C57 1_555 1_555
C9 C8 1_555 1_555
H6 C9 1_555 1_555
O10 C57 1_555 1_555
C10 C9 1_555 1_555
O11 C71 1_555 1_555
C11 C10 1_555 1_555
H7 C11 1_555 1_555
O12 C71 1_555 1_555
C12 C11 1_555 1_555
H8 C12 1_555 1_555
O13 C85 1_555 1_555
C13 N1 1_555 1_555
H9 C13 1_555 1_555
O14 C85 1_555 1_555
C14 C10 1_555 1_555
H10 C14 1_555 1_555
O15 C99 1_555 1_555
C15 C16 1_555 1_555
O16 C99 1_555 1_555
C16 C17 1_555 1_555
O17 C113 1_555 1_555
C17 H11 1_555 1_555
O18 C113 1_555 1_555
C18 C17 1_555 1_555
H12 C18 1_555 1_555
C19 C18 1_555 1_555
H13 C19 1_555 1_555
C20 C19 1_555 1_555
C21 C16 1_555 1_555
H14 C21 1_555 1_555
C22 C20 1_555 1_555
H15 C22 1_555 1_555
C23 C22 1_555 1_555
H16 C23 1_555 1_555
C24 C23 1_555 1_555
C25 C24 1_555 1_555
H17 C25 1_555 1_555
C26 N2 1_555 1_555
H18 C26 1_555 1_555
C27 N2 1_555 1_555
H19 C27 1_555 1_555
C28 C24 1_555 1_555
H20 C28 1_555 1_555
C29 C30 1_555 1_555
C30 C31 1_555 1_555
C31 H21 1_555 1_555
C32 C31 1_555 1_555
H22 C32 1_555 1_555
C33 C32 1_555 1_555
H23 C33 1_555 1_555
C34 C33 1_555 1_555
C35 C30 1_555 1_555
H24 C35 1_555 1_555
C36 C34 1_555 1_555
H25 C36 1_555 1_555
C37 C36 1_555 1_555
H26 C37 1_555 1_555
C38 C37 1_555 1_555
C39 C38 1_555 1_555
H27 C39 1_555 1_555
C40 C39 1_555 1_555
H28 C40 1_555 1_555
C41 N3 1_555 1_555
H29 C41 1_555 1_555
C42 C38 1_555 1_555
H30 C42 1_555 1_555
C43 C44 1_555 1_555
C44 C45 1_555 1_555
C45 H31 1_555 1_555
C46 C45 1_555 1_555
H32 C46 1_555 1_555
C47 C46 1_555 1_555
H33 C47 1_555 1_555
C48 C47 1_555 1_555
C49 C44 1_555 1_555
H34 C49 1_555 1_555
C50 C48 1_555 1_555
H35 C50 1_555 1_555
C51 C50 1_555 1_555
H36 C51 1_555 1_555
C52 C51 1_555 1_555
C53 C52 1_555 1_555
H37 C53 1_555 1_555
C54 N4 1_555 1_555
H38 C54 1_555 1_555
C55 N4 1_555 1_555
H39 C55 1_555 1_555
C56 C52 1_555 1_555
H40 C56 1_555 1_555
C57 C58 1_555 1_555
C58 C59 1_555 1_555
C59 H41 1_555 1_555
C60 C59 1_555 1_555
H42 C60 1_555 1_555
C61 C60 1_555 1_555
H43 C61 1_555 1_555
C62 C61 1_555 1_555
C63 C58 1_555 1_555
H44 C63 1_555 1_555
C64 C62 1_555 1_555
H45 C64 1_555 1_555
C65 C64 1_555 1_555
H46 C65 1_555 1_555
C66 C65 1_555 1_555
C67 C66 1_555 1_555
H47 C67 1_555 1_555
C68 C67 1_555 1_555
H48 C68 1_555 1_555
C69 N5 1_555 1_555
H49 C69 1_555 1_555
C70 C66 1_555 1_555
H50 C70 1_555 1_555
C71 C72 1_555 1_555
C72 C73 1_555 1_555
C73 H51 1_555 1_555
C74 C73 1_555 1_555
H52 C74 1_555 1_555
C75 C74 1_555 1_555
H53 C75 1_555 1_555
C76 C75 1_555 1_555
C77 C72 1_555 1_555
H54 C77 1_555 1_555
C78 C76 1_555 1_555
H55 C78 1_555 1_555
C79 C78 1_555 1_555
H56 C79 1_555 1_555
C80 C79 1_555 1_555
C81 C80 1_555 1_555
H57 C81 1_555 1_555
C82 N6 1_555 1_555
H58 C82 1_555 1_555
C83 N6 1_555 1_555
H59 C83 1_555 1_555
C84 C80 1_555 1_555
H60 C84 1_555 1_555
C85 C86 1_555 1_555
C86 C87 1_555 1_555
C87 H61 1_555 1_555
C88 C87 1_555 1_555
H62 C88 1_555 1_555
C89 C88 1_555 1_555
H63 C89 1_555 1_555
C90 C89 1_555 1_555
C91 C86 1_555 1_555
H64 C91 1_555 1_555
C92 C90 1_555 1_555
H65 C92 1_555 1_555
C93 C92 1_555 1_555
H66 C93 1_555 1_555
C94 C93 1_555 1_555
C95 C94 1_555 1_555
H67 C95 1_555 1_555
C96 C95 1_555 1_555
H68 C96 1_555 1_555
C97 N7 1_555 1_555
H69 C97 1_555 1_555
C98 C94 1_555 1_555
H70 C98 1_555 1_555
C99 C100 1_555 1_555
C100 C101 1_555 1_555
C101 H71 1_555 1_555
C102 C101 1_555 1_555
H72 C102 1_555 1_555
C103 C102 1_555 1_555
H73 C103 1_555 1_555
C104 C103 1_555 1_555
C105 C100 1_555 1_555
H74 C105 1_555 1_555
C106 C104 1_555 1_555
H75 C106 1_555 1_555
C107 C106 1_555 1_555
H76 C107 1_555 1_555
C108 C107 1_555 1_555
C109 C108 1_555 1_555
H77 C109 1_555 1_555
C110 N8 1_555 1_555
H78 C110 1_555 1_555
C111 N8 1_555 1_555
H79 C111 1_555 1_555
C112 C108 1_555 1_555
H80 C112 1_555 1_555
C113 C114 1_555 1_555
C114 C115 1_555 1_555
C115 C116 1_555 1_555
C116 C117 1_555 1_555
C117 C118 1_555 1_555
C118 C119 1_555 1_555
C119 C114 1_555 1_555
C120 C118 1_555 1_555
C121 C120 1_555 1_555
C122 C121 1_555 1_555
C123 C122 1_555 1_555
C124 C123 1_555 1_555
N9 C124 1_555 1_555
C125 N9 1_555 1_555
C126 C122 1_555 1_555
N1B Zn1 1_555 1_555
O3B Zn1 1_555 1_555
O4B Zn1 1_555 1_555
Zn1B N1 1_555 1_555
O5B Zn2 1_555 1_555
O6B Zn2 1_555 1_555
O7B Zn2 1_555 1_555
O8B Zn2 1_555 1_555
O9B Zn3 1_555 1_555
O10B Zn3 1_555 1_555
O11B Zn3 1_555 1_555
O12B Zn3 1_555 1_555
Zn1B_2 O3 1_555 1_555
O13B Zn4 1_555 1_555
O14B Zn4 1_555 1_555
O15B Zn4 1_555 1_555
O16B Zn4 1_555 1_555
Zn2B O5 1_555 1_555
Zn2B_2 O7 1_555 1_555
Zn3B O9 1_555 1_555
Zn3B_2 O11 1_555 1_555
Zn4B O13 1_555 1_555
Zn4B_2 O15 1_555 1_555
O4 Zn1B_2 1_555 1_555
O6 Zn2B 1_555 1_555
C6 C7 1_555 1_555
O8 Zn2B_2 1_555 1_555
O10 Zn3B 1_555 1_555
O12 Zn3B_2 1_555 1_555
C13 C14 1_555 1_555
O14 Zn4B 1_555 1_555
O16 Zn4B_2 1_555 1_555
C20 C21 1_555 1_555
C25 C26 1_555 1_555
C27 C28 1_555 1_555
C34 C35 1_555 1_555
C41 C42 1_555 1_555
C48 C49 1_555 1_555
C53 C54 1_555 1_555
C55 C56 1_555 1_555
C62 C63 1_555 1_555
C69 C70 1_555 1_555
C76 C77 1_555 1_555
C81 C82 1_555 1_555
C83 C84 1_555 1_555
C90 C91 1_555 1_555
C97 C98 1_555 1_555
C104 C105 1_555 1_555
C109 C110 1_555 1_555
C111 C112 1_555 1_555
C125 C126 1_555 1_555

#END
