
#######################################################################
#
#                 Cambridge Crystallographic Data Centre
#                                CCDC 
#
#######################################################################
#
# If this CIF has been generated from an entry in the Cambridge 
# Structural Database, then it will include bibliographic, chemical, 
# crystal, experimental, refinement or atomic coordinate data resulting 
# from the CCDC's data processing and validation procedures.
#
#######################################################################

data_ACUCIK
_symmetry_cell_setting           orthorhombic
_symmetry_space_group_name_H-M   'P c c a'
_symmetry_Int_Tables_number      54
_space_group_name_Hall           '-P 2a 2ac'
loop_
_symmetry_equiv_pos_site_id
_symmetry_equiv_pos_as_xyz
1 x,y,z
2 1/2+x,y,-z
3 x,-y,1/2+z
4 1/2-x,y,1/2+z
5 -x,-y,-z
6 1/2-x,-y,z
7 -x,y,1/2-z
8 1/2+x,-y,1/2-z
_cell_length_a                   17.1501(15)
_cell_length_b                   9.9657(9)
_cell_length_c                   12.1082(11)
_cell_angle_alpha                90
_cell_angle_beta                 90
_cell_angle_gamma                90
_cell_volume                     2069.45
loop_
_atom_site_label
_atom_site_type_symbol
_atom_site_fract_x
_atom_site_fract_y
_atom_site_fract_z
Zn1 Zn 0.7500 0.5000 0.15832(6)
S1 S 0.89425(7) 0.04557(11) 0.29327(11)
O1 O 0.7520(2) 0.3527(3) 0.2691(2)
O2 O 0.8305(2) 0.2607(3) 0.1465(3)
C1 C 0.7976(3) 0.1505(5) 0.4274(4)
C2 C 0.8898(3) -0.0203(4) 0.4249(4)
C3 C 0.8223(2) 0.1623(4) 0.3216(4)
C4 C 0.8351(3) 0.0466(4) 0.4860(4)
C5 C 0.8001(3) 0.2634(4) 0.2386(4)
N1 N 1.1573(2) -0.4426(4) 0.4368(3)
C6 C 1.1087(3) -0.3447(4) 0.4020(4)
C7 C 0.9970(3) -0.1888(4) 0.4144(4)
C8 C 1.0815(3) -0.4543(4) 0.6011(4)
C9 C 1.1425(3) -0.4961(6) 0.5358(4)
C10 C 1.0324(3) -0.3546(5) 0.5646(4)
C11 C 1.0452(3) -0.2977(4) 0.4611(4)
C12 C 0.9374(3) -0.1301(5) 0.4652(4)
H1 H 1.0740(19) -0.487(3) 0.674(3)
H2 H 0.989(2) -0.331(3) 0.610(3)
H3 H 0.760(3) 0.201(4) 0.456(3)
H4 H 1.174(2) -0.561(4) 0.561(3)
H5 H 1.012(3) -0.159(5) 0.337(4)
H6 H 1.118(2) -0.314(3) 0.334(3)
H7 H 0.828(3) 0.021(4) 0.571(4)
H8 H 0.920(3) -0.174(4) 0.535(4)
S1E S 0.60575(7) 0.95443(11) 0.29327(11)
O1E O 0.7480(2) 0.6473(3) 0.2691(2)
O2E O 0.6695(2) 0.7393(3) 0.1465(3)
C1E C 0.7024(3) 0.8495(5) 0.4274(4)
C2E C 0.6102(3) 1.0203(4) 0.4249(4)
C3E C 0.6777(2) 0.8377(4) 0.3216(4)
C4E C 0.6649(3) 0.9534(4) 0.4860(4)
C5E C 0.6999(3) 0.7366(4) 0.2386(4)
N1E N 0.3427(2) 1.4426(4) 0.4368(3)
C6E C 0.3913(3) 1.3447(4) 0.4020(4)
C7E C 0.5030(3) 1.1888(4) 0.4144(4)
C8E C 0.4185(3) 1.4543(4) 0.6011(4)
C9E C 0.3575(3) 1.4961(6) 0.5358(4)
C10E C 0.4676(3) 1.3546(5) 0.5646(4)
C11E C 0.4548(3) 1.2977(4) 0.4611(4)
C12E C 0.5626(3) 1.1301(5) 0.4652(4)
H1E H 0.4260(19) 1.487(3) 0.674(3)
H2E H 0.511(2) 1.331(3) 0.610(3)
H3E H 0.740(3) 0.799(4) 0.456(3)
H4E H 0.326(2) 1.561(4) 0.561(3)
H5E H 0.488(3) 1.159(5) 0.337(4)
H6E H 0.382(2) 1.314(3) 0.334(3)
H7E H 0.672(3) 0.979(4) 0.571(4)
H8E H 0.580(3) 1.174(4) 0.535(4)
N1F N 0.8427(2) 0.5574(4) 0.0632(3)
N1G N 0.6573(2) 0.4426(4) 0.0632(3)
Zn1F Zn 1.2500 -0.5000 0.34168(6)
Zn1F_2 Zn 0.2500 1.5000 0.34168(6)
loop_
_geom_bond_atom_site_label_1
_geom_bond_atom_site_label_2
_geom_bond_site_symmetry_1
_geom_bond_site_symmetry_2
Zn1 O1 1_555 1_555
S1 C2 1_555 1_555
O1 C5 1_555 1_555
O2 C5 1_555 1_555
C1 C3 1_555 1_555
C2 C4 1_555 1_555
C3 S1 1_555 1_555
C4 C1 1_555 1_555
C5 C3 1_555 1_555
N1 C6 1_555 1_555
C6 C11 1_555 1_555
C7 C11 1_555 1_555
C8 C9 1_555 1_555
C9 N1 1_555 1_555
C10 C8 1_555 1_555
C11 C10 1_555 1_555
C12 C2 1_555 1_555
H1 C8 1_555 1_555
H2 C10 1_555 1_555
H3 C1 1_555 1_555
H4 C9 1_555 1_555
H5 C7 1_555 1_555
H6 C6 1_555 1_555
H7 C4 1_555 1_555
H8 C12 1_555 1_555
S1E C2E 1_555 1_555
O1E Zn1 1_555 1_555
O2E C5E 1_555 1_555
C1E C3E 1_555 1_555
C2E C4E 1_555 1_555
C3E S1E 1_555 1_555
C4E C1E 1_555 1_555
C5E O1E 1_555 1_555
N1E C6E 1_555 1_555
C6E C11E 1_555 1_555
C7E C11E 1_555 1_555
C8E C9E 1_555 1_555
C9E N1E 1_555 1_555
C10E C8E 1_555 1_555
C11E C10E 1_555 1_555
C12E C2E 1_555 1_555
H1E C8E 1_555 1_555
H2E C10E 1_555 1_555
H3E C1E 1_555 1_555
H4E C9E 1_555 1_555
H5E C7E 1_555 1_555
H6E C6E 1_555 1_555
H7E C4E 1_555 1_555
H8E C12E 1_555 1_555
N1F Zn1 1_555 1_555
N1G Zn1 1_555 1_555
Zn1F N1 1_555 1_555
Zn1F_2 N1E 1_555 1_555
C7 C12 1_555 1_555
C3E C5E 1_555 1_555
C7E C12E 1_555 1_555

#END
