
#######################################################################
#
#                 Cambridge Crystallographic Data Centre
#                                CCDC 
#
#######################################################################
#
# If this CIF has been generated from an entry in the Cambridge 
# Structural Database, then it will include bibliographic, chemical, 
# crystal, experimental, refinement or atomic coordinate data resulting 
# from the CCDC's data processing and validation procedures.
#
#######################################################################

data_ACUDEJ
_symmetry_cell_setting           monoclinic
_symmetry_space_group_name_H-M   'P 21/c'
_symmetry_Int_Tables_number      14
_space_group_name_Hall           '-P 2ybc'
loop_
_symmetry_equiv_pos_site_id
_symmetry_equiv_pos_as_xyz
1 x,y,z
2 -x,1/2+y,1/2-z
3 -x,-y,-z
4 x,1/2-y,1/2+z
_cell_length_a                   11.585(4)
_cell_length_b                   9.652(3)
_cell_length_c                   15.450(4)
_cell_angle_alpha                90
_cell_angle_beta                 123.604(17)
_cell_angle_gamma                90
_cell_volume                     1438.88
loop_
_atom_site_label
_atom_site_type_symbol
_atom_site_fract_x
_atom_site_fract_y
_atom_site_fract_z
Cu1 Cu 0.0000 1.0000 0.5000
N1 N 0.1444(2) 0.9308(2) 0.64001(17)
N2 N 0.2629(2) 0.9008(2) 0.80892(16)
N3 N 0.1879(2) 1.1172(2) 1.05555(16)
N4 N 0.0729(2) 1.3057(2) 1.04231(17)
N5 N 0.1839(3) 0.9479(3) 0.3683(2)
O1 O 0.1000(3) 0.8849(3) 0.28647(19)
O2 O 0.1663(2) 0.9523(3) 0.44070(18)
O3 O 0.2867(4) 1.0002(4) 0.3790(3)
C1 C 0.2547(3) 0.8473(3) 0.6687(2)
H1 H 0.2756 0.8095 0.6235
C2 C 0.3288(3) 0.8274(3) 0.7721(2)
H2 H 0.4089 0.7745 0.8110
C3 C 0.1522(3) 0.9612(3) 0.7259(2)
H3 H 0.0892 1.0172 0.7290
C4 C 0.3023(3) 0.9164(3) 0.91399(19)
C5 C 0.4142(3) 0.8449(3) 0.9937(2)
H4 H 0.4639 0.7847 0.9791
C6 C 0.4530(3) 0.8625(3) 1.0961(2)
C7 C 0.3782(3) 0.9530(3) 1.1169(2)
H5 H 0.4033 0.9667 1.1848
C8 C 0.2661(3) 1.0225(2) 1.0358(2)
C9 C 0.2265(3) 1.0052(3) 0.9345(2)
H6 H 0.1502 1.0523 0.8808
C10 C 0.5755(3) 0.7855(3) 1.1834(2)
H7 H 0.6186 0.8405 1.2455
H8 H 0.6411 0.7676 1.1652
H9 H 0.5449 0.6993 1.1951
C11 C 0.1473(3) 1.2442(3) 1.0130(2)
H10 H 0.1689 1.2832 0.9686
C12 C 0.0659(3) 1.2134(3) 1.1069(2)
H11 H 0.0194 1.2287 1.1395
C13 C 0.1364(3) 1.0975(3) 1.1159(2)
H12 H 0.1478 1.0195 1.1553
Cu1A Cu 0.0000 0.5000 0.0000
Cu1A_2 Cu 0.0000 1.5000 1.0000
N1B N -0.1444(2) 1.0692(2) 0.35999(17)
N2B N -0.2629(2) 1.0992(2) 0.19108(16)
N3B N -0.1879(2) 0.8828(2) -0.05555(16)
N4B N -0.0729(2) 0.6943(2) -0.04231(17)
N4A N -0.0729(2) 0.8057(2) 0.45769(17)
N4C N 0.0729(2) 1.1943(2) 0.54231(17)
N5B N -0.1839(3) 1.0521(3) 0.6317(2)
O1B O -0.1000(3) 1.1151(3) 0.71353(19)
O2B O -0.1663(2) 1.0477(3) 0.55930(18)
O3B O -0.2867(4) 0.9998(4) 0.6210(3)
C1B C -0.2547(3) 1.1527(3) 0.3313(2)
H1B H -0.2756 1.1905 0.3765
C2B C -0.3288(3) 1.1726(3) 0.2279(2)
H2B H -0.4089 1.2255 0.1890
C3B C -0.1522(3) 1.0388(3) 0.2741(2)
H3B H -0.0892 0.9828 0.2710
C4B C -0.3023(3) 1.0836(3) 0.08601(19)
C5B C -0.4142(3) 1.1551(3) 0.0063(2)
H4B H -0.4639 1.2153 0.0209
C6B C -0.4530(3) 1.1375(3) -0.0961(2)
C7B C -0.3782(3) 1.0470(3) -0.1169(2)
H5B H -0.4033 1.0333 -0.1848
C8B C -0.2661(3) 0.9775(2) -0.0358(2)
C9B C -0.2265(3) 0.9948(3) 0.0655(2)
H6B H -0.1502 0.9477 0.1192
C10B C -0.5755(3) 1.2145(3) -0.1834(2)
H7B H -0.6186 1.1595 -0.2455
H8B H -0.6411 1.2324 -0.1652
H9B H -0.5449 1.3007 -0.1951
C11B C -0.1473(3) 0.7558(3) -0.0130(2)
H10B H -0.1689 0.7168 0.0314
C12B C -0.0659(3) 0.7866(3) -0.1069(2)
H11B H -0.0194 0.7713 -0.1395
C13B C -0.1364(3) 0.9025(3) -0.1159(2)
H12B H -0.1478 0.9805 -0.1553
O4 O 0.5399(4) 0.9268(4) 0.3928(3)
H13 H 0.469(3) 0.958(4) 0.393(3)
H14 H 0.598(5) 0.964(5) 0.452(2)
loop_
_geom_bond_atom_site_label_1
_geom_bond_atom_site_label_2
_geom_bond_site_symmetry_1
_geom_bond_site_symmetry_2
Cu1 N1 1_555 1_555
N1 C1 1_555 1_555
N2 C2 1_555 1_555
N3 C8 1_555 1_555
N4 C11 1_555 1_555
N5 O1 1_555 1_555
O2 Cu1 1_555 1_555
O3 N5 1_555 1_555
C1 H1 1_555 1_555
C2 C1 1_555 1_555
H2 C2 1_555 1_555
C3 N1 1_555 1_555
H3 C3 1_555 1_555
C4 N2 1_555 1_555
C5 C4 1_555 1_555
H4 C5 1_555 1_555
C6 C5 1_555 1_555
C7 C6 1_555 1_555
H5 C7 1_555 1_555
C8 C7 1_555 1_555
C9 C4 1_555 1_555
H6 C9 1_555 1_555
C10 C6 1_555 1_555
H7 C10 1_555 1_555
H8 C10 1_555 1_555
H9 C10 1_555 1_555
C11 N3 1_555 1_555
H10 C11 1_555 1_555
C12 N4 1_555 1_555
H11 C12 1_555 1_555
C13 N3 1_555 1_555
H12 C13 1_555 1_555
O4 H13 1_555 1_555
H14 O4 1_555 1_555
Cu1A N4B 1_555 1_555
Cu1A_2 N4 1_555 1_555
N1B Cu1 1_555 1_555
N2B C2B 1_555 1_555
N3B C8B 1_555 1_555
N4B C11B 1_555 1_555
N4A Cu1 1_555 1_555
N4C Cu1 1_555 1_555
N5B O1B 1_555 1_555
O2B Cu1 1_555 1_555
O3B N5B 1_555 1_555
C1B N1B 1_555 1_555
H1B C1B 1_555 1_555
C2B C1B 1_555 1_555
H2B C2B 1_555 1_555
C3B N1B 1_555 1_555
H3B C3B 1_555 1_555
C4B N2B 1_555 1_555
C5B C4B 1_555 1_555
H4B C5B 1_555 1_555
C6B C5B 1_555 1_555
C7B C6B 1_555 1_555
H5B C7B 1_555 1_555
C8B C7B 1_555 1_555
C9B C4B 1_555 1_555
H6B C9B 1_555 1_555
C10B C6B 1_555 1_555
H7B C10B 1_555 1_555
H8B C10B 1_555 1_555
H9B C10B 1_555 1_555
C11B N3B 1_555 1_555
H10B C11B 1_555 1_555
C12B N4B 1_555 1_555
H11B C12B 1_555 1_555
C13B N3B 1_555 1_555
H12B C13B 1_555 1_555
N2 C3 1_555 1_555
N5 O2 1_555 1_555
C8 C9 1_555 1_555
C12 C13 1_555 1_555
N2B C3B 1_555 1_555
N5B O2B 1_555 1_555
C8B C9B 1_555 1_555
C12B C13B 1_555 1_555

#END
