
#######################################################################
#
#                 Cambridge Crystallographic Data Centre
#                                CCDC 
#
#######################################################################
#
# If this CIF has been generated from an entry in the Cambridge 
# Structural Database, then it will include bibliographic, chemical, 
# crystal, experimental, refinement or atomic coordinate data resulting 
# from the CCDC's data processing and validation procedures.
#
#######################################################################

data_ACUFOU
_symmetry_cell_setting           monoclinic
_symmetry_space_group_name_H-M   'C c'
_symmetry_Int_Tables_number      9
_space_group_name_Hall           'C -2yc'
loop_
_symmetry_equiv_pos_site_id
_symmetry_equiv_pos_as_xyz
1 x,y,z
2 x,-y,1/2+z
3 1/2+x,1/2+y,z
4 1/2+x,1/2-y,1/2+z
_cell_length_a                   6.8160(10)
_cell_length_b                   15.400(2)
_cell_length_c                   12.0880(18)
_cell_angle_alpha                90
_cell_angle_beta                 101.701(2)
_cell_angle_gamma                90
_cell_volume                     1242.47
loop_
_atom_site_label
_atom_site_type_symbol
_atom_site_fract_x
_atom_site_fract_y
_atom_site_fract_z
K1 K 0.4506(2) 0.52271(4) 0.45733(12)
O1 O 0.4742(6) 0.5781(2) 0.2461(3)
H1 H 0.464(7) 0.528(3) 0.210(4)
O2 O 0.3338(6) 0.6215(2) 0.0729(3)
O3 O 0.5891(5) 0.9704(2) 0.3361(3)
O4 O 0.2861(5) 0.80220(19) 0.0410(3)
O5 O 0.4304(6) 0.5692(2) 0.6689(3)
O6 O 0.5689(6) 0.6223(2) 0.8381(3)
O7 O 0.3122(6) 0.9659(2) 0.5765(3)
O8 O 0.2916(5) 0.68089(18) 0.4920(3)
N1 N 0.6027(7) 0.8220(3) 0.3623(4)
H2 H 0.682(6) 0.829(4) 0.427(2)
N2 N 0.4426(8) 0.8821(3) 0.1901(4)
H3 H 0.397(8) 0.927(2) 0.155(4)
N3 N 0.4566(8) 0.8734(3) 0.7158(4)
H4 H 0.486(8) 0.913(2) 0.766(3)
N4 N 0.3014(7) 0.8218(3) 0.5439(4)
H5 H 0.254(7) 0.831(3) 0.474(2)
C1 C 0.4119(9) 0.6372(3) 0.1693(5)
C2 C 0.4514(8) 0.7277(3) 0.2112(4)
C3 C 0.5582(8) 0.7422(4) 0.3188(5)
H6 H 0.6031 0.6934 0.3649
C4 C 0.5476(8) 0.8962(3) 0.2982(4)
C5 C 0.3887(9) 0.8022(3) 0.1426(4)
C6 C 0.4842(9) 0.6325(3) 0.7347(4)
C7 C 0.4416(8) 0.7203(3) 0.6862(4)
C8 C 0.4960(8) 0.7906(3) 0.7556(5)
H7 H 0.5616 0.7817 0.8319
C9 C 0.3557(9) 0.8924(3) 0.6094(4)
C10 C 0.3421(9) 0.7352(3) 0.5714(5)
K1A K 0.4506(2) 0.47729(4) -0.04267(12)
K1B K 0.9506(2) 1.02271(4) 0.45733(12)
K1A_2 K 0.4506(2) 0.47729(4) 0.95733(12)
K1B_2 K -0.0494(2) 1.02271(4) 0.45733(12)
O2A O 0.3338(6) 0.3785(2) 0.5729(3)
O3B O 0.0891(5) 0.4704(2) 0.3361(3)
O6A O 0.5689(6) 0.3777(2) 0.3381(3)
O7B O 0.8122(6) 0.4659(2) 0.5765(3)
loop_
_geom_bond_atom_site_label_1
_geom_bond_atom_site_label_2
_geom_bond_site_symmetry_1
_geom_bond_site_symmetry_2
K1 O1 1_555 1_555
O1 H1 1_555 1_555
O2 C1 1_555 1_555
O3 C4 1_555 1_555
O4 C5 1_555 1_555
O5 K1 1_555 1_555
O6 C6 1_555 1_555
O7 C9 1_555 1_555
O8 K1 1_555 1_555
N1 H2 1_555 1_555
N2 H3 1_555 1_555
N3 H4 1_555 1_555
N4 H5 1_555 1_555
C1 O1 1_555 1_555
C2 C1 1_555 1_555
C3 N1 1_555 1_555
H6 C3 1_555 1_555
C4 N1 1_555 1_555
C5 N2 1_555 1_555
C6 O5 1_555 1_555
C7 C6 1_555 1_555
C8 N3 1_555 1_555
H7 C8 1_555 1_555
C9 N3 1_555 1_555
C10 O8 1_555 1_555
K1A O2 1_555 1_555
K1B O3 1_555 1_555
K1A_2 O6 1_555 1_555
K1B_2 O7 1_555 1_555
O2A K1 1_555 1_555
O3B K1 1_555 1_555
O6A K1 1_555 1_555
O7B K1 1_555 1_555
N2 C4 1_555 1_555
N4 C9 1_555 1_555
N4 C10 1_555 1_555
C2 C3 1_555 1_555
C2 C5 1_555 1_555
C7 C8 1_555 1_555
C7 C10 1_555 1_555

#END
