
#######################################################################
#
#                 Cambridge Crystallographic Data Centre
#                                CCDC 
#
#######################################################################
#
# If this CIF has been generated from an entry in the Cambridge 
# Structural Database, then it will include bibliographic, chemical, 
# crystal, experimental, refinement or atomic coordinate data resulting 
# from the CCDC's data processing and validation procedures.
#
#######################################################################

data_ACUFUB
_symmetry_cell_setting           monoclinic
_symmetry_space_group_name_H-M   'C 2/c'
_symmetry_Int_Tables_number      15
_space_group_name_Hall           '-C 2yn'
loop_
_symmetry_equiv_pos_site_id
_symmetry_equiv_pos_as_xyz
1 x,y,z
2 -x,y,1/2-z
3 1/2+x,1/2+y,z
4 1/2-x,1/2+y,1/2-z
5 -x,-y,-z
6 x,-y,1/2+z
7 1/2-x,1/2-y,-z
8 1/2+x,1/2-y,1/2+z
_cell_length_a                   13.0008(10)
_cell_length_b                   14.3900(11)
_cell_length_c                   9.3431(7)
_cell_angle_alpha                90
_cell_angle_beta                 103.4460(10)
_cell_angle_gamma                90
_cell_volume                     1700.01
loop_
_atom_site_label
_atom_site_type_symbol
_atom_site_fract_x
_atom_site_fract_y
_atom_site_fract_z
Ag1 Ag 0.47914(2) 0.410289(16) 0.06057(3)
O1 O 0.37979(17) 0.49241(14) 0.1758(2)
O2 O 0.3947(2) 0.62550(16) 0.0596(3)
N1 N 0.07312(18) 0.75041(16) 0.4436(2)
C1 C 0.0342(2) 0.7003(2) 0.5380(3)
H1 H -0.0138 0.7286 0.5840
C2 C 0.0610(3) 0.6078(2) 0.5724(4)
H2 H 0.0325 0.5765 0.6412
C3 C 0.1294(2) 0.5635(2) 0.5040(3)
H3 H 0.1471 0.5015 0.5243
C4 C 0.1726(2) 0.61373(19) 0.4018(3)
C5 C 0.1432(2) 0.70801(18) 0.3748(3)
C6 C 0.1875(2) 0.75912(18) 0.2748(3)
H4 H 0.1695 0.8213 0.2566
C7 C 0.2565(2) 0.71763(19) 0.2045(3)
H5 H 0.2850 0.7522 0.1390
C8 C 0.2855(2) 0.62338(19) 0.2295(3)
C9 C 0.2445(2) 0.57253(19) 0.3277(3)
H6 H 0.2640 0.5107 0.3456
C10 C 0.3602(2) 0.57663(19) 0.1490(3)
Ag1D Ag 0.52086(2) 0.589711(16) -0.06057(3)
Ag1C Ag 0.02086(2) 0.910289(16) 0.43943(3)
O2D O 0.6053(2) 0.37450(16) -0.0596(3)
N1C N 0.42688(18) 0.25041(16) 0.0564(2)
loop_
_geom_bond_atom_site_label_1
_geom_bond_atom_site_label_2
_geom_bond_site_symmetry_1
_geom_bond_site_symmetry_2
Ag1 O1 1_555 1_555
O1 C10 1_555 1_555
O2 C10 1_555 1_555
N1 C1 1_555 1_555
C1 H1 1_555 1_555
C2 C1 1_555 1_555
H2 C2 1_555 1_555
C3 C2 1_555 1_555
H3 C3 1_555 1_555
C4 C3 1_555 1_555
C5 N1 1_555 1_555
C6 C5 1_555 1_555
H4 C6 1_555 1_555
C7 C6 1_555 1_555
H5 C7 1_555 1_555
C8 C7 1_555 1_555
C9 C4 1_555 1_555
H6 C9 1_555 1_555
C10 C8 1_555 1_555
Ag1D O2 1_555 1_555
Ag1C N1 1_555 1_555
O2D Ag1 1_555 1_555
N1C Ag1 1_555 1_555
C4 C5 1_555 1_555
C8 C9 1_555 1_555

#END
