
#######################################################################
#
#                 Cambridge Crystallographic Data Centre
#                                CCDC 
#
#######################################################################
#
# If this CIF has been generated from an entry in the Cambridge 
# Structural Database, then it will include bibliographic, chemical, 
# crystal, experimental, refinement or atomic coordinate data resulting 
# from the CCDC's data processing and validation procedures.
#
#######################################################################

data_ACUFEL
_symmetry_cell_setting           monoclinic
_symmetry_space_group_name_H-M   'C 2/c'
_symmetry_Int_Tables_number      15
_space_group_name_Hall           '-C 2yn'
loop_
_symmetry_equiv_pos_site_id
_symmetry_equiv_pos_as_xyz
1 x,y,z
2 -x,y,1/2-z
3 1/2+x,1/2+y,z
4 1/2-x,1/2+y,1/2-z
5 -x,-y,-z
6 x,-y,1/2+z
7 1/2-x,1/2-y,-z
8 1/2+x,1/2-y,1/2+z
_cell_length_a                   19.637(5)
_cell_length_b                   9.6563(15)
_cell_length_c                   7.485(2)
_cell_angle_alpha                90
_cell_angle_beta                 104.76(2)
_cell_angle_gamma                90
_cell_volume                     1372.48
loop_
_atom_site_label
_atom_site_type_symbol
_atom_site_fract_x
_atom_site_fract_y
_atom_site_fract_z
C1 C 0.3751(3) 0.2708(6) -0.0036(8)
H1 H 0.3565 0.1843 -0.0435
C2 C 0.3367(3) 0.3894(7) -0.0747(9)
C3 C 0.2663(4) 0.3740(9) -0.2097(11)
H2 H 0.2355 0.3221 -0.1537
H3 H 0.2718 0.3261 -0.3175
H4 H 0.2465 0.4639 -0.2444
C4 C 0.3660(3) 0.5147(7) -0.0143(9)
H5 H 0.3423 0.5960 -0.0591
C5 C 0.4299(3) 0.5211(6) 0.1118(8)
H6 H 0.4494 0.6067 0.1527
C6 C 0.4659(3) 0.4006(5) 0.1792(8)
N1 N 0.4378(2) 0.2774(5) 0.1198(6)
Cd1 Cd 0.5000 0.07821(6) 0.2500
Br1 Br 0.41572(3) -0.09792(6) 0.02140(9)
C1A C 0.6249(3) 0.2708(6) 0.5036(8)
H1A H 0.6435 0.1843 0.5435
C2A C 0.6633(3) 0.3894(7) 0.5747(9)
C3A C 0.7337(4) 0.3740(9) 0.7097(11)
H2A H 0.7645 0.3221 0.6537
H3A H 0.7282 0.3261 0.8175
H4A H 0.7535 0.4639 0.7444
C4A C 0.6340(3) 0.5147(7) 0.5143(9)
H5A H 0.6577 0.5960 0.5591
C5A C 0.5701(3) 0.5211(6) 0.3882(8)
H6A H 0.5506 0.6067 0.3473
C6A C 0.5341(3) 0.4006(5) 0.3208(8)
N1A N 0.5622(2) 0.2774(5) 0.3802(6)
Cd1D Cd 0.5000 -0.07821(6) -0.2500
Br1D Br 0.58428(3) 0.09792(6) -0.02140(9)
Br1E Br 0.41572(3) 0.09792(6) 0.52140(9)
Br1A Br 0.58428(3) -0.09792(6) 0.47860(9)
loop_
_geom_bond_atom_site_label_1
_geom_bond_atom_site_label_2
_geom_bond_site_symmetry_1
_geom_bond_site_symmetry_2
C1 H1 1_555 1_555
C2 C1 1_555 1_555
C3 C2 1_555 1_555
H2 C3 1_555 1_555
H3 C3 1_555 1_555
H4 C3 1_555 1_555
C4 C2 1_555 1_555
H5 C4 1_555 1_555
C5 C4 1_555 1_555
H6 C5 1_555 1_555
C6 C5 1_555 1_555
N1 C1 1_555 1_555
Cd1 N1 1_555 1_555
Br1 Cd1 1_555 1_555
C1A H1A 1_555 1_555
C2A C1A 1_555 1_555
C3A C2A 1_555 1_555
H2A C3A 1_555 1_555
H3A C3A 1_555 1_555
H4A C3A 1_555 1_555
C4A C2A 1_555 1_555
H5A C4A 1_555 1_555
C5A C4A 1_555 1_555
H6A C5A 1_555 1_555
C6A C6 1_555 1_555
N1A Cd1 1_555 1_555
Cd1D Br1 1_555 1_555
Br1D Cd1 1_555 1_555
Br1E Cd1 1_555 1_555
Br1A Cd1 1_555 1_555
C6 N1 1_555 1_555
C1A N1A 1_555 1_555
C5A C6A 1_555 1_555
C6A N1A 1_555 1_555
Cd1D Br1D 1_555 1_555

#END
