
#######################################################################
#
#                 Cambridge Crystallographic Data Centre
#                                CCDC 
#
#######################################################################
#
# If this CIF has been generated from an entry in the Cambridge 
# Structural Database, then it will include bibliographic, chemical, 
# crystal, experimental, refinement or atomic coordinate data resulting 
# from the CCDC's data processing and validation procedures.
#
#######################################################################

data_ACUFUA
_symmetry_cell_setting           triclinic
_symmetry_space_group_name_H-M   'P -1'
_symmetry_Int_Tables_number      2
_space_group_name_Hall           '-P 1'
loop_
_symmetry_equiv_pos_site_id
_symmetry_equiv_pos_as_xyz
1 x,y,z
2 -x,-y,-z
_cell_length_a                   4.8840(5)
_cell_length_b                   8.4120(9)
_cell_length_c                   10.0240(11)
_cell_angle_alpha                112.2630(15)
_cell_angle_beta                 101.5600(16)
_cell_angle_gamma                93.3450(16)
_cell_volume                     369.28
loop_
_atom_site_label
_atom_site_type_symbol
_atom_site_fract_x
_atom_site_fract_y
_atom_site_fract_z
Rb1 Rb 0.0000 0.0000 0.0000
O1 O 0.2220(6) 0.2619(4) 0.3184(3)
O2 O 0.1416(6) 0.5354(4) 0.4261(3)
H1 H 0.0000 0.5000 0.5000
O3 O 0.5625(6) 0.2203(4) 0.1067(3)
O4 O 0.9759(6) 0.7184(4) 0.1099(3)
N1 N 0.7592(7) 0.4723(4) 0.1116(4)
H4 H 0.830(11) 0.416(6) 0.045(5)
N2 N 0.6839(8) 0.7414(5) 0.2647(4)
H5 H 0.711(11) 0.847(8) 0.291(6)
C1 C 0.2607(9) 0.4180(5) 0.3425(4)
C2 C 0.4536(8) 0.4890(5) 0.2738(4)
C3 C 0.5879(8) 0.3802(5) 0.1614(5)
C4 C 0.5092(9) 0.6630(5) 0.3180(5)
H6 H 0.4206 0.7343 0.3906
C5 C 0.8174(9) 0.6485(5) 0.1592(5)
Rb1_2 Rb 1.0000 0.0000 0.0000
Rb1_3 Rb 1.0000 1.0000 0.0000
Rb1_4 Rb 0.0000 1.0000 1.0000
Rb1_5 Rb -1.0000 1.0000 1.0000
Rb1_6 Rb -1.0000 0.0000 1.0000
O1A O -0.2220(6) 0.7381(4) 0.6816(3)
O1A_2 O -0.2220(6) -0.2619(4) -0.3184(3)
O2A O -0.1416(6) 0.4646(4) 0.5739(3)
O3A O -0.5625(6) 0.7797(4) 0.8933(3)
O3_2 O -0.4375(6) 0.2203(4) 0.1067(3)
O3A_2 O -0.5625(6) -0.2203(4) -0.1067(3)
O3A_3 O 0.4375(6) -0.2203(4) -0.1067(3)
O4A O -0.9759(6) 0.2816(4) 0.8901(3)
O4_2 O -0.0241(6) -0.2816(4) 0.1099(3)
O4A_2 O 0.0241(6) 0.2816(4) -0.1099(3)
N1A N -0.7592(7) 0.5277(4) 0.8884(4)
H4A H -0.830(11) 0.584(6) 0.955(5)
N2A N -0.6839(8) 0.2586(5) 0.7353(4)
H5A H -0.711(11) 0.153(8) 0.709(6)
C1A C -0.2607(9) 0.5820(5) 0.6575(4)
C2A C -0.4536(8) 0.5110(5) 0.7262(4)
C3A C -0.5879(8) 0.6198(5) 0.8386(5)
C4A C -0.5092(9) 0.3370(5) 0.6820(5)
H6A H -0.4206 0.2657 0.6094
C5A C -0.8174(9) 0.3515(5) 0.8408(5)
O5 O 0.7291(9) 1.0891(4) 0.3554(4)
H2 H 0.588(15) 1.132(8) 0.333(7)
H3 H 0.876(15) 1.145(9) 0.359(7)
loop_
_geom_bond_atom_site_label_1
_geom_bond_atom_site_label_2
_geom_bond_site_symmetry_1
_geom_bond_site_symmetry_2
Rb1 O1 1_555 1_555
O1 C1 1_555 1_555
O2 H1 1_555 1_555
H1 O2A 1_555 1_555
O3 Rb1 1_555 1_555
O4 C5 1_555 1_555
O5 H2 1_555 1_555
H3 O5 1_555 1_555
N1 H4 1_555 1_555
N2 H5 1_555 1_555
C1 O2 1_555 1_555
C2 C1 1_555 1_555
C3 O3 1_555 1_555
C4 N2 1_555 1_555
H6 C4 1_555 1_555
C5 N1 1_555 1_555
Rb1_2 O3 1_555 1_555
Rb1_3 O4 1_555 1_555
Rb1_4 O1A 1_555 1_555
Rb1_5 O3A 1_555 1_555
Rb1_6 O4A 1_555 1_555
O1A C1A 1_555 1_555
O1A_2 Rb1 1_555 1_555
O2A C1A 1_555 1_555
O3A Rb1_4 1_555 1_555
O3_2 Rb1 1_555 1_555
O3A_2 Rb1 1_555 1_555
O3A_3 Rb1 1_555 1_555
O4A C5A 1_555 1_555
O4_2 Rb1 1_555 1_555
O4A_2 Rb1 1_555 1_555
N1A H4A 1_555 1_555
N2A H5A 1_555 1_555
C1A C2A 1_555 1_555
C2A C3A 1_555 1_555
C3A O3A 1_555 1_555
C4A N2A 1_555 1_555
H6A C4A 1_555 1_555
C5A N1A 1_555 1_555
N1 C3 1_555 1_555
N2 C5 1_555 1_555
C2 C3 1_555 1_555
C2 C4 1_555 1_555
Rb1_2 O3A_3 1_555 1_555
N1A C3A 1_555 1_555
N2A C5A 1_555 1_555
C2A C4A 1_555 1_555

#END
