
#######################################################################
#
#                 Cambridge Crystallographic Data Centre
#                                CCDC 
#
#######################################################################
#
# If this CIF has been generated from an entry in the Cambridge 
# Structural Database, then it will include bibliographic, chemical, 
# crystal, experimental, refinement or atomic coordinate data resulting 
# from the CCDC's data processing and validation procedures.
#
#######################################################################

data_ACUFOV
_symmetry_cell_setting           monoclinic
_symmetry_space_group_name_H-M   'P 21/c'
_symmetry_Int_Tables_number      14
_space_group_name_Hall           '-P 2ybc'
loop_
_symmetry_equiv_pos_site_id
_symmetry_equiv_pos_as_xyz
1 x,y,z
2 -x,1/2+y,1/2-z
3 -x,-y,-z
4 x,1/2-y,1/2+z
_cell_length_a                   13.2432(6)
_cell_length_b                   6.1574(2)
_cell_length_c                   8.5959(3)
_cell_angle_alpha                90
_cell_angle_beta                 98.155(2)
_cell_angle_gamma                90
_cell_volume                     693.853
loop_
_atom_site_label
_atom_site_type_symbol
_atom_site_fract_x
_atom_site_fract_y
_atom_site_fract_z
Zn1 Zn 0.5000 1.0000 0.5000
Na1 Na 0.03657(9) 0.38146(19) 0.69254(13)
S1 S 0.13597(5) 0.88954(11) 0.57241(8)
O1 O 0.07432(16) 0.6925(3) 0.5538(3)
O2 O 0.10261(16) 1.0349(4) 0.6877(3)
O3 O 0.14300(16) 0.9951(4) 0.4229(3)
O4 O 0.51364(13) 0.8902(3) 0.7282(2)
O5 O 0.42196(14) 0.8016(3) 0.9167(2)
N1 N 0.35961(16) 1.1125(4) 0.5602(3)
H1 H 0.3642 1.2549 0.5836
H2 H 0.3098 1.0943 0.4784
C1 C 0.26104(19) 0.8023(5) 0.6488(3)
H3 H 0.2573 0.7106 0.7395
H4 H 0.2877 0.7148 0.5700
C2 C 0.3354(2) 0.9888(4) 0.6971(3)
H5 H 0.3050 1.0872 0.7672
C3 C 0.4327(2) 0.8863(4) 0.7882(3)
Zn1A Zn 0.5000 0.5000 1.0000
Zn1A_2 Zn 0.5000 1.5000 0.0000
Na1B Na 0.96343(9) 1.61854(19) 0.30746(13)
Na1B_2 Na -0.03657(9) 0.61854(19) 0.30746(13)
Na1A Na -0.03657(9) 0.88146(19) 0.80746(13)
Na1_2 Na 0.03657(9) 1.38146(19) 0.69254(13)
Na1C Na 0.03657(9) 1.11854(19) 0.19254(13)
Na1_3 Na 1.03657(9) 1.38146(19) 0.69254(13)
Na1C_2 Na 1.03657(9) 1.11854(19) 0.19254(13)
Na1B_3 Na 0.96343(9) 0.61854(19) 0.30746(13)
Na1A_2 Na 0.96343(9) 0.88146(19) 0.80746(13)
S1B S 0.86403(5) 1.11046(11) 0.42759(8)
O1B O 0.92568(16) 1.3075(3) 0.4462(3)
O1B_2 O -0.07432(16) 0.3075(3) 0.4462(3)
O1A O -0.07432(16) 0.1925(3) 0.9462(3)
O1_2 O 1.07432(16) 1.6925(3) 0.5538(3)
O1C O 1.07432(16) 1.8075(3) 0.0538(3)
O2B O 0.89739(16) 0.9651(4) 0.3123(3)
O2_2 O 0.10261(16) 0.0349(4) 0.6877(3)
O2A O -0.10261(16) 0.5349(4) 0.8123(3)
O2B_2 O 0.89739(16) 1.9651(4) 0.3123(3)
O2C O 1.10261(16) 1.4651(4) 0.1877(3)
O3B O 0.85700(16) 1.0049(4) 0.5771(3)
O3C O 0.14300(16) 0.5049(4) 0.9229(3)
O3A O 0.85700(16) 1.4951(4) 0.0771(3)
O4B O 0.48636(13) 1.1098(3) 0.2718(2)
O5B O 0.57804(14) 1.1984(3) 0.0833(2)
O5C O 0.42196(14) 0.6984(3) 0.4167(2)
O5A O 0.57804(14) 1.3016(3) 0.5833(2)
N1B N 0.64039(16) 0.8875(4) 0.4398(3)
H1B H 0.6358 0.7451 0.4164
H2B H 0.6902 0.9057 0.5216
C1B C 0.73896(19) 1.1977(5) 0.3512(3)
H3B H 0.7427 1.2894 0.2605
H4B H 0.7123 1.2852 0.4300
C2B C 0.6646(2) 1.0112(4) 0.3029(3)
H5B H 0.6950 0.9128 0.2328
C3B C 0.5673(2) 1.1137(4) 0.2118(3)
loop_
_geom_bond_atom_site_label_1
_geom_bond_atom_site_label_2
_geom_bond_site_symmetry_1
_geom_bond_site_symmetry_2
Zn1 O4 1_555 1_555
Na1 O1 1_555 1_555
S1 O1 1_555 1_555
O1 Na1B_2 1_555 1_555
O2 S1 1_555 1_555
O3 S1 1_555 1_555
O4 C3 1_555 1_555
O5 C3 1_555 1_555
N1 Zn1 1_555 1_555
H1 N1 1_555 1_555
H2 N1 1_555 1_555
C1 S1 1_555 1_555
H3 C1 1_555 1_555
H4 C1 1_555 1_555
C2 N1 1_555 1_555
H5 C2 1_555 1_555
C3 C2 1_555 1_555
Zn1A O5 1_555 1_555
Zn1A_2 O5B 1_555 1_555
Na1B O1B 1_555 1_555
Na1B_2 O1B_2 1_555 1_555
Na1A O1 1_555 1_555
Na1_2 O2 1_555 1_555
Na1C O3 1_555 1_555
Na1_3 O1B 1_555 1_555
Na1C_2 O1B 1_555 1_555
Na1B_3 O2B 1_555 1_555
Na1A_2 O3B 1_555 1_555
S1B O1B 1_555 1_555
O1B_2 Na1 1_555 1_555
O1A Na1 1_555 1_555
O1_2 Na1B 1_555 1_555
O1C Na1B 1_555 1_555
O2B Na1C_2 1_555 1_555
O2_2 Na1 1_555 1_555
O2A Na1 1_555 1_555
O2B_2 Na1B 1_555 1_555
O2C Na1B 1_555 1_555
O3B S1B 1_555 1_555
O3C Na1 1_555 1_555
O3A Na1B 1_555 1_555
O4B Zn1 1_555 1_555
O5B C3B 1_555 1_555
O5C Zn1 1_555 1_555
O5A Zn1 1_555 1_555
N1B Zn1 1_555 1_555
H1B N1B 1_555 1_555
H2B N1B 1_555 1_555
C1B S1B 1_555 1_555
H3B C1B 1_555 1_555
H4B C1B 1_555 1_555
C2B N1B 1_555 1_555
H5B C2B 1_555 1_555
C3B O4B 1_555 1_555
O2 Na1A 1_555 1_555
C1 C2 1_555 1_555
Na1A O2A 1_555 1_555
Na1_3 O1_2 1_555 1_555
Na1C_2 O2C 1_555 1_555
S1B O2B 1_555 1_555
C1B C2B 1_555 1_555
C2B C3B 1_555 1_555

#END
