
#######################################################################
#
#                 Cambridge Crystallographic Data Centre
#                                CCDC 
#
#######################################################################
#
# If this CIF has been generated from an entry in the Cambridge 
# Structural Database, then it will include bibliographic, chemical, 
# crystal, experimental, refinement or atomic coordinate data resulting 
# from the CCDC's data processing and validation procedures.
#
#######################################################################

data_ACUROF
_symmetry_cell_setting           monoclinic
_symmetry_space_group_name_H-M   'C 2/c'
_symmetry_Int_Tables_number      15
_space_group_name_Hall           '-C 2yn'
loop_
_symmetry_equiv_pos_site_id
_symmetry_equiv_pos_as_xyz
1 x,y,z
2 1/2+x,1/2+y,z
3 x,-y,1/2+z
4 1/2+x,1/2-y,1/2+z
5 -x,-y,-z
6 1/2-x,1/2-y,-z
7 -x,y,1/2-z
8 1/2-x,1/2+y,1/2-z
_cell_length_a                   17.8353(19)
_cell_length_b                   7.5368(8)
_cell_length_c                   17.1661(17)
_cell_angle_alpha                90
_cell_angle_beta                 112.487(2)
_cell_angle_gamma                90
_cell_volume                     2132.04
loop_
_atom_site_label
_atom_site_type_symbol
_atom_site_fract_x
_atom_site_fract_y
_atom_site_fract_z
Cd1 Cd 0.5000 0.20885(8) 0.2500
O1 O 0.4280(2) 0.2540(5) 0.6100(2)
O2 O 0.5000 0.5084(7) 0.2500
H1 H 0.478(9) 0.592(16) 0.205(7)
O3 O 0.5911(2) -0.0144(6) 0.2718(3)
H2 H 0.597(3) -0.118(4) 0.305(2)
H3 H 0.643(3) -0.013(11) 0.268(7)
N1 N 0.5275(3) 0.2311(5) 0.3899(3)
N2 N 0.3421(3) 0.1761(7) 0.4819(3)
H4 H 0.331(4) 0.171(9) 0.431(4)
C1 C 0.6019(4) 0.2661(8) 0.4441(4)
H5 H 0.6441 0.2756 0.4241
C2 C 0.6196(4) 0.2893(8) 0.5293(4)
H6 H 0.6729 0.3137 0.5667
C3 C 0.5579(3) 0.2759(7) 0.5584(3)
H7 H 0.5687 0.2910 0.6160
C4 C 0.4807(3) 0.2404(6) 0.5032(3)
C5 C 0.4677(3) 0.2191(7) 0.4180(3)
H8 H 0.4148 0.1953 0.3792
C6 C 0.4140(3) 0.2240(7) 0.5352(3)
C7 C 0.2710(3) 0.1627(9) 0.5040(4)
H9 H 0.2879 0.1199 0.5621
H10 H 0.2331 0.0760 0.4669
C7E C 0.2290(3) 0.3373(9) 0.4960(4)
N2E N 0.1579(3) 0.3239(7) 0.5181(3)
H4E H 0.169(4) 0.329(9) 0.569(4)
C6E C 0.0860(3) 0.2760(7) 0.4648(3)
O1E O 0.0720(2) 0.2460(5) 0.3900(2)
C4E C 0.0193(3) 0.2596(6) 0.4968(3)
C3E C -0.0579(3) 0.2241(7) 0.4416(3)
C2E C -0.1196(4) 0.2107(8) 0.4707(4)
C1E C -0.1019(4) 0.2339(8) 0.5559(4)
N1E N -0.0275(3) 0.2689(5) 0.6101(3)
C5E C 0.0323(3) 0.2809(7) 0.5820(3)
H8E H 0.0852 0.3047 0.6208
H5E H -0.1441 0.2244 0.5759
H6E H -0.1729 0.1863 0.4333
H7E H -0.0687 0.2090 0.3840
H9E H 0.2121 0.3801 0.4379
H10E H 0.2669 0.4240 0.5331
H1F H 0.522(9) 0.592(16) 0.295(7)
O3F O 0.4089(2) -0.0144(6) 0.2282(3)
H2F H 0.403(3) -0.118(4) 0.195(2)
H3F H 0.357(3) -0.013(11) 0.232(7)
N1F N 0.4725(3) 0.2311(5) 0.1101(3)
Cd1C Cd 0.0000 0.29115(8) 0.7500
Cl1 Cl 0.70928(7) 0.47008(17) 0.26897(7)
O4 O 0.6733(3) 0.6301(6) 0.2821(3)
O5 O 0.6946(2) 0.4501(6) 0.1826(2)
O6 O 0.6752(3) 0.3206(6) 0.2955(3)
O7 O 0.7953(2) 0.4760(7) 0.3156(2)
loop_
_geom_bond_atom_site_label_1
_geom_bond_atom_site_label_2
_geom_bond_site_symmetry_1
_geom_bond_site_symmetry_2
Cd1 O2 1_555 1_555
O1 C6 1_555 1_555
O2 H1 1_555 1_555
O3 Cd1 1_555 1_555
H2 O3 1_555 1_555
H3 O3 1_555 1_555
N1 Cd1 1_555 1_555
N2 H4 1_555 1_555
C1 N1 1_555 1_555
H5 C1 1_555 1_555
C2 C1 1_555 1_555
H6 C2 1_555 1_555
C3 C2 1_555 1_555
H7 C3 1_555 1_555
C4 C3 1_555 1_555
C5 N1 1_555 1_555
H8 C5 1_555 1_555
C6 N2 1_555 1_555
C7 N2 1_555 1_555
H9 C7 1_555 1_555
H10 C7 1_555 1_555
Cl1 O4 1_555 1_555
O5 Cl1 1_555 1_555
O6 Cl1 1_555 1_555
O7 Cl1 1_555 1_555
C7E C7 1_555 1_555
N2E C7E 1_555 1_555
H4E N2E 1_555 1_555
C6E N2E 1_555 1_555
O1E C6E 1_555 1_555
C4E C6E 1_555 1_555
C3E C4E 1_555 1_555
C2E C3E 1_555 1_555
C1E C2E 1_555 1_555
N1E C1E 1_555 1_555
C5E C4E 1_555 1_555
H8E C5E 1_555 1_555
H5E C1E 1_555 1_555
H6E C2E 1_555 1_555
H7E C3E 1_555 1_555
H9E C7E 1_555 1_555
H10E C7E 1_555 1_555
H1F O2 1_555 1_555
O3F Cd1 1_555 1_555
H2F O3F 1_555 1_555
H3F O3F 1_555 1_555
N1F Cd1 1_555 1_555
Cd1C N1E 1_555 1_555
C4 C6 1_555 1_555
C4 C5 1_555 1_555
N1E C5E 1_555 1_555

#END
