
#######################################################################
#
#                 Cambridge Crystallographic Data Centre
#                                CCDC 
#
#######################################################################
#
# If this CIF has been generated from an entry in the Cambridge 
# Structural Database, then it will include bibliographic, chemical, 
# crystal, experimental, refinement or atomic coordinate data resulting 
# from the CCDC's data processing and validation procedures.
#
#######################################################################

data_ACURIZ
_symmetry_cell_setting           triclinic
_symmetry_space_group_name_H-M   'P -1'
_symmetry_Int_Tables_number      2
_space_group_name_Hall           '-P 1'
loop_
_symmetry_equiv_pos_site_id
_symmetry_equiv_pos_as_xyz
1 x,y,z
2 -x,-y,-z
_cell_length_a                   7.8536(2)
_cell_length_b                   12.2091(3)
_cell_length_c                   12.3860(2)
_cell_angle_alpha                64.587(1)
_cell_angle_beta                 77.101(1)
_cell_angle_gamma                80.065(1)
_cell_volume                     1041.67
loop_
_atom_site_label
_atom_site_type_symbol
_atom_site_fract_x
_atom_site_fract_y
_atom_site_fract_z
Cl1 Cl -0.69716(13) -0.82832(10) 0.20629(9)
O4 O -0.5998(6) -0.8245(6) 0.2869(5)
O5 O -0.8727(5) -0.8551(4) 0.2652(4)
O6 O -0.6160(4) -0.9165(4) 0.1593(4)
O7 O -0.7115(8) -0.7132(4) 0.1049(5)
O8 O -0.4390(5) -0.2080(3) 0.1944(3)
H17 H -0.407(8) -0.283(3) 0.211(5)
H18 H -0.504(7) -0.217(5) 0.261(4)
Zn1 Zn 0.0000 0.0000 0.0000
O1 O -0.2647(4) -0.0329(3) 0.0103(3)
H1 H -0.331(8) -0.084(5) 0.065(4)
H2 H -0.283(7) -0.044(5) -0.050(4)
O2 O -0.2863(4) -0.4347(3) 0.1845(3)
O3 O -0.3315(5) -0.7731(4) 0.5978(3)
N1 N 0.0966(4) -0.1948(3) 0.0399(3)
N2 N 0.0533(4) -0.9521(3) 0.8076(3)
N3 N -0.0972(5) -0.5936(3) 0.1763(3)
H3 H 0.0095 -0.6195 0.1578
N4 N -0.1652(4) -0.7776(3) 0.4286(3)
H4 H -0.0655 -0.7995 0.3946
C1 C 0.2655(5) -0.2395(4) 0.0474(4)
H5 H 0.3504 -0.1852 0.0229
C2 C 0.3168(6) -0.3622(4) 0.0898(5)
H6 H 0.4343 -0.3897 0.0932
C3 C 0.1913(6) -0.4446(4) 0.1278(5)
H7 H 0.2236 -0.5279 0.1575
C4 C 0.0174(5) -0.4008(4) 0.1205(4)
C5 C -0.0213(5) -0.2757(4) 0.0747(3)
H8 H -0.1374 -0.2458 0.0676
C6 C -0.1343(5) -0.4771(4) 0.1627(4)
C7 C -0.2347(5) -0.6774(4) 0.2218(3)
H9 H -0.1883 -0.7497 0.2072
H10 H -0.3309 -0.6388 0.1769
C8 C 0.2107(5) -0.9852(4) 0.7553(4)
H11 H 0.2960 -1.0273 0.8034
C9 C 0.2509(6) -0.9595(5) 0.6331(4)
H12 H 0.3617 -0.9828 0.5998
C10 C 0.1243(6) -0.8985(5) 0.5608(4)
H13 H 0.1486 -0.8809 0.4783
C11 C -0.0394(5) -0.8640(3) 0.6132(3)
C12 C -0.0685(5) -0.8918(3) 0.7366(3)
H14 H -0.1774 -0.8677 0.7717
C13 C -0.1906(5) -0.8014(4) 0.5464(3)
C14 C -0.3046(5) -0.7150(4) 0.3566(4)
H15 H -0.3972 -0.7683 0.3812
H16 H -0.3541 -0.6432 0.3715
O1A O 0.2647(4) 0.0329(3) -0.0103(3)
H1A H 0.331(8) 0.084(5) -0.065(4)
H2A H 0.283(7) 0.044(5) 0.050(4)
O2A O 0.2863(4) 0.4347(3) -0.1845(3)
O3A O 0.3315(5) 0.7731(4) -0.5978(3)
N1A N -0.0966(4) 0.1948(3) -0.0399(3)
N2A N -0.0533(4) 0.9521(3) -0.8076(3)
N3A N 0.0972(5) 0.5936(3) -0.1763(3)
H3A H -0.0095 0.6195 -0.1578
N4A N 0.1652(4) 0.7776(3) -0.4286(3)
H4A H 0.0655 0.7995 -0.3946
C1A C -0.2655(5) 0.2395(4) -0.0474(4)
H5A H -0.3504 0.1852 -0.0229
C2A C -0.3168(6) 0.3622(4) -0.0898(5)
H6A H -0.4343 0.3897 -0.0932
C3A C -0.1913(6) 0.4446(4) -0.1278(5)
H7A H -0.2236 0.5279 -0.1575
C4A C -0.0174(5) 0.4008(4) -0.1205(4)
C5A C 0.0213(5) 0.2757(4) -0.0747(3)
H8A H 0.1374 0.2458 -0.0676
C6A C 0.1343(5) 0.4771(4) -0.1627(4)
C7A C 0.2347(5) 0.6774(4) -0.2218(3)
H9A H 0.1883 0.7497 -0.2072
H10A H 0.3309 0.6388 -0.1769
C8A C -0.2107(5) 0.9852(4) -0.7553(4)
H11A H -0.2960 1.0273 -0.8034
C9A C -0.2509(6) 0.9595(5) -0.6331(4)
H12A H -0.3617 0.9828 -0.5998
C10A C -0.1243(6) 0.8985(5) -0.5608(4)
H13A H -0.1486 0.8809 -0.4783
C11A C 0.0394(5) 0.8640(3) -0.6132(3)
C12A C 0.0685(5) 0.8918(3) -0.7366(3)
H14A H 0.1774 0.8677 -0.7717
C13A C 0.1906(5) 0.8014(4) -0.5464(3)
C14A C 0.3046(5) 0.7150(4) -0.3566(4)
H15A H 0.3972 0.7683 -0.3812
H16A H 0.3541 0.6432 -0.3715
N2_2 N 0.0533(4) 0.0479(3) -0.1924(3)
N2A_2 N -0.0533(4) -0.0479(3) 0.1924(3)
Zn1_2 Zn 0.0000 -1.0000 1.0000
Zn1_3 Zn 0.0000 1.0000 -1.0000
N5? N 0.271(2) -0.578(2) 0.499(2)
C15? C 0.150(3) -0.541(2) 0.514(3)
C16? C 0.004(3) -0.4659(16) 0.512(3)
H19? H -0.0957 -0.5128 0.5533
H20? H -0.0104 -0.4159 0.4294
H21? H 0.0120 -0.4151 0.5517
loop_
_geom_bond_atom_site_label_1
_geom_bond_atom_site_label_2
_geom_bond_site_symmetry_1
_geom_bond_site_symmetry_2
Zn1 O1 1_555 1_555
O1 H1 1_555 1_555
H2 O1 1_555 1_555
O2 C6 1_555 1_555
O3 C13 1_555 1_555
N1 Zn1 1_555 1_555
N2 C8 1_555 1_555
N3 H3 1_555 1_555
N4 H4 1_555 1_555
C1 N1 1_555 1_555
H5 C1 1_555 1_555
C2 C1 1_555 1_555
H6 C2 1_555 1_555
C3 C2 1_555 1_555
H7 C3 1_555 1_555
C4 C3 1_555 1_555
C5 N1 1_555 1_555
H8 C5 1_555 1_555
C6 N3 1_555 1_555
C7 N3 1_555 1_555
H9 C7 1_555 1_555
H10 C7 1_555 1_555
C8 H11 1_555 1_555
C9 C8 1_555 1_555
H12 C9 1_555 1_555
C10 C9 1_555 1_555
H13 C10 1_555 1_555
C11 C10 1_555 1_555
C12 N2 1_555 1_555
H14 C12 1_555 1_555
C13 N4 1_555 1_555
C14 N4 1_555 1_555
H15 C14 1_555 1_555
H16 C14 1_555 1_555
Cl1 O4 1_555 1_555
O5 Cl1 1_555 1_555
O6 Cl1 1_555 1_555
O7 Cl1 1_555 1_555
O8 H17 1_555 1_555
H18 O8 1_555 1_555
O1A Zn1 1_555 1_555
H1A O1A 1_555 1_555
H2A O1A 1_555 1_555
O2A C6A 1_555 1_555
O3A C13A 1_555 1_555
N1A Zn1 1_555 1_555
N2A C8A 1_555 1_555
N3A H3A 1_555 1_555
N4A H4A 1_555 1_555
C1A N1A 1_555 1_555
H5A C1A 1_555 1_555
C2A C1A 1_555 1_555
H6A C2A 1_555 1_555
C3A C2A 1_555 1_555
H7A C3A 1_555 1_555
C4A C3A 1_555 1_555
C5A N1A 1_555 1_555
H8A C5A 1_555 1_555
C6A N3A 1_555 1_555
C7A N3A 1_555 1_555
H9A C7A 1_555 1_555
H10A C7A 1_555 1_555
C8A H11A 1_555 1_555
C9A C8A 1_555 1_555
H12A C9A 1_555 1_555
C10A C9A 1_555 1_555
H13A C10A 1_555 1_555
C11A C10A 1_555 1_555
C12A N2A 1_555 1_555
H14A C12A 1_555 1_555
C13A N4A 1_555 1_555
C14A N4A 1_555 1_555
H15A C14A 1_555 1_555
H16A C14A 1_555 1_555
N2_2 Zn1 1_555 1_555
N2A_2 Zn1 1_555 1_555
Zn1_2 N2 1_555 1_555
Zn1_3 N2A 1_555 1_555
C4 C6 1_555 1_555
C4 C5 1_555 1_555
C7 C14 1_555 1_555
C11 C13 1_555 1_555
C11 C12 1_555 1_555
C4A C6A 1_555 1_555
C4A C5A 1_555 1_555
C7A C14A 1_555 1_555
C11A C13A 1_555 1_555
C11A C12A 1_555 1_555

#END
