
#######################################################################
#
#                 Cambridge Crystallographic Data Centre
#                                CCDC 
#
#######################################################################
#
# If this CIF has been generated from an entry in the Cambridge 
# Structural Database, then it will include bibliographic, chemical, 
# crystal, experimental, refinement or atomic coordinate data resulting 
# from the CCDC's data processing and validation procedures.
#
#######################################################################

data_ACUREV
_symmetry_cell_setting           triclinic
_symmetry_space_group_name_H-M   'P -1'
_symmetry_Int_Tables_number      2
_space_group_name_Hall           '-P 1'
loop_
_symmetry_equiv_pos_site_id
_symmetry_equiv_pos_as_xyz
1 x,y,z
2 -x,-y,-z
_cell_length_a                   9.0861(1)
_cell_length_b                   9.5617(1)
_cell_length_c                   10.1841(1)
_cell_angle_alpha                92.612(1)
_cell_angle_beta                 98.041(1)
_cell_angle_gamma                97.386(1)
_cell_volume                     866.99
loop_
_atom_site_label
_atom_site_type_symbol
_atom_site_fract_x
_atom_site_fract_y
_atom_site_fract_z
Ag1 Ag 0.52950(3) 0.26904(2) 0.496114(19)
O1 O 0.7076(2) -0.18595(17) 0.93514(19)
O2 O 0.2944(2) 0.68769(17) 0.03505(19)
N1 N 0.4812(2) 0.1064(2) 0.6297(2)
N2 N 0.8061(2) 0.0442(2) 0.9522(2)
H1 H 0.7933 0.1283 0.9309
N3 N 0.5540(3) 0.4251(2) 0.3518(2)
N4 N 0.1963(2) 0.4611(2) 0.0488(2)
H2 H 0.2094 0.3813 0.0811
C1 C 0.3435(3) 0.0331(3) 0.6271(3)
H3 H 0.2648 0.0543 0.5659
C2 C 0.3156(3) -0.0717(3) 0.7117(3)
H4 H 0.2193 -0.1202 0.7072
C3 C 0.4308(3) -0.1051(3) 0.8037(3)
H5 H 0.4140 -0.1767 0.8609
C4 C 0.5727(3) -0.0283(2) 0.8083(2)
C5 C 0.5930(3) 0.0751(2) 0.7197(2)
H6 H 0.6882 0.1252 0.7225
C6 C 0.7014(3) -0.0640(2) 0.9044(2)
C7 C 0.9416(3) 0.0230(3) 1.0399(3)
H7 H 0.9168 -0.0485 1.1008
H8 H 0.9824 0.1103 1.0919
C8 C 0.4332(3) 0.4461(2) 0.2663(2)
H9 H 0.3419 0.3911 0.2701
C9 C 0.4396(3) 0.5468(2) 0.1725(2)
C10 C 0.5756(3) 0.6308(3) 0.1689(3)
H10 H 0.5831 0.7009 0.1089
C11 C 0.6994(3) 0.6078(3) 0.2565(3)
H11 H 0.7917 0.6622 0.2553
C12 C 0.6861(3) 0.5051(3) 0.3448(3)
H12 H 0.7709 0.4897 0.4019
C13 C 0.3032(3) 0.5710(2) 0.0799(2)
C14 C 0.0573(3) 0.4725(3) -0.0386(3)
H13 H 0.0162 0.3804 -0.0815
H14 H 0.0785 0.5360 -0.1073
C7A C 1.0584(3) -0.0230(3) 0.9601(3)
N2A N 1.1939(2) -0.0442(2) 1.0478(2)
H1A H 1.2067 -0.1283 1.0691
C6A C 1.2986(3) 0.0640(2) 1.0956(2)
O1A O 1.2924(2) 0.18595(17) 1.06486(19)
C4A C 1.4273(3) 0.0283(2) 1.1917(2)
C3A C 1.5692(3) 0.1051(3) 1.1963(3)
C2A C 1.6844(3) 0.0717(3) 1.2883(3)
C1A C 1.6565(3) -0.0331(3) 1.3729(3)
N1A N 1.5188(2) -0.1064(2) 1.3703(2)
C5A C 1.4070(3) -0.0751(2) 1.2803(2)
H6A H 1.3118 -0.1252 1.2775
H3A H 1.7352 -0.0543 1.4341
H4A H 1.7807 0.1202 1.2928
H5A H 1.5860 0.1767 1.1391
H7A H 1.0832 0.0485 0.8992
H8A H 1.0176 -0.1103 0.9081
C14A C -0.0573(3) 0.5275(3) 0.0386(3)
N4A N -0.1963(2) 0.5389(2) -0.0488(2)
H2A H -0.2094 0.6187 -0.0811
C13A C -0.3032(3) 0.4290(2) -0.0799(2)
O2A O -0.2944(2) 0.31231(17) -0.03505(19)
C9A C -0.4396(3) 0.4532(2) -0.1725(2)
C8A C -0.4332(3) 0.5539(2) -0.2663(2)
N3A N -0.5540(3) 0.5749(2) -0.3518(2)
C12A C -0.6861(3) 0.4949(3) -0.3448(3)
C11A C -0.6994(3) 0.3922(3) -0.2565(3)
C10A C -0.5756(3) 0.3692(3) -0.1689(3)
H10A H -0.5831 0.2991 -0.1089
H11A H -0.7917 0.3378 -0.2553
H12A H -0.7709 0.5103 -0.4019
H9A H -0.3419 0.6089 -0.2701
H13A H -0.0162 0.6196 0.0815
H14A H -0.0785 0.4640 0.1073
Ag1A Ag 1.47050(3) -0.26904(2) 1.503886(19)
Ag1A_2 Ag -0.52950(3) 0.73096(2) -0.496114(19)
N3A_2 N 1.4460(3) -0.4251(2) 1.6482(2)
O3 O 0.8234(3) 0.3468(4) 0.6315(3)
H15 H 0.870(4) 0.426(3) 0.622(4)
H16 H 0.892(4) 0.295(4) 0.624(4)
N5 N 0.9124(3) 0.7450(3) 0.6044(4)
O4 O 0.9729(4) 0.7997(5) 0.5055(4)
O5 O 0.8089(5) 0.8009(6) 0.6366(5)
O6 O 0.9601(7) 0.6393(6) 0.6406(8)
O10 O 1.0302(12) 0.8872(12) 0.3565(11)
O7? O 0.954(2) 0.6881(17) 0.6984(16)
O8? O 0.7877(15) 0.7184(17) 0.5726(16)
O9? O 0.9427(17) 0.8679(14) 0.6244(16)
loop_
_geom_bond_atom_site_label_1
_geom_bond_atom_site_label_2
_geom_bond_site_symmetry_1
_geom_bond_site_symmetry_2
Ag1 N1 1_555 1_555
O1 C6 1_555 1_555
O2 C13 1_555 1_555
N1 C1 1_555 1_555
N2 H1 1_555 1_555
N3 Ag1 1_555 1_555
N4 H2 1_555 1_555
C1 H3 1_555 1_555
C2 C1 1_555 1_555
H4 C2 1_555 1_555
C3 C2 1_555 1_555
H5 C3 1_555 1_555
C4 C3 1_555 1_555
C5 N1 1_555 1_555
H6 C5 1_555 1_555
C6 N2 1_555 1_555
C7 N2 1_555 1_555
H7 C7 1_555 1_555
H8 C7 1_555 1_555
C8 N3 1_555 1_555
H9 C8 1_555 1_555
C9 C8 1_555 1_555
C10 C9 1_555 1_555
H10 C10 1_555 1_555
C11 C10 1_555 1_555
H11 C11 1_555 1_555
C12 N3 1_555 1_555
H12 C12 1_555 1_555
C13 N4 1_555 1_555
C14 N4 1_555 1_555
H13 C14 1_555 1_555
H14 C14 1_555 1_555
O3 H15 1_555 1_555
H16 O3 1_555 1_555
N5 O4 1_555 1_555
O5 N5 1_555 1_555
O6 N5 1_555 1_555
C7A C7 1_555 1_555
N2A C7A 1_555 1_555
H1A N2A 1_555 1_555
C6A N2A 1_555 1_555
O1A C6A 1_555 1_555
C4A C6A 1_555 1_555
C3A C4A 1_555 1_555
C2A C3A 1_555 1_555
C1A C2A 1_555 1_555
N1A C1A 1_555 1_555
C5A C4A 1_555 1_555
H6A C5A 1_555 1_555
H3A C1A 1_555 1_555
H4A C2A 1_555 1_555
H5A C3A 1_555 1_555
H7A C7A 1_555 1_555
H8A C7A 1_555 1_555
C14A C14 1_555 1_555
N4A C14A 1_555 1_555
H2A N4A 1_555 1_555
C13A N4A 1_555 1_555
O2A C13A 1_555 1_555
C9A C13A 1_555 1_555
C8A C9A 1_555 1_555
N3A C8A 1_555 1_555
C12A N3A 1_555 1_555
C11A C12A 1_555 1_555
C10A C9A 1_555 1_555
H10A C10A 1_555 1_555
H11A C11A 1_555 1_555
H12A C12A 1_555 1_555
H9A C8A 1_555 1_555
H13A C14A 1_555 1_555
H14A C14A 1_555 1_555
Ag1A N1A 1_555 1_555
Ag1A_2 N3A 1_555 1_555
N3A_2 Ag1A 1_555 1_555
C4 C6 1_555 1_555
C4 C5 1_555 1_555
C9 C13 1_555 1_555
C11 C12 1_555 1_555
N1A C5A 1_555 1_555
C11A C10A 1_555 1_555

#END
