
#######################################################################
#
#                 Cambridge Crystallographic Data Centre
#                                CCDC 
#
#######################################################################
#
# If this CIF has been generated from an entry in the Cambridge 
# Structural Database, then it will include bibliographic, chemical, 
# crystal, experimental, refinement or atomic coordinate data resulting 
# from the CCDC's data processing and validation procedures.
#
#######################################################################

data_ACUWIE
_symmetry_cell_setting           orthorhombic
_symmetry_space_group_name_H-M   'P 21 21 21'
_symmetry_Int_Tables_number      19
_space_group_name_Hall           'P 2ac 2ab'
loop_
_symmetry_equiv_pos_site_id
_symmetry_equiv_pos_as_xyz
1 x,y,z
2 1/2-x,-y,1/2+z
3 1/2+x,1/2-y,-z
4 -x,1/2+y,1/2-z
_cell_length_a                   10.448(6)
_cell_length_b                   11.215(3)
_cell_length_c                   16.851(3)
_cell_angle_alpha                90
_cell_angle_beta                 90
_cell_angle_gamma                90
_cell_volume                     1974.5
loop_
_atom_site_label
_atom_site_type_symbol
_atom_site_fract_x
_atom_site_fract_y
_atom_site_fract_z
Cu1 Cu 0.9039(3) 0.5547(2) 0.36721(15)
Br1 Br 0.9176(3) 0.6854(2) 0.47874(13)
Br2 Br 0.7537(3) 0.4175(2) 0.42618(14)
N1 N 0.9258(18) 0.4247(15) 0.2054(9)
N2 N 0.8566(16) 0.4920(14) 0.2575(9)
C1 C 0.744(2) 0.5228(17) 0.2203(11)
C2 C 0.744(2) 0.4759(17) 0.1445(13)
C3 C 0.856(2) 0.415(2) 0.1375(14)
C4 C 1.034(2) 0.3575(18) 0.2311(12)
C5 C 0.648(2) 0.593(2) 0.2626(13)
O1 O 0.5629(16) 0.6473(13) 0.2125(9)
C6 C 0.609(3) 0.742(2) 0.1661(13)
O2 O 0.7167(15) 0.6804(14) 0.3088(8)
C7 C 0.633(2) 0.737(2) 0.3659(17)
N3 N 0.901(2) 0.1817(15) 0.2461(9)
N4 N 0.925(2) 0.1171(14) 0.1749(9)
C8 C 0.812(2) 0.084(2) 0.1493(12)
C9 C 0.714(3) 0.123(2) 0.1974(14)
C10 C 0.775(3) 0.179(2) 0.2561(16)
C11 C 1.003(2) 0.253(2) 0.2831(13)
C12 C 0.803(2) 0.014(2) 0.0731(14)
O3 O 0.8999(15) -0.0742(13) 0.0779(9)
C13 C 0.924(3) -0.131(2) 0.0037(16)
O4 O 0.6822(16) -0.0387(15) 0.0706(11)
C14 C 0.613(3) -0.036(3) -0.0053(18)
H1 H 0.67940 0.48503 0.10526
H2 H 0.88164 0.37109 0.09154
H3 H 0.62399 0.11251 0.19060
H4 H 0.73257 0.21380 0.30070
H5 H 0.60116 0.54270 0.29758
H6 H 0.81600 0.06456 0.02784
H7 H 1.07774 0.32856 0.18562
H8 H 1.08914 0.40904 0.26015
H9 H 0.97457 0.28090 0.33332
H10 H 1.07659 0.20494 0.28954
H11 H 0.64038 0.80162 0.20121
H12 H 0.67802 0.71245 0.13482
H13 H 0.55064 0.77980 0.13081
H14 H 0.56472 0.77478 0.33848
H15 H 0.59886 0.67718 0.40019
H16 H 0.67845 0.79357 0.39613
H17 H 0.84822 -0.16778 -0.01431
H18 H 0.95134 -0.07249 -0.03339
H19 H 0.98964 -0.19043 0.00735
H20 H 0.60365 0.04477 -0.01994
H21 H 0.66599 -0.07575 -0.04334
H22 H 0.53183 -0.07267 -0.00668
N4C N 1.075(2) 0.6171(14) 0.3251(9)
O3C O 1.1001(15) 0.4258(13) 0.4221(9)
Cu1C Cu 1.0961(3) 0.0547(2) 0.13279(15)
loop_
_geom_bond_atom_site_label_1
_geom_bond_atom_site_label_2
_geom_bond_site_symmetry_1
_geom_bond_site_symmetry_2
Cu1 Br1 1_555 1_555
Br2 Cu1 1_555 1_555
N1 N2 1_555 1_555
N2 Cu1 1_555 1_555
C1 N2 1_555 1_555
C2 C1 1_555 1_555
C3 N1 1_555 1_555
C4 N1 1_555 1_555
C5 C1 1_555 1_555
O1 C5 1_555 1_555
C6 O1 1_555 1_555
O2 Cu1 1_555 1_555
C7 O2 1_555 1_555
N3 N4 1_555 1_555
N4 C8 1_555 1_555
C8 C9 1_555 1_555
C9 C10 1_555 1_555
C10 N3 1_555 1_555
C11 C4 1_555 1_555
C12 C8 1_555 1_555
O3 C12 1_555 1_555
C13 O3 1_555 1_555
O4 C12 1_555 1_555
C14 O4 1_555 1_555
H1 C2 1_555 1_555
H2 C3 1_555 1_555
H3 C9 1_555 1_555
H4 C10 1_555 1_555
H5 C5 1_555 1_555
H6 C12 1_555 1_555
H7 C4 1_555 1_555
H8 C4 1_555 1_555
H9 C11 1_555 1_555
H10 C11 1_555 1_555
H11 C6 1_555 1_555
H12 C6 1_555 1_555
H13 C6 1_555 1_555
H14 C7 1_555 1_555
H15 C7 1_555 1_555
H16 C7 1_555 1_555
H17 C13 1_555 1_555
H18 C13 1_555 1_555
H19 C13 1_555 1_555
H20 C14 1_555 1_555
H21 C14 1_555 1_555
H22 C14 1_555 1_555
N4C Cu1 1_555 1_555
O3C Cu1 1_555 1_555
Cu1C N4 1_555 1_555
C2 C3 1_555 1_555
C5 O2 1_555 1_555
N3 C11 1_555 1_555
O3 Cu1C 1_555 1_555

#END
