
#######################################################################
#
#                 Cambridge Crystallographic Data Centre
#                                CCDC 
#
#######################################################################
#
# If this CIF has been generated from an entry in the Cambridge 
# Structural Database, then it will include bibliographic, chemical, 
# crystal, experimental, refinement or atomic coordinate data resulting 
# from the CCDC's data processing and validation procedures.
#
#######################################################################

data_ACUWEA
_symmetry_cell_setting           monoclinic
_symmetry_space_group_name_H-M   'P 21/n'
_symmetry_Int_Tables_number      14
_space_group_name_Hall           '-P 2yn'
loop_
_symmetry_equiv_pos_site_id
_symmetry_equiv_pos_as_xyz
1 x,y,z
2 1/2+x,1/2-y,1/2+z
3 -x,-y,-z
4 1/2-x,1/2+y,1/2-z
_cell_length_a                   12.788(5)
_cell_length_b                   7.523(2)
_cell_length_c                   9.691(4)
_cell_angle_alpha                90
_cell_angle_beta                 93.76(5)
_cell_angle_gamma                90
_cell_volume                     930.307
loop_
_atom_site_label
_atom_site_type_symbol
_atom_site_fract_x
_atom_site_fract_y
_atom_site_fract_z
Cu1 Cu 0.50000 0.50000 0.50000
Cl1 Cl 0.49301(8) 0.62044(15) 0.71235(11)
N1 N 0.6020(2) 0.8515(4) 0.4352(4)
N2 N 0.6127(2) 0.6731(4) 0.4558(3)
C1 C 0.7142(3) 0.6383(5) 0.4463(4)
C2 C 0.7686(3) 0.7935(6) 0.4200(5)
C3 C 0.6956(3) 0.9236(6) 0.4150(6)
C4 C 0.5020(3) 0.9419(5) 0.4362(5)
C5 C 0.7514(3) 0.4479(5) 0.4560(5)
O1 O 0.8604(2) 0.4545(4) 0.4672(4)
C6 C 0.9096(4) 0.2882(7) 0.4417(7)
O2 O 0.7063(2) 0.3545(4) 0.5632(3)
C7 C 0.7436(5) 0.4119(9) 0.6991(6)
H1 H 0.841(3) 0.795(6) 0.404(4)
H2 H 0.695(3) 1.019(6) 0.401(5)
H3 H 0.452(3) 0.867(6) 0.436(5)
H4 H 0.492(3) 1.015(6) 0.354(5)
H5 H 0.725(3) 0.383(6) 0.371(4)
H6 H 0.983(3) 0.249(6) 0.453(4)
H7 H 0.892(3) 0.232(6) 0.351(5)
H8 H 0.879(4) 0.181(9) 0.495(6)
H9 H 0.706(3) 0.367(6) 0.765(5)
H10 H 0.816(4) 0.384(8) 0.727(6)
H11 H 0.729(5) 0.554(9) 0.717(6)
C4B C 0.4980(3) 1.0581(5) 0.5638(5)
N1B N 0.3980(2) 1.1485(4) 0.5648(4)
N2B N 0.3873(2) 1.3269(4) 0.5442(3)
C1B C 0.2858(3) 1.3617(5) 0.5537(4)
C2B C 0.2314(3) 1.2065(6) 0.5800(5)
C3B C 0.3044(3) 1.0764(6) 0.5850(6)
H2B H 0.305(3) 0.981(6) 0.599(5)
H1B H 0.159(3) 1.205(6) 0.596(4)
C5B C 0.2486(3) 1.5521(5) 0.5440(5)
O1B O 0.1396(2) 1.5455(4) 0.5328(4)
C6B C 0.0904(4) 1.7118(7) 0.5583(7)
H6B H 0.017(3) 1.751(6) 0.547(4)
H7B H 0.108(3) 1.768(6) 0.649(5)
H8B H 0.121(4) 1.819(9) 0.505(6)
O2B O 0.2937(2) 1.6455(4) 0.4368(3)
C7B C 0.2564(5) 1.5881(9) 0.3009(6)
H9B H 0.294(3) 1.633(6) 0.235(5)
H10B H 0.184(4) 1.616(8) 0.273(6)
H11B H 0.271(5) 1.446(9) 0.283(6)
H5B H 0.275(3) 1.617(6) 0.629(4)
H3B H 0.548(3) 1.133(6) 0.564(5)
H4B H 0.508(3) 0.985(6) 0.646(5)
Cl1B Cl 0.50699(8) 0.37956(15) 0.28765(11)
N2B_2 N 0.3873(2) 0.3269(4) 0.5442(3)
O2B_2 O 0.2937(2) 0.6455(4) 0.4368(3)
Cu1_2 Cu 0.50000 1.50000 0.50000
loop_
_geom_bond_atom_site_label_1
_geom_bond_atom_site_label_2
_geom_bond_site_symmetry_1
_geom_bond_site_symmetry_2
Cu1 Cl1 1_555 1_555
N1 N2 1_555 1_555
N2 Cu1 1_555 1_555
C1 N2 1_555 1_555
C2 C1 1_555 1_555
C3 N1 1_555 1_555
C4 N1 1_555 1_555
C5 C1 1_555 1_555
O1 C5 1_555 1_555
C6 O1 1_555 1_555
O2 Cu1 1_555 1_555
C7 O2 1_555 1_555
H1 C2 1_555 1_555
H2 C3 1_555 1_555
H3 C4 1_555 1_555
H4 C4 1_555 1_555
H5 C5 1_555 1_555
H6 C6 1_555 1_555
H7 C6 1_555 1_555
H8 C6 1_555 1_555
H9 C7 1_555 1_555
H10 C7 1_555 1_555
H11 C7 1_555 1_555
C4B C4 1_555 1_555
N1B C4B 1_555 1_555
N2B N1B 1_555 1_555
C1B N2B 1_555 1_555
C2B C1B 1_555 1_555
C3B N1B 1_555 1_555
H2B C3B 1_555 1_555
H1B C2B 1_555 1_555
C5B C1B 1_555 1_555
O1B C5B 1_555 1_555
C6B O1B 1_555 1_555
H6B C6B 1_555 1_555
H7B C6B 1_555 1_555
H8B C6B 1_555 1_555
O2B C5B 1_555 1_555
C7B O2B 1_555 1_555
H9B C7B 1_555 1_555
H10B C7B 1_555 1_555
H11B C7B 1_555 1_555
H5B C5B 1_555 1_555
H3B C4B 1_555 1_555
H4B C4B 1_555 1_555
Cl1B Cu1 1_555 1_555
N2B_2 Cu1 1_555 1_555
O2B_2 Cu1 1_555 1_555
Cu1_2 N2B 1_555 1_555
C2 C3 1_555 1_555
C5 O2 1_555 1_555
C2B C3B 1_555 1_555
O2B Cu1_2 1_555 1_555

#END
