
#######################################################################
#
#                 Cambridge Crystallographic Data Centre
#                                CCDC 
#
#######################################################################
#
# If this CIF has been generated from an entry in the Cambridge 
# Structural Database, then it will include bibliographic, chemical, 
# crystal, experimental, refinement or atomic coordinate data resulting 
# from the CCDC's data processing and validation procedures.
#
#######################################################################

data_ACUXAY
_symmetry_cell_setting           orthorhombic
_symmetry_space_group_name_H-M   'P b c n'
_symmetry_Int_Tables_number      60
_space_group_name_Hall           '-P 2n 2ab'
loop_
_symmetry_equiv_pos_site_id
_symmetry_equiv_pos_as_xyz
1 x,y,z
2 1/2-x,1/2-y,1/2+z
3 -x,y,1/2-z
4 1/2+x,1/2-y,-z
5 -x,-y,-z
6 1/2+x,1/2+y,1/2-z
7 x,-y,1/2+z
8 1/2-x,1/2+y,z
_cell_length_a                   9.386
_cell_length_b                   7.351
_cell_length_c                   23.3442(17)
_cell_angle_alpha                90
_cell_angle_beta                 90
_cell_angle_gamma                90
_cell_volume                     1610.67
loop_
_atom_site_label
_atom_site_type_symbol
_atom_site_fract_x
_atom_site_fract_y
_atom_site_fract_z
Mn1 Mn 0.00214(4) 0.34952(6) -0.442560(19)
Mn2 Mn -0.5000 0.39825(9) -0.2500
O1 O -0.1500(2) 0.1632(3) -0.48423(8)
O2 O -0.3757(2) 0.0723(3) -0.48255(8)
O3 O -0.4060(2) 0.0669(3) -0.10482(9)
O4 O -0.3900(2) 0.2169(4) -0.18678(10)
O5 O -1.1315(3) 0.1077(3) -0.07204(11)
O6 O -0.3941(3) 0.6203(4) -0.20205(15)
N1 N -0.1602(2) 0.2928(3) -0.37620(10)
N2 N -0.3398(3) 0.3231(3) -0.31343(10)
C1 C -0.2684(3) 0.1473(4) -0.45912(12)
C2 C -0.2814(3) 0.2197(4) -0.40019(11)
C3 C -0.3924(3) 0.2366(4) -0.36113(12)
C4 C -0.4578(3) 0.1693(4) -0.14297(12)
C5 C -0.7979(3) 0.3514(4) -0.17553(12)
H1 H -0.863(3) 0.407(4) -0.2032(14)
H2 H -1.123(5) 0.034(7) -0.0509(19)
H3 H -1.211(6) 0.107(7) -0.088(2)
H4 H -0.417(7) 0.619(9) -0.181(3)
H5 H -0.308(6) 0.647(7) -0.201(2)
Mn1C Mn -0.49786(4) 0.15048(6) -0.557440(19)
Mn1G Mn -0.50214(4) -0.15048(6) -0.442560(19)
Mn1A Mn -0.50214(4) 0.15048(6) 0.057440(19)
Mn1E Mn -0.49786(4) -0.15048(6) -0.057440(19)
Mn1B Mn -1.00214(4) 0.34952(6) -0.057440(19)
O1B O -0.8500(2) 0.1632(3) -0.01577(8)
O2G O -0.1243(2) 0.5723(3) -0.48255(8)
O2C O 0.1243(2) 0.4277(3) -0.51745(8)
O2B O -0.6243(2) 0.0723(3) -0.01745(8)
O2E O -0.8757(2) 0.5723(3) -0.01745(8)
O2A O -1.1243(2) 0.4277(3) 0.01745(8)
O3E O 0.0940(2) 0.5669(3) -0.39518(9)
O3B O -0.5940(2) 0.0669(3) -0.39518(9)
O3G O -1.0940(2) 0.5669(3) -0.10482(9)
O4B O -0.6100(2) 0.2169(4) -0.31322(10)
O5B O 0.1315(3) 0.1077(3) -0.42796(11)
O6B O -0.6059(3) 0.6203(4) -0.29795(15)
N1B N -0.8398(2) 0.2928(3) -0.12380(10)
N2B N -0.6602(3) 0.3231(3) -0.18657(10)
C1B C -0.7316(3) 0.1473(4) -0.04088(12)
C2B C -0.7186(3) 0.2197(4) -0.09981(11)
C3B C -0.6076(3) 0.2366(4) -0.13887(12)
C4B C -0.5422(3) 0.1693(4) -0.35703(12)
C5B C -0.2021(3) 0.3514(4) -0.32447(12)
H1B H -0.137(3) 0.407(4) -0.2968(14)
H2B H 0.123(5) 0.034(7) -0.4491(19)
H3B H 0.211(6) 0.107(7) -0.412(2)
H4B H -0.583(7) 0.619(9) -0.319(3)
H5B H -0.692(6) 0.647(7) -0.299(2)
loop_
_geom_bond_atom_site_label_1
_geom_bond_atom_site_label_2
_geom_bond_site_symmetry_1
_geom_bond_site_symmetry_2
Mn1 O1 1_555 1_555
Mn2 O4 1_555 1_555
O1 C1 1_555 1_555
O2 C1 1_555 1_555
O3 C4 1_555 1_555
O4 C4 1_555 1_555
O5 H2 1_555 1_555
O6 Mn2 1_555 1_555
N1 Mn1 1_555 1_555
N2 Mn2 1_555 1_555
C1 C2 1_555 1_555
C2 N1 1_555 1_555
C3 N2 1_555 1_555
C4 C3B 1_555 1_555
C5 H1 1_555 1_555
H3 O5 1_555 1_555
H4 O6 1_555 1_555
H5 O6 1_555 1_555
Mn1C O2 1_555 1_555
Mn1G O2 1_555 1_555
Mn1A O2B 1_555 1_555
Mn1E O3 1_555 1_555
Mn1B O5 1_555 1_555
O1B Mn1B 1_555 1_555
O2G Mn1 1_555 1_555
O2C Mn1 1_555 1_555
O2B Mn1E 1_555 1_555
O2E Mn1B 1_555 1_555
O2A Mn1B 1_555 1_555
O3E Mn1 1_555 1_555
O3B Mn1G 1_555 1_555
O3G Mn1B 1_555 1_555
O4B Mn2 1_555 1_555
O5B Mn1 1_555 1_555
O6B Mn2 1_555 1_555
N1B C5 1_555 1_555
N2B Mn2 1_555 1_555
C1B O1B 1_555 1_555
C2B N1B 1_555 1_555
C3B N2B 1_555 1_555
C4B C3 1_555 1_555
C5B N1 1_555 1_555
H1B C5B 1_555 1_555
H2B O5B 1_555 1_555
H3B O5B 1_555 1_555
H4B O6B 1_555 1_555
H5B O6B 1_555 1_555
N2 C5B 1_555 1_555
C2 C3 1_555 1_555
C5 N2B 1_555 1_555
Mn1B N1B 1_555 1_555
O2B C1B 1_555 1_555
O3B C4B 1_555 1_555
O4B C4B 1_555 1_555
C1B C2B 1_555 1_555
C2B C3B 1_555 1_555

#END
