
#######################################################################
#
#                 Cambridge Crystallographic Data Centre
#                                CCDC 
#
#######################################################################
#
# If this CIF has been generated from an entry in the Cambridge 
# Structural Database, then it will include bibliographic, chemical, 
# crystal, experimental, refinement or atomic coordinate data resulting 
# from the CCDC's data processing and validation procedures.
#
#######################################################################

data_ADABUE
_symmetry_cell_setting           monoclinic
_symmetry_space_group_name_H-M   'C 2/c'
_symmetry_Int_Tables_number      15
_space_group_name_Hall           '-C 2yn'
loop_
_symmetry_equiv_pos_site_id
_symmetry_equiv_pos_as_xyz
1 x,y,z
2 -x,y,1/2-z
3 1/2+x,1/2+y,z
4 1/2-x,1/2+y,1/2-z
5 -x,-y,-z
6 x,-y,1/2+z
7 1/2-x,1/2-y,-z
8 1/2+x,1/2-y,1/2+z
_cell_length_a                   28.612(2)
_cell_length_b                   9.3899(7)
_cell_length_c                   9.2741(8)
_cell_angle_alpha                90
_cell_angle_beta                 92.657(10)
_cell_angle_gamma                90
_cell_volume                     2488.94
loop_
_atom_site_label
_atom_site_type_symbol
_atom_site_fract_x
_atom_site_fract_y
_atom_site_fract_z
Cu1 Cu 0.30754(3) 0.66933(7) 0.12004(7)
C1 C 0.3806(2) 0.9883(8) -0.1022(9)
H1 H 0.3730 1.0774 -0.1431
C2 C 0.3473(2) 0.9111(7) -0.0368(8)
H2 H 0.3168 0.9485 -0.0356
C3 C 0.4349(2) 0.8040(7) -0.0426(9)
H3 H 0.4649 0.7635 -0.0434
N1 N 0.35573(18) 0.7845(6) 0.0260(5)
C4 C 0.4261(2) 0.9351(7) -0.1084(7)
C5 C 0.3993(2) 0.7335(7) 0.0238(8)
H4 H 0.4060 0.6460 0.0693
C6 C 0.4632(2) 1.0197(7) -0.1804(9)
H5 H 0.4787 1.0821 -0.1083
H6 H 0.4480 1.0807 -0.2544
C7 C 0.5000 0.9309(11) -0.2500
H7 H 0.4848 0.8700 -0.3224
N2 N 0.27842(18) 0.6061(5) -0.0723(5)
N3 N 0.24377(17) 0.6551(5) -0.1592(5)
N4 N 0.24145(18) 0.5795(5) -0.2797(5)
C8 C 0.2968(2) 0.4981(6) -0.1404(6)
N5 N 0.27503(17) 0.4799(5) -0.2690(5)
C9 C 0.3378(2) 0.4054(6) -0.0992(7)
O1 O 0.34730(16) 0.3184(4) -0.1983(5)
O2 O 0.35748(18) 0.4203(5) 0.0204(5)
Cu1A Cu 0.69246(3) 0.66933(7) -0.62004(7)
Cu1D Cu 0.69246(3) 0.33067(7) -0.12004(7)
Cu1E Cu 0.30754(3) 0.33067(7) -0.37996(7)
Cu1F Cu 0.19246(3) 0.83067(7) -0.12004(7)
Cu1G Cu 0.80754(3) 0.83067(7) -0.37996(7)
C1A C 0.6194(2) 0.9883(8) -0.3978(9)
H1A H 0.6270 1.0774 -0.3569
C2A C 0.6527(2) 0.9111(7) -0.4632(8)
H2A H 0.6832 0.9485 -0.4644
C3A C 0.5651(2) 0.8040(7) -0.4574(9)
H3A H 0.5351 0.7635 -0.4566
N1A N 0.64427(18) 0.7845(6) -0.5260(5)
C4A C 0.5739(2) 0.9351(7) -0.3916(7)
C5A C 0.6007(2) 0.7335(7) -0.5238(8)
H4A H 0.5940 0.6460 -0.5693
C6A C 0.5368(2) 1.0197(7) -0.3196(9)
H5A H 0.5213 1.0821 -0.3917
H6A H 0.5520 1.0807 -0.2456
H7A H 0.5152 0.8700 -0.1776
N2A N 0.72158(18) 0.6061(5) -0.4277(5)
N3A N 0.75623(17) 0.6551(5) -0.3408(5)
N3F N 0.25623(17) 0.8449(5) 0.1592(5)
N3G N 0.74377(17) 0.8449(5) -0.6592(5)
N4A N 0.75855(18) 0.5795(5) -0.2203(5)
C8A C 0.7032(2) 0.4981(6) -0.3596(6)
N5A N 0.72497(17) 0.4799(5) -0.2310(5)
N5D N 0.72497(17) 0.5201(5) -0.7310(5)
N5E N 0.27503(17) 0.5201(5) 0.2310(5)
C9A C 0.6622(2) 0.4054(6) -0.4008(7)
O1A O 0.65270(16) 0.3184(4) -0.3017(5)
O1D O 0.65270(16) 0.6816(4) -0.8017(5)
O1E O 0.34730(16) 0.6816(4) 0.3017(5)
O2A O 0.64252(18) 0.4203(5) -0.5204(5)
O3 O 0.4559(2) 0.3663(9) 0.0145(10)
H8 H 0.4282 0.3875 -0.0065
H9 H 0.4632 0.3898 0.0989
O4 O 0.5000 0.5273(14) 0.2500
H10 H 0.4821 0.4764 0.1996
H10A H 0.5179 0.4764 0.3004
O3A O 0.5441(2) 0.3663(9) 0.4855(10)
H8A H 0.5718 0.3875 0.5065
H9A H 0.5368 0.3898 0.4011
loop_
_geom_bond_atom_site_label_1
_geom_bond_atom_site_label_2
_geom_bond_site_symmetry_1
_geom_bond_site_symmetry_2
Cu1 N1 1_555 1_555
C1 H1 1_555 1_555
C2 C1 1_555 1_555
H2 C2 1_555 1_555
C3 H3 1_555 1_555
N1 C2 1_555 1_555
C4 C1 1_555 1_555
C5 C3 1_555 1_555
H4 C5 1_555 1_555
C6 C4 1_555 1_555
H5 C6 1_555 1_555
H6 C6 1_555 1_555
C7 C6 1_555 1_555
H7 C7 1_555 1_555
N2 Cu1 1_555 1_555
N3 N2 1_555 1_555
N4 N3 1_555 1_555
C8 N2 1_555 1_555
N5 N4 1_555 1_555
C9 C8 1_555 1_555
O1 C9 1_555 1_555
O2 C9 1_555 1_555
O3 H8 1_555 1_555
H9 O3 1_555 1_555
O4 H10 1_555 1_555
Cu1A N1A 1_555 1_555
Cu1D N5A 1_555 1_555
Cu1E N5 1_555 1_555
Cu1F N3 1_555 1_555
Cu1G N3A 1_555 1_555
C1A H1A 1_555 1_555
C2A C1A 1_555 1_555
H2A C2A 1_555 1_555
C3A H3A 1_555 1_555
N1A C2A 1_555 1_555
C4A C1A 1_555 1_555
C5A C3A 1_555 1_555
H4A C5A 1_555 1_555
C6A C7 1_555 1_555
H5A C6A 1_555 1_555
H6A C6A 1_555 1_555
H7A C7 1_555 1_555
N2A Cu1A 1_555 1_555
N3A N2A 1_555 1_555
N3F Cu1 1_555 1_555
N3G Cu1A 1_555 1_555
N4A N3A 1_555 1_555
C8A N2A 1_555 1_555
N5A N4A 1_555 1_555
N5D Cu1A 1_555 1_555
N5E Cu1 1_555 1_555
C9A C8A 1_555 1_555
O1A Cu1D 1_555 1_555
O1D Cu1A 1_555 1_555
O1E Cu1 1_555 1_555
O2A C9A 1_555 1_555
O3A H8A 1_555 1_555
H9A O3A 1_555 1_555
H10A O4 1_555 1_555
C3 C4 1_555 1_555
N1 C5 1_555 1_555
C8 N5 1_555 1_555
O1 Cu1E 1_555 1_555
C3A C4A 1_555 1_555
N1A C5A 1_555 1_555
C4A C6A 1_555 1_555
C8A N5A 1_555 1_555
C9A O1A 1_555 1_555

#END
