
#######################################################################
#
#                 Cambridge Crystallographic Data Centre
#                                CCDC 
#
#######################################################################
#
# If this CIF has been generated from an entry in the Cambridge 
# Structural Database, then it will include bibliographic, chemical, 
# crystal, experimental, refinement or atomic coordinate data resulting 
# from the CCDC's data processing and validation procedures.
#
#######################################################################

data_ADABEO
_symmetry_cell_setting           monoclinic
_symmetry_space_group_name_H-M   'C 2/c'
_symmetry_Int_Tables_number      15
_space_group_name_Hall           '-C 2yn'
loop_
_symmetry_equiv_pos_site_id
_symmetry_equiv_pos_as_xyz
1 x,y,z
2 -x,y,1/2-z
3 1/2+x,1/2+y,z
4 1/2-x,1/2+y,1/2-z
5 -x,-y,-z
6 x,-y,1/2+z
7 1/2-x,1/2-y,-z
8 1/2+x,1/2-y,1/2+z
_cell_length_a                   28.548(6)
_cell_length_b                   9.4032(19)
_cell_length_c                   9.2876(17)
_cell_angle_alpha                90
_cell_angle_beta                 117.043(10)
_cell_angle_gamma                90
_cell_volume                     2220.6
loop_
_atom_site_label
_atom_site_type_symbol
_atom_site_fract_x
_atom_site_fract_y
_atom_site_fract_z
Cu1 Cu 0.1908(6) 0.8245(16) 0.339(2)
O1 O 0.125 0.925 -0.16
O2 O 0.1515(12) 0.814(4) 0.079(2)
N1 N 0.2193(10) 0.957(3) 0.2616(12)
N2 N 0.2578(8) 1.051(3) 0.343(2)
N3 N 0.2584(8) 1.144(2) 0.237(4)
N4 N 0.2211(11) 1.112(2) 0.090(3)
N5 N 0.1318(7) 0.6789(14) 0.315(2)
C1 C 0.1530(4) 0.911(2) -0.0139(3)
C2 C 0.1976(5) 0.9964(17) 0.1079(14)
C3 C 0.0987(10) 0.7255(15) 0.371(3)
C4 C 0.0644(8) 0.639(2) 0.400(3)
C5 C 0.0648(4) 0.4949(18) 0.3684(9)
C6 C 0.0985(5) 0.4430(14) 0.310(2)
C7 C 0.1313(6) 0.5385(14) 0.285(2)
C8 C 0.0286(3) 0.394(2) 0.39717(18)
C9 C 0.00000 0.302(2) 0.25000
H1 H 0.098749 0.825409 0.392677
H2 H 0.041476 0.677491 0.440637
H3 H 0.099202 0.343598 0.287633
H4 H 0.154586 0.502762 0.244666
H5 H 0.004096 0.447135 0.416514
H6 H 0.048518 0.336928 0.487348
H7 H 0.02337 0.24148 0.23773
Cu1C Cu 0.3092(6) 0.3245(16) 0.161(2)
Cu1C_2 Cu 0.3092(6) 1.3245(16) 0.161(2)
Cu1E Cu 0.1908(6) 1.1755(16) -0.161(2)
Cu1A Cu -0.1908(6) 0.8245(16) 0.161(2)
Cu1F Cu 0.3092(6) 0.6755(16) 0.661(2)
O1C O 0.375 0.425 0.66
O2C O 0.3485(12) 0.314(4) 0.421(2)
N1C N 0.2807(10) 0.457(3) 0.2384(12)
N2C N 0.2422(8) 0.551(3) 0.157(2)
N3C N 0.2416(8) 0.644(2) 0.263(4)
N3_2 N 0.2584(8) 0.144(2) 0.237(4)
N4C N 0.2789(11) 0.612(2) 0.410(3)
N4E N 0.2211(11) 0.888(2) 0.590(3)
N4F N 0.2789(11) 0.388(2) -0.090(3)
N5A N -0.1318(7) 0.6789(14) 0.185(2)
N5C N 0.3682(7) 0.1789(14) 0.185(2)
C1C C 0.3470(4) 0.411(2) 0.5139(3)
C2C C 0.3024(5) 0.4964(17) 0.3921(14)
C3A C -0.0987(10) 0.7255(15) 0.129(3)
C4A C -0.0644(8) 0.639(2) 0.100(3)
C5A C -0.0648(4) 0.4949(18) 0.1316(9)
C6A C -0.0985(5) 0.4430(14) 0.190(2)
C7A C -0.1313(6) 0.5385(14) 0.215(2)
C8A C -0.0286(3) 0.394(2) 0.10283(18)
H1A H -0.098749 0.825409 0.107323
H2A H -0.041476 0.677491 0.059363
H3A H -0.099202 0.343598 0.212367
H4A H -0.154586 0.502762 0.255334
H5A H -0.004096 0.447135 0.083486
H6A H -0.048518 0.336928 0.012652
H7A H -0.02337 0.24148 0.26227
O3 O 0.0396(8) 0.964(4) 0.495(4)
C10 C 0.00000 1.00000 0.50000
O3D O -0.0396(8) 1.036(4) 0.505(4)
loop_
_geom_bond_atom_site_label_1
_geom_bond_atom_site_label_2
_geom_bond_site_symmetry_1
_geom_bond_site_symmetry_2
Cu1 O2 1_555 1_555
O1 C1 1_555 1_555
O2 C1 1_555 1_555
N1 Cu1 1_555 1_555
N2 N1 1_555 1_555
N3 N2 1_555 1_555
N4 N3 1_555 1_555
N5 Cu1 1_555 1_555
C1 C2 1_555 1_555
C2 N1 1_555 1_555
C3 N5 1_555 1_555
C4 C3 1_555 1_555
C5 C4 1_555 1_555
C6 C5 1_555 1_555
C7 N5 1_555 1_555
C8 C5 1_555 1_555
C9 C8 1_555 1_555
H1 C3 1_555 1_555
H2 C4 1_555 1_555
H3 C6 1_555 1_555
H4 C7 1_555 1_555
H5 C8 1_555 1_555
H6 C8 1_555 1_555
H7 C9 1_555 1_555
O3 C10 1_555 1_555
C10 O3D 1_555 1_555
Cu1C O2C 1_555 1_555
Cu1C_2 N3 1_555 1_555
Cu1E N4 1_555 1_555
Cu1A N5A 1_555 1_555
Cu1F N4C 1_555 1_555
O1C C1C 1_555 1_555
O2C C1C 1_555 1_555
N1C Cu1C 1_555 1_555
N2C N1C 1_555 1_555
N3C Cu1 1_555 1_555
N3_2 Cu1C 1_555 1_555
N4C N3C 1_555 1_555
N4E Cu1 1_555 1_555
N4F Cu1C 1_555 1_555
N5A C3A 1_555 1_555
N5C Cu1C 1_555 1_555
C1C C2C 1_555 1_555
C2C N1C 1_555 1_555
C3A C4A 1_555 1_555
C4A C5A 1_555 1_555
C5A C6A 1_555 1_555
C6A C7A 1_555 1_555
C7A N5A 1_555 1_555
C8A C9 1_555 1_555
H1A C3A 1_555 1_555
H2A C4A 1_555 1_555
H3A C6A 1_555 1_555
H4A C7A 1_555 1_555
H5A C8A 1_555 1_555
H6A C8A 1_555 1_555
H7A C9 1_555 1_555
N4 C2 1_555 1_555
C6 C7 1_555 1_555
N2C N3C 1_555 1_555
N4C C2C 1_555 1_555
C5A C8A 1_555 1_555

#END
