
#######################################################################
#
#                 Cambridge Crystallographic Data Centre
#                                CCDC 
#
#######################################################################
#
# If this CIF has been generated from an entry in the Cambridge 
# Structural Database, then it will include bibliographic, chemical, 
# crystal, experimental, refinement or atomic coordinate data resulting 
# from the CCDC's data processing and validation procedures.
#
#######################################################################

data_ADADIT
_symmetry_cell_setting           monoclinic
_symmetry_space_group_name_H-M   'P 21/m'
_symmetry_Int_Tables_number      11
_space_group_name_Hall           '-P 2yb'
loop_
_symmetry_equiv_pos_site_id
_symmetry_equiv_pos_as_xyz
1 x,y,z
2 -x,1/2+y,-z
3 -x,-y,-z
4 x,1/2-y,z
_cell_length_a                   7.578(2)
_cell_length_b                   14.588(4)
_cell_length_c                   9.793(3)
_cell_angle_alpha                90
_cell_angle_beta                 110.358(7)
_cell_angle_gamma                90
_cell_volume                     1014.97
loop_
_atom_site_label
_atom_site_type_symbol
_atom_site_fract_x
_atom_site_fract_y
_atom_site_fract_z
Ni1 Ni 0.48716(10) 0.2500 0.25102(8)
N1 N 0.1822(5) 0.4826(2) 0.2890(4)
N2 N 0.2245(6) 0.4562(3) 0.4302(4)
N3 N 0.3348(4) 0.3541(2) 0.3085(4)
N4 N -0.2160(4) 0.4831(2) 0.1989(4)
N5 N -0.2666(5) 0.4563(3) 0.0576(4)
N6 N -0.3632(4) 0.3541(2) 0.1887(4)
N7 N 0.2968(7) 0.2500 0.0314(5)
N8 N 0.1310(7) 0.2500 0.0009(5)
N9 N -0.0326(8) 0.2500 -0.0327(7)
N10 N 0.6756(7) 0.2500 0.4674(6)
N11 N 0.8433(7) 0.2500 0.4973(6)
N12 N 1.0051(8) 0.2500 0.5310(8)
C1 C 0.3140(6) 0.3786(3) 0.4340(5)
H1 H 0.3597 0.3432 0.5179
C2 C 0.2485(5) 0.4211(3) 0.2191(4)
H2 H 0.2360 0.4246 0.1213
C3 C -0.3552(6) 0.3783(3) 0.0566(4)
H3 H -0.4076 0.3430 -0.0268
C4 C -0.2750(5) 0.4220(3) 0.2742(5)
H4 H -0.2567 0.4265 0.3729
C5 C 0.0787(6) 0.5664(3) 0.2339(5)
H5 H 0.0606 0.5727 0.1313
H6 H 0.1522 0.6184 0.2848
C6 C -0.1121(5) 0.5677(3) 0.2530(5)
H7 H -0.0944 0.5751 0.3553
H8 H -0.1846 0.6195 0.2006
Ni1_2 Ni -0.51284(10) 0.2500 0.25102(8)
N1C N 0.1822(5) 0.0174(2) 0.2890(4)
N2C N 0.2245(6) 0.0438(3) 0.4302(4)
N3C N 0.3348(4) 0.1459(2) 0.3085(4)
N4C N -0.2160(4) 0.0169(2) 0.1989(4)
N5C N -0.2666(5) 0.0437(3) 0.0576(4)
N6C N -0.3632(4) 0.1459(2) 0.1887(4)
N6_2 N 0.6368(4) 0.3541(2) 0.1887(4)
N6C_2 N 0.6368(4) 0.1459(2) 0.1887(4)
C1C C 0.3140(6) 0.1214(3) 0.4340(5)
H1C H 0.3597 0.1568 0.5179
C2C C 0.2485(5) 0.0789(3) 0.2191(4)
H2C H 0.2360 0.0754 0.1213
C3C C -0.3552(6) 0.1217(3) 0.0566(4)
H3C H -0.4076 0.1570 -0.0268
C4C C -0.2750(5) 0.0780(3) 0.2742(5)
H4C H -0.2567 0.0735 0.3729
C5C C 0.0787(6) -0.0664(3) 0.2339(5)
H5C H 0.0606 -0.0727 0.1313
H6C H 0.1522 -0.1184 0.2848
C6C C -0.1121(5) -0.0677(3) 0.2530(5)
H7C H -0.0944 -0.0751 0.3553
H8C H -0.1846 -0.1195 0.2006
O1 O 0.5982(7) 0.2500 0.7396(6)
loop_
_geom_bond_atom_site_label_1
_geom_bond_atom_site_label_2
_geom_bond_site_symmetry_1
_geom_bond_site_symmetry_2
Ni1 N3 1_555 1_555
N1 N2 1_555 1_555
N2 C1 1_555 1_555
N3 C1 1_555 1_555
N4 N5 1_555 1_555
N5 C3 1_555 1_555
N6 C3 1_555 1_555
N7 Ni1 1_555 1_555
N8 N7 1_555 1_555
N9 N8 1_555 1_555
N10 Ni1 1_555 1_555
N11 N10 1_555 1_555
N12 N11 1_555 1_555
C1 H1 1_555 1_555
C2 N1 1_555 1_555
H2 C2 1_555 1_555
C3 H3 1_555 1_555
C4 N4 1_555 1_555
H4 C4 1_555 1_555
C5 N1 1_555 1_555
H5 C5 1_555 1_555
H6 C5 1_555 1_555
C6 N4 1_555 1_555
H7 C6 1_555 1_555
H8 C6 1_555 1_555
Ni1_2 N6 1_555 1_555
N1C N2C 1_555 1_555
N2C C1C 1_555 1_555
N3C Ni1 1_555 1_555
N4C N5C 1_555 1_555
N5C C3C 1_555 1_555
N6C Ni1_2 1_555 1_555
N6_2 Ni1 1_555 1_555
N6C_2 Ni1 1_555 1_555
C1C N3C 1_555 1_555
H1C C1C 1_555 1_555
C2C N1C 1_555 1_555
H2C C2C 1_555 1_555
C3C N6C 1_555 1_555
H3C C3C 1_555 1_555
C4C N4C 1_555 1_555
H4C C4C 1_555 1_555
C5C N1C 1_555 1_555
H5C C5C 1_555 1_555
H6C C5C 1_555 1_555
C6C N4C 1_555 1_555
H7C C6C 1_555 1_555
H8C C6C 1_555 1_555
N3 C2 1_555 1_555
N6 C4 1_555 1_555
C5 C6 1_555 1_555
N3C C2C 1_555 1_555
N6C C4C 1_555 1_555
C5C C6C 1_555 1_555

#END
