
#######################################################################
#
#                 Cambridge Crystallographic Data Centre
#                                CCDC 
#
#######################################################################
#
# If this CIF has been generated from an entry in the Cambridge 
# Structural Database, then it will include bibliographic, chemical, 
# crystal, experimental, refinement or atomic coordinate data resulting 
# from the CCDC's data processing and validation procedures.
#
#######################################################################

data_ADADOZ
_symmetry_cell_setting           triclinic
_symmetry_space_group_name_H-M   'P -1'
_symmetry_Int_Tables_number      2
_space_group_name_Hall           '-P 1'
loop_
_symmetry_equiv_pos_site_id
_symmetry_equiv_pos_as_xyz
1 x,y,z
2 -x,-y,-z
_cell_length_a                   8.4098(19)
_cell_length_b                   10.052(2)
_cell_length_c                   11.328(3)
_cell_angle_alpha                97.094(4)
_cell_angle_beta                 99.516(5)
_cell_angle_gamma                95.481(5)
_cell_volume                     930.61
loop_
_atom_site_label
_atom_site_type_symbol
_atom_site_fract_x
_atom_site_fract_y
_atom_site_fract_z
Ag1 Ag 0.21136(2) 0.300351(18) 0.235585(15)
N1 N 0.5755(2) 0.21672(18) 0.54361(16)
N2 N 0.5131(2) 0.32181(19) 0.60052(17)
N3 N 0.3955(2) 0.27455(19) 0.40416(17)
N4 N 0.9062(2) 0.30267(18) 0.51698(15)
N5 N 0.8276(2) 0.39463(19) 0.45782(16)
N6 N 1.0067(2) 0.30709(19) 0.35203(17)
N7 N 0.3210(2) 0.60288(17) 0.00546(16)
N8 N 0.2133(3) 0.51536(19) -0.07855(17)
N9 N 0.2446(2) 0.44209(18) 0.10217(16)
N10 N 0.2237(2) 0.90318(17) 0.01320(16)
N11 N 0.1331(2) 0.85500(19) 0.09099(18)
N12 N 0.1707(2) 1.08185(19) 0.12298(18)
C1 C 0.4054(3) 0.3521(2) 0.5128(2)
H1 H 0.3396 0.4227 0.5245
C2 C 0.5055(3) 0.1907(2) 0.42728(19)
H2 H 0.5307 0.1225 0.3698
C3 C 0.8926(3) 0.3936(2) 0.36007(19)
H3 H 0.8625 0.4488 0.2998
C4 C 1.0105(3) 0.2514(2) 0.45262(19)
H4 H 1.0779 0.1848 0.4754
C5 C 0.7145(3) 0.1632(2) 0.6065(2)
H5 H 0.7352 0.0803 0.5574
H6 H 0.6911 0.1389 0.6845
C6 C 0.8649(3) 0.2669(2) 0.62971(19)
H7 H 0.8447 0.3490 0.6802
H8 H 0.9575 0.2295 0.6748
C7 C 0.1712(3) 0.4209(2) -0.0156(2)
H9 H 0.0955 0.3440 -0.0497
C8 C 0.3390(3) 0.5585(2) 0.11193(19)
H10 H 0.4083 0.6028 0.1837
C9 C 0.1047(3) 0.9657(2) 0.1540(2)
H11 H 0.0425 0.9646 0.2167
C10 C 0.2436(3) 1.0370(2) 0.0331(2)
H12 H 0.3019 1.0930 -0.0108
C11 C 0.3998(3) 0.7243(2) -0.0288(2)
H13 H 0.4662 0.6977 -0.0903
H14 H 0.4738 0.7753 0.0429
C12 C 0.2796(3) 0.8154(2) -0.0792(2)
H15 H 0.3312 0.8718 -0.1314
H16 H 0.1845 0.7586 -0.1305
Ag1_2 Ag 1.21136(2) 0.300351(18) 0.235585(15)
Ag1_3 Ag 0.21136(2) 1.300351(18) 0.235585(15)
N6_2 N 0.0067(2) 0.30709(19) 0.35203(17)
N12_2 N 0.1707(2) 0.08185(19) 0.12298(18)
O1 O 0.4248(2) 0.05832(18) 0.76999(16)
O2 O 0.2410(3) 0.1912(2) 0.78856(18)
O3 O 0.2190(3) 0.0516(2) 0.6255(2)
N13 N 0.2947(2) 0.10084(19) 0.72763(17)
loop_
_geom_bond_atom_site_label_1
_geom_bond_atom_site_label_2
_geom_bond_site_symmetry_1
_geom_bond_site_symmetry_2
Ag1 N3 1_555 1_555
O1 N13 1_555 1_555
O2 N13 1_555 1_555
O3 N13 1_555 1_555
N1 N2 1_555 1_555
N2 C1 1_555 1_555
N3 C1 1_555 1_555
N4 N5 1_555 1_555
N5 C3 1_555 1_555
N6 C3 1_555 1_555
N7 N8 1_555 1_555
N8 C7 1_555 1_555
N9 Ag1 1_555 1_555
N10 N11 1_555 1_555
N11 C9 1_555 1_555
N12 C9 1_555 1_555
C1 H1 1_555 1_555
C2 N1 1_555 1_555
H2 C2 1_555 1_555
C3 H3 1_555 1_555
C4 N4 1_555 1_555
H4 C4 1_555 1_555
C5 N1 1_555 1_555
H5 C5 1_555 1_555
H6 C5 1_555 1_555
C6 N4 1_555 1_555
H7 C6 1_555 1_555
H8 C6 1_555 1_555
C7 N9 1_555 1_555
H9 C7 1_555 1_555
C8 N7 1_555 1_555
H10 C8 1_555 1_555
C9 H11 1_555 1_555
C10 N10 1_555 1_555
H12 C10 1_555 1_555
C11 N7 1_555 1_555
H13 C11 1_555 1_555
H14 C11 1_555 1_555
C12 N10 1_555 1_555
H15 C12 1_555 1_555
H16 C12 1_555 1_555
Ag1_2 N6 1_555 1_555
Ag1_3 N12 1_555 1_555
N6_2 Ag1 1_555 1_555
N12_2 Ag1 1_555 1_555
N3 C2 1_555 1_555
N6 C4 1_555 1_555
N9 C8 1_555 1_555
N12 C10 1_555 1_555
C5 C6 1_555 1_555
C11 C12 1_555 1_555

#END
