
#######################################################################
#
#                 Cambridge Crystallographic Data Centre
#                                CCDC 
#
#######################################################################
#
# If this CIF has been generated from an entry in the Cambridge 
# Structural Database, then it will include bibliographic, chemical, 
# crystal, experimental, refinement or atomic coordinate data resulting 
# from the CCDC's data processing and validation procedures.
#
#######################################################################

data_ADAFAN01
_symmetry_cell_setting           monoclinic
_symmetry_space_group_name_H-M   'P 21/n'
_symmetry_Int_Tables_number      14
_space_group_name_Hall           '-P 2yn'
loop_
_symmetry_equiv_pos_site_id
_symmetry_equiv_pos_as_xyz
1 x,y,z
2 1/2-x,1/2+y,1/2-z
3 -x,-y,-z
4 1/2+x,1/2-y,1/2+z
_cell_length_a                   10.791(3)
_cell_length_b                   13.175(4)
_cell_length_c                   27.063(9)
_cell_angle_alpha                90
_cell_angle_beta                 96.167(7)
_cell_angle_gamma                90
_cell_volume                     3825.32
loop_
_atom_site_label
_atom_site_type_symbol
_atom_site_fract_x
_atom_site_fract_y
_atom_site_fract_z
Zn1 Zn 1.01390(7) 0.06575(6) 0.23837(3)
O1 O 0.9232(4) 0.2096(3) 0.23226(17)
O2 O 0.8348(4) -0.0005(4) 0.24213(16)
N1 N 0.9829(4) 0.0523(4) 0.15840(19)
N2 N 0.8550(5) 0.0205(5) 0.0073(2)
N3 N 0.8326(6) 0.1012(5) -0.0154(2)
N4 N 0.6826(6) 0.0840(6) -0.1642(2)
N5 N 1.0281(5) 0.0778(4) 0.31792(19)
N6 N 1.0442(6) 0.1188(5) 0.4722(2)
N7 N 1.1412(6) 0.1050(5) 0.4967(2)
N8 N 1.1426(8) 0.1572(6) 0.6494(2)
N9 N 1.0896(5) -0.0784(5) 0.2486(2)
N10 N 1.1590(5) -0.2389(5) 0.2864(2)
N11 N 1.3199(5) -0.3562(4) 0.2650(2)
C1 C 0.9749(6) 0.1345(5) 0.1296(3)
C2 C 0.9363(6) 0.1295(6) 0.0790(3)
H1 H 0.9322 0.1876 0.0594
C3 C 0.9045(6) 0.0368(6) 0.0588(3)
C4 C 0.9182(6) -0.0480(6) 0.0873(3)
H2 H 0.9013 -0.1117 0.0733
C5 C 0.9570(6) -0.0384(5) 0.1367(3)
H3 H 0.9659 -0.0967 0.1562
C6 C 0.7829(6) 0.0898(6) -0.0654(3)
C7 C 0.7719(8) 0.1747(6) -0.0942(3)
H4 H 0.7951 0.2374 -0.0805
C8 C 0.7276(8) 0.1682(7) -0.1426(3)
H5 H 0.7287 0.2265 -0.1619
C9 C 0.6911(7) 0.0005(7) -0.1361(3)
H6 H 0.6624 -0.0606 -0.1503
C10 C 0.7406(7) 0.0006(6) -0.0869(3)
H7 H 0.7451 -0.0593 -0.0686
C11 C 0.9276(6) 0.1021(5) 0.3408(3)
H8 H 0.8510 0.1103 0.3219
C12 C 0.9353(6) 0.1152(6) 0.3921(3)
H9 H 0.8649 0.1340 0.4070
C13 C 1.0462(7) 0.1006(5) 0.4205(3)
C14 C 1.1509(6) 0.0783(5) 0.3968(3)
H10 H 1.2288 0.0711 0.4147
C15 C 1.1355(6) 0.0670(5) 0.3453(2)
H11 H 1.2052 0.0510 0.3294
C16 C 1.1366(7) 0.1236(6) 0.5484(3)
C17 C 1.0307(8) 0.1497(6) 0.5691(3)
H12 H 0.9548 0.1545 0.5494
C18 C 1.0382(8) 0.1685(7) 0.6189(3)
H13 H 0.9668 0.1903 0.6322
C19 C 1.2443(8) 0.1268(8) 0.6288(3)
H14 H 1.3181 0.1175 0.6493
C20 C 1.2442(8) 0.1089(7) 0.5794(3)
H15 H 1.3164 0.0870 0.5668
C21 C 1.1272(6) -0.1554(6) 0.2643(2)
C22 C 1.2466(6) -0.2972(5) 0.2723(2)
Zn1A Zn 1.48610(7) 0.56575(6) 0.26163(3)
Zn1A_2 Zn 1.48610(7) -0.43425(6) 0.26163(3)
O1A O 1.5768(4) 0.7096(3) 0.26774(17)
O2A O 1.6652(4) 0.4995(4) 0.25787(16)
N1A N 1.5171(4) 0.5523(4) 0.34160(19)
N2A N 1.6450(5) 0.5205(5) 0.4927(2)
N3A N 1.6674(6) 0.6012(5) 0.5154(2)
N4A N 1.8174(6) 0.5840(6) 0.6642(2)
N5A N 1.4719(5) 0.5778(4) 0.18208(19)
N6A N 1.4558(6) 0.6188(5) 0.0278(2)
N7A N 1.3588(6) 0.6050(5) 0.0033(2)
N8A N 1.3574(8) 0.6572(6) -0.1494(2)
N9A N 1.4104(5) 0.4216(5) 0.2514(2)
N10A N 1.3410(5) 0.2611(5) 0.2136(2)
N11A N 1.1801(5) 0.1438(4) 0.2350(2)
N11_2 N 1.3199(5) 0.6438(4) 0.2650(2)
C1A C 1.5251(6) 0.6345(5) 0.3704(3)
C2A C 1.5637(6) 0.6295(6) 0.4210(3)
H1A H 1.5678 0.6876 0.4406
C3A C 1.5955(6) 0.5368(6) 0.4412(3)
C4A C 1.5818(6) 0.4520(6) 0.4127(3)
H2A H 1.5987 0.3883 0.4267
C5A C 1.5430(6) 0.4616(5) 0.3633(3)
H3A H 1.5341 0.4033 0.3438
C6A C 1.7171(6) 0.5898(6) 0.5654(3)
C7A C 1.7281(8) 0.6747(6) 0.5942(3)
H4A H 1.7049 0.7374 0.5805
C8A C 1.7724(8) 0.6682(7) 0.6426(3)
H5A H 1.7713 0.7265 0.6619
C9A C 1.8089(7) 0.5005(7) 0.6361(3)
H6A H 1.8376 0.4394 0.6503
C10A C 1.7594(7) 0.5006(6) 0.5869(3)
H7A H 1.7549 0.4407 0.5686
C11A C 1.5724(6) 0.6021(5) 0.1592(3)
H8A H 1.6490 0.6103 0.1781
C12A C 1.5647(6) 0.6152(6) 0.1079(3)
H9A H 1.6351 0.6340 0.0930
C13A C 1.4538(7) 0.6006(5) 0.0795(3)
C14A C 1.3491(6) 0.5783(5) 0.1032(3)
H10A H 1.2712 0.5711 0.0853
C15A C 1.3645(6) 0.5670(5) 0.1547(2)
H11A H 1.2948 0.5510 0.1706
C16A C 1.3634(7) 0.6236(6) -0.0484(3)
C17A C 1.4693(8) 0.6497(6) -0.0691(3)
H12A H 1.5452 0.6545 -0.0494
C18A C 1.4618(8) 0.6685(7) -0.1189(3)
H13A H 1.5332 0.6903 -0.1322
C19A C 1.2557(8) 0.6268(8) -0.1288(3)
H14A H 1.1819 0.6175 -0.1493
C20A C 1.2558(8) 0.6089(7) -0.0794(3)
H15A H 1.1836 0.5870 -0.0668
C21A C 1.3728(6) 0.3446(6) 0.2357(2)
C22A C 1.2534(6) 0.2028(5) 0.2277(2)
N12 N 0.7428(7) 0.2506(6) 0.5668(4)
N13 N 0.5143(18) 0.0279(8) 0.5010(10)
C23 C 0.6863(10) 0.1846(10) 0.5935(3)
H16 H 0.6988 0.1900 0.6279
C24 C 0.6110(8) 0.1091(7) 0.5735(4)
H17 H 0.5746 0.0637 0.5939
C25 C 0.5897(8) 0.1008(6) 0.5241(4)
C26 C 0.6481(11) 0.1699(10) 0.4948(4)
H18 H 0.6391 0.1658 0.4603
C27 C 0.7193(9) 0.2438(9) 0.5197(5)
H19 H 0.7533 0.2931 0.5006
N12B N 0.2572(7) -0.2506(6) 0.4332(4)
N13B N 0.4857(18) -0.0279(8) 0.4990(10)
C23B C 0.3137(10) -0.1846(10) 0.4065(3)
H16B H 0.3012 -0.1900 0.3721
C24B C 0.3890(8) -0.1091(7) 0.4265(4)
H17B H 0.4254 -0.0637 0.4061
C25B C 0.4103(8) -0.1008(6) 0.4759(4)
C26B C 0.3519(11) -0.1699(10) 0.5052(4)
H18B H 0.3609 -0.1658 0.5397
C27B C 0.2807(9) -0.2438(9) 0.4803(5)
H19B H 0.2467 -0.2931 0.4994
N14 N 0.3367(6) 0.0098(6) 0.8406(3)
N15 N 0.4885(6) 0.0378(4) 0.9886(2)
C28 C 0.3550(8) -0.0701(7) 0.8691(3)
H20 H 0.3320 -0.1327 0.8551
C29 C 0.4049(7) -0.0692(6) 0.9175(3)
H21 H 0.4159 -0.1287 0.9360
C30 C 0.4386(6) 0.0246(6) 0.9378(3)
C31 C 0.4166(7) 0.1079(7) 0.9091(3)
H22 H 0.4366 0.1717 0.9224
C32 C 0.3665(8) 0.1000(7) 0.8621(4)
H23 H 0.3515 0.1589 0.8435
N14B N 0.6633(6) -0.0098(6) 1.1594(3)
N15B N 0.5115(6) -0.0378(4) 1.0114(2)
C28B C 0.6450(8) 0.0701(7) 1.1309(3)
H20B H 0.6680 0.1327 1.1449
C29B C 0.5951(7) 0.0692(6) 1.0825(3)
H21B H 0.5841 0.1287 1.0640
C30B C 0.5614(6) -0.0246(6) 1.0622(3)
C31B C 0.5834(7) -0.1079(7) 1.0909(3)
H22B H 0.5634 -0.1717 1.0776
C32B C 0.6335(8) -0.1000(7) 1.1379(4)
H23B H 0.6485 -0.1589 1.1565
Cl1 Cl 0.03845(18) 0.36589(16) 0.84294(7)
O3 O 0.0826(11) 0.4230(9) 0.8027(4)
O4 O 0.1416(8) 0.3205(9) 0.8702(4)
O5 O -0.0579(9) 0.3764(9) 0.8728(4)
O6 O -0.0144(10) 0.2830(8) 0.8120(4)
O7 O 0.9442(6) 0.6123(4) 0.7615(2)
O8 O 0.3104(5) 0.7259(5) 0.75449(19)
loop_
_geom_bond_atom_site_label_1
_geom_bond_atom_site_label_2
_geom_bond_site_symmetry_1
_geom_bond_site_symmetry_2
Zn1 O1 1_555 1_555
O2 Zn1 1_555 1_555
N1 Zn1 1_555 1_555
N2 N3 1_555 1_555
N3 C6 1_555 1_555
N4 C8 1_555 1_555
N5 Zn1 1_555 1_555
N6 N7 1_555 1_555
N7 C16 1_555 1_555
N8 C18 1_555 1_555
N9 Zn1 1_555 1_555
N10 C21 1_555 1_555
N11 C22 1_555 1_555
N12 C23 1_555 1_555
N13 C25 1_555 1_555
N14 C28 1_555 1_555
N15 C30 1_555 1_555
C1 N1 1_555 1_555
C2 C1 1_555 1_555
H1 C2 1_555 1_555
C3 N2 1_555 1_555
C4 C3 1_555 1_555
H2 C4 1_555 1_555
C5 N1 1_555 1_555
H3 C5 1_555 1_555
C6 C7 1_555 1_555
C7 H4 1_555 1_555
C8 C7 1_555 1_555
H5 C8 1_555 1_555
C9 N4 1_555 1_555
H6 C9 1_555 1_555
C10 C6 1_555 1_555
H7 C10 1_555 1_555
C11 N5 1_555 1_555
H8 C11 1_555 1_555
C12 C11 1_555 1_555
H9 C12 1_555 1_555
C13 N6 1_555 1_555
C14 C13 1_555 1_555
H10 C14 1_555 1_555
C15 N5 1_555 1_555
H11 C15 1_555 1_555
C16 C17 1_555 1_555
C17 H12 1_555 1_555
C18 C17 1_555 1_555
H13 C18 1_555 1_555
C19 N8 1_555 1_555
H14 C19 1_555 1_555
C20 C16 1_555 1_555
H15 C20 1_555 1_555
C21 N9 1_555 1_555
C22 N10 1_555 1_555
C23 H16 1_555 1_555
C24 C23 1_555 1_555
H17 C24 1_555 1_555
C25 C24 1_555 1_555
C26 C25 1_555 1_555
H18 C26 1_555 1_555
C27 N12 1_555 1_555
H19 C27 1_555 1_555
C28 H20 1_555 1_555
C29 C28 1_555 1_555
H21 C29 1_555 1_555
C30 C29 1_555 1_555
C31 C30 1_555 1_555
H22 C31 1_555 1_555
C32 N14 1_555 1_555
H23 C32 1_555 1_555
Cl1 O3 1_555 1_555
O4 Cl1 1_555 1_555
O5 Cl1 1_555 1_555
O6 Cl1 1_555 1_555
Zn1A O1A 1_555 1_555
Zn1A_2 N11 1_555 1_555
O2A Zn1A 1_555 1_555
N1A Zn1A 1_555 1_555
N2A N3A 1_555 1_555
N3A C6A 1_555 1_555
N4A C8A 1_555 1_555
N5A Zn1A 1_555 1_555
N6A N7A 1_555 1_555
N7A C16A 1_555 1_555
N8A C18A 1_555 1_555
N9A Zn1A 1_555 1_555
N10A C21A 1_555 1_555
N11A Zn1 1_555 1_555
N11_2 Zn1A 1_555 1_555
N12B C23B 1_555 1_555
N13B N13 1_555 1_555
N14B C28B 1_555 1_555
N15B N15 1_555 1_555
C1A N1A 1_555 1_555
C2A C1A 1_555 1_555
H1A C2A 1_555 1_555
C3A N2A 1_555 1_555
C4A C3A 1_555 1_555
H2A C4A 1_555 1_555
C5A N1A 1_555 1_555
H3A C5A 1_555 1_555
C6A C7A 1_555 1_555
C7A H4A 1_555 1_555
C8A C7A 1_555 1_555
H5A C8A 1_555 1_555
C9A N4A 1_555 1_555
H6A C9A 1_555 1_555
C10A C6A 1_555 1_555
H7A C10A 1_555 1_555
C11A N5A 1_555 1_555
H8A C11A 1_555 1_555
C12A C11A 1_555 1_555
H9A C12A 1_555 1_555
C13A N6A 1_555 1_555
C14A C13A 1_555 1_555
H10A C14A 1_555 1_555
C15A N5A 1_555 1_555
H11A C15A 1_555 1_555
C16A C17A 1_555 1_555
C17A H12A 1_555 1_555
C18A C17A 1_555 1_555
H13A C18A 1_555 1_555
C19A N8A 1_555 1_555
H14A C19A 1_555 1_555
C20A C16A 1_555 1_555
H15A C20A 1_555 1_555
C21A N9A 1_555 1_555
C22A N10A 1_555 1_555
C23B H16B 1_555 1_555
C24B C23B 1_555 1_555
H17B C24B 1_555 1_555
C25B N13B 1_555 1_555
C26B C25B 1_555 1_555
H18B C26B 1_555 1_555
C27B N12B 1_555 1_555
H19B C27B 1_555 1_555
C28B H20B 1_555 1_555
C29B C28B 1_555 1_555
H21B C29B 1_555 1_555
C30B N15B 1_555 1_555
C31B C30B 1_555 1_555
H22B C31B 1_555 1_555
C32B N14B 1_555 1_555
H23B C32B 1_555 1_555
C2 C3 1_555 1_555
C4 C5 1_555 1_555
C9 C10 1_555 1_555
C12 C13 1_555 1_555
C14 C15 1_555 1_555
C19 C20 1_555 1_555
C26 C27 1_555 1_555
C31 C32 1_555 1_555
N11A C22A 1_555 1_555
C2A C3A 1_555 1_555
C4A C5A 1_555 1_555
C9A C10A 1_555 1_555
C12A C13A 1_555 1_555
C14A C15A 1_555 1_555
C19A C20A 1_555 1_555
C24B C25B 1_555 1_555
C26B C27B 1_555 1_555
C29B C30B 1_555 1_555
C31B C32B 1_555 1_555

#END
