
#######################################################################
#
#                 Cambridge Crystallographic Data Centre
#                                CCDC 
#
#######################################################################
#
# If this CIF has been generated from an entry in the Cambridge 
# Structural Database, then it will include bibliographic, chemical, 
# crystal, experimental, refinement or atomic coordinate data resulting 
# from the CCDC's data processing and validation procedures.
#
#######################################################################

data_ADAMIC
_symmetry_cell_setting           monoclinic
_symmetry_space_group_name_H-M   'P 21/c'
_symmetry_Int_Tables_number      14
_space_group_name_Hall           '-P 2ybc'
loop_
_symmetry_equiv_pos_site_id
_symmetry_equiv_pos_as_xyz
1 x,y,z
2 -x,1/2+y,1/2-z
3 -x,-y,-z
4 x,1/2-y,1/2+z
_cell_length_a                   7.6403(6)
_cell_length_b                   21.103(2)
_cell_length_c                   9.8015(8)
_cell_angle_alpha                90
_cell_angle_beta                 96.066(4)
_cell_angle_gamma                90
_cell_volume                     1571.48
loop_
_atom_site_label
_atom_site_type_symbol
_atom_site_fract_x
_atom_site_fract_y
_atom_site_fract_z
Cu1 Cu 0.25572(5) 0.116505(16) 0.38925(4)
O1 O -0.0157(3) 0.12012(9) 0.3243(2)
O2 O 0.1738(3) 0.14667(10) 0.1808(2)
O3 O -0.4875(3) 0.35281(10) -0.0934(2)
O4 O -0.6954(3) 0.28397(10) -0.0652(2)
N1 N 0.2932(3) 0.02495(11) 0.3389(3)
N2 N 0.2364(3) 0.09214(12) 0.5893(3)
N3 N 0.2063(4) -0.01806(12) 0.5442(3)
H1 H 0.1701 -0.0525 0.5788
C1 C 0.3437(5) 0.01398(16) 0.2128(3)
H2 H 0.3767 0.0485 0.1623
C2 C 0.3490(5) -0.04477(18) 0.1554(4)
H3 H 0.3862 -0.0503 0.0688
C3 C 0.2970(5) -0.09633(17) 0.2302(4)
H4 H 0.2950 -0.1369 0.1927
C4 C 0.2490(5) -0.08689(15) 0.3588(4)
H5 H 0.2152 -0.1209 0.4103
C5 C 0.2513(4) -0.02532(14) 0.4125(3)
C6 C 0.2359(5) 0.13947(16) 0.6836(3)
H6 H 0.2571 0.1806 0.6558
C7 C 0.2058(5) 0.12964(17) 0.8176(3)
H7 H 0.2095 0.1632 0.8792
C8 C 0.1702(5) 0.06950(18) 0.8587(4)
H8 H 0.1441 0.0620 0.9478
C9 C 0.1734(5) 0.02061(16) 0.7677(3)
H9 H 0.1532 -0.0207 0.7951
C10 C 0.2075(4) 0.03332(14) 0.6320(3)
C11 C -0.1278(4) 0.17673(13) 0.1222(3)
C12 C -0.3020(4) 0.16401(13) 0.1389(3)
H10 H -0.3293 0.1307 0.1950
C13 C -0.4366(4) 0.20061(14) 0.0727(3)
H11 H -0.5535 0.1916 0.0836
C14 C -0.0867(4) 0.22430(13) 0.0333(3)
H12 H 0.0297 0.2311 0.0173
C15 C -0.2198(4) 0.26174(14) -0.0317(3)
H13 H -0.1922 0.2942 -0.0898
C16 C -0.3949(4) 0.25084(13) -0.0102(3)
C17 C 0.0183(4) 0.14511(13) 0.2116(3)
C18 C -0.5348(4) 0.29766(13) -0.0619(3)
Cu1C Cu -0.74428(5) 0.383495(16) -0.11075(4)
O3C O 0.5125(3) 0.14719(10) 0.4066(2)
O4C O 0.3046(3) 0.21603(10) 0.4348(2)
loop_
_geom_bond_atom_site_label_1
_geom_bond_atom_site_label_2
_geom_bond_site_symmetry_1
_geom_bond_site_symmetry_2
Cu1 O1 1_555 1_555
O1 C17 1_555 1_555
O2 Cu1 1_555 1_555
O3 C18 1_555 1_555
O4 C18 1_555 1_555
N1 Cu1 1_555 1_555
N2 Cu1 1_555 1_555
N3 H1 1_555 1_555
C1 N1 1_555 1_555
H2 C1 1_555 1_555
C2 C1 1_555 1_555
H3 C2 1_555 1_555
C3 C2 1_555 1_555
H4 C3 1_555 1_555
C4 C3 1_555 1_555
H5 C4 1_555 1_555
C5 N1 1_555 1_555
C6 N2 1_555 1_555
H6 C6 1_555 1_555
C7 C6 1_555 1_555
H7 C7 1_555 1_555
C8 C7 1_555 1_555
H8 C8 1_555 1_555
C9 C8 1_555 1_555
H9 C9 1_555 1_555
C10 N2 1_555 1_555
C11 C12 1_555 1_555
C12 H10 1_555 1_555
C13 C12 1_555 1_555
H11 C13 1_555 1_555
C14 C11 1_555 1_555
H12 C14 1_555 1_555
C15 C14 1_555 1_555
H13 C15 1_555 1_555
C16 C13 1_555 1_555
C17 O2 1_555 1_555
C18 C16 1_555 1_555
Cu1C O3 1_555 1_555
O3C Cu1 1_555 1_555
O4C Cu1 1_555 1_555
O4 Cu1C 1_555 1_555
N3 C5 1_555 1_555
N3 C10 1_555 1_555
C4 C5 1_555 1_555
C9 C10 1_555 1_555
C11 C17 1_555 1_555
C15 C16 1_555 1_555

#END
