
#######################################################################
#
#                 Cambridge Crystallographic Data Centre
#                                CCDC 
#
#######################################################################
#
# If this CIF has been generated from an entry in the Cambridge 
# Structural Database, then it will include bibliographic, chemical, 
# crystal, experimental, refinement or atomic coordinate data resulting 
# from the CCDC's data processing and validation procedures.
#
#######################################################################

data_ADAPAX
_symmetry_cell_setting           triclinic
_symmetry_space_group_name_H-M   'P -1'
_symmetry_Int_Tables_number      2
_space_group_name_Hall           '-P 1'
loop_
_symmetry_equiv_pos_site_id
_symmetry_equiv_pos_as_xyz
1 x,y,z
2 -x,-y,-z
_cell_length_a                   7.8581(14)
_cell_length_b                   8.4416(19)
_cell_length_c                   7.602(2)
_cell_angle_alpha                108.05(3)
_cell_angle_beta                 93.71(2)
_cell_angle_gamma                70.139(14)
_cell_volume                     450.478
loop_
_atom_site_label
_atom_site_type_symbol
_atom_site_fract_x
_atom_site_fract_y
_atom_site_fract_z
Na1 Na 0.97622(6) 0.64028(6) 0.22505(6)
O1 O 0.79734(12) 0.45813(11) 0.25491(11)
O2 O 1.20465(11) 0.71143(12) 0.08883(11)
O3 O 1.16355(12) 0.35439(11) 0.06391(12)
O4 O 1.00031(12) 1.25870(11) 0.45487(11)
O5 O 1.17059(14) 1.09094(12) 0.19499(12)
C1 C 1.12451(15) 1.12586(13) 0.35943(14)
C2 C 1.23555(14) 0.99274(13) 0.45536(13)
N1 N 1.45674(13) 0.71165(12) 0.43792(13)
N2 N 1.22919(14) 1.04591(12) 0.64078(13)
C3 C 1.34660(13) 0.82399(13) 0.35468(13)
C4 C 1.44973(17) 0.76694(16) 0.62325(16)
C5 C 1.33454(19) 0.93185(16) 0.72379(15)
C6 C 1.35008(14) 0.75012(13) 0.14636(14)
O6 O 1.47951(12) 0.71939(14) 0.04803(12)
H1 H 1.527(2) 0.687(2) 0.685(2)
H2 H 1.335(2) 0.968(2) 0.854(3)
H3 H 1.212(3) 0.659(3) -0.036(3)
H4 H 0.696(3) 0.513(3) 0.308(2)
H5 H 1.165(2) 0.274(3) 0.101(2)
H6 H 0.862(3) 0.393(3) 0.325(3)
H7 H 1.273(3) 0.333(3) 0.036(3)
Na1A Na 1.02378(6) 0.35972(6) -0.22505(6)
Na1A_2 Na 1.02378(6) 1.35972(6) 0.77495(6)
O3A O 0.83645(12) 0.64561(11) -0.06391(12)
O4A O 0.99969(12) 0.74130(11) 0.54513(11)
N2A N 0.77081(14) 0.95409(12) 0.35922(13)
H5A H 0.835(2) 0.726(3) -0.101(2)
H7A H 0.727(3) 0.667(3) -0.036(3)
loop_
_geom_bond_atom_site_label_1
_geom_bond_atom_site_label_2
_geom_bond_site_symmetry_1
_geom_bond_site_symmetry_2
Na1 O1 1_555 1_555
O1 H4 1_555 1_555
O2 Na1 1_555 1_555
O3 Na1 1_555 1_555
O4 C1 1_555 1_555
O5 C1 1_555 1_555
C1 C2 1_555 1_555
C2 N2 1_555 1_555
N1 C3 1_555 1_555
N2 C5 1_555 1_555
C3 C2 1_555 1_555
C4 N1 1_555 1_555
C5 C4 1_555 1_555
C6 O2 1_555 1_555
O6 C6 1_555 1_555
H1 C4 1_555 1_555
H2 C5 1_555 1_555
H3 O2 1_555 1_555
H5 O3 1_555 1_555
H6 O1 1_555 1_555
H7 O3 1_555 1_555
Na1A O3 1_555 1_555
Na1A_2 O4 1_555 1_555
O3A Na1 1_555 1_555
O4A Na1 1_555 1_555
N2A Na1 1_555 1_555
H5A O3A 1_555 1_555
H7A O3A 1_555 1_555
N2 Na1A_2 1_555 1_555
C3 C6 1_555 1_555
Na1A O3A 1_555 1_555

#END
