
#######################################################################
#
#                 Cambridge Crystallographic Data Centre
#                                CCDC 
#
#######################################################################
#
# If this CIF has been generated from an entry in the Cambridge 
# Structural Database, then it will include bibliographic, chemical, 
# crystal, experimental, refinement or atomic coordinate data resulting 
# from the CCDC's data processing and validation procedures.
#
#######################################################################

data_ADAQEB01
_symmetry_cell_setting           tetragonal
_symmetry_space_group_name_H-M   'I 41/a'
_symmetry_Int_Tables_number      88
_space_group_name_Hall           '-I 4ad'
loop_
_symmetry_equiv_pos_site_id
_symmetry_equiv_pos_as_xyz
1 x,y,z
2 3/4-y,1/4+x,1/4+z
3 1/4+y,1/4-x,1/4+z
4 1/2+x,1/2+y,1/2+z
5 1/4-y,3/4+x,3/4+z
6 x,1/2+y,-z
7 1/2+x,y,1/2-z
8 1/4-y,1/4+x,1/4-z
9 -x,-y,-z
10 1/4+y,3/4-x,3/4-z
11 3/4-y,3/4+x,3/4-z
12 1/2-x,1/2-y,1/2-z
13 3/4+y,1/4-x,1/4-z
14 -x,1/2-y,z
15 1/2-x,-y,1/2+z
16 3/4+y,3/4-x,3/4+z
_cell_length_a                   19.253(8)
_cell_length_b                   19.253(8)
_cell_length_c                   22.380(9)
_cell_angle_alpha                90
_cell_angle_beta                 90
_cell_angle_gamma                90
_cell_volume                     8295.77
loop_
_atom_site_label
_atom_site_type_symbol
_atom_site_fract_x
_atom_site_fract_y
_atom_site_fract_z
Cu1 Cu 0.16103(3) 0.49044(3) 0.24405(2)
O1 O 0.16593(16) 0.39407(15) 0.27043(14)
O2 O 0.06535(19) 0.46005(18) 0.19108(15)
O3 O 0.09356(18) 0.51207(18) 0.30904(14)
O4 O 0.15940(18) 0.58746(16) 0.21899(15)
N1 N 0.22735(19) 0.47177(17) 0.17575(15)
N2 N 0.25679(19) 0.4916(2) 0.07441(16)
C1 C 0.1185(2) 0.3487(2) 0.26718(19)
C2 C 0.0557(3) 0.3509(3) 0.2385(2)
C3 C 0.0341(2) 0.4069(3) 0.2026(2)
C4 C 0.1377(3) 0.2812(3) 0.2995(3)
C5 C -0.0394(3) 0.4004(4) 0.1760(3)
C6 C 0.0552(3) 0.5639(3) 0.3093(2)
C7 C 0.0603(3) 0.6227(3) 0.2728(3)
C8 C 0.1132(3) 0.6307(3) 0.2325(2)
C9 C -0.0020(4) 0.5621(4) 0.3559(3)
C10 C 0.1217(4) 0.7004(3) 0.2013(3)
C11 C 0.2200(2) 0.5035(2) 0.12341(18)
C12 C 0.2780(3) 0.4242(2) 0.1789(2)
C13 C 0.3189(3) 0.4091(3) 0.1313(2)
C14 C 0.3067(2) 0.4427(2) 0.0777(2)
C15 C 0.3453(3) 0.4273(3) 0.0224(3)
F1 F 0.1720(2) 0.29227(19) 0.34908(18)
F2 F 0.1769(3) 0.2427(2) 0.2656(2)
F3 F 0.0843(2) 0.24209(19) 0.3137(2)
F4 F -0.0598(2) 0.3362(3) 0.1668(3)
F5 F -0.0845(2) 0.4284(4) 0.2109(3)
F6 F -0.0445(3) 0.4305(3) 0.1243(2)
F7 F -0.0380(2) 0.5056(3) 0.3536(3)
F8 F -0.0453(4) 0.6133(4) 0.3530(3)
F9 F 0.0243(3) 0.5637(4) 0.40901(19)
F10 F 0.0745(3) 0.7437(2) 0.2113(4)
F11 F 0.1807(3) 0.7306(2) 0.2215(2)
F12 F 0.1331(3) 0.6939(2) 0.14370(18)
H1 H 0.033(3) 0.313(3) 0.241(2)
H2 H 0.031(3) 0.655(3) 0.277(2)
H3 H 0.1857 0.5373 0.1209
H4 H 0.2853 0.4009 0.2148
H5 H 0.3545 0.3766 0.1346
H6 H 0.3287 0.4565 -0.0093
H7 H 0.3386 0.3794 0.0117
H8 H 0.3939 0.4358 0.0287
N2A N 0.2584(2) 0.50679(19) 0.32441(16)
Cu1O Cu 0.24044(3) 0.58897(3) -0.00595(2)
loop_
_geom_bond_atom_site_label_1
_geom_bond_atom_site_label_2
_geom_bond_site_symmetry_1
_geom_bond_site_symmetry_2
Cu1 O1 1_555 1_555
O1 C1 1_555 1_555
O2 Cu1 1_555 1_555
O3 Cu1 1_555 1_555
O4 Cu1 1_555 1_555
N1 Cu1 1_555 1_555
N2 C11 1_555 1_555
C1 C2 1_555 1_555
C2 C3 1_555 1_555
C3 O2 1_555 1_555
C4 C1 1_555 1_555
C5 C3 1_555 1_555
C6 O3 1_555 1_555
C7 C6 1_555 1_555
C8 O4 1_555 1_555
C9 C6 1_555 1_555
C10 C8 1_555 1_555
C11 N1 1_555 1_555
C12 N1 1_555 1_555
C13 C12 1_555 1_555
C14 N2 1_555 1_555
C15 C14 1_555 1_555
F1 C4 1_555 1_555
F2 C4 1_555 1_555
F3 C4 1_555 1_555
F4 C5 1_555 1_555
F5 C5 1_555 1_555
F6 C5 1_555 1_555
F7 C9 1_555 1_555
F8 C9 1_555 1_555
F9 C9 1_555 1_555
F10 C10 1_555 1_555
F11 C10 1_555 1_555
F12 C10 1_555 1_555
H1 C2 1_555 1_555
H2 C7 1_555 1_555
H3 C11 1_555 1_555
H4 C12 1_555 1_555
H5 C13 1_555 1_555
H6 C15 1_555 1_555
H7 C15 1_555 1_555
H8 C15 1_555 1_555
N2A Cu1 1_555 1_555
Cu1O N2 1_555 1_555
C7 C8 1_555 1_555
C13 C14 1_555 1_555

#END
