
#######################################################################
#
#                 Cambridge Crystallographic Data Centre
#                                CCDC 
#
#######################################################################
#
# If this CIF has been generated from an entry in the Cambridge 
# Structural Database, then it will include bibliographic, chemical, 
# crystal, experimental, refinement or atomic coordinate data resulting 
# from the CCDC's data processing and validation procedures.
#
#######################################################################

data_ADAQEB
_symmetry_cell_setting           tetragonal
_symmetry_space_group_name_H-M   'I 41/a'
_symmetry_Int_Tables_number      88
_space_group_name_Hall           '-I 4ad'
loop_
_symmetry_equiv_pos_site_id
_symmetry_equiv_pos_as_xyz
1 x,y,z
2 3/4-y,1/4+x,1/4+z
3 1/4+y,1/4-x,1/4+z
4 1/2+x,1/2+y,1/2+z
5 1/4-y,3/4+x,3/4+z
6 x,1/2+y,-z
7 1/2+x,y,1/2-z
8 1/4-y,1/4+x,1/4-z
9 -x,-y,-z
10 1/4+y,3/4-x,3/4-z
11 3/4-y,3/4+x,3/4-z
12 1/2-x,1/2-y,1/2-z
13 3/4+y,1/4-x,1/4-z
14 -x,1/2-y,z
15 1/2-x,-y,1/2+z
16 3/4+y,3/4-x,3/4+z
_cell_length_a                   18.808(2)
_cell_length_b                   18.808(2)
_cell_length_c                   22.182(4)
_cell_angle_alpha                90
_cell_angle_beta                 90
_cell_angle_gamma                90
_cell_volume                     7846.68
loop_
_atom_site_label
_atom_site_type_symbol
_atom_site_fract_x
_atom_site_fract_y
_atom_site_fract_z
Cu1 Cu 0.165144(11) 0.491339(11) 0.239898(9)
O1 O 0.16899(7) 0.39261(6) 0.26740(5)
O2 O 0.06603(7) 0.46044(7) 0.18630(6)
O3 O 0.09565(7) 0.51518(7) 0.30489(6)
O4 O 0.16434(7) 0.59044(6) 0.21318(5)
N1 N 0.23110(8) 0.47014(8) 0.17024(6)
N2 N 0.25769(8) 0.48931(8) 0.06674(6)
C1 C 0.11901(9) 0.34710(9) 0.26592(7)
C2 C 0.05432(10) 0.34902(10) 0.23709(8)
C3 C 0.03331(9) 0.40569(9) 0.19909(8)
C4 C 0.13755(10) 0.27896(9) 0.30065(9)
C5 C -0.04173(11) 0.39911(11) 0.17164(9)
C6 C 0.05739(9) 0.56976(10) 0.30466(8)
C7 C 0.06219(10) 0.62949(10) 0.26731(8)
C8 C 0.11738(9) 0.63540(9) 0.22618(7)
C9 C -0.00037(10) 0.56981(11) 0.35372(8)
C10 C 0.12784(10) 0.70653(10) 0.19348(8)
C11 C 0.22166(10) 0.50274(9) 0.11709(8)
C12 C 0.28219(10) 0.42024(9) 0.17286(8)
C13 C 0.32205(10) 0.40309(10) 0.12276(8)
C14 C 0.30727(9) 0.43758(9) 0.06870(8)
C15 C 0.34291(11) 0.41837(11) 0.01086(9)
F1 F 0.17236(7) 0.29256(7) 0.35145(6)
F2 F 0.17835(9) 0.23680(7) 0.26762(7)
F3 F 0.08035(7) 0.24081(7) 0.31609(7)
F4 F -0.06263(7) 0.33163(7) 0.16416(7)
F5 F -0.08934(7) 0.43029(9) 0.20800(7)
F6 F -0.04611(7) 0.43084(7) 0.11814(6)
F7 F -0.04114(6) 0.51220(7) 0.34990(6)
F8 F -0.04364(7) 0.62626(7) 0.35022(6)
F9 F 0.02917(7) 0.57056(7) 0.40828(5)
F10 F 0.07372(7) 0.75152(6) 0.20103(7)
F11 F 0.18600(6) 0.73852(6) 0.21433(5)
F12 F 0.13678(7) 0.69733(6) 0.13448(5)
H1 H 0.0260(13) 0.3119(13) 0.2431(11)
H2 H 0.0305(11) 0.6666(11) 0.2716(9)
H3 H 0.1839(12) 0.5379(12) 0.1157(10)
H4 H 0.2883(12) 0.3984(12) 0.2103(11)
H5 H 0.3565(14) 0.3686(14) 0.1246(12)
H6 H 0.3737(14) 0.3766(14) 0.0158(11)
H7 H 0.3075(16) 0.4064(15) -0.0176(13)
H8 H 0.3691(16) 0.4574(16) -0.0057(13)
N2A N 0.26069(8) 0.50769(8) 0.31674(6)
Cu1O Cu 0.241339(11) 0.584856(11) -0.010102(9)
loop_
_geom_bond_atom_site_label_1
_geom_bond_atom_site_label_2
_geom_bond_site_symmetry_1
_geom_bond_site_symmetry_2
Cu1 O1 1_555 1_555
O1 C1 1_555 1_555
O2 Cu1 1_555 1_555
O3 Cu1 1_555 1_555
O4 Cu1 1_555 1_555
N1 Cu1 1_555 1_555
N2 C11 1_555 1_555
C1 C2 1_555 1_555
C2 C3 1_555 1_555
C3 O2 1_555 1_555
C4 C1 1_555 1_555
C5 C3 1_555 1_555
C6 O3 1_555 1_555
C7 C6 1_555 1_555
C8 O4 1_555 1_555
C9 C6 1_555 1_555
C10 C8 1_555 1_555
C11 N1 1_555 1_555
C12 N1 1_555 1_555
C13 C12 1_555 1_555
C14 N2 1_555 1_555
C15 C14 1_555 1_555
F1 C4 1_555 1_555
F2 C4 1_555 1_555
F3 C4 1_555 1_555
F4 C5 1_555 1_555
F5 C5 1_555 1_555
F6 C5 1_555 1_555
F7 C9 1_555 1_555
F8 C9 1_555 1_555
F9 C9 1_555 1_555
F10 C10 1_555 1_555
F11 C10 1_555 1_555
F12 C10 1_555 1_555
H1 C2 1_555 1_555
H2 C7 1_555 1_555
H3 C11 1_555 1_555
H4 C12 1_555 1_555
H5 C13 1_555 1_555
H6 C15 1_555 1_555
H7 C15 1_555 1_555
H8 C15 1_555 1_555
N2A Cu1 1_555 1_555
Cu1O N2 1_555 1_555
C7 C8 1_555 1_555
C13 C14 1_555 1_555

#END
