
#######################################################################
#
#                 Cambridge Crystallographic Data Centre
#                                CCDC 
#
#######################################################################
#
# If this CIF has been generated from an entry in the Cambridge 
# Structural Database, then it will include bibliographic, chemical, 
# crystal, experimental, refinement or atomic coordinate data resulting 
# from the CCDC's data processing and validation procedures.
#
#######################################################################

data_ADASOP
_symmetry_cell_setting           tetragonal
_symmetry_space_group_name_H-M   'I 4/m'
_symmetry_Int_Tables_number      87
_space_group_name_Hall           '-I 4'
loop_
_symmetry_equiv_pos_site_id
_symmetry_equiv_pos_as_xyz
1 x,y,z
2 -x,-y,z
3 -y,x,z
4 y,-x,z
5 1/2+x,1/2+y,1/2+z
6 1/2-x,1/2-y,1/2+z
7 1/2-y,1/2+x,1/2+z
8 1/2+y,1/2-x,1/2+z
9 -x,-y,-z
10 x,y,-z
11 y,-x,-z
12 -y,x,-z
13 1/2-x,1/2-y,1/2-z
14 1/2+x,1/2+y,1/2-z
15 1/2+y,1/2-x,1/2-z
16 1/2-y,1/2+x,1/2-z
_cell_length_a                   29.3026(16)
_cell_length_b                   29.3026(16)
_cell_length_c                   41.672(3)
_cell_angle_alpha                90
_cell_angle_beta                 90
_cell_angle_gamma                90
_cell_volume                     35781.3
loop_
_atom_site_label
_atom_site_type_symbol
_atom_site_fract_x
_atom_site_fract_y
_atom_site_fract_z
Zn1 Zn 0.62239(3) 0.35694(3) 0.36641(3)
Zn2 Zn 0.47994(4) 0.23471(4) 0.5000
Zn3 Zn 0.52545(4) -0.13265(3) 0.5000
Zn4 Zn 0.69733(3) -0.32918(3) 0.31580(3)
C1 C 0.6269(3) 0.2600(2) 0.3736(3)
C2 C 0.6162(3) 0.2165(2) 0.3907(2)
C3 C 0.5861(3) 0.2166(2) 0.4167(2)
H1 H 0.5748 0.2448 0.4248
C4 C 0.5722(3) 0.1754(3) 0.4310(2)
C5 C 0.5372(3) 0.1761(3) 0.4562(3)
C6 C 0.5894(4) 0.1353(3) 0.4197(3)
H2 H 0.5813 0.1071 0.4294
C7 C 0.6197(5) 0.1365(3) 0.3930(3)
C8 C 0.6370(3) 0.1777(3) 0.3805(2)
H3 H 0.6619 0.1782 0.3659
C9 C 0.6728(5) 0.0921(3) 0.3618(3)
H4 H 0.7002 0.1091 0.3690
H5 H 0.6611 0.1069 0.3421
C10 C 0.5823(3) -0.1921(3) 0.4546(3)
C11 C 0.6154(3) -0.1932(3) 0.4291(2)
C12 C 0.6263(3) -0.2329(2) 0.4136(2)
H6 H 0.6145 -0.2610 0.4213
C13 C 0.6542(3) -0.2326(3) 0.3871(2)
C14 C 0.6640(3) -0.2755(3) 0.3700(3)
C15 C 0.6730(3) -0.1922(3) 0.3762(2)
H7 H 0.6928 -0.1921 0.3582
C16 C 0.6625(4) -0.1519(3) 0.3921(3)
C17 C 0.6349(3) -0.1521(3) 0.4186(3)
H8 H 0.6290 -0.1245 0.4299
C18 C 0.6657(5) -0.0719(3) 0.3906(3)
H9 H 0.6740 -0.0673 0.4134
H10 H 0.6320 -0.0713 0.3887
C19 C 0.8232(3) -0.0695(3) 0.1875(3)
C20 C 0.8149(3) -0.0257(2) 0.2037(2)
C21 C 0.8289(3) 0.0152(2) 0.1916(2)
H11 H 0.8463 0.0152 0.1724
C22 C 0.8195(3) 0.0553(3) 0.2054(2)
C23 C 0.8340(3) 0.1003(2) 0.1916(3)
C24 C 0.8011(3) 0.0542(3) 0.2356(3)
H12 H 0.7981 0.0817 0.2475
C25 C 0.7870(4) 0.0137(3) 0.2491(3)
C26 C 0.7936(4) -0.0266(3) 0.2334(3)
H13 H 0.7838 -0.0547 0.2426
C27 C 0.7228(4) -0.0111(4) 0.3240(3)
C28 C 0.7116(4) 0.0341(3) 0.3290(3)
H14 H 0.7218 0.0574 0.3148
C29 C 0.7519(5) -0.0216(4) 0.2950(3)
H15 H 0.7782 -0.0406 0.3017
H16 H 0.7336 -0.0395 0.2794
C30 C 0.6726(4) 0.0091(4) 0.3757(3)
H17 H 0.6541 0.0161 0.3937
C31 C 0.6863(5) -0.0347(4) 0.3702(3)
C32 C 0.7085(4) -0.0443(4) 0.3426(3)
H18 H 0.7137 -0.0752 0.3367
C33 C 0.6859(4) 0.0438(4) 0.3543(3)
O1 O 0.52468(19) 0.21333(19) 0.46725(16)
O2 O 0.52406(18) 0.13687(18) 0.46641(15)
O3 O 0.61071(17) 0.29568(17) 0.38569(15)
O4 O 0.65087(19) 0.25700(17) 0.34853(16)
O5 O 0.6389(4) 0.0940(2) 0.3861(2)
O6 O 0.64775(18) -0.31147(17) 0.38141(15)
O7 O 0.68521(19) -0.27317(16) 0.34261(15)
O8 O 0.56822(18) -0.22971(18) 0.46566(15)
O9 O 0.57078(18) -0.15388(18) 0.46715(14)
O10 O 0.6829(3) -0.1141(2) 0.3795(2)
O11 O 0.80658(17) -0.10449(16) 0.19878(14)
O12 O 0.8466(2) -0.06703(17) 0.16066(15)
O13 O 0.8541(2) 0.09771(18) 0.16534(16)
O14 O 0.81866(16) 0.13562(17) 0.20445(13)
O15 O 0.7680(4) 0.0183(2) 0.2800(3)
O16 O 0.5394(2) -0.0654(2) 0.5000
O17 O 0.73920(19) -0.30657(18) 0.28339(17)
O18 O 0.4933(3) 0.3019(2) 0.5000
O19 O 0.6033(2) 0.40335(18) 0.39763(15)
N1 N 0.6399(4) 0.4724(4) 0.4168(4)
C34 C 0.6359(4) 0.4352(4) 0.3991(4)
H19 H 0.6607 0.4301 0.3848
C35 C 0.6734(4) 0.5030(4) 0.4175(4)
H20 H 0.6657 0.5273 0.4327
H21 H 0.6776 0.5160 0.3961
H22 H 0.7017 0.4881 0.4244
C36 C 0.5958(5) 0.4863(7) 0.4335(6)
H23 H 0.6008 0.5147 0.4454
H24 H 0.5865 0.4621 0.4483
H25 H 0.5719 0.4910 0.4174
N2 N 0.7982(3) -0.2923(3) 0.2485(3)
C37 C 0.7731(4) -0.2993(6) 0.2733(3)
H26 H 0.7930 -0.2972 0.2912
C38 C 0.7915(4) -0.3134(5) 0.2188(3)
H27 H 0.8146 -0.3026 0.2036
H28 H 0.7610 -0.3058 0.2107
H29 H 0.7941 -0.3465 0.2213
C39 C 0.8407(4) -0.2672(6) 0.2557(4)
H30 H 0.8580 -0.2626 0.2358
H31 H 0.8591 -0.2848 0.2709
H32 H 0.8331 -0.2375 0.2650
Zn1A Zn 0.37761(3) -0.35694(3) 0.36641(3)
Zn1B Zn 0.64306(3) -0.37761(3) 0.36641(3)
Zn1N Zn 0.85694(3) -0.12239(3) 0.13359(3)
Zn1L Zn 0.87761(3) 0.14306(3) 0.13359(3)
Zn1C Zn 0.35694(3) 0.37761(3) 0.36641(3)
Zn1O Zn 0.14306(3) 0.12239(3) 0.13359(3)
Zn1M Zn 0.12239(3) -0.14306(3) 0.13359(3)
Zn2A Zn 0.52006(4) -0.23471(4) 0.5000
Zn3A Zn 0.47455(4) 0.13265(3) 0.5000
Zn4A Zn 0.30267(3) 0.32918(3) 0.31580(3)
Zn4C Zn 0.67082(3) 0.30267(3) 0.31580(3)
Zn4L Zn 0.80267(3) -0.17082(3) 0.18420(3)
Zn4O Zn 0.82918(3) 0.19733(3) 0.18420(3)
Zn4B Zn 0.32918(3) -0.30267(3) 0.31580(3)
Zn4M Zn 0.19733(3) 0.17082(3) 0.18420(3)
Zn4N Zn 0.17082(3) -0.19733(3) 0.18420(3)
C1A C 0.3731(3) -0.2600(2) 0.3736(3)
C2A C 0.3838(3) -0.2165(2) 0.3907(2)
C3A C 0.4139(3) -0.2166(2) 0.4167(2)
H1A H 0.4252 -0.2448 0.4248
C4A C 0.4278(3) -0.1754(3) 0.4310(2)
C5A C 0.4628(3) -0.1761(3) 0.4562(3)
C6A C 0.4106(4) -0.1353(3) 0.4197(3)
H2A H 0.4187 -0.1071 0.4294
C7A C 0.3803(5) -0.1365(3) 0.3930(3)
C8A C 0.3630(3) -0.1777(3) 0.3805(2)
H3A H 0.3381 -0.1782 0.3659
C9A C 0.3272(5) -0.0921(3) 0.3618(3)
H4A H 0.2998 -0.1091 0.3690
H5A H 0.3389 -0.1069 0.3421
C10A C 0.4177(3) 0.1921(3) 0.4546(3)
C11A C 0.3846(3) 0.1932(3) 0.4291(2)
C12A C 0.3737(3) 0.2329(2) 0.4136(2)
H6A H 0.3855 0.2610 0.4213
C13A C 0.3458(3) 0.2326(3) 0.3871(2)
C14A C 0.3360(3) 0.2755(3) 0.3700(3)
C15A C 0.3270(3) 0.1922(3) 0.3762(2)
H7A H 0.3072 0.1921 0.3582
C16A C 0.3375(4) 0.1519(3) 0.3921(3)
C17A C 0.3651(3) 0.1521(3) 0.4186(3)
H8A H 0.3710 0.1245 0.4299
C18A C 0.3343(5) 0.0719(3) 0.3906(3)
H9A H 0.3260 0.0673 0.4134
H10A H 0.3680 0.0713 0.3887
C19A C 0.1768(3) 0.0695(3) 0.1875(3)
C20A C 0.1851(3) 0.0257(2) 0.2037(2)
C21A C 0.1711(3) -0.0152(2) 0.1916(2)
H11A H 0.1537 -0.0152 0.1724
C22A C 0.1805(3) -0.0553(3) 0.2054(2)
C23A C 0.1660(3) -0.1003(2) 0.1916(3)
C24A C 0.1989(3) -0.0542(3) 0.2356(3)
H12A H 0.2019 -0.0817 0.2475
C25A C 0.2130(4) -0.0137(3) 0.2491(3)
C26A C 0.2064(4) 0.0266(3) 0.2334(3)
H13A H 0.2162 0.0547 0.2426
C27A C 0.2772(4) 0.0111(4) 0.3240(3)
C28A C 0.2884(4) -0.0341(3) 0.3290(3)
H14A H 0.2782 -0.0574 0.3148
C29A C 0.2481(5) 0.0216(4) 0.2950(3)
H15A H 0.2218 0.0406 0.3017
H16A H 0.2664 0.0395 0.2794
C30A C 0.3274(4) -0.0091(4) 0.3757(3)
H17A H 0.3459 -0.0161 0.3937
C31A C 0.3137(5) 0.0347(4) 0.3702(3)
C32A C 0.2915(4) 0.0443(4) 0.3426(3)
H18A H 0.2863 0.0752 0.3367
C33A C 0.3141(4) -0.0438(4) 0.3543(3)
O1A O 0.47532(19) -0.21333(19) 0.46725(16)
O1I O 0.52468(19) 0.21333(19) 0.53275(16)
O2A O 0.47594(18) -0.13687(18) 0.46641(15)
O2H O 0.47594(18) -0.13687(18) 0.53359(15)
O3A O 0.38929(17) -0.29568(17) 0.38569(15)
O4A O 0.34913(19) -0.25700(17) 0.34853(16)
O4B O 0.74300(17) -0.34913(19) 0.34853(16)
O4C O 0.25700(17) 0.34913(19) 0.34853(16)
O5A O 0.3611(4) -0.0940(2) 0.3861(2)
O6A O 0.35225(18) 0.31147(17) 0.38141(15)
O6C O 0.68853(17) 0.35225(18) 0.38141(15)
O6B O 0.31147(17) -0.35225(18) 0.38141(15)
O7A O 0.31479(19) 0.27317(16) 0.34261(15)
O8A O 0.43178(18) 0.22971(18) 0.46566(15)
O8H O 0.43178(18) 0.22971(18) 0.53434(15)
O9A O 0.42922(18) 0.15388(18) 0.46715(14)
O9I O 0.57078(18) -0.15388(18) 0.53285(14)
O10A O 0.3171(3) 0.1141(2) 0.3795(2)
O11A O 0.19342(17) 0.10449(16) 0.19878(14)
O11L O 0.69342(17) -0.39551(16) 0.30122(14)
O11M O 0.30658(17) 0.39551(16) 0.30122(14)
O12A O 0.1534(2) 0.06703(17) 0.16066(15)
O12O O 0.56703(17) 0.3466(2) 0.33934(15)
O12N O 0.43297(17) -0.3466(2) 0.33934(15)
O13A O 0.1459(2) -0.09771(18) 0.16534(16)
O13L O 0.6459(2) 0.40229(18) 0.33466(16)
O13M O 0.3541(2) -0.40229(18) 0.33466(16)
O14A O 0.18134(16) -0.13562(17) 0.20445(13)
O14N O 0.63562(17) -0.31866(16) 0.29555(13)
O14O O 0.36438(17) 0.31866(16) 0.29555(13)
O15A O 0.2320(4) -0.0183(2) 0.2800(3)
O17A O 0.26080(19) 0.30657(18) 0.28339(17)
O19A O 0.3967(2) -0.40335(18) 0.39763(15)
N1A N 0.3601(4) -0.4724(4) 0.4168(4)
C34A C 0.3641(4) -0.4352(4) 0.3991(4)
H19A H 0.3393 -0.4301 0.3848
C35A C 0.3266(4) -0.5030(4) 0.4175(4)
H20A H 0.3343 -0.5273 0.4327
H21A H 0.3224 -0.5160 0.3961
H22A H 0.2983 -0.4881 0.4244
C36A C 0.4042(5) -0.4863(7) 0.4335(6)
H23A H 0.3992 -0.5147 0.4454
H24A H 0.4135 -0.4621 0.4483
H25A H 0.4281 -0.4910 0.4174
N2A N 0.2018(3) 0.2923(3) 0.2485(3)
C37A C 0.2269(4) 0.2993(6) 0.2733(3)
H26A H 0.2070 0.2972 0.2912
C38A C 0.2085(4) 0.3134(5) 0.2188(3)
H27A H 0.1854 0.3026 0.2036
H28A H 0.2390 0.3058 0.2107
H29A H 0.2059 0.3465 0.2213
C39A C 0.1593(4) 0.2672(6) 0.2557(4)
H30A H 0.1420 0.2626 0.2358
H31A H 0.1409 0.2848 0.2709
H32A H 0.1669 0.2375 0.2650
loop_
_geom_bond_atom_site_label_1
_geom_bond_atom_site_label_2
_geom_bond_site_symmetry_1
_geom_bond_site_symmetry_2
Zn1 O3 1_555 1_555
Zn2 O1 1_555 1_555
Zn3 O9 1_555 1_555
Zn4 O7 1_555 1_555
C1 C2 1_555 1_555
C2 C3 1_555 1_555
C3 H1 1_555 1_555
C4 C3 1_555 1_555
C5 C4 1_555 1_555
C6 C4 1_555 1_555
H2 C6 1_555 1_555
C7 C6 1_555 1_555
C8 C2 1_555 1_555
H3 C8 1_555 1_555
C9 H4 1_555 1_555
H5 C9 1_555 1_555
C10 C11 1_555 1_555
C11 C12 1_555 1_555
C12 H6 1_555 1_555
C13 C12 1_555 1_555
C14 C13 1_555 1_555
C15 C13 1_555 1_555
H7 C15 1_555 1_555
C16 C15 1_555 1_555
C17 C11 1_555 1_555
H8 C17 1_555 1_555
C18 H9 1_555 1_555
H10 C18 1_555 1_555
C19 C20 1_555 1_555
C20 C21 1_555 1_555
C21 H11 1_555 1_555
C22 C21 1_555 1_555
C23 C22 1_555 1_555
C24 C22 1_555 1_555
H12 C24 1_555 1_555
C25 C24 1_555 1_555
C26 C20 1_555 1_555
H13 C26 1_555 1_555
C27 C28 1_555 1_555
C28 H14 1_555 1_555
C29 C27 1_555 1_555
H15 C29 1_555 1_555
H16 C29 1_555 1_555
C30 H17 1_555 1_555
C31 C18 1_555 1_555
C32 C27 1_555 1_555
H18 C32 1_555 1_555
C33 C9 1_555 1_555
O1 C5 1_555 1_555
O2 C5 1_555 1_555
O3 C1 1_555 1_555
O4 C1 1_555 1_555
O5 C7 1_555 1_555
O6 C14 1_555 1_555
O7 C14 1_555 1_555
O8 C10 1_555 1_555
O9 C10 1_555 1_555
O10 C16 1_555 1_555
O11 C19 1_555 1_555
O12 C19 1_555 1_555
O13 C23 1_555 1_555
O14 C23 1_555 1_555
O15 C25 1_555 1_555
O16 Zn3 1_555 1_555
O17 Zn4 1_555 1_555
O18 Zn2 1_555 1_555
O19 Zn1 1_555 1_555
N1 C34 1_555 1_555
C34 O19 1_555 1_555
H19 C34 1_555 1_555
C35 N1 1_555 1_555
H20 C35 1_555 1_555
H21 C35 1_555 1_555
H22 C35 1_555 1_555
C36 N1 1_555 1_555
H23 C36 1_555 1_555
H24 C36 1_555 1_555
H25 C36 1_555 1_555
N2 C37 1_555 1_555
C37 O17 1_555 1_555
H26 C37 1_555 1_555
C38 N2 1_555 1_555
H27 C38 1_555 1_555
H28 C38 1_555 1_555
H29 C38 1_555 1_555
C39 N2 1_555 1_555
H30 C39 1_555 1_555
H31 C39 1_555 1_555
H32 C39 1_555 1_555
Zn1A O3A 1_555 1_555
Zn1B O6 1_555 1_555
Zn1N O12 1_555 1_555
Zn1L O13 1_555 1_555
Zn1C O6A 1_555 1_555
Zn1O O12A 1_555 1_555
Zn1M O13A 1_555 1_555
Zn2A O8 1_555 1_555
Zn3A O2 1_555 1_555
Zn4A O4C 1_555 1_555
Zn4C O4 1_555 1_555
Zn4L O11 1_555 1_555
Zn4O O14 1_555 1_555
Zn4B O4A 1_555 1_555
Zn4M O11A 1_555 1_555
Zn4N O14A 1_555 1_555
C1A C2A 1_555 1_555
C2A C3A 1_555 1_555
C3A H1A 1_555 1_555
C4A C3A 1_555 1_555
C5A C4A 1_555 1_555
C6A C4A 1_555 1_555
H2A C6A 1_555 1_555
C7A C6A 1_555 1_555
C8A C2A 1_555 1_555
H3A C8A 1_555 1_555
C9A H4A 1_555 1_555
H5A C9A 1_555 1_555
C10A C11A 1_555 1_555
C11A C12A 1_555 1_555
C12A H6A 1_555 1_555
C13A C12A 1_555 1_555
C14A C13A 1_555 1_555
C15A C13A 1_555 1_555
H7A C15A 1_555 1_555
C16A C15A 1_555 1_555
C17A C11A 1_555 1_555
H8A C17A 1_555 1_555
C18A H9A 1_555 1_555
H10A C18A 1_555 1_555
C19A C20A 1_555 1_555
C20A C21A 1_555 1_555
C21A H11A 1_555 1_555
C22A C21A 1_555 1_555
C23A C22A 1_555 1_555
C24A C22A 1_555 1_555
H12A C24A 1_555 1_555
C25A C24A 1_555 1_555
C26A C20A 1_555 1_555
H13A C26A 1_555 1_555
C27A C28A 1_555 1_555
C28A H14A 1_555 1_555
C29A C27A 1_555 1_555
H15A C29A 1_555 1_555
H16A C29A 1_555 1_555
C30A H17A 1_555 1_555
C31A C18A 1_555 1_555
C32A C27A 1_555 1_555
H18A C32A 1_555 1_555
C33A C9A 1_555 1_555
O1A Zn2A 1_555 1_555
O1I Zn2 1_555 1_555
O2A Zn3 1_555 1_555
O2H Zn3 1_555 1_555
O3A C1A 1_555 1_555
O4A C1A 1_555 1_555
O4B Zn4 1_555 1_555
O5A C7A 1_555 1_555
O6A C14A 1_555 1_555
O6C Zn1 1_555 1_555
O6B Zn1A 1_555 1_555
O7A Zn4A 1_555 1_555
O8A Zn2 1_555 1_555
O8H Zn2 1_555 1_555
O9A Zn3A 1_555 1_555
O9I Zn3 1_555 1_555
O10A C16A 1_555 1_555
O11A C19A 1_555 1_555
O11L Zn4 1_555 1_555
O11M Zn4A 1_555 1_555
O12A C19A 1_555 1_555
O12O Zn1 1_555 1_555
O12N Zn1A 1_555 1_555
O13A C23A 1_555 1_555
O13L Zn1 1_555 1_555
O13M Zn1A 1_555 1_555
O14A C23A 1_555 1_555
O14N Zn4 1_555 1_555
O14O Zn4A 1_555 1_555
O15A C25A 1_555 1_555
O17A Zn4A 1_555 1_555
O19A Zn1A 1_555 1_555
N1A C34A 1_555 1_555
C34A O19A 1_555 1_555
H19A C34A 1_555 1_555
C35A N1A 1_555 1_555
H20A C35A 1_555 1_555
H21A C35A 1_555 1_555
H22A C35A 1_555 1_555
C36A N1A 1_555 1_555
H23A C36A 1_555 1_555
H24A C36A 1_555 1_555
H25A C36A 1_555 1_555
N2A C37A 1_555 1_555
C37A O17A 1_555 1_555
H26A C37A 1_555 1_555
C38A N2A 1_555 1_555
H27A C38A 1_555 1_555
H28A C38A 1_555 1_555
H29A C38A 1_555 1_555
C39A N2A 1_555 1_555
H30A C39A 1_555 1_555
H31A C39A 1_555 1_555
H32A C39A 1_555 1_555
C7 C8 1_555 1_555
C9 O5 1_555 1_555
C16 C17 1_555 1_555
C18 O10 1_555 1_555
C25 C26 1_555 1_555
C28 C33 1_555 1_555
C29 O15 1_555 1_555
C30 C31 1_555 1_555
C30 C33 1_555 1_555
C31 C32 1_555 1_555
C5A O1A 1_555 1_555
C5A O2A 1_555 1_555
C7A C8A 1_555 1_555
C9A O5A 1_555 1_555
C10A O8A 1_555 1_555
C10A O9A 1_555 1_555
C14A O7A 1_555 1_555
C16A C17A 1_555 1_555
C18A O10A 1_555 1_555
C25A C26A 1_555 1_555
C28A C33A 1_555 1_555
C29A O15A 1_555 1_555
C30A C31A 1_555 1_555
C30A C33A 1_555 1_555
C31A C32A 1_555 1_555

#END
