
#######################################################################
#
#                 Cambridge Crystallographic Data Centre
#                                CCDC 
#
#######################################################################
#
# If this CIF has been generated from an entry in the Cambridge 
# Structural Database, then it will include bibliographic, chemical, 
# crystal, experimental, refinement or atomic coordinate data resulting 
# from the CCDC's data processing and validation procedures.
#
#######################################################################

data_ADATOQ
_symmetry_cell_setting           cubic
_symmetry_space_group_name_H-M   'I 21 3'
_symmetry_Int_Tables_number      199
_space_group_name_Hall           'I 2b 2c 3'
loop_
_symmetry_equiv_pos_site_id
_symmetry_equiv_pos_as_xyz
1 x,y,z
2 1/2-x,-y,1/2+z
3 -x,1/2+y,1/2-z
4 1/2+x,1/2-y,-z
5 z,x,y
6 1/2+z,1/2-x,-y
7 1/2-z,-x,1/2+y
8 -z,1/2+x,1/2-y
9 y,z,x
10 -y,1/2+z,1/2-x
11 1/2+y,1/2-z,-x
12 1/2-y,-z,1/2+x
13 1/2+x,1/2+y,1/2+z
14 -x,1/2-y,z
15 1/2-x,y,-z
16 x,-y,1/2-z
17 1/2+z,1/2+x,1/2+y
18 z,-x,1/2-y
19 -z,1/2-x,y
20 1/2-z,x,-y
21 1/2+y,1/2+z,1/2+x
22 1/2-y,z,-x
23 y,-z,1/2-x
24 -y,1/2-z,x
_cell_length_a                   25.6886(2)
_cell_length_b                   25.6886(2)
_cell_length_c                   25.6886(2)
_cell_angle_alpha                90
_cell_angle_beta                 90
_cell_angle_gamma                90
_cell_volume                     16952
loop_
_atom_site_label
_atom_site_type_symbol
_atom_site_fract_x
_atom_site_fract_y
_atom_site_fract_z
C14 C 0.8198(5) -0.1802(5) 0.8198(5)
Cl1 Cl 0.7773(2) -0.2227(2) 0.7773(2)
Cl2 Cl 0.8079(3) -0.1219(2) 0.7953(2)
Cl2D Cl 0.7953(2) -0.1921(3) 0.8781(2)
Cl2H Cl 0.8781(2) -0.2047(2) 0.8079(3)
B1 B 0.79336(19) -0.02705(18) 0.75933(16)
F2 F 0.7530(3) -0.0605(4) 0.7681(5)
F3 F 0.8381(3) -0.0530(5) 0.7711(5)
B1O B 0.79336(19) 0.02705(18) 0.74067(16)
C15 C 0.5412(12) 0.1476(12) 0.9793(4)
C16 C 0.5408(11) 0.1431(13) 1.0354(4)
N5 N 0.5261(8) 0.1288(9) 1.0754(5)
N6 N 0.6792(9) 0.3393(8) 0.6024(5)
C17 C 0.6735(8) 0.3197(8) 0.6420(5)
C18 C 0.6545(11) 0.3036(11) 0.6919(6)
C19 C 0.6041(11) 0.3333(5) 0.6687(7)
O1 O 0.601(2) 0.3872(5) 0.6677(18)
O2 O 0.5885(15) 0.3115(14) 0.7160(9)
C21 C 0.6602(10) 0.5593(9) 0.9198(5)
O4 O 0.656(3) 0.550(2) 0.8666(7)
O5 O 0.6195(12) 0.3805(12) 0.8805(12)
Ag1 Ag 0.39410(3) 0.0000 1.2500
N1 N 0.3661(2) 0.0632(2) 1.3001(2)
N2 N 0.44106(18) 0.1078(2) 1.28076(19)
H1 H 0.4632 0.1317 1.2884
N3 N 0.4542(2) 0.07097(17) 1.24600(19)
N4 N 0.5622(2) -0.0622(2) 1.0622(2)
C1 C 0.3192(3) 0.0618(3) 1.3245(3)
H2 H 0.2985 0.0323 1.3209
C2 C 0.3012(3) 0.1027(4) 1.3547(4)
H3 H 0.2704 0.0994 1.3735
C3 C 0.3289(3) 0.1475(3) 1.3564(3)
H4 H 0.3154 0.1766 1.3731
C4 C 0.3771(3) 0.1496(3) 1.3333(3)
H5 H 0.3977 0.1791 1.3377
C5 C 0.3956(3) 0.1082(2) 1.3032(3)
C6 C 0.5009(3) 0.0717(2) 1.2281(2)
C7 C 0.5431(3) 0.1107(3) 1.2485(3)
H6 H 0.5284 0.1319 1.2755
H7 H 0.5545 0.1325 1.2204
H8 H 0.5722 0.0916 1.2621
C8 C 0.5159(2) 0.0354(3) 1.1856(3)
C9 C 0.5693(2) 0.0222(3) 1.1785(3)
H9 H 0.5948 0.0346 1.2009
C10 C 0.5820(2) -0.0096(3) 1.1374(3)
H10 H 0.6167 -0.0181 1.1319
C11 C 0.5463(3) -0.0285(2) 1.1055(3)
C12 C 0.4925(2) -0.0150(2) 1.1141(2)
H11 H 0.4668 -0.0279 1.0920
C13 C 0.4798(2) 0.0152(2) 1.1525(3)
H12 H 0.4449 0.0232 1.1577
N1O N 0.3661(2) -0.0632(2) 1.1999(2)
N3O N 0.4542(2) -0.07097(17) 1.25400(19)
C11E C 0.6055(3) -0.0463(3) 1.0285(2)
C11K C 0.5285(2) -0.1055(3) 1.0463(3)
F1? F 0.7894(3) -0.0143(2) 0.70873(19)
F4? F 0.8091(3) -0.0138(2) 0.71011(19)
F5? F 0.7411(5) -0.0313(5) 0.7576(3)
F6? F 0.8164(5) -0.0709(5) 0.7771(4)
C20? C 0.7801(7) 0.3884(15) 0.5048(17)
O3? O 0.8228(10) 0.3671(11) 0.4795(11)
O6? O 0.6873(17) 0.5207(15) 0.9465(19)
loop_
_geom_bond_atom_site_label_1
_geom_bond_atom_site_label_2
_geom_bond_site_symmetry_1
_geom_bond_site_symmetry_2
Ag1 N1 1_555 1_555
N1 C1 1_555 1_555
N2 H1 1_555 1_555
N3 Ag1 1_555 1_555
N4 C11 1_555 1_555
C1 H2 1_555 1_555
C2 C1 1_555 1_555
H3 C2 1_555 1_555
C3 C2 1_555 1_555
H4 C3 1_555 1_555
C4 C3 1_555 1_555
H5 C4 1_555 1_555
C5 N1 1_555 1_555
C6 N3 1_555 1_555
C7 C6 1_555 1_555
H6 C7 1_555 1_555
H7 C7 1_555 1_555
H8 C7 1_555 1_555
C8 C6 1_555 1_555
C9 C8 1_555 1_555
H9 C9 1_555 1_555
C10 C9 1_555 1_555
H10 C10 1_555 1_555
C11 C10 1_555 1_555
C12 C11 1_555 1_555
H11 C12 1_555 1_555
C13 C8 1_555 1_555
H12 C13 1_555 1_555
C14 Cl1 1_555 1_555
Cl2 C14 1_555 1_555
B1 F2 1_555 1_555
F3 B1 1_555 1_555
C15 C16 1_555 1_555
C16 N5 1_555 1_555
N6 C17 1_555 1_555
C17 C18 1_555 1_555
C18 C19 1_555 1_555
C19 O1 1_555 1_555
O2 C19 1_555 1_555
C21 O4 1_555 1_555
N1O Ag1 1_555 1_555
N3O Ag1 1_555 1_555
C11E N4 1_555 1_555
C11K N4 1_555 1_555
Cl2D C14 1_555 1_555
Cl2H C14 1_555 1_555
B1O B1 1_555 1_555
N2 N3 1_555 1_555
N2 C5 1_555 1_555
C4 C5 1_555 1_555
C12 C13 1_555 1_555

#END
