
#######################################################################
#
#                 Cambridge Crystallographic Data Centre
#                                CCDC 
#
#######################################################################
#
# If this CIF has been generated from an entry in the Cambridge 
# Structural Database, then it will include bibliographic, chemical, 
# crystal, experimental, refinement or atomic coordinate data resulting 
# from the CCDC's data processing and validation procedures.
#
#######################################################################

data_ADAVEI
_symmetry_cell_setting           cubic
_symmetry_space_group_name_H-M   'I 21 3'
_symmetry_Int_Tables_number      199
_space_group_name_Hall           'I 2b 2c 3'
loop_
_symmetry_equiv_pos_site_id
_symmetry_equiv_pos_as_xyz
1 x,y,z
2 1/2-x,-y,1/2+z
3 -x,1/2+y,1/2-z
4 1/2+x,1/2-y,-z
5 z,x,y
6 1/2+z,1/2-x,-y
7 1/2-z,-x,1/2+y
8 -z,1/2+x,1/2-y
9 y,z,x
10 -y,1/2+z,1/2-x
11 1/2+y,1/2-z,-x
12 1/2-y,-z,1/2+x
13 1/2+x,1/2+y,1/2+z
14 -x,1/2-y,z
15 1/2-x,y,-z
16 x,-y,1/2-z
17 1/2+z,1/2+x,1/2+y
18 z,-x,1/2-y
19 -z,1/2-x,y
20 1/2-z,x,-y
21 1/2+y,1/2+z,1/2+x
22 1/2-y,z,-x
23 y,-z,1/2-x
24 -y,1/2-z,x
_cell_length_a                   25.369(5)
_cell_length_b                   25.369(5)
_cell_length_c                   25.369(5)
_cell_angle_alpha                90
_cell_angle_beta                 90
_cell_angle_gamma                90
_cell_volume                     16327.1
loop_
_atom_site_label
_atom_site_type_symbol
_atom_site_fract_x
_atom_site_fract_y
_atom_site_fract_z
C14 C 0.8179(6) -0.1821(6) 0.8179(6)
Cl1 Cl 0.7776(3) -0.2224(3) 0.7776(3)
B1 B 0.79745(19) -0.02769(18) 0.75994(17)
F1 F 0.7970(4) -0.0146(2) 0.7087(2)
F2 F 0.7543(3) -0.0582(4) 0.7679(5)
F3 F 0.8401(4) -0.0575(5) 0.7727(6)
B1O B 0.79745(19) 0.02769(18) 0.74006(17)
F1O F 0.7970(4) 0.0146(2) 0.7913(2)
F2O F 0.7543(3) 0.0582(4) 0.7321(5)
F3O F 0.8401(4) 0.0575(5) 0.7273(6)
C15 C 0.6562(8) 0.5210(9) 0.4476(4)
C16 C 0.6499(9) 0.4675(8) 0.4672(5)
N5 N 0.6276(6) 0.4291(6) 0.4765(5)
N6 N 0.8214(13) 0.3200(9) 0.3941(4)
C17 C 0.8174(14) 0.3018(11) 0.3526(4)
C19 C 0.9063(3) 0.3346(6) 0.3294(5)
O1 O 0.8480(3) 0.3348(14) 0.3397(14)
C20 C 0.7718(5) 0.3644(10) 0.4993(7)
O3 O 0.8022(10) 0.3452(12) 0.4524(9)
N6N N 0.6786(13) 0.3200(9) 0.6059(4)
C17N C 0.6826(14) 0.3018(11) 0.6474(4)
C19N C 0.5937(3) 0.3346(6) 0.6706(5)
O1N O 0.6520(3) 0.3348(14) 0.6603(14)
C20N C 0.7282(5) 0.3644(10) 0.5007(7)
O3N O 0.6978(10) 0.3452(12) 0.5476(9)
O6 O 0.650(2) 0.564(2) 0.413(2)
Ag1 Ag 0.38700(4) 0.0000 1.2500
N1 N 0.3614(3) 0.0639(3) 1.3051(3)
N2 N 0.4369(3) 0.1080(3) 1.2849(3)
H1 H 0.4597 0.1320 1.2923
N3 N 0.4493(3) 0.0722(3) 1.2479(3)
N4 N 0.5560(4) -0.0560(4) 1.0560(4)
C1 C 0.3129(4) 0.0630(4) 1.3265(5)
H2 H 0.2910 0.0343 1.3197
C2 C 0.2943(4) 0.1035(5) 1.3585(5)
H3 H 0.2629 0.1003 1.3771
C3 C 0.3253(4) 0.1498(4) 1.3613(4)
H4 H 0.3126 0.1799 1.3779
C4 C 0.3731(3) 0.1493(3) 1.3397(4)
H5 H 0.3948 0.1784 1.3450
C5 C 0.3922(4) 0.1083(4) 1.3102(4)
C6 C 0.4994(4) 0.0715(3) 1.2298(3)
C7 C 0.5386(4) 0.1083(4) 1.2546(4)
H6 H 0.5215 0.1286 1.2816
H7 H 0.5524 0.1316 1.2282
H8 H 0.5668 0.0883 1.2699
C8 C 0.5127(3) 0.0383(3) 1.1866(3)
C9 C 0.5638(4) 0.0233(4) 1.1775(4)
H9 H 0.5900 0.0335 1.2011
C10 C 0.5775(3) -0.0068(4) 1.1338(4)
H10 H 0.6126 -0.0149 1.1269
C11 C 0.5399(4) -0.0237(3) 1.1025(4)
C12 C 0.4872(3) -0.0115(4) 1.1116(3)
H11 H 0.4609 -0.0238 1.0892
C13 C 0.4759(4) 0.0176(4) 1.1523(4)
H12 H 0.4406 0.0250 1.1588
Ag1E Ag 0.7500 0.11300(4) 1.0000
Ag1K Ag 0.5000 -0.2500 0.88700(4)
N1E N 0.8051(3) 0.1386(3) 0.9361(3)
N1K N 0.4361(3) -0.3051(3) 0.8614(3)
N1O N 0.3614(3) -0.0639(3) 1.1949(3)
N2E N 0.7849(3) 0.0631(3) 0.8920(3)
N2K N 0.3920(3) -0.2849(3) 0.9369(3)
H1E H 0.7923 0.0403 0.8680
H1K H 0.3680 -0.2923 0.9597
N3E N 0.7479(3) 0.0507(3) 0.9278(3)
N3K N 0.4278(3) -0.2479(3) 0.9493(3)
N3O N 0.4493(3) -0.0722(3) 1.2521(3)
C1E C 0.8265(5) 0.1871(4) 0.9370(4)
C1K C 0.4370(4) -0.3265(5) 0.8129(4)
H2E H 0.8197 0.2090 0.9657
H2K H 0.4657 -0.3197 0.7910
C2E C 0.8585(5) 0.2057(4) 0.8965(5)
C2K C 0.3965(5) -0.3585(5) 0.7943(4)
H3E H 0.8771 0.2371 0.8997
H3K H 0.3997 -0.3771 0.7629
C3E C 0.8613(4) 0.1747(4) 0.8502(4)
C3K C 0.3502(4) -0.3613(4) 0.8253(4)
H4E H 0.8779 0.1874 0.8201
H4K H 0.3201 -0.3779 0.8126
C4E C 0.8397(4) 0.1269(3) 0.8507(3)
C4K C 0.3507(3) -0.3397(4) 0.8731(3)
H5E H 0.8450 0.1052 0.8216
H5K H 0.3216 -0.3450 0.8948
C5E C 0.8102(4) 0.1078(4) 0.8917(4)
C5K C 0.3917(4) -0.3102(4) 0.8922(4)
C6E C 0.7298(3) 0.0006(4) 0.9285(3)
C6K C 0.4285(3) -0.2298(3) 0.9994(4)
C7E C 0.7546(4) -0.0386(4) 0.8917(4)
C7K C 0.3917(4) -0.2546(4) 1.0386(4)
H6E H 0.7816 -0.0215 0.8714
H6K H 0.3714 -0.2816 1.0215
H7E H 0.7282 -0.0524 0.8684
H7K H 0.3684 -0.2282 1.0524
H8E H 0.7699 -0.0668 0.9117
H8K H 0.4117 -0.2699 1.0668
C8E C 0.6866(3) -0.0127(3) 0.9617(3)
C8K C 0.4617(3) -0.1866(3) 1.0127(3)
C9E C 0.6775(4) -0.0638(4) 0.9767(4)
C9K C 0.4767(4) -0.1775(4) 1.0638(4)
H9E H 0.7011 -0.0900 0.9665
H9K H 0.4665 -0.2011 1.0900
C10E C 0.6338(4) -0.0775(3) 1.0068(4)
C10K C 0.5068(4) -0.1338(4) 1.0775(3)
H10E H 0.6269 -0.1126 1.0149
H10K H 0.5149 -0.1269 1.1126
C11E C 0.6025(4) -0.0399(4) 1.0237(3)
C11K C 0.5237(3) -0.1025(4) 1.0399(4)
C12E C 0.6116(3) 0.0128(3) 1.0115(4)
C12K C 0.5115(4) -0.1116(3) 0.9872(3)
H11E H 0.5892 0.0391 1.0238
H11K H 0.5238 -0.0892 0.9609
C13E C 0.6523(4) 0.0241(4) 0.9824(4)
C13K C 0.4824(4) -0.1523(4) 0.9759(4)
H12E H 0.6588 0.0594 0.9750
H12K H 0.4750 -0.1588 0.9406
Cl2? Cl 0.8110(3) -0.1194(3) 0.7948(3)
F4? F 0.8126(4) -0.0144(2) 0.7103(2)
F5? F 0.7446(3) -0.0322(6) 0.7593(6)
F6? F 0.8202(6) -0.0717(4) 0.7786(6)
C18? C 0.8255(15) 0.2994(14) 0.2961(5)
O2? O 0.588(4) 0.3054(17) 0.7216(11)
C21? C 0.6835(3) 0.3648(5) 0.5215(6)
O4? O 0.6456(8) 0.4091(8) 0.532(2)
O5? O 0.6419(8) 0.3946(14) 0.4919(15)
loop_
_geom_bond_atom_site_label_1
_geom_bond_atom_site_label_2
_geom_bond_site_symmetry_1
_geom_bond_site_symmetry_2
Ag1 N1 1_555 1_555
N1 C1 1_555 1_555
N2 H1 1_555 1_555
N3 Ag1 1_555 1_555
N4 C11 1_555 1_555
C1 H2 1_555 1_555
C2 C1 1_555 1_555
H3 C2 1_555 1_555
C3 C2 1_555 1_555
H4 C3 1_555 1_555
C4 C3 1_555 1_555
H5 C4 1_555 1_555
C5 N1 1_555 1_555
C6 N3 1_555 1_555
C7 C6 1_555 1_555
H6 C7 1_555 1_555
H7 C7 1_555 1_555
H8 C7 1_555 1_555
C8 C6 1_555 1_555
C9 C8 1_555 1_555
H9 C9 1_555 1_555
C10 C9 1_555 1_555
H10 C10 1_555 1_555
C11 C10 1_555 1_555
C12 C11 1_555 1_555
H11 C12 1_555 1_555
C13 C8 1_555 1_555
H12 C13 1_555 1_555
C14 Cl1 1_555 1_555
B1 F1 1_555 1_555
F1 B1O 1_555 1_555
F2 B1 1_555 1_555
F3 B1 1_555 1_555
C15 C16 1_555 1_555
C16 N5 1_555 1_555
N6 C17 1_555 1_555
C17 O1 1_555 1_555
C19 O1 1_555 1_555
O1 N6 1_555 1_555
C20 O3 1_555 1_555
O3 N6 1_555 1_555
Ag1E N1E 1_555 1_555
Ag1K N1K 1_555 1_555
N1E C1E 1_555 1_555
N1K C1K 1_555 1_555
N1O Ag1 1_555 1_555
N2E H1E 1_555 1_555
N2K H1K 1_555 1_555
N3E Ag1E 1_555 1_555
N3K Ag1K 1_555 1_555
N3O Ag1 1_555 1_555
C1E H2E 1_555 1_555
C1K H2K 1_555 1_555
C2E C1E 1_555 1_555
C2K C1K 1_555 1_555
H3E C2E 1_555 1_555
H3K C2K 1_555 1_555
C3E C2E 1_555 1_555
C3K C2K 1_555 1_555
H4E C3E 1_555 1_555
H4K C3K 1_555 1_555
C4E C3E 1_555 1_555
C4K C3K 1_555 1_555
H5E C4E 1_555 1_555
H5K C4K 1_555 1_555
C5E N1E 1_555 1_555
C5K N1K 1_555 1_555
C6E N3E 1_555 1_555
C6K N3K 1_555 1_555
C7E C6E 1_555 1_555
C7K C6K 1_555 1_555
H6E C7E 1_555 1_555
H6K C7K 1_555 1_555
H7E C7E 1_555 1_555
H7K C7K 1_555 1_555
H8E C7E 1_555 1_555
H8K C7K 1_555 1_555
C8E C6E 1_555 1_555
C8K C6K 1_555 1_555
C9E C8E 1_555 1_555
C9K C8K 1_555 1_555
H9E C9E 1_555 1_555
H9K C9K 1_555 1_555
C10E C9E 1_555 1_555
C10K C9K 1_555 1_555
H10E C10E 1_555 1_555
H10K C10K 1_555 1_555
C11E N4 1_555 1_555
C11K N4 1_555 1_555
C12E C11E 1_555 1_555
C12K C11K 1_555 1_555
H11E C12E 1_555 1_555
H11K C12K 1_555 1_555
C13E C8E 1_555 1_555
C13K C8K 1_555 1_555
H12E C13E 1_555 1_555
H12K C13K 1_555 1_555
B1O B1 1_555 1_555
F1O B1 1_555 1_555
F2O B1O 1_555 1_555
F3O B1O 1_555 1_555
N6N C17N 1_555 1_555
C17N O1N 1_555 1_555
C19N O1N 1_555 1_555
O1N N6N 1_555 1_555
C20N C20 1_555 1_555
O3N N6N 1_555 1_555
N2 N3 1_555 1_555
N2 C5 1_555 1_555
C4 C5 1_555 1_555
C12 C13 1_555 1_555
N2E N3E 1_555 1_555
N2E C5E 1_555 1_555
N2K N3K 1_555 1_555
N2K C5K 1_555 1_555
C4E C5E 1_555 1_555
C4K C5K 1_555 1_555
C10E C11E 1_555 1_555
C10K C11K 1_555 1_555
C12E C13E 1_555 1_555
C12K C13K 1_555 1_555
B1O F1O 1_555 1_555
C20N O3N 1_555 1_555

#END
