
#######################################################################
#
#                 Cambridge Crystallographic Data Centre
#                                CCDC 
#
#######################################################################
#
# If this CIF has been generated from an entry in the Cambridge 
# Structural Database, then it will include bibliographic, chemical, 
# crystal, experimental, refinement or atomic coordinate data resulting 
# from the CCDC's data processing and validation procedures.
#
#######################################################################

data_ADAWOS
_symmetry_cell_setting           monoclinic
_symmetry_space_group_name_H-M   'P c'
_symmetry_Int_Tables_number      7
_space_group_name_Hall           'P -2yc'
loop_
_symmetry_equiv_pos_site_id
_symmetry_equiv_pos_as_xyz
1 x,y,z
2 x,-y,1/2+z
_cell_length_a                   9.8887(8)
_cell_length_b                   11.3492(6)
_cell_length_c                   14.6304(12)
_cell_angle_alpha                90
_cell_angle_beta                 119.701(9)
_cell_angle_gamma                90
_cell_volume                     1426.24
loop_
_atom_site_label
_atom_site_type_symbol
_atom_site_fract_x
_atom_site_fract_y
_atom_site_fract_z
C1 C 0.2006(13) 0.4271(8) 0.0097(8)
H1 H 0.1089 0.4689 -0.0374
C2 C 0.1980(14) 0.3040(8) 0.0038(9)
H2 H 0.1086 0.2637 -0.0481
C3 C 0.3310(14) 0.2412(8) 0.0767(9)
C4 C 0.4568(14) 0.3069(8) 0.1481(9)
H3 H 0.5488 0.2674 0.1979
C5 C 0.4522(12) 0.4281(8) 0.1488(7)
H4 H 0.5403 0.4704 0.2000
C6 C 0.3282(15) 0.1106(8) 0.0751(10)
C7 C 0.1928(13) 0.0489(8) 0.0539(8)
H5 H 0.1003 0.0906 0.0380
C8 C 0.1946(13) -0.0722(8) 0.0564(8)
H6 H 0.1021 -0.1126 0.0422
C9 C 0.4527(13) -0.0755(8) 0.0991(8)
H7 H 0.5441 -0.1189 0.1152
C10 C 0.4607(13) 0.0451(8) 0.0987(7)
H8 H 0.5551 0.0834 0.1143
C11 C 0.1882(11) 0.4463(8) 0.2626(7)
H9 H 0.0958 0.4893 0.2190
C12 C 0.1808(14) 0.3241(8) 0.2595(9)
H10 H 0.0876 0.2846 0.2117
C13 C 0.3148(15) 0.2603(8) 0.3290(9)
C14 C 0.4450(14) 0.3241(7) 0.4008(9)
H11 H 0.5355 0.2841 0.4518
C15 C 0.4418(12) 0.4456(8) 0.3973(8)
H12 H 0.5293 0.4887 0.4481
C16 C 0.3147(17) 0.1304(9) 0.3282(10)
C17 C 0.1851(14) 0.0643(8) 0.3097(8)
H13 H 0.0932 0.1026 0.2994
C18 C 0.1906(14) -0.0575(9) 0.3065(9)
H14 H 0.1022 -0.1013 0.2961
C19 C 0.4419(14) -0.0519(9) 0.3347(8)
H15 H 0.5313 -0.0915 0.3419
C20 C 0.4457(14) 0.0699(9) 0.3421(8)
H16 H 0.5374 0.1118 0.3567
Ag1 Ag 0.31571(7) 0.67717(6) 0.08137(5)
Ag2 Ag 0.32234(7) 0.69514(6) 0.31672(5)
N1 N 0.3239(18) 0.4888(7) 0.0774(12)
N2 N 0.3228(15) -0.1369(6) 0.0780(10)
N3 N 0.3154(19) 0.5053(8) 0.3223(12)
N4 N 0.3174(16) -0.1168(7) 0.3176(11)
Ag1_2 Ag 0.31571(7) -0.32283(6) 0.08137(5)
Ag2_2 Ag 0.32234(7) -0.30486(6) 0.31672(5)
N2_2 N 0.3228(15) 0.8631(6) 0.0780(10)
N4_2 N 0.3174(16) 0.8832(7) 0.3176(11)
C21 C 0.7604(12) 0.7098(9) 0.4568(8)
H17 H 0.7909 0.7859 0.4391
H18 H 0.8496 0.6548 0.4824
C22 C 0.7126(11) 0.7274(9) 0.5402(8)
H19 H 0.6100 0.7670 0.5084
H20 H 0.7029 0.6499 0.5674
O1 O 0.6288(12) 0.6626(8) 0.3677(7)
H25 H 0.6368 0.6743 0.3139
O2 O 0.8268(8) 0.7978(6) 0.6253(5)
H26 H 0.8449 0.7683 0.6830
C23 C 0.8862(12) 0.3409(9) 0.3456(8)
H21 H 0.8087 0.3912 0.2883
H22 H 0.9911 0.3641 0.3591
C24 C 0.8755(12) 0.3593(10) 0.4433(8)
H23 H 0.8691 0.4447 0.4545
H24 H 0.7797 0.3215 0.4348
O3 O 0.8582(10) 0.2200(6) 0.3141(6)
H27 H 0.8038 0.1890 0.3371
O4 O 1.0060(12) 0.3112(6) 0.5313(8)
H28 H 1.0499 0.3636 0.5772
F1 F 0.8630(9) 0.1899(5) 0.7792(6)
F2 F 0.6398(10) 0.3172(5) 0.6862(7)
F3 F 0.8883(7) 0.3948(6) 0.8089(5)
F4 F 0.7830(7) 0.4288(5) 0.6245(5)
F5 F 1.0031(9) 0.3017(5) 0.7160(7)
F6 F 0.7554(8) 0.2208(6) 0.5960(5)
Si1 Si 0.8215(6) 0.3115(2) 0.7020(4)
O5 O 0.7885(10) -0.0030(7) 0.8606(7)
H29 H 0.804(13) 0.054(8) 0.831(8)
H30 H 0.873(7) -0.006(9) 0.917(5)
O6 O 0.8472(13) 0.0089(7) 0.5633(8)
H31 H 0.817(14) 0.062(7) 0.590(9)
H32 H 0.810(15) -0.054(6) 0.575(11)
loop_
_geom_bond_atom_site_label_1
_geom_bond_atom_site_label_2
_geom_bond_site_symmetry_1
_geom_bond_site_symmetry_2
C1 H1 1_555 1_555
C2 C1 1_555 1_555
H2 C2 1_555 1_555
C3 C2 1_555 1_555
C4 C3 1_555 1_555
H3 C4 1_555 1_555
C5 C4 1_555 1_555
H4 C5 1_555 1_555
C6 C3 1_555 1_555
C7 C6 1_555 1_555
H5 C7 1_555 1_555
C8 C7 1_555 1_555
H6 C8 1_555 1_555
C9 H7 1_555 1_555
C10 C6 1_555 1_555
H8 C10 1_555 1_555
C11 H9 1_555 1_555
C12 C11 1_555 1_555
H10 C12 1_555 1_555
C13 C12 1_555 1_555
C14 C13 1_555 1_555
H11 C14 1_555 1_555
C15 C14 1_555 1_555
H12 C15 1_555 1_555
C16 C13 1_555 1_555
C17 C16 1_555 1_555
H13 C17 1_555 1_555
C18 C17 1_555 1_555
H14 C18 1_555 1_555
C19 H15 1_555 1_555
C20 C16 1_555 1_555
H16 C20 1_555 1_555
C21 H17 1_555 1_555
H18 C21 1_555 1_555
C22 C21 1_555 1_555
H19 C22 1_555 1_555
H20 C22 1_555 1_555
C23 H21 1_555 1_555
H22 C23 1_555 1_555
C24 C23 1_555 1_555
H23 C24 1_555 1_555
H24 C24 1_555 1_555
Ag1 Ag2 1_555 1_555
Ag2 N3 1_555 1_555
F1 Si1 1_555 1_555
F2 Si1 1_555 1_555
F3 Si1 1_555 1_555
F4 Si1 1_555 1_555
F5 Si1 1_555 1_555
F6 Si1 1_555 1_555
N1 C1 1_555 1_555
N2 C8 1_555 1_555
N3 C11 1_555 1_555
N4 C18 1_555 1_555
O1 C21 1_555 1_555
H25 O1 1_555 1_555
O2 C22 1_555 1_555
H26 O2 1_555 1_555
O3 C23 1_555 1_555
H27 O3 1_555 1_555
O4 C24 1_555 1_555
H28 O4 1_555 1_555
O5 H29 1_555 1_555
H30 O5 1_555 1_555
O6 H31 1_555 1_555
H32 O6 1_555 1_555
Ag1_2 N2 1_555 1_555
Ag2_2 N4 1_555 1_555
N2_2 Ag1 1_555 1_555
N4_2 Ag2 1_555 1_555
C5 N1 1_555 1_555
C9 C10 1_555 1_555
C9 N2 1_555 1_555
C15 N3 1_555 1_555
C19 C20 1_555 1_555
C19 N4 1_555 1_555
Ag1 N1 1_555 1_555
Ag1_2 Ag2_2 1_555 1_555

#END
