
#######################################################################
#
#                 Cambridge Crystallographic Data Centre
#                                CCDC 
#
#######################################################################
#
# If this CIF has been generated from an entry in the Cambridge 
# Structural Database, then it will include bibliographic, chemical, 
# crystal, experimental, refinement or atomic coordinate data resulting 
# from the CCDC's data processing and validation procedures.
#
#######################################################################

data_ADAYAG
_symmetry_cell_setting           monoclinic
_symmetry_space_group_name_H-M   'P 21/c'
_symmetry_Int_Tables_number      14
_space_group_name_Hall           '-P 2ybc'
loop_
_symmetry_equiv_pos_site_id
_symmetry_equiv_pos_as_xyz
1 x,y,z
2 -x,1/2+y,1/2-z
3 -x,-y,-z
4 x,1/2-y,1/2+z
_cell_length_a                   9.7686(8)
_cell_length_b                   28.475(2)
_cell_length_c                   18.9966(18)
_cell_angle_alpha                90
_cell_angle_beta                 96.731(4)
_cell_angle_gamma                90
_cell_volume                     5247.69
loop_
_atom_site_label
_atom_site_type_symbol
_atom_site_fract_x
_atom_site_fract_y
_atom_site_fract_z
Cd1 Cd 0.46761(3) 0.321359(9) 0.735224(13)
S1 S 0.66402(10) 0.32352(3) 0.84431(5)
S2 S 0.36168(9) 0.32260(3) 0.85828(5)
S3 S 0.55682(9) 0.31502(3) 0.60849(5)
S4 S 0.25845(10) 0.31829(3) 0.63142(5)
N1 N 0.5601(3) 0.32408(11) 0.96778(16)
N2 N 0.3478(3) 0.30520(11) 0.50556(16)
N3 N 0.4739(3) 0.40781(11) 0.73128(17)
N4 N 0.5377(3) 0.73555(11) 0.76395(16)
C1 C 0.5316(4) 0.32330(12) 0.89731(19)
C2 C 0.7017(4) 0.32734(14) 1.0030(2)
H1 H 0.7011 0.3445 1.0483
H2 H 0.7580 0.3457 0.9727
C3 C 0.7683(4) 0.27941(15) 1.0179(2)
H3 H 0.8624 0.2836 1.0414
H4 H 0.7712 0.2625 0.9732
H5 H 0.7143 0.2613 1.0488
C4 C 0.4497(4) 0.32259(14) 1.0151(2)
H6 H 0.4857 0.3073 1.0603
H7 H 0.3722 0.3033 0.9926
C5 C 0.3968(5) 0.37107(16) 1.0304(2)
H8 H 0.3242 0.3684 1.0617
H9 H 0.3593 0.3861 0.9859
H10 H 0.4727 0.3901 1.0536
C6 C 0.3843(4) 0.31179(12) 0.57508(19)
C7 C 0.4506(4) 0.29758(14) 0.4557(2)
H11 H 0.4103 0.2769 0.4168
H12 H 0.5316 0.2813 0.4808
C8 C 0.4981(5) 0.34309(16) 0.4241(2)
H13 H 0.5660 0.3360 0.3915
H14 H 0.5401 0.3635 0.4623
H15 H 0.4187 0.3591 0.3983
C9 C 0.2013(4) 0.30386(15) 0.4751(2)
H16 H 0.1941 0.3140 0.4250
H17 H 0.1486 0.3264 0.5010
C10 C 0.1370(4) 0.25545(16) 0.4787(2)
H18 H 0.0404 0.2567 0.4578
H19 H 0.1418 0.2454 0.5282
H20 H 0.1874 0.2330 0.4522
C11 C 0.4671(4) 0.43389(13) 0.7900(2)
H21 H 0.4575 0.4182 0.8332
C12 C 0.4734(4) 0.48228(14) 0.7902(2)
H22 H 0.4678 0.4989 0.8331
C13 C 0.4879(4) 0.50704(13) 0.7280(2)
C14 C 0.4961(4) 0.47989(14) 0.6677(2)
H23 H 0.5070 0.4947 0.6238
C15 C 0.4884(5) 0.43122(15) 0.6713(2)
H24 H 0.4936 0.4136 0.6292
C16 C 0.4876(4) 0.56001(13) 0.7237(2)
H25 H 0.3912 0.5712 0.7213
H26 H 0.5231 0.5694 0.6790
C17 C 0.5734(4) 0.58483(13) 0.7856(2)
H27 H 0.5411 0.5748 0.8308
H28 H 0.6712 0.5755 0.7867
C18 C 0.5619(4) 0.63747(13) 0.7790(2)
C19 C 0.6707(4) 0.66485(14) 0.7607(2)
H29 H 0.7556 0.6506 0.7532
C20 C 0.6540(4) 0.71297(14) 0.7537(2)
H30 H 0.7292 0.7310 0.7409
C21 C 0.4322(4) 0.70909(14) 0.7812(2)
H31 H 0.3484 0.7243 0.7884
C22 C 0.4402(4) 0.66093(13) 0.7889(2)
H32 H 0.3629 0.6438 0.8010
Cd1A Cd 0.53239(3) 0.821359(9) 0.764776(13)
N4A N 0.4623(3) 0.23555(11) 0.73605(16)
Cd2 Cd -0.04775(3) 0.429939(9) 0.239510(13)
S5 S -0.24376(9) 0.43823(3) 0.13100(5)
S6 S 0.05607(9) 0.42601(3) 0.11618(5)
S7 S 0.16090(10) 0.42137(4) 0.34176(5)
S8 S -0.13160(10) 0.43971(3) 0.36718(5)
N5 N -0.1378(3) 0.44149(11) 0.00768(16)
N6 N 0.0798(3) 0.43312(11) 0.46962(16)
N7 N -0.0733(3) 0.34327(11) 0.24308(17)
N8 N 0.0058(3) 0.01446(11) 0.25657(17)
C23 C -0.1112(4) 0.43588(13) 0.07807(19)
C24 C -0.0263(4) 0.44292(15) -0.0393(2)
H33 H 0.0581 0.4562 -0.0127
H34 H -0.0545 0.4639 -0.0800
C25 C 0.0059(4) 0.39464(16) -0.0666(2)
H35 H 0.0797 0.3972 -0.0973
H36 H -0.0768 0.3816 -0.0938
H37 H 0.0358 0.3740 -0.0265
C26 C -0.2793(4) 0.44838(15) -0.0277(2)
H38 H -0.3443 0.4301 -0.0022
H39 H -0.2850 0.4362 -0.0767
C27 C -0.3222(4) 0.50004(15) -0.0297(2)
H40 H -0.4164 0.5030 -0.0535
H41 H -0.2592 0.5182 -0.0556
H42 H -0.3186 0.5121 0.0189
C28 C 0.0399(4) 0.43179(13) 0.39973(19)
C29 C 0.2260(4) 0.42557(15) 0.4984(2)
H43 H 0.2665 0.4013 0.4697
H44 H 0.2302 0.4137 0.5475
C30 C 0.3116(4) 0.47058(16) 0.4980(2)
H45 H 0.4071 0.4640 0.5174
H46 H 0.2731 0.4945 0.5271
H47 H 0.3095 0.4821 0.4493
C31 C -0.0187(4) 0.44075(15) 0.5215(2)
H48 H -0.0914 0.4628 0.5013
H49 H 0.0299 0.4553 0.5647
C32 C -0.0854(5) 0.39503(18) 0.5415(2)
H50 H -0.1500 0.4015 0.5760
H51 H -0.0139 0.3733 0.5623
H52 H -0.1352 0.3808 0.4989
C33 C -0.0989(4) 0.32145(14) 0.3028(2)
H53 H -0.1301 0.3398 0.3395
C34 C -0.0822(4) 0.27363(14) 0.3136(2)
H54 H -0.1028 0.2599 0.3567
C35 C -0.0349(4) 0.24551(13) 0.2609(2)
C36 C -0.0120(4) 0.26816(14) 0.1981(2)
H55 H 0.0183 0.2508 0.1602
C37 C -0.0338(4) 0.31628(13) 0.1914(2)
H56 H -0.0200 0.3308 0.1477
C38 C -0.0047(4) 0.19363(13) 0.2730(2)
H57 H -0.0290 0.1847 0.3204
H58 H 0.0954 0.1883 0.2729
C39 C -0.0832(4) 0.16179(13) 0.2173(2)
H59 H -0.1834 0.1672 0.2169
H60 H -0.0579 0.1701 0.1699
C40 C -0.0522(4) 0.11059(14) 0.23169(19)
C41 C -0.1511(4) 0.07979(14) 0.2514(2)
H61 H -0.2409 0.0909 0.2570
C42 C -0.1184(4) 0.03273(14) 0.2628(2)
H62 H -0.1882 0.0123 0.2758
C43 C 0.1023(4) 0.04408(14) 0.2387(2)
H63 H 0.1917 0.0320 0.2346
C44 C 0.0785(4) 0.09180(14) 0.2260(2)
H64 H 0.1505 0.1114 0.2135
Cd2A Cd 0.04775(3) -0.070061(9) 0.260490(13)
N8A N -0.0058(3) 0.51446(11) 0.24343(17)
loop_
_geom_bond_atom_site_label_1
_geom_bond_atom_site_label_2
_geom_bond_site_symmetry_1
_geom_bond_site_symmetry_2
Cd1 S1 1_555 1_555
Cd2 S5 1_555 1_555
S1 C1 1_555 1_555
S2 Cd1 1_555 1_555
S3 Cd1 1_555 1_555
S4 Cd1 1_555 1_555
S5 C23 1_555 1_555
S6 Cd2 1_555 1_555
S7 Cd2 1_555 1_555
S8 Cd2 1_555 1_555
N1 C1 1_555 1_555
N2 C6 1_555 1_555
N3 Cd1 1_555 1_555
N4 C20 1_555 1_555
N5 C23 1_555 1_555
N6 C28 1_555 1_555
N7 Cd2 1_555 1_555
N8 C42 1_555 1_555
C1 S2 1_555 1_555
C2 N1 1_555 1_555
H1 C2 1_555 1_555
H2 C2 1_555 1_555
C3 C2 1_555 1_555
H3 C3 1_555 1_555
H4 C3 1_555 1_555
H5 C3 1_555 1_555
C4 N1 1_555 1_555
H6 C4 1_555 1_555
H7 C4 1_555 1_555
C5 C4 1_555 1_555
H8 C5 1_555 1_555
H9 C5 1_555 1_555
H10 C5 1_555 1_555
C6 S3 1_555 1_555
C7 N2 1_555 1_555
H11 C7 1_555 1_555
H12 C7 1_555 1_555
C8 C7 1_555 1_555
H13 C8 1_555 1_555
H14 C8 1_555 1_555
H15 C8 1_555 1_555
C9 N2 1_555 1_555
H16 C9 1_555 1_555
H17 C9 1_555 1_555
C10 C9 1_555 1_555
H18 C10 1_555 1_555
H19 C10 1_555 1_555
H20 C10 1_555 1_555
C11 N3 1_555 1_555
H21 C11 1_555 1_555
C12 C11 1_555 1_555
H22 C12 1_555 1_555
C13 C12 1_555 1_555
C14 C13 1_555 1_555
H23 C14 1_555 1_555
C15 N3 1_555 1_555
H24 C15 1_555 1_555
C16 C13 1_555 1_555
H25 C16 1_555 1_555
H26 C16 1_555 1_555
C17 C16 1_555 1_555
H27 C17 1_555 1_555
H28 C17 1_555 1_555
C18 C17 1_555 1_555
C19 C18 1_555 1_555
H29 C19 1_555 1_555
C20 C19 1_555 1_555
H30 C20 1_555 1_555
C21 N4 1_555 1_555
H31 C21 1_555 1_555
C22 C18 1_555 1_555
H32 C22 1_555 1_555
C23 S6 1_555 1_555
C24 N5 1_555 1_555
H33 C24 1_555 1_555
H34 C24 1_555 1_555
C25 C24 1_555 1_555
H35 C25 1_555 1_555
H36 C25 1_555 1_555
H37 C25 1_555 1_555
C26 N5 1_555 1_555
H38 C26 1_555 1_555
H39 C26 1_555 1_555
C27 C26 1_555 1_555
H40 C27 1_555 1_555
H41 C27 1_555 1_555
H42 C27 1_555 1_555
C28 S7 1_555 1_555
C29 N6 1_555 1_555
H43 C29 1_555 1_555
H44 C29 1_555 1_555
C30 C29 1_555 1_555
H45 C30 1_555 1_555
H46 C30 1_555 1_555
H47 C30 1_555 1_555
C31 N6 1_555 1_555
H48 C31 1_555 1_555
H49 C31 1_555 1_555
C32 C31 1_555 1_555
H50 C32 1_555 1_555
H51 C32 1_555 1_555
H52 C32 1_555 1_555
C33 N7 1_555 1_555
H53 C33 1_555 1_555
C34 C33 1_555 1_555
H54 C34 1_555 1_555
C35 C34 1_555 1_555
C36 C35 1_555 1_555
H55 C36 1_555 1_555
C37 N7 1_555 1_555
H56 C37 1_555 1_555
C38 C35 1_555 1_555
H57 C38 1_555 1_555
H58 C38 1_555 1_555
C39 C38 1_555 1_555
H59 C39 1_555 1_555
H60 C39 1_555 1_555
C40 C39 1_555 1_555
C41 C40 1_555 1_555
H61 C41 1_555 1_555
C42 C41 1_555 1_555
H62 C42 1_555 1_555
C43 N8 1_555 1_555
H63 C43 1_555 1_555
C44 C40 1_555 1_555
H64 C44 1_555 1_555
Cd1A N4 1_555 1_555
Cd2A N8 1_555 1_555
N4A Cd1 1_555 1_555
N8A Cd2 1_555 1_555
S4 C6 1_555 1_555
S8 C28 1_555 1_555
C14 C15 1_555 1_555
C21 C22 1_555 1_555
C36 C37 1_555 1_555
C43 C44 1_555 1_555

#END
