
#######################################################################
#
#                 Cambridge Crystallographic Data Centre
#                                CCDC 
#
#######################################################################
#
# If this CIF has been generated from an entry in the Cambridge 
# Structural Database, then it will include bibliographic, chemical, 
# crystal, experimental, refinement or atomic coordinate data resulting 
# from the CCDC's data processing and validation procedures.
#
#######################################################################

data_ADEDET
_symmetry_cell_setting           monoclinic
_symmetry_space_group_name_H-M   'C 2/c'
_symmetry_Int_Tables_number      15
_space_group_name_Hall           '-C 2yn'
loop_
_symmetry_equiv_pos_site_id
_symmetry_equiv_pos_as_xyz
1 x,y,z
2 1/2+x,1/2+y,z
3 -x,y,1/2-z
4 1/2-x,1/2+y,1/2-z
5 -x,-y,-z
6 1/2-x,1/2-y,-z
7 x,-y,1/2+z
8 1/2+x,1/2-y,1/2+z
_cell_length_a                   15.467(4)
_cell_length_b                   14.971(4)
_cell_length_c                   18.847(4)
_cell_angle_alpha                90
_cell_angle_beta                 109.064(5)
_cell_angle_gamma                90
_cell_volume                     4124.79
loop_
_atom_site_label
_atom_site_type_symbol
_atom_site_fract_x
_atom_site_fract_y
_atom_site_fract_z
C1 C -0.2559(2) 0.63410(19) -0.00384(17)
H1 H -0.2835 0.6756 -0.0411
C2 C -0.2878(2) 0.6233(2) 0.05651(17)
H2 H -0.3368 0.6574 0.0596
C3 C -0.24648(19) 0.56174(19) 0.11198(15)
H3 H -0.2671 0.5553 0.1528
C4 C -0.17432(18) 0.50944(18) 0.10719(14)
C5 C -0.14332(18) 0.52000(18) 0.04598(14)
H4 H -0.0958 0.4845 0.0419
C6 C -0.18311(18) 0.58317(18) -0.00881(14)
C7 C -0.14512(18) 0.6021(2) -0.07134(15)
C8 C -0.12809(19) 0.44587(19) 0.16919(15)
C9 C 0.1929(2) 0.2200(2) 0.31890(17)
H5 H 0.2156 0.2743 0.3413
C10 C 0.2276(2) 0.1421(2) 0.35747(19)
H6 H 0.2723 0.1442 0.4045
C11 C 0.1945(2) 0.0621(2) 0.32496(17)
H7 H 0.2168 0.0089 0.3496
C12 C 0.12694(18) 0.0610(2) 0.25425(15)
C13 C 0.09076(19) -0.02277(19) 0.21691(16)
C14 C 0.02456(19) -0.02138(19) 0.14408(16)
C15 C -0.00986(19) 0.06475(19) 0.10857(15)
C16 C -0.0776(2) 0.0706(2) 0.03883(17)
H8 H -0.1021 0.0190 0.0124
C17 C -0.1079(2) 0.1529(2) 0.00926(19)
H9 H -0.1539 0.1578 -0.0370
C18 C -0.0690(2) 0.2289(2) 0.04938(17)
H10 H -0.0897 0.2845 0.0289
C19 C 0.02554(19) 0.14464(18) 0.14523(15)
C20 C 0.09649(18) 0.14265(18) 0.21946(15)
C21 C 0.0910(2) -0.1732(2) 0.21590(19)
C22 C 0.1236(2) -0.2576(2) 0.2507(2)
H11 H 0.1642 -0.2591 0.2996
C23 C 0.0958(3) -0.3350(2) 0.2128(3)
H12 H 0.1184 -0.3891 0.2357
C24 C 0.0321(3) -0.3346(2) 0.1384(3)
H13 H 0.0146 -0.3881 0.1126
C25 C -0.0029(2) -0.2561(2) 0.1052(2)
H14 H -0.0460 -0.2569 0.0573
C26 C 0.0246(2) -0.1733(2) 0.14156(19)
N1 N 0.12244(17) -0.09854(18) 0.25286(14)
N2 N -0.00852(17) -0.09627(17) 0.10691(14)
N3 N -0.00352(16) 0.22555(16) 0.11577(13)
N4 N 0.12926(16) 0.22126(16) 0.25181(12)
O1 O -0.06776(15) 0.39469(16) 0.16173(12)
O2 O -0.15491(15) 0.44495(15) 0.22553(11)
O3 O -0.17604(16) 0.66786(15) -0.11290(12)
O4 O -0.08455(16) 0.55305(16) -0.08053(12)
Cd1 Cd 0.078293(14) 0.353762(13) 0.181971(11)
O2B O 0.15491(15) 0.44495(15) 0.27447(11)
O3D O 0.17604(16) 0.33214(15) 0.11290(12)
O4D O 0.08455(16) 0.44695(16) 0.08053(12)
Cd1B Cd -0.078293(14) 0.353762(13) 0.318029(11)
Cd1D Cd -0.078293(14) 0.646238(13) -0.181971(11)
loop_
_geom_bond_atom_site_label_1
_geom_bond_atom_site_label_2
_geom_bond_site_symmetry_1
_geom_bond_site_symmetry_2
C1 H1 1_555 1_555
C2 C1 1_555 1_555
H2 C2 1_555 1_555
C3 C2 1_555 1_555
H3 C3 1_555 1_555
C4 C3 1_555 1_555
C5 C4 1_555 1_555
H4 C5 1_555 1_555
C6 C1 1_555 1_555
C7 C6 1_555 1_555
C8 C4 1_555 1_555
C9 H5 1_555 1_555
C10 C9 1_555 1_555
H6 C10 1_555 1_555
C11 C10 1_555 1_555
H7 C11 1_555 1_555
C12 C11 1_555 1_555
C13 C12 1_555 1_555
C14 C13 1_555 1_555
C15 C14 1_555 1_555
C16 C15 1_555 1_555
H8 C16 1_555 1_555
C17 C16 1_555 1_555
H9 C17 1_555 1_555
C18 C17 1_555 1_555
H10 C18 1_555 1_555
C19 C15 1_555 1_555
C20 C12 1_555 1_555
C21 C22 1_555 1_555
C22 H11 1_555 1_555
C23 C22 1_555 1_555
H12 C23 1_555 1_555
C24 C23 1_555 1_555
H13 C24 1_555 1_555
C25 C24 1_555 1_555
H14 C25 1_555 1_555
C26 C21 1_555 1_555
N1 C13 1_555 1_555
N2 C14 1_555 1_555
N3 C18 1_555 1_555
N4 C9 1_555 1_555
O1 C8 1_555 1_555
O2 C8 1_555 1_555
O3 C7 1_555 1_555
O4 C7 1_555 1_555
Cd1 N3 1_555 1_555
O2B Cd1 1_555 1_555
O3D Cd1 1_555 1_555
O4D Cd1 1_555 1_555
Cd1B O2 1_555 1_555
Cd1D O3 1_555 1_555
C5 C6 1_555 1_555
C19 C20 1_555 1_555
C19 N3 1_555 1_555
C20 N4 1_555 1_555
C21 N1 1_555 1_555
C25 C26 1_555 1_555
C26 N2 1_555 1_555
N4 Cd1 1_555 1_555
O1 Cd1 1_555 1_555
O4 Cd1D 1_555 1_555

#END
