
#######################################################################
#
#                 Cambridge Crystallographic Data Centre
#                                CCDC 
#
#######################################################################
#
# If this CIF has been generated from an entry in the Cambridge 
# Structural Database, then it will include bibliographic, chemical, 
# crystal, experimental, refinement or atomic coordinate data resulting 
# from the CCDC's data processing and validation procedures.
#
#######################################################################

data_ADEFAS
_symmetry_cell_setting           monoclinic
_symmetry_space_group_name_H-M   'C 2/c'
_symmetry_Int_Tables_number      15
_space_group_name_Hall           '-C 2yn'
loop_
_symmetry_equiv_pos_site_id
_symmetry_equiv_pos_as_xyz
1 x,y,z
2 -x,y,1/2-z
3 1/2+x,1/2+y,z
4 1/2-x,1/2+y,1/2-z
5 -x,-y,-z
6 x,-y,1/2+z
7 1/2-x,1/2-y,-z
8 1/2+x,1/2-y,1/2+z
_cell_length_a                   20.7649(8)
_cell_length_b                   15.1386(6)
_cell_length_c                   18.2841(7)
_cell_angle_alpha                90
_cell_angle_beta                 110.5990(10)
_cell_angle_gamma                90
_cell_volume                     5380.16
loop_
_atom_site_label
_atom_site_type_symbol
_atom_site_fract_x
_atom_site_fract_y
_atom_site_fract_z
B1 B 0.8295(2) 0.2459(2) 0.7998(2)
F1 F 0.87403(13) 0.2859(2) 0.86655(14)
F2 F 0.77807(12) 0.30298(16) 0.76150(12)
F3 F 0.86406(13) 0.2197(2) 0.75066(13)
F4 F 0.80215(19) 0.17143(16) 0.82154(16)
Cu1 Cu 0.692602(18) 0.47829(2) 0.51615(2)
C1 C 0.82635(16) 0.5875(2) 0.50732(18)
H1 H 0.8721 0.6054 0.5054
C2 C 0.78512(15) 0.67137(19) 0.50365(17)
C3 C 0.79324(16) 0.7181(2) 0.57134(18)
H2 H 0.8231 0.6963 0.6202
C4 C 0.74191(16) 0.70343(19) 0.43189(17)
H3 H 0.7365 0.6716 0.3853
C5 C 0.62074(15) 0.2979(2) 0.51840(18)
H4 H 0.5951 0.2423 0.5195
C6 C 0.68893(14) 0.27356(18) 0.50961(16)
C7 C 0.68911(15) 0.24716(18) 0.43721(17)
H5 H 0.6470 0.2445 0.3941
C8 C 0.75015(15) 0.27535(18) 0.57298(16)
H6 H 0.7503 0.2920 0.6231
C9 C 0.5814(3) 0.6464(3) 0.4779(3)
H7 H 0.5745 0.6405 0.4223
H8 H 0.5810 0.7091 0.4911
H9 H 0.5442 0.6157 0.4889
C10 C 0.8980(2) 0.5365(3) 0.6418(2)
H10 H 0.9412 0.5600 0.6444
C11 C 0.8840(2) 0.4925(3) 0.7006(2)
H11 H 0.9153 0.4793 0.7514
C12 C 0.8151(2) 0.4717(2) 0.6700(2)
H12 H 0.7912 0.4400 0.6974
C13 C 0.81893(19) 0.5053(2) 0.3857(2)
H13 H 0.8605 0.5253 0.3805
C14 C 0.7730(2) 0.4482(2) 0.3371(2)
H14 H 0.7759 0.4202 0.2919
C15 C 0.72048(19) 0.4396(2) 0.36781(18)
H15 H 0.6808 0.4036 0.3459
C16 C 0.51629(17) 0.3338(3) 0.3987(2)
H16 H 0.4890 0.2829 0.3968
C17 C 0.4995(2) 0.4032(3) 0.3482(3)
H17 H 0.4584 0.4105 0.3043
C18 C 0.5550(2) 0.4613(3) 0.3742(2)
H18 H 0.5575 0.5162 0.3501
C19 C 0.6065(2) 0.3282(3) 0.6481(2)
H19 H 0.5844 0.2753 0.6544
C20 C 0.6206(2) 0.3994(3) 0.6962(2)
H20 H 0.6112 0.4059 0.7431
C21 C 0.6520(2) 0.4612(2) 0.6627(2)
H21 H 0.6668 0.5183 0.6834
N1 N 0.78592(14) 0.50183(17) 0.59669(15)
N2 N 0.83894(14) 0.53998(17) 0.58038(16)
N3 N 0.73358(14) 0.48902(16) 0.43234(15)
N4 N 0.79498(14) 0.52823(15) 0.44250(16)
N5 N 0.60446(14) 0.42921(18) 0.43797(15)
N6 N 0.57928(13) 0.35105(19) 0.45231(17)
N7 N 0.65817(14) 0.42876(17) 0.59798(15)
N8 N 0.62985(14) 0.34732(17) 0.58933(16)
O1 O 0.64686(13) 0.60781(15) 0.52421(16)
H22 H 0.6647(18) 0.638(3) 0.564(2)
Cu1F Cu 0.807398(18) 1.02171(2) 0.48385(2)
Cu1F_2 Cu 0.807398(18) 0.02171(2) 0.48385(2)
C1F C 0.67365(16) 0.9125(2) 0.49268(18)
H1F H 0.6279 0.8946 0.4946
C2F C 0.71488(15) 0.82863(19) 0.49635(17)
C3F C 0.70676(16) 0.7819(2) 0.42866(18)
H2F H 0.6769 0.8037 0.3798
C4F C 0.75809(16) 0.79657(19) 0.56811(17)
H3F H 0.7635 0.8284 0.6147
C5F C 0.87926(15) 0.2021(2) 0.48160(18)
H4F H 0.9049 0.2577 0.4805
C6F C 0.81107(14) 0.22644(18) 0.49039(16)
C7F C 0.81089(15) 0.25284(18) 0.56279(17)
H5F H 0.8530 0.2555 0.6059
C8F C 0.74985(15) 0.22465(18) 0.42702(16)
H6F H 0.7497 0.2080 0.3769
C9F C 0.9186(3) 0.8536(3) 0.5221(3)
H7F H 0.9255 0.8595 0.5777
H8F H 0.9190 0.7909 0.5089
H9F H 0.9558 0.8843 0.5111
C10F C 0.6020(2) 0.9635(3) 0.3582(2)
H10F H 0.5588 0.9400 0.3556
C11F C 0.6160(2) 1.0075(3) 0.2994(2)
H11F H 0.5847 1.0207 0.2486
C12F C 0.6849(2) 1.0283(2) 0.3300(2)
H12F H 0.7088 1.0600 0.3026
C13F C 0.68107(19) 0.9947(2) 0.6143(2)
H13F H 0.6395 0.9747 0.6195
C14F C 0.7270(2) 1.0518(2) 0.6629(2)
H14F H 0.7241 1.0798 0.7081
C15F C 0.77952(19) 1.0604(2) 0.63219(18)
H15F H 0.8192 1.0964 0.6541
C16F C 0.98371(17) 0.1662(3) 0.6013(2)
H16F H 1.0110 0.2171 0.6032
C17F C 1.0005(2) 0.0968(3) 0.6518(3)
H17F H 1.0416 0.0895 0.6957
C18F C 0.9450(2) 0.0387(3) 0.6258(2)
H18F H 0.9425 -0.0162 0.6499
C19F C 0.8935(2) 0.1718(3) 0.3519(2)
H19F H 0.9156 0.2247 0.3456
C20F C 0.8794(2) 0.1006(3) 0.3038(2)
H20F H 0.8888 0.0941 0.2569
C21F C 0.8480(2) 0.0388(2) 0.3373(2)
H21F H 0.8332 -0.0183 0.3166
N1F N 0.71408(14) 0.99817(17) 0.40331(15)
N2F N 0.66106(14) 0.96002(17) 0.41962(16)
N3F N 0.76642(14) 1.01098(16) 0.56766(15)
N4F N 0.70502(14) 0.97177(15) 0.55750(16)
N5F N 0.89554(14) 0.07079(18) 0.56203(15)
N5F_2 N 0.89554(14) 1.07079(18) 0.56203(15)
N6F N 0.92072(13) 0.14895(19) 0.54769(17)
N7F N 0.84183(14) 0.07124(17) 0.40202(15)
N7F_2 N 0.84183(14) 1.07124(17) 0.40202(15)
N8F N 0.87015(14) 0.15268(17) 0.41067(16)
O1F O 0.85314(13) 0.89219(15) 0.47579(16)
H22F H 0.8353(18) 0.862(3) 0.436(2)
B2? B 0.5000 0.2363(4) 0.7500
F5? F 0.5491(5) 0.1928(7) 0.7333(7)
F6? F 0.5285(6) 0.3200(7) 0.7811(6)
F7? F 0.5245(4) 0.1797(4) 0.7040(4)
F8? F 0.5514(4) 0.2881(6) 0.7984(4)
F9? F 0.4989(5) 0.1983(6) 0.6753(5)
F10? F 0.5665(4) 0.2510(8) 0.7893(6)
B3? B 0.5189(5) 0.0719(6) 0.4916(7)
F11? F 0.4884(5) 0.1488(6) 0.5013(5)
F12? F 0.5839(3) 0.0924(5) 0.4946(5)
F13? F 0.4819(6) 0.0337(9) 0.4169(8)
F14? F 0.5201(6) 0.0056(6) 0.5438(6)
B4? B 0.5146(6) 0.0734(8) 0.4668(8)
F15? F 0.5736(4) 0.1113(6) 0.4656(7)
F16? F 0.4823(8) 0.1183(12) 0.5087(9)
F17? F 0.5293(7) -0.0133(7) 0.4974(9)
F18? F 0.4726(6) 0.0630(9) 0.3900(7)
C22? C 0.5386(11) 0.1412(14) 0.4749(10)
O2? O 0.5116(8) 0.1601(10) 0.5353(9)
C23? C 0.4834(11) 0.1485(15) 0.3242(12)
O3? O 0.5099(9) 0.1848(9) 0.2690(8)
loop_
_geom_bond_atom_site_label_1
_geom_bond_atom_site_label_2
_geom_bond_site_symmetry_1
_geom_bond_site_symmetry_2
Cu1 N1 1_555 1_555
C1 H1 1_555 1_555
C2 C1 1_555 1_555
C3 C2 1_555 1_555
H2 C3 1_555 1_555
C4 C2 1_555 1_555
H3 C4 1_555 1_555
C5 H4 1_555 1_555
C6 C5 1_555 1_555
C7 C6 1_555 1_555
H5 C7 1_555 1_555
C8 C6 1_555 1_555
H6 C8 1_555 1_555
C9 H7 1_555 1_555
H8 C9 1_555 1_555
H9 C9 1_555 1_555
C10 H10 1_555 1_555
C11 C10 1_555 1_555
H11 C11 1_555 1_555
C12 C11 1_555 1_555
H12 C12 1_555 1_555
C13 H13 1_555 1_555
C14 C13 1_555 1_555
H14 C14 1_555 1_555
C15 C14 1_555 1_555
H15 C15 1_555 1_555
C16 H16 1_555 1_555
C17 C16 1_555 1_555
H17 C17 1_555 1_555
C18 C17 1_555 1_555
H18 C18 1_555 1_555
C19 H19 1_555 1_555
C20 C19 1_555 1_555
H20 C20 1_555 1_555
C21 C20 1_555 1_555
H21 C21 1_555 1_555
N1 C12 1_555 1_555
N2 C1 1_555 1_555
N3 Cu1 1_555 1_555
N4 C1 1_555 1_555
N5 Cu1 1_555 1_555
N6 C5 1_555 1_555
N7 Cu1 1_555 1_555
N8 C5 1_555 1_555
O1 Cu1 1_555 1_555
H22 O1 1_555 1_555
B1 F1 1_555 1_555
F2 B1 1_555 1_555
F3 B1 1_555 1_555
F4 B1 1_555 1_555
Cu1F N1F 1_555 1_555
Cu1F_2 N5F 1_555 1_555
C1F H1F 1_555 1_555
C2F C1F 1_555 1_555
C3F C4 1_555 1_555
H2F C3F 1_555 1_555
C4F C3 1_555 1_555
H3F C4F 1_555 1_555
C5F H4F 1_555 1_555
C6F C5F 1_555 1_555
C7F C8 1_555 1_555
H5F C7F 1_555 1_555
C8F C7 1_555 1_555
H6F C8F 1_555 1_555
C9F H7F 1_555 1_555
H8F C9F 1_555 1_555
H9F C9F 1_555 1_555
C10F H10F 1_555 1_555
C11F C10F 1_555 1_555
H11F C11F 1_555 1_555
C12F C11F 1_555 1_555
H12F C12F 1_555 1_555
C13F H13F 1_555 1_555
C14F C13F 1_555 1_555
H14F C14F 1_555 1_555
C15F C14F 1_555 1_555
H15F C15F 1_555 1_555
C16F H16F 1_555 1_555
C17F C16F 1_555 1_555
H17F C17F 1_555 1_555
C18F C17F 1_555 1_555
H18F C18F 1_555 1_555
C19F H19F 1_555 1_555
C20F C19F 1_555 1_555
H20F C20F 1_555 1_555
C21F C20F 1_555 1_555
H21F C21F 1_555 1_555
N1F C12F 1_555 1_555
N2F C1F 1_555 1_555
N3F Cu1F 1_555 1_555
N4F C1F 1_555 1_555
N5F C18F 1_555 1_555
N5F_2 Cu1F 1_555 1_555
N6F C5F 1_555 1_555
N7F Cu1F_2 1_555 1_555
N7F_2 Cu1F 1_555 1_555
N8F C5F 1_555 1_555
O1F Cu1F 1_555 1_555
H22F O1F 1_555 1_555
C9 O1 1_555 1_555
C10 N2 1_555 1_555
C13 N4 1_555 1_555
C15 N3 1_555 1_555
C16 N6 1_555 1_555
C18 N5 1_555 1_555
C19 N8 1_555 1_555
C21 N7 1_555 1_555
N1 N2 1_555 1_555
N3 N4 1_555 1_555
N5 N6 1_555 1_555
N7 N8 1_555 1_555
C2F C3F 1_555 1_555
C2F C4F 1_555 1_555
C6F C7F 1_555 1_555
C6F C8F 1_555 1_555
C9F O1F 1_555 1_555
C10F N2F 1_555 1_555
C13F N4F 1_555 1_555
C15F N3F 1_555 1_555
C16F N6F 1_555 1_555
C19F N8F 1_555 1_555
C21F N7F 1_555 1_555
N1F N2F 1_555 1_555
N3F N4F 1_555 1_555
N5F N6F 1_555 1_555
N7F N8F 1_555 1_555

#END
