
#######################################################################
#
#                 Cambridge Crystallographic Data Centre
#                                CCDC 
#
#######################################################################
#
# If this CIF has been generated from an entry in the Cambridge 
# Structural Database, then it will include bibliographic, chemical, 
# crystal, experimental, refinement or atomic coordinate data resulting 
# from the CCDC's data processing and validation procedures.
#
#######################################################################

data_ADEFEW
_symmetry_cell_setting           triclinic
_symmetry_space_group_name_H-M   'P -1'
_symmetry_Int_Tables_number      2
_space_group_name_Hall           '-P 1'
loop_
_symmetry_equiv_pos_site_id
_symmetry_equiv_pos_as_xyz
1 x,y,z
2 -x,-y,-z
_cell_length_a                   11.6662(10)
_cell_length_b                   11.8615(10)
_cell_length_c                   12.1415(10)
_cell_angle_alpha                61.8790(10)
_cell_angle_beta                 66.7860(10)
_cell_angle_gamma                82.483(2)
_cell_volume                     1358.69
loop_
_atom_site_label
_atom_site_type_symbol
_atom_site_fract_x
_atom_site_fract_y
_atom_site_fract_z
Cu1 Cu 0.70998(4) 0.38337(4) 0.27949(4)
C1 C 0.7342(3) 0.1075(3) 0.2675(3)
H1 H 0.7654 0.0383 0.2402
C2 C 0.6114(3) 0.0555(3) 0.3889(3)
C3 C 0.5003(3) 0.0628(3) 0.3711(3)
H2 H 0.5001 0.1055 0.2825
C4 C 0.6109(3) -0.0087(3) 0.5193(3)
H3 H 0.6867 -0.0152 0.5330
C5 C 0.8502(3) 0.6462(3) 0.1384(3)
H4 H 0.8947 0.7322 0.0940
C6 C 0.9277(3) 0.5695(3) 0.0661(3)
C7 C 1.0203(3) 0.4972(3) 0.1056(3)
H5 H 1.0353 0.4957 0.1777
C8 C 0.9087(3) 0.5729(3) -0.0414(3)
H6 H 0.8466 0.6237 -0.0709
C9 C 0.4611(4) 0.2839(4) 0.5698(4)
H7 H 0.5152 0.2364 0.6190
H8 H 0.3822 0.2331 0.6109
H9 H 0.4442 0.3653 0.5739
C10 C 0.7224(3) 0.2194(3) 0.0393(3)
H10 H 0.7438 0.1513 0.0160
C11 C 0.6896(3) 0.3368(3) -0.0354(3)
H11 H 0.6835 0.3670 -0.1205
C12 C 0.6670(3) 0.4033(3) 0.0388(3)
H12 H 0.6433 0.4891 0.0107
C13 C 0.9300(3) 0.0732(3) 0.3141(3)
H13 H 0.9567 0.0020 0.2968
C14 C 0.9863(3) 0.1280(3) 0.3591(3)
H14 H 1.0592 0.1028 0.3792
C15 C 0.9147(3) 0.2270(3) 0.3688(3)
H15 H 0.9324 0.2830 0.3966
C16 C 0.8704(3) 0.6224(3) 0.3487(4)
H16 H 0.9147 0.7015 0.3128
C17 C 0.8324(3) 0.5282(4) 0.4792(4)
H17 H 0.8455 0.5283 0.5515
C18 C 0.7702(3) 0.4317(3) 0.4847(3)
H18 H 0.7325 0.3540 0.5637
C19 C 0.6666(3) 0.7722(3) 0.0929(3)
H19 H 0.7010 0.8573 0.0519
C20 C 0.5472(3) 0.7372(3) 0.1215(4)
H20 H 0.4826 0.7921 0.1042
C21 C 0.5406(3) 0.6041(3) 0.1815(3)
H21 H 0.4680 0.5522 0.2128
N1 N 0.6830(2) 0.3303(2) 0.1555(3)
N2 N 0.7189(2) 0.2175(2) 0.1527(3)
N3 N 0.8165(2) 0.2353(2) 0.3342(3)
N4 N 0.8295(2) 0.1395(2) 0.2992(3)
N5 N 0.7715(2) 0.4645(3) 0.3622(3)
N6 N 0.8334(2) 0.5822(2) 0.2803(3)
N7 N 0.6496(2) 0.5587(2) 0.1892(3)
N8 N 0.7268(2) 0.6642(2) 0.1331(3)
O1 O 0.5212(2) 0.3084(2) 0.4338(2)
H22 H 0.470(3) 0.310(4) 0.401(4)
Cu1A Cu 0.29002(4) -0.38337(4) 0.72051(4)
Cu1A_2 Cu 1.29002(4) 0.61663(4) -0.27949(4)
C1A C 0.2658(3) -0.1075(3) 0.7325(3)
H1A H 0.2346 -0.0383 0.7598
C2A C 0.3886(3) -0.0555(3) 0.6111(3)
C3A C 0.4997(3) -0.0628(3) 0.6289(3)
H2A H 0.4999 -0.1055 0.7175
C4A C 0.3891(3) 0.0087(3) 0.4807(3)
H3A H 0.3133 0.0152 0.4670
C5A C 1.1498(3) 0.3538(3) -0.1384(3)
H4A H 1.1053 0.2678 -0.0940
C6A C 1.0723(3) 0.4305(3) -0.0661(3)
C7A C 0.9797(3) 0.5028(3) -0.1056(3)
H5A H 0.9647 0.5043 -0.1777
C8A C 1.0913(3) 0.4271(3) 0.0414(3)
H6A H 1.1534 0.3763 0.0709
C9A C 0.5389(4) -0.2839(4) 0.4302(4)
H7A H 0.4848 -0.2364 0.3810
H8A H 0.6178 -0.2331 0.3891
H9A H 0.5558 -0.3653 0.4261
C10A C 0.2776(3) -0.2194(3) 0.9607(3)
H10A H 0.2562 -0.1513 0.9840
C11A C 0.3104(3) -0.3368(3) 1.0354(3)
H11A H 0.3165 -0.3670 1.1205
C12A C 0.3330(3) -0.4033(3) 0.9612(3)
H12A H 0.3567 -0.4891 0.9893
C13A C 0.0700(3) -0.0732(3) 0.6859(3)
H13A H 0.0433 -0.0020 0.7032
C14A C 0.0137(3) -0.1280(3) 0.6409(3)
H14A H -0.0592 -0.1028 0.6208
C15A C 0.0853(3) -0.2270(3) 0.6312(3)
H15A H 0.0676 -0.2830 0.6034
C16A C 1.1296(3) 0.3776(3) -0.3487(4)
H16A H 1.0853 0.2985 -0.3128
C17A C 1.1676(3) 0.4718(4) -0.4792(4)
H17A H 1.1545 0.4717 -0.5515
C18A C 1.2298(3) 0.5683(3) -0.4847(3)
H18A H 1.2675 0.6460 -0.5637
C19A C 1.3334(3) 0.2278(3) -0.0929(3)
H19A H 1.2990 0.1427 -0.0519
C20A C 1.4528(3) 0.2628(3) -0.1215(4)
H20A H 1.5174 0.2079 -0.1042
C21A C 1.4594(3) 0.3959(3) -0.1815(3)
H21A H 1.5320 0.4478 -0.2128
N1A N 0.3170(2) -0.3303(2) 0.8445(3)
N2A N 0.2811(2) -0.2175(2) 0.8473(3)
N3A N 0.1835(2) -0.2353(2) 0.6658(3)
N4A N 0.1705(2) -0.1395(2) 0.7008(3)
N5A N 1.2285(2) 0.5355(3) -0.3622(3)
N5A_2 N 0.2285(2) -0.4645(3) 0.6378(3)
N6A N 1.1666(2) 0.4178(2) -0.2803(3)
N7A N 1.3504(2) 0.4413(2) -0.1892(3)
N7A_2 N 0.3504(2) -0.5587(2) 0.8108(3)
N8A N 1.2732(2) 0.3358(2) -0.1331(3)
O1A O 0.4788(2) -0.3084(2) 0.5662(2)
H22A H 0.530(3) -0.310(4) 0.599(4)
B1 B 0.2485(4) 0.2986(4) 0.3266(5)
F1 F 0.3582(2) 0.3512(2) 0.3093(3)
F2 F 0.2772(2) 0.2383(3) 0.2479(3)
F3 F 0.1703(2) 0.3954(2) 0.2919(2)
F4 F 0.1897(2) 0.2126(2) 0.4604(2)
Si1 Si 1.0000 0.0000 0.0000
F5 F 0.97463(17) 0.12195(18) 0.03742(19)
F6 F 1.0432(2) -0.0892(2) 0.1339(2)
F7 F 0.85081(18) -0.05832(18) 0.1017(2)
F5A F 1.02537(17) -0.12195(18) -0.03742(19)
F6A F 0.9568(2) 0.0892(2) -0.1339(2)
F7A F 1.14919(18) 0.05832(18) -0.1017(2)
C22 C 0.2548(11) 0.9418(10) 0.2528(12)
H23 H 0.1811 0.9258 0.3351
H24 H 0.2535 1.0272 0.1810
H25 H 0.3306 0.9372 0.2707
O2 O 0.2535(6) 0.8484(6) 0.2121(7)
H26 H 0.1939 0.8690 0.1856
C23? C 0.2887(11) 0.9505(11) 0.2339(11)
H27? H 0.2521 1.0337 0.2141
H28? H 0.3779 0.9611 0.2133
H29? H 0.2464 0.8908 0.3297
H30? H 0.1996 0.8806 0.1727
O3? O 0.2738(5) 0.9010(6) 0.1535(6)
loop_
_geom_bond_atom_site_label_1
_geom_bond_atom_site_label_2
_geom_bond_site_symmetry_1
_geom_bond_site_symmetry_2
Cu1 N1 1_555 1_555
C1 H1 1_555 1_555
C2 C1 1_555 1_555
C3 C2 1_555 1_555
H2 C3 1_555 1_555
C4 C2 1_555 1_555
H3 C4 1_555 1_555
C5 H4 1_555 1_555
C6 C5 1_555 1_555
C7 C6 1_555 1_555
H5 C7 1_555 1_555
C8 C6 1_555 1_555
H6 C8 1_555 1_555
C9 H7 1_555 1_555
H8 C9 1_555 1_555
H9 C9 1_555 1_555
C10 H10 1_555 1_555
C11 C10 1_555 1_555
H11 C11 1_555 1_555
C12 C11 1_555 1_555
H12 C12 1_555 1_555
C13 H13 1_555 1_555
C14 C13 1_555 1_555
H14 C14 1_555 1_555
C15 C14 1_555 1_555
H15 C15 1_555 1_555
C16 H16 1_555 1_555
C17 C16 1_555 1_555
H17 C17 1_555 1_555
C18 C17 1_555 1_555
H18 C18 1_555 1_555
C19 H19 1_555 1_555
C20 C19 1_555 1_555
H20 C20 1_555 1_555
C21 C20 1_555 1_555
H21 C21 1_555 1_555
N1 C12 1_555 1_555
N2 C1 1_555 1_555
N3 Cu1 1_555 1_555
N4 C1 1_555 1_555
N5 Cu1 1_555 1_555
N6 C5 1_555 1_555
N7 Cu1 1_555 1_555
N8 C5 1_555 1_555
O1 Cu1 1_555 1_555
H22 O1 1_555 1_555
B1 F1 1_555 1_555
F2 B1 1_555 1_555
F3 B1 1_555 1_555
F4 B1 1_555 1_555
Si1 F5 1_555 1_555
F6 Si1 1_555 1_555
F7 Si1 1_555 1_555
C22 H23 1_555 1_555
H24 C22 1_555 1_555
H25 C22 1_555 1_555
O2 C22 1_555 1_555
H26 O2 1_555 1_555
Cu1A N1A 1_555 1_555
Cu1A_2 N5A 1_555 1_555
C1A H1A 1_555 1_555
C2A C1A 1_555 1_555
C3A C4 1_555 1_555
H2A C3A 1_555 1_555
C4A C3 1_555 1_555
H3A C4A 1_555 1_555
C5A H4A 1_555 1_555
C6A C5A 1_555 1_555
C7A C8 1_555 1_555
H5A C7A 1_555 1_555
C8A C7 1_555 1_555
H6A C8A 1_555 1_555
C9A H7A 1_555 1_555
H8A C9A 1_555 1_555
H9A C9A 1_555 1_555
C10A H10A 1_555 1_555
C11A C10A 1_555 1_555
H11A C11A 1_555 1_555
C12A C11A 1_555 1_555
H12A C12A 1_555 1_555
C13A H13A 1_555 1_555
C14A C13A 1_555 1_555
H14A C14A 1_555 1_555
C15A C14A 1_555 1_555
H15A C15A 1_555 1_555
C16A H16A 1_555 1_555
C17A C16A 1_555 1_555
H17A C17A 1_555 1_555
C18A C17A 1_555 1_555
H18A C18A 1_555 1_555
C19A H19A 1_555 1_555
C20A C19A 1_555 1_555
H20A C20A 1_555 1_555
C21A C20A 1_555 1_555
H21A C21A 1_555 1_555
N1A C12A 1_555 1_555
N2A C1A 1_555 1_555
N3A Cu1A 1_555 1_555
N4A C1A 1_555 1_555
N5A C18A 1_555 1_555
N5A_2 Cu1A 1_555 1_555
N6A C5A 1_555 1_555
N7A Cu1A_2 1_555 1_555
N7A_2 Cu1A 1_555 1_555
N8A C5A 1_555 1_555
O1A Cu1A 1_555 1_555
H22A O1A 1_555 1_555
F5A Si1 1_555 1_555
F6A Si1 1_555 1_555
F7A Si1 1_555 1_555
C9 O1 1_555 1_555
C10 N2 1_555 1_555
C13 N4 1_555 1_555
C15 N3 1_555 1_555
C16 N6 1_555 1_555
C18 N5 1_555 1_555
C19 N8 1_555 1_555
C21 N7 1_555 1_555
N1 N2 1_555 1_555
N3 N4 1_555 1_555
N5 N6 1_555 1_555
N7 N8 1_555 1_555
C2A C3A 1_555 1_555
C2A C4A 1_555 1_555
C6A C7A 1_555 1_555
C6A C8A 1_555 1_555
C9A O1A 1_555 1_555
C10A N2A 1_555 1_555
C13A N4A 1_555 1_555
C15A N3A 1_555 1_555
C16A N6A 1_555 1_555
C19A N8A 1_555 1_555
C21A N7A 1_555 1_555
N1A N2A 1_555 1_555
N3A N4A 1_555 1_555
N5A N6A 1_555 1_555
N7A N8A 1_555 1_555

#END
