
#######################################################################
#
#                 Cambridge Crystallographic Data Centre
#                                CCDC 
#
#######################################################################
#
# If this CIF has been generated from an entry in the Cambridge 
# Structural Database, then it will include bibliographic, chemical, 
# crystal, experimental, refinement or atomic coordinate data resulting 
# from the CCDC's data processing and validation procedures.
#
#######################################################################

data_ADEFOG
_symmetry_cell_setting           triclinic
_symmetry_space_group_name_H-M   'P -1'
_symmetry_Int_Tables_number      2
_space_group_name_Hall           '-P 1'
loop_
_symmetry_equiv_pos_site_id
_symmetry_equiv_pos_as_xyz
1 x,y,z
2 -x,-y,-z
_cell_length_a                   12.0337(9)
_cell_length_b                   12.2725(9)
_cell_length_c                   12.7401(9)
_cell_angle_alpha                107.5460(10)
_cell_angle_beta                 110.9060(10)
_cell_angle_gamma                103.4010(10)
_cell_volume                     1549.48
loop_
_atom_site_label
_atom_site_type_symbol
_atom_site_fract_x
_atom_site_fract_y
_atom_site_fract_z
Cu1 Cu 0.63404(4) 0.30561(4) 0.34787(4)
C1 C 0.3642(4) 0.1412(3) 0.0893(4)
H1 H 0.2741 0.1047 0.0210
C2 C 0.4381(4) 0.0686(3) 0.0453(3)
C3 C 0.4520(4) -0.0283(3) 0.0760(4)
H2 H 0.4188 -0.0476 0.1284
C4 C 0.4863(4) 0.0966(3) -0.0306(4)
H3 H 0.4769 0.1631 -0.0516
C5 C 0.7659(4) 0.5205(3) 0.6110(3)
H4 H 0.8124 0.5886 0.6966
C6 C 0.6270(3) 0.5096(3) 0.5530(3)
C7 C 0.5920(4) 0.5769(3) 0.4859(3)
H5 H 0.6552 0.6303 0.4766
C8 C 0.5355(4) 0.4330(3) 0.5680(4)
H6 H 0.5592 0.3874 0.6147
C9 C 0.2543(4) 0.0692(4) 0.2039(5)
H7 H 0.1682 0.0294 0.1394
C10 C 0.2964(4) 0.0731(4) 0.3192(5)
H8 H 0.2457 0.0372 0.3518
C11 C 0.4295(4) 0.1405(4) 0.3811(4)
H9 H 0.4845 0.1584 0.4644
C12 C 0.3665(4) 0.3299(4) 0.0489(4)
H10 H 0.2848 0.2953 -0.0220
C13 C 0.4535(4) 0.4483(4) 0.1026(4)
H11 H 0.4445 0.5127 0.0778
C14 C 0.5573(4) 0.4551(3) 0.2007(4)
H12 H 0.6329 0.5274 0.2555
C15 C 0.9350(4) 0.6470(4) 0.5743(4)
H13 H 0.9829 0.7158 0.6530
C16 C 0.9592(4) 0.6292(4) 0.4751(4)
H14 H 1.0264 0.6828 0.4702
C17 C 0.8652(4) 0.5167(4) 0.3829(4)
H15 H 0.8586 0.4795 0.3027
C18 C 0.8326(4) 0.3880(4) 0.7203(4)
H16 H 0.8768 0.4481 0.8039
C19 C 0.8157(4) 0.2654(4) 0.6794(4)
H17 H 0.8458 0.2237 0.7286
C20 C 0.7453(4) 0.2148(4) 0.5506(4)
H18 H 0.7193 0.1309 0.4966
N1 N 0.4678(3) 0.1756(3) 0.3070(3)
N2 N 0.3578(3) 0.1327(3) 0.1982(3)
N3 N 0.5378(3) 0.3464(3) 0.2087(3)
N4 N 0.4179(3) 0.2713(3) 0.1150(3)
N5 N 0.7855(3) 0.4676(3) 0.4212(3)
N6 N 0.8309(3) 0.5492(3) 0.5403(3)
N7 N 0.7196(3) 0.3006(3) 0.5138(3)
N8 N 0.7746(3) 0.4069(3) 0.6191(3)
O1 O 0.7330(3) 0.2115(3) 0.2610(3)
H19 H 0.737(5) 0.222(4) 0.201(3)
H20 H 0.749(5) 0.151(3) 0.261(4)
Cu1A Cu 0.36596(4) -0.30561(4) -0.34787(4)
Cu1A_2 Cu 0.36596(4) 0.69439(4) 0.65213(4)
C1A C 0.6358(4) -0.1412(3) -0.0893(4)
H1A H 0.7259 -0.1047 -0.0210
C2A C 0.5619(4) -0.0686(3) -0.0453(3)
C3A C 0.5480(4) 0.0283(3) -0.0760(4)
H2A H 0.5812 0.0476 -0.1284
C4A C 0.5137(4) -0.0966(3) 0.0306(4)
H3A H 0.5231 -0.1631 0.0516
C5A C 0.2341(4) 0.4795(3) 0.3890(3)
H4A H 0.1876 0.4114 0.3034
C6A C 0.3730(3) 0.4904(3) 0.4470(3)
C7A C 0.4080(4) 0.4231(3) 0.5141(3)
H5A H 0.3448 0.3697 0.5234
C8A C 0.4645(4) 0.5670(3) 0.4320(4)
H6A H 0.4408 0.6126 0.3853
C9A C 0.7457(4) -0.0692(4) -0.2039(5)
H7A H 0.8318 -0.0294 -0.1394
C10A C 0.7036(4) -0.0731(4) -0.3192(5)
H8A H 0.7543 -0.0372 -0.3518
C11A C 0.5705(4) -0.1405(4) -0.3811(4)
H9A H 0.5155 -0.1584 -0.4644
C12A C 0.6335(4) -0.3299(4) -0.0489(4)
H10A H 0.7152 -0.2953 0.0220
C13A C 0.5465(4) -0.4483(4) -0.1026(4)
H11A H 0.5555 -0.5127 -0.0778
C14A C 0.4427(4) -0.4551(3) -0.2007(4)
H12A H 0.3671 -0.5274 -0.2555
C15A C 0.0650(4) 0.3530(4) 0.4257(4)
H13A H 0.0171 0.2842 0.3470
C16A C 0.0408(4) 0.3708(4) 0.5249(4)
H14A H -0.0264 0.3172 0.5298
C17A C 0.1348(4) 0.4833(4) 0.6171(4)
H15A H 0.1414 0.5205 0.6973
C18A C 0.1674(4) 0.6120(4) 0.2797(4)
H16A H 0.1232 0.5519 0.1961
C19A C 0.1843(4) 0.7346(4) 0.3206(4)
H17A H 0.1542 0.7763 0.2714
C20A C 0.2547(4) 0.7852(4) 0.4494(4)
H18A H 0.2807 0.8691 0.5034
N1A N 0.5322(3) -0.1756(3) -0.3070(3)
N2A N 0.6422(3) -0.1327(3) -0.1982(3)
N3A N 0.4622(3) -0.3464(3) -0.2087(3)
N4A N 0.5821(3) -0.2713(3) -0.1150(3)
N5A N 0.2145(3) 0.5324(3) 0.5788(3)
N5A_2 N 0.2145(3) -0.4676(3) -0.4212(3)
N6A N 0.1691(3) 0.4508(3) 0.4597(3)
N7A N 0.2804(3) 0.6994(3) 0.4862(3)
N7A_2 N 0.2804(3) -0.3006(3) -0.5138(3)
N8A N 0.2254(3) 0.5931(3) 0.3809(3)
O1A O 0.2670(3) -0.2115(3) -0.2610(3)
H19A H 0.263(5) -0.222(4) -0.201(3)
H20A H 0.251(5) -0.151(3) -0.261(4)
C21 C 0.7364(5) 0.3490(5) 0.0142(5)
H21 H 0.6613 0.3630 0.0217
H22 H 0.7046 0.2824 -0.0689
C22 C 0.8231(5) 0.4626(5) 0.0255(5)
H23 H 0.8503 0.5302 0.1055
H24 H 0.7781 0.4835 -0.0418
H25 H 0.8988 0.4499 0.0204
O2 O 0.7996(3) 0.3092(3) 0.1088(3)
H26 H 0.847(4) 0.276(5) 0.096(4)
C23 C 0.9314(7) 0.0218(7) 0.3113(8)
H27 H 0.9894 0.0643 0.2848
H28 H 0.9517 0.0795 0.3952
C24 C 0.9560(6) -0.0862(5) 0.3176(5)
H29 H 0.8920 -0.1343 0.3338
H30 H 1.0423 -0.0606 0.3846
H31 H 0.9504 -0.1371 0.2386
O3 O 0.7987(4) -0.0066(4) 0.2261(4)
B1 B 0.6248(10) 0.8076(8) 0.3239(9)
F1 F 0.6239(10) 0.7633(8) 0.2093(7)
F2 F 0.7035(7) 0.7594(7) 0.3870(7)
F3 F 0.6450(8) 0.9322(5) 0.3396(8)
F4 F 0.5009(7) 0.7547(8) 0.3097(7)
B2? B 0.9586(10) 0.7733(10) 0.9565(10)
F5? F 0.9421(11) 0.8814(8) 1.0124(10)
F6? F 0.9883(11) 0.7893(10) 0.8636(10)
F7? F 0.8401(8) 0.6753(7) 0.8829(7)
F8? F 1.0406(9) 0.7460(8) 1.0450(7)
B3? B 0.9650(9) 0.7754(9) 0.9627(10)
F9? F 0.9169(10) 0.8587(9) 1.0111(10)
F10? F 1.0163(12) 0.8096(11) 0.8897(11)
F11? F 0.8740(8) 0.6571(6) 0.9032(6)
F12? F 1.0803(7) 0.7851(7) 1.0489(7)
B4? B 0.9637(14) 0.7921(13) 0.9406(13)
F13? F 0.9428(19) 0.8604(16) 1.0355(14)
F14? F 0.8900(19) 0.7855(19) 0.8252(14)
F15? F 1.0888(14) 0.8476(14) 0.9620(17)
F16? F 0.9437(19) 0.6726(12) 0.9315(16)
B5? B 0.6048(10) 0.8110(9) 0.3192(9)
C25? C 0.9014(18) -0.0088(15) 0.2621(16)
C26? C 0.9560(6) -0.0862(5) 0.3176(5)
F17? F 0.5885(11) 0.7479(8) 0.2018(7)
F18? F 0.4899(8) 0.7862(10) 0.3226(9)
F19? F 0.6887(8) 0.7898(9) 0.4105(8)
F20? F 0.6861(9) 0.9360(6) 0.3849(9)
H32? H 0.9711 0.0498 0.2592
H33? H 0.8357 -0.0635 0.1753
H34? H 1.0363 -0.0330 0.3939
H35? H 0.9733 -0.1434 0.2587
H36? H 0.8944 -0.1333 0.3368
O4? O 0.8424(10) 0.0625(10) 0.3231(11)
loop_
_geom_bond_atom_site_label_1
_geom_bond_atom_site_label_2
_geom_bond_site_symmetry_1
_geom_bond_site_symmetry_2
Cu1 N1 1_555 1_555
C1 H1 1_555 1_555
C2 C1 1_555 1_555
C3 C2 1_555 1_555
H2 C3 1_555 1_555
C4 C2 1_555 1_555
H3 C4 1_555 1_555
C5 H4 1_555 1_555
C6 C5 1_555 1_555
C7 C6 1_555 1_555
H5 C7 1_555 1_555
C8 C6 1_555 1_555
H6 C8 1_555 1_555
C9 H7 1_555 1_555
C10 C9 1_555 1_555
H8 C10 1_555 1_555
C11 C10 1_555 1_555
H9 C11 1_555 1_555
C12 H10 1_555 1_555
C13 C12 1_555 1_555
H11 C13 1_555 1_555
C14 C13 1_555 1_555
H12 C14 1_555 1_555
C15 H13 1_555 1_555
C16 C15 1_555 1_555
H14 C16 1_555 1_555
C17 C16 1_555 1_555
H15 C17 1_555 1_555
C18 H16 1_555 1_555
C19 C18 1_555 1_555
H17 C19 1_555 1_555
C20 C19 1_555 1_555
H18 C20 1_555 1_555
N1 C11 1_555 1_555
N2 C1 1_555 1_555
N3 Cu1 1_555 1_555
N4 C1 1_555 1_555
N5 Cu1 1_555 1_555
N6 C5 1_555 1_555
N7 Cu1 1_555 1_555
N8 C5 1_555 1_555
O1 Cu1 1_555 1_555
H19 O1 1_555 1_555
H20 O1 1_555 1_555
C21 H21 1_555 1_555
H22 C21 1_555 1_555
C22 C21 1_555 1_555
H23 C22 1_555 1_555
H24 C22 1_555 1_555
H25 C22 1_555 1_555
O2 C21 1_555 1_555
H26 O2 1_555 1_555
C23 H27 1_555 1_555
H28 C23 1_555 1_555
C24 C23 1_555 1_555
H29 C24 1_555 1_555
H30 C24 1_555 1_555
H31 C24 1_555 1_555
O3 C23 1_555 1_555
B1 F1 1_555 1_555
F2 B1 1_555 1_555
F3 B1 1_555 1_555
F4 B1 1_555 1_555
Cu1A N1A 1_555 1_555
Cu1A_2 N5A 1_555 1_555
C1A H1A 1_555 1_555
C2A C1A 1_555 1_555
C3A C4 1_555 1_555
H2A C3A 1_555 1_555
C4A C3 1_555 1_555
H3A C4A 1_555 1_555
C5A H4A 1_555 1_555
C6A C5A 1_555 1_555
C7A C8 1_555 1_555
H5A C7A 1_555 1_555
C8A C7 1_555 1_555
H6A C8A 1_555 1_555
C9A H7A 1_555 1_555
C10A C9A 1_555 1_555
H8A C10A 1_555 1_555
C11A C10A 1_555 1_555
H9A C11A 1_555 1_555
C12A H10A 1_555 1_555
C13A C12A 1_555 1_555
H11A C13A 1_555 1_555
C14A C13A 1_555 1_555
H12A C14A 1_555 1_555
C15A H13A 1_555 1_555
C16A C15A 1_555 1_555
H14A C16A 1_555 1_555
C17A C16A 1_555 1_555
H15A C17A 1_555 1_555
C18A H16A 1_555 1_555
C19A C18A 1_555 1_555
H17A C19A 1_555 1_555
C20A C19A 1_555 1_555
H18A C20A 1_555 1_555
N1A C11A 1_555 1_555
N2A C1A 1_555 1_555
N3A Cu1A 1_555 1_555
N4A C1A 1_555 1_555
N5A C17A 1_555 1_555
N5A_2 Cu1A 1_555 1_555
N6A C5A 1_555 1_555
N7A Cu1A_2 1_555 1_555
N7A_2 Cu1A 1_555 1_555
N8A C5A 1_555 1_555
O1A Cu1A 1_555 1_555
H19A O1A 1_555 1_555
H20A O1A 1_555 1_555
C9 N2 1_555 1_555
C12 N4 1_555 1_555
C14 N3 1_555 1_555
C15 N6 1_555 1_555
C17 N5 1_555 1_555
C18 N8 1_555 1_555
C20 N7 1_555 1_555
N1 N2 1_555 1_555
N3 N4 1_555 1_555
N5 N6 1_555 1_555
N7 N8 1_555 1_555
C2A C3A 1_555 1_555
C2A C4A 1_555 1_555
C6A C7A 1_555 1_555
C6A C8A 1_555 1_555
C9A N2A 1_555 1_555
C12A N4A 1_555 1_555
C14A N3A 1_555 1_555
C15A N6A 1_555 1_555
C18A N8A 1_555 1_555
C20A N7A 1_555 1_555
N1A N2A 1_555 1_555
N3A N4A 1_555 1_555
N5A N6A 1_555 1_555
N7A N8A 1_555 1_555

#END
