
#######################################################################
#
#                 Cambridge Crystallographic Data Centre
#                                CCDC 
#
#######################################################################
#
# If this CIF has been generated from an entry in the Cambridge 
# Structural Database, then it will include bibliographic, chemical, 
# crystal, experimental, refinement or atomic coordinate data resulting 
# from the CCDC's data processing and validation procedures.
#
#######################################################################

data_ADEGIA
_symmetry_cell_setting           triclinic
_symmetry_space_group_name_H-M   'P -1'
_symmetry_Int_Tables_number      2
_space_group_name_Hall           '-P 1'
loop_
_symmetry_equiv_pos_site_id
_symmetry_equiv_pos_as_xyz
1 x,y,z
2 -x,-y,-z
_cell_length_a                   8.6066(17)
_cell_length_b                   10.156(2)
_cell_length_c                   11.161(2)
_cell_angle_alpha                65.26(3)
_cell_angle_beta                 71.76(3)
_cell_angle_gamma                78.68(3)
_cell_volume                     839.092
loop_
_atom_site_label
_atom_site_type_symbol
_atom_site_fract_x
_atom_site_fract_y
_atom_site_fract_z
C1 C 0.0684(3) 0.2348(2) 0.5526(2)
C2 C 0.0326(3) 0.1144(2) 0.5236(2)
C3 C 0.0428(3) 0.1312(3) 0.3915(3)
H1 H 0.0713 0.2186 0.3189
C4 C -0.0100(3) -0.0164(3) 0.6313(3)
H2 H -0.0167 -0.0274 0.7197
C5 C 0.3254(3) 0.2320(2) 0.8199(2)
C6 C 0.4174(3) 0.1110(2) 0.9111(2)
C7 C 0.5801(3) 0.0691(3) 0.8640(3)
H3 H 0.6347 0.1151 0.7727
C8 C 0.3380(3) 0.0411(3) 1.0482(3)
H4 H 0.2287 0.0688 1.0811
C9 C -0.1789(3) 0.4611(2) 0.8309(2)
C10 C -0.3452(3) 0.4823(3) 0.9176(2)
C11 C -0.4747(3) 0.4133(3) 0.9270(3)
H5 H -0.4575 0.3549 0.8777
C12 C -0.3704(3) 0.5698(3) 0.9910(3)
H6 H -0.2840 0.6166 0.9852
C13 C 0.2424(5) 0.6720(3) 0.7523(4)
H7 H 0.1506 0.6525 0.8266
C14 C 0.4844(9) 0.7975(7) 0.6216(7)
H8 H 0.5395 0.8720 0.6198
H9 H 0.4566 0.8284 0.5364
H10 H 0.5553 0.7097 0.6350
C15 C 0.2894(9) 0.8514(5) 0.8222(7)
H11 H 0.3697 0.9192 0.7943
H12 H 0.2836 0.7846 0.9146
H13 H 0.1841 0.9032 0.8166
N1 N 0.3361(5) 0.7709(3) 0.7323(4)
O1 O 0.0362(2) 0.36646(17) 0.48056(17)
O2 O 0.1311(3) 0.20219(19) 0.6491(2)
O3 O 0.3181(3) 0.5427(3) 0.4320(2)
O4 O 0.3978(2) 0.29960(19) 0.69548(18)
O5 O 0.1783(2) 0.2650(2) 0.86895(18)
O6 O -0.1569(2) 0.38106(18) 0.76416(17)
O7 O -0.0631(2) 0.52337(19) 0.82501(18)
O8 O 0.2694(3) 0.6039(2) 0.6784(2)
Gd1 Gd 0.131860(13) 0.439754(11) 0.653288(11)
H14 H 0.394(4) 0.580(3) 0.405(3)
H15 H 0.287(4) 0.562(3) 0.374(3)
C1A C -0.0684(3) -0.2348(2) 0.4474(2)
C2A C -0.0326(3) -0.1144(2) 0.4764(2)
C3A C -0.0428(3) -0.1312(3) 0.6085(3)
H1A H -0.0713 -0.2186 0.6811
C4A C 0.0100(3) 0.0164(3) 0.3687(3)
H2A H 0.0167 0.0274 0.2803
C5A C 0.6746(3) -0.2320(2) 1.1801(2)
C6A C 0.5826(3) -0.1110(2) 1.0889(2)
C7A C 0.4199(3) -0.0691(3) 1.1360(3)
H3A H 0.3653 -0.1151 1.2273
C8A C 0.6620(3) -0.0411(3) 0.9518(3)
H4A H 0.7713 -0.0688 0.9189
C9A C -0.8211(3) 0.5389(2) 1.1691(2)
C10A C -0.6548(3) 0.5177(3) 1.0824(2)
C11A C -0.5253(3) 0.5867(3) 1.0730(3)
H5A H -0.5425 0.6451 1.1223
C12A C -0.6296(3) 0.4302(3) 1.0090(3)
H6A H -0.7160 0.3834 1.0148
C13A C -0.2424(5) -0.6720(3) 0.2477(4)
H7A H -0.1506 -0.6525 0.1734
C14A C -0.4844(9) -0.7975(7) 0.3784(7)
H8A H -0.5395 -0.8720 0.3802
H9A H -0.4566 -0.8284 0.4636
H10A H -0.5553 -0.7097 0.3650
C15A C -0.2894(9) -0.8514(5) 0.1778(7)
H11A H -0.3697 -0.9192 0.2057
H12A H -0.2836 -0.7846 0.0854
H13A H -0.1841 -0.9032 0.1834
N1A N -0.3361(5) -0.7709(3) 0.2677(4)
O1A O -0.0362(2) -0.36646(17) 0.51944(17)
O1A_2 O -0.0362(2) 0.63354(17) 0.51944(17)
O1_2 O 0.0362(2) -0.63354(17) 0.48056(17)
O2A O -0.1311(3) -0.20219(19) 0.3509(2)
O3A O -0.3181(3) -0.5427(3) 0.5680(2)
O4A O 0.6022(2) -0.29960(19) 1.30452(18)
O4A_2 O -0.3978(2) -0.29960(19) 0.30452(18)
O5A O 0.8217(2) -0.2650(2) 1.13105(18)
O5A_2 O -0.1783(2) -0.2650(2) 0.13105(18)
O6A O -0.8431(2) 0.61894(18) 1.23584(17)
O6A_2 O 0.1569(2) -0.38106(18) 0.23584(17)
O7A O -0.9369(2) 0.47663(19) 1.17499(18)
O7A_2 O 0.0631(2) -0.52337(19) 0.17499(18)
O8A O -0.2694(3) -0.6039(2) 0.3216(2)
Gd1A Gd -0.131860(13) -0.439754(11) 0.346712(11)
Gd1A_2 Gd -0.131860(13) 0.560246(11) 0.346712(11)
Gd1_2 Gd 0.131860(13) -0.560246(11) 0.653288(11)
Gd1A_3 Gd 0.868140(13) -0.439754(11) 1.346712(11)
Gd1A_4 Gd -1.131860(13) 0.560246(11) 1.346712(11)
H14A H -0.394(4) -0.580(3) 0.595(3)
H15A H -0.287(4) -0.562(3) 0.626(3)
loop_
_geom_bond_atom_site_label_1
_geom_bond_atom_site_label_2
_geom_bond_site_symmetry_1
_geom_bond_site_symmetry_2
C1 C2 1_555 1_555
C2 C3 1_555 1_555
C3 H1 1_555 1_555
C4 C2 1_555 1_555
H2 C4 1_555 1_555
C5 C6 1_555 1_555
C6 C7 1_555 1_555
C7 H3 1_555 1_555
C8 C6 1_555 1_555
H4 C8 1_555 1_555
C9 C10 1_555 1_555
C10 C11 1_555 1_555
C11 H5 1_555 1_555
C12 C10 1_555 1_555
H6 C12 1_555 1_555
C13 H7 1_555 1_555
C14 H8 1_555 1_555
H9 C14 1_555 1_555
H10 C14 1_555 1_555
C15 H11 1_555 1_555
H12 C15 1_555 1_555
H13 C15 1_555 1_555
N1 C13 1_555 1_555
O1 C1 1_555 1_555
O2 C1 1_555 1_555
O3 Gd1 1_555 1_555
O4 C5 1_555 1_555
O5 C5 1_555 1_555
O6 C9 1_555 1_555
O7 C9 1_555 1_555
O8 C13 1_555 1_555
Gd1 O1 1_555 1_555
H14 O3 1_555 1_555
H15 O3 1_555 1_555
C1A C2A 1_555 1_555
C2A C3A 1_555 1_555
C3A C4 1_555 1_555
H1A C3A 1_555 1_555
C4A C3 1_555 1_555
H2A C4A 1_555 1_555
C5A C6A 1_555 1_555
C6A C7A 1_555 1_555
C7A C8 1_555 1_555
H3A C7A 1_555 1_555
C8A C7 1_555 1_555
H4A C8A 1_555 1_555
C9A C10A 1_555 1_555
C10A C11A 1_555 1_555
C11A C12 1_555 1_555
H5A C11A 1_555 1_555
C12A C11 1_555 1_555
H6A C12A 1_555 1_555
C13A H7A 1_555 1_555
C14A H8A 1_555 1_555
H9A C14A 1_555 1_555
H10A C14A 1_555 1_555
C15A H11A 1_555 1_555
H12A C15A 1_555 1_555
H13A C15A 1_555 1_555
N1A C13A 1_555 1_555
O1A C1A 1_555 1_555
O1A_2 Gd1 1_555 1_555
O1_2 Gd1A 1_555 1_555
O2A C1A 1_555 1_555
O3A Gd1A 1_555 1_555
O4A C5A 1_555 1_555
O4A_2 Gd1A 1_555 1_555
O5A C5A 1_555 1_555
O5A_2 Gd1A 1_555 1_555
O6A C9A 1_555 1_555
O6A_2 Gd1A 1_555 1_555
O7A C9A 1_555 1_555
O7A_2 Gd1A 1_555 1_555
O8A C13A 1_555 1_555
Gd1A O1A 1_555 1_555
Gd1A_2 O1 1_555 1_555
Gd1_2 O1A 1_555 1_555
Gd1A_3 O4A 1_555 1_555
Gd1A_4 O6A 1_555 1_555
H14A O3A 1_555 1_555
H15A O3A 1_555 1_555
C14 N1 1_555 1_555
C15 N1 1_555 1_555
O2 Gd1 1_555 1_555
O4 Gd1 1_555 1_555
O5 Gd1 1_555 1_555
O6 Gd1 1_555 1_555
O7 Gd1 1_555 1_555
O8 Gd1 1_555 1_555
C2A C4A 1_555 1_555
C6A C8A 1_555 1_555
C10A C12A 1_555 1_555
C14A N1A 1_555 1_555
C15A N1A 1_555 1_555
O1A_2 Gd1A_2 1_555 1_555
O1_2 Gd1_2 1_555 1_555
O2A Gd1A 1_555 1_555
O5A Gd1A_3 1_555 1_555
O7A Gd1A_4 1_555 1_555
O8A Gd1A 1_555 1_555

#END
