
#######################################################################
#
#                 Cambridge Crystallographic Data Centre
#                                CCDC 
#
#######################################################################
#
# If this CIF has been generated from an entry in the Cambridge 
# Structural Database, then it will include bibliographic, chemical, 
# crystal, experimental, refinement or atomic coordinate data resulting 
# from the CCDC's data processing and validation procedures.
#
#######################################################################

data_ADEGIA01
_symmetry_cell_setting           triclinic
_symmetry_space_group_name_H-M   'P -1'
_symmetry_Int_Tables_number      2
_space_group_name_Hall           '-P 1'
loop_
_symmetry_equiv_pos_site_id
_symmetry_equiv_pos_as_xyz
1 x,y,z
2 -x,-y,-z
_cell_length_a                   8.6006(17)
_cell_length_b                   10.173(2)
_cell_length_c                   11.125(2)
_cell_angle_alpha                65.11(3)
_cell_angle_beta                 71.80(3)
_cell_angle_gamma                78.86(3)
_cell_volume                     836.632
loop_
_atom_site_label
_atom_site_type_symbol
_atom_site_fract_x
_atom_site_fract_y
_atom_site_fract_z
Gd1 Gd 0.131876(18) 0.439422(15) 0.653709(14)
O1 O 0.0346(4) 0.3680(3) 0.4793(3)
O2 O 0.1319(5) 0.2042(4) 0.6471(4)
O3 O -0.1557(3) 0.3803(3) 0.7643(3)
O4 O -0.0609(4) 0.5226(3) 0.8258(3)
O5 O 0.1789(4) 0.2648(3) 0.8685(3)
O6 O 0.3979(4) 0.3003(3) 0.6944(3)
O7 O 0.3173(4) 0.5415(4) 0.4311(3)
H1 H 0.3616 0.6118 0.4267
H2 H 0.3912 0.4767 0.4179
O8 O 0.2717(4) 0.6024(4) 0.6778(4)
N1 N 0.3415(7) 0.7705(5) 0.7280(6)
C1 C 0.2471(8) 0.6714(6) 0.7477(6)
H3 H 0.1542 0.6538 0.8214
C2 C 0.4889(13) 0.7982(11) 0.6140(10)
H4 H 0.4977 0.7355 0.5672
H5 H 0.5836 0.7797 0.6485
H6 H 0.4825 0.8977 0.5514
C3 C 0.2992(16) 0.8536(7) 0.8144(12)
H7 H 0.1970 0.8248 0.8815
H8 H 0.2888 0.9553 0.7587
H9 H 0.3839 0.8355 0.8599
C4 C 0.0679(5) 0.2359(4) 0.5523(4)
C5 C 0.0342(5) 0.1147(4) 0.5229(4)
C6 C -0.0073(5) -0.0158(4) 0.6305(4)
H10 H -0.1055 -0.0001 0.6951
C7 C 0.0429(6) 0.1327(4) 0.3903(4)
H11 H -0.0339 0.2107 0.3544
C8 C -0.1790(5) 0.4600(4) 0.8326(4)
C9 C -0.3451(5) 0.4818(4) 0.9177(4)
C10 C -0.4736(5) 0.4092(5) 0.9285(4)
H12 H -0.4892 0.4368 0.8391
C11 C -0.3698(5) 0.5695(5) 0.9923(4)
H13 H -0.3408 0.6661 0.9298
C12 C 0.3259(5) 0.2320(4) 0.8193(5)
C13 C 0.4177(5) 0.1116(4) 0.9102(4)
C14 C 0.3378(6) 0.0402(5) 1.0481(5)
H14 H 0.3030 0.1093 1.0909
C15 C 0.5812(6) 0.0704(5) 0.8621(4)
H15 H 0.6459 0.1517 0.8289
O1A O -0.0346(4) -0.3680(3) 0.5207(3)
O2A O -0.1319(5) -0.2042(4) 0.3529(4)
C4A C -0.0679(5) -0.2359(4) 0.4477(4)
C5A C -0.0342(5) -0.1147(4) 0.4771(4)
C6A C 0.0073(5) 0.0158(4) 0.3695(4)
H10A H 0.1055 0.0001 0.3049
C7A C -0.0429(6) -0.1327(4) 0.6097(4)
H11A H 0.0339 -0.2107 0.6456
O3A O -0.8443(3) 0.6197(3) 1.2357(3)
O4A O -0.9391(4) 0.4774(3) 1.1742(3)
C8A C -0.8210(5) 0.5400(4) 1.1674(4)
C9A C -0.6549(5) 0.5182(4) 1.0823(4)
C10A C -0.5264(5) 0.5908(5) 1.0715(4)
H12A H -0.5108 0.5632 1.1609
C11A C -0.6302(5) 0.4305(5) 1.0077(4)
H13A H -0.6592 0.3339 1.0702
O5A O 0.8211(4) -0.2648(3) 1.1315(3)
O6A O 0.6021(4) -0.3003(3) 1.3056(3)
C12A C 0.6741(5) -0.2320(4) 1.1807(5)
C13A C 0.5823(5) -0.1116(4) 1.0898(4)
C14A C 0.6622(6) -0.0402(5) 0.9519(5)
H14A H 0.6970 -0.1093 0.9091
C15A C 0.4188(6) -0.0704(5) 1.1379(4)
H15A H 0.3541 -0.1517 1.1711
Gd1A Gd -1.131876(18) 0.560578(15) 1.346291(14)
O7A O -1.3173(4) 0.4585(4) 1.5689(3)
H1A H -1.3616 0.3882 1.5733
H2A H -1.3912 0.5233 1.5821
O8A O -1.2717(4) 0.3976(4) 1.3222(4)
N1A N -1.3415(7) 0.2295(5) 1.2720(6)
C1A C -1.2471(8) 0.3286(6) 1.2523(6)
H3A H -1.1542 0.3462 1.1786
C2A C -1.4889(13) 0.2018(11) 1.3860(10)
H4A H -1.4977 0.2645 1.4328
H5A H -1.5836 0.2203 1.3515
H6A H -1.4825 0.1023 1.4486
C3A C -1.2992(16) 0.1464(7) 1.1856(12)
H7A H -1.1970 0.1752 1.1185
H8A H -1.2888 0.0447 1.2413
H9A H -1.3839 0.1645 1.1401
Gd1_2 Gd 0.131876(18) -0.560578(15) 0.653709(14)
Gd1A_2 Gd -0.131876(18) -0.439422(15) 0.346291(14)
Gd1A_3 Gd -0.131876(18) 0.560578(15) 0.346291(14)
Gd1A_4 Gd 0.868124(18) -0.439422(15) 1.346291(14)
O1_2 O -0.9654(4) 0.3680(3) 1.4793(3)
O1A_2 O -1.0346(4) 0.6320(3) 1.5207(3)
O1A_3 O -0.0346(4) 0.6320(3) 0.5207(3)
O2A_2 O -1.1319(5) 0.7958(4) 1.3529(4)
O5A_2 O -1.1789(4) 0.7352(3) 1.1315(3)
O6A_2 O -1.3979(4) 0.6997(3) 1.3056(3)
loop_
_geom_bond_atom_site_label_1
_geom_bond_atom_site_label_2
_geom_bond_site_symmetry_1
_geom_bond_site_symmetry_2
Gd1 O1 1_555 1_555
O1 C4 1_555 1_555
O2 Gd1 1_555 1_555
O3 Gd1 1_555 1_555
O4 Gd1 1_555 1_555
O5 Gd1 1_555 1_555
O6 Gd1 1_555 1_555
O7 Gd1 1_555 1_555
H1 O7 1_555 1_555
H2 O7 1_555 1_555
O8 Gd1 1_555 1_555
N1 C1 1_555 1_555
C1 O8 1_555 1_555
H3 C1 1_555 1_555
C2 N1 1_555 1_555
H4 C2 1_555 1_555
H5 C2 1_555 1_555
H6 C2 1_555 1_555
C3 N1 1_555 1_555
H7 C3 1_555 1_555
H8 C3 1_555 1_555
H9 C3 1_555 1_555
C4 O2 1_555 1_555
C5 C4 1_555 1_555
C6 C5 1_555 1_555
H10 C6 1_555 1_555
C7 C5 1_555 1_555
H11 C7 1_555 1_555
C8 O3 1_555 1_555
C9 C8 1_555 1_555
C10 C9 1_555 1_555
H12 C10 1_555 1_555
C11 C9 1_555 1_555
H13 C11 1_555 1_555
C12 O5 1_555 1_555
C13 C12 1_555 1_555
C14 C13 1_555 1_555
H14 C14 1_555 1_555
C15 C13 1_555 1_555
H15 C15 1_555 1_555
O1A C4A 1_555 1_555
O2A C4A 1_555 1_555
C4A C5A 1_555 1_555
C5A C6A 1_555 1_555
C6A C7 1_555 1_555
H10A C6A 1_555 1_555
C7A C6 1_555 1_555
H11A C7A 1_555 1_555
O3A C8A 1_555 1_555
O4A C8A 1_555 1_555
C8A C9A 1_555 1_555
C9A C10A 1_555 1_555
C10A C11 1_555 1_555
H12A C10A 1_555 1_555
C11A C10 1_555 1_555
H13A C11A 1_555 1_555
O5A C12A 1_555 1_555
O6A C12A 1_555 1_555
C12A C13A 1_555 1_555
C13A C14A 1_555 1_555
C14A C15 1_555 1_555
H14A C14A 1_555 1_555
C15A C14 1_555 1_555
H15A C15A 1_555 1_555
Gd1A O3A 1_555 1_555
O7A Gd1A 1_555 1_555
H1A O7A 1_555 1_555
H2A O7A 1_555 1_555
O8A Gd1A 1_555 1_555
N1A C1A 1_555 1_555
C1A O8A 1_555 1_555
H3A C1A 1_555 1_555
C2A N1A 1_555 1_555
H4A C2A 1_555 1_555
H5A C2A 1_555 1_555
H6A C2A 1_555 1_555
C3A N1A 1_555 1_555
H7A C3A 1_555 1_555
H8A C3A 1_555 1_555
H9A C3A 1_555 1_555
Gd1_2 O1A 1_555 1_555
Gd1A_2 O1A 1_555 1_555
Gd1A_3 O1 1_555 1_555
Gd1A_4 O5A 1_555 1_555
O1_2 Gd1A 1_555 1_555
O1A_2 Gd1A 1_555 1_555
O1A_3 Gd1 1_555 1_555
O2A_2 Gd1A 1_555 1_555
O5A_2 Gd1A 1_555 1_555
O6A_2 Gd1A 1_555 1_555
O4 C8 1_555 1_555
O6 C12 1_555 1_555
O2A Gd1A_2 1_555 1_555
C5A C7A 1_555 1_555
O4A Gd1A 1_555 1_555
C9A C11A 1_555 1_555
O6A Gd1A_4 1_555 1_555
C13A C15A 1_555 1_555
Gd1A_3 O1A_3 1_555 1_555

#END
