
#######################################################################
#
#                 Cambridge Crystallographic Data Centre
#                                CCDC 
#
#######################################################################
#
# If this CIF has been generated from an entry in the Cambridge 
# Structural Database, then it will include bibliographic, chemical, 
# crystal, experimental, refinement or atomic coordinate data resulting 
# from the CCDC's data processing and validation procedures.
#
#######################################################################

data_ADEJEA
_symmetry_cell_setting           orthorhombic
_symmetry_space_group_name_H-M   'P 21 21 21'
_symmetry_Int_Tables_number      19
_space_group_name_Hall           'P 2ac 2ab'
loop_
_symmetry_equiv_pos_site_id
_symmetry_equiv_pos_as_xyz
1 x,y,z
2 1/2-x,-y,1/2+z
3 -x,1/2+y,1/2-z
4 1/2+x,1/2-y,-z
_cell_length_a                   7.3647(16)
_cell_length_b                   19.050(2)
_cell_length_c                   21.0189(19)
_cell_angle_alpha                90
_cell_angle_beta                 90
_cell_angle_gamma                90
_cell_volume                     2948.9
loop_
_atom_site_label
_atom_site_type_symbol
_atom_site_fract_x
_atom_site_fract_y
_atom_site_fract_z
Cu1 Cu 0.25500(12) 0.06220(3) 0.23338(2)
Cu2 Cu 0.07210(9) -0.21054(3) -0.05491(3)
N1 N 0.2291(7) 0.01819(19) 0.04177(17)
H1 H 0.2285 0.0260 0.0015
C1 C 0.2338(8) 0.0676(3) 0.0873(2)
N2 N 0.2381(8) 0.0372(2) 0.14368(17)
C2 C 0.2334(9) -0.0349(2) 0.1333(2)
C3 C 0.2253(7) -0.0474(2) 0.07008(19)
C4 C 0.2404(11) 0.1444(3) 0.0748(2)
H2 H 0.2436 0.1693 0.1145
H3 H 0.1345 0.1582 0.0512
H4 H 0.3473 0.1553 0.0506
C5 C 0.2133(7) -0.1136(2) 0.0326(2)
H5 H 0.2058 -0.1529 0.0618
H6 H 0.3237 -0.1190 0.0079
N3 N 0.0537(6) -0.11586(18) -0.01144(17)
H7 H 0.0645 -0.0812 -0.0410
C6 C -0.1254(7) -0.1097(2) 0.0210(2)
H8 H -0.1076 -0.0888 0.0632
C7 C -0.2039(7) -0.1827(2) 0.0287(2)
O1 O -0.1285(5) -0.23357(16) 0.00076(15)
O2 O -0.3449(5) -0.18998(17) 0.06128(18)
C8 C -0.2554(8) -0.0638(3) -0.0173(3)
H9 H -0.3782 -0.0727 -0.0027
H10 H -0.2490 -0.0780 -0.0616
C9 C -0.2192(9) 0.0158(3) -0.0134(3)
H11 H -0.0920 0.0243 -0.0248
C10 C -0.2520(12) 0.0449(3) 0.0528(4)
H12 H -0.1753 0.0209 0.0827
H13 H -0.3769 0.0379 0.0643
H14 H -0.2246 0.0941 0.0533
C11 C -0.3403(11) 0.0529(4) -0.0627(5)
H15 H -0.3196 0.1026 -0.0609
H16 H -0.4655 0.0432 -0.0535
H17 H -0.3115 0.0359 -0.1045
C12 C 0.2398(11) -0.0832(3) 0.1904(2)
H18 H 0.1192 -0.1002 0.2006
H19 H 0.3180 -0.1231 0.1820
N4 N 0.3144(7) -0.0394(2) 0.24408(17)
H20 H 0.4375 -0.0429 0.2417
C13 C 0.2624(9) -0.0633(2) 0.3096(2)
H21 H 0.1332 -0.0754 0.3085
C14 C 0.2829(8) 0.0019(3) 0.3527(2)
O3 O 0.2712(7) 0.06182(18) 0.32538(15)
O4 O 0.3056(6) -0.0049(2) 0.41024(16)
C15 C 0.3649(9) -0.1278(3) 0.3323(3)
H22 H 0.3874 -0.1578 0.2958
H23 H 0.4820 -0.1128 0.3485
C16 C 0.2725(13) -0.1709(3) 0.3830(3)
H24 H 0.2392 -0.1389 0.4176
C17 C 0.4037(17) -0.2242(4) 0.4100(4)
H25 H 0.3440 -0.2513 0.4423
H26 H 0.5061 -0.2003 0.4281
H27 H 0.4445 -0.2548 0.3766
C18 C 0.0990(16) -0.2054(5) 0.3596(5)
H28 H 0.0191 -0.1701 0.3428
H29 H 0.0406 -0.2290 0.3944
H30 H 0.1276 -0.2387 0.3269
O5 O 0.5388(9) 0.1140(3) 0.2194(3)
H31 H 0.614(4) 0.083(2) 0.233(4)
H32 H 0.544(6) 0.147(3) 0.246(3)
O6 O 0.1395(6) 0.1567(2) 0.2308(2)
H33 H 0.193(4) 0.1964(10) 0.235(3)
H34 H 0.026(2) 0.1656(18) 0.235(4)
O7 O 0.2628(6) -0.17999(18) -0.11224(15)
H35 H 0.2608 -0.1332 -0.1315
H36 H 0.3763 -0.2042 -0.1201
N5 N -0.2717(9) -0.2111(3) -0.1549(2)
O8 O -0.1078(7) -0.2184(4) -0.1460(2)
O9 O -0.3176(10) -0.1814(6) -0.2027(4)
O10 O -0.3846(9) -0.2313(5) -0.1202(4)
Cu2C Cu -0.42790(9) -0.28946(3) 0.05491(3)
O2C O 0.1551(5) -0.31002(17) -0.06128(18)
N6 N -0.1995(13) -0.0303(6) 0.2367(5)
O11 O -0.1742(13) -0.0898(5) 0.2603(5)
O12 O -0.3204(13) -0.0317(7) 0.1968(5)
O13 O -0.0944(11) 0.0181(4) 0.2460(4)
O14 O 0.3258(11) 0.2732(3) 0.2634(3)
H37 H 0.338(15) 0.301(4) 0.232(3)
H38 H 0.278(15) 0.298(4) 0.293(3)
loop_
_geom_bond_atom_site_label_1
_geom_bond_atom_site_label_2
_geom_bond_site_symmetry_1
_geom_bond_site_symmetry_2
Cu1 N2 1_555 1_555
Cu2 N3 1_555 1_555
N1 H1 1_555 1_555
C1 N1 1_555 1_555
N2 C1 1_555 1_555
C2 N2 1_555 1_555
C3 N1 1_555 1_555
C4 C1 1_555 1_555
H2 C4 1_555 1_555
H3 C4 1_555 1_555
H4 C4 1_555 1_555
C5 C3 1_555 1_555
H5 C5 1_555 1_555
H6 C5 1_555 1_555
N3 C5 1_555 1_555
H7 N3 1_555 1_555
C6 N3 1_555 1_555
H8 C6 1_555 1_555
C7 C6 1_555 1_555
O1 Cu2 1_555 1_555
O2 C7 1_555 1_555
C8 C6 1_555 1_555
H9 C8 1_555 1_555
H10 C8 1_555 1_555
C9 C8 1_555 1_555
H11 C9 1_555 1_555
C10 C9 1_555 1_555
H12 C10 1_555 1_555
H13 C10 1_555 1_555
H14 C10 1_555 1_555
C11 C9 1_555 1_555
H15 C11 1_555 1_555
H16 C11 1_555 1_555
H17 C11 1_555 1_555
C12 C2 1_555 1_555
H18 C12 1_555 1_555
H19 C12 1_555 1_555
N4 Cu1 1_555 1_555
H20 N4 1_555 1_555
C13 N4 1_555 1_555
H21 C13 1_555 1_555
C14 C13 1_555 1_555
O3 Cu1 1_555 1_555
O4 C14 1_555 1_555
C15 C13 1_555 1_555
H22 C15 1_555 1_555
H23 C15 1_555 1_555
C16 C15 1_555 1_555
H24 C16 1_555 1_555
C17 C16 1_555 1_555
H25 C17 1_555 1_555
H26 C17 1_555 1_555
H27 C17 1_555 1_555
C18 C16 1_555 1_555
H28 C18 1_555 1_555
H29 C18 1_555 1_555
H30 C18 1_555 1_555
O5 Cu1 1_555 1_555
H31 O5 1_555 1_555
H32 O5 1_555 1_555
O6 Cu1 1_555 1_555
H33 O6 1_555 1_555
H34 O6 1_555 1_555
O7 Cu2 1_555 1_555
H35 O7 1_555 1_555
H36 O7 1_555 1_555
N5 O8 1_555 1_555
O8 Cu2 1_555 1_555
O9 N5 1_555 1_555
O10 N5 1_555 1_555
N6 O11 1_555 1_555
O12 N6 1_555 1_555
O13 N6 1_555 1_555
O14 H37 1_555 1_555
H38 O14 1_555 1_555
Cu2C O2 1_555 1_555
O2C Cu2 1_555 1_555
C2 C3 1_555 1_555
C7 O1 1_555 1_555
C12 N4 1_555 1_555
C14 O3 1_555 1_555

#END
