
#######################################################################
#
#                 Cambridge Crystallographic Data Centre
#                                CCDC 
#
#######################################################################
#
# If this CIF has been generated from an entry in the Cambridge 
# Structural Database, then it will include bibliographic, chemical, 
# crystal, experimental, refinement or atomic coordinate data resulting 
# from the CCDC's data processing and validation procedures.
#
#######################################################################

data_ADETEJ01
_symmetry_cell_setting           monoclinic
_symmetry_space_group_name_H-M   'P 21/n'
_symmetry_Int_Tables_number      14
_space_group_name_Hall           '-P 2yn'
loop_
_symmetry_equiv_pos_site_id
_symmetry_equiv_pos_as_xyz
1 x,y,z
2 1/2-x,1/2+y,1/2-z
3 -x,-y,-z
4 1/2+x,1/2-y,1/2+z
_cell_length_a                   9.7452(9)
_cell_length_b                   22.736(2)
_cell_length_c                   9.8229(9)
_cell_angle_alpha                90
_cell_angle_beta                 99.9290(10)
_cell_angle_gamma                90
_cell_volume                     2143.83
loop_
_atom_site_label
_atom_site_type_symbol
_atom_site_fract_x
_atom_site_fract_y
_atom_site_fract_z
Gd1 Gd 0.48103(2) -0.001416(6) 0.756296(16)
O1 O 0.5110(2) -0.10715(10) 0.7162(2)
O2 O 0.6579(3) -0.06669(10) 0.8855(2)
O3 O 0.6045(3) 0.07807(11) 0.8677(3)
O4 O 0.6321(3) 0.04070(10) 1.0772(2)
O5 O 0.3013(2) -0.02717(11) 0.5757(2)
O6 O 0.3455(3) 0.01127(10) 0.3812(3)
O7 O 0.4562(3) 0.08529(12) 0.5952(3)
N1 N 0.8302(4) -0.33828(15) 0.9747(4)
N2 N 0.8896(5) 0.2944(2) 1.2243(6)
N3 N -0.2854(3) -0.07233(15) 0.1872(3)
C1 C 0.6689(4) -0.17062(15) 0.8589(3)
C2 C 0.5913(4) -0.22102(16) 0.8202(4)
H1 H 0.5029 -0.2175 0.7671
C3 C 0.6426(4) -0.27587(16) 0.8588(4)
H2 H 0.5886 -0.3090 0.8324
C4 C 0.7748(4) -0.28211(16) 0.9373(4)
C5 C 0.8524(4) -0.23215(17) 0.9771(4)
H3 H 0.9409 -0.2357 1.0301
C6 C 0.7997(4) -0.17704(16) 0.9389(4)
H4 H 0.8527 -0.1438 0.9673
C7 C 0.6111(4) -0.11191(15) 0.8181(3)
C8 C 0.7193(4) 0.13653(16) 1.0518(3)
C9 C 0.7796(4) 0.13997(16) 1.1910(4)
H5 H 0.7795 0.1071 1.2472
C10 C 0.8396(4) 0.19167(17) 1.2463(4)
H6 H 0.8820 0.1930 1.3386
C11 C 0.8369(4) 0.24138(18) 1.1654(4)
C12 C 0.7785(4) 0.23804(17) 1.0267(4)
H7 H 0.7771 0.2711 0.9708
C13 C 0.7222(4) 0.18579(17) 0.9708(4)
H8 H 0.6856 0.1839 0.8770
C14 C 0.6487(3) 0.08168(15) 0.9959(4)
C15 C 0.1251(3) -0.03314(14) 0.3778(3)
C16 C 0.0746(4) -0.01432(17) 0.2434(4)
H9 H 0.1315 0.0078 0.1961
C17 C -0.0587(4) -0.02812(18) 0.1801(3)
H10 H -0.0910 -0.0150 0.0906
C18 C -0.1452(3) -0.06131(14) 0.2478(3)
C19 C -0.0951(3) -0.08146(15) 0.3818(3)
H11 H -0.1508 -0.1050 0.4274
C20 C 0.0372(4) -0.06626(14) 0.4456(3)
H12 H 0.0687 -0.0784 0.5360
C21 C 0.2663(4) -0.01547(15) 0.4486(4)
H13 H 0.892(4) -0.3370(18) 1.057(5)
H14 H 0.766(5) -0.360(2) 0.979(5)
H15 H 0.919(5) 0.314(2) 1.173(5)
H16 H 0.915(7) 0.291(3) 1.313(8)
H17 H -0.297(3) -0.0693(14) 0.097(4)
H18 H -0.304(4) -0.1080(17) 0.199(3)
H19 H 0.519(5) 0.102(2) 0.599(5)
H20 H 0.428(6) 0.073(2) 0.497(6)
Gd1B Gd 0.51897(2) 0.001416(6) 1.243704(16)
Gd1B_2 Gd 0.51897(2) 0.001416(6) 0.243704(16)
Gd1B_3 Gd -0.48103(2) 0.001416(6) 0.243704(16)
O4B O 0.3679(3) -0.04070(10) 0.9228(2)
O6B O 0.6545(3) -0.01127(10) 0.6188(3)
N3B N 0.2854(3) 0.07233(15) 0.8128(3)
H17B H 0.297(3) 0.0693(14) 0.903(4)
H18B H 0.304(4) 0.1080(17) 0.801(3)
loop_
_geom_bond_atom_site_label_1
_geom_bond_atom_site_label_2
_geom_bond_site_symmetry_1
_geom_bond_site_symmetry_2
Gd1 O1 1_555 1_555
O1 C7 1_555 1_555
O2 Gd1 1_555 1_555
O3 Gd1 1_555 1_555
O4 C14 1_555 1_555
O5 Gd1 1_555 1_555
O6 C21 1_555 1_555
O7 Gd1 1_555 1_555
N1 C4 1_555 1_555
N2 C11 1_555 1_555
N3 C18 1_555 1_555
C1 C2 1_555 1_555
C2 H1 1_555 1_555
C3 C2 1_555 1_555
H2 C3 1_555 1_555
C4 C3 1_555 1_555
C5 C4 1_555 1_555
H3 C5 1_555 1_555
C6 C1 1_555 1_555
H4 C6 1_555 1_555
C7 O2 1_555 1_555
C8 C9 1_555 1_555
C9 H5 1_555 1_555
C10 C9 1_555 1_555
H6 C10 1_555 1_555
C11 C10 1_555 1_555
C12 C11 1_555 1_555
H7 C12 1_555 1_555
C13 C8 1_555 1_555
H8 C13 1_555 1_555
C14 O3 1_555 1_555
C15 C16 1_555 1_555
C16 H9 1_555 1_555
C17 C16 1_555 1_555
H10 C17 1_555 1_555
C18 C17 1_555 1_555
C19 C18 1_555 1_555
H11 C19 1_555 1_555
C20 C15 1_555 1_555
H12 C20 1_555 1_555
C21 O5 1_555 1_555
H13 N1 1_555 1_555
H14 N1 1_555 1_555
H15 N2 1_555 1_555
H16 N2 1_555 1_555
H17 N3 1_555 1_555
H18 N3 1_555 1_555
H19 O7 1_555 1_555
H20 O7 1_555 1_555
Gd1B O4 1_555 1_555
Gd1B_2 O6 1_555 1_555
Gd1B_3 N3 1_555 1_555
O4B Gd1 1_555 1_555
O6B Gd1 1_555 1_555
N3B Gd1 1_555 1_555
H17B N3B 1_555 1_555
H18B N3B 1_555 1_555
C1 C7 1_555 1_555
C5 C6 1_555 1_555
C8 C14 1_555 1_555
C12 C13 1_555 1_555
C15 C21 1_555 1_555
C19 C20 1_555 1_555

#END
