
#######################################################################
#
#                 Cambridge Crystallographic Data Centre
#                                CCDC 
#
#######################################################################
#
# If this CIF has been generated from an entry in the Cambridge 
# Structural Database, then it will include bibliographic, chemical, 
# crystal, experimental, refinement or atomic coordinate data resulting 
# from the CCDC's data processing and validation procedures.
#
#######################################################################

data_ADETEJ02
_symmetry_cell_setting           monoclinic
_symmetry_space_group_name_H-M   'P 21/n'
_symmetry_Int_Tables_number      14
_space_group_name_Hall           '-P 2yn'
loop_
_symmetry_equiv_pos_site_id
_symmetry_equiv_pos_as_xyz
1 x,y,z
2 1/2-x,1/2+y,1/2-z
3 -x,-y,-z
4 1/2+x,1/2-y,1/2+z
_cell_length_a                   9.742(2)
_cell_length_b                   22.762(4)
_cell_length_c                   9.822(2)
_cell_angle_alpha                90
_cell_angle_beta                 99.86(1)
_cell_angle_gamma                90
_cell_volume                     2145.83
loop_
_atom_site_label
_atom_site_type_symbol
_atom_site_fract_x
_atom_site_fract_y
_atom_site_fract_z
Gd1 Gd 0.480932(13) 0.501424(6) 0.756348(12)
O1 O 0.3012(2) 0.52718(9) 0.5754(2)
O2 O 0.3455(2) 0.48855(9) 0.3808(2)
O3 O 0.3677(2) 0.54083(9) 0.9227(2)
O4 O 0.3957(2) 0.57833(10) 1.1322(2)
O5 O 0.5113(2) 0.60719(9) 0.7167(2)
O6 O 0.6579(2) 0.56677(9) 0.8860(2)
N1 N -0.2849(3) 0.57208(12) 0.1869(3)
N2 N 0.1106(4) 0.79418(15) 0.7763(5)
N3 N 0.8300(3) 0.83816(13) 0.9748(3)
C1 C 0.0378(3) 0.56624(13) 0.4464(3)
H1 H 0.0691 0.5784 0.5368
C2 C -0.0945(3) 0.58119(13) 0.3813(3)
H2 H -0.1505 0.6046 0.4270
C3 C -0.1450(3) 0.56148(13) 0.2475(3)
C4 C -0.0588(3) 0.52828(16) 0.1797(3)
H3 H -0.0913 0.5152 0.0903
C5 C 0.0752(3) 0.51431(14) 0.2431(3)
H4 H 0.1323 0.4923 0.1959
C6 C 0.1250(3) 0.53313(13) 0.3778(3)
C7 C 0.2661(3) 0.51555(12) 0.4499(3)
C8 C 0.2779(4) 0.68612(15) 1.0300(4)
H5 H 0.3144 0.6844 1.1238
C9 C 0.2212(4) 0.73799(15) 0.9725(4)
H6 H 0.2221 0.7712 1.0279
C10 C 0.1637(4) 0.74131(15) 0.8350(4)
C11 C 0.1604(4) 0.69132(15) 0.7537(4)
H7 H 0.1182 0.6926 0.6614
C12 C 0.2194(4) 0.63987(14) 0.8091(3)
H8 H 0.2184 0.6069 0.7529
C13 C 0.2804(3) 0.63626(14) 0.9477(3)
C14 C 0.3517(3) 0.58144(13) 1.0044(3)
C15 C 0.8000(3) 0.67696(14) 0.9385(3)
H9 H 0.8529 0.6437 0.9665
C16 C 0.8532(4) 0.73214(14) 0.9764(3)
H10 H 0.9419 0.7355 1.0287
C17 C 0.7756(4) 0.78244(14) 0.9374(3)
C18 C 0.6438(4) 0.77618(14) 0.8592(4)
H11 H 0.5902 0.8094 0.8327
C19 C 0.5909(4) 0.72100(14) 0.8200(4)
H12 H 0.5025 0.7176 0.7670
C20 C 0.6690(3) 0.67074(13) 0.8593(3)
C21 C 0.6101(3) 0.61192(13) 0.8179(3)
O7 O 0.4568(3) 0.41443(10) 0.5957(2)
H13 H -0.297(3) 0.5726(13) 0.0982(11)
H14 H -0.315(3) 0.6053(8) 0.208(3)
H15 H 0.072(4) 0.8137(16) 0.833(3)
H16 H 0.075(5) 0.801(2) 0.6935(14)
H17 H 0.886(2) 0.8363(13) 1.0525(19)
H18 H 0.762(3) 0.8610(14) 0.982(3)
H19 H 0.523(3) 0.3927(14) 0.592(4)
H20 H 0.436(4) 0.4283(16) 0.5183(19)
Gd1B Gd 0.519068(13) 0.498576(6) 0.243652(12)
Gd1B_2 Gd 0.519068(13) 0.498576(6) 1.243652(12)
Gd1B_3 Gd -0.480932(13) 0.498576(6) 0.243652(12)
O2B O 0.6545(2) 0.51145(9) 0.6192(2)
O4B O 0.6043(2) 0.42167(10) 0.8678(2)
N1B N 0.2849(3) 0.42792(12) 0.8131(3)
H13B H 0.297(3) 0.4274(13) 0.9018(11)
H14B H 0.315(3) 0.3947(8) 0.792(3)
loop_
_geom_bond_atom_site_label_1
_geom_bond_atom_site_label_2
_geom_bond_site_symmetry_1
_geom_bond_site_symmetry_2
Gd1 O1 1_555 1_555
O1 C7 1_555 1_555
O2 C7 1_555 1_555
O3 Gd1 1_555 1_555
O4 C14 1_555 1_555
O5 Gd1 1_555 1_555
O6 Gd1 1_555 1_555
N1 C3 1_555 1_555
N2 C10 1_555 1_555
N3 C17 1_555 1_555
C1 H1 1_555 1_555
C2 C1 1_555 1_555
H2 C2 1_555 1_555
C3 C2 1_555 1_555
C4 C3 1_555 1_555
H3 C4 1_555 1_555
C5 C4 1_555 1_555
H4 C5 1_555 1_555
C6 C1 1_555 1_555
C7 C6 1_555 1_555
C8 H5 1_555 1_555
C9 C8 1_555 1_555
H6 C9 1_555 1_555
C10 C9 1_555 1_555
C11 C10 1_555 1_555
H7 C11 1_555 1_555
C12 C11 1_555 1_555
H8 C12 1_555 1_555
C13 C8 1_555 1_555
C14 O3 1_555 1_555
C15 H9 1_555 1_555
C16 C15 1_555 1_555
H10 C16 1_555 1_555
C17 C16 1_555 1_555
C18 C17 1_555 1_555
H11 C18 1_555 1_555
C19 C18 1_555 1_555
H12 C19 1_555 1_555
C20 C15 1_555 1_555
C21 O5 1_555 1_555
O7 Gd1 1_555 1_555
H13 N1 1_555 1_555
H14 N1 1_555 1_555
H15 N2 1_555 1_555
H16 N2 1_555 1_555
H17 N3 1_555 1_555
H18 N3 1_555 1_555
H19 O7 1_555 1_555
H20 O7 1_555 1_555
Gd1B O2 1_555 1_555
Gd1B_2 O4 1_555 1_555
Gd1B_3 N1 1_555 1_555
O2B Gd1 1_555 1_555
O4B Gd1 1_555 1_555
N1B Gd1 1_555 1_555
H13B N1B 1_555 1_555
H14B N1B 1_555 1_555
O6 C21 1_555 1_555
C5 C6 1_555 1_555
C12 C13 1_555 1_555
C13 C14 1_555 1_555
C19 C20 1_555 1_555
C20 C21 1_555 1_555

#END
