
#######################################################################
#
#                 Cambridge Crystallographic Data Centre
#                                CCDC 
#
#######################################################################
#
# If this CIF has been generated from an entry in the Cambridge 
# Structural Database, then it will include bibliographic, chemical, 
# crystal, experimental, refinement or atomic coordinate data resulting 
# from the CCDC's data processing and validation procedures.
#
#######################################################################

data_ADICIA
_symmetry_cell_setting           triclinic
_symmetry_space_group_name_H-M   'P -1'
_symmetry_Int_Tables_number      2
_space_group_name_Hall           '-P 1'
loop_
_symmetry_equiv_pos_site_id
_symmetry_equiv_pos_as_xyz
1 x,y,z
2 -x,-y,-z
_cell_length_a                   8.272(3)
_cell_length_b                   10.362(3)
_cell_length_c                   11.373(4)
_cell_angle_alpha                102.026(2)
_cell_angle_beta                 109.877(3)
_cell_angle_gamma                103.9580(10)
_cell_volume                     843.456
loop_
_atom_site_label
_atom_site_type_symbol
_atom_site_fract_x
_atom_site_fract_y
_atom_site_fract_z
Cd1 Cd -0.03643(3) 0.41267(2) 0.82589(2)
Cu1 Cu 0.16737(5) 0.12920(3) 0.97382(3)
O1 O 0.1629(4) 0.3645(3) 0.7475(3)
O2 O -0.2298(3) 0.1873(2) 0.6971(2)
O3 O 0.0284(3) -0.0664(2) 0.87509(19)
O4 O 0.3054(3) 0.3094(2) 1.0974(2)
O5 O 0.3339(3) 0.0428(2) 1.0576(2)
O6 O 0.5414(3) 0.4748(2) 1.2580(2)
C1 C 0.7476(4) 0.0790(3) 1.3339(3)
H1 H 0.8165 0.0245 1.3641
O7 O -0.0265(3) 0.1869(2) 0.87905(19)
O8 O -0.1958(3) 0.4758(2) 0.9551(2)
C2 C 0.4877(4) 0.1010(3) 1.1696(3)
C3 C -0.1876(4) -0.0315(3) 0.6924(3)
C4 C 0.4623(4) 0.3493(3) 1.1968(3)
C5 C 0.5488(4) 0.2457(3) 1.2391(3)
C6 C -0.1631(4) -0.2624(3) 0.6814(3)
C7 C -0.1047(4) -0.1187(3) 0.7517(3)
C8 C 0.8016(5) 0.2181(4) 1.4072(3)
H2 H 0.9020 0.2559 1.4882
C9 C 0.5912(4) 0.0183(3) 1.2151(3)
C10 C -0.3782(5) -0.2287(3) 0.4932(3)
H3 H -0.4673 -0.2645 0.4071
C11 C -0.3213(4) -0.0888(3) 0.5632(3)
H4 H -0.3735 -0.0305 0.5232
C12 C -0.3011(4) -0.3147(3) 0.5529(3)
H5 H -0.3414 -0.4099 0.5070
C13 C -0.1470(4) 0.1203(3) 0.7579(3)
C14 C 0.7047(4) 0.2997(3) 1.3584(3)
H6 H 0.7439 0.3942 1.4063
C15 C -0.0954(4) -0.3674(3) 0.7356(3)
C16 C 0.5485(4) -0.1332(3) 1.1439(3)
O9 O 0.0461(3) -0.3322(2) 0.8454(2)
O10 O 0.6760(3) -0.1808(2) 1.1690(2)
O11 O -0.1770(3) -0.4942(2) 0.6742(2)
O12 O 0.3856(3) -0.2117(2) 1.0590(2)
Cu2 Cu 0.19978(5) -0.15056(3) 0.96097(3)
H7 H 0.222(5) 0.318(4) 0.779(4)
H8 H -0.244(6) 0.527(4) 0.927(4)
H9 H -0.282(5) 0.411(3) 0.941(5)
H10 H 0.250(4) 0.423(4) 0.748(5)
Cd1A Cd 0.03643(3) 0.58733(2) 1.17411(2)
Cd1_2 Cd -0.03643(3) -0.58733(2) 0.82589(2)
O8A O 0.1958(3) 0.5242(2) 1.0449(2)
O9_2 O 0.0461(3) 0.6678(2) 0.8454(2)
O11_2 O -0.1770(3) 0.5058(2) 0.6742(2)
H8A H 0.244(6) 0.473(4) 1.073(4)
H9A H 0.282(5) 0.589(3) 1.059(5)
loop_
_geom_bond_atom_site_label_1
_geom_bond_atom_site_label_2
_geom_bond_site_symmetry_1
_geom_bond_site_symmetry_2
Cd1 O1 1_555 1_555
Cu1 O3 1_555 1_555
O1 H7 1_555 1_555
O2 Cd1 1_555 1_555
O3 C7 1_555 1_555
O4 Cu1 1_555 1_555
O5 Cu1 1_555 1_555
O6 C4 1_555 1_555
C1 H1 1_555 1_555
O7 Cd1 1_555 1_555
O8 Cd1 1_555 1_555
C2 O5 1_555 1_555
C3 C7 1_555 1_555
C4 O4 1_555 1_555
C5 C2 1_555 1_555
C6 C7 1_555 1_555
C8 C1 1_555 1_555
H2 C8 1_555 1_555
C9 C1 1_555 1_555
C10 H3 1_555 1_555
C11 C3 1_555 1_555
H4 C11 1_555 1_555
C12 C6 1_555 1_555
H5 C12 1_555 1_555
C13 O2 1_555 1_555
C14 C5 1_555 1_555
H6 C14 1_555 1_555
C15 C6 1_555 1_555
C16 C9 1_555 1_555
O9 C15 1_555 1_555
O10 C16 1_555 1_555
O11 C15 1_555 1_555
O12 C16 1_555 1_555
Cu2 O3 1_555 1_555
H8 O8 1_555 1_555
H9 O8 1_555 1_555
H10 O1 1_555 1_555
Cd1A O8 1_555 1_555
Cd1_2 O9 1_555 1_555
O8A Cd1 1_555 1_555
O9_2 Cd1 1_555 1_555
O11_2 Cd1 1_555 1_555
H8A O8A 1_555 1_555
H9A O8A 1_555 1_555
Cu1 O7 1_555 1_555
O5 Cu2 1_555 1_555
O7 C13 1_555 1_555
C2 C9 1_555 1_555
C3 C13 1_555 1_555
C4 C5 1_555 1_555
C8 C14 1_555 1_555
C10 C11 1_555 1_555
C10 C12 1_555 1_555
O9 Cu2 1_555 1_555
O11 Cd1_2 1_555 1_555
O12 Cu2 1_555 1_555
Cd1A O8A 1_555 1_555

#END
