
#######################################################################
#
#                 Cambridge Crystallographic Data Centre
#                                CCDC 
#
#######################################################################
#
# If this CIF has been generated from an entry in the Cambridge 
# Structural Database, then it will include bibliographic, chemical, 
# crystal, experimental, refinement or atomic coordinate data resulting 
# from the CCDC's data processing and validation procedures.
#
#######################################################################

data_ADICEW
_symmetry_cell_setting           monoclinic
_symmetry_space_group_name_H-M   'P 21/c'
_symmetry_Int_Tables_number      14
_space_group_name_Hall           '-P 2ybc'
loop_
_symmetry_equiv_pos_site_id
_symmetry_equiv_pos_as_xyz
1 x,y,z
2 -x,1/2+y,1/2-z
3 -x,-y,-z
4 x,1/2-y,1/2+z
_cell_length_a                   14.885(4)
_cell_length_b                   14.459(4)
_cell_length_c                   7.693(2)
_cell_angle_alpha                90
_cell_angle_beta                 102.115(4)
_cell_angle_gamma                90
_cell_volume                     1618.83
loop_
_atom_site_label
_atom_site_type_symbol
_atom_site_fract_x
_atom_site_fract_y
_atom_site_fract_z
Ag1 Ag 0.23577(3) 0.15155(3) 0.23352(6)
N1 N 0.0906(3) 0.1192(3) 0.1824(7)
C1 C 0.0289(4) 0.1327(4) 0.0351(8)
N2 N -0.0543(3) 0.0994(3) 0.0527(6)
C2 C -0.0440(4) 0.0642(4) 0.2206(8)
H1 H -0.0905 0.0369 0.2716
C3 C 0.0449(4) 0.0758(4) 0.2997(8)
H2 H 0.0721 0.0571 0.4174
C4 C 0.0464(4) 0.1779(4) -0.1281(8)
H3 H 0.1061 0.2092 -0.1007
H4 H -0.0020 0.2233 -0.1712
H5 H 0.0468 0.1310 -0.2200
C5 C -0.1414(4) 0.1026(4) -0.0791(8)
H6 H -0.1741 0.0432 -0.0764
H7 H -0.1279 0.1096 -0.1991
C6 C -0.2035(4) 0.1808(4) -0.0473(7)
C7 C -0.1780(4) 0.2720(4) -0.0574(8)
H8 H -0.1194 0.2863 -0.0809
C8 C -0.2367(4) 0.3430(4) -0.0335(7)
H9 H -0.2182 0.4055 -0.0421
C9 C -0.3220(4) 0.3238(4) 0.0028(7)
C10 C -0.3485(4) 0.2323(4) 0.0120(7)
H10 H -0.4073 0.2181 0.0349
C11 C -0.2894(4) 0.1613(4) -0.0124(8)
H11 H -0.3080 0.0988 -0.0050
C12 C -0.3846(4) 0.4027(4) 0.0322(8)
H12 H -0.3970 0.3979 0.1535
H13 H -0.3531 0.4623 0.0237
N3 N -0.4722(3) 0.4017(3) -0.0981(6)
C13 C -0.4842(4) 0.4303(4) -0.2722(8)
H14 H -0.4387 0.4552 -0.3288
C14 C -0.5734(4) 0.4160(4) -0.3459(8)
H15 H -0.6016 0.4295 -0.4659
N4 N -0.6182(3) 0.3789(3) -0.2214(6)
C15 C -0.5549(4) 0.3697(4) -0.0730(8)
C16 C -0.5714(4) 0.3320(4) 0.0978(8)
H16 H -0.5705 0.3826 0.1829
H17 H -0.5233 0.2872 0.1461
H18 H -0.6315 0.3013 0.0767
Ag1C Ag -0.76423(3) 0.34845(3) -0.26648(6)
N4C N 0.3818(3) 0.1211(3) 0.2786(6)
N5 N 0.2435(3) 0.3766(3) 0.2482(6)
O1 O 0.2721(3) 0.3193(3) 0.3695(5)
O2 O 0.2572(3) 0.4602(3) 0.2775(7)
O3 O 0.2000(3) 0.3493(4) 0.1024(6)
loop_
_geom_bond_atom_site_label_1
_geom_bond_atom_site_label_2
_geom_bond_site_symmetry_1
_geom_bond_site_symmetry_2
Ag1 N1 1_555 1_555
N1 C1 1_555 1_555
C1 N2 1_555 1_555
N2 C2 1_555 1_555
C2 H1 1_555 1_555
C3 N1 1_555 1_555
H2 C3 1_555 1_555
C4 C1 1_555 1_555
H3 C4 1_555 1_555
H4 C4 1_555 1_555
H5 C4 1_555 1_555
C5 N2 1_555 1_555
H6 C5 1_555 1_555
H7 C5 1_555 1_555
C6 C5 1_555 1_555
C7 C6 1_555 1_555
H8 C7 1_555 1_555
C8 C7 1_555 1_555
H9 C8 1_555 1_555
C9 C8 1_555 1_555
C10 C9 1_555 1_555
H10 C10 1_555 1_555
C11 C6 1_555 1_555
H11 C11 1_555 1_555
C12 C9 1_555 1_555
H12 C12 1_555 1_555
H13 C12 1_555 1_555
N3 C12 1_555 1_555
C13 N3 1_555 1_555
H14 C13 1_555 1_555
C14 C13 1_555 1_555
H15 C14 1_555 1_555
N4 C14 1_555 1_555
C15 N3 1_555 1_555
C16 C15 1_555 1_555
H16 C16 1_555 1_555
H17 C16 1_555 1_555
H18 C16 1_555 1_555
N5 O1 1_555 1_555
O2 N5 1_555 1_555
O3 N5 1_555 1_555
Ag1C N4 1_555 1_555
N4C Ag1 1_555 1_555
C2 C3 1_555 1_555
C10 C11 1_555 1_555
N4 C15 1_555 1_555

#END
