
#######################################################################
#
#                 Cambridge Crystallographic Data Centre
#                                CCDC 
#
#######################################################################
#
# If this CIF has been generated from an entry in the Cambridge 
# Structural Database, then it will include bibliographic, chemical, 
# crystal, experimental, refinement or atomic coordinate data resulting 
# from the CCDC's data processing and validation procedures.
#
#######################################################################

data_ADILIJ
_symmetry_cell_setting           monoclinic
_symmetry_space_group_name_H-M   'P 21'
_symmetry_Int_Tables_number      4
_space_group_name_Hall           'P 2yb'
loop_
_symmetry_equiv_pos_site_id
_symmetry_equiv_pos_as_xyz
1 x,y,z
2 -x,1/2+y,-z
_cell_length_a                   7.2244(13)
_cell_length_b                   6.4049(12)
_cell_length_c                   10.1620(19)
_cell_angle_alpha                90
_cell_angle_beta                 106.692(3)
_cell_angle_gamma                90
_cell_volume                     450.398
loop_
_atom_site_label
_atom_site_type_symbol
_atom_site_fract_x
_atom_site_fract_y
_atom_site_fract_z
Ag1 Ag -1.43050(10) 0.4239(2) 0.11592(8)
C1 C -0.4638(10) 0.8513(11) 0.2676(6)
H1 H -0.5307 0.9325 0.1933
C2 C -0.2706(10) 0.8922(12) 0.3330(7)
H2 H -0.2080 1.0006 0.3024
C3 C -0.1708(10) 0.7711(12) 0.4439(7)
H3 H -0.0413 0.7985 0.4877
C4 C -0.2643(9) 0.6093(11) 0.4896(7)
H4 H -0.1974 0.5282 0.5640
C5 C -0.4575(9) 0.5685(10) 0.4242(6)
H5 H -0.5202 0.4600 0.4548
C6 C -0.5573(9) 0.6895(10) 0.3133(6)
C7 C -0.7722(15) 0.6549(17) 0.2512(10)
H6 H -0.8252 0.7720 0.1918
H7 H -0.8333 0.6529 0.3246
C8 C -0.8240(13) 0.4523(17) 0.1679(9)
H8 H -0.775(17) 0.33(2) 0.230(10)
C9 C -1.0443(12) 0.438(2) 0.1202(9)
N1 N -0.7402(11) 0.441(2) 0.0536(7)
H9 H -0.749(19) 0.553(7) 0.005(8)
H10 H -0.76(2) 0.327(8) 0.007(8)
O1 O -1.1274(12) 0.3325(16) 0.1937(8)
O2 O -1.1340(12) 0.5250(15) 0.0117(8)
Ag1_2 Ag -0.43050(10) 0.4239(2) 0.11592(8)
N1_2 N -1.7402(11) 0.441(2) 0.0536(7)
H9_2 H -1.749(19) 0.553(7) 0.005(8)
H10_2 H -1.76(2) 0.327(8) 0.007(8)
loop_
_geom_bond_atom_site_label_1
_geom_bond_atom_site_label_2
_geom_bond_site_symmetry_1
_geom_bond_site_symmetry_2
Ag1 O1 1_555 1_555
C1 H1 1_555 1_555
C2 C1 1_555 1_555
H2 C2 1_555 1_555
C3 C2 1_555 1_555
H3 C3 1_555 1_555
C4 C3 1_555 1_555
H4 C4 1_555 1_555
C5 C4 1_555 1_555
H5 C5 1_555 1_555
C6 C1 1_555 1_555
C7 C6 1_555 1_555
H6 C7 1_555 1_555
H7 C7 1_555 1_555
C8 C7 1_555 1_555
H8 C8 1_555 1_555
C9 C8 1_555 1_555
N1 C8 1_555 1_555
H9 N1 1_555 1_555
H10 N1 1_555 1_555
O1 C9 1_555 1_555
O2 C9 1_555 1_555
Ag1_2 N1 1_555 1_555
N1_2 Ag1 1_555 1_555
H9_2 N1_2 1_555 1_555
H10_2 N1_2 1_555 1_555
C5 C6 1_555 1_555

#END
