
#######################################################################
#
#                 Cambridge Crystallographic Data Centre
#                                CCDC 
#
#######################################################################
#
# If this CIF has been generated from an entry in the Cambridge 
# Structural Database, then it will include bibliographic, chemical, 
# crystal, experimental, refinement or atomic coordinate data resulting 
# from the CCDC's data processing and validation procedures.
#
#######################################################################

data_ADILIJ01
_symmetry_cell_setting           monoclinic
_symmetry_space_group_name_H-M   'P 21'
_symmetry_Int_Tables_number      4
_space_group_name_Hall           'P 2yb'
loop_
_symmetry_equiv_pos_site_id
_symmetry_equiv_pos_as_xyz
1 x,y,z
2 -x,1/2+y,-z
_cell_length_a                   7.2327(9)
_cell_length_b                   6.4116(8)
_cell_length_c                   10.1639(13)
_cell_angle_alpha                90
_cell_angle_beta                 106.698(3)
_cell_angle_gamma                90
_cell_volume                     451.457
loop_
_atom_site_label
_atom_site_type_symbol
_atom_site_fract_x
_atom_site_fract_y
_atom_site_fract_z
Ag1 Ag 0.56916(10) 0.34785(8) 0.11532(10)
N1 N 0.2599(11) 0.329(3) 0.0538(8)
H1 H 0.2120 0.4401 0.0008
H2 H 0.2238 0.2139 0.0021
O1 O -0.1358(12) 0.2437(17) 0.0111(10)
O2 O -0.1266(12) 0.435(2) 0.1938(9)
C1 C -0.0461(13) 0.334(3) 0.1206(10)
C2 C 0.1743(12) 0.322(3) 0.1685(10)
H3 H 0.2242 0.4395 0.2304
C3 C 0.2267(15) 0.117(2) 0.2486(12)
H4 H 0.1614 0.1131 0.3197
H5 H 0.1789 0.0020 0.1866
C4 C 0.4415(17) 0.088(2) 0.3149(10)
C5 C 0.5389(17) -0.077(2) 0.2674(11)
H6 H 0.4732 -0.1513 0.1893
C6 C 0.7297(17) -0.130(4) 0.3346(12)
H7 H 0.7879 -0.2465 0.3086
C7 C 0.8315(19) 0.001(3) 0.4448(14)
H8 H 0.9627 -0.0204 0.4858
C8 C 0.7361(17) 0.158(2) 0.4908(13)
H9 H 0.8003 0.2366 0.5673
C9 C 0.5427(17) 0.200(2) 0.4221(12)
H10 H 0.4822 0.3110 0.4521
Ag1_2 Ag -0.43084(10) 0.34785(8) 0.11532(10)
O2_2 O 0.8734(12) 0.435(2) 0.1938(9)
loop_
_geom_bond_atom_site_label_1
_geom_bond_atom_site_label_2
_geom_bond_site_symmetry_1
_geom_bond_site_symmetry_2
Ag1 N1 1_555 1_555
N1 H1 1_555 1_555
H2 N1 1_555 1_555
O1 C1 1_555 1_555
O2 C1 1_555 1_555
C1 C2 1_555 1_555
C2 N1 1_555 1_555
H3 C2 1_555 1_555
C3 C2 1_555 1_555
H4 C3 1_555 1_555
H5 C3 1_555 1_555
C4 C3 1_555 1_555
C5 C4 1_555 1_555
H6 C5 1_555 1_555
C6 C5 1_555 1_555
H7 C6 1_555 1_555
C7 C6 1_555 1_555
H8 C7 1_555 1_555
C8 C7 1_555 1_555
H9 C8 1_555 1_555
C9 C4 1_555 1_555
H10 C9 1_555 1_555
Ag1_2 O2 1_555 1_555
O2_2 Ag1 1_555 1_555
C8 C9 1_555 1_555

#END
