
#######################################################################
#
#                 Cambridge Crystallographic Data Centre
#                                CCDC 
#
#######################################################################
#
# If this CIF has been generated from an entry in the Cambridge 
# Structural Database, then it will include bibliographic, chemical, 
# crystal, experimental, refinement or atomic coordinate data resulting 
# from the CCDC's data processing and validation procedures.
#
#######################################################################

data_ADIPUA
_symmetry_cell_setting           monoclinic
_symmetry_space_group_name_H-M   'P 21/n'
_symmetry_Int_Tables_number      14
_space_group_name_Hall           '-P 2yn'
loop_
_symmetry_equiv_pos_site_id
_symmetry_equiv_pos_as_xyz
1 x,y,z
2 1/2-x,1/2+y,1/2-z
3 -x,-y,-z
4 1/2+x,1/2-y,1/2+z
_cell_length_a                   8.2220(16)
_cell_length_b                   10.509(2)
_cell_length_c                   11.250(2)
_cell_angle_alpha                90
_cell_angle_beta                 90.63(3)
_cell_angle_gamma                90
_cell_volume                     971.997
loop_
_atom_site_label
_atom_site_type_symbol
_atom_site_fract_x
_atom_site_fract_y
_atom_site_fract_z
Cu1 Cu 0.0000 0.5000 0.5000
O1 O -0.4923(2) 0.14251(18) 0.11252(16)
O2 O -0.8063(2) 0.3928(2) 0.37428(18)
N1 N 0.1912(2) 0.5723(2) 0.58514(18)
C1 C -0.1976(3) 0.3065(2) 0.3809(2)
H1 H -0.1055 0.2539 0.3952
C2 C -0.3324(3) 0.2542(2) 0.3258(2)
H2 H -0.3314 0.1676 0.3015
C3 C -0.4699(3) 0.3288(2) 0.3058(2)
C4 C -0.6179(3) 0.1852(2) 0.1654(2)
H3 H -0.7203 0.1518 0.1410
C5 C -0.3203(3) 0.5014(2) 0.3924(2)
H4 H -0.3154 0.5887 0.4140
C6 C -0.6187(3) 0.2758(3) 0.2550(2)
C7 C -0.4599(3) 0.4559(2) 0.3391(2)
H5 H -0.5495 0.5112 0.3251
C8 C -0.7759(3) 0.3134(3) 0.2968(2)
H6 H -0.8668 0.2724 0.2608
Cu1A Cu -0.5000 0.0000 0.0000
Cu1_2 Cu -1.0000 0.5000 0.5000
Cu1A_2 Cu 0.5000 1.0000 1.0000
Cu1_3 Cu 1.0000 0.5000 0.5000
O1A O -0.0077(2) 0.64251(18) 0.38748(16)
O1C O 0.0077(2) 0.35749(18) 0.61252(16)
O1B O 0.4923(2) 0.85749(18) 0.88748(16)
O2B O -0.1937(2) 0.6072(2) 0.62572(18)
O2_2 O 0.1937(2) 0.3928(2) 0.37428(18)
O2B_2 O 0.8063(2) 0.6072(2) 0.62572(18)
N1B N -0.1912(2) 0.4277(2) 0.41486(18)
C1B C 0.1976(3) 0.6935(2) 0.6191(2)
H1B H 0.1055 0.7461 0.6048
C2B C 0.3324(3) 0.7458(2) 0.6742(2)
H2B H 0.3314 0.8324 0.6985
C3B C 0.4699(3) 0.6712(2) 0.6942(2)
C4B C 0.6179(3) 0.8148(2) 0.8346(2)
H3B H 0.7203 0.8482 0.8590
C5B C 0.3203(3) 0.4986(2) 0.6076(2)
H4B H 0.3154 0.4113 0.5860
C6B C 0.6187(3) 0.7242(3) 0.7450(2)
C7B C 0.4599(3) 0.5441(2) 0.6609(2)
H5B H 0.5495 0.4888 0.6749
C8B C 0.7759(3) 0.6866(3) 0.7032(2)
H6B H 0.8668 0.7276 0.7392
O3 O -0.1588(11) 0.8890(9) 0.4848(8)
C9 C -0.0770(11) 0.9359(9) 0.5773(8)
H7 H 0.0061 0.9953 0.5492
H8 H -0.0246 0.8663 0.6212
H9 H -0.1521 0.9809 0.6296
C10? C 1.1869(17) 0.5729(14) 0.9821(12)
H10? H 1.2148 0.6558 1.0166
H11? H 1.2758 0.5439 0.9315
H12? H 1.1698 0.5111 1.0459
O4? O 1.040(2) 0.585(3) 0.912(2)
loop_
_geom_bond_atom_site_label_1
_geom_bond_atom_site_label_2
_geom_bond_site_symmetry_1
_geom_bond_site_symmetry_2
Cu1 N1 1_555 1_555
O1 C4 1_555 1_555
O2 C8 1_555 1_555
N1 C1B 1_555 1_555
C1 H1 1_555 1_555
C2 C1 1_555 1_555
H2 C2 1_555 1_555
C3 C2 1_555 1_555
C4 H3 1_555 1_555
C5 H4 1_555 1_555
C6 C3 1_555 1_555
C7 C3 1_555 1_555
H5 C7 1_555 1_555
C8 C6 1_555 1_555
H6 C8 1_555 1_555
O3 C9 1_555 1_555
C9 H7 1_555 1_555
H8 C9 1_555 1_555
H9 C9 1_555 1_555
Cu1A O1 1_555 1_555
Cu1_2 O2 1_555 1_555
Cu1A_2 O1B 1_555 1_555
Cu1_3 O2B_2 1_555 1_555
O1A Cu1 1_555 1_555
O1C Cu1 1_555 1_555
O1B C4B 1_555 1_555
O2B Cu1 1_555 1_555
O2_2 Cu1 1_555 1_555
O2B_2 C8B 1_555 1_555
N1B Cu1 1_555 1_555
C1B H1B 1_555 1_555
C2B C1B 1_555 1_555
H2B C2B 1_555 1_555
C3B C2B 1_555 1_555
C4B H3B 1_555 1_555
C5B N1 1_555 1_555
H4B C5B 1_555 1_555
C6B C3B 1_555 1_555
C7B C3B 1_555 1_555
H5B C7B 1_555 1_555
C8B C6B 1_555 1_555
H6B C8B 1_555 1_555
C1 N1B 1_555 1_555
C4 C6 1_555 1_555
C5 C7 1_555 1_555
C5 N1B 1_555 1_555
C4B C6B 1_555 1_555
C5B C7B 1_555 1_555

#END
