
#######################################################################
#
#                 Cambridge Crystallographic Data Centre
#                                CCDC 
#
#######################################################################
#
# If this CIF has been generated from an entry in the Cambridge 
# Structural Database, then it will include bibliographic, chemical, 
# crystal, experimental, refinement or atomic coordinate data resulting 
# from the CCDC's data processing and validation procedures.
#
#######################################################################

data_ADIQIP
_symmetry_cell_setting           monoclinic
_symmetry_space_group_name_H-M   'P 21/c'
_symmetry_Int_Tables_number      14
_space_group_name_Hall           '-P 2ybc'
loop_
_symmetry_equiv_pos_site_id
_symmetry_equiv_pos_as_xyz
1 x,y,z
2 -x,1/2+y,1/2-z
3 -x,-y,-z
4 x,1/2-y,1/2+z
_cell_length_a                   10.3381(5)
_cell_length_b                   12.6101(5)
_cell_length_c                   8.2479(3)
_cell_angle_alpha                90
_cell_angle_beta                 105.1167(13)
_cell_angle_gamma                90
_cell_volume                     1038.03
loop_
_atom_site_label
_atom_site_type_symbol
_atom_site_fract_x
_atom_site_fract_y
_atom_site_fract_z
Mn1 Mn 0.12901(4) 0.56364(3) 0.14439(4)
N1 N 0.3339(2) 0.48944(15) 0.2505(2)
N2 N 0.1155(2) 0.46192(15) 0.3702(2)
N3 N -0.0848(2) 0.57860(16) 0.0325(2)
N4 N -0.1677(2) 0.61425(18) 0.0936(2)
N5 N -0.2492(3) 0.6476(2) 0.1527(3)
N6 N 0.2080(2) 0.64633(18) -0.0431(3)
N7 N 0.1727(2) 0.72048(18) -0.1271(2)
N8 N 0.1401(3) 0.79258(19) -0.2116(3)
C1 C 0.4423(3) 0.5029(2) 0.1948(3)
H1 H 0.4419 0.5567 0.1175
C2 C 0.5559(3) 0.4405(3) 0.2464(3)
H2 H 0.6299 0.4521 0.2044
C3 C 0.5571(3) 0.3615(3) 0.3604(3)
H3 H 0.6315 0.3177 0.3959
C4 C 0.4470(3) 0.3479(2) 0.4216(3)
H4 H 0.4464 0.2953 0.5006
C5 C 0.3374(3) 0.41260(19) 0.3650(3)
C6 C 0.2168(3) 0.4032(2) 0.4269(3)
H5 H 0.2148 0.3533 0.5092
C7 C 0.0023(2) 0.45189(19) 0.4450(3)
H6 H 0.0119 0.3878 0.5121
H7 H -0.0807 0.4470 0.3570
Mn1B Mn -0.12901(4) 0.43636(3) -0.14439(4)
Mn1A Mn -0.12901(4) 0.06364(3) 0.35561(4)
Mn1B_2 Mn -0.12901(4) 0.43636(3) 0.85561(4)
Mn1C Mn 0.12901(4) 0.93636(3) -0.35561(4)
N1B N -0.3339(2) 0.51056(15) 0.7495(2)
N1B_2 N -0.3339(2) 0.51056(15) -0.2505(2)
N2B N -0.1155(2) 0.53808(15) 0.6298(2)
N2B_2 N -0.1155(2) 0.53808(15) -0.3702(2)
N3B N 0.0848(2) 0.42140(16) -0.0325(2)
N4B N 0.1677(2) 0.38575(18) -0.0936(2)
N5B N 0.2492(3) 0.3524(2) -0.1527(3)
N6B N -0.2080(2) 0.35367(18) 0.0431(3)
N7B N -0.1727(2) 0.27952(18) 0.1271(2)
N8B N -0.1401(3) 0.20742(19) 0.2116(3)
N8A N -0.1401(3) 0.29258(19) -0.2884(3)
N8C N 0.1401(3) 0.70742(19) 0.2884(3)
C1B C -0.4423(3) 0.4971(2) 0.8052(3)
H1B H -0.4419 0.4433 0.8825
C2B C -0.5559(3) 0.5595(3) 0.7536(3)
H2B H -0.6299 0.5479 0.7956
C3B C -0.5571(3) 0.6385(3) 0.6396(3)
H3B H -0.6315 0.6823 0.6041
C4B C -0.4470(3) 0.6521(2) 0.5784(3)
H4B H -0.4464 0.7047 0.4994
C5B C -0.3374(3) 0.58740(19) 0.6350(3)
C6B C -0.2168(3) 0.5968(2) 0.5731(3)
H5B H -0.2148 0.6467 0.4908
C7B C -0.0023(2) 0.54811(19) 0.5550(3)
H6B H -0.0119 0.6122 0.4879
H7B H 0.0807 0.5530 0.6430
loop_
_geom_bond_atom_site_label_1
_geom_bond_atom_site_label_2
_geom_bond_site_symmetry_1
_geom_bond_site_symmetry_2
Mn1 N1 1_555 1_555
N1 C1 1_555 1_555
N2 Mn1 1_555 1_555
N3 Mn1 1_555 1_555
N4 N3 1_555 1_555
N5 N4 1_555 1_555
N6 Mn1 1_555 1_555
N7 N6 1_555 1_555
N8 N7 1_555 1_555
C1 H1 1_555 1_555
C2 C1 1_555 1_555
H2 C2 1_555 1_555
C3 C2 1_555 1_555
H3 C3 1_555 1_555
C4 C3 1_555 1_555
H4 C4 1_555 1_555
C5 N1 1_555 1_555
C6 N2 1_555 1_555
H5 C6 1_555 1_555
C7 N2 1_555 1_555
H6 C7 1_555 1_555
H7 C7 1_555 1_555
Mn1B N3 1_555 1_555
Mn1A N8B 1_555 1_555
Mn1B_2 N1B 1_555 1_555
Mn1C N8 1_555 1_555
N1B C1B 1_555 1_555
N1B_2 Mn1B 1_555 1_555
N2B Mn1B_2 1_555 1_555
N2B_2 Mn1B 1_555 1_555
N3B Mn1 1_555 1_555
N4B N3B 1_555 1_555
N5B N4B 1_555 1_555
N6B Mn1B 1_555 1_555
N7B N6B 1_555 1_555
N8B N7B 1_555 1_555
N8A Mn1B 1_555 1_555
N8C Mn1 1_555 1_555
C1B H1B 1_555 1_555
C2B C1B 1_555 1_555
H2B C2B 1_555 1_555
C3B C2B 1_555 1_555
H3B C3B 1_555 1_555
C4B C3B 1_555 1_555
H4B C4B 1_555 1_555
C5B N1B 1_555 1_555
C6B N2B 1_555 1_555
H5B C6B 1_555 1_555
C7B C7 1_555 1_555
H6B C7B 1_555 1_555
H7B C7B 1_555 1_555
C4 C5 1_555 1_555
C5 C6 1_555 1_555
Mn1B N3B 1_555 1_555
N2B C7B 1_555 1_555
C4B C5B 1_555 1_555
C5B C6B 1_555 1_555

#END
