
#######################################################################
#
#                 Cambridge Crystallographic Data Centre
#                                CCDC 
#
#######################################################################
#
# If this CIF has been generated from an entry in the Cambridge 
# Structural Database, then it will include bibliographic, chemical, 
# crystal, experimental, refinement or atomic coordinate data resulting 
# from the CCDC's data processing and validation procedures.
#
#######################################################################

data_ADIQAH
_symmetry_cell_setting           monoclinic
_symmetry_space_group_name_H-M   'P 21/n'
_symmetry_Int_Tables_number      14
_space_group_name_Hall           '-P 2yn'
loop_
_symmetry_equiv_pos_site_id
_symmetry_equiv_pos_as_xyz
1 x,y,z
2 1/2-x,1/2+y,1/2-z
3 -x,-y,-z
4 1/2+x,1/2-y,1/2+z
_cell_length_a                   8.2896(6)
_cell_length_b                   10.1177(8)
_cell_length_c                   11.5102(9)
_cell_angle_alpha                90
_cell_angle_beta                 90.944(2)
_cell_angle_gamma                90
_cell_volume                     965.249
loop_
_atom_site_label
_atom_site_type_symbol
_atom_site_fract_x
_atom_site_fract_y
_atom_site_fract_z
Cu1 Cu 0.0000 -0.5000 0.0000
O1 O -0.80303(15) -0.40927(14) 0.13693(12)
N1 N -0.18899(17) -0.43564(15) 0.09049(13)
C1 C -0.7706(2) -0.33560(19) 0.21949(17)
H1 H -0.856(3) -0.295(2) 0.2611(19)
H2 H -0.718(2) -0.182(2) 0.3791(18)
O2 O -0.48989(14) -0.16473(12) 0.40793(11)
C2 C -0.6133(2) -0.29897(18) 0.26203(16)
C3 C -0.6137(2) -0.20988(18) 0.35444(17)
C4 C -0.4653(2) -0.34800(18) 0.20801(16)
C5 C -0.4577(2) -0.47297(18) 0.15704(17)
H3 H -0.546(3) -0.532(2) 0.1610(19)
C6 C -0.3203(2) -0.51277(18) 0.10026(17)
H4 H -0.315(2) -0.5963(19) 0.0650(16)
H5 H -0.321(2) -0.187(2) 0.2314(19)
C7 C -0.1935(2) -0.31618(18) 0.14170(17)
H6 H -0.098(3) -0.261(2) 0.1316(19)
C8 C -0.3254(2) -0.26988(18) 0.20066(17)
Cu1_2 Cu 1.0000 -0.5000 0.0000
Cu1_3 Cu -1.0000 -0.5000 0.0000
Cu1A Cu -0.5000 0.0000 0.5000
Cu1A_2 Cu 0.5000 -1.0000 -0.5000
O1B O -0.19697(15) -0.59073(14) -0.13693(12)
O1_2 O 0.19697(15) -0.40927(14) 0.13693(12)
O1B_2 O 0.80303(15) -0.59073(14) -0.13693(12)
N1B N 0.18899(17) -0.56436(15) -0.09049(13)
C1B C 0.7706(2) -0.66440(19) -0.21949(17)
H1B H 0.856(3) -0.705(2) -0.2611(19)
H2B H 0.718(2) -0.818(2) -0.3791(18)
O2A O -0.01011(14) -0.66473(12) 0.09207(11)
O2C O 0.01011(14) -0.33527(12) -0.09207(11)
O2B O 0.48989(14) -0.83527(12) -0.40793(11)
C2B C 0.6133(2) -0.70103(18) -0.26203(16)
C3B C 0.6137(2) -0.79012(18) -0.35444(17)
C4B C 0.4653(2) -0.65200(18) -0.20801(16)
C5B C 0.4577(2) -0.52703(18) -0.15704(17)
H3B H 0.546(3) -0.468(2) -0.1610(19)
C6B C 0.3203(2) -0.48723(18) -0.10026(17)
H4B H 0.315(2) -0.4037(19) -0.0650(16)
H5B H 0.321(2) -0.813(2) -0.2314(19)
C7B C 0.1935(2) -0.68382(18) -0.14170(17)
H6B H 0.098(3) -0.739(2) -0.1316(19)
C8B C 0.3254(2) -0.73012(18) -0.20066(17)
N2 N 0.5166(3) -0.8221(2) 0.0469(2)
C9 C 0.6338(3) -0.8752(2) 0.0245(2)
C10 C 0.7839(3) -0.9406(3) -0.0049(3)
H7 H 0.7907 -0.9485 -0.0877
H8 H 0.7866 -1.0270 0.0296
H9 H 0.8734 -0.8895 0.0242
loop_
_geom_bond_atom_site_label_1
_geom_bond_atom_site_label_2
_geom_bond_site_symmetry_1
_geom_bond_site_symmetry_2
Cu1 N1 1_555 1_555
O1 C1 1_555 1_555
N1 C6 1_555 1_555
C1 H1 1_555 1_555
H2 C3 1_555 1_555
O2 C3 1_555 1_555
N2 C9 1_555 1_555
C2 C1 1_555 1_555
C3 C2 1_555 1_555
C4 C2 1_555 1_555
C5 C4 1_555 1_555
H3 C5 1_555 1_555
C6 C5 1_555 1_555
H4 C6 1_555 1_555
H5 C8 1_555 1_555
C7 N1 1_555 1_555
H6 C7 1_555 1_555
C8 C4 1_555 1_555
C9 C10 1_555 1_555
C10 H7 1_555 1_555
H8 C10 1_555 1_555
H9 C10 1_555 1_555
Cu1_2 O1B_2 1_555 1_555
Cu1_3 O1 1_555 1_555
Cu1A O2 1_555 1_555
Cu1A_2 O2B 1_555 1_555
O1B Cu1 1_555 1_555
O1_2 Cu1 1_555 1_555
O1B_2 C1B 1_555 1_555
N1B Cu1 1_555 1_555
C1B H1B 1_555 1_555
H2B C3B 1_555 1_555
O2A Cu1 1_555 1_555
O2C Cu1 1_555 1_555
O2B C3B 1_555 1_555
C2B C1B 1_555 1_555
C3B C2B 1_555 1_555
C4B C2B 1_555 1_555
C5B C4B 1_555 1_555
H3B C5B 1_555 1_555
C6B N1B 1_555 1_555
H4B C6B 1_555 1_555
H5B C8B 1_555 1_555
C7B N1B 1_555 1_555
H6B C7B 1_555 1_555
C8B C4B 1_555 1_555
C7 C8 1_555 1_555
C5B C6B 1_555 1_555
C7B C8B 1_555 1_555

#END
