
#######################################################################
#
#                 Cambridge Crystallographic Data Centre
#                                CCDC 
#
#######################################################################
#
# If this CIF has been generated from an entry in the Cambridge 
# Structural Database, then it will include bibliographic, chemical, 
# crystal, experimental, refinement or atomic coordinate data resulting 
# from the CCDC's data processing and validation procedures.
#
#######################################################################

data_ADIQNI01
_symmetry_cell_setting           monoclinic
_symmetry_space_group_name_H-M   'P 21/c'
_symmetry_Int_Tables_number      14
_space_group_name_Hall           '-P 2ybc'
loop_
_symmetry_equiv_pos_site_id
_symmetry_equiv_pos_as_xyz
1 x,y,z
2 x,1/2-y,1/2+z
3 -x,-y,-z
4 -x,1/2+y,1/2-z
_cell_length_a                   4.781(1)
_cell_length_b                   9.780(2)
_cell_length_c                   11.648(3)
_cell_angle_alpha                90
_cell_angle_beta                 98.927(8)
_cell_angle_gamma                90
_cell_volume                     538.042
loop_
_atom_site_label
_atom_site_type_symbol
_atom_site_fract_x
_atom_site_fract_y
_atom_site_fract_z
Ni1 Ni 0.0000 0.5000 0.5000
O1 O -0.1957(5) 0.3228(2) 0.5398(2)
O2 O 0.2547(5) 0.3829(2) 0.4105(2)
O3 O 0.2998(5) 0.4800(2) 0.6466(2)
O4 O 0.1195(5) 0.3172(2) 0.7466(2)
C1 C 0.2964(6) 0.4098(3) 0.7382(2)
C2 C 0.5170(7) 0.4423(4) 0.8413(3)
C3 C 0.3893(7) 0.4760(4) 0.9506(3)
H1 H -0.1191(80) 0.3073(37) 0.6174(32)
H2 H -0.3567(77) 0.3287(36) 0.5400(28)
H3 H 0.3670(76) 0.4232(38) 0.3829(30)
H4 H 0.1933(96) 0.3218(52) 0.3683(38)
H5 H 0.6474(89) 0.3510(48) 0.8690(35)
H6 H 0.6080(99) 0.5172(41) 0.8192(38)
H7 H 0.2859(73) 0.4084(36) 0.9796(30)
H8 H 0.2485(93) 0.5506(50) 0.9318(36)
O1B O 0.1957(5) 0.6772(2) 0.4602(2)
H1B H 0.1191(80) 0.6927(37) 0.3826(32)
H2B H 0.3567(77) 0.6713(36) 0.4600(28)
O2B O -0.2547(5) 0.6171(2) 0.5895(2)
H3B H -0.3670(76) 0.5768(38) 0.6171(30)
H4B H -0.1933(96) 0.6782(52) 0.6317(38)
C3B C 0.6107(7) 0.5240(4) 1.0494(3)
C2B C 0.4830(7) 0.5577(4) 1.1587(3)
C1B C 0.7036(6) 0.5902(3) 1.2618(2)
O3B O 0.7002(5) 0.5200(2) 1.3534(2)
Ni1B Ni 1.0000 0.5000 1.5000
O4B O 0.8805(5) 0.6828(2) 1.2534(2)
H5B H 0.3526(89) 0.6490(48) 1.1310(35)
H6B H 0.3920(99) 0.4828(41) 1.1808(38)
H7B H 0.7141(73) 0.5916(36) 1.0204(30)
H8B H 0.7515(93) 0.4494(50) 1.0682(36)
O3B_2 O -0.2998(5) 0.5200(2) 0.3534(2)
loop_
_geom_bond_atom_site_label_1
_geom_bond_atom_site_label_2
_geom_bond_site_symmetry_1
_geom_bond_site_symmetry_2
Ni1 O1 1_555 1_555
O1 H1 1_555 1_555
O2 Ni1 1_555 1_555
O3 Ni1 1_555 1_555
O4 C1 1_555 1_555
C1 O3 1_555 1_555
C2 C1 1_555 1_555
C3 C2 1_555 1_555
H2 O1 1_555 1_555
H3 O2 1_555 1_555
H4 O2 1_555 1_555
H5 C2 1_555 1_555
H6 C2 1_555 1_555
H7 C3 1_555 1_555
H8 C3 1_555 1_555
O1B Ni1 1_555 1_555
H1B O1B 1_555 1_555
H2B O1B 1_555 1_555
O2B Ni1 1_555 1_555
H3B O2B 1_555 1_555
H4B O2B 1_555 1_555
C3B C3 1_555 1_555
C2B C3B 1_555 1_555
C1B C2B 1_555 1_555
O3B C1B 1_555 1_555
Ni1B O3B 1_555 1_555
O4B C1B 1_555 1_555
H5B C2B 1_555 1_555
H6B C2B 1_555 1_555
H7B C3B 1_555 1_555
H8B C3B 1_555 1_555
O3B_2 Ni1 1_555 1_555

#END
