
#######################################################################
#
#                 Cambridge Crystallographic Data Centre
#                                CCDC 
#
#######################################################################
#
# If this CIF has been generated from an entry in the Cambridge 
# Structural Database, then it will include bibliographic, chemical, 
# crystal, experimental, refinement or atomic coordinate data resulting 
# from the CCDC's data processing and validation procedures.
#
#######################################################################

data_ADIQUB
_symmetry_cell_setting           monoclinic
_symmetry_space_group_name_H-M   'P 21/c'
_symmetry_Int_Tables_number      14
_space_group_name_Hall           '-P 2ybc'
loop_
_symmetry_equiv_pos_site_id
_symmetry_equiv_pos_as_xyz
1 x,y,z
2 -x,1/2+y,1/2-z
3 -x,-y,-z
4 x,1/2-y,1/2+z
_cell_length_a                   9.5342(2)
_cell_length_b                   19.6392(4)
_cell_length_c                   7.01900(10)
_cell_angle_alpha                90
_cell_angle_beta                 94.9956(7)
_cell_angle_gamma                90
_cell_volume                     1309.27
loop_
_atom_site_label
_atom_site_type_symbol
_atom_site_fract_x
_atom_site_fract_y
_atom_site_fract_z
Cu1 Cu 0.01656(3) 0.726702(16) 0.71715(4)
N1 N -0.1293(2) 0.65537(11) 0.6328(3)
N2 N 0.1309(2) 0.64034(10) 0.7868(3)
C1 C 0.4688(4) 0.58537(19) 1.0356(5)
H1 H 0.5083 0.5500 1.1103
N3 N 0.1219(2) 0.71847(11) 0.4134(3)
N4 N 0.1973(2) 0.67045(12) 0.3908(3)
N5 N 0.2722(3) 0.62497(14) 0.3803(4)
N6 N -0.0977(2) 0.80032(12) 0.5998(3)
N7 N -0.0827(2) 0.85954(12) 0.6346(3)
N8 N -0.0739(3) 0.91716(12) 0.6595(4)
C2 C -0.2590(3) 0.66455(15) 0.5538(4)
H2 H -0.2903 0.7087 0.5273
C3 C -0.3502(3) 0.61064(17) 0.5091(4)
H3 H -0.4409 0.6186 0.4537
C4 C -0.3048(3) 0.54568(17) 0.5478(4)
H4 H -0.3640 0.5088 0.5186
C5 C -0.1697(3) 0.53556(14) 0.6308(4)
H5 H -0.1362 0.4919 0.6594
C6 C -0.0863(3) 0.59151(13) 0.6698(4)
C7 C 0.0607(3) 0.58590(13) 0.7521(3)
H6 H 0.1014 0.5435 0.7782
C8 C 0.2758(3) 0.63714(14) 0.8580(4)
C9 C 0.3308(3) 0.58438(15) 0.9724(4)
H7 H 0.2734 0.5487 1.0054
C10 C 0.3637(3) 0.68946(15) 0.8140(4)
H8 H 0.3263 0.7247 0.7368
N9 N 0.5012(3) 0.69206(17) 0.8776(4)
C11 C 0.5484(4) 0.6387(3) 0.9885(6)
H9 H 0.6426 0.6388 1.0355
Cu1C Cu 0.01656(3) 0.773298(16) 0.21715(4)
N3C N 0.1219(2) 0.78153(11) 0.9134(3)
loop_
_geom_bond_atom_site_label_1
_geom_bond_atom_site_label_2
_geom_bond_site_symmetry_1
_geom_bond_site_symmetry_2
Cu1 N1 1_555 1_555
N1 C2 1_555 1_555
N2 Cu1 1_555 1_555
C1 H1 1_555 1_555
N3 Cu1 1_555 1_555
N4 N3 1_555 1_555
N5 N4 1_555 1_555
N6 Cu1 1_555 1_555
N7 N6 1_555 1_555
N8 N7 1_555 1_555
C2 H2 1_555 1_555
C3 C2 1_555 1_555
H3 C3 1_555 1_555
C4 C3 1_555 1_555
H4 C4 1_555 1_555
C5 C4 1_555 1_555
H5 C5 1_555 1_555
C6 N1 1_555 1_555
C7 N2 1_555 1_555
H6 C7 1_555 1_555
C8 N2 1_555 1_555
C9 C1 1_555 1_555
H7 C9 1_555 1_555
C10 C8 1_555 1_555
H8 C10 1_555 1_555
N9 C10 1_555 1_555
C11 C1 1_555 1_555
H9 C11 1_555 1_555
Cu1C N3 1_555 1_555
N3C Cu1 1_555 1_555
C5 C6 1_555 1_555
C6 C7 1_555 1_555
C8 C9 1_555 1_555
N9 C11 1_555 1_555

#END
