
#######################################################################
#
#                 Cambridge Crystallographic Data Centre
#                                CCDC 
#
#######################################################################
#
# If this CIF has been generated from an entry in the Cambridge 
# Structural Database, then it will include bibliographic, chemical, 
# crystal, experimental, refinement or atomic coordinate data resulting 
# from the CCDC's data processing and validation procedures.
#
#######################################################################

data_ADIVUG
_symmetry_cell_setting           monoclinic
_symmetry_space_group_name_H-M   'C 2/c'
_symmetry_Int_Tables_number      15
_space_group_name_Hall           '-C 2yn'
loop_
_symmetry_equiv_pos_site_id
_symmetry_equiv_pos_as_xyz
1 x,y,z
2 -x,y,1/2-z
3 1/2+x,1/2+y,z
4 1/2-x,1/2+y,1/2-z
5 -x,-y,-z
6 x,-y,1/2+z
7 1/2-x,1/2-y,-z
8 1/2+x,1/2-y,1/2+z
_cell_length_a                   19.058(8)
_cell_length_b                   8.910(3)
_cell_length_c                   16.588(7)
_cell_angle_alpha                90
_cell_angle_beta                 121.379(4)
_cell_angle_gamma                90
_cell_volume                     2404.78
loop_
_atom_site_label
_atom_site_type_symbol
_atom_site_fract_x
_atom_site_fract_y
_atom_site_fract_z
Cd1 Cd 0.0000 0.34222(7) 0.2500
Br1 Br 0.04886(4) 0.52505(10) 0.16497(5)
O1 O -0.1221(2) 0.2430(5) 0.1176(3)
O3 O -0.0051(2) 0.1305(5) 0.1551(3)
N1 N -0.1893(3) -0.0778(5) -0.1604(3)
C1 C -0.0812(4) 0.1496(7) 0.1035(4)
C2 C -0.1239(3) 0.0582(6) 0.0121(4)
C3 C -0.0833(3) -0.0561(8) -0.0025(4)
H1 H -0.0318 -0.0906 0.0479
C4 C -0.2032(3) 0.0944(7) -0.0596(4)
H2 H -0.2349 0.1665 -0.0501
C5 C -0.1172(3) -0.1199(7) -0.0899(4)
H3 H -0.0880 -0.1967 -0.0999
C6 C -0.2343(4) 0.0222(6) -0.1451(4)
H4 H -0.2890 0.0433 -0.1945
C7 C -0.2221(5) -0.1360(7) -0.2582(4)
H5 H -0.2760 -0.1843 -0.2807
H6 H -0.1843 -0.2137 -0.2567
C8 C -0.2325(4) -0.0127(7) -0.3280(4)
C9 C -0.3021(4) -0.0026(7) -0.4137(4)
H7 H -0.3470 -0.0662 -0.4273
C10 C -0.1671(4) 0.0865(7) -0.3058(4)
H8 H -0.1180 0.0826 -0.2455
C11 C -0.3107(3) 0.0972(7) -0.4829(4)
H9 H -0.3598 0.0976 -0.5432
C12 C -0.1752(4) 0.1901(7) -0.3730(4)
H10 H -0.1314 0.2577 -0.3574
C13 C -0.2465(3) 0.1976(6) -0.4633(4)
Cd1F Cd -0.5000 0.15778(7) -1.2500
Br1A Br -0.04886(4) 0.52505(10) 0.33503(5)
O1F O -0.3779(2) 0.2570(5) -1.1176(3)
O1A O 0.1221(2) 0.2430(5) 0.3824(3)
O3F O -0.4949(2) 0.3695(5) -1.1551(3)
O3A O 0.0051(2) 0.1305(5) 0.3449(3)
N1F N -0.3107(3) 0.5778(5) -0.8396(3)
C1F C -0.4188(4) 0.3504(7) -1.1035(4)
C2F C -0.3761(3) 0.4418(6) -1.0121(4)
C3F C -0.4167(3) 0.5561(8) -0.9975(4)
H1F H -0.4682 0.5906 -1.0479
C4F C -0.2968(3) 0.4056(7) -0.9404(4)
H2F H -0.2651 0.3335 -0.9499
C5F C -0.3828(3) 0.6199(7) -0.9101(4)
H3F H -0.4120 0.6967 -0.9001
C6F C -0.2657(4) 0.4778(6) -0.8549(4)
H4F H -0.2110 0.4567 -0.8055
C7F C -0.2779(5) 0.6360(7) -0.7418(4)
H5F H -0.2240 0.6843 -0.7193
H6F H -0.3157 0.7137 -0.7433
C8F C -0.2675(4) 0.5127(7) -0.6720(4)
C9F C -0.1979(4) 0.5026(7) -0.5863(4)
H7F H -0.1530 0.5662 -0.5727
C10F C -0.3329(4) 0.4135(7) -0.6942(4)
H8F H -0.3820 0.4174 -0.7545
C11F C -0.1893(3) 0.4028(7) -0.5171(4)
H9F H -0.1402 0.4024 -0.4568
C12F C -0.3248(4) 0.3099(7) -0.6270(4)
H10F H -0.3686 0.2423 -0.6426
C13F C -0.2535(3) 0.3024(6) -0.5367(4)
O2 O 0.029(3) 0.709(4) 0.012(2)
loop_
_geom_bond_atom_site_label_1
_geom_bond_atom_site_label_2
_geom_bond_site_symmetry_1
_geom_bond_site_symmetry_2
Cd1 Br1 1_555 1_555
O1 Cd1 1_555 1_555
O3 Cd1 1_555 1_555
N1 C5 1_555 1_555
C1 O1 1_555 1_555
C2 C1 1_555 1_555
C3 C2 1_555 1_555
H1 C3 1_555 1_555
C4 C2 1_555 1_555
H2 C4 1_555 1_555
C5 C3 1_555 1_555
H3 C5 1_555 1_555
C6 N1 1_555 1_555
H4 C6 1_555 1_555
C7 N1 1_555 1_555
H5 C7 1_555 1_555
H6 C7 1_555 1_555
C8 C7 1_555 1_555
C9 C8 1_555 1_555
H7 C9 1_555 1_555
C10 C8 1_555 1_555
H8 C10 1_555 1_555
C11 C9 1_555 1_555
H9 C11 1_555 1_555
C12 C10 1_555 1_555
H10 C12 1_555 1_555
C13 C11 1_555 1_555
Cd1F O1F 1_555 1_555
Br1A Cd1 1_555 1_555
O1F C1F 1_555 1_555
O1A Cd1 1_555 1_555
O3F Cd1F 1_555 1_555
O3A Cd1 1_555 1_555
N1F C5F 1_555 1_555
C1F O3F 1_555 1_555
C2F C1F 1_555 1_555
C3F C2F 1_555 1_555
H1F C3F 1_555 1_555
C4F C2F 1_555 1_555
H2F C4F 1_555 1_555
C5F C3F 1_555 1_555
H3F C5F 1_555 1_555
C6F N1F 1_555 1_555
H4F C6F 1_555 1_555
C7F N1F 1_555 1_555
H5F C7F 1_555 1_555
H6F C7F 1_555 1_555
C8F C7F 1_555 1_555
C9F C8F 1_555 1_555
H7F C9F 1_555 1_555
C10F C8F 1_555 1_555
H8F C10F 1_555 1_555
C11F C9F 1_555 1_555
H9F C11F 1_555 1_555
C12F C10F 1_555 1_555
H10F C12F 1_555 1_555
C13F C13 1_555 1_555
O3 C1 1_555 1_555
C4 C6 1_555 1_555
C12 C13 1_555 1_555
C4F C6F 1_555 1_555
C11F C13F 1_555 1_555
C12F C13F 1_555 1_555

#END
