
#######################################################################
#
#                 Cambridge Crystallographic Data Centre
#                                CCDC 
#
#######################################################################
#
# If this CIF has been generated from an entry in the Cambridge 
# Structural Database, then it will include bibliographic, chemical, 
# crystal, experimental, refinement or atomic coordinate data resulting 
# from the CCDC's data processing and validation procedures.
#
#######################################################################

data_ADIWAN
_symmetry_cell_setting           monoclinic
_symmetry_space_group_name_H-M   'P 21/n'
_symmetry_Int_Tables_number      14
_space_group_name_Hall           '-P 2yn'
loop_
_symmetry_equiv_pos_site_id
_symmetry_equiv_pos_as_xyz
1 x,y,z
2 1/2-x,1/2+y,1/2-z
3 -x,-y,-z
4 1/2+x,1/2-y,1/2+z
_cell_length_a                   16.368(2)
_cell_length_b                   9.5792(11)
_cell_length_c                   19.184(3)
_cell_angle_alpha                90
_cell_angle_beta                 113.300(7)
_cell_angle_gamma                90
_cell_volume                     2762.6
loop_
_atom_site_label
_atom_site_type_symbol
_atom_site_fract_x
_atom_site_fract_y
_atom_site_fract_z
Cd1 Cd 0.308946(16) 0.27439(3) 0.531080(16)
Br1 Br 0.23244(3) 0.10478(5) 0.59600(3)
Br2 Br 0.38786(3) 0.10953(5) 0.46940(2)
O1 O 0.19981(18) 0.4447(4) 0.4923(2)
O2 O 0.1663(2) 0.2712(4) 0.4105(2)
O3 O -1.0709(2) 0.1730(4) 0.14886(19)
O4 O -1.07985(18) 0.0410(3) 0.05261(17)
N1 N -0.28447(18) 0.4830(3) 0.28868(18)
N2 N -0.60987(18) 0.0051(3) 0.28756(17)
C1 C 0.1456(3) 0.3808(5) 0.4352(3)
C2 C 0.0524(2) 0.4370(4) 0.3958(2)
C3 C 0.0244(2) 0.5519(4) 0.4253(2)
H1 H 0.0641 0.5972 0.4682
C4 C -0.0072(2) 0.3731(4) 0.3307(2)
H2 H 0.0114 0.2971 0.3105
C5 C -0.0629(2) 0.5987(4) 0.3905(2)
H3 H -0.0817 0.6744 0.4106
C6 C -0.0933(3) 0.4201(4) 0.2955(2)
H4 H -0.1323 0.3767 0.2516
C7 C -0.1219(2) 0.5330(4) 0.3260(2)
C8 C -0.2166(2) 0.5866(4) 0.2866(3)
H5 H -0.2228 0.6723 0.3110
H6 H -0.2280 0.6082 0.2342
C9 C -0.2701(3) 0.4049(5) 0.3497(2)
H7 H -0.2169 0.4144 0.3919
C10 C -0.3621(2) 0.4750(4) 0.2276(2)
H8 H -0.3720 0.5319 0.1858
C11 C -0.3323(2) 0.3105(5) 0.3517(2)
H9 H -0.3207 0.2560 0.3947
C12 C -0.4264(2) 0.3835(4) 0.2271(2)
H10 H -0.4800 0.3791 0.1849
C13 C -0.4129(2) 0.2967(4) 0.2889(2)
C14 C -0.4817(2) 0.1940(4) 0.2888(2)
C15 C -0.4617(2) 0.0882(4) 0.3425(2)
H11 H -0.4041 0.0794 0.3793
C16 C -0.5678(2) 0.2001(4) 0.2333(2)
H12 H -0.5831 0.2675 0.1953
C17 C -0.5268(2) -0.0034(4) 0.3415(2)
H13 H -0.5133 -0.0722 0.3785
C18 C -0.6301(2) 0.1052(4) 0.2350(2)
H14 H -0.6880 0.1110 0.1986
C19 C -0.6764(2) -0.1014(4) 0.2895(3)
H15 H -0.6659 -0.1883 0.2685
H16 H -0.6672 -0.1185 0.3419
C20 C -0.7712(2) -0.0580(4) 0.2462(2)
C21 C -0.8158(2) -0.0957(4) 0.1708(2)
H17 H -0.7875 -0.1515 0.1475
C22 C -0.8156(2) 0.0200(4) 0.2816(2)
H18 H -0.7869 0.0435 0.3326
C23 C -0.9027(2) -0.0508(4) 0.1296(2)
H19 H -0.9316 -0.0744 0.0787
C24 C -0.9026(2) 0.0626(4) 0.2407(2)
H20 H -0.9320 0.1143 0.2648
C25 C -0.9462(2) 0.0292(4) 0.1649(2)
C26 C -1.0388(2) 0.0847(4) 0.1194(2)
Cd1C Cd -1.191054(16) 0.22561(3) 0.031080(16)
O3C O 0.4291(2) 0.3270(4) 0.64886(19)
O4C O 0.42015(18) 0.4590(3) 0.55261(17)
O5 O -0.0936(9) 0.1821(11) 0.4282(6)
O6 O -0.4064(3) 0.2704(4) 0.5123(3)
H21 H -0.4547 0.2327 0.5023
H22 H -0.4055 0.3479 0.4944
O7 O -0.2276(3) 0.2802(5) 0.5587(3)
H23 H -0.2743 0.2930 0.5641
H24 H -0.2296 0.2140 0.5310
O8 O -0.1087(6) 0.0760(12) 0.5715(5)
O9? O -0.089(2) 0.002(4) 0.5792(16)
loop_
_geom_bond_atom_site_label_1
_geom_bond_atom_site_label_2
_geom_bond_site_symmetry_1
_geom_bond_site_symmetry_2
Cd1 Br1 1_555 1_555
Br2 Cd1 1_555 1_555
O1 Cd1 1_555 1_555
O2 Cd1 1_555 1_555
O3 C26 1_555 1_555
O4 C26 1_555 1_555
N1 C8 1_555 1_555
N2 C17 1_555 1_555
C1 O1 1_555 1_555
C2 C1 1_555 1_555
C3 C2 1_555 1_555
H1 C3 1_555 1_555
C4 C2 1_555 1_555
H2 C4 1_555 1_555
C5 C3 1_555 1_555
H3 C5 1_555 1_555
C6 C4 1_555 1_555
H4 C6 1_555 1_555
C7 C5 1_555 1_555
C8 C7 1_555 1_555
H5 C8 1_555 1_555
H6 C8 1_555 1_555
C9 N1 1_555 1_555
H7 C9 1_555 1_555
C10 N1 1_555 1_555
H8 C10 1_555 1_555
C11 C9 1_555 1_555
H9 C11 1_555 1_555
C12 C10 1_555 1_555
H10 C12 1_555 1_555
C13 C11 1_555 1_555
C14 C13 1_555 1_555
C15 C14 1_555 1_555
H11 C15 1_555 1_555
C16 C14 1_555 1_555
H12 C16 1_555 1_555
C17 C15 1_555 1_555
H13 C17 1_555 1_555
C18 N2 1_555 1_555
H14 C18 1_555 1_555
C19 N2 1_555 1_555
H15 C19 1_555 1_555
H16 C19 1_555 1_555
C20 C19 1_555 1_555
C21 C20 1_555 1_555
H17 C21 1_555 1_555
C22 C20 1_555 1_555
H18 C22 1_555 1_555
C23 C21 1_555 1_555
H19 C23 1_555 1_555
C24 C22 1_555 1_555
H20 C24 1_555 1_555
C25 C23 1_555 1_555
C26 C25 1_555 1_555
O6 H21 1_555 1_555
H22 O6 1_555 1_555
O7 H23 1_555 1_555
H24 O7 1_555 1_555
Cd1C O3 1_555 1_555
O3C Cd1 1_555 1_555
O4C Cd1 1_555 1_555
O2 C1 1_555 1_555
O4 Cd1C 1_555 1_555
C6 C7 1_555 1_555
C12 C13 1_555 1_555
C16 C18 1_555 1_555
C24 C25 1_555 1_555

#END
