
#######################################################################
#
#                 Cambridge Crystallographic Data Centre
#                                CCDC 
#
#######################################################################
#
# If this CIF has been generated from an entry in the Cambridge 
# Structural Database, then it will include bibliographic, chemical, 
# crystal, experimental, refinement or atomic coordinate data resulting 
# from the CCDC's data processing and validation procedures.
#
#######################################################################

data_ADIXUH
_symmetry_cell_setting           orthorhombic
_symmetry_space_group_name_H-M   'P b c n'
_symmetry_Int_Tables_number      60
_space_group_name_Hall           '-P 2n 2ab'
loop_
_symmetry_equiv_pos_site_id
_symmetry_equiv_pos_as_xyz
1 x,y,z
2 1/2-x,1/2-y,1/2+z
3 -x,y,1/2-z
4 1/2+x,1/2-y,-z
5 -x,-y,-z
6 1/2+x,1/2+y,1/2-z
7 x,-y,1/2+z
8 1/2-x,1/2+y,z
_cell_length_a                   15.153(9)
_cell_length_b                   25.681(14)
_cell_length_c                   24.530(14)
_cell_angle_alpha                90
_cell_angle_beta                 90
_cell_angle_gamma                90
_cell_volume                     9545.71
loop_
_atom_site_label
_atom_site_type_symbol
_atom_site_fract_x
_atom_site_fract_y
_atom_site_fract_z
Ag1 Ag -0.28083(7) -0.13041(4) 0.16546(4)
Ag2 Ag -0.20532(7) 0.10582(4) 0.09364(4)
Ag3 Ag -0.07976(7) -0.05407(4) 0.36602(4)
Ag4 Ag -0.5000 0.14991(6) 0.2500
Ag5 Ag 0.0000 0.17054(6) 0.2500
Ag6 Ag -0.5000 0.0000 0.0000
C1 C -0.1602(8) -0.0935(5) 0.2593(5)
C2 C -0.1560(8) -0.1588(5) 0.3151(5)
C3 C -0.1447(9) -0.1938(6) 0.3587(5)
H1 H -0.1217 -0.1827 0.3918
C4 C -0.1682(10) -0.2436(6) 0.3508(7)
H2 H -0.1632 -0.2670 0.3796
C5 C -0.1995(10) -0.2611(6) 0.3015(7)
H3 H -0.2131 -0.2962 0.2970
C6 C -0.2109(8) -0.2274(5) 0.2586(6)
H4 H -0.2338 -0.2388 0.2255
C7 C -0.1875(7) -0.1764(5) 0.2662(5)
C8 C -0.1482(9) -0.0409(5) 0.2374(5)
C9 C -0.1143(7) -0.0307(5) 0.1860(5)
H5 H -0.1048 -0.0585 0.1624
C10 C -0.0939(8) 0.0192(5) 0.1685(5)
C11 C -0.1110(8) 0.0605(5) 0.2044(5)
H6 H -0.0992 0.0944 0.1933
C12 C -0.1456(8) 0.0520(5) 0.2568(5)
C13 C -0.1644(7) 0.0009(5) 0.2720(4)
H7 H -0.1886 -0.0055 0.3062
C14 C -0.1511(8) 0.0936(5) 0.2983(5)
C15 C -0.1975(9) 0.1309(5) 0.3742(5)
C16 C -0.2381(9) 0.1457(5) 0.4226(5)
H8 H -0.2862 0.1276 0.4366
C17 C -0.2045(11) 0.1873(6) 0.4480(6)
H9 H -0.2319 0.1990 0.4796
C18 C -0.1293(12) 0.2142(7) 0.4291(6)
H10 H -0.1059 0.2420 0.4487
C19 C -0.0916(11) 0.1983(6) 0.3811(7)
H11 H -0.0426 0.2158 0.3677
C20 C -0.1258(9) 0.1563(5) 0.3524(5)
C21 C -0.0537(9) 0.0316(5) 0.1146(5)
C22 C 0.0398(8) 0.0382(5) 0.0502(5)
C23 C 0.1111(8) 0.0324(6) 0.0150(6)
H12 H 0.1544 0.0075 0.0218
C24 C 0.1165(11) 0.0642(7) -0.0300(6)
H13 H 0.1621 0.0606 -0.0551
C25 C 0.0517(13) 0.1018(7) -0.0367(6)
H14 H 0.0567 0.1244 -0.0662
C26 C -0.0211(11) 0.1078(5) -0.0016(6)
H15 H -0.0650 0.1323 -0.0082
C27 C -0.0235(9) 0.0755(5) 0.0428(6)
C28 C -0.4070(8) -0.0667(5) 0.0957(5)
C29 C -0.4010(8) -0.1437(5) 0.0618(5)
C30 C -0.3952(9) -0.1962(6) 0.0527(6)
H16 H -0.3699 -0.2181 0.0785
C31 C -0.4285(10) -0.2160(6) 0.0032(7)
H17 H -0.4260 -0.2516 -0.0038
C32 C -0.4649(10) -0.1826(7) -0.0349(6)
H18 H -0.4853 -0.1966 -0.0675
C33 C -0.4724(8) -0.1296(7) -0.0270(5)
H19 H -0.4974 -0.1079 -0.0532
C34 C -0.4392(8) -0.1097(5) 0.0241(5)
C35 C -0.3971(7) -0.0253(5) 0.1374(5)
C36 C -0.3898(7) 0.0271(5) 0.1254(4)
H20 H -0.3915 0.0380 0.0892
C37 C -0.3797(8) 0.0638(6) 0.1671(5)
C38 C -0.3770(8) 0.0467(5) 0.2210(5)
H21 H -0.3685 0.0710 0.2487
C39 C -0.3864(7) -0.0040(5) 0.2344(5)
C40 C -0.3999(7) -0.0397(5) 0.1926(5)
H22 H -0.4110 -0.0743 0.2015
C41 C -0.3777(8) -0.0214(5) 0.2926(5)
C42 C -0.3670(9) -0.0738(6) 0.3628(6)
C43 C -0.3593(8) -0.1157(5) 0.3992(5)
H23 H -0.3704 -0.1497 0.3882
C44 C -0.3348(9) -0.1045(6) 0.4514(6)
H24 H -0.3320 -0.1313 0.4768
C45 C -0.3136(8) -0.0535(7) 0.4682(5)
H25 H -0.2951 -0.0476 0.5038
C46 C -0.3204(8) -0.0114(6) 0.4314(6)
H26 H -0.3071 0.0224 0.4423
C47 C -0.3480(8) -0.0222(5) 0.3777(5)
C48 C -0.3750(9) 0.1186(5) 0.1545(5)
C49 C -0.3412(8) 0.1918(5) 0.1146(5)
C50 C -0.3091(8) 0.2328(5) 0.0838(5)
H27 H -0.2664 0.2274 0.0571
C51 C -0.3423(9) 0.2825(5) 0.0937(6)
H28 H -0.3223 0.3104 0.0730
C52 C -0.4040(8) 0.2909(5) 0.1335(6)
H29 H -0.4243 0.3246 0.1394
C53 C -0.4367(8) 0.2512(5) 0.1648(5)
H30 H -0.4795 0.2573 0.1913
C54 C -0.4041(8) 0.2025(5) 0.1558(5)
N1 N -0.1905(6) -0.1342(4) 0.2299(4)
N2 N -0.1361(7) -0.1067(4) 0.3109(4)
N3 N -0.2136(7) 0.0904(4) 0.3389(4)
H31 H -0.2547 0.0674 0.3416
N4 N -0.0988(6) 0.1327(4) 0.3047(4)
N5 N -0.0846(7) 0.0721(4) 0.0849(4)
N6 N 0.0206(6) 0.0100(4) 0.0977(4)
N7 N -0.3774(6) -0.1144(4) 0.1069(4)
N8 N -0.4424(7) -0.0599(4) 0.0451(4)
N9 N -0.3230(6) 0.1393(4) 0.1144(4)
N10 N -0.4249(7) 0.1561(4) 0.1802(4)
N11 N -0.3544(6) 0.0110(4) 0.3329(4)
N12 N -0.3851(7) -0.0718(4) 0.3080(4)
H32 H -0.3986 -0.0976 0.2873
N13 N -0.0410(8) 0.3397(5) 0.2615(5)
N14 N 0.0000 0.2579(6) 0.2500
C55 C -0.0638(10) 0.2920(7) 0.2671(7)
H33 H -0.1179 0.2817 0.2814
Ag1B Ag -0.71917(7) -0.13041(4) 0.33454(4)
Ag2B Ag -0.79468(7) 0.10582(4) 0.40636(4)
Ag3B Ag -0.92024(7) -0.05407(4) 0.13398(4)
Ag3B_2 Ag 0.07976(7) -0.05407(4) 0.13398(4)
Ag3_2 Ag -1.07976(7) -0.05407(4) 0.36602(4)
Ag5_2 Ag -1.0000 0.17054(6) 0.2500
Ag6F Ag -0.5000 0.0000 0.5000
C1B C -0.8398(8) -0.0935(5) 0.2407(5)
C2B C -0.8440(8) -0.1588(5) 0.1849(5)
C3B C -0.8553(9) -0.1938(6) 0.1413(5)
H1B H -0.8783 -0.1827 0.1082
C4B C -0.8318(10) -0.2436(6) 0.1492(7)
H2B H -0.8368 -0.2670 0.1204
C5B C -0.8005(10) -0.2611(6) 0.1985(7)
H3B H -0.7869 -0.2962 0.2030
C6B C -0.7891(8) -0.2274(5) 0.2414(6)
H4B H -0.7662 -0.2388 0.2745
C7B C -0.8125(7) -0.1764(5) 0.2338(5)
C8B C -0.8518(9) -0.0409(5) 0.2626(5)
C9B C -0.8857(7) -0.0307(5) 0.3140(5)
H5B H -0.8952 -0.0585 0.3376
C10B C -0.9061(8) 0.0192(5) 0.3315(5)
C11B C -0.8890(8) 0.0605(5) 0.2956(5)
H6B H -0.9008 0.0944 0.3067
C12B C -0.8544(8) 0.0520(5) 0.2432(5)
C13B C -0.8356(7) 0.0009(5) 0.2280(4)
H7B H -0.8114 -0.0055 0.1938
C14B C -0.8489(8) 0.0936(5) 0.2017(5)
C15B C -0.8025(9) 0.1309(5) 0.1258(5)
C16B C -0.7619(9) 0.1457(5) 0.0774(5)
H8B H -0.7138 0.1276 0.0634
C17B C -0.7955(11) 0.1873(6) 0.0520(6)
H9B H -0.7681 0.1990 0.0204
C18B C -0.8707(12) 0.2142(7) 0.0709(6)
H10B H -0.8941 0.2420 0.0513
C19B C -0.9084(11) 0.1983(6) 0.1189(7)
H11B H -0.9574 0.2158 0.1323
C20B C -0.8742(9) 0.1563(5) 0.1476(5)
C21B C -0.9463(9) 0.0316(5) 0.3854(5)
C22B C -1.0398(8) 0.0382(5) 0.4498(5)
C23B C -1.1111(8) 0.0324(6) 0.4850(6)
H12B H -1.1544 0.0075 0.4782
C24B C -1.1165(11) 0.0642(7) 0.5300(6)
H13B H -1.1621 0.0606 0.5551
C25B C -1.0517(13) 0.1018(7) 0.5367(6)
H14B H -1.0567 0.1244 0.5662
C26B C -0.9789(11) 0.1078(5) 0.5016(6)
H15B H -0.9350 0.1323 0.5082
C27B C -0.9765(9) 0.0755(5) 0.4572(6)
C28B C -0.5930(8) -0.0667(5) 0.4043(5)
C29B C -0.5990(8) -0.1437(5) 0.4382(5)
C30B C -0.6048(9) -0.1962(6) 0.4473(6)
H16B H -0.6301 -0.2181 0.4215
C31B C -0.5715(10) -0.2160(6) 0.4968(7)
H17B H -0.5740 -0.2516 0.5038
C32B C -0.5351(10) -0.1826(7) 0.5349(6)
H18B H -0.5147 -0.1966 0.5675
C33B C -0.5276(8) -0.1296(7) 0.5270(5)
H19B H -0.5026 -0.1079 0.5532
C34B C -0.5608(8) -0.1097(5) 0.4759(5)
C35B C -0.6029(7) -0.0253(5) 0.3626(5)
C36B C -0.6102(7) 0.0271(5) 0.3746(4)
H20B H -0.6085 0.0380 0.4108
C37B C -0.6203(8) 0.0638(6) 0.3329(5)
C38B C -0.6230(8) 0.0467(5) 0.2790(5)
H21B H -0.6315 0.0710 0.2513
C39B C -0.6136(7) -0.0040(5) 0.2656(5)
C40B C -0.6001(7) -0.0397(5) 0.3074(5)
H22B H -0.5890 -0.0743 0.2985
C41B C -0.6223(8) -0.0214(5) 0.2074(5)
C42B C -0.6330(9) -0.0738(6) 0.1372(6)
C43B C -0.6407(8) -0.1157(5) 0.1008(5)
H23B H -0.6296 -0.1497 0.1118
C44B C -0.6652(9) -0.1045(6) 0.0486(6)
H24B H -0.6680 -0.1313 0.0232
C45B C -0.6864(8) -0.0535(7) 0.0318(5)
H25B H -0.7049 -0.0476 -0.0038
C46B C -0.6796(8) -0.0114(6) 0.0686(6)
H26B H -0.6929 0.0224 0.0577
C47B C -0.6520(8) -0.0222(5) 0.1223(5)
C48B C -0.6250(9) 0.1186(5) 0.3455(5)
C49B C -0.6588(8) 0.1918(5) 0.3854(5)
C50B C -0.6909(8) 0.2328(5) 0.4162(5)
H27B H -0.7336 0.2274 0.4429
C51B C -0.6577(9) 0.2825(5) 0.4063(6)
H28B H -0.6777 0.3104 0.4270
C52B C -0.5960(8) 0.2909(5) 0.3665(6)
H29B H -0.5757 0.3246 0.3606
C53B C -0.5633(8) 0.2512(5) 0.3352(5)
H30B H -0.5205 0.2573 0.3087
C54B C -0.5959(8) 0.2025(5) 0.3442(5)
N1B N -0.8095(6) -0.1342(4) 0.2701(4)
N2B N -0.8639(7) -0.1067(4) 0.1891(4)
N3B N -0.7864(7) 0.0904(4) 0.1611(4)
H31B H -0.7453 0.0674 0.1584
N4B N -0.9012(6) 0.1327(4) 0.1953(4)
N4B_2 N 0.0988(6) 0.1327(4) 0.1953(4)
N5B N -0.9154(7) 0.0721(4) 0.4151(4)
N6B N -1.0206(6) 0.0100(4) 0.4023(4)
N6B_2 N -0.0206(6) 0.0100(4) 0.4023(4)
N6_2 N -0.9794(6) 0.0100(4) 0.0977(4)
N7B N -0.6226(6) -0.1144(4) 0.3931(4)
N8B N -0.5576(7) -0.0599(4) 0.4549(4)
N8D N -0.5576(7) 0.0599(4) -0.0451(4)
N9B N -0.6770(6) 0.1393(4) 0.3856(4)
N10B N -0.5751(7) 0.1561(4) 0.3198(4)
N11B N -0.6456(6) 0.0110(4) 0.1671(4)
N12B N -0.6149(7) -0.0718(4) 0.1920(4)
H32B H -0.6014 -0.0976 0.2127
N13B N 0.0410(8) 0.3397(5) 0.2385(5)
C55B C 0.0638(10) 0.2920(7) 0.2329(7)
H33B H 0.1179 0.2817 0.2186
loop_
_geom_bond_atom_site_label_1
_geom_bond_atom_site_label_2
_geom_bond_site_symmetry_1
_geom_bond_site_symmetry_2
Ag1 N1 1_555 1_555
Ag2 N5 1_555 1_555
Ag3 N2 1_555 1_555
Ag4 N10 1_555 1_555
Ag5 N4 1_555 1_555
Ag6 N8 1_555 1_555
C1 C8 1_555 1_555
C2 C3 1_555 1_555
C3 H1 1_555 1_555
C4 C3 1_555 1_555
H2 C4 1_555 1_555
C5 C4 1_555 1_555
H3 C5 1_555 1_555
C6 C5 1_555 1_555
H4 C6 1_555 1_555
C7 C2 1_555 1_555
C8 C9 1_555 1_555
C9 H5 1_555 1_555
C10 C9 1_555 1_555
C11 C10 1_555 1_555
H6 C11 1_555 1_555
C12 C11 1_555 1_555
C13 C8 1_555 1_555
H7 C13 1_555 1_555
C14 C12 1_555 1_555
C15 C16 1_555 1_555
C16 H8 1_555 1_555
C17 C16 1_555 1_555
H9 C17 1_555 1_555
C18 C17 1_555 1_555
H10 C18 1_555 1_555
C19 C18 1_555 1_555
H11 C19 1_555 1_555
C20 C15 1_555 1_555
C21 C10 1_555 1_555
C22 C23 1_555 1_555
C23 H12 1_555 1_555
C24 C23 1_555 1_555
H13 C24 1_555 1_555
C25 C24 1_555 1_555
H14 C25 1_555 1_555
C26 C25 1_555 1_555
H15 C26 1_555 1_555
C27 C22 1_555 1_555
C28 C35 1_555 1_555
C29 C30 1_555 1_555
C30 H16 1_555 1_555
C31 C30 1_555 1_555
H17 C31 1_555 1_555
C32 C31 1_555 1_555
H18 C32 1_555 1_555
C33 C32 1_555 1_555
H19 C33 1_555 1_555
C34 C29 1_555 1_555
C35 C36 1_555 1_555
C36 H20 1_555 1_555
C37 C36 1_555 1_555
C38 C37 1_555 1_555
H21 C38 1_555 1_555
C39 C38 1_555 1_555
C40 C35 1_555 1_555
H22 C40 1_555 1_555
C41 C39 1_555 1_555
C42 C43 1_555 1_555
C43 H23 1_555 1_555
C44 C43 1_555 1_555
H24 C44 1_555 1_555
C45 C44 1_555 1_555
H25 C45 1_555 1_555
C46 C45 1_555 1_555
H26 C46 1_555 1_555
C47 C42 1_555 1_555
C48 C37 1_555 1_555
C49 C50 1_555 1_555
C50 H27 1_555 1_555
C51 C50 1_555 1_555
H28 C51 1_555 1_555
C52 C51 1_555 1_555
H29 C52 1_555 1_555
C53 C52 1_555 1_555
H30 C53 1_555 1_555
C54 C49 1_555 1_555
N1 C1 1_555 1_555
N2 C1 1_555 1_555
N3 C14 1_555 1_555
H31 N3 1_555 1_555
N4 C14 1_555 1_555
N5 C21 1_555 1_555
N6 C21 1_555 1_555
N7 Ag1 1_555 1_555
N8 C28 1_555 1_555
N9 Ag2 1_555 1_555
N10 C48 1_555 1_555
N11 C41 1_555 1_555
N12 C41 1_555 1_555
H32 N12 1_555 1_555
N13 C55 1_555 1_555
N14 Ag5 1_555 1_555
C55 N14 1_555 1_555
H33 C55 1_555 1_555
Ag1B N1B 1_555 1_555
Ag2B N5B 1_555 1_555
Ag3B N2B 1_555 1_555
Ag3B_2 N6 1_555 1_555
Ag3_2 N6B 1_555 1_555
Ag5_2 N4B 1_555 1_555
Ag6F N8B 1_555 1_555
C1B C8B 1_555 1_555
C2B C3B 1_555 1_555
C3B H1B 1_555 1_555
C4B C3B 1_555 1_555
H2B C4B 1_555 1_555
C5B C4B 1_555 1_555
H3B C5B 1_555 1_555
C6B C5B 1_555 1_555
H4B C6B 1_555 1_555
C7B C2B 1_555 1_555
C8B C9B 1_555 1_555
C9B H5B 1_555 1_555
C10B C9B 1_555 1_555
C11B C10B 1_555 1_555
H6B C11B 1_555 1_555
C12B C11B 1_555 1_555
C13B C8B 1_555 1_555
H7B C13B 1_555 1_555
C14B C12B 1_555 1_555
C15B C16B 1_555 1_555
C16B H8B 1_555 1_555
C17B C16B 1_555 1_555
H9B C17B 1_555 1_555
C18B C17B 1_555 1_555
H10B C18B 1_555 1_555
C19B C18B 1_555 1_555
H11B C19B 1_555 1_555
C20B C15B 1_555 1_555
C21B C10B 1_555 1_555
C22B C23B 1_555 1_555
C23B H12B 1_555 1_555
C24B C23B 1_555 1_555
H13B C24B 1_555 1_555
C25B C24B 1_555 1_555
H14B C25B 1_555 1_555
C26B C25B 1_555 1_555
H15B C26B 1_555 1_555
C27B C22B 1_555 1_555
C28B C35B 1_555 1_555
C29B C30B 1_555 1_555
C30B H16B 1_555 1_555
C31B C30B 1_555 1_555
H17B C31B 1_555 1_555
C32B C31B 1_555 1_555
H18B C32B 1_555 1_555
C33B C32B 1_555 1_555
H19B C33B 1_555 1_555
C34B C29B 1_555 1_555
C35B C36B 1_555 1_555
C36B H20B 1_555 1_555
C37B C36B 1_555 1_555
C38B C37B 1_555 1_555
H21B C38B 1_555 1_555
C39B C38B 1_555 1_555
C40B C35B 1_555 1_555
H22B C40B 1_555 1_555
C41B C39B 1_555 1_555
C42B C43B 1_555 1_555
C43B H23B 1_555 1_555
C44B C43B 1_555 1_555
H24B C44B 1_555 1_555
C45B C44B 1_555 1_555
H25B C45B 1_555 1_555
C46B C45B 1_555 1_555
H26B C46B 1_555 1_555
C47B C42B 1_555 1_555
C48B C37B 1_555 1_555
C49B C50B 1_555 1_555
C50B H27B 1_555 1_555
C51B C50B 1_555 1_555
H28B C51B 1_555 1_555
C52B C51B 1_555 1_555
H29B C52B 1_555 1_555
C53B C52B 1_555 1_555
H30B C53B 1_555 1_555
C54B C49B 1_555 1_555
N1B C1B 1_555 1_555
N2B C1B 1_555 1_555
N3B C14B 1_555 1_555
H31B N3B 1_555 1_555
N4B C14B 1_555 1_555
N4B_2 Ag5 1_555 1_555
N5B C21B 1_555 1_555
N6B C21B 1_555 1_555
N6B_2 Ag3 1_555 1_555
N6_2 Ag3B 1_555 1_555
N7B Ag1B 1_555 1_555
N8B C28B 1_555 1_555
N8D Ag6 1_555 1_555
N9B Ag2B 1_555 1_555
N10B Ag4 1_555 1_555
N11B C41B 1_555 1_555
N12B C41B 1_555 1_555
H32B N12B 1_555 1_555
N13B N13 1_555 1_555
C55B N14 1_555 1_555
H33B C55B 1_555 1_555
C2 N2 1_555 1_555
C6 C7 1_555 1_555
C7 N1 1_555 1_555
C12 C13 1_555 1_555
C15 N3 1_555 1_555
C19 C20 1_555 1_555
C20 N4 1_555 1_555
C22 N6 1_555 1_555
C26 C27 1_555 1_555
C27 N5 1_555 1_555
C28 N7 1_555 1_555
C29 N7 1_555 1_555
C33 C34 1_555 1_555
C34 N8 1_555 1_555
C39 C40 1_555 1_555
C42 N12 1_555 1_555
C46 C47 1_555 1_555
C47 N11 1_555 1_555
C48 N9 1_555 1_555
C49 N9 1_555 1_555
C53 C54 1_555 1_555
C54 N10 1_555 1_555
C2B N2B 1_555 1_555
C6B C7B 1_555 1_555
C7B N1B 1_555 1_555
C12B C13B 1_555 1_555
C15B N3B 1_555 1_555
C19B C20B 1_555 1_555
C20B N4B 1_555 1_555
C22B N6B 1_555 1_555
C26B C27B 1_555 1_555
C27B N5B 1_555 1_555
C28B N7B 1_555 1_555
C29B N7B 1_555 1_555
C33B C34B 1_555 1_555
C34B N8B 1_555 1_555
C39B C40B 1_555 1_555
C42B N12B 1_555 1_555
C46B C47B 1_555 1_555
C47B N11B 1_555 1_555
C48B N9B 1_555 1_555
C48B N10B 1_555 1_555
C49B N9B 1_555 1_555
C53B C54B 1_555 1_555
C54B N10B 1_555 1_555
N13B C55B 1_555 1_555

#END
