
#######################################################################
#
#                 Cambridge Crystallographic Data Centre
#                                CCDC 
#
#######################################################################
#
# If this CIF has been generated from an entry in the Cambridge 
# Structural Database, then it will include bibliographic, chemical, 
# crystal, experimental, refinement or atomic coordinate data resulting 
# from the CCDC's data processing and validation procedures.
#
#######################################################################

data_ADIZOD
_symmetry_cell_setting           monoclinic
_symmetry_space_group_name_H-M   'P 21/n'
_symmetry_Int_Tables_number      14
_space_group_name_Hall           '-P 2yn'
loop_
_symmetry_equiv_pos_site_id
_symmetry_equiv_pos_as_xyz
1 x,y,z
2 1/2-x,1/2+y,1/2-z
3 -x,-y,-z
4 1/2+x,1/2-y,1/2+z
_cell_length_a                   12.7148(7)
_cell_length_b                   11.3018(7)
_cell_length_c                   14.6495(9)
_cell_angle_alpha                90
_cell_angle_beta                 114.8950(10)
_cell_angle_gamma                90
_cell_volume                     1909.53
loop_
_atom_site_label
_atom_site_type_symbol
_atom_site_fract_x
_atom_site_fract_y
_atom_site_fract_z
Cd1 Cd 0.493340(13) -0.231240(15) 0.234440(13)
O1 O 0.63479(13) -0.12936(14) 0.21471(13)
O2 O 0.66466(16) -0.30077(17) 0.15941(16)
O3 O 1.02844(15) -0.32859(15) 0.10054(16)
H1 H 1.0801 -0.3592 0.0891
O4 O 1.10329(14) -0.16487(15) 0.06961(13)
O5 O 0.36123(14) -0.29756(15) 0.29222(14)
O6 O 0.31103(16) -0.12737(16) 0.33582(16)
O7 O -0.03294(14) -0.11831(14) 0.41052(14)
H2 H -0.0890 -0.0891 0.4161
O8 O -0.11489(14) -0.28574(15) 0.42665(14)
O9 O 0.51730(10) -0.06959(11) 0.35102(9)
H3 H 0.4790 -0.0727 0.3867
H4 H 0.5315 -0.0010 0.3348
O10 O 0.42226(10) -0.38689(11) 0.12749(9)
H5 H 0.3488 -0.3924 0.1028
H6 H 0.4580 -0.4380 0.1085
N1 N 0.87087(15) 0.16837(16) 0.12696(13)
H7 H 0.8000 0.1951 0.1165
H8 H 0.8829 0.1887 0.0727
N2 N 0.14469(15) -0.61036(16) 0.39287(14)
H9 H 0.1410 -0.6291 0.4512
H10 H 0.2153 -0.6327 0.3990
C1 C 0.68836(18) -0.1958(2) 0.17761(17)
C2 C 0.78149(18) -0.1373(2) 0.15571(16)
C3 C 0.78637(17) -0.01468(19) 0.15420(16)
H11 H 0.7339 0.0297 0.1690
C4 C 0.86854(17) 0.04250(19) 0.13096(15)
C5 C 0.94893(18) -0.02422(19) 0.11280(16)
H12 H 1.0057 0.0133 0.0990
C6 C 0.94537(18) -0.1467(2) 0.11512(15)
C7 C 0.86062(19) -0.2043(2) 0.13534(17)
H13 H 0.8571 -0.2865 0.1352
C8 C 1.03316(19) -0.2134(2) 0.09302(17)
C9 C 0.3029(2) -0.2374(2) 0.32460(18)
C10 C 0.21521(17) -0.3012(2) 0.35164(16)
C11 C 0.21783(17) -0.4237(2) 0.35758(15)
H14 H 0.2717 -0.4658 0.3430
C12 C 0.14025(17) -0.48400(19) 0.38521(15)
C13 C 0.05734(18) -0.42059(19) 0.40302(15)
H15 H 0.0037 -0.4604 0.4195
C14 C 0.05407(17) -0.2981(2) 0.39636(16)
C15 C -0.0390(2) -0.2338(2) 0.41331(18)
C16 C 0.1337(2) -0.2374(2) 0.37161(18)
H16 H 0.1324 -0.1552 0.3685
Cd1A Cd 1.006660(13) 0.268760(15) 0.265560(13)
Cd1A_2 Cd 0.006660(13) -0.731240(15) 0.265560(13)
N1A N 0.62913(15) -0.33163(16) 0.37304(13)
H7A H 0.7000 -0.3049 0.3835
H8A H 0.6171 -0.3113 0.4273
N2A N 0.35531(15) -0.11036(16) 0.10713(14)
H9A H 0.3590 -0.1291 0.0488
H10A H 0.2847 -0.1327 0.1010
O11 O 0.72233(14) -0.51055(15) 0.10659(13)
H17 H 0.7058 -0.4392 0.1135
H18 H 0.7712 -0.5452 0.1587
O12 O 0.31174(15) -0.93752(16) 0.44062(13)
H19 H 0.2982 -1.0029 0.4090
H20 H 0.3407 -0.9410 0.5045
loop_
_geom_bond_atom_site_label_1
_geom_bond_atom_site_label_2
_geom_bond_site_symmetry_1
_geom_bond_site_symmetry_2
Cd1 O1 1_555 1_555
O1 C1 1_555 1_555
O2 C1 1_555 1_555
O3 H1 1_555 1_555
O4 C8 1_555 1_555
O5 Cd1 1_555 1_555
O6 C9 1_555 1_555
O7 H2 1_555 1_555
O8 C15 1_555 1_555
O9 Cd1 1_555 1_555
H3 O9 1_555 1_555
H4 O9 1_555 1_555
O10 Cd1 1_555 1_555
H5 O10 1_555 1_555
H6 O10 1_555 1_555
N1 H7 1_555 1_555
H8 N1 1_555 1_555
N2 H9 1_555 1_555
H10 N2 1_555 1_555
C1 C2 1_555 1_555
C2 C3 1_555 1_555
C3 H11 1_555 1_555
C4 N1 1_555 1_555
C5 C4 1_555 1_555
H12 C5 1_555 1_555
C6 C5 1_555 1_555
C7 C2 1_555 1_555
H13 C7 1_555 1_555
C8 O3 1_555 1_555
C9 O5 1_555 1_555
C10 C9 1_555 1_555
C11 C10 1_555 1_555
H14 C11 1_555 1_555
C12 N2 1_555 1_555
C13 C12 1_555 1_555
H15 C13 1_555 1_555
C14 C13 1_555 1_555
C15 O7 1_555 1_555
C16 C10 1_555 1_555
H16 C16 1_555 1_555
O11 H17 1_555 1_555
H18 O11 1_555 1_555
O12 H19 1_555 1_555
H20 O12 1_555 1_555
Cd1A N1 1_555 1_555
Cd1A_2 N2 1_555 1_555
N1A Cd1 1_555 1_555
H7A N1A 1_555 1_555
H8A N1A 1_555 1_555
N2A Cd1 1_555 1_555
H9A N2A 1_555 1_555
H10A N2A 1_555 1_555
C3 C4 1_555 1_555
C6 C7 1_555 1_555
C6 C8 1_555 1_555
C11 C12 1_555 1_555
C14 C15 1_555 1_555
C14 C16 1_555 1_555

#END
