
#######################################################################
#
#                 Cambridge Crystallographic Data Centre
#                                CCDC 
#
#######################################################################
#
# If this CIF has been generated from an entry in the Cambridge 
# Structural Database, then it will include bibliographic, chemical, 
# crystal, experimental, refinement or atomic coordinate data resulting 
# from the CCDC's data processing and validation procedures.
#
#######################################################################

data_ADOBUR
_symmetry_cell_setting           tetragonal
_symmetry_space_group_name_H-M   'P -4 n 2'
_symmetry_Int_Tables_number      118
_space_group_name_Hall           'P -4 -2n'
loop_
_symmetry_equiv_pos_site_id
_symmetry_equiv_pos_as_xyz
1 x,y,z
2 -x,-y,z
3 y,-x,-z
4 -y,x,-z
5 1/2+x,1/2-y,1/2+z
6 1/2-x,1/2+y,1/2+z
7 1/2+y,1/2+x,1/2-z
8 1/2-y,1/2-x,1/2-z
_cell_length_a                   17.0616(5)
_cell_length_b                   17.0616(5)
_cell_length_c                   14.6533(6)
_cell_angle_alpha                90
_cell_angle_beta                 90
_cell_angle_gamma                90
_cell_volume                     4265.55
loop_
_atom_site_label
_atom_site_type_symbol
_atom_site_fract_x
_atom_site_fract_y
_atom_site_fract_z
V1 V 0.12125(6) 0.11302(6) 0.12834(6)
V2 V 0.18551(6) -0.04745(7) 0.08877(9)
V3 V 0.18845(6) 0.03380(6) -0.08729(9)
V4 V 0.06630(8) -0.07055(8) 0.23037(7)
Ni1 Ni 0.25363(5) 0.24637(5) 0.2500
O1 O 0.1824(2) 0.1710(3) 0.1816(2)
O2 O 0.1850(3) 0.0591(3) 0.0377(3)
O3 O 0.1298(3) 0.0091(3) 0.1828(3)
O4 O 0.2716(3) -0.0675(4) 0.1242(4)
O5 O 0.1214(3) -0.1316(3) 0.1224(3)
O6 O 0.0718(3) 0.1779(3) 0.0372(3)
O7 O 0.2766(3) 0.0435(4) -0.1232(4)
O8 O 0.0189(3) 0.1298(3) 0.1821(3)
O9 O 0.0000 0.0000 0.2835(4)
O10 O 0.1059(3) -0.1136(3) 0.3171(3)
N1 N 0.3471(3) 0.2160(3) 0.1591(4)
N2 N 0.2213(3) 0.3400(3) 0.1600(4)
C1 C 0.1955(5) 0.3288(4) 0.0744(5)
H1 H 0.1813 0.2784 0.0570
C2 C 0.1890(5) 0.3880(4) 0.0109(6)
H2 H 0.1711 0.3776 -0.0478
C3 C 0.2101(5) 0.4646(5) 0.0369(6)
C4 C 0.3351(4) 0.1947(4) 0.0732(5)
H3 H 0.2848 0.1800 0.0558
C5 C 0.4216(4) 0.2288(5) 0.1852(6)
H4 H 0.4317 0.2409 0.2459
C6 C 0.4834(4) 0.2246(5) 0.1252(6)
H5 H 0.5344 0.2322 0.1459
C7 C 0.2088(4) 0.5304(4) -0.0325(5)
C8 C 0.3937(5) 0.1931(5) 0.0084(6)
H6 H 0.3816 0.1812 -0.0519
C9 C 0.2374(5) 0.4137(4) 0.1829(6)
H7 H 0.2514 0.4234 0.2432
C10 C 0.2348(5) 0.4766(4) 0.1244(6)
H8 H 0.2495 0.5263 0.1441
V1B V 0.11302(6) -0.12125(6) -0.12834(6)
V1A V -0.12125(6) -0.11302(6) 0.12834(6)
V1C V -0.11302(6) 0.12125(6) -0.12834(6)
V2C V 0.04745(7) 0.18551(6) -0.08877(9)
V2B V -0.04745(7) -0.18551(6) -0.08877(9)
V2A V -0.18551(6) 0.04745(7) 0.08877(9)
V3B V 0.03380(6) -0.18845(6) 0.08729(9)
V3C V -0.03380(6) 0.18845(6) 0.08729(9)
V3A V -0.18845(6) -0.03380(6) -0.08729(9)
V4A V -0.06630(8) 0.07055(8) 0.23037(7)
V4C V 0.07055(8) 0.06630(8) -0.23037(7)
V4B V -0.07055(8) -0.06630(8) -0.23037(7)
Ni1B Ni 0.24637(5) 0.74637(5) -0.2500
Ni1C Ni 0.75363(5) 0.25363(5) -0.2500
Ni1B_2 Ni 0.24637(5) -0.25363(5) 0.7500
Ni1C_2 Ni -0.24637(5) 0.25363(5) 0.7500
Ni1B_3 Ni 0.24637(5) -0.25363(5) -0.2500
Ni1A Ni -0.25363(5) -0.24637(5) 0.2500
Ni1C_3 Ni -0.24637(5) 0.25363(5) -0.2500
O1G O 0.3290(3) 0.3176(2) 0.3184(2)
O1B O 0.1710(3) -0.1824(2) -0.1816(2)
O1A O -0.1824(2) -0.1710(3) 0.1816(2)
O1C O -0.1710(3) 0.1824(2) -0.1816(2)
O1F O -0.3290(3) -0.3176(2) 0.3184(2)
O2B O 0.0591(3) -0.1850(3) -0.0377(3)
O2C O -0.0591(3) 0.1850(3) -0.0377(3)
O2A O -0.1850(3) -0.0591(3) 0.0377(3)
O3C O -0.0091(3) 0.1298(3) -0.1828(3)
O3A O -0.1298(3) -0.0091(3) 0.1828(3)
O3B O 0.0091(3) -0.1298(3) -0.1828(3)
O4C O 0.0675(4) 0.2716(3) -0.1242(4)
O4B O -0.0675(4) -0.2716(3) -0.1242(4)
O4A O -0.2716(3) 0.0675(4) 0.1242(4)
O5C O 0.1316(3) 0.1214(3) -0.1224(3)
O5A O -0.1214(3) 0.1316(3) 0.1224(3)
O5B O -0.1316(3) -0.1214(3) -0.1224(3)
O6B O 0.1779(3) -0.0718(3) -0.0372(3)
O6A O -0.0718(3) -0.1779(3) 0.0372(3)
O6C O -0.1779(3) 0.0718(3) -0.0372(3)
O7B O 0.0435(4) -0.2766(3) 0.1232(4)
O7C O -0.0435(4) 0.2766(3) 0.1232(4)
O7A O -0.2766(3) -0.0435(4) -0.1232(4)
O8B O 0.1298(3) -0.0189(3) -0.1821(3)
O8A O -0.0189(3) -0.1298(3) 0.1821(3)
O8C O -0.1298(3) 0.0189(3) -0.1821(3)
O9B O 0.0000 0.0000 -0.2835(4)
O10A O -0.1059(3) 0.1136(3) 0.3171(3)
O10C O 0.1136(3) 0.1059(3) -0.3171(3)
O10B O -0.1136(3) -0.1059(3) -0.3171(3)
N1G N 0.2840(3) 0.1529(3) 0.3409(4)
N1B N 0.2160(3) 0.6529(3) -0.1591(4)
N1E N 0.1529(3) -0.2840(3) 0.6591(4)
N1A N -0.3471(3) -0.2160(3) 0.1591(4)
N1F N -0.2840(3) -0.1529(3) 0.3409(4)
N2G N 0.1600(3) 0.2787(3) 0.3400(4)
N2C N 0.6600(3) 0.2213(3) -0.1600(4)
N2D N -0.2787(3) 0.1600(3) 0.6600(4)
N2A N -0.2213(3) -0.3400(3) 0.1600(4)
N2F N -0.1600(3) -0.2787(3) 0.3400(4)
C1C C 0.6712(4) 0.1955(5) -0.0744(5)
C1D C -0.3045(5) 0.1712(4) 0.5744(5)
C1F C -0.1712(4) -0.3045(5) 0.4256(5)
H1C H 0.7216 0.1813 -0.0570
H1D H -0.3187 0.2216 0.5570
H1F H -0.2216 -0.3187 0.4430
C2C C 0.6120(4) 0.1890(5) -0.0109(6)
C2D C -0.3110(5) 0.1120(4) 0.5109(6)
C2F C -0.1120(4) -0.3110(5) 0.4891(6)
H2C H 0.6224 0.1711 0.0478
H2D H -0.3289 0.1224 0.4522
H2F H -0.1224 -0.3289 0.5478
C3C C 0.5354(5) 0.2101(5) -0.0369(6)
C3D C -0.2899(5) 0.0354(5) 0.5369(6)
C3F C -0.0354(5) -0.2899(5) 0.4631(6)
C4B C 0.1947(4) 0.6649(4) -0.0732(5)
C4E C 0.1649(4) -0.3053(4) 0.5732(5)
C4F C -0.3053(4) -0.1649(4) 0.4268(5)
H3B H 0.1800 0.7152 -0.0558
H3E H 0.2152 -0.3200 0.5558
H3F H -0.3200 -0.2152 0.4442
C5B C 0.2288(5) 0.5784(4) -0.1852(6)
C5E C 0.0784(4) -0.2712(5) 0.6852(6)
C5F C -0.2712(5) -0.0784(4) 0.3148(6)
H4B H 0.2409 0.5683 -0.2459
H4E H 0.0683 -0.2591 0.7459
H4F H -0.2591 -0.0683 0.2541
C6B C 0.2246(5) 0.5166(4) -0.1252(6)
C6E C 0.0166(4) -0.2754(5) 0.6252(6)
C6F C -0.2754(5) -0.0166(4) 0.3748(6)
H5B H 0.2322 0.4656 -0.1459
H5E H -0.0344 -0.2678 0.6459
H5F H -0.2678 0.0344 0.3541
C7C C 0.4696(4) 0.2088(4) 0.0325(5)
C7F C 0.0304(4) -0.2912(4) 0.5325(5)
C7D C -0.2912(4) -0.0304(4) 0.4675(5)
C8B C 0.1931(5) 0.6063(5) -0.0084(6)
C8E C 0.1063(5) -0.3069(5) 0.5084(6)
C8F C -0.3069(5) -0.1063(5) 0.4916(6)
H6B H 0.1812 0.6184 0.0519
H6E H 0.1184 -0.3188 0.4481
H6F H -0.3188 -0.1184 0.5519
C9C C 0.5863(4) 0.2374(5) -0.1829(6)
C9D C -0.2626(5) 0.0863(4) 0.6829(6)
C9F C -0.0863(4) -0.2626(5) 0.3171(6)
H7C H 0.5766 0.2514 -0.2432
H7D H -0.2486 0.0766 0.7432
H7F H -0.0766 -0.2486 0.2568
C10C C 0.5234(4) 0.2348(5) -0.1244(6)
C10D C -0.2652(5) 0.0234(4) 0.6244(6)
C10F C -0.0234(4) -0.2652(5) 0.3756(6)
H8C H 0.4737 0.2495 -0.1441
H8D H -0.2505 -0.0263 0.6441
H8F H 0.0263 -0.2505 0.3559
F1 F 0.0000 0.0000 0.0000
O12 O 0.0706(16) 0.0481(17) 0.4849(19)
N5 N 0.5000 0.0000 0.0124(13)
C16 C 0.4313(9) 0.0027(12) 0.0609(12)
C17 C 0.4293(9) -0.0024(14) 0.1549(12)
C18 C 0.5000 0.0000 0.2029(13)
N5F N 0.5000 0.0000 0.4876(13)
C16A C 0.5687(9) -0.0027(12) 0.0609(12)
C16F C 0.5027(12) -0.0687(9) 0.4391(12)
C16G C 0.4973(12) 0.0687(9) 0.4391(12)
C17A C 0.5707(9) 0.0024(14) 0.1549(12)
C17F C 0.4976(14) -0.0707(9) 0.3451(12)
C17G C 0.5024(14) 0.0707(9) 0.3451(12)
C18F C 0.5000 0.0000 0.2971(13)
O11? O 0.0000 0.0000 0.5350(15)
N3? N 0.5000 0.0000 -0.1547(10)
N4? N 0.5000 0.0000 0.1615(14)
C11? C 0.4524(10) 0.0482(10) -0.2047(10)
C12? C 0.5000 0.0000 -0.1547(10)
C13? C 0.5000 0.0000 -0.0285(16)
C14? C 0.4298(8) 0.0000(11) 0.0189(10)
C15? C 0.4299(9) 0.0048(12) 0.1147(12)
loop_
_geom_bond_atom_site_label_1
_geom_bond_atom_site_label_2
_geom_bond_site_symmetry_1
_geom_bond_site_symmetry_2
V1 O1 1_555 1_555
V2 O2 1_555 1_555
V3 O2 1_555 1_555
V4 O3 1_555 1_555
Ni1 O1 1_555 1_555
O2 V1 1_555 1_555
O3 V1 1_555 1_555
O4 V2 1_555 1_555
O5 V2 1_555 1_555
O6 V1 1_555 1_555
O7 V3 1_555 1_555
O8 V1 1_555 1_555
O9 V4 1_555 1_555
O10 V4 1_555 1_555
N1 Ni1 1_555 1_555
N2 Ni1 1_555 1_555
N5 C16 1_555 1_555
C1 N2 1_555 1_555
H1 C1 1_555 1_555
C2 C1 1_555 1_555
H2 C2 1_555 1_555
C3 C2 1_555 1_555
C4 N1 1_555 1_555
H3 C4 1_555 1_555
C5 N1 1_555 1_555
H4 C5 1_555 1_555
C6 C5 1_555 1_555
H5 C6 1_555 1_555
C7 C3 1_555 1_555
C8 C4 1_555 1_555
H6 C8 1_555 1_555
C9 N2 1_555 1_555
H7 C9 1_555 1_555
C10 C3 1_555 1_555
H8 C10 1_555 1_555
C16 C17 1_555 1_555
C17 C18 1_555 1_555
C18 C17A 1_555 1_555
V1B O1B 1_555 1_555
V1A O1A 1_555 1_555
V1C O1C 1_555 1_555
V2C O6 1_555 1_555
V2B O2B 1_555 1_555
V2A O2A 1_555 1_555
V3B O5 1_555 1_555
V3C O6 1_555 1_555
V3A O2A 1_555 1_555
V4A O8 1_555 1_555
V4C O3C 1_555 1_555
V4B O3B 1_555 1_555
Ni1B N1B 1_555 1_555
Ni1C N2C 1_555 1_555
Ni1B_2 N1E 1_555 1_555
Ni1C_2 N2D 1_555 1_555
Ni1B_3 O1B 1_555 1_555
Ni1A O1A 1_555 1_555
Ni1C_3 O1C 1_555 1_555
O1G Ni1 1_555 1_555
O1F Ni1A 1_555 1_555
O2B V1B 1_555 1_555
O2C V1C 1_555 1_555
O2A V1A 1_555 1_555
O3C V1C 1_555 1_555
O3A V1A 1_555 1_555
O3B V1B 1_555 1_555
O4C V2C 1_555 1_555
O4B V2B 1_555 1_555
O4A V2A 1_555 1_555
O5C V3 1_555 1_555
O5A V2A 1_555 1_555
O5B V2B 1_555 1_555
O6B V2 1_555 1_555
O6A V1A 1_555 1_555
O6C V1C 1_555 1_555
O7B V3B 1_555 1_555
O7C V3C 1_555 1_555
O7A V3A 1_555 1_555
O8B V3 1_555 1_555
O8A V4 1_555 1_555
O8C V1C 1_555 1_555
O9B V4C 1_555 1_555
O10A V4A 1_555 1_555
O10C V4C 1_555 1_555
O10B V4B 1_555 1_555
N1G Ni1 1_555 1_555
N1B C4B 1_555 1_555
N1E C4E 1_555 1_555
N1A Ni1A 1_555 1_555
N1F Ni1A 1_555 1_555
N2G Ni1 1_555 1_555
N2C C1C 1_555 1_555
N2D C1D 1_555 1_555
N2A Ni1A 1_555 1_555
N2F Ni1A 1_555 1_555
N5F C16F 1_555 1_555
C1C H1C 1_555 1_555
C1D H1D 1_555 1_555
C1F N2F 1_555 1_555
H1F C1F 1_555 1_555
C2C C1C 1_555 1_555
C2D C1D 1_555 1_555
C2F C1F 1_555 1_555
H2C C2C 1_555 1_555
H2D C2D 1_555 1_555
H2F C2F 1_555 1_555
C3C C2C 1_555 1_555
C3D C2D 1_555 1_555
C3F C2F 1_555 1_555
C4B H3B 1_555 1_555
C4E H3E 1_555 1_555
C4F N1F 1_555 1_555
H3F C4F 1_555 1_555
C5B N1B 1_555 1_555
C5E N1E 1_555 1_555
C5F N1F 1_555 1_555
H4B C5B 1_555 1_555
H4E C5E 1_555 1_555
H4F C5F 1_555 1_555
C6B C7 1_555 1_555
C6E C5E 1_555 1_555
C6F C5F 1_555 1_555
H5B C6B 1_555 1_555
H5E C6E 1_555 1_555
H5F C6F 1_555 1_555
C7C C6 1_555 1_555
C7F C3F 1_555 1_555
C7D C3D 1_555 1_555
C8B C7 1_555 1_555
C8E C4E 1_555 1_555
C8F C4F 1_555 1_555
H6B C8B 1_555 1_555
H6E C8E 1_555 1_555
H6F C8F 1_555 1_555
C9C N2C 1_555 1_555
C9D N2D 1_555 1_555
C9F N2F 1_555 1_555
H7C C9C 1_555 1_555
H7D C9D 1_555 1_555
H7F C9F 1_555 1_555
C10C C3C 1_555 1_555
C10D C3D 1_555 1_555
C10F C3F 1_555 1_555
H8C C10C 1_555 1_555
H8D C10D 1_555 1_555
H8F C10F 1_555 1_555
C16A N5 1_555 1_555
C16F C17F 1_555 1_555
C16G N5F 1_555 1_555
C17A C16A 1_555 1_555
C17F C18F 1_555 1_555
C17G C16G 1_555 1_555
C18F C18 1_555 1_555
V2 O3 1_555 1_555
V3 O6B 1_555 1_555
V4 O5 1_555 1_555
O8 V3C 1_555 1_555
O9 V4A 1_555 1_555
C8 C7C 1_555 1_555
C9 C10 1_555 1_555
V1B O6B 1_555 1_555
V1B O8B 1_555 1_555
V1A O8A 1_555 1_555
V2C O2C 1_555 1_555
V2C O3C 1_555 1_555
V2C O5C 1_555 1_555
V2B O3B 1_555 1_555
V2B O6A 1_555 1_555
V2A O3A 1_555 1_555
V2A O6C 1_555 1_555
V3B O2B 1_555 1_555
V3B O6A 1_555 1_555
V3B O8A 1_555 1_555
V3C O2C 1_555 1_555
V3C O5A 1_555 1_555
V3A O5B 1_555 1_555
V3A O6C 1_555 1_555
V3A O8C 1_555 1_555
V4A O3A 1_555 1_555
V4A O5A 1_555 1_555
V4C O5C 1_555 1_555
V4C O8B 1_555 1_555
V4B O5B 1_555 1_555
V4B O8C 1_555 1_555
V4B O9B 1_555 1_555
C3C C7C 1_555 1_555
C4B C8B 1_555 1_555
C5B C6B 1_555 1_555
C6E C7F 1_555 1_555
C6F C7D 1_555 1_555
C7F C8E 1_555 1_555
C7D C8F 1_555 1_555
C9C C10C 1_555 1_555
C9D C10D 1_555 1_555
C9F C10F 1_555 1_555
C17G C18F 1_555 1_555

#END
