
#######################################################################
#
#                 Cambridge Crystallographic Data Centre
#                                CCDC 
#
#######################################################################
#
# If this CIF has been generated from an entry in the Cambridge 
# Structural Database, then it will include bibliographic, chemical, 
# crystal, experimental, refinement or atomic coordinate data resulting 
# from the CCDC's data processing and validation procedures.
#
#######################################################################

data_ADOBAX
_symmetry_cell_setting           tetragonal
_symmetry_space_group_name_H-M   'P -4 n 2'
_symmetry_Int_Tables_number      118
_space_group_name_Hall           'P -4 -2n'
loop_
_symmetry_equiv_pos_site_id
_symmetry_equiv_pos_as_xyz
1 x,y,z
2 -x,-y,z
3 y,-x,-z
4 -y,x,-z
5 1/2+x,1/2-y,1/2+z
6 1/2-x,1/2+y,1/2+z
7 1/2+y,1/2+x,1/2-z
8 1/2-y,1/2-x,1/2-z
_cell_length_a                   17.266(2)
_cell_length_b                   17.266(2)
_cell_length_c                   14.916(3)
_cell_angle_alpha                90
_cell_angle_beta                 90
_cell_angle_gamma                90
_cell_volume                     4446.68
loop_
_atom_site_label
_atom_site_type_symbol
_atom_site_fract_x
_atom_site_fract_y
_atom_site_fract_z
Cl1 Cl 0.0000 0.0000 0.0000
C11 C 0.5000 0.0000 0.190(2)
C12 C 0.5680(8) 0.0069(11) 0.152(2)
C13 C 0.5663(9) 0.0067(8) 0.0598(19)
N3 N 0.5000 0.0000 0.007(2)
C11F C 0.5000 0.0000 0.310(2)
C12A C 0.4320(8) -0.0069(11) 0.152(2)
C12F C 0.5069(11) 0.0680(8) 0.348(2)
C12G C 0.4931(11) -0.0680(8) 0.348(2)
C13A C 0.4337(9) -0.0067(8) 0.0598(19)
C13F C 0.5067(8) 0.0663(9) 0.4402(19)
C13G C 0.4933(8) -0.0663(9) 0.4402(19)
N3F N 0.5000 0.0000 0.493(2)
V1 V 0.12162(6) 0.10937(6) 0.12577(6)
V2 V 0.06229(9) -0.06970(10) 0.22768(9)
V3 V 0.18089(6) -0.05105(7) 0.08636(8)
V4 V 0.18608(6) 0.03002(6) -0.08506(8)
Mn1 Mn 0.25725(5) 0.24275(5) 0.2500
C1 C 0.2375(6) 0.4125(5) 0.1797(6)
H1 H 0.2529 0.4223 0.2383
C2 C 0.2319(6) 0.4741(5) 0.1216(6)
H2 H 0.2445 0.5239 0.1405
C3 C 0.1968(5) 0.3273(4) 0.0739(5)
H3 H 0.1845 0.2769 0.0573
C4 C 0.1880(5) 0.3860(4) 0.0120(6)
H4 H 0.1691 0.3751 -0.0451
C5 C 0.2264(5) 0.5723(5) -0.1802(6)
H5 H 0.2406 0.5629 -0.2394
C6 C 0.2246(4) 0.5109(6) -0.1219(7)
H6 H 0.2365 0.4612 -0.1414
C7 C 0.1857(4) 0.6575(5) -0.0714(5)
H7 H 0.1699 0.7070 -0.0551
C8 C 0.1845(5) 0.6004(5) -0.0082(6)
H8 H 0.1704 0.6120 0.0505
C9 C 0.2043(4) 0.5246(5) -0.0318(5)
C10 C 0.2073(4) 0.4613(5) 0.0350(5)
N1 N 0.2223(4) 0.3404(4) 0.1568(4)
N2 N 0.3547(3) 0.2087(4) 0.1563(4)
O1 O 0.1824(3) 0.1652(3) 0.1803(3)
O2 O 0.1282(3) 0.0066(3) 0.1792(3)
O3 O 0.1834(3) 0.0557(3) 0.0372(3)
O4 O 0.0000 0.0000 0.2809(5)
O5 O 0.0995(4) -0.1132(4) 0.3135(4)
O6 O 0.0207(3) 0.1261(3) 0.1782(3)
O7 O 0.1183(3) -0.1329(3) 0.1197(3)
O8 O 0.0755(3) 0.1758(3) 0.0365(3)
O9 O 0.2660(3) -0.0718(4) 0.1218(4)
O10 O 0.2734(3) 0.0384(4) -0.1195(4)
V1C V -0.10937(6) 0.12162(6) -0.12577(6)
V1A V -0.12162(6) -0.10937(6) 0.12577(6)
V1B V 0.10937(6) -0.12162(6) -0.12577(6)
V2A V -0.06229(9) 0.06970(10) 0.22768(9)
V2C V 0.06970(10) 0.06229(9) -0.22768(9)
V2B V -0.06970(10) -0.06229(9) -0.22768(9)
V3C V 0.05105(7) 0.18089(6) -0.08636(8)
V3A V -0.18089(6) 0.05105(7) 0.08636(8)
V3B V -0.05105(7) -0.18089(6) -0.08636(8)
V4C V -0.03002(6) 0.18608(6) 0.08506(8)
V4B V 0.03002(6) -0.18608(6) 0.08506(8)
V4A V -0.18608(6) -0.03002(6) -0.08506(8)
Mn1C Mn -0.24275(5) 0.25725(5) -0.2500
Mn1A Mn -0.25725(5) -0.24275(5) 0.2500
Mn1B Mn 0.24275(5) 0.74275(5) -0.2500
Mn1B_2 Mn 0.24275(5) -0.25725(5) -0.2500
Mn1C_2 Mn 0.75725(5) 0.25725(5) -0.2500
Mn1B_3 Mn 0.24275(5) -0.25725(5) 0.7500
Mn1C_3 Mn -0.24275(5) -0.74275(5) -0.2500
C1A C -0.2375(6) -0.4125(5) 0.1797(6)
C1F C -0.0875(5) -0.2625(6) 0.3203(6)
C1C C 0.5875(5) 0.2375(6) -0.1797(6)
H1A H -0.2529 -0.4223 0.2383
H1F H -0.0777 -0.2471 0.2617
H1C H 0.5777 0.2529 -0.2383
C2A C -0.2319(6) -0.4741(5) 0.1216(6)
C2F C -0.0259(5) -0.2681(6) 0.3784(6)
C2C C 0.5259(5) 0.2319(6) -0.1216(6)
H2A H -0.2445 -0.5239 0.1405
H2F H 0.0239 -0.2555 0.3595
H2C H 0.4761 0.2445 -0.1405
C3A C -0.1968(5) -0.3273(4) 0.0739(5)
C3F C -0.1727(4) -0.3032(5) 0.4261(5)
C3C C 0.6727(4) 0.1968(5) -0.0739(5)
H3A H -0.1845 -0.2769 0.0573
H3F H -0.2231 -0.3155 0.4427
H3C H 0.7231 0.1845 -0.0573
C4A C -0.1880(5) -0.3860(4) 0.0120(6)
C4F C -0.1140(4) -0.3120(5) 0.4880(6)
C4C C 0.6140(4) 0.1880(5) -0.0120(6)
H4A H -0.1691 -0.3751 -0.0451
H4F H -0.1249 -0.3309 0.5451
H4C H 0.6249 0.1691 0.0451
C5C C 0.4277(5) 0.2264(5) 0.1802(6)
C5A C -0.2264(5) -0.5723(5) -0.1802(6)
C5F C 0.0723(5) -0.2736(5) 0.6802(6)
H5C H 0.4371 0.2406 0.2394
H5A H -0.2406 -0.5629 -0.2394
H5F H 0.0629 -0.2594 0.7394
C6C C 0.4891(6) 0.2246(4) 0.1219(7)
C6A C -0.2246(4) -0.5109(6) -0.1219(7)
C6F C 0.0109(6) -0.2754(4) 0.6219(7)
H6C H 0.5388 0.2365 0.1414
H6A H -0.2365 -0.4612 -0.1414
H6F H -0.0388 -0.2635 0.6414
C7C C 0.3425(5) 0.1857(4) 0.0714(5)
C7A C -0.1857(4) -0.6575(5) -0.0714(5)
C7F C 0.1575(5) -0.3143(4) 0.5714(5)
H7C H 0.2930 0.1699 0.0551
H7A H -0.1699 -0.7070 -0.0551
H7F H 0.2070 -0.3301 0.5551
C8C C 0.3996(5) 0.1845(5) 0.0082(6)
C8A C -0.1845(5) -0.6004(5) -0.0082(6)
C8F C 0.1004(5) -0.3155(5) 0.5082(6)
H8C H 0.3880 0.1704 -0.0505
H8A H -0.1704 -0.6120 0.0505
H8F H 0.1120 -0.3296 0.4495
C9C C 0.4754(5) 0.2043(4) 0.0318(5)
C9A C -0.2043(4) -0.5246(5) -0.0318(5)
C9F C 0.0246(5) -0.2957(4) 0.5318(5)
C10C C 0.5387(5) 0.2073(4) -0.0350(5)
C10A C -0.2073(4) -0.4613(5) 0.0350(5)
C10F C -0.0387(5) -0.2927(4) 0.4650(5)
N1G N 0.1596(4) 0.2777(4) 0.3432(4)
N1A N -0.2223(4) -0.3404(4) 0.1568(4)
N1F N -0.1596(4) -0.2777(4) 0.3432(4)
N1C N 0.6596(4) 0.2223(4) -0.1568(4)
N2G N 0.2913(4) 0.1453(3) 0.3437(4)
N2B N 0.2087(4) 0.6453(3) -0.1563(4)
N2A N -0.3547(3) -0.2087(4) 0.1563(4)
N2F N -0.2913(4) -0.1453(3) 0.3437(4)
N2C N -0.2087(4) -0.6453(3) -0.1563(4)
N2E N 0.1453(3) -0.2913(4) 0.6563(4)
O1G O 0.3348(3) 0.3176(3) 0.3197(3)
O1C O -0.1652(3) 0.1824(3) -0.1803(3)
O1A O -0.1824(3) -0.1652(3) 0.1803(3)
O1B O 0.1652(3) -0.1824(3) -0.1803(3)
O1F O -0.3348(3) -0.3176(3) 0.3197(3)
O2C O -0.0066(3) 0.1282(3) -0.1792(3)
O2A O -0.1282(3) -0.0066(3) 0.1792(3)
O2B O 0.0066(3) -0.1282(3) -0.1792(3)
O3C O -0.0557(3) 0.1834(3) -0.0372(3)
O3B O 0.0557(3) -0.1834(3) -0.0372(3)
O3A O -0.1834(3) -0.0557(3) 0.0372(3)
O4B O 0.0000 0.0000 -0.2809(5)
O5A O -0.0995(4) 0.1132(4) 0.3135(4)
O5C O 0.1132(4) 0.0995(4) -0.3135(4)
O5B O -0.1132(4) -0.0995(4) -0.3135(4)
O6A O -0.0207(3) -0.1261(3) 0.1782(3)
O6B O 0.1261(3) -0.0207(3) -0.1782(3)
O6C O -0.1261(3) 0.0207(3) -0.1782(3)
O7C O 0.1329(3) 0.1183(3) -0.1197(3)
O7A O -0.1183(3) 0.1329(3) 0.1197(3)
O7B O -0.1329(3) -0.1183(3) -0.1197(3)
O8B O 0.1758(3) -0.0755(3) -0.0365(3)
O8A O -0.0755(3) -0.1758(3) 0.0365(3)
O8C O -0.1758(3) 0.0755(3) -0.0365(3)
O9C O 0.0718(4) 0.2660(3) -0.1218(4)
O9A O -0.2660(3) 0.0718(4) 0.1218(4)
O9B O -0.0718(4) -0.2660(3) -0.1218(4)
O10C O -0.0384(4) 0.2734(3) 0.1195(4)
O10B O 0.0384(4) -0.2734(3) 0.1195(4)
O10A O -0.2734(3) -0.0384(4) -0.1195(4)
O11? O 1.0000 1.0000 0.4717(18)
O12? O 0.463(2) 0.027(2) 0.813(2)
O13? O 0.0000 0.0000 0.1993(13)
loop_
_geom_bond_atom_site_label_1
_geom_bond_atom_site_label_2
_geom_bond_site_symmetry_1
_geom_bond_site_symmetry_2
V1 O1 1_555 1_555
V2 O2 1_555 1_555
V3 O2 1_555 1_555
V4 O3 1_555 1_555
Mn1 N1 1_555 1_555
C1 H1 1_555 1_555
C2 C1 1_555 1_555
H2 C2 1_555 1_555
C3 H3 1_555 1_555
C4 C3 1_555 1_555
H4 C4 1_555 1_555
C5 H5 1_555 1_555
C6 C5 1_555 1_555
H6 C6 1_555 1_555
C7 H7 1_555 1_555
C8 C7 1_555 1_555
H8 C8 1_555 1_555
C9 C6 1_555 1_555
C10 C2 1_555 1_555
C11 C12 1_555 1_555
C12 C13 1_555 1_555
C13 N3 1_555 1_555
N1 C1 1_555 1_555
N2 Mn1 1_555 1_555
N3 C13A 1_555 1_555
O1 Mn1 1_555 1_555
O2 V1 1_555 1_555
O3 V1 1_555 1_555
O4 V2 1_555 1_555
O5 V2 1_555 1_555
O6 V1 1_555 1_555
O7 V2 1_555 1_555
O8 V1 1_555 1_555
O9 V3 1_555 1_555
O10 V4 1_555 1_555
V1C O1C 1_555 1_555
V1A O1A 1_555 1_555
V1B O1B 1_555 1_555
V2A O4 1_555 1_555
V2C O2C 1_555 1_555
V2B O2B 1_555 1_555
V3C O8 1_555 1_555
V3A O2A 1_555 1_555
V3B O2B 1_555 1_555
V4C O6 1_555 1_555
V4B O7 1_555 1_555
V4A O3A 1_555 1_555
Mn1C O1C 1_555 1_555
Mn1A N1A 1_555 1_555
Mn1B N2B 1_555 1_555
Mn1B_2 O1B 1_555 1_555
Mn1C_2 N1C 1_555 1_555
Mn1B_3 N2E 1_555 1_555
Mn1C_3 N2C 1_555 1_555
C1A H1A 1_555 1_555
C1F H1F 1_555 1_555
C1C H1C 1_555 1_555
C2A C1A 1_555 1_555
C2F C1F 1_555 1_555
C2C C1C 1_555 1_555
H2A C2A 1_555 1_555
H2F C2F 1_555 1_555
H2C C2C 1_555 1_555
C3A H3A 1_555 1_555
C3F H3F 1_555 1_555
C3C H3C 1_555 1_555
C4A C3A 1_555 1_555
C4F C3F 1_555 1_555
C4C C3C 1_555 1_555
H4A C4A 1_555 1_555
H4F C4F 1_555 1_555
H4C C4C 1_555 1_555
C5C N2 1_555 1_555
C5A H5A 1_555 1_555
C5F H5F 1_555 1_555
H5C C5C 1_555 1_555
C6C C5C 1_555 1_555
C6A C5A 1_555 1_555
C6F C5F 1_555 1_555
H6C C6C 1_555 1_555
H6A C6A 1_555 1_555
H6F C6F 1_555 1_555
C7C N2 1_555 1_555
C7A H7A 1_555 1_555
C7F H7F 1_555 1_555
H7C C7C 1_555 1_555
C8C C7C 1_555 1_555
C8A C7A 1_555 1_555
C8F C7F 1_555 1_555
H8C C8C 1_555 1_555
H8A C8A 1_555 1_555
H8F C8F 1_555 1_555
C9C C6C 1_555 1_555
C9A C6A 1_555 1_555
C9F C6F 1_555 1_555
C10C C2C 1_555 1_555
C10A C2A 1_555 1_555
C10F C2F 1_555 1_555
C11F C11 1_555 1_555
C12A C11 1_555 1_555
C12F C11F 1_555 1_555
C12G C11F 1_555 1_555
C13A C12A 1_555 1_555
C13F C12F 1_555 1_555
C13G C12G 1_555 1_555
N1G Mn1 1_555 1_555
N1A C1A 1_555 1_555
N1F Mn1A 1_555 1_555
N1C C1C 1_555 1_555
N2G Mn1 1_555 1_555
N2B C5 1_555 1_555
N2A Mn1A 1_555 1_555
N2F Mn1A 1_555 1_555
N2C C5A 1_555 1_555
N2E C5F 1_555 1_555
N3F C13F 1_555 1_555
O1G Mn1 1_555 1_555
O1A Mn1A 1_555 1_555
O1F Mn1A 1_555 1_555
O2C V1C 1_555 1_555
O2A V1A 1_555 1_555
O2B V1B 1_555 1_555
O3C V1C 1_555 1_555
O3B V1B 1_555 1_555
O3A V1A 1_555 1_555
O4B V2C 1_555 1_555
O5A V2A 1_555 1_555
O5C V2C 1_555 1_555
O5B V2B 1_555 1_555
O6A V2 1_555 1_555
O6B V4 1_555 1_555
O6C V1C 1_555 1_555
O7C V4 1_555 1_555
O7A V2A 1_555 1_555
O7B V2B 1_555 1_555
O8B V3 1_555 1_555
O8A V1A 1_555 1_555
O8C V1C 1_555 1_555
O9C V3C 1_555 1_555
O9A V3A 1_555 1_555
O9B V3B 1_555 1_555
O10C V4C 1_555 1_555
O10B V4B 1_555 1_555
O10A V4A 1_555 1_555
V3 O3 1_555 1_555
V3 O7 1_555 1_555
V4 O8B 1_555 1_555
C3 N1 1_555 1_555
C4 C10 1_555 1_555
C7 N2B 1_555 1_555
C8 C9 1_555 1_555
C9 C10 1_555 1_555
O6 V2A 1_555 1_555
O8 V4C 1_555 1_555
V1A O6A 1_555 1_555
V1B O6B 1_555 1_555
V1B O8B 1_555 1_555
V2A O2A 1_555 1_555
V2C O6B 1_555 1_555
V2C O7C 1_555 1_555
V2B O4B 1_555 1_555
V2B O6C 1_555 1_555
V3C O2C 1_555 1_555
V3C O3C 1_555 1_555
V3C O7C 1_555 1_555
V3A O3A 1_555 1_555
V3A O7A 1_555 1_555
V3A O8C 1_555 1_555
V3B O3B 1_555 1_555
V3B O7B 1_555 1_555
V3B O8A 1_555 1_555
V4C O3C 1_555 1_555
V4C O7A 1_555 1_555
V4B O3B 1_555 1_555
V4B O6A 1_555 1_555
V4B O8A 1_555 1_555
V4A O6C 1_555 1_555
V4A O7B 1_555 1_555
V4A O8C 1_555 1_555
C1F N1F 1_555 1_555
C3A N1A 1_555 1_555
C3F N1F 1_555 1_555
C3C N1C 1_555 1_555
C4A C10A 1_555 1_555
C4F C10F 1_555 1_555
C4C C10C 1_555 1_555
C7A N2C 1_555 1_555
C7F N2E 1_555 1_555
C8C C9C 1_555 1_555
C8A C9A 1_555 1_555
C8F C9F 1_555 1_555
C9C C10C 1_555 1_555
C9A C10A 1_555 1_555
C9F C10F 1_555 1_555
C13G N3F 1_555 1_555

#END
