
#######################################################################
#
#                 Cambridge Crystallographic Data Centre
#                                CCDC 
#
#######################################################################
#
# If this CIF has been generated from an entry in the Cambridge 
# Structural Database, then it will include bibliographic, chemical, 
# crystal, experimental, refinement or atomic coordinate data resulting 
# from the CCDC's data processing and validation procedures.
#
#######################################################################

data_ADOJUZ
_symmetry_cell_setting           monoclinic
_symmetry_space_group_name_H-M   'P 21/c'
_symmetry_Int_Tables_number      14
_space_group_name_Hall           '-P 2ybc'
loop_
_symmetry_equiv_pos_site_id
_symmetry_equiv_pos_as_xyz
1 x,y,z
2 -x,1/2+y,1/2-z
3 -x,-y,-z
4 x,1/2-y,1/2+z
_cell_length_a                   3.9960(9)
_cell_length_b                   20.203(4)
_cell_length_c                   16.572(4)
_cell_angle_alpha                90
_cell_angle_beta                 95.292(5)
_cell_angle_gamma                90
_cell_volume                     1332.17
loop_
_atom_site_label
_atom_site_type_symbol
_atom_site_fract_x
_atom_site_fract_y
_atom_site_fract_z
Hg1 Hg 0.0000 0.0000 0.5000
Cl1 Cl -0.5535(6) 0.02662(13) 0.38188(15)
N1 N 0.0240(19) 0.1034(3) 0.5333(5)
C1 C 0.127(2) 0.1209(5) 0.6088(6)
H1 H 0.1832 0.0859 0.6488
C2 C 0.158(3) 0.1864(5) 0.6338(6)
C3 C 0.069(3) 0.2331(5) 0.5758(7)
H2 H 0.0878 0.2800 0.5909
C4 C -0.048(3) 0.2171(5) 0.4963(6)
C5 C -0.057(3) 0.1508(5) 0.4785(6)
H3 H -0.1271 0.1374 0.4226
C6 C 0.278(3) 0.2036(6) 0.7192(7)
H4 H 0.3255 0.1629 0.7503
H5 H 0.1042 0.2290 0.7435
H6 H 0.4834 0.2302 0.7198
C7 C -0.142(4) 0.2673(6) 0.4328(8)
H7 H -0.2225 0.2450 0.3822
H8 H 0.0546 0.2944 0.4239
H9 H -0.3206 0.2957 0.4503
Hg2 Hg -0.56119(10) 0.04972(2) 0.22348(3)
Cl2 Cl -0.9226(7) -0.03822(13) 0.17933(17)
Cl3 Cl -1.1677(7) 0.13577(13) 0.23021(17)
Hg3 Hg -1.0000 0.0000 0.0000
Cl4 Cl -0.6216(6) 0.08539(13) 0.02848(17)
Hg1_2 Hg -1.0000 0.0000 0.5000
Hg1_3 Hg 1.0000 0.0000 0.5000
Cl1_2 Cl 0.4465(6) 0.02662(13) 0.38188(15)
Cl1B Cl -0.4465(6) -0.02662(13) 0.61812(15)
Cl1B_2 Cl 0.5535(6) -0.02662(13) 0.61812(15)
N1B N -0.0240(19) -0.1034(3) 0.4667(5)
C1B C -0.127(2) -0.1209(5) 0.3912(6)
H1B H -0.1832 -0.0859 0.3512
C2B C -0.158(3) -0.1864(5) 0.3662(6)
C3B C -0.069(3) -0.2331(5) 0.4242(7)
H2B H -0.0878 -0.2800 0.4091
C4B C 0.048(3) -0.2171(5) 0.5037(6)
C5B C 0.057(3) -0.1508(5) 0.5215(6)
H3B H 0.1271 -0.1374 0.5774
C6B C -0.278(3) -0.2036(6) 0.2808(7)
H4B H -0.3255 -0.1629 0.2497
H5B H -0.1042 -0.2290 0.2565
H6B H -0.4834 -0.2302 0.2802
C7B C 0.142(4) -0.2673(6) 0.5672(8)
H7B H 0.2225 -0.2450 0.6178
H8B H -0.0546 -0.2944 0.5761
H9B H 0.3206 -0.2957 0.5497
Hg2_2 Hg 0.43881(10) 0.04972(2) 0.22348(3)
Hg2_3 Hg -1.56119(10) 0.04972(2) 0.22348(3)
Cl2_2 Cl 0.0774(7) -0.03822(13) 0.17933(17)
Cl2B Cl -1.0774(7) 0.03822(13) -0.17933(17)
Cl2_3 Cl 1.0774(7) -0.03822(13) 0.17933(17)
Cl3_2 Cl -0.1677(7) 0.13577(13) 0.23021(17)
Cl3_3 Cl 0.8323(7) 0.13577(13) 0.23021(17)
Hg3_2 Hg 0.0000 0.0000 0.0000
Hg3_3 Hg 1.0000 0.0000 0.0000
Cl4_2 Cl 0.3784(6) 0.08539(13) 0.02848(17)
Cl4_3 Cl -1.6216(6) 0.08539(13) 0.02848(17)
Cl4B Cl -1.3784(6) -0.08539(13) -0.02848(17)
Cl4B_2 Cl -0.3784(6) -0.08539(13) -0.02848(17)
loop_
_geom_bond_atom_site_label_1
_geom_bond_atom_site_label_2
_geom_bond_site_symmetry_1
_geom_bond_site_symmetry_2
Hg1 Cl1 1_555 1_555
Cl1 Hg2 1_555 1_555
N1 Hg1 1_555 1_555
C1 N1 1_555 1_555
H1 C1 1_555 1_555
C2 C1 1_555 1_555
C3 C2 1_555 1_555
H2 C3 1_555 1_555
C4 C3 1_555 1_555
C5 N1 1_555 1_555
H3 C5 1_555 1_555
C6 C2 1_555 1_555
H4 C6 1_555 1_555
H5 C6 1_555 1_555
H6 C6 1_555 1_555
C7 C4 1_555 1_555
H7 C7 1_555 1_555
H8 C7 1_555 1_555
H9 C7 1_555 1_555
Hg2 Cl2 1_555 1_555
Cl2 Hg3 1_555 1_555
Cl3 Hg2 1_555 1_555
Hg3 Cl4 1_555 1_555
Cl4 Hg2 1_555 1_555
Hg1_2 Cl1 1_555 1_555
Hg1_3 Cl1_2 1_555 1_555
Cl1_2 Hg1 1_555 1_555
Cl1B Hg1 1_555 1_555
Cl1B_2 Hg1 1_555 1_555
N1B Hg1 1_555 1_555
C1B N1B 1_555 1_555
H1B C1B 1_555 1_555
C2B C1B 1_555 1_555
C3B C2B 1_555 1_555
H2B C3B 1_555 1_555
C4B C3B 1_555 1_555
C5B N1B 1_555 1_555
H3B C5B 1_555 1_555
C6B C2B 1_555 1_555
H4B C6B 1_555 1_555
H5B C6B 1_555 1_555
H6B C6B 1_555 1_555
C7B C4B 1_555 1_555
H7B C7B 1_555 1_555
H8B C7B 1_555 1_555
H9B C7B 1_555 1_555
Hg2_2 Cl1_2 1_555 1_555
Hg2_3 Cl2 1_555 1_555
Cl2_2 Hg2 1_555 1_555
Cl2B Hg3 1_555 1_555
Cl2_3 Hg2_2 1_555 1_555
Cl3_2 Hg2 1_555 1_555
Cl3_3 Hg2_2 1_555 1_555
Hg3_2 Cl4 1_555 1_555
Hg3_3 Cl2_3 1_555 1_555
Cl4_2 Hg2_2 1_555 1_555
Cl4_3 Hg3 1_555 1_555
Cl4B Hg3 1_555 1_555
Cl4B_2 Hg3 1_555 1_555
C4 C5 1_555 1_555
Cl3 Hg2_3 1_555 1_555
Hg1_2 Cl1B 1_555 1_555
Hg1_3 Cl1B_2 1_555 1_555
C4B C5B 1_555 1_555
Hg2_2 Cl2_2 1_555 1_555
Hg2_2 Cl3_2 1_555 1_555
Hg2_3 Cl4_3 1_555 1_555
Cl2_2 Hg3_2 1_555 1_555
Hg3_2 Cl4_2 1_555 1_555
Hg3_2 Cl4B_2 1_555 1_555
Hg3_3 Cl4_2 1_555 1_555

#END
