
#######################################################################
#
#                 Cambridge Crystallographic Data Centre
#                                CCDC 
#
#######################################################################
#
# If this CIF has been generated from an entry in the Cambridge 
# Structural Database, then it will include bibliographic, chemical, 
# crystal, experimental, refinement or atomic coordinate data resulting 
# from the CCDC's data processing and validation procedures.
#
#######################################################################

data_ADOJEJ
_symmetry_cell_setting           tetragonal
_symmetry_space_group_name_H-M   'P -4 b 2'
_symmetry_Int_Tables_number      117
_space_group_name_Hall           'P -4 -2ab'
loop_
_symmetry_equiv_pos_site_id
_symmetry_equiv_pos_as_xyz
1 x,y,z
2 -x,-y,z
3 y,-x,-z
4 -y,x,-z
5 1/2+x,1/2-y,z
6 1/2-x,1/2+y,z
7 1/2+y,1/2+x,-z
8 1/2-y,1/2-x,-z
_cell_length_a                   14.144(3)
_cell_length_b                   14.144(3)
_cell_length_c                   3.8148(7)
_cell_angle_alpha                90
_cell_angle_beta                 90
_cell_angle_gamma                90
_cell_volume                     763.161
loop_
_atom_site_label
_atom_site_type_symbol
_atom_site_fract_x
_atom_site_fract_y
_atom_site_fract_z
Hg1 Hg 0.5000 0.0000 0.5000
Cl1 Cl 0.40753(9) 0.09247(9) 0.0000
Cl2 Cl 0.63577(15) 0.38937(12) 0.7415(6)
N1 N 0.6195(3) 0.1195(3) 0.5000
C1 C 0.5989(4) 0.2079(4) 0.6034(17)
H1 H 0.5343 0.2230 0.6785
C2 C 0.6656(5) 0.2769(5) 0.6060(17)
C3 C 0.7581(4) 0.2581(4) 0.5000
H2 H 0.8071 0.3071 0.5000
Hg1_2 Hg 0.5000 0.0000 -0.5000
Hg1_3 Hg 0.5000 0.0000 1.5000
Cl1_2 Cl 0.40753(9) 0.09247(9) 1.0000
Cl1A Cl 0.59247(9) -0.09247(9) 0.0000
Cl1A_2 Cl 0.59247(9) -0.09247(9) 1.0000
Cl2F Cl 0.88937(12) 0.13577(15) 0.2585(6)
Cl2A Cl 0.36423(15) -0.38937(12) 0.7415(6)
Cl2G Cl 0.11063(12) -0.13577(15) 0.2585(6)
N1A N 0.3805(3) -0.1195(3) 0.5000
C1F C 0.7079(4) 0.0989(4) 0.3966(17)
C1A C 0.4011(4) -0.2079(4) 0.6034(17)
C1G C 0.2921(4) -0.0989(4) 0.3966(17)
H1F H 0.7230 0.0343 0.3215
H1A H 0.4657 -0.2230 0.6785
H1G H 0.2770 -0.0343 0.3215
C2F C 0.7769(5) 0.1656(5) 0.3940(17)
C2A C 0.3344(5) -0.2769(5) 0.6060(17)
C2G C 0.2231(5) -0.1656(5) 0.3940(17)
C3A C 0.2419(4) -0.2581(4) 0.5000
H2A H 0.1929 -0.3071 0.5000
loop_
_geom_bond_atom_site_label_1
_geom_bond_atom_site_label_2
_geom_bond_site_symmetry_1
_geom_bond_site_symmetry_2
Hg1 Cl1 1_555 1_555
Cl1 Hg1_2 1_555 1_555
Cl2 C2 1_555 1_555
N1 Hg1 1_555 1_555
C1 N1 1_555 1_555
H1 C1 1_555 1_555
C2 C1 1_555 1_555
C3 C2 1_555 1_555
H2 C3 1_555 1_555
Hg1_2 Cl1A 1_555 1_555
Hg1_3 Cl1_2 1_555 1_555
Cl1_2 Hg1 1_555 1_555
Cl1A Hg1 1_555 1_555
Cl1A_2 Hg1 1_555 1_555
Cl2F C2F 1_555 1_555
Cl2A C2A 1_555 1_555
Cl2G C2G 1_555 1_555
N1A Hg1 1_555 1_555
C1F N1 1_555 1_555
C1A N1A 1_555 1_555
C1G N1A 1_555 1_555
H1F C1F 1_555 1_555
H1A C1A 1_555 1_555
H1G C1G 1_555 1_555
C2F C3 1_555 1_555
C2A C1A 1_555 1_555
C2G C1G 1_555 1_555
C3A C2A 1_555 1_555
H2A C3A 1_555 1_555
Hg1_3 Cl1A_2 1_555 1_555
C1F C2F 1_555 1_555
C2G C3A 1_555 1_555

#END
