
#######################################################################
#
#                 Cambridge Crystallographic Data Centre
#                                CCDC 
#
#######################################################################
#
# If this CIF has been generated from an entry in the Cambridge 
# Structural Database, then it will include bibliographic, chemical, 
# crystal, experimental, refinement or atomic coordinate data resulting 
# from the CCDC's data processing and validation procedures.
#
#######################################################################

data_ADOJOT
_symmetry_cell_setting           tetragonal
_symmetry_space_group_name_H-M   'P -4 b 2'
_symmetry_Int_Tables_number      117
_space_group_name_Hall           'P -4 -2ab'
loop_
_symmetry_equiv_pos_site_id
_symmetry_equiv_pos_as_xyz
1 x,y,z
2 -x,-y,z
3 y,-x,-z
4 -y,x,-z
5 1/2+x,1/2-y,z
6 1/2-x,1/2+y,z
7 1/2+y,1/2+x,-z
8 1/2-y,1/2-x,-z
_cell_length_a                   14.1357(7)
_cell_length_b                   14.1357(7)
_cell_length_c                   3.9721(3)
_cell_angle_alpha                90
_cell_angle_beta                 90
_cell_angle_gamma                90
_cell_volume                     793.697
loop_
_atom_site_label
_atom_site_type_symbol
_atom_site_fract_x
_atom_site_fract_y
_atom_site_fract_z
Hg1 Hg 0.5000 0.0000 0.5000
Cl1 Cl 0.40367(5) 0.09633(5) 0.0000
N1 N 0.61420(17) 0.11420(17) 0.5000
C1 C 0.5950(3) 0.2006(3) 0.6131(10)
H1 H 0.5313 0.2140 0.6977
C2 C 0.6616(3) 0.2724(3) 0.6161(10)
C3 C 0.7510(2) 0.2510(2) 0.5000
H2 H 0.8000 0.3000 0.5000
C4 C 0.6375(4) 0.3692(3) 0.7503(13)
H3 H 0.6930 0.4104 0.7327
H4 H 0.6184 0.3640 0.9867
H5 H 0.5854 0.3960 0.6186
Hg1_2 Hg 0.5000 0.0000 -0.5000
Hg1_3 Hg 0.5000 0.0000 1.5000
Cl1_2 Cl 0.40367(5) 0.09633(5) 1.0000
Cl1A Cl 0.59633(5) -0.09633(5) 0.0000
Cl1A_2 Cl 0.59633(5) -0.09633(5) 1.0000
N1A N 0.38580(17) -0.11420(17) 0.5000
C1F C 0.7006(3) 0.0950(3) 0.3869(10)
C1A C 0.4050(3) -0.2006(3) 0.6131(10)
C1G C 0.2994(3) -0.0950(3) 0.3869(10)
H1F H 0.7140 0.0313 0.3023
H1A H 0.4687 -0.2140 0.6977
H1G H 0.2860 -0.0313 0.3023
C2F C 0.7724(3) 0.1616(3) 0.3839(10)
C2A C 0.3384(3) -0.2724(3) 0.6161(10)
C2G C 0.2276(3) -0.1616(3) 0.3839(10)
C3A C 0.2490(2) -0.2510(2) 0.5000
H2A H 0.2000 -0.3000 0.5000
C4F C 0.8692(3) 0.1375(4) 0.2497(13)
C4A C 0.3625(4) -0.3692(3) 0.7503(13)
C4G C 0.1308(3) -0.1375(4) 0.2497(13)
H3F H 0.9104 0.1930 0.2673
H3A H 0.3070 -0.4104 0.7327
H3G H 0.0896 -0.1930 0.2673
H4F H 0.8640 0.1184 0.0133
H4A H 0.3816 -0.3640 0.9867
H4G H 0.1360 -0.1184 0.0133
H5F H 0.8960 0.0854 0.3814
H5A H 0.4146 -0.3960 0.6186
H5G H 0.1040 -0.0854 0.3814
loop_
_geom_bond_atom_site_label_1
_geom_bond_atom_site_label_2
_geom_bond_site_symmetry_1
_geom_bond_site_symmetry_2
Hg1 Cl1 1_555 1_555
Cl1 Hg1_2 1_555 1_555
N1 Hg1 1_555 1_555
C1 N1 1_555 1_555
H1 C1 1_555 1_555
C2 C1 1_555 1_555
C3 C2 1_555 1_555
H2 C3 1_555 1_555
C4 C2 1_555 1_555
H3 C4 1_555 1_555
H4 C4 1_555 1_555
H5 C4 1_555 1_555
Hg1_2 Cl1A 1_555 1_555
Hg1_3 Cl1_2 1_555 1_555
Cl1_2 Hg1 1_555 1_555
Cl1A Hg1 1_555 1_555
Cl1A_2 Hg1 1_555 1_555
N1A Hg1 1_555 1_555
C1F N1 1_555 1_555
C1A N1A 1_555 1_555
C1G N1A 1_555 1_555
H1F C1F 1_555 1_555
H1A C1A 1_555 1_555
H1G C1G 1_555 1_555
C2F C3 1_555 1_555
C2A C1A 1_555 1_555
C2G C1G 1_555 1_555
C3A C2A 1_555 1_555
H2A C3A 1_555 1_555
C4F C2F 1_555 1_555
C4A C2A 1_555 1_555
C4G C2G 1_555 1_555
H3F C4F 1_555 1_555
H3A C4A 1_555 1_555
H3G C4G 1_555 1_555
H4F C4F 1_555 1_555
H4A C4A 1_555 1_555
H4G C4G 1_555 1_555
H5F C4F 1_555 1_555
H5A C4A 1_555 1_555
H5G C4G 1_555 1_555
Hg1_3 Cl1A_2 1_555 1_555
C1F C2F 1_555 1_555
C2G C3A 1_555 1_555

#END
