
#######################################################################
#
#                 Cambridge Crystallographic Data Centre
#                                CCDC 
#
#######################################################################
#
# If this CIF has been generated from an entry in the Cambridge 
# Structural Database, then it will include bibliographic, chemical, 
# crystal, experimental, refinement or atomic coordinate data resulting 
# from the CCDC's data processing and validation procedures.
#
#######################################################################

data_ADOKAG
_symmetry_cell_setting           monoclinic
_symmetry_space_group_name_H-M   'P 21/c'
_symmetry_Int_Tables_number      14
_space_group_name_Hall           '-P 2ybc'
loop_
_symmetry_equiv_pos_site_id
_symmetry_equiv_pos_as_xyz
1 x,y,z
2 -x,1/2+y,1/2-z
3 -x,-y,-z
4 x,1/2-y,1/2+z
_cell_length_a                   4.0533(9)
_cell_length_b                   17.987(4)
_cell_length_c                   13.770(3)
_cell_angle_alpha                90
_cell_angle_beta                 90.315(5)
_cell_angle_gamma                90
_cell_volume                     1003.91
loop_
_atom_site_label
_atom_site_type_symbol
_atom_site_fract_x
_atom_site_fract_y
_atom_site_fract_z
Hg1 Hg -0.11048(9) 0.26432(2) 0.43855(3)
Br1 Br -0.7565(2) 0.22568(6) 0.57436(7)
Br2 Br -0.4930(2) 0.33149(6) 0.33125(7)
Cl1 Cl -0.3010(7) 0.07178(17) 0.07934(19)
Cl2 Cl 0.3163(7) -0.05204(15) 0.3865(2)
N1 N -0.0657(17) 0.1473(4) 0.3397(5)
C1 C -0.179(2) 0.1411(5) 0.2481(7)
H1 H -0.2890 0.1837 0.2177
C2 C -0.143(2) 0.0767(6) 0.1963(6)
C3 C 0.004(2) 0.0153(6) 0.2341(7)
H2 H 0.0253 -0.0308 0.1968
C4 C 0.125(2) 0.0215(5) 0.3297(7)
C5 C 0.082(2) 0.0878(6) 0.3794(7)
H3 H 0.1640 0.0914 0.4464
Hg1_2 Hg -1.11048(9) 0.26432(2) 0.43855(3)
Br1_2 Br 0.2435(2) 0.22568(6) 0.57436(7)
Br2_2 Br 0.5070(2) 0.33149(6) 0.33125(7)
loop_
_geom_bond_atom_site_label_1
_geom_bond_atom_site_label_2
_geom_bond_site_symmetry_1
_geom_bond_site_symmetry_2
Hg1 Br1 1_555 1_555
Br1 Hg1_2 1_555 1_555
Br2 Hg1 1_555 1_555
Cl1 C2 1_555 1_555
Cl2 C4 1_555 1_555
N1 Hg1 1_555 1_555
C1 N1 1_555 1_555
H1 C1 1_555 1_555
C2 C1 1_555 1_555
C3 C2 1_555 1_555
H2 C3 1_555 1_555
C4 C3 1_555 1_555
C5 N1 1_555 1_555
H3 C5 1_555 1_555
Hg1_2 Br2 1_555 1_555
Br1_2 Hg1 1_555 1_555
Br2_2 Hg1 1_555 1_555
C4 C5 1_555 1_555

#END
