
#######################################################################
#
#                 Cambridge Crystallographic Data Centre
#                                CCDC 
#
#######################################################################
#
# If this CIF has been generated from an entry in the Cambridge 
# Structural Database, then it will include bibliographic, chemical, 
# crystal, experimental, refinement or atomic coordinate data resulting 
# from the CCDC's data processing and validation procedures.
#
#######################################################################

data_ADOKUA
_symmetry_cell_setting           monoclinic
_symmetry_space_group_name_H-M   'C 2/c'
_symmetry_Int_Tables_number      15
_space_group_name_Hall           '-C 2yn'
loop_
_symmetry_equiv_pos_site_id
_symmetry_equiv_pos_as_xyz
1 x,y,z
2 1/2+x,1/2+y,z
3 -x,y,1/2-z
4 1/2-x,1/2+y,1/2-z
5 -x,-y,-z
6 1/2-x,1/2-y,-z
7 x,-y,1/2+z
8 1/2+x,1/2-y,1/2+z
_cell_length_a                   31.509(4)
_cell_length_b                   4.3075(5)
_cell_length_c                   19.009(2)
_cell_angle_alpha                90
_cell_angle_beta                 115.703(2)
_cell_angle_gamma                90
_cell_volume                     2324.72
loop_
_atom_site_label
_atom_site_type_symbol
_atom_site_fract_x
_atom_site_fract_y
_atom_site_fract_z
Hg1 Hg 0.106040(13) 0.42456(9) 0.48496(2)
I1 I 0.17993(2) 0.12276(13) 0.49282(4)
I2 I 0.03539(2) -0.18153(13) 0.43587(4)
Br1 Br 0.22935(3) 0.0720(3) 0.82877(6)
Br2 Br 0.06211(4) 0.7441(3) 0.76343(6)
N1 N 0.1229(3) 0.4033(17) 0.6278(4)
C1 C 0.1622(3) 0.266(2) 0.6791(5)
H1 H 0.1833 0.1646 0.6606
C2 C 0.1735(3) 0.2663(19) 0.7578(5)
C3 C 0.1444(3) 0.409(2) 0.7863(5)
H2 H 0.1524 0.4143 0.8422
C4 C 0.1039(3) 0.542(2) 0.7312(5)
C5 C 0.0942(3) 0.544(2) 0.6539(5)
H3 H 0.0658 0.6500 0.6166
Hg1_2 Hg 0.106040(13) -0.57544(9) 0.48496(2)
I2_2 I 0.03539(2) 0.81847(13) 0.43587(4)
loop_
_geom_bond_atom_site_label_1
_geom_bond_atom_site_label_2
_geom_bond_site_symmetry_1
_geom_bond_site_symmetry_2
Hg1 I1 1_555 1_555
I2 Hg1 1_555 1_555
Br1 C2 1_555 1_555
Br2 C4 1_555 1_555
N1 Hg1 1_555 1_555
C1 N1 1_555 1_555
H1 C1 1_555 1_555
C2 C1 1_555 1_555
C3 C2 1_555 1_555
H2 C3 1_555 1_555
C4 C3 1_555 1_555
C5 N1 1_555 1_555
H3 C5 1_555 1_555
Hg1_2 I2 1_555 1_555
I2_2 Hg1 1_555 1_555
C4 C5 1_555 1_555

#END
