
#######################################################################
#
#                 Cambridge Crystallographic Data Centre
#                                CCDC 
#
#######################################################################
#
# If this CIF has been generated from an entry in the Cambridge 
# Structural Database, then it will include bibliographic, chemical, 
# crystal, experimental, refinement or atomic coordinate data resulting 
# from the CCDC's data processing and validation procedures.
#
#######################################################################

data_ADOKEK
_symmetry_cell_setting           triclinic
_symmetry_space_group_name_H-M   'P -1'
_symmetry_Int_Tables_number      2
_space_group_name_Hall           '-P 1'
loop_
_symmetry_equiv_pos_site_id
_symmetry_equiv_pos_as_xyz
1 x,y,z
2 -x,-y,-z
_cell_length_a                   4.0004(11)
_cell_length_b                   14.637(4)
_cell_length_c                   14.682(4)
_cell_angle_alpha                86.845(5)
_cell_angle_beta                 84.250(5)
_cell_angle_gamma                82.925(5)
_cell_volume                     848.055
loop_
_atom_site_label
_atom_site_type_symbol
_atom_site_fract_x
_atom_site_fract_y
_atom_site_fract_z
Hg1 Hg 0.0000 0.0000 0.0000
Br1 Br -0.4111(4) 0.09368(12) -0.09830(11)
Br2 Br -0.5042(5) 0.39833(13) 0.12573(13)
Br3 Br 0.0466(5) 0.14186(14) 0.39128(12)
N1 N -0.105(4) 0.1277(9) 0.1205(9)
C1 C -0.249(4) 0.2136(11) 0.1002(11)
H1 H -0.3170 0.2286 0.0383
C2 C -0.303(4) 0.2791(11) 0.1618(11)
C3 C -0.218(4) 0.2595(12) 0.2536(11)
H2 H -0.2592 0.3060 0.3002
C4 C -0.075(4) 0.1717(12) 0.2721(10)
C5 C -0.017(4) 0.1068(11) 0.2078(11)
H3 H 0.0876 0.0447 0.2239
Hg1_2 Hg -1.0000 0.0000 0.0000
Hg1_3 Hg 1.0000 0.0000 0.0000
Br1_2 Br 0.5889(4) 0.09368(12) -0.09830(11)
Br1A Br -0.5889(4) -0.09368(12) 0.09830(11)
Br1A_2 Br 0.4111(4) -0.09368(12) 0.09830(11)
Br2A Br 0.5042(5) -0.39833(13) -0.12573(13)
Br3A Br -0.0466(5) -0.14186(14) -0.39128(12)
N1A N 0.105(4) -0.1277(9) -0.1205(9)
C1A C 0.249(4) -0.2136(11) -0.1002(11)
H1A H 0.3170 -0.2286 -0.0383
C2A C 0.303(4) -0.2791(11) -0.1618(11)
C3A C 0.218(4) -0.2595(12) -0.2536(11)
H2A H 0.2592 -0.3060 -0.3002
C4A C 0.075(4) -0.1717(12) -0.2721(10)
C5A C 0.017(4) -0.1068(11) -0.2078(11)
H3A H -0.0876 -0.0447 -0.2239
Hg2 Hg 0.5000 0.5000 0.5000
Br4 Br 0.1785(4) 0.41579(12) 0.40063(11)
Br5 Br 0.7276(6) 0.90430(14) 0.37559(14)
Br6 Br 0.9746(6) 0.63285(15) 0.10924(13)
N2 N 0.554(3) 0.6360(10) 0.3737(8)
C6 C 0.672(5) 0.6091(13) 0.2896(10)
H4 H 0.6573 0.5464 0.2712
C7 C 0.811(4) 0.6716(12) 0.2308(11)
C8 C 0.831(4) 0.7608(11) 0.2503(11)
H5 H 0.9232 0.8055 0.2055
C9 C 0.711(4) 0.7823(10) 0.3390(11)
C10 C 0.570(4) 0.7220(12) 0.3983(11)
H6 H 0.4778 0.7409 0.4597
Hg2_2 Hg -0.5000 0.5000 0.5000
Hg2_3 Hg 1.5000 0.5000 0.5000
Br4_2 Br 1.1785(4) 0.41579(12) 0.40063(11)
Br4A Br -0.1785(4) 0.58421(12) 0.59937(11)
Br4A_2 Br 0.8215(4) 0.58421(12) 0.59937(11)
Br5A Br 0.2724(6) 0.09570(14) 0.62441(14)
Br6A Br 0.0254(6) 0.36715(15) 0.89076(13)
N2A N 0.446(3) 0.3640(10) 0.6263(8)
C6A C 0.328(5) 0.3909(13) 0.7104(10)
H4A H 0.3427 0.4536 0.7288
C7A C 0.189(4) 0.3284(12) 0.7692(11)
C8A C 0.169(4) 0.2392(11) 0.7497(11)
H5A H 0.0768 0.1945 0.7945
C9A C 0.289(4) 0.2177(10) 0.6610(11)
C10A C 0.430(4) 0.2780(12) 0.6017(11)
H6A H 0.5222 0.2591 0.5403
loop_
_geom_bond_atom_site_label_1
_geom_bond_atom_site_label_2
_geom_bond_site_symmetry_1
_geom_bond_site_symmetry_2
Hg1 Br1 1_555 1_555
Br1 Hg1_2 1_555 1_555
Br2 C2 1_555 1_555
Br3 C4 1_555 1_555
N1 Hg1 1_555 1_555
C1 N1 1_555 1_555
H1 C1 1_555 1_555
C2 C1 1_555 1_555
C3 C2 1_555 1_555
H2 C3 1_555 1_555
C4 C3 1_555 1_555
C5 N1 1_555 1_555
H3 C5 1_555 1_555
Hg2 Br4 1_555 1_555
Br4 Hg2_2 1_555 1_555
Br5 C9 1_555 1_555
Br6 C7 1_555 1_555
N2 Hg2 1_555 1_555
C6 N2 1_555 1_555
H4 C6 1_555 1_555
C7 C6 1_555 1_555
C8 C7 1_555 1_555
H5 C8 1_555 1_555
C9 C8 1_555 1_555
C10 N2 1_555 1_555
H6 C10 1_555 1_555
Hg1_2 Br1A 1_555 1_555
Hg1_3 Br1_2 1_555 1_555
Br1_2 Hg1 1_555 1_555
Br1A Hg1 1_555 1_555
Br1A_2 Hg1 1_555 1_555
Br2A C2A 1_555 1_555
Br3A C4A 1_555 1_555
N1A Hg1 1_555 1_555
C1A N1A 1_555 1_555
H1A C1A 1_555 1_555
C2A C1A 1_555 1_555
C3A C2A 1_555 1_555
H2A C3A 1_555 1_555
C4A C3A 1_555 1_555
C5A N1A 1_555 1_555
H3A C5A 1_555 1_555
Hg2_2 Br4A 1_555 1_555
Hg2_3 Br4_2 1_555 1_555
Br4_2 Hg2 1_555 1_555
Br4A Hg2 1_555 1_555
Br4A_2 Hg2 1_555 1_555
Br5A C9A 1_555 1_555
Br6A C7A 1_555 1_555
N2A Hg2 1_555 1_555
C6A N2A 1_555 1_555
H4A C6A 1_555 1_555
C7A C6A 1_555 1_555
C8A C7A 1_555 1_555
H5A C8A 1_555 1_555
C9A C8A 1_555 1_555
C10A N2A 1_555 1_555
H6A C10A 1_555 1_555
C4 C5 1_555 1_555
C9 C10 1_555 1_555
Hg1_3 Br1A_2 1_555 1_555
C4A C5A 1_555 1_555
Hg2_3 Br4A_2 1_555 1_555
C9A C10A 1_555 1_555

#END
