
#######################################################################
#
#                 Cambridge Crystallographic Data Centre
#                                CCDC 
#
#######################################################################
#
# If this CIF has been generated from an entry in the Cambridge 
# Structural Database, then it will include bibliographic, chemical, 
# crystal, experimental, refinement or atomic coordinate data resulting 
# from the CCDC's data processing and validation procedures.
#
#######################################################################

data_ADOLUB
_symmetry_cell_setting           hexagonal
_symmetry_space_group_name_H-M   'P 63/m c m'
_symmetry_Int_Tables_number      193
_space_group_name_Hall           "-P 6c 2'"
loop_
_symmetry_equiv_pos_site_id
_symmetry_equiv_pos_as_xyz
1 x,y,z
2 -y,x-y,z
3 -x+y,-x,z
4 y,-x+y,1/2+z
5 x-y,x,1/2+z
6 y,x,1/2-z
7 -x+y,y,-z
8 x,x-y,-z
9 -x,-y,1/2+z
10 x-y,-y,1/2-z
11 -x,-x+y,1/2-z
12 -y,-x,-z
13 -x,-y,-z
14 y,-x+y,-z
15 x-y,x,-z
16 -y,x-y,1/2-z
17 -x+y,-x,1/2-z
18 -y,-x,1/2+z
19 x-y,-y,z
20 -x,-x+y,z
21 x,y,1/2-z
22 -x+y,y,1/2+z
23 x,x-y,1/2+z
24 y,x,z
_cell_length_a                   16.609(2)
_cell_length_b                   16.609(2)
_cell_length_c                   14.325(3)
_cell_angle_alpha                90
_cell_angle_beta                 90
_cell_angle_gamma                120
_cell_volume                     3422.25
loop_
_atom_site_label
_atom_site_type_symbol
_atom_site_fract_x
_atom_site_fract_y
_atom_site_fract_z
Ni1 Ni 0.67976(4) 0.0000 0.2500
C1 C 0.8257(4) 0.0000 0.2500
C2 C 0.9166(3) 0.0000 0.2500
C3 C 1.0000 0.0836(3) 0.2500
H1 H 1.0000 0.1396 0.2500
C4 C 0.6091(3) 0.1377(3) 0.2500
C5 C 0.6389(3) 0.2398(3) 0.2500
C6 C 0.7319(3) 0.3056(3) 0.2500
H2 H 0.7762 0.2869 0.2500
C7 C 0.6728(7) -0.0298(7) 0.0593(11)
H3 H 0.6532 -0.0851 0.0270
C8 C 0.7439(13) 0.0835(12) -0.1089(11)
H4 H 0.7315 0.0631 -0.1727
H5 H 0.8090 0.1093 -0.0961
H6 H 0.7266 0.1300 -0.0985
N1 N 0.6869(6) 0.0000 -0.0436(7)
O1 O 0.8259(2) 0.0752(2) 0.2500
O2 O 0.6676(2) 0.1148(2) 0.2500
O3 O 0.5236(2) 0.0829(2) 0.2500
O4 O 0.6741(6) 0.0000 0.1144(6)
Ni1B Ni 1.32024(4) 0.32024(4) 0.2500
Ni1A Ni 1.0000 -0.32024(4) 0.2500
Ni1A_2 Ni 1.0000 0.67976(4) 0.2500
Ni1B_2 Ni 0.32024(4) 0.32024(4) 0.2500
Ni1B_3 Ni 0.32024(4) -0.67976(4) 0.2500
Ni1A_3 Ni 0.0000 -0.32024(4) 0.2500
C1B C 1.1743(4) 0.1743(4) 0.2500
C1A C 1.0000 -0.1743(4) 0.2500
C2B C 1.0834(3) 0.0834(3) 0.2500
C2A C 1.0000 -0.0834(3) 0.2500
C3B C 1.0836(3) 0.0000 0.2500
C3A C 0.9164(3) -0.0836(3) 0.2500
H1A H 0.8604 -0.1396 0.2500
H1B H 1.1396 0.0000 0.2500
C4A C 0.8623(3) 0.4714(4) 0.2500
C4B C 0.5286(4) 0.3909(3) 0.2500
C4R C 0.4714(4) -0.1377(3) 0.2500
C4S C 0.3909(3) -0.4714(4) 0.2500
C4E C 0.1377(3) -0.3909(3) 0.2500
C5A C 0.7602(3) 0.3991(4) 0.2500
C5B C 0.6009(4) 0.3611(3) 0.2500
C5R C 0.3991(4) -0.2398(3) 0.2500
C5S C 0.3611(3) -0.3991(4) 0.2500
C5E C 0.2398(3) -0.3611(3) 0.2500
C6A C 0.6944(3) 0.4263(4) 0.2500
C6B C 0.5737(4) 0.2681(3) 0.2500
C6R C 0.4263(4) -0.3056(3) 0.2500
C6S C 0.2681(3) -0.4263(4) 0.2500
C6E C 0.3056(3) -0.2681(3) 0.2500
H2B H 0.5107 0.2238 0.2500
H2A H 0.7131 0.4893 0.2500
H2R H 0.4893 -0.2869 0.2500
H2E H 0.2869 -0.2238 0.2500
H2S H 0.2238 -0.4893 0.2500
C7R C 0.7026(10) 0.0298(7) 0.0593(11)
C7T C 0.6728(7) -0.0298(7) 0.4407(11)
C7I C 0.7026(10) 0.0298(7) 0.4407(11)
C7B C 1.2974(10) 0.3272(7) 0.0593(11)
C7S C 1.3272(7) 0.2974(10) 0.0593(11)
C7P C 1.2974(10) 0.3272(7) 0.4407(11)
C7J C 1.3272(7) 0.2974(10) 0.4407(11)
C7A C 1.0298(7) -0.2974(10) 0.0593(11)
C7W C 0.9702(7) -0.3272(7) 0.0593(11)
C7O C 1.0298(7) -0.2974(10) 0.4407(11)
C7E C 0.9702(7) -0.3272(7) 0.4407(11)
H3R H 0.7383 0.0851 0.0270
H3T H 0.6532 -0.0851 0.4730
H3I H 0.7383 0.0851 0.4730
H3B H 1.2617 0.3468 0.0270
H3S H 1.3468 0.2617 0.0270
H3P H 1.2617 0.3468 0.4730
H3J H 1.3468 0.2617 0.4730
H3A H 1.0851 -0.2617 0.0270
H3W H 0.9149 -0.3468 0.0270
H3O H 1.0851 -0.2617 0.4730
H3E H 0.9149 -0.3468 0.4730
C8R C 0.6604(18) -0.0835(12) -0.1089(11)
C8T C 0.7439(13) 0.0835(12) 0.6089(11)
C8I C 0.6604(18) -0.0835(12) 0.6089(11)
C8B C 1.3396(18) 0.2561(13) -0.1089(11)
C8S C 1.2561(13) 0.3396(18) -0.1089(11)
C8P C 1.3396(18) 0.2561(13) 0.6089(11)
C8J C 1.2561(13) 0.3396(18) 0.6089(11)
C8A C 0.9165(12) -0.3396(18) -0.1089(11)
C8W C 1.0835(12) -0.2561(13) -0.1089(11)
C8O C 0.9165(12) -0.3396(18) 0.6089(11)
C8E C 1.0835(12) -0.2561(13) 0.6089(11)
H4R H 0.6684 -0.0631 -0.1727
H4T H 0.7315 0.0631 0.6727
H4I H 0.6684 -0.0631 0.6727
H4B H 1.3316 0.2685 -0.1727
H4S H 1.2685 0.3316 -0.1727
H4P H 1.3316 0.2685 0.6727
H4J H 1.2685 0.3316 0.6727
H4A H 0.9369 -0.3316 -0.1727
H4W H 1.0631 -0.2685 -0.1727
H4O H 0.9369 -0.3316 0.6727
H4E H 1.0631 -0.2685 0.6727
H5R H 0.6997 -0.1093 -0.0961
H5T H 0.8090 0.1093 0.5961
H5I H 0.6997 -0.1093 0.5961
H5B H 1.3003 0.1910 -0.0961
H5S H 1.1910 0.3003 -0.0961
H5P H 1.3003 0.1910 0.5961
H5J H 1.1910 0.3003 0.5961
H5A H 0.8907 -0.3003 -0.0961
H5W H 1.1093 -0.1910 -0.0961
H5O H 0.8907 -0.3003 0.5961
H5E H 1.1093 -0.1910 0.5961
H6R H 0.5966 -0.1300 -0.0985
H6T H 0.7266 0.1300 0.5985
H6I H 0.5966 -0.1300 0.5985
H6B H 1.4034 0.2734 -0.0985
H6S H 1.2734 0.4034 -0.0985
H6P H 1.4034 0.2734 0.5985
H6J H 1.2734 0.4034 0.5985
H6A H 0.8700 -0.4034 -0.0985
H6W H 1.1300 -0.2734 -0.0985
H6O H 0.8700 -0.4034 0.5985
H6E H 1.1300 -0.2734 0.5985
N1T N 0.6869(6) 0.0000 0.5436(7)
N1B N 1.3131(6) 0.3131(6) -0.0436(7)
N1P N 1.3131(6) 0.3131(6) 0.5436(7)
N1A N 1.0000 -0.3131(6) -0.0436(7)
N1E N 1.0000 -0.3131(6) 0.5436(7)
O1B O 1.2493(3) 0.1741(2) 0.2500
O1S O 1.1741(2) 0.2493(3) 0.2500
O1A O 0.9248(2) -0.2493(3) 0.2500
O1E O 1.0752(2) -0.1741(2) 0.2500
O1R O 0.7507(3) -0.0752(2) 0.2500
O2A O 0.8852(2) 0.5528(3) 0.2500
O2B O 0.4472(3) 0.3324(2) 0.2500
O2R O 0.5528(3) -0.1148(2) 0.2500
O2S O 0.3324(2) -0.5528(3) 0.2500
O2E O 0.1148(2) -0.3324(2) 0.2500
O2B_2 O 1.4472(3) 0.3324(2) 0.2500
O2S_2 O 1.3324(2) 0.4472(3) 0.2500
O2A_2 O 0.8852(2) -0.4472(3) 0.2500
O2E_2 O 1.1148(2) -0.3324(2) 0.2500
O3A O 0.9171(2) 0.4407(3) 0.2500
O3B O 0.5593(3) 0.4764(2) 0.2500
O3R O 0.4407(3) -0.0829(2) 0.2500
O3S O 0.4764(2) -0.4407(3) 0.2500
O3E O 0.0829(2) -0.4764(2) 0.2500
O4T O 0.6741(6) 0.0000 0.3856(6)
O4B O 1.3259(6) 0.3259(6) 0.1144(6)
O4P O 1.3259(6) 0.3259(6) 0.3856(6)
O4A O 1.0000 -0.3259(6) 0.1144(6)
O4E O 1.0000 -0.3259(6) 0.3856(6)
loop_
_geom_bond_atom_site_label_1
_geom_bond_atom_site_label_2
_geom_bond_site_symmetry_1
_geom_bond_site_symmetry_2
Ni1 O1 1_555 1_555
C1 C2 1_555 1_555
C2 C3 1_555 1_555
C3 H1 1_555 1_555
C4 C5 1_555 1_555
C5 C6 1_555 1_555
C6 H2 1_555 1_555
C7 H3 1_555 1_555
C8 H4 1_555 1_555
H5 C8 1_555 1_555
H6 C8 1_555 1_555
N1 C7 1_555 1_555
O1 C1 1_555 1_555
O2 Ni1 1_555 1_555
O3 C4 1_555 1_555
O4 Ni1 1_555 1_555
Ni1B O1B 1_555 1_555
Ni1A O1A 1_555 1_555
Ni1A_2 O2A 1_555 1_555
Ni1B_2 O2B 1_555 1_555
Ni1B_3 O2S 1_555 1_555
Ni1A_3 O2E 1_555 1_555
C1B C2B 1_555 1_555
C1A C2A 1_555 1_555
C2B C3 1_555 1_555
C2A C3B 1_555 1_555
C3B C2B 1_555 1_555
C3A C2 1_555 1_555
H1A C3A 1_555 1_555
H1B C3B 1_555 1_555
C4A C5A 1_555 1_555
C4B C5B 1_555 1_555
C4R C5R 1_555 1_555
C4S C5S 1_555 1_555
C4E C5E 1_555 1_555
C5A C6 1_555 1_555
C5B C6A 1_555 1_555
C5R C6R 1_555 1_555
C5S C6R 1_555 1_555
C5E C6S 1_555 1_555
C6A C5A 1_555 1_555
C6B C5 1_555 1_555
C6R H2R 1_555 1_555
C6S C5S 1_555 1_555
C6E C5R 1_555 1_555
H2B C6B 1_555 1_555
H2A C6A 1_555 1_555
H2E C6E 1_555 1_555
H2S C6S 1_555 1_555
C7R C7 1_555 1_555
C7T C7I 1_555 1_555
C7I H3I 1_555 1_555
C7B C7S 1_555 1_555
C7S H3S 1_555 1_555
C7P C7J 1_555 1_555
C7J H3J 1_555 1_555
C7A C7W 1_555 1_555
C7W H3W 1_555 1_555
C7O C7E 1_555 1_555
C7E H3E 1_555 1_555
H3R C7R 1_555 1_555
H3T C7T 1_555 1_555
H3B C7B 1_555 1_555
H3P C7P 1_555 1_555
H3A C7A 1_555 1_555
H3O C7O 1_555 1_555
C8R N1 1_555 1_555
C8T H4T 1_555 1_555
C8I H4I 1_555 1_555
C8B H4B 1_555 1_555
C8S H4S 1_555 1_555
C8P H4P 1_555 1_555
C8J H4J 1_555 1_555
C8A H4A 1_555 1_555
C8W H4W 1_555 1_555
C8O H4O 1_555 1_555
C8E H4E 1_555 1_555
H4R C8R 1_555 1_555
H5R C8R 1_555 1_555
H5T C8T 1_555 1_555
H5I C8I 1_555 1_555
H5B C8B 1_555 1_555
H5S C8S 1_555 1_555
H5P C8P 1_555 1_555
H5J C8J 1_555 1_555
H5A C8A 1_555 1_555
H5W C8W 1_555 1_555
H5O C8O 1_555 1_555
H5E C8E 1_555 1_555
H6R C8R 1_555 1_555
H6T C8T 1_555 1_555
H6I C8I 1_555 1_555
H6B C8B 1_555 1_555
H6S C8S 1_555 1_555
H6P C8P 1_555 1_555
H6J C8J 1_555 1_555
H6A C8A 1_555 1_555
H6W C8W 1_555 1_555
H6O C8O 1_555 1_555
H6E C8E 1_555 1_555
N1T C7T 1_555 1_555
N1B C7B 1_555 1_555
N1P C7P 1_555 1_555
N1A C7A 1_555 1_555
N1E C7O 1_555 1_555
O1B C1B 1_555 1_555
O1S Ni1B 1_555 1_555
O1A C1A 1_555 1_555
O1E Ni1A 1_555 1_555
O1R Ni1 1_555 1_555
O2A C4A 1_555 1_555
O2B C4B 1_555 1_555
O2R Ni1 1_555 1_555
O2S C4S 1_555 1_555
O2E C4E 1_555 1_555
O2B_2 Ni1B 1_555 1_555
O2S_2 Ni1B 1_555 1_555
O2A_2 Ni1A 1_555 1_555
O2E_2 Ni1A 1_555 1_555
O3A C4A 1_555 1_555
O3B C4B 1_555 1_555
O3R C4R 1_555 1_555
O3S C4S 1_555 1_555
O3E C4E 1_555 1_555
O4T Ni1 1_555 1_555
O4B Ni1B 1_555 1_555
O4P Ni1B 1_555 1_555
O4A Ni1A 1_555 1_555
O4E Ni1A 1_555 1_555
C1 O1R 1_555 1_555
C4 O2 1_555 1_555
C7 O4 1_555 1_555
C8 N1 1_555 1_555
N1 C7R 1_555 1_555
O4 C7R 1_555 1_555
C1B O1S 1_555 1_555
C1A O1E 1_555 1_555
C2A C3A 1_555 1_555
C4R O2R 1_555 1_555
C5B C6B 1_555 1_555
C5E C6E 1_555 1_555
C7T O4T 1_555 1_555
C7I N1T 1_555 1_555
C7I O4T 1_555 1_555
C7B O4B 1_555 1_555
C7S N1B 1_555 1_555
C7S O4B 1_555 1_555
C7P O4P 1_555 1_555
C7J N1P 1_555 1_555
C7J O4P 1_555 1_555
C7A O4A 1_555 1_555
C7W N1A 1_555 1_555
C7W O4A 1_555 1_555
C7O O4E 1_555 1_555
C7E N1E 1_555 1_555
C7E O4E 1_555 1_555
C8T N1T 1_555 1_555
C8I N1T 1_555 1_555
C8B N1B 1_555 1_555
C8S N1B 1_555 1_555
C8P N1P 1_555 1_555
C8J N1P 1_555 1_555
C8A N1A 1_555 1_555
C8W N1A 1_555 1_555
C8O N1E 1_555 1_555
C8E N1E 1_555 1_555

#END
