
#######################################################################
#
#                 Cambridge Crystallographic Data Centre
#                                CCDC 
#
#######################################################################
#
# If this CIF has been generated from an entry in the Cambridge 
# Structural Database, then it will include bibliographic, chemical, 
# crystal, experimental, refinement or atomic coordinate data resulting 
# from the CCDC's data processing and validation procedures.
#
#######################################################################

data_ADONOX
_symmetry_cell_setting           trigonal
_symmetry_space_group_name_H-M   'P 31'
_symmetry_Int_Tables_number      144
_space_group_name_Hall           'P 31'
loop_
_symmetry_equiv_pos_site_id
_symmetry_equiv_pos_as_xyz
1 x,y,z
2 -y,x-y,1/3+z
3 -x+y,-x,2/3+z
_cell_length_a                   18.2101(11)
_cell_length_b                   18.2101(11)
_cell_length_c                   14.2785(18)
_cell_angle_alpha                90
_cell_angle_beta                 90
_cell_angle_gamma                120
_cell_volume                     4100.51
loop_
_atom_site_label
_atom_site_type_symbol
_atom_site_fract_x
_atom_site_fract_y
_atom_site_fract_z
Cu1 Cu 0.71985(5) 0.23111(5) 0.15739(5)
Cu2 Cu 0.20233(6) -0.04588(5) 0.33130(6)
O1 O 0.6072(3) 0.1795(3) 0.1990(3)
O2 O 0.7202(3) 0.1284(3) 0.1771(3)
O3 O 0.3108(3) 0.0510(3) 0.2936(3)
O4 O 0.2602(3) 0.1294(3) 0.2345(4)
O5 O 0.7631(4) -0.0949(3) 0.0397(4)
O6 O 0.8886(4) -0.0689(4) 0.0842(5)
O7 O 0.2558(4) -0.1406(5) 0.3054(5)
N1 N 0.7069(3) 0.3065(3) 0.0710(4)
N2 N 0.8403(3) 0.3018(3) 0.1824(4)
N3 N 0.2399(4) -0.0302(4) 0.4653(4)
N4 N 0.1573(4) -0.0604(4) 0.2001(4)
C1 C 0.8528(4) 0.4061(4) 0.0273(4)
C2 C 0.7735(4) 0.3454(4) 0.0013(4)
C3 C 0.7556(4) 0.3114(4) -0.0900(4)
H1 H 0.6996 0.2689 -0.1057
C4 C 0.8175(5) 0.3387(5) -0.1553(5)
H2 H 0.8043 0.3157 -0.2168
C5 C 0.9018(4) 0.4010(4) -0.1333(5)
C6 C 0.9691(5) 0.4287(5) -0.1963(5)
H3 H 0.9572 0.4075 -0.2585
C7 C 1.0485(5) 0.4830(6) -0.1734(6)
H4 H 1.0921 0.4992 -0.2187
C8 C 1.0686(5) 0.5169(5) -0.0826(6)
H5 H 1.1257 0.5565 -0.0665
C9 C 1.0058(4) 0.4927(4) -0.0177(5)
H6 H 1.0194 0.5150 0.0440
C10 C 0.9209(4) 0.4347(4) -0.0414(5)
C11 C 0.8734(4) 0.4406(4) 0.1242(4)
C12 C 0.8719(4) 0.3902(4) 0.1983(5)
C13 C 0.8967(4) 0.4245(4) 0.2903(5)
H7 H 0.8944 0.3892 0.3405
C14 C 0.9232(4) 0.5069(5) 0.3060(5)
H8 H 0.9413 0.5292 0.3671
C15 C 0.9249(4) 0.5610(4) 0.2345(5)
C16 C 0.9519(5) 0.6474(5) 0.2495(6)
H9 H 0.9690 0.6705 0.3106
C17 C 0.9542(5) 0.6980(5) 0.1793(7)
H10 H 0.9731 0.7560 0.1915
C18 C 0.9289(5) 0.6659(5) 0.0887(6)
H11 H 0.9312 0.7025 0.0399
C19 C 0.9012(4) 0.5831(4) 0.0699(5)
H12 H 0.8834 0.5620 0.0083
C20 C 0.8984(4) 0.5269(4) 0.1422(5)
C21 C 0.6381(4) 0.3079(4) 0.0573(5)
H13 H 0.6381 0.3433 0.0084
C22 C 0.5598(4) 0.2598(4) 0.1107(4)
C23 C 0.5485(4) 0.1981(4) 0.1755(4)
C24 C 0.4680(4) 0.1503(4) 0.2173(5)
H14 H 0.4581 0.1059 0.2594
C25 C 0.4034(4) 0.1665(4) 0.1985(5)
C26 C 0.4154(4) 0.2306(4) 0.1334(5)
H15 H 0.3712 0.2423 0.1200
C27 C 0.4935(4) 0.2753(4) 0.0901(5)
H16 H 0.5024 0.3176 0.0454
C28 C 0.3173(4) 0.1126(5) 0.2446(5)
C29 C 0.8920(4) 0.2731(4) 0.1983(5)
H17 H 0.9470 0.3118 0.2216
C30 C 0.8719(4) 0.1880(4) 0.1832(4)
C31 C 0.7873(4) 0.1204(4) 0.1669(4)
C32 C 0.7774(4) 0.0419(4) 0.1385(4)
H18 H 0.7219 -0.0048 0.1294
C33 C 0.8455(5) 0.0314(4) 0.1240(5)
C34 C 0.9280(5) 0.0956(5) 0.1473(5)
H19 H 0.9746 0.0859 0.1439
C35 C 0.9389(4) 0.1716(4) 0.1750(5)
H20 H 0.9946 0.2158 0.1895
C36 C 0.8334(6) -0.0495(5) 0.0806(6)
C37 C 0.2229(5) -0.0963(5) 0.5199(6)
H21 H 0.1928 -0.1512 0.4926
C38 C 0.2452(5) -0.0916(6) 0.6117(6)
H22 H 0.2318 -0.1410 0.6469
C39 C 0.2887(6) -0.0110(6) 0.6520(6)
H23 H 0.3072 -0.0039 0.7152
C40 C 0.3040(6) 0.0574(5) 0.5986(6)
H24 H 0.3305 0.1127 0.6250
C41 C 0.2805(6) 0.0449(5) 0.5060(6)
H25 H 0.2944 0.0934 0.4688
C42 C 0.0848(5) -0.0638(5) 0.1809(6)
H26 H 0.0547 -0.0540 0.2290
C43 C 0.0514(6) -0.0820(5) 0.0876(7)
H27 H -0.0019 -0.0871 0.0736
C44 C 0.0976(8) -0.0917(7) 0.0206(7)
H28 H 0.0766 -0.1033 -0.0418
C45 C 0.1732(8) -0.0856(8) 0.0398(7)
H29 H 0.2061 -0.0920 -0.0076
C46 C 0.1997(6) -0.0699(6) 0.1299(6)
H30 H 0.2528 -0.0652 0.1440
C51 C 0.1948(13) -0.2269(14) 0.2830(18)
Cu2B Cu 0.75179(8) -0.20233(6) -0.00203(6)
O5A O 0.0949(3) -0.1420(5) 0.3730(4)
O8 O 0.6538(4) -0.1376(4) -0.5063(5)
C48 C 0.6185(8) -0.1009(8) -0.4422(10)
O9 O 0.3029(4) -0.0988(4) -0.1314(5)
C50 C 0.3546(11) -0.1342(11) -0.1337(17)
O10 O 0.8122(5) -0.0117(4) -0.5346(4)
C47 C 0.8467(6) 0.0070(6) -0.6257(6)
O11 O 0.5641(6) -0.0072(6) 0.2466(8)
C49 C 0.6000(9) -0.0304(10) 0.3155(12)
O12 O 0.5072(8) -0.4016(8) -0.1440(15)
O13 O 1.3049(14) 0.638(3) -0.002(2)
loop_
_geom_bond_atom_site_label_1
_geom_bond_atom_site_label_2
_geom_bond_site_symmetry_1
_geom_bond_site_symmetry_2
Cu1 O1 1_555 1_555
Cu2 O3 1_555 1_555
O1 C23 1_555 1_555
O2 Cu1 1_555 1_555
O3 C28 1_555 1_555
O4 C28 1_555 1_555
O5 C36 1_555 1_555
O6 C36 1_555 1_555
O7 Cu2 1_555 1_555
N1 Cu1 1_555 1_555
N2 Cu1 1_555 1_555
N3 Cu2 1_555 1_555
N4 Cu2 1_555 1_555
C1 C2 1_555 1_555
C2 N1 1_555 1_555
C3 C2 1_555 1_555
H1 C3 1_555 1_555
C4 C3 1_555 1_555
H2 C4 1_555 1_555
C5 C4 1_555 1_555
C6 C5 1_555 1_555
H3 C6 1_555 1_555
C7 C6 1_555 1_555
H4 C7 1_555 1_555
C8 C7 1_555 1_555
H5 C8 1_555 1_555
C9 C8 1_555 1_555
H6 C9 1_555 1_555
C10 C1 1_555 1_555
C11 C1 1_555 1_555
C12 N2 1_555 1_555
C13 C12 1_555 1_555
H7 C13 1_555 1_555
C14 C13 1_555 1_555
H8 C14 1_555 1_555
C15 C14 1_555 1_555
C16 C15 1_555 1_555
H9 C16 1_555 1_555
C17 C16 1_555 1_555
H10 C17 1_555 1_555
C18 C17 1_555 1_555
H11 C18 1_555 1_555
C19 C18 1_555 1_555
H12 C19 1_555 1_555
C20 C11 1_555 1_555
C21 N1 1_555 1_555
H13 C21 1_555 1_555
C22 C21 1_555 1_555
C23 C22 1_555 1_555
C24 C23 1_555 1_555
H14 C24 1_555 1_555
C25 C24 1_555 1_555
C26 C25 1_555 1_555
H15 C26 1_555 1_555
C27 C22 1_555 1_555
H16 C27 1_555 1_555
C28 C25 1_555 1_555
C29 N2 1_555 1_555
H17 C29 1_555 1_555
C30 C29 1_555 1_555
C31 O2 1_555 1_555
C32 C31 1_555 1_555
H18 C32 1_555 1_555
C33 C32 1_555 1_555
C34 C33 1_555 1_555
H19 C34 1_555 1_555
C35 C30 1_555 1_555
H20 C35 1_555 1_555
C36 C33 1_555 1_555
C37 N3 1_555 1_555
H21 C37 1_555 1_555
C38 C37 1_555 1_555
H22 C38 1_555 1_555
C39 C38 1_555 1_555
H23 C39 1_555 1_555
C40 C39 1_555 1_555
H24 C40 1_555 1_555
C41 N3 1_555 1_555
H25 C41 1_555 1_555
C42 N4 1_555 1_555
H26 C42 1_555 1_555
C43 C42 1_555 1_555
H27 C43 1_555 1_555
C44 C43 1_555 1_555
H28 C44 1_555 1_555
C45 C44 1_555 1_555
H29 C45 1_555 1_555
C46 N4 1_555 1_555
H30 C46 1_555 1_555
O8 C48 1_555 1_555
O9 C50 1_555 1_555
O10 C47 1_555 1_555
O11 C49 1_555 1_555
C51 O7 1_555 1_555
Cu2B O5 1_555 1_555
O5A Cu2 1_555 1_555
C5 C10 1_555 1_555
C9 C10 1_555 1_555
C11 C12 1_555 1_555
C15 C20 1_555 1_555
C19 C20 1_555 1_555
C26 C27 1_555 1_555
C30 C31 1_555 1_555
C34 C35 1_555 1_555
C40 C41 1_555 1_555
C45 C46 1_555 1_555

#END
