
#######################################################################
#
#                 Cambridge Crystallographic Data Centre
#                                CCDC 
#
#######################################################################
#
# If this CIF has been generated from an entry in the Cambridge 
# Structural Database, then it will include bibliographic, chemical, 
# crystal, experimental, refinement or atomic coordinate data resulting 
# from the CCDC's data processing and validation procedures.
#
#######################################################################

data_ADOQAN
_symmetry_cell_setting           monoclinic
_symmetry_space_group_name_H-M   'P 21/n'
_symmetry_Int_Tables_number      14
_space_group_name_Hall           '-P 2yn'
loop_
_symmetry_equiv_pos_site_id
_symmetry_equiv_pos_as_xyz
1 x,y,z
2 1/2-x,1/2+y,1/2-z
3 -x,-y,-z
4 1/2+x,1/2-y,1/2+z
_cell_length_a                   6.703(3)
_cell_length_b                   14.393(5)
_cell_length_c                   25.105(9)
_cell_angle_alpha                90
_cell_angle_beta                 94.326(6)
_cell_angle_gamma                90
_cell_volume                     2415.14
loop_
_atom_site_label
_atom_site_type_symbol
_atom_site_fract_x
_atom_site_fract_y
_atom_site_fract_z
Co1 Co 0.5000 0.0000 0.5000
Fe1 Fe 0.96079(6) 0.17486(3) 0.391244(17)
O1 O 0.3174(5) -0.3375(3) 0.32576(13)
N1 N 1.1203(4) 0.27890(16) 0.36438(10)
N2 N 0.7678(4) 0.21297(16) 0.33162(10)
N3 N 0.7445(5) 0.3096(2) 0.46459(12)
N4 N 1.1242(5) 0.0347(2) 0.31110(13)
N5 N 0.6833(4) 0.03043(17) 0.43644(10)
N6 N 0.2915(4) 0.10423(16) 0.47197(10)
N7 N 0.3268(4) -0.10086(16) 0.45347(10)
C1 C 1.2951(5) 0.3140(2) 0.38432(13)
C2 C 1.3842(5) 0.3899(3) 0.36074(14)
C3 C 1.2969(5) 0.4288(3) 0.31478(14)
C4 C 1.1118(5) 0.3935(2) 0.29303(13)
C5 C 1.0016(5) 0.4303(3) 0.24642(14)
C6 C 0.8180(5) 0.3967(3) 0.22976(15)
C7 C 0.7290(5) 0.3219(3) 0.25758(13)
C8 C 0.5400(5) 0.2830(3) 0.24290(14)
C9 C 0.4730(5) 0.2107(3) 0.27200(13)
C10 C 0.5896(5) 0.1773(2) 0.31633(12)
C11 C 0.8375(5) 0.2839(2) 0.30198(12)
C12 C 1.0295(5) 0.3194(2) 0.32008(12)
C13 C 0.8319(5) 0.2596(2) 0.43869(13)
C14 C 1.0683(5) 0.0862(2) 0.34160(13)
C15 C 0.7909(5) 0.0814(2) 0.41783(12)
C16 C 0.1651(4) 0.13515(19) 0.44366(12)
C17 C 0.4090(5) -0.1724(2) 0.42971(12)
C18 C 0.3004(5) -0.2368(3) 0.39869(13)
C19 C 0.0933(5) -0.2270(3) 0.39284(14)
C20 C 0.0063(5) -0.1552(3) 0.41828(14)
C21 C 0.1261(5) -0.0942(3) 0.44771(12)
C22 C 0.3953(6) -0.3130(3) 0.36890(15)
C23 C 0.5798(5) -0.3594(3) 0.39088(16)
C24 C 0.7042(6) -0.4003(3) 0.35564(17)
C25 C 0.8744(7) -0.4459(3) 0.3760(3)
C26 C 0.9213(11) -0.4496(5) 0.4287(3)
C27 C 0.8048(10) -0.4083(5) 0.4643(3)
C28 C 0.6278(7) -0.3645(3) 0.44546(18)
H1 H 1.3604 0.2865 0.4153
H2 H 1.5058 0.4148 0.3766
H3 H 1.3600 0.4787 0.2979
H4 H 1.0582 0.4790 0.2269
H5 H 0.7472 0.4232 0.1992
H6 H 0.4601 0.3067 0.2131
H7 H 0.3469 0.1832 0.2621
H8 H 0.5399 0.1273 0.3362
H9 H 0.5501 -0.1797 0.4344
H10 H 0.0137 -0.2696 0.3715
H11 H -0.1350 -0.1478 0.4156
H12 H 0.0642 -0.0444 0.4650
H13 H 0.6724 -0.3969 0.3182
H14 H 0.9592 -0.4749 0.3523
H15 H 1.0387 -0.4818 0.4418
H16 H 0.8440 -0.4094 0.5015
H17 H 0.5412 -0.3384 0.4697
Fe1B Fe 0.03921(6) -0.17486(3) 0.608756(17)
Fe1_2 Fe -0.03921(6) 0.17486(3) 0.391244(17)
Fe1B_2 Fe 1.03921(6) -0.17486(3) 0.608756(17)
O1B O 0.6826(5) 0.3375(3) 0.67424(13)
N1B N -0.1203(4) -0.27890(16) 0.63562(10)
N2B N 0.2322(4) -0.21297(16) 0.66838(10)
N3B N 0.2555(5) -0.3096(2) 0.53541(12)
N4B N -0.1242(5) -0.0347(2) 0.68890(13)
N5B N 0.3167(4) -0.03043(17) 0.56356(10)
N6B N 0.7085(4) -0.10423(16) 0.52803(10)
N7B N 0.6732(4) 0.10086(16) 0.54653(10)
C1B C -0.2951(5) -0.3140(2) 0.61568(13)
C2B C -0.3842(5) -0.3899(3) 0.63926(14)
C3B C -0.2969(5) -0.4288(3) 0.68522(14)
C4B C -0.1118(5) -0.3935(2) 0.70697(13)
C5B C -0.0016(5) -0.4303(3) 0.75358(14)
C6B C 0.1820(5) -0.3967(3) 0.77024(15)
C7B C 0.2710(5) -0.3219(3) 0.74242(13)
C8B C 0.4600(5) -0.2830(3) 0.75710(14)
C9B C 0.5270(5) -0.2107(3) 0.72800(13)
C10B C 0.4104(5) -0.1773(2) 0.68367(12)
C11B C 0.1625(5) -0.2839(2) 0.69802(12)
C12B C -0.0295(5) -0.3194(2) 0.67992(12)
C13B C 0.1681(5) -0.2596(2) 0.56131(13)
C14B C -0.0683(5) -0.0862(2) 0.65840(13)
C15B C 0.2091(5) -0.0814(2) 0.58217(12)
C16B C 0.8349(4) -0.13515(19) 0.55634(12)
C16_2 C 1.1651(4) 0.13515(19) 0.44366(12)
C16B_2 C -0.1651(4) -0.13515(19) 0.55634(12)
C17B C 0.5910(5) 0.1724(2) 0.57029(12)
C18B C 0.6996(5) 0.2368(3) 0.60131(13)
C19B C 0.9067(5) 0.2270(3) 0.60716(14)
C20B C 0.9937(5) 0.1552(3) 0.58172(14)
C21B C 0.8739(5) 0.0942(3) 0.55229(12)
C22B C 0.6047(6) 0.3130(3) 0.63110(15)
C23B C 0.4202(5) 0.3594(3) 0.60912(16)
C24B C 0.2958(6) 0.4003(3) 0.64436(17)
C25B C 0.1256(7) 0.4459(3) 0.6240(3)
C26B C 0.0787(11) 0.4496(5) 0.5713(3)
C27B C 0.1952(10) 0.4083(5) 0.5357(3)
C28B C 0.3722(7) 0.3645(3) 0.55454(18)
H1B H -0.3604 -0.2865 0.5847
H2B H -0.5058 -0.4148 0.6234
H3B H -0.3600 -0.4787 0.7021
H4B H -0.0582 -0.4790 0.7731
H5B H 0.2528 -0.4232 0.8008
H6B H 0.5399 -0.3067 0.7869
H7B H 0.6531 -0.1832 0.7379
H8B H 0.4601 -0.1273 0.6638
H9B H 0.4499 0.1797 0.5656
H10B H 0.9863 0.2696 0.6285
H11B H 1.1350 0.1478 0.5844
H12B H 0.9358 0.0444 0.5350
H13B H 0.3276 0.3969 0.6818
H14B H 0.0408 0.4749 0.6477
H15B H -0.0387 0.4818 0.5582
H16B H 0.1560 0.4094 0.4985
H17B H 0.4588 0.3384 0.5303
loop_
_geom_bond_atom_site_label_1
_geom_bond_atom_site_label_2
_geom_bond_site_symmetry_1
_geom_bond_site_symmetry_2
Co1 N5 1_555 1_555
Fe1 N1 1_555 1_555
O1 C22 1_555 1_555
N1 C1 1_555 1_555
N2 Fe1 1_555 1_555
N3 C13 1_555 1_555
N4 C14 1_555 1_555
N5 C15 1_555 1_555
N6 Co1 1_555 1_555
N7 Co1 1_555 1_555
C1 C2 1_555 1_555
C2 C3 1_555 1_555
C3 C4 1_555 1_555
C4 C5 1_555 1_555
C5 C6 1_555 1_555
C6 C7 1_555 1_555
C7 C8 1_555 1_555
C8 C9 1_555 1_555
C9 C10 1_555 1_555
C10 N2 1_555 1_555
C11 N2 1_555 1_555
C12 N1 1_555 1_555
C13 Fe1 1_555 1_555
C14 Fe1 1_555 1_555
C15 Fe1 1_555 1_555
C16 N6 1_555 1_555
C17 N7 1_555 1_555
C18 C17 1_555 1_555
C19 C18 1_555 1_555
C20 C19 1_555 1_555
C21 N7 1_555 1_555
C22 C18 1_555 1_555
C23 C22 1_555 1_555
C24 C23 1_555 1_555
C25 C24 1_555 1_555
C26 C25 1_555 1_555
C27 C26 1_555 1_555
C28 C23 1_555 1_555
H1 C1 1_555 1_555
H2 C2 1_555 1_555
H3 C3 1_555 1_555
H4 C5 1_555 1_555
H5 C6 1_555 1_555
H6 C8 1_555 1_555
H7 C9 1_555 1_555
H8 C10 1_555 1_555
H9 C17 1_555 1_555
H10 C19 1_555 1_555
H11 C20 1_555 1_555
H12 C21 1_555 1_555
H13 C24 1_555 1_555
H14 C25 1_555 1_555
H15 C26 1_555 1_555
H16 C27 1_555 1_555
H17 C28 1_555 1_555
Fe1B N1B 1_555 1_555
Fe1_2 C16 1_555 1_555
Fe1B_2 C16B 1_555 1_555
O1B C22B 1_555 1_555
N1B C1B 1_555 1_555
N2B Fe1B 1_555 1_555
N3B C13B 1_555 1_555
N4B C14B 1_555 1_555
N5B Co1 1_555 1_555
N6B Co1 1_555 1_555
N7B Co1 1_555 1_555
C1B C2B 1_555 1_555
C2B C3B 1_555 1_555
C3B C4B 1_555 1_555
C4B C5B 1_555 1_555
C5B C6B 1_555 1_555
C6B C7B 1_555 1_555
C7B C8B 1_555 1_555
C8B C9B 1_555 1_555
C9B C10B 1_555 1_555
C10B N2B 1_555 1_555
C11B N2B 1_555 1_555
C12B N1B 1_555 1_555
C13B Fe1B 1_555 1_555
C14B Fe1B 1_555 1_555
C15B Fe1B 1_555 1_555
C16B N6B 1_555 1_555
C16_2 Fe1 1_555 1_555
C16B_2 Fe1B 1_555 1_555
C17B N7B 1_555 1_555
C18B C17B 1_555 1_555
C19B C18B 1_555 1_555
C20B C19B 1_555 1_555
C21B N7B 1_555 1_555
C22B C18B 1_555 1_555
C23B C22B 1_555 1_555
C24B C23B 1_555 1_555
C25B C24B 1_555 1_555
C26B C25B 1_555 1_555
C27B C26B 1_555 1_555
C28B C23B 1_555 1_555
H1B C1B 1_555 1_555
H2B C2B 1_555 1_555
H3B C3B 1_555 1_555
H4B C5B 1_555 1_555
H5B C6B 1_555 1_555
H6B C8B 1_555 1_555
H7B C9B 1_555 1_555
H8B C10B 1_555 1_555
H9B C17B 1_555 1_555
H10B C19B 1_555 1_555
H11B C20B 1_555 1_555
H12B C21B 1_555 1_555
H13B C24B 1_555 1_555
H14B C25B 1_555 1_555
H15B C26B 1_555 1_555
H16B C27B 1_555 1_555
H17B C28B 1_555 1_555
C4 C12 1_555 1_555
C7 C11 1_555 1_555
C11 C12 1_555 1_555
C20 C21 1_555 1_555
C27 C28 1_555 1_555
N5B C15B 1_555 1_555
C4B C12B 1_555 1_555
C7B C11B 1_555 1_555
C11B C12B 1_555 1_555
C20B C21B 1_555 1_555
C27B C28B 1_555 1_555

#END
