
#######################################################################
#
#                 Cambridge Crystallographic Data Centre
#                                CCDC 
#
#######################################################################
#
# If this CIF has been generated from an entry in the Cambridge 
# Structural Database, then it will include bibliographic, chemical, 
# crystal, experimental, refinement or atomic coordinate data resulting 
# from the CCDC's data processing and validation procedures.
#
#######################################################################

data_ADOSES
_symmetry_cell_setting           monoclinic
_symmetry_space_group_name_H-M   'P 21/c'
_symmetry_Int_Tables_number      14
_space_group_name_Hall           '-P 2ybc'
loop_
_symmetry_equiv_pos_site_id
_symmetry_equiv_pos_as_xyz
1 x,y,z
2 -x,1/2+y,1/2-z
3 -x,-y,-z
4 x,1/2-y,1/2+z
_cell_length_a                   5.8189(6)
_cell_length_b                   10.235(1)
_cell_length_c                   13.066(1)
_cell_angle_alpha                90
_cell_angle_beta                 96.671(2)
_cell_angle_gamma                90
_cell_volume                     772.896
loop_
_atom_site_label
_atom_site_type_symbol
_atom_site_fract_x
_atom_site_fract_y
_atom_site_fract_z
Na1 Na 0.8877(2) 0.0523(1) 0.3702(1)
Co1 Co 0.35498(7) 0.24829(4) 0.73987(3)
P1 P 0.3892(1) 0.20321(8) 0.49267(7)
O1 O 0.3773(4) 0.2909(2) 0.5865(2)
O2 O 0.6488(4) 0.1513(2) 0.4984(2)
O3 O 0.3494(4) 0.2873(2) 0.3954(2)
O4 O 0.2285(4) 0.0861(2) 0.4895(2)
O5 O 1.2065(4) 0.0664(2) 0.2540(2)
O6 O 1.5330(4) -0.0510(2) 0.2736(2)
O7 O 1.2693(4) -0.2701(2) 0.2389(2)
O8 O 0.9692(3) -0.1535(2) 0.2840(2)
C1 C 1.1723(5) -0.1666(3) 0.2620(2)
C2 C 1.3172(5) -0.0395(3) 0.2641(2)
Na1_2 Na 1.8877(2) 0.0523(1) 0.3702(1)
Na1_3 Na -0.1123(2) 0.0523(1) 0.3702(1)
Na1B Na 0.1123(2) -0.0523(1) 0.6298(1)
Na1A Na 1.1123(2) -0.4477(1) 0.1298(1)
Na1B_2 Na 1.1123(2) -0.0523(1) 0.6298(1)
Na1A_2 Na 0.1123(2) -0.4477(1) 0.1298(1)
Co1_2 Co 1.35498(7) 0.24829(4) 0.73987(3)
Co1C Co 0.35498(7) 0.25171(4) 0.23987(3)
Co1C_2 Co 1.35498(7) 0.25171(4) 0.23987(3)
Co1B Co 1.64502(7) -0.24829(4) 0.26013(3)
Co1B_2 Co 0.64502(7) -0.24829(4) 0.26013(3)
Co1B_3 Co -0.35498(7) -0.24829(4) 0.26013(3)
P1_2 P 1.3892(1) 0.20321(8) 0.49267(7)
O1_2 O 1.3773(4) 0.2909(2) 0.5865(2)
O2_2 O 1.6488(4) 0.1513(2) 0.4984(2)
O3_2 O 1.3494(4) 0.2873(2) 0.3954(2)
O3C O 0.3494(4) 0.2127(2) 0.8954(2)
O3C_2 O 1.3494(4) 0.2127(2) 0.8954(2)
O4_2 O 1.2285(4) 0.0861(2) 0.4895(2)
O4B O 0.7715(4) -0.0861(2) 0.5105(2)
O4_3 O 2.2285(4) 0.0861(2) 0.4895(2)
O4B_2 O 1.7715(4) -0.0861(2) 0.5105(2)
O5_2 O 0.2065(4) 0.0664(2) 0.2540(2)
O5C O 0.2065(4) 0.4336(2) 0.7540(2)
O5_3 O 2.2065(4) 0.0664(2) 0.2540(2)
O5C_2 O 1.2065(4) 0.4336(2) 0.7540(2)
O6_2 O 0.5330(4) -0.0510(2) 0.2736(2)
O6B O 0.4670(4) 0.0510(2) 0.7264(2)
O6B_2 O 1.4670(4) 0.0510(2) 0.7264(2)
O7_2 O 0.2693(4) -0.2701(2) 0.2389(2)
O7A O 0.7307(4) 0.2299(2) 0.2611(2)
O7B O 0.7307(4) 0.2701(2) 0.7611(2)
O7A_2 O 1.7307(4) 0.2299(2) 0.2611(2)
O7B_2 O 1.7307(4) 0.2701(2) 0.7611(2)
O8_2 O -0.0308(3) -0.1535(2) 0.2840(2)
O8B O 0.0308(3) 0.1535(2) 0.7160(2)
O8_3 O 1.9692(3) -0.1535(2) 0.2840(2)
O8B_2 O 1.0308(3) 0.1535(2) 0.7160(2)
C1_2 C 0.1723(5) -0.1666(3) 0.2620(2)
C2_2 C 0.3172(5) -0.0395(3) 0.2641(2)
N1 N 0.7891(5) 0.0414(3) 0.0936(2)
C3 C 0.9008(6) 0.0479(3) -0.0026(3)
H1 H 0.6510 0.1011 0.0811
H2 H 0.7373 -0.0422 0.0994
H3 H 0.8623 0.0561 0.1346
H4 H 0.7784 0.0319 -0.0635
H5 H 0.9470 0.1347 -0.0201
N1B N 1.2109(5) -0.0414(3) -0.0936(2)
C3B C 1.0992(6) -0.0479(3) 0.0026(3)
H1B H 1.3490 -0.1011 -0.0811
H2B H 1.2627 0.0422 -0.0994
H3B H 1.1377 -0.0561 -0.1346
H4B H 1.2216 -0.0319 0.0635
H5B H 1.0530 -0.1347 0.0201
loop_
_geom_bond_atom_site_label_1
_geom_bond_atom_site_label_2
_geom_bond_site_symmetry_1
_geom_bond_site_symmetry_2
Na1 O2 1_555 1_555
Co1 O1 1_555 1_555
P1 O1 1_555 1_555
O2 P1 1_555 1_555
O3 P1 1_555 1_555
O4 P1 1_555 1_555
O5 Na1 1_555 1_555
O6 C2 1_555 1_555
O7 C1 1_555 1_555
O8 Na1 1_555 1_555
N1 C3 1_555 1_555
C1 O8 1_555 1_555
C2 O5 1_555 1_555
C3 H4 1_555 1_555
H1 N1 1_555 1_555
H2 N1 1_555 1_555
H3 N1 1_555 1_555
H5 C3 1_555 1_555
Na1_2 O6 1_555 1_555
Na1_3 O4 1_555 1_555
Na1B O4 1_555 1_555
Na1A O7 1_555 1_555
Na1B_2 O4_2 1_555 1_555
Na1A_2 O7_2 1_555 1_555
Co1_2 O1_2 1_555 1_555
Co1C O3 1_555 1_555
Co1C_2 O5 1_555 1_555
Co1B O6 1_555 1_555
Co1B_2 O8 1_555 1_555
Co1B_3 O8_2 1_555 1_555
P1_2 O1_2 1_555 1_555
O2_2 Na1_2 1_555 1_555
O3_2 Co1C_2 1_555 1_555
O3C Co1 1_555 1_555
O3C_2 Co1_2 1_555 1_555
O4_2 Na1 1_555 1_555
O4B Na1 1_555 1_555
O4_3 Na1_2 1_555 1_555
O4B_2 Na1_2 1_555 1_555
O5_2 Na1_3 1_555 1_555
O5C Co1 1_555 1_555
O5_3 Na1_2 1_555 1_555
O5C_2 Co1_2 1_555 1_555
O6_2 Na1 1_555 1_555
O6B Co1 1_555 1_555
O6B_2 Na1B_2 1_555 1_555
O7_2 Co1B_2 1_555 1_555
O7A Na1 1_555 1_555
O7B Co1 1_555 1_555
O7A_2 Na1_2 1_555 1_555
O7B_2 Co1_2 1_555 1_555
O8_2 Na1_3 1_555 1_555
O8B Co1 1_555 1_555
O8_3 Na1_2 1_555 1_555
O8B_2 Na1B_2 1_555 1_555
N1B C3B 1_555 1_555
C1_2 O7_2 1_555 1_555
C2_2 O5_2 1_555 1_555
C3B C3 1_555 1_555
H1B N1B 1_555 1_555
H2B N1B 1_555 1_555
H3B N1B 1_555 1_555
H4B C3B 1_555 1_555
H5B C3B 1_555 1_555
O7 Co1B 1_555 1_555
C1 C2 1_555 1_555
Na1B O6B 1_555 1_555
Na1B O8B 1_555 1_555
Na1B_2 O4B 1_555 1_555
Co1_2 O6B_2 1_555 1_555
Co1_2 O8B_2 1_555 1_555
Co1C O5_2 1_555 1_555
Co1C O7A 1_555 1_555
Co1C_2 O7A_2 1_555 1_555
Co1B O8_3 1_555 1_555
Co1B_2 O6_2 1_555 1_555
P1_2 O2_2 1_555 1_555
P1_2 O3_2 1_555 1_555
P1_2 O4_2 1_555 1_555
O6_2 C2_2 1_555 1_555
O8_2 C1_2 1_555 1_555
C1_2 C2_2 1_555 1_555

#END
