
#######################################################################
#
#                 Cambridge Crystallographic Data Centre
#                                CCDC 
#
#######################################################################
#
# If this CIF has been generated from an entry in the Cambridge 
# Structural Database, then it will include bibliographic, chemical, 
# crystal, experimental, refinement or atomic coordinate data resulting 
# from the CCDC's data processing and validation procedures.
#
#######################################################################

data_ADOVOF
_symmetry_cell_setting           monoclinic
_symmetry_space_group_name_H-M   'C 2/c'
_symmetry_Int_Tables_number      15
_space_group_name_Hall           '-C 2yn'
loop_
_symmetry_equiv_pos_site_id
_symmetry_equiv_pos_as_xyz
1 x,y,z
2 1/2+x,1/2+y,z
3 -x,y,1/2-z
4 1/2-x,1/2+y,1/2-z
5 -x,-y,-z
6 1/2-x,1/2-y,-z
7 x,-y,1/2+z
8 1/2+x,1/2-y,1/2+z
_cell_length_a                   14.241(6)
_cell_length_b                   15.218(6)
_cell_length_c                   17.976(7)
_cell_angle_alpha                90
_cell_angle_beta                 109.330(6)
_cell_angle_gamma                90
_cell_volume                     3676.14
loop_
_atom_site_label
_atom_site_type_symbol
_atom_site_fract_x
_atom_site_fract_y
_atom_site_fract_z
Cd1 Cd 0.37256(2) 0.087128(14) 0.394272(13)
O1 O 0.3605(2) 0.06330(14) 0.52112(14)
O2 O 0.3731(2) 0.20077(15) 0.48638(13)
O3 O 0.3890(2) 0.00799(15) 0.80648(15)
O4 O 0.3928(2) 0.12186(17) 0.88455(14)
O5 O 0.3976(2) 0.43056(15) 0.77734(14)
O6 O 0.29971(18) 0.43919(14) 0.65228(14)
O7 O 0.5463(2) 0.09565(16) 0.45479(15)
H1 H 0.568(3) 0.102(3) 0.5038(12)
H2 H 0.573(3) 0.0480(17) 0.451(2)
N1 N 0.3660(2) 0.19526(17) 0.30184(17)
N2 N 0.3552(3) 0.38881(18) 0.13308(17)
H3 H 0.329(3) 0.4385(18) 0.143(2)
N3 N 0.4075(3) 0.3970(2) -0.07884(18)
H4 H 0.420(3) 0.402(3) -0.1246(16)
C1 C 0.3604(3) 0.1725(2) 0.2284(2)
H5 H 0.3598 0.1129 0.2167
C2 C 0.3556(3) 0.2319(2) 0.1692(2)
H6 H 0.3494 0.2127 0.1186
C3 C 0.3602(3) 0.3215(2) 0.1869(2)
C4 C 0.3654(3) 0.3458(2) 0.26275(19)
H7 H 0.3681 0.4049 0.2767
C5 C 0.3665(3) 0.2818(2) 0.3169(2)
H8 H 0.3677 0.2993 0.3668
C6 C 0.4364(3) 0.3256(2) -0.0334(2)
H9 H 0.4682 0.2802 -0.0502
C7 C 0.4200(3) 0.3180(2) 0.0370(2)
H10 H 0.4400 0.2676 0.0674
C8 C 0.3727(3) 0.3870(2) 0.0634(2)
C9 C 0.3454(3) 0.4616(2) 0.0142(2)
H11 H 0.3157 0.5095 0.0296
C10 C 0.3625(4) 0.4636(3) -0.0555(2)
H12 H 0.3425 0.5125 -0.0880
C11 C 0.3665(2) 0.17683(19) 0.61516(17)
C12 C 0.3752(2) 0.1185(2) 0.67726(17)
H13 H 0.3778 0.0583 0.6691
C13 C 0.3801(2) 0.15016(19) 0.75144(17)
C14 C 0.3762(2) 0.2405(2) 0.76255(17)
H14 H 0.3816 0.2620 0.8122
C15 C 0.3643(2) 0.29921(19) 0.70056(18)
C16 C 0.3594(2) 0.2666(2) 0.62712(18)
H15 H 0.3511 0.3052 0.5854
C17 C 0.3672(2) 0.1450(2) 0.53622(18)
C18 C 0.3875(3) 0.0892(2) 0.82011(19)
C19 C 0.3537(3) 0.39649(19) 0.71183(19)
Cd1F Cd 0.37256(2) -0.087128(14) 0.894272(13)
Cd1E Cd 0.12744(2) 0.412872(14) 0.605728(13)
O3F O 0.3890(2) -0.00799(15) 0.30648(15)
O6E O 0.20029(18) 0.06081(14) 0.34772(14)
loop_
_geom_bond_atom_site_label_1
_geom_bond_atom_site_label_2
_geom_bond_site_symmetry_1
_geom_bond_site_symmetry_2
Cd1 O1 1_555 1_555
O1 C17 1_555 1_555
O2 Cd1 1_555 1_555
O3 C18 1_555 1_555
O4 C18 1_555 1_555
O5 C19 1_555 1_555
O6 C19 1_555 1_555
O7 Cd1 1_555 1_555
H1 O7 1_555 1_555
H2 O7 1_555 1_555
N1 Cd1 1_555 1_555
N2 H3 1_555 1_555
N3 H4 1_555 1_555
C1 N1 1_555 1_555
H5 C1 1_555 1_555
C2 C1 1_555 1_555
H6 C2 1_555 1_555
C3 N2 1_555 1_555
C4 C3 1_555 1_555
H7 C4 1_555 1_555
C5 N1 1_555 1_555
H8 C5 1_555 1_555
C6 N3 1_555 1_555
H9 C6 1_555 1_555
C7 C6 1_555 1_555
H10 C7 1_555 1_555
C8 N2 1_555 1_555
C9 C8 1_555 1_555
H11 C9 1_555 1_555
C10 N3 1_555 1_555
H12 C10 1_555 1_555
C11 C12 1_555 1_555
C12 H13 1_555 1_555
C13 C12 1_555 1_555
C14 C13 1_555 1_555
H14 C14 1_555 1_555
C15 C14 1_555 1_555
C16 C11 1_555 1_555
H15 C16 1_555 1_555
C17 O2 1_555 1_555
C18 C13 1_555 1_555
C19 C15 1_555 1_555
Cd1F O3 1_555 1_555
Cd1E O6 1_555 1_555
O3F Cd1 1_555 1_555
O6E Cd1 1_555 1_555
C2 C3 1_555 1_555
C4 C5 1_555 1_555
C7 C8 1_555 1_555
C9 C10 1_555 1_555
C11 C17 1_555 1_555
C15 C16 1_555 1_555

#END
