
#######################################################################
#
#                 Cambridge Crystallographic Data Centre
#                                CCDC 
#
#######################################################################
#
# If this CIF has been generated from an entry in the Cambridge 
# Structural Database, then it will include bibliographic, chemical, 
# crystal, experimental, refinement or atomic coordinate data resulting 
# from the CCDC's data processing and validation procedures.
#
#######################################################################

data_ADUBEI
_symmetry_cell_setting           triclinic
_symmetry_space_group_name_H-M   'P -1'
_symmetry_Int_Tables_number      2
_space_group_name_Hall           '-P 1'
loop_
_symmetry_equiv_pos_site_id
_symmetry_equiv_pos_as_xyz
1 x,y,z
2 -x,-y,-z
_cell_length_a                   6.071(3)
_cell_length_b                   6.917(3)
_cell_length_c                   9.026(4)
_cell_angle_alpha                84.037(6)
_cell_angle_beta                 81.307(5)
_cell_angle_gamma                70.132(5)
_cell_volume                     351.811
loop_
_atom_site_label
_atom_site_type_symbol
_atom_site_fract_x
_atom_site_fract_y
_atom_site_fract_z
Co1 Co 0.0000 0.5000 0.5000
C1 C -0.0587(3) 0.7463(3) 0.78361(19)
H1 H -0.1894 0.7098 0.8263
C2 C 0.2246(3) 0.8764(3) 0.74824(18)
H2 H 0.3244 0.9475 0.7623
C3 C 0.3266(3) 0.6572(2) 0.23391(17)
N1 N -0.0515(2) 0.9405(2) 0.98772(14)
N2 N 0.0374(2) 0.8614(2) 0.84785(13)
N3 N 0.0590(2) 0.6944(2) 0.65325(14)
N4 N 0.2418(2) 0.7765(2) 0.63124(15)
N5 N 0.1843(3) 0.6124(2) 0.31467(17)
O1 O 0.3185(2) 0.27778(19) 0.54826(15)
H3 H 0.431(6) 0.274(4) 0.501(3)
H4 H 0.347(5) 0.273(4) 0.630(3)
S1 S 0.53059(9) 0.72752(8) 0.12248(5)
Co1_2 Co 0.0000 1.5000 1.5000
C1A C 0.0587(3) 1.2537(3) 1.21639(19)
H1A H 0.1894 1.2902 1.1737
C2A C -0.2246(3) 1.1236(3) 1.25176(18)
H2A H -0.3244 1.0525 1.2377
C3A C -0.3266(3) 0.3428(2) 0.76609(17)
N1A N 0.0515(2) 1.0595(2) 1.01228(14)
N2A N -0.0374(2) 1.1386(2) 1.15215(13)
N3A N -0.0590(2) 1.3056(2) 1.34675(14)
N3A_2 N -0.0590(2) 0.3056(2) 0.34675(14)
N4A N -0.2418(2) 1.2235(2) 1.36876(15)
N5A N -0.1843(3) 0.3876(2) 0.68533(17)
O1A O -0.3185(2) 0.72222(19) 0.45174(15)
H3A H -0.431(6) 0.726(4) 0.499(3)
H4A H -0.347(5) 0.727(4) 0.370(3)
S1A S -0.53059(9) 0.27248(8) 0.87752(5)
loop_
_geom_bond_atom_site_label_1
_geom_bond_atom_site_label_2
_geom_bond_site_symmetry_1
_geom_bond_site_symmetry_2
Co1 N3 1_555 1_555
C1 H1 1_555 1_555
C2 H2 1_555 1_555
C3 N5 1_555 1_555
N1 N2 1_555 1_555
N2 C1 1_555 1_555
N3 C1 1_555 1_555
N4 C2 1_555 1_555
N5 Co1 1_555 1_555
O1 Co1 1_555 1_555
H3 O1 1_555 1_555
H4 O1 1_555 1_555
S1 C3 1_555 1_555
Co1_2 N3A 1_555 1_555
C1A H1A 1_555 1_555
C2A H2A 1_555 1_555
C3A N5A 1_555 1_555
N1A N1 1_555 1_555
N2A C1A 1_555 1_555
N3A C1A 1_555 1_555
N3A_2 Co1 1_555 1_555
N4A C2A 1_555 1_555
N5A Co1 1_555 1_555
O1A Co1 1_555 1_555
H3A O1A 1_555 1_555
H4A O1A 1_555 1_555
S1A C3A 1_555 1_555
C2 N2 1_555 1_555
N3 N4 1_555 1_555
C2A N2A 1_555 1_555
N1A N2A 1_555 1_555
N3A N4A 1_555 1_555

#END
