
#######################################################################
#
#                 Cambridge Crystallographic Data Centre
#                                CCDC 
#
#######################################################################
#
# If this CIF has been generated from an entry in the Cambridge 
# Structural Database, then it will include bibliographic, chemical, 
# crystal, experimental, refinement or atomic coordinate data resulting 
# from the CCDC's data processing and validation procedures.
#
#######################################################################

data_ADUBIM
_symmetry_cell_setting           triclinic
_symmetry_space_group_name_H-M   'P -1'
_symmetry_Int_Tables_number      2
_space_group_name_Hall           '-P 1'
loop_
_symmetry_equiv_pos_site_id
_symmetry_equiv_pos_as_xyz
1 x,y,z
2 -x,-y,-z
_cell_length_a                   5.849(2)
_cell_length_b                   6.931(2)
_cell_length_c                   8.268(2)
_cell_angle_alpha                106.923(3)
_cell_angle_beta                 96.000(3)
_cell_angle_gamma                98.006(3)
_cell_volume                     313.795
loop_
_atom_site_label
_atom_site_type_symbol
_atom_site_fract_x
_atom_site_fract_y
_atom_site_fract_z
Cd1 Cd 0.5000 0.5000 0.0000
C1 C 0.7431(4) 0.3048(3) 0.4450(3)
H1 H 0.8620 0.2999 0.5306
C2 C 0.4128(4) 0.2376(3) 0.2725(3)
H2 H 0.2581 0.1792 0.2153
C3 C 0.0579(3) 0.7486(3) 0.1254(2)
N1 N 0.4245(3) 0.0238(2) 0.4542(2)
N2 N 0.5264(3) 0.1818(2) 0.3990(2)
N3 N 0.7608(3) 0.4286(3) 0.3537(2)
N4 N 0.5490(3) 0.3833(3) 0.2422(2)
N5 N 0.2279(3) 0.6827(3) 0.1074(2)
S1 S -0.17945(8) 0.84884(7) 0.15606(6)
Cd1_2 Cd -0.5000 0.5000 0.0000
Cd1_3 Cd 0.5000 -0.5000 1.0000
C1A C 0.2569(4) -0.3048(3) 0.5550(3)
H1A H 0.1380 -0.2999 0.4694
C2A C 0.5872(4) -0.2376(3) 0.7275(3)
H2A H 0.7419 -0.1792 0.7847
C3A C -0.0579(3) 0.2514(3) -0.1254(2)
N1A N 0.5755(3) -0.0238(2) 0.5458(2)
N2A N 0.4736(3) -0.1818(2) 0.6010(2)
N3A N 0.2392(3) -0.4286(3) 0.6463(2)
N4A N 0.4510(3) -0.3833(3) 0.7578(2)
N4A_2 N 0.4510(3) 0.6167(3) -0.2422(2)
N5A N -0.2279(3) 0.3173(3) -0.1074(2)
N5A_2 N 0.7721(3) 0.3173(3) -0.1074(2)
S1A S 0.17945(8) 0.15116(7) -0.15606(6)
S1_2 S 0.82055(8) 0.84884(7) 0.15606(6)
loop_
_geom_bond_atom_site_label_1
_geom_bond_atom_site_label_2
_geom_bond_site_symmetry_1
_geom_bond_site_symmetry_2
Cd1 N4 1_555 1_555
C1 H1 1_555 1_555
C2 H2 1_555 1_555
C3 N5 1_555 1_555
N1 N2 1_555 1_555
N2 C1 1_555 1_555
N3 C1 1_555 1_555
N4 C2 1_555 1_555
N5 Cd1 1_555 1_555
S1 C3 1_555 1_555
Cd1_2 S1 1_555 1_555
Cd1_3 N4A 1_555 1_555
C1A H1A 1_555 1_555
C2A H2A 1_555 1_555
C3A N5A 1_555 1_555
N1A N1 1_555 1_555
N2A C1A 1_555 1_555
N3A C1A 1_555 1_555
N4A C2A 1_555 1_555
N4A_2 Cd1 1_555 1_555
N5A Cd1_2 1_555 1_555
N5A_2 Cd1 1_555 1_555
S1A Cd1 1_555 1_555
S1_2 Cd1 1_555 1_555
C2 N2 1_555 1_555
N3 N4 1_555 1_555
C2A N2A 1_555 1_555
C3A S1A 1_555 1_555
N1A N2A 1_555 1_555
N3A N4A 1_555 1_555

#END
