
#######################################################################
#
#                 Cambridge Crystallographic Data Centre
#                                CCDC 
#
#######################################################################
#
# If this CIF has been generated from an entry in the Cambridge 
# Structural Database, then it will include bibliographic, chemical, 
# crystal, experimental, refinement or atomic coordinate data resulting 
# from the CCDC's data processing and validation procedures.
#
#######################################################################

data_ADUBOS
_symmetry_cell_setting           triclinic
_symmetry_space_group_name_H-M   'P -1'
_symmetry_Int_Tables_number      2
_space_group_name_Hall           '-P 1'
loop_
_symmetry_equiv_pos_site_id
_symmetry_equiv_pos_as_xyz
1 x,y,z
2 -x,-y,-z
_cell_length_a                   5.635(4)
_cell_length_b                   6.908(5)
_cell_length_c                   8.225(6)
_cell_angle_alpha                102.247(3)
_cell_angle_beta                 98.237(6)
_cell_angle_gamma                104.470(5)
_cell_volume                     296.371
loop_
_atom_site_label
_atom_site_type_symbol
_atom_site_fract_x
_atom_site_fract_y
_atom_site_fract_z
Co1 Co 0.50000 0.50000 0.00000
N1 N 0.56890 0.05480 0.46130
N2 N 0.48330 0.19410 0.38310
N3 N 0.42720 0.37950 0.20130
N4 N 0.23990 0.36690 0.28360
N5 N 0.26790 0.69440 0.08190
S1 S -0.13570 0.80560 0.19740
C1 C 0.57510 0.27530 0.26290
H1 H 0.73880 0.25290 0.21620
C2 C 0.27400 0.25300 0.39510
H2 H 0.14590 0.20690 0.47510
C3 C 0.10170 0.73530 0.13450
Co1_2 Co -0.50000 0.50000 0.00000
Co1_3 Co 0.50000 -0.50000 1.00000
N1A N 0.43110 -0.05480 0.53870
N2A N 0.51670 -0.19410 0.61690
N3A N 0.57280 -0.37950 0.79870
N3A_2 N 0.57280 0.62050 -0.20130
N4A N 0.76010 -0.36690 0.71640
N5A N -0.26790 0.30560 -0.08190
N5A_2 N 0.73210 0.30560 -0.08190
S1A S 0.13570 0.19440 -0.19740
S1_2 S 0.86430 0.80560 0.19740
C1A C 0.42490 -0.27530 0.73710
H1A H 0.26120 -0.25290 0.78380
C2A C 0.72600 -0.25300 0.60490
H2A H 0.85410 -0.20690 0.52490
C3A C -0.10170 0.26470 -0.13450
loop_
_geom_bond_atom_site_label_1
_geom_bond_atom_site_label_2
_geom_bond_site_symmetry_1
_geom_bond_site_symmetry_2
Co1 N3 1_555 1_555
N1 N2 1_555 1_555
N2 C1 1_555 1_555
N3 N4 1_555 1_555
N4 C2 1_555 1_555
N5 Co1 1_555 1_555
S1 C3 1_555 1_555
C1 N3 1_555 1_555
H1 C1 1_555 1_555
C2 N2 1_555 1_555
H2 C2 1_555 1_555
C3 N5 1_555 1_555
Co1_2 S1 1_555 1_555
Co1_3 N3A 1_555 1_555
N1A N1 1_555 1_555
N2A N1A 1_555 1_555
N3A N4A 1_555 1_555
N3A_2 Co1 1_555 1_555
N4A C2A 1_555 1_555
N5A Co1_2 1_555 1_555
N5A_2 Co1 1_555 1_555
S1A Co1 1_555 1_555
S1_2 Co1 1_555 1_555
C1A N2A 1_555 1_555
H1A C1A 1_555 1_555
C2A N2A 1_555 1_555
H2A C2A 1_555 1_555
C3A N5A 1_555 1_555
N3A C1A 1_555 1_555
S1A C3A 1_555 1_555

#END
