
#######################################################################
#
#                 Cambridge Crystallographic Data Centre
#                                CCDC 
#
#######################################################################
#
# If this CIF has been generated from an entry in the Cambridge 
# Structural Database, then it will include bibliographic, chemical, 
# crystal, experimental, refinement or atomic coordinate data resulting 
# from the CCDC's data processing and validation procedures.
#
#######################################################################

data_ADUQOH
_symmetry_cell_setting           monoclinic
_symmetry_space_group_name_H-M   'P 21/c'
_symmetry_Int_Tables_number      14
_space_group_name_Hall           '-P 2ybc'
loop_
_symmetry_equiv_pos_site_id
_symmetry_equiv_pos_as_xyz
1 x,y,z
2 -x,1/2+y,1/2-z
3 -x,-y,-z
4 x,1/2-y,1/2+z
_cell_length_a                   12.7891(7)
_cell_length_b                   28.6933(15)
_cell_length_c                   11.9318(6)
_cell_angle_alpha                90
_cell_angle_beta                 104.934(3)
_cell_angle_gamma                90
_cell_volume                     4230.62
loop_
_atom_site_label
_atom_site_type_symbol
_atom_site_fract_x
_atom_site_fract_y
_atom_site_fract_z
Cu1 Cu 0.69381(3) 0.452678(16) 0.62769(3)
Cl1 Cl 0.80232(7) 0.51267(3) 0.70466(7)
N1 N 0.7875(2) 0.41777(10) 0.5493(2)
C1 C 0.9008(3) 0.41947(12) 0.5811(3)
C2 C 0.9520(3) 0.41426(13) 0.6993(3)
H1 H 0.9092 0.4084 0.7521
C3 C 1.0616(3) 0.41742(15) 0.7407(3)
H2 H 1.0943 0.4127 0.8209
C4 C 1.1250(3) 0.42758(15) 0.6657(3)
H3 H 1.2013 0.4299 0.6942
C5 C 1.0767(3) 0.43436(14) 0.5490(3)
H4 H 1.1205 0.4421 0.4984
C6 C 0.9649(3) 0.43005(13) 0.5038(3)
C7 C 0.9171(3) 0.43230(13) 0.3796(3)
N2 N 0.9540(2) 0.46039(11) 0.3043(2)
H5 H 1.0067 0.4809 0.3243
C8 C 0.8955(3) 0.45133(13) 0.1935(3)
C9 C 0.9033(3) 0.46976(15) 0.0868(3)
H6 H 0.9517 0.4945 0.0834
C10 C 0.8386(3) 0.45080(13) -0.0120(3)
H7 H 0.8423 0.4629 -0.0850
C11 C 0.7674(3) 0.41432(13) -0.0092(3)
C12 C 0.7546(3) 0.39772(12) 0.0967(3)
H8 H 0.7026 0.3743 0.0988
C13 C 0.8195(3) 0.41611(12) 0.1986(3)
C14 C 0.8345(3) 0.40535(12) 0.3182(3)
C15 C 0.7796(3) 0.36966(13) 0.3750(3)
H9 H 0.8329 0.3466 0.4173
H10 H 0.7236 0.3529 0.3158
C16 C 0.7284(3) 0.39495(12) 0.4579(3)
N3 N 0.6209(2) 0.39186(10) 0.4335(2)
N4 N 0.5861(2) 0.41933(10) 0.5095(2)
C17 C 0.4855(3) 0.42414(13) 0.5074(3)
C18 C 0.3960(3) 0.39777(14) 0.4259(4)
H11 H 0.4266 0.3778 0.3758
H12 H 0.3451 0.4199 0.3780
H13 H 0.3580 0.3785 0.4706
C19 C 0.4666(3) 0.45717(12) 0.5919(3)
C20 C 0.3643(3) 0.47008(15) 0.6015(4)
H14 H 0.3013 0.4567 0.5518
C21 C 0.3553(4) 0.50221(15) 0.6833(4)
H15 H 0.2860 0.5114 0.6904
C22 C 0.4461(3) 0.52088(16) 0.7544(4)
H16 H 0.4409 0.5432 0.8115
C23 C 0.5465(3) 0.50686(15) 0.7425(4)
H17 H 0.6101 0.5194 0.7930
N5 N 0.5557(2) 0.47630(11) 0.6621(2)
O1 O 0.7216(2) 0.40646(9) -0.2131(2)
C24 C 0.7158(3) 0.39153(13) -0.1204(3)
N6 N 0.6683(3) 0.35033(14) -0.1182(3)
H18 H 0.6497 0.3417 -0.0552
C25 C 0.6462(4) 0.31885(17) -0.2203(3)
H19 H 0.6208 0.3378 -0.2925
C26 C 0.5628(4) 0.28562(16) -0.2135(4)
H20 H 0.4968 0.3028 -0.2092
H21 H 0.5875 0.2671 -0.1415
C27 C 0.5349(4) 0.25253(18) -0.3172(4)
N7 N 0.6358(3) 0.23350(12) -0.3421(3)
C28 C 0.7378(4) 0.26104(18) -0.3279(4)
C29 C 0.7496(4) 0.29352(17) -0.2243(4)
H22 H 0.7749 0.2751 -0.1522
H23 H 0.8060 0.3170 -0.2259
O2 O 0.6227(3) 0.20012(11) -0.4168(3)
C30 C 0.4702(5) 0.27653(19) -0.4255(4)
H24 H 0.4039 0.2896 -0.4113
H25 H 0.4512 0.2539 -0.4891
H26 H 0.5134 0.3017 -0.4464
C31 C 0.4762(5) 0.20951(18) -0.2862(5)
H27 H 0.4090 0.2193 -0.2680
H28 H 0.5229 0.1939 -0.2186
H29 H 0.4592 0.1880 -0.3521
C32 C 0.7369(5) 0.28885(19) -0.4359(4)
H30 H 0.8051 0.3060 -0.4244
H31 H 0.6764 0.3109 -0.4514
H32 H 0.7286 0.2676 -0.5020
C33 C 0.8341(4) 0.2264(2) -0.3087(6)
H33 H 0.9017 0.2439 -0.2995
H34 H 0.8237 0.2056 -0.3759
H35 H 0.8377 0.2079 -0.2388
Cu1_2 Cu 0.69381(3) 0.452678(16) -0.37231(3)
O1_2 O 0.7216(2) 0.40646(9) 0.7869(2)
loop_
_geom_bond_atom_site_label_1
_geom_bond_atom_site_label_2
_geom_bond_site_symmetry_1
_geom_bond_site_symmetry_2
Cu1 Cl1 1_555 1_555
N1 Cu1 1_555 1_555
C1 N1 1_555 1_555
C2 C1 1_555 1_555
H1 C2 1_555 1_555
C3 C2 1_555 1_555
H2 C3 1_555 1_555
C4 C3 1_555 1_555
H3 C4 1_555 1_555
C5 C4 1_555 1_555
H4 C5 1_555 1_555
C6 C1 1_555 1_555
C7 C6 1_555 1_555
N2 C7 1_555 1_555
H5 N2 1_555 1_555
C8 N2 1_555 1_555
C9 C8 1_555 1_555
H6 C9 1_555 1_555
C10 C9 1_555 1_555
H7 C10 1_555 1_555
C11 C10 1_555 1_555
C12 C11 1_555 1_555
H8 C12 1_555 1_555
C13 C8 1_555 1_555
C14 C7 1_555 1_555
C15 C14 1_555 1_555
H9 C15 1_555 1_555
H10 C15 1_555 1_555
C16 N1 1_555 1_555
N3 C16 1_555 1_555
N4 Cu1 1_555 1_555
C17 N4 1_555 1_555
C18 C17 1_555 1_555
H11 C18 1_555 1_555
H12 C18 1_555 1_555
H13 C18 1_555 1_555
C19 C17 1_555 1_555
C20 C19 1_555 1_555
H14 C20 1_555 1_555
C21 C20 1_555 1_555
H15 C21 1_555 1_555
C22 C21 1_555 1_555
H16 C22 1_555 1_555
C23 C22 1_555 1_555
H17 C23 1_555 1_555
N5 Cu1 1_555 1_555
O1 C24 1_555 1_555
C24 C11 1_555 1_555
N6 C24 1_555 1_555
H18 N6 1_555 1_555
C25 N6 1_555 1_555
H19 C25 1_555 1_555
C26 C25 1_555 1_555
H20 C26 1_555 1_555
H21 C26 1_555 1_555
C27 C26 1_555 1_555
N7 C27 1_555 1_555
C28 N7 1_555 1_555
C29 C25 1_555 1_555
H22 C29 1_555 1_555
H23 C29 1_555 1_555
O2 N7 1_555 1_555
C30 C27 1_555 1_555
H24 C30 1_555 1_555
H25 C30 1_555 1_555
H26 C30 1_555 1_555
C31 C27 1_555 1_555
H27 C31 1_555 1_555
H28 C31 1_555 1_555
H29 C31 1_555 1_555
C32 C28 1_555 1_555
H30 C32 1_555 1_555
H31 C32 1_555 1_555
H32 C32 1_555 1_555
C33 C28 1_555 1_555
H33 C33 1_555 1_555
H34 C33 1_555 1_555
H35 C33 1_555 1_555
Cu1_2 O1 1_555 1_555
O1_2 Cu1 1_555 1_555
C5 C6 1_555 1_555
C12 C13 1_555 1_555
C13 C14 1_555 1_555
C15 C16 1_555 1_555
N3 N4 1_555 1_555
C19 N5 1_555 1_555
C23 N5 1_555 1_555
C28 C29 1_555 1_555

#END
