
#######################################################################
#
#                 Cambridge Crystallographic Data Centre
#                                CCDC 
#
#######################################################################
#
# If this CIF has been generated from an entry in the Cambridge 
# Structural Database, then it will include bibliographic, chemical, 
# crystal, experimental, refinement or atomic coordinate data resulting 
# from the CCDC's data processing and validation procedures.
#
#######################################################################

data_ADUROI
_symmetry_cell_setting           cubic
_symmetry_space_group_name_H-M   'F d -3 c'
_symmetry_Int_Tables_number      228
_space_group_name_Hall           '-F 4ud 2vw 3'
loop_
_symmetry_equiv_pos_site_id
_symmetry_equiv_pos_as_xyz
1 x,y,z
2 -y,1/4+x,3/4+z
3 3/4-x,1/4-y,1/2+z
4 3/4+y,-x,1/4+z
5 x,1/4-y,1/4-z
6 3/4+y,1/4+x,-z
7 3/4-x,y,3/4-z
8 -y,-x,1/2-z
9 z,x,y
10 -x,1/4+z,3/4+y
11 3/4-z,1/4-x,1/2+y
12 3/4+x,-z,1/4+y
13 z,1/4-x,1/4-y
14 3/4+x,1/4+z,-y
15 3/4-z,x,3/4-y
16 -x,-z,1/2-y
17 y,z,x
18 1/2-z,-y,-x
19 -z,3/4+y,1/4+x
20 1/4+z,3/4+y,-x
21 3/4+z,-y,1/4+x
22 y,3/4-z,3/4-x
23 1/4-y,1/4-z,x
24 1/4-y,1/2+z,3/4-x
25 x,1/2+y,1/2+z
26 -y,3/4+x,1/4+z
27 3/4-x,3/4-y,z
28 3/4+y,1/2-x,3/4+z
29 x,3/4-y,3/4-z
30 3/4+y,3/4+x,1/2-z
31 3/4-x,1/2+y,1/4-z
32 -y,1/2-x,-z
33 z,1/2+x,1/2+y
34 -x,3/4+z,1/4+y
35 3/4-z,3/4-x,y
36 3/4+x,1/2-z,3/4+y
37 z,3/4-x,3/4-y
38 3/4+x,3/4+z,1/2-y
39 3/4-z,1/2+x,1/4-y
40 -x,1/2-z,-y
41 y,1/2+z,1/2+x
42 1/2-z,1/2-y,1/2-x
43 -z,1/4+y,3/4+x
44 1/4+z,1/4+y,1/2-x
45 3/4+z,1/2-y,3/4+x
46 y,1/4-z,1/4-x
47 1/4-y,3/4-z,1/2+x
48 1/4-y,z,1/4-x
49 1/2+x,y,1/2+z
50 1/2-y,1/4+x,1/4+z
51 1/4-x,1/4-y,z
52 1/4+y,-x,3/4+z
53 1/2+x,1/4-y,3/4-z
54 1/4+y,1/4+x,1/2-z
55 1/4-x,y,1/4-z
56 1/2-y,-x,-z
57 1/2+z,x,1/2+y
58 1/2-x,1/4+z,1/4+y
59 1/4-z,1/4-x,y
60 1/4+x,-z,3/4+y
61 1/2+z,1/4-x,3/4-y
62 1/4+x,1/4+z,1/2-y
63 1/4-z,x,1/4-y
64 1/2-x,-z,-y
65 1/2+y,z,1/2+x
66 -z,-y,1/2-x
67 1/2-z,3/4+y,3/4+x
68 3/4+z,3/4+y,1/2-x
69 1/4+z,-y,3/4+x
70 1/2+y,3/4-z,1/4-x
71 3/4-y,1/4-z,1/2+x
72 3/4-y,1/2+z,1/4-x
73 1/2+x,1/2+y,z
74 1/2-y,3/4+x,3/4+z
75 1/4-x,3/4-y,1/2+z
76 1/4+y,1/2-x,1/4+z
77 1/2+x,3/4-y,1/4-z
78 1/4+y,3/4+x,-z
79 1/4-x,1/2+y,3/4-z
80 1/2-y,1/2-x,1/2-z
81 1/2+z,1/2+x,y
82 1/2-x,3/4+z,3/4+y
83 1/4-z,3/4-x,1/2+y
84 1/4+x,1/2-z,1/4+y
85 1/2+z,3/4-x,1/4-y
86 1/4+x,3/4+z,-y
87 1/4-z,1/2+x,3/4-y
88 1/2-x,1/2-z,1/2-y
89 1/2+y,1/2+z,x
90 -z,1/2-y,-x
91 1/2-z,1/4+y,1/4+x
92 3/4+z,1/4+y,-x
93 1/4+z,1/2-y,1/4+x
94 1/2+y,1/4-z,3/4-x
95 3/4-y,3/4-z,x
96 3/4-y,z,3/4-x
97 -x,-y,-z
98 y,3/4-x,1/4-z
99 1/4+x,3/4+y,1/2-z
100 1/4-y,x,3/4-z
101 -x,3/4+y,3/4+z
102 1/4-y,3/4-x,z
103 1/4+x,-y,1/4+z
104 y,x,1/2+z
105 -z,-x,-y
106 x,3/4-z,1/4-y
107 1/4+z,3/4+x,1/2-y
108 1/4-x,z,3/4-y
109 -z,3/4+x,3/4+y
110 1/4-x,3/4-z,y
111 1/4+z,-x,1/4+y
112 x,z,1/2+y
113 -y,-z,-x
114 1/2+z,y,x
115 z,1/4-y,3/4-x
116 3/4-z,1/4-y,x
117 1/4-z,y,3/4-x
118 -y,1/4+z,1/4+x
119 3/4+y,3/4+z,-x
120 3/4+y,1/2-z,1/4+x
121 -x,1/2-y,1/2-z
122 y,1/4-x,3/4-z
123 1/4+x,1/4+y,-z
124 1/4-y,1/2+x,1/4-z
125 -x,1/4+y,1/4+z
126 1/4-y,1/4-x,1/2+z
127 1/4+x,1/2-y,3/4+z
128 y,1/2+x,z
129 -z,1/2-x,1/2-y
130 x,1/4-z,3/4-y
131 1/4+z,1/4+x,-y
132 1/4-x,1/2+z,1/4-y
133 -z,1/4+x,1/4+y
134 1/4-x,1/4-z,1/2+y
135 1/4+z,1/2-x,3/4+y
136 x,1/2+z,y
137 -y,1/2-z,1/2-x
138 1/2+z,1/2+y,1/2+x
139 z,3/4-y,1/4-x
140 3/4-z,3/4-y,1/2+x
141 1/4-z,1/2+y,1/4-x
142 -y,3/4+z,3/4+x
143 3/4+y,1/4+z,1/2-x
144 3/4+y,-z,3/4+x
145 1/2-x,-y,1/2-z
146 1/2+y,3/4-x,3/4-z
147 3/4+x,3/4+y,-z
148 3/4-y,x,1/4-z
149 1/2-x,3/4+y,1/4+z
150 3/4-y,3/4-x,1/2+z
151 3/4+x,-y,3/4+z
152 1/2+y,x,z
153 1/2-z,-x,1/2-y
154 1/2+x,3/4-z,3/4-y
155 3/4+z,3/4+x,-y
156 3/4-x,z,1/4-y
157 1/2-z,3/4+x,1/4+y
158 3/4-x,3/4-z,1/2+y
159 3/4+z,-x,3/4+y
160 1/2+x,z,y
161 1/2-y,-z,1/2-x
162 z,y,1/2+x
163 1/2+z,1/4-y,1/4-x
164 1/4-z,1/4-y,1/2+x
165 3/4-z,y,1/4-x
166 1/2-y,1/4+z,3/4+x
167 1/4+y,3/4+z,1/2-x
168 1/4+y,1/2-z,3/4+x
169 1/2-x,1/2-y,-z
170 1/2+y,1/4-x,1/4-z
171 3/4+x,1/4+y,1/2-z
172 3/4-y,1/2+x,3/4-z
173 1/2-x,1/4+y,3/4+z
174 3/4-y,1/4-x,z
175 3/4+x,1/2-y,1/4+z
176 1/2+y,1/2+x,1/2+z
177 1/2-z,1/2-x,-y
178 1/2+x,1/4-z,1/4-y
179 3/4+z,1/4+x,1/2-y
180 3/4-x,1/2+z,3/4-y
181 1/2-z,1/4+x,3/4+y
182 3/4-x,1/4-z,y
183 3/4+z,1/2-x,1/4+y
184 1/2+x,1/2+z,1/2+y
185 1/2-y,1/2-z,-x
186 z,1/2+y,x
187 1/2+z,3/4-y,3/4-x
188 1/4-z,3/4-y,x
189 3/4-z,1/2+y,3/4-x
190 1/2-y,3/4+z,1/4+x
191 1/4+y,1/4+z,-x
192 1/4+y,-z,1/4+x
_cell_length_a                   71.8701(7)
_cell_length_b                   71.8701(7)
_cell_length_c                   71.8701(7)
_cell_angle_alpha                90
_cell_angle_beta                 90
_cell_angle_gamma                90
_cell_volume                     371231
loop_
_atom_site_label
_atom_site_type_symbol
_atom_site_fract_x
_atom_site_fract_y
_atom_site_fract_z
C1 C 0.31150(6) 0.18496(6) -0.04808(5)
H1 H 0.3216 0.1770 -0.0467
C2 C 0.33872(5) 0.22353(6) 0.02056(5)
H2 H 0.3322 0.2345 0.0186
C3 C 0.38465(6) 0.10508(6) 0.02273(6)
C4 C 0.28508(5) 0.19510(5) -0.06570(6)
C5 C 0.33558(5) 0.20894(6) 0.00867(5)
C6 C 0.32158(6) 0.21144(6) -0.00637(6)
C7 C 0.30779(6) 0.19780(6) -0.03437(5)
C8 C 0.35784(6) 0.19103(6) 0.02623(6)
C9 C 0.37006(6) 0.14071(6) 0.02700(6)
C10 C 0.28135(6) 0.20740(6) -0.05205(6)
H3 H 0.2709 0.2149 -0.0532
C11 C 0.36575(6) 0.10735(6) 0.02301(6)
H4 H 0.3579 0.0972 0.0215
C12 C 0.39590(7) 0.12010(7) 0.02487(7)
H5 H 0.4087 0.1185 0.0249
C13 C 0.39289(6) 0.08599(6) 0.01833(6)
C14 C 0.34535(6) 0.19222(6) 0.01144(6)
H6 H 0.3435 0.1821 0.0035
C15 C 0.37006(7) 0.17483(7) 0.02999(7)
C16 C 0.29232(6) 0.20944(6) -0.03640(6)
H7 H 0.2895 0.2183 -0.0274
C17 C 0.36033(6) 0.20663(6) 0.03744(6)
H8 H 0.3690 0.2060 0.0471
C18 C 0.27319(6) 0.19300(6) -0.08221(6)
C19 C 0.38865(6) 0.13782(7) 0.02706(7)
H9 H 0.3967 0.1479 0.0286
C20 C 0.35830(6) 0.12548(6) 0.02559(7)
H10 H 0.3455 0.1271 0.0263
C21 C 0.30068(6) 0.18362(6) -0.06358(6)
H11 H 0.3037 0.1751 -0.0728
N1 N 0.35072(4) 0.22279(4) 0.03500(5)
N2 N 0.31957(4) 0.19802(5) -0.01879(5)
H12 H 0.3263 0.1883 -0.0171
N3 N 0.36147(5) 0.15836(5) 0.02711(5)
H13 H 0.3497 0.1587 0.0252
O1 O 0.37706(6) 0.25753(6) 0.03833(6)
O2 O 0.31327(5) 0.22615(4) -0.00697(4)
O3 O 0.38594(4) 0.17664(5) 0.03514(6)
O4 O 0.38119(4) 0.07316(4) 0.01478(5)
O5 O 0.41010(4) 0.08427(4) 0.01788(4)
O6 O 0.27559(4) 0.17988(4) -0.09381(4)
O7 O 0.25982(4) 0.20430(4) -0.08390(4)
Zn1 Zn 0.355757(7) 0.245140(8) 0.051908(7)
O4YF O 0.36881(4) 0.23522(5) 0.07316(4)
O7JB O 0.33390(4) 0.25982(4) 0.04570(4)
Zn1SA Zn 0.245140(8) 0.198092(7) -0.105757(7)
Zn1YE Zn 0.394243(7) 0.051908(7) 0.004860(8)
loop_
_geom_bond_atom_site_label_1
_geom_bond_atom_site_label_2
_geom_bond_site_symmetry_1
_geom_bond_site_symmetry_2
C1 H1 1_555 1_555
C2 H2 1_555 1_555
C3 C11 1_555 1_555
C4 C10 1_555 1_555
C5 C2 1_555 1_555
C6 C5 1_555 1_555
C7 C1 1_555 1_555
C8 C14 1_555 1_555
C9 C19 1_555 1_555
C10 H3 1_555 1_555
C11 H4 1_555 1_555
C12 C3 1_555 1_555
H5 C12 1_555 1_555
C13 C3 1_555 1_555
C14 C5 1_555 1_555
H6 C14 1_555 1_555
C15 C8 1_555 1_555
C16 C7 1_555 1_555
H7 C16 1_555 1_555
C17 C8 1_555 1_555
H8 C17 1_555 1_555
C18 C4 1_555 1_555
C19 C12 1_555 1_555
H9 C19 1_555 1_555
C20 C9 1_555 1_555
H10 C20 1_555 1_555
C21 C1 1_555 1_555
H11 C21 1_555 1_555
N1 C2 1_555 1_555
N2 C6 1_555 1_555
H12 N2 1_555 1_555
N3 C9 1_555 1_555
H13 N3 1_555 1_555
O1 Zn1 1_555 1_555
O2 C6 1_555 1_555
O3 C15 1_555 1_555
O4 C13 1_555 1_555
O5 C13 1_555 1_555
O6 C18 1_555 1_555
O7 C18 1_555 1_555
Zn1 N1 1_555 1_555
O4YF Zn1 1_555 1_555
O7JB Zn1 1_555 1_555
Zn1SA O7 1_555 1_555
Zn1YE O4 1_555 1_555
C4 C21 1_555 1_555
C7 N2 1_555 1_555
C10 C16 1_555 1_555
C11 C20 1_555 1_555
C15 N3 1_555 1_555
C17 N1 1_555 1_555

#END
