
#######################################################################
#
#                 Cambridge Crystallographic Data Centre
#                                CCDC 
#
#######################################################################
#
# If this CIF has been generated from an entry in the Cambridge 
# Structural Database, then it will include bibliographic, chemical, 
# crystal, experimental, refinement or atomic coordinate data resulting 
# from the CCDC's data processing and validation procedures.
#
#######################################################################

data_ADUREW
_symmetry_cell_setting           monoclinic
_symmetry_space_group_name_H-M   'C 2/c'
_symmetry_Int_Tables_number      15
_space_group_name_Hall           '-C 2yn'
loop_
_symmetry_equiv_pos_site_id
_symmetry_equiv_pos_as_xyz
1 x,y,z
2 1/2+x,1/2+y,z
3 x,-y,1/2+z
4 1/2+x,1/2-y,1/2+z
5 -x,-y,-z
6 1/2-x,1/2-y,-z
7 -x,y,1/2-z
8 1/2-x,1/2+y,1/2-z
_cell_length_a                   30.3221(14)
_cell_length_b                   18.0069(8)
_cell_length_c                   16.3615(8)
_cell_angle_alpha                90
_cell_angle_beta                 104.8950(10)
_cell_angle_gamma                90
_cell_volume                     8633.32
loop_
_atom_site_label
_atom_site_type_symbol
_atom_site_fract_x
_atom_site_fract_y
_atom_site_fract_z
Cu1 Cu 0.204019(13) 0.35303(2) 0.19505(3)
Cu2 Cu 0.0000 0.67952(4) 0.2500
S1 S 0.05740(3) 0.67745(5) 0.06649(6)
O1 O 0.05603(10) 0.74573(17) 0.0190(2)
O2 O 0.03414(9) 0.68338(19) 0.1328(2)
O3 O 0.04332(10) 0.61331(17) 0.0130(2)
O4 O 0.23842(9) 0.49648(15) 0.2343(2)
O5 O 0.17057(8) 0.44846(12) 0.17098(16)
O6 O 0.25742(8) 0.76402(13) 0.27626(16)
O7 O 0.20112(9) 0.84169(14) 0.2193(2)
N1 N 0.22491(11) 0.36572(18) 0.0862(2)
N2 N 0.14018(11) 0.28642(17) 0.1389(2)
N3 N 0.19727(11) 0.34949(17) 0.3170(2)
N4 N -0.04329(11) 0.76011(19) 0.1897(2)
N5 N -0.04444(10) 0.60122(18) 0.1901(2)
C1 C 0.11561(11) 0.66274(18) 0.1203(2)
C2 C 0.13271(11) 0.59105(18) 0.1342(2)
C3 C 0.17749(11) 0.58008(17) 0.1802(2)
C4 C 0.20489(11) 0.64067(18) 0.2119(2)
C5 C 0.18762(11) 0.71228(18) 0.1987(2)
C6 C 0.14277(11) 0.72318(18) 0.1525(2)
C7 C 0.19749(12) 0.50307(19) 0.1969(2)
C8 C 0.21692(12) 0.77889(19) 0.2339(2)
C9 C 0.2018(3) 0.3360(4) 0.0132(4)
H1 H 0.1762 0.3051 0.0118
C10 C 0.2150(3) 0.3498(6) -0.0621(4)
H2 H 0.1984 0.3281 -0.1138
C11 C 0.2521(2) 0.3951(5) -0.0605(4)
H3 H 0.2608 0.4060 -0.1110
C12 C 0.27545(18) 0.4232(4) 0.0136(3)
H4 H 0.3015 0.4534 0.0164
C13 C 0.26150(16) 0.4083(3) 0.0873(3)
C14 C 0.14162(17) 0.2120(2) 0.1312(3)
C15 C 0.1022(2) 0.1697(3) 0.1035(4)
C16 C 0.06011(18) 0.2054(3) 0.0830(4)
C17 C 0.05882(15) 0.2797(3) 0.0917(3)
C18 C 0.09914(14) 0.3182(3) 0.1196(3)
C19 C 0.1710(2) 0.2988(4) 0.3424(4)
H5 H 0.1520 0.2679 0.3008
C20 C 0.1704(3) 0.2893(5) 0.4246(4)
C21 C 0.1983(3) 0.3305(4) 0.4854(4)
C22 C 0.2270(2) 0.3811(4) 0.4623(3)
H6 H 0.2478 0.4095 0.5038
C23 C 0.2246(2) 0.3895(3) 0.3774(3)
H7 H 0.2435 0.4258 0.3614
C24 C -0.08661(15) 0.7619(3) 0.1954(3)
H8 H -0.0974 0.7218 0.2227
C25 C -0.11604(18) 0.8186(4) 0.1636(4)
H9 H -0.1467 0.8179 0.1678
C26 C -0.0992(2) 0.8783(4) 0.1242(5)
H10 H -0.1184 0.9194 0.1029
C27 C -0.05544(19) 0.8766(3) 0.1168(4)
H11 H -0.0438 0.9159 0.0898
C28 C -0.02846(16) 0.8163(3) 0.1497(3)
H12 H 0.0019 0.8144 0.1437
C29 C -0.06123(15) 0.6013(3) 0.1056(3)
H13 H -0.0496 0.6366 0.0733
C30 C -0.09394(18) 0.5534(3) 0.0641(3)
H14 H -0.1047 0.5548 0.0042
C31 C -0.1114(2) 0.5021(3) 0.1114(4)
H15 H -0.1347 0.4683 0.0844
C32 C -0.09464(19) 0.5011(3) 0.1974(3)
H16 H -0.1061 0.4665 0.2307
C33 C -0.06119(15) 0.5503(2) 0.2351(3)
H17 H -0.0494 0.5488 0.2947
H21 H 0.1160(11) 0.5495(19) 0.120(2)
H22 H 0.2399(13) 0.627(2) 0.249(2)
H23 H 0.1006(16) 0.364(3) 0.128(3)
H24 H 0.2809(15) 0.434(2) 0.158(3)
H25 H 0.029(2) 0.185(3) 0.062(4)
H26 H 0.1684(16) 0.191(2) 0.159(3)
H27 H 0.1314(13) 0.765(2) 0.141(2)
H28 H 0.031(4) 0.320(6) 0.094(7)
H29 H 0.1086(19) 0.112(3) 0.088(4)
H30 H 0.191(2) 0.341(3) 0.544(4)
H31 H 0.151(2) 0.259(3) 0.438(4)
S1F S -0.05740(3) 0.67745(5) 0.43351(6)
O1F O -0.05603(10) 0.74573(17) 0.4810(2)
O2F O -0.03414(9) 0.68338(19) 0.3672(2)
O3F O -0.04332(10) 0.61331(17) 0.4870(2)
O4F O -0.23842(9) 0.49648(15) 0.2657(2)
O5F O -0.17057(8) 0.44846(12) 0.32902(16)
O6F O -0.25742(8) 0.76402(13) 0.22374(16)
O7F O -0.20112(9) 0.84169(14) 0.2807(2)
C1F C -0.11561(11) 0.66274(18) 0.3797(2)
C2F C -0.13271(11) 0.59105(18) 0.3658(2)
C3F C -0.17749(11) 0.58008(17) 0.3198(2)
C4F C -0.20489(11) 0.64067(18) 0.2881(2)
C5F C -0.18762(11) 0.71228(18) 0.3013(2)
C6F C -0.14277(11) 0.72318(18) 0.3475(2)
C7F C -0.19749(12) 0.50307(19) 0.3031(2)
C8F C -0.21692(12) 0.77889(19) 0.2661(2)
H21F H -0.1160(11) 0.5495(19) 0.380(2)
H22F H -0.2399(13) 0.627(2) 0.251(2)
H27F H -0.1314(13) 0.765(2) 0.359(2)
N4F N 0.04329(11) 0.76011(19) 0.3103(2)
C24F C 0.08661(15) 0.7619(3) 0.3046(3)
H8F H 0.0974 0.7218 0.2773
C25F C 0.11604(18) 0.8186(4) 0.3364(4)
H9F H 0.1467 0.8179 0.3322
C26F C 0.0992(2) 0.8783(4) 0.3758(5)
H10F H 0.1184 0.9194 0.3971
C27F C 0.05544(19) 0.8766(3) 0.3832(4)
H11F H 0.0438 0.9159 0.4102
C28F C 0.02846(16) 0.8163(3) 0.3503(3)
H12F H -0.0019 0.8144 0.3563
N5F N 0.04444(10) 0.60122(18) 0.3099(2)
C29F C 0.06123(15) 0.6013(3) 0.3944(3)
H13F H 0.0496 0.6366 0.4267
C30F C 0.09394(18) 0.5534(3) 0.4359(3)
H14F H 0.1047 0.5548 0.4958
C31F C 0.1114(2) 0.5021(3) 0.3886(4)
H15F H 0.1347 0.4683 0.4156
C32F C 0.09464(19) 0.5011(3) 0.3026(3)
H16F H 0.1061 0.4665 0.2693
C33F C 0.06119(15) 0.5503(2) 0.2649(3)
H17F H 0.0494 0.5488 0.2053
Cu1F Cu -0.204019(13) 0.35303(2) 0.30495(3)
N1F N -0.22491(11) 0.36572(18) 0.4138(2)
C9F C -0.2018(3) 0.3360(4) 0.4868(4)
H1F H -0.1762 0.3051 0.4882
C10F C -0.2150(3) 0.3498(6) 0.5621(4)
H2F H -0.1984 0.3281 0.6138
C11F C -0.2521(2) 0.3951(5) 0.5605(4)
H3F H -0.2608 0.4060 0.6110
C12F C -0.27545(18) 0.4232(4) 0.4864(3)
H4F H -0.3015 0.4534 0.4836
C13F C -0.26150(16) 0.4083(3) 0.4127(3)
H24F H -0.2809(15) 0.434(2) 0.342(3)
N2F N -0.14018(11) 0.28642(17) 0.3611(2)
C14F C -0.14162(17) 0.2120(2) 0.3688(3)
C15F C -0.1022(2) 0.1697(3) 0.3965(4)
C16F C -0.06011(18) 0.2054(3) 0.4170(4)
C17F C -0.05882(15) 0.2797(3) 0.4083(3)
C18F C -0.09914(14) 0.3182(3) 0.3804(3)
H23F H -0.1006(16) 0.364(3) 0.372(3)
H25F H -0.029(2) 0.185(3) 0.438(4)
H26F H -0.1684(16) 0.191(2) 0.341(3)
H28F H -0.031(4) 0.320(6) 0.406(7)
H29F H -0.1086(19) 0.112(3) 0.412(4)
N3F N -0.19727(11) 0.34949(17) 0.1830(2)
C19F C -0.1710(2) 0.2988(4) 0.1576(4)
H5F H -0.1520 0.2679 0.1992
C20F C -0.1704(3) 0.2893(5) 0.0754(4)
C21F C -0.1983(3) 0.3305(4) 0.0146(4)
C22F C -0.2270(2) 0.3811(4) 0.0377(3)
H6F H -0.2478 0.4095 -0.0038
C23F C -0.2246(2) 0.3895(3) 0.1226(3)
H7F H -0.2435 0.4258 0.1386
H30F H -0.191(2) 0.341(3) -0.044(4)
H31F H -0.151(2) 0.259(3) 0.062(4)
O6G O 0.24258(8) 0.26402(13) 0.22374(16)
Cu1G Cu 0.295981(13) 0.85303(2) 0.30495(3)
Cu1A Cu -0.295981(13) 0.85303(2) 0.19505(3)
O6A O -0.24258(8) 0.26402(13) 0.27626(16)
O8 O 0.0520(6) 0.8982(9) 0.0547(11)
O10 O 0.3444(6) 0.4353(10) 0.4165(12)
O11 O 0.3380(6) 0.5477(10) 0.2201(13)
O18 O -0.03232(17) 0.5305(3) -0.0853(3)
N6 N 0.0000 0.3564(5) 0.2500
C34 C 0.0320(2) 0.3198(3) 0.3081(4)
H18 H 0.0545 0.3455 0.3495
C35 C 0.0308(3) 0.2445(4) 0.3052(4)
H19 H 0.0535 0.2177 0.3452
C36 C 0.0000 0.2074(5) 0.2500
H20 H 0.0000 0.1547 0.2500
C35F C -0.0308(3) 0.2445(4) 0.1948(4)
C34F C -0.0320(2) 0.3198(3) 0.1919(4)
H18F H -0.0545 0.3455 0.1505
H19F H -0.0535 0.2177 0.1548
O9? O -0.0028(7) 0.9852(10) -0.0313(11)
O12? O -0.1287(10) 1.0812(17) 0.167(2)
O13? O -0.0672(10) 1.0046(16) 0.2961(19)
O14? O -0.0807(10) 1.0544(15) 0.2129(18)
O15? O 0.3942(9) 0.4842(14) 0.3087(17)
O16? O 0.3526(8) 0.5023(12) 0.2753(14)
O17? O -0.0437(10) 1.0670(16) 0.176(2)
O19? O 0.0625(6) 0.8991(9) 0.0082(12)
O20? O 0.3230(9) 0.5534(14) 0.2836(17)
O21? O -0.1315(13) 1.082(2) 0.114(3)
O22? O 0.3363(7) 0.4141(12) 0.4554(14)
loop_
_geom_bond_atom_site_label_1
_geom_bond_atom_site_label_2
_geom_bond_site_symmetry_1
_geom_bond_site_symmetry_2
Cu1 O5 1_555 1_555
Cu2 O2 1_555 1_555
S1 O1 1_555 1_555
O2 S1 1_555 1_555
O3 S1 1_555 1_555
O4 C7 1_555 1_555
O5 C7 1_555 1_555
O6 C8 1_555 1_555
O7 C8 1_555 1_555
N1 Cu1 1_555 1_555
N2 Cu1 1_555 1_555
N3 Cu1 1_555 1_555
N4 Cu2 1_555 1_555
N5 Cu2 1_555 1_555
N6 C34 1_555 1_555
C1 S1 1_555 1_555
C2 C1 1_555 1_555
C3 C2 1_555 1_555
C4 C3 1_555 1_555
C5 C4 1_555 1_555
C6 C1 1_555 1_555
C7 C3 1_555 1_555
C8 C5 1_555 1_555
C9 N1 1_555 1_555
H1 C9 1_555 1_555
C10 C9 1_555 1_555
H2 C10 1_555 1_555
C11 C10 1_555 1_555
H3 C11 1_555 1_555
C12 C11 1_555 1_555
H4 C12 1_555 1_555
C13 N1 1_555 1_555
C14 N2 1_555 1_555
C15 C14 1_555 1_555
C16 C15 1_555 1_555
C17 C16 1_555 1_555
C18 N2 1_555 1_555
C19 N3 1_555 1_555
H5 C19 1_555 1_555
C20 C19 1_555 1_555
C21 C20 1_555 1_555
C22 C21 1_555 1_555
H6 C22 1_555 1_555
C23 N3 1_555 1_555
H7 C23 1_555 1_555
C24 N4 1_555 1_555
H8 C24 1_555 1_555
C25 C24 1_555 1_555
H9 C25 1_555 1_555
C26 C25 1_555 1_555
H10 C26 1_555 1_555
C27 C26 1_555 1_555
H11 C27 1_555 1_555
C28 N4 1_555 1_555
H12 C28 1_555 1_555
C29 N5 1_555 1_555
H13 C29 1_555 1_555
C30 C29 1_555 1_555
H14 C30 1_555 1_555
C31 C30 1_555 1_555
H15 C31 1_555 1_555
C32 C31 1_555 1_555
H16 C32 1_555 1_555
C33 N5 1_555 1_555
H17 C33 1_555 1_555
C34 H18 1_555 1_555
C35 C34 1_555 1_555
H19 C35 1_555 1_555
C36 C35 1_555 1_555
H20 C36 1_555 1_555
H21 C2 1_555 1_555
H22 C4 1_555 1_555
H23 C18 1_555 1_555
H24 C13 1_555 1_555
H25 C16 1_555 1_555
H26 C14 1_555 1_555
H27 C6 1_555 1_555
H28 C17 1_555 1_555
H29 C15 1_555 1_555
H30 C21 1_555 1_555
H31 C20 1_555 1_555
C35F C36 1_555 1_555
C34F N6 1_555 1_555
H18F C34F 1_555 1_555
H19F C35F 1_555 1_555
S1F O1F 1_555 1_555
O2F Cu2 1_555 1_555
O3F S1F 1_555 1_555
O4F C7F 1_555 1_555
O5F C7F 1_555 1_555
O6F C8F 1_555 1_555
O7F C8F 1_555 1_555
C1F S1F 1_555 1_555
C2F C1F 1_555 1_555
C3F C2F 1_555 1_555
C4F C3F 1_555 1_555
C5F C4F 1_555 1_555
C6F C1F 1_555 1_555
C7F C3F 1_555 1_555
C8F C5F 1_555 1_555
H21F C2F 1_555 1_555
H22F C4F 1_555 1_555
H27F C6F 1_555 1_555
N4F Cu2 1_555 1_555
C24F N4F 1_555 1_555
H8F C24F 1_555 1_555
C25F C24F 1_555 1_555
H9F C25F 1_555 1_555
C26F C25F 1_555 1_555
H10F C26F 1_555 1_555
C27F C26F 1_555 1_555
H11F C27F 1_555 1_555
C28F N4F 1_555 1_555
H12F C28F 1_555 1_555
N5F Cu2 1_555 1_555
C29F N5F 1_555 1_555
H13F C29F 1_555 1_555
C30F C29F 1_555 1_555
H14F C30F 1_555 1_555
C31F C30F 1_555 1_555
H15F C31F 1_555 1_555
C32F C31F 1_555 1_555
H16F C32F 1_555 1_555
C33F N5F 1_555 1_555
H17F C33F 1_555 1_555
Cu1F O5F 1_555 1_555
N1F Cu1F 1_555 1_555
C9F N1F 1_555 1_555
H1F C9F 1_555 1_555
C10F C9F 1_555 1_555
H2F C10F 1_555 1_555
C11F C10F 1_555 1_555
H3F C11F 1_555 1_555
C12F C11F 1_555 1_555
H4F C12F 1_555 1_555
C13F N1F 1_555 1_555
H24F C13F 1_555 1_555
N2F Cu1F 1_555 1_555
C14F N2F 1_555 1_555
C15F C14F 1_555 1_555
C16F C15F 1_555 1_555
C17F C16F 1_555 1_555
C18F N2F 1_555 1_555
H23F C18F 1_555 1_555
H25F C16F 1_555 1_555
H26F C14F 1_555 1_555
H28F C17F 1_555 1_555
H29F C15F 1_555 1_555
N3F Cu1F 1_555 1_555
C19F N3F 1_555 1_555
H5F C19F 1_555 1_555
C20F C19F 1_555 1_555
C21F C20F 1_555 1_555
C22F C21F 1_555 1_555
H6F C22F 1_555 1_555
C23F N3F 1_555 1_555
H7F C23F 1_555 1_555
H30F C21F 1_555 1_555
H31F C20F 1_555 1_555
O6G Cu1 1_555 1_555
Cu1G O6 1_555 1_555
Cu1A O6F 1_555 1_555
O6A Cu1F 1_555 1_555
C5 C6 1_555 1_555
C12 C13 1_555 1_555
C17 C18 1_555 1_555
C22 C23 1_555 1_555
C27 C28 1_555 1_555
C32 C33 1_555 1_555
C35F C34F 1_555 1_555
S1F O2F 1_555 1_555
C5F C6F 1_555 1_555
C27F C28F 1_555 1_555
C32F C33F 1_555 1_555
C12F C13F 1_555 1_555
C17F C18F 1_555 1_555
C22F C23F 1_555 1_555

#END
