
#######################################################################
#
#                 Cambridge Crystallographic Data Centre
#                                CCDC 
#
#######################################################################
#
# If this CIF has been generated from an entry in the Cambridge 
# Structural Database, then it will include bibliographic, chemical, 
# crystal, experimental, refinement or atomic coordinate data resulting 
# from the CCDC's data processing and validation procedures.
#
#######################################################################

data_ADUSOI
_symmetry_cell_setting           triclinic
_symmetry_space_group_name_H-M   'P -1'
_symmetry_Int_Tables_number      2
_space_group_name_Hall           '-P 1'
loop_
_symmetry_equiv_pos_site_id
_symmetry_equiv_pos_as_xyz
1 x,y,z
2 -x,-y,-z
_cell_length_a                   9.981(5)
_cell_length_b                   10.436(5)
_cell_length_c                   21.104(10)
_cell_angle_alpha                94.640(7)
_cell_angle_beta                 103.160(7)
_cell_angle_gamma                92.958(8)
_cell_volume                     2127.92
loop_
_atom_site_label
_atom_site_type_symbol
_atom_site_fract_x
_atom_site_fract_y
_atom_site_fract_z
Cd1 Cd -0.33789(3) -0.07727(3) 0.037640(12)
C1 C -0.1981(4) -0.0907(3) 0.18913(17)
C2 C -0.0902(4) 0.1466(4) 0.09326(18)
H1 H -0.1134 0.1668 0.0502
C3 C 0.0144(4) 0.2218(4) 0.13690(18)
H2 H 0.0594 0.2901 0.1225
C5 C -0.3780(4) -0.2435(4) 0.15857(19)
H4 H -0.4527 -0.2825 0.1269
C7 C 0.3487(5) 0.4605(4) 0.3329(2)
H6 H 0.4133 0.5191 0.3609
C9 C -0.0161(4) 0.0872(4) 0.22009(17)
C11 C -0.2095(4) -0.2853(4) 0.33424(18)
C12 C -0.1635(4) -0.1294(4) 0.25364(17)
C13 C -0.3525(4) -0.2881(4) 0.22068(18)
H8 H -0.4096 -0.3542 0.2295
C17 C -0.0523(4) -0.0586(4) 0.29970(18)
H10 H -0.0276 -0.0834 0.3419
C19 C 0.0185(4) 0.0432(4) 0.28429(18)
H12 H 0.0911 0.0858 0.3158
C21 C 0.0531(4) 0.1966(4) 0.20169(17)
C25 C -0.2425(4) -0.2333(4) 0.26847(17)
C27 C 0.2744(4) 0.3299(4) 0.23042(19)
H14 H 0.2896 0.3018 0.1898
C28 C -0.0770(4) -0.3187(4) 0.36189(19)
H15 H -0.0073 -0.3073 0.3398
C29 C 0.1361(4) 0.3301(4) 0.30966(18)
H16 H 0.0571 0.3016 0.3222
C31 C 0.1570(4) 0.2847(4) 0.24839(17)
C32 C 0.3688(4) 0.4164(4) 0.2725(2)
H17 H 0.4476 0.4458 0.2600
C34 C -0.1208(4) 0.0166(4) 0.17252(17)
C35 C -0.3130(4) -0.3039(4) 0.36761(19)
H19 H -0.4020 -0.2825 0.3495
C43 C -0.2844(5) -0.3543(4) 0.4277(2)
H25 H -0.3542 -0.3668 0.4497
C44 C -0.0480(5) -0.3684(4) 0.4217(2)
H26 H 0.0409 -0.3902 0.4398
C48 C -0.1514(5) -0.3859(4) 0.45491(19)
H30 H -0.1318 -0.4189 0.4954
C49 C 0.2318(5) 0.4166(4) 0.35128(19)
H31 H 0.2174 0.4454 0.3919
N3 N -0.3035(3) -0.1507(3) 0.14217(14)
N4 N -0.1589(3) 0.0478(3) 0.10952(14)
Cl1 Cl -0.59689(10) -0.13624(10) 0.01397(4)
Cl2 Cl -0.26146(11) -0.22555(11) -0.03947(5)
Cd1A Cd -0.66211(3) 0.07727(3) -0.037640(12)
C1A C -0.8019(4) 0.0907(3) -0.18913(17)
C2A C -0.9098(4) -0.1466(4) -0.09326(18)
H1A H -0.8866 -0.1668 -0.0502
C3A C -1.0144(4) -0.2218(4) -0.13690(18)
H2A H -1.0594 -0.2901 -0.1225
C5A C -0.6220(4) 0.2435(4) -0.15857(19)
H4A H -0.5473 0.2825 -0.1269
C7A C -1.3487(5) -0.4605(4) -0.3329(2)
H6A H -1.4133 -0.5191 -0.3609
C9A C -0.9839(4) -0.0872(4) -0.22009(17)
C11A C -0.7905(4) 0.2853(4) -0.33424(18)
C12A C -0.8365(4) 0.1294(4) -0.25364(17)
C13A C -0.6475(4) 0.2881(4) -0.22068(18)
H8A H -0.5904 0.3542 -0.2295
C17A C -0.9477(4) 0.0586(4) -0.29970(18)
H10A H -0.9724 0.0834 -0.3419
C19A C -1.0185(4) -0.0432(4) -0.28429(18)
H12A H -1.0911 -0.0858 -0.3158
C21A C -1.0531(4) -0.1966(4) -0.20169(17)
C25A C -0.7575(4) 0.2333(4) -0.26847(17)
C27A C -1.2744(4) -0.3299(4) -0.23042(19)
H14A H -1.2896 -0.3018 -0.1898
C28A C -0.9230(4) 0.3187(4) -0.36189(19)
H15A H -0.9927 0.3073 -0.3398
C29A C -1.1361(4) -0.3301(4) -0.30966(18)
H16A H -1.0571 -0.3016 -0.3222
C31A C -1.1570(4) -0.2847(4) -0.24839(17)
C32A C -1.3688(4) -0.4164(4) -0.2725(2)
H17A H -1.4476 -0.4458 -0.2600
C34A C -0.8792(4) -0.0166(4) -0.17252(17)
C35A C -0.6870(4) 0.3039(4) -0.36761(19)
H19A H -0.5980 0.2825 -0.3495
C43A C -0.7156(5) 0.3543(4) -0.4277(2)
H25A H -0.6458 0.3668 -0.4497
C44A C -0.9520(5) 0.3684(4) -0.4217(2)
H26A H -1.0409 0.3902 -0.4398
C48A C -0.8486(5) 0.3859(4) -0.45491(19)
H30A H -0.8682 0.4189 -0.4954
C49A C -1.2318(5) -0.4166(4) -0.35128(19)
H31A H -1.2174 -0.4454 -0.3919
N3A N -0.6965(3) 0.1507(3) -0.14217(14)
N4A N -0.8411(3) -0.0478(3) -0.10952(14)
Cl1A Cl -0.40311(10) 0.13624(10) -0.01397(4)
Cl2A Cl -0.73854(11) 0.22555(11) 0.03947(5)
Cd2 Cd -0.48748(3) 0.13910(3) 0.447230(11)
C4 C -0.2700(4) 0.3623(4) 0.31402(17)
H3 H -0.2090 0.4352 0.3208
C6 C -0.8151(6) -0.4069(4) 0.0950(2)
H5 H -0.8013 -0.4927 0.0844
C8 C -0.5960(4) -0.0324(3) 0.23465(16)
C10 C -0.6391(4) -0.1105(4) 0.34992(18)
H7 H -0.6535 -0.1382 0.3888
C14 C -0.3251(4) 0.3052(4) 0.25068(17)
C15 C -0.7416(5) -0.3424(4) 0.1536(2)
H9 H -0.6793 -0.3856 0.1826
C16 C -0.6846(4) -0.1440(4) 0.23241(17)
C18 C -0.4700(4) 0.1149(4) 0.18262(17)
H11 H -0.4454 0.1381 0.1449
C20 C -0.7374(4) 0.0794(4) 0.47565(16)
C22 C -0.7027(4) -0.1851(4) 0.29094(17)
H13 H -0.7559 -0.2607 0.2913
C23 C -0.5354(4) 0.0345(4) 0.29646(16)
C24 C -0.4439(4) 0.1470(3) 0.30080(16)
C26 C -0.4115(4) 0.1910(3) 0.24369(16)
C30 C -0.8721(4) 0.0381(4) 0.48851(16)
C33 C -0.8838(4) -0.0570(4) 0.52982(18)
H18 H -0.8055 -0.0957 0.5500
C36 C -0.5591(4) 0.0114(4) 0.17824(17)
H20 H -0.5974 -0.0325 0.1375
C37 C -0.7604(4) -0.2147(4) 0.16925(17)
C38 C -0.9300(5) -0.2155(5) 0.06849(19)
H21 H -0.9948 -0.1734 0.0402
C39 C -1.0094(4) -0.0945(4) 0.54119(18)
H22 H -0.9847 0.1582 0.4310
C40 C -0.2989(4) 0.3721(4) 0.19449(17)
C41 C -0.4014(5) 0.3806(4) 0.13799(18)
H23 H -0.4889 0.3407 0.1340
C42 C -0.3064(4) 0.3103(4) 0.36712(17)
H24 H -0.2670 0.3497 0.4088
C45 C -0.1708(4) 0.4369(4) 0.1992(2)
H27 H -0.1013 0.4345 0.2368
C46 C -0.8559(4) -0.1516(4) 0.12557(18)
H28 H -0.8690 -0.0654 0.1355
C47 C -0.9089(5) -0.3429(5) 0.0526(2)
H29 H -0.9582 -0.3855 0.0131
C50 C -0.1456(5) 0.5048(4) 0.1489(2)
H32 H -0.0595 0.5475 0.1529
C51 C -0.3739(6) 0.4481(4) 0.0876(2)
H33 H -0.4429 0.4514 0.0500
C52 C -0.2476(6) 0.5094(5) 0.0925(2)
H34 H -0.2302 0.5537 0.0584
N1 N -0.3929(3) 0.2090(3) 0.36140(14)
N2 N -0.5607(3) -0.0041(3) 0.35293(14)
O1 O -0.6283(3) 0.0332(3) 0.50695(12)
O2 O -0.7305(3) 0.1574(3) 0.43427(12)
Cl3 Cl -0.36262(12) 0.31832(10) 0.52322(5)
Cd2A Cd -0.51252(3) -0.13910(3) 0.552770(11)
Cd2_2 Cd -1.48748(3) 0.13910(3) 0.447230(11)
Cd2A_2 Cd -1.51252(3) -0.13910(3) 0.552770(11)
C4A C -1.7300(4) -0.3623(4) 0.68598(17)
H3A H -1.7910 -0.4352 0.6792
C6A C -1.1849(6) 0.4069(4) 0.9050(2)
H5A H -1.1987 0.4927 0.9156
C8A C -1.4040(4) 0.0324(3) 0.76535(16)
C10A C -1.3609(4) 0.1105(4) 0.65008(18)
H7A H -1.3465 0.1382 0.6112
C14A C -1.6749(4) -0.3052(4) 0.74932(17)
C15A C -1.2584(5) 0.3424(4) 0.8464(2)
H9A H -1.3207 0.3856 0.8174
C16A C -1.3154(4) 0.1440(4) 0.76759(17)
C18A C -1.5300(4) -0.1149(4) 0.81738(17)
H11A H -1.5546 -0.1381 0.8551
C20A C -1.2626(4) -0.0794(4) 0.52435(16)
C22A C -1.2973(4) 0.1851(4) 0.70906(17)
H13A H -1.2441 0.2607 0.7087
C23A C -1.4646(4) -0.0345(4) 0.70354(16)
C24A C -1.5561(4) -0.1470(3) 0.69920(16)
C26A C -1.5885(4) -0.1910(3) 0.75631(16)
C30A C -1.1279(4) -0.0381(4) 0.51149(16)
C33A C -1.1162(4) 0.0570(4) 0.47018(18)
H18A H -1.1945 0.0957 0.4500
C36A C -1.4409(4) -0.0114(4) 0.82176(17)
H20A H -1.4026 0.0325 0.8625
C37A C -1.2396(4) 0.2147(4) 0.83075(17)
C38A C -1.0700(5) 0.2155(5) 0.93151(19)
H21A H -1.0052 0.1734 0.9598
C39A C -0.9906(4) 0.0945(4) 0.45881(18)
H22A H -1.0153 -0.1582 0.5690
C40A C -1.7011(4) -0.3721(4) 0.80551(17)
C41A C -1.5986(5) -0.3806(4) 0.86201(18)
H23A H -1.5111 -0.3407 0.8660
C42A C -1.6936(4) -0.3103(4) 0.63288(17)
H24A H -1.7330 -0.3497 0.5912
C45A C -1.8292(4) -0.4369(4) 0.8008(2)
H27A H -1.8987 -0.4345 0.7632
C46A C -1.1441(4) 0.1516(4) 0.87443(18)
H28A H -1.1310 0.0654 0.8645
C47A C -1.0911(5) 0.3429(5) 0.9474(2)
H29A H -1.0418 0.3855 0.9869
C50A C -1.8544(5) -0.5048(4) 0.8511(2)
H32A H -1.9405 -0.5475 0.8471
C51A C -1.6261(6) -0.4481(4) 0.9124(2)
H33A H -1.5571 -0.4514 0.9500
C52A C -1.7524(6) -0.5094(5) 0.9075(2)
H34A H -1.7698 -0.5537 0.9416
N1A N -1.6071(3) -0.2090(3) 0.63860(14)
N2A N -1.4393(3) 0.0041(3) 0.64707(14)
O1A O -0.3717(3) -0.0332(3) 0.49305(12)
O1A_2 O -1.3717(3) -0.0332(3) 0.49305(12)
O1_2 O -1.6283(3) 0.0332(3) 0.50695(12)
O2A O -1.2695(3) -0.1574(3) 0.56573(12)
Cl3A Cl -1.63738(12) -0.31832(10) 0.47678(5)
loop_
_geom_bond_atom_site_label_1
_geom_bond_atom_site_label_2
_geom_bond_site_symmetry_1
_geom_bond_site_symmetry_2
Cd1 N3 1_555 1_555
Cd2 N1 1_555 1_555
C1 C12 1_555 1_555
C2 H1 1_555 1_555
C3 C2 1_555 1_555
H2 C3 1_555 1_555
C4 H3 1_555 1_555
C5 H4 1_555 1_555
C6 H5 1_555 1_555
C7 H6 1_555 1_555
C8 C16 1_555 1_555
C9 C19 1_555 1_555
C10 H7 1_555 1_555
C11 C25 1_555 1_555
C12 C17 1_555 1_555
C13 C5 1_555 1_555
H8 C13 1_555 1_555
C14 C4 1_555 1_555
C15 C6 1_555 1_555
H9 C15 1_555 1_555
C16 C22 1_555 1_555
C17 H10 1_555 1_555
C18 H11 1_555 1_555
C19 C17 1_555 1_555
H12 C19 1_555 1_555
C20 C30 1_555 1_555
C21 C3 1_555 1_555
C22 C10 1_555 1_555
H13 C22 1_555 1_555
C23 C8 1_555 1_555
C24 C23 1_555 1_555
C25 C12 1_555 1_555
C26 C14 1_555 1_555
C27 H14 1_555 1_555
C28 C11 1_555 1_555
H15 C28 1_555 1_555
C29 H16 1_555 1_555
C30 C33 1_555 1_555
C31 C21 1_555 1_555
C32 C7 1_555 1_555
H17 C32 1_555 1_555
C33 H18 1_555 1_555
C34 C1 1_555 1_555
C35 C11 1_555 1_555
H19 C35 1_555 1_555
C36 C8 1_555 1_555
H20 C36 1_555 1_555
C37 C15 1_555 1_555
C38 H21 1_555 1_555
C39 C33 1_555 1_555
H22 C39A 1_555 1_555
C40 C14 1_555 1_555
C41 C40 1_555 1_555
H23 C41 1_555 1_555
C42 C4 1_555 1_555
H24 C42 1_555 1_555
C43 C35 1_555 1_555
H25 C43 1_555 1_555
C44 C28 1_555 1_555
H26 C44 1_555 1_555
C45 C40 1_555 1_555
H27 C45 1_555 1_555
C46 C37 1_555 1_555
H28 C46 1_555 1_555
C47 C6 1_555 1_555
H29 C47 1_555 1_555
C48 C43 1_555 1_555
H30 C48 1_555 1_555
C49 C7 1_555 1_555
H31 C49 1_555 1_555
C50 C45 1_555 1_555
H32 C50 1_555 1_555
C51 C41 1_555 1_555
H33 C51 1_555 1_555
C52 C50 1_555 1_555
H34 C52 1_555 1_555
N1 C24 1_555 1_555
N2 Cd2 1_555 1_555
N3 C1 1_555 1_555
N4 Cd1 1_555 1_555
O1 Cd2 1_555 1_555
O2 Cd2 1_555 1_555
Cl1 Cd1 1_555 1_555
Cl2 Cd1 1_555 1_555
Cl3 Cd2 1_555 1_555
Cd1A Cl1 1_555 1_555
Cd2A O1 1_555 1_555
Cd2_2 O1A_2 1_555 1_555
Cd2A_2 N1A 1_555 1_555
C1A C12A 1_555 1_555
C2A H1A 1_555 1_555
C3A C2A 1_555 1_555
H2A C3A 1_555 1_555
C4A H3A 1_555 1_555
C5A H4A 1_555 1_555
C6A H5A 1_555 1_555
C7A H6A 1_555 1_555
C8A C16A 1_555 1_555
C9A C19A 1_555 1_555
C10A H7A 1_555 1_555
C11A C25A 1_555 1_555
C12A C17A 1_555 1_555
C13A C5A 1_555 1_555
H8A C13A 1_555 1_555
C14A C4A 1_555 1_555
C15A C6A 1_555 1_555
H9A C15A 1_555 1_555
C16A C22A 1_555 1_555
C17A H10A 1_555 1_555
C18A H11A 1_555 1_555
C19A C17A 1_555 1_555
H12A C19A 1_555 1_555
C20A C30A 1_555 1_555
C21A C3A 1_555 1_555
C22A C10A 1_555 1_555
H13A C22A 1_555 1_555
C23A C8A 1_555 1_555
C24A C23A 1_555 1_555
C25A C12A 1_555 1_555
C26A C14A 1_555 1_555
C27A H14A 1_555 1_555
C28A C11A 1_555 1_555
H15A C28A 1_555 1_555
C29A H16A 1_555 1_555
C30A C39 1_555 1_555
C31A C21A 1_555 1_555
C32A C7A 1_555 1_555
H17A C32A 1_555 1_555
C33A C30A 1_555 1_555
H18A C33A 1_555 1_555
C34A C1A 1_555 1_555
C35A C11A 1_555 1_555
H19A C35A 1_555 1_555
C36A C8A 1_555 1_555
H20A C36A 1_555 1_555
C37A C15A 1_555 1_555
C38A H21A 1_555 1_555
C39A C30 1_555 1_555
H22A C39 1_555 1_555
C40A C14A 1_555 1_555
C41A C40A 1_555 1_555
H23A C41A 1_555 1_555
C42A C4A 1_555 1_555
H24A C42A 1_555 1_555
C43A C35A 1_555 1_555
H25A C43A 1_555 1_555
C44A C28A 1_555 1_555
H26A C44A 1_555 1_555
C45A C40A 1_555 1_555
H27A C45A 1_555 1_555
C46A C37A 1_555 1_555
H28A C46A 1_555 1_555
C47A C6A 1_555 1_555
H29A C47A 1_555 1_555
C48A C43A 1_555 1_555
H30A C48A 1_555 1_555
C49A C7A 1_555 1_555
H31A C49A 1_555 1_555
C50A C45A 1_555 1_555
H32A C50A 1_555 1_555
C51A C41A 1_555 1_555
H33A C51A 1_555 1_555
C52A C50A 1_555 1_555
H34A C52A 1_555 1_555
N1A C24A 1_555 1_555
N2A Cd2A_2 1_555 1_555
N3A Cd1A 1_555 1_555
N4A Cd1A 1_555 1_555
O1A Cd2 1_555 1_555
O1A_2 Cd2A_2 1_555 1_555
O1_2 Cd2_2 1_555 1_555
O2A Cd2A_2 1_555 1_555
Cl1A Cd1 1_555 1_555
Cl2A Cd1A 1_555 1_555
Cl3A Cd2A_2 1_555 1_555
C2 N4 1_555 1_555
C5 N3 1_555 1_555
C9 C21 1_555 1_555
C9 C34 1_555 1_555
C10 N2 1_555 1_555
C13 C25 1_555 1_555
C16 C37 1_555 1_555
C18 C26 1_555 1_555
C18 C36 1_555 1_555
C20 O1 1_555 1_555
C20 O2 1_555 1_555
C23 N2 1_555 1_555
C24 C26 1_555 1_555
C27 C31 1_555 1_555
C27 C32 1_555 1_555
C29 C31 1_555 1_555
C29 C49 1_555 1_555
C34 N4 1_555 1_555
C38 C46 1_555 1_555
C38 C47 1_555 1_555
C42 N1 1_555 1_555
C44 C48 1_555 1_555
C51 C52 1_555 1_555
Cd1A Cl1A 1_555 1_555
Cd2A O1A 1_555 1_555
Cd2A_2 O1_2 1_555 1_555
C1A N3A 1_555 1_555
C2A N4A 1_555 1_555
C5A N3A 1_555 1_555
C9A C21A 1_555 1_555
C9A C34A 1_555 1_555
C10A N2A 1_555 1_555
C13A C25A 1_555 1_555
C16A C37A 1_555 1_555
C18A C26A 1_555 1_555
C18A C36A 1_555 1_555
C20A O1A_2 1_555 1_555
C20A O2A 1_555 1_555
C23A N2A 1_555 1_555
C24A C26A 1_555 1_555
C27A C31A 1_555 1_555
C27A C32A 1_555 1_555
C29A C31A 1_555 1_555
C29A C49A 1_555 1_555
C33A C39A 1_555 1_555
C34A N4A 1_555 1_555
C38A C46A 1_555 1_555
C38A C47A 1_555 1_555
C42A N1A 1_555 1_555
C44A C48A 1_555 1_555
C51A C52A 1_555 1_555

#END
