
#######################################################################
#
#                 Cambridge Crystallographic Data Centre
#                                CCDC 
#
#######################################################################
#
# If this CIF has been generated from an entry in the Cambridge 
# Structural Database, then it will include bibliographic, chemical, 
# crystal, experimental, refinement or atomic coordinate data resulting 
# from the CCDC's data processing and validation procedures.
#
#######################################################################

data_ADUTID03
_symmetry_cell_setting           orthorhombic
_symmetry_space_group_name_H-M   'P b c a'
_symmetry_Int_Tables_number      61
_space_group_name_Hall           '-P 2ac 2ab'
loop_
_symmetry_equiv_pos_site_id
_symmetry_equiv_pos_as_xyz
1 x,y,z
2 1/2-x,-y,1/2+z
3 -x,1/2+y,1/2-z
4 1/2+x,1/2-y,-z
5 -x,-y,-z
6 1/2+x,y,1/2-z
7 x,1/2-y,1/2+z
8 1/2-x,1/2+y,z
_cell_length_a                   9.3873(7)
_cell_length_b                   10.0992(8)
_cell_length_c                   11.7025(9)
_cell_angle_alpha                90
_cell_angle_beta                 90
_cell_angle_gamma                90
_cell_volume                     1109.45
loop_
_atom_site_label
_atom_site_type_symbol
_atom_site_fract_x
_atom_site_fract_y
_atom_site_fract_z
C1 C 0.2450(5) 0.3648(4) 0.3847(4)
H1 H 0.1922 0.3948 0.3227
N1 N 0.4004(4) 0.3540(4) 0.5200(3)
C2 C 0.3234(4) 0.2453(4) 0.5176(4)
Zn1 Zn 0.07786(5) 0.11144(5) 0.38923(4)
N2 N 0.2240(4) 0.2466(3) 0.4352(3)
N3 N 0.3479(4) 0.4329(4) 0.4323(3)
Cl1 Cl 0.03681(19) 0.13728(18) 0.20384(12)
N4 N 0.3401(7) 0.1420(6) 0.5915(5)
H2 H 0.4044 0.1455 0.6437
H3 H 0.2864 0.0733 0.5857
N1C N -0.0996(4) 0.1460(4) 0.4800(3)
Zn1C Zn 0.57786(5) 0.38856(5) 0.61077(4)
Zn1G Zn 0.42214(5) 0.61144(5) 0.38923(4)
N3G N 0.1521(4) -0.0671(4) 0.4323(3)
loop_
_geom_bond_atom_site_label_1
_geom_bond_atom_site_label_2
_geom_bond_site_symmetry_1
_geom_bond_site_symmetry_2
C1 H1 1_555 1_555
N1 C2 1_555 1_555
C2 N2 1_555 1_555
Zn1 N2 1_555 1_555
N2 C1 1_555 1_555
N3 C1 1_555 1_555
Cl1 Zn1 1_555 1_555
N4 C2 1_555 1_555
H2 N4 1_555 1_555
H3 N4 1_555 1_555
N1C Zn1 1_555 1_555
Zn1C N1 1_555 1_555
Zn1G N3 1_555 1_555
N3G Zn1 1_555 1_555
N1 N3 1_555 1_555

#END
