
#######################################################################
#
#                 Cambridge Crystallographic Data Centre
#                                CCDC 
#
#######################################################################
#
# If this CIF has been generated from an entry in the Cambridge 
# Structural Database, then it will include bibliographic, chemical, 
# crystal, experimental, refinement or atomic coordinate data resulting 
# from the CCDC's data processing and validation procedures.
#
#######################################################################

data_ADUTAV01
_symmetry_cell_setting           orthorhombic
_symmetry_space_group_name_H-M   'P b c n'
_symmetry_Int_Tables_number      60
_space_group_name_Hall           '-P 2n 2ab'
loop_
_symmetry_equiv_pos_site_id
_symmetry_equiv_pos_as_xyz
1 x,y,z
2 1/2-x,1/2-y,1/2+z
3 1/2+x,1/2-y,-z
4 -x,y,1/2-z
5 -x,-y,-z
6 1/2+x,1/2+y,1/2-z
7 1/2-x,1/2+y,z
8 x,-y,1/2+z
_cell_length_a                   18.704(2)
_cell_length_b                   11.6908(13)
_cell_length_c                   9.4873(10)
_cell_angle_alpha                90
_cell_angle_beta                 90
_cell_angle_gamma                90
_cell_volume                     2074.54
loop_
_atom_site_label
_atom_site_type_symbol
_atom_site_fract_x
_atom_site_fract_y
_atom_site_fract_z
Mn1 Mn 0.0000 0.45168(4) 0.7500
O1 O -0.08447(11) 0.44040(16) 0.8997(2)
O2 O -0.08368(12) 0.55122(16) 1.0902(2)
N1 N 0.0000 0.2552(3) 0.7500
N2 N 0.0000 -0.3521(3) 0.7500
C1 C -0.11047(14) 0.4762(2) 1.0120(3)
C2 C 0.0000 -0.1121(4) 0.7500
C3 C -0.18157(15) 0.4246(3) 1.0538(3)
C4 C -0.03248(16) 0.0767(2) 0.8576(3)
H1 H -0.0555 0.0388 0.9309
C5 C -0.03018(17) 0.1951(2) 0.8544(3)
H2 H -0.0507 0.2350 0.9289
C6 C 0.0000 0.0151(3) 0.7500
C7 C -0.05911(17) -0.1739(3) 0.7945(4)
H3 H -0.1001 -0.1363 0.8249
C8 C -0.20912(17) 0.3324(3) 0.9809(4)
H4 H -0.1843 0.3031 0.9041
C9 C -0.05647(18) -0.2923(3) 0.7930(4)
H5 H -0.0965 -0.3324 0.8239
C10 C -0.21928(19) 0.4673(3) 1.1685(4)
H6 H -0.2012 0.5286 1.2198
C11 C -0.3107(2) 0.3272(5) 1.1323(5)
H7 H -0.3543 0.2951 1.1578
C12 C -0.2732(2) 0.2834(4) 1.0210(5)
H8 H -0.2909 0.2205 0.9722
C13 C -0.2842(2) 0.4179(5) 1.2060(6)
H9 H -0.3097 0.4471 1.2821
Mn1_2 Mn 0.0000 -0.54832(4) 0.7500
Mn1D Mn 0.0000 0.54832(4) 0.2500
Mn1D_2 Mn 0.0000 0.54832(4) 1.2500
O1C O 0.08447(11) 0.44040(16) 0.6003(2)
O2C O 0.08368(12) 0.55122(16) 0.4098(2)
O2D O 0.08368(12) 0.44878(16) 0.9098(2)
O2G O -0.08368(12) 0.44878(16) 0.5902(2)
N2_2 N 0.0000 0.6479(3) 0.7500
C1C C 0.11047(14) 0.4762(2) 0.4880(3)
C3C C 0.18157(15) 0.4246(3) 0.4462(3)
C4C C 0.03248(16) 0.0767(2) 0.6424(3)
H1C H 0.0555 0.0388 0.5691
C5C C 0.03018(17) 0.1951(2) 0.6456(3)
H2C H 0.0507 0.2350 0.5711
C7C C 0.05911(17) -0.1739(3) 0.7055(4)
H3C H 0.1001 -0.1363 0.6751
C8C C 0.20912(17) 0.3324(3) 0.5191(4)
H4C H 0.1843 0.3031 0.5959
C9C C 0.05647(18) -0.2923(3) 0.7070(4)
H5C H 0.0965 -0.3324 0.6761
C10C C 0.21928(19) 0.4673(3) 0.3315(4)
H6C H 0.2012 0.5286 0.2802
C11C C 0.3107(2) 0.3272(5) 0.3677(5)
H7C H 0.3543 0.2951 0.3422
C12C C 0.2732(2) 0.2834(4) 0.4790(5)
H8C H 0.2909 0.2205 0.5278
C13C C 0.2842(2) 0.4179(5) 0.2940(6)
H9C H 0.3097 0.4471 0.2179
loop_
_geom_bond_atom_site_label_1
_geom_bond_atom_site_label_2
_geom_bond_site_symmetry_1
_geom_bond_site_symmetry_2
Mn1 O1 1_555 1_555
O1 C1 1_555 1_555
O2 C1 1_555 1_555
N1 Mn1 1_555 1_555
N2 C9 1_555 1_555
C1 C3 1_555 1_555
C2 C6 1_555 1_555
C3 C8 1_555 1_555
C4 H1 1_555 1_555
C5 N1 1_555 1_555
H2 C5 1_555 1_555
C6 C4 1_555 1_555
C7 C2 1_555 1_555
H3 C7 1_555 1_555
C8 H4 1_555 1_555
C9 C7 1_555 1_555
H5 C9 1_555 1_555
C10 C3 1_555 1_555
H6 C10 1_555 1_555
C11 H7 1_555 1_555
C12 C8 1_555 1_555
H8 C12 1_555 1_555
C13 C10 1_555 1_555
H9 C13 1_555 1_555
Mn1_2 N2 1_555 1_555
Mn1D O2C 1_555 1_555
Mn1D_2 O2 1_555 1_555
O1C Mn1 1_555 1_555
O2C C1C 1_555 1_555
O2D Mn1 1_555 1_555
O2G Mn1 1_555 1_555
N2_2 Mn1 1_555 1_555
C1C O1C 1_555 1_555
C3C C1C 1_555 1_555
C4C C6 1_555 1_555
H1C C4C 1_555 1_555
C5C N1 1_555 1_555
H2C C5C 1_555 1_555
C7C C2 1_555 1_555
H3C C7C 1_555 1_555
C8C C3C 1_555 1_555
H4C C8C 1_555 1_555
C9C N2 1_555 1_555
H5C C9C 1_555 1_555
C10C C3C 1_555 1_555
H6C C10C 1_555 1_555
C11C H7C 1_555 1_555
C12C C8C 1_555 1_555
H8C C12C 1_555 1_555
C13C C10C 1_555 1_555
H9C C13C 1_555 1_555
C4 C5 1_555 1_555
C11 C12 1_555 1_555
C11 C13 1_555 1_555
C4C C5C 1_555 1_555
C7C C9C 1_555 1_555
C11C C12C 1_555 1_555
C11C C13C 1_555 1_555

#END
