
#######################################################################
#
#                 Cambridge Crystallographic Data Centre
#                                CCDC 
#
#######################################################################
#
# If this CIF has been generated from an entry in the Cambridge 
# Structural Database, then it will include bibliographic, chemical, 
# crystal, experimental, refinement or atomic coordinate data resulting 
# from the CCDC's data processing and validation procedures.
#
#######################################################################

data_ADUVAY
_symmetry_cell_setting           triclinic
_symmetry_space_group_name_H-M   'P -1'
_symmetry_Int_Tables_number      2
_space_group_name_Hall           '-P 1'
loop_
_symmetry_equiv_pos_site_id
_symmetry_equiv_pos_as_xyz
1 x,y,z
2 -x,-y,-z
_cell_length_a                   10.586(4)
_cell_length_b                   11.535(4)
_cell_length_c                   12.447(4)
_cell_angle_alpha                97.410(5)
_cell_angle_beta                 94.445(5)
_cell_angle_gamma                107.159(5)
_cell_volume                     1429.37
loop_
_atom_site_label
_atom_site_type_symbol
_atom_site_fract_x
_atom_site_fract_y
_atom_site_fract_z
Mo1 Mo 1.00371(4) 0.70012(4) -0.11407(3)
Mo2 Mo 0.75889(4) 0.46399(4) -0.23638(3)
Mo3 Mo 0.92524(4) 0.28421(4) -0.16180(3)
Mo4 Mo 1.16282(4) 0.51933(3) -0.04128(3)
O1 O 1.0820(3) 0.6979(3) -0.2282(3)
O2 O 1.0199(4) 0.8503(3) -0.0730(3)
O3 O 0.8419(4) 0.4728(3) -0.3479(3)
O4 O 0.5976(4) 0.4424(4) -0.2841(3)
O5 O 1.0088(4) 0.3011(3) -0.2735(3)
O6 O 0.8767(4) 0.1316(3) -0.1572(3)
O7 O 1.2353(3) 0.5251(3) -0.1572(3)
O8 O 1.2929(3) 0.5396(3) 0.0615(3)
O9 O 0.8230(3) 0.6354(3) -0.1740(3)
O10 O 0.7604(3) 0.3030(3) -0.2124(3)
O11 O 1.0830(3) 0.3431(3) -0.0490(2)
O12 O 1.1499(3) 0.6851(3) -0.0104(2)
O13 O 0.9619(3) 0.4928(3) -0.1094(2)
Na1 Na 0.9981(2) 0.6319(2) -0.42245(18)
O14 O 0.8549(6) 0.7473(6) -0.3893(5)
H1 H 0.7932 0.7430 -0.3487
H2 H 0.8293 0.7635 -0.4504
O15 O 1.1163(6) 0.7972(5) -0.5077(4)
H3 H 1.1967 0.7975 -0.5076
H4 H 1.0782 0.7822 -0.5729
O16 O 1.1313(4) 0.4949(4) -0.4132(3)
H5 H 1.1336 0.4830 -0.3472
H6 H 1.2110 0.5203 -0.4277
Mo1A Mo 0.99629(4) 0.29988(4) 0.11407(3)
Mo2A Mo 1.24111(4) 0.53601(4) 0.23638(3)
Mo3A Mo 1.07476(4) 0.71579(4) 0.16180(3)
Mo4A Mo 0.83718(4) 0.48067(3) 0.04128(3)
O8A O 0.7071(3) 0.4604(3) -0.0615(3)
O11A O 0.9170(3) 0.6569(3) 0.0490(2)
O12A O 0.8501(3) 0.3149(3) 0.0104(2)
O13A O 1.0381(3) 0.5072(3) 0.1094(2)
Na1A Na 1.0019(2) 0.3681(2) -0.57755(18)
O16A O 0.8687(4) 0.5051(4) -0.5868(3)
Cu1 Cu 0.5000 1.0000 -0.5000
O17 O 0.3713(8) 0.7919(7) -0.5479(6)
H7 H 0.4006 0.7446 -0.5130
H8 H 0.3680 0.7751 -0.6168
O18 O 0.6331(4) 0.9452(4) -0.4216(4)
H9 H 0.6172 0.8839 -0.3878
H10 H 0.6979 0.9451 -0.4579
O19 O 0.6154(4) 1.0173(4) -0.6136(5)
N1 N 0.5754(5) 1.0164(5) -0.7196(6)
C1 C 0.6470(6) 1.1053(6) -0.7685(8)
H11 H 0.7162 1.1697 -0.7283
C2 C 0.6182(6) 1.1015(6) -0.8779(7)
H12 H 0.6678 1.1641 -0.9119
C3 C 0.5147(6) 1.0043(5) -0.9401(6)
C4 C 0.4428(6) 0.9152(5) -0.8826(7)
H13 H 0.3730 0.8492 -0.9198
C5 C 0.4734(6) 0.9234(6) -0.7732(7)
H14 H 0.4234 0.8645 -0.7359
O19A O 0.3846(4) 0.9827(4) -1.3864(5)
N1A N 0.4246(5) 0.9836(5) -1.2804(6)
C1A C 0.3530(6) 0.8947(6) -1.2315(8)
H11A H 0.2838 0.8303 -1.2717
C2A C 0.3818(6) 0.8985(6) -1.1221(7)
H12A H 0.3322 0.8359 -1.0881
C3A C 0.4853(6) 0.9957(5) -1.0599(6)
C4A C 0.5572(6) 1.0848(5) -1.1174(7)
H13A H 0.6270 1.1508 -1.0802
C5A C 0.5266(6) 1.0766(6) -1.2268(7)
H14A H 0.5766 1.1355 -1.2641
O17A O 0.6287(8) 1.2081(7) -0.4521(6)
H7A H 0.5994 1.2554 -0.4870
H8A H 0.6320 1.2249 -0.3832
O18A O 0.3669(4) 1.0548(4) -0.5784(4)
H9A H 0.3828 1.1161 -0.6122
H10A H 0.3021 1.0549 -0.5421
Cu1_2 Cu 0.5000 1.0000 -1.5000
O19A_2 O 0.3846(4) 0.9827(4) -0.3864(5)
O20 O 0.5776(5) 0.7528(4) -1.3115(5)
O21 O 0.8265(5) 0.9007(5) -0.5285(6)
N2 N 0.6138(6) 0.7667(5) -1.2036(6)
N3 N 0.7993(6) 0.8671(6) -0.6371(6)
C6 C 0.7558(7) 0.8799(6) -1.0466(7)
H15 H 0.8259 0.9488 -1.0148
C7 C 0.7181(7) 0.8624(5) -1.1552(7)
H16 H 0.7651 0.9176 -1.1972
C8 C 0.5471(6) 0.6842(6) -1.1447(7)
H17 H 0.4756 0.6175 -1.1784
C9 C 0.5850(6) 0.6988(6) -1.0337(7)
H18 H 0.5377 0.6416 -0.9936
C10 C 0.6915(6) 0.7963(5) -0.9808(7)
C11 C 0.7330(6) 0.8160(5) -0.8619(7)
C12 C 0.6653(7) 0.7395(6) -0.7926(7)
H19 H 0.5962 0.6688 -0.8222
C13 C 0.6992(8) 0.7669(7) -0.6829(8)
H20 H 0.6519 0.7151 -0.6385
C14 C 0.8735(7) 0.9393(7) -0.7004(8)
H21 H 0.9468 1.0055 -0.6690
C15 C 0.8410(7) 0.9150(6) -0.8107(8)
H22 H 0.8926 0.9661 -0.8534
O22 O 0.4073(6) 0.5710(7) -1.4584(4)
H23 H 0.4733 0.6191 -1.4151
H24 H 0.4011 0.4964 -1.4461
loop_
_geom_bond_atom_site_label_1
_geom_bond_atom_site_label_2
_geom_bond_site_symmetry_1
_geom_bond_site_symmetry_2
Mo1 O1 1_555 1_555
Mo2 O3 1_555 1_555
Mo3 O5 1_555 1_555
Mo4 O7 1_555 1_555
O1 Na1 1_555 1_555
O2 Mo1 1_555 1_555
O3 Na1 1_555 1_555
O4 Mo2 1_555 1_555
O6 Mo3 1_555 1_555
O8 Mo4 1_555 1_555
O9 Mo1 1_555 1_555
O10 Mo2 1_555 1_555
O11 Mo3 1_555 1_555
O12 Mo1 1_555 1_555
O13 Mo1 1_555 1_555
Na1 O14 1_555 1_555
O14 H1 1_555 1_555
H2 O14 1_555 1_555
O15 Na1 1_555 1_555
H3 O15 1_555 1_555
H4 O15 1_555 1_555
O16 Na1 1_555 1_555
H5 O16 1_555 1_555
H6 O16 1_555 1_555
Cu1 O17 1_555 1_555
O17 H7 1_555 1_555
H8 O17 1_555 1_555
O18 Cu1 1_555 1_555
H9 O18 1_555 1_555
H10 O18 1_555 1_555
O19 Cu1 1_555 1_555
N1 O19 1_555 1_555
C1 N1 1_555 1_555
H11 C1 1_555 1_555
C2 C1 1_555 1_555
H12 C2 1_555 1_555
C3 C2 1_555 1_555
C4 C3 1_555 1_555
H13 C4 1_555 1_555
C5 N1 1_555 1_555
H14 C5 1_555 1_555
O20 N2 1_555 1_555
O21 N3 1_555 1_555
N2 C7 1_555 1_555
N3 C13 1_555 1_555
C6 H15 1_555 1_555
C7 C6 1_555 1_555
H16 C7 1_555 1_555
C8 N2 1_555 1_555
H17 C8 1_555 1_555
C9 C8 1_555 1_555
H18 C9 1_555 1_555
C10 C6 1_555 1_555
C11 C10 1_555 1_555
C12 C11 1_555 1_555
H19 C12 1_555 1_555
C13 C12 1_555 1_555
H20 C13 1_555 1_555
C14 N3 1_555 1_555
H21 C14 1_555 1_555
C15 C11 1_555 1_555
H22 C15 1_555 1_555
O22 H23 1_555 1_555
H24 O22 1_555 1_555
Mo1A O11 1_555 1_555
Mo2A O8 1_555 1_555
Mo3A O12 1_555 1_555
Mo4A O13 1_555 1_555
O8A Mo2 1_555 1_555
O11A Mo1 1_555 1_555
O12A Mo3 1_555 1_555
O13A Mo4 1_555 1_555
Na1A O16 1_555 1_555
O16A Na1 1_555 1_555
O19A N1A 1_555 1_555
N1A C1A 1_555 1_555
C1A H11A 1_555 1_555
C2A C1A 1_555 1_555
H12A C2A 1_555 1_555
C3A C3 1_555 1_555
C4A C3A 1_555 1_555
H13A C4A 1_555 1_555
C5A N1A 1_555 1_555
H14A C5A 1_555 1_555
O17A Cu1 1_555 1_555
H7A O17A 1_555 1_555
H8A O17A 1_555 1_555
O18A Cu1 1_555 1_555
H9A O18A 1_555 1_555
H10A O18A 1_555 1_555
Cu1_2 O19A 1_555 1_555
O19A_2 Cu1 1_555 1_555
Mo2 O9 1_555 1_555
Mo2 O13 1_555 1_555
Mo3 O10 1_555 1_555
Mo3 O13 1_555 1_555
Mo4 O11 1_555 1_555
Mo4 O12 1_555 1_555
Mo4 O13 1_555 1_555
C4 C5 1_555 1_555
C9 C10 1_555 1_555
C14 C15 1_555 1_555
Mo1A O12A 1_555 1_555
Mo1A O13A 1_555 1_555
Mo2A O13A 1_555 1_555
Mo3A O11A 1_555 1_555
Mo3A O13A 1_555 1_555
Mo4A O8A 1_555 1_555
Mo4A O11A 1_555 1_555
Mo4A O12A 1_555 1_555
Mo4A O13A 1_555 1_555
Na1A O16A 1_555 1_555
C2A C3A 1_555 1_555
C4A C5A 1_555 1_555

#END
