
#######################################################################
#
#                 Cambridge Crystallographic Data Centre
#                                CCDC 
#
#######################################################################
#
# If this CIF has been generated from an entry in the Cambridge 
# Structural Database, then it will include bibliographic, chemical, 
# crystal, experimental, refinement or atomic coordinate data resulting 
# from the CCDC's data processing and validation procedures.
#
#######################################################################

data_ADUVAX
_symmetry_cell_setting           orthorhombic
_symmetry_space_group_name_H-M   'P b c n'
_symmetry_Int_Tables_number      60
_space_group_name_Hall           '-P 2n 2ab'
loop_
_symmetry_equiv_pos_site_id
_symmetry_equiv_pos_as_xyz
1 x,y,z
2 1/2-x,1/2-y,1/2+z
3 -x,y,1/2-z
4 1/2+x,1/2-y,-z
5 -x,-y,-z
6 1/2+x,1/2+y,1/2-z
7 x,-y,1/2+z
8 1/2-x,1/2+y,z
_cell_length_a                   11.3696(6)
_cell_length_b                   10.2128(6)
_cell_length_c                   14.4943(9)
_cell_angle_alpha                90
_cell_angle_beta                 90
_cell_angle_gamma                90
_cell_volume                     1683.01
loop_
_atom_site_label
_atom_site_type_symbol
_atom_site_fract_x
_atom_site_fract_y
_atom_site_fract_z
Co1 Co 0.0000 0.07910(4) 0.7500
Cl1 Cl 0.08159(4) -0.03666(5) 0.63313(3)
N1 N -0.26510(15) 0.22293(17) 0.58531(12)
N2 N -0.12756(16) 0.17917(17) 0.68652(12)
C1 C -0.16603(18) 0.1572(2) 0.60251(14)
C2 C -0.42082(18) 0.1042(2) 0.49965(15)
C3 C -0.3345(2) 0.2169(2) 0.49954(18)
C4 C -0.4000(2) -0.0049(3) 0.44650(19)
C5 C -0.5216(2) 0.1091(3) 0.5525(2)
C6 C -0.2929(3) 0.2892(3) 0.6627(2)
C7 C -0.2074(3) 0.2631(4) 0.7245(2)
H1 H -0.377(2) 0.302(3) 0.4968(19)
H2 H -0.133(2) 0.096(2) 0.5582(17)
H3 H -0.536(3) 0.179(4) 0.597(2)
H4 H -0.193(3) 0.301(3) 0.782(2)
H5 H -0.328(3) -0.008(3) 0.405(2)
H6 H -0.358(3) 0.347(4) 0.669(3)
H7 H -0.279(2) 0.205(3) 0.4467(19)
Co1F Co -1.0000 -0.07910(4) 0.2500
Cl1B Cl -0.08159(4) -0.03666(5) 0.86687(3)
N1D N -0.73490(15) -0.22293(17) 0.41469(12)
N2D N -0.87244(16) -0.17917(17) 0.31348(12)
N2B N 0.12756(16) 0.17917(17) 0.81348(12)
C1D C -0.83397(18) -0.1572(2) 0.39749(14)
C2D C -0.57918(18) -0.1042(2) 0.50035(15)
C3D C -0.6655(2) -0.2169(2) 0.50046(18)
C4D C -0.6000(2) 0.0049(3) 0.55350(19)
C5D C -0.4784(2) -0.1091(3) 0.4475(2)
C6D C -0.7071(3) -0.2892(3) 0.3373(2)
C7D C -0.7926(3) -0.2631(4) 0.2755(2)
H1D H -0.623(2) -0.302(3) 0.5032(19)
H2D H -0.867(2) -0.096(2) 0.4418(17)
H3D H -0.464(3) -0.179(4) 0.403(2)
H4D H -0.807(3) -0.301(3) 0.218(2)
H5D H -0.672(3) 0.008(3) 0.595(2)
H6D H -0.642(3) -0.347(4) 0.331(3)
H7D H -0.721(2) -0.205(3) 0.5533(19)
loop_
_geom_bond_atom_site_label_1
_geom_bond_atom_site_label_2
_geom_bond_site_symmetry_1
_geom_bond_site_symmetry_2
Co1 Cl1 1_555 1_555
N1 C1 1_555 1_555
N2 Co1 1_555 1_555
C1 N2 1_555 1_555
C2 C3 1_555 1_555
C3 N1 1_555 1_555
C4 C2 1_555 1_555
C5 C2 1_555 1_555
C6 N1 1_555 1_555
C7 N2 1_555 1_555
H1 C3 1_555 1_555
H2 C1 1_555 1_555
H3 C5 1_555 1_555
H4 C7 1_555 1_555
H5 C4 1_555 1_555
H6 C6 1_555 1_555
H7 C3 1_555 1_555
Co1F N2D 1_555 1_555
Cl1B Co1 1_555 1_555
N1D C1D 1_555 1_555
N2D C1D 1_555 1_555
N2B Co1 1_555 1_555
C1D H2D 1_555 1_555
C2D C3D 1_555 1_555
C3D N1D 1_555 1_555
C4D C5 1_555 1_555
C5D C4 1_555 1_555
C6D N1D 1_555 1_555
C7D N2D 1_555 1_555
H1D C3D 1_555 1_555
H3D C5D 1_555 1_555
H4D C7D 1_555 1_555
H5D C4D 1_555 1_555
H6D C6D 1_555 1_555
H7D C3D 1_555 1_555
C6 C7 1_555 1_555
C2D C4D 1_555 1_555
C2D C5D 1_555 1_555
C6D C7D 1_555 1_555

#END
