
#######################################################################
#
#                 Cambridge Crystallographic Data Centre
#                                CCDC 
#
#######################################################################
#
# If this CIF has been generated from an entry in the Cambridge 
# Structural Database, then it will include bibliographic, chemical, 
# crystal, experimental, refinement or atomic coordinate data resulting 
# from the CCDC's data processing and validation procedures.
#
#######################################################################

data_AELLIY
_symmetry_cell_setting           orthorhombic
_symmetry_space_group_name_H-M   'P 21 21 21'
_symmetry_Int_Tables_number      19
_space_group_name_Hall           'P 2ac 2ab'
loop_
_symmetry_equiv_pos_site_id
_symmetry_equiv_pos_as_xyz
1 x,y,z
2 1/2+x,1/2-y,-z
3 -x,1/2+y,1/2-z
4 1/2-x,-y,1/2+z
_cell_length_a                   28.362(28)
_cell_length_b                   11.063(5)
_cell_length_c                   8.139(12)
_cell_angle_alpha                90
_cell_angle_beta                 90
_cell_angle_gamma                90
_cell_volume                     2553.76
loop_
_atom_site_label
_atom_site_type_symbol
_atom_site_fract_x
_atom_site_fract_y
_atom_site_fract_z
Cu1 Cu 0.1749(1) 0.0337(2) 0.2584(3)
N1 N 0.1814(7) -0.1083(14) 0.1052(22)
N2 N 0.1165(7) 0.2709(16) -0.0418(28)
N3 N 0.1216(5) -0.0187(16) 0.3963(19)
N4 N 0.1574(7) 0.1934(15) 0.3494(22)
C1 C 0.2372(7) 0.0413(18) 0.0040(22)
C2 C 0.2042(8) -0.0630(20) -0.0458(26)
C3 C 0.1676(7) -0.0157(20) -0.1698(21)
C4 C 0.1372(7) 0.0862(20) -0.1047(21)
C5 C 0.1514(9) 0.2078(21) -0.1175(33)
C6 C 0.0800(9) 0.2016(19) 0.0226(34)
C7 C 0.0939(6) 0.0750(12) -0.0194(18)
C8 C 0.0642(8) -0.0150(26) 0.0320(29)
C9 C 0.0242(11) 0.0099(24) 0.1166(33)
C10 C 0.0120(11) 0.1232(34) 0.1535(39)
C11 C 0.0407(10) 0.2148(28) 0.1144(36)
C12 C 0.1043(9) -0.1282(24) 0.4261(29)
C13 C 0.0651(11) -0.1531(22) 0.5287(30)
C14 C 0.0420(10) -0.0586(32) 0.5954(32)
C15 C 0.0592(9) 0.0624(26) 0.5653(30)
C16 C 0.0994(7) 0.0715(23) 0.4666(21)
C17 C 0.1180(8) 0.1912(23) 0.4408(22)
C18 C 0.0954(7) 0.2926(21) 0.5091(28)
C19 C 0.1161(10) 0.3988(25) 0.4758(37)
C20 C 0.1561(13) 0.4073(23) 0.3826(37)
C21 C 0.1759(13) 0.2969(26) 0.3177(33)
C22 C 0.0358(10) 0.1648(29) 0.6311(37)
C23 C 0.0540(11) 0.2751(29) 0.6016(35)
O1 O 0.2261(5) 0.0952(13) 0.1322(16)
O2 O 0.2728(5) 0.0629(14) -0.0779(18)
O2C O 0.2272(5) -0.0629(14) 0.4221(18)
Cu1C Cu 0.3251(1) -0.0337(2) -0.2416(3)
Cl1 Cl 0.1067(4) 0.6095(6) -0.0537(14)
O3 O 0.1025(13) 0.6862(24) 0.0822(46)
O4 O 0.1440(10) 0.5431(24) -0.0321(41)
O5 O 0.1042(17) 0.6862(35) -0.1897(43)
O6 O 0.0680(14) 0.5335(24) -0.0542(81)
O7 O 0.2063(14) 0.6904(28) 0.5120(56)
O8 O 0.2597(16) 0.3421(35) 0.6653(57)
O9 O 0.2128(42) 0.5294(72) 0.7849(98)
loop_
_geom_bond_atom_site_label_1
_geom_bond_atom_site_label_2
_geom_bond_site_symmetry_1
_geom_bond_site_symmetry_2
Cu1 N1 1_555 1_555
Cl1 O3 1_555 1_555
N1 C2 1_555 1_555
N2 C5 1_555 1_555
N3 Cu1 1_555 1_555
N4 Cu1 1_555 1_555
C1 C2 1_555 1_555
C2 C3 1_555 1_555
C3 C4 1_555 1_555
C4 C5 1_555 1_555
C6 N2 1_555 1_555
C7 C4 1_555 1_555
C8 C7 1_555 1_555
C9 C8 1_555 1_555
C10 C9 1_555 1_555
C11 C6 1_555 1_555
C12 N3 1_555 1_555
C13 C12 1_555 1_555
C14 C13 1_555 1_555
C15 C14 1_555 1_555
C16 N3 1_555 1_555
C17 N4 1_555 1_555
C18 C17 1_555 1_555
C19 C18 1_555 1_555
C20 C19 1_555 1_555
C21 N4 1_555 1_555
C22 C15 1_555 1_555
C23 C18 1_555 1_555
O1 Cu1 1_555 1_555
O2 C1 1_555 1_555
O4 Cl1 1_555 1_555
O5 Cl1 1_555 1_555
O6 Cl1 1_555 1_555
O2C Cu1 1_555 1_555
Cu1C O2 1_555 1_555
C1 O1 1_555 1_555
C6 C7 1_555 1_555
C10 C11 1_555 1_555
C15 C16 1_555 1_555
C16 C17 1_555 1_555
C20 C21 1_555 1_555
C22 C23 1_555 1_555

#END
