
#######################################################################
#
#                 Cambridge Crystallographic Data Centre
#                                CCDC 
#
#######################################################################
#
# If this CIF has been generated from an entry in the Cambridge 
# Structural Database, then it will include bibliographic, chemical, 
# crystal, experimental, refinement or atomic coordinate data resulting 
# from the CCDC's data processing and validation procedures.
#
#######################################################################

data_AEUNIC02
_symmetry_cell_setting           monoclinic
_symmetry_space_group_name_H-M   'C 2/c'
_symmetry_Int_Tables_number      15
_space_group_name_Hall           '-C 2yn'
loop_
_symmetry_equiv_pos_site_id
_symmetry_equiv_pos_as_xyz
1 x,y,z
2 -x,y,1/2-z
3 1/2+x,1/2+y,z
4 1/2-x,1/2+y,1/2-z
5 -x,-y,-z
6 x,-y,1/2+z
7 1/2-x,1/2-y,-z
8 1/2+x,1/2-y,1/2+z
_cell_length_a                   9.232(2)
_cell_length_b                   19.852(5)
_cell_length_c                   10.089(3)
_cell_angle_alpha                90
_cell_angle_beta                 108.884(3)
_cell_angle_gamma                90
_cell_volume                     1749.52
loop_
_atom_site_label
_atom_site_type_symbol
_atom_site_fract_x
_atom_site_fract_y
_atom_site_fract_z
Eu1 Eu 0.0000 0.013176(10) 0.7500
O1 O -0.1007(3) -0.06431(14) 0.8702(3)
O2 O -0.0590(4) -0.10211(14) 1.0861(3)
O5 O 0.2436(4) 0.05841(16) 0.7272(3)
O6 O 0.2143(4) -0.0408(2) 0.9367(3)
N1 N -0.1625(4) -0.31364(18) 0.8040(4)
C1 C -0.1002(5) -0.3008(2) 0.9408(5)
H1 H -0.078(7) -0.338(4) 0.997(5)
C2 C -0.0759(5) -0.2360(2) 0.9941(4)
H2 H -0.033(5) -0.228(3) 1.085(5)
C3 C -0.1144(4) -0.18199(19) 0.9042(3)
C4 C -0.1752(5) -0.1951(2) 0.7610(4)
H3 H -0.203(5) -0.163(3) 0.702(5)
C5 C -0.1981(5) -0.2615(2) 0.7184(4)
H4 H -0.247(8) -0.270(4) 0.630(7)
C6 C -0.0895(4) -0.11044(19) 0.9573(4)
H5 H 0.312(7) 0.034(4) 0.763(6)
H6 H 0.260(7) 0.094(4) 0.756(6)
H7 H 0.217(6) -0.043(3) 1.019(6)
H8 H 0.282(5) -0.043(3) 0.927(5)
Eu1D Eu 0.0000 -0.013176(10) 0.2500
Eu1D_2 Eu 0.0000 -0.013176(10) 1.2500
O1A O 0.1007(3) -0.06431(14) 0.6298(3)
O2A O 0.0590(4) -0.10211(14) 0.4139(3)
O2D O 0.0590(4) 0.10211(14) 0.9139(3)
O2E O -0.0590(4) 0.10211(14) 0.5861(3)
O5A O -0.2436(4) 0.05841(16) 0.7728(3)
O6A O -0.2143(4) -0.0408(2) 0.5633(3)
N1A N 0.1625(4) -0.31364(18) 0.6960(4)
C1A C 0.1002(5) -0.3008(2) 0.5592(5)
H1A H 0.078(7) -0.338(4) 0.503(5)
C2A C 0.0759(5) -0.2360(2) 0.5059(4)
H2A H 0.033(5) -0.228(3) 0.415(5)
C3A C 0.1144(4) -0.18199(19) 0.5958(3)
C4A C 0.1752(5) -0.1951(2) 0.7390(4)
H3A H 0.203(5) -0.163(3) 0.798(5)
C5A C 0.1981(5) -0.2615(2) 0.7816(4)
H4A H 0.247(8) -0.270(4) 0.870(7)
C6A C 0.0895(4) -0.11044(19) 0.5427(4)
H5A H -0.312(7) 0.034(4) 0.737(6)
H6A H -0.260(7) 0.094(4) 0.744(6)
H7A H -0.217(6) -0.043(3) 0.481(6)
H8A H -0.282(5) -0.043(3) 0.573(5)
O3 O -0.5000 -0.1267(3) 0.7500
O4 O -0.4839(5) -0.0329(3) 0.6483(4)
N2 N -0.5000 -0.0652(3) 0.7500
O4A O -0.5161(5) -0.0329(3) 0.8517(4)
loop_
_geom_bond_atom_site_label_1
_geom_bond_atom_site_label_2
_geom_bond_site_symmetry_1
_geom_bond_site_symmetry_2
Eu1 O1 1_555 1_555
O1 C6 1_555 1_555
O2 C6 1_555 1_555
O3 N2 1_555 1_555
O4 N2 1_555 1_555
O5 Eu1 1_555 1_555
O6 Eu1 1_555 1_555
N1 C1 1_555 1_555
N2 O4A 1_555 1_555
C1 H1 1_555 1_555
C2 C1 1_555 1_555
H2 C2 1_555 1_555
C3 C2 1_555 1_555
C4 C3 1_555 1_555
H3 C4 1_555 1_555
C5 N1 1_555 1_555
H4 C5 1_555 1_555
C6 C3 1_555 1_555
H5 O5 1_555 1_555
H6 O5 1_555 1_555
H7 O6 1_555 1_555
H8 O6 1_555 1_555
Eu1D O2A 1_555 1_555
Eu1D_2 O2 1_555 1_555
O1A Eu1 1_555 1_555
O2A C6A 1_555 1_555
O2D Eu1 1_555 1_555
O2E Eu1 1_555 1_555
O5A Eu1 1_555 1_555
O6A Eu1 1_555 1_555
N1A C1A 1_555 1_555
C1A H1A 1_555 1_555
C2A C1A 1_555 1_555
H2A C2A 1_555 1_555
C3A C2A 1_555 1_555
C4A C3A 1_555 1_555
H3A C4A 1_555 1_555
C5A N1A 1_555 1_555
H4A C5A 1_555 1_555
C6A O1A 1_555 1_555
H5A O5A 1_555 1_555
H6A O5A 1_555 1_555
H7A O6A 1_555 1_555
H8A O6A 1_555 1_555
C4 C5 1_555 1_555
C3A C6A 1_555 1_555
C4A C5A 1_555 1_555

#END
