
#######################################################################
#
#                 Cambridge Crystallographic Data Centre
#                                CCDC 
#
#######################################################################
#
# If this CIF has been generated from an entry in the Cambridge 
# Structural Database, then it will include bibliographic, chemical, 
# crystal, experimental, refinement or atomic coordinate data resulting 
# from the CCDC's data processing and validation procedures.
#
#######################################################################

data_AEUNIC01
_symmetry_cell_setting           monoclinic
_symmetry_space_group_name_H-M   'C 2/c'
_symmetry_Int_Tables_number      15
_space_group_name_Hall           '-C 2yn'
loop_
_symmetry_equiv_pos_site_id
_symmetry_equiv_pos_as_xyz
1 x,y,z
2 1/2+x,1/2+y,z
3 -x,y,1/2-z
4 1/2-x,1/2+y,1/2-z
5 -x,-y,-z
6 1/2-x,1/2-y,-z
7 x,-y,1/2+z
8 1/2+x,1/2-y,1/2+z
_cell_length_a                   9.2300(9)
_cell_length_b                   19.826(2)
_cell_length_c                   10.0958(10)
_cell_angle_alpha                90
_cell_angle_beta                 108.959(2)
_cell_angle_gamma                90
_cell_volume                     1747.25
loop_
_atom_site_label
_atom_site_type_symbol
_atom_site_fract_x
_atom_site_fract_y
_atom_site_fract_z
Eu1 Eu 0.0000 0.513090(10) 0.2500
O1 O 0.1007(3) 0.43555(11) 0.1301(2)
O2 O 0.0595(3) 0.39789(11) -0.0861(2)
O3 O 0.2153(3) 0.4592(1) 0.4369(2)
O4 O 0.2433(3) 0.55837(11) 0.2275(2)
N1 N 0.1614(4) 0.1861(1) 0.1949(3)
C1 C 0.0895(3) 0.3894(1) 0.0429(3)
C2 C 0.1139(3) 0.3180(1) 0.0965(3)
C3 C 0.1751(4) 0.3051(2) 0.2390(3)
C4 C 0.1978(4) 0.2387(2) 0.2821(4)
C5 C 0.1004(4) 0.1988(2) 0.0588(4)
C6 C 0.0757(4) 0.2639(2) 0.0047(3)
H1 H 0.2007 0.3409 0.3050
H2 H 0.2418 0.2299 0.3795
H3 H 0.0724 0.1619 -0.0043
H4 H 0.0333 0.2712 -0.0933
H5 H 0.2217 0.4571 0.5212
H6 H 0.3087 0.4591 0.4302
H7 H 0.3287 0.5338 0.2622
H8 H 0.2857 0.5978 0.2522
Eu1F Eu 0.0000 0.486910(10) -0.2500
Eu1F_2 Eu 0.0000 0.486910(10) 0.7500
O1B O -0.1007(3) 0.43555(11) 0.3699(2)
O2B O -0.0595(3) 0.39789(11) 0.5861(2)
O2F O 0.0595(3) 0.60211(11) 0.4139(2)
O2D O -0.0595(3) 0.60211(11) 0.0861(2)
O3B O -0.2153(3) 0.4592(1) 0.0631(2)
O4B O -0.2433(3) 0.55837(11) 0.2725(2)
N1B N -0.1614(4) 0.1861(1) 0.3051(3)
C1B C -0.0895(3) 0.3894(1) 0.4571(3)
C2B C -0.1139(3) 0.3180(1) 0.4035(3)
C3B C -0.1751(4) 0.3051(2) 0.2610(3)
C4B C -0.1978(4) 0.2387(2) 0.2179(4)
C5B C -0.1004(4) 0.1988(2) 0.4412(4)
C6B C -0.0757(4) 0.2639(2) 0.4953(3)
H1B H -0.2007 0.3409 0.1950
H2B H -0.2418 0.2299 0.1205
H3B H -0.0724 0.1619 0.5043
H4B H -0.0333 0.2712 0.5933
H5B H -0.2217 0.4571 -0.0212
H6B H -0.3087 0.4591 0.0698
H7B H -0.3287 0.5338 0.2378
H8B H -0.2857 0.5978 0.2478
O5 O 0.4850(4) 0.4664(2) 0.3511(3)
O6 O 0.5000 0.3735(2) 0.2500
N2 N 0.5000 0.4351(2) 0.2500
O5B O 0.5150(4) 0.4664(2) 0.1489(3)
loop_
_geom_bond_atom_site_label_1
_geom_bond_atom_site_label_2
_geom_bond_site_symmetry_1
_geom_bond_site_symmetry_2
Eu1 O1 1_555 1_555
O1 C1 1_555 1_555
O2 C1 1_555 1_555
O3 Eu1 1_555 1_555
O4 Eu1 1_555 1_555
O5 N2 1_555 1_555
O6 N2 1_555 1_555
N1 C4 1_555 1_555
N2 O5B 1_555 1_555
C1 C2 1_555 1_555
C2 C3 1_555 1_555
C3 C4 1_555 1_555
C4 H2 1_555 1_555
C5 N1 1_555 1_555
C6 C2 1_555 1_555
H1 C3 1_555 1_555
H3 C5 1_555 1_555
H4 C6 1_555 1_555
H5 O3 1_555 1_555
H6 O3 1_555 1_555
H7 O4 1_555 1_555
H8 O4 1_555 1_555
Eu1F O2 1_555 1_555
Eu1F_2 O2B 1_555 1_555
O1B Eu1 1_555 1_555
O2B C1B 1_555 1_555
O2F Eu1 1_555 1_555
O2D Eu1 1_555 1_555
O3B Eu1 1_555 1_555
O4B Eu1 1_555 1_555
N1B C4B 1_555 1_555
C1B O1B 1_555 1_555
C2B C1B 1_555 1_555
C3B C2B 1_555 1_555
C4B C3B 1_555 1_555
C5B N1B 1_555 1_555
C6B C2B 1_555 1_555
H1B C3B 1_555 1_555
H2B C4B 1_555 1_555
H3B C5B 1_555 1_555
H4B C6B 1_555 1_555
H5B O3B 1_555 1_555
H6B O3B 1_555 1_555
H7B O4B 1_555 1_555
H8B O4B 1_555 1_555
C5 C6 1_555 1_555
C5B C6B 1_555 1_555

#END
