
#######################################################################
#
#                 Cambridge Crystallographic Data Centre
#                                CCDC 
#
#######################################################################
#
# If this CIF has been generated from an entry in the Cambridge 
# Structural Database, then it will include bibliographic, chemical, 
# crystal, experimental, refinement or atomic coordinate data resulting 
# from the CCDC's data processing and validation procedures.
#
#######################################################################

data_AEUNIC
_symmetry_cell_setting           monoclinic
_symmetry_space_group_name_H-M   'C 2/c'
_symmetry_Int_Tables_number      15
_space_group_name_Hall           '-C 2yn'
loop_
_symmetry_equiv_pos_site_id
_symmetry_equiv_pos_as_xyz
1 x,y,z
2 1/2+x,1/2+y,z
3 -x,y,1/2-z
4 1/2-x,1/2+y,1/2-z
5 -x,-y,-z
6 1/2-x,1/2-y,-z
7 x,-y,1/2+z
8 1/2+x,1/2-y,1/2+z
_cell_length_a                   9.28
_cell_length_b                   20.06
_cell_length_c                   10.17
_cell_angle_alpha                90
_cell_angle_beta                 109
_cell_angle_gamma                90
_cell_volume                     1790.07
loop_
_atom_site_label
_atom_site_type_symbol
_atom_site_fract_x
_atom_site_fract_y
_atom_site_fract_z
Eu1 Eu 0.00000 0.01110 0.25000
O1 O 0.06350 0.10180 0.41750
O2 O -0.09840 -0.06550 0.37390
O3 O 0.23940 0.06030 0.22490
O4 O -0.21780 -0.04340 0.05730
N1 N 0.16290 0.31430 0.69480
C1 C 0.08330 0.11170 0.53330
C2 C 0.11440 0.18360 0.59520
C3 C 0.17580 0.19450 0.74100
C4 C 0.20030 0.26120 0.78870
C5 C 0.09860 0.30240 0.55150
C6 C 0.07390 0.23660 0.50060
O1B O -0.06350 0.10180 0.08250
O2B O 0.09840 -0.06550 0.12610
O3B O -0.23940 0.06030 0.27510
O4B O 0.21780 -0.04340 0.44270
C1D C -0.08330 -0.11170 0.46670
O2D O 0.09840 0.06550 0.62610
C1B C -0.08330 0.11170 -0.03330
C1F C 0.08330 -0.11170 0.03330
O1D O -0.06350 -0.10180 0.58250
C2D C -0.11440 -0.18360 0.40480
Eu1D Eu 0.00000 -0.01110 0.75000
O2F O -0.09840 0.06550 -0.12610
C2B C -0.11440 0.18360 -0.09520
O1F O 0.06350 -0.10180 -0.08250
C2F C 0.11440 -0.18360 0.09520
C3D C -0.17580 -0.19450 0.25900
C6D C -0.07390 -0.23660 0.49940
O1F_2 O 0.06350 -0.10180 0.91750
O2F_2 O -0.09840 0.06550 0.87390
O3D O -0.23940 -0.06030 0.77510
O3F O 0.23940 -0.06030 0.72490
O4D O 0.21780 0.04340 0.94270
O4F O -0.21780 0.04340 0.55730
Eu1D_2 Eu 0.00000 -0.01110 -0.25000
C3B C -0.17580 0.19450 -0.24100
C6B C -0.07390 0.23660 -0.00060
C3F C 0.17580 -0.19450 0.24100
C6F C 0.07390 -0.23660 0.00060
C4D C -0.20030 -0.26120 0.21130
C5D C -0.09860 -0.30240 0.44850
C4B C -0.20030 0.26120 -0.28870
C5B C -0.09860 0.30240 -0.05150
C4F C 0.20030 -0.26120 0.28870
C5F C 0.09860 -0.30240 0.05150
N1D N -0.16290 -0.31430 0.30520
N1B N -0.16290 0.31430 -0.19480
N1F N 0.16290 -0.31430 0.19480
O5 O 0.00000 0.37070 0.25000
O6 O 0.01800 0.46500 0.13920
N2 N 0.00000 0.43410 0.25000
O6B O -0.01800 0.46500 0.36080
loop_
_geom_bond_atom_site_label_1
_geom_bond_atom_site_label_2
_geom_bond_site_symmetry_1
_geom_bond_site_symmetry_2
Eu1 O1 1_555 1_555
O1 C1 1_555 1_555
O2 Eu1 1_555 1_555
O3 Eu1 1_555 1_555
O4 Eu1 1_555 1_555
N1 C4 1_555 1_555
C1 C2 1_555 1_555
C2 C3 1_555 1_555
C3 C4 1_555 1_555
C5 N1 1_555 1_555
C6 C2 1_555 1_555
O5 N2 1_555 1_555
O6 N2 1_555 1_555
N2 O6B 1_555 1_555
O1B Eu1 1_555 1_555
O2B Eu1 1_555 1_555
O3B Eu1 1_555 1_555
O4B Eu1 1_555 1_555
C1D O2 1_555 1_555
O2D C1 1_555 1_555
C1B O1B 1_555 1_555
C1F O2B 1_555 1_555
O1D C1D 1_555 1_555
C2D C1D 1_555 1_555
Eu1D O2D 1_555 1_555
O2F C1B 1_555 1_555
C2B C1B 1_555 1_555
O1F C1F 1_555 1_555
C2F C1F 1_555 1_555
C3D C2D 1_555 1_555
C6D C2D 1_555 1_555
O1F_2 Eu1D 1_555 1_555
O2F_2 Eu1D 1_555 1_555
O3D Eu1D 1_555 1_555
O3F Eu1D 1_555 1_555
O4D Eu1D 1_555 1_555
O4F Eu1D 1_555 1_555
Eu1D_2 O2F 1_555 1_555
C3B C2B 1_555 1_555
C6B C2B 1_555 1_555
C3F C2F 1_555 1_555
C6F C2F 1_555 1_555
C4D C3D 1_555 1_555
C5D C6D 1_555 1_555
C4B C3B 1_555 1_555
C5B C6B 1_555 1_555
C4F C3F 1_555 1_555
C5F C6F 1_555 1_555
N1D C4D 1_555 1_555
N1B C4B 1_555 1_555
N1F C4F 1_555 1_555
C5 C6 1_555 1_555
O1D Eu1D 1_555 1_555
O1F Eu1D_2 1_555 1_555
C5D N1D 1_555 1_555
C5B N1B 1_555 1_555
C5F N1F 1_555 1_555

#END
