
#######################################################################
#
#                 Cambridge Crystallographic Data Centre
#                                CCDC 
#
#######################################################################
#
# If this CIF has been generated from an entry in the Cambridge 
# Structural Database, then it will include bibliographic, chemical, 
# crystal, experimental, refinement or atomic coordinate data resulting 
# from the CCDC's data processing and validation procedures.
#
#######################################################################

data_AFAHEW
_symmetry_cell_setting           triclinic
_symmetry_space_group_name_H-M   'P -1'
_symmetry_Int_Tables_number      2
_space_group_name_Hall           '-P 1'
loop_
_symmetry_equiv_pos_site_id
_symmetry_equiv_pos_as_xyz
1 x,y,z
2 -x,-y,-z
_cell_length_a                   9.1863(3)
_cell_length_b                   9.6764(4)
_cell_length_c                   13.1755(5)
_cell_angle_alpha                96.909(2)
_cell_angle_beta                 98.009(2)
_cell_angle_gamma                95.833(2)
_cell_volume                     1142.95
loop_
_atom_site_label
_atom_site_type_symbol
_atom_site_fract_x
_atom_site_fract_y
_atom_site_fract_z
Mg1 Mg 0.5000 0.5000 0.0000
O1 O 0.4295(2) 0.65526(18) -0.08610(13)
C1 C 0.3650(3) 0.5716(3) 0.12426(19)
Mg2 Mg 0.16810(9) 0.48166(9) 0.01200(7)
C2 C 0.3038(3) 0.5888(3) 0.2006(2)
C3 C 0.2451(3) 0.6062(3) 0.2977(2)
C4 C 0.3314(3) 0.5841(3) 0.3886(2)
H1 H 0.4292 0.5610 0.3870
C5 C 0.2764(4) 0.5953(3) 0.4807(2)
H2 H 0.3365 0.5805 0.5423
C6 C 0.1341(4) 0.6280(3) 0.4840(2)
H3 H 0.0958 0.6348 0.5475
C7 C 0.0483(3) 0.6508(3) 0.3949(2)
H4 H -0.0493 0.6740 0.3973
C8 C 0.1024(3) 0.6403(3) 0.3023(2)
H5 H 0.0420 0.6564 0.2412
C9 C 0.2745(3) 0.3512(3) -0.0891(2)
C10 C 0.2649(3) 0.2639(3) -0.1651(2)
C11 C 0.2566(3) 0.1674(3) -0.25940(19)
C12 C 0.3708(3) 0.1763(3) -0.3183(2)
H6 H 0.4553 0.2435 -0.2952
C13 C 0.3622(3) 0.0880(3) -0.4101(2)
H7 H 0.4412 0.0947 -0.4494
C14 C 0.2408(3) -0.0089(3) -0.4449(2)
H8 H 0.2348 -0.0683 -0.5086
C15 C 0.1274(3) -0.0197(3) -0.3869(2)
H9 H 0.0436 -0.0876 -0.4106
C16 C 0.1343(3) 0.0669(3) -0.2948(2)
H10 H 0.0556 0.0581 -0.2554
C17 C -0.0407(3) 0.3695(3) 0.0570(2)
C18 C 0.0359(3) 0.2914(3) 0.1004(2)
C19 C 0.1193(3) 0.1976(3) 0.1561(2)
C20 C 0.1635(3) 0.2313(4) 0.2624(3)
H11 H 0.1396 0.3155 0.2976
C21 C 0.2424(4) 0.1420(5) 0.3167(4)
H12 H 0.2736 0.1657 0.3891
C22 C 0.2757(4) 0.0193(6) 0.2664(5)
H13 H 0.3299 -0.0414 0.3042
C23 C 0.2314(5) -0.0162(5) 0.1617(4)
H14 H 0.2530 -0.1022 0.1276
C24 C 0.1548(4) 0.0739(4) 0.1061(3)
H15 H 0.1266 0.0507 0.0334
C25 C 0.4473(4) 0.8020(3) -0.0472(2)
H16 H 0.5532 0.8406 -0.0363
H17 H 0.4093 0.8173 0.0194
C26 C 0.3601(4) 0.8719(3) -0.1276(2)
H18 H 0.2675 0.8983 -0.1044
H19 H 0.4190 0.9573 -0.1413
C27 C 0.3264(4) 0.7650(4) -0.2229(3)
H20 H 0.2182 0.7373 -0.2411
H21 H 0.3633 0.8036 -0.2820
C28 C 0.4021(4) 0.6437(3) -0.1979(2)
H22 H 0.3390 0.5551 -0.2277
H23 H 0.4965 0.6452 -0.2262
C1A C -0.3650(3) 0.4284(3) -0.12426(19)
Mg2A Mg -0.16810(9) 0.51834(9) -0.01200(7)
C2A C -0.3038(3) 0.4112(3) -0.2006(2)
C3A C -0.2451(3) 0.3938(3) -0.2977(2)
C4A C -0.3314(3) 0.4159(3) -0.3886(2)
H1A H -0.4292 0.4390 -0.3870
C5A C -0.2764(4) 0.4047(3) -0.4807(2)
H2A H -0.3365 0.4195 -0.5423
C6A C -0.1341(4) 0.3720(3) -0.4840(2)
H3A H -0.0958 0.3652 -0.5475
C7A C -0.0483(3) 0.3492(3) -0.3949(2)
H4A H 0.0493 0.3260 -0.3973
C8A C -0.1024(3) 0.3597(3) -0.3023(2)
H5A H -0.0420 0.3436 -0.2412
C9A C -0.2745(3) 0.6488(3) 0.0891(2)
C10A C -0.2649(3) 0.7361(3) 0.1651(2)
C11A C -0.2566(3) 0.8326(3) 0.25940(19)
C12A C -0.3708(3) 0.8237(3) 0.3183(2)
H6A H -0.4553 0.7565 0.2952
C13A C -0.3622(3) 0.9120(3) 0.4101(2)
H7A H -0.4412 0.9053 0.4494
C14A C -0.2408(3) 1.0089(3) 0.4449(2)
H8A H -0.2348 1.0683 0.5086
C15A C -0.1274(3) 1.0197(3) 0.3869(2)
H9A H -0.0436 1.0876 0.4106
C16A C -0.1343(3) 0.9331(3) 0.2948(2)
H10A H -0.0556 0.9419 0.2554
C17A C 0.0407(3) 0.6305(3) -0.0570(2)
C18A C -0.0359(3) 0.7086(3) -0.1004(2)
C19A C -0.1193(3) 0.8024(3) -0.1561(2)
C20A C -0.1635(3) 0.7687(4) -0.2624(3)
H11A H -0.1396 0.6845 -0.2976
C21A C -0.2424(4) 0.8580(5) -0.3167(4)
H12A H -0.2736 0.8343 -0.3891
C22A C -0.2757(4) 0.9807(6) -0.2664(5)
H13A H -0.3299 1.0414 -0.3042
C23A C -0.2314(5) 1.0162(5) -0.1617(4)
H14A H -0.2530 1.1022 -0.1276
C24A C -0.1548(4) 0.9261(4) -0.1061(3)
H15A H -0.1266 0.9493 -0.0334
O1A O 0.5705(2) 0.34474(18) 0.08610(13)
C25A C 0.5527(4) 0.1980(3) 0.0472(2)
H16A H 0.4468 0.1594 0.0363
H17A H 0.5907 0.1827 -0.0194
C26A C 0.6399(4) 0.1281(3) 0.1276(2)
H18A H 0.7325 0.1017 0.1044
H19A H 0.5810 0.0427 0.1413
C27A C 0.6736(4) 0.2350(4) 0.2229(3)
H20A H 0.7818 0.2627 0.2411
H21A H 0.6367 0.1964 0.2820
C28A C 0.5979(4) 0.3563(3) 0.1979(2)
H22A H 0.6610 0.4449 0.2277
H23A H 0.5035 0.3548 0.2262
Mg1_2 Mg -0.5000 0.5000 0.0000
C1A_2 C 0.6350(3) 0.4284(3) -0.12426(19)
C9A_2 C 0.7255(3) 0.6488(3) 0.0891(2)
loop_
_geom_bond_atom_site_label_1
_geom_bond_atom_site_label_2
_geom_bond_site_symmetry_1
_geom_bond_site_symmetry_2
Mg1 O1 1_555 1_555
O1 C25 1_555 1_555
C1 Mg1 1_555 1_555
Mg2 C1 1_555 1_555
C2 C1 1_555 1_555
C3 C2 1_555 1_555
C4 C3 1_555 1_555
H1 C4 1_555 1_555
C5 C4 1_555 1_555
H2 C5 1_555 1_555
C6 C5 1_555 1_555
H3 C6 1_555 1_555
C7 C6 1_555 1_555
H4 C7 1_555 1_555
C8 C3 1_555 1_555
H5 C8 1_555 1_555
C9 Mg1 1_555 1_555
C10 C9 1_555 1_555
C11 C10 1_555 1_555
C12 C11 1_555 1_555
H6 C12 1_555 1_555
C13 C12 1_555 1_555
H7 C13 1_555 1_555
C14 C13 1_555 1_555
H8 C14 1_555 1_555
C15 C14 1_555 1_555
H9 C15 1_555 1_555
C16 C11 1_555 1_555
H10 C16 1_555 1_555
C17 Mg2 1_555 1_555
C18 Mg2 1_555 1_555
C19 C18 1_555 1_555
C20 C19 1_555 1_555
H11 C20 1_555 1_555
C21 C20 1_555 1_555
H12 C21 1_555 1_555
C22 C21 1_555 1_555
H13 C22 1_555 1_555
C23 C22 1_555 1_555
H14 C23 1_555 1_555
C24 C19 1_555 1_555
H15 C24 1_555 1_555
C25 H16 1_555 1_555
H17 C25 1_555 1_555
C26 C25 1_555 1_555
H18 C26 1_555 1_555
H19 C26 1_555 1_555
C27 C26 1_555 1_555
H20 C27 1_555 1_555
H21 C27 1_555 1_555
C28 O1 1_555 1_555
H22 C28 1_555 1_555
H23 C28 1_555 1_555
C1A Mg2A 1_555 1_555
Mg2A C17 1_555 1_555
C2A C1A 1_555 1_555
C3A C2A 1_555 1_555
C4A C3A 1_555 1_555
H1A C4A 1_555 1_555
C5A C4A 1_555 1_555
H2A C5A 1_555 1_555
C6A C5A 1_555 1_555
H3A C6A 1_555 1_555
C7A C6A 1_555 1_555
H4A C7A 1_555 1_555
C8A C3A 1_555 1_555
H5A C8A 1_555 1_555
C9A Mg2A 1_555 1_555
C10A C9A 1_555 1_555
C11A C10A 1_555 1_555
C12A C11A 1_555 1_555
H6A C12A 1_555 1_555
C13A C12A 1_555 1_555
H7A C13A 1_555 1_555
C14A C13A 1_555 1_555
H8A C14A 1_555 1_555
C15A C14A 1_555 1_555
H9A C15A 1_555 1_555
C16A C11A 1_555 1_555
H10A C16A 1_555 1_555
C17A Mg2 1_555 1_555
C18A Mg2A 1_555 1_555
C19A C18A 1_555 1_555
C20A C19A 1_555 1_555
H11A C20A 1_555 1_555
C21A C20A 1_555 1_555
H12A C21A 1_555 1_555
C22A C21A 1_555 1_555
H13A C22A 1_555 1_555
C23A C22A 1_555 1_555
H14A C23A 1_555 1_555
C24A C19A 1_555 1_555
H15A C24A 1_555 1_555
O1A Mg1 1_555 1_555
C25A O1A 1_555 1_555
H16A C25A 1_555 1_555
H17A C25A 1_555 1_555
C26A C25A 1_555 1_555
H18A C26A 1_555 1_555
H19A C26A 1_555 1_555
C27A C26A 1_555 1_555
H20A C27A 1_555 1_555
H21A C27A 1_555 1_555
C28A O1A 1_555 1_555
H22A C28A 1_555 1_555
H23A C28A 1_555 1_555
Mg1_2 C1A 1_555 1_555
C1A_2 Mg1 1_555 1_555
C9A_2 Mg1 1_555 1_555
Mg2 C2 1_555 1_555
Mg2 C9 1_555 1_555
C7 C8 1_555 1_555
C15 C16 1_555 1_555
C17 C18 1_555 1_555
C23 C24 1_555 1_555
C27 C28 1_555 1_555
Mg2A C2A 1_555 1_555
Mg2A C17A 1_555 1_555
C7A C8A 1_555 1_555
C9A Mg1_2 1_555 1_555
C15A C16A 1_555 1_555
C17A C18A 1_555 1_555
C23A C24A 1_555 1_555
C27A C28A 1_555 1_555

#END
