
#######################################################################
#
#                 Cambridge Crystallographic Data Centre
#                                CCDC 
#
#######################################################################
#
# If this CIF has been generated from an entry in the Cambridge 
# Structural Database, then it will include bibliographic, chemical, 
# crystal, experimental, refinement or atomic coordinate data resulting 
# from the CCDC's data processing and validation procedures.
#
#######################################################################

data_AFAMAW
_symmetry_cell_setting           triclinic
_symmetry_space_group_name_H-M   'P -1'
_symmetry_Int_Tables_number      2
_space_group_name_Hall           '-P 1'
loop_
_symmetry_equiv_pos_site_id
_symmetry_equiv_pos_as_xyz
1 x,y,z
2 -x,-y,-z
_cell_length_a                   13.570(3)
_cell_length_b                   15.562(3)
_cell_length_c                   19.536(4)
_cell_angle_alpha                76.14(3)
_cell_angle_beta                 80.91(3)
_cell_angle_gamma                65.71(3)
_cell_volume                     3642.6
loop_
_atom_site_label
_atom_site_type_symbol
_atom_site_fract_x
_atom_site_fract_y
_atom_site_fract_z
W1 W -0.27943(5) -0.23300(5) 0.26496(3)
W2 W -0.22999(6) -0.05056(5) 0.30079(4)
W3 W -0.03716(6) -0.22835(5) 0.42948(3)
W4 W 0.17361(6) -0.42005(5) 0.37622(3)
W5 W -0.05638(5) -0.44069(5) 0.20602(4)
W6 W -0.20304(6) -0.08200(5) 0.12888(3)
W7 W 0.20340(6) -0.45447(5) 0.19219(4)
W8 W 0.07306(6) -0.08973(5) 0.11385(3)
W9 W 0.04975(6) -0.06515(5) 0.28692(4)
W10 W 0.25721(5) -0.25820(5) 0.22960(3)
W11 W 0.02378(6) -0.28774(5) 0.07275(3)
W12 W -0.08345(6) -0.41208(5) 0.39057(3)
P1 P -0.0098(3) -0.2532(3) 0.2496(2)
Cu1 Cu 0.6070(2) 0.14463(16) -0.30021(11)
Cu2 Cu 0.58766(19) -0.35146(16) 0.19849(10)
Cu3 Cu 0.3546(2) -0.6640(2) 0.10451(16)
Cu4 Cu -0.3317(2) 0.1726(2) 0.38424(16)
O1 O -0.2112(9) -0.3125(7) 0.3464(5)
O2 O -0.1628(8) -0.1395(9) 0.3820(6)
O3 O 0.2017(9) -0.1503(8) 0.2761(5)
O4 O -0.0508(9) -0.4608(8) 0.3059(6)
O5 O 0.0331(9) -0.1501(8) 0.3707(6)
O6 O -0.2975(9) -0.1466(7) 0.1753(5)
O7 O 0.0624(8) -0.1949(7) 0.2297(5)
O8 O 0.2320(9) -0.3327(8) 0.3177(6)
O9 O 0.0045(9) -0.3064(8) 0.3272(6)
O10 O -0.0789(9) -0.0533(7) 0.1209(5)
O11 O 0.2200(9) -0.1705(8) 0.1437(5)
O12 O -0.1041(8) -0.0269(8) 0.2820(6)
O13 O 0.3901(9) -0.2795(8) 0.2259(6)
O14 O 0.0807(9) -0.1986(8) 0.0801(5)
O15 O -0.1923(9) -0.3328(8) 0.2158(6)
O16 O -0.4011(9) -0.2453(8) 0.2757(5)
O17 O -0.3177(9) -0.1239(7) 0.3069(6)
O18 O 0.0677(9) -0.4738(8) 0.4095(6)
O19 O -0.2592(9) -0.0083(8) 0.2030(5)
O20 O 0.0979(10) -0.5096(8) 0.2006(6)
O21 O -0.1150(9) -0.1914(8) 0.0891(6)
O22 O -0.2779(9) -0.0058(8) 0.0633(6)
O23 O 0.0582(9) -0.0201(8) 0.1871(6)
O24 O 0.0297(10) -0.2836(9) -0.0163(5)
O25 O 0.2559(10) -0.3590(8) 0.1890(5)
O26 O 0.1014(9) -0.3295(8) 0.4374(5)
O27 O -0.0411(9) -0.3822(8) 0.1101(6)
O28 O -0.1029(11) -0.5235(9) 0.1972(7)
O29 O 0.2766(9) -0.4980(9) 0.4218(7)
O30 O 0.0265(9) -0.3275(8) 0.2025(5)
O31 O -0.1278(8) -0.1859(7) 0.2417(5)
O32 O 0.3216(10) -0.5521(9) 0.1763(6)
O33 O -0.1355(10) -0.4876(9) 0.4453(6)
O34 O 0.1599(10) -0.3927(9) 0.0993(6)
O35 O 0.1944(9) -0.4700(8) 0.2923(6)
O36 O -0.0938(9) -0.3267(9) 0.4504(6)
O37 O 0.0626(10) 0.0214(9) 0.3167(7)
O38 O -0.0593(11) -0.1949(10) 0.5092(6)
O39 O 0.0977(11) -0.0164(9) 0.0422(7)
O40 O -0.3226(9) 0.0457(9) 0.3335(6)
C1 C 0.5349(15) 0.0107(12) -0.1993(9)
H1 H 0.4815 0.0287 -0.2304
C2 C 0.5318(14) -0.0513(12) -0.1353(8)
H2 H 0.4773 -0.0750 -0.1240
C3 C 0.6091(12) -0.0769(10) -0.0894(7)
C4 C 0.6926(14) -0.0450(11) -0.1079(8)
H3 H 0.7493 -0.0650 -0.0790
C5 C 0.6874(16) 0.0188(14) -0.1722(9)
H4 H 0.7404 0.0444 -0.1836
C6 C 0.5040(13) -0.2053(11) 0.0780(8)
H5 H 0.4377 -0.2040 0.1002
C7 C 0.5007(15) -0.1403(13) 0.0144(9)
H6 H 0.4352 -0.0989 -0.0049
C8 C 0.6000(13) -0.1396(12) -0.0195(8)
C9 C 0.6924(13) -0.2025(11) 0.0140(8)
H7 H 0.7594 -0.2033 -0.0064
C10 C 0.6878(14) -0.2656(11) 0.0784(9)
H8 H 0.7516 -0.3063 0.1000
C11 C 0.5262(13) -0.4852(12) 0.3032(9)
H9 H 0.4715 -0.4678 0.2732
C12 C 0.5229(13) -0.5439(11) 0.3671(8)
H10 H 0.4657 -0.5641 0.3797
C13 C 0.6033(12) -0.5739(10) 0.4135(7)
C14 C 0.6849(13) -0.5388(11) 0.3899(8)
H11 H 0.7427 -0.5565 0.4175
C15 C 0.6787(13) -0.4761(11) 0.3238(8)
H12 H 0.7316 -0.4508 0.3095
C16 C 0.5119(13) -0.7112(11) 0.5779(8)
H13 H 0.4480 -0.7176 0.5985
C17 C 0.5065(14) -0.6473(12) 0.5153(8)
H14 H 0.4409 -0.6100 0.4949
C18 C 0.6030(12) -0.6400(10) 0.4830(7)
C19 C 0.6941(14) -0.6886(11) 0.5177(8)
H15 H 0.7571 -0.6794 0.4987
C20 C 0.6960(13) -0.7528(12) 0.5820(8)
H16 H 0.7605 -0.7867 0.6043
C21 C -0.265(2) 0.0299(19) 0.5245(14)
H17 H -0.1938 0.0209 0.5086
C22 C -0.283(3) -0.023(2) 0.5863(15)
H18 H -0.2264 -0.0671 0.6133
C23 C -0.388(3) -0.009(2) 0.6083(17)
H19 H -0.4021 -0.0421 0.6527
C24 C -0.473(3) 0.0496(18) 0.5690(12)
H20 H -0.5439 0.0535 0.5812
C25 C -0.443(2) 0.1036(15) 0.5081(11)
C26 C -0.5253(16) 0.1757(13) 0.4609(10)
C27 C -0.640(2) 0.2058(16) 0.4771(13)
H21 H -0.6650 0.1804 0.5211
C28 C -0.714(2) 0.270(2) 0.4308(12)
H22 H -0.7875 0.2894 0.4436
C29 C -0.677(2) 0.3072(16) 0.3624(13)
H23 H -0.7235 0.3515 0.3288
C30 C -0.5655(19) 0.2721(17) 0.3499(12)
H24 H -0.5384 0.2901 0.3045
C31 C 0.276(2) -0.5089(19) -0.0294(14)
H25 H 0.2063 -0.4957 -0.0082
C32 C 0.291(2) -0.4592(17) -0.0953(13)
H26 H 0.2330 -0.4169 -0.1221
C33 C 0.394(2) -0.475(2) -0.1196(15)
H27 H 0.4052 -0.4392 -0.1634
C34 C 0.486(2) -0.5393(19) -0.0852(12)
H28 H 0.5568 -0.5492 -0.1027
C35 C 0.4568(18) -0.5866(14) -0.0212(10)
C36 C 0.5457(15) -0.6649(13) 0.0227(9)
C37 C 0.6600(18) -0.7029(15) 0.0023(12)
H29 H 0.6827 -0.6802 -0.0433
C38 C 0.7348(18) -0.7685(18) 0.0445(11)
H30 H 0.8082 -0.7877 0.0302
C39 C 0.7003(18) -0.8071(15) 0.1103(13)
H31 H 0.7484 -0.8559 0.1412
C40 C 0.5890(18) -0.7685(16) 0.1277(12)
H32 H 0.5662 -0.7898 0.1736
C41 C 0.1476(18) -0.6799(14) 0.1165(10)
H33 H 0.1435 -0.6490 0.0694
C42 C 0.0627(18) -0.6982(15) 0.1519(11)
H34 H 0.0018 -0.6809 0.1274
C43 C 0.0604(17) -0.7413(15) 0.2227(10)
C44 C 0.1536(18) -0.7638(14) 0.2557(12)
H35 H 0.1590 -0.7919 0.3034
C45 C 0.2389(18) -0.7435(14) 0.2161(15)
H36 H 0.2996 -0.7577 0.2399
C46 C -0.1949(18) -0.7865(15) 0.2628(13)
H37 H -0.2452 -0.7903 0.2376
C47 C -0.1054(18) -0.7748(17) 0.2267(10)
H38 H -0.0918 -0.7777 0.1789
C48 C -0.038(2) -0.7591(16) 0.2595(12)
C49 C -0.0545(17) -0.7647(16) 0.3315(11)
H39 H -0.0058 -0.7569 0.3557
C50 C -0.141(2) -0.782(2) 0.3682(13)
H40 H -0.1507 -0.7852 0.4169
N1 N 0.6148(12) 0.0457(10) -0.2175(7)
N2 N 0.5910(11) -0.2683(9) 0.1099(7)
N3 N 0.6025(11) -0.4524(10) 0.2823(7)
N4 N 0.6046(13) -0.7662(10) 0.6122(7)
N5 N -0.3432(14) 0.0938(12) 0.4850(9)
N6 N -0.4929(14) 0.2144(12) 0.3975(9)
N7 N 0.5121(16) -0.7052(13) 0.0863(9)
N8 N 0.3623(15) -0.5776(14) 0.0053(9)
N9 N 0.2418(15) -0.7074(14) 0.1507(10)
N10 N -0.2143(15) -0.7929(13) 0.3343(11)
Cu1_2 Cu 0.6070(2) -0.85537(16) 0.69979(11)
Cu2_2 Cu -0.41234(19) -0.35146(16) 0.19849(10)
Cu4_2 Cu -0.3317(2) -0.8274(2) 0.38424(16)
O16_2 O 0.5989(9) -0.2453(8) 0.2757(5)
N4_2 N 0.6046(13) 0.2338(10) -0.3878(7)
N10_2 N -0.2143(15) 0.2071(13) 0.3343(11)
O41 O 0.0000 -0.5000 0.0000
loop_
_geom_bond_atom_site_label_1
_geom_bond_atom_site_label_2
_geom_bond_site_symmetry_1
_geom_bond_site_symmetry_2
W1 O1 1_555 1_555
W2 O2 1_555 1_555
W3 O2 1_555 1_555
W4 O8 1_555 1_555
W5 O4 1_555 1_555
W6 O6 1_555 1_555
W7 O20 1_555 1_555
W8 O7 1_555 1_555
W9 O3 1_555 1_555
W10 O3 1_555 1_555
W11 O14 1_555 1_555
W12 O1 1_555 1_555
P1 O7 1_555 1_555
Cu1 N1 1_555 1_555
Cu2 O13 1_555 1_555
Cu3 O32 1_555 1_555
Cu4 O40 1_555 1_555
O4 W12 1_555 1_555
O5 W3 1_555 1_555
O6 W1 1_555 1_555
O7 W9 1_555 1_555
O8 W10 1_555 1_555
O9 W3 1_555 1_555
O10 W6 1_555 1_555
O11 W8 1_555 1_555
O12 W2 1_555 1_555
O13 W10 1_555 1_555
O14 W8 1_555 1_555
O15 W1 1_555 1_555
O16 W1 1_555 1_555
O17 W1 1_555 1_555
O18 W4 1_555 1_555
O19 W2 1_555 1_555
O20 W5 1_555 1_555
O21 W6 1_555 1_555
O22 W6 1_555 1_555
O23 W8 1_555 1_555
O24 W11 1_555 1_555
O25 W7 1_555 1_555
O26 W3 1_555 1_555
O27 W5 1_555 1_555
O28 W5 1_555 1_555
O29 W4 1_555 1_555
O30 W5 1_555 1_555
O31 W1 1_555 1_555
O32 W7 1_555 1_555
O33 W12 1_555 1_555
O34 W7 1_555 1_555
O35 W4 1_555 1_555
O36 W3 1_555 1_555
O37 W9 1_555 1_555
O38 W3 1_555 1_555
O39 W8 1_555 1_555
O40 W2 1_555 1_555
C1 H1 1_555 1_555
C2 C1 1_555 1_555
H2 C2 1_555 1_555
C3 C2 1_555 1_555
C4 C3 1_555 1_555
H3 C4 1_555 1_555
C5 C4 1_555 1_555
H4 C5 1_555 1_555
C6 H5 1_555 1_555
C7 C6 1_555 1_555
H6 C7 1_555 1_555
C8 C3 1_555 1_555
C9 C8 1_555 1_555
H7 C9 1_555 1_555
C10 C9 1_555 1_555
H8 C10 1_555 1_555
C11 H9 1_555 1_555
C12 C11 1_555 1_555
H10 C12 1_555 1_555
C13 C12 1_555 1_555
C14 C13 1_555 1_555
H11 C14 1_555 1_555
C15 C14 1_555 1_555
H12 C15 1_555 1_555
C16 H13 1_555 1_555
C17 C16 1_555 1_555
H14 C17 1_555 1_555
C18 C13 1_555 1_555
C19 C18 1_555 1_555
H15 C19 1_555 1_555
C20 C19 1_555 1_555
H16 C20 1_555 1_555
C21 H17 1_555 1_555
C22 C21 1_555 1_555
H18 C22 1_555 1_555
C23 C22 1_555 1_555
H19 C23 1_555 1_555
C24 C23 1_555 1_555
H20 C24 1_555 1_555
C25 C24 1_555 1_555
C26 C25 1_555 1_555
C27 C26 1_555 1_555
H21 C27 1_555 1_555
C28 C27 1_555 1_555
H22 C28 1_555 1_555
C29 C28 1_555 1_555
H23 C29 1_555 1_555
C30 C29 1_555 1_555
H24 C30 1_555 1_555
C31 H25 1_555 1_555
C32 C31 1_555 1_555
H26 C32 1_555 1_555
C33 C32 1_555 1_555
H27 C33 1_555 1_555
C34 C33 1_555 1_555
H28 C34 1_555 1_555
C35 C34 1_555 1_555
C36 C35 1_555 1_555
C37 C36 1_555 1_555
H29 C37 1_555 1_555
C38 C37 1_555 1_555
H30 C38 1_555 1_555
C39 C38 1_555 1_555
H31 C39 1_555 1_555
C40 C39 1_555 1_555
H32 C40 1_555 1_555
C41 H33 1_555 1_555
C42 C41 1_555 1_555
H34 C42 1_555 1_555
C43 C42 1_555 1_555
C44 C43 1_555 1_555
H35 C44 1_555 1_555
C45 C44 1_555 1_555
H36 C45 1_555 1_555
C46 H37 1_555 1_555
C47 C46 1_555 1_555
H38 C47 1_555 1_555
C48 C43 1_555 1_555
C49 C48 1_555 1_555
H39 C49 1_555 1_555
C50 C49 1_555 1_555
H40 C50 1_555 1_555
N1 C1 1_555 1_555
N2 Cu2 1_555 1_555
N3 Cu2 1_555 1_555
N4 C16 1_555 1_555
N5 Cu4 1_555 1_555
N6 Cu4 1_555 1_555
N7 Cu3 1_555 1_555
N8 Cu3 1_555 1_555
N9 Cu3 1_555 1_555
N10 C46 1_555 1_555
Cu1_2 N4 1_555 1_555
Cu2_2 O16 1_555 1_555
Cu4_2 N10 1_555 1_555
O16_2 Cu2 1_555 1_555
N4_2 Cu1 1_555 1_555
N10_2 Cu4 1_555 1_555
W2 O17 1_555 1_555
W2 O31 1_555 1_555
W4 O9 1_555 1_555
W4 O26 1_555 1_555
W5 O15 1_555 1_555
W6 O19 1_555 1_555
W6 O31 1_555 1_555
W7 O30 1_555 1_555
W7 O35 1_555 1_555
W8 O10 1_555 1_555
W9 O5 1_555 1_555
W9 O12 1_555 1_555
W9 O23 1_555 1_555
W10 O7 1_555 1_555
W10 O11 1_555 1_555
W10 O25 1_555 1_555
W11 O21 1_555 1_555
W11 O27 1_555 1_555
W11 O30 1_555 1_555
W11 O34 1_555 1_555
W12 O9 1_555 1_555
W12 O18 1_555 1_555
W12 O36 1_555 1_555
P1 O9 1_555 1_555
P1 O30 1_555 1_555
P1 O31 1_555 1_555
C5 N1 1_555 1_555
C6 N2 1_555 1_555
C7 C8 1_555 1_555
C10 N2 1_555 1_555
C11 N3 1_555 1_555
C15 N3 1_555 1_555
C17 C18 1_555 1_555
C20 N4 1_555 1_555
C21 N5 1_555 1_555
C25 N5 1_555 1_555
C26 N6 1_555 1_555
C30 N6 1_555 1_555
C31 N8 1_555 1_555
C35 N8 1_555 1_555
C36 N7 1_555 1_555
C40 N7 1_555 1_555
C41 N9 1_555 1_555
C45 N9 1_555 1_555
C47 C48 1_555 1_555
C50 N10 1_555 1_555

#END
