
#######################################################################
#
#                 Cambridge Crystallographic Data Centre
#                                CCDC 
#
#######################################################################
#
# If this CIF has been generated from an entry in the Cambridge 
# Structural Database, then it will include bibliographic, chemical, 
# crystal, experimental, refinement or atomic coordinate data resulting 
# from the CCDC's data processing and validation procedures.
#
#######################################################################

data_AFAMEA
_symmetry_cell_setting           triclinic
_symmetry_space_group_name_H-M   'P -1'
_symmetry_Int_Tables_number      2
_space_group_name_Hall           '-P 1'
loop_
_symmetry_equiv_pos_site_id
_symmetry_equiv_pos_as_xyz
1 x,y,z
2 -x,-y,-z
_cell_length_a                   12.643(3)
_cell_length_b                   13.631(3)
_cell_length_c                   18.549(4)
_cell_angle_alpha                89.57(3)
_cell_angle_beta                 85.82(3)
_cell_angle_gamma                75.52(3)
_cell_volume                     3086.71
loop_
_atom_site_label
_atom_site_type_symbol
_atom_site_fract_x
_atom_site_fract_y
_atom_site_fract_z
P1 P 0.2448(3) -0.0131(2) 0.24339(18)
Mo1 Mo 0.39718(9) 0.08097(8) 0.10091(6)
Mo2 Mo 0.38752(9) 0.17209(8) 0.27462(6)
Mo3 Mo 0.08945(9) -0.09783(8) 0.38709(6)
Mo4 Mo -0.00255(8) 0.14517(8) 0.32175(6)
Mo5 Mo 0.09995(9) -0.19653(9) 0.20024(7)
Mo6 Mo 0.34564(9) -0.26565(8) 0.30605(6)
Mo7 Mo 0.16106(9) 0.23799(8) 0.17633(6)
Mo8 Mo 0.47851(9) -0.08750(9) 0.34546(6)
Mo9 Mo 0.21855(9) 0.08618(9) 0.42289(6)
Mo10 Mo 0.49644(9) -0.17806(9) 0.17083(6)
Mo11 Mo 0.25397(9) -0.11528(9) 0.06512(6)
Mo12 Mo 0.01593(9) 0.04258(9) 0.13538(6)
O1 O -0.1230(8) 0.2287(8) 0.3449(5)
O2 O 0.4714(7) 0.0430(7) 0.2980(5)
O3 O 0.2804(6) 0.0809(6) 0.2128(4)
O4 O 0.0548(7) -0.1405(7) 0.2972(5)
O5 O 0.3821(7) -0.1798(7) 0.1136(5)
O6 O 0.2384(9) 0.1348(8) 0.5030(5)
O7 O 0.1810(6) -0.0537(6) 0.1869(4)
O8 O 0.2303(8) -0.1888(7) 0.3738(5)
O9 O 0.2335(8) -0.2592(7) 0.2433(5)
O10 O 0.2913(7) 0.1617(7) 0.3548(5)
O11 O 0.1550(7) -0.0203(7) 0.4524(5)
O12 O 0.1698(7) 0.0159(7) 0.3133(5)
O13 O -0.0301(7) 0.0845(7) 0.2382(5)
O14 O 0.4550(8) -0.2826(7) 0.2291(5)
O15 O 0.3463(6) -0.0987(6) 0.2603(5)
O16 O 0.3582(8) -0.0191(7) 0.4040(5)
O17 O 0.2888(8) -0.1655(8) -0.0182(5)
O18 O 0.0831(8) 0.1511(7) 0.1351(5)
O19 O 0.4755(8) 0.1056(8) 0.0295(6)
O20 O 0.5622(7) -0.1443(7) 0.2555(5)
O21 O 0.3665(9) -0.3860(8) 0.3368(6)
O22 O 0.2744(7) 0.2004(7) 0.1015(5)
O23 O 0.0231(9) -0.1600(8) 0.4457(6)
O24 O 0.1088(8) -0.0222(8) 0.0573(5)
O25 O 0.0389(9) -0.2925(8) 0.1991(6)
O26 O 0.3112(8) 0.0031(7) 0.0635(5)
O27 O -0.0103(8) -0.0857(8) 0.1661(5)
O28 O 0.4442(7) -0.2125(7) 0.3632(5)
O29 O -0.0221(7) 0.0281(7) 0.3772(5)
O30 O 0.0765(7) 0.2233(7) 0.2651(5)
O31 O 0.0839(7) 0.1694(7) 0.4016(5)
O32 O 0.4861(8) -0.0427(7) 0.1391(5)
O33 O 0.4593(9) 0.2494(8) 0.3080(6)
O34 O -0.1010(8) 0.0953(9) 0.0974(6)
Cu1 Cu 0.49490(17) 0.39641(17) 0.35331(10)
Cu2 Cu 0.99910(17) 0.45757(19) -0.13826(10)
O35 O 0.4511(8) 0.1514(7) 0.1780(5)
O36 O 0.1765(8) -0.2086(8) 0.1084(5)
O37 O 0.2671(8) 0.2729(7) 0.2354(5)
O38 O 0.6077(8) -0.2468(8) 0.1220(6)
O39 O 0.5835(9) -0.0923(9) 0.3981(6)
N1 N 0.5929(9) 0.4062(9) 0.2730(6)
O40 O 0.0936(9) 0.3554(8) 0.1511(6)
N2 N 0.4113(10) 0.4078(9) 0.4448(7)
Cu3 Cu 0.25208(17) 0.45459(16) 0.24496(10)
N3 N 0.3394(10) 0.4664(9) 0.1591(6)
N4 N 0.0969(10) 0.4505(9) 0.7785(7)
N5 N 0.8395(10) 0.5278(9) -0.3333(7)
C1 C 0.4656(10) 0.4925(10) 0.0335(6)
C2 C 0.7243(11) 0.4199(11) 0.1464(7)
C3 C 0.9672(10) 0.5065(10) -0.4645(7)
C4 C 0.2961(11) 0.4222(11) 0.5784(7)
N6 N 0.9135(11) 0.4491(10) -0.0495(6)
C5 C 0.3399(12) 0.5577(11) 0.1342(8)
H1 H 0.2985 0.6138 0.1605
C6 C 0.2317(10) 0.4306(10) 0.6501(7)
C7 C 0.4663(13) 0.3980(10) 0.0606(8)
H2 H 0.5088 0.3404 0.0365
C8 C 0.4051(13) 0.3883(11) 0.1226(8)
H3 H 0.4094 0.3235 0.1404
C9 C 0.9200(12) 0.5984(11) -0.4340(8)
H4 H 1.0699 0.3435 -0.5429
C10 C 0.1566(12) 0.5213(11) 0.6692(8)
H5 H 0.1485 0.5769 0.6388
C11 C 0.7929(10) 0.4299(10) 0.0785(7)
C12 C 0.1728(13) 0.3636(12) 0.7594(8)
H6 H 0.1791 0.3090 0.7905
C13 C 0.8563(12) 0.6073(12) -0.3685(8)
H7 H 1.1752 0.3284 -0.6510
C14 C 0.9219(13) 0.3599(13) -0.0195(8)
H8 H 0.9669 0.3031 -0.0433
C15 C 0.7361(14) 0.3321(13) 0.1830(9)
H9 H 0.7890 0.2750 0.1661
C16 C 0.3993(12) 0.5744(12) 0.0705(8)
H10 H 0.3938 0.6398 0.0537
C17 C 0.3302(12) 0.3313(11) 0.5422(8)
H11 H 0.3151 0.2734 0.5627
C18 C 0.5855(13) 0.4926(11) 0.2388(8)
H12 H 0.5352 0.5501 0.2577
C19 C 0.2415(12) 0.3508(12) 0.6968(9)
H13 H 0.2930 0.2898 0.6866
C20 C 0.3872(13) 0.3255(12) 0.4751(8)
H14 H 0.4091 0.2636 0.4506
C21 C 0.3800(13) 0.4939(12) 0.4774(8)
H15 H 0.3975 0.5499 0.4552
C22 C 0.8660(12) 0.3460(12) 0.0471(8)
H16 H 0.8780 0.2829 0.0688
C23 C 0.3204(13) 0.5075(12) 0.5450(8)
H17 H 0.2978 0.5711 0.5671
C24 C 0.0943(13) 0.5277(12) 0.7339(8)
H18 H 0.0473 0.5900 0.7473
C25 C 0.6483(12) 0.5024(12) 0.1763(8)
H19 H 0.6391 0.5653 0.1544
C26 C 1.1193(14) 0.5625(12) -0.6375(8)
H20 H 1.1364 0.6181 -0.6604
C27 C 0.7834(12) 0.5228(11) 0.0463(8)
H21 H 0.7363 0.5809 0.0671
C28 C 0.6708(15) 0.3257(14) 0.2455(10)
H22 H 0.6809 0.2641 0.2692
C29 C 1.0514(15) 0.5789(13) -0.5739(9)
H23 H 1.0188 0.6443 -0.5570
C30 C 0.8457(13) 0.5279(12) -0.0178(9)
H24 H 0.8388 0.5908 -0.0393
P1A P 0.7552(3) 1.0131(2) -0.24339(18)
Mo1A Mo 0.60282(9) 0.91903(8) -0.10091(6)
Mo2A Mo 0.61248(9) 0.82791(8) -0.27462(6)
Mo3A Mo 0.91055(9) 1.09783(8) -0.38709(6)
Mo4A Mo 1.00255(8) 0.85483(8) -0.32175(6)
Mo5A Mo 0.90005(9) 1.19653(9) -0.20024(7)
Mo6A Mo 0.65436(9) 1.26565(8) -0.30605(6)
Mo7A Mo 0.83894(9) 0.76201(8) -0.17633(6)
Mo8A Mo 0.52149(9) 1.08750(9) -0.34546(6)
Mo9A Mo 0.78145(9) 0.91382(9) -0.42289(6)
Mo10A Mo 0.50356(9) 1.17806(9) -0.17083(6)
Mo11A Mo 0.74603(9) 1.11528(9) -0.06512(6)
Mo12A Mo 0.98407(9) 0.95742(9) -0.13538(6)
O1A O 1.1230(8) 0.7713(8) -0.3449(5)
O2A O 0.5286(7) 0.9570(7) -0.2980(5)
O3A O 0.7196(6) 0.9191(6) -0.2128(4)
O4A O 0.9452(7) 1.1405(7) -0.2972(5)
O5A O 0.6179(7) 1.1798(7) -0.1136(5)
O6A O 0.7616(9) 0.8652(8) -0.5030(5)
O7A O 0.8190(6) 1.0537(6) -0.1869(4)
O8A O 0.7697(8) 1.1888(7) -0.3738(5)
O9A O 0.7665(8) 1.2592(7) -0.2433(5)
O10A O 0.7087(7) 0.8383(7) -0.3548(5)
O11A O 0.8450(7) 1.0203(7) -0.4524(5)
O12A O 0.8302(7) 0.9841(7) -0.3133(5)
O13A O 1.0301(7) 0.9155(7) -0.2382(5)
O14A O 0.5450(8) 1.2826(7) -0.2291(5)
O15A O 0.6537(6) 1.0987(6) -0.2603(5)
O16A O 0.6418(8) 1.0191(7) -0.4040(5)
O17A O 0.7112(8) 1.1655(8) 0.0182(5)
O18A O 0.9169(8) 0.8489(7) -0.1351(5)
O19A O 0.5245(8) 0.8944(8) -0.0295(6)
O20A O 0.4378(7) 1.1443(7) -0.2555(5)
O21A O 0.6335(9) 1.3860(8) -0.3368(6)
O22A O 0.7256(7) 0.7996(7) -0.1015(5)
O23A O 0.9769(9) 1.1600(8) -0.4457(6)
O24A O 0.8912(8) 1.0222(8) -0.0573(5)
O25A O 0.9611(9) 1.2925(8) -0.1991(6)
O26A O 0.6888(8) 0.9969(7) -0.0635(5)
O27A O 1.0103(8) 1.0857(8) -0.1661(5)
O28A O 0.5558(7) 1.2125(7) -0.3632(5)
O29A O 1.0221(7) 0.9719(7) -0.3772(5)
O30A O 0.9235(7) 0.7767(7) -0.2651(5)
O31A O 0.9161(7) 0.8306(7) -0.4016(5)
O32A O 0.5139(8) 1.0427(7) -0.1391(5)
O33A O 0.5407(9) 0.7506(8) -0.3080(6)
O34A O 1.1010(8) 0.9047(9) -0.0974(6)
Cu1_2 Cu 1.49490(17) 0.39641(17) -0.64669(10)
Cu1A Cu 0.50510(17) 0.60359(17) -0.35331(10)
Cu2_2 Cu -0.00090(17) 0.45757(19) 0.86174(10)
Cu2A Cu 0.00090(17) 0.54243(19) 0.13826(10)
O35A O 0.5489(8) 0.8486(7) -0.1780(5)
O36A O 0.8235(8) 1.2086(8) -0.1084(5)
O37A O 0.7329(8) 0.7271(7) -0.2354(5)
O38A O 0.3923(8) 1.2468(8) -0.1220(6)
O39A O 0.4165(9) 1.0923(9) -0.3981(6)
N1A N 0.4071(9) 0.5938(9) -0.2730(6)
O40A O 0.9064(9) 0.6446(8) -0.1511(6)
N2_2 N 1.4113(10) 0.4078(9) -0.5552(7)
N2A N 0.5887(10) 0.5922(9) -0.4448(7)
Cu3A Cu 0.74792(17) 0.54541(16) -0.24496(10)
Cu3_2 Cu 1.25208(17) 0.45459(16) -0.75504(10)
N3A N 0.6606(10) 0.5336(9) -0.1591(6)
N4_2 N 1.0969(10) 0.4505(9) -0.2215(7)
N4A N -0.0969(10) 0.5495(9) 0.2215(7)
N5A N 0.1605(10) 0.4722(9) 0.3333(7)
N5A_2 N 1.1605(10) 0.4722(9) -0.6667(7)
C1A C 0.5344(10) 0.5075(10) -0.0335(6)
C2A C 0.2757(11) 0.5801(11) -0.1464(7)
C3A C 1.0328(10) 0.4935(10) -0.5355(7)
C4_2 C 1.2961(11) 0.4222(11) -0.4216(7)
N6A N 0.0865(11) 0.5509(10) 0.0495(6)
C5A C 0.6601(12) 0.4423(11) -0.1342(8)
H1A H 0.7015 0.3862 -0.1605
C6_2 C 1.2317(10) 0.4306(10) -0.3499(7)
C7A C 0.5337(13) 0.6020(10) -0.0606(8)
H2A H 0.4912 0.6596 -0.0365
C8A C 0.5949(13) 0.6117(11) -0.1226(8)
H3A H 0.5906 0.6765 -0.1404
C9A C 1.0800(12) 0.4016(11) -0.5660(8)
H4A H 0.9301 0.6565 -0.4571
C10_2 C 1.1566(12) 0.5213(11) -0.3308(8)
H5_2 H 1.1485 0.5769 -0.3612
C11A C 0.2071(10) 0.5701(10) -0.0785(7)
C12_2 C 1.1728(13) 0.3636(12) -0.2406(8)
H6_2 H 1.1791 0.3090 -0.2095
C13A C 1.1437(12) 0.3927(12) -0.6315(8)
H7A H 0.8248 0.6716 -0.3490
C14A C 0.0781(13) 0.6401(13) 0.0195(8)
H8A H 0.0331 0.6969 0.0433
C15A C 0.2639(14) 0.6679(13) -0.1830(9)
H9A H 0.2110 0.7250 -0.1661
C16A C 0.6007(12) 0.4256(12) -0.0705(8)
H10A H 0.6062 0.3602 -0.0537
C17_2 C 1.3302(12) 0.3313(11) -0.4578(8)
H11_2 H 1.3151 0.2734 -0.4373
C18A C 0.4145(13) 0.5074(11) -0.2388(8)
H12A H 0.4648 0.4499 -0.2577
C19_2 C 1.2415(12) 0.3508(12) -0.3032(9)
H13_2 H 1.2930 0.2898 -0.3134
C20_2 C 1.3872(13) 0.3255(12) -0.5249(8)
H14_2 H 1.4091 0.2636 -0.5494
C21_2 C 1.3800(13) 0.4939(12) -0.5226(8)
H15_2 H 1.3975 0.5499 -0.5448
C22A C 0.1340(12) 0.6540(12) -0.0471(8)
H16A H 0.1220 0.7171 -0.0688
C23_2 C 1.3204(13) 0.5075(12) -0.4550(8)
H17_2 H 1.2978 0.5711 -0.4329
C24_2 C 1.0943(13) 0.5277(12) -0.2661(8)
H18_2 H 1.0473 0.5900 -0.2527
C25A C 0.3517(12) 0.4976(12) -0.1763(8)
H19A H 0.3609 0.4347 -0.1544
C26A C 0.8807(14) 0.4375(12) -0.3625(8)
H20A H 0.8636 0.3819 -0.3396
C27A C 0.2166(12) 0.4772(11) -0.0463(8)
H21A H 0.2637 0.4191 -0.0671
C28A C 0.3292(15) 0.6743(14) -0.2455(10)
H22A H 0.3191 0.7359 -0.2692
C29A C 0.9486(15) 0.4211(13) -0.4261(9)
H23A H 0.9812 0.3557 -0.4430
C30A C 0.1543(13) 0.4721(12) 0.0178(9)
H24A H 0.1612 0.4092 0.0393
N7 N -0.2466(13) 0.0414(13) 0.4005(9)
H25 H -0.2044 -0.0121 0.4172
H26 H -0.2741 0.0930 0.4285
C31 C -0.2715(16) 0.0450(15) 0.3247(11)
H27 H -0.2479 0.1003 0.3010
H28 H -0.3500 0.0571 0.3217
C32 C -0.2142(17) -0.0538(15) 0.2867(11)
H29 H -0.1359 -0.0600 0.2812
H30 H -0.2270 -0.1104 0.3150
N8 N -0.257(2) -0.054(2) 0.2158(14)
H31 H -0.3072 -0.0034 0.2027
H32 H -0.2330 -0.1057 0.1872
O41 O 0.6721(14) 0.1232(14) 0.1635(10)
O42 O 0.3262(16) -0.2255(14) 0.5161(10)
O43 O -0.180(2) -0.153(2) 0.0627(16)
loop_
_geom_bond_atom_site_label_1
_geom_bond_atom_site_label_2
_geom_bond_site_symmetry_1
_geom_bond_site_symmetry_2
P1 O3 1_555 1_555
Mo1 O3 1_555 1_555
Mo2 O2 1_555 1_555
Mo3 O4 1_555 1_555
Mo4 O1 1_555 1_555
Mo5 O4 1_555 1_555
Mo6 O8 1_555 1_555
Mo7 O3 1_555 1_555
Mo8 O2 1_555 1_555
Mo9 O6 1_555 1_555
Mo10 O5 1_555 1_555
Mo11 O5 1_555 1_555
Mo12 O7 1_555 1_555
O3 Mo2 1_555 1_555
O7 P1 1_555 1_555
O8 Mo3 1_555 1_555
O9 Mo5 1_555 1_555
O10 Mo2 1_555 1_555
O11 Mo3 1_555 1_555
O12 P1 1_555 1_555
O13 Mo4 1_555 1_555
O14 Mo6 1_555 1_555
O15 P1 1_555 1_555
O16 Mo8 1_555 1_555
O17 Mo11 1_555 1_555
O18 Mo7 1_555 1_555
O19 Mo1 1_555 1_555
O20 Mo8 1_555 1_555
O21 Mo6 1_555 1_555
O22 Mo1 1_555 1_555
O23 Mo3 1_555 1_555
O24 Mo11 1_555 1_555
O25 Mo5 1_555 1_555
O26 Mo1 1_555 1_555
O27 Mo5 1_555 1_555
O28 Mo6 1_555 1_555
O29 Mo3 1_555 1_555
O30 Mo4 1_555 1_555
O31 Mo4 1_555 1_555
O32 Mo1 1_555 1_555
O33 Mo2 1_555 1_555
O34 Mo12 1_555 1_555
Cu1 O33 1_555 1_555
Cu2 N6 1_555 1_555
O35 Mo1 1_555 1_555
O36 Mo5 1_555 1_555
O37 Mo2 1_555 1_555
O38 Mo10 1_555 1_555
O39 Mo8 1_555 1_555
N1 Cu1 1_555 1_555
O40 Mo7 1_555 1_555
N2 Cu1 1_555 1_555
Cu3 O37 1_555 1_555
N3 Cu3 1_555 1_555
N4 C12 1_555 1_555
N5 C13 1_555 1_555
C1 C7 1_555 1_555
C2 C11 1_555 1_555
C3 C9 1_555 1_555
C4 C6 1_555 1_555
N6 C14 1_555 1_555
C5 N3 1_555 1_555
H1 C5 1_555 1_555
C6 C10 1_555 1_555
C7 H2 1_555 1_555
C8 N3 1_555 1_555
H3 C8 1_555 1_555
C9 C13 1_555 1_555
H4 C9A 1_555 1_555
C10 H5 1_555 1_555
C11 C22 1_555 1_555
C12 H6 1_555 1_555
C13 H7A 1_555 1_555
H7 C13A 1_555 1_555
C14 H8 1_555 1_555
C15 C2 1_555 1_555
H9 C15 1_555 1_555
C16 C1 1_555 1_555
H10 C16 1_555 1_555
C17 C4 1_555 1_555
H11 C17 1_555 1_555
C18 N1 1_555 1_555
H12 C18 1_555 1_555
C19 C6 1_555 1_555
H13 C19 1_555 1_555
C20 N2 1_555 1_555
H14 C20 1_555 1_555
C21 N2 1_555 1_555
H15 C21 1_555 1_555
C22 C14 1_555 1_555
H16 C22 1_555 1_555
C23 C4 1_555 1_555
H17 C23 1_555 1_555
C24 N4 1_555 1_555
H18 C24 1_555 1_555
C25 C2 1_555 1_555
H19 C25 1_555 1_555
C26 H20 1_555 1_555
C27 C11 1_555 1_555
H21 C27 1_555 1_555
C28 N1 1_555 1_555
H22 C28 1_555 1_555
C29 C26 1_555 1_555
H23 C29 1_555 1_555
C30 N6 1_555 1_555
H24 C30 1_555 1_555
N7 H25 1_555 1_555
H26 N7 1_555 1_555
C31 N7 1_555 1_555
H27 C31 1_555 1_555
H28 C31 1_555 1_555
C32 C31 1_555 1_555
H29 C32 1_555 1_555
H30 C32 1_555 1_555
N8 C32 1_555 1_555
H31 N8 1_555 1_555
H32 N8 1_555 1_555
P1A O3A 1_555 1_555
Mo1A O3A 1_555 1_555
Mo2A O2A 1_555 1_555
Mo3A O4A 1_555 1_555
Mo4A O1A 1_555 1_555
Mo5A O4A 1_555 1_555
Mo6A O8A 1_555 1_555
Mo7A O3A 1_555 1_555
Mo8A O2A 1_555 1_555
Mo9A O6A 1_555 1_555
Mo10A O5A 1_555 1_555
Mo11A O5A 1_555 1_555
Mo12A O7A 1_555 1_555
O3A Mo2A 1_555 1_555
O7A P1A 1_555 1_555
O8A Mo3A 1_555 1_555
O9A Mo5A 1_555 1_555
O10A Mo2A 1_555 1_555
O11A Mo3A 1_555 1_555
O12A P1A 1_555 1_555
O13A Mo4A 1_555 1_555
O14A Mo6A 1_555 1_555
O15A P1A 1_555 1_555
O16A Mo8A 1_555 1_555
O17A Mo11A 1_555 1_555
O18A Mo7A 1_555 1_555
O19A Mo1A 1_555 1_555
O20A Mo8A 1_555 1_555
O21A Mo6A 1_555 1_555
O22A Mo1A 1_555 1_555
O23A Mo3A 1_555 1_555
O24A Mo11A 1_555 1_555
O25A Mo5A 1_555 1_555
O26A Mo1A 1_555 1_555
O27A Mo5A 1_555 1_555
O28A Mo6A 1_555 1_555
O29A Mo3A 1_555 1_555
O30A Mo4A 1_555 1_555
O31A Mo4A 1_555 1_555
O32A Mo1A 1_555 1_555
O33A Mo2A 1_555 1_555
O34A Mo12A 1_555 1_555
Cu1_2 N2_2 1_555 1_555
Cu1A O33A 1_555 1_555
Cu2_2 N4 1_555 1_555
Cu2A N4A 1_555 1_555
O35A Mo1A 1_555 1_555
O36A Mo5A 1_555 1_555
O37A Mo2A 1_555 1_555
O38A Mo10A 1_555 1_555
O39A Mo8A 1_555 1_555
N1A Cu1A 1_555 1_555
O40A Mo7A 1_555 1_555
N2_2 C20_2 1_555 1_555
N2A Cu1A 1_555 1_555
Cu3A N5 1_555 1_555
Cu3_2 N5A_2 1_555 1_555
N3A Cu3A 1_555 1_555
N4_2 Cu2 1_555 1_555
N5A Cu3 1_555 1_555
N5A_2 C26 1_555 1_555
C1A C1 1_555 1_555
C2A C11A 1_555 1_555
C3A C3 1_555 1_555
C4_2 C6_2 1_555 1_555
N6A Cu2A 1_555 1_555
C5A N3A 1_555 1_555
H1A C5A 1_555 1_555
C6_2 C10_2 1_555 1_555
C7A C1A 1_555 1_555
H2A C7A 1_555 1_555
C8A N3A 1_555 1_555
H3A C8A 1_555 1_555
C9A C3A 1_555 1_555
H4A C9 1_555 1_555
C10_2 H5_2 1_555 1_555
C11A C22A 1_555 1_555
C12_2 N4_2 1_555 1_555
H6_2 C12_2 1_555 1_555
C13A N5A_2 1_555 1_555
C14A N6A 1_555 1_555
H8A C14A 1_555 1_555
C15A C2A 1_555 1_555
H9A C15A 1_555 1_555
C16A C1A 1_555 1_555
H10A C16A 1_555 1_555
C17_2 C4_2 1_555 1_555
H11_2 C17_2 1_555 1_555
C18A N1A 1_555 1_555
H12A C18A 1_555 1_555
C19_2 C6_2 1_555 1_555
H13_2 C19_2 1_555 1_555
C20_2 C17_2 1_555 1_555
H14_2 C20_2 1_555 1_555
C21_2 N2_2 1_555 1_555
H15_2 C21_2 1_555 1_555
C22A C14A 1_555 1_555
H16A C22A 1_555 1_555
C23_2 C4_2 1_555 1_555
H17_2 C23_2 1_555 1_555
C24_2 N4_2 1_555 1_555
H18_2 C24_2 1_555 1_555
C25A C2A 1_555 1_555
H19A C25A 1_555 1_555
C26A N5 1_555 1_555
H20A C26A 1_555 1_555
C27A C11A 1_555 1_555
H21A C27A 1_555 1_555
C28A N1A 1_555 1_555
H22A C28A 1_555 1_555
C29A C3 1_555 1_555
H23A C29A 1_555 1_555
C30A N6A 1_555 1_555
H24A C30A 1_555 1_555
Mo2 O35 1_555 1_555
Mo3 O12 1_555 1_555
Mo4 O12 1_555 1_555
Mo4 O29 1_555 1_555
Mo5 O7 1_555 1_555
Mo6 O9 1_555 1_555
Mo6 O15 1_555 1_555
Mo7 O22 1_555 1_555
Mo7 O30 1_555 1_555
Mo7 O37 1_555 1_555
Mo8 O15 1_555 1_555
Mo8 O28 1_555 1_555
Mo9 O10 1_555 1_555
Mo9 O11 1_555 1_555
Mo9 O12 1_555 1_555
Mo9 O16 1_555 1_555
Mo9 O31 1_555 1_555
Mo10 O14 1_555 1_555
Mo10 O15 1_555 1_555
Mo10 O20 1_555 1_555
Mo10 O32 1_555 1_555
Mo11 O7 1_555 1_555
Mo11 O26 1_555 1_555
Mo11 O36 1_555 1_555
Mo12 O13 1_555 1_555
Mo12 O18 1_555 1_555
Mo12 O24 1_555 1_555
Mo12 O27 1_555 1_555
C5 C16 1_555 1_555
C7 C8 1_555 1_555
C10 C24 1_555 1_555
C12 C19 1_555 1_555
C15 C28 1_555 1_555
C17 C20 1_555 1_555
C18 C25 1_555 1_555
C21 C23 1_555 1_555
C27 C30 1_555 1_555
C29 C3A 1_555 1_555
Mo2A O35A 1_555 1_555
Mo3A O12A 1_555 1_555
Mo4A O12A 1_555 1_555
Mo4A O29A 1_555 1_555
Mo5A O7A 1_555 1_555
Mo6A O9A 1_555 1_555
Mo6A O15A 1_555 1_555
Mo7A O22A 1_555 1_555
Mo7A O30A 1_555 1_555
Mo7A O37A 1_555 1_555
Mo8A O15A 1_555 1_555
Mo8A O28A 1_555 1_555
Mo9A O10A 1_555 1_555
Mo9A O11A 1_555 1_555
Mo9A O12A 1_555 1_555
Mo9A O16A 1_555 1_555
Mo9A O31A 1_555 1_555
Mo10A O14A 1_555 1_555
Mo10A O15A 1_555 1_555
Mo10A O20A 1_555 1_555
Mo10A O32A 1_555 1_555
Mo11A O7A 1_555 1_555
Mo11A O26A 1_555 1_555
Mo11A O36A 1_555 1_555
Mo12A O13A 1_555 1_555
Mo12A O18A 1_555 1_555
Mo12A O24A 1_555 1_555
Mo12A O27A 1_555 1_555
O37A Cu3A 1_555 1_555
C5A C16A 1_555 1_555
C7A C8A 1_555 1_555
C9A C13A 1_555 1_555
C10_2 C24_2 1_555 1_555
C12_2 C19_2 1_555 1_555
C15A C28A 1_555 1_555
C18A C25A 1_555 1_555
C21_2 C23_2 1_555 1_555
C26A C29A 1_555 1_555
C27A C30A 1_555 1_555

#END
