
#######################################################################
#
#                 Cambridge Crystallographic Data Centre
#                                CCDC 
#
#######################################################################
#
# If this CIF has been generated from an entry in the Cambridge 
# Structural Database, then it will include bibliographic, chemical, 
# crystal, experimental, refinement or atomic coordinate data resulting 
# from the CCDC's data processing and validation procedures.
#
#######################################################################

data_AFAWAF
_symmetry_cell_setting           monoclinic
_symmetry_space_group_name_H-M   'C 2/c'
_symmetry_Int_Tables_number      15
_space_group_name_Hall           '-C 2yn'
loop_
_symmetry_equiv_pos_site_id
_symmetry_equiv_pos_as_xyz
1 x,y,z
2 1/2+x,1/2+y,z
3 x,-y,1/2+z
4 1/2+x,1/2-y,1/2+z
5 -x,-y,-z
6 1/2-x,1/2-y,-z
7 -x,y,1/2-z
8 1/2-x,1/2+y,1/2-z
_cell_length_a                   11.752(3)
_cell_length_b                   17.795(3)
_cell_length_c                   9.594(3)
_cell_angle_alpha                90
_cell_angle_beta                 107.95(3)
_cell_angle_gamma                90
_cell_volume                     1908.7
loop_
_atom_site_label
_atom_site_type_symbol
_atom_site_fract_x
_atom_site_fract_y
_atom_site_fract_z
Ag1 Ag 0.0000 -0.214200(14) -0.2500
Cu1 Cu 0.0000 0.07767(2) -0.2500
Ag2 Ag -0.2500 0.2500 0.0000
N1 N -0.10216(17) 0.14811(11) -0.1625(2)
C1 C -0.1558(2) 0.18406(13) -0.1054(3)
N2 N 0.0000 -0.03387(17) -0.2500
C2 C 0.0000 -0.09826(19) -0.2500
N3 N 0.0000 -0.39354(18) -0.2500
C3 C 0.0000 -0.3297(2) -0.2500
N4 N 0.13181(17) 0.07991(10) -0.0536(2)
C4 C 0.1693(2) 0.14721(13) 0.0070(3)
H1 H 0.1346 0.1904 -0.0429
C5 C 0.2563(2) 0.15472(15) 0.1389(3)
H2 H 0.2796 0.2024 0.1767
C6 C 0.3103(2) 0.09169(16) 0.2169(3)
C7 C 0.2715(2) 0.02265(15) 0.1537(3)
H3 H 0.3053 -0.0213 0.2010
C8 C 0.1835(2) 0.01912(14) 0.0213(3)
H4 H 0.1584 -0.0280 -0.0184
C9 C 0.4037(2) 0.09699(19) 0.3636(3)
H5 H 0.4481 0.1427 0.3690
H6 H 0.3659 0.0967 0.4392
H7 H 0.4570 0.0549 0.3766
C1E C -0.3442(2) 0.31594(13) 0.1054(3)
N1F N 0.10216(17) 0.14811(11) -0.3375(2)
C1F C 0.1558(2) 0.18406(13) -0.3946(3)
Ag2C Ag 0.2500 0.2500 -0.5000
N4F N -0.13181(17) 0.07991(10) -0.4464(2)
C4F C -0.1693(2) 0.14721(13) -0.5070(3)
H1F H -0.1346 0.1904 -0.4571
C5F C -0.2563(2) 0.15472(15) -0.6389(3)
H2F H -0.2796 0.2024 -0.6767
C6F C -0.3103(2) 0.09169(16) -0.7169(3)
C7F C -0.2715(2) 0.02265(15) -0.6537(3)
H3F H -0.3053 -0.0213 -0.7010
C8F C -0.1835(2) 0.01912(14) -0.5213(3)
H4F H -0.1584 -0.0280 -0.4816
C9F C -0.4037(2) 0.09699(19) -0.8636(3)
H5F H -0.4481 0.1427 -0.8690
H6F H -0.3659 0.0967 -0.9392
H7F H -0.4570 0.0549 -0.8766
loop_
_geom_bond_atom_site_label_1
_geom_bond_atom_site_label_2
_geom_bond_site_symmetry_1
_geom_bond_site_symmetry_2
Ag1 C2 1_555 1_555
Cu1 N1 1_555 1_555
Ag2 C1 1_555 1_555
N1 C1 1_555 1_555
N2 Cu1 1_555 1_555
C2 N2 1_555 1_555
N3 C3 1_555 1_555
C3 Ag1 1_555 1_555
N4 Cu1 1_555 1_555
C4 N4 1_555 1_555
H1 C4 1_555 1_555
C5 C4 1_555 1_555
H2 C5 1_555 1_555
C6 C5 1_555 1_555
C7 C6 1_555 1_555
H3 C7 1_555 1_555
C8 N4 1_555 1_555
H4 C8 1_555 1_555
C9 C6 1_555 1_555
H5 C9 1_555 1_555
H6 C9 1_555 1_555
H7 C9 1_555 1_555
C1E Ag2 1_555 1_555
N1F Cu1 1_555 1_555
C1F N1F 1_555 1_555
Ag2C C1F 1_555 1_555
N4F Cu1 1_555 1_555
C4F N4F 1_555 1_555
H1F C4F 1_555 1_555
C5F C4F 1_555 1_555
H2F C5F 1_555 1_555
C6F C5F 1_555 1_555
C7F C6F 1_555 1_555
H3F C7F 1_555 1_555
C8F N4F 1_555 1_555
H4F C8F 1_555 1_555
C9F C6F 1_555 1_555
H5F C9F 1_555 1_555
H6F C9F 1_555 1_555
H7F C9F 1_555 1_555
C7 C8 1_555 1_555
C7F C8F 1_555 1_555

#END
