
#######################################################################
#
#                 Cambridge Crystallographic Data Centre
#                                CCDC 
#
#######################################################################
#
# If this CIF has been generated from an entry in the Cambridge 
# Structural Database, then it will include bibliographic, chemical, 
# crystal, experimental, refinement or atomic coordinate data resulting 
# from the CCDC's data processing and validation procedures.
#
#######################################################################

data_AFAWAH
_symmetry_cell_setting           monoclinic
_symmetry_space_group_name_H-M   'P 21/c'
_symmetry_Int_Tables_number      14
_space_group_name_Hall           '-P 2ybc'
loop_
_symmetry_equiv_pos_site_id
_symmetry_equiv_pos_as_xyz
1 x,y,z
2 -x,1/2+y,1/2-z
3 -x,-y,-z
4 x,1/2-y,1/2+z
_cell_length_a                   14.0965(10)
_cell_length_b                   10.4007(7)
_cell_length_c                   20.6593(15)
_cell_angle_alpha                90
_cell_angle_beta                 102.9940(10)
_cell_angle_gamma                90
_cell_volume                     2951.37
loop_
_atom_site_label
_atom_site_type_symbol
_atom_site_fract_x
_atom_site_fract_y
_atom_site_fract_z
Ag1 Ag 0.30400(6) 0.83549(8) 0.19418(4)
Ag2 Ag 0.19133(6) 1.03934(8) 0.25579(4)
N1 N 0.2935(6) 0.6974(8) 0.2706(4)
N2 N 0.6866(6) 0.4901(9) 0.3732(5)
N3 N 0.4482(7) 0.7530(10) 0.3296(4)
H1 H 0.4585 0.7873 0.2929
N4 N -0.1876(6) 0.7099(8) 0.3036(4)
N5 N 0.2011(6) 0.9267(9) 0.3454(5)
N6 N -0.0305(7) 0.6806(9) 0.3627(5)
H2 H -0.0245 0.6207 0.3338
C1 C 0.2165(9) 0.6290(13) 0.2671(7)
H3 H 0.1679 0.6390 0.2273
C2 C 0.1944(9) 0.5454(12) 0.3110(7)
H4 H 0.1341 0.5008 0.3038
C3 C 0.2670(9) 0.5300(13) 0.3677(7)
H5 H 0.2579 0.4718 0.4012
C4 C 0.3531(10) 0.5987(12) 0.3761(6)
H6 H 0.4029 0.5883 0.4152
C5 C 0.3656(8) 0.6842(10) 0.3259(5)
C6 C 0.5209(9) 0.7732(12) 0.3911(6)
H7 H 0.4884 0.7677 0.4288
H8 H 0.5474 0.8613 0.3908
C7 C 0.6058(8) 0.6777(10) 0.4031(5)
C8 C 0.6852(8) 0.6987(10) 0.4541(6)
H9 H 0.6856 0.7712 0.4821
C9 C 0.7637(8) 0.6182(11) 0.4657(5)
H10 H 0.8177 0.6327 0.5017
C10 C 0.7620(8) 0.5156(11) 0.4235(5)
H11 H 0.8170 0.4603 0.4305
C11 C 0.6099(8) 0.5723(11) 0.3626(5)
H12 H 0.5568 0.5571 0.3260
C12 C -0.2713(9) 0.7802(10) 0.2889(6)
H13 H -0.3248 0.7489 0.2562
C13 C -0.2807(10) 0.8951(12) 0.3200(7)
H14 H -0.3400 0.9421 0.3097
C14 C -0.2031(10) 0.9394(11) 0.3658(6)
H15 H -0.2082 1.0195 0.3868
C15 C -0.1179(9) 0.8727(10) 0.3827(5)
H16 H -0.0641 0.9046 0.4151
C16 C -0.1127(8) 0.7554(10) 0.3505(6)
C17 C 0.0462(9) 0.6965(11) 0.4212(6)
H17 H 0.0770 0.6118 0.4336
H18 H 0.0171 0.7252 0.4581
C18 C 0.1260(7) 0.7931(9) 0.4138(5)
C19 C 0.1999(8) 0.8217(10) 0.4677(5)
H19 H 0.1992 0.7871 0.5102
C20 C 0.2750(9) 0.9011(11) 0.4598(6)
H20 H 0.3263 0.9219 0.4966
C21 C 0.2744(8) 0.9506(10) 0.3966(5)
H21 H 0.3273 1.0021 0.3904
C22 C 0.1266(8) 0.8491(10) 0.3534(5)
H22 H 0.0740 0.8333 0.3165
Ag1A Ag 0.69600(6) 0.33549(8) 0.30582(4)
Ag2A Ag -0.19133(6) 0.53934(8) 0.24421(4)
N2A N 0.3134(6) 0.9901(9) 0.1268(5)
N4A N 0.1876(6) 1.2099(8) 0.1964(4)
S1 S 0.03282(18) 0.8243(2) 0.12350(13)
O1 O 0.1186(5) 0.7565(7) 0.1159(4)
O2 O 0.0432(6) 0.8922(7) 0.1865(4)
O3 O -0.0157(6) 0.8948(7) 0.0660(4)
C23 C -0.0529(8) 0.6965(11) 0.1288(6)
F1 F -0.1388(5) 0.7438(7) 0.1347(4)
F2 F -0.0687(6) 0.6231(7) 0.0747(4)
F3 F -0.0193(5) 0.6218(7) 0.1815(4)
S2 S 0.4912(2) 0.6737(3) 0.15718(15)
O4 O 0.5019(6) 0.7902(9) 0.1973(4)
O5 O 0.3907(6) 0.6430(10) 0.1279(5)
O6 O 0.5539(7) 0.5725(8) 0.1845(4)
C24 C 0.5353(10) 0.7271(13) 0.0856(7)
F4 F 0.6289(5) 0.7586(8) 0.1038(4)
F5 F 0.4872(7) 0.8264(8) 0.0557(4)
F6 F 0.5285(6) 0.6260(8) 0.0427(4)
loop_
_geom_bond_atom_site_label_1
_geom_bond_atom_site_label_2
_geom_bond_site_symmetry_1
_geom_bond_site_symmetry_2
Ag1 Ag2 1_555 1_555
Ag2 N5 1_555 1_555
N1 Ag1 1_555 1_555
N2 C10 1_555 1_555
N3 H1 1_555 1_555
N4 C12 1_555 1_555
N5 C21 1_555 1_555
N6 H2 1_555 1_555
C1 N1 1_555 1_555
H3 C1 1_555 1_555
C2 C1 1_555 1_555
H4 C2 1_555 1_555
C3 C2 1_555 1_555
H5 C3 1_555 1_555
C4 C3 1_555 1_555
H6 C4 1_555 1_555
C5 N1 1_555 1_555
C6 N3 1_555 1_555
H7 C6 1_555 1_555
H8 C6 1_555 1_555
C7 C6 1_555 1_555
C8 C7 1_555 1_555
H9 C8 1_555 1_555
C9 C8 1_555 1_555
H10 C9 1_555 1_555
C10 C9 1_555 1_555
H11 C10 1_555 1_555
C11 N2 1_555 1_555
H12 C11 1_555 1_555
C12 H13 1_555 1_555
C13 C12 1_555 1_555
H14 C13 1_555 1_555
C14 C13 1_555 1_555
H15 C14 1_555 1_555
C15 C14 1_555 1_555
H16 C15 1_555 1_555
C16 N4 1_555 1_555
C17 N6 1_555 1_555
H17 C17 1_555 1_555
H18 C17 1_555 1_555
C18 C17 1_555 1_555
C19 C18 1_555 1_555
H19 C19 1_555 1_555
C20 C19 1_555 1_555
H20 C20 1_555 1_555
C21 C20 1_555 1_555
H21 C21 1_555 1_555
C22 N5 1_555 1_555
H22 C22 1_555 1_555
S1 O1 1_555 1_555
O2 S1 1_555 1_555
O3 S1 1_555 1_555
C23 S1 1_555 1_555
F1 C23 1_555 1_555
F2 C23 1_555 1_555
F3 C23 1_555 1_555
S2 O4 1_555 1_555
O5 S2 1_555 1_555
O6 S2 1_555 1_555
C24 S2 1_555 1_555
F4 C24 1_555 1_555
F5 C24 1_555 1_555
F6 C24 1_555 1_555
Ag1A N2 1_555 1_555
Ag2A N4 1_555 1_555
N2A Ag1 1_555 1_555
N4A Ag2 1_555 1_555
N3 C5 1_555 1_555
N6 C16 1_555 1_555
C4 C5 1_555 1_555
C7 C11 1_555 1_555
C15 C16 1_555 1_555
C18 C22 1_555 1_555

#END
