
#######################################################################
#
#                 Cambridge Crystallographic Data Centre
#                                CCDC 
#
#######################################################################
#
# If this CIF has been generated from an entry in the Cambridge 
# Structural Database, then it will include bibliographic, chemical, 
# crystal, experimental, refinement or atomic coordinate data resulting 
# from the CCDC's data processing and validation procedures.
#
#######################################################################

data_AFAYIP
_symmetry_cell_setting           monoclinic
_symmetry_space_group_name_H-M   'C 2/c'
_symmetry_Int_Tables_number      15
_space_group_name_Hall           '-C 2yn'
loop_
_symmetry_equiv_pos_site_id
_symmetry_equiv_pos_as_xyz
1 x,y,z
2 1/2+x,1/2+y,z
3 x,-y,1/2+z
4 1/2+x,1/2-y,1/2+z
5 -x,-y,-z
6 1/2-x,1/2-y,-z
7 -x,y,1/2-z
8 1/2-x,1/2+y,1/2-z
_cell_length_a                   22.247(8)
_cell_length_b                   6.888(2)
_cell_length_c                   15.211(4)
_cell_angle_alpha                90
_cell_angle_beta                 93.070(10)
_cell_angle_gamma                90
_cell_volume                     2327.55
loop_
_atom_site_label
_atom_site_type_symbol
_atom_site_fract_x
_atom_site_fract_y
_atom_site_fract_z
Cu1 Cu 0.2500 0.2500 0.0000
Cl1 Cl -0.06134(4) 0.2108(2) 0.12793(8)
O1 O 0.16510(10) 0.2547(3) -0.04310(10)
O6 O 0.22810(10) 0.2607(3) 0.15180(10)
N1 N 0.11090(10) 0.1914(4) 0.0776(2)
N2 N 0.25080(10) 0.5480(3) -0.00180(10)
C1 C 0.11430(10) 0.2426(4) -0.0080(2)
C2 C 0.05860(10) 0.2775(4) -0.0558(2)
C3 C 0.00520(10) 0.2667(4) -0.0153(2)
C4 C 0.00560(10) 0.2203(4) 0.0746(2)
C5 C 0.05830(10) 0.1805(5) 0.1195(2)
C6 C 0.21780(10) 0.6496(4) -0.0620(2)
C7 C 0.28310(10) 0.6474(4) 0.0601(2)
H1 H 0.216(2) 0.358(3) 0.180(2)
H2 H 0.2570(10) 0.218(6) 0.184(2)
H3 H 0.143910 0.161(6) 0.107(2)
H4 H 0.0585 0.3080 -0.1154
H5 H -0.0310 0.2899 -0.0470
H6 H 0.0586 0.1459 0.1787
H7 H 0.1951 0.5841 -0.1057
H8 H 0.3064 0.5802 0.1025
O1E O 0.33490(10) 0.2453(3) 0.04310(10)
C1E C 0.38570(10) 0.2574(4) 0.0080(2)
N1E N 0.38910(10) 0.3086(4) -0.0776(2)
C5E C 0.44170(10) 0.3195(5) -0.1195(2)
C4E C 0.49440(10) 0.2797(4) -0.0746(2)
Cl1E Cl 0.56134(4) 0.2892(2) -0.12793(8)
C3E C 0.49480(10) 0.2333(4) 0.0153(2)
C2E C 0.44140(10) 0.2225(4) 0.0558(2)
H4E H 0.4415 0.1920 0.1154
H5E H 0.5310 0.2101 0.0470
H6E H 0.4414 0.3541 -0.1787
H3E H 0.356090 0.339(6) -0.107(2)
O6E O 0.27190(10) 0.2393(3) -0.15180(10)
H1E H 0.284(2) 0.142(3) -0.180(2)
H2E H 0.2430(10) 0.282(6) -0.184(2)
C7E C 0.21690(10) 0.8526(4) -0.0601(2)
N2E N 0.24920(10) 0.9520(3) 0.00180(10)
Cu1E Cu 0.2500 1.2500 0.0000
C6E C 0.28220(10) 0.8504(4) 0.0620(2)
H7E H 0.3049 0.9159 0.1057
H8E H 0.1936 0.9198 -0.1025
N2E_2 N 0.24920(10) -0.0480(3) 0.00180(10)
Cl2 Cl 0.13731(4) 0.71260(10) 0.19823(5)
O2 O 0.1772(2) 0.5729(5) 0.2414(2)
O3 O 0.1558(2) 0.9000(5) 0.2278(3)
O4 O 0.0773(2) 0.6824(8) 0.2202(2)
O5 O 0.14010(10) 0.6942(6) 0.1062(2)
loop_
_geom_bond_atom_site_label_1
_geom_bond_atom_site_label_2
_geom_bond_site_symmetry_1
_geom_bond_site_symmetry_2
Cu1 O1 1_555 1_555
Cl1 C4 1_555 1_555
Cl2 O2 1_555 1_555
O1 C1 1_555 1_555
O3 Cl2 1_555 1_555
O4 Cl2 1_555 1_555
O5 Cl2 1_555 1_555
O6 Cu1 1_555 1_555
N1 C1 1_555 1_555
N2 Cu1 1_555 1_555
C1 C2 1_555 1_555
C2 C3 1_555 1_555
C3 C4 1_555 1_555
C4 C5 1_555 1_555
C5 N1 1_555 1_555
C6 N2 1_555 1_555
C7 N2 1_555 1_555
H1 O6 1_555 1_555
H2 O6 1_555 1_555
H3 N1 1_555 1_555
H4 C2 1_555 1_555
H5 C3 1_555 1_555
H6 C5 1_555 1_555
H7 C6 1_555 1_555
H8 C7 1_555 1_555
O1E Cu1 1_555 1_555
C1E O1E 1_555 1_555
N1E C1E 1_555 1_555
C5E N1E 1_555 1_555
C4E C5E 1_555 1_555
Cl1E C4E 1_555 1_555
C3E C4E 1_555 1_555
C2E C1E 1_555 1_555
H4E C2E 1_555 1_555
H5E C3E 1_555 1_555
H6E C5E 1_555 1_555
H3E N1E 1_555 1_555
O6E Cu1 1_555 1_555
H1E O6E 1_555 1_555
H2E O6E 1_555 1_555
C7E C6 1_555 1_555
N2E C7E 1_555 1_555
Cu1E N2E 1_555 1_555
C6E C7 1_555 1_555
H7E C6E 1_555 1_555
H8E C7E 1_555 1_555
N2E_2 Cu1 1_555 1_555
C3E C2E 1_555 1_555
N2E C6E 1_555 1_555

#END
