
#######################################################################
#
#                 Cambridge Crystallographic Data Centre
#                                CCDC 
#
#######################################################################
#
# If this CIF has been generated from an entry in the Cambridge 
# Structural Database, then it will include bibliographic, chemical, 
# crystal, experimental, refinement or atomic coordinate data resulting 
# from the CCDC's data processing and validation procedures.
#
#######################################################################

data_AFEBAQ
_symmetry_cell_setting           monoclinic
_symmetry_space_group_name_H-M   'P 21/c'
_symmetry_Int_Tables_number      14
_space_group_name_Hall           '-P 2ybc'
loop_
_symmetry_equiv_pos_site_id
_symmetry_equiv_pos_as_xyz
1 x,y,z
2 -x,1/2+y,1/2-z
3 -x,-y,-z
4 x,1/2-y,1/2+z
_cell_length_a                   10.996(4)
_cell_length_b                   9.856(3)
_cell_length_c                   17.701(4)
_cell_angle_alpha                90
_cell_angle_beta                 116.715(16)
_cell_angle_gamma                90
_cell_volume                     1713.59
loop_
_atom_site_label
_atom_site_type_symbol
_atom_site_fract_x
_atom_site_fract_y
_atom_site_fract_z
Zn1 Zn 0.30313(6) 0.16775(7) 0.50548(4)
N1 N 0.7638(5) 0.6196(5) 0.4642(3)
H1 H 0.8016 0.5691 0.5141
N2 N 0.9062(5) 0.8457(5) 0.5403(3)
O1 O 0.4672(5) 0.2526(5) 0.4964(3)
O2 O 0.2854(5) 0.2595(5) 0.3758(3)
O3 O 0.3767(4) 0.3716(5) 0.1272(3)
O4 O 0.5479(7) 0.5097(6) 0.1459(3)
O5 O 0.3290(5) -0.0226(5) 0.4608(3)
H2 H 0.3515 -0.0238 0.4211
H3 H 0.3914 -0.0573 0.5049
C1 C 0.6605(6) 0.5331(6) 0.4062(4)
C2 C 0.5912(6) 0.4507(6) 0.4375(3)
H4 H 0.6174 0.4493 0.4953
C3 C 0.4828(6) 0.3699(6) 0.3835(4)
C4 C 0.4443(6) 0.3700(6) 0.2967(4)
H5 H 0.3705 0.3183 0.2602
C5 C 0.5165(6) 0.4474(6) 0.2655(3)
C6 C 0.6239(6) 0.5293(6) 0.3198(4)
H6 H 0.6715 0.5817 0.2983
C7 C 0.8722(7) 0.6636(6) 0.4424(4)
H7 H 0.8327 0.7094 0.3881
H8 H 0.9229 0.5855 0.4386
C8 C 0.9647(6) 0.7579(6) 0.5099(4)
C9 C 1.1047(7) 0.7557(7) 0.5368(5)
H9 H 1.1433 0.6957 0.5131
C10 C 1.1856(7) 0.8462(8) 0.6004(6)
H10 H 1.2799 0.8442 0.6221
C11 C 1.1242(7) 0.9382(8) 0.6305(5)
H11 H 1.1763 1.0020 0.6708
C12 C 0.9846(7) 0.9354(7) 0.6005(4)
H12 H 0.9435 0.9963 0.6220
C13 C 0.4045(7) 0.2891(6) 0.4188(4)
C14 C 0.4794(6) 0.4426(6) 0.1727(4)
Zn1B Zn 0.69687(6) 0.83225(7) 0.49452(4)
Zn1C Zn 0.30313(6) 0.33225(7) 0.00548(4)
N1B N 0.2362(5) 0.3804(5) 0.5358(3)
N2B N 0.0938(5) 0.1543(5) 0.4597(3)
O3C O 0.3767(4) 0.1284(5) 0.6272(3)
O6 O 0.8979(8) 0.4614(9) 0.6290(5)
O7 O 0.6924(9) 0.3242(9) 0.6608(5)
O8 O 0.0636(11) 0.2668(13) 0.2174(6)
O9 O 0.8707(14) 0.1013(18) 0.7473(8)
loop_
_geom_bond_atom_site_label_1
_geom_bond_atom_site_label_2
_geom_bond_site_symmetry_1
_geom_bond_site_symmetry_2
Zn1 O1 1_555 1_555
N1 H1 1_555 1_555
N2 C8 1_555 1_555
O1 C13 1_555 1_555
O2 Zn1 1_555 1_555
O3 C14 1_555 1_555
O4 C14 1_555 1_555
O5 Zn1 1_555 1_555
H2 O5 1_555 1_555
H3 O5 1_555 1_555
C1 N1 1_555 1_555
C2 C1 1_555 1_555
H4 C2 1_555 1_555
C3 C2 1_555 1_555
C4 C3 1_555 1_555
H5 C4 1_555 1_555
C5 C4 1_555 1_555
C6 C1 1_555 1_555
H6 C6 1_555 1_555
C7 N1 1_555 1_555
H7 C7 1_555 1_555
H8 C7 1_555 1_555
C8 C7 1_555 1_555
C9 C8 1_555 1_555
H9 C9 1_555 1_555
C10 C9 1_555 1_555
H10 C10 1_555 1_555
C11 C10 1_555 1_555
H11 C11 1_555 1_555
C12 N2 1_555 1_555
H12 C12 1_555 1_555
C13 O2 1_555 1_555
C14 C5 1_555 1_555
Zn1B N1 1_555 1_555
Zn1C O3 1_555 1_555
N1B Zn1 1_555 1_555
N2B Zn1 1_555 1_555
O3C Zn1 1_555 1_555
N2 Zn1B 1_555 1_555
C3 C13 1_555 1_555
C5 C6 1_555 1_555
C11 C12 1_555 1_555

#END
