
#######################################################################
#
#                 Cambridge Crystallographic Data Centre
#                                CCDC 
#
#######################################################################
#
# If this CIF has been generated from an entry in the Cambridge 
# Structural Database, then it will include bibliographic, chemical, 
# crystal, experimental, refinement or atomic coordinate data resulting 
# from the CCDC's data processing and validation procedures.
#
#######################################################################

data_AFECIY01
_symmetry_cell_setting           monoclinic
_symmetry_space_group_name_H-M   'P 21/n'
_symmetry_Int_Tables_number      14
_space_group_name_Hall           '-P 2yn'
loop_
_symmetry_equiv_pos_site_id
_symmetry_equiv_pos_as_xyz
1 x,y,z
2 1/2-x,1/2+y,1/2-z
3 -x,-y,-z
4 1/2+x,1/2-y,1/2+z
_cell_length_a                   10.9129(11)
_cell_length_b                   15.0557(15)
_cell_length_c                   16.4468(17)
_cell_angle_alpha                90
_cell_angle_beta                 91.800(2)
_cell_angle_gamma                90
_cell_volume                     2700.9
loop_
_atom_site_label
_atom_site_type_symbol
_atom_site_fract_x
_atom_site_fract_y
_atom_site_fract_z
Zn1 Zn -0.28603(3) 0.60204(2) 0.032280(19)
Zn2 Zn -0.10345(3) 0.35137(2) 0.132240(19)
O1 O -0.2218(2) 0.42108(14) 0.06749(12)
O2 O -0.2481(2) 0.31830(16) 0.22090(15)
H1 H -0.259(4) 0.348(2) 0.2615(17)
H2 H -0.240(4) 0.2670(15) 0.238(2)
O3 O -0.26504(19) 0.49887(12) -0.04049(12)
O4 O 0.02744(19) 0.37597(15) 0.04004(12)
O5 O -0.13259(18) 0.64731(14) 0.07400(12)
O6 O -0.1386(2) 0.14842(13) -0.22908(13)
O7 O 0.08342(19) -0.07847(14) -0.38800(12)
O8 O 0.1644(2) -0.16882(15) -0.29861(14)
O9 O 0.1358(3) -0.19765(19) -0.10249(17)
O10 O -0.0037(2) -0.25213(15) -0.18049(17)
C1 C -0.2261(2) 0.43013(18) -0.00786(17)
C2 C -0.1929(3) 0.35454(17) -0.06427(16)
C3 C -0.2874(3) 0.3233(2) -0.11099(19)
H3 H -0.3646 0.3489 -0.1076
C4 C -0.2695(3) 0.2529(2) -0.16415(19)
H4 H -0.3356 0.2307 -0.1949
C5 C -0.1553(3) 0.21550(19) -0.17192(18)
C6 C -0.0579(3) 0.24882(19) -0.12968(17)
H5 H 0.0203 0.2263 -0.1372
C7 C -0.0764(2) 0.31793(17) -0.07424(16)
C8 C -0.0345(3) 0.64781(17) 0.03204(17)
C9 C 0.0940(3) -0.10866(18) -0.31638(17)
C10 C 0.0207(3) -0.06200(18) -0.25054(17)
C11 C -0.0284(3) 0.02086(18) -0.26668(18)
H6 H -0.0236 0.0448 -0.3186
C12 C -0.0856(3) 0.06954(18) -0.20556(18)
C13 C -0.0933(3) 0.0380(2) -0.12715(19)
H7 H -0.1289 0.0715 -0.0867
C14 C -0.0461(3) -0.0448(2) -0.11126(19)
H8 H -0.0516 -0.0680 -0.0591
C15 C 0.0104(3) -0.09587(18) -0.17139(19)
C16 C 0.0526(3) -0.1874(2) -0.1500(2)
C17 C 0.0763(3) 0.4708(2) 0.2136(2)
H9 H 0.1327 0.4315 0.1923
C18 C 0.1169(3) 0.5396(2) 0.2599(2)
H10 H 0.2007 0.5471 0.2696
C19 C 0.0343(3) 0.60032(18) 0.29365(17)
C20 C -0.0872(3) 0.5888(2) 0.2747(2)
H11 H -0.1457 0.6280 0.2936
C21 C -0.1201(3) 0.5183(2) 0.2275(2)
H12 H -0.2030 0.5108 0.2145
C22 C 0.0732(3) 0.67290(18) 0.34800(17)
C23 C 0.1948(3) 0.6847(2) 0.3654(2)
H13 H 0.2529 0.6483 0.3420
C24 C 0.2294(3) 0.7500(2) 0.4170(2)
H14 H 0.3128 0.7574 0.4285
C25 C 0.0336(3) 0.7970(2) 0.4344(2)
H15 H -0.0222 0.8361 0.4567
C26 C -0.0078(3) 0.7327(2) 0.3834(2)
H16 H -0.0914 0.7281 0.3715
N1 N -0.0413(2) 0.45844(15) 0.19798(14)
N2 N -0.3495(2) 0.69448(15) -0.04668(14)
Zn1B Zn 0.28603(3) 0.39796(2) -0.032280(19)
Zn1C Zn 0.21397(3) 0.89796(2) 0.532280(19)
Zn1C_2 Zn 0.21397(3) -0.10204(2) -0.467720(19)
Zn1A Zn -0.21397(3) 1.10204(2) 0.467720(19)
Zn2B Zn 0.10345(3) 0.64863(2) -0.132240(19)
Zn2B_2 Zn 0.10345(3) -0.35137(2) -0.132240(19)
Zn2C Zn -0.60345(3) 1.14863(2) -0.367760(19)
Zn2_2 Zn -0.10345(3) 1.35137(2) 0.132240(19)
O1B O 0.2218(2) 0.57892(14) -0.06749(12)
O2B O 0.2481(2) 0.68170(16) -0.22090(15)
H1B H 0.259(4) 0.652(2) -0.2615(17)
H2B H 0.240(4) 0.7330(15) -0.238(2)
O3B O 0.26504(19) 0.50113(12) 0.04049(12)
O4B O -0.02744(19) 0.62403(15) -0.04004(12)
O5B O 0.13259(18) 0.35269(14) -0.07400(12)
O6B O 0.1386(2) 0.85158(13) 0.22908(13)
O7A O 0.41658(19) 0.42153(14) -0.11200(12)
O7C O -0.41658(19) 0.57847(14) 0.11200(12)
O7B O -0.08342(19) 1.07847(14) 0.38800(12)
O8B O -0.1644(2) 1.16882(15) 0.29861(14)
O9_2 O 0.1358(3) 0.80235(19) -0.10249(17)
O9B O -0.1358(3) 0.19765(19) 0.10249(17)
O9B_2 O -0.1358(3) 1.19765(19) 0.10249(17)
O10_2 O -0.0037(2) 0.74787(15) -0.18049(17)
O10B O 0.0037(2) 0.25213(15) 0.18049(17)
O10B_2 O 0.0037(2) 1.25213(15) 0.18049(17)
C1B C 0.2261(2) 0.56987(18) 0.00786(17)
C2B C 0.1929(3) 0.64546(17) 0.06427(16)
C3B C 0.2874(3) 0.6767(2) 0.11099(19)
H3B H 0.3646 0.6511 0.1076
C4B C 0.2695(3) 0.7471(2) 0.16415(19)
H4B H 0.3356 0.7693 0.1949
C5B C 0.1553(3) 0.78450(19) 0.17192(18)
C6B C 0.0579(3) 0.75118(19) 0.12968(17)
H5B H -0.0203 0.7737 0.1372
C7B C 0.0764(2) 0.68207(17) 0.07424(16)
C8B C 0.0345(3) 0.35219(17) -0.03204(17)
C9B C -0.0940(3) 1.10866(18) 0.31638(17)
C10B C -0.0207(3) 1.06200(18) 0.25054(17)
C11B C 0.0284(3) 0.97914(18) 0.26668(18)
H6B H 0.0236 0.9552 0.3186
C12B C 0.0856(3) 0.93046(18) 0.20556(18)
C13B C 0.0933(3) 0.9620(2) 0.12715(19)
H7B H 0.1289 0.9285 0.0867
C14B C 0.0461(3) 1.0448(2) 0.11126(19)
H8B H 0.0516 1.0680 0.0591
C15B C -0.0104(3) 1.09587(18) 0.17139(19)
C16B C -0.0526(3) 1.1874(2) 0.1500(2)
C17C C -0.4237(3) 1.0292(2) -0.2864(2)
H9C H -0.3673 1.0685 -0.3077
C18C C -0.3831(3) 0.9604(2) -0.2401(2)
H10C H -0.2993 0.9529 -0.2304
C19C C -0.4657(3) 0.89968(18) -0.20635(17)
C20C C -0.5872(3) 0.9112(2) -0.2253(2)
H11C H -0.6457 0.8720 -0.2064
C21C C -0.6201(3) 0.9817(2) -0.2725(2)
H12C H -0.7030 0.9892 -0.2855
C22C C -0.4268(3) 0.82710(18) -0.15200(17)
C23C C -0.3052(3) 0.8153(2) -0.1346(2)
H13C H -0.2471 0.8517 -0.1580
C24C C -0.2706(3) 0.7500(2) -0.0830(2)
H14C H -0.1872 0.7426 -0.0715
C25C C -0.4664(3) 0.7030(2) -0.0656(2)
H15C H -0.5222 0.6639 -0.0433
C26C C -0.5078(3) 0.7673(2) -0.1166(2)
H16C H -0.5914 0.7719 -0.1285
N1B N 0.0413(2) 0.54156(15) -0.19798(14)
N1C N -0.5413(2) 1.04156(15) -0.30202(14)
N2B N 0.3495(2) 0.30552(15) 0.04668(14)
N2C N 0.1505(2) 0.80552(15) 0.45332(14)
C27 C -0.8971(6) 0.6421(4) -0.3893(3)
H17 H -0.9176 0.6951 -0.3641
C28 C -0.9822(6) 0.6009(3) -0.4347(3)
H18 H -1.0607 0.6247 -0.4393
C29 C -0.9561(4) 0.5234(3) -0.4752(2)
C30 C -0.8369(5) 0.4865(4) -0.4650(3)
H19 H -0.8148 0.4335 -0.4897
C31 C -0.7578(5) 0.5332(4) -0.4173(3)
H20 H -0.6789 0.5105 -0.4107
N3 N -0.7816(5) 0.6102(3) -0.3779(3)
C27B C -1.1029(6) 0.3579(4) -0.6107(3)
H17B H -1.0824 0.3049 -0.6359
C28B C -1.0178(6) 0.3991(3) -0.5653(3)
H18B H -0.9393 0.3753 -0.5607
C29B C -1.0439(4) 0.4766(3) -0.5248(2)
C30B C -1.1631(5) 0.5135(4) -0.5350(3)
H19B H -1.1852 0.5665 -0.5103
C31B C -1.2422(5) 0.4668(4) -0.5827(3)
H20B H -1.3211 0.4895 -0.5893
N3B N -1.2184(5) 0.3898(3) -0.6221(3)
loop_
_geom_bond_atom_site_label_1
_geom_bond_atom_site_label_2
_geom_bond_site_symmetry_1
_geom_bond_site_symmetry_2
Zn1 O3 1_555 1_555
Zn2 O1 1_555 1_555
O1 C1 1_555 1_555
O2 Zn2 1_555 1_555
H1 O2 1_555 1_555
H2 O2 1_555 1_555
O3 C1 1_555 1_555
O4 Zn2 1_555 1_555
O5 Zn1 1_555 1_555
O6 C5 1_555 1_555
O7 C9 1_555 1_555
O8 C9 1_555 1_555
O9 C16 1_555 1_555
O10 C16 1_555 1_555
C1 C2 1_555 1_555
C2 C3 1_555 1_555
C3 H3 1_555 1_555
C4 C3 1_555 1_555
H4 C4 1_555 1_555
C5 C4 1_555 1_555
C6 C5 1_555 1_555
H5 C6 1_555 1_555
C7 C2 1_555 1_555
C8 O5 1_555 1_555
C9 C10 1_555 1_555
C10 C11 1_555 1_555
C11 H6 1_555 1_555
C12 O6 1_555 1_555
C13 C12 1_555 1_555
H7 C13 1_555 1_555
C14 C13 1_555 1_555
H8 C14 1_555 1_555
C15 C10 1_555 1_555
C16 C15 1_555 1_555
C17 H9 1_555 1_555
C18 C17 1_555 1_555
H10 C18 1_555 1_555
C19 C18 1_555 1_555
C20 C19 1_555 1_555
H11 C20 1_555 1_555
C21 C20 1_555 1_555
H12 C21 1_555 1_555
C22 C19 1_555 1_555
C23 C22 1_555 1_555
H13 C23 1_555 1_555
C24 C23 1_555 1_555
H14 C24 1_555 1_555
C25 H15 1_555 1_555
C26 C22 1_555 1_555
H16 C26 1_555 1_555
C27 H17 1_555 1_555
C28 C27 1_555 1_555
H18 C28 1_555 1_555
C29 C28 1_555 1_555
C30 C29 1_555 1_555
H19 C30 1_555 1_555
C31 C30 1_555 1_555
H20 C31 1_555 1_555
N1 Zn2 1_555 1_555
N2 Zn1 1_555 1_555
N3 C27 1_555 1_555
Zn1B O3B 1_555 1_555
Zn1C N2C 1_555 1_555
Zn1C_2 O7 1_555 1_555
Zn1A O7B 1_555 1_555
Zn2B O1B 1_555 1_555
Zn2B_2 O9 1_555 1_555
Zn2C N1C 1_555 1_555
Zn2_2 O9B_2 1_555 1_555
O1B C1B 1_555 1_555
O2B Zn2B 1_555 1_555
H1B O2B 1_555 1_555
H2B O2B 1_555 1_555
O3B C1B 1_555 1_555
O4B C8 1_555 1_555
O5B Zn1B 1_555 1_555
O6B C5B 1_555 1_555
O7A Zn1B 1_555 1_555
O7C Zn1 1_555 1_555
O7B C9B 1_555 1_555
O8B C9B 1_555 1_555
O9_2 Zn2B 1_555 1_555
O9B Zn2 1_555 1_555
O9B_2 C16B 1_555 1_555
O10_2 Zn2B 1_555 1_555
O10B Zn2 1_555 1_555
O10B_2 Zn2_2 1_555 1_555
C1B C2B 1_555 1_555
C2B C3B 1_555 1_555
C3B H3B 1_555 1_555
C4B C3B 1_555 1_555
H4B C4B 1_555 1_555
C5B C4B 1_555 1_555
C6B C5B 1_555 1_555
H5B C6B 1_555 1_555
C7B C8 1_555 1_555
C8B O4 1_555 1_555
C9B C10B 1_555 1_555
C10B C11B 1_555 1_555
C11B H6B 1_555 1_555
C12B O6B 1_555 1_555
C13B C12B 1_555 1_555
H7B C13B 1_555 1_555
C14B C13B 1_555 1_555
H8B C14B 1_555 1_555
C15B C10B 1_555 1_555
C16B O10B_2 1_555 1_555
C17C H9C 1_555 1_555
C18C C17C 1_555 1_555
H10C C18C 1_555 1_555
C19C C18C 1_555 1_555
C20C C19C 1_555 1_555
H11C C20C 1_555 1_555
C21C C20C 1_555 1_555
H12C C21C 1_555 1_555
C22C C19C 1_555 1_555
C23C C22C 1_555 1_555
H13C C23C 1_555 1_555
C24C N2 1_555 1_555
H14C C24C 1_555 1_555
C25C N2 1_555 1_555
H15C C25C 1_555 1_555
C26C C22C 1_555 1_555
H16C C26C 1_555 1_555
C27B H17B 1_555 1_555
C28B C27B 1_555 1_555
H18B C28B 1_555 1_555
C29B C29 1_555 1_555
C30B C29B 1_555 1_555
H19B C30B 1_555 1_555
C31B C30B 1_555 1_555
H20B C31B 1_555 1_555
N1B Zn2B 1_555 1_555
N1C C17C 1_555 1_555
N2B Zn1B 1_555 1_555
N2C C24 1_555 1_555
N3B C27B 1_555 1_555
O10 Zn2B_2 1_555 1_555
C6 C7 1_555 1_555
C7 C8B 1_555 1_555
C11 C12 1_555 1_555
C14 C15 1_555 1_555
C17 N1 1_555 1_555
C21 N1 1_555 1_555
C25 C26 1_555 1_555
C25 N2C 1_555 1_555
C31 N3 1_555 1_555
Zn2B O4B 1_555 1_555
O5B C8B 1_555 1_555
C2B C7B 1_555 1_555
C6B C7B 1_555 1_555
C11B C12B 1_555 1_555
C14B C15B 1_555 1_555
C15B C16B 1_555 1_555
C21C N1C 1_555 1_555
C23C C24C 1_555 1_555
C25C C26C 1_555 1_555
C28B C29B 1_555 1_555
C31B N3B 1_555 1_555

#END
