
#######################################################################
#
#                 Cambridge Crystallographic Data Centre
#                                CCDC 
#
#######################################################################
#
# If this CIF has been generated from an entry in the Cambridge 
# Structural Database, then it will include bibliographic, chemical, 
# crystal, experimental, refinement or atomic coordinate data resulting 
# from the CCDC's data processing and validation procedures.
#
#######################################################################

data_AFECIY
_symmetry_cell_setting           monoclinic
_symmetry_space_group_name_H-M   'P 21/n'
_symmetry_Int_Tables_number      14
_space_group_name_Hall           '-P 2yn'
loop_
_symmetry_equiv_pos_site_id
_symmetry_equiv_pos_as_xyz
1 x,y,z
2 1/2-x,1/2+y,1/2-z
3 -x,-y,-z
4 1/2+x,1/2-y,1/2+z
_cell_length_a                   10.9516(4)
_cell_length_b                   15.1202(5)
_cell_length_c                   16.5498(4)
_cell_angle_alpha                90
_cell_angle_beta                 92.063(1)
_cell_angle_gamma                90
_cell_volume                     2738.71
loop_
_atom_site_label
_atom_site_type_symbol
_atom_site_fract_x
_atom_site_fract_y
_atom_site_fract_z
Zn1 Zn 0.28659(5) 0.39722(3) 0.03206(3)
Zn2 Zn -0.10394(5) 0.35096(3) -0.13285(3)
O1 O -0.2490(3) 0.3177(2) -0.22115(19)
H1 H -0.2298 0.2733 -0.2462
H2 H -0.2648 0.3551 -0.2583
O2 O 0.0277(3) 0.3752(2) -0.04076(17)
O3 O 0.1330(3) 0.3517(2) 0.07326(18)
O4 O -0.2645(3) 0.49931(19) 0.03977(18)
O5 O -0.2214(3) 0.4210(2) -0.06792(18)
O6 O 0.0825(3) -0.0796(2) 0.38851(18)
O7 O 0.1656(3) -0.1681(2) 0.29850(19)
O8 O -0.0057(3) -0.2528(2) 0.1830(2)
O9 O 0.1323(4) -0.1990(3) 0.1029(2)
O10 O -0.1372(3) 0.1490(2) 0.22898(18)
N1 N 0.5411(3) -0.0410(2) -0.3022(2)
N2 N 0.3501(3) 0.3058(2) -0.0473(2)
C1 C -0.1547(4) 0.2161(3) 0.1711(3)
C2 C -0.0578(4) 0.2483(3) 0.1292(3)
H3 H 0.0197 0.2242 0.1377
C3 C -0.0761(4) 0.3176(3) 0.0734(2)
C4 C -0.1928(4) 0.3543(3) 0.0637(2)
C5 C -0.2867(4) 0.3236(3) 0.1104(3)
H4 H -0.3627 0.3510 0.1062
C6 C -0.2696(4) 0.2530(3) 0.1631(3)
H5 H -0.3340 0.2311 0.1923
C7 C 0.0348(4) 0.3511(3) 0.0313(3)
C8 C -0.2258(4) 0.4302(3) 0.0075(3)
C9 C -0.0858(4) 0.0700(3) 0.2056(3)
C10 C -0.0280(4) 0.0212(3) 0.2669(3)
H6 H -0.0210 0.0444 0.3189
C11 C 0.0193(4) -0.0620(3) 0.2513(3)
C12 C 0.0088(4) -0.0963(3) 0.1728(3)
C13 C -0.0484(5) -0.0449(3) 0.1119(3)
H7 H -0.0554 -0.0673 0.0596
C14 C -0.0945(4) 0.0380(3) 0.1275(3)
H8 H -0.1309 0.0716 0.0862
C15 C 0.0944(4) -0.1088(3) 0.3168(3)
C16 C 0.0501(5) -0.1880(3) 0.1511(3)
C17 C 0.4244(4) -0.0300(3) -0.2860(3)
H9 H 0.3674 -0.0706 -0.3065
C18 C 0.3845(5) 0.0394(3) -0.2397(3)
H10 H 0.3017 0.0451 -0.2302
C19 C 0.4661(4) 0.1006(3) -0.2071(2)
C20 C 0.5867(4) 0.0901(3) -0.2268(3)
H11 H 0.6453 0.1306 -0.2085
C21 C 0.6202(5) 0.0192(3) -0.2737(3)
H12 H 0.7019 0.0133 -0.2861
C22 C 0.2714(5) 0.2506(3) -0.0838(3)
H13 H 0.1888 0.2563 -0.0735
C23 C 0.3063(5) 0.1853(3) -0.1361(3)
H14 H 0.2473 0.1488 -0.1603
C24 C 0.4273(4) 0.1734(3) -0.1531(3)
C25 C 0.5089(4) 0.2326(3) -0.1168(3)
H15 H 0.5918 0.2287 -0.1269
C26 C 0.4671(4) 0.2973(3) -0.0656(3)
H16 H 0.5235 0.3369 -0.0427
Zn1B Zn -0.28659(5) 0.60278(3) -0.03206(3)
Zn1A Zn 0.21341(5) -0.10278(3) 0.46794(3)
Zn1C Zn -0.21341(5) 1.10278(3) -0.46794(3)
Zn1A_2 Zn 0.21341(5) 0.89722(3) -0.53206(3)
Zn2B Zn 0.10394(5) 0.64904(3) 0.13285(3)
Zn2B_2 Zn 0.10394(5) -0.35096(3) 0.13285(3)
Zn2A Zn 0.60394(5) -0.14904(3) -0.36715(3)
Zn2_2 Zn -0.10394(5) 1.35096(3) -0.13285(3)
O1B O 0.2490(3) 0.6823(2) 0.22115(19)
H1B H 0.2298 0.7267 0.2462
H2B H 0.2648 0.6449 0.2583
O2B O -0.0277(3) 0.6248(2) 0.04076(17)
O3B O -0.1330(3) 0.6483(2) -0.07326(18)
O4B O 0.2645(3) 0.50069(19) -0.03977(18)
O5B O 0.2214(3) 0.5790(2) 0.06792(18)
O6B O -0.0825(3) 1.0796(2) -0.38851(18)
O6A O 0.4175(3) 0.4204(2) 0.11149(18)
O6C O -0.4175(3) 0.5796(2) -0.11149(18)
O7B O -0.1656(3) 1.1681(2) -0.29850(19)
O8B O 0.0057(3) 1.2528(2) -0.1830(2)
O8B_2 O 0.0057(3) 0.2528(2) -0.1830(2)
O8_2 O -0.0057(3) 0.7472(2) 0.1830(2)
O9B O -0.1323(4) 1.1990(3) -0.1029(2)
O9B_2 O -0.1323(4) 0.1990(3) -0.1029(2)
O9_2 O 0.1323(4) 0.8010(3) 0.1029(2)
O10B O 0.1372(3) 0.8510(2) -0.22898(18)
N1A N -0.0411(3) 0.4590(2) -0.1978(2)
N1C N 0.0411(3) 0.5410(2) 0.1978(2)
N2A N 0.1499(3) 0.8058(2) -0.4527(2)
N2B N -0.3501(3) 0.6942(2) 0.0473(2)
C1B C 0.1547(4) 0.7839(3) -0.1711(3)
C2B C 0.0578(4) 0.7517(3) -0.1292(3)
H3B H -0.0197 0.7758 -0.1377
C3B C 0.0761(4) 0.6824(3) -0.0734(2)
C4B C 0.1928(4) 0.6457(3) -0.0637(2)
C5B C 0.2867(4) 0.6764(3) -0.1104(3)
H4B H 0.3627 0.6490 -0.1062
C6B C 0.2696(4) 0.7470(3) -0.1631(3)
H5B H 0.3340 0.7689 -0.1923
C7B C -0.0348(4) 0.6489(3) -0.0313(3)
C8B C 0.2258(4) 0.5698(3) -0.0075(3)
C9B C 0.0858(4) 0.9300(3) -0.2056(3)
C10B C 0.0280(4) 0.9788(3) -0.2669(3)
H6B H 0.0210 0.9556 -0.3189
C11B C -0.0193(4) 1.0620(3) -0.2513(3)
C12B C -0.0088(4) 1.0963(3) -0.1728(3)
C13B C 0.0484(5) 1.0449(3) -0.1119(3)
H7B H 0.0554 1.0673 -0.0596
C14B C 0.0945(4) 0.9620(3) -0.1275(3)
H8B H 0.1309 0.9284 -0.0862
C15B C -0.0944(4) 1.1088(3) -0.3168(3)
C16B C -0.0501(5) 1.1880(3) -0.1511(3)
C17A C 0.0756(4) 0.4700(3) -0.2140(3)
H9A H 0.1326 0.4294 -0.1935
C18A C 0.1155(5) 0.5394(3) -0.2603(3)
H10A H 0.1983 0.5451 -0.2698
C19A C 0.0339(4) 0.6006(3) -0.2929(2)
C20A C -0.0867(4) 0.5901(3) -0.2732(3)
H11A H -0.1453 0.6306 -0.2915
C21A C -0.1202(5) 0.5192(3) -0.2263(3)
H12A H -0.2019 0.5133 -0.2139
C22A C 0.2286(5) 0.7506(3) -0.4162(3)
H13A H 0.3112 0.7563 -0.4265
C23A C 0.1937(5) 0.6853(3) -0.3639(3)
H14A H 0.2527 0.6488 -0.3397
C24A C 0.0727(4) 0.6734(3) -0.3469(3)
C25A C -0.0089(4) 0.7326(3) -0.3832(3)
H15A H -0.0918 0.7287 -0.3731
C26A C 0.0329(4) 0.7973(3) -0.4344(3)
H16A H -0.0235 0.8369 -0.4573
N3 N -0.2168(5) 0.3922(4) -0.3780(3)
C27 C -0.2418(6) 0.4675(5) -0.4165(4)
H17 H -0.3186 0.4923 -0.4107
C28 C -0.1606(6) 0.5114(4) -0.4650(4)
H18 H -0.1836 0.5640 -0.4904
C29 C -0.0460(5) 0.4770(4) -0.4753(3)
C30 C -0.0191(6) 0.3989(4) -0.4357(4)
H19 H 0.0573 0.3728 -0.4403
C31 C -0.1056(7) 0.3594(4) -0.3892(4)
H20 H -0.0852 0.3062 -0.3640
N3B N 0.2168(5) 0.6078(4) -0.6220(3)
C27B C 0.2418(6) 0.5325(5) -0.5835(4)
H17B H 0.3186 0.5077 -0.5893
C28B C 0.1606(6) 0.4886(4) -0.5350(4)
H18B H 0.1836 0.4360 -0.5096
C29B C 0.0460(5) 0.5230(4) -0.5247(3)
C30B C 0.0191(6) 0.6011(4) -0.5643(4)
H19B H -0.0573 0.6272 -0.5597
C31B C 0.1056(7) 0.6406(4) -0.6108(4)
H20B H 0.0852 0.6938 -0.6360
loop_
_geom_bond_atom_site_label_1
_geom_bond_atom_site_label_2
_geom_bond_site_symmetry_1
_geom_bond_site_symmetry_2
Zn1 O3 1_555 1_555
Zn2 O1 1_555 1_555
O1 H1 1_555 1_555
H2 O1 1_555 1_555
O2 Zn2 1_555 1_555
O3 C7 1_555 1_555
O4 C8 1_555 1_555
O5 Zn2 1_555 1_555
O6 C15 1_555 1_555
O7 C15 1_555 1_555
O8 C16 1_555 1_555
O9 C16 1_555 1_555
O10 C1 1_555 1_555
N1 C17 1_555 1_555
N2 Zn1 1_555 1_555
N3 C27 1_555 1_555
C1 C2 1_555 1_555
C2 H3 1_555 1_555
C3 C2 1_555 1_555
C4 C3 1_555 1_555
C5 C4 1_555 1_555
H4 C5 1_555 1_555
C6 C1 1_555 1_555
H5 C6 1_555 1_555
C7 O2 1_555 1_555
C8 O5 1_555 1_555
C9 O10 1_555 1_555
C10 C9 1_555 1_555
H6 C10 1_555 1_555
C11 C10 1_555 1_555
C12 C11 1_555 1_555
C13 C12 1_555 1_555
H7 C13 1_555 1_555
C14 C9 1_555 1_555
H8 C14 1_555 1_555
C15 C11 1_555 1_555
C16 C12 1_555 1_555
C17 H9 1_555 1_555
C18 C17 1_555 1_555
H10 C18 1_555 1_555
C19 C18 1_555 1_555
C20 C19 1_555 1_555
H11 C20 1_555 1_555
C21 N1 1_555 1_555
H12 C21 1_555 1_555
C22 N2 1_555 1_555
H13 C22 1_555 1_555
C23 C22 1_555 1_555
H14 C23 1_555 1_555
C24 C19 1_555 1_555
C25 C24 1_555 1_555
H15 C25 1_555 1_555
C26 N2 1_555 1_555
H16 C26 1_555 1_555
C27 H17 1_555 1_555
C28 C27 1_555 1_555
H18 C28 1_555 1_555
C29 C28 1_555 1_555
C30 C29 1_555 1_555
H19 C30 1_555 1_555
C31 N3 1_555 1_555
H20 C31 1_555 1_555
Zn1B O4 1_555 1_555
Zn1A O6 1_555 1_555
Zn1C O6B 1_555 1_555
Zn1A_2 N2A 1_555 1_555
Zn2B O1B 1_555 1_555
Zn2B_2 O8 1_555 1_555
Zn2A N1 1_555 1_555
Zn2_2 O8B 1_555 1_555
O1B H1B 1_555 1_555
H2B O1B 1_555 1_555
O2B Zn2B 1_555 1_555
O3B Zn1B 1_555 1_555
O4B Zn1 1_555 1_555
O5B Zn2B 1_555 1_555
O6B C15B 1_555 1_555
O6A Zn1 1_555 1_555
O6C Zn1B 1_555 1_555
O7B C15B 1_555 1_555
O8B C16B 1_555 1_555
O8B_2 Zn2 1_555 1_555
O8_2 Zn2B 1_555 1_555
O9B Zn2_2 1_555 1_555
O9B_2 Zn2 1_555 1_555
O9_2 Zn2B 1_555 1_555
O10B C1B 1_555 1_555
N1A Zn2 1_555 1_555
N1C Zn2B 1_555 1_555
N2A C22A 1_555 1_555
N2B Zn1B 1_555 1_555
N3B C27B 1_555 1_555
C1B C2B 1_555 1_555
C2B H3B 1_555 1_555
C3B C2B 1_555 1_555
C4B C3B 1_555 1_555
C5B C4B 1_555 1_555
H4B C5B 1_555 1_555
C6B C1B 1_555 1_555
H5B C6B 1_555 1_555
C7B O2B 1_555 1_555
C8B O4B 1_555 1_555
C9B O10B 1_555 1_555
C10B C9B 1_555 1_555
H6B C10B 1_555 1_555
C11B C10B 1_555 1_555
C12B C11B 1_555 1_555
C13B C12B 1_555 1_555
H7B C13B 1_555 1_555
C14B C9B 1_555 1_555
H8B C14B 1_555 1_555
C15B C11B 1_555 1_555
C16B O9B 1_555 1_555
C17A N1A 1_555 1_555
H9A C17A 1_555 1_555
C18A C17A 1_555 1_555
H10A C18A 1_555 1_555
C19A C18A 1_555 1_555
C20A C19A 1_555 1_555
H11A C20A 1_555 1_555
C21A N1A 1_555 1_555
H12A C21A 1_555 1_555
C22A H13A 1_555 1_555
C23A C22A 1_555 1_555
H14A C23A 1_555 1_555
C24A C19A 1_555 1_555
C25A C24A 1_555 1_555
H15A C25A 1_555 1_555
C26A N2A 1_555 1_555
H16A C26A 1_555 1_555
C27B H17B 1_555 1_555
C28B C27B 1_555 1_555
H18B C28B 1_555 1_555
C29B C29 1_555 1_555
C30B C29B 1_555 1_555
H19B C30B 1_555 1_555
C31B N3B 1_555 1_555
H20B C31B 1_555 1_555
O9 Zn2B_2 1_555 1_555
C3 C7 1_555 1_555
C4 C8 1_555 1_555
C5 C6 1_555 1_555
C13 C14 1_555 1_555
C20 C21 1_555 1_555
C23 C24 1_555 1_555
C25 C26 1_555 1_555
C30 C31 1_555 1_555
O3B C7B 1_555 1_555
O5B C8B 1_555 1_555
C3B C7B 1_555 1_555
C4B C8B 1_555 1_555
C5B C6B 1_555 1_555
C12B C16B 1_555 1_555
C13B C14B 1_555 1_555
C20A C21A 1_555 1_555
C23A C24A 1_555 1_555
C25A C26A 1_555 1_555
C28B C29B 1_555 1_555
C30B C31B 1_555 1_555

#END
