
#######################################################################
#
#                 Cambridge Crystallographic Data Centre
#                                CCDC 
#
#######################################################################
#
# If this CIF has been generated from an entry in the Cambridge 
# Structural Database, then it will include bibliographic, chemical, 
# crystal, experimental, refinement or atomic coordinate data resulting 
# from the CCDC's data processing and validation procedures.
#
#######################################################################

data_AFECAR
_symmetry_cell_setting           monoclinic
_symmetry_space_group_name_H-M   'C 2/c'
_symmetry_Int_Tables_number      15
_space_group_name_Hall           '-C 2yn'
loop_
_symmetry_equiv_pos_site_id
_symmetry_equiv_pos_as_xyz
1 x,y,z
2 -x,y,1/2-z
3 1/2+x,1/2+y,z
4 1/2-x,1/2+y,1/2-z
5 -x,-y,-z
6 x,-y,1/2+z
7 1/2-x,1/2-y,-z
8 1/2+x,1/2-y,1/2+z
_cell_length_a                   14.791(3)
_cell_length_b                   17.227(3)
_cell_length_c                   25.476(5)
_cell_angle_alpha                90
_cell_angle_beta                 101.96(3)
_cell_angle_gamma                90
_cell_volume                     6350.49
loop_
_atom_site_label
_atom_site_type_symbol
_atom_site_fract_x
_atom_site_fract_y
_atom_site_fract_z
Cu1 Cu 0.5000 0.23937(3) 0.7500
N1 N 0.97697(19) -0.17951(16) 0.69159(12)
O1 O 0.3346(2) 0.24624(18) 0.75303(13)
H1 H 0.311(4) 0.253(4) 0.7804(15)
H2 H 0.291(3) 0.232(4) 0.7287(17)
N2 N 0.4728(2) 0.15327(17) 0.69443(13)
C1 C 0.9022(2) -0.1815(2) 0.65123(14)
H3 H 0.8588 -0.2223 0.6504
O2 O 0.7861(2) 0.0389(2) 0.64790(13)
O3 O 0.6564(2) -0.04525(18) 0.69361(14)
O4 O 0.5402(2) -0.1407(2) 0.49410(14)
N3 N 0.8437(2) 0.0199(2) 0.54849(15)
C2 C 1.0263(2) -0.0646(2) 0.65265(16)
H4 H 1.0710 -0.0246 0.6543
C3 C 0.5162(3) 0.0793(2) 0.62438(16)
H5 H 0.5553 0.0731 0.5994
C4 C 0.4490(3) 0.0238(2) 0.62759(16)
C5 C 0.3927(3) 0.0358(2) 0.66415(17)
H6 H 0.3445 0.0003 0.6665
N4 N 0.5094(3) -0.1057(2) 0.60657(17)
C6 C 0.4079(3) 0.1005(2) 0.69718(16)
H7 H 0.3705 0.1075 0.7229
O5 O 0.7151(2) -0.0880(2) 0.48667(14)
C7 C 0.9492(2) -0.0670(2) 0.61058(15)
C8 C 1.0370(2) -0.1210(2) 0.69189(16)
H8 H 1.0895 -0.1183 0.7206
C9 C 0.8860(2) -0.1263(2) 0.61086(15)
H9 H 0.8317 -0.1291 0.5834
C10 C 0.9382(3) -0.0094(3) 0.56489(18)
H10 H 0.9805 0.0349 0.5759
H11 H 0.9564 -0.0347 0.5337
C11 C 0.5255(2) 0.1434(2) 0.65779(15)
H12 H 0.5705 0.1815 0.6548
C12 C 0.8491(3) 0.0938(3) 0.6333(2)
H13 H 0.9135 0.0782 0.6486
H14 H 0.8384 0.1459 0.6473
C13 C 0.4333(3) -0.0461(2) 0.59110(18)
H15 H 0.4304 -0.0293 0.5536
H16 H 0.3732 -0.0702 0.5929
C14 C 0.6277(3) -0.1235(3) 0.6915(2)
H17 H 0.6379 -0.1454 0.7282
H18 H 0.6640 -0.1545 0.6704
C15 C 0.7514(3) -0.0372(3) 0.71866(19)
H19 H 0.7874 -0.0799 0.7070
H20 H 0.7583 -0.0406 0.7581
C16 C 0.5267(3) -0.1269(3) 0.6656(2)
H21 H 0.4921 -0.0908 0.6844
H22 H 0.5032 -0.1800 0.6694
C17 C 0.6803(4) -0.1615(3) 0.46371(19)
H23 H 0.7322 -0.1980 0.4646
H24 H 0.6485 -0.1540 0.4258
C18 C 0.8330(3) 0.0961(3) 0.5724(2)
H25 H 0.7698 0.1157 0.5579
H26 H 0.8773 0.1330 0.5617
C19 C 0.4654(4) -0.1708(3) 0.5155(2)
H27 H 0.4479 -0.2221 0.4991
H28 H 0.4115 -0.1359 0.5049
C20 C 0.7894(4) -0.0572(4) 0.4659(2)
H29 H 0.7714 -0.0533 0.4263
H30 H 0.8437 -0.0920 0.4750
C21 C 0.4853(4) -0.1794(3) 0.5743(2)
H31 H 0.5373 -0.2163 0.5845
H32 H 0.4306 -0.2030 0.5847
C22 C 0.7876(3) 0.0383(3) 0.7044(2)
H33 H 0.7490 0.0811 0.7135
H34 H 0.8516 0.0457 0.7248
C23 C 0.6144(4) -0.1941(3) 0.4949(3)
H35 H 0.5897 -0.2442 0.4791
H36 H 0.6468 -0.2037 0.5324
C24 C 0.8136(4) 0.0222(3) 0.4898(2)
H37 H 0.8636 0.0448 0.4741
H38 H 0.7589 0.0564 0.4802
H39 H 0.563(3) -0.083(3) 0.5950(19)
N1A N 0.02303(19) -0.17951(16) 0.80841(12)
O1A O 0.6654(2) 0.24624(18) 0.74697(13)
H1A H 0.689(4) 0.253(4) 0.7196(15)
H2A H 0.709(3) 0.232(4) 0.7713(17)
N2A N 0.5272(2) 0.15327(17) 0.80557(13)
C1A C 0.0978(2) -0.1815(2) 0.84877(14)
H3A H 0.1412 -0.2223 0.8496
O2A O 0.2139(2) 0.0389(2) 0.85210(13)
O3A O 0.3436(2) -0.04525(18) 0.80639(14)
O4A O 0.4598(2) -0.1407(2) 1.00590(14)
N3A N 0.1563(2) 0.0199(2) 0.95151(15)
C2A C -0.0263(2) -0.0646(2) 0.84735(16)
H4A H -0.0710 -0.0246 0.8457
C3A C 0.4838(3) 0.0793(2) 0.87562(16)
H5A H 0.4447 0.0731 0.9006
C4A C 0.5510(3) 0.0238(2) 0.87241(16)
C5A C 0.6073(3) 0.0358(2) 0.83585(17)
H6A H 0.6555 0.0003 0.8335
N4A N 0.4906(3) -0.1057(2) 0.89343(17)
C6A C 0.5921(3) 0.1005(2) 0.80282(16)
H7A H 0.6295 0.1075 0.7771
O5A O 0.2849(2) -0.0880(2) 1.01333(14)
C7A C 0.0508(2) -0.0670(2) 0.88942(15)
C8A C -0.0370(2) -0.1210(2) 0.80811(16)
H8A H -0.0895 -0.1183 0.7794
C9A C 0.1140(2) -0.1263(2) 0.88914(15)
H9A H 0.1683 -0.1291 0.9166
C10A C 0.0618(3) -0.0094(3) 0.93511(18)
H10A H 0.0195 0.0349 0.9241
H11A H 0.0436 -0.0347 0.9663
C11A C 0.4745(2) 0.1434(2) 0.84221(15)
H12A H 0.4295 0.1815 0.8452
C12A C 0.1509(3) 0.0938(3) 0.8667(2)
H13A H 0.0865 0.0782 0.8514
H14A H 0.1616 0.1459 0.8527
C13A C 0.5667(3) -0.0461(2) 0.90890(18)
H15A H 0.5696 -0.0293 0.9464
H16A H 0.6268 -0.0702 0.9071
C14A C 0.3723(3) -0.1235(3) 0.8085(2)
H17A H 0.3621 -0.1454 0.7718
H18A H 0.3360 -0.1545 0.8296
C15A C 0.2486(3) -0.0372(3) 0.78134(19)
H19A H 0.2126 -0.0799 0.7930
H20A H 0.2417 -0.0406 0.7419
C16A C 0.4733(3) -0.1269(3) 0.8344(2)
H21A H 0.5079 -0.0908 0.8156
H22A H 0.4968 -0.1800 0.8306
C17A C 0.3197(4) -0.1615(3) 1.03629(19)
H23A H 0.2678 -0.1980 1.0354
H24A H 0.3515 -0.1540 1.0742
C18A C 0.1670(3) 0.0961(3) 0.9276(2)
H25A H 0.2302 0.1157 0.9421
H26A H 0.1227 0.1330 0.9383
C19A C 0.5346(4) -0.1708(3) 0.9845(2)
H27A H 0.5521 -0.2221 1.0009
H28A H 0.5885 -0.1359 0.9951
C20A C 0.2106(4) -0.0572(4) 1.0341(2)
H29A H 0.2286 -0.0533 1.0737
H30A H 0.1563 -0.0920 1.0250
C21A C 0.5147(4) -0.1794(3) 0.9257(2)
H31A H 0.4627 -0.2163 0.9155
H32A H 0.5694 -0.2030 0.9153
C22A C 0.2124(3) 0.0383(3) 0.7956(2)
H33A H 0.2510 0.0811 0.7865
H34A H 0.1484 0.0457 0.7752
C23A C 0.3856(4) -0.1941(3) 1.0051(3)
H35A H 0.4103 -0.2442 1.0209
H36A H 0.3532 -0.2037 0.9676
C24A C 0.1864(4) 0.0222(3) 1.0102(2)
H37A H 0.1364 0.0448 1.0259
H38A H 0.2411 0.0564 1.0198
H39A H 0.437(3) -0.083(3) 0.9050(19)
Cu1B Cu 0.0000 -0.26063(3) 0.7500
Cu1B_2 Cu 1.0000 -0.26063(3) 0.7500
N1B N 0.47697(19) 0.32049(16) 0.69159(12)
N1C N 0.52303(19) 0.32049(16) 0.80841(12)
Cl1 Cl 0.14632(7) 0.15540(6) 0.65697(5)
O6 O 0.1848(2) 0.07944(18) 0.66882(15)
O7 O 0.2124(3) 0.2064(2) 0.6435(2)
O8 O 0.1191(7) 0.1861(3) 0.7022(3)
O9 O 0.0697(4) 0.1503(3) 0.6155(3)
Cl2 Cl 0.28710(10) 0.31091(7) 0.88801(6)
O10 O 0.2672(3) 0.3871(2) 0.86687(17)
O11 O 0.2347(3) 0.2938(3) 0.92750(19)
O12 O 0.3837(4) 0.3070(4) 0.9133(3)
O13 O 0.2764(6) 0.2533(3) 0.8486(3)
O14 O 0.6493(2) -0.0328(2) 0.57417(16)
H40 H 0.674(4) -0.037(4) 0.5476(17)
H41 H 0.686(4) -0.005(4) 0.596(2)
loop_
_geom_bond_atom_site_label_1
_geom_bond_atom_site_label_2
_geom_bond_site_symmetry_1
_geom_bond_site_symmetry_2
Cu1 O1 1_555 1_555
N1 C1 1_555 1_555
O1 H1 1_555 1_555
H2 O1 1_555 1_555
N2 Cu1 1_555 1_555
C1 H3 1_555 1_555
O2 C12 1_555 1_555
O3 C14 1_555 1_555
O4 C19 1_555 1_555
N3 C10 1_555 1_555
C2 H4 1_555 1_555
C3 H5 1_555 1_555
C4 C3 1_555 1_555
C5 C4 1_555 1_555
H6 C5 1_555 1_555
N4 C13 1_555 1_555
C6 N2 1_555 1_555
H7 C6 1_555 1_555
O5 C17 1_555 1_555
C7 C2 1_555 1_555
C8 N1 1_555 1_555
H8 C8 1_555 1_555
C9 C1 1_555 1_555
H9 C9 1_555 1_555
C10 C7 1_555 1_555
H10 C10 1_555 1_555
H11 C10 1_555 1_555
C11 N2 1_555 1_555
H12 C11 1_555 1_555
C12 H13 1_555 1_555
H14 C12 1_555 1_555
C13 C4 1_555 1_555
H15 C13 1_555 1_555
H16 C13 1_555 1_555
C14 H17 1_555 1_555
H18 C14 1_555 1_555
C15 O3 1_555 1_555
H19 C15 1_555 1_555
H20 C15 1_555 1_555
C16 N4 1_555 1_555
H21 C16 1_555 1_555
H22 C16 1_555 1_555
C17 H23 1_555 1_555
H24 C17 1_555 1_555
C18 N3 1_555 1_555
H25 C18 1_555 1_555
H26 C18 1_555 1_555
C19 H27 1_555 1_555
H28 C19 1_555 1_555
C20 O5 1_555 1_555
H29 C20 1_555 1_555
H30 C20 1_555 1_555
C21 N4 1_555 1_555
H31 C21 1_555 1_555
H32 C21 1_555 1_555
C22 O2 1_555 1_555
H33 C22 1_555 1_555
H34 C22 1_555 1_555
C23 O4 1_555 1_555
H35 C23 1_555 1_555
H36 C23 1_555 1_555
C24 N3 1_555 1_555
H37 C24 1_555 1_555
H38 C24 1_555 1_555
H39 N4 1_555 1_555
Cl1 O6 1_555 1_555
O7 Cl1 1_555 1_555
O8 Cl1 1_555 1_555
O9 Cl1 1_555 1_555
Cl2 O10 1_555 1_555
O11 Cl2 1_555 1_555
O12 Cl2 1_555 1_555
O13 Cl2 1_555 1_555
O14 H40 1_555 1_555
H41 O14 1_555 1_555
N1A C1A 1_555 1_555
O1A Cu1 1_555 1_555
H1A O1A 1_555 1_555
H2A O1A 1_555 1_555
N2A Cu1 1_555 1_555
C1A H3A 1_555 1_555
O2A C12A 1_555 1_555
O3A C14A 1_555 1_555
O4A C19A 1_555 1_555
N3A C10A 1_555 1_555
C2A H4A 1_555 1_555
C3A H5A 1_555 1_555
C4A C3A 1_555 1_555
C5A C4A 1_555 1_555
H6A C5A 1_555 1_555
N4A C13A 1_555 1_555
C6A N2A 1_555 1_555
H7A C6A 1_555 1_555
O5A C17A 1_555 1_555
C7A C2A 1_555 1_555
C8A N1A 1_555 1_555
H8A C8A 1_555 1_555
C9A C1A 1_555 1_555
H9A C9A 1_555 1_555
C10A C7A 1_555 1_555
H10A C10A 1_555 1_555
H11A C10A 1_555 1_555
C11A N2A 1_555 1_555
H12A C11A 1_555 1_555
C12A H13A 1_555 1_555
H14A C12A 1_555 1_555
C13A C4A 1_555 1_555
H15A C13A 1_555 1_555
H16A C13A 1_555 1_555
C14A H17A 1_555 1_555
H18A C14A 1_555 1_555
C15A O3A 1_555 1_555
H19A C15A 1_555 1_555
H20A C15A 1_555 1_555
C16A N4A 1_555 1_555
H21A C16A 1_555 1_555
H22A C16A 1_555 1_555
C17A H23A 1_555 1_555
H24A C17A 1_555 1_555
C18A N3A 1_555 1_555
H25A C18A 1_555 1_555
H26A C18A 1_555 1_555
C19A H27A 1_555 1_555
H28A C19A 1_555 1_555
C20A O5A 1_555 1_555
H29A C20A 1_555 1_555
H30A C20A 1_555 1_555
C21A N4A 1_555 1_555
H31A C21A 1_555 1_555
H32A C21A 1_555 1_555
C22A O2A 1_555 1_555
H33A C22A 1_555 1_555
H34A C22A 1_555 1_555
C23A O4A 1_555 1_555
H35A C23A 1_555 1_555
H36A C23A 1_555 1_555
C24A N3A 1_555 1_555
H37A C24A 1_555 1_555
H38A C24A 1_555 1_555
H39A N4A 1_555 1_555
Cu1B N1A 1_555 1_555
Cu1B_2 N1 1_555 1_555
N1B Cu1 1_555 1_555
N1C Cu1 1_555 1_555
C2 C8 1_555 1_555
C3 C11 1_555 1_555
C5 C6 1_555 1_555
C7 C9 1_555 1_555
C12 C18 1_555 1_555
C14 C16 1_555 1_555
C15 C22 1_555 1_555
C17 C23 1_555 1_555
C19 C21 1_555 1_555
C20 C24 1_555 1_555
C2A C8A 1_555 1_555
C3A C11A 1_555 1_555
C5A C6A 1_555 1_555
C7A C9A 1_555 1_555
C12A C18A 1_555 1_555
C14A C16A 1_555 1_555
C15A C22A 1_555 1_555
C17A C23A 1_555 1_555
C19A C21A 1_555 1_555
C20A C24A 1_555 1_555

#END
