
#######################################################################
#
#                 Cambridge Crystallographic Data Centre
#                                CCDC 
#
#######################################################################
#
# If this CIF has been generated from an entry in the Cambridge 
# Structural Database, then it will include bibliographic, chemical, 
# crystal, experimental, refinement or atomic coordinate data resulting 
# from the CCDC's data processing and validation procedures.
#
#######################################################################

data_AFEFEY
_symmetry_cell_setting           monoclinic
_symmetry_space_group_name_H-M   'P 21/c'
_symmetry_Int_Tables_number      14
_space_group_name_Hall           '-P 2ybc'
loop_
_symmetry_equiv_pos_site_id
_symmetry_equiv_pos_as_xyz
1 x,y,z
2 -x,1/2+y,1/2-z
3 -x,-y,-z
4 x,1/2-y,1/2+z
_cell_length_a                   11.1522(11)
_cell_length_b                   9.0268(8)
_cell_length_c                   14.3025(14)
_cell_angle_alpha                90
_cell_angle_beta                 94.009(5)
_cell_angle_gamma                90
_cell_volume                     1436.29
loop_
_atom_site_label
_atom_site_type_symbol
_atom_site_fract_x
_atom_site_fract_y
_atom_site_fract_z
Ba1 Ba 0.676848(7) 0.760410(9) 0.685367(6)
O1 O 0.83608(12) 0.75740(13) 0.84885(10)
O2 O 0.67679(9) 1.02235(11) 0.77441(7)
C1 C 0.76489(13) 1.36306(16) 0.72323(10)
O3 O 0.90411(9) 0.87276(11) 0.65721(7)
C2 C 0.66220(13) 1.30175(17) 0.77342(10)
C3 C 0.70789(13) 1.14962(16) 0.75478(10)
O4 O 0.56965(11) 0.65706(14) 0.83609(8)
O5 O 0.89727(9) 1.16255(12) 0.66655(8)
O6 O 0.99133(10) 0.52766(11) 0.61707(8)
C4 C 0.80471(14) 1.21456(17) 0.70706(11)
O7 O 0.65618(12) 0.97776(13) 0.54757(8)
O8 O 1.13514(9) 0.98991(11) 0.55422(7)
O9 O 0.73539(11) 0.64714(14) 0.51598(9)
O10 O 1.20517(9) 0.64982(11) 0.50651(8)
C5 C 1.09085(13) 0.86799(16) 0.56650(10)
C6 C 1.02281(13) 0.66277(17) 0.59606(11)
C7 C 0.98586(13) 0.81173(17) 0.61497(10)
O11 O 0.79995(9) 1.49094(11) 0.70579(7)
C8 C 1.12363(14) 0.71099(17) 0.54615(11)
O12 O 0.57822(9) 1.35215(11) 0.81426(7)
O13 O 0.51886(10) 0.54413(12) 0.62332(8)
H1 H 0.860(2) 0.681(3) 0.8658(15)
H2 H 0.7564(19) 0.556(3) 0.5121(15)
H3 H 0.750(2) 0.685(3) 0.4720(18)
H4 H 0.892(2) 0.813(3) 0.8462(16)
H5 H 0.5667(19) 0.563(3) 0.8392(15)
H6 H 0.535(2) 0.465(3) 0.5962(17)
H7 H 0.458(2) 0.529(3) 0.6545(16)
H8 H 0.542(2) 0.690(3) 0.8807(18)
H9 H 0.616(2) 1.046(3) 0.5350(17)
H10 H 0.720(3) 0.985(3) 0.5169(18)
H11 H 0.925(2) 0.518(3) 0.6447(18)
H12 H 0.901(2) 1.068(3) 0.6630(17)
Ba1_2 Ba 0.676848(7) 1.760410(9) 0.685367(6)
Ba1A Ba 0.323152(7) 1.260410(9) 0.814633(6)
O11_2 O 0.79995(9) 0.49094(11) 0.70579(7)
O12A O 0.42178(9) 0.85215(11) 0.68574(7)
O14 O 0.56817(12) 0.28422(13) 0.52709(8)
H13 H 0.634(2) 0.293(2) 0.5207(14)
H14 H 0.535(2) 0.323(3) 0.4773(17)
loop_
_geom_bond_atom_site_label_1
_geom_bond_atom_site_label_2
_geom_bond_site_symmetry_1
_geom_bond_site_symmetry_2
Ba1 O1 1_555 1_555
O1 H1 1_555 1_555
O2 Ba1 1_555 1_555
C1 C2 1_555 1_555
O3 Ba1 1_555 1_555
C2 C3 1_555 1_555
C3 O2 1_555 1_555
O4 Ba1 1_555 1_555
O5 C4 1_555 1_555
O6 C6 1_555 1_555
C4 C1 1_555 1_555
O7 Ba1 1_555 1_555
O8 C5 1_555 1_555
O9 Ba1 1_555 1_555
O10 C8 1_555 1_555
C5 C7 1_555 1_555
C6 C7 1_555 1_555
C7 O3 1_555 1_555
O11 C1 1_555 1_555
C8 C5 1_555 1_555
O12 C2 1_555 1_555
O13 Ba1 1_555 1_555
H2 O9 1_555 1_555
H3 O9 1_555 1_555
H4 O1 1_555 1_555
H5 O4 1_555 1_555
H6 O13 1_555 1_555
H7 O13 1_555 1_555
H8 O4 1_555 1_555
H9 O7 1_555 1_555
H10 O7 1_555 1_555
H11 O6 1_555 1_555
H12 O5 1_555 1_555
O14 H13 1_555 1_555
H14 O14 1_555 1_555
Ba1_2 O11 1_555 1_555
Ba1A O12 1_555 1_555
O11_2 Ba1 1_555 1_555
O12A Ba1 1_555 1_555
C3 C4 1_555 1_555
C6 C8 1_555 1_555

#END
