
#######################################################################
#
#                 Cambridge Crystallographic Data Centre
#                                CCDC 
#
#######################################################################
#
# If this CIF has been generated from an entry in the Cambridge 
# Structural Database, then it will include bibliographic, chemical, 
# crystal, experimental, refinement or atomic coordinate data resulting 
# from the CCDC's data processing and validation procedures.
#
#######################################################################

data_AFEFAU
_symmetry_cell_setting           monoclinic
_symmetry_space_group_name_H-M   'P 21/c'
_symmetry_Int_Tables_number      14
_space_group_name_Hall           '-P 2ybc'
loop_
_symmetry_equiv_pos_site_id
_symmetry_equiv_pos_as_xyz
1 x,y,z
2 -x,1/2+y,1/2-z
3 -x,-y,-z
4 x,1/2-y,1/2+z
_cell_length_a                   10.22110(10)
_cell_length_b                   17.1355(2)
_cell_length_c                   16.4142(2)
_cell_angle_alpha                90
_cell_angle_beta                 125.4840(10)
_cell_angle_gamma                90
_cell_volume                     2340.92
loop_
_atom_site_label
_atom_site_type_symbol
_atom_site_fract_x
_atom_site_fract_y
_atom_site_fract_z
Co1 Co 0.22673(3) -0.467750(13) 0.253178(16)
S1 S -0.26808(6) -0.54790(4) 0.03145(4)
N1 N -0.3385(2) -0.68541(12) -0.05863(14)
N2 N 0.04982(18) -0.38323(9) 0.15601(11)
N3 N -0.60092(18) -0.12730(9) -0.15781(11)
N4 N 0.14149(18) -0.47934(10) 0.34767(11)
O1 O 0.06128(15) -0.55683(8) 0.16874(10)
O2 O 0.20011(18) -0.66643(9) 0.23590(11)
O3 O -0.54191(18) -0.48099(12) -0.24881(12)
O4 O -0.29489(15) -0.53055(8) -0.15622(10)
O5 O 0.41017(15) -0.55208(8) 0.34497(9)
H1 H 0.3686 -0.5973 0.3268
H2 H 0.4812 -0.5482 0.3336
C1 C -0.0421(3) -0.75259(13) 0.07695(19)
H3 H 0.0564 -0.7762 0.1229
C2 C -0.1648(4) -0.79492(14) -0.0044(2)
H4 H -0.1496 -0.8467 -0.0141
C3 C -0.3083(4) -0.75831(15) -0.0694(2)
H5 H -0.3895 -0.7863 -0.1245
C4 C -0.2204(2) -0.64420(12) 0.01904(13)
C5 C -0.0664(2) -0.67566(11) 0.08956(14)
C6 C 0.0760(2) -0.62946(11) 0.17223(13)
C7 C -0.4499(3) -0.52819(15) -0.09011(16)
H6 H -0.5211 -0.5727 -0.1103
H7 H -0.5031 -0.4837 -0.0847
C8 C -0.4259(2) -0.51158(12) -0.17142(14)
C9 C -0.1027(3) -0.26859(15) 0.12914(17)
H8 H -0.1169 -0.2245 0.1563
C10 C 0.0229(3) -0.31873(14) 0.18932(16)
H9 H 0.0930 -0.3069 0.2570
C11 C -0.0478(2) -0.39688(11) 0.05773(13)
H10 H -0.0282 -0.4403 0.0323
C12 C -0.1767(2) -0.34941(11) -0.00793(13)
H11 H -0.2421 -0.3614 -0.0758
C13 C -0.2083(2) -0.28423(11) 0.02741(14)
C14 C -0.4239(3) -0.19437(14) -0.00281(15)
H12 H -0.3913 -0.2030 0.0624
C15 C -0.3472(2) -0.23228(11) -0.03857(14)
C16 C -0.5485(2) -0.14378(13) -0.06392(14)
H13 H -0.5990 -0.1197 -0.0383
C17 C -0.5296(3) -0.16573(12) -0.19305(15)
H14 H -0.5660 -0.1568 -0.2590
C18 C -0.4046(3) -0.21800(12) -0.13694(15)
H15 H -0.3595 -0.2434 -0.1652
C19 C -0.0124(3) -0.46731(18) 0.31159(16)
H16 H -0.0828 -0.4523 0.2450
C20 C -0.0725(2) -0.47589(19) 0.36765(16)
H17 H -0.1810 -0.4673 0.3384
C21 C 0.1870(2) -0.51257(11) 0.50404(14)
H18 H 0.2596 -0.5290 0.5698
C22 C 0.2363(2) -0.50319(11) 0.44222(14)
H19 H 0.3429 -0.5143 0.4684
C23 C 0.0286(2) -0.49728(11) 0.46761(13)
N4B N -0.14149(18) -0.52066(10) 0.65233(11)
C19B C 0.0124(3) -0.53269(18) 0.68841(16)
H16B H 0.0828 -0.5477 0.7550
C20B C 0.0725(2) -0.52411(19) 0.63235(16)
H17B H 0.1810 -0.5327 0.6616
C21B C -0.1870(2) -0.48743(11) 0.49596(14)
H18B H -0.2596 -0.4710 0.4302
C22B C -0.2363(2) -0.49681(11) 0.55778(14)
H19B H -0.3429 -0.4857 0.5316
C23B C -0.0286(2) -0.50272(11) 0.53239(13)
Co1B Co -0.22673(3) -0.532250(13) -0.253178(16)
S1B S 0.26808(6) -0.45210(4) -0.03145(4)
N1B N 0.3385(2) -0.31459(12) 0.05863(14)
N2B N -0.04982(18) -0.61677(9) -0.15601(11)
N3B N 0.60092(18) -0.87270(9) 0.15781(11)
O1B O -0.06128(15) -0.44317(8) -0.16874(10)
O2B O -0.20011(18) -0.33357(9) -0.23590(11)
O3B O 0.54191(18) -0.51901(12) 0.24881(12)
O4B O 0.29489(15) -0.46945(8) 0.15622(10)
O5B O -0.41017(15) -0.44792(8) -0.34497(9)
H1B H -0.3686 -0.4027 -0.3268
H2B H -0.4812 -0.4518 -0.3336
C1B C 0.0421(3) -0.24741(13) -0.07695(19)
H3B H -0.0564 -0.2238 -0.1229
C2B C 0.1648(4) -0.20508(14) 0.0044(2)
H4B H 0.1496 -0.1533 0.0141
C3B C 0.3083(4) -0.24169(15) 0.0694(2)
H5B H 0.3895 -0.2137 0.1245
C4B C 0.2204(2) -0.35580(12) -0.01904(13)
C5B C 0.0664(2) -0.32434(11) -0.08956(14)
C6B C -0.0760(2) -0.37054(11) -0.17223(13)
C7B C 0.4499(3) -0.47181(15) 0.09011(16)
H6B H 0.5211 -0.4273 0.1103
H7B H 0.5031 -0.5163 0.0847
C8B C 0.4259(2) -0.48842(12) 0.17142(14)
C9B C 0.1027(3) -0.73141(15) -0.12914(17)
H8B H 0.1169 -0.7755 -0.1563
C10B C -0.0229(3) -0.68127(14) -0.18932(16)
H9B H -0.0930 -0.6931 -0.2570
C11B C 0.0478(2) -0.60312(11) -0.05773(13)
H10B H 0.0282 -0.5597 -0.0323
C12B C 0.1767(2) -0.65059(11) 0.00793(13)
H11B H 0.2421 -0.6386 0.0758
C13B C 0.2083(2) -0.71577(11) -0.02741(14)
C14B C 0.4239(3) -0.80563(14) 0.00281(15)
H12B H 0.3913 -0.7970 -0.0624
C15B C 0.3472(2) -0.76772(11) 0.03857(14)
C16B C 0.5485(2) -0.85622(13) 0.06392(14)
H13B H 0.5990 -0.8803 0.0383
C17B C 0.5296(3) -0.83427(12) 0.19305(15)
H14B H 0.5660 -0.8432 0.2590
C18B C 0.4046(3) -0.78200(12) 0.13694(15)
H15B H 0.3595 -0.7566 0.1652
Co1A Co 0.77327(3) -0.967750(13) 0.246822(16)
Co1B_2 Co -0.22673(3) -0.532250(13) 0.746822(16)
Co1C Co -0.77327(3) -0.032250(13) -0.246822(16)
N3A N -0.39908(18) -0.62730(9) -0.34219(11)
N3C N 0.39908(18) -0.37270(9) 0.34219(11)
N4B_2 N -0.14149(18) -0.52066(10) -0.34767(11)
O6 O 0.3056(6) -0.8235(3) 0.2968(4)
O7 O -0.7292(11) -0.3553(6) -0.2320(7)
loop_
_geom_bond_atom_site_label_1
_geom_bond_atom_site_label_2
_geom_bond_site_symmetry_1
_geom_bond_site_symmetry_2
Co1 N2 1_555 1_555
S1 C4 1_555 1_555
N1 C3 1_555 1_555
N2 C10 1_555 1_555
N3 C16 1_555 1_555
N4 Co1 1_555 1_555
O1 Co1 1_555 1_555
O2 C6 1_555 1_555
O3 C8 1_555 1_555
O4 C8 1_555 1_555
O5 Co1 1_555 1_555
H1 O5 1_555 1_555
H2 O5 1_555 1_555
C1 H3 1_555 1_555
C2 C1 1_555 1_555
H4 C2 1_555 1_555
C3 C2 1_555 1_555
H5 C3 1_555 1_555
C4 N1 1_555 1_555
C5 C1 1_555 1_555
C6 O1 1_555 1_555
C7 S1 1_555 1_555
H6 C7 1_555 1_555
H7 C7 1_555 1_555
C8 C7 1_555 1_555
C9 H8 1_555 1_555
C10 C9 1_555 1_555
H9 C10 1_555 1_555
C11 N2 1_555 1_555
H10 C11 1_555 1_555
C12 C11 1_555 1_555
H11 C12 1_555 1_555
C13 C9 1_555 1_555
C14 H12 1_555 1_555
C15 C13 1_555 1_555
C16 C14 1_555 1_555
H13 C16 1_555 1_555
C17 N3 1_555 1_555
H14 C17 1_555 1_555
C18 C15 1_555 1_555
H15 C18 1_555 1_555
C19 N4 1_555 1_555
H16 C19 1_555 1_555
C20 C19 1_555 1_555
H17 C20 1_555 1_555
C21 H18 1_555 1_555
C22 N4 1_555 1_555
H19 C22 1_555 1_555
C23 C20 1_555 1_555
N4B C19B 1_555 1_555
C19B H16B 1_555 1_555
C20B C19B 1_555 1_555
H17B C20B 1_555 1_555
C21B H18B 1_555 1_555
C22B N4B 1_555 1_555
H19B C22B 1_555 1_555
C23B C23 1_555 1_555
Co1B O4 1_555 1_555
S1B C4B 1_555 1_555
N1B C3B 1_555 1_555
N2B Co1B 1_555 1_555
N3B C16B 1_555 1_555
O1B Co1B 1_555 1_555
O2B C6B 1_555 1_555
O3B C8B 1_555 1_555
O4B Co1 1_555 1_555
O5B Co1B 1_555 1_555
H1B O5B 1_555 1_555
H2B O5B 1_555 1_555
C1B H3B 1_555 1_555
C2B C1B 1_555 1_555
H4B C2B 1_555 1_555
C3B C2B 1_555 1_555
H5B C3B 1_555 1_555
C4B N1B 1_555 1_555
C5B C1B 1_555 1_555
C6B O1B 1_555 1_555
C7B S1B 1_555 1_555
H6B C7B 1_555 1_555
H7B C7B 1_555 1_555
C8B O4B 1_555 1_555
C9B H8B 1_555 1_555
C10B N2B 1_555 1_555
H9B C10B 1_555 1_555
C11B N2B 1_555 1_555
H10B C11B 1_555 1_555
C12B C11B 1_555 1_555
H11B C12B 1_555 1_555
C13B C9B 1_555 1_555
C14B H12B 1_555 1_555
C15B C13B 1_555 1_555
C16B C14B 1_555 1_555
H13B C16B 1_555 1_555
C17B N3B 1_555 1_555
H14B C17B 1_555 1_555
C18B C15B 1_555 1_555
H15B C18B 1_555 1_555
Co1A N3B 1_555 1_555
Co1B_2 N4B 1_555 1_555
Co1C N3 1_555 1_555
N3A Co1B 1_555 1_555
N3C Co1 1_555 1_555
N4B_2 Co1B 1_555 1_555
C4 C5 1_555 1_555
C5 C6 1_555 1_555
C12 C13 1_555 1_555
C14 C15 1_555 1_555
C17 C18 1_555 1_555
C21 C22 1_555 1_555
C21 C23 1_555 1_555
C20B C23B 1_555 1_555
C21B C22B 1_555 1_555
C21B C23B 1_555 1_555
C4B C5B 1_555 1_555
C5B C6B 1_555 1_555
C7B C8B 1_555 1_555
C9B C10B 1_555 1_555
C12B C13B 1_555 1_555
C14B C15B 1_555 1_555
C17B C18B 1_555 1_555

#END
