
#######################################################################
#
#                 Cambridge Crystallographic Data Centre
#                                CCDC 
#
#######################################################################
#
# If this CIF has been generated from an entry in the Cambridge 
# Structural Database, then it will include bibliographic, chemical, 
# crystal, experimental, refinement or atomic coordinate data resulting 
# from the CCDC's data processing and validation procedures.
#
#######################################################################

data_AFEGID
_symmetry_cell_setting           monoclinic
_symmetry_space_group_name_H-M   'C 2/c'
_symmetry_Int_Tables_number      15
_space_group_name_Hall           '-C 2yn'
loop_
_symmetry_equiv_pos_site_id
_symmetry_equiv_pos_as_xyz
1 x,y,z
2 -x,y,1/2-z
3 1/2+x,1/2+y,z
4 1/2-x,1/2+y,1/2-z
5 -x,-y,-z
6 x,-y,1/2+z
7 1/2-x,1/2-y,-z
8 1/2+x,1/2-y,1/2+z
_cell_length_a                   12.288(3)
_cell_length_b                   13.349(3)
_cell_length_c                   14.244(3)
_cell_angle_alpha                90
_cell_angle_beta                 113.39(3)
_cell_angle_gamma                90
_cell_volume                     2144.48
loop_
_atom_site_label
_atom_site_type_symbol
_atom_site_fract_x
_atom_site_fract_y
_atom_site_fract_z
Cu1 Cu 0.2500 0.2500 0.0000
O1 O 0.07807(11) 0.24346(9) -0.06638(10)
N1 N 0.27033(14) -0.10391(12) 0.38950(12)
N2 N 0.21900(13) 0.15245(10) 0.09372(11)
N3 N 0.09996(13) 0.13652(11) 0.06875(12)
C1 C 0.38186(16) -0.00109(14) 0.32256(15)
H1 H 0.4576 0.0211 0.3281
C2 C 0.17175(16) 0.00125(14) 0.24281(15)
H2 H 0.0988 0.0242 0.1923
C3 C 0.17304(17) -0.06719(15) 0.31632(15)
H3 H 0.0988 -0.0896 0.3143
C4 C 0.27962(16) 0.03584(13) 0.24435(14)
C5 C 0.03622(16) 0.18736(13) -0.01562(14)
C6 C 0.37330(17) -0.06991(15) 0.39198(15)
H4 H 0.4444 -0.0941 0.4440
C7 C -0.16555(18) 0.23105(14) -0.13975(16)
H5 H -0.1296 0.2705 -0.1751
C8 C -0.09470(16) 0.17841(13) -0.05313(14)
C9 C 0.29530(15) 0.10671(13) 0.17138(14)
H6 H 0.3756 0.1211 0.1839
C10 C -0.34020(18) 0.16951(16) -0.12463(17)
H7 H -0.4241 0.1675 -0.1482
C11 C -0.27127(19) 0.11491(17) -0.03975(18)
H8 H -0.3079 0.0743 -0.0058
C12 C -0.28764(18) 0.22705(15) -0.17542(17)
H9 H -0.3352 0.2638 -0.2347
C13 C -0.14871(17) 0.11890(15) -0.00365(16)
H10 H -0.1015 0.0810 0.0549
O1F O 0.42193(11) 0.25654(9) 0.06638(10)
N1F N 0.22967(14) 0.60391(12) -0.38950(12)
N2F N 0.28100(13) 0.34755(10) -0.09372(11)
N3F N 0.40004(13) 0.36348(11) -0.06875(12)
C1F C 0.11814(16) 0.50109(14) -0.32256(15)
H1F H 0.0424 0.4789 -0.3281
C2F C 0.32825(16) 0.49875(14) -0.24281(15)
H2F H 0.4012 0.4758 -0.1923
C3F C 0.32696(17) 0.56719(15) -0.31632(15)
H3F H 0.4012 0.5896 -0.3143
C4F C 0.22038(16) 0.46416(13) -0.24435(14)
C5F C 0.46378(16) 0.31264(13) 0.01562(14)
C6F C 0.12670(17) 0.56991(15) -0.39198(15)
H4F H 0.0556 0.5941 -0.4440
C7F C 0.66555(18) 0.26895(14) 0.13975(16)
H5F H 0.6296 0.2295 0.1751
C8F C 0.59470(16) 0.32159(13) 0.05313(14)
C9F C 0.20470(15) 0.39329(13) -0.17138(14)
H6F H 0.1244 0.3789 -0.1839
C10F C 0.84020(18) 0.33049(16) 0.12463(17)
H7F H 0.9241 0.3325 0.1482
C11F C 0.77127(19) 0.38509(17) 0.03975(18)
H8F H 0.8079 0.4257 0.0058
C12F C 0.78764(18) 0.27295(15) 0.17542(17)
H9F H 0.8352 0.2362 0.2347
C13F C 0.64871(17) 0.38110(15) 0.00365(16)
H10F H 0.6015 0.4190 -0.0549
Cu1C Cu 0.2500 -0.2500 0.5000
Cu1C_2 Cu 0.2500 0.7500 -0.5000
N1C N 0.22967(14) 0.39609(12) 0.11050(12)
N1E N 0.27033(14) 0.10391(12) -0.11050(12)
loop_
_geom_bond_atom_site_label_1
_geom_bond_atom_site_label_2
_geom_bond_site_symmetry_1
_geom_bond_site_symmetry_2
Cu1 O1 1_555 1_555
O1 C5 1_555 1_555
N1 C3 1_555 1_555
N2 Cu1 1_555 1_555
N3 N2 1_555 1_555
C1 H1 1_555 1_555
C2 H2 1_555 1_555
C3 C2 1_555 1_555
H3 C3 1_555 1_555
C4 C1 1_555 1_555
C5 N3 1_555 1_555
C6 N1 1_555 1_555
H4 C6 1_555 1_555
C7 H5 1_555 1_555
C8 C5 1_555 1_555
C9 N2 1_555 1_555
H6 C9 1_555 1_555
C10 H7 1_555 1_555
C11 C10 1_555 1_555
H8 C11 1_555 1_555
C12 C7 1_555 1_555
H9 C12 1_555 1_555
C13 C8 1_555 1_555
H10 C13 1_555 1_555
O1F Cu1 1_555 1_555
N1F C3F 1_555 1_555
N2F Cu1 1_555 1_555
N3F N2F 1_555 1_555
C1F H1F 1_555 1_555
C2F H2F 1_555 1_555
C3F C2F 1_555 1_555
H3F C3F 1_555 1_555
C4F C1F 1_555 1_555
C5F O1F 1_555 1_555
C6F N1F 1_555 1_555
H4F C6F 1_555 1_555
C7F H5F 1_555 1_555
C8F C5F 1_555 1_555
C9F N2F 1_555 1_555
H6F C9F 1_555 1_555
C10F H7F 1_555 1_555
C11F C10F 1_555 1_555
H8F C11F 1_555 1_555
C12F C7F 1_555 1_555
H9F C12F 1_555 1_555
C13F C8F 1_555 1_555
H10F C13F 1_555 1_555
Cu1C N1 1_555 1_555
Cu1C_2 N1F 1_555 1_555
N1C Cu1 1_555 1_555
N1E Cu1 1_555 1_555
C1 C6 1_555 1_555
C2 C4 1_555 1_555
C4 C9 1_555 1_555
C7 C8 1_555 1_555
C10 C12 1_555 1_555
C11 C13 1_555 1_555
N3F C5F 1_555 1_555
C1F C6F 1_555 1_555
C2F C4F 1_555 1_555
C4F C9F 1_555 1_555
C7F C8F 1_555 1_555
C10F C12F 1_555 1_555
C11F C13F 1_555 1_555

#END
