
#######################################################################
#
#                 Cambridge Crystallographic Data Centre
#                                CCDC 
#
#######################################################################
#
# If this CIF has been generated from an entry in the Cambridge 
# Structural Database, then it will include bibliographic, chemical, 
# crystal, experimental, refinement or atomic coordinate data resulting 
# from the CCDC's data processing and validation procedures.
#
#######################################################################

data_AFEHOI
_symmetry_cell_setting           tetragonal
_symmetry_space_group_name_H-M   'P 4/n c c'
_symmetry_Int_Tables_number      130
_space_group_name_Hall           '-P 4a 2ac'
loop_
_symmetry_equiv_pos_site_id
_symmetry_equiv_pos_as_xyz
1 x,y,z
2 1/2-x,y,1/2+z
3 x,1/2-y,1/2+z
4 y,x,1/2+z
5 1/2-y,x,z
6 y,1/2-x,z
7 1/2+x,1/2+y,-z
8 1/2+y,1/2+x,1/2-z
9 -x,-y,-z
10 1/2+x,-y,1/2-z
11 -x,1/2+y,1/2-z
12 -y,-x,1/2-z
13 1/2+y,-x,-z
14 -y,1/2+x,-z
15 1/2-x,1/2-y,z
16 1/2-y,1/2-x,1/2+z
_cell_length_a                   11.080(2)
_cell_length_b                   11.080(2)
_cell_length_c                   16.0239(7)
_cell_angle_alpha                90
_cell_angle_beta                 90
_cell_angle_gamma                90
_cell_volume                     1967.2
loop_
_atom_site_label
_atom_site_type_symbol
_atom_site_fract_x
_atom_site_fract_y
_atom_site_fract_z
Cu1 Cu 0.2500 -0.2500 -0.2500
O1 O 0.4019(2) -0.0981 -0.2500
N1 N 0.1562(2) -0.1584(2) -0.3397(1)
C1 C 0.0936(2) -0.2155(2) -0.3984(2)
C2 C 0.0286(2) -0.1575(3) -0.4605(2)
C3 C 0.0328(2) -0.0327(2) -0.4662(1)
C4 C 0.0963(2) 0.0278(2) -0.4038(2)
C5 C 0.1558(2) -0.0364(2) -0.3424(2)
H1 H 0.0930 -0.3016 -0.3977
H2 H -0.0181 -0.2025 -0.4991
H3 H 0.0994 0.1137 -0.4038
H4 H 0.1966 0.0067 -0.2998
C3H C -0.0328(2) 0.0327(2) -0.5338(1)
C2H C -0.0286(2) 0.1575(3) -0.5395(2)
C1H C -0.0936(2) 0.2155(2) -0.6016(2)
N1H N -0.1562(2) 0.1584(2) -0.6603(1)
C5H C -0.1558(2) 0.0364(2) -0.6576(2)
C4H C -0.0963(2) -0.0278(2) -0.5962(2)
H3H H -0.0994 -0.1137 -0.5962
H4H H -0.1966 -0.0067 -0.7002
H1H H -0.0930 0.3016 -0.6023
H2H H 0.0181 0.2025 -0.5009
O1K O 0.0981 -0.4019(2) -0.2500
N1G N 0.3416(2) -0.3438(2) -0.1603(1)
C1G C 0.2845(2) -0.4064(2) -0.1016(2)
C2G C 0.3425(3) -0.4714(2) -0.0395(2)
C3G C 0.4673(2) -0.4672(2) -0.0338(1)
C4G C 0.5278(2) -0.4037(2) -0.0962(2)
C5G C 0.4636(2) -0.3442(2) -0.1576(2)
H1G H 0.1984 -0.4070 -0.1023
H2G H 0.2975 -0.5181 -0.0009
H3G H 0.6137 -0.4006 -0.0962
H4G H 0.5067 -0.3034 -0.2002
C3O C 0.5327(2) -0.5328(2) 0.0338(1)
C2O C 0.6575(3) -0.5286(2) 0.0395(2)
C1O C 0.7155(2) -0.5936(2) 0.1016(2)
N1O N 0.6584(2) -0.6562(2) 0.1603(1)
C5O C 0.5364(2) -0.6558(2) 0.1576(2)
C4O C 0.4722(2) -0.5963(2) 0.0962(2)
H3O H 0.3863 -0.5994 0.0962
H4O H 0.4933 -0.6966 0.2002
H1O H 0.8016 -0.5930 0.1023
H2O H 0.7025 -0.4819 0.0009
N1K N 0.1584(2) -0.1562(2) -0.1603(1)
N1N N 0.3438(2) -0.3416(2) -0.3397(1)
Cu1C Cu -0.2500 0.2500 -0.7500
Cu1C_2 Cu 0.7500 -0.7500 0.2500
Si1 Si -0.7500 0.2500 0.30327(9)
F1 F -0.7500 0.2500 0.4073(2)
F2 F -0.8365(2) 0.1244(1) 0.3019(1)
F3 F -0.7500 0.2500 0.1974(2)
F2D F -0.6244(1) 0.1635(2) 0.3019(1)
F2E F -0.8756(1) 0.3365(2) 0.3019(1)
F2N F -0.6635(2) 0.3756(1) 0.3019(1)
loop_
_geom_bond_atom_site_label_1
_geom_bond_atom_site_label_2
_geom_bond_site_symmetry_1
_geom_bond_site_symmetry_2
Cu1 O1 1_555 1_555
Si1 F1 1_555 1_555
F2 Si1 1_555 1_555
F3 Si1 1_555 1_555
N1 Cu1 1_555 1_555
C1 N1 1_555 1_555
C2 C1 1_555 1_555
C3 C2 1_555 1_555
C4 C3 1_555 1_555
C5 N1 1_555 1_555
H1 C1 1_555 1_555
H2 C2 1_555 1_555
H3 C4 1_555 1_555
H4 C5 1_555 1_555
F2D Si1 1_555 1_555
F2E Si1 1_555 1_555
F2N Si1 1_555 1_555
C3H C3 1_555 1_555
C2H C3H 1_555 1_555
C1H C2H 1_555 1_555
N1H C1H 1_555 1_555
C5H N1H 1_555 1_555
C4H C3H 1_555 1_555
H3H C4H 1_555 1_555
H4H C5H 1_555 1_555
H1H C1H 1_555 1_555
H2H C2H 1_555 1_555
O1K Cu1 1_555 1_555
N1G Cu1 1_555 1_555
C1G N1G 1_555 1_555
C2G C1G 1_555 1_555
C3G C2G 1_555 1_555
C4G C3G 1_555 1_555
C5G N1G 1_555 1_555
H1G C1G 1_555 1_555
H2G C2G 1_555 1_555
H3G C4G 1_555 1_555
H4G C5G 1_555 1_555
C3O C3G 1_555 1_555
C2O C3O 1_555 1_555
C1O C2O 1_555 1_555
N1O C1O 1_555 1_555
C5O N1O 1_555 1_555
C4O C3O 1_555 1_555
H3O C4O 1_555 1_555
H4O C5O 1_555 1_555
H1O C1O 1_555 1_555
H2O C2O 1_555 1_555
N1K Cu1 1_555 1_555
N1N Cu1 1_555 1_555
Cu1C N1H 1_555 1_555
Cu1C_2 N1O 1_555 1_555
C4 C5 1_555 1_555
C5H C4H 1_555 1_555
C4G C5G 1_555 1_555
C5O C4O 1_555 1_555

#END
