
#######################################################################
#
#                 Cambridge Crystallographic Data Centre
#                                CCDC 
#
#######################################################################
#
# If this CIF has been generated from an entry in the Cambridge 
# Structural Database, then it will include bibliographic, chemical, 
# crystal, experimental, refinement or atomic coordinate data resulting 
# from the CCDC's data processing and validation procedures.
#
#######################################################################

data_AFEHUQ
_symmetry_cell_setting           triclinic
_symmetry_space_group_name_H-M   'P -1'
_symmetry_Int_Tables_number      2
_space_group_name_Hall           '-P 1'
loop_
_symmetry_equiv_pos_site_id
_symmetry_equiv_pos_as_xyz
1 x,y,z
2 -x,-y,-z
_cell_length_a                   8.0978(16)
_cell_length_b                   9.7244(19)
_cell_length_c                   11.694(2)
_cell_angle_alpha                89.26(3)
_cell_angle_beta                 89.12(3)
_cell_angle_gamma                89.64(3)
_cell_volume                     920.656
loop_
_atom_site_label
_atom_site_type_symbol
_atom_site_fract_x
_atom_site_fract_y
_atom_site_fract_z
Cu1 Cu 1.0000 0.5000 0.5000
Cu2 Cu 1.0000 0.5000 0.0000
O1 O 0.9981(3) 0.6272(3) 0.3683(2)
O2 O 0.8655(4) 0.7485(3) 0.4981(3)
O3 O 0.8239(3) 0.5948(3) 0.1664(2)
O4 O 1.0087(3) 0.6914(3) 0.0509(2)
N1 N 0.1845(4) 0.4575(3) 0.1055(3)
N2 N 0.7841(4) 0.4230(3) 0.4546(3)
N3 N 0.7012(4) 0.4575(3) 0.3568(3)
C1 C 0.9180(5) 0.7341(4) 0.3997(3)
C2 C 0.8933(5) 0.8487(4) 0.3141(3)
C3 C 0.8962(5) 0.8307(4) 0.1954(3)
C4 C 0.9107(5) 0.6958(4) 0.1364(3)
C5 C 0.8805(5) 0.9467(4) 0.1244(4)
H1 H 0.8842 0.9362 0.0455
C6 C 0.8600(6) 1.0754(5) 0.1688(4)
H2 H 0.8488 1.1511 0.1200
C7 C 0.8559(7) 1.0929(5) 0.2847(4)
H3 H 0.8424 1.1803 0.3150
C8 C 0.8719(6) 0.9800(5) 0.3561(4)
H4 H 0.8683 0.9924 0.4349
C9 C 0.6856(5) 0.3392(4) 0.5137(3)
H5 H 0.7116 0.2992 0.5839
C10 C 0.5388(5) 0.3190(4) 0.4571(3)
H6 H 0.4502 0.2649 0.4812
C11 C 0.5517(5) 0.3955(4) 0.3579(3)
C12 C 0.4293(4) 0.4167(4) 0.2673(3)
C13 C 0.2849(5) 0.3433(5) 0.2711(4)
H7 H 0.2666 0.2781 0.3287
C14 C 0.1682(5) 0.3670(5) 0.1896(4)
H8 H 0.0715 0.3160 0.1939
C15 C 0.3227(6) 0.5277(6) 0.1017(4)
H9 H 0.3367 0.5935 0.0440
C16 C 0.4478(6) 0.5087(5) 0.1790(4)
H10 H 0.5450 0.5587 0.1710
N1A N 0.8155(4) 0.5425(3) -0.1055(3)
N2A N 0.2159(4) 0.5770(3) -0.4546(3)
N3A N 0.2988(4) 0.5425(3) -0.3568(3)
C9A C 0.3144(5) 0.6608(4) -0.5137(3)
H5A H 0.2884 0.7008 -0.5839
C10A C 0.4612(5) 0.6810(4) -0.4571(3)
H6A H 0.5498 0.7351 -0.4812
C11A C 0.4483(5) 0.6045(4) -0.3579(3)
C12A C 0.5707(4) 0.5833(4) -0.2673(3)
C13A C 0.7151(5) 0.6567(5) -0.2711(4)
H7A H 0.7334 0.7219 -0.3287
C14A C 0.8318(5) 0.6330(5) -0.1896(4)
H8A H 0.9285 0.6840 -0.1939
C15A C 0.6773(6) 0.4723(6) -0.1017(4)
H9A H 0.6633 0.4065 -0.0440
C16A C 0.5522(6) 0.4913(5) -0.1790(4)
H10A H 0.4550 0.4413 -0.1710
O1A O 1.0019(3) 0.3728(3) 0.6317(2)
O2A O 1.1345(4) 0.2515(3) 0.5019(3)
O3A O 1.1761(3) 0.4052(3) 0.8336(2)
O4A O 0.9913(3) 0.3086(3) 0.9491(2)
C1A C 1.0820(5) 0.2659(4) 0.6003(3)
C2A C 1.1067(5) 0.1513(4) 0.6859(3)
C3A C 1.1038(5) 0.1693(4) 0.8046(3)
C4A C 1.0893(5) 0.3042(4) 0.8636(3)
C5A C 1.1195(5) 0.0533(4) 0.8756(4)
H1A H 1.1158 0.0638 0.9545
C6A C 1.1400(6) -0.0754(5) 0.8312(4)
H2A H 1.1512 -0.1511 0.8800
C7A C 1.1441(7) -0.0929(5) 0.7153(4)
H3A H 1.1576 -0.1803 0.6850
C8A C 1.1281(6) 0.0200(5) 0.6439(4)
H4A H 1.1317 0.0076 0.5651
Cu1_2 Cu 0.0000 0.5000 -0.5000
Cu2_2 Cu 0.0000 0.5000 0.0000
Cu2_3 Cu 1.0000 0.5000 1.0000
O3A_2 O 1.1761(3) 0.4052(3) -0.1664(2)
O4A_2 O 0.9913(3) 0.3086(3) -0.0509(2)
N1_2 N 1.1845(4) 0.4575(3) 0.1055(3)
N2A_2 N 1.2159(4) 0.5770(3) 0.5454(3)
loop_
_geom_bond_atom_site_label_1
_geom_bond_atom_site_label_2
_geom_bond_site_symmetry_1
_geom_bond_site_symmetry_2
Cu1 O1 1_555 1_555
Cu2 O3 1_555 1_555
O1 C1 1_555 1_555
O2 Cu1 1_555 1_555
O3 C4 1_555 1_555
O4 Cu2 1_555 1_555
N1 C14 1_555 1_555
N2 Cu1 1_555 1_555
N3 N2 1_555 1_555
C1 O2 1_555 1_555
C2 C1 1_555 1_555
C3 C2 1_555 1_555
C4 O4 1_555 1_555
C5 C3 1_555 1_555
H1 C5 1_555 1_555
C6 C5 1_555 1_555
H2 C6 1_555 1_555
C7 C6 1_555 1_555
H3 C7 1_555 1_555
C8 C2 1_555 1_555
H4 C8 1_555 1_555
C9 N2 1_555 1_555
H5 C9 1_555 1_555
C10 C9 1_555 1_555
H6 C10 1_555 1_555
C11 N3 1_555 1_555
C12 C11 1_555 1_555
C13 C12 1_555 1_555
H7 C13 1_555 1_555
C14 C13 1_555 1_555
H8 C14 1_555 1_555
C15 N1 1_555 1_555
H9 C15 1_555 1_555
C16 C12 1_555 1_555
H10 C16 1_555 1_555
N1A Cu2 1_555 1_555
N2A N3A 1_555 1_555
N3A C11A 1_555 1_555
C9A N2A 1_555 1_555
H5A C9A 1_555 1_555
C10A C9A 1_555 1_555
H6A C10A 1_555 1_555
C11A C10A 1_555 1_555
C12A C11A 1_555 1_555
C13A C12A 1_555 1_555
H7A C13A 1_555 1_555
C14A N1A 1_555 1_555
H8A C14A 1_555 1_555
C15A N1A 1_555 1_555
H9A C15A 1_555 1_555
C16A C12A 1_555 1_555
H10A C16A 1_555 1_555
O1A Cu1 1_555 1_555
O2A Cu1 1_555 1_555
O3A C4A 1_555 1_555
O4A C4A 1_555 1_555
C1A O1A 1_555 1_555
C2A C1A 1_555 1_555
C3A C2A 1_555 1_555
C4A C3A 1_555 1_555
C5A C3A 1_555 1_555
H1A C5A 1_555 1_555
C6A C5A 1_555 1_555
H2A C6A 1_555 1_555
C7A C6A 1_555 1_555
H3A C7A 1_555 1_555
C8A C2A 1_555 1_555
H4A C8A 1_555 1_555
Cu1_2 N2A 1_555 1_555
Cu2_2 N1 1_555 1_555
Cu2_3 O3A 1_555 1_555
O3A_2 Cu2 1_555 1_555
O4A_2 Cu2 1_555 1_555
N1_2 Cu2 1_555 1_555
N2A_2 Cu1 1_555 1_555
C3 C4 1_555 1_555
C7 C8 1_555 1_555
C10 C11 1_555 1_555
C15 C16 1_555 1_555
C13A C14A 1_555 1_555
C15A C16A 1_555 1_555
O2A C1A 1_555 1_555
O4A Cu2_3 1_555 1_555
C7A C8A 1_555 1_555

#END
