
#######################################################################
#
#                 Cambridge Crystallographic Data Centre
#                                CCDC 
#
#######################################################################
#
# If this CIF has been generated from an entry in the Cambridge 
# Structural Database, then it will include bibliographic, chemical, 
# crystal, experimental, refinement or atomic coordinate data resulting 
# from the CCDC's data processing and validation procedures.
#
#######################################################################

data_AFEHUO
_symmetry_cell_setting           tetragonal
_symmetry_space_group_name_H-M   'P 4/m m m'
_symmetry_Int_Tables_number      123
_space_group_name_Hall           '-P 4 2'
loop_
_symmetry_equiv_pos_site_id
_symmetry_equiv_pos_as_xyz
1 x,y,z
2 -y,x,z
3 y,-x,z
4 y,x,-z
5 x,-y,-z
6 -x,y,-z
7 -y,-x,-z
8 -x,-y,z
9 -x,-y,-z
10 y,-x,-z
11 -y,x,-z
12 -y,-x,z
13 -x,y,z
14 x,-y,z
15 y,x,z
16 x,y,-z
_cell_length_a                   11.113(4)
_cell_length_b                   11.113(4)
_cell_length_c                   8.263(6)
_cell_angle_alpha                90
_cell_angle_beta                 90
_cell_angle_gamma                90
_cell_volume                     1020.47
loop_
_atom_site_label
_atom_site_type_symbol
_atom_site_fract_x
_atom_site_fract_y
_atom_site_fract_z
Ge1 Ge 1.0000 0.0000 0.5000
Cu1 Cu 1.0000 0.0000 1.0000
F1 F 1.0000 0.0000 0.707(1)
F2 F 1.144(2) 0.0000 0.5000
N1 N 1.181(1) 0.0000 1.0000
C1 C 1.239(1) 0.0000 1.124(2)
C2 C 1.369(1) 0.0000 1.134(2)
C3 C 1.432(1) 0.0000 1.0000
H1 H 1.1958 0.0000 1.2297
H2 H 1.4099 0.0000 1.2352
C2O C 1.369(1) 0.0000 0.866(2)
C1O C 1.239(1) 0.0000 0.876(2)
H1O H 1.1958 0.0000 0.7703
H2O H 1.4099 0.0000 0.7648
C3L C 1.568(1) 0.0000 1.0000
C2L C 1.631(1) 0.0000 1.134(2)
C1L C 1.761(1) 0.0000 1.124(2)
N1L N 1.819(1) 0.0000 1.0000
C1E C 1.761(1) 0.0000 0.876(2)
C2E C 1.631(1) 0.0000 0.866(2)
H2E H 1.5901 0.0000 0.7648
H1E H 1.8042 0.0000 0.7703
H1L H 1.8042 0.0000 1.2297
H2L H 1.5901 0.0000 1.2352
F1O F 1.0000 0.0000 0.293(1)
F2L F 0.856(2) 0.0000 0.5000
F2A F 1.0000 0.144(2) 0.5000
F2B F 1.0000 -0.144(2) 0.5000
N1L_2 N 0.819(1) 0.0000 1.0000
C1L_2 C 0.761(1) 0.0000 1.124(2)
C2L_2 C 0.631(1) 0.0000 1.134(2)
C3L_2 C 0.568(1) 0.0000 1.0000
H1L_2 H 0.8042 0.0000 1.2297
H2L_2 H 0.5901 0.0000 1.2352
C2E_2 C 0.631(1) 0.0000 0.866(2)
C1E_2 C 0.761(1) 0.0000 0.876(2)
H1E_2 H 0.8042 0.0000 0.7703
H2E_2 H 0.5901 0.0000 0.7648
C3_2 C 0.432(1) 0.0000 1.0000
C2_2 C 0.369(1) 0.0000 1.134(2)
C1_2 C 0.239(1) 0.0000 1.124(2)
N1_2 N 0.181(1) 0.0000 1.0000
C1O_2 C 0.239(1) 0.0000 0.876(2)
C2O_2 C 0.369(1) 0.0000 0.866(2)
H2O_2 H 0.4099 0.0000 0.7648
H1O_2 H 0.1958 0.0000 0.7703
H1_2 H 0.1958 0.0000 1.2297
H2_2 H 0.4099 0.0000 1.2352
F1O_2 F 1.0000 0.0000 1.293(1)
N1A N 1.0000 0.181(1) 1.0000
N1B N 1.0000 -0.181(1) 1.0000
Cu1_2 Cu 2.0000 0.0000 1.0000
Cu1_3 Cu 1.0000 0.0000 0.0000
Cu1_4 Cu 0.0000 0.0000 1.0000
O1 O 0.5000 0.143(6) 0.5000
O2 O 1.244(6) 1.2437 0.5000
F3? F 1.106(2) 1.1060 0.5000
loop_
_geom_bond_atom_site_label_1
_geom_bond_atom_site_label_2
_geom_bond_site_symmetry_1
_geom_bond_site_symmetry_2
Ge1 F1 1_555 1_555
Cu1 F1 1_555 1_555
F2 Ge1 1_555 1_555
N1 Cu1 1_555 1_555
C1 N1 1_555 1_555
C2 C1 1_555 1_555
C3 C2 1_555 1_555
H1 C1 1_555 1_555
H2 C2 1_555 1_555
C2O C3 1_555 1_555
C1O N1 1_555 1_555
H1O C1O 1_555 1_555
H2O C2O 1_555 1_555
C3L C3 1_555 1_555
C2L C3L 1_555 1_555
C1L C2L 1_555 1_555
N1L C1L 1_555 1_555
C1E N1L 1_555 1_555
C2E C3L 1_555 1_555
H2E C2E 1_555 1_555
H1E C1E 1_555 1_555
H1L C1L 1_555 1_555
H2L C2L 1_555 1_555
F1O Ge1 1_555 1_555
F2L Ge1 1_555 1_555
F2A Ge1 1_555 1_555
F2B Ge1 1_555 1_555
N1L_2 Cu1 1_555 1_555
C1L_2 N1L_2 1_555 1_555
C2L_2 C1L_2 1_555 1_555
C3L_2 C2L_2 1_555 1_555
H1L_2 C1L_2 1_555 1_555
H2L_2 C2L_2 1_555 1_555
C2E_2 C3L_2 1_555 1_555
C1E_2 N1L_2 1_555 1_555
H1E_2 C1E_2 1_555 1_555
H2E_2 C2E_2 1_555 1_555
C3_2 C3L_2 1_555 1_555
C2_2 C3_2 1_555 1_555
C1_2 C2_2 1_555 1_555
N1_2 C1_2 1_555 1_555
C1O_2 N1_2 1_555 1_555
C2O_2 C3_2 1_555 1_555
H2O_2 C2O_2 1_555 1_555
H1O_2 C1O_2 1_555 1_555
H1_2 C1_2 1_555 1_555
H2_2 C2_2 1_555 1_555
F1O_2 Cu1 1_555 1_555
N1A Cu1 1_555 1_555
N1B Cu1 1_555 1_555
Cu1_2 N1L 1_555 1_555
Cu1_3 F1O 1_555 1_555
Cu1_4 N1_2 1_555 1_555
C2O C1O 1_555 1_555
C1E C2E 1_555 1_555
C2E_2 C1E_2 1_555 1_555
C1O_2 C2O_2 1_555 1_555

#END
