
#######################################################################
#
#                 Cambridge Crystallographic Data Centre
#                                CCDC 
#
#######################################################################
#
# If this CIF has been generated from an entry in the Cambridge 
# Structural Database, then it will include bibliographic, chemical, 
# crystal, experimental, refinement or atomic coordinate data resulting 
# from the CCDC's data processing and validation procedures.
#
#######################################################################

data_AFEHOK
_symmetry_cell_setting           monoclinic
_symmetry_space_group_name_H-M   'P 21/c'
_symmetry_Int_Tables_number      14
_space_group_name_Hall           '-P 2ybc'
loop_
_symmetry_equiv_pos_site_id
_symmetry_equiv_pos_as_xyz
1 x,y,z
2 -x,1/2+y,1/2-z
3 -x,-y,-z
4 x,1/2-y,1/2+z
_cell_length_a                   5.1829(6)
_cell_length_b                   26.328(4)
_cell_length_c                   10.2279(13)
_cell_angle_alpha                90
_cell_angle_beta                 97.892(7)
_cell_angle_gamma                90
_cell_volume                     1382.43
loop_
_atom_site_label
_atom_site_type_symbol
_atom_site_fract_x
_atom_site_fract_y
_atom_site_fract_z
C1 C 0.9678(18) 0.0897(3) 0.4136(9)
C2 C 0.8188(19) 0.0341(3) 0.7030(10)
C3 C 0.948(2) 0.1445(4) 0.3711(10)
H1 H 0.8356 0.147 0.2874
H2 H 1.1195 0.1567 0.3582
C4 C 0.840(2) 0.1779(4) 0.4725(10)
C5 C 0.932(2) 0.2267(4) 0.4983(12)
H3 H 1.0631 0.2391 0.4536
C6 C 0.833(3) 0.2573(5) 0.5886(14)
H4 H 0.8991 0.2898 0.6054
C7 C 0.634(3) 0.2395(5) 0.6546(12)
H5 H 0.5646 0.26 0.715
C8 C 0.542(2) 0.1914(5) 0.6295(12)
H6 H 0.4109 0.1791 0.6745
C9 C 0.640(2) 0.1606(4) 0.5389(12)
H7 H 0.5713 0.1282 0.5219
C10 C 0.7117(19) 0.0600(4) 0.8179(9)
H8 H 0.585 0.0854 0.7834
H9 H 0.6227 0.0349 0.865
C11 C 0.9225(19) 0.0851(4) 0.9136(10)
C12 C 1.054(2) 0.1279(4) 0.8743(10)
H10 H 0.9996 0.1426 0.7924
C13 C 1.265(2) 0.1486(4) 0.9567(11)
H11 H 1.3534 0.1765 0.9293
C14 C 1.340(2) 0.1274(5) 1.0781(11)
H12 H 1.4792 0.1414 1.1332
C15 C 1.213(2) 0.0860(5) 1.1204(11)
H13 H 1.2689 0.0717 1.2026
C16 C 0.998(2) 0.0652(4) 1.0378(10)
H14 H 0.9073 0.038 1.0672
O1 O 1.1763(13) 0.0758(2) 0.4846(7)
O2 O 1.0628(12) 0.0308(3) 0.7092(6)
O3 O 0.7732(13) 0.0615(3) 0.3767(6)
O4 O 0.6554(11) 0.0181(2) 0.6089(6)
Cu1 Cu 1.2319(2) 0.00810(4) 0.56015(11)
O3B O 1.2268(13) -0.0615(3) 0.6233(6)
O4_2 O 1.6554(11) 0.0181(2) 0.6089(6)
O4B O 1.3446(11) -0.0181(2) 0.3911(6)
Cu1_2 Cu 0.2319(2) 0.00810(4) 0.56015(11)
Cu1B Cu 0.7681(2) -0.00810(4) 0.43985(11)
loop_
_geom_bond_atom_site_label_1
_geom_bond_atom_site_label_2
_geom_bond_site_symmetry_1
_geom_bond_site_symmetry_2
C1 C3 1_555 1_555
C2 C10 1_555 1_555
C3 H1 1_555 1_555
H2 C3 1_555 1_555
C4 C3 1_555 1_555
C5 C4 1_555 1_555
H3 C5 1_555 1_555
C6 C5 1_555 1_555
H4 C6 1_555 1_555
C7 C6 1_555 1_555
H5 C7 1_555 1_555
C8 C7 1_555 1_555
H6 C8 1_555 1_555
C9 C4 1_555 1_555
H7 C9 1_555 1_555
C10 H8 1_555 1_555
H9 C10 1_555 1_555
C11 C10 1_555 1_555
C12 C11 1_555 1_555
H10 C12 1_555 1_555
C13 C12 1_555 1_555
H11 C13 1_555 1_555
C14 C13 1_555 1_555
H12 C14 1_555 1_555
C15 C14 1_555 1_555
H13 C15 1_555 1_555
C16 C11 1_555 1_555
H14 C16 1_555 1_555
O1 C1 1_555 1_555
O2 C2 1_555 1_555
O3 C1 1_555 1_555
O4 C2 1_555 1_555
Cu1 O1 1_555 1_555
O3B Cu1 1_555 1_555
O4_2 Cu1 1_555 1_555
O4B Cu1 1_555 1_555
Cu1_2 O4 1_555 1_555
Cu1B O3 1_555 1_555
C8 C9 1_555 1_555
C15 C16 1_555 1_555
O2 Cu1 1_555 1_555
O4 Cu1B 1_555 1_555
Cu1 Cu1B 1_555 1_555

#END
