
#######################################################################
#
#                 Cambridge Crystallographic Data Centre
#                                CCDC 
#
#######################################################################
#
# If this CIF has been generated from an entry in the Cambridge 
# Structural Database, then it will include bibliographic, chemical, 
# crystal, experimental, refinement or atomic coordinate data resulting 
# from the CCDC's data processing and validation procedures.
#
#######################################################################

data_AFEJUQ
_symmetry_cell_setting           monoclinic
_symmetry_space_group_name_H-M   'P 21/c'
_symmetry_Int_Tables_number      14
_space_group_name_Hall           '-P 2ybc'
loop_
_symmetry_equiv_pos_site_id
_symmetry_equiv_pos_as_xyz
1 x,y,z
2 x,1/2-y,1/2+z
3 -x,-y,-z
4 -x,1/2+y,1/2-z
_cell_length_a                   11.1611(6)
_cell_length_b                   13.1786(7)
_cell_length_c                   22.1972(2)
_cell_angle_alpha                90
_cell_angle_beta                 92.569(3)
_cell_angle_gamma                90
_cell_volume                     3261.65
loop_
_atom_site_label
_atom_site_type_symbol
_atom_site_fract_x
_atom_site_fract_y
_atom_site_fract_z
Cu1 Cu -0.18678(5) 0.23050(6) 0.07794(3)
P1 P -0.1829(2) 0.5473(2) 0.08317(9)
F1 F -0.0971(5) 0.5486(5) 0.1410(2)
F2 F -0.2953(4) 0.5400(4) 0.1232(3)
F3 F -0.1797(3) 0.4264(3) 0.0826(2)
F4 F -0.2691(5) 0.5425(5) 0.0261(3)
F5 F -0.0734(4) 0.5504(4) 0.0425(2)
F6 F -0.1888(7) 0.6654(5) 0.0847(4)
N1 N -1.0031(3) 0.2384(4) 0.0763(2)
N2 N -0.3697(3) 0.2322(4) 0.0753(2)
N3 N -0.1837(3) 0.2463(4) 0.1690(2)
N4 N -0.1925(3) 0.2653(4) 0.4869(2)
N5 N -0.1691(4) 0.0493(5) 0.0834(2)
C1 C -0.9422(4) 0.1684(5) 0.0456(2)
C2 C -0.8187(4) 0.1660(5) 0.0442(2)
C3 C -0.7532(4) 0.2414(5) 0.0746(2)
C4 C -0.8148(4) 0.3159(5) 0.1037(2)
C5 C -0.9390(4) 0.3111(5) 0.1041(2)
C6 C -0.4312(5) 0.1517(5) 0.0924(3)
C7 C -0.5568(5) 0.1518(5) 0.0918(3)
C8 C -0.6192(4) 0.2390(5) 0.0754(2)
C9 C -0.5534(5) 0.3232(5) 0.0585(3)
C10 C -0.4301(5) 0.3168(5) 0.0584(3)
C11 C -0.2610(4) 0.3068(5) 0.1966(2)
C12 C -0.2650(5) 0.3136(5) 0.2584(2)
C13 C -0.1887(4) 0.2554(4) 0.2940(2)
C14 C -0.1077(5) 0.1927(5) 0.2652(2)
C15 C -0.1087(4) 0.1904(5) 0.2033(2)
C16 C -0.1522(5) 0.1832(5) 0.4578(2)
C17 C -0.1508(5) 0.1779(5) 0.3958(2)
C18 C -0.1910(4) 0.2590(4) 0.3611(2)
C19 C -0.2347(5) 0.3430(5) 0.3914(2)
C20 C -0.2356(5) 0.3419(5) 0.4532(2)
C21 C -0.1476(5) -0.0223(6) 0.1081(3)
C22 C -0.1202(7) -0.1182(7) 0.1413(4)
H1 H -0.9868 0.1179 0.0238
H2 H -0.7794 0.1141 0.0229
H3 H -0.7727 0.3702 0.1235
H4 H -0.9803 0.3621 0.1253
H5 H -0.3889 0.0925 0.1054
H6 H -0.5990 0.0923 0.1027
H7 H -0.5931 0.3845 0.0471
H8 H -0.3860 0.3743 0.0460
H9 H -0.3154 0.3467 0.1724
H10 H -0.3201 0.3583 0.2762
H11 H -0.0525 0.1520 0.2883
H12 H -0.0537 0.1471 0.1843
H13 H -0.1235 0.1267 0.4809
H14 H -0.1223 0.1183 0.3769
H15 H -0.2635 0.4006 0.3694
H16 H -0.2686 0.3988 0.4730
H17 H -0.1498 -0.1137 0.1808
H18 H -0.1576 -0.1734 0.1205
H19 H -0.0359 -0.1285 0.1441
Cu1_2 Cu -1.18678(5) 0.23050(6) 0.07794(3)
N1_2 N -0.0031(3) 0.2384(4) 0.0763(2)
Cu1A Cu -0.18678(5) 0.26950(6) 0.57794(3)
N4A N -0.1925(3) 0.2347(4) -0.0131(2)
P2 P -0.4021(2) 0.5139(2) -0.24024(9)
F7 F -0.5122(6) 0.5203(5) -0.2869(4)
F8 F -0.3251(6) 0.4775(9) -0.2903(3)
F9 F -0.3818(10) 0.6225(6) -0.2494(8)
F10 F -0.2935(9) 0.5064(7) -0.1980(4)
F11 F -0.491(1) 0.544(1) -0.1967(4)
F12 F -0.4221(8) 0.3997(6) -0.2348(6)
N6 N -0.8635(6) 0.4608(6) -0.3153(4)
C23 C -0.8030(7) 0.4067(7) -0.2885(4)
C24 C -0.7271(8) 0.3376(8) -0.2538(4)
H20 H -0.7609 0.2716 -0.2558
H21 H -0.6498 0.3366 -0.2699
H22 H -0.7211 0.3596 -0.2131
N7 N -1.4242(8) -0.1082(8) 0.0580(4)
C25 C -1.4504(8) -0.1779(9) 0.0846(4)
C26 C -1.4815(8) -0.2655(10) 0.1181(5)
H23 H -1.5652 -0.2768 0.1132
H24 H -1.4602 -0.2548 0.1595
H25 H -1.4393 -0.3224 0.1037
loop_
_geom_bond_atom_site_label_1
_geom_bond_atom_site_label_2
_geom_bond_site_symmetry_1
_geom_bond_site_symmetry_2
Cu1 F3 1_555 1_555
P1 F1 1_555 1_555
P2 F7 1_555 1_555
F2 P1 1_555 1_555
F3 P1 1_555 1_555
F4 P1 1_555 1_555
F5 P1 1_555 1_555
F6 P1 1_555 1_555
F8 P2 1_555 1_555
F9 P2 1_555 1_555
F10 P2 1_555 1_555
F11 P2 1_555 1_555
F12 P2 1_555 1_555
N1 C1 1_555 1_555
N2 Cu1 1_555 1_555
N3 Cu1 1_555 1_555
N4 C16 1_555 1_555
N5 Cu1 1_555 1_555
N6 C23 1_555 1_555
N7 C25 1_555 1_555
C1 C2 1_555 1_555
C2 C3 1_555 1_555
C3 C4 1_555 1_555
C4 C5 1_555 1_555
C5 N1 1_555 1_555
C6 N2 1_555 1_555
C7 C6 1_555 1_555
C8 C3 1_555 1_555
C9 C8 1_555 1_555
C10 N2 1_555 1_555
C11 N3 1_555 1_555
C12 C11 1_555 1_555
C13 C12 1_555 1_555
C14 C13 1_555 1_555
C15 N3 1_555 1_555
C16 C17 1_555 1_555
C17 C18 1_555 1_555
C18 C13 1_555 1_555
C19 C18 1_555 1_555
C20 N4 1_555 1_555
C21 N5 1_555 1_555
C22 C21 1_555 1_555
C23 C24 1_555 1_555
C24 H20 1_555 1_555
C25 C26 1_555 1_555
C26 H23 1_555 1_555
H1 C1 1_555 1_555
H2 C2 1_555 1_555
H3 C4 1_555 1_555
H4 C5 1_555 1_555
H5 C6 1_555 1_555
H6 C7 1_555 1_555
H7 C9 1_555 1_555
H8 C10 1_555 1_555
H9 C11 1_555 1_555
H10 C12 1_555 1_555
H11 C14 1_555 1_555
H12 C15 1_555 1_555
H13 C16 1_555 1_555
H14 C17 1_555 1_555
H15 C19 1_555 1_555
H16 C20 1_555 1_555
H17 C22 1_555 1_555
H18 C22 1_555 1_555
H19 C22 1_555 1_555
H21 C24 1_555 1_555
H22 C24 1_555 1_555
H24 C26 1_555 1_555
H25 C26 1_555 1_555
Cu1_2 N1 1_555 1_555
N1_2 Cu1 1_555 1_555
Cu1A N4 1_555 1_555
N4A Cu1 1_555 1_555
C7 C8 1_555 1_555
C9 C10 1_555 1_555
C14 C15 1_555 1_555
C19 C20 1_555 1_555

#END
