
#######################################################################
#
#                 Cambridge Crystallographic Data Centre
#                                CCDC 
#
#######################################################################
#
# If this CIF has been generated from an entry in the Cambridge 
# Structural Database, then it will include bibliographic, chemical, 
# crystal, experimental, refinement or atomic coordinate data resulting 
# from the CCDC's data processing and validation procedures.
#
#######################################################################

data_AFEJAW
_symmetry_cell_setting           tetragonal
_symmetry_space_group_name_H-M   'P 4/n c c'
_symmetry_Int_Tables_number      130
_space_group_name_Hall           '-P 4a 2ac'
loop_
_symmetry_equiv_pos_site_id
_symmetry_equiv_pos_as_xyz
1 x,y,z
2 1/2-x,y,1/2+z
3 x,1/2-y,1/2+z
4 y,x,1/2+z
5 1/2-y,x,z
6 y,1/2-x,z
7 1/2+x,1/2+y,-z
8 1/2+y,1/2+x,1/2-z
9 -x,-y,-z
10 1/2+x,-y,1/2-z
11 -x,1/2+y,1/2-z
12 -y,-x,1/2-z
13 1/2+y,-x,-z
14 -y,1/2+x,-z
15 1/2-x,1/2-y,z
16 1/2-y,1/2-x,1/2+z
_cell_length_a                   11.146(4)
_cell_length_b                   11.146(4)
_cell_length_c                   15.941(7)
_cell_angle_alpha                90
_cell_angle_beta                 90
_cell_angle_gamma                90
_cell_volume                     1980.4
loop_
_atom_site_label
_atom_site_type_symbol
_atom_site_fract_x
_atom_site_fract_y
_atom_site_fract_z
Ge1 Ge 0.2500 0.2500 0.3059(3)
F1 F 0.2500 0.2500 0.4112(10)
F2 F 0.3403(7) 0.3786(7) 0.3020(5)
F3 F 0.2500 0.2500 0.1966(9)
F2D F 0.1214(7) 0.3403(7) 0.3020(5)
F2E F 0.3786(7) 0.1597(7) 0.3020(5)
F2N F 0.1597(7) 0.1214(7) 0.3020(5)
Cu1 Cu 0.2500 0.7500 0.7500
O1 O 0.0988(8) 0.5988 0.7500
N1 N 0.656(1) 0.340(1) 0.3395(6)
C1 C 0.655(1) 0.464(1) 0.3445(8)
C2 C 0.599(1) 0.529(1) 0.4030(8)
C3 C 0.532(1) 0.466(1) 0.4660(7)
C4 C 0.529(1) 0.345(1) 0.4615(9)
C5 C 0.595(1) 0.286(1) 0.3976(9)
H1 H 0.6974 0.5073 0.3024
H2 H 0.6042 0.6141 0.4032
H3 H 0.4839 0.2999 0.5008
H4 H 0.5948 0.2008 0.3974
C3H C 0.468(1) 0.534(1) 0.5340(7)
C2H C 0.401(1) 0.471(1) 0.5970(8)
C1H C 0.345(1) 0.536(1) 0.6555(8)
N1H N 0.344(1) 0.660(1) 0.6605(6)
Cu1C Cu 0.7500 0.2500 0.2500
O1K O 0.4012 0.9012(8) 0.7500
N1O N 0.160(1) 0.844(1) 0.8395(6)
C1O C 0.036(1) 0.845(1) 0.8445(8)
C2O C -0.029(1) 0.901(1) 0.9030(8)
C3O C 0.034(1) 0.968(1) 0.9660(7)
C3G C -0.034(1) 1.032(1) 1.0340(7)
C2G C 0.029(1) 1.099(1) 1.0970(8)
C1G C -0.036(1) 1.155(1) 1.1555(8)
N1G N -0.160(1) 1.156(1) 1.1605(6)
Cu1C_2 Cu -0.2500 1.2500 1.2500
C5G C -0.214(1) 1.095(1) 1.1024(9)
C4G C -0.155(1) 1.029(1) 1.0385(9)
H3G H -0.2001 0.9839 0.9992
H4G H -0.2992 1.0948 1.1026
H1G H 0.0073 1.1974 1.1976
H2G H 0.1141 1.1042 1.0968
C4O C 0.155(1) 0.971(1) 0.9615(9)
C5O C 0.214(1) 0.905(1) 0.8976(9)
H4O H 0.2992 0.9052 0.8974
H3O H 0.2001 1.0161 1.0008
H2O H -0.1141 0.8958 0.9032
H1O H -0.0073 0.8026 0.8024
N1C N 0.340(1) 0.656(1) 0.8395(6)
N1F N 0.156(1) 0.840(1) 0.6605(6)
C5H C 0.405(1) 0.714(1) 0.6024(9)
C4H C 0.471(1) 0.655(1) 0.5385(9)
H3H H 0.5161 0.7001 0.4992
H4H H 0.4052 0.7992 0.6026
H1H H 0.3026 0.4927 0.6976
H2H H 0.3958 0.3859 0.5968
loop_
_geom_bond_atom_site_label_1
_geom_bond_atom_site_label_2
_geom_bond_site_symmetry_1
_geom_bond_site_symmetry_2
Ge1 F1 1_555 1_555
Cu1 O1 1_555 1_555
F2 Ge1 1_555 1_555
F3 Ge1 1_555 1_555
N1 C1 1_555 1_555
C1 C2 1_555 1_555
C2 C3 1_555 1_555
C3 C4 1_555 1_555
C4 C5 1_555 1_555
C5 N1 1_555 1_555
H1 C1 1_555 1_555
H2 C2 1_555 1_555
H3 C4 1_555 1_555
H4 C5 1_555 1_555
F2D Ge1 1_555 1_555
F2E Ge1 1_555 1_555
F2N Ge1 1_555 1_555
C3H C3 1_555 1_555
C2H C3H 1_555 1_555
C1H C2H 1_555 1_555
N1H Cu1 1_555 1_555
Cu1C N1 1_555 1_555
O1K Cu1 1_555 1_555
N1O Cu1 1_555 1_555
C1O N1O 1_555 1_555
C2O C1O 1_555 1_555
C3O C2O 1_555 1_555
C3G C3O 1_555 1_555
C2G C3G 1_555 1_555
C1G C2G 1_555 1_555
N1G C1G 1_555 1_555
Cu1C_2 N1G 1_555 1_555
C5G N1G 1_555 1_555
C4G C3G 1_555 1_555
H3G C4G 1_555 1_555
H4G C5G 1_555 1_555
H1G C1G 1_555 1_555
H2G C2G 1_555 1_555
C4O C3O 1_555 1_555
C5O N1O 1_555 1_555
H4O C5O 1_555 1_555
H3O C4O 1_555 1_555
H2O C2O 1_555 1_555
H1O C1O 1_555 1_555
N1C Cu1 1_555 1_555
N1F Cu1 1_555 1_555
C5H N1H 1_555 1_555
C4H C3H 1_555 1_555
H3H C4H 1_555 1_555
H4H C5H 1_555 1_555
H1H C1H 1_555 1_555
H2H C2H 1_555 1_555
C1H N1H 1_555 1_555
C5G C4G 1_555 1_555
C4O C5O 1_555 1_555
C5H C4H 1_555 1_555

#END
