
#######################################################################
#
#                 Cambridge Crystallographic Data Centre
#                                CCDC 
#
#######################################################################
#
# If this CIF has been generated from an entry in the Cambridge 
# Structural Database, then it will include bibliographic, chemical, 
# crystal, experimental, refinement or atomic coordinate data resulting 
# from the CCDC's data processing and validation procedures.
#
#######################################################################

data_AFEJEA
_symmetry_cell_setting           orthorhombic
_symmetry_space_group_name_H-M   'A b a 2'
_symmetry_Int_Tables_number      41
_space_group_name_Hall           'A 2 -2ab'
loop_
_symmetry_equiv_pos_site_id
_symmetry_equiv_pos_as_xyz
1 x,y,z
2 -x,-y,z
3 1/2-x,1/2+y,z
4 1/2+x,1/2-y,z
5 x,1/2+y,1/2+z
6 -x,1/2-y,1/2+z
7 1/2-x,y,1/2+z
8 1/2+x,-y,1/2+z
_cell_length_a                   45.47(1)
_cell_length_b                   20.523(8)
_cell_length_c                   8.229(3)
_cell_angle_alpha                90
_cell_angle_beta                 90
_cell_angle_gamma                90
_cell_volume                     7679.14
loop_
_atom_site_label
_atom_site_type_symbol
_atom_site_fract_x
_atom_site_fract_y
_atom_site_fract_z
Cu1 Cu 0.62113(2) 0.03287(4) 0.311(1)
O1 O 0.62304(10) 0.0740(2) 0.035(1)
O2 O 0.6222(1) -0.0218(3) 0.626(1)
N1 N 0.6223(1) -0.0610(3) 0.234(1)
N2 N 0.6191(1) 0.1204(3) 0.415(1)
N3 N 0.5764(1) 0.0287(2) 0.304(2)
N4 N 0.6653(1) 0.0369(2) 0.317(2)
N5 N 0.8217(1) 0.0579(4) 0.353(1)
C1 C 0.6351(2) -0.0768(3) 0.091(2)
C2 C 0.6346(2) -0.1363(4) 0.032(2)
C3 C 0.6203(2) -0.1884(3) 0.114(2)
C4 C 0.6072(2) -0.1712(3) 0.261(1)
C5 C 0.6093(2) -0.1084(3) 0.318(2)
C6 C 0.6086(2) 0.1724(3) 0.328(1)
C7 C 0.6081(2) 0.2354(3) 0.390(2)
C8 C 0.6197(1) -0.2551(3) 0.045(2)
C9 C 0.6292(2) -0.3062(3) 0.137(1)
C10 C 0.6285(2) 0.1303(3) 0.567(1)
C11 C 0.5640(2) 0.0033(4) 0.173(2)
C12 C 0.5332(2) -0.0053(4) 0.170(2)
C13 C 0.5161(1) 0.0074(3) 0.299(2)
C14 C 0.5295(2) 0.0345(4) 0.435(2)
C15 C 0.5599(1) 0.0451(4) 0.432(2)
C16 C 0.6797(1) 0.0925(3) 0.271(1)
C17 C 0.7097(1) 0.1007(3) 0.274(2)
C18 C 0.7272(1) 0.0456(3) 0.326(2)
C19 C 0.7122(2) -0.0086(3) 0.379(2)
C20 C 0.6823(2) -0.0116(3) 0.371(2)
C21 C 0.8083(2) 0.0032(4) 0.328(2)
C22 C 0.7768(1) -0.0032(4) 0.316(2)
C23 C 0.7601(1) 0.0516(3) 0.333(1)
C24 C 0.7743(1) 0.1121(4) 0.356(2)
C25 C 0.8041(2) 0.1137(4) 0.362(2)
H1 H 0.6448 -0.0436 0.0286
H2 H 0.6440 -0.1447 -0.0717
H3 H 0.5968 -0.2030 0.3192
H4 H 0.6011 -0.0986 0.4192
H5 H 0.6013 0.1651 0.2191
H6 H 0.6000 0.2706 0.3277
H7 H 0.6361 -0.2996 0.2428
H8 H 0.6349 0.0942 0.6276
H9 H 0.5756 -0.0088 0.0797
H10 H 0.5242 -0.0205 0.0707
H11 H 0.5182 0.0455 0.5260
H12 H 0.5690 0.0646 0.5219
H13 H 0.6681 0.1280 0.2314
H14 H 0.7185 0.1408 0.2409
H15 H 0.7229 -0.0445 0.4199
H16 H 0.6730 -0.0506 0.4039
H17 H 0.8200 -0.0350 0.3163
H18 H 0.7679 -0.0444 0.2947
H19 H 0.7631 0.1510 0.3650
H20 H 0.8135 0.1549 0.3704
C7D C 0.6081(2) -0.2646(3) -0.110(2)
C6D C 0.6086(2) -0.3276(3) -0.172(1)
N2D N 0.6191(1) -0.3796(3) -0.085(1)
Cu1D Cu 0.62113(2) -0.46713(4) -0.189(1)
O1D O 0.62304(10) -0.4260(2) -0.465(1)
O2D O 0.6222(1) -0.5218(3) 0.126(1)
N1D N 0.6223(1) -0.5610(3) -0.266(1)
N3D N 0.5764(1) -0.4713(2) -0.196(2)
N4D N 0.6653(1) -0.4631(2) -0.183(2)
C10D C 0.6285(2) -0.3697(3) 0.067(1)
H8D H 0.6349 -0.4058 0.1276
H5D H 0.6013 -0.3349 -0.2809
H6D H 0.6000 -0.2294 -0.1723
C8D C 0.6197(1) 0.2449(3) 0.545(2)
C9D C 0.6292(2) 0.1938(3) 0.637(1)
C13A C 0.4839(1) -0.0074(3) 0.299(2)
H7D H 0.6361 0.2004 0.7428
C3D C 0.6203(2) 0.3116(3) 0.614(2)
C1D C 0.6351(2) -0.5768(3) -0.409(2)
C5D C 0.6093(2) -0.6084(3) -0.182(2)
C12A C 0.4668(2) 0.0053(4) 0.170(2)
C14A C 0.4705(2) -0.0345(4) 0.435(2)
C2D C 0.6346(2) 0.3637(4) 0.532(2)
C4D C 0.6072(2) 0.3288(3) 0.761(1)
C2D_2 C 0.6346(2) -0.6363(4) -0.468(2)
H1D H 0.6448 -0.5436 -0.4714
C4D_2 C 0.6072(2) -0.6712(3) -0.239(1)
H4D H 0.6011 -0.5986 -0.0808
C11A C 0.4360(2) -0.0033(4) 0.173(2)
H10A H 0.4758 0.0205 0.0707
C15A C 0.4401(1) -0.0451(4) 0.432(2)
H11A H 0.4818 -0.0455 0.5260
C1D_2 C 0.6351(2) 0.4232(3) 0.591(2)
H2D H 0.6440 0.3553 0.4283
C5D_2 C 0.6093(2) 0.3916(3) 0.818(2)
H3D H 0.5968 0.2970 0.8192
C3D_2 C 0.6203(2) -0.6884(3) -0.386(2)
H2D_2 H 0.6440 -0.6447 -0.5717
H3D_2 H 0.5968 -0.7030 -0.1808
N3A N 0.4236(1) -0.0287(2) 0.304(2)
H9A H 0.4244 0.0088 0.0797
H12A H 0.4310 -0.0646 0.5219
N1D_2 N 0.6223(1) 0.4390(3) 0.734(1)
H1D_2 H 0.6448 0.4564 0.5286
H4D_2 H 0.6011 0.4014 0.9192
C8D_2 C 0.6197(1) -0.7551(3) -0.455(2)
Cu1A Cu 0.37887(2) -0.03287(4) 0.311(1)
Cu1D_2 Cu 0.62113(2) 0.53287(4) 0.811(1)
C7_2 C 0.6081(2) -0.7646(3) -0.610(2)
C9D_2 C 0.6292(2) -0.8062(3) -0.363(1)
C6_2 C 0.6086(2) -0.8276(3) -0.672(1)
H6_2 H 0.6000 -0.7294 -0.6723
C10_2 C 0.6285(2) -0.8697(3) -0.433(1)
H7D_2 H 0.6361 -0.7996 -0.2572
N2_2 N 0.6191(1) -0.8796(3) -0.585(1)
H5_2 H 0.6013 -0.8349 -0.7809
H8_2 H 0.6349 -0.9058 -0.3724
Cu1_2 Cu 0.62113(2) -0.96713(4) -0.689(1)
P1 P 0.67417(5) 0.2968(1) 0.084(1)
F1 F 0.6725(1) 0.2687(3) 0.265(1)
F2 F 0.6749(2) 0.3232(4) -0.093(1)
F3 F 0.6530(1) 0.2409(3) 0.026(1)
F4 F 0.6948(1) 0.3549(3) 0.141(2)
F5 F 0.7014(1) 0.2526(3) 0.046(2)
F6 F 0.6465(1) 0.3417(3) 0.120(1)
P2 P 0.54828(7) 0.3848(1) 0.249(1)
F7 F 0.5389(2) 0.3153(4) 0.238(2)
F8 F 0.5592(2) 0.4591(3) 0.263(2)
F9 F 0.5569(2) 0.3745(4) 0.434(1)
F10 F 0.5413(2) 0.3969(4) 0.066(1)
F11 F 0.5804(2) 0.3643(4) 0.192(2)
F12 F 0.5184(2) 0.4037(6) 0.312(2)
O3 O 0.9275(3) 0.101(1) 0.351(2)
O4 O 0.2569(3) 0.1404(6) 0.034(4)
C26 C 0.2792(3) 0.2326(6) 0.093(2)
C27 C 0.2813(4) 0.1634(7) 0.073(2)
H21 H 0.2982 0.2497 0.1161
H22 H 0.2723 0.2520 -0.0068
H23 H 0.2660 0.2427 0.1770
H24 H 0.2873 0.1441 0.1704
H25 H 0.2951 0.1536 -0.0116
O5 O 0.9502 0.2375 0.3914
C28 C 0.9693 0.2321 0.1317
C29 C 0.9712 0.2618 0.2898
H26 H 0.9504 0.2404 0.0864
H27 H 0.9840 0.2499 0.0628
H28 H 0.9721 0.1864 0.1415
H29 H 0.9685 0.3075 0.2792
H30 H 0.9901 0.2533 0.3347
loop_
_geom_bond_atom_site_label_1
_geom_bond_atom_site_label_2
_geom_bond_site_symmetry_1
_geom_bond_site_symmetry_2
Cu1 O1 1_555 1_555
P1 F1 1_555 1_555
P2 F7 1_555 1_555
F2 P1 1_555 1_555
F3 P1 1_555 1_555
F4 P1 1_555 1_555
F5 P1 1_555 1_555
F6 P1 1_555 1_555
F8 P2 1_555 1_555
F9 P2 1_555 1_555
F10 P2 1_555 1_555
F11 P2 1_555 1_555
F12 P2 1_555 1_555
O2 Cu1 1_555 1_555
O4 C27 1_555 1_555
O5 C29 1_555 1_555
N1 Cu1 1_555 1_555
N2 Cu1 1_555 1_555
N3 Cu1 1_555 1_555
N4 Cu1 1_555 1_555
N5 C21 1_555 1_555
C1 N1 1_555 1_555
C2 C1 1_555 1_555
C3 C2 1_555 1_555
C4 C3 1_555 1_555
C5 N1 1_555 1_555
C6 N2 1_555 1_555
C7 C6 1_555 1_555
C8 C3 1_555 1_555
C9 C8 1_555 1_555
C10 N2 1_555 1_555
C11 N3 1_555 1_555
C12 C11 1_555 1_555
C13 C12 1_555 1_555
C14 C13 1_555 1_555
C15 N3 1_555 1_555
C16 N4 1_555 1_555
C17 C16 1_555 1_555
C18 C17 1_555 1_555
C19 C18 1_555 1_555
C20 N4 1_555 1_555
C21 C22 1_555 1_555
C22 C23 1_555 1_555
C23 C18 1_555 1_555
C24 C23 1_555 1_555
C25 N5 1_555 1_555
C26 C27 1_555 1_555
C27 H24 1_555 1_555
C28 C29 1_555 1_555
C29 H29 1_555 1_555
H1 C1 1_555 1_555
H2 C2 1_555 1_555
H3 C4 1_555 1_555
H4 C5 1_555 1_555
H5 C6 1_555 1_555
H6 C7 1_555 1_555
H7 C9 1_555 1_555
H8 C10 1_555 1_555
H9 C11 1_555 1_555
H10 C12 1_555 1_555
H11 C14 1_555 1_555
H12 C15 1_555 1_555
H13 C16 1_555 1_555
H14 C17 1_555 1_555
H15 C19 1_555 1_555
H16 C20 1_555 1_555
H17 C21 1_555 1_555
H18 C22 1_555 1_555
H19 C24 1_555 1_555
H20 C25 1_555 1_555
H21 C26 1_555 1_555
H22 C26 1_555 1_555
H23 C26 1_555 1_555
H25 C27 1_555 1_555
H26 C28 1_555 1_555
H27 C28 1_555 1_555
H28 C28 1_555 1_555
H30 C29 1_555 1_555
C7D C8 1_555 1_555
C6D C7D 1_555 1_555
N2D C6D 1_555 1_555
Cu1D N2D 1_555 1_555
O1D Cu1D 1_555 1_555
O2D Cu1D 1_555 1_555
N1D Cu1D 1_555 1_555
N3D Cu1D 1_555 1_555
N4D Cu1D 1_555 1_555
C10D C9 1_555 1_555
H8D C10D 1_555 1_555
H5D C6D 1_555 1_555
H6D C7D 1_555 1_555
C8D C7 1_555 1_555
C9D C10 1_555 1_555
C13A C13 1_555 1_555
H7D C9D 1_555 1_555
C3D C8D 1_555 1_555
C1D N1D 1_555 1_555
C5D N1D 1_555 1_555
C12A C13A 1_555 1_555
C14A C13A 1_555 1_555
C2D C3D 1_555 1_555
C4D C3D 1_555 1_555
C2D_2 C1D 1_555 1_555
H1D C1D 1_555 1_555
C4D_2 C5D 1_555 1_555
H4D C5D 1_555 1_555
C11A C12A 1_555 1_555
H10A C12A 1_555 1_555
C15A C14A 1_555 1_555
H11A C14A 1_555 1_555
C1D_2 C2D 1_555 1_555
H2D C2D 1_555 1_555
C5D_2 C4D 1_555 1_555
H3D C4D 1_555 1_555
C3D_2 C2D_2 1_555 1_555
H2D_2 C2D_2 1_555 1_555
H3D_2 C4D_2 1_555 1_555
N3A C11A 1_555 1_555
H9A C11A 1_555 1_555
H12A C15A 1_555 1_555
N1D_2 C1D_2 1_555 1_555
H1D_2 C1D_2 1_555 1_555
H4D_2 C5D_2 1_555 1_555
C8D_2 C3D_2 1_555 1_555
Cu1A N3A 1_555 1_555
Cu1D_2 N1D_2 1_555 1_555
C7_2 C8D_2 1_555 1_555
C9D_2 C8D_2 1_555 1_555
C6_2 C7_2 1_555 1_555
H6_2 C7_2 1_555 1_555
C10_2 C9D_2 1_555 1_555
H7D_2 C9D_2 1_555 1_555
N2_2 C6_2 1_555 1_555
H5_2 C6_2 1_555 1_555
H8_2 C10_2 1_555 1_555
Cu1_2 N2_2 1_555 1_555
C4 C5 1_555 1_555
C14 C15 1_555 1_555
C19 C20 1_555 1_555
C24 C25 1_555 1_555
N2D C10D 1_555 1_555
C8D C9D 1_555 1_555
C4D_2 C3D_2 1_555 1_555
C15A N3A 1_555 1_555
C5D_2 N1D_2 1_555 1_555
C10_2 N2_2 1_555 1_555

#END
