
#######################################################################
#
#                 Cambridge Crystallographic Data Centre
#                                CCDC 
#
#######################################################################
#
# If this CIF has been generated from an entry in the Cambridge 
# Structural Database, then it will include bibliographic, chemical, 
# crystal, experimental, refinement or atomic coordinate data resulting 
# from the CCDC's data processing and validation procedures.
#
#######################################################################

data_AFEJEB
_symmetry_cell_setting           monoclinic
_symmetry_space_group_name_H-M   'P 21/c'
_symmetry_Int_Tables_number      14
_space_group_name_Hall           '-P 2ybc'
loop_
_symmetry_equiv_pos_site_id
_symmetry_equiv_pos_as_xyz
1 x,y,z
2 -x,1/2+y,1/2-z
3 -x,-y,-z
4 x,1/2-y,1/2+z
_cell_length_a                   15.1489(2)
_cell_length_b                   6.57360(10)
_cell_length_c                   15.3111(2)
_cell_angle_alpha                90
_cell_angle_beta                 93.5570(10)
_cell_angle_gamma                90
_cell_volume                     1521.79
loop_
_atom_site_label
_atom_site_type_symbol
_atom_site_fract_x
_atom_site_fract_y
_atom_site_fract_z
Ba1 Ba 0.009199(10) 0.090317(19) 0.144062(9)
C7 C -0.00848(17) 0.4258(3) -0.03987(16)
H5 H 0.0900(16) -0.317(4) 0.1881(15)
H6 H 0.1540(11) -0.240(4) 0.2382(17)
H7 H 0.1313(16) 0.224(4) 0.3221(14)
H8 H 0.1543(15) 0.353(4) 0.2658(17)
H9 H 0.2140(16) 0.102(4) 0.1052(16)
H10 H 0.1765(18) 0.208(3) 0.0395(15)
H11 H -0.2039(15) 0.144(4) 0.1023(15)
H12 H -0.1725(18) 0.123(4) 0.0273(12)
O8 O -0.00452(12) 0.2386(2) -0.02508(10)
O9 O -0.02537(13) 0.5061(3) -0.11302(11)
O11 O 0.10105(13) -0.2370(3) 0.22765(12)
O12 O 0.11131(13) 0.2932(3) 0.28179(13)
O13 O 0.17396(15) 0.1144(3) 0.07199(16)
O14 O -0.16202(14) 0.1761(4) 0.07469(14)
Ba1B Ba -0.009199(10) 0.909683(19) -0.144062(9)
Ba1B_2 Ba -0.009199(10) -0.090317(19) -0.144062(9)
Ba1A Ba -0.009199(10) -0.409683(19) 0.355938(9)
Ba1A_2 Ba -0.009199(10) 0.590317(19) 0.355938(9)
Ba1_2 Ba 0.009199(10) 1.090317(19) 0.144062(9)
C7B C 0.00848(17) 0.5742(3) 0.03987(16)
H5A H -0.0900(16) 0.183(4) 0.3119(15)
H5C H 0.0900(16) 0.817(4) -0.3119(15)
H5B H -0.0900(16) 1.317(4) -0.1881(15)
H6A H -0.1540(11) 0.260(4) 0.2618(17)
H6C H 0.1540(11) 0.740(4) -0.2618(17)
H6B H -0.1540(11) 1.240(4) -0.2382(17)
H7A H -0.1313(16) -0.276(4) 0.1779(14)
H7C H 0.1313(16) 1.276(4) -0.1779(14)
H7B H -0.1313(16) 0.776(4) -0.3221(14)
H8A H -0.1543(15) -0.147(4) 0.2342(17)
H8C H 0.1543(15) 1.147(4) -0.2342(17)
H8B H -0.1543(15) 0.647(4) -0.2658(17)
H9B H -0.2140(16) 0.898(4) -0.1052(16)
H10B H -0.1765(18) 0.792(3) -0.0395(15)
H11B H 0.2039(15) 0.856(4) -0.1023(15)
H12B H 0.1725(18) 0.877(4) -0.0273(12)
O8B O 0.00452(12) 0.7614(2) 0.02508(10)
O8B_2 O 0.00452(12) -0.2386(2) 0.02508(10)
O8_2 O -0.00452(12) 1.2386(2) -0.02508(10)
O9B O 0.02537(13) 0.4939(3) 0.11302(11)
O11A O -0.10105(13) 0.2630(3) 0.27235(12)
O11C O 0.10105(13) 0.7370(3) -0.27235(12)
O11B O -0.10105(13) 1.2370(3) -0.22765(12)
O12A O -0.11131(13) -0.2068(3) 0.21821(13)
O12C O 0.11131(13) 1.2068(3) -0.21821(13)
O12B O -0.11131(13) 0.7068(3) -0.28179(13)
O13B O -0.17396(15) 0.8856(3) -0.07199(16)
O14B O 0.16202(14) 0.8239(4) -0.07469(14)
C1 C 0.53089(19) 0.0665(4) 0.32517(18)
H1 H 0.5152 0.0558 0.3828
C2 C 0.61794(18) 0.0706(4) 0.30611(17)
C3 C 0.64955(18) 0.0795(4) 0.21936(17)
C4 C 0.57696(19) 0.0866(4) 0.15341(17)
C5 C 0.48959(19) 0.0906(4) 0.17056(18)
H2 H 0.4462 0.1012 0.1251
C6 C 0.46645(18) 0.0786(4) 0.25682(18)
N1 N 0.68199(17) 0.0555(4) 0.38123(16)
N2 N 0.37473(16) 0.0789(3) 0.27700(17)
N3 N 0.59676(18) 0.0979(4) 0.06088(16)
O1 O 0.73001(13) 0.0796(3) 0.20391(13)
O2 O 0.75026(17) 0.1514(5) 0.38100(16)
O3 O 0.66196(17) -0.0536(4) 0.44163(15)
O4 O 0.35790(16) 0.0651(4) 0.35365(16)
O5 O 0.31768(15) 0.0929(4) 0.21685(17)
O6 O 0.54645(17) 0.1997(4) 0.01244(15)
O7 O 0.65884(16) 0.0004(5) 0.03584(15)
H3 H 0.182(2) -0.021(3) 0.4331(19)
H4 H 0.2387(13) 0.113(4) 0.4163(19)
O10 O 0.18547(15) 0.1042(4) 0.42656(16)
loop_
_geom_bond_atom_site_label_1
_geom_bond_atom_site_label_2
_geom_bond_site_symmetry_1
_geom_bond_site_symmetry_2
Ba1 O8 1_555 1_555
C1 H1 1_555 1_555
C2 C1 1_555 1_555
C3 C2 1_555 1_555
C4 C3 1_555 1_555
C5 C4 1_555 1_555
H2 C5 1_555 1_555
C6 C1 1_555 1_555
C7 O8 1_555 1_555
H3 O10 1_555 1_555
H4 O10 1_555 1_555
H5 O11 1_555 1_555
H6 O11 1_555 1_555
H7 O12 1_555 1_555
H8 O12 1_555 1_555
H9 O13 1_555 1_555
H10 O13 1_555 1_555
H11 O14 1_555 1_555
H12 O14 1_555 1_555
N1 C2 1_555 1_555
N2 C6 1_555 1_555
N3 C4 1_555 1_555
O1 C3 1_555 1_555
O2 N1 1_555 1_555
O3 N1 1_555 1_555
O4 N2 1_555 1_555
O5 N2 1_555 1_555
O6 N3 1_555 1_555
O7 N3 1_555 1_555
O8 Ba1B_2 1_555 1_555
O9 C7 1_555 1_555
O11 Ba1 1_555 1_555
O12 Ba1 1_555 1_555
O13 Ba1 1_555 1_555
O14 Ba1 1_555 1_555
Ba1B O9 1_555 1_555
Ba1B_2 O8B_2 1_555 1_555
Ba1A O11 1_555 1_555
Ba1A_2 O12 1_555 1_555
Ba1_2 O8B 1_555 1_555
C7B C7 1_555 1_555
H5A O11A 1_555 1_555
H5C O11C 1_555 1_555
H5B O11B 1_555 1_555
H6A O11A 1_555 1_555
H6C O11C 1_555 1_555
H6B O11B 1_555 1_555
H7A O12A 1_555 1_555
H7C O12C 1_555 1_555
H7B O12B 1_555 1_555
H8A O12A 1_555 1_555
H8C O12C 1_555 1_555
H8B O12B 1_555 1_555
H9B O13B 1_555 1_555
H10B O13B 1_555 1_555
H11B O14B 1_555 1_555
H12B O14B 1_555 1_555
O8B Ba1B 1_555 1_555
O8B_2 Ba1 1_555 1_555
O8_2 Ba1B 1_555 1_555
O9B Ba1 1_555 1_555
O11A Ba1 1_555 1_555
O11C Ba1B 1_555 1_555
O11B Ba1B 1_555 1_555
O12A Ba1 1_555 1_555
O12C Ba1B 1_555 1_555
O12B Ba1B 1_555 1_555
O13B Ba1B 1_555 1_555
O14B Ba1B 1_555 1_555
C5 C6 1_555 1_555
Ba1A O12A 1_555 1_555
Ba1A_2 O11A 1_555 1_555
Ba1_2 O8_2 1_555 1_555
C7B O8B 1_555 1_555
C7B O9B 1_555 1_555

#END
