
#######################################################################
#
#                 Cambridge Crystallographic Data Centre
#                                CCDC 
#
#######################################################################
#
# If this CIF has been generated from an entry in the Cambridge 
# Structural Database, then it will include bibliographic, chemical, 
# crystal, experimental, refinement or atomic coordinate data resulting 
# from the CCDC's data processing and validation procedures.
#
#######################################################################

data_AFEJOK
_symmetry_cell_setting           monoclinic
_symmetry_space_group_name_H-M   'C 2/m'
_symmetry_Int_Tables_number      12
_space_group_name_Hall           '-C 2y'
loop_
_symmetry_equiv_pos_site_id
_symmetry_equiv_pos_as_xyz
1 x,y,z
2 x,-y,z
3 1/2+x,1/2+y,z
4 1/2+x,1/2-y,z
5 -x,-y,-z
6 -x,y,-z
7 1/2-x,1/2-y,-z
8 1/2-x,1/2+y,-z
_cell_length_a                   22.184(2)
_cell_length_b                   15.313(1)
_cell_length_c                   11.1085(8)
_cell_angle_alpha                90
_cell_angle_beta                 93.704(3)
_cell_angle_gamma                90
_cell_volume                     3765.71
loop_
_atom_site_label
_atom_site_type_symbol
_atom_site_fract_x
_atom_site_fract_y
_atom_site_fract_z
P2 P 0.6316(2) 0.0000 0.6600(2)
F4 F 0.6277(2) -0.1033(3) 0.6629(4)
F5 F 0.5821(5) 0.0000 0.7575(7)
F6 F 0.5839(4) 0.0000 0.5561(7)
F7 F 0.6820(5) 0.0000 0.5709(9)
F8 F 0.6759(5) 0.0000 0.7729(8)
F4A F 0.6277(2) 0.1033(3) 0.6629(4)
O3 O 0.099(3) 0.0000 0.410(6)
Cu1 Cu 0.5000 0.22225(6) 1.0000
P1 P 0.5000 0.5000 1.0000
F1 F 0.5000 0.3973(3) 1.0000
F2 F 0.4729(7) 0.5000 1.1175(9)
F3 F 0.5631(4) 0.5000 1.057(1)
O1 O 0.5000 0.0716(4) 1.0000
O2 O 0.5659(4) 0.0000 1.0725(8)
N1 N 0.4981(1) 0.2273(3) 0.8174(2)
N2 N 0.5911(1) 0.2302(3) 1.0067(2)
N3 N 0.5138(6) 0.0000 1.019(1)
C1 C 0.4742(2) 0.1627(3) 0.7514(3)
C2 C 0.4748(2) 0.1611(4) 0.6253(3)
C3 C 0.4989(2) 0.2310(4) 0.5669(3)
C4 C 0.5223(2) 0.2973(4) 0.6368(3)
C5 C 0.5218(2) 0.2947(3) 0.7598(3)
C6 C 0.6228(2) 0.1750(4) 0.9441(4)
C7 C 0.6852(2) 0.1822(4) 0.9390(4)
C8 C 0.7161(1) 0.2457(3) 1.0010(3)
C9 C 0.6832(2) 0.3011(4) 1.0689(4)
C10 C 0.6216(2) 0.2924(4) 1.0689(4)
H1 H 0.4557 0.1149 0.7923
H2 H 0.4586 0.1110 0.5790
H3 H 0.5385 0.3485 0.5975
H4 H 0.5386 0.3433 0.8076
H5 H 0.6014 0.1294 0.8989
H6 H 0.7066 0.1407 0.8911
H7 H 0.7033 0.3484 1.1146
H8 H 0.5988 0.3321 1.1153
F1A F 0.5000 0.6027(3) 1.0000
F2D F 0.5271(7) 0.5000 0.8825(9)
F3D F 0.4369(4) 0.5000 0.943(1)
O1A O 0.5000 -0.0716(4) 1.0000
N3E N 0.4862(6) 0.0000 0.981(1)
O2E O 0.4341(4) 0.0000 0.9275(8)
C3E C 0.5011(2) 0.2310(4) 0.4331(3)
C2E C 0.5252(2) 0.1611(4) 0.3747(3)
C1E C 0.5258(2) 0.1627(3) 0.2486(3)
N1E N 0.5019(1) 0.2273(3) 0.1826(2)
C5E C 0.4782(2) 0.2947(3) 0.2402(3)
C4E C 0.4777(2) 0.2973(4) 0.3632(3)
H3E H 0.4615 0.3485 0.4025
H4E H 0.4614 0.3433 0.1924
H1E H 0.5443 0.1149 0.2077
H2E H 0.5414 0.1110 0.4210
C8F C 0.7839(1) 0.2543(3) 0.9990(3)
C7F C 0.8148(2) 0.3178(4) 1.0610(4)
C6F C 0.8772(2) 0.3250(4) 1.0559(4)
N2F N 0.9089(1) 0.2698(3) 0.9933(2)
C10F C 0.8784(2) 0.2076(4) 0.9311(4)
C9F C 0.8168(2) 0.1989(4) 0.9311(4)
H7F H 0.7967 0.1516 0.8854
H8F H 0.9012 0.1679 0.8847
H5F H 0.8986 0.3706 1.1011
H6F H 0.7934 0.3593 1.1089
N1E_2 N 0.5019(1) 0.2273(3) 1.1826(2)
C1E_2 C 0.5258(2) 0.1627(3) 1.2486(3)
C2E_2 C 0.5252(2) 0.1611(4) 1.3747(3)
C3E_2 C 0.5011(2) 0.2310(4) 1.4331(3)
C4E_2 C 0.4777(2) 0.2973(4) 1.3632(3)
C5E_2 C 0.4782(2) 0.2947(3) 1.2402(3)
H1E_2 H 0.5443 0.1149 1.2077
H2E_2 H 0.5414 0.1110 1.4210
H3E_2 H 0.4615 0.3485 1.4025
H4E_2 H 0.4614 0.3433 1.1924
C3_2 C 0.4989(2) 0.2310(4) 1.5669(3)
C2_2 C 0.4748(2) 0.1611(4) 1.6253(3)
C1_2 C 0.4742(2) 0.1627(3) 1.7514(3)
N1_2 N 0.4981(1) 0.2273(3) 1.8174(2)
C5_2 C 0.5218(2) 0.2947(3) 1.7598(3)
C4_2 C 0.5223(2) 0.2973(4) 1.6368(3)
H3_2 H 0.5385 0.3485 1.5975
H4_2 H 0.5386 0.3433 1.8076
H1_2 H 0.4557 0.1149 1.7923
H2_2 H 0.4586 0.1110 1.5790
N2E N 0.4089(1) 0.2302(3) 0.9933(2)
C6E C 0.3772(2) 0.1750(4) 1.0559(4)
C7E C 0.3148(2) 0.1822(4) 1.0610(4)
C8E C 0.2839(1) 0.2457(3) 0.9990(3)
C9E C 0.3168(2) 0.3011(4) 0.9311(4)
C10E C 0.3784(2) 0.2924(4) 0.9311(4)
H5E H 0.3986 0.1294 1.1011
H6E H 0.2934 0.1407 1.1089
H7E H 0.2967 0.3484 0.8854
H8E H 0.4012 0.3321 0.8847
C8C C 0.2161(1) 0.2543(3) 1.0010(3)
C7C C 0.1852(2) 0.3178(4) 0.9390(4)
C6C C 0.1228(2) 0.3250(4) 0.9441(4)
N2C N 0.0911(1) 0.2698(3) 1.0067(2)
C10C C 0.1216(2) 0.2076(4) 1.0689(4)
C9C C 0.1832(2) 0.1989(4) 1.0689(4)
H7C H 0.2033 0.1516 1.1146
H8C H 0.0988 0.1679 1.1153
H5C H 0.1014 0.3706 0.8989
H6C H 0.2066 0.3593 0.8911
Cu1A Cu 0.5000 0.77775(6) 1.0000
Cu1A_2 Cu 0.5000 -0.22225(6) 1.0000
Cu1_2 Cu 0.5000 0.22225(6) 0.0000
Cu1C Cu 1.0000 0.27775(6) 1.0000
Cu1_3 Cu 0.5000 0.22225(6) 2.0000
Cu1C_2 Cu 0.0000 0.27775(6) 1.0000
O1A_2 O 0.5000 0.9284(4) 1.0000
N1A N 0.4981(1) 0.7727(3) 0.8174(2)
N1D N 0.5019(1) 0.7727(3) 1.1826(2)
N2A N 0.5911(1) 0.7698(3) 1.0067(2)
N2D N 0.4089(1) 0.7698(3) 0.9933(2)
F1A_2 F 0.5000 -0.3973(3) 1.0000
N1A_2 N 0.4981(1) -0.2273(3) 0.8174(2)
N1D_2 N 0.5019(1) -0.2273(3) 1.1826(2)
N2A_2 N 0.5911(1) -0.2302(3) 1.0067(2)
N2D_2 N 0.4089(1) -0.2302(3) 0.9933(2)
loop_
_geom_bond_atom_site_label_1
_geom_bond_atom_site_label_2
_geom_bond_site_symmetry_1
_geom_bond_site_symmetry_2
Cu1 F1 1_555 1_555
P1 F1 1_555 1_555
P2 F4 1_555 1_555
F2 P1 1_555 1_555
F3 P1 1_555 1_555
F5 P2 1_555 1_555
F6 P2 1_555 1_555
F7 P2 1_555 1_555
F8 P2 1_555 1_555
O1 Cu1 1_555 1_555
O2 N3 1_555 1_555
N1 Cu1 1_555 1_555
N2 Cu1 1_555 1_555
N3 O1 1_555 1_555
C1 N1 1_555 1_555
C2 C1 1_555 1_555
C3 C2 1_555 1_555
C4 C3 1_555 1_555
C5 N1 1_555 1_555
C6 N2 1_555 1_555
C7 C6 1_555 1_555
C8 C7 1_555 1_555
C9 C8 1_555 1_555
C10 N2 1_555 1_555
H1 C1 1_555 1_555
H2 C2 1_555 1_555
H3 C4 1_555 1_555
H4 C5 1_555 1_555
H5 C6 1_555 1_555
H6 C7 1_555 1_555
H7 C9 1_555 1_555
H8 C10 1_555 1_555
F1A P1 1_555 1_555
F2D P1 1_555 1_555
F3D P1 1_555 1_555
F4A P2 1_555 1_555
O1A N3 1_555 1_555
N3E O1 1_555 1_555
O2E N3E 1_555 1_555
C3E C3 1_555 1_555
C2E C3E 1_555 1_555
C1E C2E 1_555 1_555
N1E C1E 1_555 1_555
C5E N1E 1_555 1_555
C4E C3E 1_555 1_555
H3E C4E 1_555 1_555
H4E C5E 1_555 1_555
H1E C1E 1_555 1_555
H2E C2E 1_555 1_555
C8F C8 1_555 1_555
C7F C8F 1_555 1_555
C6F C7F 1_555 1_555
N2F C6F 1_555 1_555
C10F N2F 1_555 1_555
C9F C8F 1_555 1_555
H7F C9F 1_555 1_555
H8F C10F 1_555 1_555
H5F C6F 1_555 1_555
H6F C7F 1_555 1_555
N1E_2 Cu1 1_555 1_555
C1E_2 N1E_2 1_555 1_555
C2E_2 C1E_2 1_555 1_555
C3E_2 C2E_2 1_555 1_555
C4E_2 C3E_2 1_555 1_555
C5E_2 N1E_2 1_555 1_555
H1E_2 C1E_2 1_555 1_555
H2E_2 C2E_2 1_555 1_555
H3E_2 C4E_2 1_555 1_555
H4E_2 C5E_2 1_555 1_555
C3_2 C3E_2 1_555 1_555
C2_2 C3_2 1_555 1_555
C1_2 C2_2 1_555 1_555
N1_2 C1_2 1_555 1_555
C5_2 N1_2 1_555 1_555
C4_2 C3_2 1_555 1_555
H3_2 C4_2 1_555 1_555
H4_2 C5_2 1_555 1_555
H1_2 C1_2 1_555 1_555
H2_2 C2_2 1_555 1_555
N2E Cu1 1_555 1_555
C6E N2E 1_555 1_555
C7E C6E 1_555 1_555
C8E C7E 1_555 1_555
C9E C8E 1_555 1_555
C10E N2E 1_555 1_555
H5E C6E 1_555 1_555
H6E C7E 1_555 1_555
H7E C9E 1_555 1_555
H8E C10E 1_555 1_555
C8C C8E 1_555 1_555
C7C C8C 1_555 1_555
C6C C7C 1_555 1_555
N2C C6C 1_555 1_555
C10C N2C 1_555 1_555
C9C C8C 1_555 1_555
H7C C9C 1_555 1_555
H8C C10C 1_555 1_555
H5C C6C 1_555 1_555
H6C C7C 1_555 1_555
Cu1A F1A 1_555 1_555
Cu1A_2 O1A 1_555 1_555
Cu1_2 N1E 1_555 1_555
Cu1C N2F 1_555 1_555
Cu1_3 N1_2 1_555 1_555
Cu1C_2 N2C 1_555 1_555
O1A_2 Cu1A 1_555 1_555
N1A Cu1A 1_555 1_555
N1D Cu1A 1_555 1_555
N2A Cu1A 1_555 1_555
N2D Cu1A 1_555 1_555
F1A_2 Cu1A_2 1_555 1_555
N1A_2 Cu1A_2 1_555 1_555
N1D_2 Cu1A_2 1_555 1_555
N2A_2 Cu1A_2 1_555 1_555
N2D_2 Cu1A_2 1_555 1_555
N3 N3E 1_555 1_555
C4 C5 1_555 1_555
C9 C10 1_555 1_555
O1A N3E 1_555 1_555
C5E C4E 1_555 1_555
C10F C9F 1_555 1_555
C4E_2 C5E_2 1_555 1_555
C5_2 C4_2 1_555 1_555
C9E C10E 1_555 1_555
C10C C9C 1_555 1_555

#END
