
#######################################################################
#
#                 Cambridge Crystallographic Data Centre
#                                CCDC 
#
#######################################################################
#
# If this CIF has been generated from an entry in the Cambridge 
# Structural Database, then it will include bibliographic, chemical, 
# crystal, experimental, refinement or atomic coordinate data resulting 
# from the CCDC's data processing and validation procedures.
#
#######################################################################

data_AFEJIE
_symmetry_cell_setting           orthorhombic
_symmetry_space_group_name_H-M   'A b a 2'
_symmetry_Int_Tables_number      41
_space_group_name_Hall           'A 2 -2ab'
loop_
_symmetry_equiv_pos_site_id
_symmetry_equiv_pos_as_xyz
1 x,y,z
2 -x,-y,z
3 1/2-x,1/2+y,z
4 1/2+x,1/2-y,z
5 x,1/2+y,1/2+z
6 -x,1/2-y,1/2+z
7 1/2-x,y,1/2+z
8 1/2+x,-y,1/2+z
_cell_length_a                   44.870(10)
_cell_length_b                   20.292(5)
_cell_length_c                   8.170(2)
_cell_angle_alpha                90
_cell_angle_beta                 90
_cell_angle_gamma                90
_cell_volume                     7438.8
loop_
_atom_site_label
_atom_site_type_symbol
_atom_site_fract_x
_atom_site_fract_y
_atom_site_fract_z
Cu1 Cu 0.62147(1) 0.02549(3) 0.517(2)
O5 O 0.62311(7) 0.0676(2) 0.791(2)
O6 O 0.6242(1) -0.0295(2) 0.212(2)
N1 N 0.62246(9) -0.0670(2) 0.596(2)
N2 N 0.61961(9) 0.1143(2) 0.416(2)
N3 N 0.57660(8) 0.0222(2) 0.528(2)
N4 N 0.66585(8) 0.0316(2) 0.517(2)
N5 N 0.8216(1) 0.0543(4) 0.476(2)
C1 C 0.6348(1) -0.0832(3) 0.741(2)
C2 C 0.6339(2) -0.1447(3) 0.802(2)
C3 C 0.6194(1) -0.1951(3) 0.715(2)
C4 C 0.6069(1) -0.1781(3) 0.571(2)
C5 C 0.6081(1) -0.1147(3) 0.515(2)
C6 C 0.6082(1) 0.1645(3) 0.494(2)
C7 C 0.6081(2) 0.2277(3) 0.437(2)
C8 C 0.6200(1) -0.2609(3) 0.784(2)
C9 C 0.6296(1) -0.3142(3) 0.696(2)
C10 C 0.6300(1) 0.1260(3) 0.266(2)
C11 C 0.5630(1) 0.0020(4) 0.658(2)
C12 C 0.5330(1) -0.0059(4) 0.660(2)
C13 C 0.51625(10) 0.0045(3) 0.524(2)
C14 C 0.5309(1) 0.0265(3) 0.387(2)
C15 C 0.5604(1) 0.0374(4) 0.394(2)
C16 C 0.6801(1) 0.0862(3) 0.557(2)
C17 C 0.7099(1) 0.0935(3) 0.554(2)
C18 C 0.7274(1) 0.0398(3) 0.504(2)
C19 C 0.7136(1) -0.0154(3) 0.457(2)
C20 C 0.6831(1) -0.0192(3) 0.460(2)
C21 C 0.8085(1) 0.0009(4) 0.507(2)
C22 C 0.7779(1) -0.0093(3) 0.513(2)
C23 C 0.7602(1) 0.0460(3) 0.495(2)
C24 C 0.7740(1) 0.1067(3) 0.470(2)
C25 C 0.8049(1) 0.1105(4) 0.458(2)
H1 H 0.6447 -0.0498 0.8074
H2 H 0.6430 -0.1540 0.9101
H3 H 0.5972 -0.2107 0.5128
H4 H 0.5984 -0.1042 0.4206
H5 H 0.5993 0.1565 0.6025
H6 H 0.6000 0.2625 0.5056
H7 H 0.6359 -0.3088 0.5910
H8 H 0.6381 0.0903 0.2113
H9 H 0.5742 -0.0073 0.7594
H10 H 0.5236 -0.0188 0.7649
H11 H 0.5202 0.0337 0.2938
H12 H 0.5702 0.0567 0.3073
H13 H 0.6686 0.1229 0.5964
H14 H 0.7189 0.1341 0.5894
H15 H 0.7250 -0.0519 0.4250
H16 H 0.6737 -0.0582 0.4271
H17 H 0.8208 -0.0361 0.5341
H18 H 0.7696 -0.0521 0.5335
H19 H 0.7622 0.1454 0.4669
H20 H 0.8143 0.1515 0.4426
C7D C 0.6081(2) -0.2723(3) 0.937(2)
C6D C 0.6082(1) -0.3355(3) 0.994(2)
N2D N 0.61961(9) -0.3857(2) 0.916(2)
Cu1D Cu 0.62147(1) -0.47451(3) 1.017(2)
O5D O 0.62311(7) -0.4324(2) 1.291(2)
O6D O 0.6242(1) -0.5295(2) 0.712(2)
N1D N 0.62246(9) -0.5670(2) 1.096(2)
N3D N 0.57660(8) -0.4778(2) 1.028(2)
N4D N 0.66585(8) -0.4684(2) 1.017(2)
C10D C 0.6300(1) -0.3740(3) 0.766(2)
H8D H 0.6381 -0.4097 0.7113
H5D H 0.5993 -0.3435 1.1025
H6D H 0.6000 -0.2375 1.0056
C8D C 0.6200(1) 0.2391(3) 0.284(2)
C9D C 0.6296(1) 0.1858(3) 0.196(2)
C13A C 0.48375(10) -0.0045(3) 0.524(2)
H7D H 0.6359 0.1912 0.0910
C3D C 0.6194(1) 0.3049(3) 0.215(2)
C1D C 0.6348(1) -0.5832(3) 1.241(2)
C5D C 0.6081(1) -0.6147(3) 1.015(2)
C12A C 0.4670(1) 0.0059(4) 0.660(2)
C14A C 0.4691(1) -0.0265(3) 0.387(2)
C2D C 0.6339(2) 0.3553(3) 0.302(2)
C4D C 0.6069(1) 0.3219(3) 0.071(2)
C2D_2 C 0.6339(2) -0.6447(3) 1.302(2)
H1D H 0.6447 -0.5498 1.3074
C4D_2 C 0.6069(1) -0.6781(3) 1.071(2)
H4D H 0.5984 -0.6042 0.9206
C11A C 0.4370(1) -0.0020(4) 0.658(2)
H10A H 0.4764 0.0188 0.7649
C15A C 0.4396(1) -0.0374(4) 0.394(2)
H11A H 0.4798 -0.0337 0.2938
C1D_2 C 0.6348(1) 0.4168(3) 0.241(2)
H2D H 0.6430 0.3460 0.4101
C5D_2 C 0.6081(1) 0.3853(3) 0.015(2)
H3D H 0.5972 0.2893 0.0128
C3D_2 C 0.6194(1) -0.6951(3) 1.215(2)
H2D_2 H 0.6430 -0.6540 1.4101
H3D_2 H 0.5972 -0.7107 1.0128
N3A N 0.42340(8) -0.0222(2) 0.528(2)
H9A H 0.4258 0.0073 0.7594
H12A H 0.4298 -0.0567 0.3073
N1D_2 N 0.62246(9) 0.4330(2) 0.096(2)
H1D_2 H 0.6447 0.4502 0.3074
H4D_2 H 0.5984 0.3958 -0.0794
C8D_2 C 0.6200(1) -0.7609(3) 1.284(2)
Cu1A Cu 0.37853(1) -0.02549(3) 0.517(2)
Cu1D_2 Cu 0.62147(1) 0.52549(3) 0.017(2)
C7_2 C 0.6081(2) -0.7723(3) 1.437(2)
C9D_2 C 0.6296(1) -0.8142(3) 1.196(2)
C6_2 C 0.6082(1) -0.8355(3) 1.494(2)
H6_2 H 0.6000 -0.7375 1.5056
C10_2 C 0.6300(1) -0.8740(3) 1.266(2)
H7D_2 H 0.6359 -0.8088 1.0910
N2_2 N 0.61961(9) -0.8857(2) 1.416(2)
H5_2 H 0.5993 -0.8435 1.6025
H8_2 H 0.6381 -0.9097 1.2113
Cu1_2 Cu 0.62147(1) -0.97451(3) 1.517(2)
Cl1 Cl 0.55192(6) -0.1031(1) 1.061(2)
O1 O 0.5565(2) -0.1386(5) 0.914(2)
O2 O 0.5701(2) -0.0457(4) 1.044(2)
O3 O 0.5630(3) -0.1291(5) 1.200(3)
O4 O 0.5229(2) -0.0756(6) 1.050(2)
P1 P 0.67290(5) -0.2098(1) 0.243(2)
F1 F 0.6935(2) -0.1534(3) 0.186(3)
F2 F 0.6531(1) -0.2684(3) 0.301(2)
F3 F 0.7014(1) -0.2501(3) 0.274(3)
F4 F 0.6463(1) -0.1656(3) 0.204(2)
F5 F 0.6727(1) -0.2381(3) 0.070(2)
F6 F 0.6750(1) -0.1828(3) 0.418(2)
O7 O 0.9516(4) 0.2266(10) 0.216(4)
O8 O 0.2486(3) 0.1398(6) 0.268(4)
C26 C 0.2209(3) 0.2382(6) 0.232(3)
C27 C 0.2231(3) 0.1674(6) 0.250(3)
H21 H 0.2011 0.2497 0.2112
H22 H 0.2339 0.2528 0.1528
H23 H 0.2265 0.2586 0.3377
H24 H 0.2152 0.1485 0.1573
H25 H 0.2114 0.1551 0.3454
O9 O 0.9228(2) 0.1480(5) 0.399(3)
C28 C 0.9599(6) 0.158(1) 0.585(5)
C29 C 0.9355(6) 0.105(1) 0.491(3)
H26 H 0.9753 0.1357 0.6518
H27 H 0.9692 0.1889 0.5197
H28 H 0.9494 0.1854 0.6752
H29 H 0.9223 0.0843 0.5688
H30 H 0.9460 0.0729 0.4339
loop_
_geom_bond_atom_site_label_1
_geom_bond_atom_site_label_2
_geom_bond_site_symmetry_1
_geom_bond_site_symmetry_2
Cu1 O5 1_555 1_555
Cl1 O1 1_555 1_555
P1 F1 1_555 1_555
F2 P1 1_555 1_555
F3 P1 1_555 1_555
F4 P1 1_555 1_555
F5 P1 1_555 1_555
F6 P1 1_555 1_555
O2 Cl1 1_555 1_555
O3 Cl1 1_555 1_555
O4 Cl1 1_555 1_555
O6 Cu1 1_555 1_555
O8 C27 1_555 1_555
O9 C29 1_555 1_555
N1 Cu1 1_555 1_555
N2 Cu1 1_555 1_555
N3 Cu1 1_555 1_555
N4 Cu1 1_555 1_555
N5 C21 1_555 1_555
C1 N1 1_555 1_555
C2 C1 1_555 1_555
C3 C2 1_555 1_555
C4 C3 1_555 1_555
C5 N1 1_555 1_555
C6 N2 1_555 1_555
C7 C6 1_555 1_555
C8 C3 1_555 1_555
C9 C8 1_555 1_555
C10 N2 1_555 1_555
C11 N3 1_555 1_555
C12 C11 1_555 1_555
C13 C12 1_555 1_555
C14 C13 1_555 1_555
C15 N3 1_555 1_555
C16 N4 1_555 1_555
C17 C16 1_555 1_555
C18 C17 1_555 1_555
C19 C18 1_555 1_555
C20 N4 1_555 1_555
C21 C22 1_555 1_555
C22 C23 1_555 1_555
C23 C18 1_555 1_555
C24 C23 1_555 1_555
C25 N5 1_555 1_555
C26 C27 1_555 1_555
C27 H24 1_555 1_555
C28 C29 1_555 1_555
C29 H29 1_555 1_555
H1 C1 1_555 1_555
H2 C2 1_555 1_555
H3 C4 1_555 1_555
H4 C5 1_555 1_555
H5 C6 1_555 1_555
H6 C7 1_555 1_555
H7 C9 1_555 1_555
H8 C10 1_555 1_555
H9 C11 1_555 1_555
H10 C12 1_555 1_555
H11 C14 1_555 1_555
H12 C15 1_555 1_555
H13 C16 1_555 1_555
H14 C17 1_555 1_555
H15 C19 1_555 1_555
H16 C20 1_555 1_555
H17 C21 1_555 1_555
H18 C22 1_555 1_555
H19 C24 1_555 1_555
H20 C25 1_555 1_555
H21 C26 1_555 1_555
H22 C26 1_555 1_555
H23 C26 1_555 1_555
H25 C27 1_555 1_555
H26 C28 1_555 1_555
H27 C28 1_555 1_555
H28 C28 1_555 1_555
H30 C29 1_555 1_555
C7D C8 1_555 1_555
C6D C7D 1_555 1_555
N2D C6D 1_555 1_555
Cu1D N2D 1_555 1_555
O5D Cu1D 1_555 1_555
O6D Cu1D 1_555 1_555
N1D Cu1D 1_555 1_555
N3D Cu1D 1_555 1_555
N4D Cu1D 1_555 1_555
C10D C9 1_555 1_555
H8D C10D 1_555 1_555
H5D C6D 1_555 1_555
H6D C7D 1_555 1_555
C8D C7 1_555 1_555
C9D C10 1_555 1_555
C13A C13 1_555 1_555
H7D C9D 1_555 1_555
C3D C8D 1_555 1_555
C1D N1D 1_555 1_555
C5D N1D 1_555 1_555
C12A C13A 1_555 1_555
C14A C13A 1_555 1_555
C2D C3D 1_555 1_555
C4D C3D 1_555 1_555
C2D_2 C1D 1_555 1_555
H1D C1D 1_555 1_555
C4D_2 C5D 1_555 1_555
H4D C5D 1_555 1_555
C11A C12A 1_555 1_555
H10A C12A 1_555 1_555
C15A C14A 1_555 1_555
H11A C14A 1_555 1_555
C1D_2 C2D 1_555 1_555
H2D C2D 1_555 1_555
C5D_2 C4D 1_555 1_555
H3D C4D 1_555 1_555
C3D_2 C2D_2 1_555 1_555
H2D_2 C2D_2 1_555 1_555
H3D_2 C4D_2 1_555 1_555
N3A C11A 1_555 1_555
H9A C11A 1_555 1_555
H12A C15A 1_555 1_555
N1D_2 C1D_2 1_555 1_555
H1D_2 C1D_2 1_555 1_555
H4D_2 C5D_2 1_555 1_555
C8D_2 C3D_2 1_555 1_555
Cu1A N3A 1_555 1_555
Cu1D_2 N1D_2 1_555 1_555
C7_2 C8D_2 1_555 1_555
C9D_2 C8D_2 1_555 1_555
C6_2 C7_2 1_555 1_555
H6_2 C7_2 1_555 1_555
C10_2 C9D_2 1_555 1_555
H7D_2 C9D_2 1_555 1_555
N2_2 C6_2 1_555 1_555
H5_2 C6_2 1_555 1_555
H8_2 C10_2 1_555 1_555
Cu1_2 N2_2 1_555 1_555
C4 C5 1_555 1_555
C14 C15 1_555 1_555
C19 C20 1_555 1_555
C24 C25 1_555 1_555
N2D C10D 1_555 1_555
C8D C9D 1_555 1_555
C4D_2 C3D_2 1_555 1_555
C15A N3A 1_555 1_555
C5D_2 N1D_2 1_555 1_555
C10_2 N2_2 1_555 1_555

#END
