
#######################################################################
#
#                 Cambridge Crystallographic Data Centre
#                                CCDC 
#
#######################################################################
#
# If this CIF has been generated from an entry in the Cambridge 
# Structural Database, then it will include bibliographic, chemical, 
# crystal, experimental, refinement or atomic coordinate data resulting 
# from the CCDC's data processing and validation procedures.
#
#######################################################################

data_AFEKAY
_symmetry_cell_setting           monoclinic
_symmetry_space_group_name_H-M   'C 2/c'
_symmetry_Int_Tables_number      15
_space_group_name_Hall           '-C 2yn'
loop_
_symmetry_equiv_pos_site_id
_symmetry_equiv_pos_as_xyz
1 x,y,z
2 1/2+x,1/2+y,z
3 -x,y,1/2-z
4 1/2-x,1/2+y,1/2-z
5 -x,-y,-z
6 1/2-x,1/2-y,-z
7 x,-y,1/2+z
8 1/2+x,1/2-y,1/2+z
_cell_length_a                   18.7266(16)
_cell_length_b                   14.5252(12)
_cell_length_c                   15.2375(13)
_cell_angle_alpha                90
_cell_angle_beta                 94.782(2)
_cell_angle_gamma                90
_cell_volume                     4130.29
loop_
_atom_site_label
_atom_site_type_symbol
_atom_site_fract_x
_atom_site_fract_y
_atom_site_fract_z
Mn1 Mn 0.0000 0.26386(6) 0.2500
N1 N 0.0765(2) 0.2265(2) 0.1478(2)
N2 N 0.0500(2) 0.3736(2) 0.3356(3)
N3 N 0.1019(2) 0.1940(3) 0.3248(2)
C1 C 0.0736(3) 0.2587(3) 0.0651(3)
H1 H 0.0380 0.3022 0.0478
C2 C 0.1189(3) 0.2322(4) 0.0046(3)
H2 H 0.1138 0.2562 -0.0529
C3 C 0.1713(3) 0.1710(4) 0.0281(3)
H3 H 0.2030 0.1514 -0.0128
C4 C 0.1773(3) 0.1378(4) 0.1134(4)
H4 H 0.2139 0.0961 0.1318
C5 C 0.1285(3) 0.1670(3) 0.1715(3)
C6 C 0.1313(3) 0.1281(3) 0.2638(3)
H5 H 0.1037 0.0707 0.2633
H6 H 0.1811 0.1138 0.2843
C7 C 0.0191(3) 0.4531(3) 0.3588(3)
H7 H -0.0277 0.4657 0.3345
C8 C 0.0512(4) 0.5154(4) 0.4146(4)
H8 H 0.0276 0.5700 0.4285
C9 C 0.1186(4) 0.4969(4) 0.4502(4)
H9 H 0.1423 0.5393 0.4891
C10 C 0.1522(3) 0.4176(5) 0.4301(4)
H10 H 0.1986 0.4045 0.4556
C11 C 0.1176(3) 0.3571(3) 0.3721(3)
C12 C 0.1520(3) 0.2711(4) 0.3387(4)
H11 H 0.1722 0.2853 0.2829
H12 H 0.1915 0.2525 0.3811
C13 C 0.0935(3) 0.1483(4) 0.4109(3)
H13 H 0.1411 0.1307 0.4369
H14 H 0.0741 0.1936 0.4503
C14 C 0.0467(3) 0.0653(3) 0.4084(3)
H15 H 0.0723 0.0132 0.3846
H16 H 0.0036 0.0768 0.3690
C15 C 0.0251(3) 0.0406(3) 0.4997(4)
H17 H 0.0685 0.0267 0.5380
H18 H 0.0020 0.0941 0.5244
Mn1F Mn 0.0000 -0.26386(6) 0.7500
N1D N -0.0765(2) -0.2265(2) 0.8522(2)
N1B N -0.0765(2) 0.2265(2) 0.3522(2)
N2D N -0.0500(2) -0.3736(2) 0.6644(3)
N2B N -0.0500(2) 0.3736(2) 0.1644(3)
N3D N -0.1019(2) -0.1940(3) 0.6752(2)
N3B N -0.1019(2) 0.1940(3) 0.1752(2)
C1D C -0.0736(3) -0.2587(3) 0.9349(3)
H1D H -0.0380 -0.3022 0.9522
C2D C -0.1189(3) -0.2322(4) 0.9954(3)
H2D H -0.1138 -0.2562 1.0529
C3D C -0.1713(3) -0.1710(4) 0.9719(3)
H3D H -0.2030 -0.1514 1.0128
C4D C -0.1773(3) -0.1378(4) 0.8866(4)
H4D H -0.2139 -0.0961 0.8682
C5D C -0.1285(3) -0.1670(3) 0.8285(3)
C6D C -0.1313(3) -0.1281(3) 0.7362(3)
H5D H -0.1037 -0.0707 0.7367
H6D H -0.1811 -0.1138 0.7157
C7D C -0.0191(3) -0.4531(3) 0.6412(3)
H7D H 0.0277 -0.4657 0.6655
C8D C -0.0512(4) -0.5154(4) 0.5854(4)
H8D H -0.0276 -0.5700 0.5715
C9D C -0.1186(4) -0.4969(4) 0.5498(4)
H9D H -0.1423 -0.5393 0.5109
C10D C -0.1522(3) -0.4176(5) 0.5699(4)
H10D H -0.1986 -0.4045 0.5444
C11D C -0.1176(3) -0.3571(3) 0.6279(3)
C12D C -0.1520(3) -0.2711(4) 0.6613(4)
H11D H -0.1722 -0.2853 0.7171
H12D H -0.1915 -0.2525 0.6189
C13D C -0.0935(3) -0.1483(4) 0.5891(3)
H13D H -0.1411 -0.1307 0.5631
H14D H -0.0741 -0.1936 0.5497
C14D C -0.0467(3) -0.0653(3) 0.5916(3)
H15D H -0.0723 -0.0132 0.6154
H16D H -0.0036 -0.0768 0.6310
C15D C -0.0251(3) -0.0406(3) 0.5003(4)
H17D H -0.0685 -0.0267 0.4620
H18D H -0.0020 -0.0941 0.4756
Cl1 Cl 0.23323(9) 0.43776(12) 0.17809(10)
O1 O 0.2592(2) 0.4928(3) 0.1128(3)
O2 O 0.2566(4) 0.4597(4) 0.2616(3)
O3 O 0.1583(3) 0.4373(6) 0.1717(5)
O4 O 0.2472(4) 0.3424(4) 0.1612(4)
O5 O 0.4558(3) 0.2153(4) 0.3938(5)
C16 C 0.4137(6) 0.2292(8) 0.3337(8)
C17 C 0.3836(7) 0.1745(10) 0.2604(9)
H19 H 0.3393 0.2025 0.2358
H20 H 0.3738 0.1128 0.2807
H21 H 0.4174 0.1714 0.2156
C18 C 0.3406(7) 0.2371(9) 0.3732(9)
H22 H 0.3151 0.2906 0.3488
H23 H 0.3482 0.2436 0.4367
H24 H 0.3125 0.1822 0.3591
O6 O 0.4390(7) 0.3332(9) 0.2678(9)
loop_
_geom_bond_atom_site_label_1
_geom_bond_atom_site_label_2
_geom_bond_site_symmetry_1
_geom_bond_site_symmetry_2
Mn1 N1 1_555 1_555
N1 C1 1_555 1_555
N2 Mn1 1_555 1_555
N3 Mn1 1_555 1_555
C1 H1 1_555 1_555
C2 C1 1_555 1_555
H2 C2 1_555 1_555
C3 C2 1_555 1_555
H3 C3 1_555 1_555
C4 C3 1_555 1_555
H4 C4 1_555 1_555
C5 N1 1_555 1_555
C6 N3 1_555 1_555
H5 C6 1_555 1_555
H6 C6 1_555 1_555
C7 N2 1_555 1_555
H7 C7 1_555 1_555
C8 C7 1_555 1_555
H8 C8 1_555 1_555
C9 C8 1_555 1_555
H9 C9 1_555 1_555
C10 C9 1_555 1_555
H10 C10 1_555 1_555
C11 N2 1_555 1_555
C12 N3 1_555 1_555
H11 C12 1_555 1_555
H12 C12 1_555 1_555
C13 N3 1_555 1_555
H13 C13 1_555 1_555
H14 C13 1_555 1_555
C14 C13 1_555 1_555
H15 C14 1_555 1_555
H16 C14 1_555 1_555
C15 C14 1_555 1_555
H17 C15 1_555 1_555
H18 C15 1_555 1_555
Cl1 O1 1_555 1_555
O2 Cl1 1_555 1_555
O3 Cl1 1_555 1_555
O4 Cl1 1_555 1_555
O5 C16 1_555 1_555
C16 C17 1_555 1_555
C17 H19 1_555 1_555
H20 C17 1_555 1_555
H21 C17 1_555 1_555
C18 C16 1_555 1_555
H22 C18 1_555 1_555
H23 C18 1_555 1_555
H24 C18 1_555 1_555
Mn1F N1D 1_555 1_555
N1D C1D 1_555 1_555
N1B Mn1 1_555 1_555
N2D Mn1F 1_555 1_555
N2B Mn1 1_555 1_555
N3D Mn1F 1_555 1_555
N3B Mn1 1_555 1_555
C1D H1D 1_555 1_555
C2D C1D 1_555 1_555
H2D C2D 1_555 1_555
C3D C2D 1_555 1_555
H3D C3D 1_555 1_555
C4D C3D 1_555 1_555
H4D C4D 1_555 1_555
C5D N1D 1_555 1_555
C6D N3D 1_555 1_555
H5D C6D 1_555 1_555
H6D C6D 1_555 1_555
C7D N2D 1_555 1_555
H7D C7D 1_555 1_555
C8D C7D 1_555 1_555
H8D C8D 1_555 1_555
C9D C8D 1_555 1_555
H9D C9D 1_555 1_555
C10D C9D 1_555 1_555
H10D C10D 1_555 1_555
C11D N2D 1_555 1_555
C12D N3D 1_555 1_555
H11D C12D 1_555 1_555
H12D C12D 1_555 1_555
C13D N3D 1_555 1_555
H13D C13D 1_555 1_555
H14D C13D 1_555 1_555
C14D C13D 1_555 1_555
H15D C14D 1_555 1_555
H16D C14D 1_555 1_555
C15D C15 1_555 1_555
H17D C15D 1_555 1_555
H18D C15D 1_555 1_555
C4 C5 1_555 1_555
C5 C6 1_555 1_555
C10 C11 1_555 1_555
C11 C12 1_555 1_555
C4D C5D 1_555 1_555
C5D C6D 1_555 1_555
C10D C11D 1_555 1_555
C11D C12D 1_555 1_555
C14D C15D 1_555 1_555

#END
