
#######################################################################
#
#                 Cambridge Crystallographic Data Centre
#                                CCDC 
#
#######################################################################
#
# If this CIF has been generated from an entry in the Cambridge 
# Structural Database, then it will include bibliographic, chemical, 
# crystal, experimental, refinement or atomic coordinate data resulting 
# from the CCDC's data processing and validation procedures.
#
#######################################################################

data_AFELII
_symmetry_cell_setting           monoclinic
_symmetry_space_group_name_H-M   'P 21/c'
_symmetry_Int_Tables_number      14
_space_group_name_Hall           '-P 2ybc'
loop_
_symmetry_equiv_pos_site_id
_symmetry_equiv_pos_as_xyz
1 x,y,z
2 -x,1/2+y,1/2-z
3 -x,-y,-z
4 x,1/2-y,1/2+z
_cell_length_a                   17.551(3)
_cell_length_b                   11.5315(18)
_cell_length_c                   20.371(3)
_cell_angle_alpha                90
_cell_angle_beta                 110.886(3)
_cell_angle_gamma                90
_cell_volume                     3851.97
loop_
_atom_site_label
_atom_site_type_symbol
_atom_site_fract_x
_atom_site_fract_y
_atom_site_fract_z
Eu1 Eu -0.214529(17) 0.50610(2) 0.709503(15)
O1 O -0.3388(3) 0.5548(4) 0.6195(2)
O2 O -0.1881(2) 0.5284(4) 0.6046(2)
O3 O -0.2115(3) 0.7120(4) 0.6987(2)
O4 O -0.2885(3) 0.5872(4) 0.7742(2)
O5 O -0.1125(2) 0.3715(4) 0.7099(2)
O6 O -0.1783(2) 0.3978(4) 0.8159(2)
O7 O -0.2907(3) 0.3301(4) 0.6729(2)
H1 H -0.2569 0.2639 0.6782
H2 H -0.3435 0.3224 0.6380
N1 N -0.5757(3) 0.6685(5) 0.5074(3)
N2 N -0.5667(3) 0.6912(5) 0.4453(3)
N3 N -0.1894(3) 1.0574(5) 0.6404(3)
N4 N -0.2208(4) 1.1100(5) 0.6848(3)
N5 N 0.0740(3) 0.0932(4) 0.7149(3)
N6 N 0.0645(3) 0.1786(4) 0.6656(3)
F1 F -0.2180(3) 0.6353(5) 0.4362(2)
F2 F -0.1622(3) 0.4758(4) 0.4803(2)
F3 F -0.1085(3) 0.6346(4) 0.5278(2)
F4 F -0.3948(3) 0.7970(4) 0.8320(3)
F5 F -0.4294(3) 0.6207(4) 0.7997(2)
F6 F -0.3253(3) 0.6553(4) 0.8915(2)
F7 F -0.0880(3) 0.3910(4) 0.9624(2)
F8 F -0.0630(3) 0.2110(4) 0.9499(2)
F9 F -0.1862(3) 0.2691(4) 0.9247(2)
C1 C -0.1802(4) 0.5809(6) 0.4971(3)
C2 C -0.2295(4) 0.5745(5) 0.5446(3)
C3 C -0.3088(4) 0.6098(5) 0.5199(3)
H3 H -0.3296 0.6433 0.4755
C4 C -0.3611(4) 0.5977(5) 0.5587(3)
C5 C -0.4470(4) 0.6331(5) 0.5264(3)
C6 C -0.5057(4) 0.6329(5) 0.5572(3)
C7 C -0.4888(4) 0.6715(6) 0.4568(4)
H4 H -0.4646 0.6816 0.4234
C8 C -0.6545(4) 0.6885(6) 0.5137(4)
H5 H -0.6970 0.6639 0.4714
H6 H -0.6607 0.7696 0.5211
H7 H -0.6579 0.6451 0.5528
C9 C -0.5005(4) 0.6037(7) 0.6298(4)
H8 H -0.5451 0.5538 0.6278
H9 H -0.5033 0.6736 0.6545
H10 H -0.4499 0.5649 0.6540
C10 C -0.3649(4) 0.6916(6) 0.8261(4)
C11 C -0.3108(4) 0.6889(5) 0.7820(3)
C12 C -0.2912(4) 0.7927(5) 0.7587(3)
H11 H -0.3121 0.8608 0.7702
C13 C -0.2403(4) 0.8003(5) 0.7178(3)
C14 C -0.2221(4) 0.9148(5) 0.6961(3)
C15 C -0.2400(4) 1.0238(5) 0.7189(4)
H12 H -0.2624 1.0337 0.7535
C16 C -0.1897(4) 0.9418(5) 0.6450(3)
C17 C -0.1678(4) 1.1257(6) 0.5896(4)
H13 H -0.1153 1.1019 0.5900
H14 H -0.1662 1.2063 0.6017
H15 H -0.2078 1.1138 0.5436
C18 C -0.1598(5) 0.8660(6) 0.5997(4)
H16 H -0.1060 0.8901 0.6034
H17 H -0.1960 0.8723 0.5517
H18 H -0.1581 0.7869 0.6149
C19 C -0.1146(4) 0.2990(6) 0.9206(4)
C20 C -0.1221(4) 0.3260(5) 0.8452(3)
C21 C -0.0680(4) 0.2747(6) 0.8195(3)
H19 H -0.0306 0.2217 0.8478
C22 C -0.0666(3) 0.2990(5) 0.7517(3)
C23 C 0.0287(4) 0.1294(5) 0.7513(3)
H20 H 0.0228 0.0885 0.7886
C24 C -0.0087(3) 0.2353(5) 0.7273(3)
C25 C 0.0157(4) 0.2646(5) 0.6715(3)
C26 C -0.0016(4) 0.3684(5) 0.6248(3)
H21 H -0.0103 0.3444 0.5775
H22 H 0.0438 0.4207 0.6406
H23 H -0.0496 0.4067 0.6261
C27 C 0.1036(4) 0.1673(6) 0.6144(3)
H24 H 0.1345 0.2361 0.6147
H25 H 0.0628 0.1569 0.5686
H26 H 0.1393 0.1014 0.6259
Eu1A Eu 0.214529(17) 0.00610(2) 0.790497(15)
N5A N -0.0740(3) 0.5932(4) 0.7851(3)
N7 N 0.3592(6) -0.3653(8) 0.7068(5)
C28 C 0.3660(6) -0.2679(9) 0.7041(5)
C29 C 0.3761(6) -0.1482(8) 0.6977(7)
H27 H 0.3246 -0.1098 0.6873
H28 H 0.3965 -0.1341 0.6605
H29 H 0.4142 -0.1187 0.7411
N8 N 0.3728(7) -0.0187(10) 0.4791(6)
C30 C 0.4021(8) -0.0089(13) 0.4375(8)
C31 C 0.4422(7) 0.0011(17) 0.3837(7)
H30 H 0.5004 0.0004 0.4069
H31 H 0.4259 0.0724 0.3582
H32 H 0.4260 -0.0631 0.3517
loop_
_geom_bond_atom_site_label_1
_geom_bond_atom_site_label_2
_geom_bond_site_symmetry_1
_geom_bond_site_symmetry_2
Eu1 O1 1_555 1_555
O1 C4 1_555 1_555
O2 Eu1 1_555 1_555
O3 Eu1 1_555 1_555
O4 Eu1 1_555 1_555
O5 Eu1 1_555 1_555
O6 Eu1 1_555 1_555
O7 Eu1 1_555 1_555
H1 O7 1_555 1_555
H2 O7 1_555 1_555
N1 N2 1_555 1_555
N2 C7 1_555 1_555
N3 N4 1_555 1_555
N4 C15 1_555 1_555
N5 N6 1_555 1_555
N6 C25 1_555 1_555
F1 C1 1_555 1_555
F2 C1 1_555 1_555
F3 C1 1_555 1_555
F4 C10 1_555 1_555
F5 C10 1_555 1_555
F6 C10 1_555 1_555
F7 C19 1_555 1_555
F8 C19 1_555 1_555
F9 C19 1_555 1_555
C1 C2 1_555 1_555
C2 O2 1_555 1_555
C3 C2 1_555 1_555
H3 C3 1_555 1_555
C4 C3 1_555 1_555
C5 C4 1_555 1_555
C6 N1 1_555 1_555
C7 C5 1_555 1_555
H4 C7 1_555 1_555
C8 N1 1_555 1_555
H5 C8 1_555 1_555
H6 C8 1_555 1_555
H7 C8 1_555 1_555
C9 C6 1_555 1_555
H8 C9 1_555 1_555
H9 C9 1_555 1_555
H10 C9 1_555 1_555
C10 C11 1_555 1_555
C11 O4 1_555 1_555
C12 C11 1_555 1_555
H11 C12 1_555 1_555
C13 O3 1_555 1_555
C14 C13 1_555 1_555
C15 C14 1_555 1_555
H12 C15 1_555 1_555
C16 N3 1_555 1_555
C17 N3 1_555 1_555
H13 C17 1_555 1_555
H14 C17 1_555 1_555
H15 C17 1_555 1_555
C18 C16 1_555 1_555
H16 C18 1_555 1_555
H17 C18 1_555 1_555
H18 C18 1_555 1_555
C19 C20 1_555 1_555
C20 O6 1_555 1_555
C21 C20 1_555 1_555
H19 C21 1_555 1_555
C22 O5 1_555 1_555
C23 N5 1_555 1_555
H20 C23 1_555 1_555
C24 C22 1_555 1_555
C25 C24 1_555 1_555
C26 C25 1_555 1_555
H21 C26 1_555 1_555
H22 C26 1_555 1_555
H23 C26 1_555 1_555
C27 N6 1_555 1_555
H24 C27 1_555 1_555
H25 C27 1_555 1_555
H26 C27 1_555 1_555
N7 C28 1_555 1_555
C28 C29 1_555 1_555
C29 H27 1_555 1_555
H28 C29 1_555 1_555
H29 C29 1_555 1_555
N8 C30 1_555 1_555
C30 C31 1_555 1_555
C31 H30 1_555 1_555
H31 C31 1_555 1_555
H32 C31 1_555 1_555
Eu1A N5 1_555 1_555
N5A Eu1 1_555 1_555
C5 C6 1_555 1_555
C12 C13 1_555 1_555
C14 C16 1_555 1_555
C21 C22 1_555 1_555
C23 C24 1_555 1_555

#END
