
#######################################################################
#
#                 Cambridge Crystallographic Data Centre
#                                CCDC 
#
#######################################################################
#
# If this CIF has been generated from an entry in the Cambridge 
# Structural Database, then it will include bibliographic, chemical, 
# crystal, experimental, refinement or atomic coordinate data resulting 
# from the CCDC's data processing and validation procedures.
#
#######################################################################

data_AFENUU
_symmetry_cell_setting           monoclinic
_symmetry_space_group_name_H-M   'P 21/n'
_symmetry_Int_Tables_number      14
_space_group_name_Hall           '-P 2yn'
loop_
_symmetry_equiv_pos_site_id
_symmetry_equiv_pos_as_xyz
1 x,y,z
2 1/2+x,1/2-y,1/2+z
3 -x,-y,-z
4 1/2-x,1/2+y,1/2-z
_cell_length_a                   10.2480(2)
_cell_length_b                   21.2640(4)
_cell_length_c                   30.5870(7)
_cell_angle_alpha                90
_cell_angle_beta                 92.3710(13)
_cell_angle_gamma                90
_cell_volume                     6659.61
loop_
_atom_site_label
_atom_site_type_symbol
_atom_site_fract_x
_atom_site_fract_y
_atom_site_fract_z
Zn1 Zn 1.01030(5) 0.20928(2) 0.269066(15)
N1 N 0.9016(4) -0.03129(17) 0.05002(11)
N2 N 0.8905(4) 0.01579(17) 0.08192(11)
N3 N 0.5925(3) 0.00608(17) 0.04932(11)
N4 N 0.5992(3) -0.05159(17) 0.07229(11)
C1 C 0.8011(4) -0.03327(19) 0.02337(13)
C2 C 0.6923(4) 0.0146(2) 0.02566(14)
C3 C 0.7973(4) -0.0811(2) -0.01168(14)
C4 C 0.8914(5) -0.1285(2) -0.01221(18)
H1 H 0.9562 -0.1316 0.0108
C5 C 0.8897(5) -0.1712(2) -0.04684(19)
H2 H 0.9549 -0.2029 -0.0476
C6 C 0.7946(5) -0.1679(2) -0.07984(17)
H3 H 0.7938 -0.1973 -0.1032
C7 C 0.7019(5) -0.1223(2) -0.07873(15)
H4 H 0.6352 -0.1204 -0.1012
C8 C 0.7040(4) -0.0788(2) -0.04512(14)
H5 H 0.6395 -0.0467 -0.0452
C9 C 0.7003(4) 0.0727(2) -0.00028(13)
C10 C 0.6117(4) 0.1226(2) 0.00498(14)
H6 H 0.5471 0.1197 0.0263
C11 C 0.6190(5) 0.1756(2) -0.02082(15)
H7 H 0.5585 0.2089 -0.0174
C12 C 0.7136(4) 0.1805(2) -0.05154(14)
H8 H 0.7179 0.2172 -0.0692
C13 C 0.8009(4) 0.1328(2) -0.05655(14)
H9 H 0.8657 0.1363 -0.0778
C14 C 0.7956(4) 0.0792(2) -0.03089(13)
H10 H 0.8578 0.0466 -0.0343
C15 C 0.9890(4) 0.0172(2) 0.10840(14)
H11 H 1.0600 -0.0107 0.1046
C16 C 0.9931(4) 0.0623(2) 0.14522(13)
C17 C 1.1054(4) 0.0679(2) 0.17200(13)
H12 H 1.1808 0.0436 0.1664
C18 C 1.1059(4) 0.1088(2) 0.20667(14)
H13 H 1.1842 0.1134 0.2241
N5 N 1.0011(3) 0.14284(16) 0.21719(11)
C19 C 0.8916(4) 0.1361(2) 0.19139(14)
H14 H 0.8161 0.1594 0.1983
C20 C 0.8848(4) 0.0974(2) 0.15601(14)
H15 H 0.8060 0.0944 0.1387
C21 C 0.5100(4) -0.0551(2) 0.10017(13)
H16 H 0.4497 -0.0215 0.1030
C22 C 0.5011(4) -0.1112(2) 0.12790(13)
C23 C 0.4018(4) -0.1175(2) 0.15633(14)
H17 H 0.3366 -0.0858 0.1577
C24 C 0.3963(4) -0.1697(2) 0.18294(14)
H18 H 0.3263 -0.1730 0.2022
N6 N 0.4844(3) -0.21549(17) 0.18286(11)
C25 C 0.5816(4) -0.2097(2) 0.15442(14)
H19 H 0.6448 -0.2422 0.1534
C26 C 0.5930(4) -0.1591(2) 0.12706(14)
H20 H 0.6631 -0.1569 0.1077
N7 N 0.7482(4) 0.52066(17) 0.11453(11)
N8 N 0.8002(4) 0.46217(18) 0.12908(12)
N9 N 1.0038(3) 0.48912(16) 0.05686(11)
N10 N 1.0543(4) 0.53662(17) 0.08502(11)
C27 C 0.7930(4) 0.5356(2) 0.07730(13)
C28 C 0.8775(4) 0.4905(2) 0.05293(13)
C29 C 0.8106(4) 0.4430(2) 0.02480(13)
C30 C 0.6878(4) 0.4555(2) 0.00556(14)
H21 H 0.6455 0.4943 0.0112
C31 C 0.6273(5) 0.4114(2) -0.02175(15)
H22 H 0.5436 0.4204 -0.0348
C32 C 0.6859(5) 0.3552(2) -0.03029(15)
H23 H 0.6436 0.3257 -0.0494
C33 C 0.8068(5) 0.3416(2) -0.01102(16)
H24 H 0.8475 0.3025 -0.0166
C34 C 0.8692(4) 0.3853(2) 0.01664(15)
H25 H 0.9521 0.3756 0.0300
C35 C 0.7588(4) 0.5969(2) 0.05749(14)
C36 C 0.8052(5) 0.6120(2) 0.01657(16)
H26 H 0.8564 0.5825 0.0015
C37 C 0.7767(5) 0.6703(3) -0.00220(18)
H27 H 0.8088 0.6804 -0.0300
C38 C 0.7016(5) 0.7136(2) 0.01943(19)
H28 H 0.6839 0.7538 0.0070
C39 C 0.6528(5) 0.6975(2) 0.05947(16)
H29 H 0.5993 0.7265 0.0742
C40 C 0.6812(4) 0.6396(2) 0.07834(15)
H30 H 0.6470 0.6292 0.1058
C41 C 0.7462(5) 0.4397(2) 0.16201(15)
H31 H 0.6726 0.4601 0.1735
C42 C 0.7982(5) 0.3817(2) 0.18236(14)
C43 C 0.9148(5) 0.3559(2) 0.17032(15)
H32 H 0.9609 0.3735 0.1469
C44 C 0.9631(5) 0.3045(2) 0.19267(15)
H33 H 1.0426 0.2868 0.1836
N11 N 0.9054(4) 0.27774(16) 0.22650(11)
C45 C 0.7903(4) 0.3018(2) 0.23742(14)
H34 H 0.7456 0.2828 0.2606
C46 C 0.7339(5) 0.3531(2) 0.21631(15)
H35 H 0.6520 0.3688 0.2249
C47 C 1.1697(4) 0.5241(2) 0.09934(13)
H36 H 1.2091 0.4857 0.0910
C48 C 1.2434(4) 0.5673(2) 0.12834(13)
C49 C 1.2034(4) 0.6291(2) 0.13579(13)
H37 H 1.1267 0.6449 0.1211
C50 C 1.2743(4) 0.6669(2) 0.16406(13)
H38 H 1.2446 0.7086 0.1686
N12 N 1.3856(3) 0.64753(16) 0.18608(10)
C51 C 1.4247(4) 0.5887(2) 0.17866(14)
H39 H 1.5018 0.5740 0.1937
C52 C 1.3585(4) 0.5478(2) 0.15005(14)
H40 H 1.3916 0.5068 0.1453
N13 N 0.8227(4) 0.17187(17) 0.29112(11)
C57 C 0.7277(5) 0.1543(2) 0.30381(14)
C58 C 0.6048(5) 0.1335(3) 0.32117(17)
H51 H 0.6162 0.0917 0.3342
H52 H 0.5377 0.1318 0.2974
H53 H 0.5779 0.1632 0.3436
N14 N 1.2034(4) 0.23915(18) 0.24385(11)
C59 C 1.2993(5) 0.2452(3) 0.22874(17)
C60 C 1.4271(6) 0.2529(6) 0.2094(3)
H54 H 1.4779 0.2847 0.2259
H55 H 1.4146 0.2663 0.1789
H56 H 1.4740 0.2127 0.2106
N6C N 1.0156(3) 0.28451(17) 0.31714(11)
N12C N 1.1144(3) 0.14753(16) 0.31392(10)
Zn1C Zn 0.48970(5) -0.29072(2) 0.230934(15)
Zn1C_2 Zn 1.48970(5) 0.70928(2) 0.230934(15)
Cl1 Cl 0.49830(13) 0.31712(7) 0.33631(5)
O1 O 0.4158(8) 0.2749(5) 0.3591(3)
O2 O 0.5948(8) 0.2842(5) 0.3167(3)
O3 O 0.5636(7) 0.3548(4) 0.3715(2)
O4 O 0.4197(10) 0.3529(6) 0.3091(4)
Cl2 Cl 0.4952(3) 0.0811(2) 0.20494(14)
O9 O 0.4031(4) 0.1030(3) 0.23856(18)
O10 O 0.4324(4) 0.0342(2) 0.18238(14)
O11 O 0.5248(16) 0.1306(6) 0.1731(3)
O12 O 0.6088(6) 0.0708(6) 0.2275(3)
O14 O 0.5663(12) 0.3019(5) 0.1138(3)
C53 C 0.6330(14) 0.2326(7) 0.1137(5)
H41 H 0.6472 0.2182 0.1443
H42 H 0.5720 0.2028 0.0987
C54 C 0.7583(16) 0.2312(6) 0.0920(4)
H43 H 0.7549 0.2602 0.0670
H44 H 0.7750 0.1884 0.0816
H45 H 0.8287 0.2439 0.1128
C55 C 0.5321(10) 0.3327(6) 0.0799(3)
H46 H 0.4737 0.3056 0.0615
H47 H 0.6112 0.3407 0.0633
C56 C 0.4636(8) 0.3950(5) 0.0860(3)
H48 H 0.3741 0.3874 0.0948
H49 H 0.4615 0.4185 0.0584
H50 H 0.5108 0.4194 0.1088
N15 N 0.2430(10) 0.3868(4) 0.1764(3)
C61 C 0.2636(15) 0.4153(5) 0.2069(4)
C62 C 0.2669(10) 0.4512(4) 0.2441(3)
H57 H 0.3245 0.4874 0.2403
H58 H 0.3001 0.4258 0.2689
H59 H 0.1787 0.4660 0.2497
N16 N 0.5865(5) 0.4942(2) 0.24866(15)
C63 C 0.6558(6) 0.4770(3) 0.27666(19)
C64 C 0.7430(5) 0.4546(2) 0.31133(16)
H60 H 0.7008 0.4205 0.3270
H61 H 0.7642 0.4891 0.3316
H62 H 0.8234 0.4389 0.2989
O5? O 0.4251(16) 0.2777(7) 0.3607(5)
O6? O 0.4567(12) 0.3072(7) 0.2885(3)
O7? O 0.6308(8) 0.3044(5) 0.3377(4)
O8? O 0.4689(9) 0.3824(3) 0.3432(3)
Cl3? Cl 0.4842(5) 0.0516(3) 0.22819(19)
O13? O 0.5271(10) 0.0007(6) 0.2491(4)
loop_
_geom_bond_atom_site_label_1
_geom_bond_atom_site_label_2
_geom_bond_site_symmetry_1
_geom_bond_site_symmetry_2
Zn1 N5 1_555 1_555
N1 N2 1_555 1_555
N2 C15 1_555 1_555
N3 N4 1_555 1_555
N4 C21 1_555 1_555
C1 N1 1_555 1_555
C2 N3 1_555 1_555
C3 C1 1_555 1_555
C4 C3 1_555 1_555
H1 C4 1_555 1_555
C5 C4 1_555 1_555
H2 C5 1_555 1_555
C6 C5 1_555 1_555
H3 C6 1_555 1_555
C7 C6 1_555 1_555
H4 C7 1_555 1_555
C8 C3 1_555 1_555
H5 C8 1_555 1_555
C9 C2 1_555 1_555
C10 C9 1_555 1_555
H6 C10 1_555 1_555
C11 C10 1_555 1_555
H7 C11 1_555 1_555
C12 C11 1_555 1_555
H8 C12 1_555 1_555
C13 C12 1_555 1_555
H9 C13 1_555 1_555
C14 C9 1_555 1_555
H10 C14 1_555 1_555
C15 H11 1_555 1_555
C16 C15 1_555 1_555
C17 C16 1_555 1_555
H12 C17 1_555 1_555
C18 C17 1_555 1_555
H13 C18 1_555 1_555
N5 C18 1_555 1_555
C19 N5 1_555 1_555
H14 C19 1_555 1_555
C20 C16 1_555 1_555
H15 C20 1_555 1_555
C21 H16 1_555 1_555
C22 C21 1_555 1_555
C23 C22 1_555 1_555
H17 C23 1_555 1_555
C24 C23 1_555 1_555
H18 C24 1_555 1_555
N6 C24 1_555 1_555
C25 N6 1_555 1_555
H19 C25 1_555 1_555
C26 C22 1_555 1_555
H20 C26 1_555 1_555
N7 N8 1_555 1_555
N8 C41 1_555 1_555
N9 N10 1_555 1_555
N10 C47 1_555 1_555
C27 N7 1_555 1_555
C28 N9 1_555 1_555
C29 C28 1_555 1_555
C30 C29 1_555 1_555
H21 C30 1_555 1_555
C31 C30 1_555 1_555
H22 C31 1_555 1_555
C32 C31 1_555 1_555
H23 C32 1_555 1_555
C33 C32 1_555 1_555
H24 C33 1_555 1_555
C34 C29 1_555 1_555
H25 C34 1_555 1_555
C35 C27 1_555 1_555
C36 C35 1_555 1_555
H26 C36 1_555 1_555
C37 C36 1_555 1_555
H27 C37 1_555 1_555
C38 C37 1_555 1_555
H28 C38 1_555 1_555
C39 C38 1_555 1_555
H29 C39 1_555 1_555
C40 C35 1_555 1_555
H30 C40 1_555 1_555
C41 H31 1_555 1_555
C42 C41 1_555 1_555
C43 C42 1_555 1_555
H32 C43 1_555 1_555
C44 C43 1_555 1_555
H33 C44 1_555 1_555
N11 Zn1 1_555 1_555
C45 N11 1_555 1_555
H34 C45 1_555 1_555
C46 C42 1_555 1_555
H35 C46 1_555 1_555
C47 H36 1_555 1_555
C48 C47 1_555 1_555
C49 C48 1_555 1_555
H37 C49 1_555 1_555
C50 C49 1_555 1_555
H38 C50 1_555 1_555
N12 C50 1_555 1_555
C51 N12 1_555 1_555
H39 C51 1_555 1_555
C52 C48 1_555 1_555
H40 C52 1_555 1_555
Cl1 O1 1_555 1_555
O2 Cl1 1_555 1_555
O3 Cl1 1_555 1_555
O4 Cl1 1_555 1_555
Cl2 O9 1_555 1_555
O10 Cl2 1_555 1_555
O11 Cl2 1_555 1_555
O12 Cl2 1_555 1_555
O14 C53 1_555 1_555
C53 H41 1_555 1_555
H42 C53 1_555 1_555
C54 C53 1_555 1_555
H43 C54 1_555 1_555
H44 C54 1_555 1_555
H45 C54 1_555 1_555
C55 O14 1_555 1_555
H46 C55 1_555 1_555
H47 C55 1_555 1_555
C56 C55 1_555 1_555
H48 C56 1_555 1_555
H49 C56 1_555 1_555
H50 C56 1_555 1_555
N13 Zn1 1_555 1_555
C57 N13 1_555 1_555
C58 C57 1_555 1_555
H51 C58 1_555 1_555
H52 C58 1_555 1_555
H53 C58 1_555 1_555
N14 Zn1 1_555 1_555
C59 N14 1_555 1_555
C60 C59 1_555 1_555
H54 C60 1_555 1_555
H55 C60 1_555 1_555
H56 C60 1_555 1_555
N15 C61 1_555 1_555
C61 C62 1_555 1_555
C62 H57 1_555 1_555
H58 C62 1_555 1_555
H59 C62 1_555 1_555
N16 C63 1_555 1_555
C63 C64 1_555 1_555
C64 H60 1_555 1_555
H61 C64 1_555 1_555
H62 C64 1_555 1_555
N6C Zn1 1_555 1_555
N12C Zn1 1_555 1_555
Zn1C N6 1_555 1_555
Zn1C_2 N12 1_555 1_555
C1 C2 1_555 1_555
C7 C8 1_555 1_555
C13 C14 1_555 1_555
C19 C20 1_555 1_555
C25 C26 1_555 1_555
C27 C28 1_555 1_555
C33 C34 1_555 1_555
C39 C40 1_555 1_555
C44 N11 1_555 1_555
C45 C46 1_555 1_555
C51 C52 1_555 1_555

#END
