
#######################################################################
#
#                 Cambridge Crystallographic Data Centre
#                                CCDC 
#
#######################################################################
#
# If this CIF has been generated from an entry in the Cambridge 
# Structural Database, then it will include bibliographic, chemical, 
# crystal, experimental, refinement or atomic coordinate data resulting 
# from the CCDC's data processing and validation procedures.
#
#######################################################################

data_AFENOQ01
_symmetry_cell_setting           orthorhombic
_symmetry_space_group_name_H-M   'P b c a'
_symmetry_Int_Tables_number      61
_space_group_name_Hall           '-P 2ac 2ab'
loop_
_symmetry_equiv_pos_site_id
_symmetry_equiv_pos_as_xyz
1 x,y,z
2 1/2-x,-y,1/2+z
3 -x,1/2+y,1/2-z
4 1/2+x,1/2-y,-z
5 -x,-y,-z
6 1/2+x,y,1/2-z
7 x,1/2-y,1/2+z
8 1/2-x,1/2+y,z
_cell_length_a                   10.5115(3)
_cell_length_b                   13.5686(4)
_cell_length_c                   18.4061(5)
_cell_angle_alpha                90
_cell_angle_beta                 90
_cell_angle_gamma                90
_cell_volume                     2625.19
loop_
_atom_site_label
_atom_site_type_symbol
_atom_site_fract_x
_atom_site_fract_y
_atom_site_fract_z
Co1 Co 0.25603(4) 0.81419(3) 0.82392(2)
O1 O 0.1519(2) 0.26443(15) 0.39846(11)
O2 O 0.2868(2) 0.37654(16) 0.35790(12)
O3 O -0.0231(2) 0.43619(17) 0.70175(12)
O4 O -0.1071(2) 0.34112(16) 0.61642(12)
O5 O 0.3535(2) 0.94147(16) 0.81152(12)
H1 H 0.3241 0.9967 0.8255
H2 H 0.3922 0.9412 0.7710
N1 N 0.2484(3) 0.7714(2) 0.72010(14)
N2 N 0.2845(3) 0.6954(2) 0.61739(14)
C1 C 0.2092(3) 0.3472(2) 0.40403(16)
C2 C 0.1851(3) 0.4067(2) 0.47154(16)
C3 C 0.0909(3) 0.3802(2) 0.52059(16)
H3 H 0.0376 0.3273 0.5102
C4 C 0.0753(3) 0.4322(2) 0.58510(16)
C5 C -0.0240(3) 0.4022(2) 0.63931(16)
C6 C 0.1528(3) 0.5134(2) 0.59916(16)
H4 H 0.1426 0.5486 0.6421
C7 C 0.2610(3) 0.4880(2) 0.48629(16)
H5 H 0.3235 0.5065 0.4532
C8 C 0.2449(3) 0.5421(2) 0.54945(16)
C9 C 0.3301(4) 0.6310(3) 0.5617(2)
H6 H 0.4147 0.6083 0.5746
H7 H 0.3370 0.6677 0.5166
C10 C 0.1783(4) 0.7588(3) 0.6061(2)
H8 H 0.1326 0.7659 0.5631
C11 C 0.1566(3) 0.8051(3) 0.6671(2)
H9 H 0.0932 0.8516 0.6751
C12 C 0.3179(3) 0.7082(2) 0.68595(19)
C13 C 0.4240(4) 0.6541(3) 0.7204(2)
H10 H 0.4421 0.6825 0.7670
H11 H 0.4981 0.6584 0.6901
H12 H 0.4006 0.5862 0.7264
Co1A Co 0.24397(4) 0.18581(3) 0.32392(2)
Co1B Co -0.25603(4) 0.31419(3) 0.67608(2)
O1A O 0.3481(2) 0.73557(15) 0.89846(11)
O4B O 0.1071(2) 0.84112(16) 0.88358(12)
loop_
_geom_bond_atom_site_label_1
_geom_bond_atom_site_label_2
_geom_bond_site_symmetry_1
_geom_bond_site_symmetry_2
Co1 O5 1_555 1_555
O1 C1 1_555 1_555
O2 C1 1_555 1_555
O3 C5 1_555 1_555
O4 C5 1_555 1_555
O5 H1 1_555 1_555
H2 O5 1_555 1_555
N1 Co1 1_555 1_555
N2 C9 1_555 1_555
C1 C2 1_555 1_555
C2 C3 1_555 1_555
C3 H3 1_555 1_555
C4 C3 1_555 1_555
C5 C4 1_555 1_555
C6 C4 1_555 1_555
H4 C6 1_555 1_555
C7 C2 1_555 1_555
H5 C7 1_555 1_555
C8 C6 1_555 1_555
C9 C8 1_555 1_555
H6 C9 1_555 1_555
H7 C9 1_555 1_555
C10 N2 1_555 1_555
H8 C10 1_555 1_555
C11 N1 1_555 1_555
H9 C11 1_555 1_555
C12 N1 1_555 1_555
C13 C12 1_555 1_555
H10 C13 1_555 1_555
H11 C13 1_555 1_555
H12 C13 1_555 1_555
Co1A O1 1_555 1_555
Co1B O4 1_555 1_555
O1A Co1 1_555 1_555
O4B Co1 1_555 1_555
N2 C12 1_555 1_555
C7 C8 1_555 1_555
C10 C11 1_555 1_555

#END
