
#######################################################################
#
#                 Cambridge Crystallographic Data Centre
#                                CCDC 
#
#######################################################################
#
# If this CIF has been generated from an entry in the Cambridge 
# Structural Database, then it will include bibliographic, chemical, 
# crystal, experimental, refinement or atomic coordinate data resulting 
# from the CCDC's data processing and validation procedures.
#
#######################################################################

data_AFENUW
_symmetry_cell_setting           monoclinic
_symmetry_space_group_name_H-M   'P 21/c'
_symmetry_Int_Tables_number      14
_space_group_name_Hall           '-P 2ybc'
loop_
_symmetry_equiv_pos_site_id
_symmetry_equiv_pos_as_xyz
1 x,y,z
2 -x,1/2+y,1/2-z
3 -x,-y,-z
4 x,1/2-y,1/2+z
_cell_length_a                   12.5340(12)
_cell_length_b                   15.3220(15)
_cell_length_c                   15.4480(11)
_cell_angle_alpha                90
_cell_angle_beta                 127.905(3)
_cell_angle_gamma                90
_cell_volume                     2340.84
loop_
_atom_site_label
_atom_site_type_symbol
_atom_site_fract_x
_atom_site_fract_y
_atom_site_fract_z
Cd1 Cd 0.75132(4) 0.15694(3) 0.60275(3)
N1 N 0.7662(5) 0.1365(3) 0.7558(4)
N2 N 0.7288(5) 0.2878(3) 0.6526(5)
N3 N 0.8332(5) 0.2015(3) 0.9160(4)
H1 H 0.8538 0.2397 0.9649
N4 N 0.2086(4) 0.5178(3) -0.0840(4)
N5 N 0.2201(4) 0.3747(3) -0.0393(4)
O1 O 0.6231(4) 0.2148(2) 0.4252(3)
O2 O 0.5027(4) 0.1752(2) 0.4773(3)
O3 O 0.0403(3) 0.3188(2) 0.2693(3)
O4 O -0.0829(3) 0.3050(2) 0.0895(3)
C1 C 0.2725(5) 0.2886(3) 0.1155(5)
C2 C 0.3893(6) 0.2574(4) 0.2148(5)
H2 H 0.4670 0.2463 0.2215
C3 C 0.3886(6) 0.2431(4) 0.3030(5)
C4 C 0.2716(5) 0.2583(3) 0.2933(4)
H3 H 0.2715 0.2489 0.3528
C5 C 0.1558(6) 0.2876(4) 0.1942(5)
C6 C 0.1559(6) 0.3027(3) 0.1060(5)
H4 H 0.0776 0.3224 0.0400
C7 C 0.2736(5) 0.2925(3) 0.0194(4)
H5 H 0.3656 0.2852 0.0447
H6 H 0.2199 0.2448 -0.0302
C8 C 0.2927(5) 0.4532(3) -0.0068(4)
C9 C 0.0830(5) 0.4788(3) -0.1650(4)
H7 H 0.0078 0.5065 -0.2259
C10 C 0.0923(5) 0.3884(3) -0.1365(4)
H8 H 0.0245 0.3468 -0.1762
C11 C 0.4369(5) 0.4678(3) 0.0957(4)
H9 H 0.4700 0.4157 0.1394
H10 H 0.4387 0.5151 0.1374
H11 H 0.4932 0.4819 0.0751
C12 C 0.5147(6) 0.2084(3) 0.4106(5)
C13 C 0.0297(5) 0.3058(3) 0.1848(5)
C14 C 0.7945(6) 0.0771(4) 0.8278(5)
C15 C 0.7843(6) -0.0124(4) 0.8099(5)
H12 H 0.7568 -0.0341 0.7428
C16 C 0.8150(6) -0.0696(4) 0.8923(5)
H13 H 0.8082 -0.1295 0.8804
C17 C 0.8560(6) -0.0371(4) 0.9926(5)
H14 H 0.8766 -0.0754 1.0477
C18 C 0.8663(6) 0.0524(4) 1.0105(5)
H15 H 0.8937 0.0741 1.0775
C19 C 0.8355(5) 0.1096(3) 0.9281(5)
C20 C 0.7903(6) 0.2192(3) 0.8080(5)
C21 C 0.7582(6) 0.2970(4) 0.7524(6)
C22 C 0.6889(7) 0.3600(4) 0.5843(6)
H16 H 0.6679 0.3530 0.5156
C23 C 0.6798(6) 0.4414(5) 0.6165(6)
H17 H 0.6520 0.4890 0.5699
C24 C 0.7135(6) 0.4516(4) 0.7214(6)
H18 H 0.7090 0.5065 0.7448
C25 C 0.7537(6) 0.3791(4) 0.7904(6)
H19 H 0.7770 0.3853 0.8600
Cd1A Cd 0.24868(4) 0.65694(3) -0.10275(3)
Cd1C Cd -0.24868(4) 0.34306(3) 0.10275(3)
N4A N 0.7914(4) 0.0178(3) 0.5840(4)
O4C O 0.9171(3) 0.1950(2) 0.5895(3)
loop_
_geom_bond_atom_site_label_1
_geom_bond_atom_site_label_2
_geom_bond_site_symmetry_1
_geom_bond_site_symmetry_2
Cd1 N1 1_555 1_555
N1 C14 1_555 1_555
N2 Cd1 1_555 1_555
N3 H1 1_555 1_555
N4 C8 1_555 1_555
N5 C7 1_555 1_555
O1 Cd1 1_555 1_555
O2 Cd1 1_555 1_555
O3 C13 1_555 1_555
O4 C13 1_555 1_555
C1 C2 1_555 1_555
C2 H2 1_555 1_555
C3 C2 1_555 1_555
C4 C3 1_555 1_555
H3 C4 1_555 1_555
C5 C4 1_555 1_555
C6 C1 1_555 1_555
H4 C6 1_555 1_555
C7 C1 1_555 1_555
H5 C7 1_555 1_555
H6 C7 1_555 1_555
C8 N5 1_555 1_555
C9 N4 1_555 1_555
H7 C9 1_555 1_555
C10 N5 1_555 1_555
H8 C10 1_555 1_555
C11 C8 1_555 1_555
H9 C11 1_555 1_555
H10 C11 1_555 1_555
H11 C11 1_555 1_555
C12 O1 1_555 1_555
C13 C5 1_555 1_555
C14 C15 1_555 1_555
C15 H12 1_555 1_555
C16 C15 1_555 1_555
H13 C16 1_555 1_555
C17 C16 1_555 1_555
H14 C17 1_555 1_555
C18 C17 1_555 1_555
H15 C18 1_555 1_555
C19 N3 1_555 1_555
C20 N1 1_555 1_555
C21 N2 1_555 1_555
C22 N2 1_555 1_555
H16 C22 1_555 1_555
C23 C22 1_555 1_555
H17 C23 1_555 1_555
C24 C23 1_555 1_555
H18 C24 1_555 1_555
C25 C21 1_555 1_555
H19 C25 1_555 1_555
Cd1A N4 1_555 1_555
Cd1C O4 1_555 1_555
N4A Cd1 1_555 1_555
O4C Cd1 1_555 1_555
N3 C20 1_555 1_555
O2 C12 1_555 1_555
C3 C12 1_555 1_555
C5 C6 1_555 1_555
C9 C10 1_555 1_555
C14 C19 1_555 1_555
C18 C19 1_555 1_555
C20 C21 1_555 1_555
C24 C25 1_555 1_555

#END
