
#######################################################################
#
#                 Cambridge Crystallographic Data Centre
#                                CCDC 
#
#######################################################################
#
# If this CIF has been generated from an entry in the Cambridge 
# Structural Database, then it will include bibliographic, chemical, 
# crystal, experimental, refinement or atomic coordinate data resulting 
# from the CCDC's data processing and validation procedures.
#
#######################################################################

data_AFENOO
_symmetry_cell_setting           triclinic
_symmetry_space_group_name_H-M   'P -1'
_symmetry_Int_Tables_number      2
_space_group_name_Hall           '-P 1'
loop_
_symmetry_equiv_pos_site_id
_symmetry_equiv_pos_as_xyz
1 x,y,z
2 -x,-y,-z
_cell_length_a                   12.6820(3)
_cell_length_b                   12.8320(3)
_cell_length_c                   21.3680(5)
_cell_angle_alpha                75.0060(9)
_cell_angle_beta                 73.0780(10)
_cell_angle_gamma                64.3650(14)
_cell_volume                     2963.55
loop_
_atom_site_label
_atom_site_type_symbol
_atom_site_fract_x
_atom_site_fract_y
_atom_site_fract_z
Ag1 Ag 0.808847(19) -0.051469(19) 0.204435(11)
N1 N 1.1775(2) -0.1333(2) 0.50726(11)
N2 N 1.1088(2) -0.1432(2) 0.46970(12)
N3 N 1.3440(2) -0.3830(2) 0.45337(12)
N4 N 1.3945(2) -0.3025(2) 0.41414(12)
C1 C 1.2575(2) -0.2327(2) 0.52548(13)
C2 C 1.2758(2) -0.3464(2) 0.50757(13)
C3 C 1.3366(2) -0.2373(2) 0.56626(13)
C4 C 1.3130(2) -0.1406(2) 0.59411(13)
H1 H 1.2444 -0.0713 0.5880
C5 C 1.3893(3) -0.1453(2) 0.63051(14)
H2 H 1.3726 -0.0789 0.6492
C6 C 1.4898(3) -0.2457(3) 0.64011(14)
H3 H 1.5418 -0.2482 0.6652
C7 C 1.5136(3) -0.3422(3) 0.61293(15)
H4 H 1.5823 -0.4114 0.6193
C8 C 1.4371(2) -0.3382(2) 0.57607(14)
H5 H 1.4539 -0.4049 0.5576
C9 C 1.2189(2) -0.4211(2) 0.55633(13)
C10 C 1.2700(3) -0.5418(2) 0.55860(14)
H6 H 1.3416 -0.5765 0.5281
C11 C 1.2169(3) -0.6121(3) 0.60524(15)
H7 H 1.2522 -0.6945 0.6066
C12 C 1.1124(3) -0.5619(3) 0.64983(15)
H8 H 1.0770 -0.6103 0.6821
C13 C 1.0594(3) -0.4419(3) 0.64763(15)
H9 H 0.9869 -0.4078 0.6776
C14 C 1.1126(2) -0.3711(2) 0.60142(14)
H10 H 1.0770 -0.2887 0.6003
C15 C 1.0849(3) -0.0589(2) 0.42208(14)
H11 H 1.1121 0.0021 0.4158
C16 C 1.0155(2) -0.0557(2) 0.37683(14)
C17 C 0.9563(2) -0.1310(2) 0.38964(14)
H12 H 0.9576 -0.1855 0.4294
C18 C 0.8960(3) -0.1255(2) 0.34385(14)
H13 H 0.8563 -0.1775 0.3531
N5 N 0.8905(2) -0.0503(2) 0.28686(11)
C19 C 0.9453(3) 0.0230(3) 0.27555(15)
H14 H 0.9413 0.0775 0.2357
C20 C 1.0080(3) 0.0240(3) 0.31884(15)
H15 H 1.0451 0.0783 0.3088
C21 C 1.4691(2) -0.3406(2) 0.36239(14)
H16 H 1.4827 -0.4143 0.3530
C22 C 1.5340(3) -0.2699(2) 0.31749(13)
C23 C 1.4995(3) -0.1532(3) 0.32229(15)
H17 H 1.4278 -0.1147 0.3516
C24 C 1.5703(3) -0.0941(3) 0.28407(15)
H18 H 1.5449 -0.0139 0.2870
N6 N 1.6740(2) -0.1444(2) 0.24260(12)
C25 C 1.7035(3) -0.2551(3) 0.23601(14)
H19 H 1.7740 -0.2905 0.2051
C26 C 1.6369(3) -0.3206(3) 0.27178(14)
H20 H 1.6610 -0.3988 0.2652
N7 N 0.4038(2) 0.4674(2) -0.06827(12)
N8 N 0.4476(2) 0.3930(2) -0.01250(12)
N9 N 0.2104(2) 0.3467(2) 0.00360(12)
N10 N 0.1470(2) 0.4605(2) 0.01904(12)
C27 C 0.3271(3) 0.4429(2) -0.08308(14)
C28 C 0.2968(3) 0.3379(2) -0.04687(14)
C29 C 0.3702(3) 0.2238(2) -0.06971(13)
C30 C 0.4693(3) 0.2109(3) -0.12170(16)
H21 H 0.4897 0.2765 -0.1430
C31 C 0.5384(3) 0.1030(3) -0.14243(17)
H22 H 0.6063 0.0948 -0.1776
C32 C 0.5091(3) 0.0078(3) -0.11241(17)
H23 H 0.5564 -0.0660 -0.1268
C33 C 0.4111(3) 0.0199(3) -0.06151(18)
H24 H 0.3911 -0.0460 -0.0407
C34 C 0.3413(3) 0.1266(3) -0.04021(17)
H25 H 0.2732 0.1338 -0.0053
C35 C 0.2694(3) 0.5159(2) -0.13928(13)
C36 C 0.1668(3) 0.5082(2) -0.14626(14)
H26 H 0.1345 0.4564 -0.1150
C37 C 0.1120(3) 0.5765(3) -0.19897(15)
H27 H 0.0429 0.5706 -0.2040
C38 C 0.1580(3) 0.6525(3) -0.24373(15)
H28 H 0.1196 0.7000 -0.2792
C39 C 0.2594(3) 0.6601(3) -0.23742(16)
H29 H 0.2915 0.7117 -0.2690
C40 C 0.3149(3) 0.5926(3) -0.18505(15)
H30 H 0.3841 0.5990 -0.1806
C41 C 0.5594(3) 0.3575(3) -0.01866(15)
H31 H 0.6060 0.3821 -0.0585
C42 C 0.6175(3) 0.2782(2) 0.03557(15)
C43 C 0.5522(3) 0.2604(3) 0.09951(15)
H32 H 0.4684 0.3035 0.1101
C44 C 0.6111(3) 0.1795(3) 0.14697(15)
H33 H 0.5660 0.1682 0.1904
N11 N 0.7298(2) 0.1151(2) 0.13504(12)
C45 C 0.7918(3) 0.1340(3) 0.07371(17)
H34 H 0.8756 0.0900 0.0645
C46 C 0.7396(3) 0.2147(3) 0.02311(16)
H35 H 0.7871 0.2262 -0.0195
C47 C 0.1494(3) 0.4711(3) 0.07599(15)
H36 H 0.1927 0.4052 0.1039
C48 C 0.0849(3) 0.5858(3) 0.09862(14)
C49 C 0.0110(3) 0.6828(3) 0.06236(14)
H37 H 0.0017 0.6778 0.0208
C50 C -0.0485(3) 0.7867(3) 0.08809(14)
H38 H -0.1000 0.8520 0.0635
N12 N -0.0376(2) 0.8005(2) 0.14579(12)
C51 C 0.0358(3) 0.7078(3) 0.17915(15)
H39 H 0.0464 0.7164 0.2195
C52 C 0.0975(3) 0.5998(3) 0.15812(15)
H40 H 0.1477 0.5359 0.1840
N6_2 N 0.6740(2) -0.1444(2) 0.24260(12)
N12_2 N 0.9624(2) -0.1995(2) 0.14579(12)
Ag1_2 Ag 1.808847(19) -0.051469(19) 0.204435(11)
Ag1_3 Ag -0.191153(19) 0.948531(19) 0.204435(11)
Cl1 Cl 0.24709(7) 0.18297(7) 0.26662(4)
O1 O 0.1668(2) 0.1897(2) 0.33004(13)
O2 O 0.3587(2) 0.1775(2) 0.27292(15)
O3 O 0.1939(3) 0.2840(3) 0.22155(15)
O4 O 0.2661(3) 0.0778(3) 0.24594(17)
N13 N 0.3625(3) 0.1375(3) 0.54040(17)
C53 C 0.3538(3) 0.1037(3) 0.49878(18)
C54 C 0.3461(4) 0.0561(4) 0.44660(19)
H41 H 0.4234 -0.0053 0.4320
H42 H 0.3248 0.1185 0.4092
H43 H 0.2848 0.0229 0.4632
N14 N 0.1039(4) 0.0097(4) 0.0713(2)
C55 C 0.1072(3) 0.0729(3) 0.09728(18)
C56 C 0.1332(10) 0.1426(12) 0.1317(7)
H44 H 0.1734 0.0913 0.1676
H45 H 0.0583 0.2031 0.1499
H46 H 0.1852 0.1797 0.1002
C58 C 0.1273(5) 0.5324(6) 0.4151(3)
H50 H 0.1522 0.5583 0.4457
H51 H 0.1434 0.4487 0.4282
H52 H 0.0416 0.5765 0.4165
C59 C 0.1930(4) 0.5522(4) 0.3491(2)
C60 C 0.2443(4) 0.4616(4) 0.3113(2)
H53 H 0.2273 0.3931 0.3279
C61 C 0.3200(4) 0.4697(4) 0.2498(2)
H54 H 0.3531 0.4070 0.2250
C62 C 0.3483(4) 0.5707(5) 0.2234(2)
H55 H 0.4009 0.5744 0.1817
C63 C 0.3001(4) 0.6620(5) 0.2581(3)
H56 H 0.3149 0.7314 0.2404
C64 C 0.2242(4) 0.6485(4) 0.3239(3)
H57 H 0.1953 0.7084 0.3503
C57? C 0.0798(11) 0.1776(10) 0.1237(6)
H47? H 0.1221 0.2245 0.0924
H48? H 0.1054 0.1550 0.1661
H49? H -0.0065 0.2236 0.1306
loop_
_geom_bond_atom_site_label_1
_geom_bond_atom_site_label_2
_geom_bond_site_symmetry_1
_geom_bond_site_symmetry_2
Ag1 N5 1_555 1_555
N1 N2 1_555 1_555
N2 C15 1_555 1_555
N3 N4 1_555 1_555
N4 C21 1_555 1_555
C1 N1 1_555 1_555
C2 N3 1_555 1_555
C3 C1 1_555 1_555
C4 C3 1_555 1_555
H1 C4 1_555 1_555
C5 C4 1_555 1_555
H2 C5 1_555 1_555
C6 C5 1_555 1_555
H3 C6 1_555 1_555
C7 C6 1_555 1_555
H4 C7 1_555 1_555
C8 C3 1_555 1_555
H5 C8 1_555 1_555
C9 C2 1_555 1_555
C10 C9 1_555 1_555
H6 C10 1_555 1_555
C11 C10 1_555 1_555
H7 C11 1_555 1_555
C12 C11 1_555 1_555
H8 C12 1_555 1_555
C13 C12 1_555 1_555
H9 C13 1_555 1_555
C14 C9 1_555 1_555
H10 C14 1_555 1_555
C15 H11 1_555 1_555
C16 C15 1_555 1_555
C17 C16 1_555 1_555
H12 C17 1_555 1_555
C18 C17 1_555 1_555
H13 C18 1_555 1_555
N5 C18 1_555 1_555
C19 N5 1_555 1_555
H14 C19 1_555 1_555
C20 C16 1_555 1_555
H15 C20 1_555 1_555
C21 H16 1_555 1_555
C22 C21 1_555 1_555
C23 C22 1_555 1_555
H17 C23 1_555 1_555
C24 C23 1_555 1_555
H18 C24 1_555 1_555
N6 C24 1_555 1_555
C25 N6 1_555 1_555
H19 C25 1_555 1_555
C26 C22 1_555 1_555
H20 C26 1_555 1_555
N7 N8 1_555 1_555
N8 C41 1_555 1_555
N9 N10 1_555 1_555
N10 C47 1_555 1_555
C27 N7 1_555 1_555
C28 N9 1_555 1_555
C29 C28 1_555 1_555
C30 C29 1_555 1_555
H21 C30 1_555 1_555
C31 C30 1_555 1_555
H22 C31 1_555 1_555
C32 C31 1_555 1_555
H23 C32 1_555 1_555
C33 C32 1_555 1_555
H24 C33 1_555 1_555
C34 C29 1_555 1_555
H25 C34 1_555 1_555
C35 C27 1_555 1_555
C36 C35 1_555 1_555
H26 C36 1_555 1_555
C37 C36 1_555 1_555
H27 C37 1_555 1_555
C38 C37 1_555 1_555
H28 C38 1_555 1_555
C39 C38 1_555 1_555
H29 C39 1_555 1_555
C40 C35 1_555 1_555
H30 C40 1_555 1_555
C41 H31 1_555 1_555
C42 C41 1_555 1_555
C43 C42 1_555 1_555
H32 C43 1_555 1_555
C44 C43 1_555 1_555
H33 C44 1_555 1_555
N11 Ag1 1_555 1_555
C45 N11 1_555 1_555
H34 C45 1_555 1_555
C46 C42 1_555 1_555
H35 C46 1_555 1_555
C47 H36 1_555 1_555
C48 C47 1_555 1_555
C49 C48 1_555 1_555
H37 C49 1_555 1_555
C50 C49 1_555 1_555
H38 C50 1_555 1_555
N12 C50 1_555 1_555
C51 N12 1_555 1_555
H39 C51 1_555 1_555
C52 C48 1_555 1_555
H40 C52 1_555 1_555
Cl1 O1 1_555 1_555
O2 Cl1 1_555 1_555
O3 Cl1 1_555 1_555
O4 Cl1 1_555 1_555
N13 C53 1_555 1_555
C53 C54 1_555 1_555
C54 H41 1_555 1_555
H42 C54 1_555 1_555
H43 C54 1_555 1_555
N14 C55 1_555 1_555
C55 C56 1_555 1_555
C56 H44 1_555 1_555
H45 C56 1_555 1_555
H46 C56 1_555 1_555
C58 H50 1_555 1_555
H51 C58 1_555 1_555
H52 C58 1_555 1_555
C59 C58 1_555 1_555
C60 C59 1_555 1_555
H53 C60 1_555 1_555
C61 C60 1_555 1_555
H54 C61 1_555 1_555
C62 C61 1_555 1_555
H55 C62 1_555 1_555
C63 C62 1_555 1_555
H56 C63 1_555 1_555
C64 C59 1_555 1_555
H57 C64 1_555 1_555
N6_2 Ag1 1_555 1_555
N12_2 Ag1 1_555 1_555
Ag1_2 N6 1_555 1_555
Ag1_3 N12 1_555 1_555
C1 C2 1_555 1_555
C7 C8 1_555 1_555
C13 C14 1_555 1_555
C19 C20 1_555 1_555
C25 C26 1_555 1_555
C27 C28 1_555 1_555
C33 C34 1_555 1_555
C39 C40 1_555 1_555
C44 N11 1_555 1_555
C45 C46 1_555 1_555
C51 C52 1_555 1_555
C63 C64 1_555 1_555

#END
