
#######################################################################
#
#                 Cambridge Crystallographic Data Centre
#                                CCDC 
#
#######################################################################
#
# If this CIF has been generated from an entry in the Cambridge 
# Structural Database, then it will include bibliographic, chemical, 
# crystal, experimental, refinement or atomic coordinate data resulting 
# from the CCDC's data processing and validation procedures.
#
#######################################################################

data_AFETOW
_symmetry_cell_setting           monoclinic
_symmetry_space_group_name_H-M   'P 21/c'
_symmetry_Int_Tables_number      14
_space_group_name_Hall           '-P 2ybc'
loop_
_symmetry_equiv_pos_site_id
_symmetry_equiv_pos_as_xyz
1 x,y,z
2 -x,1/2+y,1/2-z
3 -x,-y,-z
4 x,1/2-y,1/2+z
_cell_length_a                   10.655(2)
_cell_length_b                   21.227(5)
_cell_length_c                   13.573(3)
_cell_angle_alpha                90
_cell_angle_beta                 111.157(3)
_cell_angle_gamma                90
_cell_volume                     2862.93
loop_
_atom_site_label
_atom_site_type_symbol
_atom_site_fract_x
_atom_site_fract_y
_atom_site_fract_z
Ni1 Ni 0.65417(5) 0.36010(2) 0.13680(4)
N1 N 0.7261(4) 0.37993(18) 0.2878(3)
N2 N 0.5912(4) 0.28228(16) 0.1951(2)
N3 N 0.7788(4) 0.41640(17) 0.0944(3)
N4 N 0.7757(6) 0.3432(2) 0.4514(3)
H1 H 0.7750 0.3178 0.5005
O1 O 0.7561(4) 0.23559(18) 0.5314(2)
O2 O 0.8208(6) 0.4794(2) 0.3245(3)
O3 O 0.5833(3) 0.17104(13) 0.4922(2)
C1 C 0.6390(4) 0.27615(18) 0.3011(3)
C2 C 0.6540(4) 0.21100(19) 0.4669(3)
C3 C 0.5250(5) 0.1783(2) 0.2847(3)
H2 H 0.5039 0.1424 0.3150
C4 C 0.9531(4) 0.4826(2) 0.0198(3)
C5 C 0.6081(4) 0.22385(19) 0.3501(3)
C6 C 0.7148(5) 0.3330(2) 0.3504(3)
C7 C 0.8155(5) 0.4835(2) -0.0338(4)
H3 H 0.7791 0.5064 -0.0961
C8 C 0.4726(5) 0.1848(2) 0.1756(4)
C9 C 0.5104(5) 0.2380(2) 0.1347(3)
H4 H 0.4782 0.2433 0.0618
C10 C 0.3846(9) 0.1358(3) 0.1073(5)
H5 H 0.3703 0.1447 0.0347
H6 H 0.2997 0.1355 0.1169
H7 H 0.4268 0.0953 0.1259
C11 C 0.7322(5) 0.4505(2) 0.0053(4)
H8 H 0.6398 0.4519 -0.0317
C12 C 0.9094(5) 0.4158(3) 0.1449(4)
H9 H 0.9440 0.3924 0.2068
C13 C 0.9977(5) 0.4483(3) 0.1104(4)
H10 H 1.0894 0.4468 0.1498
C14 C 0.7965(7) 0.4274(3) 0.3530(4)
C15 C 0.8458(9) 0.4042(3) 0.4696(5)
C16 C 0.8126(11) 0.4448(4) 0.5399(6)
H11 H 0.8603 0.4846 0.5423
C17 C 0.6616(9) 0.4590(4) 0.4895(7)
H12 H 0.6449 0.4843 0.4273
H13 H 0.6329 0.4816 0.5390
H14 H 0.6124 0.4202 0.4705
C18 C 0.8593(13) 0.4193(5) 0.6538(6)
H15 H 0.8039 0.3843 0.6568
H16 H 0.8518 0.4520 0.7003
H17 H 0.9513 0.4059 0.6753
C19 C 1.0042(7) 0.3930(4) 0.5110(6)
H18 H 1.0493 0.4327 0.5166
H19 H 1.0259 0.3664 0.4622
H20 H 1.0329 0.3731 0.5790
O4 O 0.4730(4) 0.42163(19) 0.0924(3)
H21 H 0.4276 0.4212 0.1327
H22 H 0.4190 0.4241 0.0287
N3B N 1.2212(4) 0.58360(17) -0.0944(3)
C4B C 1.0469(4) 0.5174(2) -0.0198(3)
C7B C 1.1845(5) 0.5165(2) 0.0338(4)
H3B H 1.2209 0.4936 0.0961
C11B C 1.2678(5) 0.5495(2) -0.0053(4)
H8B H 1.3602 0.5481 0.0317
C12B C 1.0906(5) 0.5842(3) -0.1449(4)
H9B H 1.0560 0.6076 -0.2068
C13B C 1.0023(5) 0.5517(3) -0.1104(4)
H10B H 0.9106 0.5532 -0.1498
Ni1B Ni 1.34583(5) 0.63990(2) -0.13680(4)
N1B N 1.2739(4) 0.62007(18) -0.2878(3)
N2B N 1.4088(4) 0.71772(16) -0.1951(2)
N4B N 1.2243(6) 0.6568(2) -0.4514(3)
H1B H 1.2250 0.6822 -0.5005
O1B O 1.2439(4) 0.76441(18) -0.5314(2)
O2B O 1.1792(6) 0.5206(2) -0.3245(3)
O3B O 1.4167(3) 0.82896(13) -0.4922(2)
C1B C 1.3610(4) 0.72385(18) -0.3011(3)
C2B C 1.3460(4) 0.78900(19) -0.4669(3)
C3B C 1.4750(5) 0.8217(2) -0.2847(3)
H2B H 1.4961 0.8576 -0.3150
C5B C 1.3919(4) 0.77615(19) -0.3501(3)
C6B C 1.2852(5) 0.6670(2) -0.3504(3)
C8B C 1.5274(5) 0.8152(2) -0.1756(4)
C9B C 1.4896(5) 0.7620(2) -0.1347(3)
H4B H 1.5218 0.7567 -0.0618
C10B C 1.6154(9) 0.8642(3) -0.1073(5)
H5B H 1.6297 0.8553 -0.0347
H6B H 1.7003 0.8645 -0.1169
H7B H 1.5732 0.9047 -0.1259
C14B C 1.2035(7) 0.5726(3) -0.3530(4)
C15B C 1.1542(9) 0.5958(3) -0.4696(5)
C16B C 1.1874(11) 0.5552(4) -0.5399(6)
H11B H 1.1397 0.5154 -0.5423
C17B C 1.3384(9) 0.5410(4) -0.4895(7)
H12B H 1.3551 0.5157 -0.4273
H13B H 1.3671 0.5184 -0.5390
H14B H 1.3876 0.5798 -0.4705
C18B C 1.1407(13) 0.5807(5) -0.6538(6)
H15B H 1.1961 0.6157 -0.6568
H16B H 1.1482 0.5480 -0.7003
H17B H 1.0487 0.5941 -0.6753
C19B C 0.9958(7) 0.6070(4) -0.5110(6)
H18B H 0.9507 0.5673 -0.5166
H19B H 0.9741 0.6336 -0.4622
H20B H 0.9671 0.6269 -0.5790
O4B O 1.5270(4) 0.57837(19) -0.0924(3)
H21B H 1.5724 0.5788 -0.1327
H22B H 1.5810 0.5759 -0.0287
Ni1A Ni 1.34583(5) 0.86010(2) -0.63680(4)
Ni1C Ni 0.65417(5) 0.13990(2) 0.63680(4)
O3A O 1.4167(3) 0.67104(13) 0.0078(2)
O3C O 0.5833(3) 0.32896(13) -0.0078(2)
Cl1 Cl 0.6911(2) 0.64299(13) 0.70615(15)
O5 O 0.5820(7) 0.6678(4) 0.6261(5)
O6 O 0.729(2) 0.6864(11) 0.7841(13)
O7 O 0.6423(19) 0.5879(12) 0.745(2)
O8 O 0.7944(18) 0.6277(15) 0.6746(15)
O12 O 0.6645(7) 0.5684(4) 0.1364(5)
H23 H 0.7106 0.6021 0.1470
H24 H 0.7040 0.5428 0.1862
O13 O 0.8246(17) 0.8228(9) 0.6772(13)
H25 H 0.8736 0.7880 0.7151
C20 C 0.990(3) 0.7973(15) 0.597(2)
H26 H 0.9978 0.7906 0.5300
H27 H 1.0213 0.7607 0.6409
H28 H 1.0427 0.8332 0.6312
C21 C 0.849(3) 0.8086(17) 0.583(2)
H29 H 0.8165 0.8434 0.5335
H30 H 0.7974 0.7716 0.5502
O9? O 0.770(8) 0.601(4) 0.667(6)
O10? O 0.810(5) 0.689(3) 0.746(4)
O11? O 0.699(4) 0.626(3) 0.805(3)
loop_
_geom_bond_atom_site_label_1
_geom_bond_atom_site_label_2
_geom_bond_site_symmetry_1
_geom_bond_site_symmetry_2
Ni1 N1 1_555 1_555
N1 C6 1_555 1_555
N2 Ni1 1_555 1_555
N3 Ni1 1_555 1_555
N4 H1 1_555 1_555
O1 C2 1_555 1_555
O2 C14 1_555 1_555
O3 C2 1_555 1_555
C1 N2 1_555 1_555
C2 C5 1_555 1_555
C3 H2 1_555 1_555
C4 C7 1_555 1_555
C5 C1 1_555 1_555
C6 N4 1_555 1_555
C7 H3 1_555 1_555
C8 C3 1_555 1_555
C9 N2 1_555 1_555
H4 C9 1_555 1_555
C10 C8 1_555 1_555
H5 C10 1_555 1_555
H6 C10 1_555 1_555
H7 C10 1_555 1_555
C11 N3 1_555 1_555
H8 C11 1_555 1_555
C12 N3 1_555 1_555
H9 C12 1_555 1_555
C13 C4 1_555 1_555
H10 C13 1_555 1_555
C14 N1 1_555 1_555
C15 N4 1_555 1_555
C16 C15 1_555 1_555
H11 C16 1_555 1_555
C17 C16 1_555 1_555
H12 C17 1_555 1_555
H13 C17 1_555 1_555
H14 C17 1_555 1_555
C18 C16 1_555 1_555
H15 C18 1_555 1_555
H16 C18 1_555 1_555
H17 C18 1_555 1_555
C19 C15 1_555 1_555
H18 C19 1_555 1_555
H19 C19 1_555 1_555
H20 C19 1_555 1_555
O4 Ni1 1_555 1_555
H21 O4 1_555 1_555
H22 O4 1_555 1_555
Cl1 O5 1_555 1_555
O6 Cl1 1_555 1_555
O7 Cl1 1_555 1_555
O8 Cl1 1_555 1_555
O12 H23 1_555 1_555
H24 O12 1_555 1_555
O13 H25 1_555 1_555
C20 H26 1_555 1_555
H27 C20 1_555 1_555
H28 C20 1_555 1_555
C21 O13 1_555 1_555
H29 C21 1_555 1_555
H30 C21 1_555 1_555
N3B C11B 1_555 1_555
C4B C4 1_555 1_555
C7B C4B 1_555 1_555
H3B C7B 1_555 1_555
C11B C7B 1_555 1_555
H8B C11B 1_555 1_555
C12B N3B 1_555 1_555
H9B C12B 1_555 1_555
C13B C4B 1_555 1_555
H10B C13B 1_555 1_555
Ni1B N3B 1_555 1_555
N1B Ni1B 1_555 1_555
N2B Ni1B 1_555 1_555
N4B H1B 1_555 1_555
O1B C2B 1_555 1_555
O2B C14B 1_555 1_555
O3B C2B 1_555 1_555
C1B N2B 1_555 1_555
C2B C5B 1_555 1_555
C3B H2B 1_555 1_555
C5B C1B 1_555 1_555
C6B N1B 1_555 1_555
C8B C3B 1_555 1_555
C9B N2B 1_555 1_555
H4B C9B 1_555 1_555
C10B C8B 1_555 1_555
H5B C10B 1_555 1_555
H6B C10B 1_555 1_555
H7B C10B 1_555 1_555
C14B N1B 1_555 1_555
C15B N4B 1_555 1_555
C16B C15B 1_555 1_555
H11B C16B 1_555 1_555
C17B C16B 1_555 1_555
H12B C17B 1_555 1_555
H13B C17B 1_555 1_555
H14B C17B 1_555 1_555
C18B C16B 1_555 1_555
H15B C18B 1_555 1_555
H16B C18B 1_555 1_555
H17B C18B 1_555 1_555
C19B C15B 1_555 1_555
H18B C19B 1_555 1_555
H19B C19B 1_555 1_555
H20B C19B 1_555 1_555
O4B Ni1B 1_555 1_555
H21B O4B 1_555 1_555
H22B O4B 1_555 1_555
Ni1A O3B 1_555 1_555
Ni1C O3 1_555 1_555
O3A Ni1B 1_555 1_555
O3C Ni1 1_555 1_555
C1 C6 1_555 1_555
C3 C5 1_555 1_555
C7 C11 1_555 1_555
C8 C9 1_555 1_555
C12 C13 1_555 1_555
C14 C15 1_555 1_555
C20 C21 1_555 1_555
C12B C13B 1_555 1_555
N4B C6B 1_555 1_555
C1B C6B 1_555 1_555
C3B C5B 1_555 1_555
C8B C9B 1_555 1_555
C14B C15B 1_555 1_555

#END
