
#######################################################################
#
#                 Cambridge Crystallographic Data Centre
#                                CCDC 
#
#######################################################################
#
# If this CIF has been generated from an entry in the Cambridge 
# Structural Database, then it will include bibliographic, chemical, 
# crystal, experimental, refinement or atomic coordinate data resulting 
# from the CCDC's data processing and validation procedures.
#
#######################################################################

data_AFETAI
_symmetry_cell_setting           triclinic
_symmetry_space_group_name_H-M   'P -1'
_symmetry_Int_Tables_number      2
_space_group_name_Hall           '-P 1'
loop_
_symmetry_equiv_pos_site_id
_symmetry_equiv_pos_as_xyz
1 x,y,z
2 -x,-y,-z
_cell_length_a                   8.0257(5)
_cell_length_b                   10.8731(7)
_cell_length_c                   15.1979(10)
_cell_angle_alpha                83.7610(10)
_cell_angle_beta                 82.7140(10)
_cell_angle_gamma                70.7270(10)
_cell_volume                     1238.63
loop_
_atom_site_label
_atom_site_type_symbol
_atom_site_fract_x
_atom_site_fract_y
_atom_site_fract_z
Hg1 Hg 0.06072(3) 1.33891(2) 0.160760(16)
Hg2 Hg 0.49915(3) 0.25776(2) 0.337448(16)
Cl1 Cl 0.2923(3) 1.4790(3) 0.01015(15)
Cl2 Cl 0.7716(3) 0.1372(3) 0.49498(17)
O1 O 0.4256(6) 0.2235(6) 0.1763(3)
O2 O 0.5765(12) 0.1583(10) 0.0546(5)
O3 O 0.6958(7) 0.2167(7) 0.1553(4)
N1 N 0.1075(7) 1.1343(5) 0.1812(4)
N2 N 0.3893(7) 0.4569(5) 0.2977(3)
C1 C 0.0098(9) 1.5366(7) 0.1314(5)
C2 C 0.6028(8) 0.0655(7) 0.3812(5)
N3 N 0.5690(9) 0.1965(7) 0.1282(4)
C3 C 0.2307(9) 1.0523(7) 0.1283(4)
H1 H 0.2839 1.0861 0.0779
C4 C 0.2802(10) 0.9199(7) 0.1466(4)
H2 H 0.3657 0.8653 0.1084
C5 C 0.2042(8) 0.8659(6) 0.2218(4)
C6 C 0.0733(8) 0.9508(6) 0.2729(5)
H3 H 0.0148 0.9187 0.3222
C7 C 0.0272(8) 1.0838(7) 0.2521(5)
H4 H -0.0617 1.1399 0.2880
C8 C 0.2641(8) 0.7219(6) 0.2468(4)
C9 C 0.3997(9) 0.6368(7) 0.1961(4)
H5 H 0.4498 0.6679 0.1434
C10 C 0.4599(9) 0.5076(7) 0.2232(5)
H6 H 0.5533 0.4522 0.1891
C11 C 0.2569(10) 0.5375(7) 0.3462(5)
H7 H 0.2076 0.5042 0.3982
C12 C 0.1900(10) 0.6700(6) 0.3214(5)
H8 H 0.0946 0.7235 0.3556
C13 C -0.1312(11) 1.6260(8) 0.1748(6)
H9 H -0.2014 1.5963 0.2199
C14 C -0.1734(13) 1.7633(9) 0.1526(6)
H10 H -0.2673 1.8230 0.1836
C15 C -0.0718(14) 1.8037(9) 0.0849(6)
H11 H -0.1012 1.8925 0.0682
C16 C 0.0701(11) 1.7208(8) 0.0405(5)
H12 H 0.1391 1.7515 -0.0046
C17 C 0.1105(10) 1.5849(8) 0.0652(5)
C18 C 0.5592(12) -0.0303(8) 0.3429(6)
H13 H 0.4851 -0.0065 0.2973
C19 C 0.6288(16) -0.1647(10) 0.3740(8)
H14 H 0.6016 -0.2285 0.3481
C20 C 0.7338(13) -0.1981(10) 0.4408(7)
H15 H 0.7774 -0.2854 0.4613
C21 C 0.7770(11) -0.1074(10) 0.4786(6)
H16 H 0.8500 -0.1318 0.5247
C22 C 0.7106(9) 0.0236(8) 0.4477(5)
O4 O 0.0847(7) 1.3187(6) 0.3414(4)
O5 O -0.1184(13) 1.4211(9) 0.4409(5)
O6 O -0.1909(7) 1.3779(6) 0.3188(4)
N4 N -0.0752(10) 1.3744(6) 0.3689(4)
Hg1_2 Hg 0.06072(3) 0.33891(2) 0.160760(16)
O1_2 O 0.4256(6) 1.2235(6) 0.1763(3)
O7 O 0.514(3) 0.565(2) 0.4968(17)
H17 H 0.4278 0.6345 0.4886
H18 H 0.5860 0.5524 0.4499
loop_
_geom_bond_atom_site_label_1
_geom_bond_atom_site_label_2
_geom_bond_site_symmetry_1
_geom_bond_site_symmetry_2
Hg1 N1 1_555 1_555
Hg2 O1 1_555 1_555
Cl1 C17 1_555 1_555
Cl2 C22 1_555 1_555
O1 N3 1_555 1_555
O2 N3 1_555 1_555
O3 Hg2 1_555 1_555
N1 C3 1_555 1_555
N2 Hg2 1_555 1_555
C1 Hg1 1_555 1_555
C2 Hg2 1_555 1_555
N3 O3 1_555 1_555
C3 H1 1_555 1_555
C4 C3 1_555 1_555
H2 C4 1_555 1_555
C5 C4 1_555 1_555
C6 C5 1_555 1_555
H3 C6 1_555 1_555
C7 N1 1_555 1_555
H4 C7 1_555 1_555
C8 C5 1_555 1_555
C9 C8 1_555 1_555
H5 C9 1_555 1_555
C10 N2 1_555 1_555
H6 C10 1_555 1_555
C11 N2 1_555 1_555
H7 C11 1_555 1_555
C12 C8 1_555 1_555
H8 C12 1_555 1_555
C13 C1 1_555 1_555
H9 C13 1_555 1_555
C14 C13 1_555 1_555
H10 C14 1_555 1_555
C15 C14 1_555 1_555
H11 C15 1_555 1_555
C16 C15 1_555 1_555
H12 C16 1_555 1_555
C17 C1 1_555 1_555
C18 C2 1_555 1_555
H13 C18 1_555 1_555
C19 C18 1_555 1_555
H14 C19 1_555 1_555
C20 C19 1_555 1_555
H15 C20 1_555 1_555
C21 C20 1_555 1_555
H16 C21 1_555 1_555
C22 C2 1_555 1_555
O4 Hg1 1_555 1_555
O5 N4 1_555 1_555
O6 Hg1 1_555 1_555
N4 O4 1_555 1_555
O7 H17 1_555 1_555
H18 O7 1_555 1_555
Hg1_2 O1 1_555 1_555
O1_2 Hg1 1_555 1_555
C6 C7 1_555 1_555
C9 C10 1_555 1_555
C11 C12 1_555 1_555
C16 C17 1_555 1_555
C21 C22 1_555 1_555
O6 N4 1_555 1_555

#END
