
#######################################################################
#
#                 Cambridge Crystallographic Data Centre
#                                CCDC 
#
#######################################################################
#
# If this CIF has been generated from an entry in the Cambridge 
# Structural Database, then it will include bibliographic, chemical, 
# crystal, experimental, refinement or atomic coordinate data resulting 
# from the CCDC's data processing and validation procedures.
#
#######################################################################

data_AFEYAL04
_symmetry_cell_setting           triclinic
_symmetry_space_group_name_H-M   'P -1'
_symmetry_Int_Tables_number      2
_space_group_name_Hall           '-P 1'
loop_
_symmetry_equiv_pos_site_id
_symmetry_equiv_pos_as_xyz
1 x,y,z
2 -x,-y,-z
_cell_length_a                   8.7915(9)
_cell_length_b                   8.7921(7)
_cell_length_c                   16.1275(18)
_cell_angle_alpha                92.773(6)
_cell_angle_beta                 95.879(6)
_cell_angle_gamma                114.341(7)
_cell_volume                     1124.14
loop_
_atom_site_label
_atom_site_type_symbol
_atom_site_fract_x
_atom_site_fract_y
_atom_site_fract_z
Cd1 Cd 0.50000 0.50000 0.50000
Cd2 Cd 0.8261(17) 0.8007(16) 0.8402(11)
S1 S 0.565(5) 0.835(4) 0.551(2)
C1 C 0.650(5) 0.851(4) 0.651(2)
N1 N 0.709(5) 0.860(4) 0.721(2)
S2 S 0.781(5) 0.489(3) 0.769(2)
C2 C 0.673(5) 0.466(3) 0.675(2)
N2 N 0.596(5) 0.448(3) 0.608(2)
S3 S 0.884(4) 1.132(3) 0.8405(19)
C3 C 0.981(4) 1.160(3) 0.9383(19)
N3 N 1.048(4) 1.181(3) 1.0081(19)
N4 N 0.563(5) 0.671(6) 0.894(3)
C4 C 0.557(5) 0.730(6) 0.972(3)
C5 C 0.414(5) 0.670(6) 1.011(3)
C6 C 0.270(5) 0.542(6) 0.969(3)
C7 C 0.275(5) 0.478(6) 0.890(3)
C8 C 0.424(5) 0.545(6) 0.855(3)
N5 N 1.106(5) 0.962(5) 0.799(3)
C9 C 1.137(5) 1.072(5) 0.742(3)
C10 C 1.288(5) 1.138(5) 0.709(3)
C11 C 1.412(5) 1.088(5) 0.736(3)
C12 C 1.383(5) 0.976(5) 0.794(3)
C13 C 1.229(5) 0.916(5) 0.824(3)
N6 N 0.786(5) 0.640(6) 0.454(3)
C14 C 0.922(5) 0.754(6) 0.503(3)
C15 C 1.083(5) 0.815(6) 0.482(3)
C16 C 1.107(5) 0.755(6) 0.406(3)
C17 C 0.970(5) 0.635(6) 0.355(3)
C18 C 0.812(5) 0.579(6) 0.381(3)
Cd2A Cd 0.1739(17) 0.1993(16) 0.1598(11)
Cd2A_2 Cd 1.1739(17) 1.1993(16) 1.1598(11)
S1A S 0.435(5) 0.165(4) 0.449(2)
C1A C 0.350(5) 0.149(4) 0.349(2)
N1A N 0.291(5) 0.140(4) 0.279(2)
S2A S 0.219(5) 0.511(3) 0.231(2)
C2A C 0.327(5) 0.534(3) 0.325(2)
N2A N 0.404(5) 0.552(3) 0.392(2)
S3A S 1.116(4) 0.868(3) 1.1595(19)
S3A_2 S 0.116(4) -0.132(3) 0.1595(19)
C3A C 1.019(4) 0.840(3) 1.0617(19)
N3A N 0.952(4) 0.819(3) 0.9919(19)
N3_2 N 0.048(4) 0.181(3) 0.0081(19)
N4A N 0.437(5) 0.329(6) 0.106(3)
C4A C 0.443(5) 0.270(6) 0.028(3)
C5A C 0.586(5) 0.330(6) -0.011(3)
C6A C 0.730(5) 0.458(6) 0.031(3)
C7A C 0.725(5) 0.522(6) 0.110(3)
C8A C 0.576(5) 0.455(6) 0.145(3)
N5A N -0.106(5) 0.038(5) 0.201(3)
C9A C -0.137(5) -0.072(5) 0.258(3)
C10A C -0.288(5) -0.138(5) 0.291(3)
C11A C -0.412(5) -0.088(5) 0.264(3)
C12A C -0.383(5) 0.024(5) 0.206(3)
C13A C -0.229(5) 0.084(5) 0.176(3)
N6A N 0.214(5) 0.360(6) 0.546(3)
C14A C 0.078(5) 0.246(6) 0.497(3)
C15A C -0.083(5) 0.185(6) 0.518(3)
C16A C -0.107(5) 0.245(6) 0.594(3)
C17A C 0.030(5) 0.365(6) 0.645(3)
C18A C 0.188(5) 0.421(6) 0.619(3)
loop_
_geom_bond_atom_site_label_1
_geom_bond_atom_site_label_2
_geom_bond_site_symmetry_1
_geom_bond_site_symmetry_2
Cd1 S1 1_555 1_555
Cd2 N1 1_555 1_555
S1 C1 1_555 1_555
C1 N1 1_555 1_555
S2 Cd2 1_555 1_555
C2 S2 1_555 1_555
N2 Cd1 1_555 1_555
S3 Cd2 1_555 1_555
C3 S3 1_555 1_555
N3 C3 1_555 1_555
N4 Cd2 1_555 1_555
C4 N4 1_555 1_555
C5 C4 1_555 1_555
C6 C5 1_555 1_555
C7 C6 1_555 1_555
C8 N4 1_555 1_555
N5 Cd2 1_555 1_555
C9 N5 1_555 1_555
C10 C9 1_555 1_555
C11 C10 1_555 1_555
C12 C11 1_555 1_555
C13 N5 1_555 1_555
N6 Cd1 1_555 1_555
C14 N6 1_555 1_555
C15 C14 1_555 1_555
C16 C15 1_555 1_555
C17 C16 1_555 1_555
C18 N6 1_555 1_555
Cd2A N1A 1_555 1_555
Cd2A_2 N3 1_555 1_555
S1A Cd1 1_555 1_555
C1A S1A 1_555 1_555
N1A C1A 1_555 1_555
S2A Cd2A 1_555 1_555
C2A S2A 1_555 1_555
N2A Cd1 1_555 1_555
S3A Cd2A_2 1_555 1_555
S3A_2 Cd2A 1_555 1_555
C3A S3A 1_555 1_555
N3A Cd2 1_555 1_555
N3_2 Cd2A 1_555 1_555
N4A Cd2A 1_555 1_555
C4A N4A 1_555 1_555
C5A C4A 1_555 1_555
C6A C5A 1_555 1_555
C7A C6A 1_555 1_555
C8A N4A 1_555 1_555
N5A Cd2A 1_555 1_555
C9A N5A 1_555 1_555
C10A C9A 1_555 1_555
C11A C10A 1_555 1_555
C12A C11A 1_555 1_555
C13A N5A 1_555 1_555
N6A Cd1 1_555 1_555
C14A N6A 1_555 1_555
C15A C14A 1_555 1_555
C16A C15A 1_555 1_555
C17A C16A 1_555 1_555
C18A N6A 1_555 1_555
C2 N2 1_555 1_555
C7 C8 1_555 1_555
C12 C13 1_555 1_555
C17 C18 1_555 1_555
C2A N2A 1_555 1_555
C3A N3A 1_555 1_555
C7A C8A 1_555 1_555
C12A C13A 1_555 1_555
C17A C18A 1_555 1_555

#END
