
#######################################################################
#
#                 Cambridge Crystallographic Data Centre
#                                CCDC 
#
#######################################################################
#
# If this CIF has been generated from an entry in the Cambridge 
# Structural Database, then it will include bibliographic, chemical, 
# crystal, experimental, refinement or atomic coordinate data resulting 
# from the CCDC's data processing and validation procedures.
#
#######################################################################

data_AFEYAL02
_symmetry_cell_setting           triclinic
_symmetry_space_group_name_H-M   'P -1'
_symmetry_Int_Tables_number      2
_space_group_name_Hall           '-P 1'
loop_
_symmetry_equiv_pos_site_id
_symmetry_equiv_pos_as_xyz
1 x,y,z
2 -x,-y,-z
_cell_length_a                   7.8272(4)
_cell_length_b                   8.6242(4)
_cell_length_c                   23.7050(10)
_cell_angle_alpha                84.890(3)
_cell_angle_beta                 89.520(4)
_cell_angle_gamma                63.070(3)
_cell_volume                     1420.05
loop_
_atom_site_label
_atom_site_type_symbol
_atom_site_fract_x
_atom_site_fract_y
_atom_site_fract_z
Cd1 Cd 0.55905(5) 0.97050(4) 0.375033(15)
Cd2 Cd 0.44978(6) 0.99144(5) 0.125075(15)
S1 S 0.8352(2) 0.93622(19) 0.45431(6)
S2 S 0.2004(2) 0.9601(2) 0.20176(6)
S3 S 0.8141(2) 0.9986(2) 0.29930(6)
S4 S 0.1714(2) 1.0203(2) 0.04890(7)
N1 N 0.6266(7) 1.0543(6) 0.5514(2)
N2 N 0.3481(7) 0.9946(6) 0.3040(2)
N3 N 0.6584(7) 0.9716(6) 0.1968(2)
N4 N 0.4113(6) 1.2780(5) 0.37531(19)
N5 N 0.7184(7) 0.6634(5) 0.3729(2)
N6 N 0.2874(7) 1.2985(6) 0.1265(2)
N7 N 0.5944(7) 0.6842(6) 0.1253(2)
C1 C 0.7117(7) 1.0078(6) 0.5111(2)
C2 C 0.2885(7) 0.9809(6) 0.2618(2)
C3 C 0.7225(7) 0.9828(6) 0.2393(2)
C4 C 0.2834(8) 1.0002(6) -0.0110(2)
C5 C 0.3248(9) 1.3573(7) 0.4204(3)
H1 H 0.3199 1.2890 0.4524
C6 C 0.2505(10) 1.6376(7) 0.3758(3)
H2 H 0.1991 1.7580 0.3764
C7 C 0.3353(10) 1.5601(8) 0.3289(3)
H3 H 0.3396 1.6272 0.2964
C8 C 0.4150(9) 1.3809(7) 0.3299(3)
H4 H 0.4738 1.3290 0.2976
C9 C 0.8169(9) 0.5864(7) 0.3292(3)
H5 H 0.8185 0.6566 0.2972
C10 C 0.9167(10) 0.4081(8) 0.3286(3)
H6 H 0.9840 0.3597 0.2969
C11 C 0.9157(9) 0.3043(8) 0.3745(3)
H7 H 0.9842 0.1835 0.3751
C12 C 0.8136(11) 0.3782(8) 0.4199(3)
H8 H 0.8091 0.3092 0.4518
C13 C 0.7165(10) 0.5588(7) 0.4175(3)
H9 H 0.6466 0.6094 0.4486
C14 C 0.2529(10) 1.3725(8) 0.1749(3)
H10 H 0.3017 1.3017 0.2086
C15 C 0.0767(10) 1.6554(8) 0.1281(4)
H11 H 0.0063 1.7757 0.1287
C16 C 0.1113(11) 1.5804(8) 0.0782(3)
H12 H 0.0647 1.6488 0.0439
C17 C 0.2159(10) 1.4025(8) 0.0794(3)
H13 H 0.2377 1.3525 0.0453
C18 C 0.6102(10) 0.6087(8) 0.0777(3)
H14 H 0.5715 0.6788 0.0435
C19 C 0.6816(11) 0.4304(9) 0.0770(3)
H15 H 0.6885 0.3819 0.0430
C20 C 0.7418(10) 0.3267(8) 0.1266(4)
H16 H 0.7921 0.2061 0.1270
C21 C 0.7273(12) 0.4020(9) 0.1756(4)
H17 H 0.7653 0.3340 0.2102
C22 C 0.6555(10) 0.5800(8) 0.1730(3)
H18 H 0.6494 0.6303 0.2066
C23 C 0.1479(12) 1.5493(8) 0.1769(4)
H19 H 0.1254 1.5965 0.2116
C24 C 0.2420(10) 1.5359(8) 0.4219(3)
H20 H 0.1810 1.5863 0.4541
N8 N 0.3589(8) 0.9870(7) -0.0535(2)
Cd1A Cd 0.44095(5) 1.02950(4) 0.624967(15)
Cd2A Cd 0.55022(6) 1.00856(5) -0.125075(15)
N1A N 0.3734(7) 0.9457(6) 0.4486(2)
N8A N 0.6411(8) 1.0130(7) 0.0535(2)
loop_
_geom_bond_atom_site_label_1
_geom_bond_atom_site_label_2
_geom_bond_site_symmetry_1
_geom_bond_site_symmetry_2
Cd1 S1 1_555 1_555
Cd2 S2 1_555 1_555
S1 C1 1_555 1_555
S2 C2 1_555 1_555
S3 Cd1 1_555 1_555
S4 Cd2 1_555 1_555
N1 C1 1_555 1_555
N2 Cd1 1_555 1_555
N3 Cd2 1_555 1_555
N4 Cd1 1_555 1_555
N5 Cd1 1_555 1_555
N6 Cd2 1_555 1_555
N7 Cd2 1_555 1_555
C2 N2 1_555 1_555
C3 S3 1_555 1_555
C4 S4 1_555 1_555
C5 N4 1_555 1_555
H1 C5 1_555 1_555
C6 H2 1_555 1_555
C7 C6 1_555 1_555
H3 C7 1_555 1_555
C8 N4 1_555 1_555
H4 C8 1_555 1_555
C9 N5 1_555 1_555
H5 C9 1_555 1_555
C10 C9 1_555 1_555
H6 C10 1_555 1_555
C11 C10 1_555 1_555
H7 C11 1_555 1_555
C12 C11 1_555 1_555
H8 C12 1_555 1_555
C13 N5 1_555 1_555
H9 C13 1_555 1_555
C14 N6 1_555 1_555
H10 C14 1_555 1_555
C15 H11 1_555 1_555
C16 C15 1_555 1_555
H12 C16 1_555 1_555
C17 N6 1_555 1_555
H13 C17 1_555 1_555
C18 N7 1_555 1_555
H14 C18 1_555 1_555
C19 C18 1_555 1_555
H15 C19 1_555 1_555
C20 C19 1_555 1_555
H16 C20 1_555 1_555
C21 C20 1_555 1_555
H17 C21 1_555 1_555
C22 N7 1_555 1_555
H18 C22 1_555 1_555
C23 C14 1_555 1_555
H19 C23 1_555 1_555
C24 C5 1_555 1_555
H20 C24 1_555 1_555
N8 C4 1_555 1_555
Cd1A N1 1_555 1_555
Cd2A N8 1_555 1_555
N1A Cd1 1_555 1_555
N8A Cd2 1_555 1_555
N3 C3 1_555 1_555
C6 C24 1_555 1_555
C7 C8 1_555 1_555
C12 C13 1_555 1_555
C15 C23 1_555 1_555
C16 C17 1_555 1_555
C21 C22 1_555 1_555

#END
