
#######################################################################
#
#                 Cambridge Crystallographic Data Centre
#                                CCDC 
#
#######################################################################
#
# If this CIF has been generated from an entry in the Cambridge 
# Structural Database, then it will include bibliographic, chemical, 
# crystal, experimental, refinement or atomic coordinate data resulting 
# from the CCDC's data processing and validation procedures.
#
#######################################################################

data_AFEYAL03
_symmetry_cell_setting           monoclinic
_symmetry_space_group_name_H-M   'C 2/m'
_symmetry_Int_Tables_number      12
_space_group_name_Hall           '-C 2y'
loop_
_symmetry_equiv_pos_site_id
_symmetry_equiv_pos_as_xyz
1 x,y,z
2 -x,y,-z
3 1/2+x,1/2+y,z
4 1/2-x,1/2+y,-z
5 -x,-y,-z
6 x,-y,z
7 1/2-x,1/2-y,-z
8 1/2+x,1/2-y,z
_cell_length_a                   7.9395(7)
_cell_length_b                   15.2318(8)
_cell_length_c                   17.7558(13)
_cell_angle_alpha                90
_cell_angle_beta                 93.632(6)
_cell_angle_gamma                90
_cell_volume                     2142.95
loop_
_atom_site_label
_atom_site_type_symbol
_atom_site_fract_x
_atom_site_fract_y
_atom_site_fract_z
Cd1 Cd 0.42334(6) 0.5000 0.83360(3)
Cd2 Cd 0.5000 0.5000 0.5000
N1 N 0.6125(7) 0.5000 0.7395(3)
C1 C 0.6744(8) 0.5000 0.6833(4)
S1 S 0.7673(2) 0.5000 0.60324(10)
N2 N 0.3087(7) 0.5000 0.5930(3)
C2 C 0.2457(8) 0.5000 0.6496(4)
S2 S 0.1539(2) 0.5000 0.72947(10)
N3 N 0.6333(7) 0.5000 0.9286(3)
C3 C 0.7120(8) 0.5000 0.9853(4)
S3 S 0.8254(2) 0.5000 1.06548(10)
N4 N 0.4142(5) 0.6549(3) 0.8329(3)
C4 C 0.4006(8) 0.7004(5) 0.8961(4)
H1 H 0.4024 0.6700 0.9416
C5 C 0.3839(9) 0.7899(5) 0.8975(5)
H2 H 0.3743 0.8192 0.9430
C6 C 0.3817(8) 0.8349(5) 0.8322(5)
H3 H 0.3711 0.8957 0.8320
C7 C 0.3954(8) 0.7900(5) 0.7662(5)
H4 H 0.3938 0.8197 0.7204
C8 C 0.4113(8) 0.7002(5) 0.7686(4)
H5 H 0.4204 0.6699 0.7236
N5 N 0.5000 0.3432(4) 0.5000
C9 C 0.4412(8) 0.2975(4) 0.4403(4)
H6 H 0.3991 0.3279 0.3978
C10 C 0.4396(9) 0.2074(5) 0.4384(5)
H7 H 0.3976 0.1781 0.3952
C11 C 0.5000 0.1613(7) 0.5000
H8 H 0.5000 0.1002 0.5000
Cd1A Cd 0.57666(6) 0.5000 0.16640(3)
Cd1_2 Cd 0.42334(6) 0.5000 -0.16640(3)
Cd1A_2 Cd 0.57666(6) 0.5000 1.16640(3)
N1A N 0.3875(7) 0.5000 0.2605(3)
C1A C 0.3256(8) 0.5000 0.3167(4)
S1A S 0.2327(2) 0.5000 0.39676(10)
N2A N 0.6913(7) 0.5000 0.4070(3)
C2A C 0.7543(8) 0.5000 0.3504(4)
S2A S 0.8461(2) 0.5000 0.27053(10)
N3A N 0.3667(7) 0.5000 0.0714(3)
C3A C 0.2880(8) 0.5000 0.0147(4)
S3A S 0.1746(2) 0.5000 -0.06548(10)
S3_2 S 0.8254(2) 0.5000 0.06548(10)
S3A_2 S 0.1746(2) 0.5000 0.93452(10)
N4A N 0.5858(5) 0.6549(3) 0.1671(3)
N4D N 0.5858(5) 0.3451(3) 0.1671(3)
N4E N 0.4142(5) 0.3451(3) 0.8329(3)
C4A C 0.5994(8) 0.7004(5) 0.1039(4)
C4D C 0.5994(8) 0.2996(5) 0.1039(4)
C4E C 0.4006(8) 0.2996(5) 0.8961(4)
H1A H 0.5976 0.6700 0.0584
H1D H 0.5976 0.3300 0.0584
H1E H 0.4024 0.3300 0.9416
C5A C 0.6161(9) 0.7899(5) 0.1025(5)
C5D C 0.6161(9) 0.2101(5) 0.1025(5)
C5E C 0.3839(9) 0.2101(5) 0.8975(5)
H2A H 0.6257 0.8192 0.0570
H2D H 0.6257 0.1808 0.0570
H2E H 0.3743 0.1808 0.9430
C6A C 0.6183(8) 0.8349(5) 0.1678(5)
C6D C 0.6183(8) 0.1651(5) 0.1678(5)
C6E C 0.3817(8) 0.1651(5) 0.8322(5)
H3A H 0.6289 0.8957 0.1680
H3D H 0.6289 0.1043 0.1680
H3E H 0.3711 0.1043 0.8320
C7A C 0.6046(8) 0.7900(5) 0.2338(5)
C7D C 0.6046(8) 0.2100(5) 0.2338(5)
C7E C 0.3954(8) 0.2100(5) 0.7662(5)
H4A H 0.6062 0.8197 0.2796
H4D H 0.6062 0.1803 0.2796
H4E H 0.3938 0.1803 0.7204
C8A C 0.5887(8) 0.7002(5) 0.2314(4)
C8D C 0.5887(8) 0.2998(5) 0.2314(4)
C8E C 0.4113(8) 0.2998(5) 0.7686(4)
H5A H 0.5796 0.6699 0.2764
H5D H 0.5796 0.3301 0.2764
H5E H 0.4204 0.3301 0.7236
N5D N 0.5000 0.6568(4) 0.5000
C9A C 0.5588(8) 0.2975(4) 0.5597(4)
C9D C 0.5588(8) 0.7025(4) 0.5597(4)
C9E C 0.4412(8) 0.7025(4) 0.4403(4)
H6A H 0.6009 0.3279 0.6022
H6D H 0.6009 0.6721 0.6022
H6E H 0.3991 0.6721 0.3978
C10A C 0.5604(9) 0.2074(5) 0.5616(5)
C10D C 0.5604(9) 0.7926(5) 0.5616(5)
C10E C 0.4396(9) 0.7926(5) 0.4384(5)
H7A H 0.6024 0.1781 0.6048
H7D H 0.6024 0.8219 0.6048
H7E H 0.3976 0.8219 0.3952
C11D C 0.5000 0.8387(7) 0.5000
H8D H 0.5000 0.8998 0.5000
loop_
_geom_bond_atom_site_label_1
_geom_bond_atom_site_label_2
_geom_bond_site_symmetry_1
_geom_bond_site_symmetry_2
Cd1 N1 1_555 1_555
Cd2 S1 1_555 1_555
N1 C1 1_555 1_555
C1 S1 1_555 1_555
N2 Cd2 1_555 1_555
C2 N2 1_555 1_555
S2 Cd1 1_555 1_555
N3 Cd1 1_555 1_555
C3 N3 1_555 1_555
S3 C3 1_555 1_555
N4 Cd1 1_555 1_555
C4 N4 1_555 1_555
H1 C4 1_555 1_555
C5 C4 1_555 1_555
H2 C5 1_555 1_555
C6 C5 1_555 1_555
H3 C6 1_555 1_555
C7 C6 1_555 1_555
H4 C7 1_555 1_555
C8 N4 1_555 1_555
H5 C8 1_555 1_555
N5 Cd2 1_555 1_555
C9 N5 1_555 1_555
H6 C9 1_555 1_555
C10 C9 1_555 1_555
H7 C10 1_555 1_555
C11 C10 1_555 1_555
H8 C11 1_555 1_555
Cd1A N1A 1_555 1_555
Cd1_2 S3A 1_555 1_555
Cd1A_2 S3 1_555 1_555
N1A C1A 1_555 1_555
C1A S1A 1_555 1_555
S1A Cd2 1_555 1_555
N2A Cd2 1_555 1_555
C2A N2A 1_555 1_555
S2A Cd1A 1_555 1_555
N3A Cd1A 1_555 1_555
C3A N3A 1_555 1_555
S3A C3A 1_555 1_555
S3_2 Cd1A 1_555 1_555
S3A_2 Cd1 1_555 1_555
N4A Cd1A 1_555 1_555
N4D Cd1A 1_555 1_555
N4E Cd1 1_555 1_555
C4A N4A 1_555 1_555
C4D N4D 1_555 1_555
C4E N4E 1_555 1_555
H1A C4A 1_555 1_555
H1D C4D 1_555 1_555
H1E C4E 1_555 1_555
C5A C4A 1_555 1_555
C5D C4D 1_555 1_555
C5E C4E 1_555 1_555
H2A C5A 1_555 1_555
H2D C5D 1_555 1_555
H2E C5E 1_555 1_555
C6A C5A 1_555 1_555
C6D C5D 1_555 1_555
C6E C5E 1_555 1_555
H3A C6A 1_555 1_555
H3D C6D 1_555 1_555
H3E C6E 1_555 1_555
C7A C6A 1_555 1_555
C7D C6D 1_555 1_555
C7E C6E 1_555 1_555
H4A C7A 1_555 1_555
H4D C7D 1_555 1_555
H4E C7E 1_555 1_555
C8A N4A 1_555 1_555
C8D N4D 1_555 1_555
C8E N4E 1_555 1_555
H5A C8A 1_555 1_555
H5D C8D 1_555 1_555
H5E C8E 1_555 1_555
N5D Cd2 1_555 1_555
C9A N5 1_555 1_555
C9D N5D 1_555 1_555
C9E N5D 1_555 1_555
H6A C9A 1_555 1_555
H6D C9D 1_555 1_555
H6E C9E 1_555 1_555
C10A C11 1_555 1_555
C10D C9D 1_555 1_555
C10E C9E 1_555 1_555
H7A C10A 1_555 1_555
H7D C10D 1_555 1_555
H7E C10E 1_555 1_555
C11D C10D 1_555 1_555
H8D C11D 1_555 1_555
C2 S2 1_555 1_555
C7 C8 1_555 1_555
C2A S2A 1_555 1_555
C7A C8A 1_555 1_555
C7D C8D 1_555 1_555
C7E C8E 1_555 1_555
C9A C10A 1_555 1_555
C10E C11D 1_555 1_555

#END
