
#######################################################################
#
#                 Cambridge Crystallographic Data Centre
#                                CCDC 
#
#######################################################################
#
# If this CIF has been generated from an entry in the Cambridge 
# Structural Database, then it will include bibliographic, chemical, 
# crystal, experimental, refinement or atomic coordinate data resulting 
# from the CCDC's data processing and validation procedures.
#
#######################################################################

data_AFEYAL06
_symmetry_cell_setting           monoclinic
_symmetry_space_group_name_H-M   'C 2/c'
_symmetry_Int_Tables_number      15
_space_group_name_Hall           '-C 2yn'
loop_
_symmetry_equiv_pos_site_id
_symmetry_equiv_pos_as_xyz
1 x,y,z
2 -x,y,1/2-z
3 1/2+x,1/2+y,z
4 1/2-x,1/2+y,1/2-z
5 -x,-y,-z
6 x,-y,1/2+z
7 1/2-x,1/2-y,-z
8 1/2+x,1/2-y,1/2+z
_cell_length_a                   10.4480(3)
_cell_length_b                   15.8835(5)
_cell_length_c                   26.2388(8)
_cell_angle_alpha                90
_cell_angle_beta                 96.785(2)
_cell_angle_gamma                90
_cell_volume                     4323.85
loop_
_atom_site_label
_atom_site_type_symbol
_atom_site_fract_x
_atom_site_fract_y
_atom_site_fract_z
Cd1 Cd 0.32993(3) 0.510859(17) 0.583123(10)
Cd2 Cd 0.0000 0.53433(2) 0.7500
N1 N 0.6626(3) 0.5124(2) 0.50292(12)
C1 C 0.6324(4) 0.5052(2) 0.54396(14)
S1 S 0.59358(10) 0.49665(6) 0.60266(4)
N2 N 0.0031(4) 0.5303(2) 0.66279(12)
C2 C 0.0306(4) 0.5237(2) 0.62162(14)
S2 S 0.06559(10) 0.51512(6) 0.56230(4)
N3 N 0.3255(4) 0.5373(2) 0.66888(13)
C3 C 0.2984(4) 0.5369(2) 0.71019(15)
S3 S 0.26417(10) 0.53619(6) 0.76974(4)
N4 N 0.3132(3) 0.3652(2) 0.59863(13)
C4 C 0.2603(4) 0.3353(3) 0.63863(17)
H1 H 0.2277 0.3742 0.6614
C5 C 0.2505(5) 0.2502(3) 0.6486(2)
H2 H 0.2119 0.2313 0.6776
C6 C 0.2972(5) 0.1938(3) 0.6161(2)
H3 H 0.2917 0.1350 0.6221
C7 C 0.3522(5) 0.2232(3) 0.5747(2)
H4 H 0.3853 0.1853 0.5515
C8 C 0.3584(5) 0.3097(3) 0.56737(19)
H5 H 0.3968 0.3301 0.5387
N5 N 0.3411(3) 0.65801(19) 0.57095(13)
C9 C 0.2397(4) 0.7063(3) 0.57742(19)
H6 H 0.1633 0.6800 0.5859
C10 C 0.2412(5) 0.7931(3) 0.5723(2)
H7 H 0.1669 0.8253 0.5769
C11 C 0.3501(5) 0.8318(3) 0.5605(2)
H8 H 0.3527 0.8912 0.5564
C12 C 0.4564(5) 0.7833(3) 0.55445(19)
H9 H 0.5343 0.8086 0.5468
C13 C 0.4477(4) 0.6967(3) 0.55978(17)
H10 H 0.5211 0.6634 0.5553
N6 N 0.0000 0.3863(3) 0.7500
C14 C 0.0600(5) 0.3426(3) 0.78937(17)
H11 H 0.1030 0.3727 0.8177
C15 C 0.0622(5) 0.2556(3) 0.79063(19)
H12 H 0.1061 0.2267 0.8192
C16 C 0.0000 0.2118(4) 0.7500
H13 H 0.0000 0.1520 0.7500
N7 N 0.0000 0.6819(3) 0.7500
C17 C -0.0694(4) 0.7250(3) 0.78062(18)
H14 H -0.1193 0.6948 0.8025
C18 C -0.0716(5) 0.8127(3) 0.7818(2)
H15 H -0.1217 0.8417 0.8041
C19 C 0.0000 0.8564(4) 0.7500
H16 H 0.0000 0.9162 0.7500
C14A C -0.0600(5) 0.3426(3) 0.71063(17)
H11A H -0.1030 0.3727 0.6823
C15A C -0.0622(5) 0.2556(3) 0.70937(19)
H12A H -0.1061 0.2267 0.6808
C17A C 0.0694(4) 0.7250(3) 0.71938(18)
H14A H 0.1193 0.6948 0.6975
C18A C 0.0716(5) 0.8127(3) 0.7182(2)
H15A H 0.1217 0.8417 0.6959
Cd1A Cd -0.32993(3) 0.510859(17) 0.916877(10)
N1A N -0.6626(3) 0.5124(2) 0.99708(12)
C1A C -0.6324(4) 0.5052(2) 0.95604(14)
S1A S -0.59358(10) 0.49665(6) 0.89734(4)
N2A N -0.0031(4) 0.5303(2) 0.83721(12)
C2A C -0.0306(4) 0.5237(2) 0.87838(14)
S2A S -0.06559(10) 0.51512(6) 0.93770(4)
N3A N -0.3255(4) 0.5373(2) 0.83112(13)
C3A C -0.2984(4) 0.5369(2) 0.78981(15)
S3A S -0.26417(10) 0.53619(6) 0.73026(4)
N4A N -0.3132(3) 0.3652(2) 0.90137(13)
C4A C -0.2603(4) 0.3353(3) 0.86137(17)
H1A H -0.2277 0.3742 0.8386
C5A C -0.2505(5) 0.2502(3) 0.8514(2)
H2A H -0.2119 0.2313 0.8224
C6A C -0.2972(5) 0.1938(3) 0.8839(2)
H3A H -0.2917 0.1350 0.8779
C7A C -0.3522(5) 0.2232(3) 0.9253(2)
H4A H -0.3853 0.1853 0.9485
C8A C -0.3584(5) 0.3097(3) 0.93263(19)
H5A H -0.3968 0.3301 0.9613
N5A N -0.3411(3) 0.65801(19) 0.92905(13)
C9A C -0.2397(4) 0.7063(3) 0.92258(19)
H6A H -0.1633 0.6800 0.9141
C10A C -0.2412(5) 0.7931(3) 0.9277(2)
H7A H -0.1669 0.8253 0.9231
C11A C -0.3501(5) 0.8318(3) 0.9395(2)
H8A H -0.3527 0.8912 0.9436
C12A C -0.4564(5) 0.7833(3) 0.94555(19)
H9A H -0.5343 0.8086 0.9532
C13A C -0.4477(4) 0.6967(3) 0.94022(17)
H10A H -0.5211 0.6634 0.9447
Cd1D Cd 0.67007(3) 0.489141(17) 0.416877(10)
Cd1E Cd -0.67007(3) 0.489141(17) 1.083123(10)
N1D N 0.3374(3) 0.4876(2) 0.49708(12)
N1E N -0.3374(3) 0.4876(2) 1.00292(12)
loop_
_geom_bond_atom_site_label_1
_geom_bond_atom_site_label_2
_geom_bond_site_symmetry_1
_geom_bond_site_symmetry_2
Cd1 S1 1_555 1_555
Cd2 N2 1_555 1_555
N1 C1 1_555 1_555
C1 S1 1_555 1_555
N2 C2 1_555 1_555
C2 S2 1_555 1_555
S2 Cd1 1_555 1_555
N3 Cd1 1_555 1_555
C3 N3 1_555 1_555
S3 Cd2 1_555 1_555
N4 Cd1 1_555 1_555
C4 N4 1_555 1_555
H1 C4 1_555 1_555
C5 C4 1_555 1_555
H2 C5 1_555 1_555
C6 C5 1_555 1_555
H3 C6 1_555 1_555
C7 C6 1_555 1_555
H4 C7 1_555 1_555
C8 N4 1_555 1_555
H5 C8 1_555 1_555
N5 Cd1 1_555 1_555
C9 N5 1_555 1_555
H6 C9 1_555 1_555
C10 C9 1_555 1_555
H7 C10 1_555 1_555
C11 C10 1_555 1_555
H8 C11 1_555 1_555
C12 C11 1_555 1_555
H9 C12 1_555 1_555
C13 N5 1_555 1_555
H10 C13 1_555 1_555
N6 Cd2 1_555 1_555
C14 N6 1_555 1_555
H11 C14 1_555 1_555
C15 C14 1_555 1_555
H12 C15 1_555 1_555
C16 C15 1_555 1_555
H13 C16 1_555 1_555
N7 Cd2 1_555 1_555
C17 N7 1_555 1_555
H14 C17 1_555 1_555
C18 C17 1_555 1_555
H15 C18 1_555 1_555
C19 C18 1_555 1_555
H16 C19 1_555 1_555
C14A N6 1_555 1_555
H11A C14A 1_555 1_555
C15A C16 1_555 1_555
H12A C15A 1_555 1_555
C17A N7 1_555 1_555
H14A C17A 1_555 1_555
C18A C19 1_555 1_555
H15A C18A 1_555 1_555
Cd1A S1A 1_555 1_555
N1A C1A 1_555 1_555
C1A S1A 1_555 1_555
N2A Cd2 1_555 1_555
C2A N2A 1_555 1_555
S2A Cd1A 1_555 1_555
N3A Cd1A 1_555 1_555
C3A N3A 1_555 1_555
S3A Cd2 1_555 1_555
N4A Cd1A 1_555 1_555
C4A N4A 1_555 1_555
H1A C4A 1_555 1_555
C5A C4A 1_555 1_555
H2A C5A 1_555 1_555
C6A C5A 1_555 1_555
H3A C6A 1_555 1_555
C7A C6A 1_555 1_555
H4A C7A 1_555 1_555
C8A N4A 1_555 1_555
H5A C8A 1_555 1_555
N5A Cd1A 1_555 1_555
C9A N5A 1_555 1_555
H6A C9A 1_555 1_555
C10A C9A 1_555 1_555
H7A C10A 1_555 1_555
C11A C10A 1_555 1_555
H8A C11A 1_555 1_555
C12A C11A 1_555 1_555
H9A C12A 1_555 1_555
C13A N5A 1_555 1_555
H10A C13A 1_555 1_555
Cd1D N1 1_555 1_555
Cd1E N1A 1_555 1_555
N1D Cd1 1_555 1_555
N1E Cd1A 1_555 1_555
C3 S3 1_555 1_555
C7 C8 1_555 1_555
C12 C13 1_555 1_555
C14A C15A 1_555 1_555
C17A C18A 1_555 1_555
C2A S2A 1_555 1_555
C3A S3A 1_555 1_555
C7A C8A 1_555 1_555
C12A C13A 1_555 1_555

#END
