
#######################################################################
#
#                 Cambridge Crystallographic Data Centre
#                                CCDC 
#
#######################################################################
#
# If this CIF has been generated from an entry in the Cambridge 
# Structural Database, then it will include bibliographic, chemical, 
# crystal, experimental, refinement or atomic coordinate data resulting 
# from the CCDC's data processing and validation procedures.
#
#######################################################################

data_AFEZIW
_symmetry_cell_setting           orthorhombic
_symmetry_space_group_name_H-M   'P c c n'
_symmetry_Int_Tables_number      56
_space_group_name_Hall           '-P 2ab 2ac'
loop_
_symmetry_equiv_pos_site_id
_symmetry_equiv_pos_as_xyz
1 x,y,z
2 1/2-x,1/2-y,z
3 -x,1/2+y,1/2-z
4 1/2+x,-y,1/2-z
5 -x,-y,-z
6 1/2+x,1/2+y,-z
7 x,1/2-y,1/2+z
8 1/2-x,y,1/2+z
_cell_length_a                   40.2343(7)
_cell_length_b                   8.15190(10)
_cell_length_c                   9.1011(2)
_cell_angle_alpha                90
_cell_angle_beta                 90
_cell_angle_gamma                90
_cell_volume                     2985.03
loop_
_atom_site_label
_atom_site_type_symbol
_atom_site_fract_x
_atom_site_fract_y
_atom_site_fract_z
Co1 Co 0.555261(7) 0.14241(3) 0.45853(3)
O1 O 0.59702(3) 0.13263(16) 0.32597(15)
O2 O 0.57861(3) 0.30082(17) 0.15252(14)
O3 O 0.94585(3) -0.1037(2) 0.00999(19)
O4 O 0.51034(4) 0.1772(2) 0.5857(2)
H1 H 0.4940(7) 0.195(4) 0.542(3)
H2 H 0.5051(6) 0.104(3) 0.627(3)
O5 O 0.52514(4) 0.0679(2) 0.27709(16)
H3 H 0.5185(7) 0.141(3) 0.224(3)
H4 H 0.5362(7) 0.012(3) 0.225(3)
O6 O 0.54461(4) 0.3825(2) 0.3920(2)
H5 H 0.5467(7) 0.473(4) 0.432(4)
H6 H 0.5544(6) 0.387(3) 0.318(3)
O7 O 0.94958(4) -0.35981(18) 0.07876(19)
C1 C 0.59964(5) 0.1976(2) 0.2014(2)
C2 C 0.62903(5) 0.1535(2) 0.1071(2)
H7 H 0.6338 0.2461 0.0400
H8 H 0.6232 0.0574 0.0458
C3 C 0.66012(5) 0.1140(3) 0.1938(2)
H9 H 0.6556 0.0185 0.2580
H10 H 0.6655 0.2084 0.2580
C4 C 0.69004(5) 0.0759(3) 0.0986(2)
H11 H 0.6946 0.1712 0.0343
H12 H 0.6848 -0.0189 0.0348
C5 C 0.72116(5) 0.0371(3) 0.1873(2)
H13 H 0.7263 0.1321 0.2512
H14 H 0.7164 -0.0578 0.2519
C6 C 0.75162(5) -0.0019(3) 0.0957(2)
H15 H 0.7565 0.0929 0.0311
H16 H 0.7466 -0.0971 0.0319
C7 C 0.78238(5) -0.0402(3) 0.1860(2)
H17 H 0.7776 -0.1349 0.2506
H18 H 0.7874 0.0551 0.2497
C8 C 0.81301(5) -0.0794(3) 0.0935(2)
H19 H 0.8078 -0.1730 0.0282
H20 H 0.8181 0.0163 0.0304
C9 C 0.84381(5) -0.1215(3) 0.1829(2)
H21 H 0.8492 -0.0280 0.2481
H22 H 0.8389 -0.2175 0.2459
C10 C 0.87380(5) -0.1598(2) 0.0887(2)
H23 H 0.8684 -0.2531 0.0234
H24 H 0.8787 -0.0637 0.0259
C11 C 0.90465(5) -0.2023(3) 0.1780(2)
H25 H 0.9006 -0.3055 0.2325
H26 H 0.9087 -0.1144 0.2509
C12 C 0.93522(5) -0.2226(2) 0.0840(2)
Co1F Co 0.555261(7) 0.35759(3) -0.04147(3)
Co1G Co 0.944739(7) 0.14241(3) -0.04147(3)
O2F O 0.57861(3) 0.19918(17) 0.65252(14)
O3G O 0.55415(3) -0.1037(2) 0.50999(19)
loop_
_geom_bond_atom_site_label_1
_geom_bond_atom_site_label_2
_geom_bond_site_symmetry_1
_geom_bond_site_symmetry_2
Co1 O1 1_555 1_555
O1 C1 1_555 1_555
O2 C1 1_555 1_555
O3 C12 1_555 1_555
O4 Co1 1_555 1_555
H1 O4 1_555 1_555
H2 O4 1_555 1_555
O5 Co1 1_555 1_555
H3 O5 1_555 1_555
H4 O5 1_555 1_555
O6 Co1 1_555 1_555
H5 O6 1_555 1_555
H6 O6 1_555 1_555
O7 C12 1_555 1_555
C1 C2 1_555 1_555
C2 H7 1_555 1_555
H8 C2 1_555 1_555
C3 C2 1_555 1_555
H9 C3 1_555 1_555
H10 C3 1_555 1_555
C4 C3 1_555 1_555
H11 C4 1_555 1_555
H12 C4 1_555 1_555
C5 C4 1_555 1_555
H13 C5 1_555 1_555
H14 C5 1_555 1_555
C6 C5 1_555 1_555
H15 C6 1_555 1_555
H16 C6 1_555 1_555
C7 C6 1_555 1_555
H17 C7 1_555 1_555
H18 C7 1_555 1_555
C8 C7 1_555 1_555
H19 C8 1_555 1_555
H20 C8 1_555 1_555
C9 C8 1_555 1_555
H21 C9 1_555 1_555
H22 C9 1_555 1_555
C10 C9 1_555 1_555
H23 C10 1_555 1_555
H24 C10 1_555 1_555
C11 C10 1_555 1_555
H25 C11 1_555 1_555
H26 C11 1_555 1_555
C12 C11 1_555 1_555
Co1F O2 1_555 1_555
Co1G O3 1_555 1_555
O2F Co1 1_555 1_555
O3G Co1 1_555 1_555

#END
