
#######################################################################
#
#                 Cambridge Crystallographic Data Centre
#                                CCDC 
#
#######################################################################
#
# If this CIF has been generated from an entry in the Cambridge 
# Structural Database, then it will include bibliographic, chemical, 
# crystal, experimental, refinement or atomic coordinate data resulting 
# from the CCDC's data processing and validation procedures.
#
#######################################################################

data_AFIDUP
_symmetry_cell_setting           monoclinic
_symmetry_space_group_name_H-M   'P 21/c'
_symmetry_Int_Tables_number      14
_space_group_name_Hall           '-P 2ybc'
loop_
_symmetry_equiv_pos_site_id
_symmetry_equiv_pos_as_xyz
1 x,y,z
2 -x,1/2+y,1/2-z
3 -x,-y,-z
4 x,1/2-y,1/2+z
_cell_length_a                   8.3857(7)
_cell_length_b                   20.1913(14)
_cell_length_c                   8.4229(7)
_cell_angle_alpha                90
_cell_angle_beta                 103.836(2)
_cell_angle_gamma                90
_cell_volume                     1384.77
loop_
_atom_site_label
_atom_site_type_symbol
_atom_site_fract_x
_atom_site_fract_y
_atom_site_fract_z
Ni1 Ni 0.0000 -0.5000 0.5000
O1 O 0.51308(17) -0.46501(8) 0.77007(19)
N1 N 0.14183(18) -0.41653(7) 0.09373(17)
N2 N -0.0216(2) -0.41518(9) 0.0260(2)
N3 N 0.02897(17) -0.45423(7) 0.28271(17)
N4 N 0.80765(18) -0.16302(7) 0.20798(18)
N5 N 0.9361(2) -0.19675(8) 0.1727(2)
N6 N 0.92675(17) -0.09213(7) 0.08018(17)
N7 N 0.24273(19) -0.47777(8) 0.60611(19)
C1 C 0.3763(2) -0.34433(9) 0.0773(2)
C2 C 0.5224(2) -0.35975(9) 0.1849(3)
H1 H 0.5502 -0.4048 0.2091
C3 C 0.6300(2) -0.31030(10) 0.2586(2)
H2 H 0.7306 -0.3219 0.3324
C4 C 0.5919(2) -0.24455(9) 0.2256(2)
C5 C 0.4459(3) -0.22902(10) 0.1158(3)
H3 H 0.4185 -0.1839 0.0911
C6 C 0.3389(3) -0.27837(10) 0.0412(3)
H4 H 0.2396 -0.2669 -0.0348
C7 C 0.2624(2) -0.39927(10) -0.0015(2)
H5 H 0.2033 -0.3853 -0.1127
H6 H 0.3282 -0.4390 -0.0123
C8 C -0.0831(2) -0.43847(10) 0.1443(2)
H7 H -0.1978 -0.4438 0.1333
C9 C 0.1696(2) -0.43981(9) 0.2452(2)
H8 H 0.2752 -0.4453 0.3164
C10 C 0.7068(3) -0.19111(10) 0.3107(2)
H9 H 0.6415 -0.1553 0.3445
H10 H 0.7797 -0.2098 0.4107
C11 C 1.0026(2) -0.15144(9) 0.0954(2)
H11 H -0.0964 -0.6600 0.4461
C12 C 0.1956(2) -0.60151(9) 0.3475(2)
H12 H 0.2740 -0.5689 0.3370
C13 C 0.3752(2) -0.47122(8) 0.6844(2)
Ni1C Ni 1.0000 0.0000 0.0000
Ni1C_2 Ni 1.0000 -1.0000 0.0000
O1B O -0.51308(17) -0.53499(8) 0.22993(19)
N1A N 0.85817(18) -0.91653(7) 0.40627(17)
N2A N 1.0216(2) -0.91518(9) 0.4740(2)
N3A N 0.97103(17) -0.95423(7) 0.21729(17)
N3B N -0.02897(17) -0.54577(7) 0.71729(17)
N4A N 0.19235(18) -0.66302(7) 0.29202(18)
N5A N 0.0639(2) -0.69675(8) 0.3273(2)
N6C N -0.07325(17) -0.40787(7) 0.58018(17)
N6A N 0.07325(17) -0.59213(7) 0.41982(17)
N7B N -0.24273(19) -0.52223(8) 0.39389(19)
C1A C 0.6237(2) -0.84433(9) 0.4227(2)
C2A C 0.4776(2) -0.85975(9) 0.3151(3)
H1A H 0.4498 -0.9048 0.2909
C3A C 0.3700(2) -0.81030(10) 0.2414(2)
H2A H 0.2694 -0.8219 0.1676
C4A C 0.4081(2) -0.74455(9) 0.2744(2)
C5A C 0.5541(3) -0.72902(10) 0.3842(3)
H3A H 0.5815 -0.6839 0.4089
C6A C 0.6611(3) -0.77837(10) 0.4588(3)
H4A H 0.7604 -0.7669 0.5348
C7A C 0.7376(2) -0.89927(10) 0.5015(2)
H5A H 0.7967 -0.8853 0.6127
H6A H 0.6718 -0.9390 0.5123
C8A C 1.0831(2) -0.93847(10) 0.3557(2)
H7A H 1.1978 -0.9438 0.3667
C9A C 0.8304(2) -0.93981(9) 0.2548(2)
H8A H 0.7248 -0.9453 0.1836
C10A C 0.2932(3) -0.69111(10) 0.1893(2)
H9A H 0.3585 -0.6553 0.1555
H10A H 0.2203 -0.7098 0.0893
C11A C -0.0026(2) -0.65144(9) 0.4046(2)
H11A H 1.0964 -0.1600 0.0539
C12A C 0.8044(2) -0.10151(9) 0.1525(2)
H12A H 0.7260 -0.0689 0.1630
C13B C -0.3752(2) -0.52878(8) 0.3156(2)
loop_
_geom_bond_atom_site_label_1
_geom_bond_atom_site_label_2
_geom_bond_site_symmetry_1
_geom_bond_site_symmetry_2
Ni1 N3 1_555 1_555
O1 C13 1_555 1_555
N1 N2 1_555 1_555
N2 C8 1_555 1_555
N3 C8 1_555 1_555
N4 N5 1_555 1_555
N5 C11 1_555 1_555
N6 C11 1_555 1_555
N7 Ni1 1_555 1_555
C1 C2 1_555 1_555
C2 H1 1_555 1_555
C3 C2 1_555 1_555
H2 C3 1_555 1_555
C4 C3 1_555 1_555
C5 C4 1_555 1_555
H3 C5 1_555 1_555
C6 C1 1_555 1_555
H4 C6 1_555 1_555
C7 N1 1_555 1_555
H5 C7 1_555 1_555
H6 C7 1_555 1_555
C8 H7 1_555 1_555
C9 N1 1_555 1_555
H8 C9 1_555 1_555
C10 N4 1_555 1_555
H9 C10 1_555 1_555
H10 C10 1_555 1_555
C11 H11A 1_555 1_555
H11 C11A 1_555 1_555
C12 H12 1_555 1_555
C13 N7 1_555 1_555
Ni1C N6 1_555 1_555
Ni1C_2 N3A 1_555 1_555
O1B C13B 1_555 1_555
N1A N2A 1_555 1_555
N2A C8A 1_555 1_555
N3A C8A 1_555 1_555
N3B Ni1 1_555 1_555
N4A C12 1_555 1_555
N5A N4A 1_555 1_555
N6C Ni1 1_555 1_555
N6A Ni1 1_555 1_555
N7B Ni1 1_555 1_555
C1A C2A 1_555 1_555
C2A H1A 1_555 1_555
C3A C2A 1_555 1_555
H2A C3A 1_555 1_555
C4A C3A 1_555 1_555
C5A C4A 1_555 1_555
H3A C5A 1_555 1_555
C6A C1A 1_555 1_555
H4A C6A 1_555 1_555
C7A N1A 1_555 1_555
H5A C7A 1_555 1_555
H6A C7A 1_555 1_555
C8A H7A 1_555 1_555
C9A N1A 1_555 1_555
H8A C9A 1_555 1_555
C10A N4A 1_555 1_555
H9A C10A 1_555 1_555
H10A C10A 1_555 1_555
C11A N5A 1_555 1_555
C12A N4 1_555 1_555
H12A C12A 1_555 1_555
C13B N7B 1_555 1_555
N3 C9 1_555 1_555
N6 C12A 1_555 1_555
C1 C7 1_555 1_555
C4 C10 1_555 1_555
C5 C6 1_555 1_555
C12 N6A 1_555 1_555
N3A C9A 1_555 1_555
N6A C11A 1_555 1_555
C1A C7A 1_555 1_555
C4A C10A 1_555 1_555
C5A C6A 1_555 1_555

#END
