
#######################################################################
#
#                 Cambridge Crystallographic Data Centre
#                                CCDC 
#
#######################################################################
#
# If this CIF has been generated from an entry in the Cambridge 
# Structural Database, then it will include bibliographic, chemical, 
# crystal, experimental, refinement or atomic coordinate data resulting 
# from the CCDC's data processing and validation procedures.
#
#######################################################################

data_AFIDEZ
_symmetry_cell_setting           orthorhombic
_symmetry_space_group_name_H-M   'P b c a'
_symmetry_Int_Tables_number      61
_space_group_name_Hall           '-P 2ac 2ab'
loop_
_symmetry_equiv_pos_site_id
_symmetry_equiv_pos_as_xyz
1 x,y,z
2 1/2-x,-y,1/2+z
3 -x,1/2+y,1/2-z
4 1/2+x,1/2-y,-z
5 -x,-y,-z
6 1/2+x,y,1/2-z
7 x,1/2-y,1/2+z
8 1/2-x,1/2+y,z
_cell_length_a                   10.2676(8)
_cell_length_b                   9.7330(8)
_cell_length_c                   10.8624(9)
_cell_angle_alpha                90
_cell_angle_beta                 90
_cell_angle_gamma                90
_cell_volume                     1085.53
loop_
_atom_site_label
_atom_site_type_symbol
_atom_site_fract_x
_atom_site_fract_y
_atom_site_fract_z
Fe1 Fe 0.32292(3) -0.08355(3) 0.60678(3)
P1 P 0.40331(4) 0.22190(5) 0.45975(5)
Na1 Na 0.12401(8) 0.08426(8) 0.42567(8)
O1 O 0.32928(14) 0.10193(14) 0.51501(14)
O2 O 0.55078(13) 0.21517(14) 0.47584(13)
O3 O 0.35155(13) 0.36102(14) 0.50091(13)
O4 O 0.23680(13) 0.22206(14) 0.26531(13)
H1 H 0.2240 0.3109 0.2565
O5 O 0.31444(13) -0.01869(14) 0.22376(14)
O6 O 0.52360(13) 0.01846(14) 0.26669(13)
C1 C 0.37309(18) 0.20391(19) 0.29329(18)
H2 H 0.4263 0.2693 0.2466
C2 C 0.40747(18) 0.0568(2) 0.25833(18)
Fe1G Fe 0.17708(3) 0.41645(3) 0.60678(3)
Fe1D Fe 0.67708(3) 0.08355(3) 0.39322(3)
Fe1A Fe 0.17708(3) 0.08355(3) 0.10678(3)
Na1C Na 0.62401(8) 0.41574(8) 0.57433(8)
Na1E Na 0.62401(8) 0.08426(8) 0.07433(8)
Na1G Na 0.37599(8) 0.58426(8) 0.42567(8)
O2D O 0.44922(13) -0.21517(14) 0.52416(13)
O2C O 0.05078(13) 0.28483(14) 0.52416(13)
O3G O 0.14845(13) -0.13898(14) 0.50091(13)
O4A O 0.26320(13) -0.22206(14) 0.76531(13)
H1A H 0.2760 -0.3109 0.7565
O5A O 0.18556(13) 0.01869(14) 0.72376(14)
O6E O 0.02360(13) 0.01846(14) 0.23331(13)
O6D O 0.47640(13) -0.01846(14) 0.73331(13)
loop_
_geom_bond_atom_site_label_1
_geom_bond_atom_site_label_2
_geom_bond_site_symmetry_1
_geom_bond_site_symmetry_2
Fe1 O1 1_555 1_555
P1 O1 1_555 1_555
Na1 O1 1_555 1_555
O2 P1 1_555 1_555
O3 P1 1_555 1_555
O4 Na1 1_555 1_555
H1 O4 1_555 1_555
O5 C2 1_555 1_555
O6 C2 1_555 1_555
C1 P1 1_555 1_555
H2 C1 1_555 1_555
C2 C1 1_555 1_555
Fe1G O3 1_555 1_555
Fe1D O2 1_555 1_555
Fe1A O4 1_555 1_555
Na1C O2 1_555 1_555
Na1E O6 1_555 1_555
Na1G O3 1_555 1_555
O2D Fe1 1_555 1_555
O2C Na1 1_555 1_555
O3G Fe1 1_555 1_555
O4A Fe1 1_555 1_555
H1A O4A 1_555 1_555
O5A Fe1 1_555 1_555
O6E Na1 1_555 1_555
O6D Fe1 1_555 1_555
Na1 O3G 1_555 1_555
O4 C1 1_555 1_555
O5 Fe1A 1_555 1_555
O6 Fe1D 1_555 1_555
Fe1G O2C 1_555 1_555
Fe1A O6E 1_555 1_555

#END
