
#######################################################################
#
#                 Cambridge Crystallographic Data Centre
#                                CCDC 
#
#######################################################################
#
# If this CIF has been generated from an entry in the Cambridge 
# Structural Database, then it will include bibliographic, chemical, 
# crystal, experimental, refinement or atomic coordinate data resulting 
# from the CCDC's data processing and validation procedures.
#
#######################################################################

data_AFIDAV
_symmetry_cell_setting           orthorhombic
_symmetry_space_group_name_H-M   'P b c a'
_symmetry_Int_Tables_number      61
_space_group_name_Hall           '-P 2ac 2ab'
loop_
_symmetry_equiv_pos_site_id
_symmetry_equiv_pos_as_xyz
1 x,y,z
2 1/2-x,-y,1/2+z
3 -x,1/2+y,1/2-z
4 1/2+x,1/2-y,-z
5 -x,-y,-z
6 1/2+x,y,1/2-z
7 x,1/2-y,1/2+z
8 1/2-x,1/2+y,z
_cell_length_a                   8.6776(9)
_cell_length_b                   9.7953(10)
_cell_length_c                   16.7592(16)
_cell_angle_alpha                90
_cell_angle_beta                 90
_cell_angle_gamma                90
_cell_volume                     1424.53
loop_
_atom_site_label
_atom_site_type_symbol
_atom_site_fract_x
_atom_site_fract_y
_atom_site_fract_z
Ni1 Ni 0.12817(4) -0.00201(3) 0.134840(19)
P1 P -0.20083(7) 0.13589(7) 0.13742(4)
O1 O -0.2725(2) 0.27285(19) 0.12260(11)
O2 O -0.0526(2) 0.10843(19) 0.09274(10)
O3 O -0.3268(2) 0.0253(2) 0.11674(12)
H1 H -0.2887 -0.0511 0.1198
O4 O -0.2941(2) 0.14671(17) 0.28985(10)
H2 H -0.2981 0.2294 0.2973
O5 O -0.18548(19) -0.09508(17) 0.31593(10)
O6 O 0.00059(19) -0.08174(17) 0.22600(11)
O7 O 0.2642(3) 0.0773(2) 0.04608(12)
H3 H 0.316(3) 0.150(2) 0.053(2)
H4 H 0.294(4) 0.037(3) 0.0042(13)
O8 O 0.0632(2) -0.17173(19) 0.06738(11)
H5 H 0.044(3) -0.154(3) 0.0186(8)
H6 H -0.0264(17) -0.194(3) 0.0817(17)
C1 C -0.1601(3) 0.1148(3) 0.24425(15)
H7 H -0.0772 0.1776 0.2594
C2 C -0.1097(3) -0.0304(3) 0.26311(15)
Ni1E Ni -0.37183(4) -0.00201(3) 0.365160(19)
O4E O 0.2059(2) 0.14671(17) 0.21015(10)
H2E H 0.2019 0.2294 0.2027
O5E O 0.31452(19) -0.09508(17) 0.18407(10)
loop_
_geom_bond_atom_site_label_1
_geom_bond_atom_site_label_2
_geom_bond_site_symmetry_1
_geom_bond_site_symmetry_2
Ni1 O2 1_555 1_555
P1 O1 1_555 1_555
O2 P1 1_555 1_555
O3 P1 1_555 1_555
H1 O3 1_555 1_555
O4 H2 1_555 1_555
O5 C2 1_555 1_555
O6 Ni1 1_555 1_555
O7 Ni1 1_555 1_555
H3 O7 1_555 1_555
H4 O7 1_555 1_555
O8 Ni1 1_555 1_555
H5 O8 1_555 1_555
H6 O8 1_555 1_555
C1 P1 1_555 1_555
H7 C1 1_555 1_555
C2 O6 1_555 1_555
Ni1E O4 1_555 1_555
O4E Ni1 1_555 1_555
H2E O4E 1_555 1_555
O5E Ni1 1_555 1_555
O4 C1 1_555 1_555
O5 Ni1E 1_555 1_555
C1 C2 1_555 1_555

#END
