
#######################################################################
#
#                 Cambridge Crystallographic Data Centre
#                                CCDC 
#
#######################################################################
#
# If this CIF has been generated from an entry in the Cambridge 
# Structural Database, then it will include bibliographic, chemical, 
# crystal, experimental, refinement or atomic coordinate data resulting 
# from the CCDC's data processing and validation procedures.
#
#######################################################################

data_AFILEH
_symmetry_cell_setting           trigonal
_symmetry_space_group_name_H-M   'P 32'
_symmetry_Int_Tables_number      145
_space_group_name_Hall           'P 32'
loop_
_symmetry_equiv_pos_site_id
_symmetry_equiv_pos_as_xyz
1 x,y,z
2 -y,x-y,2/3+z
3 -x+y,-x,1/3+z
_cell_length_a                   18.2380(14)
_cell_length_b                   18.2380(14)
_cell_length_c                   14.286(2)
_cell_angle_alpha                90
_cell_angle_beta                 90
_cell_angle_gamma                120
_cell_volume                     4115.25
loop_
_atom_site_label
_atom_site_type_symbol
_atom_site_fract_x
_atom_site_fract_y
_atom_site_fract_z
Cu1 Cu 0.51157(4) 0.28059(4) 0.30472(5)
Cu2 Cu 0.75321(5) 0.79784(5) 0.12887(5)
N1 N 0.6002(3) 0.2939(3) 0.3914(4)
N2 N 0.4615(3) 0.1598(3) 0.2795(3)
N3 N 0.7820(3) 0.8422(4) 0.2607(4)
N4 N 0.7317(4) 0.7596(4) -0.0056(4)
O1 O 0.5728(3) 0.3935(3) 0.2624(3)
O2 O 0.4080(3) 0.2798(3) 0.2854(3)
O3 O 0.7415(3) 0.6896(3) 0.1673(3)
O4 O 0.8708(3) 0.7405(3) 0.2279(4)
O5 O 0.1423(3) 0.2379(3) 0.4213(4)
O6 O 0.0418(4) 0.1091(4) 0.3778(5)
O7 O 0.6034(4) 0.7411(4) 0.1514(5)
C1 C 0.5526(4) 0.1468(4) 0.4351(4)
C2 C 0.5716(3) 0.2273(4) 0.4603(4)
C3 C 0.5569(4) 0.2465(4) 0.5521(4)
H1 H 0.5719 0.3029 0.5681
C4 C 0.5210(5) 0.1835(4) 0.6176(4)
H2 H 0.5109 0.1965 0.6789
C5 C 0.4987(4) 0.0993(4) 0.5954(4)
C6 C 0.4582(5) 0.0320(5) 0.6595(5)
H3 H 0.4484 0.0439 0.7214
C7 C 0.4331(5) -0.0484(5) 0.6359(5)
H4 H 0.4045 -0.0922 0.6806
C8 C 0.4488(5) -0.0688(4) 0.5447(5)
H5 H 0.4329 -0.1255 0.5291
C9 C 0.4870(4) -0.0057(4) 0.4804(5)
H6 H 0.4960 -0.0194 0.4189
C10 C 0.5140(4) 0.0799(4) 0.5022(4)
C11 C 0.5679(4) 0.1271(3) 0.3379(4)
C12 C 0.5191(4) 0.1291(4) 0.2636(4)
C13 C 0.5285(4) 0.1039(4) 0.1719(4)
H7 H 0.4952 0.1055 0.1218
C14 C 0.5849(4) 0.0776(4) 0.1562(4)
H8 H 0.5901 0.0606 0.0949
C15 C 0.6355(4) 0.0749(4) 0.2279(5)
C16 C 0.6957(5) 0.0470(5) 0.2115(6)
H9 H 0.7012 0.0298 0.1504
C17 C 0.7443(5) 0.0449(6) 0.2815(6)
H10 H 0.7833 0.0260 0.2693
C18 C 0.7373(4) 0.0712(5) 0.3747(6)
H11 H 0.7717 0.0695 0.4236
C19 C 0.6814(4) 0.0983(4) 0.3925(5)
H12 H 0.6776 0.1159 0.4541
C20 C 0.6284(4) 0.1009(4) 0.3203(4)
C21 C 0.6715(4) 0.3635(4) 0.4048(4)
H13 H 0.7069 0.3637 0.4537
C22 C 0.7016(4) 0.4407(4) 0.3516(4)
C23 C 0.6499(4) 0.4520(4) 0.2863(4)
C24 C 0.6831(4) 0.5323(4) 0.2447(4)
H14 H 0.6487 0.5418 0.2021
C25 C 0.7640(4) 0.5980(4) 0.2637(4)
C26 C 0.8160(4) 0.5851(4) 0.3274(5)
H15 H 0.8723 0.6289 0.3398
C27 C 0.7827(4) 0.5065(4) 0.3714(5)
H16 H 0.8163 0.4977 0.4160
C28 C 0.7961(4) 0.6830(4) 0.2174(4)
C29 C 0.3822(4) 0.1084(4) 0.2619(4)
H17 H 0.3666 0.0542 0.2371
C30 C 0.3166(4) 0.1282(4) 0.2776(4)
C31 C 0.3341(4) 0.2127(4) 0.2942(4)
C32 C 0.2640(4) 0.2214(4) 0.3230(4)
H18 H 0.2724 0.2766 0.3331
C33 C 0.1855(4) 0.1535(4) 0.3366(5)
C34 C 0.1666(4) 0.0708(5) 0.3134(5)
H19 H 0.1106 0.0242 0.3180
C35 C 0.2323(4) 0.0603(4) 0.2837(5)
H20 H 0.2207 0.0052 0.2667
C36 C 0.1156(4) 0.1656(5) 0.3810(5)
C37 C 0.8503(5) 0.9143(5) 0.2819(6)
H21 H 0.8899 0.9456 0.2341
C38 C 0.8659(5) 0.9463(6) 0.3745(7)
H22 H 0.9153 0.9986 0.3891
C39 C 0.8097(6) 0.9014(7) 0.4410(7)
H23 H 0.8175 0.9228 0.5031
C40 C 0.7399(7) 0.8236(7) 0.4195(7)
H24 H 0.7006 0.7894 0.4663
C41 C 0.7304(6) 0.7987(6) 0.3296(6)
H25 H 0.6826 0.7455 0.3146
C42 C 0.7653(5) 0.7195(5) -0.0463(5)
H26 H 0.8000 0.7057 -0.0094
C43 C 0.7540(6) 0.6959(6) -0.1390(6)
H27 H 0.7824 0.6692 -0.1656
C44 C 0.7023(7) 0.7113(6) -0.1907(6)
H28 H 0.6906 0.6927 -0.2538
C45 C 0.6655(6) 0.7556(6) -0.1503(6)
H29 H 0.6304 0.7698 -0.1860
C46 C 0.6817(5) 0.7774(5) -0.0590(6)
H30 H 0.6566 0.8068 -0.0311
C47 C 0.5743(10) 0.8005(17) 0.174(2)
Cu2B Cu 0.04463(7) 0.24679(5) 0.46220(5)
O5A O 0.7621(3) 0.9044(4) 0.0880(4)
C48 C 0.3550(17) 0.8726(19) 0.263(2)
O8 O 0.3058(4) 0.9034(5) 0.2583(5)
C49 C 0.1008(9) 0.7191(9) 0.2368(10)
O9 O 0.1393(4) 0.7927(4) 0.3000(5)
C50 C -0.0056(6) 0.8397(6) 0.4204(7)
O10 O 0.0135(4) 0.8252(4) 0.3293(5)
C51 C 0.3702(10) 0.3950(9) 0.1427(11)
O11 O 0.4273(8) 0.4333(8) 0.2107(9)
C52 C 0.0874(17) 0.4933(17) 0.6756(19)
O12 O 0.0906(8) 0.4947(8) 0.5820(9)
O13 O 0.3451(19) -0.3014(19) 0.470(2)
loop_
_geom_bond_atom_site_label_1
_geom_bond_atom_site_label_2
_geom_bond_site_symmetry_1
_geom_bond_site_symmetry_2
Cu1 N1 1_555 1_555
Cu2 N3 1_555 1_555
N1 C2 1_555 1_555
N2 Cu1 1_555 1_555
N3 C37 1_555 1_555
N4 Cu2 1_555 1_555
O1 Cu1 1_555 1_555
O2 Cu1 1_555 1_555
O3 Cu2 1_555 1_555
O4 C28 1_555 1_555
O5 C36 1_555 1_555
O6 C36 1_555 1_555
O7 Cu2 1_555 1_555
C1 C2 1_555 1_555
C2 C3 1_555 1_555
C3 H1 1_555 1_555
C4 C3 1_555 1_555
H2 C4 1_555 1_555
C5 C4 1_555 1_555
C6 C5 1_555 1_555
H3 C6 1_555 1_555
C7 C6 1_555 1_555
H4 C7 1_555 1_555
C8 C7 1_555 1_555
H5 C8 1_555 1_555
C9 C8 1_555 1_555
H6 C9 1_555 1_555
C10 C1 1_555 1_555
C11 C1 1_555 1_555
C12 N2 1_555 1_555
C13 C12 1_555 1_555
H7 C13 1_555 1_555
C14 C13 1_555 1_555
H8 C14 1_555 1_555
C15 C14 1_555 1_555
C16 C15 1_555 1_555
H9 C16 1_555 1_555
C17 C16 1_555 1_555
H10 C17 1_555 1_555
C18 C17 1_555 1_555
H11 C18 1_555 1_555
C19 C18 1_555 1_555
H12 C19 1_555 1_555
C20 C11 1_555 1_555
C21 N1 1_555 1_555
H13 C21 1_555 1_555
C22 C21 1_555 1_555
C23 O1 1_555 1_555
C24 C23 1_555 1_555
H14 C24 1_555 1_555
C25 C24 1_555 1_555
C26 C25 1_555 1_555
H15 C26 1_555 1_555
C27 C22 1_555 1_555
H16 C27 1_555 1_555
C28 O3 1_555 1_555
C29 N2 1_555 1_555
H17 C29 1_555 1_555
C30 C29 1_555 1_555
C31 O2 1_555 1_555
C32 C31 1_555 1_555
H18 C32 1_555 1_555
C33 C32 1_555 1_555
C34 C33 1_555 1_555
H19 C34 1_555 1_555
C35 C30 1_555 1_555
H20 C35 1_555 1_555
C36 C33 1_555 1_555
C37 H21 1_555 1_555
C38 C37 1_555 1_555
H22 C38 1_555 1_555
C39 C38 1_555 1_555
H23 C39 1_555 1_555
C40 C39 1_555 1_555
H24 C40 1_555 1_555
C41 N3 1_555 1_555
H25 C41 1_555 1_555
C42 N4 1_555 1_555
H26 C42 1_555 1_555
C43 C42 1_555 1_555
H27 C43 1_555 1_555
C44 C43 1_555 1_555
H28 C44 1_555 1_555
C45 C44 1_555 1_555
H29 C45 1_555 1_555
C46 N4 1_555 1_555
H30 C46 1_555 1_555
C47 O7 1_555 1_555
C48 O8 1_555 1_555
C49 O9 1_555 1_555
C50 O10 1_555 1_555
C51 O11 1_555 1_555
C52 O12 1_555 1_555
Cu2B O5 1_555 1_555
O5A Cu2 1_555 1_555
C5 C10 1_555 1_555
C9 C10 1_555 1_555
C11 C12 1_555 1_555
C15 C20 1_555 1_555
C19 C20 1_555 1_555
C22 C23 1_555 1_555
C25 C28 1_555 1_555
C26 C27 1_555 1_555
C30 C31 1_555 1_555
C34 C35 1_555 1_555
C40 C41 1_555 1_555
C45 C46 1_555 1_555

#END
