
#######################################################################
#
#                 Cambridge Crystallographic Data Centre
#                                CCDC 
#
#######################################################################
#
# If this CIF has been generated from an entry in the Cambridge 
# Structural Database, then it will include bibliographic, chemical, 
# crystal, experimental, refinement or atomic coordinate data resulting 
# from the CCDC's data processing and validation procedures.
#
#######################################################################

data_AFIPUB
_symmetry_cell_setting           monoclinic
_symmetry_space_group_name_H-M   'P 21/c'
_symmetry_Int_Tables_number      14
_space_group_name_Hall           '-P 2ybc'
loop_
_symmetry_equiv_pos_site_id
_symmetry_equiv_pos_as_xyz
1 x,y,z
2 -x,1/2+y,1/2-z
3 -x,-y,-z
4 x,1/2-y,1/2+z
_cell_length_a                   8.2631(7)
_cell_length_b                   12.0373(11)
_cell_length_c                   6.2297(6)
_cell_angle_alpha                90
_cell_angle_beta                 102.8760(10)
_cell_angle_gamma                90
_cell_volume                     604.059
loop_
_atom_site_label
_atom_site_type_symbol
_atom_site_fract_x
_atom_site_fract_y
_atom_site_fract_z
C1 C 0.3870(5) 0.5935(3) 0.3032(6)
C2 C 0.3207(5) 0.7045(3) 0.3250(6)
C3 C 0.1599(5) 0.6556(3) 0.3342(6)
C4 C 0.2283(5) 0.5457(3) 0.3190(6)
Cd1 Cd 0.77321(3) 0.63061(2) 0.31739(4)
O1 O 0.5224(3) 0.5542(2) 0.2804(5)
O2 O 0.3772(3) 0.8009(2) 0.3352(5)
O3 O 0.0259(3) 0.6984(2) 0.3533(5)
O4 O 0.1747(3) 0.4461(2) 0.3228(4)
O5 O 0.8397(3) 0.4700(2) 0.1779(5)
H1 H 0.9319 0.4467 0.2538
H2 H 0.7641 0.4225 0.1801
O6 O 0.7011(3) 0.8034(2) 0.4369(4)
H3 H 0.7416 0.8546 0.3709
H4 H 0.5960 0.8093 0.4098
Cd1_2 Cd -0.22679(3) 0.63061(2) 0.31739(4)
Cd1B Cd 0.22679(3) 0.36939(2) 0.68261(4)
Cd1C Cd 0.77321(3) 0.86939(2) 0.81739(4)
O3_2 O 1.0259(3) 0.6984(2) 0.3533(5)
O4B O 0.8253(3) 0.5539(2) 0.6772(4)
O6C O 0.7011(3) 0.6966(2) -0.0631(4)
H3C H 0.7416 0.6454 -0.1291
H4C H 0.5960 0.6907 -0.0902
loop_
_geom_bond_atom_site_label_1
_geom_bond_atom_site_label_2
_geom_bond_site_symmetry_1
_geom_bond_site_symmetry_2
C1 C2 1_555 1_555
C2 C3 1_555 1_555
C3 C4 1_555 1_555
C4 C1 1_555 1_555
Cd1 O1 1_555 1_555
O1 C1 1_555 1_555
O2 C2 1_555 1_555
O3 C3 1_555 1_555
O4 C4 1_555 1_555
O5 Cd1 1_555 1_555
H1 O5 1_555 1_555
H2 O5 1_555 1_555
O6 Cd1 1_555 1_555
H3 O6 1_555 1_555
H4 O6 1_555 1_555
Cd1_2 O3 1_555 1_555
Cd1B O4 1_555 1_555
Cd1C O6 1_555 1_555
O3_2 Cd1 1_555 1_555
O4B Cd1 1_555 1_555
O6C Cd1 1_555 1_555
H3C O6C 1_555 1_555
H4C O6C 1_555 1_555

#END
