
#######################################################################
#
#                 Cambridge Crystallographic Data Centre
#                                CCDC 
#
#######################################################################
#
# If this CIF has been generated from an entry in the Cambridge 
# Structural Database, then it will include bibliographic, chemical, 
# crystal, experimental, refinement or atomic coordinate data resulting 
# from the CCDC's data processing and validation procedures.
#
#######################################################################

data_AFITEP
_symmetry_cell_setting           monoclinic
_symmetry_space_group_name_H-M   'C 2/c'
_symmetry_Int_Tables_number      15
_space_group_name_Hall           '-C 2yn'
loop_
_symmetry_equiv_pos_site_id
_symmetry_equiv_pos_as_xyz
1 x,y,z
2 1/2+x,1/2+y,z
3 -x,y,1/2-z
4 1/2-x,1/2+y,1/2-z
5 -x,-y,-z
6 1/2-x,1/2-y,-z
7 x,-y,1/2+z
8 1/2+x,1/2-y,1/2+z
_cell_length_a                   28.848(7)
_cell_length_b                   6.1751(15)
_cell_length_c                   17.144(4)
_cell_angle_alpha                90
_cell_angle_beta                 98.838(4)
_cell_angle_gamma                90
_cell_volume                     3017.76
loop_
_atom_site_label
_atom_site_type_symbol
_atom_site_fract_x
_atom_site_fract_y
_atom_site_fract_z
Zn1 Zn 0.0000 0.58053(11) 0.2500
O1 O 0.05052(9) 0.7815(5) 0.28562(17)
O2 O 0.09814(10) 0.4992(6) 0.28341(19)
N1 N 0.00242(11) 0.3769(6) 0.1567(2)
C1 C 0.09076(13) 0.6879(7) 0.3001(2)
C2 C 0.12947(13) 0.8256(7) 0.3446(2)
C3 C 0.17461(14) 0.7380(8) 0.3648(3)
H1 H 0.1812 0.5956 0.3486
C4 C 0.12019(14) 1.0322(8) 0.3682(2)
H2 H 0.0897 1.0913 0.3538
C5 C 0.15499(15) 1.1555(8) 0.4129(3)
H3 H 0.1480 1.2971 0.4294
C6 C 0.20925(14) 0.8610(8) 0.4084(3)
H4 H 0.2399 0.8027 0.4218
C7 C 0.19981(14) 1.0714(8) 0.4333(3)
C8 C 0.23547(15) 1.1960(9) 0.4803(3)
C9 C 0.03001(16) 0.1996(8) 0.1635(2)
H5 H 0.0507 0.1778 0.2115
C10 C -0.02629(13) 0.4042(7) 0.0883(2)
H6 H -0.0461 0.5279 0.0823
C11 C -0.02842(14) 0.2614(7) 0.0264(2)
H7 H -0.0495 0.2876 -0.0209
C12 C 0.02970(16) 0.0508(8) 0.1053(3)
H8 H 0.0495 -0.0725 0.1134
C13 C 0.00009(13) 0.0788(7) 0.0329(2)
Zn1G Zn 0.5000 1.91947(11) 0.7500
Zn1F Zn 0.0000 -0.58053(11) -0.2500
O1E O 0.44948(9) 1.7185(5) 0.71438(17)
O1B O -0.05052(9) 0.7815(5) 0.21438(17)
O2E O 0.40186(10) 2.0008(6) 0.71659(19)
N1D N -0.00242(11) -0.3769(6) -0.1567(2)
N1B N -0.00242(11) 0.3769(6) 0.3433(2)
C1E C 0.40924(13) 1.8121(7) 0.6999(2)
C2E C 0.37053(13) 1.6744(7) 0.6554(2)
C3E C 0.32539(14) 1.7620(8) 0.6352(3)
H1E H 0.3188 1.9044 0.6514
C4E C 0.37981(14) 1.4678(8) 0.6318(2)
H2E H 0.4103 1.4087 0.6462
C5E C 0.34501(15) 1.3445(8) 0.5871(3)
H3E H 0.3520 1.2029 0.5706
C6E C 0.29075(14) 1.6390(8) 0.5916(3)
H4E H 0.2601 1.6973 0.5782
C7E C 0.30019(14) 1.4286(8) 0.5667(3)
C8E C 0.26453(15) 1.3040(9) 0.5197(3)
C9D C -0.03001(16) -0.1996(8) -0.1635(2)
H5D H -0.0507 -0.1778 -0.2115
C10D C 0.02629(13) -0.4042(7) -0.0883(2)
H6D H 0.0461 -0.5279 -0.0823
C11D C 0.02842(14) -0.2614(7) -0.0264(2)
H7D H 0.0495 -0.2876 0.0209
C12D C -0.02970(16) -0.0508(8) -0.1053(3)
H8D H -0.0495 0.0725 -0.1134
C13D C -0.00009(13) -0.0788(7) -0.0329(2)
O3 O 0.1206(2) 0.4702(12) 0.0431(4)
N2 N 0.1616(2) 0.2336(15) 0.1249(4)
C14 C 0.1338(2) 0.2828(13) 0.0605(4)
H9 H 0.1229 0.1695 0.0248
C15 C 0.1805(4) 0.348(3) 0.1842(7)
H10 H 0.1746 0.5019 0.1728
H11 H 0.2144 0.3220 0.1939
H12 H 0.1670 0.3073 0.2312
C16 C 0.1702(4) -0.011(2) 0.1391(6)
H13 H 0.1992 -0.0535 0.1198
H14 H 0.1438 -0.0930 0.1108
H15 H 0.1732 -0.0416 0.1957
loop_
_geom_bond_atom_site_label_1
_geom_bond_atom_site_label_2
_geom_bond_site_symmetry_1
_geom_bond_site_symmetry_2
Zn1 O1 1_555 1_555
O1 C1 1_555 1_555
O2 C1 1_555 1_555
N1 Zn1 1_555 1_555
C1 C2 1_555 1_555
C2 C3 1_555 1_555
C3 H1 1_555 1_555
C4 C2 1_555 1_555
H2 C4 1_555 1_555
C5 C4 1_555 1_555
H3 C5 1_555 1_555
C6 C3 1_555 1_555
H4 C6 1_555 1_555
C7 C5 1_555 1_555
C8 C7 1_555 1_555
C9 N1 1_555 1_555
H5 C9 1_555 1_555
C10 N1 1_555 1_555
H6 C10 1_555 1_555
C11 C10 1_555 1_555
H7 C11 1_555 1_555
C12 C9 1_555 1_555
H8 C12 1_555 1_555
C13 C11 1_555 1_555
O3 C14 1_555 1_555
N2 C14 1_555 1_555
C14 H9 1_555 1_555
C15 N2 1_555 1_555
H10 C15 1_555 1_555
H11 C15 1_555 1_555
H12 C15 1_555 1_555
C16 N2 1_555 1_555
H13 C16 1_555 1_555
H14 C16 1_555 1_555
H15 C16 1_555 1_555
Zn1G O1E 1_555 1_555
Zn1F N1D 1_555 1_555
O1E C1E 1_555 1_555
O1B Zn1 1_555 1_555
O2E C1E 1_555 1_555
N1D C9D 1_555 1_555
N1B Zn1 1_555 1_555
C1E C2E 1_555 1_555
C2E C3E 1_555 1_555
C3E H1E 1_555 1_555
C4E C2E 1_555 1_555
H2E C4E 1_555 1_555
C5E C4E 1_555 1_555
H3E C5E 1_555 1_555
C6E C3E 1_555 1_555
H4E C6E 1_555 1_555
C7E C5E 1_555 1_555
C8E C8 1_555 1_555
C9D H5D 1_555 1_555
C10D N1D 1_555 1_555
H6D C10D 1_555 1_555
C11D C10D 1_555 1_555
H7D C11D 1_555 1_555
C12D C9D 1_555 1_555
H8D C12D 1_555 1_555
C13D C13 1_555 1_555
C6 C7 1_555 1_555
C12 C13 1_555 1_555
C6E C7E 1_555 1_555
C7E C8E 1_555 1_555
C11D C13D 1_555 1_555
C12D C13D 1_555 1_555

#END
