
#######################################################################
#
#                 Cambridge Crystallographic Data Centre
#                                CCDC 
#
#######################################################################
#
# If this CIF has been generated from an entry in the Cambridge 
# Structural Database, then it will include bibliographic, chemical, 
# crystal, experimental, refinement or atomic coordinate data resulting 
# from the CCDC's data processing and validation procedures.
#
#######################################################################

data_AFOHIN
_symmetry_cell_setting           monoclinic
_symmetry_space_group_name_H-M   'P 21/n'
_symmetry_Int_Tables_number      14
_space_group_name_Hall           '-P 2yn'
loop_
_symmetry_equiv_pos_site_id
_symmetry_equiv_pos_as_xyz
1 x,y,z
2 1/2-x,1/2+y,1/2-z
3 -x,-y,-z
4 1/2+x,1/2-y,1/2+z
_cell_length_a                   15.190(2)
_cell_length_b                   7.5253(11)
_cell_length_c                   23.672(4)
_cell_angle_alpha                90.00
_cell_angle_beta                 93.114(2)
_cell_angle_gamma                90.00
_cell_volume                     2701.93
loop_
_atom_site_label
_atom_site_type_symbol
_atom_site_fract_x
_atom_site_fract_y
_atom_site_fract_z
Zn1 Zn 0.030936(14) 0.23754(2) 0.012635(9)
N1 N -0.15161(11) 0.27268(19) -0.03819(8)
N2 N -0.08157(10) 0.37071(19) -0.02330(7)
N3 N -0.03564(11) 0.0777(2) 0.06552(6)
O1 O 0.14578(13) 0.0974(2) 0.04717(9)
N4 N -0.05595(12) 0.1266(2) 0.11717(7)
C1 C -0.07756(13) -0.0250(3) 0.14256(8)
C2 C -0.21235(12) 0.3894(2) -0.05826(8)
C3 C -0.30150(13) 0.3410(3) -0.07985(8)
C4 C -0.10657(14) -0.0328(3) 0.20084(8)
C5 C -0.07632(15) -0.1629(3) 0.23938(8)
C6 C -0.37494(13) 0.4434(3) -0.06689(9)
C7 C -0.31129(15) 0.1952(3) -0.11544(9)
H1 H -0.2624 0.1266 -0.1230
C8 C -0.01107(16) -0.3018(3) 0.22605(9)
C9 C -0.16571(16) 0.0953(3) 0.21742(10)
H2 H -0.1841 0.1837 0.1920
C10 C -0.32406(14) 0.5928(3) 0.02422(9)
H3 H -0.3008 0.4853 0.0374
C11 C -0.03078(17) -0.4797(3) 0.23259(10)
H4 H -0.0862 -0.5120 0.2440
C12 C -0.36798(14) 0.5995(3) -0.02858(9)
C13 C -0.39302(17) 0.1510(3) -0.13976(10)
H5 H -0.3992 0.0540 -0.1640
C14 C -0.19768(18) 0.0939(4) 0.27091(11)
H6 H -0.2376 0.1799 0.2814
C15 C -0.45610(15) 0.3932(4) -0.09164(11)
H7 H -0.5060 0.4578 -0.0835
C16 C -0.16972(19) -0.0361(4) 0.30836(11)
H8 H -0.1915 -0.0391 0.3443
C17 C -0.34781(17) 0.9041(3) 0.03997(11)
C18 C -0.31416(18) 0.7422(3) 0.05750(11)
H9 H -0.2840 0.7335 0.0927
C19 C -0.39353(18) 0.9109(4) -0.01208(12)
H10 H -0.4180 1.0181 -0.0246
C20 C 0.13273(19) -0.3920(4) 0.19954(11)
H11 H 0.1885 -0.3608 0.1885
C21 C 0.0298(2) -0.6099(4) 0.22255(10)
H12 H 0.0143 -0.7284 0.2271
C22 C 0.1793(3) -0.7126(5) 0.19571(15)
H13 H 0.2334 -0.6583 0.1855
H14 H 0.1573 -0.7885 0.1656
H15 H 0.1899 -0.7816 0.2295
C23 C -0.40368(18) 0.7619(3) -0.04599(12)
H16 H -0.4347 0.7705 -0.0808
C24 C -0.10958(18) -0.1623(4) 0.29318(10)
H17 H -0.0908 -0.2486 0.3193
C25 C 0.1120(2) -0.5698(4) 0.20605(10)
C26 C 0.0719(2) -0.2595(3) 0.20922(12)
H18 H 0.0872 -0.1410 0.2043
C27 C -0.46481(18) 0.2510(4) -0.12787(13)
H19 H -0.5199 0.2225 -0.1444
C28 C -0.3340(3) 1.0706(4) 0.07539(14)
H20 H -0.3616 1.1697 0.0560
H21 H -0.2720 1.0931 0.0815
H22 H -0.3598 1.0545 0.1112
N5 N -0.04492(10) -0.0959(2) 0.06007(7)
N6 N -0.07120(11) -0.1633(2) 0.10806(7)
N7 N -0.09925(10) 0.53985(19) -0.03407(7)
N8 N -0.18143(11) 0.5551(2) -0.05606(7)
H23 H 0.1548(19) -0.013(5) 0.0440(13)
H24 H 0.188(2) 0.143(5) 0.0500(14)
Zn1B Zn -0.030936(14) -0.23754(2) -0.012635(9)
Zn1B_2 Zn -0.030936(14) 0.76246(2) -0.012635(9)
N5B N 0.04492(10) 0.0959(2) -0.06007(7)
N7B N 0.09925(10) 0.46015(19) 0.03407(7)
O2 O -0.14870(16) -0.5281(3) 0.10433(10)
H25 H -0.112(3) -0.428(6) 0.1076(16)
H26 H -0.103(3) -0.603(5) 0.1156(16)
loop_
_geom_bond_atom_site_label_1
_geom_bond_atom_site_label_2
_geom_bond_site_symmetry_1
_geom_bond_site_symmetry_2
Zn1 N2 1_555 1_555
N1 N2 1_555 1_555
N2 N7 1_555 1_555
N3 Zn1 1_555 1_555
O1 Zn1 1_555 1_555
N4 N3 1_555 1_555
C1 N4 1_555 1_555
C2 N1 1_555 1_555
C3 C2 1_555 1_555
C4 C1 1_555 1_555
C5 C4 1_555 1_555
C6 C3 1_555 1_555
C7 C3 1_555 1_555
H1 C7 1_555 1_555
C8 C5 1_555 1_555
C9 C4 1_555 1_555
H2 C9 1_555 1_555
C10 H3 1_555 1_555
C11 C8 1_555 1_555
H4 C11 1_555 1_555
C12 C6 1_555 1_555
C13 C7 1_555 1_555
H5 C13 1_555 1_555
C14 C9 1_555 1_555
H6 C14 1_555 1_555
C15 C6 1_555 1_555
H7 C15 1_555 1_555
C16 C14 1_555 1_555
H8 C16 1_555 1_555
C17 C18 1_555 1_555
C18 C10 1_555 1_555
H9 C18 1_555 1_555
C19 C17 1_555 1_555
H10 C19 1_555 1_555
C20 H11 1_555 1_555
C21 C11 1_555 1_555
H12 C21 1_555 1_555
C22 H13 1_555 1_555
H14 C22 1_555 1_555
H15 C22 1_555 1_555
C23 C12 1_555 1_555
H16 C23 1_555 1_555
C24 C5 1_555 1_555
H17 C24 1_555 1_555
C25 C20 1_555 1_555
C26 C8 1_555 1_555
H18 C26 1_555 1_555
C27 C13 1_555 1_555
H19 C27 1_555 1_555
C28 C17 1_555 1_555
H20 C28 1_555 1_555
H21 C28 1_555 1_555
H22 C28 1_555 1_555
N5 N3 1_555 1_555
N6 C1 1_555 1_555
N7 N8 1_555 1_555
N8 C2 1_555 1_555
O2 H25 1_555 1_555
H23 O1 1_555 1_555
H24 O1 1_555 1_555
H26 O2 1_555 1_555
Zn1B N5 1_555 1_555
Zn1B_2 N7 1_555 1_555
N5B Zn1 1_555 1_555
N7B Zn1 1_555 1_555
C10 C12 1_555 1_555
C15 C27 1_555 1_555
C16 C24 1_555 1_555
C19 C23 1_555 1_555
C20 C26 1_555 1_555
C21 C25 1_555 1_555
C22 C25 1_555 1_555
N5 N6 1_555 1_555

#END
