
#######################################################################
#
#                 Cambridge Crystallographic Data Centre
#                                CCDC 
#
#######################################################################
#
# If this CIF has been generated from an entry in the Cambridge 
# Structural Database, then it will include bibliographic, chemical, 
# crystal, experimental, refinement or atomic coordinate data resulting 
# from the CCDC's data processing and validation procedures.
#
#######################################################################

data_AFOHOT
_symmetry_cell_setting           monoclinic
_symmetry_space_group_name_H-M   'P 21/c'
_symmetry_Int_Tables_number      14
_space_group_name_Hall           '-P 2ybc'
loop_
_symmetry_equiv_pos_site_id
_symmetry_equiv_pos_as_xyz
1 x,y,z
2 -x,1/2+y,1/2-z
3 -x,-y,-z
4 x,1/2-y,1/2+z
_cell_length_a                   15.0593(4)
_cell_length_b                   5.7351(2)
_cell_length_c                   10.9259(4)
_cell_angle_alpha                90
_cell_angle_beta                 94.148(2)
_cell_angle_gamma                90
_cell_volume                     941.161
loop_
_atom_site_label
_atom_site_type_symbol
_atom_site_fract_x
_atom_site_fract_y
_atom_site_fract_z
Cd1 Cd 1.034046(16) 0.92633(5) 0.63998(2)
O1 O 0.90965(16) 0.7260(5) 0.6019(3)
O2 O 0.87717(18) 0.7876(5) 0.4014(3)
O3 O 0.88356(17) 0.2482(5) 0.5024(2)
O4 O 0.93694(16) 0.2106(5) 0.6969(2)
C1 C 0.7607(2) 0.6767(7) 0.5211(4)
C2 C 0.7016(3) 0.8304(9) 0.4650(4)
H1 H 0.7216 0.9385 0.4098
C3 C 0.6108(3) 0.8287(9) 0.4890(4)
H2 H 0.5716 0.9355 0.4504
C4 C 0.5810(2) 0.6713(8) 0.5684(4)
H3 H 0.5215 0.6739 0.5857
C5 C 0.6064(3) 0.3356(9) 0.7062(4)
H4 H 0.5464 0.3359 0.7210
C6 C 0.6608(3) 0.1745(9) 0.7628(4)
H5 H 0.6388 0.0702 0.8183
C7 C 0.7519(3) 0.1663(8) 0.7366(4)
H6 H 0.7893 0.0549 0.7747
C8 C 0.7849(2) 0.3198(7) 0.6563(4)
C9 C 0.7306(2) 0.5018(8) 0.6003(3)
C10 C 0.6382(2) 0.5032(8) 0.6254(4)
C11 C 0.8578(2) 0.7266(7) 0.5057(4)
C12 C 0.8750(2) 0.2629(7) 0.6138(4)
Cd1B Cd 0.965954(16) 1.07367(5) 0.36002(2)
Cd1B_2 Cd 0.965954(16) 0.07367(5) 0.36002(2)
Cd1_2 Cd 1.034046(16) -0.07367(5) 0.63998(2)
Cd1A Cd 0.965954(16) 0.42633(5) 0.86002(2)
O2B O 1.12283(18) 1.2124(5) 0.5986(3)
O3B O 1.11644(17) 0.7518(5) 0.4976(2)
O4_2 O 0.93694(16) 1.2106(5) 0.6969(2)
O4A O 1.06306(16) 0.7106(5) 0.8031(2)
loop_
_geom_bond_atom_site_label_1
_geom_bond_atom_site_label_2
_geom_bond_site_symmetry_1
_geom_bond_site_symmetry_2
Cd1 O1 1_555 1_555
O1 C11 1_555 1_555
O2 C11 1_555 1_555
O3 C12 1_555 1_555
O4 C12 1_555 1_555
C1 C2 1_555 1_555
C2 H1 1_555 1_555
C3 C2 1_555 1_555
H2 C3 1_555 1_555
C4 C3 1_555 1_555
H3 C4 1_555 1_555
C5 H4 1_555 1_555
C6 C5 1_555 1_555
H5 C6 1_555 1_555
C7 C6 1_555 1_555
H6 C7 1_555 1_555
C8 C7 1_555 1_555
C9 C1 1_555 1_555
C10 C4 1_555 1_555
C11 C1 1_555 1_555
C12 C8 1_555 1_555
Cd1B O2 1_555 1_555
Cd1B_2 O3 1_555 1_555
Cd1_2 O4 1_555 1_555
Cd1A O4 1_555 1_555
O2B Cd1 1_555 1_555
O3B Cd1 1_555 1_555
O4_2 Cd1 1_555 1_555
O4A Cd1 1_555 1_555
C5 C10 1_555 1_555
C8 C9 1_555 1_555
C9 C10 1_555 1_555
Cd1A O4A 1_555 1_555

#END
