
#######################################################################
#
#                 Cambridge Crystallographic Data Centre
#                                CCDC 
#
#######################################################################
#
# If this CIF has been generated from an entry in the Cambridge 
# Structural Database, then it will include bibliographic, chemical, 
# crystal, experimental, refinement or atomic coordinate data resulting 
# from the CCDC's data processing and validation procedures.
#
#######################################################################

data_AFOJEK
_symmetry_cell_setting           triclinic
_symmetry_space_group_name_H-M   'P -1'
_symmetry_Int_Tables_number      2
_space_group_name_Hall           '-P 1'
loop_
_symmetry_equiv_pos_site_id
_symmetry_equiv_pos_as_xyz
1 x,y,z
2 -x,-y,-z
_cell_length_a                   6.3822(5)
_cell_length_b                   9.3323(7)
_cell_length_c                   9.5201(7)
_cell_angle_alpha                88.422(2)
_cell_angle_beta                 74.446(2)
_cell_angle_gamma                76.6470(10)
_cell_volume                     531.132
loop_
_atom_site_label
_atom_site_type_symbol
_atom_site_fract_x
_atom_site_fract_y
_atom_site_fract_z
Nd1 Nd 0.15184(3) 0.55960(2) 0.28002(2)
O1 O -0.1032(6) 0.7421(4) 0.1624(4)
O2 O -0.0866(7) 0.9740(4) 0.1974(5)
O3 O 0.1545(5) 0.3735(4) 0.4880(4)
O4 O 0.4520(5) 0.3419(3) 0.3006(3)
O5 O -0.1585(7) 0.4468(5) 0.2759(5)
C1 C -0.3365(8) 0.9362(5) 0.0685(5)
C2 C -0.3942(8) 1.0880(5) 0.0555(5)
H1 H -0.3217 1.1467 0.0938
C3 C -0.4435(8) 0.8452(5) 0.0127(5)
C4 C 0.3353(8) 0.0374(5) 0.4285(5)
H2 H 0.2238 0.0628 0.3803
C5 C 0.4284(7) 0.1466(5) 0.4659(5)
C6 C -0.1641(8) 0.8737(5) 0.1468(5)
C7 C 0.3441(7) 0.2976(5) 0.4175(5)
C8 C -0.3980(8) 0.6782(5) 0.0218(5)
O6 O -0.5380(6) 0.6292(4) 0.1167(4)
O7 O -0.2321(6) 0.6027(4) -0.0675(4)
C9 C 0.5952(8) 0.1086(5) 0.5384(5)
C10 C 0.6972(7) 0.2221(5) 0.5837(5)
O8 O 0.8525(6) 0.1814(4) 0.6458(4)
O9 O 0.6281(6) 0.3558(4) 0.5628(4)
H3 H -0.007(13) 0.931(8) 0.242(8)
C3A C -0.5565(8) 1.1548(5) -0.0127(5)
C1A C -0.6635(8) 1.0638(5) -0.0685(5)
C2A C -0.6058(8) 0.9120(5) -0.0555(5)
H1A H -0.6783 0.8533 -0.0938
C6A C -0.8359(8) 1.1263(5) -0.1468(5)
O1A O -0.8968(6) 1.2579(4) -0.1624(4)
O2A O -0.9134(7) 1.0260(4) -0.1974(5)
H3A H -0.993(13) 1.069(8) -0.242(8)
C8A C -0.6020(8) 1.3218(5) -0.0218(5)
O6A O -0.4620(6) 1.3708(4) -0.1167(4)
O7A O -0.7679(6) 1.3973(4) 0.0675(4)
C9A C 0.4048(8) -0.1086(5) 0.4616(5)
C5A C 0.5716(7) -0.1466(5) 0.5341(5)
C4A C 0.6647(8) -0.0374(5) 0.5715(5)
H2A H 0.7762 -0.0628 0.6197
C7A C 0.6559(7) -0.2976(5) 0.5825(5)
O3A O 0.8455(5) -0.3735(4) 0.5120(4)
O4A O 0.5480(5) -0.3419(3) 0.6994(3)
C10A C 0.3028(7) -0.2221(5) 0.4163(5)
O8A O 0.1475(6) -0.1814(4) 0.3542(4)
O9A O 0.3719(6) -0.3558(4) 0.4372(4)
Nd1A Nd -1.15184(3) 1.44040(2) -0.28002(2)
O5A O -0.8415(7) 1.5532(5) -0.2759(5)
O3A_2 O -0.1545(5) 0.6265(4) 0.5120(4)
O6_2 O 0.4620(6) 0.6292(4) 0.1167(4)
O7A_2 O 0.2321(6) 0.3973(4) 0.0675(4)
O8A_2 O 0.1475(6) 0.8186(4) 0.3542(4)
O9A_2 O 0.3719(6) 0.6442(4) 0.4372(4)
Nd1A_2 Nd -0.15184(3) 0.44040(2) 0.71998(2)
Nd1_2 Nd -0.84816(3) 0.55960(2) 0.28002(2)
Nd1A_3 Nd -0.15184(3) 0.44040(2) -0.28002(2)
Nd1A_4 Nd 0.84816(3) 0.44040(2) 0.71998(2)
Nd1A_5 Nd -0.15184(3) 1.44040(2) -0.28002(2)
Nd1_3 Nd -0.84816(3) 1.55960(2) 0.28002(2)
Nd1_4 Nd 1.15184(3) -0.44040(2) 0.28002(2)
Nd1A_6 Nd 0.84816(3) -0.55960(2) 0.71998(2)
Nd1_5 Nd 0.15184(3) -0.44040(2) 0.28002(2)
O3_2 O -0.8455(5) 1.3735(4) -0.5120(4)
O3A_3 O -1.1545(5) 1.6265(4) -0.4880(4)
O4A_2 O -1.4520(5) 1.6581(3) -0.3006(3)
O6A_2 O -1.4620(6) 1.3708(4) -0.1167(4)
O7_2 O -1.2321(6) 1.6027(4) -0.0675(4)
O8_2 O -1.1475(6) 1.1814(4) -0.3542(4)
O9_2 O -1.3719(6) 1.3558(4) -0.4372(4)
loop_
_geom_bond_atom_site_label_1
_geom_bond_atom_site_label_2
_geom_bond_site_symmetry_1
_geom_bond_site_symmetry_2
Nd1 O1 1_555 1_555
O1 C6 1_555 1_555
O2 C6 1_555 1_555
O3 Nd1 1_555 1_555
O4 Nd1 1_555 1_555
O5 Nd1 1_555 1_555
C1 C2 1_555 1_555
C2 H1 1_555 1_555
C3 C1 1_555 1_555
C4 H2 1_555 1_555
C5 C4 1_555 1_555
C6 C1 1_555 1_555
C7 O3 1_555 1_555
C8 C3 1_555 1_555
O6 C8 1_555 1_555
O7 C8 1_555 1_555
C9 C5 1_555 1_555
C10 C9 1_555 1_555
O8 C10 1_555 1_555
O9 C10 1_555 1_555
H3 O2 1_555 1_555
C3A C2 1_555 1_555
C1A C3A 1_555 1_555
C2A C3 1_555 1_555
H1A C2A 1_555 1_555
C6A C1A 1_555 1_555
O1A C6A 1_555 1_555
O2A C6A 1_555 1_555
H3A O2A 1_555 1_555
C8A C3A 1_555 1_555
O6A C8A 1_555 1_555
O7A C8A 1_555 1_555
C9A C4 1_555 1_555
C5A C9A 1_555 1_555
C4A C9 1_555 1_555
H2A C4A 1_555 1_555
C7A C5A 1_555 1_555
O3A C7A 1_555 1_555
O4A C7A 1_555 1_555
C10A C9A 1_555 1_555
O8A C10A 1_555 1_555
O9A C10A 1_555 1_555
Nd1A O1A 1_555 1_555
O5A Nd1A 1_555 1_555
O3A_2 Nd1 1_555 1_555
O6_2 Nd1 1_555 1_555
O7A_2 Nd1 1_555 1_555
O8A_2 Nd1 1_555 1_555
O9A_2 Nd1 1_555 1_555
Nd1A_2 O3 1_555 1_555
Nd1_2 O6 1_555 1_555
Nd1A_3 O7 1_555 1_555
Nd1A_4 O8 1_555 1_555
Nd1A_5 O6A 1_555 1_555
Nd1_3 O7A 1_555 1_555
Nd1_4 O3A 1_555 1_555
Nd1A_6 O3A 1_555 1_555
Nd1_5 O8A 1_555 1_555
O3_2 Nd1A 1_555 1_555
O3A_3 Nd1A 1_555 1_555
O4A_2 Nd1A 1_555 1_555
O6A_2 Nd1A 1_555 1_555
O7_2 Nd1A 1_555 1_555
O8_2 Nd1A 1_555 1_555
O9_2 Nd1A 1_555 1_555
O4 C7 1_555 1_555
C5 C7 1_555 1_555
O9 Nd1A_4 1_555 1_555
C1A C2A 1_555 1_555
C5A C4A 1_555 1_555
O4A Nd1A_6 1_555 1_555
O9A Nd1_5 1_555 1_555
O3A_2 Nd1A_2 1_555 1_555

#END
