
#######################################################################
#
#                 Cambridge Crystallographic Data Centre
#                                CCDC 
#
#######################################################################
#
# If this CIF has been generated from an entry in the Cambridge 
# Structural Database, then it will include bibliographic, chemical, 
# crystal, experimental, refinement or atomic coordinate data resulting 
# from the CCDC's data processing and validation procedures.
#
#######################################################################

data_AFOJEL
_symmetry_cell_setting           orthorhombic
_symmetry_space_group_name_H-M   'P 21 21 21'
_symmetry_Int_Tables_number      19
_space_group_name_Hall           'P 2ac 2ab'
loop_
_symmetry_equiv_pos_site_id
_symmetry_equiv_pos_as_xyz
1 x,y,z
2 1/2-x,-y,1/2+z
3 -x,1/2+y,1/2-z
4 1/2+x,1/2-y,-z
_cell_length_a                   11.6238(12)
_cell_length_b                   19.543(2)
_cell_length_c                   25.467(3)
_cell_angle_alpha                90
_cell_angle_beta                 90
_cell_angle_gamma                90
_cell_volume                     5785.18
loop_
_atom_site_label
_atom_site_type_symbol
_atom_site_fract_x
_atom_site_fract_y
_atom_site_fract_z
Cu1 Cu 0.38235(5) 0.00237(3) 0.90999(2)
Cu2 Cu 0.52415(5) 0.12089(3) 0.85084(2)
Cl1 Cl 0.33483(10) 0.11581(7) 0.88506(5)
P1 P 0.51983(11) 0.00434(7) 0.97253(5)
P2 P 0.66400(10) 0.10868(7) 0.91157(5)
P3 P 0.41660(11) -0.06553(7) 0.84036(5)
P4 P 0.51732(11) 0.05585(7) 0.77759(5)
N1 N 0.2349(4) -0.0205(2) 0.95121(18)
N2 N -0.0747(5) -0.1351(3) 0.9797(2)
N3 N 0.0220(5) 0.2748(3) 1.1706(2)
N4 N -0.2682(5) 0.1509(3) 1.2160(2)
C1 C 0.0162(4) 0.0149(3) 1.04498(19)
C2 C 0.0851(5) 0.0722(3) 1.0564(2)
H1 H 0.1538 0.0786 1.0383
C3 C 0.0524(5) 0.1187(3) 1.0936(2)
H2 H 0.0989 0.1565 1.0999
C4 C -0.0502(4) 0.1108(3) 1.1227(2)
C5 C -0.1173(5) 0.0519(3) 1.1120(2)
H3 H -0.1846 0.0445 1.1309
C6 C -0.0854(4) 0.0060(3) 1.0747(2)
H4 H -0.1314 -0.0321 1.0685
C7 C 0.0491(4) -0.0331(3) 1.0054(2)
C8 C 0.1517(5) -0.0252(3) 0.9757(2)
C9 C -0.0177(5) -0.0887(3) 0.9916(2)
C10 C -0.0842(5) 0.1614(3) 1.1608(2)
C11 C -0.0227(5) 0.2232(3) 1.1670(2)
C12 C -0.1875(5) 0.1544(3) 1.1915(2)
C13 C 0.6633(4) 0.0286(2) 0.94882(19)
H5 H 0.7146 0.0332 0.9787
H6 H 0.6930 -0.0078 0.9267
C14 C 0.5433(5) -0.0775(3) 1.00452(19)
C15 C 0.4524(5) -0.1042(3) 1.0346(2)
H7 H 0.3858 -0.0785 1.0391
C16 C 0.4607(7) -0.1677(4) 1.0573(3)
H8 H 0.3998 -0.1851 1.0769
C17 C 0.5616(7) -0.2061(4) 1.0507(3)
H9 H 0.5681 -0.2490 1.0663
C18 C 0.6511(6) -0.1806(3) 1.0213(3)
H10 H 0.7182 -0.2060 1.0172
C19 C 0.6412(5) -0.1173(3) 0.9979(2)
H11 H 0.7011 -0.1009 0.9772
C20 C 0.4905(4) 0.0615(3) 1.02800(19)
C21 C 0.5592(6) 0.0606(3) 1.0722(2)
H12 H 0.6181 0.0288 1.0757
C22 C 0.5379(7) 0.1088(4) 1.1114(2)
H13 H 0.5869 0.1111 1.1402
C23 C 0.4470(7) 0.1525(4) 1.1085(3)
H14 H 0.4323 0.1831 1.1356
C24 C 0.3775(6) 0.1507(3) 1.0651(2)
H15 H 0.3149 0.1802 1.0627
C25 C 0.3999(5) 0.1056(3) 1.0251(2)
H16 H 0.3527 0.1052 0.9956
C26 C 0.6690(4) 0.1731(2) 0.96304(19)
C27 C 0.5783(5) 0.2166(3) 0.9696(2)
H17 H 0.5161 0.2142 0.9467
C28 C 0.5776(5) 0.2642(3) 1.0099(2)
H18 H 0.5151 0.2936 1.0136
C29 C 0.6672(5) 0.2686(3) 1.0442(2)
H19 H 0.6664 0.3008 1.0710
C30 C 0.7589(5) 0.2248(3) 1.0386(2)
H20 H 0.8202 0.2273 1.0620
C31 C 0.7611(5) 0.1770(3) 0.9986(2)
H21 H 0.8235 0.1475 0.9952
C32 C 0.8087(4) 0.1127(3) 0.88390(19)
C33 C 0.9043(5) 0.0797(3) 0.9038(2)
H22 H 0.8965 0.0513 0.9328
C34 C 1.0106(5) 0.0882(3) 0.8813(3)
H23 H 1.0732 0.0644 0.8949
C35 C 1.0264(5) 0.1301(3) 0.8401(2)
H24 H 1.0996 0.1379 0.8268
C36 C 0.9324(5) 0.1611(4) 0.8183(3)
H25 H 0.9412 0.1878 0.7883
C37 C 0.8259(5) 0.1533(3) 0.8401(2)
H26 H 0.7635 0.1758 0.8251
C38 C 0.5221(4) -0.0360(3) 0.79170(19)
H27 H 0.5986 -0.0474 0.8042
H28 H 0.5096 -0.0608 0.7592
C39 C 0.4702(4) -0.1491(3) 0.85880(19)
C40 C 0.4231(5) -0.1801(3) 0.9032(2)
H29 H 0.3659 -0.1573 0.9218
C41 C 0.4582(7) -0.2430(3) 0.9202(3)
H30 H 0.4247 -0.2623 0.9499
C42 C 0.5417(8) -0.2775(3) 0.8940(3)
H31 H 0.5653 -0.3203 0.9056
C43 C 0.5912(6) -0.2486(4) 0.8502(3)
H32 H 0.6493 -0.2718 0.8325
C44 C 0.5553(6) -0.1856(3) 0.8325(3)
H33 H 0.5884 -0.1672 0.8024
C45 C 0.2907(5) -0.0859(3) 0.8016(2)
C46 C 0.2849(6) -0.1422(4) 0.7694(3)
H34 H 0.3473 -0.1718 0.7666
C47 C 0.1837(10) -0.1546(5) 0.7410(4)
H35 H 0.1813 -0.1911 0.7176
C48 C 0.0898(8) -0.1146(6) 0.7467(4)
H36 H 0.0219 -0.1254 0.7292
C49 C 0.0952(6) -0.0582(5) 0.7783(3)
H37 H 0.0322 -0.0292 0.7814
C50 C 0.1960(5) -0.0449(3) 0.8056(2)
H38 H 0.1991 -0.0067 0.8274
C51 C 0.3910(4) 0.0647(3) 0.73542(19)
C52 C 0.3700(5) 0.0210(4) 0.6933(2)
H39 H 0.4237 -0.0126 0.6850
C53 C 0.2707(6) 0.0266(4) 0.6636(3)
H40 H 0.2578 -0.0034 0.6359
C54 C 0.1916(6) 0.0764(5) 0.6751(3)
H41 H 0.1255 0.0807 0.6548
C55 C 0.2101(5) 0.1199(4) 0.7168(2)
H42 H 0.1556 0.1530 0.7250
C56 C 0.3098(5) 0.1147(3) 0.7466(2)
H43 H 0.3223 0.1449 0.7742
C57 C 0.6375(4) 0.0688(3) 0.73216(19)
C58 C 0.6326(6) 0.1207(4) 0.6958(3)
H44 H 0.5665 0.1473 0.6930
C59 C 0.7250(6) 0.1335(4) 0.6636(3)
H45 H 0.7192 0.1681 0.6387
C60 C 0.8246(5) 0.0972(4) 0.6669(3)
H46 H 0.8871 0.1079 0.6456
C61 C 0.8307(5) 0.0454(4) 0.7019(3)
H47 H 0.8971 0.0191 0.7041
C62 C 0.7376(5) 0.0310(3) 0.7350(2)
H48 H 0.7433 -0.0044 0.7592
Cu2C Cu 0.02415(5) 0.37911(3) 1.14916(2)
N3C N 0.5220(5) 0.2252(3) 0.8294(2)
N5 N 0.7905(7) 0.9292(4) 0.8533(3)
C63 C 0.8372(8) 0.8785(5) 0.8499(3)
C64 C 0.8993(10) 0.8161(5) 0.8448(5)
H49 H 0.9803 0.8254 0.8461
H50 H 0.8805 0.7949 0.8119
H51 H 0.8789 0.7860 0.8731
loop_
_geom_bond_atom_site_label_1
_geom_bond_atom_site_label_2
_geom_bond_site_symmetry_1
_geom_bond_site_symmetry_2
Cu1 Cl1 1_555 1_555
Cu2 Cl1 1_555 1_555
P1 Cu1 1_555 1_555
P2 Cu2 1_555 1_555
P3 Cu1 1_555 1_555
P4 Cu2 1_555 1_555
N1 Cu1 1_555 1_555
N2 C9 1_555 1_555
N3 C11 1_555 1_555
N4 C12 1_555 1_555
N5 C63 1_555 1_555
C1 C2 1_555 1_555
C2 H1 1_555 1_555
C3 C2 1_555 1_555
H2 C3 1_555 1_555
C4 C3 1_555 1_555
C5 C4 1_555 1_555
H3 C5 1_555 1_555
C6 C1 1_555 1_555
H4 C6 1_555 1_555
C7 C1 1_555 1_555
C8 N1 1_555 1_555
C9 C7 1_555 1_555
C10 C4 1_555 1_555
C11 C10 1_555 1_555
C12 C10 1_555 1_555
C13 P1 1_555 1_555
H5 C13 1_555 1_555
H6 C13 1_555 1_555
C14 P1 1_555 1_555
C15 C14 1_555 1_555
H7 C15 1_555 1_555
C16 C15 1_555 1_555
H8 C16 1_555 1_555
C17 C16 1_555 1_555
H9 C17 1_555 1_555
C18 C17 1_555 1_555
H10 C18 1_555 1_555
C19 C14 1_555 1_555
H11 C19 1_555 1_555
C20 P1 1_555 1_555
C21 C20 1_555 1_555
H12 C21 1_555 1_555
C22 C21 1_555 1_555
H13 C22 1_555 1_555
C23 C22 1_555 1_555
H14 C23 1_555 1_555
C24 C23 1_555 1_555
H15 C24 1_555 1_555
C25 C20 1_555 1_555
H16 C25 1_555 1_555
C26 P2 1_555 1_555
C27 C26 1_555 1_555
H17 C27 1_555 1_555
C28 C27 1_555 1_555
H18 C28 1_555 1_555
C29 C28 1_555 1_555
H19 C29 1_555 1_555
C30 C29 1_555 1_555
H20 C30 1_555 1_555
C31 C26 1_555 1_555
H21 C31 1_555 1_555
C32 P2 1_555 1_555
C33 C32 1_555 1_555
H22 C33 1_555 1_555
C34 C33 1_555 1_555
H23 C34 1_555 1_555
C35 C34 1_555 1_555
H24 C35 1_555 1_555
C36 C35 1_555 1_555
H25 C36 1_555 1_555
C37 C32 1_555 1_555
H26 C37 1_555 1_555
C38 P3 1_555 1_555
H27 C38 1_555 1_555
H28 C38 1_555 1_555
C39 P3 1_555 1_555
C40 C39 1_555 1_555
H29 C40 1_555 1_555
C41 C40 1_555 1_555
H30 C41 1_555 1_555
C42 C41 1_555 1_555
H31 C42 1_555 1_555
C43 C42 1_555 1_555
H32 C43 1_555 1_555
C44 C39 1_555 1_555
H33 C44 1_555 1_555
C45 P3 1_555 1_555
C46 C45 1_555 1_555
H34 C46 1_555 1_555
C47 C46 1_555 1_555
H35 C47 1_555 1_555
C48 C47 1_555 1_555
H36 C48 1_555 1_555
C49 C48 1_555 1_555
H37 C49 1_555 1_555
C50 C45 1_555 1_555
H38 C50 1_555 1_555
C51 P4 1_555 1_555
C52 C51 1_555 1_555
H39 C52 1_555 1_555
C53 C52 1_555 1_555
H40 C53 1_555 1_555
C54 C53 1_555 1_555
H41 C54 1_555 1_555
C55 C54 1_555 1_555
H42 C55 1_555 1_555
C56 C51 1_555 1_555
H43 C56 1_555 1_555
C57 P4 1_555 1_555
C58 C57 1_555 1_555
H44 C58 1_555 1_555
C59 C58 1_555 1_555
H45 C59 1_555 1_555
C60 C59 1_555 1_555
H46 C60 1_555 1_555
C61 C60 1_555 1_555
H47 C61 1_555 1_555
C62 C57 1_555 1_555
H48 C62 1_555 1_555
C63 C64 1_555 1_555
C64 H49 1_555 1_555
H50 C64 1_555 1_555
H51 C64 1_555 1_555
Cu2C N3 1_555 1_555
N3C Cu2 1_555 1_555
P2 C13 1_555 1_555
P4 C38 1_555 1_555
C5 C6 1_555 1_555
C7 C8 1_555 1_555
C18 C19 1_555 1_555
C24 C25 1_555 1_555
C30 C31 1_555 1_555
C36 C37 1_555 1_555
C43 C44 1_555 1_555
C49 C50 1_555 1_555
C55 C56 1_555 1_555
C61 C62 1_555 1_555

#END
