
#######################################################################
#
#                 Cambridge Crystallographic Data Centre
#                                CCDC 
#
#######################################################################
#
# If this CIF has been generated from an entry in the Cambridge 
# Structural Database, then it will include bibliographic, chemical, 
# crystal, experimental, refinement or atomic coordinate data resulting 
# from the CCDC's data processing and validation procedures.
#
#######################################################################

data_AFOJIO
_symmetry_cell_setting           triclinic
_symmetry_space_group_name_H-M   'P -1'
_symmetry_Int_Tables_number      2
_space_group_name_Hall           '-P 1'
loop_
_symmetry_equiv_pos_site_id
_symmetry_equiv_pos_as_xyz
1 x,y,z
2 -x,-y,-z
_cell_length_a                   7.2325(7)
_cell_length_b                   7.9946(8)
_cell_length_c                   8.7833(9)
_cell_angle_alpha                65.4120(10)
_cell_angle_beta                 86.272(2)
_cell_angle_gamma                84.377(2)
_cell_volume                     459.421
loop_
_atom_site_label
_atom_site_type_symbol
_atom_site_fract_x
_atom_site_fract_y
_atom_site_fract_z
Gd1 Gd 0.06850(6) 0.24224(6) 0.50790(5)
C1 C -0.2385(12) 0.0376(14) 0.6996(11)
C2 C -0.3387(13) -0.0994(13) 0.8494(12)
C3 C -0.5280(12) -0.1180(13) 0.8681(11)
C4 C -0.6686(13) 0.0094(13) 0.7456(12)
C5 C -0.5965(13) -0.2584(13) 1.0096(11)
H1 H -0.7238 -0.2705 1.0222
C6 C -0.4792(13) -0.3823(14) 1.1338(12)
C7 C -0.5608(14) -0.5282(14) 1.2834(13)
C8 C -0.2880(12) -0.3579(13) 1.1179(11)
C9 C -0.1536(14) -0.4876(13) 1.2464(12)
C10 C -0.2184(13) -0.2186(13) 0.9747(12)
H2 H -0.0914 -0.2045 0.9621
O1 O -0.1622(9) -0.0111(9) 0.5908(8)
O2 O -0.2148(9) 0.1961(9) 0.6923(8)
O3 O -0.6105(9) 0.1333(10) 0.6087(8)
O4 O -0.8373(9) -0.0012(10) 0.7785(9)
O5 O -0.7197(9) -0.5655(9) 1.2940(8)
O6 O -0.4440(13) -0.611(2) 1.4004(14)
O7 O -0.0926(11) -0.6361(10) 1.2426(9)
O8 O -0.1034(10) -0.4413(9) 1.3605(8)
H3 H -0.503(19) -0.728(18) 1.521(16)
O1A O 0.1622(9) 0.0111(9) 0.4092(8)
O3_2 O 0.3895(9) 0.1333(10) 0.6087(8)
O4_2 O 0.1627(9) -0.0012(10) 0.7785(9)
O5_2 O 0.2803(9) 0.4345(9) 0.2940(8)
O7_2 O -0.0926(11) 0.3639(10) 0.2426(9)
O8_2 O -0.1034(10) 0.5587(9) 0.3605(8)
O8A O 0.1034(10) 0.4413(9) 0.6395(8)
Gd1A Gd -0.06850(6) -0.24224(6) 0.49210(5)
Gd1_2 Gd -0.93150(6) 0.24224(6) 0.50790(5)
Gd1_3 Gd -0.93150(6) -0.75776(6) 1.50790(5)
Gd1_4 Gd 0.06850(6) -0.75776(6) 1.50790(5)
Gd1A_2 Gd -0.06850(6) -0.24224(6) 1.49210(5)
loop_
_geom_bond_atom_site_label_1
_geom_bond_atom_site_label_2
_geom_bond_site_symmetry_1
_geom_bond_site_symmetry_2
Gd1 O1 1_555 1_555
C1 C2 1_555 1_555
C2 C3 1_555 1_555
C3 C4 1_555 1_555
C4 O3 1_555 1_555
C5 C3 1_555 1_555
H1 C5 1_555 1_555
C6 C5 1_555 1_555
C7 C6 1_555 1_555
C8 C6 1_555 1_555
C9 C8 1_555 1_555
C10 C2 1_555 1_555
H2 C10 1_555 1_555
O1 C1 1_555 1_555
O2 Gd1 1_555 1_555
O3 Gd1_2 1_555 1_555
O4 C4 1_555 1_555
O5 C7 1_555 1_555
O6 C7 1_555 1_555
O7 C9 1_555 1_555
O8 C9 1_555 1_555
H3 O6 1_555 1_555
O1A Gd1 1_555 1_555
O3_2 Gd1 1_555 1_555
O4_2 Gd1 1_555 1_555
O5_2 Gd1 1_555 1_555
O7_2 Gd1 1_555 1_555
O8_2 Gd1 1_555 1_555
O8A Gd1 1_555 1_555
Gd1A O1 1_555 1_555
Gd1_2 O4 1_555 1_555
Gd1_3 O5 1_555 1_555
Gd1_4 O7 1_555 1_555
Gd1A_2 O8 1_555 1_555
C1 O2 1_555 1_555
C8 C10 1_555 1_555
O8 Gd1_4 1_555 1_555
O1A Gd1A 1_555 1_555

#END
