
#######################################################################
#
#                 Cambridge Crystallographic Data Centre
#                                CCDC 
#
#######################################################################
#
# If this CIF has been generated from an entry in the Cambridge 
# Structural Database, then it will include bibliographic, chemical, 
# crystal, experimental, refinement or atomic coordinate data resulting 
# from the CCDC's data processing and validation procedures.
#
#######################################################################

data_AFOKOW
_symmetry_cell_setting           triclinic
_symmetry_space_group_name_H-M   'P -1'
_symmetry_Int_Tables_number      2
_space_group_name_Hall           '-P 1'
loop_
_symmetry_equiv_pos_site_id
_symmetry_equiv_pos_as_xyz
1 x,y,z
2 -x,-y,-z
_cell_length_a                   7.2184(8)
_cell_length_b                   7.6601(10)
_cell_length_c                   10.6297(14)
_cell_angle_alpha                106.400(10)
_cell_angle_beta                 95.799(10)
_cell_angle_gamma                108.614(9)
_cell_volume                     522.402
loop_
_atom_site_label
_atom_site_type_symbol
_atom_site_fract_x
_atom_site_fract_y
_atom_site_fract_z
C1 C 0.3516(4) 0.2843(4) 0.1786(3)
C2 C 0.2817(4) 0.0936(4) 0.0678(3)
C3 C 0.2444(4) 0.0582(5) -0.0697(3)
H1 H 0.2586 0.1595 -0.1042
C4 C 0.1856(5) -0.1332(6) -0.1531(3)
H2 H 0.1576 -0.1610 -0.2455
C5 C 0.1672(5) -0.2840(5) -0.1030(3)
H3 H 0.1298 -0.4108 -0.1622
C6 C 0.2034(4) -0.2502(4) 0.0336(3)
H4 H 0.1908 -0.3512 0.0682
C7 C 0.2591(4) -0.0593(4) 0.1157(2)
C8 C 0.9435(3) 0.6329(3) 0.4674(2)
H5 H 0.9096 0.7289 0.4443
C9 C 1.1356(3) 0.6356(3) 0.4698(2)
H6 H 1.2271 0.7330 0.4476
N1 N 0.3763(3) 0.2667(3) 0.30272(19)
N2 N 0.8051(3) 0.4965(2) 0.49722(17)
O1 O 0.3847(4) 0.4409(3) 0.1583(2)
O2 O 0.1337(3) -0.0259(3) 0.3413(2)
O3 O 0.4796(3) 0.0053(3) 0.3503(2)
O4 O 0.5629(3) 0.6946(3) 0.3937(2)
S1 S 0.31125(9) 0.03850(8) 0.29108(6)
Zn1 Zn 0.5000 0.5000 0.5000
H7 H 0.521(6) 0.631(7) 0.311(5)
H8 H 0.560(5) 0.802(6) 0.414(4)
C1A C 0.6484(4) 0.7157(4) 0.8214(3)
C2A C 0.7183(4) 0.9064(4) 0.9322(3)
C3A C 0.7556(4) 0.9418(5) 1.0697(3)
H1A H 0.7414 0.8405 1.1042
C4A C 0.8144(5) 1.1332(6) 1.1531(3)
H2A H 0.8424 1.1610 1.2455
C5A C 0.8328(5) 1.2840(5) 1.1030(3)
H3A H 0.8702 1.4108 1.1622
C6A C 0.7966(4) 1.2502(4) 0.9664(3)
H4A H 0.8092 1.3512 0.9318
C7A C 0.7409(4) 1.0593(4) 0.8843(2)
C8A C 1.0565(3) 0.3671(3) 0.5326(2)
H5A H 1.0904 0.2711 0.5557
C9A C 0.8644(3) 0.3644(3) 0.5302(2)
H6A H 0.7729 0.2670 0.5524
N1A N 0.6237(3) 0.7333(3) 0.69728(19)
N2A N 1.1949(3) 0.5035(2) 0.50278(17)
N2A_2 N 0.1949(3) 0.5035(2) 0.50278(17)
O1A O 0.6153(4) 0.5591(3) 0.8417(2)
O2A O 0.8663(3) 1.0259(3) 0.6587(2)
O3A O 0.5204(3) 0.9947(3) 0.6497(2)
O4A O 0.4371(3) 0.3054(3) 0.6063(2)
S1A S 0.68875(9) 0.96150(8) 0.70892(6)
Zn1_2 Zn 1.5000 0.5000 0.5000
H7A H 0.479(6) 0.369(7) 0.689(5)
H8A H 0.440(5) 0.198(6) 0.586(4)
loop_
_geom_bond_atom_site_label_1
_geom_bond_atom_site_label_2
_geom_bond_site_symmetry_1
_geom_bond_site_symmetry_2
C1 C2 1_555 1_555
C2 C3 1_555 1_555
C3 H1 1_555 1_555
C4 C3 1_555 1_555
H2 C4 1_555 1_555
C5 C4 1_555 1_555
H3 C5 1_555 1_555
C6 C5 1_555 1_555
H4 C6 1_555 1_555
C7 C2 1_555 1_555
C8 H5 1_555 1_555
C9 C8 1_555 1_555
H6 C9 1_555 1_555
N1 C1 1_555 1_555
N2 C8 1_555 1_555
O1 C1 1_555 1_555
O2 S1 1_555 1_555
O3 S1 1_555 1_555
O4 Zn1 1_555 1_555
S1 C7 1_555 1_555
Zn1 N1 1_555 1_555
H7 O4 1_555 1_555
H8 O4 1_555 1_555
C1A C2A 1_555 1_555
C2A C3A 1_555 1_555
C3A H1A 1_555 1_555
C4A C3A 1_555 1_555
H2A C4A 1_555 1_555
C5A C4A 1_555 1_555
H3A C5A 1_555 1_555
C6A C5A 1_555 1_555
H4A C6A 1_555 1_555
C7A C2A 1_555 1_555
C8A H5A 1_555 1_555
C9A N2 1_555 1_555
H6A C9A 1_555 1_555
N1A Zn1 1_555 1_555
N2A C9 1_555 1_555
N2A_2 Zn1 1_555 1_555
O1A C1A 1_555 1_555
O2A S1A 1_555 1_555
O3A S1A 1_555 1_555
O4A Zn1 1_555 1_555
S1A C7A 1_555 1_555
Zn1_2 N2A 1_555 1_555
H7A O4A 1_555 1_555
H8A O4A 1_555 1_555
C6 C7 1_555 1_555
N1 S1 1_555 1_555
N2 Zn1 1_555 1_555
C1A N1A 1_555 1_555
C6A C7A 1_555 1_555
C8A C9A 1_555 1_555
C8A N2A 1_555 1_555
N1A S1A 1_555 1_555

#END
