
#######################################################################
#
#                 Cambridge Crystallographic Data Centre
#                                CCDC 
#
#######################################################################
#
# If this CIF has been generated from an entry in the Cambridge 
# Structural Database, then it will include bibliographic, chemical, 
# crystal, experimental, refinement or atomic coordinate data resulting 
# from the CCDC's data processing and validation procedures.
#
#######################################################################

data_AFOLIR
_symmetry_cell_setting           triclinic
_symmetry_space_group_name_H-M   'P -1'
_symmetry_Int_Tables_number      2
_space_group_name_Hall           '-P 1'
loop_
_symmetry_equiv_pos_site_id
_symmetry_equiv_pos_as_xyz
1 x,y,z
2 -x,-y,-z
_cell_length_a                   7.6979(9)
_cell_length_b                   10.5536(13)
_cell_length_c                   11.4149(14)
_cell_angle_alpha                74.6850(10)
_cell_angle_beta                 73.0200(10)
_cell_angle_gamma                77.7270(10)
_cell_volume                     846.16
loop_
_atom_site_label
_atom_site_type_symbol
_atom_site_fract_x
_atom_site_fract_y
_atom_site_fract_z
Mn1 Mn 0.0000 1.0000 0.0000
S1 S 0.19653(7) 0.38433(4) 0.11904(4)
O1 O 0.2999(2) 0.81197(13) 0.18390(13)
O2 O 0.11633(17) 0.80037(11) 0.06798(11)
O3 O 0.1484(2) 0.35620(14) 0.01647(13)
O4 O 0.3668(2) 0.31861(14) 0.14879(15)
O5 O -0.6671(2) 0.3688(2) 0.50258(17)
O6 O 0.2280(2) 1.06316(13) 0.03880(15)
N1 N 0.1855(2) 0.98149(15) -0.19749(13)
N2 N -0.4133(2) 0.29744(16) 0.57896(14)
H1 H -0.3786 0.2638 0.6472
N3 N 0.2039(2) 0.54203(14) 0.08554(14)
H2 H 0.1621 0.5925 0.0242
C1 C 0.0164(3) 0.34837(17) 0.25414(16)
C2 C 0.0477(3) 0.33185(19) 0.37178(18)
H3 H 0.1645 0.3326 0.3793
C3 C -0.0968(3) 0.3143(2) 0.47726(17)
H4 H -0.0762 0.3030 0.5559
C4 C -0.2732(3) 0.31317(17) 0.46783(16)
C5 C -0.3022(3) 0.3274(2) 0.34876(17)
H5 H -0.4184 0.3252 0.3408
C6 C -0.1575(3) 0.3445(2) 0.24381(17)
H6 H -0.1767 0.3536 0.1651
C7 C -0.5983(3) 0.3292(2) 0.5915(2)
C8 C -0.7111(3) 0.3130(2) 0.7249(2)
H7 H -0.7197 0.3918 0.7544
H8 H -0.6537 0.2382 0.7764
H9 H -0.8319 0.2984 0.7291
C9 C 0.2814(3) 0.59942(17) 0.15931(19)
H10 H 0.4141 0.5769 0.1377
H11 H 0.2361 0.5621 0.2479
C10 C 0.2293(2) 0.75024(16) 0.13428(15)
C11 C 0.3655(3) 0.9429(2) -0.21155(17)
H12 H 0.4087 0.9101 -0.1396
C12 C 0.4921(3) 0.9486(2) -0.32675(17)
H13 H 0.6163 0.9210 -0.3304
C13 C 0.4343(2) 0.99550(16) -0.43691(15)
C14 C 0.2454(3) 1.0307(2) -0.42222(17)
H14 H 0.1979 1.0594 -0.4925
C15 C 0.1281(3) 1.0230(2) -0.30338(17)
H15 H 0.0028 1.0480 -0.2967
H16 H 0.2420 1.1406 0.0311
H17 H 0.2793 1.0063 0.0899
Mn1_2 Mn 1.0000 1.0000 -1.0000
S1A S -0.19653(7) 1.61567(4) -0.11904(4)
O1A O -0.2999(2) 1.18803(13) -0.18390(13)
O2A O -0.11633(17) 1.19963(11) -0.06798(11)
O3A O -0.1484(2) 1.64380(14) -0.01647(13)
O4A O -0.3668(2) 1.68139(14) -0.14879(15)
O5A O 0.6671(2) 1.6312(2) -0.50258(17)
O6A O -0.2280(2) 0.93684(13) -0.03880(15)
N1A N 0.8145(2) 1.01851(15) -0.80251(13)
N1A_2 N -0.1855(2) 1.01851(15) 0.19749(13)
N2A N 0.4133(2) 1.70256(16) -0.57896(14)
H1A H 0.3786 1.7362 -0.6472
N3A N -0.2039(2) 1.45797(14) -0.08554(14)
H2A H -0.1621 1.4075 -0.0242
C1A C -0.0164(3) 1.65163(17) -0.25414(16)
C2A C -0.0477(3) 1.66815(19) -0.37178(18)
H3A H -0.1645 1.6674 -0.3793
C3A C 0.0968(3) 1.6857(2) -0.47726(17)
H4A H 0.0762 1.6970 -0.5559
C4A C 0.2732(3) 1.68683(17) -0.46783(16)
C5A C 0.3022(3) 1.6726(2) -0.34876(17)
H5A H 0.4184 1.6748 -0.3408
C6A C 0.1575(3) 1.6555(2) -0.24381(17)
H6A H 0.1767 1.6464 -0.1651
C7A C 0.5983(3) 1.6708(2) -0.5915(2)
C8A C 0.7111(3) 1.6870(2) -0.7249(2)
H7A H 0.7197 1.6082 -0.7544
H8A H 0.6537 1.7618 -0.7764
H9A H 0.8319 1.7016 -0.7291
C9A C -0.2814(3) 1.40058(17) -0.15931(19)
H10A H -0.4141 1.4231 -0.1377
H11A H -0.2361 1.4379 -0.2479
C10A C -0.2293(2) 1.24976(16) -0.13428(15)
C11A C 0.6345(3) 1.0571(2) -0.78845(17)
H12A H 0.5913 1.0899 -0.8604
C12A C 0.5079(3) 1.0514(2) -0.67325(17)
H13A H 0.3837 1.0790 -0.6696
C13A C 0.5657(2) 1.00450(16) -0.56309(15)
C14A C 0.7546(3) 0.9693(2) -0.57778(17)
H14A H 0.8021 0.9406 -0.5075
C15A C 0.8719(3) 0.9770(2) -0.69662(17)
H15A H 0.9972 0.9520 -0.7033
H16A H -0.2420 0.8594 -0.0311
H17A H -0.2793 0.9937 -0.0899
loop_
_geom_bond_atom_site_label_1
_geom_bond_atom_site_label_2
_geom_bond_site_symmetry_1
_geom_bond_site_symmetry_2
Mn1 O2 1_555 1_555
S1 O3 1_555 1_555
O1 C10 1_555 1_555
O2 C10 1_555 1_555
O4 S1 1_555 1_555
O5 C7 1_555 1_555
O6 Mn1 1_555 1_555
N1 Mn1 1_555 1_555
N2 H1 1_555 1_555
N3 S1 1_555 1_555
H2 N3 1_555 1_555
C1 S1 1_555 1_555
C2 C1 1_555 1_555
H3 C2 1_555 1_555
C3 C2 1_555 1_555
H4 C3 1_555 1_555
C4 N2 1_555 1_555
C5 C4 1_555 1_555
H5 C5 1_555 1_555
C6 C1 1_555 1_555
H6 C6 1_555 1_555
C7 N2 1_555 1_555
C8 C7 1_555 1_555
H7 C8 1_555 1_555
H8 C8 1_555 1_555
H9 C8 1_555 1_555
C9 N3 1_555 1_555
H10 C9 1_555 1_555
H11 C9 1_555 1_555
C10 C9 1_555 1_555
C11 N1 1_555 1_555
H12 C11 1_555 1_555
C12 C11 1_555 1_555
H13 C12 1_555 1_555
C13 C12 1_555 1_555
C14 C13 1_555 1_555
H14 C14 1_555 1_555
C15 N1 1_555 1_555
H15 C15 1_555 1_555
H16 O6 1_555 1_555
H17 O6 1_555 1_555
Mn1_2 N1A 1_555 1_555
S1A O3A 1_555 1_555
O1A C10A 1_555 1_555
O2A Mn1 1_555 1_555
O4A S1A 1_555 1_555
O5A C7A 1_555 1_555
O6A Mn1 1_555 1_555
N1A C11A 1_555 1_555
N1A_2 Mn1 1_555 1_555
N2A H1A 1_555 1_555
N3A S1A 1_555 1_555
H2A N3A 1_555 1_555
C1A S1A 1_555 1_555
C2A C1A 1_555 1_555
H3A C2A 1_555 1_555
C3A C2A 1_555 1_555
H4A C3A 1_555 1_555
C4A N2A 1_555 1_555
C5A C4A 1_555 1_555
H5A C5A 1_555 1_555
C6A C1A 1_555 1_555
H6A C6A 1_555 1_555
C7A N2A 1_555 1_555
C8A C7A 1_555 1_555
H7A C8A 1_555 1_555
H8A C8A 1_555 1_555
H9A C8A 1_555 1_555
C9A N3A 1_555 1_555
H10A C9A 1_555 1_555
H11A C9A 1_555 1_555
C10A O2A 1_555 1_555
C11A H12A 1_555 1_555
C12A C11A 1_555 1_555
H13A C12A 1_555 1_555
C13A C13 1_555 1_555
C14A C13A 1_555 1_555
H14A C14A 1_555 1_555
C15A N1A 1_555 1_555
H15A C15A 1_555 1_555
H16A O6A 1_555 1_555
H17A O6A 1_555 1_555
C3 C4 1_555 1_555
C5 C6 1_555 1_555
C14 C15 1_555 1_555
C3A C4A 1_555 1_555
C5A C6A 1_555 1_555
C9A C10A 1_555 1_555
C12A C13A 1_555 1_555
C14A C15A 1_555 1_555

#END
