
#######################################################################
#
#                 Cambridge Crystallographic Data Centre
#                                CCDC 
#
#######################################################################
#
# If this CIF has been generated from an entry in the Cambridge 
# Structural Database, then it will include bibliographic, chemical, 
# crystal, experimental, refinement or atomic coordinate data resulting 
# from the CCDC's data processing and validation procedures.
#
#######################################################################

data_AFOMOY
_symmetry_cell_setting           monoclinic
_symmetry_space_group_name_H-M   'P 21/c'
_symmetry_Int_Tables_number      14
_space_group_name_Hall           '-P 2ybc'
loop_
_symmetry_equiv_pos_site_id
_symmetry_equiv_pos_as_xyz
1 x,y,z
2 -x,1/2+y,1/2-z
3 -x,-y,-z
4 x,1/2-y,1/2+z
_cell_length_a                   7.2848(8)
_cell_length_b                   20.769(2)
_cell_length_c                   11.4072(12)
_cell_angle_alpha                90
_cell_angle_beta                 96.0210(10)
_cell_angle_gamma                90
_cell_volume                     1716.37
loop_
_atom_site_label
_atom_site_type_symbol
_atom_site_fract_x
_atom_site_fract_y
_atom_site_fract_z
Cu1 Cu 0.26391(5) 0.389990(16) 0.84296(3)
C1 C 0.2828(5) 0.50865(18) 0.6894(3)
H1 H 0.2945 0.4804 0.6273
C2 C 0.2769(5) 0.5742(2) 0.6672(3)
H2 H 0.2873 0.5898 0.5918
C3 C 0.2554(5) 0.61552(18) 0.7582(4)
H3 H 0.2478 0.6597 0.7448
C4 C 0.2454(5) 0.59159(16) 0.8687(3)
H4 H 0.2319 0.6192 0.9314
C5 C 0.2554(4) 0.52609(14) 0.8862(3)
C6 C 0.2497(4) 0.49315(14) 0.9978(3)
C7 C 0.2358(4) 0.46861(15) 1.1843(3)
C8 C 0.2236(5) 0.46616(18) 1.3050(3)
H5 H 0.2136 0.5035 1.3489
C9 C 0.2271(5) 0.40669(19) 1.3565(3)
H6 H 0.2212 0.4037 1.4374
C10 C 0.2392(5) 0.35048(17) 1.2910(3)
H7 H 0.2392 0.3109 1.3291
C11 C 0.2511(4) 0.35218(15) 1.1719(3)
H8 H 0.2606 0.3145 1.1289
C12 C 0.2487(4) 0.41218(14) 1.1178(3)
C13 C 0.0104(4) 0.35683(13) 0.6905(3)
C14 C -0.1200(4) 0.32018(13) 0.6042(2)
C15 C -0.3077(4) 0.32392(14) 0.6148(3)
H9 H -0.3508 0.3529 0.6676
C16 C -0.4315(4) 0.28467(14) 0.5472(2)
H10 H -0.5574 0.2880 0.5535
C17 C -0.3667(4) 0.24037(13) 0.4700(2)
C18 C -0.1792(4) 0.23844(14) 0.4567(2)
H11 H -0.1359 0.2100 0.4030
C19 C -0.0563(4) 0.27851(13) 0.5226(2)
H12 H 0.0685 0.2775 0.5121
C20 C -0.4931(4) 0.19014(14) 0.4105(2)
N1 N 0.2724(3) 0.48479(12) 0.7960(2)
N2 N 0.2565(3) 0.42941(11) 1.0011(2)
N3 N 0.2373(3) 0.51849(12) 1.1055(2)
H13 H 0.2314 0.5588 1.1219
O1 O -0.0519(3) 0.38567(11) 0.77344(19)
O2 O 0.1817(3) 0.35514(10) 0.68134(18)
O3 O -0.6661(3) 0.19779(9) 0.40736(17)
O4 O -0.4251(3) 0.14061(10) 0.37109(17)
Cu1C Cu -0.73609(5) 0.110010(16) 0.34296(3)
O3C O 0.3339(3) 0.30221(9) 0.90736(17)
O4C O 0.5749(3) 0.35939(10) 0.87109(17)
loop_
_geom_bond_atom_site_label_1
_geom_bond_atom_site_label_2
_geom_bond_site_symmetry_1
_geom_bond_site_symmetry_2
Cu1 N1 1_555 1_555
C1 H1 1_555 1_555
C2 C1 1_555 1_555
H2 C2 1_555 1_555
C3 C2 1_555 1_555
H3 C3 1_555 1_555
C4 C3 1_555 1_555
H4 C4 1_555 1_555
C5 C4 1_555 1_555
C6 C5 1_555 1_555
C7 C8 1_555 1_555
C8 H5 1_555 1_555
C9 C8 1_555 1_555
H6 C9 1_555 1_555
C10 C9 1_555 1_555
H7 C10 1_555 1_555
C11 C10 1_555 1_555
H8 C11 1_555 1_555
C12 C7 1_555 1_555
C13 C14 1_555 1_555
C14 C15 1_555 1_555
C15 H9 1_555 1_555
C16 C15 1_555 1_555
H10 C16 1_555 1_555
C17 C16 1_555 1_555
C18 C17 1_555 1_555
H11 C18 1_555 1_555
C19 C14 1_555 1_555
H12 C19 1_555 1_555
C20 C17 1_555 1_555
N1 C1 1_555 1_555
N2 Cu1 1_555 1_555
N3 C6 1_555 1_555
H13 N3 1_555 1_555
O1 Cu1 1_555 1_555
O2 Cu1 1_555 1_555
O3 C20 1_555 1_555
O4 C20 1_555 1_555
Cu1C O3 1_555 1_555
O3C Cu1 1_555 1_555
O4C Cu1 1_555 1_555
C5 N1 1_555 1_555
C6 N2 1_555 1_555
C7 N3 1_555 1_555
C11 C12 1_555 1_555
C12 N2 1_555 1_555
C13 O1 1_555 1_555
C13 O2 1_555 1_555
C18 C19 1_555 1_555
O4 Cu1C 1_555 1_555

#END
