
#######################################################################
#
#                 Cambridge Crystallographic Data Centre
#                                CCDC 
#
#######################################################################
#
# If this CIF has been generated from an entry in the Cambridge 
# Structural Database, then it will include bibliographic, chemical, 
# crystal, experimental, refinement or atomic coordinate data resulting 
# from the CCDC's data processing and validation procedures.
#
#######################################################################

data_AFOMUE
_symmetry_cell_setting           monoclinic
_symmetry_space_group_name_H-M   'P 21/c'
_symmetry_Int_Tables_number      14
_space_group_name_Hall           '-P 2ybc'
loop_
_symmetry_equiv_pos_site_id
_symmetry_equiv_pos_as_xyz
1 x,y,z
2 -x,1/2+y,1/2-z
3 -x,-y,-z
4 x,1/2-y,1/2+z
_cell_length_a                   11.9289(12)
_cell_length_b                   10.4380(10)
_cell_length_c                   16.1295(16)
_cell_angle_alpha                90
_cell_angle_beta                 108.5940(10)
_cell_angle_gamma                90
_cell_volume                     1903.51
loop_
_atom_site_label
_atom_site_type_symbol
_atom_site_fract_x
_atom_site_fract_y
_atom_site_fract_z
Cu1 Cu 0.51038(3) 0.15391(3) 0.02391(2)
C1 C 0.7181(3) 0.1502(3) -0.0477(2)
H1 H 0.7388 0.0718 -0.0196
C2 C 0.7878(4) 0.2002(4) -0.0937(3)
H2 H 0.8536 0.1557 -0.0973
C3 C 0.7581(4) 0.3170(4) -0.1343(3)
H3 H 0.8042 0.3529 -0.1651
C4 C 0.6596(4) 0.3800(4) -0.1288(3)
H4 H 0.6383 0.4591 -0.1557
C5 C 0.5928(3) 0.3244(3) -0.0831(2)
C6 C 0.4826(3) 0.3737(3) -0.0770(2)
C7 C 0.3184(4) 0.4812(3) -0.0954(2)
C8 C 0.2229(4) 0.5655(4) -0.1186(3)
H5 H 0.2240 0.6399 -0.1501
C9 C 0.1281(4) 0.5348(4) -0.0932(3)
H6 H 0.0631 0.5893 -0.1079
C10 C 0.1256(4) 0.4232(4) -0.0457(3)
H7 H 0.0587 0.4052 -0.0299
C11 C 0.2203(3) 0.3389(3) -0.0215(2)
H8 H 0.2186 0.2648 0.0101
C12 C 0.3175(3) 0.3701(3) -0.0466(2)
C13 C 0.7159(3) -0.1138(3) 0.19750(19)
C14 C 0.8238(3) -0.1771(3) 0.2220(2)
H9 H 0.8841 -0.1492 0.2014
C15 C 0.8412(3) -0.2824(3) 0.2775(2)
C16 C 0.7541(3) -0.3176(3) 0.3131(2)
H10 H 0.7670 -0.3867 0.3515
C17 C 0.6481(3) -0.2511(3) 0.2923(2)
C18 C 0.6279(3) -0.1526(3) 0.23124(19)
H11 H 0.5546 -0.1122 0.2128
C19 C 0.6921(3) 0.0010(3) 0.1386(2)
C20 C 0.9528(3) -0.3581(4) 0.3035(2)
C21 C 0.5610(3) -0.2751(3) 0.3402(2)
N1 N 0.6224(2) 0.2105(3) -0.04212(17)
N2 N 0.4225(2) 0.3053(2) -0.03602(17)
N3 N 0.4230(3) 0.4805(2) -0.11326(18)
H12 H 0.4466 0.5377 -0.1423
O1 O 0.59425(18) -0.00090(18) 0.07531(13)
O2 O 0.7601(2) 0.0925(2) 0.15389(16)
O3 O 1.0313(2) -0.3156(3) 0.26954(18)
H13 H 1.0910 -0.3600 0.2863
O4 O 0.9688(3) -0.4504(3) 0.3506(2)
O5 O 0.4722(2) -0.2052(2) 0.32468(15)
O6 O 0.5866(2) -0.3627(2) 0.39825(15)
Cu1B Cu 0.48962(3) -0.15391(3) -0.02391(2)
Cu1A Cu 0.48962(3) -0.34609(3) 0.47609(2)
O1B O 0.40575(18) 0.00090(18) -0.07531(13)
O6A O 0.4134(2) 0.1373(2) 0.10175(15)
loop_
_geom_bond_atom_site_label_1
_geom_bond_atom_site_label_2
_geom_bond_site_symmetry_1
_geom_bond_site_symmetry_2
Cu1 N1 1_555 1_555
C1 H1 1_555 1_555
C2 C1 1_555 1_555
H2 C2 1_555 1_555
C3 C2 1_555 1_555
H3 C3 1_555 1_555
C4 C3 1_555 1_555
H4 C4 1_555 1_555
C5 C4 1_555 1_555
C6 C5 1_555 1_555
C7 C8 1_555 1_555
C8 H5 1_555 1_555
C9 C8 1_555 1_555
H6 C9 1_555 1_555
C10 C9 1_555 1_555
H7 C10 1_555 1_555
C11 C10 1_555 1_555
H8 C11 1_555 1_555
C12 C7 1_555 1_555
C13 C14 1_555 1_555
C14 H9 1_555 1_555
C15 C14 1_555 1_555
C16 C15 1_555 1_555
H10 C16 1_555 1_555
C17 C16 1_555 1_555
C18 C13 1_555 1_555
H11 C18 1_555 1_555
C19 C13 1_555 1_555
C20 C15 1_555 1_555
C21 C17 1_555 1_555
N1 C1 1_555 1_555
N2 Cu1 1_555 1_555
N3 C6 1_555 1_555
H12 N3 1_555 1_555
O1 Cu1 1_555 1_555
O2 C19 1_555 1_555
O3 C20 1_555 1_555
H13 O3 1_555 1_555
O4 C20 1_555 1_555
O5 C21 1_555 1_555
O6 C21 1_555 1_555
Cu1B O1 1_555 1_555
Cu1A O6 1_555 1_555
O1B Cu1 1_555 1_555
O6A Cu1 1_555 1_555
C5 N1 1_555 1_555
C6 N2 1_555 1_555
C7 N3 1_555 1_555
C11 C12 1_555 1_555
C12 N2 1_555 1_555
C17 C18 1_555 1_555
C19 O1 1_555 1_555
Cu1B O1B 1_555 1_555

#END
