
#######################################################################
#
#                 Cambridge Crystallographic Data Centre
#                                CCDC 
#
#######################################################################
#
# If this CIF has been generated from an entry in the Cambridge 
# Structural Database, then it will include bibliographic, chemical, 
# crystal, experimental, refinement or atomic coordinate data resulting 
# from the CCDC's data processing and validation procedures.
#
#######################################################################

data_AFONAL
_symmetry_cell_setting           triclinic
_symmetry_space_group_name_H-M   'P -1'
_symmetry_Int_Tables_number      2
_space_group_name_Hall           '-P 1'
loop_
_symmetry_equiv_pos_site_id
_symmetry_equiv_pos_as_xyz
1 x,y,z
2 -x,-y,-z
_cell_length_a                   10.1151(12)
_cell_length_b                   11.3086(14)
_cell_length_c                   17.377(2)
_cell_angle_alpha                80.219(2)
_cell_angle_beta                 81.007(2)
_cell_angle_gamma                83.283(2)
_cell_volume                     1926.38
loop_
_atom_site_label
_atom_site_type_symbol
_atom_site_fract_x
_atom_site_fract_y
_atom_site_fract_z
Cd1 Cd -0.01719(3) 0.47742(3) 0.30304(2)
Cd2 Cd -0.73444(3) 0.63006(3) 0.15989(2)
C1 C 0.0666(6) 0.3166(6) 0.4708(4)
H1 H 0.0485 0.3904 0.4889
C2 C 0.1096(7) 0.2193(6) 0.5212(4)
H2 H 0.1212 0.2263 0.5723
C3 C 0.1351(9) 0.1110(7) 0.4945(4)
H3 H 0.1643 0.0425 0.5276
C4 C 0.1175(8) 0.1033(6) 0.4179(4)
H4 H 0.1353 0.0303 0.3988
C5 C 0.0735(5) 0.2054(5) 0.3715(3)
C6 C 0.0584(5) 0.2099(5) 0.2883(3)
C7 C 0.0634(5) 0.1546(5) 0.1725(3)
C8 C 0.0772(6) 0.0956(6) 0.1069(4)
H5 H 0.0935 0.0123 0.1112
C9 C 0.0653(6) 0.1674(6) 0.0361(4)
H6 H 0.0752 0.1318 -0.0092
C10 C 0.0390(6) 0.2913(6) 0.0296(4)
H7 H 0.0322 0.3363 -0.0199
C11 C 0.0225(6) 0.3506(5) 0.0947(3)
H8 H 0.0036 0.4337 0.0902
C12 C 0.0358(5) 0.2787(5) 0.1668(3)
C13 C -0.2836(5) 0.5273(5) 0.3511(3)
C14 C -0.4253(5) 0.5676(5) 0.3836(3)
C15 C -0.4493(5) 0.6397(5) 0.4424(3)
H9 H -0.3772 0.6599 0.4632
C16 C -0.5789(5) 0.6819(4) 0.4706(3)
C17 C -0.6874(5) 0.6508(5) 0.4393(3)
H10 H -0.7748 0.6772 0.4589
C18 C -0.6654(5) 0.5813(5) 0.3800(3)
C19 C -0.5337(5) 0.5394(4) 0.3522(3)
H11 H -0.5186 0.4921 0.3123
C20 C -0.6044(5) 0.7599(5) 0.5320(3)
C21 C -0.7809(5) 0.5602(5) 0.3414(3)
C22 C -0.0078(5) 0.7202(5) 0.1863(3)
C23 C -0.1496(5) 0.7744(4) 0.2077(3)
C24 C -0.2592(5) 0.7265(5) 0.1891(3)
H12 H -0.2449 0.6626 0.1605
C25 C -0.3902(5) 0.7733(5) 0.2128(3)
C26 C -0.4107(5) 0.8643(5) 0.2579(3)
H13 H -0.4980 0.8930 0.2761
C27 C -0.3020(5) 0.9146(5) 0.2771(3)
C28 C -0.1723(5) 0.8706(5) 0.2499(3)
H14 H -0.0995 0.9059 0.2601
C29 C -0.3283(6) 1.0101(5) 0.3264(3)
C30 C -0.5075(5) 0.7234(5) 0.1904(3)
C31 C -0.7387(6) 0.8031(6) -0.0198(4)
H15 H -0.7581 0.8662 0.0094
C32 C -0.7320(7) 0.8290(7) -0.1001(4)
H16 H -0.7455 0.9080 -0.1253
C33 C -0.7037(6) 0.7310(7) -0.1440(4)
H17 H -0.7004 0.7432 -0.1986
C34 C -0.6818(6) 0.6182(6) -0.1022(4)
H18 H -0.6613 0.5529 -0.1294
C35 C -0.6887(5) 0.5981(6) -0.0225(3)
C36 C -0.6671(5) 0.4822(5) 0.0240(3)
C37 C -0.6217(5) 0.2827(5) 0.0564(3)
C38 C -0.5926(6) 0.1615(6) 0.0607(5)
H19 H -0.5743 0.1262 0.0151
C39 C -0.5909(7) 0.0934(6) 0.1324(5)
H20 H -0.5746 0.0100 0.1369
C40 C -0.6138(6) 0.1497(6) 0.2004(4)
H21 H -0.6089 0.1017 0.2491
C41 C -0.6430(5) 0.2711(6) 0.1981(4)
H22 H -0.6577 0.3061 0.2438
C42 C -0.6496(5) 0.3398(5) 0.1244(4)
N1 N 0.0488(4) 0.3122(4) 0.3971(3)
N2 N 0.0309(4) 0.3117(4) 0.2412(3)
N3 N 0.0751(4) 0.1128(4) 0.2505(3)
H23 H 0.0903 0.0388 0.2713
N4 N -0.7181(4) 0.6893(5) 0.0189(3)
N5 N -0.6790(4) 0.4608(4) 0.1029(3)
N6 N -0.6333(5) 0.3765(4) -0.0055(3)
H24 H -0.6213 0.3693 -0.0547
O1 O -0.1901(4) 0.5658(4) 0.3772(3)
O2 O -0.2625(4) 0.4592(4) 0.3008(3)
O3 O -0.5047(4) 0.7885(5) 0.5579(3)
H25 H -0.5274 0.8477 0.5800
O4 O -0.7249(4) 0.7948(4) 0.5570(3)
O5 O -0.8973(3) 0.5928(4) 0.3697(3)
O6 O -0.7565(3) 0.5084(3) 0.2804(2)
O7 O 0.0107(3) 0.6079(3) 0.1832(2)
O8 O 0.0860(3) 0.7853(4) 0.1720(3)
O9 O -0.4473(4) 1.0386(4) 0.3564(3)
O10 O -0.2282(4) 1.0625(4) 0.3359(3)
H26 H -0.2508 1.1033 0.3714
O11 O -0.6244(3) 0.7706(3) 0.2096(2)
O12 O -0.4873(3) 0.6355(3) 0.1543(2)
Cd1_2 Cd -1.01719(3) 0.47742(3) 0.30304(2)
Cd2_2 Cd 0.26556(3) 0.63006(3) 0.15989(2)
O5_2 O 0.1027(3) 0.5928(4) 0.3697(3)
O7_2 O -0.9893(3) 0.6079(3) 0.1832(2)
O8_2 O -0.9140(3) 0.7853(4) 0.1720(3)
O13 O 0.1682(7) 0.8753(6) 0.3134(4)
H27 H 0.217(11) 0.886(9) 0.279(6)
H28 H 0.136(7) 0.824(6) 0.324(4)
loop_
_geom_bond_atom_site_label_1
_geom_bond_atom_site_label_2
_geom_bond_site_symmetry_1
_geom_bond_site_symmetry_2
Cd1 N1 1_555 1_555
Cd2 N4 1_555 1_555
C1 H1 1_555 1_555
C2 C1 1_555 1_555
H2 C2 1_555 1_555
C3 C2 1_555 1_555
H3 C3 1_555 1_555
C4 C3 1_555 1_555
H4 C4 1_555 1_555
C5 C4 1_555 1_555
C6 C5 1_555 1_555
C7 C8 1_555 1_555
C8 H5 1_555 1_555
C9 C8 1_555 1_555
H6 C9 1_555 1_555
C10 C9 1_555 1_555
H7 C10 1_555 1_555
C11 C10 1_555 1_555
H8 C11 1_555 1_555
C12 C7 1_555 1_555
C13 C14 1_555 1_555
C14 C15 1_555 1_555
C15 H9 1_555 1_555
C16 C15 1_555 1_555
C17 C16 1_555 1_555
H10 C17 1_555 1_555
C18 C17 1_555 1_555
C19 C14 1_555 1_555
H11 C19 1_555 1_555
C20 C16 1_555 1_555
C21 C18 1_555 1_555
C22 C23 1_555 1_555
C23 C24 1_555 1_555
C24 H12 1_555 1_555
C25 C24 1_555 1_555
C26 C25 1_555 1_555
H13 C26 1_555 1_555
C27 C26 1_555 1_555
C28 C23 1_555 1_555
H14 C28 1_555 1_555
C29 C27 1_555 1_555
C30 C25 1_555 1_555
C31 H15 1_555 1_555
C32 C31 1_555 1_555
H16 C32 1_555 1_555
C33 C32 1_555 1_555
H17 C33 1_555 1_555
C34 C33 1_555 1_555
H18 C34 1_555 1_555
C35 C34 1_555 1_555
C36 C35 1_555 1_555
C37 C38 1_555 1_555
C38 H19 1_555 1_555
C39 C38 1_555 1_555
H20 C39 1_555 1_555
C40 C39 1_555 1_555
H21 C40 1_555 1_555
C41 C40 1_555 1_555
H22 C41 1_555 1_555
C42 C37 1_555 1_555
N1 C1 1_555 1_555
N2 Cd1 1_555 1_555
N3 C6 1_555 1_555
H23 N3 1_555 1_555
N4 C31 1_555 1_555
N5 Cd2 1_555 1_555
N6 C36 1_555 1_555
H24 N6 1_555 1_555
O1 Cd1 1_555 1_555
O2 Cd1 1_555 1_555
O3 C20 1_555 1_555
H25 O3 1_555 1_555
O4 C20 1_555 1_555
O5 C21 1_555 1_555
O6 Cd2 1_555 1_555
O7 Cd1 1_555 1_555
O8 C22 1_555 1_555
O9 C29 1_555 1_555
O10 C29 1_555 1_555
H26 O10 1_555 1_555
O11 Cd2 1_555 1_555
O12 Cd2 1_555 1_555
O13 H27 1_555 1_555
H28 O13 1_555 1_555
Cd1_2 O5 1_555 1_555
Cd2_2 O7 1_555 1_555
O5_2 Cd1 1_555 1_555
O7_2 Cd2 1_555 1_555
O8_2 Cd2 1_555 1_555
C5 N1 1_555 1_555
C6 N2 1_555 1_555
C7 N3 1_555 1_555
C11 C12 1_555 1_555
C12 N2 1_555 1_555
C13 O1 1_555 1_555
C13 O2 1_555 1_555
C18 C19 1_555 1_555
C21 O6 1_555 1_555
C22 O7 1_555 1_555
C27 C28 1_555 1_555
C30 O11 1_555 1_555
C30 O12 1_555 1_555
C35 N4 1_555 1_555
C36 N5 1_555 1_555
C37 N6 1_555 1_555
C41 C42 1_555 1_555
C42 N5 1_555 1_555
O8 Cd2_2 1_555 1_555
Cd1_2 O7_2 1_555 1_555

#END
