
#######################################################################
#
#                 Cambridge Crystallographic Data Centre
#                                CCDC 
#
#######################################################################
#
# If this CIF has been generated from an entry in the Cambridge 
# Structural Database, then it will include bibliographic, chemical, 
# crystal, experimental, refinement or atomic coordinate data resulting 
# from the CCDC's data processing and validation procedures.
#
#######################################################################

data_AFOPAN
_symmetry_cell_setting           triclinic
_symmetry_space_group_name_H-M   'P -1'
_symmetry_Int_Tables_number      2
_space_group_name_Hall           '-P 1'
loop_
_symmetry_equiv_pos_site_id
_symmetry_equiv_pos_as_xyz
1 x,y,z
2 -x,-y,-z
_cell_length_a                   11.561(2)
_cell_length_b                   14.226(3)
_cell_length_c                   14.763(3)
_cell_angle_alpha                83.23(3)
_cell_angle_beta                 86.19(3)
_cell_angle_gamma                75.01(3)
_cell_volume                     2327.41
loop_
_atom_site_label
_atom_site_type_symbol
_atom_site_fract_x
_atom_site_fract_y
_atom_site_fract_z
Eu1 Eu 0.984887(17) 0.140508(13) 0.504301(13)
O1 O 1.0983(3) 0.1333(2) 0.35230(19)
O2 O 1.0582(2) -0.00390(19) 0.40773(18)
O3 O 1.2746(3) -0.0356(2) 0.0852(2)
O4 O 0.8195(3) 0.2323(2) 0.5942(2)
O5 O 0.9872(3) 0.1845(2) 0.6660(2)
O6 O 0.7359(4) 0.4055(3) 0.8801(3)
O7 O 0.8176(3) 0.1151(2) 0.4351(2)
O8 O 0.6263(3) -0.1343(2) 0.2710(2)
O9 O 0.8222(2) -0.04415(19) 0.4497(2)
N1 N 1.1283(4) -0.0650(3) -0.0342(3)
N2 N 0.6368(5) 0.5567(4) 0.7648(4)
N3 N 0.5545(3) -0.2901(3) 0.2362(3)
N4 N 0.8968(3) 0.3087(2) 0.4071(2)
N5 N 1.1022(3) 0.2736(2) 0.5001(2)
C1 C 1.1115(4) 0.0439(3) 0.3491(3)
C2 C 1.1906(4) -0.0108(3) 0.2769(3)
H5 H 1.1399 -0.0308 0.2371
H6 H 1.2417 -0.0699 0.3068
C3 C 1.2698(4) 0.0441(3) 0.2180(3)
H7 H 1.2195 0.1014 0.1848
H8 H 1.3193 0.0663 0.2571
C4 C 1.3496(4) -0.0182(4) 0.1508(3)
H9 H 1.4071 0.0155 0.1210
H10 H 1.3931 -0.0797 0.1821
C5 C 1.3280(4) -0.0900(3) 0.0166(3)
C6 C 1.4485(4) -0.1276(4) 0.0053(3)
H11 H 1.5008 -0.1150 0.0448
C7 C 1.4936(5) -0.1857(4) -0.0667(4)
H12 H 1.5759 -0.2110 -0.0744
C8 C 1.4197(6) -0.2049(4) -0.1240(4)
H13 H 1.4514 -0.2446 -0.1701
C9 C 1.2951(5) -0.1660(4) -0.1159(3)
C10 C 1.2473(4) -0.1061(3) -0.0451(3)
C11 C 1.2126(7) -0.1826(5) -0.1741(4)
H14 H 1.2397 -0.2224 -0.2207
C12 C 1.0938(6) -0.1409(5) -0.1627(4)
H15 H 1.0388 -0.1513 -0.2011
C13 C 1.0563(5) -0.0819(4) -0.0916(4)
H16 H 0.9748 -0.0528 -0.0846
C14 C 0.8779(4) 0.2249(3) 0.6650(3)
C15 C 0.8093(5) 0.2651(4) 0.7488(3)
H17 H 0.7698 0.3334 0.7325
H18 H 0.7471 0.2309 0.7650
C16 C 0.8803(6) 0.2583(4) 0.8323(3)
H19 H 0.9448 0.2901 0.8171
H20 H 0.9154 0.1901 0.8527
C17 C 0.8000(8) 0.3070(4) 0.9090(4)
H21 H 0.7430 0.2690 0.9302
H22 H 0.8488 0.3074 0.9598
C18 C 0.7986(7) 0.4756(4) 0.8622(4)
C19 C 0.9046(8) 0.4728(6) 0.8958(4)
H23 H 0.9431 0.4180 0.9335
C20 C 0.9587(8) 0.5512(8) 0.8751(5)
H24 H 1.0325 0.5475 0.8989
C21 C 0.9043(9) 0.6317(7) 0.8209(6)
H25 H 0.9398 0.6838 0.8090
C22 C 0.7946(7) 0.6372(4) 0.7824(5)
C23 C 0.7397(6) 0.5581(4) 0.8029(4)
C24 C 0.7371(8) 0.7157(5) 0.7202(6)
H26 H 0.7699 0.7689 0.7047
C25 C 0.6365(8) 0.7134(5) 0.6839(6)
H27 H 0.5974 0.7654 0.6435
C26 C 0.5895(6) 0.6323(5) 0.7069(5)
H28 H 0.5197 0.6316 0.6793
C27 C 0.7719(4) 0.0444(3) 0.4303(3)
C28 C 0.6425(4) 0.0710(3) 0.4020(4)
H29 H 0.6334 0.1219 0.3512
H30 H 0.5918 0.0984 0.4524
C29 C 0.5976(4) -0.0126(4) 0.3744(4)
H31 H 0.6113 -0.0661 0.4229
H32 H 0.5120 0.0095 0.3655
C30 C 0.6607(5) -0.0480(4) 0.2880(4)
H33 H 0.6388 0.0025 0.2374
H34 H 0.7467 -0.0629 0.2940
C31 C 0.6800(4) -0.1796(4) 0.1971(3)
C32 C 0.7654(5) -0.1502(5) 0.1402(4)
H35 H 0.7917 -0.0963 0.1515
C33 C 0.8133(6) -0.2011(6) 0.0649(4)
H36 H 0.8707 -0.1800 0.0265
C34 C 0.7780(6) -0.2799(5) 0.0470(4)
H37 H 0.8118 -0.3129 -0.0029
C35 C 0.6908(5) -0.3121(4) 0.1032(3)
C36 C 0.6400(4) -0.2619(3) 0.1798(3)
C37 C 0.6464(6) -0.3918(4) 0.0857(4)
H38 H 0.6773 -0.4267 0.0363
C38 C 0.5596(6) -0.4168(4) 0.1406(4)
H39 H 0.5283 -0.4679 0.1290
C39 C 0.5172(5) -0.3645(4) 0.2157(4)
H40 H 0.4584 -0.3838 0.2538
C40 C 0.7948(4) 0.3283(3) 0.3649(3)
H41 H 0.7505 0.2817 0.3721
C41 C 0.7505(5) 0.4152(4) 0.3102(4)
H42 H 0.6787 0.4255 0.2810
C42 C 0.8124(5) 0.4848(4) 0.2998(3)
H43 H 0.7839 0.5429 0.2628
C43 C 0.9193(4) 0.4690(3) 0.3448(3)
C44 C 0.9881(5) 0.5395(3) 0.3393(3)
H44 H 0.9626 0.5986 0.3031
C45 C 1.0878(5) 0.5226(3) 0.3848(3)
H45 H 1.1306 0.5701 0.3798
C46 C 1.1313(4) 0.4326(3) 0.4415(3)
C47 C 1.2337(5) 0.4124(4) 0.4925(4)
H46 H 1.2792 0.4580 0.4896
C48 C 1.2675(5) 0.3261(4) 0.5466(4)
H47 H 1.3352 0.3121 0.5814
C49 C 1.1971(4) 0.2592(3) 0.5482(3)
H48 H 1.2194 0.2009 0.5859
C50 C 1.0676(4) 0.3596(3) 0.4473(3)
C51 C 0.9596(4) 0.3787(3) 0.3977(3)
Eu1A Eu 1.015113(17) -0.140508(13) 0.495699(13)
O2A O 0.9418(2) 0.00390(19) 0.59227(18)
O9A O 1.1778(2) 0.04415(19) 0.5503(2)
O10 O 0.5778(6) 0.2045(5) 0.5954(5)
H1 H 0.6023 0.2560 0.5815
H2 H 0.5396 0.2129 0.6463
O11 O 0.447(2) 0.5965(11) 0.4749(15)
H3 H 0.3749 0.6125 0.4573
H4 H 0.4852 0.5581 0.4371
loop_
_geom_bond_atom_site_label_1
_geom_bond_atom_site_label_2
_geom_bond_site_symmetry_1
_geom_bond_site_symmetry_2
Eu1 O1 1_555 1_555
O1 C1 1_555 1_555
O2 Eu1 1_555 1_555
O3 C4 1_555 1_555
O4 Eu1 1_555 1_555
O5 Eu1 1_555 1_555
O6 C17 1_555 1_555
O7 Eu1 1_555 1_555
O8 C30 1_555 1_555
O9 C27 1_555 1_555
O10 H1 1_555 1_555
H2 O10 1_555 1_555
O11 H3 1_555 1_555
H4 O11 1_555 1_555
N1 C10 1_555 1_555
N2 C23 1_555 1_555
N3 C36 1_555 1_555
N4 Eu1 1_555 1_555
N5 Eu1 1_555 1_555
C1 O2 1_555 1_555
C2 C1 1_555 1_555
H5 C2 1_555 1_555
H6 C2 1_555 1_555
C3 C2 1_555 1_555
H7 C3 1_555 1_555
H8 C3 1_555 1_555
C4 C3 1_555 1_555
H9 C4 1_555 1_555
H10 C4 1_555 1_555
C5 O3 1_555 1_555
C6 C5 1_555 1_555
H11 C6 1_555 1_555
C7 C6 1_555 1_555
H12 C7 1_555 1_555
C8 C7 1_555 1_555
H13 C8 1_555 1_555
C9 C8 1_555 1_555
C10 C5 1_555 1_555
C11 C9 1_555 1_555
H14 C11 1_555 1_555
C12 C11 1_555 1_555
H15 C12 1_555 1_555
C13 N1 1_555 1_555
H16 C13 1_555 1_555
C14 O4 1_555 1_555
C15 C14 1_555 1_555
H17 C15 1_555 1_555
H18 C15 1_555 1_555
C16 C15 1_555 1_555
H19 C16 1_555 1_555
H20 C16 1_555 1_555
C17 C16 1_555 1_555
H21 C17 1_555 1_555
H22 C17 1_555 1_555
C18 O6 1_555 1_555
C19 C18 1_555 1_555
H23 C19 1_555 1_555
C20 C19 1_555 1_555
H24 C20 1_555 1_555
C21 C20 1_555 1_555
H25 C21 1_555 1_555
C22 C21 1_555 1_555
C23 C18 1_555 1_555
C24 C22 1_555 1_555
H26 C24 1_555 1_555
C25 C24 1_555 1_555
H27 C25 1_555 1_555
C26 N2 1_555 1_555
H28 C26 1_555 1_555
C27 O7 1_555 1_555
C28 C27 1_555 1_555
H29 C28 1_555 1_555
H30 C28 1_555 1_555
C29 C28 1_555 1_555
H31 C29 1_555 1_555
H32 C29 1_555 1_555
C30 C29 1_555 1_555
H33 C30 1_555 1_555
H34 C30 1_555 1_555
C31 O8 1_555 1_555
C32 C31 1_555 1_555
H35 C32 1_555 1_555
C33 C32 1_555 1_555
H36 C33 1_555 1_555
C34 C33 1_555 1_555
H37 C34 1_555 1_555
C35 C34 1_555 1_555
C36 C31 1_555 1_555
C37 C35 1_555 1_555
H38 C37 1_555 1_555
C38 C37 1_555 1_555
H39 C38 1_555 1_555
C39 N3 1_555 1_555
H40 C39 1_555 1_555
C40 N4 1_555 1_555
H41 C40 1_555 1_555
C41 C40 1_555 1_555
H42 C41 1_555 1_555
C42 C41 1_555 1_555
H43 C42 1_555 1_555
C43 C42 1_555 1_555
C44 C43 1_555 1_555
H44 C44 1_555 1_555
C45 C44 1_555 1_555
H45 C45 1_555 1_555
C46 C45 1_555 1_555
C47 C46 1_555 1_555
H46 C47 1_555 1_555
C48 C47 1_555 1_555
H47 C48 1_555 1_555
C49 N5 1_555 1_555
H48 C49 1_555 1_555
C50 N5 1_555 1_555
C51 N4 1_555 1_555
Eu1A O2 1_555 1_555
O2A Eu1 1_555 1_555
O9A Eu1 1_555 1_555
O5 C14 1_555 1_555
O9 Eu1A 1_555 1_555
C9 C10 1_555 1_555
C12 C13 1_555 1_555
C22 C23 1_555 1_555
C25 C26 1_555 1_555
C35 C36 1_555 1_555
C38 C39 1_555 1_555
C43 C51 1_555 1_555
C46 C50 1_555 1_555
C48 C49 1_555 1_555
C50 C51 1_555 1_555
Eu1A O2A 1_555 1_555

#END
