
#######################################################################
#
#                 Cambridge Crystallographic Data Centre
#                                CCDC 
#
#######################################################################
#
# If this CIF has been generated from an entry in the Cambridge 
# Structural Database, then it will include bibliographic, chemical, 
# crystal, experimental, refinement or atomic coordinate data resulting 
# from the CCDC's data processing and validation procedures.
#
#######################################################################

data_AFOQUI
_symmetry_cell_setting           orthorhombic
_symmetry_space_group_name_H-M   'F d d 2'
_symmetry_Int_Tables_number      43
_space_group_name_Hall           'F 2 -2d'
loop_
_symmetry_equiv_pos_site_id
_symmetry_equiv_pos_as_xyz
1 x,y,z
2 -x,-y,z
3 1/4+x,1/4-y,1/4+z
4 1/4-x,1/4+y,1/4+z
5 x,1/2+y,1/2+z
6 -x,1/2-y,1/2+z
7 1/4+x,3/4-y,3/4+z
8 1/4-x,3/4+y,3/4+z
9 1/2+x,y,1/2+z
10 1/2-x,-y,1/2+z
11 3/4+x,1/4-y,3/4+z
12 3/4-x,1/4+y,3/4+z
13 1/2+x,1/2+y,z
14 1/2-x,1/2-y,z
15 3/4+x,3/4-y,1/4+z
16 3/4-x,3/4+y,1/4+z
_cell_length_a                   24.4776(17)
_cell_length_b                   34.405(2)
_cell_length_c                   9.8623(6)
_cell_angle_alpha                90
_cell_angle_beta                 90
_cell_angle_gamma                90
_cell_volume                     8305.55
loop_
_atom_site_label
_atom_site_type_symbol
_atom_site_fract_x
_atom_site_fract_y
_atom_site_fract_z
Zn1 Zn 0.5000 0.0000 0.47973(7)
Zn2 Zn 0.909640(14) 0.083990(10) 0.48124(4)
Zn3 Zn 0.551102(13) 0.097273(10) 0.48490(5)
O1 O 0.58418(9) 0.01558(7) 0.4829(4)
O2 O 0.62492(10) 0.07306(7) 0.4629(3)
O3 O 0.83155(10) 0.07041(8) 0.4623(3)
O4 O 0.87161(10) 0.01301(8) 0.4720(4)
O5 O 0.76679(10) -0.09312(7) 0.2321(4)
O6 O 0.67958(11) -0.09936(7) 0.2858(3)
O7 O 0.91144(12) 0.14203(7) 0.4822(4)
H1 H 0.9001 0.1576 0.4213
H2 H 0.9015 0.1466 0.5633
N1 N 0.50690(14) 0.07914(9) 0.3249(3)
N2 N 0.48714(14) 0.04163(9) 0.3232(3)
N3 N 0.45259(14) 0.07337(10) 0.1468(3)
N4 N 0.50831(13) 0.07660(10) 0.6414(3)
N5 N 0.48259(13) 0.04122(9) 0.6322(3)
N6 N 0.45045(14) 0.07183(11) 0.8119(3)
C1 C 0.62500(13) 0.03600(10) 0.4615(4)
C2 C 0.67810(15) 0.01591(10) 0.4315(4)
C3 C 0.72773(14) 0.03406(10) 0.4542(4)
H3 H 0.7286 0.0592 0.4885
C4 C 0.77606(15) 0.01481(11) 0.4257(4)
C5 C 0.83026(14) 0.03329(11) 0.4557(4)
C6 C 0.77470(15) -0.02187(11) 0.3696(4)
H4 H 0.8072 -0.0345 0.3489
C7 C 0.72483(14) -0.04022(11) 0.3436(4)
C8 C 0.72481(16) -0.07983(10) 0.2827(4)
C9 C 0.67666(15) -0.02149(11) 0.3793(4)
H5 H 0.6433 -0.0341 0.3681
C10 C 0.45536(15) 0.03943(11) 0.2159(4)
H6 H 0.4368 0.0170 0.1903
C11 C 0.48547(17) 0.09678(11) 0.2187(5)
H7 H 0.4924 0.1226 0.1961
C12 C 0.44894(15) 0.03963(11) 0.7345(5)
H8 H 0.4263 0.0185 0.7522
C13 C 0.48786(16) 0.09376(12) 0.7492(5)
H9 H 0.4982 0.1184 0.7786
Zn2A Zn 0.090360(14) -0.083990(10) 0.48124(4)
Zn2H Zn 0.409640(14) 0.083990(10) -0.01876(4)
Zn2H_2 Zn 0.409640(14) 0.083990(10) 0.98124(4)
Zn2I Zn 0.590360(14) -0.083990(10) -0.01876(4)
Zn2I_2 Zn 0.590360(14) -0.083990(10) 0.98124(4)
Zn3A Zn 0.448898(13) -0.097273(10) 0.48490(5)
Zn3G Zn 0.698898(13) -0.152727(10) 0.23490(5)
Zn3J Zn 0.301102(13) 0.152727(10) 0.23490(5)
O1A O 0.41582(9) -0.01558(7) 0.4829(4)
O2A O 0.37508(10) -0.07306(7) 0.4629(3)
O3A O 0.16845(10) -0.07041(8) 0.4623(3)
O4A O 0.12839(10) -0.01301(8) 0.4720(4)
O5A O 0.23321(10) 0.09312(7) 0.2321(4)
O6A O 0.32042(11) 0.09936(7) 0.2858(3)
O6C O 0.57042(11) 0.15064(7) 0.5358(3)
O6N O 0.42958(11) -0.15064(7) 0.5358(3)
O7A O 0.08856(12) -0.14203(7) 0.4822(4)
H1A H 0.0999 -0.1576 0.4213
H2A H 0.0985 -0.1466 0.5633
N1A N 0.49310(14) -0.07914(9) 0.3249(3)
N2A N 0.51286(14) -0.04163(9) 0.3232(3)
N3A N 0.54741(14) -0.07337(10) 0.1468(3)
N3H N 0.95259(14) 0.07337(10) 0.6468(3)
N3I N 0.04741(14) -0.07337(10) 0.6468(3)
N4A N 0.49169(13) -0.07660(10) 0.6414(3)
N5A N 0.51741(13) -0.04122(9) 0.6322(3)
N6A N 0.54955(14) -0.07183(11) 0.8119(3)
N6H N 0.95045(14) 0.07183(11) 0.3119(3)
N6I N 0.04955(14) -0.07183(11) 0.3119(3)
C1A C 0.37500(13) -0.03600(10) 0.4615(4)
C2A C 0.32190(15) -0.01591(10) 0.4315(4)
C3A C 0.27227(14) -0.03406(10) 0.4542(4)
H3A H 0.2714 -0.0592 0.4885
C4A C 0.22394(15) -0.01481(11) 0.4257(4)
C5A C 0.16974(14) -0.03329(11) 0.4557(4)
C6A C 0.22530(15) 0.02187(11) 0.3696(4)
H4A H 0.1928 0.0345 0.3489
C7A C 0.27517(14) 0.04022(11) 0.3436(4)
C8A C 0.27519(16) 0.07983(10) 0.2827(4)
C9A C 0.32334(15) 0.02149(11) 0.3793(4)
H5A H 0.3567 0.0341 0.3681
C10A C 0.54464(15) -0.03943(11) 0.2159(4)
H6A H 0.5632 -0.0170 0.1903
C11A C 0.51453(17) -0.09678(11) 0.2187(5)
H7A H 0.5076 -0.1226 0.1961
C12A C 0.55106(15) -0.03963(11) 0.7345(5)
H8A H 0.5737 -0.0185 0.7522
C13A C 0.51214(16) -0.09376(12) 0.7492(5)
H9A H 0.5018 -0.1184 0.7786
O8 O 0.3895(4) 0.1079(3) 0.5098(10)
O10 O 0.5671(3) 0.1288(2) 0.9678(10)
O11 O 0.6062(7) 0.0716(4) 0.0196(15)
O9? O 0.3792(4) 0.1274(4) 0.5361(13)
O12? O 0.6196(10) 0.0636(8) 0.055(3)
O13? O 0.6040(6) 0.0576(4) 0.0916(14)
loop_
_geom_bond_atom_site_label_1
_geom_bond_atom_site_label_2
_geom_bond_site_symmetry_1
_geom_bond_site_symmetry_2
Zn1 O1 1_555 1_555
Zn2 O3 1_555 1_555
Zn3 O2 1_555 1_555
O1 C1 1_555 1_555
O2 C1 1_555 1_555
O3 C5 1_555 1_555
O4 C5 1_555 1_555
O5 C8 1_555 1_555
O6 C8 1_555 1_555
O7 Zn2 1_555 1_555
H1 O7 1_555 1_555
H2 O7 1_555 1_555
N1 Zn3 1_555 1_555
N2 Zn1 1_555 1_555
N3 C10 1_555 1_555
N4 Zn3 1_555 1_555
N5 Zn1 1_555 1_555
N6 C12 1_555 1_555
C1 C2 1_555 1_555
C2 C3 1_555 1_555
C3 H3 1_555 1_555
C4 C3 1_555 1_555
C5 C4 1_555 1_555
C6 C4 1_555 1_555
H4 C6 1_555 1_555
C7 C6 1_555 1_555
C8 C7 1_555 1_555
C9 C2 1_555 1_555
H5 C9 1_555 1_555
C10 N2 1_555 1_555
H6 C10 1_555 1_555
C11 N1 1_555 1_555
H7 C11 1_555 1_555
C12 N5 1_555 1_555
H8 C12 1_555 1_555
C13 N4 1_555 1_555
H9 C13 1_555 1_555
Zn2A O3A 1_555 1_555
Zn2H N3 1_555 1_555
Zn2H_2 N6 1_555 1_555
Zn2I N3A 1_555 1_555
Zn2I_2 N6A 1_555 1_555
Zn3A O2A 1_555 1_555
Zn3G O6 1_555 1_555
Zn3J O6A 1_555 1_555
O1A Zn1 1_555 1_555
O2A C1A 1_555 1_555
O3A C5A 1_555 1_555
O4A C5A 1_555 1_555
O5A C8A 1_555 1_555
O6A C8A 1_555 1_555
O6C Zn3 1_555 1_555
O6N Zn3A 1_555 1_555
O7A Zn2A 1_555 1_555
H1A O7A 1_555 1_555
H2A O7A 1_555 1_555
N1A Zn3A 1_555 1_555
N2A Zn1 1_555 1_555
N3A C10A 1_555 1_555
N3H Zn2 1_555 1_555
N3I Zn2A 1_555 1_555
N4A Zn3A 1_555 1_555
N5A Zn1 1_555 1_555
N6A C12A 1_555 1_555
N6H Zn2 1_555 1_555
N6I Zn2A 1_555 1_555
C1A O1A 1_555 1_555
C2A C1A 1_555 1_555
C3A C2A 1_555 1_555
H3A C3A 1_555 1_555
C4A C3A 1_555 1_555
C5A C4A 1_555 1_555
C6A C4A 1_555 1_555
H4A C6A 1_555 1_555
C7A C6A 1_555 1_555
C8A C7A 1_555 1_555
C9A C2A 1_555 1_555
H5A C9A 1_555 1_555
C10A N2A 1_555 1_555
H6A C10A 1_555 1_555
C11A N1A 1_555 1_555
H7A C11A 1_555 1_555
C12A N5A 1_555 1_555
H8A C12A 1_555 1_555
C13A N4A 1_555 1_555
H9A C13A 1_555 1_555
N1 N2 1_555 1_555
N3 C11 1_555 1_555
N4 N5 1_555 1_555
N6 C13 1_555 1_555
C7 C9 1_555 1_555
N1A N2A 1_555 1_555
N3A C11A 1_555 1_555
N4A N5A 1_555 1_555
N6A C13A 1_555 1_555
C7A C9A 1_555 1_555

#END
