
#######################################################################
#
#                 Cambridge Crystallographic Data Centre
#                                CCDC 
#
#######################################################################
#
# If this CIF has been generated from an entry in the Cambridge 
# Structural Database, then it will include bibliographic, chemical, 
# crystal, experimental, refinement or atomic coordinate data resulting 
# from the CCDC's data processing and validation procedures.
#
#######################################################################

data_AFOQOC
_symmetry_cell_setting           monoclinic
_symmetry_space_group_name_H-M   'P 21/c'
_symmetry_Int_Tables_number      14
_space_group_name_Hall           '-P 2ybc'
loop_
_symmetry_equiv_pos_site_id
_symmetry_equiv_pos_as_xyz
1 x,y,z
2 -x,1/2+y,1/2-z
3 -x,-y,-z
4 x,1/2-y,1/2+z
_cell_length_a                   8.6815(7)
_cell_length_b                   13.0155(11)
_cell_length_c                   19.1370(16)
_cell_angle_alpha                90
_cell_angle_beta                 93.9640(10)
_cell_angle_gamma                90
_cell_volume                     2157.19
loop_
_atom_site_label
_atom_site_type_symbol
_atom_site_fract_x
_atom_site_fract_y
_atom_site_fract_z
Zn1 Zn 0.35841(3) 0.42447(2) 0.051427(12)
Zn2 Zn 0.5000 0.5000 0.5000
Zn3 Zn 0.02103(3) 0.70834(2) 0.435640(12)
O1 O 0.34762(17) 0.43710(13) 0.15860(8)
O2 O 0.12649(18) 0.44443(13) 0.09725(8)
O3 O -0.35670(18) 0.44527(17) 0.20329(8)
H1 H -0.4510 0.4415 0.2030
O4 O -0.37867(19) 0.46635(16) 0.31667(9)
O5 O 0.31937(17) 0.46550(13) 0.42852(8)
O6 O 0.13410(17) 0.57563(12) 0.45252(8)
O7 O 0.28008(18) 0.28969(12) 0.01348(8)
O8 O 0.05996(17) 0.22268(13) -0.03045(8)
O9 O -0.06752(17) 0.28810(13) -0.29553(8)
O10 O 0.13544(17) 0.29669(12) -0.35854(8)
O11 O 0.65127(19) 0.30364(17) -0.25975(9)
H2 H 0.7448 0.2974 -0.2620
O12 O 0.7124(2) 0.2897(2) -0.14637(10)
O13 O 0.5737(2) 0.60932(13) 0.42466(9)
H3 H 0.5949 0.5754 0.3886
H4 H 0.6353 0.6575 0.4377
O14 O 0.62256(18) 0.38315(13) 0.45650(8)
H5 H 0.6256 0.3806 0.4122
H6 H 0.7086 0.3850 0.4806
N1 N 0.3148(2) 0.55204(14) -0.00558(9)
N2 N 0.4136(2) 0.60554(14) -0.04541(9)
N3 N 0.1898(2) 0.68730(14) -0.05032(9)
C1 C 0.2003(2) 0.44593(17) 0.15521(11)
C2 C 0.1169(2) 0.45653(16) 0.22062(11)
C3 C -0.0437(2) 0.45284(17) 0.21452(11)
H7 H -0.0955 0.4452 0.1707
C4 C -0.1267(2) 0.46053(17) 0.27384(11)
C5 C -0.2986(2) 0.45730(17) 0.26762(11)
C6 C -0.0500(2) 0.47666(16) 0.33880(11)
H8 H -0.1057 0.4831 0.3784
C7 C 0.1102(2) 0.48323(16) 0.34479(11)
C8 C 0.1939(2) 0.46980(16) 0.28601(11)
H9 H 0.3013 0.4697 0.2905
C9 C 0.1942(2) 0.50951(16) 0.41330(11)
C10 C 0.1879(2) 0.26438(16) -0.03794(11)
C11 C 0.2364(2) 0.28057(16) -0.11066(11)
C12 C 0.1312(2) 0.28180(16) -0.16859(11)
H10 H 0.0259 0.2774 -0.1628
C13 C 0.1840(2) 0.28961(16) -0.23573(11)
C14 C 0.0737(2) 0.29143(16) -0.29961(11)
C15 C 0.3416(2) 0.29301(17) -0.24406(11)
H11 H 0.3767 0.2951 -0.2888
C16 C 0.4469(2) 0.29330(17) -0.18616(11)
C17 C 0.6168(3) 0.29515(19) -0.19407(12)
C18 C 0.3947(2) 0.28830(17) -0.11940(11)
H12 H 0.4648 0.2901 -0.0804
C19 C 0.3347(2) 0.68504(18) -0.07107(12)
H13 H 0.3746 0.7341 -0.1002
C20 C 0.1846(2) 0.60392(18) -0.00973(12)
H14 H 0.0980 0.5847 0.0131
Zn1B Zn 0.64159(3) 0.57553(2) 0.948573(12)
Zn1B_2 Zn 0.64159(3) 0.57553(2) -0.051427(12)
Zn1A Zn -0.35841(3) 0.92447(2) 0.448573(12)
Zn3B Zn 0.97897(3) 0.29166(2) 0.564360(12)
Zn3A Zn -0.02103(3) 0.20834(2) 0.064360(12)
Zn3B_2 Zn -0.02103(3) 0.29166(2) -0.435640(12)
Zn3C Zn 0.02103(3) 0.79166(2) -0.064360(12)
Zn3A_2 Zn 0.97897(3) 0.20834(2) 0.064360(12)
Zn3C_2 Zn 0.02103(3) 0.79166(2) 0.935640(12)
O1B O 0.65238(17) 0.56290(13) 0.84140(8)
O2B O 0.87351(18) 0.55557(13) 0.90275(8)
O3B O 1.35670(18) 0.55473(17) 0.79671(8)
H1B H 1.4510 0.5585 0.7970
O4B O 1.37867(19) 0.53365(16) 0.68333(9)
O5B O 0.68063(17) 0.53450(13) 0.57148(8)
O6B O 0.86590(17) 0.42437(12) 0.54748(8)
O7A O -0.28008(18) 0.78969(12) 0.48652(8)
O7B O 0.71992(18) 0.71031(12) 0.98652(8)
O8A O -0.05996(17) 0.72268(13) 0.53045(8)
O8C O 1.05996(17) 0.27732(13) 0.46955(8)
O9A O 0.06752(17) 0.78810(13) 0.79553(8)
O10A O -0.13544(17) 0.79669(12) 0.85854(8)
O10B O -0.13544(17) 0.70331(12) 0.35854(8)
O10_2 O 1.13544(17) 0.29669(12) 0.64146(8)
O11A O -0.65127(19) 0.80364(17) 0.75975(9)
H2A H -0.7448 0.7974 0.7620
O12A O -0.7124(2) 0.7897(2) 0.64637(10)
O13B O 0.4263(2) 0.39068(13) 0.57534(9)
H3B H 0.4051 0.4246 0.6114
H4B H 0.3647 0.3425 0.5623
O14B O 0.37744(18) 0.61685(13) 0.54350(8)
H5B H 0.3744 0.6194 0.5878
H6B H 0.2914 0.6150 0.5194
N1B N 0.6852(2) 0.44796(14) 0.00558(9)
N1B_2 N 0.6852(2) 0.44796(14) 1.00558(9)
N2B N 0.5864(2) 0.39446(14) 0.04541(9)
N2_2 N 0.4136(2) 0.60554(14) 0.95459(9)
N3B N 0.8102(2) 0.31270(14) 0.05032(9)
N3C N 0.1898(2) 0.81270(14) 0.44968(9)
N3A N 0.8102(2) 0.18730(14) 0.55032(9)
C1B C 0.7997(2) 0.55407(17) 0.84479(11)
C2B C 0.8831(2) 0.54347(16) 0.77938(11)
C3B C 1.0437(2) 0.54716(17) 0.78548(11)
H7B H 1.0955 0.5548 0.8293
C4B C 1.1267(2) 0.53947(17) 0.72616(11)
C5B C 1.2986(2) 0.54270(17) 0.73238(11)
C6B C 1.0500(2) 0.52334(16) 0.66120(11)
H8B H 1.1057 0.5169 0.6216
C7B C 0.8898(2) 0.51677(16) 0.65521(11)
C8B C 0.8061(2) 0.53020(16) 0.71399(11)
H9B H 0.6987 0.5303 0.7095
C9B C 0.8058(2) 0.49049(16) 0.58670(11)
C10A C -0.1879(2) 0.76438(16) 0.53794(11)
C11A C -0.2364(2) 0.78057(16) 0.61066(11)
C12A C -0.1312(2) 0.78180(16) 0.66859(11)
H10A H -0.0259 0.7774 0.6628
C13A C -0.1840(2) 0.78961(16) 0.73573(11)
C14A C -0.0737(2) 0.79143(16) 0.79961(11)
C15A C -0.3416(2) 0.79301(17) 0.74406(11)
H11A H -0.3767 0.7951 0.7888
C16A C -0.4469(2) 0.79330(17) 0.68616(11)
C17A C -0.6168(3) 0.79515(19) 0.69407(12)
C18A C -0.3947(2) 0.78830(17) 0.61940(11)
H12A H -0.4648 0.7901 0.5804
C19B C 0.6653(2) 0.31496(18) 0.07107(12)
H13B H 0.6254 0.2659 0.1002
C20B C 0.8154(2) 0.39608(18) 0.00973(12)
H14B H 0.9020 0.4153 -0.0131
loop_
_geom_bond_atom_site_label_1
_geom_bond_atom_site_label_2
_geom_bond_site_symmetry_1
_geom_bond_site_symmetry_2
Zn1 O1 1_555 1_555
Zn2 O5 1_555 1_555
Zn3 O6 1_555 1_555
O1 C1 1_555 1_555
O2 Zn1 1_555 1_555
O3 H1 1_555 1_555
O4 C5 1_555 1_555
O5 C9 1_555 1_555
O6 C9 1_555 1_555
O7 Zn1 1_555 1_555
O8 C10 1_555 1_555
O9 C14 1_555 1_555
O10 C14 1_555 1_555
O11 H2 1_555 1_555
O12 C17 1_555 1_555
O13 Zn2 1_555 1_555
H3 O13 1_555 1_555
H4 O13 1_555 1_555
O14 Zn2 1_555 1_555
H5 O14 1_555 1_555
H6 O14 1_555 1_555
N1 Zn1 1_555 1_555
N2 N1 1_555 1_555
N3 C19 1_555 1_555
C1 O2 1_555 1_555
C2 C1 1_555 1_555
C3 C2 1_555 1_555
H7 C3 1_555 1_555
C4 C3 1_555 1_555
C5 O3 1_555 1_555
C6 C4 1_555 1_555
H8 C6 1_555 1_555
C7 C6 1_555 1_555
C8 C2 1_555 1_555
H9 C8 1_555 1_555
C9 C7 1_555 1_555
C10 O7 1_555 1_555
C11 C10 1_555 1_555
C12 C11 1_555 1_555
H10 C12 1_555 1_555
C13 C12 1_555 1_555
C14 C13 1_555 1_555
C15 C13 1_555 1_555
H11 C15 1_555 1_555
C16 C15 1_555 1_555
C17 O11 1_555 1_555
C18 C11 1_555 1_555
H12 C18 1_555 1_555
C19 N2 1_555 1_555
H13 C19 1_555 1_555
C20 N1 1_555 1_555
H14 C20 1_555 1_555
Zn1B O1B 1_555 1_555
Zn1B_2 N2 1_555 1_555
Zn1A O7A 1_555 1_555
Zn3B O6B 1_555 1_555
Zn3A O8 1_555 1_555
Zn3B_2 O10 1_555 1_555
Zn3C N3 1_555 1_555
Zn3A_2 N3B 1_555 1_555
Zn3C_2 O10A 1_555 1_555
O1B C1B 1_555 1_555
O2B Zn1B 1_555 1_555
O3B H1B 1_555 1_555
O4B C5B 1_555 1_555
O5B Zn2 1_555 1_555
O6B C9B 1_555 1_555
O7A C10A 1_555 1_555
O7B Zn1B 1_555 1_555
O8A Zn3 1_555 1_555
O8C Zn3B 1_555 1_555
O9A C14A 1_555 1_555
O10A C14A 1_555 1_555
O10B Zn3 1_555 1_555
O10_2 Zn3B 1_555 1_555
O11A H2A 1_555 1_555
O12A C17A 1_555 1_555
O13B Zn2 1_555 1_555
H3B O13B 1_555 1_555
H4B O13B 1_555 1_555
O14B Zn2 1_555 1_555
H5B O14B 1_555 1_555
H6B O14B 1_555 1_555
N1B Zn1B_2 1_555 1_555
N1B_2 Zn1B 1_555 1_555
N2B Zn1 1_555 1_555
N2_2 Zn1B 1_555 1_555
N3B C19B 1_555 1_555
N3C Zn3 1_555 1_555
N3A Zn3B 1_555 1_555
C1B O2B 1_555 1_555
C2B C1B 1_555 1_555
C3B C2B 1_555 1_555
H7B C3B 1_555 1_555
C4B C3B 1_555 1_555
C5B O3B 1_555 1_555
C6B C4B 1_555 1_555
H8B C6B 1_555 1_555
C7B C6B 1_555 1_555
C8B C2B 1_555 1_555
H9B C8B 1_555 1_555
C9B O5B 1_555 1_555
C10A O8A 1_555 1_555
C11A C10A 1_555 1_555
C12A C11A 1_555 1_555
H10A C12A 1_555 1_555
C13A C12A 1_555 1_555
C14A C13A 1_555 1_555
C15A C13A 1_555 1_555
H11A C15A 1_555 1_555
C16A C15A 1_555 1_555
C17A O11A 1_555 1_555
C18A C11A 1_555 1_555
H12A C18A 1_555 1_555
C19B N2B 1_555 1_555
H13B C19B 1_555 1_555
C20B N1B 1_555 1_555
H14B C20B 1_555 1_555
N3 C20 1_555 1_555
C4 C5 1_555 1_555
C7 C8 1_555 1_555
C16 C17 1_555 1_555
C16 C18 1_555 1_555
N1B N2B 1_555 1_555
N3B C20B 1_555 1_555
C4B C5B 1_555 1_555
C7B C8B 1_555 1_555
C7B C9B 1_555 1_555
C16A C17A 1_555 1_555
C16A C18A 1_555 1_555

#END
