
#######################################################################
#
#                 Cambridge Crystallographic Data Centre
#                                CCDC 
#
#######################################################################
#
# If this CIF has been generated from an entry in the Cambridge 
# Structural Database, then it will include bibliographic, chemical, 
# crystal, experimental, refinement or atomic coordinate data resulting 
# from the CCDC's data processing and validation procedures.
#
#######################################################################

data_AFOQOC02
_symmetry_cell_setting           monoclinic
_symmetry_space_group_name_H-M   'P 21/c'
_symmetry_Int_Tables_number      14
_space_group_name_Hall           '-P 2ybc'
loop_
_symmetry_equiv_pos_site_id
_symmetry_equiv_pos_as_xyz
1 x,y,z
2 -x,1/2+y,1/2-z
3 -x,-y,-z
4 x,1/2-y,1/2+z
_cell_length_a                   8.685(3)
_cell_length_b                   13.029(3)
_cell_length_c                   19.154(3)
_cell_angle_alpha                90
_cell_angle_beta                 93.94(2)
_cell_angle_gamma                90
_cell_volume                     2162.28
loop_
_atom_site_label
_atom_site_type_symbol
_atom_site_fract_x
_atom_site_fract_y
_atom_site_fract_z
Zn1 Zn -0.02121(4) 0.20845(3) -0.43564(2)
Zn2 Zn -0.5000 0.0000 -0.5000
Zn3 Zn -0.35818(4) -0.07558(3) -0.05143(2)
O1 O -0.5736(4) 0.1097(2) -0.42471(15)
H1 H -0.642(6) 0.146(4) -0.435(3)
H2 H -0.596(6) 0.083(4) -0.390(3)
O2 O -0.3775(3) 0.1167(3) -0.54335(14)
H3 H -0.366(6) 0.123(4) -0.579(3)
H4 H -0.297(6) 0.119(4) -0.526(3)
O3 O -0.1342(3) 0.0756(2) -0.45265(12)
O4 O -0.3192(3) -0.0345(2) -0.42854(13)
O5 O -0.3478(3) -0.0631(2) -0.15887(13)
O6 O -0.1258(3) -0.0554(2) -0.09721(12)
O7 O 0.3568(3) -0.0548(3) -0.20328(13)
H5 H 0.4512 -0.0563 -0.2029
O8 O 0.3787(3) -0.0335(3) -0.31667(14)
C1 C -0.1103(4) -0.0168(3) -0.34456(16)
C2 C -0.1947(4) -0.0298(3) -0.28615(17)
H6 H -0.3020 -0.0294 -0.2907
C3 C -0.1168(4) -0.0435(3) -0.22049(16)
C4 C 0.0436(4) -0.0473(3) -0.21446(17)
H7 H 0.0952 -0.0552 -0.1706
C5 C 0.1273(4) -0.0395(3) -0.27366(17)
C6 C 0.0493(4) -0.0230(3) -0.33896(17)
H8 H 0.1045 -0.0163 -0.3786
C7 C -0.1940(4) 0.0097(3) -0.41312(16)
C8 C -0.2012(4) -0.0544(3) -0.15534(17)
C9 C 0.2984(4) -0.0424(3) -0.26771(18)
O9 O 0.0599(3) 0.2221(2) -0.53051(12)
O10 O 0.2796(3) 0.2898(2) -0.48656(12)
O11 O 0.7123(3) 0.2895(3) -0.64654(15)
O12 O 0.6519(3) 0.3032(3) -0.75971(13)
H9 H 0.7456 0.3092 -0.7610
O13 O 0.1358(3) 0.2966(2) -0.85855(12)
O14 O -0.0675(3) 0.2878(2) -0.79556(13)
C10 C 0.2372(4) 0.2798(3) -0.61063(16)
C11 C 0.3943(4) 0.2882(3) -0.61939(17)
H10 H 0.4641 0.2904 -0.5804
C12 C 0.4477(4) 0.2933(3) -0.68613(17)
C13 C 0.3412(4) 0.2929(3) -0.74422(17)
H11 H 0.3761 0.2948 -0.7890
C14 C 0.1834(4) 0.2896(3) -0.73561(16)
C15 C 0.1313(4) 0.2816(3) -0.66860(17)
H12 H 0.0261 0.2776 -0.6626
C16 C 0.1872(4) 0.2641(3) -0.53782(17)
C17 C 0.6164(4) 0.2952(3) -0.69423(19)
C18 C 0.0737(4) 0.2911(3) -0.79988(17)
N1 N -0.8105(3) -0.1873(2) -0.05050(15)
N2 N -0.5857(3) -0.1055(2) -0.04549(14)
N3 N -0.6847(3) -0.0521(2) -0.00545(15)
C19 C -0.8152(4) -0.1041(3) -0.00965(19)
H13 H -0.9016 -0.0850 0.0134
C20 C -0.6653(4) -0.1853(3) -0.07103(19)
H14 H -0.6254 -0.2346 -0.0999
Zn1B Zn -0.97879(4) -0.20845(3) -0.56436(2)
Zn1C Zn -0.02121(4) 0.29155(3) -0.93564(2)
Zn1C_2 Zn -0.02121(4) 0.29155(3) 0.06436(2)
Zn1A Zn -0.97879(4) -0.29155(3) -0.06436(2)
Zn1A_2 Zn 0.02121(4) -0.29155(3) -0.06436(2)
Zn1B_2 Zn 0.02121(4) -0.20845(3) 0.43564(2)
Zn3B Zn -0.64182(4) 0.07558(3) -0.94857(2)
Zn3A Zn 0.35818(4) 0.42442(3) -0.44857(2)
Zn3B_2 Zn -0.64182(4) 0.07558(3) 0.05143(2)
O1B O -0.4264(4) -0.1097(2) -0.57529(15)
H1B H -0.358(6) -0.146(4) -0.565(3)
H2B H -0.404(6) -0.083(4) -0.610(3)
O2B O -0.6225(3) -0.1167(3) -0.45665(14)
H3B H -0.634(6) -0.123(4) -0.421(3)
H4B H -0.703(6) -0.119(4) -0.474(3)
O3B O -0.8658(3) -0.0756(2) -0.54735(12)
O4B O -0.6808(3) 0.0345(2) -0.57146(13)
O5B O -0.6522(3) 0.0631(2) -0.84113(13)
O6B O -0.8742(3) 0.0554(2) -0.90279(12)
O7B O -1.3568(3) 0.0548(3) -0.79672(13)
H5B H -1.4512 0.0563 -0.7971
O8B O -1.3787(3) 0.0335(3) -0.68333(14)
C1B C -0.8897(4) 0.0168(3) -0.65544(16)
C2B C -0.8053(4) 0.0298(3) -0.71385(17)
H6B H -0.6980 0.0294 -0.7093
C3B C -0.8832(4) 0.0435(3) -0.77951(16)
C4B C -1.0436(4) 0.0473(3) -0.78554(17)
H7B H -1.0952 0.0552 -0.8294
C5B C -1.1273(4) 0.0395(3) -0.72634(17)
C6B C -1.0493(4) 0.0230(3) -0.66104(17)
H8B H -1.1045 0.0163 -0.6214
C7B C -0.8060(4) -0.0097(3) -0.58688(16)
C8B C -0.7988(4) 0.0544(3) -0.84466(17)
C9B C -1.2984(4) 0.0424(3) -0.73229(18)
O9B O -1.0599(3) -0.2221(2) -0.46949(12)
O9A O -0.0599(3) -0.2779(2) 0.03051(12)
O10A O -0.2796(3) -0.2102(2) -0.01344(12)
O10C O -0.7204(3) 0.2102(2) -0.98656(12)
O11A O -0.7123(3) -0.2105(3) 0.14654(15)
O12A O -0.6519(3) -0.1968(3) 0.25971(13)
H9A H -0.7456 -0.1908 0.2610
O13C O 0.1358(3) 0.2034(2) -0.35855(12)
O13A O -1.1358(3) -0.2034(2) -0.64145(12)
O13A_2 O -0.1358(3) -0.2034(2) 0.35855(12)
O14A O 0.0675(3) -0.2122(2) 0.29556(13)
C10A C -0.2372(4) -0.2202(3) 0.11063(16)
C11A C -0.3943(4) -0.2118(3) 0.11939(17)
H10A H -0.4641 -0.2096 0.0804
C12A C -0.4477(4) -0.2067(3) 0.18613(17)
C13A C -0.3412(4) -0.2071(3) 0.24422(17)
H11A H -0.3761 -0.2052 0.2890
C14A C -0.1834(4) -0.2104(3) 0.23561(16)
C15A C -0.1313(4) -0.2184(3) 0.16860(17)
H12A H -0.0261 -0.2224 0.1626
C16A C -0.1872(4) -0.2359(3) 0.03782(17)
C17A C -0.6164(4) -0.2048(3) 0.19423(19)
C18A C -0.0737(4) -0.2089(3) 0.29988(17)
N1A N -0.1895(3) 0.3127(2) -0.44950(15)
N1C N -0.8105(3) -0.3127(2) -0.55050(15)
N1B N -0.1895(3) 0.1873(2) 0.05050(15)
N2B N -0.4143(3) 0.1055(2) -0.95451(14)
N2B_2 N -0.4143(3) 0.1055(2) 0.04549(14)
N3B N -0.3153(3) 0.0521(2) 0.00545(15)
N3_2 N -0.6847(3) -0.0521(2) -1.00545(15)
C19B C -0.1848(4) 0.1041(3) 0.00965(19)
H13B H -0.0984 0.0850 -0.0134
C20B C -0.3347(4) 0.1853(3) 0.07103(19)
H14B H -0.3746 0.2346 0.0999
loop_
_geom_bond_atom_site_label_1
_geom_bond_atom_site_label_2
_geom_bond_site_symmetry_1
_geom_bond_site_symmetry_2
Zn1 O3 1_555 1_555
Zn2 O1 1_555 1_555
Zn3 O5 1_555 1_555
O1 H1 1_555 1_555
H2 O1 1_555 1_555
O2 Zn2 1_555 1_555
H3 O2 1_555 1_555
H4 O2 1_555 1_555
O3 C7 1_555 1_555
O4 Zn2 1_555 1_555
O5 C8 1_555 1_555
O6 Zn3 1_555 1_555
O7 H5 1_555 1_555
O8 C9 1_555 1_555
C1 C2 1_555 1_555
C2 H6 1_555 1_555
C3 C2 1_555 1_555
C4 C3 1_555 1_555
H7 C4 1_555 1_555
C5 C4 1_555 1_555
C6 C1 1_555 1_555
H8 C6 1_555 1_555
C7 O4 1_555 1_555
C8 O6 1_555 1_555
C9 O7 1_555 1_555
O9 Zn1 1_555 1_555
O10 C16 1_555 1_555
O11 C17 1_555 1_555
O12 H9 1_555 1_555
O13 C18 1_555 1_555
O14 C18 1_555 1_555
C10 C11 1_555 1_555
C11 H10 1_555 1_555
C12 C11 1_555 1_555
C13 C12 1_555 1_555
H11 C13 1_555 1_555
C14 C13 1_555 1_555
C15 C10 1_555 1_555
H12 C15 1_555 1_555
C16 O9 1_555 1_555
C17 O12 1_555 1_555
C18 C14 1_555 1_555
N1 C19 1_555 1_555
N2 Zn3 1_555 1_555
N3 N2 1_555 1_555
C19 N3 1_555 1_555
H13 C19 1_555 1_555
C20 N1 1_555 1_555
H14 C20 1_555 1_555
Zn1B O3B 1_555 1_555
Zn1C O13 1_555 1_555
Zn1C_2 N1B 1_555 1_555
Zn1A N1 1_555 1_555
Zn1A_2 O9A 1_555 1_555
Zn1B_2 O13A_2 1_555 1_555
Zn3B O5B 1_555 1_555
Zn3A O10 1_555 1_555
Zn3B_2 N3 1_555 1_555
O1B Zn2 1_555 1_555
H1B O1B 1_555 1_555
H2B O1B 1_555 1_555
O2B Zn2 1_555 1_555
H3B O2B 1_555 1_555
H4B O2B 1_555 1_555
O3B C7B 1_555 1_555
O4B Zn2 1_555 1_555
O5B C8B 1_555 1_555
O6B Zn3B 1_555 1_555
O7B H5B 1_555 1_555
O8B C9B 1_555 1_555
C1B C2B 1_555 1_555
C2B H6B 1_555 1_555
C3B C2B 1_555 1_555
C4B C3B 1_555 1_555
H7B C4B 1_555 1_555
C5B C4B 1_555 1_555
C6B C1B 1_555 1_555
H8B C6B 1_555 1_555
C7B O4B 1_555 1_555
C8B O6B 1_555 1_555
C9B O7B 1_555 1_555
O9B Zn1B 1_555 1_555
O9A C16A 1_555 1_555
O10A Zn3 1_555 1_555
O10C Zn3B 1_555 1_555
O11A C17A 1_555 1_555
O12A H9A 1_555 1_555
O13C Zn1 1_555 1_555
O13A Zn1B 1_555 1_555
O13A_2 C18A 1_555 1_555
O14A C18A 1_555 1_555
C10A C11A 1_555 1_555
C11A H10A 1_555 1_555
C12A C11A 1_555 1_555
C13A C12A 1_555 1_555
H11A C13A 1_555 1_555
C14A C13A 1_555 1_555
C15A C10A 1_555 1_555
H12A C15A 1_555 1_555
C16A O10A 1_555 1_555
C17A O12A 1_555 1_555
C18A C14A 1_555 1_555
N1A Zn1 1_555 1_555
N1C Zn1B 1_555 1_555
N1B C19B 1_555 1_555
N2B Zn3B 1_555 1_555
N2B_2 Zn3B_2 1_555 1_555
N3B Zn3 1_555 1_555
N3_2 Zn3B 1_555 1_555
C19B N3B 1_555 1_555
H13B C19B 1_555 1_555
C20B N1B 1_555 1_555
H14B C20B 1_555 1_555
C1 C7 1_555 1_555
C3 C8 1_555 1_555
C5 C6 1_555 1_555
C5 C9 1_555 1_555
C10 C16 1_555 1_555
C12 C17 1_555 1_555
C14 C15 1_555 1_555
N2 C20 1_555 1_555
C1B C7B 1_555 1_555
C3B C8B 1_555 1_555
C5B C6B 1_555 1_555
C5B C9B 1_555 1_555
C10A C16A 1_555 1_555
C12A C17A 1_555 1_555
C14A C15A 1_555 1_555
N2B_2 N3B 1_555 1_555
N2B_2 C20B 1_555 1_555

#END
