
#######################################################################
#
#                 Cambridge Crystallographic Data Centre
#                                CCDC 
#
#######################################################################
#
# If this CIF has been generated from an entry in the Cambridge 
# Structural Database, then it will include bibliographic, chemical, 
# crystal, experimental, refinement or atomic coordinate data resulting 
# from the CCDC's data processing and validation procedures.
#
#######################################################################

data_AFORAP
_symmetry_cell_setting           triclinic
_symmetry_space_group_name_H-M   'P -1'
_symmetry_Int_Tables_number      2
_space_group_name_Hall           '-P 1'
loop_
_symmetry_equiv_pos_site_id
_symmetry_equiv_pos_as_xyz
1 x,y,z
2 -x,-y,-z
_cell_length_a                   7.6066(11)
_cell_length_b                   9.9680(13)
_cell_length_c                   11.0456(15)
_cell_angle_alpha                80.207(2)
_cell_angle_beta                 72.592(2)
_cell_angle_gamma                69.377(2)
_cell_volume                     745.97
loop_
_atom_site_label
_atom_site_type_symbol
_atom_site_fract_x
_atom_site_fract_y
_atom_site_fract_z
Zn1 Zn 0.38963(3) 1.01824(2) 0.34679(2)
O1 O 0.4685(2) 0.84836(15) 0.46510(14)
O2 O 0.6449(2) 0.75513(17) 0.28343(15)
O3 O 0.4243(3) 0.51389(16) 0.85207(15)
H1 H 0.3705 0.4831 0.9216
O4 O 0.6424(3) 0.29687(16) 0.85701(15)
O5 O 1.1528(2) 0.13797(15) 0.45970(14)
O6 O 1.1630(2) 0.27864(17) 0.28387(16)
O7 O 0.3066(2) 0.97590(17) 0.20490(17)
H2 H 0.1917 1.0288 0.2036
H3 H 0.3436 0.8914 0.1810
N1 N 0.9251(3) 1.0804(2) 0.1838(2)
N2 N 0.8297(3) 1.1480(2) 0.09387(18)
H4 H 0.8796 1.1863 0.0219
N3 N 0.6204(2) 1.07844(18) 0.24631(16)
C1 C 0.7939(3) 1.0399(3) 0.2734(2)
H5 H 0.8176 0.9892 0.3489
C2 C 0.6492(3) 1.1467(2) 0.1329(2)
H6 H 0.5559 1.1877 0.0872
C3 C 0.5920(3) 0.7447(2) 0.4012(2)
C4 C 0.6721(3) 0.6036(2) 0.47193(19)
C5 C 0.5906(3) 0.5779(2) 0.60000(19)
H7 H 0.4855 0.6489 0.6443
C6 C 0.6665(3) 0.4452(2) 0.66251(19)
C7 C 0.5788(3) 0.4107(2) 0.7985(2)
C8 C 0.8259(3) 0.3405(2) 0.5965(2)
H8 H 0.8777 0.2528 0.6387
C9 C 0.9088(3) 0.3657(2) 0.46786(18)
C10 C 1.0856(3) 0.2550(2) 0.3972(2)
C11 C 0.8289(3) 0.4970(2) 0.40592(19)
H9 H 0.8810 0.5138 0.3194
Zn1_2 Zn 1.38963(3) 0.01824(2) 0.34679(2)
O5_2 O 0.1528(2) 1.13797(15) 0.45970(14)
O8 O 0.7982(3) 0.5643(2) 0.93293(18)
H10 H 0.7914 0.6122 0.8621
H11 H 0.8787 0.4796 0.9306
O9 O 0.0657(3) 0.2941(2) 0.92919(19)
H12 H 0.1519 0.2638 0.8616
H13 H 0.1041 0.3115 0.9879
loop_
_geom_bond_atom_site_label_1
_geom_bond_atom_site_label_2
_geom_bond_site_symmetry_1
_geom_bond_site_symmetry_2
Zn1 O1 1_555 1_555
O1 C3 1_555 1_555
O2 C3 1_555 1_555
O3 H1 1_555 1_555
O4 C7 1_555 1_555
O5 C10 1_555 1_555
O6 C10 1_555 1_555
O7 Zn1 1_555 1_555
H2 O7 1_555 1_555
H3 O7 1_555 1_555
N1 N2 1_555 1_555
N2 H4 1_555 1_555
N3 Zn1 1_555 1_555
C1 N1 1_555 1_555
H5 C1 1_555 1_555
C2 N2 1_555 1_555
H6 C2 1_555 1_555
C3 C4 1_555 1_555
C4 C5 1_555 1_555
C5 H7 1_555 1_555
C6 C5 1_555 1_555
C7 O3 1_555 1_555
C8 C6 1_555 1_555
H8 C8 1_555 1_555
C9 C8 1_555 1_555
C10 C9 1_555 1_555
C11 C4 1_555 1_555
H9 C11 1_555 1_555
O8 H10 1_555 1_555
H11 O8 1_555 1_555
O9 H12 1_555 1_555
H13 O9 1_555 1_555
Zn1_2 O5 1_555 1_555
O5_2 Zn1 1_555 1_555
N3 C1 1_555 1_555
N3 C2 1_555 1_555
C6 C7 1_555 1_555
C9 C11 1_555 1_555

#END
