
#######################################################################
#
#                 Cambridge Crystallographic Data Centre
#                                CCDC 
#
#######################################################################
#
# If this CIF has been generated from an entry in the Cambridge 
# Structural Database, then it will include bibliographic, chemical, 
# crystal, experimental, refinement or atomic coordinate data resulting 
# from the CCDC's data processing and validation procedures.
#
#######################################################################

data_AFORET
_symmetry_cell_setting           monoclinic
_symmetry_space_group_name_H-M   'P 21/n'
_symmetry_Int_Tables_number      14
_space_group_name_Hall           '-P 2yn'
loop_
_symmetry_equiv_pos_site_id
_symmetry_equiv_pos_as_xyz
1 x,y,z
2 1/2-x,1/2+y,1/2-z
3 -x,-y,-z
4 1/2+x,1/2-y,1/2+z
_cell_length_a                   8.9270(7)
_cell_length_b                   14.0754(11)
_cell_length_c                   15.1592(12)
_cell_angle_alpha                90
_cell_angle_beta                 98.899(3)
_cell_angle_gamma                90
_cell_volume                     1881.84
loop_
_atom_site_label
_atom_site_type_symbol
_atom_site_fract_x
_atom_site_fract_y
_atom_site_fract_z
Zn1 Zn 0.84237(3) 0.252041(18) 0.229976(18)
C1 C 0.8492(2) 0.41712(18) 0.00424(16)
O1 O 0.8519(2) 0.30242(13) 0.35059(12)
N1 N 0.8146(2) 0.43605(15) 0.14303(15)
N2 N 0.8908(2) 0.35358(14) 0.14223(13)
O2 O 0.7291(2) 0.43553(16) 0.31462(13)
C2 C 0.8161(3) 0.40564(17) 0.46717(16)
C3 C 0.7958(3) 0.37984(19) 0.37045(16)
C4 C 0.9308(3) 0.36426(18) 0.52787(16)
C5 C 0.7872(3) 0.47691(17) 0.06239(16)
C6 C 0.9113(3) 0.34167(18) 0.05680(17)
C7 C 0.9539(3) 0.39116(18) 0.61651(17)
C8 C 0.7222(3) 0.4725(2) 0.49805(18)
C9 C 0.8581(3) 0.4577(2) 0.64610(19)
C10 C 0.8496(3) 0.4362(2) -0.09331(17)
C11 C 0.7413(3) 0.4971(2) 0.58656(19)
C12 C 0.7088(3) 0.5694(2) 0.0479(2)
H1 H 0.7303 0.6071 0.1011
H2 H 0.6014 0.5591 0.0338
H3 H 0.7437 0.6021 -0.0007
C13 C 0.9928(4) 0.2551(2) 0.0319(3)
H4 H 0.882(3) 0.504(2) -0.0997(19)
H5 H 0.995(3) 0.3202(18) 0.5079(17)
H6 H 0.639(3) 0.497(2) 0.4566(19)
H7 H 0.874(3) 0.479(2) 0.705(2)
H8 H 0.802(3) 0.459(2) 0.196(2)
H9 H 0.928(3) 0.3920(18) -0.1168(17)
H10 H 0.673(4) 0.546(2) 0.606(2)
H11 H 1.072(6) 0.248(2) 0.071(4)
H12 H 1.024(5) 0.264(2) -0.019(3)
H13 H 0.934(5) 0.200(4) 0.029(3)
C14 C 1.0835(3) 0.35167(19) 0.68097(18)
O3 O 1.1726(2) 0.29718(16) 0.64873(13)
O4 O 1.0998(3) 0.3726(2) 0.75966(16)
N3 N 0.4859(2) 0.44023(15) -0.24332(14)
N4 N 0.5068(2) 0.34556(14) -0.23716(14)
C15 C 0.6373(3) 0.33350(18) -0.18202(17)
C16 C 0.5995(3) 0.48766(17) -0.19368(16)
C17 C 0.6992(2) 0.42067(17) -0.15310(15)
C18 C 0.6005(4) 0.5934(2) -0.1909(3)
C19 C 0.6987(4) 0.2375(2) -0.1587(3)
H14 H 0.414(3) 0.4632(19) -0.2772(19)
H15 H 0.652(4) 0.192(3) -0.192(3)
H16 H 0.798(5) 0.241(2) -0.165(3)
H17 H 0.685(4) 0.228(3) -0.100(3)
H18 H 0.561(4) 0.614(3) -0.247(3)
H19 H 0.695(5) 0.620(3) -0.171(3)
H20 H 0.533(6) 0.620(3) -0.152(3)
Zn1C Zn 1.34237(3) 0.247959(18) 0.729976(18)
Zn1C_2 Zn 0.34237(3) 0.247959(18) -0.270024(18)
O3C O 0.6726(2) 0.20282(16) 0.14873(13)
N4C N 1.0068(2) 0.15444(14) 0.26284(14)
loop_
_geom_bond_atom_site_label_1
_geom_bond_atom_site_label_2
_geom_bond_site_symmetry_1
_geom_bond_site_symmetry_2
Zn1 O1 1_555 1_555
C1 C5 1_555 1_555
O1 C3 1_555 1_555
N1 N2 1_555 1_555
N2 Zn1 1_555 1_555
O2 C3 1_555 1_555
C2 C3 1_555 1_555
C4 C2 1_555 1_555
C5 N1 1_555 1_555
C6 C1 1_555 1_555
C7 C4 1_555 1_555
C8 C2 1_555 1_555
C9 C7 1_555 1_555
C10 C1 1_555 1_555
C11 C8 1_555 1_555
C12 C5 1_555 1_555
H1 C12 1_555 1_555
H2 C12 1_555 1_555
H3 C12 1_555 1_555
C13 C6 1_555 1_555
H4 C10 1_555 1_555
H5 C4 1_555 1_555
H6 C8 1_555 1_555
H7 C9 1_555 1_555
H8 N1 1_555 1_555
H9 C10 1_555 1_555
H10 C11 1_555 1_555
H11 C13 1_555 1_555
H12 C13 1_555 1_555
H13 C13 1_555 1_555
C14 C7 1_555 1_555
O3 C14 1_555 1_555
O4 C14 1_555 1_555
N3 N4 1_555 1_555
N4 C15 1_555 1_555
C15 C17 1_555 1_555
C16 N3 1_555 1_555
C17 C10 1_555 1_555
C18 C16 1_555 1_555
C19 C15 1_555 1_555
H14 N3 1_555 1_555
H15 C19 1_555 1_555
H16 C19 1_555 1_555
H17 C19 1_555 1_555
H18 C18 1_555 1_555
H19 C18 1_555 1_555
H20 C18 1_555 1_555
Zn1C O3 1_555 1_555
Zn1C_2 N4 1_555 1_555
O3C Zn1 1_555 1_555
N4C Zn1 1_555 1_555
N2 C6 1_555 1_555
C9 C11 1_555 1_555
C16 C17 1_555 1_555

#END
