
#######################################################################
#
#                 Cambridge Crystallographic Data Centre
#                                CCDC 
#
#######################################################################
#
# If this CIF has been generated from an entry in the Cambridge 
# Structural Database, then it will include bibliographic, chemical, 
# crystal, experimental, refinement or atomic coordinate data resulting 
# from the CCDC's data processing and validation procedures.
#
#######################################################################

data_AFORIX
_symmetry_cell_setting           monoclinic
_symmetry_space_group_name_H-M   'P 21/n'
_symmetry_Int_Tables_number      14
_space_group_name_Hall           '-P 2yn'
loop_
_symmetry_equiv_pos_site_id
_symmetry_equiv_pos_as_xyz
1 x,y,z
2 1/2-x,1/2+y,1/2-z
3 -x,-y,-z
4 1/2+x,1/2-y,1/2+z
_cell_length_a                   8.5804(2)
_cell_length_b                   16.1162(4)
_cell_length_c                   15.2193(4)
_cell_angle_alpha                90
_cell_angle_beta                 90.4280(10)
_cell_angle_gamma                90
_cell_volume                     2104.52
loop_
_atom_site_label
_atom_site_type_symbol
_atom_site_fract_x
_atom_site_fract_y
_atom_site_fract_z
Zn1 Zn -0.01311(3) 0.104789(16) 0.213447(17)
O1 O -0.0215(2) 0.38313(12) 0.65489(11)
N1 N -0.1675(2) 0.03492(13) 0.27974(13)
C1 C 0.1428(3) 0.23752(15) 0.29626(15)
O2 O -0.1327(2) 0.27558(12) 0.58830(12)
O3 O 0.0707(2) 0.17010(11) 0.31157(11)
O4 O 0.2092(2) 0.25520(12) 0.22722(12)
C2 C 0.2284(3) 0.37323(15) 0.35872(15)
C3 C 0.1425(3) 0.42145(15) 0.49916(15)
C4 C 0.1412(3) 0.30132(14) 0.36834(14)
C5 C 0.0522(3) 0.29043(15) 0.44318(15)
C6 C 0.2287(3) 0.43388(14) 0.42350(15)
C7 C -0.2694(3) -0.04870(14) 0.38220(15)
N2 N -0.3244(3) 0.03266(14) 0.27170(15)
C8 C -0.3893(3) -0.01663(15) 0.33188(16)
C9 C -0.2828(4) -0.10815(18) 0.45772(17)
C10 C -0.0363(3) 0.33886(15) 0.59119(15)
C11 C -0.1327(3) -0.01537(14) 0.34759(15)
C12 C 0.0541(3) 0.35048(14) 0.50884(14)
C13 C 0.0319(3) -0.03057(19) 0.37408(19)
H1 H 0.0869 0.0212 0.3765
H2 H 0.0803 -0.0664 0.3319
H3 H 0.0347 -0.0564 0.4309
C14 C -0.5606(3) -0.0305(2) 0.3349(2)
H4 H -0.6123 0.0099 0.2985
H5 H -0.5958 -0.0250 0.3943
H6 H -0.5842 -0.0852 0.3137
H7 H 0.288(3) 0.3819(15) 0.3085(16)
H8 H 0.143(3) 0.4614(16) 0.5405(16)
H9 H -0.002(3) 0.2435(18) 0.4510(17)
H10 H -0.368(3) 0.0593(17) 0.2329(17)
H11 H -0.181(4) 0.2752(19) 0.632(2)
H12 H -0.338(3) -0.0833(17) 0.5034(19)
H13 H -0.181(4) -0.116(2) 0.485(2)
C15 C 0.3210(3) 0.51230(15) 0.41136(16)
O5 O 0.3802(2) 0.52118(11) 0.33559(11)
O6 O 0.3323(2) 0.56125(12) 0.47324(12)
N3 N -0.4100(2) -0.31205(12) 0.37239(13)
N4 N -0.4850(3) -0.30597(13) 0.44989(13)
C16 C -0.3303(3) -0.24113(15) 0.36317(16)
C17 C -0.3545(3) -0.19044(15) 0.43617(15)
C18 C -0.4560(3) -0.23424(15) 0.48939(16)
C19 C -0.2367(4) -0.2258(2) 0.2821(2)
C20 C -0.5283(4) -0.21248(19) 0.57519(18)
H14 H -0.5783 -0.2606 0.5992
H15 H -0.6041 -0.1694 0.5664
H16 H -0.4490 -0.1934 0.6152
H17 H -0.547(3) -0.3438(19) 0.4619(18)
H18 H -0.287(4) -0.184(2) 0.246(2)
H19 H -0.234(4) -0.275(2) 0.250(3)
H20 H -0.134(5) -0.203(3) 0.296(3)
Zn1A Zn 0.51311(3) 0.604789(16) 0.286553(17)
Zn1A_2 Zn -0.48689(3) -0.395211(16) 0.286553(17)
O5A O 0.1198(2) 0.02118(11) 0.16441(11)
N3A N -0.0900(2) 0.18795(12) 0.12761(13)
loop_
_geom_bond_atom_site_label_1
_geom_bond_atom_site_label_2
_geom_bond_site_symmetry_1
_geom_bond_site_symmetry_2
Zn1 N1 1_555 1_555
O1 C10 1_555 1_555
N1 N2 1_555 1_555
C1 O3 1_555 1_555
O2 C10 1_555 1_555
O3 Zn1 1_555 1_555
O4 C1 1_555 1_555
C2 C4 1_555 1_555
C3 C6 1_555 1_555
C4 C1 1_555 1_555
C5 C4 1_555 1_555
C6 C2 1_555 1_555
C7 C8 1_555 1_555
N2 C8 1_555 1_555
C8 C14 1_555 1_555
C9 C7 1_555 1_555
C10 C12 1_555 1_555
C11 N1 1_555 1_555
C12 C3 1_555 1_555
C13 C11 1_555 1_555
H1 C13 1_555 1_555
H2 C13 1_555 1_555
H3 C13 1_555 1_555
C14 H4 1_555 1_555
H5 C14 1_555 1_555
H6 C14 1_555 1_555
H7 C2 1_555 1_555
H8 C3 1_555 1_555
H9 C5 1_555 1_555
H10 N2 1_555 1_555
H11 O2 1_555 1_555
H12 C9 1_555 1_555
H13 C9 1_555 1_555
C15 C6 1_555 1_555
O5 C15 1_555 1_555
O6 C15 1_555 1_555
N3 N4 1_555 1_555
N4 C18 1_555 1_555
C16 N3 1_555 1_555
C17 C9 1_555 1_555
C18 C17 1_555 1_555
C19 C16 1_555 1_555
C20 C18 1_555 1_555
H14 C20 1_555 1_555
H15 C20 1_555 1_555
H16 C20 1_555 1_555
H17 N4 1_555 1_555
H18 C19 1_555 1_555
H19 C19 1_555 1_555
H20 C19 1_555 1_555
Zn1A O5 1_555 1_555
Zn1A_2 N3 1_555 1_555
O5A Zn1 1_555 1_555
N3A Zn1 1_555 1_555
C5 C12 1_555 1_555
C7 C11 1_555 1_555
C16 C17 1_555 1_555

#END
