
#######################################################################
#
#                 Cambridge Crystallographic Data Centre
#                                CCDC 
#
#######################################################################
#
# If this CIF has been generated from an entry in the Cambridge 
# Structural Database, then it will include bibliographic, chemical, 
# crystal, experimental, refinement or atomic coordinate data resulting 
# from the CCDC's data processing and validation procedures.
#
#######################################################################

data_AFOSOE
_symmetry_cell_setting           monoclinic
_symmetry_space_group_name_H-M   'C 2/c'
_symmetry_Int_Tables_number      15
_space_group_name_Hall           '-C 2yn'
loop_
_symmetry_equiv_pos_site_id
_symmetry_equiv_pos_as_xyz
1 x,y,z
2 1/2+x,1/2+y,z
3 -x,y,1/2-z
4 1/2-x,1/2+y,1/2-z
5 -x,-y,-z
6 1/2-x,1/2-y,-z
7 x,-y,1/2+z
8 1/2+x,1/2-y,1/2+z
_cell_length_a                   23.2531(11)
_cell_length_b                   10.6100(5)
_cell_length_c                   15.9768(7)
_cell_angle_alpha                90
_cell_angle_beta                 111.641(1)
_cell_angle_gamma                90
_cell_volume                     3663.88
loop_
_atom_site_label
_atom_site_type_symbol
_atom_site_fract_x
_atom_site_fract_y
_atom_site_fract_z
Zn1 Zn 0.407056(11) 0.84109(2) 0.062456(16)
Zn2 Zn 0.2500 0.7500 0.0000
O1 O 0.41464(9) 0.72269(18) 0.15926(13)
O2 O 0.31656(8) 0.77000(15) 0.12947(11)
O3 O 0.31063(8) 0.35084(15) 0.45720(13)
O4 O 0.39615(8) 0.25789(16) 0.45593(12)
O5 O 0.36436(7) 1.00085(14) 0.05308(12)
O6 O 0.27511(7) 0.91994(13) -0.03752(10)
O7 O 0.48893(8) 0.92114(19) 0.10022(14)
C1 C 0.36263(11) 0.6128(2) 0.23834(15)
C2 C 0.31071(11) 0.6036(2) 0.26026(16)
H1 H 0.2770 0.6560 0.2324
C3 C 0.30880(11) 0.5167(2) 0.32354(17)
H2 H 0.2741 0.5124 0.3392
C4 C 0.35787(10) 0.4362(2) 0.36369(15)
C5 C 0.41000(13) 0.4458(3) 0.3414(2)
H3 H 0.4434 0.3923 0.3681
C6 C 0.41233(13) 0.5344(3) 0.27987(19)
H4 H 0.4477 0.5415 0.2661
C7 C 0.36456(12) 0.7081(2) 0.17060(15)
C8 C 0.35374(11) 0.3408(2) 0.43071(16)
C9 C 0.30737(10) 1.00758(19) 0.00708(14)
C10 C 0.27799(11) 1.1334(2) 0.00376(16)
C11 C 0.31171(12) 1.2344(2) 0.05227(19)
H5 H 0.3534 1.2243 0.0872
C12 C 0.21619(12) 1.1501(2) -0.04905(19)
H6 H 0.1933 1.0830 -0.0825
C13 C 0.54239(11) 0.8964(3) 0.10446(17)
C14 C 0.55221(15) 0.7969(3) 0.0456(2)
H7 H 0.5137 0.7553 0.0134
H8 H 0.5816 0.7365 0.0818
H9 H 0.5677 0.8345 0.0034
C15 C 0.65323(13) 0.9407(4) 0.1707(2)
H10 H 0.6560 0.8754 0.1307
H11 H 0.6764 0.9165 0.2318
H12 H 0.6698 1.0176 0.1572
C16 C 0.57745(19) 1.0581(4) 0.2143(3)
H13 H 0.5546 1.0238 0.2482
H14 H 0.5541 1.1248 0.1763
H15 H 0.6162 1.0907 0.2549
N1 N 0.58882(11) 0.9597(3) 0.15908(16)
Zn1E Zn 0.092944(11) 0.65891(2) -0.062456(16)
Zn1F Zn 0.407056(11) 0.15891(2) 0.562456(16)
Zn1E_2 Zn 0.092944(11) 1.65891(2) -0.062456(16)
Zn1C Zn 0.092944(11) 1.34109(2) -0.562456(16)
Zn2F Zn 0.2500 0.2500 0.5000
Zn2_2 Zn 0.2500 1.7500 0.0000
Zn2F_2 Zn 0.2500 1.2500 -0.5000
O1E O 0.08536(9) 0.77731(18) -0.15926(13)
O2E O 0.18344(8) 0.73000(15) -0.12947(11)
O3E O 0.18937(8) 1.14916(15) -0.45720(13)
O3F O 0.31063(8) 0.64916(15) -0.04280(13)
O3C O 0.18937(8) 0.85084(15) 0.04280(13)
O4E O 0.10385(8) 1.24211(16) -0.45593(12)
O4F O 0.39615(8) 0.74211(16) -0.04407(12)
O4C O 0.10385(8) 0.75789(16) 0.04407(12)
O5E O 0.13564(7) 1.49915(14) -0.05308(12)
O5E_2 O 0.13564(7) 0.49915(14) -0.05308(12)
O6E O 0.22489(7) 1.58006(13) 0.03752(10)
O6E_2 O 0.22489(7) 0.58006(13) 0.03752(10)
O7E O 0.01107(8) 0.57886(19) -0.10022(14)
C1E C 0.13737(11) 0.8872(2) -0.23834(15)
C2E C 0.18929(11) 0.8964(2) -0.26026(16)
H1E H 0.2230 0.8440 -0.2324
C3E C 0.19120(11) 0.9833(2) -0.32354(17)
H2E H 0.2259 0.9876 -0.3392
C4E C 0.14213(10) 1.0638(2) -0.36369(15)
C5E C 0.09000(13) 1.0542(3) -0.3414(2)
H3E H 0.0566 1.1077 -0.3681
C6E C 0.08767(13) 0.9656(3) -0.27987(19)
H4E H 0.0523 0.9585 -0.2661
C7E C 0.13544(12) 0.7919(2) -0.17060(15)
C8E C 0.14626(11) 1.1592(2) -0.43071(16)
C9E C 0.19263(10) 1.49242(19) -0.00708(14)
C10E C 0.22201(11) 1.3666(2) -0.00376(16)
C11E C 0.18829(12) 1.2656(2) -0.05227(19)
H5E H 0.1466 1.2757 -0.0872
C12E C 0.28381(12) 1.3499(2) 0.04905(19)
H6E H 0.3067 1.4170 0.0825
C13E C -0.04239(11) 0.6036(3) -0.10446(17)
C14E C -0.05221(15) 0.7031(3) -0.0456(2)
H7E H -0.0137 0.7447 -0.0134
H8E H -0.0816 0.7635 -0.0818
H9E H -0.0677 0.6655 -0.0034
C15E C -0.15323(13) 0.5593(4) -0.1707(2)
H10E H -0.1560 0.6246 -0.1307
H11E H -0.1764 0.5835 -0.2318
H12E H -0.1698 0.4824 -0.1572
C16E C -0.07745(19) 0.4419(4) -0.2143(3)
H13E H -0.0546 0.4762 -0.2482
H14E H -0.0541 0.3752 -0.1763
H15E H -0.1162 0.4093 -0.2549
N1E N -0.08882(11) 0.5403(3) -0.15908(16)
loop_
_geom_bond_atom_site_label_1
_geom_bond_atom_site_label_2
_geom_bond_site_symmetry_1
_geom_bond_site_symmetry_2
Zn1 O1 1_555 1_555
Zn2 O2 1_555 1_555
O1 C7 1_555 1_555
O2 C7 1_555 1_555
O3 C8 1_555 1_555
O4 C8 1_555 1_555
O5 Zn1 1_555 1_555
O6 Zn2 1_555 1_555
O7 Zn1 1_555 1_555
C1 C2 1_555 1_555
C2 H1 1_555 1_555
C3 C2 1_555 1_555
H2 C3 1_555 1_555
C4 C3 1_555 1_555
C5 C4 1_555 1_555
H3 C5 1_555 1_555
C6 C1 1_555 1_555
H4 C6 1_555 1_555
C7 C1 1_555 1_555
C8 C4 1_555 1_555
C9 O5 1_555 1_555
C10 C9 1_555 1_555
C11 C10 1_555 1_555
H5 C11 1_555 1_555
C12 C10 1_555 1_555
H6 C12 1_555 1_555
C13 O7 1_555 1_555
C14 C13 1_555 1_555
H7 C14 1_555 1_555
H8 C14 1_555 1_555
H9 C14 1_555 1_555
C15 H10 1_555 1_555
H11 C15 1_555 1_555
H12 C15 1_555 1_555
C16 H13 1_555 1_555
H14 C16 1_555 1_555
H15 C16 1_555 1_555
N1 C13 1_555 1_555
Zn1E O1E 1_555 1_555
Zn1F O4 1_555 1_555
Zn1E_2 O5E 1_555 1_555
Zn1C O4E 1_555 1_555
Zn2F O3 1_555 1_555
Zn2_2 O6E 1_555 1_555
Zn2F_2 O3E 1_555 1_555
O1E C7E 1_555 1_555
O2E Zn2 1_555 1_555
O3E C8E 1_555 1_555
O3F Zn2 1_555 1_555
O3C Zn2 1_555 1_555
O4E C8E 1_555 1_555
O4F Zn1 1_555 1_555
O4C Zn1E 1_555 1_555
O5E C9E 1_555 1_555
O5E_2 Zn1E 1_555 1_555
O6E C9E 1_555 1_555
O6E_2 Zn2 1_555 1_555
O7E Zn1E 1_555 1_555
C1E C2E 1_555 1_555
C2E H1E 1_555 1_555
C3E C2E 1_555 1_555
H2E C3E 1_555 1_555
C4E C3E 1_555 1_555
C5E C4E 1_555 1_555
H3E C5E 1_555 1_555
C6E C1E 1_555 1_555
H4E C6E 1_555 1_555
C7E O2E 1_555 1_555
C8E C4E 1_555 1_555
C9E C10E 1_555 1_555
C10E C11E 1_555 1_555
C11E C12 1_555 1_555
H5E C11E 1_555 1_555
C12E C11 1_555 1_555
H6E C12E 1_555 1_555
C13E O7E 1_555 1_555
C14E C13E 1_555 1_555
H7E C14E 1_555 1_555
H8E C14E 1_555 1_555
H9E C14E 1_555 1_555
C15E H10E 1_555 1_555
H11E C15E 1_555 1_555
H12E C15E 1_555 1_555
C16E H13E 1_555 1_555
H14E C16E 1_555 1_555
H15E C16E 1_555 1_555
N1E C13E 1_555 1_555
O6 C9 1_555 1_555
C5 C6 1_555 1_555
C15 N1 1_555 1_555
C16 N1 1_555 1_555
C1E C7E 1_555 1_555
C5E C6E 1_555 1_555
C10E C12E 1_555 1_555
C15E N1E 1_555 1_555
C16E N1E 1_555 1_555

#END
