
#######################################################################
#
#                 Cambridge Crystallographic Data Centre
#                                CCDC 
#
#######################################################################
#
# If this CIF has been generated from an entry in the Cambridge 
# Structural Database, then it will include bibliographic, chemical, 
# crystal, experimental, refinement or atomic coordinate data resulting 
# from the CCDC's data processing and validation procedures.
#
#######################################################################

data_AFOZEC
_symmetry_cell_setting           monoclinic
_symmetry_space_group_name_H-M   'P 21/a'
_symmetry_Int_Tables_number      14
_space_group_name_Hall           '-P 2yab'
loop_
_symmetry_equiv_pos_site_id
_symmetry_equiv_pos_as_xyz
1 x,y,z
2 1/2-x,1/2+y,-z
3 -x,-y,-z
4 1/2+x,1/2-y,z
_cell_length_a                   6.4037(3)
_cell_length_b                   14.7357(10)
_cell_length_c                   11.7466(7)
_cell_angle_alpha                90
_cell_angle_beta                 97.473(3)
_cell_angle_gamma                90
_cell_volume                     1099.03
loop_
_atom_site_label
_atom_site_type_symbol
_atom_site_fract_x
_atom_site_fract_y
_atom_site_fract_z
Co1 Co 1.0000 0.0000 1.0000
N1 N 0.2763(5) -0.0506(3) 0.9268(3)
C1 C 0.3986(6) -0.0711(3) 0.8686(3)
C2 C 0.5397(6) -0.1001(3) 0.7901(3)
C3 C 0.4692(7) -0.1010(3) 0.6725(4)
C4 C 0.5983(8) -0.1311(4) 0.5963(4)
C5 C 0.8020(8) -0.1593(4) 0.6375(4)
C6 C 0.8743(7) -0.1574(3) 0.7531(4)
C7 C 0.7452(6) -0.1275(3) 0.8315(3)
N2 N 0.8265(5) -0.1181(2) 0.9498(3)
C8 C 0.7665(7) -0.1751(3) 1.0224(4)
C9 C 0.8337(8) -0.1753(4) 1.1415(4)
C10 C 0.9838(7) -0.1189(3) 1.1956(4)
O1 O 1.0874(4) -0.0582(2) 1.1522(2)
C11 C 1.0395(11) -0.1273(4) 1.3257(4)
F1 F 0.9628(9) -0.0606(3) 1.3784(3)
F2 F 0.9894(9) -0.2017(3) 1.3697(3)
F3 F 1.2430(8) -0.1205(4) 1.3567(3)
H1 H 0.3324 -0.0808 0.6450
H2 H 0.5515 -0.1323 0.5181
H3 H 0.8918 -0.1797 0.5861
H4 H 1.0114 -0.1757 0.7796
H5 H 0.6722 -0.2209 0.9937
H6 H 0.7718 -0.2168 1.1862
N1B N 0.7237(5) 0.0506(3) 1.0732(3)
C1B C 0.6014(6) 0.0711(3) 1.1314(3)
C2B C 0.4603(6) 0.1001(3) 1.2099(3)
C3B C 0.5308(7) 0.1010(3) 1.3275(4)
C4B C 0.4017(8) 0.1311(4) 1.4037(4)
C5B C 0.1980(8) 0.1593(4) 1.3625(4)
C6B C 0.1257(7) 0.1574(3) 1.2469(4)
C7B C 0.2548(6) 0.1275(3) 1.1685(3)
N2B N 0.1735(5) 0.1181(2) 1.0502(3)
C8B C 0.2335(7) 0.1751(3) 0.9776(4)
C9B C 0.1663(8) 0.1753(4) 0.8585(4)
C10B C 0.0162(7) 0.1189(3) 0.8044(4)
O1B O -0.0874(4) 0.0582(2) 0.8478(2)
C11B C -0.0395(11) 0.1273(4) 0.6743(4)
F1B F 0.0372(9) 0.0606(3) 0.6216(3)
F2B F 0.0106(9) 0.2017(3) 0.6303(3)
F3B F -0.2430(8) 0.1205(4) 0.6433(3)
H1B H 0.6676 0.0808 1.3550
H2B H 0.4485 0.1323 1.4819
H3B H 0.1082 0.1797 1.4139
H4B H -0.0114 0.1757 1.2204
H5B H 0.3278 0.2209 1.0063
H6B H 0.2282 0.2168 0.8138
Co1_2 Co 0.0000 0.0000 1.0000
N1_2 N 1.2763(5) -0.0506(3) 0.9268(3)
N2B_2 N 1.1735(5) 0.1181(2) 1.0502(3)
O1B_2 O 0.9126(4) 0.0582(2) 0.8478(2)
loop_
_geom_bond_atom_site_label_1
_geom_bond_atom_site_label_2
_geom_bond_site_symmetry_1
_geom_bond_site_symmetry_2
Co1 N2 1_555 1_555
N1 C1 1_555 1_555
C1 C2 1_555 1_555
C2 C3 1_555 1_555
C3 C4 1_555 1_555
C4 C5 1_555 1_555
C5 C6 1_555 1_555
C6 C7 1_555 1_555
C7 C2 1_555 1_555
N2 C7 1_555 1_555
C8 N2 1_555 1_555
C9 C8 1_555 1_555
C10 C9 1_555 1_555
O1 Co1 1_555 1_555
C11 C10 1_555 1_555
F1 C11 1_555 1_555
F2 C11 1_555 1_555
F3 C11 1_555 1_555
H1 C3 1_555 1_555
H2 C4 1_555 1_555
H3 C5 1_555 1_555
H4 C6 1_555 1_555
H5 C8 1_555 1_555
H6 C9 1_555 1_555
N1B Co1 1_555 1_555
C1B N1B 1_555 1_555
C2B C1B 1_555 1_555
C3B C2B 1_555 1_555
C4B C3B 1_555 1_555
C5B C4B 1_555 1_555
C6B C5B 1_555 1_555
C7B C2B 1_555 1_555
N2B C7B 1_555 1_555
C8B N2B 1_555 1_555
C9B C8B 1_555 1_555
C10B C9B 1_555 1_555
O1B C10B 1_555 1_555
C11B C10B 1_555 1_555
F1B C11B 1_555 1_555
F2B C11B 1_555 1_555
F3B C11B 1_555 1_555
H1B C3B 1_555 1_555
H2B C4B 1_555 1_555
H3B C5B 1_555 1_555
H4B C6B 1_555 1_555
H5B C8B 1_555 1_555
H6B C9B 1_555 1_555
Co1_2 N1 1_555 1_555
N1_2 Co1 1_555 1_555
N2B_2 Co1 1_555 1_555
O1B_2 Co1 1_555 1_555
C10 O1 1_555 1_555
C6B C7B 1_555 1_555
N2B Co1_2 1_555 1_555
O1B Co1_2 1_555 1_555

#END
