
#######################################################################
#
#                 Cambridge Crystallographic Data Centre
#                                CCDC 
#
#######################################################################
#
# If this CIF has been generated from an entry in the Cambridge 
# Structural Database, then it will include bibliographic, chemical, 
# crystal, experimental, refinement or atomic coordinate data resulting 
# from the CCDC's data processing and validation procedures.
#
#######################################################################

data_AFUDUA
_symmetry_cell_setting           triclinic
_symmetry_space_group_name_H-M   'P -1'
_symmetry_Int_Tables_number      2
_space_group_name_Hall           '-P 1'
loop_
_symmetry_equiv_pos_site_id
_symmetry_equiv_pos_as_xyz
1 x,y,z
2 -x,-y,-z
_cell_length_a                   7.854(5)
_cell_length_b                   9.670(5)
_cell_length_c                   11.468(5)
_cell_angle_alpha                78.079(5)
_cell_angle_beta                 70.344(5)
_cell_angle_gamma                69.319(5)
_cell_volume                     763.55
loop_
_atom_site_label
_atom_site_type_symbol
_atom_site_fract_x
_atom_site_fract_y
_atom_site_fract_z
I1 I 0.53393(4) 0.17958(3) 0.66098(3)
I2 I 0.97552(4) 0.15971(3) 0.81388(3)
Cu1 Cu 0.79560(8) 0.01763(6) 0.75616(6)
Cu2 Cu 0.31801(7) 0.05134(5) 0.85209(5)
S1 S 0.71873(14) -0.13109(11) 0.96359(10)
N1 N 0.9385(5) -0.1858(4) 0.6953(4)
N2 N 0.4363(5) -0.1679(4) 0.8177(3)
C1 C 0.9731(6) -0.2123(5) 0.5779(4)
H1 H 0.9362 -0.1313 0.5193
C2 C 1.0608(6) -0.3534(5) 0.5390(4)
H2 H 1.0817 -0.3691 0.4556
C3 C 1.1168(6) -0.4701(5) 0.6230(5)
H3 H 1.1783 -0.5676 0.5979
C4 C 1.0833(6) -0.4451(5) 0.7447(4)
H4 H 1.1215 -0.5246 0.804
C5 C 0.9925(6) -0.3008(5) 0.7775(4)
C6 C 0.9541(6) -0.2634(5) 0.9076(4)
H5 H 1.0516 -0.2211 0.9081
H6 H 0.965 -0.3558 0.965
C7 C 0.5654(6) -0.2470(4) 0.9954(4)
H7 H 0.6202 -0.3422 1.0411
H8 H 0.4395 -0.1969 1.0505
C8 C 0.5376(6) -0.2800(4) 0.8824(4)
C9 C 0.6115(6) -0.4246(4) 0.8475(4)
H9 H 0.6813 -0.5022 0.8951
C10 C 0.5838(6) -0.4552(5) 0.7447(4)
H10 H 0.633 -0.5533 0.7207
C11 C 0.4815(6) -0.3384(5) 0.6764(4)
H11 H 0.4597 -0.3553 0.6046
C12 C 0.4132(6) -0.1988(5) 0.7152(4)
H12 H 0.3461 -0.1194 0.6674
Cu2_2 Cu 1.31801(7) 0.05134(5) 0.85209(5)
I2_2 I -0.02448(4) 0.15971(3) 0.81388(3)
S1A S 0.28127(14) 0.13109(11) 1.03641(10)
Cu2A Cu 0.68199(7) -0.05134(5) 1.14791(5)
loop_
_geom_bond_atom_site_label_1
_geom_bond_atom_site_label_2
_geom_bond_site_symmetry_1
_geom_bond_site_symmetry_2
I1 Cu1 1_555 1_555
I2 Cu1 1_555 1_555
Cu1 S1 1_555 1_555
Cu2 I1 1_555 1_555
S1 C6 1_555 1_555
N1 Cu1 1_555 1_555
N2 Cu2 1_555 1_555
C1 N1 1_555 1_555
H1 C1 1_555 1_555
C2 C1 1_555 1_555
H2 C2 1_555 1_555
C3 C2 1_555 1_555
H3 C3 1_555 1_555
C4 C3 1_555 1_555
H4 C4 1_555 1_555
C5 N1 1_555 1_555
C6 C5 1_555 1_555
H5 C6 1_555 1_555
H6 C6 1_555 1_555
C7 S1 1_555 1_555
H7 C7 1_555 1_555
H8 C7 1_555 1_555
C8 N2 1_555 1_555
C9 C8 1_555 1_555
H9 C9 1_555 1_555
C10 C9 1_555 1_555
H10 C10 1_555 1_555
C11 C10 1_555 1_555
H11 C11 1_555 1_555
C12 N2 1_555 1_555
H12 C12 1_555 1_555
Cu2_2 I2 1_555 1_555
I2_2 Cu2 1_555 1_555
S1A Cu2 1_555 1_555
Cu2A S1 1_555 1_555
C4 C5 1_555 1_555
C7 C8 1_555 1_555
C11 C12 1_555 1_555

#END
