
#######################################################################
#
#                 Cambridge Crystallographic Data Centre
#                                CCDC 
#
#######################################################################
#
# If this CIF has been generated from an entry in the Cambridge 
# Structural Database, then it will include bibliographic, chemical, 
# crystal, experimental, refinement or atomic coordinate data resulting 
# from the CCDC's data processing and validation procedures.
#
#######################################################################

data_AFUGAL
_symmetry_cell_setting           orthorhombic
_symmetry_space_group_name_H-M   'P b c n'
_symmetry_Int_Tables_number      60
_space_group_name_Hall           '-P 2n 2ab'
loop_
_symmetry_equiv_pos_site_id
_symmetry_equiv_pos_as_xyz
1 x,y,z
2 1/2-x,1/2-y,1/2+z
3 -x,y,1/2-z
4 1/2+x,1/2-y,-z
5 -x,-y,-z
6 1/2+x,1/2+y,1/2-z
7 x,-y,1/2+z
8 1/2-x,1/2+y,z
_cell_length_a                   18.366(3)
_cell_length_b                   9.7661(17)
_cell_length_c                   20.198(4)
_cell_angle_alpha                90
_cell_angle_beta                 90
_cell_angle_gamma                90
_cell_volume                     3622.8
loop_
_atom_site_label
_atom_site_type_symbol
_atom_site_fract_x
_atom_site_fract_y
_atom_site_fract_z
Cu1 Cu 0.0000 0.55036(17) 0.2500
Cu2 Cu 0.0000 0.88450(17) 0.2500
Pd1 Pd 0.25434(4) 0.94885(7) 0.26233(3)
P1 P 0.36900(13) 1.0396(2) 0.36044(13)
P2 P 0.41219(13) 0.7421(3) 0.40454(13)
P3 P 0.13184(13) 1.0281(2) 0.16914(14)
P4 P 0.09114(12) 0.7297(2) 0.13626(13)
C1 C 0.3428(5) 0.8596(9) 0.3753(5)
C2 C 0.2793(5) 0.8585(9) 0.4264(5)
H1 H 0.2420 0.9246 0.4128
H2 H 0.2980 0.8836 0.4702
H3 H 0.2578 0.7667 0.4283
C3 C 0.1641(4) 0.8545(9) 0.1499(5)
C4 C 0.2197(5) 0.8581(10) 0.0931(5)
H4 H 0.2593 0.9213 0.1044
H5 H 0.1957 0.8891 0.0525
H6 H 0.2397 0.7661 0.0863
N1 N 0.3142(4) 0.8095(7) 0.3107(4)
H7 H 0.2862 0.7329 0.3180
H8 H 0.3527 0.7840 0.2843
N2 N 0.2023(4) 0.8039(7) 0.2113(4)
H9 H 0.2354 0.7377 0.1992
H10 H 0.1685 0.7633 0.2386
O1 O 0.3076(3) 1.0940(6) 0.3150(3)
O2 O 0.4428(3) 1.0422(7) 0.3296(4)
O3 O 0.3657(3) 1.1219(6) 0.4252(3)
H11 H 0.394(4) 1.094(9) 0.453(3)
O4 O 0.4677(4) 0.7363(7) 0.3447(4)
H12 H 0.483(6) 0.664(7) 0.340(6)
O5 O 0.4473(3) 0.8041(6) 0.4647(3)
O6 O 0.3769(4) 0.6046(7) 0.4127(4)
O7 O 0.1906(3) 1.0876(6) 0.2139(3)
O8 O 0.0554(4) 1.0274(7) 0.1955(4)
O9 O 0.1349(4) 1.1145(8) 0.1048(4)
H13 H 0.092(4) 1.105(11) 0.085(4)
O10 O 0.0506(3) 0.7284(6) 0.2019(3)
O11 O 0.1239(3) 0.5957(6) 0.1177(3)
O12 O 0.0415(4) 0.7916(7) 0.0816(4)
H14 H 0.053(6) 0.756(11) 0.047(4)
O13 O 0.0895(5) 0.8818(9) 0.3276(4)
H15 H 0.085(7) 0.822(8) 0.358(5)
H16 H 0.080(5) 0.957(8) 0.352(4)
O14 O 0.0743(4) 0.4024(9) 0.2075(4)
H17 H 0.096(6) 0.450(10) 0.175(5)
H18 H 0.058(6) 0.334(9) 0.182(6)
Pd1B Pd -0.25434(4) 0.94885(7) 0.23767(3)
P1B P -0.36900(13) 1.0396(2) 0.13956(13)
P2B P -0.41219(13) 0.7421(3) 0.09546(13)
P3B P -0.13184(13) 1.0281(2) 0.33086(14)
P4B P -0.09114(12) 0.7297(2) 0.36374(13)
C1B C -0.3428(5) 0.8596(9) 0.1247(5)
C2B C -0.2793(5) 0.8585(9) 0.0736(5)
H1B H -0.2420 0.9246 0.0872
H2B H -0.2980 0.8836 0.0298
H3B H -0.2578 0.7667 0.0717
C3B C -0.1641(4) 0.8545(9) 0.3501(5)
C4B C -0.2197(5) 0.8581(10) 0.4069(5)
H4B H -0.2593 0.9213 0.3956
H5B H -0.1957 0.8891 0.4475
H6B H -0.2397 0.7661 0.4137
N1B N -0.3142(4) 0.8095(7) 0.1893(4)
H7B H -0.2862 0.7329 0.1820
H8B H -0.3527 0.7840 0.2157
N2B N -0.2023(4) 0.8039(7) 0.2887(4)
H9B H -0.2354 0.7377 0.3008
H10B H -0.1685 0.7633 0.2614
O1B O -0.3076(3) 1.0940(6) 0.1850(3)
O2B O -0.4428(3) 1.0422(7) 0.1704(4)
O3B O -0.3657(3) 1.1219(6) 0.0748(3)
H11B H -0.394(4) 1.094(9) 0.047(3)
O4B O -0.4677(4) 0.7363(7) 0.1553(4)
H12B H -0.483(6) 0.664(7) 0.160(6)
O5B O -0.4473(3) 0.8041(6) 0.0353(3)
O6B O -0.3769(4) 0.6046(7) 0.0873(4)
O7B O -0.1906(3) 1.0876(6) 0.2861(3)
O8B O -0.0554(4) 1.0274(7) 0.3045(4)
O9B O -0.1349(4) 1.1145(8) 0.3952(4)
H13B H -0.092(4) 1.105(11) 0.415(4)
O10B O -0.0506(3) 0.7284(6) 0.2981(3)
O11B O -0.1239(3) 0.5957(6) 0.3823(3)
O12B O -0.0415(4) 0.7916(7) 0.4184(4)
H14B H -0.053(6) 0.756(11) 0.453(4)
O13B O -0.0895(5) 0.8818(9) 0.1724(4)
H15B H -0.085(7) 0.822(8) 0.142(5)
H16B H -0.080(5) 0.957(8) 0.148(4)
O14B O -0.0743(4) 0.4024(9) 0.2925(4)
H17B H -0.096(6) 0.450(10) 0.325(5)
H18B H -0.058(6) 0.334(9) 0.318(6)
Cu1E Cu -0.5000 1.05036(17) 0.2500
Cu1E_2 Cu 0.5000 1.05036(17) 0.2500
O2E O -0.0572(3) 0.5422(7) 0.1704(4)
O2G O 0.0572(3) 0.5422(7) 0.3296(4)
O15 O 0.5824(3) 0.9032(7) 0.4663(4)
H19 H 0.593(5) 0.975(6) 0.445(5)
H20 H 0.5371(10) 0.893(10) 0.464(5)
O16 O 0.0726(5) 0.9248(9) 0.4963(5)
H21 H 0.106(5) 0.884(10) 0.475(6)
H22 H 0.081(6) 1.009(2) 0.495(7)
loop_
_geom_bond_atom_site_label_1
_geom_bond_atom_site_label_2
_geom_bond_site_symmetry_1
_geom_bond_site_symmetry_2
Cu1 O10 1_555 1_555
Cu2 O8 1_555 1_555
Pd1 N1 1_555 1_555
P1 C1 1_555 1_555
P2 C1 1_555 1_555
P3 C3 1_555 1_555
P4 C3 1_555 1_555
C1 C2 1_555 1_555
C2 H1 1_555 1_555
H2 C2 1_555 1_555
H3 C2 1_555 1_555
C3 C4 1_555 1_555
C4 H4 1_555 1_555
H5 C4 1_555 1_555
H6 C4 1_555 1_555
N1 C1 1_555 1_555
H7 N1 1_555 1_555
H8 N1 1_555 1_555
N2 Pd1 1_555 1_555
H9 N2 1_555 1_555
H10 N2 1_555 1_555
O1 Pd1 1_555 1_555
O2 P1 1_555 1_555
O3 P1 1_555 1_555
H11 O3 1_555 1_555
O4 P2 1_555 1_555
H12 O4 1_555 1_555
O5 P2 1_555 1_555
O6 P2 1_555 1_555
O7 Pd1 1_555 1_555
O8 P3 1_555 1_555
O9 P3 1_555 1_555
H13 O9 1_555 1_555
O10 Cu2 1_555 1_555
O11 P4 1_555 1_555
O12 P4 1_555 1_555
H14 O12 1_555 1_555
O13 Cu2 1_555 1_555
H15 O13 1_555 1_555
H16 O13 1_555 1_555
O14 Cu1 1_555 1_555
H17 O14 1_555 1_555
H18 O14 1_555 1_555
O15 H19 1_555 1_555
H20 O15 1_555 1_555
O16 H21 1_555 1_555
H22 O16 1_555 1_555
Pd1B N1B 1_555 1_555
P1B C1B 1_555 1_555
P2B C1B 1_555 1_555
P3B C3B 1_555 1_555
P4B C3B 1_555 1_555
C1B C2B 1_555 1_555
C2B H1B 1_555 1_555
H2B C2B 1_555 1_555
H3B C2B 1_555 1_555
C3B C4B 1_555 1_555
C4B H4B 1_555 1_555
H5B C4B 1_555 1_555
H6B C4B 1_555 1_555
N1B C1B 1_555 1_555
H7B N1B 1_555 1_555
H8B N1B 1_555 1_555
N2B Pd1B 1_555 1_555
H9B N2B 1_555 1_555
H10B N2B 1_555 1_555
O1B Pd1B 1_555 1_555
O2B P1B 1_555 1_555
O3B P1B 1_555 1_555
H11B O3B 1_555 1_555
O4B P2B 1_555 1_555
H12B O4B 1_555 1_555
O5B P2B 1_555 1_555
O6B P2B 1_555 1_555
O7B Pd1B 1_555 1_555
O8B Cu2 1_555 1_555
O9B P3B 1_555 1_555
H13B O9B 1_555 1_555
O10B Cu1 1_555 1_555
O11B P4B 1_555 1_555
O12B P4B 1_555 1_555
H14B O12B 1_555 1_555
O13B Cu2 1_555 1_555
H15B O13B 1_555 1_555
H16B O13B 1_555 1_555
O14B Cu1 1_555 1_555
H17B O14B 1_555 1_555
H18B O14B 1_555 1_555
Cu1E O2B 1_555 1_555
Cu1E_2 O2 1_555 1_555
O2E Cu1 1_555 1_555
O2G Cu1 1_555 1_555
Cu2 O10B 1_555 1_555
P1 O1 1_555 1_555
P3 O7 1_555 1_555
P4 O10 1_555 1_555
C3 N2 1_555 1_555
P1B O1B 1_555 1_555
P3B O7B 1_555 1_555
P3B O8B 1_555 1_555
P4B O10B 1_555 1_555
C3B N2B 1_555 1_555

#END
