
#######################################################################
#
#                 Cambridge Crystallographic Data Centre
#                                CCDC 
#
#######################################################################
#
# If this CIF has been generated from an entry in the Cambridge 
# Structural Database, then it will include bibliographic, chemical, 
# crystal, experimental, refinement or atomic coordinate data resulting 
# from the CCDC's data processing and validation procedures.
#
#######################################################################

data_AFUJER
_symmetry_cell_setting           monoclinic
_symmetry_space_group_name_H-M   'P 21/c'
_symmetry_Int_Tables_number      14
_space_group_name_Hall           '-P 2ybc'
loop_
_symmetry_equiv_pos_site_id
_symmetry_equiv_pos_as_xyz
1 x,y,z
2 -x,1/2+y,1/2-z
3 -x,-y,-z
4 x,1/2-y,1/2+z
_cell_length_a                   10.933(6)
_cell_length_b                   11.410(10)
_cell_length_c                   12.789(9)
_cell_angle_alpha                90.00
_cell_angle_beta                 112.36(2)
_cell_angle_gamma                90.00
_cell_volume                     1475.42
loop_
_atom_site_label
_atom_site_type_symbol
_atom_site_fract_x
_atom_site_fract_y
_atom_site_fract_z
Ag1 Ag -0.06669(4) 0.06711(2) 0.55667(3)
O1 O -0.3784(4) 0.4416(2) 0.8141(3)
N1 N -0.2535(2) 0.2603(2) 0.6632(2)
O2 O -0.1812(3) 0.23311(19) 0.6067(2)
N2 N -0.3491(3) 0.3598(2) 0.7585(2)
C1 C -0.2643(3) 0.3683(2) 0.7031(2)
C2 C -0.3966(4) 0.0828(3) 0.6007(3)
H1 H -0.3309 0.0382 0.5853
H2 H -0.4480 0.1271 0.5347
H3 H -0.4536 0.0306 0.6200
C3 C -0.4247(3) 0.2456(3) 0.7337(3)
C4 C -0.3288(3) 0.1665(3) 0.6992(3)
C5 C -0.4486(4) 0.2039(3) 0.8385(3)
H4 H -0.5081 0.2569 0.8535
H5 H -0.3661 0.2019 0.9024
H6 H -0.4866 0.1268 0.8250
C6 C -0.2261(4) 0.1003(3) 0.7978(3)
H7 H -0.1713 0.0541 0.7703
H8 H -0.2705 0.0498 0.8322
H9 H -0.1723 0.1554 0.8528
C7 C -0.5577(4) 0.2716(4) 0.6358(4)
H10 H -0.6113 0.3200 0.6628
H11 H -0.6031 0.1993 0.6073
H12 H -0.5415 0.3117 0.5763
C8 C -0.0776(3) 0.8062(3) 0.5827(3)
O3 O -0.0084(3) 0.7972(2) 0.5236(2)
C9 C -0.2047(3) 0.5820(3) 0.7410(3)
H13 H -0.2325 0.5804 0.8013
C10 C -0.2056(3) 0.4779(3) 0.6816(3)
C11 C -0.1580(3) 0.4819(3) 0.5931(3)
H14 H -0.1546 0.4137 0.5545
C12 C -0.1205(3) 0.6910(3) 0.6196(3)
C13 C -0.1628(3) 0.6873(3) 0.7109(3)
H15 H -0.1626 0.7554 0.7510
C14 C -0.1165(3) 0.5876(3) 0.5637(3)
H16 H -0.0853 0.5891 0.5055
O4 O -0.1158(3) 0.8993(2) 0.6123(3)
Ag1B Ag 0.06669(4) 0.93289(2) 0.44333(3)
Ag1_2 Ag -0.06669(4) 1.06711(2) 0.55667(3)
O3B O 0.0084(3) 0.2028(2) 0.4764(2)
O4_2 O -0.1158(3) -0.1007(2) 0.6123(3)
loop_
_geom_bond_atom_site_label_1
_geom_bond_atom_site_label_2
_geom_bond_site_symmetry_1
_geom_bond_site_symmetry_2
Ag1 O2 1_555 1_555
O1 N2 1_555 1_555
N1 O2 1_555 1_555
N2 C1 1_555 1_555
C1 N1 1_555 1_555
C2 H1 1_555 1_555
H2 C2 1_555 1_555
H3 C2 1_555 1_555
C3 N2 1_555 1_555
C4 N1 1_555 1_555
C5 C3 1_555 1_555
H4 C5 1_555 1_555
H5 C5 1_555 1_555
H6 C5 1_555 1_555
C6 C4 1_555 1_555
H7 C6 1_555 1_555
H8 C6 1_555 1_555
H9 C6 1_555 1_555
C7 C3 1_555 1_555
H10 C7 1_555 1_555
H11 C7 1_555 1_555
H12 C7 1_555 1_555
C8 O3 1_555 1_555
O3 Ag1B 1_555 1_555
C9 H13 1_555 1_555
C10 C1 1_555 1_555
C11 C10 1_555 1_555
H14 C11 1_555 1_555
C12 C8 1_555 1_555
C13 C9 1_555 1_555
H15 C13 1_555 1_555
C14 C11 1_555 1_555
H16 C14 1_555 1_555
O4 C8 1_555 1_555
Ag1_2 O4 1_555 1_555
O3B Ag1 1_555 1_555
O4_2 Ag1 1_555 1_555
C2 C4 1_555 1_555
C3 C4 1_555 1_555
C9 C10 1_555 1_555
C12 C13 1_555 1_555
C12 C14 1_555 1_555

#END
