
#######################################################################
#
#                 Cambridge Crystallographic Data Centre
#                                CCDC 
#
#######################################################################
#
# If this CIF has been generated from an entry in the Cambridge 
# Structural Database, then it will include bibliographic, chemical, 
# crystal, experimental, refinement or atomic coordinate data resulting 
# from the CCDC's data processing and validation procedures.
#
#######################################################################

data_AFUJAN
_symmetry_cell_setting           monoclinic
_symmetry_space_group_name_H-M   'C 2/c'
_symmetry_Int_Tables_number      15
_space_group_name_Hall           '-C 2yn'
loop_
_symmetry_equiv_pos_site_id
_symmetry_equiv_pos_as_xyz
1 x,y,z
2 1/2+x,1/2+y,z
3 -x,y,1/2-z
4 1/2-x,1/2+y,1/2-z
5 -x,-y,-z
6 1/2-x,1/2-y,-z
7 x,-y,1/2+z
8 1/2+x,1/2-y,1/2+z
_cell_length_a                   22.471(18)
_cell_length_b                   10.747(6)
_cell_length_c                   14.389(15)
_cell_angle_alpha                90.00
_cell_angle_beta                 115.98(6)
_cell_angle_gamma                90.00
_cell_volume                     3123.74
loop_
_atom_site_label
_atom_site_type_symbol
_atom_site_fract_x
_atom_site_fract_y
_atom_site_fract_z
Ag1 Ag 0.43179(2) 0.28366(6) 0.15392(3)
Ag2 Ag 0.5000 0.40689(9) -0.2500
N1 N 0.32301(18) 0.3366(4) -0.1774(3)
O1 O 0.30283(17) 0.4116(3) -0.2533(2)
O2 O 0.44929(17) 0.4341(4) -0.1514(3)
N2 N 0.37272(18) 0.2738(4) -0.0134(3)
C1 C 0.4095(2) 0.5836(4) -0.0724(3)
C2 C 0.2978(2) 0.2060(4) -0.1844(3)
C3 C 0.36065(19) 0.3690(4) -0.0742(3)
C4 C 0.4201(3) 0.7055(5) -0.0326(4)
H1 H 0.4414 0.7629 -0.0561
C5 C 0.3763(2) 0.4997(4) -0.0376(3)
C6 C 0.2974(3) 0.1385(5) -0.2775(4)
H2 H 0.2654 0.1763 -0.3398
H3 H 0.2861 0.0527 -0.2756
H4 H 0.3405 0.1440 -0.2759
C7 C 0.4378(2) 0.5477(5) -0.1450(3)
C8 C 0.2264(3) 0.2206(5) -0.1958(5)
H5 H 0.1983 0.2516 -0.2636
H6 H 0.2264 0.2780 -0.1448
H7 H 0.2104 0.1412 -0.1862
C9 C 0.3176(3) 0.0711(5) -0.0236(4)
H8 H 0.3512 0.0444 0.0421
H9 H 0.2983 -0.0002 -0.0665
H10 H 0.2838 0.1158 -0.0135
C10 C 0.3484(2) 0.1561(4) -0.0760(4)
C11 C 0.4097(3) 0.0950(6) -0.0758(5)
H11 H 0.4381 0.0663 -0.0073
H12 H 0.4331 0.1546 -0.0972
H13 H 0.3967 0.0258 -0.1227
O3 O 0.45083(19) 0.6362(4) -0.1916(3)
C12 C 0.3557(3) 0.5387(5) 0.0365(4)
H14 H 0.3335 0.4830 0.0596
C13 C 0.3675(3) 0.6570(6) 0.0757(5)
H15 H 0.3541 0.6805 0.1257
C14 C 0.3994(3) 0.7413(6) 0.0410(5)
H16 H 0.4070 0.8220 0.0670
N3 N 0.5000 0.0122(9) 0.2500
O4 O 0.4530(5) 0.0717(9) 0.2376(8)
O5 O 0.5000 -0.0963(9) 0.2500
Ag1B Ag 0.56821(2) 0.28366(6) -0.65392(3)
Ag1B_2 Ag 0.56821(2) 0.28366(6) 0.34608(3)
Ag1F Ag 0.43179(2) 0.71634(6) -0.34608(3)
Ag1D Ag 0.56821(2) 0.71634(6) -0.15392(3)
Ag1_2 Ag 0.43179(2) 0.28366(6) -0.84608(3)
N1B N 0.67699(18) 0.3366(4) -0.3226(3)
O1B O 0.69717(17) 0.4116(3) -0.2467(2)
O2B O 0.55071(17) 0.4341(4) -0.3486(3)
N2B N 0.62728(18) 0.2738(4) -0.4866(3)
C1B C 0.5905(2) 0.5836(4) -0.4276(3)
C2B C 0.7022(2) 0.2060(4) -0.3156(3)
C3B C 0.63935(19) 0.3690(4) -0.4258(3)
C4B C 0.5799(3) 0.7055(5) -0.4674(4)
H1B H 0.5586 0.7629 -0.4439
C5B C 0.6237(2) 0.4997(4) -0.4624(3)
C6B C 0.7026(3) 0.1385(5) -0.2225(4)
H2B H 0.7346 0.1763 -0.1602
H3B H 0.7139 0.0527 -0.2244
H4B H 0.6595 0.1440 -0.2241
C7B C 0.5622(2) 0.5477(5) -0.3550(3)
C8B C 0.7736(3) 0.2206(5) -0.3042(5)
H5B H 0.8017 0.2516 -0.2364
H6B H 0.7736 0.2780 -0.3552
H7B H 0.7896 0.1412 -0.3138
C9B C 0.6824(3) 0.0711(5) -0.4764(4)
H8B H 0.6488 0.0444 -0.5421
H9B H 0.7017 -0.0002 -0.4335
H10B H 0.7162 0.1158 -0.4865
C10B C 0.6516(2) 0.1561(4) -0.4240(4)
C11B C 0.5903(3) 0.0950(6) -0.4242(5)
H11B H 0.5619 0.0663 -0.4927
H12B H 0.5669 0.1546 -0.4028
H13B H 0.6033 0.0258 -0.3773
O3B O 0.54917(19) 0.6362(4) -0.3084(3)
O3F O 0.45083(19) 0.3638(4) 0.3084(3)
O3D O 0.54917(19) 0.3638(4) 0.1916(3)
O3F_2 O 0.45083(19) 0.3638(4) -0.6916(3)
O3D_2 O 0.54917(19) 0.3638(4) -0.8084(3)
C12B C 0.6443(3) 0.5387(5) -0.5365(4)
H14B H 0.6665 0.4830 -0.5596
C13B C 0.6325(3) 0.6570(6) -0.5757(5)
H15B H 0.6459 0.6805 -0.6257
C14B C 0.6006(3) 0.7413(6) -0.5410(5)
H16B H 0.5930 0.8220 -0.5670
O4B O 0.5470(5) 0.0717(9) 0.2624(8)
O4B_2 O 0.5470(5) 0.0717(9) -0.7376(8)
loop_
_geom_bond_atom_site_label_1
_geom_bond_atom_site_label_2
_geom_bond_site_symmetry_1
_geom_bond_site_symmetry_2
Ag1 N2 1_555 1_555
Ag2 O2 1_555 1_555
N1 O1 1_555 1_555
O2 C7 1_555 1_555
N2 C3 1_555 1_555
C1 C4 1_555 1_555
C2 N1 1_555 1_555
C3 N1 1_555 1_555
C4 H1 1_555 1_555
C5 C1 1_555 1_555
C6 C2 1_555 1_555
H2 C6 1_555 1_555
H3 C6 1_555 1_555
H4 C6 1_555 1_555
C7 C1 1_555 1_555
C8 C2 1_555 1_555
H5 C8 1_555 1_555
H6 C8 1_555 1_555
H7 C8 1_555 1_555
C9 H8 1_555 1_555
H9 C9 1_555 1_555
H10 C9 1_555 1_555
C10 N2 1_555 1_555
C11 C10 1_555 1_555
H11 C11 1_555 1_555
H12 C11 1_555 1_555
H13 C11 1_555 1_555
O3 C7 1_555 1_555
C12 C5 1_555 1_555
H14 C12 1_555 1_555
C13 C12 1_555 1_555
H15 C13 1_555 1_555
C14 C4 1_555 1_555
H16 C14 1_555 1_555
N3 O4 1_555 1_555
O4 Ag1 1_555 1_555
O5 N3 1_555 1_555
Ag1B N2B 1_555 1_555
Ag1B_2 O3F 1_555 1_555
Ag1F O3 1_555 1_555
Ag1D O3 1_555 1_555
Ag1_2 O3F_2 1_555 1_555
N1B O1B 1_555 1_555
O2B Ag2 1_555 1_555
N2B C3B 1_555 1_555
C1B C4B 1_555 1_555
C2B N1B 1_555 1_555
C3B N1B 1_555 1_555
C4B H1B 1_555 1_555
C5B C1B 1_555 1_555
C6B C2B 1_555 1_555
H2B C6B 1_555 1_555
H3B C6B 1_555 1_555
H4B C6B 1_555 1_555
C7B O2B 1_555 1_555
C8B C2B 1_555 1_555
H5B C8B 1_555 1_555
H6B C8B 1_555 1_555
H7B C8B 1_555 1_555
C9B H8B 1_555 1_555
H9B C9B 1_555 1_555
H10B C9B 1_555 1_555
C10B N2B 1_555 1_555
C11B C10B 1_555 1_555
H11B C11B 1_555 1_555
H12B C11B 1_555 1_555
H13B C11B 1_555 1_555
O3B Ag1F 1_555 1_555
O3F Ag1 1_555 1_555
O3D Ag1 1_555 1_555
O3F_2 Ag1B 1_555 1_555
O3D_2 Ag1B 1_555 1_555
C12B C5B 1_555 1_555
H14B C12B 1_555 1_555
C13B C12B 1_555 1_555
H15B C13B 1_555 1_555
C14B C4B 1_555 1_555
H16B C14B 1_555 1_555
O4B N3 1_555 1_555
O4B_2 Ag1B 1_555 1_555
C2 C10 1_555 1_555
C3 C5 1_555 1_555
C9 C10 1_555 1_555
C13 C14 1_555 1_555
Ag1B_2 O3D 1_555 1_555
Ag1B_2 O4B 1_555 1_555
Ag1D O3B 1_555 1_555
Ag1_2 O3D_2 1_555 1_555
C1B C7B 1_555 1_555
C2B C10B 1_555 1_555
C3B C5B 1_555 1_555
C7B O3B 1_555 1_555
C9B C10B 1_555 1_555
C13B C14B 1_555 1_555

#END
