
#######################################################################
#
#                 Cambridge Crystallographic Data Centre
#                                CCDC 
#
#######################################################################
#
# If this CIF has been generated from an entry in the Cambridge 
# Structural Database, then it will include bibliographic, chemical, 
# crystal, experimental, refinement or atomic coordinate data resulting 
# from the CCDC's data processing and validation procedures.
#
#######################################################################

data_AFUJOA
_symmetry_cell_setting           triclinic
_symmetry_space_group_name_H-M   'P -1'
_symmetry_Int_Tables_number      2
_space_group_name_Hall           '-P 1'
loop_
_symmetry_equiv_pos_site_id
_symmetry_equiv_pos_as_xyz
1 x,y,z
2 -x,-y,-z
_cell_length_a                   7.213(3)
_cell_length_b                   9.841(6)
_cell_length_c                   16.371(5)
_cell_angle_alpha                82.94(4)
_cell_angle_beta                 82.31(3)
_cell_angle_gamma                86.32(4)
_cell_volume                     1141.54
loop_
_atom_site_label
_atom_site_type_symbol
_atom_site_fract_x
_atom_site_fract_y
_atom_site_fract_z
Cd1 Cd -0.32055(4) -0.00382(3) 0.231436(14)
S1 S 0.18724(12) 0.03119(8) 0.26352(5)
S2 S 0.11697(15) 0.41725(10) 0.22763(6)
O1 O 0.0361(4) -0.0068(3) 0.22274(16)
O2 O 0.3563(3) 0.0601(3) 0.20669(16)
O3 O 0.2190(5) -0.0524(3) 0.33894(17)
O4 O 0.1083(6) 0.4575(3) 0.3086(2)
O5 O 0.3027(5) 0.3992(4) 0.1863(2)
O6 O -0.0150(6) 0.4841(3) 0.1767(3)
O7 O 0.0259(4) 0.2636(3) 0.24039(19)
O8 O 0.1157(4) 0.1724(3) 0.30346(15)
N1 N -0.2569(4) -0.1354(3) 0.35244(17)
N2 N -0.3632(4) 0.1355(3) 0.33309(17)
C1 C -0.1994(6) -0.2686(4) 0.3595(2)
H1 H -0.1982 -0.3165 0.3139
C2 C -0.1427(6) -0.3369(4) 0.4305(3)
H2 H -0.1046 -0.4292 0.4331
C3 C -0.1432(6) -0.2662(4) 0.4983(2)
H3 H -0.1075 -0.3105 0.5477
C4 C -0.1974(5) -0.1290(4) 0.4917(2)
H4 H -0.1964 -0.0792 0.5364
C5 C -0.2537(5) -0.0651(4) 0.4175(2)
C6 C -0.3110(4) 0.0836(4) 0.4072(2)
C7 C -0.3101(5) 0.1664(4) 0.4694(2)
H5 H -0.2733 0.1301 0.5203
C8 C -0.3646(6) 0.3036(4) 0.4554(3)
H6 H -0.3640 0.3605 0.4967
C9 C -0.4192(6) 0.3552(4) 0.3805(3)
H7 H -0.4560 0.4473 0.3700
C10 C -0.4185(6) 0.2681(4) 0.3213(2)
H8 H -0.4581 0.3026 0.2707
N3 N -0.2509(4) 0.1156(3) 0.10287(17)
N4 N -0.3373(4) -0.1532(3) 0.13607(17)
C11 C -0.2059(5) 0.2469(4) 0.0889(3)
H9 H -0.2065 0.2958 0.1341
C12 C -0.1586(6) 0.3127(4) 0.0104(3)
H10 H -0.1291 0.4044 0.0027
C13 C -0.1559(6) 0.2402(4) -0.0563(3)
H11 H -0.1236 0.2818 -0.1101
C14 C -0.2015(6) 0.1055(4) -0.0425(2)
H12 H -0.2002 0.0548 -0.0870
C15 C -0.2495(4) 0.0450(3) 0.0380(2)
C16 C -0.2993(5) -0.1019(4) 0.0558(2)
C17 C -0.3080(5) -0.1828(4) -0.0070(2)
H13 H -0.2821 -0.1463 -0.0623
C18 C -0.3553(6) -0.3178(4) 0.0126(3)
H14 H -0.3601 -0.3731 -0.0292
C19 C -0.3950(6) -0.3690(4) 0.0940(3)
H15 H -0.4276 -0.4595 0.1087
C20 C -0.3856(6) -0.2834(4) 0.1542(2)
H16 H -0.4142 -0.3179 0.2096
O2_2 O -0.6437(3) 0.0601(3) 0.20669(16)
Cd1_2 Cd 0.67945(4) -0.00382(3) 0.231436(14)
O9 O -0.6518(5) -0.3397(4) 0.3430(3)
H17 H -0.690(6) -0.258(4) 0.337(3)
H18 H -0.732(6) -0.392(4) 0.334(3)
loop_
_geom_bond_atom_site_label_1
_geom_bond_atom_site_label_2
_geom_bond_site_symmetry_1
_geom_bond_site_symmetry_2
Cd1 O1 1_555 1_555
S1 O1 1_555 1_555
S2 O4 1_555 1_555
O2 S1 1_555 1_555
O3 S1 1_555 1_555
O5 S2 1_555 1_555
O6 S2 1_555 1_555
O7 S2 1_555 1_555
O8 S1 1_555 1_555
N1 Cd1 1_555 1_555
N2 Cd1 1_555 1_555
C1 N1 1_555 1_555
H1 C1 1_555 1_555
C2 C1 1_555 1_555
H2 C2 1_555 1_555
C3 C2 1_555 1_555
H3 C3 1_555 1_555
C4 C3 1_555 1_555
H4 C4 1_555 1_555
C5 N1 1_555 1_555
C6 N2 1_555 1_555
C7 C6 1_555 1_555
H5 C7 1_555 1_555
C8 C7 1_555 1_555
H6 C8 1_555 1_555
C9 C8 1_555 1_555
H7 C9 1_555 1_555
C10 N2 1_555 1_555
H8 C10 1_555 1_555
N3 Cd1 1_555 1_555
N4 Cd1 1_555 1_555
C11 N3 1_555 1_555
H9 C11 1_555 1_555
C12 C11 1_555 1_555
H10 C12 1_555 1_555
C13 C12 1_555 1_555
H11 C13 1_555 1_555
C14 C13 1_555 1_555
H12 C14 1_555 1_555
C15 N3 1_555 1_555
C16 N4 1_555 1_555
C17 C16 1_555 1_555
H13 C17 1_555 1_555
C18 C17 1_555 1_555
H14 C18 1_555 1_555
C19 C18 1_555 1_555
H15 C19 1_555 1_555
C20 N4 1_555 1_555
H16 C20 1_555 1_555
O9 H17 1_555 1_555
H18 O9 1_555 1_555
O2_2 Cd1 1_555 1_555
Cd1_2 O2 1_555 1_555
O7 O8 1_555 1_555
C4 C5 1_555 1_555
C5 C6 1_555 1_555
C9 C10 1_555 1_555
C14 C15 1_555 1_555
C15 C16 1_555 1_555
C19 C20 1_555 1_555

#END
