
#######################################################################
#
#                 Cambridge Crystallographic Data Centre
#                                CCDC 
#
#######################################################################
#
# If this CIF has been generated from an entry in the Cambridge 
# Structural Database, then it will include bibliographic, chemical, 
# crystal, experimental, refinement or atomic coordinate data resulting 
# from the CCDC's data processing and validation procedures.
#
#######################################################################

data_AFUKET
_symmetry_cell_setting           orthorhombic
_symmetry_space_group_name_H-M   'F d d 2'
_symmetry_Int_Tables_number      43
_space_group_name_Hall           'F 2 -2d'
loop_
_symmetry_equiv_pos_site_id
_symmetry_equiv_pos_as_xyz
1 x,y,z
2 -x,-y,z
3 1/4+x,1/4-y,1/4+z
4 1/4-x,1/4+y,1/4+z
5 x,1/2+y,1/2+z
6 -x,1/2-y,1/2+z
7 1/4+x,3/4-y,3/4+z
8 1/4-x,3/4+y,3/4+z
9 1/2+x,y,1/2+z
10 1/2-x,-y,1/2+z
11 3/4+x,1/4-y,3/4+z
12 3/4-x,1/4+y,3/4+z
13 1/2+x,1/2+y,z
14 1/2-x,1/2-y,z
15 3/4+x,3/4-y,1/4+z
16 3/4-x,3/4+y,1/4+z
_cell_length_a                   47.138(12)
_cell_length_b                   75.02(2)
_cell_length_c                   10.521(3)
_cell_angle_alpha                90
_cell_angle_beta                 90
_cell_angle_gamma                90
_cell_volume                     37205.3
loop_
_atom_site_label
_atom_site_type_symbol
_atom_site_fract_x
_atom_site_fract_y
_atom_site_fract_z
Mn1 Mn 0.131728(18) 0.206622(12) -0.05233(9)
Mn2 Mn 0.133990(17) 0.191262(11) 0.26682(8)
Mn3 Mn 0.165192(17) 0.181714(11) 0.54772(8)
N1 N 0.21093(10) 0.18549(7) 0.5664(5)
N2 N 0.25244(11) 0.19494(7) 0.6391(6)
N3 N 0.35546(12) 0.26410(7) 0.9201(6)
N4 N 0.33289(11) 0.24050(7) 0.8556(5)
O1 O 0.14227(8) 0.06584(6) -0.0440(4)
O2 O 0.11951(10) 0.20902(6) -0.2465(4)
H1 H 0.1358 0.2122 -0.2964
H2 H 0.1053 0.2181 -0.2543
O3 O 0.09292(11) 0.09676(6) -0.0703(5)
O4 O 0.16718(9) 0.17417(6) 0.7477(4)
H3 H 0.1663 0.1847 0.7994
H4 H 0.1847 0.1681 0.7635
O5 O 0.04170(8) 0.06496(7) -0.0384(4)
O6 O 0.08986(10) 0.03493(5) -0.0049(5)
O7 O 0.18512(9) 0.09966(6) 0.0316(5)
O8 O 0.24238(8) 0.07455(7) -0.0293(4)
O9 O 0.20227(10) 0.03890(6) -0.0635(5)
O10 O 0.11577(9) 0.17423(6) 0.1286(4)
O11 O 0.12189(8) 0.17889(5) -0.0774(4)
O12 O -0.08774(8) 0.04879(6) -0.1378(4)
O13 O -0.07161(8) 0.04954(6) -0.3295(4)
O14 O 0.08536(10) -0.03325(6) 0.3510(5)
O15 O 0.09047(8) -0.04549(5) 0.1666(4)
O16 O 0.17040(10) 0.15461(6) 0.4822(5)
O17 O 0.16475(9) 0.17164(6) 0.3214(5)
O18 O 0.37164(9) 0.06957(6) -0.1619(4)
O19 O 0.35365(9) 0.07006(6) -0.3558(5)
O20 O 0.14173(9) -0.03556(6) 0.0019(5)
O21 O 0.15280(8) -0.03503(6) -0.2032(5)
C1 C 0.09259(12) 0.06585(8) -0.0402(6)
C2 C 0.09249(13) 0.08393(7) 0.0305(7)
H5 H 0.0756 0.0852 0.0821
H6 H 0.1091 0.0851 0.0844
C3 C 0.06609(12) 0.06421(8) -0.1231(7)
H7 H 0.0653 0.0739 -0.1841
H8 H 0.0663 0.0530 -0.1692
C4 C 0.09285(13) 0.05134(7) 0.0630(6)
H9 H 0.1105 0.0516 0.1101
H10 H 0.0773 0.0530 0.1220
C5 C 0.11784(12) 0.06418(9) -0.1170(7)
H11 H 0.1178 0.0527 -0.1588
H12 H 0.1177 0.0733 -0.1823
C6 C 0.19231(12) 0.06946(8) -0.0272(6)
C7 C 0.18816(13) 0.08288(8) 0.0781(6)
H13 H 0.1714 0.0797 0.1269
H14 H 0.2044 0.0825 0.1348
C8 C 0.21834(12) 0.07411(10) -0.1090(7)
H15 H 0.2209 0.0652 -0.1750
H16 H 0.2157 0.0856 -0.1492
C9 C 0.19626(14) 0.05145(9) 0.0306(8)
H17 H 0.2117 0.0518 0.0914
H18 H 0.1792 0.0480 0.0755
C10 C 0.16749(12) 0.06987(10) -0.1187(8)
H19 H 0.1658 0.0815 -0.1577
H20 H 0.1700 0.0611 -0.1853
C11 C 0.09798(13) 0.11413(9) -0.0405(7)
C12 C 0.09780(15) 0.12104(9) 0.0763(7)
H21 H 0.0937 0.1138 0.1456
C13 C 0.10367(14) 0.13906(9) 0.0954(6)
H22 H 0.1043 0.1437 0.1773
C14 C 0.10836(12) 0.14972(8) -0.0055(6)
C15 C 0.10912(15) 0.14302(9) -0.1263(7)
H23 H 0.1131 0.1503 -0.1957
C16 C 0.10384(16) 0.12511(9) -0.1415(7)
H24 H 0.1043 0.1203 -0.2229
C17 C 0.11623(12) 0.16932(8) 0.0186(7)
C18 C 0.01593(13) 0.06180(9) -0.0897(7)
C19 C -0.00601(14) 0.05995(10) -0.0059(7)
H25 H -0.0023 0.0613 0.0804
C20 C -0.03245(13) 0.05629(8) -0.0424(6)
H26 H -0.0467 0.0545 0.0174
C21 C -0.03819(13) 0.05523(8) -0.1688(6)
C22 C -0.01659(14) 0.05751(10) -0.2555(7)
H27 H -0.0202 0.0568 -0.3423
C23 C 0.01052(13) 0.06089(9) -0.2117(8)
H28 H 0.0252 0.0626 -0.2697
C24 C -0.06788(13) 0.05098(7) -0.2160(6)
C25 C 0.08908(13) 0.01935(8) 0.0623(8)
C26 C 0.08437(15) 0.00448(8) -0.0089(7)
H29 H 0.0813 0.0054 -0.0960
C27 C 0.08417(14) -0.01223(8) 0.0500(7)
H30 H 0.0815 -0.0225 0.0016
C28 C 0.08783(13) -0.01353(8) 0.1749(6)
C29 C 0.09272(14) 0.00132(9) 0.2461(7)
H31 H 0.0957 0.0001 0.3331
C30 C 0.09337(15) 0.01814(8) 0.1919(7)
H32 H 0.0966 0.0282 0.2410
C31 C 0.08852(12) -0.03136(8) 0.2363(6)
C32 C 0.18170(13) 0.11289(8) 0.1198(7)
C33 C 0.18004(15) 0.11071(9) 0.2448(7)
H33 H 0.1808 0.0992 0.2774
C34 C 0.17733(15) 0.12445(10) 0.3267(7)
H34 H 0.1778 0.1225 0.4139
C35 C 0.17380(11) 0.14147(8) 0.2798(7)
C36 C 0.17549(15) 0.14370(9) 0.1514(6)
H35 H 0.1738 0.1551 0.1169
C37 C 0.17965(16) 0.12945(10) 0.0729(7)
H36 H 0.1811 0.1313 -0.0143
C38 C 0.16939(12) 0.15631(8) 0.3675(8)
C39 C 0.26817(13) 0.07450(9) -0.0915(7)
C40 C 0.29119(13) 0.07382(10) -0.0101(7)
H37 H 0.2885 0.0739 0.0774
C41 C 0.31743(13) 0.07311(9) -0.0585(7)
H38 H 0.3328 0.0727 -0.0031
C42 C 0.32235(12) 0.07296(8) -0.1850(7)
C43 C 0.30003(15) 0.07446(10) -0.2649(7)
H39 H 0.3031 0.0749 -0.3522
C44 C 0.27152(13) 0.07544(9) -0.2161(7)
H40 H 0.2560 0.0767 -0.2703
C45 C 0.35119(12) 0.07057(8) -0.2426(7)
C46 C 0.19091(13) 0.02217(9) -0.0543(8)
C47 C 0.19809(16) 0.01166(10) -0.1578(9)
H41 H 0.2102 0.0158 -0.2208
C48 C 0.18634(15) -0.00564(9) -0.1638(8)
H42 H 0.1916 -0.0132 -0.2297
C49 C 0.16755(14) -0.01140(9) -0.0754(7)
C50 C 0.16237(15) -0.00091(9) 0.0251(8)
H43 H 0.1509 -0.0051 0.0905
C51 C 0.17401(17) 0.01639(9) 0.0333(8)
H44 H 0.1695 0.0237 0.1020
C52 C 0.15274(13) -0.02943(9) -0.0956(8)
C53 C 0.22535(16) 0.19922(10) 0.6112(9)
H45 H 0.2177 0.2105 0.6223
C54 C 0.23168(17) 0.17200(10) 0.5632(8)
H46 H 0.2279 0.1604 0.5381
C55 C 0.25655(17) 0.17739(10) 0.5987(9)
H47 H 0.2734 0.1710 0.5975
C56 C 0.27306(14) 0.20652(9) 0.6955(7)
C57 C 0.30009(17) 0.20143(10) 0.6957(9)
H48 H 0.3054 0.1906 0.6594
C58 C 0.3208(2) 0.21284(13) 0.7530(8)
H49 H 0.3398 0.2095 0.7541
C59 C 0.31274(16) 0.22853(10) 0.8057(7)
C60 C 0.2857(2) 0.23330(15) 0.8059(10)
H50 H 0.2798 0.2440 0.8416
C61 C 0.2656(2) 0.22106(15) 0.7481(9)
H51 H 0.2464 0.2240 0.7495
C62 C 0.33239(16) 0.25769(10) 0.8712(7)
H52 H 0.3169 0.2647 0.8493
C63 C 0.3600(2) 0.23557(14) 0.8871(9)
H53 H 0.3675 0.2241 0.8852
C64 C 0.37363(18) 0.25072(10) 0.9217(12)
H54 H 0.3927 0.2516 0.9430
Mn1G Mn 0.118272(18) -0.043378(12) -0.30233(9)
Mn1J Mn -0.118272(18) 0.043378(12) -0.30233(9)
Mn1M Mn 0.368272(18) 0.293378(12) 0.94767(9)
Mn2B Mn 0.383990(17) 0.058738(11) -0.48318(8)
Mn2G Mn 0.116010(17) -0.058738(11) 0.01682(8)
Mn2J Mn -0.116010(17) 0.058738(11) 0.01682(8)
Mn3B Mn 0.415192(17) 0.068286(11) -0.20228(8)
Mn3G Mn 0.084808(17) -0.068286(11) 0.29772(8)
N3M N 0.14454(12) 0.23590(7) -0.0799(6)
O12B O 0.16226(8) 0.20121(6) 0.1122(4)
O13B O 0.17839(8) 0.20046(6) -0.0795(4)
O15C O 0.15953(8) 0.20451(5) 0.4166(4)
O18J O 0.12164(9) 0.18043(6) 0.5881(4)
O19J O 0.10365(9) 0.17994(6) 0.3942(5)
O20C O 0.10827(9) 0.21444(6) 0.2519(5)
O21C O 0.09720(8) 0.21497(6) 0.0468(5)
loop_
_geom_bond_atom_site_label_1
_geom_bond_atom_site_label_2
_geom_bond_site_symmetry_1
_geom_bond_site_symmetry_2
Mn1 O2 1_555 1_555
Mn2 O10 1_555 1_555
Mn3 N1 1_555 1_555
N1 C53 1_555 1_555
N2 C53 1_555 1_555
N3 C62 1_555 1_555
N4 C59 1_555 1_555
O1 C5 1_555 1_555
O2 H1 1_555 1_555
H2 O2 1_555 1_555
O3 C2 1_555 1_555
O4 Mn3 1_555 1_555
H3 O4 1_555 1_555
H4 O4 1_555 1_555
O5 C3 1_555 1_555
O6 C4 1_555 1_555
O7 C7 1_555 1_555
O8 C8 1_555 1_555
O9 C9 1_555 1_555
O10 C17 1_555 1_555
O11 Mn1 1_555 1_555
O12 C24 1_555 1_555
O13 C24 1_555 1_555
O14 C31 1_555 1_555
O15 C31 1_555 1_555
O16 Mn3 1_555 1_555
O17 Mn2 1_555 1_555
O18 C45 1_555 1_555
O19 C45 1_555 1_555
O20 C52 1_555 1_555
O21 C52 1_555 1_555
C1 C2 1_555 1_555
C2 H5 1_555 1_555
H6 C2 1_555 1_555
C3 C1 1_555 1_555
H7 C3 1_555 1_555
H8 C3 1_555 1_555
C4 C1 1_555 1_555
H9 C4 1_555 1_555
H10 C4 1_555 1_555
C5 C1 1_555 1_555
H11 C5 1_555 1_555
H12 C5 1_555 1_555
C6 C7 1_555 1_555
C7 H13 1_555 1_555
H14 C7 1_555 1_555
C8 C6 1_555 1_555
H15 C8 1_555 1_555
H16 C8 1_555 1_555
C9 C6 1_555 1_555
H17 C9 1_555 1_555
H18 C9 1_555 1_555
C10 O1 1_555 1_555
H19 C10 1_555 1_555
H20 C10 1_555 1_555
C11 O3 1_555 1_555
C12 C11 1_555 1_555
H21 C12 1_555 1_555
C13 C12 1_555 1_555
H22 C13 1_555 1_555
C14 C13 1_555 1_555
C15 C14 1_555 1_555
H23 C15 1_555 1_555
C16 C11 1_555 1_555
H24 C16 1_555 1_555
C17 O11 1_555 1_555
C18 O5 1_555 1_555
C19 C18 1_555 1_555
H25 C19 1_555 1_555
C20 C19 1_555 1_555
H26 C20 1_555 1_555
C21 C20 1_555 1_555
C22 C21 1_555 1_555
H27 C22 1_555 1_555
C23 C18 1_555 1_555
H28 C23 1_555 1_555
C24 C21 1_555 1_555
C25 O6 1_555 1_555
C26 C25 1_555 1_555
H29 C26 1_555 1_555
C27 C26 1_555 1_555
H30 C27 1_555 1_555
C28 C27 1_555 1_555
C29 C28 1_555 1_555
H31 C29 1_555 1_555
C30 C25 1_555 1_555
H32 C30 1_555 1_555
C31 C28 1_555 1_555
C32 O7 1_555 1_555
C33 C32 1_555 1_555
H33 C33 1_555 1_555
C34 C33 1_555 1_555
H34 C34 1_555 1_555
C35 C34 1_555 1_555
C36 C35 1_555 1_555
H35 C36 1_555 1_555
C37 C32 1_555 1_555
H36 C37 1_555 1_555
C38 O16 1_555 1_555
C39 O8 1_555 1_555
C40 C39 1_555 1_555
H37 C40 1_555 1_555
C41 C40 1_555 1_555
H38 C41 1_555 1_555
C42 C41 1_555 1_555
C43 C42 1_555 1_555
H39 C43 1_555 1_555
C44 C39 1_555 1_555
H40 C44 1_555 1_555
C45 C42 1_555 1_555
C46 O9 1_555 1_555
C47 C46 1_555 1_555
H41 C47 1_555 1_555
C48 C47 1_555 1_555
H42 C48 1_555 1_555
C49 C48 1_555 1_555
C50 C49 1_555 1_555
H43 C50 1_555 1_555
C51 C46 1_555 1_555
H44 C51 1_555 1_555
C52 C49 1_555 1_555
C53 H45 1_555 1_555
C54 N1 1_555 1_555
H46 C54 1_555 1_555
C55 N2 1_555 1_555
H47 C55 1_555 1_555
C56 N2 1_555 1_555
C57 C56 1_555 1_555
H48 C57 1_555 1_555
C58 C57 1_555 1_555
H49 C58 1_555 1_555
C59 C58 1_555 1_555
C60 C59 1_555 1_555
H50 C60 1_555 1_555
C61 C56 1_555 1_555
H51 C61 1_555 1_555
C62 N4 1_555 1_555
H52 C62 1_555 1_555
C63 N4 1_555 1_555
H53 C63 1_555 1_555
C64 N3 1_555 1_555
H54 C64 1_555 1_555
Mn1G O21 1_555 1_555
Mn1J O12 1_555 1_555
Mn1M N3 1_555 1_555
Mn2B O19 1_555 1_555
Mn2G O15 1_555 1_555
Mn2J O12 1_555 1_555
Mn3B O18 1_555 1_555
Mn3G O15 1_555 1_555
N3M Mn1 1_555 1_555
O12B Mn1 1_555 1_555
O13B Mn1 1_555 1_555
O15C Mn2 1_555 1_555
O18J Mn3 1_555 1_555
O19J Mn2 1_555 1_555
O20C Mn2 1_555 1_555
O21C Mn1 1_555 1_555
Mn2 O12B 1_555 1_555
Mn3 O17 1_555 1_555
Mn3 O15C 1_555 1_555
O13 Mn1J 1_555 1_555
O17 C38 1_555 1_555
O20 Mn2G 1_555 1_555
C6 C10 1_555 1_555
C14 C17 1_555 1_555
C15 C16 1_555 1_555
C22 C23 1_555 1_555
C29 C30 1_555 1_555
C35 C38 1_555 1_555
C36 C37 1_555 1_555
C43 C44 1_555 1_555
C50 C51 1_555 1_555
C54 C55 1_555 1_555
C60 C61 1_555 1_555
C63 C64 1_555 1_555

#END
