
#######################################################################
#
#                 Cambridge Crystallographic Data Centre
#                                CCDC 
#
#######################################################################
#
# If this CIF has been generated from an entry in the Cambridge 
# Structural Database, then it will include bibliographic, chemical, 
# crystal, experimental, refinement or atomic coordinate data resulting 
# from the CCDC's data processing and validation procedures.
#
#######################################################################

data_AFUKIW
_symmetry_cell_setting           monoclinic
_symmetry_space_group_name_H-M   'C c'
_symmetry_Int_Tables_number      9
_space_group_name_Hall           'C -2yc'
loop_
_symmetry_equiv_pos_site_id
_symmetry_equiv_pos_as_xyz
1 x,y,z
2 x,-y,1/2+z
3 1/2+x,1/2+y,z
4 1/2+x,1/2-y,1/2+z
_cell_length_a                   9.8656(2)
_cell_length_b                   17.2560(3)
_cell_length_c                   7.5810(3)
_cell_angle_alpha                90
_cell_angle_beta                 122.7650(10)
_cell_angle_gamma                90
_cell_volume                     1085.26
loop_
_atom_site_label
_atom_site_type_symbol
_atom_site_fract_x
_atom_site_fract_y
_atom_site_fract_z
C1 C 0.6607(6) 0.1621(3) 0.4106(9)
C2 C 0.6104(6) 0.0807(3) 0.3316(8)
C3 C 0.7137(6) 0.0190(3) 0.4375(7)
H1 H 0.8200 0.0276 0.5585
C4 C 0.6590(6) -0.0561(3) 0.3612(8)
C5 C 0.5096(6) -0.0644(3) 0.1772(8)
H2 H 0.4699 -0.1145 0.1159
C6 C 0.4171(7) 0.0018(3) 0.0784(8)
H3 H 0.3134 -0.0053 -0.0484
C7 C 0.7668(7) -0.1247(3) 0.4776(8)
N1 N 0.4650(5) 0.0730(3) 0.1552(7)
O1 O 0.5659(4) 0.2178(2) 0.3088(6)
O2 O 0.7984(7) 0.1741(2) 0.5735(7)
O3 O 0.6996(5) -0.18971(18) 0.4509(8)
O4 O 0.9145(5) -0.1120(3) 0.5953(7)
O5 O 0.3762(5) 0.2135(3) -0.1978(7)
H4 H 0.2887 0.2194 -0.3163
H5 H 0.4341 0.2533 -0.1751
O6 O 0.2141(6) 0.1766(3) 0.2532(8)
H6 H 0.2373 0.2225 0.3322
H7 H 0.1062 0.1601 0.2153
O7 O 0.0952(5) 0.1083(3) -0.1827(7)
H8 H 0.0733 0.0796 -0.3011
H9 H -0.0183 0.1138 -0.2601
Cd1 Cd 0.30630(5) 0.189190(15) 0.03559(5)
O1C O 0.0659(4) 0.2822(2) -0.1912(6)
O2C O 0.2984(7) 0.3259(2) 0.0735(7)
Cd1C Cd 0.80630(5) 0.310810(15) 0.53559(5)
O8 O 0.0696(5) 0.0385(3) 0.4902(7)
H10 H 0.0195 0.0606 0.3641
H11 H -0.0212 0.0402 0.4796
loop_
_geom_bond_atom_site_label_1
_geom_bond_atom_site_label_2
_geom_bond_site_symmetry_1
_geom_bond_site_symmetry_2
C1 C2 1_555 1_555
C2 C3 1_555 1_555
C3 H1 1_555 1_555
C4 C3 1_555 1_555
C5 C4 1_555 1_555
H2 C5 1_555 1_555
C6 C5 1_555 1_555
H3 C6 1_555 1_555
C7 C4 1_555 1_555
N1 C2 1_555 1_555
O1 C1 1_555 1_555
O2 C1 1_555 1_555
O3 C7 1_555 1_555
O4 C7 1_555 1_555
O5 H4 1_555 1_555
H5 O5 1_555 1_555
O6 H6 1_555 1_555
H7 O6 1_555 1_555
O7 H8 1_555 1_555
H9 O7 1_555 1_555
O8 H10 1_555 1_555
H11 O8 1_555 1_555
Cd1 N1 1_555 1_555
O1C Cd1 1_555 1_555
O2C Cd1 1_555 1_555
Cd1C O1 1_555 1_555
C6 N1 1_555 1_555
O1 Cd1 1_555 1_555
O2 Cd1C 1_555 1_555
O5 Cd1 1_555 1_555
O6 Cd1 1_555 1_555
O7 Cd1 1_555 1_555

#END
