
#######################################################################
#
#                 Cambridge Crystallographic Data Centre
#                                CCDC 
#
#######################################################################
#
# If this CIF has been generated from an entry in the Cambridge 
# Structural Database, then it will include bibliographic, chemical, 
# crystal, experimental, refinement or atomic coordinate data resulting 
# from the CCDC's data processing and validation procedures.
#
#######################################################################

data_AFUKOC
_symmetry_cell_setting           monoclinic
_symmetry_space_group_name_H-M   'C 2/c'
_symmetry_Int_Tables_number      15
_space_group_name_Hall           '-C 2yn'
loop_
_symmetry_equiv_pos_site_id
_symmetry_equiv_pos_as_xyz
1 x,y,z
2 1/2+x,1/2+y,z
3 -x,y,1/2-z
4 1/2-x,1/2+y,1/2-z
5 -x,-y,-z
6 1/2-x,1/2-y,-z
7 x,-y,1/2+z
8 1/2+x,1/2-y,1/2+z
_cell_length_a                   11.9331(5)
_cell_length_b                   11.3961(5)
_cell_length_c                   25.7940(12)
_cell_angle_alpha                90
_cell_angle_beta                 95.579(1)
_cell_angle_gamma                90
_cell_volume                     3491.13
loop_
_atom_site_label
_atom_site_type_symbol
_atom_site_fract_x
_atom_site_fract_y
_atom_site_fract_z
Cd1 Cd 0.638123(12) 0.180554(12) 0.335783(5)
Ni1 Ni 0.981650(19) 0.43733(2) 0.114360(9)
O1 O 0.71080(18) 0.2629(3) 0.40793(7)
O2 O 0.50294(14) 0.30748(14) 0.30875(6)
O3 O 0.78990(13) 0.23741(14) 0.29401(5)
O4 O 0.65883(12) 0.15081(13) 0.24122(5)
O5 O 0.85523(12) 0.48641(12) 0.15821(5)
O6 O 0.73301(13) 0.41862(13) 0.21127(6)
O7 O 0.50138(11) 0.11842(12) 0.39170(5)
O8 O 0.40819(18) 0.28632(16) 0.39647(7)
O9 O 0.59015(11) 0.13296(13) 0.56767(5)
O10 O 0.59533(16) 0.22729(19) 0.49250(6)
O11 O 1.10801(16) 0.45201(14) 0.17592(7)
N1 N 0.94012(13) 0.27758(14) 0.14494(6)
N2 N 0.37605(13) 0.07896(15) 0.54604(6)
C1 C 0.99022(18) 0.17546(18) 0.13779(9)
C2 C 0.9652(2) 0.07574(19) 0.16493(10)
C3 C 0.8874(2) 0.08235(19) 0.20087(9)
C4 C 0.83527(17) 0.18917(17) 0.20890(7)
C5 C 0.86359(15) 0.28551(17) 0.17979(7)
C6 C 0.75475(17) 0.19513(16) 0.25034(8)
C7 C 0.81025(16) 0.40525(17) 0.18476(7)
C8 C 0.26897(18) 0.0460(2) 0.53682(9)
C9 C 0.21012(19) 0.0569(3) 0.48815(10)
C10 C 0.2642(2) 0.1036(3) 0.44803(9)
C11 C 0.37535(17) 0.13875(18) 0.45705(7)
C12 C 0.42835(15) 0.12578(16) 0.50690(7)
C13 C 0.43355(18) 0.18699(18) 0.41217(8)
C14 C 0.54838(17) 0.16540(18) 0.52259(7)
H1 H 0.6753 0.2553 0.4334
H2 H 0.7708 0.2872 0.4175
H3 H 1.0414 0.1742 0.1123
H4 H 0.4604 0.3126 0.3326
H5 H 0.4506 0.2686 0.2878
H6 H 0.9999 0.0053 0.1603
H7 H 0.8686 0.0186 0.2191
H8 H 0.2347 0.0105 0.5637
H9 H 0.1367 0.0264 0.4839
H10 H 0.2287 0.1075 0.4124
H11 H 1.1235 0.5150 0.1927
H12 H 1.1445 0.3902 0.1885
Cd1C Cd 0.861877(12) 0.680554(12) 0.164217(5)
Ni1C Ni 0.518350(19) -0.06267(2) 0.385640(9)
Ni1G Ni 0.481650(19) 0.06267(2) 0.614360(9)
O5C O 0.64477(12) -0.01359(12) 0.34179(5)
O7C O 0.99862(11) 0.61842(12) 0.10830(5)
O9G O 1.09015(11) 0.36704(13) 0.06767(5)
N2G N 0.87605(13) 0.42104(15) 0.04604(6)
loop_
_geom_bond_atom_site_label_1
_geom_bond_atom_site_label_2
_geom_bond_site_symmetry_1
_geom_bond_site_symmetry_2
Cd1 O1 1_555 1_555
Ni1 O5 1_555 1_555
O1 H1 1_555 1_555
O2 Cd1 1_555 1_555
O3 Cd1 1_555 1_555
O4 Cd1 1_555 1_555
O5 C7 1_555 1_555
O6 C7 1_555 1_555
O7 Cd1 1_555 1_555
O8 C13 1_555 1_555
O9 C14 1_555 1_555
O10 C14 1_555 1_555
O11 Ni1 1_555 1_555
N1 Ni1 1_555 1_555
N2 C8 1_555 1_555
C1 N1 1_555 1_555
C2 C1 1_555 1_555
C3 C2 1_555 1_555
C4 C3 1_555 1_555
C5 N1 1_555 1_555
C6 O3 1_555 1_555
C7 C5 1_555 1_555
C8 C9 1_555 1_555
C9 C10 1_555 1_555
C10 C11 1_555 1_555
C11 C12 1_555 1_555
C12 N2 1_555 1_555
C13 O7 1_555 1_555
C14 C12 1_555 1_555
H2 O1 1_555 1_555
H3 C1 1_555 1_555
H4 O2 1_555 1_555
H5 O2 1_555 1_555
H6 C2 1_555 1_555
H7 C3 1_555 1_555
H8 C8 1_555 1_555
H9 C9 1_555 1_555
H10 C10 1_555 1_555
H11 O11 1_555 1_555
H12 O11 1_555 1_555
Cd1C O5 1_555 1_555
Ni1C O7 1_555 1_555
Ni1G O9 1_555 1_555
O5C Cd1 1_555 1_555
O7C Ni1 1_555 1_555
O9G Ni1 1_555 1_555
N2G Ni1 1_555 1_555
O4 C6 1_555 1_555
N2 Ni1G 1_555 1_555
C4 C5 1_555 1_555
C4 C6 1_555 1_555
C11 C13 1_555 1_555
Cd1C O7C 1_555 1_555
Ni1C O5C 1_555 1_555

#END
