
#######################################################################
#
#                 Cambridge Crystallographic Data Centre
#                                CCDC 
#
#######################################################################
#
# If this CIF has been generated from an entry in the Cambridge 
# Structural Database, then it will include bibliographic, chemical, 
# crystal, experimental, refinement or atomic coordinate data resulting 
# from the CCDC's data processing and validation procedures.
#
#######################################################################

data_AFULAP
_symmetry_cell_setting           hexagonal
_symmetry_space_group_name_H-M   'P 63'
_symmetry_Int_Tables_number      173
_space_group_name_Hall           'P 6c'
loop_
_symmetry_equiv_pos_site_id
_symmetry_equiv_pos_as_xyz
1 x,y,z
2 -x,-y,1/2+z
3 -y,x-y,z
4 -x+y,-x,z
5 x-y,x,1/2+z
6 y,-x+y,1/2+z
_cell_length_a                   9.417(2)
_cell_length_b                   9.417(2)
_cell_length_c                   16.8430(10)
_cell_angle_alpha                90
_cell_angle_beta                 90
_cell_angle_gamma                120
_cell_volume                     1293.53
loop_
_atom_site_label
_atom_site_type_symbol
_atom_site_fract_x
_atom_site_fract_y
_atom_site_fract_z
N1 N 0.6667 1.3333 1.1461(8)
C3 C 0.745(4) 1.336(6) 1.0693(14)
C4 C 0.6667 1.3333 0.991(2)
C5 C 0.764(4) 1.401(4) 0.9144(18)
C6 C 0.494(4) 1.218(4) 1.1851(15)
C7 C 0.436(4) 1.064(4) 1.195(2)
C8 C 0.253(5) 0.990(5) 1.201(4)
C9 C 0.430(5) 1.303(8) 1.208(3)
C3B C 0.664(6) 1.409(7) 1.0693(14)
C3C C 0.591(7) 1.255(4) 1.0693(14)
C5B C 0.599(4) 1.363(6) 0.9144(18)
C5C C 0.637(6) 1.236(4) 0.9144(18)
C6B C 0.782(4) 1.276(6) 1.1851(15)
C6C C 0.724(6) 1.506(4) 1.1851(15)
C7B C 0.936(4) 1.372(6) 1.195(2)
C7C C 0.628(6) 1.564(4) 1.195(2)
C8B C 1.010(5) 1.263(7) 1.201(4)
C8C C 0.737(7) 1.747(5) 1.201(4)
C9B C 0.697(8) 1.127(9) 1.208(3)
C9C C 0.873(9) 1.570(5) 1.208(3)
Cr1 Cr 0.3333 0.6667 0.96788(17)
Mn1 Mn 1.0000 1.0000 0.96607(14)
O1 O 0.5197(6) 0.6807(6) 0.9017(3)
O2 O 0.5202(6) 0.8371(7) 1.0324(3)
O3 O 0.7936(7) 0.9767(6) 1.0335(4)
O4 O 0.7943(7) 0.8176(6) 0.8994(3)
C1 C 0.6600(8) 0.7842(8) 0.9288(5)
C2 C 0.6627(8) 0.8759(8) 1.0049(4)
Mn1_2 Mn 0.0000 1.0000 0.96607(14)
Mn1_3 Mn 0.0000 0.0000 0.96607(14)
O1B O 0.3193(6) 0.8390(8) 0.9017(3)
O1C O 0.1610(8) 0.4803(6) 0.9017(3)
O2B O 0.1629(7) 0.6831(9) 1.0324(3)
O2C O 0.3169(9) 0.4798(6) 1.0324(3)
O3B O 0.0233(6) 0.8169(9) 1.0335(4)
O3C O 0.1831(9) 0.2064(7) 1.0335(4)
O3B_2 O 1.0233(6) 0.8169(9) 1.0335(4)
O3C_2 O 1.1831(9) 1.2064(7) 1.0335(4)
O4B O 0.1824(6) 0.9767(9) 0.8994(3)
O4C O 0.0233(9) 0.2057(7) 0.8994(3)
O4B_2 O 1.1824(6) 0.9767(9) 0.8994(3)
O4C_2 O 1.0233(9) 1.2057(7) 0.8994(3)
C1B C 0.2158(8) 0.8758(11) 0.9288(5)
C1C C 0.1242(11) 0.3400(8) 0.9288(5)
C2B C 0.1241(8) 0.7868(11) 1.0049(4)
C2C C 0.2132(11) 0.3373(8) 1.0049(4)
loop_
_geom_bond_atom_site_label_1
_geom_bond_atom_site_label_2
_geom_bond_site_symmetry_1
_geom_bond_site_symmetry_2
Cr1 O1 1_555 1_555
Mn1 O3 1_555 1_555
O1 C1 1_555 1_555
O2 Cr1 1_555 1_555
O3 C2 1_555 1_555
O4 Mn1 1_555 1_555
C1 O4 1_555 1_555
C2 O2 1_555 1_555
N1 C3 1_555 1_555
C3 C4 1_555 1_555
C4 C5 1_555 1_555
C5 C5B 1_555 1_555
C6 N1 1_555 1_555
C7 C6 1_555 1_555
C8 C7 1_555 1_555
C9 C6 1_555 1_555
Mn1_2 O3B 1_555 1_555
Mn1_3 O3C 1_555 1_555
O1B Cr1 1_555 1_555
O1C Cr1 1_555 1_555
O2B Cr1 1_555 1_555
O2C Cr1 1_555 1_555
O3B C2B 1_555 1_555
O3C C2C 1_555 1_555
O3B_2 Mn1 1_555 1_555
O3C_2 Mn1 1_555 1_555
O4B Mn1_2 1_555 1_555
O4C Mn1_3 1_555 1_555
O4B_2 Mn1 1_555 1_555
O4C_2 Mn1 1_555 1_555
C1B O1B 1_555 1_555
C1C O1C 1_555 1_555
C2B O2B 1_555 1_555
C2C O2C 1_555 1_555
C3B N1 1_555 1_555
C3C N1 1_555 1_555
C5B C4 1_555 1_555
C5C C4 1_555 1_555
C6B N1 1_555 1_555
C6C N1 1_555 1_555
C7B C6B 1_555 1_555
C7C C6C 1_555 1_555
C8B C7B 1_555 1_555
C8C C7C 1_555 1_555
C9B C6B 1_555 1_555
C9C C6C 1_555 1_555
C1 C2 1_555 1_555
C3 C3B 1_555 1_555
C3 C3C 1_555 1_555
C4 C3B 1_555 1_555
C4 C3C 1_555 1_555
C5 C5C 1_555 1_555
O4B C1B 1_555 1_555
O4C C1C 1_555 1_555
C1B C2B 1_555 1_555
C1C C2C 1_555 1_555
C3B C3C 1_555 1_555
C5B C5C 1_555 1_555

#END
