
#######################################################################
#
#                 Cambridge Crystallographic Data Centre
#                                CCDC 
#
#######################################################################
#
# If this CIF has been generated from an entry in the Cambridge 
# Structural Database, then it will include bibliographic, chemical, 
# crystal, experimental, refinement or atomic coordinate data resulting 
# from the CCDC's data processing and validation procedures.
#
#######################################################################

data_AFUMCO04
_symmetry_cell_setting           monoclinic
_symmetry_space_group_name_H-M   'C 2/c'
_symmetry_Int_Tables_number      15
_space_group_name_Hall           '-C 2yn'
loop_
_symmetry_equiv_pos_site_id
_symmetry_equiv_pos_as_xyz
1 x,y,z
2 1/2+x,1/2+y,z
3 -x,y,1/2-z
4 1/2-x,1/2+y,1/2-z
5 -x,-y,-z
6 1/2-x,1/2-y,-z
7 x,-y,1/2+z
8 1/2+x,1/2-y,1/2+z
_cell_length_a                   5.2561(11)
_cell_length_b                   13.145(2)
_cell_length_c                   13.321(3)
_cell_angle_alpha                90
_cell_angle_beta                 95.188(16)
_cell_angle_gamma                90
_cell_volume                     916.597
loop_
_atom_site_label
_atom_site_type_symbol
_atom_site_fract_x
_atom_site_fract_y
_atom_site_fract_z
Co1 Co 0.5000 0.521354(11) 0.2500
O1 O 0.66720(12) 0.41061(5) 0.34838(5)
O2 O 0.38818(12) 0.37949(5) 0.46236(5)
O3 O 0.79528(13) 0.52833(5) 0.15710(5)
O4 O 0.29066(12) 0.63086(5) 0.15840(5)
C1 C 0.59750(15) 0.36517(6) 0.42601(6)
C2 C 0.78514(15) 0.28956(6) 0.47320(6)
H1 H 0.957(3) 0.3007(11) 0.4652(10)
H2 H 0.931(3) 0.5574(13) 0.1571(13)
H3 H 0.789(4) 0.4818(14) 0.1186(16)
H4 H 0.328(3) 0.6854(14) 0.1814(13)
H5 H 0.344(3) 0.6293(14) 0.1005(14)
Co1E Co 1.0000 -0.021354(11) 0.7500
O1E O 0.83280(12) 0.08939(5) 0.65162(5)
O1B O 0.33280(12) 0.41061(5) 0.15162(5)
O2E O 1.11182(12) 0.12051(5) 0.53764(5)
O3B O 0.20472(13) 0.52833(5) 0.34290(5)
O4B O 0.70934(12) 0.63086(5) 0.34160(5)
C1E C 0.90250(15) 0.13483(6) 0.57399(6)
C2E C 0.71486(15) 0.21044(6) 0.52680(6)
H1E H 0.543(3) 0.1993(11) 0.5348(10)
H2B H 0.069(3) 0.5574(13) 0.3429(13)
H3B H 0.211(4) 0.4818(14) 0.3814(16)
H4B H 0.672(3) 0.6854(14) 0.3186(13)
H5B H 0.656(3) 0.6293(14) 0.3995(14)
O5 O 1.0000 0.29869(7) 0.2500
H6 H 0.918(3) 0.3344(12) 0.2784(12)
H6B H 1.082(3) 0.3344(12) 0.2216(12)
loop_
_geom_bond_atom_site_label_1
_geom_bond_atom_site_label_2
_geom_bond_site_symmetry_1
_geom_bond_site_symmetry_2
Co1 O1 1_555 1_555
O1 C1 1_555 1_555
O2 C1 1_555 1_555
O3 Co1 1_555 1_555
O4 Co1 1_555 1_555
O5 H6 1_555 1_555
C1 C2 1_555 1_555
C2 H1 1_555 1_555
H2 O3 1_555 1_555
H3 O3 1_555 1_555
H4 O4 1_555 1_555
H5 O4 1_555 1_555
Co1E O1E 1_555 1_555
O1E C1E 1_555 1_555
O1B Co1 1_555 1_555
O2E C1E 1_555 1_555
O3B Co1 1_555 1_555
O4B Co1 1_555 1_555
C1E C2E 1_555 1_555
C2E C2 1_555 1_555
H1E C2E 1_555 1_555
H2B O3B 1_555 1_555
H3B O3B 1_555 1_555
H4B O4B 1_555 1_555
H5B O4B 1_555 1_555
H6B O5 1_555 1_555

#END
