
#######################################################################
#
#                 Cambridge Crystallographic Data Centre
#                                CCDC 
#
#######################################################################
#
# If this CIF has been generated from an entry in the Cambridge 
# Structural Database, then it will include bibliographic, chemical, 
# crystal, experimental, refinement or atomic coordinate data resulting 
# from the CCDC's data processing and validation procedures.
#
#######################################################################

data_AFUMCO01
_symmetry_cell_setting           monoclinic
_symmetry_space_group_name_H-M   'C 2'
_symmetry_Int_Tables_number      5
_space_group_name_Hall           'C 2y'
loop_
_symmetry_equiv_pos_site_id
_symmetry_equiv_pos_as_xyz
1 x,y,z
2 -x,y,-z
3 1/2+x,1/2+y,z
4 1/2-x,1/2+y,-z
_cell_length_a                   5.283(2)
_cell_length_b                   13.193(2)
_cell_length_c                   13.335(2)
_cell_angle_alpha                90.00
_cell_angle_beta                 95.28(1)
_cell_angle_gamma                90.00
_cell_volume                     925.487
loop_
_atom_site_label
_atom_site_type_symbol
_atom_site_fract_x
_atom_site_fract_y
_atom_site_fract_z
Co1 Co 0.0000 1.0000 0.0000
Co2 Co 0.5000 0.46298(3) 0.5000
O1 O 0.7035(4) 0.3521(2) 0.58960(14)
O2 O 0.2068(4) 1.1089(2) 0.09285(15)
C1 C 0.4047(3) 0.6187(2) 0.32464(12)
O3 O 0.3313(3) 0.57355(15) 0.40139(10)
O4 O 0.6070(3) 0.6001(2) 0.28716(12)
C2 C 0.1005(3) 0.8470(2) 0.17640(13)
O5 O 0.1641(3) 0.8902(2) 0.09709(11)
O6 O -0.1082(3) 0.8583(2) 0.21140(12)
O7 O -0.2955(4) 1.0068(2) 0.09107(15)
O8 O 0.2042(5) 0.4571(2) 0.5929(2)
C3 C 0.2128(6) 0.6901(2) 0.2757(2)
C4 C 0.2805(6) 0.7682(3) 0.2222(2)
H1 H 0.0416(80) 0.6806(34) 0.2810(32)
H2 H 0.4570(92) 0.7803(37) 0.2097(36)
H5 H -0.454(10) 1.0306(42) 0.0863(40)
H6 H 0.062(11) 0.4319(43) 0.5885(39)
H7 H 0.1535(95) 1.1787(40) 0.0638(37)
H8 H 0.166(11) 1.1072(44) 0.1588(43)
H9 H 0.705(13) 0.2992(53) 0.5735(51)
H10 H -0.278(12) 0.9543(44) 0.1255(48)
H11 H 0.218(12) 0.5006(43) 0.6409(48)
H12 H 0.656(11) 0.3502(44) 0.6492(46)
O2A O -0.2068(4) 1.1089(2) -0.09285(15)
H7A H -0.1535(95) 1.1787(40) -0.0638(37)
H8A H -0.166(11) 1.1072(44) -0.1588(43)
O1A O 0.2965(4) 0.3521(2) 0.41040(14)
H9A H 0.295(13) 0.2992(53) 0.4265(51)
H12A H 0.344(11) 0.3502(44) 0.3508(46)
O3A O 0.6687(3) 0.57355(15) 0.59861(10)
O8A O 0.7958(5) 0.4571(2) 0.4071(2)
H6A H 0.938(11) 0.4319(43) 0.4115(39)
H11A H 0.782(12) 0.5006(43) 0.3591(48)
O5A O -0.1641(3) 0.8902(2) -0.09709(11)
C2A C -0.1005(3) 0.8470(2) -0.17640(13)
O6A O 0.1082(3) 0.8583(2) -0.21140(12)
C4A C -0.2805(6) 0.7682(3) -0.2222(2)
C3A C -0.2128(6) 0.6901(2) -0.2757(2)
C1A C -0.4047(3) 0.6187(2) -0.32464(12)
O3A_2 O -0.3313(3) 0.57355(15) -0.40139(10)
Co2A Co -0.5000 0.46298(3) -0.5000
O4A O -0.6070(3) 0.6001(2) -0.28716(12)
H1A H -0.0416(80) 0.6806(34) -0.2810(32)
H2A H -0.4570(92) 0.7803(37) -0.2097(36)
O7A O 0.2955(4) 1.0068(2) -0.09107(15)
H5A H 0.454(10) 1.0306(42) -0.0863(40)
H10A H 0.278(12) 0.9543(44) -0.1255(48)
O9 O 0.0000 1.2778(2) 0.0000
H4 H 0.0917(99) 1.3144(47) -0.0338(37)
H4A H -0.0917(99) 1.3144(47) 0.0338(37)
O10 O 0.5000 0.1846(3) 0.5000
H3 H 0.5880(90) 0.1478(39) 0.4704(35)
H3A H 0.4120(90) 0.1478(39) 0.5296(35)
loop_
_geom_bond_atom_site_label_1
_geom_bond_atom_site_label_2
_geom_bond_site_symmetry_1
_geom_bond_site_symmetry_2
Co1 O2 1_555 1_555
Co2 O1 1_555 1_555
O1 H9 1_555 1_555
O2 H7 1_555 1_555
C1 O3 1_555 1_555
O3 Co2 1_555 1_555
O4 C1 1_555 1_555
C2 O5 1_555 1_555
O5 Co1 1_555 1_555
O6 C2 1_555 1_555
O7 Co1 1_555 1_555
O8 Co2 1_555 1_555
C3 C1 1_555 1_555
C4 C2 1_555 1_555
O9 H4 1_555 1_555
O10 H3 1_555 1_555
H1 C3 1_555 1_555
H2 C4 1_555 1_555
H5 O7 1_555 1_555
H6 O8 1_555 1_555
H8 O2 1_555 1_555
H10 O7 1_555 1_555
H11 O8 1_555 1_555
H12 O1 1_555 1_555
O2A Co1 1_555 1_555
H7A O2A 1_555 1_555
H8A O2A 1_555 1_555
O1A Co2 1_555 1_555
H9A O1A 1_555 1_555
H12A O1A 1_555 1_555
O3A Co2 1_555 1_555
O8A Co2 1_555 1_555
H6A O8A 1_555 1_555
H11A O8A 1_555 1_555
O5A Co1 1_555 1_555
C2A O5A 1_555 1_555
O6A C2A 1_555 1_555
C4A C2A 1_555 1_555
C3A C4A 1_555 1_555
C1A C3A 1_555 1_555
O3A_2 C1A 1_555 1_555
Co2A O3A_2 1_555 1_555
O4A C1A 1_555 1_555
H1A C3A 1_555 1_555
H2A C4A 1_555 1_555
O7A Co1 1_555 1_555
H5A O7A 1_555 1_555
H10A O7A 1_555 1_555
H4A O9 1_555 1_555
H3A O10 1_555 1_555
C3 C4 1_555 1_555

#END
