
#######################################################################
#
#                 Cambridge Crystallographic Data Centre
#                                CCDC 
#
#######################################################################
#
# If this CIF has been generated from an entry in the Cambridge 
# Structural Database, then it will include bibliographic, chemical, 
# crystal, experimental, refinement or atomic coordinate data resulting 
# from the CCDC's data processing and validation procedures.
#
#######################################################################

data_AFUMOE
_symmetry_cell_setting           orthorhombic
_symmetry_space_group_name_H-M   'F d d d'
_symmetry_Int_Tables_number      70
_space_group_name_Hall           '-F 2uv 2vw'
loop_
_symmetry_equiv_pos_site_id
_symmetry_equiv_pos_as_xyz
1 x,y,z
2 x,1/2+y,1/2+z
3 x,1/4-y,1/4-z
4 1/2+x,y,1/2+z
5 1/4-x,y,1/4-z
6 1/2+x,1/2+y,z
7 1/4-x,1/4-y,z
8 3/4-x,3/4-y,z
9 3/4-x,y,3/4-z
10 x,3/4-y,3/4-z
11 3/4-x,1/4-y,1/2+z
12 3/4-x,1/2+y,1/4-z
13 1/4-x,3/4-y,1/2+z
14 1/2+x,3/4-y,1/4-z
15 1/4-x,1/2+y,3/4-z
16 1/2+x,1/4-y,3/4-z
17 -x,-y,-z
18 -x,1/2-y,1/2-z
19 -x,3/4+y,3/4+z
20 1/2-x,-y,1/2-z
21 3/4+x,-y,3/4+z
22 1/2-x,1/2-y,-z
23 3/4+x,3/4+y,-z
24 1/4+x,1/4+y,-z
25 1/4+x,-y,1/4+z
26 -x,1/4+y,1/4+z
27 1/4+x,3/4+y,1/2-z
28 1/4+x,1/2-y,3/4+z
29 3/4+x,1/4+y,1/2-z
30 1/2-x,1/4+y,3/4+z
31 3/4+x,1/2-y,1/4+z
32 1/2-x,3/4+y,1/4+z
_cell_length_a                   24.8250(3)
_cell_length_b                   35.3401(6)
_cell_length_c                   35.3642(5)
_cell_angle_alpha                90
_cell_angle_beta                 90
_cell_angle_gamma                90
_cell_volume                     31025.6
loop_
_atom_site_label
_atom_site_type_symbol
_atom_site_fract_x
_atom_site_fract_y
_atom_site_fract_z
Dy1 Dy 0.438586(16) 0.718956(11) 0.028826(10)
Ni1 Ni 0.3750 0.8750 0.02021(4)
Ni2 Ni 0.6250 0.6250 0.00350(3)
N1 N 0.3209(3) 0.85502(19) 0.06110(18)
N2 N 0.3922(3) 0.81955(19) 0.02008(18)
N3 N 0.4357(3) 0.8731(2) -0.02110(19)
N4 N 0.5837(2) 0.59336(16) 0.04487(15)
N5 N 0.5551(2) 0.65382(15) 0.00635(15)
N6 N 0.6371(3) 0.66667(16) -0.03773(15)
N7 N 0.5186(3) 0.7605(2) 0.0773(2)
N8 N 0.3801(4) 0.6889(3) 0.0926(3)
C1 C 0.2850(4) 0.8740(3) 0.0810(3)
H1 H 0.2826 0.9000 0.0775
C2 C 0.2505(4) 0.8571(3) 0.1069(3)
H2 H 0.2257 0.8715 0.1203
C3 C 0.2539(4) 0.8188(3) 0.1121(3)
H3 H 0.2321 0.8067 0.1297
C4 C 0.2898(4) 0.7988(3) 0.0911(3)
H4 H 0.2915 0.7727 0.0935
C5 C 0.3236(3) 0.8170(2) 0.0664(2)
C6 C 0.3646(3) 0.7969(2) 0.0435(2)
C7 C 0.4323(4) 0.8074(3) -0.0018(2)
C8 C 0.4565(3) 0.8377(3) -0.0264(2)
C9 C 0.4989(4) 0.8314(3) -0.0505(3)
H5 H 0.5138 0.8074 -0.0531
C10 C 0.5186(4) 0.8616(4) -0.0707(3)
H6 H 0.5469 0.8579 -0.0875
C11 C 0.4971(4) 0.8972(3) -0.0664(3)
H7 H 0.5105 0.9177 -0.0798
C12 C 0.4550(4) 0.9012(3) -0.0415(3)
H8 H 0.4393 0.9250 -0.0390
C13 C 0.5993(3) 0.5623(2) 0.0629(2)
H9 H 0.6328 0.5522 0.0568
C14 C 0.5694(4) 0.5444(3) 0.0896(3)
H10 H 0.5815 0.5222 0.1009
C15 C 0.5204(4) 0.5602(3) 0.0995(3)
H11 H 0.4990 0.5489 0.1179
C16 C 0.5039(3) 0.5928(3) 0.0819(2)
H12 H 0.4714 0.6042 0.0886
C17 C 0.5363(3) 0.6084(2) 0.05400(19)
C18 C 0.5198(3) 0.6438(2) 0.0338(2)
C19 C 0.5487(3) 0.6853(2) -0.01520(19)
C20 C 0.5958(3) 0.6913(2) -0.04134(19)
C21 C 0.5962(4) 0.7212(3) -0.0661(2)
H13 H 0.5675 0.7381 -0.0673
C22 C 0.6414(5) 0.7255(3) -0.0893(3)
H14 H 0.6433 0.7451 -0.1068
C23 C 0.6830(5) 0.7001(3) -0.0857(3)
H15 H 0.7138 0.7026 -0.1004
C24 C 0.6784(4) 0.6710(2) -0.0602(2)
H16 H 0.7063 0.6535 -0.0588
O1 O 0.3696(2) 0.76204(16) 0.04766(17)
O2 O 0.4504(3) 0.77436(16) -0.00566(15)
O3 O 0.4781(2) 0.66038(14) 0.04318(14)
O4 O 0.5114(2) 0.70794(16) -0.01424(14)
O5 O 0.4750(3) 0.77662(17) 0.07309(18)
O6 O 0.5251(2) 0.73062(17) 0.05997(17)
O7 O 0.5513(3) 0.7729(2) 0.0974(2)
O8 O 0.4215(2) 0.70849(16) 0.09551(15)
O9 O 0.3672(2) 0.68117(18) 0.0581(2)
O10 O 0.3544(4) 0.6785(3) 0.1176(3)
N9 N 0.3958(9) 0.6901(6) -0.0386(6)
O11 O 0.3860(8) 0.7228(5) -0.0292(5)
O12 O 0.4256(12) 0.6662(8) -0.0251(9)
O13 O 0.3767(8) 0.6832(6) -0.0712(5)
Dy1G Dy 0.311414(16) 1.031044(11) 0.028826(10)
Ni2E Ni 0.1250 1.1250 0.00350(3)
N1G N 0.4291(3) 0.89498(19) 0.06110(18)
N2G N 0.3578(3) 0.93045(19) 0.02008(18)
N3G N 0.3143(3) 0.8769(2) -0.02110(19)
N4G N 0.1663(2) 1.15664(16) 0.04487(15)
N4F N 0.6663(2) 0.65664(16) 0.04487(15)
N5G N 0.1949(2) 1.09618(15) 0.00635(15)
N5F N 0.6949(2) 0.59618(15) 0.00635(15)
N6G N 0.1129(3) 1.08333(16) -0.03773(15)
N6F N 0.6129(3) 0.58333(16) -0.03773(15)
N7G N 0.2314(3) 0.9895(2) 0.0773(2)
N8G N 0.3699(4) 1.0611(3) 0.0926(3)
C1G C 0.4650(4) 0.8760(3) 0.0810(3)
H1G H 0.4674 0.8500 0.0775
C2G C 0.4995(4) 0.8929(3) 0.1069(3)
H2G H 0.5243 0.8785 0.1203
C3G C 0.4961(4) 0.9312(3) 0.1121(3)
H3G H 0.5179 0.9433 0.1297
C4G C 0.4602(4) 0.9512(3) 0.0911(3)
H4G H 0.4585 0.9773 0.0935
C5G C 0.4264(3) 0.9330(2) 0.0664(2)
C6G C 0.3854(3) 0.9531(2) 0.0435(2)
C7G C 0.3177(4) 0.9426(3) -0.0018(2)
C8G C 0.2935(3) 0.9123(3) -0.0264(2)
C9G C 0.2511(4) 0.9186(3) -0.0505(3)
H5G H 0.2362 0.9426 -0.0531
C10G C 0.2314(4) 0.8884(4) -0.0707(3)
H6G H 0.2031 0.8921 -0.0875
C11G C 0.2529(4) 0.8528(3) -0.0664(3)
H7G H 0.2395 0.8323 -0.0798
C12G C 0.2950(4) 0.8488(3) -0.0415(3)
H8G H 0.3107 0.8250 -0.0390
C13G C 0.1507(3) 1.1877(2) 0.0629(2)
H9G H 0.1172 1.1978 0.0568
C14G C 0.1806(4) 1.2056(3) 0.0896(3)
H10G H 0.1685 1.2278 0.1009
C15G C 0.2296(4) 1.1898(3) 0.0995(3)
H11G H 0.2510 1.2011 0.1179
C16G C 0.2461(3) 1.1572(3) 0.0819(2)
H12G H 0.2786 1.1458 0.0886
C17G C 0.2137(3) 1.1416(2) 0.05400(19)
C18G C 0.2302(3) 1.1062(2) 0.0338(2)
C19G C 0.2013(3) 1.0647(2) -0.01520(19)
C20G C 0.1542(3) 1.0587(2) -0.04134(19)
C21G C 0.1538(4) 1.0288(3) -0.0661(2)
H13G H 0.1825 1.0119 -0.0673
C22G C 0.1086(5) 1.0245(3) -0.0893(3)
H14G H 0.1067 1.0049 -0.1068
C23G C 0.0670(5) 1.0499(3) -0.0857(3)
H15G H 0.0362 1.0474 -0.1004
C24G C 0.0716(4) 1.0790(2) -0.0602(2)
H16G H 0.0437 1.0965 -0.0588
O1G O 0.3804(2) 0.98796(16) 0.04766(17)
O2G O 0.2996(3) 0.97564(16) -0.00566(15)
O3G O 0.2719(2) 1.08962(14) 0.04318(14)
O4G O 0.2386(2) 1.04206(16) -0.01424(14)
O5G O 0.2750(3) 0.97338(17) 0.07309(18)
O6G O 0.2249(2) 1.01938(17) 0.05997(17)
O7G O 0.1987(3) 0.9771(2) 0.0974(2)
O8G O 0.3285(2) 1.04151(16) 0.09551(15)
O9G O 0.3828(2) 1.06883(18) 0.0581(2)
O10G O 0.3956(4) 1.0715(3) 0.1176(3)
N9G N 0.3542(9) 1.0599(6) -0.0386(6)
O11G O 0.3640(8) 1.0272(5) -0.0292(5)
O12G O 0.3244(12) 1.0838(8) -0.0251(9)
O13G O 0.3733(8) 1.0668(6) -0.0712(5)
O17 O 0.3750 0.9215(5) 0.8750
O18 O 0.7989(6) 0.7084(5) 0.9950(4)
O19 O 0.3770(8) 0.7569(5) 0.9059(5)
O20 O 0.1989(7) 0.7259(5) 0.1257(5)
O21 O 0.5990(5) 0.7920(4) 0.0125(4)
O22 O 0.5859(5) 0.4269(4) 0.0723(4)
O25 O 0.8614(11) 0.6793(8) 0.0343(7)
O27 O 0.2398(11) 0.7356(7) 0.0190(6)
N10? N 0.3606(10) 0.6836(6) -0.0202(8)
O14? O 0.3520(9) 0.7165(6) -0.0106(6)
O15? O 0.4056(8) 0.6701(4) -0.0151(4)
O16? O 0.3280(11) 0.6677(8) -0.0419(8)
O23? O 0.5805(12) 0.4187(9) 0.0244(8)
O24? O 0.5835(9) 0.8326(7) 0.0240(5)
O26? O 0.3750 0.7907(17) 0.8750
loop_
_geom_bond_atom_site_label_1
_geom_bond_atom_site_label_2
_geom_bond_site_symmetry_1
_geom_bond_site_symmetry_2
Dy1 O1 1_555 1_555
Ni1 N1 1_555 1_555
Ni2 N4 1_555 1_555
N1 C1 1_555 1_555
N2 Ni1 1_555 1_555
N3 Ni1 1_555 1_555
N4 C13 1_555 1_555
N5 Ni2 1_555 1_555
N6 Ni2 1_555 1_555
N7 O5 1_555 1_555
N8 O8 1_555 1_555
C1 H1 1_555 1_555
C2 C1 1_555 1_555
H2 C2 1_555 1_555
C3 C2 1_555 1_555
H3 C3 1_555 1_555
C4 C3 1_555 1_555
H4 C4 1_555 1_555
C5 N1 1_555 1_555
C6 N2 1_555 1_555
C7 N2 1_555 1_555
C8 N3 1_555 1_555
C9 C8 1_555 1_555
H5 C9 1_555 1_555
C10 C9 1_555 1_555
H6 C10 1_555 1_555
C11 C10 1_555 1_555
H7 C11 1_555 1_555
C12 N3 1_555 1_555
H8 C12 1_555 1_555
C13 H9 1_555 1_555
C14 C13 1_555 1_555
H10 C14 1_555 1_555
C15 C14 1_555 1_555
H11 C15 1_555 1_555
C16 C15 1_555 1_555
H12 C16 1_555 1_555
C17 N4 1_555 1_555
C18 N5 1_555 1_555
C19 N5 1_555 1_555
C20 N6 1_555 1_555
C21 C20 1_555 1_555
H13 C21 1_555 1_555
C22 C21 1_555 1_555
H14 C22 1_555 1_555
C23 C22 1_555 1_555
H15 C23 1_555 1_555
C24 N6 1_555 1_555
H16 C24 1_555 1_555
O1 C6 1_555 1_555
O2 Dy1 1_555 1_555
O3 Dy1 1_555 1_555
O4 Dy1 1_555 1_555
O5 Dy1 1_555 1_555
O6 Dy1 1_555 1_555
O7 N7 1_555 1_555
O8 Dy1 1_555 1_555
O9 Dy1 1_555 1_555
O10 N8 1_555 1_555
N9 O11 1_555 1_555
O11 Dy1 1_555 1_555
O12 Dy1 1_555 1_555
O13 N9 1_555 1_555
Dy1G O1G 1_555 1_555
Ni2E N4G 1_555 1_555
N1G Ni1 1_555 1_555
N2G Ni1 1_555 1_555
N3G Ni1 1_555 1_555
N4G C13G 1_555 1_555
N4F Ni2 1_555 1_555
N5G Ni2E 1_555 1_555
N5F Ni2 1_555 1_555
N6G Ni2E 1_555 1_555
N6F Ni2 1_555 1_555
N7G O5G 1_555 1_555
N8G O8G 1_555 1_555
C1G N1G 1_555 1_555
H1G C1G 1_555 1_555
C2G C1G 1_555 1_555
H2G C2G 1_555 1_555
C3G C2G 1_555 1_555
H3G C3G 1_555 1_555
C4G C3G 1_555 1_555
H4G C4G 1_555 1_555
C5G N1G 1_555 1_555
C6G N2G 1_555 1_555
C7G N2G 1_555 1_555
C8G N3G 1_555 1_555
C9G C8G 1_555 1_555
H5G C9G 1_555 1_555
C10G C9G 1_555 1_555
H6G C10G 1_555 1_555
C11G C10G 1_555 1_555
H7G C11G 1_555 1_555
C12G N3G 1_555 1_555
H8G C12G 1_555 1_555
C13G H9G 1_555 1_555
C14G C13G 1_555 1_555
H10G C14G 1_555 1_555
C15G C14G 1_555 1_555
H11G C15G 1_555 1_555
C16G C15G 1_555 1_555
H12G C16G 1_555 1_555
C17G N4G 1_555 1_555
C18G N5G 1_555 1_555
C19G N5G 1_555 1_555
C20G N6G 1_555 1_555
C21G C20G 1_555 1_555
H13G C21G 1_555 1_555
C22G C21G 1_555 1_555
H14G C22G 1_555 1_555
C23G C22G 1_555 1_555
H15G C23G 1_555 1_555
C24G N6G 1_555 1_555
H16G C24G 1_555 1_555
O1G C6G 1_555 1_555
O2G Dy1G 1_555 1_555
O3G Dy1G 1_555 1_555
O4G Dy1G 1_555 1_555
O5G Dy1G 1_555 1_555
O6G Dy1G 1_555 1_555
O7G N7G 1_555 1_555
O8G Dy1G 1_555 1_555
O9G Dy1G 1_555 1_555
O10G N8G 1_555 1_555
N9G O11G 1_555 1_555
O11G Dy1G 1_555 1_555
O12G Dy1G 1_555 1_555
O13G N9G 1_555 1_555
N7 O6 1_555 1_555
N8 O9 1_555 1_555
C4 C5 1_555 1_555
C5 C6 1_555 1_555
C7 C8 1_555 1_555
C7 O2 1_555 1_555
C11 C12 1_555 1_555
C16 C17 1_555 1_555
C17 C18 1_555 1_555
C18 O3 1_555 1_555
C19 C20 1_555 1_555
C19 O4 1_555 1_555
C23 C24 1_555 1_555
N9 O12 1_555 1_555
N7G O6G 1_555 1_555
N8G O9G 1_555 1_555
C4G C5G 1_555 1_555
C5G C6G 1_555 1_555
C7G C8G 1_555 1_555
C7G O2G 1_555 1_555
C11G C12G 1_555 1_555
C16G C17G 1_555 1_555
C17G C18G 1_555 1_555
C18G O3G 1_555 1_555
C19G C20G 1_555 1_555
C19G O4G 1_555 1_555
C23G C24G 1_555 1_555
N9G O12G 1_555 1_555

#END
