
#######################################################################
#
#                 Cambridge Crystallographic Data Centre
#                                CCDC 
#
#######################################################################
#
# If this CIF has been generated from an entry in the Cambridge 
# Structural Database, then it will include bibliographic, chemical, 
# crystal, experimental, refinement or atomic coordinate data resulting 
# from the CCDC's data processing and validation procedures.
#
#######################################################################

data_AFUMCO02
_symmetry_cell_setting           monoclinic
_symmetry_space_group_name_H-M   'C 2/c'
_symmetry_Int_Tables_number      15
_space_group_name_Hall           '-C 2yn'
loop_
_symmetry_equiv_pos_site_id
_symmetry_equiv_pos_as_xyz
1 x,y,z
2 -x,y,1/2-z
3 1/2+x,1/2+y,z
4 1/2-x,1/2+y,1/2-z
5 -x,-y,-z
6 x,-y,1/2+z
7 1/2-x,1/2-y,-z
8 1/2+x,1/2-y,1/2+z
_cell_length_a                   5.283
_cell_length_b                   13.193
_cell_length_c                   13.335
_cell_angle_alpha                90
_cell_angle_beta                 95.28
_cell_angle_gamma                90
_cell_volume                     925.487
loop_
_atom_site_label
_atom_site_type_symbol
_atom_site_fract_x
_atom_site_fract_y
_atom_site_fract_z
Co1 Co 0.5000 -0.01851 0.7500
O1 O 0.7052 -0.1284 0.8412
C1 C 0.4021 0.1358 0.5741
O2 O 0.3336 0.0917 0.6522
O3 O 0.6076 0.1209 0.5379
O4 O 0.2044 -0.0248 0.8420
C2 C 0.2162 0.2110 0.5268
C2F C 0.2838 0.2890 0.4732
C1F C 0.0979 0.3642 0.4259
O2F O 0.1664 0.4083 0.3478
O3F O -0.1076 0.3791 0.4621
O1A O 0.2948 -0.1284 0.6588
O4A O 0.7956 -0.0248 0.6580
O2A O 0.6664 0.0917 0.8478
Co1F Co 0.0000 0.51851 0.2500
O5 O 0.5000 -0.2966 0.7500
loop_
_geom_bond_atom_site_label_1
_geom_bond_atom_site_label_2
_geom_bond_site_symmetry_1
_geom_bond_site_symmetry_2
Co1 O1 1_555 1_555
C1 O2 1_555 1_555
O2 Co1 1_555 1_555
O3 C1 1_555 1_555
O4 Co1 1_555 1_555
C2 C1 1_555 1_555
C2F C2 1_555 1_555
C1F C2F 1_555 1_555
O2F C1F 1_555 1_555
O3F C1F 1_555 1_555
O1A Co1 1_555 1_555
O4A Co1 1_555 1_555
O2A Co1 1_555 1_555
Co1F O2F 1_555 1_555

#END
