
#######################################################################
#
#                 Cambridge Crystallographic Data Centre
#                                CCDC 
#
#######################################################################
#
# If this CIF has been generated from an entry in the Cambridge 
# Structural Database, then it will include bibliographic, chemical, 
# crystal, experimental, refinement or atomic coordinate data resulting 
# from the CCDC's data processing and validation procedures.
#
#######################################################################

data_AFUMUK
_symmetry_cell_setting           orthorhombic
_symmetry_space_group_name_H-M   'F d d d'
_symmetry_Int_Tables_number      70
_space_group_name_Hall           '-F 2uv 2vw'
loop_
_symmetry_equiv_pos_site_id
_symmetry_equiv_pos_as_xyz
1 x,y,z
2 x,1/2+y,1/2+z
3 x,1/4-y,1/4-z
4 1/2+x,y,1/2+z
5 1/4-x,y,1/4-z
6 1/2+x,1/2+y,z
7 1/4-x,1/4-y,z
8 3/4-x,3/4-y,z
9 3/4-x,y,3/4-z
10 x,3/4-y,3/4-z
11 3/4-x,1/4-y,1/2+z
12 3/4-x,1/2+y,1/4-z
13 1/4-x,3/4-y,1/2+z
14 1/2+x,3/4-y,1/4-z
15 1/4-x,1/2+y,3/4-z
16 1/2+x,1/4-y,3/4-z
17 -x,-y,-z
18 -x,1/2-y,1/2-z
19 -x,3/4+y,3/4+z
20 1/2-x,-y,1/2-z
21 3/4+x,-y,3/4+z
22 1/2-x,1/2-y,-z
23 3/4+x,3/4+y,-z
24 1/4+x,1/4+y,-z
25 1/4+x,-y,1/4+z
26 -x,1/4+y,1/4+z
27 1/4+x,3/4+y,1/2-z
28 1/4+x,1/2-y,3/4+z
29 3/4+x,1/4+y,1/2-z
30 1/2-x,1/4+y,3/4+z
31 3/4+x,1/2-y,1/4+z
32 1/2-x,3/4+y,1/4+z
_cell_length_a                   24.7681(4)
_cell_length_b                   35.3106(7)
_cell_length_c                   35.4599(7)
_cell_angle_alpha                90
_cell_angle_beta                 90
_cell_angle_gamma                90
_cell_volume                     31012.4
loop_
_atom_site_label
_atom_site_type_symbol
_atom_site_fract_x
_atom_site_fract_y
_atom_site_fract_z
Ho1 Ho 0.939412(17) 0.219461(11) 0.028791(11)
Ni1 Ni 0.8750 0.3750 0.01933(4)
Ni2 Ni 1.1250 0.1250 0.00334(3)
N1 N 0.8206(3) 0.3548(2) 0.06012(19)
N2 N 0.8928(3) 0.3197(2) 0.01941(19)
N3 N 0.9358(3) 0.3731(2) -0.02151(19)
N4 N 1.0834(3) 0.09355(17) 0.04473(15)
N5 N 1.0550(3) 0.15389(17) 0.00595(15)
N6 N 1.1373(3) 0.16693(18) -0.03779(15)
N7 N 1.0192(4) 0.2606(3) 0.0769(2)
N8 N 0.8802(4) 0.1890(3) 0.0928(3)
C1 C 0.7855(4) 0.3737(3) 0.0802(3)
H1 H 0.7838 0.3997 0.0768
C2 C 0.7513(4) 0.3577(3) 0.1056(3)
H2 H 0.7268 0.3726 0.1189
C3 C 0.7536(5) 0.3198(3) 0.1113(3)
H3 H 0.7312 0.3084 0.1291
C4 C 0.7901(4) 0.2977(3) 0.0902(3)
H4 H 0.7919 0.2715 0.0929
C5 C 0.8230(3) 0.3169(3) 0.0653(2)
C6 C 0.8654(3) 0.2969(3) 0.0427(2)
C7 C 0.9324(4) 0.3079(3) -0.0023(2)
C8 C 0.9568(4) 0.3383(3) -0.0272(2)
C9 C 0.9992(4) 0.3319(3) -0.0512(3)
H5 H 1.0140 0.3078 -0.0537
C10 C 1.0192(4) 0.3617(4) -0.0712(3)
H6 H 1.0476 0.3581 -0.0880
C11 C 0.9976(4) 0.3962(3) -0.0666(3)
H7 H 1.0109 0.4169 -0.0799
C12 C 0.9553(4) 0.4003(3) -0.0415(3)
H8 H 0.9400 0.4242 -0.0389
C13 C 1.0989(3) 0.0621(2) 0.0621(2)
H9 H 1.1320 0.0514 0.0556
C14 C 1.0690(5) 0.0448(3) 0.0889(3)
H10 H 1.0808 0.0224 0.1000
C15 C 1.0207(5) 0.0608(3) 0.0995(3)
H11 H 0.9999 0.0498 0.1184
C16 C 1.0034(4) 0.0937(3) 0.0817(2)
H12 H 0.9710 0.1051 0.0885
C17 C 1.0355(3) 0.1089(2) 0.0538(2)
C18 C 1.0198(4) 0.1438(2) 0.0329(2)
C19 C 1.0486(4) 0.1855(2) -0.0151(2)
C20 C 1.0961(3) 0.1912(2) -0.04120(19)
C21 C 1.0957(4) 0.2212(3) -0.0660(2)
H13 H 1.0670 0.2382 -0.0672
C22 C 1.1408(6) 0.2245(3) -0.0889(3)
H14 H 1.1424 0.2441 -0.1063
C23 C 1.1831(5) 0.1995(3) -0.0865(3)
H15 H 1.2134 0.2017 -0.1018
C24 C 1.1784(4) 0.1712(3) -0.0604(2)
H16 H 1.2064 0.1538 -0.0587
O1 O 0.8703(2) 0.26208(17) 0.04673(17)
O2 O 0.9513(3) 0.27463(16) -0.00611(14)
O3 O 0.9775(2) 0.16034(15) 0.04249(15)
O4 O 1.0117(2) 0.20845(17) -0.01419(14)
O5 O 0.9757(3) 0.27701(18) 0.07257(18)
O6 O 1.0253(2) 0.23024(19) 0.06004(18)
O7 O 1.0521(3) 0.2729(2) 0.0978(2)
O8 O 0.9222(3) 0.20923(17) 0.09512(16)
O9 O 0.8678(3) 0.18186(18) 0.0573(2)
O10 O 0.8549(4) 0.1797(3) 0.1180(2)
N9 N 0.9100(13) 0.1882(7) -0.0443(5)
O11 O 0.8867(8) 0.2150(5) -0.0285(5)
O12 O 0.9088(7) 0.1688(5) -0.0152(5)
O13 O 0.8782(9) 0.1800(6) -0.0700(6)
Ho1G Ho 0.810588(17) 0.530539(11) 0.028791(11)
Ni2E Ni 0.6250 0.6250 0.00334(3)
N1G N 0.9294(3) 0.3952(2) 0.06012(19)
N2G N 0.8572(3) 0.4303(2) 0.01941(19)
N3G N 0.8142(3) 0.3769(2) -0.02151(19)
N4G N 0.6666(3) 0.65645(17) 0.04473(15)
N4F N 1.1666(3) 0.15645(17) 0.04473(15)
N5G N 0.6950(3) 0.59611(17) 0.00595(15)
N5F N 1.1950(3) 0.09611(17) 0.00595(15)
N6G N 0.6127(3) 0.58307(18) -0.03779(15)
N6F N 1.1127(3) 0.08307(18) -0.03779(15)
N7G N 0.7308(4) 0.4894(3) 0.0769(2)
N8G N 0.8698(4) 0.5610(3) 0.0928(3)
C1G C 0.9645(4) 0.3763(3) 0.0802(3)
H1G H 0.9662 0.3503 0.0768
C2G C 0.9987(4) 0.3923(3) 0.1056(3)
H2G H 1.0232 0.3774 0.1189
C3G C 0.9964(5) 0.4302(3) 0.1113(3)
H3G H 1.0188 0.4416 0.1291
C4G C 0.9599(4) 0.4523(3) 0.0902(3)
H4G H 0.9581 0.4785 0.0929
C5G C 0.9270(3) 0.4331(3) 0.0653(2)
C6G C 0.8846(3) 0.4531(3) 0.0427(2)
C7G C 0.8176(4) 0.4421(3) -0.0023(2)
C8G C 0.7932(4) 0.4117(3) -0.0272(2)
C9G C 0.7508(4) 0.4181(3) -0.0512(3)
H5G H 0.7360 0.4422 -0.0537
C10G C 0.7308(4) 0.3883(4) -0.0712(3)
H6G H 0.7024 0.3919 -0.0880
C11G C 0.7524(4) 0.3538(3) -0.0666(3)
H7G H 0.7391 0.3331 -0.0799
C12G C 0.7947(4) 0.3497(3) -0.0415(3)
H8G H 0.8100 0.3258 -0.0389
C13G C 0.6511(3) 0.6879(2) 0.0621(2)
H9G H 0.6180 0.6986 0.0556
C14G C 0.6810(5) 0.7052(3) 0.0889(3)
H10G H 0.6692 0.7276 0.1000
C15G C 0.7293(5) 0.6892(3) 0.0995(3)
H11G H 0.7501 0.7002 0.1184
C16G C 0.7466(4) 0.6563(3) 0.0817(2)
H12G H 0.7790 0.6449 0.0885
C17G C 0.7145(3) 0.6411(2) 0.0538(2)
C18G C 0.7302(4) 0.6062(2) 0.0329(2)
C19G C 0.7014(4) 0.5645(2) -0.0151(2)
C20G C 0.6539(3) 0.5588(2) -0.04120(19)
C21G C 0.6543(4) 0.5288(3) -0.0660(2)
H13G H 0.6830 0.5118 -0.0672
C22G C 0.6092(6) 0.5255(3) -0.0889(3)
H14G H 0.6076 0.5059 -0.1063
C23G C 0.5669(5) 0.5505(3) -0.0865(3)
H15G H 0.5366 0.5483 -0.1018
C24G C 0.5716(4) 0.5788(3) -0.0604(2)
H16G H 0.5436 0.5962 -0.0587
O1G O 0.8797(2) 0.48792(17) 0.04673(17)
O2G O 0.7987(3) 0.47537(16) -0.00611(14)
O3G O 0.7725(2) 0.58966(15) 0.04249(15)
O4G O 0.7383(2) 0.54155(17) -0.01419(14)
O5G O 0.7743(3) 0.47299(18) 0.07257(18)
O6G O 0.7247(2) 0.51976(19) 0.06004(18)
O7G O 0.6979(3) 0.4771(2) 0.0978(2)
O8G O 0.8278(3) 0.54077(17) 0.09512(16)
O9G O 0.8822(3) 0.56814(18) 0.0573(2)
O10G O 0.8951(4) 0.5703(3) 0.1180(2)
N9G N 0.8400(13) 0.5618(7) -0.0443(5)
O11G O 0.8633(8) 0.5350(5) -0.0285(5)
O12G O 0.8412(7) 0.5812(5) -0.0152(5)
O13G O 0.8718(9) 0.5700(6) -0.0700(6)
O17 O 0.6250 0.1731(4) 0.1250
O18 O 0.0855(6) 0.9286(5) 0.0725(4)
O19 O 0.1010(6) 0.2891(4) 0.0125(4)
O20 O 0.2046(6) 0.2883(4) 0.0050(4)
O21 O 0.8812(9) 0.2669(5) 0.9002(4)
O22 O 0.9882(11) 0.4854(7) 0.9804(5)
O23 O 0.9483(8) 0.2748(5) 0.8769(5)
O24 O 0.1388(11) 0.3220(8) 0.9660(7)
O27 O 0.0651(14) 0.8834(13) 0.0489(11)
N10? N 0.8664(12) 0.1846(8) -0.0199(8)
O14? O 0.8535(13) 0.2172(8) -0.0113(7)
O15? O 0.9131(11) 0.1838(10) -0.0318(9)
O16? O 0.8272(13) 0.1687(9) -0.0353(9)
O25? O 0.0814(12) 0.9267(9) 0.0167(8)
O26? O 0.0861(9) 0.3312(7) 0.0226(5)
loop_
_geom_bond_atom_site_label_1
_geom_bond_atom_site_label_2
_geom_bond_site_symmetry_1
_geom_bond_site_symmetry_2
Ho1 O1 1_555 1_555
Ni1 N1 1_555 1_555
Ni2 N4 1_555 1_555
N1 C1 1_555 1_555
N2 Ni1 1_555 1_555
N3 Ni1 1_555 1_555
N4 C13 1_555 1_555
N5 Ni2 1_555 1_555
N6 Ni2 1_555 1_555
N7 O5 1_555 1_555
N8 O8 1_555 1_555
C1 H1 1_555 1_555
C2 C1 1_555 1_555
H2 C2 1_555 1_555
C3 C2 1_555 1_555
H3 C3 1_555 1_555
C4 C3 1_555 1_555
H4 C4 1_555 1_555
C5 N1 1_555 1_555
C6 N2 1_555 1_555
C7 N2 1_555 1_555
C8 N3 1_555 1_555
C9 C8 1_555 1_555
H5 C9 1_555 1_555
C10 C9 1_555 1_555
H6 C10 1_555 1_555
C11 C10 1_555 1_555
H7 C11 1_555 1_555
C12 N3 1_555 1_555
H8 C12 1_555 1_555
C13 H9 1_555 1_555
C14 C13 1_555 1_555
H10 C14 1_555 1_555
C15 C14 1_555 1_555
H11 C15 1_555 1_555
C16 C15 1_555 1_555
H12 C16 1_555 1_555
C17 N4 1_555 1_555
C18 N5 1_555 1_555
C19 N5 1_555 1_555
C20 N6 1_555 1_555
C21 C20 1_555 1_555
H13 C21 1_555 1_555
C22 C21 1_555 1_555
H14 C22 1_555 1_555
C23 C22 1_555 1_555
H15 C23 1_555 1_555
C24 N6 1_555 1_555
H16 C24 1_555 1_555
O1 C6 1_555 1_555
O2 Ho1 1_555 1_555
O3 Ho1 1_555 1_555
O4 Ho1 1_555 1_555
O5 Ho1 1_555 1_555
O6 Ho1 1_555 1_555
O7 N7 1_555 1_555
O8 Ho1 1_555 1_555
O9 Ho1 1_555 1_555
O10 N8 1_555 1_555
N9 O11 1_555 1_555
O11 Ho1 1_555 1_555
O12 Ho1 1_555 1_555
O13 N9 1_555 1_555
Ho1G O1G 1_555 1_555
Ni2E N4G 1_555 1_555
N1G Ni1 1_555 1_555
N2G Ni1 1_555 1_555
N3G Ni1 1_555 1_555
N4G C13G 1_555 1_555
N4F Ni2 1_555 1_555
N5G Ni2E 1_555 1_555
N5F Ni2 1_555 1_555
N6G Ni2E 1_555 1_555
N6F Ni2 1_555 1_555
N7G O5G 1_555 1_555
N8G O8G 1_555 1_555
C1G N1G 1_555 1_555
H1G C1G 1_555 1_555
C2G C1G 1_555 1_555
H2G C2G 1_555 1_555
C3G C2G 1_555 1_555
H3G C3G 1_555 1_555
C4G C3G 1_555 1_555
H4G C4G 1_555 1_555
C5G N1G 1_555 1_555
C6G N2G 1_555 1_555
C7G N2G 1_555 1_555
C8G N3G 1_555 1_555
C9G C8G 1_555 1_555
H5G C9G 1_555 1_555
C10G C9G 1_555 1_555
H6G C10G 1_555 1_555
C11G C10G 1_555 1_555
H7G C11G 1_555 1_555
C12G N3G 1_555 1_555
H8G C12G 1_555 1_555
C13G H9G 1_555 1_555
C14G C13G 1_555 1_555
H10G C14G 1_555 1_555
C15G C14G 1_555 1_555
H11G C15G 1_555 1_555
C16G C15G 1_555 1_555
H12G C16G 1_555 1_555
C17G N4G 1_555 1_555
C18G N5G 1_555 1_555
C19G N5G 1_555 1_555
C20G N6G 1_555 1_555
C21G C20G 1_555 1_555
H13G C21G 1_555 1_555
C22G C21G 1_555 1_555
H14G C22G 1_555 1_555
C23G C22G 1_555 1_555
H15G C23G 1_555 1_555
C24G N6G 1_555 1_555
H16G C24G 1_555 1_555
O1G C6G 1_555 1_555
O2G Ho1G 1_555 1_555
O3G Ho1G 1_555 1_555
O4G Ho1G 1_555 1_555
O5G Ho1G 1_555 1_555
O6G Ho1G 1_555 1_555
O7G N7G 1_555 1_555
O8G Ho1G 1_555 1_555
O9G Ho1G 1_555 1_555
O10G N8G 1_555 1_555
N9G O11G 1_555 1_555
O11G Ho1G 1_555 1_555
O12G Ho1G 1_555 1_555
O13G N9G 1_555 1_555
N7 O6 1_555 1_555
N8 O9 1_555 1_555
C4 C5 1_555 1_555
C5 C6 1_555 1_555
C7 C8 1_555 1_555
C7 O2 1_555 1_555
C11 C12 1_555 1_555
C16 C17 1_555 1_555
C17 C18 1_555 1_555
C18 O3 1_555 1_555
C19 C20 1_555 1_555
C19 O4 1_555 1_555
C23 C24 1_555 1_555
N9 O12 1_555 1_555
N7G O6G 1_555 1_555
N8G O9G 1_555 1_555
C4G C5G 1_555 1_555
C5G C6G 1_555 1_555
C7G C8G 1_555 1_555
C7G O2G 1_555 1_555
C11G C12G 1_555 1_555
C16G C17G 1_555 1_555
C17G C18G 1_555 1_555
C18G O3G 1_555 1_555
C19G C20G 1_555 1_555
C19G O4G 1_555 1_555
C23G C24G 1_555 1_555
N9G O12G 1_555 1_555

#END
