
#######################################################################
#
#                 Cambridge Crystallographic Data Centre
#                                CCDC 
#
#######################################################################
#
# If this CIF has been generated from an entry in the Cambridge 
# Structural Database, then it will include bibliographic, chemical, 
# crystal, experimental, refinement or atomic coordinate data resulting 
# from the CCDC's data processing and validation procedures.
#
#######################################################################

data_AFUPEX
_symmetry_cell_setting           monoclinic
_symmetry_space_group_name_H-M   'P 21/n'
_symmetry_Int_Tables_number      14
_space_group_name_Hall           '-P 2yn'
loop_
_symmetry_equiv_pos_site_id
_symmetry_equiv_pos_as_xyz
1 x,y,z
2 1/2-x,1/2+y,1/2-z
3 -x,-y,-z
4 1/2+x,1/2-y,1/2+z
_cell_length_a                   10.801(2)
_cell_length_b                   15.550(3)
_cell_length_c                   10.906(2)
_cell_angle_alpha                90
_cell_angle_beta                 100.401(4)
_cell_angle_gamma                90
_cell_volume                     1801.62
loop_
_atom_site_label
_atom_site_type_symbol
_atom_site_fract_x
_atom_site_fract_y
_atom_site_fract_z
Tm1 Tm 0.64359(3) 0.10208(2) 0.39789(3)
O1 O 0.6702(5) -0.0105(4) 0.5238(5)
O2 O 0.5619(5) -0.0627(4) 0.6635(5)
O3 O 0.7563(6) -0.3020(4) 0.9454(5)
O4 O 0.9506(6) -0.3384(4) 0.9400(5)
O5 O 1.1359(5) -0.0637(4) 0.5900(5)
O6 O 1.2125(5) -0.1696(4) 0.7116(5)
O7 O 0.6445(6) 0.0131(4) 0.2282(6)
O8 O 0.5459(6) 0.2240(4) 0.3001(6)
C1 C 0.6592(8) -0.0563(5) 0.6135(7)
C2 C 0.7717(7) -0.1087(5) 0.6747(7)
C3 C 0.7598(8) -0.1734(5) 0.7576(7)
H1 H 0.6814 -0.1856 0.7774
C4 C 0.8648(8) -0.2209(5) 0.8122(7)
C5 C 0.9818(8) -0.2021(5) 0.7817(7)
H2 H 1.0519 -0.2335 0.8187
C6 C 0.9959(7) -0.1379(5) 0.6978(7)
C7 C 0.8904(7) -0.0896(5) 0.6450(7)
H3 H 0.8985 -0.0450 0.5904
C8 C 0.8562(9) -0.2921(6) 0.9029(8)
C9 C 1.1221(8) -0.1222(5) 0.6646(7)
C10 C 0.5870(10) -0.0520(7) 0.1861(9)
C11 C 0.6812(11) -0.0412(8) 0.0011(9)
H4 H 0.7215 0.0076 0.0455
H5 H 0.6332 -0.0226 -0.0772
H6 H 0.7440 -0.0817 -0.0136
C12 C 0.5302(13) -0.1563(7) 0.0225(11)
H7 H 0.4828 -0.1790 0.0816
H8 H 0.5883 -0.1991 0.0041
H9 H 0.4738 -0.1408 -0.0527
C13 C 0.6078(15) 0.3408(8) 0.1483(11)
H10 H 0.6848 0.3182 0.1290
H11 H 0.6067 0.4022 0.1386
H12 H 0.5376 0.3162 0.0927
C14 C 0.4645(14) 0.3805(8) 0.3139(14)
H13 H 0.4419 0.3735 0.3945
H14 H 0.3949 0.3638 0.2505
H15 H 0.4851 0.4396 0.3022
S1 S 0.5974(3) 0.31457(17) 0.3035(3)
N1 N 0.5986(9) -0.0814(5) 0.0741(8)
Tm1B Tm 0.35641(3) -0.10208(2) 0.60211(3)
Tm1A Tm 0.85641(3) -0.39792(2) 1.10211(3)
Tm1B_2 Tm 1.35641(3) -0.10208(2) 0.60211(3)
O2B O 0.4381(5) 0.0627(4) 0.3365(5)
O3A O 0.7437(6) 0.1980(4) 0.5546(5)
O4A O 0.5494(6) 0.1616(4) 0.5600(5)
O5B O 0.8641(5) 0.0637(4) 0.4100(5)
O6B O 0.7875(5) 0.1696(4) 0.2884(5)
loop_
_geom_bond_atom_site_label_1
_geom_bond_atom_site_label_2
_geom_bond_site_symmetry_1
_geom_bond_site_symmetry_2
Tm1 O1 1_555 1_555
O1 C1 1_555 1_555
O2 C1 1_555 1_555
O3 C8 1_555 1_555
O4 C8 1_555 1_555
O5 C9 1_555 1_555
O6 C9 1_555 1_555
O7 Tm1 1_555 1_555
O8 Tm1 1_555 1_555
C1 C2 1_555 1_555
C2 C3 1_555 1_555
C3 H1 1_555 1_555
C4 C3 1_555 1_555
C5 C4 1_555 1_555
H2 C5 1_555 1_555
C6 C5 1_555 1_555
C7 C2 1_555 1_555
H3 C7 1_555 1_555
C8 C4 1_555 1_555
C9 C6 1_555 1_555
C10 O7 1_555 1_555
C11 H4 1_555 1_555
H5 C11 1_555 1_555
H6 C11 1_555 1_555
C12 H7 1_555 1_555
H8 C12 1_555 1_555
H9 C12 1_555 1_555
C13 H10 1_555 1_555
H11 C13 1_555 1_555
H12 C13 1_555 1_555
C14 H13 1_555 1_555
H14 C14 1_555 1_555
H15 C14 1_555 1_555
S1 O8 1_555 1_555
N1 C10 1_555 1_555
Tm1B O2 1_555 1_555
Tm1A O3 1_555 1_555
Tm1B_2 O5 1_555 1_555
O2B Tm1 1_555 1_555
O3A Tm1 1_555 1_555
O4A Tm1 1_555 1_555
O5B Tm1 1_555 1_555
O6B Tm1 1_555 1_555
O4 Tm1A 1_555 1_555
O6 Tm1B_2 1_555 1_555
C6 C7 1_555 1_555
C11 N1 1_555 1_555
C12 N1 1_555 1_555
C13 S1 1_555 1_555
C14 S1 1_555 1_555

#END
