
#######################################################################
#
#                 Cambridge Crystallographic Data Centre
#                                CCDC 
#
#######################################################################
#
# If this CIF has been generated from an entry in the Cambridge 
# Structural Database, then it will include bibliographic, chemical, 
# crystal, experimental, refinement or atomic coordinate data resulting 
# from the CCDC's data processing and validation procedures.
#
#######################################################################

data_AFUQID
_symmetry_cell_setting           monoclinic
_symmetry_space_group_name_H-M   'P 21/c'
_symmetry_Int_Tables_number      14
_space_group_name_Hall           '-P 2ybc'
loop_
_symmetry_equiv_pos_site_id
_symmetry_equiv_pos_as_xyz
1 x,y,z
2 -x,1/2+y,1/2-z
3 -x,-y,-z
4 x,1/2-y,1/2+z
_cell_length_a                   8.784(2)
_cell_length_b                   18.551(4)
_cell_length_c                   9.195(2)
_cell_angle_alpha                90
_cell_angle_beta                 90.70(3)
_cell_angle_gamma                90
_cell_volume                     1498.23
loop_
_atom_site_label
_atom_site_type_symbol
_atom_site_fract_x
_atom_site_fract_y
_atom_site_fract_z
Ag1 Ag 0.68914(2) 0.518350(10) 0.16959(2)
O1 O 0.6981(2) 0.43383(10) -0.0151(2)
O2 O 0.49428(18) 0.55092(10) 0.3355(2)
O3 O 0.2721(2) 0.64390(10) 0.3252(3)
O4 O -0.0852(2) 0.46912(11) 0.3204(2)
O5 O 0.1206(2) 0.36677(10) 0.3468(2)
O6 O 0.4081(2) 0.33294(10) 0.3308(2)
O7 O 0.5781(2) 0.41601(11) 0.3380(3)
O8 O 0.59699(19) 0.87943(10) 0.5161(2)
O9 O 0.40503(19) 0.77524(10) 0.4454(2)
O10 O 0.7861(2) 0.62851(10) 0.3053(2)
O11 O 0.99467(19) 0.72206(10) 0.3830(2)
O12 O 1.0495(2) 0.83839(10) 0.5427(3)
O13 O 0.8913(2) 0.92310(9) 0.4915(2)
N1 N 0.0902(2) 0.55773(12) 0.3224(2)
H1 H 0.0200 0.5900 0.3174
N2 N 0.4426(2) 0.39746(11) 0.3354(2)
N3 N 0.5921(2) 0.70207(10) 0.3659(2)
H2 H 0.5263 0.6718 0.3324
N4 N 0.9224(2) 0.85893(11) 0.5015(2)
C1 C 0.3262(2) 0.45034(14) 0.3364(2)
C2 C 0.3668(3) 0.52426(12) 0.3337(2)
C3 C 0.2389(3) 0.58051(13) 0.3276(3)
C4 C 0.0468(3) 0.48715(13) 0.3246(3)
C5 C 0.1700(3) 0.42790(13) 0.3368(2)
C6 C 0.8114(2) 0.80583(12) 0.4653(2)
C7 C 0.6544(2) 0.82305(12) 0.4741(2)
C8 C 0.5389(3) 0.76440(13) 0.4277(2)
C9 C 0.7427(3) 0.68490(12) 0.3543(2)
C10 C 0.8630(3) 0.74009(12) 0.4048(2)
H3 H 0.768(3) 0.4067(17) -0.019(5)
H4 H 0.624(3) 0.4089(17) -0.015(5)
Ag1_2 Ag -0.31086(2) 0.518350(10) 0.16959(2)
Ag1C Ag 0.68914(2) 0.981650(10) 0.66959(2)
O4_2 O 0.9148(2) 0.46912(11) 0.3204(2)
O8C O 0.59699(19) 0.62057(10) 0.0161(2)
O13C O 0.8913(2) 0.57690(9) -0.0085(2)
N5 N 1.1853(2) 0.79954(14) 0.1619(3)
H5 H 1.109(3) 0.8260(14) 0.166(4)
H6 H 1.263(3) 0.8246(14) 0.176(4)
H7 H 1.182(4) 0.7675(14) 0.225(3)
H8 H 1.190(4) 0.7813(16) 0.080(2)
loop_
_geom_bond_atom_site_label_1
_geom_bond_atom_site_label_2
_geom_bond_site_symmetry_1
_geom_bond_site_symmetry_2
Ag1 O1 1_555 1_555
O1 H3 1_555 1_555
O2 Ag1 1_555 1_555
O3 C3 1_555 1_555
O4 C4 1_555 1_555
O5 C5 1_555 1_555
O6 N2 1_555 1_555
O7 Ag1 1_555 1_555
O8 C7 1_555 1_555
O9 C8 1_555 1_555
O10 Ag1 1_555 1_555
O11 C10 1_555 1_555
O12 N4 1_555 1_555
O13 N4 1_555 1_555
N1 H1 1_555 1_555
N2 O7 1_555 1_555
N3 H2 1_555 1_555
N4 C6 1_555 1_555
C1 N2 1_555 1_555
C2 O2 1_555 1_555
C3 N1 1_555 1_555
C4 N1 1_555 1_555
C5 C1 1_555 1_555
C6 C7 1_555 1_555
C7 C8 1_555 1_555
C8 N3 1_555 1_555
C9 O10 1_555 1_555
C10 C6 1_555 1_555
H4 O1 1_555 1_555
N5 H5 1_555 1_555
H6 N5 1_555 1_555
H7 N5 1_555 1_555
H8 N5 1_555 1_555
Ag1_2 O4 1_555 1_555
Ag1C O8 1_555 1_555
O4_2 Ag1 1_555 1_555
O8C Ag1 1_555 1_555
O13C Ag1 1_555 1_555
O13 Ag1C 1_555 1_555
N3 C9 1_555 1_555
C1 C2 1_555 1_555
C2 C3 1_555 1_555
C4 C5 1_555 1_555
C9 C10 1_555 1_555

#END
