
#######################################################################
#
#                 Cambridge Crystallographic Data Centre
#                                CCDC 
#
#######################################################################
#
# If this CIF has been generated from an entry in the Cambridge 
# Structural Database, then it will include bibliographic, chemical, 
# crystal, experimental, refinement or atomic coordinate data resulting 
# from the CCDC's data processing and validation procedures.
#
#######################################################################

data_AFUQIB
_symmetry_cell_setting           triclinic
_symmetry_space_group_name_H-M   'P -1'
_symmetry_Int_Tables_number      2
_space_group_name_Hall           '-P 1'
loop_
_symmetry_equiv_pos_site_id
_symmetry_equiv_pos_as_xyz
1 x,y,z
2 -x,-y,-z
_cell_length_a                   9.009(4)
_cell_length_b                   9.289(3)
_cell_length_c                   11.171(6)
_cell_angle_alpha                99.11(4)
_cell_angle_beta                 106.64(4)
_cell_angle_gamma                92.39(3)
_cell_volume                     880.643
loop_
_atom_site_label
_atom_site_type_symbol
_atom_site_fract_x
_atom_site_fract_y
_atom_site_fract_z
Cu1 Cu 0.58844(4) 0.88776(4) 0.70282(3)
O1 O 0.4034(2) 0.9937(2) 0.69257(18)
O2 O 0.3712(2) 0.8448(2) 0.51176(19)
O3 O 0.4810(2) 0.7077(2) 0.74281(18)
O4 O 0.6471(2) 0.8310(2) 0.91647(19)
N1 N 0.7429(3) 0.7659(2) 0.6589(2)
N2 N 0.7433(2) 1.0623(2) 0.7691(2)
N3 N 0.9546(3) 0.9154(3) 0.8053(2)
C1 C 0.6892(4) 0.6389(4) 0.5753(4)
C2 C 0.7804(5) 0.5305(4) 0.5571(4)
C3 C 0.9367(5) 0.5504(4) 0.6294(4)
C4 C 0.9939(4) 0.6780(3) 0.7111(4)
C5 C 0.8943(3) 0.7872(3) 0.7237(3)
C6 C 0.8935(3) 1.0484(3) 0.8213(2)
C7 C 0.9972(3) 1.1676(3) 0.8939(3)
C8 C 0.9437(4) 1.3023(4) 0.9058(4)
C9 C 0.7895(5) 1.3181(4) 0.8493(4)
C10 C 0.6929(4) 1.1967(3) 0.7826(3)
C11 C 0.3198(3) 0.9323(3) 0.5808(3)
C12 C 0.1541(3) 0.9685(3) 0.5393(2)
C13 C 0.0478(3) 0.8786(3) 0.4392(3)
C14 C 0.1054(3) 1.0917(3) 0.6004(3)
C15 C 0.5511(3) 0.7239(3) 0.8600(3)
C16 C 0.5222(3) 0.6086(3) 0.9319(2)
C17 C 0.5959(4) 0.6262(3) 1.0620(3)
C18 C 0.4259(3) 0.4816(3) 0.8709(3)
H1 H 1.042(4) 0.919(3) 0.837(3)
H2 H 0.585(4) 0.631(4) 0.532(4)
H3 H 0.748(4) 0.447(4) 0.510(3)
H4 H 0.999(4) 0.473(4) 0.623(3)
H5 H 1.091(4) 0.687(4) 0.764(3)
H6 H 1.091(4) 1.154(3) 0.929(3)
H7 H 1.019(4) 1.379(4) 0.953(4)
H8 H 0.751(5) 1.395(5) 0.847(4)
H9 H 0.573(4) 1.206(4) 0.747(3)
H10 H 0.077(3) 0.802(3) 0.398(3)
H11 H 0.173(4) 1.153(4) 0.662(3)
H12 H 0.658(3) 0.711(3) 1.101(3)
H13 H 0.375(4) 0.473(3) 0.777(3)
C14A C -0.1054(3) 0.9083(3) 0.3996(3)
C12A C -0.1541(3) 1.0315(3) 0.4607(2)
C11A C -0.3198(3) 1.0677(3) 0.4192(3)
O1A O -0.4034(2) 1.0063(2) 0.30743(18)
O2A O -0.3712(2) 1.1552(2) 0.48824(19)
C13A C -0.0478(3) 1.1214(3) 0.5608(3)
H10A H -0.077(3) 1.198(3) 0.602(3)
H11A H -0.173(4) 0.847(4) 0.338(3)
C18A C 0.5741(3) 0.5184(3) 1.1291(3)
C16A C 0.4778(3) 0.3914(3) 1.0681(2)
C15A C 0.4489(3) 0.2761(3) 1.1400(3)
O3A O 0.5190(2) 0.2923(2) 1.25719(18)
O4A O 0.3529(2) 0.1690(2) 1.08353(19)
C17A C 0.4041(4) 0.3738(3) 0.9380(3)
H12A H 0.342(3) 0.289(3) 0.899(3)
H13A H 0.625(4) 0.527(3) 1.223(3)
Cu1A Cu -0.58844(4) 1.11224(4) 0.29718(3)
N1A N -0.7429(3) 1.2341(2) 0.3411(2)
N2A N -0.7433(2) 0.9377(2) 0.2309(2)
N3A N -0.9546(3) 1.0846(3) 0.1947(2)
C1A C -0.6892(4) 1.3611(4) 0.4247(4)
C2A C -0.7804(5) 1.4695(4) 0.4429(4)
C3A C -0.9367(5) 1.4496(4) 0.3706(4)
C4A C -0.9939(4) 1.3220(3) 0.2889(4)
C5A C -0.8943(3) 1.2128(3) 0.2763(3)
C6A C -0.8935(3) 0.9516(3) 0.1787(2)
C7A C -0.9972(3) 0.8324(3) 0.1061(3)
C8A C -0.9437(4) 0.6977(4) 0.0942(4)
C9A C -0.7895(5) 0.6819(4) 0.1507(4)
C10A C -0.6929(4) 0.8033(3) 0.2174(3)
H1A H -1.042(4) 1.081(3) 0.163(3)
H2A H -0.585(4) 1.369(4) 0.468(4)
H3A H -0.748(4) 1.553(4) 0.490(3)
H4A H -0.999(4) 1.527(4) 0.377(3)
H5A H -1.091(4) 1.313(4) 0.236(3)
H6A H -1.091(4) 0.846(3) 0.071(3)
H7A H -1.019(4) 0.621(4) 0.047(4)
H8A H -0.751(5) 0.605(5) 0.153(4)
H9A H -0.573(4) 0.794(4) 0.253(3)
Cu1A_2 Cu 0.41156(4) 0.11224(4) 1.29718(3)
O3A_2 O -0.4810(2) 1.2923(2) 0.25719(18)
O4A_2 O -0.6471(2) 1.1690(2) 0.08353(19)
O5 O 1.2808(3) 0.9267(3) 0.8948(3)
H14 H 1.32661 0.98780 0.96187
H15 H 1.32149 0.94222 0.83759
loop_
_geom_bond_atom_site_label_1
_geom_bond_atom_site_label_2
_geom_bond_site_symmetry_1
_geom_bond_site_symmetry_2
Cu1 O1 1_555 1_555
O1 C11 1_555 1_555
O2 Cu1 1_555 1_555
O3 Cu1 1_555 1_555
O4 Cu1 1_555 1_555
O5 H14 1_555 1_555
N1 Cu1 1_555 1_555
N2 Cu1 1_555 1_555
N3 C5 1_555 1_555
C1 N1 1_555 1_555
C2 C1 1_555 1_555
C3 C2 1_555 1_555
C4 C3 1_555 1_555
C5 N1 1_555 1_555
C6 N2 1_555 1_555
C7 C6 1_555 1_555
C8 C7 1_555 1_555
C9 C8 1_555 1_555
C10 N2 1_555 1_555
C11 O2 1_555 1_555
C12 C11 1_555 1_555
C13 C12 1_555 1_555
C14 C12 1_555 1_555
C15 O3 1_555 1_555
C16 C15 1_555 1_555
C17 C16 1_555 1_555
C18 C16 1_555 1_555
H1 N3 1_555 1_555
H2 C1 1_555 1_555
H3 C2 1_555 1_555
H4 C3 1_555 1_555
H5 C4 1_555 1_555
H6 C7 1_555 1_555
H7 C8 1_555 1_555
H8 C9 1_555 1_555
H9 C10 1_555 1_555
H10 C13 1_555 1_555
H11 C14 1_555 1_555
H12 C17 1_555 1_555
H13 C18 1_555 1_555
H15 O5 1_555 1_555
C14A C13 1_555 1_555
C12A C14A 1_555 1_555
C11A C12A 1_555 1_555
O1A C11A 1_555 1_555
O2A C11A 1_555 1_555
C13A C14 1_555 1_555
H10A C13A 1_555 1_555
H11A C14A 1_555 1_555
C18A C17 1_555 1_555
C16A C18A 1_555 1_555
C15A C16A 1_555 1_555
O3A C15A 1_555 1_555
O4A C15A 1_555 1_555
C17A C18 1_555 1_555
H12A C17A 1_555 1_555
H13A C18A 1_555 1_555
Cu1A O1A 1_555 1_555
N1A Cu1A 1_555 1_555
N2A Cu1A 1_555 1_555
N3A C5A 1_555 1_555
C1A N1A 1_555 1_555
C2A C1A 1_555 1_555
C3A C2A 1_555 1_555
C4A C3A 1_555 1_555
C5A N1A 1_555 1_555
C6A N2A 1_555 1_555
C7A C6A 1_555 1_555
C8A C7A 1_555 1_555
C9A C8A 1_555 1_555
C10A N2A 1_555 1_555
H1A N3A 1_555 1_555
H2A C1A 1_555 1_555
H3A C2A 1_555 1_555
H4A C3A 1_555 1_555
H5A C4A 1_555 1_555
H6A C7A 1_555 1_555
H7A C8A 1_555 1_555
H8A C9A 1_555 1_555
H9A C10A 1_555 1_555
Cu1A_2 O3A 1_555 1_555
O3A_2 Cu1A 1_555 1_555
O4A_2 Cu1A 1_555 1_555
O4 C15 1_555 1_555
N3 C6 1_555 1_555
C4 C5 1_555 1_555
C9 C10 1_555 1_555
C12A C13A 1_555 1_555
O2A Cu1A 1_555 1_555
C16A C17A 1_555 1_555
O4A Cu1A_2 1_555 1_555
N3A C6A 1_555 1_555
C4A C5A 1_555 1_555
C9A C10A 1_555 1_555

#END
