
#######################################################################
#
#                 Cambridge Crystallographic Data Centre
#                                CCDC 
#
#######################################################################
#
# If this CIF has been generated from an entry in the Cambridge 
# Structural Database, then it will include bibliographic, chemical, 
# crystal, experimental, refinement or atomic coordinate data resulting 
# from the CCDC's data processing and validation procedures.
#
#######################################################################

data_AGABAN
_symmetry_cell_setting           triclinic
_symmetry_space_group_name_H-M   'P -1'
_symmetry_Int_Tables_number      2
_space_group_name_Hall           '-P 1'
loop_
_symmetry_equiv_pos_site_id
_symmetry_equiv_pos_as_xyz
1 x,y,z
2 -x,-y,-z
_cell_length_a                   6.6296(5)
_cell_length_b                   6.8074(6)
_cell_length_c                   8.7962(7)
_cell_angle_alpha                94.579(6)
_cell_angle_beta                 103.326(6)
_cell_angle_gamma                106.552(6)
_cell_volume                     365.747
loop_
_atom_site_label
_atom_site_type_symbol
_atom_site_fract_x
_atom_site_fract_y
_atom_site_fract_z
Mg1 Mg 0.5000 0.5000 0.5000
P1 P 0.36611(6) 0.83891(6) 0.71790(4)
O1 O 0.47100(19) 0.67534(18) 0.69031(14)
O2 O 0.22643(18) 0.87610(17) 0.56605(13)
O3 O 0.52336(14) 1.04094(13) 0.81824(11)
C1 C 0.17809(14) 0.73201(13) 0.83666(11)
H1 H 0.2264 0.6279 0.8904
H2 H 0.0379 0.6240 0.8034
N1 N 0.1348(2) 0.89184(19) 0.94153(15)
H3 H 0.2589 0.9558 1.0077
C2 C 0.0614(3) 1.0529(2) 0.85892(19)
H4 H -0.0754 0.9870 0.7791
H5 H 0.1690 1.1225 0.8065
C3 C -0.0313(3) 0.7900(2) 1.02369(19)
H6 H 0.0147 0.6857 1.0786
H7 H -0.1695 0.7211 0.9461
O4 O 0.30950(18) 0.64149(17) 0.34463(13)
H8 H 0.3778 0.7291 0.3008
H9 H 0.2647 0.7153 0.3980
O5 O 0.22487(19) 0.26098(18) 0.51161(16)
H10 H 0.2383 0.1488 0.5310
H11 H 0.0957 0.2540 0.4922
P1A P -0.36611(6) 1.16109(6) 1.28210(4)
O1A O -0.47100(19) 1.32466(18) 1.30969(14)
O2A O -0.22643(18) 1.12390(17) 1.43395(13)
O3A O -0.52336(14) 0.95906(13) 1.18176(11)
C1A C -0.17809(14) 1.26799(13) 1.16334(11)
H1A H -0.2264 1.3721 1.1096
H2A H -0.0379 1.3760 1.1966
N1A N -0.1348(2) 1.10816(19) 1.05847(15)
H3A H -0.2589 1.0442 0.9923
C2A C -0.0614(3) 0.9471(2) 1.14108(19)
H4A H 0.0754 1.0130 1.2209
H5A H -0.1690 0.8775 1.1935
C3A C 0.0313(3) 1.2100(2) 0.97631(19)
H6A H -0.0147 1.3143 0.9214
H7A H 0.1695 1.2789 1.0539
O4A O 0.69050(18) 0.35851(17) 0.65537(13)
H8A H 0.6222 0.2709 0.6992
H9A H 0.7353 0.2847 0.6020
O5A O 0.77513(19) 0.73902(18) 0.48839(16)
H10A H 0.7617 0.8512 0.4690
H11A H 0.9043 0.7460 0.5078
Mg1_2 Mg -0.5000 1.5000 1.5000
O1A_2 O 0.52900(19) 0.32466(18) 0.30969(14)
O6 O 0.5116(13) 0.5606(12) 1.0711(9)
H12 H 0.5284 0.5120 1.1538
H13 H 0.5205 0.6822 1.0956
loop_
_geom_bond_atom_site_label_1
_geom_bond_atom_site_label_2
_geom_bond_site_symmetry_1
_geom_bond_site_symmetry_2
Mg1 O1 1_555 1_555
P1 O1 1_555 1_555
O2 P1 1_555 1_555
O3 P1 1_555 1_555
C1 P1 1_555 1_555
H1 C1 1_555 1_555
H2 C1 1_555 1_555
N1 C1 1_555 1_555
H3 N1 1_555 1_555
C2 N1 1_555 1_555
H4 C2 1_555 1_555
H5 C2 1_555 1_555
C3 N1 1_555 1_555
H6 C3 1_555 1_555
H7 C3 1_555 1_555
O4 Mg1 1_555 1_555
H8 O4 1_555 1_555
H9 O4 1_555 1_555
O5 Mg1 1_555 1_555
H10 O5 1_555 1_555
H11 O5 1_555 1_555
O6 H12 1_555 1_555
H13 O6 1_555 1_555
P1A O1A 1_555 1_555
O1A Mg1_2 1_555 1_555
O2A P1A 1_555 1_555
O3A P1A 1_555 1_555
C1A P1A 1_555 1_555
H1A C1A 1_555 1_555
H2A C1A 1_555 1_555
N1A C1A 1_555 1_555
H3A N1A 1_555 1_555
C2A C3 1_555 1_555
H4A C2A 1_555 1_555
H5A C2A 1_555 1_555
C3A C2 1_555 1_555
H6A C3A 1_555 1_555
H7A C3A 1_555 1_555
O4A Mg1 1_555 1_555
H8A O4A 1_555 1_555
H9A O4A 1_555 1_555
O5A Mg1 1_555 1_555
H10A O5A 1_555 1_555
H11A O5A 1_555 1_555
O1A_2 Mg1 1_555 1_555
N1A C2A 1_555 1_555
N1A C3A 1_555 1_555

#END
