
#######################################################################
#
#                 Cambridge Crystallographic Data Centre
#                                CCDC 
#
#######################################################################
#
# If this CIF has been generated from an entry in the Cambridge 
# Structural Database, then it will include bibliographic, chemical, 
# crystal, experimental, refinement or atomic coordinate data resulting 
# from the CCDC's data processing and validation procedures.
#
#######################################################################

data_AGACIW
_symmetry_cell_setting           triclinic
_symmetry_space_group_name_H-M   'P -1'
_symmetry_Int_Tables_number      2
_space_group_name_Hall           '-P 1'
loop_
_symmetry_equiv_pos_site_id
_symmetry_equiv_pos_as_xyz
1 x,y,z
2 -x,-y,-z
_cell_length_a                   6.963(2)
_cell_length_b                   9.844(3)
_cell_length_c                   11.213(3)
_cell_angle_alpha                103.93(3)
_cell_angle_beta                 105.83(3)
_cell_angle_gamma                106.38(3)
_cell_volume                     666.085
loop_
_atom_site_label
_atom_site_type_symbol
_atom_site_fract_x
_atom_site_fract_y
_atom_site_fract_z
P1 P 0.19163(3) 0.36887(2) 0.291283(19)
O1 O 0.52988(11) 1.11256(7) 0.18582(7)
O2 O 0.66594(11) 1.15233(7) 0.39510(6)
O3 O -0.28509(13) -0.46498(7) 0.15506(8)
O4 O -0.14079(12) -0.34783(8) 0.36644(7)
O5 O 0.18884(10) 0.45097(6) 0.18143(6)
O6 O 0.02554(10) 0.20680(6) 0.18007(6)
O7 O 0.40483(10) 0.36277(7) 0.34892(6)
O8 O 0.08681(9) 0.42769(7) 0.37940(6)
N1 N 0.55665(11) 1.06716(8) 0.27967(7)
N2 N -0.18533(12) -0.34891(8) 0.25185(8)
C1 C 0.28334(12) 0.60309(8) 0.21207(7)
C2 C 0.24915(13) 0.65553(9) 0.10570(8)
H1 H 0.1654 0.5862 0.0187
C3 C 0.33698(13) 0.80825(9) 0.12681(8)
H2 H 0.3144 0.8448 0.0551
C4 C 0.45900(12) 0.90670(8) 0.25538(8)
C5 C 0.49639(13) 0.85587(9) 0.36171(8)
H3 H 0.5815 0.9255 0.4484
C6 C 0.40903(13) 0.70311(9) 0.34079(8)
H4 H 0.4341 0.6669 0.4126
C7 C -0.01420(12) 0.07325(8) 0.20306(8)
C8 C -0.14071(13) -0.05705(9) 0.09256(8)
H5 H -0.1902 -0.0492 0.0077
C9 C -0.19405(13) -0.19754(9) 0.10643(8)
H6 H -0.2790 -0.2867 0.0320
C10 C -0.11984(13) -0.20435(9) 0.23230(8)
C11 C 0.00777(13) -0.07667(9) 0.34263(8)
H7 H 0.0579 -0.0854 0.4271
C12 C 0.06168(13) 0.06395(9) 0.32862(8)
H8 H 0.1489 0.1526 0.4033
Na1 Na 0.75570(5) 1.41177(4) 0.39243(3)
O4_2 O 0.85921(12) 1.65217(8) 0.36644(7)
O7_2 O 0.40483(10) 1.36277(7) 0.34892(6)
O8_2 O 1.08681(9) 1.42769(7) 0.37940(6)
O8A O 0.91319(9) 1.57231(7) 0.62060(6)
Na1_2 Na -0.24430(5) -0.58823(4) 0.39243(3)
Na1_3 Na -0.24430(5) 0.41177(4) 0.39243(3)
Na1_4 Na 0.75570(5) 0.41177(4) 0.39243(3)
Na1A Na 0.24430(5) 0.58823(4) 0.60757(3)
loop_
_geom_bond_atom_site_label_1
_geom_bond_atom_site_label_2
_geom_bond_site_symmetry_1
_geom_bond_site_symmetry_2
P1 O5 1_555 1_555
O1 N1 1_555 1_555
O2 N1 1_555 1_555
O3 N2 1_555 1_555
O4 N2 1_555 1_555
O5 C1 1_555 1_555
O6 P1 1_555 1_555
O7 P1 1_555 1_555
O8 P1 1_555 1_555
N1 C4 1_555 1_555
N2 C10 1_555 1_555
C1 C2 1_555 1_555
C2 H1 1_555 1_555
C3 C2 1_555 1_555
H2 C3 1_555 1_555
C4 C3 1_555 1_555
C5 C4 1_555 1_555
H3 C5 1_555 1_555
C6 C1 1_555 1_555
H4 C6 1_555 1_555
C7 O6 1_555 1_555
C8 C7 1_555 1_555
H5 C8 1_555 1_555
C9 C8 1_555 1_555
H6 C9 1_555 1_555
C10 C9 1_555 1_555
C11 C10 1_555 1_555
H7 C11 1_555 1_555
C12 C7 1_555 1_555
H8 C12 1_555 1_555
Na1 O1 1_555 1_555
O4_2 Na1 1_555 1_555
O7_2 Na1 1_555 1_555
O8_2 Na1 1_555 1_555
O8A Na1 1_555 1_555
Na1_2 O4 1_555 1_555
Na1_3 O8 1_555 1_555
Na1_4 O7 1_555 1_555
Na1A O8 1_555 1_555
O2 Na1 1_555 1_555
C5 C6 1_555 1_555
C11 C12 1_555 1_555

#END
