
#######################################################################
#
#                 Cambridge Crystallographic Data Centre
#                                CCDC 
#
#######################################################################
#
# If this CIF has been generated from an entry in the Cambridge 
# Structural Database, then it will include bibliographic, chemical, 
# crystal, experimental, refinement or atomic coordinate data resulting 
# from the CCDC's data processing and validation procedures.
#
#######################################################################

data_AGACOC
_symmetry_cell_setting           monoclinic
_symmetry_space_group_name_H-M   'C 2/c'
_symmetry_Int_Tables_number      15
_space_group_name_Hall           '-C 2yn'
loop_
_symmetry_equiv_pos_site_id
_symmetry_equiv_pos_as_xyz
1 x,y,z
2 -x,y,1/2-z
3 1/2+x,1/2+y,z
4 1/2-x,1/2+y,1/2-z
5 -x,-y,-z
6 x,-y,1/2+z
7 1/2-x,1/2-y,-z
8 1/2+x,1/2-y,1/2+z
_cell_length_a                   25.1809(5)
_cell_length_b                   7.0161(3)
_cell_length_c                   30.6755(6)
_cell_angle_alpha                90
_cell_angle_beta                 106.203(3)
_cell_angle_gamma                90
_cell_volume                     5204.23
loop_
_atom_site_label
_atom_site_type_symbol
_atom_site_fract_x
_atom_site_fract_y
_atom_site_fract_z
Cd1 Cd 0.430006(10) 0.86384(4) 0.032753(9)
Cl1 Cl 0.67865(6) 0.6435(2) 0.24132(4)
Cl2 Cl 0.20678(5) 1.2006(2) -0.17853(4)
O1 O 0.50773(11) 0.7328(5) 0.09538(10)
O2 O 0.50591(11) 1.0331(5) 0.07578(9)
O3 O 0.35198(12) 0.9354(4) -0.03179(10)
O4 O 0.41552(11) 1.1524(4) -0.00840(9)
O5 O 0.39003(12) 0.9782(4) 0.09065(10)
O6 O 0.47410(12) 0.7107(5) -0.01422(11)
H1 H 0.472(2) 0.785(7) -0.0367(12)
H2 H 0.5081(12) 0.709(10) 0.0016(18)
N1 N 0.38036(12) 1.6005(4) 0.04343(10)
N2 N 0.42885(14) 1.1630(5) 0.15138(11)
C1 C 0.52769(14) 0.8941(6) 0.10063(12)
C2 C 0.57856(13) 0.9332(6) 0.13935(12)
C3 C 0.60309(14) 0.7865(6) 0.16792(12)
H3 H 0.5892 0.6631 0.1627
C4 C 0.64831(15) 0.8243(6) 0.20430(13)
C5 C 0.66979(17) 1.0049(8) 0.21233(15)
H4 H 0.7004 1.0287 0.2369
C6 C 0.6455(2) 1.1492(8) 0.18368(16)
H5 H 0.6597 1.2721 0.1888
C7 C 0.59975(17) 1.1136(6) 0.14707(15)
H6 H 0.5835 1.2125 0.1278
C8 C 0.37094(14) 1.0967(5) -0.03489(11)
C9 C 0.33859(14) 1.2296(5) -0.07074(11)
C10 C 0.29377(14) 1.1625(5) -0.10465(11)
H7 H 0.2847 1.0337 -0.1060
C11 C 0.26293(16) 1.2868(6) -0.13623(13)
C12 C 0.2747(2) 1.4770(7) -0.13478(15)
H8 H 0.2530 1.5599 -0.1561
C13 C 0.3196(2) 1.5445(6) -0.10090(16)
H9 H 0.3280 1.6737 -0.0994
C14 C 0.35155(18) 1.4214(6) -0.06956(13)
H10 H 0.3821 1.4673 -0.0474
C15 C 0.40358(14) 1.4560(5) 0.07000(12)
H11 H 0.4418 1.4552 0.0822
C16 C 0.37313(15) 1.3070(5) 0.08017(12)
C17 C 0.31657(15) 1.3072(6) 0.06121(13)
H12 H 0.2951 1.2065 0.0665
C18 C 0.29234(16) 1.4580(7) 0.03445(15)
H13 H 0.2542 1.4629 0.0220
C19 C 0.32558(15) 1.6014(6) 0.02650(13)
H14 H 0.3091 1.7037 0.0085
C20 C 0.39878(15) 1.1380(5) 0.10824(13)
C21 C 0.43608(18) 1.3440(7) 0.17587(14)
H15 H 0.4277 1.3260 0.2046
H16 H 0.4101 1.4362 0.1583
C22 C 0.4944(2) 1.4228(8) 0.18486(17)
H17 H 0.4972 1.5408 0.2012
H18 H 0.5026 1.4446 0.1565
H19 H 0.5203 1.3328 0.2026
C23 C 0.4519(2) 0.9923(7) 0.17814(16)
H20 H 0.4863 1.0261 0.2004
H21 H 0.4601 0.8969 0.1581
C24 C 0.4129(3) 0.9093(9) 0.2021(2)
H22 H 0.4306 0.8052 0.2210
H23 H 0.3802 0.8641 0.1802
H24 H 0.4029 1.0056 0.2207
Cd1_2 Cd 0.430006(10) 1.86384(4) 0.032753(9)
N1_2 N 0.38036(12) 0.6005(4) 0.04343(10)
loop_
_geom_bond_atom_site_label_1
_geom_bond_atom_site_label_2
_geom_bond_site_symmetry_1
_geom_bond_site_symmetry_2
Cd1 O1 1_555 1_555
Cl1 C4 1_555 1_555
Cl2 C11 1_555 1_555
O1 C1 1_555 1_555
O2 Cd1 1_555 1_555
O3 Cd1 1_555 1_555
O4 Cd1 1_555 1_555
O5 Cd1 1_555 1_555
O6 Cd1 1_555 1_555
H1 O6 1_555 1_555
H2 O6 1_555 1_555
N1 C15 1_555 1_555
N2 C20 1_555 1_555
C1 O2 1_555 1_555
C2 C1 1_555 1_555
C3 C2 1_555 1_555
H3 C3 1_555 1_555
C4 C3 1_555 1_555
C5 C4 1_555 1_555
H4 C5 1_555 1_555
C6 C5 1_555 1_555
H5 C6 1_555 1_555
C7 C2 1_555 1_555
H6 C7 1_555 1_555
C8 O3 1_555 1_555
C9 C8 1_555 1_555
C10 C9 1_555 1_555
H7 C10 1_555 1_555
C11 C10 1_555 1_555
C12 C11 1_555 1_555
H8 C12 1_555 1_555
C13 C12 1_555 1_555
H9 C13 1_555 1_555
C14 C9 1_555 1_555
H10 C14 1_555 1_555
C15 H11 1_555 1_555
C16 C15 1_555 1_555
C17 C16 1_555 1_555
H12 C17 1_555 1_555
C18 C17 1_555 1_555
H13 C18 1_555 1_555
C19 N1 1_555 1_555
H14 C19 1_555 1_555
C20 O5 1_555 1_555
C21 N2 1_555 1_555
H15 C21 1_555 1_555
H16 C21 1_555 1_555
C22 C21 1_555 1_555
H17 C22 1_555 1_555
H18 C22 1_555 1_555
H19 C22 1_555 1_555
C23 N2 1_555 1_555
H20 C23 1_555 1_555
H21 C23 1_555 1_555
C24 C23 1_555 1_555
H22 C24 1_555 1_555
H23 C24 1_555 1_555
H24 C24 1_555 1_555
Cd1_2 N1 1_555 1_555
N1_2 Cd1 1_555 1_555
O4 C8 1_555 1_555
C6 C7 1_555 1_555
C13 C14 1_555 1_555
C16 C20 1_555 1_555
C18 C19 1_555 1_555

#END
