
#######################################################################
#
#                 Cambridge Crystallographic Data Centre
#                                CCDC 
#
#######################################################################
#
# If this CIF has been generated from an entry in the Cambridge 
# Structural Database, then it will include bibliographic, chemical, 
# crystal, experimental, refinement or atomic coordinate data resulting 
# from the CCDC's data processing and validation procedures.
#
#######################################################################

data_AGADUI
_symmetry_cell_setting           orthorhombic
_symmetry_space_group_name_H-M   'P 21 21 21'
_symmetry_Int_Tables_number      19
_space_group_name_Hall           'P 2ac 2ab'
loop_
_symmetry_equiv_pos_site_id
_symmetry_equiv_pos_as_xyz
1 x,y,z
2 1/2-x,-y,1/2+z
3 1/2+x,1/2-y,-z
4 -x,1/2+y,1/2-z
_cell_length_a                   29.42660
_cell_length_b                   11.15370
_cell_length_c                   17.81130
_cell_angle_alpha                90
_cell_angle_beta                 90
_cell_angle_gamma                90
_cell_volume                     5845.94
loop_
_atom_site_label
_atom_site_type_symbol
_atom_site_fract_x
_atom_site_fract_y
_atom_site_fract_z
Mn1 Mn 0.26207 0.68220 0.11953
Mn2 Mn 0.24060 1.17882 0.28763
O1 O 0.20500 0.73965 0.08288
O2 O 0.32077 0.61225 0.14653
O3 O 0.23449 0.69088 0.23896
O4 O 0.18129 1.08829 0.24616
O5 O 0.30884 0.26701 0.26815
O6 O 0.23816 0.93916 -0.14743
N1 N 0.28572 0.67984 0.00465
N2 N 0.28111 0.72582 -0.11775
N3 N 0.28660 0.85127 0.14672
N4 N 0.22940 0.32453 0.19448
N5 N 0.23592 0.50940 0.12982
N6 N 0.28286 1.04595 0.20473
N7 N 0.20538 0.82956 0.03434
N8 N 0.21223 0.89933 -0.08575
N9 N 0.21062 0.78276 0.25876
N10 N 0.18871 0.97648 0.26721
N11 N 0.31968 0.55703 0.21465
N12 N 0.31828 0.38157 0.26640
C1 C 0.22733 0.82016 -0.03434
C2 C 0.16029 0.90463 0.01965
C3 C 0.17722 0.98895 -0.05277
C4 C 0.12330 0.82072 -0.00163
C5 C 0.15384 0.98098 0.08518
C6 C 0.20188 1.10399 -0.03151
C7 C 0.14104 1.01060 -0.10910
C8 C 0.26617 0.76007 -0.04492
C9 C 0.32268 0.61284 -0.03027
C10 C 0.31801 0.64869 -0.10499
C11 C 0.22290 0.89703 0.23904
C12 C 0.16896 0.78781 0.31041
C13 C 0.15731 0.91608 0.31904
C14 C 0.18305 0.71366 0.37601
C15 C 0.13936 0.70205 0.26708
C16 C 0.16585 0.96465 0.39841
C17 C 0.11043 0.95162 0.28898
C18 C 0.26199 0.93254 0.19427
C19 C 0.31864 0.91740 0.12814
C20 C 0.32012 1.02869 0.15716
C21 C 0.29664 0.45565 0.21500
C22 C 0.36064 0.56041 0.26075
C23 C 0.35068 0.45578 0.31291
C24 C 0.40126 0.53788 0.20133
C25 C 0.36622 0.68044 0.29282
C26 C 0.32102 0.49541 0.38219
C27 C 0.39182 0.36992 0.33219
C28 C 0.25241 0.42733 0.17378
C29 C 0.19506 0.46002 0.10437
C30 C 0.19288 0.34868 0.14524
C31 C 0.15488 0.26902 0.13469
C32 C 0.11906 0.30071 0.08328
C33 C 0.12123 0.41205 0.04241
C34 C 0.15923 0.49171 0.05295
C35 C 0.34864 0.60774 -0.15907
C36 C 0.38396 0.53092 -0.13843
C37 C 0.38863 0.49506 -0.06372
C38 C 0.35800 0.53602 -0.00964
C39 C 0.35422 1.10328 0.13855
C40 C 0.38684 1.06656 0.09093
C41 C 0.38538 0.95527 0.06191
C42 C 0.35127 0.88069 0.08052
H1 H 0.33994 0.63727 -0.22006
H2 H 0.40412 0.49774 -0.18257
H3 H 0.41260 0.43258 -0.04687
H4 H 0.35695 0.50700 0.05136
H5 H 0.15317 0.18099 0.16703
H6 H 0.08899 0.23774 0.07492
H7 H 0.09287 0.43716 0.00173
H8 H 0.16095 0.57985 0.02062
H9 H 0.35547 1.19763 0.16315
H10 H 0.41575 1.12981 0.07514
H11 H 0.41304 0.92424 0.02155
H12 H 0.35002 0.78642 0.05595
H13 H 0.13799 0.74414 -0.03625
H14 H 0.09675 0.87069 -0.03625
H15 H 0.10676 0.78336 0.05127
H16 H 0.17027 1.07215 0.07464
H17 H 0.17027 0.93732 0.13625
H18 H 0.11595 0.99364 0.09593
H19 H 0.43391 0.58033 0.22338
H20 H 0.39197 0.58033 0.14513
H21 H 0.40656 0.43754 0.19358
H22 H 0.33715 0.74054 0.27336
H23 H 0.39994 0.72021 0.27336
H24 H 0.36594 0.67443 0.35671
H25 H 0.29100 0.55137 0.36182
H26 H 0.34265 0.55137 0.42218
H27 H 0.30794 0.41263 0.41274
H28 H 0.42444 0.40841 0.30738
H29 H 0.38520 0.27750 0.30738
H30 H 0.39549 0.36243 0.39573
H31 H 0.16023 0.73499 0.42600
H32 H 0.21985 0.73499 0.39104
H33 H 0.17987 0.61474 0.36119
H34 H 0.16158 0.64263 0.23024
H35 H 0.11481 0.75501 0.23024
H36 H 0.11930 0.64406 0.30798
H37 H 0.13570 1.02191 0.41673
H38 H 0.19798 1.02191 0.39843
H39 H 0.17023 0.88668 0.43904
H40 H 0.11465 1.00713 0.23564
H41 H 0.09176 1.00713 0.33307
H42 H 0.08999 0.86751 0.27588
Mn2_2 Mn 0.24060 0.17882 0.28763
Mn2A Mn 0.25940 0.82118 -0.21237
O5_2 O 0.30884 1.26701 0.26815
O6A O 0.26184 1.06084 0.35257
N2A N 0.21889 1.27418 0.38225
N4_2 N 0.22940 1.32453 0.19448
S1 S -0.07525 0.77236 0.25133
O7 O -0.05298 0.69357 0.31787
O8 O -0.12159 0.70770 0.22632
O9 O -0.08830 0.89929 0.28565
O10 O -0.03905 0.78917 0.17591
C43 C 0.00772 -0.13301 0.02418
C44 C 0.01918 -0.16049 -0.05630
C45 C 0.00163 0.83792 0.20268
C46 C 0.03381 0.73576 0.22316
C47 C 0.02144 0.62142 0.18076
C48 C 0.04577 0.61560 0.10520
C49 C 0.02156 0.52992 0.05185
C50 C 0.02018 0.40445 0.08412
C51 C 0.01592 0.31307 0.02136
C52 C -0.00949 0.20303 0.04866
C53 C 0.00769 0.09099 0.00888
C54 C -0.02014 -0.01872 0.02927
H43 H 0.05021 -0.12142 0.05759
H44 H -0.00304 -0.21015 0.04895
H45 H 0.06345 -0.12021 -0.07064
H46 H 0.00186 -0.12021 -0.09457
H47 H 0.03010 -0.26172 -0.06465
H48 H 0.00424 0.89476 0.25459
H49 H 0.02738 0.89622 0.15724
H50 H 0.04138 0.71819 0.28612
H51 H 0.07985 0.76205 0.20803
H52 H -0.00712 0.61929 0.17105
H53 H 0.04149 0.54007 0.21552
H54 H 0.09186 0.58347 0.11425
H55 H 0.05615 0.70872 0.07878
H56 H 0.05004 0.52825 -0.00413
H57 H -0.00504 0.56213 0.04238
H58 H -0.00048 0.39596 0.12346
H59 H 0.06251 0.38661 0.11684
H60 H 0.06102 0.28565 0.00175
H61 H 0.00627 0.35447 -0.02762
H62 H -0.03758 0.21461 0.03680
H63 H 0.00562 0.19218 0.11169
H64 H 0.05438 0.07495 0.02526
H65 H 0.01527 0.10457 -0.05445
H66 H -0.02371 -0.00825 0.08904
H67 H -0.04044 -0.02448 -0.01098
loop_
_geom_bond_atom_site_label_1
_geom_bond_atom_site_label_2
_geom_bond_site_symmetry_1
_geom_bond_site_symmetry_2
Mn1 O1 1_555 1_555
Mn2 O4 1_555 1_555
O1 N7 1_555 1_555
O2 Mn1 1_555 1_555
O3 Mn1 1_555 1_555
O4 N10 1_555 1_555
O5 N12 1_555 1_555
O6 N8 1_555 1_555
N1 Mn1 1_555 1_555
N2 C8 1_555 1_555
N3 Mn1 1_555 1_555
N4 C28 1_555 1_555
N5 Mn1 1_555 1_555
N6 Mn2 1_555 1_555
N7 C1 1_555 1_555
N8 C1 1_555 1_555
N9 O3 1_555 1_555
N10 C11 1_555 1_555
N11 O2 1_555 1_555
N12 C21 1_555 1_555
C1 C8 1_555 1_555
C2 N7 1_555 1_555
C3 N8 1_555 1_555
C4 C2 1_555 1_555
C5 C2 1_555 1_555
C6 C3 1_555 1_555
C7 C3 1_555 1_555
C8 N1 1_555 1_555
C9 N1 1_555 1_555
C10 N2 1_555 1_555
C11 N9 1_555 1_555
C12 N9 1_555 1_555
C13 N10 1_555 1_555
C14 C12 1_555 1_555
C15 C12 1_555 1_555
C16 C13 1_555 1_555
C17 C13 1_555 1_555
C18 N3 1_555 1_555
C19 N3 1_555 1_555
C20 N6 1_555 1_555
C21 N11 1_555 1_555
C22 N11 1_555 1_555
C23 N12 1_555 1_555
C24 C22 1_555 1_555
C25 C22 1_555 1_555
C26 C23 1_555 1_555
C27 C23 1_555 1_555
C28 N5 1_555 1_555
C29 N5 1_555 1_555
C30 N4 1_555 1_555
C31 C30 1_555 1_555
C32 C31 1_555 1_555
C33 C32 1_555 1_555
C34 C29 1_555 1_555
C35 C10 1_555 1_555
C36 C35 1_555 1_555
C37 C36 1_555 1_555
C38 C9 1_555 1_555
C39 C20 1_555 1_555
C40 C39 1_555 1_555
C41 C40 1_555 1_555
C42 C19 1_555 1_555
S1 O7 1_555 1_555
O8 S1 1_555 1_555
O9 S1 1_555 1_555
O10 S1 1_555 1_555
C43 C44 1_555 1_555
C44 H45 1_555 1_555
C45 O10 1_555 1_555
C46 C45 1_555 1_555
C47 C46 1_555 1_555
C48 C47 1_555 1_555
C49 C48 1_555 1_555
C50 C49 1_555 1_555
C51 C50 1_555 1_555
C52 C51 1_555 1_555
C53 C52 1_555 1_555
C54 C43 1_555 1_555
H1 C35 1_555 1_555
H2 C36 1_555 1_555
H3 C37 1_555 1_555
H4 C38 1_555 1_555
H5 C31 1_555 1_555
H6 C32 1_555 1_555
H7 C33 1_555 1_555
H8 C34 1_555 1_555
H9 C39 1_555 1_555
H10 C40 1_555 1_555
H11 C41 1_555 1_555
H12 C42 1_555 1_555
H13 C4 1_555 1_555
H14 C4 1_555 1_555
H15 C4 1_555 1_555
H16 C5 1_555 1_555
H17 C5 1_555 1_555
H18 C5 1_555 1_555
H19 C24 1_555 1_555
H20 C24 1_555 1_555
H21 C24 1_555 1_555
H22 C25 1_555 1_555
H23 C25 1_555 1_555
H24 C25 1_555 1_555
H25 C26 1_555 1_555
H26 C26 1_555 1_555
H27 C26 1_555 1_555
H28 C27 1_555 1_555
H29 C27 1_555 1_555
H30 C27 1_555 1_555
H31 C14 1_555 1_555
H32 C14 1_555 1_555
H33 C14 1_555 1_555
H34 C15 1_555 1_555
H35 C15 1_555 1_555
H36 C15 1_555 1_555
H37 C16 1_555 1_555
H38 C16 1_555 1_555
H39 C16 1_555 1_555
H40 C17 1_555 1_555
H41 C17 1_555 1_555
H42 C17 1_555 1_555
H43 C43 1_555 1_555
H44 C43 1_555 1_555
H46 C44 1_555 1_555
H47 C44 1_555 1_555
H48 C45 1_555 1_555
H49 C45 1_555 1_555
H50 C46 1_555 1_555
H51 C46 1_555 1_555
H52 C47 1_555 1_555
H53 C47 1_555 1_555
H54 C48 1_555 1_555
H55 C48 1_555 1_555
H56 C49 1_555 1_555
H57 C49 1_555 1_555
H58 C50 1_555 1_555
H59 C50 1_555 1_555
H60 C51 1_555 1_555
H61 C51 1_555 1_555
H62 C52 1_555 1_555
H63 C52 1_555 1_555
H64 C53 1_555 1_555
H65 C53 1_555 1_555
H66 C54 1_555 1_555
H67 C54 1_555 1_555
Mn2_2 O5 1_555 1_555
Mn2A O6 1_555 1_555
O5_2 Mn2 1_555 1_555
O6A Mn2 1_555 1_555
N2A Mn2 1_555 1_555
N4_2 Mn2 1_555 1_555
N2 Mn2A 1_555 1_555
N4 Mn2_2 1_555 1_555
N6 C18 1_555 1_555
C2 C3 1_555 1_555
C9 C10 1_555 1_555
C11 C18 1_555 1_555
C12 C13 1_555 1_555
C19 C20 1_555 1_555
C21 C28 1_555 1_555
C22 C23 1_555 1_555
C29 C30 1_555 1_555
C33 C34 1_555 1_555
C37 C38 1_555 1_555
C41 C42 1_555 1_555
C53 C54 1_555 1_555

#END
