
#######################################################################
#
#                 Cambridge Crystallographic Data Centre
#                                CCDC 
#
#######################################################################
#
# If this CIF has been generated from an entry in the Cambridge 
# Structural Database, then it will include bibliographic, chemical, 
# crystal, experimental, refinement or atomic coordinate data resulting 
# from the CCDC's data processing and validation procedures.
#
#######################################################################

data_AGADOC
_symmetry_cell_setting           orthorhombic
_symmetry_space_group_name_H-M   'P 21 21 21'
_symmetry_Int_Tables_number      19
_space_group_name_Hall           'P 2ac 2ab'
loop_
_symmetry_equiv_pos_site_id
_symmetry_equiv_pos_as_xyz
1 x,y,z
2 1/2-x,-y,1/2+z
3 1/2+x,1/2-y,-z
4 -x,1/2+y,1/2-z
_cell_length_a                   29.11530
_cell_length_b                   10.79220
_cell_length_c                   18.49030
_cell_angle_alpha                90
_cell_angle_beta                 90
_cell_angle_gamma                90
_cell_volume                     5809.99
loop_
_atom_site_label
_atom_site_type_symbol
_atom_site_fract_x
_atom_site_fract_y
_atom_site_fract_z
Mn1 Mn 0.26062 0.70385 0.14073
Mn2 Mn 0.24086 1.15303 0.32102
O1 O 0.20356 0.76645 0.10542
O2 O 0.23288 0.71447 0.25578
O3 O 0.31923 0.62829 0.16675
O4 O 0.18960 1.12594 0.26271
O5 O 0.30421 0.27391 0.28390
O6 O 0.23872 0.96963 -0.11643
N1 N 0.28445 0.69996 0.03006
N2 N 0.28021 0.74754 -0.08783
N3 N 0.28681 0.87625 0.16693
N4 N 0.22459 0.33794 0.21292
N5 N 0.23276 0.52770 0.15064
N6 N 0.28474 1.07674 0.22280
N7 N 0.20472 0.85891 0.05867
N8 N 0.21222 0.93026 -0.05701
N9 N 0.20961 0.81044 0.27486
N10 N 0.18917 1.01106 0.28300
N11 N 0.31765 0.57155 0.23236
N12 N 0.31472 0.39115 0.28220
C1 C 0.22677 0.84789 -0.00749
C2 C 0.15989 0.93889 0.04452
C3 C 0.17770 1.02459 -0.02524
C4 C 0.12188 0.85485 0.02402
C5 C 0.15405 1.01782 0.10764
C6 C 0.20357 1.14142 -0.00476
C7 C 0.14140 1.04909 -0.07951
C8 C 0.26542 0.78370 -0.01767
C9 C 0.32116 0.62878 -0.00358
C10 C 0.31675 0.66595 -0.07554
C11 C 0.22297 0.92723 0.25586
C12 C 0.16764 0.81820 0.32461
C13 C 0.15698 0.95086 0.33293
C14 C 0.18121 0.74105 0.38779
C15 C 0.13706 0.73180 0.28286
C16 C 0.16603 1.00030 0.40937
C17 C 0.11003 0.99029 0.30397
C18 C 0.26269 0.96136 0.21272
C19 C 0.31970 0.94231 0.14903
C20 C 0.32216 1.05670 0.17697
C21 C 0.29353 0.46870 0.23269
C22 C 0.35898 0.57253 0.27677
C23 C 0.34804 0.46550 0.32701
C24 C 0.39975 0.54684 0.21953
C25 C 0.36565 0.69563 0.30765
C26 C 0.31847 0.50809 0.39375
C27 C 0.38879 0.37466 0.34560
C28 C 0.24869 0.44227 0.19298
C29 C 0.19112 0.47942 0.12614
C30 C 0.18797 0.36503 0.16550
C31 C 0.14897 0.28543 0.15535
C32 C 0.11310 0.32022 0.10581
C33 C 0.11627 0.43461 0.06644
C34 C 0.15526 0.51423 0.07660
C35 C 0.34728 0.62194 -0.12764
C36 C 0.38225 0.54074 -0.10776
C37 C 0.38666 0.50358 -0.03578
C38 C 0.35611 0.54759 0.01629
C39 C 0.35720 1.13132 0.15906
C40 C 0.38978 1.09155 0.11318
C41 C 0.38733 0.97717 0.08523
C42 C 0.35230 0.90254 0.10316
H1 H 0.34361 0.65264 -0.18644
H2 H 0.40728 0.50488 -0.15031
H3 H 0.41529 0.43734 -0.01954
H4 H 0.35973 0.51743 0.07501
H5 H 0.14642 0.19481 0.18650
H6 H 0.08217 0.25721 0.09775
H7 H 0.08787 0.46236 0.02713
H8 H 0.15781 0.60528 0.04533
H9 H 0.35937 1.22897 0.18273
H10 H 0.41955 1.15542 0.09794
H11 H 0.41501 0.94378 0.04623
H12 H 0.35023 0.80554 0.07936
H13 H 0.43300 0.59008 0.24031
H14 H 0.39045 0.59008 0.16516
H15 H 0.40463 0.44291 0.21270
H16 H 0.33681 0.75968 0.28894
H17 H 0.40008 0.73473 0.28894
H18 H 0.36531 0.68936 0.36918
H19 H 0.28821 0.56622 0.37411
H20 H 0.34065 0.56622 0.43171
H21 H 0.30518 0.42335 0.42380
H22 H 0.42209 0.41257 0.32171
H23 H 0.38136 0.27960 0.32171
H24 H 0.39242 0.36682 0.40681
H25 H 0.15772 0.76295 0.43546
H26 H 0.21829 0.76295 0.40321
H27 H 0.17808 0.63913 0.37312
H28 H 0.15900 0.66919 0.24737
H29 H 0.11277 0.78834 0.24737
H30 H 0.11624 0.67328 0.32218
H31 H 0.13569 1.05956 0.42760
H32 H 0.19854 1.05956 0.40915
H33 H 0.17065 0.91950 0.44820
H34 H 0.11481 1.04824 0.25285
H35 H 0.09150 1.04824 0.34659
H36 H 0.08880 0.90476 0.29087
H37 H 0.13605 0.77488 -0.00933
H38 H 0.09553 0.90831 -0.00933
H39 H 0.10482 0.81735 0.07495
H40 H 0.17088 1.11176 0.09719
H41 H 0.17088 0.97243 0.15655
H42 H 0.11588 1.03180 0.11864
H43 H 0.18499 1.22583 -0.02777
H44 H 0.23988 1.13736 -0.02777
H45 H 0.20534 1.14956 0.05666
H46 H 0.15650 1.10460 -0.12637
H47 H 0.11248 1.10460 -0.05335
H48 H 0.12732 0.95761 -0.10058
Mn2_2 Mn 0.24086 0.15303 0.32102
Mn2A Mn 0.25914 0.84697 -0.17898
O5_2 O 0.30421 1.27391 0.28390
O6A O 0.26128 1.03037 0.38357
N2A N 0.21979 1.25246 0.41217
N4_2 N 0.22459 1.33794 0.21292
S1 S 0.43648 0.71541 -0.23958
O7 O 0.42120 0.83601 -0.28497
O8 O 0.41208 0.72373 -0.16175
O9 O 0.41593 0.59577 -0.28039
O10 O 0.49598 0.70694 -0.23181
C43 C 0.50674 0.60223 -0.19012
C44 C 0.53997 0.63916 -0.13009
C45 C 0.51487 0.70195 -0.06718
C46 C 0.48240 0.61143 -0.02903
C47 C 0.45734 0.67401 0.03389
C48 C 0.46321 0.60054 0.10417
C49 C 0.51362 0.56732 0.11731
C50 C 0.51229 0.57000 0.19818
C51 C 0.56375 0.55162 0.21126
C52 C 0.57728 0.41511 0.20357
C53 C 0.55471 0.33570 0.26165
H49 H 0.56673 0.70556 -0.15296
H50 H 0.55811 0.55282 -0.10865
H51 H 0.49423 0.78347 -0.08879
H52 H 0.54109 0.73695 -0.02621
H53 H 0.50313 0.52949 -0.00755
H54 H 0.45579 0.57594 -0.06923
H55 H 0.41926 0.68092 0.02043
H56 H 0.47187 0.77089 0.04231
H57 H 0.44217 0.51155 0.10074
H58 H 0.45052 0.65829 0.15163
H59 H 0.53761 0.64146 0.09496
H60 H 0.52132 0.47265 0.09248
H61 H 0.49151 0.48911 0.22067
H62 H 0.49799 0.66259 0.21709
H63 H 0.57273 0.58457 0.26806
H64 H 0.58411 0.60792 0.17012
H65 H 0.61624 0.40620 0.20830
H66 H 0.56603 0.37930 0.14830
H67 H 0.58181 0.27454 0.28845
H68 H 0.52728 0.27454 0.23588
H69 H 0.53828 0.39803 0.30401
H70 H 0.52348 0.52886 -0.22600
H71 H 0.47403 0.56285 -0.16531
loop_
_geom_bond_atom_site_label_1
_geom_bond_atom_site_label_2
_geom_bond_site_symmetry_1
_geom_bond_site_symmetry_2
Mn1 O1 1_555 1_555
Mn2 O4 1_555 1_555
O1 N7 1_555 1_555
O2 Mn1 1_555 1_555
O3 Mn1 1_555 1_555
O4 N10 1_555 1_555
O5 N12 1_555 1_555
O6 N8 1_555 1_555
N1 Mn1 1_555 1_555
N2 C8 1_555 1_555
N3 Mn1 1_555 1_555
N4 C28 1_555 1_555
N5 Mn1 1_555 1_555
N6 Mn2 1_555 1_555
N7 C1 1_555 1_555
N8 C1 1_555 1_555
N9 O2 1_555 1_555
N10 C11 1_555 1_555
N11 O3 1_555 1_555
N12 C21 1_555 1_555
C1 C8 1_555 1_555
C2 N7 1_555 1_555
C3 N8 1_555 1_555
C4 C2 1_555 1_555
C5 C2 1_555 1_555
C6 C3 1_555 1_555
C7 C3 1_555 1_555
C8 N1 1_555 1_555
C9 N1 1_555 1_555
C10 N2 1_555 1_555
C11 N9 1_555 1_555
C12 N9 1_555 1_555
C13 N10 1_555 1_555
C14 C12 1_555 1_555
C15 C12 1_555 1_555
C16 C13 1_555 1_555
C17 C13 1_555 1_555
C18 N3 1_555 1_555
C19 N3 1_555 1_555
C20 N6 1_555 1_555
C21 N11 1_555 1_555
C22 N11 1_555 1_555
C23 N12 1_555 1_555
C24 C22 1_555 1_555
C25 C22 1_555 1_555
C26 C23 1_555 1_555
C27 C23 1_555 1_555
C28 N5 1_555 1_555
C29 N5 1_555 1_555
C30 N4 1_555 1_555
C31 C30 1_555 1_555
C32 C31 1_555 1_555
C33 C32 1_555 1_555
C34 C29 1_555 1_555
C35 C10 1_555 1_555
C36 C35 1_555 1_555
C37 C36 1_555 1_555
C38 C9 1_555 1_555
C39 C20 1_555 1_555
C40 C39 1_555 1_555
C41 C40 1_555 1_555
C42 C19 1_555 1_555
S1 O7 1_555 1_555
O8 S1 1_555 1_555
O9 S1 1_555 1_555
O10 S1 1_555 1_555
C43 O10 1_555 1_555
C44 C43 1_555 1_555
C45 C44 1_555 1_555
C46 C45 1_555 1_555
C47 C46 1_555 1_555
C48 C47 1_555 1_555
C49 C48 1_555 1_555
C50 C49 1_555 1_555
C51 C50 1_555 1_555
C52 C51 1_555 1_555
C53 C52 1_555 1_555
H1 C35 1_555 1_555
H2 C36 1_555 1_555
H3 C37 1_555 1_555
H4 C38 1_555 1_555
H5 C31 1_555 1_555
H6 C32 1_555 1_555
H7 C33 1_555 1_555
H8 C34 1_555 1_555
H9 C39 1_555 1_555
H10 C40 1_555 1_555
H11 C41 1_555 1_555
H12 C42 1_555 1_555
H13 C24 1_555 1_555
H14 C24 1_555 1_555
H15 C24 1_555 1_555
H16 C25 1_555 1_555
H17 C25 1_555 1_555
H18 C25 1_555 1_555
H19 C26 1_555 1_555
H20 C26 1_555 1_555
H21 C26 1_555 1_555
H22 C27 1_555 1_555
H23 C27 1_555 1_555
H24 C27 1_555 1_555
H25 C14 1_555 1_555
H26 C14 1_555 1_555
H27 C14 1_555 1_555
H28 C15 1_555 1_555
H29 C15 1_555 1_555
H30 C15 1_555 1_555
H31 C16 1_555 1_555
H32 C16 1_555 1_555
H33 C16 1_555 1_555
H34 C17 1_555 1_555
H35 C17 1_555 1_555
H36 C17 1_555 1_555
H37 C4 1_555 1_555
H38 C4 1_555 1_555
H39 C4 1_555 1_555
H40 C5 1_555 1_555
H41 C5 1_555 1_555
H42 C5 1_555 1_555
H43 C6 1_555 1_555
H44 C6 1_555 1_555
H45 C6 1_555 1_555
H46 C7 1_555 1_555
H47 C7 1_555 1_555
H48 C7 1_555 1_555
H49 C44 1_555 1_555
H50 C44 1_555 1_555
H51 C45 1_555 1_555
H52 C45 1_555 1_555
H53 C46 1_555 1_555
H54 C46 1_555 1_555
H55 C47 1_555 1_555
H56 C47 1_555 1_555
H57 C48 1_555 1_555
H58 C48 1_555 1_555
H59 C49 1_555 1_555
H60 C49 1_555 1_555
H61 C50 1_555 1_555
H62 C50 1_555 1_555
H63 C51 1_555 1_555
H64 C51 1_555 1_555
H65 C52 1_555 1_555
H66 C52 1_555 1_555
H67 C53 1_555 1_555
H68 C53 1_555 1_555
H69 C53 1_555 1_555
H70 C43 1_555 1_555
H71 C43 1_555 1_555
Mn2_2 O5 1_555 1_555
Mn2A O6 1_555 1_555
O5_2 Mn2 1_555 1_555
O6A Mn2 1_555 1_555
N2A Mn2 1_555 1_555
N4_2 Mn2 1_555 1_555
N2 Mn2A 1_555 1_555
N4 Mn2_2 1_555 1_555
N6 C18 1_555 1_555
C2 C3 1_555 1_555
C9 C10 1_555 1_555
C11 C18 1_555 1_555
C12 C13 1_555 1_555
C19 C20 1_555 1_555
C21 C28 1_555 1_555
C22 C23 1_555 1_555
C29 C30 1_555 1_555
C33 C34 1_555 1_555
C37 C38 1_555 1_555
C41 C42 1_555 1_555

#END
