
#######################################################################
#
#                 Cambridge Crystallographic Data Centre
#                                CCDC 
#
#######################################################################
#
# If this CIF has been generated from an entry in the Cambridge 
# Structural Database, then it will include bibliographic, chemical, 
# crystal, experimental, refinement or atomic coordinate data resulting 
# from the CCDC's data processing and validation procedures.
#
#######################################################################

data_AGAFIY
_symmetry_cell_setting           orthorhombic
_symmetry_space_group_name_H-M   'P 21 21 21'
_symmetry_Int_Tables_number      19
_space_group_name_Hall           'P 2ac 2ab'
loop_
_symmetry_equiv_pos_site_id
_symmetry_equiv_pos_as_xyz
1 x,y,z
2 1/2-x,-y,1/2+z
3 1/2+x,1/2-y,-z
4 -x,1/2+y,1/2-z
_cell_length_a                   30.45120
_cell_length_b                   11.24670
_cell_length_c                   18.55020
_cell_angle_alpha                90
_cell_angle_beta                 90
_cell_angle_gamma                90
_cell_volume                     6352.99
loop_
_atom_site_label
_atom_site_type_symbol
_atom_site_fract_x
_atom_site_fract_y
_atom_site_fract_z
Mn1 Mn 0.24625 0.32674 0.27763
Mn2 Mn 0.24783 0.18034 -0.02962
O1 O 0.27343 0.31798 0.38793
O2 O 0.18934 0.39957 0.30320
O3 O 0.30150 0.26704 0.24316
O4 O 0.26885 0.05629 0.03028
O5 O 0.31902 -0.10004 0.39411
O6 O 0.20077 0.76360 0.41570
N1 N 0.22286 0.14814 0.30303
N2 N 0.27759 0.70421 0.34672
N3 N 0.27132 0.50926 0.28692
N4 N 0.22703 -0.05702 0.35667
N5 N 0.22289 0.32889 0.17153
N6 N 0.22697 0.28051 0.05818
N7 N 0.30111 0.17229 0.19823
N8 N 0.29415 0.09867 0.08712
N9 N 0.29680 0.22149 0.40602
N10 N 0.31839 0.01763 0.41361
N11 N 0.19056 0.45777 0.36625
N12 N 0.19183 0.64274 0.41415
C1 C 0.27957 0.18187 0.13487
C2 C 0.34490 0.09385 0.18418
C3 C 0.32835 0.00473 0.11732
C4 C 0.38051 0.18286 0.16414
C5 C 0.35152 0.01346 0.24478
C6 C 0.30473 -0.11692 0.13722
C7 C 0.36324 -0.01753 0.06481
C8 C 0.24179 0.24462 0.12545
C9 C 0.18683 0.39894 0.13956
C10 C 0.19115 0.36123 0.07034
C11 C 0.28502 0.10087 0.38788
C12 C 0.33737 0.21679 0.45343
C13 C 0.34890 0.08176 0.46128
C14 C 0.32383 0.29472 0.51428
C15 C 0.36574 0.30765 0.41304
C16 C 0.34102 0.03041 0.53484
C17 C 0.39430 0.04502 0.43302
C18 C 0.24704 0.06284 0.34679
C19 C 0.19187 0.07797 0.28613
C20 C 0.19071 -0.03937 0.31298
C21 C 0.21272 0.56496 0.36637
C22 C 0.15105 0.45357 0.40932
C23 C 0.16071 0.56400 0.45752
C24 C 0.11142 0.47672 0.35471
C25 C 0.14595 0.32697 0.43905
C26 C 0.18978 0.52268 0.52134
C27 C 0.12077 0.65387 0.47578
C28 C 0.25536 0.59550 0.32778
C29 C 0.31077 0.56194 0.26297
C30 C 0.31283 0.67933 0.30080
C31 C 0.34948 0.76387 0.29069
C32 C 0.38406 0.73103 0.24274
C33 C 0.38199 0.61363 0.20494
C34 C 0.34535 0.52909 0.21504
C35 C 0.16117 0.40395 0.02059
C36 C 0.12691 0.48438 0.04003
C37 C 0.12259 0.52210 0.10926
C38 C 0.15254 0.47938 0.15901
C39 C 0.15774 -0.11852 0.29608
C40 C 0.12587 -0.08029 0.25234
C41 C 0.12701 0.03702 0.22546
C42 C 0.15999 0.11617 0.24237
H1 H 0.37135 0.23139 0.12302
H2 H 0.40743 0.13483 0.15330
H3 H 0.38645 0.24117 0.20294
H4 H 0.32519 -0.03915 0.25219
H5 H 0.35661 0.06660 0.28606
H6 H 0.37725 -0.04127 0.23712
H7 H 0.28183 -0.09823 0.17189
H8 H 0.32605 -0.17710 0.15695
H9 H 0.29098 -0.15418 0.09555
H10 H 0.37777 0.06297 0.05347
H11 H 0.34996 -0.05349 0.02250
H12 H 0.38506 -0.07712 0.08363
H13 H 0.31733 0.38145 0.49887
H14 H 0.34787 0.29663 0.54859
H15 H 0.29738 0.25770 0.53569
H16 H 0.35228 0.39220 0.41386
H17 H 0.36837 0.27844 0.36469
H18 H 0.39520 0.31163 0.43432
H19 H 0.34948 -0.05942 0.53669
H20 H 0.30965 0.03889 0.54681
H21 H 0.35889 0.07863 0.56837
H22 H 0.39925 -0.04594 0.44064
H23 H 0.41723 0.09372 0.45739
H24 H 0.39562 0.06351 0.38292
H25 H 0.11437 0.56142 0.33398
H26 H 0.08300 0.47041 0.37903
H27 H 0.11276 0.41251 0.31776
H28 H 0.13980 0.26600 0.40166
H29 H 0.12135 0.32707 0.47241
H30 H 0.17328 0.30280 0.46314
H31 H 0.19530 0.59625 0.55143
H32 H 0.21804 0.48890 0.50451
H33 H 0.17423 0.45694 0.54795
H34 H 0.13085 0.72101 0.50743
H35 H 0.09737 0.60432 0.49847
H36 H 0.10923 0.69203 0.43285
H37 H 0.41319 0.79823 0.23469
H38 H 0.40948 0.58752 0.16681
H39 H 0.34369 0.43578 0.18499
H40 H 0.35113 0.85718 0.32074
H41 H 0.16472 0.37301 -0.03617
H42 H 0.10232 0.51942 -0.00076
H43 H 0.09448 0.58807 0.12520
H44 H 0.14901 0.51031 0.21576
H45 H 0.15677 -0.21841 0.31895
H46 H 0.09780 -0.14767 0.23794
H47 H 0.09987 0.06957 0.18822
H48 H 0.16095 0.21606 0.21949
Mn2A Mn 0.25217 -0.18034 0.47038
Mn2A_2 Mn 0.25217 0.81966 0.47038
O5A O 0.18098 0.10004 -0.10589
O6A O 0.29923 0.23640 -0.08430
N2A N 0.22241 0.29579 -0.15328
N4A N 0.27297 0.05702 -0.14333
S1 S 0.51649 0.07123 0.54232
O7 O 0.55993 0.11542 0.50078
O8 O 0.52308 0.06850 0.62257
O9 O 0.47407 0.19299 0.53673
O10 O 0.50907 -0.09032 0.51015
C43 C 0.54989 0.18240 -0.12986
C44 C 0.56158 0.30107 -0.16957
C45 C 0.51883 0.36114 -0.19706
C46 C 0.52871 0.49414 -0.21978
C47 C 0.44798 0.03362 -0.10749
C48 C 0.46288 -0.08509 -0.13610
C49 C 0.50352 -0.08035 0.44041
C50 C 0.51411 -0.20245 0.41111
C51 C 0.54007 -0.19084 0.34283
C52 C 0.51274 -0.12570 0.29690
C53 C 0.52586 -0.14349 0.23394
C54 C 0.50002 -0.06329 0.19338
C55 C 0.50523 -0.09846 0.11882
C56 C 0.45835 -0.05296 0.08644
C57 C 0.46461 0.00265 0.01393
C58 C 0.42751 -0.01936 -0.03136
C59 C 0.51549 -0.05378 -0.14943
C60 C 0.53076 0.08717 -0.18102
H49 H 0.53512 -0.04875 0.09584
H50 H 0.57587 0.15013 -0.10868
H51 H 0.52854 0.20020 -0.09501
H52 H 0.57625 0.35649 -0.13911
H53 H 0.58050 0.28178 -0.20755
H54 H 0.50812 0.31564 -0.23575
H55 H 0.49706 0.36164 -0.16134
H56 H 0.53942 0.53963 -0.18109
H57 H 0.55047 0.49365 -0.25551
H58 H 0.50232 0.53120 -0.23674
H59 H 0.47631 0.10445 -0.10503
H60 H 0.42394 0.09047 -0.14584
H61 H 0.45891 -0.15966 -0.09774
H62 H 0.43859 -0.12287 -0.18590
H63 H 0.46287 -0.04395 0.43421
H64 H 0.53221 -0.02214 0.41155
H65 H 0.47551 -0.23982 0.40814
H66 H 0.54103 -0.26526 0.44374
H67 H 0.53936 -0.24904 0.32809
H68 H 0.56919 -0.12548 0.35842
H69 H 0.50737 -0.03108 0.32130
H70 H 0.47659 -0.16730 0.29949
H71 H 0.56252 -0.10510 0.22511
H72 H 0.52635 -0.23728 0.20926
H73 H 0.51678 0.04041 0.19540
H74 H 0.45999 -0.08058 0.21684
H75 H 0.50905 -0.20223 0.11334
H76 H 0.43524 0.02903 0.11595
H77 H 0.44203 -0.14284 0.08732
H78 H 0.46465 0.11508 0.01345
H79 H 0.49861 -0.05323 -0.00752
H80 H 0.39577 0.02619 -0.00963
H81 H 0.41531 -0.12608 -0.02918
H82 H 0.52565 -0.07794 -0.09624
H83 H 0.53381 -0.11099 -0.18915
H84 H 0.55949 0.09468 -0.21676
H85 H 0.49896 0.11270 -0.20747
loop_
_geom_bond_atom_site_label_1
_geom_bond_atom_site_label_2
_geom_bond_site_symmetry_1
_geom_bond_site_symmetry_2
Mn1 O1 1_555 1_555
Mn2 O4 1_555 1_555
O1 N9 1_555 1_555
O2 Mn1 1_555 1_555
O3 Mn1 1_555 1_555
O4 N8 1_555 1_555
O5 N10 1_555 1_555
O6 N12 1_555 1_555
N1 Mn1 1_555 1_555
N2 C28 1_555 1_555
N3 Mn1 1_555 1_555
N4 C18 1_555 1_555
N5 Mn1 1_555 1_555
N6 Mn2 1_555 1_555
N7 O3 1_555 1_555
N8 C1 1_555 1_555
N9 C11 1_555 1_555
N10 C11 1_555 1_555
N11 O2 1_555 1_555
N12 C21 1_555 1_555
C1 N7 1_555 1_555
C2 N7 1_555 1_555
C3 N8 1_555 1_555
C4 C2 1_555 1_555
C5 C2 1_555 1_555
C6 C3 1_555 1_555
C7 C3 1_555 1_555
C8 N5 1_555 1_555
C9 N5 1_555 1_555
C10 N6 1_555 1_555
C11 C18 1_555 1_555
C12 N9 1_555 1_555
C13 N10 1_555 1_555
C14 C12 1_555 1_555
C15 C12 1_555 1_555
C16 C13 1_555 1_555
C17 C13 1_555 1_555
C18 N1 1_555 1_555
C19 N1 1_555 1_555
C20 N4 1_555 1_555
C21 N11 1_555 1_555
C22 N11 1_555 1_555
C23 N12 1_555 1_555
C24 C22 1_555 1_555
C25 C22 1_555 1_555
C26 C23 1_555 1_555
C27 C23 1_555 1_555
C28 N3 1_555 1_555
C29 N3 1_555 1_555
C30 N2 1_555 1_555
C31 C30 1_555 1_555
C32 C31 1_555 1_555
C33 C32 1_555 1_555
C34 C29 1_555 1_555
C35 C10 1_555 1_555
C36 C35 1_555 1_555
C37 C36 1_555 1_555
C38 C9 1_555 1_555
C39 C20 1_555 1_555
C40 C39 1_555 1_555
C41 C40 1_555 1_555
C42 C19 1_555 1_555
S1 O7 1_555 1_555
O8 S1 1_555 1_555
O9 S1 1_555 1_555
O10 S1 1_555 1_555
C43 C44 1_555 1_555
C44 C45 1_555 1_555
C45 C46 1_555 1_555
C46 H56 1_555 1_555
C47 C48 1_555 1_555
C48 C59 1_555 1_555
C49 O10 1_555 1_555
C50 C49 1_555 1_555
C51 C50 1_555 1_555
C52 C51 1_555 1_555
C53 C52 1_555 1_555
C54 C53 1_555 1_555
C55 C54 1_555 1_555
C56 C55 1_555 1_555
C57 C56 1_555 1_555
C58 C47 1_555 1_555
C59 C60 1_555 1_555
C60 C43 1_555 1_555
H1 C4 1_555 1_555
H2 C4 1_555 1_555
H3 C4 1_555 1_555
H4 C5 1_555 1_555
H5 C5 1_555 1_555
H6 C5 1_555 1_555
H7 C6 1_555 1_555
H8 C6 1_555 1_555
H9 C6 1_555 1_555
H10 C7 1_555 1_555
H11 C7 1_555 1_555
H12 C7 1_555 1_555
H13 C14 1_555 1_555
H14 C14 1_555 1_555
H15 C14 1_555 1_555
H16 C15 1_555 1_555
H17 C15 1_555 1_555
H18 C15 1_555 1_555
H19 C16 1_555 1_555
H20 C16 1_555 1_555
H21 C16 1_555 1_555
H22 C17 1_555 1_555
H23 C17 1_555 1_555
H24 C17 1_555 1_555
H25 C24 1_555 1_555
H26 C24 1_555 1_555
H27 C24 1_555 1_555
H28 C25 1_555 1_555
H29 C25 1_555 1_555
H30 C25 1_555 1_555
H31 C26 1_555 1_555
H32 C26 1_555 1_555
H33 C26 1_555 1_555
H34 C27 1_555 1_555
H35 C27 1_555 1_555
H36 C27 1_555 1_555
H37 C32 1_555 1_555
H38 C33 1_555 1_555
H39 C34 1_555 1_555
H40 C31 1_555 1_555
H41 C35 1_555 1_555
H42 C36 1_555 1_555
H43 C37 1_555 1_555
H44 C38 1_555 1_555
H45 C39 1_555 1_555
H46 C40 1_555 1_555
H47 C41 1_555 1_555
H48 C42 1_555 1_555
H49 C55 1_555 1_555
H50 C43 1_555 1_555
H51 C43 1_555 1_555
H52 C44 1_555 1_555
H53 C44 1_555 1_555
H54 C45 1_555 1_555
H55 C45 1_555 1_555
H57 C46 1_555 1_555
H58 C46 1_555 1_555
H59 C47 1_555 1_555
H60 C47 1_555 1_555
H61 C48 1_555 1_555
H62 C48 1_555 1_555
H63 C49 1_555 1_555
H64 C49 1_555 1_555
H65 C50 1_555 1_555
H66 C50 1_555 1_555
H67 C51 1_555 1_555
H68 C51 1_555 1_555
H69 C52 1_555 1_555
H70 C52 1_555 1_555
H71 C53 1_555 1_555
H72 C53 1_555 1_555
H73 C54 1_555 1_555
H74 C54 1_555 1_555
H75 C55 1_555 1_555
H76 C56 1_555 1_555
H77 C56 1_555 1_555
H78 C57 1_555 1_555
H79 C57 1_555 1_555
H80 C58 1_555 1_555
H81 C58 1_555 1_555
H82 C59 1_555 1_555
H83 C59 1_555 1_555
H84 C60 1_555 1_555
H85 C60 1_555 1_555
Mn2A O5 1_555 1_555
Mn2A_2 O6 1_555 1_555
O5A Mn2 1_555 1_555
O6A Mn2 1_555 1_555
N2A Mn2 1_555 1_555
N4A Mn2 1_555 1_555
N2 Mn2A_2 1_555 1_555
N4 Mn2A 1_555 1_555
N6 C8 1_555 1_555
C1 C8 1_555 1_555
C2 C3 1_555 1_555
C9 C10 1_555 1_555
C12 C13 1_555 1_555
C19 C20 1_555 1_555
C21 C28 1_555 1_555
C22 C23 1_555 1_555
C29 C30 1_555 1_555
C33 C34 1_555 1_555
C37 C38 1_555 1_555
C41 C42 1_555 1_555
C57 C58 1_555 1_555

#END
