
#######################################################################
#
#                 Cambridge Crystallographic Data Centre
#                                CCDC 
#
#######################################################################
#
# If this CIF has been generated from an entry in the Cambridge 
# Structural Database, then it will include bibliographic, chemical, 
# crystal, experimental, refinement or atomic coordinate data resulting 
# from the CCDC's data processing and validation procedures.
#
#######################################################################

data_AGAFOE
_symmetry_cell_setting           orthorhombic
_symmetry_space_group_name_H-M   'P 21 21 21'
_symmetry_Int_Tables_number      19
_space_group_name_Hall           'P 2ac 2ab'
loop_
_symmetry_equiv_pos_site_id
_symmetry_equiv_pos_as_xyz
1 x,y,z
2 1/2-x,-y,1/2+z
3 1/2+x,1/2-y,-z
4 -x,1/2+y,1/2-z
_cell_length_a                   24.61790
_cell_length_b                   11.13280
_cell_length_c                   18.49690
_cell_angle_alpha                90
_cell_angle_beta                 90
_cell_angle_gamma                90
_cell_volume                     5069.37
loop_
_atom_site_label
_atom_site_type_symbol
_atom_site_fract_x
_atom_site_fract_y
_atom_site_fract_z
Mn1 Mn 0.26091 0.68021 0.15206
Mn2 Mn 0.25613 0.81897 -0.16649
O1 O 0.19165 0.72785 0.11598
O2 O 0.22698 0.68391 0.26625
O3 O 0.33256 0.62042 0.17891
O4 O 0.22695 0.93279 -0.10446
O5 O 0.16027 1.07191 0.27257
O6 O 0.32754 0.27408 0.29531
N1 N 0.28994 0.68211 0.04218
N2 N 0.23193 0.31804 0.22333
N3 N 0.28495 0.85283 0.17863
N4 N 0.27441 1.04608 0.23432
N5 N 0.23478 0.50352 0.16144
N6 N 0.28403 0.72742 -0.07536
N7 N 0.18983 0.81761 0.06943
N8 N 0.19682 0.88856 -0.04569
N9 N 0.19577 0.77138 0.28490
N10 N 0.16400 0.96070 0.29274
N11 N 0.33237 0.56506 0.24425
N12 N 0.33544 0.38984 0.29382
C1 C 0.21670 0.81212 0.00387
C2 C 0.13413 0.88479 0.05462
C3 C 0.15234 0.97186 -0.01457
C4 C 0.09274 0.79492 0.03356
C5 C 0.12375 0.95965 0.11745
C6 C 0.17815 1.09065 0.00628
C7 C 0.10909 0.98740 -0.06922
C8 C 0.26473 0.75886 -0.00568
C9 C 0.33612 0.62171 0.00924
C10 C 0.33006 0.65681 -0.06254
C11 C 0.20719 0.88739 0.26622
C12 C 0.14571 0.76923 0.33380
C13 C 0.12805 0.89506 0.34195
C14 C 0.16415 0.69758 0.39697
C15 C 0.11333 0.67881 0.29170
C16 C 0.13621 0.94475 0.41829
C17 C 0.07148 0.92257 0.31235
C18 C 0.25296 0.92953 0.22391
C19 C 0.32127 0.92420 0.16134
C20 C 0.31957 1.03531 0.18926
C21 C 0.30793 0.46011 0.24417
C22 C 0.38064 0.57530 0.28917
C23 C 0.37147 0.46921 0.33903
C24 C 0.43004 0.55987 0.23278
C25 C 0.38356 0.69580 0.32008
C26 C 0.33453 0.50351 0.40505
C27 C 0.42275 0.39061 0.35817
C28 C 0.25646 0.42445 0.20387
C29 C 0.18780 0.44743 0.13633
C30 C 0.18816 0.33601 0.17549
C31 C 0.14537 0.25018 0.16471
C32 C 0.10223 0.27578 0.11479
C33 C 0.10187 0.38719 0.07564
C34 C 0.14466 0.47302 0.08641
C35 C 0.36808 0.62131 -0.11397
C36 C 0.41216 0.55071 -0.09362
C37 C 0.41823 0.51562 -0.02185
C38 C 0.38020 0.55111 0.02958
C39 C 0.35809 1.11548 0.17198
C40 C 0.39831 1.08454 0.12680
C41 C 0.40001 0.97344 0.09887
C42 C 0.36150 0.89327 0.11616
H1 H 0.10534 0.75056 -0.00904
H2 H 0.05851 0.83604 0.02217
H3 H 0.08684 0.73875 0.07373
H4 H 0.15470 1.01361 0.12533
H5 H 0.11874 0.90848 0.16020
H6 H 0.09078 1.00727 0.10937
H7 H 0.20664 1.07660 0.04239
H8 H 0.15038 1.14411 0.02663
H9 H 0.19419 1.12819 -0.03682
H10 H 0.09336 0.90894 -0.08112
H11 H 0.12459 1.02361 -0.11299
H12 H 0.08072 1.04022 -0.04982
H13 H 0.17441 0.61663 0.38099
H14 H 0.13459 0.69186 0.43239
H15 H 0.19561 0.73681 0.41935
H16 H 0.13203 0.60101 0.29259
H17 H 0.10951 0.70611 0.24156
H18 H 0.07720 0.67028 0.31357
H19 H 0.12351 1.02835 0.42021
H20 H 0.17492 0.94176 0.43091
H21 H 0.11542 0.89622 0.45292
H22 H 0.06305 1.00778 0.32027
H23 H 0.04452 0.87278 0.33746
H24 H 0.07049 0.90496 0.26037
H25 H 0.42866 0.47933 0.21123
H26 H 0.46469 0.57035 0.25820
H27 H 0.42686 0.62047 0.19449
H28 H 0.38966 0.75452 0.28139
H29 H 0.41367 0.69958 0.35484
H30 H 0.34932 0.71422 0.34491
H31 H 0.32956 0.43298 0.43618
H32 H 0.29903 0.53096 0.38743
H33 H 0.35188 0.56812 0.43278
H34 H 0.41200 0.32544 0.39091
H35 H 0.45014 0.44119 0.38188
H36 H 0.43804 0.35646 0.31372
H37 H 0.06820 0.20756 0.10622
H38 H 0.06756 0.40755 0.03596
H39 H 0.14437 0.56158 0.05530
H40 H 0.14566 0.16161 0.19582
H41 H 0.36311 0.65010 -0.17283
H42 H 0.44335 0.52160 -0.13579
H43 H 0.45437 0.45771 -0.00515
H44 H 0.38517 0.52233 0.08844
H45 H 0.35664 1.21007 0.19575
H46 H 0.43110 1.15280 0.11209
H47 H 0.43426 0.94710 0.06040
H48 H 0.36294 0.79868 0.09238
Mn2A Mn 0.24387 1.18103 0.33351
Mn2A_2 Mn 0.24387 0.18103 0.33351
O5A O 0.33973 0.92809 -0.22743
O6A O 0.17246 0.72592 -0.20469
N2A N 0.26807 0.68196 -0.27667
N4A N 0.22559 0.95392 -0.26568
Cl1 Cl 0.00319 0.22513 0.00900
O7 O -0.02211 0.29680 0.06328
O8 O -0.02837 0.20210 -0.05202
O9 O 0.05212 0.28835 -0.01537
O10 O 0.02081 0.12131 0.03768
loop_
_geom_bond_atom_site_label_1
_geom_bond_atom_site_label_2
_geom_bond_site_symmetry_1
_geom_bond_site_symmetry_2
Mn1 O1 1_555 1_555
Mn2 O4 1_555 1_555
O1 N7 1_555 1_555
O2 Mn1 1_555 1_555
O3 Mn1 1_555 1_555
O4 N8 1_555 1_555
O5 N10 1_555 1_555
O6 N12 1_555 1_555
N1 Mn1 1_555 1_555
N2 C28 1_555 1_555
N3 Mn1 1_555 1_555
N4 C18 1_555 1_555
N5 Mn1 1_555 1_555
N6 Mn2 1_555 1_555
N7 C1 1_555 1_555
N8 C1 1_555 1_555
N9 O2 1_555 1_555
N10 C11 1_555 1_555
N11 O3 1_555 1_555
N12 C21 1_555 1_555
C1 C8 1_555 1_555
C2 N7 1_555 1_555
C3 N8 1_555 1_555
C4 C2 1_555 1_555
C5 C2 1_555 1_555
C6 C3 1_555 1_555
C7 C3 1_555 1_555
C8 N1 1_555 1_555
C9 N1 1_555 1_555
C10 N6 1_555 1_555
C11 N9 1_555 1_555
C12 N9 1_555 1_555
C13 N10 1_555 1_555
C14 C12 1_555 1_555
C15 C12 1_555 1_555
C16 C13 1_555 1_555
C17 C13 1_555 1_555
C18 N3 1_555 1_555
C19 N3 1_555 1_555
C20 N4 1_555 1_555
C21 N11 1_555 1_555
C22 N11 1_555 1_555
C23 N12 1_555 1_555
C24 C22 1_555 1_555
C25 C22 1_555 1_555
C26 C23 1_555 1_555
C27 C23 1_555 1_555
C28 N5 1_555 1_555
C29 N5 1_555 1_555
C30 N2 1_555 1_555
C31 C30 1_555 1_555
C32 C31 1_555 1_555
C33 C32 1_555 1_555
C34 C29 1_555 1_555
C35 C10 1_555 1_555
C36 C35 1_555 1_555
C37 C36 1_555 1_555
C38 C9 1_555 1_555
C39 C20 1_555 1_555
C40 C39 1_555 1_555
C41 C40 1_555 1_555
C42 C19 1_555 1_555
Cl1 O7 1_555 1_555
O8 Cl1 1_555 1_555
O9 Cl1 1_555 1_555
O10 Cl1 1_555 1_555
H1 C4 1_555 1_555
H2 C4 1_555 1_555
H3 C4 1_555 1_555
H4 C5 1_555 1_555
H5 C5 1_555 1_555
H6 C5 1_555 1_555
H7 C6 1_555 1_555
H8 C6 1_555 1_555
H9 C6 1_555 1_555
H10 C7 1_555 1_555
H11 C7 1_555 1_555
H12 C7 1_555 1_555
H13 C14 1_555 1_555
H14 C14 1_555 1_555
H15 C14 1_555 1_555
H16 C15 1_555 1_555
H17 C15 1_555 1_555
H18 C15 1_555 1_555
H19 C16 1_555 1_555
H20 C16 1_555 1_555
H21 C16 1_555 1_555
H22 C17 1_555 1_555
H23 C17 1_555 1_555
H24 C17 1_555 1_555
H25 C24 1_555 1_555
H26 C24 1_555 1_555
H27 C24 1_555 1_555
H28 C25 1_555 1_555
H29 C25 1_555 1_555
H30 C25 1_555 1_555
H31 C26 1_555 1_555
H32 C26 1_555 1_555
H33 C26 1_555 1_555
H34 C27 1_555 1_555
H35 C27 1_555 1_555
H36 C27 1_555 1_555
H37 C32 1_555 1_555
H38 C33 1_555 1_555
H39 C34 1_555 1_555
H40 C31 1_555 1_555
H41 C35 1_555 1_555
H42 C36 1_555 1_555
H43 C37 1_555 1_555
H44 C38 1_555 1_555
H45 C39 1_555 1_555
H46 C40 1_555 1_555
H47 C41 1_555 1_555
H48 C42 1_555 1_555
Mn2A O5 1_555 1_555
Mn2A_2 O6 1_555 1_555
O5A Mn2 1_555 1_555
O6A Mn2 1_555 1_555
N2A Mn2 1_555 1_555
N4A Mn2 1_555 1_555
N2 Mn2A_2 1_555 1_555
N4 Mn2A 1_555 1_555
N6 C8 1_555 1_555
C2 C3 1_555 1_555
C9 C10 1_555 1_555
C11 C18 1_555 1_555
C12 C13 1_555 1_555
C19 C20 1_555 1_555
C21 C28 1_555 1_555
C22 C23 1_555 1_555
C29 C30 1_555 1_555
C33 C34 1_555 1_555
C37 C38 1_555 1_555
C41 C42 1_555 1_555

#END
