
#######################################################################
#
#                 Cambridge Crystallographic Data Centre
#                                CCDC 
#
#######################################################################
#
# If this CIF has been generated from an entry in the Cambridge 
# Structural Database, then it will include bibliographic, chemical, 
# crystal, experimental, refinement or atomic coordinate data resulting 
# from the CCDC's data processing and validation procedures.
#
#######################################################################

data_AGAFAQ
_symmetry_cell_setting           orthorhombic
_symmetry_space_group_name_H-M   'P 21 21 21'
_symmetry_Int_Tables_number      19
_space_group_name_Hall           'P 2ac 2ab'
loop_
_symmetry_equiv_pos_site_id
_symmetry_equiv_pos_as_xyz
1 x,y,z
2 1/2-x,-y,1/2+z
3 1/2+x,1/2-y,-z
4 -x,1/2+y,1/2-z
_cell_length_a                   29.21520
_cell_length_b                   11.31000
_cell_length_c                   17.98320
_cell_angle_alpha                90
_cell_angle_beta                 90
_cell_angle_gamma                90
_cell_volume                     5942.08
loop_
_atom_site_label
_atom_site_type_symbol
_atom_site_fract_x
_atom_site_fract_y
_atom_site_fract_z
Mn1 Mn 0.23973 0.31026 0.40827
Mn2 Mn 0.24338 0.17335 0.07954
O1 O 0.29760 0.25632 0.37197
O2 O 0.26756 0.30301 0.52655
O3 O 0.18011 0.37644 0.43501
O4 O 0.26560 0.05803 0.14386
O5 O 0.31697 -0.08648 0.53369
O6 O 0.18973 0.71741 0.55548
N1 N 0.21590 0.31147 0.29448
N2 N 0.27013 0.66447 0.48251
N3 N 0.21621 0.14238 0.43520
N4 N 0.22132 -0.04939 0.49266
N5 N 0.26486 0.48188 0.41846
N6 N 0.22085 0.26635 0.17326
N7 N 0.29784 0.16765 0.32390
N8 N 0.29144 0.09854 0.20495
N9 N 0.29223 0.21355 0.54618
N10 N 0.31566 0.02359 0.55454
N11 N 0.18083 0.43094 0.50248
N12 N 0.18102 0.60402 0.55373
C1 C 0.27568 0.17588 0.25588
C2 C 0.34377 0.09577 0.30933
C3 C 0.32731 0.01183 0.23761
C4 C 0.38044 0.18028 0.28826
C5 C 0.35080 0.02080 0.37425
C6 C 0.30328 -0.10277 0.25867
C7 C 0.36390 -0.00780 0.18182
C8 C 0.23614 0.23328 0.24540
C9 C 0.17820 0.37577 0.25990
C10 C 0.18316 0.34064 0.18589
C11 C 0.28067 0.10030 0.52664
C12 C 0.33422 0.21054 0.59732
C13 C 0.34686 0.08462 0.60587
C14 C 0.31951 0.28300 0.66230
C15 C 0.36344 0.29652 0.55441
C16 C 0.33859 0.03633 0.68448
C17 C 0.39431 0.05181 0.57610
C18 C 0.24156 0.06342 0.48230
C19 C 0.18439 0.07566 0.41680
C20 C 0.18368 -0.03414 0.44553
C21 C 0.20334 0.53199 0.50283
C22 C 0.13961 0.42566 0.54815
C23 C 0.14891 0.52930 0.59980
C24 C 0.09855 0.44595 0.48929
C25 C 0.13482 0.30705 0.57990
C26 C 0.17906 0.49164 0.66841
C27 C 0.10688 0.61200 0.61891
C28 C 0.24767 0.56202 0.46200
C29 C 0.30566 0.53251 0.39326
C30 C 0.30708 0.64240 0.43374
C31 C 0.34479 0.72275 0.42329
C32 C 0.38109 0.69320 0.37236
C33 C 0.37967 0.58332 0.33189
C34 C 0.34196 0.50297 0.34233
C35 C 0.15203 0.37957 0.13233
C36 C 0.11593 0.45363 0.15276
C37 C 0.11096 0.48877 0.22677
C38 C 0.14210 0.44984 0.28033
C39 C 0.14986 -0.10931 0.42710
C40 C 0.11675 -0.07466 0.37994
C41 C 0.11746 0.03515 0.35120
C42 C 0.15128 0.11031 0.36963
H1 H 0.37086 0.22536 0.24416
H2 H 0.40869 0.13626 0.27695
H3 H 0.38615 0.23502 0.32984
H4 H 0.32367 -0.02932 0.38190
H5 H 0.35566 0.07070 0.41847
H6 H 0.37786 -0.02951 0.36633
H7 H 0.27925 -0.08608 0.29554
H8 H 0.32565 -0.15834 0.28002
H9 H 0.28936 -0.13812 0.21395
H10 H 0.37866 0.06802 0.16984
H11 H 0.35046 -0.04190 0.13641
H12 H 0.38680 -0.06280 0.20219
H13 H 0.31239 0.36391 0.64573
H14 H 0.34434 0.28559 0.69926
H15 H 0.29210 0.24745 0.68492
H16 H 0.34902 0.37516 0.55513
H17 H 0.36650 0.26928 0.50271
H18 H 0.39394 0.30126 0.57749
H19 H 0.34783 -0.04743 0.68657
H20 H 0.30589 0.04316 0.69697
H21 H 0.35677 0.08205 0.72055
H22 H 0.39988 -0.03311 0.58432
H23 H 0.41780 0.09816 0.60242
H24 H 0.39580 0.06915 0.52250
H25 H 0.10129 0.52528 0.46715
H26 H 0.06894 0.43907 0.51502
H27 H 0.10041 0.38591 0.44976
H28 H 0.12888 0.24980 0.53984
H29 H 0.10911 0.30631 0.61534
H30 H 0.16324 0.28537 0.60598
H31 H 0.18430 0.56067 0.70066
H32 H 0.20866 0.46101 0.65071
H33 H 0.16309 0.42962 0.69672
H34 H 0.11690 0.67516 0.65289
H35 H 0.08271 0.56485 0.64295
H36 H 0.09487 0.64729 0.57286
H37 H 0.41107 0.75708 0.36406
H38 H 0.40853 0.55984 0.29140
H39 H 0.34085 0.41563 0.31015
H40 H 0.34591 0.81010 0.45545
H41 H 0.15609 0.35075 0.07164
H42 H 0.09039 0.48556 0.10884
H43 H 0.08136 0.54951 0.24354
H44 H 0.13803 0.47866 0.34102
H45 H 0.14925 -0.20280 0.45157
H46 H 0.08795 -0.13865 0.36425
H47 H 0.08926 0.06465 0.31104
H48 H 0.15189 0.20380 0.34517
Mn2A Mn 0.25662 -0.17335 0.57954
Mn2A_2 Mn 0.25662 0.82665 0.57954
O5A O 0.18303 0.08648 0.03369
O6A O 0.31027 0.28259 0.05548
N2A N 0.22987 0.33553 -0.01749
N4A N 0.27868 0.04939 -0.00734
S1 S 0.06220 0.26711 0.11927
O7 O 0.04929 0.36290 0.18242
O8 O 0.08557 0.33772 0.05124
O9 O 0.10045 0.18001 0.15386
O10 O 0.01411 0.18934 0.08941
C43 C -0.02116 0.28409 0.76632
C44 C 0.01433 0.26881 0.82838
C45 C -0.00416 0.12931 0.15102
C46 C -0.02633 0.21893 0.20344
C47 C -0.00926 0.20277 0.28360
C48 C 0.00315 0.32160 0.32068
C49 C 0.00544 0.31533 0.40603
C50 C -0.00316 0.19043 0.43631
C51 C 0.01328 0.17952 0.51700
C52 C -0.00533 0.28100 0.56477
C53 C 0.01810 0.28392 0.64104
C54 C -0.00848 0.20996 0.69796
C55 C -0.00726 0.28664 0.90483
H49 H -0.05534 0.25604 0.78712
H50 H -0.02302 0.37896 0.75025
H51 H 0.02924 0.17847 0.82568
H52 H 0.04238 0.33420 0.82106
H53 H -0.03069 0.06504 0.13257
H54 H 0.02343 0.08191 0.18159
H55 H -0.06407 0.20822 0.20096
H56 H -0.01778 0.30970 0.18407
H57 H 0.02193 0.14637 0.28210
H58 H -0.03529 0.15458 0.31705
H59 H -0.02076 0.39302 0.30338
H60 H 0.03766 0.34841 0.30070
H61 H 0.03934 0.34778 0.42544
H62 H -0.02106 0.37614 0.42860
H63 H 0.01567 0.12518 0.40171
H64 H -0.04039 0.17026 0.43369
H65 H 0.05134 0.18120 0.51823
H66 H 0.00145 0.09374 0.54038
H67 H -0.04284 0.26938 0.57247
H68 H 0.00073 0.36642 0.53573
H69 H 0.05347 0.24846 0.63578
H70 H 0.02017 0.37697 0.66079
H71 H 0.01289 0.13357 0.71565
H72 H -0.04027 0.17551 0.67170
H73 H -0.02135 0.37757 0.90977
H74 H -0.03514 0.22142 0.91390
H75 H 0.01913 0.27398 0.94857
loop_
_geom_bond_atom_site_label_1
_geom_bond_atom_site_label_2
_geom_bond_site_symmetry_1
_geom_bond_site_symmetry_2
Mn1 O1 1_555 1_555
Mn2 O4 1_555 1_555
O1 N7 1_555 1_555
O2 Mn1 1_555 1_555
O3 Mn1 1_555 1_555
O4 N8 1_555 1_555
O5 N10 1_555 1_555
O6 N12 1_555 1_555
N1 Mn1 1_555 1_555
N2 C28 1_555 1_555
N3 Mn1 1_555 1_555
N4 C18 1_555 1_555
N5 Mn1 1_555 1_555
N6 Mn2 1_555 1_555
N7 C1 1_555 1_555
N8 C1 1_555 1_555
N9 O2 1_555 1_555
N10 C11 1_555 1_555
N11 O3 1_555 1_555
N12 C21 1_555 1_555
C1 C8 1_555 1_555
C2 N7 1_555 1_555
C3 N8 1_555 1_555
C4 C2 1_555 1_555
C5 C2 1_555 1_555
C6 C3 1_555 1_555
C7 C3 1_555 1_555
C8 N1 1_555 1_555
C9 N1 1_555 1_555
C10 N6 1_555 1_555
C11 N9 1_555 1_555
C12 N9 1_555 1_555
C13 N10 1_555 1_555
C14 C12 1_555 1_555
C15 C12 1_555 1_555
C16 C13 1_555 1_555
C17 C13 1_555 1_555
C18 N3 1_555 1_555
C19 N3 1_555 1_555
C20 N4 1_555 1_555
C21 N11 1_555 1_555
C22 N11 1_555 1_555
C23 N12 1_555 1_555
C24 C22 1_555 1_555
C25 C22 1_555 1_555
C26 C23 1_555 1_555
C27 C23 1_555 1_555
C28 N5 1_555 1_555
C29 N5 1_555 1_555
C30 N2 1_555 1_555
C31 C30 1_555 1_555
C32 C31 1_555 1_555
C33 C32 1_555 1_555
C34 C29 1_555 1_555
C35 C10 1_555 1_555
C36 C35 1_555 1_555
C37 C36 1_555 1_555
C38 C9 1_555 1_555
C39 C20 1_555 1_555
C40 C39 1_555 1_555
C41 C40 1_555 1_555
C42 C19 1_555 1_555
S1 O7 1_555 1_555
O8 S1 1_555 1_555
O9 S1 1_555 1_555
O10 S1 1_555 1_555
C43 C44 1_555 1_555
C44 C55 1_555 1_555
C45 O10 1_555 1_555
C46 C45 1_555 1_555
C47 C46 1_555 1_555
C48 C47 1_555 1_555
C49 C48 1_555 1_555
C50 C49 1_555 1_555
C51 C50 1_555 1_555
C52 C51 1_555 1_555
C53 C52 1_555 1_555
C54 C43 1_555 1_555
C55 H73 1_555 1_555
H1 C4 1_555 1_555
H2 C4 1_555 1_555
H3 C4 1_555 1_555
H4 C5 1_555 1_555
H5 C5 1_555 1_555
H6 C5 1_555 1_555
H7 C6 1_555 1_555
H8 C6 1_555 1_555
H9 C6 1_555 1_555
H10 C7 1_555 1_555
H11 C7 1_555 1_555
H12 C7 1_555 1_555
H13 C14 1_555 1_555
H14 C14 1_555 1_555
H15 C14 1_555 1_555
H16 C15 1_555 1_555
H17 C15 1_555 1_555
H18 C15 1_555 1_555
H19 C16 1_555 1_555
H20 C16 1_555 1_555
H21 C16 1_555 1_555
H22 C17 1_555 1_555
H23 C17 1_555 1_555
H24 C17 1_555 1_555
H25 C24 1_555 1_555
H26 C24 1_555 1_555
H27 C24 1_555 1_555
H28 C25 1_555 1_555
H29 C25 1_555 1_555
H30 C25 1_555 1_555
H31 C26 1_555 1_555
H32 C26 1_555 1_555
H33 C26 1_555 1_555
H34 C27 1_555 1_555
H35 C27 1_555 1_555
H36 C27 1_555 1_555
H37 C32 1_555 1_555
H38 C33 1_555 1_555
H39 C34 1_555 1_555
H40 C31 1_555 1_555
H41 C35 1_555 1_555
H42 C36 1_555 1_555
H43 C37 1_555 1_555
H44 C38 1_555 1_555
H45 C39 1_555 1_555
H46 C40 1_555 1_555
H47 C41 1_555 1_555
H48 C42 1_555 1_555
H49 C43 1_555 1_555
H50 C43 1_555 1_555
H51 C44 1_555 1_555
H52 C44 1_555 1_555
H53 C45 1_555 1_555
H54 C45 1_555 1_555
H55 C46 1_555 1_555
H56 C46 1_555 1_555
H57 C47 1_555 1_555
H58 C47 1_555 1_555
H59 C48 1_555 1_555
H60 C48 1_555 1_555
H61 C49 1_555 1_555
H62 C49 1_555 1_555
H63 C50 1_555 1_555
H64 C50 1_555 1_555
H65 C51 1_555 1_555
H66 C51 1_555 1_555
H67 C52 1_555 1_555
H68 C52 1_555 1_555
H69 C53 1_555 1_555
H70 C53 1_555 1_555
H71 C54 1_555 1_555
H72 C54 1_555 1_555
H74 C55 1_555 1_555
H75 C55 1_555 1_555
Mn2A O5 1_555 1_555
Mn2A_2 O6 1_555 1_555
O5A Mn2 1_555 1_555
O6A Mn2 1_555 1_555
N2A Mn2 1_555 1_555
N4A Mn2 1_555 1_555
N2 Mn2A_2 1_555 1_555
N4 Mn2A 1_555 1_555
N6 C8 1_555 1_555
C2 C3 1_555 1_555
C9 C10 1_555 1_555
C11 C18 1_555 1_555
C12 C13 1_555 1_555
C19 C20 1_555 1_555
C21 C28 1_555 1_555
C22 C23 1_555 1_555
C29 C30 1_555 1_555
C33 C34 1_555 1_555
C37 C38 1_555 1_555
C41 C42 1_555 1_555
C53 C54 1_555 1_555

#END
