
#######################################################################
#
#                 Cambridge Crystallographic Data Centre
#                                CCDC 
#
#######################################################################
#
# If this CIF has been generated from an entry in the Cambridge 
# Structural Database, then it will include bibliographic, chemical, 
# crystal, experimental, refinement or atomic coordinate data resulting 
# from the CCDC's data processing and validation procedures.
#
#######################################################################

data_AGAMAY
_symmetry_cell_setting           triclinic
_symmetry_space_group_name_H-M   'P 1'
_symmetry_Int_Tables_number      1
_space_group_name_Hall           'P 1'
loop_
_symmetry_equiv_pos_site_id
_symmetry_equiv_pos_as_xyz
1 x,y,z
_cell_length_a                   6.6359(2)
_cell_length_b                   7.1541(2)
_cell_length_c                   7.4077(2)
_cell_angle_alpha                100.120(1)
_cell_angle_beta                 103.445(1)
_cell_angle_gamma                108.058(1)
_cell_volume                     313.294
loop_
_atom_site_label
_atom_site_type_symbol
_atom_site_fract_x
_atom_site_fract_y
_atom_site_fract_z
Cu1 Cu 0.494611(15) 0.938820(15) 0.488792(15)
O1 O 0.1693(4) 0.8780(4) 0.5689(4)
H1 H 0.187(10) 0.910(10) 0.681(9)
H2 H 0.093(10) 0.916(9) 0.527(9)
C1 C 0.3042(5) 0.9215(5) 0.1121(4)
C2 C 0.2667(5) 0.6963(5) 0.0973(4)
H3 H 0.3477 0.6507 0.0110
C3 C 0.0170(5) 0.5577(4) 0.0157(4)
H4 H -0.0583 0.5895 0.1129
C4 C -0.0170(5) 0.3312(5) -0.0236(4)
H5 H 0.0339 0.3026 0.1032
C5 C -0.2618(5) 0.1889(5) -0.1223(4)
H6 H -0.3544 0.2255 -0.0435
C6 C -0.2860(5) -0.0336(5) -0.1362(4)
O2 O 0.3793(4) 1.0428(4) 0.2815(3)
O3 O 0.2619(3) 0.9799(3) -0.0369(3)
O4 O 0.3553(4) 0.6753(4) 0.2850(3)
H7 H 0.451(9) 0.582(9) 0.290(8)
O5 O -0.0840(3) 0.5978(3) -0.1561(3)
H8 H -0.132(9) 0.712(9) -0.126(8)
O6 O 0.1165(3) 0.2845(3) -0.1372(3)
H9 H 0.176(9) 0.208(9) -0.107(8)
O7 O -0.3459(4) 0.2043(4) -0.3139(3)
H10 H -0.410(9) 0.301(7) -0.297(8)
O8 O -0.2118(3) -0.0826(3) 0.0080(3)
O9 O -0.3861(4) -0.1628(4) -0.3029(3)
O10 O 0.8560(4) 1.0259(4) 0.4016(4)
H11 H 0.830(10) 0.994(10) 0.282(9)
H12 H 0.903(9) 1.136(9) 0.431(8)
Cu1_2 Cu -0.505389(15) -0.061180(15) -0.511208(15)
O7_2 O 0.6541(4) 1.2043(4) 0.6861(3)
O9_2 O 0.6139(4) 0.8372(4) 0.6971(3)
O11 O 0.5565(4) 0.4326(3) 0.2458(3)
H13 H 0.486(10) 0.332(11) 0.264(8)
H14 H 0.695(10) 0.461(9) 0.323(8)
O12 O 0.4114(4) 0.4186(4) 0.6523(4)
H15 H 0.472(10) 0.543(11) 0.687(8)
H16 H 0.342(10) 0.398(10) 0.705(9)
O13 O 0.9466(3) 0.4546(3) 0.4831(3)
H17 H 0.949(9) 0.507(8) 0.606(4)
H18 H 1.063(6) 0.568(5) 0.485(7)
loop_
_geom_bond_atom_site_label_1
_geom_bond_atom_site_label_2
_geom_bond_site_symmetry_1
_geom_bond_site_symmetry_2
Cu1 O1 1_555 1_555
O1 H1 1_555 1_555
H2 O1 1_555 1_555
C1 C2 1_555 1_555
C2 H3 1_555 1_555
C3 C2 1_555 1_555
H4 C3 1_555 1_555
C4 C3 1_555 1_555
H5 C4 1_555 1_555
C5 C4 1_555 1_555
H6 C5 1_555 1_555
C6 C5 1_555 1_555
O2 Cu1 1_555 1_555
O3 C1 1_555 1_555
O4 Cu1 1_555 1_555
H7 O4 1_555 1_555
O5 C3 1_555 1_555
H8 O5 1_555 1_555
O6 C4 1_555 1_555
H9 O6 1_555 1_555
O7 C5 1_555 1_555
H10 O7 1_555 1_555
O8 C6 1_555 1_555
O9 C6 1_555 1_555
O10 Cu1 1_555 1_555
H11 O10 1_555 1_555
H12 O10 1_555 1_555
O11 H13 1_555 1_555
H14 O11 1_555 1_555
O12 H15 1_555 1_555
H16 O12 1_555 1_555
O13 H17 1_555 1_555
H18 O13 1_555 1_555
Cu1_2 O7 1_555 1_555
O7_2 Cu1 1_555 1_555
O9_2 Cu1 1_555 1_555
C1 O2 1_555 1_555
C2 O4 1_555 1_555
O9 Cu1_2 1_555 1_555

#END
