
#######################################################################
#
#                 Cambridge Crystallographic Data Centre
#                                CCDC 
#
#######################################################################
#
# If this CIF has been generated from an entry in the Cambridge 
# Structural Database, then it will include bibliographic, chemical, 
# crystal, experimental, refinement or atomic coordinate data resulting 
# from the CCDC's data processing and validation procedures.
#
#######################################################################

data_AGAMUR01
_symmetry_cell_setting           monoclinic
_symmetry_space_group_name_H-M   'P 21/n'
_symmetry_Int_Tables_number      14
_space_group_name_Hall           '-P 2yn'
loop_
_symmetry_equiv_pos_site_id
_symmetry_equiv_pos_as_xyz
1 x,y,z
2 1/2-x,1/2+y,1/2-z
3 -x,-y,-z
4 1/2+x,1/2-y,1/2+z
_cell_length_a                   13.2696(10)
_cell_length_b                   11.9612(13)
_cell_length_c                   14.347(4)
_cell_angle_alpha                90
_cell_angle_beta                 110.053(13)
_cell_angle_gamma                90
_cell_volume                     2139.11
loop_
_atom_site_label
_atom_site_type_symbol
_atom_site_fract_x
_atom_site_fract_y
_atom_site_fract_z
C1 C 0.1174(2) 0.2489(3) 0.8732(2)
N9 N 0.1271(2) 0.5346(2) 0.9075(2)
N10 N 0.3914(2) 0.2885(2) 0.92736(19)
N11 N 0.1744(2) 0.0432(2) 0.8729(2)
N12 N -0.0730(2) 0.2860(2) 0.8756(2)
C16 C 0.1925(2) 0.3366(2) 0.8911(2)
C17 C 0.1603(2) 0.4476(3) 0.9010(2)
C18 C 0.3036(3) 0.3121(2) 0.9121(2)
C19 C 0.1488(2) 0.1357(3) 0.8743(2)
C20 C 0.0122(3) 0.2685(2) 0.8740(2)
Mn1 Mn 0.48841(3) 0.20250(4) 0.76384(4)
N1 N 0.61207(18) 0.21205(19) 0.91613(18)
H1 H 0.5759 0.2133 0.9613
N2 N 0.52921(19) 0.39259(19) 0.78608(18)
H2 H 0.4654 0.4318 0.7735
N3 N 0.52895(18) 0.24990(19) 0.62729(19)
H3 H 0.4775 0.2184 0.5721
N4 N 0.61575(18) 0.06935(19) 0.75820(18)
H4 H 0.5870 -0.0011 0.7603
N5 N 0.3250(2) 0.27270(19) 0.69504(18)
N6 N 0.08664(19) 0.5565(2) 0.68281(19)
N7 N -0.1346(2) 0.3260(2) 0.6400(2)
N8 N 0.1085(2) 0.0651(2) 0.6401(2)
C2 C 0.6746(2) 0.3163(2) 0.9293(2)
H5 H 0.7253 0.3116 0.8925
H6 H 0.7164 0.3276 1.0004
C3 C 0.5979(2) 0.4138(2) 0.8906(2)
H7 H 0.5523 0.4233 0.9321
H8 H 0.6393 0.4836 0.8944
C4 C 0.5788(2) 0.4289(2) 0.7140(2)
H9 H 0.6561 0.4097 0.7389
H10 H 0.5722 0.5110 0.7057
C5 C 0.5246(2) 0.3723(2) 0.6146(2)
H11 H 0.4489 0.3969 0.5867
H12 H 0.5611 0.3941 0.5677
C6 C 0.6344(2) 0.2012(2) 0.6362(2)
H13 H 0.6922 0.2419 0.6875
H14 H 0.6469 0.2084 0.5722
C7 C 0.6362(2) 0.0789(2) 0.6644(2)
H15 H 0.5806 0.0374 0.6116
H16 H 0.7070 0.0460 0.6717
C8 C 0.7117(2) 0.0821(2) 0.8479(2)
H17 H 0.7580 0.1421 0.8370
H18 H 0.7533 0.0116 0.8608
C9 C 0.6800(2) 0.1110(2) 0.9366(2)
H19 H 0.6402 0.0476 0.9519
H20 H 0.7452 0.1241 0.9952
C10 C 0.1403(2) 0.3516(2) 0.6777(2)
C11 C 0.0593(2) 0.2687(2) 0.6645(2)
C12 C 0.2444(2) 0.3141(2) 0.6874(2)
C13 C 0.1156(2) 0.4661(3) 0.6795(2)
C14 C -0.0479(2) 0.2983(2) 0.6491(2)
C15 C 0.0830(2) 0.1556(3) 0.6496(2)
Mn1A Mn 0.01159(3) 0.70250(4) 0.73616(4)
N6A N 0.41336(19) 0.0565(2) 0.81719(19)
loop_
_geom_bond_atom_site_label_1
_geom_bond_atom_site_label_2
_geom_bond_site_symmetry_1
_geom_bond_site_symmetry_2
C1 C16 1_555 1_555
Mn1 N1 1_555 1_555
N1 H1 1_555 1_555
N2 Mn1 1_555 1_555
H2 N2 1_555 1_555
N3 Mn1 1_555 1_555
H3 N3 1_555 1_555
N4 Mn1 1_555 1_555
H4 N4 1_555 1_555
N5 Mn1 1_555 1_555
N6 C13 1_555 1_555
N7 C14 1_555 1_555
N8 C15 1_555 1_555
N9 C17 1_555 1_555
N10 C18 1_555 1_555
N11 C19 1_555 1_555
N12 C20 1_555 1_555
C2 N1 1_555 1_555
H5 C2 1_555 1_555
H6 C2 1_555 1_555
C3 N2 1_555 1_555
H7 C3 1_555 1_555
H8 C3 1_555 1_555
C4 N2 1_555 1_555
H9 C4 1_555 1_555
H10 C4 1_555 1_555
C5 N3 1_555 1_555
H11 C5 1_555 1_555
H12 C5 1_555 1_555
C6 N3 1_555 1_555
H13 C6 1_555 1_555
H14 C6 1_555 1_555
C7 N4 1_555 1_555
H15 C7 1_555 1_555
H16 C7 1_555 1_555
C8 N4 1_555 1_555
H17 C8 1_555 1_555
H18 C8 1_555 1_555
C9 N1 1_555 1_555
H19 C9 1_555 1_555
H20 C9 1_555 1_555
C10 C11 1_555 1_555
C11 C14 1_555 1_555
C12 N5 1_555 1_555
C13 C10 1_555 1_555
C15 C11 1_555 1_555
C16 C17 1_555 1_555
C18 C16 1_555 1_555
C19 C1 1_555 1_555
C20 C1 1_555 1_555
Mn1A N6 1_555 1_555
N6A Mn1 1_555 1_555
C2 C3 1_555 1_555
C4 C5 1_555 1_555
C6 C7 1_555 1_555
C8 C9 1_555 1_555
C10 C12 1_555 1_555

#END
