
#######################################################################
#
#                 Cambridge Crystallographic Data Centre
#                                CCDC 
#
#######################################################################
#
# If this CIF has been generated from an entry in the Cambridge 
# Structural Database, then it will include bibliographic, chemical, 
# crystal, experimental, refinement or atomic coordinate data resulting 
# from the CCDC's data processing and validation procedures.
#
#######################################################################

data_AGARAC
_symmetry_cell_setting           monoclinic
_symmetry_space_group_name_H-M   'P 21/c'
_symmetry_Int_Tables_number      14
_space_group_name_Hall           '-P 2ybc'
loop_
_symmetry_equiv_pos_site_id
_symmetry_equiv_pos_as_xyz
1 x,y,z
2 -x,1/2+y,1/2-z
3 -x,-y,-z
4 x,1/2-y,1/2+z
_cell_length_a                   7.2114(14)
_cell_length_b                   17.333(4)
_cell_length_c                   9.916(2)
_cell_angle_alpha                90
_cell_angle_beta                 96.16(3)
_cell_angle_gamma                90
_cell_volume                     1232.3
loop_
_atom_site_label
_atom_site_type_symbol
_atom_site_fract_x
_atom_site_fract_y
_atom_site_fract_z
Ag1 Ag 0.17166(6) 0.28474(2) 0.61613(5)
C1 C -0.0178(8) 0.1237(3) 0.5231(5)
H1 H 0.0731 0.1154 0.4649
C2 C -0.1737(7) 0.1779(3) 0.6628(5)
H2 H -0.2186 0.2129 0.7227
C3 C -0.4050(7) 0.0720(3) 0.6849(5)
H3 H -0.4799 0.0454 0.6121
H4 H -0.4826 0.1108 0.7215
C4 C -0.2949(6) 0.0300(2) 0.9272(5)
C5 C -0.3008(7) 0.0944(3) 1.0113(5)
H5 H -0.3398 0.1425 0.9777
C6 C -0.2455(7) 0.0824(3) 1.1466(5)
H6 H -0.2465 0.1238 1.2062
C7 C -0.1876(7) 0.0098(3) 1.1980(6)
H7 H -0.1531 0.0044 1.2907
C8 C -0.1805(7) -0.0528(3) 1.1165(5)
H8 H -0.1408 -0.1006 1.1511
C9 C -0.2352(6) -0.0423(2) 0.9785(5)
N1 N -0.0276(6) 0.1892(2) 0.5961(4)
N2 N -0.1479(6) 0.0727(2) 0.5414(4)
N3 N -0.2474(6) 0.1090(2) 0.6317(4)
N4 N -0.3411(5) 0.0169(2) 0.7911(4)
N5 N -0.3091(6) -0.0577(2) 0.7591(4)
N6 N -0.2464(6) -0.0934(2) 0.8708(4)
N7 N 0.4418(8) 0.2309(3) 0.4047(5)
O1 O 0.4168(9) 0.2019(4) 0.5103(6)
O2 O 0.5907(12) 0.2197(4) 0.3572(8)
O3 O 0.3241(14) 0.2690(5) 0.3502(7)
Ag1A Ag -0.17166(6) -0.21526(2) 0.88387(5)
Ag1C Ag 0.17166(6) 0.21526(2) 0.11613(5)
N6A N 0.2464(6) 0.4066(2) 0.6292(4)
O3C O 0.3241(14) 0.2310(5) 0.8502(7)
loop_
_geom_bond_atom_site_label_1
_geom_bond_atom_site_label_2
_geom_bond_site_symmetry_1
_geom_bond_site_symmetry_2
Ag1 N1 1_555 1_555
C1 H1 1_555 1_555
C2 H2 1_555 1_555
C3 H3 1_555 1_555
H4 C3 1_555 1_555
C4 C5 1_555 1_555
C5 H5 1_555 1_555
C6 C5 1_555 1_555
H6 C6 1_555 1_555
C7 C6 1_555 1_555
H7 C7 1_555 1_555
C8 C7 1_555 1_555
H8 C8 1_555 1_555
C9 C4 1_555 1_555
N1 C1 1_555 1_555
N2 C1 1_555 1_555
N3 C2 1_555 1_555
N4 C3 1_555 1_555
N5 N4 1_555 1_555
N6 C9 1_555 1_555
N7 O1 1_555 1_555
O1 Ag1 1_555 1_555
O2 N7 1_555 1_555
O3 N7 1_555 1_555
Ag1A N6 1_555 1_555
Ag1C O3 1_555 1_555
N6A Ag1 1_555 1_555
O3C Ag1 1_555 1_555
C2 N1 1_555 1_555
C3 N3 1_555 1_555
C4 N4 1_555 1_555
C8 C9 1_555 1_555
N2 N3 1_555 1_555
N5 N6 1_555 1_555

#END
