
#######################################################################
#
#                 Cambridge Crystallographic Data Centre
#                                CCDC 
#
#######################################################################
#
# If this CIF has been generated from an entry in the Cambridge 
# Structural Database, then it will include bibliographic, chemical, 
# crystal, experimental, refinement or atomic coordinate data resulting 
# from the CCDC's data processing and validation procedures.
#
#######################################################################

data_AGAREG
_symmetry_cell_setting           monoclinic
_symmetry_space_group_name_H-M   'P 2/c'
_symmetry_Int_Tables_number      13
_space_group_name_Hall           '-P 2yc'
loop_
_symmetry_equiv_pos_site_id
_symmetry_equiv_pos_as_xyz
1 x,y,z
2 -x,y,1/2-z
3 -x,-y,-z
4 x,-y,1/2+z
_cell_length_a                   16.981(3)
_cell_length_b                   7.6784(15)
_cell_length_c                   15.656(3)
_cell_angle_alpha                90
_cell_angle_beta                 106.58(3)
_cell_angle_gamma                90
_cell_volume                     1956.46
loop_
_atom_site_label
_atom_site_type_symbol
_atom_site_fract_x
_atom_site_fract_y
_atom_site_fract_z
Ag1 Ag 0.75066(3) 0.05233(8) 0.12191(4)
C1 C 0.6658(4) 0.4379(8) 0.1604(4)
C2 C 0.6067(4) 0.5482(8) 0.1756(4)
H1 H 0.6215 0.6487 0.2097
C3 C 0.5260(4) 0.5047(8) 0.1391(4)
H2 H 0.4833 0.5737 0.1462
C4 C 0.5118(3) 0.3488(7) 0.0899(3)
C5 C 0.4045(4) 0.1561(8) -0.0068(4)
H3 H 0.4383 0.0755 -0.0234
C6 C 0.3034(4) 0.2943(9) 0.0081(4)
H4 H 0.2491 0.3248 0.0021
C7 C 0.8415(4) 0.2343(8) -0.0203(4)
C8 C 0.9007(4) 0.2911(8) -0.0588(4)
H5 H 0.8860 0.3476 -0.1136
C9 C 0.9814(4) 0.2622(8) -0.0141(4)
H6 H 1.0239 0.2967 -0.0369
C10 C 0.9957(3) 0.1779(7) 0.0674(3)
C11 C 1.1011(4) 0.0712(8) 0.2030(4)
H7 H 1.0661 0.0336 0.2354
C12 C 1.2044(4) 0.1340(10) 0.1615(5)
H8 H 1.2591 0.1483 0.1627
Cl1 Cl 0.76883(10) 0.4908(3) 0.20083(13)
Cl2 Cl 0.73847(11) 0.2626(3) -0.07334(12)
N1 N 0.6495(3) 0.2916(6) 0.1144(3)
N2 N 0.5703(3) 0.2462(6) 0.0770(3)
N3 N 0.4312(3) 0.2930(6) 0.0469(3)
N4 N 0.3650(3) 0.3847(7) 0.0561(4)
N5 N 0.3239(3) 0.1521(7) -0.0327(3)
N6 N 0.8583(3) 0.1529(7) 0.0584(3)
N7 N 0.9378(3) 0.1243(6) 0.1040(3)
N8 N 1.0766(3) 0.1415(6) 0.1216(3)
N9 N 1.1440(3) 0.1806(8) 0.0933(3)
N10 N 1.1823(3) 0.0626(8) 0.2312(3)
Ag1B Ag 0.24934(3) -0.05233(8) -0.12191(4)
Ag1A Ag 1.24934(3) 0.05233(8) 0.37809(4)
C1B C 0.3342(4) -0.4379(8) -0.1604(4)
C2B C 0.3933(4) -0.5482(8) -0.1756(4)
H1B H 0.3785 -0.6487 -0.2097
C3B C 0.4740(4) -0.5047(8) -0.1391(4)
H2B H 0.5167 -0.5737 -0.1462
C4B C 0.4882(3) -0.3488(7) -0.0899(3)
C5B C 0.5955(4) -0.1561(8) 0.0068(4)
H3B H 0.5617 -0.0755 0.0234
C6B C 0.6966(4) -0.2943(9) -0.0081(4)
H4B H 0.7509 -0.3248 -0.0021
C7A C 1.1585(4) 0.2343(8) 0.5203(4)
C8A C 1.0993(4) 0.2911(8) 0.5588(4)
H5A H 1.1140 0.3476 0.6136
C9A C 1.0186(4) 0.2622(8) 0.5141(4)
H6A H 0.9761 0.2967 0.5369
C10A C 1.0043(3) 0.1779(7) 0.4326(3)
C11A C 0.8989(4) 0.0712(8) 0.2970(4)
H7A H 0.9339 0.0336 0.2646
C12A C 0.7956(4) 0.1340(10) 0.3385(5)
H8A H 0.7409 0.1483 0.3373
Cl1B Cl 0.23117(10) -0.4908(3) -0.20083(13)
Cl2A Cl 1.26153(11) 0.2626(3) 0.57334(12)
N1B N 0.3505(3) -0.2916(6) -0.1144(3)
N2B N 0.4297(3) -0.2462(6) -0.0770(3)
N3B N 0.5688(3) -0.2930(6) -0.0469(3)
N4B N 0.6350(3) -0.3847(7) -0.0561(4)
N5B N 0.6761(3) -0.1521(7) 0.0327(3)
N6A N 1.1417(3) 0.1529(7) 0.4416(3)
N6B N 0.1417(3) -0.1529(7) -0.0584(3)
N7A N 1.0622(3) 0.1243(6) 0.3960(3)
N8A N 0.9234(3) 0.1415(6) 0.3784(3)
N9A N 0.8560(3) 0.1806(8) 0.4067(3)
N10A N 0.8177(3) 0.0626(8) 0.2688(3)
N10C N 0.1823(3) -0.0626(8) -0.2688(3)
Cl3 Cl 1.0000 0.5861(3) 0.2500
O1 O 0.9592(4) 0.4839(8) 0.2970(4)
O2 O 0.9446(7) 0.7006(14) 0.1984(9)
O1A O 1.0408(4) 0.4839(8) 0.2030(4)
O2A O 1.0554(7) 0.7006(14) 0.3016(9)
Cl4 Cl 0.5000 0.9850(3) 0.2500
O3 O 0.4863(7) 0.8967(10) 0.1732(6)
O4 O 0.4477(10) 1.1111(19) 0.2367(8)
O3A O 0.5137(7) 0.8967(10) 0.3268(6)
O4A O 0.5523(10) 1.1111(19) 0.2633(8)
loop_
_geom_bond_atom_site_label_1
_geom_bond_atom_site_label_2
_geom_bond_site_symmetry_1
_geom_bond_site_symmetry_2
Ag1 N1 1_555 1_555
C1 C2 1_555 1_555
C2 H1 1_555 1_555
C3 C2 1_555 1_555
H2 C3 1_555 1_555
C4 C3 1_555 1_555
C5 H3 1_555 1_555
C6 H4 1_555 1_555
C7 C8 1_555 1_555
C8 H5 1_555 1_555
C9 C8 1_555 1_555
H6 C9 1_555 1_555
C10 C9 1_555 1_555
C11 H7 1_555 1_555
C12 H8 1_555 1_555
Cl1 C1 1_555 1_555
Cl2 C7 1_555 1_555
N1 C1 1_555 1_555
N2 C4 1_555 1_555
N3 C4 1_555 1_555
N4 C6 1_555 1_555
N5 C5 1_555 1_555
N6 Ag1 1_555 1_555
N7 C10 1_555 1_555
N8 C10 1_555 1_555
N9 C12 1_555 1_555
N10 C11 1_555 1_555
Cl3 O1 1_555 1_555
O2 Cl3 1_555 1_555
Cl4 O3 1_555 1_555
O4 Cl4 1_555 1_555
Ag1B N5 1_555 1_555
Ag1A N10 1_555 1_555
C1B C2B 1_555 1_555
C2B H1B 1_555 1_555
C3B C2B 1_555 1_555
H2B C3B 1_555 1_555
C4B C3B 1_555 1_555
C5B H3B 1_555 1_555
C6B H4B 1_555 1_555
C7A C8A 1_555 1_555
C8A H5A 1_555 1_555
C9A C8A 1_555 1_555
H6A C9A 1_555 1_555
C10A C9A 1_555 1_555
C11A H7A 1_555 1_555
C12A H8A 1_555 1_555
Cl1B C1B 1_555 1_555
Cl2A C7A 1_555 1_555
N1B Ag1B 1_555 1_555
N2B C4B 1_555 1_555
N3B C4B 1_555 1_555
N4B C6B 1_555 1_555
N5B Ag1 1_555 1_555
N6A Ag1A 1_555 1_555
N6B Ag1B 1_555 1_555
N7A C10A 1_555 1_555
N8A C10A 1_555 1_555
N9A C12A 1_555 1_555
N10A Ag1 1_555 1_555
N10C Ag1B 1_555 1_555
O1A Cl3 1_555 1_555
O2A Cl3 1_555 1_555
O3A Cl4 1_555 1_555
O4A Cl4 1_555 1_555
C5 N3 1_555 1_555
C6 N5 1_555 1_555
C7 N6 1_555 1_555
C11 N8 1_555 1_555
C12 N10 1_555 1_555
N1 N2 1_555 1_555
N3 N4 1_555 1_555
N6 N7 1_555 1_555
N8 N9 1_555 1_555
C1B N1B 1_555 1_555
C5B N3B 1_555 1_555
C5B N5B 1_555 1_555
C6B N5B 1_555 1_555
C7A N6A 1_555 1_555
C11A N8A 1_555 1_555
C11A N10A 1_555 1_555
C12A N10A 1_555 1_555
N1B N2B 1_555 1_555
N3B N4B 1_555 1_555
N6A N7A 1_555 1_555
N8A N9A 1_555 1_555

#END
