
#######################################################################
#
#                 Cambridge Crystallographic Data Centre
#                                CCDC 
#
#######################################################################
#
# If this CIF has been generated from an entry in the Cambridge 
# Structural Database, then it will include bibliographic, chemical, 
# crystal, experimental, refinement or atomic coordinate data resulting 
# from the CCDC's data processing and validation procedures.
#
#######################################################################

data_AGASOR01
_symmetry_cell_setting           triclinic
_symmetry_space_group_name_H-M   'P -1'
_symmetry_Int_Tables_number      2
_space_group_name_Hall           '-P 1'
loop_
_symmetry_equiv_pos_site_id
_symmetry_equiv_pos_as_xyz
1 x,y,z
2 -x,-y,-z
_cell_length_a                   13.43(1)
_cell_length_b                   13.71(1)
_cell_length_c                   15.46(1)
_cell_angle_alpha                91.543(10)
_cell_angle_beta                 115.20(1)
_cell_angle_gamma                91.12(1)
_cell_volume                     2573.21
loop_
_atom_site_label
_atom_site_type_symbol
_atom_site_fract_x
_atom_site_fract_y
_atom_site_fract_z
Fe1 Fe 0.24179(8) -0.00649(7) 0.48167(7)
O1 O 0.2755(4) 0.1218(3) 0.5476(3)
O2 O 0.3007(4) -0.0645(3) 0.6069(3)
O3 O 0.3299(5) 0.2764(4) 0.6616(4)
O4 O 0.3989(5) -0.1080(4) 0.7876(4)
N1 N 0.2103(4) -0.1317(4) 0.4135(4)
N2 N 0.1820(5) 0.0457(4) 0.3569(4)
N3 N 0.0986(5) -0.0052(4) 0.4870(4)
N4 N 0.3906(5) -0.0032(4) 0.4893(4)
C27 C 0.1550(6) -0.1254(5) 0.3136(5)
C28 C 0.1175(6) -0.2026(5) 0.2460(5)
C29 C 0.0674(6) -0.1859(6) 0.1490(5)
C30 C 0.0537(6) -0.0917(6) 0.1189(5)
C31 C 0.0874(6) -0.0126(5) 0.1832(5)
C32 C 0.1401(6) -0.0292(5) 0.2817(5)
C33 C 0.2428(6) -0.2150(5) 0.4519(5)
C34 C 0.3010(6) -0.2323(6) 0.5524(5)
C35 C 0.3285(6) -0.3291(5) 0.5785(5)
C36 C 0.3783(7) -0.3536(6) 0.6716(6)
C37 C 0.4025(7) -0.2800(6) 0.7435(5)
C38 C 0.3768(7) -0.1852(6) 0.7204(6)
C39 C 0.3254(6) -0.1563(5) 0.6239(5)
C40 C 0.4480(8) -0.1323(6) 0.8863(5)
C41 C 0.1788(6) 0.1379(5) 0.3373(5)
C42 C 0.2181(6) 0.2168(5) 0.4068(5)
C43 C 0.2050(7) 0.3139(5) 0.3689(5)
C44 C 0.2337(7) 0.3944(5) 0.4277(5)
C45 C 0.2756(7) 0.3834(6) 0.5276(6)
C46 C 0.2900(6) 0.2941(5) 0.5663(5)
C47 C 0.2622(5) 0.2046(5) 0.5074(5)
C48 C 0.3656(6) 0.3604(5) 0.7259(5)
C49 C 0.4160(6) -0.0221(5) 0.4152(5)
C50 C 0.4778(6) 0.0177(5) 0.5753(5)
C51 C 0.0391(6) 0.0765(5) 0.4721(5)
C52 C 0.0567(6) -0.0806(5) 0.5155(5)
H23 H 0.1263 -0.2677 0.2667
H24 H 0.0429 -0.2393 0.1035
H25 H 0.0201 -0.0807 0.0523
H26 H 0.0751 0.0522 0.1612
H27 H 0.2264 -0.2705 0.4093
H28 H 0.3115 -0.3787 0.5297
H29 H 0.3963 -0.4194 0.6878
H30 H 0.4373 -0.2962 0.8089
H31 H 0.5167 -0.1612 0.9011
H32 H 0.4005 -0.1771 0.8978
H33 H 0.4589 -0.0747 0.9253
H34 H 0.1480 0.1538 0.2718
H35 H 0.1757 0.3209 0.3017
H36 H 0.2259 0.4575 0.4022
H37 H 0.2942 0.4402 0.5687
H38 H 0.4227 0.3948 0.7175
H39 H 0.3054 0.4018 0.7129
H40 H 0.3923 0.3401 0.7899
H41 H 0.3590 -0.0372 0.3533
H42 H 0.4658 0.0318 0.6305
H43 H 0.0929 -0.1410 0.5277
H44 H 0.0624 0.1338 0.4516
Fe1A Fe -0.24179(8) 0.00649(7) 0.51833(7)
Fe1A_2 Fe 0.75821(8) 0.00649(7) 0.51833(7)
O1A O -0.2755(4) -0.1218(3) 0.4524(3)
O2A O -0.3007(4) 0.0645(3) 0.3931(3)
O3A O -0.3299(5) -0.2764(4) 0.3384(4)
O4A O -0.3989(5) 0.1080(4) 0.2124(4)
N1A N -0.2103(4) 0.1317(4) 0.5865(4)
N2A N -0.1820(5) -0.0457(4) 0.6431(4)
N3A N -0.0986(5) 0.0052(4) 0.5130(4)
N4A N 0.6094(5) 0.0032(4) 0.5107(4)
N4A_2 N -0.3906(5) 0.0032(4) 0.5107(4)
C27A C -0.1550(6) 0.1254(5) 0.6864(5)
C28A C -0.1175(6) 0.2026(5) 0.7540(5)
C29A C -0.0674(6) 0.1859(6) 0.8510(5)
C30A C -0.0537(6) 0.0917(6) 0.8811(5)
C31A C -0.0874(6) 0.0126(5) 0.8168(5)
C32A C -0.1401(6) 0.0292(5) 0.7183(5)
C33A C -0.2428(6) 0.2150(5) 0.5481(5)
C34A C -0.3010(6) 0.2323(6) 0.4476(5)
C35A C -0.3285(6) 0.3291(5) 0.4215(5)
C36A C -0.3783(7) 0.3536(6) 0.3284(6)
C37A C -0.4025(7) 0.2800(6) 0.2565(5)
C38A C -0.3768(7) 0.1852(6) 0.2796(6)
C39A C -0.3254(6) 0.1563(5) 0.3761(5)
C40A C -0.4480(8) 0.1323(6) 0.1137(5)
C41A C -0.1788(6) -0.1379(5) 0.6627(5)
C42A C -0.2181(6) -0.2168(5) 0.5932(5)
C43A C -0.2050(7) -0.3139(5) 0.6311(5)
C44A C -0.2337(7) -0.3944(5) 0.5723(5)
C45A C -0.2756(7) -0.3834(6) 0.4724(6)
C46A C -0.2900(6) -0.2941(5) 0.4337(5)
C47A C -0.2622(5) -0.2046(5) 0.4926(5)
C48A C -0.3656(6) -0.3604(5) 0.2741(5)
C49A C 0.5840(6) 0.0221(5) 0.5848(5)
C50A C 0.5222(6) -0.0177(5) 0.4247(5)
C51A C -0.0391(6) -0.0765(5) 0.5279(5)
C52A C -0.0567(6) 0.0806(5) 0.4845(5)
H23A H -0.1263 0.2677 0.7333
H24A H -0.0429 0.2393 0.8965
H25A H -0.0201 0.0807 0.9477
H26A H -0.0751 -0.0522 0.8388
H27A H -0.2264 0.2705 0.5907
H28A H -0.3115 0.3787 0.4703
H29A H -0.3963 0.4194 0.3122
H30A H -0.4373 0.2962 0.1911
H31A H -0.5167 0.1612 0.0989
H32A H -0.4005 0.1771 0.1022
H33A H -0.4589 0.0747 0.0747
H34A H -0.1480 -0.1538 0.7282
H35A H -0.1757 -0.3209 0.6983
H36A H -0.2259 -0.4575 0.5978
H37A H -0.2942 -0.4402 0.4313
H38A H -0.4227 -0.3948 0.2825
H39A H -0.3054 -0.4018 0.2871
H40A H -0.3923 -0.3401 0.2101
H41A H 0.6410 0.0372 0.6467
H42A H 0.5342 -0.0318 0.3695
H43A H -0.0929 0.1410 0.4723
H44A H -0.0624 -0.1338 0.5484
Fe2 Fe 0.25615(8) 0.47241(7) 1.01501(7)
O5 O 0.2907(4) 0.6012(3) 1.0795(3)
O6 O 0.1998(4) 0.5353(4) 0.8922(3)
O7 O 0.3510(4) 0.7814(4) 1.1326(4)
O8 O 0.1403(5) 0.6487(4) 0.7482(4)
N5 N 0.3085(5) 0.4060(4) 1.1340(4)
N6 N 0.2218(4) 0.3435(4) 0.9570(4)
N7 N 0.1076(5) 0.4813(4) 1.0090(4)
N8 N 0.4001(5) 0.4845(4) 1.0099(4)
C1 C 0.2929(6) 0.3004(5) 1.1202(5)
C2 C 0.3227(6) 0.2356(5) 1.1938(5)
C3 C 0.2991(7) 0.1363(6) 1.1703(6)
C4 C 0.2457(7) 0.1023(6) 1.0760(5)
C5 C 0.2186(6) 0.1685(5) 1.0023(5)
C6 C 0.2450(6) 0.2691(5) 1.0248(5)
C7 C 0.3446(6) 0.4450(5) 1.2184(5)
C8 C 0.3609(6) 0.5477(5) 1.2411(5)
C9 C 0.4045(6) 0.5780(6) 1.3398(5)
C10 C 0.4297(7) 0.6737(6) 1.3696(5)
C11 C 0.4110(6) 0.7429(6) 1.2993(6)
C12 C 0.3657(6) 0.7189(5) 1.2046(5)
C13 C 0.3365(6) 0.6195(5) 1.1703(5)
C14 C 0.3803(7) 0.8824(6) 1.1608(6)
C15 C 0.1781(6) 0.3194(5) 0.8659(5)
C16 C 0.1477(6) 0.3882(5) 0.7910(5)
C17 C 0.0989(7) 0.3479(6) 0.6967(5)
C18 C 0.0696(9) 0.4069(6) 0.6199(5)
C19 C 0.0819(8) 0.5097(6) 0.6359(6)
C20 C 0.1255(6) 0.5508(6) 0.7260(5)
C21 C 0.1609(6) 0.4908(6) 0.8079(5)
C22 C 0.1026(7) 0.7120(6) 0.6687(6)
C23 C 0.0169(6) 0.4603(5) 0.9271(5)
C24 C 0.0877(6) 0.5200(5) 1.0816(5)
C25 C 0.4332(6) 0.5747(5) 0.9919(5)
C26 C 0.4693(6) 0.4127(5) 1.0159(5)
H1 H 0.3583 0.2584 1.2588
H2 H 0.3203 0.0910 1.2200
H3 H 0.2276 0.0347 1.0612
H4 H 0.1824 0.1457 0.9374
H5 H 0.3620 0.4024 1.2700
H6 H 0.4162 0.5301 1.3862
H7 H 0.4589 0.6929 1.4357
H8 H 0.4312 0.8094 1.3192
H9 H 0.3676 0.9188 1.1058
H10 H 0.3368 0.9066 1.1910
H11 H 0.4560 0.8886 1.2041
H12 H 0.1657 0.2520 0.8478
H13 H 0.0862 0.2792 0.6862
H14 H 0.0415 0.3792 0.5567
H15 H 0.0593 0.5507 0.5827
H16 H 0.1407 0.6990 0.6303
H17 H 0.1165 0.7780 0.6918
H18 H 0.0258 0.7006 0.6316
H19 H 0.4532 0.3482 1.0282
H20 H 0.3893 0.6298 0.9864
H21 H 0.0241 0.4330 0.8729
H22 H 0.1472 0.5368 1.1416
Fe2A Fe -0.25615(8) 0.52759(7) 0.98499(7)
Fe2A_2 Fe 0.74385(8) 0.52759(7) 0.98499(7)
O5A O -0.2907(4) 0.3988(3) 0.9205(3)
O6A O -0.1998(4) 0.4647(4) 1.1078(3)
O7A O -0.3510(4) 0.2186(4) 0.8674(4)
O8A O -0.1403(5) 0.3513(4) 1.2518(4)
N5A N -0.3085(5) 0.5940(4) 0.8660(4)
N6A N -0.2218(4) 0.6565(4) 1.0430(4)
N7A N -0.1076(5) 0.5187(4) 0.9910(4)
N8A N 0.5999(5) 0.5155(4) 0.9901(4)
N8A_2 N -0.4001(5) 0.5155(4) 0.9901(4)
C1A C -0.2929(6) 0.6996(5) 0.8798(5)
C2A C -0.3227(6) 0.7644(5) 0.8062(5)
C3A C -0.2991(7) 0.8637(6) 0.8297(6)
C4A C -0.2457(7) 0.8977(6) 0.9240(5)
C5A C -0.2186(6) 0.8315(5) 0.9977(5)
C6A C -0.2450(6) 0.7309(5) 0.9752(5)
C7A C -0.3446(6) 0.5550(5) 0.7816(5)
C8A C -0.3609(6) 0.4523(5) 0.7589(5)
C9A C -0.4045(6) 0.4220(6) 0.6602(5)
C10A C -0.4297(7) 0.3263(6) 0.6304(5)
C11A C -0.4110(6) 0.2571(6) 0.7007(6)
C12A C -0.3657(6) 0.2811(5) 0.7954(5)
C13A C -0.3365(6) 0.3805(5) 0.8297(5)
C14A C -0.3803(7) 0.1176(6) 0.8392(6)
C15A C -0.1781(6) 0.6806(5) 1.1341(5)
C16A C -0.1477(6) 0.6118(5) 1.2090(5)
C17A C -0.0989(7) 0.6521(6) 1.3033(5)
C18A C -0.0696(9) 0.5931(6) 1.3801(5)
C19A C -0.0819(8) 0.4903(6) 1.3641(6)
C20A C -0.1255(6) 0.4492(6) 1.2740(5)
C21A C -0.1609(6) 0.5092(6) 1.1921(5)
C22A C -0.1026(7) 0.2880(6) 1.3313(6)
C23A C -0.0169(6) 0.5397(5) 1.0729(5)
C24A C -0.0877(6) 0.4800(5) 0.9184(5)
C25A C 0.5668(6) 0.4253(5) 1.0081(5)
C26A C 0.5307(6) 0.5873(5) 0.9841(5)
H1A H -0.3583 0.7416 0.7412
H2A H -0.3203 0.9090 0.7800
H3A H -0.2276 0.9653 0.9388
H4A H -0.1824 0.8543 1.0626
H5A H -0.3620 0.5976 0.7300
H6A H -0.4162 0.4699 0.6138
H7A H -0.4589 0.3071 0.5643
H8A H -0.4312 0.1906 0.6808
H9A H -0.3676 0.0812 0.8942
H10A H -0.3368 0.0934 0.8090
H11A H -0.4560 0.1114 0.7959
H12A H -0.1657 0.7480 1.1522
H13A H -0.0862 0.7208 1.3138
H14A H -0.0415 0.6208 1.4433
H15A H -0.0593 0.4493 1.4173
H16A H -0.1407 0.3010 1.3697
H17A H -0.1165 0.2220 1.3082
H18A H -0.0258 0.2994 1.3684
H19A H 0.5468 0.6518 0.9718
H20A H 0.6107 0.3702 1.0136
H21A H -0.0241 0.5670 1.1271
H22A H -0.1472 0.4632 0.8584
Cl1 Cl 0.3621(2) 0.1311(2) 0.8634(2)
Cl2 Cl 0.1354(2) 0.0622(2) 0.7430(1)
C53 C 0.2683(7) 0.0886(6) 0.7469(6)
H45 H 0.2952 0.0309 0.7301
H46 H 0.2622 0.1374 0.7026
Cl3 Cl 0.1583(2) 0.8622(2) 0.8976(2)
Cl4 Cl -0.0140(2) 0.7324(1) 0.9043(1)
C54 C 0.1298(7) 0.7475(6) 0.9338(6)
H47 H 0.1708 0.7437 1.0011
H48 H 0.1507 0.6970 0.9023
loop_
_geom_bond_atom_site_label_1
_geom_bond_atom_site_label_2
_geom_bond_site_symmetry_1
_geom_bond_site_symmetry_2
Fe1 O1 1_555 1_555
Fe2 O5 1_555 1_555
Cl1 C53 1_555 1_555
Cl2 C53 1_555 1_555
Cl3 C54 1_555 1_555
Cl4 C54 1_555 1_555
O1 C47 1_555 1_555
O2 Fe1 1_555 1_555
O3 C46 1_555 1_555
O4 C38 1_555 1_555
O5 C13 1_555 1_555
O6 Fe2 1_555 1_555
O7 C12 1_555 1_555
O8 C20 1_555 1_555
N1 Fe1 1_555 1_555
N2 Fe1 1_555 1_555
N3 Fe1 1_555 1_555
N4 Fe1 1_555 1_555
N5 Fe2 1_555 1_555
N6 Fe2 1_555 1_555
N7 Fe2 1_555 1_555
N8 Fe2 1_555 1_555
C1 N5 1_555 1_555
C2 C1 1_555 1_555
C3 C2 1_555 1_555
C4 C3 1_555 1_555
C5 C4 1_555 1_555
C6 N6 1_555 1_555
C7 N5 1_555 1_555
C8 C7 1_555 1_555
C9 C8 1_555 1_555
C10 C9 1_555 1_555
C11 C10 1_555 1_555
C12 C11 1_555 1_555
C13 C8 1_555 1_555
C14 O7 1_555 1_555
C15 N6 1_555 1_555
C16 C15 1_555 1_555
C17 C16 1_555 1_555
C18 C17 1_555 1_555
C19 C18 1_555 1_555
C20 C19 1_555 1_555
C21 O6 1_555 1_555
C22 O8 1_555 1_555
C23 N7 1_555 1_555
C24 N7 1_555 1_555
C25 N8 1_555 1_555
C26 N8 1_555 1_555
C27 N1 1_555 1_555
C28 C27 1_555 1_555
C29 C28 1_555 1_555
C30 C29 1_555 1_555
C31 C30 1_555 1_555
C32 N2 1_555 1_555
C33 N1 1_555 1_555
C34 C33 1_555 1_555
C35 C34 1_555 1_555
C36 C35 1_555 1_555
C37 C36 1_555 1_555
C38 C37 1_555 1_555
C39 O2 1_555 1_555
C40 O4 1_555 1_555
C41 N2 1_555 1_555
C42 C41 1_555 1_555
C43 C42 1_555 1_555
C44 C43 1_555 1_555
C45 C44 1_555 1_555
C46 C45 1_555 1_555
C47 C42 1_555 1_555
C48 O3 1_555 1_555
C49 N4 1_555 1_555
C50 N4 1_555 1_555
C51 N3 1_555 1_555
C52 N3 1_555 1_555
C53 H45 1_555 1_555
C54 H47 1_555 1_555
H1 C2 1_555 1_555
H2 C3 1_555 1_555
H3 C4 1_555 1_555
H4 C5 1_555 1_555
H5 C7 1_555 1_555
H6 C9 1_555 1_555
H7 C10 1_555 1_555
H8 C11 1_555 1_555
H9 C14 1_555 1_555
H10 C14 1_555 1_555
H11 C14 1_555 1_555
H12 C15 1_555 1_555
H13 C17 1_555 1_555
H14 C18 1_555 1_555
H15 C19 1_555 1_555
H16 C22 1_555 1_555
H17 C22 1_555 1_555
H18 C22 1_555 1_555
H19 C26 1_555 1_555
H20 C25 1_555 1_555
H21 C23 1_555 1_555
H22 C24 1_555 1_555
H23 C28 1_555 1_555
H24 C29 1_555 1_555
H25 C30 1_555 1_555
H26 C31 1_555 1_555
H27 C33 1_555 1_555
H28 C35 1_555 1_555
H29 C36 1_555 1_555
H30 C37 1_555 1_555
H31 C40 1_555 1_555
H32 C40 1_555 1_555
H33 C40 1_555 1_555
H34 C41 1_555 1_555
H35 C43 1_555 1_555
H36 C44 1_555 1_555
H37 C45 1_555 1_555
H38 C48 1_555 1_555
H39 C48 1_555 1_555
H40 C48 1_555 1_555
H41 C49 1_555 1_555
H42 C50 1_555 1_555
H43 C52 1_555 1_555
H44 C51 1_555 1_555
H46 C53 1_555 1_555
H48 C54 1_555 1_555
Fe1A O1A 1_555 1_555
Fe1A_2 N4A 1_555 1_555
Fe2A O5A 1_555 1_555
Fe2A_2 N8A 1_555 1_555
O1A C47A 1_555 1_555
O2A Fe1A 1_555 1_555
O3A C46A 1_555 1_555
O4A C38A 1_555 1_555
O5A C13A 1_555 1_555
O6A Fe2A 1_555 1_555
O7A C12A 1_555 1_555
O8A C20A 1_555 1_555
N1A Fe1A 1_555 1_555
N2A Fe1A 1_555 1_555
N3A Fe1A 1_555 1_555
N4A C49A 1_555 1_555
N4A_2 Fe1A 1_555 1_555
N5A Fe2A 1_555 1_555
N6A Fe2A 1_555 1_555
N7A Fe2A 1_555 1_555
N8A C25A 1_555 1_555
N8A_2 Fe2A 1_555 1_555
C1A N5A 1_555 1_555
C2A C1A 1_555 1_555
C3A C2A 1_555 1_555
C4A C3A 1_555 1_555
C5A C4A 1_555 1_555
C6A N6A 1_555 1_555
C7A N5A 1_555 1_555
C8A C7A 1_555 1_555
C9A C8A 1_555 1_555
C10A C9A 1_555 1_555
C11A C10A 1_555 1_555
C12A C11A 1_555 1_555
C13A C8A 1_555 1_555
C14A O7A 1_555 1_555
C15A N6A 1_555 1_555
C16A C15A 1_555 1_555
C17A C16A 1_555 1_555
C18A C17A 1_555 1_555
C19A C18A 1_555 1_555
C20A C19A 1_555 1_555
C21A O6A 1_555 1_555
C22A O8A 1_555 1_555
C23A C24 1_555 1_555
C24A C23 1_555 1_555
C25A C26 1_555 1_555
C26A C25 1_555 1_555
C27A N1A 1_555 1_555
C28A C27A 1_555 1_555
C29A C28A 1_555 1_555
C30A C29A 1_555 1_555
C31A C30A 1_555 1_555
C32A N2A 1_555 1_555
C33A N1A 1_555 1_555
C34A C33A 1_555 1_555
C35A C34A 1_555 1_555
C36A C35A 1_555 1_555
C37A C36A 1_555 1_555
C38A C37A 1_555 1_555
C39A O2A 1_555 1_555
C40A O4A 1_555 1_555
C41A N2A 1_555 1_555
C42A C41A 1_555 1_555
C43A C42A 1_555 1_555
C44A C43A 1_555 1_555
C45A C44A 1_555 1_555
C46A C45A 1_555 1_555
C47A C42A 1_555 1_555
C48A O3A 1_555 1_555
C49A C50 1_555 1_555
C50A C49 1_555 1_555
C51A C52 1_555 1_555
C52A C51 1_555 1_555
H1A C2A 1_555 1_555
H2A C3A 1_555 1_555
H3A C4A 1_555 1_555
H4A C5A 1_555 1_555
H5A C7A 1_555 1_555
H6A C9A 1_555 1_555
H7A C10A 1_555 1_555
H8A C11A 1_555 1_555
H9A C14A 1_555 1_555
H10A C14A 1_555 1_555
H11A C14A 1_555 1_555
H12A C15A 1_555 1_555
H13A C17A 1_555 1_555
H14A C18A 1_555 1_555
H15A C19A 1_555 1_555
H16A C22A 1_555 1_555
H17A C22A 1_555 1_555
H18A C22A 1_555 1_555
H19A C26A 1_555 1_555
H20A C25A 1_555 1_555
H21A C23A 1_555 1_555
H22A C24A 1_555 1_555
H23A C28A 1_555 1_555
H24A C29A 1_555 1_555
H25A C30A 1_555 1_555
H26A C31A 1_555 1_555
H27A C33A 1_555 1_555
H28A C35A 1_555 1_555
H29A C36A 1_555 1_555
H30A C37A 1_555 1_555
H31A C40A 1_555 1_555
H32A C40A 1_555 1_555
H33A C40A 1_555 1_555
H34A C41A 1_555 1_555
H35A C43A 1_555 1_555
H36A C44A 1_555 1_555
H37A C45A 1_555 1_555
H38A C48A 1_555 1_555
H39A C48A 1_555 1_555
H40A C48A 1_555 1_555
H41A C49A 1_555 1_555
H42A C50A 1_555 1_555
H43A C52A 1_555 1_555
H44A C51A 1_555 1_555
C1 C6 1_555 1_555
C5 C6 1_555 1_555
C12 C13 1_555 1_555
C16 C21 1_555 1_555
C20 C21 1_555 1_555
C27 C32 1_555 1_555
C31 C32 1_555 1_555
C34 C39 1_555 1_555
C38 C39 1_555 1_555
C46 C47 1_555 1_555
N3A C51A 1_555 1_555
N3A C52A 1_555 1_555
N4A C50A 1_555 1_555
N7A C23A 1_555 1_555
N7A C24A 1_555 1_555
N8A C26A 1_555 1_555
C1A C6A 1_555 1_555
C5A C6A 1_555 1_555
C12A C13A 1_555 1_555
C16A C21A 1_555 1_555
C20A C21A 1_555 1_555
C27A C32A 1_555 1_555
C31A C32A 1_555 1_555
C34A C39A 1_555 1_555
C38A C39A 1_555 1_555
C46A C47A 1_555 1_555

#END
