
#######################################################################
#
#                 Cambridge Crystallographic Data Centre
#                                CCDC 
#
#######################################################################
#
# If this CIF has been generated from an entry in the Cambridge 
# Structural Database, then it will include bibliographic, chemical, 
# crystal, experimental, refinement or atomic coordinate data resulting 
# from the CCDC's data processing and validation procedures.
#
#######################################################################

data_AGASUX
_symmetry_cell_setting           triclinic
_symmetry_space_group_name_H-M   'P -1'
_symmetry_Int_Tables_number      2
_space_group_name_Hall           '-P 1'
loop_
_symmetry_equiv_pos_site_id
_symmetry_equiv_pos_as_xyz
1 x,y,z
2 -x,-y,-z
_cell_length_a                   7.359(6)
_cell_length_b                   13.74(1)
_cell_length_c                   16.13(1)
_cell_angle_alpha                81.44(2)
_cell_angle_beta                 84.13(2)
_cell_angle_gamma                86.24(2)
_cell_volume                     1602.22
loop_
_atom_site_label
_atom_site_type_symbol
_atom_site_fract_x
_atom_site_fract_y
_atom_site_fract_z
Fe1 Fe 0.79388(6) 0.27613(3) 0.81073(3)
O1 O 0.8157(3) 0.1432(2) 0.7750(1)
O2 O 0.8015(3) 0.3774(2) 0.7093(1)
O3 O 0.8000(4) 0.0037(2) 0.6840(2)
O4 O 0.7653(4) 0.4579(2) 0.5547(2)
N1 N 0.7749(4) 0.2020(2) 0.9367(2)
N2 N 0.7464(4) 0.3951(2) 0.8819(2)
N3 N 1.1003(4) 0.2760(2) 0.8068(2)
N4 N 1.4820(4) 0.2784(2) 0.8042(2)
C1 C 0.7899(5) 0.4349(2) 1.0228(2)
C2 C 0.7688(4) 0.3687(2) 0.9689(2)
C3 C 0.7842(4) 0.2649(2) 0.9986(2)
C4 C 0.8181(5) 0.2332(2) 1.0812(2)
C5 C 0.8732(5) 0.2687(3) 1.2222(2)
C6 C 0.8967(5) 0.3360(3) 1.2746(2)
C7 C 0.8839(5) 0.4379(3) 1.2448(2)
C8 C 0.8475(5) 0.4707(3) 1.1641(2)
C9 C 0.8229(5) 0.4035(3) 1.1077(2)
C10 C 0.8367(4) 0.3006(2) 1.1373(2)
C11 C 0.7493(5) 0.1083(2) 0.9596(2)
C12 C 0.7451(5) 0.0363(2) 0.9050(2)
C13 C 0.7075(5) -0.0618(3) 0.9438(2)
C14 C 0.7005(6) -0.1361(3) 0.8969(2)
C15 C 0.7325(5) -0.1168(3) 0.8082(2)
C16 C 0.7695(5) -0.0229(2) 0.7691(2)
C17 C 0.7788(4) 0.0568(2) 0.8161(2)
C18 C 0.7882(7) -0.0702(3) 0.6315(3)
C19 C 0.6813(5) 0.4826(2) 0.8535(2)
C20 C 0.6680(4) 0.5217(2) 0.7666(2)
C21 C 0.5951(5) 0.6200(3) 0.7486(2)
C22 C 0.5825(5) 0.6643(3) 0.6676(2)
C23 C 0.6402(5) 0.6123(3) 0.6006(2)
C24 C 0.7097(5) 0.5160(3) 0.6155(2)
C25 C 0.7281(4) 0.4678(2) 0.6994(2)
C26 C 0.7698(6) 0.5028(3) 0.4686(2)
C27 C 1.1882(5) 0.2492(3) 0.8763(2)
C28 C 1.3736(5) 0.2513(3) 0.8753(2)
C29 C 1.3950(5) 0.3044(3) 0.7340(2)
C30 C 1.2084(5) 0.3039(2) 0.7350(2)
H1 H 0.7822 0.5035 1.0025
H2 H 0.8292 0.1644 1.1006
H3 H 0.8815 0.2002 1.2428
H4 H 0.9217 0.3139 1.3312
H5 H 0.9009 0.4841 1.2813
H6 H 0.8384 0.5396 1.1452
H7 H 0.7319 0.0861 1.0184
H8 H 0.6869 -0.0754 1.0034
H9 H 0.6741 -0.2007 0.9239
H10 H 0.7286 -0.1686 0.7755
H11 H 0.6690 -0.0948 0.6405
H12 H 0.8119 -0.0426 0.5741
H13 H 0.8758 -0.1226 0.6450
H14 H 0.6383 0.5245 0.8941
H15 H 0.5544 0.6557 0.7938
H16 H 0.5345 0.7304 0.6569
H17 H 0.6315 0.6434 0.5444
H18 H 0.8524 0.5545 0.4590
H19 H 0.8091 0.4549 0.4330
H20 H 0.6509 0.5289 0.4569
H25 H 1.1186 0.2281 0.9281
H26 H 1.4283 0.2330 0.9266
H27 H 1.4653 0.3236 0.6820
H28 H 1.1532 0.3237 0.6840
Fe1_2 Fe 1.79388(6) 0.27613(3) 0.81073(3)
N4_2 N 0.4820(4) 0.2784(2) 0.8042(2)
Cl1 Cl 1.2665(2) -0.03103(9) 0.62191(9)
Cl2 Cl 1.2927(2) 0.02412(9) 0.78847(9)
C31 C 1.2386(7) 0.0645(3) 0.6850(3)
H21 H 1.3162 0.1157 0.6605
H22 H 1.1147 0.0892 0.6867
Cl3 Cl 0.6242(2) 0.1968(1) 0.52534(9)
Cl4 Cl 1.0181(2) 0.2251(1) 0.51596(8)
C32 C 0.8084(7) 0.2219(3) 0.5796(2)
H23 H 0.7833 0.2840 0.5986
H24 H 0.8191 0.1720 0.6267
loop_
_geom_bond_atom_site_label_1
_geom_bond_atom_site_label_2
_geom_bond_site_symmetry_1
_geom_bond_site_symmetry_2
Fe1 O1 1_555 1_555
Cl1 C31 1_555 1_555
Cl2 C31 1_555 1_555
Cl3 C32 1_555 1_555
Cl4 C32 1_555 1_555
O1 C17 1_555 1_555
O2 Fe1 1_555 1_555
O3 C16 1_555 1_555
O4 C24 1_555 1_555
N1 Fe1 1_555 1_555
N2 Fe1 1_555 1_555
N3 Fe1 1_555 1_555
N4 C28 1_555 1_555
C1 C2 1_555 1_555
C2 N2 1_555 1_555
C3 N1 1_555 1_555
C4 C3 1_555 1_555
C5 C6 1_555 1_555
C6 C7 1_555 1_555
C7 C8 1_555 1_555
C8 C9 1_555 1_555
C9 C1 1_555 1_555
C10 C4 1_555 1_555
C11 N1 1_555 1_555
C12 C11 1_555 1_555
C13 C12 1_555 1_555
C14 C13 1_555 1_555
C15 C14 1_555 1_555
C16 C15 1_555 1_555
C17 C12 1_555 1_555
C18 O3 1_555 1_555
C19 N2 1_555 1_555
C20 C19 1_555 1_555
C21 C20 1_555 1_555
C22 C21 1_555 1_555
C23 C22 1_555 1_555
C24 C23 1_555 1_555
C25 O2 1_555 1_555
C26 O4 1_555 1_555
C27 N3 1_555 1_555
C28 C27 1_555 1_555
C29 N4 1_555 1_555
C30 N3 1_555 1_555
C31 H21 1_555 1_555
C32 H23 1_555 1_555
H1 C1 1_555 1_555
H2 C4 1_555 1_555
H3 C5 1_555 1_555
H4 C6 1_555 1_555
H5 C7 1_555 1_555
H6 C8 1_555 1_555
H7 C11 1_555 1_555
H8 C13 1_555 1_555
H9 C14 1_555 1_555
H10 C15 1_555 1_555
H11 C18 1_555 1_555
H12 C18 1_555 1_555
H13 C18 1_555 1_555
H14 C19 1_555 1_555
H15 C21 1_555 1_555
H16 C22 1_555 1_555
H17 C23 1_555 1_555
H18 C26 1_555 1_555
H19 C26 1_555 1_555
H20 C26 1_555 1_555
H22 C31 1_555 1_555
H24 C32 1_555 1_555
H25 C27 1_555 1_555
H26 C28 1_555 1_555
H27 C29 1_555 1_555
H28 C30 1_555 1_555
Fe1_2 N4 1_555 1_555
N4_2 Fe1 1_555 1_555
C2 C3 1_555 1_555
C5 C10 1_555 1_555
C9 C10 1_555 1_555
C16 C17 1_555 1_555
C20 C25 1_555 1_555
C24 C25 1_555 1_555
C29 C30 1_555 1_555

#END
