
#######################################################################
#
#                 Cambridge Crystallographic Data Centre
#                                CCDC 
#
#######################################################################
#
# If this CIF has been generated from an entry in the Cambridge 
# Structural Database, then it will include bibliographic, chemical, 
# crystal, experimental, refinement or atomic coordinate data resulting 
# from the CCDC's data processing and validation procedures.
#
#######################################################################

data_AGAWUA
_symmetry_cell_setting           monoclinic
_symmetry_space_group_name_H-M   'P 21/n'
_symmetry_Int_Tables_number      14
_space_group_name_Hall           '-P 2yn'
loop_
_symmetry_equiv_pos_site_id
_symmetry_equiv_pos_as_xyz
1 x,y,z
2 1/2+x,1/2-y,1/2+z
3 -x,-y,-z
4 1/2-x,1/2+y,1/2-z
_cell_length_a                   7.3386(5)
_cell_length_b                   16.8338(12)
_cell_length_c                   12.5204(8)
_cell_angle_alpha                90
_cell_angle_beta                 94.714(3)
_cell_angle_gamma                90
_cell_volume                     1541.49
loop_
_atom_site_label
_atom_site_type_symbol
_atom_site_fract_x
_atom_site_fract_y
_atom_site_fract_z
O1 O 0.4050(9) 0.5452(4) 0.6761(4)
C1 C 0.6411(15) 0.6428(7) 0.4817(8)
H1 H 0.7502 0.6132 0.5088
H2 H 0.6643 0.6999 0.4900
H3 H 0.6122 0.6305 0.4057
C2 C 0.5029(14) 0.5695(6) 0.6239(6)
H4 H 0.6226 0.5495 0.6419
C3 C 0.3072(19) 0.6593(9) 0.5098(9)
H5 H 0.3100 0.7156 0.5295
H6 H 0.2167 0.6316 0.5496
H7 H 0.2738 0.6541 0.4327
N1 N 0.4990(11) 0.6221(5) 0.5376(5)
O2 O 0.5191(16) 0.9987(5) 0.8614(10)
Zn1 Zn 1.17630(5) 0.49392(2) 0.94764(3)
O6 O 1.0442(3) 0.58140(15) 0.8641(2)
O7 O 0.7729(4) 0.58568(15) 0.9343(2)
O8 O 0.5160(4) 0.91319(15) 0.6188(2)
O9 O 0.7890(3) 0.92047(14) 0.5525(2)
O10 O 1.3778(3) 0.46957(17) 0.8572(2)
H8 H 1.4638 0.4478 0.8947
H9 H 1.4981 0.4953 0.8548
C4 C 0.8876(5) 0.6097(2) 0.8723(3)
C5 C 0.8318(5) 0.6800(2) 0.8034(3)
C6 C 0.6596(5) 0.7144(2) 0.8013(3)
C7 C 0.4745(6) 0.7094(3) 0.8478(5)
H10 H 0.4789 0.7184 0.9262
H11 H 0.4027 0.6614 0.8264
C8 C 0.4227(6) 0.7856(3) 0.7777(5)
H12 H 0.3242 0.7768 0.7200
H13 H 0.3996 0.8337 0.8199
C9 C 0.6141(5) 0.7806(2) 0.7411(3)
C10 C 0.7328(5) 0.8177(2) 0.6771(3)
C11 C 0.9054(5) 0.7826(2) 0.6768(3)
H14 H 0.9930 0.8054 0.6341
C12 C 0.9525(5) 0.7155(2) 0.7372(3)
H15 H 1.0704 0.6929 0.7334
C13 C 0.6750(5) 0.8891(2) 0.6115(3)
O7B O 1.2271(4) 0.41432(15) 1.0657(2)
O8C O 0.9840(4) 0.41319(15) 0.8812(2)
O9A O 1.2890(3) 0.57953(14) 1.0525(2)
Zn1B Zn 0.82370(5) 0.50608(2) 1.05236(3)
Zn1C Zn 0.32370(5) 0.99392(2) 0.55236(3)
Zn1A Zn 0.67630(5) 1.00608(2) 0.44764(3)
O3? O 0.769(4) 0.5603(17) 0.572(2)
O4? O 0.621(4) 0.5110(15) 0.674(2)
O5? O 0.565(5) 0.954(2) 0.976(3)
loop_
_geom_bond_atom_site_label_1
_geom_bond_atom_site_label_2
_geom_bond_site_symmetry_1
_geom_bond_site_symmetry_2
O1 C2 1_555 1_555
C1 H1 1_555 1_555
H2 C1 1_555 1_555
H3 C1 1_555 1_555
C2 H4 1_555 1_555
C3 H5 1_555 1_555
H6 C3 1_555 1_555
H7 C3 1_555 1_555
N1 C1 1_555 1_555
Zn1 O6 1_555 1_555
O6 C4 1_555 1_555
O7 C4 1_555 1_555
O8 C13 1_555 1_555
O9 C13 1_555 1_555
O10 Zn1 1_555 1_555
H8 O10 1_555 1_555
H9 O10 1_555 1_555
C4 C5 1_555 1_555
C5 C6 1_555 1_555
C6 C7 1_555 1_555
C7 H10 1_555 1_555
H11 C7 1_555 1_555
C8 C7 1_555 1_555
H12 C8 1_555 1_555
H13 C8 1_555 1_555
C9 C6 1_555 1_555
C10 C9 1_555 1_555
C11 C10 1_555 1_555
H14 C11 1_555 1_555
C12 C5 1_555 1_555
H15 C12 1_555 1_555
C13 C10 1_555 1_555
O7B Zn1 1_555 1_555
O8C Zn1 1_555 1_555
O9A Zn1 1_555 1_555
Zn1B O7 1_555 1_555
Zn1C O8 1_555 1_555
Zn1A O9 1_555 1_555
C2 N1 1_555 1_555
C3 N1 1_555 1_555
C8 C9 1_555 1_555
C11 C12 1_555 1_555

#END
