
#######################################################################
#
#                 Cambridge Crystallographic Data Centre
#                                CCDC 
#
#######################################################################
#
# If this CIF has been generated from an entry in the Cambridge 
# Structural Database, then it will include bibliographic, chemical, 
# crystal, experimental, refinement or atomic coordinate data resulting 
# from the CCDC's data processing and validation procedures.
#
#######################################################################

data_AGAXIP
_symmetry_cell_setting           monoclinic
_symmetry_space_group_name_H-M   'C 2/c'
_symmetry_Int_Tables_number      15
_space_group_name_Hall           '-C 2yn'
loop_
_symmetry_equiv_pos_site_id
_symmetry_equiv_pos_as_xyz
1 x,y,z
2 1/2+x,1/2+y,z
3 -x,y,1/2-z
4 1/2-x,1/2+y,1/2-z
5 -x,-y,-z
6 1/2-x,1/2-y,-z
7 x,-y,1/2+z
8 1/2+x,1/2-y,1/2+z
_cell_length_a                   27.124(4)
_cell_length_b                   15.270(2)
_cell_length_c                   12.0109(17)
_cell_angle_alpha                90
_cell_angle_beta                 94.604(2)
_cell_angle_gamma                90
_cell_volume                     4958.66
loop_
_atom_site_label
_atom_site_type_symbol
_atom_site_fract_x
_atom_site_fract_y
_atom_site_fract_z
Fe1 Fe 0.27273(3) 0.24829(6) 0.10893(6)
O1 O 0.27368(17) 0.3795(3) 0.0775(4)
O2 O 0.23910(16) 0.3825(3) -0.0963(3)
O3 O 0.33498(14) 0.2280(3) 0.0153(3)
O4 O 0.32276(14) 0.2628(3) 0.2475(3)
O5 O 0.29815(13) 0.2364(3) -0.1557(3)
N1 N 0.39593(18) 0.2988(4) 0.3371(4)
C1 C 0.2565(2) 0.4197(4) -0.0075(5)
C2 C 0.2556(2) 0.5169(3) -0.0048(5)
C3 C 0.2686(2) 0.5628(4) 0.0921(5)
H1 H 0.2792 0.5318 0.1582
C4 C 0.2664(2) 0.6528(4) 0.0946(5)
H2 H 0.2759 0.6826 0.1624
C5 C 0.2505(2) 0.7015(3) -0.0003(5)
C6 C 0.2388(2) 0.6554(4) -0.0992(5)
H3 H 0.2292 0.6867 -0.1658
C7 C 0.2410(2) 0.5643(4) -0.1021(5)
H4 H 0.2325 0.5341 -0.1701
C8 C 0.3353(2) 0.2254(3) -0.0879(4)
C9 C 0.3838(2) 0.2080(4) -0.1361(4)
C10 C 0.4261(3) 0.1935(7) -0.0689(6)
H5 H 0.4245 0.1905 0.0097
C11 C 0.4709(3) 0.1831(7) -0.1135(6)
H6 H 0.4996 0.1738 -0.0644
C12 C 0.4756(2) 0.1856(4) -0.2262(5)
C13 C 0.4333(2) 0.1956(6) -0.2926(5)
H7 H 0.4347 0.1945 -0.3713
C14 C 0.3876(2) 0.2073(6) -0.2493(5)
H8 H 0.3588 0.2149 -0.2987
C15 C 0.3671(2) 0.2816(4) 0.2470(5)
H9 H 0.3810 0.2837 0.1770
C16 C 0.3772(3) 0.2980(7) 0.4456(6)
H10 H 0.3410 0.2988 0.4374
H11 H 0.3893 0.3498 0.4876
H12 H 0.3887 0.2450 0.4858
C17 C 0.4489(3) 0.3165(6) 0.3316(7)
H13 H 0.4680 0.2642 0.3546
H14 H 0.4588 0.3652 0.3816
H15 H 0.4553 0.3320 0.2549
C5E C 0.2495(2) 0.7985(3) 0.0003(5)
C4E C 0.2336(2) 0.8472(4) -0.0946(5)
C3E C 0.2314(2) 0.9372(4) -0.0921(5)
C2E C 0.2444(2) 0.9831(3) 0.0048(5)
C1E C 0.2435(2) 1.0803(4) 0.0075(5)
O1E O 0.22632(17) 1.1205(3) -0.0775(4)
O2E O 0.26090(16) 1.1175(3) 0.0963(3)
C7E C 0.2590(2) 0.9357(4) 0.1021(5)
C6E C 0.2612(2) 0.8446(4) 0.0992(5)
H3E H 0.2708 0.8133 0.1658
H4E H 0.2675 0.9659 0.1701
H1E H 0.2208 0.9682 -0.1582
H2E H 0.2241 0.8174 -0.1624
C12B C 0.5244(2) 0.1856(4) -0.2738(5)
C11B C 0.5291(3) 0.1831(7) -0.3865(6)
C10B C 0.5739(3) 0.1935(7) -0.4311(6)
C9B C 0.6162(2) 0.2080(4) -0.3639(4)
C8B C 0.6647(2) 0.2254(3) -0.4121(4)
O3B O 0.66502(14) 0.2280(3) -0.5153(3)
O5B O 0.70185(13) 0.2364(3) -0.3443(3)
C14B C 0.6124(2) 0.2073(6) -0.2507(5)
C13B C 0.5667(2) 0.1956(6) -0.2074(5)
H7B H 0.5653 0.1945 -0.1287
H8B H 0.6412 0.2149 -0.2013
H5B H 0.5755 0.1905 -0.5097
H6B H 0.5004 0.1738 -0.4356
Fe1E Fe 0.22727(3) 1.25171(6) -0.10893(6)
O4E O 0.17724(14) 1.2372(3) -0.2475(3)
N1E N 0.10407(18) 1.2012(4) -0.3371(4)
C15E C 0.1329(2) 1.2184(4) -0.2470(5)
H9E H 0.1190 1.2163 -0.1770
C16E C 0.1228(3) 1.2020(7) -0.4456(6)
H10E H 0.1590 1.2012 -0.4374
H11E H 0.1107 1.1502 -0.4876
H12E H 0.1113 1.2550 -0.4858
C17E C 0.0511(3) 1.1835(6) -0.3316(7)
H13E H 0.0320 1.2358 -0.3546
H14E H 0.0412 1.1348 -0.3816
H15E H 0.0447 1.1680 -0.2549
O2E_2 O 0.26090(16) 0.1175(3) 0.0963(3)
O5E O 0.20185(13) 0.2636(3) 0.1557(3)
Fe1E_2 Fe 0.22727(3) 0.25171(6) -0.10893(6)
Fe1_2 Fe 0.27273(3) 1.24829(6) 0.10893(6)
Fe1B Fe 0.72727(3) 0.24829(6) -0.60893(6)
Fe1G Fe 0.77273(3) 0.25171(6) -0.39107(6)
O2_2 O 0.23910(16) 1.3825(3) -0.0963(3)
O3E O 0.16502(14) 1.2720(3) -0.0153(3)
O5_2 O 0.29815(13) 1.2364(3) -0.1557(3)
O6 O 0.0646(2) 0.0759(5) -0.0865(5)
N2 N 0.0894(2) 0.0573(4) 0.0967(5)
C18 C 0.1301(3) 0.0452(6) 0.1814(7)
H16 H 0.1610 0.0375 0.1451
H17 H 0.1240 -0.0068 0.2261
H18 H 0.1329 0.0968 0.2300
C19 C 0.0966(3) 0.0634(6) -0.0099(7)
H19 H 0.1297 0.0576 -0.0295
C20 C 0.04038(17) 0.0699(6) 0.1369(4)
H20 H 0.0156 0.0731 0.0730
H21 H 0.0400 0.1244 0.1799
H22 H 0.0327 0.0205 0.1847
N3 N 0.39772(17) 0.0529(3) 0.2913(4)
C21 C 0.35283(17) 0.0437(3) 0.3425(4)
H23 H 0.3593 0.0481 0.4238
H24 H 0.3382 -0.0135 0.3233
H25 H 0.3299 0.0901 0.3160
C22 C 0.44091(17) 0.0748(3) 0.3562(4)
C23 C 0.39600(17) 0.0366(3) 0.1715(4)
H26 H 0.4296 0.0381 0.1472
H27 H 0.3759 0.0818 0.1317
H28 H 0.3813 -0.0211 0.1550
O7 O 0.47842(17) 0.0860(3) 0.3574(4)
O8 O 0.41118(17) 0.0216(3) 0.4654(4)
O9? O 0.44169(17) 0.0936(3) 0.4471(4)
loop_
_geom_bond_atom_site_label_1
_geom_bond_atom_site_label_2
_geom_bond_site_symmetry_1
_geom_bond_site_symmetry_2
Fe1 O1 1_555 1_555
O1 C1 1_555 1_555
O2 C1 1_555 1_555
O3 Fe1 1_555 1_555
O4 Fe1 1_555 1_555
O5 C8 1_555 1_555
N1 C15 1_555 1_555
C1 C2 1_555 1_555
C2 C3 1_555 1_555
C3 H1 1_555 1_555
C4 C3 1_555 1_555
H2 C4 1_555 1_555
C5 C4 1_555 1_555
C6 C5 1_555 1_555
H3 C6 1_555 1_555
C7 C2 1_555 1_555
H4 C7 1_555 1_555
C8 O3 1_555 1_555
C9 C8 1_555 1_555
C10 C9 1_555 1_555
H5 C10 1_555 1_555
C11 C10 1_555 1_555
H6 C11 1_555 1_555
C12 C11 1_555 1_555
C13 C12 1_555 1_555
H7 C13 1_555 1_555
C14 C9 1_555 1_555
H8 C14 1_555 1_555
C15 O4 1_555 1_555
H9 C15 1_555 1_555
C16 N1 1_555 1_555
H10 C16 1_555 1_555
H11 C16 1_555 1_555
H12 C16 1_555 1_555
C17 N1 1_555 1_555
H13 C17 1_555 1_555
H14 C17 1_555 1_555
H15 C17 1_555 1_555
O6 C19 1_555 1_555
N2 C18 1_555 1_555
C18 H16 1_555 1_555
H17 C18 1_555 1_555
H18 C18 1_555 1_555
C19 N2 1_555 1_555
H19 C19 1_555 1_555
C20 N2 1_555 1_555
H20 C20 1_555 1_555
H21 C20 1_555 1_555
H22 C20 1_555 1_555
N3 C21 1_555 1_555
C21 H23 1_555 1_555
H24 C21 1_555 1_555
H25 C21 1_555 1_555
C22 N3 1_555 1_555
C23 N3 1_555 1_555
H26 C23 1_555 1_555
H27 C23 1_555 1_555
H28 C23 1_555 1_555
O7 C22 1_555 1_555
C5E C5 1_555 1_555
C4E C5E 1_555 1_555
C3E C4E 1_555 1_555
C2E C3E 1_555 1_555
C1E C2E 1_555 1_555
O1E C1E 1_555 1_555
O2E C1E 1_555 1_555
C7E C2E 1_555 1_555
C6E C5E 1_555 1_555
H3E C6E 1_555 1_555
H4E C7E 1_555 1_555
H1E C3E 1_555 1_555
H2E C4E 1_555 1_555
C12B C12 1_555 1_555
C11B C12B 1_555 1_555
C10B C11B 1_555 1_555
C9B C10B 1_555 1_555
C8B C9B 1_555 1_555
O3B C8B 1_555 1_555
O5B C8B 1_555 1_555
C14B C9B 1_555 1_555
C13B C12B 1_555 1_555
H7B C13B 1_555 1_555
H8B C14B 1_555 1_555
H5B C10B 1_555 1_555
H6B C11B 1_555 1_555
Fe1E O1E 1_555 1_555
O4E Fe1E 1_555 1_555
N1E C15E 1_555 1_555
C15E O4E 1_555 1_555
H9E C15E 1_555 1_555
C16E N1E 1_555 1_555
H10E C16E 1_555 1_555
H11E C16E 1_555 1_555
H12E C16E 1_555 1_555
C17E N1E 1_555 1_555
H13E C17E 1_555 1_555
H14E C17E 1_555 1_555
H15E C17E 1_555 1_555
O2E_2 Fe1 1_555 1_555
O5E Fe1 1_555 1_555
Fe1E_2 O2 1_555 1_555
Fe1_2 O2E 1_555 1_555
Fe1B O3B 1_555 1_555
Fe1G O5B 1_555 1_555
O2_2 Fe1E 1_555 1_555
O3E Fe1E 1_555 1_555
O5_2 Fe1E 1_555 1_555
O5 Fe1E_2 1_555 1_555
C6 C7 1_555 1_555
C13 C14 1_555 1_555
C7E C6E 1_555 1_555
C14B C13B 1_555 1_555

#END
