
#######################################################################
#
#                 Cambridge Crystallographic Data Centre
#                                CCDC 
#
#######################################################################
#
# If this CIF has been generated from an entry in the Cambridge 
# Structural Database, then it will include bibliographic, chemical, 
# crystal, experimental, refinement or atomic coordinate data resulting 
# from the CCDC's data processing and validation procedures.
#
#######################################################################

data_AGDTHC01
_symmetry_cell_setting           monoclinic
_symmetry_space_group_name_H-M   'P 21/c'
_symmetry_Int_Tables_number      14
_space_group_name_Hall           '-P 2ybc'
loop_
_symmetry_equiv_pos_site_id
_symmetry_equiv_pos_as_xyz
1 x,y,z
2 -x,1/2+y,1/2-z
3 -x,-y,-z
4 x,1/2-y,1/2+z
_cell_length_a                   10.90(2)
_cell_length_b                   24.72(1)
_cell_length_c                   11.51(2)
_cell_angle_alpha                90
_cell_angle_beta                 125.8(1)
_cell_angle_gamma                90
_cell_volume                     2515.39
loop_
_atom_site_label
_atom_site_type_symbol
_atom_site_fract_x
_atom_site_fract_y
_atom_site_fract_z
Ag1 Ag 0.28280 0.02780 0.36600
Ag2 Ag 0.85790 -0.10650 0.85580
Ag3 Ag 0.89000 -0.01100 1.02880
S1 S 0.87800 -0.08780 0.60360
S2 S 0.77910 -0.18440 0.68740
S3 S 0.48250 0.00710 0.33200
S4 S 0.68350 -0.08260 0.92430
S5 S 1.14200 -0.08740 1.02140
S6 S 0.89940 0.06090 0.74660
N1 N 0.85040 -0.18760 0.50430
N2 N 1.60710 0.06230 1.22640
N3 N 1.32250 -0.12100 1.28980
C1 C 0.83550 -0.15610 0.59020
C2 C 0.90300 -0.16640 0.41810
C3 C 0.77670 -0.15790 0.26470
C4 C 0.82330 -0.24640 0.49610
C5 C 0.96910 -0.27440 0.60770
C6 C 0.51850 -0.05160 0.78440
C7 C 1.61080 0.09650 1.12330
C8 C 1.64060 0.15540 1.16650
C9 C 1.75600 0.03880 1.34010
C10 C 1.78570 -0.01050 1.28600
C11 C 1.20120 -0.09200 1.19990
C12 C 1.42110 -0.14320 1.25410
C13 C 1.38750 -0.19930 1.20120
C14 C 1.37750 -0.12890 1.44270
C15 C 1.31600 -0.17890 1.46470
H1 H 0.94300 -0.12900 0.45600
H2 H 0.99500 -0.18400 0.44100
H3 H 0.70600 -0.13300 0.27000
H4 H 0.84000 -0.14100 0.23200
H5 H 0.70000 -0.18600 0.22400
H6 H 0.72500 -0.25500 0.47900
H7 H 0.80300 -0.25800 0.40600
H8 H 0.96200 -0.30000 0.60700
H9 H 1.04900 -0.26300 0.58700
H10 H 1.02400 -0.25900 0.72700
H11 H 1.51800 0.09400 1.03800
H12 H 1.67200 0.08100 1.10900
H13 H 1.56200 0.16600 1.17700
H14 H 1.75400 0.14300 1.24800
H15 H 1.65900 0.16800 1.10400
H16 H 1.75200 0.02700 1.41900
H17 H 1.83800 0.06800 1.37300
H18 H 1.87300 -0.02000 1.35200
H19 H 1.72000 -0.03300 1.23800
H20 H 1.81900 0.00000 1.21800
H21 H 1.44400 -0.11900 1.23300
H22 H 1.44700 -0.15800 1.30600
H23 H 1.33700 -0.22600 1.20500
H24 H 1.46300 -0.20700 1.17300
H25 H 1.27500 -0.19700 1.10800
H26 H 1.34100 -0.10200 1.46500
H27 H 1.44700 -0.17200 1.47900
H28 H 1.38000 -0.18200 1.58700
H29 H 1.21500 -0.16500 1.41900
H30 H 1.34700 -0.20100 1.43300
Ag1B Ag 0.71720 -0.02780 0.63400
S3B S 0.51750 -0.00710 0.66800
Ag3B Ag 1.11000 0.01100 0.97120
Ag2B Ag 1.14210 0.10650 1.14420
Ag1_2 Ag 1.28280 0.02780 1.36600
S2B S 1.22090 0.18440 1.31260
C1B C 1.16450 0.15610 1.40980
S1B S 1.12200 0.08780 1.39640
N1B N 1.14960 0.18760 1.49570
C2B C 1.09700 0.16640 1.58190
C3B C 1.22330 0.15790 1.73530
H3B H 1.29400 0.13300 1.73000
H4B H 1.16000 0.14100 1.76800
H5B H 1.30000 0.18600 1.77600
H1B H 1.05700 0.12900 1.54400
H2B H 1.00500 0.18400 1.55900
C4B C 1.17670 0.24640 1.50390
C5B C 1.03090 0.27440 1.39230
H8B H 1.03800 0.30000 1.39300
H9B H 0.95100 0.26300 1.41300
H10B H 0.97600 0.25900 1.27300
H6B H 1.27500 0.25500 1.52100
H7B H 1.19700 0.25800 1.59400
S4B S 1.31650 0.08260 1.07570
S6B S 1.10060 -0.06090 1.25340
S3_2 S 1.48250 0.00710 1.33200
S3B_2 S 1.51750 -0.00710 1.66800
Ag1B_2 Ag 1.71720 -0.02780 1.63400
S5B S 0.85800 0.08740 0.97860
C6B C 1.48150 0.05160 1.21560
C11B C 0.79880 0.09200 0.80010
N3B N 0.67750 0.12100 0.71020
C12B C 0.57890 0.14320 0.74590
C13B C 0.61250 0.19930 0.79880
H23B H 0.66300 0.22600 0.79500
H24B H 0.53700 0.20700 0.82700
H25B H 0.72500 0.19700 0.89200
H21B H 0.55600 0.11900 0.76700
H22B H 0.55300 0.15800 0.69400
C14B C 0.62250 0.12890 0.55730
C15B C 0.68400 0.17890 0.53530
H28B H 0.62000 0.18200 0.41300
H29B H 0.78500 0.16500 0.58100
H30B H 0.65300 0.20100 0.56700
H26B H 0.65900 0.10200 0.53500
H27B H 0.55300 0.17200 0.52100
N2B N 0.39290 -0.06230 0.77360
C7B C 0.38920 -0.09650 0.87670
C8B C 0.35940 -0.15540 0.83350
H13B H 0.43800 -0.16600 0.82300
H14B H 0.24600 -0.14300 0.75200
H15B H 0.34100 -0.16800 0.89600
H11B H 0.48200 -0.09400 0.96200
H12B H 0.32800 -0.08100 0.89100
C9B C 0.24400 -0.03880 0.65990
C10B C 0.21430 0.01050 0.71400
H18B H 0.12700 0.02000 0.64800
H19B H 0.28000 0.03300 0.76200
H20B H 0.18100 0.00000 0.78200
H16B H 0.24800 -0.02700 0.58100
H17B H 0.16200 -0.06800 0.62700
loop_
_geom_bond_atom_site_label_1
_geom_bond_atom_site_label_2
_geom_bond_site_symmetry_1
_geom_bond_site_symmetry_2
Ag1 S3 1_555 1_555
Ag2 Ag3 1_555 1_555
Ag3 S4 1_555 1_555
S1 C1 1_555 1_555
S2 Ag2 1_555 1_555
S3 Ag1B 1_555 1_555
S4 Ag2 1_555 1_555
S5 Ag2 1_555 1_555
S6 Ag1B 1_555 1_555
N1 C1 1_555 1_555
N2 C7 1_555 1_555
N3 C11 1_555 1_555
C1 S2 1_555 1_555
C2 N1 1_555 1_555
C3 C2 1_555 1_555
C4 N1 1_555 1_555
C5 C4 1_555 1_555
C6 S4 1_555 1_555
C7 C8 1_555 1_555
C8 H13 1_555 1_555
C9 N2 1_555 1_555
C10 C9 1_555 1_555
C11 S5 1_555 1_555
C12 N3 1_555 1_555
C13 C12 1_555 1_555
C14 N3 1_555 1_555
C15 C14 1_555 1_555
H1 C2 1_555 1_555
H2 C2 1_555 1_555
H3 C3 1_555 1_555
H4 C3 1_555 1_555
H5 C3 1_555 1_555
H6 C4 1_555 1_555
H7 C4 1_555 1_555
H8 C5 1_555 1_555
H9 C5 1_555 1_555
H10 C5 1_555 1_555
H11 C7 1_555 1_555
H12 C7 1_555 1_555
H14 C8 1_555 1_555
H15 C8 1_555 1_555
H16 C9 1_555 1_555
H17 C9 1_555 1_555
H18 C10 1_555 1_555
H19 C10 1_555 1_555
H20 C10 1_555 1_555
H21 C12 1_555 1_555
H22 C12 1_555 1_555
H23 C13 1_555 1_555
H24 C13 1_555 1_555
H25 C13 1_555 1_555
H26 C14 1_555 1_555
H27 C14 1_555 1_555
H28 C15 1_555 1_555
H29 C15 1_555 1_555
H30 C15 1_555 1_555
Ag1B Ag2 1_555 1_555
S3B Ag1 1_555 1_555
Ag3B Ag3 1_555 1_555
Ag2B Ag3B 1_555 1_555
Ag1_2 Ag2B 1_555 1_555
S2B Ag2B 1_555 1_555
C1B S2B 1_555 1_555
S1B Ag1_2 1_555 1_555
N1B C1B 1_555 1_555
C2B N1B 1_555 1_555
C3B C2B 1_555 1_555
H3B C3B 1_555 1_555
H4B C3B 1_555 1_555
H5B C3B 1_555 1_555
H1B C2B 1_555 1_555
H2B C2B 1_555 1_555
C4B N1B 1_555 1_555
C5B C4B 1_555 1_555
H8B C5B 1_555 1_555
H9B C5B 1_555 1_555
H10B C5B 1_555 1_555
H6B C4B 1_555 1_555
H7B C4B 1_555 1_555
S4B Ag3B 1_555 1_555
S6B Ag3 1_555 1_555
S3_2 Ag1_2 1_555 1_555
S3B_2 Ag1_2 1_555 1_555
Ag1B_2 S3_2 1_555 1_555
S5B Ag3 1_555 1_555
C6B N2 1_555 1_555
C11B S6 1_555 1_555
N3B C11B 1_555 1_555
C12B N3B 1_555 1_555
C13B C12B 1_555 1_555
H23B C13B 1_555 1_555
H24B C13B 1_555 1_555
H25B C13B 1_555 1_555
H21B C12B 1_555 1_555
H22B C12B 1_555 1_555
C14B N3B 1_555 1_555
C15B C14B 1_555 1_555
H28B C15B 1_555 1_555
H29B C15B 1_555 1_555
H30B C15B 1_555 1_555
H26B C14B 1_555 1_555
H27B C14B 1_555 1_555
N2B C6 1_555 1_555
C7B N2B 1_555 1_555
C8B C7B 1_555 1_555
H13B C8B 1_555 1_555
H14B C8B 1_555 1_555
H15B C8B 1_555 1_555
H11B C7B 1_555 1_555
H12B C7B 1_555 1_555
C9B N2B 1_555 1_555
C10B C9B 1_555 1_555
H18B C10B 1_555 1_555
H19B C10B 1_555 1_555
H20B C10B 1_555 1_555
H16B C9B 1_555 1_555
H17B C9B 1_555 1_555
S1 Ag1B 1_555 1_555
S5 Ag3B 1_555 1_555
S6 Ag3B 1_555 1_555
C6 S3B 1_555 1_555
C11 S6B 1_555 1_555
Ag1B S3B 1_555 1_555
Ag2B S4B 1_555 1_555
Ag2B S5B 1_555 1_555
Ag1_2 S6B 1_555 1_555
C1B S1B 1_555 1_555
S4B C6B 1_555 1_555
S3_2 C6B 1_555 1_555
S3B_2 Ag1B_2 1_555 1_555
S5B C11B 1_555 1_555

#END
