
#######################################################################
#
#                 Cambridge Crystallographic Data Centre
#                                CCDC 
#
#######################################################################
#
# If this CIF has been generated from an entry in the Cambridge 
# Structural Database, then it will include bibliographic, chemical, 
# crystal, experimental, refinement or atomic coordinate data resulting 
# from the CCDC's data processing and validation procedures.
#
#######################################################################

data_AGENPC11
_symmetry_cell_setting           monoclinic
_symmetry_space_group_name_H-M   'P 21/n'
_symmetry_Int_Tables_number      14
_space_group_name_Hall           '-P 2yn'
loop_
_symmetry_equiv_pos_site_id
_symmetry_equiv_pos_as_xyz
1 x,y,z
2 1/2-x,1/2+y,1/2-z
3 -x,-y,-z
4 1/2+x,1/2-y,1/2+z
_cell_length_a                   8.676(3)
_cell_length_b                   9.869(3)
_cell_length_c                   8.822(3)
_cell_angle_alpha                90
_cell_angle_beta                 111.240(4)
_cell_angle_gamma                90
_cell_volume                     704.059
loop_
_atom_site_label
_atom_site_type_symbol
_atom_site_fract_x
_atom_site_fract_y
_atom_site_fract_z
Ag1 Ag 0.93162(4) 0.09156(4) 0.62484(4)
N1 N 0.7141(5) 0.0949(4) 0.4071(5)
N2 N 0.6399(5) 0.3984(5) 0.3503(5)
C1 C 0.5732(5) 0.1687(5) 0.4224(6)
C2 C 0.6131(6) 0.3129(5) 0.4752(6)
H1 H 0.733(5) 0.136(5) 0.325(6)
H2 H 0.692(6) -0.006(6) 0.385(6)
H3 H 0.724(6) 0.366(5) 0.329(6)
H4 H 0.656(6) 0.474(6) 0.381(6)
H5 H 0.543(5) 0.125(4) 0.500(5)
H6 H 0.487(6) 0.179(5) 0.328(6)
H7 H 0.527(6) 0.346(5) 0.495(6)
H8 H 0.700(6) 0.301(5) 0.557(6)
N2C N 1.1399(5) 0.1016(5) 0.8503(5)
Ag1C Ag 0.43162(4) 0.40844(4) 0.12484(4)
H3C H 1.224(6) 0.134(5) 0.829(6)
H4C H 1.156(6) 0.026(6) 0.881(6)
Cl1 Cl 0.10217(11) 0.30944(10) 0.38525(12)
O1 O 0.0965(4) 0.3449(4) 0.5392(4)
O2 O 0.1973(4) 0.4076(3) 0.3399(4)
O3 O 0.1759(4) 0.1807(4) 0.3945(5)
O4 O -0.0615(3) 0.3063(4) 0.2650(4)
loop_
_geom_bond_atom_site_label_1
_geom_bond_atom_site_label_2
_geom_bond_site_symmetry_1
_geom_bond_site_symmetry_2
Ag1 N1 1_555 1_555
N1 C1 1_555 1_555
N2 C2 1_555 1_555
C1 C2 1_555 1_555
C2 H7 1_555 1_555
H1 N1 1_555 1_555
H2 N1 1_555 1_555
H3 N2 1_555 1_555
H4 N2 1_555 1_555
H5 C1 1_555 1_555
H6 C1 1_555 1_555
H8 C2 1_555 1_555
Cl1 O1 1_555 1_555
O2 Cl1 1_555 1_555
O3 Cl1 1_555 1_555
O4 Cl1 1_555 1_555
N2C Ag1 1_555 1_555
Ag1C N2 1_555 1_555
H3C N2C 1_555 1_555
H4C N2C 1_555 1_555

#END
