
#######################################################################
#
#                 Cambridge Crystallographic Data Centre
#                                CCDC 
#
#######################################################################
#
# If this CIF has been generated from an entry in the Cambridge 
# Structural Database, then it will include bibliographic, chemical, 
# crystal, experimental, refinement or atomic coordinate data resulting 
# from the CCDC's data processing and validation procedures.
#
#######################################################################

data_AGEQEK
_symmetry_cell_setting           monoclinic
_symmetry_space_group_name_H-M   'C 2/c'
_symmetry_Int_Tables_number      15
_space_group_name_Hall           '-C 2yn'
loop_
_symmetry_equiv_pos_site_id
_symmetry_equiv_pos_as_xyz
1 x,y,z
2 -x,y,1/2-z
3 1/2+x,1/2+y,z
4 1/2-x,1/2+y,1/2-z
5 -x,-y,-z
6 x,-y,1/2+z
7 1/2-x,1/2-y,-z
8 1/2+x,1/2-y,1/2+z
_cell_length_a                   14.570(4)
_cell_length_b                   25.221(6)
_cell_length_c                   26.294(3)
_cell_angle_alpha                90
_cell_angle_beta                 122.906(8)
_cell_angle_gamma                90
_cell_volume                     8112.07
loop_
_atom_site_label
_atom_site_type_symbol
_atom_site_fract_x
_atom_site_fract_y
_atom_site_fract_z
Ag1 Ag 0.385327(19) 0.561369(9) 0.688759(10)
O1 O 0.4367(2) 0.55249(10) 0.60737(12)
N1 N 0.3696(2) 0.47830(10) 0.69407(11)
N2 N 0.3867(2) 0.64513(10) 0.68292(11)
C1 C 0.5208(3) 0.53505(12) 0.61132(16)
C2 C 0.3485(2) 0.45314(12) 0.73039(14)
C3 C 0.3852(2) 0.43980(11) 0.66266(15)
O2 O 0.6115(2) 0.52716(10) 0.65891(11)
C4 C 0.5098(3) 0.51917(11) 0.55291(14)
N3 N 0.34954(19) 0.40057(10) 0.72352(11)
H1 H 0.3346 0.4696 0.7572
H2 H 0.4019 0.4459 0.6337
C5 C 0.3725(2) 0.39167(13) 0.68043(13)
C6 C 0.4304(3) 0.48185(11) 0.51609(14)
C7 C 0.5804(3) 0.53817(11) 0.53643(14)
C8 C 0.3316(3) 0.36030(13) 0.75725(14)
H3 H 0.3783 0.3589 0.6661
H4 H 0.3828 0.4699 0.5269
C9 C 0.6624(3) 0.58175(12) 0.57156(15)
H5 H 0.3382 0.3766 0.7925
H6 H 0.3876 0.3332 0.7713
C10 C 0.2200(3) 0.33455(12) 0.71905(14)
O3 O 0.7564(2) 0.57588(10) 0.58049(11)
O4 O 0.6307(2) 0.62098(9) 0.58682(11)
C11 C 0.2081(3) 0.28589(12) 0.69207(14)
C12 C 0.1277(3) 0.36038(12) 0.70970(15)
C13 C 0.1059(3) 0.26305(12) 0.65614(15)
H7 H 0.2694 0.2683 0.6981
H8 H 0.1348 0.3931 0.7278
C14 C 0.0254(3) 0.33768(12) 0.67353(16)
H9 H 0.0990 0.2302 0.6383
C15 C 0.0138(3) 0.28875(12) 0.64662(14)
H10 H -0.0360 0.3554 0.6672
C16 C -0.0971(3) 0.26200(13) 0.60986(16)
N4 N -0.1094(2) 0.22233(10) 0.64645(12)
H11 H -0.1543 0.2884 0.5958
H12 H -0.1046 0.2450 0.5747
C17 C -0.0967(2) 0.16977(11) 0.64450(14)
C18 C -0.1336(2) 0.23209(13) 0.68903(15)
H13 H -0.0788 0.1531 0.6195
C19 C -0.1367(2) 0.18396(12) 0.71102(15)
H14 H -0.1455 0.2649 0.7005
H15 H -0.1522 0.1781 0.7405
Ag1A Ag 0.614673(19) 0.561369(9) 0.811241(10)
N1A N 0.6304(2) 0.47830(10) 0.80593(11)
O1A O 0.5633(2) 0.55249(10) 0.89263(12)
N2A N 0.6133(2) 0.64513(10) 0.81708(11)
C2A C 0.6515(2) 0.45314(12) 0.76961(14)
C3A C 0.6148(2) 0.43980(11) 0.83734(15)
N3A N 0.65046(19) 0.40057(10) 0.77648(11)
H1A H 0.6654 0.4696 0.7428
H2A H 0.5981 0.4459 0.8663
C5A C 0.6275(2) 0.39167(13) 0.81957(13)
C7D C 0.4196(3) 0.46183(11) 0.46357(14)
C6D C 0.5696(3) 0.51815(11) 0.48391(14)
C8A C 0.6684(3) 0.36030(13) 0.74275(14)
H3A H 0.6217 0.3589 0.8339
C4D C 0.4902(3) 0.48083(11) 0.44709(14)
C9D C 0.3376(3) 0.41825(12) 0.42844(15)
H4D H 0.6172 0.5301 0.4731
H5A H 0.6618 0.3766 0.7075
H6A H 0.6124 0.3332 0.7287
C10A C 0.7800(3) 0.33455(12) 0.78095(14)
C1D C 0.4792(3) 0.46495(12) 0.38868(16)
O3D O 0.2436(2) 0.42412(10) 0.41951(11)
O4D O 0.3693(2) 0.37902(9) 0.41318(11)
C11A C 0.7919(3) 0.28589(12) 0.80793(14)
C12A C 0.8723(3) 0.36038(12) 0.79030(15)
O1D O 0.5633(2) 0.44751(10) 0.39263(12)
O2D O 0.3885(2) 0.47284(10) 0.34109(11)
C13A C 0.8941(3) 0.26305(12) 0.84386(15)
H7A H 0.7306 0.2683 0.8019
H8A H 0.8652 0.3931 0.7722
C14A C 0.9746(3) 0.33768(12) 0.82647(16)
Ag1D Ag 0.614673(19) 0.438631(9) 0.311241(10)
H9A H 0.9010 0.2302 0.8617
C15A C 0.9862(3) 0.28875(12) 0.85338(14)
H10A H 1.0360 0.3554 0.8328
C16A C 1.0971(3) 0.26200(13) 0.89014(16)
N4A N 1.1094(2) 0.22233(10) 0.85355(12)
H11A H 1.1543 0.2884 0.9042
H12A H 1.1046 0.2450 0.9253
N2B N -0.1133(2) 0.14513(10) 0.68292(11)
C17A C 1.0967(2) 0.16977(11) 0.85550(14)
C18A C 1.1336(2) 0.23209(13) 0.81097(15)
Ag1B Ag -0.114673(19) 0.061369(9) 0.688759(10)
N2C N 1.1133(2) 0.14513(10) 0.81708(11)
H13A H 1.0788 0.1531 0.8805
C19A C 1.1367(2) 0.18396(12) 0.78898(15)
H14A H 1.1455 0.2649 0.7995
Ag1C Ag 1.114673(19) 0.061369(9) 0.811241(10)
H15A H 1.1522 0.1781 0.7595
Ag2 Ag 0.14019(2) 0.555419(9) 0.561137(12)
N5 N 0.0972(2) 0.71058(10) 0.60644(12)
N6 N -0.36467(19) 0.88954(9) 0.53014(10)
N7 N 0.1237(2) 0.63668(9) 0.57258(12)
N8 N -0.3697(2) 0.97218(9) 0.55411(12)
C20 C -0.0456(3) 0.81954(12) 0.57961(16)
H16 H 0.0137 0.8362 0.5822
C21 C -0.2230(3) 0.77114(11) 0.57203(15)
H17 H -0.2822 0.7547 0.5697
C22 C -0.0307(3) 0.77251(12) 0.61000(14)
C23 C -0.3494(3) 0.84308(12) 0.50221(14)
H18 H -0.3599 0.8535 0.4639
H19 H -0.4047 0.8169 0.4938
C24 C 0.1061(2) 0.65773(12) 0.61254(14)
H20 H 0.1008 0.6385 0.6410
C25 C -0.1196(3) 0.74848(12) 0.60644(15)
H21 H -0.1100 0.7170 0.6272
C26 C -0.3955(2) 0.93993(11) 0.58628(15)
H22 H -0.4125 0.9515 0.6138
C27 C 0.1265(2) 0.67779(12) 0.53958(15)
H23 H 0.1380 0.6747 0.5082
C28 C -0.2382(2) 0.81808(11) 0.54117(13)
C29 C -0.3926(2) 0.88909(12) 0.57223(14)
H24 H -0.4067 0.8594 0.5879
C30 C 0.1099(3) 0.72406(12) 0.56027(15)
H25 H 0.1076 0.7580 0.5458
C31 C -0.3518(2) 0.94036(11) 0.52031(14)
H26 H -0.3330 0.9517 0.4935
C32 C 0.0816(3) 0.74694(14) 0.64484(16)
H27 H 0.1371 0.7744 0.6604
H28 H 0.0904 0.7275 0.6791
C33 C -0.1486(3) 0.84211(12) 0.54534(15)
H29 H -0.1578 0.8737 0.5249
Ag2B Ag -0.35981(2) 1.055419(9) 0.561137(12)
N8B N 0.1303(2) 0.47218(9) 0.55411(12)
O5 O 0.1441(2) 0.51881(11) 0.39944(14)
H30 H 0.1711 0.4879 0.4105
H31 H 0.1602 0.5305 0.3749
O6 O 0.2750(2) 0.64639(11) 0.37297(13)
H32 H 0.3128 0.6465 0.4115
H33 H 0.2617 0.6144 0.3608
O7 O 0.5942(2) 0.34295(10) 0.49463(13)
H34 H 0.5294 0.3543 0.4707
H35 H 0.6383 0.3645 0.4939
O8 O 0.7803(3) 0.46131(11) 0.67808(13)
H36 H 0.7225 0.4790 0.6665
H37 H 0.8295 0.4719 0.7133
O9 O 0.2508(2) 0.58630(11) 0.50466(14)
H38 H 0.2246 0.5644 0.4754
H39 H 0.3086 0.5731 0.5348
O10 O 0.2421(2) 0.41399(12) 0.24148(13)
H40 H 0.1864 0.4341 0.2256
H41 H 0.2931 0.4289 0.2735
O11 O 0.0749(3) 0.48981(13) 0.20016(15)
H42 H 0.0436 0.4726 0.2144
H43 H 0.0186 0.5063 0.1728
O12 O 0.0435(2) 0.38763(13) 0.33007(16)
H44 H 0.0958 0.4035 0.3607
H45 H 0.0704 0.3697 0.3138
O13 O 0.1961(3) 0.33692(11) 0.30180(15)
H46 H 0.2449 0.3455 0.3380
H47 H 0.2006 0.3581 0.2781
O14 O 0.0000 0.2698(7) 0.2500
H48 H 0.0562 0.2895 0.2648
H48A H -0.0562 0.2895 0.2352
loop_
_geom_bond_atom_site_label_1
_geom_bond_atom_site_label_2
_geom_bond_site_symmetry_1
_geom_bond_site_symmetry_2
Ag1 O1 1_555 1_555
O1 C1 1_555 1_555
N1 Ag1 1_555 1_555
N2 Ag1 1_555 1_555
C1 O2 1_555 1_555
C2 N1 1_555 1_555
C3 N1 1_555 1_555
C4 C1 1_555 1_555
N3 C2 1_555 1_555
H1 C2 1_555 1_555
H2 C3 1_555 1_555
C5 C3 1_555 1_555
C6 C4 1_555 1_555
C7 C4 1_555 1_555
C8 N3 1_555 1_555
H3 C5 1_555 1_555
H4 C6 1_555 1_555
C9 C7 1_555 1_555
H5 C8 1_555 1_555
H6 C8 1_555 1_555
C10 C8 1_555 1_555
O3 C9 1_555 1_555
O4 C9 1_555 1_555
C11 C10 1_555 1_555
C12 C10 1_555 1_555
C13 C11 1_555 1_555
H7 C11 1_555 1_555
H8 C12 1_555 1_555
C14 C12 1_555 1_555
H9 C13 1_555 1_555
C15 C13 1_555 1_555
H10 C14 1_555 1_555
C16 C15 1_555 1_555
N4 C16 1_555 1_555
H11 C16 1_555 1_555
H12 C16 1_555 1_555
C17 N4 1_555 1_555
C18 N4 1_555 1_555
H13 C17 1_555 1_555
C19 C18 1_555 1_555
H14 C18 1_555 1_555
H15 C19 1_555 1_555
Ag2 N7 1_555 1_555
N5 C24 1_555 1_555
N6 C23 1_555 1_555
N7 C24 1_555 1_555
N8 C26 1_555 1_555
C20 H16 1_555 1_555
C21 H17 1_555 1_555
C22 C20 1_555 1_555
C23 H18 1_555 1_555
H19 C23 1_555 1_555
C24 H20 1_555 1_555
C25 C21 1_555 1_555
H21 C25 1_555 1_555
C26 H22 1_555 1_555
C27 N7 1_555 1_555
H23 C27 1_555 1_555
C28 C21 1_555 1_555
C29 N6 1_555 1_555
H24 C29 1_555 1_555
C30 N5 1_555 1_555
H25 C30 1_555 1_555
C31 N6 1_555 1_555
H26 C31 1_555 1_555
C32 N5 1_555 1_555
H27 C32 1_555 1_555
H28 C32 1_555 1_555
C33 C20 1_555 1_555
H29 C33 1_555 1_555
O5 H30 1_555 1_555
H31 O5 1_555 1_555
O6 H32 1_555 1_555
H33 O6 1_555 1_555
O7 H34 1_555 1_555
H35 O7 1_555 1_555
O8 H36 1_555 1_555
H37 O8 1_555 1_555
O9 H38 1_555 1_555
H39 O9 1_555 1_555
O10 H40 1_555 1_555
H41 O10 1_555 1_555
O11 H42 1_555 1_555
H43 O11 1_555 1_555
O12 H44 1_555 1_555
H45 O12 1_555 1_555
O13 H46 1_555 1_555
H47 O13 1_555 1_555
O14 H48 1_555 1_555
Ag1A Ag1 1_555 1_555
N1A Ag1A 1_555 1_555
O1A Ag1A 1_555 1_555
N2A Ag1A 1_555 1_555
C2A N1A 1_555 1_555
C3A N1A 1_555 1_555
N3A C2A 1_555 1_555
H1A C2A 1_555 1_555
H2A C3A 1_555 1_555
C5A C3A 1_555 1_555
C7D C6 1_555 1_555
C6D C7 1_555 1_555
C8A N3A 1_555 1_555
H3A C5A 1_555 1_555
C4D C7D 1_555 1_555
C9D C7D 1_555 1_555
H4D C6D 1_555 1_555
H5A C8A 1_555 1_555
H6A C8A 1_555 1_555
C10A C8A 1_555 1_555
C1D C4D 1_555 1_555
O3D C9D 1_555 1_555
O4D C9D 1_555 1_555
C11A C10A 1_555 1_555
C12A C10A 1_555 1_555
O1D C1D 1_555 1_555
O2D C1D 1_555 1_555
C13A C11A 1_555 1_555
H7A C11A 1_555 1_555
H8A C12A 1_555 1_555
C14A C12A 1_555 1_555
Ag1D O1D 1_555 1_555
H9A C13A 1_555 1_555
C15A C13A 1_555 1_555
H10A C14A 1_555 1_555
C16A C15A 1_555 1_555
N4A C16A 1_555 1_555
H11A C16A 1_555 1_555
H12A C16A 1_555 1_555
N2B C17 1_555 1_555
C17A N4A 1_555 1_555
C18A N4A 1_555 1_555
Ag1B N2B 1_555 1_555
N2C C17A 1_555 1_555
H13A C17A 1_555 1_555
C19A C18A 1_555 1_555
H14A C18A 1_555 1_555
Ag1C N2C 1_555 1_555
H15A C19A 1_555 1_555
Ag2B N8 1_555 1_555
N8B Ag2 1_555 1_555
H48A O14 1_555 1_555
N3 C5 1_555 1_555
C14 C15 1_555 1_555
C19 N2B 1_555 1_555
N8 C31 1_555 1_555
C22 C25 1_555 1_555
C22 C32 1_555 1_555
C23 C28 1_555 1_555
C26 C29 1_555 1_555
C27 C30 1_555 1_555
C28 C33 1_555 1_555
N3A C5A 1_555 1_555
C6D C4D 1_555 1_555
C14A C15A 1_555 1_555
N2C C19A 1_555 1_555

#END
