
#######################################################################
#
#                 Cambridge Crystallographic Data Centre
#                                CCDC 
#
#######################################################################
#
# If this CIF has been generated from an entry in the Cambridge 
# Structural Database, then it will include bibliographic, chemical, 
# crystal, experimental, refinement or atomic coordinate data resulting 
# from the CCDC's data processing and validation procedures.
#
#######################################################################

data_AGEQAG
_symmetry_cell_setting           monoclinic
_symmetry_space_group_name_H-M   'P 21/c'
_symmetry_Int_Tables_number      14
_space_group_name_Hall           '-P 2ybc'
loop_
_symmetry_equiv_pos_site_id
_symmetry_equiv_pos_as_xyz
1 x,y,z
2 -x,1/2+y,1/2-z
3 -x,-y,-z
4 x,1/2-y,1/2+z
_cell_length_a                   10.170(2)
_cell_length_b                   15.467(4)
_cell_length_c                   14.529(2)
_cell_angle_alpha                90
_cell_angle_beta                 114.028(11)
_cell_angle_gamma                90
_cell_volume                     2087.36
loop_
_atom_site_label
_atom_site_type_symbol
_atom_site_fract_x
_atom_site_fract_y
_atom_site_fract_z
Ag1 Ag 0.38013(3) 0.427473(16) 0.476772(17)
O1 O 0.7298(4) 0.3755(3) 0.2829(2)
O2 O 0.9284(7) 0.3576(6) 0.2775(5)
O3 O 0.6028(3) 0.3472(2) 0.4634(2)
O4 O 0.7609(4) 0.44950(19) 0.4730(3)
C1 C 0.5156(4) 0.3120(2) -0.3236(2)
H1 H 0.6036 0.3057 -0.3282
C2 C 0.7203(4) 0.3727(2) 0.4698(2)
N1 N 0.3331(3) 0.51229(16) 0.18466(18)
N2 N 0.3162(3) 0.46818(17) 0.32295(18)
N3 N 0.4013(3) 0.35902(17) -0.38877(19)
N4 N 0.3423(3) 0.30153(16) -0.27277(19)
N5 N 0.8489(5) 0.3497(3) 0.3199(3)
C3 C 0.2574(4) 0.4880(2) -0.0682(2)
H2 H 0.2120 0.5416 -0.0809
C4 C 1.0092(5) 0.2415(4) 0.4268(4)
H3 H 1.0529 0.2396 0.3817
C5 C 0.4804(4) 0.2761(2) -0.2509(2)
H4 H 0.5384 0.2415 -0.1975
C6 C 1.0524(4) 0.1877(3) 0.5078(4)
H5 H 1.1282 0.1497 0.5188
C7 C 0.9000(4) 0.2985(3) 0.4131(3)
C8 C 0.8310(3) 0.3044(2) 0.4784(2)
C9 C 0.8742(4) 0.2480(2) 0.5589(3)
H6 H 0.8294 0.2492 0.6034
C10 C 0.9864(4) 0.1882(2) 0.5740(3)
H7 H 1.0154 0.1498 0.6278
C11 C 0.2995(4) 0.3517(2) -0.3557(2)
H8 H 0.2094 0.3777 -0.3857
C12 C 0.2247(4) 0.4279(2) -0.1458(2)
H9 H 0.1573 0.4416 -0.2100
C13 C 0.4252(4) 0.3887(2) 0.0454(2)
H10 H 0.4931 0.3752 0.1095
C14 C 0.3934(4) 0.3287(2) -0.0315(2)
H11 H 0.4399 0.2754 -0.0187
C15 C 0.3574(3) 0.4682(2) 0.0280(2)
C16 C 0.4013(3) 0.4753(2) 0.2752(2)
H12 H 0.4967 0.4571 0.3010
C17 C 0.2919(3) 0.3479(2) -0.1279(2)
C18 C 0.3950(4) 0.5335(2) 0.1122(2)
H13 H 0.4989 0.5368 0.1475
H14 H 0.3606 0.5900 0.0834
C19 C 0.2597(4) 0.2835(2) -0.2124(3)
H15 H 0.2825 0.2258 -0.1842
H16 H 0.1577 0.2853 -0.2556
C20 C 0.1864(4) 0.5019(3) 0.2595(3)
H17 H 0.1048 0.5055 0.2732
C21 C 0.1955(4) 0.5293(3) 0.1736(2)
H18 H 0.1226 0.5545 0.1181
Ag1_2 Ag 0.38013(3) 0.427473(16) -0.523228(17)
Ag1B Ag 0.61987(3) 0.572527(16) 0.523228(17)
O4B O 0.2391(4) 0.55050(19) 0.5270(3)
N3_2 N 0.4013(3) 0.35902(17) 0.61123(19)
O5 O 0.9719(8) 0.5129(5) 0.4017(6)
H19 H 1.0361 0.5487 0.4368
H20 H 0.9086 0.5083 0.4255
loop_
_geom_bond_atom_site_label_1
_geom_bond_atom_site_label_2
_geom_bond_site_symmetry_1
_geom_bond_site_symmetry_2
Ag1 O3 1_555 1_555
O1 N5 1_555 1_555
O2 N5 1_555 1_555
O3 C2 1_555 1_555
O4 C2 1_555 1_555
C1 H1 1_555 1_555
C2 C8 1_555 1_555
N1 C16 1_555 1_555
N2 Ag1 1_555 1_555
N3 C1 1_555 1_555
N4 C5 1_555 1_555
N5 C7 1_555 1_555
C3 H2 1_555 1_555
C4 H3 1_555 1_555
C5 C1 1_555 1_555
H4 C5 1_555 1_555
C6 C4 1_555 1_555
H5 C6 1_555 1_555
C7 C4 1_555 1_555
C8 C7 1_555 1_555
C9 C8 1_555 1_555
H6 C9 1_555 1_555
C10 C6 1_555 1_555
H7 C10 1_555 1_555
C11 N3 1_555 1_555
H8 C11 1_555 1_555
C12 C3 1_555 1_555
H9 C12 1_555 1_555
C13 H10 1_555 1_555
C14 C13 1_555 1_555
H11 C14 1_555 1_555
C15 C3 1_555 1_555
C16 N2 1_555 1_555
H12 C16 1_555 1_555
C17 C12 1_555 1_555
C18 N1 1_555 1_555
H13 C18 1_555 1_555
H14 C18 1_555 1_555
C19 N4 1_555 1_555
H15 C19 1_555 1_555
H16 C19 1_555 1_555
C20 N2 1_555 1_555
H17 C20 1_555 1_555
C21 N1 1_555 1_555
H18 C21 1_555 1_555
O5 H19 1_555 1_555
H20 O5 1_555 1_555
Ag1_2 N3 1_555 1_555
Ag1B Ag1 1_555 1_555
O4B Ag1 1_555 1_555
N3_2 Ag1 1_555 1_555
O4 Ag1B 1_555 1_555
N4 C11 1_555 1_555
C9 C10 1_555 1_555
C13 C15 1_555 1_555
C14 C17 1_555 1_555
C15 C18 1_555 1_555
C17 C19 1_555 1_555
C20 C21 1_555 1_555

#END
