
#######################################################################
#
#                 Cambridge Crystallographic Data Centre
#                                CCDC 
#
#######################################################################
#
# If this CIF has been generated from an entry in the Cambridge 
# Structural Database, then it will include bibliographic, chemical, 
# crystal, experimental, refinement or atomic coordinate data resulting 
# from the CCDC's data processing and validation procedures.
#
#######################################################################

data_AGEWOZ
_symmetry_cell_setting           monoclinic
_symmetry_space_group_name_H-M   'C 2/m'
_symmetry_Int_Tables_number      12
_space_group_name_Hall           '-C 2y'
loop_
_symmetry_equiv_pos_site_id
_symmetry_equiv_pos_as_xyz
1 x,y,z
2 1/2+x,1/2+y,z
3 -x,y,-z
4 1/2-x,1/2+y,-z
5 -x,-y,-z
6 1/2-x,1/2-y,-z
7 x,-y,z
8 1/2+x,1/2-y,z
_cell_length_a                   14.400(3)
_cell_length_b                   9.3894(18)
_cell_length_c                   8.6926(17)
_cell_angle_alpha                90
_cell_angle_beta                 123.499(2)
_cell_angle_gamma                90
_cell_volume                     980.08
loop_
_atom_site_label
_atom_site_type_symbol
_atom_site_fract_x
_atom_site_fract_y
_atom_site_fract_z
C1 C 1.10344(19) 0.8148(3) 0.4564(3)
H1 H 1.1099 0.8484 0.5626
C2 C 1.2181(2) 1.0000 0.4231(4)
H2 H 1.2600 1.0000 0.3659
H3 H 1.2709 1.0000 0.5558
C3 C 1.04594(19) 0.6996(2) 0.3560(3)
H4 H 1.0047 0.6398 0.3817
C4 C 1.12026(18) 0.7897(2) 0.2228(3)
H5 H 1.1413 0.8056 0.1406
Cd1 Cd 1.0000 0.5000 0.0000
N1 N 1.15045(14) 0.87231(18) 0.3691(2)
N2 N 1.05726(15) 0.6835(2) 0.2104(2)
N3 N 0.7626(2) 0.5000 -0.0152(5)
O1 O 0.8040(2) 0.5000 -0.1083(4)
O2 O 0.8218(3) 0.5000 0.1538(5)
O3 O 0.6621(3) 0.5000 -0.0908(7)
C1F C 1.10344(19) 1.1852(3) 0.4564(3)
C1F_2 C 1.10344(19) 0.1852(3) 0.4564(3)
C1_2 C 1.10344(19) -0.1852(3) 0.4564(3)
H1F H 1.1099 1.1516 0.5626
H1F_2 H 1.1099 0.1516 0.5626
H1_2 H 1.1099 -0.1516 0.5626
C2_2 C 1.2181(2) 0.0000 0.4231(4)
H2_2 H 1.2600 0.0000 0.3659
H3_2 H 1.2709 0.0000 0.5558
C3F C 1.04594(19) 1.3004(2) 0.3560(3)
C3F_2 C 1.04594(19) 0.3004(2) 0.3560(3)
C3_2 C 1.04594(19) -0.3004(2) 0.3560(3)
H4F H 1.0047 1.3602 0.3817
H4F_2 H 1.0047 0.3602 0.3817
H4_2 H 1.0047 -0.3602 0.3817
C4F C 1.12026(18) 1.2103(2) 0.2228(3)
C4F_2 C 1.12026(18) 0.2103(2) 0.2228(3)
C4_2 C 1.12026(18) -0.2103(2) 0.2228(3)
H5F H 1.1413 1.1944 0.1406
H5F_2 H 1.1413 0.1944 0.1406
H5_2 H 1.1413 -0.1944 0.1406
Cd1_2 Cd 1.0000 1.5000 0.0000
Cd1_3 Cd 1.0000 -0.5000 0.0000
N1F N 1.15045(14) 1.12769(18) 0.3691(2)
N1F_2 N 1.15045(14) 0.12769(18) 0.3691(2)
N1_2 N 1.15045(14) -0.12769(18) 0.3691(2)
N2F N 1.05726(15) 1.3165(2) 0.2104(2)
N2F_2 N 1.05726(15) 0.3165(2) 0.2104(2)
N2_2 N 1.05726(15) -0.3165(2) 0.2104(2)
N2D N 0.94274(15) 0.3165(2) -0.2104(2)
N2B N 0.94274(15) 0.6835(2) -0.2104(2)
N3D N 1.2374(2) 0.5000 0.0152(5)
O1D O 1.1960(2) 0.5000 0.1083(4)
O2D O 1.1782(3) 0.5000 -0.1538(5)
O3D O 1.3379(3) 0.5000 0.0908(7)
loop_
_geom_bond_atom_site_label_1
_geom_bond_atom_site_label_2
_geom_bond_site_symmetry_1
_geom_bond_site_symmetry_2
C1 H1 1_555 1_555
C2 H2 1_555 1_555
H3 C2 1_555 1_555
C3 C1 1_555 1_555
H4 C3 1_555 1_555
C4 H5 1_555 1_555
Cd1 N2 1_555 1_555
N1 C1 1_555 1_555
N2 C3 1_555 1_555
N3 O1 1_555 1_555
O1 Cd1 1_555 1_555
O2 N3 1_555 1_555
O3 N3 1_555 1_555
C1F H1F 1_555 1_555
C1F_2 H1F_2 1_555 1_555
C1_2 H1_2 1_555 1_555
C2_2 H2_2 1_555 1_555
H3_2 C2_2 1_555 1_555
C3F C1F 1_555 1_555
C3F_2 C1F_2 1_555 1_555
C3_2 C1_2 1_555 1_555
H4F C3F 1_555 1_555
H4F_2 C3F_2 1_555 1_555
H4_2 C3_2 1_555 1_555
C4F H5F 1_555 1_555
C4F_2 H5F_2 1_555 1_555
C4_2 H5_2 1_555 1_555
Cd1_2 N2F 1_555 1_555
Cd1_3 N2_2 1_555 1_555
N1F C2 1_555 1_555
N1F_2 C1F_2 1_555 1_555
N1_2 C1_2 1_555 1_555
N2F C3F 1_555 1_555
N2F_2 Cd1 1_555 1_555
N2_2 C3_2 1_555 1_555
N2D Cd1 1_555 1_555
N2B Cd1 1_555 1_555
N3D O1D 1_555 1_555
O1D Cd1 1_555 1_555
O2D N3D 1_555 1_555
O3D N3D 1_555 1_555
C2 N1 1_555 1_555
C4 N1 1_555 1_555
C4 N2 1_555 1_555
C1F N1F 1_555 1_555
C2_2 N1F_2 1_555 1_555
C2_2 N1_2 1_555 1_555
C3F_2 N2F_2 1_555 1_555
C4F N1F 1_555 1_555
C4F N2F 1_555 1_555
C4F_2 N1F_2 1_555 1_555
C4F_2 N2F_2 1_555 1_555
C4_2 N1_2 1_555 1_555
C4_2 N2_2 1_555 1_555

#END
