
#######################################################################
#
#                 Cambridge Crystallographic Data Centre
#                                CCDC 
#
#######################################################################
#
# If this CIF has been generated from an entry in the Cambridge 
# Structural Database, then it will include bibliographic, chemical, 
# crystal, experimental, refinement or atomic coordinate data resulting 
# from the CCDC's data processing and validation procedures.
#
#######################################################################

data_AGEXUG
_symmetry_cell_setting           triclinic
_symmetry_space_group_name_H-M   'P -1'
_symmetry_Int_Tables_number      2
_space_group_name_Hall           '-P 1'
loop_
_symmetry_equiv_pos_site_id
_symmetry_equiv_pos_as_xyz
1 x,y,z
2 -x,-y,-z
_cell_length_a                   7.6165(19)
_cell_length_b                   8.806(2)
_cell_length_c                   9.592(4)
_cell_angle_alpha                104.933(4)
_cell_angle_beta                 106.732(4)
_cell_angle_gamma                109.503(3)
_cell_volume                     534.292
loop_
_atom_site_label
_atom_site_type_symbol
_atom_site_fract_x
_atom_site_fract_y
_atom_site_fract_z
Cu1 Cu 0.0000 0.0000 1.0000
S1 S -0.52053(15) -0.15703(13) 0.69380(11)
O1 O -0.3405(4) -0.0167(4) 0.8288(3)
O2 O -0.5949(5) -0.3150(4) 0.7224(4)
O3 O -0.4939(5) -0.1863(5) 0.5466(3)
N1 N -0.8801(5) 0.2533(4) 1.0306(4)
N2 N -0.9497(5) -0.0319(5) 0.7991(4)
C1 C -0.8098(6) 0.3961(5) 1.1632(5)
H1 H -0.8138 0.3805 1.2548
C2 C -0.7324(6) 0.5640(5) 1.1687(5)
H2 H -0.6874 0.6596 1.2616
C3 C -0.7226(7) 0.5883(6) 1.0348(6)
H3 H -0.6718 0.7004 1.0355
C4 C -0.7891(6) 0.4443(6) 0.8999(5)
H4 H -0.7805 0.4583 0.8088
C5 C -0.8689(6) 0.2783(5) 0.9000(4)
C6 C -0.9570(6) 0.1157(5) 0.7538(4)
H5 H -0.8795 0.1350 0.6903
H6 H -1.0973 0.0874 0.6910
C7 C -0.7555(6) -0.0471(5) 0.8199(4)
H7 H -0.7577 -0.1398 0.8573
H8 H -0.6428 0.0614 0.9013
C8 C -0.7157(6) -0.0851(6) 0.6705(4)
H9 H -0.6745 0.0200 0.6489
H10 H -0.8404 -0.1747 0.5812
H11 H -1.014(6) -0.110(5) 0.733(4)
Cu1_2 Cu -1.0000 0.0000 1.0000
Cu1_3 Cu 1.0000 0.0000 1.0000
S1A S 0.52053(15) 0.15703(13) 1.30620(11)
O1A O 0.3405(4) 0.0167(4) 1.1712(3)
O2A O 0.5949(5) 0.3150(4) 1.2776(4)
O3A O 0.4939(5) 0.1863(5) 1.4534(3)
N1A N 0.8801(5) -0.2533(4) 0.9694(4)
N1_2 N 0.1199(5) 0.2533(4) 1.0306(4)
N1A_2 N -0.1199(5) -0.2533(4) 0.9694(4)
N2A N 0.9497(5) 0.0319(5) 1.2009(4)
N2_2 N 0.0503(5) -0.0319(5) 0.7991(4)
N2A_2 N -0.0503(5) 0.0319(5) 1.2009(4)
C1A C 0.8098(6) -0.3961(5) 0.8368(5)
H1A H 0.8138 -0.3805 0.7452
C2A C 0.7324(6) -0.5640(5) 0.8313(5)
H2A H 0.6874 -0.6596 0.7384
C3A C 0.7226(7) -0.5883(6) 0.9652(6)
H3A H 0.6718 -0.7004 0.9645
C4A C 0.7891(6) -0.4443(6) 1.1001(5)
H4A H 0.7805 -0.4583 1.1912
C5A C 0.8689(6) -0.2783(5) 1.1000(4)
C6A C 0.9570(6) -0.1157(5) 1.2462(4)
H5A H 0.8795 -0.1350 1.3097
H6A H 1.0973 -0.0874 1.3090
C7A C 0.7555(6) 0.0471(5) 1.1801(4)
H7A H 0.7577 0.1398 1.1427
H8A H 0.6428 -0.0614 1.0987
C8A C 0.7157(6) 0.0851(6) 1.3295(4)
H9A H 0.6745 -0.0200 1.3511
H10A H 0.8404 0.1747 1.4188
H11A H 1.014(6) 0.110(5) 1.267(4)
H11_2 H -0.014(6) -0.110(5) 0.733(4)
H11A_2 H 0.014(6) 0.110(5) 1.267(4)
O4 O 0.7585(5) 0.6689(5) 0.4847(4)
H12 H 0.721(6) 0.5598(19) 0.441(6)
H13 H 0.665(5) 0.701(5) 0.488(6)
loop_
_geom_bond_atom_site_label_1
_geom_bond_atom_site_label_2
_geom_bond_site_symmetry_1
_geom_bond_site_symmetry_2
Cu1 O1 1_555 1_555
S1 O1 1_555 1_555
O2 S1 1_555 1_555
O3 S1 1_555 1_555
O4 H12 1_555 1_555
N1 C1 1_555 1_555
N2 C6 1_555 1_555
C1 H1 1_555 1_555
C2 C1 1_555 1_555
H2 C2 1_555 1_555
C3 C2 1_555 1_555
H3 C3 1_555 1_555
C4 C3 1_555 1_555
H4 C4 1_555 1_555
C5 N1 1_555 1_555
C6 C5 1_555 1_555
H5 C6 1_555 1_555
H6 C6 1_555 1_555
C7 N2 1_555 1_555
H7 C7 1_555 1_555
H8 C7 1_555 1_555
C8 S1 1_555 1_555
H9 C8 1_555 1_555
H10 C8 1_555 1_555
H11 N2 1_555 1_555
H13 O4 1_555 1_555
Cu1_2 N1 1_555 1_555
Cu1_3 N1A 1_555 1_555
S1A O1A 1_555 1_555
O1A Cu1 1_555 1_555
O2A S1A 1_555 1_555
O3A S1A 1_555 1_555
N1A C1A 1_555 1_555
N1_2 Cu1 1_555 1_555
N1A_2 Cu1 1_555 1_555
N2A Cu1_3 1_555 1_555
N2_2 Cu1 1_555 1_555
N2A_2 Cu1 1_555 1_555
C1A H1A 1_555 1_555
C2A C1A 1_555 1_555
H2A C2A 1_555 1_555
C3A C2A 1_555 1_555
H3A C3A 1_555 1_555
C4A C3A 1_555 1_555
H4A C4A 1_555 1_555
C5A N1A 1_555 1_555
C6A N2A 1_555 1_555
H5A C6A 1_555 1_555
H6A C6A 1_555 1_555
C7A N2A 1_555 1_555
H7A C7A 1_555 1_555
H8A C7A 1_555 1_555
C8A S1A 1_555 1_555
H9A C8A 1_555 1_555
H10A C8A 1_555 1_555
H11A N2A 1_555 1_555
H11_2 N2_2 1_555 1_555
H11A_2 N2A_2 1_555 1_555
N2 Cu1_2 1_555 1_555
C4 C5 1_555 1_555
C7 C8 1_555 1_555
C4A C5A 1_555 1_555
C5A C6A 1_555 1_555
C7A C8A 1_555 1_555

#END
