
#######################################################################
#
#                 Cambridge Crystallographic Data Centre
#                                CCDC 
#
#######################################################################
#
# If this CIF has been generated from an entry in the Cambridge 
# Structural Database, then it will include bibliographic, chemical, 
# crystal, experimental, refinement or atomic coordinate data resulting 
# from the CCDC's data processing and validation procedures.
#
#######################################################################

data_AGIBAU
_symmetry_cell_setting           triclinic
_symmetry_space_group_name_H-M   'P -1'
_symmetry_Int_Tables_number      2
_space_group_name_Hall           '-P 1'
loop_
_symmetry_equiv_pos_site_id
_symmetry_equiv_pos_as_xyz
1 x,y,z
2 -x,-y,-z
_cell_length_a                   10.344(4)
_cell_length_b                   11.236(4)
_cell_length_c                   11.627(2)
_cell_angle_alpha                79.103(13)
_cell_angle_beta                 85.05(2)
_cell_angle_gamma                83.280(19)
_cell_volume                     1315.01
loop_
_atom_site_label
_atom_site_type_symbol
_atom_site_fract_x
_atom_site_fract_y
_atom_site_fract_z
Cu1 Cu 1.0000 0.5000 -0.5000
Cu2 Cu 1.21675(5) 0.29393(5) -0.29184(4)
O1 O 0.7861(3) 0.7388(3) -0.0033(3)
O2 O 0.4439(3) 0.1796(3) -0.0512(3)
O3 O 0.8775(3) 0.3959(3) -0.4127(3)
O4 O 1.0464(3) 0.2543(3) -0.3864(3)
O5 O 0.9955(3) 0.5826(3) -0.3605(2)
O6 O 0.9034(3) 0.7090(3) 0.1541(3)
O7 O 1.1840(3) 0.4693(3) -0.3391(2)
O8 O 0.4559(4) 0.3390(3) -0.1960(3)
N1 N 1.7592(4) 0.0540(4) -0.5113(4)
N2 N 1.6739(5) -0.1409(4) -0.3422(4)
N3 N 1.2876(4) 0.1177(3) -0.2551(3)
N4 N 1.3589(4) 0.2943(3) -0.4214(3)
C1 C 1.3083(6) -0.0867(5) -0.1564(5)
C2 C 1.8282(6) -0.0507(6) -0.4866(6)
C3 C 1.2380(5) 0.5935(5) -0.0319(5)
C4 C 1.7839(7) -0.1486(7) -0.4022(7)
C5 C 1.4239(8) -0.1090(6) -0.2150(6)
C6 C 1.3887(5) 0.3856(5) -0.5076(4)
C7 C 1.5894(5) 0.2764(5) -0.5613(4)
C8 C 1.5027(6) 0.3779(5) -0.5797(5)
C9 C 1.5600(5) 0.1775(4) -0.4734(4)
C10 C 0.8838(5) 0.0917(4) -0.2417(4)
C11 C 1.5998(5) -0.0321(4) -0.3648(4)
C12 C 0.8032(5) 0.0217(5) -0.1627(4)
C13 C 1.4017(4) 0.0942(4) -0.3171(4)
C14 C 0.6815(5) 0.0703(4) -0.1281(4)
C15 C 0.6370(4) 0.1895(4) -0.1742(4)
C16 C 0.5042(4) 0.2456(4) -0.1407(4)
C17 C 1.4746(5) -0.0188(4) -0.2987(4)
C18 C 1.6413(5) 0.0628(5) -0.4488(4)
C19 C 0.7157(4) 0.2593(4) -0.2536(4)
C20 C 1.2252(5) 0.5636(4) -0.1401(4)
C21 C 1.1067(4) 0.5856(4) -0.1905(3)
C22 C 0.9303(4) 0.2918(4) -0.3683(3)
C23 C 0.9979(4) 0.6371(4) -0.1320(4)
C24 C 1.1277(5) 0.6420(4) 0.0280(4)
C25 C 0.8878(4) 0.7077(4) 0.0473(4)
C26 C 1.4419(4) 0.1911(4) -0.4069(4)
C27 C 0.8406(4) 0.2113(4) -0.2874(3)
C28 C 1.0084(4) 0.6636(4) -0.0215(3)
C29 C 1.0931(4) 0.5427(4) -0.3041(3)
C30 C 1.2426(5) 0.0289(4) -0.1771(4)
H1 H 0.635(5) 0.026(5) -0.091(4)
H2 H 0.919(4) 0.657(4) -0.161(3)
H3 H 1.168(5) 0.043(4) -0.130(4)
H4 H 1.306(5) 0.530(4) -0.173(4)
H5 H 0.966(4) 0.061(4) -0.265(4)
H6 H 1.311(5) 0.598(5) -0.016(5)
H7 H 0.828(6) -0.041(6) -0.145(5)
H8 H 1.131(5) 0.670(5) 0.098(5)
H9 H 0.678(5) 0.330(5) -0.284(4)
H10 H 1.275(6) -0.141(5) -0.106(5)
H11 H 1.517(6) 0.453(6) -0.659(5)
H12 H 1.678(5) 0.265(5) -0.612(5)
H13 H 1.908(7) -0.067(6) -0.535(6)
H14 H 1.329(6) 0.438(5) -0.525(5)
H15 H 1.821(6) -0.188(5) -0.392(5)
H16 H 1.456(6) -0.146(5) -0.216(6)
Cu2A Cu 0.78325(5) 0.70607(5) -0.70816(4)
Cu2A_2 Cu 0.78325(5) 0.70607(5) 0.29184(4)
Cu2_2 Cu 1.21675(5) 0.29393(5) -1.29184(4)
O1A O 1.2139(3) 0.2612(3) -0.9967(3)
O2A O 1.5561(3) 0.8204(3) -0.9488(3)
O3A O 1.1225(3) 0.6041(3) -0.5873(3)
O4A O 0.9536(3) 0.7457(3) -0.6136(3)
O5A O 1.0045(3) 0.4174(3) -0.6395(2)
O6A O 1.0966(3) 0.2910(3) -1.1541(3)
O6A_2 O 1.0966(3) 0.2910(3) -0.1541(3)
O6_2 O 0.9034(3) 0.7090(3) -0.8459(3)
O7A O 0.8160(3) 0.5307(3) -0.6609(2)
O8A O 1.5441(4) 0.6610(3) -0.8040(3)
N1A N 0.2408(4) 0.9460(4) -0.4887(4)
N2A N 0.3261(5) 1.1409(4) -0.6578(4)
N3A N 0.7124(4) 0.8823(3) -0.7449(3)
N4A N 0.6411(4) 0.7057(3) -0.5786(3)
C1A C 0.6917(6) 1.0867(5) -0.8436(5)
C2A C 0.1718(6) 1.0507(6) -0.5134(6)
C3A C 0.7620(5) 0.4065(5) -0.9681(5)
C4A C 0.2161(7) 1.1486(7) -0.5978(7)
C5A C 0.5761(8) 1.1090(6) -0.7850(6)
C6A C 0.6113(5) 0.6144(5) -0.4924(4)
C7A C 0.4106(5) 0.7236(5) -0.4387(4)
C8A C 0.4973(6) 0.6221(5) -0.4203(5)
C9A C 0.4400(5) 0.8225(4) -0.5266(4)
C10A C 1.1162(5) 0.9083(4) -0.7583(4)
C11A C 0.4002(5) 1.0321(4) -0.6352(4)
C12A C 1.1968(5) 0.9783(5) -0.8373(4)
C13A C 0.5983(4) 0.9058(4) -0.6829(4)
C14A C 1.3185(5) 0.9297(4) -0.8719(4)
C15A C 1.3630(4) 0.8105(4) -0.8258(4)
C16A C 1.4958(4) 0.7544(4) -0.8593(4)
C17A C 0.5254(5) 1.0188(4) -0.7013(4)
C18A C 0.3587(5) 0.9372(5) -0.5512(4)
C19A C 1.2843(4) 0.7407(4) -0.7464(4)
C20A C 0.7748(5) 0.4364(4) -0.8599(4)
C21A C 0.8933(4) 0.4144(4) -0.8095(3)
C22A C 1.0697(4) 0.7082(4) -0.6317(3)
C23A C 1.0021(4) 0.3629(4) -0.8680(4)
C24A C 0.8723(5) 0.3580(4) -1.0280(4)
C25A C 1.1122(4) 0.2923(4) -1.0473(4)
C26A C 0.5581(4) 0.8089(4) -0.5931(4)
C27A C 1.1594(4) 0.7887(4) -0.7126(3)
C28A C 0.9916(4) 0.3364(4) -0.9785(3)
C29A C 0.9069(4) 0.4573(4) -0.6959(3)
C30A C 0.7574(5) 0.9711(4) -0.8229(4)
H1A H 1.365(5) 0.974(5) -0.909(4)
H2A H 1.081(4) 0.343(4) -0.839(3)
H3A H 0.832(5) 0.957(4) -0.870(4)
H4A H 0.694(5) 0.470(4) -0.827(4)
H5A H 1.034(4) 0.939(4) -0.735(4)
H6A H 0.689(5) 0.402(5) -0.984(5)
H7A H 1.172(6) 1.041(6) -0.855(5)
H8A H 0.869(5) 0.330(5) -1.098(5)
H9A H 1.322(5) 0.670(5) -0.716(4)
H10A H 0.725(6) 1.141(5) -0.894(5)
H11A H 0.483(6) 0.547(6) -0.341(5)
H12A H 0.322(5) 0.735(5) -0.388(5)
H13A H 0.092(7) 1.067(6) -0.465(6)
H14A H 0.671(6) 0.562(5) -0.475(5)
H15A H 0.179(6) 1.188(5) -0.608(5)
H16A H 0.544(6) 1.146(5) -0.784(6)
loop_
_geom_bond_atom_site_label_1
_geom_bond_atom_site_label_2
_geom_bond_site_symmetry_1
_geom_bond_site_symmetry_2
Cu1 O3 1_555 1_555
Cu2 O4 1_555 1_555
O1 C25 1_555 1_555
O2 C16 1_555 1_555
O3 C22 1_555 1_555
O4 C22 1_555 1_555
O5 Cu1 1_555 1_555
O6 C25 1_555 1_555
O7 Cu2 1_555 1_555
O8 C16 1_555 1_555
N1 C2 1_555 1_555
N2 C4 1_555 1_555
N3 Cu2 1_555 1_555
N4 Cu2 1_555 1_555
C1 C5 1_555 1_555
C2 C4 1_555 1_555
C3 C20 1_555 1_555
C4 H15 1_555 1_555
C5 C17 1_555 1_555
C6 N4 1_555 1_555
C7 C8 1_555 1_555
C8 C6 1_555 1_555
C9 C7 1_555 1_555
C10 C12 1_555 1_555
C11 N2 1_555 1_555
C12 C14 1_555 1_555
C13 N3 1_555 1_555
C14 C15 1_555 1_555
C15 C16 1_555 1_555
C17 C11 1_555 1_555
C18 N1 1_555 1_555
C19 C15 1_555 1_555
C20 C21 1_555 1_555
C21 C23 1_555 1_555
C22 C27 1_555 1_555
C23 C28 1_555 1_555
C24 C3 1_555 1_555
C25 C28 1_555 1_555
C26 N4 1_555 1_555
C27 C10 1_555 1_555
C28 C24 1_555 1_555
C29 O5 1_555 1_555
C30 N3 1_555 1_555
H1 C14 1_555 1_555
H2 C23 1_555 1_555
H3 C30 1_555 1_555
H4 C20 1_555 1_555
H5 C10 1_555 1_555
H6 C3 1_555 1_555
H7 C12 1_555 1_555
H8 C24 1_555 1_555
H9 C19 1_555 1_555
H10 C1 1_555 1_555
H11 C8 1_555 1_555
H12 C7 1_555 1_555
H13 C2 1_555 1_555
H14 C6 1_555 1_555
H16 C5 1_555 1_555
Cu2A O4A 1_555 1_555
Cu2A_2 O6 1_555 1_555
Cu2_2 O6A 1_555 1_555
O1A C25A 1_555 1_555
O2A C16A 1_555 1_555
O3A Cu1 1_555 1_555
O4A C22A 1_555 1_555
O5A Cu1 1_555 1_555
O6A C25A 1_555 1_555
O6A_2 Cu2 1_555 1_555
O6_2 Cu2A 1_555 1_555
O7A Cu2A 1_555 1_555
O8A C16A 1_555 1_555
N1A C2A 1_555 1_555
N2A C4A 1_555 1_555
N3A Cu2A 1_555 1_555
N4A Cu2A 1_555 1_555
C1A C5A 1_555 1_555
C2A C4A 1_555 1_555
C3A C20A 1_555 1_555
C4A H15A 1_555 1_555
C5A C17A 1_555 1_555
C6A N4A 1_555 1_555
C7A C8A 1_555 1_555
C8A C6A 1_555 1_555
C9A C7A 1_555 1_555
C10A C12A 1_555 1_555
C11A N2A 1_555 1_555
C12A C14A 1_555 1_555
C13A N3A 1_555 1_555
C14A C15A 1_555 1_555
C15A C16A 1_555 1_555
C17A C11A 1_555 1_555
C18A N1A 1_555 1_555
C19A C15A 1_555 1_555
C20A C21A 1_555 1_555
C21A C23A 1_555 1_555
C22A O3A 1_555 1_555
C23A C28A 1_555 1_555
C24A C3A 1_555 1_555
C25A C28A 1_555 1_555
C26A N4A 1_555 1_555
C27A C10A 1_555 1_555
C28A C24A 1_555 1_555
C29A O5A 1_555 1_555
C30A N3A 1_555 1_555
H1A C14A 1_555 1_555
H2A C23A 1_555 1_555
H3A C30A 1_555 1_555
H4A C20A 1_555 1_555
H5A C10A 1_555 1_555
H6A C3A 1_555 1_555
H7A C12A 1_555 1_555
H8A C24A 1_555 1_555
H9A C19A 1_555 1_555
H10A C1A 1_555 1_555
H11A C8A 1_555 1_555
H12A C7A 1_555 1_555
H13A C2A 1_555 1_555
H14A C6A 1_555 1_555
H16A C5A 1_555 1_555
O7 C29 1_555 1_555
C1 C30 1_555 1_555
C9 C18 1_555 1_555
C9 C26 1_555 1_555
C11 C18 1_555 1_555
C13 C17 1_555 1_555
C13 C26 1_555 1_555
C19 C27 1_555 1_555
C21 C29 1_555 1_555
O7A C29A 1_555 1_555
C1A C30A 1_555 1_555
C9A C18A 1_555 1_555
C9A C26A 1_555 1_555
C11A C18A 1_555 1_555
C13A C17A 1_555 1_555
C13A C26A 1_555 1_555
C19A C27A 1_555 1_555
C21A C29A 1_555 1_555
C22A C27A 1_555 1_555

#END
