
#######################################################################
#
#                 Cambridge Crystallographic Data Centre
#                                CCDC 
#
#######################################################################
#
# If this CIF has been generated from an entry in the Cambridge 
# Structural Database, then it will include bibliographic, chemical, 
# crystal, experimental, refinement or atomic coordinate data resulting 
# from the CCDC's data processing and validation procedures.
#
#######################################################################

data_AGIFIH
_symmetry_cell_setting           triclinic
_symmetry_space_group_name_H-M   'P -1'
_symmetry_Int_Tables_number      2
_space_group_name_Hall           '-P 1'
loop_
_symmetry_equiv_pos_site_id
_symmetry_equiv_pos_as_xyz
1 x,y,z
2 -x,-y,-z
_cell_length_a                   8.9967(4)
_cell_length_b                   9.6011(4)
_cell_length_c                   12.5131(7)
_cell_angle_alpha                76.307(4)
_cell_angle_beta                 73.465(5)
_cell_angle_gamma                63.310(5)
_cell_volume                     918.247
loop_
_atom_site_label
_atom_site_type_symbol
_atom_site_fract_x
_atom_site_fract_y
_atom_site_fract_z
Cd1 Cd 0.328094(19) 0.216428(17) 0.033485(13)
O1 O 0.43344(19) -0.04993(18) 0.11534(13)
O2 O -0.1417(2) -0.16390(18) 0.01884(13)
O3 O 0.2250(3) 0.2234(3) 0.2350(2)
O4 O 0.0702(3) 0.4137(3) 0.1343(2)
O5 O -0.0052(4) 0.4028(3) 0.3146(2)
O6 O 0.5799(2) 0.2174(2) 0.02871(17)
O7 O 0.4384(3) 0.4231(3) 0.1138(2)
O8 O 0.7133(2) 0.3161(2) 0.08342(18)
O9 O 0.2717(2) 0.41570(18) -0.11478(15)
H1 H 0.2944 0.4806 -0.0933
H2 H 0.1669 0.4561 -0.1205
N1 N 0.1729(2) -0.0569(2) 0.17878(15)
H3 H 0.1268 0.0390 0.1491
N2 N 0.4008(2) -0.2373(2) 0.25570(16)
H4 H 0.5082 -0.2782 0.2542
N3 N 0.0233(2) -0.1665(2) 0.12457(15)
H5 H 0.1076 -0.2013 0.0699
N4 N -0.2638(2) -0.0915(3) 0.19364(16)
H6 H -0.3617 -0.0690 0.1810
N5 N 0.0934(3) 0.3474(3) 0.2315(2)
N6 N 0.5749(3) 0.3221(2) 0.07681(17)
C1 C 0.3383(3) -0.1140(2) 0.18095(17)
C2 C 0.2938(3) -0.3064(3) 0.34064(18)
C3 C 0.1622(3) -0.3026(2) 0.28418(19)
H7 H 0.0817 -0.3360 0.3411
H8 H 0.2196 -0.3785 0.2308
C4 C 0.0625(3) -0.1424(2) 0.22235(17)
C5 C 0.4078(4) -0.4774(3) 0.3739(3)
H9 H 0.4497 -0.5341 0.3104
H10 H 0.3437 -0.5239 0.4339
H11 H 0.5018 -0.4818 0.3985
C6 C 0.2167(4) -0.2153(4) 0.4420(2)
H12 H 0.3053 -0.2309 0.4777
H13 H 0.1370 -0.2524 0.4945
H14 H 0.1592 -0.1054 0.4176
C7 C -0.1300(3) -0.1405(2) 0.11064(17)
C8 C -0.2585(3) -0.0724(3) 0.30498(18)
C9 C -0.1043(3) -0.0355(2) 0.29063(18)
H15 H -0.1313 0.0719 0.2548
H16 H -0.0866 -0.0409 0.3647
C10 C -0.4177(3) 0.0685(3) 0.3450(2)
H17 H -0.4205 0.1609 0.2934
H18 H -0.4170 0.0825 0.4183
H19 H -0.5162 0.0512 0.3485
C11 C -0.2553(3) -0.2188(3) 0.3869(2)
H20 H -0.3621 -0.2260 0.3995
H21 H -0.2363 -0.2122 0.4569
H22 H -0.1654 -0.3104 0.3559
Cd1A Cd -0.328094(19) -0.216428(17) -0.033485(13)
Cd1A_2 Cd 0.671906(19) -0.216428(17) -0.033485(13)
O1A O 0.56656(19) 0.04993(18) -0.11534(13)
O2A O 0.1417(2) 0.16390(18) -0.01884(13)
loop_
_geom_bond_atom_site_label_1
_geom_bond_atom_site_label_2
_geom_bond_site_symmetry_1
_geom_bond_site_symmetry_2
Cd1 O1 1_555 1_555
O1 C1 1_555 1_555
O2 C7 1_555 1_555
O3 Cd1 1_555 1_555
O4 Cd1 1_555 1_555
O5 N5 1_555 1_555
O6 Cd1 1_555 1_555
O7 N6 1_555 1_555
O8 N6 1_555 1_555
O9 Cd1 1_555 1_555
H1 O9 1_555 1_555
H2 O9 1_555 1_555
N1 H3 1_555 1_555
N2 H4 1_555 1_555
N3 H5 1_555 1_555
N4 H6 1_555 1_555
N5 O3 1_555 1_555
N6 O6 1_555 1_555
C1 N1 1_555 1_555
C2 N2 1_555 1_555
C3 C2 1_555 1_555
H7 C3 1_555 1_555
H8 C3 1_555 1_555
C4 N1 1_555 1_555
C5 C2 1_555 1_555
H9 C5 1_555 1_555
H10 C5 1_555 1_555
H11 C5 1_555 1_555
C6 C2 1_555 1_555
H12 C6 1_555 1_555
H13 C6 1_555 1_555
H14 C6 1_555 1_555
C7 N3 1_555 1_555
C8 N4 1_555 1_555
C9 C4 1_555 1_555
H15 C9 1_555 1_555
H16 C9 1_555 1_555
C10 C8 1_555 1_555
H17 C10 1_555 1_555
H18 C10 1_555 1_555
H19 C10 1_555 1_555
C11 C8 1_555 1_555
H20 C11 1_555 1_555
H21 C11 1_555 1_555
H22 C11 1_555 1_555
Cd1A O2 1_555 1_555
Cd1A_2 O1 1_555 1_555
O1A Cd1 1_555 1_555
O2A Cd1 1_555 1_555
O4 N5 1_555 1_555
N2 C1 1_555 1_555
N3 C4 1_555 1_555
N4 C7 1_555 1_555
C3 C4 1_555 1_555
C8 C9 1_555 1_555
Cd1A_2 O1A 1_555 1_555

#END
