
#######################################################################
#
#                 Cambridge Crystallographic Data Centre
#                                CCDC 
#
#######################################################################
#
# If this CIF has been generated from an entry in the Cambridge 
# Structural Database, then it will include bibliographic, chemical, 
# crystal, experimental, refinement or atomic coordinate data resulting 
# from the CCDC's data processing and validation procedures.
#
#######################################################################

data_AGIJUW
_symmetry_cell_setting           monoclinic
_symmetry_space_group_name_H-M   'C 2/c'
_symmetry_Int_Tables_number      15
_space_group_name_Hall           '-C 2yn'
loop_
_symmetry_equiv_pos_site_id
_symmetry_equiv_pos_as_xyz
1 x,y,z
2 1/2+x,1/2+y,z
3 -x,y,1/2-z
4 1/2-x,1/2+y,1/2-z
5 -x,-y,-z
6 1/2-x,1/2-y,-z
7 x,-y,1/2+z
8 1/2+x,1/2-y,1/2+z
_cell_length_a                   15.661(3)
_cell_length_b                   7.2182(14)
_cell_length_c                   21.894(4)
_cell_angle_alpha                90
_cell_angle_beta                 102.70(3)
_cell_angle_gamma                90
_cell_volume                     2414.44
loop_
_atom_site_label
_atom_site_type_symbol
_atom_site_fract_x
_atom_site_fract_y
_atom_site_fract_z
Cu1 Cu 0.08961(3) 0.21630(6) 0.087274(19)
O1 O 0.05192(17) 0.3760(4) 0.14922(11)
O2 O 0.0220(2) 0.6314(5) 0.09150(12)
O3 O -0.03501(15) 0.1733(4) 0.04521(11)
O4 O 0.11148(16) 0.4350(4) 0.01445(12)
H1 H 0.0816 0.5084 0.0288
H2 H 0.0802 0.4097 -0.0254
N1 N -0.11088(18) -0.0061(4) -0.03625(13)
N2 N -0.2170(2) -0.2371(4) -0.13869(14)
C1 C 0.0297(2) 0.5434(6) 0.14117(16)
C2 C 0.0139(2) 0.6440(5) 0.19801(16)
C3 C 0.0117(3) 0.8384(5) 0.19806(18)
H3 H 0.0182 0.9043 0.1629
C4 C 0.0000 0.9298(8) 0.2500
H4 H 0.0000 1.0587 0.2500
C5 C 0.0000 0.5543(6) 0.2500
H5 H 0.0000 0.4254 0.2500
C6 C -0.0415(2) 0.0491(5) 0.00310(16)
C7 C -0.1934(2) 0.0855(6) -0.03325(18)
H6 H -0.2154 0.0340 0.0012
H7 H -0.1827 0.2165 -0.0251
C8 C -0.2614(3) 0.0620(6) -0.0933(2)
H8 H -0.2404 0.1188 -0.1274
H9 H -0.3145 0.1258 -0.0896
C9 C -0.2822(2) -0.1383(6) -0.1086(2)
H10 H -0.2854 -0.2029 -0.0703
H11 H -0.3395 -0.1458 -0.1366
C10 C -0.2202(3) -0.1632(7) -0.20250(19)
H12 H -0.2789 -0.1716 -0.2270
H13 H -0.2018 -0.0360 -0.1996
H14 H -0.1818 -0.2344 -0.2221
C11 C -0.2444(3) -0.4338(6) -0.1452(2)
H15 H -0.2041 -0.5027 -0.1637
H16 H -0.2449 -0.4840 -0.1047
H17 H -0.3020 -0.4423 -0.1715
Cu1B Cu -0.08961(3) 0.21630(6) 0.412726(19)
Cu1D Cu -0.08961(3) -0.21630(6) -0.087274(19)
O1B O -0.05192(17) 0.3760(4) 0.35078(11)
O2B O -0.0220(2) 0.6314(5) 0.40850(12)
O3D O 0.03501(15) -0.1733(4) -0.04521(11)
O3B O 0.03501(15) 0.1733(4) 0.45479(11)
O4B O -0.11148(16) 0.4350(4) 0.48555(12)
H1B H -0.0816 0.5084 0.4712
H2B H -0.0802 0.4097 0.5254
N1D N 0.11088(18) 0.0061(4) 0.03625(13)
N1F N -0.11088(18) 0.0061(4) 0.46375(13)
N2D N 0.2170(2) 0.2371(4) 0.13869(14)
N2F N -0.2170(2) 0.2371(4) 0.36131(14)
C1B C -0.0297(2) 0.5434(6) 0.35883(16)
C2B C -0.0139(2) 0.6440(5) 0.30199(16)
C3B C -0.0117(3) 0.8384(5) 0.30194(18)
H3B H -0.0182 0.9043 0.3371
C6D C 0.0415(2) -0.0491(5) -0.00310(16)
C7D C 0.1934(2) -0.0855(6) 0.03325(18)
H6D H 0.2154 -0.0340 -0.0012
H7D H 0.1827 -0.2165 0.0251
C8D C 0.2614(3) -0.0620(6) 0.0933(2)
H8D H 0.2404 -0.1188 0.1274
H9D H 0.3145 -0.1258 0.0896
C9D C 0.2822(2) 0.1383(6) 0.1086(2)
H10D H 0.2854 0.2029 0.0703
H11D H 0.3395 0.1458 0.1366
C10D C 0.2202(3) 0.1632(7) 0.20250(19)
H12D H 0.2789 0.1716 0.2270
H13D H 0.2018 0.0360 0.1996
H14D H 0.1818 0.2344 0.2221
C11D C 0.2444(3) 0.4338(6) 0.1452(2)
H15D H 0.2041 0.5027 0.1637
H16D H 0.2449 0.4840 0.1047
H17D H 0.3020 0.4423 0.1715
loop_
_geom_bond_atom_site_label_1
_geom_bond_atom_site_label_2
_geom_bond_site_symmetry_1
_geom_bond_site_symmetry_2
Cu1 O1 1_555 1_555
O1 C1 1_555 1_555
O2 C1 1_555 1_555
O3 Cu1 1_555 1_555
O4 Cu1 1_555 1_555
H1 O4 1_555 1_555
H2 O4 1_555 1_555
N1 C6 1_555 1_555
N2 C9 1_555 1_555
C1 C2 1_555 1_555
C2 C3 1_555 1_555
C3 H3 1_555 1_555
C4 C3 1_555 1_555
H4 C4 1_555 1_555
C5 C2 1_555 1_555
H5 C5 1_555 1_555
C6 O3 1_555 1_555
C7 N1 1_555 1_555
H6 C7 1_555 1_555
H7 C7 1_555 1_555
C8 C7 1_555 1_555
H8 C8 1_555 1_555
H9 C8 1_555 1_555
C9 C8 1_555 1_555
H10 C9 1_555 1_555
H11 C9 1_555 1_555
C10 N2 1_555 1_555
H12 C10 1_555 1_555
H13 C10 1_555 1_555
H14 C10 1_555 1_555
C11 N2 1_555 1_555
H15 C11 1_555 1_555
H16 C11 1_555 1_555
H17 C11 1_555 1_555
Cu1B O1B 1_555 1_555
Cu1D N1 1_555 1_555
O1B C1B 1_555 1_555
O2B C1B 1_555 1_555
O3D Cu1D 1_555 1_555
O3B Cu1B 1_555 1_555
O4B Cu1B 1_555 1_555
H1B O4B 1_555 1_555
H2B O4B 1_555 1_555
N1D Cu1 1_555 1_555
N1F Cu1B 1_555 1_555
N2D Cu1 1_555 1_555
N2F Cu1B 1_555 1_555
C1B C2B 1_555 1_555
C2B C5 1_555 1_555
C3B C4 1_555 1_555
H3B C3B 1_555 1_555
C6D C6 1_555 1_555
C7D N1D 1_555 1_555
H6D C7D 1_555 1_555
H7D C7D 1_555 1_555
C8D C7D 1_555 1_555
H8D C8D 1_555 1_555
H9D C8D 1_555 1_555
C9D N2D 1_555 1_555
H10D C9D 1_555 1_555
H11D C9D 1_555 1_555
C10D N2D 1_555 1_555
H12D C10D 1_555 1_555
H13D C10D 1_555 1_555
H14D C10D 1_555 1_555
C11D N2D 1_555 1_555
H15D C11D 1_555 1_555
H16D C11D 1_555 1_555
H17D C11D 1_555 1_555
N2 Cu1D 1_555 1_555
O3D C6D 1_555 1_555
N1D C6D 1_555 1_555
C2B C3B 1_555 1_555
C8D C9D 1_555 1_555

#END
