
#######################################################################
#
#                 Cambridge Crystallographic Data Centre
#                                CCDC 
#
#######################################################################
#
# If this CIF has been generated from an entry in the Cambridge 
# Structural Database, then it will include bibliographic, chemical, 
# crystal, experimental, refinement or atomic coordinate data resulting 
# from the CCDC's data processing and validation procedures.
#
#######################################################################

data_AGILEH
_symmetry_cell_setting           trigonal
_symmetry_space_group_name_H-M   'P 32'
_symmetry_Int_Tables_number      145
_space_group_name_Hall           'P 32'
loop_
_symmetry_equiv_pos_site_id
_symmetry_equiv_pos_as_xyz
1 x,y,z
2 -y,x-y,2/3+z
3 -x+y,-x,1/3+z
_cell_length_a                   16.144(2)
_cell_length_b                   16.144(2)
_cell_length_c                   16.777(3)
_cell_angle_alpha                90
_cell_angle_beta                 90
_cell_angle_gamma                120
_cell_volume                     3786.76
loop_
_atom_site_label
_atom_site_type_symbol
_atom_site_fract_x
_atom_site_fract_y
_atom_site_fract_z
Si1 Si 0.1780(1) -0.0747(1) 0.0970(1)
O1 O 0.1337(3) 0.1641(3) 0.0331(3)
N1 N 0.2485(4) 0.0883(4) -0.0022(3)
Li1 Li 0.0946(8) 0.0316(9) 0.0086(7)
C1 C 0.2213(6) -0.1101(6) 0.1870(6)
C2 C 0.1645(6) -0.1587(6) 0.0160(5)
C3 C 0.0688(5) -0.0721(5) 0.1096(4)
C4 C 0.0491(5) -0.0227(4) 0.1701(4)
C5 C -0.0435(5) -0.0351(5) 0.1827(4)
C6 C -0.0621(6) 0.0176(6) 0.2400(5)
C7 C 0.0109(6) 0.0839(5) 0.2885(5)
C8 C 0.1032(6) 0.0969(5) 0.2799(5)
C9 C 0.1202(5) 0.0446(5) 0.2248(4)
C10 C 0.2764(4) 0.0514(5) 0.0684(4)
C11 C 0.2831(6) 0.0681(6) -0.0755(4)
C12 C 0.3079(7) 0.1506(7) -0.1334(6)
C13 C 0.2886(6) 0.2199(7) -0.0873(5)
C14 C 0.2893(5) 0.1940(5) 0.0002(4)
C15 C 0.2322(5) 0.2198(5) 0.0549(5)
C16 C 0.0750(5) 0.1939(5) 0.0749(5)
H1 H 0.2399 -0.0611 0.2283
H2 H 0.2767 -0.1166 0.1726
H3 H 0.1701 -0.1714 0.2073
H4 H 0.1192 -0.2243 0.0327
H5 H 0.2267 -0.1530 0.0047
H6 H 0.1404 -0.1433 -0.0321
H7 H 0.0110(60) -0.0990(60) 0.0720(50)
H8 H -0.0951 -0.0807 0.1511
H9 H -0.1250 0.0077 0.2455
H10 H -0.0015 0.1197 0.3267
H11 H 0.1540 0.1420 0.3125
H12 H 0.1827 0.0531 0.2222
H13 H 0.2895 0.0950 0.1142
H14 H 0.3359 0.0504 0.0562
H15 H 0.2332 0.0070 -0.0988
H16 H 0.3405 0.0627 -0.0645
H17 H 0.3759 0.1815 -0.1497
H18 H 0.2673 0.1274 -0.1817
H19 H 0.2257 0.2122 -0.1022
H20 H 0.3389 0.2868 -0.0978
H21 H 0.3568 0.2251 0.0196
H22 H 0.2411 0.2063 0.1108
H23 H 0.2539 0.2888 0.0501
H24 H 0.0837 0.1912 0.1325
H25 H 0.0077 0.1511 0.0612
H26 H 0.0937 0.2595 0.0596
C6A C -0.0176(6) -0.0797(8) -0.0933(5)
C7A C -0.0839(5) -0.0730(8) -0.0448(5)
Li1B Li -0.0630(12) -0.0946(8) 0.3419(7)
H9A H -0.0077 -0.1327 -0.0878
H10A H -0.1197 -0.1212 -0.0066
Si2 Si 0.7396(1) 0.1490(1) 0.2226(1)
O2 O 0.5005(3) 0.1957(3) 0.2792(3)
N2 N 0.5752(4) 0.0801(4) 0.3201(3)
Li2 Li 0.6310(8) 0.2333(8) 0.3075(7)
C17 C 0.8222(6) 0.1621(6) 0.3074(5)
C18 C 0.7742(6) 0.1030(6) 0.1324(5)
C19 C 0.7415(5) 0.2616(5) 0.2090(4)
C20 C 0.6940(5) 0.2844(5) 0.1482(4)
C21 C 0.6292(5) 0.2170(5) 0.0948(4)
C22 C 0.5786(5) 0.2383(6) 0.0386(4)
C23 C 0.5909(5) 0.3280(6) 0.0323(4)
C24 C 0.6582(5) 0.3989(5) 0.0837(4)
C25 C 0.7077(5) 0.3781(5) 0.1395(4)
C26 C 0.6134(5) 0.0541(5) 0.2496(4)
C27 C 0.5949(6) 0.0457(6) 0.3962(5)
C28 C 0.5160(7) 0.0307(6) 0.4549(5)
C29 C 0.4459(7) 0.0463(6) 0.4064(6)
C30 C 0.4713(5) 0.0424(4) 0.3188(5)
C31 C 0.4449(5) 0.0983(5) 0.2626(5)
C32 C 0.4693(5) 0.2510(5) 0.2365(5)
H27 H 0.8888 0.2016 0.2901
H28 H 0.8108 0.0988 0.3232
H29 H 0.8100 0.1926 0.3528
H30 H 0.7841 0.1449 0.0867
H31 H 0.7230 0.0380 0.1200
H32 H 0.8334 0.1023 0.1435
H33 H 0.7940(50) 0.3200(50) 0.2220(40)
H34 H 0.6189 0.1538 0.0967
H35 H 0.5347 0.1893 0.0040
H36 H 0.5556 0.3422 -0.0051
H37 H 0.6697 0.4625 0.0797
H38 H 0.7522 0.4277 0.1731
H39 H 0.5710 0.0433 0.2034
H40 H 0.6123 -0.0067 0.2607
H41 H 0.6583 0.0936 0.4174
H42 H 0.5945 -0.0151 0.3875
H43 H 0.4845 -0.0349 0.4772
H44 H 0.5425 0.0772 0.4993
H45 H 0.4525 0.1093 0.4189
H46 H 0.3794 -0.0043 0.4177
H47 H 0.4387 -0.0259 0.3012
H48 H 0.4556 0.0858 0.2069
H49 H 0.3763 0.0778 0.2689
H50 H 0.4870 0.2542 0.1803
H51 H 0.4996 0.3157 0.2588
H52 H 0.3996 0.2212 0.2411
C23B C 0.7371(8) 0.4091(5) 0.3656(4)
C24B C 0.7407(7) 0.3418(5) 0.4170(4)
Li2A Li 0.7667(8) 0.3977(11) -0.0258(7)
H36B H 0.7866 0.4444 0.3282
H37B H 0.7928 0.3303 0.4130
Si3 Si 0.4771(2) 0.5531(2) 0.1370(1)
O3 O 0.4722(3) 0.8108(4) 0.0608(3)
N3 N 0.5695(4) 0.7150(4) 0.0353(4)
Li3 Li 0.4220(9) 0.6777(8) 0.0371(7)
C33 C 0.5134(7) 0.5182(7) 0.2342(6)
C34 C 0.4598(7) 0.4606(7) 0.0581(7)
C35 C 0.3703(3) 0.5646(6) 0.1400(4)
C36 C 0.3510(5) 0.6199(6) 0.1899(5)
C37 C 0.2633(6) 0.6191(6) 0.1942(5)
C38 C 0.2445(6) 0.6758(6) 0.2419(5)
C39 C 0.3128(8) 0.7410(7) 0.2951(5)
C40 C 0.3994(7) 0.7444(6) 0.2971(5)
C41 C 0.4191(6) 0.6887(6) 0.2478(4)
C42 C 0.5864(5) 0.6748(5) 0.1089(5)
C43 C 0.5964(6) 0.6775(8) -0.0379(5)
C44 C 0.6374(6) 0.7622(8) -0.0952(5)
C45 C 0.6241(6) 0.8432(7) -0.0563(6)
C46 C 0.6212(5) 0.8190(6) 0.0309(5)
C47 C 0.5722(5) 0.8609(6) 0.0829(6)
C48 C 0.4230(6) 0.8533(6) 0.0995(5)
H53 H 0.5319 0.5695 0.2734
H54 H 0.5675 0.5082 0.2243
H55 H 0.4593 0.4591 0.2548
H56 H 0.4521 0.4029 0.0843
H57 H 0.5158 0.4871 0.0231
H58 H 0.4026 0.4444 0.0266
H59 H 0.3110(40) 0.5110(40) 0.1020(30)
H60 H 0.2129 0.5750 0.1609
H61 H 0.1835 0.6710 0.2390
H62 H 0.2998 0.7809 0.3282
H63 H 0.4469 0.7865 0.3335
H64 H 0.4807 0.6948 0.2513
H65 H 0.6009 0.7204 0.1534
H66 H 0.6427 0.6667 0.1011
H67 H 0.5395 0.6215 -0.0610
H68 H 0.6447 0.6590 -0.0244
H69 H 0.6035 0.7427 -0.1469
H70 H 0.7062 0.7855 -0.1047
H71 H 0.6785 0.9075 -0.0685
H72 H 0.5637 0.8395 -0.0737
H73 H 0.6881 0.8438 0.0504
H74 H 0.5795 0.8510 0.1401
H75 H 0.6009 0.9303 0.0730
H76 H 0.4540 0.8808 0.1506
H77 H 0.3562 0.8043 0.1088
H78 H 0.4253 0.9038 0.0656
C38A C 0.3242(6) 0.5687(8) -0.0914(5)
C39A C 0.2590(7) 0.5718(11) -0.0382(5)
Li3B Li 0.2557(12) 0.5780(9) 0.3704(7)
H61A H 0.3290 0.5125 -0.0943
H62A H 0.2191 0.5189 -0.0051
loop_
_geom_bond_atom_site_label_1
_geom_bond_atom_site_label_2
_geom_bond_site_symmetry_1
_geom_bond_site_symmetry_2
Si1 C1 1_555 1_555
O1 Li1 1_555 1_555
N1 Li1 1_555 1_555
Li1 C3 1_555 1_555
C1 H1 1_555 1_555
C2 Si1 1_555 1_555
C3 Si1 1_555 1_555
C4 C3 1_555 1_555
C5 C4 1_555 1_555
C6 C5 1_555 1_555
C7 C6 1_555 1_555
C8 C7 1_555 1_555
C9 C4 1_555 1_555
C10 Si1 1_555 1_555
C11 N1 1_555 1_555
C12 C11 1_555 1_555
C13 C12 1_555 1_555
C14 N1 1_555 1_555
C15 O1 1_555 1_555
C16 O1 1_555 1_555
Si2 C17 1_555 1_555
O2 Li2 1_555 1_555
N2 Li2 1_555 1_555
Li2 C19 1_555 1_555
C17 H27 1_555 1_555
C18 Si2 1_555 1_555
C19 Si2 1_555 1_555
C20 C19 1_555 1_555
C21 C20 1_555 1_555
C22 C21 1_555 1_555
C23 C22 1_555 1_555
C24 C23 1_555 1_555
C25 C20 1_555 1_555
C26 Si2 1_555 1_555
C27 N2 1_555 1_555
C28 C27 1_555 1_555
C29 C28 1_555 1_555
C30 N2 1_555 1_555
C31 O2 1_555 1_555
C32 O2 1_555 1_555
Si3 C33 1_555 1_555
O3 Li3 1_555 1_555
N3 Li3 1_555 1_555
Li3 C35 1_555 1_555
C33 H53 1_555 1_555
C34 Si3 1_555 1_555
C35 Si3 1_555 1_555
C36 C35 1_555 1_555
C37 C36 1_555 1_555
C38 C37 1_555 1_555
C39 C38 1_555 1_555
C40 C39 1_555 1_555
C41 C36 1_555 1_555
C42 Si3 1_555 1_555
C43 N3 1_555 1_555
C44 C43 1_555 1_555
C45 C44 1_555 1_555
C46 N3 1_555 1_555
C47 O3 1_555 1_555
C48 O3 1_555 1_555
H2 C1 1_555 1_555
H3 C1 1_555 1_555
H4 C2 1_555 1_555
H5 C2 1_555 1_555
H6 C2 1_555 1_555
H7 C3 1_555 1_555
H8 C5 1_555 1_555
H9 C6 1_555 1_555
H10 C7 1_555 1_555
H11 C8 1_555 1_555
H12 C9 1_555 1_555
H13 C10 1_555 1_555
H14 C10 1_555 1_555
H15 C11 1_555 1_555
H16 C11 1_555 1_555
H17 C12 1_555 1_555
H18 C12 1_555 1_555
H19 C13 1_555 1_555
H20 C13 1_555 1_555
H21 C14 1_555 1_555
H22 C15 1_555 1_555
H23 C15 1_555 1_555
H24 C16 1_555 1_555
H25 C16 1_555 1_555
H26 C16 1_555 1_555
H28 C17 1_555 1_555
H29 C17 1_555 1_555
H30 C18 1_555 1_555
H31 C18 1_555 1_555
H32 C18 1_555 1_555
H33 C19 1_555 1_555
H34 C21 1_555 1_555
H35 C22 1_555 1_555
H36 C23 1_555 1_555
H37 C24 1_555 1_555
H38 C25 1_555 1_555
H39 C26 1_555 1_555
H40 C26 1_555 1_555
H41 C27 1_555 1_555
H42 C27 1_555 1_555
H43 C28 1_555 1_555
H44 C28 1_555 1_555
H45 C29 1_555 1_555
H46 C29 1_555 1_555
H47 C30 1_555 1_555
H48 C31 1_555 1_555
H49 C31 1_555 1_555
H50 C32 1_555 1_555
H51 C32 1_555 1_555
H52 C32 1_555 1_555
H54 C33 1_555 1_555
H55 C33 1_555 1_555
H56 C34 1_555 1_555
H57 C34 1_555 1_555
H58 C34 1_555 1_555
H59 C35 1_555 1_555
H60 C37 1_555 1_555
H61 C38 1_555 1_555
H62 C39 1_555 1_555
H63 C40 1_555 1_555
H64 C41 1_555 1_555
H65 C42 1_555 1_555
H66 C42 1_555 1_555
H67 C43 1_555 1_555
H68 C43 1_555 1_555
H69 C44 1_555 1_555
H70 C44 1_555 1_555
H71 C45 1_555 1_555
H72 C45 1_555 1_555
H73 C46 1_555 1_555
H74 C47 1_555 1_555
H75 C47 1_555 1_555
H76 C48 1_555 1_555
H77 C48 1_555 1_555
H78 C48 1_555 1_555
C6A Li1 1_555 1_555
C7A Li1 1_555 1_555
Li1B C6 1_555 1_555
C23B Li2 1_555 1_555
C24B Li2 1_555 1_555
Li2A C23 1_555 1_555
C38A Li3 1_555 1_555
C39A Li3 1_555 1_555
Li3B C38 1_555 1_555
H9A C6A 1_555 1_555
H10A C7A 1_555 1_555
H36B C23B 1_555 1_555
H37B C24B 1_555 1_555
H61A C38A 1_555 1_555
H62A C39A 1_555 1_555
N1 C10 1_555 1_555
C7 Li1B 1_555 1_555
C8 C9 1_555 1_555
C13 C14 1_555 1_555
C14 C15 1_555 1_555
N2 C26 1_555 1_555
C24 C25 1_555 1_555
C24 Li2A 1_555 1_555
C29 C30 1_555 1_555
C30 C31 1_555 1_555
N3 C42 1_555 1_555
C39 Li3B 1_555 1_555
C40 C41 1_555 1_555
C45 C46 1_555 1_555
C46 C47 1_555 1_555
C6A C7A 1_555 1_555
C23B C24B 1_555 1_555
C38A C39A 1_555 1_555

#END
