
#######################################################################
#
#                 Cambridge Crystallographic Data Centre
#                                CCDC 
#
#######################################################################
#
# If this CIF has been generated from an entry in the Cambridge 
# Structural Database, then it will include bibliographic, chemical, 
# crystal, experimental, refinement or atomic coordinate data resulting 
# from the CCDC's data processing and validation procedures.
#
#######################################################################

data_AGIMIO
_symmetry_cell_setting           orthorhombic
_symmetry_space_group_name_H-M   'P b c a'
_symmetry_Int_Tables_number      61
_space_group_name_Hall           '-P 2ac 2ab'
loop_
_symmetry_equiv_pos_site_id
_symmetry_equiv_pos_as_xyz
1 x,y,z
2 1/2-x,-y,1/2+z
3 1/2+x,1/2-y,-z
4 -x,1/2+y,1/2-z
5 -x,-y,-z
6 1/2+x,y,1/2-z
7 1/2-x,1/2+y,z
8 x,1/2-y,1/2+z
_cell_length_a                   17.707(3)
_cell_length_b                   9.3322(15)
_cell_length_c                   22.694(4)
_cell_angle_alpha                90
_cell_angle_beta                 90
_cell_angle_gamma                90
_cell_volume                     3750.08
loop_
_atom_site_label
_atom_site_type_symbol
_atom_site_fract_x
_atom_site_fract_y
_atom_site_fract_z
Mn1 Mn 0.45750(3) 0.59938(6) 0.34579(2)
Mn2 Mn 0.37565(3) 0.25705(5) 0.25750(2)
O1 O 0.37006(15) 0.2584(3) 0.35154(10)
O2 O 0.44094(15) 0.4164(3) 0.40063(11)
O3 O 0.43008(15) 0.3955(3) 0.62179(11)
O4 O 0.35340(16) 0.2374(3) 0.66409(10)
O5 O 0.41638(18) 0.7212(3) 0.42088(11)
H1 H 0.4072 0.8089 0.4166
H2 H 0.4223 0.7070 0.4571
N1 N 0.32259(18) 0.4725(3) 0.26114(12)
N2 N 0.34184(18) 0.5759(3) 0.30096(12)
N3 N 0.29079(18) 0.6759(3) 0.30182(12)
N4 N 0.23569(18) 0.6430(3) 0.26237(12)
N5 N 0.21720(19) 0.4449(3) 0.19718(13)
H3 H 0.2342 0.3626 0.1837
H4 H 0.1744 0.4800 0.1838
N6 N 0.46259(17) 0.8218(3) 0.29999(12)
N7 N 0.50961(18) 0.8598(3) 0.25566(12)
N8 N 0.49386(17) 0.9888(3) 0.23758(12)
N9 N 0.43410(18) 1.0404(3) 0.26887(12)
N10 N 0.36068(18) 0.9416(3) 0.34932(12)
H5 H 0.3416 1.0305 0.3530
H6 H 0.3255 0.8762 0.3395
C1 C 0.2572(2) 0.5180(4) 0.23857(14)
C2 C 0.4171(2) 0.9349(4) 0.30654(15)
C3 C 0.3532(2) 0.2720(4) 0.45419(15)
C4 C 0.3823(2) 0.3116(4) 0.50901(15)
H7 H 0.4246 0.3738 0.5113
C5 C 0.3488(2) 0.2594(4) 0.56038(15)
C6 C 0.2863(2) 0.1699(5) 0.55613(16)
H8 H 0.2642 0.1323 0.5910
C7 C 0.2559(3) 0.1350(5) 0.50216(17)
H9 H 0.2127 0.0750 0.5000
C8 C 0.2885(2) 0.1873(4) 0.45116(16)
H10 H 0.2667 0.1656 0.4140
C9 C 0.3909(2) 0.3200(4) 0.39782(15)
C10 C 0.3801(2) 0.3000(4) 0.61943(15)
Mn1C Mn 0.54250(3) 1.09938(6) 0.15421(2)
Mn1D Mn 0.54250(3) 0.40062(6) 0.65421(2)
Mn2_2 Mn 0.37565(3) 1.25705(5) 0.25750(2)
Mn2C Mn 0.62435(3) 0.75705(5) 0.24250(2)
Mn2F Mn 0.12435(3) 0.75705(5) 0.25750(2)
Mn2G Mn 0.37565(3) 0.24295(5) 0.75750(2)
O3D O 0.56992(15) 0.6045(3) 0.37821(11)
O4G O 0.35340(16) 0.2626(3) 0.16409(10)
N4F N 0.26431(18) 0.1430(3) 0.26237(12)
N7C N 0.49039(18) 0.3598(3) 0.24434(12)
N8C N 0.50614(17) 0.4888(3) 0.26242(12)
N9_2 N 0.43410(18) 0.0404(3) 0.26887(12)
O6 O 0.07357(19) 0.2990(3) 0.04057(12)
H11 H 0.0408 0.3510 0.0566
C11 C 0.0698(3) 0.1568(5) 0.0651(2)
H12 H 0.1021 0.0925 0.0412
H13 H 0.0172 0.1216 0.0620
C12 C 0.0940(4) 0.1477(6) 0.1274(2)
H14 H 0.1461 0.1819 0.1310
H15 H 0.0911 0.0479 0.1407
H16 H 0.0608 0.2071 0.1518
loop_
_geom_bond_atom_site_label_1
_geom_bond_atom_site_label_2
_geom_bond_site_symmetry_1
_geom_bond_site_symmetry_2
Mn1 O2 1_555 1_555
Mn2 O1 1_555 1_555
O1 C9 1_555 1_555
O2 C9 1_555 1_555
O3 C10 1_555 1_555
O4 C10 1_555 1_555
O5 Mn1 1_555 1_555
H1 O5 1_555 1_555
H2 O5 1_555 1_555
N1 Mn2 1_555 1_555
N2 Mn1 1_555 1_555
N3 N2 1_555 1_555
N4 N3 1_555 1_555
N5 H3 1_555 1_555
H4 N5 1_555 1_555
N6 Mn1 1_555 1_555
N7 N6 1_555 1_555
N8 N7 1_555 1_555
N9 N8 1_555 1_555
N10 H5 1_555 1_555
H6 N10 1_555 1_555
C1 N1 1_555 1_555
C2 N6 1_555 1_555
C3 C4 1_555 1_555
C4 H7 1_555 1_555
C5 C4 1_555 1_555
C6 C5 1_555 1_555
H8 C6 1_555 1_555
C7 C6 1_555 1_555
H9 C7 1_555 1_555
C8 C3 1_555 1_555
H10 C8 1_555 1_555
C9 C3 1_555 1_555
C10 C5 1_555 1_555
O6 H11 1_555 1_555
C11 O6 1_555 1_555
H12 C11 1_555 1_555
H13 C11 1_555 1_555
C12 C11 1_555 1_555
H14 C12 1_555 1_555
H15 C12 1_555 1_555
H16 C12 1_555 1_555
Mn1C N8 1_555 1_555
Mn1D O3 1_555 1_555
Mn2_2 N9 1_555 1_555
Mn2C N7 1_555 1_555
Mn2F N4 1_555 1_555
Mn2G O4 1_555 1_555
O3D Mn1 1_555 1_555
O4G Mn2 1_555 1_555
N4F Mn2 1_555 1_555
N7C Mn2 1_555 1_555
N8C Mn1 1_555 1_555
N9_2 Mn2 1_555 1_555
N1 N2 1_555 1_555
N4 C1 1_555 1_555
N5 C1 1_555 1_555
N9 C2 1_555 1_555
N10 C2 1_555 1_555
C7 C8 1_555 1_555
N7C N8C 1_555 1_555

#END
