
#######################################################################
#
#                 Cambridge Crystallographic Data Centre
#                                CCDC 
#
#######################################################################
#
# If this CIF has been generated from an entry in the Cambridge 
# Structural Database, then it will include bibliographic, chemical, 
# crystal, experimental, refinement or atomic coordinate data resulting 
# from the CCDC's data processing and validation procedures.
#
#######################################################################

data_AGIMOU
_symmetry_cell_setting           monoclinic
_symmetry_space_group_name_H-M   'P 21/n'
_symmetry_Int_Tables_number      14
_space_group_name_Hall           '-P 2yn'
loop_
_symmetry_equiv_pos_site_id
_symmetry_equiv_pos_as_xyz
1 x,y,z
2 1/2-x,1/2+y,1/2-z
3 -x,-y,-z
4 1/2+x,1/2-y,1/2+z
_cell_length_a                   9.3348(10)
_cell_length_b                   13.0009(15)
_cell_length_c                   9.3606(10)
_cell_angle_alpha                90
_cell_angle_beta                 91.282(2)
_cell_angle_gamma                90
_cell_volume                     1135.73
loop_
_atom_site_label
_atom_site_type_symbol
_atom_site_fract_x
_atom_site_fract_y
_atom_site_fract_z
Mn1 Mn 0.0000 0.0000 0.5000
Mn2 Mn 0.21639(4) 0.24270(3) 0.48562(4)
Cl1 Cl 0.26598(6) 0.04837(5) 0.50736(7)
O1 O 0.1258(2) 0.39695(16) 0.4653(2)
H1 H 0.1651 0.4489 0.5023
H2 H 0.0402 0.4128 0.4467
N1 N 0.0513(2) 0.20207(17) 0.3155(2)
N2 N -0.0385(2) 0.12065(17) 0.3291(2)
N3 N -0.1413(2) 0.12564(17) 0.2339(2)
N4 N -0.1222(2) 0.21082(17) 0.1529(2)
N5 N 0.0550(3) 0.3423(2) 0.1521(3)
H3 H 0.1328 0.3666 0.1895
H4 H 0.0142 0.3730 0.0808
N6 N 0.3757(2) 0.27248(17) 0.3128(2)
N7 N 0.3703(2) 0.36567(17) 0.2490(2)
N8 N 0.4717(2) 0.37169(16) 0.1569(2)
N9 N 0.5477(2) 0.28280(17) 0.1549(2)
N10 N 0.5257(3) 0.1256(2) 0.2843(3)
H5 H 0.5964 0.0978 0.2413
H6 H 0.4806 0.0915 0.3479
C1 C -0.0030(3) 0.2558(2) 0.2053(3)
C2 C 0.4853(3) 0.2232(2) 0.2517(3)
Mn2B Mn -0.21639(4) -0.24270(3) 0.51438(4)
Cl1B Cl -0.26598(6) -0.04837(5) 0.49264(7)
O1B O -0.1258(2) -0.39695(16) 0.5347(2)
H1B H -0.1651 -0.4489 0.4977
H2B H -0.0402 -0.4128 0.5533
N1B N -0.0513(2) -0.20207(17) 0.6845(2)
N2B N 0.0385(2) -0.12065(17) 0.6709(2)
N3B N 0.1413(2) -0.12564(17) 0.7661(2)
N4B N 0.1222(2) -0.21082(17) 0.8471(2)
N5B N -0.0550(3) -0.3423(2) 0.8479(3)
H3B H -0.1328 -0.3666 0.8105
H4B H -0.0142 -0.3730 0.9192
N6B N -0.3757(2) -0.27248(17) 0.6872(2)
N7B N -0.3703(2) -0.36567(17) 0.7510(2)
N8B N -0.4717(2) -0.37169(16) 0.8431(2)
N9B N -0.5477(2) -0.28280(17) 0.8451(2)
N10B N -0.5257(3) -0.1256(2) 0.7157(3)
H5B H -0.5964 -0.0978 0.7587
H6B H -0.4806 -0.0915 0.6521
C1B C 0.0030(3) -0.2558(2) 0.7947(3)
C2B C -0.4853(3) -0.2232(2) 0.7483(3)
Mn1A Mn -0.5000 -0.5000 1.0000
Mn1A_2 Mn 0.5000 0.5000 0.0000
Mn2A Mn -0.71639(4) -0.25730(3) 1.01438(4)
Mn2A_2 Mn 0.28361(4) -0.25730(3) 1.01438(4)
Mn2C Mn -0.28361(4) 0.25730(3) -0.01438(4)
Mn2C_2 Mn 0.71639(4) 0.25730(3) -0.01438(4)
N4A N -0.3778(2) -0.28918(17) 0.3471(2)
N4C N 0.3778(2) 0.28918(17) 0.6529(2)
N8A N 0.0283(2) -0.12831(16) 0.3431(2)
N8C N -0.0283(2) 0.12831(16) 0.6569(2)
N9A N -0.0477(2) -0.21720(17) 0.3451(2)
N9C N 0.0477(2) 0.21720(17) 0.6549(2)
O2 O 0.1819(3) 0.5783(2) 0.6052(3)
H7 H 0.2165 0.5652 0.6844
C3 C 0.2819(5) 0.6326(5) 0.5256(6)
H8 H 0.2713 0.7050 0.5427
H9 H 0.2660 0.6187 0.4257
H10 H 0.3770 0.6115 0.5536
loop_
_geom_bond_atom_site_label_1
_geom_bond_atom_site_label_2
_geom_bond_site_symmetry_1
_geom_bond_site_symmetry_2
Mn1 Cl1 1_555 1_555
Mn2 Cl1 1_555 1_555
O1 Mn2 1_555 1_555
H1 O1 1_555 1_555
H2 O1 1_555 1_555
N1 Mn2 1_555 1_555
N2 Mn1 1_555 1_555
N3 N2 1_555 1_555
N4 N3 1_555 1_555
N5 H3 1_555 1_555
H4 N5 1_555 1_555
N6 Mn2 1_555 1_555
N7 N6 1_555 1_555
N8 N7 1_555 1_555
N9 N8 1_555 1_555
N10 H5 1_555 1_555
H6 N10 1_555 1_555
C1 N1 1_555 1_555
C2 N6 1_555 1_555
O2 H7 1_555 1_555
C3 O2 1_555 1_555
H8 C3 1_555 1_555
H9 C3 1_555 1_555
H10 C3 1_555 1_555
Mn2B Cl1B 1_555 1_555
Cl1B Mn1 1_555 1_555
O1B Mn2B 1_555 1_555
H1B O1B 1_555 1_555
H2B O1B 1_555 1_555
N1B Mn2B 1_555 1_555
N2B Mn1 1_555 1_555
N3B N2B 1_555 1_555
N4B N3B 1_555 1_555
N5B H3B 1_555 1_555
H4B N5B 1_555 1_555
N6B Mn2B 1_555 1_555
N7B N6B 1_555 1_555
N8B N7B 1_555 1_555
N9B N8B 1_555 1_555
N10B H5B 1_555 1_555
H6B N10B 1_555 1_555
C1B N1B 1_555 1_555
C2B N6B 1_555 1_555
Mn1A N8B 1_555 1_555
Mn1A_2 N8 1_555 1_555
Mn2A N9B 1_555 1_555
Mn2A_2 N4B 1_555 1_555
Mn2C N4 1_555 1_555
Mn2C_2 N9 1_555 1_555
N4A Mn2B 1_555 1_555
N4C Mn2 1_555 1_555
N8A Mn1 1_555 1_555
N8C Mn1 1_555 1_555
N9A Mn2B 1_555 1_555
N9C Mn2 1_555 1_555
N1 N2 1_555 1_555
N4 C1 1_555 1_555
N5 C1 1_555 1_555
N9 C2 1_555 1_555
N10 C2 1_555 1_555
N1B N2B 1_555 1_555
N4B C1B 1_555 1_555
N5B C1B 1_555 1_555
N9B C2B 1_555 1_555
N10B C2B 1_555 1_555
N8A N9A 1_555 1_555
N8C N9C 1_555 1_555

#END
