
#######################################################################
#
#                 Cambridge Crystallographic Data Centre
#                                CCDC 
#
#######################################################################
#
# If this CIF has been generated from an entry in the Cambridge 
# Structural Database, then it will include bibliographic, chemical, 
# crystal, experimental, refinement or atomic coordinate data resulting 
# from the CCDC's data processing and validation procedures.
#
#######################################################################

data_AGIMIN
_symmetry_cell_setting           triclinic
_symmetry_space_group_name_H-M   'P -1'
_symmetry_Int_Tables_number      2
_space_group_name_Hall           '-P 1'
loop_
_symmetry_equiv_pos_site_id
_symmetry_equiv_pos_as_xyz
1 x,y,z
2 -x,-y,-z
_cell_length_a                   10.1795(3)
_cell_length_b                   10.4390(3)
_cell_length_c                   12.4108(4)
_cell_angle_alpha                78.589(2)
_cell_angle_beta                 67.596(2)
_cell_angle_gamma                83.120(2)
_cell_volume                     1193.74
loop_
_atom_site_label
_atom_site_type_symbol
_atom_site_fract_x
_atom_site_fract_y
_atom_site_fract_z
Li1 Li 0.3043(3) 0.4782(3) -0.3811(3)
Li2 Li 0.4637(3) 0.6792(3) -0.4862(3)
S1 S 0.42946(5) 0.11913(5) -0.27425(5)
N1 N 0.46777(15) 0.53266(15) -0.34460(13)
N2 N 0.67032(15) 0.40735(15) -0.45793(13)
N3 N 0.63760(16) 0.43674(16) -0.27014(13)
N4 N 0.11134(16) 0.48871(16) -0.24730(14)
N5 N 0.1417(2) 0.29530(19) -0.11504(16)
H1 H 0.233(3) 0.267(2) -0.161(2)
N6 N -0.07456(17) 0.37796(17) -0.10563(15)
N7 N 0.31817(16) 0.28688(15) -0.41545(14)
N8 N 0.21588(18) 0.09295(15) -0.34709(16)
N9 N 0.37634(19) -0.15299(18) -0.41529(19)
H2 H 0.426(3) -0.134(3) -0.376(2)
H3 H 0.398(3) -0.093(3) -0.481(3)
C1 C 0.58899(18) 0.46199(17) -0.36463(15)
C2 C 0.4247(2) 0.5552(2) -0.22122(17)
H4 H 0.3212 0.5459 -0.1783
H5 H 0.4487 0.6437 -0.2195
C3 C 0.5094(2) 0.4497(2) -0.16648(17)
H6 H 0.5304 0.4791 -0.1039
H7 H 0.4593 0.3669 -0.1339
C4 C 0.7290(2) 0.3181(2) -0.28724(18)
H8 H 0.6744 0.2384 -0.2488
H9 H 0.8068 0.3167 -0.2576
C5 C 0.7851(2) 0.3328(2) -0.42232(18)
H10 H 0.8738 0.381 -0.4582
H11 H 0.8047 0.246 -0.4475
C6 C 0.0702(2) 0.3899(2) -0.16436(17)
C7 C -0.0240(2) 0.5611(2) -0.2468(2)
H12 H -0.0485 0.5447 -0.3126
H13 H -0.016 0.6564 -0.2547
C8 C -0.1369(2) 0.5085(2) -0.1272(2)
H14 H -0.1461 0.5602 -0.0657
H15 H -0.2309 0.5061 -0.133
C9 C -0.0972(2) 0.2920(3) 0.0060(2)
H16 H -0.1835 0.2418 0.0314
H17 H -0.1042 0.3408 0.0688
C10 C 0.0383(3) 0.2036(3) -0.0270(2)
H18 H 0.0657 0.1691 0.0422
H19 H 0.0277 0.1296 -0.0617
C11 C 0.2065(2) 0.2911(2) -0.46548(19)
H20 H 0.2496 0.297 -0.5524
H21 H 0.1396 0.3677 -0.4466
C12 C 0.1297(2) 0.1651(2) -0.4093(2)
H22 H 0.0316 0.182 -0.3544
H23 H 0.1263 0.118 -0.4699
C13 C 0.31663(18) 0.17100(17) -0.34986(15)
C14 C 0.1790(2) -0.03292(18) -0.27330(18)
H24 H 0.0748 -0.0325 -0.2298
H25 H 0.2252 -0.0475 -0.2144
C15 C 0.2240(2) -0.14490(19) -0.34368(18)
H26 H 0.1984 -0.2283 -0.2882
H27 H 0.1698 -0.1349 -0.3965
Li1A Li 0.6957(3) 0.5218(3) -0.6189(3)
Li2A Li 0.5363(3) 0.3208(3) -0.5138(3)
Li2_2 Li 0.4637(3) -0.3208(3) -0.4862(3)
N2A N 0.32968(15) 0.59265(15) -0.54207(13)
N7A N 0.68183(16) 0.71312(15) -0.58455(14)
N9_2 N 0.37634(19) 0.84701(18) -0.41529(19)
H2_2 H 0.426(3) 0.866(3) -0.376(2)
H3_2 H 0.398(3) 0.907(3) -0.481(3)
O1 O 0.8116(2) 0.9561(3) -0.18104(19)
C16 C 0.6729(3) 0.9489(4) -0.0926(2)
H28 H 0.6152 1.0306 -0.1024
H29 H 0.6773 0.9341 -0.0127
C17 C 0.6113(4) 0.8353(3) -0.1106(3)
H30 H 0.5069 0.8488 -0.0877
H31 H 0.6325 0.7532 -0.0632
C18 C 0.6820(3) 0.8305(3) -0.2402(3)
H32 H 0.7221 0.7414 -0.254
H33 H 0.6141 0.8578 -0.2811
C19 C 0.7973(3) 0.9254(3) -0.2811(2)
H34 H 0.888 0.886 -0.3311
H35 H 0.7725 1.0057 -0.3285
loop_
_geom_bond_atom_site_label_1
_geom_bond_atom_site_label_2
_geom_bond_site_symmetry_1
_geom_bond_site_symmetry_2
Li1 N1 1_555 1_555
Li2 N1 1_555 1_555
S1 C13 1_555 1_555
N1 C1 1_555 1_555
N2 C1 1_555 1_555
N3 C1 1_555 1_555
N4 Li1 1_555 1_555
N5 H1 1_555 1_555
N6 C6 1_555 1_555
N7 Li1 1_555 1_555
N8 C12 1_555 1_555
N9 H2 1_555 1_555
H3 N9 1_555 1_555
C2 N1 1_555 1_555
H4 C2 1_555 1_555
H5 C2 1_555 1_555
C3 N3 1_555 1_555
H6 C3 1_555 1_555
H7 C3 1_555 1_555
C4 N3 1_555 1_555
H8 C4 1_555 1_555
H9 C4 1_555 1_555
C5 N2 1_555 1_555
H10 C5 1_555 1_555
H11 C5 1_555 1_555
C6 N4 1_555 1_555
C7 N4 1_555 1_555
H12 C7 1_555 1_555
H13 C7 1_555 1_555
C8 N6 1_555 1_555
H14 C8 1_555 1_555
H15 C8 1_555 1_555
C9 N6 1_555 1_555
H16 C9 1_555 1_555
H17 C9 1_555 1_555
C10 N5 1_555 1_555
H18 C10 1_555 1_555
H19 C10 1_555 1_555
C11 N7 1_555 1_555
H20 C11 1_555 1_555
H21 C11 1_555 1_555
C12 C11 1_555 1_555
H22 C12 1_555 1_555
H23 C12 1_555 1_555
C13 N7 1_555 1_555
C14 N8 1_555 1_555
H24 C14 1_555 1_555
H25 C14 1_555 1_555
C15 N9 1_555 1_555
H26 C15 1_555 1_555
H27 C15 1_555 1_555
O1 C16 1_555 1_555
C16 H28 1_555 1_555
H29 C16 1_555 1_555
C17 C16 1_555 1_555
H30 C17 1_555 1_555
H31 C17 1_555 1_555
C18 C17 1_555 1_555
H32 C18 1_555 1_555
H33 C18 1_555 1_555
C19 O1 1_555 1_555
H34 C19 1_555 1_555
H35 C19 1_555 1_555
Li1A N2 1_555 1_555
Li2A N2 1_555 1_555
Li2_2 N9 1_555 1_555
N2A Li1 1_555 1_555
N7A Li2 1_555 1_555
N9_2 Li2 1_555 1_555
H2_2 N9_2 1_555 1_555
H3_2 N9_2 1_555 1_555
Li2 N2A 1_555 1_555
N5 C6 1_555 1_555
N7 Li2A 1_555 1_555
N8 C13 1_555 1_555
C2 C3 1_555 1_555
C4 C5 1_555 1_555
C7 C8 1_555 1_555
C9 C10 1_555 1_555
C14 C15 1_555 1_555
C18 C19 1_555 1_555
Li1A N7A 1_555 1_555

#END
