
#######################################################################
#
#                 Cambridge Crystallographic Data Centre
#                                CCDC 
#
#######################################################################
#
# If this CIF has been generated from an entry in the Cambridge 
# Structural Database, then it will include bibliographic, chemical, 
# crystal, experimental, refinement or atomic coordinate data resulting 
# from the CCDC's data processing and validation procedures.
#
#######################################################################

data_AGITOB
_symmetry_cell_setting           monoclinic
_symmetry_space_group_name_H-M   'P 21/c'
_symmetry_Int_Tables_number      14
_space_group_name_Hall           '-P 2ybc'
loop_
_symmetry_equiv_pos_site_id
_symmetry_equiv_pos_as_xyz
1 x,y,z
2 -x,1/2+y,1/2-z
3 -x,-y,-z
4 x,1/2-y,1/2+z
_cell_length_a                   13.732(3)
_cell_length_b                   9.2637(19)
_cell_length_c                   12.641(3)
_cell_angle_alpha                90
_cell_angle_beta                 114.61(3)
_cell_angle_gamma                90
_cell_volume                     1461.98
loop_
_atom_site_label
_atom_site_type_symbol
_atom_site_fract_x
_atom_site_fract_y
_atom_site_fract_z
O1 O 0.32600(9) 1.44426(14) 0.49369(9)
N1 N 0.24199(10) 1.44276(14) 0.39543(11)
O2 O 0.44104(10) 0.72043(12) 0.45374(11)
O3 O 0.46093(12) 0.75337(14) 0.28869(12)
N2 N 0.12962(11) 1.38281(16) 0.21980(13)
O4 O 0.08055(10) 1.31177(16) 0.12623(11)
C1 C 0.21822(12) 1.34013(16) 0.31370(13)
C2 C 0.31223(14) 1.13091(17) 0.43325(14)
H1 H 0.3044 1.1724 0.4963
C3 C 0.27342(12) 1.20302(16) 0.32654(13)
C4 C 0.3622(2) 0.99824(13) 0.4459(2)
H2 H 0.3862 0.9496 0.5166
C5 C 0.28657(14) 1.14105(17) 0.23270(14)
H3 H 0.2606 1.1879 0.1612
C6 C 0.37650(12) 0.93776(16) 0.35257(13)
C7 C 0.19269(15) 1.69626(19) 0.41705(17)
H4 H 0.2231 1.6922 0.5005
H5 H 0.1346 1.7642 0.3900
H6 H 0.2466 1.7261 0.3919
C8 C 0.15141(13) 1.54868(19) 0.36793(14)
C9 C 0.43093(12) 0.79230(17) 0.36475(14)
C10 C -0.02055(15) 1.5550(3) 0.17663(19)
H7 H -0.0528 1.4942 0.2146
H8 H -0.0471 1.5289 0.0960
H9 H -0.0381 1.6540 0.1831
C11 C 0.3385(2) 1.00942(16) 0.2464(2)
H10 H 0.3480 0.9688 0.1841
C12 C 0.09980(14) 1.5361(2) 0.23368(17)
C13 C 0.0806(2) 1.4887(2) 0.4248(3)
H11 H 0.1168 1.4993 0.5077
H12 H 0.0665 1.3883 0.4056
H13 H 0.0142 1.5409 0.3966
C14 C 0.1537(2) 1.6319(2) 0.17450(19)
H14 H 0.1182 1.6196 0.0917
H15 H 0.2276 1.6049 0.2010
H16 H 0.1491 1.7312 0.1938
Cd1 Cd 0.5000 0.5000 0.5000
O5 O 0.44069(12) 0.45724(19) 0.30230(13)
H17 H 0.4487(19) 0.539(3) 0.280(2)
H18 H 0.464(2) 0.406(3) 0.278(2)
O1B O 0.67400(9) -0.44426(14) 0.50631(9)
N1B N 0.75801(10) -0.44276(14) 0.60457(11)
O2B O 0.55896(10) 0.27957(12) 0.54626(11)
O3B O 0.53907(12) 0.24663(14) 0.71131(12)
N2B N 0.87038(11) -0.38281(16) 0.78020(13)
O4B O 0.91945(10) -0.31177(16) 0.87377(11)
C1B C 0.78178(12) -0.34013(16) 0.68630(13)
C2B C 0.68777(14) -0.13091(17) 0.56675(14)
H1B H 0.6956 -0.1724 0.5037
C3B C 0.72658(12) -0.20302(16) 0.67346(13)
C4B C 0.6378(2) 0.00176(13) 0.5541(2)
H2B H 0.6138 0.0504 0.4834
C5B C 0.71343(14) -0.14105(17) 0.76730(14)
H3B H 0.7394 -0.1879 0.8388
C6B C 0.62350(12) 0.06224(16) 0.64743(13)
C7B C 0.80731(15) -0.69626(19) 0.58295(17)
H4B H 0.7769 -0.6922 0.4995
H5B H 0.8654 -0.7642 0.6100
H6B H 0.7534 -0.7261 0.6081
C8B C 0.84859(13) -0.54868(19) 0.63207(14)
C9B C 0.56907(12) 0.20770(17) 0.63525(14)
C10B C 1.02055(15) -0.5550(3) 0.82337(19)
H7B H 1.0528 -0.4942 0.7854
H8B H 1.0471 -0.5289 0.9040
H9B H 1.0381 -0.6540 0.8169
C11B C 0.6615(2) -0.00942(16) 0.7536(2)
H10B H 0.6520 0.0312 0.8159
C12B C 0.90020(14) -0.5361(2) 0.76632(17)
C13B C 0.9194(2) -0.4887(2) 0.5752(3)
H11B H 0.8832 -0.4993 0.4923
H12B H 0.9335 -0.3883 0.5944
H13B H 0.9858 -0.5409 0.6034
C14B C 0.8463(2) -0.6319(2) 0.82550(19)
H14B H 0.8818 -0.6196 0.9083
H15B H 0.7724 -0.6049 0.7990
H16B H 0.8509 -0.7312 0.8062
O5B O 0.55931(12) 0.54276(19) 0.69770(13)
H17B H 0.5513(19) 0.461(3) 0.720(2)
H18B H 0.536(2) 0.594(3) 0.722(2)
O1_2 O 0.32600(9) 0.44426(14) 0.49369(9)
O1B_2 O 0.67400(9) 0.55574(14) 0.50631(9)
Cd1_2 Cd 0.5000 -0.5000 0.5000
Cd1_3 Cd 0.5000 1.5000 0.5000
loop_
_geom_bond_atom_site_label_1
_geom_bond_atom_site_label_2
_geom_bond_site_symmetry_1
_geom_bond_site_symmetry_2
O1 N1 1_555 1_555
N1 C1 1_555 1_555
O2 C9 1_555 1_555
O3 C9 1_555 1_555
N2 O4 1_555 1_555
C1 N2 1_555 1_555
C2 H1 1_555 1_555
C3 C1 1_555 1_555
C4 C2 1_555 1_555
H2 C4 1_555 1_555
C5 C3 1_555 1_555
H3 C5 1_555 1_555
C6 C4 1_555 1_555
C7 H4 1_555 1_555
H5 C7 1_555 1_555
H6 C7 1_555 1_555
C8 N1 1_555 1_555
C9 C6 1_555 1_555
C10 H7 1_555 1_555
H8 C10 1_555 1_555
H9 C10 1_555 1_555
C11 C5 1_555 1_555
H10 C11 1_555 1_555
C12 N2 1_555 1_555
C13 C8 1_555 1_555
H11 C13 1_555 1_555
H12 C13 1_555 1_555
H13 C13 1_555 1_555
C14 C12 1_555 1_555
H14 C14 1_555 1_555
H15 C14 1_555 1_555
H16 C14 1_555 1_555
Cd1 O2 1_555 1_555
O5 Cd1 1_555 1_555
H17 O5 1_555 1_555
H18 O5 1_555 1_555
O1B N1B 1_555 1_555
N1B C1B 1_555 1_555
O2B Cd1 1_555 1_555
O3B C9B 1_555 1_555
N2B O4B 1_555 1_555
C1B N2B 1_555 1_555
C2B H1B 1_555 1_555
C3B C1B 1_555 1_555
C4B C2B 1_555 1_555
H2B C4B 1_555 1_555
C5B C3B 1_555 1_555
H3B C5B 1_555 1_555
C6B C4B 1_555 1_555
C7B H4B 1_555 1_555
H5B C7B 1_555 1_555
H6B C7B 1_555 1_555
C8B N1B 1_555 1_555
C9B O2B 1_555 1_555
C10B H7B 1_555 1_555
H8B C10B 1_555 1_555
H9B C10B 1_555 1_555
C11B C5B 1_555 1_555
H10B C11B 1_555 1_555
C12B N2B 1_555 1_555
C13B C8B 1_555 1_555
H11B C13B 1_555 1_555
H12B C13B 1_555 1_555
H13B C13B 1_555 1_555
C14B C12B 1_555 1_555
H14B C14B 1_555 1_555
H15B C14B 1_555 1_555
H16B C14B 1_555 1_555
O5B Cd1 1_555 1_555
H17B O5B 1_555 1_555
H18B O5B 1_555 1_555
O1_2 Cd1 1_555 1_555
O1B_2 Cd1 1_555 1_555
Cd1_2 O1B 1_555 1_555
Cd1_3 O1 1_555 1_555
C2 C3 1_555 1_555
C6 C11 1_555 1_555
C7 C8 1_555 1_555
C8 C12 1_555 1_555
C10 C12 1_555 1_555
C2B C3B 1_555 1_555
C6B C9B 1_555 1_555
C6B C11B 1_555 1_555
C7B C8B 1_555 1_555
C8B C12B 1_555 1_555
C10B C12B 1_555 1_555

#END
