
#######################################################################
#
#                 Cambridge Crystallographic Data Centre
#                                CCDC 
#
#######################################################################
#
# If this CIF has been generated from an entry in the Cambridge 
# Structural Database, then it will include bibliographic, chemical, 
# crystal, experimental, refinement or atomic coordinate data resulting 
# from the CCDC's data processing and validation procedures.
#
#######################################################################

data_AGIYEU01
_symmetry_cell_setting           triclinic
_symmetry_space_group_name_H-M   'P -1'
_symmetry_Int_Tables_number      2
_space_group_name_Hall           '-P 1'
loop_
_symmetry_equiv_pos_site_id
_symmetry_equiv_pos_as_xyz
1 x,y,z
2 -x,-y,-z
_cell_length_a                   4.1340(8)
_cell_length_b                   7.0584(14)
_cell_length_c                   8.0410(16)
_cell_angle_alpha                109.72(3)
_cell_angle_beta                 101.31(3)
_cell_angle_gamma                96.54(3)
_cell_volume                     212.421
loop_
_atom_site_label
_atom_site_type_symbol
_atom_site_fract_x
_atom_site_fract_y
_atom_site_fract_z
I1 I 0.22587(12) 0.16155(8) 0.34004(7)
Cu1 Cu 0.3077(3) 0.05277(17) 0.62442(18)
N1 N 0.4275(17) 0.3180(12) 0.8457(11)
C1 C 0.623(3) 0.3367(15) 1.0066(13)
H1 H 0.7183 0.2245 1.0148
C2 C 0.308(2) 0.4865(17) 0.8380(16)
H2 H 0.1786 0.4837 0.7270
C2A C 0.692(2) 0.5135(17) 1.1620(16)
N1A N 0.5725(17) 0.6820(12) 1.1543(11)
C1A C 0.377(3) 0.6633(15) 0.9934(13)
H1A H 0.2817 0.7755 0.9852
H2A H 0.8214 0.5163 1.2730
I1A I -0.22587(12) -0.16155(8) 0.65996(7)
Cu1A Cu -0.3077(3) -0.05277(17) 0.37558(18)
Cu1A_2 Cu 0.6923(3) -0.05277(17) 0.37558(18)
I1A_2 I 0.77413(12) -0.16155(8) 0.65996(7)
Cu1A_3 Cu 0.6923(3) 0.94723(17) 1.37558(18)
Cu1_2 Cu -0.6923(3) 0.05277(17) 0.62442(18)
I1_2 I -0.77413(12) 0.16155(8) 0.34004(7)
N1A_2 N -0.4275(17) -0.3180(12) 0.1543(11)
loop_
_geom_bond_atom_site_label_1
_geom_bond_atom_site_label_2
_geom_bond_site_symmetry_1
_geom_bond_site_symmetry_2
I1 Cu1 1_555 1_555
Cu1 N1 1_555 1_555
N1 C1 1_555 1_555
C1 H1 1_555 1_555
C2 N1 1_555 1_555
H2 C2 1_555 1_555
C2A C1 1_555 1_555
N1A C2A 1_555 1_555
C1A C2 1_555 1_555
H1A C1A 1_555 1_555
H2A C2A 1_555 1_555
I1A Cu1 1_555 1_555
Cu1A I1 1_555 1_555
Cu1A_2 I1 1_555 1_555
I1A_2 Cu1 1_555 1_555
Cu1A_3 N1A 1_555 1_555
Cu1_2 I1A 1_555 1_555
I1_2 Cu1A 1_555 1_555
N1A_2 Cu1A 1_555 1_555
N1A C1A 1_555 1_555
I1A Cu1A 1_555 1_555
Cu1A_2 I1A_2 1_555 1_555
Cu1_2 I1_2 1_555 1_555

#END
