
#######################################################################
#
#                 Cambridge Crystallographic Data Centre
#                                CCDC 
#
#######################################################################
#
# If this CIF has been generated from an entry in the Cambridge 
# Structural Database, then it will include bibliographic, chemical, 
# crystal, experimental, refinement or atomic coordinate data resulting 
# from the CCDC's data processing and validation procedures.
#
#######################################################################

data_AGIZEW
_symmetry_cell_setting           monoclinic
_symmetry_space_group_name_H-M   'P 21/n'
_symmetry_Int_Tables_number      14
_space_group_name_Hall           '-P 2yn'
loop_
_symmetry_equiv_pos_site_id
_symmetry_equiv_pos_as_xyz
1 x,y,z
2 1/2-x,1/2+y,1/2-z
3 -x,-y,-z
4 1/2+x,1/2-y,1/2+z
_cell_length_a                   5.68200(10)
_cell_length_b                   27.2143(6)
_cell_length_c                   6.7260(2)
_cell_angle_alpha                90
_cell_angle_beta                 107.6180(10)
_cell_angle_gamma                90
_cell_volume                     991.269
loop_
_atom_site_label
_atom_site_type_symbol
_atom_site_fract_x
_atom_site_fract_y
_atom_site_fract_z
Cu1 Cu 0.22501(7) 0.231094(15) 0.46642(6)
Cu2 Cu 0.45234(7) 0.138290(15) 0.33569(6)
O1 O 0.5295(4) 0.20047(9) 0.4750(4)
H1 H 0.601(7) 0.1981(16) 0.589(5)
O2 O -0.1237(4) 0.24983(10) 0.3719(4)
H2 H -0.152(8) 0.2768(14) 0.405(7)
H3 H -0.201(8) 0.2307(17) 0.406(7)
C1 C -0.0067(6) 0.10062(13) 0.7053(5)
C2 C -0.0967(6) 0.11943(12) 0.8635(5)
C3 C -0.2413(6) 0.08806(13) 0.9441(5)
C4 C -0.2923(7) 0.04012(14) 0.8724(7)
H4 H -0.3902 0.0200 0.9289
C5 C -0.2006(8) 0.02179(15) 0.7188(7)
H5 H -0.2331 -0.0108 0.6716
C6 C -0.0596(7) 0.05261(14) 0.6358(6)
H6 H 0.0017 0.0407 0.5300
C7 C 0.1338(6) 0.13131(12) 0.5950(5)
O3 O 0.1230(4) 0.17704(9) 0.6146(4)
O4 O 0.2488(4) 0.10890(9) 0.4871(4)
C8 C -0.0415(6) 0.17169(12) 0.9487(5)
O5 O -0.2102(4) 0.20317(8) 0.8726(3)
O6 O 0.1577(4) 0.18036(9) 1.0857(4)
C9 C -0.3517(6) 0.10528(12) 1.1071(5)
O7 O -0.5103(4) 0.07966(9) 1.1577(4)
O8 O -0.2905(4) 0.14632(9) 1.1951(4)
Cu1C Cu -0.27499(7) 0.268906(15) 0.96642(6)
Cu2_2 Cu 0.45234(7) 0.138290(15) 1.33569(6)
Cu2_3 Cu -0.54766(7) 0.138290(15) 1.33569(6)
O5C O 0.2898(4) 0.29683(8) 0.3726(3)
O6_2 O 0.1577(4) 0.18036(9) 0.0857(4)
O7_2 O 0.4897(4) 0.07966(9) 0.1577(4)
O8_2 O 0.7095(4) 0.14632(9) 0.1951(4)
loop_
_geom_bond_atom_site_label_1
_geom_bond_atom_site_label_2
_geom_bond_site_symmetry_1
_geom_bond_site_symmetry_2
Cu1 O1 1_555 1_555
Cu2 O1 1_555 1_555
O1 H1 1_555 1_555
O2 Cu1 1_555 1_555
H2 O2 1_555 1_555
H3 O2 1_555 1_555
C1 C2 1_555 1_555
C2 C3 1_555 1_555
C3 C4 1_555 1_555
C4 H4 1_555 1_555
C5 C4 1_555 1_555
H5 C5 1_555 1_555
C6 C1 1_555 1_555
H6 C6 1_555 1_555
C7 C1 1_555 1_555
O3 Cu1 1_555 1_555
O4 Cu2 1_555 1_555
C8 C2 1_555 1_555
O5 C8 1_555 1_555
O6 C8 1_555 1_555
C9 C3 1_555 1_555
O7 C9 1_555 1_555
O8 C9 1_555 1_555
Cu1C O5 1_555 1_555
Cu2_2 O6 1_555 1_555
Cu2_3 O7 1_555 1_555
O5C Cu1 1_555 1_555
O6_2 Cu2 1_555 1_555
O7_2 Cu2 1_555 1_555
O8_2 Cu2 1_555 1_555
C5 C6 1_555 1_555
C7 O3 1_555 1_555
C7 O4 1_555 1_555
O8 Cu2_3 1_555 1_555

#END
