
#######################################################################
#
#                 Cambridge Crystallographic Data Centre
#                                CCDC 
#
#######################################################################
#
# If this CIF has been generated from an entry in the Cambridge 
# Structural Database, then it will include bibliographic, chemical, 
# crystal, experimental, refinement or atomic coordinate data resulting 
# from the CCDC's data processing and validation procedures.
#
#######################################################################

data_AGMANI02
_symmetry_cell_setting           orthorhombic
_symmetry_space_group_name_H-M   'I m a 2'
_symmetry_Int_Tables_number      46
_space_group_name_Hall           'I 2 -2a'
loop_
_symmetry_equiv_pos_site_id
_symmetry_equiv_pos_as_xyz
1 x,y,z
2 -x,-y,z
3 1/2+x,-y,z
4 1/2-x,y,z
5 1/2+x,1/2+y,1/2+z
6 1/2-x,1/2-y,1/2+z
7 x,1/2-y,1/2+z
8 -x,1/2+y,1/2+z
_cell_length_a                   8.0561(7)
_cell_length_b                   9.9153(9)
_cell_length_c                   6.2669(6)
_cell_angle_alpha                90
_cell_angle_beta                 90
_cell_angle_gamma                90
_cell_volume                     500.592
loop_
_atom_site_label
_atom_site_type_symbol
_atom_site_fract_x
_atom_site_fract_y
_atom_site_fract_z
Ag1 Ag 0.2500 0.35131(5) -0.00215(16)
N1 N 0.2500 0.4861(8) 0.2722(14)
N2 N 0.5294(6) 0.6831(5) 0.7852(8)
C1 C 0.2500 0.5428(12) 0.4263(15)
C2 C 0.4018(7) 0.6554(4) 0.7129(9)
C3 C 0.2500 0.6171(10) 0.6187(14)
Ag1A Ag -0.2500 0.64869(5) 0.99785(16)
Ag1A_2 Ag 0.7500 0.64869(5) 0.99785(16)
N2C N -0.0294(6) 0.6831(5) 0.7852(8)
N2A N 0.4706(6) 0.3169(5) -0.2148(8)
N2B N 0.0294(6) 0.3169(5) -0.2148(8)
C2C C 0.0982(7) 0.6554(4) 0.7129(9)
loop_
_geom_bond_atom_site_label_1
_geom_bond_atom_site_label_2
_geom_bond_site_symmetry_1
_geom_bond_site_symmetry_2
Ag1 N1 1_555 1_555
N1 C1 1_555 1_555
N2 C2 1_555 1_555
C1 C3 1_555 1_555
C2 C3 1_555 1_555
C3 C2C 1_555 1_555
Ag1A N2C 1_555 1_555
Ag1A_2 N2 1_555 1_555
N2C C2C 1_555 1_555
N2A Ag1 1_555 1_555
N2B Ag1 1_555 1_555

#END
