
#######################################################################
#
#                 Cambridge Crystallographic Data Centre
#                                CCDC 
#
#######################################################################
#
# If this CIF has been generated from an entry in the Cambridge 
# Structural Database, then it will include bibliographic, chemical, 
# crystal, experimental, refinement or atomic coordinate data resulting 
# from the CCDC's data processing and validation procedures.
#
#######################################################################

data_AGMANI06
_symmetry_cell_setting           orthorhombic
_symmetry_space_group_name_H-M   'I m a 2'
_symmetry_Int_Tables_number      46
_space_group_name_Hall           'I 2 -2a'
loop_
_symmetry_equiv_pos_site_id
_symmetry_equiv_pos_as_xyz
1 x,y,z
2 1/2+x,1/2+y,1/2+z
3 1/2-x,y,z
4 -x,1/2+y,1/2+z
5 1/2+x,-y,z
6 x,1/2-y,1/2+z
7 -x,-y,z
8 1/2-x,1/2-y,1/2+z
_cell_length_a                   8.0636(8)
_cell_length_b                   9.7766(9)
_cell_length_c                   6.2791(6)
_cell_angle_alpha                90
_cell_angle_beta                 90
_cell_angle_gamma                90
_cell_volume                     495.01
loop_
_atom_site_label
_atom_site_type_symbol
_atom_site_fract_x
_atom_site_fract_y
_atom_site_fract_z
Ag1 Ag 0.2500 0.64736(5) 0.5546(2)
N1 N 0.7500 0.4861(8) -0.1687(11)
C1 C 0.7500 0.5475(9) -0.0111(12)
N2 N 0.4718(6) 0.6835(5) 0.3469(7)
C2 C 0.5973(7) 0.6570(6) 0.2734(8)
C3 C 0.7500 0.6219(9) 0.1798(12)
N2B N 1.0282(6) 0.6835(5) 0.3469(7)
C2B C 0.9027(7) 0.6570(6) 0.2734(8)
Ag1_2 Ag 1.2500 0.64736(5) 0.5546(2)
Ag1D Ag 0.7500 0.35264(5) -0.4454(2)
N1D N 0.2500 0.5139(8) 0.8313(11)
N2B_2 N 0.0282(6) 0.6835(5) 0.3469(7)
loop_
_geom_bond_atom_site_label_1
_geom_bond_atom_site_label_2
_geom_bond_site_symmetry_1
_geom_bond_site_symmetry_2
Ag1 N2 1_555 1_555
N1 C1 1_555 1_555
C1 C3 1_555 1_555
N2 C2 1_555 1_555
C2 C3 1_555 1_555
C3 C2B 1_555 1_555
N2B C2B 1_555 1_555
Ag1_2 N2B 1_555 1_555
Ag1D N1 1_555 1_555
N1D Ag1 1_555 1_555
N2B_2 Ag1 1_555 1_555

#END
