
#######################################################################
#
#                 Cambridge Crystallographic Data Centre
#                                CCDC 
#
#######################################################################
#
# If this CIF has been generated from an entry in the Cambridge 
# Structural Database, then it will include bibliographic, chemical, 
# crystal, experimental, refinement or atomic coordinate data resulting 
# from the CCDC's data processing and validation procedures.
#
#######################################################################

data_AGMANI
_symmetry_cell_setting           orthorhombic
_symmetry_space_group_name_H-M   'I 2 c m'
_symmetry_Int_Tables_number      46
_space_group_name_Hall           'I -2c 2'
loop_
_symmetry_equiv_pos_site_id
_symmetry_equiv_pos_as_xyz
1 x,y,z
2 1/2+x,1/2+y,1/2+z
3 x,-y,1/2+z
4 1/2+x,1/2-y,z
5 x,y,1/2-z
6 1/2+x,1/2+y,-z
7 x,-y,-z
8 1/2+x,1/2-y,1/2-z
_cell_length_a                   6.210(10)
_cell_length_b                   10.190(20)
_cell_length_c                   7.980(10)
_cell_angle_alpha                90
_cell_angle_beta                 90
_cell_angle_gamma                90
_cell_volume                     504.974
loop_
_atom_site_label
_atom_site_type_symbol
_atom_site_fract_x
_atom_site_fract_y
_atom_site_fract_z
Ag1 Ag 0.00000 0.15190 0.25000
C1 C -0.38700 -0.05700 0.25000
C2 C -0.70400 -0.15500 0.09400
C3 C -0.60400 -0.13000 0.25000
N1 N -0.24100 0.00700 0.25000
N2 N -0.77100 -0.18600 -0.03600
C2D C -0.70400 -0.15500 0.40600
N2D N -0.77100 -0.18600 0.53600
N2B N 0.22900 0.18600 0.46400
N2F N 0.22900 0.18600 0.03600
Ag1B Ag -1.00000 -0.15190 -0.25000
Ag1F Ag -1.00000 -0.15190 0.75000
loop_
_geom_bond_atom_site_label_1
_geom_bond_atom_site_label_2
_geom_bond_site_symmetry_1
_geom_bond_site_symmetry_2
Ag1 N1 1_555 1_555
C1 C3 1_555 1_555
C2 C3 1_555 1_555
C3 C2D 1_555 1_555
N1 C1 1_555 1_555
N2 C2 1_555 1_555
C2D N2D 1_555 1_555
N2D Ag1F 1_555 1_555
N2B Ag1 1_555 1_555
N2F Ag1 1_555 1_555
Ag1B N2 1_555 1_555

#END
