
#######################################################################
#
#                 Cambridge Crystallographic Data Centre
#                                CCDC 
#
#######################################################################
#
# If this CIF has been generated from an entry in the Cambridge 
# Structural Database, then it will include bibliographic, chemical, 
# crystal, experimental, refinement or atomic coordinate data resulting 
# from the CCDC's data processing and validation procedures.
#
#######################################################################

data_AGMANI01
_symmetry_cell_setting           orthorhombic
_symmetry_space_group_name_H-M   'I 2 c m'
_symmetry_Int_Tables_number      46
_space_group_name_Hall           'I -2c 2'
loop_
_symmetry_equiv_pos_site_id
_symmetry_equiv_pos_as_xyz
1 x,y,z
2 x,y,1/2-z
3 x,-y,-z
4 x,-y,1/2+z
5 1/2+x,1/2+y,1/2+z
6 1/2+x,1/2+y,-z
7 1/2+x,1/2-y,1/2-z
8 1/2+x,1/2-y,z
_cell_length_a                   6.200(1)
_cell_length_b                   10.147(2)
_cell_length_c                   7.977(2)
_cell_angle_alpha                90
_cell_angle_beta                 90
_cell_angle_gamma                90
_cell_volume                     501.844
loop_
_atom_site_label
_atom_site_type_symbol
_atom_site_fract_x
_atom_site_fract_y
_atom_site_fract_z
C1 C 0.389(1) 0.1196(7) -0.25
C2 C 0.582(1) 0.0469(7) -0.25
N1 N 0.735(1) -0.0141(8) -0.25
C3 C 0.2957(9) 0.1546(5) -0.4035(7)
N2 N 0.225(1) 0.1818(5) -0.5288(7)
Ag1 Ag 0.0000 0.1517(1) 0.2500
Ag1B Ag 1.0000 -0.1517(1) -0.2500
C3A C 0.2957(9) 0.1546(5) -0.0965(7)
N2A N 0.225(1) 0.1818(5) 0.0288(7)
Ag1_2 Ag 0.0000 0.1517(1) -0.7500
N1B N -0.265(1) 0.0141(8) 0.25
N2_2 N 0.225(1) 0.1818(5) 0.4712(7)
loop_
_geom_bond_atom_site_label_1
_geom_bond_atom_site_label_2
_geom_bond_site_symmetry_1
_geom_bond_site_symmetry_2
C1 C2 1_555 1_555
C2 N1 1_555 1_555
N1 Ag1B 1_555 1_555
C3 C1 1_555 1_555
N2 C3 1_555 1_555
Ag1 N2A 1_555 1_555
C3A C1 1_555 1_555
N2A C3A 1_555 1_555
Ag1_2 N2 1_555 1_555
N1B Ag1 1_555 1_555
N2_2 Ag1 1_555 1_555

#END
