
#######################################################################
#
#                 Cambridge Crystallographic Data Centre
#                                CCDC 
#
#######################################################################
#
# If this CIF has been generated from an entry in the Cambridge 
# Structural Database, then it will include bibliographic, chemical, 
# crystal, experimental, refinement or atomic coordinate data resulting 
# from the CCDC's data processing and validation procedures.
#
#######################################################################

data_AGOGOU
_symmetry_cell_setting           orthorhombic
_symmetry_space_group_name_H-M   'I m m a'
_symmetry_Int_Tables_number      74
_space_group_name_Hall           '-I 2b 2'
loop_
_symmetry_equiv_pos_site_id
_symmetry_equiv_pos_as_xyz
1 x,y,z
2 1/2+x,1/2-y,1/2-z
3 1/2-x,y,1/2-z
4 -x,1/2-y,z
5 1/2+x,1/2+y,1/2+z
6 x,-y,-z
7 -x,1/2+y,-z
8 1/2-x,-y,1/2+z
9 -x,-y,-z
10 1/2-x,1/2+y,1/2+z
11 1/2+x,-y,1/2+z
12 x,1/2+y,-z
13 1/2-x,1/2-y,1/2-z
14 -x,y,z
15 x,1/2-y,z
16 1/2+x,y,1/2-z
_cell_length_a                   9.1552(3)
_cell_length_b                   7.4896(2)
_cell_length_c                   9.4644(3)
_cell_angle_alpha                90
_cell_angle_beta                 90
_cell_angle_gamma                90
_cell_volume                     648.962
loop_
_atom_site_label
_atom_site_type_symbol
_atom_site_fract_x
_atom_site_fract_y
_atom_site_fract_z
Fe1 Fe 0.50000 0.50000 0.50000
Fe2 Fe 0.75000 0.75000 0.75000
F1 F 0.50000 0.75000 0.4318(5)
F2 F 0.6461(3) 0.5537(4) 0.6367(2)
N1 N 0.9258(5) 0.75000 0.5845(6)
N2 N 1.00000 0.75000 0.3695(7)
C1 C 0.8845(7) 0.75000 0.4590(9)
H1 H 0.78030 0.75000 0.41930
H2 H 1.00000 0.75000 0.27110
N1C N 1.0742(5) 0.75000 0.5845(6)
C1C C 1.1155(7) 0.75000 0.4590(9)
H1C H 1.21970 0.75000 0.41930
F2B F 0.8539(3) 0.5537(4) 0.8633(2)
F2L F 0.8539(3) 0.9463(4) 0.8633(2)
F2N F 0.6461(3) 0.9463(4) 0.6367(2)
Fe1A Fe 1.00000 1.00000 1.00000
Fe1B Fe 1.00000 0.50000 1.00000
Fe1C Fe 0.50000 1.00000 0.50000
Fe2A Fe 1.25000 0.75000 0.75000
F1H F 0.50000 0.25000 0.5682(5)
F2H F 0.3539(3) 0.4463(4) 0.3633(2)
F2E F 0.6461(3) 0.4463(4) 0.3633(2)
F2M F 0.3539(3) 0.5537(4) 0.6367(2)
N1B N 0.5742(5) 0.75000 0.9155(6)
loop_
_geom_bond_atom_site_label_1
_geom_bond_atom_site_label_2
_geom_bond_site_symmetry_1
_geom_bond_site_symmetry_2
Fe1 F1 1_555 1_555
Fe2 F2 1_555 1_555
F1 Fe1C 1_555 1_555
F2 Fe1 1_555 1_555
N1 Fe2 1_555 1_555
N2 C1 1_555 1_555
C1 N1 1_555 1_555
H1 C1 1_555 1_555
H2 N2 1_555 1_555
N1C N1 1_555 1_555
C1C N2 1_555 1_555
H1C C1C 1_555 1_555
F2B Fe2 1_555 1_555
F2L Fe2 1_555 1_555
F2N Fe2 1_555 1_555
Fe1A F2L 1_555 1_555
Fe1B F2B 1_555 1_555
Fe1C F2N 1_555 1_555
Fe2A N1C 1_555 1_555
F1H Fe1 1_555 1_555
F2H Fe1 1_555 1_555
F2E Fe1 1_555 1_555
F2M Fe1 1_555 1_555
N1B Fe2 1_555 1_555
N1C C1C 1_555 1_555

#END
