
#######################################################################
#
#                 Cambridge Crystallographic Data Centre
#                                CCDC 
#
#######################################################################
#
# If this CIF has been generated from an entry in the Cambridge 
# Structural Database, then it will include bibliographic, chemical, 
# crystal, experimental, refinement or atomic coordinate data resulting 
# from the CCDC's data processing and validation procedures.
#
#######################################################################

data_AGOGUA
_symmetry_cell_setting           triclinic
_symmetry_space_group_name_H-M   'P -1'
_symmetry_Int_Tables_number      2
_space_group_name_Hall           '-P 1'
loop_
_symmetry_equiv_pos_site_id
_symmetry_equiv_pos_as_xyz
1 x,y,z
2 -x,-y,-z
_cell_length_a                   8.8392(5)
_cell_length_b                   9.1948(5)
_cell_length_c                   9.5877(5)
_cell_angle_alpha                82.070(3)
_cell_angle_beta                 63.699(3)
_cell_angle_gamma                89.202(3)
_cell_volume                     690.911
loop_
_atom_site_label
_atom_site_type_symbol
_atom_site_fract_x
_atom_site_fract_y
_atom_site_fract_z
Fe1 Fe 0.32425(7) 0.27136(6) 0.38112(6)
Fe2 Fe 0.0000 0.0000 0.0000
Fe3 Fe 0.5000 0.5000 0.0000
F1 F 0.4751(3) 0.4337(2) 0.2221(2)
F2 F 0.1494(3) 0.4150(3) 0.4347(3)
F3 F 0.3709(3) 0.3357(3) 0.5416(3)
F4 F 0.1617(3) 0.1213(2) 0.5193(2)
F5 F 0.5015(3) 0.1403(3) 0.3306(3)
O1 O 0.2102(4) 0.0119(3) -0.2356(3)
N1 N 0.0976(4) 0.8035(4) 0.0830(4)
N2 N 0.2656(4) 0.2266(4) 0.1986(4)
N3 N 0.1536(4) 0.1337(4) 0.0614(4)
N4 N 0.3285(4) 0.3105(4) 0.0520(4)
N5 N 0.2846(4) 0.6418(4) 0.0915(4)
N6 N 0.1320(4) 0.6079(4) 0.2177(4)
H1 H 0.1092 0.5340 0.2907
C1 C 0.1631(5) 0.1239(4) 0.1982(4)
H2 H 0.1035 0.0521 0.2839
C2 C 0.2590(5) 0.2503(4) -0.0243(5)
H3 H 0.2810 0.2853 -0.1276
C3 C 0.0240(5) 0.7056(4) 0.2111(4)
H4 H -0.0879 0.7056 0.2859
C4 C 0.2583(4) 0.7608(3) 0.0132(3)
H5 H 0.3415 0.8103 -0.0804
Fe1A Fe -0.32425(7) -0.27136(6) -0.38112(6)
F1A F -0.4751(3) -0.4337(2) -0.2221(2)
F2A F -0.1494(3) -0.4150(3) -0.4347(3)
F3A F -0.3709(3) -0.3357(3) -0.5416(3)
F4A F -0.1617(3) -0.1213(2) -0.5193(2)
F5A F -0.5015(3) -0.1403(3) -0.3306(3)
O1A O -0.2102(4) -0.0119(3) 0.2356(3)
N2A N -0.2656(4) -0.2266(4) -0.1986(4)
N3A N -0.1536(4) -0.1337(4) -0.0614(4)
N4A N -0.3285(4) -0.3105(4) -0.0520(4)
C1A C -0.1631(5) -0.1239(4) -0.1982(4)
H2A H -0.1035 -0.0521 -0.2839
C2A C -0.2590(5) -0.2503(4) 0.0243(5)
H3A H -0.2810 -0.2853 0.1276
N1A N -0.0976(4) 0.1965(4) -0.0830(4)
N5A N -0.2846(4) 0.3582(4) -0.0915(4)
N6A N -0.1320(4) 0.3921(4) -0.2177(4)
H1A H -0.1092 0.4660 -0.2907
C3A C -0.0240(5) 0.2944(4) -0.2111(4)
H4A H 0.0879 0.2944 -0.2859
C4A C -0.2583(4) 0.2392(3) -0.0132(3)
H5A H -0.3415 0.1897 0.0804
Fe2_2 Fe 0.0000 1.0000 0.0000
Fe3_2 Fe -0.5000 -0.5000 0.0000
Fe3_3 Fe -0.5000 0.5000 0.0000
F1A_2 F 0.5249(3) 0.5663(2) -0.2221(2)
N1_2 N 0.0976(4) -0.1965(4) 0.0830(4)
N4A_2 N 0.6715(4) 0.6895(4) -0.0520(4)
N5A_2 N 0.7154(4) 0.3582(4) -0.0915(4)
N7 N 0.3087(5) 0.6561(4) 0.5018(5)
H6 H 0.2802 0.5795 0.4675
H7 H 0.4172 0.6484 0.4840
C5 C 0.2947(4) 0.7963(3) 0.4075(3)
H8 H 0.1793 0.8060 0.4259
H9 H 0.3647 0.7938 0.2976
H10 H 0.3312 0.8786 0.4388
C6 C 0.2019(4) 0.6460(3) 0.6726(3)
H11 H 0.2234 0.7321 0.7088
H12 H 0.2277 0.5603 0.7259
H13 H 0.0850 0.6391 0.6944
loop_
_geom_bond_atom_site_label_1
_geom_bond_atom_site_label_2
_geom_bond_site_symmetry_1
_geom_bond_site_symmetry_2
Fe1 F1 1_555 1_555
Fe2 O1 1_555 1_555
Fe3 F1 1_555 1_555
F2 Fe1 1_555 1_555
F3 Fe1 1_555 1_555
F4 Fe1 1_555 1_555
F5 Fe1 1_555 1_555
N1 C3 1_555 1_555
N2 Fe1 1_555 1_555
N3 Fe2 1_555 1_555
N4 Fe3 1_555 1_555
N5 Fe3 1_555 1_555
N6 N5 1_555 1_555
H1 N6 1_555 1_555
C1 N2 1_555 1_555
H2 C1 1_555 1_555
C2 N3 1_555 1_555
H3 C2 1_555 1_555
C3 N6 1_555 1_555
H4 C3 1_555 1_555
C4 N1 1_555 1_555
H5 C4 1_555 1_555
N7 H6 1_555 1_555
H7 N7 1_555 1_555
C5 N7 1_555 1_555
H8 C5 1_555 1_555
H9 C5 1_555 1_555
H10 C5 1_555 1_555
C6 N7 1_555 1_555
H11 C6 1_555 1_555
H12 C6 1_555 1_555
H13 C6 1_555 1_555
Fe1A F1A 1_555 1_555
F1A Fe3_2 1_555 1_555
F2A Fe1A 1_555 1_555
F3A Fe1A 1_555 1_555
F4A Fe1A 1_555 1_555
F5A Fe1A 1_555 1_555
O1A Fe2 1_555 1_555
N2A Fe1A 1_555 1_555
N3A Fe2 1_555 1_555
N4A N2A 1_555 1_555
C1A N2A 1_555 1_555
H2A C1A 1_555 1_555
C2A N3A 1_555 1_555
H3A C2A 1_555 1_555
N1A Fe2 1_555 1_555
N5A N6A 1_555 1_555
N6A H1A 1_555 1_555
C3A N1A 1_555 1_555
H4A C3A 1_555 1_555
C4A N1A 1_555 1_555
H5A C4A 1_555 1_555
Fe2_2 N1 1_555 1_555
Fe3_2 N4A 1_555 1_555
Fe3_3 N5A 1_555 1_555
F1A_2 Fe3 1_555 1_555
N1_2 Fe2 1_555 1_555
N4A_2 Fe3 1_555 1_555
N5A_2 Fe3 1_555 1_555
N2 N4 1_555 1_555
N3 C1 1_555 1_555
N4 C2 1_555 1_555
N5 C4 1_555 1_555
N3A C1A 1_555 1_555
N4A C2A 1_555 1_555
N5A C4A 1_555 1_555
N6A C3A 1_555 1_555

#END
