
#######################################################################
#
#                 Cambridge Crystallographic Data Centre
#                                CCDC 
#
#######################################################################
#
# If this CIF has been generated from an entry in the Cambridge 
# Structural Database, then it will include bibliographic, chemical, 
# crystal, experimental, refinement or atomic coordinate data resulting 
# from the CCDC's data processing and validation procedures.
#
#######################################################################

data_AGOHOV
_symmetry_cell_setting           triclinic
_symmetry_space_group_name_H-M   'P -1'
_symmetry_Int_Tables_number      2
_space_group_name_Hall           '-P 1'
loop_
_symmetry_equiv_pos_site_id
_symmetry_equiv_pos_as_xyz
1 x,y,z
2 -x,-y,-z
_cell_length_a                   9.4798(12)
_cell_length_b                   10.1009(12)
_cell_length_c                   11.1659(14)
_cell_angle_alpha                96.353(6)
_cell_angle_beta                 111.398(5)
_cell_angle_gamma                99.654(5)
_cell_volume                     964.036
loop_
_atom_site_label
_atom_site_type_symbol
_atom_site_fract_x
_atom_site_fract_y
_atom_site_fract_z
Zn1 Zn 0.41113(5) 0.00913(4) 0.28171(5)
O1 O 0.5238(3) -0.1280(3) 0.3597(3)
N1 N 0.2145(4) -0.0261(3) 0.3163(3)
C1 C 0.0835(5) 0.0146(5) 0.2582(4)
H1 H 0.0706 0.0728 0.1980
N2 N 0.1843(4) -0.1067(4) 0.3966(4)
O2 O 0.3417(4) -0.3010(3) 0.2173(4)
C2 C -0.0308(5) -0.0406(5) 0.2990(4)
C3 C 0.0396(5) -0.1178(5) 0.3879(4)
H2 H -0.0066 -0.1688 0.4337
O3 O 0.5856(3) -0.8217(3) 0.3902(3)
N3 N -0.3453(4) 0.0354(4) -0.0841(3)
O4 O 0.3794(4) -0.7718(3) 0.2520(3)
C4 C -0.3124(5) -0.0440(5) 0.0057(5)
H3 H -0.3289 -0.1386 -0.0134
N4 N -0.3080(5) 0.1617(4) -0.0147(4)
O5 O 0.9498(4) -0.3452(4) 0.6047(4)
H4 H 0.9879 -0.3899 0.6489
C5 C -0.2501(5) 0.0335(6) 0.1317(5)
C6 C -0.2518(6) 0.1617(6) 0.1125(5)
H5 H -0.2186 0.2387 0.1781
C7 C -0.1942(6) -0.0177(7) 0.2597(5)
H6 H -0.2645 -0.1029 0.2516
H7 H -0.1973 0.0483 0.3283
C8 C 0.5616(5) -0.3530(4) 0.3725(4)
C9 C 0.4990(5) -0.4921(4) 0.3331(4)
H8 H 0.3980 -0.5236 0.2709
C10 C 0.5846(5) -0.5842(4) 0.3852(4)
C11 C 0.7371(5) -0.5369(4) 0.4781(4)
H9 H 0.7962 -0.5985 0.5130
C12 C 0.7996(5) -0.3968(5) 0.5179(5)
C13 C 0.7128(5) -0.3054(4) 0.4662(4)
H10 H 0.7550 -0.2119 0.4936
C14 C 0.4675(5) -0.2542(4) 0.3121(5)
C15 C 0.5127(5) -0.7336(4) 0.3397(4)
H11 H -0.309(7) 0.230(5) -0.057(6)
H12 H 0.265(5) -0.128(6) 0.457(4)
Zn1_2 Zn 0.41113(5) -0.99087(4) 0.28171(5)
Zn1A Zn -0.41113(5) -0.00913(4) -0.28171(5)
O3_2 O 0.5856(3) 0.1783(3) 0.3902(3)
N3A N 0.3453(4) -0.0354(4) 0.0841(3)
O4_2 O 0.3794(4) 0.2282(3) 0.2520(3)
O6 O 0.9070(7) -0.4880(6) 1.2559(6)
N5 N 0.8665(13) -0.3855(10) 1.0818(10)
C16 C 0.9792(16) -0.4334(12) 1.1878(13)
H13 H 1.0838 -0.4261 1.2035
C17 C 0.9175(14) -0.3138(12) 0.9889(12)
H14 H 1.0290 -0.2886 1.0232
H15 H 0.8766 -0.2332 0.9785
H16 H 0.8796 -0.3738 0.9055
C18 C 0.6892(18) -0.4301(15) 1.0539(15)
H17 H 0.6772 -0.4705 1.1246
H18 H 0.6377 -0.4957 0.9736
H19 H 0.6441 -0.3516 1.0466
loop_
_geom_bond_atom_site_label_1
_geom_bond_atom_site_label_2
_geom_bond_site_symmetry_1
_geom_bond_site_symmetry_2
Zn1 O1 1_555 1_555
O1 C14 1_555 1_555
N1 Zn1 1_555 1_555
C1 N1 1_555 1_555
H1 C1 1_555 1_555
N2 N1 1_555 1_555
O2 C14 1_555 1_555
C2 C1 1_555 1_555
C3 N2 1_555 1_555
H2 C3 1_555 1_555
O3 C15 1_555 1_555
N3 C4 1_555 1_555
O4 C15 1_555 1_555
C4 H3 1_555 1_555
N4 N3 1_555 1_555
O5 H4 1_555 1_555
C5 C4 1_555 1_555
C6 N4 1_555 1_555
H5 C6 1_555 1_555
C7 C2 1_555 1_555
H6 C7 1_555 1_555
H7 C7 1_555 1_555
C8 C9 1_555 1_555
C9 H8 1_555 1_555
C10 C9 1_555 1_555
C11 C10 1_555 1_555
H9 C11 1_555 1_555
C12 O5 1_555 1_555
C13 C8 1_555 1_555
H10 C13 1_555 1_555
C14 C8 1_555 1_555
C15 C10 1_555 1_555
H11 N4 1_555 1_555
H12 N2 1_555 1_555
O6 C16 1_555 1_555
N5 C16 1_555 1_555
C16 H13 1_555 1_555
C17 N5 1_555 1_555
H14 C17 1_555 1_555
H15 C17 1_555 1_555
H16 C17 1_555 1_555
C18 N5 1_555 1_555
H17 C18 1_555 1_555
H18 C18 1_555 1_555
H19 C18 1_555 1_555
Zn1_2 O3 1_555 1_555
Zn1A N3 1_555 1_555
O3_2 Zn1 1_555 1_555
N3A Zn1 1_555 1_555
O4_2 Zn1 1_555 1_555
C2 C3 1_555 1_555
O4 Zn1_2 1_555 1_555
C5 C6 1_555 1_555
C5 C7 1_555 1_555
C11 C12 1_555 1_555
C12 C13 1_555 1_555

#END
