
#######################################################################
#
#                 Cambridge Crystallographic Data Centre
#                                CCDC 
#
#######################################################################
#
# If this CIF has been generated from an entry in the Cambridge 
# Structural Database, then it will include bibliographic, chemical, 
# crystal, experimental, refinement or atomic coordinate data resulting 
# from the CCDC's data processing and validation procedures.
#
#######################################################################

data_AGOJUD
_symmetry_cell_setting           monoclinic
_symmetry_space_group_name_H-M   'P 21/n'
_symmetry_Int_Tables_number      14
_space_group_name_Hall           '-P 2yn'
loop_
_symmetry_equiv_pos_site_id
_symmetry_equiv_pos_as_xyz
1 x,y,z
2 1/2-x,1/2+y,1/2-z
3 -x,-y,-z
4 1/2+x,1/2-y,1/2+z
_cell_length_a                   12.5177(5)
_cell_length_b                   7.5794(3)
_cell_length_c                   15.9998(6)
_cell_angle_alpha                90
_cell_angle_beta                 111.745(2)
_cell_angle_gamma                90
_cell_volume                     1409.99
loop_
_atom_site_label
_atom_site_type_symbol
_atom_site_fract_x
_atom_site_fract_y
_atom_site_fract_z
O5 O 0.6448(10) -0.0596(11) -0.1583(6)
H6 H 0.7158 -0.1326 -0.1590
H7 H 0.6641 0.0591 -0.1712
O6 O 1.2002(10) -0.0565(17) 0.2540(7)
Zn1 Zn 0.85765(3) 0.01358(3) 0.177036(19)
N1 N 0.70080(19) 0.1248(2) 0.16226(14)
C1 C 0.5951(2) 0.2338(3) 0.00796(15)
H1 H 0.5586 0.1252 -0.0080
C2 C 0.5733(2) 0.3679(3) -0.05570(15)
C3 C 0.6282(2) 0.5299(3) -0.03153(17)
H2 H 0.6137 0.6195 -0.0740
C4 C 0.7268(2) 0.4241(3) 0.11938(15)
H3 H 0.7787 0.4424 0.1778
C5 C 0.6714(2) 0.2628(3) 0.09536(15)
C6 C 0.7046(2) 0.5583(3) 0.05595(16)
C7 C 0.7588(2) 0.7356(3) 0.08293(17)
O1 O 0.82394(17) 0.7581(2) 0.16507(12)
O2 O 0.7281(15) 0.862(2) 0.0311(9)
C8 C 0.4871(2) 0.3402(3) -0.14942(16)
O3 O 0.47221(18) 0.4730(2) -0.20193(13)
O4 O 0.43593(19) 0.1985(2) -0.17129(13)
H4 H 0.649(4) 0.024(5) 0.146(3)
H5 H 0.715(3) 0.164(4) 0.217(2)
N2 N 0.9300(2) 0.1473(4) 0.10409(17)
C9 C 0.9470(9) 0.4001(14) -0.0838(6)
C10 C 0.8871(10) 0.2117(13) 0.0231(9)
N3 N 1.0462(5) 0.1563(10) 0.1276(4)
C11 C 1.0702(8) 0.2560(18) 0.0682(7)
C12 C 0.937(2) 0.307(3) -0.0066(12)
C13 C 0.9977(7) 0.4154(11) 0.0695(5)
N2B N 1.0700(2) 0.8527(4) -0.10409(17)
C9B C 1.0530(9) 0.5999(14) 0.0838(6)
C10B C 1.1129(10) 0.7883(13) -0.0231(9)
N3B N 0.9538(5) 0.8437(10) -0.1276(4)
C11B C 0.9298(8) 0.7440(18) -0.0682(7)
C12B C 1.063(2) 0.693(3) 0.0066(12)
C13B C 1.0023(7) 0.5846(11) -0.0695(5)
Zn1B Zn 1.14235(3) 0.98642(3) -0.177036(19)
N1B N 1.29920(19) 0.8752(2) -0.16226(14)
C1B C 1.4049(2) 0.7662(3) -0.00796(15)
H1B H 1.4414 0.8748 0.0080
C2B C 1.4267(2) 0.6321(3) 0.05570(15)
C3B C 1.3718(2) 0.4701(3) 0.03153(17)
H2B H 1.3863 0.3805 0.0740
C4B C 1.2732(2) 0.5759(3) -0.11938(15)
H3B H 1.2213 0.5576 -0.1778
C5B C 1.3286(2) 0.7372(3) -0.09536(15)
C6B C 1.2954(2) 0.4417(3) -0.05595(16)
C7B C 1.2412(2) 0.2644(3) -0.08293(17)
O1B O 1.17606(17) 0.2419(2) -0.16507(12)
O2B O 1.2719(15) 0.138(2) -0.0311(9)
C8B C 1.5129(2) 0.6598(3) 0.14942(16)
O3B O 1.52779(18) 0.5270(2) 0.20193(13)
O4B O 1.56407(19) 0.8015(2) 0.17129(13)
H4B H 1.351(4) 0.976(5) -0.146(3)
H5B H 1.285(3) 0.836(4) -0.217(2)
Zn1_2 Zn 0.85765(3) 1.01358(3) 0.177036(19)
Zn1A Zn 1.64235(3) 0.51358(3) 0.322964(19)
Zn1B_2 Zn 1.14235(3) -0.01358(3) -0.177036(19)
Zn1C Zn 0.35765(3) 0.48642(3) -0.322964(19)
O1_2 O 0.82394(17) -0.2419(2) 0.16507(12)
O1B_2 O 1.17606(17) 1.2419(2) -0.16507(12)
O2_2 O 0.7281(15) -0.138(2) 0.0311(9)
O2B_2 O 1.2719(15) 1.138(2) -0.0311(9)
O3A O 1.02779(18) 0.9730(2) -0.29807(13)
O3C O 0.97221(18) 0.0270(2) 0.29807(13)
O7? O 0.7498(18) 0.849(3) 0.0211(11)
N4? N 0.9879(5) 0.3117(8) 0.1392(4)
C14? C 0.8941(17) 0.1625(16) 0.0163(12)
C15? C 0.9661(15) 0.307(2) 0.0013(11)
loop_
_geom_bond_atom_site_label_1
_geom_bond_atom_site_label_2
_geom_bond_site_symmetry_1
_geom_bond_site_symmetry_2
Zn1 N1 1_555 1_555
N1 C5 1_555 1_555
C1 H1 1_555 1_555
C2 C1 1_555 1_555
C3 C2 1_555 1_555
H2 C3 1_555 1_555
C4 H3 1_555 1_555
C5 C1 1_555 1_555
C6 C3 1_555 1_555
C7 C6 1_555 1_555
O1 C7 1_555 1_555
O2 C7 1_555 1_555
C8 C2 1_555 1_555
O3 C8 1_555 1_555
O4 C8 1_555 1_555
H4 N1 1_555 1_555
H5 N1 1_555 1_555
N2 Zn1 1_555 1_555
C9 C12 1_555 1_555
C10 N2 1_555 1_555
N3 N2 1_555 1_555
C11 N3 1_555 1_555
C12 C10 1_555 1_555
C13 C11 1_555 1_555
O5 H6 1_555 1_555
H7 O5 1_555 1_555
N2B C10B 1_555 1_555
C9B C13 1_555 1_555
C10B C12B 1_555 1_555
N3B N2B 1_555 1_555
C11B N3B 1_555 1_555
C12B C9B 1_555 1_555
C13B C9 1_555 1_555
Zn1B N2B 1_555 1_555
N1B Zn1B 1_555 1_555
C1B H1B 1_555 1_555
C2B C1B 1_555 1_555
C3B C2B 1_555 1_555
H2B C3B 1_555 1_555
C4B H3B 1_555 1_555
C5B N1B 1_555 1_555
C6B C3B 1_555 1_555
C7B C6B 1_555 1_555
O1B C7B 1_555 1_555
O2B C7B 1_555 1_555
C8B C2B 1_555 1_555
O3B C8B 1_555 1_555
O4B C8B 1_555 1_555
H4B N1B 1_555 1_555
H5B N1B 1_555 1_555
Zn1_2 O1 1_555 1_555
Zn1A O3B 1_555 1_555
Zn1B_2 O1B 1_555 1_555
Zn1C O3 1_555 1_555
O1_2 Zn1 1_555 1_555
O1B_2 Zn1B 1_555 1_555
O2_2 Zn1 1_555 1_555
O2B_2 Zn1B 1_555 1_555
O3A Zn1B 1_555 1_555
O3C Zn1 1_555 1_555
C4 C5 1_555 1_555
C4 C6 1_555 1_555
O2 Zn1_2 1_555 1_555
C11 C12 1_555 1_555
C12 C13 1_555 1_555
C11B C12B 1_555 1_555
C11B C13B 1_555 1_555
C12B C13B 1_555 1_555
C1B C5B 1_555 1_555
C4B C5B 1_555 1_555
C4B C6B 1_555 1_555
O2B Zn1B_2 1_555 1_555

#END
