
#######################################################################
#
#                 Cambridge Crystallographic Data Centre
#                                CCDC 
#
#######################################################################
#
# If this CIF has been generated from an entry in the Cambridge 
# Structural Database, then it will include bibliographic, chemical, 
# crystal, experimental, refinement or atomic coordinate data resulting 
# from the CCDC's data processing and validation procedures.
#
#######################################################################

data_AGOJOX
_symmetry_cell_setting           triclinic
_symmetry_space_group_name_H-M   'P -1'
_symmetry_Int_Tables_number      2
_space_group_name_Hall           '-P 1'
loop_
_symmetry_equiv_pos_site_id
_symmetry_equiv_pos_as_xyz
1 x,y,z
2 -x,-y,-z
_cell_length_a                   9.5734(4)
_cell_length_b                   10.1279(4)
_cell_length_c                   11.3140(5)
_cell_angle_alpha                80.5030(10)
_cell_angle_beta                 66.3940(10)
_cell_angle_gamma                80.4300(10)
_cell_volume                     985.306
loop_
_atom_site_label
_atom_site_type_symbol
_atom_site_fract_x
_atom_site_fract_y
_atom_site_fract_z
I1 I 0.50580(3) 0.41078(3) 0.32250(3)
Zn1 Zn -0.08622(5) 0.93913(4) 0.71092(4)
O1 O 0.0697(3) 0.7913(3) 0.6212(3)
C1 C -0.4174(4) 0.9328(4) 0.7489(4)
H1 H -0.4352 0.8652 0.8181
N1 N -0.2815(4) 0.9760(3) 0.6789(3)
O2 O -0.1294(3) 0.6918(3) 0.7579(3)
N2 N -0.3054(4) 1.0731(3) 0.5903(3)
H2 H -0.2352 1.1183 0.5326
C2 C -0.5297(4) 1.0011(4) 0.7061(4)
C3 C -0.4522(5) 1.0903(4) 0.6033(4)
H3 H -0.4945 1.1513 0.5522
O3 O 0.0389(3) 0.0891(3) 0.6191(3)
N3 N -0.8735(4) 1.0772(3) 1.0986(3)
O4 O -0.1647(3) 0.2156(3) 0.7391(3)
C4 C -0.7866(5) 0.9952(4) 1.0092(4)
H4 H -0.7337 0.9136 1.0266
N4 N -0.9296(5) 1.1810(4) 1.0343(4)
H5 H -0.9896 1.2493 1.0691
C5 C -0.7847(4) 1.0461(4) 0.8870(4)
C6 C -0.8795(6) 1.1641(5) 0.9086(5)
H6 H -0.9051 1.2229 0.8461
C7 C -0.6978(5) 0.9841(5) 0.7616(4)
H7 H -0.7098 0.8887 0.7768
H8 H -0.7418 1.0252 0.6988
C8 C 0.0752(4) 0.5551(4) 0.6166(3)
C9 C -0.0043(4) 0.4423(4) 0.6621(4)
H9 H -0.1020 0.4485 0.7271
C10 C 0.0605(4) 0.3204(4) 0.6114(3)
C11 C 0.2081(4) 0.3104(4) 0.5156(4)
H10 H 0.2536 0.2288 0.4825
C12 C 0.2863(4) 0.4235(4) 0.4703(4)
C13 C 0.2228(4) 0.5456(4) 0.5189(4)
H11 H 0.2771 0.6204 0.4872
C14 C -0.0006(4) 0.6859(4) 0.6690(4)
C15 C -0.0299(4) 0.2000(4) 0.6606(4)
Zn1_2 Zn -0.08622(5) -0.06087(4) 0.71092(4)
Zn1A Zn -0.91378(5) 1.06087(4) 1.28908(4)
O3_2 O 0.0389(3) 1.0891(3) 0.6191(3)
N3A N -0.1265(4) 0.9228(3) 0.9014(3)
O5 O 0.1330(9) 0.5805(8) -0.0949(6)
H12 H 0.1336 0.5145 -0.0797
H13 H 0.1806 0.6291 -0.0741
O6 O 0.3096(7) 0.4570(6) 0.0205(6)
O7 O 0.3943(6) 0.6788(5) 0.0545(5)
H14 H 0.3308 0.6551 0.0365
H15 H 0.4831 0.6927 0.0387
loop_
_geom_bond_atom_site_label_1
_geom_bond_atom_site_label_2
_geom_bond_site_symmetry_1
_geom_bond_site_symmetry_2
I1 C12 1_555 1_555
Zn1 O1 1_555 1_555
O1 C14 1_555 1_555
C1 H1 1_555 1_555
N1 Zn1 1_555 1_555
O2 Zn1 1_555 1_555
N2 N1 1_555 1_555
H2 N2 1_555 1_555
C2 C1 1_555 1_555
C3 N2 1_555 1_555
H3 C3 1_555 1_555
O3 C15 1_555 1_555
N3 C4 1_555 1_555
O4 C15 1_555 1_555
C4 H4 1_555 1_555
N4 N3 1_555 1_555
H5 N4 1_555 1_555
C5 C4 1_555 1_555
C6 N4 1_555 1_555
H6 C6 1_555 1_555
C7 C2 1_555 1_555
H7 C7 1_555 1_555
H8 C7 1_555 1_555
C8 C9 1_555 1_555
C9 H9 1_555 1_555
C10 C9 1_555 1_555
C11 C10 1_555 1_555
H10 C11 1_555 1_555
C12 C11 1_555 1_555
C13 C8 1_555 1_555
H11 C13 1_555 1_555
C14 O2 1_555 1_555
C15 C10 1_555 1_555
O5 H12 1_555 1_555
H13 O5 1_555 1_555
O7 H14 1_555 1_555
H15 O7 1_555 1_555
Zn1_2 O3 1_555 1_555
Zn1A N3 1_555 1_555
O3_2 Zn1 1_555 1_555
N3A Zn1 1_555 1_555
C1 N1 1_555 1_555
C2 C3 1_555 1_555
C5 C6 1_555 1_555
C5 C7 1_555 1_555
C8 C14 1_555 1_555
C12 C13 1_555 1_555

#END
