
#######################################################################
#
#                 Cambridge Crystallographic Data Centre
#                                CCDC 
#
#######################################################################
#
# If this CIF has been generated from an entry in the Cambridge 
# Structural Database, then it will include bibliographic, chemical, 
# crystal, experimental, refinement or atomic coordinate data resulting 
# from the CCDC's data processing and validation procedures.
#
#######################################################################

data_AGOJAJ
_symmetry_cell_setting           monoclinic
_symmetry_space_group_name_H-M   'P 21/n'
_symmetry_Int_Tables_number      14
_space_group_name_Hall           '-P 2yn'
loop_
_symmetry_equiv_pos_site_id
_symmetry_equiv_pos_as_xyz
1 x,y,z
2 1/2-x,1/2+y,1/2-z
3 -x,-y,-z
4 1/2+x,1/2-y,1/2+z
_cell_length_a                   8.4157(5)
_cell_length_b                   16.7161(10)
_cell_length_c                   13.1197(7)
_cell_angle_alpha                90
_cell_angle_beta                 90.980(2)
_cell_angle_gamma                90
_cell_volume                     1845.38
loop_
_atom_site_label
_atom_site_type_symbol
_atom_site_fract_x
_atom_site_fract_y
_atom_site_fract_z
Zn1 Zn 0.10398(3) 0.117121(13) 0.747798(16)
O1 O 0.0324(2) 0.10860(9) 0.88775(11)
C1 C 0.0695(2) 0.11766(11) 1.06535(15)
N1 N 0.2194(2) 0.01773(10) 0.70401(12)
C2 C -0.0812(2) 0.21147(11) 1.16334(15)
C3 C 0.3344(2) -0.08475(13) 0.62375(15)
O2 O 0.2111(2) 0.02804(10) 0.95984(11)
C4 C -0.0453(2) 0.17717(11) 1.07033(15)
H1 H -0.0981 0.1940 1.0113
C5 C -0.0019(3) 0.18495(13) 1.25136(15)
H2 H -0.0266 0.2078 1.3137
C6 C 0.1090(2) 0.08079(12) 0.96445(14)
N2 N 0.2887(2) -0.03087(10) 0.77243(13)
C7 C 0.1472(3) 0.09287(14) 1.15412(15)
H3 H 0.2246 0.0533 1.1505
C8 C 0.2476(3) -0.01499(14) 0.61353(15)
H4 H 0.2133 0.0064 0.5515
C9 C 0.1116(3) 0.12594(14) 1.24843(15)
C10 C 0.3584(3) -0.09230(13) 0.72672(16)
H5 H 0.4140 -0.1334 0.7592
C11 C 0.3892(3) -0.14196(18) 0.54310(18)
H6 H 0.5017 -0.1336 0.5322
H7 H 0.3755 -0.1963 0.5674
C12 C 0.1929(4) 0.09698(19) 1.3448(2)
H8 H 0.1541 0.1266 1.4019
H9 H 0.3055 0.1047 1.3397
H10 H 0.1709 0.0411 1.3541
H11 H 0.279(3) -0.0224(15) 0.8386(19)
C13 C -0.2064(3) 0.27473(12) 1.16935(17)
O3 O -0.2627(2) 0.30646(11) 1.09224(14)
O4 O -0.2477(2) 0.29451(10) 1.25893(13)
C14 C 0.3012(3) -0.13261(13) 0.44318(16)
C15 C 0.1411(3) -0.14267(15) 0.42208(15)
H12 H 0.0664 -0.1568 0.4703
C16 C 0.3652(3) -0.11328(13) 0.35010(19)
H13 H 0.4716 -0.1029 0.3376
N3 N 0.1071(2) -0.12955(11) 0.32347(13)
N4 N 0.2456(2) -0.11222(11) 0.28073(15)
H14 H 0.262(3) -0.1069(14) 0.212(2)
Zn1B Zn -0.10398(3) -0.117121(13) 0.252202(16)
Zn1C Zn -0.39602(3) 0.382879(13) 1.247798(16)
O4C O 0.2523(2) 0.20549(10) 0.75893(13)
N3B N -0.1071(2) 0.12955(11) 0.67653(13)
O5 O -0.3639(3) 0.07687(17) 0.90819(15)
C17 C -0.4521(5) 0.1321(2) 0.9632(3)
H15 H -0.4240 0.1282 1.0342
H16 H -0.5634 0.1209 0.9539
H17 H -0.4299 0.1851 0.9392
H18 H -0.285(4) 0.039(2) 0.950(3)
loop_
_geom_bond_atom_site_label_1
_geom_bond_atom_site_label_2
_geom_bond_site_symmetry_1
_geom_bond_site_symmetry_2
Zn1 O1 1_555 1_555
O1 C6 1_555 1_555
C1 C4 1_555 1_555
N1 Zn1 1_555 1_555
C2 C4 1_555 1_555
C3 C8 1_555 1_555
O2 C6 1_555 1_555
C4 H1 1_555 1_555
C5 C2 1_555 1_555
H2 C5 1_555 1_555
C6 C1 1_555 1_555
N2 N1 1_555 1_555
C7 C1 1_555 1_555
H3 C7 1_555 1_555
C8 N1 1_555 1_555
H4 C8 1_555 1_555
C9 C5 1_555 1_555
C10 C3 1_555 1_555
H5 C10 1_555 1_555
C11 C3 1_555 1_555
H6 C11 1_555 1_555
H7 C11 1_555 1_555
C12 C9 1_555 1_555
H8 C12 1_555 1_555
H9 C12 1_555 1_555
H10 C12 1_555 1_555
H11 N2 1_555 1_555
C13 C2 1_555 1_555
O3 C13 1_555 1_555
O4 C13 1_555 1_555
C14 C11 1_555 1_555
C15 C14 1_555 1_555
H12 C15 1_555 1_555
C16 C14 1_555 1_555
H13 C16 1_555 1_555
N3 C15 1_555 1_555
N4 C16 1_555 1_555
H14 N4 1_555 1_555
O5 C17 1_555 1_555
C17 H15 1_555 1_555
H16 C17 1_555 1_555
H17 C17 1_555 1_555
H18 O5 1_555 1_555
Zn1B N3 1_555 1_555
Zn1C O4 1_555 1_555
O4C Zn1 1_555 1_555
N3B Zn1 1_555 1_555
N2 C10 1_555 1_555
C7 C9 1_555 1_555
N3 N4 1_555 1_555

#END
