
#######################################################################
#
#                 Cambridge Crystallographic Data Centre
#                                CCDC 
#
#######################################################################
#
# If this CIF has been generated from an entry in the Cambridge 
# Structural Database, then it will include bibliographic, chemical, 
# crystal, experimental, refinement or atomic coordinate data resulting 
# from the CCDC's data processing and validation procedures.
#
#######################################################################

data_AGOKAI
_symmetry_cell_setting           monoclinic
_symmetry_space_group_name_H-M   'P 21/n'
_symmetry_Int_Tables_number      14
_space_group_name_Hall           '-P 2yn'
loop_
_symmetry_equiv_pos_site_id
_symmetry_equiv_pos_as_xyz
1 x,y,z
2 1/2+x,1/2-y,1/2+z
3 -x,-y,-z
4 1/2-x,1/2+y,1/2-z
_cell_length_a                   8.8930(10)
_cell_length_b                   7.4780(10)
_cell_length_c                   16.582(2)
_cell_angle_alpha                90
_cell_angle_beta                 105.130(10)
_cell_angle_gamma                90
_cell_volume                     1064.51
loop_
_atom_site_label
_atom_site_type_symbol
_atom_site_fract_x
_atom_site_fract_y
_atom_site_fract_z
Ba1 Ba 0.21293(2) 0.249273(16) 0.166617(10)
C1 C 0.5437(5) 0.2496(3) 0.0509(3)
C2 C 0.5626(6) 0.2498(3) -0.0361(3)
C3 C 0.7056(5) 0.2502(3) -0.0504(3)
H1 H 0.7933 0.2500 -0.0052
C4 C 0.7258(5) 0.2509(3) -0.1369(2)
C5 C 0.4164(7) 0.2510(5) -0.1085(4)
H2 H 0.4454 0.2471 -0.1604
H3 H 0.3581 0.3581 -0.1063
H4 H 0.3537 0.1486 -0.1046
O1 O 0.6636(5) 0.2501(2) 0.1134(3)
O2 O 0.4076(5) 0.2492(2) 0.0587(3)
O3 O 0.7329(4) 0.1041(4) -0.17209(17)
O4 O 0.7329(4) 0.3971(4) -0.17193(17)
O5 O 0.5357(4) 0.2496(2) 0.2489(2)
O6 O -0.0654(3) 0.4583(5) 0.1388(2)
O7 O -0.0659(3) 0.0409(4) 0.1385(2)
O8 O 0.1060(5) 0.2506(3) -0.0185(2)
O3A O 0.2329(4) 0.3959(4) 0.32791(17)
O3B O 0.2671(4) -0.1041(4) 0.17209(17)
O4A O 0.2329(4) 0.1029(4) 0.32807(17)
O4B O 0.2671(4) 0.6029(4) 0.17193(17)
Ba1A Ba 0.71293(2) 0.250727(16) -0.333383(10)
Ba1B Ba 0.78707(2) -0.249273(16) -0.166617(10)
Ba1B_2 Ba 0.78707(2) 0.750727(16) -0.166617(10)
loop_
_geom_bond_atom_site_label_1
_geom_bond_atom_site_label_2
_geom_bond_site_symmetry_1
_geom_bond_site_symmetry_2
Ba1 O2 1_555 1_555
C1 C2 1_555 1_555
C2 C3 1_555 1_555
C3 H1 1_555 1_555
C4 C3 1_555 1_555
C5 C2 1_555 1_555
H2 C5 1_555 1_555
H3 C5 1_555 1_555
H4 C5 1_555 1_555
O1 C1 1_555 1_555
O2 C1 1_555 1_555
O3 C4 1_555 1_555
O4 C4 1_555 1_555
O5 Ba1 1_555 1_555
O6 Ba1 1_555 1_555
O7 Ba1 1_555 1_555
O8 Ba1 1_555 1_555
O3A Ba1 1_555 1_555
O3B Ba1 1_555 1_555
O4A Ba1 1_555 1_555
O4B Ba1 1_555 1_555
Ba1A O3 1_555 1_555
Ba1B O3 1_555 1_555
Ba1B_2 O4 1_555 1_555
O4 Ba1A 1_555 1_555

#END
