
#######################################################################
#
#                 Cambridge Crystallographic Data Centre
#                                CCDC 
#
#######################################################################
#
# If this CIF has been generated from an entry in the Cambridge 
# Structural Database, then it will include bibliographic, chemical, 
# crystal, experimental, refinement or atomic coordinate data resulting 
# from the CCDC's data processing and validation procedures.
#
#######################################################################

data_AGOKAK
_symmetry_cell_setting           triclinic
_symmetry_space_group_name_H-M   'P -1'
_symmetry_Int_Tables_number      2
_space_group_name_Hall           '-P 1'
loop_
_symmetry_equiv_pos_site_id
_symmetry_equiv_pos_as_xyz
1 x,y,z
2 -x,-y,-z
_cell_length_a                   9.361(3)
_cell_length_b                   10.108(3)
_cell_length_c                   11.470(4)
_cell_angle_alpha                95.845(12)
_cell_angle_beta                 112.739(10)
_cell_angle_gamma                97.487(12)
_cell_volume                     978.57
loop_
_atom_site_label
_atom_site_type_symbol
_atom_site_fract_x
_atom_site_fract_y
_atom_site_fract_z
Zn1 Zn 0.41174(5) 0.50202(4) 0.28759(4)
O1 O 0.5417(3) 0.3742(3) 0.3757(3)
N1 N 0.2131(4) 0.4767(3) 0.3183(3)
C1 C 0.4821(5) 0.2512(4) 0.3295(4)
N2 N 0.1867(4) 0.4042(3) 0.4021(3)
H1 H 0.2572 0.3700 0.4576
O2 O 0.3528(4) 0.2133(3) 0.2385(4)
C2 C 0.5755(5) 0.1460(4) 0.3880(4)
C3 C 0.0753(5) 0.5097(5) 0.2517(4)
H2 H 0.0581 0.5609 0.1862
C4 C 0.5056(5) 0.0097(4) 0.3408(4)
H3 H 0.4041 -0.0125 0.2767
C5 C 0.7206(5) 0.1821(4) 0.4851(4)
H4 H 0.7650 0.2729 0.5176
C6 C -0.0384(5) 0.4589(5) 0.2911(4)
C7 C 0.0389(5) 0.3920(5) 0.3883(4)
H5 H -0.0052 0.3460 0.4361
C8 C 0.8032(6) 0.0798(5) 0.5362(5)
N3 N 1.0227(6) 0.0300(6) 0.6832(6)
N4 N 0.9550(7) 0.1214(5) 0.6309(6)
N5 N 1.0964(8) -0.0435(7) 0.7306(7)
C9 C 0.5842(5) -0.0916(4) 0.3874(4)
C10 C 0.7345(6) -0.0586(5) 0.4874(5)
H6 H 0.7884 -0.1262 0.5214
C11 C 0.5027(5) -0.2360(4) 0.3362(4)
O3 O 0.5770(3) -0.3297(3) 0.3829(3)
O4 O 0.3670(4) -0.2631(3) 0.2525(3)
C12 C -0.2111(6) 0.4734(7) 0.2410(5)
H7 H -0.2759 0.3859 0.2295
H8 H -0.2264 0.5347 0.3042
C13 C -0.2644(5) 0.5263(6) 0.1153(4)
C14 C -0.3107(5) 0.4550(5) -0.0060(4)
H9 H -0.3157 0.3622 -0.0239
C15 C -0.2736(7) 0.6546(6) 0.0958(5)
H10 H -0.2493 0.7289 0.1595
N6 N -0.3475(4) 0.5346(3) -0.0947(3)
N7 N -0.3230(5) 0.6583(4) -0.0293(4)
H11 H -0.3371 0.7303 -0.0631
Zn1_2 Zn 0.41174(5) -0.49798(4) 0.28759(4)
Zn1A Zn -0.41174(5) 0.49798(4) -0.28759(4)
O3_2 O 0.5770(3) 0.6703(3) 0.3829(3)
O4_2 O 0.3670(4) 0.7369(3) 0.2525(3)
N6A N 0.3475(4) 0.4654(3) 0.0947(3)
C16 C 0.0250(15) 0.801(2) -0.0048(16)
O5 O 0.1579(19) 0.8575(12) 0.0649(14)
C17? C 0.627(2) 0.9398(14) -0.0044(16)
O6? O 0.5000 1.0000 0.0000
loop_
_geom_bond_atom_site_label_1
_geom_bond_atom_site_label_2
_geom_bond_site_symmetry_1
_geom_bond_site_symmetry_2
Zn1 O1 1_555 1_555
O1 C1 1_555 1_555
N1 Zn1 1_555 1_555
C1 O2 1_555 1_555
N2 N1 1_555 1_555
H1 N2 1_555 1_555
C2 C1 1_555 1_555
C3 N1 1_555 1_555
H2 C3 1_555 1_555
C4 C2 1_555 1_555
H3 C4 1_555 1_555
C5 C2 1_555 1_555
H4 C5 1_555 1_555
C6 C3 1_555 1_555
C7 N2 1_555 1_555
H5 C7 1_555 1_555
C8 C5 1_555 1_555
N3 N4 1_555 1_555
N4 C8 1_555 1_555
N5 N3 1_555 1_555
C9 C4 1_555 1_555
C10 C8 1_555 1_555
H6 C10 1_555 1_555
C11 C9 1_555 1_555
O3 C11 1_555 1_555
O4 C11 1_555 1_555
C12 C6 1_555 1_555
H7 C12 1_555 1_555
H8 C12 1_555 1_555
C13 C12 1_555 1_555
C14 C13 1_555 1_555
H9 C14 1_555 1_555
C15 C13 1_555 1_555
H10 C15 1_555 1_555
N6 C14 1_555 1_555
N7 C15 1_555 1_555
H11 N7 1_555 1_555
C16 O5 1_555 1_555
Zn1_2 O3 1_555 1_555
Zn1A N6 1_555 1_555
O3_2 Zn1 1_555 1_555
O4_2 Zn1 1_555 1_555
N6A Zn1 1_555 1_555
C6 C7 1_555 1_555
C9 C10 1_555 1_555
O4 Zn1_2 1_555 1_555
N6 N7 1_555 1_555

#END
