
#######################################################################
#
#                 Cambridge Crystallographic Data Centre
#                                CCDC 
#
#######################################################################
#
# If this CIF has been generated from an entry in the Cambridge 
# Structural Database, then it will include bibliographic, chemical, 
# crystal, experimental, refinement or atomic coordinate data resulting 
# from the CCDC's data processing and validation procedures.
#
#######################################################################

data_AGOMOZ
_symmetry_cell_setting           orthorhombic
_symmetry_space_group_name_H-M   'P 21 21 21'
_symmetry_Int_Tables_number      19
_space_group_name_Hall           'P 2ac 2ab'
loop_
_symmetry_equiv_pos_site_id
_symmetry_equiv_pos_as_xyz
1 x,y,z
2 1/2-x,-y,1/2+z
3 -x,1/2+y,1/2-z
4 1/2+x,1/2-y,-z
_cell_length_a                   7.6131(5)
_cell_length_b                   10.1340(8)
_cell_length_c                   24.0627(17)
_cell_angle_alpha                90
_cell_angle_beta                 90
_cell_angle_gamma                90
_cell_volume                     1856.47
loop_
_atom_site_label
_atom_site_type_symbol
_atom_site_fract_x
_atom_site_fract_y
_atom_site_fract_z
Cd1 Cd 1.01122(4) 0.45510(3) -0.161418(12)
O1 O 1.4733(4) -0.0016(3) -0.22275(14)
H1 H 1.4623 0.0509 -0.1971
O2 O 1.3142(4) -0.0714(3) -0.29406(14)
O3 O 1.2642(5) 0.3233(4) -0.12268(15)
O4 O 1.4415(4) 0.1567(4) -0.14497(15)
N1 N 1.2139(5) 0.6152(4) -0.13056(16)
N2 N 1.4624(5) 0.7259(4) -0.13484(16)
N3 N 2.1425(5) 1.0946(4) 0.02308(16)
N4 N 2.3495(5) 1.0539(4) 0.08416(15)
N5 N 1.0364(5) 0.2639(4) -0.20684(15)
N6 N 1.0425(5) 0.1005(4) -0.27017(15)
C1 C 1.3356(7) 0.8137(6) -0.1189(3)
H2 H 1.355(7) 0.898(6) -0.111(2)
C2 C 1.1853(6) 0.7445(5) -0.1161(2)
H3 H 1.0771 0.7793 -0.1058
C3 C 1.3824(6) 0.6091(5) -0.1419(2)
H4 H 1.432(6) 0.530(5) -0.1559(18)
C4 C 1.6472(6) 0.7559(6) -0.1483(2)
H5 H 1.703(7) 0.665(6) -0.145(2)
H6 H 1.652(7) 0.792(5) -0.188(2)
C5 C 1.7287(6) 0.8544(5) -0.1092(2)
C6 C 1.7930(6) 0.9725(6) -0.1294(2)
H7 H 1.778(6) 0.987(5) -0.1685(19)
C7 C 1.8747(6) 1.0629(5) -0.0949(2)
H8 H 1.918(6) 1.144(5) -0.109(2)
C8 C 1.8950(5) 1.0372(6) -0.03879(19)
C9 C 1.8319(6) 0.9181(5) -0.0181(2)
H9 H 1.8446 0.8989 0.0195
C10 C 1.7503(7) 0.8279(6) -0.0528(2)
H10 H 1.711(6) 0.747(5) -0.0398(19)
C11 C 1.9778(7) 1.1397(5) -0.0007(2)
H11 H 2.001(8) 1.228(5) -0.0217(18)
H12 H 1.894(8) 1.151(7) 0.031(3)
C12 C 2.2797(7) 1.0392(6) -0.0052(2)
H13 H 2.280(7) 1.031(6) -0.045(2)
C13 C 2.4047(7) 1.0140(6) 0.0326(2)
H14 H 2.510(7) 0.981(5) 0.0288(19)
C14 C 2.1905(6) 1.1019(5) 0.0771(2)
H15 H 2.122(6) 1.138(5) 0.105(2)
C15 C 0.9568(6) 0.2043(5) -0.2495(2)
H16 H 0.860(8) 0.235(6) -0.263(2)
C16 C 1.1925(6) 0.0927(4) -0.23828(18)
C17 C 1.1881(6) 0.1935(4) -0.19950(18)
C18 C 1.3309(6) -0.0013(5) -0.25298(19)
C19 C 1.3053(6) 0.2281(5) -0.1526(2)
Cd1C Cd 2.51122(4) 1.04490(3) 0.161418(12)
Cd1B Cd 0.98878(4) -0.04490(3) -0.338582(12)
N4C N 0.8495(5) 0.4461(4) -0.08416(15)
N6B N 0.9575(5) 0.6005(4) -0.22983(15)
loop_
_geom_bond_atom_site_label_1
_geom_bond_atom_site_label_2
_geom_bond_site_symmetry_1
_geom_bond_site_symmetry_2
Cd1 O3 1_555 1_555
O1 H1 1_555 1_555
O2 C18 1_555 1_555
O3 C19 1_555 1_555
O4 C19 1_555 1_555
N1 Cd1 1_555 1_555
N2 C1 1_555 1_555
N3 C11 1_555 1_555
N4 C13 1_555 1_555
N5 Cd1 1_555 1_555
N6 C15 1_555 1_555
C1 H2 1_555 1_555
C2 N1 1_555 1_555
H3 C2 1_555 1_555
C3 N1 1_555 1_555
H4 C3 1_555 1_555
C4 N2 1_555 1_555
H5 C4 1_555 1_555
H6 C4 1_555 1_555
C5 C4 1_555 1_555
C6 C5 1_555 1_555
H7 C6 1_555 1_555
C7 C6 1_555 1_555
H8 C7 1_555 1_555
C8 C7 1_555 1_555
C9 C8 1_555 1_555
H9 C9 1_555 1_555
C10 C5 1_555 1_555
H10 C10 1_555 1_555
C11 C8 1_555 1_555
H11 C11 1_555 1_555
H12 C11 1_555 1_555
C12 N3 1_555 1_555
H13 C12 1_555 1_555
C13 C12 1_555 1_555
H14 C13 1_555 1_555
C14 N3 1_555 1_555
H15 C14 1_555 1_555
C15 N5 1_555 1_555
H16 C15 1_555 1_555
C16 N6 1_555 1_555
C17 N5 1_555 1_555
C18 O1 1_555 1_555
C19 C17 1_555 1_555
Cd1C N4 1_555 1_555
Cd1B N6 1_555 1_555
N4C Cd1 1_555 1_555
N6B Cd1 1_555 1_555
N2 C3 1_555 1_555
N4 C14 1_555 1_555
C1 C2 1_555 1_555
C9 C10 1_555 1_555
C16 C17 1_555 1_555
C16 C18 1_555 1_555

#END
