
#######################################################################
#
#                 Cambridge Crystallographic Data Centre
#                                CCDC 
#
#######################################################################
#
# If this CIF has been generated from an entry in the Cambridge 
# Structural Database, then it will include bibliographic, chemical, 
# crystal, experimental, refinement or atomic coordinate data resulting 
# from the CCDC's data processing and validation procedures.
#
#######################################################################

data_AGOMUF
_symmetry_cell_setting           triclinic
_symmetry_space_group_name_H-M   'P -1'
_symmetry_Int_Tables_number      2
_space_group_name_Hall           '-P 1'
loop_
_symmetry_equiv_pos_site_id
_symmetry_equiv_pos_as_xyz
1 x,y,z
2 -x,-y,-z
_cell_length_a                   9.963(3)
_cell_length_b                   12.423(4)
_cell_length_c                   12.623(4)
_cell_angle_alpha                95.171(4)
_cell_angle_beta                 106.268(5)
_cell_angle_gamma                95.328(2)
_cell_volume                     1482.25
loop_
_atom_site_label
_atom_site_type_symbol
_atom_site_fract_x
_atom_site_fract_y
_atom_site_fract_z
Cd1 Cd 0.779662(16) 1.804546(14) 0.881591(13)
Cd2 Cd 1.598000(15) 1.608510(13) 1.627190(12)
O1 O 0.88571(18) 1.72998(16) 1.02996(14)
O2 O 1.0398(2) 1.85756(16) 1.00636(15)
O3 O 1.50980(19) 1.73107(16) 1.49869(14)
O4 O 1.38733(19) 1.56953(15) 1.47451(14)
O5 O 0.55272(17) 1.75524(14) 0.75154(14)
O6 O 0.55921(18) 1.75204(16) 0.92650(14)
O7 O -0.17901(18) 1.64758(15) 0.76718(17)
O8 O -0.18392(18) 1.64534(18) 0.59188(16)
O9 O 0.7537(2) 1.97546(18) 0.9725(2)
H1 H 0.817(4) 2.030(3) 0.974(3)
H2 H 0.737(6) 1.978(4) 1.025(4)
N1 N 0.4956(2) 1.49946(16) 0.27262(16)
N2 N 0.6447(2) 1.62268(16) 0.23717(17)
N3 N 0.7982(3) 1.98971(18) 0.60765(17)
N4 N 0.8330(2) 1.90026(17) 0.75250(16)
C1 C 1.0077(3) 1.7820(2) 1.05780(19)
C2 C 1.1149(2) 1.7489(2) 1.15507(18)
C3 C 1.0811(3) 1.6593(2) 1.2047(2)
H3 H 0.996(3) 1.619(2) 1.175(2)
C4 C 1.1755(3) 1.6310(2) 1.2979(2)
H4 H 1.153(3) 1.571(3) 1.332(2)
C5 C 1.3066(2) 1.69228(19) 1.34255(18)
C6 C 1.3435(3) 1.7803(2) 1.2917(2)
H5 H 1.430(3) 1.824(2) 1.322(2)
C7 C 1.2477(3) 1.8084(2) 1.1981(2)
H6 H 1.275(3) 1.869(3) 1.172(3)
C8 C 1.4079(2) 1.6632(2) 1.44446(18)
C9 C 0.4918(2) 1.74040(18) 0.82643(19)
C10 C 0.3344(2) 1.71068(18) 0.79069(19)
C11 C 0.2577(2) 1.7021(2) 0.6796(2)
H7 H 0.306(3) 1.711(2) 0.624(2)
C12 C 0.1129(3) 1.6817(2) 0.6471(2)
H8 H 0.057(3) 1.676(2) 0.572(3)
C13 C 0.0412(2) 1.6688(2) 0.7263(2)
C14 C 0.1178(3) 1.6723(2) 0.8364(2)
H9 H 0.064(3) 1.663(2) 0.891(2)
C15 C 0.2631(3) 1.6943(2) 0.8690(2)
H10 H 0.315(3) 1.696(2) 0.943(3)
C16 C -0.1171(2) 1.6533(2) 0.6920(2)
C17 C 0.4457(3) 1.5186(2) 0.1637(2)
H11 H 0.373(3) 1.480(2) 0.120(2)
C18 C 0.5362(3) 1.5932(2) 0.1400(2)
H12 H 0.541(3) 1.622(3) 0.078(3)
C19 C 0.6143(3) 1.56436(19) 0.3132(2)
H13 H 0.679(3) 1.574(2) 0.391(3)
C20 C 0.7609(3) 1.7106(2) 0.2574(3)
H14 H 0.788(3) 1.707(2) 0.193(2)
H15 H 0.832(3) 1.698(2) 0.321(2)
C21 C 0.7146(3) 1.8207(2) 0.2766(2)
C22 C 0.7403(3) 1.8736(2) 0.3838(2)
H16 H 0.793(3) 1.839(2) 0.449(2)
C23 C 0.6969(3) 1.9751(2) 0.3999(2)
C24 C 0.6240(3) 2.0224(2) 0.3087(2)
H17 H 0.590(3) 2.090(2) 0.320(2)
C25 C 0.5962(3) 1.9691(2) 0.2029(2)
H18 H 0.552(4) 2.002(3) 0.141(3)
C26 C 0.6436(3) 1.8697(2) 0.1861(2)
H19 H 0.623(3) 1.832(2) 0.113(3)
C27 C 0.7242(4) 2.0405(2) 0.5118(2)
H20 H 0.6344 2.0564 0.5211
H21 H 0.7786 2.1094 0.5118
C28 C 0.9383(4) 2.0046(3) 0.6593(3)
H22 H 1.004(5) 2.041(3) 0.635(3)
C29 C 0.9596(3) 1.9487(3) 0.7480(3)
H23 H 1.0466 1.9440 0.7981
C30 C 0.7394(3) 1.9262(2) 0.6663(2)
H24 H 0.641(3) 1.908(2) 0.647(2)
Cd1_2 Cd -0.220338(16) 1.804546(14) 0.881591(13)
Cd2A Cd 1.402000(15) 1.391490(13) 1.372810(12)
Cd2_2 Cd 0.598000(15) 1.608510(13) 0.627190(12)
Cd2_3 Cd -0.402000(15) 1.608510(13) 0.627190(12)
Cd2A_2 Cd 0.402000(15) 1.391490(13) 0.372810(12)
O4A O 1.61267(19) 1.43047(15) 1.52549(14)
O5_2 O 1.55272(17) 1.75524(14) 1.75154(14)
O7_2 O 0.82099(18) 1.64758(15) 0.76718(17)
O7_3 O 1.82099(18) 1.64758(15) 1.76718(17)
O8_2 O 1.81608(18) 1.64534(18) 1.59188(16)
N1A N 1.5044(2) 1.50054(16) 1.72738(16)
loop_
_geom_bond_atom_site_label_1
_geom_bond_atom_site_label_2
_geom_bond_site_symmetry_1
_geom_bond_site_symmetry_2
Cd1 O1 1_555 1_555
Cd2 O3 1_555 1_555
O1 C1 1_555 1_555
O2 Cd1 1_555 1_555
O3 C8 1_555 1_555
O4 Cd2 1_555 1_555
O5 Cd1 1_555 1_555
O6 Cd1 1_555 1_555
O7 C16 1_555 1_555
O8 C16 1_555 1_555
O9 Cd1 1_555 1_555
H1 O9 1_555 1_555
H2 O9 1_555 1_555
N1 C17 1_555 1_555
N2 C18 1_555 1_555
N3 C27 1_555 1_555
N4 Cd1 1_555 1_555
C1 O2 1_555 1_555
C2 C1 1_555 1_555
C3 C2 1_555 1_555
H3 C3 1_555 1_555
C4 C3 1_555 1_555
H4 C4 1_555 1_555
C5 C4 1_555 1_555
C6 C5 1_555 1_555
H5 C6 1_555 1_555
C7 C2 1_555 1_555
H6 C7 1_555 1_555
C8 O4 1_555 1_555
C9 O5 1_555 1_555
C10 C9 1_555 1_555
C11 C10 1_555 1_555
H7 C11 1_555 1_555
C12 C11 1_555 1_555
H8 C12 1_555 1_555
C13 C12 1_555 1_555
C14 C13 1_555 1_555
H9 C14 1_555 1_555
C15 C10 1_555 1_555
H10 C15 1_555 1_555
C16 C13 1_555 1_555
C17 H11 1_555 1_555
C18 C17 1_555 1_555
H12 C18 1_555 1_555
C19 N1 1_555 1_555
H13 C19 1_555 1_555
C20 N2 1_555 1_555
H14 C20 1_555 1_555
H15 C20 1_555 1_555
C21 C20 1_555 1_555
C22 C21 1_555 1_555
H16 C22 1_555 1_555
C23 C22 1_555 1_555
C24 C23 1_555 1_555
H17 C24 1_555 1_555
C25 C24 1_555 1_555
H18 C25 1_555 1_555
C26 C21 1_555 1_555
H19 C26 1_555 1_555
C27 C23 1_555 1_555
H20 C27 1_555 1_555
H21 C27 1_555 1_555
C28 N3 1_555 1_555
H22 C28 1_555 1_555
C29 N4 1_555 1_555
H23 C29 1_555 1_555
C30 N3 1_555 1_555
H24 C30 1_555 1_555
Cd1_2 O7 1_555 1_555
Cd2A O4 1_555 1_555
Cd2_2 O5 1_555 1_555
Cd2_3 O7 1_555 1_555
Cd2A_2 N1 1_555 1_555
O4A Cd2 1_555 1_555
O5_2 Cd2 1_555 1_555
O7_2 Cd1 1_555 1_555
O7_3 Cd2 1_555 1_555
O8_2 Cd2 1_555 1_555
N1A Cd2 1_555 1_555
O6 C9 1_555 1_555
O8 Cd2_3 1_555 1_555
N2 C19 1_555 1_555
N4 C30 1_555 1_555
C5 C8 1_555 1_555
C6 C7 1_555 1_555
C14 C15 1_555 1_555
C25 C26 1_555 1_555
C28 C29 1_555 1_555
Cd2A O4A 1_555 1_555
Cd2_2 O7_2 1_555 1_555

#END
