
#######################################################################
#
#                 Cambridge Crystallographic Data Centre
#                                CCDC 
#
#######################################################################
#
# If this CIF has been generated from an entry in the Cambridge 
# Structural Database, then it will include bibliographic, chemical, 
# crystal, experimental, refinement or atomic coordinate data resulting 
# from the CCDC's data processing and validation procedures.
#
#######################################################################

data_AGONIT
_symmetry_cell_setting           triclinic
_symmetry_space_group_name_H-M   'P -1'
_symmetry_Int_Tables_number      2
_space_group_name_Hall           '-P 1'
loop_
_symmetry_equiv_pos_site_id
_symmetry_equiv_pos_as_xyz
1 x,y,z
2 -x,-y,-z
_cell_length_a                   8.472(3)
_cell_length_b                   10.446(3)
_cell_length_c                   11.821(4)
_cell_angle_alpha                114.830(6)
_cell_angle_beta                 90.847(6)
_cell_angle_gamma                108.264(6)
_cell_volume                     888.502
loop_
_atom_site_label
_atom_site_type_symbol
_atom_site_fract_x
_atom_site_fract_y
_atom_site_fract_z
N1 N -0.0330(3) -0.1845(3) 0.4544(2)
C1 C -0.2935(4) -0.1680(3) 0.6900(3)
Li1 Li 0.1535(6) 0.0149(6) 0.4939(5)
N2 N -0.1760(3) -0.1204(3) 0.6202(2)
C2 C -0.2758(5) -0.0798(4) 0.8186(3)
H1 H -0.170(4) 0.008(4) 0.859(3)
N3 N 0.3635(4) 0.0709(4) 0.6197(3)
C3 C -0.3896(5) -0.1215(4) 0.8891(3)
H2 H -0.376(4) -0.056(4) 0.982(3)
C4 C -0.5304(5) -0.2528(4) 0.8351(3)
C5 C -0.5499(5) -0.3383(4) 0.7071(4)
H3 H -0.646(4) -0.431(4) 0.664(3)
C6 C -0.4368(5) -0.2987(4) 0.6342(4)
H4 H -0.456(4) -0.359(4) 0.545(3)
C7 C -0.6518(6) -0.2989(5) 0.9141(4)
H5 H -0.6359 -0.3813 0.9234
H6 H -0.6317 -0.2152 0.9960
H7 H -0.7653 -0.3297 0.8735
C8 C 0.0219(4) -0.2937(3) 0.3647(3)
C9 C 0.0626(5) -0.4028(4) 0.3847(4)
H8 H 0.047(4) -0.400(4) 0.468(3)
C10 C 0.1207(5) -0.5024(5) 0.2927(4)
H9 H 0.131(5) -0.581(5) 0.302(4)
C11 C 0.1434(4) -0.4991(4) 0.1787(3)
C12 C 0.1086(4) -0.3881(4) 0.1614(3)
H10 H 0.130(4) -0.384(3) 0.082(3)
C13 C 0.0495(4) -0.2875(4) 0.2516(3)
H11 H 0.022(3) -0.213(3) 0.234(2)
C14 C 0.2074(6) -0.6094(5) 0.0786(4)
H12 H 0.2174 -0.5873 0.0074
H13 H 0.3157 -0.6007 0.1129
H14 H 0.1296 -0.7101 0.0520
C15 C -0.1279(4) -0.2202(4) 0.5325(3)
H15 H -0.165(3) -0.328(3) 0.525(2)
C16 C 0.5063(6) 0.0478(8) 0.5594(4)
H16 H 0.5788 0.1457 0.5692
H17 H 0.5679 0.0201 0.6098
C17 C 0.3140(6) -0.0157(6) 0.6909(4)
H18 H 0.2793 -0.1213 0.6343
H19 H 0.2221 0.0054 0.7322
H20 H 0.4080 0.0115 0.7531
C18 C 0.4095(6) 0.2303(6) 0.7080(4)
H21 H 0.3177 0.2456 0.7522
H22 H 0.4332 0.2894 0.6621
H23 H 0.5078 0.2607 0.7678
C16A C 0.4937(6) -0.0478(8) 0.4406(4)
N3A N 0.6365(4) -0.0709(4) 0.3803(3)
C17A C 0.6860(6) 0.0157(6) 0.3091(4)
H18A H 0.7207 0.1213 0.3657
H19A H 0.7779 -0.0054 0.2678
H20A H 0.5920 -0.0115 0.2469
C18A C 0.5905(6) -0.2303(6) 0.2920(4)
H21A H 0.6823 -0.2456 0.2478
H22A H 0.5668 -0.2894 0.3379
H23A H 0.4922 -0.2607 0.2322
H16A H 0.4212 -0.1457 0.4308
H17A H 0.4321 -0.0201 0.3902
N1A N 0.0330(3) 0.1845(3) 0.5456(2)
C1A C 0.2935(4) 0.1680(3) 0.3100(3)
N2A N 0.1760(3) 0.1204(3) 0.3798(2)
C2A C 0.2758(5) 0.0798(4) 0.1814(3)
H1A H 0.170(4) -0.008(4) 0.141(3)
C3A C 0.3896(5) 0.1215(4) 0.1109(3)
H2A H 0.376(4) 0.056(4) 0.018(3)
C4A C 0.5304(5) 0.2528(4) 0.1649(3)
C5A C 0.5499(5) 0.3383(4) 0.2929(4)
H3A H 0.646(4) 0.431(4) 0.336(3)
C6A C 0.4368(5) 0.2987(4) 0.3658(4)
H4A H 0.456(4) 0.359(4) 0.455(3)
C7A C 0.6518(6) 0.2989(5) 0.0859(4)
H5A H 0.6359 0.3813 0.0766
H6A H 0.6317 0.2152 0.0040
H7A H 0.7653 0.3297 0.1265
C8A C -0.0219(4) 0.2937(3) 0.6353(3)
C9A C -0.0626(5) 0.4028(4) 0.6153(4)
H8A H -0.047(4) 0.400(4) 0.532(3)
C10A C -0.1207(5) 0.5024(5) 0.7073(4)
H9A H -0.131(5) 0.581(5) 0.698(4)
C11A C -0.1434(4) 0.4991(4) 0.8213(3)
C12A C -0.1086(4) 0.3881(4) 0.8386(3)
H10A H -0.130(4) 0.384(3) 0.918(3)
C13A C -0.0495(4) 0.2875(4) 0.7484(3)
H11A H -0.022(3) 0.213(3) 0.766(2)
C14A C -0.2074(6) 0.6094(5) 0.9214(4)
H12A H -0.2174 0.5873 0.9926
H13A H -0.3157 0.6007 0.8871
H14A H -0.1296 0.7101 0.9480
C15A C 0.1279(4) 0.2202(4) 0.4675(3)
H15A H 0.165(3) 0.328(3) 0.475(2)
Li1A Li -0.1535(6) -0.0149(6) 0.5061(5)
Li1A_2 Li 0.8465(6) -0.0149(6) 0.5061(5)
N3A_2 N -0.3635(4) -0.0709(4) 0.3803(3)
loop_
_geom_bond_atom_site_label_1
_geom_bond_atom_site_label_2
_geom_bond_site_symmetry_1
_geom_bond_site_symmetry_2
N1 Li1 1_555 1_555
C1 N2 1_555 1_555
Li1 N3 1_555 1_555
N2 C15 1_555 1_555
C2 C1 1_555 1_555
H1 C2 1_555 1_555
N3 C16 1_555 1_555
C3 C2 1_555 1_555
H2 C3 1_555 1_555
C4 C3 1_555 1_555
C5 C4 1_555 1_555
H3 C5 1_555 1_555
C6 C1 1_555 1_555
H4 C6 1_555 1_555
C7 C4 1_555 1_555
H5 C7 1_555 1_555
H6 C7 1_555 1_555
H7 C7 1_555 1_555
C8 N1 1_555 1_555
C9 C8 1_555 1_555
H8 C9 1_555 1_555
C10 C9 1_555 1_555
H9 C10 1_555 1_555
C11 C10 1_555 1_555
C12 C11 1_555 1_555
H10 C12 1_555 1_555
C13 C8 1_555 1_555
H11 C13 1_555 1_555
C14 C11 1_555 1_555
H12 C14 1_555 1_555
H13 C14 1_555 1_555
H14 C14 1_555 1_555
C15 N1 1_555 1_555
H15 C15 1_555 1_555
C16 H16 1_555 1_555
H17 C16 1_555 1_555
C17 N3 1_555 1_555
H18 C17 1_555 1_555
H19 C17 1_555 1_555
H20 C17 1_555 1_555
C18 N3 1_555 1_555
H21 C18 1_555 1_555
H22 C18 1_555 1_555
H23 C18 1_555 1_555
C16A C16 1_555 1_555
N3A C16A 1_555 1_555
C17A N3A 1_555 1_555
H18A C17A 1_555 1_555
H19A C17A 1_555 1_555
H20A C17A 1_555 1_555
C18A N3A 1_555 1_555
H21A C18A 1_555 1_555
H22A C18A 1_555 1_555
H23A C18A 1_555 1_555
H16A C16A 1_555 1_555
H17A C16A 1_555 1_555
N1A C8A 1_555 1_555
C1A N2A 1_555 1_555
N2A Li1 1_555 1_555
C2A C1A 1_555 1_555
H1A C2A 1_555 1_555
C3A C2A 1_555 1_555
H2A C3A 1_555 1_555
C4A C3A 1_555 1_555
C5A C4A 1_555 1_555
H3A C5A 1_555 1_555
C6A C1A 1_555 1_555
H4A C6A 1_555 1_555
C7A C4A 1_555 1_555
H5A C7A 1_555 1_555
H6A C7A 1_555 1_555
H7A C7A 1_555 1_555
C8A C9A 1_555 1_555
C9A H8A 1_555 1_555
C10A C9A 1_555 1_555
H9A C10A 1_555 1_555
C11A C10A 1_555 1_555
C12A C11A 1_555 1_555
H10A C12A 1_555 1_555
C13A C8A 1_555 1_555
H11A C13A 1_555 1_555
C14A C11A 1_555 1_555
H12A C14A 1_555 1_555
H13A C14A 1_555 1_555
H14A C14A 1_555 1_555
C15A N1A 1_555 1_555
H15A C15A 1_555 1_555
Li1A N2 1_555 1_555
Li1A_2 N3A 1_555 1_555
N3A_2 Li1A 1_555 1_555
C5 C6 1_555 1_555
C12 C13 1_555 1_555
N1A Li1A 1_555 1_555
N2A C15A 1_555 1_555
C5A C6A 1_555 1_555
C12A C13A 1_555 1_555

#END
