
#######################################################################
#
#                 Cambridge Crystallographic Data Centre
#                                CCDC 
#
#######################################################################
#
# If this CIF has been generated from an entry in the Cambridge 
# Structural Database, then it will include bibliographic, chemical, 
# crystal, experimental, refinement or atomic coordinate data resulting 
# from the CCDC's data processing and validation procedures.
#
#######################################################################

data_AGONIU
_symmetry_cell_setting           monoclinic
_symmetry_space_group_name_H-M   'P 21/n'
_symmetry_Int_Tables_number      14
_space_group_name_Hall           '-P 2yn'
loop_
_symmetry_equiv_pos_site_id
_symmetry_equiv_pos_as_xyz
1 x,y,z
2 1/2-x,1/2+y,1/2-z
3 -x,-y,-z
4 1/2+x,1/2-y,1/2+z
_cell_length_a                   10.8021(9)
_cell_length_b                   10.6244(7)
_cell_length_c                   15.2632(11)
_cell_angle_alpha                90
_cell_angle_beta                 97.072(4)
_cell_angle_gamma                90
_cell_volume                     1738.37
loop_
_atom_site_label
_atom_site_type_symbol
_atom_site_fract_x
_atom_site_fract_y
_atom_site_fract_z
Zn1 Zn 0.66480(3) 0.40516(3) 0.69986(2)
O1 O 0.9557(2) 0.4839(2) 0.75822(14)
O2 O 0.78646(19) 0.4020(2) 0.80753(13)
O3 O 0.8636(2) 0.7313(2) 0.83901(15)
O4 O 1.0535(2) 0.7971(2) 0.88886(17)
N1 N 0.7311(2) 0.5011(3) 0.60233(17)
N2 N 0.8261(2) 0.6578(3) 0.54495(17)
N3 N 1.3698(2) 0.6221(3) 0.76601(18)
N4 N 1.5404(2) 0.5205(3) 0.74514(18)
C1 C 0.7821(4) 0.4577(4) 0.5292(2)
H1 H 0.777(3) 0.369(4) 0.513(3)
C2 C 0.7604(3) 0.6216(3) 0.6087(2)
H2 H 0.739(3) 0.678(3) 0.653(2)
C3 C 0.8404(4) 0.5540(4) 0.4933(3)
H3 H 0.888(4) 0.556(4) 0.445(3)
C4 C 0.8800(3) 0.7832(3) 0.5368(3)
H4 H 0.869(3) 0.806(3) 0.478(2)
H5 H 0.834(3) 0.839(3) 0.568(2)
C5 C 1.0172(3) 0.7893(3) 0.5722(2)
C6 C 1.0953(3) 0.8692(3) 0.5327(2)
H6 H 1.067(3) 0.916(3) 0.480(2)
C7 C 1.2196(3) 0.8819(4) 0.5673(3)
H7 H 1.273(3) 0.941(4) 0.538(2)
C8 C 1.0648(3) 0.7193(3) 0.6457(2)
H8 H 1.011(3) 0.661(4) 0.673(2)
C9 C 1.1904(3) 0.7307(3) 0.6800(2)
C10 C 1.2663(3) 0.8128(4) 0.6408(2)
H9 H 1.351(4) 0.822(4) 0.663(2)
C11 C 1.2368(3) 0.6548(4) 0.7609(2)
H10 H 1.227(3) 0.699(3) 0.814(2)
H11 H 1.192(3) 0.574(3) 0.758(2)
C12 C 1.4172(3) 0.5209(3) 0.7303(2)
H12 H 1.368(3) 0.458(4) 0.698(2)
C13 C 1.5730(3) 0.6287(3) 0.7929(2)
H13 H 1.660(3) 0.652(3) 0.814(2)
C14 C 1.4685(3) 0.6927(4) 0.8052(2)
H14 H 1.460(3) 0.777(3) 0.833(2)
C15 C 0.9572(3) 0.3827(3) 0.97226(19)
H15 H 0.934(3) 0.304(3) 0.954(2)
C16 C 0.9877(2) 0.6018(3) 0.94119(18)
C17 C 0.9451(2) 0.4822(3) 0.91216(18)
C18 C 0.8932(3) 0.4571(3) 0.81755(19)
C19 C 0.9700(3) 0.7186(3) 0.88501(19)
Zn1B Zn 1.33520(3) 0.59484(3) 1.30014(2)
Zn1A Zn 0.83520(3) 0.90516(3) 0.80014(2)
Zn1_2 Zn 1.66480(3) 0.40516(3) 0.69986(2)
Zn1C Zn 1.16480(3) 0.09484(3) 1.19986(2)
Zn1_3 Zn -0.33520(3) 0.40516(3) 0.69986(2)
O1B O 1.0443(2) 0.5161(2) 1.24178(14)
O2B O 1.21354(19) 0.5980(2) 1.19247(13)
O3B O 1.1364(2) 0.2687(2) 1.16099(15)
O3A O 0.6364(2) 0.2313(2) 0.66099(15)
O3C O 1.3636(2) 0.7687(2) 1.33901(15)
O4B O 0.9465(2) 0.2029(2) 1.11114(17)
N1_2 N -0.2689(2) 0.5011(3) 0.60233(17)
N1B N 1.2689(2) 0.4989(3) 1.39767(17)
N2_2 N -0.1739(2) 0.6578(3) 0.54495(17)
N3_2 N 0.3698(2) 0.6221(3) 0.76601(18)
N4_2 N 0.5404(2) 0.5205(3) 0.74514(18)
N4B N 1.4596(2) 0.4795(3) 1.25486(18)
C1_2 C -0.2179(4) 0.4577(4) 0.5292(2)
H1_2 H -0.223(3) 0.369(4) 0.513(3)
C2_2 C -0.2396(3) 0.6216(3) 0.6087(2)
H2_2 H -0.261(3) 0.678(3) 0.653(2)
C3_2 C -0.1596(4) 0.5540(4) 0.4933(3)
H3_2 H -0.112(4) 0.556(4) 0.445(3)
C4_2 C -0.1200(3) 0.7832(3) 0.5368(3)
H4_2 H -0.131(3) 0.806(3) 0.478(2)
H5_2 H -0.166(3) 0.839(3) 0.568(2)
C5_2 C 0.0172(3) 0.7893(3) 0.5722(2)
C6_2 C 0.0953(3) 0.8692(3) 0.5327(2)
H6_2 H 0.067(3) 0.916(3) 0.480(2)
C7_2 C 0.2196(3) 0.8819(4) 0.5673(3)
H7_2 H 0.273(3) 0.941(4) 0.538(2)
C8_2 C 0.0648(3) 0.7193(3) 0.6457(2)
H8_2 H 0.011(3) 0.661(4) 0.673(2)
C9_2 C 0.1904(3) 0.7307(3) 0.6800(2)
C10_2 C 0.2663(3) 0.8128(4) 0.6408(2)
H9_2 H 0.351(4) 0.822(4) 0.663(2)
C11_2 C 0.2368(3) 0.6548(4) 0.7609(2)
H10_2 H 0.227(3) 0.699(3) 0.814(2)
H11_2 H 0.192(3) 0.574(3) 0.758(2)
C12_2 C 0.4172(3) 0.5209(3) 0.7303(2)
H12_2 H 0.368(3) 0.458(4) 0.698(2)
C13_2 C 0.5730(3) 0.6287(3) 0.7929(2)
H13_2 H 0.660(3) 0.652(3) 0.814(2)
C14_2 C 0.4685(3) 0.6927(4) 0.8052(2)
H14_2 H 0.460(3) 0.777(3) 0.833(2)
C15B C 1.0428(3) 0.6173(3) 1.02774(19)
H15B H 1.066(3) 0.696(3) 1.046(2)
C16B C 1.0123(2) 0.3982(3) 1.05881(18)
C17B C 1.0549(2) 0.5178(3) 1.08784(18)
C18B C 1.1068(3) 0.5429(3) 1.18245(19)
C19B C 1.0300(3) 0.2814(3) 1.11499(19)
loop_
_geom_bond_atom_site_label_1
_geom_bond_atom_site_label_2
_geom_bond_site_symmetry_1
_geom_bond_site_symmetry_2
Zn1 O2 1_555 1_555
O1 C18 1_555 1_555
O2 C18 1_555 1_555
O3 C19 1_555 1_555
O4 C19 1_555 1_555
N1 Zn1 1_555 1_555
N2 C2 1_555 1_555
N3 C11 1_555 1_555
N4 C12 1_555 1_555
C1 N1 1_555 1_555
H1 C1 1_555 1_555
C2 N1 1_555 1_555
H2 C2 1_555 1_555
C3 N2 1_555 1_555
H3 C3 1_555 1_555
C4 N2 1_555 1_555
H4 C4 1_555 1_555
H5 C4 1_555 1_555
C5 C4 1_555 1_555
C6 C5 1_555 1_555
H6 C6 1_555 1_555
C7 C6 1_555 1_555
H7 C7 1_555 1_555
C8 C5 1_555 1_555
H8 C8 1_555 1_555
C9 C8 1_555 1_555
C10 C7 1_555 1_555
H9 C10 1_555 1_555
C11 C9 1_555 1_555
H10 C11 1_555 1_555
H11 C11 1_555 1_555
C12 N3 1_555 1_555
H12 C12 1_555 1_555
C13 N4 1_555 1_555
H13 C13 1_555 1_555
C14 N3 1_555 1_555
H14 C14 1_555 1_555
C15 H15 1_555 1_555
C16 C17 1_555 1_555
C17 C15 1_555 1_555
C18 C17 1_555 1_555
C19 C16 1_555 1_555
Zn1B O2B 1_555 1_555
Zn1A O3 1_555 1_555
Zn1_2 N4 1_555 1_555
Zn1C O3B 1_555 1_555
Zn1_3 N1_2 1_555 1_555
O1B C18B 1_555 1_555
O2B C18B 1_555 1_555
O3B C19B 1_555 1_555
O3A Zn1 1_555 1_555
O3C Zn1B 1_555 1_555
O4B C19B 1_555 1_555
N1_2 C1_2 1_555 1_555
N1B Zn1B 1_555 1_555
N2_2 C2_2 1_555 1_555
N3_2 C11_2 1_555 1_555
N4_2 Zn1 1_555 1_555
N4B Zn1B 1_555 1_555
C1_2 H1_2 1_555 1_555
C2_2 N1_2 1_555 1_555
H2_2 C2_2 1_555 1_555
C3_2 N2_2 1_555 1_555
H3_2 C3_2 1_555 1_555
C4_2 N2_2 1_555 1_555
H4_2 C4_2 1_555 1_555
H5_2 C4_2 1_555 1_555
C5_2 C4_2 1_555 1_555
C6_2 C5_2 1_555 1_555
H6_2 C6_2 1_555 1_555
C7_2 C6_2 1_555 1_555
H7_2 C7_2 1_555 1_555
C8_2 C5_2 1_555 1_555
H8_2 C8_2 1_555 1_555
C9_2 C8_2 1_555 1_555
C10_2 C7_2 1_555 1_555
H9_2 C10_2 1_555 1_555
C11_2 C9_2 1_555 1_555
H10_2 C11_2 1_555 1_555
H11_2 C11_2 1_555 1_555
C12_2 N3_2 1_555 1_555
H12_2 C12_2 1_555 1_555
C13_2 N4_2 1_555 1_555
H13_2 C13_2 1_555 1_555
C14_2 N3_2 1_555 1_555
H14_2 C14_2 1_555 1_555
C15B C16 1_555 1_555
H15B C15B 1_555 1_555
C16B C15 1_555 1_555
C17B C15B 1_555 1_555
C18B C17B 1_555 1_555
C19B C16B 1_555 1_555
C1 C3 1_555 1_555
C9 C10 1_555 1_555
C13 C14 1_555 1_555
N4_2 C12_2 1_555 1_555
C1_2 C3_2 1_555 1_555
C9_2 C10_2 1_555 1_555
C13_2 C14_2 1_555 1_555
C16B C17B 1_555 1_555

#END
