
#######################################################################
#
#                 Cambridge Crystallographic Data Centre
#                                CCDC 
#
#######################################################################
#
# If this CIF has been generated from an entry in the Cambridge 
# Structural Database, then it will include bibliographic, chemical, 
# crystal, experimental, refinement or atomic coordinate data resulting 
# from the CCDC's data processing and validation procedures.
#
#######################################################################

data_AGOPER
_symmetry_cell_setting           monoclinic
_symmetry_space_group_name_H-M   'C 2/c'
_symmetry_Int_Tables_number      15
_space_group_name_Hall           '-C 2yn'
loop_
_symmetry_equiv_pos_site_id
_symmetry_equiv_pos_as_xyz
1 x,y,z
2 1/2+x,1/2+y,z
3 x,-y,1/2+z
4 1/2+x,1/2-y,1/2+z
5 -x,-y,-z
6 1/2-x,1/2-y,-z
7 -x,y,1/2-z
8 1/2-x,1/2+y,1/2-z
_cell_length_a                   11.7906(2)
_cell_length_b                   20.4405(3)
_cell_length_c                   24.3496(8)
_cell_angle_alpha                90
_cell_angle_beta                 97.328(2)
_cell_angle_gamma                90
_cell_volume                     5820.46
loop_
_atom_site_label
_atom_site_type_symbol
_atom_site_fract_x
_atom_site_fract_y
_atom_site_fract_z
Mn1 Mn 1.0000 0.0000 0.5000
N1 N 0.9410(3) 0.16276(16) 0.37884(13)
N2 N 0.9633(3) 0.08909(17) 0.44579(14)
N3 N 1.2336(3) 0.40206(17) 0.38110(13)
N4 N 1.3597(3) 0.44086(17) 0.44818(14)
N5 N 0.7292(3) 0.42708(17) 0.38296(13)
N6 N 0.6370(3) 0.46326(18) 0.45035(13)
C1 C 0.9411(3) 0.26291(19) 0.32205(15)
C2 C 0.8434(3) 0.3028(2) 0.32261(15)
C3 C 0.8567(3) 0.3706(2) 0.32408(15)
C4 C 0.9646(3) 0.4001(2) 0.32578(15)
C5 C 1.0606(3) 0.3597(2) 0.32370(15)
C6 C 1.0498(3) 0.2915(2) 0.32291(15)
C7 C 0.9278(4) 0.1897(2) 0.32196(16)
H1 H 0.8513 0.1780 0.3029
H2 H 0.9859 0.1698 0.3011
C8 C 0.9640(3) 0.0994(2) 0.39194(16)
H3 H 0.9785 0.0666 0.3661
C9 C 0.9369(4) 0.1489(2) 0.46723(17)
H4 H 0.9292 0.1567 0.5050
C10 C 0.9236(4) 0.1946(2) 0.42697(17)
H5 H 0.9059 0.2396 0.4310
C11 C 0.7261(4) 0.2727(2) 0.3249(2)
H6 H 0.7348 0.2299 0.3431
H7 H 0.6870 0.2672 0.2872
H8 H 0.6809 0.3015 0.3458
C12 C 0.7526(3) 0.4140(2) 0.32506(15)
H9 H 0.7653 0.4560 0.3066
H10 H 0.6852 0.3925 0.3042
C13 C 1.3186(3) 0.4449(2) 0.39496(16)
H11 H 1.3461 0.4745 0.3697
C14 C 1.2196(4) 0.3672(2) 0.42809(17)
H12 H 1.1664 0.3330 0.4312
C15 C 1.2970(4) 0.3916(2) 0.46914(18)
H13 H 1.3066 0.3771 0.5065
C16 C 0.9802(4) 0.4728(2) 0.3308(2)
H14 H 0.9140 0.4921 0.3453
H15 H 0.9869 0.4914 0.2942
H16 H 1.0498 0.4824 0.3560
C17 C 1.1769(3) 0.3907(2) 0.32386(16)
H17 H 1.2255 0.3617 0.3041
H18 H 1.1685 0.4329 0.3038
C18 C 0.6304(3) 0.4503(2) 0.39655(16)
H19 H 0.5636 0.4567 0.3709
C19 C 0.7480(4) 0.4477(2) 0.47206(17)
H20 H 0.7788 0.4514 0.5099
C20 C 0.8061(4) 0.4262(3) 0.43057(18)
H21 H 0.8840 0.4132 0.4339
C21 C 1.1532(4) 0.2464(2) 0.32557(18)
H22 H 1.2233 0.2721 0.3346
H23 H 1.1543 0.2250 0.2896
H24 H 1.1486 0.2132 0.3542
N1D N 1.0590(3) -0.16276(16) 0.62116(13)
N2D N 1.0367(3) -0.08909(17) 0.55421(14)
N3D N 0.7664(3) -0.40206(17) 0.61890(13)
N4D N 0.6403(3) -0.44086(17) 0.55182(14)
N5D N 1.2708(3) -0.42708(17) 0.61704(13)
N6D N 1.3630(3) -0.46326(18) 0.54965(13)
C1D C 1.0589(3) -0.26291(19) 0.67795(15)
C2D C 1.1566(3) -0.3028(2) 0.67739(15)
C3D C 1.1433(3) -0.3706(2) 0.67592(15)
C4D C 1.0354(3) -0.4001(2) 0.67422(15)
C5D C 0.9394(3) -0.3597(2) 0.67630(15)
C6D C 0.9502(3) -0.2915(2) 0.67709(15)
C7D C 1.0722(4) -0.1897(2) 0.67804(16)
H1D H 1.1487 -0.1780 0.6971
H2D H 1.0141 -0.1698 0.6989
C8D C 1.0360(3) -0.0994(2) 0.60806(16)
H3D H 1.0215 -0.0666 0.6339
C9D C 1.0631(4) -0.1489(2) 0.53277(17)
H4D H 1.0708 -0.1567 0.4950
C10D C 1.0764(4) -0.1946(2) 0.57303(17)
H5D H 1.0941 -0.2396 0.5690
C11D C 1.2739(4) -0.2727(2) 0.6751(2)
H6D H 1.2652 -0.2299 0.6569
H7D H 1.3130 -0.2672 0.7128
H8D H 1.3191 -0.3015 0.6542
C12D C 1.2474(3) -0.4140(2) 0.67494(15)
H9D H 1.2347 -0.4560 0.6934
H10D H 1.3148 -0.3925 0.6958
C13D C 0.6814(3) -0.4449(2) 0.60504(16)
H11D H 0.6539 -0.4745 0.6303
C14D C 0.7804(4) -0.3672(2) 0.57191(17)
H12D H 0.8336 -0.3330 0.5688
C15D C 0.7030(4) -0.3916(2) 0.53086(18)
H13D H 0.6934 -0.3771 0.4935
C16D C 1.0198(4) -0.4728(2) 0.6692(2)
H14D H 1.0860 -0.4921 0.6547
H15D H 1.0131 -0.4914 0.7058
H16D H 0.9502 -0.4824 0.6440
C17D C 0.8231(3) -0.3907(2) 0.67614(16)
H17D H 0.7745 -0.3617 0.6959
H18D H 0.8315 -0.4329 0.6962
C18D C 1.3696(3) -0.4503(2) 0.60345(16)
H19D H 1.4364 -0.4567 0.6291
C19D C 1.2520(4) -0.4477(2) 0.52794(17)
H20D H 1.2212 -0.4514 0.4901
C20D C 1.1939(4) -0.4262(3) 0.56943(18)
H21D H 1.1160 -0.4132 0.5661
C21D C 0.8468(4) -0.2464(2) 0.67443(18)
H22D H 0.7767 -0.2721 0.6654
H23D H 0.8457 -0.2250 0.7104
H24D H 0.8514 -0.2132 0.6458
N4A N 0.8597(3) -0.05914(17) 0.44818(14)
N4E N 1.1403(3) 0.05914(17) 0.55182(14)
N6A N 1.1370(3) -0.03674(18) 0.45035(13)
N6E N 0.8630(3) 0.03674(18) 0.54965(13)
Mn1A Mn 1.5000 0.5000 0.5000
Mn1A_2 Mn 0.5000 0.5000 0.5000
Mn1A_3 Mn 0.5000 -0.5000 0.5000
Mn1A_4 Mn 1.5000 -0.5000 0.5000
S1 S 1.0000 0.02263(7) 0.2500
O1 O 0.9067(3) 0.06445(16) 0.22383(13)
O2 O 0.9548(3) -0.01881(15) 0.29204(12)
O1F O 1.0933(3) 0.06445(16) 0.27617(13)
O2F O 1.0452(3) -0.01881(15) 0.20796(12)
O3 O 1.2457(3) 0.08967(19) 0.36899(16)
O4 O 1.5000 0.1152(3) 0.2500
H25 H 1.4938 0.1461 0.2787
H25F H 1.5062 0.1461 0.2213
O5 O 1.4399(3) 0.16001(19) 0.35025(18)
H26 H 1.3799 0.1405 0.3640
H27 H 1.4532 0.2172 0.3531
O6 O 1.4676(3) 0.28577(18) 0.39864(14)
H28 H 1.5374 0.2653 0.4253
H29 H 1.4063 0.2934 0.4240
O7 O 1.4407(3) 0.34706(17) 0.29569(14)
O8 O 1.7203(3) 0.05922(19) 0.29276(15)
H30 H 1.6555 0.0783 0.2756
H31 H 1.7799 0.0617 0.2701
O9 O 0.6564(4) 0.2226(2) 0.46578(18)
O10 O 0.6571(3) 0.1089(2) 0.39643(16)
H32 H 0.6858 0.0870 0.3669
H33 H 0.5769 0.0918 0.3911
O11 O 0.5000 0.0000 0.5000
loop_
_geom_bond_atom_site_label_1
_geom_bond_atom_site_label_2
_geom_bond_site_symmetry_1
_geom_bond_site_symmetry_2
Mn1 N2 1_555 1_555
S1 O1 1_555 1_555
O2 S1 1_555 1_555
O4 H25 1_555 1_555
O5 H26 1_555 1_555
O6 H28 1_555 1_555
O8 H30 1_555 1_555
O10 H32 1_555 1_555
N1 C7 1_555 1_555
N2 C8 1_555 1_555
N3 C13 1_555 1_555
N4 C13 1_555 1_555
N5 C12 1_555 1_555
N6 C18 1_555 1_555
C1 C2 1_555 1_555
C2 C3 1_555 1_555
C3 C4 1_555 1_555
C4 C5 1_555 1_555
C5 C6 1_555 1_555
C6 C1 1_555 1_555
C7 C1 1_555 1_555
H1 C7 1_555 1_555
H2 C7 1_555 1_555
C8 N1 1_555 1_555
H3 C8 1_555 1_555
C9 N2 1_555 1_555
H4 C9 1_555 1_555
C10 N1 1_555 1_555
H5 C10 1_555 1_555
C11 C2 1_555 1_555
H6 C11 1_555 1_555
H7 C11 1_555 1_555
H8 C11 1_555 1_555
C12 C3 1_555 1_555
H9 C12 1_555 1_555
H10 C12 1_555 1_555
C13 H11 1_555 1_555
C14 N3 1_555 1_555
H12 C14 1_555 1_555
C15 N4 1_555 1_555
H13 C15 1_555 1_555
C16 C4 1_555 1_555
H14 C16 1_555 1_555
H15 C16 1_555 1_555
H16 C16 1_555 1_555
C17 N3 1_555 1_555
H17 C17 1_555 1_555
H18 C17 1_555 1_555
C18 N5 1_555 1_555
H19 C18 1_555 1_555
C19 N6 1_555 1_555
H20 C19 1_555 1_555
C20 N5 1_555 1_555
H21 C20 1_555 1_555
C21 C6 1_555 1_555
H22 C21 1_555 1_555
H23 C21 1_555 1_555
H24 C21 1_555 1_555
H27 O5 1_555 1_555
H29 O6 1_555 1_555
H31 O8 1_555 1_555
H33 O10 1_555 1_555
O1F S1 1_555 1_555
O2F S1 1_555 1_555
H25F O4 1_555 1_555
N1D C7D 1_555 1_555
N2D Mn1 1_555 1_555
N3D C13D 1_555 1_555
N4D C13D 1_555 1_555
N5D C12D 1_555 1_555
N6D C18D 1_555 1_555
C1D C2D 1_555 1_555
C2D C3D 1_555 1_555
C3D C4D 1_555 1_555
C4D C5D 1_555 1_555
C5D C6D 1_555 1_555
C6D C1D 1_555 1_555
C7D C1D 1_555 1_555
H1D C7D 1_555 1_555
H2D C7D 1_555 1_555
C8D N1D 1_555 1_555
H3D C8D 1_555 1_555
C9D N2D 1_555 1_555
H4D C9D 1_555 1_555
C10D N1D 1_555 1_555
H5D C10D 1_555 1_555
C11D C2D 1_555 1_555
H6D C11D 1_555 1_555
H7D C11D 1_555 1_555
H8D C11D 1_555 1_555
C12D C3D 1_555 1_555
H9D C12D 1_555 1_555
H10D C12D 1_555 1_555
C13D H11D 1_555 1_555
C14D N3D 1_555 1_555
H12D C14D 1_555 1_555
C15D N4D 1_555 1_555
H13D C15D 1_555 1_555
C16D C4D 1_555 1_555
H14D C16D 1_555 1_555
H15D C16D 1_555 1_555
H16D C16D 1_555 1_555
C17D N3D 1_555 1_555
H17D C17D 1_555 1_555
H18D C17D 1_555 1_555
C18D N5D 1_555 1_555
H19D C18D 1_555 1_555
C19D N6D 1_555 1_555
H20D C19D 1_555 1_555
C20D N5D 1_555 1_555
H21D C20D 1_555 1_555
C21D C6D 1_555 1_555
H22D C21D 1_555 1_555
H23D C21D 1_555 1_555
H24D C21D 1_555 1_555
N4A Mn1 1_555 1_555
N4E Mn1 1_555 1_555
N6A Mn1 1_555 1_555
N6E Mn1 1_555 1_555
Mn1A N4 1_555 1_555
Mn1A_2 N6 1_555 1_555
Mn1A_3 N4D 1_555 1_555
Mn1A_4 N6D 1_555 1_555
C5 C17 1_555 1_555
C9 C10 1_555 1_555
C14 C15 1_555 1_555
C19 C20 1_555 1_555
N2D C8D 1_555 1_555
C5D C17D 1_555 1_555
C9D C10D 1_555 1_555
C14D C15D 1_555 1_555
C19D C20D 1_555 1_555

#END
