
#######################################################################
#
#                 Cambridge Crystallographic Data Centre
#                                CCDC 
#
#######################################################################
#
# If this CIF has been generated from an entry in the Cambridge 
# Structural Database, then it will include bibliographic, chemical, 
# crystal, experimental, refinement or atomic coordinate data resulting 
# from the CCDC's data processing and validation procedures.
#
#######################################################################

data_AGOPIW
_symmetry_cell_setting           triclinic
_symmetry_space_group_name_H-M   'P -1'
_symmetry_Int_Tables_number      2
_space_group_name_Hall           '-P 1'
loop_
_symmetry_equiv_pos_site_id
_symmetry_equiv_pos_as_xyz
1 x,y,z
2 -x,-y,-z
_cell_length_a                   12.5446(9)
_cell_length_b                   15.4392(12)
_cell_length_c                   15.9536(12)
_cell_angle_alpha                94.7020(10)
_cell_angle_beta                 95.5840(10)
_cell_angle_gamma                100.2570(20)
_cell_volume                     3010.47
loop_
_atom_site_label
_atom_site_type_symbol
_atom_site_fract_x
_atom_site_fract_y
_atom_site_fract_z
P1 P 0.83919(10) 0.14548(8) 0.75827(8)
P2 P 1.04144(11) 0.35944(9) 0.82198(9)
Mo1 Mo 1.11788(4) 0.19176(3) 0.71487(3)
Mo2 Mo 0.88978(4) 0.27685(3) 0.60852(3)
Mo3 Mo 0.77100(4) 0.35994(3) 0.77178(3)
Mo4 Mo 0.84998(4) 0.27182(3) 0.94819(3)
Mo5 Mo 1.04906(4) 0.15612(4) 0.90846(3)
Cu1 Cu 1.0000 0.5000 0.5000
Cu2 Cu 1.44500(6) 0.28815(4) 0.75217(4)
Cu3 Cu 0.77809(6) -0.07025(4) 0.76799(4)
N1 N 0.8520(4) 0.5333(3) 0.4939(3)
N2 N 0.8287(4) 0.6031(4) 0.4559(4)
H1 H 0.8741 0.6364 0.4298
N3 N 0.9596(4) 0.4269(3) 0.3878(3)
N4 N 0.9812(5) 0.4537(3) 0.3129(3)
H2 H 1.0121 0.5066 0.3061
N5 N 1.4216(4) 0.4124(3) 0.7398(3)
N6 N 1.3258(4) 0.4383(3) 0.7458(4)
H3 H 1.2658 0.4034 0.7509
N7 N 1.4320(4) 0.3136(3) 0.8765(3)
N8 N 1.3397(5) 0.3014(4) 0.9121(3)
H4 H 1.2785 0.2723 0.8870
N9 N 1.4549(4) 0.1627(3) 0.7702(3)
N10 N 1.5479(4) 0.1434(3) 0.8056(4)
H5 H 1.6089 0.1802 0.8157
N11 N 1.4673(4) 0.2694(4) 0.6286(3)
N12 N 1.4149(6) 0.2017(4) 0.5758(4)
H6 H 1.3667 0.1601 0.5898
N13 N 0.7296(4) -0.0696(3) 0.8840(3)
N14 N 0.7605(4) -0.0014(3) 0.9449(3)
H7 H 0.8079 0.0451 0.9405
N15 N 0.8545(4) -0.0730(3) 0.6629(3)
N16 N 0.8419(5) -0.0187(4) 0.6028(3)
H8 H 0.8138 0.0280 0.6094
N17 N 0.7667(5) -0.2008(3) 0.7652(3)
N18 N 0.8135(6) -0.2431(4) 0.8242(4)
H9 H 0.8503 -0.2170 0.8706
C1 C 0.7620(6) 0.5004(5) 0.5249(5)
H10 H 0.7532 0.4507 0.5546
C2 C 0.6828(6) 0.5492(6) 0.5077(6)
H11 H 0.6125 0.5393 0.5234
C3 C 0.7276(6) 0.6150(6) 0.4630(5)
H12 H 0.6943 0.6592 0.4419
C4 C 0.9118(3) 0.3439(5) 0.3701(5)
H13 H 0.8859 0.3072 0.4099
C5 C 0.9049(6) 0.3180(5) 0.2844(5)
H14 H 0.8753 0.2624 0.2564
C6 C 0.9503(7) 0.3902(5) 0.2507(4)
H15 H 0.9583 0.3946 0.1938
C7 C 1.4927(6) 0.4846(5) 0.7347(5)
H16 H 1.5667 0.4866 0.7313
C8 C 1.4422(6) 0.5574(5) 0.7351(6)
H17 H 1.4741 0.6159 0.7310
C9 C 1.3361(6) 0.5251(5) 0.7429(6)
H18 H 1.2807 0.5577 0.7456
C10 C 1.5052(6) 0.3604(6) 0.9354(5)
H19 H 1.5784 0.3788 0.9288
C11 C 1.4584(7) 0.3784(6) 1.0086(5)
H20 H 1.4924 0.4105 1.0589
C12 C 1.3534(7) 0.3395(6) 0.9908(5)
H21 H 1.2997 0.3393 1.0271
C13 C 1.5321(6) 0.3180(7) 0.5824(5)
H22 H 1.5787 0.3711 0.6026
C14 C 1.5210(8) 0.2794(8) 0.5006(5)
H23 H 1.5581 0.3003 0.4564
C15 C 1.4456(9) 0.2052(6) 0.4976(5)
H24 H 1.4198 0.1644 0.4507
C16 C 1.3811(5) 0.0885(4) 0.7661(4)
H25 H 1.3083 0.0825 0.7446
C17 C 1.4275(5) 0.0219(4) 0.7980(4)
H26 H 1.3937 -0.0362 0.8017
C18 C 1.5334(5) 0.0597(4) 0.8230(5)
H27 H 1.5865 0.0318 0.8480
C19 C 0.6551(6) -0.1261(4) 0.9153(4)
H28 H 0.6187 -0.1799 0.8870
C20 C 0.6389(7) -0.0944(5) 0.9955(5)
H29 H 0.5907 -0.1214 1.0305
C21 C 0.7082(6) -0.0154(5) 1.0126(4)
H30 H 0.7174 0.0221 1.0625
C22 C 0.9035(6) -0.1334(5) 0.6278(5)
H31 H 0.9247 -0.1794 0.6554
C23 C 0.9193(7) -0.1200(5) 0.5454(5)
H32 H 0.9509 -0.1540 0.5076
C24 C 0.8784(6) -0.0463(5) 0.5315(4)
H33 H 0.8762 -0.0198 0.4813
C25 C 0.7183(7) -0.2647(4) 0.7066(5)
H34 H 0.6771 -0.2559 0.6574
C26 C 0.7366(7) -0.3465(4) 0.7274(5)
H35 H 0.7125 -0.4011 0.6959
C27 C 0.7968(7) -0.3295(4) 0.8033(5)
H36 H 0.8220 -0.3709 0.8353
O1 O 1.1589(3) 0.1797(3) 0.8326(2)
O2 O 0.9647(3) 0.1579(2) 0.7825(2)
O3 O 1.0968(3) 0.0844(3) 0.6734(3)
O4 O 1.2454(3) 0.2334(3) 0.6890(3)
O5 O 1.0220(3) 0.2362(2) 0.6343(2)
O6 O 1.1326(3) 0.3323(2) 0.7771(2)
O7 O 0.8358(3) 0.2202(3) 0.5136(2)
O8 O 0.9478(3) 0.3787(2) 0.5782(2)
O9 O 0.8213(3) 0.1558(2) 0.6642(2)
O10 O 0.7695(3) 0.3122(2) 0.6562(2)
O11 O 0.7842(4) 0.4686(3) 0.7573(3)
O12 O 0.6337(3) 0.3266(3) 0.7787(3)
O13 O 0.7951(3) 0.2197(2) 0.8083(2)
O14 O 0.8263(3) 0.3727(2) 0.8898(2)
O15 O 0.7216(4) 0.2303(3) 0.9695(3)
O16 O 0.9137(4) 0.3263(3) 1.0418(3)
O17 O 0.9071(3) 0.1641(2) 0.9453(2)
O18 O 1.0142(3) 0.3018(2) 0.8933(2)
O19 O 1.1294(4) 0.1992(4) 1.0002(3)
O20 O 1.0324(4) 0.0441(3) 0.9077(3)
O21 O 0.9428(3) 0.3563(2) 0.7551(2)
O22 O 0.7834(3) 0.0562(2) 0.7788(2)
O23 O 1.0772(3) 0.4572(3) 0.8629(3)
O31 O 0.6125(4) -0.0950(3) 0.6908(3)
H37 H 0.5950 -0.0475 0.6822
P1A P 1.16081(10) 0.85452(8) 0.24173(8)
P2A P 0.95856(11) 0.64056(9) 0.17802(9)
Mo1A Mo 0.88212(4) 0.80824(3) 0.28513(3)
Mo2A Mo 1.11022(4) 0.72315(3) 0.39148(3)
Mo3A Mo 1.22900(4) 0.64006(3) 0.22822(3)
Mo4A Mo 1.15002(4) 0.72818(3) 0.05181(3)
Mo5A Mo 0.95094(4) 0.84388(4) 0.09154(3)
Cu2A Cu 0.55500(6) 0.71185(4) 0.24783(4)
Cu2_2 Cu 0.44500(6) 0.28815(4) 0.75217(4)
Cu2A_2 Cu 1.55500(6) 0.71185(4) 0.24783(4)
Cu3A Cu 1.22191(6) 1.07025(4) 0.23201(4)
N1A N 1.1480(4) 0.4667(3) 0.5061(3)
N2A N 1.1713(4) 0.3969(4) 0.5441(4)
H1A H 1.1259 0.3636 0.5702
N3A N 1.0404(4) 0.5731(3) 0.6122(3)
N4A N 1.0188(5) 0.5463(3) 0.6871(3)
H2A H 0.9879 0.4934 0.6939
N5A N 0.5784(4) 0.5876(3) 0.2602(3)
N6A N 0.6742(4) 0.5617(3) 0.2542(4)
H3A H 0.7342 0.5966 0.2491
N7A N 0.5680(4) 0.6864(3) 0.1235(3)
N8A N 0.6603(5) 0.6986(4) 0.0879(3)
H4A H 0.7215 0.7277 0.1130
N9A N 0.5451(4) 0.8373(3) 0.2298(3)
N10A N 0.4521(4) 0.8566(3) 0.1944(4)
H5A H 0.3911 0.8198 0.1843
N11A N 0.5327(4) 0.7306(4) 0.3714(3)
N12A N 0.5851(6) 0.7983(4) 0.4242(4)
H6A H 0.6333 0.8399 0.4102
N13A N 1.2704(4) 1.0696(3) 0.1160(3)
N14A N 1.2395(4) 1.0014(3) 0.0551(3)
H7A H 1.1921 0.9549 0.0595
N15A N 1.1455(4) 1.0730(3) 0.3371(3)
N16A N 1.1581(5) 1.0187(4) 0.3972(3)
H8A H 1.1862 0.9720 0.3906
N17A N 1.2333(5) 1.2008(3) 0.2348(3)
N18A N 1.1865(6) 1.2431(4) 0.1758(4)
H9A H 1.1497 1.2170 0.1294
C1A C 1.2380(6) 0.4996(5) 0.4751(5)
H10A H 1.2468 0.5493 0.4454
C2A C 1.3172(6) 0.4508(6) 0.4923(6)
H11A H 1.3875 0.4607 0.4766
C3A C 1.2724(6) 0.3850(6) 0.5370(5)
H12A H 1.3057 0.3408 0.5581
C4A C 1.0882(3) 0.6561(5) 0.6299(5)
H13A H 1.1141 0.6928 0.5901
C5A C 1.0951(6) 0.6820(5) 0.7156(5)
H14A H 1.1247 0.7376 0.7436
C6A C 1.0497(7) 0.6098(5) 0.7493(4)
H15A H 1.0417 0.6054 0.8062
C7A C 0.5073(6) 0.5154(5) 0.2653(5)
H16A H 0.4333 0.5134 0.2687
C8A C 0.5578(6) 0.4426(5) 0.2649(6)
H17A H 0.5259 0.3841 0.2690
C9A C 0.6639(6) 0.4749(5) 0.2571(6)
H18A H 0.7193 0.4423 0.2544
C10A C 0.4948(6) 0.6396(6) 0.0646(5)
H19A H 0.4216 0.6212 0.0712
C11A C 0.5416(7) 0.6216(6) -0.0086(5)
H20A H 0.5076 0.5895 -0.0589
C12A C 0.6466(7) 0.6605(6) 0.0092(5)
H21A H 0.7003 0.6607 -0.0271
C13A C 0.4679(6) 0.6820(7) 0.4176(5)
H22A H 0.4213 0.6289 0.3974
C14A C 0.4790(8) 0.7206(8) 0.4994(5)
H23A H 0.4419 0.6997 0.5436
C15A C 0.5544(9) 0.7948(6) 0.5024(5)
H24A H 0.5802 0.8356 0.5493
C16A C 0.6189(5) 0.9115(4) 0.2339(4)
H25A H 0.6917 0.9175 0.2554
C17A C 0.5725(5) 0.9781(4) 0.2020(4)
H26A H 0.6063 1.0362 0.1983
C18A C 0.4666(5) 0.9403(4) 0.1770(5)
H27A H 0.4135 0.9682 0.1520
C19A C 1.3449(6) 1.1261(4) 0.0847(4)
H28A H 1.3813 1.1799 0.1130
C20A C 1.3611(7) 1.0944(5) 0.0045(5)
H29A H 1.4093 1.1214 -0.0305
C21A C 1.2918(6) 1.0154(5) -0.0126(4)
H30A H 1.2826 0.9779 -0.0625
C22A C 1.0965(6) 1.1334(5) 0.3722(5)
H31A H 1.0753 1.1794 0.3446
C23A C 1.0807(7) 1.1200(5) 0.4546(5)
H32A H 1.0491 1.1540 0.4924
C24A C 1.1216(6) 1.0463(5) 0.4685(4)
H33A H 1.1238 1.0198 0.5187
C25A C 1.2817(7) 1.2647(4) 0.2934(5)
H34A H 1.3229 1.2559 0.3426
C26A C 1.2634(7) 1.3465(4) 0.2726(5)
H35A H 1.2875 1.4011 0.3041
C27A C 1.2032(7) 1.3295(4) 0.1967(5)
H36A H 1.1780 1.3709 0.1647
O1A O 0.8411(3) 0.8203(3) 0.1674(2)
O2A O 1.0353(3) 0.8421(2) 0.2175(2)
O3A O 0.9032(3) 0.9156(3) 0.3266(3)
O4A O 0.7546(3) 0.7666(3) 0.3110(3)
O5A O 0.9780(3) 0.7638(2) 0.3657(2)
O6A O 0.8674(3) 0.6677(2) 0.2229(2)
O7A O 1.1642(3) 0.7798(3) 0.4864(2)
O8A O 1.0522(3) 0.6213(2) 0.4218(2)
O9A O 1.1787(3) 0.8442(2) 0.3358(2)
O10A O 1.2305(3) 0.6878(2) 0.3438(2)
O11A O 1.2158(4) 0.5314(3) 0.2427(3)
O12A O 1.3663(3) 0.6734(3) 0.2213(3)
O12_2 O 1.6337(3) 0.3266(3) 0.7787(3)
O12A_2 O 0.3663(3) 0.6734(3) 0.2213(3)
O13A O 1.2049(3) 0.7803(2) 0.1917(2)
O14A O 1.1737(3) 0.6273(2) 0.1102(2)
O15A O 1.2784(4) 0.7697(3) 0.0305(3)
O16A O 1.0863(4) 0.6737(3) -0.0418(3)
O17A O 1.0929(3) 0.8359(2) 0.0547(2)
O18A O 0.9858(3) 0.6982(2) 0.1067(2)
O19A O 0.8706(4) 0.8008(4) -0.0002(3)
O20A O 0.9676(4) 0.9559(3) 0.0923(3)
O21A O 1.0572(3) 0.6437(2) 0.2449(2)
O22A O 1.2166(3) 0.9438(2) 0.2212(2)
O23A O 0.9228(3) 0.5428(3) 0.1371(3)
O31A O 1.3875(4) 1.0950(3) 0.3092(3)
H37A H 1.4050 1.0475 0.3178
O24 O 0.1180(4) 0.4580(3) 0.0273(3)
O25 O 0.6022(4) 0.0572(4) 0.6014(3)
O26 O 0.7253(5) 0.1346(4) 0.3624(3)
O27 O 0.3747(5) 0.0089(4) 0.5631(4)
O28 O 0.0419(6) 0.8698(4) 0.8760(4)
O29 O 0.4312(5) 0.7889(4) 0.7239(4)
O30 O 0.8474(5) 0.0693(4) 0.2549(5)
O32 O 0.3528(15) 0.7535(14) 0.8738(8)
loop_
_geom_bond_atom_site_label_1
_geom_bond_atom_site_label_2
_geom_bond_site_symmetry_1
_geom_bond_site_symmetry_2
P1 O2 1_555 1_555
P2 O6 1_555 1_555
Mo1 O1 1_555 1_555
Mo2 O5 1_555 1_555
Mo3 O10 1_555 1_555
Mo4 O13 1_555 1_555
Mo5 O1 1_555 1_555
Cu1 N1 1_555 1_555
Cu2 N5 1_555 1_555
Cu3 N13 1_555 1_555
N1 N2 1_555 1_555
N2 H1 1_555 1_555
N3 Cu1 1_555 1_555
N4 N3 1_555 1_555
H2 N4 1_555 1_555
N5 N6 1_555 1_555
N6 H3 1_555 1_555
N7 Cu2 1_555 1_555
N8 N7 1_555 1_555
H4 N8 1_555 1_555
N9 Cu2 1_555 1_555
N10 N9 1_555 1_555
H5 N10 1_555 1_555
N11 Cu2 1_555 1_555
N12 N11 1_555 1_555
H6 N12 1_555 1_555
N13 N14 1_555 1_555
N14 H7 1_555 1_555
N15 Cu3 1_555 1_555
N16 N15 1_555 1_555
H8 N16 1_555 1_555
N17 Cu3 1_555 1_555
N18 N17 1_555 1_555
H9 N18 1_555 1_555
C1 N1 1_555 1_555
H10 C1 1_555 1_555
C2 C1 1_555 1_555
H11 C2 1_555 1_555
C3 N2 1_555 1_555
H12 C3 1_555 1_555
C4 N3 1_555 1_555
H13 C4 1_555 1_555
C5 C4 1_555 1_555
H14 C5 1_555 1_555
C6 N4 1_555 1_555
H15 C6 1_555 1_555
C7 N5 1_555 1_555
H16 C7 1_555 1_555
C8 C7 1_555 1_555
H17 C8 1_555 1_555
C9 N6 1_555 1_555
H18 C9 1_555 1_555
C10 N7 1_555 1_555
H19 C10 1_555 1_555
C11 C10 1_555 1_555
H20 C11 1_555 1_555
C12 N8 1_555 1_555
H21 C12 1_555 1_555
C13 N11 1_555 1_555
H22 C13 1_555 1_555
C14 C13 1_555 1_555
H23 C14 1_555 1_555
C15 N12 1_555 1_555
H24 C15 1_555 1_555
C16 N9 1_555 1_555
H25 C16 1_555 1_555
C17 C16 1_555 1_555
H26 C17 1_555 1_555
C18 N10 1_555 1_555
H27 C18 1_555 1_555
C19 N13 1_555 1_555
H28 C19 1_555 1_555
C20 C19 1_555 1_555
H29 C20 1_555 1_555
C21 N14 1_555 1_555
H30 C21 1_555 1_555
C22 N15 1_555 1_555
H31 C22 1_555 1_555
C23 C22 1_555 1_555
H32 C23 1_555 1_555
C24 N16 1_555 1_555
H33 C24 1_555 1_555
C25 N17 1_555 1_555
H34 C25 1_555 1_555
C26 C25 1_555 1_555
H35 C26 1_555 1_555
C27 N18 1_555 1_555
H36 C27 1_555 1_555
O2 Mo1 1_555 1_555
O3 Mo1 1_555 1_555
O4 Mo1 1_555 1_555
O5 Mo1 1_555 1_555
O6 Mo1 1_555 1_555
O7 Mo2 1_555 1_555
O8 Mo2 1_555 1_555
O9 P1 1_555 1_555
O10 Mo2 1_555 1_555
O11 Mo3 1_555 1_555
O12 Mo3 1_555 1_555
O13 P1 1_555 1_555
O14 Mo3 1_555 1_555
O15 Mo4 1_555 1_555
O16 Mo4 1_555 1_555
O17 Mo4 1_555 1_555
O18 P2 1_555 1_555
O19 Mo5 1_555 1_555
O20 Mo5 1_555 1_555
O21 P2 1_555 1_555
O22 P1 1_555 1_555
O23 P2 1_555 1_555
O31 Cu3 1_555 1_555
H37 O31 1_555 1_555
P1A O2A 1_555 1_555
P2A O6A 1_555 1_555
Mo1A O1A 1_555 1_555
Mo2A O5A 1_555 1_555
Mo3A O10A 1_555 1_555
Mo4A O13A 1_555 1_555
Mo5A O1A 1_555 1_555
Cu2A N5A 1_555 1_555
Cu2_2 O12 1_555 1_555
Cu2A_2 O12A 1_555 1_555
Cu3A N13A 1_555 1_555
N1A Cu1 1_555 1_555
N2A N1A 1_555 1_555
H1A N2A 1_555 1_555
N3A Cu1 1_555 1_555
N4A N3A 1_555 1_555
H2A N4A 1_555 1_555
N5A N6A 1_555 1_555
N6A H3A 1_555 1_555
N7A Cu2A 1_555 1_555
N8A N7A 1_555 1_555
H4A N8A 1_555 1_555
N9A Cu2A 1_555 1_555
N10A N9A 1_555 1_555
H5A N10A 1_555 1_555
N11A Cu2A 1_555 1_555
N12A N11A 1_555 1_555
H6A N12A 1_555 1_555
N13A N14A 1_555 1_555
N14A H7A 1_555 1_555
N15A Cu3A 1_555 1_555
N16A N15A 1_555 1_555
H8A N16A 1_555 1_555
N17A Cu3A 1_555 1_555
N18A N17A 1_555 1_555
H9A N18A 1_555 1_555
C1A N1A 1_555 1_555
H10A C1A 1_555 1_555
C2A C1A 1_555 1_555
H11A C2A 1_555 1_555
C3A N2A 1_555 1_555
H12A C3A 1_555 1_555
C4A N3A 1_555 1_555
H13A C4A 1_555 1_555
C5A C4A 1_555 1_555
H14A C5A 1_555 1_555
C6A N4A 1_555 1_555
H15A C6A 1_555 1_555
C7A N5A 1_555 1_555
H16A C7A 1_555 1_555
C8A C7A 1_555 1_555
H17A C8A 1_555 1_555
C9A N6A 1_555 1_555
H18A C9A 1_555 1_555
C10A N7A 1_555 1_555
H19A C10A 1_555 1_555
C11A C10A 1_555 1_555
H20A C11A 1_555 1_555
C12A N8A 1_555 1_555
H21A C12A 1_555 1_555
C13A N11A 1_555 1_555
H22A C13A 1_555 1_555
C14A C13A 1_555 1_555
H23A C14A 1_555 1_555
C15A N12A 1_555 1_555
H24A C15A 1_555 1_555
C16A N9A 1_555 1_555
H25A C16A 1_555 1_555
C17A C16A 1_555 1_555
H26A C17A 1_555 1_555
C18A N10A 1_555 1_555
H27A C18A 1_555 1_555
C19A N13A 1_555 1_555
H28A C19A 1_555 1_555
C20A C19A 1_555 1_555
H29A C20A 1_555 1_555
C21A N14A 1_555 1_555
H30A C21A 1_555 1_555
C22A N15A 1_555 1_555
H31A C22A 1_555 1_555
C23A C22A 1_555 1_555
H32A C23A 1_555 1_555
C24A N16A 1_555 1_555
H33A C24A 1_555 1_555
C25A N17A 1_555 1_555
H34A C25A 1_555 1_555
C26A C25A 1_555 1_555
H35A C26A 1_555 1_555
C27A N18A 1_555 1_555
H36A C27A 1_555 1_555
O2A Mo1A 1_555 1_555
O3A Mo1A 1_555 1_555
O4A Mo1A 1_555 1_555
O5A Mo1A 1_555 1_555
O6A Mo1A 1_555 1_555
O7A Mo2A 1_555 1_555
O8A Cu1 1_555 1_555
O9A P1A 1_555 1_555
O10A Mo2A 1_555 1_555
O11A Mo3A 1_555 1_555
O12A Mo3A 1_555 1_555
O12_2 Cu2 1_555 1_555
O12A_2 Cu2A 1_555 1_555
O13A P1A 1_555 1_555
O14A Mo3A 1_555 1_555
O15A Mo4A 1_555 1_555
O16A Mo4A 1_555 1_555
O17A Mo4A 1_555 1_555
O18A P2A 1_555 1_555
O19A Mo5A 1_555 1_555
O20A Mo5A 1_555 1_555
O21A P2A 1_555 1_555
O22A P1A 1_555 1_555
O23A P2A 1_555 1_555
O31A Cu3A 1_555 1_555
H37A O31A 1_555 1_555
Mo2 O9 1_555 1_555
Mo2 O21 1_555 1_555
Mo3 O13 1_555 1_555
Mo3 O21 1_555 1_555
Mo4 O14 1_555 1_555
Mo4 O18 1_555 1_555
Mo5 O2 1_555 1_555
Mo5 O17 1_555 1_555
Mo5 O18 1_555 1_555
Cu1 O8 1_555 1_555
Cu2 O4 1_555 1_555
Cu3 O22 1_555 1_555
C2 C3 1_555 1_555
C5 C6 1_555 1_555
C8 C9 1_555 1_555
C11 C12 1_555 1_555
C14 C15 1_555 1_555
C17 C18 1_555 1_555
C20 C21 1_555 1_555
C23 C24 1_555 1_555
C26 C27 1_555 1_555
Mo2A O8A 1_555 1_555
Mo2A O9A 1_555 1_555
Mo2A O21A 1_555 1_555
Mo3A O13A 1_555 1_555
Mo3A O21A 1_555 1_555
Mo4A O14A 1_555 1_555
Mo4A O18A 1_555 1_555
Mo5A O2A 1_555 1_555
Mo5A O17A 1_555 1_555
Mo5A O18A 1_555 1_555
Cu2A O4A 1_555 1_555
Cu3A O22A 1_555 1_555
C2A C3A 1_555 1_555
C5A C6A 1_555 1_555
C8A C9A 1_555 1_555
C11A C12A 1_555 1_555
C14A C15A 1_555 1_555
C17A C18A 1_555 1_555
C20A C21A 1_555 1_555
C23A C24A 1_555 1_555
C26A C27A 1_555 1_555

#END
