
#######################################################################
#
#                 Cambridge Crystallographic Data Centre
#                                CCDC 
#
#######################################################################
#
# If this CIF has been generated from an entry in the Cambridge 
# Structural Database, then it will include bibliographic, chemical, 
# crystal, experimental, refinement or atomic coordinate data resulting 
# from the CCDC's data processing and validation procedures.
#
#######################################################################

data_AGOPOC
_symmetry_cell_setting           monoclinic
_symmetry_space_group_name_H-M   'P 21/n'
_symmetry_Int_Tables_number      14
_space_group_name_Hall           '-P 2yn'
loop_
_symmetry_equiv_pos_site_id
_symmetry_equiv_pos_as_xyz
1 x,y,z
2 1/2-x,1/2+y,1/2-z
3 -x,-y,-z
4 1/2+x,1/2-y,1/2+z
_cell_length_a                   14.751(2)
_cell_length_b                   21.635(3)
_cell_length_c                   16.489(2)
_cell_angle_alpha                90
_cell_angle_beta                 110.343(3)
_cell_angle_gamma                90
_cell_volume                     4934.05
loop_
_atom_site_label
_atom_site_type_symbol
_atom_site_fract_x
_atom_site_fract_y
_atom_site_fract_z
P1 P 1.13648(17) 0.19788(10) 0.35185(15)
P2 P 0.87130(17) 0.23878(10) 0.22853(15)
Mo1 Mo 1.06155(6) 0.34750(4) 0.32759(6)
Mo2 Mo 0.98350(7) 0.25060(4) 0.45262(6)
Mo3 Mo 0.92849(6) 0.11033(4) 0.35391(5)
Mo4 Mo 1.00862(6) 0.11139(3) 0.18506(5)
Mo5 Mo 1.04666(6) 0.27413(4) 0.14432(5)
O1 O 0.9889(5) 0.4084(3) 0.3301(5)
O2 O 1.1756(5) 0.3775(3) 0.3618(5)
O3 O 1.0364(4) 0.3479(3) 0.2052(4)
O4 O 1.1000(4) 0.2547(3) 0.2926(4)
O5 O 0.9219(4) 0.2811(3) 0.3065(4)
O6 O 1.0746(5) 0.3063(3) 0.4353(4)
O7 O 0.9011(5) 0.2988(3) 0.4705(4)
O8 O 1.0480(5) 0.2260(3) 0.5547(4)
O9 O 0.8955(5) 0.1842(3) 0.4054(4)
O10 O 1.0651(4) 0.1831(3) 0.3994(4)
O11 O 0.9880(5) 0.0675(3) 0.4435(4)
O12 O 0.8163(5) 0.0790(3) 0.3152(5)
O13 O 0.9894(4) 0.0706(3) 0.2806(4)
O14 O 0.9169(4) 0.1728(2) 0.2451(4)
O15 O 0.9013(5) 0.0934(3) 0.1027(4)
O16 O 1.0870(5) 0.0596(3) 0.1683(4)
O17 O 1.0327(4) 0.1868(3) 0.1399(4)
O18 O 1.1391(4) 0.1435(3) 0.2951(4)
O19 O 0.9780(5) 0.2949(3) 0.0408(4)
O20 O 1.1602(5) 0.2801(3) 0.1440(5)
O21 O 0.7647(4) 0.2369(3) 0.2077(4)
O22 O 0.8923(4) 0.2649(3) 0.1503(4)
O23 O 1.2360(4) 0.2114(3) 0.4154(4)
Cu1 Cu 0.64577(9) 0.23751(6) 0.23186(10)
Cu2 Cu 0.79776(8) 0.28116(5) 0.03719(7)
Cu3 Cu 1.20250(8) -0.01439(5) 0.20232(8)
N1 N 0.5137(7) 0.2381(4) 0.2401(7)
N2 N 0.4354(9) 0.2314(6) 0.1694(9)
H1 H 0.4336 0.2316 0.1167
N3 N 0.6618(6) 0.3278(4) 0.2595(6)
N4 N 0.7468(7) 0.3569(4) 0.2816(6)
H2 H 0.8016 0.3384 0.2945
N5 N 0.6218(6) 0.1516(4) 0.1865(7)
N6 N 0.5780(9) 0.1051(6) 0.2080(9)
H3 H 0.5585 0.1050 0.2515
N7 N 0.7793(6) 0.3681(4) 0.0647(5)
N8 N 0.6941(6) 0.3965(4) 0.0399(6)
H4 H 0.6404 0.3798 0.0088
N9 N 1.1053(7) -0.0713(4) 0.1230(6)
N10 N 1.1215(8) -0.1304(4) 0.1071(6)
H5 H 1.1773 -0.1479 0.1250
N11 N 1.2462(6) 0.0147(4) 0.1074(5)
N12 N 1.2140(6) -0.0082(4) 0.0261(5)
H6 H 1.1756 -0.0394 0.0110
N13 N 1.3168(6) 0.0282(4) 0.2878(6)
N14 N 1.3071(6) 0.0750(4) 0.3358(5)
H7 H 1.2543 0.0949 0.3281
N15 N 1.1741(6) -0.0498(4) 0.3021(6)
N16 N 1.1126(6) -0.0290(4) 0.3391(5)
H8 H 1.0776 0.0035 0.3223
C1 C 0.4893(12) 0.2318(6) 0.3061(12)
H9 H 0.5311 0.2316 0.3632
C2 C 0.385(2) 0.2250(10) 0.2775(17)
H10 H 0.3461 0.2219 0.3112
C3 C 0.3596(11) 0.2243(8) 0.197(2)
H11 H 0.2960 0.2195 0.1596
C4 C 0.5974(8) 0.3714(5) 0.2457(7)
H12 H 0.5312 0.3646 0.2291
C5 C 0.6404(9) 0.4301(6) 0.2590(7)
H13 H 0.6107 0.4685 0.2540
C6 C 0.7367(8) 0.4170(5) 0.2810(7)
H14 H 0.7864 0.4459 0.2935
C7 C 0.6405(9) 0.1346(5) 0.1189(8)
H15 H 0.6733 0.1584 0.0910
C8 C 0.6082(13) 0.0816(8) 0.0966(11)
H16 H 0.6119 0.0619 0.0477
C9 C 0.5672(10) 0.0552(6) 0.1501(12)
H17 H 0.5402 0.0162 0.1490
C10 C 0.8441(8) 0.4085(5) 0.1081(7)
H18 H 0.9103 0.4016 0.1325
C11 C 0.7956(9) 0.4646(5) 0.1113(8)
H19 H 0.8235 0.5013 0.1377
C12 C 0.7027(9) 0.4539(5) 0.0692(7)
H20 H 0.6524 0.4818 0.0616
C13 C 1.0109(8) -0.0629(6) 0.0848(7)
H21 H 0.9776 -0.0263 0.0842
C14 C 0.9698(11) -0.1185(8) 0.0456(9)
H22 H 0.9047 -0.1259 0.0149
C15 C 1.0406(11) -0.1582(6) 0.0605(8)
H23 H 1.0348 -0.1990 0.0416
C16 C 1.3039(9) 0.0617(5) 0.1047(8)
H24 H 1.3377 0.0866 0.1514
C17 C 1.3056(9) 0.0675(6) 0.0204(9)
H25 H 1.3398 0.0966 0.0011
C18 C 1.2464(9) 0.0215(6) -0.0282(8)
H26 H 1.2324 0.0133 -0.0866
C19 C 1.4056(8) 0.0089(5) 0.3212(7)
H27 H 1.4311 -0.0245 0.3009
C20 C 1.4567(8) 0.0452(6) 0.3909(8)
H28 H 1.5215 0.0417 0.4253
C21 C 1.3919(9) 0.0867(5) 0.3981(7)
H29 H 1.4039 0.1180 0.4391
C22 C 1.2117(12) -0.1005(6) 0.3458(10)
H30 H 1.2564 -0.1263 0.3346
C23 C 1.1727(11) -0.1092(6) 0.4124(9)
H31 H 1.1875 -0.1405 0.4535
C24 C 1.1113(9) -0.0635(5) 0.4036(7)
H32 H 1.0734 -0.0569 0.4375
O24 O 0.7082(8) 0.2045(7) 0.3791(7)
O25 O 0.7777(5) 0.1901(3) 0.0239(4)
O8C O 0.5480(5) 0.2740(3) 0.0547(4)
O23C O 0.7360(4) 0.2886(3) -0.0846(4)
Cu1C Cu 1.14577(9) 0.26249(6) 0.73186(10)
Cu2C Cu 1.29776(8) 0.21884(5) 0.53719(7)
loop_
_geom_bond_atom_site_label_1
_geom_bond_atom_site_label_2
_geom_bond_site_symmetry_1
_geom_bond_site_symmetry_2
P1 O4 1_555 1_555
P2 O5 1_555 1_555
Mo1 O1 1_555 1_555
Mo2 O5 1_555 1_555
Mo3 O9 1_555 1_555
Mo4 O13 1_555 1_555
Mo5 O3 1_555 1_555
O2 Mo1 1_555 1_555
O3 Mo1 1_555 1_555
O4 Mo1 1_555 1_555
O5 Mo1 1_555 1_555
O6 Mo1 1_555 1_555
O7 Mo2 1_555 1_555
O8 Mo2 1_555 1_555
O9 Mo2 1_555 1_555
O10 P1 1_555 1_555
O11 Mo3 1_555 1_555
O12 Mo3 1_555 1_555
O13 Mo3 1_555 1_555
O14 P2 1_555 1_555
O15 Mo4 1_555 1_555
O16 Mo4 1_555 1_555
O17 Mo4 1_555 1_555
O18 P1 1_555 1_555
O19 Mo5 1_555 1_555
O20 Mo5 1_555 1_555
O21 P2 1_555 1_555
O22 P2 1_555 1_555
O23 P1 1_555 1_555
Cu1 O21 1_555 1_555
Cu2 O19 1_555 1_555
Cu3 O16 1_555 1_555
N1 Cu1 1_555 1_555
N2 N1 1_555 1_555
H1 N2 1_555 1_555
N3 Cu1 1_555 1_555
N4 N3 1_555 1_555
H2 N4 1_555 1_555
N5 Cu1 1_555 1_555
N6 N5 1_555 1_555
H3 N6 1_555 1_555
N7 Cu2 1_555 1_555
N8 N7 1_555 1_555
H4 N8 1_555 1_555
N9 Cu3 1_555 1_555
N10 N9 1_555 1_555
H5 N10 1_555 1_555
N11 Cu3 1_555 1_555
N12 N11 1_555 1_555
H6 N12 1_555 1_555
N13 Cu3 1_555 1_555
N14 N13 1_555 1_555
H7 N14 1_555 1_555
N15 Cu3 1_555 1_555
N16 N15 1_555 1_555
H8 N16 1_555 1_555
C1 N1 1_555 1_555
H9 C1 1_555 1_555
C2 C1 1_555 1_555
H10 C2 1_555 1_555
C3 N2 1_555 1_555
H11 C3 1_555 1_555
C4 N3 1_555 1_555
H12 C4 1_555 1_555
C5 C4 1_555 1_555
H13 C5 1_555 1_555
C6 N4 1_555 1_555
H14 C6 1_555 1_555
C7 N5 1_555 1_555
H15 C7 1_555 1_555
C8 C7 1_555 1_555
H16 C8 1_555 1_555
C9 N6 1_555 1_555
H17 C9 1_555 1_555
C10 N7 1_555 1_555
H18 C10 1_555 1_555
C11 C10 1_555 1_555
H19 C11 1_555 1_555
C12 N8 1_555 1_555
H20 C12 1_555 1_555
C13 N9 1_555 1_555
H21 C13 1_555 1_555
C14 C13 1_555 1_555
H22 C14 1_555 1_555
C15 N10 1_555 1_555
H23 C15 1_555 1_555
C16 N11 1_555 1_555
H24 C16 1_555 1_555
C17 C16 1_555 1_555
H25 C17 1_555 1_555
C18 N12 1_555 1_555
H26 C18 1_555 1_555
C19 N13 1_555 1_555
H27 C19 1_555 1_555
C20 C19 1_555 1_555
H28 C20 1_555 1_555
C21 N14 1_555 1_555
H29 C21 1_555 1_555
C22 N15 1_555 1_555
H30 C22 1_555 1_555
C23 C22 1_555 1_555
H31 C23 1_555 1_555
C24 N16 1_555 1_555
H32 C24 1_555 1_555
O24 Cu1 1_555 1_555
O25 Cu2 1_555 1_555
O8C Cu1 1_555 1_555
O23C Cu2 1_555 1_555
Cu1C O8 1_555 1_555
Cu2C O23 1_555 1_555
Mo2 O6 1_555 1_555
Mo2 O10 1_555 1_555
Mo3 O10 1_555 1_555
Mo3 O14 1_555 1_555
Mo4 O14 1_555 1_555
Mo4 O18 1_555 1_555
Mo5 O4 1_555 1_555
Mo5 O17 1_555 1_555
Mo5 O22 1_555 1_555
O22 Cu2 1_555 1_555
C2 C3 1_555 1_555
C5 C6 1_555 1_555
C8 C9 1_555 1_555
C11 C12 1_555 1_555
C14 C15 1_555 1_555
C17 C18 1_555 1_555
C20 C21 1_555 1_555
C23 C24 1_555 1_555

#END
