
#######################################################################
#
#                 Cambridge Crystallographic Data Centre
#                                CCDC 
#
#######################################################################
#
# If this CIF has been generated from an entry in the Cambridge 
# Structural Database, then it will include bibliographic, chemical, 
# crystal, experimental, refinement or atomic coordinate data resulting 
# from the CCDC's data processing and validation procedures.
#
#######################################################################

data_AGOPUI
_symmetry_cell_setting           triclinic
_symmetry_space_group_name_H-M   'P -1'
_symmetry_Int_Tables_number      2
_space_group_name_Hall           '-P 1'
loop_
_symmetry_equiv_pos_site_id
_symmetry_equiv_pos_as_xyz
1 x,y,z
2 -x,-y,-z
_cell_length_a                   9.187(5)
_cell_length_b                   12.409(7)
_cell_length_c                   22.099(12)
_cell_angle_alpha                90.640(1)
_cell_angle_beta                 94.513(5)
_cell_angle_gamma                95.490(2)
_cell_volume                     2499.54
loop_
_atom_site_label
_atom_site_type_symbol
_atom_site_fract_x
_atom_site_fract_y
_atom_site_fract_z
Mo1 Mo 0.61738(7) 0.70621(6) 0.36358(3)
Mo2 Mo 0.69038(7) 0.52750(6) 0.23688(3)
Mo3 Mo 0.47086(8) 0.60317(6) 0.11758(3)
Mo4 Mo 0.36202(8) 0.84863(6) 0.15094(3)
Mo5 Mo 0.47636(8) 0.92273(6) 0.29452(3)
P1 P 0.3496(2) 0.64584(17) 0.25567(9)
P2 P 0.7066(2) 0.79174(17) 0.21288(9)
O1 O 0.3424(6) 0.7669(4) 0.2425(2)
O2 O 0.6469(6) 0.5420(4) 0.1505(2)
O3 O 0.5005(5) 0.8277(5) 0.3641(2)
O4 O 0.3208(6) 0.6995(4) 0.1248(2)
O5 O 0.6879(6) 0.5973(4) 0.3137(2)
O6 O 0.5623(6) 0.6384(5) 0.4261(2)
O7 O 0.4047(5) 0.6334(4) 0.3219(2)
O8 O 0.5910(6) 0.7760(4) 0.1586(2)
O9 O 0.4685(6) 0.9484(4) 0.2090(3)
O10 O 0.7973(5) 0.6964(4) 0.2193(2)
O11 O 0.1876(6) 0.8823(5) 0.1511(3)
O12 O 0.6398(6) 0.8096(4) 0.2733(2)
O13 O 0.4212(6) 0.9024(5) 0.0855(3)
O14 O 0.1998(6) 0.5808(4) 0.2440(2)
O15 O 0.7859(6) 0.7697(5) 0.3902(3)
O16 O 0.5883(6) 0.4090(5) 0.2488(3)
O17 O 0.4622(5) 0.5976(4) 0.2166(2)
O18 O 0.5320(7) 0.6416(5) 0.0495(3)
O19 O 0.8649(6) 0.4894(5) 0.2363(3)
O20 O 0.8088(6) 0.8962(4) 0.1994(3)
O21 O 0.5990(7) 1.0286(5) 0.3195(3)
O22 O 0.3102(6) 0.9621(5) 0.3107(3)
O23 O 0.3583(7) 0.4886(5) 0.1029(3)
C1 C 0.7296(8) 0.8678(7) 0.0526(3)
H1 H 0.6755 0.8507 0.0856
C2 C 0.8546(13) 0.8307(9) 0.0442(5)
H2 H 0.9012 0.7827 0.0693
C3 C 0.9055(12) 0.8731(8) -0.0069(5)
H3 H 0.9929 0.8625 -0.0236
C4 C 0.6379(11) 1.1115(8) 0.1163(4)
H4 H 0.6747 1.0492 0.1316
C5 C 0.6373(13) 1.2090(9) 0.1494(5)
H5 H 0.6722 1.2240 0.1895
C6 C 0.5753(13) 1.2749(8) 0.1100(5)
H6 H 0.5590 1.3463 0.1182
C7 C 0.0200(11) 0.3800(8) 0.0593(5)
H7 H 0.1059 0.3457 0.0619
C8 C -0.0894(11) 0.3674(9) 0.0114(4)
H8 H -0.0901 0.3237 -0.0231
C9 C -0.1943(10) 0.4316(9) 0.0251(4)
H9 H -0.2807 0.4406 0.0016
C10 C 0.0652(13) 0.2721(9) 0.1995(6)
H10 H -0.0344 0.2619 0.1872
C11 C 0.1483(17) 0.1923(10) 0.2187(8)
H11 H 0.1170 0.1192 0.2216
C12 C 0.2829(14) 0.2392(9) 0.2326(6)
H12 H 0.3635 0.2050 0.2477
C13 C 0.1509(13) 0.4233(11) 0.3706(5)
H13 H 0.1023 0.4321 0.3328
C14 C 0.1129(14) 0.3486(12) 0.4116(6)
H14 H 0.0370 0.2932 0.4069
C15 C 0.2123(12) 0.3716(10) 0.4632(5)
H15 H 0.2102 0.3358 0.4999
C16 C 0.5982(10) 0.3814(8) 0.3907(4)
H16 H 0.5446 0.4200 0.3625
C17 C 0.6826(12) 0.3022(9) 0.3757(5)
H17 H 0.6981 0.2773 0.3371
C18 C 0.7395(12) 0.2674(9) 0.4306(5)
H18 H 0.8025 0.2134 0.4366
Cu1 Cu 0.5000 1.0000 0.0000
Cu2 Cu 0.08567(11) 0.51007(9) 0.17583(5)
Cu3 Cu 0.5000 0.5000 0.5000
N1 N 0.6887(7) 0.9329(6) 0.0086(3)
N2 N 0.7964(11) 0.9366(8) -0.0287(5)
H22 H 0.7983 0.9731 -0.0616
N3 N 0.5788(8) 1.1210(5) 0.0603(3)
N4 N 0.5406(10) 1.2228(6) 0.0574(4)
H23 H 0.4992 1.2504 0.0258
N5 N -0.0178(8) 0.4484(6) 0.1006(3)
N6 N -0.1497(8) 0.4793(7) 0.0788(3)
H24 H -0.1983 0.5238 0.0971
N7 N 0.1451(8) 0.3651(6) 0.2006(4)
N8 N 0.2816(8) 0.3441(7) 0.2208(4)
H25 H 0.3566 0.3914 0.2255
N9 N 0.3096(8) 0.4535(6) 0.4506(3)
N10 N 0.2710(8) 0.4824(6) 0.3943(3)
H26 H 0.3180 0.5332 0.3754
N11 N 0.6010(8) 0.3972(6) 0.4496(3)
N12 N 0.6876(9) 0.3256(6) 0.4737(3)
H27 H 0.7072 0.3180 0.5120
O29 O 0.0158(6) 0.6549(5) 0.1525(2)
H30 H -0.0350 0.6753 0.1785
Mo1A Mo 0.38262(7) 1.29379(6) -0.36358(3)
Mo2A Mo 0.30962(7) 1.47250(6) -0.23688(3)
Mo2_2 Mo -0.30962(7) 0.52750(6) 0.23688(3)
Mo3A Mo 0.52914(8) 1.39683(6) -0.11758(3)
Mo4A Mo 0.63798(8) 1.15137(6) -0.15094(3)
Mo5A Mo 0.52364(8) 1.07727(6) -0.29452(3)
P1A P 0.6504(2) 1.35416(17) -0.25567(9)
P2A P 0.2934(2) 1.20826(17) -0.21288(9)
O1A O 0.6576(6) 1.2331(4) -0.2425(2)
O2A O 0.3531(6) 1.4580(4) -0.1505(2)
O3A O 0.4995(5) 1.1723(5) -0.3641(2)
O4A O 0.6792(6) 1.3005(4) -0.1248(2)
O5A O 0.3121(6) 1.4027(4) -0.3137(2)
O6A O 0.4377(6) 1.3616(5) -0.4261(2)
O6A_2 O 0.4377(6) 0.3616(5) 0.5739(2)
O7A O 0.5953(5) 1.3666(4) -0.3219(2)
O8A O 0.4090(6) 1.2240(4) -0.1586(2)
O9A O 0.5315(6) 1.0516(4) -0.2090(3)
O10A O 0.2027(5) 1.3036(4) -0.2193(2)
O11A O 0.8124(6) 1.1177(5) -0.1511(3)
O12A O 0.3602(6) 1.1904(4) -0.2733(2)
O13A O 0.5788(6) 1.0976(5) -0.0855(3)
O14A O 0.8002(6) 1.4192(4) -0.2440(2)
O15A O 0.2141(6) 1.2303(5) -0.3902(3)
O16A O 0.4117(6) 1.5910(5) -0.2488(3)
O17A O 0.5378(5) 1.4024(4) -0.2166(2)
O18A O 0.4680(7) 1.3584(5) -0.0495(3)
O19_2 O -0.1351(6) 0.4894(5) 0.2363(3)
O19A O 0.1351(6) 1.5106(5) -0.2363(3)
O19A_2 O 1.1351(6) 1.5106(5) -0.2363(3)
O20A O 0.1912(6) 1.1038(4) -0.1994(3)
O21A O 0.4010(7) 0.9714(5) -0.3195(3)
O22A O 0.6898(6) 1.0379(5) -0.3107(3)
O23A O 0.6417(7) 1.5114(5) -0.1029(3)
C1A C 0.2704(8) 1.1322(7) -0.0526(3)
H1A H 0.3245 1.1493 -0.0856
C2A C 0.1454(13) 1.1693(9) -0.0442(5)
H2A H 0.0988 1.2173 -0.0693
C3A C 0.0945(12) 1.1269(8) 0.0069(5)
H3A H 0.0071 1.1375 0.0236
C4A C 0.3621(11) 0.8885(8) -0.1163(4)
H4A H 0.3253 0.9508 -0.1316
C5A C 0.3627(13) 0.7910(9) -0.1494(5)
H5A H 0.3278 0.7760 -0.1895
C6A C 0.4247(13) 0.7251(8) -0.1100(5)
H6A H 0.4410 0.6537 -0.1182
C7A C 0.9800(11) 1.6200(8) -0.0593(5)
H7A H 0.8941 1.6543 -0.0619
C8A C 1.0894(11) 1.6326(9) -0.0114(4)
H8A H 1.0901 1.6763 0.0231
C9A C 1.1943(10) 1.5684(9) -0.0251(4)
H9A H 1.2807 1.5594 -0.0016
C10A C 0.9348(13) 1.7279(9) -0.1995(6)
H10A H 1.0344 1.7381 -0.1872
C11A C 0.8517(17) 1.8077(10) -0.2187(8)
H11A H 0.8830 1.8808 -0.2216
C12A C 0.7171(14) 1.7608(9) -0.2326(6)
H12A H 0.6365 1.7950 -0.2477
C13A C 0.8491(13) 0.5767(11) 0.6294(5)
H13A H 0.8977 0.5679 0.6672
C14A C 0.8871(14) 0.6514(12) 0.5884(6)
H14A H 0.9630 0.7068 0.5931
C15A C 0.7877(12) 0.6284(10) 0.5368(5)
H15A H 0.7898 0.6642 0.5001
C16A C 0.4018(10) 0.6186(8) 0.6093(4)
H16A H 0.4554 0.5800 0.6375
C17A C 0.3174(12) 0.6978(9) 0.6243(5)
H17A H 0.3019 0.7227 0.6629
C18A C 0.2605(12) 0.7326(9) 0.5694(5)
H18A H 0.1975 0.7866 0.5634
Cu2A Cu 0.91433(11) 1.48993(9) -0.17583(5)
Cu2_2 Cu 1.08567(11) 0.51007(9) 0.17583(5)
Cu3_2 Cu 0.5000 1.5000 -0.5000
N1A N 0.3113(7) 1.0671(6) -0.0086(3)
N2A N 0.2036(11) 1.0634(8) 0.0287(5)
H22A H 0.2017 1.0269 0.0616
N3A N 0.4212(8) 0.8790(5) -0.0603(3)
N4A N 0.4594(10) 0.7772(6) -0.0574(4)
H23A H 0.5008 0.7496 -0.0258
N5A N 1.0178(8) 1.5516(6) -0.1006(3)
N6A N 1.1497(8) 1.5207(7) -0.0788(3)
H24A H 1.1983 1.4762 -0.0971
N7A N 0.8549(8) 1.6349(6) -0.2006(4)
N8A N 0.7184(8) 1.6559(7) -0.2208(4)
H25A H 0.6434 1.6086 -0.2255
N9A N 0.6904(8) 0.5465(6) 0.5494(3)
N10A N 0.7290(8) 0.5176(6) 0.6057(3)
H26A H 0.6820 0.4668 0.6246
N11A N 0.3990(8) 0.6028(6) 0.5504(3)
N12A N 0.3124(9) 0.6744(6) 0.5263(3)
H27A H 0.2928 0.6820 0.4880
O29A O 0.9842(6) 1.3451(5) -0.1525(2)
H30A H 1.0350 1.3247 -0.1785
C19 C 0.2437(14) 0.0752(11) 0.4243(6)
H19 H 0.1867 0.0661 0.3876
C20 C 0.3868(15) 0.1172(11) 0.4309(6)
H20 H 0.4443 0.1426 0.4003
C21 C 0.4269(14) 0.1145(11) 0.4887(7)
H21 H 0.5204 0.1363 0.5064
Cu4 Cu 0.0000 0.0000 0.5000
N13 N 0.1969(9) 0.0488(7) 0.4793(4)
N14 N 0.3131(10) 0.0756(8) 0.5184(5)
H28 H 0.3145 0.0689 0.5572
O27 O -0.1166(9) 0.0295(7) 0.3856(3)
O28 O 0.0169(7) -0.1458(5) 0.4653(3)
H29 H 0.0879 -0.1434 0.4449
C19A C -0.2437(14) -0.0752(11) 0.5757(6)
H19A H -0.1867 -0.0661 0.6124
C20A C -0.3868(15) -0.1172(11) 0.5691(6)
H20A H -0.4443 -0.1426 0.5997
C21A C -0.4269(14) -0.1145(11) 0.5113(7)
H21A H -0.5204 -0.1363 0.4936
N13A N -0.1969(9) -0.0488(7) 0.5207(4)
N14A N -0.3131(10) -0.0756(8) 0.4816(5)
H28A H -0.3145 -0.0689 0.4428
O27A O 0.1166(9) -0.0295(7) 0.6144(3)
O28A O -0.0169(7) 0.1458(5) 0.5347(3)
H29A H -0.0879 0.1434 0.5551
O24 O 0.2364(6) 0.7671(5) 0.4132(3)
O25 O 0.0272(7) 0.6769(6) 0.3273(3)
O26 O 0.0110(7) 0.9011(6) 0.2960(3)
loop_
_geom_bond_atom_site_label_1
_geom_bond_atom_site_label_2
_geom_bond_site_symmetry_1
_geom_bond_site_symmetry_2
Mo1 O3 1_555 1_555
Mo2 O2 1_555 1_555
Mo3 O2 1_555 1_555
Mo4 O1 1_555 1_555
Mo5 O1 1_555 1_555
P1 O1 1_555 1_555
P2 O8 1_555 1_555
O3 Mo5 1_555 1_555
O4 Mo3 1_555 1_555
O5 Mo1 1_555 1_555
O6 Mo1 1_555 1_555
O7 Mo1 1_555 1_555
O8 Mo3 1_555 1_555
O9 Mo4 1_555 1_555
O10 Mo2 1_555 1_555
O11 Mo4 1_555 1_555
O12 Mo1 1_555 1_555
O13 Mo4 1_555 1_555
O14 P1 1_555 1_555
O15 Mo1 1_555 1_555
O16 Mo2 1_555 1_555
O17 Mo2 1_555 1_555
O18 Mo3 1_555 1_555
O19 Mo2 1_555 1_555
O20 P2 1_555 1_555
O21 Mo5 1_555 1_555
O22 Mo5 1_555 1_555
O23 Mo3 1_555 1_555
C1 H1 1_555 1_555
C2 C1 1_555 1_555
H2 C2 1_555 1_555
C3 C2 1_555 1_555
H3 C3 1_555 1_555
C4 H4 1_555 1_555
C5 C4 1_555 1_555
H5 C5 1_555 1_555
C6 C5 1_555 1_555
H6 C6 1_555 1_555
C7 H7 1_555 1_555
C8 C7 1_555 1_555
H8 C8 1_555 1_555
C9 C8 1_555 1_555
H9 C9 1_555 1_555
C10 H10 1_555 1_555
C11 C10 1_555 1_555
H11 C11 1_555 1_555
C12 C11 1_555 1_555
H12 C12 1_555 1_555
C13 H13 1_555 1_555
C14 C13 1_555 1_555
H14 C14 1_555 1_555
C15 C14 1_555 1_555
H15 C15 1_555 1_555
C16 H16 1_555 1_555
C17 C16 1_555 1_555
H17 C17 1_555 1_555
C18 C17 1_555 1_555
H18 C18 1_555 1_555
C19 H19 1_555 1_555
C20 C19 1_555 1_555
H20 C20 1_555 1_555
C21 C20 1_555 1_555
H21 C21 1_555 1_555
Cu1 O13 1_555 1_555
Cu2 O14 1_555 1_555
Cu3 O6 1_555 1_555
Cu4 N13 1_555 1_555
N1 C1 1_555 1_555
N2 C3 1_555 1_555
H22 N2 1_555 1_555
N3 C4 1_555 1_555
N4 C6 1_555 1_555
H23 N4 1_555 1_555
N5 C7 1_555 1_555
N6 C9 1_555 1_555
H24 N6 1_555 1_555
N7 C10 1_555 1_555
N8 C12 1_555 1_555
H25 N8 1_555 1_555
N9 C15 1_555 1_555
N10 C13 1_555 1_555
H26 N10 1_555 1_555
N11 C16 1_555 1_555
N12 C18 1_555 1_555
H27 N12 1_555 1_555
N13 C19 1_555 1_555
N14 C21 1_555 1_555
H28 N14 1_555 1_555
O27 Cu4 1_555 1_555
O28 Cu4 1_555 1_555
H29 O28 1_555 1_555
O29 Cu2 1_555 1_555
H30 O29 1_555 1_555
Mo1A O3A 1_555 1_555
Mo2A O2A 1_555 1_555
Mo2_2 O19_2 1_555 1_555
Mo3A O2A 1_555 1_555
Mo4A O1A 1_555 1_555
Mo5A O1A 1_555 1_555
P1A O1A 1_555 1_555
P2A O8A 1_555 1_555
O3A Mo5A 1_555 1_555
O4A Mo3A 1_555 1_555
O5A Mo1A 1_555 1_555
O6A Mo1A 1_555 1_555
O6A_2 Cu3 1_555 1_555
O7A Mo1A 1_555 1_555
O8A Mo3A 1_555 1_555
O9A Mo4A 1_555 1_555
O10A Mo2A 1_555 1_555
O11A Mo4A 1_555 1_555
O12A Mo1A 1_555 1_555
O13A Cu1 1_555 1_555
O14A P1A 1_555 1_555
O15A Mo1A 1_555 1_555
O16A Mo2A 1_555 1_555
O17A Mo2A 1_555 1_555
O18A Mo3A 1_555 1_555
O19_2 Cu2 1_555 1_555
O19A Mo2A 1_555 1_555
O19A_2 Cu2A 1_555 1_555
O20A P2A 1_555 1_555
O21A Mo5A 1_555 1_555
O22A Mo5A 1_555 1_555
O23A Mo3A 1_555 1_555
C1A H1A 1_555 1_555
C2A C1A 1_555 1_555
H2A C2A 1_555 1_555
C3A C2A 1_555 1_555
H3A C3A 1_555 1_555
C4A H4A 1_555 1_555
C5A C4A 1_555 1_555
H5A C5A 1_555 1_555
C6A C5A 1_555 1_555
H6A C6A 1_555 1_555
C7A H7A 1_555 1_555
C8A C7A 1_555 1_555
H8A C8A 1_555 1_555
C9A C8A 1_555 1_555
H9A C9A 1_555 1_555
C10A H10A 1_555 1_555
C11A C10A 1_555 1_555
H11A C11A 1_555 1_555
C12A C11A 1_555 1_555
H12A C12A 1_555 1_555
C13A H13A 1_555 1_555
C14A C13A 1_555 1_555
H14A C14A 1_555 1_555
C15A C14A 1_555 1_555
H15A C15A 1_555 1_555
C16A H16A 1_555 1_555
C17A C16A 1_555 1_555
H17A C17A 1_555 1_555
C18A C17A 1_555 1_555
H18A C18A 1_555 1_555
C19A H19A 1_555 1_555
C20A C19A 1_555 1_555
H20A C20A 1_555 1_555
C21A C20A 1_555 1_555
H21A C21A 1_555 1_555
Cu2A O14A 1_555 1_555
Cu2_2 O19 1_555 1_555
Cu3_2 O6A 1_555 1_555
N1A Cu1 1_555 1_555
N2A C3A 1_555 1_555
H22A N2A 1_555 1_555
N3A Cu1 1_555 1_555
N4A C6A 1_555 1_555
H23A N4A 1_555 1_555
N5A C7A 1_555 1_555
N6A C9A 1_555 1_555
H24A N6A 1_555 1_555
N7A C10A 1_555 1_555
N8A C12A 1_555 1_555
H25A N8A 1_555 1_555
N9A Cu3 1_555 1_555
N10A C13A 1_555 1_555
H26A N10A 1_555 1_555
N11A Cu3 1_555 1_555
N12A C18A 1_555 1_555
H27A N12A 1_555 1_555
N13A Cu4 1_555 1_555
N14A C21A 1_555 1_555
H28A N14A 1_555 1_555
O27A Cu4 1_555 1_555
O28A Cu4 1_555 1_555
H29A O28A 1_555 1_555
O29A Cu2A 1_555 1_555
H30A O29A 1_555 1_555
Mo2 O5 1_555 1_555
Mo3 O17 1_555 1_555
Mo4 O4 1_555 1_555
Mo4 O8 1_555 1_555
Mo5 O9 1_555 1_555
Mo5 O12 1_555 1_555
P1 O7 1_555 1_555
P1 O17 1_555 1_555
P2 O10 1_555 1_555
P2 O12 1_555 1_555
Cu1 N1 1_555 1_555
Cu1 N3 1_555 1_555
Cu2 N5 1_555 1_555
Cu2 N7 1_555 1_555
Cu3 N9 1_555 1_555
Cu3 N11 1_555 1_555
N1 N2 1_555 1_555
N3 N4 1_555 1_555
N5 N6 1_555 1_555
N7 N8 1_555 1_555
N9 N10 1_555 1_555
N11 N12 1_555 1_555
N13 N14 1_555 1_555
Mo2A O5A 1_555 1_555
Mo3A O17A 1_555 1_555
Mo4A O4A 1_555 1_555
Mo4A O8A 1_555 1_555
Mo4A O13A 1_555 1_555
Mo5A O9A 1_555 1_555
Mo5A O12A 1_555 1_555
P1A O7A 1_555 1_555
P1A O17A 1_555 1_555
P2A O10A 1_555 1_555
P2A O12A 1_555 1_555
C1A N1A 1_555 1_555
C4A N3A 1_555 1_555
C15A N9A 1_555 1_555
C16A N11A 1_555 1_555
C19A N13A 1_555 1_555
Cu2A N5A 1_555 1_555
Cu2A N7A 1_555 1_555
N1A N2A 1_555 1_555
N3A N4A 1_555 1_555
N5A N6A 1_555 1_555
N7A N8A 1_555 1_555
N9A N10A 1_555 1_555
N11A N12A 1_555 1_555
N13A N14A 1_555 1_555

#END
