
#######################################################################
#
#                 Cambridge Crystallographic Data Centre
#                                CCDC 
#
#######################################################################
#
# If this CIF has been generated from an entry in the Cambridge 
# Structural Database, then it will include bibliographic, chemical, 
# crystal, experimental, refinement or atomic coordinate data resulting 
# from the CCDC's data processing and validation procedures.
#
#######################################################################

data_AGORUK
_symmetry_cell_setting           orthorhombic
_symmetry_space_group_name_H-M   'P m n 21'
_symmetry_Int_Tables_number      31
_space_group_name_Hall           'P 2ac -2'
loop_
_symmetry_equiv_pos_site_id
_symmetry_equiv_pos_as_xyz
1 x,y,z
2 1/2-x,-y,1/2+z
3 1/2+x,-y,1/2+z
4 -x,y,z
_cell_length_a                   6.7727(14)
_cell_length_b                   4.9337(10)
_cell_length_c                   11.498(2)
_cell_angle_alpha                90
_cell_angle_beta                 90
_cell_angle_gamma                90
_cell_volume                     384.2
loop_
_atom_site_label
_atom_site_type_symbol
_atom_site_fract_x
_atom_site_fract_y
_atom_site_fract_z
O1 O 0.0000 1.5373(9) 0.0427(4)
S1 S 0.0000 1.6713(3) 0.15739(14)
O2 O 0.0000 1.9737(9) 0.1379(4)
Cu1 Cu 0.0000 1.08447(14) -0.02394(4)
N1 N 0.2952(5) 1.0551(6) -0.0280(5)
O3 O 0.1785(5) 1.5986(6) 0.2234(4)
C1 C 0.3976(7) 0.8964(9) -0.0979(4)
H1 H 0.3308 0.7815 -0.1485
C2 C 0.3988(8) 1.2026(10) 0.0472(4)
H2 H 0.3321 1.3088 0.1012
O4 O 0.0000 1.1580(10) -0.1920(4)
O2_2 O 0.0000 0.9737(9) 0.1379(4)
Cu1_2 Cu 0.0000 2.08447(14) -0.02394(4)
Cu1_3 Cu 1.0000 1.08447(14) -0.02394(4)
N1C N 0.7048(5) 1.0551(6) -0.0280(5)
N1C_2 N -0.2952(5) 1.0551(6) -0.0280(5)
O3C O -0.1785(5) 1.5986(6) 0.2234(4)
C1C C 0.6024(7) 0.8964(9) -0.0979(4)
H1C H 0.6692 0.7815 -0.1485
C2C C 0.6012(8) 1.2026(10) 0.0472(4)
H2C H 0.6679 1.3088 0.1012
loop_
_geom_bond_atom_site_label_1
_geom_bond_atom_site_label_2
_geom_bond_site_symmetry_1
_geom_bond_site_symmetry_2
O1 S1 1_555 1_555
S1 O2 1_555 1_555
O2 Cu1_2 1_555 1_555
Cu1 O1 1_555 1_555
N1 Cu1 1_555 1_555
O3 S1 1_555 1_555
C1 N1 1_555 1_555
H1 C1 1_555 1_555
C2 N1 1_555 1_555
H2 C2 1_555 1_555
O4 Cu1 1_555 1_555
O2_2 Cu1 1_555 1_555
Cu1_3 N1C 1_555 1_555
N1C C1C 1_555 1_555
N1C_2 Cu1 1_555 1_555
O3C S1 1_555 1_555
C1C C1 1_555 1_555
H1C C1C 1_555 1_555
C2C C2 1_555 1_555
H2C C2C 1_555 1_555
N1C C2C 1_555 1_555

#END
