
#######################################################################
#
#                 Cambridge Crystallographic Data Centre
#                                CCDC 
#
#######################################################################
#
# If this CIF has been generated from an entry in the Cambridge 
# Structural Database, then it will include bibliographic, chemical, 
# crystal, experimental, refinement or atomic coordinate data resulting 
# from the CCDC's data processing and validation procedures.
#
#######################################################################

data_AGOSOE
_symmetry_cell_setting           monoclinic
_symmetry_space_group_name_H-M   'P 21/c'
_symmetry_Int_Tables_number      14
_space_group_name_Hall           '-P 2ybc'
loop_
_symmetry_equiv_pos_site_id
_symmetry_equiv_pos_as_xyz
1 x,y,z
2 x,1/2-y,1/2+z
3 -x,-y,-z
4 -x,1/2+y,1/2-z
_cell_length_a                   10.565(2)
_cell_length_b                   12.130(2)
_cell_length_c                   17.726(4)
_cell_angle_alpha                90.00
_cell_angle_beta                 103.72(3)
_cell_angle_gamma                90.00
_cell_volume                     2206.83
loop_
_atom_site_label
_atom_site_type_symbol
_atom_site_fract_x
_atom_site_fract_y
_atom_site_fract_z
Cu1 Cu 0.0000 0.0000 0.0000
N1 N -0.1733(3) 0.0665(3) 0.0016(2)
N2 N -0.3470(3) 0.1724(3) -0.0218(2)
N3 N -0.9017(4) 0.3585(4) -0.2798(2)
N4 N -0.9377(4) 0.4598(3) -0.3850(2)
N5 N -0.6103(8) -0.1334(5) -0.2314(4)
N6 N -0.5941(12) -0.2856(5) -0.1632(5)
O2 O -0.1166(7) -0.3462(6) 0.0395(5)
O4 O -0.0613(4) -0.1826(4) 0.0419(3)
C1 C -0.5445(4) 0.2032(4) -0.1265(3)
C2 C -0.2288(4) 0.1554(4) -0.0347(3)
H1 H -0.1904 0.2006 -0.0653
C3 C -0.5179(5) 0.1106(4) -0.1661(3)
H2 H -0.4361 0.0777 -0.1520
C4 C -0.2596(5) 0.0264(4) 0.0417(3)
H3 H -0.2459 -0.0350 0.0740
C5 C -0.4409(4) 0.2534(4) -0.0603(3)
H4 H -0.3959 0.3117 -0.0808
H5 H -0.4831 0.2860 -0.0226
C6 C -0.6679(4) 0.2509(4) -0.1473(3)
H6 H -0.6866 0.3118 -0.1200
C7 C -0.3676(4) 0.0899(4) 0.0269(3)
H7 H -0.4415 0.0798 0.0460
C8 C -0.6140(5) 0.0663(4) -0.2275(3)
C9 C -0.5842(7) -0.0335(5) -0.2694(4)
H8 H -0.6368 -0.0325 -0.3223
H9 H -0.4933 -0.0320 -0.2714
C10 C -0.7632(5) 0.2089(4) -0.2084(3)
C11 C -0.7337(5) 0.1174(5) -0.2479(3)
H10 H -0.7967 0.0896 -0.2894
C12 C -0.8974(5) 0.2614(5) -0.2291(3)
H11 H -0.9605 0.2074 -0.2552
H12 H -0.9215 0.2835 -0.1818
C13 C -0.8583(7) 0.4593(6) -0.2582(3)
H13 H -0.8190 0.4820 -0.2080
C14 C -0.8821(7) 0.5227(5) -0.3233(3)
H14 H -0.8631 0.5974 -0.3250
C15 C -0.9503(5) 0.3617(4) -0.3569(3)
H15 H -0.9882 0.3019 -0.3866
C16 C -0.1193(9) -0.2526(5) 0.0210(4)
C17 C -0.2579(8) -0.2328(9) -0.0463(6)
H16 H -0.2629 -0.1574 -0.0632
H17 H -0.2596 -0.2804 -0.0899
H18 H -0.3307 -0.2493 -0.0246
C18 C -0.7371(12) -0.1717(9) -0.2303(6)
H19 H -0.8152 -0.1389 -0.2556
C19 C -0.7258(14) -0.2565(11) -0.1897(8)
H20 H -0.7950 -0.2953 -0.1785
C20 C -0.5203(15) -0.2011(9) -0.1904(6)
H21 H -0.4302 -0.1950 -0.1815
N1B N 0.1733(3) -0.0665(3) -0.0016(2)
N2B N 0.3470(3) -0.1724(3) 0.0218(2)
N3B N 0.9017(4) -0.3585(4) 0.2798(2)
N4B N 0.9377(4) -0.4598(3) 0.3850(2)
N5B N 0.6103(8) 0.1334(5) 0.2314(4)
N6B N 0.5941(12) 0.2856(5) 0.1632(5)
C1B C 0.5445(4) -0.2032(4) 0.1265(3)
C2B C 0.2288(4) -0.1554(4) 0.0347(3)
H1B H 0.1904 -0.2006 0.0653
C3B C 0.5179(5) -0.1106(4) 0.1661(3)
H2B H 0.4361 -0.0777 0.1520
C4B C 0.2596(5) -0.0264(4) -0.0417(3)
H3B H 0.2459 0.0350 -0.0740
C5B C 0.4409(4) -0.2534(4) 0.0603(3)
H4B H 0.3959 -0.3117 0.0808
H5B H 0.4831 -0.2860 0.0226
C6B C 0.6679(4) -0.2509(4) 0.1473(3)
H6B H 0.6866 -0.3118 0.1200
C7B C 0.3676(4) -0.0899(4) -0.0269(3)
H7B H 0.4415 -0.0798 -0.0460
C8B C 0.6140(5) -0.0663(4) 0.2275(3)
C9B C 0.5842(7) 0.0335(5) 0.2694(4)
H8B H 0.6368 0.0325 0.3223
H9B H 0.4933 0.0320 0.2714
C10B C 0.7632(5) -0.2089(4) 0.2084(3)
C11B C 0.7337(5) -0.1174(5) 0.2479(3)
H10B H 0.7967 -0.0896 0.2894
C12B C 0.8974(5) -0.2614(5) 0.2291(3)
H11B H 0.9605 -0.2074 0.2552
H12B H 0.9215 -0.2835 0.1818
C13B C 0.8583(7) -0.4593(6) 0.2582(3)
H13B H 0.8190 -0.4820 0.2080
C14B C 0.8821(7) -0.5227(5) 0.3233(3)
H14B H 0.8631 -0.5974 0.3250
C15B C 0.9503(5) -0.3617(4) 0.3569(3)
H15B H 0.9882 -0.3019 0.3866
C18B C 0.7371(12) 0.1717(9) 0.2303(6)
H19B H 0.8152 0.1389 0.2556
C19B C 0.7258(14) 0.2565(11) 0.1897(8)
H20B H 0.7950 0.2953 0.1785
C20B C 0.5203(15) 0.2011(9) 0.1904(6)
H21B H 0.4302 0.1950 0.1815
O2B O 0.1166(7) 0.3462(6) -0.0395(5)
O4B O 0.0613(4) 0.1826(4) -0.0419(3)
C16B C 0.1193(9) 0.2526(5) -0.0210(4)
C17B C 0.2579(8) 0.2328(9) 0.0463(6)
H16B H 0.2629 0.1574 0.0632
H17B H 0.2596 0.2804 0.0899
H18B H 0.3307 0.2493 0.0246
N4A N 0.0623(4) 0.0402(3) 0.1150(2)
N4C N -0.0623(4) -0.0402(3) -0.1150(2)
Cu1A Cu -1.0000 0.5000 -0.5000
Cu1A_2 Cu 1.0000 -0.5000 0.5000
O1 O -0.8829(7) -0.0823(7) -0.3981(4)
O3 O -1.0663(9) 0.1149(7) -0.3999(5)
O5 O -1.2816(13) 0.0123(8) -0.5005(9)
O6 O -1.4561(12) 0.0204(7) -0.4253(7)
loop_
_geom_bond_atom_site_label_1
_geom_bond_atom_site_label_2
_geom_bond_site_symmetry_1
_geom_bond_site_symmetry_2
Cu1 N1 1_555 1_555
N1 C2 1_555 1_555
N2 C2 1_555 1_555
N3 C12 1_555 1_555
N4 C14 1_555 1_555
N5 C9 1_555 1_555
N6 C19 1_555 1_555
O2 C16 1_555 1_555
O4 Cu1 1_555 1_555
C1 C3 1_555 1_555
C2 H1 1_555 1_555
C3 H2 1_555 1_555
C4 N1 1_555 1_555
H3 C4 1_555 1_555
C5 N2 1_555 1_555
H4 C5 1_555 1_555
H5 C5 1_555 1_555
C6 C1 1_555 1_555
H6 C6 1_555 1_555
C7 N2 1_555 1_555
H7 C7 1_555 1_555
C8 C3 1_555 1_555
C9 C8 1_555 1_555
H8 C9 1_555 1_555
H9 C9 1_555 1_555
C10 C6 1_555 1_555
C11 C8 1_555 1_555
H10 C11 1_555 1_555
C12 C10 1_555 1_555
H11 C12 1_555 1_555
H12 C12 1_555 1_555
C13 N3 1_555 1_555
H13 C13 1_555 1_555
C14 C13 1_555 1_555
H14 C14 1_555 1_555
C15 N3 1_555 1_555
H15 C15 1_555 1_555
C16 O4 1_555 1_555
C17 C16 1_555 1_555
H16 C17 1_555 1_555
H17 C17 1_555 1_555
H18 C17 1_555 1_555
C18 N5 1_555 1_555
H19 C18 1_555 1_555
C19 C18 1_555 1_555
H20 C19 1_555 1_555
C20 N5 1_555 1_555
H21 C20 1_555 1_555
N1B Cu1 1_555 1_555
N2B C2B 1_555 1_555
N3B C12B 1_555 1_555
N4B C14B 1_555 1_555
N5B C9B 1_555 1_555
N6B C19B 1_555 1_555
C1B C3B 1_555 1_555
C2B N1B 1_555 1_555
H1B C2B 1_555 1_555
C3B H2B 1_555 1_555
C4B N1B 1_555 1_555
H3B C4B 1_555 1_555
C5B N2B 1_555 1_555
H4B C5B 1_555 1_555
H5B C5B 1_555 1_555
C6B C1B 1_555 1_555
H6B C6B 1_555 1_555
C7B N2B 1_555 1_555
H7B C7B 1_555 1_555
C8B C3B 1_555 1_555
C9B C8B 1_555 1_555
H8B C9B 1_555 1_555
H9B C9B 1_555 1_555
C10B C6B 1_555 1_555
C11B C8B 1_555 1_555
H10B C11B 1_555 1_555
C12B C10B 1_555 1_555
H11B C12B 1_555 1_555
H12B C12B 1_555 1_555
C13B N3B 1_555 1_555
H13B C13B 1_555 1_555
C14B C13B 1_555 1_555
H14B C14B 1_555 1_555
C15B N3B 1_555 1_555
H15B C15B 1_555 1_555
C18B N5B 1_555 1_555
H19B C18B 1_555 1_555
C19B C18B 1_555 1_555
H20B C19B 1_555 1_555
C20B N5B 1_555 1_555
H21B C20B 1_555 1_555
O2B C16B 1_555 1_555
O4B Cu1 1_555 1_555
C16B O4B 1_555 1_555
C17B C16B 1_555 1_555
H16B C17B 1_555 1_555
H17B C17B 1_555 1_555
H18B C17B 1_555 1_555
N4A Cu1 1_555 1_555
N4C Cu1 1_555 1_555
Cu1A N4 1_555 1_555
Cu1A_2 N4B 1_555 1_555
N4 C15 1_555 1_555
N6 C20 1_555 1_555
C1 C5 1_555 1_555
C4 C7 1_555 1_555
C10 C11 1_555 1_555
N4B C15B 1_555 1_555
N6B C20B 1_555 1_555
C1B C5B 1_555 1_555
C4B C7B 1_555 1_555
C10B C11B 1_555 1_555

#END
