
#######################################################################
#
#                 Cambridge Crystallographic Data Centre
#                                CCDC 
#
#######################################################################
#
# If this CIF has been generated from an entry in the Cambridge 
# Structural Database, then it will include bibliographic, chemical, 
# crystal, experimental, refinement or atomic coordinate data resulting 
# from the CCDC's data processing and validation procedures.
#
#######################################################################

data_AGOTAS
_symmetry_cell_setting           monoclinic
_symmetry_space_group_name_H-M   'C 2/c'
_symmetry_Int_Tables_number      15
_space_group_name_Hall           '-C 2yn'
loop_
_symmetry_equiv_pos_site_id
_symmetry_equiv_pos_as_xyz
1 x,y,z
2 1/2+x,1/2+y,z
3 -x,y,1/2-z
4 1/2-x,1/2+y,1/2-z
5 -x,-y,-z
6 1/2-x,1/2-y,-z
7 x,-y,1/2+z
8 1/2+x,1/2-y,1/2+z
_cell_length_a                   20.7062(10)
_cell_length_b                   7.5190(3)
_cell_length_c                   19.7050(8)
_cell_angle_alpha                90
_cell_angle_beta                 101.772(3)
_cell_angle_gamma                90
_cell_volume                     3003.34
loop_
_atom_site_label
_atom_site_type_symbol
_atom_site_fract_x
_atom_site_fract_y
_atom_site_fract_z
Zn1 Zn 0.326495(10) 0.92304(3) 0.240950(9)
S1 S 0.31088(2) 0.95635(6) 0.00710(2)
C1 C 0.36570(9) 0.6562(2) 0.03309(9)
H1 H 0.3886 0.5512 0.0297
C2 C 0.35489(9) 0.7775(2) -0.01750(9)
C3 C 0.37493(12) 0.7758(3) -0.08611(11)
H2 H 0.3961 0.6648 -0.0919
H3 H 0.4050 0.8719 -0.0881
H4 H 0.3366 0.7896 -0.1224
C4 C 0.31018(8) 0.8592(2) 0.08776(8)
O1 O 0.39812(6) 0.74011(16) 0.23394(6)
O2 O 0.40281(8) 1.09552(18) 0.26404(9)
H5 H 0.3890 1.1976 0.2576
O3 O 0.25856(7) 1.13113(18) 0.24075(6)
N1 N 0.28517(8) 0.93154(18) 0.13709(7)
C5 C 0.24795(10) 1.0948(2) 0.11827(9)
H6 H 0.2072 1.0674 0.0860
H7 H 0.2734 1.1749 0.0954
C6 C 0.23224(9) 1.1854(2) 0.18189(9)
O4 O 0.19274(7) 1.31640(17) 0.17101(6)
N2 N 0.34017(7) 0.69805(18) 0.09152(7)
C7 C 0.38303(9) 0.5839(2) 0.21313(9)
O5 O 0.40243(9) 0.44817(18) 0.24625(8)
C8 C 0.33514(10) 0.5626(2) 0.14360(9)
H8 H 0.3424 0.4469 0.1247
H9 H 0.2905 0.5639 0.1518
H10 H 0.4364(14) 1.069(3) 0.2877(14)
Zn1C Zn 0.173505(10) 1.42304(3) 0.259050(9)
O4C O 0.30726(7) 0.81640(17) 0.32899(6)
O6 O 0.51698(10) 0.9486(2) 0.34324(10)
H11 H 0.540(2) 0.887(5) 0.321(2)
H12 H 0.501(2) 0.893(6) 0.362(2)
O7 O 0.49599(13) 0.5487(4) 0.36553(12)
H13 H 0.475(2) 0.535(5) 0.336(2)
H14 H 0.502(2) 0.464(7) 0.383(3)
O8 O 0.56524(13) 0.2549(3) 0.42152(16)
H15 H 0.5535(18) 0.152(5) 0.4001(18)
H16 H 0.554(2) 0.227(6) 0.455(2)
O9 O 0.07503(19) 0.2546(4) 0.06344(15)
H17 H 0.1060(19) 0.275(5) 0.078(2)
H18 H 0.057(3) 0.187(8) 0.079(3)
loop_
_geom_bond_atom_site_label_1
_geom_bond_atom_site_label_2
_geom_bond_site_symmetry_1
_geom_bond_site_symmetry_2
Zn1 O1 1_555 1_555
S1 C2 1_555 1_555
C1 H1 1_555 1_555
C2 C1 1_555 1_555
C3 C2 1_555 1_555
H2 C3 1_555 1_555
H3 C3 1_555 1_555
H4 C3 1_555 1_555
C4 S1 1_555 1_555
O1 C7 1_555 1_555
O2 Zn1 1_555 1_555
H5 O2 1_555 1_555
O3 Zn1 1_555 1_555
N1 Zn1 1_555 1_555
C5 N1 1_555 1_555
H6 C5 1_555 1_555
H7 C5 1_555 1_555
C6 O3 1_555 1_555
O4 C6 1_555 1_555
N2 C1 1_555 1_555
C7 O5 1_555 1_555
C8 N2 1_555 1_555
H8 C8 1_555 1_555
H9 C8 1_555 1_555
H10 O2 1_555 1_555
O6 H11 1_555 1_555
H12 O6 1_555 1_555
O7 H13 1_555 1_555
H14 O7 1_555 1_555
O8 H15 1_555 1_555
H16 O8 1_555 1_555
O9 H17 1_555 1_555
H18 O9 1_555 1_555
Zn1C O4 1_555 1_555
O4C Zn1 1_555 1_555
C4 N1 1_555 1_555
C4 N2 1_555 1_555
C5 C6 1_555 1_555
C7 C8 1_555 1_555

#END
