
#######################################################################
#
#                 Cambridge Crystallographic Data Centre
#                                CCDC 
#
#######################################################################
#
# If this CIF has been generated from an entry in the Cambridge 
# Structural Database, then it will include bibliographic, chemical, 
# crystal, experimental, refinement or atomic coordinate data resulting 
# from the CCDC's data processing and validation procedures.
#
#######################################################################

data_AGOVID
_symmetry_cell_setting           cubic
_symmetry_space_group_name_H-M   'I -4 3 m'
_symmetry_Int_Tables_number      217
_space_group_name_Hall           'I -4 2 3'
loop_
_symmetry_equiv_pos_site_id
_symmetry_equiv_pos_as_xyz
1 x,y,z
2 -x,-y,z
3 -x,y,-z
4 x,-y,-z
5 z,x,y
6 z,-x,-y
7 -z,-x,y
8 -z,x,-y
9 y,z,x
10 -y,z,-x
11 y,-z,-x
12 -y,-z,x
13 y,x,z
14 -y,-x,z
15 y,-x,-z
16 -y,x,-z
17 x,z,y
18 -x,z,-y
19 -x,-z,y
20 x,-z,-y
21 z,y,x
22 z,-y,-x
23 -z,y,-x
24 -z,-y,x
25 1/2+x,1/2+y,1/2+z
26 1/2-x,1/2-y,1/2+z
27 1/2-x,1/2+y,1/2-z
28 1/2+x,1/2-y,1/2-z
29 1/2+z,1/2+x,1/2+y
30 1/2+z,1/2-x,1/2-y
31 1/2-z,1/2-x,1/2+y
32 1/2-z,1/2+x,1/2-y
33 1/2+y,1/2+z,1/2+x
34 1/2-y,1/2+z,1/2-x
35 1/2+y,1/2-z,1/2-x
36 1/2-y,1/2-z,1/2+x
37 1/2+y,1/2+x,1/2+z
38 1/2-y,1/2-x,1/2+z
39 1/2+y,1/2-x,1/2-z
40 1/2-y,1/2+x,1/2-z
41 1/2+x,1/2+z,1/2+y
42 1/2-x,1/2+z,1/2-y
43 1/2-x,1/2-z,1/2+y
44 1/2+x,1/2-z,1/2-y
45 1/2+z,1/2+y,1/2+x
46 1/2+z,1/2-y,1/2-x
47 1/2-z,1/2+y,1/2-x
48 1/2-z,1/2-y,1/2+x
_cell_length_a                   30.0772(5)
_cell_length_b                   30.0772(5)
_cell_length_c                   30.0772(5)
_cell_angle_alpha                90
_cell_angle_beta                 90
_cell_angle_gamma                90
_cell_volume                     27209
loop_
_atom_site_label
_atom_site_type_symbol
_atom_site_fract_x
_atom_site_fract_y
_atom_site_fract_z
In1 In 0.220869(15) 0.779131(15) 0.138278(18)
O1 O 0.2284(2) 0.84209(17) 0.10522(17)
O2 O 0.1949(2) 0.8051(2) 0.1949(2)
O3 O 0.33745(18) 0.71544(19) -0.21126(15)
N1 N 0.2494(2) 0.7506(2) 0.0766(3)
C1 C 0.2306(3) 0.7165(3) 0.0566(3)
H1 H 0.2090 0.7003 0.0717
C2 C 0.2419(4) 0.7043(3) 0.0147(3)
H2 H 0.2273 0.6807 0.0012
C3 C 0.2739(3) 0.7261(3) -0.0075(3)
C4 C 0.2845(4) 0.7155(4) -0.0548(4)
C5 C 0.3156(5) 0.7384(6) -0.0775(3)
H3 H 0.3300 0.7619 -0.0635
C6 C 0.3270(5) 0.7283(5) -0.1220(3)
H4 H 0.3514 0.7416 -0.1355
C7 C 0.2296(4) 0.8818(2) 0.1182(2)
C8 C 0.2332(5) 0.9168(3) 0.0832(3)
C9 C 0.2331(8) 0.9616(3) 0.0941(3)
H5 H 0.2280 0.9704 0.1233
C10 C 0.2404(6) 0.9930(4) 0.0619(3)
H6 H 0.2466 1.0221 0.0703
C11 C 0.2386(6) 0.9825(3) 0.0175(3)
C12 C 0.3083(2) 0.6917(2) -0.1937(3)
C13 C 0.3015(3) 0.6985(3) -0.1448(3)
O1C O 0.2284(2) 1.15791(17) -0.10522(17)
C7C C 0.2296(4) 1.1182(2) -0.1182(2)
C8C C 0.2332(5) 1.0832(3) -0.0832(3)
C9C C 0.2331(8) 1.0384(3) -0.0941(3)
H5C H 0.2280 1.0296 -0.1233
C10C C 0.2404(6) 1.0070(4) -0.0619(3)
H6C H 0.2466 0.9779 -0.0703
C11C C 0.2386(6) 1.0175(3) -0.0175(3)
O1P O 0.2284(2) 1.10522(17) -0.15791(17)
C9P C 0.2331(8) 1.0941(3) -0.0384(3)
H5P H 0.2280 1.1233 -0.0296
C10P C 0.2404(6) 1.0619(3) -0.0070(4)
H6P H 0.2466 1.0703 0.0221
O1S O 0.2284(2) 0.89478(17) 0.15791(17)
C9S C 0.2331(8) 0.9059(3) 0.0384(3)
H5S H 0.2280 0.8767 0.0296
C10S C 0.2404(6) 0.9381(3) 0.0070(4)
H6S H 0.2466 0.9297 -0.0221
C1M C 0.2835(3) 0.7694(3) 0.0566(3)
H1M H 0.2997 0.7910 0.0717
C2M C 0.2957(3) 0.7581(4) 0.0147(3)
H2M H 0.3193 0.7727 0.0012
C5M C 0.2616(6) 0.6844(5) -0.0775(3)
H3M H 0.2381 0.6700 -0.0635
C6M C 0.2717(5) 0.6730(5) -0.1220(3)
H4M H 0.2584 0.6486 -0.1355
O3M O 0.28456(19) 0.66255(18) -0.21126(15)
In1C In 0.220869(15) 1.220869(15) -0.138278(18)
O2C O 0.1949(2) 1.1949(2) -0.1949(2)
O3C O 0.33745(18) 1.28456(19) 0.21126(15)
N1C N 0.2494(2) 1.2494(2) -0.0766(3)
C1C C 0.2306(3) 1.2835(3) -0.0566(3)
H1C H 0.2090 1.2997 -0.0717
C2C C 0.2419(4) 1.2957(3) -0.0147(3)
H2C H 0.2273 1.3193 -0.0012
C3C C 0.2739(3) 1.2739(3) 0.0075(3)
C4C C 0.2845(4) 1.2845(4) 0.0548(4)
C5C C 0.3156(5) 1.2616(6) 0.0775(3)
H3C H 0.3300 1.2381 0.0635
C6C C 0.3270(5) 1.2717(5) 0.1220(3)
H4C H 0.3514 1.2584 0.1355
C12C C 0.3083(2) 1.3083(2) 0.1937(3)
C13C C 0.3015(3) 1.3015(3) 0.1448(3)
C1O C 0.2835(3) 1.2306(3) -0.0566(3)
H1O H 0.2997 1.2090 -0.0717
C2O C 0.2957(3) 1.2419(4) -0.0147(3)
H2O H 0.3193 1.2273 -0.0012
C5O C 0.2616(6) 1.3156(5) 0.0775(3)
H3O H 0.2381 1.3300 0.0635
C6O C 0.2717(5) 1.3270(5) 0.1220(3)
H4O H 0.2584 1.3514 0.1355
O3O O 0.28456(19) 1.33745(18) 0.21126(15)
In1D In 0.138278(18) 1.220869(15) -0.220869(15)
O1D O 0.10522(17) 1.2284(2) -0.15791(17)
O3D O -0.21126(15) 1.33745(18) -0.28456(19)
N1D N 0.0766(3) 1.2494(2) -0.2494(2)
C1D C 0.0566(3) 1.2306(3) -0.2835(3)
H1D H 0.0717 1.2090 -0.2997
C2D C 0.0147(3) 1.2419(4) -0.2957(3)
H2D H 0.0012 1.2273 -0.3193
C3D C -0.0075(3) 1.2739(3) -0.2739(3)
C4D C -0.0548(4) 1.2845(4) -0.2845(4)
C5D C -0.0775(3) 1.3156(5) -0.2616(6)
H3D H -0.0635 1.3300 -0.2381
C6D C -0.1220(3) 1.3270(5) -0.2717(5)
H4D H -0.1355 1.3514 -0.2584
C7D C 0.1182(2) 1.2296(4) -0.1182(2)
C8D C 0.0832(3) 1.2332(5) -0.0832(3)
C9D C 0.0941(3) 1.2331(8) -0.0384(3)
H5D H 0.1233 1.2280 -0.0296
C10D C 0.0619(3) 1.2404(6) -0.0070(4)
H6D H 0.0703 1.2466 0.0221
C11D C 0.0175(3) 1.2386(6) -0.0175(3)
C12D C -0.1937(3) 1.3083(2) -0.3083(2)
C13D C -0.1448(3) 1.3015(3) -0.3015(3)
O1G O -0.10522(17) 1.2284(2) 0.15791(17)
C7G C -0.1182(2) 1.2296(4) 0.1182(2)
C8G C -0.0832(3) 1.2332(5) 0.0832(3)
C9G C -0.0941(3) 1.2331(8) 0.0384(3)
H5G H -0.1233 1.2280 0.0296
C10G C -0.0619(3) 1.2404(6) 0.0070(4)
H6G H -0.0703 1.2466 -0.0221
C11G C -0.0175(3) 1.2386(6) 0.0175(3)
O1L O -0.15791(17) 1.2284(2) 0.10522(17)
C9L C -0.0384(3) 1.2331(8) 0.0941(3)
H5L H -0.0296 1.2280 0.1233
C10L C -0.0070(4) 1.2404(6) 0.0619(3)
H6L H 0.0221 1.2466 0.0703
O1O O 0.15791(17) 1.2284(2) -0.10522(17)
C9O C 0.0384(3) 1.2331(8) -0.0941(3)
H5O H 0.0296 1.2280 -0.1233
C10O C 0.0070(4) 1.2404(6) -0.0619(3)
H6O H -0.0221 1.2466 -0.0703
C1U C 0.0566(3) 1.2835(3) -0.2306(3)
H1U H 0.0717 1.2997 -0.2090
C2U C 0.0147(3) 1.2957(3) -0.2419(4)
H2U H 0.0012 1.3193 -0.2273
C5U C -0.0775(3) 1.2616(6) -0.3156(5)
H3U H -0.0635 1.2381 -0.3300
C6U C -0.1220(3) 1.2717(5) -0.3270(5)
H4U H -0.1355 1.2584 -0.3514
O3U O -0.21126(15) 1.28456(19) -0.33745(18)
In1E In 0.138278(18) 0.779131(15) 0.220869(15)
O1E O 0.10522(17) 0.7716(2) 0.15791(17)
O3E O -0.21126(15) 0.66255(18) 0.28456(19)
N1E N 0.0766(3) 0.7506(2) 0.2494(2)
C1E C 0.0566(3) 0.7694(3) 0.2835(3)
H1E H 0.0717 0.7910 0.2997
C2E C 0.0147(3) 0.7581(4) 0.2957(3)
H2E H 0.0012 0.7727 0.3193
C3E C -0.0075(3) 0.7261(3) 0.2739(3)
C4E C -0.0548(4) 0.7155(4) 0.2845(4)
C5E C -0.0775(3) 0.6844(5) 0.2616(6)
H3E H -0.0635 0.6700 0.2381
C6E C -0.1220(3) 0.6730(5) 0.2717(5)
H4E H -0.1355 0.6486 0.2584
C7E C 0.1182(2) 0.7704(4) 0.1182(2)
C8E C 0.0832(3) 0.7668(5) 0.0832(3)
C9E C 0.0941(3) 0.7669(8) 0.0384(3)
H5E H 0.1233 0.7720 0.0296
C10E C 0.0619(3) 0.7596(6) 0.0070(4)
H6E H 0.0703 0.7534 -0.0221
C11E C 0.0175(3) 0.7614(6) 0.0175(3)
C12E C -0.1937(3) 0.6917(2) 0.3083(2)
C13E C -0.1448(3) 0.6985(3) 0.3015(3)
O1F O -0.10522(17) 0.7716(2) -0.15791(17)
C7F C -0.1182(2) 0.7704(4) -0.1182(2)
C8F C -0.0832(3) 0.7668(5) -0.0832(3)
C9F C -0.0941(3) 0.7669(8) -0.0384(3)
H5F H -0.1233 0.7720 -0.0296
C10F C -0.0619(3) 0.7596(6) -0.0070(4)
H6F H -0.0703 0.7534 0.0221
C11F C -0.0175(3) 0.7614(6) -0.0175(3)
O1N O -0.15791(17) 0.7716(2) -0.10522(17)
C9N C -0.0384(3) 0.7669(8) -0.0941(3)
H5N H -0.0296 0.7720 -0.1233
C10N C -0.0070(4) 0.7596(6) -0.0619(3)
H6N H 0.0221 0.7534 -0.0703
O1M O 0.15791(17) 0.7716(2) 0.10522(17)
C9M C 0.0384(3) 0.7669(8) 0.0941(3)
H5M H 0.0296 0.7720 0.1233
C10M C 0.0070(4) 0.7596(6) 0.0619(3)
H6M H -0.0221 0.7534 0.0703
C1T C 0.0566(3) 0.7165(3) 0.2306(3)
H1T H 0.0717 0.7003 0.2090
C2T C 0.0147(3) 0.7043(3) 0.2419(4)
H2T H 0.0012 0.6807 0.2273
C5T C -0.0775(3) 0.7384(6) 0.3156(5)
H3T H -0.0635 0.7619 0.3300
C6T C -0.1220(3) 0.7283(5) 0.3270(5)
H4T H -0.1355 0.7416 0.3514
O3T O -0.21126(15) 0.71544(19) 0.33745(18)
In1F In -0.138278(18) 0.779131(15) -0.220869(15)
O3F O 0.21126(15) 0.66255(18) -0.28456(19)
N1F N -0.0766(3) 0.7506(2) -0.2494(2)
C1F C -0.0566(3) 0.7694(3) -0.2835(3)
H1F H -0.0717 0.7910 -0.2997
C2F C -0.0147(3) 0.7581(4) -0.2957(3)
H2F H -0.0012 0.7727 -0.3193
C3F C 0.0075(3) 0.7261(3) -0.2739(3)
C4F C 0.0548(4) 0.7155(4) -0.2845(4)
C5F C 0.0775(3) 0.6844(5) -0.2616(6)
H3F H 0.0635 0.6700 -0.2381
C6F C 0.1220(3) 0.6730(5) -0.2717(5)
H4F H 0.1355 0.6486 -0.2584
C12F C 0.1937(3) 0.6917(2) -0.3083(2)
C13F C 0.1448(3) 0.6985(3) -0.3015(3)
C1V C -0.0566(3) 0.7165(3) -0.2306(3)
H1V H -0.0717 0.7003 -0.2090
C2V C -0.0147(3) 0.7043(3) -0.2419(4)
H2V H -0.0012 0.6807 -0.2273
C5V C 0.0775(3) 0.7384(6) -0.3156(5)
H3V H 0.0635 0.7619 -0.3300
C6V C 0.1220(3) 0.7283(5) -0.3270(5)
H4V H 0.1355 0.7416 -0.3514
O3V O 0.21126(15) 0.71544(19) -0.33745(18)
In1G In -0.138278(18) 1.220869(15) 0.220869(15)
O3G O 0.21126(15) 1.33745(18) 0.28456(19)
N1G N -0.0766(3) 1.2494(2) 0.2494(2)
C1G C -0.0566(3) 1.2306(3) 0.2835(3)
H1G H -0.0717 1.2090 0.2997
C2G C -0.0147(3) 1.2419(4) 0.2957(3)
H2G H -0.0012 1.2273 0.3193
C3G C 0.0075(3) 1.2739(3) 0.2739(3)
C4G C 0.0548(4) 1.2845(4) 0.2845(4)
C5G C 0.0775(3) 1.3156(5) 0.2616(6)
H3G H 0.0635 1.3300 0.2381
C6G C 0.1220(3) 1.3270(5) 0.2717(5)
H4G H 0.1355 1.3514 0.2584
C12G C 0.1937(3) 1.3083(2) 0.3083(2)
C13G C 0.1448(3) 1.3015(3) 0.3015(3)
C1W C -0.0566(3) 1.2835(3) 0.2306(3)
H1W H -0.0717 1.2997 0.2090
C2W C -0.0147(3) 1.2957(3) 0.2419(4)
H2W H -0.0012 1.3193 0.2273
C5W C 0.0775(3) 1.2616(6) 0.3156(5)
H3W H 0.0635 1.2381 0.3300
C6W C 0.1220(3) 1.2717(5) 0.3270(5)
H4W H 0.1355 1.2584 0.3514
O3W O 0.21126(15) 1.28456(19) 0.33745(18)
In1A In -0.220869(15) 1.220869(15) 0.138278(18)
In1B In -0.220869(15) 0.779131(15) -0.138278(18)
In1I In 0.220869(15) 1.138278(18) -0.220869(15)
In1K In 0.220869(15) 0.861722(18) 0.220869(15)
In1X In -0.279131(15) 1.279131(15) -0.361722(18)
In1Y In 0.279131(15) 0.720869(15) -0.361722(18)
In1Z In 0.279131(15) 1.279131(15) 0.361722(18)
In1AA In -0.279131(15) 0.720869(15) 0.361722(18)
In1DA In 0.361722(18) 1.279131(15) 0.279131(15)
In1EA In 0.361722(18) 0.720869(15) -0.279131(15)
In1FA In 0.279131(15) 0.638278(18) -0.279131(15)
In1GA In -0.279131(15) 0.638278(18) 0.279131(15)
In1HA In 0.279131(15) 1.361722(18) 0.279131(15)
In1IA In -0.279131(15) 1.361722(18) -0.279131(15)
O1T O 0.10522(17) 0.84209(17) 0.2284(2)
O1U O 0.10522(17) 1.15791(17) -0.2284(2)
O1V O -0.10522(17) 0.84209(17) -0.2284(2)
O1W O -0.10522(17) 1.15791(17) 0.2284(2)
O2A O -0.1949(2) 1.1949(2) 0.1949(2)
O2B O -0.1949(2) 0.8051(2) -0.1949(2)
O3X O -0.16255(18) 1.21544(19) 0.28874(15)
O3Y O 0.16255(18) 0.78456(19) 0.28874(15)
O3Z O 0.16255(18) 1.21544(19) -0.28874(15)
O3AA O -0.16255(18) 0.78456(19) -0.28874(15)
O3FA O 0.21544(19) 1.28874(15) -0.16255(18)
O3HA O 0.21544(19) 0.71126(15) 0.16255(18)
O3NA O -0.16255(18) 1.28874(15) 0.21544(19)
O3OA O 0.16255(18) 1.28874(15) -0.21544(19)
O3PA O 0.16255(18) 0.71126(15) 0.21544(19)
O3QA O -0.16255(18) 0.71126(15) -0.21544(19)
O3RA O 0.28874(15) 1.21544(19) -0.16255(18)
O3SA O 0.28874(15) 0.78456(19) 0.16255(18)
loop_
_geom_bond_atom_site_label_1
_geom_bond_atom_site_label_2
_geom_bond_site_symmetry_1
_geom_bond_site_symmetry_2
In1 O1 1_555 1_555
O1 C7 1_555 1_555
O2 In1 1_555 1_555
O3 C12 1_555 1_555
N1 In1 1_555 1_555
C1 N1 1_555 1_555
H1 C1 1_555 1_555
C2 C1 1_555 1_555
H2 C2 1_555 1_555
C3 C2 1_555 1_555
C4 C3 1_555 1_555
C5 C4 1_555 1_555
H3 C5 1_555 1_555
C6 C5 1_555 1_555
H4 C6 1_555 1_555
C7 C8 1_555 1_555
C8 C9 1_555 1_555
C9 H5 1_555 1_555
C10 C9 1_555 1_555
H6 C10 1_555 1_555
C11 C10 1_555 1_555
C12 C13 1_555 1_555
C13 C6 1_555 1_555
O1C C7C 1_555 1_555
C7C C8C 1_555 1_555
C8C C9C 1_555 1_555
C9C H5C 1_555 1_555
C10C C9C 1_555 1_555
H6C C10C 1_555 1_555
C11C C11 1_555 1_555
O1P C7C 1_555 1_555
C9P C8C 1_555 1_555
H5P C9P 1_555 1_555
C10P C11C 1_555 1_555
H6P C10P 1_555 1_555
O1S C7 1_555 1_555
C9S C8 1_555 1_555
H5S C9S 1_555 1_555
C10S C11 1_555 1_555
H6S C10S 1_555 1_555
C1M N1 1_555 1_555
H1M C1M 1_555 1_555
C2M C3 1_555 1_555
H2M C2M 1_555 1_555
C5M C4 1_555 1_555
H3M C5M 1_555 1_555
C6M C13 1_555 1_555
H4M C6M 1_555 1_555
O3M C12 1_555 1_555
In1C O1C 1_555 1_555
O2C In1C 1_555 1_555
O3C C12C 1_555 1_555
N1C In1C 1_555 1_555
C1C N1C 1_555 1_555
H1C C1C 1_555 1_555
C2C C1C 1_555 1_555
H2C C2C 1_555 1_555
C3C C2C 1_555 1_555
C4C C3C 1_555 1_555
C5C C4C 1_555 1_555
H3C C5C 1_555 1_555
C6C C5C 1_555 1_555
H4C C6C 1_555 1_555
C12C C13C 1_555 1_555
C13C C6C 1_555 1_555
C1O N1C 1_555 1_555
H1O C1O 1_555 1_555
C2O C3C 1_555 1_555
H2O C2O 1_555 1_555
C5O C4C 1_555 1_555
H3O C5O 1_555 1_555
C6O C13C 1_555 1_555
H4O C6O 1_555 1_555
O3O C12C 1_555 1_555
In1D O2C 1_555 1_555
O1D In1D 1_555 1_555
O3D C12D 1_555 1_555
N1D In1D 1_555 1_555
C1D N1D 1_555 1_555
H1D C1D 1_555 1_555
C2D C1D 1_555 1_555
H2D C2D 1_555 1_555
C3D C2D 1_555 1_555
C4D C3D 1_555 1_555
C5D C4D 1_555 1_555
H3D C5D 1_555 1_555
C6D C5D 1_555 1_555
H4D C6D 1_555 1_555
C7D O1D 1_555 1_555
C8D C7D 1_555 1_555
C9D C8D 1_555 1_555
H5D C9D 1_555 1_555
C10D C9D 1_555 1_555
H6D C10D 1_555 1_555
C11D C10D 1_555 1_555
C12D C13D 1_555 1_555
C13D C6D 1_555 1_555
O1G C7G 1_555 1_555
C7G C8G 1_555 1_555
C8G C9G 1_555 1_555
C9G H5G 1_555 1_555
C10G C9G 1_555 1_555
H6G C10G 1_555 1_555
C11G C11D 1_555 1_555
O1L C7G 1_555 1_555
C9L C8G 1_555 1_555
H5L C9L 1_555 1_555
C10L C11G 1_555 1_555
H6L C10L 1_555 1_555
O1O In1C 1_555 1_555
C9O C8D 1_555 1_555
H5O C9O 1_555 1_555
C10O C11D 1_555 1_555
H6O C10O 1_555 1_555
C1U N1D 1_555 1_555
H1U C1U 1_555 1_555
C2U C3D 1_555 1_555
H2U C2U 1_555 1_555
C5U C4D 1_555 1_555
H3U C5U 1_555 1_555
C6U C13D 1_555 1_555
H4U C6U 1_555 1_555
O3U C12D 1_555 1_555
In1E O2 1_555 1_555
O1E In1E 1_555 1_555
O3E C12E 1_555 1_555
N1E In1E 1_555 1_555
C1E N1E 1_555 1_555
H1E C1E 1_555 1_555
C2E C1E 1_555 1_555
H2E C2E 1_555 1_555
C3E C2E 1_555 1_555
C4E C3E 1_555 1_555
C5E C4E 1_555 1_555
H3E C5E 1_555 1_555
C6E C5E 1_555 1_555
H4E C6E 1_555 1_555
C7E O1E 1_555 1_555
C8E C7E 1_555 1_555
C9E C8E 1_555 1_555
H5E C9E 1_555 1_555
C10E C9E 1_555 1_555
H6E C10E 1_555 1_555
C11E C10E 1_555 1_555
C12E C13E 1_555 1_555
C13E C6E 1_555 1_555
O1F C7F 1_555 1_555
C7F C8F 1_555 1_555
C8F C9F 1_555 1_555
C9F H5F 1_555 1_555
C10F C9F 1_555 1_555
H6F C10F 1_555 1_555
C11F C11E 1_555 1_555
O1N C7F 1_555 1_555
C9N C8F 1_555 1_555
H5N C9N 1_555 1_555
C10N C11F 1_555 1_555
H6N C10N 1_555 1_555
O1M In1 1_555 1_555
C9M C8E 1_555 1_555
H5M C9M 1_555 1_555
C10M C11E 1_555 1_555
H6M C10M 1_555 1_555
C1T N1E 1_555 1_555
H1T C1T 1_555 1_555
C2T C3E 1_555 1_555
H2T C2T 1_555 1_555
C5T C4E 1_555 1_555
H3T C5T 1_555 1_555
C6T C13E 1_555 1_555
H4T C6T 1_555 1_555
O3T C12E 1_555 1_555
In1F O1F 1_555 1_555
O3F C12F 1_555 1_555
N1F In1F 1_555 1_555
C1F N1F 1_555 1_555
H1F C1F 1_555 1_555
C2F C1F 1_555 1_555
H2F C2F 1_555 1_555
C3F C2F 1_555 1_555
C4F C3F 1_555 1_555
C5F C4F 1_555 1_555
H3F C5F 1_555 1_555
C6F C5F 1_555 1_555
H4F C6F 1_555 1_555
C12F C13F 1_555 1_555
C13F C6F 1_555 1_555
C1V N1F 1_555 1_555
H1V C1V 1_555 1_555
C2V C3F 1_555 1_555
H2V C2V 1_555 1_555
C5V C4F 1_555 1_555
H3V C5V 1_555 1_555
C6V C13F 1_555 1_555
H4V C6V 1_555 1_555
O3V C12F 1_555 1_555
In1G O1G 1_555 1_555
O3G C12G 1_555 1_555
N1G In1G 1_555 1_555
C1G N1G 1_555 1_555
H1G C1G 1_555 1_555
C2G C1G 1_555 1_555
H2G C2G 1_555 1_555
C3G C2G 1_555 1_555
C4G C3G 1_555 1_555
C5G C4G 1_555 1_555
H3G C5G 1_555 1_555
C6G C5G 1_555 1_555
H4G C6G 1_555 1_555
C12G C13G 1_555 1_555
C13G C6G 1_555 1_555
C1W N1G 1_555 1_555
H1W C1W 1_555 1_555
C2W C3G 1_555 1_555
H2W C2W 1_555 1_555
C5W C4G 1_555 1_555
H3W C5W 1_555 1_555
C6W C13G 1_555 1_555
H4W C6W 1_555 1_555
O3W C12G 1_555 1_555
In1A O1L 1_555 1_555
In1B O1N 1_555 1_555
In1I O1P 1_555 1_555
In1K O2 1_555 1_555
In1X O3U 1_555 1_555
In1Y O3V 1_555 1_555
In1Z O3W 1_555 1_555
In1AA O3T 1_555 1_555
In1DA O3C 1_555 1_555
In1EA O3 1_555 1_555
In1FA O3M 1_555 1_555
In1GA O3E 1_555 1_555
In1HA O3O 1_555 1_555
In1IA O3D 1_555 1_555
O1T In1E 1_555 1_555
O1U In1D 1_555 1_555
O1V In1F 1_555 1_555
O1W In1G 1_555 1_555
O2A In1G 1_555 1_555
O2B In1F 1_555 1_555
O3X In1G 1_555 1_555
O3Y In1E 1_555 1_555
O3Z In1D 1_555 1_555
O3AA In1F 1_555 1_555
O3FA In1C 1_555 1_555
O3HA In1 1_555 1_555
O3NA In1G 1_555 1_555
O3OA In1D 1_555 1_555
O3PA In1E 1_555 1_555
O3QA In1F 1_555 1_555
O3RA In1C 1_555 1_555
O3SA In1 1_555 1_555
C10C C11C 1_555 1_555
C9P C10P 1_555 1_555
O1S In1K 1_555 1_555
C9S C10S 1_555 1_555
C1M C2M 1_555 1_555
C5M C6M 1_555 1_555
O2C In1I 1_555 1_555
C1O C2O 1_555 1_555
C5O C6O 1_555 1_555
C7D O1O 1_555 1_555
C10G C11G 1_555 1_555
C9L C10L 1_555 1_555
C9O C10O 1_555 1_555
C1U C2U 1_555 1_555
C5U C6U 1_555 1_555
C7E O1M 1_555 1_555
C10F C11F 1_555 1_555
C9N C10N 1_555 1_555
C9M C10M 1_555 1_555
C1T C2T 1_555 1_555
C5T C6T 1_555 1_555
O3F In1FA 1_555 1_555
C1V C2V 1_555 1_555
C5V C6V 1_555 1_555
O3G In1HA 1_555 1_555
C1W C2W 1_555 1_555
C5W C6W 1_555 1_555
In1A O2A 1_555 1_555
In1B O2B 1_555 1_555

#END
