
#######################################################################
#
#                 Cambridge Crystallographic Data Centre
#                                CCDC 
#
#######################################################################
#
# If this CIF has been generated from an entry in the Cambridge 
# Structural Database, then it will include bibliographic, chemical, 
# crystal, experimental, refinement or atomic coordinate data resulting 
# from the CCDC's data processing and validation procedures.
#
#######################################################################

data_AGOWOK
_symmetry_cell_setting           orthorhombic
_symmetry_space_group_name_H-M   'C m c a'
_symmetry_Int_Tables_number      64
_space_group_name_Hall           '-C 2ac 2'
loop_
_symmetry_equiv_pos_site_id
_symmetry_equiv_pos_as_xyz
1 x,y,z
2 -x,1/2-y,1/2+z
3 -x,1/2+y,1/2-z
4 x,-y,-z
5 1/2+x,1/2+y,z
6 1/2-x,-y,1/2+z
7 1/2-x,y,1/2-z
8 1/2+x,1/2-y,-z
9 -x,-y,-z
10 x,1/2+y,1/2-z
11 x,1/2-y,1/2+z
12 -x,y,z
13 1/2-x,1/2-y,-z
14 1/2+x,y,1/2-z
15 1/2+x,-y,1/2+z
16 1/2-x,1/2+y,z
_cell_length_a                   14.1491(13)
_cell_length_b                   27.6324(18)
_cell_length_c                   11.1397(12)
_cell_angle_alpha                90
_cell_angle_beta                 90
_cell_angle_gamma                90
_cell_volume                     4355.33
loop_
_atom_site_label
_atom_site_type_symbol
_atom_site_fract_x
_atom_site_fract_y
_atom_site_fract_z
Cu1 Cu 0.0000 0.741730(17) 0.61145(4)
O1 O 0.14932(11) 0.71670(8) 0.81173(18)
N1 N 0.09307(14) 0.79631(8) 0.5939(2)
O2 O 0.0000 0.72872(11) 0.3979(2)
H1 H -0.0476 0.7408 0.3686
O3 O 0.09384(11) 0.69198(7) 0.63375(18)
C1 C 0.20106(17) 0.55351(11) 0.7346(2)
C2 C 0.20085(16) 0.64151(10) 0.7346(2)
C3 C 0.14509(16) 0.68768(10) 0.7279(3)
C4 C 0.15623(17) 0.59843(11) 0.7191(2)
H2 H 0.0928 0.5987 0.6972
C5 C 0.15581(19) 0.50831(12) 0.7200(3)
H3 H 0.0920 0.5077 0.6999
C6 C 0.18669(18) 0.79512(11) 0.5966(3)
H4 H 0.2167 0.7662 0.6160
C7 C 0.05131(17) 0.83844(11) 0.5650(2)
C8 C 0.1990(2) 0.87781(12) 0.5407(3)
H5 H 0.2354 0.9048 0.5220
C9 C 0.1003(2) 0.88067(11) 0.5373(3)
C10 C 0.0479(2) 0.92318(12) 0.5077(3)
H6 H 0.0801 0.9514 0.4880
C11 C 0.2413(2) 0.83554(13) 0.5713(3)
H7 H 0.3069 0.8337 0.5754
C12 C 0.20196(19) 0.46586(12) 0.7344(3)
H8 H 0.1701 0.4367 0.7237
O1F O 0.35068(11) 0.71670(8) 0.68827(18)
O3F O 0.40616(11) 0.69198(7) 0.86625(18)
C1F C 0.29894(17) 0.55351(11) 0.7654(2)
C2F C 0.29915(16) 0.64151(10) 0.7654(2)
C3F C 0.35491(16) 0.68768(10) 0.7721(3)
C4F C 0.34377(17) 0.59843(11) 0.7809(2)
H2F H 0.4072 0.5987 0.8028
C5F C 0.34419(19) 0.50831(12) 0.7800(3)
H3F H 0.4080 0.5077 0.8001
C12F C 0.29804(19) 0.46586(12) 0.7656(3)
H8F H 0.3299 0.4367 0.7763
N1K N -0.09307(14) 0.79631(8) 0.5939(2)
C6K C -0.18669(18) 0.79512(11) 0.5966(3)
H4K H -0.2167 0.7662 0.6160
C7K C -0.05131(17) 0.83844(11) 0.5650(2)
C8K C -0.1990(2) 0.87781(12) 0.5407(3)
H5K H -0.2354 0.9048 0.5220
C9K C -0.1003(2) 0.88067(11) 0.5373(3)
C10K C -0.0479(2) 0.92318(12) 0.5077(3)
H6K H -0.0801 0.9514 0.4880
C11K C -0.2413(2) 0.83554(13) 0.5713(3)
H7K H -0.3069 0.8337 0.5754
H1K H 0.0476 0.7408 0.3686
Cu1F Cu 0.5000 0.741730(17) 0.88855(4)
O3K O -0.09384(11) 0.69198(7) 0.63375(18)
C13 C 1.0000 0.6019(2) 0.4398(6)
O4 O 1.0000 0.6255(2) 0.3376(5)
H9? H 0.9381 0.6033 0.4750
H10? H 1.0450 0.6163 0.4934
H11? H 1.0168 0.5687 0.4256
H12? H 0.9925 0.6545 0.3506
loop_
_geom_bond_atom_site_label_1
_geom_bond_atom_site_label_2
_geom_bond_site_symmetry_1
_geom_bond_site_symmetry_2
Cu1 N1 1_555 1_555
O1 C3 1_555 1_555
N1 C6 1_555 1_555
O2 Cu1 1_555 1_555
H1 O2 1_555 1_555
O3 Cu1 1_555 1_555
C1 C4 1_555 1_555
C2 C3 1_555 1_555
C3 O3 1_555 1_555
C4 C2 1_555 1_555
H2 C4 1_555 1_555
C5 C1 1_555 1_555
H3 C5 1_555 1_555
C6 H4 1_555 1_555
C7 N1 1_555 1_555
C8 H5 1_555 1_555
C9 C7 1_555 1_555
C10 C9 1_555 1_555
H6 C10 1_555 1_555
C11 C6 1_555 1_555
H7 C11 1_555 1_555
C12 C5 1_555 1_555
H8 C12 1_555 1_555
C13 O4 1_555 1_555
O1F C3F 1_555 1_555
O3F C3F 1_555 1_555
C1F C1 1_555 1_555
C2F C2 1_555 1_555
C3F C2F 1_555 1_555
C4F C1F 1_555 1_555
H2F C4F 1_555 1_555
C5F C1F 1_555 1_555
H3F C5F 1_555 1_555
C12F C12 1_555 1_555
H8F C12F 1_555 1_555
N1K Cu1 1_555 1_555
C6K N1K 1_555 1_555
H4K C6K 1_555 1_555
C7K C7 1_555 1_555
C8K H5K 1_555 1_555
C9K C7K 1_555 1_555
C10K C10 1_555 1_555
H6K C10K 1_555 1_555
C11K C6K 1_555 1_555
H7K C11K 1_555 1_555
H1K O2 1_555 1_555
Cu1F O3F 1_555 1_555
O3K Cu1 1_555 1_555
C8 C9 1_555 1_555
C8 C11 1_555 1_555
C2F C4F 1_555 1_555
C5F C12F 1_555 1_555
N1K C7K 1_555 1_555
C8K C9K 1_555 1_555
C8K C11K 1_555 1_555
C9K C10K 1_555 1_555

#END
