
#######################################################################
#
#                 Cambridge Crystallographic Data Centre
#                                CCDC 
#
#######################################################################
#
# If this CIF has been generated from an entry in the Cambridge 
# Structural Database, then it will include bibliographic, chemical, 
# crystal, experimental, refinement or atomic coordinate data resulting 
# from the CCDC's data processing and validation procedures.
#
#######################################################################

data_AGOWIE
_symmetry_cell_setting           monoclinic
_symmetry_space_group_name_H-M   'C 2/c'
_symmetry_Int_Tables_number      15
_space_group_name_Hall           '-C 2yn'
loop_
_symmetry_equiv_pos_site_id
_symmetry_equiv_pos_as_xyz
1 x,y,z
2 -x,y,1/2-z
3 1/2+x,1/2+y,z
4 1/2-x,1/2+y,1/2-z
5 -x,-y,-z
6 x,-y,1/2+z
7 1/2-x,1/2-y,-z
8 1/2+x,1/2-y,1/2+z
_cell_length_a                   24.285(4)
_cell_length_b                   11.1017(17)
_cell_length_c                   20.329(5)
_cell_angle_alpha                90
_cell_angle_beta                 99.328(19)
_cell_angle_gamma                90
_cell_volume                     5408.32
loop_
_atom_site_label
_atom_site_type_symbol
_atom_site_fract_x
_atom_site_fract_y
_atom_site_fract_z
Cu1 Cu 0.05572(3) 0.32944(6) 0.31230(4)
C1 C 0.0623(3) 0.3357(5) 0.1632(3)
C2 C 0.0203(3) 0.3094(7) 0.0129(3)
C3 C 0.1001(2) 0.3499(5) 0.1127(3)
C4 C 0.1564(3) 0.3710(6) 0.1331(3)
H1 H 0.1699 0.3744 0.1786
C5 C 0.1937(3) 0.3875(6) 0.0888(3)
C6 C 0.2511(3) 0.4107(7) 0.1106(4)
H2 H 0.2653 0.4157 0.1559
C7 C 0.2858(3) 0.4258(8) 0.0629(5)
H3 H 0.3235 0.4414 0.0773
C8 C 0.2668(3) 0.4186(7) -0.0038(5)
H4 H 0.2913 0.4287 -0.0341
C9 C 0.2110(3) 0.3961(7) -0.0262(4)
H5 H 0.1979 0.3905 -0.0717
C10 C 0.1739(3) 0.3816(6) 0.0197(4)
C11 C 0.1166(3) 0.3593(6) -0.0009(3)
H6 H 0.1031 0.3554 -0.0464
C12 C 0.0798(2) 0.3429(5) 0.0425(3)
C13 C 0.0777(3) 0.0825(6) 0.2653(4)
H7 H 0.0904 0.1232 0.2307
C14 C 0.0809(3) -0.0397(5) 0.2667(3)
H8 H 0.0953 -0.0812 0.2336
C15 C 0.0623(2) -0.1016(5) 0.3181(3)
C16 C 0.0432(3) -0.0370(5) 0.3669(3)
H9 H 0.0316 -0.0758 0.4028
C17 C 0.0414(3) 0.0871(5) 0.3621(3)
H10 H 0.0286 0.1310 0.3956
C18 C 0.0614(2) -0.2362(5) 0.3189(3)
C19 C 0.1030(3) -0.3043(5) 0.2978(3)
H11 H 0.1336 -0.2670 0.2843
C20 C 0.0985(3) -0.4292(5) 0.2971(3)
H12 H 0.1267 -0.4737 0.2827
C21 C 0.0167(3) -0.4210(6) 0.3379(3)
H13 H -0.0129 -0.4600 0.3529
C22 C 0.0183(3) -0.2968(5) 0.3393(3)
H14 H -0.0103 -0.2541 0.3542
C23 C 0.1780(3) 0.2909(8) 0.3645(4)
H15 H 0.1800 0.2905 0.3192
C24 C 0.2254(3) 0.2614(8) 0.4083(3)
H16 H 0.2577 0.2396 0.3922
C25 C 0.2250(2) 0.2640(6) 0.4747(3)
C26 C 0.1752(3) 0.2963(7) 0.4940(3)
H17 H 0.1723 0.2993 0.5390
C27 C 0.1295(3) 0.3243(7) 0.4464(3)
H18 H 0.0965 0.3478 0.4604
N1 N 0.0572(2) 0.1465(4) 0.3110(3)
N2 N 0.0561(2) -0.4883(4) 0.3159(3)
N3 N 0.1310(2) 0.3189(4) 0.3818(2)
O1 O 0.08405(18) 0.3385(4) 0.2240(2)
O2 O 0.01081(17) 0.3250(4) 0.1419(2)
O3 O -0.01383(18) 0.3950(4) -0.0087(2)
O4 O 0.0082(2) 0.2024(4) 0.0067(2)
C23F C 0.3220(3) 0.2091(8) 0.6355(4)
H15F H 0.3200 0.2095 0.6808
C24F C 0.2746(3) 0.2386(8) 0.5917(3)
H16F H 0.2423 0.2604 0.6078
C25F C 0.2750(2) 0.2360(6) 0.5253(3)
C26F C 0.3248(3) 0.2037(7) 0.5060(3)
H17F H 0.3277 0.2007 0.4610
C27F C 0.3705(3) 0.1757(7) 0.5536(3)
H18F H 0.4035 0.1522 0.5396
N3F N 0.3690(2) 0.1811(4) 0.6182(2)
Cu1A Cu -0.05572(3) 0.32944(6) 0.18770(4)
C1A C -0.0623(3) 0.3357(5) 0.3368(3)
C2A C -0.0203(3) 0.3094(7) 0.4871(3)
C3A C -0.1001(2) 0.3499(5) 0.3873(3)
C4A C -0.1564(3) 0.3710(6) 0.3669(3)
H1A H -0.1699 0.3744 0.3214
C5A C -0.1937(3) 0.3875(6) 0.4112(3)
C6A C -0.2511(3) 0.4107(7) 0.3894(4)
H2A H -0.2653 0.4157 0.3441
C7A C -0.2858(3) 0.4258(8) 0.4371(5)
H3A H -0.3235 0.4414 0.4227
C8A C -0.2668(3) 0.4186(7) 0.5038(5)
H4A H -0.2913 0.4287 0.5341
C9A C -0.2110(3) 0.3961(7) 0.5262(4)
H5A H -0.1979 0.3905 0.5717
C10A C -0.1739(3) 0.3816(6) 0.4803(4)
C11A C -0.1166(3) 0.3593(6) 0.5009(3)
H6A H -0.1031 0.3554 0.5464
C12A C -0.0798(2) 0.3429(5) 0.4575(3)
C13A C -0.0777(3) 0.0825(6) 0.2347(4)
H7A H -0.0904 0.1232 0.2693
C14A C -0.0809(3) -0.0397(5) 0.2333(3)
H8A H -0.0953 -0.0812 0.2664
C15A C -0.0623(2) -0.1016(5) 0.1819(3)
C16A C -0.0432(3) -0.0370(5) 0.1331(3)
H9A H -0.0316 -0.0758 0.0972
C17A C -0.0414(3) 0.0871(5) 0.1379(3)
H10A H -0.0286 0.1310 0.1044
C18A C -0.0614(2) -0.2362(5) 0.1811(3)
C19A C -0.1030(3) -0.3043(5) 0.2022(3)
H11A H -0.1336 -0.2670 0.2157
C20A C -0.0985(3) -0.4292(5) 0.2029(3)
H12A H -0.1267 -0.4737 0.2173
C21A C -0.0167(3) -0.4210(6) 0.1621(3)
H13A H 0.0129 -0.4600 0.1471
C22A C -0.0183(3) -0.2968(5) 0.1607(3)
H14A H 0.0103 -0.2541 0.1458
N1A N -0.0572(2) 0.1465(4) 0.1890(3)
N2A N -0.0561(2) -0.4883(4) 0.1841(3)
O1A O -0.08405(18) 0.3385(4) 0.2760(2)
O2A O -0.01081(17) 0.3250(4) 0.3581(2)
O3A O 0.01383(18) 0.3950(4) 0.5087(2)
O4A O -0.0082(2) 0.2024(4) 0.4933(2)
Cu1_2 Cu 0.05572(3) -0.67056(6) 0.31230(4)
Cu1A_2 Cu -0.05572(3) -0.67056(6) 0.18770(4)
Cu1F Cu 0.44428(3) 0.17056(6) 0.68770(4)
N2_2 N 0.0561(2) 0.5117(4) 0.3159(3)
N2A_2 N -0.0561(2) 0.5117(4) 0.1841(3)
N3A N -0.1310(2) 0.3189(4) 0.1182(2)
O5 O 0.2584(2) 0.5773(6) 0.2776(3)
H19 H 0.2915 0.5908 0.2738
H20 H 0.2525 0.5994 0.3148
O6 O 0.9141(5) 0.138(2) 0.9117(8)
H21 H 0.8888 0.0905 0.9162
H22 H 0.9009 0.2008 0.8931
loop_
_geom_bond_atom_site_label_1
_geom_bond_atom_site_label_2
_geom_bond_site_symmetry_1
_geom_bond_site_symmetry_2
Cu1 N1 1_555 1_555
C1 C3 1_555 1_555
C2 C12 1_555 1_555
C3 C4 1_555 1_555
C4 H1 1_555 1_555
C5 C4 1_555 1_555
C6 C5 1_555 1_555
H2 C6 1_555 1_555
C7 C6 1_555 1_555
H3 C7 1_555 1_555
C8 C7 1_555 1_555
H4 C8 1_555 1_555
C9 C8 1_555 1_555
H5 C9 1_555 1_555
C10 C5 1_555 1_555
C11 C10 1_555 1_555
H6 C11 1_555 1_555
C12 C3 1_555 1_555
C13 H7 1_555 1_555
C14 C13 1_555 1_555
H8 C14 1_555 1_555
C15 C14 1_555 1_555
C16 C15 1_555 1_555
H9 C16 1_555 1_555
C17 C16 1_555 1_555
H10 C17 1_555 1_555
C18 C15 1_555 1_555
C19 C18 1_555 1_555
H11 C19 1_555 1_555
C20 C19 1_555 1_555
H12 C20 1_555 1_555
C21 H13 1_555 1_555
C22 C18 1_555 1_555
H14 C22 1_555 1_555
C23 H15 1_555 1_555
C24 C23 1_555 1_555
H16 C24 1_555 1_555
C25 C24 1_555 1_555
C26 C25 1_555 1_555
H17 C26 1_555 1_555
C27 C26 1_555 1_555
H18 C27 1_555 1_555
N1 C13 1_555 1_555
N2 C20 1_555 1_555
N3 Cu1 1_555 1_555
O1 Cu1 1_555 1_555
O2 C1 1_555 1_555
O3 C2 1_555 1_555
O4 C2 1_555 1_555
O5 H19 1_555 1_555
H20 O5 1_555 1_555
O6 H21 1_555 1_555
H22 O6 1_555 1_555
C23F H15F 1_555 1_555
C24F C23F 1_555 1_555
H16F C24F 1_555 1_555
C25F C25 1_555 1_555
C26F C25F 1_555 1_555
H17F C26F 1_555 1_555
C27F C26F 1_555 1_555
H18F C27F 1_555 1_555
N3F C23F 1_555 1_555
Cu1A O2 1_555 1_555
C1A C3A 1_555 1_555
C2A C12A 1_555 1_555
C3A C4A 1_555 1_555
C4A H1A 1_555 1_555
C5A C4A 1_555 1_555
C6A C5A 1_555 1_555
H2A C6A 1_555 1_555
C7A C6A 1_555 1_555
H3A C7A 1_555 1_555
C8A C7A 1_555 1_555
H4A C8A 1_555 1_555
C9A C8A 1_555 1_555
H5A C9A 1_555 1_555
C10A C5A 1_555 1_555
C11A C10A 1_555 1_555
H6A C11A 1_555 1_555
C12A C3A 1_555 1_555
C13A H7A 1_555 1_555
C14A C13A 1_555 1_555
H8A C14A 1_555 1_555
C15A C14A 1_555 1_555
C16A C15A 1_555 1_555
H9A C16A 1_555 1_555
C17A C16A 1_555 1_555
H10A C17A 1_555 1_555
C18A C15A 1_555 1_555
C19A C18A 1_555 1_555
H11A C19A 1_555 1_555
C20A C19A 1_555 1_555
H12A C20A 1_555 1_555
C21A H13A 1_555 1_555
C22A C18A 1_555 1_555
H14A C22A 1_555 1_555
N1A Cu1A 1_555 1_555
N2A C20A 1_555 1_555
O1A Cu1A 1_555 1_555
O2A Cu1 1_555 1_555
O3A C2A 1_555 1_555
O4A C2A 1_555 1_555
Cu1_2 N2 1_555 1_555
Cu1A_2 N2A 1_555 1_555
Cu1F N3F 1_555 1_555
N2_2 Cu1 1_555 1_555
N2A_2 Cu1A 1_555 1_555
N3A Cu1A 1_555 1_555
C1 O1 1_555 1_555
C9 C10 1_555 1_555
C11 C12 1_555 1_555
C17 N1 1_555 1_555
C21 C22 1_555 1_555
C21 N2 1_555 1_555
C23 N3 1_555 1_555
C27 N3 1_555 1_555
C24F C25F 1_555 1_555
C27F N3F 1_555 1_555
C1A O1A 1_555 1_555
C1A O2A 1_555 1_555
C9A C10A 1_555 1_555
C11A C12A 1_555 1_555
C13A N1A 1_555 1_555
C17A N1A 1_555 1_555
C21A C22A 1_555 1_555
C21A N2A 1_555 1_555

#END
