
#######################################################################
#
#                 Cambridge Crystallographic Data Centre
#                                CCDC 
#
#######################################################################
#
# If this CIF has been generated from an entry in the Cambridge 
# Structural Database, then it will include bibliographic, chemical, 
# crystal, experimental, refinement or atomic coordinate data resulting 
# from the CCDC's data processing and validation procedures.
#
#######################################################################

data_AGOWUO
_symmetry_cell_setting           monoclinic
_symmetry_space_group_name_H-M   'C 2/c'
_symmetry_Int_Tables_number      15
_space_group_name_Hall           '-C 2yn'
loop_
_symmetry_equiv_pos_site_id
_symmetry_equiv_pos_as_xyz
1 x,y,z
2 1/2+x,1/2+y,z
3 x,-y,1/2+z
4 1/2+x,1/2-y,1/2+z
5 -x,-y,-z
6 1/2-x,1/2-y,-z
7 -x,y,1/2-z
8 1/2-x,1/2+y,1/2-z
_cell_length_a                   34.475(5)
_cell_length_b                   11.2300(13)
_cell_length_c                   14.497(3)
_cell_angle_alpha                90
_cell_angle_beta                 91.095(15)
_cell_angle_gamma                90
_cell_volume                     5611.55
loop_
_atom_site_label
_atom_site_type_symbol
_atom_site_fract_x
_atom_site_fract_y
_atom_site_fract_z
Ni1 Ni 0.12517(2) 0.18359(8) 0.73491(7)
O1 O 0.17162(14) 0.2327(5) 0.8256(4)
O2 O 0.22789(15) 0.2200(7) 0.7524(4)
O3 O 0.07614(15) 0.1292(5) 0.6477(4)
O4 O 0.06011(18) 0.2647(5) 0.5419(4)
N1 N 0.12321(16) 0.3468(5) 0.6756(5)
H1 H 0.1019 0.3461 0.6375
N2 N 0.16481(17) 0.1414(5) 0.6385(4)
H2 H 0.1883 0.1514 0.6670
N3 N 0.12300(17) 0.0114(6) 0.7881(4)
N4 N 0.08731(16) 0.2316(6) 0.8407(4)
N5 N 0.09020(18) 0.4336(6) 0.8100(5)
N6 N 0.1583(2) -0.0757(6) 0.6724(5)
C1 C 0.1574(2) 0.3558(7) 0.6134(5)
H3 H 0.1805 0.3701 0.6523
C2 C 0.1551(2) 0.4556(8) 0.5416(6)
H4 H 0.1316 0.4459 0.5046
H5 H 0.1535 0.5315 0.5733
C3 C 0.1890(3) 0.4579(8) 0.4794(7)
H6 H 0.2122 0.4780 0.5149
H7 H 0.1851 0.5189 0.4328
C4 C 0.1946(3) 0.3365(8) 0.4322(6)
H8 H 0.1726 0.3200 0.3914
H9 H 0.2178 0.3383 0.3954
C5 C 0.1982(2) 0.2398(7) 0.5046(6)
H10 H 0.2212 0.2541 0.5426
H11 H 0.2013 0.1634 0.4744
C6 C 0.1627(2) 0.2358(7) 0.5656(5)
H12 H 0.1398 0.2206 0.5263
C7 C 0.1648(2) 0.0161(7) 0.6032(6)
H13 H 0.1448 0.0090 0.5555
H14 H 0.1895 0.0009 0.5746
C8 C 0.1201(2) -0.0754(7) 0.7109(6)
H15 H 0.1132 -0.1539 0.7332
H16 H 0.1008 -0.0503 0.6653
C9 C 0.1852(3) -0.0685(8) 0.7538(6)
H17 H 0.2053 -0.0098 0.7438
H18 H 0.1973 -0.1450 0.7659
C10 C 0.1593(2) -0.0314(7) 0.8345(6)
H19 H 0.1542 -0.0986 0.8745
H20 H 0.1714 0.0315 0.8707
C11 C 0.0895(2) 0.0143(7) 0.8517(6)
H21 H 0.0912 -0.0523 0.8942
H22 H 0.0654 0.0071 0.8163
C12 C 0.0895(2) 0.1290(8) 0.9047(6)
H23 H 0.0676 0.1306 0.9455
H24 H 0.1131 0.1344 0.9423
C13 C 0.1014(2) 0.3461(7) 0.8811(6)
H25 H 0.0890 0.3629 0.9391
H26 H 0.1293 0.3448 0.8910
C14 C 0.0468(2) 0.2631(8) 0.8132(7)
H27 H 0.0297 0.2591 0.8654
H28 H 0.0370 0.2110 0.7648
C15 C 0.0511(2) 0.3929(8) 0.7781(7)
H29 H 0.0490 0.3955 0.7113
H30 H 0.0311 0.4432 0.8035
C16 C 0.1184(2) 0.4506(7) 0.7362(6)
H31 H 0.1433 0.4703 0.7641
H32 H 0.1102 0.5180 0.6988
C17 C 0.2087(2) 0.2314(7) 0.8225(5)
C18 C 0.22991(19) 0.2413(6) 0.9157(5)
C19 C 0.21022(19) 0.2435(7) 0.9985(5)
H33 H 0.1833 0.2387 0.9976
C20 C 0.2700(2) 0.2474(7) 0.9176(5)
H34 H 0.2837 0.2453 0.8629
C21 C 0.0568(2) 0.1666(7) 0.5797(6)
C22 C 0.02722(18) 0.0812(7) 0.5379(5)
C23 C 0.0094(2) 0.1030(7) 0.4539(6)
H35 H 0.0155 0.1721 0.4220
C24 C 0.01799(15) -0.0227(5) 0.5850(4)
H36 H 0.0298 -0.0393 0.6418
C20E C 0.2300(2) 0.2526(7) 1.0824(5)
C18E C 0.27009(19) 0.2587(6) 1.0843(5)
C17E C 0.2913(2) 0.2686(7) 1.1775(5)
O1E O 0.32838(14) 0.2673(5) 1.1744(4)
O2E O 0.27211(15) 0.2800(7) 1.2476(4)
C19E C 0.28978(19) 0.2565(7) 1.0015(5)
H33E H 0.3167 0.2613 1.0024
H34E H 0.2163 0.2547 1.1371
C24D C -0.01799(15) 0.0227(5) 0.4150(4)
C22D C -0.02722(18) -0.0812(7) 0.4621(5)
C21D C -0.0568(2) -0.1666(7) 0.4203(6)
O3D O -0.07614(15) -0.1292(5) 0.3523(4)
O4D O -0.06011(18) -0.2647(5) 0.4581(4)
C23D C -0.0094(2) -0.1030(7) 0.5461(6)
H35D H -0.0155 -0.1721 0.5780
H36D H -0.0298 0.0393 0.3582
Ni1E Ni 0.37483(2) 0.31641(8) 1.26509(7)
N1E N 0.37679(16) 0.1532(5) 1.3244(5)
H1E H 0.3981 0.1539 1.3625
N2E N 0.33519(17) 0.3586(5) 1.3615(4)
H2E H 0.3117 0.3486 1.3330
N3E N 0.37700(17) 0.4886(6) 1.2119(4)
N4E N 0.41269(16) 0.2684(6) 1.1593(4)
N5E N 0.40980(18) 0.0664(6) 1.1900(5)
N6E N 0.3417(2) 0.5757(6) 1.3276(5)
C1E C 0.3426(2) 0.1442(7) 1.3866(5)
H3E H 0.3195 0.1299 1.3477
C2E C 0.3449(2) 0.0444(8) 1.4584(6)
H4E H 0.3684 0.0541 1.4954
H5E H 0.3465 -0.0315 1.4267
C3E C 0.3110(3) 0.0421(8) 1.5206(7)
H6E H 0.2878 0.0220 1.4851
H7E H 0.3149 -0.0189 1.5672
C4E C 0.3054(3) 0.1635(8) 1.5678(6)
H8E H 0.3274 0.1800 1.6086
H9E H 0.2822 0.1617 1.6046
C5E C 0.3018(2) 0.2602(7) 1.4954(6)
H10E H 0.2788 0.2459 1.4574
H11E H 0.2987 0.3366 1.5256
C6E C 0.3373(2) 0.2642(7) 1.4344(5)
H12E H 0.3602 0.2794 1.4737
C7E C 0.3352(2) 0.4839(7) 1.3968(6)
H13E H 0.3552 0.4910 1.4445
H14E H 0.3105 0.4991 1.4254
C8E C 0.3799(2) 0.5754(7) 1.2891(6)
H15E H 0.3868 0.6539 1.2668
H16E H 0.3992 0.5503 1.3347
C9E C 0.3148(3) 0.5685(8) 1.2462(6)
H17E H 0.2947 0.5098 1.2562
H18E H 0.3027 0.6450 1.2341
C10E C 0.3407(2) 0.5314(7) 1.1655(6)
H19E H 0.3458 0.5986 1.1255
H20E H 0.3286 0.4685 1.1293
C11E C 0.4105(2) 0.4857(7) 1.1483(6)
H21E H 0.4088 0.5523 1.1058
H22E H 0.4346 0.4929 1.1837
C12E C 0.4105(2) 0.3710(8) 1.0953(6)
H23E H 0.4324 0.3694 1.0545
H24E H 0.3869 0.3656 1.0577
C13E C 0.3986(2) 0.1539(7) 1.1189(6)
H25E H 0.4110 0.1371 1.0609
H26E H 0.3707 0.1552 1.1090
C14E C 0.4532(2) 0.2369(8) 1.1868(7)
H27E H 0.4703 0.2409 1.1346
H28E H 0.4630 0.2890 1.2352
C15E C 0.4489(2) 0.1071(8) 1.2219(7)
H29E H 0.4510 0.1045 1.2887
H30E H 0.4689 0.0568 1.1965
C16E C 0.3816(2) 0.0494(7) 1.2638(6)
H31E H 0.3567 0.0297 1.2359
H32E H 0.3898 -0.0180 1.3012
Ni1D Ni -0.12517(2) -0.18359(8) 0.26509(7)
O3E O 0.42386(15) 0.3708(5) 1.3523(4)
O5 O 0.08272(15) -0.3196(5) 0.8574(4)
O6 O 0.03432(15) -0.2984(5) 0.7023(4)
loop_
_geom_bond_atom_site_label_1
_geom_bond_atom_site_label_2
_geom_bond_site_symmetry_1
_geom_bond_site_symmetry_2
Ni1 O1 1_555 1_555
O1 C17 1_555 1_555
O2 C17 1_555 1_555
O3 Ni1 1_555 1_555
O4 C21 1_555 1_555
N1 Ni1 1_555 1_555
H1 N1 1_555 1_555
N2 Ni1 1_555 1_555
H2 N2 1_555 1_555
N3 Ni1 1_555 1_555
N4 Ni1 1_555 1_555
N5 C13 1_555 1_555
N6 C7 1_555 1_555
C1 N1 1_555 1_555
H3 C1 1_555 1_555
C2 C1 1_555 1_555
H4 C2 1_555 1_555
H5 C2 1_555 1_555
C3 C2 1_555 1_555
H6 C3 1_555 1_555
H7 C3 1_555 1_555
C4 C3 1_555 1_555
H8 C4 1_555 1_555
H9 C4 1_555 1_555
C5 C4 1_555 1_555
H10 C5 1_555 1_555
H11 C5 1_555 1_555
C6 N2 1_555 1_555
H12 C6 1_555 1_555
C7 N2 1_555 1_555
H13 C7 1_555 1_555
H14 C7 1_555 1_555
C8 N3 1_555 1_555
H15 C8 1_555 1_555
H16 C8 1_555 1_555
C9 N6 1_555 1_555
H17 C9 1_555 1_555
H18 C9 1_555 1_555
C10 N3 1_555 1_555
H19 C10 1_555 1_555
H20 C10 1_555 1_555
C11 N3 1_555 1_555
H21 C11 1_555 1_555
H22 C11 1_555 1_555
C12 N4 1_555 1_555
H23 C12 1_555 1_555
H24 C12 1_555 1_555
C13 N4 1_555 1_555
H25 C13 1_555 1_555
H26 C13 1_555 1_555
C14 N4 1_555 1_555
H27 C14 1_555 1_555
H28 C14 1_555 1_555
C15 N5 1_555 1_555
H29 C15 1_555 1_555
H30 C15 1_555 1_555
C16 N1 1_555 1_555
H31 C16 1_555 1_555
H32 C16 1_555 1_555
C17 C18 1_555 1_555
C18 C19 1_555 1_555
C19 H33 1_555 1_555
C20 C18 1_555 1_555
H34 C20 1_555 1_555
C21 O3 1_555 1_555
C22 C21 1_555 1_555
C23 C22 1_555 1_555
H35 C23 1_555 1_555
C24 C22 1_555 1_555
H36 C24 1_555 1_555
C20E C19 1_555 1_555
C18E C20E 1_555 1_555
C17E C18E 1_555 1_555
O1E C17E 1_555 1_555
O2E C17E 1_555 1_555
C19E C20 1_555 1_555
H33E C19E 1_555 1_555
H34E C20E 1_555 1_555
C24D C23 1_555 1_555
C22D C24D 1_555 1_555
C21D C22D 1_555 1_555
O3D C21D 1_555 1_555
O4D C21D 1_555 1_555
C23D C24 1_555 1_555
H35D C23D 1_555 1_555
H36D C24D 1_555 1_555
Ni1E O1E 1_555 1_555
N1E Ni1E 1_555 1_555
H1E N1E 1_555 1_555
N2E Ni1E 1_555 1_555
H2E N2E 1_555 1_555
N3E Ni1E 1_555 1_555
N4E Ni1E 1_555 1_555
N5E C13E 1_555 1_555
N6E C7E 1_555 1_555
C1E N1E 1_555 1_555
H3E C1E 1_555 1_555
C2E C1E 1_555 1_555
H4E C2E 1_555 1_555
H5E C2E 1_555 1_555
C3E C2E 1_555 1_555
H6E C3E 1_555 1_555
H7E C3E 1_555 1_555
C4E C3E 1_555 1_555
H8E C4E 1_555 1_555
H9E C4E 1_555 1_555
C5E C4E 1_555 1_555
H10E C5E 1_555 1_555
H11E C5E 1_555 1_555
C6E N2E 1_555 1_555
H12E C6E 1_555 1_555
C7E N2E 1_555 1_555
H13E C7E 1_555 1_555
H14E C7E 1_555 1_555
C8E N3E 1_555 1_555
H15E C8E 1_555 1_555
H16E C8E 1_555 1_555
C9E N6E 1_555 1_555
H17E C9E 1_555 1_555
H18E C9E 1_555 1_555
C10E N3E 1_555 1_555
H19E C10E 1_555 1_555
H20E C10E 1_555 1_555
C11E N3E 1_555 1_555
H21E C11E 1_555 1_555
H22E C11E 1_555 1_555
C12E N4E 1_555 1_555
H23E C12E 1_555 1_555
H24E C12E 1_555 1_555
C13E N4E 1_555 1_555
H25E C13E 1_555 1_555
H26E C13E 1_555 1_555
C14E N4E 1_555 1_555
H27E C14E 1_555 1_555
H28E C14E 1_555 1_555
C15E N5E 1_555 1_555
H29E C15E 1_555 1_555
H30E C15E 1_555 1_555
C16E N1E 1_555 1_555
H31E C16E 1_555 1_555
H32E C16E 1_555 1_555
Ni1D O3D 1_555 1_555
O3E Ni1E 1_555 1_555
N5 C16 1_555 1_555
N6 C8 1_555 1_555
C1 C6 1_555 1_555
C5 C6 1_555 1_555
C9 C10 1_555 1_555
C11 C12 1_555 1_555
C14 C15 1_555 1_555
C18E C19E 1_555 1_555
C22D C23D 1_555 1_555
N5E C16E 1_555 1_555
N6E C8E 1_555 1_555
C1E C6E 1_555 1_555
C5E C6E 1_555 1_555
C9E C10E 1_555 1_555
C11E C12E 1_555 1_555
C14E C15E 1_555 1_555

#END
