
#######################################################################
#
#                 Cambridge Crystallographic Data Centre
#                                CCDC 
#
#######################################################################
#
# If this CIF has been generated from an entry in the Cambridge 
# Structural Database, then it will include bibliographic, chemical, 
# crystal, experimental, refinement or atomic coordinate data resulting 
# from the CCDC's data processing and validation procedures.
#
#######################################################################

data_AGOWEZ
_symmetry_cell_setting           monoclinic
_symmetry_space_group_name_H-M   'P 2/c'
_symmetry_Int_Tables_number      13
_space_group_name_Hall           '-P 2yc'
loop_
_symmetry_equiv_pos_site_id
_symmetry_equiv_pos_as_xyz
1 x,y,z
2 -x,y,1/2-z
3 -x,-y,-z
4 x,-y,1/2+z
_cell_length_a                   9.2837(11)
_cell_length_b                   10.3786(13)
_cell_length_c                   18.824(2)
_cell_angle_alpha                90
_cell_angle_beta                 101.372(2)
_cell_angle_gamma                90
_cell_volume                     1778.12
loop_
_atom_site_label
_atom_site_type_symbol
_atom_site_fract_x
_atom_site_fract_y
_atom_site_fract_z
Mn1 Mn 0.36904(5) 0.31882(4) 0.32302(2)
O1 O 0.3711(3) 0.4040(3) 0.42907(12)
O2 O 0.1789(3) 0.2896(3) 0.38683(13)
O3 O 0.2707(2) 0.5464(2) 0.74411(11)
O4 O 0.4110(3) 0.6197(2) 0.67041(11)
N1 N 0.4764(3) 0.1298(3) 0.36551(15)
N2 N 0.2489(3) 0.1543(2) 0.25312(13)
C1 C 0.1932(3) 0.3809(3) 0.50355(15)
C2 C 0.2745(3) 0.4529(3) 0.55968(15)
H1 H 0.3655 0.4860 0.5554
C3 C 0.2200(3) 0.4753(3) 0.62196(15)
C4 C 0.0818(3) 0.4276(3) 0.62701(16)
H2 H 0.0450 0.4437 0.6687
C5 C -0.0017(3) 0.3569(3) 0.57130(17)
C6 C 0.0567(4) 0.3342(3) 0.51018(16)
H3 H 0.0026 0.2861 0.4724
C7 C 0.2510(4) 0.3568(3) 0.43524(16)
C8 C 0.3075(4) 0.5517(3) 0.68310(16)
C9 C -0.1512(4) 0.3073(4) 0.5774(2)
H4 H -0.2236 0.3411 0.5383
H5 H -0.1736 0.3344 0.6228
H6 H -0.1516 0.2149 0.5751
C10 C 0.5876(4) 0.1195(4) 0.4209(2)
H7 H 0.6301 0.1942 0.4430
C11 C 0.6440(5) -0.0001(5) 0.4477(3)
H8 H 0.7215 -0.0045 0.4873
C12 C 0.5841(5) -0.1089(5) 0.4151(3)
H9 H 0.6213 -0.1887 0.4323
C13 C 0.4680(4) -0.1032(4) 0.3564(2)
C14 C 0.3982(5) -0.2131(4) 0.3178(3)
H10 H 0.4325 -0.2952 0.3318
C15 C 0.2853(5) -0.1995(4) 0.2624(3)
H11 H 0.2421 -0.2729 0.2390
C16 C 0.2290(4) -0.0773(3) 0.2381(2)
C17 C 0.1094(5) -0.0582(5) 0.1816(2)
H12 H 0.0633 -0.1288 0.1565
C18 C 0.0596(5) 0.0622(5) 0.1628(2)
H13 H -0.0222 0.0746 0.1260
C19 C 0.1331(4) 0.1674(4) 0.19962(17)
H14 H 0.0995 0.2499 0.1861
C20 C 0.2954(4) 0.0339(3) 0.27317(17)
C21 C 0.4156(4) 0.0209(3) 0.33261(18)
Mn1B Mn 0.63096(5) 0.68118(4) 0.67698(2)
Mn1C Mn 0.36904(5) 0.68118(4) 0.82302(2)
O3C O 0.2707(2) 0.4536(2) 0.24411(11)
O4B O 0.5890(3) 0.3803(2) 0.32959(11)
loop_
_geom_bond_atom_site_label_1
_geom_bond_atom_site_label_2
_geom_bond_site_symmetry_1
_geom_bond_site_symmetry_2
Mn1 O1 1_555 1_555
O1 C7 1_555 1_555
O2 Mn1 1_555 1_555
O3 C8 1_555 1_555
O4 C8 1_555 1_555
N1 Mn1 1_555 1_555
N2 Mn1 1_555 1_555
C1 C2 1_555 1_555
C2 H1 1_555 1_555
C3 C2 1_555 1_555
C4 C3 1_555 1_555
H2 C4 1_555 1_555
C5 C4 1_555 1_555
C6 C1 1_555 1_555
H3 C6 1_555 1_555
C7 O2 1_555 1_555
C8 C3 1_555 1_555
C9 C5 1_555 1_555
H4 C9 1_555 1_555
H5 C9 1_555 1_555
H6 C9 1_555 1_555
C10 N1 1_555 1_555
H7 C10 1_555 1_555
C11 C10 1_555 1_555
H8 C11 1_555 1_555
C12 C11 1_555 1_555
H9 C12 1_555 1_555
C13 C12 1_555 1_555
C14 C13 1_555 1_555
H10 C14 1_555 1_555
C15 C14 1_555 1_555
H11 C15 1_555 1_555
C16 C15 1_555 1_555
C17 C16 1_555 1_555
H12 C17 1_555 1_555
C18 C17 1_555 1_555
H13 C18 1_555 1_555
C19 N2 1_555 1_555
H14 C19 1_555 1_555
C20 N2 1_555 1_555
C21 N1 1_555 1_555
Mn1B O4 1_555 1_555
Mn1C O3 1_555 1_555
O3C Mn1 1_555 1_555
O4B Mn1 1_555 1_555
C1 C7 1_555 1_555
C5 C6 1_555 1_555
C13 C21 1_555 1_555
C16 C20 1_555 1_555
C18 C19 1_555 1_555
C20 C21 1_555 1_555

#END
