
#######################################################################
#
#                 Cambridge Crystallographic Data Centre
#                                CCDC 
#
#######################################################################
#
# If this CIF has been generated from an entry in the Cambridge 
# Structural Database, then it will include bibliographic, chemical, 
# crystal, experimental, refinement or atomic coordinate data resulting 
# from the CCDC's data processing and validation procedures.
#
#######################################################################

data_AGOWOJ
_symmetry_cell_setting           triclinic
_symmetry_space_group_name_H-M   'P -1'
_symmetry_Int_Tables_number      2
_space_group_name_Hall           '-P 1'
loop_
_symmetry_equiv_pos_site_id
_symmetry_equiv_pos_as_xyz
1 x,y,z
2 -x,-y,-z
_cell_length_a                   9.6284(15)
_cell_length_b                   10.5140(16)
_cell_length_c                   14.061(2)
_cell_angle_alpha                86.950(2)
_cell_angle_beta                 82.634(2)
_cell_angle_gamma                84.638(2)
_cell_volume                     1404.29
loop_
_atom_site_label
_atom_site_type_symbol
_atom_site_fract_x
_atom_site_fract_y
_atom_site_fract_z
Cu1 Cu -0.26318(3) -0.61714(3) 0.22768(2)
Cl1 Cl -0.47341(6) -0.84007(6) 0.15616(4)
O1 O -0.10650(18) -0.73316(16) 0.17600(12)
O3 O 0.06366(18) -0.88653(16) 0.18831(12)
O5 O -0.28664(18) -0.71861(17) 0.34603(13)
O6 O -0.21992(19) -0.87144(17) 0.44779(13)
O7 O -0.3817(2) -0.92542(18) 0.20754(14)
O8 O -0.4152(2) -0.71821(18) 0.13822(15)
O9 O -0.4873(2) -0.8913(2) 0.06554(15)
O10 O -0.6092(2) -0.8202(2) 0.21162(16)
N1 N -0.2330(2) -0.49946(19) 0.11139(15)
N2 N -0.1112(2) -0.08429(19) 0.00109(15)
H5 H -0.092(3) -0.107(2) -0.0593(13)
N3 N 0.4184(2) 0.49713(19) -0.29083(15)
N4 N 0.5058(2) 0.1376(2) -0.49802(15)
H6 H 0.6018(18) 0.137(3) -0.514(2)
C1 C -0.0271(3) -0.8057(2) 0.22604(18)
C2 C -0.0374(3) -0.7892(2) 0.33488(18)
C3 C -0.1915(3) -0.7954(2) 0.37928(18)
C4 C 0.0062(3) -0.6545(3) 0.3502(2)
H7 H -0.0549 -0.5898 0.3190
H8 H 0.1041 -0.6484 0.3223
H9 H -0.0031 -0.6400 0.4191
C5 C 0.0578(3) -0.8897(3) 0.3830(2)
H10 H 0.0483 -0.8758 0.4520
H11 H 0.1557 -0.8828 0.3553
H12 H 0.0309 -0.9750 0.3728
C6 C -0.2113(3) -0.5495(3) 0.02408(19)
H13 H -0.2063 -0.6398 0.0201
C7 C -0.1960(3) -0.4758(3) -0.0596(2)
H14 H -0.1803 -0.5146 -0.1200
C8 C -0.2038(3) -0.3439(3) -0.05452(19)
H15 H -0.1958 -0.2908 -0.1114
C9 C -0.2234(3) -0.2904(2) 0.03496(19)
C10 C -0.2381(3) -0.3715(2) 0.11544(19)
H16 H -0.2525 -0.3351 0.1767
C11 C -0.2389(3) -0.1471(2) 0.0465(2)
H17 H -0.3220 -0.1094 0.0169
H18 H -0.2553 -0.1296 0.1157
C12 C 0.0141(3) -0.1205(2) 0.05230(18)
H19 H 0.0344 -0.2145 0.0539
H20 H -0.0061 -0.0930 0.1193
C13 C -0.1406(3) 0.0583(2) -0.00249(19)
H21 H -0.1635 0.0888 0.0636
H22 H -0.2226 0.0827 -0.0375
C14 C 0.5513(3) 0.4907(3) -0.2703(2)
H23 H 0.5729 0.5388 -0.2197
C15 C 0.6575(3) 0.4149(3) -0.3216(2)
H24 H 0.7513 0.4129 -0.3069
C16 C 0.6273(3) 0.3429(3) -0.3935(2)
H25 H 0.6999 0.2915 -0.4293
C17 C 0.4891(3) 0.3458(2) -0.41357(18)
C18 C 0.3892(3) 0.4258(2) -0.36102(18)
H26 H 0.2950 0.4306 -0.3753
C19 C 0.4425(3) 0.2730(2) -0.49164(19)
H27 H 0.5329 -0.3188 -0.4460
H28 H 0.6611 -0.2728 -0.5193
C20 C 0.4502(3) 0.0759(2) -0.57676(18)
H29 H 0.3475 0.0718 -0.5606
H30 H 0.4664 0.1286 -0.6369
C21 C 0.5198(3) -0.0578(2) -0.59238(18)
H31 H 0.5191 0.0962 -0.3551
H32 H 0.3778 0.0543 -0.3891
Cu1A Cu 0.26318(3) 0.61714(3) -0.22768(2)
Cu1_2 Cu 0.73682(3) -0.61714(3) -0.77232(2)
Cl1A Cl 0.47341(6) 0.84007(6) -0.15616(4)
O1A O 0.10650(18) 0.73316(16) -0.17600(12)
O3A O -0.06366(18) 0.88653(16) -0.18831(12)
O5A O 0.28664(18) 0.71861(17) -0.34603(13)
O6A O 0.21992(19) 0.87144(17) -0.44779(13)
O7A O 0.3817(2) 0.92542(18) -0.20754(14)
O8A O 0.4152(2) 0.71821(18) -0.13822(15)
O9A O 0.4873(2) 0.8913(2) -0.06554(15)
O10A O 0.6092(2) 0.8202(2) -0.21162(16)
N1A N 0.2330(2) 0.49946(19) -0.11139(15)
N2A N 0.1112(2) 0.08429(19) -0.00109(15)
H5A H 0.092(3) 0.107(2) 0.0593(13)
N3A N -0.4184(2) -0.49713(19) 0.29083(15)
N3A_2 N 0.5816(2) -0.49713(19) -0.70917(15)
N4A N 0.4942(2) -0.1376(2) -0.50198(15)
H6A H 0.3982(18) -0.137(3) -0.486(2)
C1A C 0.0271(3) 0.8057(2) -0.22604(18)
C2A C 0.0374(3) 0.7892(2) -0.33488(18)
C3A C 0.1915(3) 0.7954(2) -0.37928(18)
C4A C -0.0062(3) 0.6545(3) -0.3502(2)
H7A H 0.0549 0.5898 -0.3190
H8A H -0.1041 0.6484 -0.3223
H9A H 0.0031 0.6400 -0.4191
C5A C -0.0578(3) 0.8897(3) -0.3830(2)
H10A H -0.0483 0.8758 -0.4520
H11A H -0.1557 0.8828 -0.3553
H12A H -0.0309 0.9750 -0.3728
C6A C 0.2113(3) 0.5495(3) -0.02408(19)
H13A H 0.2063 0.6398 -0.0201
C7A C 0.1960(3) 0.4758(3) 0.0596(2)
H14A H 0.1803 0.5146 0.1200
C8A C 0.2038(3) 0.3439(3) 0.05452(19)
H15A H 0.1958 0.2908 0.1114
C9A C 0.2234(3) 0.2904(2) -0.03496(19)
C10A C 0.2381(3) 0.3715(2) -0.11544(19)
H16A H 0.2525 0.3351 -0.1767
C11A C 0.2389(3) 0.1471(2) -0.0465(2)
H17A H 0.3220 0.1094 -0.0169
H18A H 0.2553 0.1296 -0.1157
C12A C -0.0141(3) 0.1205(2) -0.05230(18)
H19A H -0.0344 0.2145 -0.0539
H20A H 0.0061 0.0930 -0.1193
C13A C 0.1406(3) -0.0583(2) 0.00249(19)
H21A H 0.1635 -0.0888 -0.0636
H22A H 0.2226 -0.0827 0.0375
C14A C 0.4487(3) -0.4907(3) -0.7297(2)
H23A H 0.4271 -0.5388 -0.7803
C15A C 0.3425(3) -0.4149(3) -0.6784(2)
H24A H 0.2487 -0.4129 -0.6931
C16A C 0.3727(3) -0.3429(3) -0.6065(2)
H25A H 0.3001 -0.2915 -0.5707
C17A C 0.5109(3) -0.3458(2) -0.58643(18)
C18A C 0.6108(3) -0.4258(2) -0.63898(18)
H26A H 0.7050 -0.4306 -0.6247
C19A C 0.5575(3) -0.2730(2) -0.50836(19)
H27A H 0.4671 0.3188 -0.5540
H28A H 0.3389 0.2728 -0.4807
C20A C 0.5498(3) -0.0759(2) -0.42324(18)
H29A H 0.6525 -0.0718 -0.4394
H30A H 0.5336 -0.1286 -0.3631
C21A C 0.4802(3) 0.0578(2) -0.40762(18)
H31A H 0.4809 -0.0962 -0.6449
H32A H 0.6222 -0.0543 -0.6109
Cl2 Cl -0.95469(7) -0.73292(7) 0.67794(5)
O11 O -0.8420(3) -0.8204(2) 0.70439(19)
O12 O -0.9969(3) -0.6465(2) 0.75267(17)
O13 O -0.9089(3) -0.6625(3) 0.59195(18)
O14 O -1.0708(3) -0.7983(2) 0.6593(2)
O2 O -1.3036(3) -0.9069(2) 0.7673(2)
H1 H -1.221(3) -0.876(3) 0.747(3)
H2 H -1.284(4) -0.987(2) 0.785(3)
O4 O -0.3951(5) -0.7128(3) -0.1037(2)
H3 H -0.427(6) -0.753(4) -0.045(2)
H4 H -0.398(6) -0.782(4) -0.143(3)
loop_
_geom_bond_atom_site_label_1
_geom_bond_atom_site_label_2
_geom_bond_site_symmetry_1
_geom_bond_site_symmetry_2
Cu1 O1 1_555 1_555
Cl1 O7 1_555 1_555
Cl2 O11 1_555 1_555
O1 C1 1_555 1_555
O2 H1 1_555 1_555
H2 O2 1_555 1_555
O3 C1 1_555 1_555
O4 H3 1_555 1_555
H4 O4 1_555 1_555
O5 Cu1 1_555 1_555
O6 C3 1_555 1_555
O8 Cu1 1_555 1_555
O9 Cl1 1_555 1_555
O10 Cl1 1_555 1_555
O12 Cl2 1_555 1_555
O13 Cl2 1_555 1_555
O14 Cl2 1_555 1_555
N1 Cu1 1_555 1_555
N2 H5 1_555 1_555
N3 C14 1_555 1_555
N4 H6 1_555 1_555
C1 C2 1_555 1_555
C2 C3 1_555 1_555
C3 O5 1_555 1_555
C4 C2 1_555 1_555
H7 C4 1_555 1_555
H8 C4 1_555 1_555
H9 C4 1_555 1_555
C5 C2 1_555 1_555
H10 C5 1_555 1_555
H11 C5 1_555 1_555
H12 C5 1_555 1_555
C6 N1 1_555 1_555
H13 C6 1_555 1_555
C7 C6 1_555 1_555
H14 C7 1_555 1_555
C8 C7 1_555 1_555
H15 C8 1_555 1_555
C9 C8 1_555 1_555
C10 N1 1_555 1_555
H16 C10 1_555 1_555
C11 N2 1_555 1_555
H17 C11 1_555 1_555
H18 C11 1_555 1_555
C12 N2 1_555 1_555
H19 C12 1_555 1_555
H20 C12 1_555 1_555
C13 N2 1_555 1_555
H21 C13 1_555 1_555
H22 C13 1_555 1_555
C14 H23 1_555 1_555
C15 C14 1_555 1_555
H24 C15 1_555 1_555
C16 C15 1_555 1_555
H25 C16 1_555 1_555
C17 C16 1_555 1_555
C18 N3 1_555 1_555
H26 C18 1_555 1_555
C19 N4 1_555 1_555
H27 C19A 1_555 1_555
H28 C19A 1_555 1_555
C20 N4 1_555 1_555
H29 C20 1_555 1_555
H30 C20 1_555 1_555
C21 C20 1_555 1_555
H31 C21A 1_555 1_555
H32 C21A 1_555 1_555
Cu1A N3 1_555 1_555
Cu1_2 N3A_2 1_555 1_555
Cl1A O7A 1_555 1_555
O1A Cu1A 1_555 1_555
O3A C1A 1_555 1_555
O5A Cu1A 1_555 1_555
O6A C3A 1_555 1_555
O8A Cu1A 1_555 1_555
O9A Cl1A 1_555 1_555
O10A Cl1A 1_555 1_555
N1A Cu1A 1_555 1_555
N2A H5A 1_555 1_555
N3A Cu1 1_555 1_555
N3A_2 C14A 1_555 1_555
N4A C21 1_555 1_555
H6A N4A 1_555 1_555
C1A O1A 1_555 1_555
C2A C1A 1_555 1_555
C3A O5A 1_555 1_555
C4A C2A 1_555 1_555
H7A C4A 1_555 1_555
H8A C4A 1_555 1_555
H9A C4A 1_555 1_555
C5A C2A 1_555 1_555
H10A C5A 1_555 1_555
H11A C5A 1_555 1_555
H12A C5A 1_555 1_555
C6A N1A 1_555 1_555
H13A C6A 1_555 1_555
C7A C6A 1_555 1_555
H14A C7A 1_555 1_555
C8A C7A 1_555 1_555
H15A C8A 1_555 1_555
C9A C8A 1_555 1_555
C10A N1A 1_555 1_555
H16A C10A 1_555 1_555
C11A N2A 1_555 1_555
H17A C11A 1_555 1_555
H18A C11A 1_555 1_555
C12A C13 1_555 1_555
H19A C12A 1_555 1_555
H20A C12A 1_555 1_555
C13A C12 1_555 1_555
H21A C13A 1_555 1_555
H22A C13A 1_555 1_555
C14A H23A 1_555 1_555
C15A C14A 1_555 1_555
H24A C15A 1_555 1_555
C16A C15A 1_555 1_555
H25A C16A 1_555 1_555
C17A C16A 1_555 1_555
C18A N3A_2 1_555 1_555
H26A C18A 1_555 1_555
C19A N4A 1_555 1_555
H27A C19 1_555 1_555
H28A C19 1_555 1_555
C20A N4A 1_555 1_555
H29A C20A 1_555 1_555
H30A C20A 1_555 1_555
C21A N4 1_555 1_555
H31A C21 1_555 1_555
H32A C21 1_555 1_555
Cl1 O8 1_555 1_555
C9 C10 1_555 1_555
C9 C11 1_555 1_555
C17 C18 1_555 1_555
C17 C19 1_555 1_555
Cl1A O8A 1_555 1_555
N2A C12A 1_555 1_555
N2A C13A 1_555 1_555
C2A C3A 1_555 1_555
C9A C10A 1_555 1_555
C9A C11A 1_555 1_555
C17A C18A 1_555 1_555
C17A C19A 1_555 1_555
C20A C21A 1_555 1_555

#END
