
#######################################################################
#
#                 Cambridge Crystallographic Data Centre
#                                CCDC 
#
#######################################################################
#
# If this CIF has been generated from an entry in the Cambridge 
# Structural Database, then it will include bibliographic, chemical, 
# crystal, experimental, refinement or atomic coordinate data resulting 
# from the CCDC's data processing and validation procedures.
#
#######################################################################

data_AGOWUQ
_symmetry_cell_setting           orthorhombic
_symmetry_space_group_name_H-M   'P n m a'
_symmetry_Int_Tables_number      62
_space_group_name_Hall           '-P 2ac 2n'
loop_
_symmetry_equiv_pos_site_id
_symmetry_equiv_pos_as_xyz
1 x,y,z
2 1/2-x,-y,1/2+z
3 -x,1/2+y,-z
4 1/2+x,1/2-y,1/2-z
5 -x,-y,-z
6 1/2+x,y,1/2-z
7 x,1/2-y,z
8 1/2-x,1/2+y,1/2+z
_cell_length_a                   12.1430(5)
_cell_length_b                   30.7644(13)
_cell_length_c                   8.1282(3)
_cell_angle_alpha                90
_cell_angle_beta                 90
_cell_angle_gamma                90
_cell_volume                     3036.47
loop_
_atom_site_label
_atom_site_type_symbol
_atom_site_fract_x
_atom_site_fract_y
_atom_site_fract_z
Cu1 Cu 0.06867(3) 0.701782(15) 1.02994(5)
Cu2 Cu -0.05515(4) 0.7500 0.72471(7)
C1 C 0.2216(3) 0.65067(13) 0.8944(6)
C2 C 0.4297(3) 0.65668(12) 0.6967(5)
C3 C 0.2948(3) 0.61188(12) 0.8661(5)
C4 C 0.2655(3) 0.57258(13) 0.9320(5)
H1 H 0.2054 0.5715 1.0029
C5 C 0.3224(3) 0.53380(13) 0.8970(5)
C6 C 0.2921(3) 0.49349(14) 0.9619(6)
H2 H 0.2316 0.4918 1.0318
C7 C 0.3486(4) 0.45696(15) 0.9256(7)
H3 H 0.3276 0.4305 0.9717
C8 C 0.4394(4) 0.45890(15) 0.8177(7)
H4 H 0.4773 0.4336 0.7912
C9 C 0.4718(3) 0.49720(13) 0.7526(6)
H5 H 0.5331 0.4982 0.6840
C10 C 0.4132(3) 0.53591(12) 0.7878(5)
C11 C 0.4433(3) 0.57672(11) 0.7214(5)
H6 H 0.5033 0.5783 0.6505
C12 C 0.3871(2) 0.61375(11) 0.7583(4)
O1 O 0.18802(18) 0.65791(9) 1.0385(4)
O2 O 0.1932(2) 0.67176(9) 0.7722(4)
O3 O 0.42600(19) 0.68777(8) 0.7953(3)
O4 O 0.46964(18) 0.65706(8) 0.5543(3)
O5 O 0.0009(2) 0.68668(9) 1.2910(3)
H7 H -0.0446 0.6657 1.2924
H8 H -0.0339 0.7020 1.3606
O6 O 0.1624(2) 0.7500 1.0903(4)
H9 H 0.2217 0.7500 1.0349
O7 O 0.1263(3) 0.7500 0.6724(5)
H10 H 0.1542 0.7283 0.7218
O8 O -0.0998(3) 0.7500 0.4870(4)
H11 H -0.0639 0.7277 0.4564
O9 O -0.0312(2) 0.7500 0.9630(4)
H12 H -0.0915 0.7500 1.0160
H10F H 0.1542 0.7717 0.7218
H11F H -0.0639 0.7723 0.4564
Cu1F Cu 0.06867(3) 0.798218(15) 1.02994(5)
C1F C 0.2216(3) 0.84933(13) 0.8944(6)
C2F C 0.4297(3) 0.84332(12) 0.6967(5)
C3F C 0.2948(3) 0.88812(12) 0.8661(5)
C4F C 0.2655(3) 0.92742(13) 0.9320(5)
H1F H 0.2054 0.9285 1.0029
C5F C 0.3224(3) 0.96620(13) 0.8970(5)
C6F C 0.2921(3) 1.00651(14) 0.9619(6)
H2F H 0.2316 1.0082 1.0318
C7F C 0.3486(4) 1.04304(15) 0.9256(7)
H3F H 0.3276 1.0695 0.9717
C8F C 0.4394(4) 1.04110(15) 0.8177(7)
H4F H 0.4773 1.0664 0.7912
C9F C 0.4718(3) 1.00280(13) 0.7526(6)
H5F H 0.5331 1.0018 0.6840
C10F C 0.4132(3) 0.96409(12) 0.7878(5)
C11F C 0.4433(3) 0.92328(11) 0.7214(5)
H6F H 0.5033 0.9217 0.6505
C12F C 0.3871(2) 0.88625(11) 0.7583(4)
O1F O 0.18802(18) 0.84209(9) 1.0385(4)
O2F O 0.1932(2) 0.82824(9) 0.7722(4)
O3F O 0.42600(19) 0.81223(8) 0.7953(3)
O4F O 0.46964(18) 0.84294(8) 0.5543(3)
O5F O 0.0009(2) 0.81332(9) 1.2910(3)
H7F H -0.0446 0.8343 1.2924
H8F H -0.0339 0.7980 1.3606
Cu1C Cu 0.56867(3) 0.798218(15) 0.47006(5)
Cu1E Cu 0.56867(3) 0.701782(15) 0.47006(5)
Cu2C Cu 0.44485(4) 0.7500 0.77529(7)
O3C O -0.07400(19) 0.81223(8) 0.7047(3)
O3E O -0.07400(19) 0.68777(8) 0.7047(3)
O4C O -0.03036(18) 0.84294(8) 0.9457(3)
O4E O -0.03036(18) 0.65706(8) 0.9457(3)
O10 O 0.1817(3) 0.65794(14) 0.4518(5)
H13 H 0.1145 0.6590 0.4228
H14 H 0.2230 0.6598 0.3678
O11 O 0.7651(3) 0.7500 0.1070(5)
H15 H 0.7175 0.7500 0.0303
H16 H 0.7334 0.7500 0.2002
O12 O -0.1447(3) 0.62076(14) 1.2366(6)
H17 H -0.1981 0.6365 1.2684
H18 H -0.1545 0.6112 1.1396
loop_
_geom_bond_atom_site_label_1
_geom_bond_atom_site_label_2
_geom_bond_site_symmetry_1
_geom_bond_site_symmetry_2
Cu1 O1 1_555 1_555
Cu2 O7 1_555 1_555
C1 C3 1_555 1_555
C2 C12 1_555 1_555
C3 C4 1_555 1_555
C4 H1 1_555 1_555
C5 C4 1_555 1_555
C6 C5 1_555 1_555
H2 C6 1_555 1_555
C7 C6 1_555 1_555
H3 C7 1_555 1_555
C8 C7 1_555 1_555
H4 C8 1_555 1_555
C9 C8 1_555 1_555
H5 C9 1_555 1_555
C10 C5 1_555 1_555
C11 C10 1_555 1_555
H6 C11 1_555 1_555
C12 C3 1_555 1_555
O1 C1 1_555 1_555
O2 Cu1 1_555 1_555
O3 C2 1_555 1_555
O4 C2 1_555 1_555
O5 Cu1 1_555 1_555
H7 O5 1_555 1_555
H8 O5 1_555 1_555
O6 Cu1 1_555 1_555
H9 O6 1_555 1_555
O7 H10 1_555 1_555
O8 Cu2 1_555 1_555
H11 O8 1_555 1_555
O9 Cu1 1_555 1_555
H12 O9 1_555 1_555
O10 H13 1_555 1_555
H14 O10 1_555 1_555
O11 H15 1_555 1_555
H16 O11 1_555 1_555
O12 H17 1_555 1_555
H18 O12 1_555 1_555
H10F O7 1_555 1_555
H11F O8 1_555 1_555
Cu1F O6 1_555 1_555
C1F C3F 1_555 1_555
C2F C12F 1_555 1_555
C3F C4F 1_555 1_555
C4F H1F 1_555 1_555
C5F C4F 1_555 1_555
C6F C5F 1_555 1_555
H2F C6F 1_555 1_555
C7F C6F 1_555 1_555
H3F C7F 1_555 1_555
C8F C7F 1_555 1_555
H4F C8F 1_555 1_555
C9F C8F 1_555 1_555
H5F C9F 1_555 1_555
C10F C5F 1_555 1_555
C11F C10F 1_555 1_555
H6F C11F 1_555 1_555
C12F C3F 1_555 1_555
O1F Cu1F 1_555 1_555
O2F Cu1F 1_555 1_555
O3F C2F 1_555 1_555
O4F C2F 1_555 1_555
O5F Cu1F 1_555 1_555
H7F O5F 1_555 1_555
H8F O5F 1_555 1_555
Cu1C O4F 1_555 1_555
Cu1E O4 1_555 1_555
Cu2C O3 1_555 1_555
O3C Cu2 1_555 1_555
O3E Cu2 1_555 1_555
O4C Cu1F 1_555 1_555
O4E Cu1 1_555 1_555
Cu2 O9 1_555 1_555
C1 O2 1_555 1_555
C9 C10 1_555 1_555
C11 C12 1_555 1_555
O9 Cu1F 1_555 1_555
C1F O1F 1_555 1_555
C1F O2F 1_555 1_555
C9F C10F 1_555 1_555
C11F C12F 1_555 1_555
O3F Cu2C 1_555 1_555

#END
