
#######################################################################
#
#                 Cambridge Crystallographic Data Centre
#                                CCDC 
#
#######################################################################
#
# If this CIF has been generated from an entry in the Cambridge 
# Structural Database, then it will include bibliographic, chemical, 
# crystal, experimental, refinement or atomic coordinate data resulting 
# from the CCDC's data processing and validation procedures.
#
#######################################################################

data_AGOXAV
_symmetry_cell_setting           triclinic
_symmetry_space_group_name_H-M   'P -1'
_symmetry_Int_Tables_number      2
_space_group_name_Hall           '-P 1'
loop_
_symmetry_equiv_pos_site_id
_symmetry_equiv_pos_as_xyz
1 x,y,z
2 -x,-y,-z
_cell_length_a                   11.600(3)
_cell_length_b                   15.188(6)
_cell_length_c                   20.496(6)
_cell_angle_alpha                95.22(3)
_cell_angle_beta                 106.35(2)
_cell_angle_gamma                107.04(3)
_cell_volume                     3253.1
loop_
_atom_site_label
_atom_site_type_symbol
_atom_site_fract_x
_atom_site_fract_y
_atom_site_fract_z
Ni1 Ni 0.47512(7) 0.85110(5) 0.38129(4)
Ni2 Ni 0.14144(7) 0.53172(5) 0.15044(4)
N1 N 0.5448(5) 0.9594(4) 0.4699(3)
N2 N 0.5000 1.0000 0.5000
N3 N 0.4120(5) 0.7451(3) 0.2937(3)
N4 N 0.3440(4) 0.6680(4) 0.2725(2)
N5 N 0.2786(5) 0.5906(4) 0.2504(3)
N6 N 0.0045(5) 0.4735(4) 0.0522(3)
N7 N 0.0000 0.5000 0.0000
N8 N 0.3002(5) 0.7989(3) 0.4009(3)
C1 C 0.2537(7) 0.7090(5) 0.4071(4)
H1 H 0.2927(7) 0.6674(5) 0.3952(4)
C2 C 0.1519(8) 0.6756(6) 0.4299(4)
H2 H 0.1249(8) 0.6130(6) 0.4341(4)
C3 C 0.0886(8) 0.7344(7) 0.4468(4)
C4 C 0.1357(7) 0.8254(6) 0.4393(4)
H3 H 0.0977(7) 0.8683(6) 0.4502(4)
C5 C 0.2380(6) 0.8541(5) 0.4161(4)
H4 H 0.2654(6) 0.9161(5) 0.4107(4)
C6 C -0.0203(10) 0.7006(9) 0.4751(7)
H5 H -0.0959(10) 0.7069(9) 0.4434(7)
H6 H -0.0369(10) 0.6344(9) 0.4761(7)
C7 C -0.0003(14) 0.7480(10) 0.5419(7)
H7 H -0.0673(50) 0.7157(38) 0.5587(21)
H8 H -0.0002(87) 0.8109(23) 0.5399(11)
H9 H 0.0802(42) 0.7496(56) 0.5726(13)
N9 N 0.4082(5) 0.9427(3) 0.3194(3)
C8 C 0.4757(7) 1.0345(5) 0.3329(4)
H10 H 0.5521(7) 1.0571(5) 0.3694(4)
C9 C 0.4367(10) 1.0961(6) 0.2951(5)
H11 H 0.4863(10) 1.1592(6) 0.3061(5)
C10 C 0.3258(12) 1.0655(8) 0.2415(6)
C11 C 0.2549(9) 0.9713(7) 0.2272(5)
H12 H 0.1781(9) 0.9474(7) 0.1910(5)
C12 C 0.3000(7) 0.9141(5) 0.2674(4)
H13 H 0.2513(7) 0.8508(5) 0.2575(4)
C13 C 0.2821(19) 1.1315(11) 0.1934(9)
H14 H 0.3576(19) 1.1720(11) 0.1862(9)
H15 H 0.2281(19) 1.0924(11) 0.1488(9)
C14 C 0.2258(26) 1.1817(19) 0.2093(18)
H16 H 0.179(28) 1.198(21) 0.1684(27)
H17 H 0.2862(39) 1.238(12) 0.240(15)
H18 H 0.168(26) 1.1489(99) 0.232(18)
N10 N 0.5510(5) 0.7664(4) 0.4462(3)
C15 C 0.5460(7) 0.7689(6) 0.5104(4)
H19 H 0.5129(7) 0.8115(6) 0.5273(4)
C16 C 0.5880(8) 0.7111(7) 0.5536(5)
H20 H 0.5820(8) 0.7144(7) 0.5980(5)
C17 C 0.6385(9) 0.6485(8) 0.5289(6)
C18 C 0.6409(8) 0.6450(6) 0.4631(6)
H21 H 0.6721(8) 0.6024(6) 0.4445(6)
C19 C 0.5977(7) 0.7037(5) 0.4241(4)
H22 H 0.6011(7) 0.6997(5) 0.3792(4)
C20 C 0.6845(18) 0.5760(13) 0.5697(9)
H23 H 0.6430(18) 0.5147(13) 0.5398(9)
H24 H 0.7753(18) 0.5917(13) 0.5775(9)
C21 C 0.6671(22) 0.5688(17) 0.6254(10)
H25 H 0.698(16) 0.5213(90) 0.6439(45)
H26 H 0.5776(26) 0.552(13) 0.6191(18)
H27 H 0.712(14) 0.6277(39) 0.6571(31)
N11 N 0.6511(5) 0.9021(3) 0.3621(2)
C22 C 0.7617(6) 0.9361(5) 0.4134(4)
H28 H 0.7616(6) 0.9392(5) 0.4589(4)
C23 C 0.8761(6) 0.9670(6) 0.4011(4)
H29 H 0.9510(6) 0.9920(6) 0.4385(4)
C24 C 0.8829(6) 0.9620(5) 0.3349(4)
C25 C 0.7689(6) 0.9282(4) 0.2835(3)
H30 H 0.7666(6) 0.9243(4) 0.2376(3)
C26 C 0.6567(6) 0.8996(4) 0.2983(3)
H31 H 0.5807(6) 0.8774(4) 0.2615(3)
C27 C 1.0077(7) 0.9888(6) 0.3195(5)
H32 H 1.0341(7) 0.9339(6) 0.3171(5)
H33 H 0.9926(7) 1.0058(6) 0.2741(5)
C28 C 1.1141(8) 1.0667(7) 0.3697(5)
H34 H 1.1871(21) 1.0801(32) 0.3543(18)
H35 H 1.1349(41) 1.0490(18) 0.4142(10)
H36 H 1.0891(24) 1.1214(14) 0.3732(25)
N12 N 0.0644(5) 0.4068(3) 0.1830(3)
C29 C 0.0208(7) 0.3242(5) 0.1406(4)
H37 H 0.0388(7) 0.3215(5) 0.0992(4)
C30 C -0.0489(8) 0.2431(5) 0.1544(5)
H38 H -0.0769(8) 0.1874(5) 0.1227(5)
C31 C -0.0777(8) 0.2435(6) 0.2142(6)
C32 C -0.0330(8) 0.3286(6) 0.2597(5)
H39 H -0.0501(8) 0.3324(6) 0.3014(5)
C33 C 0.0367(7) 0.4069(5) 0.2421(4)
H40 H 0.0666(7) 0.4635(5) 0.2731(4)
C34 C -0.1572(11) 0.1552(7) 0.2320(7)
H41 H -0.1476(11) 0.1008(7) 0.2083(7)
H42 H -0.1245(11) 0.1573(7) 0.2814(7)
C35 C -0.2879(12) 0.1442(9) 0.2136(10)
H43 H -0.3091(25) 0.1571(73) 0.2546(11)
H44 H -0.3374(12) 0.0811(24) 0.1898(50)
H45 H -0.3061(23) 0.1871(55) 0.1838(47)
N13 N 0.0074(5) 0.5821(3) 0.1800(3)
C36 C -0.1147(7) 0.5330(5) 0.1599(4)
H46 H -0.1441(7) 0.4765(5) 0.1288(4)
C37 C -0.2005(8) 0.5617(6) 0.1828(5)
H47 H -0.2864(8) 0.5253(6) 0.1668(5)
C38 C -0.1598(8) 0.6438(6) 0.2293(5)
C39 C -0.0351(8) 0.6951(6) 0.2480(5)
H48 H -0.0037(8) 0.7530(6) 0.2777(5)
C40 C 0.0443(7) 0.6623(5) 0.2236(4)
H49 H 0.1302(7) 0.6984(5) 0.2385(4)
C41 C -0.2489(10) 0.6776(8) 0.2619(7)
H50 H -0.2552(10) 0.6471(8) 0.3010(7)
H51 H -0.2101(10) 0.7445(8) 0.2796(7)
C42 C -0.3676(11) 0.6604(10) 0.2180(8)
H52 H -0.4018(41) 0.7065(46) 0.2322(34)
H53 H -0.4210(27) 0.5991(32) 0.2187(41)
H54 H -0.3643(16) 0.6635(72) 0.1720(13)
N14 N 0.2713(5) 0.4744(4) 0.1224(3)
C43 C 0.3473(7) 0.4416(5) 0.1685(4)
H55 H 0.3482(7) 0.4490(5) 0.2142(4)
C44 C 0.4253(8) 0.3963(5) 0.1495(6)
H56 H 0.4767(8) 0.3739(5) 0.1827(6)
C45 C 0.4271(9) 0.3844(7) 0.0830(7)
C46 C 0.3503(8) 0.4199(7) 0.0378(5)
H57 H 0.3486(8) 0.4140(7) -0.0081(5)
C47 C 0.2759(7) 0.4636(6) 0.0581(4)
H58 H 0.2255(7) 0.4872(6) 0.0254(4)
C48 C 0.5191(13) 0.3434(10) 0.0551(8)
H59 H 0.4699(13) 0.3037(10) 0.0101(8)
H60 H 0.5841(13) 0.3954(10) 0.0483(8)
C49 C 0.5758(19) 0.2951(12) 0.0941(11)
H61 H 0.625(11) 0.3334(35) 0.1389(27)
H62 H 0.631(11) 0.2754(87) 0.0731(40)
H63 H 0.5130(19) 0.2410(56) 0.0990(62)
N15 N 0.2100(5) 0.6570(3) 0.1143(3)
C50 C 0.1340(7) 0.7032(5) 0.0852(4)
H64 H 0.0477(7) 0.6785(5) 0.0798(4)
C51 C 0.1757(9) 0.7848(5) 0.0627(4)
H65 H 0.1192(9) 0.8158(5) 0.0446(4)
C52 C 0.3008(12) 0.8210(6) 0.0668(5)
C53 C 0.3817(9) 0.7736(6) 0.0975(5)
H66 H 0.4679(9) 0.7962(6) 0.1023(5)
C54 C 0.3330(7) 0.6933(5) 0.1205(4)
H67 H 0.3882(7) 0.6627(5) 0.1413(4)
C55 C 0.3483(14) 0.9099(8) 0.0369(7)
H68 H 0.3890(14) 0.8952(8) 0.0041(7)
H69 H 0.2749(14) 0.9254(8) 0.0116(7)
C56 C 0.4273(21) 0.9831(10) 0.0822(10)
H70 H 0.413(10) 0.9796(53) 0.1259(23)
H71 H 0.4147(99) 1.0385(12) 0.0670(40)
H72 H 0.5130(22) 0.9854(58) 0.0873(58)
N1A N 0.4552(5) 1.0406(4) 0.5301(3)
N6A N -0.0045(5) 0.5265(4) -0.0522(3)
Ni1A Ni 0.52488(7) 1.14890(5) 0.61871(4)
N3A N 0.5880(5) 1.2549(3) 0.7063(3)
N4A N 0.6560(4) 1.3320(4) 0.7275(2)
N5A N 0.7214(5) 1.4094(4) 0.7496(3)
N8A N 0.6998(5) 1.2011(3) 0.5991(3)
C1A C 0.7463(7) 1.2910(5) 0.5929(4)
H1A H 0.7073(7) 1.3326(5) 0.6048(4)
C2A C 0.8481(8) 1.3244(6) 0.5701(4)
H2A H 0.8751(8) 1.3870(6) 0.5659(4)
C3A C 0.9114(8) 1.2656(7) 0.5532(4)
C4A C 0.8643(7) 1.1746(6) 0.5607(4)
H3A H 0.9023(7) 1.1317(6) 0.5498(4)
C5A C 0.7620(6) 1.1459(5) 0.5839(4)
H4A H 0.7346(6) 1.0839(5) 0.5893(4)
C6A C 1.0203(10) 1.2994(9) 0.5249(7)
H5A H 1.0959(10) 1.2931(9) 0.5566(7)
H6A H 1.0369(10) 1.3656(9) 0.5239(7)
C7A C 1.0003(14) 1.2520(10) 0.4581(7)
H7A H 1.0673(50) 1.2843(38) 0.4413(21)
H8A H 1.0002(87) 1.1891(23) 0.4601(11)
H9A H 0.9198(42) 1.2504(56) 0.4274(13)
N9A N 0.5918(5) 1.0573(3) 0.6806(3)
C8A C 0.5243(7) 0.9655(5) 0.6671(4)
H10A H 0.4479(7) 0.9429(5) 0.6306(4)
C9A C 0.5633(10) 0.9039(6) 0.7049(5)
H11A H 0.5137(10) 0.8408(6) 0.6939(5)
C10A C 0.6742(12) 0.9345(8) 0.7585(6)
C11A C 0.7451(9) 1.0287(7) 0.7728(5)
H12A H 0.8219(9) 1.0526(7) 0.8090(5)
C12A C 0.7000(7) 1.0859(5) 0.7326(4)
H13A H 0.7487(7) 1.1492(5) 0.7425(4)
C13A C 0.7179(19) 0.8685(11) 0.8066(9)
H14A H 0.6424(19) 0.8280(11) 0.8138(9)
H15A H 0.7719(19) 0.9076(11) 0.8512(9)
C14A C 0.7742(26) 0.8183(19) 0.7907(18)
H16A H 0.821(28) 0.802(21) 0.8316(27)
H17A H 0.7138(39) 0.762(12) 0.760(15)
H18A H 0.832(26) 0.8511(99) 0.768(18)
N10A N 0.4490(5) 1.2336(4) 0.5538(3)
C15A C 0.4540(7) 1.2311(6) 0.4896(4)
H19A H 0.4871(7) 1.1885(6) 0.4727(4)
C16A C 0.4120(8) 1.2889(7) 0.4464(5)
H20A H 0.4180(8) 1.2856(7) 0.4020(5)
C17A C 0.3615(9) 1.3515(8) 0.4711(6)
C18A C 0.3591(8) 1.3550(6) 0.5369(6)
H21A H 0.3279(8) 1.3976(6) 0.5555(6)
C19A C 0.4023(7) 1.2963(5) 0.5759(4)
H22A H 0.3989(7) 1.3003(5) 0.6208(4)
C20A C 0.3155(18) 1.4240(13) 0.4303(9)
H23A H 0.3570(18) 1.4853(13) 0.4602(9)
H24A H 0.2247(18) 1.4083(13) 0.4225(9)
C21A C 0.3329(22) 1.4312(17) 0.3746(10)
H25A H 0.302(16) 1.4787(90) 0.3561(45)
H26A H 0.4224(26) 1.448(13) 0.3809(18)
H27A H 0.288(14) 1.3723(39) 0.3429(31)
N11A N 0.3489(5) 1.0979(3) 0.6379(2)
C22A C 0.2383(6) 1.0639(5) 0.5866(4)
H28A H 0.2384(6) 1.0608(5) 0.5411(4)
C23A C 0.1239(6) 1.0330(6) 0.5989(4)
H29A H 0.0490(6) 1.0080(6) 0.5615(4)
C24A C 0.1171(6) 1.0380(5) 0.6651(4)
C25A C 0.2311(6) 1.0718(4) 0.7165(3)
H30A H 0.2334(6) 1.0757(4) 0.7624(3)
C26A C 0.3433(6) 1.1004(4) 0.7017(3)
H31A H 0.4193(6) 1.1226(4) 0.7385(3)
C27A C -0.0077(7) 1.0112(6) 0.6805(5)
H32A H -0.0341(7) 1.0661(6) 0.6829(5)
H33A H 0.0074(7) 0.9942(6) 0.7259(5)
C28A C -0.1141(8) 0.9333(7) 0.6303(5)
H34A H -0.1871(21) 0.9199(32) 0.6457(18)
H35A H -0.1349(41) 0.9510(18) 0.5858(10)
H36A H -0.0891(24) 0.8786(14) 0.6268(25)
Ni2A Ni 0.85856(7) 1.46828(5) 0.84956(4)
N12A N 0.9356(5) 1.5932(3) 0.8170(3)
C29A C 0.9792(7) 1.6758(5) 0.8594(4)
H37A H 0.9612(7) 1.6785(5) 0.9008(4)
C30A C 1.0489(8) 1.7569(5) 0.8456(5)
H38A H 1.0769(8) 1.8126(5) 0.8773(5)
C31A C 1.0777(8) 1.7565(6) 0.7858(6)
C32A C 1.0330(8) 1.6714(6) 0.7403(5)
H39A H 1.0501(8) 1.6676(6) 0.6986(5)
C33A C 0.9633(7) 1.5931(5) 0.7579(4)
H40A H 0.9334(7) 1.5365(5) 0.7269(4)
C34A C 1.1572(11) 1.8448(7) 0.7680(7)
H41A H 1.1476(11) 1.8992(7) 0.7917(7)
H42A H 1.1245(11) 1.8427(7) 0.7186(7)
C35A C 1.2879(12) 1.8558(9) 0.7864(10)
H43A H 1.3091(25) 1.8429(73) 0.7454(11)
H44A H 1.3374(12) 1.9189(24) 0.8102(50)
H45A H 1.3061(23) 1.8129(55) 0.8162(47)
N13A N 0.9926(5) 1.4179(3) 0.8200(3)
C36A C 1.1147(7) 1.4670(5) 0.8401(4)
H46A H 1.1441(7) 1.5235(5) 0.8712(4)
C37A C 1.2005(8) 1.4383(6) 0.8172(5)
H47A H 1.2864(8) 1.4747(6) 0.8332(5)
C38A C 1.1598(8) 1.3562(6) 0.7707(5)
C39A C 1.0351(8) 1.3049(6) 0.7520(5)
H48A H 1.0037(8) 1.2470(6) 0.7223(5)
C40A C 0.9557(7) 1.3377(5) 0.7764(4)
H49A H 0.8698(7) 1.3016(5) 0.7615(4)
C41A C 1.2489(10) 1.3224(8) 0.7381(7)
H50A H 1.2552(10) 1.3529(8) 0.6990(7)
H51A H 1.2101(10) 1.2555(8) 0.7204(7)
C42A C 1.3676(11) 1.3396(10) 0.7820(8)
H52A H 1.4018(41) 1.2935(46) 0.7678(34)
H53A H 1.4210(27) 1.4009(32) 0.7813(41)
H54A H 1.3643(16) 1.3365(72) 0.8280(13)
N14A N 0.7287(5) 1.5256(4) 0.8776(3)
C43A C 0.6527(7) 1.5584(5) 0.8315(4)
H55A H 0.6518(7) 1.5510(5) 0.7858(4)
C44A C 0.5747(8) 1.6037(5) 0.8505(6)
H56A H 0.5233(8) 1.6261(5) 0.8173(6)
C45A C 0.5729(9) 1.6156(7) 0.9170(7)
C46A C 0.6497(8) 1.5801(7) 0.9622(5)
H57A H 0.6514(8) 1.5860(7) 1.0081(5)
C47A C 0.7241(7) 1.5364(6) 0.9419(4)
H58A H 0.7745(7) 1.5128(6) 0.9746(4)
C48A C 0.4809(13) 1.6566(10) 0.9449(8)
H59A H 0.5301(13) 1.6963(10) 0.9899(8)
H60A H 0.4159(13) 1.6046(10) 0.9517(8)
C49A C 0.4242(19) 1.7049(12) 0.9059(11)
H61A H 0.375(11) 1.6666(35) 0.8611(27)
H62A H 0.369(11) 1.7246(87) 0.9269(40)
H63A H 0.4870(19) 1.7590(56) 0.9010(62)
N15A N 0.7900(5) 1.3430(3) 0.8857(3)
C50A C 0.8660(7) 1.2968(5) 0.9148(4)
H64A H 0.9523(7) 1.3215(5) 0.9202(4)
C51A C 0.8243(9) 1.2152(5) 0.9373(4)
H65A H 0.8808(9) 1.1842(5) 0.9554(4)
C52A C 0.6992(12) 1.1790(6) 0.9332(5)
C53A C 0.6183(9) 1.2264(6) 0.9025(5)
H66A H 0.5321(9) 1.2038(6) 0.8977(5)
C54A C 0.6670(7) 1.3067(5) 0.8795(4)
H67A H 0.6118(7) 1.3373(5) 0.8587(4)
C55A C 0.6517(14) 1.0901(8) 0.9631(7)
H68A H 0.6110(14) 1.1048(8) 0.9959(7)
H69A H 0.7251(14) 1.0746(8) 0.9884(7)
C56A C 0.5727(21) 1.0169(10) 0.9178(10)
H70A H 0.587(10) 1.0204(53) 0.8741(23)
H71A H 0.5853(99) 0.9615(12) 0.9330(40)
H72A H 0.4870(22) 1.0146(58) 0.9127(58)
Ni2A_2 Ni -0.14144(7) 0.46828(5) -0.15044(4)
N6A_2 N 0.9955(5) 1.5265(4) 0.9478(3)
P1 P -0.2895(3) 0.4020(2) 0.3562(2)
F1 F -0.3072(18) 0.4922(7) 0.3442(7)
F2 F -0.2936(10) 0.3839(9) 0.2812(5)
F3 F -0.2783(14) 0.3105(7) 0.3683(7)
F4 F -0.4335(9) 0.3534(9) 0.3275(6)
F5 F -0.2904(15) 0.4272(9) 0.4276(5)
F6 F -0.1504(10) 0.4386(11) 0.3781(7)
P2 P -0.1629(3) 0.8728(3) 0.0869(2)
F7 F -0.0375(11) 0.9050(10) 0.0741(6)
F8 F -0.0885(10) 0.8675(9) 0.1621(5)
F9 F -0.2803(10) 0.8436(17) 0.1037(6)
F10 F -0.1404(18) 0.9692(9) 0.1162(10)
F11 F -0.1692(18) 0.7753(9) 0.0650(9)
F12 F -0.2380(12) 0.8685(11) 0.0136(5)
loop_
_geom_bond_atom_site_label_1
_geom_bond_atom_site_label_2
_geom_bond_site_symmetry_1
_geom_bond_site_symmetry_2
Ni1 N1 1_555 1_555
Ni2 N5 1_555 1_555
N1 N2 1_555 1_555
N2 N1A 1_555 1_555
N3 Ni1 1_555 1_555
N4 N3 1_555 1_555
N5 N4 1_555 1_555
N6 Ni2 1_555 1_555
N7 N6 1_555 1_555
N8 Ni1 1_555 1_555
C1 N8 1_555 1_555
H1 C1 1_555 1_555
C2 C1 1_555 1_555
H2 C2 1_555 1_555
C3 C2 1_555 1_555
C4 C3 1_555 1_555
H3 C4 1_555 1_555
C5 N8 1_555 1_555
H4 C5 1_555 1_555
C6 C3 1_555 1_555
H5 C6 1_555 1_555
H6 C6 1_555 1_555
C7 C6 1_555 1_555
H7 C7 1_555 1_555
H8 C7 1_555 1_555
H9 C7 1_555 1_555
N9 Ni1 1_555 1_555
C8 N9 1_555 1_555
H10 C8 1_555 1_555
C9 C8 1_555 1_555
H11 C9 1_555 1_555
C10 C9 1_555 1_555
C11 C10 1_555 1_555
H12 C11 1_555 1_555
C12 N9 1_555 1_555
H13 C12 1_555 1_555
C13 C10 1_555 1_555
H14 C13 1_555 1_555
H15 C13 1_555 1_555
C14 C13 1_555 1_555
H16 C14 1_555 1_555
H17 C14 1_555 1_555
H18 C14 1_555 1_555
N10 Ni1 1_555 1_555
C15 N10 1_555 1_555
H19 C15 1_555 1_555
C16 C15 1_555 1_555
H20 C16 1_555 1_555
C17 C16 1_555 1_555
C18 C17 1_555 1_555
H21 C18 1_555 1_555
C19 N10 1_555 1_555
H22 C19 1_555 1_555
C20 C17 1_555 1_555
H23 C20 1_555 1_555
H24 C20 1_555 1_555
C21 C20 1_555 1_555
H25 C21 1_555 1_555
H26 C21 1_555 1_555
H27 C21 1_555 1_555
N11 Ni1 1_555 1_555
C22 N11 1_555 1_555
H28 C22 1_555 1_555
C23 C22 1_555 1_555
H29 C23 1_555 1_555
C24 C23 1_555 1_555
C25 C24 1_555 1_555
H30 C25 1_555 1_555
C26 N11 1_555 1_555
H31 C26 1_555 1_555
C27 C24 1_555 1_555
H32 C27 1_555 1_555
H33 C27 1_555 1_555
C28 C27 1_555 1_555
H34 C28 1_555 1_555
H35 C28 1_555 1_555
H36 C28 1_555 1_555
N12 Ni2 1_555 1_555
C29 N12 1_555 1_555
H37 C29 1_555 1_555
C30 C29 1_555 1_555
H38 C30 1_555 1_555
C31 C30 1_555 1_555
C32 C31 1_555 1_555
H39 C32 1_555 1_555
C33 N12 1_555 1_555
H40 C33 1_555 1_555
C34 C31 1_555 1_555
H41 C34 1_555 1_555
H42 C34 1_555 1_555
C35 C34 1_555 1_555
H43 C35 1_555 1_555
H44 C35 1_555 1_555
H45 C35 1_555 1_555
N13 Ni2 1_555 1_555
C36 N13 1_555 1_555
H46 C36 1_555 1_555
C37 C36 1_555 1_555
H47 C37 1_555 1_555
C38 C37 1_555 1_555
C39 C38 1_555 1_555
H48 C39 1_555 1_555
C40 N13 1_555 1_555
H49 C40 1_555 1_555
C41 C38 1_555 1_555
H50 C41 1_555 1_555
H51 C41 1_555 1_555
C42 C41 1_555 1_555
H52 C42 1_555 1_555
H53 C42 1_555 1_555
H54 C42 1_555 1_555
N14 Ni2 1_555 1_555
C43 N14 1_555 1_555
H55 C43 1_555 1_555
C44 C43 1_555 1_555
H56 C44 1_555 1_555
C45 C44 1_555 1_555
C46 C45 1_555 1_555
H57 C46 1_555 1_555
C47 N14 1_555 1_555
H58 C47 1_555 1_555
C48 C45 1_555 1_555
H59 C48 1_555 1_555
H60 C48 1_555 1_555
C49 C48 1_555 1_555
H61 C49 1_555 1_555
H62 C49 1_555 1_555
H63 C49 1_555 1_555
N15 Ni2 1_555 1_555
C50 N15 1_555 1_555
H64 C50 1_555 1_555
C51 C50 1_555 1_555
H65 C51 1_555 1_555
C52 C51 1_555 1_555
C53 C52 1_555 1_555
H66 C53 1_555 1_555
C54 N15 1_555 1_555
H67 C54 1_555 1_555
C55 C52 1_555 1_555
H68 C55 1_555 1_555
H69 C55 1_555 1_555
C56 C55 1_555 1_555
H70 C56 1_555 1_555
H71 C56 1_555 1_555
H72 C56 1_555 1_555
P1 F1 1_555 1_555
F2 P1 1_555 1_555
F3 P1 1_555 1_555
F4 P1 1_555 1_555
F5 P1 1_555 1_555
F6 P1 1_555 1_555
P2 F7 1_555 1_555
F8 P2 1_555 1_555
F9 P2 1_555 1_555
F10 P2 1_555 1_555
F11 P2 1_555 1_555
F12 P2 1_555 1_555
N1A Ni1A 1_555 1_555
N6A N7 1_555 1_555
Ni1A N3A 1_555 1_555
N3A N4A 1_555 1_555
N4A N5A 1_555 1_555
N5A Ni2A 1_555 1_555
N8A Ni1A 1_555 1_555
C1A N8A 1_555 1_555
H1A C1A 1_555 1_555
C2A C1A 1_555 1_555
H2A C2A 1_555 1_555
C3A C2A 1_555 1_555
C4A C3A 1_555 1_555
H3A C4A 1_555 1_555
C5A N8A 1_555 1_555
H4A C5A 1_555 1_555
C6A C3A 1_555 1_555
H5A C6A 1_555 1_555
H6A C6A 1_555 1_555
C7A C6A 1_555 1_555
H7A C7A 1_555 1_555
H8A C7A 1_555 1_555
H9A C7A 1_555 1_555
N9A Ni1A 1_555 1_555
C8A N9A 1_555 1_555
H10A C8A 1_555 1_555
C9A C8A 1_555 1_555
H11A C9A 1_555 1_555
C10A C9A 1_555 1_555
C11A C10A 1_555 1_555
H12A C11A 1_555 1_555
C12A N9A 1_555 1_555
H13A C12A 1_555 1_555
C13A C10A 1_555 1_555
H14A C13A 1_555 1_555
H15A C13A 1_555 1_555
C14A C13A 1_555 1_555
H16A C14A 1_555 1_555
H17A C14A 1_555 1_555
H18A C14A 1_555 1_555
N10A Ni1A 1_555 1_555
C15A N10A 1_555 1_555
H19A C15A 1_555 1_555
C16A C15A 1_555 1_555
H20A C16A 1_555 1_555
C17A C16A 1_555 1_555
C18A C17A 1_555 1_555
H21A C18A 1_555 1_555
C19A N10A 1_555 1_555
H22A C19A 1_555 1_555
C20A C17A 1_555 1_555
H23A C20A 1_555 1_555
H24A C20A 1_555 1_555
C21A C20A 1_555 1_555
H25A C21A 1_555 1_555
H26A C21A 1_555 1_555
H27A C21A 1_555 1_555
N11A Ni1A 1_555 1_555
C22A N11A 1_555 1_555
H28A C22A 1_555 1_555
C23A C22A 1_555 1_555
H29A C23A 1_555 1_555
C24A C23A 1_555 1_555
C25A C24A 1_555 1_555
H30A C25A 1_555 1_555
C26A N11A 1_555 1_555
H31A C26A 1_555 1_555
C27A C24A 1_555 1_555
H32A C27A 1_555 1_555
H33A C27A 1_555 1_555
C28A C27A 1_555 1_555
H34A C28A 1_555 1_555
H35A C28A 1_555 1_555
H36A C28A 1_555 1_555
Ni2A N12A 1_555 1_555
N12A C29A 1_555 1_555
C29A H37A 1_555 1_555
C30A C29A 1_555 1_555
H38A C30A 1_555 1_555
C31A C30A 1_555 1_555
C32A C31A 1_555 1_555
H39A C32A 1_555 1_555
C33A N12A 1_555 1_555
H40A C33A 1_555 1_555
C34A C31A 1_555 1_555
H41A C34A 1_555 1_555
H42A C34A 1_555 1_555
C35A C34A 1_555 1_555
H43A C35A 1_555 1_555
H44A C35A 1_555 1_555
H45A C35A 1_555 1_555
N13A Ni2A 1_555 1_555
C36A N13A 1_555 1_555
H46A C36A 1_555 1_555
C37A C36A 1_555 1_555
H47A C37A 1_555 1_555
C38A C37A 1_555 1_555
C39A C38A 1_555 1_555
H48A C39A 1_555 1_555
C40A N13A 1_555 1_555
H49A C40A 1_555 1_555
C41A C38A 1_555 1_555
H50A C41A 1_555 1_555
H51A C41A 1_555 1_555
C42A C41A 1_555 1_555
H52A C42A 1_555 1_555
H53A C42A 1_555 1_555
H54A C42A 1_555 1_555
N14A Ni2A 1_555 1_555
C43A N14A 1_555 1_555
H55A C43A 1_555 1_555
C44A C43A 1_555 1_555
H56A C44A 1_555 1_555
C45A C44A 1_555 1_555
C46A C45A 1_555 1_555
H57A C46A 1_555 1_555
C47A N14A 1_555 1_555
H58A C47A 1_555 1_555
C48A C45A 1_555 1_555
H59A C48A 1_555 1_555
H60A C48A 1_555 1_555
C49A C48A 1_555 1_555
H61A C49A 1_555 1_555
H62A C49A 1_555 1_555
H63A C49A 1_555 1_555
N15A Ni2A 1_555 1_555
C50A N15A 1_555 1_555
H64A C50A 1_555 1_555
C51A C50A 1_555 1_555
H65A C51A 1_555 1_555
C52A C51A 1_555 1_555
C53A C52A 1_555 1_555
H66A C53A 1_555 1_555
C54A N15A 1_555 1_555
H67A C54A 1_555 1_555
C55A C52A 1_555 1_555
H68A C55A 1_555 1_555
H69A C55A 1_555 1_555
C56A C55A 1_555 1_555
H70A C56A 1_555 1_555
H71A C56A 1_555 1_555
H72A C56A 1_555 1_555
Ni2A_2 N6A 1_555 1_555
N6A_2 Ni2A 1_555 1_555
C4 C5 1_555 1_555
C11 C12 1_555 1_555
C18 C19 1_555 1_555
C25 C26 1_555 1_555
C32 C33 1_555 1_555
C39 C40 1_555 1_555
C46 C47 1_555 1_555
C53 C54 1_555 1_555
C4A C5A 1_555 1_555
C11A C12A 1_555 1_555
C18A C19A 1_555 1_555
C25A C26A 1_555 1_555
C32A C33A 1_555 1_555
C39A C40A 1_555 1_555
C46A C47A 1_555 1_555
C53A C54A 1_555 1_555

#END
