
#######################################################################
#
#                 Cambridge Crystallographic Data Centre
#                                CCDC 
#
#######################################################################
#
# If this CIF has been generated from an entry in the Cambridge 
# Structural Database, then it will include bibliographic, chemical, 
# crystal, experimental, refinement or atomic coordinate data resulting 
# from the CCDC's data processing and validation procedures.
#
#######################################################################

data_AGOXAX
_symmetry_cell_setting           monoclinic
_symmetry_space_group_name_H-M   'P 21'
_symmetry_Int_Tables_number      4
_space_group_name_Hall           'P 2yb'
loop_
_symmetry_equiv_pos_site_id
_symmetry_equiv_pos_as_xyz
1 x,y,z
2 -x,1/2+y,-z
_cell_length_a                   6.7420(3)
_cell_length_b                   6.6586(3)
_cell_length_c                   12.5925(5)
_cell_angle_alpha                90
_cell_angle_beta                 91.636(3)
_cell_angle_gamma                90
_cell_volume                     565.076
loop_
_atom_site_label
_atom_site_type_symbol
_atom_site_fract_x
_atom_site_fract_y
_atom_site_fract_z
Cu1 Cu 1.30337(6) 0.12917(8) 0.51528(3)
C1 C 1.0698(5) 0.2628(6) 0.3516(3)
C2 C 0.6462(5) 0.1905(5) 0.3867(3)
C3 C 0.9235(5) 0.2447(5) 0.2598(3)
C4 C 0.9858(6) 0.2763(6) 0.1597(3)
H1 H 1.1154 0.3187 0.1496
C5 C 0.8565(6) 0.2457(6) 0.0695(3)
C6 C 0.9183(7) 0.2766(6) -0.0355(3)
H2 H 1.0466 0.3206 -0.0476
C7 C 0.7891(8) 0.2417(7) -0.1195(3)
H3 H 0.8304 0.2634 -0.1884
C8 C 0.5954(7) 0.1736(8) -0.1031(3)
H4 H 0.5103 0.1475 -0.1609
C9 C 0.5324(6) 0.1461(9) -0.0029(3)
H5 H 0.4028 0.1044 0.0075
C10 C 0.6609(6) 0.1797(6) 0.0857(3)
C11 C 0.5988(5) 0.1551(8) 0.1914(2)
H6 H 0.4688 0.1159 0.2031
C12 C 0.7247(5) 0.1873(5) 0.2763(3)
O1 O 1.0998(3) 0.0982(5) 0.40241(19)
O2 O 1.1617(4) 0.4200(4) 0.3708(2)
O3 O 0.4980(4) 0.0740(4) 0.40536(18)
O4 O 0.7235(4) 0.3046(4) 0.45312(19)
O5 O 1.1041(4) 0.2309(4) 0.6162(2)
H7 H 1.0207 0.1387 0.6286
H8 H 1.0453 0.3305 0.5871
O6 O 1.5006(3) 0.1659(5) 0.63169(16)
H9 H 1.5242 0.2913 0.6326
H10 H 1.6077 0.1017 0.6224
Cu1_2 Cu 0.30337(6) 0.12917(8) 0.51528(3)
Cu1A Cu 0.69663(6) 0.62917(8) 0.48472(3)
O3_2 O 1.4980(4) 0.0740(4) 0.40536(18)
O4A O 1.2765(4) -0.1954(4) 0.54688(19)
loop_
_geom_bond_atom_site_label_1
_geom_bond_atom_site_label_2
_geom_bond_site_symmetry_1
_geom_bond_site_symmetry_2
Cu1 O1 1_555 1_555
C1 C3 1_555 1_555
C2 C12 1_555 1_555
C3 C4 1_555 1_555
C4 H1 1_555 1_555
C5 C4 1_555 1_555
C6 C5 1_555 1_555
H2 C6 1_555 1_555
C7 C6 1_555 1_555
H3 C7 1_555 1_555
C8 C7 1_555 1_555
H4 C8 1_555 1_555
C9 C8 1_555 1_555
H5 C9 1_555 1_555
C10 C5 1_555 1_555
C11 C10 1_555 1_555
H6 C11 1_555 1_555
C12 C3 1_555 1_555
O1 C1 1_555 1_555
O2 C1 1_555 1_555
O3 C2 1_555 1_555
O4 C2 1_555 1_555
O5 Cu1 1_555 1_555
H7 O5 1_555 1_555
H8 O5 1_555 1_555
O6 Cu1 1_555 1_555
H9 O6 1_555 1_555
H10 O6 1_555 1_555
Cu1_2 O3 1_555 1_555
Cu1A O4 1_555 1_555
O3_2 Cu1 1_555 1_555
O4A Cu1 1_555 1_555
C9 C10 1_555 1_555
C11 C12 1_555 1_555

#END
