
#######################################################################
#
#                 Cambridge Crystallographic Data Centre
#                                CCDC 
#
#######################################################################
#
# If this CIF has been generated from an entry in the Cambridge 
# Structural Database, then it will include bibliographic, chemical, 
# crystal, experimental, refinement or atomic coordinate data resulting 
# from the CCDC's data processing and validation procedures.
#
#######################################################################

data_AGOXEB
_symmetry_cell_setting           monoclinic
_symmetry_space_group_name_H-M   'C 2/c'
_symmetry_Int_Tables_number      15
_space_group_name_Hall           '-C 2yn'
loop_
_symmetry_equiv_pos_site_id
_symmetry_equiv_pos_as_xyz
1 x,y,z
2 -x,y,1/2-z
3 1/2+x,1/2+y,z
4 1/2-x,1/2+y,1/2-z
5 -x,-y,-z
6 x,-y,1/2+z
7 1/2-x,1/2-y,-z
8 1/2+x,1/2-y,1/2+z
_cell_length_a                   35.082(5)
_cell_length_b                   6.6358(4)
_cell_length_c                   9.6789(9)
_cell_angle_alpha                90
_cell_angle_beta                 103.782(10)
_cell_angle_gamma                90
_cell_volume                     2188.35
loop_
_atom_site_label
_atom_site_type_symbol
_atom_site_fract_x
_atom_site_fract_y
_atom_site_fract_z
Cu1 Cu 0.5000 0.18668(7) 0.2500
Cu2 Cu 0.5000 0.5000 0.5000
C1 C 0.44560(8) 0.5298(4) 0.1866(3)
C2 C 0.41003(8) 0.6240(4) 0.2198(3)
C3 C 0.38675(9) 0.5083(4) 0.2825(3)
H1 H 0.3944 0.3768 0.3089
C4 C 0.35129(9) 0.5832(5) 0.3083(3)
C5 C 0.32802(11) 0.4695(6) 0.3798(4)
H2 H 0.3358 0.3401 0.4112
C6 C 0.29417(12) 0.5476(8) 0.4033(5)
H3 H 0.2791 0.4709 0.4508
C7 C 0.28187(12) 0.7417(8) 0.3569(5)
H4 H 0.2587 0.7935 0.3735
C8 C 0.30394(11) 0.8560(6) 0.2867(4)
H5 H 0.2955 0.9845 0.2553
C9 C 0.33922(9) 0.7803(5) 0.2618(3)
C10 C 0.36388(9) 0.8991(5) 0.1973(3)
H6 H 0.3560 1.0282 0.1655
C11 C 0.39905(8) 0.8270(4) 0.1810(3)
C12 C 0.42725(8) 0.9741(4) 0.1433(3)
O1 O 0.46179(6) 0.3896(3) 0.26955(19)
O2 O 0.45642(6) 0.5906(3) 0.07966(19)
O3 O 0.46168(6) 0.9734(3) 0.2288(2)
O4 O 0.41662(6) 1.0917(3) 0.0429(2)
O5 O 0.52062(6) 0.2267(3) 0.51883(19)
H7 H 0.5139 0.1686 0.5877
H8 H 0.5435 0.1895 0.5148
C1A C 0.55440(8) 0.5298(4) 0.3134(3)
C2A C 0.58997(8) 0.6240(4) 0.2802(3)
C3A C 0.61325(9) 0.5083(4) 0.2175(3)
H1A H 0.6056 0.3768 0.1911
C4A C 0.64871(9) 0.5832(5) 0.1917(3)
C5A C 0.67198(11) 0.4695(6) 0.1202(4)
H2A H 0.6642 0.3401 0.0888
C6A C 0.70583(12) 0.5476(8) 0.0967(5)
H3A H 0.7209 0.4709 0.0492
C7A C 0.71813(12) 0.7417(8) 0.1431(5)
H4A H 0.7413 0.7935 0.1265
C8A C 0.69606(11) 0.8560(6) 0.2133(4)
H5A H 0.7045 0.9845 0.2447
C9A C 0.66078(9) 0.7803(5) 0.2382(3)
C10A C 0.63612(9) 0.8991(5) 0.3027(3)
H6A H 0.6440 1.0282 0.3345
C11A C 0.60095(8) 0.8270(4) 0.3190(3)
C12A C 0.57275(8) 0.9741(4) 0.3567(3)
O1A O 0.53821(6) 0.3896(3) 0.23045(19)
O2A O 0.54358(6) 0.5906(3) 0.42034(19)
O3A O 0.53832(6) 0.9734(3) 0.2712(2)
O4A O 0.58338(6) 1.0917(3) 0.4571(2)
O5A O 0.47938(6) 0.2267(3) -0.01883(19)
H7A H 0.4861 0.1686 -0.0877
H8A H 0.4565 0.1895 -0.0148
Cu1_2 Cu 0.5000 1.18668(7) 0.2500
Cu2A Cu 0.5000 0.5000 0.0000
O1D O 0.53821(6) 0.6104(3) 0.73045(19)
O2E O 0.45642(6) 0.4094(3) 0.57966(19)
O3_2 O 0.46168(6) -0.0266(3) 0.2288(2)
O3A_2 O 0.53832(6) -0.0266(3) 0.2712(2)
O5D O 0.47938(6) 0.7733(3) 0.48117(19)
loop_
_geom_bond_atom_site_label_1
_geom_bond_atom_site_label_2
_geom_bond_site_symmetry_1
_geom_bond_site_symmetry_2
Cu1 O1 1_555 1_555
Cu2 O1 1_555 1_555
C1 C2 1_555 1_555
C2 C3 1_555 1_555
C3 H1 1_555 1_555
C4 C3 1_555 1_555
C5 C4 1_555 1_555
H2 C5 1_555 1_555
C6 C5 1_555 1_555
H3 C6 1_555 1_555
C7 C6 1_555 1_555
H4 C7 1_555 1_555
C8 C7 1_555 1_555
H5 C8 1_555 1_555
C9 C4 1_555 1_555
C10 C9 1_555 1_555
H6 C10 1_555 1_555
C11 C2 1_555 1_555
C12 C11 1_555 1_555
O1 C1 1_555 1_555
O2 C1 1_555 1_555
O3 C12 1_555 1_555
O4 C12 1_555 1_555
O5 Cu1 1_555 1_555
H7 O5 1_555 1_555
H8 O5 1_555 1_555
C1A C2A 1_555 1_555
C2A C3A 1_555 1_555
C3A H1A 1_555 1_555
C4A C3A 1_555 1_555
C5A C4A 1_555 1_555
H2A C5A 1_555 1_555
C6A C5A 1_555 1_555
H3A C6A 1_555 1_555
C7A C6A 1_555 1_555
H4A C7A 1_555 1_555
C8A C7A 1_555 1_555
H5A C8A 1_555 1_555
C9A C4A 1_555 1_555
C10A C9A 1_555 1_555
H6A C10A 1_555 1_555
C11A C2A 1_555 1_555
C12A C11A 1_555 1_555
O1A Cu1 1_555 1_555
O2A Cu2 1_555 1_555
O3A C12A 1_555 1_555
O4A C12A 1_555 1_555
O5A Cu1 1_555 1_555
H7A O5A 1_555 1_555
H8A O5A 1_555 1_555
Cu1_2 O3 1_555 1_555
Cu2A O2 1_555 1_555
O1D Cu2 1_555 1_555
O2E Cu2 1_555 1_555
O3_2 Cu1 1_555 1_555
O3A_2 Cu1 1_555 1_555
O5D Cu2 1_555 1_555
Cu2 O5 1_555 1_555
C8 C9 1_555 1_555
C10 C11 1_555 1_555
C1A O1A 1_555 1_555
C1A O2A 1_555 1_555
C8A C9A 1_555 1_555
C10A C11A 1_555 1_555
O1A Cu2A 1_555 1_555
O3A Cu1_2 1_555 1_555
O5A Cu2A 1_555 1_555

#END
