
#######################################################################
#
#                 Cambridge Crystallographic Data Centre
#                                CCDC 
#
#######################################################################
#
# If this CIF has been generated from an entry in the Cambridge 
# Structural Database, then it will include bibliographic, chemical, 
# crystal, experimental, refinement or atomic coordinate data resulting 
# from the CCDC's data processing and validation procedures.
#
#######################################################################

data_AGOXAL04
_symmetry_cell_setting           monoclinic
_symmetry_space_group_name_H-M   'P 21/c'
_symmetry_Int_Tables_number      14
_space_group_name_Hall           '-P 2ybc'
loop_
_symmetry_equiv_pos_site_id
_symmetry_equiv_pos_as_xyz
1 x,y,z
2 -x,1/2+y,1/2-z
3 -x,-y,-z
4 x,1/2-y,1/2+z
_cell_length_a                   3.45673(10)
_cell_length_b                   6.20657(13)
_cell_length_c                   9.54928(32)
_cell_angle_alpha                90
_cell_angle_beta                 103.3997(27)
_cell_angle_gamma                90
_cell_volume                     199.297
loop_
_atom_site_label
_atom_site_type_symbol
_atom_site_fract_x
_atom_site_fract_y
_atom_site_fract_z
C1 C -0.406(3) 0.3865(12) -0.5030(11)
O1 O -0.492(3) 0.7145(15) -0.3810(13)
O2 O -0.170(3) 0.3261(17) -0.3920(13)
Ag1 Ag -0.139(3) 0.5066(18) -0.1571(11)
O1C O 0.508(3) 0.7855(15) 0.1190(13)
O2A O 0.170(3) 0.8261(17) -0.1080(13)
O1A O -0.508(3) 0.2145(15) -0.1190(13)
C1B C -0.594(3) 0.6135(12) -0.4970(11)
O2B O -0.830(3) 0.6739(17) -0.6080(13)
Ag1C Ag -1.139(3) 0.9934(18) -0.6571(11)
Ag1A Ag -0.861(3) 1.0066(18) -0.3429(11)
Ag1B Ag -0.861(3) 0.4934(18) -0.8429(11)
O1B O -0.508(3) 0.2855(15) -0.6190(13)
Ag1A_2 Ag 0.139(3) 0.0066(18) -0.3429(11)
Ag1B_2 Ag 0.139(3) 0.4934(18) 0.1571(11)
O1B_2 O 0.492(3) 0.2855(15) 0.3810(13)
O2C O -0.170(3) 0.1739(17) 0.1080(13)
O2B_2 O 0.170(3) 0.6739(17) 0.3920(13)
Ag1C_2 Ag -0.139(3) -0.0066(18) -0.6571(11)
loop_
_geom_bond_atom_site_label_1
_geom_bond_atom_site_label_2
_geom_bond_site_symmetry_1
_geom_bond_site_symmetry_2
C1 O2 1_555 1_555
O1 Ag1 1_555 1_555
O2 Ag1 1_555 1_555
Ag1 O2A 1_555 1_555
O1C Ag1B_2 1_555 1_555
O1A Ag1 1_555 1_555
C1B C1 1_555 1_555
O2B C1B 1_555 1_555
Ag1C O2B 1_555 1_555
Ag1A O1 1_555 1_555
Ag1B O2B 1_555 1_555
O1B C1 1_555 1_555
Ag1A_2 O2 1_555 1_555
Ag1B_2 Ag1 1_555 1_555
O1B_2 Ag1B_2 1_555 1_555
O2C Ag1B_2 1_555 1_555
O2B_2 Ag1B_2 1_555 1_555
Ag1C_2 O1B 1_555 1_555
O1 C1B 1_555 1_555
Ag1C Ag1A 1_555 1_555
Ag1B O1B 1_555 1_555
Ag1A_2 Ag1C_2 1_555 1_555

#END
