
#######################################################################
#
#                 Cambridge Crystallographic Data Centre
#                                CCDC 
#
#######################################################################
#
# If this CIF has been generated from an entry in the Cambridge 
# Structural Database, then it will include bibliographic, chemical, 
# crystal, experimental, refinement or atomic coordinate data resulting 
# from the CCDC's data processing and validation procedures.
#
#######################################################################

data_AGOYUS
_symmetry_cell_setting           orthorhombic
_symmetry_space_group_name_H-M   'P c c n'
_symmetry_Int_Tables_number      56
_space_group_name_Hall           '-P 2ab 2ac'
loop_
_symmetry_equiv_pos_site_id
_symmetry_equiv_pos_as_xyz
1 x,y,z
2 1/2-x,1/2-y,z
3 1/2+x,-y,1/2-z
4 -x,1/2+y,1/2-z
5 -x,-y,-z
6 1/2+x,1/2+y,-z
7 1/2-x,y,1/2+z
8 x,1/2-y,1/2+z
_cell_length_a                   11.3838(12)
_cell_length_b                   18.295(3)
_cell_length_c                   15.868(2)
_cell_angle_alpha                90
_cell_angle_beta                 90
_cell_angle_gamma                90
_cell_volume                     3304.77
loop_
_atom_site_label
_atom_site_type_symbol
_atom_site_fract_x
_atom_site_fract_y
_atom_site_fract_z
C1 C 0.0280(4) 0.32640(19) 0.7914(2)
C2 C 0.0302(4) 0.27685(17) 0.7176(2)
C3 C 0.0599(5) 0.2922(2) 0.6370(3)
H1 H 0.0812 0.3386 0.6184
C4 C 0.0551(5) 0.2305(2) 0.5845(2)
H2 H 0.0736 0.2314 0.5274
C5 C 0.0209(4) 0.16955(16) 0.62582(19)
C6 C 0.0069(3) 0.09560(16) 0.5903(2)
C7 C 0.7807(4) 0.3845(2) 0.9373(3)
H3 H 0.8222 0.3492 0.9672
C8 C 0.6607(5) 0.3823(3) 0.9400(3)
H4 H 0.6229 0.3464 0.9713
C9 C 0.5955(4) 0.4337(2) 0.8962(3)
C10 C 0.6597(4) 0.4828(2) 0.8501(3)
H5 H 0.6209 0.5173 0.8172
C11 C 0.7790(4) 0.4820(2) 0.8514(3)
H6 H 0.8191 0.5171 0.8203
C12 C 0.2784(5) 0.3806(3) 0.9198(3)
H7 H 0.2364 0.3390 0.9349
C13 C 0.3979(5) 0.3764(2) 0.9202(3)
H8 H 0.4341 0.3328 0.9356
C14 C 0.4658(4) 0.4356(2) 0.8984(2)
C15 C 0.4038(4) 0.4971(2) 0.8759(3)
H9 H 0.4439 0.5393 0.8602
C16 C 0.2834(4) 0.4969(2) 0.8766(3)
H10 H 0.2449 0.5393 0.8600
N1 N 0.8409(3) 0.43391(19) 0.8948(2)
N2 N 0.2179(3) 0.43986(19) 0.8993(2)
O1 O 0.0195(3) 0.30192(13) 0.86248(16)
O2 O 0.0367(3) 0.39426(12) 0.77554(16)
O3 O 0.0351(3) 0.08672(12) 0.51545(16)
O4 O -0.0289(3) 0.04658(10) 0.63951(14)
S1 S -0.00610(11) 0.18751(5) 0.72882(5)
Zn1 Zn 0.03007(4) 0.43979(2) 0.89298(2)
N1_2 N -0.1591(3) 0.43391(19) 0.8948(2)
O3G O 0.0351(3) 0.41328(12) 1.01545(16)
O4C O 0.0289(3) 0.54658(10) 0.86049(14)
Zn1_2 Zn 1.03007(4) 0.43979(2) 0.89298(2)
Zn1C Zn -0.03007(4) -0.06021(2) 0.60702(2)
Zn1G Zn 0.03007(4) 0.06021(2) 0.39298(2)
loop_
_geom_bond_atom_site_label_1
_geom_bond_atom_site_label_2
_geom_bond_site_symmetry_1
_geom_bond_site_symmetry_2
C1 C2 1_555 1_555
C2 C3 1_555 1_555
C3 H1 1_555 1_555
C4 C3 1_555 1_555
H2 C4 1_555 1_555
C5 C4 1_555 1_555
C6 C5 1_555 1_555
C7 H3 1_555 1_555
C8 C7 1_555 1_555
H4 C8 1_555 1_555
C9 C8 1_555 1_555
C10 C9 1_555 1_555
H5 C10 1_555 1_555
C11 C10 1_555 1_555
H6 C11 1_555 1_555
C12 H7 1_555 1_555
C13 C12 1_555 1_555
H8 C13 1_555 1_555
C14 C9 1_555 1_555
C15 C14 1_555 1_555
H9 C15 1_555 1_555
C16 C15 1_555 1_555
H10 C16 1_555 1_555
N1 C7 1_555 1_555
N2 C12 1_555 1_555
O1 C1 1_555 1_555
O2 C1 1_555 1_555
O3 C6 1_555 1_555
O4 C6 1_555 1_555
S1 C2 1_555 1_555
Zn1 N2 1_555 1_555
N1_2 Zn1 1_555 1_555
O3G Zn1 1_555 1_555
O4C Zn1 1_555 1_555
Zn1_2 N1 1_555 1_555
Zn1C O4 1_555 1_555
Zn1G O3 1_555 1_555
C5 S1 1_555 1_555
C11 N1 1_555 1_555
C13 C14 1_555 1_555
C16 N2 1_555 1_555
O1 Zn1 1_555 1_555
O2 Zn1 1_555 1_555

#END
