
#######################################################################
#
#                 Cambridge Crystallographic Data Centre
#                                CCDC 
#
#######################################################################
#
# If this CIF has been generated from an entry in the Cambridge 
# Structural Database, then it will include bibliographic, chemical, 
# crystal, experimental, refinement or atomic coordinate data resulting 
# from the CCDC's data processing and validation procedures.
#
#######################################################################

data_AGOZED01
_symmetry_cell_setting           orthorhombic
_symmetry_space_group_name_H-M   'C m c a'
_symmetry_Int_Tables_number      64
_space_group_name_Hall           '-C 2bc 2'
loop_
_symmetry_equiv_pos_site_id
_symmetry_equiv_pos_as_xyz
1 x,y,z
2 1/2-x,-y,1/2+z
3 x,-y,-z
4 1/2-x,y,1/2-z
5 1/2+x,1/2+y,z
6 -x,1/2-y,1/2+z
7 1/2+x,1/2-y,-z
8 -x,1/2+y,1/2-z
9 -x,-y,-z
10 1/2+x,y,1/2-z
11 -x,y,z
12 1/2+x,-y,1/2+z
13 1/2-x,1/2-y,-z
14 x,1/2+y,1/2-z
15 1/2-x,1/2+y,z
16 x,1/2-y,1/2+z
_cell_length_a                   11.7002(10)
_cell_length_b                   15.2908(18)
_cell_length_c                   19.3846(15)
_cell_angle_alpha                90
_cell_angle_beta                 90
_cell_angle_gamma                90
_cell_volume                     3468.01
loop_
_atom_site_label
_atom_site_type_symbol
_atom_site_fract_x
_atom_site_fract_y
_atom_site_fract_z
C1 C 0.2543(2) 0.0695(2) 0.38686(13)
H1 H 0.2124 0.0482 0.3484
C2 C 0.3726(2) 0.0679(2) 0.38363(13)
H2 H 0.4097 0.0463 0.3435
C3 C 0.43647(19) 0.09784(14) 0.43871(11)
C4 C 0.3760(2) 0.1301(2) 0.49443(13)
H3 H 0.4156 0.1527 0.5333
C5 C 0.2581(2) 0.12973(19) 0.49358(14)
H4 H 0.2188 0.1524 0.5326
C6 C 0.00000 0.3817(2) 0.09051(15)
C7 C 0.00000 0.3612(2) 0.16495(15)
C8 C 0.00000 0.4175(2) 0.21916(17)
H5 H 0.000 0.4794 0.2148
C9 C 0.00000 0.3723(2) 0.28295(18)
H6 H 0.000 0.4009 0.3265
C10 C 0.00000 0.2840(2) 0.27554(16)
C11 C 0.00000 0.2169(2) 0.33130(16)
Cd1 Cd 0.00000 0.108440(15) 0.443681(10)
N1 N 0.19632(16) 0.09925(13) 0.44105(9)
O1 O 0.00000 0.31853(17) 0.04864(10)
O2 O 0.00000 0.45946(18) 0.07083(12)
O3 O 0.00000 0.13732(16) 0.31636(11)
O4 O 0.00000 0.24511(16) 0.39246(11)
S1 S 0.00000 0.25446(5) 0.19116(4)
C1J C 0.7457(2) 0.0695(2) 0.38686(13)
H1J H 0.7876 0.0482 0.3484
C2J C 0.6274(2) 0.0679(2) 0.38363(13)
H2J H 0.5903 0.0463 0.3435
C3J C 0.56353(19) 0.09784(14) 0.43871(11)
C4J C 0.6240(2) 0.1301(2) 0.49443(13)
H3J H 0.5844 0.1527 0.5333
C5J C 0.7419(2) 0.12973(19) 0.49358(14)
H4J H 0.7812 0.1524 0.5326
N1J N 0.80368(16) 0.09925(13) 0.44105(9)
Cd1_2 Cd 1.00000 0.108440(15) 0.443681(10)
Cd1E Cd 0.00000 0.391560(15) -0.056319(10)
Cd1G Cd 0.00000 0.608440(15) 0.056319(10)
N1J_2 N -0.19632(16) 0.09925(13) 0.44105(9)
O1E O 0.00000 0.18147(17) 0.54864(10)
O2E O 0.00000 0.04054(18) 0.57083(12)
O2G O 0.00000 -0.04054(18) 0.42917(12)
loop_
_geom_bond_atom_site_label_1
_geom_bond_atom_site_label_2
_geom_bond_site_symmetry_1
_geom_bond_site_symmetry_2
C1 H1 1_555 1_555
C2 C1 1_555 1_555
H2 C2 1_555 1_555
C3 C2 1_555 1_555
C4 C3 1_555 1_555
H3 C4 1_555 1_555
C5 C4 1_555 1_555
H4 C5 1_555 1_555
C6 C7 1_555 1_555
C7 C8 1_555 1_555
C8 H5 1_555 1_555
C9 C8 1_555 1_555
H6 C9 1_555 1_555
C10 C9 1_555 1_555
C11 C10 1_555 1_555
Cd1 N1 1_555 1_555
N1 C1 1_555 1_555
O1 C6 1_555 1_555
O2 C6 1_555 1_555
O3 C11 1_555 1_555
O4 C11 1_555 1_555
S1 C7 1_555 1_555
C1J H1J 1_555 1_555
C2J C1J 1_555 1_555
H2J C2J 1_555 1_555
C3J C3 1_555 1_555
C4J C3J 1_555 1_555
H3J C4J 1_555 1_555
C5J C4J 1_555 1_555
H4J C5J 1_555 1_555
N1J C1J 1_555 1_555
Cd1_2 N1J 1_555 1_555
Cd1E O1 1_555 1_555
Cd1G O2 1_555 1_555
N1J_2 Cd1 1_555 1_555
O1E Cd1 1_555 1_555
O2E Cd1 1_555 1_555
O2G Cd1 1_555 1_555
C5 N1 1_555 1_555
C10 S1 1_555 1_555
Cd1 O3 1_555 1_555
Cd1 O4 1_555 1_555
O2 Cd1E 1_555 1_555
C2J C3J 1_555 1_555
C5J N1J 1_555 1_555

#END
