
#######################################################################
#
#                 Cambridge Crystallographic Data Centre
#                                CCDC 
#
#######################################################################
#
# If this CIF has been generated from an entry in the Cambridge 
# Structural Database, then it will include bibliographic, chemical, 
# crystal, experimental, refinement or atomic coordinate data resulting 
# from the CCDC's data processing and validation procedures.
#
#######################################################################

data_AGOZAY
_symmetry_cell_setting           monoclinic
_symmetry_space_group_name_H-M   'C 2/c'
_symmetry_Int_Tables_number      15
_space_group_name_Hall           '-C 2yn'
loop_
_symmetry_equiv_pos_site_id
_symmetry_equiv_pos_as_xyz
1 x,y,z
2 1/2+x,1/2+y,z
3 -x,y,1/2-z
4 1/2-x,1/2+y,1/2-z
5 -x,-y,-z
6 1/2-x,1/2-y,-z
7 x,-y,1/2+z
8 1/2+x,1/2-y,1/2+z
_cell_length_a                   18.386(2)
_cell_length_b                   14.8887(18)
_cell_length_c                   13.9121(17)
_cell_angle_alpha                90
_cell_angle_beta                 126.3190(10)
_cell_angle_gamma                90
_cell_volume                     3068.51
loop_
_atom_site_label
_atom_site_type_symbol
_atom_site_fract_x
_atom_site_fract_y
_atom_site_fract_z
C1 C 0.62201(13) 0.35715(13) 0.80331(19)
C2 C 0.69094(14) 0.28719(14) 0.82714(18)
C3 C 0.78080(14) 0.30737(15) 0.90435(19)
H1 H 0.7985 0.3593 0.9502
C4 C 0.84703(15) 0.25114(16) 0.9159(2)
H2 H 0.9076 0.2671 0.9671
C5 C 0.82279(14) 0.17325(14) 0.85222(18)
C6 C 0.89049(15) 0.12254(14) 0.84487(19)
C7 C 0.73108(15) 0.14565(14) 0.77897(19)
C8 C 0.66391(14) 0.20353(14) 0.76583(18)
C9 C 0.57318(16) 0.17399(16) 0.6942(2)
H3 H 0.5284 0.2108 0.6844
C10 C 0.70427(18) 0.06162(16) 0.7191(2)
H4 H 0.7475 0.0238 0.7262
C11 C 0.6163(2) 0.03575(17) 0.6515(3)
H5 H 0.5998 -0.0196 0.6132
C12 C 0.55052(19) 0.09235(19) 0.6395(3)
H6 H 0.4905 0.0739 0.5934
C13 C 0.26433(15) 0.55518(18) 0.4740(2)
H7 H 0.2502 0.5058 0.5011
C14 C 0.12054(17) 0.6389(3) 0.3926(3)
H8 H 0.1202 0.6951 0.4277
H9 H 0.1097 0.5909 0.4298
C15 C 0.04623(15) 0.6403(2) 0.2644(2)
H10 H 0.0518 0.5883 0.2273
H11 H 0.0525 0.6934 0.2295
C16 C 0.25299(18) 0.68327(19) 0.3927(2)
H12 H 0.2318 0.7383 0.3541
C17 C 0.33284(16) 0.64368(16) 0.4330(2)
H13 H 0.3763 0.6682 0.4265
N1 N 0.34027(11) 0.56325(13) 0.48419(16)
N2 N 0.21024(13) 0.62621(16) 0.42028(18)
O1 O 0.56289(11) 0.37653(11) 0.69574(14)
O2 O 0.63083(10) 0.39108(10) 0.89143(13)
O3 O 0.5000 0.54659(13) 0.7500
O4 O 0.88390(16) 0.13596(16) 0.75292(18)
O5 O 0.94753(9) 0.07087(9) 0.92823(12)
Mn1 Mn 0.456815(18) 0.470697(19) 0.58778(3)
H14 H 0.542(2) 0.578(2) 0.760(3)
C1B C 0.37799(13) 0.35715(13) 0.69669(19)
C2B C 0.30906(14) 0.28719(14) 0.67286(18)
C3B C 0.21920(14) 0.30737(15) 0.59565(19)
H1B H 0.2015 0.3593 0.5498
C4B C 0.15297(15) 0.25114(16) 0.5841(2)
H2B H 0.0924 0.2671 0.5329
C5B C 0.17721(14) 0.17325(14) 0.64778(18)
C6B C 0.10951(15) 0.12254(14) 0.65513(19)
C7B C 0.26892(15) 0.14565(14) 0.72103(19)
C8B C 0.33609(14) 0.20353(14) 0.73417(18)
C9B C 0.42682(16) 0.17399(16) 0.8058(2)
H3B H 0.4716 0.2108 0.8156
C10B C 0.29573(18) 0.06162(16) 0.7809(2)
H4B H 0.2525 0.0238 0.7738
C11B C 0.3837(2) 0.03575(17) 0.8485(3)
H5B H 0.4002 -0.0196 0.8868
C12B C 0.44948(19) 0.09235(19) 0.8605(3)
H6B H 0.5095 0.0739 0.9066
C13B C -0.26433(15) 0.55518(18) 0.0260(2)
H7B H -0.2502 0.5058 -0.0011
C14B C -0.12054(17) 0.6389(3) 0.1074(3)
H8B H -0.1202 0.6951 0.0723
H9B H -0.1097 0.5909 0.0702
C15B C -0.04623(15) 0.6403(2) 0.2356(2)
H10B H -0.0518 0.5883 0.2727
H11B H -0.0525 0.6934 0.2705
C16B C -0.25299(18) 0.68327(19) 0.1073(2)
H12B H -0.2318 0.7383 0.1459
C17B C -0.33284(16) 0.64368(16) 0.0670(2)
H13B H -0.3763 0.6682 0.0735
N1B N -0.34027(11) 0.56325(13) 0.01581(16)
N2B N -0.21024(13) 0.62621(16) 0.07972(18)
O1B O 0.43711(11) 0.37653(11) 0.80426(14)
O1B_2 O -0.56289(11) 0.37653(11) -0.19574(14)
O2B O 0.36917(10) 0.39108(10) 0.60857(13)
O2_2 O -0.36917(10) 0.39108(10) -0.10857(13)
O3_2 O -0.5000 0.54659(13) -0.2500
O4B O 0.11610(16) 0.13596(16) 0.74708(18)
O5E O -0.44753(9) 0.42913(9) 0.07177(12)
O5B O 0.05247(9) 0.07087(9) 0.57177(12)
O5G O 0.44753(9) 0.42913(9) 0.42823(12)
O5C O 0.55247(9) 0.57087(9) 0.57177(12)
O5A O -0.55247(9) 0.57087(9) -0.07177(12)
Mn1G Mn 0.956815(18) 0.029303(19) 1.08778(3)
Mn1E Mn 0.043185(18) 0.029303(19) 0.41222(3)
Mn1B Mn -0.456815(18) 0.470697(19) -0.08778(3)
Mn1B_2 Mn 0.543185(18) 0.470697(19) 0.91222(3)
Mn1A Mn -0.043185(18) -0.029303(19) 0.58778(3)
Mn1C Mn 1.043185(18) -0.029303(19) 0.91222(3)
H14B H 0.458(2) 0.578(2) 0.740(3)
H14_2 H -0.458(2) 0.578(2) -0.240(3)
H14B_2 H -0.542(2) 0.578(2) -0.260(3)
loop_
_geom_bond_atom_site_label_1
_geom_bond_atom_site_label_2
_geom_bond_site_symmetry_1
_geom_bond_site_symmetry_2
C1 C2 1_555 1_555
C2 C3 1_555 1_555
C3 H1 1_555 1_555
C4 C3 1_555 1_555
H2 C4 1_555 1_555
C5 C4 1_555 1_555
C6 C5 1_555 1_555
C7 C5 1_555 1_555
C8 C2 1_555 1_555
C9 C8 1_555 1_555
H3 C9 1_555 1_555
C10 C7 1_555 1_555
H4 C10 1_555 1_555
C11 C10 1_555 1_555
H5 C11 1_555 1_555
C12 C9 1_555 1_555
H6 C12 1_555 1_555
C13 H7 1_555 1_555
C14 H8 1_555 1_555
H9 C14 1_555 1_555
C15 C14 1_555 1_555
H10 C15 1_555 1_555
H11 C15 1_555 1_555
C16 H12 1_555 1_555
C17 C16 1_555 1_555
H13 C17 1_555 1_555
N1 C13 1_555 1_555
N2 C13 1_555 1_555
O1 C1 1_555 1_555
O2 C1 1_555 1_555
O3 Mn1 1_555 1_555
O4 C6 1_555 1_555
O5 C6 1_555 1_555
Mn1 N1 1_555 1_555
H14 O3 1_555 1_555
C1B C2B 1_555 1_555
C2B C3B 1_555 1_555
C3B H1B 1_555 1_555
C4B C3B 1_555 1_555
H2B C4B 1_555 1_555
C5B C4B 1_555 1_555
C6B C5B 1_555 1_555
C7B C5B 1_555 1_555
C8B C2B 1_555 1_555
C9B C8B 1_555 1_555
H3B C9B 1_555 1_555
C10B C7B 1_555 1_555
H4B C10B 1_555 1_555
C11B C10B 1_555 1_555
H5B C11B 1_555 1_555
C12B C9B 1_555 1_555
H6B C12B 1_555 1_555
C13B H7B 1_555 1_555
C14B H8B 1_555 1_555
H9B C14B 1_555 1_555
C15B C15 1_555 1_555
H10B C15B 1_555 1_555
H11B C15B 1_555 1_555
C16B H12B 1_555 1_555
C17B C16B 1_555 1_555
H13B C17B 1_555 1_555
N1B C13B 1_555 1_555
N2B C13B 1_555 1_555
O1B C1B 1_555 1_555
O1B_2 Mn1B 1_555 1_555
O2B Mn1 1_555 1_555
O2_2 Mn1B 1_555 1_555
O3_2 Mn1B 1_555 1_555
O4B C6B 1_555 1_555
O5E Mn1B 1_555 1_555
O5B C6B 1_555 1_555
O5G Mn1 1_555 1_555
O5C Mn1 1_555 1_555
O5A Mn1B 1_555 1_555
Mn1G O5 1_555 1_555
Mn1E O5B 1_555 1_555
Mn1B N1B 1_555 1_555
Mn1B_2 O2 1_555 1_555
Mn1A O5B 1_555 1_555
Mn1C O5 1_555 1_555
H14B O3 1_555 1_555
H14_2 O3_2 1_555 1_555
H14B_2 O3_2 1_555 1_555
C7 C8 1_555 1_555
C11 C12 1_555 1_555
C14 N2 1_555 1_555
C16 N2 1_555 1_555
C17 N1 1_555 1_555
O1 Mn1 1_555 1_555
O3 Mn1B_2 1_555 1_555
C1B O2B 1_555 1_555
C7B C8B 1_555 1_555
C11B C12B 1_555 1_555
C14B C15B 1_555 1_555
C14B N2B 1_555 1_555
C16B N2B 1_555 1_555
C17B N1B 1_555 1_555
O1B Mn1B_2 1_555 1_555

#END
