
#######################################################################
#
#                 Cambridge Crystallographic Data Centre
#                                CCDC 
#
#######################################################################
#
# If this CIF has been generated from an entry in the Cambridge 
# Structural Database, then it will include bibliographic, chemical, 
# crystal, experimental, refinement or atomic coordinate data resulting 
# from the CCDC's data processing and validation procedures.
#
#######################################################################

data_AGPADP
_symmetry_cell_setting           tetragonal
_symmetry_space_group_name_H-M   'P -4 21 c'
_symmetry_Int_Tables_number      114
_space_group_name_Hall           'P -4 2n'
loop_
_symmetry_equiv_pos_site_id
_symmetry_equiv_pos_as_xyz
1 x,y,z
2 -y,x,-z
3 -x,-y,z
4 y,-x,-z
5 1/2-x,1/2+y,1/2-z
6 1/2+y,1/2+x,1/2+z
7 1/2+x,1/2-y,1/2-z
8 1/2-y,1/2-x,1/2+z
_cell_length_a                   9.07(3)
_cell_length_b                   9.07(3)
_cell_length_c                   10.27(4)
_cell_angle_alpha                90
_cell_angle_beta                 90
_cell_angle_gamma                90
_cell_volume                     844.861
loop_
_atom_site_label
_atom_site_type_symbol
_atom_site_fract_x
_atom_site_fract_y
_atom_site_fract_z
Ag1 Ag 0.00000 0.00000 0.00000
C1 C 0.26130 0.11400 0.20730
C2 C 0.35740 0.16660 0.31750
C3 C 0.51580 0.08570 0.30890
N1 N 0.19270 0.07930 0.12370
C1B C 0.73870 -0.11400 0.20730
C2B C 0.64260 -0.16660 0.31750
C3B C 0.48420 -0.08570 0.30890
N1B N 0.80730 -0.07930 0.12370
C1A C -0.11400 -0.73870 -0.20730
C2A C -0.16660 -0.64260 -0.31750
C3A C -0.08570 -0.48420 -0.30890
N1A N -0.07930 -0.80730 -0.12370
C1C C 0.11400 -0.26130 -0.20730
C2C C 0.16660 -0.35740 -0.31750
C3C C 0.08570 -0.51580 -0.30890
N1C N 0.07930 -0.19270 -0.12370
Ag1_2 Ag 0.00000 -1.00000 0.00000
Ag1_3 Ag 1.00000 0.00000 0.00000
N1A_2 N -0.07930 0.19270 -0.12370
N1B_2 N -0.19270 -0.07930 0.12370
Cl1 Cl 0.00000 0.00000 0.50000
O1 O 0.13250 0.02350 0.57690
O1A O -0.02350 0.13250 0.42310
O1B O -0.13250 -0.02350 0.57690
O1C O 0.02350 -0.13250 0.42310
loop_
_geom_bond_atom_site_label_1
_geom_bond_atom_site_label_2
_geom_bond_site_symmetry_1
_geom_bond_site_symmetry_2
Ag1 N1 1_555 1_555
C1 C2 1_555 1_555
C2 C3 1_555 1_555
C3 C3B 1_555 1_555
N1 C1 1_555 1_555
Cl1 O1 1_555 1_555
C1B C2B 1_555 1_555
C2B C3B 1_555 1_555
N1B C1B 1_555 1_555
C1A C2A 1_555 1_555
C2A C3A 1_555 1_555
C3A C3C 1_555 1_555
N1A C1A 1_555 1_555
C1C C2C 1_555 1_555
C2C C3C 1_555 1_555
N1C Ag1 1_555 1_555
Ag1_2 N1A 1_555 1_555
Ag1_3 N1B 1_555 1_555
N1A_2 Ag1 1_555 1_555
N1B_2 Ag1 1_555 1_555
O1A Cl1 1_555 1_555
O1B Cl1 1_555 1_555
O1C Cl1 1_555 1_555
C1C N1C 1_555 1_555

#END
