
#######################################################################
#
#                 Cambridge Crystallographic Data Centre
#                                CCDC 
#
#######################################################################
#
# If this CIF has been generated from an entry in the Cambridge 
# Structural Database, then it will include bibliographic, chemical, 
# crystal, experimental, refinement or atomic coordinate data resulting 
# from the CCDC's data processing and validation procedures.
#
#######################################################################

data_AGPYNO01
_symmetry_cell_setting           monoclinic
_symmetry_space_group_name_H-M   'C 2/c'
_symmetry_Int_Tables_number      15
_space_group_name_Hall           '-C 2yn'
loop_
_symmetry_equiv_pos_site_id
_symmetry_equiv_pos_as_xyz
1 x,y,z
2 1/2+x,1/2+y,z
3 -x,y,1/2-z
4 1/2-x,1/2+y,1/2-z
5 -x,-y,-z
6 1/2-x,1/2-y,-z
7 x,-y,1/2+z
8 1/2+x,1/2-y,1/2+z
_cell_length_a                   15.244(3)
_cell_length_b                   14.969(3)
_cell_length_c                   5.8030(12)
_cell_angle_alpha                90
_cell_angle_beta                 105.925(4)
_cell_angle_gamma                90
_cell_volume                     1273.35
loop_
_atom_site_label
_atom_site_type_symbol
_atom_site_fract_x
_atom_site_fract_y
_atom_site_fract_z
Ag1 Ag 0.50000 0.62810(3) 0.25000
N1 N 0.64797(19) 0.6189(2) 0.3859(5)
C1 C 0.7016(3) 0.6524(3) 0.2614(8)
C2 C 0.7941(3) 0.6583(3) 0.3458(8)
C3 C 0.8355(3) 0.6278(3) 0.5705(8)
C4 C 0.7822(3) 0.5920(3) 0.7009(9)
C5 C 0.6894(3) 0.5888(3) 0.6037(8)
N2 N 0.50000 0.7294(4) -0.25000
O1 O 0.5215(2) 0.7705(2) -0.0580(5)
O2 O 0.50000 0.6461(3) -0.25000
H1 H 0.673(2) 0.674(2) 0.113(6)
H2 H 0.828(3) 0.682(3) 0.244(7)
H3 H 0.901(3) 0.635(3) 0.637(8)
H4 H 0.802(3) 0.570(3) 0.842(8)
H5 H 0.652(3) 0.566(2) 0.692(7)
Ag1_2 Ag 0.50000 0.62810(3) -0.75000
N1B N 0.35203(19) 0.6189(2) 0.1141(5)
C1B C 0.2984(3) 0.6524(3) 0.2386(8)
C2B C 0.2059(3) 0.6583(3) 0.1542(8)
C3B C 0.1645(3) 0.6278(3) -0.0705(8)
C4B C 0.2178(3) 0.5920(3) -0.2009(9)
C5B C 0.3106(3) 0.5888(3) -0.1037(8)
O1B O 0.4785(2) 0.7705(2) -0.4420(5)
O1B_2 O 0.4785(2) 0.7705(2) 0.5580(5)
O2_2 O 0.50000 0.6461(3) 0.75000
H1B H 0.327(2) 0.674(2) 0.387(6)
H2B H 0.172(3) 0.682(3) 0.256(7)
H3B H 0.099(3) 0.635(3) -0.137(8)
H4B H 0.198(3) 0.570(3) -0.342(8)
H5B H 0.348(3) 0.566(2) -0.192(7)
O3 O 1.00000 0.5336(5) 0.25000
H6? H 1.00000 0.588(5) 0.25000
H7? H 1.011(4) 0.536(3) 0.431(9)
loop_
_geom_bond_atom_site_label_1
_geom_bond_atom_site_label_2
_geom_bond_site_symmetry_1
_geom_bond_site_symmetry_2
Ag1 N1 1_555 1_555
N1 C1 1_555 1_555
C1 C2 1_555 1_555
C2 C3 1_555 1_555
C3 C4 1_555 1_555
C4 C5 1_555 1_555
C5 N1 1_555 1_555
N2 O1 1_555 1_555
O1 Ag1 1_555 1_555
O2 Ag1 1_555 1_555
H1 C1 1_555 1_555
H2 C2 1_555 1_555
H3 C3 1_555 1_555
H4 C4 1_555 1_555
H5 C5 1_555 1_555
Ag1_2 O2 1_555 1_555
N1B Ag1 1_555 1_555
C1B N1B 1_555 1_555
C2B C1B 1_555 1_555
C3B C2B 1_555 1_555
C4B C3B 1_555 1_555
C5B N1B 1_555 1_555
O1B N2 1_555 1_555
O1B_2 Ag1 1_555 1_555
O2_2 Ag1 1_555 1_555
H1B C1B 1_555 1_555
H2B C2B 1_555 1_555
H3B C3B 1_555 1_555
H4B C4B 1_555 1_555
H5B C5B 1_555 1_555
N2 O2 1_555 1_555
Ag1_2 O1B 1_555 1_555
C4B C5B 1_555 1_555

#END
