
#######################################################################
#
#                 Cambridge Crystallographic Data Centre
#                                CCDC 
#
#######################################################################
#
# If this CIF has been generated from an entry in the Cambridge 
# Structural Database, then it will include bibliographic, chemical, 
# crystal, experimental, refinement or atomic coordinate data resulting 
# from the CCDC's data processing and validation procedures.
#
#######################################################################

data_AGPYRZ01
_symmetry_cell_setting           monoclinic
_symmetry_space_group_name_H-M   'P 2/c'
_symmetry_Int_Tables_number      13
_space_group_name_Hall           '-P 2yc'
loop_
_symmetry_equiv_pos_site_id
_symmetry_equiv_pos_as_xyz
1 x,y,z
2 -x,y,1/2-z
3 -x,-y,-z
4 x,-y,1/2+z
_cell_length_a                   3.548(1)
_cell_length_b                   6.445(1)
_cell_length_c                   14.205(3)
_cell_angle_alpha                90
_cell_angle_beta                 95.49(3)
_cell_angle_gamma                90
_cell_volume                     323.334
loop_
_atom_site_label
_atom_site_type_symbol
_atom_site_fract_x
_atom_site_fract_y
_atom_site_fract_z
Ag1 Ag 0.000 0.1017(1) 0.2500
N2 N -0.001(2) 0.0399(9) 0.4034(4)
C1 C 0.073(2) -0.149(1) 0.4390(4)
C2 C -0.075(2) 0.189(1) 0.4653(5)
H1 H 0.123 -0.259 0.397
H2 H -0.133 0.326 0.442
Ag1B Ag 0.000 -0.1017(1) 0.7500
N2B N 0.001(2) -0.0399(9) 0.5966(4)
N2A N 0.001(2) 0.0399(9) 0.0966(4)
C1B C -0.073(2) 0.149(1) 0.5610(4)
C2B C 0.075(2) -0.189(1) 0.5347(5)
H1B H -0.123 0.259 0.603
H2B H 0.133 -0.326 0.558
N1 N -0.500 0.539(1) 0.2500
O1 O -0.500 0.730(1) 0.2500
O2 O -0.613(2) 0.4417(8) 0.3174(4)
O2A O -0.387(2) 0.4417(8) 0.1826(4)
loop_
_geom_bond_atom_site_label_1
_geom_bond_atom_site_label_2
_geom_bond_site_symmetry_1
_geom_bond_site_symmetry_2
Ag1 N2 1_555 1_555
N1 O1 1_555 1_555
N2 C1 1_555 1_555
C1 H1 1_555 1_555
C2 N2 1_555 1_555
O2 N1 1_555 1_555
H2 C2 1_555 1_555
Ag1B N2B 1_555 1_555
N2B C1B 1_555 1_555
N2A Ag1 1_555 1_555
C1B C2 1_555 1_555
C2B C1 1_555 1_555
O2A N1 1_555 1_555
H1B C1B 1_555 1_555
H2B C2B 1_555 1_555
N2B C2B 1_555 1_555

#END
