
#######################################################################
#
#                 Cambridge Crystallographic Data Centre
#                                CCDC 
#
#######################################################################
#
# If this CIF has been generated from an entry in the Cambridge 
# Structural Database, then it will include bibliographic, chemical, 
# crystal, experimental, refinement or atomic coordinate data resulting 
# from the CCDC's data processing and validation procedures.
#
#######################################################################

data_AGSLFB
_symmetry_cell_setting           monoclinic
_symmetry_space_group_name_H-M   'P 21/c'
_symmetry_Int_Tables_number      14
_space_group_name_Hall           '-P 2ybc'
loop_
_symmetry_equiv_pos_site_id
_symmetry_equiv_pos_as_xyz
1 x,y,z
2 -x,1/2+y,1/2-z
3 -x,-y,-z
4 x,1/2-y,1/2+z
_cell_length_a                   8.699(3)
_cell_length_b                   5.866(1)
_cell_length_c                   8.949(1)
_cell_angle_alpha                90
_cell_angle_beta                 91.75(1)
_cell_angle_gamma                90
_cell_volume                     456.44
loop_
_atom_site_label
_atom_site_type_symbol
_atom_site_fract_x
_atom_site_fract_y
_atom_site_fract_z
Ag1 Ag 0.05260 -0.11230 0.20120
S1 S 0.21350 0.11420 0.54200
O1 O 0.23540 0.00040 0.40070
O2 O 0.09240 0.28850 0.53130
O3 O 0.18670 -0.03790 0.66750
C1 C 0.38600 0.26140 0.59060
C2 C 0.43300 0.42870 0.47180
H1 H 0.35100 0.34300 0.68500
H2 H 0.45200 0.15500 0.59400
H3 H 0.46900 0.33200 0.36000
H4 H 0.35000 0.51300 0.41700
C2B C 0.56700 0.57130 0.52820
C1B C 0.61400 0.73860 0.40940
S1B S 0.78650 0.88580 0.45800
O1B O 0.76460 0.99960 0.59930
O2B O 0.90760 0.71150 0.46870
O3B O 0.81330 1.03790 0.33250
H1B H 0.64900 0.65700 0.31500
H2B H 0.54800 0.84500 0.40600
H3B H 0.53100 0.66800 0.64000
H4B H 0.65000 0.48700 0.58300
Ag1B Ag 0.94740 1.11230 0.79880
Ag1A Ag -0.05260 0.38770 0.29880
O2A O -0.09240 -0.21150 -0.03130
O2C O 0.09240 0.21150 0.03130
O3B_2 O -0.18670 0.03790 0.33250
O3C O 0.18670 -0.46210 0.16750
Ag1C Ag 0.05260 0.61230 0.70120
Ag1B_2 Ag -0.05260 0.11230 0.79880
Ag1C_2 Ag 0.05260 -0.38770 0.70120
Ag1A_2 Ag 0.94740 0.38770 0.29880
Ag1C_3 Ag 1.05260 0.61230 0.70120
Ag1_2 Ag 1.05260 0.88770 0.20120
Ag1A_3 Ag 0.94740 1.38770 0.29880
O2A_2 O 0.90760 0.78850 0.96870
O2C_2 O 1.09240 1.21150 1.03130
O3_2 O 1.18670 0.96210 0.66750
O3A O 0.81330 1.46210 0.83250
loop_
_geom_bond_atom_site_label_1
_geom_bond_atom_site_label_2
_geom_bond_site_symmetry_1
_geom_bond_site_symmetry_2
Ag1 O1 1_555 1_555
S1 O1 1_555 1_555
O2 S1 1_555 1_555
O3 S1 1_555 1_555
C1 S1 1_555 1_555
C2 C1 1_555 1_555
H1 C1 1_555 1_555
H2 C1 1_555 1_555
H3 C2 1_555 1_555
H4 C2 1_555 1_555
C2B C2 1_555 1_555
C1B C2B 1_555 1_555
S1B C1B 1_555 1_555
O1B S1B 1_555 1_555
O2B S1B 1_555 1_555
O3B S1B 1_555 1_555
H1B C1B 1_555 1_555
H2B C1B 1_555 1_555
H3B C2B 1_555 1_555
H4B C2B 1_555 1_555
Ag1B O1B 1_555 1_555
Ag1A O2 1_555 1_555
O2A Ag1 1_555 1_555
O2C Ag1 1_555 1_555
O3B_2 Ag1 1_555 1_555
O3C Ag1 1_555 1_555
Ag1C O2 1_555 1_555
Ag1B_2 O3 1_555 1_555
Ag1C_2 O3 1_555 1_555
Ag1A_2 O2B 1_555 1_555
Ag1C_3 O2B 1_555 1_555
Ag1_2 O3B 1_555 1_555
Ag1A_3 O3B 1_555 1_555
O2A_2 Ag1B 1_555 1_555
O2C_2 Ag1B 1_555 1_555
O3_2 Ag1B 1_555 1_555
O3A Ag1B 1_555 1_555
Ag1A O3B_2 1_555 1_555
Ag1C_3 O3_2 1_555 1_555

#END
