
#######################################################################
#
#                 Cambridge Crystallographic Data Centre
#                                CCDC 
#
#######################################################################
#
# If this CIF has been generated from an entry in the Cambridge 
# Structural Database, then it will include bibliographic, chemical, 
# crystal, experimental, refinement or atomic coordinate data resulting 
# from the CCDC's data processing and validation procedures.
#
#######################################################################

data_AGTRTH
_symmetry_cell_setting           orthorhombic
_symmetry_space_group_name_H-M   'P c a 21'
_symmetry_Int_Tables_number      29
_space_group_name_Hall           'P 2c -2ac'
loop_
_symmetry_equiv_pos_site_id
_symmetry_equiv_pos_as_xyz
1 x,y,z
2 -x,-y,1/2+z
3 1/2-x,y,1/2+z
4 1/2+x,-y,z
_cell_length_a                   12.52(1)
_cell_length_b                   9.11(1)
_cell_length_c                   12.83(1)
_cell_angle_alpha                90
_cell_angle_beta                 90
_cell_angle_gamma                90
_cell_volume                     1463.35
loop_
_atom_site_label
_atom_site_type_symbol
_atom_site_fract_x
_atom_site_fract_y
_atom_site_fract_z
Ag1 Ag 0.00380 0.08360 0.00000
C1 C -0.15900 -0.14500 -0.12200
C2 C -0.32500 -0.08200 -0.23800
C3 C -0.26700 0.12500 -0.07900
C4 C -0.17300 0.51300 0.08900
C5 C 0.02800 0.46100 -0.01900
C6 C 0.02000 0.37000 0.18500
S1 S -0.18600 -0.02700 -0.01600
S2 S -0.27100 -0.23600 -0.18200
S3 S 0.11300 -0.05400 -0.14200
S4 S -0.12700 0.35500 0.17800
S5 S -0.11600 0.44800 -0.05000
S6 S 0.08000 0.32000 0.05400
S3C S -0.38700 0.05400 -0.14200
C2C C 0.17500 0.08200 -0.23800
C3C C 0.23300 -0.12500 -0.07900
Ag1C Ag -0.49620 -0.08360 0.00000
S2C S 0.22900 0.23600 -0.18200
S1C S 0.31400 0.02700 -0.01600
S1C_2 S -0.68600 0.02700 -0.01600
S6C S -0.42000 -0.32000 0.05400
C1C C 0.34100 0.14500 -0.12200
Ag1C_2 Ag 0.50380 -0.08360 0.00000
C5C C -0.47200 -0.46100 -0.01900
C6C C -0.48000 -0.37000 0.18500
S5C S -0.61600 -0.44800 -0.05000
S4C S -0.62700 -0.35500 0.17800
C4C C -0.67300 -0.51300 0.08900
N1 N 0.05700 -0.17300 0.14200
O1 O 0.03200 -0.23000 0.07000
O2 O 0.10300 -0.23700 0.21600
O3 O 0.09400 -0.04600 0.16900
loop_
_geom_bond_atom_site_label_1
_geom_bond_atom_site_label_2
_geom_bond_site_symmetry_1
_geom_bond_site_symmetry_2
Ag1 S1 1_555 1_555
C1 S1 1_555 1_555
C2 S2 1_555 1_555
C3 S1 1_555 1_555
C4 S4 1_555 1_555
C5 S5 1_555 1_555
C6 S4 1_555 1_555
S2 C1 1_555 1_555
S3 Ag1 1_555 1_555
S5 C4 1_555 1_555
S6 Ag1 1_555 1_555
N1 O1 1_555 1_555
O2 N1 1_555 1_555
O3 N1 1_555 1_555
S3C C2 1_555 1_555
C2C S3 1_555 1_555
C3C S3 1_555 1_555
Ag1C S3C 1_555 1_555
S2C C2C 1_555 1_555
S1C C3C 1_555 1_555
S1C_2 Ag1C 1_555 1_555
S6C Ag1C 1_555 1_555
C1C S2C 1_555 1_555
Ag1C_2 S1C 1_555 1_555
C5C S6C 1_555 1_555
C6C S6C 1_555 1_555
S5C C5C 1_555 1_555
S4C C6C 1_555 1_555
C4C S5C 1_555 1_555
C3 S3C 1_555 1_555
C5 S6 1_555 1_555
C6 S6 1_555 1_555
S1C C1C 1_555 1_555
S4C C4C 1_555 1_555

#END
