
#######################################################################
#
#                 Cambridge Crystallographic Data Centre
#                                CCDC 
#
#######################################################################
#
# If this CIF has been generated from an entry in the Cambridge 
# Structural Database, then it will include bibliographic, chemical, 
# crystal, experimental, refinement or atomic coordinate data resulting 
# from the CCDC's data processing and validation procedures.
#
#######################################################################

data_AGUBEK
_symmetry_cell_setting           triclinic
_symmetry_space_group_name_H-M   'P -1'
_symmetry_Int_Tables_number      2
_space_group_name_Hall           '-P 1'
loop_
_symmetry_equiv_pos_site_id
_symmetry_equiv_pos_as_xyz
1 x,y,z
2 -x,-y,-z
_cell_length_a                   7.8154(5)
_cell_length_b                   10.5854(7)
_cell_length_c                   13.0681(8)
_cell_angle_alpha                70.9340(10)
_cell_angle_beta                 77.9400(10)
_cell_angle_gamma                68.6980(10)
_cell_volume                     946.98
loop_
_atom_site_label
_atom_site_type_symbol
_atom_site_fract_x
_atom_site_fract_y
_atom_site_fract_z
Cd1 Cd 0.351200(16) 0.150240(13) -0.208620(10)
O1 O 0.03910(18) 0.25289(13) -0.16299(12)
O2 O 0.3973(2) 0.23034(15) -0.07327(11)
H1 H 0.3765 0.1750 -0.0103
H2 H 0.5091 0.2167 -0.0822
O3 O -0.23661(17) 0.22382(14) -0.12203(12)
O4 O -0.39081(19) -0.04132(16) -0.12919(13)
O5 O -0.3121(2) 0.10668(15) -0.27737(12)
N1 N 0.2029(2) -0.02383(15) -0.14381(12)
N2 N 0.2943(2) 0.15794(18) -0.38559(14)
N3 N 0.3212(2) 0.37684(16) -0.32741(13)
C1 C 0.0212(2) 0.03040(17) -0.15342(13)
C2 C -0.0784(2) -0.04976(17) -0.16363(13)
C3 C 0.0120(3) -0.19266(19) -0.15209(15)
H3 H -0.0519 -0.2500 -0.1552
C4 C 0.1965(3) -0.24943(19) -0.13609(16)
H4 H 0.2575 -0.3455 -0.1260
C5 C 0.2886(3) -0.16083(19) -0.13540(16)
H5 H 0.4147 -0.1976 -0.1289
C6 C -0.0676(2) 0.18204(17) -0.14629(13)
C7 C -0.2739(2) 0.01160(19) -0.19204(15)
C8 C 0.2799(4) 0.0538(3) -0.4147(2)
H6 H 0.2953 -0.0333 -0.3633
C9 C 0.2429(4) 0.0683(4) -0.5186(2)
H7 H 0.2360 -0.0079 -0.5362
C10 C 0.2171(4) 0.1952(4) -0.5931(2)
H8 H 0.1922 0.2067 -0.6627
C11 C 0.2277(3) 0.3097(3) -0.56627(18)
C12 C 0.2682(3) 0.2858(2) -0.45991(15)
C13 C 0.2814(3) 0.4003(2) -0.42928(15)
C14 C 0.2530(3) 0.5338(2) -0.50591(18)
C15 C 0.2690(4) 0.6423(2) -0.4736(2)
H9 H 0.2527 0.7313 -0.5224
C16 C 0.3084(4) 0.6176(2) -0.3714(2)
H10 H 0.3187 0.6892 -0.3491
C17 C 0.3331(3) 0.4828(2) -0.29998(19)
H11 H 0.3592 0.4667 -0.2297
C18 C 0.1968(4) 0.4480(4) -0.6403(2)
H12 H 0.1669 0.4643 -0.7097
C19 C 0.2102(4) 0.5535(4) -0.6118(2)
H13 H 0.1912 0.6418 -0.6620
Cd1_2 Cd -0.648800(16) 0.150240(13) -0.208620(10)
O4_2 O 0.60919(19) -0.04132(16) -0.12919(13)
O5_2 O 0.6879(2) 0.10668(15) -0.27737(12)
O6 O 0.3981(2) 0.49790(17) -0.90045(14)
H14 H 0.3059 0.4845 -0.9158
H15 H 0.3589 0.5781 -0.8920
O7 O 0.0437(3) 0.49496(17) -0.90005(15)
H16 H -0.0031 0.4996 -0.9535
H17 H 0.1599 0.4814 -0.9167
H18? H 0.4562 0.5171 -0.9624
H19? H -0.0028 0.5736 -0.8881
loop_
_geom_bond_atom_site_label_1
_geom_bond_atom_site_label_2
_geom_bond_site_symmetry_1
_geom_bond_site_symmetry_2
Cd1 O1 1_555 1_555
O1 C6 1_555 1_555
O2 Cd1 1_555 1_555
H1 O2 1_555 1_555
H2 O2 1_555 1_555
O3 C6 1_555 1_555
O4 C7 1_555 1_555
O5 C7 1_555 1_555
N1 Cd1 1_555 1_555
N2 Cd1 1_555 1_555
N3 Cd1 1_555 1_555
C1 N1 1_555 1_555
C2 C1 1_555 1_555
C3 C2 1_555 1_555
H3 C3 1_555 1_555
C4 C3 1_555 1_555
H4 C4 1_555 1_555
C5 N1 1_555 1_555
H5 C5 1_555 1_555
C6 C1 1_555 1_555
C7 C2 1_555 1_555
C8 N2 1_555 1_555
H6 C8 1_555 1_555
C9 C8 1_555 1_555
H7 C9 1_555 1_555
C10 C9 1_555 1_555
H8 C10 1_555 1_555
C11 C10 1_555 1_555
C12 N2 1_555 1_555
C13 N3 1_555 1_555
C14 C13 1_555 1_555
C15 C14 1_555 1_555
H9 C15 1_555 1_555
C16 C15 1_555 1_555
H10 C16 1_555 1_555
C17 N3 1_555 1_555
H11 C17 1_555 1_555
C18 C11 1_555 1_555
H12 C18 1_555 1_555
C19 C14 1_555 1_555
H13 C19 1_555 1_555
O6 H14 1_555 1_555
H15 O6 1_555 1_555
O7 H16 1_555 1_555
H17 O7 1_555 1_555
Cd1_2 O4 1_555 1_555
O4_2 Cd1 1_555 1_555
O5_2 Cd1 1_555 1_555
O5 Cd1_2 1_555 1_555
C4 C5 1_555 1_555
C11 C12 1_555 1_555
C12 C13 1_555 1_555
C16 C17 1_555 1_555
C18 C19 1_555 1_555

#END
