
#######################################################################
#
#                 Cambridge Crystallographic Data Centre
#                                CCDC 
#
#######################################################################
#
# If this CIF has been generated from an entry in the Cambridge 
# Structural Database, then it will include bibliographic, chemical, 
# crystal, experimental, refinement or atomic coordinate data resulting 
# from the CCDC's data processing and validation procedures.
#
#######################################################################

data_AGUCEK
_symmetry_cell_setting           triclinic
_symmetry_space_group_name_H-M   'P -1'
_symmetry_Int_Tables_number      2
_space_group_name_Hall           '-P 1'
loop_
_symmetry_equiv_pos_site_id
_symmetry_equiv_pos_as_xyz
1 x,y,z
2 -x,-y,-z
_cell_length_a                   13.2546(7)
_cell_length_b                   13.6802(5)
_cell_length_c                   14.5001(8)
_cell_angle_alpha                67.160(2)
_cell_angle_beta                 89.795(2)
_cell_angle_gamma                88.457(3)
_cell_volume                     2422.14
loop_
_atom_site_label
_atom_site_type_symbol
_atom_site_fract_x
_atom_site_fract_y
_atom_site_fract_z
Cu1 Cu 0.77270(7) 0.02014(8) -0.23467(7)
Cl1 Cl 0.85295(14) 0.20141(17) -0.32583(15)
Cl2 Cl 0.82910(15) -0.09325(19) -0.30510(17)
N1 N 0.1526(4) -0.0626(5) -0.1726(5)
C1 C 0.1730(6) -0.1231(7) -0.0745(6)
H1 H 0.2410 -0.1473 -0.0586
N2 N 0.1092(5) -0.1521(5) 0.0010(5)
C2 C 0.0148(6) -0.1167(6) -0.0288(6)
C3 C -0.0173(5) -0.0514(6) -0.1264(5)
C4 C 0.0575(5) -0.0225(6) -0.2019(5)
N3 N 0.0408(5) 0.0443(6) -0.2950(5)
H2 H 0.0909 0.0627 -0.3378
H3 H -0.0205 0.0704 -0.3143
N4 N -0.0691(5) -0.1304(5) 0.0300(5)
C5 C -0.1479(6) -0.0801(6) -0.0314(6)
H4 H -0.2152 -0.0796 -0.0090
N5 N -0.1206(4) -0.0322(5) -0.1254(4)
C6 C -0.0721(6) -0.1985(7) 0.1366(5)
H5 H -0.1393 -0.1914 0.1637
H6 H -0.0209 -0.1760 0.1733
C7 C -0.0514(8) -0.3138(7) 0.1520(6)
C8 C 0.0312(8) -0.3708(8) 0.2063(8)
H7 H 0.0758 -0.3378 0.2359
C9 C 0.0502(9) -0.4740(9) 0.2183(9)
H8 H 0.1062 -0.5117 0.2582
C10 C -0.0061(9) -0.5219(9) 0.1766(8)
C11 C -0.0924(12) -0.4742(10) 0.1258(9)
H9 H -0.1358 -0.5108 0.0988
C12 C -0.1160(11) -0.3642(10) 0.1144(9)
H10 H -0.1760 -0.3289 0.0808
C13 C 0.0182(10) -0.6368(11) 0.1905(10)
H11 H 0.0723 -0.6712 0.2352
C14 C -0.0247(12) -0.6916(11) 0.1502(12)
H12 H -0.0793 -0.6617 0.1048
H13 H -0.0023 -0.7627 0.1651
O1 O 0.6890(4) 0.0661(5) -0.1429(4)
N6 N 0.6330(5) 0.1987(5) -0.0973(5)
C15 C 0.6995(5) 0.1553(8) -0.1399(6)
H14 H 0.7577 0.1939 -0.1696
C16 C 0.6468(8) 0.3043(8) -0.0983(7)
H15 H 0.5904 0.3229 -0.0637
H16 H 0.6490 0.3559 -0.1676
H17 H 0.7102 0.3053 -0.0641
C17 C 0.5409(7) 0.1387(8) -0.0512(7)
H18 H 0.4992 0.1804 -0.0230
H19 H 0.5611 0.0709 0.0022
H20 H 0.5022 0.1254 -0.1024
Cu2 Cu 0.27452(7) -0.02964(8) -0.26321(7)
Cl3 Cl 0.36410(15) -0.21169(17) -0.17398(15)
Cl4 Cl 0.32732(15) 0.07757(19) -0.18756(16)
N7 N 0.6500(4) 0.0552(5) -0.3273(5)
C18 C 0.6667(6) 0.1180(7) -0.4240(6)
H21 H 0.7330 0.1441 -0.4395
N8 N 0.6017(5) 0.1475(5) -0.4995(5)
C19 C 0.5085(6) 0.1102(6) -0.4685(6)
C20 C 0.4799(5) 0.0471(6) -0.3718(5)
C21 C 0.5560(5) 0.0141(7) -0.2980(6)
N9 N 0.5443(5) -0.0546(5) -0.2048(5)
H22 H 0.5959 -0.0730 -0.1630
H23 H 0.4848 -0.0818 -0.1846
N10 N 0.4246(5) 0.1268(5) -0.5279(5)
C22 C 0.3488(6) 0.0754(6) -0.4668(6)
H24 H 0.2818 0.0744 -0.4893
N11 N 0.3782(4) 0.0267(5) -0.3718(5)
C23 C 0.4175(6) 0.1986(7) -0.6344(6)
H25 H 0.3564 0.1827 -0.6647
H26 H 0.4771 0.1869 -0.6705
C24 C 0.4122(7) 0.3120(7) -0.6450(6)
C25 C 0.3236(8) 0.3553(8) -0.6273(8)
H27 H 0.2644 0.3145 -0.6122
C26 C 0.3198(10) 0.4566(10) -0.6311(9)
H28 H 0.2570 0.4869 -0.6223
C27 C 0.4054(10) 0.5154(9) -0.6476(8)
C28 C 0.4942(9) 0.4791(10) -0.6705(9)
H29 H 0.5524 0.5214 -0.6855
C29 C 0.4976(8) 0.3692(9) -0.6714(9)
H30 H 0.5570 0.3410 -0.6897
C30 C 0.4038(13) 0.6273(12) -0.6449(10)
H31 H 0.3397 0.6537 -0.6343
C31 C 0.4740(14) 0.6857(13) -0.6547(15)
H32 H 0.5400 0.6638 -0.6656
H33 H 0.4628 0.7531 -0.6515
O2 O 0.1944(4) -0.0747(5) -0.3570(4)
N12 N 0.1404(5) -0.2047(6) -0.4030(5)
C32 C 0.2044(6) -0.1649(7) -0.3583(6)
H34 H 0.2614 -0.2074 -0.3252
C33 C 0.1554(8) -0.3109(7) -0.4010(7)
H35 H 0.1005 -0.3263 -0.4379
H36 H 0.1559 -0.3623 -0.3315
H37 H 0.2200 -0.3157 -0.4322
C34 C 0.0494(6) -0.1440(8) -0.4504(7)
H38 H 0.0104 -0.1846 -0.4799
H39 H 0.0683 -0.0765 -0.5029
H40 H 0.0084 -0.1301 -0.4002
Cu1_2 Cu -0.22730(7) 0.02014(8) -0.23467(7)
N5_2 N 0.8794(4) -0.0322(5) -0.1254(4)
O3 O -0.8307(5) 0.2002(6) -0.4350(6)
N13 N -0.8240(7) 0.3510(7) -0.4100(7)
C35 C -0.7899(8) 0.2581(9) -0.4043(8)
H41 H -0.7262 0.2345 -0.3724
C36 C -0.9186(9) 0.3860(13) -0.4542(13)
H42 H -0.9352 0.4559 -0.4533
H43 H -0.9696 0.3355 -0.4168
H44 H -0.9174 0.3913 -0.5236
C37 C -0.7679(12) 0.4167(12) -0.3723(12)
H45 H -0.8070 0.4821 -0.3832
H46 H -0.7034 0.4343 -0.4075
H47 H -0.7551 0.3782 -0.3005
O4 O -0.6767(5) 0.2102(6) -0.9427(6)
N14 N -0.6766(8) 0.3799(9) -0.9499(10)
C38 C -0.7005(10) 0.2814(11) -0.9137(9)
H48 H -0.7425 0.2606 -0.8564
C39 C -0.7085(13) 0.4542(12) -0.9105(12)
H49 H -0.6808 0.5235 -0.9505
H50 H -0.6846 0.4311 -0.8412
H51 H -0.7824 0.4599 -0.9121
C40 C -0.588(3) 0.405(3) -0.994(6)
H52 H -0.5788 0.4818 -1.0161
H53 H -0.5844 0.3851 -1.0518
H54 H -0.5338 0.3672 -0.9463
C41? C -0.634(3) 0.429(3) -1.061(4)
H55? H -0.6202 0.5039 -1.0792
H56? H -0.6836 0.4214 -1.1075
H57? H -0.5711 0.3906 -1.0644
loop_
_geom_bond_atom_site_label_1
_geom_bond_atom_site_label_2
_geom_bond_site_symmetry_1
_geom_bond_site_symmetry_2
Cu1 Cl1 1_555 1_555
Cl2 Cu1 1_555 1_555
N1 C1 1_555 1_555
C1 H1 1_555 1_555
N2 C1 1_555 1_555
C2 N2 1_555 1_555
C3 C2 1_555 1_555
C4 N1 1_555 1_555
N3 C4 1_555 1_555
H2 N3 1_555 1_555
H3 N3 1_555 1_555
N4 C2 1_555 1_555
C5 N4 1_555 1_555
H4 C5 1_555 1_555
N5 C3 1_555 1_555
C6 N4 1_555 1_555
H5 C6 1_555 1_555
H6 C6 1_555 1_555
C7 C6 1_555 1_555
C8 C7 1_555 1_555
H7 C8 1_555 1_555
C9 C8 1_555 1_555
H8 C9 1_555 1_555
C10 C9 1_555 1_555
C11 C10 1_555 1_555
H9 C11 1_555 1_555
C12 C7 1_555 1_555
H10 C12 1_555 1_555
C13 C10 1_555 1_555
H11 C13 1_555 1_555
C14 C13 1_555 1_555
H12 C14 1_555 1_555
H13 C14 1_555 1_555
O1 Cu1 1_555 1_555
N6 C15 1_555 1_555
C15 O1 1_555 1_555
H14 C15 1_555 1_555
C16 N6 1_555 1_555
H15 C16 1_555 1_555
H16 C16 1_555 1_555
H17 C16 1_555 1_555
C17 N6 1_555 1_555
H18 C17 1_555 1_555
H19 C17 1_555 1_555
H20 C17 1_555 1_555
Cu2 N1 1_555 1_555
Cl3 Cu2 1_555 1_555
Cl4 Cu2 1_555 1_555
N7 Cu1 1_555 1_555
C18 N7 1_555 1_555
H21 C18 1_555 1_555
N8 C18 1_555 1_555
C19 N8 1_555 1_555
C20 C19 1_555 1_555
C21 N7 1_555 1_555
N9 C21 1_555 1_555
H22 N9 1_555 1_555
H23 N9 1_555 1_555
N10 C19 1_555 1_555
C22 N10 1_555 1_555
H24 C22 1_555 1_555
N11 Cu2 1_555 1_555
C23 N10 1_555 1_555
H25 C23 1_555 1_555
H26 C23 1_555 1_555
C24 C23 1_555 1_555
C25 C24 1_555 1_555
H27 C25 1_555 1_555
C26 C25 1_555 1_555
H28 C26 1_555 1_555
C27 C26 1_555 1_555
C28 C27 1_555 1_555
H29 C28 1_555 1_555
C29 C24 1_555 1_555
H30 C29 1_555 1_555
C30 C27 1_555 1_555
H31 C30 1_555 1_555
C31 C30 1_555 1_555
H32 C31 1_555 1_555
H33 C31 1_555 1_555
O2 Cu2 1_555 1_555
N12 C32 1_555 1_555
C32 O2 1_555 1_555
H34 C32 1_555 1_555
C33 N12 1_555 1_555
H35 C33 1_555 1_555
H36 C33 1_555 1_555
H37 C33 1_555 1_555
C34 N12 1_555 1_555
H38 C34 1_555 1_555
H39 C34 1_555 1_555
H40 C34 1_555 1_555
O3 C35 1_555 1_555
N13 C35 1_555 1_555
C35 H41 1_555 1_555
C36 N13 1_555 1_555
H42 C36 1_555 1_555
H43 C36 1_555 1_555
H44 C36 1_555 1_555
C37 N13 1_555 1_555
H45 C37 1_555 1_555
H46 C37 1_555 1_555
H47 C37 1_555 1_555
O4 C38 1_555 1_555
N14 C38 1_555 1_555
C38 H48 1_555 1_555
C39 N14 1_555 1_555
H49 C39 1_555 1_555
H50 C39 1_555 1_555
H51 C39 1_555 1_555
C40 N14 1_555 1_555
H52 C40 1_555 1_555
H53 C40 1_555 1_555
H54 C40 1_555 1_555
Cu1_2 N5 1_555 1_555
N5_2 Cu1 1_555 1_555
C3 C4 1_555 1_555
C5 N5 1_555 1_555
C11 C12 1_555 1_555
C20 N11 1_555 1_555
C20 C21 1_555 1_555
C22 N11 1_555 1_555
C28 C29 1_555 1_555

#END
