
#######################################################################
#
#                 Cambridge Crystallographic Data Centre
#                                CCDC 
#
#######################################################################
#
# If this CIF has been generated from an entry in the Cambridge 
# Structural Database, then it will include bibliographic, chemical, 
# crystal, experimental, refinement or atomic coordinate data resulting 
# from the CCDC's data processing and validation procedures.
#
#######################################################################

data_AGUDUB
_symmetry_cell_setting           monoclinic
_symmetry_space_group_name_H-M   'C 2/c'
_symmetry_Int_Tables_number      15
_space_group_name_Hall           '-C 2yn'
loop_
_symmetry_equiv_pos_site_id
_symmetry_equiv_pos_as_xyz
1 x,y,z
2 1/2+x,1/2+y,z
3 -x,y,1/2-z
4 1/2-x,1/2+y,1/2-z
5 -x,-y,-z
6 1/2-x,1/2-y,-z
7 x,-y,1/2+z
8 1/2+x,1/2-y,1/2+z
_cell_length_a                   21.8013(12)
_cell_length_b                   25.1556(12)
_cell_length_c                   20.6194(12)
_cell_angle_alpha                90
_cell_angle_beta                 105.676(7)
_cell_angle_gamma                90
_cell_volume                     10887.6
loop_
_atom_site_label
_atom_site_type_symbol
_atom_site_fract_x
_atom_site_fract_y
_atom_site_fract_z
C1 C 0.37303(13) 0.82993(12) 0.21031(15)
C2 C 0.39896(16) 0.88001(13) 0.22846(18)
H1 H 0.4022 0.8931 0.2720
C3 C 0.42012(18) 0.91092(15) 0.1832(2)
H2 H 0.4375 0.9447 0.1961
C4 C 0.4158(2) 0.89242(18) 0.1198(2)
H3 H 0.4298 0.9136 0.0891
C5 C 0.3909(2) 0.84273(18) 0.1011(2)
H4 H 0.3882 0.8299 0.0576
C6 C 0.37011(17) 0.81212(15) 0.14550(18)
H5 H 0.3534 0.7782 0.1321
C7 C 0.36489(13) 0.81955(11) 0.34339(14)
C8 C 0.42985(14) 0.82161(12) 0.37599(16)
H6 H 0.4593 0.8099 0.3532
C9 C 0.45164(16) 0.84053(13) 0.44094(16)
H7 H 0.4956 0.8417 0.4619
C10 C 0.40948(18) 0.85761(15) 0.47495(17)
H8 H 0.4242 0.8699 0.5195
C11 C 0.34542(19) 0.85662(17) 0.44340(19)
H9 H 0.3163 0.8689 0.4663
C12 C 0.32322(16) 0.83770(14) 0.37812(17)
H10 H 0.2792 0.8372 0.3573
C13 C 0.15730(14) 0.75680(12) 0.27157(15)
C14 C 0.14036(16) 0.80698(14) 0.28882(18)
H11 H 0.1614 0.8370 0.2781
C15 C 0.0934(2) 0.81371(18) 0.3213(2)
H12 H 0.0817 0.8480 0.3314
C16 C 0.0639(2) 0.7700(2) 0.3389(2)
H13 H 0.0315 0.7745 0.3606
C17 C 0.0815(2) 0.7199(2) 0.3251(2)
H14 H 0.0616 0.6900 0.3380
C18 C 0.1286(2) 0.71300(15) 0.29202(19)
H15 H 0.1411 0.6785 0.2834
C19 C 0.15909(14) 0.75743(11) 0.13840(15)
C20 C 0.09536(15) 0.74191(13) 0.12208(16)
H16 H 0.0783 0.7280 0.1558
C21 C 0.05694(17) 0.74665(15) 0.05697(19)
H17 H 0.0139 0.7365 0.0471
C22 C 0.0808(2) 0.76590(15) 0.00678(19)
H18 H 0.0545 0.7686 -0.0375
C23 C 0.1437(2) 0.78127(15) 0.02154(18)
H19 H 0.1605 0.7947 -0.0126
C24 C 0.18209(17) 0.77687(13) 0.08677(17)
H20 H 0.2250 0.7874 0.0963
C25 C 0.34503(12) 1.04875(10) 0.31869(13)
C26 C 0.37295(14) 1.09482(12) 0.35079(14)
H21 H 0.3594 1.1280 0.3312
C27 C 0.41999(15) 1.09280(14) 0.41066(16)
H22 H 0.4386 1.1243 0.4314
C28 C 0.43956(15) 1.04428(15) 0.43993(16)
H23 H 0.4713 1.0427 0.4811
C29 C 0.41277(16) 0.99821(14) 0.40917(16)
H24 H 0.4264 0.9651 0.4291
C30 C 0.36578(14) 1.00044(12) 0.34893(15)
H25 H 0.3476 0.9687 0.3282
C31 C 0.32951(14) 1.04406(11) 0.18105(13)
C32 C 0.39289(15) 1.05958(13) 0.19395(16)
H26 H 0.4137 1.0739 0.2363
C33 C 0.42590(19) 1.05434(15) 0.14561(19)
H27 H 0.4688 1.0649 0.1554
C34 C 0.3963(2) 1.03395(16) 0.0838(2)
H28 H 0.4189 1.0302 0.0511
C35 C 0.3335(2) 1.01896(15) 0.06917(17)
H29 H 0.3132 1.0052 0.0264
C36 C 0.30012(17) 1.02410(13) 0.11718(15)
H30 H 0.2570 1.0140 0.1065
C37 C 0.11629(12) 0.97253(12) 0.16251(15)
C38 C 0.10385(17) 0.99268(16) 0.09812(18)
H31 H 0.1158 1.0278 0.0917
C39 C 0.0740(2) 0.9622(2) 0.0427(2)
H32 H 0.0662 0.9766 -0.0009
C40 C 0.05596(19) 0.91105(18) 0.0512(2)
H33 H 0.0358 0.8903 0.0135
C41 C 0.06724(17) 0.89035(15) 0.1144(2)
H34 H 0.0550 0.8552 0.1203
C42 C 0.09694(15) 0.92111(12) 0.17021(18)
H35 H 0.1039 0.9067 0.2137
C43 C 0.14732(13) 0.98069(12) 0.30393(15)
C44 C 0.19537(16) 0.95832(14) 0.35413(17)
H36 H 0.2369 0.9567 0.3490
C45 C 0.18338(19) 0.93810(17) 0.4122(2)
H37 H 0.2166 0.9226 0.4457
C46 C 0.12264(19) 0.94064(16) 0.4210(2)
H38 H 0.1146 0.9274 0.4605
C47 C 0.07485(18) 0.96263(16) 0.3717(2)
H39 H 0.0335 0.9644 0.3772
C48 C 0.08653(15) 0.98227(15) 0.31396(19)
H40 H 0.0528 0.9971 0.2804
C49 C 0.3460(3) 0.6042(2) 0.0861(3)
H41 H 0.3620 0.5754 0.1182
H42 H 0.3818 0.6189 0.0717
C50 C 0.2969(3) 0.5837(2) 0.0272(3)
H43 H 0.3019 0.5455 0.0210
H44 H 0.2976 0.6025 -0.0142
C51 C 0.2377(3) 0.5956(3) 0.0479(4)
H45 H 0.2010 0.5994 0.0085
H46 H 0.2289 0.5675 0.0770
C52 C 0.2520(2) 0.6454(2) 0.0842(3)
H47 H 0.2418 0.6754 0.0528
H48 H 0.2268 0.6488 0.1168
C53 C 0.2857(3) 0.6520(3) 0.4103(3)
H49 H 0.2813 0.6204 0.4364
H50 H 0.2511 0.6520 0.3685
C54 C 0.2827(5) 0.7001(4) 0.4491(5)
H51 H 0.2579 0.6945 0.4817
H52 H 0.2651 0.7303 0.4199
C55 C 0.3510(4) 0.7070(4) 0.4823(5)
H53 H 0.3607 0.7450 0.4888
H54 H 0.3614 0.6900 0.5268
C56 C 0.3881(4) 0.6844(3) 0.4432(4)
H55 H 0.4231 0.6633 0.4714
H56 H 0.4060 0.7121 0.4203
N1 N 0.26023(11) 0.80063(9) 0.23351(12)
N2 N 0.23701(11) 1.00102(9) 0.23293(13)
O1 O 0.31735(17) 0.64510(15) 0.11750(17)
O2 O 0.3449(2) 0.65134(17) 0.39538(19)
P1 P 0.33726(3) 0.78627(3) 0.26177(4)
P2 P 0.21449(3) 0.74684(3) 0.22229(4)
P3 P 0.28138(3) 1.05529(3) 0.24036(3)
P4 P 0.16212(3) 1.01513(3) 0.23147(4)
K1 K 0.24725(4) 0.90193(3) 0.18075(5)
K2 K 0.32850(4) 0.65077(3) 0.25918(4)
K2C K 0.17150(4) 1.15077(3) 0.24082(4)
C25C C 0.15497(12) 0.54875(10) 0.18131(13)
C26C C 0.12705(14) 0.59482(12) 0.14921(14)
H21C H 0.1406 0.6280 0.1688
C27C C 0.08001(15) 0.59280(14) 0.08934(16)
H22C H 0.0614 0.6243 0.0686
C28C C 0.06044(15) 0.54428(15) 0.06007(16)
H23C H 0.0287 0.5427 0.0189
C29C C 0.08723(16) 0.49821(14) 0.09083(16)
H24C H 0.0736 0.4651 0.0709
C30C C 0.13422(14) 0.50044(12) 0.15107(15)
H25C H 0.1524 0.4687 0.1718
C31C C 0.17049(14) 0.54406(11) 0.31895(13)
C32C C 0.10711(15) 0.55958(13) 0.30605(16)
H26C H 0.0863 0.5739 0.2637
C33C C 0.07410(19) 0.55434(15) 0.35439(19)
H27C H 0.0312 0.5649 0.3446
C34C C 0.1037(2) 0.53395(16) 0.4162(2)
H28C H 0.0811 0.5302 0.4489
C35C C 0.1665(2) 0.51896(15) 0.43083(17)
H29C H 0.1868 0.5052 0.4736
C36C C 0.19988(17) 0.52410(13) 0.38282(15)
H30C H 0.2430 0.5140 0.3935
C37C C 0.38371(12) 0.47253(12) 0.33749(15)
C38C C 0.39615(17) 0.49268(16) 0.40188(18)
H31C H 0.3842 0.5278 0.4083
C39C C 0.4260(2) 0.4622(2) 0.4573(2)
H32C H 0.4338 0.4766 0.5009
C40C C 0.44404(19) 0.41105(18) 0.4488(2)
H33C H 0.4642 0.3903 0.4865
C41C C 0.43276(17) 0.39035(15) 0.3856(2)
H34C H 0.4450 0.3552 0.3797
C42C C 0.40306(15) 0.42111(12) 0.32979(18)
H35C H 0.3961 0.4067 0.2863
C43C C 0.35268(13) 0.48069(12) 0.19607(15)
C44C C 0.30463(16) 0.45832(14) 0.14587(17)
H36C H 0.2631 0.4567 0.1510
C45C C 0.31662(19) 0.43810(17) 0.0878(2)
H37C H 0.2834 0.4226 0.0543
C46C C 0.37736(19) 0.44064(16) 0.0790(2)
H38C H 0.3854 0.4274 0.0395
C47C C 0.42515(18) 0.46263(16) 0.1283(2)
H39C H 0.4665 0.4644 0.1228
C48C C 0.41347(15) 0.48227(15) 0.18604(19)
H40C H 0.4472 0.4971 0.2196
N2C N 0.26299(11) 0.50102(9) 0.26707(13)
P3C P 0.21862(3) 0.55529(3) 0.25964(3)
P4C P 0.33788(3) 0.51513(3) 0.26853(4)
C49C C 0.1540(3) 1.1042(2) 0.4139(3)
H41C H 0.1380 1.0754 0.3818
H42C H 0.1182 1.1189 0.4283
C50C C 0.2031(3) 1.0837(2) 0.4728(3)
H43C H 0.1981 1.0455 0.4790
H44C H 0.2024 1.1025 0.5142
C51C C 0.2623(3) 1.0956(3) 0.4521(4)
H45C H 0.2990 1.0994 0.4915
H46C H 0.2711 1.0675 0.4230
C52C C 0.2480(2) 1.1454(2) 0.4158(3)
H47C H 0.2582 1.1754 0.4472
H48C H 0.2732 1.1488 0.3832
O1C O 0.18265(17) 1.14510(15) 0.38250(17)
C53C C 0.2143(3) 1.1520(3) 0.0897(3)
H49C H 0.2187 1.1204 0.0636
H50C H 0.2489 1.1520 0.1315
C54C C 0.2173(5) 1.2001(4) 0.0509(5)
H51C H 0.2421 1.1945 0.0183
H52C H 0.2349 1.2303 0.0801
C55C C 0.1490(4) 1.2070(4) 0.0177(5)
H53C H 0.1393 1.2450 0.0112
H54C H 0.1386 1.1900 -0.0268
C56C C 0.1119(4) 1.1844(3) 0.0568(4)
H55C H 0.0769 1.1633 0.0286
H56C H 0.0940 1.2121 0.0797
O2C O 0.1551(2) 1.15134(17) 0.10462(19)
C1C C 0.12697(13) 1.32993(12) 0.28969(15)
C2C C 0.10104(16) 1.38001(13) 0.27154(18)
H1C H 0.0978 1.3931 0.2280
C3C C 0.07988(18) 1.41092(15) 0.3168(2)
H2C H 0.0625 1.4447 0.3039
C4C C 0.0842(2) 1.39242(18) 0.3802(2)
H3C H 0.0702 1.4136 0.4109
C5C C 0.1091(2) 1.34273(18) 0.3989(2)
H4C H 0.1118 1.3299 0.4424
C6C C 0.12989(17) 1.31212(15) 0.35450(18)
H5C H 0.1466 1.2782 0.3679
C7C C 0.13511(13) 1.31955(11) 0.15661(14)
C8C C 0.07015(14) 1.32161(12) 0.12401(16)
H6C H 0.0407 1.3099 0.1468
C9C C 0.04836(16) 1.34053(13) 0.05906(16)
H7C H 0.0044 1.3417 0.0381
C10C C 0.09052(18) 1.35761(15) 0.02505(17)
H8C H 0.0758 1.3699 -0.0195
C11C C 0.15458(19) 1.35662(17) 0.05660(19)
H9C H 0.1837 1.3689 0.0337
C12C C 0.17678(16) 1.33770(14) 0.12188(17)
H10C H 0.2208 1.3372 0.1427
C13C C 0.34270(14) 1.25680(12) 0.22843(15)
C14C C 0.35964(16) 1.30698(14) 0.21118(18)
H11C H 0.3386 1.3370 0.2219
C15C C 0.4066(2) 1.31371(18) 0.1787(2)
H12C H 0.4183 1.3480 0.1686
C16C C 0.4361(2) 1.2700(2) 0.1611(2)
H13C H 0.4685 1.2745 0.1394
C17C C 0.4185(2) 1.2199(2) 0.1749(2)
H14C H 0.4384 1.1900 0.1620
C18C C 0.3714(2) 1.21300(15) 0.20798(19)
H15C H 0.3589 1.1785 0.2166
C19C C 0.34091(14) 1.25743(11) 0.36160(15)
C20C C 0.40464(15) 1.24191(13) 0.37792(16)
H16C H 0.4217 1.2280 0.3442
C21C C 0.44306(17) 1.24665(15) 0.44303(19)
H17C H 0.4861 1.2365 0.4529
C22C C 0.4192(2) 1.26590(15) 0.49322(19)
H18C H 0.4455 1.2686 0.5375
C23C C 0.3563(2) 1.28127(15) 0.47846(18)
H19C H 0.3395 1.2947 0.5126
C24C C 0.31791(17) 1.27687(13) 0.41323(17)
H20C H 0.2750 1.2874 0.4037
N1C N 0.23977(11) 1.30063(9) 0.26649(12)
P1C P 0.16274(3) 1.28627(3) 0.23823(4)
P2C P 0.28551(3) 1.24684(3) 0.27771(4)
K1C K 0.25275(4) 1.40193(3) 0.31925(5)
K1C_2 K 0.25275(4) 0.40193(3) 0.31925(5)
C1C_2 C 0.12697(13) 0.32993(12) 0.28969(15)
C2C_2 C 0.10104(16) 0.38001(13) 0.27154(18)
N1C_2 N 0.23977(11) 0.30063(9) 0.26649(12)
H1C_2 H 0.0978 0.3931 0.2280
C57 C 0.0093(7) 1.1764(5) 0.1964(7)
H57 H -0.0254 1.1813 0.1552
H58 H 0.0497 1.1847 0.1864
C58 C 0.0098(7) 1.1243(5) 0.2193(6)
H59 H 0.0528 1.1094 0.2277
H60 H -0.0193 1.1024 0.1852
O3 O 0.0000 1.2108(7) 0.2500
C58B C -0.0098(7) 1.1243(5) 0.2807(6)
C57B C -0.0093(7) 1.1764(5) 0.3036(7)
H57B H 0.0254 1.1813 0.3448
H58B H -0.0497 1.1847 0.3136
H59B H -0.0528 1.1094 0.2723
H60B H 0.0193 1.1024 0.3148
loop_
_geom_bond_atom_site_label_1
_geom_bond_atom_site_label_2
_geom_bond_site_symmetry_1
_geom_bond_site_symmetry_2
C1 C2 1_555 1_555
C2 H1 1_555 1_555
C3 C2 1_555 1_555
H2 C3 1_555 1_555
C4 C3 1_555 1_555
H3 C4 1_555 1_555
C5 C4 1_555 1_555
H4 C5 1_555 1_555
C6 C1 1_555 1_555
H5 C6 1_555 1_555
C7 C8 1_555 1_555
C8 H6 1_555 1_555
C9 C8 1_555 1_555
H7 C9 1_555 1_555
C10 C9 1_555 1_555
H8 C10 1_555 1_555
C11 C10 1_555 1_555
H9 C11 1_555 1_555
C12 C7 1_555 1_555
H10 C12 1_555 1_555
C13 C14 1_555 1_555
C14 H11 1_555 1_555
C15 C14 1_555 1_555
H12 C15 1_555 1_555
C16 C15 1_555 1_555
H13 C16 1_555 1_555
C17 C16 1_555 1_555
H14 C17 1_555 1_555
C18 C13 1_555 1_555
H15 C18 1_555 1_555
C19 C20 1_555 1_555
C20 H16 1_555 1_555
C21 C20 1_555 1_555
H17 C21 1_555 1_555
C22 C21 1_555 1_555
H18 C22 1_555 1_555
C23 C22 1_555 1_555
H19 C23 1_555 1_555
C24 C19 1_555 1_555
H20 C24 1_555 1_555
C25 C26 1_555 1_555
C26 H21 1_555 1_555
C27 C26 1_555 1_555
H22 C27 1_555 1_555
C28 C27 1_555 1_555
H23 C28 1_555 1_555
C29 C28 1_555 1_555
H24 C29 1_555 1_555
C30 C25 1_555 1_555
H25 C30 1_555 1_555
C31 C32 1_555 1_555
C32 H26 1_555 1_555
C33 C32 1_555 1_555
H27 C33 1_555 1_555
C34 C33 1_555 1_555
H28 C34 1_555 1_555
C35 C34 1_555 1_555
H29 C35 1_555 1_555
C36 C31 1_555 1_555
H30 C36 1_555 1_555
C37 C38 1_555 1_555
C38 H31 1_555 1_555
C39 C38 1_555 1_555
H32 C39 1_555 1_555
C40 C39 1_555 1_555
H33 C40 1_555 1_555
C41 C40 1_555 1_555
H34 C41 1_555 1_555
C42 C37 1_555 1_555
H35 C42 1_555 1_555
C43 C44 1_555 1_555
C44 H36 1_555 1_555
C45 C44 1_555 1_555
H37 C45 1_555 1_555
C46 C45 1_555 1_555
H38 C46 1_555 1_555
C47 C46 1_555 1_555
H39 C47 1_555 1_555
C48 C43 1_555 1_555
H40 C48 1_555 1_555
C49 H41 1_555 1_555
H42 C49 1_555 1_555
C50 C49 1_555 1_555
H43 C50 1_555 1_555
H44 C50 1_555 1_555
C51 C50 1_555 1_555
H45 C51 1_555 1_555
H46 C51 1_555 1_555
C52 C51 1_555 1_555
H47 C52 1_555 1_555
H48 C52 1_555 1_555
C53 H49 1_555 1_555
H50 C53 1_555 1_555
C54 C53 1_555 1_555
H51 C54 1_555 1_555
H52 C54 1_555 1_555
C55 C54 1_555 1_555
H53 C55 1_555 1_555
H54 C55 1_555 1_555
C56 C55 1_555 1_555
H55 C56 1_555 1_555
H56 C56 1_555 1_555
N1 P1 1_555 1_555
N2 P3 1_555 1_555
O1 C49 1_555 1_555
O2 C53 1_555 1_555
P1 C1 1_555 1_555
P2 C13 1_555 1_555
P3 C25 1_555 1_555
P4 C37 1_555 1_555
K1 C1 1_555 1_555
K2 O1 1_555 1_555
C57 H57 1_555 1_555
H58 C57 1_555 1_555
C58 C57 1_555 1_555
H59 C58 1_555 1_555
H60 C58 1_555 1_555
O3 C57 1_555 1_555
K2C P3 1_555 1_555
C25C C26C 1_555 1_555
C26C H21C 1_555 1_555
C27C C26C 1_555 1_555
H22C C27C 1_555 1_555
C28C C27C 1_555 1_555
H23C C28C 1_555 1_555
C29C C28C 1_555 1_555
H24C C29C 1_555 1_555
C30C C25C 1_555 1_555
H25C C30C 1_555 1_555
C31C C32C 1_555 1_555
C32C H26C 1_555 1_555
C33C C32C 1_555 1_555
H27C C33C 1_555 1_555
C34C C33C 1_555 1_555
H28C C34C 1_555 1_555
C35C C34C 1_555 1_555
H29C C35C 1_555 1_555
C36C C31C 1_555 1_555
H30C C36C 1_555 1_555
C37C C38C 1_555 1_555
C38C H31C 1_555 1_555
C39C C38C 1_555 1_555
H32C C39C 1_555 1_555
C40C C39C 1_555 1_555
H33C C40C 1_555 1_555
C41C C40C 1_555 1_555
H34C C41C 1_555 1_555
C42C C37C 1_555 1_555
H35C C42C 1_555 1_555
C43C C44C 1_555 1_555
C44C H36C 1_555 1_555
C45C C44C 1_555 1_555
H37C C45C 1_555 1_555
C46C C45C 1_555 1_555
H38C C46C 1_555 1_555
C47C C46C 1_555 1_555
H39C C47C 1_555 1_555
C48C C43C 1_555 1_555
H40C C48C 1_555 1_555
N2C P3C 1_555 1_555
P3C K2 1_555 1_555
P4C K2 1_555 1_555
C49C H41C 1_555 1_555
H42C C49C 1_555 1_555
C50C C49C 1_555 1_555
H43C C50C 1_555 1_555
H44C C50C 1_555 1_555
C51C C50C 1_555 1_555
H45C C51C 1_555 1_555
H46C C51C 1_555 1_555
C52C C51C 1_555 1_555
H47C C52C 1_555 1_555
H48C C52C 1_555 1_555
O1C K2C 1_555 1_555
C53C H49C 1_555 1_555
H50C C53C 1_555 1_555
C54C C53C 1_555 1_555
H51C C54C 1_555 1_555
H52C C54C 1_555 1_555
C55C C54C 1_555 1_555
H53C C55C 1_555 1_555
H54C C55C 1_555 1_555
C56C C55C 1_555 1_555
H55C C56C 1_555 1_555
H56C C56C 1_555 1_555
O2C K2C 1_555 1_555
C1C C2C 1_555 1_555
C2C H1C 1_555 1_555
C3C C2C 1_555 1_555
H2C C3C 1_555 1_555
C4C C3C 1_555 1_555
H3C C4C 1_555 1_555
C5C C4C 1_555 1_555
H4C C5C 1_555 1_555
C6C C1C 1_555 1_555
H5C C6C 1_555 1_555
C7C C8C 1_555 1_555
C8C H6C 1_555 1_555
C9C C8C 1_555 1_555
H7C C9C 1_555 1_555
C10C C9C 1_555 1_555
H8C C10C 1_555 1_555
C11C C10C 1_555 1_555
H9C C11C 1_555 1_555
C12C C7C 1_555 1_555
H10C C12C 1_555 1_555
C13C C14C 1_555 1_555
C14C H11C 1_555 1_555
C15C C14C 1_555 1_555
H12C C15C 1_555 1_555
C16C C15C 1_555 1_555
H13C C16C 1_555 1_555
C17C C16C 1_555 1_555
H14C C17C 1_555 1_555
C18C C13C 1_555 1_555
H15C C18C 1_555 1_555
C19C C20C 1_555 1_555
C20C H16C 1_555 1_555
C21C C20C 1_555 1_555
H17C C21C 1_555 1_555
C22C C21C 1_555 1_555
H18C C22C 1_555 1_555
C23C C22C 1_555 1_555
H19C C23C 1_555 1_555
C24C C19C 1_555 1_555
H20C C24C 1_555 1_555
N1C P1C 1_555 1_555
P1C K2C 1_555 1_555
P2C K2C 1_555 1_555
K1C C1C 1_555 1_555
K1C_2 C37C 1_555 1_555
C1C_2 K1C_2 1_555 1_555
C2C_2 K1C_2 1_555 1_555
N1C_2 K1C_2 1_555 1_555
H1C_2 C2C_2 1_555 1_555
C58B C58 1_555 1_555
C57B O3 1_555 1_555
H57B C57B 1_555 1_555
H58B C57B 1_555 1_555
H59B C58B 1_555 1_555
H60B C58B 1_555 1_555
C2 K1 1_555 1_555
C5 C6 1_555 1_555
C7 P1 1_555 1_555
C11 C12 1_555 1_555
C17 C18 1_555 1_555
C19 P2 1_555 1_555
C23 C24 1_555 1_555
C29 C30 1_555 1_555
C31 P3 1_555 1_555
C35 C36 1_555 1_555
C37 K1 1_555 1_555
C41 C42 1_555 1_555
C42 K1 1_555 1_555
C43 P4 1_555 1_555
C47 C48 1_555 1_555
C52 O1 1_555 1_555
C56 O2 1_555 1_555
N1 P2 1_555 1_555
N1 K1 1_555 1_555
N2 P4 1_555 1_555
N2 K1 1_555 1_555
O2 K2 1_555 1_555
P1 K2 1_555 1_555
P2 K2 1_555 1_555
P4 K2C 1_555 1_555
C25C P3C 1_555 1_555
C29C C30C 1_555 1_555
C31C P3C 1_555 1_555
C35C C36C 1_555 1_555
C37C P4C 1_555 1_555
C41C C42C 1_555 1_555
C42C K1C_2 1_555 1_555
C43C P4C 1_555 1_555
C47C C48C 1_555 1_555
N2C P4C 1_555 1_555
N2C K1C_2 1_555 1_555
C49C O1C 1_555 1_555
C52C O1C 1_555 1_555
C53C O2C 1_555 1_555
C56C O2C 1_555 1_555
C1C P1C 1_555 1_555
C2C K1C 1_555 1_555
C5C C6C 1_555 1_555
C7C P1C 1_555 1_555
C11C C12C 1_555 1_555
C13C P2C 1_555 1_555
C17C C18C 1_555 1_555
C19C P2C 1_555 1_555
C23C C24C 1_555 1_555
N1C P2C 1_555 1_555
N1C K1C 1_555 1_555
C1C_2 C2C_2 1_555 1_555
C58B C57B 1_555 1_555

#END
