
#######################################################################
#
#                 Cambridge Crystallographic Data Centre
#                                CCDC 
#
#######################################################################
#
# If this CIF has been generated from an entry in the Cambridge 
# Structural Database, then it will include bibliographic, chemical, 
# crystal, experimental, refinement or atomic coordinate data resulting 
# from the CCDC's data processing and validation procedures.
#
#######################################################################

data_AGUFAK
_symmetry_cell_setting           rhombohedral
_symmetry_space_group_name_H-M   'R 3'
_symmetry_Int_Tables_number      146
_space_group_name_Hall           'R 3'
loop_
_symmetry_equiv_pos_site_id
_symmetry_equiv_pos_as_xyz
1 x,y,z
2 1/3+x,2/3+y,2/3+z
3 2/3+x,1/3+y,1/3+z
4 -y,x-y,z
5 1/3-y,2/3+x-y,2/3+z
6 2/3-y,1/3+x-y,1/3+z
7 -x+y,-x,z
8 1/3-x+y,2/3-x,2/3+z
9 2/3-x+y,1/3-x,1/3+z
_cell_length_a                   25.7353(9)
_cell_length_b                   25.7353(9)
_cell_length_c                   7.5918(7)
_cell_angle_alpha                90
_cell_angle_beta                 90
_cell_angle_gamma                120
_cell_volume                     4354.46
loop_
_atom_site_label
_atom_site_type_symbol
_atom_site_fract_x
_atom_site_fract_y
_atom_site_fract_z
Cu1 Cu 0.136369(18) 0.203641(17) 0.56072(10)
N1 N 0.20046(13) 0.29698(13) 0.4207(4)
N2 N 0.07786(12) 0.16041(12) 0.3621(4)
N3 N 0.07911(12) 0.22978(13) 0.6472(4)
O1 O 0.32055(10) 0.48069(10) 0.1325(3)
O2 O 0.38186(10) 0.48174(11) 0.4421(3)
O3 O 0.07497(10) 0.10511(11) 0.7637(3)
C1 C 0.22669(14) 0.39507(15) 0.0754(4)
C2 C 0.28121(15) 0.42891(14) 0.1899(4)
C3 C 0.28857(14) 0.40048(16) 0.3418(4)
C4 C 0.33558(14) 0.42940(15) 0.4662(5)
C5 C 0.33307(16) 0.40148(16) 0.6391(5)
C6 C 0.23935(16) 0.34435(16) 0.3836(5)
C7 C 0.06161(14) 0.09720(14) 0.3365(5)
C8 C 0.10261(15) 0.19138(15) 0.1898(4)
C9 C 0.02371(16) 0.15989(15) 0.4073(5)
C10 C 0.03986(15) 0.22056(15) 0.4968(4)
C11 C 0.10764(16) 0.29065(17) 0.7293(5)
C12 C 0.05886(15) 0.30217(16) 0.8111(5)
H1 H 0.2303 0.4217 -0.0254
H2 H 0.2223 0.3567 0.0292
H3 H 0.1904 0.3861 0.1471
H4 H 0.0376 0.1014 0.7852
H5 H 0.0574 0.2046 0.7253
H6 H 0.0881 0.0944 0.8660
H7 H 0.3707 0.4278 0.7108
H8 H 0.3310 0.3616 0.6210
H9 H 0.2977 0.3958 0.7049
H10 H 0.0315 0.0788 0.2393
H11 H 0.0987 0.0960 0.3049
H12 H 0.0443 0.0741 0.4478
H13 H 0.0721 0.1716 0.0945
H14 H 0.1398 0.1904 0.1585
H15 H 0.1124 0.2340 0.2027
H16 H 0.0001 0.1548 0.2978
H17 H -0.0008 0.1262 0.4904
H18 H 0.0608 0.2543 0.4110
H19 H 0.0022 0.2187 0.5385
H20 H 0.1364 0.2935 0.8227
H21 H 0.1298 0.3216 0.6367
H22 H 0.0791 0.3432 0.8648
H23 H 0.0366 0.2716 0.9044
H24 H 0.0301 0.2997 0.7185
Cu1G Cu 0.400605(25) 0.530298(18) 0.22739(10)
O1E O 0.18598(10) 0.17319(14) 0.4658(3)
O2E O 0.18493(11) 0.23345(15) 0.7754(3)
O4 O 0.14024(11) 0.00840(10) 0.9054(3)
O5 O 0.16468(11) 0.10677(11) 0.9166(3)
O6 O 0.22152(11) 0.07654(11) 1.0689(3)
O7 O 0.2364(3) 0.0840(3) 0.8088(10)
Cl1 Cl 0.18809(4) 0.06800(4) 0.91444(13)
O8? O 0.2238(3) 0.0801(3) 0.7728(10)
loop_
_geom_bond_atom_site_label_1
_geom_bond_atom_site_label_2
_geom_bond_site_symmetry_1
_geom_bond_site_symmetry_2
Cu1 N1 1_555 1_555
N1 C6 1_555 1_555
N2 Cu1 1_555 1_555
N3 Cu1 1_555 1_555
O1 C2 1_555 1_555
O2 C4 1_555 1_555
O3 Cu1 1_555 1_555
O4 Cl1 1_555 1_555
O5 Cl1 1_555 1_555
O6 Cl1 1_555 1_555
O7 Cl1 1_555 1_555
C1 C2 1_555 1_555
C2 C3 1_555 1_555
C3 C4 1_555 1_555
C4 C5 1_555 1_555
C5 H7 1_555 1_555
C6 C3 1_555 1_555
C7 N2 1_555 1_555
C8 N2 1_555 1_555
C9 N2 1_555 1_555
C10 N3 1_555 1_555
C11 N3 1_555 1_555
C12 C11 1_555 1_555
H1 C1 1_555 1_555
H2 C1 1_555 1_555
H3 C1 1_555 1_555
H4 O3 1_555 1_555
H5 N3 1_555 1_555
H6 O3 1_555 1_555
H8 C5 1_555 1_555
H9 C5 1_555 1_555
H10 C7 1_555 1_555
H11 C7 1_555 1_555
H12 C7 1_555 1_555
H13 C8 1_555 1_555
H14 C8 1_555 1_555
H15 C8 1_555 1_555
H16 C9 1_555 1_555
H17 C9 1_555 1_555
H18 C10 1_555 1_555
H19 C10 1_555 1_555
H20 C11 1_555 1_555
H21 C11 1_555 1_555
H22 C12 1_555 1_555
H23 C12 1_555 1_555
H24 C12 1_555 1_555
Cu1G O1 1_555 1_555
O1E Cu1 1_555 1_555
O2E Cu1 1_555 1_555
O2 Cu1G 1_555 1_555
C9 C10 1_555 1_555

#END
