
#######################################################################
#
#                 Cambridge Crystallographic Data Centre
#                                CCDC 
#
#######################################################################
#
# If this CIF has been generated from an entry in the Cambridge 
# Structural Database, then it will include bibliographic, chemical, 
# crystal, experimental, refinement or atomic coordinate data resulting 
# from the CCDC's data processing and validation procedures.
#
#######################################################################

data_AGUGUF
_symmetry_cell_setting           monoclinic
_symmetry_space_group_name_H-M   'P 21/n'
_symmetry_Int_Tables_number      14
_space_group_name_Hall           '-P 2yn'
loop_
_symmetry_equiv_pos_site_id
_symmetry_equiv_pos_as_xyz
1 x,y,z
2 1/2-x,1/2+y,1/2-z
3 -x,-y,-z
4 1/2+x,1/2-y,1/2+z
_cell_length_a                   10.9537(8)
_cell_length_b                   17.3771(8)
_cell_length_c                   11.5776(7)
_cell_angle_alpha                90
_cell_angle_beta                 99.590(7)
_cell_angle_gamma                90
_cell_volume                     2172.92
loop_
_atom_site_label
_atom_site_type_symbol
_atom_site_fract_x
_atom_site_fract_y
_atom_site_fract_z
Gd1 Gd 0.20173(3) -0.005896(18) 0.19057(3)
C1 C -0.1071(6) 0.0567(4) 0.0946(5)
C2 C -0.1812(6) 0.0375(4) 0.1918(5)
C3 C -0.1228(6) 0.0693(4) 0.3111(5)
C4 C -0.1065(6) 0.1557(4) 0.3082(6)
C5 C -0.1892(6) 0.0330(4) 0.4066(6)
C6 C -0.1318(6) 0.0479(4) 0.5342(6)
C7 C -0.3306(6) 0.0412(4) 0.3858(6)
C8 C -0.3720(7) 0.1194(4) 0.4230(6)
C9 C -0.3822(6) 0.0120(4) 0.2607(5)
C10 C -0.5228(6) 0.0062(4) 0.2292(6)
C11 C -0.3230(6) 0.0485(4) 0.1627(5)
C12 C -0.3694(6) 0.1298(4) 0.1334(6)
O1 O 0.0072(4) 0.0521(3) 0.1174(4)
O2 O -0.1668(4) 0.0731(3) -0.0062(4)
O3 O -0.1368(5) 0.1926(3) 0.2199(5)
O4 O -0.0449(5) 0.1895(3) 0.4025(5)
O5 O -0.0366(5) 0.0897(3) 0.5584(4)
O6 O -0.1804(4) 0.0128(3) 0.6095(4)
O7 O -0.2983(5) 0.1708(3) 0.4551(5)
O8 O -0.4892(5) 0.1281(4) 0.4289(5)
O9 O -0.5898(4) 0.0187(3) 0.3072(4)
O10 O -0.5707(4) -0.0162(3) 0.1299(4)
O11 O -0.4320(5) 0.1649(3) 0.1932(5)
O12 O -0.3445(5) 0.1604(3) 0.0357(5)
O13 O 0.2032(6) 0.1249(3) 0.2732(5)
O14 O 0.2292(5) 0.0880(3) 0.0421(5)
O15 O 0.0397(5) -0.0990(3) 0.2037(4)
O16 O 0.2896(5) -0.1332(3) 0.2294(5)
H1 H -0.174(6) -0.016(4) 0.201(5)
H2 H -0.043(7) 0.050(4) 0.331(6)
H3 H -0.173(6) -0.020(4) 0.401(6)
H4 H -0.361(7) 0.008(4) 0.443(6)
H5 H -0.362(6) -0.041(4) 0.265(5)
H6 H -0.347(6) 0.023(4) 0.093(6)
H7 H -0.053(13) 0.156(8) 0.458(13)
H8 H -0.528(10) 0.091(6) 0.392(9)
H9 H -0.304(9) 0.133(6) 0.010(9)
Gd1B Gd -0.20173(3) 0.005896(18) -0.19057(3)
Gd1B_2 Gd -0.20173(3) 0.005896(18) 0.80943(3)
Gd1_2 Gd -0.79827(3) -0.005896(18) 0.19057(3)
O2B O 0.1668(4) -0.0731(3) 0.0062(4)
O6B O 0.1804(4) -0.0128(3) 0.3905(4)
O9_2 O 0.4102(4) 0.0187(3) 0.3072(4)
O10_2 O 0.4293(4) -0.0162(3) 0.1299(4)
O17 O 0.3990(6) 0.1457(4) -0.0850(5)
O18 O 0.0487(7) 0.1971(4) -0.0190(6)
O19 O 0.1683(6) -0.2541(4) 0.3325(6)
O20 O 0.5194(6) -0.1706(4) 0.3318(6)
O21 O -0.1831(7) -0.1722(4) 0.2663(7)
O22 O 0.2422(7) 0.1797(5) 0.5014(7)
loop_
_geom_bond_atom_site_label_1
_geom_bond_atom_site_label_2
_geom_bond_site_symmetry_1
_geom_bond_site_symmetry_2
Gd1 O1 1_555 1_555
C1 C2 1_555 1_555
C2 C3 1_555 1_555
C3 C4 1_555 1_555
C4 O3 1_555 1_555
C5 C3 1_555 1_555
C6 C5 1_555 1_555
C7 C5 1_555 1_555
C8 C7 1_555 1_555
C9 C7 1_555 1_555
C10 C9 1_555 1_555
C11 C2 1_555 1_555
C12 C11 1_555 1_555
O1 C1 1_555 1_555
O2 C1 1_555 1_555
O4 C4 1_555 1_555
O5 C6 1_555 1_555
O6 C6 1_555 1_555
O7 C8 1_555 1_555
O8 C8 1_555 1_555
O9 C10 1_555 1_555
O10 C10 1_555 1_555
O11 C12 1_555 1_555
O12 C12 1_555 1_555
O13 Gd1 1_555 1_555
O14 Gd1 1_555 1_555
O15 Gd1 1_555 1_555
O16 Gd1 1_555 1_555
H1 C2 1_555 1_555
H2 C3 1_555 1_555
H3 C5 1_555 1_555
H4 C7 1_555 1_555
H5 C9 1_555 1_555
H6 C11 1_555 1_555
H7 O4 1_555 1_555
H8 O8 1_555 1_555
H9 O12 1_555 1_555
Gd1B O2 1_555 1_555
Gd1B_2 O6 1_555 1_555
Gd1_2 O9 1_555 1_555
O2B Gd1 1_555 1_555
O6B Gd1 1_555 1_555
O9_2 Gd1 1_555 1_555
O10_2 Gd1 1_555 1_555
C9 C11 1_555 1_555
O10 Gd1_2 1_555 1_555

#END
