
#######################################################################
#
#                 Cambridge Crystallographic Data Centre
#                                CCDC 
#
#######################################################################
#
# If this CIF has been generated from an entry in the Cambridge 
# Structural Database, then it will include bibliographic, chemical, 
# crystal, experimental, refinement or atomic coordinate data resulting 
# from the CCDC's data processing and validation procedures.
#
#######################################################################

data_AGUHEQ
_symmetry_cell_setting           monoclinic
_symmetry_space_group_name_H-M   'P 21/c'
_symmetry_Int_Tables_number      14
_space_group_name_Hall           '-P 2ybc'
loop_
_symmetry_equiv_pos_site_id
_symmetry_equiv_pos_as_xyz
1 x,y,z
2 -x,1/2+y,1/2-z
3 -x,-y,-z
4 x,1/2-y,1/2+z
_cell_length_a                   15.628(3)
_cell_length_b                   6.6352(13)
_cell_length_c                   15.697(3)
_cell_angle_alpha                90
_cell_angle_beta                 102.45(3)
_cell_angle_gamma                90
_cell_volume                     1589.42
loop_
_atom_site_label
_atom_site_type_symbol
_atom_site_fract_x
_atom_site_fract_y
_atom_site_fract_z
V1 V 0.14081(4) -0.01493(8) 0.20515(4)
C1 C 0.2796(2) 0.2196(5) 0.1664(2)
O1 O 0.19460(15) 0.2209(3) 0.15918(18)
C2 C 0.3219(2) 0.3847(5) 0.1276(2)
C3 C 0.2718(3) 0.5440(5) 0.0850(3)
H1 H 0.212(3) 0.542(5) 0.079(3)
C4 C 0.3097(3) 0.7012(7) 0.0494(3)
H2 H 0.277(3) 0.805(7) 0.023(3)
C5 C 0.3990(4) 0.7017(8) 0.0562(4)
H3 H 0.427(3) 0.800(8) 0.036(3)
C6 C 0.4493(4) 0.5476(9) 0.0974(4)
H4 H 0.508(3) 0.541(6) 0.102(3)
C7 C 0.4124(3) 0.3874(7) 0.1332(3)
O2 O 0.4666(2) 0.2382(6) 0.1723(3)
H5 H 0.432(3) 0.168(8) 0.196(3)
N1 N 0.27820(18) -0.0620(4) 0.2415(2)
N2 N 0.32955(19) 0.0778(4) 0.2085(2)
C8 C 0.1917(2) -0.3599(6) 0.3276(3)
O3 O 0.13929(16) -0.2062(4) 0.2947(2)
C9 C 0.1567(3) -0.5145(6) 0.3714(3)
H6 H 0.099(3) -0.508(5) 0.373(3)
C10 C 0.2091(3) -0.6742(6) 0.4075(3)
H7 H 0.186(3) -0.779(7) 0.436(3)
C11 C 0.2958(3) -0.6842(6) 0.4029(3)
H8 H 0.331(3) -0.769(7) 0.428(3)
C12 C 0.3317(3) -0.5345(6) 0.3612(3)
H9 H 0.389(3) -0.533(5) 0.357(2)
C13 C 0.2801(2) -0.3701(5) 0.3225(2)
C14 C 0.3207(2) -0.2133(5) 0.2819(3)
H10 H 0.383(3) -0.212(6) 0.284(3)
O4 O 0.10364(19) -0.1404(4) 0.1157(2)
O5 O 0.06230(16) 0.1242(4) 0.2275(2)
K1 K 0.02177(7) 0.48489(13) 0.15318(7)
O6 O -0.0390(3) 0.7267(5) -0.0077(2)
H11 H 0.006(5) 0.783(13) 0.011(5)
O3_2 O 0.13929(16) 0.7938(4) 0.2947(2)
O3A O -0.13929(16) 0.2938(4) 0.2053(2)
O4_2 O 0.10364(19) 0.8596(4) 0.1157(2)
O5A O -0.06230(16) 0.6242(4) 0.2725(2)
K1_2 K 0.02177(7) -0.51511(13) 0.15318(7)
K1A K -0.02177(7) -0.01511(13) 0.34682(7)
K1B K -0.02177(7) 0.51511(13) -0.15318(7)
O6B O 0.0390(3) 0.2733(5) 0.0077(2)
H11B H -0.006(5) 0.217(13) -0.011(5)
loop_
_geom_bond_atom_site_label_1
_geom_bond_atom_site_label_2
_geom_bond_site_symmetry_1
_geom_bond_site_symmetry_2
V1 O1 1_555 1_555
C1 O1 1_555 1_555
O1 K1 1_555 1_555
C2 C1 1_555 1_555
C3 C2 1_555 1_555
H1 C3 1_555 1_555
C4 C3 1_555 1_555
H2 C4 1_555 1_555
C5 C4 1_555 1_555
H3 C5 1_555 1_555
C6 C5 1_555 1_555
H4 C6 1_555 1_555
C7 C2 1_555 1_555
O2 C7 1_555 1_555
H5 O2 1_555 1_555
N1 V1 1_555 1_555
N2 C1 1_555 1_555
C8 O3 1_555 1_555
O3 V1 1_555 1_555
C9 C8 1_555 1_555
H6 C9 1_555 1_555
C10 C9 1_555 1_555
H7 C10 1_555 1_555
C11 C10 1_555 1_555
H8 C11 1_555 1_555
C12 C11 1_555 1_555
H9 C12 1_555 1_555
C13 C8 1_555 1_555
C14 N1 1_555 1_555
H10 C14 1_555 1_555
O4 V1 1_555 1_555
O5 V1 1_555 1_555
K1 O5 1_555 1_555
O6 K1 1_555 1_555
H11 O6 1_555 1_555
O3_2 K1 1_555 1_555
O3A K1 1_555 1_555
O4_2 K1 1_555 1_555
O5A K1 1_555 1_555
K1_2 O3 1_555 1_555
K1A O3 1_555 1_555
K1B O6 1_555 1_555
O6B K1 1_555 1_555
H11B O6B 1_555 1_555
C6 C7 1_555 1_555
N1 N2 1_555 1_555
C12 C13 1_555 1_555
C13 C14 1_555 1_555
O4 K1_2 1_555 1_555
O5 K1A 1_555 1_555
O3A K1A 1_555 1_555
K1B O6B 1_555 1_555

#END
