
#######################################################################
#
#                 Cambridge Crystallographic Data Centre
#                                CCDC 
#
#######################################################################
#
# If this CIF has been generated from an entry in the Cambridge 
# Structural Database, then it will include bibliographic, chemical, 
# crystal, experimental, refinement or atomic coordinate data resulting 
# from the CCDC's data processing and validation procedures.
#
#######################################################################

data_AGUHAM
_symmetry_cell_setting           orthorhombic
_symmetry_space_group_name_H-M   'P b c a'
_symmetry_Int_Tables_number      61
_space_group_name_Hall           '-P 2ac 2ab'
loop_
_symmetry_equiv_pos_site_id
_symmetry_equiv_pos_as_xyz
1 x,y,z
2 1/2-x,-y,1/2+z
3 1/2+x,1/2-y,-z
4 -x,1/2+y,1/2-z
5 -x,-y,-z
6 1/2+x,y,1/2-z
7 1/2-x,1/2+y,z
8 x,1/2-y,1/2+z
_cell_length_a                   6.9527(18)
_cell_length_b                   14.714(4)
_cell_length_c                   36.882(9)
_cell_angle_alpha                90
_cell_angle_beta                 90
_cell_angle_gamma                90
_cell_volume                     3773.1
loop_
_atom_site_label
_atom_site_type_symbol
_atom_site_fract_x
_atom_site_fract_y
_atom_site_fract_z
V1 V 0.53363(19) 0.28928(10) 0.14816(3)
N1 N 0.4246(10) 0.2476(5) 0.07172(16)
H1 H 0.4252 0.2401 0.0486
N2 N 0.5645(9) 0.2932(4) 0.09120(15)
O1 O 0.4124(9) 0.3375(5) 0.18038(16)
O2 O 0.6466(10) 0.2011(5) 0.16462(16)
O3 O 0.7272(9) 0.3796(4) 0.14568(13)
O4 O 0.3024(8) 0.2296(4) 0.12831(13)
O5 O 0.2575(13) 0.1806(6) 0.01683(16)
C1 C 0.8737(12) 0.3962(5) 0.1227(2)
C2 C 1.0330(13) 0.4421(6) 0.1348(2)
H2 H 1.0429 0.4569 0.1593
C3 C 1.1784(13) 0.4668(7) 0.1114(2)
H3 H 1.2833 0.4995 0.1201
C4 C 1.1695(14) 0.4434(7) 0.0757(3)
H4 H 1.2689 0.4596 0.0601
C5 C 1.0148(13) 0.3961(6) 0.0626(2)
H5 H 1.0095 0.3802 0.0383
C6 C 0.8631(12) 0.3715(5) 0.0861(2)
C7 C 0.7059(13) 0.3238(6) 0.0716(2)
H6 H 0.7028 0.3137 0.0467
C8 C 0.2926(11) 0.2178(5) 0.09349(19)
C9 C 0.1250(12) 0.1716(6) 0.0775(2)
C10 C 0.1156(15) 0.1562(7) 0.0400(2)
C11 C -0.0437(17) 0.1127(8) 0.0259(3)
H7 H -0.0500 0.1017 0.0011
C12 C -0.1908(16) 0.0857(7) 0.0474(3)
H8 H -0.2978 0.0574 0.0373
C13 C -0.1815(14) 0.1005(6) 0.0848(3)
H9 H -0.2806 0.0812 0.0999
C14 C -0.0268(12) 0.1432(6) 0.0986(2)
H10 H -0.0222 0.1538 0.1235
Na1 Na 0.1836(4) 0.5508(2) 0.24944(8)
O6 O 0.4320(9) 0.4366(4) 0.24704(16)
O7 O 0.4349(9) 0.6619(4) 0.25900(14)
O8 O 0.2617(10) 0.5836(5) 0.18846(15)
O9 O 0.1579(9) 0.5428(4) 0.31474(15)
Na1E Na 0.6836(4) 0.5508(2) 0.25056(8)
O6E O -0.0680(9) 0.4366(4) 0.25296(16)
O7E O -0.0651(9) 0.6619(4) 0.24100(14)
O10 O 0.4757(10) 0.7941(5) 0.20316(17)
loop_
_geom_bond_atom_site_label_1
_geom_bond_atom_site_label_2
_geom_bond_site_symmetry_1
_geom_bond_site_symmetry_2
V1 N2 1_555 1_555
N1 H1 1_555 1_555
N2 N1 1_555 1_555
O1 V1 1_555 1_555
O2 V1 1_555 1_555
O3 V1 1_555 1_555
O4 V1 1_555 1_555
O5 C10 1_555 1_555
C1 O3 1_555 1_555
C2 C1 1_555 1_555
H2 C2 1_555 1_555
C3 C2 1_555 1_555
H3 C3 1_555 1_555
C4 C3 1_555 1_555
H4 C4 1_555 1_555
C5 C4 1_555 1_555
H5 C5 1_555 1_555
C6 C1 1_555 1_555
C7 N2 1_555 1_555
H6 C7 1_555 1_555
C8 N1 1_555 1_555
C9 C8 1_555 1_555
C10 C9 1_555 1_555
C11 C10 1_555 1_555
H7 C11 1_555 1_555
C12 C11 1_555 1_555
H8 C12 1_555 1_555
C13 C12 1_555 1_555
H9 C13 1_555 1_555
C14 C9 1_555 1_555
H10 C14 1_555 1_555
Na1 O6 1_555 1_555
O6 Na1E 1_555 1_555
O7 Na1 1_555 1_555
O8 Na1 1_555 1_555
O9 Na1 1_555 1_555
Na1E O7 1_555 1_555
O6E Na1 1_555 1_555
O7E Na1 1_555 1_555
O4 C8 1_555 1_555
C5 C6 1_555 1_555
C6 C7 1_555 1_555
C13 C14 1_555 1_555

#END
