
#######################################################################
#
#                 Cambridge Crystallographic Data Centre
#                                CCDC 
#
#######################################################################
#
# If this CIF has been generated from an entry in the Cambridge 
# Structural Database, then it will include bibliographic, chemical, 
# crystal, experimental, refinement or atomic coordinate data resulting 
# from the CCDC's data processing and validation procedures.
#
#######################################################################

data_AGULAQ
_symmetry_cell_setting           monoclinic
_symmetry_space_group_name_H-M   'P 21/n'
_symmetry_Int_Tables_number      14
_space_group_name_Hall           '-P 2yn'
loop_
_symmetry_equiv_pos_site_id
_symmetry_equiv_pos_as_xyz
1 x,y,z
2 1/2-x,1/2+y,1/2-z
3 -x,-y,-z
4 1/2+x,1/2-y,1/2+z
_cell_length_a                   10.3259(1)
_cell_length_b                   9.1606(1)
_cell_length_c                   11.3351(1)
_cell_angle_alpha                90
_cell_angle_beta                 101.970(1)
_cell_angle_gamma                90
_cell_volume                     1048.89
loop_
_atom_site_label
_atom_site_type_symbol
_atom_site_fract_x
_atom_site_fract_y
_atom_site_fract_z
Mn1 Mn 0.58965(2) 0.45541(2) 0.137126(18)
O1 O 0.43272(13) 0.47608(17) 0.23151(12)
O2 O 0.23526(14) 0.37404(17) 0.16403(12)
O3 O -0.30240(11) 0.57659(12) 0.29237(9)
O4 O -0.14883(12) 0.74755(11) 0.29442(10)
O5 O -0.01704(10) 0.14422(10) 0.46917(9)
O6 O 0.77042(12) 0.48600(15) 0.06291(11)
H1 H 0.8310(18) 0.425(2) 0.0662(18)
H2 H 0.767(2) 0.531(2) 0.0001(15)
N1 N 0.15013(12) 0.44855(13) 0.36961(11)
C1 C 0.05227(15) 0.54504(15) 0.33486(13)
H5 H 0.0704 0.6368 0.3071
C2 C -0.07605(14) 0.50716(16) 0.34060(12)
C3 C -0.10157(14) 0.37107(15) 0.38351(12)
H6 H -0.1879 0.3452 0.3865
C4 C 0.00243(15) 0.27142(15) 0.42281(12)
C5 C 0.12865(15) 0.31528(16) 0.41178(13)
H7 H 0.1994 0.2512 0.4340
C6 C -0.18491(15) 0.61910(15) 0.30547(12)
C7 C 0.28611(15) 0.48733(19) 0.35935(15)
H8 H 0.3483 0.4420 0.4250
H9 H 0.2971 0.5923 0.3676
C8 C 0.31900(17) 0.43967(17) 0.23970(15)
Mn1_2 Mn -0.41035(2) 0.45541(2) 0.137126(18)
Mn1A Mn -0.08965(2) 0.95541(2) 0.362874(18)
Mn1A_2 Mn -0.08965(2) -0.04459(2) 0.362874(18)
Mn1C Mn 0.08965(2) 0.04459(2) 0.637126(18)
O3_2 O 0.69760(11) 0.57659(12) 0.29237(9)
O4A O 0.64883(12) 0.24755(11) 0.20558(10)
O5A O 0.51704(10) 0.64422(10) 0.03083(9)
O5C O 0.48296(10) 0.35578(10) -0.03083(9)
O7 O -0.03900(15) 0.27287(17) 0.09115(13)
H3 H -0.060(2) 0.214(2) 0.1362(19)
H4 H 0.0379(17) 0.296(3) 0.117(2)
loop_
_geom_bond_atom_site_label_1
_geom_bond_atom_site_label_2
_geom_bond_site_symmetry_1
_geom_bond_site_symmetry_2
Mn1 O1 1_555 1_555
O1 C8 1_555 1_555
O2 C8 1_555 1_555
O3 C6 1_555 1_555
O4 C6 1_555 1_555
O5 C4 1_555 1_555
O6 Mn1 1_555 1_555
H1 O6 1_555 1_555
H2 O6 1_555 1_555
O7 H3 1_555 1_555
H4 O7 1_555 1_555
N1 C1 1_555 1_555
C1 H5 1_555 1_555
C2 C1 1_555 1_555
C3 C2 1_555 1_555
H6 C3 1_555 1_555
C4 C3 1_555 1_555
C5 N1 1_555 1_555
H7 C5 1_555 1_555
C6 C2 1_555 1_555
C7 N1 1_555 1_555
H8 C7 1_555 1_555
H9 C7 1_555 1_555
C8 C7 1_555 1_555
Mn1_2 O3 1_555 1_555
Mn1A O4 1_555 1_555
Mn1A_2 O5 1_555 1_555
Mn1C O5 1_555 1_555
O3_2 Mn1 1_555 1_555
O4A Mn1 1_555 1_555
O5A Mn1 1_555 1_555
O5C Mn1 1_555 1_555
C4 C5 1_555 1_555

#END
