
#######################################################################
#
#                 Cambridge Crystallographic Data Centre
#                                CCDC 
#
#######################################################################
#
# If this CIF has been generated from an entry in the Cambridge 
# Structural Database, then it will include bibliographic, chemical, 
# crystal, experimental, refinement or atomic coordinate data resulting 
# from the CCDC's data processing and validation procedures.
#
#######################################################################

data_AGULIY
_symmetry_cell_setting           triclinic
_symmetry_space_group_name_H-M   'P -1'
_symmetry_Int_Tables_number      2
_space_group_name_Hall           '-P 1'
loop_
_symmetry_equiv_pos_site_id
_symmetry_equiv_pos_as_xyz
1 x,y,z
2 -x,-y,-z
_cell_length_a                   7.3163(7)
_cell_length_b                   7.6838(7)
_cell_length_c                   17.9429(16)
_cell_angle_alpha                83.251(2)
_cell_angle_beta                 82.728(2)
_cell_angle_gamma                81.003(2)
_cell_volume                     983.343
loop_
_atom_site_label
_atom_site_type_symbol
_atom_site_fract_x
_atom_site_fract_y
_atom_site_fract_z
Cu1 Cu 0.18324(6) 0.23761(6) 0.38549(2)
Cu2 Cu 0.0000 0.5000 0.5000
Cu3 Cu 0.19680(6) 0.86729(5) 0.03810(2)
Cu4 Cu 0.5000 0.5000 0.0000
O1 O 0.3633(5) 0.3764(5) 0.4501(2)
H1 H 0.3932 0.4778 0.4350
H2 H 0.4356 0.3222 0.4811
O2 O 0.2860(5) 0.3628(4) -0.07459(18)
H3 H 0.2048 0.4533 -0.0803
H4 H 0.2475 0.2888 -0.0398
O3 O -0.0362(4) 0.3064(4) 0.44967(14)
H5 H -0.0640 0.2184 0.4791
O4 O 0.2690(3) 0.6233(3) 0.04071(14)
H6 H 0.1983 0.5503 0.0611
O5 O 0.1068(4) 1.1195(3) 0.03505(14)
O6 O 0.0037(4) 1.3366(4) 0.10831(16)
O7 O 0.0072(4) 0.6503(4) 0.40222(13)
O8 O 0.1482(3) 0.4634(3) 0.31859(13)
O9 O 0.2335(4) 0.0038(4) 0.44077(14)
O10 O 0.4113(4) -0.2575(4) 0.43587(15)
O11 O 0.6744(4) 0.0801(3) 0.06177(14)
O12 O 0.4713(4) 0.3216(4) 0.08670(15)
N1 N 0.1022(4) 0.8749(4) 0.14750(15)
N2 N 0.3545(4) 0.1201(4) 0.30502(15)
C1 C 0.0267(4) 1.0399(4) 0.16487(19)
C2 C -0.0527(5) 1.0712(5) 0.23801(19)
C3 C -0.0398(5) 0.9272(5) 0.29266(19)
H7 H -0.0896 0.9432 0.3421
C4 C 0.0449(4) 0.7614(5) 0.27562(18)
C5 C 0.1116(5) 0.7388(5) 0.20089(19)
H8 H 0.1637 0.6266 0.1879
C6 C 0.0442(5) 1.1797(5) 0.0994(2)
C7 C -0.1486(6) 1.2490(5) 0.2582(2)
H9 H -0.2078 1.2381 0.3091
H10 H -0.2407 1.2935 0.2244
H11 H -0.0588 1.3293 0.2540
C8 C 0.0674(5) 0.6117(5) 0.33751(19)
C9 C 0.4157(5) -0.0538(5) 0.32584(19)
C10 C 0.5216(5) -0.1641(5) 0.2758(2)
C11 C 0.5638(5) -0.0886(5) 0.2022(2)
H12 H 0.6336 -0.1583 0.1667
C12 C 0.5041(4) 0.0869(5) 0.18120(18)
C13 C 0.3967(5) 0.1884(5) 0.23451(18)
H13 H 0.3535 0.3066 0.2205
C14 C 0.3503(5) -0.1096(5) 0.4073(2)
C15 C 0.5887(6) -0.3570(5) 0.2948(2)
H14 H 0.6524 -0.3720 0.3392
H15 H 0.4842 -0.4212 0.3039
H16 H 0.6724 -0.4013 0.2534
C16 C 0.5537(5) 0.1705(5) 0.10269(19)
Cu1A Cu -0.18324(6) 0.76239(6) 0.61451(2)
Cu1A_2 Cu 0.81676(6) 0.76239(6) -0.38549(2)
Cu3A Cu -0.19680(6) 0.13271(5) 0.96190(2)
Cu3A_2 Cu 0.80320(6) 0.13271(5) -0.03810(2)
Cu4_2 Cu -0.5000 0.5000 1.0000
O1A O -0.3633(5) 0.6236(5) 0.5499(2)
H1A H -0.3932 0.5222 0.5650
H2A H -0.4356 0.6778 0.5189
O2A O 0.7140(5) 0.6372(4) 0.07459(18)
H3A H 0.7952 0.5467 0.0803
H4A H 0.7525 0.7112 0.0398
O3A O 0.0362(4) 0.6936(4) 0.55033(14)
H5A H 0.0640 0.7816 0.5209
O4A O -0.2690(3) 0.3767(3) 0.95929(14)
O4A_2 O 0.7310(3) 0.3767(3) -0.04071(14)
H6A H -0.1983 0.4497 0.9389
H6A_2 H 0.8017 0.4497 -0.0611
O5A O -0.1068(4) -0.1195(3) 0.96495(14)
O6A O -0.0037(4) -0.3366(4) 0.89169(16)
O7A O -0.0072(4) 0.3497(4) 0.59778(13)
O8A O -0.1482(3) 0.5366(3) 0.68141(13)
O9A O 0.7665(4) 0.9962(4) -0.44077(14)
O9A_2 O -0.2335(4) 0.9962(4) 0.55923(14)
O10A O 0.5887(4) 1.2575(4) -0.43587(15)
O11A O 0.3256(4) 0.9199(3) -0.06177(14)
O11_2 O -0.3256(4) 0.0801(3) 1.06177(14)
O12A O 0.5287(4) 0.6784(4) -0.08670(15)
N1A N -0.1022(4) 0.1251(4) 0.85250(15)
N2A N 0.6455(4) 0.8799(4) -0.30502(15)
N2A_2 N -0.3545(4) 0.8799(4) 0.69498(15)
C1A C -0.0267(4) -0.0399(4) 0.83513(19)
C2A C 0.0527(5) -0.0712(5) 0.76199(19)
C3A C 0.0398(5) 0.0728(5) 0.70734(19)
H7A H 0.0896 0.0568 0.6579
C4A C -0.0449(4) 0.2386(5) 0.72438(18)
C5A C -0.1116(5) 0.2612(5) 0.79911(19)
H8A H -0.1637 0.3734 0.8121
C6A C -0.0442(5) -0.1797(5) 0.9006(2)
C7A C 0.1486(6) -0.2490(5) 0.7418(2)
H9A H 0.2078 -0.2381 0.6909
H10A H 0.2407 -0.2935 0.7756
H11A H 0.0588 -0.3293 0.7460
C8A C -0.0674(5) 0.3883(5) 0.66249(19)
C9A C 0.5843(5) 1.0538(5) -0.32584(19)
C10A C 0.4784(5) 1.1641(5) -0.2758(2)
C11A C 0.4362(5) 1.0886(5) -0.2022(2)
H12A H 0.3664 1.1583 -0.1667
C12A C 0.4959(4) 0.9131(5) -0.18120(18)
C13A C 0.6033(5) 0.8116(5) -0.23451(18)
H13A H 0.6465 0.6934 -0.2205
C14A C 0.6497(5) 1.1096(5) -0.4073(2)
C15A C 0.4113(6) 1.3570(5) -0.2948(2)
H14A H 0.3476 1.3720 -0.3392
H15A H 0.5158 1.4212 -0.3039
H16A H 0.3276 1.4013 -0.2534
C16A C 0.4463(5) 0.8295(5) -0.10269(19)
loop_
_geom_bond_atom_site_label_1
_geom_bond_atom_site_label_2
_geom_bond_site_symmetry_1
_geom_bond_site_symmetry_2
Cu1 O1 1_555 1_555
Cu2 O3 1_555 1_555
Cu3 O4 1_555 1_555
Cu4 O2 1_555 1_555
O1 H1 1_555 1_555
H2 O1 1_555 1_555
O2 H3 1_555 1_555
H4 O2 1_555 1_555
O3 Cu1 1_555 1_555
H5 O3 1_555 1_555
O4 Cu4 1_555 1_555
H6 O4 1_555 1_555
O5 Cu3 1_555 1_555
O6 C6 1_555 1_555
O7 Cu2 1_555 1_555
O8 Cu1 1_555 1_555
O9 Cu1 1_555 1_555
O10 C14 1_555 1_555
O11 C16 1_555 1_555
O12 Cu4 1_555 1_555
N1 Cu3 1_555 1_555
N2 Cu1 1_555 1_555
C1 N1 1_555 1_555
C2 C1 1_555 1_555
C3 C2 1_555 1_555
H7 C3 1_555 1_555
C4 C3 1_555 1_555
C5 N1 1_555 1_555
H8 C5 1_555 1_555
C6 O5 1_555 1_555
C7 C2 1_555 1_555
H9 C7 1_555 1_555
H10 C7 1_555 1_555
H11 C7 1_555 1_555
C8 O7 1_555 1_555
C9 N2 1_555 1_555
C10 C9 1_555 1_555
C11 C10 1_555 1_555
H12 C11 1_555 1_555
C12 C11 1_555 1_555
C13 N2 1_555 1_555
H13 C13 1_555 1_555
C14 O9 1_555 1_555
C15 C10 1_555 1_555
H14 C15 1_555 1_555
H15 C15 1_555 1_555
H16 C15 1_555 1_555
C16 O12 1_555 1_555
Cu1A O1A 1_555 1_555
Cu1A_2 O9A 1_555 1_555
Cu3A O4A 1_555 1_555
Cu3A_2 O11 1_555 1_555
Cu4_2 O4A 1_555 1_555
O1A H1A 1_555 1_555
H2A O1A 1_555 1_555
O2A Cu4 1_555 1_555
H3A O2A 1_555 1_555
H4A O2A 1_555 1_555
O3A Cu2 1_555 1_555
H5A O3A 1_555 1_555
O4A H6A 1_555 1_555
O4A_2 Cu4 1_555 1_555
H6A_2 O4A_2 1_555 1_555
O5A Cu3A 1_555 1_555
O6A C6A 1_555 1_555
O7A Cu2 1_555 1_555
O8A Cu1A 1_555 1_555
O9A C14A 1_555 1_555
O9A_2 Cu1A 1_555 1_555
O10A C14A 1_555 1_555
O11A Cu3 1_555 1_555
O11_2 Cu3A 1_555 1_555
O12A Cu4 1_555 1_555
N1A Cu3A 1_555 1_555
N2A Cu1A_2 1_555 1_555
N2A_2 Cu1A 1_555 1_555
C1A N1A 1_555 1_555
C2A C1A 1_555 1_555
C3A C2A 1_555 1_555
H7A C3A 1_555 1_555
C4A C3A 1_555 1_555
C5A N1A 1_555 1_555
H8A C5A 1_555 1_555
C6A O5A 1_555 1_555
C7A C2A 1_555 1_555
H9A C7A 1_555 1_555
H10A C7A 1_555 1_555
H11A C7A 1_555 1_555
C8A O7A 1_555 1_555
C9A N2A 1_555 1_555
C10A C9A 1_555 1_555
C11A C10A 1_555 1_555
H12A C11A 1_555 1_555
C12A C11A 1_555 1_555
C13A N2A 1_555 1_555
H13A C13A 1_555 1_555
C14A C9A 1_555 1_555
C15A C10A 1_555 1_555
H14A C15A 1_555 1_555
H15A C15A 1_555 1_555
H16A C15A 1_555 1_555
C16A O11A 1_555 1_555
O8 C8 1_555 1_555
C1 C6 1_555 1_555
C4 C5 1_555 1_555
C4 C8 1_555 1_555
C9 C14 1_555 1_555
C12 C13 1_555 1_555
C12 C16 1_555 1_555
Cu1A O3A 1_555 1_555
Cu3A_2 O4A_2 1_555 1_555
O8A C8A 1_555 1_555
O12A C16A 1_555 1_555
C1A C6A 1_555 1_555
C4A C5A 1_555 1_555
C4A C8A 1_555 1_555
C12A C13A 1_555 1_555
C12A C16A 1_555 1_555

#END
