
#######################################################################
#
#                 Cambridge Crystallographic Data Centre
#                                CCDC 
#
#######################################################################
#
# If this CIF has been generated from an entry in the Cambridge 
# Structural Database, then it will include bibliographic, chemical, 
# crystal, experimental, refinement or atomic coordinate data resulting 
# from the CCDC's data processing and validation procedures.
#
#######################################################################

data_AGULOE
_symmetry_cell_setting           triclinic
_symmetry_space_group_name_H-M   'P -1'
_symmetry_Int_Tables_number      2
_space_group_name_Hall           '-P 1'
loop_
_symmetry_equiv_pos_site_id
_symmetry_equiv_pos_as_xyz
1 x,y,z
2 -x,-y,-z
_cell_length_a                   7.6284(11)
_cell_length_b                   11.058(2)
_cell_length_c                   11.284(5)
_cell_angle_alpha                102.71(3)
_cell_angle_beta                 105.21(2)
_cell_angle_gamma                106.870(16)
_cell_volume                     832.56
loop_
_atom_site_label
_atom_site_type_symbol
_atom_site_fract_x
_atom_site_fract_y
_atom_site_fract_z
Cu1 Cu 0.04544(14) 0.65614(9) 0.73873(9)
Cu2 Cu 0.52307(14) 1.43359(9) 1.26605(9)
O1 O -0.1022(8) 0.4681(5) 0.6512(5)
H1 H -0.1620 0.4436 0.5699
H2 H -0.1806 0.4383 0.6885
O2 O 0.3294(8) 1.3367(5) 1.3295(5)
H3 H 0.3586 1.3557 1.4112
H4 H 0.2979 1.2531 1.2975
O3 O 0.1746(8) 0.6623(5) 0.6116(5)
O4 O 0.3540(9) 0.8083(6) 0.5387(6)
O5 O 0.4521(8) 1.2810(5) 1.1155(5)
O6 O 0.2480(9) 1.1114(5) 1.1521(6)
O7 O -0.1342(9) 0.7909(5) 1.5089(6)
O8 O -0.3644(8) 0.5886(5) 1.4187(5)
O9 O -0.2721(8) 0.4701(5) 0.8342(5)
O10 O -0.0008(8) 0.6547(5) 0.8993(5)
N1 N 0.1928(9) 0.8506(6) 0.8064(6)
N2 N -0.2959(9) 0.5507(6) 1.2029(6)
C1 C 0.2925(11) 0.8959(7) 0.7326(7)
C2 C 0.4088(11) 1.0299(8) 0.7621(8)
C3 C 0.4186(11) 1.1151(8) 0.8802(7)
H5 H 0.4947 1.2076 0.9065
C4 C 0.3216(12) 1.0683(8) 0.9578(7)
C5 C 0.2072(12) 0.9352(8) 0.9168(7)
H6 H 0.1364 0.9021 0.9681
C6 C 0.2760(12) 0.7846(8) 0.6168(8)
C7 C 0.5079(12) 1.0862(8) 0.6778(7)
H7 H 0.5911 1.0378 0.6577
H8 H 0.5885 1.1808 0.7233
H9 H 0.4093 1.0771 0.5972
C8 C 0.3373(11) 1.1603(7) 1.0839(7)
C9 C -0.1942(10) 0.6740(7) 1.2901(7)
C10 C -0.0694(11) 0.7752(7) 1.2618(7)
C11 C -0.0503(11) 0.7399(8) 1.1395(8)
H10 H 0.0334 0.8055 1.1165
C12 C -0.1509(11) 0.6113(8) 1.0511(7)
C13 C -0.2767(11) 0.5182(8) 1.0874(7)
H11 H -0.3497 0.4304 1.0285
C14 C -0.2278(12) 0.6912(7) 1.4183(8)
C15 C 0.0325(11) 0.9184(7) 1.3487(7)
H12 H -0.0614 0.9496 1.3781
H13 H 0.0866 0.9739 1.3004
H14 H 0.1386 0.9248 1.4239
C16 C -0.1418(11) 0.5753(7) 0.9171(8)
Cu2_2 Cu -0.47693(14) 0.43359(9) 1.26605(9)
Cu2A Cu -0.52307(14) 0.56641(9) 0.73395(9)
O8_2 O 0.6356(8) 1.5886(5) 1.4187(5)
O9A O 0.2721(8) 1.5299(5) 1.1658(5)
N2_2 N 0.7041(9) 1.5507(6) 1.2029(6)
loop_
_geom_bond_atom_site_label_1
_geom_bond_atom_site_label_2
_geom_bond_site_symmetry_1
_geom_bond_site_symmetry_2
Cu1 O1 1_555 1_555
Cu2 O2 1_555 1_555
O1 H1 1_555 1_555
H2 O1 1_555 1_555
O2 H3 1_555 1_555
H4 O2 1_555 1_555
O3 Cu1 1_555 1_555
O4 C6 1_555 1_555
O5 Cu2 1_555 1_555
O6 C8 1_555 1_555
O7 C14 1_555 1_555
O8 C14 1_555 1_555
O9 C16 1_555 1_555
O10 Cu1 1_555 1_555
N1 Cu1 1_555 1_555
N2 C9 1_555 1_555
C1 N1 1_555 1_555
C2 C1 1_555 1_555
C3 C2 1_555 1_555
H5 C3 1_555 1_555
C4 C3 1_555 1_555
C5 N1 1_555 1_555
H6 C5 1_555 1_555
C6 O3 1_555 1_555
C7 C2 1_555 1_555
H7 C7 1_555 1_555
H8 C7 1_555 1_555
H9 C7 1_555 1_555
C8 O5 1_555 1_555
C9 C10 1_555 1_555
C10 C11 1_555 1_555
C11 H10 1_555 1_555
C12 C11 1_555 1_555
C13 N2 1_555 1_555
H11 C13 1_555 1_555
C14 C9 1_555 1_555
C15 C10 1_555 1_555
H12 C15 1_555 1_555
H13 C15 1_555 1_555
H14 C15 1_555 1_555
C16 O10 1_555 1_555
Cu2_2 O8 1_555 1_555
Cu2A O9 1_555 1_555
O8_2 Cu2 1_555 1_555
O9A Cu2 1_555 1_555
N2_2 Cu2 1_555 1_555
N2 Cu2_2 1_555 1_555
C1 C6 1_555 1_555
C4 C5 1_555 1_555
C4 C8 1_555 1_555
C12 C13 1_555 1_555
C12 C16 1_555 1_555

#END
