
#######################################################################
#
#                 Cambridge Crystallographic Data Centre
#                                CCDC 
#
#######################################################################
#
# If this CIF has been generated from an entry in the Cambridge 
# Structural Database, then it will include bibliographic, chemical, 
# crystal, experimental, refinement or atomic coordinate data resulting 
# from the CCDC's data processing and validation procedures.
#
#######################################################################

data_AGUMAR
_symmetry_cell_setting           orthorhombic
_symmetry_space_group_name_H-M   'P n n a'
_symmetry_Int_Tables_number      52
_space_group_name_Hall           '-P 2a 2bc'
loop_
_symmetry_equiv_pos_site_id
_symmetry_equiv_pos_as_xyz
1 x,y,z
2 1/2-x,-y,z
3 1/2-x,1/2+y,1/2-z
4 x,1/2-y,1/2-z
5 -x,-y,-z
6 1/2+x,y,-z
7 1/2+x,1/2-y,1/2+z
8 -x,1/2+y,1/2+z
_cell_length_a                   8.909(2)
_cell_length_b                   12.330(3)
_cell_length_c                   17.476(4)
_cell_angle_alpha                90
_cell_angle_beta                 90
_cell_angle_gamma                90
_cell_volume                     1919.7
loop_
_atom_site_label
_atom_site_type_symbol
_atom_site_fract_x
_atom_site_fract_y
_atom_site_fract_z
Cu1 Cu 0.10987(10) -0.04826(8) 0.78285(6)
Cu2 Cu -0.30699(13) 0.2500 0.7500
Cu3 Cu -0.34302(14) 0.2500 1.2500
O1 O 0.3008(5) -0.0979(4) 0.7377(3)
H1 H 0.2912 -0.0860 0.6825
O2 O -0.0388(5) 0.0180(4) 0.8482(3)
O3 O -0.1338(6) 0.1282(5) 0.7600(3)
O4 O -0.1657(7) 0.1293(6) 1.1205(3)
O5 O -0.3625(6) 0.2386(4) 1.1402(3)
O6 O -0.4752(6) 0.3644(5) 0.7886(3)
O7 O -0.5858(7) 0.4195(6) 0.8960(3)
N1 N -0.3035(6) 0.2271(5) 0.8584(3)
C1 C -0.2104(7) 0.1531(6) 0.8876(4)
C2 C -0.1990(7) 0.1385(6) 0.9648(4)
H2 H -0.1339 0.0867 0.9847
C3 C -0.2858(8) 0.2019(7) 1.0133(4)
C4 C -0.3838(8) 0.2774(7) 0.9830(4)
H3 H -0.4437 0.3200 1.0145
C5 C -0.3900(8) 0.2876(6) 0.9036(4)
C6 C -0.1214(8) 0.0954(6) 0.8261(4)
C7 C -0.2698(9) 0.1869(7) 1.0991(4)
C8 C -0.4947(9) 0.3659(7) 0.8613(5)
Cu1C Cu 0.10987(10) 0.54826(8) 0.71715(6)
Cu1A Cu 0.39013(10) 0.04826(8) 0.78285(6)
Cu1D Cu -0.10987(10) 0.04826(8) 1.21715(6)
Cu1B Cu -0.60987(10) 0.45174(8) 0.71715(6)
Cu1G Cu -0.10987(10) 0.45174(8) 0.28285(6)
Cu1A_2 Cu -0.60987(10) 0.04826(8) 0.78285(6)
Cu3D Cu 0.34302(14) -0.2500 0.7500
Cu3_2 Cu -0.34302(14) 0.2500 0.2500
Cu3E Cu 0.15698(14) 0.2500 0.7500
O1A O 0.1992(5) 0.0979(4) 0.7377(3)
O1D O -0.3008(5) 0.0979(4) 1.2623(3)
O1G O -0.3008(5) 0.4021(4) 1.2377(3)
O1C O 0.3008(5) 0.5979(4) 0.7623(3)
O1B O 0.1992(5) 0.4021(4) 0.7623(3)
H1A H 0.2088 0.0860 0.6825
H1D H -0.2912 0.0860 1.3175
H1G H -0.2912 0.4140 1.1825
H1C H 0.2912 0.5860 0.8175
H1B H 0.2088 0.4140 0.8175
O2C O -0.0388(5) 0.4820(4) 0.6518(3)
O3C O -0.1338(6) 0.3718(5) 0.7400(3)
O4C O -0.1657(7) 0.3707(6) 0.3795(3)
O4D O 0.1657(7) -0.1293(6) 0.8795(3)
O4G O 0.1657(7) 0.6293(6) 0.6205(3)
O5C O -0.3625(6) 0.2614(4) 0.3598(3)
O5C_2 O -0.3625(6) 0.2614(4) 1.3598(3)
O6C O -0.4752(6) 0.1356(5) 0.7114(3)
O6B O -0.0248(6) -0.1356(5) 0.7114(3)
O6A O -0.0248(6) 0.6356(5) 0.7886(3)
O7C O -0.5858(7) 0.0805(6) 0.6040(3)
N1C N -0.3035(6) 0.2729(5) 0.6416(3)
C1C C -0.2104(7) 0.3469(6) 0.6124(4)
C2C C -0.1990(7) 0.3615(6) 0.5352(4)
H2C H -0.1339 0.4133 0.5153
C3C C -0.2858(8) 0.2981(7) 0.4867(4)
C4C C -0.3838(8) 0.2226(7) 0.5170(4)
H3C H -0.4437 0.1800 0.4855
C5C C -0.3900(8) 0.2124(6) 0.5964(4)
C6C C -0.1214(8) 0.4046(6) 0.6739(4)
C7C C -0.2698(9) 0.3131(7) 0.4009(4)
C8C C -0.4947(9) 0.1341(7) 0.6387(5)
loop_
_geom_bond_atom_site_label_1
_geom_bond_atom_site_label_2
_geom_bond_site_symmetry_1
_geom_bond_site_symmetry_2
Cu1 O1 1_555 1_555
Cu2 O3 1_555 1_555
Cu3 O5 1_555 1_555
O1 H1 1_555 1_555
O2 Cu1 1_555 1_555
O3 C6 1_555 1_555
O4 C7 1_555 1_555
O5 C7 1_555 1_555
O6 Cu2 1_555 1_555
O7 C8 1_555 1_555
N1 Cu2 1_555 1_555
C1 N1 1_555 1_555
C2 C1 1_555 1_555
H2 C2 1_555 1_555
C3 C2 1_555 1_555
C4 C3 1_555 1_555
H3 C4 1_555 1_555
C5 N1 1_555 1_555
C6 O2 1_555 1_555
C7 C3 1_555 1_555
C8 O6 1_555 1_555
Cu1C O1C 1_555 1_555
Cu1A O1 1_555 1_555
Cu1D O4 1_555 1_555
Cu1B O6 1_555 1_555
Cu1G O4C 1_555 1_555
Cu1A_2 O6C 1_555 1_555
Cu3D O1 1_555 1_555
Cu3_2 O5C 1_555 1_555
Cu3E O1A 1_555 1_555
O1A Cu1 1_555 1_555
O1D Cu3 1_555 1_555
O1G Cu3 1_555 1_555
O1C H1C 1_555 1_555
O1B Cu1C 1_555 1_555
H1A O1A 1_555 1_555
H1D O1D 1_555 1_555
H1G O1G 1_555 1_555
H1B O1B 1_555 1_555
O2C Cu1C 1_555 1_555
O3C Cu2 1_555 1_555
O4C C7C 1_555 1_555
O4D Cu1 1_555 1_555
O4G Cu1C 1_555 1_555
O5C C7C 1_555 1_555
O5C_2 Cu3 1_555 1_555
O6C Cu2 1_555 1_555
O6B Cu1 1_555 1_555
O6A Cu1C 1_555 1_555
O7C C8C 1_555 1_555
N1C Cu2 1_555 1_555
C1C N1C 1_555 1_555
C2C C1C 1_555 1_555
H2C C2C 1_555 1_555
C3C C2C 1_555 1_555
C4C C3C 1_555 1_555
H3C C4C 1_555 1_555
C5C N1C 1_555 1_555
C6C O2C 1_555 1_555
C7C C3C 1_555 1_555
C8C O6C 1_555 1_555
C1 C6 1_555 1_555
C4 C5 1_555 1_555
C5 C8 1_555 1_555
Cu1A O1A 1_555 1_555
Cu1D O1D 1_555 1_555
Cu3E O1B 1_555 1_555
O3C C6C 1_555 1_555
C1C C6C 1_555 1_555
C4C C5C 1_555 1_555
C5C C8C 1_555 1_555

#END
