
#######################################################################
#
#                 Cambridge Crystallographic Data Centre
#                                CCDC 
#
#######################################################################
#
# If this CIF has been generated from an entry in the Cambridge 
# Structural Database, then it will include bibliographic, chemical, 
# crystal, experimental, refinement or atomic coordinate data resulting 
# from the CCDC's data processing and validation procedures.
#
#######################################################################

data_AGUMUL
_symmetry_cell_setting           triclinic
_symmetry_space_group_name_H-M   'P -1'
_symmetry_Int_Tables_number      2
_space_group_name_Hall           '-P 1'
loop_
_symmetry_equiv_pos_site_id
_symmetry_equiv_pos_as_xyz
1 x,y,z
2 -x,-y,-z
_cell_length_a                   10.651(3)
_cell_length_b                   11.293(3)
_cell_length_c                   12.834(7)
_cell_angle_alpha                96.116(3)
_cell_angle_beta                 102.112(3)
_cell_angle_gamma                108.448(4)
_cell_volume                     1406.66
loop_
_atom_site_label
_atom_site_type_symbol
_atom_site_fract_x
_atom_site_fract_y
_atom_site_fract_z
C1 C 0.3150(13) 0.9978(13) 1.0156(10)
H1 H 0.2907 0.9767 0.9403
C2 C 0.3179(12) 1.0765(11) 1.1743(9)
H2 H 0.2995 1.1171 1.2332
C3 C 0.5119(12) 1.0169(12) 1.2758(10)
H3 H 0.5028 1.0645 1.3396
H4 H 0.6047 1.0550 1.2694
C4 C 0.4860(11) 0.8801(11) 1.2888(9)
C5 C 0.5211(12) 0.7955(12) 1.2240(10)
H5 H 0.5616 0.8195 1.1684
C6 C 0.4932(13) 0.6757(13) 1.2458(11)
H6 H 0.5177 0.6173 1.2053
C7 C 0.4312(15) 0.6393(13) 1.3243(11)
H7 H 0.4111 0.5556 1.3344
C8 C 0.4235(12) 0.8391(11) 1.3683(9)
H8 H 0.3981 0.8957 1.4099
C9 C 0.3771(13) 0.6274(11) 1.7287(11)
H9 H 0.4701 0.6433 1.7371
C10 C 0.1738(13) 0.6140(10) 1.6646(9)
H10 H 0.0947 0.6164 1.6190
C11 C 0.0733(12) 0.5366(11) 1.8119(10)
H11 H -0.0135 0.5219 1.7605
H12 H 0.0737 0.4554 1.8299
C12 C 0.0844(11) 0.6244(10) 1.9138(9)
C13 C 0.1584(12) 0.6222(11) 2.0153(10)
H13 H 0.2104 0.5698 2.0226
C14 C 0.1552(11) 0.6971(11) 2.1048(9)
H14 H 0.2071 0.6975 2.1729
C15 C 0.0759(10) 0.7711(10) 2.0943(8)
H15 H 0.0733 0.8208 2.1559
C16 C 0.0058(12) 0.7002(10) 1.9080(9)
H16 H -0.0466 0.7012 1.8405
N1 N 0.2521(10) 1.0618(9) 1.0732(7)
N2 N 0.4123(11) 0.9699(12) 1.0778(8)
N3 N 0.4166(9) 1.0243(9) 1.1812(8)
N4 N 0.3975(12) 0.7197(11) 1.3883(8)
N5 N 0.2973(12) 0.6387(9) 1.6411(8)
N6 N 0.3145(10) 0.5917(10) 1.8039(8)
N7 N 0.1844(9) 0.5868(8) 1.7602(7)
N8 N 0.0017(10) 0.7740(8) 1.9973(7)
O1 O 0.1451(10) 1.3894(8) 0.3901(7)
O2 O 0.3805(9) 1.3456(8) 0.3956(8)
O3 O 0.2501(7) 1.3123(7) 0.5707(6)
O4 O 0.2826(7) 1.1115(7) 0.4640(6)
O5 O 0.1759(9) 1.2998(7) 0.7664(6)
O6 O 0.1811(7) 1.0751(6) 0.6462(5)
O7 O 0.2474(8) 0.8855(7) 0.5303(6)
O8 O 0.0042(9) 1.3351(7) 0.5972(7)
O9 O 0.0520(7) 0.9074(6) 0.3567(5)
O10 O 0.0280(6) 1.1157(6) 0.4662(5)
O11 O 0.1238(7) 1.1536(7) 0.2925(6)
O12 O 0.1483(8) 0.8617(7) 0.7402(6)
O13 O 0.0911(8) 1.0517(8) 0.8375(6)
Cl1 Cl 0.3628(5) 0.3864(5) 2.0411(4)
Cu1 Cu 0.3378(2) 0.67842(19) 1.51110(15)
Cu2 Cu 0.3775(3) 0.5073(3) 1.9222(2)
Cu3 Cu 0.12105(16) 1.13291(15) 1.01694(13)
Mo1 Mo 0.22293(9) 1.28325(9) 0.41920(8)
Mo2 Mo 0.16540(8) 0.98922(8) 0.50199(6)
Mo3 Mo 0.10028(9) 1.24520(8) 0.63211(7)
Mo4 Mo 0.05618(9) 0.95761(8) 0.71557(6)
C1A C -0.3150(13) 1.0022(13) -0.0156(10)
H1A H -0.2907 1.0233 0.0597
C2A C -0.3179(12) 0.9235(11) -0.1743(9)
H2A H -0.2995 0.8829 -0.2332
C3A C -0.5119(12) 0.9831(12) -0.2758(10)
H3A H -0.5028 0.9355 -0.3396
H4A H -0.6047 0.9450 -0.2694
C4A C -0.4860(11) 1.1199(11) -0.2888(9)
C5A C -0.5211(12) 1.2045(12) -0.2240(10)
H5A H -0.5616 1.1805 -0.1684
C6A C -0.4932(13) 1.3243(13) -0.2458(11)
H6A H -0.5177 1.3827 -0.2053
C7A C -0.4312(15) 1.3607(13) -0.3243(11)
H7A H -0.4111 1.4444 -0.3344
C8A C -0.4235(12) 1.1609(11) -0.3683(9)
H8A H -0.3981 1.1043 -0.4099
C9A C -0.3771(13) 1.3726(11) -0.7287(11)
H9A H -0.4701 1.3567 -0.7371
C10A C -0.1738(13) 1.3860(10) -0.6646(9)
H10A H -0.0947 1.3836 -0.6190
C11A C -0.0733(12) 1.4634(11) -0.8119(10)
H11A H 0.0135 1.4781 -0.7605
H12A H -0.0737 1.5446 -0.8299
C12A C -0.0844(11) 1.3756(10) -0.9138(9)
C13A C -0.1584(12) 1.3778(11) -1.0153(10)
H13A H -0.2104 1.4302 -1.0226
C14A C -0.1552(11) 1.3029(11) -1.1048(9)
H14A H -0.2071 1.3025 -1.1729
C15A C -0.0759(10) 1.2289(10) -1.0943(8)
H15A H -0.0733 1.1792 -1.1559
C16A C -0.0058(12) 1.2998(10) -0.9080(9)
H16A H 0.0466 1.2988 -0.8405
N1A N -0.2521(10) 0.9382(9) -0.0732(7)
N2A N -0.4123(11) 1.0301(12) -0.0778(8)
N3A N -0.4166(9) 0.9757(9) -0.1812(8)
N4A N -0.3975(12) 1.2803(11) -0.3883(8)
N5A N -0.2973(12) 1.3613(9) -0.6411(8)
N6A N -0.3145(10) 1.4083(10) -0.8039(8)
N6A_2 N 0.6855(10) 0.4083(10) 2.1961(8)
N7A N -0.1844(9) 1.4132(8) -0.7602(7)
N8A N -0.0017(10) 1.2260(8) 1.0027(7)
N8A_2 N -0.0017(10) 1.2260(8) -0.9973(7)
N8_2 N 0.0017(10) 0.7740(8) -0.0027(7)
O1A O -0.1451(10) 0.6106(8) 0.6099(7)
O2A O -0.3805(9) 0.6544(8) 0.6044(8)
O3A O -0.2501(7) 0.6877(7) 0.4293(6)
O4A O -0.2826(7) 0.8885(7) 0.5360(6)
O5A O -0.1759(9) 0.7002(7) 0.2336(6)
O6A O -0.1811(7) 0.9249(6) 0.3538(5)
O7A O -0.2474(8) 1.1145(7) 0.4697(6)
O8A O -0.0042(9) 0.6649(7) 0.4028(7)
O9A O -0.0520(7) 1.0926(6) 0.6433(5)
O10A O -0.0280(6) 0.8843(6) 0.5338(5)
O11A O -0.1238(7) 0.8464(7) 0.7075(6)
O12A O -0.1483(8) 1.1383(7) 0.2598(6)
O13A O -0.0911(8) 0.9483(8) 0.1625(6)
Cl1A Cl 0.6372(5) 0.6136(5) 1.9589(4)
Cu1A Cu -0.3378(2) 1.32158(19) -0.51110(15)
Cu2A Cu 0.6225(3) 0.4927(3) 2.0778(2)
Cu2A_2 Cu -0.3775(3) 1.4927(3) -0.9222(2)
Cu3A Cu -0.12105(16) 0.86709(15) 1.98306(13)
Cu3A_2 Cu -0.12105(16) 0.86709(15) -0.01694(13)
Cu3_2 Cu 0.12105(16) 1.13291(15) -0.98306(13)
Mo1A Mo -0.22293(9) 0.71675(9) 0.58080(8)
Mo2A Mo -0.16540(8) 1.01078(8) 0.49801(6)
Mo3A Mo -0.10028(9) 0.75480(8) 0.36789(7)
Mo4A Mo -0.05618(9) 1.04239(8) 0.28443(6)
loop_
_geom_bond_atom_site_label_1
_geom_bond_atom_site_label_2
_geom_bond_site_symmetry_1
_geom_bond_site_symmetry_2
C1 H1 1_555 1_555
C2 H2 1_555 1_555
C3 H3 1_555 1_555
H4 C3 1_555 1_555
C4 C3 1_555 1_555
C5 C4 1_555 1_555
H5 C5 1_555 1_555
C6 C5 1_555 1_555
H6 C6 1_555 1_555
C7 C6 1_555 1_555
H7 C7 1_555 1_555
C8 C4 1_555 1_555
H8 C8 1_555 1_555
C9 H9 1_555 1_555
C10 H10 1_555 1_555
C11 H11 1_555 1_555
H12 C11 1_555 1_555
C12 C11 1_555 1_555
C13 C12 1_555 1_555
H13 C13 1_555 1_555
C14 C13 1_555 1_555
H14 C14 1_555 1_555
C15 C14 1_555 1_555
H15 C15 1_555 1_555
C16 C12 1_555 1_555
H16 C16 1_555 1_555
N1 C1 1_555 1_555
N2 C1 1_555 1_555
N3 C2 1_555 1_555
N4 C7 1_555 1_555
N5 C9 1_555 1_555
N6 C9 1_555 1_555
N7 C10 1_555 1_555
N8 C15 1_555 1_555
O1 Mo1 1_555 1_555
O2 Mo1 1_555 1_555
O3 Mo1 1_555 1_555
O4 Mo1 1_555 1_555
O5 Mo3 1_555 1_555
O6 Mo2 1_555 1_555
O7 Mo2 1_555 1_555
O8 Mo3 1_555 1_555
O9 Mo2 1_555 1_555
O10 Mo2 1_555 1_555
O11 Mo1 1_555 1_555
O12 Mo4 1_555 1_555
O13 Cu3 1_555 1_555
Cl1 Cu2 1_555 1_555
Cu1 N4 1_555 1_555
Cu2 N6 1_555 1_555
Cu3 N1 1_555 1_555
Mo2 O4 1_555 1_555
Mo3 O3 1_555 1_555
Mo4 O6 1_555 1_555
C1A H1A 1_555 1_555
C2A H2A 1_555 1_555
C3A H3A 1_555 1_555
H4A C3A 1_555 1_555
C4A C3A 1_555 1_555
C5A C4A 1_555 1_555
H5A C5A 1_555 1_555
C6A C5A 1_555 1_555
H6A C6A 1_555 1_555
C7A C6A 1_555 1_555
H7A C7A 1_555 1_555
C8A C4A 1_555 1_555
H8A C8A 1_555 1_555
C9A H9A 1_555 1_555
C10A H10A 1_555 1_555
C11A H11A 1_555 1_555
H12A C11A 1_555 1_555
C12A C11A 1_555 1_555
C13A C12A 1_555 1_555
H13A C13A 1_555 1_555
C14A C13A 1_555 1_555
H14A C14A 1_555 1_555
C15A C14A 1_555 1_555
H15A C15A 1_555 1_555
C16A C12A 1_555 1_555
H16A C16A 1_555 1_555
N1A C1A 1_555 1_555
N2A C1A 1_555 1_555
N3A C2A 1_555 1_555
N4A C7A 1_555 1_555
N5A C9A 1_555 1_555
N6A C9A 1_555 1_555
N6A_2 Cu2A 1_555 1_555
N7A C10A 1_555 1_555
N8A Cu3 1_555 1_555
N8A_2 C15A 1_555 1_555
N8_2 Cu3A_2 1_555 1_555
O1A Mo1A 1_555 1_555
O2A Mo1A 1_555 1_555
O3A Mo1A 1_555 1_555
O4A Mo1A 1_555 1_555
O5A Mo3A 1_555 1_555
O6A Mo2A 1_555 1_555
O7A Mo2A 1_555 1_555
O8A Mo3A 1_555 1_555
O9A Mo3 1_555 1_555
O10A Mo2 1_555 1_555
O11A Mo4 1_555 1_555
O12A Mo4A 1_555 1_555
O13A Cu3A_2 1_555 1_555
Cl1A Cu2 1_555 1_555
Cu1A N4A 1_555 1_555
Cu2A Cl1 1_555 1_555
Cu2A_2 N6A 1_555 1_555
Cu3A N8 1_555 1_555
Cu3A_2 N1A 1_555 1_555
Cu3_2 N8A_2 1_555 1_555
Mo1A O11A 1_555 1_555
Mo2A O10 1_555 1_555
Mo3A O9 1_555 1_555
Mo4A O9 1_555 1_555
C2 N1 1_555 1_555
C3 N3 1_555 1_555
C8 N4 1_555 1_555
C10 N5 1_555 1_555
C11 N7 1_555 1_555
C16 N8 1_555 1_555
N2 N3 1_555 1_555
N5 Cu1 1_555 1_555
N6 N7 1_555 1_555
O6 Mo3 1_555 1_555
O10 Mo3 1_555 1_555
O10 Mo4A 1_555 1_555
O11 Mo4A 1_555 1_555
O13 Mo4 1_555 1_555
Mo4 O9A 1_555 1_555
Mo4 O10A 1_555 1_555
C2A N1A 1_555 1_555
C3A N3A 1_555 1_555
C8A N4A 1_555 1_555
C10A N5A 1_555 1_555
C11A N7A 1_555 1_555
C16A N8A_2 1_555 1_555
N2A N3A 1_555 1_555
N5A Cu1A 1_555 1_555
N6A N7A 1_555 1_555
O3A Mo3A 1_555 1_555
O4A Mo2A 1_555 1_555
O6A Mo3A 1_555 1_555
O6A Mo4A 1_555 1_555
O9A Mo2A 1_555 1_555
O10A Mo2A 1_555 1_555
O10A Mo3A 1_555 1_555
O13A Mo4A 1_555 1_555
Cl1A Cu2A 1_555 1_555

#END
