
#######################################################################
#
#                 Cambridge Crystallographic Data Centre
#                                CCDC 
#
#######################################################################
#
# If this CIF has been generated from an entry in the Cambridge 
# Structural Database, then it will include bibliographic, chemical, 
# crystal, experimental, refinement or atomic coordinate data resulting 
# from the CCDC's data processing and validation procedures.
#
#######################################################################

data_AGUNEW
_symmetry_cell_setting           monoclinic
_symmetry_space_group_name_H-M   'P 21/n'
_symmetry_Int_Tables_number      14
_space_group_name_Hall           '-P 2yn'
loop_
_symmetry_equiv_pos_site_id
_symmetry_equiv_pos_as_xyz
1 x,y,z
2 1/2-x,1/2+y,1/2-z
3 -x,-y,-z
4 1/2+x,1/2-y,1/2+z
_cell_length_a                   12.3881(17)
_cell_length_b                   15.8284(21)
_cell_length_c                   14.1052(19)
_cell_angle_alpha                90
_cell_angle_beta                 92.2640(24)
_cell_angle_gamma                90
_cell_volume                     2763.64
loop_
_atom_site_label
_atom_site_type_symbol
_atom_site_fract_x
_atom_site_fract_y
_atom_site_fract_z
Cu1 Cu -0.23817(6) 0.14820(4) -0.19149(5)
Mo1 Mo -0.54207(4) 0.20204(3) -0.52087(4)
Mo2 Mo -0.42264(4) 0.00947(3) -0.38594(4)
Mo3 Mo -0.33242(4) 0.11108(3) -0.61886(4)
Mo4 Mo -0.73512(4) 0.10535(3) -0.37803(4)
C1 C -0.1315(5) -0.2005(3) -0.3493(4)
H1 H -0.1930 -0.1694 -0.3661
C2 C -0.0256(5) -0.2999(4) -0.3008(4)
H2 H -0.0009 -0.3518 -0.2778
C3 C 0.0380(5) -0.2334(4) -0.3210(5)
H3 H 0.1129 -0.2306 -0.3148
C4 C -0.0027(5) -0.0828(3) -0.3746(4)
H4 H -0.0515 -0.0614 -0.4245
H5 H 0.0702 -0.0806 -0.3970
C5 C -0.0105(5) -0.0290(4) -0.2876(5)
C6 C 0.0647(5) -0.0365(4) -0.2110(5)
H6 H 0.1244 -0.0717 -0.2152
C7 C 0.0489(6) 0.0083(4) -0.1310(5)
H7 H 0.0964 0.0022 -0.0787
C8 C -0.0366(5) 0.0625(4) -0.1268(5)
H8 H -0.0453 0.0941 -0.0720
C9 C -0.0934(5) 0.0260(3) -0.2791(5)
H9 H -0.1420 0.0326 -0.3304
C10 C -0.2677(5) -0.2361(4) -0.1438(4)
H10 H -0.1926 -0.2350 -0.1406
C11 C -0.4311(6) -0.2667(4) -0.1919(6)
H11 H -0.4901 -0.2885 -0.2266
C12 C -0.4338(6) -0.2146(6) -0.1093(7)
H12 H -0.4952 -0.1968 -0.0792
C13 C -0.2874(6) -0.1490(4) 0.0011(4)
H13 H -0.2104 -0.1590 0.0094
H14 H -0.3217 -0.1709 0.0566
C14 C -0.3068(5) -0.0553(4) -0.0048(4)
C15 C -0.3403(7) -0.0127(5) 0.0735(6)
H15 H -0.3554 -0.0429 0.1279
C16 C -0.3513(7) 0.0704(5) 0.0731(6)
H16 H -0.3799 0.0989 0.1240
C17 C -0.3199(6) 0.1113(5) -0.0028(5)
H17 H -0.3188 0.1700 -0.0001
C18 C -0.2838(5) -0.0100(4) -0.0829(5)
H18 H -0.2635 -0.0380 -0.1374
O1 O -0.2491(3) 0.1709(3) -0.5481(4)
O2 O -0.2861(4) 0.1262(3) -0.7278(4)
O3 O -0.4586(3) 0.1803(2) -0.6270(3)
O4 O -0.4371(3) 0.0806(2) -0.4877(3)
O5 O -0.3609(3) -0.0858(2) -0.4177(3)
O6 O -0.3380(3) 0.0577(3) -0.3030(3)
O7 O -0.5471(3) -0.0098(2) -0.3325(3)
O8 O -0.4590(3) 0.2719(3) -0.4632(3)
O9 O -0.6112(3) 0.1611(2) -0.4081(3)
O10 O -0.6412(3) 0.2638(2) -0.5708(3)
O11 O -0.2560(3) 0.0056(3) -0.5849(4)
O12 O -0.7480(4) 0.1130(3) -0.2598(4)
O13 O -0.8420(4) 0.1562(3) -0.4321(4)
N1 N -0.1088(4) 0.0714(3) -0.2004(4)
N2 N -0.0312(4) -0.1710(3) -0.3524(3)
N3 N -0.1325(4) -0.2792(3) -0.3195(3)
N4 N -0.2897(4) 0.0751(3) -0.0830(3)
N5 N -0.3282(4) -0.1958(3) -0.0825(4)
N6 N -0.3247(4) -0.2779(3) -0.2096(4)
Cu1A Cu -0.26183(6) -0.35180(4) -0.30851(5)
Cu1B Cu -0.76183(6) -0.14820(4) -0.80851(5)
Cu1_2 Cu -0.23817(6) -0.85180(4) -0.19149(5)
Mo1B Mo -0.45793(4) -0.20204(3) -0.47913(4)
Mo2B Mo -0.57736(4) -0.00947(3) -0.61406(4)
Mo3B Mo -0.66758(4) -0.11108(3) -0.38114(4)
Mo4B Mo -0.26488(4) -0.10535(3) -0.62197(4)
C1A C -0.3685(5) -0.7005(3) -0.1507(4)
H1A H -0.3070 -0.6694 -0.1339
C2A C -0.4744(5) -0.7999(4) -0.1992(4)
H2A H -0.4991 -0.8518 -0.2222
C3A C -0.5380(5) -0.7334(4) -0.1790(5)
H3A H -0.6129 -0.7306 -0.1852
C4A C -0.4973(5) -0.5828(3) -0.1254(4)
H4A H -0.4485 -0.5614 -0.0755
H5A H -0.5702 -0.5806 -0.1030
C5A C -0.4895(5) -0.5290(4) -0.2124(5)
C6A C -0.5647(5) -0.5365(4) -0.2890(5)
H6A H -0.6244 -0.5717 -0.2848
C7A C -0.5489(6) -0.4917(4) -0.3690(5)
H7A H -0.5964 -0.4978 -0.4213
C8A C -0.4634(5) -0.4375(4) -0.3732(5)
H8A H -0.4547 -0.4059 -0.4280
C9A C -0.4066(5) -0.4740(3) -0.2209(5)
H9A H -0.3580 -0.4674 -0.1696
C10A C -0.2323(5) -0.7361(4) -0.3562(4)
H10A H -0.3074 -0.7350 -0.3594
C11A C -0.0689(6) -0.7667(4) -0.3081(6)
H11A H -0.0099 -0.7885 -0.2734
C12A C -0.0662(6) -0.7146(6) -0.3907(7)
H12A H -0.0048 -0.6968 -0.4208
C13A C -0.2126(6) -0.6490(4) -0.5011(4)
H13A H -0.2896 -0.6590 -0.5094
H14A H -0.1783 -0.6709 -0.5566
C14A C -0.1932(5) -0.5553(4) -0.4952(4)
C15A C -0.1597(7) -0.5127(5) -0.5735(6)
H15A H -0.1446 -0.5429 -0.6279
C16A C -0.1487(7) -0.4296(5) -0.5731(6)
H16A H -0.1201 -0.4011 -0.6240
C17A C -0.1801(6) -0.3887(5) -0.4972(5)
H17A H -0.1812 -0.3300 -0.4999
C18A C -0.2162(5) -0.5100(4) -0.4171(5)
H18A H -0.2365 -0.5380 -0.3626
O1B O -0.7509(3) -0.1709(3) -0.4519(4)
O2B O -0.7139(4) -0.1262(3) -0.2722(4)
O3B O -0.5414(3) -0.1803(2) -0.3730(3)
O4B O -0.5629(3) -0.0806(2) -0.5123(3)
O5B O -0.6391(3) 0.0858(2) -0.5823(3)
O6B O -0.6620(3) -0.0577(3) -0.6970(3)
O6A O -0.1620(3) -0.4423(3) -0.1970(3)
O7B O -0.4529(3) 0.0098(2) -0.6675(3)
O8B O -0.5410(3) -0.2719(3) -0.5368(3)
O9B O -0.3888(3) -0.1611(2) -0.5919(3)
O10B O -0.3588(3) -0.2638(2) -0.4292(3)
O11B O -0.7440(3) -0.0056(3) -0.4151(4)
O12B O -0.2520(4) -0.1130(3) -0.7402(4)
O13B O -0.1580(4) -0.1562(3) -0.5679(4)
N1A N -0.3912(4) -0.4286(3) -0.2996(4)
N2A N -0.4688(4) -0.6710(3) -0.1476(3)
N3A N -0.3675(4) 0.2208(3) -0.1805(3)
N3A_2 N -0.3675(4) -0.7792(3) -0.1805(3)
N4A N -0.2103(4) -0.4249(3) -0.4170(3)
N5A N -0.1718(4) -0.6958(3) -0.4175(4)
N6A N -0.1753(4) 0.2221(3) -0.2904(4)
N6A_2 N -0.1753(4) -0.7779(3) -0.2904(4)
loop_
_geom_bond_atom_site_label_1
_geom_bond_atom_site_label_2
_geom_bond_site_symmetry_1
_geom_bond_site_symmetry_2
Cu1 O6 1_555 1_555
Mo1 O3 1_555 1_555
Mo2 O4 1_555 1_555
Mo3 O1 1_555 1_555
Mo4 O9 1_555 1_555
C1 H1 1_555 1_555
C2 H2 1_555 1_555
C3 C2 1_555 1_555
H3 C3 1_555 1_555
C4 H4 1_555 1_555
H5 C4 1_555 1_555
C5 C4 1_555 1_555
C6 C5 1_555 1_555
H6 C6 1_555 1_555
C7 C6 1_555 1_555
H7 C7 1_555 1_555
C8 C7 1_555 1_555
H8 C8 1_555 1_555
C9 C5 1_555 1_555
H9 C9 1_555 1_555
C10 H10 1_555 1_555
C11 H11 1_555 1_555
C12 C11 1_555 1_555
H12 C12 1_555 1_555
C13 H13 1_555 1_555
H14 C13 1_555 1_555
C14 C13 1_555 1_555
C15 C14 1_555 1_555
H15 C15 1_555 1_555
C16 C15 1_555 1_555
H16 C16 1_555 1_555
C17 C16 1_555 1_555
H17 C17 1_555 1_555
C18 C14 1_555 1_555
H18 C18 1_555 1_555
O2 Mo3 1_555 1_555
O3 Mo3 1_555 1_555
O4 Mo1 1_555 1_555
O5 Mo2 1_555 1_555
O6 Mo2 1_555 1_555
O7 Mo2 1_555 1_555
O8 Mo1 1_555 1_555
O9 Mo1 1_555 1_555
O10 Mo1 1_555 1_555
O11 Mo3 1_555 1_555
O12 Mo4 1_555 1_555
O13 Mo4 1_555 1_555
N1 Cu1 1_555 1_555
N2 C1 1_555 1_555
N3 C1 1_555 1_555
N4 Cu1 1_555 1_555
N5 C10 1_555 1_555
N6 C10 1_555 1_555
Cu1A N3 1_555 1_555
Cu1B O6B 1_555 1_555
Cu1_2 N3A_2 1_555 1_555
Mo1B O5 1_555 1_555
Mo2B O4B 1_555 1_555
Mo3B O7 1_555 1_555
Mo4B O11 1_555 1_555
C1A H1A 1_555 1_555
C2A H2A 1_555 1_555
C3A C2A 1_555 1_555
H3A C3A 1_555 1_555
C4A H4A 1_555 1_555
H5A C4A 1_555 1_555
C5A C4A 1_555 1_555
C6A C5A 1_555 1_555
H6A C6A 1_555 1_555
C7A C6A 1_555 1_555
H7A C7A 1_555 1_555
C8A C7A 1_555 1_555
H8A C8A 1_555 1_555
C9A C5A 1_555 1_555
H9A C9A 1_555 1_555
C10A H10A 1_555 1_555
C11A H11A 1_555 1_555
C12A C11A 1_555 1_555
H12A C12A 1_555 1_555
C13A H13A 1_555 1_555
H14A C13A 1_555 1_555
C14A C13A 1_555 1_555
C15A C14A 1_555 1_555
H15A C15A 1_555 1_555
C16A C15A 1_555 1_555
H16A C16A 1_555 1_555
C17A C16A 1_555 1_555
H17A C17A 1_555 1_555
C18A C14A 1_555 1_555
H18A C18A 1_555 1_555
O1B Mo3B 1_555 1_555
O2B Mo3B 1_555 1_555
O3B Mo1B 1_555 1_555
O4B Mo1B 1_555 1_555
O5B Mo1 1_555 1_555
O6B Mo2B 1_555 1_555
O6A Cu1A 1_555 1_555
O7B Mo3 1_555 1_555
O8B Mo1B 1_555 1_555
O9B Mo1B 1_555 1_555
O10B Mo1B 1_555 1_555
O11B Mo4 1_555 1_555
O12B Mo4B 1_555 1_555
O13B Mo4B 1_555 1_555
N1A Cu1A 1_555 1_555
N2A C1A 1_555 1_555
N3A Cu1 1_555 1_555
N3A_2 C1A 1_555 1_555
N4A Cu1A 1_555 1_555
N5A C10A 1_555 1_555
N6A Cu1 1_555 1_555
N6A_2 Cu1_2 1_555 1_555
Mo3 O4 1_555 1_555
C2 N3 1_555 1_555
C3 N2 1_555 1_555
C4 N2 1_555 1_555
C8 N1 1_555 1_555
C9 N1 1_555 1_555
C11 N6 1_555 1_555
C12 N5 1_555 1_555
C13 N5 1_555 1_555
C17 N4 1_555 1_555
C18 N4 1_555 1_555
N6 Cu1A 1_555 1_555
Mo2B O5B 1_555 1_555
Mo2B O7B 1_555 1_555
Mo3B O3B 1_555 1_555
Mo3B O4B 1_555 1_555
Mo3B O11B 1_555 1_555
Mo4B O9B 1_555 1_555
C2A N3A_2 1_555 1_555
C3A N2A 1_555 1_555
C4A N2A 1_555 1_555
C8A N1A 1_555 1_555
C9A N1A 1_555 1_555
C10A N6A_2 1_555 1_555
C11A N6A_2 1_555 1_555
C12A N5A 1_555 1_555
C13A N5A 1_555 1_555
C17A N4A 1_555 1_555
C18A N4A 1_555 1_555

#END
