
#######################################################################
#
#                 Cambridge Crystallographic Data Centre
#                                CCDC 
#
#######################################################################
#
# If this CIF has been generated from an entry in the Cambridge 
# Structural Database, then it will include bibliographic, chemical, 
# crystal, experimental, refinement or atomic coordinate data resulting 
# from the CCDC's data processing and validation procedures.
#
#######################################################################

data_AGUNAS
_symmetry_cell_setting           monoclinic
_symmetry_space_group_name_H-M   'C 2/c'
_symmetry_Int_Tables_number      15
_space_group_name_Hall           '-C 2yn'
loop_
_symmetry_equiv_pos_site_id
_symmetry_equiv_pos_as_xyz
1 x,y,z
2 -x,y,1/2-z
3 1/2+x,1/2+y,z
4 1/2-x,1/2+y,1/2-z
5 -x,-y,-z
6 x,-y,1/2+z
7 1/2-x,1/2-y,-z
8 1/2+x,1/2-y,1/2+z
_cell_length_a                   18.456(1)
_cell_length_b                   15.443(1)
_cell_length_c                   20.498(2)
_cell_angle_alpha                90
_cell_angle_beta                 107.187(1)
_cell_angle_gamma                90
_cell_volume                     5581.37
loop_
_atom_site_label
_atom_site_type_symbol
_atom_site_fract_x
_atom_site_fract_y
_atom_site_fract_z
Cu1 Cu -0.29948(4) -0.00484(4) 0.21728(3)
Mo1 Mo -0.16111(2) 0.26026(3) -0.01711(2)
Mo2 Mo -0.18929(2) 0.16911(3) 0.13005(2)
Mo3 Mo -0.15660(3) 0.03928(3) 0.01592(2)
Mo4 Mo -0.19190(3) 0.38589(3) 0.09712(2)
C1 C -0.1721(3) 0.0926(3) 0.3099(3)
H1 H -0.1386 0.0733 0.2869
C2 C -0.2164(4) 0.1588(3) 0.3837(3)
H2 H -0.2193 0.1929 0.4202
C3 C -0.0809(3) 0.1879(4) 0.3946(3)
H3 H -0.0490 0.1815 0.3649
H4 H -0.0558 0.1602 0.4379
C4 C -0.0927(3) 0.2829(3) 0.4061(3)
C5 C -0.0659(3) 0.3193(4) 0.4707(3)
H5 H -0.0392 0.2859 0.5077
C6 C -0.0795(4) 0.4057(4) 0.4791(3)
H6 H -0.0608 0.4317 0.5218
C7 C -0.1209(3) 0.4530(3) 0.4242(3)
H7 H -0.1320 0.5105 0.4307
C8 C -0.1316(3) 0.3353(3) 0.3531(3)
H8 H -0.1487 0.3115 0.3096
C9 C -0.3342(3) 0.3880(3) 0.2046(3)
H9 H -0.3260 0.3986 0.1627
C10 C -0.3865(3) 0.3394(3) 0.2811(2)
H10 H -0.4188 0.3115 0.3016
C11 C -0.4534(3) 0.3010(3) 0.1620(3)
H11 H -0.4482 0.3126 0.1171
H12 H -0.5005 0.3270 0.1641
C12 C -0.4573(3) 0.2053(3) 0.1713(2)
C13 C -0.5266(3) 0.1652(3) 0.1599(3)
H13 H -0.5712 0.1974 0.1475
C14 C -0.5287(3) 0.0756(4) 0.1672(3)
H14 H -0.5750 0.0474 0.1593
C15 C -0.4625(3) 0.0293(4) 0.1860(3)
H15 H -0.4646 -0.0304 0.1910
C16 C -0.3925(3) 0.1550(3) 0.1904(2)
H16 H -0.3457 0.1821 0.1985
N1 N -0.2445(2) 0.0708(3) 0.2947(2)
N2 N -0.2734(4) 0.1133(3) 0.3421(3)
N3 N -0.1546(3) 0.1465(3) 0.3634(2)
N4 N -0.3943(2) 0.0680(3) 0.1976(2)
N5 N -0.1460(2) 0.4188(3) 0.3613(2)
N6 N -0.3902(2) 0.3415(3) 0.2136(2)
N7 N -0.2911(2) 0.4177(3) 0.2645(2)
N8 N -0.3268(4) 0.3859(4) 0.3099(3)
O1 O -0.1071(2) 0.1667(2) -0.01261(18)
O2 O -0.1097(2) 0.3383(2) -0.03991(18)
O3 O -0.13850(19) 0.2799(2) 0.08083(16)
O4 O -0.1407(2) 0.4575(2) 0.06710(19)
O5 O -0.1622(2) 0.3976(2) 0.18381(18)
O6 O -0.26547(19) 0.2648(2) 0.10626(16)
O7 O -0.1345(2) 0.2051(2) 0.20734(18)
O8 O -0.24328(18) 0.1625(2) 0.01356(15)
O9 O -0.1197(2) 0.0981(2) 0.10297(17)
O10 O -0.2140(3) -0.0334(3) 0.0377(2)
O11 O -0.2869(2) 0.4438(2) 0.07805(17)
O12 O -0.2471(2) 0.0926(2) 0.14884(17)
O13 O -0.0806(3) -0.0190(3) 0.0113(2)
Cu1C Cu -0.20052(4) 0.49516(4) 0.28272(3)
Cu1F Cu -0.20052(4) 0.50484(4) -0.21728(3)
Cu1_2 Cu -0.29948(4) 0.99516(4) 0.21728(3)
Mo1F Mo -0.33889(2) 0.23974(3) 0.01711(2)
Mo2F Mo -0.31071(2) 0.33089(3) -0.13005(2)
Mo3F Mo -0.34340(3) 0.46072(3) -0.01592(2)
Mo4F Mo -0.30810(3) 0.11411(3) -0.09712(2)
C1C C -0.3279(3) 0.5926(3) 0.1901(3)
H1C H -0.3614 0.5733 0.2131
C2C C -0.2836(4) 0.6588(3) 0.1163(3)
H2C H -0.2807 0.6929 0.0798
C3C C -0.4191(3) 0.6879(4) 0.1054(3)
H3C H -0.4510 0.6815 0.1351
H4C H -0.4442 0.6602 0.0621
C4C C -0.4073(3) 0.7829(3) 0.0939(3)
C5C C -0.4341(3) 0.8193(4) 0.0293(3)
H5C H -0.4608 0.7859 -0.0077
C6C C -0.4205(4) 0.9057(4) 0.0209(3)
H6C H -0.4392 0.9317 -0.0218
C7C C -0.3791(3) 0.9530(3) 0.0758(3)
H7C H -0.3680 1.0105 0.0693
C8C C -0.3684(3) 0.8353(3) 0.1469(3)
H8C H -0.3513 0.8115 0.1904
C9C C -0.1658(3) 0.8880(3) 0.2954(3)
H9C H -0.1740 0.8986 0.3373
C10C C -0.1135(3) 0.8394(3) 0.2189(2)
H10C H -0.0812 0.8115 0.1984
C11C C -0.0466(3) 0.8010(3) 0.3380(3)
H11C H -0.0518 0.8126 0.3829
H12C H 0.0005 0.8270 0.3359
C12C C -0.0427(3) 0.7053(3) 0.3287(2)
C13C C 0.0266(3) 0.6652(3) 0.3401(3)
H13C H 0.0712 0.6974 0.3525
C14C C 0.0287(3) 0.5756(4) 0.3328(3)
H14C H 0.0750 0.5474 0.3407
C15C C -0.0375(3) 0.5293(4) 0.3140(3)
H15C H -0.0354 0.4696 0.3090
C16C C -0.1075(3) 0.6550(3) 0.3096(2)
H16C H -0.1543 0.6821 0.3015
N1C N -0.2555(2) 0.5708(3) 0.2053(2)
N2C N -0.2266(4) 0.6133(3) 0.1579(3)
N3C N -0.3454(3) 0.6465(3) 0.1366(2)
N4C N -0.1057(2) 0.5680(3) 0.3024(2)
N5C N -0.3540(2) -0.0812(3) 0.1387(2)
N5C_2 N -0.3540(2) 0.9188(3) 0.1387(2)
N6C N -0.1098(2) 0.8415(3) 0.2864(2)
N7C N -0.2089(2) -0.0823(3) 0.2355(2)
N7C_2 N -0.2089(2) 0.9177(3) 0.2355(2)
N8C N -0.1732(4) 0.8859(4) 0.1901(3)
O1F O -0.3929(2) 0.3333(2) 0.01261(18)
O2F O -0.3903(2) 0.1617(2) 0.03991(18)
O3F O -0.36150(19) 0.2201(2) -0.08083(16)
O4F O -0.3593(2) 0.0425(2) -0.06710(19)
O5F O -0.3378(2) 0.1024(2) -0.18381(18)
O6F O -0.23453(19) 0.2352(2) -0.10626(16)
O7F O -0.3655(2) 0.2949(2) -0.20734(18)
O8F O -0.25672(18) 0.3375(2) -0.01356(15)
O9F O -0.3803(2) 0.4019(2) -0.10297(17)
O10F O -0.2860(3) 0.5334(3) -0.0377(2)
O11F O -0.2131(2) 0.0562(2) -0.07805(17)
O12C O -0.2529(2) 0.5926(2) 0.35116(17)
O12F O -0.2529(2) 0.4074(2) -0.14884(17)
O13F O -0.4194(3) 0.5190(3) -0.0113(2)
O14 O 0.0000 0.3291(6) 0.2500
O15 O -0.0144(4) 0.0143(6) 0.3191(8)
loop_
_geom_bond_atom_site_label_1
_geom_bond_atom_site_label_2
_geom_bond_site_symmetry_1
_geom_bond_site_symmetry_2
Cu1 N1 1_555 1_555
Mo1 O1 1_555 1_555
Mo2 O3 1_555 1_555
Mo3 O1 1_555 1_555
Mo4 O3 1_555 1_555
C1 H1 1_555 1_555
C2 H2 1_555 1_555
C3 H3 1_555 1_555
H4 C3 1_555 1_555
C4 C3 1_555 1_555
C5 C4 1_555 1_555
H5 C5 1_555 1_555
C6 C5 1_555 1_555
H6 C6 1_555 1_555
C7 C6 1_555 1_555
H7 C7 1_555 1_555
C8 C4 1_555 1_555
H8 C8 1_555 1_555
C9 H9 1_555 1_555
C10 H10 1_555 1_555
C11 H11 1_555 1_555
H12 C11 1_555 1_555
C12 C11 1_555 1_555
C13 C12 1_555 1_555
H13 C13 1_555 1_555
C14 C13 1_555 1_555
H14 C14 1_555 1_555
C15 C14 1_555 1_555
H15 C15 1_555 1_555
C16 C12 1_555 1_555
H16 C16 1_555 1_555
N1 C1 1_555 1_555
N2 C2 1_555 1_555
N3 C1 1_555 1_555
N4 Cu1 1_555 1_555
N5 C7 1_555 1_555
N6 C9 1_555 1_555
N7 C9 1_555 1_555
N8 C10 1_555 1_555
O2 Mo1 1_555 1_555
O3 Mo1 1_555 1_555
O4 Mo4 1_555 1_555
O5 Mo4 1_555 1_555
O6 Mo2 1_555 1_555
O7 Mo2 1_555 1_555
O8 Mo1 1_555 1_555
O9 Mo2 1_555 1_555
O10 Mo3 1_555 1_555
O11 Mo4 1_555 1_555
O12 Cu1 1_555 1_555
O13 Mo3 1_555 1_555
Cu1C N5 1_555 1_555
Cu1F O12F 1_555 1_555
Cu1_2 N5C_2 1_555 1_555
Mo1F O6 1_555 1_555
Mo2F O3F 1_555 1_555
Mo3F O11 1_555 1_555
Mo4F O8 1_555 1_555
C1C H1C 1_555 1_555
C2C H2C 1_555 1_555
C3C H3C 1_555 1_555
H4C C3C 1_555 1_555
C4C C3C 1_555 1_555
C5C C4C 1_555 1_555
H5C C5C 1_555 1_555
C6C C5C 1_555 1_555
H6C C6C 1_555 1_555
C7C C6C 1_555 1_555
H7C C7C 1_555 1_555
C8C C4C 1_555 1_555
H8C C8C 1_555 1_555
C9C H9C 1_555 1_555
C10C H10C 1_555 1_555
C11C H11C 1_555 1_555
H12C C11C 1_555 1_555
C12C C11C 1_555 1_555
C13C C12C 1_555 1_555
H13C C13C 1_555 1_555
C14C C13C 1_555 1_555
H14C C14C 1_555 1_555
C15C C14C 1_555 1_555
H15C C15C 1_555 1_555
C16C C12C 1_555 1_555
H16C C16C 1_555 1_555
N1C Cu1C 1_555 1_555
N2C C2C 1_555 1_555
N3C C1C 1_555 1_555
N4C Cu1C 1_555 1_555
N5C Cu1 1_555 1_555
N5C_2 C7C 1_555 1_555
N6C C9C 1_555 1_555
N7C Cu1 1_555 1_555
N7C_2 Cu1_2 1_555 1_555
N8C C10C 1_555 1_555
O1F Mo1F 1_555 1_555
O2F Mo1F 1_555 1_555
O3F Mo1F 1_555 1_555
O4F Mo4F 1_555 1_555
O5F Mo4F 1_555 1_555
O6F Mo1 1_555 1_555
O7F Mo2F 1_555 1_555
O8F Mo1 1_555 1_555
O9F Mo2F 1_555 1_555
O10F Mo3F 1_555 1_555
O11F Mo3 1_555 1_555
O12C Cu1C 1_555 1_555
O12F Mo2F 1_555 1_555
O13F Mo3F 1_555 1_555
Mo2 O8 1_555 1_555
Mo2 O12 1_555 1_555
Mo3 O8 1_555 1_555
Mo3 O9 1_555 1_555
Mo4 O6 1_555 1_555
Mo4 O8F 1_555 1_555
C2 N3 1_555 1_555
C3 N3 1_555 1_555
C8 N5 1_555 1_555
C10 N6 1_555 1_555
C11 N6 1_555 1_555
C15 N4 1_555 1_555
C16 N4 1_555 1_555
N1 N2 1_555 1_555
N7 N8 1_555 1_555
N7 Cu1C 1_555 1_555
O8 Mo1F 1_555 1_555
Mo1F O8F 1_555 1_555
Mo2F O6F 1_555 1_555
Mo2F O8F 1_555 1_555
Mo3F O1F 1_555 1_555
Mo3F O8F 1_555 1_555
Mo3F O9F 1_555 1_555
Mo4F O3F 1_555 1_555
Mo4F O6F 1_555 1_555
Mo4F O11F 1_555 1_555
C1C N1C 1_555 1_555
C2C N3C 1_555 1_555
C3C N3C 1_555 1_555
C8C N5C_2 1_555 1_555
C9C N7C_2 1_555 1_555
C10C N6C 1_555 1_555
C11C N6C 1_555 1_555
C15C N4C 1_555 1_555
C16C N4C 1_555 1_555
N1C N2C 1_555 1_555
N7C_2 N8C 1_555 1_555

#END
