
#######################################################################
#
#                 Cambridge Crystallographic Data Centre
#                                CCDC 
#
#######################################################################
#
# If this CIF has been generated from an entry in the Cambridge 
# Structural Database, then it will include bibliographic, chemical, 
# crystal, experimental, refinement or atomic coordinate data resulting 
# from the CCDC's data processing and validation procedures.
#
#######################################################################

data_AGUPEY
_symmetry_cell_setting           monoclinic
_symmetry_space_group_name_H-M   'P 21/n'
_symmetry_Int_Tables_number      14
_space_group_name_Hall           '-P 2yn'
loop_
_symmetry_equiv_pos_site_id
_symmetry_equiv_pos_as_xyz
1 x,y,z
2 1/2-x,1/2+y,1/2-z
3 -x,-y,-z
4 1/2+x,1/2-y,1/2+z
_cell_length_a                   8.4268(13)
_cell_length_b                   20.661(3)
_cell_length_c                   11.3627(17)
_cell_angle_alpha                90
_cell_angle_beta                 100.242(2)
_cell_angle_gamma                90
_cell_volume                     1946.79
loop_
_atom_site_label
_atom_site_type_symbol
_atom_site_fract_x
_atom_site_fract_y
_atom_site_fract_z
Zn1 Zn 0.71637(5) 0.78676(2) 0.41830(4)
Cl1 Cl 0.91489(13) 0.74598(5) 0.33366(9)
Cl2 Cl 0.76811(16) 0.84692(5) 0.58131(9)
N1 N -0.0760(3) 1.21200(13) 0.0388(2)
N2 N 0.2492(3) 1.00709(13) 0.0243(2)
N3 N 0.5826(4) 0.83927(14) 0.2814(2)
N4 N 0.1768(4) 0.91724(19) -0.5842(3)
C1 C -0.0883(5) 1.19463(17) -0.0758(3)
H1 H -0.1507 1.2201 -0.1339
C2 C -0.0132(4) 1.14088(16) -0.1119(3)
H2 H -0.0266 1.1306 -0.1928
C3 C 0.0822(4) 1.10198(15) -0.0288(3)
C4 C 0.0957(5) 1.12033(18) 0.0899(3)
H3 H 0.1583 1.0960 0.1497
C5 C 0.0166(5) 1.1744(2) 0.1192(3)
H4 H 0.0279 1.1855 0.1996
C6 C 0.1637(4) 1.04332(15) -0.0639(3)
C7 C 0.1536(4) 1.02636(15) -0.1828(3)
H5 H 0.0936 1.0518 -0.2422
C8 C 0.2320(4) 0.97204(15) -0.2140(3)
C9 C 0.3199(4) 0.93549(15) -0.1231(3)
H6 H 0.3744 0.8987 -0.1413
C10 C 0.3266(4) 0.95356(14) -0.0054(3)
C11 C 0.5890(5) 0.82598(17) 0.1674(3)
H7 H 0.6504 0.7908 0.1510
C12 C 0.5099(4) 0.86144(16) 0.0734(3)
H8 H 0.5177 0.8501 -0.0046
C13 C 0.4182(4) 0.91438(15) 0.0946(3)
C14 C 0.4128(4) 0.92917(19) 0.2124(3)
H9 H 0.3541 0.9647 0.2311
C15 C 0.4957(5) 0.8906(2) 0.3021(3)
H10 H 0.4906 0.9009 0.3810
C16 C 0.1861(5) 0.9784(2) -0.5493(3)
H11 H 0.1791 1.0100 -0.6082
C17 C 0.2056(4) 0.99873(18) -0.4320(3)
H12 H 0.2087 1.0426 -0.4136
C18 C 0.2204(4) 0.95275(16) -0.3420(3)
C19 C 0.2173(5) 0.88834(18) -0.3764(3)
H13 H 0.2307 0.8554 -0.3196
C20 C 0.1935(5) 0.8742(2) -0.4978(4)
H14 H 0.1892 0.8307 -0.5197
Zn1A Zn -0.21637(5) 1.28676(2) 0.08170(4)
N1A N 0.5760(3) 0.71200(13) 0.4612(2)
loop_
_geom_bond_atom_site_label_1
_geom_bond_atom_site_label_2
_geom_bond_site_symmetry_1
_geom_bond_site_symmetry_2
Zn1 Cl1 1_555 1_555
Cl2 Zn1 1_555 1_555
N1 C1 1_555 1_555
N2 C6 1_555 1_555
N3 Zn1 1_555 1_555
N4 C16 1_555 1_555
C1 H1 1_555 1_555
C2 C1 1_555 1_555
H2 C2 1_555 1_555
C3 C2 1_555 1_555
C4 C3 1_555 1_555
H3 C4 1_555 1_555
C5 N1 1_555 1_555
H4 C5 1_555 1_555
C6 C3 1_555 1_555
C7 C6 1_555 1_555
H5 C7 1_555 1_555
C8 C7 1_555 1_555
C9 C8 1_555 1_555
H6 C9 1_555 1_555
C10 N2 1_555 1_555
C11 N3 1_555 1_555
H7 C11 1_555 1_555
C12 C11 1_555 1_555
H8 C12 1_555 1_555
C13 C10 1_555 1_555
C14 C13 1_555 1_555
H9 C14 1_555 1_555
C15 N3 1_555 1_555
H10 C15 1_555 1_555
C16 H11 1_555 1_555
C17 C16 1_555 1_555
H12 C17 1_555 1_555
C18 C8 1_555 1_555
C19 C18 1_555 1_555
H13 C19 1_555 1_555
C20 N4 1_555 1_555
H14 C20 1_555 1_555
Zn1A N1 1_555 1_555
N1A Zn1 1_555 1_555
C4 C5 1_555 1_555
C9 C10 1_555 1_555
C12 C13 1_555 1_555
C14 C15 1_555 1_555
C17 C18 1_555 1_555
C19 C20 1_555 1_555

#END
