
#######################################################################
#
#                 Cambridge Crystallographic Data Centre
#                                CCDC 
#
#######################################################################
#
# If this CIF has been generated from an entry in the Cambridge 
# Structural Database, then it will include bibliographic, chemical, 
# crystal, experimental, refinement or atomic coordinate data resulting 
# from the CCDC's data processing and validation procedures.
#
#######################################################################

data_AGUPIC
_symmetry_cell_setting           monoclinic
_symmetry_space_group_name_H-M   'C 2/c'
_symmetry_Int_Tables_number      15
_space_group_name_Hall           '-C 2yn'
loop_
_symmetry_equiv_pos_site_id
_symmetry_equiv_pos_as_xyz
1 x,y,z
2 -x,y,1/2-z
3 1/2+x,1/2+y,z
4 1/2-x,1/2+y,1/2-z
5 -x,-y,-z
6 x,-y,1/2+z
7 1/2-x,1/2-y,-z
8 1/2+x,1/2-y,1/2+z
_cell_length_a                   26.694(7)
_cell_length_b                   9.283(3)
_cell_length_c                   17.354(5)
_cell_angle_alpha                90
_cell_angle_beta                 102.759(4)
_cell_angle_gamma                90
_cell_volume                     4194.14
loop_
_atom_site_label
_atom_site_type_symbol
_atom_site_fract_x
_atom_site_fract_y
_atom_site_fract_z
Zn1 Zn 0.046435(12) 0.24713(3) 0.06042(2)
N1 N 0.12184(10) 0.3137(3) 0.04794(15)
N2 N 0.29583(9) 0.5312(3) 0.08534(15)
N3 N 0.42635(9) 0.6911(3) 0.31782(15)
N4 N 0.32395(19) 0.8748(4) -0.2669(2)
O1 O 0.02414(9) 0.4457(2) 0.09759(12)
O2 O -0.01440(9) 0.6495(2) 0.05138(12)
O3 O -0.02455(7) 0.1428(2) 0.04582(13)
O4 O -0.06381(7) -0.0540(2) -0.01035(13)
C1 C 0.13213(13) 0.3261(5) -0.0237(2)
H1 H 0.1077 0.2936 -0.0670
C2 C 0.17661(13) 0.3839(5) -0.0371(2)
H2 H 0.1817 0.3905 -0.0883
C3 C 0.21410(11) 0.4327(3) 0.02630(17)
C4 C 0.20456(12) 0.4127(4) 0.10038(18)
H3 H 0.2294 0.4375 0.1450
C5 C 0.15832(12) 0.3559(4) 0.10866(19)
H4 H 0.1524 0.3467 0.1593
C6 C 0.26111(11) 0.5109(4) 0.01758(17)
C7 C 0.26720(11) 0.5680(3) -0.05328(17)
H5 H 0.2427 0.5503 -0.0994
C8 C 0.30997(12) 0.6519(3) -0.05556(18)
C9 C 0.34600(11) 0.6718(3) 0.01526(17)
H6 H 0.3754 0.7261 0.0163
C10 C 0.33760(11) 0.6102(3) 0.08392(17)
C11 C 0.39467(14) 0.5791(4) 0.3007(2)
H7 H 0.3910 0.5183 0.3417
C12 C 0.36711(14) 0.5482(4) 0.2260(2)
H8 H 0.3453 0.4689 0.2177
C13 C 0.37171(11) 0.6342(3) 0.16362(17)
C14 C 0.40624(13) 0.7478(4) 0.1804(2)
H9 H 0.4120 0.8070 0.1400
C15 C 0.43165(13) 0.7720(4) 0.2568(2)
H10 H 0.4541 0.8499 0.2668
C16 C 0.2796(2) 0.8255(5) -0.2558(2)
H11 H 0.2505 0.8427 -0.2953
C17 C 0.27323(18) 0.7511(4) -0.1903(2)
H12 H 0.2408 0.7193 -0.1866
C18 C 0.31538(14) 0.7238(4) -0.13008(19)
C19 C 0.36259(15) 0.7697(4) -0.1416(2)
H13 H 0.3924 0.7505 -0.1039
C20 C 0.3649(2) 0.8441(5) -0.2094(3)
H14 H 0.3969 0.8748 -0.2156
C21 C 0.00268(11) 0.5281(3) 0.04271(17)
C22 C -0.02547(10) 0.0258(3) 0.01032(17)
Zn1C Zn 0.453565(12) -0.25287(3) 0.43958(2)
Zn1C_2 Zn 0.453565(12) 0.74713(3) 0.43958(2)
Zn1D Zn -0.046435(12) 0.75287(3) -0.06042(2)
Zn1D_2 Zn -0.046435(12) -0.24713(3) -0.06042(2)
N1C N 0.37816(10) -0.1863(3) 0.45206(15)
N2C N 0.20417(9) 0.0312(3) 0.41466(15)
N3C N 0.07365(9) 0.1911(3) 0.18218(15)
N3_2 N 0.42635(9) -0.3089(3) 0.31782(15)
N4C N 0.17605(19) 0.3748(4) 0.7669(2)
O1D O -0.02414(9) 0.5543(2) -0.09759(12)
O1C O 0.47586(9) -0.0543(2) 0.40241(12)
O2D O 0.01440(9) 0.3505(2) -0.05138(12)
O2G O 0.48560(9) -0.1495(2) 0.55138(12)
O3D O 0.02455(7) -0.1428(2) -0.04582(13)
O3C O 0.52455(7) -0.3572(2) 0.45418(13)
O4D O 0.06381(7) 0.0540(2) 0.01035(13)
O4G O 0.43619(7) -0.4460(2) 0.48965(13)
C1C C 0.36787(13) -0.1739(5) 0.5237(2)
H1C H 0.3923 -0.2064 0.5670
C2C C 0.32339(13) -0.1161(5) 0.5371(2)
H2C H 0.3183 -0.1095 0.5883
C3C C 0.28590(11) -0.0673(3) 0.47370(17)
C4C C 0.29544(12) -0.0873(4) 0.39962(18)
H3C H 0.2706 -0.0625 0.3550
C5C C 0.34168(12) -0.1441(4) 0.39134(19)
H4C H 0.3476 -0.1533 0.3407
C6C C 0.23889(11) 0.0109(4) 0.48242(17)
C7C C 0.23280(11) 0.0680(3) 0.55328(17)
H5C H 0.2573 0.0503 0.5994
C8C C 0.19003(12) 0.1519(3) 0.55556(18)
C9C C 0.15400(11) 0.1718(3) 0.48474(17)
H6C H 0.1246 0.2261 0.4837
C10C C 0.16240(11) 0.1102(3) 0.41608(17)
C11C C 0.10533(14) 0.0791(4) 0.1993(2)
H7C H 0.1090 0.0183 0.1583
C12C C 0.13289(14) 0.0482(4) 0.2740(2)
H8C H 0.1547 -0.0311 0.2823
C13C C 0.12829(11) 0.1342(3) 0.33638(17)
C14C C 0.09376(13) 0.2478(4) 0.3196(2)
H9C H 0.0880 0.3070 0.3600
C15C C 0.06835(13) 0.2720(4) 0.2432(2)
H10C H 0.0459 0.3499 0.2332
C16C C 0.2204(2) 0.3255(5) 0.7558(2)
H11C H 0.2495 0.3427 0.7953
C17C C 0.22677(18) 0.2511(4) 0.6903(2)
H12C H 0.2592 0.2193 0.6866
C18C C 0.18462(14) 0.2238(4) 0.63008(19)
C19C C 0.13741(15) 0.2697(4) 0.6416(2)
H13C H 0.1076 0.2505 0.6039
C20C C 0.1351(2) 0.3441(5) 0.7094(3)
H14C H 0.1031 0.3748 0.7156
C21D C -0.00268(11) 0.4719(3) -0.04271(17)
C22D C 0.02547(10) -0.0258(3) -0.01032(17)
O5 O 1.0117(10) 0.835(2) 0.1892(11)
O6 O 0.9642(7) 0.590(2) 0.2058(8)
loop_
_geom_bond_atom_site_label_1
_geom_bond_atom_site_label_2
_geom_bond_site_symmetry_1
_geom_bond_site_symmetry_2
Zn1 N1 1_555 1_555
N1 C1 1_555 1_555
N2 C6 1_555 1_555
N3 C11 1_555 1_555
N4 C16 1_555 1_555
O1 Zn1 1_555 1_555
O2 C21 1_555 1_555
O3 Zn1 1_555 1_555
O4 C22 1_555 1_555
C1 H1 1_555 1_555
C2 C1 1_555 1_555
H2 C2 1_555 1_555
C3 C2 1_555 1_555
C4 C3 1_555 1_555
H3 C4 1_555 1_555
C5 N1 1_555 1_555
H4 C5 1_555 1_555
C6 C3 1_555 1_555
C7 C6 1_555 1_555
H5 C7 1_555 1_555
C8 C7 1_555 1_555
C9 C8 1_555 1_555
H6 C9 1_555 1_555
C10 N2 1_555 1_555
C11 H7 1_555 1_555
C12 C11 1_555 1_555
H8 C12 1_555 1_555
C13 C10 1_555 1_555
C14 C13 1_555 1_555
H9 C14 1_555 1_555
C15 N3 1_555 1_555
H10 C15 1_555 1_555
C16 H11 1_555 1_555
C17 C16 1_555 1_555
H12 C17 1_555 1_555
C18 C8 1_555 1_555
C19 C18 1_555 1_555
H13 C19 1_555 1_555
C20 N4 1_555 1_555
H14 C20 1_555 1_555
C21 O1 1_555 1_555
C22 O3 1_555 1_555
Zn1C N1C 1_555 1_555
Zn1C_2 N3 1_555 1_555
Zn1D O2 1_555 1_555
Zn1D_2 O4 1_555 1_555
N1C C1C 1_555 1_555
N2C C6C 1_555 1_555
N3C Zn1 1_555 1_555
N3_2 Zn1C 1_555 1_555
N4C C16C 1_555 1_555
O1D Zn1D 1_555 1_555
O1C Zn1C 1_555 1_555
O2D Zn1 1_555 1_555
O2G Zn1C 1_555 1_555
O3D Zn1D_2 1_555 1_555
O3C Zn1C 1_555 1_555
O4D Zn1 1_555 1_555
O4G Zn1C 1_555 1_555
C1C H1C 1_555 1_555
C2C C1C 1_555 1_555
H2C C2C 1_555 1_555
C3C C2C 1_555 1_555
C4C C3C 1_555 1_555
H3C C4C 1_555 1_555
C5C N1C 1_555 1_555
H4C C5C 1_555 1_555
C6C C3C 1_555 1_555
C7C C6C 1_555 1_555
H5C C7C 1_555 1_555
C8C C7C 1_555 1_555
C9C C8C 1_555 1_555
H6C C9C 1_555 1_555
C10C N2C 1_555 1_555
C11C N3C 1_555 1_555
H7C C11C 1_555 1_555
C12C C11C 1_555 1_555
H8C C12C 1_555 1_555
C13C C10C 1_555 1_555
C14C C13C 1_555 1_555
H9C C14C 1_555 1_555
C15C N3C 1_555 1_555
H10C C15C 1_555 1_555
C16C H11C 1_555 1_555
C17C C16C 1_555 1_555
H12C C17C 1_555 1_555
C18C C8C 1_555 1_555
C19C C18C 1_555 1_555
H13C C19C 1_555 1_555
C20C N4C 1_555 1_555
H14C C20C 1_555 1_555
C21D C21 1_555 1_555
C22D C22 1_555 1_555
C4 C5 1_555 1_555
C9 C10 1_555 1_555
C12 C13 1_555 1_555
C14 C15 1_555 1_555
C17 C18 1_555 1_555
C19 C20 1_555 1_555
O1D C21D 1_555 1_555
O2D C21D 1_555 1_555
O3D C22D 1_555 1_555
O4D C22D 1_555 1_555
C4C C5C 1_555 1_555
C9C C10C 1_555 1_555
C12C C13C 1_555 1_555
C14C C15C 1_555 1_555
C17C C18C 1_555 1_555
C19C C20C 1_555 1_555

#END
