
#######################################################################
#
#                 Cambridge Crystallographic Data Centre
#                                CCDC 
#
#######################################################################
#
# If this CIF has been generated from an entry in the Cambridge 
# Structural Database, then it will include bibliographic, chemical, 
# crystal, experimental, refinement or atomic coordinate data resulting 
# from the CCDC's data processing and validation procedures.
#
#######################################################################

data_AGUQAV
_symmetry_cell_setting           monoclinic
_symmetry_space_group_name_H-M   'P 21/n'
_symmetry_Int_Tables_number      14
_space_group_name_Hall           '-P 2yn'
loop_
_symmetry_equiv_pos_site_id
_symmetry_equiv_pos_as_xyz
1 x,y,z
2 1/2-x,1/2+y,1/2-z
3 -x,-y,-z
4 1/2+x,1/2-y,1/2+z
_cell_length_a                   7.8282(13)
_cell_length_b                   16.447(3)
_cell_length_c                   16.779(3)
_cell_angle_alpha                90
_cell_angle_beta                 95.137(3)
_cell_angle_gamma                90
_cell_volume                     2151.63
loop_
_atom_site_label
_atom_site_type_symbol
_atom_site_fract_x
_atom_site_fract_y
_atom_site_fract_z
C1 C 0.6555(6) 0.6394(2) 1.5570(2)
C2 C 0.6910(6) 0.6799(3) 1.4879(2)
H1 H 0.7948 0.7071 1.4865
C3 C 0.5726(6) 0.6805(2) 1.4203(2)
C4 C 0.4210(5) 0.6389(2) 1.4228(2)
H2 H 0.3424 0.6382 1.3778
C5 C 0.3832(6) 0.5977(2) 1.4914(2)
C6 C 0.5030(6) 0.5981(2) 1.5577(2)
H3 H 0.4796 0.5698 1.6035
C7 C 0.6109(7) 0.7302(3) 1.3487(3)
C8 C 0.2176(6) 0.5556(3) 1.4933(3)
C9 C 0.7837(6) 0.6418(3) 1.6302(3)
C10 C 1.4298(6) 0.7774(3) 1.6809(3)
H4 H 1.4854 0.7690 1.7315
C11 C 1.4952(6) 0.8181(3) 1.6214(3)
H5 H 1.6025 0.8427 1.6231
C12 C 1.2411(6) 0.7742(2) 1.5812(3)
H6 H 1.1417 0.7633 1.5483
C13 C 1.3860(6) 0.8525(3) 1.4785(3)
H7 H 1.5062 0.8609 1.4710
H8 H 1.3408 0.8139 1.4382
C14 C 1.2925(6) 0.9321(3) 1.4648(3)
C15 C 1.2704(6) 0.9876(3) 1.5245(3)
H9 H 1.3123 0.9758 1.5768
C16 C 1.1881(6) 1.0598(3) 1.5081(3)
H10 H 1.1736 1.0965 1.5491
C17 C 1.1265(6) 1.0777(3) 1.4304(3)
H11 H 1.0711 1.1269 1.4191
C18 C 1.1465(6) 1.0233(3) 1.3693(3)
C19 C 1.2308(6) 0.9512(3) 1.3871(3)
H12 H 1.2467 0.9146 1.3462
C20 C 1.0746(6) 1.0405(3) 1.2839(3)
H13 H 1.1498 1.0168 1.2473
H14 H 1.0723 1.0988 1.2752
C21 C 0.8602(6) 0.9296(3) 1.2609(2)
H15 H 0.9392 0.8874 1.2678
C22 C 0.7533(6) 1.0498(3) 1.2529(3)
H16 H 0.7417 1.1061 1.2527
C23 C 0.6265(6) 0.9955(3) 1.2401(3)
H17 H 0.5108 1.0081 1.2297
N1 N 1.2677(4) 0.7497(2) 1.6557(2)
N2 N 1.3734(5) 0.8164(2) 1.5581(2)
N3 N 0.9011(5) 1.0078(2) 1.26625(19)
N4 N 0.6928(5) 0.9190(2) 1.2446(2)
O1 O 0.9178(4) 0.68339(19) 1.62195(16)
O2 O 0.7530(4) 0.60543(19) 1.69056(17)
O3 O 0.7532(4) 0.7632(2) 1.34704(18)
O4 O 0.4930(4) 0.73776(18) 1.29242(17)
O5 O 0.1043(4) 0.5594(2) 1.43691(19)
O6 O 0.1986(4) 0.51566(19) 1.55823(18)
H18 H 0.1003 0.4933 1.5544
Zn1 Zn 0.58903(7) 0.81157(3) 1.21380(3)
N1C N 0.7677(4) 0.7503(2) 1.1557(2)
O1C O 0.4178(4) 0.81661(19) 1.12195(16)
Zn1C Zn 1.08903(7) 0.68843(3) 1.71380(3)
O7 O 0.56823(7) 0.75974(3) 0.89866(3)
H19 H 0.4639 0.7515 0.8820
H20 H 0.6023 0.8039 0.8790
loop_
_geom_bond_atom_site_label_1
_geom_bond_atom_site_label_2
_geom_bond_site_symmetry_1
_geom_bond_site_symmetry_2
C1 C2 1_555 1_555
C2 H1 1_555 1_555
C3 C2 1_555 1_555
C4 C3 1_555 1_555
H2 C4 1_555 1_555
C5 C4 1_555 1_555
C6 C1 1_555 1_555
H3 C6 1_555 1_555
C7 C3 1_555 1_555
C8 C5 1_555 1_555
C9 C1 1_555 1_555
C10 H4 1_555 1_555
C11 C10 1_555 1_555
H5 C11 1_555 1_555
C12 H6 1_555 1_555
C13 H7 1_555 1_555
H8 C13 1_555 1_555
C14 C13 1_555 1_555
C15 C14 1_555 1_555
H9 C15 1_555 1_555
C16 C15 1_555 1_555
H10 C16 1_555 1_555
C17 C16 1_555 1_555
H11 C17 1_555 1_555
C18 C17 1_555 1_555
C19 C14 1_555 1_555
H12 C19 1_555 1_555
C20 C18 1_555 1_555
H13 C20 1_555 1_555
H14 C20 1_555 1_555
C21 H15 1_555 1_555
C22 H16 1_555 1_555
C23 C22 1_555 1_555
H17 C23 1_555 1_555
N1 C10 1_555 1_555
N2 C11 1_555 1_555
N3 C20 1_555 1_555
N4 C21 1_555 1_555
O1 C9 1_555 1_555
O2 C9 1_555 1_555
O3 C7 1_555 1_555
O4 C7 1_555 1_555
O5 C8 1_555 1_555
O6 C8 1_555 1_555
H18 O6 1_555 1_555
Zn1 N4 1_555 1_555
O7 H19 1_555 1_555
H20 O7 1_555 1_555
N1C Zn1 1_555 1_555
O1C Zn1 1_555 1_555
Zn1C N1 1_555 1_555
C5 C6 1_555 1_555
C12 N1 1_555 1_555
C12 N2 1_555 1_555
C13 N2 1_555 1_555
C18 C19 1_555 1_555
C21 N3 1_555 1_555
C22 N3 1_555 1_555
C23 N4 1_555 1_555
O1 Zn1C 1_555 1_555
O4 Zn1 1_555 1_555

#END
