
#######################################################################
#
#                 Cambridge Crystallographic Data Centre
#                                CCDC 
#
#######################################################################
#
# If this CIF has been generated from an entry in the Cambridge 
# Structural Database, then it will include bibliographic, chemical, 
# crystal, experimental, refinement or atomic coordinate data resulting 
# from the CCDC's data processing and validation procedures.
#
#######################################################################

data_AGUQOJ
_symmetry_cell_setting           monoclinic
_symmetry_space_group_name_H-M   'P 21/n'
_symmetry_Int_Tables_number      14
_space_group_name_Hall           '-P 2yn'
loop_
_symmetry_equiv_pos_site_id
_symmetry_equiv_pos_as_xyz
1 x,y,z
2 1/2-x,1/2+y,1/2-z
3 -x,-y,-z
4 1/2+x,1/2-y,1/2+z
_cell_length_a                   9.0505(11)
_cell_length_b                   20.457(2)
_cell_length_c                   13.5723(16)
_cell_angle_alpha                90
_cell_angle_beta                 101.210(2)
_cell_angle_gamma                90
_cell_volume                     2464.92
loop_
_atom_site_label
_atom_site_type_symbol
_atom_site_fract_x
_atom_site_fract_y
_atom_site_fract_z
C1 C -0.0937(5) 0.6080(2) -0.1621(3)
C2 C -0.2262(5) 0.6445(2) -0.2195(3)
C3 C -0.3593(5) 0.6487(2) -0.1834(3)
H1 H -0.3676 0.6265 -0.1249
C4 C -0.4803(5) 0.6853(2) -0.2331(3)
C5 C -0.6238(6) 0.6896(2) -0.1936(4)
C6 C -0.4661(5) 0.7186(2) -0.3208(3)
H2 H -0.5449 0.7445 -0.3537
C7 C -0.3355(5) 0.7132(2) -0.3589(3)
C8 C -0.3243(6) 0.7462(2) -0.4561(3)
C9 C -0.2156(5) 0.6761(2) -0.3081(3)
H3 H -0.1279 0.6724 -0.3339
C10 C -0.1072(6) 0.8014(2) -0.1182(4)
H4 H -0.1137 0.7865 -0.0544
C11 C -0.0432(6) 0.8126(2) -0.2602(4)
H5 H 0.0038 0.8064 -0.3146
C12 C -0.1473(7) 0.8574(3) -0.2555(4)
H6 H -0.1844 0.8881 -0.3048
C13 C -0.2879(6) 0.8918(3) -0.1216(4)
C14 C -0.3349(7) 0.9505(3) -0.1645(4)
H7 H -0.3107 0.9625 -0.2255
C15 C -0.4184(7) 0.9918(3) -0.1166(4)
H8 H -0.4501 1.0314 -0.1471
C16 C -0.4571(6) 0.9773(3) -0.0260(5)
C17 C -0.4103(8) 0.9171(3) 0.0150(5)
H9 H -0.4339 0.9050 0.0762
C18 C -0.3293(7) 0.8746(3) -0.0333(5)
H10 H -0.3026 0.8337 -0.0054
C19 C 0.1221(6) 0.3925(3) -0.1196(4)
H11 H 0.0821 0.3596 -0.0855
C20 C 0.1956(6) 0.3826(2) -0.1951(4)
H12 H 0.2142 0.3427 -0.2233
C21 C 0.1846(6) 0.4874(2) -0.1636(3)
H13 H 0.1960 0.5324 -0.1674
C22 C 0.3164(6) 0.4592(2) -0.3010(4)
C23 C 0.4035(6) 0.5137(3) -0.2949(4)
H14 H 0.4148 0.5401 -0.2382
C24 C 0.4749(6) 0.5300(3) -0.3717(4)
H15 H 0.5334 0.5677 -0.3664
C25 C 0.4618(6) 0.4910(2) -0.4583(3)
C26 C 0.3760(6) 0.4347(2) -0.4606(4)
H16 H 0.3675 0.4068 -0.5156
C27 C 0.3023(6) 0.4187(2) -0.3834(3)
H17 H 0.2440 0.3810 -0.3871
N1 N -0.0149(4) 0.77684(18) -0.1733(3)
N2 N -0.1899(5) 0.85029(19) -0.1654(3)
N3 N 0.1144(5) 0.45768(19) -0.1000(3)
N4 N 0.2379(5) 0.44383(19) -0.2225(3)
Ni1 Ni 0.0000 0.5000 0.0000
Ni2 Ni 0.14740(7) 0.70991(3) -0.12741(4)
O1 O -0.1226(4) 0.56187(16) -0.1084(2)
O2 O 0.0364(4) 0.62520(14) -0.1725(2)
O3 O -0.6382(4) 0.65789(16) -0.1168(2)
O4 O -0.7291(4) 0.72519(16) -0.2373(2)
O5 O -0.4089(4) 0.79424(15) -0.4859(2)
O6 O -0.2352(4) 0.72472(16) -0.5080(2)
O7 O 0.1691(4) 0.56849(16) 0.0441(2)
H18 H 0.1385 0.6048 0.0241
H19 H 0.2558 0.5597 0.0402
C1B C 0.0937(5) 0.3920(2) 0.1621(3)
C2B C 0.2262(5) 0.3555(2) 0.2195(3)
C3B C 0.3593(5) 0.3513(2) 0.1834(3)
H1B H 0.3676 0.3735 0.1249
C4B C 0.4803(5) 0.3147(2) 0.2331(3)
C5B C 0.6238(6) 0.3104(2) 0.1936(4)
C6B C 0.4661(5) 0.2814(2) 0.3208(3)
H2B H 0.5449 0.2555 0.3537
C7B C 0.3355(5) 0.2868(2) 0.3589(3)
C8B C 0.3243(6) 0.2538(2) 0.4561(3)
C9B C 0.2156(5) 0.3239(2) 0.3081(3)
H3B H 0.1279 0.3276 0.3339
C10B C -0.8928(6) 1.1986(2) 0.1182(4)
H4B H -0.8863 1.2135 0.0544
C11B C -0.9568(6) 1.1874(2) 0.2602(4)
H5B H -1.0038 1.1936 0.3146
C12B C -0.8527(7) 1.1426(3) 0.2555(4)
H6B H -0.8156 1.1119 0.3048
C13B C -0.7121(6) 1.1082(3) 0.1216(4)
C14B C -0.6651(7) 1.0495(3) 0.1645(4)
H7B H -0.6893 1.0375 0.2255
C15B C -0.5816(7) 1.0082(3) 0.1166(4)
H8B H -0.5499 0.9686 0.1471
C16B C -0.5429(6) 1.0227(3) 0.0260(5)
C17B C -0.5897(8) 1.0829(3) -0.0150(5)
H9B H -0.5661 1.0950 -0.0762
C18B C -0.6707(7) 1.1254(3) 0.0333(5)
H10B H -0.6974 1.1663 0.0054
C19B C 0.8779(6) 0.6075(3) -0.8804(4)
H11B H 0.9179 0.6404 -0.9145
C20B C 0.8044(6) 0.6174(2) -0.8049(4)
H12B H 0.7858 0.6573 -0.7767
C21B C 0.8154(6) 0.5126(2) -0.8364(3)
H13B H 0.8040 0.4676 -0.8326
C22B C 0.6836(6) 0.5408(2) -0.6990(4)
C23B C 0.5965(6) 0.4863(3) -0.7051(4)
H14B H 0.5852 0.4599 -0.7618
C24B C 0.5251(6) 0.4700(3) -0.6283(4)
H15B H 0.4666 0.4323 -0.6336
C25B C 0.5382(6) 0.5090(2) -0.5417(3)
C26B C 0.6240(6) 0.5653(2) -0.5394(4)
H16B H 0.6325 0.5932 -0.4844
C27B C 0.6977(6) 0.5813(2) -0.6166(3)
H17B H 0.7560 0.6190 -0.6129
N1B N -0.9851(4) 1.22316(18) 0.1733(3)
N1B_2 N 0.0149(4) 0.22316(18) 0.1733(3)
N2B N -0.8101(5) 1.14971(19) 0.1654(3)
N3B N 0.8856(5) 0.54232(19) -0.9000(3)
N3B_2 N -0.1144(5) 0.54232(19) 0.1000(3)
N4B N 0.7621(5) 0.55617(19) -0.7775(3)
Ni1_2 Ni 1.0000 0.5000 -1.0000
Ni2B Ni -0.14740(7) 0.29009(3) 0.12741(4)
Ni2_2 Ni -0.85260(7) 0.70991(3) -0.12741(4)
Ni2C Ni -0.35260(7) 0.79009(3) -0.62741(4)
Ni2B_2 Ni -1.14740(7) 1.29009(3) 0.12741(4)
Ni2B_3 Ni 0.85260(7) 0.29009(3) 0.12741(4)
Ni2A Ni 0.35260(7) 0.20991(3) 0.62741(4)
O1B O 0.1226(4) 0.43813(16) 0.1084(2)
O2B O -0.0364(4) 0.37480(14) 0.1725(2)
O3B O 0.6382(4) 0.34211(16) 0.1168(2)
O3_2 O 0.3618(4) 0.65789(16) -0.1168(2)
O3B_2 O -0.3618(4) 0.34211(16) 0.1168(2)
O4B O 0.7291(4) 0.27481(16) 0.2373(2)
O4_2 O 0.2709(4) 0.72519(16) -0.2373(2)
O4B_2 O -0.2709(4) 0.27481(16) 0.2373(2)
O5B O 0.4089(4) 0.20576(15) 0.4859(2)
O5C O 0.0911(4) 0.70576(15) 0.0141(2)
O5A O -0.0911(4) 0.29424(15) -0.0141(2)
O6B O 0.2352(4) 0.27528(16) 0.5080(2)
O6C O 0.2648(4) 0.77528(16) -0.0080(2)
O6A O -0.2648(4) 0.22472(16) 0.0080(2)
O7B O -0.1691(4) 0.43151(16) -0.0441(2)
H18B H -0.1385 0.3952 -0.0241
H19B H -0.2558 0.4403 -0.0402
O8 O 0.5337(5) 0.4347(2) 0.9732(3)
H20 H 0.5355 0.3936 0.9822
H21 H 0.4601 0.4510 0.9953
O9 O 0.8855(5) 0.2339(2) 0.4529(3)
H22 H 0.8584 0.2504 0.3946
H23 H 0.9661 0.2524 0.4827
loop_
_geom_bond_atom_site_label_1
_geom_bond_atom_site_label_2
_geom_bond_site_symmetry_1
_geom_bond_site_symmetry_2
C1 C2 1_555 1_555
C2 C3 1_555 1_555
C3 H1 1_555 1_555
C4 C3 1_555 1_555
C5 C4 1_555 1_555
C6 C4 1_555 1_555
H2 C6 1_555 1_555
C7 C6 1_555 1_555
C8 C7 1_555 1_555
C9 C2 1_555 1_555
H3 C9 1_555 1_555
C10 H4 1_555 1_555
C11 H5 1_555 1_555
C12 C11 1_555 1_555
H6 C12 1_555 1_555
C13 C14 1_555 1_555
C14 H7 1_555 1_555
C15 C14 1_555 1_555
H8 C15 1_555 1_555
C16 C15 1_555 1_555
C17 C16 1_555 1_555
H9 C17 1_555 1_555
C18 C13 1_555 1_555
H10 C18 1_555 1_555
C19 H11 1_555 1_555
C20 C19 1_555 1_555
H12 C20 1_555 1_555
C21 H13 1_555 1_555
C22 C23 1_555 1_555
C23 H14 1_555 1_555
C24 C23 1_555 1_555
H15 C24 1_555 1_555
C25 C24 1_555 1_555
C26 C25 1_555 1_555
H16 C26 1_555 1_555
C27 C22 1_555 1_555
H17 C27 1_555 1_555
N1 C10 1_555 1_555
N2 C10 1_555 1_555
N3 C19 1_555 1_555
N4 C20 1_555 1_555
Ni1 N3 1_555 1_555
Ni2 N1 1_555 1_555
O1 C1 1_555 1_555
O2 C1 1_555 1_555
O3 C5 1_555 1_555
O4 C5 1_555 1_555
O5 C8 1_555 1_555
O6 C8 1_555 1_555
O7 Ni1 1_555 1_555
H18 O7 1_555 1_555
H19 O7 1_555 1_555
O8 H20 1_555 1_555
H21 O8 1_555 1_555
O9 H22 1_555 1_555
H23 O9 1_555 1_555
C1B C2B 1_555 1_555
C2B C3B 1_555 1_555
C3B H1B 1_555 1_555
C4B C3B 1_555 1_555
C5B C4B 1_555 1_555
C6B C4B 1_555 1_555
H2B C6B 1_555 1_555
C7B C6B 1_555 1_555
C8B C7B 1_555 1_555
C9B C2B 1_555 1_555
H3B C9B 1_555 1_555
C10B H4B 1_555 1_555
C11B H5B 1_555 1_555
C12B C11B 1_555 1_555
H6B C12B 1_555 1_555
C13B C14B 1_555 1_555
C14B H7B 1_555 1_555
C15B C14B 1_555 1_555
H8B C15B 1_555 1_555
C16B C16 1_555 1_555
C17B C16B 1_555 1_555
H9B C17B 1_555 1_555
C18B C13B 1_555 1_555
H10B C18B 1_555 1_555
C19B H11B 1_555 1_555
C20B C19B 1_555 1_555
H12B C20B 1_555 1_555
C21B H13B 1_555 1_555
C22B C23B 1_555 1_555
C23B H14B 1_555 1_555
C24B C23B 1_555 1_555
H15B C24B 1_555 1_555
C25B C25 1_555 1_555
C26B C25B 1_555 1_555
H16B C26B 1_555 1_555
C27B C22B 1_555 1_555
H17B C27B 1_555 1_555
N1B C10B 1_555 1_555
N1B_2 Ni2B 1_555 1_555
N2B C10B 1_555 1_555
N3B C19B 1_555 1_555
N3B_2 Ni1 1_555 1_555
N4B C20B 1_555 1_555
Ni1_2 N3B 1_555 1_555
Ni2B O2B 1_555 1_555
Ni2_2 O3 1_555 1_555
Ni2C O5 1_555 1_555
Ni2B_2 N1B 1_555 1_555
Ni2B_3 O3B 1_555 1_555
Ni2A O5B 1_555 1_555
O1B Ni1 1_555 1_555
O2B C1B 1_555 1_555
O3B C5B 1_555 1_555
O3_2 Ni2 1_555 1_555
O3B_2 Ni2B 1_555 1_555
O4B C5B 1_555 1_555
O4_2 Ni2 1_555 1_555
O4B_2 Ni2B 1_555 1_555
O5B C8B 1_555 1_555
O5C Ni2 1_555 1_555
O5A Ni2B 1_555 1_555
O6B C8B 1_555 1_555
O6C Ni2 1_555 1_555
O6A Ni2B 1_555 1_555
O7B Ni1 1_555 1_555
H18B O7B 1_555 1_555
H19B O7B 1_555 1_555
C7 C9 1_555 1_555
C11 N1 1_555 1_555
C12 N2 1_555 1_555
C13 N2 1_555 1_555
C17 C18 1_555 1_555
C21 N3 1_555 1_555
C21 N4 1_555 1_555
C22 N4 1_555 1_555
C26 C27 1_555 1_555
Ni1 O1 1_555 1_555
Ni2 O2 1_555 1_555
O4 Ni2_2 1_555 1_555
O6 Ni2C 1_555 1_555
C1B O1B 1_555 1_555
C7B C9B 1_555 1_555
C11B N1B 1_555 1_555
C12B N2B 1_555 1_555
C13B N2B 1_555 1_555
C15B C16B 1_555 1_555
C17B C18B 1_555 1_555
C21B N3B 1_555 1_555
C21B N4B 1_555 1_555
C22B N4B 1_555 1_555
C24B C25B 1_555 1_555
C26B C27B 1_555 1_555
Ni2B_3 O4B 1_555 1_555
Ni2A O6B 1_555 1_555

#END
