
#######################################################################
#
#                 Cambridge Crystallographic Data Centre
#                                CCDC 
#
#######################################################################
#
# If this CIF has been generated from an entry in the Cambridge 
# Structural Database, then it will include bibliographic, chemical, 
# crystal, experimental, refinement or atomic coordinate data resulting 
# from the CCDC's data processing and validation procedures.
#
#######################################################################

data_AGUQID
_symmetry_cell_setting           monoclinic
_symmetry_space_group_name_H-M   'P 21/n'
_symmetry_Int_Tables_number      14
_space_group_name_Hall           '-P 2yn'
loop_
_symmetry_equiv_pos_site_id
_symmetry_equiv_pos_as_xyz
1 x,y,z
2 1/2-x,1/2+y,1/2-z
3 -x,-y,-z
4 1/2+x,1/2-y,1/2+z
_cell_length_a                   9.1215(14)
_cell_length_b                   20.539(3)
_cell_length_c                   13.621(2)
_cell_angle_alpha                90
_cell_angle_beta                 100.457(3)
_cell_angle_gamma                90
_cell_volume                     2509.46
loop_
_atom_site_label
_atom_site_type_symbol
_atom_site_fract_x
_atom_site_fract_y
_atom_site_fract_z
C1 C -1.1066(6) -0.3048(3) 0.3748(5)
H1 H -1.1112 -0.2888 0.4380
C2 C -1.0487(7) -0.3182(3) 0.2324(4)
H2 H -1.0035 -0.3127 0.1770
C3 C -1.1515(7) -0.3637(3) 0.2397(5)
H3 H -1.1895 -0.3947 0.1921
C4 C -1.2855(7) -0.3960(3) 0.3747(5)
C5 C -1.3327(7) -0.4537(3) 0.3335(5)
H4 H -1.3089 -0.4664 0.2727
C6 C -1.4166(7) -0.4938(3) 0.3828(5)
H5 H -1.4473 -0.5337 0.3539
C7 C -1.4573(6) -0.4784(3) 0.4711(5)
C8 C -1.4132(8) -0.4174(3) 0.5117(6)
H6 H -1.4420 -0.4034 0.5703
C9 C -1.3232(8) -0.3774(4) 0.4613(6)
H7 H -1.2899 -0.3374 0.4889
C10 C 0.1800(6) 0.0141(3) 0.3343(4)
H8 H 0.1920 -0.0308 0.3306
C11 C 0.1174(7) 0.1075(3) 0.3771(5)
H9 H 0.0767 0.1404 0.4106
C12 C 0.1906(7) 0.1177(3) 0.3027(5)
H10 H 0.2096 0.1575 0.2750
C13 C 0.3129(6) 0.0417(3) 0.1969(4)
C14 C 0.3023(6) 0.0810(3) 0.1156(4)
H11 H 0.2454 0.1188 0.1118
C15 C 0.3755(6) 0.0651(3) 0.0390(4)
H12 H 0.3675 0.0925 -0.0161
C16 C 0.4620(6) 0.0085(3) 0.0427(4)
C17 C 0.4725(7) -0.0288(3) 0.1269(5)
H13 H 0.5314 -0.0661 0.1325
C18 C 0.3990(7) -0.0133(3) 0.2039(4)
H14 H 0.4079 -0.0399 0.2599
C19 C -0.1031(6) -0.1063(3) 0.3357(4)
C20 C -0.2330(6) -0.1446(3) 0.2765(4)
C21 C -0.2186(6) -0.1755(3) 0.1895(4)
H15 H -0.1305 -0.1712 0.1648
C22 C -0.3347(6) -0.2132(3) 0.1374(4)
C23 C -0.4660(6) -0.2176(3) 0.1751(4)
H16 H -0.5439 -0.2428 0.1413
C24 C -0.4840(6) -0.1857(3) 0.2609(4)
C25 C -0.3659(6) -0.1485(2) 0.3113(4)
H17 H -0.3767 -0.1260 0.3688
C26 C -0.3142(7) -0.2438(3) 0.0409(4)
C27 C -0.6270(7) -0.1888(3) 0.2994(5)
N1 N -1.0190(5) -0.2812(2) 0.3159(4)
N2 N -1.1886(5) -0.3551(2) 0.3308(4)
N3 N 0.1094(5) 0.0424(2) 0.3982(3)
N4 N 0.2329(5) 0.0565(2) 0.2752(3)
O1 O -0.1324(4) -0.06192(18) 0.3891(3)
O2 O 0.0277(4) -0.12327(16) 0.3256(3)
O3 O -0.6440(4) -0.1543(2) 0.3720(3)
O4 O -0.7283(4) -0.22589(19) 0.2585(3)
O5 O -0.2195(5) -0.22297(19) -0.0043(3)
O6 O -0.4050(4) -0.28990(19) 0.0055(3)
O7 O 0.1746(4) -0.07102(17) 0.5383(3)
H18 H 0.2107 -0.0800 0.4867
H19 H 0.1383 -0.1053 0.5594
Zn1 Zn -0.86892(7) -0.20856(3) 0.36026(5)
Zn2 Zn 0.0000 0.0000 0.5000
C1B C -1.8934(6) -0.6952(3) 0.6252(5)
H1B H -1.8888 -0.7112 0.5620
C2B C -1.9513(7) -0.6818(3) 0.7676(4)
H2B H -1.9965 -0.6873 0.8230
C3B C -1.8485(7) -0.6363(3) 0.7603(5)
H3B H -1.8105 -0.6053 0.8079
C4B C -1.7145(7) -0.6040(3) 0.6253(5)
C5B C -1.6673(7) -0.5463(3) 0.6665(5)
H4B H -1.6911 -0.5336 0.7273
C6B C -1.5834(7) -0.5062(3) 0.6172(5)
H5B H -1.5527 -0.4663 0.6461
C7B C -1.5427(6) -0.5216(3) 0.5289(5)
C8B C -1.5868(8) -0.5826(3) 0.4883(6)
H6B H -1.5580 -0.5966 0.4297
C9B C -1.6768(8) -0.6226(4) 0.5387(6)
H7B H -1.7101 -0.6626 0.5111
C10B C 0.8200(6) -0.0141(3) -0.3343(4)
H8B H 0.8080 0.0308 -0.3306
C11B C 0.8826(7) -0.1075(3) -0.3771(5)
H9B H 0.9233 -0.1404 -0.4106
C12B C 0.8094(7) -0.1177(3) -0.3027(5)
H10B H 0.7904 -0.1575 -0.2750
C13B C 0.6871(6) -0.0417(3) -0.1969(4)
C14B C 0.6977(6) -0.0810(3) -0.1156(4)
H11B H 0.7546 -0.1188 -0.1118
C15B C 0.6245(6) -0.0651(3) -0.0390(4)
H12B H 0.6325 -0.0925 0.0161
C16B C 0.5380(6) -0.0085(3) -0.0427(4)
C17B C 0.5275(7) 0.0288(3) -0.1269(5)
H13B H 0.4686 0.0661 -0.1325
C18B C 0.6010(7) 0.0133(3) -0.2039(4)
H14B H 0.5921 0.0399 -0.2599
C19B C 0.1031(6) 0.1063(3) 0.6643(4)
C20B C 0.2330(6) 0.1446(3) 0.7235(4)
C21B C 0.2186(6) 0.1755(3) 0.8105(4)
H15B H 0.1305 0.1712 0.8352
C22B C 0.3347(6) 0.2132(3) 0.8626(4)
C23B C 0.4660(6) 0.2176(3) 0.8249(4)
H16B H 0.5439 0.2428 0.8587
C24B C 0.4840(6) 0.1857(3) 0.7391(4)
C25B C 0.3659(6) 0.1485(2) 0.6887(4)
H17B H 0.3767 0.1260 0.6312
C26B C 0.3142(7) 0.2438(3) 0.9591(4)
C27B C 0.6270(7) 0.1888(3) 0.7006(5)
N1B N -1.9810(5) -0.7188(2) 0.6841(4)
N1B_2 N 1.0190(5) 0.2812(2) 0.6841(4)
N2B N -1.8114(5) -0.6449(2) 0.6692(4)
N3B N 0.8906(5) -0.0424(2) -0.3982(3)
N3B_2 N -0.1094(5) -0.0424(2) 0.6018(3)
N4B N 0.7671(5) -0.0565(2) -0.2752(3)
O1B O 0.1324(4) 0.06192(18) 0.6109(3)
O2B O -0.0277(4) 0.12327(16) 0.6744(3)
O2_2 O -0.9723(4) -0.12327(16) 0.3256(3)
O2B_2 O 0.9723(4) 0.12327(16) 0.6744(3)
O3B O 0.6440(4) 0.1543(2) 0.6280(3)
O4B O 0.7283(4) 0.22589(19) 0.7415(3)
O5B O 0.2195(5) 0.22297(19) 1.0043(3)
O6B O 0.4050(4) 0.28990(19) 0.9945(3)
O6C O -0.9050(4) -0.21010(19) 0.5055(3)
O6A O 0.9050(4) 0.21010(19) 0.4945(3)
O7B O -0.1746(4) 0.07102(17) 0.4617(3)
H18B H -0.2107 0.0800 0.5133
H19B H -0.1383 0.1053 0.4406
Zn1B Zn 0.86892(7) 0.20856(3) 0.63974(5)
Zn1_2 Zn 0.13108(7) -0.20856(3) 0.36026(5)
Zn1C Zn -0.36892(7) -0.29144(3) -0.13974(5)
Zn1B_2 Zn -2.13108(7) -0.79144(3) 0.63974(5)
Zn1B_3 Zn -0.13108(7) 0.20856(3) 0.63974(5)
Zn1A Zn 0.36892(7) 0.29144(3) 1.13974(5)
Zn2_2 Zn 1.0000 0.0000 -0.5000
O8 O 0.5281(5) 0.0652(3) 0.4786(4)
H20 H 0.5630 0.0831 0.4315
H21 H 0.5448 0.0895 0.5300
O9 O 0.3807(14) 0.2363(6) 0.4661(10)
H22 H 0.3548 0.2345 0.4030
H23 H 0.4731 0.2276 0.4822
loop_
_geom_bond_atom_site_label_1
_geom_bond_atom_site_label_2
_geom_bond_site_symmetry_1
_geom_bond_site_symmetry_2
C1 H1 1_555 1_555
C2 H2 1_555 1_555
C3 C2 1_555 1_555
H3 C3 1_555 1_555
C4 C5 1_555 1_555
C5 H4 1_555 1_555
C6 C5 1_555 1_555
H5 C6 1_555 1_555
C7 C6 1_555 1_555
C8 C7 1_555 1_555
H6 C8 1_555 1_555
C9 C4 1_555 1_555
H7 C9 1_555 1_555
C10 H8 1_555 1_555
C11 H9 1_555 1_555
C12 C11 1_555 1_555
H10 C12 1_555 1_555
C13 C14 1_555 1_555
C14 H11 1_555 1_555
C15 C14 1_555 1_555
H12 C15 1_555 1_555
C16 C15 1_555 1_555
C17 C16 1_555 1_555
H13 C17 1_555 1_555
C18 C13 1_555 1_555
H14 C18 1_555 1_555
C19 C20 1_555 1_555
C20 C21 1_555 1_555
C21 H15 1_555 1_555
C22 C21 1_555 1_555
C23 C22 1_555 1_555
H16 C23 1_555 1_555
C24 C23 1_555 1_555
C25 C20 1_555 1_555
H17 C25 1_555 1_555
C26 C22 1_555 1_555
C27 C24 1_555 1_555
N1 C1 1_555 1_555
N2 C1 1_555 1_555
N3 C10 1_555 1_555
N4 C10 1_555 1_555
O1 C19 1_555 1_555
O2 C19 1_555 1_555
O3 C27 1_555 1_555
O4 C27 1_555 1_555
O5 C26 1_555 1_555
O6 C26 1_555 1_555
O7 H18 1_555 1_555
H19 O7 1_555 1_555
O8 H20 1_555 1_555
H21 O8 1_555 1_555
O9 H22 1_555 1_555
H23 O9 1_555 1_555
Zn1 N1 1_555 1_555
Zn2 N3 1_555 1_555
C1B H1B 1_555 1_555
C2B H2B 1_555 1_555
C3B C2B 1_555 1_555
H3B C3B 1_555 1_555
C4B C5B 1_555 1_555
C5B H4B 1_555 1_555
C6B C5B 1_555 1_555
H5B C6B 1_555 1_555
C7B C7 1_555 1_555
C8B C7B 1_555 1_555
H6B C8B 1_555 1_555
C9B C4B 1_555 1_555
H7B C9B 1_555 1_555
C10B H8B 1_555 1_555
C11B H9B 1_555 1_555
C12B C11B 1_555 1_555
H10B C12B 1_555 1_555
C13B C14B 1_555 1_555
C14B H11B 1_555 1_555
C15B C14B 1_555 1_555
H12B C15B 1_555 1_555
C16B C16 1_555 1_555
C17B C16B 1_555 1_555
H13B C17B 1_555 1_555
C18B C13B 1_555 1_555
H14B C18B 1_555 1_555
C19B C20B 1_555 1_555
C20B C21B 1_555 1_555
C21B H15B 1_555 1_555
C22B C21B 1_555 1_555
C23B C22B 1_555 1_555
H16B C23B 1_555 1_555
C24B C23B 1_555 1_555
C25B C20B 1_555 1_555
H17B C25B 1_555 1_555
C26B C22B 1_555 1_555
C27B C24B 1_555 1_555
N1B C1B 1_555 1_555
N1B_2 Zn1B 1_555 1_555
N2B C1B 1_555 1_555
N3B C10B 1_555 1_555
N3B_2 Zn2 1_555 1_555
N4B C10B 1_555 1_555
O1B Zn2 1_555 1_555
O2B C19B 1_555 1_555
O2_2 Zn1 1_555 1_555
O2B_2 Zn1B 1_555 1_555
O3B C27B 1_555 1_555
O4B C27B 1_555 1_555
O5B C26B 1_555 1_555
O6B C26B 1_555 1_555
O6C Zn1 1_555 1_555
O6A Zn1B 1_555 1_555
O7B Zn2 1_555 1_555
H18B O7B 1_555 1_555
H19B O7B 1_555 1_555
Zn1B O3B 1_555 1_555
Zn1_2 O2 1_555 1_555
Zn1C O6 1_555 1_555
Zn1B_2 N1B 1_555 1_555
Zn1B_3 O2B 1_555 1_555
Zn1A O6B 1_555 1_555
Zn2_2 N3B 1_555 1_555
C2 N1 1_555 1_555
C3 N2 1_555 1_555
C4 N2 1_555 1_555
C8 C9 1_555 1_555
C11 N3 1_555 1_555
C12 N4 1_555 1_555
C13 N4 1_555 1_555
C17 C18 1_555 1_555
C24 C25 1_555 1_555
O1 Zn2 1_555 1_555
O3 Zn1 1_555 1_555
O4 Zn1 1_555 1_555
O7 Zn2 1_555 1_555
C2B N1B 1_555 1_555
C3B N2B 1_555 1_555
C4B N2B 1_555 1_555
C6B C7B 1_555 1_555
C8B C9B 1_555 1_555
C11B N3B 1_555 1_555
C12B N4B 1_555 1_555
C13B N4B 1_555 1_555
C15B C16B 1_555 1_555
C17B C18B 1_555 1_555
C19B O1B 1_555 1_555
C24B C25B 1_555 1_555
O4B Zn1B 1_555 1_555

#END
