
#######################################################################
#
#                 Cambridge Crystallographic Data Centre
#                                CCDC 
#
#######################################################################
#
# If this CIF has been generated from an entry in the Cambridge 
# Structural Database, then it will include bibliographic, chemical, 
# crystal, experimental, refinement or atomic coordinate data resulting 
# from the CCDC's data processing and validation procedures.
#
#######################################################################

data_AGUQUP
_symmetry_cell_setting           monoclinic
_symmetry_space_group_name_H-M   'P 21/n'
_symmetry_Int_Tables_number      14
_space_group_name_Hall           '-P 2yn'
loop_
_symmetry_equiv_pos_site_id
_symmetry_equiv_pos_as_xyz
1 x,y,z
2 1/2-x,1/2+y,1/2-z
3 -x,-y,-z
4 1/2+x,1/2-y,1/2+z
_cell_length_a                   8.9636(10)
_cell_length_b                   20.589(2)
_cell_length_c                   13.5194(15)
_cell_angle_alpha                90
_cell_angle_beta                 99.469(2)
_cell_angle_gamma                90
_cell_volume                     2461.03
loop_
_atom_site_label
_atom_site_type_symbol
_atom_site_fract_x
_atom_site_fract_y
_atom_site_fract_z
O2 O 1.2538(7) 0.4312(2) -1.0322(4)
H2 H 1.1863 0.4509 -1.0728
H3 H 1.2221 0.4250 -0.9771
C1 C 1.4118(4) 0.60934(17) -0.8736(3)
H4 H 1.4563 0.6417 -0.9069
C2 C 1.3316(4) 0.61926(17) -0.7999(3)
H5 H 1.3112 0.6591 -0.7727
C3 C 1.3427(4) 0.51637(17) -0.8313(3)
H6 H 1.3293 0.4717 -0.8280
C4 C 1.1978(4) 0.54394(17) -0.6960(3)
C5 C 1.1991(4) 0.58392(16) -0.6153(3)
H7 H 1.2532 0.6226 -0.6111
C6 C 1.1196(4) 0.56660(17) -0.5400(3)
H8 H 1.1195 0.5950 -0.4864
C7 C 1.0407(4) 0.50928(18) -0.5406(3)
C8 C 1.0393(4) 0.47074(18) -0.6240(3)
H9 H 0.9858 0.4319 -0.6281
C9 C 1.1141(5) 0.48761(18) -0.7016(3)
H10 H 1.1080 0.4609 -0.7577
C10 C 0.9603(4) 0.69157(17) -1.7613(3)
H11 H 1.0095 0.6996 -1.8155
C11 C 0.8506(4) 0.64700(19) -1.7609(3)
H12 H 0.8108 0.6193 -1.8129
C12 C 0.8968(4) 0.69716(17) -1.6182(3)
H13 H 0.8917 0.7094 -1.5526
C13 C 0.7117(4) 0.60842(18) -1.6252(3)
C14 C 0.6818(4) 0.54707(18) -1.6620(3)
H14 H 0.7182 0.5330 -1.7189
C15 C 0.5957(4) 0.50632(19) -1.6121(3)
H15 H 0.5734 0.4651 -1.6386
C16 C 0.5416(4) 0.52265(18) -1.5267(4)
C17 C 0.5696(5) 0.58616(19) -1.4952(4)
H16 H 0.5310 0.6010 -1.4395
C18 C 0.6535(5) 0.6282(2) -1.5440(4)
H17 H 0.6700 0.6706 -1.5208
C19 C 1.2035(4) 0.73376(16) -1.4446(3)
C20 C 1.1751(4) 0.70459(16) -1.3469(3)
C21 C 1.2925(4) 0.66795(16) -1.2927(3)
C22 C 1.2657(4) 0.63804(16) -1.2044(3)
C23 C 1.1284(4) 0.64322(16) -1.1716(3)
H18 H 1.1129 0.6219 -1.1135
C24 C 1.0124(4) 0.68057(16) -1.2257(3)
C25 C 1.0381(4) 0.71127(17) -1.3122(3)
H19 H 0.9624 0.7369 -1.3479
C26 C 0.8651(4) 0.68736(17) -1.1893(3)
C27 C 1.3938(4) 0.59972(17) -1.1424(3)
Cu1 Cu 1.5000 0.5000 -1.0000
Cu2 Cu 1.14452(5) 0.78735(2) -1.62343(4)
N1 N 1.4183(3) 0.54393(14) -0.8926(2)
N2 N 1.2850(3) 0.55918(14) -0.7721(2)
N3 N 0.9894(3) 0.72322(14) -1.6720(2)
N4 N 0.8098(3) 0.65088(15) -1.6679(3)
O3 O 1.3095(3) 0.71328(12) -1.4826(2)
O4 O 1.1105(3) 0.77719(11) -1.48450(19)
O5 O 0.7622(3) 0.72222(12) -1.23812(19)
O6 O 0.8446(3) 0.66131(12) -1.1094(2)
O7 O 1.3569(3) 0.55200(12) -1.0946(2)
O8 O 1.5270(3) 0.61820(11) -1.1445(2)
O2B O 1.7462(7) 0.5688(2) -0.9678(4)
H2B H 1.8137 0.5491 -0.9272
H3B H 1.7779 0.5750 -1.0229
C1B C 0.5882(4) 0.39066(17) -0.1264(3)
H4B H 0.5437 0.3583 -0.0931
C2B C 0.6684(4) 0.38074(17) -0.2001(3)
H5B H 0.6888 0.3409 -0.2273
C3B C 0.6573(4) 0.48363(17) -0.1687(3)
H6B H 0.6707 0.5283 -0.1720
C4B C 0.8022(4) 0.45606(17) -0.3040(3)
C5B C 0.8009(4) 0.41608(16) -0.3847(3)
H7B H 0.7468 0.3774 -0.3889
C6B C 0.8804(4) 0.43340(17) -0.4600(3)
H8B H 0.8805 0.4050 -0.5136
C7B C 0.9593(4) 0.49072(18) -0.4594(3)
C8B C 0.9607(4) 0.52926(18) -0.3760(3)
H9B H 1.0142 0.5681 -0.3719
C9B C 0.8859(5) 0.51239(18) -0.2984(3)
H10B H 0.8920 0.5391 -0.2423
C10B C 0.0397(4) 0.30843(17) -1.2387(3)
H11B H -0.0095 0.3004 -1.1845
C11B C 0.1494(4) 0.35300(19) -1.2391(3)
H12B H 0.1892 0.3807 -1.1871
C12B C 0.1032(4) 0.30284(17) -1.3818(3)
H13B H 0.1083 0.2906 -1.4474
C13B C 0.2883(4) 0.39158(18) -1.3748(3)
C14B C 0.3182(4) 0.45293(18) -1.3380(3)
H14B H 0.2818 0.4670 -1.2811
C15B C 0.4043(4) 0.49368(19) -1.3879(3)
H15B H 0.4266 0.5349 -1.3614
C16B C 0.4584(4) 0.47735(18) -1.4733(4)
C17B C 0.4304(5) 0.41384(19) -1.5048(4)
H16B H 0.4690 0.3990 -1.5605
C18B C 0.3465(5) 0.3718(2) -1.4560(4)
H17B H 0.3300 0.3294 -1.4792
C19B C 1.7965(4) 0.26624(16) -0.5554(3)
C20B C 1.8249(4) 0.29541(16) -0.6531(3)
C21B C 1.7075(4) 0.33205(16) -0.7073(3)
C22B C 1.7343(4) 0.36196(16) -0.7956(3)
C23B C 1.8716(4) 0.35678(16) -0.8284(3)
H18B H 1.8871 0.3781 -0.8865
C24B C 1.9876(4) 0.31943(16) -0.7743(3)
C25B C 1.9619(4) 0.28873(17) -0.6878(3)
H19B H 2.0376 0.2631 -0.6521
C26B C 2.1349(4) 0.31264(17) -0.8107(3)
C27B C 1.6062(4) 0.40028(17) -0.8576(3)
Cu1_2 Cu 0.5000 0.5000 0.0000
Cu2B Cu 1.85548(5) 0.21265(2) -0.37657(4)
Cu2C Cu 0.64452(5) 0.71265(2) -1.12343(4)
Cu2C_2 Cu 1.64452(5) 0.71265(2) -1.12343(4)
Cu2B_2 Cu -0.14452(5) 0.21265(2) -1.37657(4)
Cu2A Cu 2.35548(5) 0.28735(2) -0.87657(4)
Cu2A_2 Cu 1.35548(5) 0.28735(2) -0.87657(4)
N1B N 0.5817(3) 0.45607(14) -0.1074(2)
N1B_2 N 1.5817(3) 0.45607(14) -1.1074(2)
N2B N 0.7150(3) 0.44082(14) -0.2279(2)
N3B N 0.0106(3) 0.27678(14) -1.3280(2)
N3B_2 N 2.0106(3) 0.27678(14) -0.3280(2)
N4B N 0.1902(3) 0.34912(15) -1.3321(3)
O3B O 1.6905(3) 0.28672(12) -0.5174(2)
O4B O 1.8895(3) 0.22281(11) -0.51550(19)
O5B O 2.2378(3) 0.27778(12) -0.76188(19)
O5C O 1.2622(3) 0.77778(12) -1.73812(19)
O5A O 1.7378(3) 0.22222(12) -0.26188(19)
O6B O 2.1554(3) 0.33869(12) -0.8906(2)
O6C O 1.3446(3) 0.83869(12) -1.6094(2)
O6A O 1.6554(3) 0.16131(12) -0.3906(2)
O7B O 1.6431(3) 0.44800(12) -0.9054(2)
O8B O 1.4730(3) 0.38180(11) -0.8555(2)
O8C O 1.0270(3) 0.88180(11) -1.6445(2)
O8A O 1.9730(3) 0.11820(11) -0.3555(2)
O9 O 0.8717(13) 0.2655(5) 0.9540(11)
H20 H 0.9650 0.2631 0.9789
H21 H 0.8346 0.3002 0.9738
O1 O 0.0000 0.5000 0.0000
H1 H 0.0921 0.5108 0.0178
H1B H -0.0921 0.4892 -0.0178
H22? H -0.0082 0.4762 -0.0519
loop_
_geom_bond_atom_site_label_1
_geom_bond_atom_site_label_2
_geom_bond_site_symmetry_1
_geom_bond_site_symmetry_2
O1 H1 1_555 1_555
O2 H2 1_555 1_555
H3 O2 1_555 1_555
C1 H4 1_555 1_555
C2 C1 1_555 1_555
H5 C2 1_555 1_555
C3 H6 1_555 1_555
C4 C5 1_555 1_555
C5 H7 1_555 1_555
C6 C5 1_555 1_555
H8 C6 1_555 1_555
C7 C6 1_555 1_555
C8 C7 1_555 1_555
H9 C8 1_555 1_555
C9 C4 1_555 1_555
H10 C9 1_555 1_555
C10 H11 1_555 1_555
C11 C10 1_555 1_555
H12 C11 1_555 1_555
C12 H13 1_555 1_555
C13 C14 1_555 1_555
C14 H14 1_555 1_555
C15 C14 1_555 1_555
H15 C15 1_555 1_555
C16 C15 1_555 1_555
C17 C16 1_555 1_555
H16 C17 1_555 1_555
C18 C13 1_555 1_555
H17 C18 1_555 1_555
C19 C20 1_555 1_555
C20 C21 1_555 1_555
C21 C22 1_555 1_555
C22 C23 1_555 1_555
C23 H18 1_555 1_555
C24 C23 1_555 1_555
C25 C20 1_555 1_555
H19 C25 1_555 1_555
C26 C24 1_555 1_555
C27 C22 1_555 1_555
Cu1 O2 1_555 1_555
Cu2 N3 1_555 1_555
N1 C1 1_555 1_555
N2 C2 1_555 1_555
N3 C10 1_555 1_555
N4 C11 1_555 1_555
O3 C19 1_555 1_555
O4 C19 1_555 1_555
O5 C26 1_555 1_555
O6 C26 1_555 1_555
O7 C27 1_555 1_555
O8 C27 1_555 1_555
O9 H20 1_555 1_555
H21 O9 1_555 1_555
H1B O1 1_555 1_555
O2B Cu1 1_555 1_555
H2B O2B 1_555 1_555
H3B O2B 1_555 1_555
C1B H4B 1_555 1_555
C2B C1B 1_555 1_555
H5B C2B 1_555 1_555
C3B H6B 1_555 1_555
C4B C5B 1_555 1_555
C5B H7B 1_555 1_555
C6B C5B 1_555 1_555
H8B C6B 1_555 1_555
C7B C7 1_555 1_555
C8B C7B 1_555 1_555
H9B C8B 1_555 1_555
C9B C4B 1_555 1_555
H10B C9B 1_555 1_555
C10B H11B 1_555 1_555
C11B C10B 1_555 1_555
H12B C11B 1_555 1_555
C12B H13B 1_555 1_555
C13B C14B 1_555 1_555
C14B H14B 1_555 1_555
C15B C14B 1_555 1_555
H15B C15B 1_555 1_555
C16B C16 1_555 1_555
C17B C16B 1_555 1_555
H16B C17B 1_555 1_555
C18B C13B 1_555 1_555
H17B C18B 1_555 1_555
C19B C20B 1_555 1_555
C20B C21B 1_555 1_555
C21B C22B 1_555 1_555
C22B C23B 1_555 1_555
C23B H18B 1_555 1_555
C24B C23B 1_555 1_555
C25B C20B 1_555 1_555
H19B C25B 1_555 1_555
C26B C24B 1_555 1_555
C27B C22B 1_555 1_555
Cu1_2 N1B 1_555 1_555
Cu2B N3B_2 1_555 1_555
Cu2C O5 1_555 1_555
Cu2C_2 O8 1_555 1_555
Cu2B_2 N3B 1_555 1_555
Cu2A O5B 1_555 1_555
Cu2A_2 O8B 1_555 1_555
N1B C1B 1_555 1_555
N1B_2 Cu1 1_555 1_555
N2B C2B 1_555 1_555
N3B C10B 1_555 1_555
N4B C11B 1_555 1_555
O3B C19B 1_555 1_555
O4B C19B 1_555 1_555
O5B C26B 1_555 1_555
O5C Cu2 1_555 1_555
O5A Cu2B 1_555 1_555
O6B C26B 1_555 1_555
O6C Cu2 1_555 1_555
O6A Cu2B 1_555 1_555
O7B Cu1 1_555 1_555
O8B C27B 1_555 1_555
O8C Cu2 1_555 1_555
O8A Cu2B 1_555 1_555
C3 N1 1_555 1_555
C3 N2 1_555 1_555
C4 N2 1_555 1_555
C8 C9 1_555 1_555
C12 N3 1_555 1_555
C12 N4 1_555 1_555
C13 N4 1_555 1_555
C17 C18 1_555 1_555
C24 C25 1_555 1_555
Cu1 N1 1_555 1_555
Cu1 O7 1_555 1_555
Cu2 O4 1_555 1_555
O6 Cu2C 1_555 1_555
C3B N1B 1_555 1_555
C3B N2B 1_555 1_555
C4B N2B 1_555 1_555
C6B C7B 1_555 1_555
C8B C9B 1_555 1_555
C12B N3B 1_555 1_555
C12B N4B 1_555 1_555
C13B N4B 1_555 1_555
C15B C16B 1_555 1_555
C17B C18B 1_555 1_555
C24B C25B 1_555 1_555
C27B O7B 1_555 1_555
Cu2B O4B 1_555 1_555
Cu2A O6B 1_555 1_555

#END
