
#######################################################################
#
#                 Cambridge Crystallographic Data Centre
#                                CCDC 
#
#######################################################################
#
# If this CIF has been generated from an entry in the Cambridge 
# Structural Database, then it will include bibliographic, chemical, 
# crystal, experimental, refinement or atomic coordinate data resulting 
# from the CCDC's data processing and validation procedures.
#
#######################################################################

data_AGURAW
_symmetry_cell_setting           triclinic
_symmetry_space_group_name_H-M   'P -1'
_symmetry_Int_Tables_number      2
_space_group_name_Hall           '-P 1'
loop_
_symmetry_equiv_pos_site_id
_symmetry_equiv_pos_as_xyz
1 x,y,z
2 -x,-y,-z
_cell_length_a                   7.289(2)
_cell_length_b                   7.376(2)
_cell_length_c                   7.5110(19)
_cell_angle_alpha                113.18(3)
_cell_angle_beta                 95.22(3)
_cell_angle_gamma                115.55(3)
_cell_volume                     317.935
loop_
_atom_site_label
_atom_site_type_symbol
_atom_site_fract_x
_atom_site_fract_y
_atom_site_fract_z
Tl1 Tl 0.48452(16) 0.21682(16) 0.43955(17)
Zn1 Zn 0.0000 0.0000 0.0000
O1 O 0.091(3) 0.206(3) 0.321(3)
O2 O 0.274(2) 0.259(2) 0.014(2)
O3 O -0.215(2) 0.035(2) 0.378(3)
O4 O 0.202(3) 0.884(3) 1.067(3)
O5 O 0.329(3) 0.690(2) 1.140(2)
C1 C -0.031(3) 0.185(3) 0.430(4)
C2 C 0.057(3) 0.374(3) 0.631(4)
C3 C 0.140(3) 0.538(3) 0.806(3)
C4 C 0.227(3) 0.713(3) 1.020(4)
Tl1A Tl -0.48452(16) -0.21682(16) -0.43955(17)
Tl1A_2 Tl -0.48452(16) -0.21682(16) 0.56045(17)
Tl1_2 Tl 0.48452(16) 1.21682(16) 1.43955(17)
Tl1_3 Tl 0.48452(16) 0.21682(16) -0.56045(17)
Tl1A_3 Tl -0.48452(16) -1.21682(16) -1.43955(17)
Zn1_2 Zn 0.0000 1.0000 1.0000
Zn1_3 Zn 0.0000 -1.0000 -1.0000
O1A O -0.091(3) -0.206(3) -0.321(3)
O2A O -0.274(2) -0.259(2) -0.014(2)
O3A O 0.215(2) -0.035(2) -0.378(3)
O3A_2 O 0.215(2) -0.035(2) 0.622(3)
O3_2 O -0.215(2) 0.035(2) -0.622(3)
O4A O -0.202(3) -0.884(3) -1.067(3)
O4_2 O 0.202(3) -0.116(3) 0.067(3)
O4A_2 O -0.202(3) 0.116(3) -0.067(3)
O5A O -0.329(3) -0.690(2) -1.140(2)
C1A C 0.031(3) -0.185(3) -0.430(4)
C2A C -0.057(3) -0.374(3) -0.631(4)
C3A C -0.140(3) -0.538(3) -0.806(3)
C4A C -0.227(3) -0.713(3) -1.020(4)
loop_
_geom_bond_atom_site_label_1
_geom_bond_atom_site_label_2
_geom_bond_site_symmetry_1
_geom_bond_site_symmetry_2
Tl1 O1 1_555 1_555
Zn1 O1 1_555 1_555
O1 C1 1_555 1_555
O2 Zn1 1_555 1_555
O3 C1 1_555 1_555
O4 C4 1_555 1_555
O5 C4 1_555 1_555
C1 C2 1_555 1_555
C2 C3 1_555 1_555
C3 C4 1_555 1_555
Tl1A O1A 1_555 1_555
Tl1A_2 O3 1_555 1_555
Tl1_2 O4 1_555 1_555
Tl1_3 O3A 1_555 1_555
Tl1A_3 O4A 1_555 1_555
Zn1_2 O4 1_555 1_555
Zn1_3 O4A 1_555 1_555
O1A Zn1 1_555 1_555
O2A Zn1 1_555 1_555
O3A C1A 1_555 1_555
O3A_2 Tl1 1_555 1_555
O3_2 Tl1A 1_555 1_555
O4A C4A 1_555 1_555
O4_2 Tl1 1_555 1_555
O4A_2 Zn1 1_555 1_555
O5A C4A 1_555 1_555
C1A O1A 1_555 1_555
C2A C1A 1_555 1_555
C3A C2A 1_555 1_555
C4A C3A 1_555 1_555
Zn1 O4_2 1_555 1_555
Tl1A O4A_2 1_555 1_555

#END
