
#######################################################################
#
#                 Cambridge Crystallographic Data Centre
#                                CCDC 
#
#######################################################################
#
# If this CIF has been generated from an entry in the Cambridge 
# Structural Database, then it will include bibliographic, chemical, 
# crystal, experimental, refinement or atomic coordinate data resulting 
# from the CCDC's data processing and validation procedures.
#
#######################################################################

data_AGUSUR
_symmetry_cell_setting           hexagonal
_symmetry_space_group_name_H-M   'P 63/m'
_symmetry_Int_Tables_number      176
_space_group_name_Hall           '-P 6c'
loop_
_symmetry_equiv_pos_site_id
_symmetry_equiv_pos_as_xyz
1 x,y,z
2 -y,x-y,z
3 -x+y,-x,z
4 -x,-y,1/2+z
5 y,-x+y,1/2+z
6 x-y,x,1/2+z
7 -x,-y,-z
8 y,-x+y,-z
9 x-y,x,-z
10 x,y,1/2-z
11 -y,x-y,1/2-z
12 -x+y,-x,1/2-z
_cell_length_a                   12.2263(6)
_cell_length_b                   12.2263(6)
_cell_length_c                   6.8854(6)
_cell_angle_alpha                90
_cell_angle_beta                 90
_cell_angle_gamma                120
_cell_volume                     891.353
loop_
_atom_site_label
_atom_site_type_symbol
_atom_site_fract_x
_atom_site_fract_y
_atom_site_fract_z
Li1 Li 0.3532(3) 1.0870(3) 0.2500
O1 O 0.25424(8) 1.05350(8) 0.01043(11)
H1 H 0.3084(19) 1.0652(18) -0.076(3)
H2 H 0.194(2) 0.9779(19) 0.005(2)
N1 N 0.3333 0.6667 0.2500
N2 N 0.31608(11) 0.85018(12) 0.2500
N3 N 0.13503(12) 0.65586(12) 0.2500
N4 N 0.49259(12) 1.04132(12) 0.2500
N5 N 0.72464(13) 1.18126(13) 0.2500
C1 C 0.26058(14) 0.72593(13) 0.2500
C2 C 0.44375(13) 0.91563(13) 0.2500
C3 C 0.61672(14) 1.11269(13) 0.2500
Li1A Li -0.0870(3) 0.2662(4) 0.2500
Li1B Li 0.7338(4) 0.6468(3) 0.2500
Li1A_2 Li 0.9130(3) 1.2662(4) 0.2500
Li1B_2 Li -0.2662(4) 0.6468(3) 0.2500
Li1_2 Li 0.3532(3) 0.0870(3) 0.2500
O1I O 0.25424(8) 1.05350(8) 0.48957(11)
O1A O -0.05350(8) 0.20074(11) 0.01043(11)
O1J O -0.05350(8) 0.20074(11) 0.48957(11)
O1B O 0.79926(11) 0.74576(8) 0.01043(11)
O1K O 0.79926(11) 0.74576(8) 0.48957(11)
H1I H 0.3084(19) 1.0652(18) 0.576(3)
H1A H -0.0652(18) 0.2432(26) -0.076(3)
H1J H -0.0652(18) 0.2432(26) 0.576(3)
H1B H 0.7568(26) 0.6916(19) -0.076(3)
H1K H 0.7568(26) 0.6916(19) 0.576(3)
H2I H 0.194(2) 0.9779(19) 0.495(2)
H2A H 0.0221(19) 0.2161(28) 0.005(2)
H2J H 0.0221(19) 0.2161(28) 0.495(2)
H2B H 0.7839(28) 0.806(2) 0.005(2)
H2K H 0.7839(28) 0.806(2) 0.495(2)
N2A N 0.14982(12) 0.46590(16) 0.2500
N2B N 0.53410(16) 0.68392(11) 0.2500
N3B N 0.52083(17) 0.86497(12) 0.2500
N3A N 0.34414(12) 0.47917(17) 0.2500
N4A N -0.04132(12) 0.45127(17) 0.2500
N4B N 0.54873(17) 0.50741(12) 0.2500
N5A N -0.18126(13) 0.54338(18) 0.2500
N5B N 0.45662(18) 0.27536(13) 0.2500
N5B_2 N 0.45662(18) 1.27536(13) 0.2500
N5_2 N -0.27536(13) 0.18126(13) 0.2500
N5A_2 N 0.81874(13) 0.54338(18) 0.2500
C1B C 0.46535(19) 0.73942(14) 0.2500
C1A C 0.27407(13) 0.53465(19) 0.2500
C2A C 0.08437(13) 0.52812(18) 0.2500
C2B C 0.47188(18) 0.55625(13) 0.2500
C3A C -0.11269(13) 0.50403(19) 0.2500
C3B C 0.49597(19) 0.38328(14) 0.2500
loop_
_geom_bond_atom_site_label_1
_geom_bond_atom_site_label_2
_geom_bond_site_symmetry_1
_geom_bond_site_symmetry_2
Li1 O1 1_555 1_555
O1 H1 1_555 1_555
H2 O1 1_555 1_555
N1 C1 1_555 1_555
N2 C1 1_555 1_555
N3 C1 1_555 1_555
N4 Li1 1_555 1_555
N5 C3 1_555 1_555
C2 N2 1_555 1_555
C3 N4 1_555 1_555
Li1A O1A 1_555 1_555
Li1B O1B 1_555 1_555
Li1A_2 N5 1_555 1_555
Li1B_2 N5A 1_555 1_555
Li1_2 N5B 1_555 1_555
O1I Li1 1_555 1_555
O1A H1A 1_555 1_555
O1J Li1A 1_555 1_555
O1B H1B 1_555 1_555
O1K Li1B 1_555 1_555
H1I O1I 1_555 1_555
H1J O1J 1_555 1_555
H1K O1K 1_555 1_555
H2I O1I 1_555 1_555
H2A O1A 1_555 1_555
H2J O1J 1_555 1_555
H2B O1B 1_555 1_555
H2K O1K 1_555 1_555
N2A C1A 1_555 1_555
N2B C1B 1_555 1_555
N3B C2 1_555 1_555
N3A C1A 1_555 1_555
N4A Li1A 1_555 1_555
N4B Li1B 1_555 1_555
N5A C3A 1_555 1_555
N5B C3B 1_555 1_555
N5B_2 Li1 1_555 1_555
N5_2 Li1A 1_555 1_555
N5A_2 Li1B 1_555 1_555
C1B N1 1_555 1_555
C1A N1 1_555 1_555
C2A N3 1_555 1_555
C2B N2B 1_555 1_555
C3A N4A 1_555 1_555
C3B N4B 1_555 1_555
N4 C2 1_555 1_555
N2A C2A 1_555 1_555
N3B C1B 1_555 1_555
N3A C2B 1_555 1_555
N4A C2A 1_555 1_555
N4B C2B 1_555 1_555

#END
