
#######################################################################
#
#                 Cambridge Crystallographic Data Centre
#                                CCDC 
#
#######################################################################
#
# If this CIF has been generated from an entry in the Cambridge 
# Structural Database, then it will include bibliographic, chemical, 
# crystal, experimental, refinement or atomic coordinate data resulting 
# from the CCDC's data processing and validation procedures.
#
#######################################################################

data_AGUTEC
_symmetry_cell_setting           monoclinic
_symmetry_space_group_name_H-M   'C c'
_symmetry_Int_Tables_number      9
_space_group_name_Hall           'C -2yc'
loop_
_symmetry_equiv_pos_site_id
_symmetry_equiv_pos_as_xyz
1 x,y,z
2 x,-y,1/2+z
3 1/2+x,1/2+y,z
4 1/2+x,1/2-y,1/2+z
_cell_length_a                   17.1818(14)
_cell_length_b                   12.1851(12)
_cell_length_c                   13.1480(12)
_cell_angle_alpha                90
_cell_angle_beta                 117.191(10)
_cell_angle_gamma                90
_cell_volume                     2448.49
loop_
_atom_site_label
_atom_site_type_symbol
_atom_site_fract_x
_atom_site_fract_y
_atom_site_fract_z
Cu1 Cu 0.48788(3) 0.75255(5) 0.04253(4)
O1 O 0.6446(2) 0.7621(3) 0.1141(3)
H1 H 0.6673 0.7617 0.0686
H2 H 0.6640 0.7071 0.1585
O2 O 0.3352(2) 0.7417(3) -0.0272(3)
H3 H 0.3007 0.6950 -0.0744
H4 H 0.3107 0.7684 0.0107
N1 N 0.5004(2) 0.5971(3) 0.0944(3)
N2 N 0.5638(2) 0.5257(4) 0.0983(3)
N3 N 0.4924(2) 0.4525(3) 0.1820(3)
N4 N 0.4039(3) 0.2473(4) 0.2857(3)
N5 N 0.4685(2) 0.2943(3) 0.3855(3)
N6 N 0.4687(2) 0.3796(3) 0.2429(3)
N7 N 0.5085(2) 0.7985(4) 0.1998(3)
N8 N 0.5690(3) 0.7430(4) 0.2977(3)
N9 N 0.5030(3) 0.8703(3) 0.3455(3)
N10 N 0.4742(3) 1.0899(3) 0.4923(3)
N11 N 0.4173(3) 1.0152(4) 0.5025(3)
N12 N 0.4810(2) 0.9430(4) 0.4086(3)
C1 C 0.4577(3) 0.5516(4) 0.1444(4)
H7 H 0.4109 0.5832 0.1524
C2 C 0.5583(3) 0.4384(4) 0.1514(4)
H8 H 0.5937 0.3757 0.1665
C3 C 0.4055(3) 0.3005(4) 0.2002(4)
H9 H 0.3693 0.2864 0.1223
C4 C 0.5068(3) 0.3731(4) 0.3593(4)
H10 H 0.5525 0.4175 0.4110
C5 C 0.4701(3) 0.8743(4) 0.2300(4)
H11 H 0.4271 0.9233 0.1807
C6 C 0.5642(3) 0.7889(4) 0.3840(4)
H12 H 0.5977 0.7690 0.4611
C7 C 0.5118(3) 1.0456(4) 0.4364(4)
H13 H 0.5532 1.0793 0.4185
C8 C 0.4221(3) 0.9263(4) 0.4511(4)
H14 H 0.3905 0.8613 0.4440
Cu1A Cu 0.48788(3) 0.24745(5) 0.54253(4)
Cu1A_2 Cu 0.48788(3) 1.24745(5) 0.54253(4)
N5A N 0.4685(2) 0.7057(3) -0.1145(3)
N10A N 0.4742(3) 0.9101(3) -0.0077(3)
Cd1 Cd 0.24333(2) 0.61369(3) 0.22273(3)
Br1 Br 0.25053(3) 0.82936(5) 0.14990(4)
Br2 Br 0.09709(3) 0.64259(5) 0.23278(4)
Br3 Br 0.39692(3) 0.62460(5) 0.38917(4)
Br4 Br 0.22998(3) 0.51216(5) 0.04310(4)
O3 O 0.2311(3) 0.4176(3) 0.2938(3)
H5 H 0.2036 0.3627 0.2533
H6 H 0.2068 0.4366 0.3347
O4 O 0.7348(3) 0.2858(4) 0.4848(3)
H15 H 0.7249 0.2485 0.4256
H16 H 0.7327 0.3535 0.4685
O5 O 0.7476(4) 0.6002(5) 0.2753(5)
H17 H 0.7494 0.5343 0.2486
H18 H 0.7978 0.6115 0.3299
O6 O 0.6840(3) 0.4993(4) 0.4176(4)
H19 H 0.6977 0.5311 0.4810
H20 H 0.7039 0.5371 0.3801
loop_
_geom_bond_atom_site_label_1
_geom_bond_atom_site_label_2
_geom_bond_site_symmetry_1
_geom_bond_site_symmetry_2
Cu1 O1 1_555 1_555
Cd1 Br1 1_555 1_555
Br2 Cd1 1_555 1_555
Br3 Cd1 1_555 1_555
Br4 Cd1 1_555 1_555
O1 H1 1_555 1_555
H2 O1 1_555 1_555
O2 Cu1 1_555 1_555
H3 O2 1_555 1_555
H4 O2 1_555 1_555
O3 Cd1 1_555 1_555
H5 O3 1_555 1_555
H6 O3 1_555 1_555
N1 Cu1 1_555 1_555
N2 N1 1_555 1_555
N3 N6 1_555 1_555
N4 N5 1_555 1_555
N5 C4 1_555 1_555
N6 C3 1_555 1_555
N7 Cu1 1_555 1_555
N8 N7 1_555 1_555
N9 N12 1_555 1_555
N10 N11 1_555 1_555
N11 C8 1_555 1_555
N12 C7 1_555 1_555
C1 N1 1_555 1_555
H7 C1 1_555 1_555
C2 N2 1_555 1_555
H8 C2 1_555 1_555
C3 N4 1_555 1_555
H9 C3 1_555 1_555
C4 N6 1_555 1_555
H10 C4 1_555 1_555
C5 N7 1_555 1_555
H11 C5 1_555 1_555
C6 N8 1_555 1_555
H12 C6 1_555 1_555
C7 N10 1_555 1_555
H13 C7 1_555 1_555
C8 N12 1_555 1_555
H14 C8 1_555 1_555
O4 H15 1_555 1_555
H16 O4 1_555 1_555
O5 H17 1_555 1_555
H18 O5 1_555 1_555
O6 H19 1_555 1_555
H20 O6 1_555 1_555
Cu1A N5 1_555 1_555
Cu1A_2 N10 1_555 1_555
N5A Cu1 1_555 1_555
N10A Cu1 1_555 1_555
N3 C1 1_555 1_555
N3 C2 1_555 1_555
N9 C5 1_555 1_555
N9 C6 1_555 1_555

#END
