
#######################################################################
#
#                 Cambridge Crystallographic Data Centre
#                                CCDC 
#
#######################################################################
#
# If this CIF has been generated from an entry in the Cambridge 
# Structural Database, then it will include bibliographic, chemical, 
# crystal, experimental, refinement or atomic coordinate data resulting 
# from the CCDC's data processing and validation procedures.
#
#######################################################################

data_AGUTOM
_symmetry_cell_setting           monoclinic
_symmetry_space_group_name_H-M   'P 21/n'
_symmetry_Int_Tables_number      14
_space_group_name_Hall           '-P 2yn'
loop_
_symmetry_equiv_pos_site_id
_symmetry_equiv_pos_as_xyz
1 x,y,z
2 1/2-x,1/2+y,1/2-z
3 -x,-y,-z
4 1/2+x,1/2-y,1/2+z
_cell_length_a                   7.6691(11)
_cell_length_b                   12.8998(13)
_cell_length_c                   10.1820(13)
_cell_angle_alpha                90
_cell_angle_beta                 94.073(16)
_cell_angle_gamma                90
_cell_volume                     1004.76
loop_
_atom_site_label
_atom_site_type_symbol
_atom_site_fract_x
_atom_site_fract_y
_atom_site_fract_z
Cu1 Cu 0.5000 0.5000 0.0000
O1 O 0.6783(2) 0.46471(12) 0.19789(17)
H1 H 0.7119 0.5001 0.2686
H2 H 0.7695 0.4262 0.1845
N1 N 0.3309(2) 0.56478(11) 0.12180(16)
N2 N 0.1575(2) 0.53278(13) 0.11971(19)
N3 N 0.2072(2) 0.65119(11) 0.26979(16)
N4 N 0.1041(2) 0.85973(11) 0.46736(16)
N5 N 0.1663(3) 0.79026(13) 0.56390(17)
N6 N 0.1792(2) 0.72074(11) 0.36973(15)
C1 C 0.3582(3) 0.63543(14) 0.21148(19)
H5 H 0.4646 0.6698 0.2324
C2 C 0.0871(3) 0.58661(16) 0.2097(2)
H6 H -0.0301 0.5815 0.2303
C3 C 0.1136(3) 0.81743(14) 0.3517(2)
H7 H 0.0807 0.8486 0.2703
C4 C 0.2097(3) 0.70674(16) 0.5023(2)
H8 H 0.2551 0.6461 0.5429
Cu1A Cu 0.0000 1.0000 0.5000
Cu1A_2 Cu 0.0000 0.0000 0.5000
O1B O 0.3217(2) 0.53529(12) -0.19789(17)
H1B H 0.2881 0.4999 -0.2686
H2B H 0.2305 0.5738 -0.1845
N1A N 0.1691(2) 0.06478(11) 0.37820(16)
N1B N 0.6691(2) 0.43522(11) -0.12180(16)
N2A N 0.3425(2) 0.03278(13) 0.38029(19)
N3A N 0.2928(2) 0.15119(11) 0.23021(16)
N4A N 0.3959(2) 0.35973(11) 0.03264(16)
N4C N 0.6041(2) 0.64027(11) -0.03264(16)
N5A N 0.3337(3) 0.29026(13) -0.06390(17)
N6A N 0.3208(2) 0.22074(11) 0.13027(15)
C1A C 0.1418(3) 0.13543(14) 0.28852(19)
H5A H 0.0354 0.1698 0.2676
C2A C 0.4129(3) 0.08661(16) 0.2903(2)
H6A H 0.5301 0.0815 0.2697
C3A C 0.3864(3) 0.31743(14) 0.1483(2)
H7A H 0.4193 0.3486 0.2297
C4A C 0.2903(3) 0.20674(16) -0.0023(2)
H8A H 0.2449 0.1461 -0.0429
O2 O 0.7535(3) 0.62099(16) 0.3877(2)
O3 O 0.6349(3) 0.68899(14) 0.55064(18)
O4 O 0.7120(5) 0.53114(17) 0.5616(3)
N7 N 0.7025(3) 0.61213(15) 0.5005(2)
O5 O 0.9567(2) 0.33845(11) 0.14752(17)
H3 H 1.0099 0.3931 0.0996
H4 H 0.9173 0.2897 0.0869
loop_
_geom_bond_atom_site_label_1
_geom_bond_atom_site_label_2
_geom_bond_site_symmetry_1
_geom_bond_site_symmetry_2
Cu1 O1 1_555 1_555
O1 H1 1_555 1_555
H2 O1 1_555 1_555
O2 N7 1_555 1_555
O3 N7 1_555 1_555
O4 N7 1_555 1_555
O5 H3 1_555 1_555
H4 O5 1_555 1_555
N1 Cu1 1_555 1_555
N2 N1 1_555 1_555
N3 N6 1_555 1_555
N4 N5 1_555 1_555
N5 C4 1_555 1_555
N6 C3 1_555 1_555
C1 N1 1_555 1_555
H5 C1 1_555 1_555
C2 N2 1_555 1_555
H6 C2 1_555 1_555
C3 N4 1_555 1_555
H7 C3 1_555 1_555
C4 N6 1_555 1_555
H8 C4 1_555 1_555
Cu1A N4 1_555 1_555
Cu1A_2 N1A 1_555 1_555
O1B Cu1 1_555 1_555
H1B O1B 1_555 1_555
H2B O1B 1_555 1_555
N1A N2A 1_555 1_555
N1B Cu1 1_555 1_555
N2A C2A 1_555 1_555
N3A N6A 1_555 1_555
N4A Cu1 1_555 1_555
N4C Cu1 1_555 1_555
N5A N4A 1_555 1_555
N6A C3A 1_555 1_555
C1A N1A 1_555 1_555
H5A C1A 1_555 1_555
C2A N3A 1_555 1_555
H6A C2A 1_555 1_555
C3A N4A 1_555 1_555
H7A C3A 1_555 1_555
C4A N5A 1_555 1_555
H8A C4A 1_555 1_555
N3 C1 1_555 1_555
N3 C2 1_555 1_555
N3A C1A 1_555 1_555
N6A C4A 1_555 1_555

#END
