
#######################################################################
#
#                 Cambridge Crystallographic Data Centre
#                                CCDC 
#
#######################################################################
#
# If this CIF has been generated from an entry in the Cambridge 
# Structural Database, then it will include bibliographic, chemical, 
# crystal, experimental, refinement or atomic coordinate data resulting 
# from the CCDC's data processing and validation procedures.
#
#######################################################################

data_AGUVAA
_symmetry_cell_setting           monoclinic
_symmetry_space_group_name_H-M   'P 21/c'
_symmetry_Int_Tables_number      14
_space_group_name_Hall           '-P 2ybc'
loop_
_symmetry_equiv_pos_site_id
_symmetry_equiv_pos_as_xyz
1 x,y,z
2 -x,1/2+y,1/2-z
3 -x,-y,-z
4 x,1/2-y,1/2+z
_cell_length_a                   10.1953(7)
_cell_length_b                   12.4717(8)
_cell_length_c                   13.2844(8)
_cell_angle_alpha                90
_cell_angle_beta                 112.142(8)
_cell_angle_gamma                90
_cell_volume                     1564.58
loop_
_atom_site_label
_atom_site_type_symbol
_atom_site_fract_x
_atom_site_fract_y
_atom_site_fract_z
Cu1 Cu 0.0000 0.0000 0.0000
O1 O 0.23626(14) 0.00064(13) 0.01328(13)
N1 N 0.02024(17) 0.15105(11) 0.05861(12)
N2 N 0.09220(18) 0.23387(12) 0.03118(14)
N3 N -0.00138(17) 0.29239(11) 0.14329(12)
N4 N -0.04637(16) 0.44458(11) 0.34793(12)
N5 N -0.1653(2) 0.47489(15) 0.25908(14)
N6 N -0.04326(17) 0.35969(11) 0.20814(12)
N7 N 0.4524(2) -0.02425(18) 0.14361(18)
C1 C -0.0355(2) 0.18682(14) 0.12548(15)
H1 H -0.0896 0.1469 0.1560
C2 C 0.0770(2) 0.31828(14) 0.08299(16)
H2 H 0.1142 0.3866 0.0796
C3 C 0.0256(2) 0.37630(14) 0.31560(15)
H3 H 0.1112 0.3439 0.3597
C4 C -0.1596(3) 0.42245(18) 0.17615(18)
H4 H -0.2266 0.4275 0.1046
C5 C 0.3226(2) -0.05382(19) 0.0851(2)
H5 H 0.2932 -0.1218 0.0990
C6 C 0.5042(4) 0.0802(3) 0.1276(3)
H6 H 0.4354 0.1138 0.0636
H7 H 0.5932 0.0717 0.1178
H8 H 0.5187 0.1248 0.1907
C7 C 0.5458(4) -0.0933(3) 0.2306(3)
H9 H 0.4956 -0.1582 0.2347
H10 H 0.5749 -0.0555 0.2994
H11 H 0.6288 -0.1119 0.2152
Cu1A Cu 0.0000 -0.5000 -0.5000
Cu1A_2 Cu 0.0000 0.5000 0.5000
O1B O -0.23626(14) -0.00064(13) -0.01328(13)
N1B N -0.02024(17) -0.15105(11) -0.05861(12)
N2B N -0.09220(18) -0.23387(12) -0.03118(14)
N3B N 0.00138(17) -0.29239(11) -0.14329(12)
N4B N 0.04637(16) -0.44458(11) -0.34793(12)
N4A N 0.04637(16) -0.05542(11) 0.15207(12)
N4C N -0.04637(16) 0.05542(11) -0.15207(12)
N5B N 0.1653(2) -0.47489(15) -0.25908(14)
N6B N 0.04326(17) -0.35969(11) -0.20814(12)
N7B N -0.4524(2) 0.02425(18) -0.14361(18)
C1B C 0.0355(2) -0.18682(14) -0.12548(15)
H1B H 0.0896 -0.1469 -0.1560
C2B C -0.0770(2) -0.31828(14) -0.08299(16)
H2B H -0.1142 -0.3866 -0.0796
C3B C -0.0256(2) -0.37630(14) -0.31560(15)
H3B H -0.1112 -0.3439 -0.3597
C4B C 0.1596(3) -0.42245(18) -0.17615(18)
H4B H 0.2266 -0.4275 -0.1046
C5B C -0.3226(2) 0.05382(19) -0.0851(2)
H5B H -0.2932 0.1218 -0.0990
C6B C -0.5042(4) -0.0802(3) -0.1276(3)
H6B H -0.4354 -0.1138 -0.0636
H7B H -0.5932 -0.0717 -0.1178
H8B H -0.5187 -0.1248 -0.1907
C7B C -0.5458(4) 0.0933(3) -0.2306(3)
H9B H -0.4956 0.1582 -0.2347
H10B H -0.5749 0.0555 -0.2994
H11B H -0.6288 0.1119 -0.2152
O2 O 0.1111(3) 0.55979(16) 0.19655(18)
O3 O 0.1978(2) 0.56985(17) 0.07436(16)
O4 O 0.2064(2) 0.70608(14) 0.1797(2)
N8 N 0.17122(19) 0.61374(15) 0.14942(16)
C8 C 0.3400(5) 0.1742(4) 0.4341(4)
O5 O 0.2749(5) 0.1959(3) 0.3130(4)
C9 C 0.4879(16) 0.1532(13) 0.4601(12)
C10? C 0.4451(12) 0.1348(10) 0.3945(9)
O6? O 0.5766(6) 0.1864(5) 0.4558(4)
loop_
_geom_bond_atom_site_label_1
_geom_bond_atom_site_label_2
_geom_bond_site_symmetry_1
_geom_bond_site_symmetry_2
Cu1 O1 1_555 1_555
O1 C5 1_555 1_555
O2 N8 1_555 1_555
O3 N8 1_555 1_555
O4 N8 1_555 1_555
N1 Cu1 1_555 1_555
N2 N1 1_555 1_555
N3 N6 1_555 1_555
N4 N5 1_555 1_555
N5 C4 1_555 1_555
N6 C3 1_555 1_555
N7 C5 1_555 1_555
C1 N1 1_555 1_555
H1 C1 1_555 1_555
C2 N2 1_555 1_555
H2 C2 1_555 1_555
C3 N4 1_555 1_555
H3 C3 1_555 1_555
C4 N6 1_555 1_555
H4 C4 1_555 1_555
C5 H5 1_555 1_555
C6 N7 1_555 1_555
H6 C6 1_555 1_555
H7 C6 1_555 1_555
H8 C6 1_555 1_555
C7 N7 1_555 1_555
H9 C7 1_555 1_555
H10 C7 1_555 1_555
H11 C7 1_555 1_555
C8 O5 1_555 1_555
C9 C8 1_555 1_555
Cu1A N4B 1_555 1_555
Cu1A_2 N4 1_555 1_555
O1B Cu1 1_555 1_555
N1B Cu1 1_555 1_555
N2B N1B 1_555 1_555
N3B N6B 1_555 1_555
N4B N5B 1_555 1_555
N4A Cu1 1_555 1_555
N4C Cu1 1_555 1_555
N5B C4B 1_555 1_555
N6B C3B 1_555 1_555
N7B C5B 1_555 1_555
C1B N1B 1_555 1_555
H1B C1B 1_555 1_555
C2B N2B 1_555 1_555
H2B C2B 1_555 1_555
C3B N4B 1_555 1_555
H3B C3B 1_555 1_555
C4B N6B 1_555 1_555
H4B C4B 1_555 1_555
C5B O1B 1_555 1_555
H5B C5B 1_555 1_555
C6B N7B 1_555 1_555
H6B C6B 1_555 1_555
H7B C6B 1_555 1_555
H8B C6B 1_555 1_555
C7B N7B 1_555 1_555
H9B C7B 1_555 1_555
H10B C7B 1_555 1_555
H11B C7B 1_555 1_555
N3 C1 1_555 1_555
N3 C2 1_555 1_555
N3B C1B 1_555 1_555
N3B C2B 1_555 1_555

#END
