
#######################################################################
#
#                 Cambridge Crystallographic Data Centre
#                                CCDC 
#
#######################################################################
#
# If this CIF has been generated from an entry in the Cambridge 
# Structural Database, then it will include bibliographic, chemical, 
# crystal, experimental, refinement or atomic coordinate data resulting 
# from the CCDC's data processing and validation procedures.
#
#######################################################################

data_AGUVEE
_symmetry_cell_setting           monoclinic
_symmetry_space_group_name_H-M   'P 21/c'
_symmetry_Int_Tables_number      14
_space_group_name_Hall           '-P 2ybc'
loop_
_symmetry_equiv_pos_site_id
_symmetry_equiv_pos_as_xyz
1 x,y,z
2 -x,1/2+y,1/2-z
3 -x,-y,-z
4 x,1/2-y,1/2+z
_cell_length_a                   17.2465(3)
_cell_length_b                   11.6880(2)
_cell_length_c                   13.0107(2)
_cell_angle_alpha                90
_cell_angle_beta                 103.6710(10)
_cell_angle_gamma                90
_cell_volume                     2548.36
loop_
_atom_site_label
_atom_site_type_symbol
_atom_site_fract_x
_atom_site_fract_y
_atom_site_fract_z
Cu1 Cu 0.0000 0.0000 0.5000
Cu2 Cu 0.5000 0.0000 0.5000
N1 N 0.09355(12) -0.15386(18) 0.49673(17)
N2 N 0.09498(13) -0.2154(2) 0.40506(19)
N3 N 0.21615(11) -0.18749(17) 0.49455(16)
N4 N 0.41317(11) -0.10544(17) 0.52164(16)
N5 N 0.42241(12) -0.18448(19) 0.60304(18)
N6 N 0.29801(11) -0.17608(17) 0.51925(16)
N7 N 0.06095(11) 0.04854(17) 0.64583(15)
N8 N 0.07160(17) -0.02049(19) 0.73484(18)
N9 N 0.09218(12) 0.15725(17) 0.78237(15)
N10 N 0.06520(11) 0.38925(17) 0.93634(15)
N11 N 0.14561(12) 0.40319(19) 0.93827(17)
N12 N 0.09860(11) 0.25433(17) 0.84334(15)
N13 N 0.43913(11) 0.13809(17) 0.53429(16)
N14 N 0.35662(12) 0.1445(2) 0.51536(19)
N15 N 0.40928(12) 0.28816(17) 0.61193(16)
N16 N 0.42740(14) 0.48306(18) 0.81850(17)
N17 N 0.43551(17) 0.5556(2) 0.73697(19)
N18 N 0.41695(12) 0.38267(17) 0.67674(15)
C1 C 0.16646(13) -0.1379(2) 0.5480(2)
H1 H 0.1827 -0.0976 0.6129
C2 C 0.16884(15) -0.2342(2) 0.4057(2)
H2 H 0.1873 -0.2743 0.3526
C3 C 0.35235(14) -0.2252(2) 0.5999(2)
H3 H 0.3406 -0.2812 0.6469
C4 C 0.33855(14) -0.1018(2) 0.4723(2)
H4 H 0.3162 -0.0548 0.4132
C5 C 0.07361(13) 0.1539(2) 0.67540(18)
H5 H 0.0704 0.2181 0.6298
C6 C 0.0896(2) 0.0467(2) 0.8156(2)
H6 H 0.0996 0.0230 0.8874
C7 C 0.03837(14) 0.3002(2) 0.8800(2)
H7 H -0.0147 0.2718 0.8666
C8 C 0.16398(14) 0.3207(2) 0.8820(2)
H8 H 0.2154 0.3083 0.8694
C9 C 0.47000(14) 0.2252(2) 0.59234(19)
H9 H 0.5253 0.2415 0.6165
C10 C 0.34058(15) 0.2345(3) 0.5639(2)
H10 H 0.2885 0.2594 0.5657
C11 C 0.41621(15) 0.3813(2) 0.78000(19)
H11 H 0.4086 0.3150 0.8187
C12 C 0.4288(2) 0.4939(2) 0.6528(2)
H12 H 0.4316 0.5216 0.5852
Cu1A Cu 0.0000 0.5000 1.0000
Cu1A_2 Cu 0.0000 -0.5000 0.0000
Cu2A Cu 0.5000 0.5000 1.0000
Cu2_2 Cu -0.5000 0.0000 0.5000
Cu2A_2 Cu 0.5000 -0.5000 0.0000
N1B N -0.09355(12) 0.15386(18) 0.50327(17)
N2B N -0.09498(13) 0.2154(2) 0.59494(19)
N3B N -0.21615(11) 0.18749(17) 0.50545(16)
N4B N -0.41317(11) 0.10544(17) 0.47836(16)
N4B_2 N 0.58683(11) 0.10544(17) 0.47836(16)
N5B N -0.42241(12) 0.18448(19) 0.39696(18)
N6B N -0.29801(11) 0.17608(17) 0.48075(16)
N7B N -0.06095(11) -0.04854(17) 0.35417(15)
N8B N -0.07160(17) 0.02049(19) 0.26516(18)
N9B N -0.09218(12) -0.15725(17) 0.21763(15)
N10B N -0.06520(11) -0.38925(17) 0.06366(15)
N10A N -0.06520(11) -0.11075(17) 0.56366(15)
N10C N 0.06520(11) 0.11075(17) 0.43634(15)
N11B N -0.14561(12) -0.40319(19) 0.06173(17)
N12B N -0.09860(11) -0.25433(17) 0.15666(15)
N13B N 0.56087(11) -0.13809(17) 0.46571(16)
N14B N 0.64338(12) -0.1445(2) 0.48464(19)
N15B N 0.59072(12) -0.28816(17) 0.38807(16)
N16B N 0.57260(14) -0.48306(18) 0.18150(17)
N16A N 0.57260(14) -0.01694(18) 0.68150(17)
N16C N 0.42740(14) 0.01694(18) 0.31850(17)
N17B N 0.56449(17) -0.5556(2) 0.26303(19)
N18B N 0.58305(12) -0.38267(17) 0.32326(15)
C1B C -0.16646(13) 0.1379(2) 0.4520(2)
H1B H -0.1827 0.0976 0.3871
C2B C -0.16884(15) 0.2342(2) 0.5943(2)
H2B H -0.1873 0.2743 0.6474
C3B C -0.35235(14) 0.2252(2) 0.4001(2)
H3B H -0.3406 0.2812 0.3531
C4B C -0.33855(14) 0.1018(2) 0.5277(2)
H4B H -0.3162 0.0548 0.5868
C5B C -0.07361(13) -0.1539(2) 0.32460(18)
H5B H -0.0704 -0.2181 0.3702
C6B C -0.0896(2) -0.0467(2) 0.1844(2)
H6B H -0.0996 -0.0230 0.1126
C7B C -0.03837(14) -0.3002(2) 0.1200(2)
H7B H 0.0147 -0.2718 0.1334
C8B C -0.16398(14) -0.3207(2) 0.1180(2)
H8B H -0.2154 -0.3083 0.1306
C9B C 0.53000(14) -0.2252(2) 0.40766(19)
H9B H 0.4747 -0.2415 0.3835
C10B C 0.65942(15) -0.2345(3) 0.4361(2)
H10B H 0.7115 -0.2594 0.4343
C11B C 0.58379(15) -0.3813(2) 0.22000(19)
H11B H 0.5914 -0.3150 0.1813
C12B C 0.5712(2) -0.4939(2) 0.3472(2)
H12B H 0.5684 -0.5216 0.4148
O1 O 0.28048(18) -0.1419(3) 0.7822(2)
O2 O 0.3907(2) -0.1134(3) 0.9111(2)
C13 C 0.3333(2) -0.0854(3) 0.8396(3)
C14 C 0.3193(5) 0.0403(9) 0.8230(6)
F1 F 0.3834(4) 0.1041(7) 0.8340(8)
F2 F 0.2728(4) 0.0650(5) 0.7279(5)
F3 F 0.2809(4) 0.0828(5) 0.8935(5)
O3 O 0.2181(8) 0.3375(8) 0.6792(12)
O4 O 0.1087(5) 0.3779(7) 0.5508(7)
C15 C 0.1709(8) 0.3985(10) 0.6194(11)
C16 C 0.1747(6) 0.5284(11) 0.6431(7)
F4 F 0.2110(6) 0.5501(7) 0.7443(5)
F5 F 0.1077(5) 0.5844(8) 0.6291(10)
F6 F 0.2156(6) 0.5795(6) 0.5807(7)
C17? C 0.3369(7) 0.0410(13) 0.8171(9)
C18? C 0.1825(9) 0.4161(10) 0.6271(12)
C19? C 0.1583(6) 0.5289(11) 0.6493(8)
F7? F 0.3869(7) 0.0988(9) 0.8948(6)
F8? F 0.2690(5) 0.0971(9) 0.7982(12)
F9? F 0.3670(6) 0.0598(7) 0.7328(6)
F10? F 0.1066(5) 0.5260(7) 0.7093(6)
F11? F 0.1231(6) 0.5866(6) 0.5635(5)
F12? F 0.2204(6) 0.5928(9) 0.6977(8)
O5? O 0.2364(9) 0.3750(10) 0.6970(12)
O6? O 0.1530(6) 0.3616(8) 0.5467(8)
loop_
_geom_bond_atom_site_label_1
_geom_bond_atom_site_label_2
_geom_bond_site_symmetry_1
_geom_bond_site_symmetry_2
Cu1 N1 1_555 1_555
Cu2 N4 1_555 1_555
N1 N2 1_555 1_555
N2 C2 1_555 1_555
N3 N6 1_555 1_555
N4 N5 1_555 1_555
N5 C3 1_555 1_555
N6 C3 1_555 1_555
N7 Cu1 1_555 1_555
N8 N7 1_555 1_555
N9 N12 1_555 1_555
N10 N11 1_555 1_555
N11 C8 1_555 1_555
N12 C7 1_555 1_555
N13 Cu2 1_555 1_555
N14 N13 1_555 1_555
N15 N18 1_555 1_555
N16 N17 1_555 1_555
N17 C12 1_555 1_555
N18 C11 1_555 1_555
C1 N1 1_555 1_555
H1 C1 1_555 1_555
C2 N3 1_555 1_555
H2 C2 1_555 1_555
C3 H3 1_555 1_555
C4 N4 1_555 1_555
H4 C4 1_555 1_555
C5 N7 1_555 1_555
H5 C5 1_555 1_555
C6 N8 1_555 1_555
H6 C6 1_555 1_555
C7 N10 1_555 1_555
H7 C7 1_555 1_555
C8 N12 1_555 1_555
H8 C8 1_555 1_555
C9 N13 1_555 1_555
H9 C9 1_555 1_555
C10 N14 1_555 1_555
H10 C10 1_555 1_555
C11 N16 1_555 1_555
H11 C11 1_555 1_555
C12 N18 1_555 1_555
H12 C12 1_555 1_555
O1 C13 1_555 1_555
O2 C13 1_555 1_555
C13 C14 1_555 1_555
C14 F1 1_555 1_555
F2 C14 1_555 1_555
F3 C14 1_555 1_555
O3 C15 1_555 1_555
O4 C15 1_555 1_555
C15 C16 1_555 1_555
C16 F4 1_555 1_555
F5 C16 1_555 1_555
F6 C16 1_555 1_555
Cu1A N10 1_555 1_555
Cu1A_2 N10B 1_555 1_555
Cu2A N16 1_555 1_555
Cu2_2 N4B 1_555 1_555
Cu2A_2 N16B 1_555 1_555
N1B Cu1 1_555 1_555
N2B N1B 1_555 1_555
N3B N6B 1_555 1_555
N4B N5B 1_555 1_555
N4B_2 Cu2 1_555 1_555
N5B C3B 1_555 1_555
N6B C3B 1_555 1_555
N7B Cu1 1_555 1_555
N8B N7B 1_555 1_555
N9B N12B 1_555 1_555
N10B N11B 1_555 1_555
N10A Cu1 1_555 1_555
N10C Cu1 1_555 1_555
N11B C8B 1_555 1_555
N12B C7B 1_555 1_555
N13B Cu2 1_555 1_555
N14B N13B 1_555 1_555
N15B N18B 1_555 1_555
N16B N17B 1_555 1_555
N16A Cu2 1_555 1_555
N16C Cu2 1_555 1_555
N17B C12B 1_555 1_555
N18B C11B 1_555 1_555
C1B N1B 1_555 1_555
H1B C1B 1_555 1_555
C2B N2B 1_555 1_555
H2B C2B 1_555 1_555
C3B H3B 1_555 1_555
C4B N4B 1_555 1_555
H4B C4B 1_555 1_555
C5B N7B 1_555 1_555
H5B C5B 1_555 1_555
C6B N8B 1_555 1_555
H6B C6B 1_555 1_555
C7B N10B 1_555 1_555
H7B C7B 1_555 1_555
C8B N12B 1_555 1_555
H8B C8B 1_555 1_555
C9B N13B 1_555 1_555
H9B C9B 1_555 1_555
C10B N14B 1_555 1_555
H10B C10B 1_555 1_555
C11B N16B 1_555 1_555
H11B C11B 1_555 1_555
C12B N18B 1_555 1_555
H12B C12B 1_555 1_555
N3 C1 1_555 1_555
N6 C4 1_555 1_555
N9 C5 1_555 1_555
N9 C6 1_555 1_555
N15 C9 1_555 1_555
N15 C10 1_555 1_555
N3B C1B 1_555 1_555
N3B C2B 1_555 1_555
N6B C4B 1_555 1_555
N9B C5B 1_555 1_555
N9B C6B 1_555 1_555
N15B C9B 1_555 1_555
N15B C10B 1_555 1_555

#END
