
#######################################################################
#
#                 Cambridge Crystallographic Data Centre
#                                CCDC 
#
#######################################################################
#
# If this CIF has been generated from an entry in the Cambridge 
# Structural Database, then it will include bibliographic, chemical, 
# crystal, experimental, refinement or atomic coordinate data resulting 
# from the CCDC's data processing and validation procedures.
#
#######################################################################

data_AGUVII
_symmetry_cell_setting           monoclinic
_symmetry_space_group_name_H-M   'P 21/c'
_symmetry_Int_Tables_number      14
_space_group_name_Hall           '-P 2ybc'
loop_
_symmetry_equiv_pos_site_id
_symmetry_equiv_pos_as_xyz
1 x,y,z
2 -x,1/2+y,1/2-z
3 -x,-y,-z
4 x,1/2-y,1/2+z
_cell_length_a                   12.9933(7)
_cell_length_b                   13.0890(8)
_cell_length_c                   13.0710(7)
_cell_angle_alpha                90
_cell_angle_beta                 118.394(6)
_cell_angle_gamma                90
_cell_volume                     1955.55
loop_
_atom_site_label
_atom_site_type_symbol
_atom_site_fract_x
_atom_site_fract_y
_atom_site_fract_z
Cu1 Cu 0.5000 0.0000 1.0000
N1 N 0.53308(13) 0.14800(11) 0.97870(12)
N2 N 0.62095(14) 0.20819(12) 1.06371(13)
N3 N 0.52859(14) 0.29505(11) 0.90264(12)
N4 N 0.48699(15) 0.45782(13) 0.67329(13)
N5 N 0.40181(15) 0.49545(12) 0.70091(14)
N6 N 0.49824(14) 0.37170(11) 0.82011(13)
N7 N 0.67679(13) -0.01993(11) 1.09885(13)
N8 N 0.73224(15) -0.03159(15) 1.21902(14)
N9 N 0.86323(14) -0.01341(14) 1.16071(14)
N10 N 1.11264(19) 0.04733(19) 1.1338(2)
N11 N 1.13253(19) -0.05604(19) 1.1653(2)
N12 N 0.96989(15) -0.00817(14) 1.16080(15)
C1 C 0.47967(17) 0.20085(13) 0.88330(15)
H1 H 0.4170 0.1774 0.8121
C2 C 0.61698(17) 0.29625(15) 1.01559(16)
H2 H 0.6673 0.3525 1.0527
C3 C 0.54316(18) 0.38410(15) 0.74514(16)
H3 H 0.6051 0.3453 0.7455
C4 C 0.41060(17) 0.44182(15) 0.78844(16)
H4 H 0.3630 0.4502 0.8250
C5 C 0.75652(16) -0.01004(14) 1.06558(16)
H5 H 0.7420 -0.0019 0.9876
C6 C 0.84441(19) -0.02614(19) 1.25460(17)
H6 H 0.9038 -0.0303 1.3333
C7 C 1.0150(2) 0.07366(19) 1.1322(2)
H7 H 0.9809 0.1398 1.1138
C8 C 1.0454(2) -0.0876(2) 1.1800(2)
H8 H 1.0357 -0.1552 1.2007
Cu1A Cu 0.5000 0.5000 0.5000
Cu1A_2 Cu 0.5000 -0.5000 1.5000
N1B N 0.46692(13) -0.14800(11) 1.02130(12)
N2B N 0.37905(14) -0.20819(12) 0.93629(13)
N3B N 0.47141(14) -0.29505(11) 1.09736(12)
N4B N 0.51301(15) -0.45782(13) 1.32671(13)
N4A N 0.51301(15) -0.04218(13) 0.82671(13)
N4C N 0.48699(15) 0.04218(13) 1.17329(13)
N5B N 0.59819(15) -0.49545(12) 1.29909(14)
N6B N 0.50176(14) -0.37170(11) 1.17989(13)
N7B N 0.32321(13) 0.01993(11) 0.90115(13)
N8B N 0.26776(15) 0.03159(15) 0.78098(14)
N9B N 0.13677(14) 0.01341(14) 0.83929(14)
N10B N -0.11264(19) -0.04733(19) 0.8662(2)
N11B N -0.13253(19) 0.05604(19) 0.8347(2)
N12B N 0.03011(15) 0.00817(14) 0.83920(15)
C1B C 0.52033(17) -0.20085(13) 1.11670(15)
H1B H 0.5830 -0.1774 1.1879
C2B C 0.38302(17) -0.29625(15) 0.98441(16)
H2B H 0.3327 -0.3525 0.9473
C3B C 0.45684(18) -0.38410(15) 1.25486(16)
H3B H 0.3949 -0.3453 1.2545
C4B C 0.58940(17) -0.44182(15) 1.21156(16)
H4B H 0.6370 -0.4502 1.1750
C5B C 0.24348(16) 0.01004(14) 0.93442(16)
H5B H 0.2580 0.0019 1.0124
C6B C 0.15559(19) 0.02614(19) 0.74540(17)
H6B H 0.0962 0.0303 0.6667
C7B C -0.0150(2) -0.07366(19) 0.8678(2)
H7B H 0.0191 -0.1398 0.8862
C8B C -0.0454(2) 0.0876(2) 0.8200(2)
H8B H -0.0357 0.1552 0.7993
Cl1 Cl 0.21716(6) 0.27795(4) 0.86006(5)
Cl2 Cl 0.39988(5) 0.35886(6) 1.07805(5)
Cl3 Cl 0.21117(6) 0.24082(4) 1.07422(5)
O1 O 0.07279(17) 0.42188(16) 0.95751(19)
O2 O 0.2175(2) 0.51195(14) 0.9583(2)
C9 C 0.1712(2) 0.43366(17) 0.96909(19)
C10 C 0.24762(18) 0.33316(15) 0.99728(16)
O3 O 0.06764(19) 0.67802(15) 0.9542(2)
H9 H 0.0177 0.6523 0.9725
H10 H 0.1080 0.6283 0.9494
O4 O 0.2697(2) 0.78276(16) 1.1271(2)
H11 H 0.2105 0.7472 1.0808
H12 H 0.2438 0.8320 1.1514
O5 O -0.1090(6) 0.3082(5) 0.7543(6)
H13 H -0.0768 0.3535 0.8089
H14 H -0.1816 0.3222 0.7167
loop_
_geom_bond_atom_site_label_1
_geom_bond_atom_site_label_2
_geom_bond_site_symmetry_1
_geom_bond_site_symmetry_2
Cu1 N1 1_555 1_555
Cl1 C10 1_555 1_555
Cl2 C10 1_555 1_555
Cl3 C10 1_555 1_555
O1 C9 1_555 1_555
O2 C9 1_555 1_555
N1 N2 1_555 1_555
N2 C2 1_555 1_555
N3 N6 1_555 1_555
N4 N5 1_555 1_555
N5 C4 1_555 1_555
N6 C3 1_555 1_555
N7 Cu1 1_555 1_555
N8 N7 1_555 1_555
N9 N12 1_555 1_555
N10 N11 1_555 1_555
N11 C8 1_555 1_555
N12 C7 1_555 1_555
C1 N1 1_555 1_555
H1 C1 1_555 1_555
C2 N3 1_555 1_555
H2 C2 1_555 1_555
C3 N4 1_555 1_555
H3 C3 1_555 1_555
C4 N6 1_555 1_555
H4 C4 1_555 1_555
C5 N7 1_555 1_555
H5 C5 1_555 1_555
C6 N8 1_555 1_555
H6 C6 1_555 1_555
C7 N10 1_555 1_555
H7 C7 1_555 1_555
C8 N12 1_555 1_555
H8 C8 1_555 1_555
C9 C10 1_555 1_555
O3 H9 1_555 1_555
H10 O3 1_555 1_555
O4 H11 1_555 1_555
H12 O4 1_555 1_555
O5 H13 1_555 1_555
H14 O5 1_555 1_555
Cu1A N4 1_555 1_555
Cu1A_2 N4B 1_555 1_555
N1B Cu1 1_555 1_555
N2B N1B 1_555 1_555
N3B N6B 1_555 1_555
N4B N5B 1_555 1_555
N4A Cu1 1_555 1_555
N4C Cu1 1_555 1_555
N5B C4B 1_555 1_555
N6B C3B 1_555 1_555
N7B Cu1 1_555 1_555
N8B N7B 1_555 1_555
N9B N12B 1_555 1_555
N10B N11B 1_555 1_555
N11B C8B 1_555 1_555
N12B C7B 1_555 1_555
C1B N1B 1_555 1_555
H1B C1B 1_555 1_555
C2B N2B 1_555 1_555
H2B C2B 1_555 1_555
C3B N4B 1_555 1_555
H3B C3B 1_555 1_555
C4B N6B 1_555 1_555
H4B C4B 1_555 1_555
C5B N7B 1_555 1_555
H5B C5B 1_555 1_555
C6B N8B 1_555 1_555
H6B C6B 1_555 1_555
C7B N10B 1_555 1_555
H7B C7B 1_555 1_555
C8B N12B 1_555 1_555
H8B C8B 1_555 1_555
N3 C1 1_555 1_555
N9 C5 1_555 1_555
N9 C6 1_555 1_555
N3B C1B 1_555 1_555
N3B C2B 1_555 1_555
N9B C5B 1_555 1_555
N9B C6B 1_555 1_555

#END
