
#######################################################################
#
#                 Cambridge Crystallographic Data Centre
#                                CCDC 
#
#######################################################################
#
# If this CIF has been generated from an entry in the Cambridge 
# Structural Database, then it will include bibliographic, chemical, 
# crystal, experimental, refinement or atomic coordinate data resulting 
# from the CCDC's data processing and validation procedures.
#
#######################################################################

data_AGUXOR
_symmetry_cell_setting           monoclinic
_symmetry_space_group_name_H-M   'P 21/c'
_symmetry_Int_Tables_number      14
_space_group_name_Hall           '-P 2ybc'
loop_
_symmetry_equiv_pos_site_id
_symmetry_equiv_pos_as_xyz
1 x,y,z
2 -x,1/2+y,1/2-z
3 -x,-y,-z
4 x,1/2-y,1/2+z
_cell_length_a                   8.0109(16)
_cell_length_b                   28.894(6)
_cell_length_c                   11.816(4)
_cell_angle_alpha                90
_cell_angle_beta                 120.59(2)
_cell_angle_gamma                90
_cell_volume                     2354.38
loop_
_atom_site_label
_atom_site_type_symbol
_atom_site_fract_x
_atom_site_fract_y
_atom_site_fract_z
Gd1 Gd -0.40889(5) -0.044767(11) 0.34514(3)
Cl1 Cl -0.2702(3) -0.30899(6) 0.36953(17)
Cl2 Cl -0.4290(2) 0.24672(6) 0.53452(17)
O1 O -0.3034(7) -0.09984(16) 0.2220(5)
O2 O -0.7203(7) -0.00835(17) 0.2900(5)
H1 H -0.8114 -0.0280 0.2511
H2 H -0.7418 0.0147 0.2393
O3 O -0.2618(7) -0.12375(17) 0.4117(5)
O4 O -0.6681(8) -0.10007(18) 0.2301(5)
H3 H -0.7768 -0.0882 0.2144
H4 H -0.6457 -0.1247 0.2772
O5 O -0.0581(7) -0.30718(16) 0.2211(5)
O6 O -0.5443(8) -0.01107(18) 0.1304(5)
H5 H -0.6233 0.0121 0.1197
H6 H -0.6116 -0.0318 0.0687
O7 O -0.3595(7) 0.03745(16) 0.4000(5)
O8 O -0.5369(7) 0.06421(15) 0.4830(5)
O9 O -0.1860(7) 0.24891(15) 0.4073(5)
O10 O -0.1345(7) -0.01360(17) 0.3324(5)
O11 O 0.1157(7) 0.03603(18) 0.4392(5)
N1 N -0.0558(8) -0.22909(18) 0.2027(5)
H7 H 0.0101 -0.2320 0.1641
N2 N -0.1857(8) 0.17103(19) 0.3803(6)
H8 H -0.1116 0.1751 0.3482
C1 C -0.1039(9) -0.2687(2) 0.2444(6)
C2 C -0.2039(9) -0.2610(2) 0.3145(6)
C3 C -0.2460(9) -0.2174(2) 0.3362(6)
H9 H -0.3065 -0.2134 0.3849
C4 C -0.2000(9) -0.1785(2) 0.2866(6)
C5 C -0.1061(9) -0.1851(2) 0.2188(7)
H10 H -0.0761 -0.1599 0.1835
C6 C -0.2559(9) -0.1314(2) 0.3102(7)
C7 C -0.2415(9) 0.2097(2) 0.4200(6)
C8 C -0.3590(9) 0.2001(2) 0.4764(6)
C9 C -0.4170(9) 0.1561(2) 0.4841(6)
H11 H -0.4963 0.1513 0.5193
C10 C -0.3550(9) 0.1177(2) 0.4376(6)
C11 C -0.2385(9) 0.1264(2) 0.3876(6)
H12 H -0.1944 0.1020 0.3582
C12 C -0.4204(10) 0.0693(2) 0.4413(7)
C13 C -0.0056(11) 0.0060(3) 0.4339(7)
O10B O 0.1345(7) 0.01360(17) 0.6676(5)
O11B O -0.1157(7) -0.03603(18) 0.5608(5)
C13B C 0.0056(11) -0.0060(3) 0.5661(7)
Gd1B Gd -0.59111(5) 0.044767(11) 0.65486(3)
Cl1B Cl -0.7298(3) 0.30899(6) 0.63047(17)
Cl2B Cl -0.5710(2) -0.24672(6) 0.46548(17)
O1B O -0.6966(7) 0.09984(16) 0.7780(5)
O2B O -0.2797(7) 0.00835(17) 0.7100(5)
H1B H -0.1886 0.0280 0.7489
H2B H -0.2582 -0.0147 0.7607
O3B O -0.7382(7) 0.12375(17) 0.5883(5)
O4B O -0.3319(8) 0.10007(18) 0.7699(5)
H3B H -0.2232 0.0882 0.7856
H4B H -0.3543 0.1247 0.7228
O5B O -0.9419(7) 0.30718(16) 0.7789(5)
O6B O -0.4557(8) 0.01107(18) 0.8696(5)
H5B H -0.3767 -0.0121 0.8803
H6B H -0.3884 0.0318 0.9313
O7B O -0.6405(7) -0.03745(16) 0.6000(5)
O8B O -0.4631(7) -0.06421(15) 0.5170(5)
O9B O -0.8140(7) -0.24891(15) 0.5927(5)
N1B N -0.9442(8) 0.22909(18) 0.7973(5)
H7B H -1.0101 0.2320 0.8359
N2B N -0.8143(8) -0.17103(19) 0.6197(6)
H8B H -0.8884 -0.1751 0.6518
C1B C -0.8961(9) 0.2687(2) 0.7556(6)
C2B C -0.7961(9) 0.2610(2) 0.6855(6)
C3B C -0.7540(9) 0.2174(2) 0.6638(6)
H9B H -0.6935 0.2134 0.6151
C4B C -0.8000(9) 0.1785(2) 0.7134(6)
C5B C -0.8939(9) 0.1851(2) 0.7812(7)
H10B H -0.9239 0.1599 0.8165
C6B C -0.7441(9) 0.1314(2) 0.6898(7)
C7B C -0.7585(9) -0.2097(2) 0.5800(6)
C8B C -0.6410(9) -0.2001(2) 0.5236(6)
C9B C -0.5830(9) -0.1561(2) 0.5159(6)
H11B H -0.5037 -0.1513 0.4807
C10B C -0.6450(9) -0.1177(2) 0.5624(6)
C11B C -0.7615(9) -0.1264(2) 0.6124(6)
H12B H -0.8056 -0.1020 0.6418
C12B C -0.5796(10) -0.0693(2) 0.5587(7)
Gd1B_2 Gd 0.40889(5) 0.044767(11) 0.65486(3)
O10B_2 O -0.8655(7) 0.01360(17) 0.6676(5)
O11_2 O -0.8843(7) 0.03603(18) 0.4392(5)
O12 O -0.7430(12) -0.1616(2) 0.0465(7)
H13 H -0.6761 -0.1530 0.1262
H14 H -0.7847 -0.1889 0.0432
O13 O -0.7649(9) -0.0502(2) -0.1162(6)
H15 H -0.8744 -0.0636 -0.1521
H16 H -0.7703 -0.0272 -0.1629
O14 O -0.7329(9) 0.07188(19) 0.0992(6)
H17 H -0.6627 0.0922 0.0914
H18 H -0.7625 0.0809 0.1552
O15 O -0.1024(9) -0.39936(18) 0.2568(5)
H19 H -0.1522 -0.4117 0.1811
H20 H -0.1003 -0.3701 0.2496
O16 O -0.5104(9) -0.1219(2) -0.0472(6)
H21 H -0.4287 -0.1196 0.0345
H22 H -0.5941 -0.1004 -0.0704
O17 O -1.0232(8) -0.0667(2) 0.1593(6)
H23 H -1.0767 -0.0706 0.0768
H24 H -1.0986 -0.0764 0.1851
loop_
_geom_bond_atom_site_label_1
_geom_bond_atom_site_label_2
_geom_bond_site_symmetry_1
_geom_bond_site_symmetry_2
Gd1 O1 1_555 1_555
Cl1 C2 1_555 1_555
Cl2 C8 1_555 1_555
O1 C6 1_555 1_555
O2 Gd1 1_555 1_555
H1 O2 1_555 1_555
H2 O2 1_555 1_555
O3 Gd1 1_555 1_555
O4 Gd1 1_555 1_555
H3 O4 1_555 1_555
H4 O4 1_555 1_555
O5 C1 1_555 1_555
O6 Gd1 1_555 1_555
H5 O6 1_555 1_555
H6 O6 1_555 1_555
O7 Gd1 1_555 1_555
O8 C12 1_555 1_555
O9 C7 1_555 1_555
O10 Gd1 1_555 1_555
O11 C13 1_555 1_555
N1 H7 1_555 1_555
N2 H8 1_555 1_555
C1 N1 1_555 1_555
C2 C1 1_555 1_555
C3 C2 1_555 1_555
H9 C3 1_555 1_555
C4 C3 1_555 1_555
C5 N1 1_555 1_555
H10 C5 1_555 1_555
C6 O3 1_555 1_555
C7 N2 1_555 1_555
C8 C7 1_555 1_555
C9 C8 1_555 1_555
H11 C9 1_555 1_555
C10 C9 1_555 1_555
C11 N2 1_555 1_555
H12 C11 1_555 1_555
C12 O7 1_555 1_555
C13 O10 1_555 1_555
O12 H13 1_555 1_555
H14 O12 1_555 1_555
O13 H15 1_555 1_555
H16 O13 1_555 1_555
O14 H17 1_555 1_555
H18 O14 1_555 1_555
O15 H19 1_555 1_555
H20 O15 1_555 1_555
O16 H21 1_555 1_555
H22 O16 1_555 1_555
O17 H23 1_555 1_555
H24 O17 1_555 1_555
O10B C13B 1_555 1_555
O11B Gd1 1_555 1_555
C13B C13 1_555 1_555
Gd1B O8 1_555 1_555
Cl1B C2B 1_555 1_555
Cl2B C8B 1_555 1_555
O1B Gd1B 1_555 1_555
O2B Gd1B 1_555 1_555
H1B O2B 1_555 1_555
H2B O2B 1_555 1_555
O3B Gd1B 1_555 1_555
O4B Gd1B 1_555 1_555
H3B O4B 1_555 1_555
H4B O4B 1_555 1_555
O5B C1B 1_555 1_555
O6B Gd1B 1_555 1_555
H5B O6B 1_555 1_555
H6B O6B 1_555 1_555
O7B Gd1B 1_555 1_555
O8B Gd1 1_555 1_555
O9B C7B 1_555 1_555
N1B H7B 1_555 1_555
N2B H8B 1_555 1_555
C1B N1B 1_555 1_555
C2B C1B 1_555 1_555
C3B C2B 1_555 1_555
H9B C3B 1_555 1_555
C4B C3B 1_555 1_555
C5B N1B 1_555 1_555
H10B C5B 1_555 1_555
C6B O1B 1_555 1_555
C7B N2B 1_555 1_555
C8B C7B 1_555 1_555
C9B C8B 1_555 1_555
H11B C9B 1_555 1_555
C10B C9B 1_555 1_555
C11B N2B 1_555 1_555
H12B C11B 1_555 1_555
C12B O7B 1_555 1_555
Gd1B_2 O11 1_555 1_555
O10B_2 Gd1B 1_555 1_555
O11_2 Gd1B 1_555 1_555
C4 C5 1_555 1_555
C4 C6 1_555 1_555
C10 C11 1_555 1_555
C10 C12 1_555 1_555
O10B Gd1B_2 1_555 1_555
O11B C13B 1_555 1_555
O3B C6B 1_555 1_555
O8B C12B 1_555 1_555
C4B C5B 1_555 1_555
C4B C6B 1_555 1_555
C10B C11B 1_555 1_555
C10B C12B 1_555 1_555

#END
