
#######################################################################
#
#                 Cambridge Crystallographic Data Centre
#                                CCDC 
#
#######################################################################
#
# If this CIF has been generated from an entry in the Cambridge 
# Structural Database, then it will include bibliographic, chemical, 
# crystal, experimental, refinement or atomic coordinate data resulting 
# from the CCDC's data processing and validation procedures.
#
#######################################################################

data_AGUXIL
_symmetry_cell_setting           orthorhombic
_symmetry_space_group_name_H-M   'P n m a'
_symmetry_Int_Tables_number      62
_space_group_name_Hall           '-P 2ac 2n'
loop_
_symmetry_equiv_pos_site_id
_symmetry_equiv_pos_as_xyz
1 x,y,z
2 1/2-x,-y,1/2+z
3 1/2+x,1/2-y,1/2-z
4 -x,1/2+y,-z
5 -x,-y,-z
6 1/2+x,y,1/2-z
7 1/2-x,1/2+y,1/2+z
8 x,1/2-y,z
_cell_length_a                   8.3451(17)
_cell_length_b                   19.104(4)
_cell_length_c                   15.096(3)
_cell_angle_alpha                90
_cell_angle_beta                 90
_cell_angle_gamma                90
_cell_volume                     2406.68
loop_
_atom_site_label
_atom_site_type_symbol
_atom_site_fract_x
_atom_site_fract_y
_atom_site_fract_z
Dy1 Dy 0.42985(3) 0.2500 0.405338(15)
Dy2 Dy 0.57244(3) -0.2500 0.211082(16)
Cl1 Cl 0.16942(14) 0.04932(7) 0.56057(8)
C1 C 0.3881(5) 0.0754(2) 0.4344(3)
C2 C 0.2833(5) 0.0236(2) 0.4709(3)
C3 C 0.2747(5) -0.0425(2) 0.4371(3)
H1 H 0.2046 -0.0750 0.4614
C4 C 0.3737(5) -0.0610(2) 0.3645(3)
C5 C 0.4742(5) -0.0122(2) 0.3292(3)
H2 H 0.5406 -0.0240 0.2820
C6 C 0.3703(5) -0.1329(2) 0.3264(3)
C7 C 0.2617(7) 0.2500 0.5989(3)
C8 C 0.1229(7) 0.2500 0.5315(4)
C9 C 0.1921(5) 0.2908(2) 0.2440(3)
N1 N 0.4771(5) 0.05347(19) 0.3629(2)
H3 H 0.5351 0.0884 0.3364
O1 O 0.4030(4) 0.13618(16) 0.4627(2)
O2 O 0.6773(6) 0.2500 0.4760(4)
H4 H 0.7360 0.2857 0.4871
O3 O 0.4835(4) -0.14987(16) 0.2746(2)
O4 O 0.2554(4) -0.17191(16) 0.3473(2)
O5 O 0.4007(5) 0.2500 0.5717(3)
O6 O 0.2177(5) 0.2500 0.6807(3)
O7 O 0.1585(5) 0.2500 0.4514(3)
O8 O -0.0164(5) 0.2500 0.5624(3)
O9 O 0.2798(4) 0.31987(17) 0.2994(2)
O10 O 0.1039(4) 0.31936(17) 0.1881(2)
C9G C 0.1921(5) 0.2092(2) 0.2440(3)
O9G O 0.2798(4) 0.18013(17) 0.2994(2)
O10G O 0.1039(4) 0.18064(17) 0.1881(2)
H4G H 0.7360 0.2143 0.4871
Cl1G Cl 0.16942(14) 0.45068(7) 0.56057(8)
C1G C 0.3881(5) 0.4246(2) 0.4344(3)
C2G C 0.2833(5) 0.4764(2) 0.4709(3)
C3G C 0.2747(5) 0.5425(2) 0.4371(3)
H1G H 0.2046 0.5750 0.4614
C4G C 0.3737(5) 0.5610(2) 0.3645(3)
C5G C 0.4742(5) 0.5122(2) 0.3292(3)
H2G H 0.5406 0.5240 0.2820
C6G C 0.3703(5) 0.6329(2) 0.3264(3)
N1G N 0.4771(5) 0.44653(19) 0.3629(2)
H3G H 0.5351 0.4116 0.3364
O1G O 0.4030(4) 0.36382(16) 0.4627(2)
O3G O 0.4835(4) 0.64987(16) 0.2746(2)
O4G O 0.2554(4) 0.67191(16) 0.3473(2)
Dy1B Dy -0.07015(3) 0.2500 0.094662(15)
Dy2_2 Dy 0.57244(3) 0.7500 0.211082(16)
Dy2A Dy -0.07244(3) 0.2500 0.711082(16)
Dy2B Dy 0.07244(3) -0.2500 0.288918(16)
Dy2B_2 Dy 0.07244(3) 0.7500 0.288918(16)
Dy2C Dy 0.42756(3) 0.2500 0.788918(16)
O3G_2 O 0.4835(4) -0.35013(16) 0.2746(2)
O4B O 0.7554(4) -0.32809(16) 0.1527(2)
O4E O 0.7554(4) -0.17191(16) 0.1527(2)
O6A O 0.2823(5) -0.2500 0.1807(3)
O6C O 0.7823(5) -0.2500 0.3193(3)
O8A O 0.5164(5) -0.2500 0.0624(3)
O10B O 0.6039(4) 0.18064(17) 0.3119(2)
O10E O 0.6039(4) 0.31936(17) 0.3119(2)
O11 O -0.0798(12) 0.1483(8) 0.4001(8)
H5 H -0.1670 0.1224 0.3959
H6 H -0.0393 0.1670 0.4453
loop_
_geom_bond_atom_site_label_1
_geom_bond_atom_site_label_2
_geom_bond_site_symmetry_1
_geom_bond_site_symmetry_2
Dy1 O1 1_555 1_555
Dy2 O3 1_555 1_555
Cl1 C2 1_555 1_555
C1 C2 1_555 1_555
C2 C3 1_555 1_555
C3 H1 1_555 1_555
C4 C3 1_555 1_555
C5 C4 1_555 1_555
H2 C5 1_555 1_555
C6 C4 1_555 1_555
C7 C8 1_555 1_555
C8 O7 1_555 1_555
C9 O9 1_555 1_555
N1 C1 1_555 1_555
H3 N1 1_555 1_555
O1 C1 1_555 1_555
O2 Dy1 1_555 1_555
H4 O2 1_555 1_555
O3 C6 1_555 1_555
O4 C6 1_555 1_555
O5 Dy1 1_555 1_555
O6 C7 1_555 1_555
O7 Dy1 1_555 1_555
O8 C8 1_555 1_555
O9 Dy1 1_555 1_555
O10 C9 1_555 1_555
O11 H5 1_555 1_555
H6 O11 1_555 1_555
C9G C9 1_555 1_555
O9G Dy1 1_555 1_555
O10G C9G 1_555 1_555
H4G O2 1_555 1_555
Cl1G C2G 1_555 1_555
C1G C2G 1_555 1_555
C2G C3G 1_555 1_555
C3G H1G 1_555 1_555
C4G C3G 1_555 1_555
C5G C4G 1_555 1_555
H2G C5G 1_555 1_555
C6G C4G 1_555 1_555
N1G C1G 1_555 1_555
H3G N1G 1_555 1_555
O1G Dy1 1_555 1_555
O3G C6G 1_555 1_555
O4G C6G 1_555 1_555
Dy1B O10 1_555 1_555
Dy2_2 O3G 1_555 1_555
Dy2A O6 1_555 1_555
Dy2B O4 1_555 1_555
Dy2B_2 O4G 1_555 1_555
Dy2C O6 1_555 1_555
O3G_2 Dy2 1_555 1_555
O4B Dy2 1_555 1_555
O4E Dy2 1_555 1_555
O6A Dy2 1_555 1_555
O6C Dy2 1_555 1_555
O8A Dy2 1_555 1_555
O10B Dy1 1_555 1_555
O10E Dy1 1_555 1_555
C5 N1 1_555 1_555
C7 O5 1_555 1_555
O8 Dy2A 1_555 1_555
C9G O9G 1_555 1_555
O10G Dy1B 1_555 1_555
C1G O1G 1_555 1_555
C5G N1G 1_555 1_555
Dy2B O6A 1_555 1_555

#END
