
#######################################################################
#
#                 Cambridge Crystallographic Data Centre
#                                CCDC 
#
#######################################################################
#
# If this CIF has been generated from an entry in the Cambridge 
# Structural Database, then it will include bibliographic, chemical, 
# crystal, experimental, refinement or atomic coordinate data resulting 
# from the CCDC's data processing and validation procedures.
#
#######################################################################

data_AGUYEG
_symmetry_cell_setting           triclinic
_symmetry_space_group_name_H-M   'P -1'
_symmetry_Int_Tables_number      2
_space_group_name_Hall           '-P 1'
loop_
_symmetry_equiv_pos_site_id
_symmetry_equiv_pos_as_xyz
1 x,y,z
2 -x,-y,-z
_cell_length_a                   9.4625(6)
_cell_length_b                   12.5072(5)
_cell_length_c                   13.0146(7)
_cell_angle_alpha                80.738(2)
_cell_angle_beta                 85.819(3)
_cell_angle_gamma                76.338(2)
_cell_volume                     1476.2
loop_
_atom_site_label
_atom_site_type_symbol
_atom_site_fract_x
_atom_site_fract_y
_atom_site_fract_z
Mo1 Mo 0.68649(10) 0.92660(8) 0.47770(8)
Mo2 Mo 0.52457(11) 0.82209(8) 0.29778(8)
Mo3 Mo 0.55334(11) 0.90665(8) 0.71158(8)
Mo4 Mo 0.61817(10) 1.19227(8) 0.46642(8)
Cu1 Cu 0.13947(17) 0.77801(12) 0.30020(14)
Cu2 Cu 0.30375(17) 0.72655(12) 0.81193(13)
O1 O 0.6352(8) 0.7317(6) 0.2297(6)
O2 O 0.7119(7) 0.8403(6) 0.3825(6)
O3 O 0.5615(7) 1.0430(5) 0.5745(5)
O4 O 0.5066(8) 0.7327(5) 0.4331(5)
O5 O 0.5462(8) 0.9658(6) 0.2316(6)
O6 O 0.6619(7) 1.0650(5) 0.3858(5)
O7 O 0.4833(8) 0.8060(6) 0.7898(5)
O8 O 0.6020(7) 0.8308(5) 0.5854(5)
O9 O 0.6152(8) 1.2977(6) 0.3644(6)
O10 O 0.7837(8) 1.1733(6) 0.5194(6)
O11 O 0.3538(8) 0.8255(6) 0.2595(6)
O12 O 0.7246(7) 0.8881(6) 0.7531(6)
O13 O 0.8509(7) 0.9140(6) 0.5230(5)
N1 N -0.1513(10) 1.1390(7) 0.1972(8)
N2 N 0.0200(10) 0.9203(7) 0.2487(8)
N3 N 0.4782(13) 0.3477(8) 0.9478(9)
N4 N 0.3676(11) 0.5711(7) 0.8657(8)
N5 N 0.1771(11) 0.6257(8) 0.3498(8)
N6 N 0.2767(11) 0.4486(8) 0.4302(7)
H1 H 0.3406 0.3939 0.4603
C1 C 0.1584(18) 0.4156(12) 1.1171(12)
H2 H 0.1077 0.3823 1.1721
C2 C 0.1096(14) 0.5296(13) 1.0788(10)
H3 H 0.0314 0.5717 1.1130
C3 C 0.1743(15) 0.5810(11) 0.9920(10)
H4 H 0.1366 0.6548 0.9641
C4 C 0.2988(12) 0.5171(10) 0.9480(10)
C5 C 0.3510(14) 0.4079(10) 0.9861(10)
C6 C 0.2765(17) 0.3558(12) 1.0748(10)
H5 H 0.3112 0.2813 1.1017
C7 C 0.5374(17) 0.3993(12) 0.8684(11)
H6 H 0.6217 0.3603 0.8378
C8 C 0.4825(15) 0.5098(11) 0.8258(10)
H7 H 0.5295 0.5406 0.7672
C9 C -0.1567(12) 1.0542(10) 0.1401(9)
C10 C -0.2456(12) 1.0773(11) 0.0529(10)
H8 H -0.3015 1.1488 0.0343
C11 C -0.2503(14) 0.9972(14) -0.0032(10)
H9 H -0.3125 1.0121 -0.0585
C12 C -0.1620(16) 0.8924(12) 0.0220(11)
H10 H -0.1607 0.8390 -0.0204
C13 C -0.0777(15) 0.8645(10) 0.1054(10)
H11 H -0.0263 0.7915 0.1242
C14 C -0.0690(12) 0.9488(9) 0.1642(11)
C15 C 0.0196(12) 1.0023(10) 0.2983(9)
H12 H 0.0807 0.9883 0.3542
C16 C -0.0647(12) 1.1089(9) 0.2745(10)
H13 H -0.0591 1.1616 0.3160
C17 C -0.0836(19) 0.3997(12) 0.3759(11)
H14 H -0.1400 0.3473 0.3805
C18 C 0.0505(17) 0.3688(11) 0.4134(12)
H15 H 0.0862 0.2965 0.4460
C19 C 0.1345(12) 0.4469(9) 0.4026(9)
C20 C 0.0774(12) 0.5541(9) 0.3547(8)
C21 C 0.2910(15) 0.5620(11) 0.3968(10)
H16 H 0.3731 0.5868 0.4078
C22 C -0.0609(13) 0.5862(10) 0.3191(9)
H17 H -0.0985 0.6590 0.2885
C23 C -0.1406(14) 0.5090(11) 0.3299(11)
H18 H -0.2351 0.5286 0.3063
O3A O 0.4385(7) 0.9570(5) 0.4255(5)
O5A O 0.4538(8) 1.0342(6) 0.7684(6)
O6A O 0.3381(7) 0.9350(5) 0.6142(5)
O4A O 0.4934(8) 1.2673(5) 0.5669(5)
O8A O 0.3980(7) 1.1692(5) 0.4146(5)
O9A O 0.3848(8) 0.7023(6) 0.6356(6)
N1A N 0.1513(10) 0.8610(7) 0.8028(8)
Mo1A Mo 0.31351(10) 1.07340(8) 0.52230(8)
Mo4A Mo 0.38183(10) 0.80773(8) 0.53358(8)
Mo3A Mo 0.44666(11) 1.09335(8) 0.28842(8)
Cu2A Cu 0.69625(17) 1.27345(12) 0.18807(13)
Cu2A_2 Cu -0.30375(17) 1.27345(12) 0.18807(13)
loop_
_geom_bond_atom_site_label_1
_geom_bond_atom_site_label_2
_geom_bond_site_symmetry_1
_geom_bond_site_symmetry_2
Mo1 O2 1_555 1_555
Mo2 O1 1_555 1_555
Mo3 O3 1_555 1_555
Mo4 O3 1_555 1_555
Cu1 O11 1_555 1_555
Cu2 O7 1_555 1_555
O2 Mo2 1_555 1_555
O3 Mo1 1_555 1_555
O4 Mo2 1_555 1_555
O5 Mo2 1_555 1_555
O6 Mo1 1_555 1_555
O7 Mo3 1_555 1_555
O8 Mo1 1_555 1_555
O9 Mo4 1_555 1_555
O10 Mo4 1_555 1_555
O11 Mo2 1_555 1_555
O12 Mo3 1_555 1_555
O13 Mo1 1_555 1_555
N1 C9 1_555 1_555
N2 Cu1 1_555 1_555
N3 C5 1_555 1_555
N4 Cu2 1_555 1_555
N5 Cu1 1_555 1_555
N6 H1 1_555 1_555
C1 H2 1_555 1_555
C2 C1 1_555 1_555
H3 C2 1_555 1_555
C3 C2 1_555 1_555
H4 C3 1_555 1_555
C4 N4 1_555 1_555
C5 C4 1_555 1_555
C6 C1 1_555 1_555
H5 C6 1_555 1_555
C7 N3 1_555 1_555
H6 C7 1_555 1_555
C8 N4 1_555 1_555
H7 C8 1_555 1_555
C9 C10 1_555 1_555
C10 H8 1_555 1_555
C11 C10 1_555 1_555
H9 C11 1_555 1_555
C12 C11 1_555 1_555
H10 C12 1_555 1_555
C13 C12 1_555 1_555
H11 C13 1_555 1_555
C14 N2 1_555 1_555
C15 N2 1_555 1_555
H12 C15 1_555 1_555
C16 N1 1_555 1_555
H13 C16 1_555 1_555
C17 H14 1_555 1_555
C18 C17 1_555 1_555
H15 C18 1_555 1_555
C19 N6 1_555 1_555
C20 N5 1_555 1_555
C21 N5 1_555 1_555
H16 C21 1_555 1_555
C22 C20 1_555 1_555
H17 C22 1_555 1_555
C23 C17 1_555 1_555
H18 C23 1_555 1_555
O3A Mo1 1_555 1_555
O5A Mo3 1_555 1_555
O6A Mo3 1_555 1_555
O4A Mo4 1_555 1_555
O8A Mo4 1_555 1_555
O9A Cu2 1_555 1_555
N1A Cu2 1_555 1_555
Mo1A O3 1_555 1_555
Mo4A O4 1_555 1_555
Mo3A O5 1_555 1_555
Cu2A O9 1_555 1_555
Cu2A_2 N1 1_555 1_555
Mo3 O8 1_555 1_555
Mo4 O6 1_555 1_555
O6 Mo3A 1_555 1_555
O8 Mo4A 1_555 1_555
N6 C21 1_555 1_555
C3 C4 1_555 1_555
C5 C6 1_555 1_555
C7 C8 1_555 1_555
C9 C14 1_555 1_555
C13 C14 1_555 1_555
C15 C16 1_555 1_555
C18 C19 1_555 1_555
C19 C20 1_555 1_555
C22 C23 1_555 1_555
O3A Mo1A 1_555 1_555
O3A Mo3A 1_555 1_555
O3A Mo4A 1_555 1_555
O6A Mo1A 1_555 1_555
O6A Mo4A 1_555 1_555
O8A Mo1A 1_555 1_555
O8A Mo3A 1_555 1_555
O9A Mo4A 1_555 1_555

#END
