
#######################################################################
#
#                 Cambridge Crystallographic Data Centre
#                                CCDC 
#
#######################################################################
#
# If this CIF has been generated from an entry in the Cambridge 
# Structural Database, then it will include bibliographic, chemical, 
# crystal, experimental, refinement or atomic coordinate data resulting 
# from the CCDC's data processing and validation procedures.
#
#######################################################################

data_AGUYIK
_symmetry_cell_setting           rhombohedral
_symmetry_space_group_name_H-M   'R -3'
_symmetry_Int_Tables_number      148
_space_group_name_Hall           '-R 3'
loop_
_symmetry_equiv_pos_site_id
_symmetry_equiv_pos_as_xyz
1 x,y,z
2 -y,x-y,z
3 -x+y,-x,z
4 2/3+x,1/3+y,1/3+z
5 2/3-y,1/3+x-y,1/3+z
6 2/3-x+y,1/3-x,1/3+z
7 1/3+x,2/3+y,2/3+z
8 2/3+y,1/3-x+y,1/3-z
9 2/3+x-y,1/3+x,1/3-z
10 -x,-y,-z
11 y,-x+y,-z
12 x-y,x,-z
13 1/3-x,2/3-y,2/3-z
14 1/3+y,2/3-x+y,2/3-z
15 1/3+x-y,2/3+x,2/3-z
16 2/3-x,1/3-y,1/3-z
17 1/3-y,2/3+x-y,2/3+z
18 1/3-x+y,2/3-x,2/3+z
_cell_length_a                   29.7600(3)
_cell_length_b                   29.7600(3)
_cell_length_c                   9.5745(2)
_cell_angle_alpha                90
_cell_angle_beta                 90
_cell_angle_gamma                120.00
_cell_volume                     7343.66
loop_
_atom_site_label
_atom_site_type_symbol
_atom_site_fract_x
_atom_site_fract_y
_atom_site_fract_z
V1 V 0.88151(3) 0.56129(3) -0.41095(7)
V2 V 0.82680(3) 0.37086(3) -0.41601(6)
V3 V 0.73980(3) 0.47298(3) -0.41573(6)
P1 P 0.81486(4) 0.45670(4) -0.61410(10)
P2 P 0.81604(4) 0.45586(4) -0.21848(10)
O1 O 0.75955(11) 0.43832(11) -0.5604(3)
O2 O 0.83330(10) 0.41997(11) -0.5631(3)
O3 O 0.85160(11) 0.51274(10) -0.5727(3)
O4 O 0.81256(10) 0.45479(10) -0.7788(3)
O5 O 0.76140(10) 0.43836(10) -0.2765(3)
O6 O 0.85568(10) 0.51151(10) -0.2579(3)
O7 O 0.81188(10) 0.45441(10) -0.0536(3)
O8 O 0.83388(11) 0.41823(11) -0.2647(3)
O9 O 0.94046(13) 0.57761(14) -0.4362(3)
O10 O 0.88224(11) 0.37588(11) -0.4179(3)
O11 O 0.78673(11) 0.53119(11) -0.4064(3)
O12 O 0.73385(12) 0.34309(12) -0.4160(3)
N1 N 0.87107(16) 0.61812(14) -0.5148(4)
N2 N 0.90220(15) 0.62122(14) -0.2610(4)
C1 C 0.8430(3) 0.6083(2) -0.6327(5)
C2 C 0.8283(3) 0.6424(3) -0.6843(6)
C3 C 0.8476(3) 0.6907(2) -0.6215(6)
C4 C 0.8768(2) 0.70127(19) -0.5012(5)
C5 C 0.88610(19) 0.66351(17) -0.4463(5)
C6 C 0.90831(18) 0.66675(16) -0.3076(4)
C7 C 0.9334(2) 0.71180(19) -0.2289(5)
C8 C 0.9537(2) 0.7102(2) -0.0990(5)
C9 C 0.9473(2) 0.6634(2) -0.0504(6)
C10 C 0.9213(2) 0.61981(19) -0.1346(5)
H1 H 0.8321(18) 0.5809(19) -0.671(4)
H2 H 0.797(4) 0.621(4) -0.741(9)
H3 H 0.842(3) 0.716(3) -0.676(6)
H4 H 0.885(3) 0.731(3) -0.449(7)
H5 H 0.9309(18) 0.7460(18) -0.274(4)
H6 H 0.966(2) 0.739(2) -0.038(5)
H7 H 0.9643(19) 0.6643(19) 0.026(5)
H8 H 0.9137(17) 0.5830(17) -0.108(4)
V2N V 0.78927(4) 0.49347(3) -0.91732(6)
V2N_2 V 0.78927(4) 0.49347(3) 0.08268(6)
V3M V 0.80631(3) 0.39985(4) -0.91760(6)
V3M_2 V 0.80631(3) 0.39985(4) 0.08240(6)
P1M P 0.79003(4) 0.30851(6) -0.71923(10)
O1M O 0.77165(11) 0.34544(16) -0.7729(3)
O2M O 0.75330(11) 0.25334(15) -0.7702(3)
O3M O 0.84607(10) 0.32781(15) -0.7606(3)
O4M O 0.78812(10) 0.30890(14) -0.5545(3)
P2M P 0.78919(4) 0.30649(6) -0.11485(10)
O5M O 0.77169(10) 0.34363(14) -0.0568(3)
O6M O 0.84484(10) 0.32250(14) -0.0754(3)
O7M O 0.78774(10) 0.30920(14) -0.2797(3)
O8M O 0.75156(11) 0.25102(16) -0.0686(3)
P1N P 0.69149(6) 0.48153(4) -0.71923(10)
O1N O 0.65456(16) 0.42622(11) -0.7729(3)
O2N O 0.74666(15) 0.49997(10) -0.7702(3)
O3N O 0.67219(15) 0.51827(11) -0.7606(3)
O4N O 0.69110(14) 0.47923(10) -0.5545(3)
P2N P 0.69351(6) 0.48271(4) -0.11485(10)
O5N O 0.65637(14) 0.42807(10) -0.0568(3)
O6N O 0.67750(14) 0.52235(10) -0.0754(3)
O7N O 0.69080(14) 0.47855(10) -0.2797(3)
O8N O 0.74898(16) 0.50055(11) -0.0686(3)
O12A O 0.65691(12) 0.39076(17) -0.4160(3)
P2_2 P 0.81604(4) 0.45586(4) -1.21848(10)
O5_2 O 0.76140(10) 0.43836(10) -1.2765(3)
O6_2 O 0.85568(10) 0.51151(10) -1.2579(3)
O7_2 O 0.81188(10) 0.45441(10) -1.0536(3)
O8_2 O 0.83388(11) 0.41823(11) -1.2647(3)
P2N_2 P 0.69351(6) 0.48271(4) -1.11485(10)
O5N_2 O 0.65637(14) 0.42807(10) -1.0568(3)
O6N_2 O 0.67750(14) 0.52235(10) -1.0754(3)
O7N_2 O 0.69080(14) 0.47855(10) -1.2797(3)
O8N_2 O 0.74898(16) 0.50055(11) -1.0686(3)
O10N O 0.83969(16) 0.54891(11) -0.9154(3)
O12N O 0.72409(17) 0.40052(12) -0.9173(3)
P1N_2 P 0.69149(6) 0.48153(4) 0.28077(10)
O1N_2 O 0.65456(16) 0.42622(11) 0.2271(3)
O2N_2 O 0.74666(15) 0.49997(10) 0.2298(3)
O3N_2 O 0.67219(15) 0.51827(11) 0.2394(3)
O4N_2 O 0.69110(14) 0.47923(10) 0.4455(3)
P1_2 P 0.81486(4) 0.45670(4) 0.38590(10)
O1_2 O 0.75955(11) 0.43832(11) 0.4396(3)
O2_2 O 0.83330(10) 0.41997(11) 0.4369(3)
O3_2 O 0.85160(11) 0.51274(10) 0.4273(3)
O4_2 O 0.81256(10) 0.45479(10) 0.2212(3)
O10N_2 O 0.83969(16) 0.54891(11) 0.0846(3)
O12N_2 O 0.72409(17) 0.40052(12) 0.0827(3)
P2M_2 P 0.78919(4) 0.30649(6) -1.11485(10)
O5M_2 O 0.77169(10) 0.34363(14) -1.0568(3)
O6M_2 O 0.84484(10) 0.32250(14) -1.0754(3)
O7M_2 O 0.78774(10) 0.30920(14) -1.2797(3)
O8M_2 O 0.75156(11) 0.25102(16) -1.0686(3)
O11M O 0.86452(11) 0.41113(16) -0.9269(3)
P1M_2 P 0.79003(4) 0.30851(6) 0.28077(10)
O1M_2 O 0.77165(11) 0.34544(16) 0.2271(3)
O2M_2 O 0.75330(11) 0.25334(15) 0.2298(3)
O3M_2 O 0.84607(10) 0.32781(15) 0.2394(3)
O4M_2 O 0.78812(10) 0.30890(14) 0.4455(3)
O11M_2 O 0.86452(11) 0.41113(16) 0.0731(3)
V1M V 0.89462(3) 0.34645(4) -0.92238(7)
V1N V 0.65355(4) 0.54818(3) -0.92238(7)
V1N_2 V 0.65355(4) 0.54818(3) 0.07762(7)
V1_2 V 0.88151(3) 0.56129(3) 0.58905(7)
V1M_2 V 0.89462(3) 0.34645(4) 0.07762(7)
V2M V 0.70419(3) 0.21073(4) -0.91732(6)
V2_2 V 0.82680(3) 0.37086(3) 0.58399(6)
V2M_2 V 0.70419(3) 0.21073(4) 0.08268(6)
V3N V 0.60015(4) 0.40647(3) -0.91760(6)
V3N_2 V 0.60015(4) 0.40647(3) 0.08240(6)
V3_2 V 0.73980(3) 0.47298(3) 0.58427(6)
O9M O 0.91094(14) 0.30382(19) -0.8971(3)
N1M N 0.95145(14) 0.41372(21) -0.8185(4)
N2M N 0.95455(14) 0.38569(21) -1.0723(4)
C1M C 0.9416(2) 0.4320(4) -0.7006(5)
C2M C 0.9757(3) 0.4808(4) -0.6490(6)
C3M C 1.0240(2) 0.5098(4) -0.7118(6)
C4M C 1.03460(19) 0.49114(28) -0.8321(5)
C5M C 0.99684(17) 0.44408(25) -0.8870(5)
C6M C 1.00008(16) 0.42511(24) -1.0257(4)
C7M C 1.04513(19) 0.44507(28) -1.1044(5)
C8M C 1.0435(2) 0.4232(3) -1.2343(5)
C9M C 0.9967(2) 0.3828(3) -1.2829(6)
C10M C 0.95314(19) 0.36518(28) -1.1987(5)
H1M H 0.9142(19) 0.4155(26) -0.662(4)
H2M H 0.954(4) 0.491(6) -0.592(9)
H3M H 1.049(3) 0.541(4) -0.657(6)
H4M H 1.064(3) 0.513(4) -0.884(7)
H5M H 1.0793(18) 0.4818(25) -1.059(4)
H6M H 1.072(2) 0.440(3) -1.295(5)
H7M H 0.9976(19) 0.3667(27) -1.359(5)
H8M H 0.9163(17) 0.3360(24) -1.225(4)
O9N O 0.69618(19) 0.60713(13) -0.8971(3)
N1N N 0.58628(21) 0.53774(16) -0.8185(4)
N2N N 0.61431(21) 0.56887(15) -1.0723(4)
C1N C 0.5680(4) 0.5097(3) -0.7006(5)
C2N C 0.5192(4) 0.4950(3) -0.6490(6)
C3N C 0.4902(4) 0.5143(3) -0.7118(6)
C4N C 0.50886(28) 0.5435(2) -0.8321(5)
C5N C 0.55592(25) 0.55277(19) -0.8870(5)
C6N C 0.57489(24) 0.57498(18) -1.0257(4)
C7N C 0.55493(28) 0.6001(2) -1.1044(5)
C8N C 0.5768(3) 0.6204(2) -1.2343(5)
C9N C 0.6172(3) 0.6140(2) -1.2829(6)
C10N C 0.63482(28) 0.5880(2) -1.1987(5)
H1N H 0.5845(26) 0.4988(18) -0.662(4)
H2N H 0.509(6) 0.464(4) -0.592(9)
H3N H 0.459(4) 0.509(3) -0.657(6)
H4N H 0.487(4) 0.552(3) -0.884(7)
H5N H 0.5182(25) 0.5976(18) -1.059(4)
H6N H 0.560(3) 0.633(2) -1.295(5)
H7N H 0.6333(27) 0.6310(19) -1.359(5)
H8N H 0.6640(24) 0.5804(17) -1.225(4)
O9N_2 O 0.69618(19) 0.60713(13) 0.1029(3)
N1N_2 N 0.58628(21) 0.53774(16) 0.1815(4)
N2N_2 N 0.61431(21) 0.56887(15) -0.0723(4)
C1N_2 C 0.5680(4) 0.5097(3) 0.2994(5)
C2N_2 C 0.5192(4) 0.4950(3) 0.3510(6)
C3N_2 C 0.4902(4) 0.5143(3) 0.2882(6)
C4N_2 C 0.50886(28) 0.5435(2) 0.1679(5)
C5N_2 C 0.55592(25) 0.55277(19) 0.1130(5)
C6N_2 C 0.57489(24) 0.57498(18) -0.0257(4)
C7N_2 C 0.55493(28) 0.6001(2) -0.1044(5)
C8N_2 C 0.5768(3) 0.6204(2) -0.2343(5)
C9N_2 C 0.6172(3) 0.6140(2) -0.2829(6)
C10N_2 C 0.63482(28) 0.5880(2) -0.1987(5)
H1N_2 H 0.5845(26) 0.4988(18) 0.338(4)
H2N_2 H 0.509(6) 0.464(4) 0.408(9)
H3N_2 H 0.459(4) 0.509(3) 0.343(6)
H4N_2 H 0.487(4) 0.552(3) 0.116(7)
H5N_2 H 0.5182(25) 0.5976(18) -0.059(4)
H6N_2 H 0.560(3) 0.633(2) -0.295(5)
H7N_2 H 0.6333(27) 0.6310(19) -0.359(5)
H8N_2 H 0.6640(24) 0.5804(17) -0.225(4)
O9_2 O 0.94046(13) 0.57761(14) 0.5638(3)
N1_2 N 0.87107(16) 0.61812(14) 0.4852(4)
N2_2 N 0.90220(15) 0.62122(14) 0.7390(4)
C1_2 C 0.8430(3) 0.6083(2) 0.3673(5)
C2_2 C 0.8283(3) 0.6424(3) 0.3157(6)
C3_2 C 0.8476(3) 0.6907(2) 0.3785(6)
C4_2 C 0.8768(2) 0.70127(19) 0.4988(5)
C5_2 C 0.88610(19) 0.66351(17) 0.5537(5)
C6_2 C 0.90831(18) 0.66675(16) 0.6924(4)
C7_2 C 0.9334(2) 0.71180(19) 0.7711(5)
C8_2 C 0.9537(2) 0.7102(2) 0.9010(5)
C9_2 C 0.9473(2) 0.6634(2) 0.9496(6)
C10_2 C 0.9213(2) 0.61981(19) 0.8654(5)
H1_2 H 0.8321(18) 0.5809(19) 0.329(4)
H2_2 H 0.797(4) 0.621(4) 0.259(9)
H3_2 H 0.842(3) 0.716(3) 0.324(6)
H4_2 H 0.885(3) 0.731(3) 0.551(7)
H5_2 H 0.9309(18) 0.7460(18) 0.726(4)
H6_2 H 0.966(2) 0.739(2) 0.962(5)
H7_2 H 0.9643(19) 0.6643(19) 1.026(5)
H8_2 H 0.9137(17) 0.5830(17) 0.892(4)
O9M_2 O 0.91094(14) 0.30382(19) 0.1029(3)
N1M_2 N 0.95145(14) 0.41372(21) 0.1815(4)
N2M_2 N 0.95455(14) 0.38569(21) -0.0723(4)
C1M_2 C 0.9416(2) 0.4320(4) 0.2994(5)
C2M_2 C 0.9757(3) 0.4808(4) 0.3510(6)
C3M_2 C 1.0240(2) 0.5098(4) 0.2882(6)
C4M_2 C 1.03460(19) 0.49114(28) 0.1679(5)
C5M_2 C 0.99684(17) 0.44408(25) 0.1130(5)
C6M_2 C 1.00008(16) 0.42511(24) -0.0257(4)
C7M_2 C 1.04513(19) 0.44507(28) -0.1044(5)
C8M_2 C 1.0435(2) 0.4232(3) -0.2343(5)
C9M_2 C 0.9967(2) 0.3828(3) -0.2829(6)
C10M_2 C 0.95314(19) 0.36518(28) -0.1987(5)
H1M_2 H 0.9142(19) 0.4155(26) 0.338(4)
H2M_2 H 0.954(4) 0.491(6) 0.408(9)
H3M_2 H 1.049(3) 0.541(4) 0.343(6)
H4M_2 H 1.064(3) 0.513(4) 0.116(7)
H5M_2 H 1.0793(18) 0.4818(25) -0.059(4)
H6M_2 H 1.072(2) 0.440(3) -0.295(5)
H7M_2 H 0.9976(19) 0.3667(27) -0.359(5)
H8M_2 H 0.9163(17) 0.3360(24) -0.225(4)
O10M O 0.70921(11) 0.16031(16) -0.9154(3)
O12M O 0.67642(12) 0.27591(17) -0.9173(3)
O10_2 O 0.88224(11) 0.37588(11) 0.5821(3)
O12_2 O 0.73385(12) 0.34309(12) 0.5840(3)
O10M_2 O 0.70921(11) 0.16031(16) 0.0846(3)
O11N O 0.58887(16) 0.45340(11) -0.9269(3)
O11N_2 O 0.58887(16) 0.45340(11) 0.0731(3)
O11_2 O 0.78673(11) 0.53119(11) 0.5936(3)
V3B V 0.73318(4) 0.26020(3) -0.41573(6)
V2A V 0.62914(3) 0.45594(4) -0.41601(6)
V3_3 V 0.73980(3) 0.47298(3) -1.41573(6)
V1_3 V 0.88151(3) 0.56129(3) -1.41095(7)
V2_3 V 0.82680(3) 0.37086(3) -1.41601(6)
V2A_2 V 0.62914(3) 0.45594(4) -1.41601(6)
V2A_3 V 0.62914(3) 0.45594(4) 0.58399(6)
V3B_2 V 0.73318(4) 0.26020(3) -1.41573(6)
V3B_3 V 0.73318(4) 0.26020(3) 0.58427(6)
O6_3 O 0.85568(10) 0.51151(10) 0.7421(3)
O4B O 0.64223(14) 0.18744(10) -0.7788(3)
O7B O 0.64253(14) 0.18812(10) -1.0536(3)
O7M_3 O 0.78774(10) 0.30920(14) 0.7203(3)
O8_3 O 0.83388(11) 0.41823(11) 0.7353(3)
O4B_2 O 0.64223(14) 0.18744(10) 0.2212(3)
O7B_2 O 0.64253(14) 0.18812(10) -0.0536(3)
O12M_2 O 0.67642(12) 0.27591(17) 0.0827(3)
O4A O 0.54521(10) 0.35777(14) -0.7788(3)
O7A O 0.54559(10) 0.35747(14) -1.0536(3)
O12L O 0.59948(12) 0.32358(12) -0.9173(3)
O4A_2 O 0.54521(10) 0.35777(14) 0.2212(3)
O7A_2 O 0.54559(10) 0.35747(14) -0.0536(3)
O12L_2 O 0.59948(12) 0.32358(12) 0.0827(3)
O5_3 O 0.76140(10) 0.43836(10) 0.7235(3)
O7N_3 O 0.69080(14) 0.47855(10) 0.7203(3)
O12A_2 O 0.65691(12) 0.39076(17) 0.5840(3)
V3L V 0.59353(3) 0.19369(3) -0.91760(6)
O13 O 0.6667 0.3333 -0.6667
O14 O 0.6667 0.3333 -0.1667
loop_
_geom_bond_atom_site_label_1
_geom_bond_atom_site_label_2
_geom_bond_site_symmetry_1
_geom_bond_site_symmetry_2
V1 O3 1_555 1_555
V2 O2 1_555 1_555
V3 O1 1_555 1_555
P1 O1 1_555 1_555
P2 O5 1_555 1_555
O2 P1 1_555 1_555
O3 P1 1_555 1_555
O4 P1 1_555 1_555
O5 V3 1_555 1_555
O6 V1 1_555 1_555
O7 P2 1_555 1_555
O8 V2 1_555 1_555
O9 V1 1_555 1_555
O10 V2 1_555 1_555
O11 V3 1_555 1_555
O12 V2 1_555 1_555
N1 V1 1_555 1_555
N2 V1 1_555 1_555
C1 N1 1_555 1_555
C2 C1 1_555 1_555
C3 C2 1_555 1_555
C4 C3 1_555 1_555
C5 N1 1_555 1_555
C6 N2 1_555 1_555
C7 C6 1_555 1_555
C8 C7 1_555 1_555
C9 C8 1_555 1_555
C10 N2 1_555 1_555
H1 C1 1_555 1_555
H2 C2 1_555 1_555
H3 C3 1_555 1_555
H4 C4 1_555 1_555
H5 C7 1_555 1_555
H6 C8 1_555 1_555
H7 C9 1_555 1_555
H8 C10 1_555 1_555
V2N O4 1_555 1_555
V2N_2 O7 1_555 1_555
V3M O4 1_555 1_555
V3M_2 O7 1_555 1_555
P1M O1M 1_555 1_555
O1M V3M 1_555 1_555
O2M P1M 1_555 1_555
O3M P1M 1_555 1_555
O4M V2 1_555 1_555
P2M O5M 1_555 1_555
O5M V3M_2 1_555 1_555
O6M P2M 1_555 1_555
O7M V2 1_555 1_555
O8M P2M 1_555 1_555
P1N O1N 1_555 1_555
O1N V3N 1_555 1_555
O2N V2N 1_555 1_555
O3N P1N 1_555 1_555
O4N V3 1_555 1_555
P2N O5N 1_555 1_555
O5N V3N_2 1_555 1_555
O6N P2N 1_555 1_555
O7N V3 1_555 1_555
O8N V2N_2 1_555 1_555
O12A V3 1_555 1_555
P2_2 O5_2 1_555 1_555
O5_2 V3_3 1_555 1_555
O6_2 P2_2 1_555 1_555
O7_2 V2N 1_555 1_555
O8_2 P2_2 1_555 1_555
P2N_2 O5N_2 1_555 1_555
O5N_2 V3N 1_555 1_555
O6N_2 P2N_2 1_555 1_555
O7N_2 P2N_2 1_555 1_555
O8N_2 V2N 1_555 1_555
O10N V2N 1_555 1_555
O12N V2N 1_555 1_555
P1N_2 O1N_2 1_555 1_555
O1N_2 V3N_2 1_555 1_555
O2N_2 V2N_2 1_555 1_555
O3N_2 P1N_2 1_555 1_555
O4N_2 P1N_2 1_555 1_555
P1_2 O1_2 1_555 1_555
O1_2 V3_2 1_555 1_555
O2_2 P1_2 1_555 1_555
O3_2 P1_2 1_555 1_555
O4_2 V2N_2 1_555 1_555
O10N_2 V2N_2 1_555 1_555
O12N_2 V2N_2 1_555 1_555
P2M_2 O5M_2 1_555 1_555
O5M_2 V3M 1_555 1_555
O6M_2 P2M_2 1_555 1_555
O7M_2 P2M_2 1_555 1_555
O8M_2 P2M_2 1_555 1_555
O11M V3M 1_555 1_555
P1M_2 O1M_2 1_555 1_555
O1M_2 V3M_2 1_555 1_555
O2M_2 P1M_2 1_555 1_555
O3M_2 P1M_2 1_555 1_555
O4M_2 P1M_2 1_555 1_555
O11M_2 V3M_2 1_555 1_555
V1M O3M 1_555 1_555
V1N O3N 1_555 1_555
V1N_2 O6N 1_555 1_555
V1_2 O3_2 1_555 1_555
V1M_2 O6M 1_555 1_555
V2M O2M 1_555 1_555
V2_2 O2_2 1_555 1_555
V2M_2 O8M 1_555 1_555
V3N O11N 1_555 1_555
V3N_2 O11N_2 1_555 1_555
V3_2 O4N_2 1_555 1_555
O9M V1M 1_555 1_555
N1M V1M 1_555 1_555
N2M V1M 1_555 1_555
C1M N1M 1_555 1_555
C2M C1M 1_555 1_555
C3M C2M 1_555 1_555
C4M C3M 1_555 1_555
C5M N1M 1_555 1_555
C6M N2M 1_555 1_555
C7M C6M 1_555 1_555
C8M C7M 1_555 1_555
C9M C8M 1_555 1_555
C10M N2M 1_555 1_555
H1M C1M 1_555 1_555
H2M C2M 1_555 1_555
H3M C3M 1_555 1_555
H4M C4M 1_555 1_555
H5M C7M 1_555 1_555
H6M C8M 1_555 1_555
H7M C9M 1_555 1_555
H8M C10M 1_555 1_555
O9N V1N 1_555 1_555
N1N V1N 1_555 1_555
N2N V1N 1_555 1_555
C1N N1N 1_555 1_555
C2N C1N 1_555 1_555
C3N C2N 1_555 1_555
C4N C3N 1_555 1_555
C5N N1N 1_555 1_555
C6N N2N 1_555 1_555
C7N C6N 1_555 1_555
C8N C7N 1_555 1_555
C9N C8N 1_555 1_555
C10N N2N 1_555 1_555
H1N C1N 1_555 1_555
H2N C2N 1_555 1_555
H3N C3N 1_555 1_555
H4N C4N 1_555 1_555
H5N C7N 1_555 1_555
H6N C8N 1_555 1_555
H7N C9N 1_555 1_555
H8N C10N 1_555 1_555
O9N_2 V1N_2 1_555 1_555
N1N_2 V1N_2 1_555 1_555
N2N_2 V1N_2 1_555 1_555
C1N_2 N1N_2 1_555 1_555
C2N_2 C1N_2 1_555 1_555
C3N_2 C2N_2 1_555 1_555
C4N_2 C3N_2 1_555 1_555
C5N_2 N1N_2 1_555 1_555
C6N_2 N2N_2 1_555 1_555
C7N_2 C6N_2 1_555 1_555
C8N_2 C7N_2 1_555 1_555
C9N_2 C8N_2 1_555 1_555
C10N_2 N2N_2 1_555 1_555
H1N_2 C1N_2 1_555 1_555
H2N_2 C2N_2 1_555 1_555
H3N_2 C3N_2 1_555 1_555
H4N_2 C4N_2 1_555 1_555
H5N_2 C7N_2 1_555 1_555
H6N_2 C8N_2 1_555 1_555
H7N_2 C9N_2 1_555 1_555
H8N_2 C10N_2 1_555 1_555
O9_2 V1_2 1_555 1_555
N1_2 V1_2 1_555 1_555
N2_2 V1_2 1_555 1_555
C1_2 N1_2 1_555 1_555
C2_2 C1_2 1_555 1_555
C3_2 C2_2 1_555 1_555
C4_2 C3_2 1_555 1_555
C5_2 N1_2 1_555 1_555
C6_2 N2_2 1_555 1_555
C7_2 C6_2 1_555 1_555
C8_2 C7_2 1_555 1_555
C9_2 C8_2 1_555 1_555
C10_2 N2_2 1_555 1_555
H1_2 C1_2 1_555 1_555
H2_2 C2_2 1_555 1_555
H3_2 C3_2 1_555 1_555
H4_2 C4_2 1_555 1_555
H5_2 C7_2 1_555 1_555
H6_2 C8_2 1_555 1_555
H7_2 C9_2 1_555 1_555
H8_2 C10_2 1_555 1_555
O9M_2 V1M_2 1_555 1_555
N1M_2 V1M_2 1_555 1_555
N2M_2 V1M_2 1_555 1_555
C1M_2 N1M_2 1_555 1_555
C2M_2 C1M_2 1_555 1_555
C3M_2 C2M_2 1_555 1_555
C4M_2 C3M_2 1_555 1_555
C5M_2 N1M_2 1_555 1_555
C6M_2 N2M_2 1_555 1_555
C7M_2 C6M_2 1_555 1_555
C8M_2 C7M_2 1_555 1_555
C9M_2 C8M_2 1_555 1_555
C10M_2 N2M_2 1_555 1_555
H1M_2 C1M_2 1_555 1_555
H2M_2 C2M_2 1_555 1_555
H3M_2 C3M_2 1_555 1_555
H4M_2 C4M_2 1_555 1_555
H5M_2 C7M_2 1_555 1_555
H6M_2 C8M_2 1_555 1_555
H7M_2 C9M_2 1_555 1_555
H8M_2 C10M_2 1_555 1_555
O10M V2M 1_555 1_555
O12M V2M 1_555 1_555
O10_2 V2_2 1_555 1_555
O12_2 V2_2 1_555 1_555
O10M_2 V2M_2 1_555 1_555
O11_2 V3_2 1_555 1_555
V3B O12 1_555 1_555
V2A O4N 1_555 1_555
V3_3 O7N_2 1_555 1_555
V1_3 O6_2 1_555 1_555
V2_3 O8_2 1_555 1_555
V2A_2 O7N_2 1_555 1_555
V2A_3 O4N_2 1_555 1_555
V3B_2 O7M_2 1_555 1_555
V3B_3 O4M_2 1_555 1_555
O6_3 V1_2 1_555 1_555
O4B V2M 1_555 1_555
O7B V2M 1_555 1_555
O7M_3 V2_2 1_555 1_555
O8_3 V2_2 1_555 1_555
O4B_2 V2M_2 1_555 1_555
O7B_2 V2M_2 1_555 1_555
O12M_2 V2M_2 1_555 1_555
O4A V3N 1_555 1_555
O7A V3N 1_555 1_555
O12L V3N 1_555 1_555
O4A_2 V3N_2 1_555 1_555
O7A_2 V3N_2 1_555 1_555
O12L_2 V3N_2 1_555 1_555
O5_3 V3_2 1_555 1_555
O7N_3 V3_2 1_555 1_555
O12A_2 V3_2 1_555 1_555
V3L O12M 1_555 1_555
P2 O6 1_555 1_555
P2 O8 1_555 1_555
C4 C5 1_555 1_555
C5 C6 1_555 1_555
C9 C10 1_555 1_555
V3M O12N 1_555 1_555
V3M O7_2 1_555 1_555
V3M_2 O12N_2 1_555 1_555
V3M_2 O4_2 1_555 1_555
P1M O4M 1_555 1_555
O4M V3B 1_555 1_555
P2M O7M 1_555 1_555
O7M V3B 1_555 1_555
P1N O2N 1_555 1_555
P1N O4N 1_555 1_555
P2N O7N 1_555 1_555
P2N O8N 1_555 1_555
O7N V2A 1_555 1_555
O12A V2A 1_555 1_555
P2_2 O7_2 1_555 1_555
P2N_2 O8N_2 1_555 1_555
O6N_2 V1N 1_555 1_555
P1N_2 O2N_2 1_555 1_555
O3N_2 V1N_2 1_555 1_555
P1_2 O4_2 1_555 1_555
O6M_2 V1M 1_555 1_555
O7M_2 V2_3 1_555 1_555
O8M_2 V2M 1_555 1_555
O2M_2 V2M_2 1_555 1_555
O3M_2 V1M_2 1_555 1_555
O4M_2 V2_2 1_555 1_555
C4M C5M 1_555 1_555
C5M C6M 1_555 1_555
C9M C10M 1_555 1_555
C4N C5N 1_555 1_555
C5N C6N 1_555 1_555
C9N C10N 1_555 1_555
C4N_2 C5N_2 1_555 1_555
C5N_2 C6N_2 1_555 1_555
C9N_2 C10N_2 1_555 1_555
C4_2 C5_2 1_555 1_555
C5_2 C6_2 1_555 1_555
C9_2 C10_2 1_555 1_555
C4M_2 C5M_2 1_555 1_555
C5M_2 C6M_2 1_555 1_555
C9M_2 C10M_2 1_555 1_555
O12_2 V3B_3 1_555 1_555
V2A_3 O7N_3 1_555 1_555
V2A_3 O12A_2 1_555 1_555
V3B_3 O7M_3 1_555 1_555
O4B V3L 1_555 1_555
O7B V3L 1_555 1_555

#END
