
#######################################################################
#
#                 Cambridge Crystallographic Data Centre
#                                CCDC 
#
#######################################################################
#
# If this CIF has been generated from an entry in the Cambridge 
# Structural Database, then it will include bibliographic, chemical, 
# crystal, experimental, refinement or atomic coordinate data resulting 
# from the CCDC's data processing and validation procedures.
#
#######################################################################

data_AHADUJ
_symmetry_cell_setting           monoclinic
_symmetry_space_group_name_H-M   'P 21/c'
_symmetry_Int_Tables_number      14
_space_group_name_Hall           '-P 2ybc'
loop_
_symmetry_equiv_pos_site_id
_symmetry_equiv_pos_as_xyz
1 x,y,z
2 -x,1/2+y,1/2-z
3 -x,-y,-z
4 x,1/2-y,1/2+z
_cell_length_a                   11.328(4)
_cell_length_b                   12.873(4)
_cell_length_c                   14.424(5)
_cell_angle_alpha                90
_cell_angle_beta                 101.925(6)
_cell_angle_gamma                90
_cell_volume                     2057.99
loop_
_atom_site_label
_atom_site_type_symbol
_atom_site_fract_x
_atom_site_fract_y
_atom_site_fract_z
O1 O 0.50204(15) -0.20052(13) 0.73012(11)
C1 C 0.4861(2) -0.10944(17) 0.69541(14)
N1 N 1.22352(17) 0.77106(14) 0.71906(13)
C2 C 1.1711(2) 0.8522(2) 0.66349(17)
H1 H 1.2057 0.9173 0.6604
C3 C 1.1442(2) 0.6945(2) 0.70191(16)
H2 H 1.1557 0.6293 0.7301
C4 C 1.0621(2) 0.8229(2) 0.61422(18)
H3 H 1.0084 0.8633 0.5715
N2 N 1.04556(19) 0.72234(16) 0.63917(14)
C5 C 0.9401(2) 0.6586(2) 0.60175(17)
H4 H 0.8684 0.6935 0.6130
H5 H 0.9473 0.5929 0.6354
Co1 Co 0.61578(2) 0.27267(2) 0.688025(18)
O2 O 0.61482(15) 0.12547(12) 0.64147(11)
O3 O 0.42975(16) 0.17410(12) 0.58561(12)
N3 N 0.66749(15) 0.50190(13) 0.49701(12)
C6 C 0.48223(18) -0.00008(15) 0.54946(13)
H6 H 0.3952 -0.0127 0.5397
N4 N 0.63325(16) 0.36441(14) 0.57774(12)
C7 C 0.54695(19) -0.08552(16) 0.61380(13)
H7 H 0.5492 -0.1481 0.5767
H8 H 0.6295 -0.0642 0.6388
C8 C 0.6637(2) 0.46336(17) 0.58222(15)
H9 H 0.6806 0.5017 0.6380
O4 O 0.42394(17) -0.04392(14) 0.72601(12)
C9 C 0.5084(2) 0.10689(16) 0.59562(14)
C10 C 0.9257(2) 0.63804(18) 0.49686(16)
C11 C 0.8123(2) 0.61684(16) 0.43962(16)
C12 C 0.6977(2) 0.60996(17) 0.47681(17)
H10 H 0.7066 0.6507 0.5344
H11 H 0.6318 0.6395 0.4305
C13 C 0.6166(2) 0.33934(19) 0.48402(16)
H12 H 0.5944 0.2741 0.4587
C14 C 0.6369(2) 0.4230(2) 0.43374(17)
H13 H 0.6312 0.4263 0.3686
C15 C 0.8047(2) 0.6018(2) 0.34286(17)
H14 H 0.7296 0.5893 0.3042
C16 C 1.0251(2) 0.6401(2) 0.45523(19)
H15 H 1.1009 0.6530 0.4928
C17 C 0.9046(3) 0.6048(2) 0.30294(19)
H16 H 0.8973 0.5943 0.2382
C18 C 1.0150(3) 0.6236(2) 0.3596(2)
H17 H 1.0835 0.6253 0.3335
O1B O 0.49796(15) 0.20052(13) 0.26988(11)
O1A O 0.49796(15) 0.29948(13) 0.76988(11)
O1C O 0.50204(15) -0.29948(13) 0.23012(11)
C1B C 0.5139(2) 0.10944(17) 0.30459(14)
N1A N 0.77648(17) 0.27106(14) 0.78094(13)
N1C N 0.22352(17) -0.27106(14) 0.21906(13)
C2A C 0.8289(2) 0.3522(2) 0.83651(17)
H1A H 0.7943 0.4173 0.8396
C3A C 0.8558(2) 0.1945(2) 0.79809(16)
H2A H 0.8443 0.1293 0.7699
C4A C 0.9379(2) 0.3229(2) 0.88578(18)
H3A H 0.9916 0.3633 0.9285
N2A N 0.95444(19) 0.22234(16) 0.86083(14)
C5A C 1.0599(2) 0.1586(2) 0.89825(17)
H4A H 1.1316 0.1935 0.8870
H5A H 1.0527 0.0929 0.8646
Co1B Co 0.38422(2) -0.27267(2) 0.311975(18)
Co1A Co 0.38422(2) -0.22733(2) 0.811975(18)
Co1A_2 Co 1.38422(2) 0.77267(2) 0.811975(18)
Co1C Co 0.61578(2) 0.22733(2) 0.188025(18)
Co1A_3 Co 1.38422(2) -0.22733(2) 0.811975(18)
O2B O 0.38518(15) -0.12547(12) 0.35853(11)
O3B O 0.57025(16) -0.17410(12) 0.41439(12)
N3A N 1.33251(15) 0.00190(13) 1.00299(12)
C6B C 0.51777(18) 0.00008(15) 0.45054(13)
H6B H 0.6048 0.0127 0.4603
N4A N 1.36675(16) -0.13559(14) 0.92226(12)
N4B N 0.36675(16) -0.36441(14) 0.42226(12)
C7B C 0.45305(19) 0.08552(16) 0.38620(13)
H7B H 0.4508 0.1481 0.4233
H8B H 0.3705 0.0642 0.3612
C8A C 1.3363(2) -0.03664(17) 0.91778(15)
H9A H 1.3194 0.0017 0.8620
O4B O 0.57606(17) 0.04392(14) 0.27399(12)
C9B C 0.4916(2) -0.10689(16) 0.40438(14)
C10A C 1.0743(2) 0.13804(18) 1.00314(16)
C11A C 1.1877(2) 0.11684(16) 1.06038(16)
C12A C 1.3023(2) 0.10996(17) 1.02319(17)
H10A H 1.2934 0.1507 0.9656
H11A H 1.3682 0.1395 1.0695
C13A C 1.3834(2) -0.16066(19) 1.01598(16)
H12A H 1.4056 -0.2259 1.0413
C14A C 1.3631(2) -0.0770(2) 1.06626(17)
H13A H 1.3688 -0.0737 1.1314
C15A C 1.1953(2) 0.1018(2) 1.15714(17)
H14A H 1.2704 0.0893 1.1958
C16A C 0.9749(2) 0.1401(2) 1.04477(19)
H15A H 0.8991 0.1530 1.0072
C17A C 1.0954(3) 0.1048(2) 1.19706(19)
H16A H 1.1027 0.0943 1.2618
C18A C 0.9850(3) 0.1236(2) 1.1404(2)
H17A H 0.9165 0.1253 1.1665
O5 O 0.1936(2) 0.3909(2) 0.0179(2)
H18 H 0.2419 0.3850 0.0713
H19 H 0.2231 0.3603 -0.0243
O6 O 0.9273(3) 0.8909(3) 0.3433(3)
H20 H 0.9291 0.8498 0.3897
H21 H 0.9847 0.8761 0.3158
O7 O 0.6916(2) 0.6592(2) 0.72428(17)
H22 H 0.7576 0.6697 0.7635
H23 H 0.6341 0.6874 0.7447
O8 O 0.1628(3) 0.9415(3) 0.4042(2)
H24 H 0.2329 0.9158 0.4220
H25 H 0.1381 0.9645 0.4521
loop_
_geom_bond_atom_site_label_1
_geom_bond_atom_site_label_2
_geom_bond_site_symmetry_1
_geom_bond_site_symmetry_2
O1 C1 1_555 1_555
C1 C7 1_555 1_555
N1 C2 1_555 1_555
C2 H1 1_555 1_555
C3 N1 1_555 1_555
H2 C3 1_555 1_555
C4 C2 1_555 1_555
H3 C4 1_555 1_555
N2 C3 1_555 1_555
C5 N2 1_555 1_555
H4 C5 1_555 1_555
H5 C5 1_555 1_555
Co1 O2 1_555 1_555
O2 C9 1_555 1_555
O3 C9 1_555 1_555
N3 C8 1_555 1_555
C6 H6 1_555 1_555
N4 Co1 1_555 1_555
C7 C6 1_555 1_555
H7 C7 1_555 1_555
H8 C7 1_555 1_555
C8 N4 1_555 1_555
H9 C8 1_555 1_555
O4 C1 1_555 1_555
C9 C6 1_555 1_555
C10 C5 1_555 1_555
C11 C10 1_555 1_555
C12 N3 1_555 1_555
H10 C12 1_555 1_555
H11 C12 1_555 1_555
C13 N4 1_555 1_555
H12 C13 1_555 1_555
C14 N3 1_555 1_555
H13 C14 1_555 1_555
C15 C11 1_555 1_555
H14 C15 1_555 1_555
C16 C10 1_555 1_555
H15 C16 1_555 1_555
C17 C15 1_555 1_555
H16 C17 1_555 1_555
C18 C16 1_555 1_555
H17 C18 1_555 1_555
O5 H18 1_555 1_555
H19 O5 1_555 1_555
O6 H20 1_555 1_555
H21 O6 1_555 1_555
O7 H22 1_555 1_555
H23 O7 1_555 1_555
O8 H24 1_555 1_555
H25 O8 1_555 1_555
O1B C1B 1_555 1_555
O1A Co1 1_555 1_555
O1C Co1B 1_555 1_555
C1B C7B 1_555 1_555
N1A Co1 1_555 1_555
N1C Co1B 1_555 1_555
C2A N1A 1_555 1_555
H1A C2A 1_555 1_555
C3A N1A 1_555 1_555
H2A C3A 1_555 1_555
C4A C2A 1_555 1_555
H3A C4A 1_555 1_555
N2A C3A 1_555 1_555
C5A N2A 1_555 1_555
H4A C5A 1_555 1_555
H5A C5A 1_555 1_555
Co1B O2B 1_555 1_555
Co1A O1 1_555 1_555
Co1A_2 N1 1_555 1_555
Co1C O1B 1_555 1_555
Co1A_3 N4A 1_555 1_555
O2B C9B 1_555 1_555
O3B C9B 1_555 1_555
N3A C8A 1_555 1_555
C6B C6 1_555 1_555
H6B C6B 1_555 1_555
N4A C8A 1_555 1_555
N4B Co1B 1_555 1_555
C7B C6B 1_555 1_555
H7B C7B 1_555 1_555
H8B C7B 1_555 1_555
C8A H9A 1_555 1_555
O4B C1B 1_555 1_555
C9B C6B 1_555 1_555
C10A C5A 1_555 1_555
C11A C10A 1_555 1_555
C12A N3A 1_555 1_555
H10A C12A 1_555 1_555
H11A C12A 1_555 1_555
C13A N4A 1_555 1_555
H12A C13A 1_555 1_555
C14A N3A 1_555 1_555
H13A C14A 1_555 1_555
C15A C11A 1_555 1_555
H14A C15A 1_555 1_555
C16A C10A 1_555 1_555
H15A C16A 1_555 1_555
C17A C15A 1_555 1_555
H16A C17A 1_555 1_555
C18A C16A 1_555 1_555
H17A C18A 1_555 1_555
C4 N2 1_555 1_555
C11 C12 1_555 1_555
C13 C14 1_555 1_555
C17 C18 1_555 1_555
C4A N2A 1_555 1_555
C11A C12A 1_555 1_555
C13A C14A 1_555 1_555
C17A C18A 1_555 1_555

#END
