
#######################################################################
#
#                 Cambridge Crystallographic Data Centre
#                                CCDC 
#
#######################################################################
#
# If this CIF has been generated from an entry in the Cambridge 
# Structural Database, then it will include bibliographic, chemical, 
# crystal, experimental, refinement or atomic coordinate data resulting 
# from the CCDC's data processing and validation procedures.
#
#######################################################################

data_AHADAO
_symmetry_cell_setting           monoclinic
_symmetry_space_group_name_H-M   'P 21/n'
_symmetry_Int_Tables_number      14
_space_group_name_Hall           '-P 2yn'
loop_
_symmetry_equiv_pos_site_id
_symmetry_equiv_pos_as_xyz
1 x,y,z
2 1/2+x,1/2-y,1/2+z
3 -x,-y,-z
4 1/2-x,1/2+y,1/2-z
_cell_length_a                   9.9704(5)
_cell_length_b                   11.1978(5)
_cell_length_c                   19.9430(9)
_cell_angle_alpha                90
_cell_angle_beta                 92.2200(10)
_cell_angle_gamma                90
_cell_volume                     2224.9
loop_
_atom_site_label
_atom_site_type_symbol
_atom_site_fract_x
_atom_site_fract_y
_atom_site_fract_z
Hg1 Hg 0.289697(9) 0.063584(9) 0.015293(5)
O1 O 0.52349(17) 0.11512(18) -0.03714(9)
H1 H 0.4748 0.0867 -0.0671
O2 O -0.38473(18) -0.00782(19) 0.13849(9)
O3 O -0.1115(2) 0.2215(2) 0.01386(10)
O4 O 0.03203(19) 0.0648(2) 0.06212(12)
O5 O 0.2953(2) -0.05385(19) 0.16253(11)
O6 O 0.5172(2) 0.27767(19) 0.10817(10)
O7 O 0.2878(2) 0.34868(19) 0.11642(10)
N1 N 0.3040(2) 0.2620(2) -0.03855(11)
N2 N -0.22014(19) 0.04218(19) 0.06618(10)
N3 N 0.3313(2) 0.12582(19) 0.11292(10)
S1 S -0.08997(7) 0.13238(7) 0.06397(3)
S2 S 0.38622(7) 0.25914(6) 0.13317(3)
C1 C 0.1925(3) 0.3288(3) -0.04251(16)
H2 H 0.1117 0.2937 -0.0315
C2 C 0.1914(3) 0.4458(3) -0.0618(2)
H3 H 0.1121 0.4896 -0.0634
C3 C 0.3099(4) 0.4970(3) -0.0788(2)
H4 H 0.3123 0.5763 -0.0925
C4 C 0.4252(3) 0.4301(3) -0.07536(18)
H5 H 0.5065 0.4640 -0.0866
C5 C 0.4203(3) 0.3117(3) -0.05502(13)
C6 C 0.5460(3) 0.2372(3) -0.05062(15)
H6 H 0.5912 0.2438 -0.0927
H7 H 0.6056 0.2695 -0.0155
C7 C -0.2845(2) 0.0492(2) 0.12564(12)
C8 C -0.2170(2) 0.1347(3) 0.17251(12)
C9 C -0.2520(3) 0.1633(3) 0.23693(14)
H8 H -0.3247 0.1271 0.2566
C10 C -0.1750(3) 0.2479(3) 0.27112(16)
H9 H -0.1981 0.2702 0.3141
C11 C -0.0659(4) 0.2996(4) 0.24359(16)
H10 H -0.0154 0.3548 0.2686
C12 C -0.0287(3) 0.2714(3) 0.17912(16)
H11 H 0.0455 0.3062 0.1600
C13 C -0.1082(2) 0.1888(3) 0.14497(13)
C14 C 0.3235(3) 0.0512(3) 0.16728(13)
C15 C 0.3537(3) 0.1161(3) 0.23096(13)
C16 C 0.3454(3) 0.0738(3) 0.29613(15)
H12 H 0.3179 -0.0039 0.3046
C17 C 0.3797(4) 0.1514(4) 0.34788(16)
H13 H 0.3743 0.1251 0.3919
C18 C 0.4216(4) 0.2662(4) 0.33625(17)
H14 H 0.4452 0.3155 0.3723
C19 C 0.4291(3) 0.3091(3) 0.27181(16)
H15 H 0.4571 0.3867 0.2634
C20 C 0.3932(3) 0.2316(3) 0.22021(13)
O1B O 0.47651(17) -0.11512(18) 0.03714(9)
N2B N 0.22014(19) -0.04218(19) -0.06618(10)
Hg1B Hg 0.710303(9) -0.063584(9) -0.015293(5)
Hg1B_2 Hg -0.289697(9) -0.063584(9) -0.015293(5)
H1B H 0.5252 -0.0867 0.0671
loop_
_geom_bond_atom_site_label_1
_geom_bond_atom_site_label_2
_geom_bond_site_symmetry_1
_geom_bond_site_symmetry_2
Hg1 O1 1_555 1_555
O1 H1 1_555 1_555
O2 C7 1_555 1_555
O3 S1 1_555 1_555
O4 Hg1 1_555 1_555
O5 C14 1_555 1_555
O6 S2 1_555 1_555
O7 S2 1_555 1_555
N1 Hg1 1_555 1_555
N2 S1 1_555 1_555
N3 Hg1 1_555 1_555
S1 O4 1_555 1_555
S2 N3 1_555 1_555
C1 N1 1_555 1_555
H2 C1 1_555 1_555
C2 C1 1_555 1_555
H3 C2 1_555 1_555
C3 C2 1_555 1_555
H4 C3 1_555 1_555
C4 C3 1_555 1_555
H5 C4 1_555 1_555
C5 N1 1_555 1_555
C6 O1 1_555 1_555
H6 C6 1_555 1_555
H7 C6 1_555 1_555
C7 N2 1_555 1_555
C8 C7 1_555 1_555
C9 C8 1_555 1_555
H8 C9 1_555 1_555
C10 C9 1_555 1_555
H9 C10 1_555 1_555
C11 C10 1_555 1_555
H10 C11 1_555 1_555
C12 C11 1_555 1_555
H11 C12 1_555 1_555
C13 S1 1_555 1_555
C14 N3 1_555 1_555
C15 C14 1_555 1_555
C16 C15 1_555 1_555
H12 C16 1_555 1_555
C17 C16 1_555 1_555
H13 C17 1_555 1_555
C18 C17 1_555 1_555
H14 C18 1_555 1_555
C19 C18 1_555 1_555
H15 C19 1_555 1_555
C20 S2 1_555 1_555
O1B Hg1 1_555 1_555
N2B Hg1 1_555 1_555
Hg1B O1 1_555 1_555
Hg1B_2 N2 1_555 1_555
H1B O1B 1_555 1_555
C4 C5 1_555 1_555
C5 C6 1_555 1_555
C8 C13 1_555 1_555
C12 C13 1_555 1_555
C15 C20 1_555 1_555
C19 C20 1_555 1_555
O1B Hg1B 1_555 1_555

#END
