
#######################################################################
#
#                 Cambridge Crystallographic Data Centre
#                                CCDC 
#
#######################################################################
#
# If this CIF has been generated from an entry in the Cambridge 
# Structural Database, then it will include bibliographic, chemical, 
# crystal, experimental, refinement or atomic coordinate data resulting 
# from the CCDC's data processing and validation procedures.
#
#######################################################################

data_AHAFEV
_symmetry_cell_setting           monoclinic
_symmetry_space_group_name_H-M   'P 21/n'
_symmetry_Int_Tables_number      14
_space_group_name_Hall           '-P 2yn'
loop_
_symmetry_equiv_pos_site_id
_symmetry_equiv_pos_as_xyz
1 x,y,z
2 1/2-x,1/2+y,1/2-z
3 -x,-y,-z
4 1/2+x,1/2-y,1/2+z
_cell_length_a                   12.6067(10)
_cell_length_b                   25.993(2)
_cell_length_c                   14.1990(11)
_cell_angle_alpha                90
_cell_angle_beta                 107.713(2)
_cell_angle_gamma                90
_cell_volume                     4432.23
loop_
_atom_site_label
_atom_site_type_symbol
_atom_site_fract_x
_atom_site_fract_y
_atom_site_fract_z
C1 C 0.9615(3) 0.28361(16) 0.7251(3)
C2 C 0.9188(4) 0.29878(16) 0.8095(3)
H1 H 0.8504 0.3182 0.7831
H2 H 0.9729 0.3213 0.8535
C3 C 0.8963(3) 0.25411(15) 0.8689(3)
H3 H 0.9666 0.2365 0.9016
C4 C 0.8167(3) 0.21638(18) 0.8039(3)
C5 C 0.8468(3) 0.27563(16) 0.9493(3)
H4 H 0.7892 0.3005 0.9157
C6 C 0.7917(4) 0.23732(17) 0.9958(3)
H5 H 0.8479 0.2213 1.0503
H6 H 0.7596 0.2107 0.9477
C7 C 0.9334(3) 0.30527(18) 1.0264(3)
C8 C 0.6992(3) 0.25905(16) 1.0353(3)
C9 C 0.6070(3) 0.12999(15) 0.8623(3)
H7 H 0.6661 0.1079 0.8654
N1 N 0.5599(3) 0.13254(12) 0.9315(2)
C10 C 0.4804(4) 0.16646(17) 0.9035(3)
H8 H 0.4322 0.1764 0.9385
C11 C 0.4805(4) 0.18463(17) 0.8145(3)
H9 H 0.4317 0.2091 0.7772
C12 C 0.5881(4) 0.10393(17) 1.0239(3)
H10 H 0.5587 0.1221 1.0702
H11 H 0.6685 0.1027 1.0519
C13 C 0.6332(4) 0.08279(17) 0.5522(3)
H12 H 0.5617 0.0876 0.5092
C14 C 0.7019(4) 0.04256(18) 0.5502(3)
H13 H 0.6851 0.0146 0.5073
N2 N 0.7980(3) 0.05061(12) 0.6214(2)
C15 C 0.7831(3) 0.09151(15) 0.6653(3)
H14 H 0.8367 0.1045 0.7207
C16 C 0.8891(4) 0.0148(2) 0.6473(3)
H15 H 0.8614 -0.0183 0.6609
H16 H 0.9434 0.0265 0.7078
C17 C 0.8097(3) 0.22344(17) 0.5119(3)
H17 H 0.7924 0.2428 0.5603
C18 C 0.7384(4) 0.20890(18) 0.4255(3)
H18 H 0.6624 0.2159 0.4044
N3 N 0.7934(3) 0.18287(12) 0.3744(3)
C19 C 0.8971(4) 0.18175(16) 0.4314(3)
H19 H 0.9542 0.1661 0.4131
C20 C 0.7478(4) 0.15963(17) 0.2765(3)
H20 H 0.8000 0.1650 0.2394
H21 H 0.6792 0.1772 0.2417
C21 C 0.7247(4) 0.10380(16) 0.2787(3)
C22 C 0.8560(4) -0.13616(18) 0.2176(4)
H22 H 0.9008 -0.1474 0.1805
C23 C 0.7782(4) -0.09915(18) 0.1917(3)
H23 H 0.7576 -0.0811 0.1324
N4 N 0.7352(3) -0.09286(13) 0.2671(3)
C24 C 0.7829(3) -0.12640(15) 0.3330(3)
H24 H 0.7662 -0.1305 0.3920
C25 C 0.6468(4) -0.05825(19) 0.2681(4)
H25 H 0.6214 -0.0666 0.3243
H26 H 0.5849 -0.0638 0.2087
C26 C 0.6782(4) -0.00167(18) 0.2739(4)
C27 C 0.7786(4) 0.01589(17) 0.2735(3)
H27 H 0.8338 -0.0076 0.2721
C28 C 0.5984(4) 0.03419(17) 0.2769(3)
H28 H 0.5282 0.0229 0.2766
C29 C 0.4446(4) 0.03818(18) 1.0275(4)
H29 H 0.4062 0.0643 1.0477
C30 C 0.5430(4) 0.04927(17) 1.0119(3)
C31 C 0.6003(4) 0.01053(17) 0.9858(3)
H30 H 0.6692 0.0168 0.9769
C32 C 0.6201(4) 0.08593(17) 0.2805(3)
H31 H 0.5656 0.1093 0.2840
C33 C 0.8020(4) 0.06837(18) 0.2752(4)
H32 H 0.8719 0.0792 0.2739
C34 C 0.9455(4) 0.00785(17) 0.5710(3)
C35 C 0.9921(4) 0.04880(18) 0.5369(3)
H33 H 0.9869 0.0817 0.5608
C36 C 0.9539(4) -0.04115(17) 0.5323(3)
H34 H 0.9220 -0.0691 0.5543
Co1 Co 1.05921(4) 0.21705(2) 0.62137(3)
Co2 Co 0.62941(4) 0.177104(19) 0.67777(4)
N5 N 0.5650(3) 0.16089(12) 0.7878(2)
N6 N 0.6858(3) 0.11403(14) 0.6263(2)
N7 N 0.9125(2) 0.20484(12) 0.5166(2)
N8 N 0.8575(3) -0.15433(14) 0.3088(2)
O1 O 1.0140(2) 0.24088(11) 0.73546(19)
O2 O 0.9500(3) 0.31284(12) 0.6546(2)
O3 O 0.8245(3) 0.17022(12) 0.8237(2)
O4 O 0.7385(2) 0.23349(11) 0.73100(18)
O5 O 1.0229(2) 0.28153(11) 1.0745(2)
O6 O 0.9176(3) 0.35047(13) 1.0435(2)
O7 O 0.6489(2) 0.29844(11) 0.9953(2)
O8 O 0.6766(2) 0.23590(11) 1.1012(2)
C1C C 1.4615(3) 0.21639(16) 0.2251(3)
C2C C 1.4188(4) 0.20122(16) 0.3095(3)
H1C H 1.3504 0.1818 0.2831
H2C H 1.4729 0.1787 0.3535
C3C C 1.3963(3) 0.24589(15) 0.3689(3)
H3C H 1.4666 0.2635 0.4016
C4C C 1.3167(3) 0.28362(18) 0.3039(3)
C5C C 1.3468(3) 0.22437(16) 0.4493(3)
H4C H 1.2892 0.1995 0.4157
C6C C 1.2917(4) 0.26268(17) 0.4958(3)
H5C H 1.3479 0.2787 0.5503
H6C H 1.2596 0.2893 0.4477
C7C C 1.4334(3) 0.19473(18) 0.5264(3)
C8C C 1.1992(3) 0.24095(16) 0.5353(3)
C9B C 0.3930(3) -0.12999(15) 1.1377(3)
H7B H 0.3339 -0.1079 1.1346
N1B N 0.4401(3) -0.13254(12) 1.0685(2)
C10B C 0.5196(4) -0.16646(17) 1.0965(3)
H8B H 0.5678 -0.1764 1.0615
C11B C 0.5195(4) -0.18463(17) 1.1855(3)
H9B H 0.5683 -0.2091 1.2228
C12B C 0.4119(4) -0.10393(17) 0.9761(3)
H10B H 0.4413 -0.1221 0.9298
H11B H 0.3315 -0.1027 0.9481
C13B C 1.3668(4) -0.08279(17) 0.4478(3)
H12B H 1.4383 -0.0876 0.4908
C14B C 1.2981(4) -0.04256(18) 0.4498(3)
H13B H 1.3149 -0.0146 0.4927
N2B N 1.2020(3) -0.05061(12) 0.3786(2)
C15B C 1.2169(3) -0.09151(15) 0.3347(3)
H14B H 1.1633 -0.1045 0.2793
C16B C 1.1109(4) -0.0148(2) 0.3527(3)
H15B H 1.1386 0.0183 0.3391
H16B H 1.0566 -0.0265 0.2922
C17B C 1.1903(3) -0.22344(17) 0.4881(3)
H17B H 1.2076 -0.2428 0.4397
C18B C 1.2616(4) -0.20890(18) 0.5745(3)
H18B H 1.3376 -0.2159 0.5956
N3B N 1.2066(3) -0.18287(12) 0.6256(3)
C19B C 1.1029(4) -0.18175(16) 0.5686(3)
H19B H 1.0458 -0.1661 0.5869
C20B C 1.2522(4) -0.15963(17) 0.7235(3)
H20B H 1.2000 -0.1650 0.7606
H21B H 1.3208 -0.1772 0.7583
C21B C 1.2753(4) -0.10380(16) 0.7213(3)
C22B C 1.1440(4) 0.13616(18) 0.7824(4)
H22B H 1.0992 0.1474 0.8195
C23B C 1.2218(4) 0.09915(18) 0.8083(3)
H23B H 1.2424 0.0811 0.8676
N4B N 1.2648(3) 0.09286(13) 0.7329(3)
C24B C 1.2171(3) 0.12640(15) 0.6670(3)
H24B H 1.2338 0.1305 0.6080
C25B C 1.3532(4) 0.05825(19) 0.7319(4)
H25B H 1.3786 0.0666 0.6757
H26B H 1.4151 0.0638 0.7913
C26B C 1.3218(4) 0.00167(18) 0.7261(4)
C27B C 1.2214(4) -0.01589(17) 0.7265(3)
H27B H 1.1662 0.0076 0.7279
C28B C 1.4016(4) -0.03419(17) 0.7231(3)
H28B H 1.4718 -0.0229 0.7234
C29B C 0.5554(4) -0.03818(18) 0.9725(4)
H29B H 0.5938 -0.0643 0.9523
C30B C 0.4570(4) -0.04927(17) 0.9881(3)
C31B C 0.3997(4) -0.01053(17) 1.0142(3)
H30B H 0.3308 -0.0168 1.0231
C32B C 1.3799(4) -0.08593(17) 0.7195(3)
H31B H 1.4344 -0.1093 0.7160
C33B C 1.1980(4) -0.06837(18) 0.7248(4)
H32B H 1.1281 -0.0792 0.7261
C34B C 1.0545(4) -0.00785(17) 0.4290(3)
C35B C 1.0079(4) -0.04880(18) 0.4631(3)
H33B H 1.0131 -0.0817 0.4392
C36B C 1.0461(4) 0.04115(17) 0.4677(3)
H34B H 1.0780 0.0691 0.4457
Co1B Co 0.94079(4) -0.21705(2) 0.37863(3)
Co1C Co 0.55921(4) 0.28295(2) 1.12137(3)
Co1C_2 Co 1.55921(4) 0.28295(2) 0.12137(3)
Co2C Co 1.12941(4) 0.322896(19) 0.17777(4)
Co2C_2 Co 1.12941(4) 0.322896(19) 1.17777(4)
Co2B Co 0.37059(4) -0.177104(19) 1.32223(4)
Co2B_2 Co 1.37059(4) -0.177104(19) 0.32223(4)
Co2_2 Co 1.62941(4) 0.177104(19) 0.67777(4)
N5B N 0.4350(3) -0.16089(12) 1.2122(2)
N5C N 1.0650(3) 0.33911(12) 0.2878(2)
N6B N 1.3142(3) -0.11403(14) 0.3737(2)
N6C N 1.1858(3) 0.38597(14) 0.1263(2)
N7B N 1.0875(2) -0.20484(12) 0.4834(2)
N8B N 1.1425(3) 0.15433(14) 0.6912(2)
O1C O 1.5140(2) 0.25912(11) 0.23546(19)
O1B O 0.9860(2) -0.24088(11) 0.26454(19)
O2C O 1.4500(3) 0.18716(12) 0.1546(2)
O3C O 1.3245(3) 0.32978(12) 0.3237(2)
O4C O 1.2385(2) 0.26651(11) 0.23100(18)
O5C O 1.5229(2) 0.21847(11) 0.5745(2)
O5C_2 O 0.5229(2) 0.21847(11) 0.5745(2)
O5_2 O 1.0229(2) 0.28153(11) 0.0745(2)
O6C O 1.4176(3) 0.14953(13) 0.5435(2)
O7C O 1.1489(2) 0.20156(11) 0.4953(2)
O7A O 0.8511(2) -0.20156(11) 0.5047(2)
O8C O 1.1766(2) 0.26410(11) 0.6012(2)
O8A O 0.8234(2) -0.26410(11) 0.3988(2)
O9 O 0.2844(5) 0.0839(2) 0.4057(5)
H35 H 0.2891 0.0707 0.3524
H36 H 0.2277 0.1035 0.3931
O10 O 0.7589(6) 0.3745(3) 0.5917(5)
H37 H 0.7238 0.4017 0.5668
H38 H 0.7165 0.3486 0.5750
O11 O 0.4135(5) 0.3928(2) 0.4671(5)
H39 H 0.4833 0.3890 0.4925
H40 H 0.3929 0.3795 0.4097
O12 O 0.4675(7) 0.4777(3) 0.6497(5)
H41 H 0.4079 0.4927 0.6505
H42 H 0.5138 0.4996 0.6414
O13 O 0.3184(6) 0.4828(3) 0.3820(5)
H43 H 0.2636 0.4621 0.3682
H44 H 0.3627 0.4746 0.3497
O14 O 0.1872(6) 0.5411(3) 0.2631(5)
H45 H 0.1713 0.5285 0.2053
H46 H 0.2168 0.5706 0.2639
O15 O 0.4224(8) 0.6777(4) 0.3843(8)
H47 H 0.4313 0.6811 0.4457
H48 H 0.3946 0.7050 0.3538
O16 O 0.5915(6) 0.3488(4) 0.8169(6)
H49 H 0.5550 0.3758 0.8207
H50 H 0.6504 0.3570 0.8031
loop_
_geom_bond_atom_site_label_1
_geom_bond_atom_site_label_2
_geom_bond_site_symmetry_1
_geom_bond_site_symmetry_2
C1 C2 1_555 1_555
C2 H1 1_555 1_555
H2 C2 1_555 1_555
C3 C2 1_555 1_555
H3 C3 1_555 1_555
C4 C3 1_555 1_555
C5 C3 1_555 1_555
H4 C5 1_555 1_555
C6 C5 1_555 1_555
H5 C6 1_555 1_555
H6 C6 1_555 1_555
C7 C5 1_555 1_555
C8 C6 1_555 1_555
C9 H7 1_555 1_555
N1 C9 1_555 1_555
C10 N1 1_555 1_555
H8 C10 1_555 1_555
C11 C10 1_555 1_555
H9 C11 1_555 1_555
C12 N1 1_555 1_555
H10 C12 1_555 1_555
H11 C12 1_555 1_555
C13 H12 1_555 1_555
C14 C13 1_555 1_555
H13 C14 1_555 1_555
N2 C14 1_555 1_555
C15 N2 1_555 1_555
H14 C15 1_555 1_555
C16 N2 1_555 1_555
H15 C16 1_555 1_555
H16 C16 1_555 1_555
C17 H17 1_555 1_555
C18 C17 1_555 1_555
H18 C18 1_555 1_555
N3 C18 1_555 1_555
C19 N3 1_555 1_555
H19 C19 1_555 1_555
C20 N3 1_555 1_555
H20 C20 1_555 1_555
H21 C20 1_555 1_555
C21 C20 1_555 1_555
C22 H22 1_555 1_555
C23 C22 1_555 1_555
H23 C23 1_555 1_555
N4 C23 1_555 1_555
C24 N4 1_555 1_555
H24 C24 1_555 1_555
C25 N4 1_555 1_555
H25 C25 1_555 1_555
H26 C25 1_555 1_555
C26 C25 1_555 1_555
C27 C26 1_555 1_555
H27 C27 1_555 1_555
C28 C26 1_555 1_555
H28 C28 1_555 1_555
C29 H29 1_555 1_555
C30 C12 1_555 1_555
C31 C30 1_555 1_555
H30 C31 1_555 1_555
C32 C21 1_555 1_555
H31 C32 1_555 1_555
C33 C21 1_555 1_555
H32 C33 1_555 1_555
C34 C16 1_555 1_555
C35 C34 1_555 1_555
H33 C35 1_555 1_555
C36 C34 1_555 1_555
H34 C36 1_555 1_555
Co1 N7 1_555 1_555
Co2 N5 1_555 1_555
N5 C9 1_555 1_555
N6 C13 1_555 1_555
N7 C17 1_555 1_555
N8 C22 1_555 1_555
O1 C1 1_555 1_555
O2 C1 1_555 1_555
O3 C4 1_555 1_555
O4 C4 1_555 1_555
O5 C7 1_555 1_555
O6 C7 1_555 1_555
O7 C8 1_555 1_555
O8 C8 1_555 1_555
O9 H35 1_555 1_555
H36 O9 1_555 1_555
O10 H37 1_555 1_555
H38 O10 1_555 1_555
O11 H39 1_555 1_555
H40 O11 1_555 1_555
O12 H41 1_555 1_555
H42 O12 1_555 1_555
O13 H43 1_555 1_555
H44 O13 1_555 1_555
O14 H45 1_555 1_555
H46 O14 1_555 1_555
O15 H47 1_555 1_555
H48 O15 1_555 1_555
O16 H49 1_555 1_555
H50 O16 1_555 1_555
C1C C2C 1_555 1_555
C2C H1C 1_555 1_555
H2C C2C 1_555 1_555
C3C C2C 1_555 1_555
H3C C3C 1_555 1_555
C4C C3C 1_555 1_555
C5C C3C 1_555 1_555
H4C C5C 1_555 1_555
C6C C5C 1_555 1_555
H5C C6C 1_555 1_555
H6C C6C 1_555 1_555
C7C C5C 1_555 1_555
C8C C6C 1_555 1_555
C9B H7B 1_555 1_555
N1B C9B 1_555 1_555
C10B N1B 1_555 1_555
H8B C10B 1_555 1_555
C11B C10B 1_555 1_555
H9B C11B 1_555 1_555
C12B N1B 1_555 1_555
H10B C12B 1_555 1_555
H11B C12B 1_555 1_555
C13B H12B 1_555 1_555
C14B C13B 1_555 1_555
H13B C14B 1_555 1_555
N2B C14B 1_555 1_555
C15B N2B 1_555 1_555
H14B C15B 1_555 1_555
C16B N2B 1_555 1_555
H15B C16B 1_555 1_555
H16B C16B 1_555 1_555
C17B H17B 1_555 1_555
C18B C17B 1_555 1_555
H18B C18B 1_555 1_555
N3B C18B 1_555 1_555
C19B N3B 1_555 1_555
H19B C19B 1_555 1_555
C20B N3B 1_555 1_555
H20B C20B 1_555 1_555
H21B C20B 1_555 1_555
C21B C20B 1_555 1_555
C22B H22B 1_555 1_555
C23B C22B 1_555 1_555
H23B C23B 1_555 1_555
N4B C23B 1_555 1_555
C24B N4B 1_555 1_555
H24B C24B 1_555 1_555
C25B N4B 1_555 1_555
H25B C25B 1_555 1_555
H26B C25B 1_555 1_555
C26B C25B 1_555 1_555
C27B C26B 1_555 1_555
H27B C27B 1_555 1_555
C28B C26B 1_555 1_555
H28B C28B 1_555 1_555
C29B C31 1_555 1_555
H29B C29B 1_555 1_555
C30B C12B 1_555 1_555
C31B C29 1_555 1_555
H30B C31B 1_555 1_555
C32B C21B 1_555 1_555
H31B C32B 1_555 1_555
C33B C21B 1_555 1_555
H32B C33B 1_555 1_555
C34B C16B 1_555 1_555
C35B C36 1_555 1_555
H33B C35B 1_555 1_555
C36B C35 1_555 1_555
H34B C36B 1_555 1_555
Co1B N8 1_555 1_555
Co1C O7 1_555 1_555
Co1C_2 O1C 1_555 1_555
Co2C N5C 1_555 1_555
Co2C_2 O5 1_555 1_555
Co2B N5B 1_555 1_555
Co2B_2 N6B 1_555 1_555
Co2_2 O5C 1_555 1_555
N5B C9B 1_555 1_555
N6B C13B 1_555 1_555
N6C Co2C 1_555 1_555
N7B C17B 1_555 1_555
N8B Co1 1_555 1_555
O1C C1C 1_555 1_555
O1B Co1B 1_555 1_555
O2C C1C 1_555 1_555
O3C C4C 1_555 1_555
O4C C4C 1_555 1_555
O5C C7C 1_555 1_555
O5C_2 Co2 1_555 1_555
O5_2 Co2C 1_555 1_555
O6C C7C 1_555 1_555
O7C Co1 1_555 1_555
O7A Co1B 1_555 1_555
O8C Co1 1_555 1_555
O8A Co1B 1_555 1_555
C11 N5 1_555 1_555
C15 N6 1_555 1_555
C19 N7 1_555 1_555
C24 N8 1_555 1_555
C27 C33 1_555 1_555
C28 C32 1_555 1_555
C29 C30 1_555 1_555
Co1 O1 1_555 1_555
Co2 N6 1_555 1_555
Co2 O4 1_555 1_555
O8 Co1C 1_555 1_555
C8C O7C 1_555 1_555
C8C O8C 1_555 1_555
C11B N5B 1_555 1_555
C15B N6B 1_555 1_555
C19B N7B 1_555 1_555
C22B N8B 1_555 1_555
C24B N8B 1_555 1_555
C27B C33B 1_555 1_555
C28B C32B 1_555 1_555
C29B C30B 1_555 1_555
C30B C31B 1_555 1_555
C34B C35B 1_555 1_555
C34B C36B 1_555 1_555
Co1B N7B 1_555 1_555
Co2C O4C 1_555 1_555

#END
