
#######################################################################
#
#                 Cambridge Crystallographic Data Centre
#                                CCDC 
#
#######################################################################
#
# If this CIF has been generated from an entry in the Cambridge 
# Structural Database, then it will include bibliographic, chemical, 
# crystal, experimental, refinement or atomic coordinate data resulting 
# from the CCDC's data processing and validation procedures.
#
#######################################################################

data_AHAGOH
_symmetry_cell_setting           monoclinic
_symmetry_space_group_name_H-M   'C 2/c'
_symmetry_Int_Tables_number      15
_space_group_name_Hall           '-C 2yn'
loop_
_symmetry_equiv_pos_site_id
_symmetry_equiv_pos_as_xyz
1 x,y,z
2 -x,y,1/2-z
3 1/2+x,1/2+y,z
4 1/2-x,1/2+y,1/2-z
5 -x,-y,-z
6 x,-y,1/2+z
7 1/2-x,1/2-y,-z
8 1/2+x,1/2-y,1/2+z
_cell_length_a                   26.4871(9)
_cell_length_b                   7.9190(3)
_cell_length_c                   23.0086(8)
_cell_angle_alpha                90
_cell_angle_beta                 107.309(2)
_cell_angle_gamma                90
_cell_volume                     4607.53
loop_
_atom_site_label
_atom_site_type_symbol
_atom_site_fract_x
_atom_site_fract_y
_atom_site_fract_z
Tb1 Tb 0.180667(5) 0.134130(18) 0.014783(6)
O1 O 0.26071(8) -0.0130(3) 0.04684(10)
O2 O 0.33414(8) 0.1236(3) 0.04608(10)
O3 O 0.33010(8) -0.4835(3) 0.39627(9)
O4 O 0.31610(9) -0.7611(3) 0.39083(9)
O5 O 0.23932(8) -0.6812(3) 0.07686(9)
O6 O 0.31449(8) -0.5531(3) 0.08237(9)
O7 O 0.15991(9) -0.1644(3) -0.00499(10)
H1 H 0.1728 -0.2128 0.0251
H2 H 0.1735 -0.1983 -0.0245
N1 N 0.08260(10) 0.1218(3) -0.04768(12)
N2 N 0.11597(10) 0.3043(3) 0.05632(12)
C1 C 0.34073(11) -0.0866(4) 0.12038(13)
C2 C 0.39283(13) -0.0465(5) 0.14904(16)
H3 H 0.4086 0.0443 0.1356
C3 C 0.42145(13) -0.1421(5) 0.19784(18)
H4 H 0.4563 -0.1136 0.2180
C4 C 0.39862(12) -0.2797(5) 0.21696(15)
H5 H 0.4186 -0.3446 0.2494
C5 C 0.34656(12) -0.3223(4) 0.18851(13)
C6 C 0.31769(11) -0.2229(4) 0.14074(13)
H6 H 0.2823 -0.2477 0.1220
C7 C 0.32340(11) -0.4718(4) 0.21145(13)
C8 C 0.33110(11) -0.4819(4) 0.27392(13)
H7 H 0.3494 -0.3956 0.2988
C9 C 0.31242(11) -0.6164(4) 0.30044(13)
C10 C 0.28479(12) -0.7437(4) 0.26320(14)
H8 H 0.2731 -0.8370 0.2801
C11 C 0.27456(12) -0.7324(4) 0.20118(13)
H9 H 0.2546 -0.8165 0.1766
C12 C 0.29310(11) -0.5993(4) 0.17416(13)
C13 C 0.30947(12) 0.0167(4) 0.06690(14)
C14 C 0.32000(11) -0.6227(4) 0.36779(12)
C15 C 0.28135(11) -0.6083(4) 0.10599(13)
C16 C 0.06629(13) 0.0434(5) -0.10043(16)
H10 H 0.0916 -0.0010 -0.1168
C17 C 0.01307(15) 0.0236(6) -0.13294(19)
H11 H 0.0034 -0.0304 -0.1705
C18 C -0.02414(15) 0.0835(6) -0.1093(2)
H12 H -0.0598 0.0695 -0.1302
C19 C -0.00923(13) 0.1662(5) -0.05352(18)
C20 C 0.04574(12) 0.1867(4) -0.02454(15)
C21 C 0.06289(12) 0.2783(4) 0.03143(15)
C22 C 0.02573(14) 0.3394(5) 0.05891(19)
C23 C 0.04446(16) 0.4258(5) 0.11383(19)
H13 H 0.0209 0.4645 0.1338
C24 C 0.09717(16) 0.4535(5) 0.13811(18)
H14 H 0.1100 0.5128 0.1744
C25 C 0.13170(15) 0.3914(4) 0.10771(16)
H15 H 0.1677 0.4124 0.1244
C26 C -0.04577(14) 0.2296(6) -0.0243(2)
H16 H -0.0818 0.2147 -0.0429
C27 C -0.02980(15) 0.3096(6) 0.0289(2)
H17 H -0.0548 0.3470 0.0471
Tb1_2 Tb 0.180667(5) -0.865870(18) 0.014783(6)
Tb1C Tb 0.319333(5) -0.365870(18) 0.485217(6)
Tb1F Tb 0.319333(5) -0.634130(18) -0.014783(6)
Tb1F_2 Tb 0.319333(5) 0.365870(18) -0.014783(6)
O2F O 0.16586(8) 0.3764(3) -0.04608(10)
O3C O 0.16990(8) 0.0165(3) 0.10373(9)
O5_2 O 0.23932(8) 0.3188(3) 0.07686(9)
O6F O 0.18551(8) 0.0531(3) -0.08237(9)
loop_
_geom_bond_atom_site_label_1
_geom_bond_atom_site_label_2
_geom_bond_site_symmetry_1
_geom_bond_site_symmetry_2
Tb1 O1 1_555 1_555
O1 C13 1_555 1_555
O2 C13 1_555 1_555
O3 C14 1_555 1_555
O4 C14 1_555 1_555
O5 C15 1_555 1_555
O6 C15 1_555 1_555
O7 Tb1 1_555 1_555
H1 O7 1_555 1_555
H2 O7 1_555 1_555
N1 Tb1 1_555 1_555
N2 Tb1 1_555 1_555
C1 C2 1_555 1_555
C2 H3 1_555 1_555
C3 C2 1_555 1_555
H4 C3 1_555 1_555
C4 C3 1_555 1_555
H5 C4 1_555 1_555
C5 C4 1_555 1_555
C6 C1 1_555 1_555
H6 C6 1_555 1_555
C7 C5 1_555 1_555
C8 C7 1_555 1_555
H7 C8 1_555 1_555
C9 C8 1_555 1_555
C10 C9 1_555 1_555
H8 C10 1_555 1_555
C11 C10 1_555 1_555
H9 C11 1_555 1_555
C12 C7 1_555 1_555
C13 C1 1_555 1_555
C14 C9 1_555 1_555
C15 C12 1_555 1_555
C16 N1 1_555 1_555
H10 C16 1_555 1_555
C17 C16 1_555 1_555
H11 C17 1_555 1_555
C18 C17 1_555 1_555
H12 C18 1_555 1_555
C19 C18 1_555 1_555
C20 N1 1_555 1_555
C21 N2 1_555 1_555
C22 C21 1_555 1_555
C23 C22 1_555 1_555
H13 C23 1_555 1_555
C24 C23 1_555 1_555
H14 C24 1_555 1_555
C25 N2 1_555 1_555
H15 C25 1_555 1_555
C26 C19 1_555 1_555
H16 C26 1_555 1_555
C27 C22 1_555 1_555
H17 C27 1_555 1_555
Tb1_2 O5 1_555 1_555
Tb1C O3 1_555 1_555
Tb1F O6 1_555 1_555
Tb1F_2 O2 1_555 1_555
O2F Tb1 1_555 1_555
O3C Tb1 1_555 1_555
O5_2 Tb1 1_555 1_555
O6F Tb1 1_555 1_555
C5 C6 1_555 1_555
C11 C12 1_555 1_555
C19 C20 1_555 1_555
C20 C21 1_555 1_555
C24 C25 1_555 1_555
C26 C27 1_555 1_555

#END
