
#######################################################################
#
#                 Cambridge Crystallographic Data Centre
#                                CCDC 
#
#######################################################################
#
# If this CIF has been generated from an entry in the Cambridge 
# Structural Database, then it will include bibliographic, chemical, 
# crystal, experimental, refinement or atomic coordinate data resulting 
# from the CCDC's data processing and validation procedures.
#
#######################################################################

data_AHAGOG
_symmetry_cell_setting           triclinic
_symmetry_space_group_name_H-M   'P -1'
_symmetry_Int_Tables_number      2
_space_group_name_Hall           '-P 1'
loop_
_symmetry_equiv_pos_site_id
_symmetry_equiv_pos_as_xyz
1 x,y,z
2 -x,-y,-z
_cell_length_a                   10.816(3)
_cell_length_b                   15.076(4)
_cell_length_c                   15.098(4)
_cell_angle_alpha                79.599(4)
_cell_angle_beta                 89.568(4)
_cell_angle_gamma                89.695(4)
_cell_volume                     2421.37
loop_
_atom_site_label
_atom_site_type_symbol
_atom_site_fract_x
_atom_site_fract_y
_atom_site_fract_z
Cd1 Cd 0.736657(17) 0.142985(12) 0.059339(12)
F1 F 1.15074(19) 0.27120(16) -0.41262(15)
F2 F 1.0799(3) 0.46266(16) -0.68510(15)
F3 F 0.27346(19) 0.09219(14) 0.47932(12)
F4 F 0.5560(2) 0.30650(16) 0.53832(17)
F5 F 0.3668(2) 0.51514(14) 0.40355(15)
F6 F 0.75059(16) 0.60344(13) 0.27573(12)
O1 O 0.77283(17) 0.29345(13) -0.33822(13)
H1 H 0.7325 0.2623 -0.3666
O2 O 0.29168(19) 0.20615(13) 0.20013(12)
H2 H 0.2565 0.2552 0.1941
O3 O 0.61732(18) 0.55360(13) 0.02683(13)
H3 H 0.6604 0.5637 -0.0188
O4 O 0.6837(5) 0.0274(3) -0.0556(5)
O5 O 0.8138(3) -0.00183(18) 0.03544(18)
O6 O 0.7708(3) -0.09660(16) -0.04874(18)
N1 N 0.8634(2) 0.20717(16) -0.05844(14)
N2 N 1.0294(2) 0.20828(19) -0.14801(16)
N3 N 0.9428(2) 0.26802(15) -0.18733(14)
N4 N 0.8786(2) 0.14060(14) -0.41572(15)
C1 C 0.9388(4) 0.1024(2) -0.4752(2)
H4 H 1.0226 0.0883 -0.4720
C2 C 0.7560(4) 0.1174(2) -0.5137(2)
H5 H 0.6839 0.1151 -0.5464
N5 N 0.6150(2) 0.07792(15) 0.18100(14)
N6 N 0.5375(2) 0.04695(17) 0.32166(15)
N7 N 0.44487(19) 0.05919(14) 0.25963(14)
N8 N 0.05238(19) 0.12577(15) 0.25278(14)
N9 N 0.0347(2) 0.03575(15) 0.25922(16)
N10 N -0.08643(19) 0.11406(14) 0.15340(14)
N11 N 0.7306(2) 0.28530(15) 0.11644(15)
N12 N 0.7393(3) 0.37855(16) 0.21665(16)
N13 N 0.7702(2) 0.42252(14) 0.13295(14)
N14 N 0.6142(2) 0.73532(14) 0.06684(15)
N15 N 0.5815(3) 0.77997(18) 0.13381(18)
N16 N 0.4409(2) 0.80256(15) 0.02370(15)
N17 N 0.7564(3) -0.02554(18) -0.0234(2)
C3 C 0.9772(3) 0.1745(2) -0.07116(19)
H6 H 1.0157 0.1312 -0.0284
C4 C 0.8448(3) 0.26607(19) -0.13351(17)
H7 H 0.7737 0.3009 -0.1466
C5 C 0.9636(3) 0.31917(19) -0.27711(17)
H8 H 1.0519 0.3225 -0.2892
H9 H 0.9332 0.3802 -0.2796
C6 C 0.9002(2) 0.27790(17) -0.35031(17)
C7 C 0.9243(3) 0.17566(18) -0.33863(18)
H10 H 1.0124 0.1639 -0.3323
H11 H 0.8834 0.1451 -0.2843
N19 N 0.7578(2) 0.15058(17) -0.43931(17)
N20 N 0.8655(3) 0.0868(2) -0.5398(2)
C8 C 0.9475(3) 0.32738(17) -0.44173(17)
C9 C 0.8702(3) 0.3804(2) -0.5019(2)
H12 H 0.7872 0.3860 -0.4872
C10 C 0.9158(5) 0.4260(2) -0.5850(2)
H13 H 0.8638 0.4618 -0.6256
C11 C 1.0379(5) 0.4167(2) -0.6049(2)
C12 C 1.1168(4) 0.3664(2) -0.5489(2)
H14 H 1.1998 0.3615 -0.5639
C13 C 1.0699(3) 0.3226(2) -0.4685(2)
C14 C 0.4927(2) 0.07769(17) 0.17743(17)
H15 H 0.4470 0.0889 0.1247
C15 C 0.6368(3) 0.0583(2) 0.27107(19)
H16 H 0.7162 0.0533 0.2948
C16 C 0.3147(2) 0.06143(18) 0.28526(19)
H17 H 0.3023 0.0239 0.3439
H18 H 0.2649 0.0372 0.2421
C17 C 0.2724(2) 0.15849(18) 0.28849(17)
C18 C 0.1351(2) 0.1603(2) 0.31424(19)
H19 H 0.1240 0.1250 0.3741
H20 H 0.1116 0.2220 0.3167
C19 C -0.0197(2) 0.17033(18) 0.18996(18)
H21 H -0.0229 0.2328 0.1737
C20 C -0.0486(3) 0.03271(18) 0.19750(18)
H22 H -0.0794 -0.0212 0.1851
C21 C 0.3477(2) 0.19885(18) 0.35660(18)
C22 C 0.3459(3) 0.1646(2) 0.4482(2)
C23 C 0.4152(3) 0.1990(3) 0.5099(2)
H23 H 0.4119 0.1744 0.5709
C24 C 0.4887(3) 0.2706(2) 0.4777(3)
C25 C 0.4966(3) 0.3077(2) 0.3890(3)
H24 H 0.5486 0.3563 0.3692
C26 C 0.4258(3) 0.27165(19) 0.3292(2)
H25 H 0.4304 0.2968 0.2683
C27 C 0.7167(3) 0.2970(2) 0.2023(2)
H26 H 0.6926 0.2505 0.2482
C28 C 0.7644(3) 0.36690(18) 0.07527(18)
H27 H 0.7817 0.3826 0.0140
C29 C 0.8010(2) 0.51793(17) 0.11640(19)
H28 H 0.8548 0.5313 0.0641
H29 H 0.8453 0.5321 0.1677
C30 C 0.6837(2) 0.57692(17) 0.10044(18)
C31 C 0.7226(2) 0.67666(17) 0.0759(2)
H30 H 0.7760 0.6915 0.1224
H31 H 0.7687 0.6862 0.0196
C32 C 0.5300(3) 0.74880(18) 0.00306(18)
H32 H 0.5327 0.7241 -0.0491
C33 C 0.4780(3) 0.8194(2) 0.1040(2)
H33 H 0.4333 0.8562 0.1360
C34 C 0.5965(2) 0.56213(16) 0.18115(19)
C35 C 0.4751(3) 0.53456(19) 0.1747(2)
H34 H 0.4457 0.5254 0.1193
C36 C 0.3965(3) 0.5203(2) 0.2493(3)
H35 H 0.3152 0.5023 0.2441
C37 C 0.4406(3) 0.5331(2) 0.3294(2)
C38 C 0.5590(3) 0.5608(2) 0.3402(2)
H36 H 0.5876 0.5696 0.3959
C39 C 0.6332(3) 0.57512(18) 0.2650(2)
Cd1_2 Cd -0.263343(17) 0.142985(12) 0.059339(12)
Cd1A Cd 0.263343(17) 0.857015(12) -0.059339(12)
N10_2 N 0.91357(19) 0.11406(14) 0.15340(14)
N16A N 0.5591(2) 0.19744(15) -0.02370(15)
O7 O 0.2387(3) 0.38836(17) 0.12931(17)
O8 O 0.0466(3) 0.3792(2) 0.1553(4)
O9 O 0.1258(3) 0.50634(19) 0.10833(19)
N18 N 0.1347(3) 0.4248(2) 0.12997(18)
O10 O 0.2568(6) 0.1431(4) 0.7410(4)
H37 H 0.2155 0.1780 0.7795
H38 H 0.3322 0.1566 0.7289
loop_
_geom_bond_atom_site_label_1
_geom_bond_atom_site_label_2
_geom_bond_site_symmetry_1
_geom_bond_site_symmetry_2
Cd1 O5 1_555 1_555
F1 C13 1_555 1_555
F2 C11 1_555 1_555
F3 C22 1_555 1_555
F4 C24 1_555 1_555
F5 C37 1_555 1_555
F6 C39 1_555 1_555
O1 H1 1_555 1_555
O2 H2 1_555 1_555
O3 H3 1_555 1_555
O4 N17 1_555 1_555
O5 N17 1_555 1_555
O6 N17 1_555 1_555
O7 N18 1_555 1_555
O8 N18 1_555 1_555
O9 N18 1_555 1_555
N1 Cd1 1_555 1_555
N2 N3 1_555 1_555
N3 C4 1_555 1_555
N4 C1 1_555 1_555
C1 H4 1_555 1_555
C2 H5 1_555 1_555
N5 Cd1 1_555 1_555
N6 N7 1_555 1_555
N7 C14 1_555 1_555
N8 N9 1_555 1_555
N9 C20 1_555 1_555
N10 C19 1_555 1_555
N11 Cd1 1_555 1_555
N12 N13 1_555 1_555
N13 C28 1_555 1_555
N14 N15 1_555 1_555
N15 C33 1_555 1_555
N16 C32 1_555 1_555
C3 N1 1_555 1_555
H6 C3 1_555 1_555
C4 N1 1_555 1_555
H7 C4 1_555 1_555
C5 N3 1_555 1_555
H8 C5 1_555 1_555
H9 C5 1_555 1_555
C6 O1 1_555 1_555
C7 N4 1_555 1_555
H10 C7 1_555 1_555
H11 C7 1_555 1_555
N19 N4 1_555 1_555
N20 C1 1_555 1_555
C8 C6 1_555 1_555
C9 C8 1_555 1_555
H12 C9 1_555 1_555
C10 C9 1_555 1_555
H13 C10 1_555 1_555
C11 C10 1_555 1_555
C12 C11 1_555 1_555
H14 C12 1_555 1_555
C13 C8 1_555 1_555
C14 N5 1_555 1_555
H15 C14 1_555 1_555
C15 N5 1_555 1_555
H16 C15 1_555 1_555
C16 N7 1_555 1_555
H17 C16 1_555 1_555
H18 C16 1_555 1_555
C17 O2 1_555 1_555
C18 N8 1_555 1_555
H19 C18 1_555 1_555
H20 C18 1_555 1_555
C19 N8 1_555 1_555
H21 C19 1_555 1_555
C20 N10 1_555 1_555
H22 C20 1_555 1_555
C21 C17 1_555 1_555
C22 C21 1_555 1_555
C23 C22 1_555 1_555
H23 C23 1_555 1_555
C24 C23 1_555 1_555
C25 C24 1_555 1_555
H24 C25 1_555 1_555
C26 C21 1_555 1_555
H25 C26 1_555 1_555
C27 N11 1_555 1_555
H26 C27 1_555 1_555
C28 N11 1_555 1_555
H27 C28 1_555 1_555
C29 N13 1_555 1_555
H28 C29 1_555 1_555
H29 C29 1_555 1_555
C30 O3 1_555 1_555
C31 N14 1_555 1_555
H30 C31 1_555 1_555
H31 C31 1_555 1_555
C32 N14 1_555 1_555
H32 C32 1_555 1_555
C33 N16 1_555 1_555
H33 C33 1_555 1_555
C34 C30 1_555 1_555
C35 C34 1_555 1_555
H34 C35 1_555 1_555
C36 C35 1_555 1_555
H35 C36 1_555 1_555
C37 C36 1_555 1_555
C38 C37 1_555 1_555
H36 C38 1_555 1_555
C39 C34 1_555 1_555
O10 H37 1_555 1_555
H38 O10 1_555 1_555
Cd1_2 N10 1_555 1_555
Cd1A N16 1_555 1_555
N10_2 Cd1 1_555 1_555
N16A Cd1 1_555 1_555
N2 C3 1_555 1_555
C2 N19 1_555 1_555
C2 N20 1_555 1_555
N6 C15 1_555 1_555
N12 C27 1_555 1_555
C5 C6 1_555 1_555
C6 C7 1_555 1_555
C12 C13 1_555 1_555
C16 C17 1_555 1_555
C17 C18 1_555 1_555
C25 C26 1_555 1_555
C29 C30 1_555 1_555
C30 C31 1_555 1_555
C38 C39 1_555 1_555

#END
