
#######################################################################
#
#                 Cambridge Crystallographic Data Centre
#                                CCDC 
#
#######################################################################
#
# If this CIF has been generated from an entry in the Cambridge 
# Structural Database, then it will include bibliographic, chemical, 
# crystal, experimental, refinement or atomic coordinate data resulting 
# from the CCDC's data processing and validation procedures.
#
#######################################################################

data_AHAGUN
_symmetry_cell_setting           monoclinic
_symmetry_space_group_name_H-M   'C 2/c'
_symmetry_Int_Tables_number      15
_space_group_name_Hall           '-C 2yn'
loop_
_symmetry_equiv_pos_site_id
_symmetry_equiv_pos_as_xyz
1 x,y,z
2 -x,y,1/2-z
3 1/2+x,1/2+y,z
4 1/2-x,1/2+y,1/2-z
5 -x,-y,-z
6 x,-y,1/2+z
7 1/2-x,1/2-y,-z
8 1/2+x,1/2-y,1/2+z
_cell_length_a                   26.5642(9)
_cell_length_b                   7.9347(3)
_cell_length_c                   23.0722(7)
_cell_angle_alpha                90
_cell_angle_beta                 107.415(2)
_cell_angle_gamma                90
_cell_volume                     4640.22
loop_
_atom_site_label
_atom_site_type_symbol
_atom_site_fract_x
_atom_site_fract_y
_atom_site_fract_z
Eu1 Eu 0.180921(7) 0.13311(2) 0.014734(7)
O1 O 0.26177(11) -0.0147(4) 0.04723(12)
O2 O 0.33488(11) 0.1229(3) 0.04735(12)
O3 O 0.33014(11) -0.4855(3) 0.39569(11)
O4 O 0.31582(11) -0.7627(3) 0.39028(11)
O5 O 0.24019(11) -0.6793(3) 0.07649(11)
O6 O 0.31534(11) -0.5495(4) 0.08345(11)
O7 O 0.16042(11) -0.1691(3) -0.00454(11)
H1 H 0.1698 -0.2214 0.0291
H2 H 0.1831 -0.1977 -0.0216
N1 N 0.08190(12) 0.1209(4) -0.04747(14)
N2 N 0.11539(13) 0.3047(4) 0.05651(14)
C1 C 0.34123(15) -0.0865(5) 0.12136(16)
C2 C 0.39342(17) -0.0465(6) 0.15022(19)
H3 H 0.4092 0.0444 0.1371
C3 C 0.42179(18) -0.1436(6) 0.1989(2)
H4 H 0.4567 -0.1164 0.2192
C4 C 0.39854(16) -0.2803(6) 0.21733(18)
H5 H 0.4183 -0.3463 0.2494
C5 C 0.34640(15) -0.3209(5) 0.18899(15)
C6 C 0.31830(15) -0.2231(5) 0.14168(16)
H6 H 0.2830 -0.2483 0.1226
C7 C 0.32341(14) -0.4717(5) 0.21184(16)
C8 C 0.33121(14) -0.4833(5) 0.27434(15)
H7 H 0.3498 -0.3980 0.2994
C9 C 0.31252(14) -0.6161(5) 0.30020(15)
C10 C 0.28477(16) -0.7445(5) 0.26292(16)
H8 H 0.2733 -0.8378 0.2799
C11 C 0.27430(16) -0.7330(5) 0.20074(16)
H9 H 0.2542 -0.8163 0.1760
C12 C 0.29331(14) -0.5988(5) 0.17439(15)
C13 C 0.31003(16) 0.0161(5) 0.06787(17)
C14 C 0.32001(13) -0.6238(5) 0.36717(15)
C15 C 0.28173(15) -0.6067(5) 0.10615(16)
C16 C 0.06553(18) 0.0411(6) -0.1004(2)
H10 H 0.0906 -0.0040 -0.1169
C17 C 0.01249(19) 0.0227(7) -0.1321(2)
H11 H 0.0025 -0.0314 -0.1696
C18 C -0.0245(2) 0.0831(7) -0.1086(2)
H12 H -0.0601 0.0690 -0.1296
C19 C -0.00994(17) 0.1666(6) -0.0530(2)
C20 C 0.04500(16) 0.1868(5) -0.02453(19)
C21 C 0.06229(16) 0.2781(5) 0.03141(19)
C22 C 0.02511(18) 0.3399(6) 0.0588(2)
C23 C 0.0445(2) 0.4264(6) 0.1137(2)
H13 H 0.0213 0.4652 0.1339
C24 C 0.0967(2) 0.4540(6) 0.1376(2)
H14 H 0.1096 0.5142 0.1736
C25 C 0.13133(18) 0.3909(5) 0.10765(19)
H15 H 0.1673 0.4106 0.1246
C26 C -0.04620(19) 0.2305(7) -0.0241(3)
H16 H -0.0822 0.2163 -0.0428
C27 C -0.03029(18) 0.3101(7) 0.0290(3)
H17 H -0.0551 0.3471 0.0472
Eu1_2 Eu 0.180921(7) -0.86689(2) 0.014734(7)
Eu1C Eu 0.319079(7) -0.36689(2) 0.485266(7)
Eu1F Eu 0.319079(7) -0.63311(2) -0.014734(7)
Eu1F_2 Eu 0.319079(7) 0.36689(2) -0.014734(7)
O2F O 0.16512(11) 0.3771(3) -0.04735(12)
O3C O 0.16986(11) 0.0145(3) 0.10431(11)
O5_2 O 0.24019(11) 0.3207(3) 0.07649(11)
O6F O 0.18466(11) 0.0495(4) -0.08345(11)
loop_
_geom_bond_atom_site_label_1
_geom_bond_atom_site_label_2
_geom_bond_site_symmetry_1
_geom_bond_site_symmetry_2
Eu1 O1 1_555 1_555
O1 C13 1_555 1_555
O2 C13 1_555 1_555
O3 C14 1_555 1_555
O4 C14 1_555 1_555
O5 C15 1_555 1_555
O6 C15 1_555 1_555
O7 Eu1 1_555 1_555
H1 O7 1_555 1_555
H2 O7 1_555 1_555
N1 Eu1 1_555 1_555
N2 Eu1 1_555 1_555
C1 C2 1_555 1_555
C2 H3 1_555 1_555
C3 C2 1_555 1_555
H4 C3 1_555 1_555
C4 C3 1_555 1_555
H5 C4 1_555 1_555
C5 C4 1_555 1_555
C6 C1 1_555 1_555
H6 C6 1_555 1_555
C7 C5 1_555 1_555
C8 C7 1_555 1_555
H7 C8 1_555 1_555
C9 C8 1_555 1_555
C10 C9 1_555 1_555
H8 C10 1_555 1_555
C11 C10 1_555 1_555
H9 C11 1_555 1_555
C12 C7 1_555 1_555
C13 C1 1_555 1_555
C14 C9 1_555 1_555
C15 C12 1_555 1_555
C16 N1 1_555 1_555
H10 C16 1_555 1_555
C17 C16 1_555 1_555
H11 C17 1_555 1_555
C18 C17 1_555 1_555
H12 C18 1_555 1_555
C19 C18 1_555 1_555
C20 N1 1_555 1_555
C21 N2 1_555 1_555
C22 C21 1_555 1_555
C23 C22 1_555 1_555
H13 C23 1_555 1_555
C24 C23 1_555 1_555
H14 C24 1_555 1_555
C25 N2 1_555 1_555
H15 C25 1_555 1_555
C26 C19 1_555 1_555
H16 C26 1_555 1_555
C27 C22 1_555 1_555
H17 C27 1_555 1_555
Eu1_2 O5 1_555 1_555
Eu1C O3 1_555 1_555
Eu1F O6 1_555 1_555
Eu1F_2 O2 1_555 1_555
O2F Eu1 1_555 1_555
O3C Eu1 1_555 1_555
O5_2 Eu1 1_555 1_555
O6F Eu1 1_555 1_555
C5 C6 1_555 1_555
C11 C12 1_555 1_555
C19 C20 1_555 1_555
C20 C21 1_555 1_555
C24 C25 1_555 1_555
C26 C27 1_555 1_555

#END
