
#######################################################################
#
#                 Cambridge Crystallographic Data Centre
#                                CCDC 
#
#######################################################################
#
# If this CIF has been generated from an entry in the Cambridge 
# Structural Database, then it will include bibliographic, chemical, 
# crystal, experimental, refinement or atomic coordinate data resulting 
# from the CCDC's data processing and validation procedures.
#
#######################################################################

data_AHAHAT
_symmetry_cell_setting           triclinic
_symmetry_space_group_name_H-M   'P -1'
_symmetry_Int_Tables_number      2
_space_group_name_Hall           '-P 1'
loop_
_symmetry_equiv_pos_site_id
_symmetry_equiv_pos_as_xyz
1 x,y,z
2 -x,-y,-z
_cell_length_a                   10.693(6)
_cell_length_b                   12.064(7)
_cell_length_c                   14.206(8)
_cell_angle_alpha                87.859(7)
_cell_angle_beta                 77.101(7)
_cell_angle_gamma                74.224(7)
_cell_volume                     1718.51
loop_
_atom_site_label
_atom_site_type_symbol
_atom_site_fract_x
_atom_site_fract_y
_atom_site_fract_z
Cd1 Cd -0.80110(2) 0.400250(17) 0.342550(16)
N1 N -0.6540(3) 0.3981(2) 0.44246(19)
N2 N -0.5829(3) 0.42538(19) 0.57412(18)
N3 N -0.4896(2) 0.34395(19) 0.51410(16)
N4 N -0.2832(2) -0.01524(19) 0.65800(17)
N5 N -0.3572(3) -0.0232(2) 0.74741(19)
N6 N -0.2760(3) -0.1955(2) 0.67382(18)
N7 N -0.6385(2) 0.4147(2) 0.20120(19)
N8 N -0.5119(3) 0.3715(2) 0.05187(19)
N9 N -0.4425(2) 0.4028(2) 0.11077(18)
N10 N -0.0251(3) 0.3331(3) 0.1348(2)
N11 N -0.0444(4) 0.4466(3) 0.1175(3)
N12 N 0.0616(3) 0.3978(2) 0.2369(2)
N13 N -1.0462(3) 0.6390(2) 0.5284(3)
C1 C -0.6792(3) 0.4546(3) 0.5278(2)
H1 H -0.7588 0.5100 0.5517
C2 C -0.5338(3) 0.3285(3) 0.4374(2)
H2 H -0.4870 0.2761 0.3871
C3 C -0.3708(3) 0.2765(2) 0.5439(2)
H3 H -0.3510 0.3194 0.5924
H4 H -0.2956 0.2613 0.4889
C4 C -0.3927(3) 0.1616(2) 0.5855(2)
C5 C -0.2689(3) 0.0956(2) 0.6215(2)
H5 H -0.1908 0.0842 0.5689
H6 H -0.2566 0.1403 0.6724
C6 C -0.3486(3) -0.1331(3) 0.7523(2)
H7 H -0.3901 -0.1655 0.8067
C7 C -0.2360(3) -0.1180(2) 0.6157(2)
H8 H -0.1823 -0.1337 0.5539
C8 C -0.5210(3) 0.1849(2) 0.6617(2)
C9 C -0.5381(4) 0.2456(3) 0.7440(3)
C10 C -0.6583(7) 0.2735(4) 0.8128(4)
H9 H -0.6697 0.3153 0.8692
C11 C -0.7601(6) 0.2344(5) 0.7911(5)
C12 C -0.7496(5) 0.1770(5) 0.7117(5)
H10 H -0.8216 0.1546 0.7002
C13 C -0.6295(3) 0.1508(3) 0.6459(3)
H11 H -0.6203 0.1095 0.5896
C14 C -0.6276(3) 0.3800(3) 0.1095(2)
H12 H -0.6975 0.3633 0.0892
C15 C -0.5185(3) 0.4284(2) 0.1978(2)
H13 H -0.4920 0.4528 0.2496
C16 C -0.3000(3) 0.3890(3) 0.0804(2)
H14 H -0.2774 0.4512 0.1082
H15 H -0.2755 0.3931 0.0106
C17 C -0.2219(3) 0.2737(3) 0.1123(2)
C18 C -0.0709(3) 0.2578(4) 0.0813(3)
H16 H -0.0249 0.1784 0.0907
H17 H -0.0479 0.2731 0.0130
C19 C 0.0093(4) 0.4806(3) 0.1804(3)
H18 H 0.0113 0.5566 0.1859
C20 C 0.0365(3) 0.3066(3) 0.2063(3)
H19 H 0.0592 0.2334 0.2315
C21 C -0.2526(3) 0.1726(3) 0.0702(2)
C22 C -0.2195(4) 0.1470(4) -0.0276(2)
C23 C -0.2395(5) 0.0529(4) -0.0670(3)
H20 H -0.2127 0.0366 -0.1331
C24 C -0.3000(5) -0.0156(4) -0.0055(3)
C25 C -0.3411(4) 0.0067(3) 0.0909(3)
H21 H -0.3862 -0.0394 0.1309
C26 C -0.3146(3) 0.0993(3) 0.1281(2)
H22 H -0.3391 0.1131 0.1945
C27 C -0.9787(3) 0.6370(2) 0.4529(3)
O1 O -0.4071(2) 0.09516(17) 0.51065(16)
H23 H -0.3581 0.0806 0.4567
O2 O -0.2622(2) 0.27915(19) 0.21416(15)
H24 H -0.2225 0.2196 0.2363
S1 S -0.88004(9) 0.63286(7) 0.34771(6)
F1 F -0.1636(3) 0.2184(3) -0.08898(15)
F2 F -0.3195(4) -0.1096(2) -0.0422(2)
F3 F -0.8764(4) 0.2599(3) 0.8598(3)
F4 F -0.4359(3) 0.2827(2) 0.76153(15)
Cd1A Cd -0.19890(2) -0.400250(17) 0.657450(16)
Cd1_2 Cd 0.19890(2) 0.400250(17) 0.342550(16)
Cd1A_2 Cd -1.19890(2) 0.599750(17) 0.657450(16)
N6A N -0.7240(3) 0.1955(2) 0.32618(18)
N12_2 N -0.9384(3) 0.3978(2) 0.2369(2)
N13A N -0.9538(3) 0.3610(2) 0.4716(3)
N14 N -0.0913(4) 0.0502(3) 0.3384(3)
O3 O -0.2082(3) 0.1099(3) 0.3466(2)
O4 O -0.0671(4) -0.0202(4) 0.4006(3)
O5 O -0.0054(4) 0.0566(3) 0.2677(3)
loop_
_geom_bond_atom_site_label_1
_geom_bond_atom_site_label_2
_geom_bond_site_symmetry_1
_geom_bond_site_symmetry_2
Cd1 N1 1_555 1_555
N1 C1 1_555 1_555
N2 N3 1_555 1_555
N3 C2 1_555 1_555
N4 N5 1_555 1_555
N5 C6 1_555 1_555
N6 C6 1_555 1_555
N7 Cd1 1_555 1_555
N8 N9 1_555 1_555
N9 C15 1_555 1_555
N10 N11 1_555 1_555
N11 C19 1_555 1_555
N12 C19 1_555 1_555
N13 C27 1_555 1_555
N14 O3 1_555 1_555
C1 N2 1_555 1_555
H1 C1 1_555 1_555
C2 N1 1_555 1_555
H2 C2 1_555 1_555
C3 N3 1_555 1_555
H3 C3 1_555 1_555
H4 C3 1_555 1_555
C4 C3 1_555 1_555
C5 N4 1_555 1_555
H5 C5 1_555 1_555
H6 C5 1_555 1_555
C6 H7 1_555 1_555
C7 N4 1_555 1_555
H8 C7 1_555 1_555
C8 C4 1_555 1_555
C9 C8 1_555 1_555
C10 C9 1_555 1_555
H9 C10 1_555 1_555
C11 C10 1_555 1_555
C12 C11 1_555 1_555
H10 C12 1_555 1_555
C13 C8 1_555 1_555
H11 C13 1_555 1_555
C14 N7 1_555 1_555
H12 C14 1_555 1_555
C15 N7 1_555 1_555
H13 C15 1_555 1_555
C16 N9 1_555 1_555
H14 C16 1_555 1_555
H15 C16 1_555 1_555
C17 C16 1_555 1_555
C18 N10 1_555 1_555
H16 C18 1_555 1_555
H17 C18 1_555 1_555
C19 H18 1_555 1_555
C20 N10 1_555 1_555
H19 C20 1_555 1_555
C21 C17 1_555 1_555
C22 C21 1_555 1_555
C23 C22 1_555 1_555
H20 C23 1_555 1_555
C24 C23 1_555 1_555
C25 C24 1_555 1_555
H21 C25 1_555 1_555
C26 C21 1_555 1_555
H22 C26 1_555 1_555
C27 S1 1_555 1_555
O1 C4 1_555 1_555
H23 O1 1_555 1_555
O2 C17 1_555 1_555
H24 O2 1_555 1_555
O4 N14 1_555 1_555
O5 N14 1_555 1_555
S1 Cd1 1_555 1_555
F1 C22 1_555 1_555
F2 C24 1_555 1_555
F3 C11 1_555 1_555
F4 C9 1_555 1_555
Cd1A N6 1_555 1_555
Cd1_2 N12 1_555 1_555
Cd1A_2 N13 1_555 1_555
N6A Cd1 1_555 1_555
N12_2 Cd1 1_555 1_555
N13A Cd1 1_555 1_555
N6 C7 1_555 1_555
N8 C14 1_555 1_555
N12 C20 1_555 1_555
C4 C5 1_555 1_555
C12 C13 1_555 1_555
C17 C18 1_555 1_555
C25 C26 1_555 1_555

#END
