
#######################################################################
#
#                 Cambridge Crystallographic Data Centre
#                                CCDC 
#
#######################################################################
#
# If this CIF has been generated from an entry in the Cambridge 
# Structural Database, then it will include bibliographic, chemical, 
# crystal, experimental, refinement or atomic coordinate data resulting 
# from the CCDC's data processing and validation procedures.
#
#######################################################################

data_AHAHIB
_symmetry_cell_setting           monoclinic
_symmetry_space_group_name_H-M   'P 21/c'
_symmetry_Int_Tables_number      14
_space_group_name_Hall           '-P 2ybc'
loop_
_symmetry_equiv_pos_site_id
_symmetry_equiv_pos_as_xyz
1 x,y,z
2 -x,1/2+y,1/2-z
3 -x,-y,-z
4 x,1/2-y,1/2+z
_cell_length_a                   8.965(6)
_cell_length_b                   12.605(9)
_cell_length_c                   17.485(14)
_cell_angle_alpha                90
_cell_angle_beta                 114.149(14)
_cell_angle_gamma                90
_cell_volume                     1802.95
loop_
_atom_site_label
_atom_site_type_symbol
_atom_site_fract_x
_atom_site_fract_y
_atom_site_fract_z
C1 C 0.1640(14) 0.3658(11) 0.4780(6)
H1 H 0.2238 0.3110 0.5125
C2 C 0.0983(15) 0.5057(11) 0.4103(7)
H2 H 0.1057 0.5709 0.3873
C3 C -0.1061(14) 0.2834(10) 0.4327(7)
H3 H -0.1921 0.3114 0.4471
H4 H -0.0497 0.2280 0.4726
C4 C -0.1816(13) 0.2365(10) 0.3432(7)
C5 C -0.2932(14) 0.1451(11) 0.3431(7)
H5 H -0.2357 0.0996 0.3909
H6 H -0.3886 0.1733 0.3490
C6 C -0.3873(15) -0.0533(10) 0.1973(7)
H7 H -0.3931 -0.1245 0.1823
C7 C -0.4094(12) 0.1098(10) 0.1882(7)
H8 H -0.4314 0.1791 0.1684
C8 C -0.0509(12) 0.2087(9) 0.3139(7)
C9 C 0.0551(17) 0.1289(12) 0.3490(9)
C10 C 0.1849(17) 0.1019(12) 0.3236(11)
H9 H 0.2616 0.0489 0.3485
C11 C 0.1818(17) 0.1624(14) 0.2598(11)
C12 C 0.0826(18) 0.2353(12) 0.2208(9)
H10 H 0.0922 0.2697 0.1760
C13 C -0.0406(13) 0.2631(10) 0.2457(7)
H11 H -0.1148 0.3164 0.2180
C14 C 0.5815(16) 0.2425(11) 0.5070(7)
Cd1 Cd 0.5000 0.5000 0.5000
F1 F 0.0479(11) 0.0745(8) 0.4139(6)
F2 F 0.3088(10) 0.1337(11) 0.2368(8)
N1 N 0.2286(11) 0.4541(8) 0.4634(5)
N2 N -0.0403(13) 0.4582(10) 0.3929(7)
N3 N 0.0062(11) 0.3662(10) 0.4375(6)
N4 N -0.3454(10) 0.0830(8) 0.2675(5)
N5 N -0.3304(13) -0.0224(8) 0.2733(7)
N6 N -0.4381(9) 0.0255(7) 0.1408(6)
N7 N 0.5571(12) 0.3293(9) 0.4909(6)
O1 O -0.2872(9) 0.3130(7) 0.2892(5)
H12 H -0.2385 0.3702 0.3006
S1 S 0.6322(9) 0.1203(4) 0.5304(3)
C1A C -0.1640(14) 0.8658(11) 0.0220(6)
H1A H -0.2238 0.8110 -0.0125
C2A C -0.0983(15) 1.0057(11) 0.0897(7)
H2A H -0.1057 1.0709 0.1127
C3A C 0.1061(14) 0.7834(10) 0.0673(7)
H3A H 0.1921 0.8114 0.0529
H4A H 0.0497 0.7280 0.0274
C4A C 0.1816(13) 0.7365(10) 0.1568(7)
C5A C 0.2932(14) 0.6451(11) 0.1569(7)
H5A H 0.2357 0.5996 0.1091
H6A H 0.3886 0.6733 0.1510
C6A C 0.3873(15) 0.4467(10) 0.3027(7)
H7A H 0.3931 0.3755 0.3177
C7A C 0.4094(12) 0.6098(10) 0.3118(7)
H8A H 0.4314 0.6791 0.3316
C8A C 0.0509(12) 0.7087(9) 0.1861(7)
C9A C -0.0551(17) 0.6289(12) 0.1510(9)
C10A C -0.1849(17) 0.6019(12) 0.1764(11)
H9A H -0.2616 0.5489 0.1515
C11A C -0.1818(17) 0.6624(14) 0.2402(11)
C12A C -0.0826(18) 0.7353(12) 0.2792(9)
H10A H -0.0922 0.7697 0.3240
C13A C 0.0406(13) 0.7631(10) 0.2543(7)
H11A H 0.1148 0.8164 0.2820
C14B C 0.4185(16) 0.7575(11) 0.4930(7)
Cd1A Cd -0.5000 0.0000 0.0000
Cd1A_2 Cd -0.5000 1.0000 0.0000
F1A F -0.0479(11) 0.5745(8) 0.0861(6)
F2A F -0.3088(10) 0.6337(11) 0.2632(8)
N1A N -0.2286(11) 0.9541(8) 0.0366(5)
N1B N 0.7714(11) 0.5459(8) 0.5366(5)
N2A N 0.0403(13) 0.9582(10) 0.1071(7)
N3A N -0.0062(11) 0.8662(10) 0.0625(6)
N4A N 0.3454(10) 0.5830(8) 0.2325(5)
N5A N 0.3304(13) 0.4776(8) 0.2267(7)
N6A N 0.4381(9) 0.5255(7) 0.3592(6)
N6C N 0.5619(9) 0.4745(7) 0.6408(6)
N7B N 0.4429(12) 0.6707(9) 0.5091(6)
O1A O 0.2872(9) 0.8130(7) 0.2108(5)
H12A H 0.2385 0.8702 0.1994
S1B S 0.3678(9) 0.8797(4) 0.4696(3)
O2 O 0.678(3) 0.8345(12) 0.4082(8)
H13 H 0.7544 0.8820 0.4296
H14 H 0.6014 0.8453 0.4259
loop_
_geom_bond_atom_site_label_1
_geom_bond_atom_site_label_2
_geom_bond_site_symmetry_1
_geom_bond_site_symmetry_2
C1 H1 1_555 1_555
C2 H2 1_555 1_555
C3 H3 1_555 1_555
H4 C3 1_555 1_555
C4 C3 1_555 1_555
C5 C4 1_555 1_555
H5 C5 1_555 1_555
H6 C5 1_555 1_555
C6 H7 1_555 1_555
C7 H8 1_555 1_555
C8 C4 1_555 1_555
C9 C8 1_555 1_555
C10 C9 1_555 1_555
H9 C10 1_555 1_555
C11 C10 1_555 1_555
C12 C11 1_555 1_555
H10 C12 1_555 1_555
C13 C8 1_555 1_555
H11 C13 1_555 1_555
C14 N7 1_555 1_555
Cd1 N1 1_555 1_555
F1 C9 1_555 1_555
F2 C11 1_555 1_555
N1 C1 1_555 1_555
N2 C2 1_555 1_555
N3 C1 1_555 1_555
N4 C5 1_555 1_555
N5 C6 1_555 1_555
N6 C6 1_555 1_555
N7 Cd1 1_555 1_555
O1 C4 1_555 1_555
H12 O1 1_555 1_555
O2 H13 1_555 1_555
H14 O2 1_555 1_555
S1 C14 1_555 1_555
C1A H1A 1_555 1_555
C2A H2A 1_555 1_555
C3A H3A 1_555 1_555
H4A C3A 1_555 1_555
C4A C3A 1_555 1_555
C5A C4A 1_555 1_555
H5A C5A 1_555 1_555
H6A C5A 1_555 1_555
C6A H7A 1_555 1_555
C7A H8A 1_555 1_555
C8A C4A 1_555 1_555
C9A C8A 1_555 1_555
C10A C9A 1_555 1_555
H9A C10A 1_555 1_555
C11A C10A 1_555 1_555
C12A C11A 1_555 1_555
H10A C12A 1_555 1_555
C13A C8A 1_555 1_555
H11A C13A 1_555 1_555
C14B N7B 1_555 1_555
Cd1A N6 1_555 1_555
Cd1A_2 N1A 1_555 1_555
F1A C9A 1_555 1_555
F2A C11A 1_555 1_555
N1A C1A 1_555 1_555
N1B Cd1 1_555 1_555
N2A C2A 1_555 1_555
N3A C1A 1_555 1_555
N4A C5A 1_555 1_555
N5A C6A 1_555 1_555
N6A Cd1 1_555 1_555
N6C Cd1 1_555 1_555
N7B Cd1 1_555 1_555
O1A C4A 1_555 1_555
H12A O1A 1_555 1_555
S1B C14B 1_555 1_555
C2 N1 1_555 1_555
C3 N3 1_555 1_555
C7 N4 1_555 1_555
C7 N6 1_555 1_555
C12 C13 1_555 1_555
N2 N3 1_555 1_555
N4 N5 1_555 1_555
C2A N1A 1_555 1_555
C3A N3A 1_555 1_555
C6A N6A 1_555 1_555
C7A N4A 1_555 1_555
C7A N6A 1_555 1_555
C12A C13A 1_555 1_555
N2A N3A 1_555 1_555
N4A N5A 1_555 1_555

#END
