
#######################################################################
#
#                 Cambridge Crystallographic Data Centre
#                                CCDC 
#
#######################################################################
#
# If this CIF has been generated from an entry in the Cambridge 
# Structural Database, then it will include bibliographic, chemical, 
# crystal, experimental, refinement or atomic coordinate data resulting 
# from the CCDC's data processing and validation procedures.
#
#######################################################################

data_AHAHAU
_symmetry_cell_setting           monoclinic
_symmetry_space_group_name_H-M   'C 2/c'
_symmetry_Int_Tables_number      15
_space_group_name_Hall           '-C 2yn'
loop_
_symmetry_equiv_pos_site_id
_symmetry_equiv_pos_as_xyz
1 x,y,z
2 -x,y,1/2-z
3 1/2+x,1/2+y,z
4 1/2-x,1/2+y,1/2-z
5 -x,-y,-z
6 x,-y,1/2+z
7 1/2-x,1/2-y,-z
8 1/2+x,1/2-y,1/2+z
_cell_length_a                   26.5096(14)
_cell_length_b                   7.9323(5)
_cell_length_c                   23.0546(12)
_cell_angle_alpha                90
_cell_angle_beta                 107.419(3)
_cell_angle_gamma                90
_cell_volume                     4625.65
loop_
_atom_site_label
_atom_site_type_symbol
_atom_site_fract_x
_atom_site_fract_y
_atom_site_fract_z
Gd1 Gd 0.180868(7) 0.13400(2) 0.014898(7)
O1 O 0.26133(10) -0.0133(3) 0.04688(11)
O2 O 0.33439(10) 0.1227(3) 0.04655(11)
O3 O 0.33053(10) -0.4841(3) 0.39600(10)
O4 O 0.31630(11) -0.7611(3) 0.39062(10)
O5 O 0.23988(10) -0.6807(3) 0.07667(11)
O6 O 0.31540(10) -0.5510(3) 0.08307(10)
O7 O 0.16025(10) -0.1670(3) -0.00482(11)
H1 H 0.1692 -0.2116 0.0306
H2 H 0.1793 -0.2023 -0.0253
N1 N 0.08259(12) 0.1211(4) -0.04676(15)
N2 N 0.11629(13) 0.3063(4) 0.05650(14)
C1 C 0.34101(14) -0.0861(4) 0.12094(16)
C2 C 0.39309(15) -0.0473(5) 0.14950(18)
H3 H 0.4089 0.0434 0.1361
C3 C 0.42189(16) -0.1436(6) 0.1982(2)
H4 H 0.4568 -0.1155 0.2181
C4 C 0.39922(15) -0.2805(5) 0.21724(18)
H5 H 0.4194 -0.3454 0.2495
C5 C 0.34704(15) -0.3231(5) 0.18932(16)
C6 C 0.31795(14) -0.2230(5) 0.14118(15)
H6 H 0.2826 -0.2481 0.1223
C7 C 0.32332(13) -0.4710(5) 0.21132(15)
C8 C 0.33130(13) -0.4815(5) 0.27378(16)
H7 H 0.3499 -0.3958 0.2987
C9 C 0.31245(13) -0.6157(4) 0.29997(15)
C10 C 0.28484(14) -0.7420(5) 0.26295(16)
H8 H 0.2733 -0.8351 0.2800
C11 C 0.27421(14) -0.7316(5) 0.20092(16)
H9 H 0.2539 -0.8150 0.1764
C12 C 0.29318(13) -0.5992(5) 0.17412(15)
C13 C 0.30997(15) 0.0161(5) 0.06735(16)
C14 C 0.32047(13) -0.6226(5) 0.36764(15)
C15 C 0.28190(15) -0.6086(5) 0.10620(15)
C16 C 0.06575(17) 0.0428(6) -0.1000(2)
H10 H 0.0909 -0.0008 -0.1166
C17 C 0.01273(18) 0.0224(7) -0.1322(2)
H11 H 0.0032 -0.0328 -0.1695
C18 C -0.02488(19) 0.0829(7) -0.1092(2)
H12 H -0.0605 0.0683 -0.1301
C19 C -0.00964(17) 0.1682(6) -0.0531(2)
C20 C 0.04559(16) 0.1872(5) -0.02426(19)
C21 C 0.06307(16) 0.2801(5) 0.03187(19)
C22 C 0.02520(18) 0.3409(6) 0.0587(2)
C23 C 0.0447(2) 0.4270(6) 0.1139(2)
H13 H 0.0214 0.4650 0.1342
C24 C 0.0976(2) 0.4558(6) 0.1382(2)
H14 H 0.1105 0.5157 0.1745
C25 C 0.13207(18) 0.3927(5) 0.10748(19)
H15 H 0.1681 0.4128 0.1243
C26 C -0.04611(18) 0.2310(7) -0.0240(3)
H16 H -0.0821 0.2163 -0.0431
C27 C -0.02980(18) 0.3120(7) 0.0297(3)
H17 H -0.0547 0.3487 0.0482
Gd1_2 Gd 0.180868(7) -0.86600(2) 0.014898(7)
Gd1C Gd 0.319132(7) -0.36600(2) 0.485102(7)
Gd1F Gd 0.319132(7) -0.63400(2) -0.014898(7)
Gd1F_2 Gd 0.319132(7) 0.36600(2) -0.014898(7)
O2F O 0.16561(10) 0.3773(3) -0.04655(11)
O3C O 0.16947(10) 0.0159(3) 0.10400(10)
O5_2 O 0.23988(10) 0.3193(3) 0.07667(11)
O6F O 0.18460(10) 0.0510(3) -0.08307(10)
loop_
_geom_bond_atom_site_label_1
_geom_bond_atom_site_label_2
_geom_bond_site_symmetry_1
_geom_bond_site_symmetry_2
Gd1 O1 1_555 1_555
O1 C13 1_555 1_555
O2 C13 1_555 1_555
O3 C14 1_555 1_555
O4 C14 1_555 1_555
O5 C15 1_555 1_555
O6 C15 1_555 1_555
O7 Gd1 1_555 1_555
H1 O7 1_555 1_555
H2 O7 1_555 1_555
N1 Gd1 1_555 1_555
N2 Gd1 1_555 1_555
C1 C2 1_555 1_555
C2 H3 1_555 1_555
C3 C2 1_555 1_555
H4 C3 1_555 1_555
C4 C3 1_555 1_555
H5 C4 1_555 1_555
C5 C4 1_555 1_555
C6 C1 1_555 1_555
H6 C6 1_555 1_555
C7 C5 1_555 1_555
C8 C7 1_555 1_555
H7 C8 1_555 1_555
C9 C8 1_555 1_555
C10 C9 1_555 1_555
H8 C10 1_555 1_555
C11 C10 1_555 1_555
H9 C11 1_555 1_555
C12 C7 1_555 1_555
C13 C1 1_555 1_555
C14 C9 1_555 1_555
C15 C12 1_555 1_555
C16 N1 1_555 1_555
H10 C16 1_555 1_555
C17 C16 1_555 1_555
H11 C17 1_555 1_555
C18 C17 1_555 1_555
H12 C18 1_555 1_555
C19 C18 1_555 1_555
C20 N1 1_555 1_555
C21 N2 1_555 1_555
C22 C21 1_555 1_555
C23 C22 1_555 1_555
H13 C23 1_555 1_555
C24 C23 1_555 1_555
H14 C24 1_555 1_555
C25 N2 1_555 1_555
H15 C25 1_555 1_555
C26 C19 1_555 1_555
H16 C26 1_555 1_555
C27 C22 1_555 1_555
H17 C27 1_555 1_555
Gd1_2 O5 1_555 1_555
Gd1C O3 1_555 1_555
Gd1F O6 1_555 1_555
Gd1F_2 O2 1_555 1_555
O2F Gd1 1_555 1_555
O3C Gd1 1_555 1_555
O5_2 Gd1 1_555 1_555
O6F Gd1 1_555 1_555
C5 C6 1_555 1_555
C11 C12 1_555 1_555
C19 C20 1_555 1_555
C20 C21 1_555 1_555
C24 C25 1_555 1_555
C26 C27 1_555 1_555

#END
