
#######################################################################
#
#                 Cambridge Crystallographic Data Centre
#                                CCDC 
#
#######################################################################
#
# If this CIF has been generated from an entry in the Cambridge 
# Structural Database, then it will include bibliographic, chemical, 
# crystal, experimental, refinement or atomic coordinate data resulting 
# from the CCDC's data processing and validation procedures.
#
#######################################################################

data_AHAHIC
_symmetry_cell_setting           monoclinic
_symmetry_space_group_name_H-M   'C 2/c'
_symmetry_Int_Tables_number      15
_space_group_name_Hall           '-C 2yn'
loop_
_symmetry_equiv_pos_site_id
_symmetry_equiv_pos_as_xyz
1 x,y,z
2 -x,y,1/2-z
3 1/2+x,1/2+y,z
4 1/2-x,1/2+y,1/2-z
5 -x,-y,-z
6 x,-y,1/2+z
7 1/2-x,1/2-y,-z
8 1/2+x,1/2-y,1/2+z
_cell_length_a                   26.6409(13)
_cell_length_b                   7.9552(4)
_cell_length_c                   23.1863(12)
_cell_angle_alpha                90
_cell_angle_beta                 107.432(3)
_cell_angle_gamma                90
_cell_volume                     4688.28
loop_
_atom_site_label
_atom_site_type_symbol
_atom_site_fract_x
_atom_site_fract_y
_atom_site_fract_z
Nd1 Nd 0.181561(9) 0.13194(3) 0.014731(9)
O1 O 0.26343(12) -0.0176(4) 0.04782(14)
O2 O 0.33634(12) 0.1227(4) 0.04931(13)
O3 O 0.33039(12) -0.4884(4) 0.39508(12)
O4 O 0.31515(12) -0.7640(4) 0.38880(12)
O5 O 0.24225(12) -0.6764(4) 0.07590(13)
O6 O 0.31692(12) -0.5446(4) 0.08506(12)
O7 O 0.16197(12) -0.1763(4) -0.00366(12)
H1 H 0.1715 -0.2270 0.0301
H2 H 0.1855 -0.2033 -0.0196
N1 N 0.08085(14) 0.1198(5) -0.04721(16)
N2 N 0.11465(15) 0.3038(5) 0.05631(16)
C1 C 0.34252(17) -0.0864(5) 0.12338(18)
C2 C 0.39447(19) -0.0474(7) 0.1521(2)
H3 H 0.4104 0.0432 0.1392
C3 C 0.42231(19) -0.1439(7) 0.2001(2)
H4 H 0.4571 -0.1168 0.2204
C4 C 0.39912(18) -0.2814(7) 0.2187(2)
H5 H 0.4187 -0.3474 0.2506
C5 C 0.34715(16) -0.3210(5) 0.19004(17)
C6 C 0.31891(17) -0.2231(6) 0.14296(18)
H6 H 0.2837 -0.2476 0.1238
C7 C 0.32397(16) -0.4706(5) 0.21233(17)
C8 C 0.33092(16) -0.4829(5) 0.27417(18)
H7 H 0.3490 -0.3977 0.2994
C9 C 0.31203(16) -0.6167(6) 0.29936(17)
C10 C 0.28454(17) -0.7431(6) 0.26209(18)
H8 H 0.2731 -0.8365 0.2787
C11 C 0.27413(17) -0.7304(6) 0.20011(18)
H9 H 0.2536 -0.8117 0.1751
C12 C 0.29408(15) -0.5974(6) 0.17477(17)
C13 C 0.31166(18) 0.0153(6) 0.06936(19)
C14 C 0.31976(15) -0.6265(6) 0.36614(17)
C15 C 0.28307(17) -0.6041(5) 0.10668(18)
C16 C 0.0636(2) 0.0396(7) -0.0995(2)
H10 H 0.0884 -0.0074 -0.1157
C17 C 0.0111(2) 0.0219(8) -0.1312(3)
H11 H 0.0012 -0.0322 -0.1684
C18 C -0.0257(2) 0.0833(8) -0.1078(3)
H12 H -0.0613 0.0702 -0.1285
C19 C -0.0103(2) 0.1668(7) -0.0523(3)
C20 C 0.04430(18) 0.1872(6) -0.0237(2)
C21 C 0.06167(19) 0.2784(6) 0.0314(2)
C22 C 0.0248(2) 0.3412(7) 0.0588(2)
C23 C 0.0446(2) 0.4264(7) 0.1134(3)
H13 H 0.0215 0.4654 0.1335
C24 C 0.0965(2) 0.4535(7) 0.1374(3)
H14 H 0.1095 0.5126 0.1734
C25 C 0.1308(2) 0.3903(6) 0.1068(2)
H15 H 0.1666 0.4107 0.1231
C26 C -0.0461(2) 0.2316(8) -0.0235(3)
H16 H -0.0820 0.2171 -0.0419
C27 C -0.0301(2) 0.3129(8) 0.0291(3)
H17 H -0.0549 0.3518 0.0469
Nd1_2 Nd 0.181561(9) -0.86806(3) 0.014731(9)
Nd1C Nd 0.318439(9) -0.36806(3) 0.485269(9)
Nd1F Nd 0.318439(9) -0.63194(3) -0.014731(9)
Nd1F_2 Nd 0.318439(9) 0.36806(3) -0.014731(9)
O2F O 0.16366(12) 0.3773(4) -0.04931(13)
O3C O 0.16961(12) 0.0116(4) 0.10492(12)
O5_2 O 0.24225(12) 0.3236(4) 0.07590(13)
O6F O 0.18308(12) 0.0446(4) -0.08506(12)
loop_
_geom_bond_atom_site_label_1
_geom_bond_atom_site_label_2
_geom_bond_site_symmetry_1
_geom_bond_site_symmetry_2
Nd1 O1 1_555 1_555
O1 C13 1_555 1_555
O2 C13 1_555 1_555
O3 C14 1_555 1_555
O4 C14 1_555 1_555
O5 C15 1_555 1_555
O6 C15 1_555 1_555
O7 Nd1 1_555 1_555
H1 O7 1_555 1_555
H2 O7 1_555 1_555
N1 Nd1 1_555 1_555
N2 Nd1 1_555 1_555
C1 C2 1_555 1_555
C2 H3 1_555 1_555
C3 C2 1_555 1_555
H4 C3 1_555 1_555
C4 C3 1_555 1_555
H5 C4 1_555 1_555
C5 C4 1_555 1_555
C6 C1 1_555 1_555
H6 C6 1_555 1_555
C7 C5 1_555 1_555
C8 C7 1_555 1_555
H7 C8 1_555 1_555
C9 C8 1_555 1_555
C10 C9 1_555 1_555
H8 C10 1_555 1_555
C11 C10 1_555 1_555
H9 C11 1_555 1_555
C12 C7 1_555 1_555
C13 C1 1_555 1_555
C14 C9 1_555 1_555
C15 C12 1_555 1_555
C16 N1 1_555 1_555
H10 C16 1_555 1_555
C17 C16 1_555 1_555
H11 C17 1_555 1_555
C18 C17 1_555 1_555
H12 C18 1_555 1_555
C19 C18 1_555 1_555
C20 N1 1_555 1_555
C21 N2 1_555 1_555
C22 C21 1_555 1_555
C23 C22 1_555 1_555
H13 C23 1_555 1_555
C24 C23 1_555 1_555
H14 C24 1_555 1_555
C25 N2 1_555 1_555
H15 C25 1_555 1_555
C26 C19 1_555 1_555
H16 C26 1_555 1_555
C27 C22 1_555 1_555
H17 C27 1_555 1_555
Nd1_2 O5 1_555 1_555
Nd1C O3 1_555 1_555
Nd1F O6 1_555 1_555
Nd1F_2 O2 1_555 1_555
O2F Nd1 1_555 1_555
O3C Nd1 1_555 1_555
O5_2 Nd1 1_555 1_555
O6F Nd1 1_555 1_555
C5 C6 1_555 1_555
C11 C12 1_555 1_555
C19 C20 1_555 1_555
C20 C21 1_555 1_555
C24 C25 1_555 1_555
C26 C27 1_555 1_555

#END
