
#######################################################################
#
#                 Cambridge Crystallographic Data Centre
#                                CCDC 
#
#######################################################################
#
# If this CIF has been generated from an entry in the Cambridge 
# Structural Database, then it will include bibliographic, chemical, 
# crystal, experimental, refinement or atomic coordinate data resulting 
# from the CCDC's data processing and validation procedures.
#
#######################################################################

data_AHAHOI
_symmetry_cell_setting           monoclinic
_symmetry_space_group_name_H-M   'C 2/c'
_symmetry_Int_Tables_number      15
_space_group_name_Hall           '-C 2yn'
loop_
_symmetry_equiv_pos_site_id
_symmetry_equiv_pos_as_xyz
1 x,y,z
2 -x,y,1/2-z
3 1/2+x,1/2+y,z
4 1/2-x,1/2+y,1/2-z
5 -x,-y,-z
6 x,-y,1/2+z
7 1/2-x,1/2-y,-z
8 1/2+x,1/2-y,1/2+z
_cell_length_a                   26.4030(13)
_cell_length_b                   7.8892(4)
_cell_length_c                   22.8578(11)
_cell_angle_alpha                90
_cell_angle_beta                 107.410(3)
_cell_angle_gamma                90
_cell_volume                     4543.12
loop_
_atom_site_label
_atom_site_type_symbol
_atom_site_fract_x
_atom_site_fract_y
_atom_site_fract_z
Yb1 Yb 0.319771(7) -0.36362(2) -0.014786(8)
O1 O 0.33261(13) -0.1233(4) 0.04318(14)
O2 O 0.25845(12) 0.0086(4) 0.04542(15)
O3 O 0.31330(12) 0.5602(4) 0.08056(13)
O4 O 0.23758(13) 0.6849(4) 0.07721(14)
O5 O 0.31669(13) 0.7586(4) 0.39285(14)
O6 O 0.32971(13) 0.4792(4) 0.39721(14)
N1 N 0.38252(15) -0.1944(5) -0.05683(18)
N2 N 0.41558(15) -0.3758(5) 0.04780(18)
O7 O 0.34178(14) -0.6554(4) 0.00657(15)
H1 H 0.3167 -0.6846 0.0243
H2 H 0.3314 -0.7403 -0.0246
C1 C 0.33975(17) 0.0864(6) 0.1182(2)
C2 C 0.39197(19) 0.0456(7) 0.1476(2)
H3 H 0.4074 -0.0471 0.1344
C3 C 0.4213(2) 0.1408(7) 0.1963(3)
H4 H 0.4565 0.1124 0.2159
C4 C 0.39869(19) 0.2785(7) 0.2161(2)
H5 H 0.4189 0.3420 0.2491
C5 C 0.34614(18) 0.3240(6) 0.1875(2)
C6 C 0.31660(17) 0.2235(6) 0.13871(19)
H6 H 0.2810 0.2487 0.1198
C7 C 0.32352(16) 0.4721(6) 0.2109(2)
C8 C 0.33125(17) 0.4814(6) 0.2742(2)
H7 H 0.3495 0.3941 0.2990
C9 C 0.31291(16) 0.6151(6) 0.30113(19)
C10 C 0.28539(18) 0.7456(6) 0.2643(2)
H8 H 0.2742 0.8395 0.2817
C11 C 0.27485(18) 0.7342(7) 0.2019(2)
H9 H 0.2550 0.8195 0.1774
C12 C 0.29276(17) 0.6000(6) 0.17369(19)
C13 C 0.30760(18) -0.0187(6) 0.0650(2)
C14 C 0.28016(17) 0.6125(6) 0.10529(19)
C15 C 0.32005(17) 0.6192(6) 0.3691(2)
C16 C 0.3666(2) -0.1068(6) -0.1084(2)
H10 H 0.3306 -0.0847 -0.1251
C17 C 0.4017(2) -0.0452(7) -0.1393(3)
H11 H 0.3888 0.0149 -0.1758
C18 C 0.4541(2) -0.0744(8) -0.1156(3)
H12 H 0.4774 -0.0369 -0.1363
C19 C 0.4736(2) -0.1609(7) -0.0600(3)
C20 C 0.43529(18) -0.2212(6) -0.0325(2)
C21 C 0.45320(18) -0.3112(6) 0.0245(2)
C22 C 0.5082(2) -0.3325(7) 0.0532(3)
C23 C 0.5232(2) -0.4137(8) 0.1097(3)
H13 H 0.5590 -0.4278 0.1308
C24 C 0.4854(2) -0.4729(8) 0.1343(3)
H14 H 0.4952 -0.5250 0.1726
C25 C 0.4319(2) -0.4540(8) 0.1012(2)
H15 H 0.4065 -0.4988 0.1176
C26 C 0.5291(2) -0.1925(8) -0.0298(3)
H16 H 0.5543 -0.1569 -0.0481
C27 C 0.5449(2) -0.2727(9) 0.0247(3)
H17 H 0.5809 -0.2889 0.0438
Yb1_2 Yb 0.319771(7) 0.63638(2) -0.014786(8)
Yb1E Yb 0.319771(7) 0.36362(2) 0.485214(8)
Yb1F Yb 0.180229(7) -0.13638(2) 0.014786(8)
Yb1F_2 Yb 0.180229(7) 0.86362(2) 0.014786(8)
O2F O 0.24155(12) -0.5086(4) -0.04542(15)
O3_2 O 0.31330(12) -0.4398(4) 0.08056(13)
O4F O 0.26242(13) -0.1849(4) -0.07721(14)
O6E O 0.32971(13) -0.4792(4) -0.10279(14)
loop_
_geom_bond_atom_site_label_1
_geom_bond_atom_site_label_2
_geom_bond_site_symmetry_1
_geom_bond_site_symmetry_2
Yb1 O1 1_555 1_555
O1 C13 1_555 1_555
O2 C13 1_555 1_555
O3 C14 1_555 1_555
O4 C14 1_555 1_555
O5 C15 1_555 1_555
O6 C15 1_555 1_555
N1 Yb1 1_555 1_555
N2 Yb1 1_555 1_555
O7 Yb1 1_555 1_555
H1 O7 1_555 1_555
H2 O7 1_555 1_555
C1 C2 1_555 1_555
C2 H3 1_555 1_555
C3 C2 1_555 1_555
H4 C3 1_555 1_555
C4 C3 1_555 1_555
H5 C4 1_555 1_555
C5 C4 1_555 1_555
C6 C1 1_555 1_555
H6 C6 1_555 1_555
C7 C5 1_555 1_555
C8 C7 1_555 1_555
H7 C8 1_555 1_555
C9 C8 1_555 1_555
C10 C9 1_555 1_555
H8 C10 1_555 1_555
C11 C10 1_555 1_555
H9 C11 1_555 1_555
C12 C7 1_555 1_555
C13 C1 1_555 1_555
C14 C12 1_555 1_555
C15 C9 1_555 1_555
C16 N1 1_555 1_555
H10 C16 1_555 1_555
C17 C16 1_555 1_555
H11 C17 1_555 1_555
C18 C17 1_555 1_555
H12 C18 1_555 1_555
C19 C18 1_555 1_555
C20 N1 1_555 1_555
C21 N2 1_555 1_555
C22 C21 1_555 1_555
C23 C22 1_555 1_555
H13 C23 1_555 1_555
C24 C23 1_555 1_555
H14 C24 1_555 1_555
C25 N2 1_555 1_555
H15 C25 1_555 1_555
C26 C19 1_555 1_555
H16 C26 1_555 1_555
C27 C22 1_555 1_555
H17 C27 1_555 1_555
Yb1_2 O3 1_555 1_555
Yb1E O6 1_555 1_555
Yb1F O2 1_555 1_555
Yb1F_2 O4 1_555 1_555
O2F Yb1 1_555 1_555
O3_2 Yb1 1_555 1_555
O4F Yb1 1_555 1_555
O6E Yb1 1_555 1_555
C5 C6 1_555 1_555
C11 C12 1_555 1_555
C19 C20 1_555 1_555
C20 C21 1_555 1_555
C24 C25 1_555 1_555
C26 C27 1_555 1_555

#END
