
#######################################################################
#
#                 Cambridge Crystallographic Data Centre
#                                CCDC 
#
#######################################################################
#
# If this CIF has been generated from an entry in the Cambridge 
# Structural Database, then it will include bibliographic, chemical, 
# crystal, experimental, refinement or atomic coordinate data resulting 
# from the CCDC's data processing and validation procedures.
#
#######################################################################

data_AHAHUO
_symmetry_cell_setting           monoclinic
_symmetry_space_group_name_H-M   'C 2/c'
_symmetry_Int_Tables_number      15
_space_group_name_Hall           '-C 2yn'
loop_
_symmetry_equiv_pos_site_id
_symmetry_equiv_pos_as_xyz
1 x,y,z
2 -x,y,1/2-z
3 1/2+x,1/2+y,z
4 1/2-x,1/2+y,1/2-z
5 -x,-y,-z
6 x,-y,1/2+z
7 1/2-x,1/2-y,-z
8 1/2+x,1/2-y,1/2+z
_cell_length_a                   26.6602(8)
_cell_length_b                   7.9699(2)
_cell_length_c                   23.2273(7)
_cell_angle_alpha                90
_cell_angle_beta                 107.4650(10)
_cell_angle_gamma                90
_cell_volume                     4707.8
loop_
_atom_site_label
_atom_site_type_symbol
_atom_site_fract_x
_atom_site_fract_y
_atom_site_fract_z
Pr1 Pr 0.181747(10) 0.13277(3) 0.014750(10)
O1 O 0.26415(14) -0.0178(5) 0.04836(16)
O2 O 0.33650(14) 0.1208(5) 0.04968(16)
O3 O 0.33022(15) -0.4887(4) 0.39481(14)
O4 O 0.31503(15) -0.7638(5) 0.38837(14)
O5 O 0.24386(15) -0.6759(5) 0.07602(14)
O6 O 0.31852(15) -0.5436(5) 0.08594(14)
O7 O 0.16262(15) -0.1778(5) -0.00242(15)
H1 H 0.1906 -0.2331 0.0135
H2 H 0.1516 -0.1973 -0.0401
N1 N 0.07988(17) 0.1196(6) -0.0464(2)
N2 N 0.11465(17) 0.3052(6) 0.05635(19)
C1 C 0.34248(18) -0.0863(6) 0.12369(19)
C2 C 0.3948(2) -0.0494(8) 0.1525(3)
H3 H 0.4109 0.0400 0.1394
C3 C 0.4228(2) -0.1461(8) 0.2010(3)
H4 H 0.4575 -0.1186 0.2213
C4 C 0.4000(2) -0.2818(8) 0.2192(2)
H5 H 0.4198 -0.3475 0.2511
C5 C 0.34771(19) -0.3229(6) 0.19067(19)
C6 C 0.31935(18) -0.2219(6) 0.14329(18)
H6 H 0.2841 -0.2457 0.1243
C7 C 0.32415(17) -0.4694(6) 0.21219(19)
C8 C 0.33090(18) -0.4822(6) 0.27421(19)
H7 H 0.3489 -0.3973 0.2996
C9 C 0.31182(17) -0.6163(6) 0.29901(18)
C10 C 0.2843(2) -0.7412(7) 0.2614(2)
H8 H 0.2720 -0.8336 0.2776
C11 C 0.27497(19) -0.7287(7) 0.1997(2)
H9 H 0.2552 -0.8112 0.1747
C12 C 0.29432(18) -0.5970(6) 0.17447(19)
C13 C 0.31234(19) 0.0140(6) 0.0700(2)
C14 C 0.31941(17) -0.6255(7) 0.36622(19)
C15 C 0.28477(19) -0.6031(6) 0.1071(2)
C16 C 0.0632(2) 0.0412(9) -0.0986(3)
H10 H 0.0880 -0.0042 -0.1150
C17 C 0.0101(3) 0.0229(10) -0.1304(3)
H11 H 0.0000 -0.0314 -0.1676
C18 C -0.0263(3) 0.0840(10) -0.1071(3)
H12 H -0.0618 0.0705 -0.1277
C19 C -0.0110(2) 0.1680(9) -0.0519(3)
C20 C 0.0438(2) 0.1879(8) -0.0237(3)
C21 C 0.0614(2) 0.2804(8) 0.0319(3)
C22 C 0.0243(3) 0.3439(8) 0.0593(3)
C23 C 0.0438(3) 0.4279(10) 0.1135(3)
H13 H 0.0208 0.4661 0.1339
C24 C 0.0961(3) 0.4547(9) 0.1372(3)
H14 H 0.1090 0.5147 0.1734
C25 C 0.1310(2) 0.3923(7) 0.1066(3)
H15 H 0.1670 0.4124 0.1235
C26 C -0.0465(3) 0.2357(10) -0.0228(4)
H16 H -0.0825 0.2210 -0.0418
C27 C -0.0304(3) 0.3160(10) 0.0300(4)
H17 H -0.0553 0.3527 0.0485
Pr1_2 Pr 0.181747(10) -0.86723(3) 0.014750(10)
Pr1C Pr 0.318253(10) -0.36723(3) 0.485250(10)
Pr1F Pr 0.318253(10) -0.63277(3) -0.014750(10)
Pr1F_2 Pr 0.318253(10) 0.36723(3) -0.014750(10)
O2F O 0.16350(14) 0.3792(5) -0.04968(16)
O3C O 0.16978(15) 0.0113(4) 0.10519(14)
O5_2 O 0.24386(15) 0.3241(5) 0.07602(14)
O6F O 0.18148(15) 0.0436(5) -0.08594(14)
loop_
_geom_bond_atom_site_label_1
_geom_bond_atom_site_label_2
_geom_bond_site_symmetry_1
_geom_bond_site_symmetry_2
Pr1 O1 1_555 1_555
O1 C13 1_555 1_555
O2 C13 1_555 1_555
O3 C14 1_555 1_555
O4 C14 1_555 1_555
O5 C15 1_555 1_555
O6 C15 1_555 1_555
O7 Pr1 1_555 1_555
H1 O7 1_555 1_555
H2 O7 1_555 1_555
N1 Pr1 1_555 1_555
N2 Pr1 1_555 1_555
C1 C2 1_555 1_555
C2 H3 1_555 1_555
C3 C2 1_555 1_555
H4 C3 1_555 1_555
C4 C3 1_555 1_555
H5 C4 1_555 1_555
C5 C4 1_555 1_555
C6 C1 1_555 1_555
H6 C6 1_555 1_555
C7 C5 1_555 1_555
C8 C7 1_555 1_555
H7 C8 1_555 1_555
C9 C8 1_555 1_555
C10 C9 1_555 1_555
H8 C10 1_555 1_555
C11 C10 1_555 1_555
H9 C11 1_555 1_555
C12 C7 1_555 1_555
C13 C1 1_555 1_555
C14 C9 1_555 1_555
C15 C12 1_555 1_555
C16 N1 1_555 1_555
H10 C16 1_555 1_555
C17 C16 1_555 1_555
H11 C17 1_555 1_555
C18 C17 1_555 1_555
H12 C18 1_555 1_555
C19 C18 1_555 1_555
C20 N1 1_555 1_555
C21 N2 1_555 1_555
C22 C21 1_555 1_555
C23 C22 1_555 1_555
H13 C23 1_555 1_555
C24 C23 1_555 1_555
H14 C24 1_555 1_555
C25 N2 1_555 1_555
H15 C25 1_555 1_555
C26 C19 1_555 1_555
H16 C26 1_555 1_555
C27 C22 1_555 1_555
H17 C27 1_555 1_555
Pr1_2 O5 1_555 1_555
Pr1C O3 1_555 1_555
Pr1F O6 1_555 1_555
Pr1F_2 O2 1_555 1_555
O2F Pr1 1_555 1_555
O3C Pr1 1_555 1_555
O5_2 Pr1 1_555 1_555
O6F Pr1 1_555 1_555
C5 C6 1_555 1_555
C11 C12 1_555 1_555
C19 C20 1_555 1_555
C20 C21 1_555 1_555
C24 C25 1_555 1_555
C26 C27 1_555 1_555

#END
