
#######################################################################
#
#                 Cambridge Crystallographic Data Centre
#                                CCDC 
#
#######################################################################
#
# If this CIF has been generated from an entry in the Cambridge 
# Structural Database, then it will include bibliographic, chemical, 
# crystal, experimental, refinement or atomic coordinate data resulting 
# from the CCDC's data processing and validation procedures.
#
#######################################################################

data_AHAJUP
_symmetry_cell_setting           monoclinic
_symmetry_space_group_name_H-M   'C 2/c'
_symmetry_Int_Tables_number      15
_space_group_name_Hall           '-C 2yn'
loop_
_symmetry_equiv_pos_site_id
_symmetry_equiv_pos_as_xyz
1 x,y,z
2 -x,y,1/2-z
3 1/2+x,1/2+y,z
4 1/2-x,1/2+y,1/2-z
5 -x,-y,-z
6 x,-y,1/2+z
7 1/2-x,1/2-y,-z
8 1/2+x,1/2-y,1/2+z
_cell_length_a                   14.983(4)
_cell_length_b                   10.508(3)
_cell_length_c                   14.396(3)
_cell_angle_alpha                90
_cell_angle_beta                 115.143(4)
_cell_angle_gamma                90
_cell_volume                     2051.77
loop_
_atom_site_label
_atom_site_type_symbol
_atom_site_fract_x
_atom_site_fract_y
_atom_site_fract_z
Cd1 Cd 0.043114(16) 0.898776(19) 0.140726(17)
Cl1 Cl -0.12821(7) 0.91428(9) 0.15771(7)
Cl2 Cl 0.03869(6) 1.13032(8) 0.08158(6)
N1 N 0.1984(2) 0.8669(3) 0.1440(2)
N2 N 0.30656(19) 0.8704(2) 0.0783(2)
N3 N 0.5135(2) 1.1813(2) 0.1310(2)
N4 N 0.43552(19) 1.0014(2) 0.07273(19)
C1 C 0.2227(2) 0.9214(3) 0.0757(3)
H1 H 0.1870 0.9863 0.0316
C2 C 0.3373(2) 0.7780(3) 0.1532(2)
H2 H 0.3928 0.7266 0.1726
C3 C 0.2700(2) 0.7776(3) 0.1925(3)
H3 H 0.2720 0.7244 0.2450
C4 C 0.4307(2) 1.1286(3) 0.0681(3)
H4 H 0.3751 1.1741 0.0253
C5 C 0.5756(3) 1.0813(3) 0.1810(3)
H5 H 0.6396 1.0894 0.2317
C6 C 0.5287(2) 0.9702(3) 0.1445(2)
H6 H 0.5542 0.8888 0.1638
C7 C 0.3570(3) 0.9117(3) 0.0168(3)
H7 H 0.3846 0.8382 -0.0025
H8 H 0.3099 0.9515 -0.0456
Cd1A Cd -0.043114(16) 0.898776(19) 0.359274(17)
Cd1D Cd -0.043114(16) 1.101224(19) -0.140726(17)
Cd1B Cd 0.543114(16) 1.398776(19) 0.140726(17)
Cd1E Cd 0.043114(16) 1.101224(19) -0.359274(17)
Cd1F Cd 0.456886(16) 1.601224(19) -0.140726(17)
Cl1A Cl 0.12821(7) 0.91428(9) 0.34229(7)
Cl1D Cl 0.12821(7) 1.08572(9) -0.15771(7)
Cl1E Cl -0.12821(7) 1.08572(9) -0.34229(7)
Cl2D Cl -0.03869(6) 0.86968(8) -0.08158(6)
N1D N -0.1984(2) 1.1331(3) -0.1440(2)
N1F N 0.3016(2) 1.6331(3) -0.1440(2)
N2F N 0.19344(19) 1.6296(2) -0.0783(2)
N3B N 0.0135(2) 0.6813(2) 0.1310(2)
N3F N -0.0135(2) 1.3187(2) -0.1310(2)
N4F N 0.06448(19) 1.4986(2) -0.07273(19)
C1F C 0.2773(2) 1.5786(3) -0.0757(3)
H1F H 0.3130 1.5137 -0.0316
C2F C 0.1627(2) 1.7220(3) -0.1532(2)
H2F H 0.1072 1.7734 -0.1726
C3F C 0.2300(2) 1.7224(3) -0.1925(3)
H3F H 0.2280 1.7756 -0.2450
C4F C 0.0693(2) 1.3714(3) -0.0681(3)
H4F H 0.1249 1.3259 -0.0253
C5F C -0.0756(3) 1.4187(3) -0.1810(3)
H5F H -0.1396 1.4106 -0.2317
C6F C -0.0287(2) 1.5298(3) -0.1445(2)
H6F H -0.0542 1.6112 -0.1638
C7F C 0.1430(3) 1.5883(3) -0.0168(3)
H7F H 0.1154 1.6618 0.0025
H8F H 0.1901 1.5485 0.0456
loop_
_geom_bond_atom_site_label_1
_geom_bond_atom_site_label_2
_geom_bond_site_symmetry_1
_geom_bond_site_symmetry_2
Cd1 Cl1 1_555 1_555
Cl1 Cd1A 1_555 1_555
Cl2 Cd1 1_555 1_555
N1 Cd1 1_555 1_555
N2 C1 1_555 1_555
N3 C4 1_555 1_555
N4 C4 1_555 1_555
C1 N1 1_555 1_555
H1 C1 1_555 1_555
C2 N2 1_555 1_555
H2 C2 1_555 1_555
C3 N1 1_555 1_555
H3 C3 1_555 1_555
C4 H4 1_555 1_555
C5 N3 1_555 1_555
H5 C5 1_555 1_555
C6 N4 1_555 1_555
H6 C6 1_555 1_555
C7 N2 1_555 1_555
H7 C7 1_555 1_555
H8 C7 1_555 1_555
Cd1A Cl1A 1_555 1_555
Cd1D Cl2 1_555 1_555
Cd1B N3 1_555 1_555
Cd1E Cl1D 1_555 1_555
Cd1F N1F 1_555 1_555
Cl1A Cd1 1_555 1_555
Cl1D Cd1D 1_555 1_555
Cl1E Cd1D 1_555 1_555
Cl2D Cd1 1_555 1_555
N1D Cd1D 1_555 1_555
N1F C1F 1_555 1_555
N2F C1F 1_555 1_555
N3B Cd1 1_555 1_555
N3F Cd1D 1_555 1_555
N4F C4F 1_555 1_555
C1F H1F 1_555 1_555
C2F N2F 1_555 1_555
H2F C2F 1_555 1_555
C3F N1F 1_555 1_555
H3F C3F 1_555 1_555
C4F N3F 1_555 1_555
H4F C4F 1_555 1_555
C5F N3F 1_555 1_555
H5F C5F 1_555 1_555
C6F N4F 1_555 1_555
H6F C6F 1_555 1_555
C7F N2F 1_555 1_555
H7F C7F 1_555 1_555
H8F C7F 1_555 1_555
N4 C7 1_555 1_555
C2 C3 1_555 1_555
C5 C6 1_555 1_555
Cd1D Cl2D 1_555 1_555
Cd1E Cl1E 1_555 1_555
N4F C7F 1_555 1_555
C2F C3F 1_555 1_555
C5F C6F 1_555 1_555

#END
