
#######################################################################
#
#                 Cambridge Crystallographic Data Centre
#                                CCDC 
#
#######################################################################
#
# If this CIF has been generated from an entry in the Cambridge 
# Structural Database, then it will include bibliographic, chemical, 
# crystal, experimental, refinement or atomic coordinate data resulting 
# from the CCDC's data processing and validation procedures.
#
#######################################################################

data_AHAKUQ
_symmetry_cell_setting           monoclinic
_symmetry_space_group_name_H-M   'P 21/n'
_symmetry_Int_Tables_number      14
_space_group_name_Hall           '-P 2yn'
loop_
_symmetry_equiv_pos_site_id
_symmetry_equiv_pos_as_xyz
1 x,y,z
2 1/2-x,1/2+y,1/2-z
3 -x,-y,-z
4 1/2+x,1/2-y,1/2+z
_cell_length_a                   8.9380(18)
_cell_length_b                   14.574(3)
_cell_length_c                   21.621(4)
_cell_angle_alpha                90
_cell_angle_beta                 91.17(3)
_cell_angle_gamma                90
_cell_volume                     2815.82
loop_
_atom_site_label
_atom_site_type_symbol
_atom_site_fract_x
_atom_site_fract_y
_atom_site_fract_z
Ho1 Ho 0.75935(3) 0.737180(18) 0.844600(13)
Ho2 Ho 1.24142(3) 0.498822(17) 0.734114(14)
O1 O 0.5727(5) 0.7446(3) 0.9226(2)
O2 O 0.5416(5) 0.7689(3) 1.0234(2)
O3 O 0.7688(5) 1.0993(3) 1.0280(2)
H1 H 0.8031 1.1434 1.0094
O4 O 1.0658(4) 0.9832(3) 0.8390(2)
O5 O 0.9437(4) 0.8509(3) 0.8212(2)
O6 O 0.5870(4) 0.8480(3) 0.8062(2)
O7 O 0.4628(4) 0.9168(3) 0.7288(2)
O8 O 0.6725(5) 0.7395(3) 0.5449(2)
H2 H 0.5948 0.7666 0.5358
O9 O 1.0371(4) 0.5936(3) 0.7050(2)
O10 O 0.9308(4) 0.6439(3) 0.7909(2)
O11 O 0.5744(4) 0.6338(3) 0.7991(2)
O12 O 0.4549(4) 0.4988(3) 0.7975(2)
O13 O 0.6242(5) 0.3778(3) 1.0135(2)
H3 H 0.5706 0.3394 0.9963
O14 O 0.9908(5) 0.6406(3) 1.0154(2)
O15 O 0.9468(4) 0.7064(3) 0.9233(2)
O16 O 1.3345(4) 0.6488(3) 0.7207(2)
H4 H 1.4282 0.6580 0.7194
H5 H 1.2740 0.6936 0.7173
O17 O 1.1354(4) 0.4395(3) 0.6417(2)
H6 H 1.1443 0.3828 0.6334
H7 H 1.0883 0.4748 0.6168
O18 O 1.3164(4) 0.3414(3) 0.7468(2)
H8 H 1.3161 0.3169 0.7825
H9 H 1.3431 0.3102 0.7157
O19 O 1.1767(4) 0.5587(3) 0.8316(2)
H10 H 1.1824 0.5249 0.8636
H11 H 1.1478 0.6141 0.8347
N1 N 0.7754(5) 0.8700(3) 0.9156(2)
N2 N 0.7527(5) 0.7536(3) 0.7321(3)
N3 N 0.7354(5) 0.5881(3) 0.8961(2)
C1 C 0.5922(6) 0.7894(4) 0.9720(3)
C2 C 0.6904(6) 0.8742(4) 0.9656(3)
C3 C 0.6888(6) 0.9474(4) 1.0057(3)
H12 H 0.6297 0.9466 1.0406
C4 C 0.7787(7) 1.0232(4) 0.9924(3)
C5 C 0.8728(6) 1.0182(4) 0.9417(3)
H13 H 0.9376 1.0662 0.9330
C6 C 0.8684(6) 0.9406(4) 0.9044(3)
C7 C 0.9669(6) 0.9243(4) 0.8507(3)
C8 C 0.5599(6) 0.8629(4) 0.7500(3)
C9 C 0.6479(6) 0.8069(4) 0.7041(3)
C10 C 0.6193(6) 0.8067(4) 0.6427(3)
H14 H 0.5474 0.8457 0.6256
C11 C 0.6993(6) 0.7469(4) 0.6051(3)
C12 C 0.8121(6) 0.6933(4) 0.6336(3)
H15 H 0.8712 0.6548 0.6100
C13 C 0.8340(6) 0.6986(4) 0.6959(3)
C14 C 0.9446(5) 0.6403(4) 0.7331(3)
C15 C 0.5455(6) 0.5544(4) 0.8199(3)
C16 C 0.6264(6) 0.5287(4) 0.8797(3)
C17 C 0.5871(6) 0.4546(4) 0.9152(3)
H16 H 0.5162 0.4125 0.9009
C18 C 0.6567(6) 0.4445(4) 0.9732(3)
C19 C 0.7680(7) 0.5076(4) 0.9913(3)
H17 H 0.8161 0.5032 1.0297
C20 C 0.8040(6) 0.5763(4) 0.9506(3)
C21 C 0.9239(6) 0.6470(4) 0.9652(3)
Ho2A Ho 1.25858(3) 0.998822(17) 0.765886(14)
Ho2A_2 Ho 0.25858(3) 0.998822(17) 0.765886(14)
Ho2_2 Ho 0.24142(3) 0.498822(17) 0.734114(14)
O4A O 1.4342(4) 0.4832(3) 0.6610(2)
O7A O 1.0372(4) 0.4168(3) 0.7712(2)
O12_2 O 1.4549(4) 0.4988(3) 0.7975(2)
O20 O 0.7633(5) 0.7692(3) 0.3723(3)
H18 H 0.8424 0.7859 0.3919
H19 H 0.6831 0.7690 0.3930
O21 O 0.7574(6) 0.2375(4) 0.3707(3)
H20 H 0.7043 0.2774 0.3899
H21 H 0.8283 0.2134 0.3921
loop_
_geom_bond_atom_site_label_1
_geom_bond_atom_site_label_2
_geom_bond_site_symmetry_1
_geom_bond_site_symmetry_2
Ho1 O1 1_555 1_555
Ho2 O9 1_555 1_555
O1 C1 1_555 1_555
O2 C1 1_555 1_555
O3 H1 1_555 1_555
O4 C7 1_555 1_555
O5 Ho1 1_555 1_555
O6 Ho1 1_555 1_555
O7 C8 1_555 1_555
O8 H2 1_555 1_555
O9 C14 1_555 1_555
O10 Ho1 1_555 1_555
O11 Ho1 1_555 1_555
O12 C15 1_555 1_555
O13 H3 1_555 1_555
O14 C21 1_555 1_555
O15 Ho1 1_555 1_555
O16 Ho2 1_555 1_555
H4 O16 1_555 1_555
H5 O16 1_555 1_555
O17 Ho2 1_555 1_555
H6 O17 1_555 1_555
H7 O17 1_555 1_555
O18 Ho2 1_555 1_555
H8 O18 1_555 1_555
H9 O18 1_555 1_555
O19 Ho2 1_555 1_555
H10 O19 1_555 1_555
H11 O19 1_555 1_555
N1 Ho1 1_555 1_555
N2 Ho1 1_555 1_555
N3 Ho1 1_555 1_555
C1 C2 1_555 1_555
C2 N1 1_555 1_555
C3 C2 1_555 1_555
H12 C3 1_555 1_555
C4 O3 1_555 1_555
C5 C4 1_555 1_555
H13 C5 1_555 1_555
C6 N1 1_555 1_555
C7 O5 1_555 1_555
C8 O6 1_555 1_555
C9 N2 1_555 1_555
C10 C9 1_555 1_555
H14 C10 1_555 1_555
C11 O8 1_555 1_555
C12 C11 1_555 1_555
H15 C12 1_555 1_555
C13 N2 1_555 1_555
C14 O10 1_555 1_555
C15 O11 1_555 1_555
C16 N3 1_555 1_555
C17 C16 1_555 1_555
H16 C17 1_555 1_555
C18 O13 1_555 1_555
C19 C18 1_555 1_555
H17 C19 1_555 1_555
C20 N3 1_555 1_555
C21 O15 1_555 1_555
O20 H18 1_555 1_555
H19 O20 1_555 1_555
O21 H20 1_555 1_555
H21 O21 1_555 1_555
Ho2A O4 1_555 1_555
Ho2A_2 O7 1_555 1_555
Ho2_2 O12 1_555 1_555
O4A Ho2 1_555 1_555
O7A Ho2 1_555 1_555
O12_2 Ho2 1_555 1_555
C3 C4 1_555 1_555
C5 C6 1_555 1_555
C6 C7 1_555 1_555
C8 C9 1_555 1_555
C10 C11 1_555 1_555
C12 C13 1_555 1_555
C13 C14 1_555 1_555
C15 C16 1_555 1_555
C17 C18 1_555 1_555
C19 C20 1_555 1_555
C20 C21 1_555 1_555

#END
