
#######################################################################
#
#                 Cambridge Crystallographic Data Centre
#                                CCDC 
#
#######################################################################
#
# If this CIF has been generated from an entry in the Cambridge 
# Structural Database, then it will include bibliographic, chemical, 
# crystal, experimental, refinement or atomic coordinate data resulting 
# from the CCDC's data processing and validation procedures.
#
#######################################################################

data_AHAKEA
_symmetry_cell_setting           monoclinic
_symmetry_space_group_name_H-M   'C 2/c'
_symmetry_Int_Tables_number      15
_space_group_name_Hall           '-C 2yn'
loop_
_symmetry_equiv_pos_site_id
_symmetry_equiv_pos_as_xyz
1 x,y,z
2 -x,y,1/2-z
3 1/2+x,1/2+y,z
4 1/2-x,1/2+y,1/2-z
5 -x,-y,-z
6 x,-y,1/2+z
7 1/2-x,1/2-y,-z
8 1/2+x,1/2-y,1/2+z
_cell_length_a                   15.504(3)
_cell_length_b                   7.1025(14)
_cell_length_c                   19.435(4)
_cell_angle_alpha                90
_cell_angle_beta                 108.55(3)
_cell_angle_gamma                90
_cell_volume                     2028.94
loop_
_atom_site_label
_atom_site_type_symbol
_atom_site_fract_x
_atom_site_fract_y
_atom_site_fract_z
C1 C 0.4633(7) 0.2760(15) 0.4606(6)
C2 C 0.4184(8) 0.4139(16) 0.3480(6)
C3 C 0.3392(8) 0.4668(17) 0.2829(6)
C4 C 0.5538(8) 0.3063(16) 0.4690(6)
C5 C 0.5073(8) 0.4523(17) 0.3525(6)
H1 H 0.5197 0.5130 0.3143
C6 C 0.4322(7) 0.1926(15) 0.5198(6)
C7 C 0.5796(7) 0.4000(15) 0.4146(6)
Ce1 Ce 0.22811(4) 0.23009(9) 0.38269(3)
N1 N 0.3954(6) 0.3273(13) 0.4011(5)
O1 O 0.4902(5) 0.1286(12) 0.5748(4)
O2 O 0.3467(5) 0.1967(12) 0.5106(4)
O3 O 0.2467(6) 0.5719(12) 0.4272(5)
H2 H 0.2033 0.6496 0.4110
H3 H 0.2962 0.6075 0.4583
O4 O 0.2625(6) 0.4025(13) 0.2807(4)
O5 O 0.3228(6) -0.0560(13) 0.3642(5)
H4 H 0.3043 -0.1207 0.3254
H5 H 0.3721 -0.0850 0.3969
O6 O 0.3541(6) 0.5689(12) 0.2351(4)
O7 O 0.6646(5) 0.4388(12) 0.4218(5)
O8 O 0.0789(6) 0.4161(14) 0.3186(5)
H6 H 0.0447 0.3821 0.2770
H7 H 0.0645 0.5107 0.3395
H8 H 0.592(10) 0.264(17) 0.507(8)
Ce1F Ce 0.27189(4) 0.26991(9) 0.61731(3)
Ce1C Ce 0.27189(4) 0.73009(9) 0.11731(3)
Ce1B Ce 0.72811(4) 0.73009(9) 0.38269(3)
O2F O 0.1533(5) 0.3033(12) 0.4894(4)
O6C O 0.1459(6) 0.0689(12) 0.2649(4)
O7B O 0.1646(5) -0.0612(12) 0.4218(5)
loop_
_geom_bond_atom_site_label_1
_geom_bond_atom_site_label_2
_geom_bond_site_symmetry_1
_geom_bond_site_symmetry_2
C1 C4 1_555 1_555
C2 C3 1_555 1_555
C3 O4 1_555 1_555
C4 C7 1_555 1_555
C5 C2 1_555 1_555
H1 C5 1_555 1_555
C6 C1 1_555 1_555
C7 C5 1_555 1_555
Ce1 N1 1_555 1_555
N1 C1 1_555 1_555
O1 C6 1_555 1_555
O2 C6 1_555 1_555
O3 Ce1 1_555 1_555
H2 O3 1_555 1_555
H3 O3 1_555 1_555
O4 Ce1 1_555 1_555
O5 Ce1 1_555 1_555
H4 O5 1_555 1_555
H5 O5 1_555 1_555
O6 C3 1_555 1_555
O7 C7 1_555 1_555
O8 Ce1 1_555 1_555
H6 O8 1_555 1_555
H7 O8 1_555 1_555
H8 C4 1_555 1_555
Ce1F O2 1_555 1_555
Ce1C O6 1_555 1_555
Ce1B O7 1_555 1_555
O2F Ce1 1_555 1_555
O6C Ce1 1_555 1_555
O7B Ce1 1_555 1_555
C2 N1 1_555 1_555
Ce1 O2 1_555 1_555
Ce1F O2F 1_555 1_555

#END
