
#######################################################################
#
#                 Cambridge Crystallographic Data Centre
#                                CCDC 
#
#######################################################################
#
# If this CIF has been generated from an entry in the Cambridge 
# Structural Database, then it will include bibliographic, chemical, 
# crystal, experimental, refinement or atomic coordinate data resulting 
# from the CCDC's data processing and validation procedures.
#
#######################################################################

data_AHAKIE
_symmetry_cell_setting           monoclinic
_symmetry_space_group_name_H-M   'P 21/n'
_symmetry_Int_Tables_number      14
_space_group_name_Hall           '-P 2yn'
loop_
_symmetry_equiv_pos_site_id
_symmetry_equiv_pos_as_xyz
1 x,y,z
2 1/2-x,1/2+y,1/2-z
3 -x,-y,-z
4 1/2+x,1/2-y,1/2+z
_cell_length_a                   9.0947(18)
_cell_length_b                   14.635(3)
_cell_length_c                   21.957(4)
_cell_angle_alpha                90
_cell_angle_beta                 91.17(3)
_cell_angle_gamma                90
_cell_volume                     2921.89
loop_
_atom_site_label
_atom_site_type_symbol
_atom_site_fract_x
_atom_site_fract_y
_atom_site_fract_z
O1 O 0.4325(5) 0.5150(3) 0.1623(2)
O2 O 1.0330(5) 0.5798(3) 0.2697(2)
O3 O 0.4607(5) 0.9015(3) 0.2964(2)
O4 O 1.0461(5) 0.9980(3) 0.2023(2)
C1 C 0.5544(8) 0.8569(4) 0.2678(3)
C2 C 0.8049(8) 0.5489(5) -0.0044(3)
H1 H 0.8605 0.5495 -0.0395
O5 O 0.7225(7) 0.3990(3) -0.0269(2)
H2 H 0.6896 0.3546 -0.0089
C3 C 0.7168(9) 0.4735(5) 0.0097(3)
C4 C 0.6235(8) 0.4791(5) 0.0600(3)
H3 H 0.5607 0.4311 0.0692
Dy1 Dy 0.73769(4) 0.76163(2) 0.155087(15)
Dy2 Dy 1.24068(4) 0.49912(2) 0.234042(15)
C5 C 0.7976(8) 0.7479(5) 0.3932(3)
O6 O 0.9080(5) 0.6485(3) 0.1931(2)
O7 O 0.9216(5) 0.7536(3) 0.0771(2)
O8 O 0.9237(5) 0.8641(3) 0.2000(2)
O9 O 1.1364(5) 0.5611(3) 0.1426(2)
H4 H 1.1450 0.6177 0.1350
H5 H 1.0906 0.5265 0.1176
O10 O 0.8282(6) 0.7565(3) 0.4535(2)
H6 H 0.8949 0.7213 0.4632
C6 C 0.8747(7) 0.9718(4) 0.1219(3)
N1 N 0.7664(6) 0.9132(4) 0.1038(3)
O11 O 1.3132(5) 0.6570(3) 0.2488(2)
H7 H 1.4039 0.6708 0.2514
H8 H 1.2482 0.6985 0.2515
O12 O 0.5563(5) 0.7957(3) 0.0744(2)
O13 O 0.8843(7) 1.1247(4) -0.0105(2)
H9 H 0.9294 1.1655 0.0074
N2 N 0.7207(6) 0.6274(4) 0.0844(3)
O14 O 1.1747(5) 0.4404(3) 0.3317(2)
H10 H 1.1801 0.4746 0.3630
H11 H 1.1459 0.3854 0.3350
O15 O 0.5502(5) 0.6488(3) 0.1773(2)
C7 C 0.7000(8) 0.9254(5) 0.0492(3)
O16 O 0.9571(6) 0.7262(3) -0.0227(2)
N3 N 0.7467(6) 0.7431(3) 0.2677(2)
O17 O 1.3347(5) 0.3468(3) 0.2219(2)
H12 H 1.4270 0.3378 0.2225
H13 H 1.2759 0.3021 0.2171
C8 C 0.6875(8) 0.8028(5) 0.3662(3)
H14 H 0.6297 0.8411 0.3896
C9 C 0.9023(8) 0.7070(5) 0.0279(3)
C10 C 0.9367(8) 0.6342(5) 0.2491(3)
C11 C 0.8498(7) 0.6893(4) 0.2946(3)
C12 C 0.8067(7) 0.6224(5) 0.0352(3)
C13 C 0.6269(8) 0.5571(4) 0.0955(3)
C14 C 0.9543(8) 0.9427(5) 0.1800(3)
C15 C 0.8473(8) 1.0579(5) 0.0300(4)
C16 C 0.8792(7) 0.6888(4) 0.3557(3)
H15 H 0.9512 0.6506 0.3723
C17 C 0.5289(8) 0.5732(5) 0.1496(3)
O18 O 0.5680(5) 0.8542(3) 0.2106(2)
C18 C 0.6678(8) 0.7981(4) 0.3038(3)
C19 C 0.9155(8) 1.0446(5) 0.0862(3)
H16 H 0.9886 1.0845 0.0998
C20 C 0.7371(8) 0.9954(5) 0.0105(3)
H17 H 0.6910 1.0015 -0.0275
C21 C 0.5838(8) 0.8542(5) 0.0343(3)
O19 O 0.5250(7) 0.8583(4) -0.0182(2)
O1_2 O 1.4325(5) 0.5150(3) 0.1623(2)
O3A O 1.0393(5) 0.4015(3) 0.2036(2)
O4A O 1.4539(5) 0.4980(3) 0.2977(2)
Dy2_2 Dy 0.24068(4) 0.49912(2) 0.234042(15)
Dy2A Dy 0.25932(4) 0.99912(2) 0.265958(15)
Dy2A_2 Dy 1.25932(4) 0.99912(2) 0.265958(15)
O20 O 0.2533(12) 0.2414(7) 0.1212(4)
H18 H 0.2601 0.2820 0.0886
H19 H 0.1973 0.1900 0.1055
O21 O 0.2630(7) 0.2715(4) 0.3779(3)
H20 H 0.2267 0.2817 0.4126
H21 H 0.3545 0.2811 0.3834
loop_
_geom_bond_atom_site_label_1
_geom_bond_atom_site_label_2
_geom_bond_site_symmetry_1
_geom_bond_site_symmetry_2
O1 C17 1_555 1_555
O2 Dy2 1_555 1_555
O3 C1 1_555 1_555
O4 C14 1_555 1_555
C1 O18 1_555 1_555
C2 H1 1_555 1_555
O5 H2 1_555 1_555
C3 C2 1_555 1_555
C4 C3 1_555 1_555
H3 C4 1_555 1_555
Dy1 O6 1_555 1_555
Dy2 O9 1_555 1_555
C5 O10 1_555 1_555
O6 C10 1_555 1_555
O7 Dy1 1_555 1_555
O8 Dy1 1_555 1_555
O9 H4 1_555 1_555
H5 O9 1_555 1_555
O10 H6 1_555 1_555
C6 N1 1_555 1_555
N1 Dy1 1_555 1_555
O11 Dy2 1_555 1_555
H7 O11 1_555 1_555
H8 O11 1_555 1_555
O12 Dy1 1_555 1_555
O13 H9 1_555 1_555
N2 Dy1 1_555 1_555
O14 Dy2 1_555 1_555
H10 O14 1_555 1_555
H11 O14 1_555 1_555
O15 Dy1 1_555 1_555
C7 N1 1_555 1_555
O16 C9 1_555 1_555
N3 Dy1 1_555 1_555
O17 Dy2 1_555 1_555
H12 O17 1_555 1_555
H13 O17 1_555 1_555
C8 C5 1_555 1_555
H14 C8 1_555 1_555
C9 O7 1_555 1_555
C10 O2 1_555 1_555
C11 N3 1_555 1_555
C12 C2 1_555 1_555
C13 C4 1_555 1_555
C14 O8 1_555 1_555
C15 O13 1_555 1_555
C16 C5 1_555 1_555
H15 C16 1_555 1_555
C17 O15 1_555 1_555
O18 Dy1 1_555 1_555
C18 C1 1_555 1_555
C19 C6 1_555 1_555
H16 C19 1_555 1_555
C20 C7 1_555 1_555
H17 C20 1_555 1_555
C21 O12 1_555 1_555
O19 C21 1_555 1_555
O20 H18 1_555 1_555
H19 O20 1_555 1_555
O21 H20 1_555 1_555
H21 O21 1_555 1_555
O1_2 Dy2 1_555 1_555
O3A Dy2 1_555 1_555
O4A Dy2 1_555 1_555
Dy2_2 O1 1_555 1_555
Dy2A O3 1_555 1_555
Dy2A_2 O4 1_555 1_555
O5 C3 1_555 1_555
C6 C14 1_555 1_555
N2 C12 1_555 1_555
N2 C13 1_555 1_555
C7 C21 1_555 1_555
N3 C18 1_555 1_555
C8 C18 1_555 1_555
C9 C12 1_555 1_555
C10 C11 1_555 1_555
C11 C16 1_555 1_555
C13 C17 1_555 1_555
C15 C19 1_555 1_555
C15 C20 1_555 1_555

#END
