
#######################################################################
#
#                 Cambridge Crystallographic Data Centre
#                                CCDC 
#
#######################################################################
#
# If this CIF has been generated from an entry in the Cambridge 
# Structural Database, then it will include bibliographic, chemical, 
# crystal, experimental, refinement or atomic coordinate data resulting 
# from the CCDC's data processing and validation procedures.
#
#######################################################################

data_AHALAX
_symmetry_cell_setting           monoclinic
_symmetry_space_group_name_H-M   'P 21/n'
_symmetry_Int_Tables_number      14
_space_group_name_Hall           '-P 2yn'
loop_
_symmetry_equiv_pos_site_id
_symmetry_equiv_pos_as_xyz
1 x,y,z
2 1/2-x,1/2+y,1/2-z
3 -x,-y,-z
4 1/2+x,1/2-y,1/2+z
_cell_length_a                   9.6166(19)
_cell_length_b                   13.401(3)
_cell_length_c                   22.029(4)
_cell_angle_alpha                90
_cell_angle_beta                 92.76(3)
_cell_angle_gamma                90
_cell_volume                     2835.63
loop_
_atom_site_label
_atom_site_type_symbol
_atom_site_fract_x
_atom_site_fract_y
_atom_site_fract_z
Gd1 Gd 0.235407(18) 0.204810(13) 0.648601(8)
Gd2 Gd 0.732854(18) -0.060810(13) 0.723639(8)
O1 O 0.0331(3) 0.09753(19) 0.66710(11)
O2 O -0.0973(3) -0.03913(19) 0.64830(12)
O3 O 0.1322(3) -0.16775(19) 0.45522(11)
H1 H 0.0685 -0.2095 0.4611
O4 O 0.4445(3) 0.1348(2) 0.47549(12)
O5 O 0.3994(3) 0.18839(19) 0.56911(12)
O6 O 0.4307(3) 0.29362(19) 0.70465(12)
O7 O 0.5557(3) 0.4324(2) 0.72204(12)
O8 O 0.4590(3) 0.6284(2) 0.53127(13)
H2 H 0.4109 0.6425 0.4992
O9 O 0.0655(3) 0.3756(2) 0.48126(12)
O10 O 0.0891(3) 0.27404(19) 0.56220(12)
O11 O 0.0690(3) 0.30142(19) 0.70381(11)
O12 O -0.0451(3) 0.3235(2) 0.78905(12)
O13 O 0.3293(3) 0.20039(19) 0.94388(12)
H3 H 0.4016 0.1719 0.9582
O14 O 0.5428(3) 0.0282(2) 0.76123(12)
O15 O 0.3904(3) 0.07333(19) 0.68646(11)
O16 O 0.5980(3) -0.0215(2) 0.63111(12)
H4 H 0.5225 0.0028 0.6422
H5 H 0.5873 -0.0561 0.5993
O17 O 0.8242(3) -0.23015(19) 0.70941(12)
H6 H 0.9092 -0.2368 0.7191
H7 H 0.8023 -0.2506 0.6742
O18 O 0.6943(3) -0.1228(2) 0.82527(12)
H8 H 0.7181 -0.1819 0.8346
H9 H 0.6581 -0.0857 0.8513
O19 O 0.7970(3) 0.1103(2) 0.72776(13)
H10 H 0.8808 0.1276 0.7231
H11 H 0.7352 0.1542 0.7330
N1 N 0.1928(3) 0.0610(2) 0.57803(14)
N2 N 0.2963(3) 0.3776(2) 0.61015(14)
N3 N 0.2430(3) 0.1776(2) 0.75988(14)
C1 C 0.0017(4) 0.0189(3) 0.63840(16)
C2 C 0.0908(4) -0.0058(3) 0.58589(16)
C3 C 0.0656(4) -0.0863(3) 0.54737(16)
H12 H -0.0067 -0.1327 0.5544
C4 C 0.1494(4) -0.0970(3) 0.49809(17)
C5 C 0.2568(4) -0.0294(3) 0.49050(16)
H13 H 0.3172 -0.0368 0.4579
C6 C 0.2741(4) 0.0484(3) 0.53085(17)
C7 C 0.3824(4) 0.1296(3) 0.52352(17)
C8 C 0.4689(4) 0.3808(3) 0.69219(17)
C9 C 0.4048(4) 0.4277(3) 0.63545(17)
C10 C 0.4606(4) 0.5123(3) 0.61040(18)
H14 H 0.5367 0.5460 0.6304
C11 C 0.4022(4) 0.5477(3) 0.55464(17)
C12 C 0.2884(4) 0.4957(3) 0.52827(18)
H15 H 0.2452 0.5174 0.4909
C13 C 0.2398(4) 0.4124(3) 0.55752(17)
C14 C 0.1221(4) 0.3501(3) 0.53158(17)
C15 C 0.0529(4) 0.2913(3) 0.76055(17)
C16 C 0.1659(4) 0.2337(3) 0.79561(16)
C17 C 0.1898(4) 0.2421(3) 0.85764(16)
H16 H 0.1312 0.2817 0.8815
C18 C 0.3033(4) 0.1902(3) 0.88419(16)
C19 C 0.3840(4) 0.1300(3) 0.84775(16)
H17 H 0.4602 0.0927 0.8648
C20 C 0.3494(4) 0.1263(3) 0.78624(16)
C21 C 0.4341(4) 0.0706(3) 0.74126(16)
Gd2_2 Gd -0.267146(18) -0.060810(13) 0.723639(8)
Gd2A Gd -0.232854(18) 0.439190(13) 0.776361(8)
Gd2A_2 Gd 0.767146(18) 0.439190(13) 0.776361(8)
O2_2 O 0.9027(3) -0.03913(19) 0.64830(12)
O7A O 0.9443(3) -0.0676(2) 0.77796(12)
O12A O 0.5451(3) -0.1765(2) 0.71095(12)
O20 O 0.7355(4) 0.6959(3) 0.60272(16)
H18 H 0.6542 0.7140 0.5902
H19 H 0.7809 0.6754 0.5731
O21 O 0.6457(3) 0.2931(2) 0.57349(12)
H20 H 0.5746 0.2563 0.5738
H21 H 0.7199 0.2597 0.5705
loop_
_geom_bond_atom_site_label_1
_geom_bond_atom_site_label_2
_geom_bond_site_symmetry_1
_geom_bond_site_symmetry_2
Gd1 O1 1_555 1_555
Gd2 O14 1_555 1_555
O1 C1 1_555 1_555
O2 C1 1_555 1_555
O3 H1 1_555 1_555
O4 C7 1_555 1_555
O5 Gd1 1_555 1_555
O6 Gd1 1_555 1_555
O7 C8 1_555 1_555
O8 H2 1_555 1_555
O9 C14 1_555 1_555
O10 Gd1 1_555 1_555
O11 Gd1 1_555 1_555
O12 C15 1_555 1_555
O13 H3 1_555 1_555
O14 C21 1_555 1_555
O15 Gd1 1_555 1_555
O16 Gd2 1_555 1_555
H4 O16 1_555 1_555
H5 O16 1_555 1_555
O17 Gd2 1_555 1_555
H6 O17 1_555 1_555
H7 O17 1_555 1_555
O18 Gd2 1_555 1_555
H8 O18 1_555 1_555
H9 O18 1_555 1_555
O19 Gd2 1_555 1_555
H10 O19 1_555 1_555
H11 O19 1_555 1_555
N1 Gd1 1_555 1_555
N2 Gd1 1_555 1_555
N3 Gd1 1_555 1_555
C1 C2 1_555 1_555
C2 N1 1_555 1_555
C3 C2 1_555 1_555
H12 C3 1_555 1_555
C4 O3 1_555 1_555
C5 C4 1_555 1_555
H13 C5 1_555 1_555
C6 N1 1_555 1_555
C7 O5 1_555 1_555
C8 O6 1_555 1_555
C9 N2 1_555 1_555
C10 C9 1_555 1_555
H14 C10 1_555 1_555
C11 O8 1_555 1_555
C12 C11 1_555 1_555
H15 C12 1_555 1_555
C13 N2 1_555 1_555
C14 O10 1_555 1_555
C15 O11 1_555 1_555
C16 N3 1_555 1_555
C17 C16 1_555 1_555
H16 C17 1_555 1_555
C18 O13 1_555 1_555
C19 C18 1_555 1_555
H17 C19 1_555 1_555
C20 N3 1_555 1_555
C21 O15 1_555 1_555
O20 H18 1_555 1_555
H19 O20 1_555 1_555
O21 H20 1_555 1_555
H21 O21 1_555 1_555
Gd2_2 O2 1_555 1_555
Gd2A O12 1_555 1_555
Gd2A_2 O7 1_555 1_555
O2_2 Gd2 1_555 1_555
O7A Gd2 1_555 1_555
O12A Gd2 1_555 1_555
C3 C4 1_555 1_555
C5 C6 1_555 1_555
C6 C7 1_555 1_555
C8 C9 1_555 1_555
C10 C11 1_555 1_555
C12 C13 1_555 1_555
C13 C14 1_555 1_555
C15 C16 1_555 1_555
C17 C18 1_555 1_555
C19 C20 1_555 1_555
C20 C21 1_555 1_555

#END
