
#######################################################################
#
#                 Cambridge Crystallographic Data Centre
#                                CCDC 
#
#######################################################################
#
# If this CIF has been generated from an entry in the Cambridge 
# Structural Database, then it will include bibliographic, chemical, 
# crystal, experimental, refinement or atomic coordinate data resulting 
# from the CCDC's data processing and validation procedures.
#
#######################################################################

data_AHALEB01
_symmetry_cell_setting           monoclinic
_symmetry_space_group_name_H-M   'C 2/c'
_symmetry_Int_Tables_number      15
_space_group_name_Hall           '-C 2yn'
loop_
_symmetry_equiv_pos_site_id
_symmetry_equiv_pos_as_xyz
1 x,y,z
2 -x,y,1/2-z
3 1/2+x,1/2+y,z
4 1/2-x,1/2+y,1/2-z
5 -x,-y,-z
6 x,-y,1/2+z
7 1/2-x,1/2-y,-z
8 1/2+x,1/2-y,1/2+z
_cell_length_a                   15.4981(3)
_cell_length_b                   7.1075(2)
_cell_length_c                   19.4324(2)
_cell_angle_alpha                90
_cell_angle_beta                 108.4320(13)
_cell_angle_gamma                90
_cell_volume                     2030.72
loop_
_atom_site_label
_atom_site_type_symbol
_atom_site_fract_x
_atom_site_fract_y
_atom_site_fract_z
La1 La -0.271904(15) -0.76975(3) 0.382717(12)
O1 O -0.2531(2) -0.4279(5) 0.42713(19)
H1 H -0.276(4) -0.322(6) 0.411(3)
H2 H -0.229(4) -0.414(8) 0.4730(16)
O2 O -0.1766(2) -1.0566(5) 0.36475(19)
H3 H -0.121(2) -1.079(9) 0.385(3)
H4 H -0.193(4) -1.091(9) 0.3213(17)
O3 O -0.4214(2) -0.5826(6) 0.31850(19)
H5 H -0.440(4) -0.635(9) 0.277(2)
H6 H -0.445(4) -0.566(9) 0.353(3)
O4 O -0.2377(2) -0.5964(5) 0.28106(17)
O5 O -0.1465(2) -0.4312(5) 0.23540(17)
O6 O -0.1533(2) -0.8030(5) 0.51052(16)
O7 O -0.0097(2) -0.8712(5) 0.57473(16)
O8 O 0.1643(2) -0.5608(4) 0.42172(17)
N1 N -0.1046(2) -0.6721(5) 0.40111(19)
C1 C -0.0811(3) -0.5854(6) 0.3481(2)
C2 C 0.0075(3) -0.5467(6) 0.3520(2)
H7 H 0.0200 -0.4856 0.3139
C3 C 0.0793(3) -0.6007(6) 0.4146(2)
C4 C 0.0539(3) -0.6943(6) 0.4691(2)
H8 H 0.0981 -0.7365 0.5107
C5 C -0.0370(3) -0.7231(6) 0.4603(2)
C6 C -0.1608(3) -0.5327(6) 0.2827(2)
C7 C -0.0679(3) -0.8078(6) 0.5202(2)
La1C La -0.228096(15) -0.26975(3) 0.117283(12)
La1F La -0.228096(15) -0.73025(3) 0.617283(12)
La1B La 0.228096(15) -0.26975(3) 0.382717(12)
O5C O -0.3535(2) -0.9312(5) 0.26460(17)
O6F O -0.3467(2) -0.6970(5) 0.48948(16)
O8B O -0.3357(2) -1.0608(4) 0.42172(17)
loop_
_geom_bond_atom_site_label_1
_geom_bond_atom_site_label_2
_geom_bond_site_symmetry_1
_geom_bond_site_symmetry_2
La1 O1 1_555 1_555
O1 H1 1_555 1_555
H2 O1 1_555 1_555
O2 La1 1_555 1_555
H3 O2 1_555 1_555
H4 O2 1_555 1_555
O3 La1 1_555 1_555
H5 O3 1_555 1_555
H6 O3 1_555 1_555
O4 La1 1_555 1_555
O5 C6 1_555 1_555
O6 La1 1_555 1_555
O7 C7 1_555 1_555
O8 C3 1_555 1_555
N1 La1 1_555 1_555
C1 N1 1_555 1_555
C2 C1 1_555 1_555
H7 C2 1_555 1_555
C3 C2 1_555 1_555
C4 C3 1_555 1_555
H8 C4 1_555 1_555
C5 N1 1_555 1_555
C6 O4 1_555 1_555
C7 O6 1_555 1_555
La1C O5 1_555 1_555
La1F O6 1_555 1_555
La1B O8 1_555 1_555
O5C La1 1_555 1_555
O6F La1 1_555 1_555
O8B La1 1_555 1_555
C1 C6 1_555 1_555
C4 C5 1_555 1_555
C5 C7 1_555 1_555
La1F O6F 1_555 1_555

#END
