
#######################################################################
#
#                 Cambridge Crystallographic Data Centre
#                                CCDC 
#
#######################################################################
#
# If this CIF has been generated from an entry in the Cambridge 
# Structural Database, then it will include bibliographic, chemical, 
# crystal, experimental, refinement or atomic coordinate data resulting 
# from the CCDC's data processing and validation procedures.
#
#######################################################################

data_AHALAX01
_symmetry_cell_setting           monoclinic
_symmetry_space_group_name_H-M   'P 21/n'
_symmetry_Int_Tables_number      14
_space_group_name_Hall           '-P 2yn'
loop_
_symmetry_equiv_pos_site_id
_symmetry_equiv_pos_as_xyz
1 x,y,z
2 1/2-x,1/2+y,1/2-z
3 -x,-y,-z
4 1/2+x,1/2-y,1/2+z
_cell_length_a                   9.616(3)
_cell_length_b                   13.500(4)
_cell_length_c                   22.082(6)
_cell_angle_alpha                90
_cell_angle_beta                 92.583(3)
_cell_angle_gamma                90
_cell_volume                     2863.68
loop_
_atom_site_label
_atom_site_type_symbol
_atom_site_fract_x
_atom_site_fract_y
_atom_site_fract_z
Gd1 Gd 0.732369(16) 0.938743(12) 0.224497(7)
Gd2 Gd 1.235766(16) 1.204041(12) 0.148357(7)
O1 O 1.1315(3) 0.83323(19) -0.04371(11)
H1 H 1.0539 0.8086 -0.0416
O2 O 1.0424(3) 1.1260(2) 0.46829(14)
H2 H 1.0858 1.1413 0.4997
O3 O 0.3288(3) 1.2017(2) 0.44326(11)
H3 H 0.4037 1.1759 0.4530
O4 O 0.5994(3) 0.9776(2) 0.13166(12)
H4 H 0.578(4) 0.944(3) 0.0994(15)
H5 H 0.525(3) 1.002(3) 0.1445(19)
O5 O 0.6917(3) 0.8773(3) 0.32601(13)
H6 H 0.746(4) 0.856(4) 0.3521(18)
H7 H 0.610(3) 0.858(4) 0.332(2)
O6 O 0.8237(3) 0.7706(2) 0.20829(15)
H8 H 0.905(3) 0.767(4) 0.219(2)
H9 H 0.804(5) 0.747(4) 0.1737(15)
O7 O 0.7992(3) 1.1087(2) 0.23061(16)
H10 H 0.873(4) 1.119(4) 0.212(2)
H11 H 0.776(5) 1.159(3) 0.251(2)
O8 O 0.9034(3) 0.96139(19) 0.14971(12)
O9 O 1.0337(2) 1.09725(19) 0.16761(11)
O10 O 1.3999(3) 1.18664(19) 0.06874(12)
O11 O 1.4438(3) 1.1331(2) -0.02413(13)
O12 O 1.0680(3) 0.7924(2) 0.29657(13)
O13 O 0.9425(3) 0.9299(2) 0.27924(13)
O14 O 1.4376(3) 0.8760(2) 0.51700(13)
O15 O 1.4106(3) 0.77298(19) 0.43809(12)
O16 O 0.3912(3) 1.0743(2) 0.18698(12)
O17 O 0.5424(2) 1.0287(2) 0.26150(12)
O18 O 0.0694(3) 1.30097(18) 0.20364(11)
O19 O -0.0434(3) 1.3253(2) 0.28850(11)
N1 N 1.1925(3) 1.0608(2) 0.07844(14)
N2 N 1.2042(3) 0.8760(2) 0.39015(13)
N3 N 0.2445(3) 1.1783(2) 0.25981(13)
C1 C 1.0911(3) 0.9947(3) 0.08641(15)
C2 C 1.0658(3) 0.9152(3) 0.04821(16)
H12 H 0.9945 0.8708 0.0553
C3 C 1.1492(4) 0.9029(3) -0.00112(16)
C4 C 1.2559(4) 0.9703(3) -0.00877(16)
H13 H 1.3151 0.9630 -0.0406
C5 C 1.2732(3) 1.0474(3) 0.03099(16)
C6 C 1.0024(3) 1.0190(3) 0.13896(16)
C7 C 1.3830(4) 1.1283(3) 0.02345(16)
C8 C 1.0964(4) 0.9261(3) 0.36464(17)
C9 C 1.0422(4) 1.0106(3) 0.38975(18)
H14 H 0.9680 1.0436 0.3703
C10 C 1.0998(4) 1.0457(3) 0.44458(18)
C11 C 1.2140(4) 0.9945(3) 0.47080(18)
H15 H 1.2573 1.0164 0.5069
C12 C 1.2611(4) 0.9112(3) 0.44222(16)
C13 C 1.0308(4) 0.8801(3) 0.30880(17)
C14 C 1.3805(4) 0.8492(3) 0.46793(16)
C15 C 0.3502(3) 1.1272(3) 0.28607(16)
C16 C 0.3843(4) 1.1311(3) 0.34728(16)
H16 H 0.4589 1.0950 0.3639
C17 C 0.3032(4) 1.1912(3) 0.38395(16)
C18 C 0.1910(4) 1.2429(3) 0.35693(16)
H17 H 0.1342 1.2821 0.3800
C19 C 0.1667(4) 1.2344(3) 0.29564(16)
C20 C 0.4352(4) 1.0712(3) 0.24163(17)
C21 C 0.0549(4) 1.2913(3) 0.25987(16)
Gd1A Gd -0.232369(16) 1.438743(12) 0.275503(7)
Gd2A Gd 1.264234(16) 0.704041(12) 0.351643(7)
Gd2_2 Gd 0.235766(16) 1.204041(12) 0.148357(7)
O12A O 1.4320(3) 1.2924(2) 0.20343(13)
O15A O 1.0894(3) 1.27298(19) 0.06191(12)
O16_2 O 1.3912(3) 1.0743(2) 0.18698(12)
O18_2 O 1.0694(3) 1.30097(18) 0.20364(11)
O19A O 0.5434(3) 0.8253(2) 0.21150(11)
N2A N 1.2958(3) 1.3760(2) 0.10985(13)
N3_2 N 1.2445(3) 1.1783(2) 0.25981(13)
O20 O 1.3532(3) 1.7069(2) -0.07257(15)
H18 H 1.292(4) 1.743(3) -0.060(2)
H19 H 1.422(4) 1.742(3) -0.077(2)
O21 O 0.7328(6) 0.7027(5) 0.1005(2)
H20 H 0.788(8) 0.672(6) 0.078(3)
H21 H 0.670(7) 0.727(7) 0.077(3)
loop_
_geom_bond_atom_site_label_1
_geom_bond_atom_site_label_2
_geom_bond_site_symmetry_1
_geom_bond_site_symmetry_2
Gd1 O4 1_555 1_555
Gd2 O9 1_555 1_555
O1 H1 1_555 1_555
O2 H2 1_555 1_555
O3 H3 1_555 1_555
O4 H4 1_555 1_555
H5 O4 1_555 1_555
O5 Gd1 1_555 1_555
H6 O5 1_555 1_555
H7 O5 1_555 1_555
O6 Gd1 1_555 1_555
H8 O6 1_555 1_555
H9 O6 1_555 1_555
O7 Gd1 1_555 1_555
H10 O7 1_555 1_555
H11 O7 1_555 1_555
O8 Gd1 1_555 1_555
O9 C6 1_555 1_555
O10 Gd2 1_555 1_555
O11 C7 1_555 1_555
O12 C13 1_555 1_555
O13 Gd1 1_555 1_555
O14 C14 1_555 1_555
O15 C14 1_555 1_555
O16 C20 1_555 1_555
O17 Gd1 1_555 1_555
O18 C21 1_555 1_555
O19 C21 1_555 1_555
N1 Gd2 1_555 1_555
N2 C8 1_555 1_555
N3 C15 1_555 1_555
C1 N1 1_555 1_555
C2 C1 1_555 1_555
H12 C2 1_555 1_555
C3 O1 1_555 1_555
C4 C3 1_555 1_555
H13 C4 1_555 1_555
C5 N1 1_555 1_555
C6 O8 1_555 1_555
C7 O10 1_555 1_555
C8 C9 1_555 1_555
C9 H14 1_555 1_555
C10 O2 1_555 1_555
C11 C10 1_555 1_555
H15 C11 1_555 1_555
C12 N2 1_555 1_555
C13 O13 1_555 1_555
C14 C12 1_555 1_555
C15 C16 1_555 1_555
C16 H16 1_555 1_555
C17 O3 1_555 1_555
C18 C17 1_555 1_555
H17 C18 1_555 1_555
C19 N3 1_555 1_555
C20 O17 1_555 1_555
C21 C19 1_555 1_555
O20 H18 1_555 1_555
H19 O20 1_555 1_555
O21 H20 1_555 1_555
H21 O21 1_555 1_555
Gd1A O19 1_555 1_555
Gd2A O12 1_555 1_555
Gd2_2 O16 1_555 1_555
O12A Gd2 1_555 1_555
O15A Gd2 1_555 1_555
O16_2 Gd2 1_555 1_555
O18_2 Gd2 1_555 1_555
O19A Gd1 1_555 1_555
N2A Gd2 1_555 1_555
N3_2 Gd2 1_555 1_555
O15 Gd2A 1_555 1_555
O18 Gd2_2 1_555 1_555
N2 Gd2A 1_555 1_555
N3 Gd2_2 1_555 1_555
C1 C6 1_555 1_555
C2 C3 1_555 1_555
C4 C5 1_555 1_555
C5 C7 1_555 1_555
C8 C13 1_555 1_555
C9 C10 1_555 1_555
C11 C12 1_555 1_555
C15 C20 1_555 1_555
C16 C17 1_555 1_555
C18 C19 1_555 1_555

#END
