
#######################################################################
#
#                 Cambridge Crystallographic Data Centre
#                                CCDC 
#
#######################################################################
#
# If this CIF has been generated from an entry in the Cambridge 
# Structural Database, then it will include bibliographic, chemical, 
# crystal, experimental, refinement or atomic coordinate data resulting 
# from the CCDC's data processing and validation procedures.
#
#######################################################################

data_AHAMAZ
_symmetry_cell_setting           cubic
_symmetry_space_group_name_H-M   'P a -3'
_symmetry_Int_Tables_number      205
_space_group_name_Hall           '-P 2ac 2ab 3'
loop_
_symmetry_equiv_pos_site_id
_symmetry_equiv_pos_as_xyz
1 x,y,z
2 z,x,y
3 y,z,x
4 1/2-y,-z,1/2+x
5 1/2+z,1/2-x,-y
6 -y,1/2+z,1/2-x
7 1/2-z,-x,1/2+y
8 -z,1/2+x,1/2-y
9 1/2+y,1/2-z,-x
10 1/2-x,-y,1/2+z
11 1/2+x,1/2-y,-z
12 -x,1/2+y,1/2-z
13 -x,-y,-z
14 -z,-x,-y
15 -y,-z,-x
16 1/2+y,z,1/2-x
17 1/2-z,1/2+x,y
18 y,1/2-z,1/2+x
19 1/2+z,x,1/2-y
20 z,1/2-x,1/2+y
21 1/2-y,1/2+z,x
22 1/2+x,y,1/2-z
23 1/2-x,1/2+y,z
24 x,1/2-y,1/2+z
_cell_length_a                   20.6387(10)
_cell_length_b                   20.6387(10)
_cell_length_c                   20.6387(10)
_cell_angle_alpha                90
_cell_angle_beta                 90
_cell_angle_gamma                90
_cell_volume                     8791.18
loop_
_atom_site_label
_atom_site_type_symbol
_atom_site_fract_x
_atom_site_fract_y
_atom_site_fract_z
Cd1 Cd 0.60079(2) 0.44019(2) 0.27526(2)
K1 K 1.0000 0.5000 0.5000
O1 O 0.64380(10) 0.33756(9) 0.29596(11)
H1 H 0.6775 0.3406 0.3215
H2 H 0.6151 0.3127 0.3149
O2 O 0.53001(11) 0.42230(11) 0.36242(10)
H3 H 0.5306 0.3821 0.3727
H4 H 0.5420 0.4449 0.3950
N1 N 0.67530(11) 0.46351(11) 0.36038(11)
N2 N 0.72365(11) 0.43412(11) 0.45367(11)
N3 N 0.77276(18) 0.57601(18) 0.28027(16)
N4 N 0.87285(19) 0.5039(3) 0.4701(2)
N5 N 0.51286(11) 0.38879(11) 0.22222(11)
N6 N 0.39744(17) 0.49060(19) 0.29774(19)
N7 N 0.45595(10) 0.31402(11) 0.16573(11)
N8 N 0.28948(13) 0.34766(15) 0.19178(17)
C1 C 0.67237(14) 0.42871(14) 0.41497(13)
H5 H 0.6371 0.4026 0.4251
C2 C 0.73363(14) 0.49409(13) 0.36467(13)
C3 C 0.75540(17) 0.53917(16) 0.31748(15)
C4 C 0.76302(14) 0.47603(14) 0.42161(14)
C5 C 0.82438(18) 0.4930(2) 0.44730(18)
C6 C 0.51405(13) 0.33759(13) 0.18277(13)
H6 H 0.5526 0.3195 0.1681
C7 C 0.44821(14) 0.39962(14) 0.23118(14)
C8 C 0.42136(16) 0.45040(17) 0.26895(17)
C9 C 0.41345(13) 0.35400(14) 0.19695(14)
C10 C 0.34451(14) 0.34871(15) 0.19357(15)
Cd1C Cd 1.05981(2) 0.72474(2) 0.10079(2)
O1C O 1.16244(9) 0.70404(11) 0.14380(10)
H1C H 1.1594 0.6785 0.1775
H2C H 1.1873 0.6851 0.1151
O2C O 1.07770(11) 0.63758(10) 0.03001(11)
H3C H 1.1179 0.6273 0.0306
H4C H 1.0551 0.6050 0.0420
N1C N 1.03649(11) 0.63962(11) 0.17530(11)
N2C N 1.06588(11) 0.54633(11) 0.22365(11)
N3C N 0.92399(18) 0.71973(16) 0.27276(18)
N4C N 0.9961(3) 0.5299(2) 0.37285(19)
N5C N 1.11121(11) 0.77778(11) 0.01286(11)
N6C N 1.00940(19) 0.70226(19) -0.10256(17)
N7C N 1.18598(11) 0.83427(11) -0.04405(10)
N8C N 1.15234(15) 0.80822(17) -0.21052(13)
C1C C 1.07129(14) 0.58503(13) 0.17237(14)
H5C H 1.0974 0.5749 0.1371
C2C C 1.00591(13) 0.63533(13) 0.23363(14)
C3C C 0.96083(16) 0.68252(15) 0.25540(17)
C4C C 1.02397(14) 0.57839(14) 0.26302(14)
C5C C 1.0070(2) 0.55270(18) 0.32438(18)
C6C C 1.16241(13) 0.81723(13) 0.01405(13)
H6C H 1.1805 0.8319 0.0526
C7C C 1.10038(14) 0.76882(14) -0.05179(14)
C8C C 1.04960(17) 0.73105(17) -0.07864(16)
C9C C 1.14600(14) 0.80305(14) -0.08655(13)
C10C C 1.15129(15) 0.80643(15) -0.15549(14)
Cd1D Cd 0.77526(2) 0.89921(2) 0.55981(2)
O1D O 0.79596(11) 0.85620(10) 0.66244(9)
H1D H 0.8215 0.8225 0.6594
H2D H 0.8149 0.8849 0.6873
O2D O 0.86242(10) 0.96999(11) 0.57770(11)
H3D H 0.8727 0.9694 0.6179
H4D H 0.8950 0.9580 0.5551
N1D N 0.86038(11) 0.82470(11) 0.53649(11)
N2D N 0.95367(11) 0.77635(11) 0.56588(11)
N3D N 0.78027(16) 0.72724(18) 0.42399(18)
N4D N 0.9701(2) 0.62715(19) 0.4961(3)
N5D N 0.72222(11) 0.98714(11) 0.61121(11)
N6D N 0.79774(19) 1.10256(17) 0.50940(19)
N7D N 0.66573(11) 1.04405(10) 0.68598(11)
N8D N 0.69178(17) 1.21052(13) 0.65234(15)
C1D C 0.91497(13) 0.82763(14) 0.57129(14)
H5D H 0.9251 0.8629 0.5974
C2D C 0.86467(13) 0.76637(14) 0.50591(13)
C3D C 0.81748(15) 0.74460(17) 0.46083(16)
C4D C 0.92161(14) 0.73698(14) 0.52397(14)
C5D C 0.94730(18) 0.67562(18) 0.5070(2)
C6D C 0.68277(13) 0.98595(13) 0.66241(13)
H6D H 0.6681 0.9474 0.6805
C7D C 0.73118(14) 1.05179(14) 0.60038(14)
C8D C 0.76895(17) 1.07864(16) 0.54960(17)
C9D C 0.69695(14) 1.08655(13) 0.64600(14)
C10D C 0.69357(15) 1.15549(14) 0.65129(15)
Cd1L Cd 1.39921(2) 0.55981(2) 0.72474(2)
O1L O 1.35620(10) 0.66244(9) 0.70404(11)
H1L H 1.3225 0.6594 0.6785
H2L H 1.3849 0.6873 0.6851
O2L O 1.46999(11) 0.57770(11) 0.63758(10)
H3L H 1.4694 0.6179 0.6273
H4L H 1.4580 0.5551 0.6050
N1L N 1.32470(11) 0.53649(11) 0.63962(11)
N2L N 1.27635(11) 0.56588(11) 0.54633(11)
N3L N 1.22724(18) 0.42399(18) 0.71973(16)
N4L N 1.12715(19) 0.4961(3) 0.5299(2)
N5L N 1.48714(11) 0.61121(11) 0.77778(11)
N6L N 1.60256(17) 0.50940(19) 0.70226(19)
N7L N 1.54405(10) 0.68598(11) 0.83427(11)
N8L N 1.71052(13) 0.65234(15) 0.80822(17)
C1L C 1.32763(14) 0.57129(14) 0.58503(13)
H5L H 1.3629 0.5974 0.5749
C2L C 1.26637(14) 0.50591(13) 0.63533(13)
C3L C 1.24460(17) 0.46083(16) 0.68252(15)
C4L C 1.23698(14) 0.52397(14) 0.57839(14)
C5L C 1.17562(18) 0.5070(2) 0.55270(18)
C6L C 1.48595(13) 0.66241(13) 0.81723(13)
H6L H 1.4474 0.6805 0.8319
C7L C 1.55179(14) 0.60038(14) 0.76882(14)
C8L C 1.57864(16) 0.54960(17) 0.73105(17)
C9L C 1.58655(13) 0.64600(14) 0.80305(14)
C10L C 1.65549(14) 0.65129(15) 0.80643(15)
Cd1O Cd 0.94019(2) 0.27526(2) 0.89921(2)
O1O O 0.83756(9) 0.29596(11) 0.85620(10)
H1O H 0.8406 0.3215 0.8225
H2O H 0.8127 0.3149 0.8849
O2O O 0.92230(11) 0.36242(10) 0.96999(11)
H3O H 0.8821 0.3727 0.9694
H4O H 0.9449 0.3950 0.9580
N1O N 0.96351(11) 0.36038(11) 0.82470(11)
N2O N 0.93412(11) 0.45367(11) 0.77635(11)
N3O N 1.07601(18) 0.28027(16) 0.72724(18)
N4O N 1.0039(3) 0.4701(2) 0.62715(19)
N5O N 0.88879(11) 0.22222(11) 0.98714(11)
N6O N 0.99060(19) 0.29774(19) 1.10256(17)
N7O N 0.81402(11) 0.16573(11) 1.04405(10)
N8O N 0.84766(15) 0.19178(17) 1.21052(13)
C1O C 0.92871(14) 0.41497(13) 0.82763(14)
H5O H 0.9026 0.4251 0.8629
C2O C 0.99409(13) 0.36467(13) 0.76637(14)
C3O C 1.03917(16) 0.31748(15) 0.74460(17)
C4O C 0.97603(14) 0.42161(14) 0.73698(14)
C5O C 0.9930(2) 0.44730(18) 0.67562(18)
C6O C 0.83759(13) 0.18277(13) 0.98595(13)
H6O H 0.8195 0.1681 0.9474
C7O C 0.89962(14) 0.23118(14) 1.05179(14)
C8O C 0.95040(17) 0.26895(17) 1.07864(16)
C9O C 0.85400(14) 0.19695(14) 1.08655(13)
C10O C 0.84871(15) 0.19357(15) 1.15549(14)
Cd1P Cd 1.22474(2) 0.10079(2) 0.44019(2)
O1P O 1.20404(11) 0.14380(10) 0.33756(9)
H1P H 1.1785 0.1775 0.3406
H2P H 1.1851 0.1151 0.3127
O2P O 1.13758(10) 0.03001(11) 0.42230(11)
H3P H 1.1273 0.0306 0.3821
H4P H 1.1050 0.0420 0.4449
N1P N 1.13962(11) 0.17530(11) 0.46351(11)
N2P N 1.04633(11) 0.22365(11) 0.43412(11)
N3P N 1.21973(16) 0.27276(18) 0.57601(18)
N4P N 1.0299(2) 0.37285(19) 0.5039(3)
N5P N 1.27778(11) 0.01286(11) 0.38879(11)
N6P N 1.20226(19) -0.10256(17) 0.49060(19)
N7P N 1.33427(11) -0.04405(10) 0.31402(11)
N8P N 1.30822(17) -0.21052(13) 0.34766(15)
C1P C 1.08503(13) 0.17237(14) 0.42871(14)
H5P H 1.0749 0.1371 0.4026
C2P C 1.13533(13) 0.23363(14) 0.49409(13)
C3P C 1.18252(15) 0.25540(17) 0.53917(16)
C4P C 1.07839(14) 0.26302(14) 0.47603(14)
C5P C 1.05270(18) 0.32438(18) 0.4930(2)
C6P C 1.31723(13) 0.01405(13) 0.33759(13)
H6P H 1.3319 0.0526 0.3195
C7P C 1.26882(14) -0.05179(14) 0.39962(14)
C8P C 1.23105(17) -0.07864(16) 0.45040(17)
C9P C 1.30305(14) -0.08655(13) 0.35400(14)
C10P C 1.30643(15) -0.15549(14) 0.34871(15)
Cd1A Cd 1.27526(2) 0.60079(2) 0.44019(2)
Cd1E Cd 1.55981(2) 0.77526(2) 0.89921(2)
Cd1G Cd 0.72474(2) 0.10079(2) 1.05981(2)
Cd1H Cd 0.94019(2) 0.22474(2) 0.39921(2)
Cd1I Cd 0.89921(2) 0.55981(2) 0.77526(2)
Cd1K Cd 1.39921(2) -0.05981(2) 0.22474(2)
Cd1M Cd 0.72474(2) 0.39921(2) 0.55981(2)
Cd1Q Cd 0.44019(2) 0.22474(2) 0.10079(2)
Cd1S Cd 1.27526(2) 0.89921(2) -0.05981(2)
Cd1T Cd 1.05981(2) 0.77526(2) 0.60079(2)
Cd1U Cd 1.10079(2) 0.44019(2) 0.22474(2)
Cd1W Cd 0.60079(2) 1.05981(2) 0.77526(2)
N2B N 1.43412(11) 0.45367(11) 0.72365(11)
N2F N 1.04633(11) 0.27635(11) 0.93412(11)
N2J N 1.22365(11) 0.06588(11) 0.54633(11)
N2N N 0.56588(11) 0.54633(11) 0.27635(11)
N2R N 0.95367(11) 0.72365(11) 0.06588(11)
N2V N 0.77635(11) 0.93412(11) 0.45367(11)
N7B N 1.31402(11) 0.16573(11) 0.45595(10)
N7F N 1.33427(11) 0.54405(10) 0.81402(11)
N7J N 0.95595(10) 0.18598(11) 0.83427(11)
N7N N 0.68598(11) 0.83427(11) 0.54405(10)
N7R N 0.66573(11) 0.45595(10) 0.18598(11)
N7V N 1.04405(10) 0.81402(11) 0.16573(11)
Br1 Br 0.5000 0.5000 0.5000
loop_
_geom_bond_atom_site_label_1
_geom_bond_atom_site_label_2
_geom_bond_site_symmetry_1
_geom_bond_site_symmetry_2
Cd1 O1 1_555 1_555
K1 N4 1_555 1_555
O1 H1 1_555 1_555
H2 O1 1_555 1_555
O2 Cd1 1_555 1_555
H3 O2 1_555 1_555
H4 O2 1_555 1_555
N1 Cd1 1_555 1_555
N2 C1 1_555 1_555
N3 C3 1_555 1_555
N4 C5 1_555 1_555
N5 Cd1 1_555 1_555
N6 C8 1_555 1_555
N7 C6 1_555 1_555
N8 C10 1_555 1_555
C1 N1 1_555 1_555
H5 C1 1_555 1_555
C2 N1 1_555 1_555
C3 C2 1_555 1_555
C4 N2 1_555 1_555
C5 C4 1_555 1_555
C6 N5 1_555 1_555
H6 C6 1_555 1_555
C7 N5 1_555 1_555
C8 C7 1_555 1_555
C9 N7 1_555 1_555
C10 C9 1_555 1_555
Cd1C O1C 1_555 1_555
O1C H1C 1_555 1_555
H2C O1C 1_555 1_555
O2C Cd1C 1_555 1_555
H3C O2C 1_555 1_555
H4C O2C 1_555 1_555
N1C Cd1C 1_555 1_555
N2C C1C 1_555 1_555
N3C C3C 1_555 1_555
N4C K1 1_555 1_555
N5C Cd1C 1_555 1_555
N6C C8C 1_555 1_555
N7C C6C 1_555 1_555
N8C C10C 1_555 1_555
C1C N1C 1_555 1_555
H5C C1C 1_555 1_555
C2C N1C 1_555 1_555
C3C C2C 1_555 1_555
C4C N2C 1_555 1_555
C5C N4C 1_555 1_555
C6C N5C 1_555 1_555
H6C C6C 1_555 1_555
C7C N5C 1_555 1_555
C8C C7C 1_555 1_555
C9C N7C 1_555 1_555
C10C C9C 1_555 1_555
Cd1D O1D 1_555 1_555
O1D H1D 1_555 1_555
H2D O1D 1_555 1_555
O2D Cd1D 1_555 1_555
H3D O2D 1_555 1_555
H4D O2D 1_555 1_555
N1D Cd1D 1_555 1_555
N2D C1D 1_555 1_555
N3D C3D 1_555 1_555
N4D K1 1_555 1_555
N5D Cd1D 1_555 1_555
N6D C8D 1_555 1_555
N7D C6D 1_555 1_555
N8D C10D 1_555 1_555
C1D N1D 1_555 1_555
H5D C1D 1_555 1_555
C2D N1D 1_555 1_555
C3D C2D 1_555 1_555
C4D N2D 1_555 1_555
C5D N4D 1_555 1_555
C6D N5D 1_555 1_555
H6D C6D 1_555 1_555
C7D N5D 1_555 1_555
C8D C7D 1_555 1_555
C9D N7D 1_555 1_555
C10D C9D 1_555 1_555
Cd1L O1L 1_555 1_555
O1L H1L 1_555 1_555
H2L O1L 1_555 1_555
O2L Cd1L 1_555 1_555
H3L O2L 1_555 1_555
H4L O2L 1_555 1_555
N1L Cd1L 1_555 1_555
N2L C1L 1_555 1_555
N3L C3L 1_555 1_555
N4L K1 1_555 1_555
N5L Cd1L 1_555 1_555
N6L C8L 1_555 1_555
N7L C6L 1_555 1_555
N8L C10L 1_555 1_555
C1L N1L 1_555 1_555
H5L C1L 1_555 1_555
C2L N1L 1_555 1_555
C3L C2L 1_555 1_555
C4L N2L 1_555 1_555
C5L N4L 1_555 1_555
C6L N5L 1_555 1_555
H6L C6L 1_555 1_555
C7L N5L 1_555 1_555
C8L C7L 1_555 1_555
C9L N7L 1_555 1_555
C10L C9L 1_555 1_555
Cd1O O1O 1_555 1_555
O1O H1O 1_555 1_555
H2O O1O 1_555 1_555
O2O Cd1O 1_555 1_555
H3O O2O 1_555 1_555
H4O O2O 1_555 1_555
N1O Cd1O 1_555 1_555
N2O C1O 1_555 1_555
N3O C3O 1_555 1_555
N4O K1 1_555 1_555
N5O Cd1O 1_555 1_555
N6O C8O 1_555 1_555
N7O C6O 1_555 1_555
N8O C10O 1_555 1_555
C1O N1O 1_555 1_555
H5O C1O 1_555 1_555
C2O N1O 1_555 1_555
C3O C2O 1_555 1_555
C4O N2O 1_555 1_555
C5O N4O 1_555 1_555
C6O N5O 1_555 1_555
H6O C6O 1_555 1_555
C7O N5O 1_555 1_555
C8O C7O 1_555 1_555
C9O N7O 1_555 1_555
C10O C9O 1_555 1_555
Cd1P O1P 1_555 1_555
O1P H1P 1_555 1_555
H2P O1P 1_555 1_555
O2P Cd1P 1_555 1_555
H3P O2P 1_555 1_555
H4P O2P 1_555 1_555
N1P Cd1P 1_555 1_555
N2P C1P 1_555 1_555
N3P C3P 1_555 1_555
N4P K1 1_555 1_555
N5P Cd1P 1_555 1_555
N6P C8P 1_555 1_555
N7P C6P 1_555 1_555
N8P C10P 1_555 1_555
C1P N1P 1_555 1_555
H5P C1P 1_555 1_555
C2P N1P 1_555 1_555
C3P C2P 1_555 1_555
C4P N2P 1_555 1_555
C5P N4P 1_555 1_555
C6P N5P 1_555 1_555
H6P C6P 1_555 1_555
C7P N5P 1_555 1_555
C8P C7P 1_555 1_555
C9P N7P 1_555 1_555
C10P C9P 1_555 1_555
Cd1A N2L 1_555 1_555
Cd1E N7L 1_555 1_555
Cd1G N7O 1_555 1_555
Cd1H N2P 1_555 1_555
Cd1I N2O 1_555 1_555
Cd1K N7P 1_555 1_555
Cd1M N2 1_555 1_555
Cd1Q N7 1_555 1_555
Cd1S N7C 1_555 1_555
Cd1T N2D 1_555 1_555
Cd1U N2C 1_555 1_555
Cd1W N7D 1_555 1_555
N2B Cd1L 1_555 1_555
N2F Cd1O 1_555 1_555
N2J Cd1P 1_555 1_555
N2N Cd1 1_555 1_555
N2R Cd1C 1_555 1_555
N2V Cd1D 1_555 1_555
N7B Cd1P 1_555 1_555
N7F Cd1L 1_555 1_555
N7J Cd1O 1_555 1_555
N7N Cd1D 1_555 1_555
N7R Cd1 1_555 1_555
N7V Cd1C 1_555 1_555
C2 C4 1_555 1_555
C7 C9 1_555 1_555
C2C C4C 1_555 1_555
C4C C5C 1_555 1_555
C7C C9C 1_555 1_555
C2D C4D 1_555 1_555
C4D C5D 1_555 1_555
C7D C9D 1_555 1_555
C2L C4L 1_555 1_555
C4L C5L 1_555 1_555
C7L C9L 1_555 1_555
C2O C4O 1_555 1_555
C4O C5O 1_555 1_555
C7O C9O 1_555 1_555
C2P C4P 1_555 1_555
C4P C5P 1_555 1_555
C7P C9P 1_555 1_555

#END
