
#######################################################################
#
#                 Cambridge Crystallographic Data Centre
#                                CCDC 
#
#######################################################################
#
# If this CIF has been generated from an entry in the Cambridge 
# Structural Database, then it will include bibliographic, chemical, 
# crystal, experimental, refinement or atomic coordinate data resulting 
# from the CCDC's data processing and validation procedures.
#
#######################################################################

data_AHAMUS
_symmetry_cell_setting           orthorhombic
_symmetry_space_group_name_H-M   'P 21 21 21'
_symmetry_Int_Tables_number      19
_space_group_name_Hall           'P 2ac 2ab'
loop_
_symmetry_equiv_pos_site_id
_symmetry_equiv_pos_as_xyz
1 x,y,z
2 1/2-x,-y,1/2+z
3 1/2+x,1/2-y,-z
4 -x,1/2+y,1/2-z
_cell_length_a                   8.298(5)
_cell_length_b                   10.206(5)
_cell_length_c                   16.135(5)
_cell_angle_alpha                90
_cell_angle_beta                 90
_cell_angle_gamma                90
_cell_volume                     1366.46
loop_
_atom_site_label
_atom_site_type_symbol
_atom_site_fract_x
_atom_site_fract_y
_atom_site_fract_z
Cu1 Cu 0.35129(3) 0.55825(3) 1.004491(18)
S1 S 0.58887(7) 0.70928(6) 0.88002(4)
O1 O 0.7323(2) 0.77324(19) 0.91416(11)
O2 O 0.5248(2) 0.78803(19) 0.81002(10)
O3 O 0.4619(2) 0.70412(18) 0.94557(10)
O4 O 0.6251(2) 0.57690(17) 0.85090(12)
N1 N -0.0416(3) 0.5171(3) 0.85292(16)
C1 C 0.5784(3) 0.4111(3) 1.11954(17)
H1 H 0.5143 0.3365 1.1220
N2 N 0.7714(3) 0.5505(3) 1.13984(15)
N3 N 0.5444(3) 0.5220(2) 1.07341(13)
N4 N 0.1191(3) 0.3101(2) 1.16606(17)
N5 N 0.2305(3) 0.4207(2) 1.06609(13)
C2 C 0.1744(3) 0.4271(3) 1.14216(16)
H2 H 0.1734 0.5023 1.1747
C3 C 0.2105(4) 0.2926(3) 1.04123(19)
H3 H 0.2395 0.2587 0.9899
N6 N 0.1921(3) 0.5379(2) 0.91352(13)
C4 C 0.1420(4) 0.2244(3) 1.1036(2)
H4 H 0.1158 0.1358 1.1035
C5 C 0.0661(4) 0.4530(3) 0.80451(19)
H5 H 0.0447 0.4091 0.7552
C6 C 0.0368(3) 0.5653(3) 0.91799(17)
H6 H -0.0113 0.6121 0.9609
C7 C 0.7181(3) 0.4277(3) 1.16028(17)
H7 H 0.7684 0.3680 1.1953
C8 C 0.6658(3) 0.6028(3) 1.08781(18)
H8 H 0.6758 0.6857 1.0644
C9 C 0.2115(4) 0.4656(3) 0.84230(17)
H9 H 0.3082 0.4310 0.8232
H10 H 0.856(4) 0.594(3) 1.155(2)
H11 H -0.145(4) 0.526(3) 0.853(2)
H12 H 0.078(4) 0.297(3) 1.216(2)
Cu1B Cu 0.85129(3) 0.94175(3) 0.995509(18)
O1B O 0.2323(2) 0.72676(19) 1.08584(11)
loop_
_geom_bond_atom_site_label_1
_geom_bond_atom_site_label_2
_geom_bond_site_symmetry_1
_geom_bond_site_symmetry_2
Cu1 O3 1_555 1_555
S1 O1 1_555 1_555
O1 Cu1B 1_555 1_555
O2 S1 1_555 1_555
O3 S1 1_555 1_555
O4 S1 1_555 1_555
N1 C5 1_555 1_555
C1 H1 1_555 1_555
N2 C7 1_555 1_555
N3 Cu1 1_555 1_555
N4 C2 1_555 1_555
N5 Cu1 1_555 1_555
C2 N5 1_555 1_555
H2 C2 1_555 1_555
C3 N5 1_555 1_555
H3 C3 1_555 1_555
N6 Cu1 1_555 1_555
C4 N4 1_555 1_555
H4 C4 1_555 1_555
C5 H5 1_555 1_555
C6 N1 1_555 1_555
H6 C6 1_555 1_555
C7 C1 1_555 1_555
H7 C7 1_555 1_555
C8 N2 1_555 1_555
H8 C8 1_555 1_555
C9 N6 1_555 1_555
H9 C9 1_555 1_555
H10 N2 1_555 1_555
H11 N1 1_555 1_555
H12 N4 1_555 1_555
O1B Cu1 1_555 1_555
C1 N3 1_555 1_555
N3 C8 1_555 1_555
C3 C4 1_555 1_555
N6 C6 1_555 1_555
C5 C9 1_555 1_555

#END
