
#######################################################################
#
#                 Cambridge Crystallographic Data Centre
#                                CCDC 
#
#######################################################################
#
# If this CIF has been generated from an entry in the Cambridge 
# Structural Database, then it will include bibliographic, chemical, 
# crystal, experimental, refinement or atomic coordinate data resulting 
# from the CCDC's data processing and validation procedures.
#
#######################################################################

data_AHAMIH
_symmetry_cell_setting           cubic
_symmetry_space_group_name_H-M   'P a -3'
_symmetry_Int_Tables_number      205
_space_group_name_Hall           '-P 2ac 2ab 3'
loop_
_symmetry_equiv_pos_site_id
_symmetry_equiv_pos_as_xyz
1 x,y,z
2 z,x,y
3 y,z,x
4 1/2-y,-z,1/2+x
5 1/2+z,1/2-x,-y
6 -y,1/2+z,1/2-x
7 1/2-z,-x,1/2+y
8 -z,1/2+x,1/2-y
9 1/2+y,1/2-z,-x
10 1/2-x,-y,1/2+z
11 1/2+x,1/2-y,-z
12 -x,1/2+y,1/2-z
13 -x,-y,-z
14 -z,-x,-y
15 -y,-z,-x
16 1/2+y,z,1/2-x
17 1/2-z,1/2+x,y
18 y,1/2-z,1/2+x
19 1/2+z,x,1/2-y
20 z,1/2-x,1/2+y
21 1/2-y,1/2+z,x
22 1/2+x,y,1/2-z
23 1/2-x,1/2+y,z
24 x,1/2-y,1/2+z
_cell_length_a                   20.5540(9)
_cell_length_b                   20.5540(9)
_cell_length_c                   20.5540(9)
_cell_angle_alpha                90
_cell_angle_beta                 90
_cell_angle_gamma                90
_cell_volume                     8683.38
loop_
_atom_site_label
_atom_site_type_symbol
_atom_site_fract_x
_atom_site_fract_y
_atom_site_fract_z
Cd1 Cd 0.22496(2) 0.60382(2) 0.55856(2)
O1 O 0.20325(10) 0.64566(8) 0.66166(8)
N1 N 0.22752(9) 0.56808(9) 0.45264(9)
C1 C 0.26823(11) 0.44998(11) 0.59715(11)
N2 N 0.17822(9) 0.53390(9) 0.36071(9)
C2 C 0.17474(11) 0.56980(11) 0.41492(10)
H1 H 0.1381 0.5942 0.4255
N3 N 0.33108(9) 0.45699(8) 0.68556(9)
N4 N 0.27734(9) 0.51477(9) 0.60878(9)
N5 N 0.30559(14) 0.29023(11) 0.65152(13)
C3 C 0.33307(12) 0.51605(13) 0.44402(12)
C4 C 0.26881(10) 0.52753(11) 0.42033(11)
O2 O 0.13727(8) 0.53243(9) 0.57659(9)
C5 C 0.31520(11) 0.51564(10) 0.66171(11)
H2 H 0.3295 0.5542 0.6806
C6 C 0.30383(12) 0.34544(11) 0.64951(12)
C7 C 0.30094(11) 0.41471(10) 0.64408(11)
C8 C 0.23134(13) 0.42398(13) 0.54502(13)
C9 C 0.23861(10) 0.50642(11) 0.36429(10)
N6 N 0.20261(15) 0.40059(14) 0.50406(16)
N7 N 0.38416(12) 0.51085(15) 0.46417(14)
Na1 Na 0.5000 0.5000 0.5000
C10 C 0.26148(13) 0.46097(13) 0.31738(12)
N8 N 0.27858(15) 0.42394(15) 0.28018(13)
H3 H 0.195(2) 0.6853(6) 0.6687(11)
H4 H 0.205(2) 0.6247(11) 0.6965(7)
H5 H 0.1255(15) 0.5217(19) 0.6147(7)
H6 H 0.1060(12) 0.527(2) 0.5509(11)
Cd1A Cd 0.55856(2) 0.22496(2) 0.60382(2)
O1A O 0.66166(8) 0.20325(10) 0.64566(8)
N1A N 0.45264(9) 0.22752(9) 0.56808(9)
C1A C 0.59715(11) 0.26823(11) 0.44998(11)
N2A N 0.36071(9) 0.17822(9) 0.53390(9)
C2A C 0.41492(10) 0.17474(11) 0.56980(11)
H1A H 0.4255 0.1381 0.5942
N3A N 0.68556(9) 0.33108(9) 0.45699(8)
N4A N 0.60878(9) 0.27734(9) 0.51477(9)
N5A N 0.65152(13) 0.30559(14) 0.29023(11)
C3A C 0.44402(12) 0.33307(12) 0.51605(13)
C4A C 0.42033(11) 0.26881(10) 0.52753(11)
O2A O 0.57659(9) 0.13727(8) 0.53243(9)
C5A C 0.66171(11) 0.31520(11) 0.51564(10)
H2A H 0.6806 0.3295 0.5542
C6A C 0.64951(12) 0.30383(12) 0.34544(11)
C7A C 0.64408(11) 0.30094(11) 0.41471(10)
C8A C 0.54502(13) 0.23134(13) 0.42398(13)
C9A C 0.36429(10) 0.23861(10) 0.50642(11)
N6A N 0.50406(16) 0.20261(15) 0.40059(14)
N7A N 0.46417(14) 0.38416(12) 0.51085(15)
C10A C 0.31738(12) 0.26148(13) 0.46097(13)
N8A N 0.28018(13) 0.27858(15) 0.42394(15)
H3A H 0.6687(11) 0.195(2) 0.6853(6)
H4A H 0.6965(7) 0.205(2) 0.6247(11)
H5A H 0.6147(7) 0.1255(15) 0.5217(19)
H6A H 0.5509(11) 0.1060(12) 0.527(2)
Cd1B Cd 0.60382(2) 0.55856(2) 0.22496(2)
O1B O 0.64566(8) 0.66166(8) 0.20325(10)
N1B N 0.56808(9) 0.45264(9) 0.22752(9)
C1B C 0.44998(11) 0.59715(11) 0.26823(11)
N2B N 0.53390(9) 0.36071(9) 0.17822(9)
C2B C 0.56980(11) 0.41492(10) 0.17474(11)
H1B H 0.5942 0.4255 0.1381
N3B N 0.45699(8) 0.68556(9) 0.33108(9)
N4B N 0.51477(9) 0.60878(9) 0.27734(9)
N5B N 0.29023(11) 0.65152(13) 0.30559(14)
C3B C 0.51605(13) 0.44402(12) 0.33307(12)
C4B C 0.52753(11) 0.42033(11) 0.26881(10)
O2B O 0.53243(9) 0.57659(9) 0.13727(8)
C5B C 0.51564(10) 0.66171(11) 0.31520(11)
H2B H 0.5542 0.6806 0.3295
C6B C 0.34544(11) 0.64951(12) 0.30383(12)
C7B C 0.41471(10) 0.64408(11) 0.30094(11)
C8B C 0.42398(13) 0.54502(13) 0.23134(13)
C9B C 0.50642(11) 0.36429(10) 0.23861(10)
N6B N 0.40059(14) 0.50406(16) 0.20261(15)
N7B N 0.51085(15) 0.46417(14) 0.38416(12)
C10B C 0.46097(13) 0.31738(12) 0.26148(13)
N8B N 0.42394(15) 0.28018(13) 0.27858(15)
H3B H 0.6853(6) 0.6687(11) 0.195(2)
H4B H 0.6247(11) 0.6965(7) 0.205(2)
H5B H 0.5217(19) 0.6147(7) 0.1255(15)
H6B H 0.527(2) 0.5509(11) 0.1060(12)
Cd1L Cd 0.77504(2) 0.39618(2) 0.44144(2)
O1L O 0.79675(10) 0.35434(8) 0.33834(8)
N1L N 0.77248(9) 0.43192(9) 0.54736(9)
C1L C 0.73177(11) 0.55002(11) 0.40285(11)
N2L N 0.82178(9) 0.46610(9) 0.63929(9)
C2L C 0.82526(11) 0.43020(11) 0.58508(10)
H1L H 0.8619 0.4058 0.5745
N3L N 0.66892(9) 0.54301(8) 0.31444(9)
N4L N 0.72266(9) 0.48523(9) 0.39122(9)
N5L N 0.69441(14) 0.70977(11) 0.34848(13)
C3L C 0.66693(12) 0.48395(13) 0.55598(12)
C4L C 0.73119(10) 0.47247(11) 0.57967(11)
O2L O 0.86273(8) 0.46757(9) 0.42341(9)
C5L C 0.68480(11) 0.48436(10) 0.33829(11)
H2L H 0.6705 0.4458 0.3194
C6L C 0.69617(12) 0.65456(11) 0.35049(12)
C7L C 0.69906(11) 0.58529(10) 0.35592(11)
C8L C 0.76866(13) 0.57602(13) 0.45498(13)
C9L C 0.76139(10) 0.49358(11) 0.63571(10)
N6L N 0.79739(15) 0.59941(14) 0.49594(16)
N7L N 0.61584(12) 0.48915(15) 0.53583(14)
C10L C 0.73852(13) 0.53903(13) 0.68262(12)
N8L N 0.72142(15) 0.57606(15) 0.71982(13)
H3L H 0.805(2) 0.3147(6) 0.3313(11)
H4L H 0.795(2) 0.3753(11) 0.3035(7)
H5L H 0.8745(15) 0.4783(19) 0.3853(7)
H6L H 0.8940(12) 0.473(2) 0.4491(11)
Cd1M Cd 0.44144(2) 0.77504(2) 0.39618(2)
O1M O 0.33834(8) 0.79675(10) 0.35434(8)
N1M N 0.54736(9) 0.77248(9) 0.43192(9)
C1M C 0.40285(11) 0.73177(11) 0.55002(11)
N2M N 0.63929(9) 0.82178(9) 0.46610(9)
C2M C 0.58508(10) 0.82526(11) 0.43020(11)
H1M H 0.5745 0.8619 0.4058
N3M N 0.31444(9) 0.66892(9) 0.54301(8)
N4M N 0.39122(9) 0.72266(9) 0.48523(9)
N5M N 0.34848(13) 0.69441(14) 0.70977(11)
C3M C 0.55598(12) 0.66693(12) 0.48395(13)
C4M C 0.57967(11) 0.73119(10) 0.47247(11)
O2M O 0.42341(9) 0.86273(8) 0.46757(9)
C5M C 0.33829(11) 0.68480(11) 0.48436(10)
H2M H 0.3194 0.6705 0.4458
C6M C 0.35049(12) 0.69617(12) 0.65456(11)
C7M C 0.35592(11) 0.69906(11) 0.58529(10)
C8M C 0.45498(13) 0.76866(13) 0.57602(13)
C9M C 0.63571(10) 0.76139(10) 0.49358(11)
N6M N 0.49594(16) 0.79739(15) 0.59941(14)
N7M N 0.53583(14) 0.61584(12) 0.48915(15)
C10M C 0.68262(12) 0.73852(13) 0.53903(13)
N8M N 0.71982(13) 0.72142(15) 0.57606(15)
H3M H 0.3313(11) 0.805(2) 0.3147(6)
H4M H 0.3035(7) 0.795(2) 0.3753(11)
H5M H 0.3853(7) 0.8745(15) 0.4783(19)
H6M H 0.4491(11) 0.8940(12) 0.473(2)
Cd1N Cd 0.39618(2) 0.44144(2) 0.77504(2)
O1N O 0.35434(8) 0.33834(8) 0.79675(10)
N1N N 0.43192(9) 0.54736(9) 0.77248(9)
C1N C 0.55002(11) 0.40285(11) 0.73177(11)
N2N N 0.46610(9) 0.63929(9) 0.82178(9)
C2N C 0.43020(11) 0.58508(10) 0.82526(11)
H1N H 0.4058 0.5745 0.8619
N3N N 0.54301(8) 0.31444(9) 0.66892(9)
N4N N 0.48523(9) 0.39122(9) 0.72266(9)
N5N N 0.70977(11) 0.34848(13) 0.69441(14)
C3N C 0.48395(13) 0.55598(12) 0.66693(12)
C4N C 0.47247(11) 0.57967(11) 0.73119(10)
O2N O 0.46757(9) 0.42341(9) 0.86273(8)
C5N C 0.48436(10) 0.33829(11) 0.68480(11)
H2N H 0.4458 0.3194 0.6705
C6N C 0.65456(11) 0.35049(12) 0.69617(12)
C7N C 0.58529(10) 0.35592(11) 0.69906(11)
C8N C 0.57602(13) 0.45498(13) 0.76866(13)
C9N C 0.49358(11) 0.63571(10) 0.76139(10)
N6N N 0.59941(14) 0.49594(16) 0.79739(15)
N7N N 0.48915(15) 0.53583(14) 0.61584(12)
C10N C 0.53903(13) 0.68262(12) 0.73852(13)
N8N N 0.57606(15) 0.71982(13) 0.72142(15)
H3N H 0.3147(6) 0.3313(11) 0.805(2)
H4N H 0.3753(11) 0.3035(7) 0.795(2)
H5N H 0.4783(19) 0.3853(7) 0.8745(15)
H6N H 0.473(2) 0.4491(11) 0.8940(12)
Cd1C Cd 0.89618(2) 0.44144(2) 0.72496(2)
Cd1G Cd 0.44144(2) 0.72496(2) 0.89618(2)
Cd1J Cd 0.72496(2) 0.89618(2) 0.44144(2)
Cd1O Cd 0.10382(2) 0.55856(2) 0.27504(2)
Cd1S Cd 0.55856(2) 0.27504(2) 0.10382(2)
Cd1V Cd 0.27504(2) 0.10382(2) 0.55856(2)
N2D N 0.86071(9) 0.32178(9) 0.46610(9)
N2E N 0.46610(9) 0.86071(9) 0.32178(9)
N2I N 0.32178(9) 0.46610(9) 0.86071(9)
N2P N 0.13929(9) 0.67822(9) 0.53390(9)
N2Q N 0.53390(9) 0.13929(9) 0.67822(9)
N2U N 0.67822(9) 0.53390(9) 0.13929(9)
Br1 Br 0.0000 0.5000 0.5000
loop_
_geom_bond_atom_site_label_1
_geom_bond_atom_site_label_2
_geom_bond_site_symmetry_1
_geom_bond_site_symmetry_2
Cd1 O1 1_555 1_555
O1 H3 1_555 1_555
N1 Cd1 1_555 1_555
C1 N4 1_555 1_555
N2 C2 1_555 1_555
C2 N1 1_555 1_555
H1 C2 1_555 1_555
N3 C5 1_555 1_555
N4 Cd1 1_555 1_555
N5 C6 1_555 1_555
C3 C4 1_555 1_555
C4 N1 1_555 1_555
O2 Cd1 1_555 1_555
C5 N4 1_555 1_555
H2 C5 1_555 1_555
C6 C7 1_555 1_555
C7 C1 1_555 1_555
C8 C1 1_555 1_555
C9 N2 1_555 1_555
N6 C8 1_555 1_555
N7 C3 1_555 1_555
Na1 N7 1_555 1_555
C10 C9 1_555 1_555
N8 C10 1_555 1_555
H4 O1 1_555 1_555
H5 O2 1_555 1_555
H6 O2 1_555 1_555
Cd1A O1A 1_555 1_555
O1A H3A 1_555 1_555
N1A Cd1A 1_555 1_555
C1A N4A 1_555 1_555
N2A C2A 1_555 1_555
C2A N1A 1_555 1_555
H1A C2A 1_555 1_555
N3A C5A 1_555 1_555
N4A Cd1A 1_555 1_555
N5A C6A 1_555 1_555
C3A C4A 1_555 1_555
C4A N1A 1_555 1_555
O2A Cd1A 1_555 1_555
C5A N4A 1_555 1_555
H2A C5A 1_555 1_555
C6A C7A 1_555 1_555
C7A C1A 1_555 1_555
C8A C1A 1_555 1_555
C9A N2A 1_555 1_555
N6A C8A 1_555 1_555
N7A Na1 1_555 1_555
C10A C9A 1_555 1_555
N8A C10A 1_555 1_555
H4A O1A 1_555 1_555
H5A O2A 1_555 1_555
H6A O2A 1_555 1_555
Cd1B O1B 1_555 1_555
O1B H3B 1_555 1_555
N1B Cd1B 1_555 1_555
C1B N4B 1_555 1_555
N2B C2B 1_555 1_555
C2B N1B 1_555 1_555
H1B C2B 1_555 1_555
N3B C5B 1_555 1_555
N4B Cd1B 1_555 1_555
N5B C6B 1_555 1_555
C3B C4B 1_555 1_555
C4B N1B 1_555 1_555
O2B Cd1B 1_555 1_555
C5B N4B 1_555 1_555
H2B C5B 1_555 1_555
C6B C7B 1_555 1_555
C7B C1B 1_555 1_555
C8B C1B 1_555 1_555
C9B N2B 1_555 1_555
N6B C8B 1_555 1_555
N7B Na1 1_555 1_555
C10B C9B 1_555 1_555
N8B C10B 1_555 1_555
H4B O1B 1_555 1_555
H5B O2B 1_555 1_555
H6B O2B 1_555 1_555
Cd1L N3A 1_555 1_555
O1L Cd1L 1_555 1_555
N1L Cd1L 1_555 1_555
C1L N4L 1_555 1_555
N2L C2L 1_555 1_555
C2L N1L 1_555 1_555
H1L C2L 1_555 1_555
N3L Cd1B 1_555 1_555
N4L Cd1L 1_555 1_555
N5L C6L 1_555 1_555
C3L C4L 1_555 1_555
C4L N1L 1_555 1_555
O2L Cd1L 1_555 1_555
C5L N3L 1_555 1_555
H2L C5L 1_555 1_555
C6L C7L 1_555 1_555
C7L C1L 1_555 1_555
C8L C1L 1_555 1_555
C9L N2L 1_555 1_555
N6L C8L 1_555 1_555
N7L Na1 1_555 1_555
C10L C9L 1_555 1_555
N8L C10L 1_555 1_555
H3L O1L 1_555 1_555
H4L O1L 1_555 1_555
H5L O2L 1_555 1_555
H6L O2L 1_555 1_555
Cd1M N3B 1_555 1_555
O1M Cd1M 1_555 1_555
N1M Cd1M 1_555 1_555
C1M N4M 1_555 1_555
N2M C2M 1_555 1_555
C2M N1M 1_555 1_555
H1M C2M 1_555 1_555
N3M Cd1 1_555 1_555
N4M Cd1M 1_555 1_555
N5M C6M 1_555 1_555
C3M C4M 1_555 1_555
C4M N1M 1_555 1_555
O2M Cd1M 1_555 1_555
C5M N3M 1_555 1_555
H2M C5M 1_555 1_555
C6M C7M 1_555 1_555
C7M C1M 1_555 1_555
C8M C1M 1_555 1_555
C9M N2M 1_555 1_555
N6M C8M 1_555 1_555
N7M Na1 1_555 1_555
C10M C9M 1_555 1_555
N8M C10M 1_555 1_555
H3M O1M 1_555 1_555
H4M O1M 1_555 1_555
H5M O2M 1_555 1_555
H6M O2M 1_555 1_555
Cd1N N3 1_555 1_555
O1N Cd1N 1_555 1_555
N1N Cd1N 1_555 1_555
C1N N4N 1_555 1_555
N2N C2N 1_555 1_555
C2N N1N 1_555 1_555
H1N C2N 1_555 1_555
N3N Cd1A 1_555 1_555
N4N Cd1N 1_555 1_555
N5N C6N 1_555 1_555
C3N C4N 1_555 1_555
C4N N1N 1_555 1_555
O2N Cd1N 1_555 1_555
C5N N3N 1_555 1_555
H2N C5N 1_555 1_555
C6N C7N 1_555 1_555
C7N C1N 1_555 1_555
C8N C1N 1_555 1_555
C9N N2N 1_555 1_555
N6N C8N 1_555 1_555
N7N Na1 1_555 1_555
C10N C9N 1_555 1_555
N8N C10N 1_555 1_555
H3N O1N 1_555 1_555
H4N O1N 1_555 1_555
H5N O2N 1_555 1_555
H6N O2N 1_555 1_555
Cd1C N2L 1_555 1_555
Cd1G N2N 1_555 1_555
Cd1J N2M 1_555 1_555
Cd1O N2 1_555 1_555
Cd1S N2B 1_555 1_555
Cd1V N2A 1_555 1_555
N2D Cd1L 1_555 1_555
N2E Cd1M 1_555 1_555
N2I Cd1N 1_555 1_555
N2P Cd1 1_555 1_555
N2Q Cd1A 1_555 1_555
N2U Cd1B 1_555 1_555
N3 C7 1_555 1_555
C4 C9 1_555 1_555
N3A C7A 1_555 1_555
C3A N7A 1_555 1_555
C4A C9A 1_555 1_555
N3B C7B 1_555 1_555
C3B N7B 1_555 1_555
C4B C9B 1_555 1_555
N3L C7L 1_555 1_555
N4L C5L 1_555 1_555
C3L N7L 1_555 1_555
C4L C9L 1_555 1_555
N3M C7M 1_555 1_555
N4M C5M 1_555 1_555
C3M N7M 1_555 1_555
C4M C9M 1_555 1_555
N3N C7N 1_555 1_555
N4N C5N 1_555 1_555
C3N N7N 1_555 1_555
C4N C9N 1_555 1_555

#END
