
#######################################################################
#
#                 Cambridge Crystallographic Data Centre
#                                CCDC 
#
#######################################################################
#
# If this CIF has been generated from an entry in the Cambridge 
# Structural Database, then it will include bibliographic, chemical, 
# crystal, experimental, refinement or atomic coordinate data resulting 
# from the CCDC's data processing and validation procedures.
#
#######################################################################

data_AHAMIG
_symmetry_cell_setting           triclinic
_symmetry_space_group_name_H-M   'P -1'
_symmetry_Int_Tables_number      2
_space_group_name_Hall           '-P 1'
loop_
_symmetry_equiv_pos_site_id
_symmetry_equiv_pos_as_xyz
1 x,y,z
2 -x,-y,-z
_cell_length_a                   7.626(2)
_cell_length_b                   9.7896(12)
_cell_length_c                   10.4511(13)
_cell_angle_alpha                117.6930(10)
_cell_angle_beta                 98.439(2)
_cell_angle_gamma                91.948(2)
_cell_volume                     678.709
loop_
_atom_site_label
_atom_site_type_symbol
_atom_site_fract_x
_atom_site_fract_y
_atom_site_fract_z
Ag1 Ag 0.46327(2) 0.28118(2) -0.389556(18)
O1 O 1.3306(3) 0.9925(2) 0.5629(2)
O2 O 1.22844(19) 1.11259(18) 0.43594(17)
O3 O 1.2958(2) 0.6869(2) 0.55736(19)
O4 O 1.0778(2) 0.8145(2) 0.65730(16)
H1 H 0.9873 0.8445 0.6308
N1 N 0.6245(2) 0.5223(2) -0.23270(18)
N2 N 0.5864(2) 0.2886(2) -0.15908(19)
N3 N 1.0167(2) 0.8404(2) 0.23422(18)
N4 N 0.9670(2) 0.6049(2) 0.31269(18)
C1 C 0.6472(3) 0.6347(3) -0.2692(2)
H2 H 0.5922 0.6165 -0.3621
C2 C 0.7482(3) 0.7773(3) -0.1764(2)
H3 H 0.7578 0.8528 -0.2062
C3 C 0.8340(3) 0.8052(2) -0.0392(2)
H4 H 0.9028 0.8994 0.0249
C4 C 0.8153(2) 0.6878(2) 0.0019(2)
C5 C 0.7086(2) 0.5486(2) -0.0976(2)
C6 C 0.6867(2) 0.4230(2) -0.0587(2)
C7 C 0.7721(2) 0.4446(2) 0.0798(2)
C8 C 0.7498(3) 0.3226(3) 0.1134(2)
H5 H 0.8031 0.3336 0.2041
C9 C 0.6482(3) 0.1872(3) 0.0104(3)
H6 H 0.6324 0.1046 0.0301
C10 C 0.5686(3) 0.1744(3) -0.1245(2)
H7 H 0.4999 0.0818 -0.1936
C11 C 0.9069(2) 0.7079(2) 0.1437(2)
C12 C 0.8832(2) 0.5897(2) 0.1821(2)
C13 C 1.1011(3) 0.8536(2) 0.3607(2)
C14 C 1.0741(3) 0.7355(2) 0.4007(2)
C15 C 1.2307(3) 0.9981(3) 0.4618(2)
C16 C 1.1622(3) 0.7458(3) 0.5460(2)
Ag1_2 Ag 1.46327(2) 1.28118(2) 0.610444(18)
O2_2 O 0.22844(19) 0.11259(18) -0.56406(17)
loop_
_geom_bond_atom_site_label_1
_geom_bond_atom_site_label_2
_geom_bond_site_symmetry_1
_geom_bond_site_symmetry_2
Ag1 N1 1_555 1_555
O1 C15 1_555 1_555
O2 C15 1_555 1_555
O3 C16 1_555 1_555
O4 H1 1_555 1_555
N1 C1 1_555 1_555
N2 Ag1 1_555 1_555
N3 C11 1_555 1_555
N4 C12 1_555 1_555
C1 H2 1_555 1_555
C2 C1 1_555 1_555
H3 C2 1_555 1_555
C3 C2 1_555 1_555
H4 C3 1_555 1_555
C4 C3 1_555 1_555
C5 N1 1_555 1_555
C6 N2 1_555 1_555
C7 C6 1_555 1_555
C8 C7 1_555 1_555
H5 C8 1_555 1_555
C9 C8 1_555 1_555
H6 C9 1_555 1_555
C10 N2 1_555 1_555
H7 C10 1_555 1_555
C11 C4 1_555 1_555
C12 C7 1_555 1_555
C13 N3 1_555 1_555
C14 N4 1_555 1_555
C15 C13 1_555 1_555
C16 O4 1_555 1_555
Ag1_2 O2 1_555 1_555
O2_2 Ag1 1_555 1_555
C4 C5 1_555 1_555
C5 C6 1_555 1_555
C9 C10 1_555 1_555
C11 C12 1_555 1_555
C13 C14 1_555 1_555
C14 C16 1_555 1_555

#END
