
#######################################################################
#
#                 Cambridge Crystallographic Data Centre
#                                CCDC 
#
#######################################################################
#
# If this CIF has been generated from an entry in the Cambridge 
# Structural Database, then it will include bibliographic, chemical, 
# crystal, experimental, refinement or atomic coordinate data resulting 
# from the CCDC's data processing and validation procedures.
#
#######################################################################

data_AHAMOM
_symmetry_cell_setting           monoclinic
_symmetry_space_group_name_H-M   'C 2/c'
_symmetry_Int_Tables_number      15
_space_group_name_Hall           '-C 2yn'
loop_
_symmetry_equiv_pos_site_id
_symmetry_equiv_pos_as_xyz
1 x,y,z
2 -x,y,1/2-z
3 1/2+x,1/2+y,z
4 1/2-x,1/2+y,1/2-z
5 -x,-y,-z
6 x,-y,1/2+z
7 1/2-x,1/2-y,-z
8 1/2+x,1/2-y,1/2+z
_cell_length_a                   16.738(2)
_cell_length_b                   11.3262(16)
_cell_length_c                   23.247(3)
_cell_angle_alpha                90
_cell_angle_beta                 103.528(2)
_cell_angle_gamma                90
_cell_volume                     4284.85
loop_
_atom_site_label
_atom_site_type_symbol
_atom_site_fract_x
_atom_site_fract_y
_atom_site_fract_z
Ag1 Ag -0.364758(17) 0.90351(3) -0.702037(10)
O2 O -0.20361(14) 0.92714(19) -0.70000(9)
O4 O -0.07391(14) 0.8653(2) -0.68016(10)
O5 O -0.21651(16) 0.6774(2) -0.74516(9)
O8 O -0.29705(14) 0.5506(2) -0.71233(9)
H8 H -0.2982 0.5154 -0.7433
N1 N -0.40218(15) 0.9221(2) -0.79732(10)
N2 N -0.09893(15) 0.7298(2) -0.36576(10)
N3 N -0.18574(14) 0.5253(2) -0.39152(10)
N4 N -0.22690(13) 0.60467(18) -0.60020(9)
N5 N -0.13087(13) 0.80841(19) -0.57360(9)
C1 C -0.45209(17) 1.0100(3) -0.82215(12)
H9 H -0.4703 1.0629 -0.7974
C2 C -0.47781(17) 1.0260(3) -0.88211(11)
H10 H -0.5121 1.0889 -0.8971
C3 C -0.45247(15) 0.9478(2) -0.92041(11)
C4 C -0.40024(19) 0.8578(3) -0.89427(13)
H11 H -0.3810 0.8035 -0.9179
C5 C -0.3767(2) 0.8481(3) -0.83369(13)
H12 H -0.3414 0.7871 -0.8174
C6 C -0.47709(16) 0.9569(2) -0.98511(11)
H13 H -0.4593 0.8979 -1.0070
C7 C -0.0552(2) 0.8275(3) -0.35297(13)
H14 H -0.0362 0.8476 -0.3133
C8 C -0.0359(2) 0.9016(3) -0.39527(14)
H15 H -0.0041 0.9688 -0.3841
C9 C -0.06450(19) 0.8739(3) -0.45385(13)
H16 H -0.0530 0.9226 -0.4831
C10 C -0.11119(16) 0.7713(2) -0.46903(11)
C11 C -0.14587(15) 0.7382(2) -0.53035(11)
C12 C -0.19396(15) 0.6364(2) -0.54360(11)
C13 C -0.20807(16) 0.5610(2) -0.49608(11)
C14 C -0.25477(19) 0.4573(3) -0.50741(13)
H17 H -0.2778 0.4338 -0.5461
C15 C -0.2660(2) 0.3913(3) -0.46064(16)
H18 H -0.2970 0.3224 -0.4672
C16 C -0.2306(2) 0.4278(3) -0.40361(15)
H19 H -0.2387 0.3820 -0.3722
C17 C -0.17461(15) 0.5923(2) -0.43729(11)
C18 C -0.12654(15) 0.7006(2) -0.42351(11)
C19 C -0.21236(15) 0.6743(2) -0.64222(11)
C20 C -0.16428(15) 0.7773(2) -0.62910(10)
C21 C -0.14515(18) 0.8622(3) -0.67475(12)
C22 C -0.24362(17) 0.6340(2) -0.70579(12)
Ag1F Ag -0.135242(17) 0.59649(3) -0.297963(10)
Ag1D Ag -0.635242(17) 1.09649(3) -1.297963(10)
O2F O -0.29639(14) 0.57286(19) -0.30000(9)
O4F O -0.42609(14) 0.6347(2) -0.31984(10)
O5F O -0.28349(16) 0.8226(2) -0.25484(9)
O8F O -0.20295(14) 0.9494(2) -0.28767(9)
H8F H -0.2018 0.9846 -0.2567
N1D N -0.59782(15) 1.0779(2) -1.20268(10)
N1F N -0.09782(15) 0.5779(2) -0.20268(10)
N2F N -0.40107(15) 0.7702(2) -0.63424(10)
N3F N -0.31426(14) 0.9747(2) -0.60848(10)
N4F N -0.27310(13) 0.89533(18) -0.39980(9)
N5F N -0.36913(13) 0.69159(19) -0.42640(9)
C1D C -0.54791(17) 0.9900(3) -1.17785(12)
H9D H -0.5297 0.9371 -1.2026
C2D C -0.52219(17) 0.9740(3) -1.11789(11)
H10D H -0.4879 0.9111 -1.1029
C3D C -0.54753(15) 1.0522(2) -1.07959(11)
C4D C -0.59976(19) 1.1422(3) -1.10573(13)
H11D H -0.6190 1.1965 -1.0821
C5D C -0.6233(2) 1.1519(3) -1.16631(13)
H12D H -0.6586 1.2129 -1.1826
C6D C -0.52291(16) 1.0431(2) -1.01489(11)
H13D H -0.5407 1.1021 -0.9930
C7F C -0.4448(2) 0.6725(3) -0.64703(13)
H14F H -0.4638 0.6524 -0.6867
C8F C -0.4641(2) 0.5984(3) -0.60473(14)
H15F H -0.4959 0.5312 -0.6159
C9F C -0.43550(19) 0.6261(3) -0.54615(13)
H16F H -0.4470 0.5774 -0.5169
C10F C -0.38881(16) 0.7287(2) -0.53097(11)
C11F C -0.35413(15) 0.7618(2) -0.46965(11)
C12F C -0.30604(15) 0.8636(2) -0.45640(11)
C13F C -0.29193(16) 0.9390(2) -0.50392(11)
C14F C -0.24523(19) 1.0427(3) -0.49259(13)
H17F H -0.2222 1.0662 -0.4539
C15F C -0.2340(2) 1.1087(3) -0.53936(16)
H18F H -0.2030 1.1776 -0.5328
C16F C -0.2694(2) 1.0722(3) -0.59639(15)
H19F H -0.2613 1.1180 -0.6278
C17F C -0.32539(15) 0.9077(2) -0.56271(11)
C18F C -0.37346(15) 0.7994(2) -0.57649(11)
C19F C -0.28764(15) 0.8257(2) -0.35778(11)
C20F C -0.33572(15) 0.7227(2) -0.37090(10)
C21F C -0.35485(18) 0.6378(3) -0.32525(12)
C22F C -0.25638(17) 0.8660(2) -0.29421(12)
O1 O -0.06744(19) 0.2079(3) 0.56724(18)
H1 H -0.0859 0.1968 0.5972
H2 H -0.0172 0.1929 0.5749
O3 O 0.3281(2) 0.6592(3) 0.64681(17)
H3 H 0.3681 0.7016 0.6758
H4 H 0.2993 0.6015 0.6610
O6 O 0.0000 -0.0012(11) 0.2500
H5 H -0.017(3) -0.050(5) 0.276(2)
H5A H 0.017(3) -0.050(5) 0.224(2)
O7? O 0.0415(4) 0.2640(6) 0.7766(3)
H6? H 0.0111 0.2361 0.7989
H7? H 0.0687 0.2070 0.7632
loop_
_geom_bond_atom_site_label_1
_geom_bond_atom_site_label_2
_geom_bond_site_symmetry_1
_geom_bond_site_symmetry_2
Ag1 O2 1_555 1_555
O1 H1 1_555 1_555
H2 O1 1_555 1_555
O2 C21 1_555 1_555
O3 H3 1_555 1_555
H4 O3 1_555 1_555
O4 C21 1_555 1_555
O5 C22 1_555 1_555
O6 H5 1_555 1_555
O8 H8 1_555 1_555
N1 Ag1 1_555 1_555
N2 C7 1_555 1_555
N3 C16 1_555 1_555
N4 C12 1_555 1_555
N5 C11 1_555 1_555
C1 N1 1_555 1_555
H9 C1 1_555 1_555
C2 C1 1_555 1_555
H10 C2 1_555 1_555
C3 C2 1_555 1_555
C4 C3 1_555 1_555
H11 C4 1_555 1_555
C5 N1 1_555 1_555
H12 C5 1_555 1_555
C6 C3 1_555 1_555
H13 C6 1_555 1_555
C7 H14 1_555 1_555
C8 C7 1_555 1_555
H15 C8 1_555 1_555
C9 C8 1_555 1_555
H16 C9 1_555 1_555
C10 C9 1_555 1_555
C11 C10 1_555 1_555
C12 C11 1_555 1_555
C13 C12 1_555 1_555
C14 C13 1_555 1_555
H17 C14 1_555 1_555
C15 C14 1_555 1_555
H18 C15 1_555 1_555
C16 C15 1_555 1_555
H19 C16 1_555 1_555
C17 N3 1_555 1_555
C18 N2 1_555 1_555
C19 N4 1_555 1_555
C20 N5 1_555 1_555
C21 C20 1_555 1_555
C22 O8 1_555 1_555
Ag1F N2 1_555 1_555
Ag1D N1D 1_555 1_555
O2F Ag1F 1_555 1_555
O4F C21F 1_555 1_555
O5F C22F 1_555 1_555
H5A O6 1_555 1_555
O8F H8F 1_555 1_555
N1D C1D 1_555 1_555
N1F Ag1F 1_555 1_555
N2F Ag1 1_555 1_555
N3F Ag1 1_555 1_555
N4F C12F 1_555 1_555
N5F C11F 1_555 1_555
C1D H9D 1_555 1_555
C2D C1D 1_555 1_555
H10D C2D 1_555 1_555
C3D C2D 1_555 1_555
C4D C3D 1_555 1_555
H11D C4D 1_555 1_555
C5D N1D 1_555 1_555
H12D C5D 1_555 1_555
C6D C6 1_555 1_555
H13D C6D 1_555 1_555
C7F N2F 1_555 1_555
H14F C7F 1_555 1_555
C8F C7F 1_555 1_555
H15F C8F 1_555 1_555
C9F C8F 1_555 1_555
H16F C9F 1_555 1_555
C10F C9F 1_555 1_555
C11F C10F 1_555 1_555
C12F C11F 1_555 1_555
C13F C12F 1_555 1_555
C14F C13F 1_555 1_555
H17F C14F 1_555 1_555
C15F C14F 1_555 1_555
H18F C15F 1_555 1_555
C16F N3F 1_555 1_555
H19F C16F 1_555 1_555
C17F N3F 1_555 1_555
C18F N2F 1_555 1_555
C19F N4F 1_555 1_555
C20F N5F 1_555 1_555
C21F O2F 1_555 1_555
C22F O8F 1_555 1_555
N3 Ag1F 1_555 1_555
C4 C5 1_555 1_555
C10 C18 1_555 1_555
C13 C17 1_555 1_555
C17 C18 1_555 1_555
C19 C20 1_555 1_555
C19 C22 1_555 1_555
C3D C6D 1_555 1_555
C4D C5D 1_555 1_555
C10F C18F 1_555 1_555
C13F C17F 1_555 1_555
C15F C16F 1_555 1_555
C17F C18F 1_555 1_555
C19F C20F 1_555 1_555
C19F C22F 1_555 1_555
C20F C21F 1_555 1_555

#END
