
#######################################################################
#
#                 Cambridge Crystallographic Data Centre
#                                CCDC 
#
#######################################################################
#
# If this CIF has been generated from an entry in the Cambridge 
# Structural Database, then it will include bibliographic, chemical, 
# crystal, experimental, refinement or atomic coordinate data resulting 
# from the CCDC's data processing and validation procedures.
#
#######################################################################

data_AHAMUT
_symmetry_cell_setting           cubic
_symmetry_space_group_name_H-M   'P a -3'
_symmetry_Int_Tables_number      205
_space_group_name_Hall           '-P 2ac 2ab 3'
loop_
_symmetry_equiv_pos_site_id
_symmetry_equiv_pos_as_xyz
1 x,y,z
2 1/2-x,-y,1/2+z
3 -x,1/2+y,1/2-z
4 1/2+x,1/2-y,-z
5 z,x,y
6 1/2+z,1/2-x,-y
7 1/2-z,-x,1/2+y
8 -z,1/2+x,1/2-y
9 y,z,x
10 -y,1/2+z,1/2-x
11 1/2+y,1/2-z,-x
12 1/2-y,-z,1/2+x
13 -x,-y,-z
14 1/2+x,y,1/2-z
15 x,1/2-y,1/2+z
16 1/2-x,1/2+y,z
17 -z,-x,-y
18 1/2-z,1/2+x,y
19 1/2+z,x,1/2-y
20 z,1/2-x,1/2+y
21 -y,-z,-x
22 y,1/2-z,1/2+x
23 1/2-y,1/2+z,x
24 1/2+y,z,1/2-x
_cell_length_a                   20.6279(5)
_cell_length_b                   20.6279(5)
_cell_length_c                   20.6279(5)
_cell_angle_alpha                90
_cell_angle_beta                 90
_cell_angle_gamma                90
_cell_volume                     8777.38
loop_
_atom_site_label
_atom_site_type_symbol
_atom_site_fract_x
_atom_site_fract_y
_atom_site_fract_z
Cd1 Cd 0.226159(9) 0.395412(9) 0.941812(9)
N1 N 0.31548(11) 0.33166(11) 0.95767(11)
N2 N 0.22718(11) 0.43132(11) 1.04783(11)
C1 C 0.40447(14) 0.27054(14) 0.95096(14)
C2 C 0.17444(13) 0.42960(14) 1.08553(13)
H1 H 0.1380 0.4053 1.0749
O1 O 0.20630(11) 0.35311(10) 0.83826(9)
H2 H 0.1740 0.3263 0.8394
H3 H 0.1968 0.3843 0.8120
N3 N 0.17778(11) 0.46530(11) 1.13947(11)
C3 C 0.26871(13) 0.47185(13) 1.08042(13)
N4 N 0.34940(15) 0.30431(17) 0.79145(13)
N5 N 0.39287(11) 0.28005(11) 1.01556(11)
O2 O 0.14184(10) 0.46749(10) 0.91851(12)
H4 H 0.1302 0.4632 0.8786
H5 H 0.1090 0.4595 0.9431
C4 C 0.33278(15) 0.48311(15) 1.05733(15)
C5 C 0.33957(13) 0.31663(13) 1.01618(13)
H6 H 0.3204 0.3307 1.0545
C6 C 0.23808(14) 0.49283(13) 1.13624(13)
C7 C 0.35720(13) 0.30177(14) 0.91543(13)
C8 C 0.45667(17) 0.23367(17) 0.92556(15)
C9 C 0.26059(16) 0.53810(16) 1.18309(15)
C10 C 0.35150(15) 0.30382(15) 0.84659(14)
Na1 Na 0.5000 0.5000 1.0000
N6 N 0.38395(14) 0.48857(16) 1.03761(16)
N7 N 0.27715(18) 0.57515(17) 1.22045(16)
N8 N 0.49805(17) 0.20549(18) 0.90257(16)
Cd1F Cd 0.558188(9) 0.773841(9) 0.895412(9)
N1F N 0.54233(11) 0.68452(11) 0.83166(11)
N2F N 0.45217(11) 0.77282(11) 0.93132(11)
C1F C 0.54904(14) 0.59553(14) 0.77054(14)
C2F C 0.41447(13) 0.82556(13) 0.92960(14)
H1F H 0.4251 0.8620 0.9053
O1F O 0.66174(9) 0.79370(11) 0.85311(10)
H2F H 0.6606 0.8260 0.8263
H3F H 0.6880 0.8032 0.8843
N3F N 0.36053(11) 0.82222(11) 0.96530(11)
C3F C 0.41958(13) 0.73129(13) 0.97185(13)
N4F N 0.70855(13) 0.65060(15) 0.80431(17)
N5F N 0.48444(11) 0.60713(11) 0.78005(11)
O2F O 0.58149(12) 0.85816(10) 0.96749(10)
H4F H 0.6214 0.8698 0.9632
H5F H 0.5569 0.8910 0.9595
C4F C 0.44267(15) 0.66722(15) 0.98311(15)
C5F C 0.48382(13) 0.66043(13) 0.81663(13)
H6F H 0.4455 0.6796 0.8307
C6F C 0.36376(13) 0.76192(14) 0.99283(13)
C7F C 0.58457(13) 0.64280(13) 0.80177(14)
C8F C 0.57444(15) 0.54333(17) 0.73367(17)
C9F C 0.31691(15) 0.73941(16) 1.03810(16)
C10F C 0.65341(14) 0.64850(15) 0.80382(15)
N6F N 0.46239(16) 0.61605(14) 0.98857(16)
N7F N 0.27955(16) 0.72285(18) 1.07515(17)
N8F N 0.59743(16) 0.50195(17) 0.70549(18)
Cd1I Cd 0.604588(9) 0.441812(9) 1.273841(9)
N1I N 0.66834(11) 0.45767(11) 1.18452(11)
N2I N 0.56868(11) 0.54783(11) 1.27282(11)
C1I C 0.72946(14) 0.45096(14) 1.09553(14)
C2I C 0.57040(14) 0.58553(13) 1.32556(13)
H1I H 0.5947 0.5749 1.3620
O1I O 0.64689(10) 0.33826(9) 1.29370(11)
H2I H 0.6737 0.3394 1.3260
H3I H 0.6157 0.3120 1.3032
N3I N 0.53470(11) 0.63947(11) 1.32222(11)
C3I C 0.52815(13) 0.58042(13) 1.23129(13)
N4I N 0.69569(17) 0.29145(13) 1.15060(15)
N5I N 0.71995(11) 0.51556(11) 1.10713(11)
O2I O 0.53251(10) 0.41851(12) 1.35816(10)
H4I H 0.5368 0.3786 1.3698
H5I H 0.5405 0.4431 1.3910
C4I C 0.51689(15) 0.55733(15) 1.16722(15)
C5I C 0.68337(13) 0.51618(13) 1.16043(13)
H6I H 0.6693 0.5545 1.1796
C6I C 0.50717(13) 0.63624(13) 1.26192(14)
C7I C 0.69823(14) 0.41543(13) 1.14280(13)
C8I C 0.76633(17) 0.42556(15) 1.04333(17)
C9I C 0.46190(16) 0.68309(15) 1.23941(16)
C10I C 0.69618(15) 0.34659(14) 1.14850(15)
N6I N 0.51143(16) 0.53761(16) 1.11605(14)
N7I N 0.42485(17) 0.72045(16) 1.22285(18)
N8I N 0.79451(18) 0.40257(16) 1.00195(17)
Cd1L Cd 0.773841(9) 0.604588(9) 1.058188(9)
N1L N 0.68452(11) 0.66834(11) 1.04233(11)
N2L N 0.77282(11) 0.56868(11) 0.95217(11)
C1L C 0.59553(14) 0.72946(14) 1.04904(14)
C2L C 0.82556(13) 0.57040(14) 0.91447(13)
H1L H 0.8620 0.5947 0.9251
O1L O 0.79370(11) 0.64689(10) 1.16174(9)
H2L H 0.8260 0.6737 1.1606
H3L H 0.8032 0.6157 1.1880
N3L N 0.82222(11) 0.53470(11) 0.86053(11)
C3L C 0.73129(13) 0.52815(13) 0.91958(13)
N4L N 0.65060(15) 0.69569(17) 1.20855(13)
N5L N 0.60713(11) 0.71995(11) 0.98444(11)
O2L O 0.85816(10) 0.53251(10) 1.08149(12)
H4L H 0.8698 0.5368 1.1214
H5L H 0.8910 0.5405 1.0569
C4L C 0.66722(15) 0.51689(15) 0.94267(15)
C5L C 0.66043(13) 0.68337(13) 0.98382(13)
H6L H 0.6796 0.6693 0.9455
C6L C 0.76192(14) 0.50717(13) 0.86376(13)
C7L C 0.64280(13) 0.69823(14) 1.08457(13)
C8L C 0.54333(17) 0.76633(17) 1.07444(15)
C9L C 0.73941(16) 0.46190(16) 0.81691(15)
C10L C 0.64850(15) 0.69618(15) 1.15341(14)
N6L N 0.61605(14) 0.51143(16) 0.96239(16)
N7L N 0.72285(18) 0.42485(17) 0.77955(16)
N8L N 0.50195(17) 0.79451(18) 1.09743(16)
Cd1R Cd 0.441812(9) 0.226159(9) 1.104588(9)
N1R N 0.45767(11) 0.31548(11) 1.16834(11)
N2R N 0.54783(11) 0.22718(11) 1.06868(11)
C1R C 0.45096(14) 0.40447(14) 1.22946(14)
C2R C 0.58553(13) 0.17444(13) 1.07040(14)
H1R H 0.5749 0.1380 1.0947
O1R O 0.33826(9) 0.20630(11) 1.14689(10)
H2R H 0.3394 0.1740 1.1737
H3R H 0.3120 0.1968 1.1157
N3R N 0.63947(11) 0.17778(11) 1.03470(11)
C3R C 0.58042(13) 0.26871(13) 1.02815(13)
N4R N 0.29145(13) 0.34940(15) 1.19569(17)
N5R N 0.51556(11) 0.39287(11) 1.21995(11)
O2R O 0.41851(12) 0.14184(10) 1.03251(10)
H4R H 0.3786 0.1302 1.0368
H5R H 0.4431 0.1090 1.0405
C4R C 0.55733(15) 0.33278(15) 1.01689(15)
C5R C 0.51618(13) 0.33957(13) 1.18337(13)
H6R H 0.5545 0.3204 1.1693
C6R C 0.63624(13) 0.23808(14) 1.00717(13)
C7R C 0.41543(13) 0.35720(13) 1.19823(14)
C8R C 0.42556(15) 0.45667(17) 1.26633(17)
C9R C 0.68309(15) 0.26059(16) 0.96190(16)
C10R C 0.34659(14) 0.35150(15) 1.19618(15)
N6R N 0.53761(16) 0.38395(14) 1.01143(16)
N7R N 0.72045(16) 0.27715(18) 0.92485(17)
N8R N 0.40257(16) 0.49805(17) 1.29451(18)
Cd1U Cd 0.395412(9) 0.558188(9) 0.726159(9)
N1U N 0.33166(11) 0.54233(11) 0.81548(11)
N2U N 0.43132(11) 0.45217(11) 0.72718(11)
C1U C 0.27054(14) 0.54904(14) 0.90447(14)
C2U C 0.42960(14) 0.41447(13) 0.67444(13)
H1U H 0.4053 0.4251 0.6380
O1U O 0.35311(10) 0.66174(9) 0.70630(11)
H2U H 0.3263 0.6606 0.6740
H3U H 0.3843 0.6880 0.6968
N3U N 0.46530(11) 0.36053(11) 0.67778(11)
C3U C 0.47185(13) 0.41958(13) 0.76871(13)
N4U N 0.30431(17) 0.70855(13) 0.84940(15)
N5U N 0.28005(11) 0.48444(11) 0.89287(11)
O2U O 0.46749(10) 0.58149(12) 0.64184(10)
H4U H 0.4632 0.6214 0.6302
H5U H 0.4595 0.5569 0.6090
C4U C 0.48311(15) 0.44267(15) 0.83278(15)
C5U C 0.31663(13) 0.48382(13) 0.83957(13)
H6U H 0.3307 0.4455 0.8204
C6U C 0.49283(13) 0.36376(13) 0.73808(14)
C7U C 0.30177(14) 0.58457(13) 0.85720(13)
C8U C 0.23367(17) 0.57444(15) 0.95667(17)
C9U C 0.53810(16) 0.31691(15) 0.76059(16)
C10U C 0.30382(15) 0.65341(14) 0.85150(15)
N6U N 0.48857(16) 0.46239(16) 0.88395(14)
N7U N 0.57515(17) 0.27955(16) 0.77715(18)
N8U N 0.20549(18) 0.59743(16) 0.99805(17)
Cd1C Cd 0.726159(9) 0.104588(9) 1.058188(9)
Cd1E Cd 0.441812(9) 0.273841(9) 0.604588(9)
Cd1J Cd 0.895412(9) 0.558188(9) 0.773841(9)
Cd1O Cd 0.273841(9) 0.895412(9) 0.941812(9)
Cd1Q Cd 0.558188(9) 0.726159(9) 1.395412(9)
Cd1V Cd 0.104588(9) 0.441812(9) 1.226159(9)
N3A N 0.32222(11) 0.53470(11) 0.63947(11)
N3G N 0.86053(11) 0.67778(11) 1.03470(11)
N3H N 0.46530(11) 0.13947(11) 1.17778(11)
N3M N 0.67778(11) 0.46530(11) 1.36053(11)
N3S N 0.13947(11) 0.32222(11) 0.96530(11)
N3T N 0.53470(11) 0.86053(11) 0.82222(11)
I1 I 0.0000 0.5000 1.0000
loop_
_geom_bond_atom_site_label_1
_geom_bond_atom_site_label_2
_geom_bond_site_symmetry_1
_geom_bond_site_symmetry_2
Cd1 N1 1_555 1_555
N1 C5 1_555 1_555
N2 Cd1 1_555 1_555
C1 N5 1_555 1_555
C2 N2 1_555 1_555
H1 C2 1_555 1_555
O1 Cd1 1_555 1_555
H2 O1 1_555 1_555
H3 O1 1_555 1_555
N3 C2 1_555 1_555
C3 N2 1_555 1_555
N4 C10 1_555 1_555
N5 C5 1_555 1_555
O2 Cd1 1_555 1_555
H4 O2 1_555 1_555
H5 O2 1_555 1_555
C4 C3 1_555 1_555
C5 H6 1_555 1_555
C6 N3 1_555 1_555
C7 N1 1_555 1_555
C8 C1 1_555 1_555
C9 C6 1_555 1_555
C10 C7 1_555 1_555
Na1 N6 1_555 1_555
N6 C4 1_555 1_555
N7 C9 1_555 1_555
N8 C8 1_555 1_555
Cd1F N1F 1_555 1_555
N1F C5F 1_555 1_555
N2F Cd1F 1_555 1_555
C1F N5F 1_555 1_555
C2F N2F 1_555 1_555
H1F C2F 1_555 1_555
O1F Cd1F 1_555 1_555
H2F O1F 1_555 1_555
H3F O1F 1_555 1_555
N3F C2F 1_555 1_555
C3F N2F 1_555 1_555
N4F C10F 1_555 1_555
N5F C5F 1_555 1_555
O2F Cd1F 1_555 1_555
H4F O2F 1_555 1_555
H5F O2F 1_555 1_555
C4F C3F 1_555 1_555
C5F H6F 1_555 1_555
C6F N3F 1_555 1_555
C7F N1F 1_555 1_555
C8F C1F 1_555 1_555
C9F C6F 1_555 1_555
C10F C7F 1_555 1_555
N6F Na1 1_555 1_555
N7F C9F 1_555 1_555
N8F C8F 1_555 1_555
Cd1I N1I 1_555 1_555
N1I C5I 1_555 1_555
N2I Cd1I 1_555 1_555
C1I N5I 1_555 1_555
C2I N2I 1_555 1_555
H1I C2I 1_555 1_555
O1I Cd1I 1_555 1_555
H2I O1I 1_555 1_555
H3I O1I 1_555 1_555
N3I C2I 1_555 1_555
C3I N2I 1_555 1_555
N4I C10I 1_555 1_555
N5I C5I 1_555 1_555
O2I Cd1I 1_555 1_555
H4I O2I 1_555 1_555
H5I O2I 1_555 1_555
C4I C3I 1_555 1_555
C5I H6I 1_555 1_555
C6I N3I 1_555 1_555
C7I N1I 1_555 1_555
C8I C1I 1_555 1_555
C9I C6I 1_555 1_555
C10I C7I 1_555 1_555
N6I Na1 1_555 1_555
N7I C9I 1_555 1_555
N8I C8I 1_555 1_555
Cd1L N5I 1_555 1_555
N1L Cd1L 1_555 1_555
N2L Cd1L 1_555 1_555
C1L N5L 1_555 1_555
C2L N2L 1_555 1_555
H1L C2L 1_555 1_555
O1L Cd1L 1_555 1_555
H2L O1L 1_555 1_555
H3L O1L 1_555 1_555
N3L C2L 1_555 1_555
C3L N2L 1_555 1_555
N4L C10L 1_555 1_555
N5L Cd1F 1_555 1_555
O2L Cd1L 1_555 1_555
H4L O2L 1_555 1_555
H5L O2L 1_555 1_555
C4L C3L 1_555 1_555
C5L N1L 1_555 1_555
H6L C5L 1_555 1_555
C6L N3L 1_555 1_555
C7L N1L 1_555 1_555
C8L C1L 1_555 1_555
C9L C6L 1_555 1_555
C10L C7L 1_555 1_555
N6L Na1 1_555 1_555
N7L C9L 1_555 1_555
N8L C8L 1_555 1_555
Cd1R N5 1_555 1_555
N1R Cd1R 1_555 1_555
N2R Cd1R 1_555 1_555
C1R N5R 1_555 1_555
C2R N2R 1_555 1_555
H1R C2R 1_555 1_555
O1R Cd1R 1_555 1_555
H2R O1R 1_555 1_555
H3R O1R 1_555 1_555
N3R C2R 1_555 1_555
C3R N2R 1_555 1_555
N4R C10R 1_555 1_555
N5R Cd1I 1_555 1_555
O2R Cd1R 1_555 1_555
H4R O2R 1_555 1_555
H5R O2R 1_555 1_555
C4R C3R 1_555 1_555
C5R N1R 1_555 1_555
H6R C5R 1_555 1_555
C6R N3R 1_555 1_555
C7R N1R 1_555 1_555
C8R C1R 1_555 1_555
C9R C6R 1_555 1_555
C10R C7R 1_555 1_555
N6R Na1 1_555 1_555
N7R C9R 1_555 1_555
N8R C8R 1_555 1_555
Cd1U N5F 1_555 1_555
N1U Cd1U 1_555 1_555
N2U Cd1U 1_555 1_555
C1U N5U 1_555 1_555
C2U N2U 1_555 1_555
H1U C2U 1_555 1_555
O1U Cd1U 1_555 1_555
H2U O1U 1_555 1_555
H3U O1U 1_555 1_555
N3U C2U 1_555 1_555
C3U N2U 1_555 1_555
N4U C10U 1_555 1_555
N5U Cd1 1_555 1_555
O2U Cd1U 1_555 1_555
H4U O2U 1_555 1_555
H5U O2U 1_555 1_555
C4U C3U 1_555 1_555
C5U N1U 1_555 1_555
H6U C5U 1_555 1_555
C6U N3U 1_555 1_555
C7U N1U 1_555 1_555
C8U C1U 1_555 1_555
C9U C6U 1_555 1_555
C10U C7U 1_555 1_555
N6U Na1 1_555 1_555
N7U C9U 1_555 1_555
N8U C8U 1_555 1_555
Cd1C N3R 1_555 1_555
Cd1E N3U 1_555 1_555
Cd1J N3L 1_555 1_555
Cd1O N3F 1_555 1_555
Cd1Q N3I 1_555 1_555
Cd1V N3 1_555 1_555
N3A Cd1U 1_555 1_555
N3G Cd1L 1_555 1_555
N3H Cd1R 1_555 1_555
N3M Cd1I 1_555 1_555
N3S Cd1 1_555 1_555
N3T Cd1F 1_555 1_555
C1 C7 1_555 1_555
C3 C6 1_555 1_555
C1F C7F 1_555 1_555
C3F C6F 1_555 1_555
C4F N6F 1_555 1_555
C1I C7I 1_555 1_555
C3I C6I 1_555 1_555
C4I N6I 1_555 1_555
C1L C7L 1_555 1_555
C3L C6L 1_555 1_555
N5L C5L 1_555 1_555
C4L N6L 1_555 1_555
C1R C7R 1_555 1_555
C3R C6R 1_555 1_555
N5R C5R 1_555 1_555
C4R N6R 1_555 1_555
C1U C7U 1_555 1_555
C3U C6U 1_555 1_555
N5U C5U 1_555 1_555
C4U N6U 1_555 1_555

#END
