
#######################################################################
#
#                 Cambridge Crystallographic Data Centre
#                                CCDC 
#
#######################################################################
#
# If this CIF has been generated from an entry in the Cambridge 
# Structural Database, then it will include bibliographic, chemical, 
# crystal, experimental, refinement or atomic coordinate data resulting 
# from the CCDC's data processing and validation procedures.
#
#######################################################################

data_AHANUT
_symmetry_cell_setting           triclinic
_symmetry_space_group_name_H-M   'P -1'
_symmetry_Int_Tables_number      2
_space_group_name_Hall           '-P 1'
loop_
_symmetry_equiv_pos_site_id
_symmetry_equiv_pos_as_xyz
1 x,y,z
2 -x,-y,-z
_cell_length_a                   6.7056(4)
_cell_length_b                   11.1241(2)
_cell_length_c                   11.4224(3)
_cell_angle_alpha                117.9790(10)
_cell_angle_beta                 99.6420(10)
_cell_angle_gamma                95.8190(10)
_cell_volume                     725.803
loop_
_atom_site_label
_atom_site_type_symbol
_atom_site_fract_x
_atom_site_fract_y
_atom_site_fract_z
Pb1 Pb 0.706682(11) 0.370065(8) 0.399380(8)
N1 N 0.7896(3) 0.2404(2) 0.1511(2)
N2 N 0.7488(3) 0.10614(19) 0.3024(2)
N3 N 0.9250(3) 0.6097(2) 0.4939(2)
N4 N 0.8342(3) 0.7045(2) 0.5290(2)
N5 N 0.7456(3) 0.7943(2) 0.5609(2)
N6 N 0.6103(3) 0.4945(2) 0.6345(2)
N7 N 0.6253(3) 0.4569(2) 0.7174(2)
N8 N 0.6402(4) 0.4234(2) 0.7999(2)
C1 C 0.8063(3) 0.3025(2) 0.0772(3)
C2 C 0.7999(3) 0.2276(2) -0.0635(2)
H1 H 0.8111 0.2740 -0.1126
C3 C 0.7770(3) 0.0853(2) -0.1273(2)
H2 H 0.7730 0.0348 -0.2199
C4 C 0.7596(3) 0.0169(2) -0.0515(2)
C5 C 0.7379(3) -0.1310(2) -0.1136(2)
H3 H 0.7355 -0.1832 -0.2058
C6 C 0.7210(3) -0.1953(2) -0.0393(2)
H4 H 0.7061 -0.2914 -0.0810
C7 C 0.7256(3) -0.1170(2) 0.1026(2)
C8 C 0.7112(4) -0.1811(2) 0.1823(3)
H5 H 0.6963 -0.2771 0.1426
C9 C 0.7192(4) -0.1021(2) 0.3186(3)
H6 H 0.7125 -0.1436 0.3724
C10 C 0.7376(3) 0.0430(2) 0.3763(2)
C11 C 0.7468(3) 0.0296(2) 0.1677(2)
C12 C 0.7653(3) 0.0983(2) 0.0883(2)
C13 C 0.8283(4) 0.4576(2) 0.1462(3)
H7 H 0.9175 0.4993 0.2363
H8 H 0.6948 0.4804 0.1526
H9 H 0.8866 0.4921 0.0938
C14 C 0.7432(4) 0.1321(3) 0.5243(3)
H10 H 0.8607 0.2079 0.5666
H11 H 0.7536 0.0773 0.5689
H12 H 0.6189 0.1680 0.5325
Pb1A Pb 1.293318(11) 0.629935(8) 0.600620(8)
Pb1A_2 Pb 0.293318(11) 0.629935(8) 0.600620(8)
N3A N 1.0750(3) 0.3903(2) 0.5061(2)
N6A N 0.3897(3) 0.5055(2) 0.3655(2)
loop_
_geom_bond_atom_site_label_1
_geom_bond_atom_site_label_2
_geom_bond_site_symmetry_1
_geom_bond_site_symmetry_2
Pb1 N1 1_555 1_555
N1 C1 1_555 1_555
N2 Pb1 1_555 1_555
N3 Pb1 1_555 1_555
N4 N3 1_555 1_555
N5 N4 1_555 1_555
N6 Pb1 1_555 1_555
N7 N6 1_555 1_555
N8 N7 1_555 1_555
C1 C2 1_555 1_555
C2 H1 1_555 1_555
C3 C2 1_555 1_555
H2 C3 1_555 1_555
C4 C3 1_555 1_555
C5 C4 1_555 1_555
H3 C5 1_555 1_555
C6 C5 1_555 1_555
H4 C6 1_555 1_555
C7 C6 1_555 1_555
C8 C7 1_555 1_555
H5 C8 1_555 1_555
C9 C8 1_555 1_555
H6 C9 1_555 1_555
C10 N2 1_555 1_555
C11 N2 1_555 1_555
C12 N1 1_555 1_555
C13 C1 1_555 1_555
H7 C13 1_555 1_555
H8 C13 1_555 1_555
H9 C13 1_555 1_555
C14 C10 1_555 1_555
H10 C14 1_555 1_555
H11 C14 1_555 1_555
H12 C14 1_555 1_555
Pb1A N3 1_555 1_555
Pb1A_2 N6 1_555 1_555
N3A Pb1 1_555 1_555
N6A Pb1 1_555 1_555
C4 C12 1_555 1_555
C7 C11 1_555 1_555
C9 C10 1_555 1_555
C11 C12 1_555 1_555
Pb1A N3A 1_555 1_555
Pb1A_2 N6A 1_555 1_555

#END
