
#######################################################################
#
#                 Cambridge Crystallographic Data Centre
#                                CCDC 
#
#######################################################################
#
# If this CIF has been generated from an entry in the Cambridge 
# Structural Database, then it will include bibliographic, chemical, 
# crystal, experimental, refinement or atomic coordinate data resulting 
# from the CCDC's data processing and validation procedures.
#
#######################################################################

data_AHANAZ
_symmetry_cell_setting           monoclinic
_symmetry_space_group_name_H-M   'C 2/c'
_symmetry_Int_Tables_number      15
_space_group_name_Hall           '-C 2yn'
loop_
_symmetry_equiv_pos_site_id
_symmetry_equiv_pos_as_xyz
1 x,y,z
2 -x,y,1/2-z
3 1/2+x,1/2+y,z
4 1/2-x,1/2+y,1/2-z
5 -x,-y,-z
6 x,-y,1/2+z
7 1/2-x,1/2-y,-z
8 1/2+x,1/2-y,1/2+z
_cell_length_a                   11.705(2)
_cell_length_b                   11.942(2)
_cell_length_c                   6.7067(13)
_cell_angle_alpha                90
_cell_angle_beta                 114.33(3)
_cell_angle_gamma                90
_cell_volume                     854.211
loop_
_atom_site_label
_atom_site_type_symbol
_atom_site_fract_x
_atom_site_fract_y
_atom_site_fract_z
Na1 Na 0.5000 0.5000 0.0000
O1 O 0.35838(10) 0.41934(9) 0.1366(2)
H1 H 0.2796 0.4222 0.0362
H2 H 0.3704 0.3505 0.1502
C1 C 0.5000 0.90246(17) 0.2500
N1 N 0.39681(13) 1.08764(11) 0.1866(2)
N2 N 0.5000 0.66809(16) 0.2500
C2 C 0.39701(16) 0.72714(13) 0.2164(3)
H3 H 0.3239 0.6881 0.1933
N3 N 0.43880(13) 1.19318(11) 0.2126(2)
C3 C 0.5000 1.02508(17) 0.2500
C4 C 0.39225(14) 0.84220(13) 0.2139(3)
H4 H 0.3175 0.8791 0.1883
Na1A Na 0.5000 0.5000 0.5000
O1A O 0.64162(10) 0.41934(9) 0.3634(2)
O1D O 0.64162(10) 0.58066(9) -0.1366(2)
O1E O 0.35838(10) 0.58066(9) -0.3634(2)
H1A H 0.7204 0.4222 0.4638
H1D H 0.7204 0.5778 -0.0362
H1E H 0.2796 0.5778 -0.4638
H2A H 0.6296 0.3505 0.3498
H2D H 0.6296 0.6495 -0.1502
H2E H 0.3704 0.6495 -0.3498
N1A N 0.60319(13) 1.08764(11) 0.3134(2)
N2D N 0.5000 0.33191(16) -0.2500
C2A C 0.60299(16) 0.72714(13) 0.2836(3)
H3A H 0.6761 0.6881 0.3067
N3A N 0.56120(13) 1.19318(11) 0.2874(2)
C4A C 0.60775(14) 0.84220(13) 0.2861(3)
H4A H 0.6825 0.8791 0.3117
loop_
_geom_bond_atom_site_label_1
_geom_bond_atom_site_label_2
_geom_bond_site_symmetry_1
_geom_bond_site_symmetry_2
Na1 O1 1_555 1_555
O1 H1 1_555 1_555
H2 O1 1_555 1_555
C1 C3 1_555 1_555
N1 N3 1_555 1_555
N2 Na1 1_555 1_555
C2 N2 1_555 1_555
H3 C2 1_555 1_555
N3 N3A 1_555 1_555
C3 N1 1_555 1_555
C4 C1 1_555 1_555
H4 C4 1_555 1_555
Na1A O1 1_555 1_555
O1A Na1 1_555 1_555
O1D Na1 1_555 1_555
O1E Na1 1_555 1_555
H1A O1A 1_555 1_555
H1D O1D 1_555 1_555
H1E O1E 1_555 1_555
H2A O1A 1_555 1_555
H2D O1D 1_555 1_555
H2E O1E 1_555 1_555
N1A C3 1_555 1_555
N2D Na1 1_555 1_555
C2A N2 1_555 1_555
H3A C2A 1_555 1_555
N3A N1A 1_555 1_555
C4A C1 1_555 1_555
H4A C4A 1_555 1_555
N2 Na1A 1_555 1_555
C2 C4 1_555 1_555
Na1A O1A 1_555 1_555
C2A C4A 1_555 1_555

#END
