
#######################################################################
#
#                 Cambridge Crystallographic Data Centre
#                                CCDC 
#
#######################################################################
#
# If this CIF has been generated from an entry in the Cambridge 
# Structural Database, then it will include bibliographic, chemical, 
# crystal, experimental, refinement or atomic coordinate data resulting 
# from the CCDC's data processing and validation procedures.
#
#######################################################################

data_AHANII
_symmetry_cell_setting           cubic
_symmetry_space_group_name_H-M   'P a -3'
_symmetry_Int_Tables_number      205
_space_group_name_Hall           '-P 2ac 2ab 3'
loop_
_symmetry_equiv_pos_site_id
_symmetry_equiv_pos_as_xyz
1 x,y,z
2 1/2-x,-y,1/2+z
3 -x,1/2+y,1/2-z
4 1/2+x,1/2-y,-z
5 z,x,y
6 1/2+z,1/2-x,-y
7 1/2-z,-x,1/2+y
8 -z,1/2+x,1/2-y
9 y,z,x
10 -y,1/2+z,1/2-x
11 1/2+y,1/2-z,-x
12 1/2-y,-z,1/2+x
13 -x,-y,-z
14 1/2+x,y,1/2-z
15 x,1/2-y,1/2+z
16 1/2-x,1/2+y,z
17 -z,-x,-y
18 1/2-z,1/2+x,y
19 1/2+z,x,1/2-y
20 z,1/2-x,1/2+y
21 -y,-z,-x
22 y,1/2-z,1/2+x
23 1/2-y,1/2+z,x
24 1/2+y,z,1/2-x
_cell_length_a                   20.7438(4)
_cell_length_b                   20.7438(4)
_cell_length_c                   20.7438(4)
_cell_angle_alpha                90
_cell_angle_beta                 90
_cell_angle_gamma                90
_cell_volume                     8926.17
loop_
_atom_site_label
_atom_site_type_symbol
_atom_site_fract_x
_atom_site_fract_y
_atom_site_fract_z
I1 I 1.0000 0.0000 0.0000
Cd1 Cd 0.90037(2) 0.06002(2) 0.22561(2)
Rb1 Rb 0.5000 0.0000 0.0000
O1 O 0.85662(10) 0.16252(9) 0.20504(11)
H1 H 0.8162 0.1638 0.2163
H2 H 0.8774 0.1918 0.2268
O2 O 0.97077(11) 0.08255(12) 0.14185(10)
H3 H 0.9604 0.0608 0.1075
H4 H 0.9694 0.1234 0.1325
N1 N 0.82685(11) 0.03847(11) 0.14026(11)
N2 N 0.77901(11) 0.06468(12) 0.04628(11)
N3 N 0.63452(18) -0.0143(3) 0.0286(2)
N4 N 0.73216(18) -0.07508(18) 0.22060(16)
N5 N 0.83683(11) 0.04409(11) 0.31460(11)
N6 N 0.78042(11) -0.01251(11) 0.38863(11)
N7 N 0.70345(19) 0.10314(17) 0.48800(19)
N8 N 0.80909(17) 0.20990(14) 0.34795(15)
C1 C 0.82898(14) 0.07235(14) 0.08544(13)
H5 H 0.8632 0.0995 0.0754
C2 C 0.74086(14) 0.02188(15) 0.07839(14)
C3 C 0.77009(14) 0.00586(14) 0.13555(13)
C4 C 0.74870(17) -0.03863(17) 0.18309(16)
C5 C 0.68130(18) 0.0010(2) 0.05226(18)
C6 C 0.82006(13) -0.01358(13) 0.33832(13)
H6 H 0.8352 -0.0519 0.3207
C7 C 0.80473(14) 0.08652(13) 0.35373(14)
C8 C 0.80802(16) 0.15506(15) 0.34883(15)
C9 C 0.77089(15) 0.05205(14) 0.39858(15)
C10 C 0.73250(17) 0.07895(16) 0.44881(18)
Cd1E Cd 0.72561(2) -0.40037(2) -0.06002(2)
O1E O 0.70504(11) -0.35662(10) -0.16252(9)
H1E H 0.7163 -0.3162 -0.1638
H2E H 0.7268 -0.3774 -0.1918
O2E O 0.64185(10) -0.47077(11) -0.08255(12)
H3E H 0.6075 -0.4604 -0.0608
H4E H 0.6325 -0.4694 -0.1234
N1E N 0.64026(11) -0.32685(11) -0.03847(11)
N2E N 0.54628(11) -0.27901(11) -0.06468(12)
N3E N 0.5286(2) -0.13452(18) 0.0143(3)
N4E N 0.72060(16) -0.23216(18) 0.07508(18)
N5E N 0.81460(11) -0.33683(11) -0.04409(11)
N6E N 0.88863(11) -0.28042(11) 0.01251(11)
N7E N 0.98800(19) -0.20345(19) -0.10314(17)
N8E N 0.84795(15) -0.30909(17) -0.20990(14)
C1E C 0.58544(13) -0.32898(14) -0.07235(14)
H5E H 0.5754 -0.3632 -0.0995
C2E C 0.57839(14) -0.24086(14) -0.02188(15)
C3E C 0.63555(13) -0.27009(14) -0.00586(14)
C4E C 0.68309(16) -0.24870(17) 0.03863(17)
C5E C 0.55226(18) -0.18130(18) -0.0010(2)
C6E C 0.83832(13) -0.32006(13) 0.01358(13)
H6E H 0.8207 -0.3352 0.0519
C7E C 0.85373(14) -0.30473(14) -0.08652(13)
C8E C 0.84883(15) -0.30802(16) -0.15506(15)
C9E C 0.89858(15) -0.27089(15) -0.05205(14)
C10E C 0.94881(18) -0.23250(17) -0.07895(16)
Cd1K Cd 0.43998(2) -0.22561(2) 0.40037(2)
O1K O 0.33748(9) -0.20504(11) 0.35662(10)
H1K H 0.3362 -0.2163 0.3162
H2K H 0.3082 -0.2268 0.3774
O2K O 0.41745(12) -0.14185(10) 0.47077(11)
H3K H 0.4392 -0.1075 0.4604
H4K H 0.3766 -0.1325 0.4694
N1K N 0.46153(11) -0.14026(11) 0.32685(11)
N2K N 0.43532(12) -0.04628(11) 0.27901(11)
N3K N 0.5143(3) -0.0286(2) 0.13452(18)
N4K N 0.57508(18) -0.22060(16) 0.23216(18)
N5K N 0.45591(11) -0.31460(11) 0.33683(11)
N6K N 0.51251(11) -0.38863(11) 0.28042(11)
N7K N 0.39686(17) -0.48800(19) 0.20345(19)
N8K N 0.29010(14) -0.34795(15) 0.30909(17)
C1K C 0.42765(14) -0.08544(13) 0.32898(14)
H5K H 0.4005 -0.0754 0.3632
C2K C 0.47812(15) -0.07839(14) 0.24086(14)
C3K C 0.49414(14) -0.13555(13) 0.27009(14)
C4K C 0.53863(17) -0.18309(16) 0.24870(17)
C5K C 0.4990(2) -0.05226(18) 0.18130(18)
C6K C 0.51358(13) -0.33832(13) 0.32006(13)
H6K H 0.5519 -0.3207 0.3352
C7K C 0.41348(13) -0.35373(14) 0.30473(14)
C8K C 0.34494(15) -0.34883(15) 0.30802(16)
C9K C 0.44795(14) -0.39858(15) 0.27089(15)
C10K C 0.42105(16) -0.44881(18) 0.23250(17)
Cd1L Cd 0.09963(2) -0.06002(2) -0.22561(2)
O1L O 0.14338(10) -0.16252(9) -0.20504(11)
H1L H 0.1838 -0.1638 -0.2163
H2L H 0.1226 -0.1918 -0.2268
O2L O 0.02923(11) -0.08255(12) -0.14185(10)
H3L H 0.0396 -0.0608 -0.1075
H4L H 0.0306 -0.1234 -0.1325
N1L N 0.17315(11) -0.03847(11) -0.14026(11)
N2L N 0.22099(11) -0.06468(12) -0.04628(11)
N3L N 0.36548(18) 0.0143(3) -0.0286(2)
N4L N 0.26784(18) 0.07508(18) -0.22060(16)
N5L N 0.16317(11) -0.04409(11) -0.31460(11)
N6L N 0.21958(11) 0.01251(11) -0.38863(11)
N7L N 0.29655(19) -0.10314(17) -0.48800(19)
N8L N 0.19091(17) -0.20990(14) -0.34795(15)
C1L C 0.17102(14) -0.07235(14) -0.08544(13)
H5L H 0.1368 -0.0995 -0.0754
C2L C 0.25914(14) -0.02188(15) -0.07839(14)
C3L C 0.22991(14) -0.00586(14) -0.13555(13)
C4L C 0.25130(17) 0.03863(17) -0.18309(16)
C5L C 0.31870(18) -0.0010(2) -0.05226(18)
C6L C 0.17994(13) 0.01358(13) -0.33832(13)
H6L H 0.1648 0.0519 -0.3207
C7L C 0.19527(14) -0.08652(13) -0.35373(14)
C8L C 0.19198(16) -0.15506(15) -0.34883(15)
C9L C 0.22911(15) -0.05205(14) -0.39858(15)
C10L C 0.26750(17) -0.07895(16) -0.44881(18)
Cd1Q Cd 0.27439(2) 0.40037(2) 0.06002(2)
O1Q O 0.29496(11) 0.35662(10) 0.16252(9)
H1Q H 0.2837 0.3162 0.1638
H2Q H 0.2732 0.3774 0.1918
O2Q O 0.35815(10) 0.47077(11) 0.08255(12)
H3Q H 0.3925 0.4604 0.0608
H4Q H 0.3675 0.4694 0.1234
N1Q N 0.35974(11) 0.32685(11) 0.03847(11)
N2Q N 0.45372(11) 0.27901(11) 0.06468(12)
N3Q N 0.4714(2) 0.13452(18) -0.0143(3)
N4Q N 0.27940(16) 0.23216(18) -0.07508(18)
N5Q N 0.18540(11) 0.33683(11) 0.04409(11)
N6Q N 0.11137(11) 0.28042(11) -0.01251(11)
N7Q N 0.01200(19) 0.20345(19) 0.10314(17)
N8Q N 0.15205(15) 0.30909(17) 0.20990(14)
C1Q C 0.41456(13) 0.32898(14) 0.07235(14)
H5Q H 0.4246 0.3632 0.0995
C2Q C 0.42161(14) 0.24086(14) 0.02188(15)
C3Q C 0.36445(13) 0.27009(14) 0.00586(14)
C4Q C 0.31691(16) 0.24870(17) -0.03863(17)
C5Q C 0.44774(18) 0.18130(18) 0.0010(2)
C6Q C 0.16168(13) 0.32006(13) -0.01358(13)
H6Q H 0.1793 0.3352 -0.0519
C7Q C 0.14627(14) 0.30473(14) 0.08652(13)
C8Q C 0.15117(15) 0.30802(16) 0.15506(15)
C9Q C 0.10142(15) 0.27089(15) 0.05205(14)
C10Q C 0.05119(18) 0.23250(17) 0.07895(16)
Cd1W Cd 0.56002(2) 0.22561(2) -0.40037(2)
O1W O 0.66252(9) 0.20504(11) -0.35662(10)
H1W H 0.6638 0.2163 -0.3162
H2W H 0.6918 0.2268 -0.3774
O2W O 0.58255(12) 0.14185(10) -0.47077(11)
H3W H 0.5608 0.1075 -0.4604
H4W H 0.6234 0.1325 -0.4694
N1W N 0.53847(11) 0.14026(11) -0.32685(11)
N2W N 0.56468(12) 0.04628(11) -0.27901(11)
N3W N 0.4857(3) 0.0286(2) -0.13452(18)
N4W N 0.42492(18) 0.22060(16) -0.23216(18)
N5W N 0.54409(11) 0.31460(11) -0.33683(11)
N6W N 0.48749(11) 0.38863(11) -0.28042(11)
N7W N 0.60314(17) 0.48800(19) -0.20345(19)
N8W N 0.70990(14) 0.34795(15) -0.30909(17)
C1W C 0.57235(14) 0.08544(13) -0.32898(14)
H5W H 0.5995 0.0754 -0.3632
C2W C 0.52188(15) 0.07839(14) -0.24086(14)
C3W C 0.50586(14) 0.13555(13) -0.27009(14)
C4W C 0.46137(17) 0.18309(16) -0.24870(17)
C5W C 0.5010(2) 0.05226(18) -0.18130(18)
C6W C 0.48642(13) 0.33832(13) -0.32006(13)
H6W H 0.4481 0.3207 -0.3352
C7W C 0.58652(13) 0.35373(14) -0.30473(14)
C8W C 0.65506(15) 0.34883(15) -0.30802(16)
C9W C 0.55205(14) 0.39858(15) -0.27089(15)
C10W C 0.57895(16) 0.44881(18) -0.23250(17)
Cd1A Cd 0.59963(2) -0.06002(2) -0.27439(2)
Cd1C Cd 0.40037(2) 0.43998(2) -0.22561(2)
Cd1D Cd 0.22561(2) -0.09963(2) 0.06002(2)
Cd1F Cd 0.27439(2) 0.09963(2) -0.43998(2)
Cd1H Cd 0.06002(2) 0.22561(2) -0.09963(2)
Cd1J Cd 0.56002(2) 0.27439(2) 0.09963(2)
Cd1M Cd 0.40037(2) 0.06002(2) 0.27439(2)
Cd1O Cd 0.59963(2) -0.43998(2) 0.22561(2)
Cd1P Cd 0.77439(2) 0.09963(2) -0.06002(2)
Cd1R Cd 0.72561(2) -0.09963(2) 0.43998(2)
Cd1T Cd 0.93998(2) -0.22561(2) 0.09963(2)
Cd1V Cd 0.43998(2) -0.27439(2) -0.09963(2)
N2C N 0.27901(11) 0.43532(12) -0.04628(11)
N2F N 0.45372(11) 0.22099(11) -0.43532(12)
N2H N 0.06468(12) 0.04628(11) -0.22099(11)
N2O N 0.72099(11) -0.43532(12) 0.04628(11)
N2R N 0.54628(11) -0.22099(11) 0.43532(12)
N2T N 0.93532(12) -0.04628(11) 0.22099(11)
N6B N 0.21958(11) 0.48749(11) 0.11137(11)
N6G N 0.61137(11) 0.28042(11) -0.48749(11)
N6I N 0.01251(11) -0.11137(11) -0.28042(11)
N6N N 0.78042(11) -0.48749(11) -0.11137(11)
N6S N 0.38863(11) -0.28042(11) 0.48749(11)
N6U N 0.98749(11) 0.11137(11) 0.28042(11)
loop_
_geom_bond_atom_site_label_1
_geom_bond_atom_site_label_2
_geom_bond_site_symmetry_1
_geom_bond_site_symmetry_2
Cd1 O1 1_555 1_555
Rb1 N3 1_555 1_555
O1 H1 1_555 1_555
H2 O1 1_555 1_555
O2 Cd1 1_555 1_555
H3 O2 1_555 1_555
H4 O2 1_555 1_555
N1 Cd1 1_555 1_555
N2 C1 1_555 1_555
N3 C5 1_555 1_555
N4 C4 1_555 1_555
N5 Cd1 1_555 1_555
N6 C6 1_555 1_555
N7 C10 1_555 1_555
N8 C8 1_555 1_555
C1 N1 1_555 1_555
H5 C1 1_555 1_555
C2 N2 1_555 1_555
C3 N1 1_555 1_555
C4 C3 1_555 1_555
C5 C2 1_555 1_555
C6 N5 1_555 1_555
H6 C6 1_555 1_555
C7 N5 1_555 1_555
C8 C7 1_555 1_555
C9 N6 1_555 1_555
C10 C9 1_555 1_555
Cd1E O1E 1_555 1_555
O1E H1E 1_555 1_555
H2E O1E 1_555 1_555
O2E Cd1E 1_555 1_555
H3E O2E 1_555 1_555
H4E O2E 1_555 1_555
N1E Cd1E 1_555 1_555
N2E C1E 1_555 1_555
N3E Rb1 1_555 1_555
N4E C4E 1_555 1_555
N5E Cd1E 1_555 1_555
N6E C6E 1_555 1_555
N7E C10E 1_555 1_555
N8E C8E 1_555 1_555
C1E N1E 1_555 1_555
H5E C1E 1_555 1_555
C2E N2E 1_555 1_555
C3E N1E 1_555 1_555
C4E C3E 1_555 1_555
C5E N3E 1_555 1_555
C6E N5E 1_555 1_555
H6E C6E 1_555 1_555
C7E N5E 1_555 1_555
C8E C7E 1_555 1_555
C9E N6E 1_555 1_555
C10E C9E 1_555 1_555
Cd1K O1K 1_555 1_555
O1K H1K 1_555 1_555
H2K O1K 1_555 1_555
O2K Cd1K 1_555 1_555
H3K O2K 1_555 1_555
H4K O2K 1_555 1_555
N1K Cd1K 1_555 1_555
N2K C1K 1_555 1_555
N3K Rb1 1_555 1_555
N4K C4K 1_555 1_555
N5K Cd1K 1_555 1_555
N6K C6K 1_555 1_555
N7K C10K 1_555 1_555
N8K C8K 1_555 1_555
C1K N1K 1_555 1_555
H5K C1K 1_555 1_555
C2K N2K 1_555 1_555
C3K N1K 1_555 1_555
C4K C3K 1_555 1_555
C5K N3K 1_555 1_555
C6K N5K 1_555 1_555
H6K C6K 1_555 1_555
C7K N5K 1_555 1_555
C8K C7K 1_555 1_555
C9K N6K 1_555 1_555
C10K C9K 1_555 1_555
Cd1L O1L 1_555 1_555
O1L H1L 1_555 1_555
H2L O1L 1_555 1_555
O2L Cd1L 1_555 1_555
H3L O2L 1_555 1_555
H4L O2L 1_555 1_555
N1L Cd1L 1_555 1_555
N2L C1L 1_555 1_555
N3L Rb1 1_555 1_555
N4L C4L 1_555 1_555
N5L Cd1L 1_555 1_555
N6L C6L 1_555 1_555
N7L C10L 1_555 1_555
N8L C8L 1_555 1_555
C1L N1L 1_555 1_555
H5L C1L 1_555 1_555
C2L N2L 1_555 1_555
C3L N1L 1_555 1_555
C4L C3L 1_555 1_555
C5L N3L 1_555 1_555
C6L N5L 1_555 1_555
H6L C6L 1_555 1_555
C7L N5L 1_555 1_555
C8L C7L 1_555 1_555
C9L N6L 1_555 1_555
C10L C9L 1_555 1_555
Cd1Q O1Q 1_555 1_555
O1Q H1Q 1_555 1_555
H2Q O1Q 1_555 1_555
O2Q Cd1Q 1_555 1_555
H3Q O2Q 1_555 1_555
H4Q O2Q 1_555 1_555
N1Q Cd1Q 1_555 1_555
N2Q C1Q 1_555 1_555
N3Q Rb1 1_555 1_555
N4Q C4Q 1_555 1_555
N5Q Cd1Q 1_555 1_555
N6Q C6Q 1_555 1_555
N7Q C10Q 1_555 1_555
N8Q C8Q 1_555 1_555
C1Q N1Q 1_555 1_555
H5Q C1Q 1_555 1_555
C2Q N2Q 1_555 1_555
C3Q N1Q 1_555 1_555
C4Q C3Q 1_555 1_555
C5Q N3Q 1_555 1_555
C6Q N5Q 1_555 1_555
H6Q C6Q 1_555 1_555
C7Q N5Q 1_555 1_555
C8Q C7Q 1_555 1_555
C9Q N6Q 1_555 1_555
C10Q C9Q 1_555 1_555
Cd1W O1W 1_555 1_555
O1W H1W 1_555 1_555
H2W O1W 1_555 1_555
O2W Cd1W 1_555 1_555
H3W O2W 1_555 1_555
H4W O2W 1_555 1_555
N1W Cd1W 1_555 1_555
N2W C1W 1_555 1_555
N3W Rb1 1_555 1_555
N4W C4W 1_555 1_555
N5W Cd1W 1_555 1_555
N6W C6W 1_555 1_555
N7W C10W 1_555 1_555
N8W C8W 1_555 1_555
C1W N1W 1_555 1_555
H5W C1W 1_555 1_555
C2W N2W 1_555 1_555
C3W N1W 1_555 1_555
C4W C3W 1_555 1_555
C5W N3W 1_555 1_555
C6W N5W 1_555 1_555
H6W C6W 1_555 1_555
C7W N5W 1_555 1_555
C8W C7W 1_555 1_555
C9W N6W 1_555 1_555
C10W C9W 1_555 1_555
Cd1A N2W 1_555 1_555
Cd1C N6W 1_555 1_555
Cd1D N2L 1_555 1_555
Cd1F N6L 1_555 1_555
Cd1H N6Q 1_555 1_555
Cd1J N2Q 1_555 1_555
Cd1M N2K 1_555 1_555
Cd1O N6K 1_555 1_555
Cd1P N2 1_555 1_555
Cd1R N6 1_555 1_555
Cd1T N6E 1_555 1_555
Cd1V N2E 1_555 1_555
N2C Cd1Q 1_555 1_555
N2F Cd1W 1_555 1_555
N2H Cd1L 1_555 1_555
N2O Cd1E 1_555 1_555
N2R Cd1K 1_555 1_555
N2T Cd1 1_555 1_555
N6B Cd1Q 1_555 1_555
N6G Cd1W 1_555 1_555
N6I Cd1L 1_555 1_555
N6N Cd1E 1_555 1_555
N6S Cd1K 1_555 1_555
N6U Cd1 1_555 1_555
C2 C3 1_555 1_555
C7 C9 1_555 1_555
C2E C3E 1_555 1_555
C2E C5E 1_555 1_555
C7E C9E 1_555 1_555
C2K C3K 1_555 1_555
C2K C5K 1_555 1_555
C7K C9K 1_555 1_555
C2L C3L 1_555 1_555
C2L C5L 1_555 1_555
C7L C9L 1_555 1_555
C2Q C3Q 1_555 1_555
C2Q C5Q 1_555 1_555
C7Q C9Q 1_555 1_555
C2W C3W 1_555 1_555
C2W C5W 1_555 1_555
C7W C9W 1_555 1_555

#END
