
#######################################################################
#
#                 Cambridge Crystallographic Data Centre
#                                CCDC 
#
#######################################################################
#
# If this CIF has been generated from an entry in the Cambridge 
# Structural Database, then it will include bibliographic, chemical, 
# crystal, experimental, refinement or atomic coordinate data resulting 
# from the CCDC's data processing and validation procedures.
#
#######################################################################

data_AHANOO
_symmetry_cell_setting           cubic
_symmetry_space_group_name_H-M   'P a -3'
_symmetry_Int_Tables_number      205
_space_group_name_Hall           '-P 2ac 2ab 3'
loop_
_symmetry_equiv_pos_site_id
_symmetry_equiv_pos_as_xyz
1 x,y,z
2 z,x,y
3 y,z,x
4 1/2-y,-z,1/2+x
5 1/2+z,1/2-x,-y
6 -y,1/2+z,1/2-x
7 1/2-z,-x,1/2+y
8 -z,1/2+x,1/2-y
9 1/2+y,1/2-z,-x
10 1/2-x,-y,1/2+z
11 1/2+x,1/2-y,-z
12 -x,1/2+y,1/2-z
13 -x,-y,-z
14 -z,-x,-y
15 -y,-z,-x
16 1/2+y,z,1/2-x
17 1/2-z,1/2+x,y
18 y,1/2-z,1/2+x
19 1/2+z,x,1/2-y
20 z,1/2-x,1/2+y
21 1/2-y,1/2+z,x
22 1/2+x,y,1/2-z
23 1/2-x,1/2+y,z
24 x,1/2-y,1/2+z
_cell_length_a                   20.7166(4)
_cell_length_b                   20.7166(4)
_cell_length_c                   20.7166(4)
_cell_angle_alpha                90
_cell_angle_beta                 90
_cell_angle_gamma                90
_cell_volume                     8891.1
loop_
_atom_site_label
_atom_site_type_symbol
_atom_site_fract_x
_atom_site_fract_y
_atom_site_fract_z
Cd1 Cd 0.898966(9) 0.059379(9) 0.225912(9)
N1 N 0.83508(11) 0.04349(11) 0.31489(11)
N2 N 0.82604(11) 0.03724(11) 0.13976(11)
O1 O 0.85589(11) 0.16210(10) 0.20547(13)
N3 N 0.77718(11) 0.06644(11) 0.04689(11)
C1 C 0.77140(14) 0.05093(14) 0.40121(15)
C2 C 0.82856(14) 0.07160(14) 0.08525(13)
H1 H 0.8638 0.0974 0.0748
C3 C 0.80417(14) 0.08584(13) 0.35522(14)
N4 N 0.78078(11) -0.01343(11) 0.39059(11)
C4 C 0.73797(14) 0.02493(15) 0.07966(14)
C5 C 0.81907(14) -0.01420(14) 0.33897(14)
H2 H 0.8338 -0.0525 0.3208
C6 C 0.76762(14) 0.00703(14) 0.13622(13)
O2 O 0.96987(12) 0.08254(12) 0.14202(11)
N5 N 0.80767(17) 0.20943(14) 0.34831(15)
C7 C 0.67575(17) 0.0092(2) 0.05533(17)
N6 N 0.70534(18) 0.10094(17) 0.49276(18)
C8 C 0.80704(16) 0.15464(15) 0.34982(15)
C9 C 0.73374(17) 0.07745(16) 0.45228(17)
N7 N 0.62654(18) -0.0007(2) 0.0340(2)
K1 K 0.5000 0.0000 0.0000
N8 N 0.72942(18) -0.07443(18) 0.22087(16)
C10 C 0.74583(17) -0.03769(17) 0.18339(16)
H3 H 0.8729(14) 0.1988(9) 0.2113(18)
H4 H 0.8155(5) 0.1660(16) 0.2020(19)
H5 H 0.9817(18) 0.0581(12) 0.1116(12)
H6 H 0.9788(18) 0.1212(6) 0.1335(16)
Cd1C Cd 0.440621(9) -0.225912(9) 0.398966(9)
N1C N 0.45651(11) -0.31489(11) 0.33508(11)
N2C N 0.46276(11) -0.13976(11) 0.32604(11)
O1C O 0.33790(10) -0.20547(13) 0.35589(11)
N3C N 0.43356(11) -0.04689(11) 0.27718(11)
C1C C 0.44907(14) -0.40121(15) 0.27140(14)
C2C C 0.42840(14) -0.08525(13) 0.32856(14)
H1C H 0.4026 -0.0748 0.3638
C3C C 0.41416(13) -0.35522(14) 0.30417(14)
N4C N 0.51343(11) -0.39059(11) 0.28078(11)
C4C C 0.47507(15) -0.07966(14) 0.23797(14)
C5C C 0.51420(14) -0.33897(14) 0.31907(14)
H2C H 0.5525 -0.3208 0.3338
C6C C 0.49297(14) -0.13622(13) 0.26762(14)
O2C O 0.41746(12) -0.14202(11) 0.46987(12)
N5C N 0.29057(14) -0.34831(15) 0.30767(17)
C7C C 0.4908(2) -0.05533(17) 0.17575(17)
N6C N 0.39906(17) -0.49276(18) 0.20534(18)
C8C C 0.34536(15) -0.34982(15) 0.30704(16)
C9C C 0.42255(16) -0.45228(17) 0.23374(17)
N7C N 0.5007(2) -0.0340(2) 0.12654(18)
N8C N 0.57443(18) -0.22087(16) 0.22942(18)
C10C C 0.53769(17) -0.18339(16) 0.24583(17)
H3C H 0.3012(9) -0.2113(18) 0.3729(14)
H4C H 0.3340(16) -0.2020(19) 0.3155(5)
H5C H 0.4419(12) -0.1116(12) 0.4817(18)
H6C H 0.3788(6) -0.1335(16) 0.4788(18)
Cd1D Cd 0.725912(9) -0.398966(9) -0.059379(9)
N1D N 0.81489(11) -0.33508(11) -0.04349(11)
N2D N 0.63976(11) -0.32604(11) -0.03724(11)
O1D O 0.70547(13) -0.35589(11) -0.16210(10)
N3D N 0.54689(11) -0.27718(11) -0.06644(11)
C1D C 0.90121(15) -0.27140(14) -0.05093(14)
C2D C 0.58525(13) -0.32856(14) -0.07160(14)
H1D H 0.5748 -0.3638 -0.0974
C3D C 0.85522(14) -0.30417(14) -0.08584(13)
N4D N 0.89059(11) -0.28078(11) 0.01343(11)
C4D C 0.57966(14) -0.23797(14) -0.02493(15)
C5D C 0.83897(14) -0.31907(14) 0.01420(14)
H2D H 0.8208 -0.3338 0.0525
C6D C 0.63622(13) -0.26762(14) -0.00703(14)
O2D O 0.64202(11) -0.46987(12) -0.08254(12)
N5D N 0.84831(15) -0.30767(17) -0.20943(14)
C7D C 0.55533(17) -0.17575(17) -0.0092(2)
N6D N 0.99276(18) -0.20534(18) -0.10094(17)
C8D C 0.84982(15) -0.30704(16) -0.15464(15)
C9D C 0.95228(17) -0.23374(17) -0.07745(16)
N7D N 0.5340(2) -0.12654(18) 0.0007(2)
N8D N 0.72087(16) -0.22942(18) 0.07443(18)
C10D C 0.68339(16) -0.24583(17) 0.03769(17)
H3D H 0.7113(18) -0.3729(14) -0.1988(9)
H4D H 0.7020(19) -0.3155(5) -0.1660(16)
H5D H 0.6116(12) -0.4817(18) -0.0581(12)
H6D H 0.6335(16) -0.4788(18) -0.1212(6)
Cd1L Cd 0.101034(9) -0.059379(9) -0.225912(9)
N1L N 0.16492(11) -0.04349(11) -0.31489(11)
N2L N 0.17396(11) -0.03724(11) -0.13976(11)
O1L O 0.14411(11) -0.16210(10) -0.20547(13)
N3L N 0.22282(11) -0.06644(11) -0.04689(11)
C1L C 0.22860(14) -0.05093(14) -0.40121(15)
C2L C 0.17144(14) -0.07160(14) -0.08525(13)
H1L H 0.1362 -0.0974 -0.0748
C3L C 0.19583(14) -0.08584(13) -0.35522(14)
N4L N 0.21922(11) 0.01343(11) -0.39059(11)
C4L C 0.26203(14) -0.02493(15) -0.07966(14)
C5L C 0.18093(14) 0.01420(14) -0.33897(14)
H2L H 0.1662 0.0525 -0.3208
C6L C 0.23238(14) -0.00703(14) -0.13622(13)
O2L O 0.03013(12) -0.08254(12) -0.14202(11)
N5L N 0.19233(17) -0.20943(14) -0.34831(15)
C7L C 0.32425(17) -0.0092(2) -0.05533(17)
N6L N 0.29466(18) -0.10094(17) -0.49276(18)
C8L C 0.19296(16) -0.15464(15) -0.34982(15)
C9L C 0.26626(17) -0.07745(16) -0.45228(17)
N7L N 0.37346(18) 0.0007(2) -0.0340(2)
N8L N 0.27058(18) 0.07443(18) -0.22087(16)
C10L C 0.25417(17) 0.03769(17) -0.18339(16)
H3L H 0.1271(14) -0.1988(9) -0.2113(18)
H4L H 0.1845(5) -0.1660(16) -0.2020(19)
H5L H 0.0183(18) -0.0581(12) -0.1116(12)
H6L H 0.0212(18) -0.1212(6) -0.1335(16)
Cd1O Cd 0.559379(9) 0.225912(9) -0.398966(9)
N1O N 0.54349(11) 0.31489(11) -0.33508(11)
N2O N 0.53724(11) 0.13976(11) -0.32604(11)
O1O O 0.66210(10) 0.20547(13) -0.35589(11)
N3O N 0.56644(11) 0.04689(11) -0.27718(11)
C1O C 0.55093(14) 0.40121(15) -0.27140(14)
C2O C 0.57160(14) 0.08525(13) -0.32856(14)
H1O H 0.5974 0.0748 -0.3638
C3O C 0.58584(13) 0.35522(14) -0.30417(14)
N4O N 0.48657(11) 0.39059(11) -0.28078(11)
C4O C 0.52493(15) 0.07966(14) -0.23797(14)
C5O C 0.48580(14) 0.33897(14) -0.31907(14)
H2O H 0.4475 0.3208 -0.3338
C6O C 0.50703(14) 0.13622(13) -0.26762(14)
O2O O 0.58254(12) 0.14202(11) -0.46987(12)
N5O N 0.70943(14) 0.34831(15) -0.30767(17)
C7O C 0.5092(2) 0.05533(17) -0.17575(17)
N6O N 0.60094(17) 0.49276(18) -0.20534(18)
C8O C 0.65464(15) 0.34982(15) -0.30704(16)
C9O C 0.57745(16) 0.45228(17) -0.23374(17)
N7O N 0.4993(2) 0.0340(2) -0.12654(18)
N8O N 0.42557(18) 0.22087(16) -0.22942(18)
C10O C 0.46231(17) 0.18339(16) -0.24583(17)
H3O H 0.6988(9) 0.2113(18) -0.3729(14)
H4O H 0.6660(16) 0.2020(19) -0.3155(5)
H5O H 0.5581(12) 0.1116(12) -0.4817(18)
H6O H 0.6212(6) 0.1335(16) -0.4788(18)
Cd1P Cd 0.274088(9) 0.398966(9) 0.059379(9)
N1P N 0.18511(11) 0.33508(11) 0.04349(11)
N2P N 0.36024(11) 0.32604(11) 0.03724(11)
O1P O 0.29453(13) 0.35589(11) 0.16210(10)
N3P N 0.45311(11) 0.27718(11) 0.06644(11)
C1P C 0.09879(15) 0.27140(14) 0.05093(14)
C2P C 0.41475(13) 0.32856(14) 0.07160(14)
H1P H 0.4252 0.3638 0.0974
C3P C 0.14478(14) 0.30417(14) 0.08584(13)
N4P N 0.10941(11) 0.28078(11) -0.01343(11)
C4P C 0.42034(14) 0.23797(14) 0.02493(15)
C5P C 0.16103(14) 0.31907(14) -0.01420(14)
H2P H 0.1792 0.3338 -0.0525
C6P C 0.36378(13) 0.26762(14) 0.00703(14)
O2P O 0.35798(11) 0.46987(12) 0.08254(12)
N5P N 0.15169(15) 0.30767(17) 0.20943(14)
C7P C 0.44467(17) 0.17575(17) 0.0092(2)
N6P N 0.00724(18) 0.20534(18) 0.10094(17)
C8P C 0.15018(15) 0.30704(16) 0.15464(15)
C9P C 0.04772(17) 0.23374(17) 0.07745(16)
N7P N 0.4660(2) 0.12654(18) -0.0007(2)
N8P N 0.27913(16) 0.22942(18) -0.07443(18)
C10P C 0.31661(16) 0.24583(17) -0.03769(17)
H3P H 0.2887(18) 0.3729(14) 0.1988(9)
H4P H 0.2980(19) 0.3155(5) 0.1660(16)
H5P H 0.3884(12) 0.4817(18) 0.0581(12)
H6P H 0.3665(16) 0.4788(18) 0.1212(6)
Cd1A Cd 0.225912(9) -0.101034(9) 0.059379(9)
Cd1B Cd 0.059379(9) 0.225912(9) -0.101034(9)
Cd1F Cd 0.274088(9) 0.101034(9) -0.440621(9)
Cd1H Cd 0.559379(9) 0.274088(9) 0.101034(9)
Cd1I Cd 0.601034(9) -0.059379(9) -0.274088(9)
Cd1J Cd 0.398966(9) 0.440621(9) -0.225912(9)
Cd1M Cd 0.774088(9) 0.101034(9) -0.059379(9)
Cd1N Cd 0.940621(9) -0.225912(9) 0.101034(9)
Cd1R Cd 0.725912(9) -0.101034(9) 0.440621(9)
Cd1T Cd 0.440621(9) -0.274088(9) -0.101034(9)
Cd1U Cd 0.398966(9) 0.059379(9) 0.274088(9)
Cd1V Cd 0.601034(9) -0.440621(9) 0.225912(9)
N3B N 0.06644(11) 0.04689(11) -0.22282(11)
N3F N 0.45311(11) 0.22282(11) -0.43356(11)
N3J N 0.27718(11) 0.43356(11) -0.04689(11)
N3N N 0.93356(11) -0.04689(11) 0.22282(11)
N3R N 0.54689(11) -0.22282(11) 0.43356(11)
N3V N 0.72282(11) -0.43356(11) 0.04689(11)
N4E N 0.01343(11) -0.10941(11) -0.28078(11)
N4G N 0.60941(11) 0.28078(11) -0.48657(11)
N4K N 0.21922(11) 0.48657(11) 0.10941(11)
N4Q N 0.98657(11) 0.10941(11) 0.28078(11)
N4S N 0.39059(11) -0.28078(11) 0.48657(11)
N4W N 0.78078(11) -0.48657(11) -0.10941(11)
I1 I 1.0000 0.0000 0.0000
loop_
_geom_bond_atom_site_label_1
_geom_bond_atom_site_label_2
_geom_bond_site_symmetry_1
_geom_bond_site_symmetry_2
Cd1 N1 1_555 1_555
N1 C3 1_555 1_555
N2 Cd1 1_555 1_555
O1 Cd1 1_555 1_555
N3 C2 1_555 1_555
C1 C3 1_555 1_555
C2 N2 1_555 1_555
H1 C2 1_555 1_555
C3 C8 1_555 1_555
N4 C1 1_555 1_555
C4 N3 1_555 1_555
C5 N1 1_555 1_555
H2 C5 1_555 1_555
C6 N2 1_555 1_555
O2 Cd1 1_555 1_555
N5 C8 1_555 1_555
C7 C4 1_555 1_555
N6 C9 1_555 1_555
C9 C1 1_555 1_555
N7 C7 1_555 1_555
K1 N7 1_555 1_555
N8 C10 1_555 1_555
C10 C6 1_555 1_555
H3 O1 1_555 1_555
H4 O1 1_555 1_555
H5 O2 1_555 1_555
H6 O2 1_555 1_555
Cd1C N1C 1_555 1_555
N1C C3C 1_555 1_555
N2C Cd1C 1_555 1_555
O1C Cd1C 1_555 1_555
N3C C2C 1_555 1_555
C1C C3C 1_555 1_555
C2C N2C 1_555 1_555
H1C C2C 1_555 1_555
C3C C8C 1_555 1_555
N4C C1C 1_555 1_555
C4C N3C 1_555 1_555
C5C N1C 1_555 1_555
H2C C5C 1_555 1_555
C6C N2C 1_555 1_555
O2C Cd1C 1_555 1_555
N5C C8C 1_555 1_555
C7C C4C 1_555 1_555
N6C C9C 1_555 1_555
C9C C1C 1_555 1_555
N7C K1 1_555 1_555
N8C C10C 1_555 1_555
C10C C6C 1_555 1_555
H3C O1C 1_555 1_555
H4C O1C 1_555 1_555
H5C O2C 1_555 1_555
H6C O2C 1_555 1_555
Cd1D N1D 1_555 1_555
N1D C3D 1_555 1_555
N2D Cd1D 1_555 1_555
O1D Cd1D 1_555 1_555
N3D C2D 1_555 1_555
C1D C3D 1_555 1_555
C2D N2D 1_555 1_555
H1D C2D 1_555 1_555
C3D C8D 1_555 1_555
N4D C1D 1_555 1_555
C4D N3D 1_555 1_555
C5D N1D 1_555 1_555
H2D C5D 1_555 1_555
C6D N2D 1_555 1_555
O2D Cd1D 1_555 1_555
N5D C8D 1_555 1_555
C7D C4D 1_555 1_555
N6D C9D 1_555 1_555
C9D C1D 1_555 1_555
N7D K1 1_555 1_555
N8D C10D 1_555 1_555
C10D C6D 1_555 1_555
H3D O1D 1_555 1_555
H4D O1D 1_555 1_555
H5D O2D 1_555 1_555
H6D O2D 1_555 1_555
Cd1L N1L 1_555 1_555
N1L C3L 1_555 1_555
N2L Cd1L 1_555 1_555
O1L Cd1L 1_555 1_555
N3L C2L 1_555 1_555
C1L C3L 1_555 1_555
C2L N2L 1_555 1_555
H1L C2L 1_555 1_555
C3L C8L 1_555 1_555
N4L C1L 1_555 1_555
C4L N3L 1_555 1_555
C5L N1L 1_555 1_555
H2L C5L 1_555 1_555
C6L N2L 1_555 1_555
O2L Cd1L 1_555 1_555
N5L C8L 1_555 1_555
C7L C4L 1_555 1_555
N6L C9L 1_555 1_555
C9L C1L 1_555 1_555
N7L K1 1_555 1_555
N8L C10L 1_555 1_555
C10L C6L 1_555 1_555
H3L O1L 1_555 1_555
H4L O1L 1_555 1_555
H5L O2L 1_555 1_555
H6L O2L 1_555 1_555
Cd1O N1O 1_555 1_555
N1O C3O 1_555 1_555
N2O Cd1O 1_555 1_555
O1O Cd1O 1_555 1_555
N3O C2O 1_555 1_555
C1O C3O 1_555 1_555
C2O N2O 1_555 1_555
H1O C2O 1_555 1_555
C3O C8O 1_555 1_555
N4O C1O 1_555 1_555
C4O N3O 1_555 1_555
C5O N1O 1_555 1_555
H2O C5O 1_555 1_555
C6O N2O 1_555 1_555
O2O Cd1O 1_555 1_555
N5O C8O 1_555 1_555
C7O C4O 1_555 1_555
N6O C9O 1_555 1_555
C9O C1O 1_555 1_555
N7O K1 1_555 1_555
N8O C10O 1_555 1_555
C10O C6O 1_555 1_555
H3O O1O 1_555 1_555
H4O O1O 1_555 1_555
H5O O2O 1_555 1_555
H6O O2O 1_555 1_555
Cd1P N1P 1_555 1_555
N1P C3P 1_555 1_555
N2P Cd1P 1_555 1_555
O1P Cd1P 1_555 1_555
N3P C2P 1_555 1_555
C1P C3P 1_555 1_555
C2P N2P 1_555 1_555
H1P C2P 1_555 1_555
C3P C8P 1_555 1_555
N4P C1P 1_555 1_555
C4P N3P 1_555 1_555
C5P N1P 1_555 1_555
H2P C5P 1_555 1_555
C6P N2P 1_555 1_555
O2P Cd1P 1_555 1_555
N5P C8P 1_555 1_555
C7P C4P 1_555 1_555
N6P C9P 1_555 1_555
C9P C1P 1_555 1_555
N7P K1 1_555 1_555
N8P C10P 1_555 1_555
C10P C6P 1_555 1_555
H3P O1P 1_555 1_555
H4P O1P 1_555 1_555
H5P O2P 1_555 1_555
H6P O2P 1_555 1_555
Cd1A N3L 1_555 1_555
Cd1B N4P 1_555 1_555
Cd1F N4L 1_555 1_555
Cd1H N3P 1_555 1_555
Cd1I N3O 1_555 1_555
Cd1J N4O 1_555 1_555
Cd1M N3 1_555 1_555
Cd1N N4D 1_555 1_555
Cd1R N4 1_555 1_555
Cd1T N3D 1_555 1_555
Cd1U N3C 1_555 1_555
Cd1V N4C 1_555 1_555
N3B Cd1L 1_555 1_555
N3F Cd1O 1_555 1_555
N3J Cd1P 1_555 1_555
N3N Cd1 1_555 1_555
N3R Cd1C 1_555 1_555
N3V Cd1D 1_555 1_555
N4E Cd1L 1_555 1_555
N4G Cd1O 1_555 1_555
N4K Cd1P 1_555 1_555
N4Q Cd1 1_555 1_555
N4S Cd1C 1_555 1_555
N4W Cd1D 1_555 1_555
N4 C5 1_555 1_555
C4 C6 1_555 1_555
N4C C5C 1_555 1_555
C4C C6C 1_555 1_555
C7C N7C 1_555 1_555
N4D C5D 1_555 1_555
C4D C6D 1_555 1_555
C7D N7D 1_555 1_555
N4L C5L 1_555 1_555
C4L C6L 1_555 1_555
C7L N7L 1_555 1_555
N4O C5O 1_555 1_555
C4O C6O 1_555 1_555
C7O N7O 1_555 1_555
N4P C5P 1_555 1_555
C4P C6P 1_555 1_555
C7P N7P 1_555 1_555

#END
