
#######################################################################
#
#                 Cambridge Crystallographic Data Centre
#                                CCDC 
#
#######################################################################
#
# If this CIF has been generated from an entry in the Cambridge 
# Structural Database, then it will include bibliographic, chemical, 
# crystal, experimental, refinement or atomic coordinate data resulting 
# from the CCDC's data processing and validation procedures.
#
#######################################################################

data_AHANAA
_symmetry_cell_setting           cubic
_symmetry_space_group_name_H-M   'P a -3'
_symmetry_Int_Tables_number      205
_space_group_name_Hall           '-P 2ac 2ab 3'
loop_
_symmetry_equiv_pos_site_id
_symmetry_equiv_pos_as_xyz
1 x,y,z
2 1/2-x,-y,1/2+z
3 -x,1/2+y,1/2-z
4 1/2+x,1/2-y,-z
5 z,x,y
6 1/2+z,1/2-x,-y
7 1/2-z,-x,1/2+y
8 -z,1/2+x,1/2-y
9 y,z,x
10 -y,1/2+z,1/2-x
11 1/2+y,1/2-z,-x
12 1/2-y,-z,1/2+x
13 -x,-y,-z
14 1/2+x,y,1/2-z
15 x,1/2-y,1/2+z
16 1/2-x,1/2+y,z
17 -z,-x,-y
18 1/2-z,1/2+x,y
19 1/2+z,x,1/2-y
20 z,1/2-x,1/2+y
21 -y,-z,-x
22 y,1/2-z,1/2+x
23 1/2-y,1/2+z,x
24 1/2+y,z,1/2-x
_cell_length_a                   20.6298(3)
_cell_length_b                   20.6298(3)
_cell_length_c                   20.6298(3)
_cell_angle_alpha                90
_cell_angle_beta                 90
_cell_angle_gamma                90
_cell_volume                     8779.81
loop_
_atom_site_label
_atom_site_type_symbol
_atom_site_fract_x
_atom_site_fract_y
_atom_site_fract_z
Cd1 Cd 0.09911(2) 0.43932(2) 0.22346(2)
Rb1 Rb 0.0000 0.5000 0.5000
O1 O 0.03156(11) 0.42511(11) 0.13288(10)
H1 H 0.0124 0.3875 0.1344
H2 H 0.0018 0.4552 0.1320
O2 O 0.14252(10) 0.33721(9) 0.20119(11)
H3 H 0.1843 0.3357 0.2114
H4 H 0.1227 0.3063 0.2237
N1 N 0.06306(11) 0.54489(11) 0.22282(11)
N2 N 0.03751(11) 0.64022(11) 0.17597(11)
N3 N -0.07888(18) 0.71885(16) 0.27091(19)
N4 N -0.0234(3) 0.5214(2) 0.36310(18)
N5 N 0.01159(11) 0.38576(11) 0.27559(11)
N6 N -0.04454(11) 0.31303(11) 0.33545(11)
N7 N -0.21164(13) 0.34606(16) 0.30939(16)
N8 N -0.10660(18) 0.4833(2) 0.19747(19)
C1 C 0.07187(14) 0.58552(13) 0.17347(14)
H5 H 0.1001 0.5764 0.1395
C2 C 0.00328(14) 0.63435(13) 0.23207(13)
C3 C -0.04221(17) 0.68165(15) 0.25380(16)
C4 C 0.01875(15) 0.57608(14) 0.26065(14)
C5 C -0.0055(2) 0.54746(17) 0.31866(17)
C6 C 0.01317(13) 0.33618(13) 0.31707(13)
H6 H 0.0519 0.3188 0.3322
C7 C -0.05347(13) 0.39529(14) 0.26622(14)
C8 C -0.08096(16) 0.44457(18) 0.22663(17)
C9 C -0.08737(12) 0.35133(14) 0.30258(14)
C10 C -0.15655(14) 0.34665(15) 0.30686(15)
Cd1E Cd -0.27654(2) 0.40089(2) 0.56068(2)
O1E O -0.36712(10) 0.46844(11) 0.57489(11)
H1E H -0.3656 0.4876 0.6125
H2E H -0.3680 0.4982 0.5448
O2E O -0.29881(11) 0.35748(10) 0.66279(9)
H3E H -0.2886 0.3157 0.6643
H4E H -0.2763 0.3773 0.6937
N1E N -0.27718(11) 0.43694(11) 0.45511(11)
N2E N -0.32403(11) 0.46249(11) 0.35978(11)
N3E N -0.22909(19) 0.57888(18) 0.28115(16)
N4E N -0.13690(18) 0.5234(3) 0.4786(2)
N5E N -0.22441(11) 0.48841(11) 0.61424(11)
N6E N -0.16455(11) 0.54454(11) 0.68697(11)
N7E N -0.19061(16) 0.71164(13) 0.65394(16)
N8E N -0.30253(19) 0.60660(18) 0.5167(2)
C1E C -0.32653(14) 0.42813(14) 0.41448(13)
H5E H -0.3605 0.3999 0.4236
C2E C -0.26793(13) 0.49672(14) 0.36565(13)
C3E C -0.24620(16) 0.54221(17) 0.31835(15)
C4E C -0.23935(14) 0.48125(15) 0.42392(14)
C5E C -0.18134(17) 0.5055(2) 0.45254(17)
C6E C -0.18293(13) 0.48683(13) 0.66382(13)
H6E H -0.1678 0.4481 0.6812
C7E C -0.23378(14) 0.55347(13) 0.60471(14)
C8E C -0.27337(17) 0.58096(16) 0.55543(18)
C9E C -0.19742(14) 0.58737(12) 0.64867(14)
C10E C -0.19314(15) 0.65655(14) 0.65335(15)
Cd1K Cd 0.06068(2) 0.77654(2) 0.59911(2)
O1K O 0.07489(11) 0.86712(10) 0.53156(11)
H1K H 0.1125 0.8656 0.5124
H2K H 0.0448 0.8680 0.5018
O2K O 0.16279(9) 0.79881(11) 0.64252(10)
H3K H 0.1643 0.7886 0.6843
H4K H 0.1937 0.7763 0.6227
N1K N -0.04489(11) 0.77718(11) 0.56306(11)
N2K N -0.14022(11) 0.82403(11) 0.53751(11)
N3K N -0.21885(16) 0.72909(19) 0.42112(18)
N4K N -0.0214(2) 0.63690(18) 0.4766(3)
N5K N 0.11424(11) 0.72441(11) 0.51159(11)
N6K N 0.18697(11) 0.66455(11) 0.45546(11)
N7K N 0.15394(16) 0.69061(16) 0.28836(13)
N8K N 0.0167(2) 0.80253(19) 0.39340(18)
C1K C -0.08552(13) 0.82653(14) 0.57187(14)
H5K H -0.0764 0.8605 0.6001
C2K C -0.13435(13) 0.76793(13) 0.50328(14)
C3K C -0.18165(15) 0.74620(16) 0.45779(17)
C4K C -0.07608(14) 0.73935(14) 0.51875(15)
C5K C -0.04746(17) 0.68134(17) 0.4945(2)
C6K C 0.16382(13) 0.68293(13) 0.51317(13)
H6K H 0.1812 0.6678 0.5519
C7K C 0.10471(14) 0.73378(14) 0.44653(13)
C8K C 0.05543(18) 0.77337(17) 0.41904(16)
C9K C 0.14867(14) 0.69742(14) 0.41263(12)
C10K C 0.15335(15) 0.69314(15) 0.34345(14)
Cd1L Cd -0.09911(2) 0.56068(2) 0.77654(2)
O1L O -0.03156(11) 0.57489(11) 0.86712(10)
H1L H -0.0124 0.6125 0.8656
H2L H -0.0018 0.5448 0.8680
O2L O -0.14252(10) 0.66279(9) 0.79881(11)
H3L H -0.1843 0.6643 0.7886
H4L H -0.1227 0.6937 0.7763
N1L N -0.06306(11) 0.45511(11) 0.77718(11)
N2L N -0.03751(11) 0.35978(11) 0.82403(11)
N3L N 0.07888(18) 0.28115(16) 0.72909(19)
N4L N 0.0234(3) 0.4786(2) 0.63690(18)
N5L N -0.01159(11) 0.61424(11) 0.72441(11)
N6L N 0.04454(11) 0.68697(11) 0.66455(11)
N7L N 0.21164(13) 0.65394(16) 0.69061(16)
N8L N 0.10660(18) 0.5167(2) 0.80253(19)
C1L C -0.07187(14) 0.41448(13) 0.82653(14)
H5L H -0.1001 0.4236 0.8605
C2L C -0.00328(14) 0.36565(13) 0.76793(13)
C3L C 0.04221(17) 0.31835(15) 0.74620(16)
C4L C -0.01875(15) 0.42392(14) 0.73935(14)
C5L C 0.0055(2) 0.45254(17) 0.68134(17)
C6L C -0.01317(13) 0.66382(13) 0.68293(13)
H6L H -0.0519 0.6812 0.6678
C7L C 0.05347(13) 0.60471(14) 0.73378(14)
C8L C 0.08096(16) 0.55543(18) 0.77337(17)
C9L C 0.08737(12) 0.64867(14) 0.69742(14)
C10L C 0.15655(14) 0.65335(15) 0.69314(15)
Cd1Q Cd 0.27654(2) 0.59911(2) 0.43932(2)
O1Q O 0.36712(10) 0.53156(11) 0.42511(11)
H1Q H 0.3656 0.5124 0.3875
H2Q H 0.3680 0.5018 0.4552
O2Q O 0.29881(11) 0.64252(10) 0.33721(9)
H3Q H 0.2886 0.6843 0.3357
H4Q H 0.2763 0.6227 0.3063
N1Q N 0.27718(11) 0.56306(11) 0.54489(11)
N2Q N 0.32403(11) 0.53751(11) 0.64022(11)
N3Q N 0.22909(19) 0.42112(18) 0.71885(16)
N4Q N 0.13690(18) 0.4766(3) 0.5214(2)
N5Q N 0.22441(11) 0.51159(11) 0.38576(11)
N6Q N 0.16455(11) 0.45546(11) 0.31303(11)
N7Q N 0.19061(16) 0.28836(13) 0.34606(16)
N8Q N 0.30253(19) 0.39340(18) 0.4833(2)
C1Q C 0.32653(14) 0.57187(14) 0.58552(13)
H5Q H 0.3605 0.6001 0.5764
C2Q C 0.26793(13) 0.50328(14) 0.63435(13)
C3Q C 0.24620(16) 0.45779(17) 0.68165(15)
C4Q C 0.23935(14) 0.51875(15) 0.57608(14)
C5Q C 0.18134(17) 0.4945(2) 0.54746(17)
C6Q C 0.18293(13) 0.51317(13) 0.33618(13)
H6Q H 0.1678 0.5519 0.3188
C7Q C 0.23378(14) 0.44653(13) 0.39529(14)
C8Q C 0.27337(17) 0.41904(16) 0.44457(18)
C9Q C 0.19742(14) 0.41263(12) 0.35133(14)
C10Q C 0.19314(15) 0.34345(14) 0.34665(15)
Cd1W Cd -0.06068(2) 0.22346(2) 0.40089(2)
O1W O -0.07489(11) 0.13288(10) 0.46844(11)
H1W H -0.1125 0.1344 0.4876
H2W H -0.0448 0.1320 0.4982
O2W O -0.16279(9) 0.20119(11) 0.35748(10)
H3W H -0.1643 0.2114 0.3157
H4W H -0.1937 0.2237 0.3773
N1W N 0.04489(11) 0.22282(11) 0.43694(11)
N2W N 0.14022(11) 0.17597(11) 0.46249(11)
N3W N 0.21885(16) 0.27091(19) 0.57888(18)
N4W N 0.0214(2) 0.36310(18) 0.5234(3)
N5W N -0.11424(11) 0.27559(11) 0.48841(11)
N6W N -0.18697(11) 0.33545(11) 0.54454(11)
N7W N -0.15394(16) 0.30939(16) 0.71164(13)
N8W N -0.0167(2) 0.19747(19) 0.60660(18)
C1W C 0.08552(13) 0.17347(14) 0.42813(14)
H5W H 0.0764 0.1395 0.3999
C2W C 0.13435(13) 0.23207(13) 0.49672(14)
C3W C 0.18165(15) 0.25380(16) 0.54221(17)
C4W C 0.07608(14) 0.26065(14) 0.48125(15)
C5W C 0.04746(17) 0.31866(17) 0.5055(2)
C6W C -0.16382(13) 0.31707(13) 0.48683(13)
H6W H -0.1812 0.3322 0.4481
C7W C -0.10471(14) 0.26622(14) 0.55347(13)
C8W C -0.05543(18) 0.22663(17) 0.58096(16)
C9W C -0.14867(14) 0.30258(14) 0.58737(12)
C10W C -0.15335(15) 0.30686(15) 0.65655(14)
Cd1A Cd 0.40089(2) 0.56068(2) 0.72346(2)
Cd1D Cd 0.22346(2) 0.09911(2) 0.43932(2)
Cd1J Cd -0.06068(2) 0.27654(2) 0.90089(2)
Cd1M Cd -0.40089(2) 0.43932(2) 0.27654(2)
Cd1P Cd -0.22346(2) 0.90089(2) 0.56068(2)
Cd1V Cd 0.06068(2) 0.72346(2) 0.09911(2)
N2B N -0.03751(11) 0.14022(11) 0.32403(11)
N2G N -0.17597(11) 0.53751(11) 0.85978(11)
N2I N 0.35978(11) 0.67597(11) 0.46249(11)
N2N N 0.03751(11) 0.85978(11) 0.67597(11)
N2S N 0.17597(11) 0.46249(11) 0.14022(11)
N2U N -0.35978(11) 0.32403(11) 0.53751(11)
Cl1 Cl 0.0000 0.5000 0.0000
loop_
_geom_bond_atom_site_label_1
_geom_bond_atom_site_label_2
_geom_bond_site_symmetry_1
_geom_bond_site_symmetry_2
Cd1 O1 1_555 1_555
Rb1 N4 1_555 1_555
O1 H1 1_555 1_555
H2 O1 1_555 1_555
O2 Cd1 1_555 1_555
H3 O2 1_555 1_555
H4 O2 1_555 1_555
N1 Cd1 1_555 1_555
N2 C1 1_555 1_555
N3 C3 1_555 1_555
N4 C5 1_555 1_555
N5 Cd1 1_555 1_555
N6 C6 1_555 1_555
N7 C10 1_555 1_555
N8 C8 1_555 1_555
C1 N1 1_555 1_555
H5 C1 1_555 1_555
C2 N2 1_555 1_555
C3 C2 1_555 1_555
C4 N1 1_555 1_555
C5 C4 1_555 1_555
C6 N5 1_555 1_555
H6 C6 1_555 1_555
C7 N5 1_555 1_555
C8 C7 1_555 1_555
C9 N6 1_555 1_555
C10 C9 1_555 1_555
Cd1E O1E 1_555 1_555
O1E H1E 1_555 1_555
H2E O1E 1_555 1_555
O2E Cd1E 1_555 1_555
H3E O2E 1_555 1_555
H4E O2E 1_555 1_555
N1E Cd1E 1_555 1_555
N2E C1E 1_555 1_555
N3E C3E 1_555 1_555
N4E Rb1 1_555 1_555
N5E Cd1E 1_555 1_555
N6E C6E 1_555 1_555
N7E C10E 1_555 1_555
N8E C8E 1_555 1_555
C1E N1E 1_555 1_555
H5E C1E 1_555 1_555
C2E N2E 1_555 1_555
C3E C2E 1_555 1_555
C4E N1E 1_555 1_555
C5E N4E 1_555 1_555
C6E N5E 1_555 1_555
H6E C6E 1_555 1_555
C7E N5E 1_555 1_555
C8E C7E 1_555 1_555
C9E N6E 1_555 1_555
C10E C9E 1_555 1_555
Cd1K O1K 1_555 1_555
O1K H1K 1_555 1_555
H2K O1K 1_555 1_555
O2K Cd1K 1_555 1_555
H3K O2K 1_555 1_555
H4K O2K 1_555 1_555
N1K Cd1K 1_555 1_555
N2K C1K 1_555 1_555
N3K C3K 1_555 1_555
N4K Rb1 1_555 1_555
N5K Cd1K 1_555 1_555
N6K C6K 1_555 1_555
N7K C10K 1_555 1_555
N8K C8K 1_555 1_555
C1K N1K 1_555 1_555
H5K C1K 1_555 1_555
C2K N2K 1_555 1_555
C3K C2K 1_555 1_555
C4K N1K 1_555 1_555
C5K N4K 1_555 1_555
C6K N5K 1_555 1_555
H6K C6K 1_555 1_555
C7K N5K 1_555 1_555
C8K C7K 1_555 1_555
C9K N6K 1_555 1_555
C10K C9K 1_555 1_555
Cd1L N6E 1_555 1_555
O1L Cd1L 1_555 1_555
H1L O1L 1_555 1_555
H2L O1L 1_555 1_555
O2L Cd1L 1_555 1_555
H3L O2L 1_555 1_555
H4L O2L 1_555 1_555
N1L Cd1L 1_555 1_555
N2L C1L 1_555 1_555
N3L C3L 1_555 1_555
N4L Rb1 1_555 1_555
N5L Cd1L 1_555 1_555
N6L Cd1K 1_555 1_555
N7L C10L 1_555 1_555
N8L C8L 1_555 1_555
C1L N1L 1_555 1_555
H5L C1L 1_555 1_555
C2L N2L 1_555 1_555
C3L C2L 1_555 1_555
C4L N1L 1_555 1_555
C5L N4L 1_555 1_555
C6L N5L 1_555 1_555
H6L C6L 1_555 1_555
C7L N5L 1_555 1_555
C8L C7L 1_555 1_555
C9L N6L 1_555 1_555
C10L C9L 1_555 1_555
Cd1Q N6K 1_555 1_555
O1Q Cd1Q 1_555 1_555
H1Q O1Q 1_555 1_555
H2Q O1Q 1_555 1_555
O2Q Cd1Q 1_555 1_555
H3Q O2Q 1_555 1_555
H4Q O2Q 1_555 1_555
N1Q Cd1Q 1_555 1_555
N2Q C1Q 1_555 1_555
N3Q C3Q 1_555 1_555
N4Q Rb1 1_555 1_555
N5Q Cd1Q 1_555 1_555
N6Q Cd1 1_555 1_555
N7Q C10Q 1_555 1_555
N8Q C8Q 1_555 1_555
C1Q N1Q 1_555 1_555
H5Q C1Q 1_555 1_555
C2Q N2Q 1_555 1_555
C3Q C2Q 1_555 1_555
C4Q N1Q 1_555 1_555
C5Q N4Q 1_555 1_555
C6Q N5Q 1_555 1_555
H6Q C6Q 1_555 1_555
C7Q N5Q 1_555 1_555
C8Q C7Q 1_555 1_555
C9Q N6Q 1_555 1_555
C10Q C9Q 1_555 1_555
Cd1W N6 1_555 1_555
O1W Cd1W 1_555 1_555
H1W O1W 1_555 1_555
H2W O1W 1_555 1_555
O2W Cd1W 1_555 1_555
H3W O2W 1_555 1_555
H4W O2W 1_555 1_555
N1W Cd1W 1_555 1_555
N2W C1W 1_555 1_555
N3W C3W 1_555 1_555
N4W Rb1 1_555 1_555
N5W Cd1W 1_555 1_555
N6W Cd1E 1_555 1_555
N7W C10W 1_555 1_555
N8W C8W 1_555 1_555
C1W N1W 1_555 1_555
H5W C1W 1_555 1_555
C2W N2W 1_555 1_555
C3W C2W 1_555 1_555
C4W N1W 1_555 1_555
C5W N4W 1_555 1_555
C6W N5W 1_555 1_555
H6W C6W 1_555 1_555
C7W N5W 1_555 1_555
C8W C7W 1_555 1_555
C9W N6W 1_555 1_555
C10W C9W 1_555 1_555
Cd1A N2Q 1_555 1_555
Cd1D N2W 1_555 1_555
Cd1J N2L 1_555 1_555
Cd1M N2E 1_555 1_555
Cd1P N2K 1_555 1_555
Cd1V N2 1_555 1_555
N2B Cd1W 1_555 1_555
N2G Cd1L 1_555 1_555
N2I Cd1Q 1_555 1_555
N2N Cd1K 1_555 1_555
N2S Cd1 1_555 1_555
N2U Cd1E 1_555 1_555
C2 C4 1_555 1_555
C7 C9 1_555 1_555
C2E C4E 1_555 1_555
C4E C5E 1_555 1_555
C7E C9E 1_555 1_555
C2K C4K 1_555 1_555
C4K C5K 1_555 1_555
C7K C9K 1_555 1_555
N6L C6L 1_555 1_555
C2L C4L 1_555 1_555
C4L C5L 1_555 1_555
C7L C9L 1_555 1_555
N6Q C6Q 1_555 1_555
C2Q C4Q 1_555 1_555
C4Q C5Q 1_555 1_555
C7Q C9Q 1_555 1_555
N6W C6W 1_555 1_555
C2W C4W 1_555 1_555
C4W C5W 1_555 1_555
C7W C9W 1_555 1_555

#END
