
#######################################################################
#
#                 Cambridge Crystallographic Data Centre
#                                CCDC 
#
#######################################################################
#
# If this CIF has been generated from an entry in the Cambridge 
# Structural Database, then it will include bibliographic, chemical, 
# crystal, experimental, refinement or atomic coordinate data resulting 
# from the CCDC's data processing and validation procedures.
#
#######################################################################

data_AHAPUU
_symmetry_cell_setting           monoclinic
_symmetry_space_group_name_H-M   'P 21/n'
_symmetry_Int_Tables_number      14
_space_group_name_Hall           '-P 2yn'
loop_
_symmetry_equiv_pos_site_id
_symmetry_equiv_pos_as_xyz
1 x,y,z
2 1/2+x,1/2-y,1/2+z
3 -x,-y,-z
4 1/2-x,1/2+y,1/2-z
_cell_length_a                   13.707(5)
_cell_length_b                   18.445(6)
_cell_length_c                   15.296(5)
_cell_angle_alpha                90
_cell_angle_beta                 90.016(8)
_cell_angle_gamma                90
_cell_volume                     3867.22
loop_
_atom_site_label
_atom_site_type_symbol
_atom_site_fract_x
_atom_site_fract_y
_atom_site_fract_z
Fe1 Fe 0.75209(3) -0.24962(3) -0.50966(3)
Co1 Co 0.50483(3) -0.27738(2) -0.25761(3)
N1 N 0.5857(2) -0.20237(15) -0.20386(18)
N2 N 0.60252(18) -0.27660(14) -0.34331(17)
N3 N 0.44728(18) -0.35104(14) -0.33194(17)
N4 N 0.4246(2) -0.20271(15) -0.31234(17)
N5 N 0.40593(18) -0.27637(15) -0.17275(17)
N6 N 0.56151(19) -0.35127(14) -0.18231(17)
O1 O 0.74862(16) -0.22093(14) -0.38079(15)
O2 O 0.63602(16) -0.31760(13) -0.48394(14)
O3 O 0.25742(16) -0.22331(13) -0.13850(15)
O4 O 0.36901(16) -0.31870(13) -0.03377(14)
C1 C 0.5678(3) -0.1645(2) -0.1317(2)
H1 H 0.5114 -0.1745 -0.0989
C2 C 0.6315(3) -0.1100(2) -0.1036(3)
H2 H 0.6183 -0.0841 -0.0520
C3 C 0.7141(3) -0.0944(2) -0.1520(3)
H3 H 0.7570 -0.0576 -0.1342
C4 C 0.7323(3) -0.1340(2) -0.2269(2)
H4 H 0.7880 -0.1247 -0.2609
C5 C 0.6671(2) -0.18745(18) -0.2507(2)
C6 C 0.6783(2) -0.22994(17) -0.3319(2)
C7 C 0.5856(2) -0.31709(16) -0.41765(19)
C8 C 0.4958(2) -0.36101(17) -0.4082(2)
C9 C 0.4657(2) -0.40847(19) -0.4717(2)
H5 H 0.5007 -0.4134 -0.5242
C10 C 0.3814(3) -0.4493(2) -0.4563(2)
H6 H 0.3587 -0.4826 -0.4981
C11 C 0.3327(3) -0.4396(2) -0.3790(2)
H7 H 0.2761 -0.4668 -0.3674
C12 C 0.3662(2) -0.39017(18) -0.3179(2)
H8 H 0.3315 -0.3839 -0.2654
C13 C 0.4430(3) -0.1638(2) -0.3844(2)
H9 H 0.5004 -0.1732 -0.4161
C14 C 0.3804(3) -0.1105(2) -0.4135(3)
H10 H 0.3953 -0.0839 -0.4642
C15 C 0.2947(3) -0.0962(2) -0.3674(3)
H11 H 0.2509 -0.0604 -0.3867
C16 C 0.2757(3) -0.13600(19) -0.2924(2)
H12 H 0.2190 -0.1276 -0.2594
C17 C 0.3421(2) -0.18833(18) -0.2673(2)
C18 C 0.3292(2) -0.23106(17) -0.1863(2)
C19 C 0.4201(2) -0.31786(17) -0.0989(2)
C20 C 0.5104(2) -0.36184(17) -0.1072(2)
C21 C 0.5396(2) -0.40996(18) -0.0435(2)
H13 H 0.5035 -0.4153 0.0083
C22 C 0.6236(3) -0.45034(19) -0.0575(2)
H14 H 0.6450 -0.4839 -0.0154
C23 C 0.6749(3) -0.4405(2) -0.1334(2)
H15 H 0.7317 -0.4677 -0.1440
C24 C 0.6427(2) -0.38993(19) -0.1954(2)
H16 H 0.6787 -0.3831 -0.2471
Cl1 Cl 0.85125(8) -0.40790(6) -0.48477(9)
O5 O 0.86285(18) -0.32834(14) -0.48387(18)
O6 O 0.7805(3) -0.4271(2) -0.4218(3)
O7 O 0.9433(3) -0.4376(2) -0.4629(3)
O8 O 0.8218(4) -0.4294(2) -0.5712(3)
Cl2 Cl 0.65089(8) -0.09548(6) -0.55682(8)
O9 O 0.63795(18) -0.17116(14) -0.53159(18)
O10 O 0.7097(3) -0.0938(2) -0.6331(3)
O11 O 0.6969(3) -0.0578(2) -0.4889(4)
O12 O 0.5552(2) -0.06691(19) -0.5739(3)
O3A O 0.75742(16) -0.27669(13) -0.63850(15)
O4A O 0.86901(16) -0.18130(13) -0.53377(14)
Fe1A Fe 0.25209(3) -0.25038(3) -0.00966(3)
Cl3 Cl 0.00507(7) -0.05901(5) -0.25125(7)
O13 O -0.0566(2) -0.01526(18) -0.1969(2)
O14 O -0.0536(2) -0.0998(2) -0.3117(2)
O15 O 0.0604(3) -0.1063(2) -0.1965(2)
O16 O 0.0690(3) -0.01359(19) -0.3010(2)
C25 C 0.5449(5) -0.0254(4) -0.7821(4)
H17 H 0.5843 -0.0648 -0.7592
H18 H 0.5791 0.0201 -0.7739
H19 H 0.5334 -0.0332 -0.8440
N7 N 0.4496(5) -0.0230(3) -0.7349(4)
O17 O 0.4336(7) 0.0364(4) -0.7035(4)
O18 O 0.4055(4) -0.0769(5) -0.7295(5)
C27 C 0.9007(15) -0.2659(10) -0.1467(12)
N9 N 0.8274(7) -0.2572(3) -0.0668(5)
O21 O 0.8343(7) -0.2335(5) 0.0087(6)
O22 O 0.7597(6) -0.2800(4) -0.1020(6)
O26 O 0.0378(12) -0.2582(7) -0.3543(15)
C26? C 0.1061(10) -0.2412(7) -0.4494(10)
H20? H 0.0577 -0.2640 -0.4866
H21? H 0.1674 -0.2375 -0.4807
H22? H 0.0840 -0.1931 -0.4331
N8? N 0.1178(8) -0.2782(8) -0.3829(8)
O19? O 0.1670(5) -0.2961(4) -0.3038(5)
O20? O 0.1401(6) -0.3499(5) -0.4110(6)
C28? C 0.8156(13) -0.2858(11) -0.176(2)
N10? N 0.8911(12) -0.2643(7) -0.1191(8)
O23? O 0.9688(14) -0.2700(10) -0.1777(18)
O24? O 0.9068(13) -0.2387(12) -0.0666(16)
O25? O 0.1462(13) -0.2972(6) -0.3734(8)
loop_
_geom_bond_atom_site_label_1
_geom_bond_atom_site_label_2
_geom_bond_site_symmetry_1
_geom_bond_site_symmetry_2
Fe1 O1 1_555 1_555
Co1 N1 1_555 1_555
N1 C1 1_555 1_555
N2 Co1 1_555 1_555
N3 Co1 1_555 1_555
N4 Co1 1_555 1_555
N5 Co1 1_555 1_555
N6 Co1 1_555 1_555
O1 C6 1_555 1_555
O2 Fe1 1_555 1_555
O3 C18 1_555 1_555
O4 C19 1_555 1_555
C1 H1 1_555 1_555
C2 C1 1_555 1_555
H2 C2 1_555 1_555
C3 C2 1_555 1_555
H3 C3 1_555 1_555
C4 C3 1_555 1_555
H4 C4 1_555 1_555
C5 N1 1_555 1_555
C6 N2 1_555 1_555
C7 N2 1_555 1_555
C8 N3 1_555 1_555
C9 C8 1_555 1_555
H5 C9 1_555 1_555
C10 C9 1_555 1_555
H6 C10 1_555 1_555
C11 C10 1_555 1_555
H7 C11 1_555 1_555
C12 N3 1_555 1_555
H8 C12 1_555 1_555
C13 N4 1_555 1_555
H9 C13 1_555 1_555
C14 C13 1_555 1_555
H10 C14 1_555 1_555
C15 C14 1_555 1_555
H11 C15 1_555 1_555
C16 C15 1_555 1_555
H12 C16 1_555 1_555
C17 N4 1_555 1_555
C18 N5 1_555 1_555
C19 N5 1_555 1_555
C20 N6 1_555 1_555
C21 C20 1_555 1_555
H13 C21 1_555 1_555
C22 C21 1_555 1_555
H14 C22 1_555 1_555
C23 C22 1_555 1_555
H15 C23 1_555 1_555
C24 N6 1_555 1_555
H16 C24 1_555 1_555
Cl1 O5 1_555 1_555
O5 Fe1 1_555 1_555
O6 Cl1 1_555 1_555
O7 Cl1 1_555 1_555
O8 Cl1 1_555 1_555
Cl2 O9 1_555 1_555
O9 Fe1 1_555 1_555
O10 Cl2 1_555 1_555
O11 Cl2 1_555 1_555
O12 Cl2 1_555 1_555
Cl3 O13 1_555 1_555
O14 Cl3 1_555 1_555
O15 Cl3 1_555 1_555
O16 Cl3 1_555 1_555
C25 H17 1_555 1_555
H18 C25 1_555 1_555
H19 C25 1_555 1_555
N7 C25 1_555 1_555
O17 N7 1_555 1_555
O18 N7 1_555 1_555
C27 N9 1_555 1_555
N9 O21 1_555 1_555
O22 N9 1_555 1_555
O3A Fe1 1_555 1_555
O4A Fe1 1_555 1_555
Fe1A O3 1_555 1_555
O2 C7 1_555 1_555
O4 Fe1A 1_555 1_555
C4 C5 1_555 1_555
C5 C6 1_555 1_555
C7 C8 1_555 1_555
C11 C12 1_555 1_555
C16 C17 1_555 1_555
C17 C18 1_555 1_555
C19 C20 1_555 1_555
C23 C24 1_555 1_555

#END
