
#######################################################################
#
#                 Cambridge Crystallographic Data Centre
#                                CCDC 
#
#######################################################################
#
# If this CIF has been generated from an entry in the Cambridge 
# Structural Database, then it will include bibliographic, chemical, 
# crystal, experimental, refinement or atomic coordinate data resulting 
# from the CCDC's data processing and validation procedures.
#
#######################################################################

data_AHAPAB
_symmetry_cell_setting           monoclinic
_symmetry_space_group_name_H-M   'P 21/n'
_symmetry_Int_Tables_number      14
_space_group_name_Hall           '-P 2yn'
loop_
_symmetry_equiv_pos_site_id
_symmetry_equiv_pos_as_xyz
1 x,y,z
2 1/2-x,1/2+y,1/2-z
3 -x,-y,-z
4 1/2+x,1/2-y,1/2+z
_cell_length_a                   8.3116(10)
_cell_length_b                   10.1536(12)
_cell_length_c                   11.2120(14)
_cell_angle_alpha                90
_cell_angle_beta                 91.0920(10)
_cell_angle_gamma                90
_cell_volume                     946.039
loop_
_atom_site_label
_atom_site_type_symbol
_atom_site_fract_x
_atom_site_fract_y
_atom_site_fract_z
Cu1 Cu 0.0000 0.5000 0.5000
N1 N -0.0110(4) 0.3873(3) 0.6427(3)
C1 C 0.0684(5) 0.3558(4) 0.7429(4)
C2 C -0.1601(5) 0.3328(4) 0.6491(3)
C3 C 0.2389(5) 0.3871(5) 0.7719(4)
H1 H 0.2835 0.3150 0.8187
H2 H 0.2972 0.3904 0.6979
C4 C 0.2704(13) 0.5112(8) 0.8377(11)
H3 H 0.3858 0.5197 0.8495
H4 H 0.2353 0.5838 0.7874
C5 C 0.2018(12) 0.5249(9) 0.9434(10)
H5 H 0.0884 0.5395 0.9320
H6 H 0.2488 0.5987 0.9847
H7 H 0.2187 0.4464 0.9897
N2 N -0.0288(4) 0.2854(3) 0.8130(3)
H8 H -0.0037 0.2555 0.8827
C6 C -0.1748(5) 0.2690(4) 0.7553(3)
C7 C -0.3094(5) 0.1962(4) 0.8079(4)
O1 O -0.3004(4) 0.1542(4) 0.9095(3)
O2 O -0.4372(4) 0.1796(4) 0.7397(3)
C8 C -0.2658(5) 0.3451(4) 0.5409(3)
O3 O -0.2060(3) 0.4081(3) 0.4561(2)
O4 O -0.4005(4) 0.2907(3) 0.5390(3)
Cu1A Cu -0.5000 0.0000 1.0000
Cu1A_2 Cu 0.5000 1.0000 0.0000
N1B N 0.0110(4) 0.6127(3) 0.3573(3)
C1B C -0.0684(5) 0.6442(4) 0.2571(4)
C2B C 0.1601(5) 0.6672(4) 0.3509(3)
C3B C -0.2389(5) 0.6129(5) 0.2281(4)
H1B H -0.2835 0.6850 0.1813
H2B H -0.2972 0.6096 0.3021
C4B C -0.2704(13) 0.4888(8) 0.1623(11)
H3B H -0.3858 0.4803 0.1505
H4B H -0.2353 0.4162 0.2126
C5B C -0.2018(12) 0.4751(9) 0.0566(10)
H5B H -0.0884 0.4605 0.0680
H6B H -0.2488 0.4013 0.0153
H7B H -0.2187 0.5536 0.0103
N2B N 0.0288(4) 0.7146(3) 0.1870(3)
H8B H 0.0037 0.7445 0.1173
C6B C 0.1748(5) 0.7310(4) 0.2447(3)
C7B C 0.3094(5) 0.8038(4) 0.1921(4)
O1B O 0.3004(4) 0.8458(4) 0.0905(3)
O1A O -0.1996(4) 0.6542(4) 0.5905(3)
O1C O 0.1996(4) 0.3458(4) 0.4095(3)
O2B O 0.4372(4) 0.8204(4) 0.2603(3)
C8B C 0.2658(5) 0.6549(4) 0.4591(3)
O3B O 0.2060(3) 0.5919(3) 0.5439(2)
O4B O 0.4005(4) 0.7093(3) 0.4610(3)
loop_
_geom_bond_atom_site_label_1
_geom_bond_atom_site_label_2
_geom_bond_site_symmetry_1
_geom_bond_site_symmetry_2
Cu1 N1 1_555 1_555
N1 C1 1_555 1_555
C1 C3 1_555 1_555
C2 N1 1_555 1_555
C3 H1 1_555 1_555
H2 C3 1_555 1_555
C4 C3 1_555 1_555
H3 C4 1_555 1_555
H4 C4 1_555 1_555
C5 C4 1_555 1_555
H5 C5 1_555 1_555
H6 C5 1_555 1_555
H7 C5 1_555 1_555
N2 C1 1_555 1_555
H8 N2 1_555 1_555
C6 C2 1_555 1_555
C7 C6 1_555 1_555
O1 C7 1_555 1_555
O2 C7 1_555 1_555
C8 C2 1_555 1_555
O3 Cu1 1_555 1_555
O4 C8 1_555 1_555
Cu1A O1 1_555 1_555
Cu1A_2 O1B 1_555 1_555
N1B Cu1 1_555 1_555
C1B N1B 1_555 1_555
C2B N1B 1_555 1_555
C3B C1B 1_555 1_555
H1B C3B 1_555 1_555
H2B C3B 1_555 1_555
C4B C3B 1_555 1_555
H3B C4B 1_555 1_555
H4B C4B 1_555 1_555
C5B C4B 1_555 1_555
H5B C5B 1_555 1_555
H6B C5B 1_555 1_555
H7B C5B 1_555 1_555
N2B C1B 1_555 1_555
H8B N2B 1_555 1_555
C6B C2B 1_555 1_555
C7B C6B 1_555 1_555
O1B C7B 1_555 1_555
O1A Cu1 1_555 1_555
O1C Cu1 1_555 1_555
O2B C7B 1_555 1_555
C8B C2B 1_555 1_555
O3B Cu1 1_555 1_555
O4B C8B 1_555 1_555
N2 C6 1_555 1_555
C8 O3 1_555 1_555
N2B C6B 1_555 1_555
C8B O3B 1_555 1_555

#END
