
#######################################################################
#
#                 Cambridge Crystallographic Data Centre
#                                CCDC 
#
#######################################################################
#
# If this CIF has been generated from an entry in the Cambridge 
# Structural Database, then it will include bibliographic, chemical, 
# crystal, experimental, refinement or atomic coordinate data resulting 
# from the CCDC's data processing and validation procedures.
#
#######################################################################

data_AHAQEF
_symmetry_cell_setting           monoclinic
_symmetry_space_group_name_H-M   'P 21/n'
_symmetry_Int_Tables_number      14
_space_group_name_Hall           '-P 2yn'
loop_
_symmetry_equiv_pos_site_id
_symmetry_equiv_pos_as_xyz
1 x,y,z
2 1/2+x,1/2-y,1/2+z
3 -x,-y,-z
4 1/2-x,1/2+y,1/2-z
_cell_length_a                   13.7433(4)
_cell_length_b                   18.3871(5)
_cell_length_c                   15.4434(4)
_cell_angle_alpha                90
_cell_angle_beta                 90.1050(10)
_cell_angle_gamma                90
_cell_volume                     3902.53
loop_
_atom_site_label
_atom_site_type_symbol
_atom_site_fract_x
_atom_site_fract_y
_atom_site_fract_z
Fe1 Fe -0.24860(3) 0.24936(2) -0.00676(2)
Fe2 Fe -0.49679(3) 0.22237(2) 0.24481(2)
N1 N -0.41230(17) 0.29797(13) 0.29725(14)
N2 N -0.39836(16) 0.22325(12) 0.15808(14)
N3 N -0.55376(16) 0.14791(12) 0.16838(14)
N4 N -0.57982(17) 0.29853(13) 0.19139(14)
N5 N -0.59549(17) 0.22408(12) 0.33074(14)
N6 N -0.44091(16) 0.14783(13) 0.32250(14)
O1 O -0.25201(15) 0.27835(12) 0.12052(13)
O2 O -0.36407(14) 0.18102(11) 0.01969(12)
O3 O -0.74322(14) 0.27898(12) 0.36590(13)
O4 O -0.63305(15) 0.18154(11) 0.46877(12)
C1 C -0.4282(2) 0.33684(16) 0.36925(18)
H1 H -0.4836 0.3275 0.4020
C2 C -0.3642(2) 0.39066(18) 0.3962(2)
H2 H -0.3767 0.4167 0.4466
C3 C -0.2815(3) 0.40576(18) 0.3480(2)
H3 H -0.2383 0.4418 0.3655
C4 C -0.2647(2) 0.36560(17) 0.27267(19)
H4 H -0.2102 0.3743 0.2386
C5 C -0.3314(2) 0.31274(15) 0.25036(16)
C6 C -0.3211(2) 0.26971(15) 0.16973(17)
C7 C -0.4143(2) 0.18211(15) 0.08577(17)
C8 C -0.50375(19) 0.13800(15) 0.09309(17)
C9 C -0.5342(2) 0.09094(16) 0.02878(19)
H5 H -0.4993 0.0861 -0.0224
C10 C -0.6193(2) 0.05072(17) 0.0431(2)
H6 H -0.6416 0.0181 0.0016
C11 C -0.6693(2) 0.06003(18) 0.1192(2)
H7 H -0.7258 0.0336 0.1295
C12 C -0.6351(2) 0.10941(16) 0.18134(19)
H8 H -0.6696 0.1156 0.2326
C13 C -0.5632(2) 0.33727(16) 0.11914(18)
H9 H -0.5077 0.3278 0.0868
C14 C -0.6269(2) 0.39098(18) 0.0916(2)
H10 H -0.6136 0.4171 0.0415
C15 C -0.7100(2) 0.40591(18) 0.1384(2)
H11 H -0.7530 0.4420 0.1205
C16 C -0.7281(2) 0.36548(17) 0.21335(19)
H12 H -0.7836 0.3738 0.2463
C17 C -0.6619(2) 0.31315(15) 0.23716(17)
C18 C -0.6729(2) 0.27042(15) 0.31816(17)
C19 C -0.58152(19) 0.18271(14) 0.40288(17)
C20 C -0.49219(19) 0.13811(15) 0.39701(17)
C21 C -0.4639(2) 0.09057(16) 0.46123(19)
H13 H -0.5001 0.0857 0.5117
C22 C -0.3792(2) 0.04993(17) 0.4484(2)
H14 H -0.3584 0.0170 0.4902
C23 C -0.3269(2) 0.05916(18) 0.3731(2)
H15 H -0.2705 0.0324 0.3635
C24 C -0.3597(2) 0.10924(17) 0.31138(19)
H16 H -0.3237 0.1158 0.2610
Cl1 Cl -0.14565(8) 0.09338(5) 0.02211(10)
O5 O -0.13619(16) 0.17198(12) 0.01786(15)
O6 O -0.2127(3) 0.0750(2) 0.0832(4)
O7 O -0.0522(2) 0.06460(18) 0.0429(3)
O8 O -0.1769(4) 0.0689(2) -0.0614(4)
Cl2 Cl -0.34893(7) 0.40347(5) -0.05366(7)
O9 O -0.36254(16) 0.32701(12) -0.02899(16)
O10 O -0.2922(2) 0.40577(19) -0.1311(2)
O11 O -0.3010(3) 0.44006(19) 0.0135(3)
O12 O -0.4434(2) 0.43299(17) -0.0672(2)
O3A O -0.24322(14) 0.22102(12) -0.13410(13)
O4A O -0.13305(15) 0.31846(11) -0.03123(12)
Fe1A Fe -0.74860(3) 0.25064(2) 0.49324(2)
Cl3 Cl -0.49561(5) 0.05865(5) 0.74908(5)
O13 O -0.5519(2) 0.10180(17) 0.6887(2)
O14 O -0.4303(2) 0.01361(15) 0.70113(19)
O15 O -0.5595(2) 0.01488(16) 0.80025(19)
O16 O -0.4406(2) 0.10492(18) 0.8061(2)
Cl4 Cl -0.3785(3) 0.7006(3) 0.2305(3)
Cl5 Cl -0.2702(6) 0.7174(4) 0.1043(6)
C25 C -0.3876(7) 0.7354(7) 0.1297(6)
Cl8 Cl -0.3515(3) 0.24734(16) 0.5483(2)
C28 C -0.4458(10) 0.2581(7) 0.6396(10)
Cl9 Cl -0.3710(2) 0.30075(16) 0.7185(2)
C29 C -0.4601(13) 0.4449(7) 0.2082(10)
N7 N -0.4499(5) 0.5157(4) 0.2297(4)
O17 O -0.3976(6) 0.5741(5) 0.2314(6)
O18 O -0.5329(6) 0.5210(6) 0.2715(6)
O19 O -0.3553(9) 0.7657(5) 0.0122(8)
Cl6? Cl -0.3468(4) 0.7483(2) 0.0632(3)
C26? C -0.4355(7) 0.7359(6) 0.1391(5)
Cl7? Cl -0.3562(10) 0.3269(10) 0.6091(9)
C27? C -0.3922(12) 0.2770(8) 0.6210(8)
C30? C -0.4919(8) 0.5319(7) 0.2553(6)
Cl10? Cl -0.4196(3) 0.4786(2) 0.1880(2)
Cl11? Cl -0.5778(3) 0.4787(3) 0.3115(4)
loop_
_geom_bond_atom_site_label_1
_geom_bond_atom_site_label_2
_geom_bond_site_symmetry_1
_geom_bond_site_symmetry_2
Fe1 O1 1_555 1_555
Fe2 N1 1_555 1_555
N1 C1 1_555 1_555
N2 Fe2 1_555 1_555
N3 Fe2 1_555 1_555
N4 Fe2 1_555 1_555
N5 Fe2 1_555 1_555
N6 Fe2 1_555 1_555
O1 C6 1_555 1_555
O2 Fe1 1_555 1_555
O3 C18 1_555 1_555
O4 C19 1_555 1_555
C1 H1 1_555 1_555
C2 C1 1_555 1_555
H2 C2 1_555 1_555
C3 C2 1_555 1_555
H3 C3 1_555 1_555
C4 C3 1_555 1_555
H4 C4 1_555 1_555
C5 N1 1_555 1_555
C6 N2 1_555 1_555
C7 N2 1_555 1_555
C8 N3 1_555 1_555
C9 C8 1_555 1_555
H5 C9 1_555 1_555
C10 C9 1_555 1_555
H6 C10 1_555 1_555
C11 C10 1_555 1_555
H7 C11 1_555 1_555
C12 N3 1_555 1_555
H8 C12 1_555 1_555
C13 N4 1_555 1_555
H9 C13 1_555 1_555
C14 C13 1_555 1_555
H10 C14 1_555 1_555
C15 C14 1_555 1_555
H11 C15 1_555 1_555
C16 C15 1_555 1_555
H12 C16 1_555 1_555
C17 N4 1_555 1_555
C18 N5 1_555 1_555
C19 N5 1_555 1_555
C20 N6 1_555 1_555
C21 C20 1_555 1_555
H13 C21 1_555 1_555
C22 C21 1_555 1_555
H14 C22 1_555 1_555
C23 C22 1_555 1_555
H15 C23 1_555 1_555
C24 N6 1_555 1_555
H16 C24 1_555 1_555
Cl1 O5 1_555 1_555
O5 Fe1 1_555 1_555
O6 Cl1 1_555 1_555
O7 Cl1 1_555 1_555
O8 Cl1 1_555 1_555
Cl2 O9 1_555 1_555
O9 Fe1 1_555 1_555
O10 Cl2 1_555 1_555
O11 Cl2 1_555 1_555
O12 Cl2 1_555 1_555
Cl3 O13 1_555 1_555
O14 Cl3 1_555 1_555
O15 Cl3 1_555 1_555
O16 Cl3 1_555 1_555
Cl4 C25 1_555 1_555
Cl5 C25 1_555 1_555
Cl8 C28 1_555 1_555
C28 Cl9 1_555 1_555
C29 N7 1_555 1_555
N7 O17 1_555 1_555
O18 N7 1_555 1_555
O3A Fe1 1_555 1_555
O4A Fe1 1_555 1_555
Fe1A O3 1_555 1_555
O2 C7 1_555 1_555
O4 Fe1A 1_555 1_555
C4 C5 1_555 1_555
C5 C6 1_555 1_555
C7 C8 1_555 1_555
C11 C12 1_555 1_555
C16 C17 1_555 1_555
C17 C18 1_555 1_555
C19 C20 1_555 1_555
C23 C24 1_555 1_555

#END
