
#######################################################################
#
#                 Cambridge Crystallographic Data Centre
#                                CCDC 
#
#######################################################################
#
# If this CIF has been generated from an entry in the Cambridge 
# Structural Database, then it will include bibliographic, chemical, 
# crystal, experimental, refinement or atomic coordinate data resulting 
# from the CCDC's data processing and validation procedures.
#
#######################################################################

data_AHAWIQ
_symmetry_cell_setting           triclinic
_symmetry_space_group_name_H-M   'P -1'
_symmetry_Int_Tables_number      2
_space_group_name_Hall           '-P 1'
loop_
_symmetry_equiv_pos_site_id
_symmetry_equiv_pos_as_xyz
1 x,y,z
2 -x,-y,-z
_cell_length_a                   8.667(1)
_cell_length_b                   10.414(2)
_cell_length_c                   12.021(2)
_cell_angle_alpha                91.937(3)
_cell_angle_beta                 108.644(2)
_cell_angle_gamma                90.073(3)
_cell_volume                     1027.39
loop_
_atom_site_label
_atom_site_type_symbol
_atom_site_fract_x
_atom_site_fract_y
_atom_site_fract_z
Zn1 Zn -0.04492(7) 0.24332(6) 0.24087(5)
C1 C 0.1000(5) 0.4735(5) 0.3407(5)
C2 C 0.2291(5) 0.5491(4) 0.4351(4)
C3 C 0.3070(5) 0.6504(4) 0.4031(4)
H1 H 0.2722 0.6770 0.3260
C4 C 0.4373(5) 0.7124(4) 0.4865(4)
C5 C 0.4898(5) 0.6755(4) 0.6010(4)
H2 H 0.5775 0.7170 0.6566
C6 C 0.4077(5) 0.5737(4) 0.6318(4)
C7 C 0.2778(5) 0.5113(4) 0.5510(4)
H3 H 0.2234 0.4450 0.5735
C8 C 0.6490(5) 0.8713(5) 0.5236(4)
H4 H 0.7296 0.8082 0.5607
H5 H 0.6196 0.9191 0.5845
C9 C 0.7174(5) 0.9613(4) 0.4551(5)
C10 C 0.6922(6) 0.9399(5) 0.3361(5)
H6 H 0.6289 0.8704 0.2957
C11 C 0.7620(6) 1.0226(5) 0.2783(5)
H7 H 0.7459 1.0061 0.1989
C12 C 0.8760(5) 1.1462(4) 0.4464(5)
H8 H 0.9372 1.2178 0.4840
C13 C 0.8144(5) 1.0661(4) 0.5114(4)
H9 H 0.8373 1.0819 0.5917
C14 C 0.4176(6) 0.4260(5) 0.7836(4)
H10 H 0.4004 0.3596 0.7222
H11 H 0.3151 0.4406 0.7983
C15 C 0.5444(6) 0.3843(5) 0.8940(4)
C16 C 0.7069(6) 0.4129(5) 0.9182(5)
H12 H 0.7413 0.4621 0.8672
C17 C 0.8193(6) 0.3678(5) 1.0191(5)
H13 H 0.9291 0.3866 1.0339
C18 C 0.6177(6) 0.2723(5) 1.0725(5)
H14 H 0.5863 0.2250 1.1261
C19 C 0.4983(6) 0.3113(5) 0.9735(4)
H15 H 0.3896 0.2894 0.9600
C20 C 0.1349(8) 0.0773(7) 0.1590(6)
C21 C 0.2668(8) 0.0208(7) 0.1132(7)
H16 H 0.2435 0.0407 0.0321
H17 H 0.2687 -0.0708 0.1204
H18 H 0.3708 0.0569 0.1582
N1 N 0.8517(4) 1.1253(4) 0.3308(4)
N2 N 0.7758(5) 0.2985(4) 1.0959(4)
O1 O 0.0405(4) 0.5157(3) 0.2421(3)
O2 O 0.0624(4) 0.3636(3) 0.3710(3)
O3 O 0.5089(4) 0.8091(3) 0.4440(3)
O4 O 0.4730(4) 0.5415(3) 0.7477(3)
O5 O 0.1370(5) 0.1882(5) 0.1886(4)
O6 O 0.0280(8) 0.0008(6) 0.1646(6)
Zn1_2 Zn 0.95508(7) 0.24332(6) 1.24087(5)
Zn1_3 Zn 0.95508(7) 1.24332(6) 0.24087(5)
N1_2 N -0.1483(4) 0.1253(4) 0.3308(4)
N2_2 N -0.2242(5) 0.2985(4) 0.0959(4)
H19 H 0.950(12) 0.695(10) 0.200(10)
H20 H 0.976(10) 0.799(8) 0.169(8)
O7 O 0.8962(8) 0.7537(7) 0.1666(9)
loop_
_geom_bond_atom_site_label_1
_geom_bond_atom_site_label_2
_geom_bond_site_symmetry_1
_geom_bond_site_symmetry_2
Zn1 O2 1_555 1_555
C1 C2 1_555 1_555
C2 C3 1_555 1_555
C3 H1 1_555 1_555
C4 C3 1_555 1_555
C5 C4 1_555 1_555
H2 C5 1_555 1_555
C6 C5 1_555 1_555
C7 C2 1_555 1_555
H3 C7 1_555 1_555
C8 H4 1_555 1_555
H5 C8 1_555 1_555
C9 C8 1_555 1_555
C10 C9 1_555 1_555
H6 C10 1_555 1_555
C11 C10 1_555 1_555
H7 C11 1_555 1_555
C12 H8 1_555 1_555
C13 C9 1_555 1_555
H9 C13 1_555 1_555
C14 H10 1_555 1_555
H11 C14 1_555 1_555
C15 C14 1_555 1_555
C16 C15 1_555 1_555
H12 C16 1_555 1_555
C17 C16 1_555 1_555
H13 C17 1_555 1_555
C18 H14 1_555 1_555
C19 C15 1_555 1_555
H15 C19 1_555 1_555
C20 C21 1_555 1_555
C21 H16 1_555 1_555
H17 C21 1_555 1_555
H18 C21 1_555 1_555
N1 C11 1_555 1_555
N2 C17 1_555 1_555
O1 C1 1_555 1_555
O2 C1 1_555 1_555
O3 C4 1_555 1_555
O4 C6 1_555 1_555
O5 Zn1 1_555 1_555
O6 C20 1_555 1_555
H19 O7 1_555 1_555
H20 O7 1_555 1_555
Zn1_2 N2 1_555 1_555
Zn1_3 N1 1_555 1_555
N1_2 Zn1 1_555 1_555
N2_2 Zn1 1_555 1_555
C6 C7 1_555 1_555
C8 O3 1_555 1_555
C12 C13 1_555 1_555
C12 N1 1_555 1_555
C14 O4 1_555 1_555
C18 C19 1_555 1_555
C18 N2 1_555 1_555
C20 O5 1_555 1_555

#END
