
#######################################################################
#
#                 Cambridge Crystallographic Data Centre
#                                CCDC 
#
#######################################################################
#
# If this CIF has been generated from an entry in the Cambridge 
# Structural Database, then it will include bibliographic, chemical, 
# crystal, experimental, refinement or atomic coordinate data resulting 
# from the CCDC's data processing and validation procedures.
#
#######################################################################

data_AHAWUC
_symmetry_cell_setting           triclinic
_symmetry_space_group_name_H-M   'P -1'
_symmetry_Int_Tables_number      2
_space_group_name_Hall           '-P 1'
loop_
_symmetry_equiv_pos_site_id
_symmetry_equiv_pos_as_xyz
1 x,y,z
2 -x,-y,-z
_cell_length_a                   9.633(3)
_cell_length_b                   9.949(3)
_cell_length_c                   12.028(4)
_cell_angle_alpha                75.278(6)
_cell_angle_beta                 76.361(6)
_cell_angle_gamma                84.774(6)
_cell_volume                     1082.87
loop_
_atom_site_label
_atom_site_type_symbol
_atom_site_fract_x
_atom_site_fract_y
_atom_site_fract_z
Ni1 Ni 0.15395(4) -0.13182(4) 0.27995(3)
Cu1 Cu -0.03639(4) -0.33678(4) -0.01159(3)
O1 O -0.0673(2) -0.3564(2) 0.16338(17)
O2 O 0.0871(3) -0.1872(2) -0.01514(17)
N1 N 0.1687(3) -0.0878(2) 0.1131(2)
N2 N 0.2606(3) 0.0189(2) 0.2747(2)
N3 N 0.1781(3) -0.2188(3) 0.4337(2)
N4 N 0.0118(3) -0.2564(2) 0.2916(2)
N5 N 0.1614(3) -0.5078(3) -0.0195(2)
N6 N 0.2383(3) -0.4964(3) 0.0436(2)
N7 N 0.3122(4) -0.4800(4) 0.0994(3)
N8 N -0.0344(3) -0.2767(3) -0.1781(2)
N9 N 0.0235(3) -0.1735(3) -0.2403(2)
N10 N 0.0748(4) -0.0753(3) -0.3045(3)
C1 C 0.0047(3) -0.2737(3) 0.1881(3)
C2 C 0.0956(4) -0.1755(3) 0.0843(3)
C3 C 0.2587(3) 0.0108(3) 0.0254(3)
C4 C 0.2793(4) 0.0224(3) -0.0953(3)
H1 H 0.2324 -0.0369 -0.1217
C5 C 0.3684(4) 0.1208(3) -0.1767(3)
H2 H 0.3819 0.1250 -0.2566
C6 C 0.4372(4) 0.2123(4) -0.1411(3)
H3 H 0.4962 0.2786 -0.1962
C7 C 0.4170(4) 0.2038(3) -0.0227(3)
H4 H 0.4626 0.2656 0.0021
C8 C 0.3296(4) 0.1047(3) 0.0612(3)
C9 C 0.3171(4) 0.1092(3) 0.1824(3)
H5 H 0.3542 0.1861 0.1945
C10 C 0.2560(4) 0.0487(3) 0.3901(3)
H6 H 0.1578 0.0485 0.4344
H7 H 0.2926 0.1402 0.3777
C11 C 0.3447(4) -0.0594(4) 0.4601(3)
H8 H 0.4451 -0.0396 0.4294
H9 H 0.3202 -0.0535 0.5418
C12 C 0.3203(4) -0.2053(3) 0.4542(3)
H10 H 0.3928 -0.2306 0.3912
H11 H 0.3303 -0.2697 0.5276
C13 C 0.0912(4) -0.2993(3) 0.5151(3)
H12 H 0.1193 -0.3378 0.5856
C14 C -0.0464(3) -0.3350(3) 0.5061(2)
C15 C -0.1408(4) -0.3984(3) 0.6108(3)
H13 H -0.1130 -0.4145 0.6821
C16 C -0.2725(4) -0.4367(3) 0.6094(3)
H14 H -0.3352 -0.4766 0.6794
C17 C -0.3119(4) -0.4158(3) 0.5030(3)
H15 H -0.4024 -0.4402 0.5020
C18 C -0.2194(4) -0.3593(3) 0.3984(3)
H16 H -0.2473 -0.3485 0.3276
C19 C -0.0851(3) -0.3183(3) 0.3973(2)
Ni1A Ni -0.15395(4) 0.13182(4) -0.27995(3)
Ni1A_2 Ni -0.15395(4) -0.86818(4) -0.27995(3)
Cu1A Cu 0.03639(4) -0.66322(4) 0.01159(3)
Cu1_2 Cu -0.03639(4) -1.33678(4) -0.01159(3)
O1A O 0.0673(2) -0.6436(2) -0.16338(17)
O2A O -0.0871(3) -0.8128(2) 0.01514(17)
N1A N -0.1687(3) -0.9122(2) -0.1131(2)
N2A N -0.2606(3) -1.0189(2) -0.2747(2)
N3A N -0.1781(3) -0.7812(3) -0.4337(2)
N4A N -0.0118(3) -0.7436(2) -0.2916(2)
N5A N -0.1614(3) -0.4922(3) 0.0195(2)
N6A N -0.2383(3) -0.5036(3) -0.0436(2)
N7A N -0.3122(4) -0.5200(4) -0.0994(3)
N8A N 0.0344(3) -0.7233(3) 0.1781(2)
N8_2 N -0.0344(3) -1.2767(3) -0.1781(2)
N9_2 N 0.0235(3) -1.1735(3) -0.2403(2)
N10A N -0.0748(4) 0.0753(3) 0.3045(3)
N10_2 N 0.0748(4) -1.0753(3) -0.3045(3)
C1A C -0.0047(3) -0.7263(3) -0.1881(3)
C2A C -0.0956(4) -0.8245(3) -0.0843(3)
C3A C -0.2587(3) -1.0108(3) -0.0254(3)
C4A C -0.2793(4) -1.0224(3) 0.0953(3)
H1A H -0.2324 -0.9631 0.1217
C5A C -0.3684(4) -1.1208(3) 0.1767(3)
H2A H -0.3819 -1.1250 0.2566
C6A C -0.4372(4) -1.2123(4) 0.1411(3)
H3A H -0.4962 -1.2786 0.1962
C7A C -0.4170(4) -1.2038(3) 0.0227(3)
H4A H -0.4626 -1.2656 -0.0021
C8A C -0.3296(4) -1.1047(3) -0.0612(3)
C9A C -0.3171(4) -1.1092(3) -0.1824(3)
H5A H -0.3542 -1.1861 -0.1945
C10A C -0.2560(4) -1.0487(3) -0.3901(3)
H6A H -0.1578 -1.0485 -0.4344
H7A H -0.2926 -1.1402 -0.3777
C11A C -0.3447(4) -0.9406(4) -0.4601(3)
H8A H -0.4451 -0.9604 -0.4294
H9A H -0.3202 -0.9465 -0.5418
C12A C -0.3203(4) -0.7947(3) -0.4542(3)
H10A H -0.3928 -0.7694 -0.3912
H11A H -0.3303 -0.7303 -0.5276
C13A C -0.0912(4) -0.7007(3) -0.5151(3)
H12A H -0.1193 -0.6622 -0.5856
C14A C 0.0464(3) -0.6650(3) -0.5061(2)
C15A C 0.1408(4) -0.6016(3) -0.6108(3)
H13A H 0.1130 -0.5855 -0.6821
C16A C 0.2725(4) -0.5633(3) -0.6094(3)
H14A H 0.3352 -0.5234 -0.6794
C17A C 0.3119(4) -0.5842(3) -0.5030(3)
H15A H 0.4024 -0.5598 -0.5020
C18A C 0.2194(4) -0.6407(3) -0.3984(3)
H16A H 0.2473 -0.6515 -0.3276
C19A C 0.0851(3) -0.6817(3) -0.3973(2)
O3 O 0.3257(4) -0.4144(3) 0.7281(2)
H17 H 0.2701 -0.4612 0.7840
C20 C 0.3848(5) -0.3168(4) 0.7657(3)
H18 H 0.3097 -0.2626 0.8038
H19 H 0.4434 -0.2567 0.6992
H20 H 0.4422 -0.3633 0.8203
loop_
_geom_bond_atom_site_label_1
_geom_bond_atom_site_label_2
_geom_bond_site_symmetry_1
_geom_bond_site_symmetry_2
Ni1 N1 1_555 1_555
Cu1 O1 1_555 1_555
O1 C1 1_555 1_555
O2 Cu1 1_555 1_555
N1 C2 1_555 1_555
N2 Ni1 1_555 1_555
N3 Ni1 1_555 1_555
N4 Ni1 1_555 1_555
N5 Cu1 1_555 1_555
N6 N5 1_555 1_555
N7 N6 1_555 1_555
N8 Cu1 1_555 1_555
N9 N8 1_555 1_555
N10 N9 1_555 1_555
C1 N4 1_555 1_555
C2 O2 1_555 1_555
C3 N1 1_555 1_555
C4 C3 1_555 1_555
H1 C4 1_555 1_555
C5 C4 1_555 1_555
H2 C5 1_555 1_555
C6 C5 1_555 1_555
H3 C6 1_555 1_555
C7 C6 1_555 1_555
H4 C7 1_555 1_555
C8 C3 1_555 1_555
C9 N2 1_555 1_555
H5 C9 1_555 1_555
C10 N2 1_555 1_555
H6 C10 1_555 1_555
H7 C10 1_555 1_555
C11 C10 1_555 1_555
H8 C11 1_555 1_555
H9 C11 1_555 1_555
C12 N3 1_555 1_555
H10 C12 1_555 1_555
H11 C12 1_555 1_555
C13 N3 1_555 1_555
H12 C13 1_555 1_555
C14 C13 1_555 1_555
C15 C14 1_555 1_555
H13 C15 1_555 1_555
C16 C15 1_555 1_555
H14 C16 1_555 1_555
C17 C16 1_555 1_555
H15 C17 1_555 1_555
C18 C17 1_555 1_555
H16 C18 1_555 1_555
C19 N4 1_555 1_555
O3 H17 1_555 1_555
C20 O3 1_555 1_555
H18 C20 1_555 1_555
H19 C20 1_555 1_555
H20 C20 1_555 1_555
Ni1A N10 1_555 1_555
Ni1A_2 N1A 1_555 1_555
Cu1A N5 1_555 1_555
Cu1_2 N8_2 1_555 1_555
O1A Cu1A 1_555 1_555
O2A Cu1A 1_555 1_555
N1A C2A 1_555 1_555
N2A Ni1A_2 1_555 1_555
N3A Ni1A_2 1_555 1_555
N4A Ni1A_2 1_555 1_555
N5A Cu1 1_555 1_555
N6A N5A 1_555 1_555
N7A N6A 1_555 1_555
N8A Cu1A 1_555 1_555
N8_2 N9_2 1_555 1_555
N9_2 N10_2 1_555 1_555
N10A Ni1 1_555 1_555
N10_2 Ni1A_2 1_555 1_555
C1A O1A 1_555 1_555
C2A O2A 1_555 1_555
C3A N1A 1_555 1_555
C4A C3A 1_555 1_555
H1A C4A 1_555 1_555
C5A C4A 1_555 1_555
H2A C5A 1_555 1_555
C6A C5A 1_555 1_555
H3A C6A 1_555 1_555
C7A C6A 1_555 1_555
H4A C7A 1_555 1_555
C8A C3A 1_555 1_555
C9A N2A 1_555 1_555
H5A C9A 1_555 1_555
C10A N2A 1_555 1_555
H6A C10A 1_555 1_555
H7A C10A 1_555 1_555
C11A C10A 1_555 1_555
H8A C11A 1_555 1_555
H9A C11A 1_555 1_555
C12A N3A 1_555 1_555
H10A C12A 1_555 1_555
H11A C12A 1_555 1_555
C13A N3A 1_555 1_555
H12A C13A 1_555 1_555
C14A C13A 1_555 1_555
C15A C14A 1_555 1_555
H13A C15A 1_555 1_555
C16A C15A 1_555 1_555
H14A C16A 1_555 1_555
C17A C16A 1_555 1_555
H15A C17A 1_555 1_555
C18A C17A 1_555 1_555
H16A C18A 1_555 1_555
C19A N4A 1_555 1_555
C1 C2 1_555 1_555
C7 C8 1_555 1_555
C8 C9 1_555 1_555
C11 C12 1_555 1_555
C14 C19 1_555 1_555
C18 C19 1_555 1_555
Cu1A N5A 1_555 1_555
N4A C1A 1_555 1_555
C1A C2A 1_555 1_555
C7A C8A 1_555 1_555
C8A C9A 1_555 1_555
C11A C12A 1_555 1_555
C14A C19A 1_555 1_555
C18A C19A 1_555 1_555

#END
