
#######################################################################
#
#                 Cambridge Crystallographic Data Centre
#                                CCDC 
#
#######################################################################
#
# If this CIF has been generated from an entry in the Cambridge 
# Structural Database, then it will include bibliographic, chemical, 
# crystal, experimental, refinement or atomic coordinate data resulting 
# from the CCDC's data processing and validation procedures.
#
#######################################################################

data_AHAXAJ
_symmetry_cell_setting           triclinic
_symmetry_space_group_name_H-M   'P -1'
_symmetry_Int_Tables_number      2
_space_group_name_Hall           '-P 1'
loop_
_symmetry_equiv_pos_site_id
_symmetry_equiv_pos_as_xyz
1 x,y,z
2 -x,-y,-z
_cell_length_a                   9.725(3)
_cell_length_b                   9.977(3)
_cell_length_c                   12.053(4)
_cell_angle_alpha                75.352(5)
_cell_angle_beta                 75.780(6)
_cell_angle_gamma                84.295(6)
_cell_volume                     1095.91
loop_
_atom_site_label
_atom_site_type_symbol
_atom_site_fract_x
_atom_site_fract_y
_atom_site_fract_z
Cu1 Cu 0.35894(5) -0.37891(5) 0.21739(4)
Cu2 Cu 0.53674(6) -0.16375(5) 0.51093(4)
N1 N 0.3311(4) -0.4124(3) 0.3908(3)
N2 N 0.4995(4) -0.2486(3) 0.2072(3)
N3 N 0.3277(4) -0.2806(3) 0.0607(3)
N4 N 0.2378(3) -0.5270(3) 0.2257(3)
N5 N 0.6591(4) -0.0078(3) 0.4807(3)
N6 N 0.2634(4) -0.0022(3) 0.4572(3)
N7 N 0.1875(5) -0.0188(5) 0.4028(3)
N8 N 0.4692(4) -0.7774(4) 0.3200(3)
N9 N 0.5158(4) -0.6688(4) 0.2587(3)
N10 N 0.5558(4) -0.5657(4) 0.1952(3)
O1 O 0.4160(3) -0.3131(3) 0.5159(2)
O2 O 0.5716(3) -0.1476(3) 0.3371(2)
C1 C 0.4069(4) -0.3272(4) 0.4167(3)
C2 C 0.5031(4) -0.2300(4) 0.3108(3)
C3 C 0.5928(4) -0.1826(4) 0.1012(3)
C4 C 0.7261(5) -0.1417(4) 0.0981(3)
H1 H 0.7551 -0.1542 0.1682
C5 C 0.8179(5) -0.0818(4) -0.0087(4)
H2 H 0.9079 -0.0576 -0.0089
C6 C 0.7754(5) -0.0581(4) -0.1144(3)
H3 H 0.8357 -0.0169 -0.1851
C7 C 0.6432(5) -0.0966(4) -0.1124(3)
H4 H 0.6136 -0.0782 -0.1827
C8 C 0.5515(4) -0.1626(4) -0.0081(3)
C9 C 0.4144(5) -0.1984(4) -0.0176(3)
H5 H 0.3870 -0.1573 -0.0876
C10 C 0.1880(5) -0.2943(4) 0.0390(4)
H6 H 0.1806 -0.2325 -0.0359
H7 H 0.1147 -0.2653 0.1000
C11 C 0.1611(5) -0.4420(5) 0.0368(4)
H8 H 0.1883 -0.4507 -0.0441
H9 H 0.0601 -0.4567 0.0647
C12 C 0.2406(5) -0.5561(4) 0.1112(3)
H10 H 0.1974 -0.6441 0.1244
H11 H 0.3383 -0.5640 0.0684
C13 C 0.1809(5) -0.6116(4) 0.3205(4)
H12 H 0.1412 -0.6880 0.3113
C14 C 0.1700(4) -0.6041(4) 0.4416(3)
C15 C 0.0825(5) -0.7027(4) 0.5264(4)
H13 H 0.0374 -0.7648 0.5025
C16 C 0.0626(5) -0.7084(4) 0.6451(4)
H14 H 0.0043 -0.7740 0.7007
C17 C 0.1286(5) -0.6178(4) 0.6804(4)
H15 H 0.1139 -0.6214 0.7603
C18 C 0.2174(5) -0.5203(4) 0.5990(3)
H16 H 0.2624 -0.4604 0.6253
C19 C 0.2407(4) -0.5102(4) 0.4775(3)
Cu1_2 Cu 0.35894(5) 0.62109(5) 0.21739(4)
Cu1A Cu 0.64106(5) 0.37891(5) 0.78261(4)
Cu2A Cu 0.46326(6) -0.83625(5) 0.48907(4)
Cu2A_2 Cu 0.46326(6) 0.16375(5) 0.48907(4)
N1A N 0.6689(4) 0.4124(3) 0.6092(3)
N2A N 0.5005(4) 0.2486(3) 0.7928(3)
N3A N 0.6723(4) 0.2806(3) 0.9393(3)
N4A N 0.7622(3) 0.5270(3) 0.7743(3)
N5A N 0.3409(4) 0.0078(3) 0.5193(3)
N6A N 0.7366(4) 0.0022(3) 0.5428(3)
N7A N 0.8125(5) 0.0188(5) 0.5972(3)
N8A N 0.5308(4) -0.2226(4) 0.6800(3)
N8_2 N 0.4692(4) 0.2226(4) 0.3200(3)
N9_2 N 0.5158(4) 0.3312(4) 0.2587(3)
N10_2 N 0.5558(4) 0.4343(4) 0.1952(3)
N10A N 0.4442(4) 0.5657(4) 0.8048(3)
O1A O 0.5840(3) 0.3131(3) 0.4841(2)
O2A O 0.4284(3) 0.1476(3) 0.6629(2)
C1A C 0.5931(4) 0.3272(4) 0.5833(3)
C2A C 0.4969(4) 0.2300(4) 0.6892(3)
C3A C 0.4072(4) 0.1826(4) 0.8988(3)
C4A C 0.2739(5) 0.1417(4) 0.9019(3)
H1A H 0.2449 0.1542 0.8318
C5A C 0.1821(5) 0.0818(4) 1.0087(4)
H2A H 0.0921 0.0576 1.0089
C6A C 0.2246(5) 0.0581(4) 1.1144(3)
H3A H 0.1643 0.0169 1.1851
C7A C 0.3568(5) 0.0966(4) 1.1124(3)
H4A H 0.3864 0.0782 1.1827
C8A C 0.4485(4) 0.1626(4) 1.0081(3)
C9A C 0.5856(5) 0.1984(4) 1.0176(3)
H5A H 0.6130 0.1573 1.0876
C10A C 0.8120(5) 0.2943(4) 0.9610(4)
H6A H 0.8194 0.2325 1.0359
H7A H 0.8853 0.2653 0.9000
C11A C 0.8389(5) 0.4420(5) 0.9632(4)
H8A H 0.8117 0.4507 1.0441
H9A H 0.9399 0.4567 0.9353
C12A C 0.7594(5) 0.5561(4) 0.8888(3)
H10A H 0.8026 0.6441 0.8756
H11A H 0.6617 0.5640 0.9316
C13A C 0.8191(5) 0.6116(4) 0.6795(4)
H12A H 0.8588 0.6880 0.6887
C14A C 0.8300(4) 0.6041(4) 0.5584(3)
C15A C 0.9175(5) 0.7027(4) 0.4736(4)
H13A H 0.9626 0.7648 0.4975
C16A C 0.9374(5) 0.7084(4) 0.3549(4)
H14A H 0.9957 0.7740 0.2993
C17A C 0.8714(5) 0.6178(4) 0.3196(4)
H15A H 0.8861 0.6214 0.2397
C18A C 0.7826(5) 0.5203(4) 0.4010(3)
H16A H 0.7376 0.4604 0.3747
C19A C 0.7593(4) 0.5102(4) 0.5225(3)
C20 C 0.8826(6) -0.8170(5) 0.2659(4)
H17 H 0.8046 -0.7686 0.3075
H18 H 0.9339 -0.7529 0.1984
H19 H 0.9449 -0.8584 0.3171
O3 O 0.8312(5) -0.9198(4) 0.2296(3)
H20 H 0.7656 -0.9571 0.2817
loop_
_geom_bond_atom_site_label_1
_geom_bond_atom_site_label_2
_geom_bond_site_symmetry_1
_geom_bond_site_symmetry_2
Cu1 N1 1_555 1_555
Cu2 N5 1_555 1_555
N1 C1 1_555 1_555
N2 Cu1 1_555 1_555
N3 Cu1 1_555 1_555
N4 Cu1 1_555 1_555
N5 Cu2A_2 1_555 1_555
N6 N7 1_555 1_555
N8 N9 1_555 1_555
N9 N10 1_555 1_555
N10 Cu1 1_555 1_555
O1 Cu2 1_555 1_555
O2 Cu2 1_555 1_555
C1 O1 1_555 1_555
C2 N2 1_555 1_555
C3 N2 1_555 1_555
C4 C3 1_555 1_555
H1 C4 1_555 1_555
C5 C4 1_555 1_555
H2 C5 1_555 1_555
C6 C5 1_555 1_555
H3 C6 1_555 1_555
C7 C6 1_555 1_555
H4 C7 1_555 1_555
C8 C3 1_555 1_555
C9 N3 1_555 1_555
H5 C9 1_555 1_555
C10 N3 1_555 1_555
H6 C10 1_555 1_555
H7 C10 1_555 1_555
C11 C10 1_555 1_555
H8 C11 1_555 1_555
H9 C11 1_555 1_555
C12 N4 1_555 1_555
H10 C12 1_555 1_555
H11 C12 1_555 1_555
C13 N4 1_555 1_555
H12 C13 1_555 1_555
C14 C13 1_555 1_555
C15 C14 1_555 1_555
H13 C15 1_555 1_555
C16 C15 1_555 1_555
H14 C16 1_555 1_555
C17 C16 1_555 1_555
H15 C17 1_555 1_555
C18 C17 1_555 1_555
H16 C18 1_555 1_555
C19 N1 1_555 1_555
C20 H17 1_555 1_555
H18 C20 1_555 1_555
H19 C20 1_555 1_555
O3 C20 1_555 1_555
H20 O3 1_555 1_555
Cu1_2 N10_2 1_555 1_555
Cu1A N1A 1_555 1_555
Cu2A N8 1_555 1_555
Cu2A_2 N5A 1_555 1_555
N1A C1A 1_555 1_555
N2A Cu1A 1_555 1_555
N3A Cu1A 1_555 1_555
N4A Cu1A 1_555 1_555
N5A Cu2 1_555 1_555
N6A N5 1_555 1_555
N7A N6A 1_555 1_555
N8A Cu2 1_555 1_555
N8_2 Cu2A_2 1_555 1_555
N9_2 N8_2 1_555 1_555
N10_2 N9_2 1_555 1_555
N10A Cu1A 1_555 1_555
O1A Cu2A_2 1_555 1_555
O2A Cu2A_2 1_555 1_555
C1A O1A 1_555 1_555
C2A N2A 1_555 1_555
C3A N2A 1_555 1_555
C4A C3A 1_555 1_555
H1A C4A 1_555 1_555
C5A C4A 1_555 1_555
H2A C5A 1_555 1_555
C6A C5A 1_555 1_555
H3A C6A 1_555 1_555
C7A C6A 1_555 1_555
H4A C7A 1_555 1_555
C8A C3A 1_555 1_555
C9A N3A 1_555 1_555
H5A C9A 1_555 1_555
C10A N3A 1_555 1_555
H6A C10A 1_555 1_555
H7A C10A 1_555 1_555
C11A C10A 1_555 1_555
H8A C11A 1_555 1_555
H9A C11A 1_555 1_555
C12A N4A 1_555 1_555
H10A C12A 1_555 1_555
H11A C12A 1_555 1_555
C13A N4A 1_555 1_555
H12A C13A 1_555 1_555
C14A C13A 1_555 1_555
C15A C14A 1_555 1_555
H13A C15A 1_555 1_555
C16A C15A 1_555 1_555
H14A C16A 1_555 1_555
C17A C16A 1_555 1_555
H15A C17A 1_555 1_555
C18A C17A 1_555 1_555
H16A C18A 1_555 1_555
C19A N1A 1_555 1_555
N6 N5A 1_555 1_555
O2 C2 1_555 1_555
C1 C2 1_555 1_555
C7 C8 1_555 1_555
C8 C9 1_555 1_555
C11 C12 1_555 1_555
C14 C19 1_555 1_555
C18 C19 1_555 1_555
O2A C2A 1_555 1_555
C1A C2A 1_555 1_555
C7A C8A 1_555 1_555
C8A C9A 1_555 1_555
C11A C12A 1_555 1_555
C14A C19A 1_555 1_555
C18A C19A 1_555 1_555

#END
