
#######################################################################
#
#                 Cambridge Crystallographic Data Centre
#                                CCDC 
#
#######################################################################
#
# If this CIF has been generated from an entry in the Cambridge 
# Structural Database, then it will include bibliographic, chemical, 
# crystal, experimental, refinement or atomic coordinate data resulting 
# from the CCDC's data processing and validation procedures.
#
#######################################################################

data_AHAXUD
_symmetry_cell_setting           monoclinic
_symmetry_space_group_name_H-M   'P 21/c'
_symmetry_Int_Tables_number      14
_space_group_name_Hall           '-P 2ybc'
loop_
_symmetry_equiv_pos_site_id
_symmetry_equiv_pos_as_xyz
1 x,y,z
2 -x,1/2+y,1/2-z
3 -x,-y,-z
4 x,1/2-y,1/2+z
_cell_length_a                   8.657
_cell_length_b                   10.743
_cell_length_c                   16.864
_cell_angle_alpha                90
_cell_angle_beta                 93.81
_cell_angle_gamma                90
_cell_volume                     1564.92
loop_
_atom_site_label
_atom_site_type_symbol
_atom_site_fract_x
_atom_site_fract_y
_atom_site_fract_z
Cd1 Cd 1.0000 0.0000 0.0000
V1 V 0.66275(17) -0.04460(18) 0.11562(9)
V2 V 1.36541(17) 0.15089(14) 0.06836(9)
O1 O 1.2043(7) 0.0778(7) 0.0843(4)
O2 O 0.8362(8) 0.0092(6) 0.1019(4)
O3 O 0.6698(8) -0.1212(8) 0.1990(4)
O4 O 0.5280(9) 0.0820(9) 0.1198(5)
O5 O 0.6064(9) -0.1478(8) 0.0360(4)
O6 O 1.3487(12) 0.2913(8) 0.0972(6)
N1 N 0.9220(9) 0.1921(8) -0.0408(5)
N2 N 0.7569(11) 0.3399(9) -0.0711(7)
N3 N 0.2044(9) 0.6132(8) -0.2138(5)
N4 N -0.0405(10) 0.6422(9) -0.2348(6)
C1 C 0.7761(13) 0.2213(9) -0.0512(7)
H1 H 0.6952 0.1657 -0.0453
C2 C 1.0042(13) 0.2972(11) -0.0564(8)
H2 H 1.1115 0.3044 -0.0540
C3 C 0.9005(15) 0.3891(11) -0.0761(10)
H3 H 0.9236 0.4703 -0.0902
C4 C 0.6034(17) 0.4055(13) -0.0828(9)
H4 H 0.5314 0.3710 -0.0470
H5 H 0.6165 0.4933 -0.0708
C5 C 0.542(2) 0.3905(18) -0.1642(10)
H6 H 0.5401 0.3031 -0.1787
H7 H 0.6059 0.4347 -0.1999
C6 C 0.372(2) 0.445(2) -0.1705(13)
H8 H 0.3026 0.3834 -0.1949
H9 H 0.3404 0.4613 -0.1175
C7 C 0.3598(13) 0.5582(12) -0.2163(8)
H10 H 0.3805 0.5405 -0.2710
H11 H 0.4367 0.6174 -0.1953
C8 C 0.1615(13) 0.7026(11) -0.1622(7)
H12 H 0.2266 0.7434 -0.1245
C9 C 0.0090(16) 0.7209(12) -0.1753(7)
H13 H -0.0515 0.7767 -0.1488
C10 C 0.0816(13) 0.5801(11) -0.2579(6)
H14 H 0.0797 0.5221 -0.2989
V1B V 1.33725(17) 0.04460(18) -0.11562(9)
V1_2 V 1.66275(17) -0.04460(18) 0.11562(9)
V2B V 0.63459(17) -0.15089(14) -0.06836(9)
V2_2 V 0.36541(17) 0.15089(14) 0.06836(9)
O1B O 0.7957(7) -0.0778(7) -0.0843(4)
O2B O 1.1638(8) -0.0092(6) -0.1019(4)
O3B O 1.3302(8) 0.1212(8) -0.1990(4)
O4_2 O 1.5280(9) 0.0820(9) 0.1198(5)
O4B O 1.4720(9) -0.0820(9) -0.1198(5)
O4B_2 O 0.4720(9) -0.0820(9) -0.1198(5)
O5B O 1.3936(9) 0.1478(8) -0.0360(4)
O6B O 0.6513(12) -0.2913(8) -0.0972(6)
N1B N 1.0780(9) -0.1921(8) 0.0408(5)
N2B N 1.2431(11) -0.3399(9) 0.0711(7)
N3B N 1.7956(9) -0.6132(8) 0.2138(5)
N4B N 2.0405(10) -0.6422(9) 0.2348(6)
C1B C 1.2239(13) -0.2213(9) 0.0512(7)
H1B H 1.3048 -0.1657 0.0453
C2B C 0.9958(13) -0.2972(11) 0.0564(8)
H2B H 0.8885 -0.3044 0.0540
C3B C 1.0995(15) -0.3891(11) 0.0761(10)
H3B H 1.0764 -0.4703 0.0902
C4B C 1.3966(17) -0.4055(13) 0.0828(9)
H4B H 1.4686 -0.3710 0.0470
H5B H 1.3835 -0.4933 0.0708
C5B C 1.458(2) -0.3905(18) 0.1642(10)
H6B H 1.4599 -0.3031 0.1787
H7B H 1.3941 -0.4347 0.1999
C6B C 1.628(2) -0.445(2) 0.1705(13)
H8B H 1.6974 -0.3834 0.1949
H9B H 1.6596 -0.4613 0.1175
C7B C 1.6402(13) -0.5582(12) 0.2163(8)
H10B H 1.6195 -0.5405 0.2710
H11B H 1.5633 -0.6174 0.1953
C8B C 1.8385(13) -0.7026(11) 0.1622(7)
H12B H 1.7734 -0.7434 0.1245
C9B C 1.9910(16) -0.7209(12) 0.1753(7)
H13B H 2.0515 -0.7767 0.1488
C10B C 1.9184(13) -0.5801(11) 0.2579(6)
H14B H 1.9203 -0.5221 0.2989
loop_
_geom_bond_atom_site_label_1
_geom_bond_atom_site_label_2
_geom_bond_site_symmetry_1
_geom_bond_site_symmetry_2
Cd1 O1 1_555 1_555
V1 O2 1_555 1_555
V2 O1 1_555 1_555
O2 Cd1 1_555 1_555
O3 V1 1_555 1_555
O4 V1 1_555 1_555
O5 V1 1_555 1_555
O6 V2 1_555 1_555
N1 Cd1 1_555 1_555
N2 C1 1_555 1_555
N3 C7 1_555 1_555
N4 C9 1_555 1_555
C1 N1 1_555 1_555
H1 C1 1_555 1_555
C2 N1 1_555 1_555
H2 C2 1_555 1_555
C3 N2 1_555 1_555
H3 C3 1_555 1_555
C4 N2 1_555 1_555
H4 C4 1_555 1_555
H5 C4 1_555 1_555
C5 C4 1_555 1_555
H6 C5 1_555 1_555
H7 C5 1_555 1_555
C6 C5 1_555 1_555
H8 C6 1_555 1_555
H9 C6 1_555 1_555
C7 C6 1_555 1_555
H10 C7 1_555 1_555
H11 C7 1_555 1_555
C8 N3 1_555 1_555
H12 C8 1_555 1_555
C9 C8 1_555 1_555
H13 C9 1_555 1_555
C10 N3 1_555 1_555
H14 C10 1_555 1_555
V1B O2B 1_555 1_555
V1_2 O4_2 1_555 1_555
V2B O5 1_555 1_555
V2_2 O4 1_555 1_555
O1B Cd1 1_555 1_555
O2B Cd1 1_555 1_555
O3B V1B 1_555 1_555
O4_2 V2 1_555 1_555
O4B V1B 1_555 1_555
O4B_2 V2B 1_555 1_555
O5B V2 1_555 1_555
O6B V2B 1_555 1_555
N1B Cd1 1_555 1_555
N2B C1B 1_555 1_555
N3B C7B 1_555 1_555
N4B C9B 1_555 1_555
C1B N1B 1_555 1_555
H1B C1B 1_555 1_555
C2B N1B 1_555 1_555
H2B C2B 1_555 1_555
C3B N2B 1_555 1_555
H3B C3B 1_555 1_555
C4B N2B 1_555 1_555
H4B C4B 1_555 1_555
H5B C4B 1_555 1_555
C5B C4B 1_555 1_555
H6B C5B 1_555 1_555
H7B C5B 1_555 1_555
C6B C5B 1_555 1_555
H8B C6B 1_555 1_555
H9B C6B 1_555 1_555
C7B C6B 1_555 1_555
H10B C7B 1_555 1_555
H11B C7B 1_555 1_555
C8B N3B 1_555 1_555
H12B C8B 1_555 1_555
C9B C8B 1_555 1_555
H13B C9B 1_555 1_555
C10B N3B 1_555 1_555
H14B C10B 1_555 1_555
N4 C10 1_555 1_555
C2 C3 1_555 1_555
V1B O5B 1_555 1_555
V2B O1B 1_555 1_555
N4B C10B 1_555 1_555
C2B C3B 1_555 1_555

#END
