
#######################################################################
#
#                 Cambridge Crystallographic Data Centre
#                                CCDC 
#
#######################################################################
#
# If this CIF has been generated from an entry in the Cambridge 
# Structural Database, then it will include bibliographic, chemical, 
# crystal, experimental, refinement or atomic coordinate data resulting 
# from the CCDC's data processing and validation procedures.
#
#######################################################################

data_AHAYUF
_symmetry_cell_setting           triclinic
_symmetry_space_group_name_H-M   'P -1'
_symmetry_Int_Tables_number      2
_space_group_name_Hall           '-P 1'
loop_
_symmetry_equiv_pos_site_id
_symmetry_equiv_pos_as_xyz
1 x,y,z
2 -x,-y,-z
_cell_length_a                   17.6603(4)
_cell_length_b                   19.2398(4)
_cell_length_c                   19.5076(4)
_cell_angle_alpha                113.2070(10)
_cell_angle_beta                 99.7830(10)
_cell_angle_gamma                101.2470(10)
_cell_volume                     5746.75
loop_
_atom_site_label
_atom_site_type_symbol
_atom_site_fract_x
_atom_site_fract_y
_atom_site_fract_z
Cd1 Cd 0.74146(2) 0.76540(2) 0.249041(19)
Br1 Br 0.90178(4) 0.84359(4) 0.29044(4)
Br2 Br 0.57906(4) 0.69570(5) 0.20300(5)
Pt1 Pt 0.746321(12) 0.755625(13) -0.254163(10)
P1 P 0.88261(8) 0.77996(9) -0.20833(8)
C1 C 0.9236(3) 0.8162(4) -0.1045(3)
C2 C 0.9601(5) 0.7747(5) -0.0713(4)
H1 H 0.9619 0.7231 -0.1029
C3 C 0.9939(6) 0.8094(7) 0.0081(5)
H2 H 1.0201 0.7815 0.0305
C4 C 0.9905(5) 0.8827(6) 0.0550(4)
H3 H 1.0138 0.9053 0.1094
C5 C 0.9533(4) 0.9233(5) 0.0233(4)
H4 H 0.9504 0.9742 0.0556
C6 C 0.9195(4) 0.8897(4) -0.0568(3)
H5 H 0.8933 0.9180 -0.0786
C7 C 0.9005(4) 0.6839(4) -0.2530(3)
C8 C 0.9531(6) 0.6696(5) -0.2976(4)
H6 H 0.9847 0.7110 -0.3046
C9 C 0.9595(8) 0.5924(7) -0.3329(5)
H7 H 0.9946 0.5822 -0.3652
C10 C 0.9187(9) 0.5334(7) -0.3229(6)
H8 H 0.9259 0.4824 -0.3460
C11 C 0.8637(7) 0.5479(5) -0.2768(6)
H9 H 0.8335 0.5062 -0.2693
C12 C 0.8544(5) 0.6232(5) -0.2430(5)
H10 H 0.8168 0.6329 -0.2133
C13 C 0.9515(4) 0.8508(4) -0.2254(3)
C14 C 1.0355(4) 0.8639(5) -0.1984(4)
H11 H 1.0544 0.8337 -0.1745
C15 C 1.0894(5) 0.9202(6) -0.2069(5)
H12 H 1.1455 0.9282 -0.1896
C16 C 1.0620(5) 0.9652(5) -0.2405(5)
H13 H 1.0993 1.0040 -0.2462
C17 C 0.9810(6) 0.9538(5) -0.2657(5)
H14 H 0.9630 0.9855 -0.2881
C18 C 0.9240(4) 0.8958(4) -0.2589(4)
H15 H 0.8681 0.8879 -0.2769
P2 P 0.60930(9) 0.72512(9) -0.29803(8)
C19 C 0.5480(4) 0.6448(4) -0.2860(3)
C20 C 0.5835(4) 0.6020(4) -0.2552(4)
H16 H 0.6403 0.6151 -0.2381
C21 C 0.5341(6) 0.5382(5) -0.2496(4)
H17 H 0.5579 0.5078 -0.2290
C22 C 0.4534(6) 0.5202(5) -0.2732(5)
H18 H 0.4208 0.4784 -0.2674
C23 C 0.4173(5) 0.5628(5) -0.3062(5)
H19 H 0.3605 0.5492 -0.3241
C24 C 0.4648(4) 0.6239(5) -0.3122(4)
H20 H 0.4407 0.6527 -0.3347
C25 C 0.5816(4) 0.8133(4) -0.2462(3)
C26 C 0.6233(5) 0.8832(5) -0.2443(5)
H21 H 0.6654 0.8832 -0.2688
C27 C 0.6045(6) 0.9544(5) -0.2064(6)
H22 H 0.6324 1.0020 -0.2063
C28 C 0.5447(6) 0.9529(6) -0.1699(6)
H23 H 0.5302 0.9998 -0.1452
C29 C 0.5051(6) 0.8843(6) -0.1684(5)
H24 H 0.4658 0.8850 -0.1406
C30 C 0.5228(5) 0.8148(5) -0.2072(4)
H25 H 0.4943 0.7675 -0.2073
C31 C 0.5653(3) 0.6949(4) -0.4007(3)
C32 C 0.5604(4) 0.6178(4) -0.4527(3)
H26 H 0.5808 0.5845 -0.4340
C33 C 0.5261(4) 0.5906(5) -0.5308(4)
H27 H 0.5230 0.5385 -0.5661
C34 C 0.4959(5) 0.6393(6) -0.5579(4)
H28 H 0.4715 0.6203 -0.6117
C35 C 0.5014(6) 0.7137(6) -0.5077(5)
H29 H 0.4814 0.7470 -0.5266
C36 C 0.5361(5) 0.7422(5) -0.4285(4)
H30 H 0.5394 0.7946 -0.3938
C37 C 0.7330(3) 0.7549(4) -0.1548(3)
C38 C 0.7281(4) 0.7525(4) -0.0957(3)
C39 C 0.7296(4) 0.7517(4) -0.0226(3)
C40 C 0.7770(4) 0.8168(4) 0.0462(3)
H31 H 0.8078 0.8622 0.0447
C41 C 0.7789(4) 0.8148(4) 0.1163(3)
H32 H 0.8112 0.8598 0.1624
N1 N 0.7370(3) 0.7519(3) 0.1226(3)
C42 C 0.6905(4) 0.6908(4) 0.0574(3)
H33 H 0.6593 0.6467 0.0609
C43 C 0.6849(4) 0.6878(4) -0.0157(3)
H34 H 0.6510 0.6426 -0.0606
C44 C 0.7594(3) 0.7565(4) -0.3534(3)
C45 C 0.7641(4) 0.7593(4) -0.4131(3)
C46 C 0.7624(4) 0.7636(4) -0.4844(3)
C47 C 0.8182(4) 0.8203(4) -0.4914(3)
H35 H 0.8613 0.8574 -0.4478
C48 C 0.8107(4) 0.8222(4) -0.5625(3)
H36 H 0.8499 0.8613 -0.5660
N2 N 0.7523(3) 0.7730(3) -0.6255(3)
C49 C 0.6998(5) 0.7176(5) -0.6195(4)
H37 H 0.6578 0.6811 -0.6644
C50 C 0.7024(5) 0.7099(5) -0.5514(4)
H38 H 0.6639 0.6685 -0.5506
Pt2 Pt 0.749120(13) 0.266932(12) 0.251782(12)
P3 P 0.73168(9) 0.22616(9) 0.12045(8)
C51 C 0.7395(4) 0.1278(4) 0.0636(3)
C52 C 0.8012(4) 0.1165(4) 0.0287(4)
H39 H 0.8414 0.1611 0.0351
C53 C 0.8051(6) 0.0426(5) -0.0143(5)
H40 H 0.8479 0.0359 -0.0376
C54 C 0.7470(5) -0.0230(5) -0.0244(4)
H41 H 0.7498 -0.0745 -0.0549
C55 C 0.6853(5) -0.0139(4) 0.0096(4)
H42 H 0.6451 -0.0589 0.0024
C56 C 0.6824(5) 0.0619(4) 0.0547(4)
H43 H 0.6407 0.0686 0.0796
C57 C 0.8023(4) 0.2901(4) 0.0970(4)
C58 C 0.7816(6) 0.3028(8) 0.0327(6)
H44 H 0.7286 0.2787 -0.0007
C59 C 0.8379(8) 0.3505(9) 0.0168(8)
H45 H 0.8239 0.3559 -0.0297
C60 C 0.9119(7) 0.3894(7) 0.0651(8)
H46 H 0.9485 0.4251 0.0551
C61 C 0.9333(5) 0.3769(5) 0.1285(6)
H47 H 0.9862 0.4025 0.1621
C62 C 0.8787(4) 0.3270(4) 0.1447(5)
H48 H 0.8946 0.3185 0.1891
C63 C 0.6323(4) 0.2247(4) 0.0725(3)
C64 C 0.5931(4) 0.2741(4) 0.1140(4)
H49 H 0.6163 0.3077 0.1678
C65 C 0.5197(5) 0.2744(6) 0.0768(5)
H50 H 0.4921 0.3082 0.1055
C66 C 0.4859(6) 0.2274(7) -0.0002(6)
H51 H 0.4345 0.2272 -0.0248
C67 C 0.5266(5) 0.1802(7) -0.0423(5)
H52 H 0.5044 0.1494 -0.0967
C68 C 0.5981(5) 0.1771(5) -0.0073(4)
H53 H 0.6249 0.1428 -0.0365
P4 P 0.77077(9) 0.30653(9) 0.38377(8)
C69 C 0.8752(4) 0.3161(4) 0.4259(3)
C70 C 0.9235(4) 0.3819(5) 0.4922(4)
H54 H 0.9042 0.4259 0.5155
C71 C 1.0005(5) 0.3830(6) 0.5245(5)
H55 H 1.0340 0.4280 0.5700
C72 C 1.0288(5) 0.3179(6) 0.4903(5)
H56 H 1.0810 0.3183 0.5131
C73 C 0.9811(4) 0.2537(5) 0.4237(5)
H57 H 1.0005 0.2098 0.4002
C74 C 0.9047(4) 0.2529(4) 0.3907(4)
H58 H 0.8724 0.2088 0.3439
C75 C 0.7151(4) 0.2367(4) 0.4116(4)
C76 C 0.6365(4) 0.1910(4) 0.3672(4)
H59 H 0.6127 0.1968 0.3230
C77 C 0.5931(5) 0.1372(5) 0.3878(5)
H60 H 0.5399 0.1064 0.3575
C78 C 0.6264(6) 0.1287(6) 0.4506(6)
H61 H 0.5964 0.0921 0.4644
C79 C 0.7055(7) 0.1738(7) 0.4956(6)
H62 H 0.7286 0.1675 0.5397
C80 C 0.7500(5) 0.2279(5) 0.4758(5)
H63 H 0.8035 0.2581 0.5058
C81 C 0.7543(4) 0.3992(4) 0.4437(3)
C82 C 0.7952(5) 0.4691(4) 0.4439(4)
H64 H 0.8298 0.4682 0.4113
C83 C 0.7849(5) 0.5405(4) 0.4925(5)
H65 H 0.8133 0.5883 0.4933
C84 C 0.7344(5) 0.5429(5) 0.5390(6)
H66 H 0.7285 0.5921 0.5721
C85 C 0.6922(5) 0.4739(5) 0.5377(5)
H67 H 0.6566 0.4755 0.5693
C86 C 0.7017(4) 0.4013(4) 0.4896(4)
H68 H 0.6724 0.3537 0.4885
C87 C 0.7668(4) 0.3760(4) 0.2600(3)
C88 C 0.7751(4) 0.4377(4) 0.2550(4)
C89 C 0.7743(4) 0.5062(4) 0.2436(4)
C90 C 0.8358(4) 0.5772(4) 0.2851(4)
H69 H 0.8814 0.5804 0.3212
C91 C 0.8305(4) 0.6417(4) 0.2740(4)
H70 H 0.8741 0.6886 0.3017
N3 N 0.7679(3) 0.6424(3) 0.2266(3)
C92 C 0.7094(4) 0.5743(4) 0.1853(4)
H71 H 0.6646 0.5732 0.1497
C93 C 0.7109(4) 0.5064(4) 0.1917(4)
H72 H 0.6683 0.4593 0.1604
C94 C 0.7311(4) 0.1588(4) 0.2415(3)
C95 C 0.7213(4) 0.0954(4) 0.2440(4)
C96 C 0.7157(4) 0.0257(3) 0.2547(3)
C97 C 0.7639(4) 0.0256(4) 0.3167(4)
H73 H 0.7998 0.0739 0.3565
C98 C 0.7613(4) -0.0440(4) 0.3224(3)
H74 H 0.7968 -0.0421 0.3660
N4 N 0.7113(3) -0.1140(3) 0.2695(3)
C99 C 0.6596(4) -0.1140(4) 0.2107(4)
H75 H 0.6205 -0.1623 0.1747
C100 C 0.6606(4) -0.0471(4) 0.2000(4)
H76 H 0.6246 -0.0500 0.1561
Cd1_2 Cd 0.74146(2) -0.23460(2) 0.249041(19)
Cd1_3 Cd 0.74146(2) 0.76540(2) -0.750959(19)
N2_2 N 0.7523(3) 0.7730(3) 0.3745(3)
N4_2 N 0.7113(3) 0.8860(3) 0.2695(3)
C101 C 0.9413(5) 0.1045(5) 0.5489(5)
H77 H 0.9853 0.1039 0.5883
Cl1 Cl 0.9377(2) 0.20080(19) 0.5774(2)
Cl2 Cl 0.96189(17) 0.0665(2) 0.45780(16)
Cl3 Cl 0.8503(3) 0.0431(2) 0.54358(19)
C102 C 0.1875(12) 0.8894(15) 0.2450(12)
H78 H 0.2185 0.8622 0.2685
Cl4 Cl 0.0906(3) 0.8670(4) 0.2445(4)
Cl5 Cl 0.2214(5) 0.9921(10) 0.2990(6)
Cl6 Cl 0.1991(4) 0.8756(10) 0.1600(5)
C103 C 0.0974(12) 0.6476(13) 0.2204(11)
H79 H 0.0794 0.6880 0.2072
Cl7 Cl 0.0295(7) 0.6057(5) 0.2567(6)
Cl8 Cl 0.1080(5) 0.5729(5) 0.1385(5)
Cl9 Cl 0.1853(7) 0.6914(11) 0.2950(12)
C104 C 0.5233(11) 0.8494(12) 0.3358(12)
H80 H 0.5372 0.8057 0.2960
Cl10 Cl 0.5049(6) 0.9187(4) 0.3024(6)
Cl11 Cl 0.4355(7) 0.8143(6) 0.3548(5)
Cl12 Cl 0.5988(6) 0.8968(4) 0.4216(5)
O1 O 0.4975(6) 0.4662(5) 0.0510(4)
O2 O 0.6574(6) 0.4532(7) 0.9809(4)
O3 O 0.5932(5) 0.3693(5) 0.7630(6)
O4 O 0.3003(6) 0.6292(8) 0.3297(6)
loop_
_geom_bond_atom_site_label_1
_geom_bond_atom_site_label_2
_geom_bond_site_symmetry_1
_geom_bond_site_symmetry_2
Cd1 Br1 1_555 1_555
Br2 Cd1 1_555 1_555
Pt1 P1 1_555 1_555
P1 C1 1_555 1_555
C1 C2 1_555 1_555
C2 H1 1_555 1_555
C3 C2 1_555 1_555
H2 C3 1_555 1_555
C4 C3 1_555 1_555
H3 C4 1_555 1_555
C5 C4 1_555 1_555
H4 C5 1_555 1_555
C6 C1 1_555 1_555
H5 C6 1_555 1_555
C7 P1 1_555 1_555
C8 C7 1_555 1_555
H6 C8 1_555 1_555
C9 C8 1_555 1_555
H7 C9 1_555 1_555
C10 C9 1_555 1_555
H8 C10 1_555 1_555
C11 C10 1_555 1_555
H9 C11 1_555 1_555
C12 C7 1_555 1_555
H10 C12 1_555 1_555
C13 P1 1_555 1_555
C14 C13 1_555 1_555
H11 C14 1_555 1_555
C15 C14 1_555 1_555
H12 C15 1_555 1_555
C16 C15 1_555 1_555
H13 C16 1_555 1_555
C17 C16 1_555 1_555
H14 C17 1_555 1_555
C18 C13 1_555 1_555
H15 C18 1_555 1_555
P2 Pt1 1_555 1_555
C19 P2 1_555 1_555
C20 C19 1_555 1_555
H16 C20 1_555 1_555
C21 C20 1_555 1_555
H17 C21 1_555 1_555
C22 C21 1_555 1_555
H18 C22 1_555 1_555
C23 C22 1_555 1_555
H19 C23 1_555 1_555
C24 C19 1_555 1_555
H20 C24 1_555 1_555
C25 P2 1_555 1_555
C26 C25 1_555 1_555
H21 C26 1_555 1_555
C27 C26 1_555 1_555
H22 C27 1_555 1_555
C28 C27 1_555 1_555
H23 C28 1_555 1_555
C29 C28 1_555 1_555
H24 C29 1_555 1_555
C30 C25 1_555 1_555
H25 C30 1_555 1_555
C31 P2 1_555 1_555
C32 C31 1_555 1_555
H26 C32 1_555 1_555
C33 C32 1_555 1_555
H27 C33 1_555 1_555
C34 C33 1_555 1_555
H28 C34 1_555 1_555
C35 C34 1_555 1_555
H29 C35 1_555 1_555
C36 C31 1_555 1_555
H30 C36 1_555 1_555
C37 Pt1 1_555 1_555
C38 C37 1_555 1_555
C39 C38 1_555 1_555
C40 C39 1_555 1_555
H31 C40 1_555 1_555
C41 C40 1_555 1_555
H32 C41 1_555 1_555
N1 Cd1 1_555 1_555
C42 N1 1_555 1_555
H33 C42 1_555 1_555
C43 C39 1_555 1_555
H34 C43 1_555 1_555
C44 Pt1 1_555 1_555
C45 C44 1_555 1_555
C46 C45 1_555 1_555
C47 C46 1_555 1_555
H35 C47 1_555 1_555
C48 C47 1_555 1_555
H36 C48 1_555 1_555
N2 C48 1_555 1_555
C49 N2 1_555 1_555
H37 C49 1_555 1_555
C50 C46 1_555 1_555
H38 C50 1_555 1_555
Pt2 P3 1_555 1_555
P3 C51 1_555 1_555
C51 C52 1_555 1_555
C52 H39 1_555 1_555
C53 C52 1_555 1_555
H40 C53 1_555 1_555
C54 C53 1_555 1_555
H41 C54 1_555 1_555
C55 C54 1_555 1_555
H42 C55 1_555 1_555
C56 C51 1_555 1_555
H43 C56 1_555 1_555
C57 P3 1_555 1_555
C58 C57 1_555 1_555
H44 C58 1_555 1_555
C59 C58 1_555 1_555
H45 C59 1_555 1_555
C60 C59 1_555 1_555
H46 C60 1_555 1_555
C61 C60 1_555 1_555
H47 C61 1_555 1_555
C62 C57 1_555 1_555
H48 C62 1_555 1_555
C63 P3 1_555 1_555
C64 C63 1_555 1_555
H49 C64 1_555 1_555
C65 C64 1_555 1_555
H50 C65 1_555 1_555
C66 C65 1_555 1_555
H51 C66 1_555 1_555
C67 C66 1_555 1_555
H52 C67 1_555 1_555
C68 C63 1_555 1_555
H53 C68 1_555 1_555
P4 Pt2 1_555 1_555
C69 P4 1_555 1_555
C70 C69 1_555 1_555
H54 C70 1_555 1_555
C71 C70 1_555 1_555
H55 C71 1_555 1_555
C72 C71 1_555 1_555
H56 C72 1_555 1_555
C73 C72 1_555 1_555
H57 C73 1_555 1_555
C74 C69 1_555 1_555
H58 C74 1_555 1_555
C75 P4 1_555 1_555
C76 C75 1_555 1_555
H59 C76 1_555 1_555
C77 C76 1_555 1_555
H60 C77 1_555 1_555
C78 C77 1_555 1_555
H61 C78 1_555 1_555
C79 C78 1_555 1_555
H62 C79 1_555 1_555
C80 C75 1_555 1_555
H63 C80 1_555 1_555
C81 P4 1_555 1_555
C82 C81 1_555 1_555
H64 C82 1_555 1_555
C83 C82 1_555 1_555
H65 C83 1_555 1_555
C84 C83 1_555 1_555
H66 C84 1_555 1_555
C85 C84 1_555 1_555
H67 C85 1_555 1_555
C86 C81 1_555 1_555
H68 C86 1_555 1_555
C87 Pt2 1_555 1_555
C88 C87 1_555 1_555
C89 C88 1_555 1_555
C90 C89 1_555 1_555
H69 C90 1_555 1_555
C91 C90 1_555 1_555
H70 C91 1_555 1_555
N3 Cd1 1_555 1_555
C92 N3 1_555 1_555
H71 C92 1_555 1_555
C93 C89 1_555 1_555
H72 C93 1_555 1_555
C94 Pt2 1_555 1_555
C95 C94 1_555 1_555
C96 C95 1_555 1_555
C97 C96 1_555 1_555
H73 C97 1_555 1_555
C98 C97 1_555 1_555
H74 C98 1_555 1_555
N4 C98 1_555 1_555
C99 N4 1_555 1_555
H75 C99 1_555 1_555
C100 C96 1_555 1_555
H76 C100 1_555 1_555
C101 H77 1_555 1_555
Cl1 C101 1_555 1_555
Cl2 C101 1_555 1_555
Cl3 C101 1_555 1_555
C102 H78 1_555 1_555
Cl4 C102 1_555 1_555
Cl5 C102 1_555 1_555
Cl6 C102 1_555 1_555
C103 H79 1_555 1_555
Cl7 C103 1_555 1_555
Cl8 C103 1_555 1_555
Cl9 C103 1_555 1_555
C104 H80 1_555 1_555
Cl10 C104 1_555 1_555
Cl11 C104 1_555 1_555
Cl12 C104 1_555 1_555
Cd1_2 N4 1_555 1_555
Cd1_3 N2 1_555 1_555
N2_2 Cd1 1_555 1_555
N4_2 Cd1 1_555 1_555
C5 C6 1_555 1_555
C11 C12 1_555 1_555
C17 C18 1_555 1_555
C23 C24 1_555 1_555
C29 C30 1_555 1_555
C35 C36 1_555 1_555
C41 N1 1_555 1_555
C42 C43 1_555 1_555
C49 C50 1_555 1_555
C55 C56 1_555 1_555
C61 C62 1_555 1_555
C67 C68 1_555 1_555
C73 C74 1_555 1_555
C79 C80 1_555 1_555
C85 C86 1_555 1_555
C91 N3 1_555 1_555
C92 C93 1_555 1_555
C99 C100 1_555 1_555

#END
