
#######################################################################
#
#                 Cambridge Crystallographic Data Centre
#                                CCDC 
#
#######################################################################
#
# If this CIF has been generated from an entry in the Cambridge 
# Structural Database, then it will include bibliographic, chemical, 
# crystal, experimental, refinement or atomic coordinate data resulting 
# from the CCDC's data processing and validation procedures.
#
#######################################################################

data_AHAYOZ
_symmetry_cell_setting           triclinic
_symmetry_space_group_name_H-M   'P -1'
_symmetry_Int_Tables_number      2
_space_group_name_Hall           '-P 1'
loop_
_symmetry_equiv_pos_site_id
_symmetry_equiv_pos_as_xyz
1 x,y,z
2 -x,-y,-z
_cell_length_a                   11.0755(2)
_cell_length_b                   17.2285(3)
_cell_length_c                   30.5221(6)
_cell_angle_alpha                89.7140(10)
_cell_angle_beta                 86.0250(10)
_cell_angle_gamma                81.0480(10)
_cell_volume                     5739.17
loop_
_atom_site_label
_atom_site_type_symbol
_atom_site_fract_x
_atom_site_fract_y
_atom_site_fract_z
Co1 Co 1.19839(8) -0.22314(4) 0.25058(3)
Cl1 Cl 1.02761(17) -0.26740(11) 0.29516(6)
Cl2 Cl 1.36889(17) -0.17774(10) 0.20685(6)
Pt1 Pt 0.66563(2) 0.265288(13) 0.227544(9)
P1 P 0.77201(16) 0.31269(10) 0.28120(6)
C1 C 0.6712(8) 0.3542(5) 0.3279(3)
C2 C 0.5773(8) 0.3155(5) 0.3419(4)
H1 H 0.5641 0.2701 0.3265
C3 C 0.4998(12) 0.3423(8) 0.3791(5)
H2 H 0.4368 0.3141 0.3898
C4 C 0.5171(18) 0.4103(10) 0.3998(7)
H3 H 0.4645 0.4295 0.4246
C5 C 0.6090(17) 0.4507(10) 0.3850(6)
H4 H 0.6204 0.4977 0.3992
C6 C 0.6865(12) 0.4209(7) 0.3482(4)
H5 H 0.7505 0.4484 0.3375
C7 C 0.8515(7) 0.3919(4) 0.2614(2)
C8 C 0.8183(7) 0.4339(5) 0.2255(3)
H6 H 0.7571 0.4183 0.2087
C9 C 0.8714(8) 0.5001(6) 0.2124(3)
H7 H 0.8463 0.5300 0.1874
C10 C 0.9628(10) 0.5197(7) 0.2375(4)
H8 H 1.0020 0.5632 0.2290
C11 C 0.9961(10) 0.4805(7) 0.2723(4)
H9 H 1.0564 0.4973 0.2891
C12 C 0.9449(9) 0.4144(5) 0.2854(3)
H10 H 0.9726 0.3849 0.3101
C13 C 0.8872(7) 0.2434(5) 0.3059(3)
C14 C 0.8688(8) 0.2208(6) 0.3506(3)
H11 H 0.7963 0.2421 0.3677
C15 C 0.9598(11) 0.1663(7) 0.3692(4)
H12 H 0.9492 0.1504 0.3989
C16 C 1.0643(9) 0.1364(7) 0.3436(4)
H13 H 1.1245 0.0982 0.3555
C17 C 1.0817(9) 0.1606(6) 0.3024(4)
H14 H 1.1567 0.1419 0.2861
C18 C 0.9932(8) 0.2121(6) 0.2828(3)
H15 H 1.0065 0.2259 0.2528
P2 P 0.55567(16) 0.22578(10) 0.17246(6)
C19 C 0.4540(6) 0.3016(4) 0.1458(3)
C20 C 0.4653(8) 0.3157(5) 0.1010(3)
H16 H 0.5313 0.2863 0.0838
C21 C 0.3849(9) 0.3702(6) 0.0810(4)
H17 H 0.3939 0.3764 0.0500
C22 C 0.2929(9) 0.4155(6) 0.1045(4)
H18 H 0.2387 0.4538 0.0900
C23 C 0.2760(8) 0.4065(5) 0.1512(3)
H19 H 0.2114 0.4381 0.1680
C24 C 0.3601(7) 0.3482(4) 0.1712(3)
H20 H 0.3524 0.3408 0.2020
C25 C 0.4572(7) 0.1540(4) 0.1905(2)
C26 C 0.5114(7) 0.0827(4) 0.2056(3)
H21 H 0.5974 0.0734 0.2082
C27 C 0.4423(8) 0.0238(4) 0.2172(3)
H22 H 0.4809 -0.0253 0.2276
C28 C 0.3192(9) 0.0371(5) 0.2135(3)
H23 H 0.2721 -0.0035 0.2202
C29 C 0.2629(8) 0.1087(5) 0.2002(4)
H24 H 0.1764 0.1184 0.1992
C30 C 0.3311(8) 0.1673(5) 0.1881(3)
H25 H 0.2914 0.2165 0.1782
C31 C 0.6482(7) 0.1738(4) 0.1274(3)
C32 C 0.5987(11) 0.1243(6) 0.0994(3)
H26 H 0.5154 0.1172 0.1043
C33 C 0.6709(16) 0.0858(8) 0.0647(5)
H27 H 0.6363 0.0530 0.0457
C34 C 0.7911(14) 0.0944(7) 0.0574(4)
H28 H 0.8405 0.0660 0.0343
C35 C 0.8408(10) 0.1443(6) 0.0837(3)
H29 H 0.9228 0.1531 0.0773
C36 C 0.7710(9) 0.1824(5) 0.1198(3)
H30 H 0.8074 0.2140 0.1389
C37 C 0.5594(6) 0.3695(4) 0.2355(3)
C38 C 0.5060(6) 0.4343(4) 0.2435(3)
C39 C 0.4397(6) 0.5101(4) 0.2512(2)
C40 C 0.3105(6) 0.5244(4) 0.2528(3)
H31 H 0.2660 0.4817 0.2512
C41 C 0.2497(7) 0.5990(4) 0.2565(3)
H32 H 0.1629 0.6069 0.2562
N1 N 0.3051(5) 0.6622(3) 0.26060(18)
C42 C 0.4261(6) 0.6497(3) 0.2614(2)
H33 H 0.4665 0.6936 0.2656
C43 C 0.4960(6) 0.5772(4) 0.2564(2)
H34 H 0.5826 0.5720 0.2564
C44 C 0.7766(7) 0.1628(4) 0.2245(2)
C45 C 0.8438(6) 0.1017(4) 0.2247(2)
C46 C 0.9255(6) 0.0281(4) 0.2293(2)
C47 C 0.9924(6) -0.0109(4) 0.1942(2)
H35 H 0.9865 0.0101 0.1655
C48 C 1.0692(6) -0.0817(4) 0.2010(2)
H36 H 1.1150 -0.1076 0.1764
N2 N 1.0811(5) -0.1145(3) 0.24041(18)
C49 C 1.0166(8) -0.0762(4) 0.2739(2)
H37 H 1.0236 -0.0993 0.3021
C50 C 0.9392(8) -0.0047(5) 0.2711(3)
H38 H 0.8972 0.0208 0.2965
Pt2 Pt 1.0000 -0.5000 0.0000
P3 P 0.85998(16) -0.55762(10) 0.04278(5)
C51 C 0.7537(6) -0.4981(5) 0.0816(2)
C52 C 0.6692(7) -0.5334(6) 0.1079(3)
H39 H 0.6693 -0.5884 0.1058
C53 C 0.5851(8) -0.4881(8) 0.1368(3)
H40 H 0.5276 -0.5124 0.1544
C54 C 0.5839(8) -0.4086(7) 0.1404(3)
H41 H 0.5278 -0.3785 0.1611
C55 C 0.6633(8) -0.3731(6) 0.1141(3)
H42 H 0.6609 -0.3178 0.1162
C56 C 0.7489(7) -0.4170(5) 0.0839(2)
H43 H 0.8028 -0.3916 0.0653
C57 C 0.7545(6) -0.6060(4) 0.0136(2)
C58 C 0.7483(9) -0.6836(6) 0.0158(3)
H44 H 0.8043 -0.7159 0.0329
C59 C 0.6617(12) -0.7194(8) -0.0062(4)
H45 H 0.6604 -0.7744 -0.0046
C60 C 0.5808(10) -0.6713(8) -0.0298(3)
H46 H 0.5215 -0.6929 -0.0450
C61 C 0.5840(8) -0.5895(6) -0.0320(3)
H47 H 0.5269 -0.5564 -0.0483
C62 C 0.6696(7) -0.5584(5) -0.0106(2)
H48 H 0.6715 -0.5035 -0.0121
C63 C 0.9485(7) -0.6353(5) 0.0735(2)
C64 C 1.0344(9) -0.6856(5) 0.0504(4)
H49 H 1.0460 -0.6809 0.0195
C65 C 1.1077(13) -0.7460(7) 0.0731(6)
H50 H 1.1681 -0.7816 0.0567
C66 C 1.0939(13) -0.7539(7) 0.1165(5)
H51 H 1.1393 -0.7968 0.1308
C67 C 1.0161(13) -0.7008(7) 0.1391(4)
H52 H 1.0113 -0.7033 0.1703
C68 C 0.9378(8) -0.6392(6) 0.1181(3)
H53 H 0.8805 -0.6023 0.1348
C69 C 1.0365(6) -0.4423(4) 0.0527(2)
C70 C 1.0571(6) -0.4050(4) 0.0843(2)
C71 C 1.0836(6) -0.3602(4) 0.1205(2)
C72 C 0.9931(6) -0.3198(4) 0.1499(2)
H54 H 0.9090 -0.3216 0.1464
C73 C 1.0268(6) -0.2779(4) 0.1836(2)
H55 H 0.9639 -0.2505 0.2030
N3 N 1.1437(5) -0.2731(3) 0.19100(18)
C74 C 1.2296(6) -0.3110(4) 0.1626(2)
H56 H 1.3128 -0.3073 0.1667
C75 C 1.2056(6) -0.3543(4) 0.1283(2)
H57 H 1.2710 -0.3808 0.1096
Pt3 Pt 1.5000 0.0000 0.5000
P4 P 1.63769(17) 0.03874(12) 0.44736(6)
C76 C 1.7587(7) -0.0389(6) 0.4289(2)
C77 C 1.7387(9) -0.1168(7) 0.4284(4)
H58 H 1.6619 -0.1294 0.4394
C78 C 1.8267(11) -0.1745(8) 0.4124(5)
H59 H 1.8093 -0.2267 0.4116
C79 C 1.9387(12) -0.1605(11) 0.3976(4)
H60 H 2.0000 -0.2024 0.3873
C80 C 1.9619(11) -0.0871(11) 0.3978(4)
H61 H 2.0403 -0.0769 0.3868
C81 C 1.8722(8) -0.0231(7) 0.4139(3)
H62 H 1.8904 0.0290 0.4142
C82 C 1.7165(5) 0.1180(4) 0.46390(18)
C83 C 1.8101(6) 0.1021(4) 0.4922(2)
H63 H 1.8350 0.0499 0.5018
C84 C 1.8673(7) 0.1627(6) 0.5066(2)
H64 H 1.9314 0.1519 0.5260
C85 C 1.8309(8) 0.2392(5) 0.4926(3)
H65 H 1.8700 0.2806 0.5025
C86 C 1.7372(8) 0.2551(3) 0.4643(3)
H66 H 1.7123 0.3073 0.4548
C87 C 1.6800(6) 0.1945(4) 0.4500(2)
H67 H 1.6160 0.2053 0.4306
C88 C 1.5661(7) 0.0746(4) 0.3977(2)
C89 C 1.4468(7) 0.1150(5) 0.4007(3)
H68 H 1.4023 0.1225 0.4285
C90 C 1.3923(8) 0.1445(5) 0.3629(3)
H69 H 1.3109 0.1722 0.3651
C91 C 1.4549(9) 0.1340(6) 0.3230(3)
H70 H 1.4173 0.1548 0.2976
C92 C 1.5734(9) 0.0930(6) 0.3191(3)
H71 H 1.6161 0.0837 0.2911
C93 C 1.6276(8) 0.0662(6) 0.3567(2)
H72 H 1.7104 0.0410 0.3543
C94 C 1.4295(7) -0.0539(4) 0.4521(2)
C95 C 1.3928(6) -0.0852(4) 0.4220(2)
C96 C 1.3493(6) -0.1179(4) 0.3842(2)
C97 C 1.3048(7) -0.1897(4) 0.3851(2)
H73 H 1.3035 -0.2196 0.4113
C98 C 1.2621(6) -0.2169(4) 0.3466(2)
H74 H 1.2314 -0.2655 0.3475
N4 N 1.2627(5) -0.1776(3) 0.30873(17)
C99 C 1.3046(8) -0.1088(4) 0.3088(2)
H75 H 1.3047 -0.0801 0.2822
C100 C 1.3476(7) -0.0766(4) 0.3446(2)
H76 H 1.3757 -0.0272 0.3425
Co1A Co 0.80161(8) -0.77686(4) -0.25058(3)
Cl1A Cl 0.97239(17) -0.73260(11) -0.29516(6)
Cl2A Cl 0.63111(17) -0.82226(10) -0.20685(6)
Pt1A Pt 1.33437(2) -1.265288(13) -0.227544(9)
P1A P 1.22799(16) -1.31269(10) -0.28120(6)
C1A C 1.3288(8) -1.3542(5) -0.3279(3)
C2A C 1.4227(8) -1.3155(5) -0.3419(4)
H1A H 1.4359 -1.2701 -0.3265
C3A C 1.5002(12) -1.3423(8) -0.3791(5)
H2A H 1.5632 -1.3141 -0.3898
C4A C 1.4829(18) -1.4103(10) -0.3998(7)
H3A H 1.5355 -1.4295 -0.4246
C5A C 1.3910(17) -1.4507(10) -0.3850(6)
H4A H 1.3796 -1.4977 -0.3992
C6A C 1.3135(12) -1.4209(7) -0.3482(4)
H5A H 1.2495 -1.4484 -0.3375
C7A C 1.1485(7) -1.3919(4) -0.2614(2)
C8A C 1.1817(7) -1.4339(5) -0.2255(3)
H6A H 1.2429 -1.4183 -0.2087
C9A C 1.1286(8) -1.5001(6) -0.2124(3)
H7A H 1.1537 -1.5300 -0.1874
C10A C 1.0372(10) -1.5197(7) -0.2375(4)
H8A H 0.9980 -1.5632 -0.2290
C11A C 1.0039(10) -1.4805(7) -0.2723(4)
H9A H 0.9436 -1.4973 -0.2891
C12A C 1.0551(9) -1.4144(5) -0.2854(3)
H10A H 1.0274 -1.3849 -0.3101
C13A C 1.1128(7) -1.2434(5) -0.3059(3)
C14A C 1.1312(8) -1.2208(6) -0.3506(3)
H11A H 1.2037 -1.2421 -0.3677
C15A C 1.0402(11) -1.1663(7) -0.3692(4)
H12A H 1.0508 -1.1504 -0.3989
C16A C 0.9357(9) -1.1364(7) -0.3436(4)
H13A H 0.8755 -1.0982 -0.3555
C17A C 0.9183(9) -1.1606(6) -0.3024(4)
H14A H 0.8433 -1.1419 -0.2861
C18A C 1.0068(8) -1.2121(6) -0.2828(3)
H15A H 0.9935 -1.2259 -0.2528
P2A P 1.44433(16) -1.22578(10) -0.17246(6)
C19A C 1.5460(6) -1.3016(4) -0.1458(3)
C20A C 1.5347(8) -1.3157(5) -0.1010(3)
H16A H 1.4687 -1.2863 -0.0838
C21A C 1.6151(9) -1.3702(6) -0.0810(4)
H17A H 1.6061 -1.3764 -0.0500
C22A C 1.7071(9) -1.4155(6) -0.1045(4)
H18A H 1.7613 -1.4538 -0.0900
C23A C 1.7240(8) -1.4065(5) -0.1512(3)
H19A H 1.7886 -1.4381 -0.1680
C24A C 1.6399(7) -1.3482(4) -0.1712(3)
H20A H 1.6476 -1.3408 -0.2020
C25A C 1.5428(7) -1.1540(4) -0.1905(2)
C26A C 1.4886(7) -1.0827(4) -0.2056(3)
H21A H 1.4026 -1.0734 -0.2082
C27A C 1.5577(8) -1.0238(4) -0.2172(3)
H22A H 1.5191 -0.9747 -0.2276
C28A C 1.6808(9) -1.0371(5) -0.2135(3)
H23A H 1.7279 -0.9965 -0.2202
C29A C 1.7371(8) -1.1087(5) -0.2002(4)
H24A H 1.8236 -1.1184 -0.1992
C30A C 1.6689(8) -1.1673(5) -0.1881(3)
H25A H 1.7086 -1.2165 -0.1782
C31A C 1.3518(7) -1.1738(4) -0.1274(3)
C32A C 1.4013(11) -1.1243(6) -0.0994(3)
H26A H 1.4846 -1.1172 -0.1043
C33A C 1.3291(16) -1.0858(8) -0.0647(5)
H27A H 1.3637 -1.0530 -0.0457
C34A C 1.2089(14) -1.0944(7) -0.0574(4)
H28A H 1.1595 -1.0660 -0.0343
C35A C 1.1592(10) -1.1443(6) -0.0837(3)
H29A H 1.0772 -1.1531 -0.0773
C36A C 1.2290(9) -1.1824(5) -0.1198(3)
H30A H 1.1926 -1.2140 -0.1389
C37A C 1.4406(6) -1.3695(4) -0.2355(3)
C38A C 1.4940(6) -1.4343(4) -0.2435(3)
C39A C 1.5603(6) -1.5101(4) -0.2512(2)
C40A C 1.6895(6) -1.5244(4) -0.2528(3)
H31A H 1.7340 -1.4817 -0.2512
C41A C 1.7503(7) -1.5990(4) -0.2565(3)
H32A H 1.8371 -1.6069 -0.2562
N1A N 1.6949(5) -1.6622(3) -0.26060(18)
C42A C 1.5739(6) -1.6497(3) -0.2614(2)
H33A H 1.5335 -1.6936 -0.2656
C43A C 1.5040(6) -1.5772(4) -0.2564(2)
H34A H 1.4174 -1.5720 -0.2564
C44A C 1.2234(7) -1.1628(4) -0.2245(2)
C45A C 1.1562(6) -1.1017(4) -0.2247(2)
C46A C 1.0745(6) -1.0281(4) -0.2293(2)
C47A C 1.0076(6) -0.9891(4) -0.1942(2)
H35A H 1.0135 -1.0101 -0.1655
C48A C 0.9308(6) -0.9183(4) -0.2010(2)
H36A H 0.8850 -0.8924 -0.1764
N2A N 0.9189(5) -0.8855(3) -0.24041(18)
C49A C 0.9834(8) -0.9238(4) -0.2739(2)
H37A H 0.9764 -0.9007 -0.3021
C50A C 1.0608(8) -0.9953(5) -0.2711(3)
H38A H 1.1028 -1.0208 -0.2965
P3A P 1.14002(16) -0.44238(10) -0.04278(5)
C51A C 1.2463(6) -0.5019(5) -0.0816(2)
C52A C 1.3308(7) -0.4666(6) -0.1079(3)
H39A H 1.3307 -0.4116 -0.1058
C53A C 1.4149(8) -0.5119(8) -0.1368(3)
H40A H 1.4724 -0.4876 -0.1544
C54A C 1.4161(8) -0.5914(7) -0.1404(3)
H41A H 1.4722 -0.6215 -0.1611
C55A C 1.3367(8) -0.6269(6) -0.1141(3)
H42A H 1.3391 -0.6822 -0.1162
C56A C 1.2511(7) -0.5830(5) -0.0839(2)
H43A H 1.1972 -0.6084 -0.0653
C57A C 1.2455(6) -0.3940(4) -0.0136(2)
C58A C 1.2517(9) -0.3164(6) -0.0158(3)
H44A H 1.1957 -0.2841 -0.0329
C59A C 1.3383(12) -0.2806(8) 0.0062(4)
H45A H 1.3396 -0.2256 0.0046
C60A C 1.4192(10) -0.3287(8) 0.0298(3)
H46A H 1.4785 -0.3071 0.0450
C61A C 1.4160(8) -0.4105(6) 0.0320(3)
H47A H 1.4731 -0.4436 0.0483
C62A C 1.3304(7) -0.4416(5) 0.0106(2)
H48A H 1.3285 -0.4965 0.0121
C63A C 1.0515(7) -0.3647(5) -0.0735(2)
C64A C 0.9656(9) -0.3144(5) -0.0504(4)
H49A H 0.9540 -0.3191 -0.0195
C65A C 0.8923(13) -0.2540(7) -0.0731(6)
H50A H 0.8319 -0.2184 -0.0567
C66A C 0.9061(13) -0.2461(7) -0.1165(5)
H51A H 0.8607 -0.2032 -0.1308
C67A C 0.9839(13) -0.2992(7) -0.1391(4)
H52A H 0.9887 -0.2967 -0.1703
C68A C 1.0622(8) -0.3608(6) -0.1181(3)
H53A H 1.1195 -0.3977 -0.1348
C69A C 0.9635(6) -0.5577(4) -0.0527(2)
C70A C 0.9429(6) -0.5950(4) -0.0843(2)
C71A C 0.9164(6) -0.6398(4) -0.1205(2)
C72A C 1.0069(6) -0.6802(4) -0.1499(2)
H54A H 1.0910 -0.6784 -0.1464
C73A C 0.9732(6) -0.7221(4) -0.1836(2)
H55A H 1.0361 -0.7495 -0.2030
N3A N 0.8563(5) -0.7269(3) -0.19100(18)
C74A C 0.7704(6) -0.6890(4) -0.1626(2)
H56A H 0.6872 -0.6927 -0.1667
C75A C 0.7944(6) -0.6457(4) -0.1283(2)
H57A H 0.7290 -0.6192 -0.1096
C94A C 0.5705(7) -0.9461(4) -0.4521(2)
C95A C 0.6072(6) -0.9148(4) -0.4220(2)
C96A C 0.6507(6) -0.8821(4) -0.3842(2)
C97A C 0.6952(7) -0.8103(4) -0.3851(2)
H73A H 0.6965 -0.7804 -0.4113
C98A C 0.7379(6) -0.7831(4) -0.3466(2)
H74A H 0.7686 -0.7345 -0.3475
N4A N 0.7373(5) -0.8224(3) -0.30873(17)
C99A C 0.6954(8) -0.8912(4) -0.3088(2)
H75A H 0.6953 -0.9199 -0.2822
C100A C 0.6524(7) -0.9234(4) -0.3446(2)
H76A H 0.6243 -0.9728 -0.3425
P4A P 1.36231(17) -0.03874(12) 0.55264(6)
C76A C 1.2413(7) 0.0389(6) 0.5711(2)
C77A C 1.2613(9) 0.1168(7) 0.5716(4)
H58A H 1.3381 0.1294 0.5606
C78A C 1.1733(11) 0.1745(8) 0.5876(5)
H59A H 1.1907 0.2267 0.5884
C79A C 1.0613(12) 0.1605(11) 0.6024(4)
H60A H 1.0000 0.2024 0.6127
C80A C 1.0381(11) 0.0871(11) 0.6022(4)
H61A H 0.9597 0.0769 0.6132
C81A C 1.1278(8) 0.0231(7) 0.5861(3)
H62A H 1.1096 -0.0290 0.5858
C82A C 1.2835(5) -0.1180(4) 0.53610(18)
C83A C 1.1899(6) -0.1021(4) 0.5078(2)
H63A H 1.1650 -0.0499 0.4982
C84A C 1.1327(7) -0.1627(6) 0.4934(2)
H64A H 1.0686 -0.1519 0.4740
C85A C 1.1691(8) -0.2392(5) 0.5074(3)
H65A H 1.1300 -0.2806 0.4975
C86A C 1.2628(8) -0.2551(3) 0.5357(3)
H66A H 1.2877 -0.3073 0.5452
C87A C 1.3200(6) -0.1945(4) 0.5500(2)
H67A H 1.3840 -0.2053 0.5694
C88A C 1.4339(7) -0.0746(4) 0.6023(2)
C89A C 1.5532(7) -0.1150(5) 0.5993(3)
H68A H 1.5977 -0.1225 0.5715
C90A C 1.6077(8) -0.1445(5) 0.6371(3)
H69A H 1.6891 -0.1722 0.6349
C91A C 1.5451(9) -0.1340(6) 0.6770(3)
H70A H 1.5827 -0.1548 0.7024
C92A C 1.4266(9) -0.0930(6) 0.6809(3)
H71A H 1.3839 -0.0837 0.7089
C93A C 1.3724(8) -0.0662(6) 0.6433(2)
H72A H 1.2896 -0.0410 0.6457
Co1_2 Co 0.19839(8) 0.77686(4) 0.25058(3)
Co1A_2 Co 1.80161(8) -1.77686(4) -0.25058(3)
N1_2 N 1.3051(5) -0.3378(3) 0.26060(18)
N1A_2 N 0.6949(5) -0.6622(3) -0.26060(18)
Pt3_2 Pt 0.5000 -1.0000 -0.5000
C94A_2 C 1.5705(7) 0.0539(4) 0.5479(2)
C101 C 0.750(2) 0.7998(10) 0.2646(6)
H77 H 0.8316 0.7893 0.2774
Cl3 Cl 0.7148(4) 0.7211(3) 0.2384(3)
Cl4 Cl 0.7411(7) 0.8743(5) 0.2247(4)
Cl5 Cl 0.6368(9) 0.8351(7) 0.3011(2)
C102 C 0.886(3) 0.8619(13) 0.0540(7)
H78 H 0.9716 0.8622 0.0418
Cl6 Cl 0.845(2) 0.8913(9) 0.1081(5)
Cl7 Cl 0.8263(15) 0.7744(5) 0.0556(3)
Cl8 Cl 0.764(2) 0.9153(7) 0.0275(8)
C103 C 0.3263(17) 0.9332(12) 0.1110(7)
H79 H 0.3375 0.9269 0.1431
Cl9 Cl 0.2892(16) 0.8535(6) 0.0848(3)
Cl10 Cl 0.4442(12) 0.9617(12) 0.0805(8)
Cl11 Cl 0.2125(16) 1.0068(8) 0.0970(4)
C104 C 0.033(3) 0.613(2) 0.3736(11)
H80 H 0.0112 0.6510 0.3496
Cl12 Cl 0.1914(15) 0.5460(10) 0.3714(5)
Cl13 Cl -0.048(2) 0.5411(16) 0.3855(6)
Cl14 Cl 0.054(2) 0.6448(8) 0.4251(5)
O2 O 0.6237(14) 0.7206(8) 0.4964(6)
O3 O 0.1690(10) 0.3499(7) 0.3701(5)
O4 O 0.5908(14) 0.7091(8) 0.4048(5)
O5 O 0.5542(13) 0.3697(8) 0.5355(5)
O1? O 0.6284(17) 0.731(2) 0.3356(5)
loop_
_geom_bond_atom_site_label_1
_geom_bond_atom_site_label_2
_geom_bond_site_symmetry_1
_geom_bond_site_symmetry_2
Co1 Cl1 1_555 1_555
Cl2 Co1 1_555 1_555
Pt1 P1 1_555 1_555
P1 C1 1_555 1_555
C1 C2 1_555 1_555
C2 H1 1_555 1_555
C3 C2 1_555 1_555
H2 C3 1_555 1_555
C4 C3 1_555 1_555
H3 C4 1_555 1_555
C5 C4 1_555 1_555
H4 C5 1_555 1_555
C6 C1 1_555 1_555
H5 C6 1_555 1_555
C7 P1 1_555 1_555
C8 C7 1_555 1_555
H6 C8 1_555 1_555
C9 C8 1_555 1_555
H7 C9 1_555 1_555
C10 C9 1_555 1_555
H8 C10 1_555 1_555
C11 C10 1_555 1_555
H9 C11 1_555 1_555
C12 C7 1_555 1_555
H10 C12 1_555 1_555
C13 P1 1_555 1_555
C14 C13 1_555 1_555
H11 C14 1_555 1_555
C15 C14 1_555 1_555
H12 C15 1_555 1_555
C16 C15 1_555 1_555
H13 C16 1_555 1_555
C17 C16 1_555 1_555
H14 C17 1_555 1_555
C18 C13 1_555 1_555
H15 C18 1_555 1_555
P2 Pt1 1_555 1_555
C19 P2 1_555 1_555
C20 C19 1_555 1_555
H16 C20 1_555 1_555
C21 C20 1_555 1_555
H17 C21 1_555 1_555
C22 C21 1_555 1_555
H18 C22 1_555 1_555
C23 C22 1_555 1_555
H19 C23 1_555 1_555
C24 C19 1_555 1_555
H20 C24 1_555 1_555
C25 P2 1_555 1_555
C26 C25 1_555 1_555
H21 C26 1_555 1_555
C27 C26 1_555 1_555
H22 C27 1_555 1_555
C28 C27 1_555 1_555
H23 C28 1_555 1_555
C29 C28 1_555 1_555
H24 C29 1_555 1_555
C30 C25 1_555 1_555
H25 C30 1_555 1_555
C31 P2 1_555 1_555
C32 C31 1_555 1_555
H26 C32 1_555 1_555
C33 C32 1_555 1_555
H27 C33 1_555 1_555
C34 C33 1_555 1_555
H28 C34 1_555 1_555
C35 C34 1_555 1_555
H29 C35 1_555 1_555
C36 C31 1_555 1_555
H30 C36 1_555 1_555
C37 Pt1 1_555 1_555
C38 C37 1_555 1_555
C39 C38 1_555 1_555
C40 C39 1_555 1_555
H31 C40 1_555 1_555
C41 C40 1_555 1_555
H32 C41 1_555 1_555
N1 C41 1_555 1_555
C42 N1 1_555 1_555
H33 C42 1_555 1_555
C43 C39 1_555 1_555
H34 C43 1_555 1_555
C44 Pt1 1_555 1_555
C45 C44 1_555 1_555
C46 C45 1_555 1_555
C47 C46 1_555 1_555
H35 C47 1_555 1_555
C48 C47 1_555 1_555
H36 C48 1_555 1_555
N2 Co1 1_555 1_555
C49 N2 1_555 1_555
H37 C49 1_555 1_555
C50 C46 1_555 1_555
H38 C50 1_555 1_555
Pt2 P3 1_555 1_555
P3 C51 1_555 1_555
C51 C52 1_555 1_555
C52 H39 1_555 1_555
C53 C52 1_555 1_555
H40 C53 1_555 1_555
C54 C53 1_555 1_555
H41 C54 1_555 1_555
C55 C54 1_555 1_555
H42 C55 1_555 1_555
C56 C51 1_555 1_555
H43 C56 1_555 1_555
C57 P3 1_555 1_555
C58 C57 1_555 1_555
H44 C58 1_555 1_555
C59 C58 1_555 1_555
H45 C59 1_555 1_555
C60 C59 1_555 1_555
H46 C60 1_555 1_555
C61 C60 1_555 1_555
H47 C61 1_555 1_555
C62 C57 1_555 1_555
H48 C62 1_555 1_555
C63 P3 1_555 1_555
C64 C63 1_555 1_555
H49 C64 1_555 1_555
C65 C64 1_555 1_555
H50 C65 1_555 1_555
C66 C65 1_555 1_555
H51 C66 1_555 1_555
C67 C66 1_555 1_555
H52 C67 1_555 1_555
C68 C63 1_555 1_555
H53 C68 1_555 1_555
C69 Pt2 1_555 1_555
C70 C69 1_555 1_555
C71 C70 1_555 1_555
C72 C71 1_555 1_555
H54 C72 1_555 1_555
C73 C72 1_555 1_555
H55 C73 1_555 1_555
N3 Co1 1_555 1_555
C74 N3 1_555 1_555
H56 C74 1_555 1_555
C75 C71 1_555 1_555
H57 C75 1_555 1_555
Pt3 P4 1_555 1_555
P4 C76 1_555 1_555
C76 C77 1_555 1_555
C77 H58 1_555 1_555
C78 C77 1_555 1_555
H59 C78 1_555 1_555
C79 C78 1_555 1_555
H60 C79 1_555 1_555
C80 C79 1_555 1_555
H61 C80 1_555 1_555
C81 C76 1_555 1_555
H62 C81 1_555 1_555
C82 P4 1_555 1_555
C83 C82 1_555 1_555
H63 C83 1_555 1_555
C84 C83 1_555 1_555
H64 C84 1_555 1_555
C85 C84 1_555 1_555
H65 C85 1_555 1_555
C86 C85 1_555 1_555
H66 C86 1_555 1_555
C87 C82 1_555 1_555
H67 C87 1_555 1_555
C88 P4 1_555 1_555
C89 C88 1_555 1_555
H68 C89 1_555 1_555
C90 C89 1_555 1_555
H69 C90 1_555 1_555
C91 C90 1_555 1_555
H70 C91 1_555 1_555
C92 C91 1_555 1_555
H71 C92 1_555 1_555
C93 C88 1_555 1_555
H72 C93 1_555 1_555
C94 Pt3 1_555 1_555
C95 C94 1_555 1_555
C96 C95 1_555 1_555
C97 C96 1_555 1_555
H73 C97 1_555 1_555
C98 C97 1_555 1_555
H74 C98 1_555 1_555
N4 Co1 1_555 1_555
C99 N4 1_555 1_555
H75 C99 1_555 1_555
C100 C96 1_555 1_555
H76 C100 1_555 1_555
C101 H77 1_555 1_555
Cl3 C101 1_555 1_555
Cl4 C101 1_555 1_555
Cl5 C101 1_555 1_555
C102 H78 1_555 1_555
Cl6 C102 1_555 1_555
Cl7 C102 1_555 1_555
Cl8 C102 1_555 1_555
C103 H79 1_555 1_555
Cl9 C103 1_555 1_555
Cl10 C103 1_555 1_555
Cl11 C103 1_555 1_555
C104 H80 1_555 1_555
Cl12 C104 1_555 1_555
Cl13 C104 1_555 1_555
Cl14 C104 1_555 1_555
Co1A Cl1A 1_555 1_555
Cl2A Co1A 1_555 1_555
Pt1A P1A 1_555 1_555
P1A C1A 1_555 1_555
C1A C2A 1_555 1_555
C2A H1A 1_555 1_555
C3A C2A 1_555 1_555
H2A C3A 1_555 1_555
C4A C3A 1_555 1_555
H3A C4A 1_555 1_555
C5A C4A 1_555 1_555
H4A C5A 1_555 1_555
C6A C1A 1_555 1_555
H5A C6A 1_555 1_555
C7A P1A 1_555 1_555
C8A C7A 1_555 1_555
H6A C8A 1_555 1_555
C9A C8A 1_555 1_555
H7A C9A 1_555 1_555
C10A C9A 1_555 1_555
H8A C10A 1_555 1_555
C11A C10A 1_555 1_555
H9A C11A 1_555 1_555
C12A C7A 1_555 1_555
H10A C12A 1_555 1_555
C13A P1A 1_555 1_555
C14A C13A 1_555 1_555
H11A C14A 1_555 1_555
C15A C14A 1_555 1_555
H12A C15A 1_555 1_555
C16A C15A 1_555 1_555
H13A C16A 1_555 1_555
C17A C16A 1_555 1_555
H14A C17A 1_555 1_555
C18A C13A 1_555 1_555
H15A C18A 1_555 1_555
P2A Pt1A 1_555 1_555
C19A P2A 1_555 1_555
C20A C19A 1_555 1_555
H16A C20A 1_555 1_555
C21A C20A 1_555 1_555
H17A C21A 1_555 1_555
C22A C21A 1_555 1_555
H18A C22A 1_555 1_555
C23A C22A 1_555 1_555
H19A C23A 1_555 1_555
C24A C19A 1_555 1_555
H20A C24A 1_555 1_555
C25A P2A 1_555 1_555
C26A C25A 1_555 1_555
H21A C26A 1_555 1_555
C27A C26A 1_555 1_555
H22A C27A 1_555 1_555
C28A C27A 1_555 1_555
H23A C28A 1_555 1_555
C29A C28A 1_555 1_555
H24A C29A 1_555 1_555
C30A C25A 1_555 1_555
H25A C30A 1_555 1_555
C31A P2A 1_555 1_555
C32A C31A 1_555 1_555
H26A C32A 1_555 1_555
C33A C32A 1_555 1_555
H27A C33A 1_555 1_555
C34A C33A 1_555 1_555
H28A C34A 1_555 1_555
C35A C34A 1_555 1_555
H29A C35A 1_555 1_555
C36A C31A 1_555 1_555
H30A C36A 1_555 1_555
C37A Pt1A 1_555 1_555
C38A C37A 1_555 1_555
C39A C38A 1_555 1_555
C40A C39A 1_555 1_555
H31A C40A 1_555 1_555
C41A C40A 1_555 1_555
H32A C41A 1_555 1_555
N1A C41A 1_555 1_555
C42A N1A 1_555 1_555
H33A C42A 1_555 1_555
C43A C39A 1_555 1_555
H34A C43A 1_555 1_555
C44A Pt1A 1_555 1_555
C45A C44A 1_555 1_555
C46A C45A 1_555 1_555
C47A C46A 1_555 1_555
H35A C47A 1_555 1_555
C48A C47A 1_555 1_555
H36A C48A 1_555 1_555
N2A Co1A 1_555 1_555
C49A N2A 1_555 1_555
H37A C49A 1_555 1_555
C50A C46A 1_555 1_555
H38A C50A 1_555 1_555
P3A Pt2 1_555 1_555
C51A P3A 1_555 1_555
C52A C51A 1_555 1_555
H39A C52A 1_555 1_555
C53A C52A 1_555 1_555
H40A C53A 1_555 1_555
C54A C53A 1_555 1_555
H41A C54A 1_555 1_555
C55A C54A 1_555 1_555
H42A C55A 1_555 1_555
C56A C51A 1_555 1_555
H43A C56A 1_555 1_555
C57A P3A 1_555 1_555
C58A C57A 1_555 1_555
H44A C58A 1_555 1_555
C59A C58A 1_555 1_555
H45A C59A 1_555 1_555
C60A C59A 1_555 1_555
H46A C60A 1_555 1_555
C61A C60A 1_555 1_555
H47A C61A 1_555 1_555
C62A C57A 1_555 1_555
H48A C62A 1_555 1_555
C63A P3A 1_555 1_555
C64A C63A 1_555 1_555
H49A C64A 1_555 1_555
C65A C64A 1_555 1_555
H50A C65A 1_555 1_555
C66A C65A 1_555 1_555
H51A C66A 1_555 1_555
C67A C66A 1_555 1_555
H52A C67A 1_555 1_555
C68A C63A 1_555 1_555
H53A C68A 1_555 1_555
C69A Pt2 1_555 1_555
C70A C69A 1_555 1_555
C71A C70A 1_555 1_555
C72A C71A 1_555 1_555
H54A C72A 1_555 1_555
C73A C72A 1_555 1_555
H55A C73A 1_555 1_555
N3A Co1A 1_555 1_555
C74A N3A 1_555 1_555
H56A C74A 1_555 1_555
C75A C71A 1_555 1_555
H57A C75A 1_555 1_555
C94A C95A 1_555 1_555
C95A C96A 1_555 1_555
C96A C97A 1_555 1_555
C97A H73A 1_555 1_555
C98A C97A 1_555 1_555
H74A C98A 1_555 1_555
N4A Co1A 1_555 1_555
C99A N4A 1_555 1_555
H75A C99A 1_555 1_555
C100A C96A 1_555 1_555
H76A C100A 1_555 1_555
P4A Pt3 1_555 1_555
C76A P4A 1_555 1_555
C77A C76A 1_555 1_555
H58A C77A 1_555 1_555
C78A C77A 1_555 1_555
H59A C78A 1_555 1_555
C79A C78A 1_555 1_555
H60A C79A 1_555 1_555
C80A C79A 1_555 1_555
H61A C80A 1_555 1_555
C81A C76A 1_555 1_555
H62A C81A 1_555 1_555
C82A P4A 1_555 1_555
C83A C82A 1_555 1_555
H63A C83A 1_555 1_555
C84A C83A 1_555 1_555
H64A C84A 1_555 1_555
C85A C84A 1_555 1_555
H65A C85A 1_555 1_555
C86A C85A 1_555 1_555
H66A C86A 1_555 1_555
C87A C82A 1_555 1_555
H67A C87A 1_555 1_555
C88A P4A 1_555 1_555
C89A C88A 1_555 1_555
H68A C89A 1_555 1_555
C90A C89A 1_555 1_555
H69A C90A 1_555 1_555
C91A C90A 1_555 1_555
H70A C91A 1_555 1_555
C92A C91A 1_555 1_555
H71A C92A 1_555 1_555
C93A C88A 1_555 1_555
H72A C93A 1_555 1_555
Co1_2 N1 1_555 1_555
Co1A_2 N1A 1_555 1_555
N1_2 Co1 1_555 1_555
N1A_2 Co1A 1_555 1_555
Pt3_2 C94A 1_555 1_555
C94A_2 Pt3 1_555 1_555
C5 C6 1_555 1_555
C11 C12 1_555 1_555
C17 C18 1_555 1_555
C23 C24 1_555 1_555
C29 C30 1_555 1_555
C35 C36 1_555 1_555
C42 C43 1_555 1_555
C48 N2 1_555 1_555
C49 C50 1_555 1_555
C55 C56 1_555 1_555
C61 C62 1_555 1_555
C67 C68 1_555 1_555
C73 N3 1_555 1_555
C74 C75 1_555 1_555
C80 C81 1_555 1_555
C86 C87 1_555 1_555
C92 C93 1_555 1_555
C98 N4 1_555 1_555
C99 C100 1_555 1_555
C5A C6A 1_555 1_555
C11A C12A 1_555 1_555
C17A C18A 1_555 1_555
C23A C24A 1_555 1_555
C29A C30A 1_555 1_555
C35A C36A 1_555 1_555
C42A C43A 1_555 1_555
C48A N2A 1_555 1_555
C49A C50A 1_555 1_555
C55A C56A 1_555 1_555
C61A C62A 1_555 1_555
C67A C68A 1_555 1_555
C73A N3A 1_555 1_555
C74A C75A 1_555 1_555
C98A N4A 1_555 1_555
C99A C100A 1_555 1_555
C80A C81A 1_555 1_555
C86A C87A 1_555 1_555
C92A C93A 1_555 1_555

#END
