
#######################################################################
#
#                 Cambridge Crystallographic Data Centre
#                                CCDC 
#
#######################################################################
#
# If this CIF has been generated from an entry in the Cambridge 
# Structural Database, then it will include bibliographic, chemical, 
# crystal, experimental, refinement or atomic coordinate data resulting 
# from the CCDC's data processing and validation procedures.
#
#######################################################################

data_AHAYIT
_symmetry_cell_setting           triclinic
_symmetry_space_group_name_H-M   'P -1'
_symmetry_Int_Tables_number      2
_space_group_name_Hall           '-P 1'
loop_
_symmetry_equiv_pos_site_id
_symmetry_equiv_pos_as_xyz
1 x,y,z
2 -x,-y,-z
_cell_length_a                   11.0555(4)
_cell_length_b                   17.1663(6)
_cell_length_c                   30.4851(10)
_cell_angle_alpha                90.794(2)
_cell_angle_beta                 93.971(2)
_cell_angle_gamma                99.038(2)
_cell_volume                     5698.18
loop_
_atom_site_label
_atom_site_type_symbol
_atom_site_fract_x
_atom_site_fract_y
_atom_site_fract_z
Pt1 Pt 0.0000 0.0000 0.5000
P1 P -0.1383(2) 0.05985(15) 0.45833(8)
C1 C -0.0296(10) 0.0603(7) 0.5533(3)
C2 C -0.2447(10) 0.1088(7) 0.4880(3)
C3 C -0.0449(11) 0.1369(8) 0.4287(4)
C4 C -0.2432(9) 0.0028(8) 0.4183(3)
C5 C -0.0520(9) 0.0973(7) 0.5854(3)
C6 C -0.2480(13) 0.1889(9) 0.4875(4)
C7 C -0.3289(10) 0.0617(8) 0.5113(3)
C8 C -0.0516(16) 0.1414(10) 0.3843(5)
C9 C 0.0403(16) 0.1881(10) 0.4566(6)
C10 C -0.3239(11) 0.0396(8) 0.3928(4)
C11 C -0.2569(9) -0.0785(8) 0.4162(4)
C12 C -0.0775(8) 0.1433(6) 0.6206(3)
H1 H -0.1890 0.2225 0.4723
C13 C -0.3377(16) 0.2214(10) 0.5091(6)
C14 C -0.4191(10) 0.0938(10) 0.5323(3)
H2 H -0.3259 0.0068 0.5130
H3 H -0.1072 0.1058 0.3655
C15 C 0.036(2) 0.2076(16) 0.3674(7)
C16 C 0.116(2) 0.2494(13) 0.4377(9)
H4 H 0.0462 0.1809 0.4874
H5 H -0.3192 0.0951 0.3963
C17 C -0.4135(13) -0.0009(13) 0.3616(5)
C18 C -0.3429(10) -0.1248(11) 0.3863(5)
H6 H -0.2064 -0.1044 0.4357
C19 C 0.0118(8) 0.1852(7) 0.6499(3)
C20 C -0.1987(9) 0.1489(7) 0.6298(3)
H7 H -0.3410 0.2763 0.5085
C21 C -0.4208(12) 0.1704(9) 0.5313(4)
H8 H -0.4788 0.0606 0.5474
H9 H 0.0388 0.2148 0.3367
C22 C 0.108(2) 0.2546(15) 0.3941(9)
H10 H 0.1713 0.2867 0.4556
H11 H -0.4666 0.0257 0.3436
C23 C -0.4184(12) -0.0830(13) 0.3592(4)
H12 H -0.3498 -0.1806 0.3845
H13 H 0.0959 0.1834 0.6461
C24 C -0.0191(8) 0.2301(5) 0.6848(3)
C25 C -0.2229(8) 0.1922(6) 0.6640(3)
H14 H -0.2648 0.1213 0.6113
H15 H -0.4814 0.1914 0.5463
H16 H 0.1605 0.2967 0.3818
H17 H -0.4757 -0.1123 0.3381
H18 H 0.0450 0.2599 0.7032
N1 N -0.1343(6) 0.2326(4) 0.6931(2)
H19 H -0.3064 0.1951 0.6683
Ni1 Ni -0.18685(10) 0.28124(6) 0.75116(4)
Cl1 Cl -0.0233(4) 0.2390(3) 0.79384(15)
Cl2 Cl -0.3450(7) 0.3277(4) 0.7105(2)
N2 N -0.2543(7) 0.3262(4) 0.8069(2)
N3 N -0.0719(7) 0.3894(4) 0.7411(2)
N4 N -0.2912(7) 0.1714(5) 0.7607(3)
C26 C -0.2928(10) 0.3972(6) 0.8073(3)
C27 C -0.2593(10) 0.2868(5) 0.8449(3)
C28 C -0.0077(9) 0.4272(6) 0.7756(3)
C29 C -0.0605(9) 0.4195(6) 0.7013(3)
C30 C -0.3373(11) 0.4272(7) 0.8431(3)
H20 H -0.2885 0.4272 0.7814
H21 H -0.2321 0.2369 0.8456
C31 C -0.3011(10) 0.3142(7) 0.8823(3)
C32 C 0.0669(10) 0.4997(7) 0.7710(3)
H22 H -0.0126 0.4045 0.8038
H23 H -0.1059 0.3916 0.6768
C33 C 0.0133(8) 0.4886(6) 0.6943(3)
C34 C -0.3442(10) 0.3872(7) 0.8813(3)
H24 H -0.3641 0.4771 0.8415
H25 H -0.3012 0.2847 0.9084
C35 C 0.0816(8) 0.5312(5) 0.7313(3)
H26 H 0.1081 0.5272 0.7963
H27 H 0.0197 0.5083 0.6655
C36 C -0.3912(11) 0.4184(8) 0.9197(4)
C37 C 0.1617(9) 0.6047(6) 0.7256(3)
C38 C -0.4268(11) 0.4498(8) 0.9511(3)
C39 C 0.2280(10) 0.6670(7) 0.7269(4)
Pt2 Pt -0.5000 0.5000 1.0000
Pt3 Pt 0.34122(3) 0.77021(2) 0.729251(14)
P2 P -0.3639(3) 0.4577(2) 1.05150(10)
P3 P 0.4496(2) 0.72799(15) 0.67382(10)
P4 P 0.2337(3) 0.81786(19) 0.78262(11)
C40 C 0.4464(9) 0.8762(6) 0.7381(4)
C41 C -0.2870(17) 0.3787(14) 1.0344(5)
C42 C -0.4324(11) 0.4219(10) 1.1009(4)
C43 C -0.2402(8) 0.5360(8) 1.0696(4)
C44 C 0.3531(12) 0.6764(7) 0.6289(4)
C45 C 0.5488(10) 0.6569(6) 0.6909(4)
C46 C 0.5486(9) 0.8045(5) 0.6447(4)
C47 C 0.1165(7) 0.7495(5) 0.8089(3)
C48 C 0.3341(9) 0.8585(6) 0.8290(3)
C49 C 0.1595(12) 0.9004(8) 0.7638(4)
C50 C 0.5037(10) 0.9406(7) 0.7455(4)
C51 C -0.1947(17) 0.3901(17) 1.0062(6)
C52 C -0.3253(19) 0.2989(11) 1.0496(7)
C53 C -0.3721(16) 0.4312(14) 1.1433(5)
C54 C -0.5511(14) 0.3850(11) 1.0982(5)
C55 C -0.2584(9) 0.6143(8) 1.0696(5)
C56 C -0.1275(10) 0.5170(8) 1.0852(4)
C57 C 0.2341(14) 0.6864(8) 0.6205(5)
C58 C 0.398(2) 0.6251(13) 0.6021(6)
C59 C 0.4948(12) 0.5845(7) 0.7064(5)
C60 C 0.6718(15) 0.6681(9) 0.6880(6)
C61 C 0.6469(11) 0.8546(7) 0.6723(5)
C62 C 0.5338(11) 0.8165(8) 0.6030(5)
C63 C 0.0104(7) 0.7172(5) 0.7837(3)
C64 C 0.1369(9) 0.7251(7) 0.8516(3)
C65 C 0.4275(10) 0.8181(5) 0.8443(3)
C66 C 0.3135(10) 0.9255(6) 0.8515(4)
C67 C 0.0639(15) 0.9218(9) 0.7873(5)
C68 C 0.1875(10) 0.9379(8) 0.7252(5)
C69 C 0.5713(9) 1.0171(6) 0.7529(3)
H28 H -0.1656 0.4421 0.9974
C70 C -0.140(3) 0.326(3) 0.9894(8)
C71 C -0.258(3) 0.2461(14) 1.0330(11)
H29 H -0.3893 0.2851 1.0686
H30 H -0.2886 0.4557 1.1460
C72 C -0.4236(17) 0.4084(17) 1.1791(5)
C73 C -0.6121(15) 0.3520(9) 1.1350(6)
H31 H -0.5957 0.3809 1.0702
H32 H -0.3354 0.6273 1.0589
C74 C -0.1640(13) 0.6736(8) 1.0851(5)
C75 C -0.0332(8) 0.5763(11) 1.1007(4)
H33 H -0.1151 0.4635 1.0852
H34 H 0.2059 0.7228 0.6395
C76 C 0.151(3) 0.6522(11) 0.5892(8)
C77 C 0.323(3) 0.5869(11) 0.5662(8)
H35 H 0.4803 0.6152 0.6075
H36 H 0.4086 0.5738 0.7088
C78 C 0.5672(16) 0.5287(11) 0.7181(6)
C79 C 0.7419(16) 0.6115(11) 0.6987(6)
H37 H 0.7110 0.7173 0.6781
H38 H 0.6555 0.8503 0.7034
C80 C 0.7274(12) 0.9094(9) 0.6493(5)
C81 C 0.6115(18) 0.8647(9) 0.5797(5)
H39 H 0.4617 0.7890 0.5876
H40 H -0.0035 0.7339 0.7545
C82 C -0.0754(7) 0.6605(5) 0.8013(4)
C83 C 0.0511(11) 0.6683(7) 0.8693(3)
H41 H 0.2095 0.7471 0.8688
H42 H 0.4416 0.7723 0.8289
C84 C 0.5004(10) 0.8448(7) 0.8822(4)
C85 C 0.3863(13) 0.9522(6) 0.8894(4)
H43 H 0.2496 0.9531 0.8411
H44 H 0.0381 0.8938 0.8125
C86 C 0.011(2) 0.9813(14) 0.7735(7)
C87 C 0.1340(14) 1.0037(9) 0.7141(6)
H45 H 0.2423 0.9190 0.7065
C88 C 0.5146(9) 1.0840(7) 0.7581(4)
C89 C 0.6987(10) 1.0298(6) 0.7529(4)
H46 H -0.0817 0.3350 0.9680
C90 C -0.173(3) 0.253(2) 1.0040(8)
H47 H -0.2754 0.1947 1.0444
H48 H -0.3824 0.4226 1.2071
C91 C -0.542(2) 0.3622(13) 1.1757(6)
H49 H -0.6943 0.3251 1.1323
H50 H -0.1765 0.7271 1.0850
C92 C -0.0514(10) 0.6546(10) 1.1006(4)
H51 H 0.0438 0.5633 1.1113
H52 H 0.0694 0.6624 0.5858
C93 C 0.193(3) 0.606(2) 0.5651(12)
H53 H 0.3501 0.5533 0.5453
H54 H 0.5307 0.4812 0.7307
C94 C 0.6848(17) 0.5391(12) 0.7123(6)
H55 H 0.8283 0.6215 0.6968
H56 H 0.7972 0.9401 0.6644
C95 C 0.7028(15) 0.9178(7) 0.6037(5)
H57 H 0.6050 0.8629 0.5485
H58 H -0.1480 0.6385 0.7841
C96 C -0.0551(9) 0.6361(6) 0.8441(4)
H59 H 0.0650 0.6516 0.8985
H60 H 0.5643 0.8173 0.8926
C97 C 0.4798(12) 0.9119(7) 0.9047(3)
H61 H 0.3723 0.9981 0.9048
H62 H -0.0533 0.9961 0.7891
C98 C 0.049(2) 1.0253(16) 0.7349(7)
H63 H 0.1625 1.0338 0.6898
H64 H 0.4277 1.0781 0.7580
C99 C 0.5854(9) 1.1594(6) 0.7633(3)
C100 C 0.7624(9) 1.1033(6) 0.7565(4)
H65 H 0.7410 0.9861 0.7503
H66 H -0.1376 0.2093 0.9944
H67 H -0.5743 0.3378 1.2010
H68 H 0.0131 0.6951 1.1112
H69 H 0.1368 0.5786 0.5431
H70 H 0.7306 0.4974 0.7174
H71 H 0.7485 0.9599 0.5890
H72 H -0.1138 0.5973 0.8562
H73 H 0.5296 0.9302 0.9306
H74 H 0.0108 1.0688 0.7256
H75 H 0.5456 1.2034 0.7688
H76 H 0.8492 1.1094 0.7562
P1A P 0.1383(2) -0.05985(15) 0.54167(8)
C1A C 0.0296(10) -0.0603(7) 0.4467(3)
C2A C 0.2447(10) -0.1088(7) 0.5120(3)
C3A C 0.0449(11) -0.1369(8) 0.5713(4)
C4A C 0.2432(9) -0.0028(8) 0.5817(3)
C6A C 0.2480(13) -0.1889(9) 0.5125(4)
C7A C 0.3289(10) -0.0617(8) 0.4887(3)
C8A C 0.0516(16) -0.1414(10) 0.6157(5)
C9A C -0.0403(16) -0.1881(10) 0.5434(6)
C10A C 0.3239(11) -0.0396(8) 0.6072(4)
C11A C 0.2569(9) 0.0785(8) 0.5838(4)
H1A H 0.1890 -0.2225 0.5277
C13A C 0.3377(16) -0.2214(10) 0.4909(6)
C14A C 0.4191(10) -0.0938(10) 0.4677(3)
H2A H 0.3259 -0.0068 0.4870
H3A H 0.1072 -0.1058 0.6345
C15A C -0.036(2) -0.2076(16) 0.6326(7)
C16A C -0.116(2) -0.2494(13) 0.5623(9)
H4A H -0.0462 -0.1809 0.5126
H5A H 0.3192 -0.0951 0.6037
C17A C 0.4135(13) 0.0009(13) 0.6384(5)
C18A C 0.3429(10) 0.1248(11) 0.6137(5)
H6A H 0.2064 0.1044 0.5643
H7A H 0.3410 -0.2763 0.4915
C21A C 0.4208(12) -0.1704(9) 0.4687(4)
H8A H 0.4788 -0.0606 0.4526
H9A H -0.0388 -0.2148 0.6633
C22A C -0.108(2) -0.2546(15) 0.6059(9)
H10A H -0.1713 -0.2867 0.5444
H11A H 0.4666 -0.0257 0.6564
C23A C 0.4184(12) 0.0830(13) 0.6408(4)
H12A H 0.3498 0.1806 0.6155
H15A H 0.4814 -0.1914 0.4537
H16A H -0.1605 -0.2967 0.6182
H17A H 0.4757 0.1123 0.6619
P2A P -0.6361(3) 0.5423(2) 0.94850(10)
C38A C -0.5732(11) 0.5502(8) 1.0489(3)
C41A C -0.7130(17) 0.6213(14) 0.9656(5)
C42A C -0.5676(11) 0.5781(10) 0.8991(4)
C43A C -0.7598(8) 0.4640(8) 0.9304(4)
C36A C -0.6088(11) 0.5816(8) 1.0803(4)
C51A C -0.8053(17) 0.6099(17) 0.9938(6)
C52A C -0.6747(19) 0.7011(11) 0.9504(7)
C53A C -0.6279(16) 0.5688(14) 0.8567(5)
C54A C -0.4489(14) 0.6150(11) 0.9018(5)
C55A C -0.7416(9) 0.3857(8) 0.9304(5)
C56A C -0.8725(10) 0.4830(8) 0.9148(4)
C34A C -0.6558(10) 0.6128(7) 1.1187(3)
H28A H -0.8344 0.5579 1.0026
C70A C -0.860(3) 0.674(3) 1.0106(8)
C71A C -0.742(3) 0.7539(14) 0.9670(11)
H29A H -0.6107 0.7149 0.9314
H30A H -0.7114 0.5443 0.8540
C72A C -0.5764(17) 0.5916(17) 0.8209(5)
C73A C -0.3879(15) 0.6480(9) 0.8650(6)
H31A H -0.4043 0.6191 0.9298
H32A H -0.6646 0.3727 0.9411
C74A C -0.8360(13) 0.3264(8) 0.9149(5)
C75A C -0.9668(8) 0.4237(11) 0.8993(4)
H33A H -0.8849 0.5365 0.9148
C30A C -0.6627(11) 0.5728(7) 1.1569(3)
C31A C -0.6989(10) 0.6858(7) 1.1177(3)
H46A H -0.9183 0.6650 1.0320
C90A C -0.827(3) 0.747(2) 0.9960(8)
H47A H -0.7246 0.8053 0.9556
H48A H -0.6176 0.5774 0.7929
C91A C -0.458(2) 0.6378(13) 0.8243(6)
H49A H -0.3057 0.6749 0.8677
H50A H -0.8235 0.2729 0.9150
C92A C -0.9486(10) 0.3454(10) 0.8994(4)
H51A H -1.0438 0.4367 0.8887
H24A H -0.6359 0.5229 1.1585
C26A C -0.7072(10) 0.6028(6) 1.1927(3)
C27A C -0.7407(10) 0.7132(5) 1.1551(3)
H25A H -0.6988 0.7153 1.0916
H66A H -0.8624 0.7907 1.0056
H67A H -0.4257 0.6622 0.7990
H68A H -1.0131 0.3049 0.8888
H20A H -0.7115 0.5728 1.2186
N2A N -0.7457(7) 0.6738(4) 1.1931(2)
H21A H -0.7679 0.7631 1.1544
N4_2 N 0.7088(7) 1.1714(5) 0.7607(3)
Ni1A Ni -0.81315(10) 0.71876(6) 1.24884(4)
Ni1_2 Ni 0.81315(10) 1.28124(6) 0.75116(4)
Cl1A Cl -0.9767(4) 0.7610(3) 1.20616(15)
Cl2A Cl -0.6550(7) 0.6723(4) 1.2895(2)
N1A N -0.8657(6) 0.7674(4) 1.3069(2)
N3A N -0.9281(7) 0.6106(4) 1.2589(2)
N4A N -0.7088(7) 0.8286(5) 1.2393(3)
C24A C -0.9809(8) 0.7699(5) 1.3152(3)
C25A C -0.7771(8) 0.8078(6) 1.3360(3)
C28A C -0.9923(9) 0.5728(6) 1.2244(3)
C29A C -0.9395(9) 0.5805(6) 1.2987(3)
C19A C -1.0118(8) 0.8148(7) 1.3501(3)
H18A H -1.0450 0.7401 1.2968
H19A H -0.6936 0.8049 1.3317
C20A C -0.8013(9) 0.8511(7) 1.3702(3)
C32A C -1.0669(10) 0.5003(7) 1.2290(3)
H22A H -0.9874 0.5955 1.1962
H23A H -0.8941 0.6084 1.3232
C33A C -1.0133(8) 0.5114(6) 1.3057(3)
C12A C -0.9225(8) 0.8567(6) 1.3794(3)
H13A H -1.0959 0.8166 1.3539
H14A H -0.7352 0.8787 1.3887
C35A C -1.0816(8) 0.4688(5) 1.2687(3)
H26A H -1.1081 0.4728 1.2037
H27A H -1.0197 0.4917 1.3345
C5A C -0.9480(9) 0.9027(7) 1.4146(3)
C37A C -1.1617(9) 0.3953(6) 1.2744(3)
C1A_2 C -0.9704(10) 0.9397(7) 1.4467(3)
C39A C -1.2280(10) 0.3330(7) 1.2731(4)
Pt1_2 Pt -1.0000 1.0000 1.5000
Pt3A Pt -1.34122(3) 0.22979(2) 1.270749(14)
P3A P -1.4496(2) 0.27201(15) 1.32618(10)
P4A P -1.2337(3) 0.18214(19) 1.21738(11)
C40A C -1.4464(9) 0.1238(6) 1.2619(4)
C44A C -1.3531(12) 0.3236(7) 1.3711(4)
C45A C -1.5488(10) 0.3431(6) 1.3091(4)
C46A C -1.5486(9) 0.1955(5) 1.3553(4)
C47A C -1.1165(7) 0.2505(5) 1.1911(3)
C48A C -1.3341(9) 0.1415(6) 1.1710(3)
C49A C -1.1595(12) 0.0996(8) 1.2362(4)
C50A C -1.5037(10) 0.0594(7) 1.2545(4)
C57A C -1.2341(14) 0.3136(8) 1.3795(5)
C58A C -1.398(2) 0.3749(13) 1.3979(6)
C59A C -1.4948(12) 0.4155(7) 1.2936(5)
C60A C -1.6718(15) 0.3319(9) 1.3120(6)
C61A C -1.6469(11) 0.1454(7) 1.3277(5)
C62A C -1.5338(11) 0.1835(8) 1.3970(5)
C63A C -1.0104(7) 0.2828(5) 1.2163(3)
C64A C -1.1369(9) 0.2749(7) 1.1484(3)
C65A C -1.4275(10) 0.1819(5) 1.1557(3)
C66A C -1.3135(10) 0.0745(6) 1.1485(4)
C67A C -1.0639(15) 0.0782(9) 1.2127(5)
C68A C -1.1875(10) 0.0621(8) 1.2748(5)
C69A C -1.5713(9) -0.0171(6) 1.2471(3)
H34A H -1.2059 0.2772 1.3605
C76A C -1.151(3) 0.3478(11) 1.4108(8)
C77A C -1.323(3) 0.4131(11) 1.4338(8)
H35A H -1.4803 0.3848 1.3925
H36A H -1.4086 0.4262 1.2912
C78A C -1.5672(16) 0.4713(11) 1.2819(6)
C79A C -1.7419(16) 0.3885(11) 1.3013(6)
H37A H -1.7110 0.2827 1.3219
H38A H -1.6555 0.1497 1.2966
C80A C -1.7274(12) 0.0906(9) 1.3507(5)
C81A C -1.6115(18) 0.1353(9) 1.4203(5)
H39A H -1.4617 0.2110 1.4124
H40A H -0.9965 0.2661 1.2455
C82A C -0.9246(7) 0.3395(5) 1.1987(4)
C83A C -1.0511(11) 0.3317(7) 1.1307(3)
H41A H -1.2095 0.2529 1.1312
H42A H -1.4416 0.2277 1.1711
C84A C -1.5004(10) 0.1552(7) 1.1178(4)
C85A C -1.3863(13) 0.0478(6) 1.1106(4)
H43A H -1.2496 0.0469 1.1589
H44A H -1.0381 0.1062 1.1875
C86A C -1.011(2) 0.0187(14) 1.2265(7)
C87A C -1.1340(14) -0.0037(9) 1.2859(6)
H45A H -1.2423 0.0810 1.2935
C88A C -1.5146(9) -0.0840(7) 1.2419(4)
C89A C -1.6987(10) -0.0298(6) 1.2471(4)
H52A H -1.0694 0.3376 1.4142
C93A C -1.193(3) 0.394(2) 1.4349(12)
H53A H -1.3501 0.4467 1.4547
H54A H -1.5307 0.5188 1.2693
C94A C -1.6848(17) 0.4609(12) 1.2877(6)
H55A H -1.8283 0.3785 1.3032
H56A H -1.7972 0.0599 1.3356
C95A C -1.7028(15) 0.0822(7) 1.3963(5)
H57A H -1.6050 0.1371 1.4515
H58A H -0.8520 0.3615 1.2159
C96A C -0.9449(9) 0.3639(6) 1.1559(4)
H59A H -1.0650 0.3484 1.1015
H60A H -1.5643 0.1827 1.1074
C97A C -1.4798(12) 0.0881(7) 1.0953(3)
H61A H -1.3723 0.0019 1.0952
H62A H -0.9467 0.0039 1.2109
C98A C -1.049(2) -0.0253(16) 1.2651(7)
H63A H -1.1625 -0.0338 1.3102
H64A H -1.4277 -0.0781 1.2420
C99A C -1.5854(9) -0.1594(6) 1.2367(3)
C100A C -1.7624(9) -0.1033(6) 1.2435(4)
H65A H -1.7410 0.0139 1.2497
H69A H -1.1368 0.4214 1.4569
H70A H -1.7306 0.5026 1.2826
H71A H -1.7485 0.0401 1.4110
H72A H -0.8862 0.4027 1.1438
H73A H -1.5296 0.0698 1.0694
H74A H -1.0108 -0.0688 1.2744
H75A H -1.5456 -0.2034 1.2312
N4A_2 N -1.7088(7) -0.1714(5) 1.2393(3)
H76A H -1.8492 -0.1094 1.2438
Ni1A_2 Ni -1.81315(10) -0.28124(6) 1.24884(4)
loop_
_geom_bond_atom_site_label_1
_geom_bond_atom_site_label_2
_geom_bond_site_symmetry_1
_geom_bond_site_symmetry_2
Pt1 P1 1_555 1_555
P1 C2 1_555 1_555
C1 Pt1 1_555 1_555
C2 C6 1_555 1_555
C3 P1 1_555 1_555
C4 P1 1_555 1_555
C5 C1 1_555 1_555
C6 H1 1_555 1_555
C7 C2 1_555 1_555
C8 C3 1_555 1_555
C9 C3 1_555 1_555
C10 C4 1_555 1_555
C11 C4 1_555 1_555
C12 C5 1_555 1_555
C13 C6 1_555 1_555
C14 C7 1_555 1_555
H2 C7 1_555 1_555
H3 C8 1_555 1_555
C15 C8 1_555 1_555
C16 C9 1_555 1_555
H4 C9 1_555 1_555
H5 C10 1_555 1_555
C17 C10 1_555 1_555
C18 C11 1_555 1_555
H6 C11 1_555 1_555
C19 C12 1_555 1_555
C20 C12 1_555 1_555
H7 C13 1_555 1_555
C21 C13 1_555 1_555
H8 C14 1_555 1_555
H9 C15 1_555 1_555
C22 C15 1_555 1_555
H10 C16 1_555 1_555
H11 C17 1_555 1_555
C23 C17 1_555 1_555
H12 C18 1_555 1_555
H13 C19 1_555 1_555
C24 C19 1_555 1_555
C25 C20 1_555 1_555
H14 C20 1_555 1_555
H15 C21 1_555 1_555
H16 C22 1_555 1_555
H17 C23 1_555 1_555
H18 C24 1_555 1_555
N1 C24 1_555 1_555
H19 C25 1_555 1_555
Ni1 N1 1_555 1_555
Cl1 Ni1 1_555 1_555
Cl2 Ni1 1_555 1_555
N2 Ni1 1_555 1_555
N3 Ni1 1_555 1_555
N4 Ni1 1_555 1_555
C26 N2 1_555 1_555
C27 N2 1_555 1_555
C28 N3 1_555 1_555
C29 N3 1_555 1_555
C30 C26 1_555 1_555
H20 C26 1_555 1_555
H21 C27 1_555 1_555
C31 C27 1_555 1_555
C32 C28 1_555 1_555
H22 C28 1_555 1_555
H23 C29 1_555 1_555
C33 C29 1_555 1_555
C34 C30 1_555 1_555
H24 C30 1_555 1_555
H25 C31 1_555 1_555
C35 C32 1_555 1_555
H26 C32 1_555 1_555
H27 C33 1_555 1_555
C36 C34 1_555 1_555
C37 C35 1_555 1_555
C38 C36 1_555 1_555
C39 C37 1_555 1_555
Pt2 C38 1_555 1_555
Pt3 C39 1_555 1_555
P2 Pt2 1_555 1_555
P3 Pt3 1_555 1_555
P4 Pt3 1_555 1_555
C40 Pt3 1_555 1_555
C41 P2 1_555 1_555
C42 P2 1_555 1_555
C43 P2 1_555 1_555
C44 P3 1_555 1_555
C45 P3 1_555 1_555
C46 P3 1_555 1_555
C47 P4 1_555 1_555
C48 P4 1_555 1_555
C49 P4 1_555 1_555
C50 C40 1_555 1_555
C51 C41 1_555 1_555
C52 C41 1_555 1_555
C53 C42 1_555 1_555
C54 C42 1_555 1_555
C55 C43 1_555 1_555
C56 C43 1_555 1_555
C57 C44 1_555 1_555
C58 C44 1_555 1_555
C59 C45 1_555 1_555
C60 C45 1_555 1_555
C61 C46 1_555 1_555
C62 C46 1_555 1_555
C63 C47 1_555 1_555
C64 C47 1_555 1_555
C65 C48 1_555 1_555
C66 C48 1_555 1_555
C67 C49 1_555 1_555
C68 C49 1_555 1_555
C69 C50 1_555 1_555
H28 C51 1_555 1_555
C70 C51 1_555 1_555
C71 C52 1_555 1_555
H29 C52 1_555 1_555
H30 C53 1_555 1_555
C72 C53 1_555 1_555
C73 C54 1_555 1_555
H31 C54 1_555 1_555
H32 C55 1_555 1_555
C74 C55 1_555 1_555
C75 C56 1_555 1_555
H33 C56 1_555 1_555
H34 C57 1_555 1_555
C76 C57 1_555 1_555
C77 C58 1_555 1_555
H35 C58 1_555 1_555
H36 C59 1_555 1_555
C78 C59 1_555 1_555
C79 C60 1_555 1_555
H37 C60 1_555 1_555
H38 C61 1_555 1_555
C80 C61 1_555 1_555
C81 C62 1_555 1_555
H39 C62 1_555 1_555
H40 C63 1_555 1_555
C82 C63 1_555 1_555
C83 C64 1_555 1_555
H41 C64 1_555 1_555
H42 C65 1_555 1_555
C84 C65 1_555 1_555
C85 C66 1_555 1_555
H43 C66 1_555 1_555
H44 C67 1_555 1_555
C86 C67 1_555 1_555
C87 C68 1_555 1_555
H45 C68 1_555 1_555
C88 C69 1_555 1_555
C89 C69 1_555 1_555
H46 C70 1_555 1_555
C90 C70 1_555 1_555
H47 C71 1_555 1_555
H48 C72 1_555 1_555
C91 C72 1_555 1_555
H49 C73 1_555 1_555
H50 C74 1_555 1_555
C92 C74 1_555 1_555
H51 C75 1_555 1_555
H52 C76 1_555 1_555
C93 C76 1_555 1_555
H53 C77 1_555 1_555
H54 C78 1_555 1_555
C94 C78 1_555 1_555
H55 C79 1_555 1_555
H56 C80 1_555 1_555
C95 C80 1_555 1_555
H57 C81 1_555 1_555
H58 C82 1_555 1_555
C96 C82 1_555 1_555
H59 C83 1_555 1_555
H60 C84 1_555 1_555
C97 C84 1_555 1_555
H61 C85 1_555 1_555
H62 C86 1_555 1_555
C98 C86 1_555 1_555
H63 C87 1_555 1_555
H64 C88 1_555 1_555
C99 C88 1_555 1_555
C100 C89 1_555 1_555
H65 C89 1_555 1_555
H66 C90 1_555 1_555
H67 C91 1_555 1_555
H68 C92 1_555 1_555
H69 C93 1_555 1_555
H70 C94 1_555 1_555
H71 C95 1_555 1_555
H72 C96 1_555 1_555
H73 C97 1_555 1_555
H74 C98 1_555 1_555
H75 C99 1_555 1_555
H76 C100 1_555 1_555
P1A Pt1 1_555 1_555
C1A Pt1 1_555 1_555
C2A P1A 1_555 1_555
C3A P1A 1_555 1_555
C4A P1A 1_555 1_555
C6A C2A 1_555 1_555
C7A C2A 1_555 1_555
C8A C3A 1_555 1_555
C9A C3A 1_555 1_555
C10A C4A 1_555 1_555
C11A C4A 1_555 1_555
H1A C6A 1_555 1_555
C13A C6A 1_555 1_555
C14A C7A 1_555 1_555
H2A C7A 1_555 1_555
H3A C8A 1_555 1_555
C15A C8A 1_555 1_555
C16A C9A 1_555 1_555
H4A C9A 1_555 1_555
H5A C10A 1_555 1_555
C17A C10A 1_555 1_555
C18A C11A 1_555 1_555
H6A C11A 1_555 1_555
H7A C13A 1_555 1_555
C21A C13A 1_555 1_555
H8A C14A 1_555 1_555
H9A C15A 1_555 1_555
C22A C15A 1_555 1_555
H10A C16A 1_555 1_555
H11A C17A 1_555 1_555
C23A C17A 1_555 1_555
H12A C18A 1_555 1_555
H15A C21A 1_555 1_555
H16A C22A 1_555 1_555
H17A C23A 1_555 1_555
P2A Pt2 1_555 1_555
C38A Pt2 1_555 1_555
C41A P2A 1_555 1_555
C42A P2A 1_555 1_555
C43A P2A 1_555 1_555
C36A C38A 1_555 1_555
C51A C41A 1_555 1_555
C52A C41A 1_555 1_555
C53A C42A 1_555 1_555
C54A C42A 1_555 1_555
C55A C43A 1_555 1_555
C56A C43A 1_555 1_555
C34A C36A 1_555 1_555
H28A C51A 1_555 1_555
C70A C51A 1_555 1_555
C71A C52A 1_555 1_555
H29A C52A 1_555 1_555
H30A C53A 1_555 1_555
C72A C53A 1_555 1_555
C73A C54A 1_555 1_555
H31A C54A 1_555 1_555
H32A C55A 1_555 1_555
C74A C55A 1_555 1_555
C75A C56A 1_555 1_555
H33A C56A 1_555 1_555
C30A C34A 1_555 1_555
C31A C34A 1_555 1_555
H46A C70A 1_555 1_555
C90A C70A 1_555 1_555
H47A C71A 1_555 1_555
H48A C72A 1_555 1_555
C91A C72A 1_555 1_555
H49A C73A 1_555 1_555
H50A C74A 1_555 1_555
C92A C74A 1_555 1_555
H51A C75A 1_555 1_555
H24A C30A 1_555 1_555
C26A C30A 1_555 1_555
C27A C31A 1_555 1_555
H25A C31A 1_555 1_555
H66A C90A 1_555 1_555
H67A C91A 1_555 1_555
H68A C92A 1_555 1_555
H20A C26A 1_555 1_555
N2A C26A 1_555 1_555
H21A C27A 1_555 1_555
N4_2 C99 1_555 1_555
Ni1A N2A 1_555 1_555
Ni1_2 N4_2 1_555 1_555
Cl1A Ni1A 1_555 1_555
Cl2A Ni1A 1_555 1_555
N1A Ni1A 1_555 1_555
N3A Ni1A 1_555 1_555
N4A Ni1A 1_555 1_555
C24A N1A 1_555 1_555
C25A N1A 1_555 1_555
C28A N3A 1_555 1_555
C29A N3A 1_555 1_555
C19A C24A 1_555 1_555
H18A C24A 1_555 1_555
H19A C25A 1_555 1_555
C20A C25A 1_555 1_555
C32A C28A 1_555 1_555
H22A C28A 1_555 1_555
H23A C29A 1_555 1_555
C33A C29A 1_555 1_555
C12A C19A 1_555 1_555
H13A C19A 1_555 1_555
H14A C20A 1_555 1_555
C35A C32A 1_555 1_555
H26A C32A 1_555 1_555
H27A C33A 1_555 1_555
C5A C12A 1_555 1_555
C37A C35A 1_555 1_555
C1A_2 C5A 1_555 1_555
C39A C37A 1_555 1_555
Pt1_2 C1A_2 1_555 1_555
Pt3A C39A 1_555 1_555
P3A Pt3A 1_555 1_555
P4A Pt3A 1_555 1_555
C40A Pt3A 1_555 1_555
C44A P3A 1_555 1_555
C45A P3A 1_555 1_555
C46A P3A 1_555 1_555
C47A P4A 1_555 1_555
C48A P4A 1_555 1_555
C49A P4A 1_555 1_555
C50A C40A 1_555 1_555
C57A C44A 1_555 1_555
C58A C44A 1_555 1_555
C59A C45A 1_555 1_555
C60A C45A 1_555 1_555
C61A C46A 1_555 1_555
C62A C46A 1_555 1_555
C63A C47A 1_555 1_555
C64A C47A 1_555 1_555
C65A C48A 1_555 1_555
C66A C48A 1_555 1_555
C67A C49A 1_555 1_555
C68A C49A 1_555 1_555
C69A C50A 1_555 1_555
H34A C57A 1_555 1_555
C76A C57A 1_555 1_555
C77A C58A 1_555 1_555
H35A C58A 1_555 1_555
H36A C59A 1_555 1_555
C78A C59A 1_555 1_555
C79A C60A 1_555 1_555
H37A C60A 1_555 1_555
H38A C61A 1_555 1_555
C80A C61A 1_555 1_555
C81A C62A 1_555 1_555
H39A C62A 1_555 1_555
H40A C63A 1_555 1_555
C82A C63A 1_555 1_555
C83A C64A 1_555 1_555
H41A C64A 1_555 1_555
H42A C65A 1_555 1_555
C84A C65A 1_555 1_555
C85A C66A 1_555 1_555
H43A C66A 1_555 1_555
H44A C67A 1_555 1_555
C86A C67A 1_555 1_555
C87A C68A 1_555 1_555
H45A C68A 1_555 1_555
C88A C69A 1_555 1_555
C89A C69A 1_555 1_555
H52A C76A 1_555 1_555
C93A C76A 1_555 1_555
H53A C77A 1_555 1_555
H54A C78A 1_555 1_555
C94A C78A 1_555 1_555
H55A C79A 1_555 1_555
H56A C80A 1_555 1_555
C95A C80A 1_555 1_555
H57A C81A 1_555 1_555
H58A C82A 1_555 1_555
C96A C82A 1_555 1_555
H59A C83A 1_555 1_555
H60A C84A 1_555 1_555
C97A C84A 1_555 1_555
H61A C85A 1_555 1_555
H62A C86A 1_555 1_555
C98A C86A 1_555 1_555
H63A C87A 1_555 1_555
H64A C88A 1_555 1_555
C99A C88A 1_555 1_555
C100A C89A 1_555 1_555
H65A C89A 1_555 1_555
H69A C93A 1_555 1_555
H70A C94A 1_555 1_555
H71A C95A 1_555 1_555
H72A C96A 1_555 1_555
H73A C97A 1_555 1_555
H74A C98A 1_555 1_555
H75A C99A 1_555 1_555
N4A_2 C99A 1_555 1_555
H76A C100A 1_555 1_555
Ni1A_2 N4A_2 1_555 1_555
C14 C21 1_555 1_555
C16 C22 1_555 1_555
C18 C23 1_555 1_555
C25 N1 1_555 1_555
C31 C34 1_555 1_555
C33 C35 1_555 1_555
C71 C90 1_555 1_555
C73 C91 1_555 1_555
C75 C92 1_555 1_555
C77 C93 1_555 1_555
C79 C94 1_555 1_555
C81 C95 1_555 1_555
C83 C96 1_555 1_555
C85 C97 1_555 1_555
C87 C98 1_555 1_555
C100 N4_2 1_555 1_555
C14A C21A 1_555 1_555
C16A C22A 1_555 1_555
C18A C23A 1_555 1_555
C71A C90A 1_555 1_555
C73A C91A 1_555 1_555
C75A C92A 1_555 1_555
C27A N2A 1_555 1_555
C20A C12A 1_555 1_555
C33A C35A 1_555 1_555
C77A C93A 1_555 1_555
C79A C94A 1_555 1_555
C81A C95A 1_555 1_555
C83A C96A 1_555 1_555
C85A C97A 1_555 1_555
C87A C98A 1_555 1_555
C100A N4A_2 1_555 1_555

#END
