
#######################################################################
#
#                 Cambridge Crystallographic Data Centre
#                                CCDC 
#
#######################################################################
#
# If this CIF has been generated from an entry in the Cambridge 
# Structural Database, then it will include bibliographic, chemical, 
# crystal, experimental, refinement or atomic coordinate data resulting 
# from the CCDC's data processing and validation procedures.
#
#######################################################################

data_AHEBIY
_symmetry_cell_setting           orthorhombic
_symmetry_space_group_name_H-M   'P 21 21 21'
_symmetry_Int_Tables_number      19
_space_group_name_Hall           'P 2ac 2ab'
loop_
_symmetry_equiv_pos_site_id
_symmetry_equiv_pos_as_xyz
1 x,y,z
2 1/2-x,-y,1/2+z
3 1/2+x,1/2-y,-z
4 -x,1/2+y,1/2-z
_cell_length_a                   8.7597(5)
_cell_length_b                   15.1614(11)
_cell_length_c                   19.4053(11)
_cell_angle_alpha                90
_cell_angle_beta                 90
_cell_angle_gamma                90
_cell_volume                     2577.2
loop_
_atom_site_label
_atom_site_type_symbol
_atom_site_fract_x
_atom_site_fract_y
_atom_site_fract_z
Ag1 Ag 0.22274(2) -0.477000(11) 0.336200(9)
S1 S 0.98430(6) -0.38183(3) 0.33575(3)
S2 S 0.44243(7) -0.35655(4) 0.31753(3)
S3 S 0.77325(8) -0.11644(3) 0.23782(3)
C1 C 1.0108(3) -0.32093(17) 0.25559(13)
H1 H 0.986(3) -0.2621(17) 0.2641(12)
H2 H 1.112(5) -0.326(2) 0.2404(17)
C2 C 0.9081(3) -0.36089(17) 0.19980(12)
H3 H 0.918(4) -0.425(2) 0.1966(14)
H4 H 0.946(3) -0.3410(18) 0.1542(15)
C3 C 1.0035(3) -0.29871(17) 0.40341(14)
H5 H 0.986(4) -0.331(2) 0.4405(19)
H6 H 1.110(6) -0.281(3) 0.406(2)
C4 C 0.8980(3) -0.21892(16) 0.39615(13)
H7 H 0.945(3) -0.1791(18) 0.3611(14)
H8 H 0.903(4) -0.1865(18) 0.4398(16)
C5 C 0.4889(3) -0.32703(17) 0.40688(13)
H9 H 0.428(4) -0.279(2) 0.4141(16)
H10 H 0.463(3) -0.3728(18) 0.4345(13)
C6 C 0.6548(3) -0.30384(16) 0.42226(12)
H11 H 0.719(4) -0.360(2) 0.4243(15)
H12 H 0.666(3) -0.2833(19) 0.4699(15)
C7 C 0.5929(3) -0.43164(15) 0.28909(13)
H13 H 0.671(3) -0.4246(16) 0.3187(13)
H14 H 0.559(3) -0.4894(19) 0.2917(14)
C8 C 0.6416(3) -0.41126(16) 0.21519(13)
H15 H 0.547(5) -0.398(2) 0.1894(18)
H16 H 0.686(4) -0.466(2) 0.1987(15)
C9 C 0.6231(3) -0.18646(16) 0.20096(13)
H17 H 0.562(3) -0.1512(18) 0.1683(15)
H18 H 0.558(3) -0.2075(17) 0.2396(13)
C10 C 0.6945(3) -0.26490(15) 0.16305(14)
H19 H 0.780(4) -0.2420(18) 0.1353(15)
H20 H 0.624(4) -0.284(2) 0.1320(16)
C11 C 0.7019(3) -0.08035(15) 0.32180(13)
H21 H 0.789(4) -0.053(2) 0.3404(17)
H22 H 0.633(3) -0.0403(18) 0.3105(13)
C12 C 0.6393(3) -0.15246(16) 0.36900(13)
H23 H 0.534(4) -0.1672(18) 0.3539(14)
H24 H 0.624(4) -0.126(2) 0.4150(17)
C13 C 0.7329(3) -0.23805(13) 0.37382(11)
H25 H 0.738(3) -0.2649(14) 0.3291(12)
S4 S 0.33648(10) -0.54192(4) 0.48531(3)
O1 O 0.1840(4) -0.5277(2) 0.4614(2)
O2 O 0.3877(3) -0.47807(13) 0.53403(9)
O3 O 0.4441(4) -0.55270(14) 0.42855(11)
C14 C 0.3337(3) -0.64408(16) 0.53060(12)
C15 C 0.2323(3) -0.65431(15) 0.58488(12)
H26 H 0.166(4) -0.608(2) 0.5953(16)
C16 C 0.2312(3) -0.73168(17) 0.62257(13)
H27 H 0.171(3) -0.7348(18) 0.6608(17)
C17 C 0.3309(3) -0.80039(16) 0.60670(14)
C18 C 0.3279(5) -0.8853(2) 0.6481(2)
H28 H 0.325(4) -0.878(2) 0.694(2)
H29 H 0.415(7) -0.931(4) 0.633(3)
H30 H 0.242(7) -0.915(3) 0.635(2)
C19 C 0.4326(3) -0.78920(17) 0.55251(15)
H31 H 0.504(4) -0.832(2) 0.5474(15)
C20 C 0.4339(3) -0.71110(17) 0.51434(14)
H32 H 0.500(4) -0.700(2) 0.4820(18)
N1 N 0.7473(2) -0.33688(12) 0.20756(9)
S1_2 S -0.01570(6) -0.38183(3) 0.33575(3)
Ag1_2 Ag 1.22274(2) -0.477000(11) 0.336200(9)
Ag1C Ag 0.77726(2) 0.023000(11) 0.163800(9)
S3C S 0.22675(8) -0.61644(3) 0.26218(3)
N2 N -1.2475(4) 0.3811(2) 0.1128(2)
C21 C -1.2754(6) 0.5129(3) 0.0306(2)
H33 H -1.271(5) 0.560(3) 0.052(2)
H34 H -1.193(5) 0.514(2) -0.001(2)
H35 H -1.378(9) 0.506(4) 0.011(3)
C22 C -1.2568(4) 0.4389(2) 0.07613(18)
loop_
_geom_bond_atom_site_label_1
_geom_bond_atom_site_label_2
_geom_bond_site_symmetry_1
_geom_bond_site_symmetry_2
Ag1 S2 1_555 1_555
S1 C1 1_555 1_555
S2 C5 1_555 1_555
S3 C9 1_555 1_555
C1 H1 1_555 1_555
H2 C1 1_555 1_555
C2 C1 1_555 1_555
H3 C2 1_555 1_555
H4 C2 1_555 1_555
C3 S1 1_555 1_555
H5 C3 1_555 1_555
H6 C3 1_555 1_555
C4 C3 1_555 1_555
H7 C4 1_555 1_555
H8 C4 1_555 1_555
C5 H9 1_555 1_555
H10 C5 1_555 1_555
C6 C5 1_555 1_555
H11 C6 1_555 1_555
H12 C6 1_555 1_555
C7 S2 1_555 1_555
H13 C7 1_555 1_555
H14 C7 1_555 1_555
C8 C7 1_555 1_555
H15 C8 1_555 1_555
H16 C8 1_555 1_555
C9 H17 1_555 1_555
H18 C9 1_555 1_555
C10 C9 1_555 1_555
H19 C10 1_555 1_555
H20 C10 1_555 1_555
C11 S3 1_555 1_555
H21 C11 1_555 1_555
H22 C11 1_555 1_555
C12 C11 1_555 1_555
H23 C12 1_555 1_555
H24 C12 1_555 1_555
C13 C4 1_555 1_555
H25 C13 1_555 1_555
S4 O1 1_555 1_555
O1 Ag1 1_555 1_555
O2 S4 1_555 1_555
O3 S4 1_555 1_555
C14 S4 1_555 1_555
C15 C14 1_555 1_555
H26 C15 1_555 1_555
C16 C15 1_555 1_555
H27 C16 1_555 1_555
C17 C16 1_555 1_555
C18 C17 1_555 1_555
H28 C18 1_555 1_555
H29 C18 1_555 1_555
H30 C18 1_555 1_555
C19 C17 1_555 1_555
H31 C19 1_555 1_555
C20 C14 1_555 1_555
H32 C20 1_555 1_555
N1 C2 1_555 1_555
N2 C22 1_555 1_555
C21 H33 1_555 1_555
H34 C21 1_555 1_555
H35 C21 1_555 1_555
C22 C21 1_555 1_555
S1_2 Ag1 1_555 1_555
Ag1_2 S1 1_555 1_555
Ag1C S3 1_555 1_555
S3C Ag1 1_555 1_555
C6 C13 1_555 1_555
C8 N1 1_555 1_555
C10 N1 1_555 1_555
C12 C13 1_555 1_555
C19 C20 1_555 1_555

#END
