
#######################################################################
#
#                 Cambridge Crystallographic Data Centre
#                                CCDC 
#
#######################################################################
#
# If this CIF has been generated from an entry in the Cambridge 
# Structural Database, then it will include bibliographic, chemical, 
# crystal, experimental, refinement or atomic coordinate data resulting 
# from the CCDC's data processing and validation procedures.
#
#######################################################################

data_AHEBOE
_symmetry_cell_setting           monoclinic
_symmetry_space_group_name_H-M   'P 21'
_symmetry_Int_Tables_number      4
_space_group_name_Hall           'P 2yb'
loop_
_symmetry_equiv_pos_site_id
_symmetry_equiv_pos_as_xyz
1 x,y,z
2 -x,1/2+y,-z
_cell_length_a                   8.1923(6)
_cell_length_b                   13.8066(14)
_cell_length_c                   11.973(1)
_cell_angle_alpha                90.00
_cell_angle_beta                 92.14(1)
_cell_angle_gamma                90.00
_cell_volume                     1353.3
loop_
_atom_site_label
_atom_site_type_symbol
_atom_site_fract_x
_atom_site_fract_y
_atom_site_fract_z
Ag1 Ag 0.38669(3) 0.276910(15) -0.41234(2)
N1 N -0.1423(3) 0.39361(18) -0.5523(2)
O1 O 0.2023(3) 0.19628(19) -0.2811(2)
O2 O 0.3408(3) 0.2858(3) -0.1339(2)
O3 O 0.3671(4) 0.1110(3) -0.1427(3)
S1 S 0.25668(9) 0.44051(5) -0.41816(7)
S2 S -0.27726(9) 0.62579(5) -0.47971(7)
S3 S -0.32895(9) 0.21921(5) -0.35159(8)
S4 S 0.26657(11) 0.19533(7) -0.16508(8)
C1 C 0.1469(4) 0.4561(2) -0.5517(3)
H1 H 0.0856 0.5178 -0.5491
H2 H 0.2284 0.4629 -0.6103
C2 C 0.0259(4) 0.3752(2) -0.5881(3)
H3 H 0.0243 0.3692 -0.6705
H4 H 0.0647 0.3128 -0.5561
C3 C 0.0933(4) 0.4191(2) -0.3207(3)
H5 H 0.0216 0.3665 -0.3503
H6 H 0.1420 0.3974 -0.2481
C4 C -0.0093(4) 0.5094(2) -0.3025(3)
H7 H -0.0384 0.5379 -0.3765
H8 H 0.0593 0.5572 -0.2608
C5 C -0.3781(4) 0.6140(2) -0.3452(3)
H9 H -0.4370 0.6751 -0.3307
H10 H -0.4607 0.5618 -0.3525
C6 C -0.2645(4) 0.5917(2) -0.2430(3)
H11 H -0.3313 0.5945 -0.1758
H12 H -0.1835 0.6447 -0.2361
C7 C -0.3572(4) 0.5255(2) -0.5678(3)
H13 H -0.4191 0.4802 -0.5212
H14 H -0.4334 0.5518 -0.6264
C8 C -0.2194(4) 0.4701(2) -0.6234(3)
H15 H -0.2638 0.4400 -0.6932
H16 H -0.1342 0.5170 -0.6442
C9 C -0.2049(4) 0.2254(2) -0.4749(3)
H17 H -0.0896 0.2327 -0.4485
H18 H -0.2138 0.1619 -0.5132
C10 C -0.2402(4) 0.3044(2) -0.5634(3)
H19 H -0.2226 0.2762 -0.6381
H20 H -0.3571 0.3222 -0.5610
C11 C -0.2418(4) 0.3086(2) -0.2551(3)
H21 H -0.2842 0.2968 -0.1800
H22 H -0.1218 0.2998 -0.2499
C12 C -0.2798(4) 0.4142(2) -0.2894(3)
H23 H -0.3935 0.4285 -0.2694
H24 H -0.2757 0.4185 -0.3718
C13 C -0.1689(4) 0.4944(2) -0.2387(3)
C14 C -0.1260(7) 0.4722(4) -0.1162(4)
H25 H -0.0575 0.5243 -0.0844
H26 H -0.0664 0.4107 -0.1108
H27 H -0.2266 0.4674 -0.0747
C15 C 0.0886(4) 0.1823(3) -0.0850(3)
C16 C -0.0334(6) 0.1175(4) -0.1234(4)
H28 H -0.0196 0.0814 -0.1900
C17 C -0.1752(7) 0.1066(4) -0.0630(5)
H29 H -0.2587 0.0639 -0.0899
C18 C -0.1957(5) 0.1567(4) 0.0348(4)
C19 C -0.3490(6) 0.1400(5) 0.0983(4)
H30 H -0.3478 0.1818 0.1645
H31 H -0.3540 0.0720 0.1215
H32 H -0.4448 0.1553 0.0500
C20 C -0.0780(5) 0.2231(3) 0.0686(3)
H33 H -0.0932 0.2605 0.1340
C21 C 0.0639(5) 0.2366(3) 0.0081(3)
H34 H 0.1426 0.2835 0.0319
S2A S 0.27726(9) 0.12579(5) -0.52029(7)
Ag1A Ag -0.38669(3) 0.776910(15) -0.58766(2)
Ag1_2 Ag -0.61331(3) 0.276910(15) -0.41234(2)
S3_2 S 0.67105(9) 0.21921(5) -0.35159(8)
N2 N -0.3767(6) -0.1449(3) -0.2497(5)
C22 C -0.4430(6) -0.1257(3) -0.1698(5)
C23 C -0.5272(7) -0.1014(4) -0.0710(5)
H35 H -0.5651 -0.0342 -0.0759
H36 H -0.4529 -0.1089 -0.0055
H37 H -0.6212 -0.1446 -0.0640
loop_
_geom_bond_atom_site_label_1
_geom_bond_atom_site_label_2
_geom_bond_site_symmetry_1
_geom_bond_site_symmetry_2
Ag1 O1 1_555 1_555
N1 C2 1_555 1_555
N2 C22 1_555 1_555
O1 S4 1_555 1_555
O2 S4 1_555 1_555
O3 S4 1_555 1_555
S1 Ag1 1_555 1_555
S2 C5 1_555 1_555
S3 C9 1_555 1_555
S4 C15 1_555 1_555
C1 S1 1_555 1_555
H1 C1 1_555 1_555
H2 C1 1_555 1_555
C2 C1 1_555 1_555
H3 C2 1_555 1_555
H4 C2 1_555 1_555
C3 S1 1_555 1_555
H5 C3 1_555 1_555
H6 C3 1_555 1_555
C4 C3 1_555 1_555
H7 C4 1_555 1_555
H8 C4 1_555 1_555
C5 H9 1_555 1_555
H10 C5 1_555 1_555
C6 C5 1_555 1_555
H11 C6 1_555 1_555
H12 C6 1_555 1_555
C7 S2 1_555 1_555
H13 C7 1_555 1_555
H14 C7 1_555 1_555
C8 N1 1_555 1_555
H15 C8 1_555 1_555
H16 C8 1_555 1_555
C9 H17 1_555 1_555
H18 C9 1_555 1_555
C10 N1 1_555 1_555
H19 C10 1_555 1_555
H20 C10 1_555 1_555
C11 S3 1_555 1_555
H21 C11 1_555 1_555
H22 C11 1_555 1_555
C12 C11 1_555 1_555
H23 C12 1_555 1_555
H24 C12 1_555 1_555
C13 C4 1_555 1_555
C14 C13 1_555 1_555
H25 C14 1_555 1_555
H26 C14 1_555 1_555
H27 C14 1_555 1_555
C15 C16 1_555 1_555
C16 H28 1_555 1_555
C17 C16 1_555 1_555
H29 C17 1_555 1_555
C18 C17 1_555 1_555
C19 C18 1_555 1_555
H30 C19 1_555 1_555
H31 C19 1_555 1_555
H32 C19 1_555 1_555
C20 C18 1_555 1_555
H33 C20 1_555 1_555
C21 C15 1_555 1_555
H34 C21 1_555 1_555
C22 C23 1_555 1_555
C23 H35 1_555 1_555
H36 C23 1_555 1_555
H37 C23 1_555 1_555
S2A Ag1 1_555 1_555
Ag1A S2 1_555 1_555
Ag1_2 S3 1_555 1_555
S3_2 Ag1 1_555 1_555
C6 C13 1_555 1_555
C7 C8 1_555 1_555
C9 C10 1_555 1_555
C12 C13 1_555 1_555
C20 C21 1_555 1_555

#END
