
#######################################################################
#
#                 Cambridge Crystallographic Data Centre
#                                CCDC 
#
#######################################################################
#
# If this CIF has been generated from an entry in the Cambridge 
# Structural Database, then it will include bibliographic, chemical, 
# crystal, experimental, refinement or atomic coordinate data resulting 
# from the CCDC's data processing and validation procedures.
#
#######################################################################

data_AHEFAU
_symmetry_cell_setting           monoclinic
_symmetry_space_group_name_H-M   'C 2/c'
_symmetry_Int_Tables_number      15
_space_group_name_Hall           '-C 2yn'
loop_
_symmetry_equiv_pos_site_id
_symmetry_equiv_pos_as_xyz
1 x,y,z
2 1/2+x,1/2+y,z
3 x,-y,1/2+z
4 1/2+x,1/2-y,1/2+z
5 -x,-y,-z
6 1/2-x,1/2-y,-z
7 -x,y,1/2-z
8 1/2-x,1/2+y,1/2-z
_cell_length_a                   20.342(6)
_cell_length_b                   8.124(2)
_cell_length_c                   6.963(2)
_cell_angle_alpha                90
_cell_angle_beta                 107.29(2)
_cell_angle_gamma                90
_cell_volume                     1098.7
loop_
_atom_site_label
_atom_site_type_symbol
_atom_site_fract_x
_atom_site_fract_y
_atom_site_fract_z
Fe1 Fe 0.5000 -0.5000 0.0000
C1 C 0.3952(2) -0.3310(4) -0.3372(5)
C2 C 0.3207(2) -0.2845(5) -0.4220(5)
C3 C 0.2743(2) -0.3380(5) -0.3215(5)
H1 H 0.2902(2) -0.3975(5) -0.2025(5)
C4 C 0.2957(2) -0.1975(4) -0.6010(5)
C5 C 0.3427(2) -0.1239(5) -0.7100(5)
O1 O 0.37715(14) -0.0025(3) -0.6476(4)
O2 O 0.33870(15) -0.1966(4) -0.8800(4)
O3 O 0.41626(11) -0.3667(3) -0.1546(4)
O4 O 0.43086(12) -0.3310(3) -0.4590(4)
O5 O 0.5000 -0.6083(4) -0.2500
C4E C 0.2043(2) -0.3025(4) -0.3990(5)
C2E C 0.1793(2) -0.2155(5) -0.5780(5)
C1E C 0.1048(2) -0.1690(4) -0.6628(5)
O3E O 0.08374(11) -0.1333(3) -0.8454(4)
O4E O 0.06914(12) -0.1690(3) -0.5410(4)
C3E C 0.2257(2) -0.1620(5) -0.6785(5)
H1E H 0.2098(2) -0.1025(5) -0.7975(5)
C5E C 0.1573(2) -0.3761(5) -0.2900(5)
O1E O 0.12285(14) -0.4975(3) -0.3524(4)
O2E O 0.16130(15) -0.3034(4) -0.1200(4)
O3D O 0.58374(11) -0.6333(3) 0.1546(4)
O4B O 0.43086(12) -0.6690(3) 0.0410(4)
O4F O 0.56914(12) -0.3310(3) -0.0410(4)
O5B O 0.5000 -0.3917(4) 0.2500
Fe1B Fe 0.5000 -0.5000 -0.5000
Fe1A Fe 0.0000 0.0000 -1.0000
Fe1C Fe 0.0000 0.0000 -0.5000
O6 O 0.5000 -0.0599(6) 0.2500
loop_
_geom_bond_atom_site_label_1
_geom_bond_atom_site_label_2
_geom_bond_site_symmetry_1
_geom_bond_site_symmetry_2
Fe1 O3 1_555 1_555
C1 C2 1_555 1_555
C2 C3 1_555 1_555
C3 H1 1_555 1_555
C4 C2 1_555 1_555
C5 C4 1_555 1_555
O1 C5 1_555 1_555
O2 C5 1_555 1_555
O3 C1 1_555 1_555
O4 C1 1_555 1_555
O5 Fe1 1_555 1_555
C4E C3 1_555 1_555
C2E C4E 1_555 1_555
C1E C2E 1_555 1_555
O3E C1E 1_555 1_555
O4E C1E 1_555 1_555
C3E C4 1_555 1_555
H1E C3E 1_555 1_555
C5E C4E 1_555 1_555
O1E C5E 1_555 1_555
O2E C5E 1_555 1_555
O3D Fe1 1_555 1_555
O4B Fe1 1_555 1_555
O4F Fe1 1_555 1_555
O5B Fe1 1_555 1_555
Fe1B O4 1_555 1_555
Fe1A O3E 1_555 1_555
Fe1C O4E 1_555 1_555
O5 Fe1B 1_555 1_555
C2E C3E 1_555 1_555

#END
