
#######################################################################
#
#                 Cambridge Crystallographic Data Centre
#                                CCDC 
#
#######################################################################
#
# If this CIF has been generated from an entry in the Cambridge 
# Structural Database, then it will include bibliographic, chemical, 
# crystal, experimental, refinement or atomic coordinate data resulting 
# from the CCDC's data processing and validation procedures.
#
#######################################################################

data_AHEFAU01
_symmetry_cell_setting           monoclinic
_symmetry_space_group_name_H-M   'C 2/c'
_symmetry_Int_Tables_number      15
_space_group_name_Hall           '-C 2yn'
loop_
_symmetry_equiv_pos_site_id
_symmetry_equiv_pos_as_xyz
1 x,y,z
2 1/2+x,1/2+y,z
3 x,-y,1/2+z
4 1/2+x,1/2-y,1/2+z
5 -x,-y,-z
6 1/2-x,1/2-y,-z
7 -x,y,1/2-z
8 1/2-x,1/2+y,1/2-z
_cell_length_a                   20.2639(13)
_cell_length_b                   8.1219(5)
_cell_length_c                   6.9610(4)
_cell_angle_alpha                90.00
_cell_angle_beta                 107.2430(10)
_cell_angle_gamma                90.00
_cell_volume                     1094.16
loop_
_atom_site_label
_atom_site_type_symbol
_atom_site_fract_x
_atom_site_fract_y
_atom_site_fract_z
Fe1 Fe 0.0000 0.0000 0.0000
O1 O -0.06886(6) -0.16820(14) 0.0418(2)
O2 O 0.0000 0.1078(2) 0.2500
O3 O -0.08374(5) -0.13241(15) 0.3464(2)
O4 O -0.12178(8) -0.49728(14) -0.1454(2)
O5 O -0.16076(8) -0.3040(2) -0.3783(2)
H1 H -0.1385(24) -0.3540(51) -0.4458(70)
C1 C -0.10449(7) -0.1689(2) 0.1632(2)
C2 C -0.17933(7) -0.2150(2) 0.0789(2)
C3 C -0.22583(7) -0.1624(2) 0.1790(2)
H2 H -0.20983(7) -0.1039(2) 0.2987(2)
C4 C -0.20391(7) -0.3030(2) -0.1010(2)
C5 C -0.15646(8) -0.3763(2) -0.2077(2)
C4E C -0.29609(7) -0.1970(2) 0.1010(2)
C2E C -0.32067(7) -0.2850(2) -0.0789(2)
C1E C -0.39551(7) -0.3311(2) -0.1632(2)
O1E O -0.43114(6) -0.33180(14) -0.0418(2)
O3E O -0.41626(5) -0.36759(15) -0.3464(2)
C3E C -0.27417(7) -0.3376(2) -0.1790(2)
H2E H -0.29017(7) -0.3961(2) -0.2987(2)
C5E C -0.34354(8) -0.1237(2) 0.2077(2)
O4E O -0.37822(8) -0.00272(14) 0.1454(2)
O5E O -0.33924(8) -0.1960(2) 0.3783(2)
H1E H -0.3615(24) -0.1460(51) 0.4458(70)
O1D O 0.06886(6) 0.16820(14) -0.0418(2)
O2B O 0.0000 -0.1078(2) -0.2500
O3B O -0.08374(5) 0.13241(15) -0.1536(2)
O3F O 0.08374(5) -0.13241(15) 0.1536(2)
Fe1B Fe 0.0000 0.0000 0.5000
Fe1A Fe -0.5000 -0.5000 0.0000
Fe1C Fe -0.5000 -0.5000 -0.5000
O6 O 0.0000 0.4389(4) 0.2500
loop_
_geom_bond_atom_site_label_1
_geom_bond_atom_site_label_2
_geom_bond_site_symmetry_1
_geom_bond_site_symmetry_2
Fe1 O1 1_555 1_555
O1 C1 1_555 1_555
O2 Fe1 1_555 1_555
O3 C1 1_555 1_555
O4 C5 1_555 1_555
O5 H1 1_555 1_555
C1 C2 1_555 1_555
C2 C3 1_555 1_555
C3 H2 1_555 1_555
C4 C2 1_555 1_555
C5 O5 1_555 1_555
C4E C3 1_555 1_555
C2E C4E 1_555 1_555
C1E C2E 1_555 1_555
O1E C1E 1_555 1_555
O3E C1E 1_555 1_555
C3E C4 1_555 1_555
H2E C3E 1_555 1_555
C5E C4E 1_555 1_555
O4E C5E 1_555 1_555
O5E C5E 1_555 1_555
H1E O5E 1_555 1_555
O1D Fe1 1_555 1_555
O2B Fe1 1_555 1_555
O3B Fe1 1_555 1_555
O3F Fe1 1_555 1_555
Fe1B O2 1_555 1_555
Fe1A O1E 1_555 1_555
Fe1C O3E 1_555 1_555
O3 Fe1B 1_555 1_555
C4 C5 1_555 1_555
C2E C3E 1_555 1_555

#END
