
#######################################################################
#
#                 Cambridge Crystallographic Data Centre
#                                CCDC 
#
#######################################################################
#
# If this CIF has been generated from an entry in the Cambridge 
# Structural Database, then it will include bibliographic, chemical, 
# crystal, experimental, refinement or atomic coordinate data resulting 
# from the CCDC's data processing and validation procedures.
#
#######################################################################

data_AHEGIF
_symmetry_cell_setting           triclinic
_symmetry_space_group_name_H-M   'P -1'
_symmetry_Int_Tables_number      2
_space_group_name_Hall           '-P 1'
loop_
_symmetry_equiv_pos_site_id
_symmetry_equiv_pos_as_xyz
1 x,y,z
2 -x,-y,-z
_cell_length_a                   6.1730(12)
_cell_length_b                   9.3493(19)
_cell_length_c                   10.091(2)
_cell_angle_alpha                74.39(3)
_cell_angle_beta                 74.71(3)
_cell_angle_gamma                73.33(3)
_cell_volume                     526.236
loop_
_atom_site_label
_atom_site_type_symbol
_atom_site_fract_x
_atom_site_fract_y
_atom_site_fract_z
Cu1 Cu 0.0000 0.5000 0.0000
Cu2 Cu 0.47975(10) 0.42060(7) 0.15190(7)
O1 O 0.1599(6) 0.2945(4) -0.0257(5)
O2 O 0.3912(6) 0.2148(4) 0.1291(5)
C1 C 0.3047(8) 0.1960(6) 0.0400(6)
C2 C 0.3729(8) 0.0383(6) 0.0028(6)
H1 H 0.3306 0.0302 -0.0794
Br1 Br 0.19804(10) -0.09372(7) 0.15356(8)
O3 O 0.6771(6) 0.2738(4) 0.2723(5)
O4 O 0.8781(6) 0.4417(4) 0.2570(5)
C3 C 0.8256(9) 0.3164(6) 0.3110(7)
C4 C 0.9308(12) 0.2069(8) 0.4283(9)
H2 H 0.9745 0.2624 0.4805
H3 H 1.0649 0.1366 0.3902
H4 H 0.8204 0.1515 0.4894
O5 O 0.7225(5) 0.4424(4) -0.0224(4)
H5 H 0.7659 0.3661 -0.0556
O6 O 0.2544(6) 0.4861(5) 0.3136(5)
H6 H 0.3016 0.4284 0.3844
H7 H 0.1383 0.4648 0.3157
O1A O 0.8401(6) -0.2945(4) 0.0257(5)
O2A O 0.6088(6) -0.2148(4) -0.1291(5)
C1A C 0.6953(8) -0.1960(6) -0.0400(6)
C2A C 0.6271(8) -0.0383(6) -0.0028(6)
H1A H 0.6694 -0.0302 0.0794
Br1A Br 0.80196(10) 0.09372(7) -0.15356(8)
Cu2A Cu 0.52025(10) 0.57940(7) -0.15190(7)
O3A O 0.3229(6) 0.7262(4) -0.2723(5)
O4A O 0.1219(6) 0.5583(4) -0.2570(5)
C3A C 0.1744(9) 0.6836(6) -0.3110(7)
C4A C 0.0692(12) 0.7931(8) -0.4283(9)
H2A H 0.0255 0.7376 -0.4805
H3A H -0.0649 0.8634 -0.3902
H4A H 0.1796 0.8485 -0.4894
O5A O 0.2775(5) 0.5576(4) 0.0224(4)
H5A H 0.2341 0.6339 0.0556
O6A O 0.7456(6) 0.5139(5) -0.3136(5)
H6A H 0.6984 0.5716 -0.3844
H7A H 0.8617 0.5352 -0.3157
Cu1_2 Cu 1.0000 -0.5000 0.0000
Cu1_3 Cu 1.0000 0.5000 0.0000
Cu2A_2 Cu 0.52025(10) -0.42060(7) -0.15190(7)
O1A_2 O -0.1599(6) 0.7055(4) 0.0257(5)
O2A_2 O 0.6088(6) 0.7852(4) -0.1291(5)
O4_2 O -0.1219(6) 0.4417(4) 0.2570(5)
O5_2 O -0.2775(5) 0.4424(4) -0.0224(4)
O7 O 0.3387(10) 0.3408(6) 0.5692(6)
H8 H 0.2594 0.3996 0.6210
H9 H 0.3783 0.2681 0.6153
O8 O 0.4269(10) 0.0241(6) 0.6401(6)
H10 H 0.3730 -0.0528 0.6501
H11 H 0.4973 -0.0159 0.7026
loop_
_geom_bond_atom_site_label_1
_geom_bond_atom_site_label_2
_geom_bond_site_symmetry_1
_geom_bond_site_symmetry_2
Cu1 O1 1_555 1_555
Cu2 O2 1_555 1_555
O1 C1 1_555 1_555
O2 C1 1_555 1_555
C1 C2 1_555 1_555
C2 H1 1_555 1_555
Br1 C2 1_555 1_555
O3 Cu2 1_555 1_555
O4 C3 1_555 1_555
C3 O3 1_555 1_555
C4 C3 1_555 1_555
H2 C4 1_555 1_555
H3 C4 1_555 1_555
H4 C4 1_555 1_555
O5 Cu2 1_555 1_555
H5 O5 1_555 1_555
O6 Cu2 1_555 1_555
H6 O6 1_555 1_555
H7 O6 1_555 1_555
O7 H8 1_555 1_555
H9 O7 1_555 1_555
O8 H10 1_555 1_555
H11 O8 1_555 1_555
O1A C1A 1_555 1_555
O2A C1A 1_555 1_555
C1A C2A 1_555 1_555
C2A C2 1_555 1_555
H1A C2A 1_555 1_555
Br1A C2A 1_555 1_555
Cu2A O5 1_555 1_555
O3A Cu2A 1_555 1_555
O4A Cu1 1_555 1_555
C3A O3A 1_555 1_555
C4A C3A 1_555 1_555
H2A C4A 1_555 1_555
H3A C4A 1_555 1_555
H4A C4A 1_555 1_555
O5A Cu1 1_555 1_555
H5A O5A 1_555 1_555
O6A Cu2A 1_555 1_555
H6A O6A 1_555 1_555
H7A O6A 1_555 1_555
Cu1_2 O1A 1_555 1_555
Cu1_3 O4 1_555 1_555
Cu2A_2 O2A 1_555 1_555
O1A_2 Cu1 1_555 1_555
O2A_2 Cu2A 1_555 1_555
O4_2 Cu1 1_555 1_555
O5_2 Cu1 1_555 1_555
Cu2 O5A 1_555 1_555
O5 Cu1_3 1_555 1_555
Cu2A O5A 1_555 1_555
O4A C3A 1_555 1_555

#END
