
#######################################################################
#
#                 Cambridge Crystallographic Data Centre
#                                CCDC 
#
#######################################################################
#
# If this CIF has been generated from an entry in the Cambridge 
# Structural Database, then it will include bibliographic, chemical, 
# crystal, experimental, refinement or atomic coordinate data resulting 
# from the CCDC's data processing and validation procedures.
#
#######################################################################

data_AHEKED
_symmetry_cell_setting           orthorhombic
_symmetry_space_group_name_H-M   'P n m a'
_symmetry_Int_Tables_number      62
_space_group_name_Hall           '-P 2ac 2n'
loop_
_symmetry_equiv_pos_site_id
_symmetry_equiv_pos_as_xyz
1 x,y,z
2 1/2+x,y,1/2-z
3 x,1/2-y,z
4 1/2-x,1/2+y,1/2+z
5 -x,-y,-z
6 1/2-x,-y,1/2+z
7 -x,1/2+y,-z
8 1/2+x,1/2-y,1/2-z
_cell_length_a                   13.426(4)
_cell_length_b                   17.149(4)
_cell_length_c                   5.4496(14)
_cell_angle_alpha                90
_cell_angle_beta                 90
_cell_angle_gamma                90
_cell_volume                     1254.73
loop_
_atom_site_label
_atom_site_type_symbol
_atom_site_fract_x
_atom_site_fract_y
_atom_site_fract_z
Sb1 Sb 0.88471(2) 0.7500 -0.86509(5)
P1 P 0.80064(7) 0.66061(5) -1.33373(15)
O1 O 0.89240(19) 0.66236(16) -1.1655(5)
O2 O 0.73585(19) 0.58995(13) -1.2919(5)
O3 O 0.8267(2) 0.66383(14) -1.6087(4)
O4 O 0.7423(2) 0.7500 -0.9760(6)
C1 C 0.7349(3) 0.7500 -1.2413(9)
C2 C 0.6267(4) 0.7500 -1.3191(12)
H4 H 0.592(4) 0.706(3) -1.259(10)
H5 H 0.6186 0.7500 -1.5023
P1B P 0.80064(7) 0.83939(5) -1.33373(15)
O1B O 0.89240(19) 0.83764(16) -1.1655(5)
O2B O 0.73585(19) 0.91005(13) -1.2919(5)
O3B O 0.8267(2) 0.83617(14) -1.6087(4)
H4B H 0.592(4) 0.794(3) -1.259(10)
O3_2 O 0.8267(2) 0.66383(14) -0.6087(4)
O3B_2 O 0.8267(2) 0.83617(14) -0.6087(4)
Sb1_2 Sb 0.88471(2) 0.7500 -1.86509(5)
N1 N 0.6716(2) 0.56096(18) 0.1711(6)
H1 H 0.6854 0.5706 0.0143
H2 H 0.6859 0.5115 0.2053
H3 H 0.7080 0.5921 0.2662
C3 C 0.5637(3) 0.5755(2) 0.2173(8)
H6 H 0.556(4) 0.581(3) 0.366(9)
H7 H 0.544(4) 0.618(3) 0.128(8)
C4 C 0.4987(3) 0.5079(2) 0.1368(7)
H8 H 0.435(4) 0.515(3) 0.187(8)
H9 H 0.518(4) 0.469(3) 0.200(9)
C4D C 0.5013(3) 0.4921(2) -0.1368(7)
C3D C 0.4363(3) 0.4245(2) -0.2173(8)
N1D N 0.3284(2) 0.43904(18) -0.1711(6)
H1D H 0.3146 0.4294 -0.0143
H2D H 0.3141 0.4885 -0.2053
H3D H 0.2920 0.4079 -0.2662
H6D H 0.444(4) 0.419(3) -0.366(9)
H7D H 0.456(4) 0.382(3) -0.128(8)
H8D H 0.565(4) 0.485(3) -0.187(8)
H9D H 0.482(4) 0.531(3) -0.200(9)
loop_
_geom_bond_atom_site_label_1
_geom_bond_atom_site_label_2
_geom_bond_site_symmetry_1
_geom_bond_site_symmetry_2
Sb1 O1 1_555 1_555
P1 O1 1_555 1_555
O2 P1 1_555 1_555
O3 P1 1_555 1_555
O4 Sb1 1_555 1_555
N1 H1 1_555 1_555
H2 N1 1_555 1_555
H3 N1 1_555 1_555
C1 P1 1_555 1_555
C2 C1 1_555 1_555
H4 C2 1_555 1_555
H5 C2 1_555 1_555
C3 N1 1_555 1_555
H6 C3 1_555 1_555
H7 C3 1_555 1_555
C4 C3 1_555 1_555
H8 C4 1_555 1_555
H9 C4 1_555 1_555
P1B C1 1_555 1_555
O1B Sb1 1_555 1_555
O2B P1B 1_555 1_555
O3B P1B 1_555 1_555
H4B C2 1_555 1_555
C4D C4 1_555 1_555
C3D C4D 1_555 1_555
N1D C3D 1_555 1_555
H1D N1D 1_555 1_555
H2D N1D 1_555 1_555
H3D N1D 1_555 1_555
H6D C3D 1_555 1_555
H7D C3D 1_555 1_555
H8D C4D 1_555 1_555
H9D C4D 1_555 1_555
O3_2 Sb1 1_555 1_555
O3B_2 Sb1 1_555 1_555
Sb1_2 O3 1_555 1_555
O4 C1 1_555 1_555
P1B O1B 1_555 1_555
O3B Sb1_2 1_555 1_555

#END
