
#######################################################################
#
#                 Cambridge Crystallographic Data Centre
#                                CCDC 
#
#######################################################################
#
# If this CIF has been generated from an entry in the Cambridge 
# Structural Database, then it will include bibliographic, chemical, 
# crystal, experimental, refinement or atomic coordinate data resulting 
# from the CCDC's data processing and validation procedures.
#
#######################################################################

data_AHEKUV
_symmetry_cell_setting           triclinic
_symmetry_space_group_name_H-M   'P -1'
_symmetry_Int_Tables_number      2
_space_group_name_Hall           '-P 1'
loop_
_symmetry_equiv_pos_site_id
_symmetry_equiv_pos_as_xyz
1 x,y,z
2 -x,-y,-z
_cell_length_a                   8.959(2)
_cell_length_b                   15.463(4)
_cell_length_c                   19.915(5)
_cell_angle_alpha                90.763(5)
_cell_angle_beta                 91.774(8)
_cell_angle_gamma                91.865(5)
_cell_volume                     2755.82
loop_
_atom_site_label
_atom_site_type_symbol
_atom_site_fract_x
_atom_site_fract_y
_atom_site_fract_z
Zr1 Zr 1.05843(3) 0.457237(18) 0.287186(14)
Zr2 Zr 0.60177(3) 1.062785(18) 0.218163(14)
Ni1 Ni 0.97082(3) 0.695606(19) 0.109824(15)
Ni2 Ni 0.49289(3) 0.829368(19) 0.395505(15)
O1 O 0.89078(19) 0.54144(11) 0.25577(8)
O2 O 1.13153(18) 0.49163(11) 0.18854(8)
O3 O 1.3615(2) 0.77763(12) -0.06384(9)
O4 O 1.1212(2) 0.78275(13) -0.09865(9)
O5 O 0.61279(19) 0.92384(11) 0.07905(9)
O6 O 0.66925(19) 0.93915(11) 0.18989(8)
O7 O 1.0052(2) 0.44131(12) 0.38514(9)
H1 H 1.0350 0.4851 0.4077
O8 O 0.9305(2) 0.35505(12) 0.24902(10)
H2 H 0.8403 0.3626 0.2572
O9 O 1.2486(2) 0.38709(12) 0.30247(9)
H3 H 1.2996 0.3767 0.2684
H4 H 1.2318 0.3444 0.3282
O10 O 0.40393(19) 0.98570(11) 0.24933(8)
O11 O 0.66125(19) 1.03277(11) 0.31593(8)
O12 O 0.92475(19) 0.77377(12) 0.56359(9)
O13 O 0.7005(2) 0.74641(12) 0.60634(9)
O14 O 0.12883(19) 0.59537(12) 0.42816(9)
O15 O 0.17176(19) 0.57474(11) 0.31803(8)
O16 O 0.5235(2) 1.18039(12) 0.25003(9)
H5 H 0.4322 1.1830 0.2395
O17 O 0.8133(2) 1.11434(12) 0.20415(9)
H6 H 0.8652(15) 1.1366(11) 0.2373(4)
H7 H 0.813(3) 1.1462(9) 0.1690(4)
O18 O 0.51701(19) 1.08238(11) 0.12343(9)
H8 H 0.5466 1.0439 0.0973
N1 N 0.8485(2) 0.64294(13) 0.17235(10)
N2 N 1.0688(2) 0.59139(13) 0.10608(10)
N3 N 1.0993(2) 0.74895(13) 0.04986(10)
N4 N 0.8770(2) 0.80202(13) 0.11606(10)
N5 N 0.5946(2) 0.93573(13) 0.39898(10)
N6 N 0.3698(2) 0.87657(13) 0.32850(10)
N7 N 0.3962(2) 0.72052(13) 0.38957(10)
N8 N 0.6248(2) 0.78095(13) 0.45899(10)
C1 C 0.9222(3) 0.57965(15) 0.20352(12)
C2 C 1.0558(3) 0.55081(15) 0.16440(12)
C3 C 1.1544(3) 0.56104(16) 0.05308(12)
C4 C 1.1879(3) 0.47410(17) 0.04697(12)
H9 H 1.1559 0.4351 0.0805
C5 C 1.2663(3) 0.44287(17) -0.00647(13)
H10 H 1.2887 0.3833 -0.0091
C6 C 1.3123(3) 0.49935(18) -0.05641(13)
H11 H 1.3684 0.4787 -0.0927
C7 C 1.2762(3) 0.58470(17) -0.05302(13)
H12 H 1.3051 0.6222 -0.0881
C8 C 1.1966(3) 0.61876(16) 0.00153(12)
C9 C 1.1709(3) 0.71071(16) 0.00250(12)
C10 C 1.2244(3) 0.76256(16) -0.05840(12)
C11 C 1.0963(3) 0.84124(16) 0.05764(12)
C12 C 1.2100(3) 0.89924(17) 0.03943(13)
H13 H 1.2958 0.8787 0.0182
C13 C 1.1974(3) 0.98700(17) 0.05247(13)
H14 H 1.2728 1.0270 0.0388
C14 C 1.0741(3) 1.01611(16) 0.08566(13)
H15 H 1.0654 1.0763 0.0941
C15 C 0.9634(3) 0.95865(16) 0.10666(12)
H16 H 0.8811 0.9795 0.1303
C16 C 0.9728(3) 0.87078(16) 0.09310(12)
C17 C 0.7417(3) 0.81248(15) 0.13626(12)
C18 C 0.6681(3) 0.90056(16) 0.13375(12)
C19 C 0.6470(3) 0.74390(16) 0.16408(12)
C20 C 0.4944(3) 0.76055(17) 0.17183(13)
H17 H 0.4571 0.8145 0.1579
C21 C 0.3983(3) 0.69984(17) 0.19929(13)
H18 H 0.2949 0.7107 0.2021
C22 C 0.4543(3) 0.62301(17) 0.22264(13)
H19 H 0.3890 0.5818 0.2426
C23 C 0.6040(3) 0.60535(16) 0.21724(12)
H20 H 0.6410 0.5529 0.2345
C24 C 0.7019(3) 0.66469(16) 0.18630(12)
C25 C 0.4397(3) 0.94369(16) 0.29977(12)
C26 C 0.5808(3) 0.97409(16) 0.33931(12)
C27 C 0.6885(3) 0.97003(16) 0.45097(12)
C28 C 0.7278(3) 1.05829(17) 0.45419(13)
H21 H 0.6921 1.0954 0.4201
C29 C 0.8179(3) 1.09236(17) 0.50647(13)
H22 H 0.8447 1.1523 0.5073
C30 C 0.8691(3) 1.04020(17) 0.55729(13)
H23 H 0.9332 1.0637 0.5923
C31 C 0.8269(3) 0.95439(17) 0.55691(12)
H24 H 0.8591 0.9195 0.5931
C32 C 0.7360(3) 0.91563(16) 0.50381(12)
C33 C 0.7087(3) 0.82225(16) 0.50395(12)
C34 C 0.7852(3) 0.77496(16) 0.56290(12)
C35 C 0.6176(3) 0.68787(16) 0.45181(12)
C36 C 0.7269(3) 0.63243(17) 0.47424(13)
H25 H 0.8124 0.6548 0.4989
C37 C 0.7108(3) 0.54459(17) 0.46051(14)
H26 H 0.7840 0.5065 0.4771
C38 C 0.5884(3) 0.51154(16) 0.42257(13)
H27 H 0.5788 0.4512 0.4133
C39 C 0.4805(3) 0.56623(17) 0.39828(13)
H28 H 0.3985 0.5437 0.3713
C40 C 0.4929(3) 0.65464(16) 0.41363(12)
C41 C 0.2584(3) 0.70565(16) 0.36862(12)
C42 C 0.1801(3) 0.61605(16) 0.37276(13)
C43 C 0.1644(3) 0.77115(16) 0.33916(12)
C44 C 0.0084(3) 0.75214(17) 0.33219(13)
H29 H -0.0306 0.6990 0.3488
C45 C -0.0871(3) 0.80831(18) 0.30220(13)
H30 H -0.1917 0.7958 0.3006
C46 C -0.0300(3) 0.88362(18) 0.27416(13)
H31 H -0.0955 0.9219 0.2520
C47 C 0.1229(3) 0.90340(17) 0.27838(13)
H32 H 0.1609 0.9538 0.2572
C48 C 0.2211(3) 0.85062(16) 0.31307(12)
Zr1_2 Zr 0.05843(3) 0.457237(18) 0.287186(14)
O15_2 O 1.17176(19) 0.57474(11) 0.31803(8)
O19 O 0.6428(2) 0.77889(13) 0.99274(10)
H33 H 0.5623(10) 0.7547(8) 0.9768(10)
H34 H 0.634(2) 0.8286(5) 1.0112(9)
O20 O 0.8136(2) 0.75592(14) 0.88725(10)
H35 H 0.9087(7) 0.755(2) 0.8909(8)
H36 H 0.7682(11) 0.7613(19) 0.9239(5)
O21 O 0.4070(2) 0.72875(15) 0.63327(10)
H37 H 0.3358(8) 0.7242(19) 0.6042(6)
H38 H 0.4933(8) 0.741(2) 0.6187(9)
O22 O 0.1695(2) 0.67670(12) 0.54894(9)
H39 H 0.1700(19) 0.6455(8) 0.5129(5)
H40 H 0.0961(11) 0.7102(8) 0.5512(10)
O23 O 0.6381(2) 0.38538(15) 0.25634(13)
H41 H 0.6289 0.3588 0.2934
H42 H 0.5747 0.3700 0.2251
O24 O 0.3690(2) 0.37089(13) 0.17758(10)
H43 H 0.3635 0.3262 0.1524
H44 H 0.3269 0.4157 0.1628
O25 O -0.0044(2) 0.19632(13) 0.29945(9)
H45 H 0.0055(19) 0.2059(16) 0.3408(3)
H46 H 0.0704(11) 0.191(2) 0.2756(6)
O26 O 0.2285(2) 0.14605(14) 0.22216(10)
H47 H 0.195(2) 0.1751(7) 0.1890(6)
H48 H 0.245(3) 0.0930(5) 0.2139(11)
loop_
_geom_bond_atom_site_label_1
_geom_bond_atom_site_label_2
_geom_bond_site_symmetry_1
_geom_bond_site_symmetry_2
Zr1 O1 1_555 1_555
Zr2 O6 1_555 1_555
Ni1 N1 1_555 1_555
Ni2 N5 1_555 1_555
O1 C1 1_555 1_555
O2 Zr1 1_555 1_555
O3 C10 1_555 1_555
O4 C10 1_555 1_555
O5 C18 1_555 1_555
O6 C18 1_555 1_555
O7 Zr1 1_555 1_555
H1 O7 1_555 1_555
O8 Zr1 1_555 1_555
H2 O8 1_555 1_555
O9 Zr1 1_555 1_555
H3 O9 1_555 1_555
H4 O9 1_555 1_555
O10 Zr2 1_555 1_555
O11 Zr2 1_555 1_555
O12 C34 1_555 1_555
O13 C34 1_555 1_555
O14 C42 1_555 1_555
O15 C42 1_555 1_555
O16 Zr2 1_555 1_555
H5 O16 1_555 1_555
O17 Zr2 1_555 1_555
H6 O17 1_555 1_555
H7 O17 1_555 1_555
O18 Zr2 1_555 1_555
H8 O18 1_555 1_555
N1 C1 1_555 1_555
N2 Ni1 1_555 1_555
N3 Ni1 1_555 1_555
N4 Ni1 1_555 1_555
N5 C26 1_555 1_555
N6 Ni2 1_555 1_555
N7 Ni2 1_555 1_555
N8 Ni2 1_555 1_555
C1 C2 1_555 1_555
C2 O2 1_555 1_555
C3 N2 1_555 1_555
C4 C3 1_555 1_555
H9 C4 1_555 1_555
C5 C4 1_555 1_555
H10 C5 1_555 1_555
C6 C5 1_555 1_555
H11 C6 1_555 1_555
C7 C6 1_555 1_555
H12 C7 1_555 1_555
C8 C3 1_555 1_555
C9 N3 1_555 1_555
C10 C9 1_555 1_555
C11 N3 1_555 1_555
C12 C11 1_555 1_555
H13 C12 1_555 1_555
C13 C12 1_555 1_555
H14 C13 1_555 1_555
C14 C13 1_555 1_555
H15 C14 1_555 1_555
C15 C14 1_555 1_555
H16 C15 1_555 1_555
C16 N4 1_555 1_555
C17 N4 1_555 1_555
C18 C17 1_555 1_555
C19 C17 1_555 1_555
C20 C19 1_555 1_555
H17 C20 1_555 1_555
C21 C20 1_555 1_555
H18 C21 1_555 1_555
C22 C21 1_555 1_555
H19 C22 1_555 1_555
C23 C22 1_555 1_555
H20 C23 1_555 1_555
C24 N1 1_555 1_555
C25 O10 1_555 1_555
C26 O11 1_555 1_555
C27 N5 1_555 1_555
C28 C27 1_555 1_555
H21 C28 1_555 1_555
C29 C28 1_555 1_555
H22 C29 1_555 1_555
C30 C29 1_555 1_555
H23 C30 1_555 1_555
C31 C30 1_555 1_555
H24 C31 1_555 1_555
C32 C27 1_555 1_555
C33 N8 1_555 1_555
C34 C33 1_555 1_555
C35 N8 1_555 1_555
C36 C35 1_555 1_555
H25 C36 1_555 1_555
C37 C36 1_555 1_555
H26 C37 1_555 1_555
C38 C37 1_555 1_555
H27 C38 1_555 1_555
C39 C38 1_555 1_555
H28 C39 1_555 1_555
C40 N7 1_555 1_555
C41 N7 1_555 1_555
C42 C41 1_555 1_555
C43 C41 1_555 1_555
C44 C43 1_555 1_555
H29 C44 1_555 1_555
C45 C44 1_555 1_555
H30 C45 1_555 1_555
C46 C45 1_555 1_555
H31 C46 1_555 1_555
C47 C46 1_555 1_555
H32 C47 1_555 1_555
C48 N6 1_555 1_555
O19 H33 1_555 1_555
H34 O19 1_555 1_555
O20 H35 1_555 1_555
H36 O20 1_555 1_555
O21 H37 1_555 1_555
H38 O21 1_555 1_555
O22 H39 1_555 1_555
H40 O22 1_555 1_555
O23 H41 1_555 1_555
H42 O23 1_555 1_555
O24 H43 1_555 1_555
H44 O24 1_555 1_555
O25 H45 1_555 1_555
H46 O25 1_555 1_555
O26 H47 1_555 1_555
H48 O26 1_555 1_555
Zr1_2 O15 1_555 1_555
O15_2 Zr1 1_555 1_555
N2 C2 1_555 1_555
N6 C25 1_555 1_555
C7 C8 1_555 1_555
C8 C9 1_555 1_555
C11 C16 1_555 1_555
C15 C16 1_555 1_555
C19 C24 1_555 1_555
C23 C24 1_555 1_555
C25 C26 1_555 1_555
C31 C32 1_555 1_555
C32 C33 1_555 1_555
C35 C40 1_555 1_555
C39 C40 1_555 1_555
C43 C48 1_555 1_555
C47 C48 1_555 1_555

#END
