
#######################################################################
#
#                 Cambridge Crystallographic Data Centre
#                                CCDC 
#
#######################################################################
#
# If this CIF has been generated from an entry in the Cambridge 
# Structural Database, then it will include bibliographic, chemical, 
# crystal, experimental, refinement or atomic coordinate data resulting 
# from the CCDC's data processing and validation procedures.
#
#######################################################################

data_AHELAC
_symmetry_cell_setting           monoclinic
_symmetry_space_group_name_H-M   'P 21/n'
_symmetry_Int_Tables_number      14
_space_group_name_Hall           '-P 2yn'
loop_
_symmetry_equiv_pos_site_id
_symmetry_equiv_pos_as_xyz
1 x,y,z
2 1/2-x,1/2+y,1/2-z
3 -x,-y,-z
4 1/2+x,1/2-y,1/2+z
_cell_length_a                   15.259(3)
_cell_length_b                   8.9706(19)
_cell_length_c                   20.328(4)
_cell_angle_alpha                90
_cell_angle_beta                 92.276(4)
_cell_angle_gamma                90
_cell_volume                     2780.35
loop_
_atom_site_label
_atom_site_type_symbol
_atom_site_fract_x
_atom_site_fract_y
_atom_site_fract_z
Ni1 Ni 0.808056(18) 0.44322(3) 0.892548(14)
Mg1 Mg 1.05290(5) 0.52574(8) 0.72452(4)
O1 O 0.96793(10) 0.35449(17) 0.75444(8)
O2 O 1.01617(10) 0.60328(17) 0.81674(8)
O3 O 0.72488(11) 0.79355(18) 1.08085(8)
O4 O 0.75205(11) 0.55336(17) 1.10384(8)
O5 O 0.57642(10) 0.07218(18) 0.92233(8)
O6 O 0.55863(10) 0.12384(17) 0.81428(8)
O7 O 1.07372(11) 0.42670(19) 0.63659(9)
O8 O 1.16164(11) 0.4368(2) 0.77123(9)
O9 O 1.12225(11) 0.70850(19) 0.69502(9)
N1 N 0.85895(11) 0.3194(2) 0.83067(9)
N2 N 0.91348(12) 0.55018(19) 0.89617(9)
N3 N 0.75579(12) 0.56626(19) 0.95380(9)
N4 N 0.69987(12) 0.3430(2) 0.88634(9)
C1 C 0.92544(14) 0.3904(2) 0.80298(11)
C2 C 0.95513(14) 0.5303(2) 0.84022(11)
C3 C 0.94332(14) 0.6469(2) 0.94666(11)
C4 C 1.02888(15) 0.7056(3) 0.94844(12)
H1 H 1.0661 0.6848 0.9132
C5 C 1.05990(15) 0.7930(3) 1.00040(12)
H2 H 1.1177 0.8322 1.0002
C6 C 1.00717(15) 0.8239(3) 1.05289(12)
H3 H 1.0282 0.8852 1.0882
C7 C 0.92445(15) 0.7647(2) 1.05283(12)
H4 H 0.8892 0.7832 1.0894
C8 C 0.88974(14) 0.6774(2) 1.00033(11)
C9 C 0.79696(14) 0.6356(2) 1.00212(11)
C10 C 0.75238(14) 0.6664(2) 1.06763(12)
C11 C 0.66202(14) 0.5576(2) 0.94669(11)
C12 C 0.60466(14) 0.6662(3) 0.96774(12)
H5 H 0.6259 0.7483 0.9932
C13 C 0.51589(15) 0.6535(3) 0.95112(12)
H6 H 0.4759 0.7252 0.9667
C14 C 0.48536(15) 0.5372(3) 0.91203(12)
H7 H 0.4246 0.5309 0.9002
C15 C 0.54237(14) 0.4295(3) 0.88981(12)
H8 H 0.5210 0.3508 0.8623
C16 C 0.63109(14) 0.4380(2) 0.90815(11)
C17 C 0.68778(14) 0.2053(2) 0.86737(11)
C18 C 0.59858(14) 0.1278(2) 0.86918(12)
C19 C 0.75628(14) 0.1137(2) 0.84000(11)
C20 C 0.73916(15) -0.0410(2) 0.83304(12)
H9 H 0.6861 -0.0805 0.8486
C21 C 0.79763(15) -0.1353(3) 0.80421(12)
H10 H 0.7863 -0.2394 0.8018
C22 C 0.87326(15) -0.0765(3) 0.77874(13)
H11 H 0.9130 -0.1405 0.7577
C23 C 0.89139(15) 0.0740(2) 0.78366(12)
H12 H 0.9425 0.1126 0.7645
C24 C 0.83543(14) 0.1712(2) 0.81655(11)
H13 H 1.0350(16) 0.449(4) 0.6069(12)
H14 H 1.111(2) 0.358(4) 0.623(2)
H15 H 1.2023(14) 0.407(4) 0.7460(11)
H16 H 1.1797(18) 0.451(4) 0.8113(6)
H17 H 1.1524(17) 0.704(4) 0.6603(9)
H18 H 1.1488(17) 0.751(3) 0.7279(9)
Mg1A Mg 0.44710(5) 0.02574(8) 0.77548(4)
O6A O 0.94137(10) 0.62384(17) 0.68572(8)
O10 O 0.29865(11) 0.34756(18) 0.70151(8)
H19 H 0.2769 0.3030 0.6684
C25 C 0.3559(2) 0.4638(3) 0.68061(15)
H20 H 0.3293 0.5149 0.6416
H21 H 0.4126 0.4204 0.6682
C26 C 0.3707(2) 0.5715(3) 0.73453(19)
H22 H 0.3142 0.6099 0.7483
H23 H 0.4066 0.6543 0.7193
H24 H 0.4012 0.5221 0.7719
O11 O 0.22493(12) 0.4472(2) 0.50563(10)
H25 H 0.1728(12) 0.441(4) 0.4874(17)
H26 H 0.231(2) 0.527(3) 0.5297(17)
O12 O 0.20997(12) 0.2400(2) 0.59725(9)
H27 H 0.2353(17) 0.1567(18) 0.5894(14)
H28 H 0.219(2) 0.302(3) 0.5596(18)
loop_
_geom_bond_atom_site_label_1
_geom_bond_atom_site_label_2
_geom_bond_site_symmetry_1
_geom_bond_site_symmetry_2
Ni1 N1 1_555 1_555
Mg1 O1 1_555 1_555
O1 C1 1_555 1_555
O2 Mg1 1_555 1_555
O3 C10 1_555 1_555
O4 C10 1_555 1_555
O5 C18 1_555 1_555
O6 C18 1_555 1_555
O7 Mg1 1_555 1_555
O8 Mg1 1_555 1_555
O9 Mg1 1_555 1_555
N1 C1 1_555 1_555
N2 Ni1 1_555 1_555
N3 Ni1 1_555 1_555
N4 Ni1 1_555 1_555
C1 C2 1_555 1_555
C2 O2 1_555 1_555
C3 N2 1_555 1_555
C4 C3 1_555 1_555
H1 C4 1_555 1_555
C5 C4 1_555 1_555
H2 C5 1_555 1_555
C6 C5 1_555 1_555
H3 C6 1_555 1_555
C7 C6 1_555 1_555
H4 C7 1_555 1_555
C8 C3 1_555 1_555
C9 N3 1_555 1_555
C10 C9 1_555 1_555
C11 N3 1_555 1_555
C12 C11 1_555 1_555
H5 C12 1_555 1_555
C13 C12 1_555 1_555
H6 C13 1_555 1_555
C14 C13 1_555 1_555
H7 C14 1_555 1_555
C15 C14 1_555 1_555
H8 C15 1_555 1_555
C16 N4 1_555 1_555
C17 N4 1_555 1_555
C18 C17 1_555 1_555
C19 C17 1_555 1_555
C20 C19 1_555 1_555
H9 C20 1_555 1_555
C21 C20 1_555 1_555
H10 C21 1_555 1_555
C22 C21 1_555 1_555
H11 C22 1_555 1_555
C23 C22 1_555 1_555
H12 C23 1_555 1_555
C24 N1 1_555 1_555
H13 O7 1_555 1_555
H14 O7 1_555 1_555
H15 O8 1_555 1_555
H16 O8 1_555 1_555
H17 O9 1_555 1_555
H18 O9 1_555 1_555
O10 H19 1_555 1_555
C25 O10 1_555 1_555
H20 C25 1_555 1_555
H21 C25 1_555 1_555
C26 C25 1_555 1_555
H22 C26 1_555 1_555
H23 C26 1_555 1_555
H24 C26 1_555 1_555
O11 H25 1_555 1_555
H26 O11 1_555 1_555
O12 H27 1_555 1_555
H28 O12 1_555 1_555
Mg1A O6 1_555 1_555
O6A Mg1 1_555 1_555
N2 C2 1_555 1_555
C7 C8 1_555 1_555
C8 C9 1_555 1_555
C11 C16 1_555 1_555
C15 C16 1_555 1_555
C19 C24 1_555 1_555
C23 C24 1_555 1_555

#END
