
#######################################################################
#
#                 Cambridge Crystallographic Data Centre
#                                CCDC 
#
#######################################################################
#
# If this CIF has been generated from an entry in the Cambridge 
# Structural Database, then it will include bibliographic, chemical, 
# crystal, experimental, refinement or atomic coordinate data resulting 
# from the CCDC's data processing and validation procedures.
#
#######################################################################

data_AHEMAC01
_symmetry_cell_setting           monoclinic
_symmetry_space_group_name_H-M   'P 21/c'
_symmetry_Int_Tables_number      14
_space_group_name_Hall           '-P 2ybc'
loop_
_symmetry_equiv_pos_site_id
_symmetry_equiv_pos_as_xyz
1 x,y,z
2 -x,1/2+y,1/2-z
3 -x,-y,-z
4 x,1/2-y,1/2+z
_cell_length_a                   9.5121(2)
_cell_length_b                   24.2801(7)
_cell_length_c                   13.9782(4)
_cell_angle_alpha                90
_cell_angle_beta                 108.992(2)
_cell_angle_gamma                90
_cell_volume                     3052.59
loop_
_atom_site_label
_atom_site_type_symbol
_atom_site_fract_x
_atom_site_fract_y
_atom_site_fract_z
Ce1 Ce 0.776669(17) 0.004135(6) 0.013882(12)
O1 O 0.7904(2) 0.08028(8) -0.10766(15)
C1 C 0.6960(3) 0.10460(12) -0.1819(2)
O2 O 0.5854(2) 0.07990(8) -0.24305(16)
C2 C 0.7137(3) 0.16348(13) -0.1995(2)
H1 H 0.6580 0.1784 -0.2634
O3 O 0.8829(3) 0.42495(9) -0.16327(18)
C3 C 0.8023(3) 0.19697(12) -0.1319(2)
H2 H 0.8623 0.1808 -0.0703
H3 H 0.836(5) 0.4400(19) -0.229(2)
O4 O 1.0570(2) 0.04859(8) 0.05560(15)
C4 C 0.8176(3) 0.25651(12) -0.1422(2)
O5 O 0.8979(2) 0.08410(8) 0.12287(15)
C5 C 0.7241(3) 0.28700(13) -0.2232(2)
H4 H 0.6455 0.2688 -0.2733
O6 O 1.3054(2) 0.39589(8) 0.23287(17)
C6 C 0.7440(3) 0.34281(13) -0.2317(2)
H5 H 0.6794 0.3627 -0.2872
H6 H 1.399(3) 0.4002(18) 0.226(3)
O7 O 0.6658(2) -0.08679(8) 0.01530(15)
C7 C 0.8587(4) 0.36987(13) -0.1591(2)
O8 O 0.4394(2) -0.05851(8) 0.00383(16)
C8 C 0.9506(4) 0.34096(14) -0.0773(2)
H7 H 1.0272 0.3595 -0.0264
O9 O 0.4667(3) -0.42318(9) 0.01282(19)
C9 C 0.9305(3) 0.28508(14) -0.0700(2)
H8 H 0.9954 0.2655 -0.0143
H9 H 0.561(3) -0.4405(16) 0.033(3)
O10 O 0.5921(2) -0.01703(8) -0.16581(15)
C10 C 1.0126(3) 0.08879(12) 0.0982(2)
H10 H 0.583(5) 0.0170(13) -0.205(3)
O11 O 0.9668(2) -0.04992(8) 0.15770(16)
C11 C 1.0972(3) 0.14073(11) 0.1146(2)
H11 H 1.1803 0.1439 0.0914
H12 H 1.034(4) -0.0637(16) 0.128(3)
O12 O 0.7065(2) -0.00008(9) 0.17825(14)
C12 C 1.0596(3) 0.18319(12) 0.1611(2)
H13 H 0.9773 0.1775 0.1842
H14 H 0.607(2) 0.0080(15) 0.162(3)
H15 H 0.722(4) -0.0362(10) 0.206(3)
C13 C 1.1287(3) 0.23738(12) 0.1810(2)
C14 C 1.0620(3) 0.27914(13) 0.2190(2)
H17 H 0.9730 0.2713 0.2332
C15 C 1.1207(3) 0.33156(12) 0.2368(2)
H18 H 1.0730 0.3592 0.2634
C16 C 1.2500(3) 0.34362(12) 0.2156(2)
C17 C 1.3176(3) 0.30314(12) 0.1763(2)
H19 H 1.4047 0.3116 0.1602
C18 C 1.2596(3) 0.25044(12) 0.1602(2)
H20 H 1.3087 0.2228 0.1348
C19 C 0.5332(3) -0.09645(12) 0.0084(2)
C20 C 0.4806(3) -0.15368(12) 0.0053(2)
H21 H 0.3770 -0.1608 -0.0133
C21 C 0.5764(3) -0.19578(12) 0.0281(2)
H22 H 0.6788 -0.1863 0.0476
C22 C 0.5432(3) -0.25453(13) 0.0269(2)
C23 C 0.6598(4) -0.29129(13) 0.0655(2)
H23 H 0.7579 -0.2774 0.0945
C24 C 0.6371(4) -0.34729(13) 0.0629(3)
H24 H 0.7184 -0.3716 0.0906
C25 C 0.4949(4) -0.36793(13) 0.0196(2)
C26 C 0.3749(4) -0.33238(13) -0.0177(3)
H25 H 0.2770 -0.3466 -0.0458
C27 C 0.3992(4) -0.27635(13) -0.0136(2)
H26 H 0.3171 -0.2520 -0.0386
C28 C 0.5854(4) -0.06215(13) -0.2327(2)
H27 H 0.6731 -0.0615 -0.2549
H28 H 0.4953 -0.0591 -0.2917
H29 H 0.5832 -0.0968 -0.1974
C29 C 1.0503(4) -0.03148(14) 0.2575(2)
H30 H 1.0963 0.0041 0.2533
H31 H 1.1279 -0.0585 0.2896
H32 H 0.9837 -0.0275 0.2979
Ce1B Ce 1.223331(17) -0.004135(6) -0.013882(12)
Ce1B_2 Ce 0.223331(17) -0.004135(6) -0.013882(12)
O4B O 0.9430(2) -0.04859(8) -0.05560(15)
O8B O 0.5606(2) 0.05851(8) -0.00383(16)
O13 O 0.2963(3) 0.01366(10) 0.4478(2)
H16 H 0.352(3) -0.0210(8) 0.450(2)
C30 C 0.2147(5) 0.0188(2) 0.5173(4)
H33 H 0.2791 0.0346 0.5809
H34 H 0.1805 -0.0177 0.5303
H35 H 0.1287 0.0429 0.4882
loop_
_geom_bond_atom_site_label_1
_geom_bond_atom_site_label_2
_geom_bond_site_symmetry_1
_geom_bond_site_symmetry_2
Ce1 O1 1_555 1_555
O1 C1 1_555 1_555
C1 O2 1_555 1_555
C2 C1 1_555 1_555
H1 C2 1_555 1_555
O3 H3 1_555 1_555
C3 C2 1_555 1_555
H2 C3 1_555 1_555
O4 Ce1 1_555 1_555
C4 C3 1_555 1_555
O5 Ce1 1_555 1_555
C5 C4 1_555 1_555
H4 C5 1_555 1_555
O6 H6 1_555 1_555
C6 C5 1_555 1_555
H5 C6 1_555 1_555
O7 Ce1 1_555 1_555
C7 O3 1_555 1_555
O8 C19 1_555 1_555
C8 C7 1_555 1_555
H7 C8 1_555 1_555
O9 H9 1_555 1_555
C9 C4 1_555 1_555
H8 C9 1_555 1_555
O10 Ce1 1_555 1_555
C10 O4 1_555 1_555
H10 O10 1_555 1_555
O11 Ce1 1_555 1_555
C11 C10 1_555 1_555
H11 C11 1_555 1_555
H12 O11 1_555 1_555
O12 Ce1 1_555 1_555
C12 C11 1_555 1_555
H13 C12 1_555 1_555
H14 O12 1_555 1_555
H15 O12 1_555 1_555
O13 H16 1_555 1_555
C13 C12 1_555 1_555
C14 C13 1_555 1_555
H17 C14 1_555 1_555
C15 C14 1_555 1_555
H18 C15 1_555 1_555
C16 O6 1_555 1_555
C17 C16 1_555 1_555
H19 C17 1_555 1_555
C18 C13 1_555 1_555
H20 C18 1_555 1_555
C19 O7 1_555 1_555
C20 C19 1_555 1_555
H21 C20 1_555 1_555
C21 C20 1_555 1_555
H22 C21 1_555 1_555
C22 C21 1_555 1_555
C23 C22 1_555 1_555
H23 C23 1_555 1_555
C24 C23 1_555 1_555
H24 C24 1_555 1_555
C25 O9 1_555 1_555
C26 C25 1_555 1_555
H25 C26 1_555 1_555
C27 C22 1_555 1_555
H26 C27 1_555 1_555
C28 O10 1_555 1_555
H27 C28 1_555 1_555
H28 C28 1_555 1_555
H29 C28 1_555 1_555
C29 O11 1_555 1_555
H30 C29 1_555 1_555
H31 C29 1_555 1_555
H32 C29 1_555 1_555
C30 O13 1_555 1_555
H33 C30 1_555 1_555
H34 C30 1_555 1_555
H35 C30 1_555 1_555
Ce1B O4 1_555 1_555
Ce1B_2 O8 1_555 1_555
O4B Ce1 1_555 1_555
O8B Ce1 1_555 1_555
O5 C10 1_555 1_555
C6 C7 1_555 1_555
C8 C9 1_555 1_555
C15 C16 1_555 1_555
C17 C18 1_555 1_555
C24 C25 1_555 1_555
C26 C27 1_555 1_555
Ce1B O4B 1_555 1_555

#END
