
#######################################################################
#
#                 Cambridge Crystallographic Data Centre
#                                CCDC 
#
#######################################################################
#
# If this CIF has been generated from an entry in the Cambridge 
# Structural Database, then it will include bibliographic, chemical, 
# crystal, experimental, refinement or atomic coordinate data resulting 
# from the CCDC's data processing and validation procedures.
#
#######################################################################

data_AHEMAC
_symmetry_cell_setting           monoclinic
_symmetry_space_group_name_H-M   'P 21/c'
_symmetry_Int_Tables_number      14
_space_group_name_Hall           '-P 2ybc'
loop_
_symmetry_equiv_pos_site_id
_symmetry_equiv_pos_as_xyz
1 x,y,z
2 -x,1/2+y,1/2-z
3 -x,-y,-z
4 x,1/2-y,1/2+z
_cell_length_a                   9.5179(3)
_cell_length_b                   24.3259(7)
_cell_length_c                   13.9903(4)
_cell_angle_alpha                90
_cell_angle_beta                 109.0000(10)
_cell_angle_gamma                90
_cell_volume                     3062.72
loop_
_atom_site_label
_atom_site_type_symbol
_atom_site_fract_x
_atom_site_fract_y
_atom_site_fract_z
Ce1 Ce 0.723370(13) 0.004121(4) 0.486070(9)
O1 O 0.70915(17) 0.08023(6) 0.60759(12)
C1 C 0.8036(3) 0.10439(9) 0.68167(17)
O2 O 0.91420(18) 0.08024(6) 0.74282(12)
C2 C 0.7859(3) 0.16360(9) 0.69911(18)
H1 H 0.8417 0.1785 0.7629
O3 O 0.6166(2) 0.42475(7) 0.66294(15)
C3 C 0.6972(3) 0.19719(9) 0.63137(17)
H2 H 0.6371 0.1810 0.5698
H3 H 0.663(4) 0.4357(13) 0.714(2)
O4 O 0.44291(17) 0.04851(6) 0.44419(11)
C4 C 0.6821(3) 0.25668(9) 0.64165(17)
O5 O 0.60246(17) 0.08403(6) 0.37700(12)
C5 C 0.7763(3) 0.28698(9) 0.72259(17)
H4 H 0.8556 0.2689 0.7721
H6 H 0.911(4) 0.0129(13) 0.699(3)
H7 H 0.470(3) -0.0638(12) 0.366(2)
O6 O 0.1949(2) 0.39546(6) 0.26658(14)
C6 C 0.7554(3) 0.34290(9) 0.73142(18)
H8 H 0.8190 0.3627 0.7873
H9 H 0.118(3) 0.3982(12) 0.266(2)
O7 O 0.83389(17) -0.08684(6) 0.48494(11)
C7 C 0.6414(3) 0.36987(9) 0.65853(18)
O8 O 1.06054(17) -0.05847(6) 0.49651(12)
C8 C 0.5488(3) 0.34085(10) 0.57722(18)
H10 H 0.4714 0.3593 0.5269
O9 O 1.0338(2) -0.42305(7) 0.48775(15)
C9 C 0.5694(3) 0.28490(10) 0.56943(18)
H11 H 0.5051 0.2653 0.5135
H12 H 0.954(3) -0.4391(12) 0.471(2)
O10 O 0.90748(18) -0.01697(6) 0.66549(12)
C10 C 0.4871(2) 0.08871(8) 0.40140(16)
O11 O 0.53365(18) -0.04994(6) 0.34257(12)
C11 C 0.4023(2) 0.14066(8) 0.38521(16)
H13 H 0.3195 0.1440 0.4086
O12 O 0.7932(2) -0.00030(7) 0.32165(12)
C12 C 0.4405(3) 0.18302(8) 0.33817(16)
H14 H 0.5225 0.1773 0.3146
H15 H 0.873(3) 0.0061(11) 0.333(2)
H16 H 0.776(3) -0.0338(13) 0.295(2)
C13 C 0.3703(2) 0.23718(8) 0.31886(16)
C14 C 0.4382(3) 0.27896(9) 0.28068(17)
H17 H 0.5274 0.2711 0.2668
C15 C 0.3789(3) 0.33151(9) 0.26259(18)
H18 H 0.4261 0.3591 0.2358
C16 C 0.2499(3) 0.34329(8) 0.28405(16)
C17 C 0.1818(3) 0.30265(9) 0.32345(17)
H19 H 0.0946 0.3110 0.3395
C18 C 0.2402(3) 0.25034(9) 0.33925(17)
H20 H 0.1910 0.2227 0.3645
C19 C 0.9671(2) -0.09616(8) 0.49180(15)
C20 C 1.0197(3) -0.15376(9) 0.49565(17)
H21 H 1.1233 -0.1609 0.5150
C21 C 0.9243(3) -0.19557(9) 0.47242(16)
H22 H 0.8220 -0.1861 0.4527
C22 C 0.9579(3) -0.25437(9) 0.47356(16)
C23 C 0.8406(3) -0.29114(9) 0.43512(18)
H23 H 0.7425 -0.2773 0.4065
C24 C 0.8638(3) -0.34734(9) 0.43769(18)
H24 H 0.7826 -0.3717 0.4100
C25 C 1.0056(3) -0.36773(9) 0.48074(17)
C26 C 1.1251(3) -0.33220(9) 0.51815(19)
H25 H 1.2230 -0.3463 0.5463
C27 C 1.1006(3) -0.27607(9) 0.51417(18)
H26 H 1.1826 -0.2518 0.5396
C28 C 0.9147(3) -0.06198(10) 0.73291(18)
H27 H 0.8295 -0.0604 0.7575
H28 H 1.0070 -0.0596 0.7903
H29 H 0.9127 -0.0967 0.6970
C29 C 0.4499(3) -0.03147(10) 0.24297(18)
H30 H 0.3999 0.0032 0.2476
H31 H 0.3756 -0.0593 0.2096
H32 H 0.5171 -0.0257 0.2036
Ce1B Ce 0.276630(13) -0.004121(4) 0.513930(9)
Ce1B_2 Ce 1.276630(13) -0.004121(4) 0.513930(9)
O4B O 0.55709(17) -0.04851(6) 0.55581(11)
O8B O 0.93946(17) 0.05847(6) 0.50349(12)
H5 H 0.830(5) -0.5199(19) 0.462(4)
O13 O 0.7965(2) -0.48610(8) 0.44707(16)
C30 C 0.7165(4) -0.48047(14) 0.5164(3)
H33 H 0.7833 -0.4668 0.5812
H34 H 0.6765 -0.5163 0.5266
H35 H 0.6346 -0.4544 0.4893
loop_
_geom_bond_atom_site_label_1
_geom_bond_atom_site_label_2
_geom_bond_site_symmetry_1
_geom_bond_site_symmetry_2
Ce1 O1 1_555 1_555
O1 C1 1_555 1_555
C1 O2 1_555 1_555
C2 C1 1_555 1_555
H1 C2 1_555 1_555
O3 H3 1_555 1_555
C3 C2 1_555 1_555
H2 C3 1_555 1_555
O4 Ce1 1_555 1_555
C4 C3 1_555 1_555
O5 Ce1 1_555 1_555
C5 C4 1_555 1_555
H4 C5 1_555 1_555
H5 O13 1_555 1_555
H6 O10 1_555 1_555
H7 O11 1_555 1_555
O6 H9 1_555 1_555
C6 C5 1_555 1_555
H8 C6 1_555 1_555
O7 Ce1 1_555 1_555
C7 O3 1_555 1_555
O8 C19 1_555 1_555
C8 C7 1_555 1_555
H10 C8 1_555 1_555
O9 H12 1_555 1_555
C9 C4 1_555 1_555
H11 C9 1_555 1_555
O10 Ce1 1_555 1_555
C10 O4 1_555 1_555
O11 Ce1 1_555 1_555
C11 C10 1_555 1_555
H13 C11 1_555 1_555
O12 Ce1 1_555 1_555
C12 C11 1_555 1_555
H14 C12 1_555 1_555
H15 O12 1_555 1_555
H16 O12 1_555 1_555
O13 C30 1_555 1_555
C13 C12 1_555 1_555
C14 C13 1_555 1_555
H17 C14 1_555 1_555
C15 C14 1_555 1_555
H18 C15 1_555 1_555
C16 O6 1_555 1_555
C17 C16 1_555 1_555
H19 C17 1_555 1_555
C18 C13 1_555 1_555
H20 C18 1_555 1_555
C19 O7 1_555 1_555
C20 C19 1_555 1_555
H21 C20 1_555 1_555
C21 C20 1_555 1_555
H22 C21 1_555 1_555
C22 C21 1_555 1_555
C23 C22 1_555 1_555
H23 C23 1_555 1_555
C24 C23 1_555 1_555
H24 C24 1_555 1_555
C25 O9 1_555 1_555
C26 C25 1_555 1_555
H25 C26 1_555 1_555
C27 C22 1_555 1_555
H26 C27 1_555 1_555
C28 O10 1_555 1_555
H27 C28 1_555 1_555
H28 C28 1_555 1_555
H29 C28 1_555 1_555
C29 O11 1_555 1_555
H30 C29 1_555 1_555
H31 C29 1_555 1_555
H32 C29 1_555 1_555
C30 H33 1_555 1_555
H34 C30 1_555 1_555
H35 C30 1_555 1_555
Ce1B O4 1_555 1_555
Ce1B_2 O8 1_555 1_555
O4B Ce1 1_555 1_555
O8B Ce1 1_555 1_555
O5 C10 1_555 1_555
C6 C7 1_555 1_555
C8 C9 1_555 1_555
C15 C16 1_555 1_555
C17 C18 1_555 1_555
C24 C25 1_555 1_555
C26 C27 1_555 1_555
Ce1B O4B 1_555 1_555

#END
