
#######################################################################
#
#                 Cambridge Crystallographic Data Centre
#                                CCDC 
#
#######################################################################
#
# If this CIF has been generated from an entry in the Cambridge 
# Structural Database, then it will include bibliographic, chemical, 
# crystal, experimental, refinement or atomic coordinate data resulting 
# from the CCDC's data processing and validation procedures.
#
#######################################################################

data_AHEMOQ
_symmetry_cell_setting           monoclinic
_symmetry_space_group_name_H-M   'P 21/c'
_symmetry_Int_Tables_number      14
_space_group_name_Hall           '-P 2ybc'
loop_
_symmetry_equiv_pos_site_id
_symmetry_equiv_pos_as_xyz
1 x,y,z
2 -x,1/2+y,1/2-z
3 -x,-y,-z
4 x,1/2-y,1/2+z
_cell_length_a                   10.302(5)
_cell_length_b                   5.345(2)
_cell_length_c                   8.662(4)
_cell_angle_alpha                90
_cell_angle_beta                 98.659(9)
_cell_angle_gamma                90
_cell_volume                     471.529
loop_
_atom_site_label
_atom_site_type_symbol
_atom_site_fract_x
_atom_site_fract_y
_atom_site_fract_z
O1 O 0.90099(11) 0.1735(2) 0.93515(14)
O2 O 0.92186(11) 0.5320(2) 0.80877(14)
C1 C 0.72786(15) 0.4712(3) 0.9229(2)
C2 C 0.47190(16) 0.6126(3) 0.96646(18)
C3 C 0.67106(17) 0.6970(3) 0.8581(2)
H1 H 0.7185 0.7995 0.8001
C4 C 0.54694(16) 0.7652(3) 0.8800(2)
H2 H 0.5115 0.9143 0.8373
C5 C 0.65778(16) 0.3226(3) 1.00975(19)
H3 H 0.6957 0.1765 1.0540
C6 C 0.86026(16) 0.3872(3) 0.88835(19)
Li1 Li 1.0109(3) 0.1149(6) 1.1450(4)
O1B O 0.09901(11) 0.8265(2) 1.06485(14)
O1B_2 O 1.09901(11) -0.1735(2) 1.06485(14)
O1_2 O -0.09901(11) 1.1735(2) 0.93515(14)
O2B O 0.07814(11) 0.4680(2) 1.19123(14)
O2B_2 O 1.07814(11) 0.4680(2) 1.19123(14)
O2C O 0.92186(11) -0.0320(2) 1.30877(14)
O2_2 O -0.07814(11) 0.5320(2) 0.80877(14)
O2A O 0.07814(11) 1.0320(2) 0.69123(14)
C1B C 0.27214(15) 0.5288(3) 1.0771(2)
C2B C 0.52810(16) 0.3874(3) 1.03354(18)
C3B C 0.32894(17) 0.3030(3) 1.1419(2)
H1B H 0.2815 0.2005 1.1999
C4B C 0.45306(16) 0.2348(3) 1.1200(2)
H2B H 0.4885 0.0857 1.1627
C5B C 0.34222(16) 0.6774(3) 0.99025(19)
H3B H 0.3043 0.8235 0.9460
C6B C 0.13974(16) 0.6128(3) 1.11165(19)
Li1B Li -0.0109(3) 0.8851(6) 0.8550(4)
Li1B_2 Li 0.9891(3) -0.1149(6) 0.8550(4)
Li1B_3 Li 0.9891(3) 0.8851(6) 0.8550(4)
Li1C Li 1.0109(3) 0.3851(6) 0.6450(4)
Li1_2 Li 0.0109(3) 1.1149(6) 1.1450(4)
Li1_3 Li 0.0109(3) 0.1149(6) 1.1450(4)
Li1A Li -0.0109(3) 0.6149(6) 1.3550(4)
loop_
_geom_bond_atom_site_label_1
_geom_bond_atom_site_label_2
_geom_bond_site_symmetry_1
_geom_bond_site_symmetry_2
O1 C6 1_555 1_555
O2 C6 1_555 1_555
C1 C3 1_555 1_555
C2 C4 1_555 1_555
C3 H1 1_555 1_555
C4 C3 1_555 1_555
H2 C4 1_555 1_555
C5 C1 1_555 1_555
H3 C5 1_555 1_555
C6 C1 1_555 1_555
Li1 O1 1_555 1_555
O1B C6B 1_555 1_555
O1B_2 Li1 1_555 1_555
O1_2 Li1B 1_555 1_555
O2B C6B 1_555 1_555
O2B_2 Li1 1_555 1_555
O2C Li1 1_555 1_555
O2_2 Li1B 1_555 1_555
O2A Li1B 1_555 1_555
C1B C3B 1_555 1_555
C2B C2 1_555 1_555
C3B H1B 1_555 1_555
C4B C2B 1_555 1_555
H2B C4B 1_555 1_555
C5B C2 1_555 1_555
H3B C5B 1_555 1_555
C6B C1B 1_555 1_555
Li1B O1B 1_555 1_555
Li1B_2 O1 1_555 1_555
Li1B_3 O2 1_555 1_555
Li1C O2 1_555 1_555
Li1_2 O1B 1_555 1_555
Li1_3 O2B 1_555 1_555
Li1A O2B 1_555 1_555
C5 C2B 1_555 1_555
O1B_2 Li1B_2 1_555 1_555
O1_2 Li1_2 1_555 1_555
C1B C5B 1_555 1_555
C3B C4B 1_555 1_555

#END
