
#######################################################################
#
#                 Cambridge Crystallographic Data Centre
#                                CCDC 
#
#######################################################################
#
# If this CIF has been generated from an entry in the Cambridge 
# Structural Database, then it will include bibliographic, chemical, 
# crystal, experimental, refinement or atomic coordinate data resulting 
# from the CCDC's data processing and validation procedures.
#
#######################################################################

data_AHEPEK
_symmetry_cell_setting           triclinic
_symmetry_space_group_name_H-M   'P -1'
_symmetry_Int_Tables_number      2
_space_group_name_Hall           '-P 1'
loop_
_symmetry_equiv_pos_site_id
_symmetry_equiv_pos_as_xyz
1 x,y,z
2 -x,-y,-z
_cell_length_a                   8.9509(2)
_cell_length_b                   9.5006(2)
_cell_length_c                   18.2554(4)
_cell_angle_alpha                91.0698(9)
_cell_angle_beta                 99.5953(8)
_cell_angle_gamma                95.3065(7)
_cell_volume                     1523.22
loop_
_atom_site_label
_atom_site_type_symbol
_atom_site_fract_x
_atom_site_fract_y
_atom_site_fract_z
Na1 Na 0.72128(16) 0.05524(15) 0.03350(8)
Zn1 Zn 0.68333(4) 0.15696(4) 0.24249(2)
I1 I 0.42860(2) 0.02973(2) 0.269059(13)
I2 I 0.86583(2) -0.02150(2) 0.208562(14)
I3 I 0.58786(2) 0.30049(2) 0.122633(13)
Fe1 Fe 1.12907(5) 0.46516(5) 0.27171(3)
S1 S 1.09651(9) 0.23984(10) 0.03802(5)
P1 P 0.82069(9) 0.30276(9) 0.34868(5)
O1 O 0.9322(3) 0.2371(3) 0.02007(14)
O2 O 1.1635(3) 0.1183(3) 0.01488(15)
C1 C 1.1336(3) 0.4080(3) 0.16411(18)
C2 C 1.2539(4) 0.5157(4) 0.19073(19)
H1 H 1.3596 0.5075 0.1929
C3 C 1.1894(4) 0.6365(4) 0.2133(2)
H2 H 1.2438 0.7230 0.2334
C4 C 1.0282(4) 0.6051(4) 0.2005(2)
H3 H 0.9563 0.6672 0.2108
C5 C 0.9934(4) 0.4653(4) 0.16994(18)
H4 H 0.8943 0.4178 0.1558
C6 C 1.0165(3) 0.3674(3) 0.34817(17)
C7 C 1.1357(4) 0.2870(4) 0.33226(18)
H5 H 1.1234 0.1923 0.3129
C8 C 1.2751(4) 0.3735(4) 0.35046(18)
H6 H 1.3727 0.3465 0.3457
C9 C 1.2446(4) 0.5066(4) 0.37676(19)
H7 H 1.3180 0.5847 0.3922
C10 C 1.0859(4) 0.5042(4) 0.37622(18)
H8 H 1.0345 0.5797 0.3917
C11 C 1.1533(4) 0.2644(3) 0.13561(18)
H9 H 1.0931 0.1934 0.1606
H10 H 1.2618 0.2472 0.1488
C12 C 0.8309(4) 0.2142(3) 0.43732(18)
C13 C 0.9680(4) 0.2096(4) 0.48518(19)
H11 H 1.0598 0.2497 0.4711
C14 C 0.9723(4) 0.1467(4) 0.5537(2)
H12 H 1.0667 0.1436 0.5861
C15 C 0.8390(4) 0.0887(4) 0.5743(2)
H13 H 0.8414 0.0466 0.6212
C16 C 0.7029(4) 0.0920(4) 0.5270(2)
H14 H 0.6115 0.0522 0.5416
C17 C 0.6973(4) 0.1528(4) 0.4581(2)
H15 H 0.6029 0.1526 0.4254
C18 C 0.7318(3) 0.4641(3) 0.36340(18)
C19 C 0.7065(4) 0.5061(4) 0.43284(19)
H16 H 0.7305 0.4480 0.4742
C20 C 0.6457(4) 0.6338(4) 0.4420(2)
H17 H 0.6277 0.6622 0.4897
C21 C 0.6118(4) 0.7188(4) 0.3829(2)
H18 H 0.5712 0.8061 0.3897
C22 C 0.6366(4) 0.6772(4) 0.3135(2)
H19 H 0.6134 0.7362 0.2726
C23 C 0.6954(4) 0.5494(4) 0.30331(19)
H20 H 0.7107 0.5204 0.2553
C24 C 1.1794(4) 0.3898(4) -0.0007(2)
H21 H 1.2901 0.3970 0.0147
H22 H 1.1397 0.4748 0.0168
H23 H 1.1544 0.3812 -0.0550
O3 O 0.4719(3) -0.0831(3) 0.07187(15)
H24 H 0.4381 -0.0570 0.1142
C25 C 0.4774(5) -0.2257(4) 0.0948(2)
H25 H 0.3787 -0.2612 0.1073
H26 H 0.5568 -0.2291 0.1386
H27 H 0.5006 -0.2848 0.0544
Na1A Na 0.27872(16) -0.05524(15) -0.03350(8)
Na1A_2 Na 1.27872(16) -0.05524(15) -0.03350(8)
O2A O 0.8365(3) -0.1183(3) -0.01488(15)
O3A O 0.5281(3) 0.0831(3) -0.07187(15)
loop_
_geom_bond_atom_site_label_1
_geom_bond_atom_site_label_2
_geom_bond_site_symmetry_1
_geom_bond_site_symmetry_2
Na1 I2 1_555 1_555
Zn1 I1 1_555 1_555
I2 Zn1 1_555 1_555
I3 Na1 1_555 1_555
Fe1 C1 1_555 1_555
S1 O1 1_555 1_555
P1 Zn1 1_555 1_555
O1 Na1 1_555 1_555
O2 S1 1_555 1_555
C1 C2 1_555 1_555
C2 Fe1 1_555 1_555
H1 C2 1_555 1_555
C3 Fe1 1_555 1_555
H2 C3 1_555 1_555
C4 Fe1 1_555 1_555
H3 C4 1_555 1_555
C5 Fe1 1_555 1_555
H4 C5 1_555 1_555
C6 Fe1 1_555 1_555
C7 Fe1 1_555 1_555
H5 C7 1_555 1_555
C8 Fe1 1_555 1_555
H6 C8 1_555 1_555
C9 Fe1 1_555 1_555
H7 C9 1_555 1_555
C10 Fe1 1_555 1_555
H8 C10 1_555 1_555
C11 S1 1_555 1_555
H9 C11 1_555 1_555
H10 C11 1_555 1_555
C12 P1 1_555 1_555
C13 C12 1_555 1_555
H11 C13 1_555 1_555
C14 C13 1_555 1_555
H12 C14 1_555 1_555
C15 C14 1_555 1_555
H13 C15 1_555 1_555
C16 C15 1_555 1_555
H14 C16 1_555 1_555
C17 C12 1_555 1_555
H15 C17 1_555 1_555
C18 P1 1_555 1_555
C19 C18 1_555 1_555
H16 C19 1_555 1_555
C20 C19 1_555 1_555
H17 C20 1_555 1_555
C21 C20 1_555 1_555
H18 C21 1_555 1_555
C22 C21 1_555 1_555
H19 C22 1_555 1_555
C23 C18 1_555 1_555
H20 C23 1_555 1_555
C24 S1 1_555 1_555
H21 C24 1_555 1_555
H22 C24 1_555 1_555
H23 C24 1_555 1_555
O3 Na1 1_555 1_555
H24 O3 1_555 1_555
C25 O3 1_555 1_555
H25 C25 1_555 1_555
H26 C25 1_555 1_555
H27 C25 1_555 1_555
Na1A O3 1_555 1_555
Na1A_2 O2 1_555 1_555
O2A Na1 1_555 1_555
O3A Na1 1_555 1_555
Zn1 I3 1_555 1_555
P1 C6 1_555 1_555
C1 C5 1_555 1_555
C1 C11 1_555 1_555
C2 C3 1_555 1_555
C3 C4 1_555 1_555
C4 C5 1_555 1_555
C6 C7 1_555 1_555
C6 C10 1_555 1_555
C7 C8 1_555 1_555
C8 C9 1_555 1_555
C9 C10 1_555 1_555
C16 C17 1_555 1_555
C22 C23 1_555 1_555
Na1A O3A 1_555 1_555

#END
