
#######################################################################
#
#                 Cambridge Crystallographic Data Centre
#                                CCDC 
#
#######################################################################
#
# If this CIF has been generated from an entry in the Cambridge 
# Structural Database, then it will include bibliographic, chemical, 
# crystal, experimental, refinement or atomic coordinate data resulting 
# from the CCDC's data processing and validation procedures.
#
#######################################################################

data_AHEREL
_symmetry_cell_setting           monoclinic
_symmetry_space_group_name_H-M   'C 2/c'
_symmetry_Int_Tables_number      15
_space_group_name_Hall           '-C 2yn'
loop_
_symmetry_equiv_pos_site_id
_symmetry_equiv_pos_as_xyz
1 x,y,z
2 -x,y,1/2-z
3 1/2+x,1/2+y,z
4 1/2-x,1/2+y,1/2-z
5 -x,-y,-z
6 x,-y,1/2+z
7 1/2-x,1/2-y,-z
8 1/2+x,1/2-y,1/2+z
_cell_length_a                   28.03(4)
_cell_length_b                   16.91(2)
_cell_length_c                   11.125(18)
_cell_angle_alpha                90
_cell_angle_beta                 95.03(6)
_cell_angle_gamma                90
_cell_volume                     5252.8
loop_
_atom_site_label
_atom_site_type_symbol
_atom_site_fract_x
_atom_site_fract_y
_atom_site_fract_z
Cu1 Cu 0.20070(2) 0.01127(3) 0.62677(5)
Cu2 Cu 0.16149(2) 0.34753(3) 0.52353(5)
O1 O 0.19911(12) -0.10263(19) 0.6078(2)
O2 O 0.14564(13) 0.0233(2) 0.5105(3)
O3 O 0.09926(12) 0.2952(2) 0.5081(3)
O4 O 0.14429(11) 0.4155(2) 0.3877(2)
N1 N 0.20770(14) 0.1264(2) 0.6309(3)
N2 N 0.19312(14) 0.2558(2) 0.5989(3)
N3 N 0.20429(13) 0.4293(2) 0.5953(3)
N4 N 0.25360(15) 0.4945(2) 0.7299(3)
C1 C 0.17542(16) 0.1812(2) 0.5949(4)
C2 C 0.24096(16) 0.2462(2) 0.6406(3)
C3 C 0.25002(15) 0.1680(2) 0.6605(4)
C4 C 0.1447(2) -0.2658(3) 0.6320(5)
C5 C 0.1729(2) -0.2753(3) 0.4218(4)
C6 C 0.17873(17) -0.2322(2) 0.5442(4)
C7 C 0.17123(17) -0.1435(2) 0.5335(4)
C8 C 0.13561(18) -0.1108(2) 0.4506(4)
C9 C 0.12483(16) -0.0302(2) 0.4429(4)
C10 C 0.0664(2) -0.0602(3) 0.2555(5)
C11 C 0.1035(2) 0.0746(3) 0.2873(4)
C12 C 0.08517(19) 0.0003(3) 0.3514(4)
C13 C 0.22713(15) 0.4292(2) 0.7065(3)
C14 C 0.24749(18) 0.5393(2) 0.6259(4)
C15 C 0.21717(17) 0.4995(2) 0.5434(4)
C16 C 0.0022(2) 0.2986(4) 0.5826(5)
C17 C 0.0192(2) 0.1854(3) 0.4470(6)
C18 C 0.01593(18) 0.2752(3) 0.4582(4)
C19 C 0.06342(15) 0.3153(2) 0.4351(4)
C20 C 0.06465(17) 0.3710(3) 0.3430(4)
C21 C 0.10430(16) 0.4173(2) 0.3217(4)
C22 C 0.0954(2) 0.5603(3) 0.2785(5)
C23 C 0.0659(2) 0.4641(3) 0.1144(4)
C24 C 0.10283(17) 0.4791(2) 0.2207(4)
H1 H 0.1431 0.1691 0.5689
H2 H 0.2637 0.2876 0.6533
H3 H 0.2799 0.1457 0.6894
H4 H 0.1601 -0.3077 0.6772
H5 H 0.1362 -0.2253 0.6853
H6 H 0.1166 -0.2854 0.5878
H7 H 0.1492 -0.2493 0.3698
H8 H 0.2026 -0.2747 0.3865
H9 H 0.1634 -0.3284 0.4338
H10 H 0.2106 -0.2409 0.5784
H11 H 0.1179 -0.1457 0.3968
H12 H 0.0403 -0.0885 0.2836
H13 H 0.0560 -0.0333 0.1829
H14 H 0.0913 -0.0960 0.2407
H15 H 0.1181 0.0589 0.2173
H16 H 0.0773 0.1087 0.2647
H17 H 0.1262 0.1017 0.3407
H18 H 0.0590 0.0160 0.3946
H19 H 0.2248 0.3874 0.7627
H20 H 0.2618 0.5892 0.6136
H21 H 0.2068 0.5172 0.4643
H22 H 0.0303 0.3053 0.6357
H23 H -0.0153 0.3468 0.5770
H24 H -0.0171 0.2583 0.6128
H25 H -0.0111 0.1648 0.4173
H26 H 0.0423 0.1723 0.3926
H27 H 0.0285 0.1632 0.5239
H28 H -0.0082 0.2937 0.3997
H29 H 0.0363 0.3780 0.2907
H30 H 0.1257 0.5832 0.3028
H31 H 0.0782 0.5938 0.2215
H32 H 0.0778 0.5539 0.3470
H33 H 0.0366 0.4889 0.1291
H34 H 0.0772 0.4853 0.0430
H35 H 0.0610 0.4088 0.1049
H36 H 0.1335 0.4796 0.1903
Cu1C Cu 0.29930(2) 0.51127(3) 0.87323(5)
N4C N 0.24640(15) -0.0055(2) 0.7701(3)
loop_
_geom_bond_atom_site_label_1
_geom_bond_atom_site_label_2
_geom_bond_site_symmetry_1
_geom_bond_site_symmetry_2
Cu1 O1 1_555 1_555
Cu2 O3 1_555 1_555
O1 C7 1_555 1_555
O2 Cu1 1_555 1_555
O3 C19 1_555 1_555
O4 Cu2 1_555 1_555
N1 Cu1 1_555 1_555
N2 Cu2 1_555 1_555
N3 Cu2 1_555 1_555
N4 C13 1_555 1_555
C1 N1 1_555 1_555
C2 N2 1_555 1_555
C3 N1 1_555 1_555
C4 C6 1_555 1_555
C5 C6 1_555 1_555
C6 C7 1_555 1_555
C7 C8 1_555 1_555
C8 C9 1_555 1_555
C9 O2 1_555 1_555
C10 C12 1_555 1_555
C11 C12 1_555 1_555
C12 C9 1_555 1_555
C13 N3 1_555 1_555
C14 N4 1_555 1_555
C15 N3 1_555 1_555
C16 C18 1_555 1_555
C17 C18 1_555 1_555
C18 C19 1_555 1_555
C19 C20 1_555 1_555
C20 C21 1_555 1_555
C21 O4 1_555 1_555
C22 C24 1_555 1_555
C23 C24 1_555 1_555
C24 C21 1_555 1_555
H1 C1 1_555 1_555
H2 C2 1_555 1_555
H3 C3 1_555 1_555
H4 C4 1_555 1_555
H5 C4 1_555 1_555
H6 C4 1_555 1_555
H7 C5 1_555 1_555
H8 C5 1_555 1_555
H9 C5 1_555 1_555
H10 C6 1_555 1_555
H11 C8 1_555 1_555
H12 C10 1_555 1_555
H13 C10 1_555 1_555
H14 C10 1_555 1_555
H15 C11 1_555 1_555
H16 C11 1_555 1_555
H17 C11 1_555 1_555
H18 C12 1_555 1_555
H19 C13 1_555 1_555
H20 C14 1_555 1_555
H21 C15 1_555 1_555
H22 C16 1_555 1_555
H23 C16 1_555 1_555
H24 C16 1_555 1_555
H25 C17 1_555 1_555
H26 C17 1_555 1_555
H27 C17 1_555 1_555
H28 C18 1_555 1_555
H29 C20 1_555 1_555
H30 C22 1_555 1_555
H31 C22 1_555 1_555
H32 C22 1_555 1_555
H33 C23 1_555 1_555
H34 C23 1_555 1_555
H35 C23 1_555 1_555
H36 C24 1_555 1_555
Cu1C N4 1_555 1_555
N4C Cu1 1_555 1_555
N2 C1 1_555 1_555
C2 C3 1_555 1_555
C14 C15 1_555 1_555

#END
