
#######################################################################
#
#                 Cambridge Crystallographic Data Centre
#                                CCDC 
#
#######################################################################
#
# If this CIF has been generated from an entry in the Cambridge 
# Structural Database, then it will include bibliographic, chemical, 
# crystal, experimental, refinement or atomic coordinate data resulting 
# from the CCDC's data processing and validation procedures.
#
#######################################################################

data_AHERAH01
_symmetry_cell_setting           monoclinic
_symmetry_space_group_name_H-M   'P 21/c'
_symmetry_Int_Tables_number      14
_space_group_name_Hall           '-P 2ybc'
loop_
_symmetry_equiv_pos_site_id
_symmetry_equiv_pos_as_xyz
1 x,y,z
2 -x,1/2+y,1/2-z
3 -x,-y,-z
4 x,1/2-y,1/2+z
_cell_length_a                   10.094(2)
_cell_length_b                   14.310(3)
_cell_length_c                   14.708(3)
_cell_angle_alpha                90
_cell_angle_beta                 91.037(3)
_cell_angle_gamma                90
_cell_volume                     2124.15
loop_
_atom_site_label
_atom_site_type_symbol
_atom_site_fract_x
_atom_site_fract_y
_atom_site_fract_z
C1 C 0.228(2) -0.421(2) 0.1105(8)
H1 H 0.2610 -0.4258 0.0505
C2 C 0.261(2) -0.386(3) 0.2682(11)
Au1 Au -0.20573(12) -0.23553(11) 0.47024(8)
Au2 Au -0.08629(12) -0.76403(10) -0.00478(8)
Fe1 Fe -0.1432(5) -0.4997(4) 0.2332(3)
N1 N -0.111(3) -0.6067(18) 0.1442(16)
N2 N -0.091(3) -0.587(2) 0.338(2)
N3 N -0.185(3) -0.393(2) 0.3215(17)
N4 N -0.196(3) -0.415(2) 0.1234(19)
C3 C -0.084(4) -0.638(3) 0.393(2)
C4 C -0.209(3) -0.362(3) 0.069(2)
N5 N -0.341(3) -0.546(2) 0.2420(17)
C5 C -0.097(3) -0.663(3) 0.0910(19)
N6 N 0.0542(18) -0.4484(17) 0.2187(18)
C6 C -0.200(3) -0.337(3) 0.372(2)
C7 C -0.419(3) -0.568(2) 0.1694(19)
H2 H -0.3840 -0.5600 0.1105
C8 C -0.601(3) -0.612(3) 0.257(2)
C9 C -0.395(4) -0.558(2) 0.3291(19)
H3 H -0.3437 -0.5450 0.3822
C10 C -0.544(3) -0.601(3) 0.175(2)
H4 H -0.5918 -0.6175 0.1206
C11 C 0.106(2) -0.451(2) 0.1311(16)
H5 H 0.0508 -0.4747 0.0833
C12 C 0.298(2) -0.386(2) 0.1765(12)
C13 C 0.451(2) -0.3497(19) 0.159(2)
H6 H 0.5026 -0.3533 0.2157
H7 H 0.4920 -0.3893 0.1128
H8 H 0.4484 -0.2849 0.1373
C14 C 0.129(3) -0.415(3) 0.2970(14)
H9 H 0.0979 -0.4122 0.3575
C15 C -0.525(4) -0.589(3) 0.336(2)
C16 C -0.744(3) -0.648(3) 0.271(2)
H10 H -0.7900 -0.6525 0.2115
H11 H -0.7414 -0.7091 0.2998
H12 H -0.7915 -0.6035 0.3093
Br1 Br -0.5889(5) -0.6054(3) 0.4533(2)
Br2 Br 0.3565(6) -0.3423(5) 0.3689(4)
Au1C Au -0.20573(12) -0.26447(11) -0.02976(8)
Au2C Au -0.08629(12) -0.73597(10) 0.49522(8)
C3C C -0.084(4) -0.862(3) -0.107(2)
C4C C -0.209(3) -0.138(3) 0.569(2)
loop_
_geom_bond_atom_site_label_1
_geom_bond_atom_site_label_2
_geom_bond_site_symmetry_1
_geom_bond_site_symmetry_2
C1 H1 1_555 1_555
C2 C12 1_555 1_555
Au1 C6 1_555 1_555
Au2 C5 1_555 1_555
Fe1 N1 1_555 1_555
N1 C5 1_555 1_555
N2 Fe1 1_555 1_555
N3 Fe1 1_555 1_555
N4 Fe1 1_555 1_555
C3 N2 1_555 1_555
C4 N4 1_555 1_555
N5 Fe1 1_555 1_555
N6 Fe1 1_555 1_555
C6 N3 1_555 1_555
C7 N5 1_555 1_555
H2 C7 1_555 1_555
C8 C10 1_555 1_555
C9 N5 1_555 1_555
H3 C9 1_555 1_555
C10 C7 1_555 1_555
H4 C10 1_555 1_555
C11 C1 1_555 1_555
H5 C11 1_555 1_555
C12 C1 1_555 1_555
C13 C12 1_555 1_555
H6 C13 1_555 1_555
H7 C13 1_555 1_555
H8 C13 1_555 1_555
C14 C2 1_555 1_555
H9 C14 1_555 1_555
C15 C8 1_555 1_555
C16 C8 1_555 1_555
H10 C16 1_555 1_555
H11 C16 1_555 1_555
H12 C16 1_555 1_555
Br1 C15 1_555 1_555
Br2 C2 1_555 1_555
Au1C C4 1_555 1_555
Au2C C3 1_555 1_555
C3C Au2 1_555 1_555
C4C Au1 1_555 1_555
N6 C11 1_555 1_555
N6 C14 1_555 1_555
C9 C15 1_555 1_555

#END
