
#######################################################################
#
#                 Cambridge Crystallographic Data Centre
#                                CCDC 
#
#######################################################################
#
# If this CIF has been generated from an entry in the Cambridge 
# Structural Database, then it will include bibliographic, chemical, 
# crystal, experimental, refinement or atomic coordinate data resulting 
# from the CCDC's data processing and validation procedures.
#
#######################################################################

data_AHERUC
_symmetry_cell_setting           triclinic
_symmetry_space_group_name_H-M   'P -1'
_symmetry_Int_Tables_number      2
_space_group_name_Hall           '-P 1'
loop_
_symmetry_equiv_pos_site_id
_symmetry_equiv_pos_as_xyz
1 x,y,z
2 -x,-y,-z
_cell_length_a                   8.8279(3)
_cell_length_b                   9.3796(3)
_cell_length_c                   18.2463(5)
_cell_angle_alpha                88.4567(11)
_cell_angle_beta                 80.3074(11)
_cell_angle_gamma                85.6905(11)
_cell_volume                     1484.9
loop_
_atom_site_label
_atom_site_type_symbol
_atom_site_fract_x
_atom_site_fract_y
_atom_site_fract_z
K1 K 0.23460(6) 0.42072(5) -0.03748(3)
Zn1 Zn 0.19178(3) 0.32766(3) -0.242699(14)
Br1 Br -0.04422(3) 0.45292(2) -0.265482(13)
Br2 Br 0.37187(3) 0.48993(2) -0.214724(14)
Br3 Br 0.10679(2) 0.17839(2) -0.133863(12)
Fe1 Fe 0.63965(3) 0.02549(3) -0.274965(17)
P1 P 0.32326(6) 0.19055(6) -0.34892(3)
S1 S 0.62401(6) 0.22718(6) -0.04197(3)
O1 O 0.46064(18) 0.21511(18) -0.01915(9)
O2 O 0.6854(2) 0.35488(18) -0.02034(10)
C1 C 0.6469(2) 0.0714(2) -0.16774(12)
C2 C 0.7697(3) -0.0307(2) -0.19555(12)
H1 H 0.8765 -0.0188 -0.1987
C3 C 0.7046(3) -0.1537(2) -0.21779(13)
H2 H 0.7603 -0.2378 -0.2385
C4 C 0.5422(3) -0.1284(2) -0.20358(13)
H3 H 0.4698 -0.1928 -0.2130
C5 C 0.5063(3) 0.0107(2) -0.17272(12)
H4 H 0.4058 0.0550 -0.1580
C6 C 0.5222(2) 0.1315(2) -0.35020(11)
C7 C 0.6410(2) 0.2149(2) -0.33232(12)
H5 H 0.6264 0.3073 -0.3111
C8 C 0.7843(3) 0.1339(3) -0.35202(13)
H6 H 0.8825 0.1638 -0.3469
C9 C 0.7561(3) 0.0015(3) -0.38052(13)
H7 H 0.8318 -0.0732 -0.3972
C10 C 0.5957(3) -0.0008(2) -0.38003(12)
H8 H 0.5455 -0.0769 -0.3966
C11 C 0.6678(3) 0.2162(2) -0.14038(12)
H9 H 0.6004 0.2881 -0.1626
H10 H 0.7758 0.2396 -0.1571
C12 C 0.3274(2) 0.2847(2) -0.43800(12)
C13 C 0.4635(3) 0.2935(2) -0.48844(13)
H11 H 0.5580 0.2551 -0.4752
C14 C 0.4629(3) 0.3577(2) -0.55790(13)
H12 H 0.5568 0.3649 -0.5915
C15 C 0.3253(3) 0.4112(3) -0.57799(14)
H13 H 0.3241 0.4526 -0.6260
C16 C 0.1900(3) 0.4045(3) -0.52842(15)
H14 H 0.0958 0.4420 -0.5424
C17 C 0.1898(3) 0.3435(3) -0.45814(14)
H15 H 0.0962 0.3417 -0.4238
C18 C 0.2352(2) 0.0246(2) -0.36119(12)
C19 C 0.2077(2) -0.0165(2) -0.43013(12)
H16 H 0.2285 0.0455 -0.4721
C20 C 0.1499(3) -0.1479(2) -0.43779(13)
H17 H 0.1309 -0.1754 -0.4850
C21 C 0.1201(3) -0.2386(2) -0.37754(13)
H18 H 0.0810 -0.3286 -0.3831
C22 C 0.1473(3) -0.1984(2) -0.30856(14)
H19 H 0.1274 -0.2613 -0.2669
C23 C 0.2034(3) -0.0669(2) -0.30023(12)
H20 H 0.2202 -0.0392 -0.2527
C24 C 0.7236(3) 0.0777(3) -0.00762(13)
H21 H 0.8335 0.0778 -0.0283
H22 H 0.6831 -0.0099 -0.0221
H23 H 0.7099 0.0818 0.0467
O3 O -0.0154(2) 0.57837(19) -0.08745(10)
H24 H -0.0356 0.5436 -0.1333
C25 C 0.0249(4) 0.7227(3) -0.09925(16)
H25 H -0.0646 0.7835 -0.1094
H26 H 0.1087 0.7270 -0.1418
H27 H 0.0590 0.7564 -0.0548
K1A K -0.23460(6) 0.57928(5) 0.03748(3)
K1A_2 K 0.76540(6) 0.57928(5) 0.03748(3)
O2A O 0.3146(2) 0.64512(18) 0.02034(10)
O3A O 0.0154(2) 0.42163(19) 0.08745(10)
loop_
_geom_bond_atom_site_label_1
_geom_bond_atom_site_label_2
_geom_bond_site_symmetry_1
_geom_bond_site_symmetry_2
K1 Br2 1_555 1_555
Zn1 Br1 1_555 1_555
Br2 Zn1 1_555 1_555
Br3 K1 1_555 1_555
Fe1 C1 1_555 1_555
P1 Zn1 1_555 1_555
S1 O1 1_555 1_555
O1 K1 1_555 1_555
O2 S1 1_555 1_555
C1 C2 1_555 1_555
C2 Fe1 1_555 1_555
H1 C2 1_555 1_555
C3 Fe1 1_555 1_555
H2 C3 1_555 1_555
C4 Fe1 1_555 1_555
H3 C4 1_555 1_555
C5 Fe1 1_555 1_555
H4 C5 1_555 1_555
C6 Fe1 1_555 1_555
C7 Fe1 1_555 1_555
H5 C7 1_555 1_555
C8 Fe1 1_555 1_555
H6 C8 1_555 1_555
C9 Fe1 1_555 1_555
H7 C9 1_555 1_555
C10 Fe1 1_555 1_555
H8 C10 1_555 1_555
C11 S1 1_555 1_555
H9 C11 1_555 1_555
H10 C11 1_555 1_555
C12 P1 1_555 1_555
C13 C12 1_555 1_555
H11 C13 1_555 1_555
C14 C13 1_555 1_555
H12 C14 1_555 1_555
C15 C14 1_555 1_555
H13 C15 1_555 1_555
C16 C15 1_555 1_555
H14 C16 1_555 1_555
C17 C12 1_555 1_555
H15 C17 1_555 1_555
C18 P1 1_555 1_555
C19 C18 1_555 1_555
H16 C19 1_555 1_555
C20 C19 1_555 1_555
H17 C20 1_555 1_555
C21 C20 1_555 1_555
H18 C21 1_555 1_555
C22 C21 1_555 1_555
H19 C22 1_555 1_555
C23 C18 1_555 1_555
H20 C23 1_555 1_555
C24 S1 1_555 1_555
H21 C24 1_555 1_555
H22 C24 1_555 1_555
H23 C24 1_555 1_555
O3 K1 1_555 1_555
H24 O3 1_555 1_555
C25 O3 1_555 1_555
H25 C25 1_555 1_555
H26 C25 1_555 1_555
H27 C25 1_555 1_555
K1A O3 1_555 1_555
K1A_2 O2 1_555 1_555
O2A K1 1_555 1_555
O3A K1 1_555 1_555
Zn1 Br3 1_555 1_555
P1 C6 1_555 1_555
C1 C5 1_555 1_555
C1 C11 1_555 1_555
C2 C3 1_555 1_555
C3 C4 1_555 1_555
C4 C5 1_555 1_555
C6 C7 1_555 1_555
C6 C10 1_555 1_555
C7 C8 1_555 1_555
C8 C9 1_555 1_555
C9 C10 1_555 1_555
C16 C17 1_555 1_555
C22 C23 1_555 1_555
K1A O3A 1_555 1_555

#END
