
#######################################################################
#
#                 Cambridge Crystallographic Data Centre
#                                CCDC 
#
#######################################################################
#
# If this CIF has been generated from an entry in the Cambridge 
# Structural Database, then it will include bibliographic, chemical, 
# crystal, experimental, refinement or atomic coordinate data resulting 
# from the CCDC's data processing and validation procedures.
#
#######################################################################

data_AHEVOA
_symmetry_cell_setting           monoclinic
_symmetry_space_group_name_H-M   'P 21/n'
_symmetry_Int_Tables_number      14
_space_group_name_Hall           '-P 2yn'
loop_
_symmetry_equiv_pos_site_id
_symmetry_equiv_pos_as_xyz
1 x,y,z
2 1/2-x,1/2+y,1/2-z
3 -x,-y,-z
4 1/2+x,1/2-y,1/2+z
_cell_length_a                   6.59351(14)
_cell_length_b                   13.0715(3)
_cell_length_c                   20.2077(4)
_cell_angle_alpha                90
_cell_angle_beta                 96.718(2)
_cell_angle_gamma                90
_cell_volume                     1729.68
loop_
_atom_site_label
_atom_site_type_symbol
_atom_site_fract_x
_atom_site_fract_y
_atom_site_fract_z
C1 C -0.2001(4) 0.09626(18) 0.45388(12)
C2 C -0.1355(4) -0.06304(18) 0.32729(12)
C3 C -0.2318(4) -0.14940(18) 0.28795(11)
C4 C -0.4174(5) -0.1883(2) 0.30267(14)
C5 C -0.5129(5) -0.2631(2) 0.26269(13)
C6 C -0.2567(4) -0.2659(2) 0.19639(13)
C7 C -0.1495(4) -0.1905(2) 0.23416(13)
C8 C 0.0708(4) 0.22927(18) 0.47778(12)
C9 C -0.1103(4) 0.17940(18) 0.49172(11)
C10 C -0.2019(4) 0.2141(2) 0.54686(13)
C11 C -0.1187(4) 0.2898(2) 0.58808(13)
C12 C 0.0682(4) 0.33666(18) 0.57624(12)
C13 C 0.1558(4) 0.3063(2) 0.51935(13)
N1 N 0.1561(4) 0.40979(16) 0.61876(11)
C14 C 0.3481(5) 0.4589(2) 0.60770(15)
H1 H 0.4349 0.4089 0.5895
H2 H 0.4171 0.4813 0.6503
C15 C 0.3223(6) 0.5495(3) 0.56125(19)
H3 H 0.4538 0.5780 0.5562
H4 H 0.2394 0.6003 0.5794
H5 H 0.2572 0.5278 0.5186
C16 C 0.0569(5) 0.4448(2) 0.67567(13)
H6 H 0.1599 0.4738 0.7086
H7 H -0.0015 0.3860 0.6959
C17 C -0.1087(5) 0.5231(3) 0.65874(19)
H8 H -0.1665 0.5420 0.6984
H9 H -0.2134 0.4946 0.6270
H10 H -0.0519 0.5825 0.6400
N2 N -0.1186(3) 0.05385(15) 0.40527(10)
N3 N -0.2294(3) -0.02795(16) 0.37497(10)
N4 N -0.4375(3) -0.30164(15) 0.20902(10)
O1 O 0.0359(3) -0.02394(13) 0.31003(8)
O2 O 0.1587(3) 0.20833(14) 0.42263(9)
O3 O 0.3165(3) 0.01311(16) 0.42405(10)
O4 O 0.3389(3) 0.12399(15) 0.31239(9)
Mo1 Mo 0.17603(3) 0.08757(2) 0.36777(2)
H11 H -0.321(4) 0.0683(19) 0.4655(13)
H12 H -0.479(5) -0.160(2) 0.3358(16)
H13 H -0.632(5) -0.288(3) 0.2726(16)
H14 H -0.198(5) -0.291(3) 0.1647(18)
H15 H -0.030(5) -0.172(2) 0.2207(16)
H16 H -0.318(4) 0.184(2) 0.5571(14)
H17 H -0.181(4) 0.309(2) 0.6230(15)
H18 H 0.277(5) 0.332(2) 0.5083(16)
N4A N -0.0625(3) 0.19836(15) 0.29098(10)
Mo1A Mo -0.67603(3) -0.41243(2) 0.13223(2)
loop_
_geom_bond_atom_site_label_1
_geom_bond_atom_site_label_2
_geom_bond_site_symmetry_1
_geom_bond_site_symmetry_2
C1 C9 1_555 1_555
C2 C3 1_555 1_555
C3 C4 1_555 1_555
C4 C5 1_555 1_555
C5 N4 1_555 1_555
C6 C7 1_555 1_555
C7 C3 1_555 1_555
C8 C9 1_555 1_555
C9 C10 1_555 1_555
C10 C11 1_555 1_555
C11 C12 1_555 1_555
C12 C13 1_555 1_555
C13 C8 1_555 1_555
N1 C12 1_555 1_555
C14 N1 1_555 1_555
H1 C14 1_555 1_555
H2 C14 1_555 1_555
C15 C14 1_555 1_555
H3 C15 1_555 1_555
H4 C15 1_555 1_555
H5 C15 1_555 1_555
C16 N1 1_555 1_555
H6 C16 1_555 1_555
H7 C16 1_555 1_555
C17 C16 1_555 1_555
H8 C17 1_555 1_555
H9 C17 1_555 1_555
H10 C17 1_555 1_555
N2 C1 1_555 1_555
N3 C2 1_555 1_555
N4 C6 1_555 1_555
O1 C2 1_555 1_555
O2 C8 1_555 1_555
O3 Mo1 1_555 1_555
O4 Mo1 1_555 1_555
Mo1 N2 1_555 1_555
H11 C1 1_555 1_555
H12 C4 1_555 1_555
H13 C5 1_555 1_555
H14 C6 1_555 1_555
H15 C7 1_555 1_555
H16 C10 1_555 1_555
H17 C11 1_555 1_555
H18 C13 1_555 1_555
N4A Mo1 1_555 1_555
Mo1A N4 1_555 1_555
N2 N3 1_555 1_555
O1 Mo1 1_555 1_555
O2 Mo1 1_555 1_555

#END
