
#######################################################################
#
#                 Cambridge Crystallographic Data Centre
#                                CCDC 
#
#######################################################################
#
# If this CIF has been generated from an entry in the Cambridge 
# Structural Database, then it will include bibliographic, chemical, 
# crystal, experimental, refinement or atomic coordinate data resulting 
# from the CCDC's data processing and validation procedures.
#
#######################################################################

data_AHEYIX
_symmetry_cell_setting           monoclinic
_symmetry_space_group_name_H-M   'P 21/c'
_symmetry_Int_Tables_number      14
_space_group_name_Hall           '-P 2ybc'
loop_
_symmetry_equiv_pos_site_id
_symmetry_equiv_pos_as_xyz
1 x,y,z
2 -x,1/2+y,1/2-z
3 -x,-y,-z
4 x,1/2-y,1/2+z
_cell_length_a                   25.5664(5)
_cell_length_b                   7.8961(2)
_cell_length_c                   26.2633(6)
_cell_angle_alpha                90
_cell_angle_beta                 93.625(2)
_cell_angle_gamma                90
_cell_volume                     5291.29
loop_
_atom_site_label
_atom_site_type_symbol
_atom_site_fract_x
_atom_site_fract_y
_atom_site_fract_z
Cd1 Cd 0.237383(12) -1.90666(5) 0.052740(13)
Cd2 Cd 0.267718(12) -1.53784(5) -0.045325(12)
C1 C 0.15845(18) -1.3796(7) -0.01013(18)
H1 H 0.1735 -1.3445 0.0213
C2 C 0.14769(19) -1.4818(8) -0.0852(2)
H2 H 0.1551 -1.5323 -0.1159
C3 C 0.06630(17) -1.2915(6) 0.00279(18)
C4 C 0.0759(2) -1.2248(8) 0.05097(19)
H3 H 0.1096 -1.2213 0.0666
C5 C 0.0336(2) -1.1638(9) 0.0749(2)
H4 H 0.0383 -1.1193 0.1076
C6 C -0.0159(2) -1.1681(8) 0.0505(2)
H5 H -0.0450 -1.1285 0.0663
C7 C -0.02017(18) -1.2341(7) 0.0015(2)
C8 C -0.11594(18) -1.1808(7) -0.0145(2)
H6 H -0.1220 -1.1379 0.0176
C9 C -0.1268(2) -1.2616(10) -0.0914(2)
H7 H -0.1426 -1.2851 -0.1235
C10 C 0.34777(18) -2.0528(6) 0.02042(19)
H8 H 0.3314 -2.0876 -0.0105
C11 C 0.36158(19) -1.9452(7) 0.0954(2)
H9 H 0.3557 -1.8915 0.1260
C12 C 0.43636(17) -2.1631(6) 0.00639(18)
C13 C 0.4237(2) -2.2244(7) -0.0416(2)
H10 H 0.3901 -2.2119 -0.0570
C14 C 0.4626(2) -2.3054(8) -0.0663(2)
H11 H 0.4555 -2.3487 -0.0990
C15 C 0.51182(19) -2.3223(7) -0.0429(2)
H12 H 0.5386 -2.3758 -0.0592
C16 C 0.52009(17) -2.2571(6) 0.00554(18)
C17 C 0.61192(18) -2.3496(7) 0.0179(2)
H13 H 0.6131 -2.4063 -0.0130
C18 C 0.6334(2) -2.2451(8) 0.0908(2)
H14 H 0.6533 -2.2157 0.1204
C19 C 0.0875(2) -2.3098(10) 0.2308(2)
C20 C 0.0876(2) -2.4437(9) 0.3144(2)
C21 C 0.1661(2) -2.4473(8) 0.2665(2)
C22 C 0.1662(2) -2.3152(8) 0.1825(2)
H15 H 0.1420 -2.3241 0.1527
H16 H 0.1947 -2.3943 0.1784
C23 C 0.1877(2) -2.1381(8) 0.1862(2)
H17 H 0.2149 -2.1343 0.2137
H18 H 0.1599 -2.0624 0.1952
C24 C 0.21013(18) -2.0734(7) 0.13835(19)
C25 C 0.0061(3) -2.3210(12) 0.2774(3)
H19 H -0.0053 -2.3720 0.3084
H20 H 0.0026 -2.1992 0.2807
C26 C -0.0278(3) -2.3759(16) 0.2358(4)
H21 H -0.0205 -2.4943 0.2294
H22 H -0.0193 -2.3128 0.2057
C27 C -0.0851(3) -2.3571(12) 0.2424(3)
C28 C 0.1673(2) -2.5759(8) 0.3518(2)
H23 H 0.1430 -2.6531 0.3666
H24 H 0.1950 -2.6428 0.3381
C29 C 0.1903(3) -2.4627(8) 0.3922(2)
H25 H 0.1629 -2.3907 0.4041
H26 H 0.2161 -2.3900 0.3776
C30 C 0.2163(2) -2.5559(7) 0.4373(2)
C31 C 0.4254(2) -1.4165(8) 0.1788(2)
C32 C 0.4259(2) -1.3746(10) 0.2707(2)
C33 C 0.3465(2) -1.3277(11) 0.2175(2)
C34 C 0.3452(2) -1.3580(8) 0.1254(2)
H27 H 0.3702 -1.3481 0.0993
H28 H 0.3237 -1.2566 0.1241
C35 C 0.3108(2) -1.5083(8) 0.11384(19)
H29 H 0.3305 -1.6108 0.1220
H30 H 0.2813 -1.5047 0.1353
C36 C 0.29091(19) -1.5143(6) 0.05921(18)
C37 C 0.5050(2) -1.4731(9) 0.2321(3)
H31 H 0.5077 -1.5772 0.2129
H32 H 0.5139 -1.4995 0.2677
C38 C 0.5445(2) -1.3499(10) 0.2144(3)
H33 H 0.5299 -1.2366 0.2149
H34 H 0.5518 -1.3763 0.1795
C39 C 0.5953(3) -1.3534(10) 0.2474(3)
C40 C 0.3375(4) -1.3326(12) 0.3150(4)
H35 H 0.3036 -1.3862 0.3085
H36 H 0.3556 -1.3799 0.3453
C41 C 0.3349(4) -1.1702(12) 0.3159(4)
H37 H 0.3155 -1.1245 0.2860
H38 H 0.3692 -1.1177 0.3200
C42 C 0.2994(2) -1.1540(12) 0.3719(3)
O1 O 0.20332(15) -2.1540(5) 0.09803(14)
O2 O 0.23416(14) -1.9328(6) 0.14124(13)
O3 O -0.1027(2) -2.2613(9) 0.2728(2)
O4 O -0.1131(2) -2.4532(9) 0.2109(2)
H39 H -0.1482 -2.4520 0.2116
O5 O 0.23268(19) -2.6982(6) 0.43033(19)
O6 O 0.21744(19) -2.4757(6) 0.47811(15)
O7 O 0.06523(17) -2.2251(8) 0.19757(18)
O8 O 0.06501(18) -2.4793(8) 0.35194(17)
O9 O 0.21109(16) -2.4911(7) 0.26321(17)
O10 O 0.30736(15) -1.4121(5) 0.02839(13)
O11 O 0.25884(15) -1.6285(5) 0.04511(14)
O12 O 0.6038(2) -1.4551(10) 0.2803(2)
O13 O 0.62976(19) -1.2474(7) 0.2323(2)
H40 H 0.6612 -1.2402 0.2496
O14 O 0.30853(17) -1.2341(7) 0.41140(19)
O15 O 0.27217(17) -1.0250(7) 0.36937(15)
O16 O 0.44830(19) -1.4579(7) 0.14232(16)
O17 O 0.44946(17) -1.3768(8) 0.31257(16)
O18 O 0.30080(17) -1.2934(10) 0.21280(18)
N1 N 0.18371(15) -1.4524(5) -0.04534(15)
N2 N 0.10705(15) -1.3613(6) -0.02523(15)
C43 C 0.1006(2) -1.4277(8) -0.0737(2)
H41 H 0.0696 -1.4336 -0.0942
N3 N 0.01955(14) -1.2967(6) -0.02196(15)
N4 N -0.06877(15) -1.2382(6) -0.02773(16)
C44 C -0.0761(2) -1.2904(10) -0.0771(2)
H42 H -0.0510 -1.3369 -0.0971
N5 N -0.15171(15) -1.1926(6) -0.05176(17)
N6 N 0.32432(15) -1.9726(5) 0.05632(16)
C45 C 0.40809(18) -2.0083(6) 0.0825(2)
H43 H 0.4397 -2.0053 0.1020
N7 N 0.39906(14) -2.0781(5) 0.03451(15)
N8 N 0.48364(14) -2.1783(5) 0.03029(15)
N9 N 0.56934(15) -2.2694(5) 0.03290(16)
C46 C 0.5833(2) -2.2021(8) 0.0804(2)
H44 H 0.5621 -2.1396 0.1010
N10 N 0.65117(15) -2.3391(6) 0.05135(17)
N11 N 0.13873(17) -2.3607(7) 0.22882(16)
N12 N 0.06255(18) -2.3626(8) 0.27285(19)
N13 N 0.13947(18) -2.4789(7) 0.30979(17)
N14 N 0.37416(17) -1.3674(6) 0.17593(15)
N15 N 0.45027(17) -1.4148(7) 0.22711(17)
N16 N 0.37401(19) -1.3341(10) 0.26406(18)
Cd1B Cd -0.237383(12) -1.09334(5) -0.052740(13)
Cd1C Cd 0.237383(12) -2.59334(5) 0.552740(13)
Cd2B Cd 0.732282(12) -2.46216(5) 0.045325(12)
Cd2C Cd 0.267718(12) -2.96216(5) 0.454675(12)
Cd2C_2 Cd 0.267718(12) -0.96216(5) 0.454675(12)
O5C O 0.23268(19) -1.8018(6) -0.06967(19)
O6C O 0.21744(19) -2.0243(6) -0.02189(15)
O14C O 0.30853(17) -1.2659(7) -0.08860(19)
O15C O 0.27217(17) -1.4750(7) -0.13063(15)
N5B N 0.15171(15) -1.8074(6) 0.05176(17)
N10B N 0.34883(15) -1.6609(6) -0.05135(17)
loop_
_geom_bond_atom_site_label_1
_geom_bond_atom_site_label_2
_geom_bond_site_symmetry_1
_geom_bond_site_symmetry_2
Cd1 O1 1_555 1_555
Cd2 O10 1_555 1_555
C1 H1 1_555 1_555
C2 H2 1_555 1_555
C3 C4 1_555 1_555
C4 H3 1_555 1_555
C5 C4 1_555 1_555
H4 C5 1_555 1_555
C6 C5 1_555 1_555
H5 C6 1_555 1_555
C7 C6 1_555 1_555
C8 H6 1_555 1_555
C9 H7 1_555 1_555
C10 H8 1_555 1_555
C11 H9 1_555 1_555
C12 C13 1_555 1_555
C13 H10 1_555 1_555
C14 C13 1_555 1_555
H11 C14 1_555 1_555
C15 C14 1_555 1_555
H12 C15 1_555 1_555
C16 C15 1_555 1_555
C17 H13 1_555 1_555
C18 H14 1_555 1_555
C19 O7 1_555 1_555
C20 O8 1_555 1_555
C21 O9 1_555 1_555
C22 H15 1_555 1_555
H16 C22 1_555 1_555
C23 C22 1_555 1_555
H17 C23 1_555 1_555
H18 C23 1_555 1_555
C24 C23 1_555 1_555
C25 H19 1_555 1_555
H20 C25 1_555 1_555
C26 C25 1_555 1_555
H21 C26 1_555 1_555
H22 C26 1_555 1_555
C27 C26 1_555 1_555
C28 H23 1_555 1_555
H24 C28 1_555 1_555
C29 C28 1_555 1_555
H25 C29 1_555 1_555
H26 C29 1_555 1_555
C30 C29 1_555 1_555
C31 O16 1_555 1_555
C32 O17 1_555 1_555
C33 O18 1_555 1_555
C34 H27 1_555 1_555
H28 C34 1_555 1_555
C35 C34 1_555 1_555
H29 C35 1_555 1_555
H30 C35 1_555 1_555
C36 C35 1_555 1_555
C37 H31 1_555 1_555
H32 C37 1_555 1_555
C38 C37 1_555 1_555
H33 C38 1_555 1_555
H34 C38 1_555 1_555
C39 C38 1_555 1_555
C40 H35 1_555 1_555
H36 C40 1_555 1_555
C41 C40 1_555 1_555
H37 C41 1_555 1_555
H38 C41 1_555 1_555
C42 C41 1_555 1_555
O1 C24 1_555 1_555
O2 Cd1 1_555 1_555
O3 C27 1_555 1_555
O4 C27 1_555 1_555
H39 O4 1_555 1_555
O5 C30 1_555 1_555
O6 C30 1_555 1_555
O10 C36 1_555 1_555
O11 Cd1 1_555 1_555
O12 C39 1_555 1_555
O13 C39 1_555 1_555
H40 O13 1_555 1_555
O14 C42 1_555 1_555
O15 C42 1_555 1_555
N1 Cd2 1_555 1_555
N2 C1 1_555 1_555
C43 C2 1_555 1_555
H41 C43 1_555 1_555
N3 C3 1_555 1_555
N4 C7 1_555 1_555
C44 C9 1_555 1_555
H42 C44 1_555 1_555
N5 C8 1_555 1_555
N6 Cd1 1_555 1_555
C45 C11 1_555 1_555
H43 C45 1_555 1_555
N7 C10 1_555 1_555
N8 C12 1_555 1_555
N9 C16 1_555 1_555
C46 C18 1_555 1_555
H44 C46 1_555 1_555
N10 C17 1_555 1_555
N11 C19 1_555 1_555
N12 C19 1_555 1_555
N13 C20 1_555 1_555
N14 C31 1_555 1_555
N15 C31 1_555 1_555
N16 C32 1_555 1_555
Cd1B N5 1_555 1_555
Cd1C O6 1_555 1_555
Cd2B N10 1_555 1_555
Cd2C O5 1_555 1_555
Cd2C_2 O14 1_555 1_555
O5C Cd2 1_555 1_555
O6C Cd1 1_555 1_555
O14C Cd2 1_555 1_555
O15C Cd2 1_555 1_555
N5B Cd1 1_555 1_555
N10B Cd2 1_555 1_555
Cd2 O11 1_555 1_555
C1 N1 1_555 1_555
C2 N1 1_555 1_555
C3 N2 1_555 1_555
C7 N3 1_555 1_555
C8 N4 1_555 1_555
C9 N5 1_555 1_555
C10 N6 1_555 1_555
C11 N6 1_555 1_555
C12 N7 1_555 1_555
C16 N8 1_555 1_555
C17 N9 1_555 1_555
C18 N10 1_555 1_555
C20 N12 1_555 1_555
C21 N11 1_555 1_555
C21 N13 1_555 1_555
C22 N11 1_555 1_555
C24 O2 1_555 1_555
C25 N12 1_555 1_555
C28 N13 1_555 1_555
C32 N15 1_555 1_555
C33 N14 1_555 1_555
C33 N16 1_555 1_555
C34 N14 1_555 1_555
C36 O11 1_555 1_555
C37 N15 1_555 1_555
C40 N16 1_555 1_555
O15 Cd2C_2 1_555 1_555
N2 C43 1_555 1_555
N4 C44 1_555 1_555
C45 N7 1_555 1_555
N9 C46 1_555 1_555

#END
