
#######################################################################
#
#                 Cambridge Crystallographic Data Centre
#                                CCDC 
#
#######################################################################
#
# If this CIF has been generated from an entry in the Cambridge 
# Structural Database, then it will include bibliographic, chemical, 
# crystal, experimental, refinement or atomic coordinate data resulting 
# from the CCDC's data processing and validation procedures.
#
#######################################################################

data_AHIDUQ
_symmetry_cell_setting           triclinic
_symmetry_space_group_name_H-M   'P -1'
_symmetry_Int_Tables_number      2
_space_group_name_Hall           '-P 1'
loop_
_symmetry_equiv_pos_site_id
_symmetry_equiv_pos_as_xyz
1 x,y,z
2 -x,-y,-z
_cell_length_a                   9.12890(10)
_cell_length_b                   10.0509(2)
_cell_length_c                   13.0946(2)
_cell_angle_alpha                108.6080(10)
_cell_angle_beta                 107.6770(10)
_cell_angle_gamma                93.5970(10)
_cell_volume                     1067.82
loop_
_atom_site_label
_atom_site_type_symbol
_atom_site_fract_x
_atom_site_fract_y
_atom_site_fract_z
Ag1 Ag 0.52842(3) 0.24976(2) 0.499932(18)
O1 O 0.4481(2) -0.09673(19) 0.84051(17)
O2 O -0.4331(2) 0.5948(2) 1.15781(18)
N1 N 0.5966(3) 0.1344(2) 0.61636(19)
N2 N 0.3731(3) 0.1171(2) 0.85566(19)
H1 H 0.3862 0.1970 0.8443
N3 N -0.5699(3) 0.3601(2) 1.38403(19)
N4 N -0.3611(3) 0.3797(2) 1.1404(2)
H2 H -0.3731 0.3007 1.1533
C1 C 0.7273(3) 0.0760(3) 0.6249(2)
H3 H 0.7872 0.0873 0.5802
C2 C 0.7761(3) 0.0009(3) 0.6967(3)
H4 H 0.8685 -0.0370 0.7016
C3 C 0.6879(3) -0.0182(3) 0.7613(2)
H5 H 0.7183 -0.0709 0.8096
C4 C 0.5528(3) 0.0417(3) 0.7541(2)
C5 C 0.5111(3) 0.1174(3) 0.6809(2)
H6 H 0.4205 0.1583 0.6760
C6 C 0.4524(3) 0.0153(3) 0.8207(2)
C7 C 0.2642(3) 0.0949(3) 0.9130(2)
H7 H 0.3229 0.0932 0.9888
H8 H 0.1950 0.0024 0.8682
C8 C 0.1669(3) 0.2121(3) 0.9266(2)
H9 H 0.1051 0.2114 0.8507
H10 H 0.2362 0.3049 0.9689
C9 C 0.0574(3) 0.1914(3) 0.9909(2)
H11 H -0.0049 0.0952 0.9517
H12 H 0.1205 0.1989 1.0685
C10 C -0.7083(3) 0.4059(3) 1.3708(2)
H13 H -0.7689 0.3874 1.4129
C11 C -0.7639(3) 0.4785(3) 1.2979(3)
H14 H -0.8602 0.5096 1.2914
C12 C -0.6770(3) 0.5053(3) 1.2346(2)
H15 H -0.7119 0.5565 1.1857
C13 C -0.5362(3) 0.4548(3) 1.2445(2)
C14 C -0.4863(3) 0.3844(3) 1.3209(2)
H16 H -0.3903 0.3524 1.3289
C15 C -0.4385(3) 0.4829(3) 1.1773(2)
C16 C -0.2566(3) 0.3980(3) 1.0789(3)
H17 H -0.1862 0.4902 1.1215
H18 H -0.3183 0.3985 1.0034
C17 C -0.1608(3) 0.2796(3) 1.0640(2)
H19 H -0.2311 0.1873 1.0216
H20 H -0.0986 0.2793 1.1394
C18 C -0.0526(3) 0.2995(3) 0.9993(2)
H21 H 0.0098 0.3958 1.0380
H22 H -0.1161 0.2917 0.9217
N3_2 N 0.4301(3) 0.3601(2) 0.38403(19)
Ag1_2 Ag -0.47158(3) 0.24976(2) 1.499932(18)
C19 C 1.0768(3) 0.2851(3) 0.5603(2)
F1 F 1.2034(2) 0.2325(3) 0.54669(19)
F2 F 1.1127(3) 0.4253(2) 0.5922(2)
F3 F 1.0533(2) 0.2578(2) 0.64737(16)
S1 S 0.90788(8) 0.21021(8) 0.42833(6)
O3 O 0.7886(3) 0.2801(3) 0.4627(2)
O4 O 0.8854(3) 0.0605(3) 0.4065(2)
O5 O 0.9558(3) 0.2527(3) 0.34708(19)
loop_
_geom_bond_atom_site_label_1
_geom_bond_atom_site_label_2
_geom_bond_site_symmetry_1
_geom_bond_site_symmetry_2
Ag1 N1 1_555 1_555
O1 C6 1_555 1_555
O2 C15 1_555 1_555
N1 C1 1_555 1_555
N2 H1 1_555 1_555
N3 C10 1_555 1_555
N4 H2 1_555 1_555
C1 H3 1_555 1_555
C2 C1 1_555 1_555
H4 C2 1_555 1_555
C3 C2 1_555 1_555
H5 C3 1_555 1_555
C4 C3 1_555 1_555
C5 N1 1_555 1_555
H6 C5 1_555 1_555
C6 N2 1_555 1_555
C7 N2 1_555 1_555
H7 C7 1_555 1_555
H8 C7 1_555 1_555
C8 C7 1_555 1_555
H9 C8 1_555 1_555
H10 C8 1_555 1_555
C9 C8 1_555 1_555
H11 C9 1_555 1_555
H12 C9 1_555 1_555
C10 H13 1_555 1_555
C11 C10 1_555 1_555
H14 C11 1_555 1_555
C12 C11 1_555 1_555
H15 C12 1_555 1_555
C13 C12 1_555 1_555
C14 N3 1_555 1_555
H16 C14 1_555 1_555
C15 N4 1_555 1_555
C16 N4 1_555 1_555
H17 C16 1_555 1_555
H18 C16 1_555 1_555
C17 C16 1_555 1_555
H19 C17 1_555 1_555
H20 C17 1_555 1_555
C18 C9 1_555 1_555
H21 C18 1_555 1_555
H22 C18 1_555 1_555
C19 F1 1_555 1_555
F2 C19 1_555 1_555
F3 C19 1_555 1_555
S1 C19 1_555 1_555
O3 S1 1_555 1_555
O4 S1 1_555 1_555
O5 S1 1_555 1_555
N3_2 Ag1 1_555 1_555
Ag1_2 N3 1_555 1_555
C4 C6 1_555 1_555
C4 C5 1_555 1_555
C13 C15 1_555 1_555
C13 C14 1_555 1_555
C17 C18 1_555 1_555

#END
