
#######################################################################
#
#                 Cambridge Crystallographic Data Centre
#                                CCDC 
#
#######################################################################
#
# If this CIF has been generated from an entry in the Cambridge 
# Structural Database, then it will include bibliographic, chemical, 
# crystal, experimental, refinement or atomic coordinate data resulting 
# from the CCDC's data processing and validation procedures.
#
#######################################################################

data_AHIDEA
_symmetry_cell_setting           trigonal
_symmetry_space_group_name_H-M   'P 32'
_symmetry_Int_Tables_number      145
_space_group_name_Hall           'P 32'
loop_
_symmetry_equiv_pos_site_id
_symmetry_equiv_pos_as_xyz
1 x,y,z
2 -y,x-y,2/3+z
3 -x+y,-x,1/3+z
_cell_length_a                   15.1300(2)
_cell_length_b                   15.1300(2)
_cell_length_c                   22.1343(5)
_cell_angle_alpha                90
_cell_angle_beta                 90
_cell_angle_gamma                120
_cell_volume                     4388.08
loop_
_atom_site_label
_atom_site_type_symbol
_atom_site_fract_x
_atom_site_fract_y
_atom_site_fract_z
Ag1 Ag 0.62300(4) 0.64491(4) 0.29385(3)
Ag2 Ag 0.99608(4) 0.30159(4) 1.04428(3)
O1 O 0.8759(5) 0.4439(4) 0.4450(3)
O2 O 0.7640(4) 0.5423(4) 0.9174(3)
O3 O 0.2035(4) 0.4208(6) 0.4765(3)
O4 O 0.4727(4) 0.5415(6) 0.9289(3)
O5 O 0.8791(5) 1.1261(5) 0.4049(3)
O6 O 0.8071(5) 0.8656(4) 0.8786(3)
O7 O 0.5713(7) 0.6114(5) 0.1847(3)
H1 H 0.6225 0.6279 0.1635
N1 N 0.7063(4) 0.5561(4) 0.3108(2)
N2 N 0.8480(4) 0.5684(4) 0.4789(2)
H2 H 0.8205 0.6058 0.4712
N3 N 0.8305(5) 0.4577(5) 0.8693(3)
H3 H 0.8716 0.4332 0.8717
N4 N 0.9374(4) 0.4147(3) 1.0386(2)
N5 N 0.4568(4) 0.5779(4) 0.3242(3)
N6 N 0.3659(4) 0.4905(5) 0.5076(3)
H4 H 0.4300 0.5238 0.4973
N7 N 0.3232(5) 0.4868(7) 0.8830(3)
H5 H 0.2579 0.4625 0.8872
N8 N 0.7340(4) 0.8155(4) 0.2930(3)
N9 N 0.7754(5) 0.9823(5) 0.4561(3)
H6 H 0.7367 0.9164 0.4540
N10 N 0.1687(5) 0.3697(4) 1.0486(3)
N11 N 0.8961(4) 1.1326(4) 1.0214(3)
N12 N 0.8919(5) 1.0267(4) 0.8434(3)
H7 H 0.9164 1.0911 0.8514
C1 C 0.7260(5) 0.5101(5) 0.2651(3)
H8 H 0.7001 0.5110 0.2266
C2 C 0.7812(6) 0.4625(6) 0.2712(3)
H9 H 0.7939 0.4324 0.2377
C3 C 0.8190(5) 0.4588(5) 0.3283(3)
H10 H 0.8566 0.4253 0.3339
C4 C 0.8000(5) 0.5054(5) 0.3763(3)
C5 C 0.7430(4) 0.5532(4) 0.3659(3)
H11 H 0.7295 0.5845 0.3985
C6 C 0.8446(5) 0.5038(5) 0.4377(3)
C7 C 0.8978(5) 0.5781(5) 0.5380(3)
H12 H 0.9462 0.6504 0.5458
H13 H 0.9367 0.5423 0.5361
C8 C 0.8243(5) 0.5362(5) 0.5893(3)
H14 H 0.7734 0.4649 0.5810
H15 H 0.7886 0.5750 0.5934
C9 C 0.8804(5) 0.5426(5) 0.6485(3)
H16 H 0.9161 0.5038 0.6439
H17 H 0.9319 0.6140 0.6562
C10 C 0.8088(5) 0.5012(5) 0.7027(3)
H18 H 0.7567 0.4303 0.6944
H19 H 0.7740 0.5407 0.7073
C11 C 0.8619(5) 0.5048(5) 0.7621(3)
H20 H 0.9010 0.4696 0.7573
H21 H 0.9094 0.5759 0.7731
C12 C 0.7833(5) 0.4541(6) 0.8114(3)
H22 H 0.7431 0.4884 0.8151
H23 H 0.7366 0.3827 0.8004
C13 C 0.8137(5) 0.4963(5) 0.9179(3)
C14 C 0.9124(5) 0.4484(5) 1.0876(3)
H24 H 0.9314 0.4356 1.1257
C15 C 0.8612(6) 0.5001(6) 1.0854(3)
H25 H 0.8473 0.5243 1.1212
C16 C 0.8289(5) 0.5175(5) 1.0301(3)
H26 H 0.7919 0.5522 1.0279
C17 C 0.8531(5) 0.4821(5) 0.9779(3)
C18 C 0.9079(4) 0.4324(4) 0.9848(3)
H27 H 0.9258 0.4096 0.9498
C19 C 0.3823(7) 0.5511(6) 0.2831(4)
H28 H 0.4000 0.5672 0.2423
C20 C 0.2788(7) 0.4996(7) 0.2995(5)
H29 H 0.2278 0.4825 0.2701
C21 C 0.2535(6) 0.4752(6) 0.3582(5)
H30 H 0.1845 0.4402 0.3697
C22 C 0.3292(5) 0.5015(5) 0.4017(4)
C23 C 0.4304(5) 0.5538(5) 0.3816(4)
H31 H 0.4826 0.5729 0.4104
C24 C 0.2984(6) 0.4703(6) 0.4663(4)
C25 C 0.3408(6) 0.4610(5) 0.5696(4)
H32 H 0.3699 0.4183 0.5811
H33 H 0.2665 0.4192 0.5732
C26 C 0.3775(5) 0.5476(5) 0.6133(4)
H34 H 0.3534 0.5938 0.6000
H35 H 0.4523 0.5860 0.6127
C27 C 0.3414(5) 0.5137(6) 0.6787(4)
H36 H 0.2666 0.4769 0.6792
H37 H 0.3634 0.4655 0.6911
C28 C 0.3792(6) 0.5981(6) 0.7247(4)
H38 H 0.3663 0.6509 0.7085
H39 H 0.4535 0.6284 0.7274
C29 C 0.3360(7) 0.5745(7) 0.7913(5)
H40 H 0.3605 0.6387 0.8134
H41 H 0.2613 0.5395 0.7902
C30 C 0.3675(8) 0.5124(11) 0.8217(5)
H42 H 0.4422 0.5486 0.8245
H43 H 0.3456 0.4495 0.7987
C31 C 0.3774(6) 0.4990(6) 0.9304(4)
C32 C 0.7779(5) 0.8694(6) 0.2433(4)
H44 H 0.7680 0.8341 0.2067
C33 C 0.8369(6) 0.9739(6) 0.2428(4)
H45 H 0.8679 1.0086 0.2069
C34 C 0.8501(6) 1.0268(6) 0.2951(4)
H46 H 0.8874 1.0985 0.2946
C35 C 0.8091(5) 0.9758(5) 0.3493(4)
C36 C 0.7503(5) 0.8682(5) 0.3447(3)
H47 H 0.7205 0.8310 0.3802
C37 C 0.8253(6) 1.0335(6) 0.4060(4)
C38 C 0.7832(7) 1.0324(6) 0.5136(4)
H48 H 0.7151 1.0181 0.5262
H49 H 0.8261 1.1064 0.5086
C39 C 0.8277(5) 0.9970(5) 0.5620(3)
H50 H 0.7870 0.9225 0.5653
H51 H 0.8972 1.0148 0.5505
C40 C 0.8305(5) 1.0435(5) 0.6223(3)
H52 H 0.7615 1.0285 0.6328
H53 H 0.8738 1.1178 0.6193
C41 C 0.8704(5) 1.0049(5) 0.6718(3)
H54 H 0.9413 1.0248 0.6626
H55 H 0.8306 0.9302 0.6723
C42 C 0.8663(5) 1.0445(5) 0.7345(3)
H56 H 0.9101 1.1189 0.7356
H57 H 0.7962 1.0282 0.7434
C43 C 0.9017(5) 0.9963(5) 0.7821(3)
H58 H 0.8611 0.9218 0.7787
H59 H 0.9732 1.0167 0.7746
C44 C 0.2188(5) 0.4035(5) 0.9957(4)
H60 H 0.1800 0.3868 0.9601
C45 C 0.3250(5) 0.4618(5) 0.9908(4)
C46 C 0.3819(6) 0.4854(6) 1.0432(5)
H61 H 0.4535 0.5248 1.0418
C47 C 0.3323(7) 0.4506(6) 1.0972(5)
H62 H 0.3693 0.4646 1.1335
C48 C 0.2290(6) 0.3957(5) 1.0975(4)
H63 H 0.1968 0.3738 1.1353
C49 C 0.8474(5) 1.0629(6) 1.0647(3)
H64 H 0.8483 1.0851 1.1045
C50 C 0.7952(6) 0.9574(6) 1.0525(4)
H65 H 0.7613 0.9099 1.0836
C51 C 0.7945(5) 0.9258(5) 0.9953(3)
H66 H 0.7598 0.8556 0.9864
C52 C 0.8455(4) 0.9971(5) 0.9491(3)
C53 C 0.8947(4) 1.0988(5) 0.9650(3)
H67 H 0.9294 1.1475 0.9346
C54 C 0.8463(5) 0.9580(5) 0.8874(3)
N10_2 N 1.1687(5) 0.3697(4) 1.0486(3)
N11_2 N 0.8961(4) 0.1326(4) 1.0214(3)
Ag2_2 Ag -0.00392(4) 0.30159(4) 1.04428(3)
Ag2_3 Ag 0.99608(4) 1.30159(4) 1.04428(3)
Cl1 Cl 0.66659(12) 0.68523(11) 0.51282(7)
O8 O 0.5909(3) 0.5791(3) 0.4982(2)
O9 O 0.6399(5) 0.7558(4) 0.4838(4)
O10 O 0.7684(3) 0.7066(4) 0.4940(2)
O11 O 0.6720(4) 0.6974(5) 0.5804(2)
O12 O 0.9343(7) 0.2567(7) 1.1608(3)
O13 O 0.6646(7) 0.6493(6) 0.9932(7)
H68 H 0.6765 0.6018 0.9774
H69 H 0.6369 0.6606 0.9602
O14 O 0.7125(8) 0.6086(10) 0.1294(6)
H70 H 0.6697 0.6170 0.1043
H71 H 0.7710 0.6579 0.1125
loop_
_geom_bond_atom_site_label_1
_geom_bond_atom_site_label_2
_geom_bond_site_symmetry_1
_geom_bond_site_symmetry_2
Ag1 O7 1_555 1_555
Ag2 N4 1_555 1_555
O1 C6 1_555 1_555
O2 C13 1_555 1_555
O3 C24 1_555 1_555
O4 C31 1_555 1_555
O5 C37 1_555 1_555
O6 C54 1_555 1_555
O7 H1 1_555 1_555
N1 Ag1 1_555 1_555
N2 H2 1_555 1_555
N3 H3 1_555 1_555
N4 C14 1_555 1_555
N5 Ag1 1_555 1_555
N6 H4 1_555 1_555
N7 H5 1_555 1_555
N8 Ag1 1_555 1_555
N9 H6 1_555 1_555
N10 C44 1_555 1_555
N11 C49 1_555 1_555
N12 H7 1_555 1_555
C1 N1 1_555 1_555
H8 C1 1_555 1_555
C2 C1 1_555 1_555
H9 C2 1_555 1_555
C3 C2 1_555 1_555
H10 C3 1_555 1_555
C4 C3 1_555 1_555
C5 N1 1_555 1_555
H11 C5 1_555 1_555
C6 N2 1_555 1_555
C7 N2 1_555 1_555
H12 C7 1_555 1_555
H13 C7 1_555 1_555
C8 C7 1_555 1_555
H14 C8 1_555 1_555
H15 C8 1_555 1_555
C9 C8 1_555 1_555
H16 C9 1_555 1_555
H17 C9 1_555 1_555
C10 C9 1_555 1_555
H18 C10 1_555 1_555
H19 C10 1_555 1_555
C11 C10 1_555 1_555
H20 C11 1_555 1_555
H21 C11 1_555 1_555
C12 N3 1_555 1_555
H22 C12 1_555 1_555
H23 C12 1_555 1_555
C13 N3 1_555 1_555
C14 H24 1_555 1_555
C15 C14 1_555 1_555
H25 C15 1_555 1_555
C16 C15 1_555 1_555
H26 C16 1_555 1_555
C17 C13 1_555 1_555
C18 N4 1_555 1_555
H27 C18 1_555 1_555
C19 N5 1_555 1_555
H28 C19 1_555 1_555
C20 C19 1_555 1_555
H29 C20 1_555 1_555
C21 C20 1_555 1_555
H30 C21 1_555 1_555
C22 C21 1_555 1_555
C23 N5 1_555 1_555
H31 C23 1_555 1_555
C24 N6 1_555 1_555
C25 N6 1_555 1_555
H32 C25 1_555 1_555
H33 C25 1_555 1_555
C26 C25 1_555 1_555
H34 C26 1_555 1_555
H35 C26 1_555 1_555
C27 C26 1_555 1_555
H36 C27 1_555 1_555
H37 C27 1_555 1_555
C28 C27 1_555 1_555
H38 C28 1_555 1_555
H39 C28 1_555 1_555
C29 C28 1_555 1_555
H40 C29 1_555 1_555
H41 C29 1_555 1_555
C30 N7 1_555 1_555
H42 C30 1_555 1_555
H43 C30 1_555 1_555
C31 N7 1_555 1_555
C32 N8 1_555 1_555
H44 C32 1_555 1_555
C33 C32 1_555 1_555
H45 C33 1_555 1_555
C34 C33 1_555 1_555
H46 C34 1_555 1_555
C35 C34 1_555 1_555
C36 N8 1_555 1_555
H47 C36 1_555 1_555
C37 N9 1_555 1_555
C38 N9 1_555 1_555
H48 C38 1_555 1_555
H49 C38 1_555 1_555
C39 C38 1_555 1_555
H50 C39 1_555 1_555
H51 C39 1_555 1_555
C40 C39 1_555 1_555
H52 C40 1_555 1_555
H53 C40 1_555 1_555
C41 C40 1_555 1_555
H54 C41 1_555 1_555
H55 C41 1_555 1_555
C42 C41 1_555 1_555
H56 C42 1_555 1_555
H57 C42 1_555 1_555
C43 N12 1_555 1_555
H58 C43 1_555 1_555
H59 C43 1_555 1_555
C44 H60 1_555 1_555
C45 C31 1_555 1_555
C46 C45 1_555 1_555
H61 C46 1_555 1_555
C47 C46 1_555 1_555
H62 C47 1_555 1_555
C48 N10 1_555 1_555
H63 C48 1_555 1_555
C49 H64 1_555 1_555
C50 C49 1_555 1_555
H65 C50 1_555 1_555
C51 C50 1_555 1_555
H66 C51 1_555 1_555
C52 C51 1_555 1_555
C53 N11 1_555 1_555
H67 C53 1_555 1_555
C54 N12 1_555 1_555
Cl1 O8 1_555 1_555
O9 Cl1 1_555 1_555
O10 Cl1 1_555 1_555
O11 Cl1 1_555 1_555
O13 H68 1_555 1_555
H69 O13 1_555 1_555
O14 H70 1_555 1_555
H71 O14 1_555 1_555
N10_2 Ag2 1_555 1_555
N11_2 Ag2 1_555 1_555
Ag2_2 N10 1_555 1_555
Ag2_3 N11 1_555 1_555
C4 C6 1_555 1_555
C4 C5 1_555 1_555
C11 C12 1_555 1_555
C16 C17 1_555 1_555
C17 C18 1_555 1_555
C22 C24 1_555 1_555
C22 C23 1_555 1_555
C29 C30 1_555 1_555
C35 C37 1_555 1_555
C35 C36 1_555 1_555
C42 C43 1_555 1_555
C44 C45 1_555 1_555
C47 C48 1_555 1_555
C52 C54 1_555 1_555
C52 C53 1_555 1_555

#END
