
#######################################################################
#
#                 Cambridge Crystallographic Data Centre
#                                CCDC 
#
#######################################################################
#
# If this CIF has been generated from an entry in the Cambridge 
# Structural Database, then it will include bibliographic, chemical, 
# crystal, experimental, refinement or atomic coordinate data resulting 
# from the CCDC's data processing and validation procedures.
#
#######################################################################

data_AHIDIE
_symmetry_cell_setting           monoclinic
_symmetry_space_group_name_H-M   'C 2/c'
_symmetry_Int_Tables_number      15
_space_group_name_Hall           '-C 2yn'
loop_
_symmetry_equiv_pos_site_id
_symmetry_equiv_pos_as_xyz
1 x,y,z
2 1/2+x,1/2+y,z
3 x,-y,1/2+z
4 1/2+x,1/2-y,1/2+z
5 -x,-y,-z
6 1/2-x,1/2-y,-z
7 -x,y,1/2-z
8 1/2-x,1/2+y,1/2-z
_cell_length_a                   26.502(2)
_cell_length_b                   5.1431(4)
_cell_length_c                   44.366(3)
_cell_angle_alpha                90
_cell_angle_beta                 94.348(2)
_cell_angle_gamma                90
_cell_volume                     6029.79
loop_
_atom_site_label
_atom_site_type_symbol
_atom_site_fract_x
_atom_site_fract_y
_atom_site_fract_z
Ag1 Ag 0.5000 0.5000 0.0000
Ag2 Ag 1.003771(14) -0.08147(8) 0.332400(9)
C1 C 0.55618(18) 0.9702(9) -0.02636(10)
H1 H 0.5358 0.9294 -0.0440
C2 C 0.58763(17) 1.1826(10) -0.02669(10)
H2 H 0.5888 1.2843 -0.0442
C3 C 0.61738(16) 1.2436(9) -0.00088(10)
H3 H 0.6385 1.3905 -0.0004
C4 C 0.61594(16) 1.0865(8) 0.02451(10)
C5 C 0.58335(16) 0.8769(9) 0.02316(10)
H4 H 0.5819 0.7706 0.0403
C6 C 0.64837(16) 1.1575(8) 0.05274(9)
C7 C 0.69197(19) 1.0124(9) 0.10010(10)
H5 H 0.6752 1.1464 0.1115
H6 H 0.7253 1.0789 0.0957
C8 C 0.69880(17) 0.7712(9) 0.11927(10)
H7 H 0.7122 0.6306 0.1073
H8 H 0.6659 0.7158 0.1258
C9 C 0.73522(17) 0.8234(9) 0.14707(10)
H9 H 0.7682 0.8727 0.1403
H10 H 0.7225 0.9711 0.1582
C10 C 0.74235(18) 0.5921(9) 0.16851(10)
H11 H 0.7556 0.4449 0.1575
H12 H 0.7093 0.5411 0.1751
C11 C 0.77829(18) 0.6488(9) 0.19635(10)
H13 H 0.8114 0.6993 0.1898
H14 H 0.7651 0.7953 0.2075
C12 C 0.78465(17) 0.4173(9) 0.21706(10)
H15 H 0.7516 0.3699 0.2240
H16 H 0.7969 0.2695 0.2057
C13 C 0.84051(16) 0.2714(8) 0.26002(10)
C14 C 0.93388(17) 0.4052(9) 0.33979(10)
H17 H 0.9541 0.4266 0.3580
C15 C 0.89626(18) 0.5830(9) 0.33258(10)
H18 H 0.8912 0.7240 0.3455
C16 C 0.86575(17) 0.5524(9) 0.30602(10)
H19 H 0.8402 0.6741 0.3005
C17 C 0.87347(16) 0.3394(8) 0.28776(9)
C18 C 0.91273(16) 0.1701(9) 0.29658(10)
H20 H 0.9183 0.0266 0.2841
C19 C 1.06675(18) -0.5523(9) 0.31495(10)
H21 H 1.0471 -0.5246 0.2967
C20 C 1.10066(18) -0.7563(10) 0.31665(10)
H22 H 1.1042 -0.8643 0.2998
C21 C 1.12894(17) -0.7983(9) 0.34320(10)
H23 H 1.1521 -0.9369 0.3449
C22 C 1.12352(16) -0.6361(8) 0.36774(9)
C23 C 1.08902(16) -0.4337(9) 0.36447(10)
H24 H 1.0853 -0.3223 0.3809
C24 C 1.15516(16) -0.6952(8) 0.39664(9)
C25 C 1.20397(17) -0.5425(8) 0.44160(9)
H25 H 1.2375 -0.5935 0.4357
H26 H 1.1905 -0.6872 0.4529
C26 C 1.20951(17) -0.3081(9) 0.46184(10)
H27 H 1.1763 -0.2578 0.4682
H28 H 1.2229 -0.1623 0.4507
C27 C 1.24513(18) -0.3662(8) 0.48966(10)
H29 H 1.2307 -0.5070 0.5011
H30 H 1.2775 -0.4277 0.4830
N1 N 0.55340(14) 0.8190(7) -0.00194(8)
N2 N 0.66193(14) 0.9631(7) 0.07161(8)
H31 H 0.6528 0.8049 0.0669
N3 N 0.82001(14) 0.4665(7) 0.24337(8)
H32 H 0.8279 0.6260 0.2483
N4 N 0.94308(14) 0.2010(7) 0.32193(8)
N5 N 1.06054(14) -0.3914(7) 0.33829(9)
N6 N 1.17043(14) -0.4965(7) 0.41423(8)
H33 H 1.1606 -0.3393 0.4095
O1 O 0.66194(12) 1.3829(6) 0.05720(7)
O2 O 0.83221(13) 0.0414(6) 0.25313(8)
O3 O 1.16706(13) -0.9220(6) 0.40260(7)
C27E C 1.25487(18) -0.1338(8) 0.51034(10)
C26E C 1.29049(17) -0.1919(9) 0.53816(10)
C25E C 1.29603(17) 0.0425(8) 0.55840(9)
H25E H 1.2625 0.0935 0.5643
H26E H 1.3095 0.1872 0.5471
N6E N 1.32957(14) -0.0035(7) 0.58577(8)
C24E C 1.34484(16) 0.1952(8) 0.60336(9)
C22E C 1.37648(16) 0.1361(8) 0.63226(9)
C21E C 1.37106(17) 0.2983(9) 0.65680(10)
C20E C 1.39934(18) 0.2563(10) 0.68335(10)
C19E C 1.43325(18) 0.0523(9) 0.68505(10)
H21E H 1.4529 0.0246 0.7033
N5E N 1.43946(14) -0.1086(7) 0.66171(9)
C23E C 1.41098(16) -0.0663(9) 0.63553(10)
H24E H 1.4147 -0.1777 0.6191
H22E H 1.3958 0.3643 0.7002
H23E H 1.3479 0.4369 0.6551
O3E O 1.33294(13) 0.4220(6) 0.59740(7)
H33E H 1.3394 -0.1607 0.5905
H27E H 1.3237 -0.2422 0.5318
H28E H 1.2771 -0.3377 0.5493
H29E H 1.2693 0.0070 0.4989
H30E H 1.2225 -0.0723 0.5170
C1D C 0.44382(18) 0.0298(9) 0.02636(10)
H1D H 0.4642 0.0706 0.0440
C2D C 0.41237(17) -0.1826(10) 0.02669(10)
H2D H 0.4112 -0.2843 0.0442
C3D C 0.38262(16) -0.2436(9) 0.00088(10)
H3D H 0.3615 -0.3905 0.0004
C4D C 0.38406(16) -0.0865(8) -0.02451(10)
C5D C 0.41665(16) 0.1231(9) -0.02316(10)
H4D H 0.4181 0.2294 -0.0403
C6D C 0.35163(16) -0.1575(8) -0.05274(9)
C7D C 0.30803(19) -0.0124(9) -0.10010(10)
H5D H 0.3248 -0.1464 -0.1115
H6D H 0.2747 -0.0789 -0.0957
C8D C 0.30120(17) 0.2288(9) -0.11927(10)
H7D H 0.2878 0.3694 -0.1073
H8D H 0.3341 0.2842 -0.1258
C9D C 0.26478(17) 0.1766(9) -0.14707(10)
H9D H 0.2318 0.1273 -0.1403
H10D H 0.2775 0.0289 -0.1582
C10D C 0.25765(18) 0.4079(9) -0.16851(10)
H11D H 0.2444 0.5551 -0.1575
H12D H 0.2907 0.4589 -0.1751
C11D C 0.22171(18) 0.3512(9) -0.19635(10)
H13D H 0.1886 0.3007 -0.1898
H14D H 0.2349 0.2047 -0.2075
C12D C 0.21535(17) 0.5827(9) -0.21706(10)
H15D H 0.2484 0.6301 -0.2240
H16D H 0.2031 0.7305 -0.2057
C13D C 0.15949(16) 0.7286(8) -0.26002(10)
C14D C 0.06612(17) 0.5948(9) -0.33979(10)
H17D H 0.0459 0.5734 -0.3580
C15D C 0.10374(18) 0.4170(9) -0.33258(10)
H18D H 0.1088 0.2760 -0.3455
C16D C 0.13425(17) 0.4476(9) -0.30602(10)
H19D H 0.1598 0.3259 -0.3005
C17D C 0.12653(16) 0.6606(8) -0.28776(9)
C18D C 0.08727(16) 0.8299(9) -0.29658(10)
H20D H 0.0817 0.9734 -0.2841
N1D N 0.44660(14) 0.1810(7) 0.00194(8)
N2D N 0.33807(14) 0.0369(7) -0.07161(8)
H31D H 0.3472 0.1951 -0.0669
N3D N 0.17999(14) 0.5335(7) -0.24337(8)
H32D H 0.1721 0.3740 -0.2483
N4D N 0.05692(14) 0.7990(7) -0.32193(8)
O1D O 0.33806(12) -0.3829(6) -0.05720(7)
O2D O 0.16779(13) 0.9586(6) -0.25313(8)
Ag2D Ag -0.003771(14) 1.08147(8) -0.332400(9)
Ag2E Ag 1.496229(14) -0.41853(8) 0.667600(9)
N5D N -0.06054(14) 1.3914(7) -0.33829(9)
Cl1 Cl 0.51910(8) 0.4935(4) 0.08956(3)
O4 O 0.5242(4) 0.784(2) 0.0874(3)
O5 O 0.5453(5) 0.393(2) 0.1131(3)
O6 O 0.4642(5) 0.458(3) 0.0885(3)
O7 O 0.5322(3) 0.3936(15) 0.06017(17)
Cl2 Cl 0.5000 0.3169(3) 0.2500
O12 O 0.46951(19) 0.4758(10) 0.23050(10)
O13 O 0.53074(16) 0.1570(8) 0.23245(10)
O12F O 0.53049(19) 0.4758(10) 0.26950(10)
O13F O 0.46926(16) 0.1570(8) 0.26755(10)
O8? O 0.5103(8) 0.221(5) 0.0996(5)
O9? O 0.5709(5) 0.530(2) 0.1036(3)
O10? O 0.4818(5) 0.576(3) 0.1071(3)
O11? O 0.5143(4) 0.491(2) 0.0605(2)
loop_
_geom_bond_atom_site_label_1
_geom_bond_atom_site_label_2
_geom_bond_site_symmetry_1
_geom_bond_site_symmetry_2
Ag1 N1 1_555 1_555
Ag2 N4 1_555 1_555
C1 H1 1_555 1_555
C2 C1 1_555 1_555
H2 C2 1_555 1_555
C3 C2 1_555 1_555
H3 C3 1_555 1_555
C4 C3 1_555 1_555
C5 C4 1_555 1_555
H4 C5 1_555 1_555
C6 C4 1_555 1_555
C7 H5 1_555 1_555
H6 C7 1_555 1_555
C8 C7 1_555 1_555
H7 C8 1_555 1_555
H8 C8 1_555 1_555
C9 C8 1_555 1_555
H9 C9 1_555 1_555
H10 C9 1_555 1_555
C10 C9 1_555 1_555
H11 C10 1_555 1_555
H12 C10 1_555 1_555
C11 C10 1_555 1_555
H13 C11 1_555 1_555
H14 C11 1_555 1_555
C12 C11 1_555 1_555
H15 C12 1_555 1_555
H16 C12 1_555 1_555
C13 C17 1_555 1_555
C14 H17 1_555 1_555
C15 C14 1_555 1_555
H18 C15 1_555 1_555
C16 C15 1_555 1_555
H19 C16 1_555 1_555
C17 C16 1_555 1_555
C18 C17 1_555 1_555
H20 C18 1_555 1_555
C19 H21 1_555 1_555
C20 C19 1_555 1_555
H22 C20 1_555 1_555
C21 C20 1_555 1_555
H23 C21 1_555 1_555
C22 C21 1_555 1_555
C23 C22 1_555 1_555
H24 C23 1_555 1_555
C24 C22 1_555 1_555
C25 H25 1_555 1_555
H26 C25 1_555 1_555
C26 C25 1_555 1_555
H27 C26 1_555 1_555
H28 C26 1_555 1_555
C27 C26 1_555 1_555
H29 C27 1_555 1_555
H30 C27 1_555 1_555
N1 C1 1_555 1_555
N2 C6 1_555 1_555
H31 N2 1_555 1_555
N3 C12 1_555 1_555
H32 N3 1_555 1_555
N4 C14 1_555 1_555
N5 Ag2 1_555 1_555
N6 C24 1_555 1_555
H33 N6 1_555 1_555
O1 C6 1_555 1_555
O2 C13 1_555 1_555
O3 C24 1_555 1_555
Cl1 O4 1_555 1_555
O5 Cl1 1_555 1_555
O6 Cl1 1_555 1_555
O7 Cl1 1_555 1_555
Cl2 O12 1_555 1_555
O13 Cl2 1_555 1_555
C27E C27 1_555 1_555
C26E C27E 1_555 1_555
C25E C26E 1_555 1_555
H25E C25E 1_555 1_555
H26E C25E 1_555 1_555
N6E C25E 1_555 1_555
C24E N6E 1_555 1_555
C22E C24E 1_555 1_555
C21E C22E 1_555 1_555
C20E C21E 1_555 1_555
C19E C20E 1_555 1_555
H21E C19E 1_555 1_555
N5E C19E 1_555 1_555
C23E C22E 1_555 1_555
H24E C23E 1_555 1_555
H22E C20E 1_555 1_555
H23E C21E 1_555 1_555
O3E C24E 1_555 1_555
H33E N6E 1_555 1_555
H27E C26E 1_555 1_555
H28E C26E 1_555 1_555
H29E C27E 1_555 1_555
H30E C27E 1_555 1_555
O12F Cl2 1_555 1_555
O13F Cl2 1_555 1_555
C1D H1D 1_555 1_555
C2D C1D 1_555 1_555
H2D C2D 1_555 1_555
C3D C2D 1_555 1_555
H3D C3D 1_555 1_555
C4D C3D 1_555 1_555
C5D C4D 1_555 1_555
H4D C5D 1_555 1_555
C6D C4D 1_555 1_555
C7D H5D 1_555 1_555
H6D C7D 1_555 1_555
C8D C7D 1_555 1_555
H7D C8D 1_555 1_555
H8D C8D 1_555 1_555
C9D C8D 1_555 1_555
H9D C9D 1_555 1_555
H10D C9D 1_555 1_555
C10D C9D 1_555 1_555
H11D C10D 1_555 1_555
H12D C10D 1_555 1_555
C11D C10D 1_555 1_555
H13D C11D 1_555 1_555
H14D C11D 1_555 1_555
C12D C11D 1_555 1_555
H15D C12D 1_555 1_555
H16D C12D 1_555 1_555
C13D C17D 1_555 1_555
C14D H17D 1_555 1_555
C15D C14D 1_555 1_555
H18D C15D 1_555 1_555
C16D C15D 1_555 1_555
H19D C16D 1_555 1_555
C17D C16D 1_555 1_555
C18D C17D 1_555 1_555
H20D C18D 1_555 1_555
N1D Ag1 1_555 1_555
N2D C6D 1_555 1_555
H31D N2D 1_555 1_555
N3D C12D 1_555 1_555
H32D N3D 1_555 1_555
N4D C14D 1_555 1_555
O1D C6D 1_555 1_555
O2D C13D 1_555 1_555
Ag2D N4D 1_555 1_555
Ag2E N5E 1_555 1_555
N5D Ag2D 1_555 1_555
C5 N1 1_555 1_555
C7 N2 1_555 1_555
C13 N3 1_555 1_555
C18 N4 1_555 1_555
C19 N5 1_555 1_555
C23 N5 1_555 1_555
C25 N6 1_555 1_555
N5E C23E 1_555 1_555
C1D N1D 1_555 1_555
C5D N1D 1_555 1_555
C7D N2D 1_555 1_555
C13D N3D 1_555 1_555
C18D N4D 1_555 1_555

#END
