
#######################################################################
#
#                 Cambridge Crystallographic Data Centre
#                                CCDC 
#
#######################################################################
#
# If this CIF has been generated from an entry in the Cambridge 
# Structural Database, then it will include bibliographic, chemical, 
# crystal, experimental, refinement or atomic coordinate data resulting 
# from the CCDC's data processing and validation procedures.
#
#######################################################################

data_AHIGUV
_symmetry_cell_setting           monoclinic
_symmetry_space_group_name_H-M   'P 21/c'
_symmetry_Int_Tables_number      14
_space_group_name_Hall           '-P 2ybc'
loop_
_symmetry_equiv_pos_site_id
_symmetry_equiv_pos_as_xyz
1 x,y,z
2 -x,1/2+y,1/2-z
3 -x,-y,-z
4 x,1/2-y,1/2+z
_cell_length_a                   19.743(5)
_cell_length_b                   12.197(3)
_cell_length_c                   14.509(4)
_cell_angle_alpha                90
_cell_angle_beta                 108.445(3)
_cell_angle_gamma                90
_cell_volume                     3314.36
loop_
_atom_site_label
_atom_site_type_symbol
_atom_site_fract_x
_atom_site_fract_y
_atom_site_fract_z
Pt1 Pt 0.19256(2) -0.05933(2) 0.24944(2)
Pt2 Pt 0.22489(2) 0.13801(2) 0.11572(2)
K1 K -0.02280(11) 0.0948(2) 0.14252(16)
K2 K 0.03890(11) 0.24060(16) -0.10577(15)
O1 O -0.0793(4) 0.3798(7) -0.1898(6)
O2 O -0.1537(3) 0.2365(5) 0.1120(5)
O3 O -0.0094(5) 0.1621(9) -0.2893(6)
N1 N 0.0951(4) 0.0826(6) 0.3309(6)
N2 N 0.1399(4) 0.0497(7) -0.0884(6)
N3 N 0.0846(4) 0.2700(6) 0.1086(5)
N4 N 0.0581(4) -0.1062(7) 0.0630(6)
N5 N 0.2873(3) 0.1990(5) 0.2478(4)
N6 N 0.2628(4) -0.1554(5) 0.2067(5)
C1 C 0.2465(5) -0.2097(7) 0.1210(6)
C2 C 0.2967(5) -0.2751(6) 0.0977(6)
C3 C 0.3634(5) -0.2839(7) 0.1649(7)
C4 C 0.3816(4) -0.2288(6) 0.2516(6)
C5 C 0.3298(4) -0.1621(6) 0.2712(6)
C6 C 0.3406(4) -0.0975(6) 0.3596(5)
C7 C 0.4064(4) -0.0883(6) 0.4322(6)
C8 C 0.4144(4) -0.0246(6) 0.5146(6)
C9 C 0.3539(4) 0.0326(6) 0.5232(6)
C10 C 0.2889(4) 0.0234(6) 0.4502(6)
C11 C 0.2801(4) -0.0393(6) 0.3665(6)
C12 C 0.3616(5) 0.0993(8) 0.6121(7)
C13 C 0.1328(4) 0.0304(7) 0.3011(6)
C14 C 0.1076(4) -0.0887(7) 0.1305(6)
C15 C 0.2618(4) 0.2586(6) 0.3066(6)
C16 C 0.3063(5) 0.2989(6) 0.3939(6)
C17 C 0.3788(5) 0.2785(6) 0.4201(6)
C18 C 0.4040(4) 0.2165(6) 0.3590(6)
C19 C 0.3578(4) 0.1747(6) 0.2724(5)
C20 C 0.3765(4) 0.1035(6) 0.2026(5)
C21 C 0.4462(4) 0.0687(6) 0.2160(7)
C22 C 0.4615(4) -0.0002(7) 0.1520(6)
C23 C 0.4054(4) -0.0376(6) 0.0686(6)
C24 C 0.3361(4) -0.0027(6) 0.0572(6)
C25 C 0.3197(4) 0.0693(5) 0.1229(5)
C26 C 0.4210(5) -0.1149(8) -0.0029(7)
C27 C 0.1730(5) 0.0789(7) -0.0120(6)
C28 C 0.1348(4) 0.2200(7) 0.1134(6)
C29 C -0.1204(6) 0.4218(8) -0.1543(9)
C30 C -0.1052(8) 0.4308(11) -0.0450(10)
C31 C -0.1894(7) 0.4573(13) -0.2196(14)
H1 H 0.19987 -0.20307 0.07584
H2 H 0.2851 -0.31238 0.0372
H3 H 0.39788 -0.32959 0.15088
H4 H 0.42808 -0.23552 0.29729
H5 H 0.44651 -0.12621 0.42526
H6 H 0.45935 -0.01947 0.56403
H7 H 0.24881 0.06127 0.4572
H8 H 0.4111 0.09578 0.65498
H9 H 0.34889 0.17569 0.59349
H10 H 0.32977 0.07035 0.64621
H11 H 0.21204 0.27357 0.28825
H12 H 0.28728 0.34016 0.43544
H13 H 0.41048 0.30686 0.47901
H14 H 0.45374 0.20176 0.37599
H15 H 0.48369 0.09361 0.27101
H16 H 0.50921 -0.0236 0.16241
H17 H 0.29832 -0.02853 0.00294
H18 H 0.47237 -0.13002 0.01695
H19 H 0.39491 -0.18362 -0.00465
H20 H 0.40589 -0.08144 -0.06765
H21 H -0.14527 0.46751 -0.03166
H22 H -0.09907 0.35727 -0.01634
H23 H -0.06147 0.47346 -0.01659
H24 H -0.21745 0.48985 -0.18165
H25 H -0.18206 0.51192 -0.26508
H26 H -0.215 0.39408 -0.25592
K1B K 0.02280(11) -0.0948(2) -0.14252(16)
K1C K -0.02280(11) 0.4052(2) -0.35748(16)
K2B K -0.03890(11) -0.24060(16) 0.10577(15)
K2C K 0.03890(11) 0.25940(16) 0.39423(15)
O1C O -0.0793(4) 0.1202(7) 0.3102(6)
O3C O -0.0094(5) 0.3379(9) 0.2107(6)
N1C N 0.0951(4) 0.4174(6) -0.1691(6)
N2B N -0.1399(4) -0.0497(7) 0.0884(6)
N4B N -0.0581(4) 0.1062(7) -0.0630(6)
loop_
_geom_bond_atom_site_label_1
_geom_bond_atom_site_label_2
_geom_bond_site_symmetry_1
_geom_bond_site_symmetry_2
Pt1 N6 1_555 1_555
Pt2 N5 1_555 1_555
K1 O2 1_555 1_555
K2 O1 1_555 1_555
O1 C29 1_555 1_555
O3 K2 1_555 1_555
N1 K1 1_555 1_555
N2 K2 1_555 1_555
N3 K1 1_555 1_555
N4 K1 1_555 1_555
N5 C15 1_555 1_555
N6 C1 1_555 1_555
C1 C2 1_555 1_555
C2 C3 1_555 1_555
C3 C4 1_555 1_555
C4 C5 1_555 1_555
C5 N6 1_555 1_555
C6 C5 1_555 1_555
C7 C6 1_555 1_555
C8 C7 1_555 1_555
C9 C8 1_555 1_555
C10 C9 1_555 1_555
C11 Pt1 1_555 1_555
C12 C9 1_555 1_555
C13 Pt1 1_555 1_555
C14 Pt1 1_555 1_555
C15 C16 1_555 1_555
C16 C17 1_555 1_555
C17 C18 1_555 1_555
C18 C19 1_555 1_555
C19 N5 1_555 1_555
C20 C19 1_555 1_555
C21 C20 1_555 1_555
C22 C21 1_555 1_555
C23 C22 1_555 1_555
C24 C23 1_555 1_555
C25 Pt2 1_555 1_555
C26 C23 1_555 1_555
C27 Pt2 1_555 1_555
C28 Pt2 1_555 1_555
C29 C30 1_555 1_555
C30 H21 1_555 1_555
C31 C29 1_555 1_555
H1 C1 1_555 1_555
H2 C2 1_555 1_555
H3 C3 1_555 1_555
H4 C4 1_555 1_555
H5 C7 1_555 1_555
H6 C8 1_555 1_555
H7 C10 1_555 1_555
H8 C12 1_555 1_555
H9 C12 1_555 1_555
H10 C12 1_555 1_555
H11 C15 1_555 1_555
H12 C16 1_555 1_555
H13 C17 1_555 1_555
H14 C18 1_555 1_555
H15 C21 1_555 1_555
H16 C22 1_555 1_555
H17 C24 1_555 1_555
H18 C26 1_555 1_555
H19 C26 1_555 1_555
H20 C26 1_555 1_555
H22 C30 1_555 1_555
H23 C30 1_555 1_555
H24 C31 1_555 1_555
H25 C31 1_555 1_555
H26 C31 1_555 1_555
K1B N2 1_555 1_555
K1C O1 1_555 1_555
K2B N4 1_555 1_555
K2C N1 1_555 1_555
O1C K1 1_555 1_555
O3C K1 1_555 1_555
N1C K2 1_555 1_555
N2B K1 1_555 1_555
N4B K1 1_555 1_555
K2 N3 1_555 1_555
K2 N4B 1_555 1_555
O3 K1C 1_555 1_555
N1 C13 1_555 1_555
N2 C27 1_555 1_555
N3 C28 1_555 1_555
N4 C14 1_555 1_555
N4 K1B 1_555 1_555
C6 C11 1_555 1_555
C10 C11 1_555 1_555
C20 C25 1_555 1_555
C24 C25 1_555 1_555
K1B N4B 1_555 1_555
K1C N1C 1_555 1_555
K2B N2B 1_555 1_555
K2C O1C 1_555 1_555
K2C O3C 1_555 1_555

#END
