
#######################################################################
#
#                 Cambridge Crystallographic Data Centre
#                                CCDC 
#
#######################################################################
#
# If this CIF has been generated from an entry in the Cambridge 
# Structural Database, then it will include bibliographic, chemical, 
# crystal, experimental, refinement or atomic coordinate data resulting 
# from the CCDC's data processing and validation procedures.
#
#######################################################################

data_AHIJOQ
_symmetry_cell_setting           orthorhombic
_symmetry_space_group_name_H-M   'P 21 21 21'
_symmetry_Int_Tables_number      19
_space_group_name_Hall           'P 2ac 2ab'
loop_
_symmetry_equiv_pos_site_id
_symmetry_equiv_pos_as_xyz
1 x,y,z
2 1/2+x,1/2-y,-z
3 -x,1/2+y,1/2-z
4 1/2-x,-y,1/2+z
_cell_length_a                   7.99482(3)
_cell_length_b                   8.84525(4)
_cell_length_c                   8.35318(4)
_cell_angle_alpha                90
_cell_angle_beta                 90
_cell_angle_gamma                90
_cell_volume                     590.705
loop_
_atom_site_label
_atom_site_type_symbol
_atom_site_fract_x
_atom_site_fract_y
_atom_site_fract_z
O1 O -0.0771(15) 0.0988(13) 0.1293(14)
O2 O 0.1070(14) 0.1712(14) -0.0063(14)
O3 O 0.1588(11) -0.007(2) 0.3594(10)
H1 H 0.22898 -0.02231 0.41589
O4 O 0.2189(14) 0.3176(13) 0.2999(14)
H2 H 0.14152 0.26983 0.36637
O5 O 0.5808(13) 0.0761(12) 0.3292(14)
O6 O 0.4835(14) 0.2460(13) 0.4925(14)
C1 C 0.0809(17) 0.105(2) 0.1171(19)
C2 C 0.2161(15) 0.0544(13) 0.2153(16)
H3 H 0.28328 -0.02695 0.14311
C3 C 0.3282(18) 0.1926(16) 0.2515(14)
H4 H 0.36818 0.22372 0.14406
C4 C 0.480(2) 0.1875(18) 0.3470(18)
Pb1 Pb -0.34155(8) 0.0007(3) -0.05454(9)
Pb1C Pb -0.15845(8) -0.0007(3) 0.44546(9)
Pb1A Pb 0.15845(8) 0.4993(3) 0.05454(9)
Pb1B Pb 0.34155(8) 0.5007(3) 0.55454(9)
Pb1_2 Pb 0.65845(8) 0.0007(3) -0.05454(9)
Pb1C_2 Pb 0.84155(8) -0.0007(3) 0.44546(9)
O1C O -0.4229(15) -0.0988(13) -0.3707(14)
O2A O -0.3930(14) 0.3288(14) 0.0063(14)
O3C O -0.6588(11) 0.007(2) -0.1406(10)
O4A O -0.2811(14) 0.1824(13) -0.2999(14)
O4B O -0.2189(14) -0.1824(13) 0.2001(14)
O5_2 O -0.4192(13) 0.0761(12) 0.3292(14)
O5C O -0.0808(13) -0.0761(12) -0.1708(14)
O6B O -0.4835(14) -0.2540(13) 0.0075(14)
Pb1C_3 Pb -0.15845(8) -0.0007(3) -0.55454(9)
H1C H -0.72898 0.02231 -0.08411
H2A H -0.35848 0.23017 -0.36637
H2B H -0.14152 -0.23017 0.13363
loop_
_geom_bond_atom_site_label_1
_geom_bond_atom_site_label_2
_geom_bond_site_symmetry_1
_geom_bond_site_symmetry_2
O1 C1 1_555 1_555
O2 C1 1_555 1_555
O3 H1 1_555 1_555
O4 H2 1_555 1_555
O5 C4 1_555 1_555
O6 C4 1_555 1_555
C1 C2 1_555 1_555
C2 O3 1_555 1_555
H3 C2 1_555 1_555
C3 O4 1_555 1_555
H4 C3 1_555 1_555
C4 C3 1_555 1_555
Pb1 O1 1_555 1_555
Pb1C O1 1_555 1_555
Pb1A O2 1_555 1_555
Pb1B O4 1_555 1_555
Pb1_2 O5 1_555 1_555
Pb1C_2 O5 1_555 1_555
O1C Pb1 1_555 1_555
O2A Pb1 1_555 1_555
O3C Pb1 1_555 1_555
O4A Pb1 1_555 1_555
O4B Pb1 1_555 1_555
O5_2 Pb1 1_555 1_555
O5C Pb1 1_555 1_555
O6B Pb1 1_555 1_555
Pb1C_3 O1C 1_555 1_555
H1C O3C 1_555 1_555
H2A O4A 1_555 1_555
H2B O4B 1_555 1_555
O3 Pb1C 1_555 1_555
O4 Pb1A 1_555 1_555
O6 Pb1B 1_555 1_555
C2 C3 1_555 1_555
Pb1C O4B 1_555 1_555
Pb1C O5_2 1_555 1_555
O4A Pb1C_3 1_555 1_555
O5C Pb1C_3 1_555 1_555

#END
