
#######################################################################
#
#                 Cambridge Crystallographic Data Centre
#                                CCDC 
#
#######################################################################
#
# If this CIF has been generated from an entry in the Cambridge 
# Structural Database, then it will include bibliographic, chemical, 
# crystal, experimental, refinement or atomic coordinate data resulting 
# from the CCDC's data processing and validation procedures.
#
#######################################################################

data_AHIKOR
_symmetry_cell_setting           triclinic
_symmetry_space_group_name_H-M   'P -1'
_symmetry_Int_Tables_number      2
_space_group_name_Hall           '-P 1'
loop_
_symmetry_equiv_pos_site_id
_symmetry_equiv_pos_as_xyz
1 x,y,z
2 -x,-y,-z
_cell_length_a                   10.2785(2)
_cell_length_b                   12.6674(3)
_cell_length_c                   16.2495(5)
_cell_angle_alpha                71.693(2)
_cell_angle_beta                 89.362(2)
_cell_angle_gamma                76.317(2)
_cell_volume                     1947.05
loop_
_atom_site_label
_atom_site_type_symbol
_atom_site_fract_x
_atom_site_fract_y
_atom_site_fract_z
Cd1 Cd 0.648867(14) -0.312231(13) 0.177671(10)
Cd2 Cd 0.682088(14) -0.463850(13) 0.480871(10)
O1 O 0.87533(15) -0.41265(14) 0.41882(10)
H1 H 0.884(3) -0.3505(14) 0.4250(15)
H2 H 0.873(3) -0.403(2) 0.3648(7)
O2 O 0.84177(17) -0.49883(19) 0.59525(12)
H3 H 0.853(3) -0.509(3) 0.6489(8)
H4 H 0.9166(16) -0.512(3) 0.5750(16)
O3 O 0.46335(15) -0.46610(14) 0.41151(10)
O4 O 0.60152(15) -0.38758(14) 0.32234(10)
O5 O 0.12412(17) -0.17960(16) 0.22105(15)
O6 O 0.1722(2) -0.01083(18) 0.1835(2)
H5 H 0.0905 0.0136 0.1665
O7 O 0.63821(17) -0.13329(15) 0.18029(13)
O8 O 0.74430(17) 0.00484(15) 0.15832(13)
O9 O 0.67200(18) -0.47279(15) 0.13893(12)
O10 O 0.7016(2) -0.53693(16) 0.02629(13)
O11 O 0.86585(16) -0.38736(16) 0.24981(11)
O12 O 1.08075(17) -0.46121(17) 0.23408(12)
N1 N 0.40150(18) -0.27527(16) 0.19109(12)
N2 N 0.54908(19) -0.24818(17) 0.02988(13)
N3 N 0.82239(19) -0.24576(18) 0.08339(13)
N4 N 0.75547(18) -0.64388(16) 0.47100(13)
N5 N 0.8955(2) -1.20672(18) 0.43717(15)
N6 N 0.58981(18) -0.28255(16) 0.48496(13)
C1 C 0.4883(2) -0.41144(18) 0.33661(14)
C2 C 0.2041(2) -0.1206(2) 0.20688(17)
C3 C 0.7323(2) -0.0880(2) 0.15097(16)
C4 C 0.6548(2) -0.4600(2) 0.05942(16)
C5 C 0.9656(2) -0.4001(2) 0.20473(16)
C6 C 0.3828(2) -0.37554(19) 0.26226(15)
H6 H 0.3876 -0.4404 0.2397
H7 H 0.2927 -0.3566 0.2839
C7 C 0.3561(2) -0.1681(2) 0.21243(16)
H8 H 0.3957 -0.1090 0.1726
H9 H 0.3918 -0.1817 0.2722
C8 C 0.3426(2) -0.2670(2) 0.10590(15)
H10 H 0.2447 -0.2331 0.1019
H11 H 0.3565 -0.3449 0.1012
C9 C 0.4055(2) -0.1939(2) 0.03124(15)
H12 H 0.3579 -0.1836 -0.0244
H13 H 0.3959 -0.1172 0.0375
C10 C 0.7761(3) -0.6621(2) 0.39427(17)
H14 H 0.7707 -0.5977 0.3437
C11 C 0.8048(3) -0.7697(2) 0.38533(17)
H15 H 0.8188 -0.7779 0.3295
C12 C 0.8135(2) -0.86681(19) 0.45806(16)
C13 C 0.7927(2) -0.8475(2) 0.53772(16)
H16 H 0.7970 -0.9102 0.5894
C14 C 0.7661(2) -0.7372(2) 0.54111(16)
H17 H 0.7545 -0.7266 0.5963
C15 C 0.8434(2) -0.9847(2) 0.45113(16)
C16 C 0.8683(3) -1.0042(2) 0.37174(17)
H18 H 0.8676 -0.9417 0.3206
C17 C 0.8940(3) -1.1145(2) 0.36787(18)
H19 H 0.9116 -1.1256 0.3133
C18 C 0.8728(2) -1.1883(2) 0.51314(17)
H20 H 0.8748 -1.2526 0.5633
C19 C 0.5839(2) -0.1896(2) 0.41490(15)
H21 H 0.6058 -0.2008 0.3608
C20 C 0.5475(2) -0.07851(19) 0.41781(15)
H22 H 0.5432 -0.0156 0.3664
C21 C 0.5169(2) -0.05921(19) 0.49672(15)
C22 C 0.5205(2) -0.1557(2) 0.56862(16)
H23 H 0.4984 -0.1471 0.6235
C23 C 0.5562(2) -0.2638(2) 0.56025(16)
H24 H 0.5571 -0.3281 0.6101
C24 C 0.6228(2) -0.1643(2) -0.02170(16)
H25 H 0.6007 -0.0946 -0.0038
H26 H 0.5943 -0.1416 -0.0841
C25 C 0.7732(2) -0.2160(2) -0.00828(16)
H27 H 0.7948 -0.2859 -0.0259
H28 H 0.8199 -0.1604 -0.0458
C26 C 0.5671(2) -0.3474(2) -0.00185(16)
H29 H 0.6077 -0.3289 -0.0585
H30 H 0.4776 -0.3593 -0.0119
C27 C 0.8432(2) -0.1462(2) 0.10481(17)
H31 H 0.8561 -0.0881 0.0502
H32 H 0.9278 -0.1710 0.1419
C28 C 0.9446(2) -0.3406(2) 0.10707(16)
H33 H 1.0234 -0.3101 0.0860
H34 H 0.9376 -0.3972 0.0780
C29 C 0.8465(2) -1.0806(2) 0.52295(17)
H35 H 0.8306 -1.0724 0.5786
C21A C 0.4831(2) 0.05921(19) 0.50328(15)
C20A C 0.4525(2) 0.07851(19) 0.58219(15)
C19A C 0.4161(2) 0.1896(2) 0.58510(15)
N6A N 0.41019(18) 0.28255(16) 0.51504(13)
C23A C 0.4438(2) 0.2638(2) 0.43975(16)
C22A C 0.4795(2) 0.1557(2) 0.43138(16)
H23A H 0.5016 0.1471 0.3765
H24A H 0.4429 0.3281 0.3899
H21A H 0.3942 0.2008 0.6392
H22A H 0.4568 0.0156 0.6336
Cd2A Cd 0.317912(14) -0.536150(13) 0.519129(10)
O3A O 0.53665(15) -0.53390(14) 0.58849(10)
O4A O 0.39848(15) -0.61242(14) 0.67766(10)
O5A O 0.87588(17) -0.82040(16) 0.77895(15)
O6A O 0.8278(2) -0.98917(18) 0.8165(2)
H5A H 0.9095 -1.0136 0.8335
O7A O 0.36179(17) -0.86671(15) 0.81971(13)
O8A O 0.25570(17) -1.00484(15) 0.84168(13)
O9A O 0.32800(18) -0.52721(15) 0.86107(12)
O10A O 0.2984(2) -0.46307(16) 0.97371(13)
O11A O 0.13415(16) -0.61264(16) 0.75019(11)
O12A O -0.08075(17) -0.53879(17) 0.76592(12)
N1A N 0.59850(18) -0.72473(16) 0.80891(12)
N2A N 0.45092(19) -0.75182(17) 0.97012(13)
N3A N 0.17761(19) -0.75424(18) 0.91661(13)
C1A C 0.5117(2) -0.58856(18) 0.66339(14)
C2A C 0.7959(2) -0.8794(2) 0.79312(17)
C3A C 0.2677(2) -0.9120(2) 0.84903(16)
C4A C 0.3452(2) -0.5400(2) 0.94058(16)
C5A C 0.0344(2) -0.5999(2) 0.79527(16)
C6A C 0.6172(2) -0.62446(19) 0.73774(15)
H6A H 0.6124 -0.5596 0.7603
H7A H 0.7073 -0.6434 0.7161
C7A C 0.6439(2) -0.8319(2) 0.78757(16)
H8A H 0.6043 -0.8910 0.8274
H9A H 0.6082 -0.8183 0.7278
C8A C 0.6574(2) -0.7330(2) 0.89410(15)
H10A H 0.7553 -0.7669 0.8981
H11A H 0.6435 -0.6551 0.8988
C9A C 0.5945(2) -0.8061(2) 0.96876(15)
H12A H 0.6421 -0.8164 1.0244
H13A H 0.6041 -0.8828 0.9625
C24A C 0.3772(2) -0.8357(2) 1.02170(16)
H25A H 0.3993 -0.9054 1.0038
H26A H 0.4057 -0.8584 1.0841
C25A C 0.2268(2) -0.7840(2) 1.00828(16)
H27A H 0.2052 -0.7141 1.0259
H28A H 0.1801 -0.8396 1.0458
C26A C 0.4329(2) -0.6526(2) 1.00185(16)
H29A H 0.3923 -0.6711 1.0585
H30A H 0.5224 -0.6407 1.0119
C27A C 0.1568(2) -0.8538(2) 0.89519(17)
H31A H 0.1439 -0.9119 0.9498
H32A H 0.0722 -0.8290 0.8581
C28A C 0.0554(2) -0.6594(2) 0.89293(16)
H33A H -0.0234 -0.6899 0.9140
H34A H 0.0624 -0.6028 0.9220
O1A O 0.12467(15) -0.58735(14) 0.58118(10)
H1A H 0.116(3) -0.6495(14) 0.5750(15)
H2A H 0.127(3) -0.597(2) 0.6352(7)
O2A O 0.15823(17) -0.50117(19) 0.40475(12)
H3A H 0.147(3) -0.491(3) 0.3511(8)
H4A H 0.0834(16) -0.488(3) 0.4250(16)
N4A N 0.24453(18) -0.35612(16) 0.52900(13)
N5A N 0.1045(2) 0.20672(18) 0.56283(15)
C10A C 0.2239(3) -0.3379(2) 0.60573(17)
H14A H 0.2293 -0.4023 0.6563
C11A C 0.1952(3) -0.2303(2) 0.61467(17)
H15A H 0.1812 -0.2221 0.6705
C12A C 0.1865(2) -0.13319(19) 0.54194(16)
C13A C 0.2073(2) -0.1525(2) 0.46228(16)
H16A H 0.2030 -0.0898 0.4106
C14A C 0.2339(2) -0.2628(2) 0.45889(16)
H17A H 0.2455 -0.2734 0.4037
C15A C 0.1566(2) -0.0153(2) 0.54887(16)
C16A C 0.1317(3) 0.0042(2) 0.62826(17)
H18A H 0.1324 -0.0583 0.6794
C17A C 0.1060(3) 0.1145(2) 0.63213(18)
H19A H 0.0884 0.1256 0.6867
C18A C 0.1272(2) 0.1883(2) 0.48686(17)
H20A H 0.1252 0.2526 0.4367
C29A C 0.1535(2) 0.0806(2) 0.47705(17)
H35A H 0.1694 0.0724 0.4214
Cd1A Cd 0.351133(14) -0.687769(13) 0.822329(10)
Cd2A_2 Cd 0.317912(14) 0.463850(13) 0.519129(10)
N6A_2 N 0.41019(18) -0.71745(16) 0.51504(13)
O13 O 0.5397(2) 0.13178(18) 0.22671(14)
H36 H 0.596(3) 0.094(2) 0.202(2)
H37 H 0.557(3) 0.1960(15) 0.219(2)
O14 O 0.5443(2) 0.34586(17) 0.23263(14)
H38 H 0.4687(15) 0.375(3) 0.207(2)
H39 H 0.599(2) 0.384(2) 0.210(2)
O15 O 0.2939(2) 0.45492(19) 0.15119(14)
H40 H 0.224(2) 0.489(3) 0.1695(18)
H41 H 0.285(3) 0.479(3) 0.0964(6)
O16 O -0.05181(19) 0.09399(18) 0.11464(19)
H42 H -0.118(3) 0.063(3) 0.127(3)
H43 H -0.067(4) 0.150(2) 0.134(3)
O17 O 0.2800(2) 0.1179(2) 0.26520(18)
H44 H 0.258(4) 0.075(3) 0.240(3)
H45 H 0.357(2) 0.126(4) 0.251(3)
O18 O 0.0616(3) 0.2998(2) 0.2579(2)
H46 H 0.133(3) 0.261(3) 0.245(3)
H47 H 0.072(4) 0.3653(18) 0.253(3)
O19 O -0.1332(4) 0.2783(3) 0.1595(3)
H48 H -0.066(5) 0.304(6) 0.163(4)
H49 H -0.166(6) 0.306(5) 0.1075(15)
O20? O -0.0782(7) 0.3029(6) 0.1062(5)
H50? H -0.082(12) 0.297(13) 0.159(2)
H51? H -0.144(8) 0.355(7) 0.078(7)
loop_
_geom_bond_atom_site_label_1
_geom_bond_atom_site_label_2
_geom_bond_site_symmetry_1
_geom_bond_site_symmetry_2
Cd1 O4 1_555 1_555
Cd2 O1 1_555 1_555
O1 H1 1_555 1_555
H2 O1 1_555 1_555
O2 Cd2 1_555 1_555
H3 O2 1_555 1_555
H4 O2 1_555 1_555
O3 Cd2 1_555 1_555
O4 Cd2 1_555 1_555
O5 C2 1_555 1_555
O6 H5 1_555 1_555
O7 Cd1 1_555 1_555
O8 C3 1_555 1_555
O9 Cd1 1_555 1_555
O10 C4 1_555 1_555
O11 Cd1 1_555 1_555
O12 C5 1_555 1_555
N1 Cd1 1_555 1_555
N2 Cd1 1_555 1_555
N3 Cd1 1_555 1_555
N4 Cd2 1_555 1_555
N5 C17 1_555 1_555
N6 Cd2 1_555 1_555
C1 O3 1_555 1_555
C2 O6 1_555 1_555
C3 O7 1_555 1_555
C4 O9 1_555 1_555
C5 O11 1_555 1_555
C6 N1 1_555 1_555
H6 C6 1_555 1_555
H7 C6 1_555 1_555
C7 N1 1_555 1_555
H8 C7 1_555 1_555
H9 C7 1_555 1_555
C8 N1 1_555 1_555
H10 C8 1_555 1_555
H11 C8 1_555 1_555
C9 N2 1_555 1_555
H12 C9 1_555 1_555
H13 C9 1_555 1_555
C10 N4 1_555 1_555
H14 C10 1_555 1_555
C11 C10 1_555 1_555
H15 C11 1_555 1_555
C12 C11 1_555 1_555
C13 C12 1_555 1_555
H16 C13 1_555 1_555
C14 N4 1_555 1_555
H17 C14 1_555 1_555
C15 C12 1_555 1_555
C16 C15 1_555 1_555
H18 C16 1_555 1_555
C17 C16 1_555 1_555
H19 C17 1_555 1_555
C18 N5 1_555 1_555
H20 C18 1_555 1_555
C19 N6 1_555 1_555
H21 C19 1_555 1_555
C20 C19 1_555 1_555
H22 C20 1_555 1_555
C21 C20 1_555 1_555
C22 C21 1_555 1_555
H23 C22 1_555 1_555
C23 N6 1_555 1_555
H24 C23 1_555 1_555
C24 N2 1_555 1_555
H25 C24 1_555 1_555
H26 C24 1_555 1_555
C25 N3 1_555 1_555
H27 C25 1_555 1_555
H28 C25 1_555 1_555
C26 N2 1_555 1_555
H29 C26 1_555 1_555
H30 C26 1_555 1_555
C27 N3 1_555 1_555
H31 C27 1_555 1_555
H32 C27 1_555 1_555
C28 N3 1_555 1_555
H33 C28 1_555 1_555
H34 C28 1_555 1_555
C29 C15 1_555 1_555
H35 C29 1_555 1_555
O13 H36 1_555 1_555
H37 O13 1_555 1_555
O14 H38 1_555 1_555
H39 O14 1_555 1_555
O15 H40 1_555 1_555
H41 O15 1_555 1_555
O16 H42 1_555 1_555
H43 O16 1_555 1_555
O17 H44 1_555 1_555
H45 O17 1_555 1_555
O18 H46 1_555 1_555
H47 O18 1_555 1_555
O19 H48 1_555 1_555
H49 O19 1_555 1_555
C21A C21 1_555 1_555
C20A C21A 1_555 1_555
C19A C20A 1_555 1_555
N6A C19A 1_555 1_555
C23A N6A 1_555 1_555
C22A C21A 1_555 1_555
H23A C22A 1_555 1_555
H24A C23A 1_555 1_555
H21A C19A 1_555 1_555
H22A C20A 1_555 1_555
Cd2A O3 1_555 1_555
O3A Cd2 1_555 1_555
O4A Cd2A 1_555 1_555
O5A C2A 1_555 1_555
O6A H5A 1_555 1_555
O7A C3A 1_555 1_555
O8A C3A 1_555 1_555
O9A C4A 1_555 1_555
O10A C4A 1_555 1_555
O11A C5A 1_555 1_555
O12A C5A 1_555 1_555
N1A C6A 1_555 1_555
N2A C9A 1_555 1_555
N3A C25A 1_555 1_555
C1A O3A 1_555 1_555
C2A O6A 1_555 1_555
C3A C27A 1_555 1_555
C4A C26A 1_555 1_555
C5A C28A 1_555 1_555
C6A C1A 1_555 1_555
H6A C6A 1_555 1_555
H7A C6A 1_555 1_555
C7A N1A 1_555 1_555
H8A C7A 1_555 1_555
H9A C7A 1_555 1_555
C8A N1A 1_555 1_555
H10A C8A 1_555 1_555
H11A C8A 1_555 1_555
C9A C8A 1_555 1_555
H12A C9A 1_555 1_555
H13A C9A 1_555 1_555
C24A N2A 1_555 1_555
H25A C24A 1_555 1_555
H26A C24A 1_555 1_555
C25A C24A 1_555 1_555
H27A C25A 1_555 1_555
H28A C25A 1_555 1_555
C26A N2A 1_555 1_555
H29A C26A 1_555 1_555
H30A C26A 1_555 1_555
C27A N3A 1_555 1_555
H31A C27A 1_555 1_555
H32A C27A 1_555 1_555
C28A N3A 1_555 1_555
H33A C28A 1_555 1_555
H34A C28A 1_555 1_555
O1A Cd2A 1_555 1_555
H1A O1A 1_555 1_555
H2A O1A 1_555 1_555
O2A Cd2A 1_555 1_555
H3A O2A 1_555 1_555
H4A O2A 1_555 1_555
N4A Cd2A 1_555 1_555
N5A C17A 1_555 1_555
C10A N4A 1_555 1_555
H14A C10A 1_555 1_555
C11A C10A 1_555 1_555
H15A C11A 1_555 1_555
C12A C11A 1_555 1_555
C13A C12A 1_555 1_555
H16A C13A 1_555 1_555
C14A N4A 1_555 1_555
H17A C14A 1_555 1_555
C15A C12A 1_555 1_555
C16A C15A 1_555 1_555
H18A C16A 1_555 1_555
C17A C16A 1_555 1_555
H19A C17A 1_555 1_555
C18A N5A 1_555 1_555
H20A C18A 1_555 1_555
C29A C15A 1_555 1_555
H35A C29A 1_555 1_555
Cd1A O4A 1_555 1_555
Cd2A_2 N6A 1_555 1_555
N6A_2 Cd2A 1_555 1_555
O4 C1 1_555 1_555
C1 C6 1_555 1_555
C2 C7 1_555 1_555
C3 C27 1_555 1_555
C4 C26 1_555 1_555
C5 C28 1_555 1_555
C8 C9 1_555 1_555
C13 C14 1_555 1_555
C18 C29 1_555 1_555
C22 C23 1_555 1_555
C24 C25 1_555 1_555
C23A C22A 1_555 1_555
Cd2A O3A 1_555 1_555
O4A C1A 1_555 1_555
O7A Cd1A 1_555 1_555
O9A Cd1A 1_555 1_555
O11A Cd1A 1_555 1_555
N1A Cd1A 1_555 1_555
N2A Cd1A 1_555 1_555
N3A Cd1A 1_555 1_555
C2A C7A 1_555 1_555
C13A C14A 1_555 1_555
C18A C29A 1_555 1_555

#END
