
#######################################################################
#
#                 Cambridge Crystallographic Data Centre
#                                CCDC 
#
#######################################################################
#
# If this CIF has been generated from an entry in the Cambridge 
# Structural Database, then it will include bibliographic, chemical, 
# crystal, experimental, refinement or atomic coordinate data resulting 
# from the CCDC's data processing and validation procedures.
#
#######################################################################

data_AHIKIL02
_symmetry_cell_setting           monoclinic
_symmetry_space_group_name_H-M   'C 2/c'
_symmetry_Int_Tables_number      15
_space_group_name_Hall           '-C 2yn'
loop_
_symmetry_equiv_pos_site_id
_symmetry_equiv_pos_as_xyz
1 x,y,z
2 1/2+x,1/2+y,z
3 x,-y,1/2+z
4 1/2+x,1/2-y,1/2+z
5 -x,-y,-z
6 1/2-x,1/2-y,-z
7 -x,y,1/2-z
8 1/2-x,1/2+y,1/2-z
_cell_length_a                   11.573(14)
_cell_length_b                   7.965(7)
_cell_length_c                   13.368(8)
_cell_angle_alpha                90
_cell_angle_beta                 101.21
_cell_angle_gamma                90
_cell_volume                     1208.74
loop_
_atom_site_label
_atom_site_type_symbol
_atom_site_fract_x
_atom_site_fract_y
_atom_site_fract_z
Co1 Co -0.5000 -0.79696(5) 0.2500
O1 O -0.63401(14) -0.1344(2) 0.32733(14)
O2 O -0.46111(14) 0.00823(19) 0.36093(12)
N1 N -0.43467(16) -0.5880(2) 0.34240(14)
C1 C -0.37330(19) -0.6057(3) 0.43907(17)
H1 H -0.3489 -0.7160 0.4633
C2 C -0.3442(2) -0.4694(3) 0.50456(17)
H2 H -0.2945 -0.4832 0.5704
C3 C -0.3897(2) -0.3123(3) 0.47132(17)
H3 H -0.3748 -0.2174 0.5162
C4 C -0.45718(18) -0.2920(3) 0.37230(16)
C5 C -0.47142(17) -0.4326(3) 0.30616(15)
C6 C -0.5229(2) -0.1258(3) 0.35055(16)
O3 O -0.67438(14) -0.8091(2) 0.28323(14)
H4 H -0.7424 -0.7659 0.2479
H5 H -0.6895 -0.9109 0.2898
C5F C -0.52858(17) -0.4326(3) 0.19384(15)
N1F N -0.56533(16) -0.5880(2) 0.15760(14)
C1F C -0.62670(19) -0.6057(3) 0.06093(17)
H1F H -0.6511 -0.7160 0.0367
C2F C -0.6558(2) -0.4694(3) -0.00456(17)
H2F H -0.7055 -0.4832 -0.0704
C3F C -0.6103(2) -0.3123(3) 0.02868(17)
H3F H -0.6252 -0.2174 -0.0162
C4F C -0.54282(18) -0.2920(3) 0.12770(16)
C6F C -0.4771(2) -0.1258(3) 0.14945(16)
O1F O -0.36599(14) -0.1344(2) 0.17267(14)
O2F O -0.53889(14) 0.00823(19) 0.13907(12)
Co1_2 Co -0.5000 0.20304(5) 0.2500
O2_2 O -0.46111(14) -0.99177(19) 0.36093(12)
O2F_2 O -0.53889(14) -0.99177(19) 0.13907(12)
O3F O -0.32562(14) -0.8091(2) 0.21677(14)
H4F H -0.2576 -0.7659 0.2521
H5F H -0.3105 -0.9109 0.2102
loop_
_geom_bond_atom_site_label_1
_geom_bond_atom_site_label_2
_geom_bond_site_symmetry_1
_geom_bond_site_symmetry_2
Co1 N1 1_555 1_555
O1 C6 1_555 1_555
O2 C6 1_555 1_555
N1 C1 1_555 1_555
C1 H1 1_555 1_555
C2 C1 1_555 1_555
H2 C2 1_555 1_555
C3 C2 1_555 1_555
H3 C3 1_555 1_555
C4 C3 1_555 1_555
C5 N1 1_555 1_555
C6 C4 1_555 1_555
O3 Co1 1_555 1_555
H4 O3 1_555 1_555
H5 O3 1_555 1_555
C5F C5 1_555 1_555
N1F Co1 1_555 1_555
C1F N1F 1_555 1_555
H1F C1F 1_555 1_555
C2F C1F 1_555 1_555
H2F C2F 1_555 1_555
C3F C2F 1_555 1_555
H3F C3F 1_555 1_555
C4F C5F 1_555 1_555
C6F C4F 1_555 1_555
O1F C6F 1_555 1_555
O2F C6F 1_555 1_555
Co1_2 O2 1_555 1_555
O2_2 Co1 1_555 1_555
O2F_2 Co1 1_555 1_555
O3F Co1 1_555 1_555
H4F O3F 1_555 1_555
H5F O3F 1_555 1_555
C4 C5 1_555 1_555
C5F N1F 1_555 1_555
C3F C4F 1_555 1_555
O2F Co1_2 1_555 1_555

#END
