
#######################################################################
#
#                 Cambridge Crystallographic Data Centre
#                                CCDC 
#
#######################################################################
#
# If this CIF has been generated from an entry in the Cambridge 
# Structural Database, then it will include bibliographic, chemical, 
# crystal, experimental, refinement or atomic coordinate data resulting 
# from the CCDC's data processing and validation procedures.
#
#######################################################################

data_AHILEI
_symmetry_cell_setting           monoclinic
_symmetry_space_group_name_H-M   'P 21/c'
_symmetry_Int_Tables_number      14
_space_group_name_Hall           '-P 2ybc'
loop_
_symmetry_equiv_pos_site_id
_symmetry_equiv_pos_as_xyz
1 x,y,z
2 x,1/2-y,1/2+z
3 -x,-y,-z
4 -x,1/2+y,1/2-z
_cell_length_a                   7.4046(10)
_cell_length_b                   14.7960(13)
_cell_length_c                   7.7788(11)
_cell_angle_alpha                90
_cell_angle_beta                 99.727(12)
_cell_angle_gamma                90
_cell_volume                     839.982
loop_
_atom_site_label
_atom_site_type_symbol
_atom_site_fract_x
_atom_site_fract_y
_atom_site_fract_z
Fe1 Fe 0.57091(4) 0.644517(17) 0.81242(3)
O1 O 0.3698(2) 0.66723(11) 0.59398(18)
O2 O 0.2599(2) 0.52946(10) 0.53014(19)
O3 O -0.2376(2) 0.62833(11) 0.04247(19)
O4 O 0.0191(2) 0.63257(11) -0.0694(2)
O5 O 0.38358(19) 0.66013(10) 0.98199(19)
O6 O 0.5205(2) 0.50515(11) 0.79900(19)
O7 O 0.7687(2) 0.62922(10) 0.64283(19)
O8 O 0.6345(2) 0.78344(10) 0.82042(18)
C1 C 0.2663(3) 0.61177(14) 0.4984(2)
C2 C 0.1461(3) 0.65115(14) 0.3387(3)
H1 H 0.2226 0.6842 0.2707
H2 H 0.0610 0.6937 0.3761
C3 C 0.0386(3) 0.58003(14) 0.2235(3)
H3 H 0.1227 0.5338 0.1972
H4 H -0.0475 0.5516 0.2878
C4 C -0.0660(3) 0.61693(13) 0.0537(2)
H5 H 0.3684 0.7167 1.0231
H6 H 0.2689 0.6442 0.9477
H7 H 0.4286 0.5031 0.7072
H8 H 0.5228 0.4641 0.8756
H9 H 0.7755 0.5772 0.5920
H10 H 0.8693 0.6369 0.7262
H11 H 0.6847 0.8077 0.9245
H12 H 0.6787 0.8189 0.7387
O3_2 O 0.7624(2) 0.62833(11) 1.04247(19)
Fe1_2 Fe -0.42909(4) 0.644517(17) -0.18758(3)
loop_
_geom_bond_atom_site_label_1
_geom_bond_atom_site_label_2
_geom_bond_site_symmetry_1
_geom_bond_site_symmetry_2
Fe1 O1 1_555 1_555
O1 C1 1_555 1_555
O2 C1 1_555 1_555
O3 C4 1_555 1_555
O4 C4 1_555 1_555
O5 Fe1 1_555 1_555
O6 Fe1 1_555 1_555
O7 Fe1 1_555 1_555
O8 Fe1 1_555 1_555
C1 C2 1_555 1_555
C2 H1 1_555 1_555
H2 C2 1_555 1_555
C3 C2 1_555 1_555
H3 C3 1_555 1_555
H4 C3 1_555 1_555
C4 C3 1_555 1_555
H5 O5 1_555 1_555
H6 O5 1_555 1_555
H7 O6 1_555 1_555
H8 O6 1_555 1_555
H9 O7 1_555 1_555
H10 O7 1_555 1_555
H11 O8 1_555 1_555
H12 O8 1_555 1_555
O3_2 Fe1 1_555 1_555
Fe1_2 O3 1_555 1_555

#END
