
#######################################################################
#
#                 Cambridge Crystallographic Data Centre
#                                CCDC 
#
#######################################################################
#
# If this CIF has been generated from an entry in the Cambridge 
# Structural Database, then it will include bibliographic, chemical, 
# crystal, experimental, refinement or atomic coordinate data resulting 
# from the CCDC's data processing and validation procedures.
#
#######################################################################

data_AHINEL
_symmetry_cell_setting           monoclinic
_symmetry_space_group_name_H-M   'P 21'
_symmetry_Int_Tables_number      4
_space_group_name_Hall           'P 2yb'
loop_
_symmetry_equiv_pos_site_id
_symmetry_equiv_pos_as_xyz
1 x,y,z
2 -x,1/2+y,-z
_cell_length_a                   6.4751(8)
_cell_length_b                   23.110(3)
_cell_length_c                   12.5595(15)
_cell_angle_alpha                90
_cell_angle_beta                 100.715(2)
_cell_angle_gamma                90
_cell_volume                     1846.63
loop_
_atom_site_label
_atom_site_type_symbol
_atom_site_fract_x
_atom_site_fract_y
_atom_site_fract_z
Cd1 Cd 0.48727(9) 0.11465(3) 0.61251(4)
Cd2 Cd -0.56465(9) -0.11436(2) 0.93673(4)
C1 C 0.1828(13) 0.0447(4) 0.7516(7)
H1 H 0.1571 0.0208 0.6910
C2 C 0.0578(12) 0.0395(4) 0.8310(7)
C3 C 0.1003(14) 0.0742(4) 0.9198(7)
H2 H 0.0155 0.0719 0.9718
C4 C 0.2662(11) 0.1130(4) 0.9350(5)
C5 C 0.3217(14) 0.1480(4) 1.0297(6)
H3 H 0.2419 0.1462 1.0840
C6 C 0.4917(14) 0.1841(4) 1.0411(6)
H4 H 0.5281 0.2058 1.1042
C7 C 0.6133(13) 0.1894(4) 0.9591(6)
C8 C 0.7846(13) 0.2260(4) 0.9661(7)
H5 H 0.8286 0.2471 1.0292
C9 C 0.8906(12) 0.2316(3) 0.8818(7)
C10 C 0.8173(13) 0.2002(4) 0.7873(6)
H6 H 0.8857 0.2053 0.7290
C11 C 0.5589(11) 0.1572(3) 0.8608(5)
C12 C 0.3838(11) 0.1163(4) 0.8512(5)
C13 C -0.1842(16) -0.0304(4) 0.8896(7)
H7 H -0.1276 -0.0287 0.9632
C14 C -0.3790(14) -0.0514(4) 0.7378(7)
H8 H -0.4864 -0.0676 0.6870
C15 C -0.2372(14) -0.0151(4) 0.7156(7)
H9 H -0.2255 -0.0018 0.6471
C16 C 1.1491(13) 0.3050(3) 0.9735(6)
H10 H 1.0884 0.3115 1.0340
C17 C 1.3578(14) 0.3085(4) 0.8572(7)
H11 H 1.4710 0.3193 0.8257
C18 C 1.2041(13) 0.2712(4) 0.8138(7)
H12 H 1.1911 0.2513 0.7485
C19 C 0.273(3) 0.0352(7) 0.4618(12)
C20 C 0.1754(17) 0.0132(5) 0.3504(10)
C21 C 0.3233(18) -0.0089(5) 0.2801(9)
C22 C 0.1779(18) -0.0347(6) 0.1802(10)
H13 H 0.1108 -0.0010 0.1410
C23 C 0.002(3) -0.0643(10) 0.2234(12)
H14 H 0.0273 -0.1056 0.2318
H15 H -0.1323 -0.0581 0.1758
C24 C 0.008(2) -0.0335(6) 0.3392(15)
H16 H -0.1274 -0.0166 0.3427
H17 H 0.0427 -0.0615 0.3973
C25 C 0.052(2) 0.0684(6) 0.2950(14)
H18 H 0.1512 0.0981 0.2858
H19 H -0.0408 0.0826 0.3403
H20 H -0.0278 0.0578 0.2256
C26 C 0.452(2) -0.0614(6) 0.3354(13)
H21 H 0.3798 -0.0967 0.3117
H22 H 0.4677 -0.0581 0.4126
H23 H 0.5886 -0.0618 0.3157
C27 C 0.4660(19) 0.0365(6) 0.2479(10)
H24 H 0.5610 0.0188 0.2073
H25 H 0.5448 0.0543 0.3118
H26 H 0.3835 0.0652 0.2041
C28 C 0.2685(16) -0.0665(5) 0.0991(8)
C29 C 0.2553(17) 0.2166(4) 0.5351(7)
C30 C 0.1983(16) 0.2749(4) 0.4761(7)
C31 C 0.0943(14) 0.2670(4) 0.3560(6)
C32 C 0.0105(13) 0.3302(3) 0.3335(6)
H27 H 0.1347 0.3532 0.3268
C33 C -0.054(2) 0.3516(5) 0.4339(7)
H28 H -0.2059 0.3510 0.4260
H29 H -0.0053 0.3910 0.4493
C34 C 0.048(2) 0.3102(5) 0.5266(9)
H30 H 0.1220 0.3318 0.5883
H31 H -0.0567 0.2858 0.5500
C35 C 0.407(2) 0.3098(6) 0.4921(12)
H32 H 0.3953 0.3403 0.4395
H33 H 0.5205 0.2845 0.4830
H34 H 0.4357 0.3261 0.5637
C36 C -0.0887(19) 0.2237(4) 0.3471(9)
H35 H -0.1563 0.2200 0.2726
H36 H -0.1885 0.2373 0.3891
H37 H -0.0355 0.1867 0.3740
C37 C 0.233(2) 0.2475(6) 0.2794(9)
H38 H 0.1557 0.2491 0.2064
H39 H 0.2784 0.2085 0.2965
H40 H 0.3532 0.2725 0.2863
C38 C -0.1478(19) 0.3436(5) 0.2326(9)
N1 N 0.3381(10) 0.0833(3) 0.7619(5)
N2 N 0.6591(10) 0.1641(3) 0.7752(5)
N3 N -0.1079(11) 0.0001(3) 0.8123(6)
N4 N -0.3447(11) -0.0620(3) 0.8484(6)
N5 N 1.0681(10) 0.2690(3) 0.8893(5)
N6 N 1.3196(11) 0.3285(3) 0.9575(5)
O1 O 0.1514(17) 0.0509(5) 0.5130(8)
O2 O 0.4654(17) 0.0413(4) 0.4981(8)
O3 O 0.8338(9) 0.1131(3) 0.5775(5)
H41 H 0.8346 0.0965 0.5173
H42 H 0.8773 0.1477 0.5748
O4 O 0.2411(10) -0.1173(4) 0.0816(6)
O5 O 0.3726(19) -0.0373(4) 0.0427(7)
O6 O 0.4153(12) 0.1911(4) 0.5107(6)
O7 O 0.1548(12) 0.1946(3) 0.6012(5)
O8 O -0.2105(13) 0.3108(3) 0.1611(6)
O9 O -0.2004(12) 0.3964(3) 0.2221(6)
Cd2A Cd 1.56465(9) 0.38564(2) 1.06327(4)
Cd2_2 Cd 0.43535(9) -0.11436(2) -0.06327(4)
Cd2A_2 Cd -0.43535(9) 0.38564(2) 0.06327(4)
N6A N -0.3196(11) -0.1715(3) 1.0425(5)
O4_2 O -0.7589(10) -0.1173(4) 1.0816(6)
O5_2 O -0.6274(19) -0.0373(4) 1.0427(7)
O8A O -0.7895(13) -0.1892(3) 0.8389(6)
O9A O -0.7996(12) -0.1036(3) 0.7779(6)
loop_
_geom_bond_atom_site_label_1
_geom_bond_atom_site_label_2
_geom_bond_site_symmetry_1
_geom_bond_site_symmetry_2
Cd1 N1 1_555 1_555
Cd2 N4 1_555 1_555
C1 H1 1_555 1_555
C2 C1 1_555 1_555
C3 C2 1_555 1_555
H2 C3 1_555 1_555
C4 C3 1_555 1_555
C5 C4 1_555 1_555
H3 C5 1_555 1_555
C6 C5 1_555 1_555
H4 C6 1_555 1_555
C7 C6 1_555 1_555
C8 C7 1_555 1_555
H5 C8 1_555 1_555
C9 C8 1_555 1_555
C10 C9 1_555 1_555
H6 C10 1_555 1_555
C11 C7 1_555 1_555
C12 C4 1_555 1_555
C13 H7 1_555 1_555
C14 H8 1_555 1_555
C15 C14 1_555 1_555
H9 C15 1_555 1_555
C16 H10 1_555 1_555
C17 H11 1_555 1_555
C18 C17 1_555 1_555
H12 C18 1_555 1_555
C19 C20 1_555 1_555
C20 C21 1_555 1_555
C21 C22 1_555 1_555
C22 H13 1_555 1_555
C23 C22 1_555 1_555
H14 C23 1_555 1_555
H15 C23 1_555 1_555
C24 C20 1_555 1_555
H16 C24 1_555 1_555
H17 C24 1_555 1_555
C25 C20 1_555 1_555
H18 C25 1_555 1_555
H19 C25 1_555 1_555
H20 C25 1_555 1_555
C26 C21 1_555 1_555
H21 C26 1_555 1_555
H22 C26 1_555 1_555
H23 C26 1_555 1_555
C27 C21 1_555 1_555
H24 C27 1_555 1_555
H25 C27 1_555 1_555
H26 C27 1_555 1_555
C28 C22 1_555 1_555
C29 C30 1_555 1_555
C30 C31 1_555 1_555
C31 C32 1_555 1_555
C32 H27 1_555 1_555
C33 C32 1_555 1_555
H28 C33 1_555 1_555
H29 C33 1_555 1_555
C34 C30 1_555 1_555
H30 C34 1_555 1_555
H31 C34 1_555 1_555
C35 C30 1_555 1_555
H32 C35 1_555 1_555
H33 C35 1_555 1_555
H34 C35 1_555 1_555
C36 C31 1_555 1_555
H35 C36 1_555 1_555
H36 C36 1_555 1_555
H37 C36 1_555 1_555
C37 C31 1_555 1_555
H38 C37 1_555 1_555
H39 C37 1_555 1_555
H40 C37 1_555 1_555
C38 C32 1_555 1_555
N1 C1 1_555 1_555
N2 Cd1 1_555 1_555
N3 C2 1_555 1_555
N4 C13 1_555 1_555
N5 C9 1_555 1_555
N6 C16 1_555 1_555
O1 Cd1 1_555 1_555
O2 Cd1 1_555 1_555
O3 Cd1 1_555 1_555
H41 O3 1_555 1_555
H42 O3 1_555 1_555
O4 C28 1_555 1_555
O5 C28 1_555 1_555
O6 Cd1 1_555 1_555
O7 Cd1 1_555 1_555
O8 C38 1_555 1_555
O9 C38 1_555 1_555
Cd2A N6 1_555 1_555
Cd2_2 O4 1_555 1_555
Cd2A_2 O8 1_555 1_555
N6A Cd2 1_555 1_555
O4_2 Cd2 1_555 1_555
O5_2 Cd2 1_555 1_555
O8A Cd2 1_555 1_555
O9A Cd2 1_555 1_555
C10 N2 1_555 1_555
C11 C12 1_555 1_555
C11 N2 1_555 1_555
C12 N1 1_555 1_555
C13 N3 1_555 1_555
C14 N4 1_555 1_555
C15 N3 1_555 1_555
C16 N5 1_555 1_555
C17 N6 1_555 1_555
C18 N5 1_555 1_555
C19 O1 1_555 1_555
C19 O2 1_555 1_555
C23 C24 1_555 1_555
C29 O6 1_555 1_555
C29 O7 1_555 1_555
C33 C34 1_555 1_555
O5 Cd2_2 1_555 1_555
O9 Cd2A_2 1_555 1_555

#END
