
#######################################################################
#
#                 Cambridge Crystallographic Data Centre
#                                CCDC 
#
#######################################################################
#
# If this CIF has been generated from an entry in the Cambridge 
# Structural Database, then it will include bibliographic, chemical, 
# crystal, experimental, refinement or atomic coordinate data resulting 
# from the CCDC's data processing and validation procedures.
#
#######################################################################

data_AHINAH
_symmetry_cell_setting           orthorhombic
_symmetry_space_group_name_H-M   'P 21 21 21'
_symmetry_Int_Tables_number      19
_space_group_name_Hall           'P 2ac 2ab'
loop_
_symmetry_equiv_pos_site_id
_symmetry_equiv_pos_as_xyz
1 x,y,z
2 1/2-x,-y,1/2+z
3 -x,1/2+y,1/2-z
4 1/2+x,1/2-y,-z
_cell_length_a                   16.902(3)
_cell_length_b                   18.351(2)
_cell_length_c                   18.787(3)
_cell_angle_alpha                90
_cell_angle_beta                 90
_cell_angle_gamma                90
_cell_volume                     5827.14
loop_
_atom_site_label
_atom_site_type_symbol
_atom_site_fract_x
_atom_site_fract_y
_atom_site_fract_z
Cd1 Cd 0.67254(2) 0.35466(2) 0.40377(2)
Cd2 Cd 0.72762(2) -0.14536(2) 0.40870(2)
C1 C 0.5013(3) 0.3191(3) 0.4784(3)
H1 H 0.5023 0.2821 0.4446
C2 C 0.4332(3) 0.3282(3) 0.5208(3)
C3 C 0.4286(3) 0.3821(3) 0.5693(3)
H2 H 0.3828 0.3892 0.5959
C4 C 0.4951(3) 0.4272(3) 0.5784(3)
C5 C 0.4953(4) 0.4877(3) 0.6270(3)
H3 H 0.4503 0.4976 0.6537
C6 C 0.5598(4) 0.5304(3) 0.6343(3)
H4 H 0.5587 0.5689 0.6666
C7 C 0.6296(3) 0.5178(3) 0.5936(3)
C8 C 0.6981(3) 0.5608(3) 0.6009(4)
H5 H 0.6989 0.6004 0.6318
C9 C 0.7636(3) 0.5428(3) 0.5613(3)
C10 C 0.7603(3) 0.4828(3) 0.5155(3)
H6 H 0.8057 0.4702 0.4903
C11 C 0.6312(3) 0.4601(3) 0.5450(3)
C12 C 0.5616(3) 0.4150(3) 0.5354(3)
C13 C 0.3214(3) 0.2506(3) 0.5607(3)
H7 H 0.3285 0.2585 0.6092
C14 C 0.2772(4) 0.2131(3) 0.4622(3)
H8 H 0.2458 0.1893 0.4289
C15 C 0.3392(4) 0.2547(3) 0.4461(3)
H9 H 0.3589 0.2646 0.4009
C16 C 0.9091(4) 0.5617(4) 0.5642(4)
H10 H 0.9257 0.5135 0.5619
C17 C 0.9555(4) 0.6195(4) 0.5667(5)
H11 H 1.0105 0.6181 0.5668
C18 C 0.8390(4) 0.6580(4) 0.5670(4)
H12 H 0.7951 0.6885 0.5665
C19 C 0.6588(3) -0.0152(3) 0.5206(3)
H13 H 0.6104 -0.0291 0.5013
C20 C 0.6601(3) 0.0454(3) 0.5655(3)
C21 C 0.7287(3) 0.0669(3) 0.5926(3)
H14 H 0.7304 0.1077 0.6219
C22 C 0.7998(3) 0.0281(3) 0.5773(3)
C23 C 0.8754(3) 0.0466(3) 0.6073(3)
H15 H 0.8800 0.0872 0.6367
C24 C 0.9394(3) 0.0056(3) 0.5931(3)
H16 H 0.9881 0.0182 0.6124
C25 C 0.9332(3) -0.0568(3) 0.5489(3)
C26 C 0.9979(3) -0.1043(3) 0.5354(3)
H17 H 1.0474 -0.0940 0.5546
C27 C 0.9878(3) -0.1640(3) 0.4949(3)
C28 C 0.9139(3) -0.1767(3) 0.4629(3)
H18 H 0.9082 -0.2172 0.4335
C29 C 0.8607(3) -0.0756(3) 0.5164(3)
C30 C 0.7921(3) -0.0319(3) 0.5324(3)
C31 C 0.5768(4) 0.1556(4) 0.5828(4)
H19 H 0.6173 0.1894 0.5774
C32 C 0.4655(4) 0.1099(4) 0.6006(5)
H20 H 0.4117 0.1054 0.6101
C33 C 0.5152(4) 0.0539(3) 0.5900(4)
H21 H 0.5025 0.0046 0.5906
C34 C 1.0946(3) -0.2442(3) 0.5387(3)
H22 H 1.0876 -0.2335 0.5866
C35 C 1.1377(4) -0.2897(3) 0.4435(4)
H23 H 1.1671 -0.3179 0.4120
C36 C 1.0786(4) -0.2446(3) 0.4241(3)
H24 H 1.0609 -0.2352 0.3782
C37 C 0.6403(4) 0.2361(3) 0.3164(3)
C38 C 0.6262(4) 0.1640(3) 0.2768(3)
C39 C 0.6845(4) 0.1035(3) 0.3079(3)
C40 C 0.6424(3) 0.0336(3) 0.2852(3)
H25 H 0.6572 0.0242 0.2356
C41 C 0.5546(4) 0.0485(3) 0.2862(4)
H26 H 0.5302 0.0261 0.3275
H27 H 0.5297 0.0291 0.2437
C42 C 0.5457(4) 0.1322(3) 0.2890(5)
H28 H 0.5093 0.1487 0.2525
H29 H 0.5254 0.1472 0.3351
C43 C 0.6415(5) 0.1756(4) 0.1983(3)
H30 H 0.6419 0.1293 0.1744
H31 H 0.6917 0.1991 0.1921
H32 H 0.6005 0.2056 0.1786
C44 C 0.7694(4) 0.1084(3) 0.2788(4)
H33 H 0.8021 0.0734 0.3026
H34 H 0.7898 0.1565 0.2869
H35 H 0.7691 0.0985 0.2286
C45 C 0.6876(4) 0.1092(3) 0.3896(3)
H36 H 0.7237 0.0735 0.4079
H37 H 0.6358 0.1006 0.4088
H38 H 0.7051 0.1570 0.4030
C46 C 0.6679(4) -0.0344(3) 0.3293(3)
C47 C 0.7449(4) 0.7380(3) 0.3148(3)
C48 C 0.7560(3) 0.6676(3) 0.2730(3)
C49 C 0.7674(4) 0.6012(3) 0.3248(3)
C50 C 0.7410(3) 0.5367(3) 0.2786(3)
H39 H 0.7861 0.5226 0.2489
C51 C 0.6778(4) 0.5650(3) 0.2300(4)
H40 H 0.6857 0.5463 0.1822
H41 H 0.6261 0.5494 0.2466
C52 C 0.6824(4) 0.6468(3) 0.2297(3)
H42 H 0.6353 0.6676 0.2512
H43 H 0.6869 0.6649 0.1814
C53 C 0.8257(4) 0.6769(3) 0.2214(3)
H44 H 0.8167 0.7186 0.1917
H45 H 0.8304 0.6341 0.1923
H46 H 0.8736 0.6836 0.2481
C54 C 0.8504(4) 0.5922(3) 0.3535(4)
H47 H 0.8641 0.6340 0.3816
H48 H 0.8868 0.5876 0.3146
H49 H 0.8528 0.5492 0.3825
C55 C 0.7114(4) 0.6111(3) 0.3876(3)
H50 H 0.6585 0.6185 0.3703
H51 H 0.7275 0.6526 0.4150
H52 H 0.7128 0.5683 0.4170
C56 C 0.7176(4) 0.4701(3) 0.3229(3)
N1 N 0.5637(2) 0.3618(2) 0.4855(2)
N2 N 0.6966(3) 0.4437(2) 0.5064(3)
N3 N 0.3682(3) 0.2801(2) 0.5097(2)
N4 N 0.2657(3) 0.2101(2) 0.5344(2)
N5 N 0.8334(3) 0.5847(3) 0.5656(3)
N6 N 0.9110(4) 0.6820(3) 0.5692(4)
N7 N 0.7221(3) -0.0541(2) 0.5037(3)
N8 N 0.8518(2) -0.1337(2) 0.4727(2)
N9 N 0.5881(3) 0.0836(3) 0.5780(3)
N10 N 0.5046(3) 0.1735(3) 0.5957(4)
N11 N 1.0501(3) -0.2156(2) 0.4857(3)
N12 N 1.1483(3) -0.2884(2) 0.5147(3)
O1 O 0.5907(3) 0.2621(2) 0.3569(3)
O2 O 0.7050(3) 0.2687(2) 0.3078(2)
O3 O 0.6220(3) -0.0662(2) 0.3683(2)
O4 O 0.7408(3) -0.0535(2) 0.3253(2)
O5 O 0.6781(3) 0.7667(2) 0.3204(2)
O6 O 0.8030(2) 0.7648(2) 0.3465(2)
O7 O 0.6470(3) 0.4578(2) 0.3368(2)
O8 O 0.7719(3) 0.4294(2) 0.3462(2)
Cd1C Cd 0.17254(2) 0.14534(2) 0.59623(2)
Cd2C Cd 1.22762(2) -0.35464(2) 0.59130(2)
Cd2_2 Cd 0.72762(2) 0.85464(2) 0.40870(2)
N4C N 0.7657(3) 0.2899(2) 0.4656(2)
N12C N 0.6483(3) -0.2116(2) 0.4853(3)
O5_2 O 0.6781(3) -0.2333(2) 0.3204(2)
O6_2 O 0.8030(2) -0.2352(2) 0.3465(2)
O9 O 0.8300(3) 0.3301(2) 0.2412(2)
H53 H 0.7905 0.3108 0.2618
H54 H 0.8677 0.3347 0.2708
O10 O 0.5786(3) 0.8107(2) 0.2027(2)
H55 H 0.5437 0.8147 0.1704
H56 H 0.5623 0.7948 0.2426
O11 O 0.8735(3) 0.9525(3) 0.2412(2)
H57 H 0.8258 0.9412 0.2319
H58 H 0.8937 0.9673 0.2024
O12 O 0.9455(3) 0.8256(3) 0.2949(3)
H59 H 0.9237 0.8639 0.2788
H60 H 0.9433 0.7922 0.2636
O13 O 0.4524(3) 0.2667(2) 0.7143(3)
H61 H 0.4679 0.2399 0.6801
H62 H 0.4028 0.2735 0.7110
O14 O 0.9391(5) 0.0913(4) 0.1883(4)
H63 H 0.9074 0.0750 0.2195
H64 H 0.9638 0.1293 0.2017
loop_
_geom_bond_atom_site_label_1
_geom_bond_atom_site_label_2
_geom_bond_site_symmetry_1
_geom_bond_site_symmetry_2
Cd1 N1 1_555 1_555
Cd2 N7 1_555 1_555
C1 H1 1_555 1_555
C2 C1 1_555 1_555
C3 C2 1_555 1_555
H2 C3 1_555 1_555
C4 C3 1_555 1_555
C5 C4 1_555 1_555
H3 C5 1_555 1_555
C6 C5 1_555 1_555
H4 C6 1_555 1_555
C7 C6 1_555 1_555
C8 C7 1_555 1_555
H5 C8 1_555 1_555
C9 C8 1_555 1_555
C10 C9 1_555 1_555
H6 C10 1_555 1_555
C11 C7 1_555 1_555
C12 C4 1_555 1_555
C13 H7 1_555 1_555
C14 H8 1_555 1_555
C15 C14 1_555 1_555
H9 C15 1_555 1_555
C16 H10 1_555 1_555
C17 C16 1_555 1_555
H11 C17 1_555 1_555
C18 H12 1_555 1_555
C19 H13 1_555 1_555
C20 C19 1_555 1_555
C21 C20 1_555 1_555
H14 C21 1_555 1_555
C22 C21 1_555 1_555
C23 C22 1_555 1_555
H15 C23 1_555 1_555
C24 C23 1_555 1_555
H16 C24 1_555 1_555
C25 C24 1_555 1_555
C26 C25 1_555 1_555
H17 C26 1_555 1_555
C27 C26 1_555 1_555
C28 C27 1_555 1_555
H18 C28 1_555 1_555
C29 C25 1_555 1_555
C30 C22 1_555 1_555
C31 H19 1_555 1_555
C32 H20 1_555 1_555
C33 C32 1_555 1_555
H21 C33 1_555 1_555
C34 H22 1_555 1_555
C35 H23 1_555 1_555
C36 C35 1_555 1_555
H24 C36 1_555 1_555
C37 C38 1_555 1_555
C38 C39 1_555 1_555
C39 C40 1_555 1_555
C40 H25 1_555 1_555
C41 C40 1_555 1_555
H26 C41 1_555 1_555
H27 C41 1_555 1_555
C42 C38 1_555 1_555
H28 C42 1_555 1_555
H29 C42 1_555 1_555
C43 C38 1_555 1_555
H30 C43 1_555 1_555
H31 C43 1_555 1_555
H32 C43 1_555 1_555
C44 C39 1_555 1_555
H33 C44 1_555 1_555
H34 C44 1_555 1_555
H35 C44 1_555 1_555
C45 C39 1_555 1_555
H36 C45 1_555 1_555
H37 C45 1_555 1_555
H38 C45 1_555 1_555
C46 C40 1_555 1_555
C47 C48 1_555 1_555
C48 C49 1_555 1_555
C49 C50 1_555 1_555
C50 H39 1_555 1_555
C51 C50 1_555 1_555
H40 C51 1_555 1_555
H41 C51 1_555 1_555
C52 C48 1_555 1_555
H42 C52 1_555 1_555
H43 C52 1_555 1_555
C53 C48 1_555 1_555
H44 C53 1_555 1_555
H45 C53 1_555 1_555
H46 C53 1_555 1_555
C54 C49 1_555 1_555
H47 C54 1_555 1_555
H48 C54 1_555 1_555
H49 C54 1_555 1_555
C55 C49 1_555 1_555
H50 C55 1_555 1_555
H51 C55 1_555 1_555
H52 C55 1_555 1_555
C56 C50 1_555 1_555
N1 C1 1_555 1_555
N2 Cd1 1_555 1_555
N3 C2 1_555 1_555
N4 C13 1_555 1_555
N5 C9 1_555 1_555
N6 C17 1_555 1_555
N7 C19 1_555 1_555
N8 Cd2 1_555 1_555
N9 C20 1_555 1_555
N10 C31 1_555 1_555
N11 C27 1_555 1_555
N12 C34 1_555 1_555
O1 Cd1 1_555 1_555
O2 Cd1 1_555 1_555
O3 Cd2 1_555 1_555
O4 Cd2 1_555 1_555
O5 C47 1_555 1_555
O6 C47 1_555 1_555
O7 Cd1 1_555 1_555
O8 Cd1 1_555 1_555
O9 H53 1_555 1_555
H54 O9 1_555 1_555
O10 H55 1_555 1_555
H56 O10 1_555 1_555
O11 H57 1_555 1_555
H58 O11 1_555 1_555
O12 H59 1_555 1_555
H60 O12 1_555 1_555
O13 H61 1_555 1_555
H62 O13 1_555 1_555
O14 H63 1_555 1_555
H64 O14 1_555 1_555
Cd1C N4 1_555 1_555
Cd2C N12 1_555 1_555
Cd2_2 O5 1_555 1_555
N4C Cd1 1_555 1_555
N12C Cd2 1_555 1_555
O5_2 Cd2 1_555 1_555
O6_2 Cd2 1_555 1_555
C10 N2 1_555 1_555
C11 C12 1_555 1_555
C11 N2 1_555 1_555
C12 N1 1_555 1_555
C13 N3 1_555 1_555
C14 N4 1_555 1_555
C15 N3 1_555 1_555
C16 N5 1_555 1_555
C18 N5 1_555 1_555
C18 N6 1_555 1_555
C28 N8 1_555 1_555
C29 C30 1_555 1_555
C29 N8 1_555 1_555
C30 N7 1_555 1_555
C31 N9 1_555 1_555
C32 N10 1_555 1_555
C33 N9 1_555 1_555
C34 N11 1_555 1_555
C35 N12 1_555 1_555
C36 N11 1_555 1_555
C37 O1 1_555 1_555
C37 O2 1_555 1_555
C41 C42 1_555 1_555
C46 O3 1_555 1_555
C46 O4 1_555 1_555
C51 C52 1_555 1_555
C56 O7 1_555 1_555
C56 O8 1_555 1_555
O6 Cd2_2 1_555 1_555

#END
