
#######################################################################
#
#                 Cambridge Crystallographic Data Centre
#                                CCDC 
#
#######################################################################
#
# If this CIF has been generated from an entry in the Cambridge 
# Structural Database, then it will include bibliographic, chemical, 
# crystal, experimental, refinement or atomic coordinate data resulting 
# from the CCDC's data processing and validation procedures.
#
#######################################################################

data_AHIPEN
_symmetry_cell_setting           monoclinic
_symmetry_space_group_name_H-M   'P 21/c'
_symmetry_Int_Tables_number      14
_space_group_name_Hall           '-P 2ybc'
loop_
_symmetry_equiv_pos_site_id
_symmetry_equiv_pos_as_xyz
1 x,y,z
2 -x,1/2+y,1/2-z
3 -x,-y,-z
4 x,1/2-y,1/2+z
_cell_length_a                   15.3130(15)
_cell_length_b                   13.3096(13)
_cell_length_c                   27.783(3)
_cell_angle_alpha                90
_cell_angle_beta                 102.9330(10)
_cell_angle_gamma                90
_cell_volume                     5518.81
loop_
_atom_site_label
_atom_site_type_symbol
_atom_site_fract_x
_atom_site_fract_y
_atom_site_fract_z
Ni1 Ni -0.17155(3) 0.50255(3) 0.248127(13)
K2 K 0.0000 0.5000 0.0000
K3 K -0.03528(5) 0.68599(5) 0.24181(2)
F1 F -0.13759(16) 0.38811(16) 0.07932(7)
F2 F -0.24247(14) 0.45405(16) 0.10932(8)
F3 F -0.16902(13) 0.32730(13) 0.14533(7)
F4 F -0.00539(17) 0.52814(15) 0.09489(8)
F5 F -0.13368(17) 0.60084(16) 0.08686(7)
F6 F -0.02380(15) 0.64347(14) 0.14555(7)
F7 F 0.05767(13) 0.48782(14) 0.20038(7)
F8 F -0.02704(13) 0.36875(13) 0.21669(6)
F9 F 0.02220(14) 0.36271(14) 0.15029(7)
F10 F -0.38600(19) 0.5935(2) 0.26210(14)
F11 F -0.3037(2) 0.6747(2) 0.32203(10)
F12 F -0.40658(17) 0.75193(19) 0.26997(10)
F13 F -0.22816(16) 0.84002(16) 0.29464(8)
F14 F -0.31183(13) 0.87494(14) 0.22391(7)
F15 F -0.17465(15) 0.82938(14) 0.23047(9)
F16 F -0.2725(2) 0.71719(19) 0.15742(8)
F17 F -0.32548(16) 0.57982(17) 0.17875(10)
F18 F -0.40357(17) 0.71524(19) 0.17368(10)
F19 F 0.13537(13) 0.50977(15) 0.34082(7)
F20 F 0.10204(14) 0.57658(14) 0.40488(6)
F21 F 0.06740(13) 0.65147(13) 0.33464(7)
F22 F -0.07911(13) 0.34732(13) 0.36066(6)
F23 F 0.02832(14) 0.34514(13) 0.32217(6)
F24 F 0.05593(13) 0.37959(13) 0.39965(6)
F25 F -0.05936(14) 0.52467(14) 0.42129(6)
F26 F -0.08176(14) 0.65221(13) 0.37192(7)
F27 F -0.16685(13) 0.52225(14) 0.35621(7)
F28 F -0.41094(15) 0.22543(18) 0.20245(8)
F29 F -0.33829(17) 0.3322(2) 0.16870(8)
F30 F -0.42166(15) 0.38400(18) 0.21623(8)
F31 F -0.22599(14) 0.17844(16) 0.21009(7)
F32 F -0.28147(16) 0.12696(15) 0.26999(9)
F33 F -0.15502(13) 0.20220(16) 0.28445(7)
F34 F -0.33836(16) 0.40982(16) 0.31171(8)
F35 F -0.25778(15) 0.28522(17) 0.34252(7)
F36 F -0.39261(15) 0.26108(18) 0.30163(8)
O1 O -0.12903(14) 0.53511(15) 0.18796(7)
O2 O -0.20056(14) 0.64372(15) 0.25723(7)
O3 O -0.05289(14) 0.51824(14) 0.29316(7)
O4 O -0.22364(18) 0.37765(18) 0.25315(11)
O5 O 0.09325(15) 0.33132(16) 0.04019(8)
O6 O 0.17804(16) 0.52015(16) 0.05655(8)
O7 O 0.06615(15) 0.68930(16) 0.03181(8)
C1 C -0.0937(2) 0.4860(2) 0.15452(10)
C2 C -0.1615(2) 0.4127(2) 0.12206(12)
C3 C -0.0648(3) 0.5650(2) 0.11996(12)
C4 C -0.0091(2) 0.4249(2) 0.18001(12)
C5 C -0.2757(2) 0.6993(2) 0.24188(12)
C6 C -0.3438(3) 0.6798(3) 0.27460(19)
C7 C -0.2483(2) 0.8122(2) 0.24777(12)
C8 C -0.3198(3) 0.6788(3) 0.18706(16)
C9 C -0.0200(2) 0.5067(2) 0.34233(10)
C10 C 0.0718(2) 0.5611(2) 0.35610(11)
C11 C -0.0037(2) 0.3934(2) 0.35663(10)
C12 C -0.0822(2) 0.5517(2) 0.37336(11)
C13 C -0.2828(2) 0.3061(2) 0.25510(11)
C14 C -0.3647(3) 0.3109(3) 0.20986(14)
C15 C -0.2367(2) 0.2024(2) 0.25526(12)
C16 C -0.3186(3) 0.3156(3) 0.30299(13)
C17 C 0.0719(2) 0.2423(2) 0.01104(12)
H1 H 0.1009 0.1834 0.0297
H2 H 0.0943 0.2483 -0.0196
C18 C 0.1874(2) 0.3418(3) 0.05937(14)
H3 H 0.2189 0.3447 0.0319
H4 H 0.2105 0.2834 0.0804
C19 C 0.2038(2) 0.4361(3) 0.08896(13)
H5 H 0.1684 0.4356 0.1147
H6 H 0.2680 0.4413 0.1054
C20 C 0.1960(2) 0.6132(3) 0.08196(12)
H7 H 0.2613 0.6210 0.0950
H8 H 0.1661 0.6150 0.1101
C21 C 0.1614(2) 0.6969(3) 0.04649(13)
H9 H 0.1784 0.7626 0.0625
H10 H 0.1879 0.6919 0.0172
C22 C -0.0273(2) 0.2285(2) -0.00149(12)
H11 H -0.0503 0.2267 0.0291
H12 H -0.0429 0.1644 -0.0194
O7B O -0.06615(15) 0.31070(16) -0.03181(8)
C21B C -0.1614(2) 0.3031(3) -0.04649(13)
C20B C -0.1960(2) 0.3868(3) -0.08196(12)
O6B O -0.17804(16) 0.47985(16) -0.05655(8)
C19B C -0.2038(2) 0.5639(3) -0.08896(13)
C18B C -0.1874(2) 0.6582(3) -0.05937(14)
O5B O -0.09325(15) 0.66868(16) -0.04019(8)
C17B C -0.0719(2) 0.7577(2) -0.01104(12)
H1B H -0.1009 0.8166 -0.0297
H2B H -0.0943 0.7517 0.0196
C22B C 0.0273(2) 0.7715(2) 0.00149(12)
H11B H 0.0503 0.7733 -0.0291
H12B H 0.0429 0.8356 0.0194
H3B H -0.2189 0.6553 -0.0319
H4B H -0.2105 0.7166 -0.0804
H5B H -0.1684 0.5644 -0.1147
H6B H -0.2680 0.5587 -0.1054
H7B H -0.2613 0.3790 -0.0950
H8B H -0.1661 0.3850 -0.1101
H9B H -0.1784 0.2374 -0.0625
H10B H -0.1879 0.3081 -0.0172
F1B F 0.13759(16) 0.61189(16) -0.07932(7)
F2B F 0.24247(14) 0.54595(16) -0.10932(8)
F3B F 0.16902(13) 0.67270(13) -0.14533(7)
F4B F 0.00539(17) 0.47186(15) -0.09489(8)
F5B F 0.13368(17) 0.39916(16) -0.08686(7)
F6B F 0.02380(15) 0.35653(14) -0.14555(7)
F7B F -0.05767(13) 0.51218(14) -0.20038(7)
F8B F 0.02704(13) 0.63125(13) -0.21669(6)
F9B F -0.02220(14) 0.63729(14) -0.15029(7)
O1B O 0.12903(14) 0.46489(15) -0.18796(7)
C1B C 0.0937(2) 0.5140(2) -0.15452(10)
C2B C 0.1615(2) 0.5873(2) -0.12206(12)
C3B C 0.0648(3) 0.4350(2) -0.11996(12)
C4B C 0.0091(2) 0.5751(2) -0.18001(12)
Ni1B Ni 0.17155(3) 0.49745(3) -0.248127(13)
K3B K 0.03528(5) 0.31401(5) -0.24181(2)
F19A F -0.13537(13) 1.00977(15) 0.15918(7)
F20A F -0.10204(14) 1.07658(14) 0.09512(6)
F21A F -0.06740(13) 1.15147(13) 0.16536(7)
F22A F 0.07911(13) 0.84732(13) 0.13934(6)
F23A F -0.02832(14) 0.84514(13) 0.17783(6)
F24A F -0.05593(13) 0.87959(13) 0.10035(6)
F25A F 0.05936(14) 1.02467(14) 0.07871(6)
F26A F 0.08176(14) 1.15221(13) 0.12808(7)
F27A F 0.16685(13) 1.02225(14) 0.14379(7)
O3A O 0.05289(14) 1.01824(14) 0.20684(7)
C9A C 0.0200(2) 1.0067(2) 0.15767(10)
C10A C -0.0718(2) 1.0611(2) 0.14390(11)
C11A C 0.0037(2) 0.8934(2) 0.14337(10)
C12A C 0.0822(2) 1.0517(2) 0.12664(11)
F28A F 0.41094(15) 0.72543(18) 0.29755(8)
F29A F 0.33829(17) 0.8322(2) 0.33130(8)
F30A F 0.42166(15) 0.88400(18) 0.28377(8)
F31A F 0.22599(14) 0.67844(16) 0.28991(7)
F32A F 0.28147(16) 0.62696(15) 0.23001(9)
F33A F 0.15502(13) 0.70220(16) 0.21555(7)
F34A F 0.33836(16) 0.90982(16) 0.18829(8)
F35A F 0.25778(15) 0.78522(17) 0.15748(7)
F36A F 0.39261(15) 0.76108(18) 0.19837(8)
O4A O 0.22364(18) 0.87765(18) 0.24685(11)
C13A C 0.2828(2) 0.8061(2) 0.24490(11)
C14A C 0.3647(3) 0.8109(3) 0.29014(14)
C15A C 0.2367(2) 0.7024(2) 0.24474(12)
C16A C 0.3186(3) 0.8156(3) 0.19701(13)
F10B F 0.38600(19) 0.4065(2) -0.26210(14)
F11B F 0.3037(2) 0.3253(2) -0.32203(10)
F12B F 0.40658(17) 0.24807(19) -0.26997(10)
F13B F 0.22816(16) 0.15998(16) -0.29464(8)
F14B F 0.31183(13) 0.12506(14) -0.22391(7)
F15B F 0.17465(15) 0.17062(14) -0.23047(9)
F16B F 0.2725(2) 0.28281(19) -0.15742(8)
F17B F 0.32548(16) 0.42018(17) -0.17875(10)
F18B F 0.40357(17) 0.28476(19) -0.17368(10)
O2B O 0.20056(14) 0.35628(15) -0.25723(7)
C5B C 0.2757(2) 0.3007(2) -0.24188(12)
C6B C 0.3438(3) 0.3202(3) -0.27460(19)
C7B C 0.2483(2) 0.1878(2) -0.24777(12)
C8B C 0.3198(3) 0.3212(3) -0.18706(16)
F8A F 0.02704(13) 0.86875(13) 0.28331(6)
K3A K 0.03528(5) 0.18599(5) 0.25819(2)
K3C K -0.03528(5) 0.81401(5) -0.25819(2)
O3B O 0.05289(14) 0.48176(14) -0.29316(7)
O4B O 0.22364(18) 0.62235(18) -0.25315(11)
F8C F -0.02704(13) 0.13125(13) -0.28331(6)
F21B F -0.06740(13) 0.34853(13) -0.33464(7)
F23C F 0.02832(14) 0.15486(13) -0.17783(6)
F33C F -0.15502(13) 0.29780(16) -0.21555(7)
K3A_2 K 0.03528(5) 1.18599(5) 0.25819(2)
Ni1A Ni 0.17155(3) 1.00255(3) 0.251873(13)
K1 K 0.5000 0.5000 0.5000
O8 O 0.61555(15) 0.33682(15) 0.50198(7)
O9 O 0.49652(15) 0.39117(16) 0.41412(7)
O10 O 0.40739(15) 0.57681(16) 0.40944(7)
C23 C 0.6439(3) 0.2873(3) 0.54862(12)
H13 H 0.6955 0.2428 0.5481
H14 H 0.5945 0.2457 0.5555
C24 C 0.5896(2) 0.2681(2) 0.46204(11)
H15 H 0.5356 0.2305 0.4656
H16 H 0.6384 0.2193 0.4621
C25 C 0.5700(2) 0.3263(2) 0.41448(11)
H17 H 0.6233 0.3661 0.4116
H18 H 0.5555 0.2796 0.3861
C26 C 0.4730(2) 0.4489(2) 0.36938(11)
H19 H 0.4635 0.4038 0.3403
H20 H 0.5219 0.4963 0.3674
C27 C 0.3884(2) 0.5059(2) 0.36981(11)
H21 H 0.3673 0.5413 0.3380
H22 H 0.3409 0.4590 0.3745
C28 C 0.6701(2) 0.3661(3) 0.58772(12)
H23 H 0.7164 0.4107 0.5794
H24 H 0.6954 0.3340 0.6200
O10B O 0.59261(15) 0.42319(16) 0.59056(7)
C27B C 0.6116(2) 0.4941(2) 0.63019(11)
C26B C 0.5270(2) 0.5511(2) 0.63062(11)
O9B O 0.50348(15) 0.60883(16) 0.58588(7)
C25B C 0.4300(2) 0.6737(2) 0.58552(11)
C24B C 0.4104(2) 0.7319(2) 0.53796(11)
O8B O 0.38445(15) 0.66318(15) 0.49802(7)
C23B C 0.3561(3) 0.7127(3) 0.45138(12)
H13B H 0.3045 0.7572 0.4519
H14B H 0.4055 0.7543 0.4445
C28B C 0.3299(2) 0.6339(3) 0.41228(12)
H23B H 0.2836 0.5893 0.4206
H24B H 0.3046 0.6660 0.3800
H15B H 0.4644 0.7695 0.5344
H16B H 0.3616 0.7807 0.5379
H17B H 0.3767 0.6339 0.5884
H18B H 0.4445 0.7204 0.6139
H19B H 0.5365 0.5962 0.6597
H20B H 0.4781 0.5037 0.6326
H21B H 0.6327 0.4587 0.6620
H22B H 0.6591 0.5410 0.6255
C29 C 0.2757(3) 0.1150(3) -0.02487(13)
H25 H 0.2390 0.0943 -0.0555
C30 C 0.3335(3) 0.1936(3) -0.02358(15)
H26 H 0.3377 0.2262 -0.0534
C31 C 0.3858(3) 0.2262(3) 0.02070(15)
H27 H 0.4251 0.2816 0.0214
C32 C 0.3807(3) 0.1781(3) 0.06389(14)
H28 H 0.4169 0.2003 0.0944
C33 C 0.3228(2) 0.0971(3) 0.06289(13)
H29 H 0.3196 0.0640 0.0927
C34 C 0.2699(2) 0.0646(3) 0.01854(13)
C35 C 0.2072(3) -0.0199(3) 0.01618(15)
H30 H 0.2116 -0.0470 0.0494
H31 H 0.2224 -0.0726 -0.0052
H32 H 0.1460 0.0035 0.0028
loop_
_geom_bond_atom_site_label_1
_geom_bond_atom_site_label_2
_geom_bond_site_symmetry_1
_geom_bond_site_symmetry_2
Ni1 O1 1_555 1_555
K1 O8 1_555 1_555
K2 F4 1_555 1_555
K3 F6 1_555 1_555
F1 C2 1_555 1_555
F2 C2 1_555 1_555
F3 C2 1_555 1_555
F4 C3 1_555 1_555
F5 C3 1_555 1_555
F6 C3 1_555 1_555
F7 C4 1_555 1_555
F8 C4 1_555 1_555
F9 C4 1_555 1_555
F10 C6 1_555 1_555
F11 C6 1_555 1_555
F12 C6 1_555 1_555
F13 C7 1_555 1_555
F14 C7 1_555 1_555
F15 K3 1_555 1_555
F16 C8 1_555 1_555
F17 C8 1_555 1_555
F18 C8 1_555 1_555
F19 C10 1_555 1_555
F20 C10 1_555 1_555
F21 K3 1_555 1_555
F22 C11 1_555 1_555
F23 C11 1_555 1_555
F24 C11 1_555 1_555
F25 C12 1_555 1_555
F26 C12 1_555 1_555
F27 C12 1_555 1_555
F28 C14 1_555 1_555
F29 C14 1_555 1_555
F30 C14 1_555 1_555
F31 C15 1_555 1_555
F32 C15 1_555 1_555
F33 C15 1_555 1_555
F34 C16 1_555 1_555
F35 C16 1_555 1_555
F36 C16 1_555 1_555
O1 K3 1_555 1_555
O2 Ni1 1_555 1_555
O3 Ni1 1_555 1_555
O4 Ni1 1_555 1_555
O5 K2 1_555 1_555
O6 K2 1_555 1_555
O7 K2 1_555 1_555
O8 C23 1_555 1_555
O9 K1 1_555 1_555
O10 K1 1_555 1_555
C1 O1 1_555 1_555
C2 C1 1_555 1_555
C3 C1 1_555 1_555
C4 C1 1_555 1_555
C5 O2 1_555 1_555
C6 C5 1_555 1_555
C7 F15 1_555 1_555
C8 C5 1_555 1_555
C9 O3 1_555 1_555
C10 F21 1_555 1_555
C11 C9 1_555 1_555
C12 C9 1_555 1_555
C13 O4 1_555 1_555
C14 C13 1_555 1_555
C15 C13 1_555 1_555
C16 C13 1_555 1_555
C17 O5 1_555 1_555
H1 C17 1_555 1_555
H2 C17 1_555 1_555
C18 O5 1_555 1_555
H3 C18 1_555 1_555
H4 C18 1_555 1_555
C19 O6 1_555 1_555
H5 C19 1_555 1_555
H6 C19 1_555 1_555
C20 O6 1_555 1_555
H7 C20 1_555 1_555
H8 C20 1_555 1_555
C21 O7 1_555 1_555
H9 C21 1_555 1_555
H10 C21 1_555 1_555
C22 C17 1_555 1_555
H11 C22 1_555 1_555
H12 C22 1_555 1_555
C23 H13 1_555 1_555
H14 C23 1_555 1_555
C24 O8 1_555 1_555
H15 C24 1_555 1_555
H16 C24 1_555 1_555
C25 O9 1_555 1_555
H17 C25 1_555 1_555
H18 C25 1_555 1_555
C26 O9 1_555 1_555
H19 C26 1_555 1_555
H20 C26 1_555 1_555
C27 O10 1_555 1_555
H21 C27 1_555 1_555
H22 C27 1_555 1_555
C28 C23 1_555 1_555
H23 C28 1_555 1_555
H24 C28 1_555 1_555
C29 H25 1_555 1_555
C30 C29 1_555 1_555
H26 C30 1_555 1_555
C31 C30 1_555 1_555
H27 C31 1_555 1_555
C32 C31 1_555 1_555
H28 C32 1_555 1_555
C33 C32 1_555 1_555
H29 C33 1_555 1_555
C34 C29 1_555 1_555
C35 C34 1_555 1_555
H30 C35 1_555 1_555
H31 C35 1_555 1_555
H32 C35 1_555 1_555
O7B K2 1_555 1_555
C21B O7B 1_555 1_555
C20B C21B 1_555 1_555
O6B K2 1_555 1_555
C19B O6B 1_555 1_555
C18B C19B 1_555 1_555
O5B K2 1_555 1_555
C17B O5B 1_555 1_555
H1B C17B 1_555 1_555
H2B C17B 1_555 1_555
C22B O7 1_555 1_555
H11B C22B 1_555 1_555
H12B C22B 1_555 1_555
H3B C18B 1_555 1_555
H4B C18B 1_555 1_555
H5B C19B 1_555 1_555
H6B C19B 1_555 1_555
H7B C20B 1_555 1_555
H8B C20B 1_555 1_555
H9B C21B 1_555 1_555
H10B C21B 1_555 1_555
O10B K1 1_555 1_555
C27B O10B 1_555 1_555
C26B C27B 1_555 1_555
O9B K1 1_555 1_555
C25B O9B 1_555 1_555
C24B C25B 1_555 1_555
O8B K1 1_555 1_555
C23B O8B 1_555 1_555
H13B C23B 1_555 1_555
H14B C23B 1_555 1_555
C28B O10 1_555 1_555
H23B C28B 1_555 1_555
H24B C28B 1_555 1_555
H15B C24B 1_555 1_555
H16B C24B 1_555 1_555
H17B C25B 1_555 1_555
H18B C25B 1_555 1_555
H19B C26B 1_555 1_555
H20B C26B 1_555 1_555
H21B C27B 1_555 1_555
H22B C27B 1_555 1_555
F1B C2B 1_555 1_555
F2B C2B 1_555 1_555
F3B C2B 1_555 1_555
F4B K2 1_555 1_555
F5B C3B 1_555 1_555
F6B C3B 1_555 1_555
F7B C4B 1_555 1_555
F8B C4B 1_555 1_555
F9B C4B 1_555 1_555
O1B C1B 1_555 1_555
C1B C2B 1_555 1_555
C3B F4B 1_555 1_555
C4B C1B 1_555 1_555
Ni1B O1B 1_555 1_555
K3B F6B 1_555 1_555
F19A C10A 1_555 1_555
F20A C10A 1_555 1_555
F21A C10A 1_555 1_555
F22A C11A 1_555 1_555
F23A K3 1_555 1_555
F24A C11A 1_555 1_555
F25A C12A 1_555 1_555
F26A C12A 1_555 1_555
F27A C12A 1_555 1_555
O3A C9A 1_555 1_555
C9A C10A 1_555 1_555
C11A F23A 1_555 1_555
C12A C9A 1_555 1_555
F28A C14A 1_555 1_555
F29A C14A 1_555 1_555
F30A C14A 1_555 1_555
F31A C15A 1_555 1_555
F32A C15A 1_555 1_555
F33A K3 1_555 1_555
F34A C16A 1_555 1_555
F35A C16A 1_555 1_555
F36A C16A 1_555 1_555
O4A C13A 1_555 1_555
C13A C14A 1_555 1_555
C15A F33A 1_555 1_555
C16A C13A 1_555 1_555
F10B C6B 1_555 1_555
F11B C6B 1_555 1_555
F12B C6B 1_555 1_555
F13B C7B 1_555 1_555
F14B C7B 1_555 1_555
F15B K3B 1_555 1_555
F16B C8B 1_555 1_555
F17B C8B 1_555 1_555
F18B C8B 1_555 1_555
O2B Ni1B 1_555 1_555
C5B O2B 1_555 1_555
C6B C5B 1_555 1_555
C7B F15B 1_555 1_555
C8B C5B 1_555 1_555
F8A K3 1_555 1_555
K3A F8 1_555 1_555
K3C F8B 1_555 1_555
O3B Ni1B 1_555 1_555
O4B Ni1B 1_555 1_555
F8C K3B 1_555 1_555
F21B K3B 1_555 1_555
F23C K3B 1_555 1_555
F33C K3B 1_555 1_555
K3A_2 F21A 1_555 1_555
Ni1A O3A 1_555 1_555
K3 O2 1_555 1_555
K3 O3 1_555 1_555
F23 K3A 1_555 1_555
F33 K3A 1_555 1_555
C5 C7 1_555 1_555
C9 C10 1_555 1_555
C18 C19 1_555 1_555
C20 C21 1_555 1_555
C22 O7B 1_555 1_555
C24 C25 1_555 1_555
C26 C27 1_555 1_555
C28 O10B 1_555 1_555
C33 C34 1_555 1_555
C20B O6B 1_555 1_555
C18B O5B 1_555 1_555
C17B C22B 1_555 1_555
C26B O9B 1_555 1_555
C24B O8B 1_555 1_555
C23B C28B 1_555 1_555
O1B K3B 1_555 1_555
C1B C3B 1_555 1_555
K3B O2B 1_555 1_555
K3B O3B 1_555 1_555
O3A K3A_2 1_555 1_555
C9A C11A 1_555 1_555
O4A Ni1A 1_555 1_555
C13A C15A 1_555 1_555
C5B C7B 1_555 1_555

#END
