
#######################################################################
#
#                 Cambridge Crystallographic Data Centre
#                                CCDC 
#
#######################################################################
#
# If this CIF has been generated from an entry in the Cambridge 
# Structural Database, then it will include bibliographic, chemical, 
# crystal, experimental, refinement or atomic coordinate data resulting 
# from the CCDC's data processing and validation procedures.
#
#######################################################################

data_AHIPUD
_symmetry_cell_setting           orthorhombic
_symmetry_space_group_name_H-M   'P n a 21'
_symmetry_Int_Tables_number      33
_space_group_name_Hall           'P 2c -2n'
loop_
_symmetry_equiv_pos_site_id
_symmetry_equiv_pos_as_xyz
1 x,y,z
2 -x,-y,1/2+z
3 1/2+x,1/2-y,z
4 1/2-x,1/2+y,1/2+z
_cell_length_a                   20.0520(4)
_cell_length_b                   19.9954(6)
_cell_length_c                   11.5863(3)
_cell_angle_alpha                90
_cell_angle_beta                 90
_cell_angle_gamma                90
_cell_volume                     4645.5
loop_
_atom_site_label
_atom_site_type_symbol
_atom_site_fract_x
_atom_site_fract_y
_atom_site_fract_z
Ce1 Ce 0.275445(17) 0.489225(17) 0.06166(4)
K1 K 0.27401(7) 0.48207(8) -0.56188(14)
O1 O 0.3986(2) 0.4998(2) 0.0110(5)
O2 O 0.4079(2) 0.4914(2) -0.5098(4)
O3 O 0.2970(2) 0.6102(2) 0.0076(4)
O4 O 0.2903(2) 0.6105(2) -0.5024(4)
O5 O 0.1686(2) 0.5492(2) 0.0056(4)
O6 O 0.1481(2) 0.5568(2) -0.5095(4)
O7 O 0.1839(2) 0.4046(2) 0.0176(4)
O8 O 0.1756(2) 0.3961(2) -0.5001(4)
O9 O 0.3282(2) 0.3724(2) 0.0122(4)
O10 O 0.3338(2) 0.3554(2) -0.5036(4)
O11 O 0.2928(8) 0.4613(8) -0.1387(13)
O12 O 0.2944(6) 0.4557(6) -0.3262(10)
O13 O 0.2416(5) 0.5378(6) -0.2544(12)
O14 O 0.3432(2) 0.5508(2) 0.2238(4)
O15 O 0.2830(2) 0.6418(2) 0.2538(5)
O16 O 0.3913(2) 0.6458(2) 0.2631(6)
O17 O 0.2064(2) 0.5293(3) 0.2294(4)
H1 H 0.2255 0.5727 0.2450
H2 H 0.1640 0.5306 0.2306
O18 O 0.2747(2) 0.4108(2) 0.2270(4)
H3 H 0.2367 0.3875 0.2427
H4 H 0.3152 0.3862 0.2329
N1 N 0.4572(3) 0.4497(3) -0.1379(5)
N2 N 0.4401(3) 0.5596(3) -0.1438(5)
N3 N 0.4404(3) 0.5558(3) -0.3547(5)
N4 N 0.4595(3) 0.4459(3) -0.3495(5)
N5 N 0.3603(3) 0.6512(3) -0.1425(5)
N6 N 0.2538(3) 0.6756(3) -0.1394(5)
N7 N 0.2503(3) 0.6740(3) -0.3512(5)
N8 N 0.3565(3) 0.6433(3) -0.3509(5)
N9 N 0.1435(3) 0.6247(3) -0.1387(5)
N10 N 0.0920(3) 0.5264(3) -0.1368(5)
N11 N 0.0876(3) 0.5277(3) -0.3471(5)
N12 N 0.1372(3) 0.6267(3) -0.3517(5)
N13 N 0.1068(3) 0.4071(3) -0.1296(5)
N14 N 0.1836(3) 0.3280(3) -0.1317(5)
N15 N 0.1834(3) 0.3275(3) -0.3405(5)
N16 N 0.1057(3) 0.4065(3) -0.3422(5)
N17 N 0.3001(3) 0.2974(3) -0.1326(5)
N18 N 0.3999(3) 0.3432(3) -0.1347(5)
N19 N 0.4027(3) 0.3385(3) -0.3472(5)
N20 N 0.3004(3) 0.2942(3) -0.3451(5)
N21 N 0.2739(4) 0.4870(4) -0.2391(14)
N22 N 0.3398(3) 0.6136(3) 0.2479(5)
C1 C 0.4279(3) 0.5020(3) -0.0815(6)
C2 C 0.4782(3) 0.5468(3) -0.2482(6)
H5 H 0.5201 0.5721 -0.2492
C3 C 0.4909(3) 0.4698(3) -0.2451(6)
H6 H 0.5387 0.4592 -0.2433
C4 C 0.4321(3) 0.4974(3) -0.4147(6)
C5 C 0.4242(3) 0.6252(4) -0.0999(6)
H7 H 0.4595 0.6559 -0.1216
H8 H 0.4228 0.6234 -0.0163
C6 C 0.4190(3) 0.6196(3) -0.3994(6)
H9 H 0.4142 0.6160 -0.4825
H10 H 0.4534 0.6525 -0.3840
C7 C 0.3035(3) 0.6416(4) -0.0838(6)
C8 C 0.2758(3) 0.7051(3) -0.2475(7)
H11 H 0.2692 0.7537 -0.2484
C9 C 0.3519(3) 0.6861(3) -0.2513(6)
H12 H 0.3808 0.7255 -0.2575
C10 C 0.2978(3) 0.6389(3) -0.4108(6)
C11 C 0.1858(3) 0.6778(4) -0.0962(6)
H13 H 0.1870 0.6756 -0.0126
H14 H 0.1662 0.7204 -0.1173
C12 C 0.1818(3) 0.6790(3) -0.3925(6)
H15 H 0.1639 0.7220 -0.3691
H16 H 0.1823 0.6780 -0.4762
C13 C 0.1383(3) 0.5655(3) -0.0831(6)
C14 C 0.0658(3) 0.5583(3) -0.2412(6)
H17 H 0.0172 0.5631 -0.2385
C15 C 0.1017(3) 0.6277(3) -0.2424(6)
H18 H 0.0697 0.6647 -0.2387
C16 C 0.1271(3) 0.5683(3) -0.4123(5)
C17 C 0.0694(3) 0.4642(4) -0.0884(6)
H19 H 0.0227 0.4581 -0.1073
H20 H 0.0731 0.4665 -0.0050
C18 C 0.0659(3) 0.4624(3) -0.3879(6)
H21 H 0.0682 0.4618 -0.4715
H22 H 0.0196 0.4559 -0.3661
C19 C 0.1610(3) 0.3820(3) -0.0724(6)
C20 C 0.1454(3) 0.3147(3) -0.2357(6)
H23 H 0.1256 0.2699 -0.2353
C21 C 0.0915(3) 0.3708(3) -0.2364(7)
H24 H 0.0462 0.3524 -0.2357
C22 C 0.1574(3) 0.3787(4) -0.4033(6)
C23 C 0.2342(3) 0.2829(3) -0.0886(6)
H25 H 0.2351 0.2855 -0.0050
H26 H 0.2222 0.2375 -0.1096
C24 C 0.2323(3) 0.2820(3) -0.3861(6)
H27 H 0.2319 0.2851 -0.4697
H28 H 0.2196 0.2368 -0.3655
C25 C 0.3408(3) 0.3417(3) -0.0776(6)
C26 C 0.4008(3) 0.3017(3) -0.2372(6)
H29 H 0.4357 0.2675 -0.2332
C27 C 0.3287(3) 0.2697(3) -0.2385(6)
H30 H 0.3305 0.2208 -0.2365
C28 C 0.3435(3) 0.3325(3) -0.4068(5)
C29 C 0.4557(3) 0.3817(3) -0.0936(6)
H31 H 0.4966 0.3592 -0.1156
H32 H 0.4541 0.3833 -0.0100
C30 C 0.4585(3) 0.3772(3) -0.3873(6)
H33 H 0.4585 0.3766 -0.4710
H34 H 0.4992 0.3557 -0.3615
K1_2 K 0.27401(7) 0.48207(8) 0.43812(14)
O14_2 O 0.3432(2) 0.5508(2) -0.7762(4)
O17_2 O 0.2064(2) 0.5293(3) -0.7706(4)
H1_2 H 0.2255 0.5727 -0.7550
H2_2 H 0.1640 0.5306 -0.7694
O18_2 O 0.2747(2) 0.4108(2) -0.7730(4)
H3_2 H 0.2367 0.3875 -0.7573
H4_2 H 0.3152 0.3862 -0.7671
Re1 Re 0.004763(13) 0.294215(13) 0.03249(2)
O19 O 0.0319(2) 0.3613(3) 0.1115(4)
O20 O -0.0379(3) 0.2397(3) 0.1207(5)
O21 O -0.0450(3) 0.3193(3) -0.0769(5)
O22 O 0.0718(3) 0.2530(3) -0.0243(6)
Re2 Re 0.502752(12) 0.797900(14) 0.00549(2)
O23 O 0.5528(3) 0.8275(3) 0.1162(5)
O24 O 0.5471(2) 0.7431(2) -0.0804(5)
O25 O 0.4762(3) 0.8637(3) -0.0788(4)
O26 O 0.4362(3) 0.7560(2) 0.0605(6)
O27 O 0.0789(2) 0.5642(2) 0.2717(5)
H35 H 0.0913 0.6010 0.2985
H36 H 0.0642 0.5827 0.2004
O28 O 0.1522(2) 0.3537(2) 0.2678(5)
H37 H 0.1144 0.3593 0.2309
H38 H 0.1480 0.3657 0.3310
O29 O 0.3808(3) 0.3385(3) 0.2641(6)
H39 H 0.3927 0.3399 0.3384
H40 H 0.3989 0.3067 0.2438
loop_
_geom_bond_atom_site_label_1
_geom_bond_atom_site_label_2
_geom_bond_site_symmetry_1
_geom_bond_site_symmetry_2
Ce1 O1 1_555 1_555
K1 O2 1_555 1_555
O1 C1 1_555 1_555
O2 C4 1_555 1_555
O3 Ce1 1_555 1_555
O4 K1 1_555 1_555
O5 Ce1 1_555 1_555
O6 K1 1_555 1_555
O7 Ce1 1_555 1_555
O8 K1 1_555 1_555
O9 Ce1 1_555 1_555
O10 K1 1_555 1_555
O11 Ce1 1_555 1_555
O12 K1 1_555 1_555
O13 N21 1_555 1_555
O14 Ce1 1_555 1_555
O15 N22 1_555 1_555
O16 N22 1_555 1_555
O17 Ce1 1_555 1_555
H1 O17 1_555 1_555
H2 O17 1_555 1_555
O18 Ce1 1_555 1_555
H3 O18 1_555 1_555
H4 O18 1_555 1_555
N1 C1 1_555 1_555
N2 C1 1_555 1_555
N3 C2 1_555 1_555
N4 C3 1_555 1_555
N5 C5 1_555 1_555
N6 C7 1_555 1_555
N7 C8 1_555 1_555
N8 C6 1_555 1_555
N9 C11 1_555 1_555
N10 C13 1_555 1_555
N11 C14 1_555 1_555
N12 C12 1_555 1_555
N13 C17 1_555 1_555
N14 C19 1_555 1_555
N15 C20 1_555 1_555
N16 C18 1_555 1_555
N17 C23 1_555 1_555
N18 C25 1_555 1_555
N19 C26 1_555 1_555
N20 C24 1_555 1_555
N21 O11 1_555 1_555
N22 O14 1_555 1_555
C2 N2 1_555 1_555
H5 C2 1_555 1_555
C3 N1 1_555 1_555
H6 C3 1_555 1_555
C4 N3 1_555 1_555
C5 N2 1_555 1_555
H7 C5 1_555 1_555
H8 C5 1_555 1_555
C6 N3 1_555 1_555
H9 C6 1_555 1_555
H10 C6 1_555 1_555
C7 O3 1_555 1_555
C8 N6 1_555 1_555
H11 C8 1_555 1_555
C9 N5 1_555 1_555
H12 C9 1_555 1_555
C10 O4 1_555 1_555
C11 N6 1_555 1_555
H13 C11 1_555 1_555
H14 C11 1_555 1_555
C12 N7 1_555 1_555
H15 C12 1_555 1_555
H16 C12 1_555 1_555
C13 O5 1_555 1_555
C14 N10 1_555 1_555
H17 C14 1_555 1_555
C15 N9 1_555 1_555
H18 C15 1_555 1_555
C16 O6 1_555 1_555
C17 N10 1_555 1_555
H19 C17 1_555 1_555
H20 C17 1_555 1_555
C18 N11 1_555 1_555
H21 C18 1_555 1_555
H22 C18 1_555 1_555
C19 O7 1_555 1_555
C20 N14 1_555 1_555
H23 C20 1_555 1_555
C21 N13 1_555 1_555
H24 C21 1_555 1_555
C22 O8 1_555 1_555
C23 N14 1_555 1_555
H25 C23 1_555 1_555
H26 C23 1_555 1_555
C24 N15 1_555 1_555
H27 C24 1_555 1_555
H28 C24 1_555 1_555
C25 O9 1_555 1_555
C26 N18 1_555 1_555
H29 C26 1_555 1_555
C27 N17 1_555 1_555
H30 C27 1_555 1_555
C28 O10 1_555 1_555
C29 N1 1_555 1_555
H31 C29 1_555 1_555
H32 C29 1_555 1_555
C30 N4 1_555 1_555
H33 C30 1_555 1_555
H34 C30 1_555 1_555
Re1 O19 1_555 1_555
O20 Re1 1_555 1_555
O21 Re1 1_555 1_555
O22 Re1 1_555 1_555
Re2 O23 1_555 1_555
O24 Re2 1_555 1_555
O25 Re2 1_555 1_555
O26 Re2 1_555 1_555
O27 H35 1_555 1_555
H36 O27 1_555 1_555
O28 H37 1_555 1_555
H38 O28 1_555 1_555
O29 H39 1_555 1_555
H40 O29 1_555 1_555
K1_2 O14 1_555 1_555
O14_2 K1 1_555 1_555
O17_2 K1 1_555 1_555
H1_2 O17_2 1_555 1_555
H2_2 O17_2 1_555 1_555
O18_2 K1 1_555 1_555
H3_2 O18_2 1_555 1_555
H4_2 O18_2 1_555 1_555
O12 N21 1_555 1_555
O17 K1_2 1_555 1_555
O18 K1_2 1_555 1_555
N4 C4 1_555 1_555
N5 C7 1_555 1_555
N7 C10 1_555 1_555
N8 C9 1_555 1_555
N8 C10 1_555 1_555
N9 C13 1_555 1_555
N11 C16 1_555 1_555
N12 C15 1_555 1_555
N12 C16 1_555 1_555
N13 C19 1_555 1_555
N15 C22 1_555 1_555
N16 C21 1_555 1_555
N16 C22 1_555 1_555
N17 C25 1_555 1_555
N18 C29 1_555 1_555
N19 C28 1_555 1_555
N19 C30 1_555 1_555
N20 C27 1_555 1_555
N20 C28 1_555 1_555
C2 C3 1_555 1_555
C8 C9 1_555 1_555
C14 C15 1_555 1_555
C20 C21 1_555 1_555
C26 C27 1_555 1_555

#END
