
#######################################################################
#
#                 Cambridge Crystallographic Data Centre
#                                CCDC 
#
#######################################################################
#
# If this CIF has been generated from an entry in the Cambridge 
# Structural Database, then it will include bibliographic, chemical, 
# crystal, experimental, refinement or atomic coordinate data resulting 
# from the CCDC's data processing and validation procedures.
#
#######################################################################

data_AHIQIS
_symmetry_cell_setting           orthorhombic
_symmetry_space_group_name_H-M   'P n a 21'
_symmetry_Int_Tables_number      33
_space_group_name_Hall           'P 2c -2n'
loop_
_symmetry_equiv_pos_site_id
_symmetry_equiv_pos_as_xyz
1 x,y,z
2 -x,-y,1/2+z
3 1/2+x,1/2-y,z
4 1/2-x,1/2+y,1/2+z
_cell_length_a                   20.0457(3)
_cell_length_b                   14.1521(4)
_cell_length_c                   17.7711(5)
_cell_angle_alpha                90
_cell_angle_beta                 90
_cell_angle_gamma                90
_cell_volume                     5041.46
loop_
_atom_site_label
_atom_site_type_symbol
_atom_site_fract_x
_atom_site_fract_y
_atom_site_fract_z
Gd1 Gd -0.56261(2) 0.41410(3) -0.22427(3)
K1 K -0.73724(10) 0.26094(15) -0.15761(12)
O1 O -0.5491(3) 0.4542(4) -0.0828(3)
O2 O -0.2761(3) 0.3071(5) -0.0159(4)
O3 O -0.4924(3) 0.5530(5) -0.2116(4)
O4 O -0.2118(3) 0.4270(5) -0.1487(4)
O5 O -0.5033(3) 0.4468(4) -0.3470(4)
O6 O -0.2306(3) 0.2931(5) -0.3032(4)
O7 O -0.5497(3) 0.2730(5) -0.2992(4)
O8 O -0.2874(3) 0.1010(5) -0.2636(4)
O9 O -0.5913(3) 0.2695(4) -0.1441(3)
O10 O -0.3197(3) 0.1119(5) -0.0835(4)
O11 O -0.4602(4) 0.3565(6) -0.1718(4)
O12 O -0.3617(4) 0.3110(7) -0.1454(4)
O13 O -0.3978(4) 0.3074(7) -0.2597(4)
O14 O -0.6654(3) 0.4337(5) -0.1555(4)
H1 H -0.6590 0.4253 -0.1113
H2 H -0.6865 0.4911 -0.1603
O15 O -0.6133(3) 0.5550(5) -0.2708(4)
H3 H -0.6431 0.5634 -0.3051
H4 H -0.6005 0.6005 -0.2481
O16 O -0.6555(3) 0.3815(5) -0.3094(4)
H5 H -0.6623 0.3269 -0.3335
H6 H -0.6959 0.3783 -0.2833
O17 O -0.7013(3) 0.3712(5) -0.0098(4)
N1 N -0.4962(4) 0.3654(6) 0.0090(4)
N2 N -0.4545(4) 0.5043(6) -0.0198(5)
N3 N -0.3413(4) 0.4406(6) -0.0041(5)
N4 N -0.3838(4) 0.3013(6) 0.0310(5)
N5 N -0.4054(4) 0.5812(6) -0.1292(5)
N6 N -0.3854(4) 0.5837(6) -0.2513(5)
N7 N -0.2747(4) 0.5217(5) -0.2268(5)
N8 N -0.2898(4) 0.5328(6) -0.1036(5)
N9 N -0.3954(4) 0.4962(6) -0.3677(4)
N10 N -0.4279(4) 0.3574(6) -0.4143(4)
N11 N -0.3152(4) 0.2920(5) -0.3927(4)
N12 N -0.2846(4) 0.4290(6) -0.3412(5)
N13 N -0.4719(4) 0.2060(5) -0.3761(4)
N14 N -0.5053(4) 0.1262(5) -0.2758(4)
N15 N -0.3972(4) 0.0515(6) -0.2627(4)
N16 N -0.3604(4) 0.1371(5) -0.3600(4)
N17 N -0.5400(4) 0.1234(6) -0.1462(4)
N18 N -0.5278(4) 0.2149(6) -0.0456(4)
N19 N -0.4176(4) 0.1471(6) -0.0181(5)
N20 N -0.4236(4) 0.0759(6) -0.1310(5)
N21 N -0.4079(4) 0.3257(6) -0.1927(5)
C1 C -0.5031(5) 0.4445(7) -0.0372(5)
C2 C -0.4036(4) 0.4646(7) 0.0307(5)
H7 H -0.3969 0.5048 0.0750
C3 C -0.4355(5) 0.3691(8) 0.0524(5)
H8 H -0.4448 0.3661 0.1065
C4 C -0.3287(5) 0.3432(7) 0.0009(5)
C5 C -0.4452(5) 0.5895(7) -0.0628(6)
H9 H -0.4888 0.6132 -0.0772
H10 H -0.4249 0.6365 -0.0303
C6 C -0.2897(6) 0.5055(7) -0.0254(6)
H11 H -0.2469 0.4772 -0.0137
H12 H -0.2941 0.5620 0.0051
C7 C -0.4330(5) 0.5709(7) -0.1980(5)
C8 C -0.3201(5) 0.6001(7) -0.2199(6)
H13 H -0.3004 0.6590 -0.2385
C9 C -0.3344(5) 0.6045(7) -0.1341(6)
H14 H -0.3249 0.6671 -0.1132
C10 C -0.2539(5) 0.4875(7) -0.1587(6)
C11 C -0.4003(5) 0.5828(7) -0.3314(6)
H15 H -0.4454 0.6064 -0.3382
H16 H -0.3705 0.6268 -0.3562
C12 C -0.2439(5) 0.4936(7) -0.2983(5)
H17 H -0.2355 0.5497 -0.3282
H18 H -0.2012 0.4640 -0.2880
C13 C -0.4465(5) 0.4331(7) -0.3727(5)
C14 C -0.3548(5) 0.3589(8) -0.4326(6)
H19 H -0.3469 0.3559 -0.4869
C15 C -0.3329(4) 0.4578(7) -0.3984(5)
H20 H -0.3131 0.4994 -0.4363
C16 C -0.2729(4) 0.3338(7) -0.3419(6)
C17 C -0.4718(5) 0.2812(7) -0.4307(5)
H21 H -0.4597 0.2550 -0.4793
H22 H -0.5168 0.3059 -0.4350
C18 C -0.3143(5) 0.1907(7) -0.4068(5)
H23 H -0.2694 0.1673 -0.3982
H24 H -0.3251 0.1796 -0.4592
C19 C -0.5109(4) 0.2084(7) -0.3152(5)
C20 C -0.4562(5) 0.0635(7) -0.3098(5)
H25 H -0.4758 0.0027 -0.3245
C21 C -0.4305(5) 0.1194(7) -0.3783(5)
H26 H -0.4358 0.0844 -0.4255
C22 C -0.3415(5) 0.0984(6) -0.2920(5)
C23 C -0.5572(5) 0.0991(6) -0.2234(6)
H27 H -0.5646 0.0316 -0.2269
H28 H -0.5984 0.1307 -0.2371
C24 C -0.3993(5) 0.0119(7) -0.1888(6)
H29 H -0.3548 -0.0087 -0.1751
H30 H -0.4277 -0.0436 -0.1897
C25 C -0.5564(4) 0.2088(7) -0.1142(5)
C26 C -0.4888(5) 0.1308(7) -0.0274(6)
H31 H -0.5077 0.0962 0.0154
C27 C -0.4913(5) 0.0718(7) -0.1011(6)
H32 H -0.5055 0.0066 -0.0916
C28 C -0.3799(6) 0.1136(9) -0.0766(5)
C29 C -0.5426(5) 0.2877(7) 0.0077(5)
H33 H -0.5441 0.2597 0.0575
H34 H -0.5868 0.3123 -0.0031
C30 C -0.3875(5) 0.2001(8) 0.0427(5)
H35 H -0.3426 0.1764 0.0506
H36 H -0.4127 0.1883 0.0883
K1B K -0.23724(10) 0.23906(15) -0.15761(12)
O2B O -0.7761(3) 0.1929(5) -0.0159(4)
O4B O -0.7118(3) 0.0730(5) -0.1487(4)
O6B O -0.7306(3) 0.2069(5) -0.3032(4)
O8B O -0.7874(3) 0.3990(5) -0.2636(4)
O10B O -0.8197(3) 0.3881(5) -0.0835(4)
O12B O -0.8617(4) 0.1890(7) -0.1454(4)
Re1 Re -0.632200(19) 0.13474(3) -0.46967(2)
O18 O -0.6395(4) 0.2537(6) -0.4474(4)
O19 O -0.7094(4) 0.0931(6) -0.4977(4)
O20 O -0.5745(4) 0.1227(7) -0.5403(6)
O21 O -0.6068(4) 0.0713(6) -0.3917(5)
Re2 Re -0.79420(2) 0.66399(3) -0.34774(2)
O22 O -0.7309(4) 0.5846(5) -0.3505(5)
O23 O -0.7666(6) 0.7759(6) -0.3666(5)
O24 O -0.8311(6) 0.6672(6) -0.2605(5)
O25 O -0.8555(6) 0.6320(11) -0.4106(8)
Re3 Re -0.62403(3) 0.79166(4) -0.16266(4)
O26 O -0.5949(10) 0.7382(11) -0.2511(9)
O27 O -0.5982(8) 0.9022(9) -0.1646(9)
O28 O -0.5893(6) 0.7222(9) -0.0971(8)
O29 O -0.7024(11) 0.7797(18) -0.1749(15)
O30 O -0.7349(5) 0.5928(6) -0.1414(5)
O31 O -0.8800(4) 0.5023(8) -0.5209(5)
O32 O -0.4820(6) 0.8139(9) -0.3239(6)
H37 H -0.5205 0.8016 -0.3110
H38 H -0.4533 0.8059 -0.2880
O33 O -0.4401(12) -0.2279(12) -0.1689(12)
loop_
_geom_bond_atom_site_label_1
_geom_bond_atom_site_label_2
_geom_bond_site_symmetry_1
_geom_bond_site_symmetry_2
Gd1 O1 1_555 1_555
K1 O9 1_555 1_555
O1 C1 1_555 1_555
O2 C4 1_555 1_555
O3 Gd1 1_555 1_555
O4 C10 1_555 1_555
O5 Gd1 1_555 1_555
O6 C16 1_555 1_555
O7 Gd1 1_555 1_555
O8 C22 1_555 1_555
O9 Gd1 1_555 1_555
O10 C28 1_555 1_555
O11 Gd1 1_555 1_555
O12 N21 1_555 1_555
O13 N21 1_555 1_555
O14 Gd1 1_555 1_555
H1 O14 1_555 1_555
H2 O14 1_555 1_555
O15 Gd1 1_555 1_555
H3 O15 1_555 1_555
H4 O15 1_555 1_555
O16 Gd1 1_555 1_555
H5 O16 1_555 1_555
H6 O16 1_555 1_555
O17 K1 1_555 1_555
N1 C1 1_555 1_555
N2 C1 1_555 1_555
N3 C2 1_555 1_555
N4 C3 1_555 1_555
N5 C5 1_555 1_555
N6 C7 1_555 1_555
N7 C8 1_555 1_555
N8 C6 1_555 1_555
N9 C11 1_555 1_555
N10 C13 1_555 1_555
N11 C14 1_555 1_555
N12 C12 1_555 1_555
N13 C17 1_555 1_555
N14 C19 1_555 1_555
N15 C20 1_555 1_555
N16 C18 1_555 1_555
N17 C23 1_555 1_555
N18 C25 1_555 1_555
N19 C26 1_555 1_555
N20 C24 1_555 1_555
N21 O11 1_555 1_555
C2 N2 1_555 1_555
H7 C2 1_555 1_555
C3 N1 1_555 1_555
H8 C3 1_555 1_555
C4 N3 1_555 1_555
C5 N2 1_555 1_555
H9 C5 1_555 1_555
H10 C5 1_555 1_555
C6 N3 1_555 1_555
H11 C6 1_555 1_555
H12 C6 1_555 1_555
C7 O3 1_555 1_555
C8 N6 1_555 1_555
H13 C8 1_555 1_555
C9 N5 1_555 1_555
H14 C9 1_555 1_555
C10 N7 1_555 1_555
C11 N6 1_555 1_555
H15 C11 1_555 1_555
H16 C11 1_555 1_555
C12 N7 1_555 1_555
H17 C12 1_555 1_555
H18 C12 1_555 1_555
C13 O5 1_555 1_555
C14 N10 1_555 1_555
H19 C14 1_555 1_555
C15 N9 1_555 1_555
H20 C15 1_555 1_555
C16 N11 1_555 1_555
C17 N10 1_555 1_555
H21 C17 1_555 1_555
H22 C17 1_555 1_555
C18 N11 1_555 1_555
H23 C18 1_555 1_555
H24 C18 1_555 1_555
C19 O7 1_555 1_555
C20 N14 1_555 1_555
H25 C20 1_555 1_555
C21 N13 1_555 1_555
H26 C21 1_555 1_555
C22 N15 1_555 1_555
C23 N14 1_555 1_555
H27 C23 1_555 1_555
H28 C23 1_555 1_555
C24 N15 1_555 1_555
H29 C24 1_555 1_555
H30 C24 1_555 1_555
C25 O9 1_555 1_555
C26 N18 1_555 1_555
H31 C26 1_555 1_555
C27 N17 1_555 1_555
H32 C27 1_555 1_555
C28 N19 1_555 1_555
C29 N1 1_555 1_555
H33 C29 1_555 1_555
H34 C29 1_555 1_555
C30 N4 1_555 1_555
H35 C30 1_555 1_555
H36 C30 1_555 1_555
Re1 O18 1_555 1_555
O19 Re1 1_555 1_555
O20 Re1 1_555 1_555
O21 Re1 1_555 1_555
Re2 O22 1_555 1_555
O23 Re2 1_555 1_555
O24 Re2 1_555 1_555
O25 Re2 1_555 1_555
Re3 O26 1_555 1_555
O27 Re3 1_555 1_555
O28 Re3 1_555 1_555
O29 Re3 1_555 1_555
O32 H37 1_555 1_555
H38 O32 1_555 1_555
K1B O2 1_555 1_555
O2B K1 1_555 1_555
O4B K1 1_555 1_555
O6B K1 1_555 1_555
O8B K1 1_555 1_555
O10B K1 1_555 1_555
O12B K1 1_555 1_555
K1 O14 1_555 1_555
O4 K1B 1_555 1_555
O6 K1B 1_555 1_555
O8 K1B 1_555 1_555
O10 K1B 1_555 1_555
O12 K1B 1_555 1_555
N4 C4 1_555 1_555
N5 C7 1_555 1_555
N8 C9 1_555 1_555
N8 C10 1_555 1_555
N9 C13 1_555 1_555
N12 C15 1_555 1_555
N12 C16 1_555 1_555
N13 C19 1_555 1_555
N16 C21 1_555 1_555
N16 C22 1_555 1_555
N17 C25 1_555 1_555
N18 C29 1_555 1_555
N19 C30 1_555 1_555
N20 C27 1_555 1_555
N20 C28 1_555 1_555
C2 C3 1_555 1_555
C8 C9 1_555 1_555
C14 C15 1_555 1_555
C20 C21 1_555 1_555
C26 C27 1_555 1_555

#END
