
#######################################################################
#
#                 Cambridge Crystallographic Data Centre
#                                CCDC 
#
#######################################################################
#
# If this CIF has been generated from an entry in the Cambridge 
# Structural Database, then it will include bibliographic, chemical, 
# crystal, experimental, refinement or atomic coordinate data resulting 
# from the CCDC's data processing and validation procedures.
#
#######################################################################

data_AHIQAK
_symmetry_cell_setting           orthorhombic
_symmetry_space_group_name_H-M   'P n a 21'
_symmetry_Int_Tables_number      33
_space_group_name_Hall           'P 2c -2n'
loop_
_symmetry_equiv_pos_site_id
_symmetry_equiv_pos_as_xyz
1 x,y,z
2 -x,-y,1/2+z
3 1/2+x,1/2-y,z
4 1/2-x,1/2+y,1/2+z
_cell_length_a                   20.0767(8)
_cell_length_b                   14.1783(3)
_cell_length_c                   17.7384(7)
_cell_angle_alpha                90
_cell_angle_beta                 90
_cell_angle_gamma                90
_cell_volume                     5049.3
loop_
_atom_site_label
_atom_site_type_symbol
_atom_site_fract_x
_atom_site_fract_y
_atom_site_fract_z
Sm1 Sm 0.43767(2) 0.58564(3) 0.49791(3)
K1 K 0.26269(11) 0.73826(15) 0.56412(13)
O1 O 0.4086(3) 0.7304(5) 0.5786(4)
O2 O 0.6802(4) 0.8875(5) 0.6390(4)
O3 O 0.4491(3) 0.7277(5) 0.4220(4)
O4 O 0.7121(4) 0.8993(5) 0.4588(4)
O5 O 0.4969(3) 0.5521(5) 0.3742(4)
O6 O 0.7685(4) 0.7069(5) 0.4195(4)
O7 O 0.5081(3) 0.4461(5) 0.5099(4)
O8 O 0.7893(4) 0.5728(5) 0.5737(4)
O9 O 0.4515(3) 0.5458(5) 0.6394(4)
O10 O 0.7226(4) 0.6939(6) 0.7071(4)
O11 O 0.5409(5) 0.6444(6) 0.5490(6)
O12 O 0.6381(5) 0.6888(8) 0.5766(6)
O13 O 0.6019(6) 0.6917(10) 0.4616(6)
O14 O 0.3345(3) 0.5662(5) 0.5668(4)
H1 H 0.3414 0.5681 0.6122
H2 H 0.3171 0.5125 0.5524
O15 O 0.3436(4) 0.6172(5) 0.4117(4)
H3 H 0.2978 0.6170 0.4234
H4 H 0.3397 0.6704 0.3843
O16 O 0.3859(4) 0.4437(5) 0.4507(5)
H5 H 0.3466 0.4163 0.4412
H6 H 0.4102 0.3928 0.4511
O17 O 0.2985(3) 0.6286(6) 0.7121(4)
H7 H 0.2702 0.5867 0.7127
H8 H 0.2857 0.6600 0.7508
N1 N 0.4723(4) 0.7854(6) 0.6771(5)
N2 N 0.4599(4) 0.8775(6) 0.5755(5)
N3 N 0.5752(5) 0.9236(6) 0.5919(5)
N4 N 0.5815(4) 0.8522(6) 0.7037(5)
N5 N 0.4941(4) 0.8731(6) 0.4462(5)
N6 N 0.5284(4) 0.7935(6) 0.3456(5)
N7 N 0.6396(4) 0.8629(6) 0.3617(5)
N8 N 0.6026(4) 0.9475(6) 0.4594(5)
N9 N 0.5733(4) 0.6431(6) 0.3070(5)
N10 N 0.6052(4) 0.5041(6) 0.3539(5)
N11 N 0.7153(4) 0.5719(6) 0.3804(6)
N12 N 0.6847(4) 0.7095(6) 0.3290(5)
N13 N 0.6153(4) 0.4168(7) 0.4702(5)
N14 N 0.5956(4) 0.4223(6) 0.5921(5)
N15 N 0.7098(4) 0.4677(6) 0.6185(5)
N16 N 0.7267(4) 0.4786(6) 0.4949(5)
N17 N 0.5458(5) 0.4962(7) 0.7022(6)
N18 N 0.5040(4) 0.6341(6) 0.7304(5)
N19 N 0.6162(4) 0.6988(6) 0.7538(6)
N20 N 0.6593(4) 0.5613(7) 0.7183(5)
N21 N 0.5880(7) 0.6723(7) 0.5287(5)
C1 C 0.4434(5) 0.7895(7) 0.6073(6)
C2 C 0.5087(5) 0.9285(7) 0.6214(6)
H9 H 0.4948 0.9936 0.6314
C3 C 0.5121(5) 0.8687(7) 0.6945(6)
H10 H 0.4937 0.9032 0.7376
C4 C 0.6188(5) 0.8857(8) 0.6456(6)
C5 C 0.4437(5) 0.9004(7) 0.4998(7)
H11 H 0.4367 0.9679 0.4962
H12 H 0.4022 0.8696 0.4866
C6 C 0.6009(6) 0.9872(7) 0.5329(7)
H13 H 0.5733 1.0434 0.5317
H14 H 0.6456 1.0065 0.5466
C7 C 0.4890(5) 0.7911(7) 0.4070(6)
C8 C 0.5689(5) 0.8781(7) 0.3446(6)
H15 H 0.5632 0.9133 0.2975
C9 C 0.5433(5) 0.9358(7) 0.4137(7)
H16 H 0.5240 0.9964 0.3986
C10 C 0.6582(5) 0.9016(7) 0.4296(6)
C11 C 0.5296(6) 0.7194(8) 0.2908(6)
H17 H 0.4848 0.6946 0.2856
H18 H 0.5422 0.7463 0.2426
C12 C 0.6856(6) 0.8100(7) 0.3161(6)
H19 H 0.7302 0.8332 0.3255
H20 H 0.6755 0.8216 0.2634
C13 C 0.5539(5) 0.5673(7) 0.3485(6)
C14 C 0.6679(5) 0.5432(8) 0.3233(6)
H21 H 0.6880 0.5017 0.2854
C15 C 0.6461(5) 0.6405(8) 0.2891(6)
H22 H 0.6541 0.6432 0.2347
C16 C 0.7266(5) 0.6662(8) 0.3807(7)
C17 C 0.6003(6) 0.4168(7) 0.3891(6)
H23 H 0.6304 0.3733 0.3643
H24 H 0.5554 0.3930 0.3821
C18 C 0.7572(6) 0.5067(8) 0.4234(6)
H25 H 0.7997 0.5366 0.4335
H26 H 0.7656 0.4509 0.3932
C19 C 0.5673(6) 0.4289(7) 0.5226(6)
C20 C 0.6669(5) 0.3975(8) 0.5873(7)
H27 H 0.6758 0.3350 0.6087
C21 C 0.6804(5) 0.3998(7) 0.5010(8)
H28 H 0.6998 0.3407 0.4827
C22 C 0.7461(5) 0.5142(7) 0.5628(7)
C23 C 0.5547(6) 0.4102(8) 0.6594(7)
H29 H 0.5113 0.3866 0.6445
H30 H 0.5752 0.3631 0.6916
C24 C 0.7102(6) 0.4956(8) 0.6971(6)
H31 H 0.7055 0.4395 0.7279
H32 H 0.7532 0.5233 0.7086
C25 C 0.4970(5) 0.5586(7) 0.6852(6)
C26 C 0.5648(5) 0.6316(8) 0.7750(6)
H33 H 0.5552 0.6342 0.8291
C27 C 0.5961(5) 0.5366(7) 0.7523(6)
H34 H 0.6028 0.4964 0.7966
C28 C 0.6708(6) 0.6564(8) 0.7233(6)
C29 C 0.4578(5) 0.7116(7) 0.7293(6)
H35 H 0.4139 0.6870 0.7178
H36 H 0.4559 0.7386 0.7795
C30 C 0.6131(6) 0.8012(8) 0.7659(6)
H37 H 0.5885 0.8137 0.8119
H38 H 0.6580 0.8251 0.7728
K1B K 0.76269(11) 0.76174(15) 0.56412(13)
O2B O 0.1802(4) 0.6125(5) 0.6390(4)
O4B O 0.2121(4) 0.6007(5) 0.4588(4)
O6B O 0.2685(4) 0.7931(5) 0.4195(4)
O8B O 0.2893(4) 0.9272(5) 0.5737(4)
O10B O 0.2226(4) 0.8061(6) 0.7071(4)
O12B O 0.1381(5) 0.8112(8) 0.5766(6)
Re1 Re 0.13235(2) 0.36442(3) 0.75194(3)
O18 O 0.2085(4) 0.4065(6) 0.7236(5)
O19 O 0.0758(4) 0.3768(7) 0.6806(6)
O20 O 0.1065(5) 0.4263(6) 0.8292(6)
O21 O 0.1394(4) 0.2465(6) 0.7725(5)
Re2 Re 0.29412(2) 0.83548(3) 0.87453(3)
O22 O 0.3310(6) 0.8334(7) 0.9614(6)
O23 O 0.2651(6) 0.7261(7) 0.8574(6)
O24 O 0.3537(7) 0.8616(11) 0.8092(9)
O25 O 0.2320(4) 0.9156(5) 0.8710(6)
Re3 Re 0.87477(4) 0.29203(4) 0.55991(4)
O26 O 0.9011(9) 0.3999(12) 0.5555(11)
O27 O 0.9040(10) 0.2390(13) 0.4720(10)
O28 O 0.7954(9) 0.2817(14) 0.5489(12)
O29 O 0.9105(9) 0.2216(12) 0.6223(10)
O30 O 0.2647(6) 0.4086(7) 0.5786(6)
H39 H 0.2329 0.4188 0.6064
H40 H 0.2873 0.3622 0.5835
O31 O 0.3800(5) 0.9989(8) 0.7023(6)
H41 H 0.3740 0.9904 0.6543
H42 H 0.3620 0.9420 0.7217
O32 O 0.4812(7) 0.8152(10) 0.8980(6)
H43 H 0.5212 0.8147 0.9206
H44 H 0.4608 0.7872 0.9311
loop_
_geom_bond_atom_site_label_1
_geom_bond_atom_site_label_2
_geom_bond_site_symmetry_1
_geom_bond_site_symmetry_2
Sm1 O1 1_555 1_555
K1 O1 1_555 1_555
O1 C1 1_555 1_555
O2 C4 1_555 1_555
O3 Sm1 1_555 1_555
O4 C10 1_555 1_555
O5 Sm1 1_555 1_555
O6 C16 1_555 1_555
O7 Sm1 1_555 1_555
O8 C22 1_555 1_555
O9 Sm1 1_555 1_555
O10 C28 1_555 1_555
O11 Sm1 1_555 1_555
O12 N21 1_555 1_555
O13 N21 1_555 1_555
O14 Sm1 1_555 1_555
H1 O14 1_555 1_555
H2 O14 1_555 1_555
O15 Sm1 1_555 1_555
H3 O15 1_555 1_555
H4 O15 1_555 1_555
O16 Sm1 1_555 1_555
H5 O16 1_555 1_555
H6 O16 1_555 1_555
O17 K1 1_555 1_555
H7 O17 1_555 1_555
H8 O17 1_555 1_555
N1 C1 1_555 1_555
N2 C1 1_555 1_555
N3 C2 1_555 1_555
N4 C3 1_555 1_555
N5 C5 1_555 1_555
N6 C7 1_555 1_555
N7 C8 1_555 1_555
N8 C6 1_555 1_555
N9 C11 1_555 1_555
N10 C13 1_555 1_555
N11 C14 1_555 1_555
N12 C12 1_555 1_555
N13 C17 1_555 1_555
N14 C19 1_555 1_555
N15 C20 1_555 1_555
N16 C18 1_555 1_555
N17 C23 1_555 1_555
N18 C25 1_555 1_555
N19 C26 1_555 1_555
N20 C24 1_555 1_555
N21 O11 1_555 1_555
C2 N2 1_555 1_555
H9 C2 1_555 1_555
C3 N1 1_555 1_555
H10 C3 1_555 1_555
C4 N3 1_555 1_555
C5 N2 1_555 1_555
H11 C5 1_555 1_555
H12 C5 1_555 1_555
C6 N3 1_555 1_555
H13 C6 1_555 1_555
H14 C6 1_555 1_555
C7 O3 1_555 1_555
C8 N6 1_555 1_555
H15 C8 1_555 1_555
C9 N5 1_555 1_555
H16 C9 1_555 1_555
C10 N7 1_555 1_555
C11 N6 1_555 1_555
H17 C11 1_555 1_555
H18 C11 1_555 1_555
C12 N7 1_555 1_555
H19 C12 1_555 1_555
H20 C12 1_555 1_555
C13 O5 1_555 1_555
C14 N10 1_555 1_555
H21 C14 1_555 1_555
C15 N9 1_555 1_555
H22 C15 1_555 1_555
C16 N11 1_555 1_555
C17 N10 1_555 1_555
H23 C17 1_555 1_555
H24 C17 1_555 1_555
C18 N11 1_555 1_555
H25 C18 1_555 1_555
H26 C18 1_555 1_555
C19 O7 1_555 1_555
C20 N14 1_555 1_555
H27 C20 1_555 1_555
C21 N13 1_555 1_555
H28 C21 1_555 1_555
C22 N15 1_555 1_555
C23 N14 1_555 1_555
H29 C23 1_555 1_555
H30 C23 1_555 1_555
C24 N15 1_555 1_555
H31 C24 1_555 1_555
H32 C24 1_555 1_555
C25 O9 1_555 1_555
C26 N18 1_555 1_555
H33 C26 1_555 1_555
C27 N17 1_555 1_555
H34 C27 1_555 1_555
C28 N19 1_555 1_555
C29 N1 1_555 1_555
H35 C29 1_555 1_555
H36 C29 1_555 1_555
C30 N4 1_555 1_555
H37 C30 1_555 1_555
H38 C30 1_555 1_555
Re1 O18 1_555 1_555
O19 Re1 1_555 1_555
O20 Re1 1_555 1_555
O21 Re1 1_555 1_555
Re2 O22 1_555 1_555
O23 Re2 1_555 1_555
O24 Re2 1_555 1_555
O25 Re2 1_555 1_555
Re3 O26 1_555 1_555
O27 Re3 1_555 1_555
O28 Re3 1_555 1_555
O29 Re3 1_555 1_555
O30 H39 1_555 1_555
H40 O30 1_555 1_555
O31 H41 1_555 1_555
H42 O31 1_555 1_555
O32 H43 1_555 1_555
H44 O32 1_555 1_555
K1B O2 1_555 1_555
O2B K1 1_555 1_555
O4B K1 1_555 1_555
O6B K1 1_555 1_555
O8B K1 1_555 1_555
O10B K1 1_555 1_555
O12B K1 1_555 1_555
K1 O14 1_555 1_555
O4 K1B 1_555 1_555
O6 K1B 1_555 1_555
O8 K1B 1_555 1_555
O10 K1B 1_555 1_555
O12 K1B 1_555 1_555
N4 C4 1_555 1_555
N5 C7 1_555 1_555
N8 C9 1_555 1_555
N8 C10 1_555 1_555
N9 C13 1_555 1_555
N12 C15 1_555 1_555
N12 C16 1_555 1_555
N13 C19 1_555 1_555
N16 C21 1_555 1_555
N16 C22 1_555 1_555
N17 C25 1_555 1_555
N18 C29 1_555 1_555
N19 C30 1_555 1_555
N20 C27 1_555 1_555
N20 C28 1_555 1_555
C2 C3 1_555 1_555
C8 C9 1_555 1_555
C14 C15 1_555 1_555
C20 C21 1_555 1_555
C26 C27 1_555 1_555

#END
