
#######################################################################
#
#                 Cambridge Crystallographic Data Centre
#                                CCDC 
#
#######################################################################
#
# If this CIF has been generated from an entry in the Cambridge 
# Structural Database, then it will include bibliographic, chemical, 
# crystal, experimental, refinement or atomic coordinate data resulting 
# from the CCDC's data processing and validation procedures.
#
#######################################################################

data_AHIRUG
_symmetry_cell_setting           monoclinic
_symmetry_space_group_name_H-M   'P 21/n'
_symmetry_Int_Tables_number      14
_space_group_name_Hall           '-P 2yn'
loop_
_symmetry_equiv_pos_site_id
_symmetry_equiv_pos_as_xyz
1 x,y,z
2 1/2-x,1/2+y,1/2-z
3 -x,-y,-z
4 1/2+x,1/2-y,1/2+z
_cell_length_a                   8.2212(3)
_cell_length_b                   9.2624(3)
_cell_length_c                   26.8630(9)
_cell_angle_alpha                90
_cell_angle_beta                 92.776(2)
_cell_angle_gamma                90
_cell_volume                     2043.16
loop_
_atom_site_label
_atom_site_type_symbol
_atom_site_fract_x
_atom_site_fract_y
_atom_site_fract_z
Mn1 Mn 0.58377(3) 0.93848(2) 0.125699(7)
Mn2 Mn 0.5000 1.0000 0.0000
O1 O 0.03195(12) 0.24907(10) 0.02022(4)
O2 O 0.37634(13) 0.65357(11) -0.02013(4)
O3 O 0.50582(14) 0.70740(12) 0.12428(4)
O4 O 0.42921(13) 0.83611(10) 0.05868(4)
N1 N 0.63878(16) 0.95088(13) 0.21014(5)
C1 C 0.33939(16) 0.58969(14) 0.06257(5)
C2 C 0.43209(16) 0.71731(14) 0.08210(5)
C3 C 0.30613(16) 0.56221(13) 0.01189(5)
N2 N 0.35040(15) 1.01056(13) 0.16101(5)
C4 C 0.13905(16) 0.35890(14) 0.03138(5)
C5 C 0.32207(17) 0.65241(15) -0.07086(5)
H1 H 0.2046 0.6421 -0.0737
H2 H 0.3703 0.5718 -0.0879
C6 C 0.20951(17) 0.44536(14) -0.00390(5)
H3 H 0.1925 0.4256 -0.0377
C7 C 0.17194(19) 0.38330(16) 0.08195(5)
H4 H 0.1254 0.3249 0.1056
C8 C 0.01648(16) 0.20100(15) -0.03012(5)
H5 H -0.0062 0.2832 -0.0517
H6 H -0.0749 0.1350 -0.0339
C9 C 0.7792(2) 0.9233(2) 0.23444(7)
H7 H 0.8578 0.8716 0.2182
C10 C 0.27412(19) 0.49472(15) 0.09676(5)
H8 H 0.3005 0.5071 0.1305
C11 C 0.37075(19) 1.05474(15) 0.20891(5)
C12 C 0.5252(2) 1.02547(16) 0.23475(5)
C13 C 0.2066(2) 1.03147(19) 0.13753(7)
H9 H 0.1929 1.0015 0.1046
C14 C 0.5513(3) 1.0750(2) 0.28423(6)
C15 C 0.0753(2) 1.0956(2) 0.15954(9)
H10 H -0.0250 1.1039 0.1422
C16 C 0.2469(2) 1.12766(19) 0.23360(7)
C17 C 0.8152(3) 0.9687(3) 0.28393(9)
H11 H 0.9152 0.9467 0.2998
C18 C 0.0965(2) 1.1460(2) 0.20684(9)
H12 H 0.0113 1.1930 0.2217
C19 C 0.2790(3) 1.1772(2) 0.28326(8)
H13 H 0.1984 1.2266 0.2994
C20 C 0.4234(3) 1.1539(2) 0.30705(7)
H14 H 0.4417 1.1895 0.3392
C21 C 0.7020(3) 1.0449(3) 0.30805(8)
H15 H 0.7249 1.0770 0.3404
C22 C 0.17036(16) 0.12533(14) -0.04616(5)
O5 O 0.25847(13) 0.07046(12) -0.01213(4)
O6 O 0.19243(13) 0.12252(13) -0.09226(4)
C23 C 0.37221(16) 0.79298(14) -0.09413(5)
O7 O 0.46431(12) 0.87972(10) -0.06981(3)
O8 O 0.31776(14) 0.81959(12) -0.13711(4)
Mn1B Mn 0.41623(3) 0.06152(2) -0.125699(7)
O1B O 0.96805(12) 0.75093(10) -0.02022(4)
O2B O 0.62366(13) 0.34643(11) 0.02013(4)
O3B O 0.49418(14) 0.29260(12) -0.12428(4)
O4B O 0.57079(13) 0.16389(10) -0.05868(4)
N1B N 0.36122(16) 0.04912(13) -0.21014(5)
C1B C 0.66061(16) 0.41031(14) -0.06257(5)
C2B C 0.56791(16) 0.28269(14) -0.08210(5)
C3B C 0.69387(16) 0.43779(13) -0.01189(5)
N2B N 0.64960(15) -0.01056(13) -0.16101(5)
C4B C 0.86095(16) 0.64110(14) -0.03138(5)
C5B C 0.67793(17) 0.34759(15) 0.07086(5)
H1B H 0.7954 0.3579 0.0737
H2B H 0.6297 0.4282 0.0879
C6B C 0.79049(17) 0.55464(14) 0.00390(5)
H3B H 0.8075 0.5744 0.0377
C7B C 0.82806(19) 0.61670(16) -0.08195(5)
H4B H 0.8746 0.6751 -0.1056
C8B C 0.98352(16) 0.79900(15) 0.03012(5)
H5B H 1.0062 0.7168 0.0517
H6B H 1.0749 0.8650 0.0339
C9B C 0.2208(2) 0.0767(2) -0.23444(7)
H7B H 0.1422 0.1284 -0.2182
C10B C 0.72588(19) 0.50528(15) -0.09676(5)
H8B H 0.6995 0.4929 -0.1305
C11B C 0.62925(19) -0.05474(15) -0.20891(5)
C12B C 0.4748(2) -0.02547(16) -0.23475(5)
C13B C 0.7934(2) -0.03147(19) -0.13753(7)
H9B H 0.8071 -0.0015 -0.1046
C14B C 0.4487(3) -0.0750(2) -0.28423(6)
C15B C 0.9247(2) -0.0956(2) -0.15954(9)
H10B H 1.0250 -0.1039 -0.1422
C16B C 0.7531(2) -0.12766(19) -0.23360(7)
C17B C 0.1848(3) 0.0313(3) -0.28393(9)
H11B H 0.0848 0.0533 -0.2998
C18B C 0.9035(2) -0.1460(2) -0.20684(9)
H12B H 0.9887 -0.1930 -0.2217
C19B C 0.7210(3) -0.1772(2) -0.28326(8)
H13B H 0.8016 -0.2266 -0.2994
C20B C 0.5766(3) -0.1539(2) -0.30705(7)
H14B H 0.5583 -0.1895 -0.3392
C21B C 0.2980(3) -0.0449(3) -0.30805(8)
H15B H 0.2751 -0.0770 -0.3404
C22B C 0.82964(16) 0.87467(14) 0.04616(5)
O5B O 0.74153(13) 0.92954(12) 0.01213(4)
O6B O 0.80757(13) 0.87748(13) 0.09226(4)
C23B C 0.62779(16) 0.20702(14) 0.09413(5)
O7B O 0.53569(12) 0.12028(10) 0.06981(3)
O8B O 0.68224(14) 0.18041(12) 0.13711(4)
Mn1_2 Mn 0.58377(3) -0.06152(2) 0.125699(7)
Mn1B_2 Mn 0.41623(3) 1.06152(2) -0.125699(7)
Mn2_2 Mn 0.5000 0.0000 0.0000
O4B_2 O 0.57079(13) 1.16389(10) -0.05868(4)
O5_2 O 0.25847(13) 1.07046(12) -0.01213(4)
O7_2 O 0.46431(12) -0.12028(10) -0.06981(3)
O7B_2 O 0.53569(12) 1.12028(10) 0.06981(3)
O8_2 O 0.31776(14) -0.18041(12) -0.13711(4)
O8B_2 O 0.68224(14) 1.18041(12) 0.13711(4)
loop_
_geom_bond_atom_site_label_1
_geom_bond_atom_site_label_2
_geom_bond_site_symmetry_1
_geom_bond_site_symmetry_2
Mn1 O3 1_555 1_555
Mn2 O4 1_555 1_555
O1 C4 1_555 1_555
O2 C3 1_555 1_555
O3 C2 1_555 1_555
O4 Mn1 1_555 1_555
N1 Mn1 1_555 1_555
C1 C2 1_555 1_555
C2 O4 1_555 1_555
C3 C1 1_555 1_555
N2 Mn1 1_555 1_555
C4 C6 1_555 1_555
C5 O2 1_555 1_555
H1 C5 1_555 1_555
H2 C5 1_555 1_555
C6 C3 1_555 1_555
H3 C6 1_555 1_555
C7 C4 1_555 1_555
H4 C7 1_555 1_555
C8 O1 1_555 1_555
H5 C8 1_555 1_555
H6 C8 1_555 1_555
C9 N1 1_555 1_555
H7 C9 1_555 1_555
C10 C1 1_555 1_555
H8 C10 1_555 1_555
C11 N2 1_555 1_555
C12 N1 1_555 1_555
C13 N2 1_555 1_555
H9 C13 1_555 1_555
C14 C12 1_555 1_555
C15 C13 1_555 1_555
H10 C15 1_555 1_555
C16 C11 1_555 1_555
C17 C9 1_555 1_555
H11 C17 1_555 1_555
C18 C15 1_555 1_555
H12 C18 1_555 1_555
C19 C16 1_555 1_555
H13 C19 1_555 1_555
C20 C14 1_555 1_555
H14 C20 1_555 1_555
C21 C14 1_555 1_555
H15 C21 1_555 1_555
C22 C8 1_555 1_555
O5 C22 1_555 1_555
O6 C22 1_555 1_555
C23 C5 1_555 1_555
O7 Mn2 1_555 1_555
O8 C23 1_555 1_555
Mn1B O6 1_555 1_555
O1B C4B 1_555 1_555
O2B C3B 1_555 1_555
O3B Mn1B 1_555 1_555
O4B Mn1B 1_555 1_555
N1B Mn1B 1_555 1_555
C1B C2B 1_555 1_555
C2B O3B 1_555 1_555
C3B C1B 1_555 1_555
N2B Mn1B 1_555 1_555
C4B C6B 1_555 1_555
C5B O2B 1_555 1_555
H1B C5B 1_555 1_555
H2B C5B 1_555 1_555
C6B C3B 1_555 1_555
H3B C6B 1_555 1_555
C7B C4B 1_555 1_555
H4B C7B 1_555 1_555
C8B O1B 1_555 1_555
H5B C8B 1_555 1_555
H6B C8B 1_555 1_555
C9B N1B 1_555 1_555
H7B C9B 1_555 1_555
C10B C1B 1_555 1_555
H8B C10B 1_555 1_555
C11B N2B 1_555 1_555
C12B N1B 1_555 1_555
C13B N2B 1_555 1_555
H9B C13B 1_555 1_555
C14B C12B 1_555 1_555
C15B C13B 1_555 1_555
H10B C15B 1_555 1_555
C16B C11B 1_555 1_555
C17B C9B 1_555 1_555
H11B C17B 1_555 1_555
C18B C15B 1_555 1_555
H12B C18B 1_555 1_555
C19B C16B 1_555 1_555
H13B C19B 1_555 1_555
C20B C14B 1_555 1_555
H14B C20B 1_555 1_555
C21B C14B 1_555 1_555
H15B C21B 1_555 1_555
C22B C8B 1_555 1_555
O5B Mn2 1_555 1_555
O6B Mn1 1_555 1_555
C23B C5B 1_555 1_555
O7B C23B 1_555 1_555
O8B C23B 1_555 1_555
Mn1_2 O7B 1_555 1_555
Mn1B_2 O7 1_555 1_555
Mn2_2 O5 1_555 1_555
O4B_2 Mn2 1_555 1_555
O5_2 Mn2 1_555 1_555
O7_2 Mn1B 1_555 1_555
O7B_2 Mn1 1_555 1_555
O8_2 Mn1B 1_555 1_555
O8B_2 Mn1 1_555 1_555
Mn2 O7B_2 1_555 1_555
C7 C10 1_555 1_555
C11 C12 1_555 1_555
C16 C18 1_555 1_555
C17 C21 1_555 1_555
C19 C20 1_555 1_555
C23 O7 1_555 1_555
O8 Mn1B_2 1_555 1_555
O4B C2B 1_555 1_555
O4B Mn2_2 1_555 1_555
C7B C10B 1_555 1_555
C11B C12B 1_555 1_555
C16B C18B 1_555 1_555
C17B C21B 1_555 1_555
C19B C20B 1_555 1_555
C22B O5B 1_555 1_555
C22B O6B 1_555 1_555
O7B Mn2_2 1_555 1_555
O8B Mn1_2 1_555 1_555
Mn1B_2 O4B_2 1_555 1_555
Mn2_2 O7_2 1_555 1_555

#END
