
#######################################################################
#
#                 Cambridge Crystallographic Data Centre
#                                CCDC 
#
#######################################################################
#
# If this CIF has been generated from an entry in the Cambridge 
# Structural Database, then it will include bibliographic, chemical, 
# crystal, experimental, refinement or atomic coordinate data resulting 
# from the CCDC's data processing and validation procedures.
#
#######################################################################

data_AHIROZ
_symmetry_cell_setting           triclinic
_symmetry_space_group_name_H-M   'P -1'
_symmetry_Int_Tables_number      2
_space_group_name_Hall           '-P 1'
loop_
_symmetry_equiv_pos_site_id
_symmetry_equiv_pos_as_xyz
1 x,y,z
2 -x,-y,-z
_cell_length_a                   12.3295(9)
_cell_length_b                   15.6924(10)
_cell_length_c                   20.2732(12)
_cell_angle_alpha                67.504(4)
_cell_angle_beta                 87.614(4)
_cell_angle_gamma                67.055(3)
_cell_volume                     3310.48
loop_
_atom_site_label
_atom_site_type_symbol
_atom_site_fract_x
_atom_site_fract_y
_atom_site_fract_z
Gd1 Gd 1.00468(13) 1.11703(11) 0.58934(8)
Gd2 Gd 0.83979(13) 0.71077(11) 1.00428(8)
Re1 Re 1.00042(16) 0.84372(14) 0.71507(10)
Re2 Re 1.21758(11) 1.24735(10) 0.61928(7)
Re3 Re 0.49758(11) 0.82077(10) 1.04544(7)
Re4 Re 0.78813(12) 0.81692(10) 1.15662(7)
O1 O 0.8289(18) 1.1148(15) 0.6442(11)
O2 O 0.7247(18) 0.8691(16) 0.9219(13)
O3 O 1.0895(19) 1.0461(17) 0.7093(12)
O4 O 0.9781(18) 0.7913(16) 0.9771(12)
O5 O 1.333(2) 0.8332(16) 0.6953(12)
O6 O 1.2226(19) 0.5623(15) 0.9709(11)
O7 O 1.250(2) 0.7166(19) 0.6156(13)
O8 O 1.164(3) 0.435(2) 0.9007(16)
O9 O 0.9507(16) 0.7965(14) 0.5223(10)
O10 O 0.871(2) 0.5705(18) 0.8188(12)
O11 O 0.747(2) 1.0021(17) 0.5487(13)
O12 O 0.6187(19) 0.7457(18) 0.8331(11)
O13 O 1.016(2) 0.9440(18) 0.6375(16)
O14 O 1.131(3) 0.749(3) 0.754(2)
O15 O 0.934(3) 0.882(2) 0.7807(18)
O16 O 0.918(4) 0.795(3) 0.687(2)
O17 O 1.106(2) 1.2141(19) 0.5998(14)
O18 O 1.3158(19) 1.1467(18) 0.6886(15)
O19 O 1.162(2) 1.3474(17) 0.6427(13)
O20 O 1.296(3) 1.272(2) 0.5406(17)
O21 O 0.880(2) 1.1162(19) 0.5049(12)
O22 O 0.8634(19) 1.2813(17) 0.5710(14)
O23 O 1.2000(19) 1.0066(16) 0.5820(13)
O24 O 0.6528(19) 0.7658(17) 1.0468(12)
O25 O 0.4507(19) 0.9344(16) 1.0552(12)
O26 O 0.4409(17) 0.7528(15) 1.1074(11)
O27 O 0.4281(19) 0.8400(16) 0.9665(12)
O28 O 0.857(2) 0.7650(18) 1.0959(13)
O29 O 0.714(3) 0.945(2) 1.1087(17)
O30 O 0.894(2) 0.792(2) 1.2211(16)
O31 O 0.688(2) 0.7729(19) 1.1952(12)
O32 O 1.032(2) 0.5813(17) 1.0466(12)
O33 O 0.913(2) 0.706(2) 0.8923(12)
O34 O 0.748(2) 0.6337(17) 0.9588(11)
N1 N 0.662(2) 1.1039(18) 0.6928(11)
N2 N 0.784(2) 1.129(2) 0.7511(14)
N3 N 0.752(2) 1.0167(19) 0.8637(14)
N4 N 0.619(2) 0.9974(19) 0.8056(14)
N5 N 0.986(3) 1.055(2) 0.8052(15)
N6 N 1.177(2) 0.9484(19) 0.8261(14)
N7 N 1.127(2) 0.837(2) 0.9341(14)
N8 N 0.952(2) 0.958(2) 0.9226(15)
N9 N 1.332(2) 0.797(2) 0.8176(16)
N10 N 1.405(2) 0.673(2) 0.7809(14)
N11 N 1.365(2) 0.561(2) 0.8925(15)
N12 N 1.285(2) 0.6922(19) 0.9226(14)
N13 N 1.343(2) 0.5891(19) 0.7218(13)
N14 N 1.199(2) 0.5793(19) 0.6627(13)
N15 N 1.177(2) 0.461(2) 0.7771(14)
N16 N 1.322(2) 0.4662(19) 0.8341(14)
N17 N 1.006(2) 0.6359(17) 0.6027(13)
N18 N 0.817(2) 0.7420(19) 0.5854(14)
N19 N 0.780(2) 0.644(2) 0.7005(14)
N20 N 0.971(2) 0.544(2) 0.7239(14)
N21 N 0.656(2) 0.8919(18) 0.5926(13)
N22 N 0.616(2) 1.0100(17) 0.6340(16)
N23 N 0.559(2) 0.9117(19) 0.7474(13)
N24 N 0.617(3) 0.785(2) 0.7103(16)
C1 C 0.763(3) 1.114(2) 0.6916(15)
C2 C 0.703(3) 1.112(3) 0.8036(17)
H1 H 0.6646 1.1690 0.8180
C3 C 0.616(3) 1.097(2) 0.7609(17)
H2 H 0.5353 1.1497 0.7533
C4 C 0.701(3) 0.953(2) 0.8674(17)
C5 C 0.888(3) 1.147(2) 0.7662(17)
H3 H 0.9101 1.1841 0.7212
H4 H 0.8661 1.1887 0.7940
C6 C 0.823(3) 1.004(2) 0.9247(17)
H5 H 0.8034 0.9619 0.9685
H6 H 0.8017 1.0695 0.9264
C7 C 1.086(3) 1.016(2) 0.7754(17)
C8 C 1.145(2) 0.930(2) 0.8979(15)
H7 H 1.1990 0.9367 0.9279
C9 C 1.018(2) 1.014(2) 0.8837(14)
H8 H 1.0146 1.0663 0.9004
C10 C 1.012(3) 0.857(2) 0.9458(16)
C11 C 1.301(3) 0.901(2) 0.8120(18)
H9 H 1.3104 0.9419 0.7641
H10 H 1.3549 0.8995 0.8462
C12 C 1.240(2) 0.742(2) 0.9688(14)
H11 H 1.2996 0.7595 0.9830
H12 H 1.2228 0.6965 1.0119
C13 C 1.353(3) 0.779(2) 0.7553(17)
C14 C 1.430(3) 0.621(2) 0.8595(16)
H13 H 1.5150 0.5829 0.8755
C15 C 1.376(3) 0.713(2) 0.8814(18)
H14 H 1.4357 0.7158 0.9102
C16 C 1.287(2) 0.601(2) 0.9319(15)
C17 C 1.430(3) 0.624(2) 0.7309(15)
H15 H 1.4358 0.6713 0.6845
H16 H 1.5067 0.5672 0.7478
C18 C 1.389(3) 0.464(2) 0.8913(16)
H17 H 1.4731 0.4321 0.8875
H18 H 1.3740 0.4215 0.9368
C19 C 1.265(3) 0.635(2) 0.6624(18)
C20 C 1.254(3) 0.482(2) 0.7231(18)
H19 H 1.2855 0.4275 0.7056
C21 C 1.357(3) 0.484(2) 0.7637(17)
H20 H 1.4350 0.4338 0.7635
C22 C 1.218(3) 0.458(2) 0.8392(16)
C23 C 1.130(3) 0.595(3) 0.6015(18)
H21 H 1.1492 0.6394 0.5589
H22 H 1.1530 0.5305 0.5974
C24 C 1.071(2) 0.448(2) 0.7691(16)
H23 H 1.0475 0.4207 0.8163
H24 H 1.0858 0.3998 0.7474
C25 C 0.925(3) 0.733(2) 0.5685(16)
C26 C 0.813(3) 0.648(2) 0.6288(17)
H25 H 0.7647 0.6289 0.6048
C27 C 0.947(3) 0.573(2) 0.6480(17)
H26 H 0.9614 0.5144 0.6365
C28 C 0.878(3) 0.583(2) 0.7547(16)
C29 C 0.706(2) 0.832(2) 0.5500(16)
H27 H 0.7204 0.8744 0.5044
H28 H 0.6468 0.8103 0.5396
C30 C 0.658(3) 0.687(3) 0.7163(18)
H29 H 0.6057 0.6831 0.6841
H30 H 0.6531 0.6447 0.7650
C31 C 0.681(3) 0.974(3) 0.5889(16)
C32 C 0.539(3) 0.962(2) 0.6673(16)
H31 H 0.4558 1.0083 0.6502
C33 C 0.572(3) 0.874(3) 0.6438(18)
H32 H 0.5015 0.8771 0.6198
C34 C 0.601(2) 0.806(2) 0.7696(14)
C35 C 0.601(3) 1.1076(18) 0.6314(13)
H33 H 0.5165 1.1479 0.6280
H34 H 0.6290 1.1417 0.5881
C36 C 0.535(2) 0.962(2) 0.7975(15)
H35 H 0.4578 1.0180 0.7812
H36 H 0.5303 0.9145 0.8443
Gd1A Gd 0.99532(13) 0.88297(11) 0.41066(8)
Gd2A Gd 1.16021(13) 0.28923(11) 0.99572(8)
O8A O 0.836(3) 0.565(2) 1.0993(16)
O9A O 1.0493(16) 1.2035(14) 0.4777(10)
Re5 Re 0.75312(12) 0.35982(10) 0.82846(8)
O35 O 0.822(2) 0.2343(18) 0.8917(13)
O36 O 0.867(2) 0.395(2) 0.7871(15)
O37 O 0.657(2) 0.369(2) 0.7646(14)
O38 O 0.674(2) 0.4371(18) 0.8719(14)
Re6 Re 0.51884(13) 0.60797(11) 0.40670(8)
O39 O 0.598(4) 0.560(4) 0.492(2)
O40 O 0.363(3) 0.675(3) 0.406(2)
O41 O 0.575(3) 0.688(2) 0.3490(18)
O42 O 0.548(3) 0.506(3) 0.385(2)
O43 O 0.917(3) 1.345(3) 0.6574(17)
loop_
_geom_bond_atom_site_label_1
_geom_bond_atom_site_label_2
_geom_bond_site_symmetry_1
_geom_bond_site_symmetry_2
Gd1 O1 1_555 1_555
Gd2 O2 1_555 1_555
Re1 O13 1_555 1_555
Re2 O17 1_555 1_555
Re3 O24 1_555 1_555
Re4 O28 1_555 1_555
O1 C1 1_555 1_555
O2 C4 1_555 1_555
O3 Gd1 1_555 1_555
O4 Gd2 1_555 1_555
O5 C13 1_555 1_555
O6 C16 1_555 1_555
O7 C19 1_555 1_555
O8 C22 1_555 1_555
O9 C25 1_555 1_555
O10 C28 1_555 1_555
O11 C31 1_555 1_555
O12 C34 1_555 1_555
O13 Gd1 1_555 1_555
O14 Re1 1_555 1_555
O15 Re1 1_555 1_555
O16 Re1 1_555 1_555
O17 Gd1 1_555 1_555
O18 Re2 1_555 1_555
O19 Re2 1_555 1_555
O20 Re2 1_555 1_555
O21 Gd1 1_555 1_555
O22 Gd1 1_555 1_555
O23 Gd1 1_555 1_555
O24 Gd2 1_555 1_555
O25 Re3 1_555 1_555
O26 Re3 1_555 1_555
O27 Re3 1_555 1_555
O28 Gd2 1_555 1_555
O29 Re4 1_555 1_555
O30 Re4 1_555 1_555
O31 Re4 1_555 1_555
O32 Gd2 1_555 1_555
O33 Gd2 1_555 1_555
O34 Gd2 1_555 1_555
N1 C1 1_555 1_555
N2 C1 1_555 1_555
N3 C2 1_555 1_555
N4 C3 1_555 1_555
N5 C5 1_555 1_555
N6 C7 1_555 1_555
N7 C8 1_555 1_555
N8 C6 1_555 1_555
N9 C11 1_555 1_555
N10 C13 1_555 1_555
N11 C14 1_555 1_555
N12 C12 1_555 1_555
N13 C17 1_555 1_555
N14 C19 1_555 1_555
N15 C20 1_555 1_555
N16 C18 1_555 1_555
N17 C23 1_555 1_555
N18 C25 1_555 1_555
N19 C26 1_555 1_555
N20 C24 1_555 1_555
N21 C29 1_555 1_555
N22 C31 1_555 1_555
N23 C32 1_555 1_555
N24 C30 1_555 1_555
C2 N2 1_555 1_555
H1 C2 1_555 1_555
C3 N1 1_555 1_555
H2 C3 1_555 1_555
C4 N3 1_555 1_555
C5 N2 1_555 1_555
H3 C5 1_555 1_555
H4 C5 1_555 1_555
C6 N3 1_555 1_555
H5 C6 1_555 1_555
H6 C6 1_555 1_555
C7 O3 1_555 1_555
C8 N6 1_555 1_555
H7 C8 1_555 1_555
C9 N5 1_555 1_555
H8 C9 1_555 1_555
C10 O4 1_555 1_555
C11 N6 1_555 1_555
H9 C11 1_555 1_555
H10 C11 1_555 1_555
C12 N7 1_555 1_555
H11 C12 1_555 1_555
H12 C12 1_555 1_555
C13 N9 1_555 1_555
C14 N10 1_555 1_555
H13 C14 1_555 1_555
C15 N9 1_555 1_555
H14 C15 1_555 1_555
C16 N11 1_555 1_555
C17 N10 1_555 1_555
H15 C17 1_555 1_555
H16 C17 1_555 1_555
C18 N11 1_555 1_555
H17 C18 1_555 1_555
H18 C18 1_555 1_555
C19 N13 1_555 1_555
C20 N14 1_555 1_555
H19 C20 1_555 1_555
C21 N13 1_555 1_555
H20 C21 1_555 1_555
C22 N15 1_555 1_555
C23 N14 1_555 1_555
H21 C23 1_555 1_555
H22 C23 1_555 1_555
C24 N15 1_555 1_555
H23 C24 1_555 1_555
H24 C24 1_555 1_555
C25 N17 1_555 1_555
C26 N18 1_555 1_555
H25 C26 1_555 1_555
C27 N17 1_555 1_555
H26 C27 1_555 1_555
C28 N19 1_555 1_555
C29 N18 1_555 1_555
H27 C29 1_555 1_555
H28 C29 1_555 1_555
C30 N19 1_555 1_555
H29 C30 1_555 1_555
H30 C30 1_555 1_555
C31 N21 1_555 1_555
C32 N22 1_555 1_555
H31 C32 1_555 1_555
C33 N21 1_555 1_555
H32 C33 1_555 1_555
C34 N23 1_555 1_555
C35 N1 1_555 1_555
H33 C35 1_555 1_555
H34 C35 1_555 1_555
C36 N4 1_555 1_555
H35 C36 1_555 1_555
H36 C36 1_555 1_555
Re5 O35 1_555 1_555
O36 Re5 1_555 1_555
O37 Re5 1_555 1_555
O38 Re5 1_555 1_555
Re6 O39 1_555 1_555
O40 Re6 1_555 1_555
O41 Re6 1_555 1_555
O42 Re6 1_555 1_555
Gd1A O9 1_555 1_555
Gd2A O8 1_555 1_555
O8A Gd2 1_555 1_555
O9A Gd1 1_555 1_555
N4 C4 1_555 1_555
N5 C7 1_555 1_555
N7 C10 1_555 1_555
N8 C9 1_555 1_555
N8 C10 1_555 1_555
N12 C15 1_555 1_555
N12 C16 1_555 1_555
N16 C21 1_555 1_555
N16 C22 1_555 1_555
N20 C27 1_555 1_555
N20 C28 1_555 1_555
N22 C35 1_555 1_555
N23 C36 1_555 1_555
N24 C33 1_555 1_555
N24 C34 1_555 1_555
C2 C3 1_555 1_555
C8 C9 1_555 1_555
C14 C15 1_555 1_555
C20 C21 1_555 1_555
C26 C27 1_555 1_555
C32 C33 1_555 1_555

#END
