
#######################################################################
#
#                 Cambridge Crystallographic Data Centre
#                                CCDC 
#
#######################################################################
#
# If this CIF has been generated from an entry in the Cambridge 
# Structural Database, then it will include bibliographic, chemical, 
# crystal, experimental, refinement or atomic coordinate data resulting 
# from the CCDC's data processing and validation procedures.
#
#######################################################################

data_AHISER
_symmetry_cell_setting           monoclinic
_symmetry_space_group_name_H-M   'P 21/c'
_symmetry_Int_Tables_number      14
_space_group_name_Hall           '-P 2ybc'
loop_
_symmetry_equiv_pos_site_id
_symmetry_equiv_pos_as_xyz
1 x,y,z
2 -x,1/2+y,1/2-z
3 -x,-y,-z
4 x,1/2-y,1/2+z
_cell_length_a                   10.1286(2)
_cell_length_b                   6.73100(10)
_cell_length_c                   18.0774(3)
_cell_angle_alpha                90
_cell_angle_beta                 101.5570(10)
_cell_angle_gamma                90
_cell_volume                     1207.45
loop_
_atom_site_label
_atom_site_type_symbol
_atom_site_fract_x
_atom_site_fract_y
_atom_site_fract_z
Zn1 Zn 0.35623(2) 0.80610(3) 0.158994(11)
O1 O 0.29919(13) 0.71107(18) 0.27157(7)
O2 O 0.44331(13) 1.0028(2) 0.23602(7)
O3 O 0.18053(14) 0.6835(2) 0.12560(8)
O4 O 0.05669(16) 0.4210(2) 0.09153(8)
C1 C 0.12252(19) 0.2394(3) 0.23102(11)
H1 H 0.0731 0.1707 0.1900
C2 C 0.17323(17) 0.4276(3) 0.21875(10)
C3 C 0.24823(16) 0.5258(3) 0.28190(10)
C4 C 0.13608(18) 0.5135(3) 0.14064(10)
C5 C 0.38578(18) 0.8033(3) 0.33473(10)
H2 H 0.4528 0.7091 0.3595
H3 H 0.3336 0.8479 0.3711
C6 C 0.14271(18) 0.1523(3) 0.30105(11)
H4 H 0.1079 0.0269 0.3072
C7 C 0.45365(17) 0.9776(3) 0.30562(10)
O5 O 0.52124(13) 1.0856(2) 0.35587(7)
C8 C 0.21605(18) 0.2544(3) 0.36280(10)
O6 O 0.23184(14) 0.16009(19) 0.43101(7)
C9 C 0.26896(18) 0.4410(3) 0.35324(10)
H5 H 0.3181 0.5088 0.3945
C10 C 0.32857(19) 0.2406(3) 0.49235(10)
H6 H 0.4092 0.2764 0.4741
H7 H 0.3532 0.1388 0.5306
C11 C 0.27810(18) 0.4231(3) 0.52860(10)
O7 O 0.37033(13) 0.5084(2) 0.57571(7)
O8 O 0.15870(13) 0.4721(2) 0.51143(8)
Na1 Na -0.02156(8) 0.25067(12) -0.01602(5)
Zn1A Zn 0.64377(2) 1.30610(3) 0.341006(11)
Zn1C Zn 0.35623(2) 0.69390(3) 0.658994(11)
O3B O -0.18053(14) 0.3165(2) -0.12560(8)
O4B O -0.05669(16) 0.5790(2) -0.09153(8)
O5A O 0.47876(13) 0.5856(2) 0.14413(7)
O6C O 0.23184(14) 0.33991(19) -0.06899(7)
O7C O 0.37033(13) 0.9916(2) 0.07571(7)
O8A O -0.15870(13) -0.0279(2) -0.01143(8)
O8C O 0.15870(13) 0.0279(2) 0.01143(8)
Na1A Na 0.02156(8) 0.75067(12) 0.51602(5)
Na1B Na 0.02156(8) 0.74933(12) 0.01602(5)
Na1C Na -0.02156(8) 0.24933(12) 0.48398(5)
loop_
_geom_bond_atom_site_label_1
_geom_bond_atom_site_label_2
_geom_bond_site_symmetry_1
_geom_bond_site_symmetry_2
Zn1 O1 1_555 1_555
O1 C3 1_555 1_555
O2 Zn1 1_555 1_555
O3 Zn1 1_555 1_555
O4 C4 1_555 1_555
C1 H1 1_555 1_555
C2 C1 1_555 1_555
C3 C2 1_555 1_555
C4 O3 1_555 1_555
C5 O1 1_555 1_555
H2 C5 1_555 1_555
H3 C5 1_555 1_555
C6 C1 1_555 1_555
H4 C6 1_555 1_555
C7 O2 1_555 1_555
O5 C7 1_555 1_555
C8 C6 1_555 1_555
O6 C8 1_555 1_555
C9 C3 1_555 1_555
H5 C9 1_555 1_555
C10 O6 1_555 1_555
H6 C10 1_555 1_555
H7 C10 1_555 1_555
C11 C10 1_555 1_555
O7 C11 1_555 1_555
O8 C11 1_555 1_555
Na1 O4 1_555 1_555
Zn1A O5 1_555 1_555
Zn1C O7 1_555 1_555
O3B Na1 1_555 1_555
O4B Na1 1_555 1_555
O5A Zn1 1_555 1_555
O6C Na1 1_555 1_555
O7C Zn1 1_555 1_555
O8A Na1 1_555 1_555
O8C Na1 1_555 1_555
Na1A O8 1_555 1_555
Na1B O3 1_555 1_555
Na1C O6 1_555 1_555
O4 Na1B 1_555 1_555
C2 C4 1_555 1_555
C5 C7 1_555 1_555
C8 C9 1_555 1_555
O8 Na1C 1_555 1_555
O4B Na1B 1_555 1_555

#END
