
#######################################################################
#
#                 Cambridge Crystallographic Data Centre
#                                CCDC 
#
#######################################################################
#
# If this CIF has been generated from an entry in the Cambridge 
# Structural Database, then it will include bibliographic, chemical, 
# crystal, experimental, refinement or atomic coordinate data resulting 
# from the CCDC's data processing and validation procedures.
#
#######################################################################

data_AHISAN
_symmetry_cell_setting           triclinic
_symmetry_space_group_name_H-M   'P -1'
_symmetry_Int_Tables_number      2
_space_group_name_Hall           '-P 1'
loop_
_symmetry_equiv_pos_site_id
_symmetry_equiv_pos_as_xyz
1 x,y,z
2 -x,-y,-z
_cell_length_a                   9.2525(8)
_cell_length_b                   10.6034(10)
_cell_length_c                   12.4911(11)
_cell_angle_alpha                97.737(5)
_cell_angle_beta                 97.991(5)
_cell_angle_gamma                96.852(5)
_cell_volume                     1190.57
loop_
_atom_site_label
_atom_site_type_symbol
_atom_site_fract_x
_atom_site_fract_y
_atom_site_fract_z
Zn1 Zn 0.70253(5) 0.29658(5) 0.19998(4)
O1 O 0.7584(6) 0.0910(5) 0.1604(5)
O2 O 0.5371(6) -0.3471(5) -0.1485(5)
O3 O 0.5422(6) -0.1370(5) -0.0881(5)
O4 O 0.8111(6) -0.1169(5) 0.0271(5)
O5 O 0.9626(7) 0.2249(6) 0.2244(6)
O6 O 1.2261(6) -0.3034(5) 0.1896(4)
O7 O 1.2786(7) -0.2890(6) -0.0191(5)
O8 O 1.1906(7) -0.4942(6) -0.0758(5)
N1 N 0.6159(8) 0.2646(7) 0.3640(5)
N2 N 0.8073(7) 0.4702(7) 0.3354(5)
C1 C 0.5214(11) 0.1656(9) 0.3766(8)
H1 H 0.4947 0.0968 0.3198
C2 C 0.4583(12) 0.1613(11) 0.4761(8)
H2 H 0.3925 0.0909 0.4836
C3 C 0.4973(11) 0.2619(10) 0.5574(7)
H3 H 0.4575 0.2605 0.6217
C4 C 0.5954(9) 0.3674(9) 0.5473(6)
C5 C 0.6425(10) 0.4750(10) 0.6310(6)
H4 H 0.6013 0.4784 0.6949
C6 C 0.7460(11) 0.5732(9) 0.6207(7)
H5 H 0.7762 0.6409 0.6781
C7 C 0.8100(10) 0.5732(9) 0.5205(7)
C8 C 0.9163(11) 0.6705(9) 0.5063(8)
H6 H 0.9525 0.7371 0.5637
C9 C 0.9687(12) 0.6701(11) 0.4095(8)
H7 H 1.0407 0.7345 0.3994
C10 C 0.7599(8) 0.4720(7) 0.4322(6)
C11 C 0.6554(8) 0.3659(7) 0.4472(6)
C12 C 1.2234(7) -0.3982(6) -0.0037(6)
C13 C 1.1903(8) -0.4162(7) 0.1107(6)
H8 H 1.0862 -0.4472 0.1052
H9 H 1.2448 -0.4820 0.1362
C14 C 1.1452(8) -0.2030(7) 0.1796(5)
C15 C 1.1959(8) -0.0906(8) 0.2499(6)
H10 H 1.2836 -0.0827 0.2983
C16 C 1.1158(8) 0.0095(8) 0.2477(7)
H11 H 1.1507 0.0857 0.2953
C17 C 0.9829(8) 0.0015(7) 0.1764(6)
C18 C 0.9352(7) -0.1115(6) 0.1020(6)
C19 C 1.0178(8) -0.2141(7) 0.1029(6)
H12 H 0.9877 -0.2890 0.0528
C20 C 0.8971(8) 0.1130(7) 0.1856(6)
C21 C 0.7575(8) -0.2379(7) -0.0435(6)
H13 H 0.7617 -0.3079 -0.0010
H14 H 0.8197 -0.2508 -0.0993
C22 C 0.6013(7) -0.2383(7) -0.0968(5)
C23 C 0.9071(10) 0.5653(10) 0.3240(7)
H15 H 0.9395 0.5643 0.2567
Na1 Na 0.6462(4) 0.0731(3) -0.0333(3)
O9 O 0.4647(8) 0.1094(7) -0.1817(6)
H16 H 0.3870 0.0723 -0.1610
H17 H 0.3899 0.1317 -0.2182
Zn1A Zn 0.29747(5) -0.29658(5) -0.19998(4)
Zn1A_2 Zn 1.29747(5) -0.29658(5) -0.19998(4)
O2A O 0.4629(6) 0.3471(5) 0.1485(5)
O3A O 0.4578(6) 0.1370(5) 0.0881(5)
O7A O 0.7214(7) 0.2890(6) 0.0191(5)
Na1A Na 0.3538(4) -0.0731(3) 0.0333(3)
Na1A_2 Na 1.3538(4) -0.0731(3) 0.0333(3)
O10 O 1.4187(10) -0.6227(8) -0.1607(8)
H18 H 1.4410 -0.6762 -0.1183
H19 H 1.5040 -0.6007 -0.1229
loop_
_geom_bond_atom_site_label_1
_geom_bond_atom_site_label_2
_geom_bond_site_symmetry_1
_geom_bond_site_symmetry_2
Zn1 O1 1_555 1_555
O1 C20 1_555 1_555
O2 C22 1_555 1_555
O3 C22 1_555 1_555
O4 C18 1_555 1_555
O5 C20 1_555 1_555
O6 C13 1_555 1_555
O7 C12 1_555 1_555
O8 C12 1_555 1_555
N1 Zn1 1_555 1_555
N2 Zn1 1_555 1_555
C1 N1 1_555 1_555
H1 C1 1_555 1_555
C2 C1 1_555 1_555
H2 C2 1_555 1_555
C3 C2 1_555 1_555
H3 C3 1_555 1_555
C4 C3 1_555 1_555
C5 C4 1_555 1_555
H4 C5 1_555 1_555
C6 C5 1_555 1_555
H5 C6 1_555 1_555
C7 C6 1_555 1_555
C8 C7 1_555 1_555
H6 C8 1_555 1_555
C9 C8 1_555 1_555
H7 C9 1_555 1_555
C10 N2 1_555 1_555
C11 N1 1_555 1_555
C12 C13 1_555 1_555
C13 H8 1_555 1_555
H9 C13 1_555 1_555
C14 O6 1_555 1_555
C15 C14 1_555 1_555
H10 C15 1_555 1_555
C16 C15 1_555 1_555
H11 C16 1_555 1_555
C17 C16 1_555 1_555
C18 C17 1_555 1_555
C19 C14 1_555 1_555
H12 C19 1_555 1_555
C20 C17 1_555 1_555
C21 O4 1_555 1_555
H13 C21 1_555 1_555
H14 C21 1_555 1_555
C22 C21 1_555 1_555
C23 N2 1_555 1_555
H15 C23 1_555 1_555
Na1 O1 1_555 1_555
O9 Na1 1_555 1_555
H16 O9 1_555 1_555
H17 O9 1_555 1_555
O10 H18 1_555 1_555
H19 O10 1_555 1_555
Zn1A O2 1_555 1_555
Zn1A_2 O7 1_555 1_555
O2A Zn1 1_555 1_555
O3A Na1 1_555 1_555
O7A Zn1 1_555 1_555
Na1A O3 1_555 1_555
Na1A_2 O7 1_555 1_555
O3 Na1 1_555 1_555
O4 Na1 1_555 1_555
C4 C11 1_555 1_555
C7 C10 1_555 1_555
C9 C23 1_555 1_555
C10 C11 1_555 1_555
C18 C19 1_555 1_555
Na1 O7A 1_555 1_555
O3A Na1A 1_555 1_555

#END
