
#######################################################################
#
#                 Cambridge Crystallographic Data Centre
#                                CCDC 
#
#######################################################################
#
# If this CIF has been generated from an entry in the Cambridge 
# Structural Database, then it will include bibliographic, chemical, 
# crystal, experimental, refinement or atomic coordinate data resulting 
# from the CCDC's data processing and validation procedures.
#
#######################################################################

data_AHISIV
_symmetry_cell_setting           monoclinic
_symmetry_space_group_name_H-M   'P 21/c'
_symmetry_Int_Tables_number      14
_space_group_name_Hall           '-P 2ybc'
loop_
_symmetry_equiv_pos_site_id
_symmetry_equiv_pos_as_xyz
1 x,y,z
2 -x,1/2+y,1/2-z
3 -x,-y,-z
4 x,1/2-y,1/2+z
_cell_length_a                   13.956(2)
_cell_length_b                   12.7800(17)
_cell_length_c                   8.0663(10)
_cell_angle_alpha                90
_cell_angle_beta                 95.708(9)
_cell_angle_gamma                90
_cell_volume                     1431.55
loop_
_atom_site_label
_atom_site_type_symbol
_atom_site_fract_x
_atom_site_fract_y
_atom_site_fract_z
Mn1 Mn 0.78685(2) 0.60695(2) 0.03350(4)
Mn2 Mn 0.92136(2) 0.75138(2) -0.19896(3)
O1 O 0.77426(9) 0.66548(10) -0.22927(16)
O2 O 0.91772(9) 0.69112(11) 0.04746(15)
O3 O 0.33620(9) 0.49584(11) -0.31055(19)
O4 O 1.00534(12) 0.61216(13) -0.2376(2)
H1 H 1.0593 0.5888 -0.1950
H2 H 0.9884 0.5667 -0.3117
O5 O 0.66653(10) 0.50977(10) -0.11362(19)
O6 O 0.82296(10) 0.44597(11) 0.05749(19)
C1 C 0.69863(13) 0.69583(15) -0.3161(2)
O7 O 1.06212(10) 0.82731(11) -0.1656(2)
H3 H 1.1142 0.7908 -0.1433
H4 H 1.0753 0.8860 -0.1191
C2 C 0.60393(13) 0.64075(15) -0.3057(2)
C3 C 0.42157(13) 0.54667(15) -0.3159(2)
O8 O 0.77073(12) 0.28155(12) 0.0721(2)
C4 C 0.43328(14) 0.63739(16) -0.4073(3)
H5 H 0.3813 0.6677 -0.4710
C5 C 0.76198(14) 0.37350(15) 0.0260(3)
C6 C 0.66772(15) 0.40043(15) -0.0752(3)
H6 H 0.6612 0.3599 -0.1774
H7 H 0.6141 0.3834 -0.0122
C7 C 0.58935(13) 0.54973(14) -0.2131(2)
C8 C 0.52396(14) 0.68125(16) -0.4011(3)
H8 H 0.5320 0.7410 -0.4640
C9 C 0.49938(13) 0.50305(15) -0.2204(3)
H9 H 0.4912 0.4420 -0.1606
C10 C 0.25791(13) 0.53231(16) -0.4230(3)
H10 H 0.2770 0.5331 -0.5354
H11 H 0.2417 0.6033 -0.3938
C11 C 0.17072(13) 0.46279(14) -0.4167(2)
O9 O 0.10079(10) 0.48532(12) -0.5154(2)
O10 O 0.17373(10) 0.38793(10) -0.31372(17)
O11 O 0.69621(10) 0.77040(12) -0.41680(18)
Mn1B Mn 0.21315(2) 0.39305(2) -0.03350(4)
Mn1C Mn 0.78685(2) 0.89305(2) -0.46650(4)
Mn2A Mn 0.07864(2) 0.25138(2) -0.30104(3)
Mn2C Mn 0.92136(2) 0.74862(2) 0.30104(3)
O2C O 0.91772(9) 0.80888(11) -0.45254(15)
O10A O 0.82627(10) 0.88793(10) -0.18628(17)
O10B O 0.82627(10) 0.61207(10) 0.31372(17)
O11C O 0.69621(10) 0.72960(12) 0.08320(18)
loop_
_geom_bond_atom_site_label_1
_geom_bond_atom_site_label_2
_geom_bond_site_symmetry_1
_geom_bond_site_symmetry_2
Mn1 O1 1_555 1_555
Mn2 O1 1_555 1_555
O1 C1 1_555 1_555
O2 Mn1 1_555 1_555
O3 C3 1_555 1_555
O4 Mn2 1_555 1_555
H1 O4 1_555 1_555
H2 O4 1_555 1_555
O5 Mn1 1_555 1_555
O6 Mn1 1_555 1_555
C1 C2 1_555 1_555
O7 Mn2 1_555 1_555
H3 O7 1_555 1_555
H4 O7 1_555 1_555
C2 C7 1_555 1_555
C3 C4 1_555 1_555
O8 C5 1_555 1_555
C4 H5 1_555 1_555
C5 O6 1_555 1_555
C6 O5 1_555 1_555
H6 C6 1_555 1_555
H7 C6 1_555 1_555
C7 O5 1_555 1_555
C8 C2 1_555 1_555
H8 C8 1_555 1_555
C9 C3 1_555 1_555
H9 C9 1_555 1_555
C10 O3 1_555 1_555
H10 C10 1_555 1_555
H11 C10 1_555 1_555
C11 C10 1_555 1_555
O9 C11 1_555 1_555
O10 C11 1_555 1_555
O11 C1 1_555 1_555
Mn1B O10 1_555 1_555
Mn1C O11 1_555 1_555
Mn2A O10 1_555 1_555
Mn2C O2 1_555 1_555
O2C Mn2 1_555 1_555
O10A Mn2 1_555 1_555
O10B Mn1 1_555 1_555
O11C Mn1 1_555 1_555
Mn2 O2 1_555 1_555
C4 C8 1_555 1_555
C5 C6 1_555 1_555
C7 C9 1_555 1_555
Mn1C O2C 1_555 1_555
Mn1C O10A 1_555 1_555
Mn2C O10B 1_555 1_555

#END
