
#######################################################################
#
#                 Cambridge Crystallographic Data Centre
#                                CCDC 
#
#######################################################################
#
# If this CIF has been generated from an entry in the Cambridge 
# Structural Database, then it will include bibliographic, chemical, 
# crystal, experimental, refinement or atomic coordinate data resulting 
# from the CCDC's data processing and validation procedures.
#
#######################################################################

data_AHIYIB
_symmetry_cell_setting           monoclinic
_symmetry_space_group_name_H-M   'P 21/n'
_symmetry_Int_Tables_number      14
_space_group_name_Hall           '-P 2yn'
loop_
_symmetry_equiv_pos_site_id
_symmetry_equiv_pos_as_xyz
1 x,y,z
2 1/2-x,1/2+y,1/2-z
3 -x,-y,-z
4 1/2+x,1/2-y,1/2+z
_cell_length_a                   10.3019(16)
_cell_length_b                   15.482(3)
_cell_length_c                   10.9190(16)
_cell_angle_alpha                90
_cell_angle_beta                 92.482(3)
_cell_angle_gamma                90
_cell_volume                     1739.88
loop_
_atom_site_label
_atom_site_type_symbol
_atom_site_fract_x
_atom_site_fract_y
_atom_site_fract_z
Co1 Co 0.89227(4) 0.01761(2) 0.40464(3)
Br1 Br 0.71519(4) 0.05257(3) 0.25412(3)
O1 O 0.5376(2) 0.40428(16) 0.8482(2)
O2 O 0.6971(2) 0.43090(16) 0.9846(2)
O3 O 0.8619(3) 0.10861(16) 0.5384(2)
O4 O 1.0196(2) 0.08507(16) 0.6779(2)
C1 C 0.6476(3) 0.39067(18) 0.8965(3)
C2 C 0.9192(3) 0.12216(19) 0.6388(3)
C3 C 0.7251(3) 0.31956(18) 0.8408(3)
C4 C 0.8361(3) 0.3379(2) 0.7818(3)
H1 H 0.8683 0.3941 0.7831
C5 C 0.9022(3) 0.2734(2) 0.7192(3)
H2 H 0.9762 0.2878 0.6778
C6 C 0.8595(3) 0.18985(19) 0.7181(3)
C7 C 0.7515(3) 0.16690(19) 0.7880(3)
C8 C 0.7110(3) 0.0799(2) 0.8000(3)
H3 H 0.7551 0.0364 0.7604
C9 C 0.6089(4) 0.0594(2) 0.8684(4)
H4 H 0.5851 0.0018 0.8771
C10 C 0.5391(4) 0.1238(2) 0.9259(4)
H5 H 0.4683 0.1090 0.9716
C11 C 0.5739(3) 0.2086(2) 0.9159(3)
H6 H 0.5261 0.2510 0.9542
C12 C 0.6821(3) 0.23252(19) 0.8475(3)
Co1A Co 0.60773(4) 0.51761(2) 1.09536(3)
Co1B Co 1.10773(4) -0.01761(2) 0.59536(3)
Co1C Co 0.39227(4) 0.48239(2) 0.90464(3)
O1C O 1.0376(2) 0.09572(16) 0.3482(2)
O2A O 0.8029(2) -0.06910(16) 0.5154(2)
O4B O 0.9804(2) -0.08507(16) 0.3221(2)
N1 N 1.4512(9) -0.2745(6) 0.4709(9)
C13 C 1.5361(11) -0.1518(6) 0.4008(10)
H7 H 1.5485 -0.0940 0.3811
N2 N 1.6095(6) -0.2216(7) 0.3631(6)
C14 C 1.4413(13) -0.1848(7) 0.4729(12)
H8 H 1.3815 -0.1529 0.5154
C15 C 1.5553(8) -0.2939(5) 0.4062(7)
H9 H 1.5856 -0.3495 0.3930
C16 C 1.7181(8) -0.2129(6) 0.2875(8)
H10 H 1.7534 -0.2691 0.2727
H11 H 1.6916 -0.1866 0.2108
H12 H 1.7830 -0.1776 0.3286
C17 C 1.3934(13) -0.3543(7) 0.5238(12)
H13 H 1.3908 -0.3448 0.6115
H14 H 1.3037 -0.3566 0.4930
C18 C 1.447(2) -0.4426(10) 0.506(2)
H15 H 1.3945 -0.4840 0.5467
H16 H 1.5344 -0.4451 0.5390
H17 H 1.4456 -0.4556 0.4197
H18? H 1.4551 -0.3837 0.5773
H19? H 1.3625 -0.3931 0.4605
C19? C 1.4856(9) -0.0515(6) 0.4600(9)
H20? H 1.4144 -0.0449 0.5131
H21? H 1.5627 -0.0271 0.4984
H22? H 1.4659 -0.0223 0.3839
C20? C 1.5866(14) -0.2607(12) 0.3791(13)
H23? H 1.6390 -0.3011 0.3422
N3? N 1.4862(13) -0.2801(7) 0.4516(11)
C21? C 1.5984(11) -0.1793(9) 0.3695(10)
H24? H 1.6583 -0.1498 0.3238
N4? N 1.5082(9) -0.1447(5) 0.4375(8)
C22? C 1.4397(13) -0.2081(10) 0.4794(11)
H25? H 1.3657 -0.2009 0.5242
C23? C 1.4737(17) -0.3723(9) 0.4679(19)
H26? H 1.5390 -0.3947 0.5261
H27? H 1.4782 -0.4031 0.3908
C24? C 1.3393(19) -0.376(2) 0.518(2)
H28? H 1.3171 -0.4354 0.5332
H29? H 1.2777 -0.3523 0.4585
H30? H 1.3378 -0.3439 0.5924
C25? C 1.2851(19) -0.3184(16) 0.594(2)
H31? H 1.2392 -0.3671 0.6250
H32? H 1.3424 -0.2953 0.6573
H33? H 1.2240 -0.2748 0.5670
C26? C 1.378(2) -0.3196(15) 0.520(3)
H34? H 1.2904 -0.3165 0.4878
H35? H 1.3773 -0.3033 0.6051
C27? C 1.378(3) -0.4142(15) 0.495(3)
H36? H 1.3127 -0.4417 0.5412
H37? H 1.4615 -0.4380 0.5172
H38? H 1.3591 -0.4237 0.4088
loop_
_geom_bond_atom_site_label_1
_geom_bond_atom_site_label_2
_geom_bond_site_symmetry_1
_geom_bond_site_symmetry_2
Co1 Br1 1_555 1_555
O1 C1 1_555 1_555
O2 C1 1_555 1_555
O3 Co1 1_555 1_555
O4 C2 1_555 1_555
C1 C3 1_555 1_555
C2 O3 1_555 1_555
C3 C4 1_555 1_555
C4 H1 1_555 1_555
C5 C4 1_555 1_555
H2 C5 1_555 1_555
C6 C2 1_555 1_555
C7 C6 1_555 1_555
C8 C7 1_555 1_555
H3 C8 1_555 1_555
C9 C8 1_555 1_555
H4 C9 1_555 1_555
C10 C9 1_555 1_555
H5 C10 1_555 1_555
C11 C10 1_555 1_555
H6 C11 1_555 1_555
C12 C3 1_555 1_555
N1 C14 1_555 1_555
C13 H7 1_555 1_555
N2 C13 1_555 1_555
C14 C13 1_555 1_555
H8 C14 1_555 1_555
C15 N1 1_555 1_555
H9 C15 1_555 1_555
C16 N2 1_555 1_555
H10 C16 1_555 1_555
H11 C16 1_555 1_555
H12 C16 1_555 1_555
C17 N1 1_555 1_555
H13 C17 1_555 1_555
H14 C17 1_555 1_555
C18 C17 1_555 1_555
H15 C18 1_555 1_555
H16 C18 1_555 1_555
H17 C18 1_555 1_555
Co1A O2 1_555 1_555
Co1B O4 1_555 1_555
Co1C O1 1_555 1_555
O1C Co1 1_555 1_555
O2A Co1 1_555 1_555
O4B Co1 1_555 1_555
C5 C6 1_555 1_555
C7 C12 1_555 1_555
C11 C12 1_555 1_555
N2 C15 1_555 1_555

#END
