
#######################################################################
#
#                 Cambridge Crystallographic Data Centre
#                                CCDC 
#
#######################################################################
#
# If this CIF has been generated from an entry in the Cambridge 
# Structural Database, then it will include bibliographic, chemical, 
# crystal, experimental, refinement or atomic coordinate data resulting 
# from the CCDC's data processing and validation procedures.
#
#######################################################################

data_AHIZOI
_symmetry_cell_setting           monoclinic
_symmetry_space_group_name_H-M   'P 21/n'
_symmetry_Int_Tables_number      14
_space_group_name_Hall           '-P 2yn'
loop_
_symmetry_equiv_pos_site_id
_symmetry_equiv_pos_as_xyz
1 x,y,z
2 1/2-x,1/2+y,1/2-z
3 -x,-y,-z
4 1/2+x,1/2-y,1/2+z
_cell_length_a                   12.610(7)
_cell_length_b                   15.935(9)
_cell_length_c                   17.477(10)
_cell_angle_alpha                90
_cell_angle_beta                 101.498(8)
_cell_angle_gamma                90
_cell_volume                     3441.36
loop_
_atom_site_label
_atom_site_type_symbol
_atom_site_fract_x
_atom_site_fract_y
_atom_site_fract_z
Co1 Co 0.50108(6) 0.37334(5) 0.06782(4)
Co2 Co 0.32850(7) 0.33817(6) 0.44337(5)
O1 O 0.5054(3) 0.4979(2) 0.1011(2)
O2 O 0.5811(3) 0.6043(3) 0.0485(2)
O3 O 0.9913(3) 0.5426(4) 0.1985(3)
O4 O 1.0108(3) 0.5522(4) 0.3279(3)
H1 H 1.0687 0.5287 0.3281
O5 O 0.7070(4) 0.6186(4) 0.4557(3)
O6 O 0.5779(4) 0.6911(4) 0.3806(3)
O7 O 0.3654(4) 0.4309(3) 0.3863(3)
O8 O 0.1994(3) 0.4835(3) 0.3545(3)
O9 O 0.1526(4) 0.7333(4) 0.1669(3)
O10 O 0.2870(4) 0.7643(3) 0.1086(3)
O11 O 0.4743(4) 0.2848(4) 0.4872(3)
H2 H 0.4839 0.2833 0.5349
H3 H 0.506(7) 0.244(4) 0.4686(13)
N1 N 0.3479(4) 0.3510(3) 0.0966(3)
N2 N 0.4674(5) 0.2462(3) 0.0334(3)
N3 N 0.6675(4) 0.3810(3) 0.0579(3)
N4 N 0.5890(4) 0.3345(3) 0.1814(3)
C1 C 0.5727(4) 0.5555(3) 0.1040(3)
C2 C 0.6503(4) 0.5719(3) 0.1807(3)
C3 C 0.7621(4) 0.5639(4) 0.1835(3)
H4 H 0.7868 0.5539 0.1377
C4 C 0.8361(4) 0.5706(3) 0.2538(3)
C5 C 0.7996(4) 0.5916(4) 0.3213(3)
H5 H 0.8489 0.5978 0.3682
C6 C 0.6893(4) 0.6034(4) 0.3191(3)
C7 C 0.6129(4) 0.5903(3) 0.2492(3)
C8 C 0.9535(5) 0.5540(4) 0.2564(4)
C9 C 0.6542(5) 0.6385(4) 0.3911(3)
C10 C 0.4951(4) 0.5958(3) 0.2488(3)
C11 C 0.4504(4) 0.5405(4) 0.2961(3)
H6 H 0.4944 0.5007 0.3258
C12 C 0.3402(4) 0.5442(3) 0.2991(3)
C13 C 0.2739(4) 0.6035(4) 0.2530(3)
H7 H 0.2007 0.6063 0.2548
C14 C 0.3161(4) 0.6575(4) 0.2054(3)
C15 C 0.4282(4) 0.6537(4) 0.2020(3)
H8 H 0.4565 0.6893 0.1690
C16 C 0.2964(4) 0.4827(4) 0.3489(3)
C17 C 0.2463(5) 0.7218(4) 0.1590(4)
C18 C 0.2953(5) 0.4070(5) 0.1347(4)
H9 H 0.3243 0.4605 0.1448
C19 C 0.1997(6) 0.3872(5) 0.1591(4)
H10 H 0.1647 0.4264 0.1846
C20 C 0.1591(6) 0.3080(6) 0.1442(5)
H11 H 0.0962 0.2925 0.1608
C21 C 0.2097(6) 0.2515(5) 0.1051(5)
H12 H 0.1805 0.1982 0.0941
C22 C 0.3056(5) 0.2739(4) 0.0816(3)
C23 C 0.3694(5) 0.2169(4) 0.0403(4)
C24 C 0.3320(8) 0.1394(5) 0.0113(5)
H13 H 0.2651 0.1192 0.0177
C25 C 0.3986(10) 0.0917(6) -0.0283(6)
H14 H 0.3754 0.0398 -0.0497
C26 C 0.4964(10) 0.1223(6) -0.0347(5)
H15 H 0.5407 0.0916 -0.0610
C27 C 0.5298(7) 0.1977(5) -0.0029(5)
H16 H 0.5984 0.2168 -0.0062
C28 C 0.7023(5) 0.4101(5) -0.0058(4)
H17 H 0.6517 0.4227 -0.0508
C29 C 0.8110(5) 0.4215(5) -0.0056(4)
H18 H 0.8331 0.4411 -0.0500
C30 C 0.8870(5) 0.4035(5) 0.0614(5)
H19 H 0.9605 0.4110 0.0628
C31 C 0.8510(5) 0.3743(5) 0.1258(4)
H20 H 0.9007 0.3627 0.1714
C32 C 0.7414(5) 0.3620(4) 0.1235(4)
C33 C 0.6975(5) 0.3321(4) 0.1902(4)
C34 C 0.7617(6) 0.3047(5) 0.2601(4)
H21 H 0.8366 0.3038 0.2657
C35 C 0.7152(8) 0.2792(5) 0.3202(4)
H22 H 0.7576 0.2585 0.3660
C36 C 0.6048(8) 0.2846(6) 0.3119(5)
H23 H 0.5720 0.2699 0.3531
C37 C 0.5431(6) 0.3117(5) 0.2426(4)
H24 H 0.4683 0.3146 0.2373
Co1B Co 0.49892(6) 0.62666(5) -0.06782(4)
Co2A Co 0.17150(7) 0.83817(6) 0.05663(5)
Co2B Co 0.67150(7) 0.66183(6) 0.55663(5)
O2B O 0.4189(3) 0.3957(3) -0.0485(2)
O5B O 0.2930(4) 0.3814(4) 0.5443(3)
O10A O 0.2130(4) 0.2643(3) 0.3914(3)
loop_
_geom_bond_atom_site_label_1
_geom_bond_atom_site_label_2
_geom_bond_site_symmetry_1
_geom_bond_site_symmetry_2
Co1 O1 1_555 1_555
Co2 O7 1_555 1_555
O1 C1 1_555 1_555
O2 C1 1_555 1_555
O3 C8 1_555 1_555
O4 H1 1_555 1_555
O5 C9 1_555 1_555
O6 C9 1_555 1_555
O7 C16 1_555 1_555
O8 C16 1_555 1_555
O9 C17 1_555 1_555
O10 C17 1_555 1_555
O11 Co2 1_555 1_555
H2 O11 1_555 1_555
H3 O11 1_555 1_555
N1 Co1 1_555 1_555
N2 Co1 1_555 1_555
N3 Co1 1_555 1_555
N4 Co1 1_555 1_555
C1 C2 1_555 1_555
C2 C3 1_555 1_555
C3 H4 1_555 1_555
C4 C3 1_555 1_555
C5 C4 1_555 1_555
H5 C5 1_555 1_555
C6 C5 1_555 1_555
C7 C2 1_555 1_555
C8 O4 1_555 1_555
C9 C6 1_555 1_555
C10 C7 1_555 1_555
C11 C10 1_555 1_555
H6 C11 1_555 1_555
C12 C11 1_555 1_555
C13 C12 1_555 1_555
H7 C13 1_555 1_555
C14 C13 1_555 1_555
C15 C10 1_555 1_555
H8 C15 1_555 1_555
C16 C12 1_555 1_555
C17 C14 1_555 1_555
C18 N1 1_555 1_555
H9 C18 1_555 1_555
C19 C18 1_555 1_555
H10 C19 1_555 1_555
C20 C19 1_555 1_555
H11 C20 1_555 1_555
C21 C20 1_555 1_555
H12 C21 1_555 1_555
C22 N1 1_555 1_555
C23 N2 1_555 1_555
C24 C23 1_555 1_555
H13 C24 1_555 1_555
C25 C24 1_555 1_555
H14 C25 1_555 1_555
C26 C25 1_555 1_555
H15 C26 1_555 1_555
C27 N2 1_555 1_555
H16 C27 1_555 1_555
C28 N3 1_555 1_555
H17 C28 1_555 1_555
C29 C28 1_555 1_555
H18 C29 1_555 1_555
C30 C29 1_555 1_555
H19 C30 1_555 1_555
C31 C30 1_555 1_555
H20 C31 1_555 1_555
C32 N3 1_555 1_555
C33 N4 1_555 1_555
C34 C33 1_555 1_555
H21 C34 1_555 1_555
C35 C34 1_555 1_555
H22 C35 1_555 1_555
C36 C35 1_555 1_555
H23 C36 1_555 1_555
C37 N4 1_555 1_555
H24 C37 1_555 1_555
Co1B O2 1_555 1_555
Co2A O10 1_555 1_555
Co2B O5 1_555 1_555
O2B Co1 1_555 1_555
O5B Co2 1_555 1_555
O10A Co2 1_555 1_555
C4 C8 1_555 1_555
C6 C7 1_555 1_555
C14 C15 1_555 1_555
C21 C22 1_555 1_555
C22 C23 1_555 1_555
C26 C27 1_555 1_555
C31 C32 1_555 1_555
C32 C33 1_555 1_555
C36 C37 1_555 1_555

#END
