
#######################################################################
#
#                 Cambridge Crystallographic Data Centre
#                                CCDC 
#
#######################################################################
#
# If this CIF has been generated from an entry in the Cambridge 
# Structural Database, then it will include bibliographic, chemical, 
# crystal, experimental, refinement or atomic coordinate data resulting 
# from the CCDC's data processing and validation procedures.
#
#######################################################################

data_AHIZOH
_symmetry_cell_setting           orthorhombic
_symmetry_space_group_name_H-M   'P b c a'
_symmetry_Int_Tables_number      61
_space_group_name_Hall           '-P 2ac 2ab'
loop_
_symmetry_equiv_pos_site_id
_symmetry_equiv_pos_as_xyz
1 x,y,z
2 1/2-x,-y,1/2+z
3 -x,1/2+y,1/2-z
4 1/2+x,1/2-y,-z
5 -x,-y,-z
6 1/2+x,y,1/2-z
7 x,1/2-y,1/2+z
8 1/2-x,1/2+y,z
_cell_length_a                   12.6897(9)
_cell_length_b                   8.6978(6)
_cell_length_c                   15.9901(11)
_cell_angle_alpha                90
_cell_angle_beta                 90
_cell_angle_gamma                90
_cell_volume                     1764.87
loop_
_atom_site_label
_atom_site_type_symbol
_atom_site_fract_x
_atom_site_fract_y
_atom_site_fract_z
Mn1 Mn 0.424357(16) 0.41095(3) 0.616573(13)
O1 O 0.58588(8) 0.47132(17) 0.63754(8)
O2 O 0.62646(10) 0.5230(2) 0.50583(9)
N1 N 0.94522(10) 0.29821(14) 0.74989(8)
H1 H 1.0137 0.2762 0.7416
H2 H 0.9089 0.2094 0.7480
N2 N 1.01478(10) 0.69971(15) 0.54339(8)
H3 H 0.9838 0.7348 0.4965
H4 H 1.0714 0.6449 0.5273
N3 N 0.27114(17) 0.2848(4) 0.62667(12)
N4 N 0.20222(11) 0.20713(17) 0.64389(9)
N5 N 0.12970(15) 0.1336(2) 0.66286(14)
C1 C 0.76645(11) 0.50018(17) 0.60299(9)
C2 C 0.80219(12) 0.40122(16) 0.66519(9)
H5 H 0.7549 0.3385 0.6937
C3 C 0.90934(12) 0.39674(16) 0.68454(9)
C4 C 0.97948(11) 0.49372(17) 0.64319(9)
H6 H 1.0509 0.4908 0.6562
C5 C 0.94274(12) 0.59523(16) 0.58227(9)
C6 C 0.83641(12) 0.59672(16) 0.56084(9)
H7 H 0.8122 0.6615 0.5188
C7 C 0.65095(11) 0.49997(16) 0.58013(9)
Mn1D Mn 0.575643(16) 0.58905(3) 0.383427(13)
Mn1E Mn 0.924357(16) 0.41095(3) 0.883427(13)
Mn1G Mn 1.075643(16) 0.91095(3) 0.616573(13)
Mn1G_2 Mn 0.075643(16) -0.08905(3) 0.616573(13)
O2D O 0.37354(10) 0.4770(2) 0.49417(9)
N1E N 0.44522(10) 0.29821(14) 0.75011(8)
H1E H 0.5137 0.2762 0.7584
H2E H 0.4089 0.2094 0.7520
N2G N 0.48522(10) 0.19971(15) 0.54339(8)
H3G H 0.5162 0.2348 0.4965
H4G H 0.4286 0.1449 0.5273
N5G N 0.37030(15) 0.6336(2) 0.66286(14)
loop_
_geom_bond_atom_site_label_1
_geom_bond_atom_site_label_2
_geom_bond_site_symmetry_1
_geom_bond_site_symmetry_2
Mn1 O1 1_555 1_555
O1 C7 1_555 1_555
O2 C7 1_555 1_555
N1 H1 1_555 1_555
H2 N1 1_555 1_555
N2 H3 1_555 1_555
H4 N2 1_555 1_555
N3 Mn1 1_555 1_555
N4 N3 1_555 1_555
N5 N4 1_555 1_555
C1 C2 1_555 1_555
C2 H5 1_555 1_555
C3 N1 1_555 1_555
C4 C3 1_555 1_555
H6 C4 1_555 1_555
C5 N2 1_555 1_555
C6 C1 1_555 1_555
H7 C6 1_555 1_555
C7 C1 1_555 1_555
Mn1D O2 1_555 1_555
Mn1E N1 1_555 1_555
Mn1G N2 1_555 1_555
Mn1G_2 N5 1_555 1_555
O2D Mn1 1_555 1_555
N1E Mn1 1_555 1_555
H1E N1E 1_555 1_555
H2E N1E 1_555 1_555
N2G Mn1 1_555 1_555
H3G N2G 1_555 1_555
H4G N2G 1_555 1_555
N5G Mn1 1_555 1_555
C2 C3 1_555 1_555
C4 C5 1_555 1_555
C5 C6 1_555 1_555

#END
