
#######################################################################
#
#                 Cambridge Crystallographic Data Centre
#                                CCDC 
#
#######################################################################
#
# If this CIF has been generated from an entry in the Cambridge 
# Structural Database, then it will include bibliographic, chemical, 
# crystal, experimental, refinement or atomic coordinate data resulting 
# from the CCDC's data processing and validation procedures.
#
#######################################################################

data_AHIZAU
_symmetry_cell_setting           tetragonal
_symmetry_space_group_name_H-M   'P 4/n'
_symmetry_Int_Tables_number      85
_space_group_name_Hall           '-P 4a'
loop_
_symmetry_equiv_pos_site_id
_symmetry_equiv_pos_as_xyz
1 x,y,z
2 1/2-x,1/2-y,z
3 1/2-y,x,z
4 y,1/2-x,z
5 -x,-y,-z
6 1/2+x,1/2+y,-z
7 1/2+y,-x,-z
8 -y,1/2+x,-z
_cell_length_a                   24.6698(15)
_cell_length_b                   24.6698(15)
_cell_length_c                   9.9668(12)
_cell_angle_alpha                90
_cell_angle_beta                 90
_cell_angle_gamma                90
_cell_volume                     6065.78
loop_
_atom_site_label
_atom_site_type_symbol
_atom_site_fract_x
_atom_site_fract_y
_atom_site_fract_z
Co1 Co 0.549595(18) 0.821422(19) -0.07521(5)
Na1 Na 0.64359(6) 0.72145(6) -0.07338(14)
Na2 Na 0.7500 0.7500 0.7379(3)
Br1 Br 0.7500 0.7500 0.04666(7)
O1 O 0.63129(11) 0.64676(12) 0.0635(3)
O2 O 0.70649(11) 0.59698(11) 0.0731(2)
O3 O 0.66219(10) 0.58810(10) 0.7605(2)
O4 O 0.70435(10) 0.66820(9) 0.7677(2)
C1 C 0.66782(15) 0.62440(14) 0.1263(3)
C2 C 0.67951(13) 0.63127(13) 0.7075(3)
C3 C 0.66828(14) 0.62777(14) 0.2772(3)
C4 C 0.71274(15) 0.64783(15) 0.3419(4)
H1 H 0.7425 0.6594 0.2922
C5 C 0.71411(14) 0.65125(14) 0.4821(3)
H2 H 0.7448 0.6652 0.5240
C6 C 0.67139(14) 0.63452(13) 0.5583(3)
C7 C 0.62325(14) 0.61450(14) 0.4951(3)
C8 C 0.57659(15) 0.59836(18) 0.5679(4)
H3 H 0.5760 0.6024 0.6606
C9 C 0.53288(17) 0.5771(2) 0.5047(5)
H4 H 0.5029 0.5666 0.5548
C10 C 0.53216(17) 0.57077(19) 0.3643(4)
H5 H 0.5022 0.5555 0.3222
C11 C 0.57561(15) 0.58714(16) 0.2910(4)
H6 H 0.5749 0.5830 0.1982
C12 C 0.62204(14) 0.61046(14) 0.3524(3)
O5 O 0.37233(14) 0.49552(13) -0.0333(4)
O6 O 0.3883(2) 0.52193(18) 0.1658(5)
O7 O 0.49607(12) 0.76218(11) -0.0967(3)
O8 O 0.56170(11) 0.71050(12) -0.1771(3)
C13 C 0.39352(19) 0.52710(19) 0.0464(6)
C14 C 0.51560(17) 0.71623(16) -0.1304(4)
C15 C 0.42335(17) 0.57598(16) -0.0116(4)
C16 C 0.47838(18) 0.57649(17) -0.0133(5)
H7 H 0.4973 0.5465 0.0181
C17 C 0.50714(18) 0.62135(16) -0.0616(5)
H8 H 0.5448 0.6200 -0.0652
C18 C 0.48067(16) 0.66723(16) -0.1038(4)
C19 C 0.42259(16) 0.66812(15) -0.1063(4)
C20 C 0.39231(18) 0.71217(18) -0.1561(5)
H9 H 0.4102 0.7427 -0.1886
C21 C 0.3373(2) 0.7105(2) -0.1571(7)
H10 H 0.3180 0.7397 -0.1920
C22 C 0.3093(2) 0.6658(2) -0.1067(7)
H11 H 0.2716 0.6660 -0.1056
C23 C 0.33632(18) 0.62234(19) -0.0596(5)
H12 H 0.3171 0.5927 -0.0268
C24 C 0.39403(16) 0.62144(16) -0.0596(4)
Co1A Co 0.950405(18) 0.678578(19) -0.07521(5)
Na1A Na 0.85641(6) 0.77855(6) -0.07338(14)
O1A O 0.86871(11) 0.85324(12) 0.0635(3)
O2A O 0.79351(11) 0.90302(11) 0.0731(2)
O3A O 0.83781(10) 0.91190(10) 0.7605(2)
O4A O 0.79565(10) 0.83180(9) 0.7677(2)
C1A C 0.83218(15) 0.87560(14) 0.1263(3)
C2A C 0.82049(13) 0.86873(13) 0.7075(3)
C3A C 0.83172(14) 0.87223(14) 0.2772(3)
C4A C 0.78726(15) 0.85217(15) 0.3419(4)
H1A H 0.7575 0.8406 0.2922
C5A C 0.78589(14) 0.84875(14) 0.4821(3)
H2A H 0.7552 0.8348 0.5240
C6A C 0.82861(14) 0.86548(13) 0.5583(3)
C7A C 0.87675(14) 0.88550(14) 0.4951(3)
C8A C 0.92341(15) 0.90164(18) 0.5679(4)
H3A H 0.9240 0.8976 0.6606
C9A C 0.96712(17) 0.9229(2) 0.5047(5)
H4A H 0.9971 0.9334 0.5548
C10A C 0.96784(17) 0.92923(19) 0.3643(4)
H5A H 0.9978 0.9445 0.3222
C11A C 0.92439(15) 0.91286(16) 0.2910(4)
H6A H 0.9251 0.9170 0.1982
C12A C 0.87796(14) 0.88954(14) 0.3524(3)
O5A O 1.12767(14) 1.00448(13) -0.0333(4)
O6A O 1.1117(2) 0.97807(18) 0.1658(5)
O7A O 1.00393(12) 0.73782(11) -0.0967(3)
O8A O 0.93830(11) 0.78950(12) -0.1771(3)
C13A C 1.10648(19) 0.97290(19) 0.0464(6)
C14A C 0.98440(17) 0.78377(16) -0.1304(4)
C15A C 1.07665(17) 0.92402(16) -0.0116(4)
C16A C 1.02162(18) 0.92351(17) -0.0133(5)
H7A H 1.0027 0.9535 0.0181
C17A C 0.99286(18) 0.87865(16) -0.0616(5)
H8A H 0.9552 0.8800 -0.0652
C18A C 1.01933(16) 0.83277(16) -0.1038(4)
C19A C 1.07741(16) 0.83188(15) -0.1063(4)
C20A C 1.10769(18) 0.78783(18) -0.1561(5)
H9A H 1.0898 0.7573 -0.1886
C21A C 1.1627(2) 0.7895(2) -0.1571(7)
H10A H 1.1820 0.7603 -0.1920
C22A C 1.1907(2) 0.8342(2) -0.1067(7)
H11A H 1.2284 0.8340 -0.1056
C23A C 1.16368(18) 0.87766(19) -0.0596(5)
H12A H 1.1829 0.9073 -0.0268
C24A C 1.10597(16) 0.87856(16) -0.0596(4)
Co1B Co 0.678578(19) 0.549595(18) -0.07521(5)
Na1B Na 0.77855(6) 0.64359(6) -0.07338(14)
O1B O 0.85324(12) 0.63129(11) 0.0635(3)
O2B O 0.90302(11) 0.70649(11) 0.0731(2)
O3B O 0.91190(10) 0.66219(10) 0.7605(2)
O4B O 0.83180(9) 0.70435(10) 0.7677(2)
C1B C 0.87560(14) 0.66782(15) 0.1263(3)
C2B C 0.86873(13) 0.67951(13) 0.7075(3)
C3B C 0.87223(14) 0.66828(14) 0.2772(3)
C4B C 0.85217(15) 0.71274(15) 0.3419(4)
H1B H 0.8406 0.7425 0.2922
C5B C 0.84875(14) 0.71411(14) 0.4821(3)
H2B H 0.8348 0.7448 0.5240
C6B C 0.86548(13) 0.67139(14) 0.5583(3)
C7B C 0.88550(14) 0.62325(14) 0.4951(3)
C8B C 0.90164(18) 0.57659(15) 0.5679(4)
H3B H 0.8976 0.5760 0.6606
C9B C 0.9229(2) 0.53288(17) 0.5047(5)
H4B H 0.9334 0.5029 0.5548
C10B C 0.92923(19) 0.53216(17) 0.3643(4)
H5B H 0.9445 0.5022 0.3222
C11B C 0.91286(16) 0.57561(15) 0.2910(4)
H6B H 0.9170 0.5749 0.1982
C12B C 0.88954(14) 0.62204(14) 0.3524(3)
O5B O 1.00448(13) 0.37233(14) -0.0333(4)
O6B O 0.97807(18) 0.3883(2) 0.1658(5)
O7B O 0.73782(11) 0.49607(12) -0.0967(3)
O8B O 0.78950(12) 0.56170(11) -0.1771(3)
C13B C 0.97290(19) 0.39352(19) 0.0464(6)
C14B C 0.78377(16) 0.51560(17) -0.1304(4)
C15B C 0.92402(16) 0.42335(17) -0.0116(4)
C16B C 0.92351(17) 0.47838(18) -0.0133(5)
H7B H 0.9535 0.4973 0.0181
C17B C 0.87865(16) 0.50714(18) -0.0616(5)
H8B H 0.8800 0.5448 -0.0652
C18B C 0.83277(16) 0.48067(16) -0.1038(4)
C19B C 0.83188(15) 0.42259(16) -0.1063(4)
C20B C 0.78783(18) 0.39231(18) -0.1561(5)
H9B H 0.7573 0.4102 -0.1886
C21B C 0.7895(2) 0.3373(2) -0.1571(7)
H10B H 0.7603 0.3180 -0.1920
C22B C 0.8342(2) 0.3093(2) -0.1067(7)
H11B H 0.8340 0.2716 -0.1056
C23B C 0.87766(19) 0.33632(18) -0.0596(5)
H12B H 0.9073 0.3171 -0.0268
C24B C 0.87856(16) 0.39403(16) -0.0596(4)
Co1C Co 0.821422(19) 0.950405(18) -0.07521(5)
Na1C Na 0.72145(6) 0.85641(6) -0.07338(14)
O1C O 0.64676(12) 0.86871(11) 0.0635(3)
O2C O 0.59698(11) 0.79351(11) 0.0731(2)
O3C O 0.58810(10) 0.83781(10) 0.7605(2)
O4C O 0.66820(9) 0.79565(10) 0.7677(2)
C1C C 0.62440(14) 0.83218(15) 0.1263(3)
C2C C 0.63127(13) 0.82049(13) 0.7075(3)
C3C C 0.62777(14) 0.83172(14) 0.2772(3)
C4C C 0.64783(15) 0.78726(15) 0.3419(4)
H1C H 0.6594 0.7575 0.2922
C5C C 0.65125(14) 0.78589(14) 0.4821(3)
H2C H 0.6652 0.7552 0.5240
C6C C 0.63452(13) 0.82861(14) 0.5583(3)
C7C C 0.61450(14) 0.87675(14) 0.4951(3)
C8C C 0.59836(18) 0.92341(15) 0.5679(4)
H3C H 0.6024 0.9240 0.6606
C9C C 0.5771(2) 0.96712(17) 0.5047(5)
H4C H 0.5666 0.9971 0.5548
C10C C 0.57077(19) 0.96784(17) 0.3643(4)
H5C H 0.5555 0.9978 0.3222
C11C C 0.58714(16) 0.92439(15) 0.2910(4)
H6C H 0.5830 0.9251 0.1982
C12C C 0.61046(14) 0.87796(14) 0.3524(3)
O5C O 0.49552(13) 1.12767(14) -0.0333(4)
O6C O 0.52193(18) 1.1117(2) 0.1658(5)
O7C O 0.76218(11) 1.00393(12) -0.0967(3)
O8C O 0.71050(12) 0.93830(11) -0.1771(3)
C13C C 0.52710(19) 1.10648(19) 0.0464(6)
C14C C 0.71623(16) 0.98440(17) -0.1304(4)
C15C C 0.57598(16) 1.07665(17) -0.0116(4)
C16C C 0.57649(17) 1.02162(18) -0.0133(5)
H7C H 0.5465 1.0027 0.0181
C17C C 0.62135(16) 0.99286(18) -0.0616(5)
H8C H 0.6200 0.9552 -0.0652
C18C C 0.66723(16) 1.01933(16) -0.1038(4)
C19C C 0.66812(15) 1.07741(16) -0.1063(4)
C20C C 0.71217(18) 1.10769(18) -0.1561(5)
H9C H 0.7427 1.0898 -0.1886
C21C C 0.7105(2) 1.1627(2) -0.1571(7)
H10C H 0.7397 1.1820 -0.1920
C22C C 0.6658(2) 1.1907(2) -0.1067(7)
H11C H 0.6660 1.2284 -0.1056
C23C C 0.62234(19) 1.16368(18) -0.0596(5)
H12C H 0.5927 1.1829 -0.0268
C24C C 0.62144(16) 1.10597(16) -0.0596(4)
Co1_2 Co 0.549595(18) 0.821422(19) 0.92479(5)
Co1A_2 Co 0.950405(18) 0.678578(19) 0.92479(5)
Co1B_2 Co 0.678578(19) 0.549595(18) 0.92479(5)
Co1C_2 Co 0.821422(19) 0.950405(18) 0.92479(5)
Co1D Co 0.450405(18) 1.178578(19) 0.07521(5)
Co1E Co 1.049595(18) 0.321422(19) 0.07521(5)
Co1F Co 0.321422(19) 0.450405(18) 0.07521(5)
Co1G Co 1.178578(19) 1.049595(18) 0.07521(5)
Na1_2 Na 0.64359(6) 0.72145(6) 0.92662(14)
Na1A_2 Na 0.85641(6) 0.77855(6) 0.92662(14)
Na1B_2 Na 0.77855(6) 0.64359(6) 0.92662(14)
Na1C_2 Na 0.72145(6) 0.85641(6) 0.92662(14)
Na2_2 Na 0.7500 0.7500 -0.2621(3)
Br1_2 Br 0.7500 0.7500 1.04666(7)
O3_2 O 0.66219(10) 0.58810(10) -0.2395(2)
O3A_2 O 0.83781(10) 0.91190(10) -0.2395(2)
O3B_2 O 0.91190(10) 0.66219(10) -0.2395(2)
O3C_2 O 0.58810(10) 0.83781(10) -0.2395(2)
O4_2 O 0.70435(10) 0.66820(9) -0.2323(2)
O4A_2 O 0.79565(10) 0.83180(9) -0.2323(2)
O4B_2 O 0.83180(9) 0.70435(10) -0.2323(2)
O4C_2 O 0.66820(9) 0.79565(10) -0.2323(2)
O5D O 0.62767(14) 0.50448(13) 0.0333(4)
O5E O 0.87233(14) 0.99552(13) 0.0333(4)
O5F O 0.99552(13) 0.62767(14) 0.0333(4)
O5G O 0.50448(13) 0.87233(14) 0.0333(4)
N1 N 0.2523(2) 0.49294(17) -0.3473(5)
N2 N 0.3247(3) 0.5177(2) -0.4471(8)
C25 C 0.2136(3) 0.4817(3) -0.2391(9)
H13 H 0.2298 0.4906 -0.1543
H14 H 0.2041 0.4440 -0.2403
H15 H 0.1816 0.5032 -0.2519
C26 C 0.3009(2) 0.5119(2) -0.3290(6)
H16 H 0.3164 0.5200 -0.2464
C27 C 0.2454(4) 0.4869(3) -0.4830(9)
H17 H 0.2142 0.4746 -0.5256
C28 C 0.2881(5) 0.5008(3) -0.5390(9)
H18 H 0.2941 0.4998 -0.6311
C29 C 0.3794(4) 0.5431(3) -0.4621(10)
H19 H 0.3969 0.5313 -0.5431
H20 H 0.4013 0.5319 -0.3874
C30 C 0.378(2) 0.6037(5) -0.458(3)
H21 H 0.3517 0.6173 -0.3943
H22 H 0.4134 0.6192 -0.4393
C31 C 0.3615(14) 0.6127(14) -0.595(3)
H23 H 0.3224 0.6163 -0.5986
H24 H 0.3715 0.5815 -0.6490
C32 C 0.3861(15) 0.6608(12) -0.652(3)
H25 H 0.3849 0.6581 -0.7486
H26 H 0.4239 0.6617 -0.6251
C33 C 0.3609(15) 0.7114(13) -0.612(4)
H27 H 0.3817 0.7412 -0.6459
H28 H 0.3595 0.7134 -0.5156
H29 H 0.3248 0.7130 -0.6472
C34? C 0.3778(13) 0.5961(8) -0.528(3)
H30? H 0.3813 0.6216 -0.4539
H31? H 0.4119 0.5979 -0.5758
C35? C 0.3397(13) 0.6220(13) -0.617(4)
H32? H 0.3047 0.6220 -0.5725
H33? H 0.3364 0.5993 -0.6957
C36? C 0.3504(15) 0.6772(12) -0.662(3)
H34? H 0.3890 0.6845 -0.6645
H35? H 0.3354 0.6832 -0.7510
C37? C 0.3236(14) 0.7111(14) -0.564(3)
H36? H 0.3295 0.7485 -0.5854
H37? H 0.3381 0.7035 -0.4764
H38? H 0.2854 0.7036 -0.5644
C38? C 0.3832(17) 0.6014(6) -0.423(3)
H39? H 0.3692 0.6052 -0.3322
H40? H 0.4211 0.6116 -0.4208
C39? C 0.3548(12) 0.6389(11) -0.508(3)
H41? H 0.3220 0.6479 -0.4592
H42? H 0.3432 0.6176 -0.5845
C40? C 0.3733(17) 0.6900(13) -0.565(3)
H43? H 0.4089 0.6978 -0.5280
H44? H 0.3491 0.7184 -0.5340
C41? C 0.3769(14) 0.6934(15) -0.711(3)
H45? H 0.3884 0.7291 -0.7364
H46? H 0.3419 0.6860 -0.7494
H47? H 0.4026 0.6672 -0.7430
loop_
_geom_bond_atom_site_label_1
_geom_bond_atom_site_label_2
_geom_bond_site_symmetry_1
_geom_bond_site_symmetry_2
Co1 O7 1_555 1_555
Na1 Br1 1_555 1_555
Na2 O4 1_555 1_555
Br1 Na1A 1_555 1_555
O1 Na1 1_555 1_555
O2 C1 1_555 1_555
O3 C2 1_555 1_555
O4 C2 1_555 1_555
C1 O1 1_555 1_555
C2 C6 1_555 1_555
C3 C1 1_555 1_555
C4 C3 1_555 1_555
H1 C4 1_555 1_555
C5 C4 1_555 1_555
H2 C5 1_555 1_555
C6 C5 1_555 1_555
C7 C6 1_555 1_555
C8 C7 1_555 1_555
H3 C8 1_555 1_555
C9 C8 1_555 1_555
H4 C9 1_555 1_555
C10 C9 1_555 1_555
H5 C10 1_555 1_555
C11 C10 1_555 1_555
H6 C11 1_555 1_555
C12 C3 1_555 1_555
O5 C13 1_555 1_555
O6 C13 1_555 1_555
O7 C14 1_555 1_555
O8 Na1 1_555 1_555
C13 C15 1_555 1_555
C14 O8 1_555 1_555
C15 C16 1_555 1_555
C16 H7 1_555 1_555
C17 C16 1_555 1_555
H8 C17 1_555 1_555
C18 C14 1_555 1_555
C19 C18 1_555 1_555
C20 C19 1_555 1_555
H9 C20 1_555 1_555
C21 C20 1_555 1_555
H10 C21 1_555 1_555
C22 C21 1_555 1_555
H11 C22 1_555 1_555
C23 C22 1_555 1_555
H12 C23 1_555 1_555
C24 C15 1_555 1_555
N1 C25 1_555 1_555
N2 C26 1_555 1_555
C25 H13 1_555 1_555
H14 C25 1_555 1_555
H15 C25 1_555 1_555
C26 N1 1_555 1_555
H16 C26 1_555 1_555
C27 N1 1_555 1_555
H17 C27 1_555 1_555
C28 N2 1_555 1_555
H18 C28 1_555 1_555
C29 N2 1_555 1_555
H19 C29 1_555 1_555
H20 C29 1_555 1_555
C30 C29 1_555 1_555
H21 C30 1_555 1_555
H22 C30 1_555 1_555
C31 C30 1_555 1_555
H23 C31 1_555 1_555
H24 C31 1_555 1_555
C32 C31 1_555 1_555
H25 C32 1_555 1_555
H26 C32 1_555 1_555
C33 C32 1_555 1_555
H27 C33 1_555 1_555
H28 C33 1_555 1_555
H29 C33 1_555 1_555
Co1A O7A 1_555 1_555
Na1A O1A 1_555 1_555
O1A C1A 1_555 1_555
O2A C1A 1_555 1_555
O3A C2A 1_555 1_555
O4A Na2 1_555 1_555
C1A C3A 1_555 1_555
C2A O4A 1_555 1_555
C3A C4A 1_555 1_555
C4A H1A 1_555 1_555
C5A C4A 1_555 1_555
H2A C5A 1_555 1_555
C6A C2A 1_555 1_555
C7A C6A 1_555 1_555
C8A C7A 1_555 1_555
H3A C8A 1_555 1_555
C9A C8A 1_555 1_555
H4A C9A 1_555 1_555
C10A C9A 1_555 1_555
H5A C10A 1_555 1_555
C11A C10A 1_555 1_555
H6A C11A 1_555 1_555
C12A C3A 1_555 1_555
O5A C13A 1_555 1_555
O6A C13A 1_555 1_555
O7A C14A 1_555 1_555
O8A Na1A 1_555 1_555
C13A C15A 1_555 1_555
C14A O8A 1_555 1_555
C15A C16A 1_555 1_555
C16A H7A 1_555 1_555
C17A C16A 1_555 1_555
H8A C17A 1_555 1_555
C18A C14A 1_555 1_555
C19A C18A 1_555 1_555
C20A C19A 1_555 1_555
H9A C20A 1_555 1_555
C21A C20A 1_555 1_555
H10A C21A 1_555 1_555
C22A C21A 1_555 1_555
H11A C22A 1_555 1_555
C23A C22A 1_555 1_555
H12A C23A 1_555 1_555
C24A C15A 1_555 1_555
Co1B O2 1_555 1_555
Na1B Br1 1_555 1_555
O1B Na1B 1_555 1_555
O2B Co1A 1_555 1_555
O3B C2B 1_555 1_555
O4B Na2 1_555 1_555
C1B O1B 1_555 1_555
C2B O4B 1_555 1_555
C3B C1B 1_555 1_555
C4B C3B 1_555 1_555
H1B C4B 1_555 1_555
C5B C4B 1_555 1_555
H2B C5B 1_555 1_555
C6B C2B 1_555 1_555
C7B C6B 1_555 1_555
C8B C7B 1_555 1_555
H3B C8B 1_555 1_555
C9B C8B 1_555 1_555
H4B C9B 1_555 1_555
C10B C9B 1_555 1_555
H5B C10B 1_555 1_555
C11B C10B 1_555 1_555
H6B C11B 1_555 1_555
C12B C3B 1_555 1_555
O5B C13B 1_555 1_555
O6B C13B 1_555 1_555
O7B Co1B 1_555 1_555
O8B Na1B 1_555 1_555
C13B C15B 1_555 1_555
C14B O7B 1_555 1_555
C15B C16B 1_555 1_555
C16B H7B 1_555 1_555
C17B C16B 1_555 1_555
H8B C17B 1_555 1_555
C18B C14B 1_555 1_555
C19B C18B 1_555 1_555
C20B C19B 1_555 1_555
H9B C20B 1_555 1_555
C21B C20B 1_555 1_555
H10B C21B 1_555 1_555
C22B C21B 1_555 1_555
H11B C22B 1_555 1_555
C23B C22B 1_555 1_555
H12B C23B 1_555 1_555
C24B C15B 1_555 1_555
Co1C O2A 1_555 1_555
Na1C Br1 1_555 1_555
O1C Na1C 1_555 1_555
O2C Co1 1_555 1_555
O3C C2C 1_555 1_555
O4C Na2 1_555 1_555
C1C O1C 1_555 1_555
C2C O4C 1_555 1_555
C3C C1C 1_555 1_555
C4C C3C 1_555 1_555
H1C C4C 1_555 1_555
C5C C4C 1_555 1_555
H2C C5C 1_555 1_555
C6C C2C 1_555 1_555
C7C C6C 1_555 1_555
C8C C7C 1_555 1_555
H3C C8C 1_555 1_555
C9C C8C 1_555 1_555
H4C C9C 1_555 1_555
C10C C9C 1_555 1_555
H5C C10C 1_555 1_555
C11C C10C 1_555 1_555
H6C C11C 1_555 1_555
C12C C3C 1_555 1_555
O5C C13C 1_555 1_555
O6C C13C 1_555 1_555
O7C Co1C 1_555 1_555
O8C Na1C 1_555 1_555
C13C C15C 1_555 1_555
C14C O7C 1_555 1_555
C15C C16C 1_555 1_555
C16C H7C 1_555 1_555
C17C C16C 1_555 1_555
H8C C17C 1_555 1_555
C18C C14C 1_555 1_555
C19C C18C 1_555 1_555
C20C C19C 1_555 1_555
H9C C20C 1_555 1_555
C21C C20C 1_555 1_555
H10C C21C 1_555 1_555
C22C C21C 1_555 1_555
H11C C22C 1_555 1_555
C23C C22C 1_555 1_555
H12C C23C 1_555 1_555
C24C C15C 1_555 1_555
Co1_2 O3C 1_555 1_555
Co1A_2 O3B 1_555 1_555
Co1B_2 O3 1_555 1_555
Co1C_2 O3A 1_555 1_555
Co1D O5C 1_555 1_555
Co1E O5B 1_555 1_555
Co1F O5 1_555 1_555
Co1G O5A 1_555 1_555
Na1_2 O4 1_555 1_555
Na1A_2 O4A 1_555 1_555
Na1B_2 O4 1_555 1_555
Na1C_2 O4A 1_555 1_555
Na2_2 Br1 1_555 1_555
Br1_2 Na2 1_555 1_555
O3_2 Co1B 1_555 1_555
O3A_2 Co1C 1_555 1_555
O3B_2 Co1A 1_555 1_555
O3C_2 Co1 1_555 1_555
O4_2 Na1 1_555 1_555
O4A_2 Na1A 1_555 1_555
O4B_2 Na1A 1_555 1_555
O4C_2 Na1 1_555 1_555
O5D Co1B 1_555 1_555
O5E Co1C 1_555 1_555
O5F Co1A 1_555 1_555
O5G Co1 1_555 1_555
Na1 O2C 1_555 1_555
O2 Na1B 1_555 1_555
C7 C12 1_555 1_555
C11 C12 1_555 1_555
C17 C18 1_555 1_555
C19 C24 1_555 1_555
C23 C24 1_555 1_555
C27 C28 1_555 1_555
Na1A O2B 1_555 1_555
O2A Na1C 1_555 1_555
C5A C6A 1_555 1_555
C7A C12A 1_555 1_555
C11A C12A 1_555 1_555
C17A C18A 1_555 1_555
C19A C24A 1_555 1_555
C23A C24A 1_555 1_555
Na1B O4_2 1_555 1_555
Na1B O4B_2 1_555 1_555
O2B C1B 1_555 1_555
O4B Na1A_2 1_555 1_555
O4B Na1B_2 1_555 1_555
C5B C6B 1_555 1_555
C7B C12B 1_555 1_555
C11B C12B 1_555 1_555
O8B C14B 1_555 1_555
C17B C18B 1_555 1_555
C19B C24B 1_555 1_555
C23B C24B 1_555 1_555
Na1C O4A_2 1_555 1_555
Na1C O4C_2 1_555 1_555
O2C C1C 1_555 1_555
O4C Na1_2 1_555 1_555
O4C Na1C_2 1_555 1_555
C5C C6C 1_555 1_555
C7C C12C 1_555 1_555
C11C C12C 1_555 1_555
O8C C14C 1_555 1_555
C17C C18C 1_555 1_555
C19C C24C 1_555 1_555
C23C C24C 1_555 1_555
Na1_2 Br1_2 1_555 1_555
Na1A_2 Br1_2 1_555 1_555
Na1B_2 Br1_2 1_555 1_555
Na1C_2 Br1_2 1_555 1_555
Na2_2 O4_2 1_555 1_555
Na2_2 O4A_2 1_555 1_555
Na2_2 O4B_2 1_555 1_555
Na2_2 O4C_2 1_555 1_555

#END
