
#######################################################################
#
#                 Cambridge Crystallographic Data Centre
#                                CCDC 
#
#######################################################################
#
# If this CIF has been generated from an entry in the Cambridge 
# Structural Database, then it will include bibliographic, chemical, 
# crystal, experimental, refinement or atomic coordinate data resulting 
# from the CCDC's data processing and validation procedures.
#
#######################################################################

data_AHIZUO
_symmetry_cell_setting           monoclinic
_symmetry_space_group_name_H-M   'P 21/c'
_symmetry_Int_Tables_number      14
_space_group_name_Hall           '-P 2ybc'
loop_
_symmetry_equiv_pos_site_id
_symmetry_equiv_pos_as_xyz
1 x,y,z
2 -x,1/2+y,1/2-z
3 -x,-y,-z
4 x,1/2-y,1/2+z
_cell_length_a                   8.887(5)
_cell_length_b                   13.014(6)
_cell_length_c                   25.860(14)
_cell_angle_alpha                90
_cell_angle_beta                 99.819(5)
_cell_angle_gamma                90
_cell_volume                     2947.04
loop_
_atom_site_label
_atom_site_type_symbol
_atom_site_fract_x
_atom_site_fract_y
_atom_site_fract_z
O1 O 2.0185(4) 0.4194(3) 0.39499(12)
H1 H 2.0055 0.3709 0.4164
H2 H 2.0344 0.4764 0.4110
O2 O 0.2241(6) 0.9896(4) 0.14774(19)
H3 H 0.2039 0.9803 0.1121
H4 H 0.1308 1.0134 0.1543
Co1 Co 0.77555(4) 0.80647(3) -0.04782(2)
O3 O 0.5701(3) 0.78705(19) -0.08739(10)
O4 O 0.5910(3) 0.6230(2) -0.11217(11)
O5 O 0.2745(4) 0.6414(3) -0.30487(12)
O6 O 0.0325(4) 0.6892(3) -0.30831(11)
H5 H 0.0178 0.6552 -0.3354
O7 O -0.1439(3) 0.8523(3) -0.16136(11)
O8 O -0.0553(3) 0.7759(2) -0.08497(9)
O9 O 0.2209(3) 1.07191(19) -0.00205(9)
O10 O 0.2524(3) 1.0139(2) 0.07791(10)
O11 O 0.4066(5) 0.6418(2) 0.11303(11)
O12 O 0.3612(4) 0.5340(2) 0.04511(11)
H6 H 0.3769 0.4905 0.0683
N1 N 0.8202(3) 0.7005(2) 0.01183(12)
N2 N 1.5679(4) 0.5620(3) 0.31852(13)
H7 H 1.6514 0.5793 0.3386
C1 C 0.5196(4) 0.7045(2) -0.11131(12)
C2 C 0.3593(4) 0.7145(2) -0.14254(12)
C3 C 0.3374(4) 0.6901(2) -0.19617(13)
H8 H 0.4172 0.6622 -0.2106
C4 C 0.1974(4) 0.7075(3) -0.22762(13)
C5 C 0.0788(4) 0.7505(3) -0.20546(12)
H9 H -0.0134 0.7662 -0.2269
C6 C 0.0968(3) 0.7703(2) -0.15195(12)
C7 C 0.2393(3) 0.7528(2) -0.11964(12)
C8 C 0.1737(5) 0.6761(3) -0.28431(15)
C9 C -0.0456(4) 0.8037(3) -0.13134(13)
C10 C 0.2635(3) 0.7729(3) -0.06187(12)
C11 C 0.2470(4) 0.8720(3) -0.04321(12)
H10 H 0.2220 0.9256 -0.0669
C12 C 0.2676(4) 0.8917(2) 0.01074(12)
C13 C 0.3080(4) 0.8108(3) 0.04616(13)
H11 H 0.3216 0.8230 0.0821
C14 C 0.3277(4) 0.7120(3) 0.02755(13)
C15 C 0.3046(4) 0.6929(2) -0.02648(13)
H12 H 0.3167 0.6267 -0.0388
C16 C 0.2464(4) 0.9976(3) 0.03034(12)
C17 C 0.3692(5) 0.6269(3) 0.06654(15)
C18 C 0.7429(6) 0.7012(4) 0.0519(2)
H13 H 0.6616 0.7466 0.0509
C19 C 0.7794(7) 0.6371(5) 0.0945(2)
H14 H 0.7199 0.6382 0.1208
C20 C 0.9019(5) 0.5717(4) 0.09890(18)
C21 C 0.9823(7) 0.5753(5) 0.0582(2)
H15 H 1.0677 0.5335 0.0594
C22 C 0.9403(5) 0.6386(4) 0.0159(2)
H16 H 0.9980 0.6381 -0.0109
C23 C 1.1014(6) 0.5365(4) 0.17771(19)
H17 H 1.1754 0.5463 0.1546
H18 H 1.0857 0.6026 0.1932
C24 C 1.1679(8) 0.4658(5) 0.2201(3)
H19 H 1.1919 0.4015 0.2044
H20 H 1.0910 0.4514 0.2416
C25 C 1.3086(6) 0.5034(4) 0.25515(19)
C26 C 1.3254(6) 0.4947(4) 0.3090(2)
H21 H 1.2459 0.4681 0.3241
C27 C 1.4564(5) 0.5243(4) 0.34013(18)
H22 H 1.4673 0.5181 0.3764
C28 C 1.5578(5) 0.5747(4) 0.26745(18)
H23 H 1.6384 0.6036 0.2538
C29 C 1.4274(6) 0.5449(4) 0.23460(19)
H24 H 1.4196 0.5529 0.1985
C30 C 0.9520(7) 0.5030(5) 0.1448(2)
H25 H 0.9632 0.4336 0.1323
H26 H 0.8735 0.5018 0.1667
Co1_2 Co -0.22445(4) 0.80647(3) -0.04782(2)
Co1B Co 0.22445(4) 1.19353(3) 0.04782(2)
O8_2 O 0.9447(3) 0.7759(2) -0.08497(9)
O9B O 0.7791(3) 0.92809(19) 0.00205(9)
loop_
_geom_bond_atom_site_label_1
_geom_bond_atom_site_label_2
_geom_bond_site_symmetry_1
_geom_bond_site_symmetry_2
O1 H1 1_555 1_555
H2 O1 1_555 1_555
O2 H3 1_555 1_555
H4 O2 1_555 1_555
Co1 O3 1_555 1_555
O3 C1 1_555 1_555
O4 C1 1_555 1_555
O5 C8 1_555 1_555
O6 H5 1_555 1_555
O7 C9 1_555 1_555
O8 C9 1_555 1_555
O9 C16 1_555 1_555
O10 C16 1_555 1_555
O11 C17 1_555 1_555
O12 H6 1_555 1_555
N1 Co1 1_555 1_555
N2 H7 1_555 1_555
C1 C2 1_555 1_555
C2 C3 1_555 1_555
C3 H8 1_555 1_555
C4 C3 1_555 1_555
C5 C4 1_555 1_555
H9 C5 1_555 1_555
C6 C5 1_555 1_555
C7 C2 1_555 1_555
C8 O6 1_555 1_555
C9 C6 1_555 1_555
C10 C7 1_555 1_555
C11 C10 1_555 1_555
H10 C11 1_555 1_555
C12 C11 1_555 1_555
C13 C12 1_555 1_555
H11 C13 1_555 1_555
C14 C13 1_555 1_555
C15 C10 1_555 1_555
H12 C15 1_555 1_555
C16 C12 1_555 1_555
C17 O12 1_555 1_555
C18 N1 1_555 1_555
H13 C18 1_555 1_555
C19 C18 1_555 1_555
H14 C19 1_555 1_555
C20 C19 1_555 1_555
C21 C20 1_555 1_555
H15 C21 1_555 1_555
C22 N1 1_555 1_555
H16 C22 1_555 1_555
C23 H17 1_555 1_555
H18 C23 1_555 1_555
C24 C23 1_555 1_555
H19 C24 1_555 1_555
H20 C24 1_555 1_555
C25 C24 1_555 1_555
C26 C25 1_555 1_555
H21 C26 1_555 1_555
C27 N2 1_555 1_555
H22 C27 1_555 1_555
C28 N2 1_555 1_555
H23 C28 1_555 1_555
C29 C25 1_555 1_555
H24 C29 1_555 1_555
C30 C20 1_555 1_555
H25 C30 1_555 1_555
H26 C30 1_555 1_555
Co1_2 O8 1_555 1_555
Co1B O9 1_555 1_555
O8_2 Co1 1_555 1_555
O9B Co1 1_555 1_555
C4 C8 1_555 1_555
C6 C7 1_555 1_555
C14 C15 1_555 1_555
C14 C17 1_555 1_555
C21 C22 1_555 1_555
C23 C30 1_555 1_555
C26 C27 1_555 1_555
C28 C29 1_555 1_555

#END
