
#######################################################################
#
#                 Cambridge Crystallographic Data Centre
#                                CCDC 
#
#######################################################################
#
# If this CIF has been generated from an entry in the Cambridge 
# Structural Database, then it will include bibliographic, chemical, 
# crystal, experimental, refinement or atomic coordinate data resulting 
# from the CCDC's data processing and validation procedures.
#
#######################################################################

data_AHIZIB01
_symmetry_cell_setting           monoclinic
_symmetry_space_group_name_H-M   'P 21/c'
_symmetry_Int_Tables_number      14
_space_group_name_Hall           '-P 2ybc'
loop_
_symmetry_equiv_pos_site_id
_symmetry_equiv_pos_as_xyz
1 x,y,z
2 -x,1/2+y,1/2-z
3 -x,-y,-z
4 x,1/2-y,1/2+z
_cell_length_a                   7.820(2)
_cell_length_b                   42.017(8)
_cell_length_c                   13.568(3)
_cell_angle_alpha                90
_cell_angle_beta                 100.08(3)
_cell_angle_gamma                90
_cell_volume                     4389.26
loop_
_atom_site_label
_atom_site_type_symbol
_atom_site_fract_x
_atom_site_fract_y
_atom_site_fract_z
Mn1 Mn 0.35228(7) 0.146104(14) 0.66412(4)
Mn2 Mn 0.57884(8) 0.079847(14) 0.67779(4)
Mn3 Mn 0.54440(7) 0.118592(14) 0.88413(4)
Br1 Br 0.02585(8) 0.208259(16) 0.15205(4)
Br2 Br 1.04413(8) -0.075075(13) 0.73882(5)
Br3 Br 0.54769(7) 0.226845(13) 1.31737(4)
C1 C 0.1817(5) 0.18220(10) 0.4902(3)
C2 C 0.0942(6) 0.21026(11) 0.4595(3)
H1 H 0.0672 0.2242 0.5076
C3 C 0.0462(6) 0.21795(11) 0.3596(3)
H2 H -0.0137 0.2367 0.3405
C4 C 0.0887(6) 0.19743(12) 0.2894(3)
C5 C 0.1769(5) 0.16988(11) 0.3162(3)
H3 H 0.2052 0.1565 0.2670
C6 C 0.2252(5) 0.16161(10) 0.4173(3)
C7 C 0.3239(5) 0.13264(10) 0.4443(3)
C8 C 0.3842(6) 0.10942(11) 0.3846(3)
H4 H 0.3679 0.1088 0.3151
C9 C 0.4716(6) 0.08791(11) 0.4496(3)
H5 H 0.5255 0.0697 0.4309
C10 C 0.7454(5) 0.01936(10) 0.6477(3)
C11 C 0.7797(7) -0.00228(12) 0.5761(4)
H6 H 0.7426 0.0023 0.5087
C12 C 0.8661(7) -0.03010(12) 0.6019(4)
H7 H 0.8884 -0.0442 0.5528
C13 C 0.9198(6) -0.03695(10) 0.7016(4)
C14 C 0.8864(5) -0.01646(10) 0.7743(3)
H8 H 0.9229 -0.0216 0.8413
C15 C 0.7984(5) 0.01199(9) 0.7487(3)
C16 C 0.7625(5) 0.03323(9) 0.8282(3)
C17 C 0.7959(6) 0.03004(11) 0.9317(3)
H9 H 0.8511 0.0131 0.9685
C18 C 0.7304(6) 0.05699(10) 0.9684(3)
H10 H 0.7351 0.0615 1.0359
C19 C 0.5803(5) 0.14636(10) 1.0836(3)
C20 C 0.6474(6) 0.14208(12) 1.1850(3)
H11 H 0.6986 0.1227 1.2061
C21 C 0.6403(7) 0.16578(12) 1.2549(3)
H12 H 0.6889 0.1627 1.3218
C22 C 0.5611(6) 0.19368(11) 1.2239(3)
C23 C 0.4889(5) 0.19868(10) 1.1254(3)
H13 H 0.4340 0.2179 1.1062
C24 C 0.4972(5) 0.17525(9) 1.0539(3)
C25 C 0.4183(5) 0.18133(9) 0.9490(3)
C26 C 0.3298(5) 0.20744(10) 0.9049(3)
H14 H 0.3038 0.2260 0.9367
C27 C 0.2875(6) 0.20067(10) 0.8045(3)
H15 H 0.2276 0.2141 0.7559
C28 C -0.0368(5) 0.11119(10) 0.6496(3)
C29 C -0.0605(8) 0.10498(18) 0.5397(4)
H16 H -0.1808 0.1007 0.5143
H17 H 0.0081 0.0869 0.5276
H18 H -0.0241 0.1233 0.5065
C30 C 0.6694(11) 0.18914(17) 0.5815(5)
H19 H 0.7849 0.1823 0.5739
H20 H 0.5931 0.1854 0.5181
C31 C 0.6743(19) 0.2202(2) 0.5989(6)
H21 H 0.7138 0.2310 0.5448
H22 H 0.7524 0.2245 0.6603
H23 H 0.5601 0.2276 0.6043
C32 C 0.2797(10) 0.0223(2) 0.7089(6)
H24 H 0.1559 0.0194 0.6867
H25 H 0.3375 0.0094 0.6654
C33 C 0.3184(12) 0.0096(3) 0.8007(9)
H26 H 0.2838 -0.0123 0.7982
H27 H 0.2579 0.0210 0.8454
H28 H 0.4413 0.0111 0.8242
C34 C 0.9128(6) 0.16326(12) 0.9117(4)
H29 H 1.0268 0.1608 0.8938
H30 H 0.9246 0.1597 0.9832
C35 C 0.8540(7) 0.19568(13) 0.8898(4)
H31 H 0.9350 0.2102 0.9274
H32 H 0.7418 0.1985 0.9080
H33 H 0.8465 0.1998 0.8196
C36 C 0.1838(9) 0.0928(2) 0.9649(6)
H34 H 0.0676 0.0847 0.9417
H35 H 0.1731 0.1138 0.9932
C37 C 0.2714(13) 0.0724(2) 1.0405(7)
H36 H 0.2082 0.0715 1.0950
H37 H 0.3861 0.0804 1.0641
H38 H 0.2790 0.0514 1.0134
N1 N 0.3755(4) 0.12417(7) 0.5408(2)
N2 N 0.4692(4) 0.09669(8) 0.5450(2)
N3 N 0.6799(4) 0.06112(7) 0.8070(2)
N4 N 0.6591(4) 0.07574(8) 0.8932(2)
N5 N 0.4276(4) 0.15976(7) 0.8771(2)
N6 N 0.3468(4) 0.17137(8) 0.7879(2)
O1 O 0.4889(3) 0.11436(6) 0.74252(18)
O2 O 0.2181(4) 0.17651(8) 0.5885(2)
O3 O 0.6620(4) 0.04589(7) 0.6137(2)
O4 O 0.5963(4) 0.12239(7) 1.0218(2)
O5 O 0.1119(4) 0.11749(10) 0.6971(2)
O6 O -0.1670(4) 0.11023(8) 0.6897(2)
O7 O 0.6140(4) 0.16982(8) 0.6541(2)
H39 H 0.6934 0.1659 0.7039
O8 O 0.8015(4) 0.13983(9) 0.8612(3)
H40 H 0.8386 0.1321 0.8111
O9 O 0.2706(4) 0.09555(8) 0.8830(2)
H41 H 0.2190 0.0879 0.8277
O10 O 0.3170(4) 0.05430(8) 0.6899(3)
H42 H 0.2286 0.0664 0.6808
Mn2_2 Mn -0.42116(8) 0.079847(14) 0.67779(4)
O6_2 O 0.8330(4) 0.11023(8) 0.6897(2)
loop_
_geom_bond_atom_site_label_1
_geom_bond_atom_site_label_2
_geom_bond_site_symmetry_1
_geom_bond_site_symmetry_2
Mn1 N1 1_555 1_555
Mn2 N2 1_555 1_555
Mn3 N4 1_555 1_555
Br1 C4 1_555 1_555
Br2 C13 1_555 1_555
Br3 C22 1_555 1_555
C1 C2 1_555 1_555
C2 H1 1_555 1_555
C3 C2 1_555 1_555
H2 C3 1_555 1_555
C4 C3 1_555 1_555
C5 C4 1_555 1_555
H3 C5 1_555 1_555
C6 C1 1_555 1_555
C7 C6 1_555 1_555
C8 C7 1_555 1_555
H4 C8 1_555 1_555
C9 C8 1_555 1_555
H5 C9 1_555 1_555
C10 C11 1_555 1_555
C11 H6 1_555 1_555
C12 C11 1_555 1_555
H7 C12 1_555 1_555
C13 C12 1_555 1_555
C14 C13 1_555 1_555
H8 C14 1_555 1_555
C15 C10 1_555 1_555
C16 C15 1_555 1_555
C17 C16 1_555 1_555
H9 C17 1_555 1_555
C18 C17 1_555 1_555
H10 C18 1_555 1_555
C19 C20 1_555 1_555
C20 H11 1_555 1_555
C21 C20 1_555 1_555
H12 C21 1_555 1_555
C22 C21 1_555 1_555
C23 C22 1_555 1_555
H13 C23 1_555 1_555
C24 C19 1_555 1_555
C25 C24 1_555 1_555
C26 C25 1_555 1_555
H14 C26 1_555 1_555
C27 C26 1_555 1_555
H15 C27 1_555 1_555
C28 C29 1_555 1_555
C29 H16 1_555 1_555
H17 C29 1_555 1_555
H18 C29 1_555 1_555
C30 H19 1_555 1_555
H20 C30 1_555 1_555
C31 C30 1_555 1_555
H21 C31 1_555 1_555
H22 C31 1_555 1_555
H23 C31 1_555 1_555
C32 H24 1_555 1_555
H25 C32 1_555 1_555
C33 C32 1_555 1_555
H26 C33 1_555 1_555
H27 C33 1_555 1_555
H28 C33 1_555 1_555
C34 H29 1_555 1_555
H30 C34 1_555 1_555
C35 C34 1_555 1_555
H31 C35 1_555 1_555
H32 C35 1_555 1_555
H33 C35 1_555 1_555
C36 H34 1_555 1_555
H35 C36 1_555 1_555
C37 C36 1_555 1_555
H36 C37 1_555 1_555
H37 C37 1_555 1_555
H38 C37 1_555 1_555
N1 C7 1_555 1_555
N2 C9 1_555 1_555
N3 Mn2 1_555 1_555
N4 C18 1_555 1_555
N5 Mn3 1_555 1_555
N6 Mn1 1_555 1_555
O1 Mn1 1_555 1_555
O2 Mn1 1_555 1_555
O3 Mn2 1_555 1_555
O4 Mn3 1_555 1_555
O5 Mn1 1_555 1_555
O6 C28 1_555 1_555
O7 Mn1 1_555 1_555
H39 O7 1_555 1_555
O8 Mn3 1_555 1_555
H40 O8 1_555 1_555
O9 Mn3 1_555 1_555
H41 O9 1_555 1_555
O10 Mn2 1_555 1_555
H42 O10 1_555 1_555
Mn2_2 O6 1_555 1_555
O6_2 Mn2 1_555 1_555
Mn2 O1 1_555 1_555
Mn3 O1 1_555 1_555
C1 O2 1_555 1_555
C5 C6 1_555 1_555
C10 O3 1_555 1_555
C14 C15 1_555 1_555
C16 N3 1_555 1_555
C19 O4 1_555 1_555
C23 C24 1_555 1_555
C25 N5 1_555 1_555
C27 N6 1_555 1_555
C28 O5 1_555 1_555
C30 O7 1_555 1_555
C32 O10 1_555 1_555
C34 O8 1_555 1_555
C36 O9 1_555 1_555
N1 N2 1_555 1_555
N3 N4 1_555 1_555
N5 N6 1_555 1_555

#END
