
#######################################################################
#
#                 Cambridge Crystallographic Data Centre
#                                CCDC 
#
#######################################################################
#
# If this CIF has been generated from an entry in the Cambridge 
# Structural Database, then it will include bibliographic, chemical, 
# crystal, experimental, refinement or atomic coordinate data resulting 
# from the CCDC's data processing and validation procedures.
#
#######################################################################

data_AHOBIK
_symmetry_cell_setting           monoclinic
_symmetry_space_group_name_H-M   'P 21/c'
_symmetry_Int_Tables_number      14
_space_group_name_Hall           '-P 2ybc'
loop_
_symmetry_equiv_pos_site_id
_symmetry_equiv_pos_as_xyz
1 x,y,z
2 -x,1/2+y,1/2-z
3 -x,-y,-z
4 x,1/2-y,1/2+z
_cell_length_a                   19.267(7)
_cell_length_b                   12.221(4)
_cell_length_c                   24.163(7)
_cell_angle_alpha                90
_cell_angle_beta                 125.38(2)
_cell_angle_gamma                90
_cell_volume                     4638.79
loop_
_atom_site_label
_atom_site_type_symbol
_atom_site_fract_x
_atom_site_fract_y
_atom_site_fract_z
Co1 Co 0.58537(3) -0.02129(4) -0.15417(2)
Co2 Co 0.92803(2) 0.62232(3) 0.04634(2)
O1 O 0.6829(3) 0.0262(2) -0.04731(17)
O2 O 0.5960(2) 0.1488(3) -0.11856(16)
O3 O 0.7885(2) 0.1241(3) 0.19300(16)
H1 H 0.8034 0.1144 0.2320
O4 O 0.8321(2) 0.2952(3) 0.22755(14)
O5 O 0.79237(16) 0.5532(2) 0.01311(14)
O6 O 0.91610(14) 0.47009(18) 0.07140(12)
O7 O 0.51244(17) 0.4551(3) -0.24789(14)
O8 O 0.5695(2) 0.4783(3) -0.30286(14)
O9 O 0.88809(16) 0.3996(2) -0.17608(12)
O10 O 0.95676(14) 0.37096(17) -0.06590(11)
N1 N 0.91054(18) 0.7523(2) 0.08953(16)
N2 N 0.9250(2) 0.8845(2) 0.15740(18)
N3 N 1.1479(2) 1.3371(2) 0.15237(15)
N4 N 1.13112(18) 1.3494(2) 0.05469(14)
N5 N 0.6728(2) -0.0042(3) -0.17623(17)
N6 N 0.78958(19) 0.0343(3) -0.16790(16)
N7 N 0.5877(2) -0.1765(3) -0.11966(19)
N8 N 0.6055(3) -0.3072(3) -0.0503(3)
C1 C 0.6592(3) 0.1234(3) -0.0612(2)
C2 C 0.7078(2) 0.2062(3) -0.00607(17)
C3 C 0.7243(2) 0.1803(3) 0.05681(19)
H2 H 0.7014 0.1168 0.0614
C4 C 0.7741(2) 0.2477(3) 0.11234(17)
C5 C 0.8015(3) 0.2268(3) 0.1852(2)
C6 C 0.8086(2) 0.3409(3) 0.10533(16)
H3 H 0.8419 0.3867 0.1425
C7 C 0.79455(19) 0.3677(2) 0.04406(15)
C8 C 0.8355(2) 0.4705(3) 0.04155(15)
C9 C 0.74335(18) 0.3016(2) -0.01363(14)
C10 C 0.73649(19) 0.3324(2) -0.07621(15)
C11 C 0.80964(18) 0.3359(2) -0.07457(15)
H4 H 0.8610 0.3124 -0.0359
C12 C 0.80730(19) 0.3742(2) -0.13001(14)
C13 C 0.8888(2) 0.3818(2) -0.12499(15)
C14 C 0.7304(2) 0.4089(3) -0.18830(15)
H5 H 0.7279 0.4326 -0.2260
C15 C 0.6575(2) 0.4077(3) -0.18958(15)
C16 C 0.5748(2) 0.4503(3) -0.25124(18)
C17 C 0.66003(19) 0.3692(3) -0.13474(16)
H6 H 0.6104 0.3676 -0.1367
C18 C 0.9628(2) 0.8009(3) 0.14869(18)
H7 H 1.0190 0.7797 0.1804
C19 C 0.8353(3) 0.8085(4) 0.0592(3)
H8 H 0.7858 0.7927 0.0168
C20 C 0.8440(3) 0.8896(4) 0.0999(3)
H9 H 0.8025 0.9401 0.0906
C21 C 0.9631(3) 0.9571(3) 0.2162(2)
H10 H 1.0047 0.9161 0.2566
H11 H 0.9190 0.9811 0.2212
C22 C 1.0061(3) 1.0566(3) 0.21185(19)
C23 C 0.9680(3) 1.1193(4) 0.1533(2)
H12 H 0.9150 1.0987 0.1152
C24 C 1.0067(3) 1.2102(4) 0.1505(2)
H13 H 0.9793 1.2506 0.1106
C25 C 1.0852(3) 1.2437(3) 0.20539(19)
C26 C 1.1225(4) 1.1829(4) 0.2639(2)
H14 H 1.1758 1.2030 0.3018
C27 C 1.0814(4) 1.0916(4) 0.2670(2)
H15 H 1.1064 1.0541 0.3078
C28 C 1.1269(3) 1.3454(3) 0.2023(2)
H16 H 1.0891 1.4072 0.1904
H17 H 1.1787 1.3594 0.2469
C29 C 1.0943(2) 1.3632(2) 0.08638(17)
H18 H 1.0387 1.3876 0.0658
C30 C 1.2124(2) 1.3138(3) 0.10342(19)
H19 H 1.2537 1.2979 0.0961
C31 C 1.2228(3) 1.3056(4) 0.1632(2)
H20 H 1.2717 1.2828 0.2042
C32 C 0.7532(2) 0.0196(3) -0.1352(2)
H21 H 0.7821 0.0258 -0.0884
C33 C 0.6574(3) -0.0089(7) -0.2392(3)
H22 H 0.6050 -0.0254 -0.2792
C34 C 0.7287(3) 0.0138(7) -0.2351(3)
H23 H 0.7351 0.0152 -0.2704
C35 C 0.8770(2) 0.0673(4) -0.1398(2)
H24 H 0.8792 0.1462 -0.1424
H25 H 0.8940 0.0357 -0.1671
C36 C 0.9393(2) 0.0320(3) -0.06707(18)
C37 C 0.9485(3) -0.0763(3) -0.0477(2)
H26 H 0.9134 -0.1289 -0.0798
C38 C 0.9914(3) 0.1077(3) -0.0182(2)
H27 H 0.9858 0.1813 -0.0298
C39 C 0.6122(3) -0.2009(4) -0.0577(2)
H28 H 0.6320 -0.1497 -0.0232
C40 C 0.5638(4) -0.2739(4) -0.1542(3)
H29 H 0.5435 -0.2824 -0.1995
C41 C 0.5744(4) -0.3553(4) -0.1124(4)
H30 H 0.5631 -0.4292 -0.1232
C42 C 0.6322(4) -0.3622(5) 0.0129(4)
H31 H 0.6481 -0.3074 0.0474
H32 H 0.6821 -0.4064 0.0283
C43 C 0.5624(3) -0.4352(5) 0.0050(3)
C44 C 0.4869(4) -0.3898(5) -0.0127(4)
H33 H 0.4769 -0.3152 -0.0213
C45 C 0.5744(4) -0.5425(5) 0.0174(4)
H34 H 0.6256 -0.5732 0.0297
N5B N 1.3272(2) 0.0042(3) 0.17623(17)
N6B N 1.21042(19) -0.0343(3) 0.16790(16)
C32B C 1.2468(2) -0.0196(3) 0.1352(2)
H21B H 1.2179 -0.0258 0.0884
C33B C 1.3426(3) 0.0089(7) 0.2392(3)
H22B H 1.3950 0.0254 0.2792
C34B C 1.2713(3) -0.0138(7) 0.2351(3)
H23B H 1.2649 -0.0152 0.2704
C35B C 1.1230(2) -0.0673(4) 0.1398(2)
H24B H 1.1208 -0.1462 0.1424
H25B H 1.1060 -0.0357 0.1671
C36B C 1.0607(2) -0.0320(3) 0.06707(18)
C37B C 1.0515(3) 0.0763(3) 0.0477(2)
H26B H 1.0866 0.1289 0.0798
C38B C 1.0086(3) -0.1077(3) 0.0182(2)
H27B H 1.0142 -0.1813 0.0298
N7B N 0.4123(2) -0.8235(3) 0.11966(19)
N8B N 0.3945(3) -0.6928(3) 0.0503(3)
C39B C 0.3878(3) -0.7991(4) 0.0577(2)
H28B H 0.3680 -0.8503 0.0232
C40B C 0.4362(4) -0.7261(4) 0.1542(3)
H29B H 0.4565 -0.7176 0.1995
C41B C 0.4256(4) -0.6447(4) 0.1124(4)
H30B H 0.4369 -0.5708 0.1232
C42B C 0.3678(4) -0.6378(5) -0.0129(4)
H31B H 0.3519 -0.6926 -0.0474
H32B H 0.3179 -0.5936 -0.0283
C43B C 0.4376(3) -0.5648(5) -0.0050(3)
C44B C 0.5131(4) -0.6102(5) 0.0127(4)
H33B H 0.5231 -0.6848 0.0213
C45B C 0.4256(4) -0.4575(5) -0.0174(4)
H34B H 0.3744 -0.4268 -0.0297
Co1B Co 0.41463(3) -0.97871(4) 0.15417(2)
Co2B Co 0.07197(2) -1.62232(3) -0.04634(2)
O1B O 0.3171(3) -1.0262(2) 0.04731(17)
O2B O 0.4040(2) -1.1488(3) 0.11856(16)
O3B O 0.2115(2) -1.1241(3) -0.19300(16)
H1B H 0.1966 -1.1144 -0.2320
O4B O 0.1679(2) -1.2952(3) -0.22755(14)
O5B O 0.20763(16) -1.5532(2) -0.01311(14)
O6B O 0.08390(14) -1.47009(18) -0.07140(12)
O7B O 0.48756(17) -1.4551(3) 0.24789(14)
O8B O 0.4305(2) -1.4783(3) 0.30286(14)
O9B O 0.11191(16) -1.3996(2) 0.17608(12)
O10B O 0.04324(14) -1.37096(17) 0.06590(11)
N1B N 0.08946(18) -1.7523(2) -0.08953(16)
N2B N 0.0750(2) -1.8845(2) -0.15740(18)
N3B N -0.1479(2) -2.3371(2) -0.15237(15)
N4B N -0.13112(18) -2.3494(2) -0.05469(14)
C1B C 0.3408(3) -1.1234(3) 0.0612(2)
C2B C 0.2922(2) -1.2062(3) 0.00607(17)
C3B C 0.2757(2) -1.1803(3) -0.05681(19)
H2B H 0.2986 -1.1168 -0.0614
C4B C 0.2259(2) -1.2477(3) -0.11234(17)
C5B C 0.1985(3) -1.2268(3) -0.1852(2)
C6B C 0.1914(2) -1.3409(3) -0.10533(16)
H3B H 0.1581 -1.3867 -0.1425
C7B C 0.20545(19) -1.3677(2) -0.04406(15)
C8B C 0.1645(2) -1.4705(3) -0.04155(15)
C9B C 0.25665(18) -1.3016(2) 0.01363(14)
C10B C 0.26351(19) -1.3324(2) 0.07621(15)
C11B C 0.19036(18) -1.3359(2) 0.07457(15)
H4B H 0.1390 -1.3124 0.0359
C12B C 0.19270(19) -1.3742(2) 0.13001(14)
C13B C 0.1112(2) -1.3818(2) 0.12499(15)
C14B C 0.2696(2) -1.4089(3) 0.18830(15)
H5B H 0.2721 -1.4326 0.2260
C15B C 0.3425(2) -1.4077(3) 0.18958(15)
C16B C 0.4252(2) -1.4503(3) 0.25124(18)
C17B C 0.33997(19) -1.3692(3) 0.13474(16)
H6B H 0.3896 -1.3676 0.1367
C18B C 0.0372(2) -1.8009(3) -0.14869(18)
H7B H -0.0190 -1.7797 -0.1804
C19B C 0.1647(3) -1.8085(4) -0.0592(3)
H8B H 0.2142 -1.7927 -0.0168
C20B C 0.1560(3) -1.8896(4) -0.0999(3)
H9B H 0.1975 -1.9401 -0.0906
C21B C 0.0369(3) -1.9571(3) -0.2162(2)
H10B H -0.0047 -1.9161 -0.2566
H11B H 0.0810 -1.9811 -0.2212
C22B C -0.0061(3) -2.0566(3) -0.21185(19)
C23B C 0.0320(3) -2.1193(4) -0.1533(2)
H12B H 0.0850 -2.0987 -0.1152
C24B C -0.0067(3) -2.2102(4) -0.1505(2)
H13B H 0.0207 -2.2506 -0.1106
C25B C -0.0852(3) -2.2437(3) -0.20539(19)
C26B C -0.1225(4) -2.1829(4) -0.2639(2)
H14B H -0.1758 -2.2030 -0.3018
C27B C -0.0814(4) -2.0916(4) -0.2670(2)
H15B H -0.1064 -2.0541 -0.3078
C28B C -0.1269(3) -2.3454(3) -0.2023(2)
H16B H -0.0891 -2.4072 -0.1904
H17B H -0.1787 -2.3594 -0.2469
C29B C -0.0943(2) -2.3632(2) -0.08638(17)
H18B H -0.0387 -2.3876 -0.0658
C30B C -0.2124(2) -2.3138(3) -0.10342(19)
H19B H -0.2537 -2.2979 -0.0961
C31B C -0.2228(3) -2.3056(4) -0.1632(2)
H20B H -0.2717 -2.2828 -0.2042
Co1A Co 0.41463(3) 0.47871(4) -0.34583(2)
Co1B_2 Co 1.41463(3) 0.02129(4) 0.15417(2)
Co1C Co 0.58537(3) -1.47871(4) 0.34583(2)
Co2_2 Co -0.07197(2) -2.37768(3) 0.04634(2)
Co2_3 Co -0.07197(2) -1.37768(3) 0.04634(2)
Co2B_2 Co 1.07197(2) 0.37768(3) -0.04634(2)
Co2B_3 Co 1.07197(2) 1.37768(3) -0.04634(2)
O7A O 0.48756(17) -0.0449(3) -0.25211(14)
O7C O 0.51244(17) -0.9551(3) 0.25211(14)
O10_2 O -0.04324(14) -1.62904(17) -0.06590(11)
O10B_2 O 1.04324(14) 0.62904(17) 0.06590(11)
N4_2 N 0.13112(18) -1.6506(2) 0.05469(14)
N4B_2 N 0.86888(18) 0.6506(2) -0.05469(14)
N5B_2 N 0.3272(2) -0.9958(3) 0.17623(17)
loop_
_geom_bond_atom_site_label_1
_geom_bond_atom_site_label_2
_geom_bond_site_symmetry_1
_geom_bond_site_symmetry_2
Co1 O1 1_555 1_555
Co2 O5 1_555 1_555
O1 C1 1_555 1_555
O2 Co1 1_555 1_555
O3 H1 1_555 1_555
O4 C5 1_555 1_555
O5 C8 1_555 1_555
O6 Co2 1_555 1_555
O7 C16 1_555 1_555
O8 C16 1_555 1_555
O9 C13 1_555 1_555
O10 C13 1_555 1_555
N1 Co2 1_555 1_555
N2 C18 1_555 1_555
N3 C28 1_555 1_555
N4 C29 1_555 1_555
N5 Co1 1_555 1_555
N6 C32 1_555 1_555
N7 Co1 1_555 1_555
N8 C39 1_555 1_555
C1 O2 1_555 1_555
C2 C1 1_555 1_555
C3 C2 1_555 1_555
H2 C3 1_555 1_555
C4 C3 1_555 1_555
C5 O3 1_555 1_555
C6 C4 1_555 1_555
H3 C6 1_555 1_555
C7 C6 1_555 1_555
C8 O6 1_555 1_555
C9 C2 1_555 1_555
C10 C9 1_555 1_555
C11 C10 1_555 1_555
H4 C11 1_555 1_555
C12 C11 1_555 1_555
C13 C12 1_555 1_555
C14 C12 1_555 1_555
H5 C14 1_555 1_555
C15 C14 1_555 1_555
C16 C15 1_555 1_555
C17 C10 1_555 1_555
H6 C17 1_555 1_555
C18 N1 1_555 1_555
H7 C18 1_555 1_555
C19 N1 1_555 1_555
H8 C19 1_555 1_555
C20 N2 1_555 1_555
H9 C20 1_555 1_555
C21 N2 1_555 1_555
H10 C21 1_555 1_555
H11 C21 1_555 1_555
C22 C21 1_555 1_555
C23 C22 1_555 1_555
H12 C23 1_555 1_555
C24 C23 1_555 1_555
H13 C24 1_555 1_555
C25 C24 1_555 1_555
C26 C25 1_555 1_555
H14 C26 1_555 1_555
C27 C22 1_555 1_555
H15 C27 1_555 1_555
C28 C25 1_555 1_555
H16 C28 1_555 1_555
H17 C28 1_555 1_555
C29 N3 1_555 1_555
H18 C29 1_555 1_555
C30 N4 1_555 1_555
H19 C30 1_555 1_555
C31 N3 1_555 1_555
H20 C31 1_555 1_555
C32 N5 1_555 1_555
H21 C32 1_555 1_555
C33 N5 1_555 1_555
H22 C33 1_555 1_555
C34 N6 1_555 1_555
H23 C34 1_555 1_555
C35 N6 1_555 1_555
H24 C35 1_555 1_555
H25 C35 1_555 1_555
C36 C35 1_555 1_555
C37 C36 1_555 1_555
H26 C37 1_555 1_555
C38 C36 1_555 1_555
H27 C38 1_555 1_555
C39 N7 1_555 1_555
H28 C39 1_555 1_555
C40 N7 1_555 1_555
H29 C40 1_555 1_555
C41 N8 1_555 1_555
H30 C41 1_555 1_555
C42 N8 1_555 1_555
H31 C42 1_555 1_555
H32 C42 1_555 1_555
C43 C42 1_555 1_555
C44 C43 1_555 1_555
H33 C44 1_555 1_555
C45 C43 1_555 1_555
H34 C45 1_555 1_555
N5B C32B 1_555 1_555
N6B C32B 1_555 1_555
C32B H21B 1_555 1_555
C33B N5B 1_555 1_555
H22B C33B 1_555 1_555
C34B N6B 1_555 1_555
H23B C34B 1_555 1_555
C35B N6B 1_555 1_555
H24B C35B 1_555 1_555
H25B C35B 1_555 1_555
C36B C35B 1_555 1_555
C37B C38 1_555 1_555
H26B C37B 1_555 1_555
C38B C37 1_555 1_555
H27B C38B 1_555 1_555
N7B C39B 1_555 1_555
N8B C39B 1_555 1_555
C39B H28B 1_555 1_555
C40B N7B 1_555 1_555
H29B C40B 1_555 1_555
C41B N8B 1_555 1_555
H30B C41B 1_555 1_555
C42B N8B 1_555 1_555
H31B C42B 1_555 1_555
H32B C42B 1_555 1_555
C43B C42B 1_555 1_555
C44B C45 1_555 1_555
H33B C44B 1_555 1_555
C45B C44 1_555 1_555
H34B C45B 1_555 1_555
Co1B N7B 1_555 1_555
Co2B O5B 1_555 1_555
O1B Co1B 1_555 1_555
O2B Co1B 1_555 1_555
O3B H1B 1_555 1_555
O4B C5B 1_555 1_555
O5B C8B 1_555 1_555
O6B Co2B 1_555 1_555
O7B C16B 1_555 1_555
O8B C16B 1_555 1_555
O9B C13B 1_555 1_555
O10B C13B 1_555 1_555
N1B Co2B 1_555 1_555
N2B C18B 1_555 1_555
N3B C28B 1_555 1_555
N4B C29B 1_555 1_555
C1B O1B 1_555 1_555
C2B C1B 1_555 1_555
C3B C2B 1_555 1_555
H2B C3B 1_555 1_555
C4B C3B 1_555 1_555
C5B O3B 1_555 1_555
C6B C4B 1_555 1_555
H3B C6B 1_555 1_555
C7B C6B 1_555 1_555
C8B O6B 1_555 1_555
C9B C2B 1_555 1_555
C10B C9B 1_555 1_555
C11B C10B 1_555 1_555
H4B C11B 1_555 1_555
C12B C11B 1_555 1_555
C13B C12B 1_555 1_555
C14B C12B 1_555 1_555
H5B C14B 1_555 1_555
C15B C14B 1_555 1_555
C16B C15B 1_555 1_555
C17B C10B 1_555 1_555
H6B C17B 1_555 1_555
C18B N1B 1_555 1_555
H7B C18B 1_555 1_555
C19B N1B 1_555 1_555
H8B C19B 1_555 1_555
C20B N2B 1_555 1_555
H9B C20B 1_555 1_555
C21B N2B 1_555 1_555
H10B C21B 1_555 1_555
H11B C21B 1_555 1_555
C22B C21B 1_555 1_555
C23B C22B 1_555 1_555
H12B C23B 1_555 1_555
C24B C23B 1_555 1_555
H13B C24B 1_555 1_555
C25B C24B 1_555 1_555
C26B C25B 1_555 1_555
H14B C26B 1_555 1_555
C27B C22B 1_555 1_555
H15B C27B 1_555 1_555
C28B C25B 1_555 1_555
H16B C28B 1_555 1_555
H17B C28B 1_555 1_555
C29B N3B 1_555 1_555
H18B C29B 1_555 1_555
C30B N4B 1_555 1_555
H19B C30B 1_555 1_555
C31B N3B 1_555 1_555
H20B C31B 1_555 1_555
Co1A O7 1_555 1_555
Co1B_2 N5B 1_555 1_555
Co1C O7B 1_555 1_555
Co2_2 N4B 1_555 1_555
Co2_3 O10B 1_555 1_555
Co2B_2 O10 1_555 1_555
Co2B_3 N4 1_555 1_555
O7A Co1 1_555 1_555
O7C Co1B 1_555 1_555
O10_2 Co2B 1_555 1_555
O10B_2 Co2 1_555 1_555
N4_2 Co2B 1_555 1_555
N4B_2 Co2 1_555 1_555
N5B_2 Co1B 1_555 1_555
C4 C5 1_555 1_555
C7 C8 1_555 1_555
C7 C9 1_555 1_555
C15 C17 1_555 1_555
C19 C20 1_555 1_555
C26 C27 1_555 1_555
C30 C31 1_555 1_555
C33 C34 1_555 1_555
C40 C41 1_555 1_555
C33B C34B 1_555 1_555
C36B C37B 1_555 1_555
C36B C38B 1_555 1_555
C40B C41B 1_555 1_555
C43B C44B 1_555 1_555
C43B C45B 1_555 1_555
O2B C1B 1_555 1_555
C4B C5B 1_555 1_555
C7B C8B 1_555 1_555
C7B C9B 1_555 1_555
C15B C17B 1_555 1_555
C19B C20B 1_555 1_555
C26B C27B 1_555 1_555
C30B C31B 1_555 1_555

#END
