
#######################################################################
#
#                 Cambridge Crystallographic Data Centre
#                                CCDC 
#
#######################################################################
#
# If this CIF has been generated from an entry in the Cambridge 
# Structural Database, then it will include bibliographic, chemical, 
# crystal, experimental, refinement or atomic coordinate data resulting 
# from the CCDC's data processing and validation procedures.
#
#######################################################################

data_AHOBEG
_symmetry_cell_setting           triclinic
_symmetry_space_group_name_H-M   'P -1'
_symmetry_Int_Tables_number      2
_space_group_name_Hall           '-P 1'
loop_
_symmetry_equiv_pos_site_id
_symmetry_equiv_pos_as_xyz
1 x,y,z
2 -x,-y,-z
_cell_length_a                   10.553(4)
_cell_length_b                   12.789(6)
_cell_length_c                   14.443(6)
_cell_angle_alpha                112.206(6)
_cell_angle_beta                 90.401(5)
_cell_angle_gamma                94.839(2)
_cell_volume                     1796.66
loop_
_atom_site_label
_atom_site_type_symbol
_atom_site_fract_x
_atom_site_fract_y
_atom_site_fract_z
Co1 Co 0.26373(4) 0.42354(3) 0.22962(3)
Co2 Co -0.18213(4) 0.27114(4) 0.67833(3)
O1 O 0.2989(3) 0.3987(2) 0.35820(18)
O2 O 0.3607(3) 0.5676(2) 0.47621(18)
O3 O 0.2327(5) 0.0594(3) 0.4393(3)
O4 O 0.2686(4) 0.0779(3) 0.5944(3)
O5 O 0.5441(2) 0.5944(2) 0.8129(2)
O6 O 0.4940(3) 0.4191(2) 0.8079(2)
O7 O 0.2451(3) 0.7012(2) 1.17203(18)
O8 O 0.1248(4) 0.8102(3) 1.1262(2)
O9 O -0.0334(2) 0.3896(2) 0.75333(19)
O10 O -0.0691(2) 0.5577(2) 0.74731(19)
O11 O 0.2346(3) 0.4647(2) 0.10309(19)
H1 H 0.2711 0.4221 0.0557
H2 H 0.259(4) 0.5341(7) 0.117(3)
O12 O 0.3129(2) 0.6063(2) 0.31175(18)
H3 H 0.337(3) 0.602(4) 0.3660(17)
H4 H 0.376(2) 0.612(4) 0.278(2)
O13 O -0.0788(3) 0.1375(2) 0.6780(2)
H5 H -0.0782 0.1351 0.7340
H6 H -0.120(5) 0.078(3) 0.6351(13)
O14 O -0.3359(3) 0.1466(2) 0.6061(2)
H7 H -0.3963 0.1565 0.6429
H8 H -0.304(4) 0.085(2) 0.596(4)
N1 N 0.2220(3) 0.2476(2) 0.1556(2)
N2 N 0.1793(3) 0.0842(2) 0.0281(2)
N3 N 0.1010(3) -0.2092(3) -0.3755(2)
N4 N 0.1214(3) -0.2685(3) -0.5389(2)
C1 C 0.3204(3) 0.4646(3) 0.4478(3)
C2 C 0.2944(3) 0.4125(3) 0.5241(2)
C3 C 0.2805(4) 0.2958(3) 0.4945(3)
H9 H 0.2890 0.2503 0.4276
C4 C 0.2544(4) 0.2457(3) 0.5628(3)
C5 C 0.2369(4) 0.3144(3) 0.6624(3)
H10 H 0.2177 0.2814 0.7086
C6 C 0.2481(3) 0.4318(3) 0.6929(2)
C7 C 0.2782(3) 0.4806(3) 0.6237(2)
H11 H 0.2876 0.5592 0.6441
C8 C 0.2487(5) 0.1174(4) 0.5301(3)
C9 C 0.2336(3) 0.5086(3) 0.8001(2)
C10 C 0.3417(3) 0.5531(3) 0.8655(3)
C11 C 0.3297(3) 0.6248(3) 0.9647(3)
H12 H 0.4011 0.6500 1.0082
C12 C 0.2121(3) 0.6584(3) 0.9987(2)
C13 C 0.1055(3) 0.6210(3) 0.9336(2)
H13 H 0.0274 0.6478 0.9551
C14 C 0.1157(3) 0.5432(3) 0.8357(2)
C15 C 0.4702(3) 0.5193(3) 0.8262(3)
C16 C 0.1939(4) 0.7307(3) 1.1078(3)
C17 C -0.0057(3) 0.4932(3) 0.7730(2)
C18 C 0.2040(4) 0.1978(3) 0.0577(3)
H14 H 0.2079 0.2362 0.0143
C19 C 0.2070(4) 0.1622(3) 0.1908(3)
H15 H 0.2137 0.1718 0.2578
C20 C 0.1808(4) 0.0608(3) 0.1129(3)
H16 H 0.1668 -0.0102 0.1168
C21 C 0.1575(4) 0.0075(3) -0.0738(3)
C22 C 0.1551(6) 0.0501(4) -0.1480(3)
H17 H 0.1683 0.1280 -0.1311
C23 C 0.1332(6) -0.0210(4) -0.2473(3)
H18 H 0.1288 0.0088 -0.2967
C24 C 0.1181(4) -0.1368(3) -0.2722(3)
C25 C 0.1189(4) -0.1800(3) -0.1984(3)
H19 H 0.1059 -0.2580 -0.2154
C26 C 0.1390(4) -0.1081(3) -0.0985(3)
H20 H 0.1401 -0.1377 -0.0488
C27 C 0.1453(4) -0.1830(3) -0.4528(3)
H21 H 0.1871 -0.1133 -0.4458
C28 C 0.0449(4) -0.3191(3) -0.4161(3)
H22 H 0.0059 -0.3608 -0.3818
C29 C 0.0580(4) -0.3536(3) -0.5157(3)
H23 H 0.0285 -0.4248 -0.5622
Co1A Co -0.26373(4) 0.57646(3) 0.77038(3)
Co1A_2 Co 0.73627(4) 0.57646(3) 0.77038(3)
Co2A Co 0.18213(4) -0.27114(4) -0.67833(3)
Co2A_2 Co 0.18213(4) 0.72886(4) 0.32167(3)
Co2A_3 Co 0.18213(4) 0.72886(4) 1.32167(3)
O5A O 0.4559(2) 0.4056(2) 0.1871(2)
O7A O -0.2451(3) 0.2988(2) 0.82797(18)
O10A O 0.0691(2) 0.4423(2) 0.25269(19)
O12A O -0.3129(2) 0.3937(2) 0.68825(18)
N4A N -0.1214(3) 0.2685(3) 0.5389(2)
N5 N 0.5273(3) 0.1135(3) 0.2103(2)
N6 N 0.5597(4) 0.2461(3) 0.3570(3)
H24 H 0.581(5) 0.310(2) 0.403(3)
C30 C 0.5060(5) 0.1172(4) 0.0429(3)
H25 H 0.5096 0.1959 0.0713
C31 C 0.5125(4) 0.0555(3) 0.1033(3)
C32 C 0.5060(5) -0.0605(3) 0.0607(3)
H26 H 0.5095 -0.1019 0.1013
C33 C 0.5297(6) 0.0633(4) 0.2791(4)
H27 H 0.5191 -0.0142 0.2653
C34 C 0.5499(5) 0.1464(4) 0.3702(3)
H28 H 0.5560 0.1372 0.4309
C35 C 0.5455(4) 0.2254(3) 0.2604(3)
H29 H 0.5479 0.2798 0.2321
N5A N 0.4727(3) -0.1135(3) -0.2103(2)
N6A N 0.4403(4) -0.2461(3) -0.3570(3)
H24A H 0.419(5) -0.310(2) -0.403(3)
C30A C 0.4940(5) -0.1172(4) -0.0429(3)
H25A H 0.4904 -0.1959 -0.0713
C31A C 0.4875(4) -0.0555(3) -0.1033(3)
C32A C 0.4940(5) 0.0605(3) -0.0607(3)
H26A H 0.4905 0.1019 -0.1013
C33A C 0.4703(6) -0.0633(4) -0.2791(4)
H27A H 0.4809 0.0142 -0.2653
C34A C 0.4501(5) -0.1464(4) -0.3702(3)
H28A H 0.4440 -0.1372 -0.4309
C35A C 0.4545(4) -0.2254(3) -0.2604(3)
H29A H 0.4521 -0.2798 -0.2321
loop_
_geom_bond_atom_site_label_1
_geom_bond_atom_site_label_2
_geom_bond_site_symmetry_1
_geom_bond_site_symmetry_2
Co1 O1 1_555 1_555
Co2 O9 1_555 1_555
O1 C1 1_555 1_555
O2 C1 1_555 1_555
O3 C8 1_555 1_555
O4 C8 1_555 1_555
O5 C15 1_555 1_555
O6 C15 1_555 1_555
O7 C16 1_555 1_555
O8 C16 1_555 1_555
O9 C17 1_555 1_555
O10 C17 1_555 1_555
O11 Co1 1_555 1_555
H1 O11 1_555 1_555
H2 O11 1_555 1_555
O12 Co1 1_555 1_555
H3 O12 1_555 1_555
H4 O12 1_555 1_555
O13 Co2 1_555 1_555
H5 O13 1_555 1_555
H6 O13 1_555 1_555
O14 Co2 1_555 1_555
H7 O14 1_555 1_555
H8 O14 1_555 1_555
N1 Co1 1_555 1_555
N2 C18 1_555 1_555
N3 C24 1_555 1_555
N4 C27 1_555 1_555
C1 C2 1_555 1_555
C2 C3 1_555 1_555
C3 H9 1_555 1_555
C4 C3 1_555 1_555
C5 C4 1_555 1_555
H10 C5 1_555 1_555
C6 C5 1_555 1_555
C7 C2 1_555 1_555
H11 C7 1_555 1_555
C8 C4 1_555 1_555
C9 C6 1_555 1_555
C10 C9 1_555 1_555
C11 C10 1_555 1_555
H12 C11 1_555 1_555
C12 C11 1_555 1_555
C13 C12 1_555 1_555
H13 C13 1_555 1_555
C14 C9 1_555 1_555
C15 C10 1_555 1_555
C16 C12 1_555 1_555
C17 C14 1_555 1_555
C18 N1 1_555 1_555
H14 C18 1_555 1_555
C19 N1 1_555 1_555
H15 C19 1_555 1_555
C20 N2 1_555 1_555
H16 C20 1_555 1_555
C21 N2 1_555 1_555
C22 C21 1_555 1_555
H17 C22 1_555 1_555
C23 C22 1_555 1_555
H18 C23 1_555 1_555
C24 C23 1_555 1_555
C25 C24 1_555 1_555
H19 C25 1_555 1_555
C26 C21 1_555 1_555
H20 C26 1_555 1_555
C27 N3 1_555 1_555
H21 C27 1_555 1_555
C28 N3 1_555 1_555
H22 C28 1_555 1_555
C29 N4 1_555 1_555
H23 C29 1_555 1_555
N5 C31 1_555 1_555
N6 H24 1_555 1_555
C30 H25 1_555 1_555
C31 C30 1_555 1_555
C32 C31 1_555 1_555
H26 C32 1_555 1_555
C33 N5 1_555 1_555
H27 C33 1_555 1_555
C34 N6 1_555 1_555
H28 C34 1_555 1_555
C35 N5 1_555 1_555
H29 C35 1_555 1_555
Co1A O10 1_555 1_555
Co1A_2 O5 1_555 1_555
Co2A N4 1_555 1_555
Co2A_2 O12 1_555 1_555
Co2A_3 O7 1_555 1_555
O5A Co1 1_555 1_555
O7A Co2 1_555 1_555
O10A Co1 1_555 1_555
O12A Co2 1_555 1_555
N4A Co2 1_555 1_555
N5A C31A 1_555 1_555
N6A H24A 1_555 1_555
C30A C32 1_555 1_555
H25A C30A 1_555 1_555
C31A C30A 1_555 1_555
C32A C30 1_555 1_555
H26A C32A 1_555 1_555
C33A N5A 1_555 1_555
H27A C33A 1_555 1_555
C34A N6A 1_555 1_555
H28A C34A 1_555 1_555
C35A N5A 1_555 1_555
H29A C35A 1_555 1_555
C6 C7 1_555 1_555
C13 C14 1_555 1_555
C19 C20 1_555 1_555
C25 C26 1_555 1_555
C28 C29 1_555 1_555
N6 C35 1_555 1_555
C33 C34 1_555 1_555
Co1A O12A 1_555 1_555
N6A C35A 1_555 1_555
C31A C32A 1_555 1_555
C33A C34A 1_555 1_555

#END
