
#######################################################################
#
#                 Cambridge Crystallographic Data Centre
#                                CCDC 
#
#######################################################################
#
# If this CIF has been generated from an entry in the Cambridge 
# Structural Database, then it will include bibliographic, chemical, 
# crystal, experimental, refinement or atomic coordinate data resulting 
# from the CCDC's data processing and validation procedures.
#
#######################################################################

data_AHOCIJ
_symmetry_cell_setting           monoclinic
_symmetry_space_group_name_H-M   'P 21/c'
_symmetry_Int_Tables_number      14
_space_group_name_Hall           '-P 2ybc'
loop_
_symmetry_equiv_pos_site_id
_symmetry_equiv_pos_as_xyz
1 x,y,z
2 -x,1/2+y,1/2-z
3 -x,-y,-z
4 x,1/2-y,1/2+z
_cell_length_a                   12.650(3)
_cell_length_b                   9.970(2)
_cell_length_c                   21.237(4)
_cell_angle_alpha                90
_cell_angle_beta                 94.00(3)
_cell_angle_gamma                90
_cell_volume                     2671.9
loop_
_atom_site_label
_atom_site_type_symbol
_atom_site_fract_x
_atom_site_fract_y
_atom_site_fract_z
Tl1 Tl 0.9274(1) 0.0937(1) 0.2253(1)
Al1 Al 0.7557(3) 0.3539(4) 0.1595(2)
O1 O 0.8651(7) 0.2673(10) 0.1304(4)
O2 O 0.7678(7) 0.2735(10) 0.2342(4)
O3 O 0.6366(7) 0.3252(10) 0.1192(5)
O4 O 0.7789(8) -0.4779(10) 0.1639(5)
C1 C 0.9282(12) 0.2797(15) 0.0805(7)
C2 C 1.0343(15) 0.3422(19) 0.1067(8)
C3 C 0.9438(14) 0.1438(17) 0.0547(8)
C4 C 0.8822(14) 0.3719(15) 0.0278(7)
C5 C 0.7273(12) 0.2971(17) 0.2926(7)
C6 C 0.6913(13) 0.1573(17) 0.3173(7)
C7 C 0.8169(14) 0.3494(18) 0.3376(8)
C8 C 0.6341(11) 0.3916(17) 0.2908(8)
C9 C 0.5669(12) 0.2337(15) 0.0949(7)
C10 C 0.4594(15) 0.2612(19) 0.1181(9)
C11 C 0.5627(14) 0.2493(18) 0.0225(8)
C12 C 0.6011(13) 0.0906(16) 0.1132(8)
C13 C 0.7330(11) -0.3511(15) 0.1511(7)
C14 C 0.7754(15) -0.2583(17) 0.2036(9)
C15 C 0.7697(15) -0.3037(17) 0.0893(9)
C16 C 0.6142(13) -0.3525(18) 0.1483(9)
F1 F 1.0788(8) 0.2695(12) 0.1528(5)
F2 F 1.0205(8) 0.4622(11) 0.1313(5)
F3 F 1.1044(7) 0.3523(10) 0.0642(5)
F4 F 0.9850(9) 0.0555(10) 0.0966(4)
F5 F 1.0062(9) 0.1432(10) 0.0055(5)
F6 F 0.8534(8) 0.0923(10) 0.0313(4)
F7 F 0.7664(8) 0.0648(10) 0.3185(5)
F8 F 0.6135(8) 0.1098(9) 0.2780(4)
F9 F 0.6545(9) 0.1639(11) 0.3731(4)
F10 F 0.9004(8) 0.2694(12) 0.3425(5)
F11 F 0.8513(8) 0.4668(11) 0.3149(5)
F12 F 0.7898(9) 0.3721(12) 0.3951(4)
F13 F 0.3832(8) 0.1761(12) 0.0995(6)
F14 F 0.4253(9) 0.3817(12) 0.1035(7)
F15 F 0.4633(8) 0.2536(14) 0.1807(5)
F16 F 0.4868(10) 0.1670(11) -0.0051(5)
F17 F 0.5391(11) 0.3680(11) 0.0042(6)
F18 F 0.6504(9) 0.2085(14) 0.0000(5)
F19 F 0.8817(7) -0.2477(10) 0.2063(5)
F20 F 0.7363(10) -0.1340(10) 0.1969(6)
F21 F 0.7428(8) -0.3014(10) 0.2589(4)
F22 F 0.7280(9) -0.3788(11) 0.0400(5)
F23 F 0.7397(10) -0.1747(11) 0.0753(5)
F24 F 0.8762(8) -0.3046(10) 0.0866(4)
H1 H 0.8140(14) 0.3396(15) 0.0119(7)
H2 H 0.8757(14) 0.4626(15) 0.0422(7)
H3 H 0.9303(14) 0.3691(15) -0.0052(7)
H4 H 0.6585(11) 0.4771(17) 0.2769(8)
H5 H 0.5785(11) 0.3596(17) 0.2616(8)
H6 H 0.6077(11) 0.4010(17) 0.3319(8)
H7 H 0.5985(1) 0.0762(16) 0.1578(8)
H8 H 0.5562(13) 0.0266(16) 0.0906(8)
H9 H 0.6726(13) 0.0797(16) 0.1016(8)
H10 H 0.5896(13) -0.3827(18) 0.1876(9)
H11 H 0.5883(13) -0.2635(18) 0.1395(9)
H12 H 0.5885(13) -0.4118(18) 0.1151(9)
F2A F 0.9795(8) -0.0378(11) 0.3687(5)
F11A F 1.1487(8) -0.0332(11) 0.1851(5)
F19A F 1.1183(7) 0.2523(10) 0.2937(5)
O4_2 O 0.7789(8) 0.5221(10) 0.1639(5)
Al1_2 Al 0.7557(3) -0.6461(4) 0.1595(2)
Tl1A Tl 1.0726(1) 0.5937(1) 0.2747(1)
Tl1A_2 Tl 1.0726(1) -0.4063(1) 0.2747(1)
loop_
_geom_bond_atom_site_label_1
_geom_bond_atom_site_label_2
_geom_bond_site_symmetry_1
_geom_bond_site_symmetry_2
Tl1 O1 1_555 1_555
Al1 O1 1_555 1_555
O1 C1 1_555 1_555
O2 Tl1 1_555 1_555
O3 Al1 1_555 1_555
O4 C13 1_555 1_555
C1 C2 1_555 1_555
C2 F1 1_555 1_555
C3 C1 1_555 1_555
C4 C1 1_555 1_555
C5 O2 1_555 1_555
C6 C5 1_555 1_555
C7 C5 1_555 1_555
C8 C5 1_555 1_555
C9 O3 1_555 1_555
C10 C9 1_555 1_555
C11 C9 1_555 1_555
C12 C9 1_555 1_555
C13 C14 1_555 1_555
C14 F19 1_555 1_555
C15 C13 1_555 1_555
C16 C13 1_555 1_555
F1 Tl1 1_555 1_555
F2 C2 1_555 1_555
F3 C2 1_555 1_555
F4 Tl1 1_555 1_555
F5 C3 1_555 1_555
F6 C3 1_555 1_555
F7 Tl1 1_555 1_555
F8 C6 1_555 1_555
F9 C6 1_555 1_555
F10 Tl1 1_555 1_555
F11 C7 1_555 1_555
F12 C7 1_555 1_555
F13 C10 1_555 1_555
F14 C10 1_555 1_555
F15 C10 1_555 1_555
F16 C11 1_555 1_555
F17 C11 1_555 1_555
F18 C11 1_555 1_555
F19 Tl1 1_555 1_555
F20 Tl1 1_555 1_555
F21 C14 1_555 1_555
F22 C15 1_555 1_555
F23 C15 1_555 1_555
F24 C15 1_555 1_555
H1 C4 1_555 1_555
H2 C4 1_555 1_555
H3 C4 1_555 1_555
H4 C8 1_555 1_555
H5 C8 1_555 1_555
H6 C8 1_555 1_555
H7 C12 1_555 1_555
H8 C12 1_555 1_555
H9 C12 1_555 1_555
H10 C16 1_555 1_555
H11 C16 1_555 1_555
H12 C16 1_555 1_555
F2A Tl1 1_555 1_555
F11A Tl1 1_555 1_555
F19A Tl1 1_555 1_555
O4_2 Al1 1_555 1_555
Al1_2 O4 1_555 1_555
Tl1A F2 1_555 1_555
Tl1A_2 F19 1_555 1_555
Al1 O2 1_555 1_555
C3 F4 1_555 1_555
C6 F7 1_555 1_555
C7 F10 1_555 1_555
C14 F20 1_555 1_555
F11 Tl1A 1_555 1_555
F19A Tl1A 1_555 1_555

#END
