
#######################################################################
#
#                 Cambridge Crystallographic Data Centre
#                                CCDC 
#
#######################################################################
#
# If this CIF has been generated from an entry in the Cambridge 
# Structural Database, then it will include bibliographic, chemical, 
# crystal, experimental, refinement or atomic coordinate data resulting 
# from the CCDC's data processing and validation procedures.
#
#######################################################################

data_AHOJOX
_symmetry_cell_setting           triclinic
_symmetry_space_group_name_H-M   'P -1'
_symmetry_Int_Tables_number      2
_space_group_name_Hall           '-P 1'
loop_
_symmetry_equiv_pos_site_id
_symmetry_equiv_pos_as_xyz
1 x,y,z
2 -x,-y,-z
_cell_length_a                   9.980(2)
_cell_length_b                   10.230(2)
_cell_length_c                   10.506(2)
_cell_angle_alpha                88.59(3)
_cell_angle_beta                 84.74(3)
_cell_angle_gamma                67.29(3)
_cell_volume                     985.221
loop_
_atom_site_label
_atom_site_type_symbol
_atom_site_fract_x
_atom_site_fract_y
_atom_site_fract_z
Ho1 Ho 0.81586(4) 0.44537(3) 0.03219(4)
S1 S 0.8378(2) 0.16570(16) 0.0479(3)
S2 S 1.07505(17) 0.35905(14) -0.13471(18)
N1 N 0.9347(6) 0.3040(5) 0.2024(6)
N2 N 1.0020(7) 0.0765(6) 0.2537(7)
H1 H 1.0112 -0.0125 0.2521
N3 N 1.2558(5) 0.3188(4) 0.0451(6)
N4 N 1.2304(5) 0.1207(4) 0.0001(6)
H2 H 1.1974 0.0637 -0.0360
N5 N 0.4208(6) 0.4686(4) -0.1392(5)
N6 N 0.6563(5) 0.4343(4) -0.1194(5)
C1 C 0.9270(8) 0.1795(7) 0.1733(9)
C2 C 1.0610(9) 0.1356(7) 0.3381(9)
C3 C 1.1459(13) 0.0783(10) 0.4382(10)
H3 H 1.1736 -0.0184 0.4612
C4 C 1.1877(15) 0.1706(11) 0.5027(10)
H4 H 1.2484 0.1357 0.5706
C5 C 1.1445(14) 0.3104(10) 0.4716(11)
H5 H 1.1724 0.3710 0.5207
C6 C 1.0611(11) 0.3659(8) 0.3705(8)
H6 H 1.0339 0.4626 0.3478
C7 C 1.0193(8) 0.2776(7) 0.3047(7)
C8 C 1.1918(7) 0.2597(6) -0.0229(7)
C9 C 1.3292(7) 0.0835(6) 0.0887(8)
C10 C 1.4054(9) -0.0426(6) 0.1494(9)
H7 H 1.3927 -0.1274 0.1315
C11 C 1.4980(11) -0.0403(7) 0.2344(10)
H8 H 1.5511 -0.1251 0.2768
C12 C 1.5173(11) 0.0822(7) 0.2613(10)
H9 H 1.5862 0.0783 0.3195
C13 C 1.4402(10) 0.2102(7) 0.2068(9)
H10 H 1.4516 0.2948 0.2283
C14 C 1.3462(7) 0.2091(6) 0.1199(7)
C15 C 0.5193(6) 0.4753(5) -0.0660(6)
C16 C 0.6471(7) 0.3939(5) -0.2413(6)
C17 C 0.7533(8) 0.3413(6) -0.3423(7)
H11 H 0.8520 0.3274 -0.3347
C18 C 0.7092(10) 0.3097(7) -0.4549(8)
H12 H 0.7793 0.2742 -0.5261
C19 C 0.5666(11) 0.3282(8) -0.4664(8)
H13 H 0.5417 0.3030 -0.5447
C20 C 0.4587(9) 0.3824(7) -0.3677(7)
H14 H 0.3604 0.3959 -0.3768
C21 C 0.5004(7) 0.4163(5) -0.2543(6)
Ho1A Ho 1.18414(4) 0.55463(3) -0.03219(4)
Ho1A_2 Ho 0.18414(4) 0.55463(3) -0.03219(4)
S1A S 1.1622(2) 0.83430(16) -0.0479(3)
S2A S 0.92495(17) 0.64095(14) 0.13471(18)
N1A N 1.0653(6) 0.6960(5) -0.2024(6)
N2A N 0.9980(7) 0.9235(6) -0.2537(7)
H1A H 0.9888 1.0125 -0.2521
N3A N 0.7442(5) 0.6812(4) -0.0451(6)
N4A N 0.7696(5) 0.8793(4) -0.0001(6)
H2A H 0.8026 0.9363 0.0360
N5A N 0.5792(6) 0.5314(4) 0.1392(5)
N5_2 N 1.4208(6) 0.4686(4) -0.1392(5)
N6A N 0.3437(5) 0.5657(4) 0.1194(5)
N6A_2 N 1.3437(5) 0.5657(4) 0.1194(5)
C1A C 1.0730(8) 0.8205(7) -0.1733(9)
C2A C 0.9390(9) 0.8644(7) -0.3381(9)
C3A C 0.8541(13) 0.9217(10) -0.4382(10)
H3A H 0.8264 1.0184 -0.4612
C4A C 0.8123(15) 0.8294(11) -0.5027(10)
H4A H 0.7516 0.8643 -0.5706
C5A C 0.8555(14) 0.6896(10) -0.4716(11)
H5A H 0.8276 0.6290 -0.5207
C6A C 0.9389(11) 0.6341(8) -0.3705(8)
H6A H 0.9661 0.5374 -0.3478
C7A C 0.9807(8) 0.7224(7) -0.3047(7)
C8A C 0.8082(7) 0.7403(6) 0.0229(7)
C9A C 0.6708(7) 0.9165(6) -0.0887(8)
C10A C 0.5946(9) 1.0426(6) -0.1494(9)
H7A H 0.6073 1.1274 -0.1315
C11A C 0.5020(11) 1.0403(7) -0.2344(10)
H8A H 0.4489 1.1251 -0.2768
C12A C 0.4827(11) 0.9178(7) -0.2613(10)
H9A H 0.4138 0.9217 -0.3195
C13A C 0.5598(10) 0.7898(7) -0.2068(9)
H10A H 0.5484 0.7052 -0.2283
C14A C 0.6538(7) 0.7909(6) -0.1199(7)
C15A C 0.4807(6) 0.5247(5) 0.0660(6)
C16A C 0.3529(7) 0.6061(5) 0.2413(6)
C17A C 0.2467(8) 0.6587(6) 0.3423(7)
H11A H 0.1480 0.6726 0.3347
C18A C 0.2908(10) 0.6903(7) 0.4549(8)
H12A H 0.2207 0.7258 0.5261
C19A C 0.4334(11) 0.6718(8) 0.4664(8)
H13A H 0.4583 0.6970 0.5447
C20A C 0.5413(9) 0.6176(7) 0.3677(7)
H14A H 0.6396 0.6041 0.3768
C21A C 0.4996(7) 0.5837(5) 0.2543(6)
loop_
_geom_bond_atom_site_label_1
_geom_bond_atom_site_label_2
_geom_bond_site_symmetry_1
_geom_bond_site_symmetry_2
Ho1 S1 1_555 1_555
S1 C1 1_555 1_555
S2 Ho1 1_555 1_555
N1 Ho1 1_555 1_555
N2 H1 1_555 1_555
N3 C8 1_555 1_555
N4 H2 1_555 1_555
N5 C15 1_555 1_555
N6 Ho1 1_555 1_555
C1 N1 1_555 1_555
C2 N2 1_555 1_555
C3 C2 1_555 1_555
H3 C3 1_555 1_555
C4 C3 1_555 1_555
H4 C4 1_555 1_555
C5 C4 1_555 1_555
H5 C5 1_555 1_555
C6 C5 1_555 1_555
H6 C6 1_555 1_555
C7 N1 1_555 1_555
C8 S2 1_555 1_555
C9 N4 1_555 1_555
C10 C9 1_555 1_555
H7 C10 1_555 1_555
C11 C10 1_555 1_555
H8 C11 1_555 1_555
C12 C11 1_555 1_555
H9 C12 1_555 1_555
C13 C12 1_555 1_555
H10 C13 1_555 1_555
C14 N3 1_555 1_555
C15 N6 1_555 1_555
C16 N6 1_555 1_555
C17 C16 1_555 1_555
H11 C17 1_555 1_555
C18 C17 1_555 1_555
H12 C18 1_555 1_555
C19 C18 1_555 1_555
H13 C19 1_555 1_555
C20 C19 1_555 1_555
H14 C20 1_555 1_555
C21 N5 1_555 1_555
Ho1A S2 1_555 1_555
Ho1A_2 N5 1_555 1_555
S1A Ho1A 1_555 1_555
S2A Ho1 1_555 1_555
N1A Ho1A 1_555 1_555
N2A H1A 1_555 1_555
N3A Ho1 1_555 1_555
N4A H2A 1_555 1_555
N5A Ho1 1_555 1_555
N5_2 Ho1A 1_555 1_555
N6A Ho1A_2 1_555 1_555
N6A_2 Ho1A 1_555 1_555
C1A S1A 1_555 1_555
C2A N2A 1_555 1_555
C3A C2A 1_555 1_555
H3A C3A 1_555 1_555
C4A C3A 1_555 1_555
H4A C4A 1_555 1_555
C5A C4A 1_555 1_555
H5A C5A 1_555 1_555
C6A C5A 1_555 1_555
H6A C6A 1_555 1_555
C7A N1A 1_555 1_555
C8A S2A 1_555 1_555
C9A N4A 1_555 1_555
C10A C9A 1_555 1_555
H7A C10A 1_555 1_555
C11A C10A 1_555 1_555
H8A C11A 1_555 1_555
C12A C11A 1_555 1_555
H9A C12A 1_555 1_555
C13A C12A 1_555 1_555
H10A C13A 1_555 1_555
C14A N3A 1_555 1_555
C15A C15 1_555 1_555
C16A N6A 1_555 1_555
C17A C16A 1_555 1_555
H11A C17A 1_555 1_555
C18A C17A 1_555 1_555
H12A C18A 1_555 1_555
C19A C18A 1_555 1_555
H13A C19A 1_555 1_555
C20A C19A 1_555 1_555
H14A C20A 1_555 1_555
C21A N5A 1_555 1_555
N2 C1 1_555 1_555
N3 Ho1A 1_555 1_555
N4 C8 1_555 1_555
C2 C7 1_555 1_555
C6 C7 1_555 1_555
C9 C14 1_555 1_555
C13 C14 1_555 1_555
C16 C21 1_555 1_555
C20 C21 1_555 1_555
Ho1A S2A 1_555 1_555
N1A C1A 1_555 1_555
N2A C1A 1_555 1_555
N3A C8A 1_555 1_555
N4A C8A 1_555 1_555
N5A C15A 1_555 1_555
N6A C15A 1_555 1_555
C2A C7A 1_555 1_555
C6A C7A 1_555 1_555
C9A C14A 1_555 1_555
C13A C14A 1_555 1_555
C16A C21A 1_555 1_555
C20A C21A 1_555 1_555

#END
