
#######################################################################
#
#                 Cambridge Crystallographic Data Centre
#                                CCDC 
#
#######################################################################
#
# If this CIF has been generated from an entry in the Cambridge 
# Structural Database, then it will include bibliographic, chemical, 
# crystal, experimental, refinement or atomic coordinate data resulting 
# from the CCDC's data processing and validation procedures.
#
#######################################################################

data_AHOMIU
_symmetry_cell_setting           monoclinic
_symmetry_space_group_name_H-M   'P 21/c'
_symmetry_Int_Tables_number      14
_space_group_name_Hall           '-P 2ybc'
loop_
_symmetry_equiv_pos_site_id
_symmetry_equiv_pos_as_xyz
1 x,y,z
2 -x,1/2+y,1/2-z
3 -x,-y,-z
4 x,1/2-y,1/2+z
_cell_length_a                   9.1141(6)
_cell_length_b                   16.0739(11)
_cell_length_c                   9.3521(6)
_cell_angle_alpha                90
_cell_angle_beta                 91.574(3)
_cell_angle_gamma                90
_cell_volume                     1369.56
loop_
_atom_site_label
_atom_site_type_symbol
_atom_site_fract_x
_atom_site_fract_y
_atom_site_fract_z
C1 C 0.4864(4) 0.74667(19) 0.2313(3)
C2 C 0.6530(4) 0.76086(18) 0.2119(4)
C3 C 0.8753(3) 1.08974(18) 0.4109(3)
H1 H 0.8210 1.1406 0.3917
H2 H 0.9444 1.1005 0.4894
C4 C 0.9587(4) 1.0655(2) 0.2792(3)
H3 H 1.0200 1.0176 0.3008
H4 H 1.0221 1.1110 0.2522
N1 N 0.8550(3) 1.04516(16) 0.1567(3)
C5 C 0.7699(4) 1.0223(2) 0.4540(3)
Eu1 Eu 0.570918(18) 0.880218(9) 0.478550(16)
O1 O 0.4278(2) 0.78126(13) 0.3366(2)
O2 O 0.4212(2) 0.70308(13) 0.1397(2)
O3 O 0.7163(2) 0.80627(13) 0.3009(2)
O4 O 0.7083(2) 0.72627(13) 0.1051(2)
O5 O 0.6421(2) 1.04101(12) 0.4929(2)
O6 O 0.8093(2) 0.94762(13) 0.4476(2)
C6 C 0.6744(4) 1.01207(19) -0.0756(3)
C7 C 0.6748(4) 1.0901(2) -0.0117(3)
H5 H 0.6125 1.1316 -0.0466
C8 C 0.7671(4) 1.1054(2) 0.1027(3)
H6 H 0.7693 1.1581 0.1437
C9 C 0.7611(4) 0.9506(2) -0.0154(3)
H7 H 0.7595 0.8973 -0.0540
C10 C 0.8505(4) 0.9681(2) 0.1024(3)
H8 H 0.9076 0.9262 0.1441
C11 C 0.5832(4) 0.9962(2) -0.2123(3)
O7 O 0.6116(3) 0.93032(13) -0.2769(2)
O8 O 0.4919(2) 1.05159(13) -0.2481(2)
Eu1C Eu 0.570918(18) 0.619782(9) -0.021450(16)
Eu1B Eu 0.429082(18) 1.119782(9) 0.521450(16)
Eu1_2 Eu 0.570918(18) 0.880218(9) -0.521450(16)
Eu1B_2 Eu 0.429082(18) 1.119782(9) -0.478550(16)
O2C O 0.4212(2) 0.79692(13) 0.6397(2)
O4C O 0.7083(2) 0.77373(13) 0.6051(2)
O5B O 0.3579(2) 0.95899(12) 0.5071(2)
O7_2 O 0.6116(3) 0.93032(13) 0.7231(2)
O8B O 0.5081(2) 0.94841(13) 0.2481(2)
O9 O 0.9807(3) 0.78042(17) 0.9963(3)
H9 H 0.906(3) 0.756(2) 1.030(4)
H10 H 1.003(4) 0.758(2) 0.918(3)
O10 O 0.1111(4) 0.8137(2) 0.2694(3)
H11 H 0.060(4) 0.797(3) 0.200(4)
H12 H 0.1990(17) 0.799(3) 0.267(5)
loop_
_geom_bond_atom_site_label_1
_geom_bond_atom_site_label_2
_geom_bond_site_symmetry_1
_geom_bond_site_symmetry_2
C1 C2 1_555 1_555
C2 O3 1_555 1_555
C3 H1 1_555 1_555
H2 C3 1_555 1_555
C4 C3 1_555 1_555
H3 C4 1_555 1_555
H4 C4 1_555 1_555
N1 C4 1_555 1_555
C5 C3 1_555 1_555
Eu1 O1 1_555 1_555
O1 C1 1_555 1_555
O2 C1 1_555 1_555
O3 Eu1 1_555 1_555
O4 C2 1_555 1_555
O5 C5 1_555 1_555
O6 C5 1_555 1_555
C6 C7 1_555 1_555
C7 H5 1_555 1_555
C8 N1 1_555 1_555
H6 C8 1_555 1_555
C9 C6 1_555 1_555
H7 C9 1_555 1_555
C10 N1 1_555 1_555
H8 C10 1_555 1_555
C11 C6 1_555 1_555
O7 C11 1_555 1_555
O8 C11 1_555 1_555
O9 H9 1_555 1_555
H10 O9 1_555 1_555
O10 H11 1_555 1_555
H12 O10 1_555 1_555
Eu1C O2 1_555 1_555
Eu1B O5 1_555 1_555
Eu1_2 O7 1_555 1_555
Eu1B_2 O8 1_555 1_555
O2C Eu1 1_555 1_555
O4C Eu1 1_555 1_555
O5B Eu1 1_555 1_555
O7_2 Eu1 1_555 1_555
O8B Eu1 1_555 1_555
Eu1 O5 1_555 1_555
Eu1 O6 1_555 1_555
O4 Eu1C 1_555 1_555
C7 C8 1_555 1_555
C9 C10 1_555 1_555
Eu1B O5B 1_555 1_555

#END
