
#######################################################################
#
#                 Cambridge Crystallographic Data Centre
#                                CCDC 
#
#######################################################################
#
# If this CIF has been generated from an entry in the Cambridge 
# Structural Database, then it will include bibliographic, chemical, 
# crystal, experimental, refinement or atomic coordinate data resulting 
# from the CCDC's data processing and validation procedures.
#
#######################################################################

data_AHONUG01
_symmetry_cell_setting           monoclinic
_symmetry_space_group_name_H-M   'P 21/n'
_symmetry_Int_Tables_number      14
_space_group_name_Hall           '-P 2yn'
loop_
_symmetry_equiv_pos_site_id
_symmetry_equiv_pos_as_xyz
1 x,y,z
2 1/2-x,1/2+y,1/2-z
3 -x,-y,-z
4 1/2+x,1/2-y,1/2+z
_cell_length_a                   7.789(2)
_cell_length_b                   12.227(2)
_cell_length_c                   13.242(3)
_cell_angle_alpha                90
_cell_angle_beta                 106.45
_cell_angle_gamma                90
_cell_volume                     1209.5
loop_
_atom_site_label
_atom_site_type_symbol
_atom_site_fract_x
_atom_site_fract_y
_atom_site_fract_z
Ca1 Ca 0.71297(7) 0.41423(4) 0.21972(4)
N1 N 0.7187(3) 0.3561(1) 0.4046(2)
N2 N 0.3458(3) 0.4951(2) 0.1677(2)
C1 C 0.6791(3) 0.2533(2) 0.4260(2)
C2 C 0.6428(4) 0.2240(2) 0.5188(2)
C3 C 0.6509(5) 0.3041(2) 0.5934(2)
C4 C 0.6951(4) 0.4098(2) 0.5738(2)
C5 C 0.7275(3) 0.4324(2) 0.4781(3)
C6 C 0.6798(3) 0.1710(2) 0.3429(2)
C7 C 0.7691(3) 0.5467(2) 0.4473(2)
O1 O 0.6813(2) 0.0730(1) 0.3599(1)
O2 O 0.6826(3) 0.2145(1) 0.2524(1)
O3 O 0.8034(3) 0.6205(1) 0.5132(1)
O4 O 0.7629(3) 0.5573(1) 0.3512(1)
O5 O 0.4568(3) 0.5326(2) 0.1241(2)
O6 O 0.3960(3) 0.4177(2) 0.2310(2)
O7 O 0.1937(3) 0.5313(2) 0.1498(2)
O8 O 1.0223(3) 0.3762(2) 0.2697(2)
O9 O 0.6742(4) 0.3340(2) 0.0549(2)
H1 H 0.617(3) 0.148(2) 0.529(2)
H2 H 0.621(4) 0.287(3) 0.653(3)
H3 H 0.693(4) 0.466(2) 0.619(2)
H4 H 0.704(6) 0.162(4) 0.208(3)
H5 H 1.073(4) 0.367(3) 0.325(3)
H6 H 1.091(5) 0.410(3) 0.242(3)
H7 H 0.697(7) 0.282(4) 0.026(4)
H8 H 0.655(5) 0.366(3) 0.013(3)
O1A O 0.8187(2) 0.5730(1) 0.1401(1)
Ca1A Ca 0.78703(7) -0.08577(4) 0.28028(4)
loop_
_geom_bond_atom_site_label_1
_geom_bond_atom_site_label_2
_geom_bond_site_symmetry_1
_geom_bond_site_symmetry_2
Ca1 N1 1_555 1_555
N1 C1 1_555 1_555
N2 O5 1_555 1_555
C1 C2 1_555 1_555
C2 C3 1_555 1_555
C3 C4 1_555 1_555
C4 C5 1_555 1_555
C5 N1 1_555 1_555
C6 C1 1_555 1_555
C7 C5 1_555 1_555
O1 C6 1_555 1_555
O2 Ca1 1_555 1_555
O3 C7 1_555 1_555
O4 Ca1 1_555 1_555
O5 Ca1 1_555 1_555
O6 Ca1 1_555 1_555
O7 N2 1_555 1_555
O8 Ca1 1_555 1_555
O9 Ca1 1_555 1_555
H1 C2 1_555 1_555
H2 C3 1_555 1_555
H3 C4 1_555 1_555
H4 O2 1_555 1_555
H5 O8 1_555 1_555
H6 O8 1_555 1_555
H7 O9 1_555 1_555
H8 O9 1_555 1_555
O1A Ca1 1_555 1_555
Ca1A O1 1_555 1_555
N2 O6 1_555 1_555
C6 O2 1_555 1_555
C7 O4 1_555 1_555

#END
