
#######################################################################
#
#                 Cambridge Crystallographic Data Centre
#                                CCDC 
#
#######################################################################
#
# If this CIF has been generated from an entry in the Cambridge 
# Structural Database, then it will include bibliographic, chemical, 
# crystal, experimental, refinement or atomic coordinate data resulting 
# from the CCDC's data processing and validation procedures.
#
#######################################################################

data_AHONUG
_symmetry_cell_setting           monoclinic
_symmetry_space_group_name_H-M   'P 21/n'
_symmetry_Int_Tables_number      14
_space_group_name_Hall           '-P 2yn'
loop_
_symmetry_equiv_pos_site_id
_symmetry_equiv_pos_as_xyz
1 x,y,z
2 1/2-x,1/2+y,1/2-z
3 -x,-y,-z
4 1/2+x,1/2-y,1/2+z
_cell_length_a                   8.070(2)
_cell_length_b                   13.400(3)
_cell_length_c                   11.000(2)
_cell_angle_alpha                90
_cell_angle_beta                 98.78(3)
_cell_angle_gamma                90
_cell_volume                     1175.58
loop_
_atom_site_label
_atom_site_type_symbol
_atom_site_fract_x
_atom_site_fract_y
_atom_site_fract_z
Ca1 Ca 0.19150(8) 0.78322(4) 0.45025(5)
N1 N 0.2559(3) 0.5983(2) 0.4983(2)
N2 N -0.0883(4) 0.8333(2) 0.5821(3)
C1 C 0.3607(4) 0.5698(2) 0.5985(2)
C2 C 0.3880(4) 0.4706(2) 0.6313(3)
C3 C 0.3045(5) 0.3975(2) 0.5571(3)
C4 C 0.1993(4) 0.4261(2) 0.4517(3)
C5 C 0.1779(4) 0.5272(2) 0.4267(2)
C6 C 0.4501(4) 0.6518(2) 0.6748(2)
C7 C 0.0614(4) 0.5636(2) 0.3140(2)
O1 O 0.5591(3) 0.6326(2) 0.7629(2)
O2 O 0.4021(3) 0.7414(1) 0.6400(2)
O3 O -0.0057(3) 0.5045(2) 0.2366(2)
O4 O 0.0400(3) 0.6586(2) 0.3117(2)
O5 O 0.4320(3) 0.8012(2) 0.3519(2)
O6 O 0.2808(4) 0.9422(2) 0.5236(3)
O7 O -0.0969(4) 0.8529(3) 0.4718(3)
O8 O 0.0312(3) 0.7783(2) 0.6307(2)
O9 O -0.1896(4) 0.8670(3) 0.6426(3)
H1 H 0.456(5) 0.454(3) 0.710(4)
H2 H 0.317(5) 0.337(3) 0.586(3)
H3 H 0.154(4) 0.387(3) 0.403(3)
H4 H 0.458(6) 0.784(4) 0.726(5)
H5 H 0.446(7) 0.772(5) 0.293(5)
H6 H 0.434(8) 0.860(6) 0.340(6)
H7 H 0.331(7) 0.944(4) 0.588(5)
H8 H 0.215(9) 0.985(5) 0.505(6)
O1C O 0.0591(3) 0.8674(2) 0.2629(2)
Ca1C Ca 0.69150(8) 0.71678(4) 0.95025(5)
loop_
_geom_bond_atom_site_label_1
_geom_bond_atom_site_label_2
_geom_bond_site_symmetry_1
_geom_bond_site_symmetry_2
Ca1 N1 1_555 1_555
N1 C1 1_555 1_555
N2 O7 1_555 1_555
C1 C2 1_555 1_555
C2 C3 1_555 1_555
C3 C4 1_555 1_555
C4 C5 1_555 1_555
C5 N1 1_555 1_555
C6 C1 1_555 1_555
C7 C5 1_555 1_555
O1 C6 1_555 1_555
O2 Ca1 1_555 1_555
O3 C7 1_555 1_555
O4 Ca1 1_555 1_555
O5 Ca1 1_555 1_555
O6 Ca1 1_555 1_555
O7 Ca1 1_555 1_555
O8 Ca1 1_555 1_555
O9 N2 1_555 1_555
H1 C2 1_555 1_555
H2 C3 1_555 1_555
H3 C4 1_555 1_555
H4 O2 1_555 1_555
H5 O5 1_555 1_555
H6 O5 1_555 1_555
H7 O6 1_555 1_555
H8 O6 1_555 1_555
O1C Ca1 1_555 1_555
Ca1C O1 1_555 1_555
N2 O8 1_555 1_555
C6 O2 1_555 1_555
C7 O4 1_555 1_555

#END
