
#######################################################################
#
#                 Cambridge Crystallographic Data Centre
#                                CCDC 
#
#######################################################################
#
# If this CIF has been generated from an entry in the Cambridge 
# Structural Database, then it will include bibliographic, chemical, 
# crystal, experimental, refinement or atomic coordinate data resulting 
# from the CCDC's data processing and validation procedures.
#
#######################################################################

data_AHORUL
_symmetry_cell_setting           hexagonal
_symmetry_space_group_name_H-M   'P 65'
_symmetry_Int_Tables_number      170
_space_group_name_Hall           'P 65'
loop_
_symmetry_equiv_pos_site_id
_symmetry_equiv_pos_as_xyz
1 x,y,z
2 -y,x-y,2/3+z
3 -x+y,-x,1/3+z
4 -x,-y,1/2+z
5 y,-x+y,1/6+z
6 x-y,x,5/6+z
_cell_length_a                   27.590(3)
_cell_length_b                   27.590(3)
_cell_length_c                   5.9277(14)
_cell_angle_alpha                90
_cell_angle_beta                 90
_cell_angle_gamma                120
_cell_volume                     3907.69
loop_
_atom_site_label
_atom_site_type_symbol
_atom_site_fract_x
_atom_site_fract_y
_atom_site_fract_z
Cu1 Cu 0.44168(2) 0.16477(2) 0.02814(8)
Cu2 Cu 0.36409(2) 0.04220(2) -0.24625(9)
O1 O 0.36450(12) 0.10614(12) -0.0041(5)
O2 O 0.32943(14) 0.15513(13) 0.1541(7)
O3 O 0.34578(12) 0.07407(13) 0.4833(6)
O4 O 0.28970(13) -0.00851(13) 0.6174(6)
O5 O 0.51422(13) 0.21917(13) 0.1788(6)
O6 O 0.46444(13) 0.13320(12) 0.2937(6)
O7 O 0.44333(11) 0.09984(12) 0.7803(5)
O8 O 0.48595(13) 0.05580(13) 0.6370(6)
N1 N 0.36775(14) 0.35819(14) -1.1759(6)
N2 N 0.45249(14) 0.34327(15) -0.6182(6)
H1 H 0.4721(14) 0.374(2) -0.543(8)
N3 N 0.44456(14) 0.21826(15) -0.1978(6)
C1 C 0.36175(18) 0.30814(17) -1.1219(7)
H2 H 0.3384 0.2776 -1.2115
C2 C 0.38790(17) 0.29935(17) -0.9432(8)
H3 H 0.3823 0.2638 -0.9141
C3 C 0.42287(16) 0.34413(16) -0.8061(7)
C4 C 0.43032(18) 0.39688(19) -0.8626(8)
H4 H 0.4539 0.4282 -0.7772
C5 C 0.40236(18) 0.40177(18) -1.0454(8)
H5 H 0.4077 0.4370 -1.0805
C6 C 0.48588(18) 0.27197(19) -0.1836(8)
H6 H 0.5132 0.2818 -0.0733
C7 C 0.48909(17) 0.31272(18) -0.3260(8)
H7 H 0.5187 0.3492 -0.3128
C8 C 0.44833(17) 0.29971(16) -0.4900(8)
C9 C 0.40566(18) 0.24371(19) -0.5050(8)
H8 H 0.3777 0.2328 -0.6131
C10 C 0.40559(18) 0.20517(19) -0.3588(8)
H9 H 0.3772 0.1681 -0.3716
C11 C 0.27033(17) 0.05705(17) 0.1123(8)
C12 C 0.25810(17) 0.01942(17) 0.2917(7)
C13 C 0.2063(2) -0.0295(2) 0.3008(10)
H10 H 0.1981 -0.0544 0.4197
C14 C 0.1668(2) -0.0412(2) 0.1328(11)
H11 H 0.1320 -0.0736 0.1407
C15 C 0.1792(2) -0.0048(2) -0.0456(11)
H12 H 0.1530 -0.0131 -0.1594
C16 C 0.2304(2) 0.0438(2) -0.0560(9)
H13 H 0.2383 0.0680 -0.1771
C17 C 0.32519(17) 0.11127(17) 0.0926(7)
C18 C 0.29945(17) 0.02871(17) 0.4716(7)
C19 C 0.54775(16) 0.19296(17) 0.5043(7)
C20 C 0.53792(16) 0.15449(16) 0.6737(7)
C21 C 0.57779(17) 0.16801(18) 0.8449(8)
H14 H 0.5712 0.1425 0.9599
C22 C 0.62667(18) 0.21882(19) 0.8435(8)
H15 H 0.6529 0.2274 0.9574
C23 C 0.63713(17) 0.25749(17) 0.6728(8)
H16 H 0.6702 0.2918 0.6726
C24 C 0.59800(17) 0.24455(18) 0.5033(8)
H17 H 0.6050 0.2701 0.3881
C25 C 0.50703(17) 0.18078(17) 0.3192(7)
C26 C 0.48494(17) 0.09820(17) 0.6923(7)
Cu1_2 Cu 0.44168(2) 0.16477(2) 1.02814(8)
Cu2_2 Cu 0.36409(2) 0.04220(2) 0.75375(9)
Cu2E Cu 0.32189(3) 0.36409(2) -1.41292(9)
O3_2 O 0.34578(12) 0.07407(13) -0.5167(6)
O4_2 O 0.28970(13) -0.00851(13) -0.3826(6)
O7_2 O 0.44333(11) 0.09984(12) -0.2197(5)
N1D N 0.35819(14) -0.00956(20) -0.0092(6)
O9 O 0.54704(15) 0.05769(14) 0.2519(6)
H18 H 0.537(2) 0.063(2) 0.380(5)
H19 H 0.542(2) 0.0250(12) 0.254(10)
loop_
_geom_bond_atom_site_label_1
_geom_bond_atom_site_label_2
_geom_bond_site_symmetry_1
_geom_bond_site_symmetry_2
Cu1 O1 1_555 1_555
Cu2 O1 1_555 1_555
O1 C17 1_555 1_555
O2 C17 1_555 1_555
O3 C18 1_555 1_555
O4 C18 1_555 1_555
O5 Cu1 1_555 1_555
O6 Cu1 1_555 1_555
O7 C26 1_555 1_555
O8 C26 1_555 1_555
N1 C1 1_555 1_555
N2 H1 1_555 1_555
N3 Cu1 1_555 1_555
C1 H2 1_555 1_555
C2 C1 1_555 1_555
H3 C2 1_555 1_555
C3 N2 1_555 1_555
C4 C3 1_555 1_555
H4 C4 1_555 1_555
C5 N1 1_555 1_555
H5 C5 1_555 1_555
C6 N3 1_555 1_555
H6 C6 1_555 1_555
C7 C6 1_555 1_555
H7 C7 1_555 1_555
C8 N2 1_555 1_555
C9 C8 1_555 1_555
H8 C9 1_555 1_555
C10 N3 1_555 1_555
H9 C10 1_555 1_555
C11 C12 1_555 1_555
C12 C13 1_555 1_555
C13 H10 1_555 1_555
C14 C13 1_555 1_555
H11 C14 1_555 1_555
C15 C14 1_555 1_555
H12 C15 1_555 1_555
C16 C11 1_555 1_555
H13 C16 1_555 1_555
C17 C11 1_555 1_555
C18 C12 1_555 1_555
C19 C20 1_555 1_555
C20 C21 1_555 1_555
C21 H14 1_555 1_555
C22 C21 1_555 1_555
H15 C22 1_555 1_555
C23 C22 1_555 1_555
H16 C23 1_555 1_555
C24 C19 1_555 1_555
H17 C24 1_555 1_555
C25 O5 1_555 1_555
C26 C20 1_555 1_555
O9 H18 1_555 1_555
H19 O9 1_555 1_555
Cu1_2 O7 1_555 1_555
Cu2_2 O3 1_555 1_555
Cu2E N1 1_555 1_555
O3_2 Cu2 1_555 1_555
O4_2 Cu2 1_555 1_555
O7_2 Cu1 1_555 1_555
N1D Cu2 1_555 1_555
Cu2 O7_2 1_555 1_555
O4 Cu2_2 1_555 1_555
O6 C25 1_555 1_555
O7 Cu2_2 1_555 1_555
C2 C3 1_555 1_555
C4 C5 1_555 1_555
C7 C8 1_555 1_555
C9 C10 1_555 1_555
C15 C16 1_555 1_555
C19 C25 1_555 1_555
C23 C24 1_555 1_555

#END
