
#######################################################################
#
#                 Cambridge Crystallographic Data Centre
#                                CCDC 
#
#######################################################################
#
# If this CIF has been generated from an entry in the Cambridge 
# Structural Database, then it will include bibliographic, chemical, 
# crystal, experimental, refinement or atomic coordinate data resulting 
# from the CCDC's data processing and validation procedures.
#
#######################################################################

data_AHOSUL
_symmetry_cell_setting           tetragonal
_symmetry_space_group_name_H-M   'P 43'
_symmetry_Int_Tables_number      78
_space_group_name_Hall           'P 4cw'
loop_
_symmetry_equiv_pos_site_id
_symmetry_equiv_pos_as_xyz
1 x,y,z
2 -x,-y,1/2+z
3 -y,x,3/4+z
4 y,-x,1/4+z
_cell_length_a                   15.742(2)
_cell_length_b                   15.742(2)
_cell_length_c                   15.405(3)
_cell_angle_alpha                90
_cell_angle_beta                 90
_cell_angle_gamma                90
_cell_volume                     3817.52
loop_
_atom_site_label
_atom_site_type_symbol
_atom_site_fract_x
_atom_site_fract_y
_atom_site_fract_z
Co1 Co 0.24541(7) 0.25460(7) 0.20193(11)
Mn1 Mn 0.17816(12) 0.56489(11) 0.21937(11)
C1 C 0.2186(6) 0.4332(6) 0.2727(6)
C2 C 0.2838(7) 0.4785(7) 0.2351(8)
H1 H 0.3120 0.4543 0.1882
C3 C 0.3105(7) 0.5601(6) 0.2639(7)
H2 H 0.3554 0.5871 0.2359
C4 C 0.2693(6) 0.6014(6) 0.3353(7)
C5 C 0.1915(8) 0.5638(6) 0.3596(7)
H3 H 0.1550 0.5946 0.3952
C6 C 0.1669(6) 0.4846(6) 0.3336(7)
H4 H 0.1162 0.4623 0.3547
O1 O 0.1964(4) 0.3569(4) 0.2572(6)
O2 O 0.3006(4) 0.6675(4) 0.3698(5)
C7 C 0.0689(9) 0.5388(9) 0.1982(11)
O3 O -0.0005(7) 0.5223(9) 0.1899(14)
C8 C 0.190(2) 0.569(3) 0.1031(17)
O4 O 0.215(2) 0.559(3) 0.0339(13)
C9 C 0.163(2) 0.6728(11) 0.212(2)
O5 O 0.143(3) 0.7465(10) 0.223(3)
Mn2 Mn 0.04891(10) 0.32342(15) -0.02081(12)
C10 C 0.0842(6) 0.2342(5) 0.0975(6)
C11 C 0.0481(6) 0.3110(8) 0.1188(8)
H5 H 0.0790 0.3485 0.1531
C12 C -0.0316(6) 0.3347(6) 0.0918(7)
H6 H -0.0550 0.3850 0.1125
C13 C -0.0819(5) 0.2808(6) 0.0292(6)
C14 C -0.0377(6) 0.2161(7) -0.0051(8)
H7 H -0.0614 0.1857 -0.0508
C15 C 0.0445(7) 0.1922(8) 0.0261(8)
H8 H 0.0730 0.1478 -0.0010
O6 O 0.1528(4) 0.2042(4) 0.1307(5)
O7 O -0.1588(4) 0.3049(4) 0.0117(5)
C16 C 0.1605(10) 0.341(3) -0.024(2)
O8 O 0.2287(11) 0.371(5) -0.013(3)
C17 C 0.0238(12) 0.4324(12) -0.0396(15)
O9 O 0.0083(12) 0.5059(10) -0.0469(15)
C18 C 0.0422(16) 0.307(2) -0.1367(13)
O10 O 0.0531(19) 0.298(2) -0.2065(11)
O2B O 0.3325(4) 0.3006(4) 0.1198(5)
O7C O 0.3049(4) 0.1588(4) 0.2617(5)
Co1C Co 0.25460(7) 0.75459(7) 0.45193(11)
Co1B Co -0.25460(7) 0.24541(7) -0.04807(11)
Co2 Co 0.75162(7) 0.74715(7) 0.91661(11)
Mn3 Mn 1.05332(9) 0.80475(8) 0.90928(10)
C19 C 0.9257(7) 0.7860(5) 0.8374(7)
C20 C 0.9794(6) 0.8399(6) 0.7981(6)
H9 H 0.9617 0.8957 0.7896
C21 C 1.0632(6) 0.8162(5) 0.7680(6)
H10 H 1.0969 0.8561 0.7396
C22 C 1.0951(6) 0.7307(6) 0.7817(6)
C23 C 1.0464(6) 0.6837(5) 0.8418(6)
H11 H 1.0699 0.6343 0.8646
C24 C 0.9662(6) 0.7065(5) 0.8687(6)
H12 H 0.9369 0.6716 0.9070
O11 O 0.8481(4) 0.8044(5) 0.8560(5)
O12 O 1.1619(4) 0.7038(4) 0.7443(5)
C25 C 1.0513(7) 0.9150(7) 0.9375(10)
O13 O 1.0042(6) 0.7627(8) 1.0842(5)
C26 C 1.1687(7) 0.8011(6) 0.9326(7)
O14 O 1.0448(7) 0.9870(6) 0.9531(10)
C27 C 1.0230(8) 0.7804(9) 1.0171(7)
O15 O 1.2362(5) 0.8003(6) 0.9465(6)
Mn4 Mn 0.66213(8) 0.55916(8) 1.13332(9)
C28 C 0.7707(5) 0.5934(5) 1.0340(6)
C29 C 0.6960(5) 0.5490(5) 0.9952(6)
H13 H 0.6655 0.5733 0.9499
C30 C 0.6732(6) 0.4689(6) 1.0295(6)
H14 H 0.6255 0.4434 1.0052
C31 C 0.7113(5) 0.4258(7) 1.0919(8)
C32 C 0.7740(5) 0.4775(6) 1.1423(6)
H15 H 0.7957 0.4563 1.1941
C33 C 0.8005(5) 0.5578(6) 1.1124(6)
H16 H 0.8392 0.5886 1.1455
O16 O 0.8021(4) 0.6612(4) 0.9992(5)
O17 O 0.6908(4) 0.3489(4) 1.1147(6)
C34 C 0.6245(5) 0.6670(5) 1.1184(5)
O18 O 0.6011(4) 0.7339(4) 1.1120(5)
C35 C 0.6752(8) 0.5782(7) 1.2476(7)
O19 O 0.6778(8) 0.5917(8) 1.3221(6)
C36 C 0.5565(6) 0.5212(6) 1.1483(7)
O20 O 0.4891(4) 0.4967(6) 1.1588(7)
O12C O 0.7038(4) 0.8381(4) 0.9943(5)
O17B O 0.6511(4) 0.6908(4) 0.8647(6)
Co2B Co 1.25285(7) 0.75162(7) 0.66661(11)
Co2C Co 0.74715(7) 0.24838(7) 1.16661(11)
loop_
_geom_bond_atom_site_label_1
_geom_bond_atom_site_label_2
_geom_bond_site_symmetry_1
_geom_bond_site_symmetry_2
Co1 O1 1_555 1_555
Mn1 C2 1_555 1_555
C1 C2 1_555 1_555
C2 H1 1_555 1_555
C3 Mn1 1_555 1_555
H2 C3 1_555 1_555
C4 C3 1_555 1_555
C5 Mn1 1_555 1_555
H3 C5 1_555 1_555
C6 Mn1 1_555 1_555
H4 C6 1_555 1_555
O1 C1 1_555 1_555
O2 C4 1_555 1_555
C7 Mn1 1_555 1_555
O3 C7 1_555 1_555
C8 Mn1 1_555 1_555
O4 C8 1_555 1_555
C9 Mn1 1_555 1_555
O5 C9 1_555 1_555
Mn2 C11 1_555 1_555
C10 C11 1_555 1_555
C11 H5 1_555 1_555
C12 Mn2 1_555 1_555
H6 C12 1_555 1_555
C13 C12 1_555 1_555
C14 Mn2 1_555 1_555
H7 C14 1_555 1_555
C15 Mn2 1_555 1_555
H8 C15 1_555 1_555
O6 Co1 1_555 1_555
O7 C13 1_555 1_555
C16 Mn2 1_555 1_555
O8 C16 1_555 1_555
C17 Mn2 1_555 1_555
O9 C17 1_555 1_555
C18 Mn2 1_555 1_555
O10 C18 1_555 1_555
Co2 O11 1_555 1_555
Mn3 C20 1_555 1_555
C19 C20 1_555 1_555
C20 H9 1_555 1_555
C21 Mn3 1_555 1_555
H10 C21 1_555 1_555
C22 C21 1_555 1_555
C23 Mn3 1_555 1_555
H11 C23 1_555 1_555
C24 Mn3 1_555 1_555
H12 C24 1_555 1_555
O11 C19 1_555 1_555
O12 C22 1_555 1_555
C25 Mn3 1_555 1_555
O13 C27 1_555 1_555
C26 Mn3 1_555 1_555
O14 C25 1_555 1_555
C27 Mn3 1_555 1_555
O15 C26 1_555 1_555
Mn4 C29 1_555 1_555
C28 C29 1_555 1_555
C29 H13 1_555 1_555
C30 Mn4 1_555 1_555
H14 C30 1_555 1_555
C31 C30 1_555 1_555
C32 Mn4 1_555 1_555
H15 C32 1_555 1_555
C33 Mn4 1_555 1_555
H16 C33 1_555 1_555
O16 Co2 1_555 1_555
O17 C31 1_555 1_555
C34 Mn4 1_555 1_555
O18 C34 1_555 1_555
C35 Mn4 1_555 1_555
O19 C35 1_555 1_555
C36 Mn4 1_555 1_555
O20 C36 1_555 1_555
O2B Co1 1_555 1_555
O7C Co1 1_555 1_555
Co1C O2 1_555 1_555
Co1B O7 1_555 1_555
O12C Co2 1_555 1_555
O17B Co2 1_555 1_555
Co2B O12 1_555 1_555
Co2C O17 1_555 1_555
C1 C6 1_555 1_555
C2 C3 1_555 1_555
C4 C5 1_555 1_555
C5 C6 1_555 1_555
C10 O6 1_555 1_555
C10 C15 1_555 1_555
C11 C12 1_555 1_555
C13 C14 1_555 1_555
C14 C15 1_555 1_555
C19 C24 1_555 1_555
C20 C21 1_555 1_555
C22 C23 1_555 1_555
C23 C24 1_555 1_555
C28 O16 1_555 1_555
C28 C33 1_555 1_555
C29 C30 1_555 1_555
C31 C32 1_555 1_555
C32 C33 1_555 1_555

#END
