
#######################################################################
#
#                 Cambridge Crystallographic Data Centre
#                                CCDC 
#
#######################################################################
#
# If this CIF has been generated from an entry in the Cambridge 
# Structural Database, then it will include bibliographic, chemical, 
# crystal, experimental, refinement or atomic coordinate data resulting 
# from the CCDC's data processing and validation procedures.
#
#######################################################################

data_AHOSIZ
_symmetry_cell_setting           orthorhombic
_symmetry_space_group_name_H-M   'P 21 21 21'
_symmetry_Int_Tables_number      19
_space_group_name_Hall           'P 2ac 2ab'
loop_
_symmetry_equiv_pos_site_id
_symmetry_equiv_pos_as_xyz
1 x,y,z
2 1/2-x,-y,1/2+z
3 -x,1/2+y,1/2-z
4 1/2+x,1/2-y,-z
_cell_length_a                   11.2244(7)
_cell_length_b                   12.1179(7)
_cell_length_c                   18.4937(11)
_cell_angle_alpha                90
_cell_angle_beta                 90
_cell_angle_gamma                90
_cell_volume                     2515.44
loop_
_atom_site_label
_atom_site_type_symbol
_atom_site_fract_x
_atom_site_fract_y
_atom_site_fract_z
Mn1 Mn 0.22978(4) 0.55337(4) 0.29471(3)
Mn2 Mn 0.57132(4) 0.35073(4) 0.31805(2)
C1 C 0.3678(2) 0.3337(2) 0.31140(15)
C2 C 0.4179(3) 0.2624(2) 0.36617(16)
C3 C 0.5057(3) 0.1847(3) 0.34882(18)
C4 C 0.5481(3) 0.1701(2) 0.27529(17)
C5 C 0.5126(3) 0.2532(3) 0.22611(16)
H1 H 0.5487 0.2562 0.1809
C6 C 0.4251(3) 0.3311(2) 0.24314(15)
H2 H 0.4037 0.3830 0.2085
C7 C 0.3674(4) 0.2703(3) 0.44099(19)
H3 H 0.3100 0.2126 0.4481
H4 H 0.3294 0.3407 0.4471
H5 H 0.4304 0.2628 0.4757
C8 C 0.5546(4) 0.1056(3) 0.4042(2)
H6 H 0.5599 0.1419 0.4502
H7 H 0.6324 0.0815 0.3895
H8 H 0.5026 0.0429 0.4081
O1 O 0.28182(18) 0.39872(17) 0.32725(13)
O2 O 0.6172(2) 0.09069(19) 0.25954(16)
C9 C 0.5428(3) 0.4620(3) 0.37987(18)
O3 O 0.5202(3) 0.5327(3) 0.41795(18)
C10 C 0.6441(3) 0.4465(3) 0.25840(18)
O4 O 0.6887(3) 0.5090(2) 0.22084(16)
C11 C 0.7121(3) 0.3105(4) 0.3566(3)
O5 O 0.8006(3) 0.2829(4) 0.3802(2)
Mn3 Mn 0.05613(4) 0.31233(4) 0.10707(2)
C12 C 0.0412(2) 0.4513(2) 0.19421(15)
C13 C -0.0459(2) 0.4626(2) 0.13737(15)
C14 C -0.1267(2) 0.3767(2) 0.12120(15)
C15 C -0.1272(3) 0.2754(2) 0.16289(15)
C16 C -0.0261(3) 0.2584(2) 0.20705(16)
H9 H -0.0134 0.1888 0.2268
C17 C 0.0558(3) 0.3426(2) 0.22226(15)
H10 H 0.1213 0.3271 0.2514
C18 C -0.0536(3) 0.5736(3) 0.1008(2)
H11 H -0.0761 0.5637 0.0511
H12 H 0.0225 0.6095 0.1031
H13 H -0.1122 0.6181 0.1249
C19 C -0.2245(3) 0.3899(3) 0.06551(18)
H14 H -0.2892 0.4311 0.0861
H15 H -0.2525 0.3184 0.0509
H16 H -0.1939 0.4285 0.0242
O6 O 0.1059(2) 0.53303(17) 0.21331(13)
O7 O -0.21051(18) 0.20407(19) 0.15480(12)
C20 C 0.1700(4) 0.2102(4) 0.1204(2)
O8 O 0.2406(4) 0.1456(3) 0.12973(19)
C21 C 0.1572(3) 0.3993(3) 0.05688(19)
O9 O 0.2194(3) 0.4540(3) 0.02484(18)
C22 C 0.0046(3) 0.2451(3) 0.02653(18)
O10 O -0.0292(3) 0.2017(3) -0.02429(15)
O2B O 0.3828(2) 0.59069(19) 0.24046(16)
O7B O 0.21051(18) 0.70407(19) 0.34520(12)
Mn1B Mn 0.77022(4) 0.05337(4) 0.20529(3)
Mn1B_2 Mn -0.22978(4) 0.05337(4) 0.20529(3)
C23 C 0.0088(7) 0.4421(6) 0.3998(4)
H17 H 0.0469 0.3761 0.4169
H18 H -0.0329 0.4265 0.3556
H19 H -0.0466 0.4680 0.4355
O11 O 0.0903(4) 0.5189(3) 0.3878(2)
H20 H 0.0675 0.5779 0.4045
loop_
_geom_bond_atom_site_label_1
_geom_bond_atom_site_label_2
_geom_bond_site_symmetry_1
_geom_bond_site_symmetry_2
Mn1 O1 1_555 1_555
Mn2 C2 1_555 1_555
C1 C2 1_555 1_555
C2 C3 1_555 1_555
C3 Mn2 1_555 1_555
C4 C3 1_555 1_555
C5 Mn2 1_555 1_555
H1 C5 1_555 1_555
C6 Mn2 1_555 1_555
H2 C6 1_555 1_555
C7 C2 1_555 1_555
H3 C7 1_555 1_555
H4 C7 1_555 1_555
H5 C7 1_555 1_555
C8 C3 1_555 1_555
H6 C8 1_555 1_555
H7 C8 1_555 1_555
H8 C8 1_555 1_555
O1 C1 1_555 1_555
O2 C4 1_555 1_555
C9 Mn2 1_555 1_555
O3 C9 1_555 1_555
C10 Mn2 1_555 1_555
O4 C10 1_555 1_555
C11 Mn2 1_555 1_555
O5 C11 1_555 1_555
Mn3 C13 1_555 1_555
C12 C13 1_555 1_555
C13 C14 1_555 1_555
C14 Mn3 1_555 1_555
C15 C14 1_555 1_555
C16 Mn3 1_555 1_555
H9 C16 1_555 1_555
C17 Mn3 1_555 1_555
H10 C17 1_555 1_555
C18 C13 1_555 1_555
H11 C18 1_555 1_555
H12 C18 1_555 1_555
H13 C18 1_555 1_555
C19 C14 1_555 1_555
H14 C19 1_555 1_555
H15 C19 1_555 1_555
H16 C19 1_555 1_555
O6 Mn1 1_555 1_555
O7 C15 1_555 1_555
C20 Mn3 1_555 1_555
O8 C20 1_555 1_555
C21 Mn3 1_555 1_555
O9 C21 1_555 1_555
C22 Mn3 1_555 1_555
O10 C22 1_555 1_555
C23 H17 1_555 1_555
H18 C23 1_555 1_555
H19 C23 1_555 1_555
O11 C23 1_555 1_555
H20 O11 1_555 1_555
O2B Mn1 1_555 1_555
O7B Mn1 1_555 1_555
Mn1B O2 1_555 1_555
Mn1B_2 O7 1_555 1_555
C1 C6 1_555 1_555
C4 C5 1_555 1_555
C5 C6 1_555 1_555
C12 O6 1_555 1_555
C12 C17 1_555 1_555
C15 C16 1_555 1_555
C16 C17 1_555 1_555

#END
