
#######################################################################
#
#                 Cambridge Crystallographic Data Centre
#                                CCDC 
#
#######################################################################
#
# If this CIF has been generated from an entry in the Cambridge 
# Structural Database, then it will include bibliographic, chemical, 
# crystal, experimental, refinement or atomic coordinate data resulting 
# from the CCDC's data processing and validation procedures.
#
#######################################################################

data_AHOSEV
_symmetry_cell_setting           tetragonal
_symmetry_space_group_name_H-M   'P 43'
_symmetry_Int_Tables_number      78
_space_group_name_Hall           'P 4cw'
loop_
_symmetry_equiv_pos_site_id
_symmetry_equiv_pos_as_xyz
1 x,y,z
2 -x,-y,1/2+z
3 -y,x,3/4+z
4 y,-x,1/4+z
_cell_length_a                   15.8914(8)
_cell_length_b                   15.8914(8)
_cell_length_c                   15.3532(14)
_cell_angle_alpha                90
_cell_angle_beta                 90
_cell_angle_gamma                90
_cell_volume                     3877.24
loop_
_atom_site_label
_atom_site_type_symbol
_atom_site_fract_x
_atom_site_fract_y
_atom_site_fract_z
Mn1 Mn 0.75247(6) 0.25092(6) 0.43343(10)
O1 O 0.8406(4) 0.3007(4) 0.5164(4)
C1 C 0.9076(4) 0.2703(4) 0.5473(5)
C2 C 0.9441(6) 0.3005(5) 0.6298(5)
H1 H 0.9143 0.3391 0.6633
C3 C 1.0227(5) 0.2723(4) 0.6587(5)
H2 H 1.0433 0.2934 0.7110
C4 C 1.0731(6) 0.2125(5) 0.6120(6)
C5 C 1.0300(4) 0.1728(5) 0.5447(5)
H3 H 1.0558 0.1263 0.5195
C6 C 0.9500(5) 0.1967(4) 0.5106(5)
H4 H 0.9253 0.1660 0.4658
Mn2 Mn 0.94167(7) 0.16292(7) 0.65010(7)
C7 C 0.8352(4) 0.1262(4) 0.6358(4)
O2 O 0.7692(3) 0.1030(4) 0.6276(4)
C8 C 0.9231(6) 0.1759(7) 0.7658(6)
O3 O 0.9100(6) 0.1783(7) 0.8397(5)
C9 C 0.9799(5) 0.0569(5) 0.6654(6)
O4 O 1.0036(5) -0.0098(4) 0.6731(6)
O5 O 1.1485(4) 0.1917(4) 0.6324(5)
O6 O 0.6979(4) 0.3487(4) 0.3708(5)
C10 C 0.7158(5) 0.4248(6) 0.3554(5)
C11 C 0.6618(4) 0.4798(5) 0.3114(5)
H5 H 0.6074 0.4615 0.2997
C12 C 0.6847(4) 0.5620(5) 0.2836(6)
H6 H 0.6445 0.5963 0.2576
C13 C 0.7693(5) 0.5928(4) 0.2951(5)
C14 C 0.8174(4) 0.5450(5) 0.3599(5)
H7 H 0.8651 0.5689 0.3850
C15 C 0.7930(4) 0.4649(5) 0.3843(5)
H8 H 0.8281 0.4348 0.4215
Mn3 Mn 0.69496(7) 0.55153(7) 0.42531(8)
C16 C 0.7204(7) 0.5210(6) 0.5343(5)
O7 O 0.7364(7) 0.5025(5) 0.6011(4)
C17 C 0.5842(7) 0.5482(6) 0.4540(8)
O8 O 0.5153(5) 0.5431(5) 0.4684(8)
C18 C 0.6982(5) 0.6656(5) 0.4492(6)
O9 O 0.7014(6) 0.7330(4) 0.4627(5)
O10 O 0.7955(4) 0.6603(4) 0.2624(4)
O5B O 0.8083(4) 0.1485(4) 0.3824(5)
O10C O 0.6603(4) 0.2045(4) 0.5124(4)
Mn1C Mn 1.25092(6) 0.24753(6) 0.68343(10)
Mn1B Mn 0.74908(6) 0.75247(6) 0.18343(10)
Mn4 Mn 0.75407(6) 0.25481(6) 0.21850(9)
O11 O 0.8568(4) 0.3040(4) 0.2759(5)
C19 C 0.9336(4) 0.2841(5) 0.2917(5)
C20 C 0.9777(6) 0.2160(6) 0.2508(6)
H9 H 0.9524 0.1868 0.2053
C21 C 1.0589(5) 0.1927(5) 0.2790(6)
H10 H 1.0860 0.1489 0.2502
C22 C 1.1005(5) 0.2316(5) 0.3472(5)
C23 C 1.0637(5) 0.3078(6) 0.3738(5)
H11 H 1.0943 0.3433 0.4101
C24 C 0.9852(5) 0.3317(6) 0.3487(6)
H12 H 0.9640 0.3821 0.3702
Mn5 Mn 1.06358(9) 0.32192(10) 0.23488(9)
C25 C 1.0398(7) 0.4272(8) 0.2130(9)
O12 O 1.0237(7) 0.4976(6) 0.2016(11)
C26 C 1.0669(19) 0.3071(15) 0.1251(13)
O13 O 1.061(3) 0.2897(18) 0.0497(12)
C27 C 1.1721(9) 0.3373(16) 0.2273(18)
O14 O 1.2422(8) 0.355(2) 0.232(2)
O15 O 1.1663(3) 0.1997(3) 0.3836(4)
O16 O 0.6578(3) 0.1942(3) 0.2807(4)
C28 C 0.5807(4) 0.2166(4) 0.2992(5)
C29 C 0.5319(5) 0.1643(5) 0.3568(6)
H13 H 0.5541 0.1138 0.3771
C30 C 0.4520(5) 0.1891(6) 0.3822(6)
H14 H 0.4206 0.1525 0.4166
C31 C 0.4166(5) 0.2650(5) 0.3592(6)
C32 C 0.4551(5) 0.3050(6) 0.2917(6)
H15 H 0.4268 0.3491 0.2647
C33 C 0.5371(5) 0.2827(5) 0.2599(6)
H16 H 0.5610 0.3119 0.2136
Mn6 Mn 0.45166(8) 0.17668(12) 0.24423(10)
C34 C 0.4742(9) 0.0707(10) 0.2251(12)
O17 O 0.4910(11) -0.0009(8) 0.2125(13)
C35 C 0.3426(8) 0.162(2) 0.2391(18)
O18 O 0.2735(8) 0.136(3) 0.2459(19)
C36 C 0.4560(13) 0.1913(16) 0.1318(12)
O19 O 0.4511(15) 0.1994(18) 0.0591(9)
O20 O 0.3485(3) 0.2949(3) 0.3945(4)
O15B O 0.8003(3) 0.1663(3) 0.1336(4)
O20B O 0.7051(3) 0.3485(3) 0.1445(4)
Mn4C Mn 1.25481(6) 0.24593(6) 0.46850(9)
Mn4C_2 Mn 0.25481(6) 0.24593(6) 0.46850(9)
loop_
_geom_bond_atom_site_label_1
_geom_bond_atom_site_label_2
_geom_bond_site_symmetry_1
_geom_bond_site_symmetry_2
Mn1 O1 1_555 1_555
O1 C1 1_555 1_555
C1 C2 1_555 1_555
C2 H1 1_555 1_555
C3 C2 1_555 1_555
H2 C3 1_555 1_555
C4 C3 1_555 1_555
C5 C4 1_555 1_555
H3 C5 1_555 1_555
C6 C1 1_555 1_555
H4 C6 1_555 1_555
Mn2 C2 1_555 1_555
C7 Mn2 1_555 1_555
O2 C7 1_555 1_555
C8 Mn2 1_555 1_555
O3 C8 1_555 1_555
C9 Mn2 1_555 1_555
O4 C9 1_555 1_555
O5 C4 1_555 1_555
O6 Mn1 1_555 1_555
C10 O6 1_555 1_555
C11 C10 1_555 1_555
H5 C11 1_555 1_555
C12 C11 1_555 1_555
H6 C12 1_555 1_555
C13 C12 1_555 1_555
C14 C13 1_555 1_555
H7 C14 1_555 1_555
C15 C10 1_555 1_555
H8 C15 1_555 1_555
Mn3 C11 1_555 1_555
C16 Mn3 1_555 1_555
O7 C16 1_555 1_555
C17 Mn3 1_555 1_555
O8 C17 1_555 1_555
C18 Mn3 1_555 1_555
O9 C18 1_555 1_555
O10 C13 1_555 1_555
Mn4 O11 1_555 1_555
O11 C19 1_555 1_555
C19 C20 1_555 1_555
C20 H9 1_555 1_555
C21 C20 1_555 1_555
H10 C21 1_555 1_555
C22 C21 1_555 1_555
C23 C22 1_555 1_555
H11 C23 1_555 1_555
C24 C19 1_555 1_555
H12 C24 1_555 1_555
Mn5 C20 1_555 1_555
C25 Mn5 1_555 1_555
O12 C25 1_555 1_555
C26 Mn5 1_555 1_555
O13 C26 1_555 1_555
C27 Mn5 1_555 1_555
O14 C27 1_555 1_555
O15 C22 1_555 1_555
O16 Mn4 1_555 1_555
C28 O16 1_555 1_555
C29 C28 1_555 1_555
H13 C29 1_555 1_555
C30 C29 1_555 1_555
H14 C30 1_555 1_555
C31 C30 1_555 1_555
C32 C31 1_555 1_555
H15 C32 1_555 1_555
C33 C28 1_555 1_555
H16 C33 1_555 1_555
Mn6 C29 1_555 1_555
C34 Mn6 1_555 1_555
O17 C34 1_555 1_555
C35 Mn6 1_555 1_555
O18 C35 1_555 1_555
C36 Mn6 1_555 1_555
O19 C36 1_555 1_555
O20 C31 1_555 1_555
O5B Mn1 1_555 1_555
O10C Mn1 1_555 1_555
Mn1C O5 1_555 1_555
Mn1B O10 1_555 1_555
O15B Mn4 1_555 1_555
O20B Mn4 1_555 1_555
Mn4C O15 1_555 1_555
Mn4C_2 O20 1_555 1_555
C3 Mn2 1_555 1_555
C5 C6 1_555 1_555
C5 Mn2 1_555 1_555
C6 Mn2 1_555 1_555
C12 Mn3 1_555 1_555
C14 C15 1_555 1_555
C14 Mn3 1_555 1_555
C15 Mn3 1_555 1_555
C21 Mn5 1_555 1_555
C23 C24 1_555 1_555
C23 Mn5 1_555 1_555
C24 Mn5 1_555 1_555
C30 Mn6 1_555 1_555
C32 C33 1_555 1_555
C32 Mn6 1_555 1_555
C33 Mn6 1_555 1_555

#END
