
#######################################################################
#
#                 Cambridge Crystallographic Data Centre
#                                CCDC 
#
#######################################################################
#
# If this CIF has been generated from an entry in the Cambridge 
# Structural Database, then it will include bibliographic, chemical, 
# crystal, experimental, refinement or atomic coordinate data resulting 
# from the CCDC's data processing and validation procedures.
#
#######################################################################

data_AHOTAS
_symmetry_cell_setting           orthorhombic
_symmetry_space_group_name_H-M   'P 21 21 21'
_symmetry_Int_Tables_number      19
_space_group_name_Hall           'P 2ac 2ab'
loop_
_symmetry_equiv_pos_site_id
_symmetry_equiv_pos_as_xyz
1 x,y,z
2 1/2-x,-y,1/2+z
3 -x,1/2+y,1/2-z
4 1/2+x,1/2-y,-z
_cell_length_a                   11.4061(6)
_cell_length_b                   12.0915(6)
_cell_length_c                   17.9405(9)
_cell_angle_alpha                90
_cell_angle_beta                 90
_cell_angle_gamma                90
_cell_volume                     2474.3
loop_
_atom_site_label
_atom_site_type_symbol
_atom_site_fract_x
_atom_site_fract_y
_atom_site_fract_z
Mn1 Mn 0.23716(5) 0.44616(5) 0.23256(4)
Mn2 Mn -0.04604(5) 0.20459(5) 0.11351(3)
C1 C 0.1326(3) 0.2393(3) 0.1689(2)
C2 C 0.1372(3) 0.1434(3) 0.1216(2)
C3 C 0.0597(3) 0.0542(3) 0.1337(2)
C4 C -0.0264(3) 0.0561(3) 0.1921(2)
C5 C -0.0405(4) 0.1563(3) 0.2298(2)
H1 H -0.1023 0.1641 0.2632
C6 C 0.0358(4) 0.2453(3) 0.2187(2)
H2 H 0.0229 0.3106 0.2448
C7 C 0.2311(4) 0.1402(4) 0.0631(2)
H3 H 0.2952 0.0956 0.0804
H4 H 0.2584 0.2140 0.0535
H5 H 0.1999 0.1091 0.0181
C8 C 0.0721(4) -0.0518(4) 0.0904(2)
H6 H 0.1035 -0.0360 0.0419
H7 H -0.0033 -0.0861 0.0853
H8 H 0.1241 -0.1008 0.1165
O1 O 0.2094(2) 0.3172(2) 0.16309(17)
O2 O -0.0909(2) -0.0298(2) 0.20457(15)
C9 C -0.0023(4) 0.2731(4) 0.0295(3)
O3 O 0.0270(4) 0.3177(4) -0.0233(2)
C10 C -0.1529(4) 0.1224(4) 0.0661(3)
O4 O -0.2190(3) 0.0669(3) 0.0368(2)
C11 C -0.1526(5) 0.3100(5) 0.1307(3)
O5 O -0.2195(5) 0.3764(5) 0.1440(3)
Mn3 Mn 0.56500(5) 0.63329(5) 0.17782(3)
C12 C 0.3683(3) 0.6584(3) 0.1926(2)
C13 C 0.4094(3) 0.7151(3) 0.1265(2)
C14 C 0.4999(3) 0.7931(4) 0.1296(2)
C15 C 0.5515(4) 0.8214(3) 0.2010(3)
C16 C 0.5230(4) 0.7558(3) 0.2620(2)
H9 H 0.5644 0.7643 0.3063
C17 C 0.4321(3) 0.6762(3) 0.2582(2)
H10 H 0.4142 0.6347 0.3003
C18 C 0.3452(4) 0.6904(4) 0.0549(2)
H11 H 0.2841 0.7440 0.0477
H12 H 0.3114 0.6178 0.0576
H13 H 0.3991 0.6937 0.0139
C19 C 0.5415(5) 0.8563(4) 0.0625(3)
H14 H 0.5582 0.8056 0.0228
H15 H 0.6112 0.8967 0.0750
H16 H 0.4815 0.9070 0.0469
O6 O 0.2798(2) 0.5927(2) 0.18761(18)
O7 O 0.6269(3) 0.9022(3) 0.20312(19)
C20 C 0.5328(4) 0.5145(4) 0.1230(2)
O8 O 0.5071(4) 0.4377(3) 0.08916(19)
C21 C 0.7056(5) 0.6580(5) 0.1359(3)
O9 O 0.7946(4) 0.6751(4) 0.1101(3)
C22 C 0.6309(4) 0.5458(4) 0.2465(3)
O10 O 0.6715(3) 0.4893(3) 0.2904(2)
O2B O 0.0909(2) 0.4702(2) 0.29543(15)
O7B O 0.3731(3) 0.4022(3) 0.29688(19)
Mn1B Mn -0.23716(5) -0.05384(5) 0.26744(4)
Mn1B_2 Mn 0.76284(5) 0.94616(5) 0.26744(4)
loop_
_geom_bond_atom_site_label_1
_geom_bond_atom_site_label_2
_geom_bond_site_symmetry_1
_geom_bond_site_symmetry_2
Mn1 O1 1_555 1_555
Mn2 C2 1_555 1_555
C1 C2 1_555 1_555
C2 C3 1_555 1_555
C3 Mn2 1_555 1_555
C4 C3 1_555 1_555
C5 Mn2 1_555 1_555
H1 C5 1_555 1_555
C6 Mn2 1_555 1_555
H2 C6 1_555 1_555
C7 C2 1_555 1_555
H3 C7 1_555 1_555
H4 C7 1_555 1_555
H5 C7 1_555 1_555
C8 C3 1_555 1_555
H6 C8 1_555 1_555
H7 C8 1_555 1_555
H8 C8 1_555 1_555
O1 C1 1_555 1_555
O2 C4 1_555 1_555
C9 Mn2 1_555 1_555
O3 C9 1_555 1_555
C10 Mn2 1_555 1_555
O4 C10 1_555 1_555
C11 Mn2 1_555 1_555
O5 C11 1_555 1_555
Mn3 C13 1_555 1_555
C12 C13 1_555 1_555
C13 C14 1_555 1_555
C14 Mn3 1_555 1_555
C15 C14 1_555 1_555
C16 Mn3 1_555 1_555
H9 C16 1_555 1_555
C17 Mn3 1_555 1_555
H10 C17 1_555 1_555
C18 C13 1_555 1_555
H11 C18 1_555 1_555
H12 C18 1_555 1_555
H13 C18 1_555 1_555
C19 C14 1_555 1_555
H14 C19 1_555 1_555
H15 C19 1_555 1_555
H16 C19 1_555 1_555
O6 Mn1 1_555 1_555
O7 C15 1_555 1_555
C20 Mn3 1_555 1_555
O8 C20 1_555 1_555
C21 Mn3 1_555 1_555
O9 C21 1_555 1_555
C22 Mn3 1_555 1_555
O10 C22 1_555 1_555
O2B Mn1 1_555 1_555
O7B Mn1 1_555 1_555
Mn1B O2 1_555 1_555
Mn1B_2 O7 1_555 1_555
C1 C6 1_555 1_555
C4 C5 1_555 1_555
C5 C6 1_555 1_555
C12 O6 1_555 1_555
C12 C17 1_555 1_555
C15 C16 1_555 1_555
C16 C17 1_555 1_555

#END
