
#######################################################################
#
#                 Cambridge Crystallographic Data Centre
#                                CCDC 
#
#######################################################################
#
# If this CIF has been generated from an entry in the Cambridge 
# Structural Database, then it will include bibliographic, chemical, 
# crystal, experimental, refinement or atomic coordinate data resulting 
# from the CCDC's data processing and validation procedures.
#
#######################################################################

data_AHOVID01
_symmetry_cell_setting           triclinic
_symmetry_space_group_name_H-M   'P -1'
_symmetry_Int_Tables_number      2
_space_group_name_Hall           '-P 1'
loop_
_symmetry_equiv_pos_site_id
_symmetry_equiv_pos_as_xyz
1 x,y,z
2 -x,-y,-z
_cell_length_a                   7.523(4)
_cell_length_b                   11.723(6)
_cell_length_c                   6.955(4)
_cell_angle_alpha                90.71(5)
_cell_angle_beta                 103.86(5)
_cell_angle_gamma                83.88(4)
_cell_volume                     592.068
loop_
_atom_site_label
_atom_site_type_symbol
_atom_site_fract_x
_atom_site_fract_y
_atom_site_fract_z
Se1 Se -0.03923(9) 0.33884(6) 0.71660(11)
Se2 Se 0.28347(9) 0.50726(6) 0.81392(11)
Cu1 Cu 0.05443(13) 0.05060(8) 0.69747(15)
Cl1 Cl -0.2149(2) 0.09721(15) 0.4619(3)
Cl2 Cl 0.0000 0.0000 1.0000
S1 S -0.3325(2) 0.57468(16) 0.6822(2)
S2 S -0.0334(2) 0.72240(15) 0.7707(2)
N1 N 0.2488(8) 0.1613(4) 0.7597(9)
N2 N 0.5278(7) 0.3077(5) 0.8460(9)
C1 C 0.4300(9) 0.1204(5) 0.8002(11)
C2 C 0.5643(9) 0.1936(6) 0.8435(12)
C3 C 0.2100(8) 0.2741(5) 0.7644(10)
C4 C 0.3503(9) 0.3485(5) 0.8090(11)
C5 C 0.0286(8) 0.4881(5) 0.7549(11)
C6 C -0.0968(8) 0.5842(5) 0.7388(10)
C7 C -0.3941(10) 0.7198(7) 0.6749(12)
C8 C -0.2562(11) 0.7880(6) 0.7166(12)
H1 H 0.4638 0.0400 0.7997
H2 H 0.6895 0.1620 0.8735
H3 H -0.5196 0.7509 0.6422
H4 H -0.2808 0.8692 0.7166
Se1A Se 0.03923(9) -0.33884(6) 0.28340(11)
Se2A Se -0.28347(9) -0.50726(6) 0.18608(11)
Cu1A Cu -0.05443(13) -0.05060(8) 0.30253(15)
Cu1A_2 Cu -0.05443(13) -0.05060(8) 1.30253(15)
Cl1A Cl 0.2149(2) -0.09721(15) 0.5381(3)
Cl2_2 Cl 0.0000 0.0000 0.0000
S1A S 0.3325(2) -0.57468(16) 0.3178(2)
S2A S 0.0334(2) -0.72240(15) 0.2293(2)
N1A N -0.2488(8) -0.1613(4) 0.2403(9)
N2A N -0.5278(7) -0.3077(5) 0.1540(9)
C1A C -0.4300(9) -0.1204(5) 0.1998(11)
C2A C -0.5643(9) -0.1936(6) 0.1565(12)
C3A C -0.2100(8) -0.2741(5) 0.2356(10)
C4A C -0.3503(9) -0.3485(5) 0.1910(11)
C5A C -0.0286(8) -0.4881(5) 0.2451(11)
C6A C 0.0968(8) -0.5842(5) 0.2612(10)
C7A C 0.3941(10) -0.7198(7) 0.3251(12)
C8A C 0.2562(11) -0.7880(6) 0.2834(12)
H1A H -0.4638 -0.0400 0.2003
H2A H -0.6895 -0.1620 0.1265
H3A H 0.5196 -0.7509 0.3578
H4A H 0.2808 -0.8692 0.2834
loop_
_geom_bond_atom_site_label_1
_geom_bond_atom_site_label_2
_geom_bond_site_symmetry_1
_geom_bond_site_symmetry_2
Se1 C3 1_555 1_555
Se2 C4 1_555 1_555
Cu1 Cl1 1_555 1_555
Cl1 Cu1A 1_555 1_555
Cl2 Cu1 1_555 1_555
S1 C6 1_555 1_555
S2 C6 1_555 1_555
N1 Cu1 1_555 1_555
N2 C2 1_555 1_555
C1 N1 1_555 1_555
C2 C1 1_555 1_555
C3 N1 1_555 1_555
C4 N2 1_555 1_555
C5 Se1 1_555 1_555
C6 C5 1_555 1_555
C7 S1 1_555 1_555
C8 S2 1_555 1_555
H1 C1 1_555 1_555
H2 C2 1_555 1_555
H3 C7 1_555 1_555
H4 C8 1_555 1_555
Se1A C3A 1_555 1_555
Se2A C4A 1_555 1_555
Cu1A Cl1A 1_555 1_555
Cu1A_2 Cl2 1_555 1_555
Cl1A Cu1 1_555 1_555
Cl2_2 Cu1A 1_555 1_555
S1A C6A 1_555 1_555
S2A C6A 1_555 1_555
N1A Cu1A 1_555 1_555
N2A C2A 1_555 1_555
C1A N1A 1_555 1_555
C2A C1A 1_555 1_555
C3A N1A 1_555 1_555
C4A N2A 1_555 1_555
C5A Se1A 1_555 1_555
C6A C5A 1_555 1_555
C7A S1A 1_555 1_555
C8A S2A 1_555 1_555
H1A C1A 1_555 1_555
H2A C2A 1_555 1_555
H3A C7A 1_555 1_555
H4A C8A 1_555 1_555
Se2 C5 1_555 1_555
C3 C4 1_555 1_555
C7 C8 1_555 1_555
Se2A C5A 1_555 1_555
C3A C4A 1_555 1_555
C7A C8A 1_555 1_555

#END
