
#######################################################################
#
#                 Cambridge Crystallographic Data Centre
#                                CCDC 
#
#######################################################################
#
# If this CIF has been generated from an entry in the Cambridge 
# Structural Database, then it will include bibliographic, chemical, 
# crystal, experimental, refinement or atomic coordinate data resulting 
# from the CCDC's data processing and validation procedures.
#
#######################################################################

data_AHOVID
_symmetry_cell_setting           triclinic
_symmetry_space_group_name_H-M   'P -1'
_symmetry_Int_Tables_number      2
_space_group_name_Hall           '-P 1'
loop_
_symmetry_equiv_pos_site_id
_symmetry_equiv_pos_as_xyz
1 x,y,z
2 -x,-y,-z
_cell_length_a                   7.5330(12)
_cell_length_b                   11.746(2)
_cell_length_c                   7.003(3)
_cell_angle_alpha                90.85(2)
_cell_angle_beta                 103.36(2)
_cell_angle_gamma                83.618(14)
_cell_volume                     599.101
loop_
_atom_site_label
_atom_site_type_symbol
_atom_site_fract_x
_atom_site_fract_y
_atom_site_fract_z
Se1 Se 1.04216(10) 0.16031(7) 0.28298(13)
Se2 Se 0.72129(10) -0.00635(7) 0.18273(14)
Cu1 Cu 0.94913(15) 0.44989(10) 0.30196(19)
Cl1 Cl 1.2135(3) 0.40302(19) 0.5360(3)
Cl2 Cl 1.0000 0.5000 0.0000
S1 S 1.3330(2) -0.07568(19) 0.3210(3)
S2 S 1.0367(3) -0.22157(17) 0.2301(3)
N1 N 0.7563(8) 0.3376(5) 0.2369(9)
N2 N 0.4792(8) 0.1939(5) 0.1480(11)
C1 C 0.5773(11) 0.3780(7) 0.1989(13)
C2 C 0.4414(11) 0.3066(7) 0.1545(14)
C3 C 0.7944(9) 0.2266(6) 0.2316(11)
C4 C 0.6544(9) 0.1536(6) 0.1882(11)
C5 C 0.9735(9) 0.0108(6) 0.2424(11)
C6 C 1.0985(10) -0.0829(6) 0.2609(11)
C7 C 1.3941(12) -0.2192(7) 0.3285(14)
C8 C 1.2607(14) -0.2869(8) 0.2868(14)
H1 H 0.5443 0.4583 0.2022
H2 H 0.3165 0.3384 0.1271
H3 H 1.5196 -0.2499 0.3611
H4 H 1.2868 -0.3679 0.2885
Se1A Se 0.95784(10) 0.83969(7) 0.71702(13)
Se2A Se 1.27871(10) 1.00635(7) 0.81727(14)
Cu1A Cu 1.05087(15) 0.55011(10) 0.69804(19)
Cu1A_2 Cu 1.05087(15) 0.55011(10) -0.30196(19)
Cl1A Cl 0.7865(3) 0.59698(19) 0.4640(3)
Cl2_2 Cl 1.0000 0.5000 1.0000
S1A S 0.6670(2) 1.07568(19) 0.6790(3)
S2A S 0.9633(3) 1.22157(17) 0.7699(3)
N1A N 1.2437(8) 0.6624(5) 0.7631(9)
N2A N 1.5208(8) 0.8061(5) 0.8520(11)
C1A C 1.4227(11) 0.6220(7) 0.8011(13)
C2A C 1.5586(11) 0.6934(7) 0.8455(14)
C3A C 1.2056(9) 0.7734(6) 0.7684(11)
C4A C 1.3456(9) 0.8464(6) 0.8118(11)
C5A C 1.0265(9) 0.9892(6) 0.7576(11)
C6A C 0.9015(10) 1.0829(6) 0.7391(11)
C7A C 0.6059(12) 1.2192(7) 0.6715(14)
C8A C 0.7393(14) 1.2869(8) 0.7132(14)
H1A H 1.4557 0.5417 0.7978
H2A H 1.6835 0.6616 0.8729
H3A H 0.4804 1.2499 0.6389
H4A H 0.7132 1.3679 0.7115
loop_
_geom_bond_atom_site_label_1
_geom_bond_atom_site_label_2
_geom_bond_site_symmetry_1
_geom_bond_site_symmetry_2
Se1 C3 1_555 1_555
Se2 C4 1_555 1_555
Cu1 Cl1 1_555 1_555
Cl1 Cu1A 1_555 1_555
Cl2 Cu1 1_555 1_555
S1 C6 1_555 1_555
S2 C6 1_555 1_555
N1 Cu1 1_555 1_555
N2 C2 1_555 1_555
C1 N1 1_555 1_555
C2 C1 1_555 1_555
C3 N1 1_555 1_555
C4 N2 1_555 1_555
C5 Se1 1_555 1_555
C6 C5 1_555 1_555
C7 S1 1_555 1_555
C8 S2 1_555 1_555
H1 C1 1_555 1_555
H2 C2 1_555 1_555
H3 C7 1_555 1_555
H4 C8 1_555 1_555
Se1A C3A 1_555 1_555
Se2A C4A 1_555 1_555
Cu1A Cl1A 1_555 1_555
Cu1A_2 Cl2 1_555 1_555
Cl1A Cu1 1_555 1_555
Cl2_2 Cu1A 1_555 1_555
S1A C6A 1_555 1_555
S2A C6A 1_555 1_555
N1A Cu1A 1_555 1_555
N2A C2A 1_555 1_555
C1A N1A 1_555 1_555
C2A C1A 1_555 1_555
C3A N1A 1_555 1_555
C4A N2A 1_555 1_555
C5A Se1A 1_555 1_555
C6A C5A 1_555 1_555
C7A S1A 1_555 1_555
C8A S2A 1_555 1_555
H1A C1A 1_555 1_555
H2A C2A 1_555 1_555
H3A C7A 1_555 1_555
H4A C8A 1_555 1_555
Se2 C5 1_555 1_555
C3 C4 1_555 1_555
C7 C8 1_555 1_555
Se2A C5A 1_555 1_555
C3A C4A 1_555 1_555
C7A C8A 1_555 1_555

#END
