
#######################################################################
#
#                 Cambridge Crystallographic Data Centre
#                                CCDC 
#
#######################################################################
#
# If this CIF has been generated from an entry in the Cambridge 
# Structural Database, then it will include bibliographic, chemical, 
# crystal, experimental, refinement or atomic coordinate data resulting 
# from the CCDC's data processing and validation procedures.
#
#######################################################################

data_AHOZIG
_symmetry_cell_setting           monoclinic
_symmetry_space_group_name_H-M   'P 21/c'
_symmetry_Int_Tables_number      14
_space_group_name_Hall           '-P 2ybc'
loop_
_symmetry_equiv_pos_site_id
_symmetry_equiv_pos_as_xyz
1 x,y,z
2 x,1/2-y,1/2+z
3 -x,-y,-z
4 -x,1/2+y,1/2-z
_cell_length_a                   13.7368(2)
_cell_length_b                   16.5809(5)
_cell_length_c                   13.8723(2)
_cell_angle_alpha                90
_cell_angle_beta                 114.4042(18)
_cell_angle_gamma                90
_cell_volume                     2877.37
loop_
_atom_site_label
_atom_site_type_symbol
_atom_site_fract_x
_atom_site_fract_y
_atom_site_fract_z
Cd1 Cd 0.55670(2) 0.016158(16) 0.15951(2)
Cl1 Cl 0.49363(8) -0.10229(5) 0.01769(7)
Cl2 Cl 0.75921(8) -0.00076(6) 0.22504(8)
O1 O 0.3784(2) 0.03183(16) 0.1423(2)
N1 N 0.2007(3) 0.0444(2) 0.0537(3)
N3 N 0.6042(3) -0.17984(19) 0.3913(3)
N4 N 0.5582(3) -0.07071(19) 0.2925(3)
N5 N 1.3606(3) -0.24729(18) 1.1790(3)
N6 N 1.4238(3) -0.36526(18) 1.2485(2)
C1 C 0.2981(3) 0.0331(2) 0.0593(3)
H1 H 0.3062 0.0256 -0.0048
C2 C 0.1061(4) 0.0406(4) -0.0474(4)
H2 H 0.1286 0.0355 -0.1055
H3 H 0.0638 0.0899 -0.0567
H4 H 0.0626 -0.0063 -0.0473
C3 C 0.1838(5) 0.0533(4) 0.1498(4)
H5 H 0.1550 0.0030 0.1644
H6 H 0.1330 0.0972 0.1407
H7 H 0.2519 0.0658 0.2092
C7 C 0.9273(3) -0.2182(2) 0.7437(3)
C8 C 0.9103(4) -0.1661(3) 0.6604(4)
H15 H 0.9582 -0.1224 0.6701
C9 C 0.8250(4) -0.1765(3) 0.5634(3)
H16 H 0.8153 -0.1399 0.5074
C10 C 0.7532(3) -0.2396(2) 0.5465(3)
C11 C 0.7686(3) -0.2910(2) 0.6300(3)
H17 H 0.7196 -0.3337 0.6209
C12 C 0.8550(3) -0.2809(2) 0.7272(3)
H18 H 0.8648 -0.3174 0.7832
C13 C 0.6612(4) -0.2542(2) 0.4385(3)
H19 H 0.6898 -0.2784 0.3903
H20 H 0.6104 -0.2931 0.4466
C14 C 1.0206(3) -0.2075(2) 0.8479(3)
C15 C 1.1162(3) -0.1749(3) 0.8526(4)
H21 H 1.1220 -0.1596 0.7892
C16 C 1.2036(3) -0.1646(3) 0.9503(4)
H22 H 1.2683 -0.1429 0.9523
C17 C 1.1973(4) -0.1857(2) 1.0442(4)
C18 C 1.1027(4) -0.2173(3) 1.0394(4)
H23 H 1.0967 -0.2317 1.1030
C19 C 1.0160(4) -0.2283(3) 0.9429(4)
H24 H 0.9518 -0.2506 0.9418
C20 C 1.2925(4) -0.1747(2) 1.1497(3)
H25 H 1.3352 -0.1279 1.1454
H26 H 1.2668 -0.1633 1.2053
C21 C 0.6200(3) -0.1355(2) 0.3182(3)
H27 H 0.6692 -0.1489 0.2886
C22 C 0.5019(4) -0.0745(3) 0.3529(4)
H28 H 0.4506 -0.0359 0.3523
C23 C 0.5298(4) -0.1421(3) 0.4147(4)
H29 H 0.5024 -0.1590 0.4640
C24 C 1.3538(4) -0.3083(2) 1.2400(3)
H30 H 1.3051 -0.3100 1.2725
C25 C 1.4786(4) -0.3388(2) 1.1915(3)
H31 H 1.5352 -0.3669 1.1839
C26 C 1.4394(4) -0.2664(3) 1.1477(4)
H32 H 1.4624 -0.2351 1.1036
Cl1B Cl 0.50637(8) 0.10229(5) -0.01769(7)
N6C N 0.5762(3) 0.13474(18) 0.2515(2)
Cd1B Cd 0.44330(2) -0.016158(16) -0.15951(2)
Cd1C Cd 1.44330(2) -0.483842(16) 1.34049(2)
O2 O 0.8635(8) 0.1137(5) 0.7362(6)
N2 N 0.8506(6) 0.0749(3) 0.5811(4)
C4 C 0.9143(7) 0.0844(5) 0.6800(6)
H8 H 0.9884 0.0720 0.7090
C5 C 0.9011(14) 0.0539(6) 0.5152(9)
H9 H 0.9230 0.1030 0.4901
H10 H 0.8513 0.0232 0.4545
H11 H 0.9642 0.0209 0.5550
C6 C 0.7465(9) 0.0840(9) 0.5360(11)
H12 H 0.7119 0.0347 0.5453
H13 H 0.7237 0.0946 0.4603
H14 H 0.7259 0.1295 0.5687
loop_
_geom_bond_atom_site_label_1
_geom_bond_atom_site_label_2
_geom_bond_site_symmetry_1
_geom_bond_site_symmetry_2
Cd1 Cl1 1_555 1_555
Cl1 Cd1B 1_555 1_555
Cl2 Cd1 1_555 1_555
O1 Cd1 1_555 1_555
O2 C4 1_555 1_555
N1 C1 1_555 1_555
N2 C4 1_555 1_555
N3 C13 1_555 1_555
N4 Cd1 1_555 1_555
N5 C20 1_555 1_555
N6 C24 1_555 1_555
C1 O1 1_555 1_555
H1 C1 1_555 1_555
C2 N1 1_555 1_555
H2 C2 1_555 1_555
H3 C2 1_555 1_555
H4 C2 1_555 1_555
C3 N1 1_555 1_555
H5 C3 1_555 1_555
H6 C3 1_555 1_555
H7 C3 1_555 1_555
C4 H8 1_555 1_555
C5 N2 1_555 1_555
H9 C5 1_555 1_555
H10 C5 1_555 1_555
H11 C5 1_555 1_555
C6 N2 1_555 1_555
H12 C6 1_555 1_555
H13 C6 1_555 1_555
H14 C6 1_555 1_555
C7 C8 1_555 1_555
C8 H15 1_555 1_555
C9 C8 1_555 1_555
H16 C9 1_555 1_555
C10 C9 1_555 1_555
C11 C10 1_555 1_555
H17 C11 1_555 1_555
C12 C7 1_555 1_555
H18 C12 1_555 1_555
C13 C10 1_555 1_555
H19 C13 1_555 1_555
H20 C13 1_555 1_555
C14 C7 1_555 1_555
C15 C14 1_555 1_555
H21 C15 1_555 1_555
C16 C15 1_555 1_555
H22 C16 1_555 1_555
C17 C16 1_555 1_555
C18 C17 1_555 1_555
H23 C18 1_555 1_555
C19 C14 1_555 1_555
H24 C19 1_555 1_555
C20 C17 1_555 1_555
H25 C20 1_555 1_555
H26 C20 1_555 1_555
C21 N3 1_555 1_555
H27 C21 1_555 1_555
C22 N4 1_555 1_555
H28 C22 1_555 1_555
C23 N3 1_555 1_555
H29 C23 1_555 1_555
C24 N5 1_555 1_555
H30 C24 1_555 1_555
C25 N6 1_555 1_555
H31 C25 1_555 1_555
C26 N5 1_555 1_555
H32 C26 1_555 1_555
Cl1B Cd1 1_555 1_555
N6C Cd1 1_555 1_555
Cd1B Cl1B 1_555 1_555
Cd1C N6 1_555 1_555
N4 C21 1_555 1_555
C11 C12 1_555 1_555
C18 C19 1_555 1_555
C22 C23 1_555 1_555
C25 C26 1_555 1_555

#END
