
#######################################################################
#
#                 Cambridge Crystallographic Data Centre
#                                CCDC 
#
#######################################################################
#
# If this CIF has been generated from an entry in the Cambridge 
# Structural Database, then it will include bibliographic, chemical, 
# crystal, experimental, refinement or atomic coordinate data resulting 
# from the CCDC's data processing and validation procedures.
#
#######################################################################

data_AHUCAH
_symmetry_cell_setting           triclinic
_symmetry_space_group_name_H-M   'P -1'
_symmetry_Int_Tables_number      2
_space_group_name_Hall           '-P 1'
loop_
_symmetry_equiv_pos_site_id
_symmetry_equiv_pos_as_xyz
1 x,y,z
2 -x,-y,-z
_cell_length_a                   12.1440(2)
_cell_length_b                   12.5360(3)
_cell_length_c                   12.8850(3)
_cell_angle_alpha                70.9930(12)
_cell_angle_beta                 62.6240(12)
_cell_angle_gamma                84.0400(12)
_cell_volume                     1644.46
loop_
_atom_site_label
_atom_site_type_symbol
_atom_site_fract_x
_atom_site_fract_y
_atom_site_fract_z
Ag1 Ag 0.666283(18) 0.337875(17) 0.00251(2)
F1 F 0.55875(19) 0.50027(17) 0.34473(19)
F2 F 0.4250(2) 0.62288(18) 0.3338(2)
F3 F 0.3693(2) 0.4455(2) 0.41978(19)
S1 S 0.48804(5) 0.50990(5) 0.17776(6)
O1 O 1.10155(14) 0.24875(13) -0.08311(17)
O2 O 0.86030(16) 0.10195(14) 0.13911(16)
O3 O 0.74402(15) -0.07893(14) 0.06459(18)
O4 O 0.93596(16) 0.13046(14) -0.15085(16)
O5 O 0.58813(17) 0.59355(15) 0.09256(19)
O6 O 0.5216(2) 0.39454(16) 0.1855(2)
O7 O 0.37124(18) 0.53669(19) 0.1740(2)
C1 C 0.8098(3) 0.2021(2) -0.3718(3)
C2 C 1.0013(2) 0.37660(19) -0.1928(2)
C3 C 0.5787(3) 0.1416(2) 0.3968(2)
C4 C 1.0167(2) 0.33104(18) -0.0855(2)
C5 C 0.6648(2) 0.06889(19) -0.0514(2)
C6 C 0.6669(2) 0.01016(18) 0.0607(2)
C7 C 0.9388(2) 0.35728(19) 0.0223(2)
C8 C 0.9688(3) 0.3424(2) -0.4380(3)
C9 C 0.6037(2) 0.04792(19) 0.1630(2)
C10 C 0.8278(2) 0.1440(2) -0.2685(2)
C11 C 0.9424(2) 0.3034(2) 0.1445(2)
C12 C 0.6601(2) 0.0956(2) 0.3058(2)
C13 C 0.7465(3) 0.0415(2) -0.1703(3)
C14 C 0.9085(2) 0.4528(2) -0.1916(2)
C15 C 0.5269(2) 0.1394(2) 0.1554(2)
C16 C 0.8470(2) 0.4348(2) 0.0192(2)
C17 C 0.5889(2) 0.1603(2) -0.0560(3)
C18 C 0.7808(2) 0.1448(2) 0.2315(2)
C19 C 0.7357(3) 0.2821(2) 0.3361(2)
C20 C 0.9199(2) 0.18684(19) -0.2537(2)
C21 C 0.8324(2) 0.48383(19) -0.0869(2)
C22 C 0.8191(2) 0.2411(2) 0.2418(2)
C23 C 0.9885(2) 0.2881(2) -0.3352(2)
C24 C 0.6173(3) 0.2320(2) 0.4140(2)
C25 C 0.6197(3) 0.0016(2) 0.2798(3)
C26 C 0.8820(3) 0.3001(3) -0.4568(3)
C27 C 1.2197(3) 0.2764(2) -0.1031(4)
C28 C 1.0747(2) 0.3408(2) -0.3068(2)
C29 C 0.5171(2) 0.1942(2) 0.0481(3)
C30 C 0.6944(3) -0.1898(2) 0.1207(5)
C31 C 0.4576(3) 0.5191(2) 0.3271(3)
C33 C 0.9651(3) 0.0464(2) 0.1564(3)
C34 C 1.0529(3) 0.0761(2) -0.1750(3)
H1 H 0.745(3) 0.178(3) -0.379(3)
H2 H 0.496(3) 0.109(3) 0.444(3)
H3 H 1.017(3) 0.411(3) -0.494(3)
H4 H 0.958(4) 0.366(4) 0.168(4)
H5 H 1.005(3) 0.259(3) 0.133(3)
H6 H 0.793(3) -0.022(3) -0.156(3)
H7 H 0.694(4) 0.022(3) -0.198(4)
H8 H 0.897(3) 0.479(3) -0.259(3)
H9 H 0.481(3) 0.163(3) 0.229(3)
H10 H 0.794(3) 0.454(3) 0.088(3)
H11 H 0.590(3) 0.197(3) -0.130(3)
H12 H 0.763(3) 0.340(3) 0.343(3)
H13 H 0.774(3) 0.541(3) -0.092(3)
H14 H 0.567(3) 0.261(3) 0.473(3)
H15 H 0.682(3) -0.060(3) 0.273(3)
H16 H 0.545(3) -0.033(3) 0.345(3)
H17 H 0.875(3) 0.335(3) -0.524(4)
H18 H 1.110(4) 0.409(3) -0.369(4)
H19 H 1.139(3) 0.293(3) -0.295(3)
H20 H 0.460(3) 0.250(3) 0.048(3)
H21 H 1.2106(3) 0.2962(2) -0.0305(4)
H22 H 1.2552(3) 0.3437(2) -0.1786(4)
H23 H 0.6461(3) -0.2022(2) 0.2112(5)
H24 H 0.6369(3) -0.1979(2) 0.0874(5)
H25 H 0.9657(3) 0.0557(2) 0.2304(3)
H26 H 1.0451(3) 0.0791(2) 0.0821(3)
H27 H 1.0835(3) 0.0830(2) -0.1173(3)
H28 H 1.1154(3) 0.1138(2) -0.2618(3)
C34A C 0.9471(3) -0.0761(2) 0.1750(3)
O4A O 1.06404(16) -0.13046(14) 0.15085(16)
C20A C 1.0801(2) -0.18684(19) 0.2537(2)
C10A C 1.1722(2) -0.1440(2) 0.2685(2)
C1A C 1.1902(3) -0.2021(2) 0.3718(3)
C26A C 1.1180(3) -0.3001(3) 0.4568(3)
C8A C 1.0312(3) -0.3424(2) 0.4380(3)
C23A C 1.0115(2) -0.2881(2) 0.3352(2)
C28A C 0.9253(2) -0.3408(2) 0.3068(2)
C2A C 0.9987(2) -0.37660(19) 0.1928(2)
C4A C 0.9833(2) -0.33104(18) 0.0855(2)
O1A O 0.89845(14) -0.24875(13) 0.08311(17)
C27A C 0.7803(3) -0.2764(2) 0.1031(4)
C33A C 1.0349(3) -0.0464(2) -0.1564(3)
O2A O 1.13970(16) -0.10195(14) -0.13911(16)
C18A C 1.2192(2) -0.1448(2) -0.2315(2)
C12A C 1.3399(2) -0.0956(2) -0.3058(2)
C3A C 1.4213(3) -0.1416(2) -0.3968(2)
C24A C 1.3827(3) -0.2320(2) -0.4140(2)
C19A C 1.2643(3) -0.2821(2) -0.3361(2)
C22A C 1.1809(2) -0.2411(2) -0.2418(2)
C11A C 1.0576(2) -0.3034(2) -0.1445(2)
C7A C 1.0612(2) -0.35728(19) -0.0223(2)
C16A C 1.1530(2) -0.4348(2) -0.0192(2)
C21A C 1.1676(2) -0.48383(19) 0.0869(2)
C14A C 1.0915(2) -0.4528(2) 0.1916(2)
H8A H 1.103(3) -0.479(3) 0.259(3)
H13A H 1.226(3) -0.541(3) 0.092(3)
H10A H 1.206(3) -0.454(3) -0.088(3)
H4A H 1.042(4) -0.366(4) -0.168(4)
H5A H 0.995(3) -0.259(3) -0.133(3)
H12A H 1.237(3) -0.340(3) -0.343(3)
H14A H 1.433(3) -0.261(3) -0.473(3)
H2A H 1.504(3) -0.109(3) -0.444(3)
C25A C 1.3803(3) -0.0016(2) -0.2798(3)
C9A C 1.3963(2) -0.04792(19) -0.1630(2)
C6A C 1.3331(2) -0.01016(18) -0.0607(2)
O3A O 1.25598(15) 0.07893(14) -0.06459(18)
C30A C 1.3056(3) 0.1898(2) -0.1207(5)
H23A H 1.3539(3) 0.2022(2) -0.2112(5)
H24A H 1.3631(3) 0.1979(2) -0.0874(5)
C5A C 1.3352(2) -0.06889(19) 0.0514(2)
C13A C 1.2535(3) -0.0415(2) 0.1703(3)
H6A H 1.207(3) 0.022(3) 0.156(3)
H7A H 1.306(4) -0.022(3) 0.198(4)
C17A C 1.4111(2) -0.1603(2) 0.0560(3)
C29A C 1.4829(2) -0.1942(2) -0.0481(3)
C15A C 1.4731(2) -0.1394(2) -0.1554(2)
H9A H 1.519(3) -0.163(3) -0.229(3)
H20A H 1.540(3) -0.250(3) -0.048(3)
H11A H 1.410(3) -0.197(3) 0.130(3)
H15A H 1.318(3) 0.060(3) -0.273(3)
H16A H 1.455(3) 0.033(3) -0.345(3)
H25A H 1.0343(3) -0.0557(2) -0.2304(3)
H26A H 0.9549(3) -0.0791(2) -0.0821(3)
H21A H 0.7894(3) -0.2962(2) 0.0305(4)
H22A H 0.7448(3) -0.3437(2) 0.1786(4)
H18A H 0.890(4) -0.409(3) 0.369(4)
H19A H 0.861(3) -0.293(3) 0.295(3)
H3A H 0.983(3) -0.411(3) 0.494(3)
H17A H 1.125(3) -0.335(3) 0.524(4)
H1A H 1.255(3) -0.178(3) 0.379(3)
H27A H 0.9165(3) -0.0830(2) 0.1173(3)
H28A H 0.8846(3) -0.1138(2) 0.2618(3)
F1A F 0.44125(19) 0.49973(17) -0.34473(19)
F2A F 0.5750(2) 0.37712(18) -0.3338(2)
F3A F 0.6307(2) 0.5545(2) -0.41978(19)
S1A S 0.51196(5) 0.49010(5) -0.17776(6)
O5A O 0.41187(17) 0.40645(15) -0.09256(19)
O6A O 0.4784(2) 0.60546(16) -0.1855(2)
O7A O 0.62876(18) 0.46331(19) -0.1740(2)
C31A C 0.5424(3) 0.4809(2) -0.3271(3)
Ag1A Ag 0.333717(18) 0.662125(17) -0.00251(2)
Ag1A_2 Ag 1.333717(18) -0.337875(17) -0.00251(2)
C21A_2 C 0.1676(2) 0.51617(19) 0.0869(2)
C29A_2 C 0.4829(2) 0.8058(2) -0.0481(3)
H13A_2 H 0.226(3) 0.459(3) 0.092(3)
H20A_2 H 0.540(3) 0.750(3) -0.048(3)
Cl1 Cl 0.23015(13) 0.03762(13) 0.47526(14)
Cl2 Cl 0.24674(12) 0.2745(1) 0.34048(18)
Cl3 Cl 0.07755(15) 0.12381(15) 0.35061(15)
C32 C 0.1477(3) 0.1527(2) 0.4329(3)
Cl4? Cl 0.2619(4) 0.2387(5) 0.4237(6)
Cl5? Cl 0.1395(6) 0.1932(5) 0.3007(4)
Cl6? Cl 0.1761(7) 0.0083(5) 0.4832(6)
C35? C 0.9852(16) 0.0092(15) -0.1543(15)
C36? C 0.8878(17) -0.0220(15) 0.1813(16)
loop_
_geom_bond_atom_site_label_1
_geom_bond_atom_site_label_2
_geom_bond_site_symmetry_1
_geom_bond_site_symmetry_2
Ag1 O6 1_555 1_555
Cl1 C32 1_555 1_555
Cl2 C32 1_555 1_555
Cl3 C32 1_555 1_555
F1 C31 1_555 1_555
F2 C31 1_555 1_555
F3 C31 1_555 1_555
S1 O5 1_555 1_555
O1 C4 1_555 1_555
O2 C18 1_555 1_555
O3 C6 1_555 1_555
O4 C20 1_555 1_555
O6 S1 1_555 1_555
O7 S1 1_555 1_555
C1 C10 1_555 1_555
C2 C4 1_555 1_555
C3 C12 1_555 1_555
C4 C7 1_555 1_555
C5 C6 1_555 1_555
C6 C9 1_555 1_555
C7 C11 1_555 1_555
C8 C23 1_555 1_555
C9 C15 1_555 1_555
C10 C13 1_555 1_555
C11 C22 1_555 1_555
C12 C18 1_555 1_555
C13 C5 1_555 1_555
C14 C2 1_555 1_555
C15 C29 1_555 1_555
C16 C7 1_555 1_555
C17 C5 1_555 1_555
C18 C22 1_555 1_555
C19 C22 1_555 1_555
C20 C10 1_555 1_555
C21 Ag1 1_555 1_555
C23 C20 1_555 1_555
C24 C3 1_555 1_555
C25 C9 1_555 1_555
C26 C1 1_555 1_555
C27 O1 1_555 1_555
C28 C2 1_555 1_555
C29 Ag1 1_555 1_555
C30 O3 1_555 1_555
C31 S1 1_555 1_555
C33 O2 1_555 1_555
C34 O4 1_555 1_555
H1 C1 1_555 1_555
H2 C3 1_555 1_555
H3 C8 1_555 1_555
H4 C11 1_555 1_555
H5 C11 1_555 1_555
H6 C13 1_555 1_555
H7 C13 1_555 1_555
H8 C14 1_555 1_555
H9 C15 1_555 1_555
H10 C16 1_555 1_555
H11 C17 1_555 1_555
H12 C19 1_555 1_555
H13 C21 1_555 1_555
H14 C24 1_555 1_555
H15 C25 1_555 1_555
H16 C25 1_555 1_555
H17 C26 1_555 1_555
H18 C28 1_555 1_555
H19 C28 1_555 1_555
H20 C29 1_555 1_555
H21 C27 1_555 1_555
H22 C27 1_555 1_555
H23 C30 1_555 1_555
H24 C30 1_555 1_555
H25 C33 1_555 1_555
H26 C33 1_555 1_555
H27 C34 1_555 1_555
H28 C34 1_555 1_555
C34A C33 1_555 1_555
O4A C34A 1_555 1_555
C20A O4A 1_555 1_555
C10A C20A 1_555 1_555
C1A C10A 1_555 1_555
C26A C1A 1_555 1_555
C8A C26A 1_555 1_555
C23A C20A 1_555 1_555
C28A C23A 1_555 1_555
C2A C28A 1_555 1_555
C4A C2A 1_555 1_555
O1A C4A 1_555 1_555
C27A C30 1_555 1_555
C33A C34 1_555 1_555
O2A C33A 1_555 1_555
C18A O2A 1_555 1_555
C12A C18A 1_555 1_555
C3A C12A 1_555 1_555
C24A C3A 1_555 1_555
C19A C24A 1_555 1_555
C22A C18A 1_555 1_555
C11A C22A 1_555 1_555
C7A C4A 1_555 1_555
C16A C7A 1_555 1_555
C21A C16A 1_555 1_555
C14A C2A 1_555 1_555
H8A C14A 1_555 1_555
H13A C21A 1_555 1_555
H10A C16A 1_555 1_555
H4A C11A 1_555 1_555
H5A C11A 1_555 1_555
H12A C19A 1_555 1_555
H14A C24A 1_555 1_555
H2A C3A 1_555 1_555
C25A C12A 1_555 1_555
C9A C25A 1_555 1_555
C6A C9A 1_555 1_555
O3A C6A 1_555 1_555
C30A C27 1_555 1_555
H23A C30A 1_555 1_555
H24A C30A 1_555 1_555
C5A C6A 1_555 1_555
C13A C10A 1_555 1_555
H6A C13A 1_555 1_555
H7A C13A 1_555 1_555
C17A C5A 1_555 1_555
C29A C17A 1_555 1_555
C15A C9A 1_555 1_555
H9A C15A 1_555 1_555
H20A C29A 1_555 1_555
H11A C17A 1_555 1_555
H15A C25A 1_555 1_555
H16A C25A 1_555 1_555
H25A C33A 1_555 1_555
H26A C33A 1_555 1_555
H21A C27A 1_555 1_555
H22A C27A 1_555 1_555
H18A C28A 1_555 1_555
H19A C28A 1_555 1_555
H3A C8A 1_555 1_555
H17A C26A 1_555 1_555
H1A C1A 1_555 1_555
H27A C34A 1_555 1_555
H28A C34A 1_555 1_555
F1A C31A 1_555 1_555
F2A C31A 1_555 1_555
F3A C31A 1_555 1_555
S1A O5A 1_555 1_555
O6A S1A 1_555 1_555
O7A Ag1 1_555 1_555
C31A S1A 1_555 1_555
Ag1A O7 1_555 1_555
Ag1A_2 C21A 1_555 1_555
C21A_2 Ag1A 1_555 1_555
C29A_2 Ag1A 1_555 1_555
H13A_2 C21A_2 1_555 1_555
H20A_2 C29A_2 1_555 1_555
C8 C26 1_555 1_555
C12 C25 1_555 1_555
C14 C21 1_555 1_555
C16 C21 1_555 1_555
C17 C29 1_555 1_555
C19 C24 1_555 1_555
C23 C28 1_555 1_555
C8A C23A 1_555 1_555
O1A C27A 1_555 1_555
C19A C22A 1_555 1_555
C11A C7A 1_555 1_555
C21A C14A 1_555 1_555
O3A C30A 1_555 1_555
C5A C13A 1_555 1_555
C29A C15A 1_555 1_555
C29A Ag1A_2 1_555 1_555
S1A O7A 1_555 1_555
O6A Ag1A 1_555 1_555

#END
