
#######################################################################
#
#                 Cambridge Crystallographic Data Centre
#                                CCDC 
#
#######################################################################
#
# If this CIF has been generated from an entry in the Cambridge 
# Structural Database, then it will include bibliographic, chemical, 
# crystal, experimental, refinement or atomic coordinate data resulting 
# from the CCDC's data processing and validation procedures.
#
#######################################################################

data_AHUPIE
_symmetry_cell_setting           triclinic
_symmetry_space_group_name_H-M   'P -1'
_symmetry_Int_Tables_number      2
_space_group_name_Hall           '-P 1'
loop_
_symmetry_equiv_pos_site_id
_symmetry_equiv_pos_as_xyz
1 x,y,z
2 -x,-y,-z
_cell_length_a                   12.012(2)
_cell_length_b                   13.716(3)
_cell_length_c                   14.273(2)
_cell_angle_alpha                63.277(10)
_cell_angle_beta                 73.805(12)
_cell_angle_gamma                72.054(11)
_cell_volume                     1970.77
loop_
_atom_site_label
_atom_site_type_symbol
_atom_site_fract_x
_atom_site_fract_y
_atom_site_fract_z
Mn1 Mn 0.61768(4) 0.43623(4) 0.44158(3)
Mn2 Mn 0.98347(4) 0.52752(4) 0.10527(3)
O1 O 0.59030(18) 0.51583(17) 0.53097(16)
O2 O 0.6102(2) 0.29724(18) 0.55303(17)
O3 O 0.93321(18) 0.42324(17) 0.07861(16)
O4 O 0.85203(19) 0.64628(18) 0.06460(17)
O5 O 0.80439(19) 0.40566(19) 0.43187(17)
O6 O 0.89479(19) 0.46509(19) 0.26404(16)
N1 N 0.6118(2) 0.5813(2) 0.3156(2)
N2 N 0.6224(2) 0.3812(2) 0.3334(2)
N3 N 1.1370(2) 0.4191(2) 0.1334(2)
N4 N 1.0683(2) 0.6245(2) 0.1163(2)
C1 C 0.6481(2) 0.5981(2) 0.5026(2)
C2 C 0.6815(3) 0.6113(2) 0.5820(2)
C3 C 0.7388(3) 0.6951(3) 0.5564(3)
C4 C 0.7641(3) 0.7699(3) 0.4512(3)
C5 C 0.7296(3) 0.7590(3) 0.3726(2)
C6 C 0.6734(2) 0.6732(2) 0.3962(2)
C7 C 0.6389(2) 0.6670(2) 0.3092(2)
C8 C 0.5729(3) 0.5804(2) 0.2268(2)
C9 C 0.6313(3) 0.4659(2) 0.2233(2)
C10 C 0.6245(2) 0.2793(2) 0.3523(2)
C11 C 0.6219(3) 0.1888(2) 0.4543(2)
C12 C 0.6262(3) 0.0822(3) 0.4597(3)
C13 C 0.6216(4) -0.0082(3) 0.5549(3)
C14 C 0.6105(3) 0.0047(3) 0.6484(3)
C15 C 0.6071(3) 0.1072(3) 0.6471(2)
C16 C 0.6138(2) 0.2010(2) 0.5498(2)
C17 C 0.9565(2) 0.3119(2) 0.1375(2)
C18 C 0.8759(2) 0.2500(2) 0.1514(2)
C19 C 0.9013(3) 0.1340(2) 0.2039(2)
C20 C 1.0075(3) 0.0777(2) 0.2426(2)
C21 C 1.0873(3) 0.1378(3) 0.2304(2)
C22 C 1.0628(2) 0.2552(2) 0.1798(2)
C23 C 1.1526(2) 0.3130(2) 0.1644(2)
C24 C 1.2356(2) 0.4744(2) 0.1086(2)
C25 C 1.1874(2) 0.5685(2) 0.1461(2)
C26 C 1.0269(3) 0.7280(2) 0.1031(2)
C27 C 0.9129(3) 0.7924(2) 0.0760(2)
C28 C 0.8824(3) 0.9034(3) 0.0681(3)
C29 C 0.7762(3) 0.9722(3) 0.0400(3)
C30 C 0.6988(3) 0.9317(3) 0.0166(3)
C31 C 0.7256(3) 0.8233(2) 0.0240(2)
C32 C 0.8323(2) 0.7502(2) 0.0560(2)
C33 C 0.8807(2) 0.4551(2) 0.3579(2)
C34 C 0.9563(2) 0.5023(2) 0.3860(2)
C35 C 0.9622(2) 0.4783(2) 0.4861(2)
H1 H 0.6645 0.5620 0.6542
H2 H 0.7616 0.7021 0.6113
H3 H 0.8041 0.8271 0.4343
H4 H 0.7444 0.8106 0.3010
H5 H 0.6365 0.7307 0.2438
H6 H 0.5981 0.6404 0.1591
H7 H 0.4854 0.5919 0.2390
H8 H 0.5908 0.4511 0.1810
H9 H 0.7157 0.4637 0.1897
H10 H 0.6281 0.2633 0.2932
H11 H 0.6324 0.0732 0.3962
H12 H 0.6260 -0.0795 0.5570
H13 H 0.6051 -0.0578 0.7145
H14 H 0.6002 0.1143 0.7119
H15 H 0.8032 0.2870 0.1250
H16 H 0.8455 0.0928 0.2132
H17 H 1.0249 -0.0015 0.2772
H18 H 1.1601 0.0994 0.2565
H19 H 1.2293 0.2692 0.1783
H20 H 1.2651 0.5040 0.0311
H21 H 1.3019 0.4207 0.1455
H22 H 1.1819 0.5387 0.2243
H23 H 1.2405 0.6221 0.1124
H24 H 1.0763 0.7644 0.1122
H25 H 0.9364 0.9311 0.0824
H26 H 0.7557 1.0462 0.0366
H27 H 0.6261 0.9797 -0.0050
H28 H 0.6714 0.7978 0.0073
H29 H 1.0024 0.5518 0.3301
H30 H 0.9144 0.4303 0.5419
O5A O 1.19561(19) 0.59434(19) 0.56813(17)
O6A O 1.10521(19) 0.53491(19) 0.73596(16)
C33A C 1.1193(2) 0.5449(2) 0.6421(2)
C34A C 1.0437(2) 0.4977(2) 0.6140(2)
C35A C 1.0378(2) 0.5217(2) 0.5139(2)
H29A H 0.9976 0.4482 0.6699
H30A H 1.0856 0.5697 0.4581
Mn1A Mn 0.38232(4) 0.56377(4) 0.55842(3)
O1A O 0.40970(18) 0.48417(17) 0.46903(16)
O2A O 0.3898(2) 0.70276(18) 0.44697(17)
N1A N 0.3882(2) 0.4187(2) 0.6844(2)
N2A N 0.3776(2) 0.6188(2) 0.6666(2)
C1A C 0.3519(2) 0.4019(2) 0.4974(2)
C2A C 0.3185(3) 0.3887(2) 0.4180(2)
C3A C 0.2612(3) 0.3049(3) 0.4436(3)
C4A C 0.2359(3) 0.2301(3) 0.5488(3)
C5A C 0.2704(3) 0.2410(3) 0.6274(2)
C6A C 0.3266(2) 0.3268(2) 0.6038(2)
C7A C 0.3611(2) 0.3330(2) 0.6908(2)
C8A C 0.4271(3) 0.4196(2) 0.7732(2)
C9A C 0.3687(3) 0.5341(2) 0.7767(2)
C10A C 0.3755(2) 0.7207(2) 0.6477(2)
C11A C 0.3781(3) 0.8112(2) 0.5457(2)
C12A C 0.3738(3) 0.9178(3) 0.5403(3)
C13A C 0.3784(4) 1.0082(3) 0.4451(3)
C14A C 0.3895(3) 0.9953(3) 0.3516(3)
C15A C 0.3929(3) 0.8928(3) 0.3529(2)
C16A C 0.3862(2) 0.7990(2) 0.4502(2)
H1A H 0.3355 0.4380 0.3458
H2A H 0.2384 0.2979 0.3887
H3A H 0.1959 0.1729 0.5657
H4A H 0.2556 0.1894 0.6990
H5A H 0.3635 0.2693 0.7562
H6A H 0.4019 0.3596 0.8409
H7A H 0.5146 0.4081 0.7610
H8A H 0.4092 0.5489 0.8190
H9A H 0.2843 0.5363 0.8103
H10A H 0.3719 0.7367 0.7068
H11A H 0.3676 0.9268 0.6038
H12A H 0.3740 1.0795 0.4430
H13A H 0.3949 1.0578 0.2855
H14A H 0.3998 0.8857 0.2881
Mn2A Mn 1.01653(4) 0.47248(4) -0.10527(3)
O3A O 1.06679(18) 0.57676(17) -0.07861(16)
O4A O 1.14797(19) 0.35372(18) -0.06460(17)
N3A N 0.8630(2) 0.5809(2) -0.1334(2)
N4A N 0.9317(2) 0.3755(2) -0.1163(2)
C17A C 1.0435(2) 0.6881(2) -0.1375(2)
C18A C 1.1241(2) 0.7500(2) -0.1514(2)
C19A C 1.0987(3) 0.8660(2) -0.2039(2)
C20A C 0.9925(3) 0.9223(2) -0.2426(2)
C21A C 0.9127(3) 0.8622(3) -0.2304(2)
C22A C 0.9372(2) 0.7448(2) -0.1798(2)
C23A C 0.8474(2) 0.6870(2) -0.1644(2)
C24A C 0.7644(2) 0.5256(2) -0.1086(2)
C25A C 0.8126(2) 0.4315(2) -0.1461(2)
C26A C 0.9731(3) 0.2720(2) -0.1031(2)
C27A C 1.0871(3) 0.2076(2) -0.0760(2)
C28A C 1.1176(3) 0.0966(3) -0.0681(3)
C29A C 1.2238(3) 0.0278(3) -0.0400(3)
C30A C 1.3012(3) 0.0683(3) -0.0166(3)
C31A C 1.2744(3) 0.1767(2) -0.0240(2)
C32A C 1.1677(2) 0.2498(2) -0.0560(2)
H15A H 1.1968 0.7130 -0.1250
H16A H 1.1545 0.9072 -0.2132
H17A H 0.9751 1.0015 -0.2772
H18A H 0.8399 0.9006 -0.2565
H19A H 0.7707 0.7308 -0.1783
H20A H 0.7349 0.4960 -0.0311
H21A H 0.6981 0.5793 -0.1455
H22A H 0.8181 0.4613 -0.2243
H23A H 0.7595 0.3779 -0.1124
H24A H 0.9237 0.2356 -0.1122
H25A H 1.0636 0.0689 -0.0824
H26A H 1.2443 -0.0462 -0.0366
H27A H 1.3739 0.0203 0.0050
H28A H 1.3286 0.2022 -0.0073
Mn1A_2 Mn 1.38232(4) 0.56377(4) 0.55842(3)
Mn2A_2 Mn 1.01653(4) 0.47248(4) 0.89473(3)
O5A_2 O 0.19561(19) 0.59434(19) 0.56813(17)
O6A_2 O 1.10521(19) 0.53491(19) -0.26404(16)
P1 P 1.54417(8) 0.24574(7) 0.08860(7)
F1 F 1.4477(2) 0.24970(19) 0.19180(17)
F2 F 1.5833(2) 0.3496(2) 0.0826(2)
F3 F 1.6370(2) 0.1623(2) 0.1660(2)
F4 F 1.6390(2) 0.2427(2) -0.0124(2)
F5 F 1.5041(2) 0.14171(19) 0.0975(2)
F6 F 1.4470(2) 0.3295(2) 0.01491(18)
O7 O 0.0732(3) 0.8047(2) 0.4475(2)
C36 C 0.0142(7) 0.8472(5) 0.5213(4)
H31 H -0.0461 0.9140 0.4905
H32 H 0.0700 0.8675 0.5447
H33 H -0.0248 0.7913 0.5827
O8 O 0.1085(3) 0.7614(3) 0.2697(2)
C37 C 0.2279(5) 0.7672(6) 0.2499(4)
H34 H 0.2638 0.7157 0.3135
H35 H 0.2332 0.8433 0.2322
H36 H 0.2702 0.7455 0.1903
loop_
_geom_bond_atom_site_label_1
_geom_bond_atom_site_label_2
_geom_bond_site_symmetry_1
_geom_bond_site_symmetry_2
Mn1 O1 1_555 1_555
Mn2 O3 1_555 1_555
O1 C1 1_555 1_555
O2 Mn1 1_555 1_555
O3 C17 1_555 1_555
O4 Mn2 1_555 1_555
O5 Mn1 1_555 1_555
O6 Mn2 1_555 1_555
N1 Mn1 1_555 1_555
N2 Mn1 1_555 1_555
N3 Mn2 1_555 1_555
N4 Mn2 1_555 1_555
C1 C2 1_555 1_555
C2 C3 1_555 1_555
C3 C4 1_555 1_555
C4 C5 1_555 1_555
C5 C6 1_555 1_555
C6 C1 1_555 1_555
C7 N1 1_555 1_555
C8 N1 1_555 1_555
C9 N2 1_555 1_555
C10 N2 1_555 1_555
C11 C10 1_555 1_555
C12 C11 1_555 1_555
C13 C12 1_555 1_555
C14 C13 1_555 1_555
C15 C14 1_555 1_555
C16 O2 1_555 1_555
C17 C18 1_555 1_555
C18 C19 1_555 1_555
C19 C20 1_555 1_555
C20 C21 1_555 1_555
C21 C22 1_555 1_555
C22 C17 1_555 1_555
C23 N3 1_555 1_555
C24 N3 1_555 1_555
C25 N4 1_555 1_555
C26 N4 1_555 1_555
C27 C26 1_555 1_555
C28 C27 1_555 1_555
C29 C28 1_555 1_555
C30 C29 1_555 1_555
C31 C30 1_555 1_555
C32 O4 1_555 1_555
C33 O5 1_555 1_555
C34 C33 1_555 1_555
C35 C34 1_555 1_555
H1 C2 1_555 1_555
H2 C3 1_555 1_555
H3 C4 1_555 1_555
H4 C5 1_555 1_555
H5 C7 1_555 1_555
H6 C8 1_555 1_555
H7 C8 1_555 1_555
H8 C9 1_555 1_555
H9 C9 1_555 1_555
H10 C10 1_555 1_555
H11 C12 1_555 1_555
H12 C13 1_555 1_555
H13 C14 1_555 1_555
H14 C15 1_555 1_555
H15 C18 1_555 1_555
H16 C19 1_555 1_555
H17 C20 1_555 1_555
H18 C21 1_555 1_555
H19 C23 1_555 1_555
H20 C24 1_555 1_555
H21 C24 1_555 1_555
H22 C25 1_555 1_555
H23 C25 1_555 1_555
H24 C26 1_555 1_555
H25 C28 1_555 1_555
H26 C29 1_555 1_555
H27 C30 1_555 1_555
H28 C31 1_555 1_555
H29 C34 1_555 1_555
H30 C35 1_555 1_555
P1 F1 1_555 1_555
F2 P1 1_555 1_555
F3 P1 1_555 1_555
F4 P1 1_555 1_555
F5 P1 1_555 1_555
F6 P1 1_555 1_555
O7 C36 1_555 1_555
C36 H31 1_555 1_555
H32 C36 1_555 1_555
H33 C36 1_555 1_555
O8 C37 1_555 1_555
C37 H34 1_555 1_555
H35 C37 1_555 1_555
H36 C37 1_555 1_555
O5A C33A 1_555 1_555
O6A C33A 1_555 1_555
C33A C34A 1_555 1_555
C34A C35A 1_555 1_555
C35A C35 1_555 1_555
H29A C34A 1_555 1_555
H30A C35A 1_555 1_555
Mn1A O1 1_555 1_555
O1A Mn1 1_555 1_555
O2A Mn1A 1_555 1_555
N1A Mn1A 1_555 1_555
N2A Mn1A 1_555 1_555
C1A O1A 1_555 1_555
C2A C1A 1_555 1_555
C3A C2A 1_555 1_555
C4A C3A 1_555 1_555
C5A C4A 1_555 1_555
C6A C1A 1_555 1_555
C7A N1A 1_555 1_555
C8A N1A 1_555 1_555
C9A N2A 1_555 1_555
C10A N2A 1_555 1_555
C11A C10A 1_555 1_555
C12A C11A 1_555 1_555
C13A C12A 1_555 1_555
C14A C13A 1_555 1_555
C15A C14A 1_555 1_555
C16A O2A 1_555 1_555
H1A C2A 1_555 1_555
H2A C3A 1_555 1_555
H3A C4A 1_555 1_555
H4A C5A 1_555 1_555
H5A C7A 1_555 1_555
H6A C8A 1_555 1_555
H7A C8A 1_555 1_555
H8A C9A 1_555 1_555
H9A C9A 1_555 1_555
H10A C10A 1_555 1_555
H11A C12A 1_555 1_555
H12A C13A 1_555 1_555
H13A C14A 1_555 1_555
H14A C15A 1_555 1_555
Mn2A O3 1_555 1_555
O3A Mn2 1_555 1_555
O4A Mn2A 1_555 1_555
N3A Mn2A 1_555 1_555
N4A Mn2A 1_555 1_555
C17A O3A 1_555 1_555
C18A C17A 1_555 1_555
C19A C18A 1_555 1_555
C20A C19A 1_555 1_555
C21A C20A 1_555 1_555
C22A C17A 1_555 1_555
C23A N3A 1_555 1_555
C24A N3A 1_555 1_555
C25A N4A 1_555 1_555
C26A N4A 1_555 1_555
C27A C26A 1_555 1_555
C28A C27A 1_555 1_555
C29A C28A 1_555 1_555
C30A C29A 1_555 1_555
C31A C30A 1_555 1_555
C32A O4A 1_555 1_555
H15A C18A 1_555 1_555
H16A C19A 1_555 1_555
H17A C20A 1_555 1_555
H18A C21A 1_555 1_555
H19A C23A 1_555 1_555
H20A C24A 1_555 1_555
H21A C24A 1_555 1_555
H22A C25A 1_555 1_555
H23A C25A 1_555 1_555
H24A C26A 1_555 1_555
H25A C28A 1_555 1_555
H26A C29A 1_555 1_555
H27A C30A 1_555 1_555
H28A C31A 1_555 1_555
Mn1A_2 O5A 1_555 1_555
Mn2A_2 O6A 1_555 1_555
O5A_2 Mn1A 1_555 1_555
O6A_2 Mn2A 1_555 1_555
O6 C33 1_555 1_555
C6 C7 1_555 1_555
C8 C9 1_555 1_555
C11 C16 1_555 1_555
C15 C16 1_555 1_555
C22 C23 1_555 1_555
C24 C25 1_555 1_555
C27 C32 1_555 1_555
C31 C32 1_555 1_555
Mn1A O1A 1_555 1_555
C5A C6A 1_555 1_555
C6A C7A 1_555 1_555
C8A C9A 1_555 1_555
C11A C16A 1_555 1_555
C15A C16A 1_555 1_555
Mn2A O3A 1_555 1_555
C21A C22A 1_555 1_555
C22A C23A 1_555 1_555
C24A C25A 1_555 1_555
C27A C32A 1_555 1_555
C31A C32A 1_555 1_555

#END
