
#######################################################################
#
#                 Cambridge Crystallographic Data Centre
#                                CCDC 
#
#######################################################################
#
# If this CIF has been generated from an entry in the Cambridge 
# Structural Database, then it will include bibliographic, chemical, 
# crystal, experimental, refinement or atomic coordinate data resulting 
# from the CCDC's data processing and validation procedures.
#
#######################################################################

data_AHUVIJ
_symmetry_cell_setting           monoclinic
_symmetry_space_group_name_H-M   'P 21/n'
_symmetry_Int_Tables_number      14
_space_group_name_Hall           '-P 2yn'
loop_
_symmetry_equiv_pos_site_id
_symmetry_equiv_pos_as_xyz
1 x,y,z
2 1/2-x,1/2+y,1/2-z
3 -x,-y,-z
4 1/2+x,1/2-y,1/2+z
_cell_length_a                   12.3033(11)
_cell_length_b                   13.6318(12)
_cell_length_c                   13.8891(12)
_cell_angle_alpha                90
_cell_angle_beta                 106.570(1)
_cell_angle_gamma                90
_cell_volume                     2232.69
loop_
_atom_site_label
_atom_site_type_symbol
_atom_site_fract_x
_atom_site_fract_y
_atom_site_fract_z
Co1 Co -0.01885(3) 0.95397(3) 0.18818(3)
O1 O -0.1347(2) 0.92483(17) 0.04969(16)
H1 H -0.1436 0.9535 -0.0049
H2 H -0.1191 0.8663 0.0412
O2 O -0.0009(2) 0.80798(16) 0.21185(17)
O3 O -0.0511(2) 0.74441(18) 0.05844(17)
O4 O 0.3766(2) 0.49313(18) 0.37192(17)
O5 O 0.3545(2) 0.4840(2) 0.21158(18)
N1 N -0.0906(2) 0.9644(2) 0.3097(2)
N2 N -0.0727(2) 1.1043(2) 0.1799(2)
C1 C -0.0947(3) 0.8942(3) 0.3751(3)
H3 H -0.0731 0.8309 0.3637
C2 C -0.1305(4) 0.9126(4) 0.4605(3)
H4 H -0.1313 0.8622 0.5054
C3 C -0.1640(4) 1.0044(4) 0.4773(3)
H5 H -0.1889 1.0167 0.5334
C4 C -0.1610(3) 1.0809(4) 0.4104(3)
C5 C -0.1918(4) 1.1796(4) 0.4221(4)
H6 H -0.2188 1.1959 0.4762
C6 C -0.1831(4) 1.2507(4) 0.3567(4)
H7 H -0.2042 1.3145 0.3667
C7 C -0.1417(3) 1.2297(3) 0.2718(3)
C8 C -0.1272(4) 1.2992(3) 0.2031(4)
H8 H -0.1433 1.3648 0.2109
C9 C -0.0894(4) 1.2704(3) 0.1245(3)
H9 H -0.0810 1.3162 0.0774
C10 C -0.0631(3) 1.1722(3) 0.1150(3)
H10 H -0.0378 1.1536 0.0607
C11 C -0.1124(3) 1.1315(2) 0.2576(3)
C12 C -0.1221(3) 1.0567(3) 0.3268(2)
C13 C -0.0098(3) 0.7372(2) 0.1504(2)
C14 C 0.0337(3) 0.6383(2) 0.1991(2)
C15 C 0.1658(3) 0.6390(2) 0.2464(2)
C16 C 0.1884(3) 0.5262(2) 0.2618(3)
H11 H 0.1628 0.5048 0.3191
C17 C 0.1116(3) 0.4797(3) 0.1667(4)
H12 H 0.0832 0.4169 0.1820
H13 H 0.1528 0.4694 0.1175
C18 C 0.0131(3) 0.5520(3) 0.1263(3)
H14 H 0.0115 0.5741 0.0595
H15 H -0.0587 0.5207 0.1228
C19 C -0.0223(6) 0.6184(5) 0.2822(5)
H16 H 0.0001 0.6681 0.3330
H17 H 0.0010 0.5553 0.3115
H18 H -0.1033 0.6194 0.2544
C20 C 0.2063(4) 0.6965(3) 0.3449(3)
H19 H 0.2876 0.6942 0.3688
H20 H 0.1749 0.6678 0.3942
H21 H 0.1819 0.7635 0.3336
C21 C 0.2233(3) 0.6822(3) 0.1728(3)
H22 H 0.2030 0.7501 0.1616
H23 H 0.1992 0.6473 0.1103
H24 H 0.3041 0.6765 0.1999
C22 C 0.3130(3) 0.4996(2) 0.2825(2)
Co1A Co 0.51885(3) 0.45397(3) 0.31182(3)
O4A O 0.1234(2) 0.99313(18) 0.12808(17)
O5A O 0.1455(2) 0.9840(2) 0.28842(18)
O6 O 0.6529(13) 0.0069(15) 0.0680(16)
H25 H 0.7158 -0.0164 0.0646
C23 C 0.622(3) 0.1219(19) 0.010(3)
H26 H 0.5855 0.1116 -0.0607
H27 H 0.6900 0.1589 0.0178
H28 H 0.5712 0.1574 0.0385
loop_
_geom_bond_atom_site_label_1
_geom_bond_atom_site_label_2
_geom_bond_site_symmetry_1
_geom_bond_site_symmetry_2
Co1 O1 1_555 1_555
O1 H1 1_555 1_555
H2 O1 1_555 1_555
O2 Co1 1_555 1_555
O3 C13 1_555 1_555
O4 C22 1_555 1_555
O5 C22 1_555 1_555
N1 Co1 1_555 1_555
N2 Co1 1_555 1_555
C1 N1 1_555 1_555
H3 C1 1_555 1_555
C2 C1 1_555 1_555
H4 C2 1_555 1_555
C3 C2 1_555 1_555
H5 C3 1_555 1_555
C4 C3 1_555 1_555
C5 C4 1_555 1_555
H6 C5 1_555 1_555
C6 C5 1_555 1_555
H7 C6 1_555 1_555
C7 C6 1_555 1_555
C8 C7 1_555 1_555
H8 C8 1_555 1_555
C9 C8 1_555 1_555
H9 C9 1_555 1_555
C10 N2 1_555 1_555
H10 C10 1_555 1_555
C11 N2 1_555 1_555
C12 N1 1_555 1_555
C13 O2 1_555 1_555
C14 C13 1_555 1_555
C15 C14 1_555 1_555
C16 C15 1_555 1_555
H11 C16 1_555 1_555
C17 C16 1_555 1_555
H12 C17 1_555 1_555
H13 C17 1_555 1_555
C18 C14 1_555 1_555
H14 C18 1_555 1_555
H15 C18 1_555 1_555
C19 C14 1_555 1_555
H16 C19 1_555 1_555
H17 C19 1_555 1_555
H18 C19 1_555 1_555
C20 C15 1_555 1_555
H19 C20 1_555 1_555
H20 C20 1_555 1_555
H21 C20 1_555 1_555
C21 C15 1_555 1_555
H22 C21 1_555 1_555
H23 C21 1_555 1_555
H24 C21 1_555 1_555
C22 C16 1_555 1_555
O6 H25 1_555 1_555
C23 O6 1_555 1_555
H26 C23 1_555 1_555
H27 C23 1_555 1_555
H28 C23 1_555 1_555
Co1A O4 1_555 1_555
O4A Co1 1_555 1_555
O5A Co1 1_555 1_555
O5 Co1A 1_555 1_555
C4 C12 1_555 1_555
C7 C11 1_555 1_555
C9 C10 1_555 1_555
C11 C12 1_555 1_555
C17 C18 1_555 1_555

#END
