
#######################################################################
#
#                 Cambridge Crystallographic Data Centre
#                                CCDC 
#
#######################################################################
#
# If this CIF has been generated from an entry in the Cambridge 
# Structural Database, then it will include bibliographic, chemical, 
# crystal, experimental, refinement or atomic coordinate data resulting 
# from the CCDC's data processing and validation procedures.
#
#######################################################################

data_AHUVEF
_symmetry_cell_setting           monoclinic
_symmetry_space_group_name_H-M   'P 21/c'
_symmetry_Int_Tables_number      14
_space_group_name_Hall           '-P 2ybc'
loop_
_symmetry_equiv_pos_site_id
_symmetry_equiv_pos_as_xyz
1 x,y,z
2 -x,1/2+y,1/2-z
3 -x,-y,-z
4 x,1/2-y,1/2+z
_cell_length_a                   11.2687(6)
_cell_length_b                   7.3511(4)
_cell_length_c                   11.8506(7)
_cell_angle_alpha                90
_cell_angle_beta                 95.070(2)
_cell_angle_gamma                90
_cell_volume                     977.831
loop_
_atom_site_label
_atom_site_type_symbol
_atom_site_fract_x
_atom_site_fract_y
_atom_site_fract_z
Cu1 Cu 0.5000 0.0000 0.5000
Cu2 Cu 1.0000 0.5000 0.5000
N1 N 0.86056(17) 0.3485(3) 0.52855(18)
N2 N 0.65461(17) 0.1445(3) 0.51367(18)
O1 O 1.02440(15) 0.3076(2) 0.38949(16)
O2 O 0.9680(2) 0.0210(3) 0.3399(2)
O3 O 0.48220(18) 0.0400(3) 0.69580(17)
O4 O 0.85898(16) 0.6864(3) 0.38126(17)
O5 O 0.80094(18) 0.4691(3) 0.23487(18)
O6 O 0.66194(16) 0.5526(3) 0.36855(16)
O7 O 0.71321(17) 0.7707(3) 0.23089(17)
S1 S 0.75995(5) 0.61748(8) 0.30303(5)
C1 C 0.9530(2) 0.1765(3) 0.3920(2)
C2 C 0.8484(2) 0.2027(3) 0.4597(2)
C3 C 0.7459(2) 0.1000(4) 0.4524(2)
H1 H 0.7394 -0.0008 0.4049
C4 C 0.6686(2) 0.2867(4) 0.5824(2)
H2 H 0.6073 0.3184 0.6263
C5 C 0.7725(2) 0.3899(4) 0.5906(2)
H3 H 0.7800 0.4884 0.6400
O8 O 0.41113(16) 0.2286(3) 0.47065(16)
H4 H 0.532(3) 0.008(5) 0.750(2)
H5 H 0.432(2) 0.114(4) 0.719(2)
H6 H 0.384(3) 0.294(4) 0.5212(18)
H7 H 0.365(2) 0.233(5) 0.4104(15)
Cu2_2 Cu 0.0000 -0.5000 0.5000
N1B N 0.13944(17) -0.3485(3) 0.47145(18)
N1B_2 N 1.13944(17) 0.6515(3) 0.47145(18)
N2B N 0.34539(17) -0.1445(3) 0.48633(18)
O1B O -0.02440(15) -0.3076(2) 0.61051(16)
O1B_2 O 0.97560(15) 0.6924(2) 0.61051(16)
O2B O 0.0320(2) -0.0210(3) 0.6601(2)
O3B O 0.51780(18) -0.0400(3) 0.30420(17)
O4B O 1.14102(16) 0.3136(3) 0.61874(17)
O5B O 1.19906(18) 0.5309(3) 0.76513(18)
O6B O 1.33806(16) 0.4474(3) 0.63145(16)
O7B O 1.28679(17) 0.2293(3) 0.76911(17)
S1B S 1.24005(5) 0.38252(8) 0.69697(5)
C1B C 0.0470(2) -0.1765(3) 0.6080(2)
C2B C 0.1516(2) -0.2027(3) 0.5403(2)
C3B C 0.2541(2) -0.1000(4) 0.5476(2)
H1B H 0.2606 0.0008 0.5951
C4B C 0.3314(2) -0.2867(4) 0.4176(2)
H2B H 0.3927 -0.3184 0.3737
C5B C 0.2275(2) -0.3899(4) 0.4094(2)
H3B H 0.2200 -0.4884 0.3600
O8B O 0.58887(16) -0.2286(3) 0.52935(16)
H4B H 0.468(3) -0.008(5) 0.250(2)
H5B H 0.568(2) -0.114(4) 0.281(2)
H6B H 0.616(3) -0.294(4) 0.4788(18)
H7B H 0.635(2) -0.233(5) 0.5896(15)
loop_
_geom_bond_atom_site_label_1
_geom_bond_atom_site_label_2
_geom_bond_site_symmetry_1
_geom_bond_site_symmetry_2
Cu1 N2 1_555 1_555
Cu2 N1 1_555 1_555
N1 C2 1_555 1_555
N2 C3 1_555 1_555
O1 Cu2 1_555 1_555
O2 C1 1_555 1_555
O3 Cu1 1_555 1_555
O4 Cu2 1_555 1_555
O5 S1 1_555 1_555
O6 S1 1_555 1_555
O7 S1 1_555 1_555
S1 O4 1_555 1_555
C1 O1 1_555 1_555
C2 C1 1_555 1_555
C3 C2 1_555 1_555
H1 C3 1_555 1_555
C4 N2 1_555 1_555
H2 C4 1_555 1_555
C5 N1 1_555 1_555
H3 C5 1_555 1_555
O8 Cu1 1_555 1_555
H4 O3 1_555 1_555
H5 O3 1_555 1_555
H6 O8 1_555 1_555
H7 O8 1_555 1_555
Cu2_2 N1B 1_555 1_555
N1B C2B 1_555 1_555
N1B_2 Cu2 1_555 1_555
N2B Cu1 1_555 1_555
O1B Cu2_2 1_555 1_555
O1B_2 Cu2 1_555 1_555
O2B C1B 1_555 1_555
O3B Cu1 1_555 1_555
O4B Cu2 1_555 1_555
O5B S1B 1_555 1_555
O6B S1B 1_555 1_555
O7B S1B 1_555 1_555
S1B O4B 1_555 1_555
C1B O1B 1_555 1_555
C2B C1B 1_555 1_555
C3B N2B 1_555 1_555
H1B C3B 1_555 1_555
C4B N2B 1_555 1_555
H2B C4B 1_555 1_555
C5B N1B 1_555 1_555
H3B C5B 1_555 1_555
O8B Cu1 1_555 1_555
H4B O3B 1_555 1_555
H5B O3B 1_555 1_555
H6B O8B 1_555 1_555
H7B O8B 1_555 1_555
C4 C5 1_555 1_555
C2B C3B 1_555 1_555
C4B C5B 1_555 1_555

#END
