
#######################################################################
#
#                 Cambridge Crystallographic Data Centre
#                                CCDC 
#
#######################################################################
#
# If this CIF has been generated from an entry in the Cambridge 
# Structural Database, then it will include bibliographic, chemical, 
# crystal, experimental, refinement or atomic coordinate data resulting 
# from the CCDC's data processing and validation procedures.
#
#######################################################################

data_AHUWIK
_symmetry_cell_setting           monoclinic
_symmetry_space_group_name_H-M   'P 21/c'
_symmetry_Int_Tables_number      14
_space_group_name_Hall           '-P 2ybc'
loop_
_symmetry_equiv_pos_site_id
_symmetry_equiv_pos_as_xyz
1 x,y,z
2 -x,1/2+y,1/2-z
3 -x,-y,-z
4 x,1/2-y,1/2+z
_cell_length_a                   17.8519(18)
_cell_length_b                   7.2514(8)
_cell_length_c                   20.725(2)
_cell_angle_alpha                90
_cell_angle_beta                 112.574(2)
_cell_angle_gamma                90
_cell_volume                     2477.33
loop_
_atom_site_label
_atom_site_type_symbol
_atom_site_fract_x
_atom_site_fract_y
_atom_site_fract_z
Ni1 Ni -0.24250(2) -1.59212(7) -0.06780(2)
Ni2 Ni -0.5000 -1.5000 0.0000
O1 O -0.44214(15) -1.7557(3) 0.02372(12)
H1 H -0.455(2) -1.824(4) 0.0508(14)
H2 H -0.445(2) -1.816(4) -0.0119(11)
O2 O -0.21128(19) -1.3227(4) -0.08070(15)
H3 H -0.2490(17) -1.265(4) -0.1111(14)
H4 H -0.184(2) -1.250(4) -0.0474(15)
O3 O -0.26506(18) -1.8609(4) -0.04768(15)
H5 H -0.3085(11) -1.906(5) -0.0775(16)
H6 H -0.2262(13) -1.936(4) -0.040(2)
O4 O -0.20929(14) -1.6989(4) -0.25089(13)
O5 O -0.18349(13) -1.6677(4) -0.13688(12)
O6 O -0.59139(15) -1.4745(5) -0.35905(13)
O7 O -0.50324(15) -1.4882(4) -0.41032(11)
O8 O -0.33939(13) -1.5203(4) -0.04093(11)
O9 O -0.47327(13) -1.4701(3) -0.08789(10)
N1 N -0.33190(15) -1.5801(4) -0.16057(12)
N2 N -0.89624(17) -1.8682(4) -0.15671(14)
N3 N -0.97096(16) -1.9045(4) -0.20915(14)
N4 N -0.88679(16) -1.8112(4) -0.25639(13)
N5 N -0.8509(2) -1.7600(6) -0.30362(17)
H7 H -0.852(3) -1.851(5) -0.334(2)
H8 H -0.881(2) -1.664(4) -0.328(2)
N6 N -0.60726(15) -1.6267(4) -0.06644(13)
N7 N -1.15279(16) -1.9090(4) -0.47014(13)
C1 C -0.3170(2) -1.6095(5) -0.21783(16)
C2 C -0.3774(2) -1.5830(5) -0.28295(16)
H9 H -0.3668 -1.6000 -0.3231
C3 C -0.4547(2) -1.5303(5) -0.28786(16)
C4 C -0.4684(2) -1.5062(5) -0.22678(15)
H10 H -0.5197 -1.4743 -0.2288
C5 C -0.4054(2) -1.5301(5) -0.16353(16)
C6 C -0.2291(2) -1.6646(5) -0.20199(19)
C7 C -0.5224(2) -1.4958(5) -0.35840(17)
C8 C -0.4062(2) -1.5043(5) -0.09089(16)
C9 C -1.0775(2) -1.9625(6) -0.45898(18)
H11 H -1.0667 -2.0071 -0.4966
C10 C -1.1668(2) -1.8527(5) -0.41448(17)
H12 H -1.2195 -1.8207 -0.4207
C11 C -1.10750(19) -1.8392(5) -0.34832(17)
H13 H -1.1200 -1.7977 -0.3112
C12 C -1.02911(19) -1.8887(5) -0.33836(16)
C13 C -1.0151(2) -1.9550(6) -0.39480(18)
H14 H -0.9635 -1.9947 -0.3895
C14 C -0.96387(19) -1.8699(5) -0.26832(17)
C15 C -0.8473(2) -1.8124(5) -0.18610(16)
C16 C -0.76248(19) -1.7532(5) -0.14770(16)
C17 C -0.7145(2) -1.8447(5) -0.08728(16)
H15 H -0.7332 -1.9506 -0.0730
C18 C -0.6384(2) -1.7761(5) -0.04863(16)
H16 H -0.6069 -1.8375 -0.0078
C19 C -0.6531(2) -1.5428(5) -0.12582(16)
H17 H -0.6317 -1.4410 -0.1401
C20 C -0.73099(19) -1.5997(5) -0.16737(16)
H18 H -0.7614 -1.5353 -0.2078
Ni1B Ni -0.75750(2) -1.40788(7) 0.06780(2)
Ni1C Ni -1.24250(2) -1.90788(7) -0.56780(2)
Ni1A Ni 0.24250(2) -1.09212(7) 0.56780(2)
O1B O -0.55786(15) -1.2443(3) -0.02372(12)
H1B H -0.545(2) -1.176(4) -0.0508(14)
H2B H -0.555(2) -1.184(4) 0.0119(11)
O2B O -0.78872(19) -1.6773(4) 0.08070(15)
H3B H -0.7510(17) -1.735(4) 0.1111(14)
H4B H -0.816(2) -1.750(4) 0.0474(15)
O3B O -0.73494(18) -1.1391(4) 0.04768(15)
H5B H -0.6915(11) -1.094(5) 0.0775(16)
H6B H -0.7738(13) -1.064(4) 0.040(2)
O4B O -0.79071(14) -1.3011(4) 0.25089(13)
O5B O -0.81651(13) -1.3323(4) 0.13688(12)
O6B O -0.40861(15) -1.5255(5) 0.35905(13)
O7B O -0.49676(15) -1.5118(4) 0.41032(11)
O8B O -0.66061(13) -1.4797(4) 0.04093(11)
O9B O -0.52673(13) -1.5299(3) 0.08789(10)
N1B N -0.66810(15) -1.4199(4) 0.16057(12)
N2B N -0.10376(17) -1.1318(4) 0.15671(14)
N3B N -0.02904(16) -1.0955(4) 0.20915(14)
N4B N -0.11321(16) -1.1888(4) 0.25639(13)
N5B N -0.1491(2) -1.2400(6) 0.30362(17)
H7B H -0.148(3) -1.149(5) 0.334(2)
H8B H -0.119(2) -1.336(4) 0.328(2)
N6B N -0.39274(15) -1.3733(4) 0.06644(13)
N7B N 0.15279(16) -1.0910(4) 0.47014(13)
N7C N -0.15279(16) -1.5910(4) 0.02986(13)
N7A N -0.84721(16) -1.4090(4) -0.02986(13)
C1B C -0.6830(2) -1.3905(5) 0.21783(16)
C2B C -0.6226(2) -1.4170(5) 0.28295(16)
H9B H -0.6332 -1.4000 0.3231
C3B C -0.5453(2) -1.4697(5) 0.28786(16)
C4B C -0.5316(2) -1.4938(5) 0.22678(15)
H10B H -0.4803 -1.5257 0.2288
C5B C -0.5946(2) -1.4699(5) 0.16353(16)
C6B C -0.7709(2) -1.3354(5) 0.20199(19)
C7B C -0.4776(2) -1.5042(5) 0.35840(17)
C8B C -0.5938(2) -1.4957(5) 0.09089(16)
C9B C 0.0775(2) -1.0375(6) 0.45898(18)
H11B H 0.0667 -0.9929 0.4966
C10B C 0.1668(2) -1.1473(5) 0.41448(17)
H12B H 0.2195 -1.1793 0.4207
C11B C 0.10750(19) -1.1608(5) 0.34832(17)
H13B H 0.1200 -1.2023 0.3112
C12B C 0.02911(19) -1.1113(5) 0.33836(16)
C13B C 0.0151(2) -1.0450(6) 0.39480(18)
H14B H -0.0365 -1.0053 0.3895
C14B C -0.03613(19) -1.1301(5) 0.26832(17)
C15B C -0.1527(2) -1.1876(5) 0.18610(16)
C16B C -0.23752(19) -1.2468(5) 0.14770(16)
C17B C -0.2855(2) -1.1553(5) 0.08728(16)
H15B H -0.2668 -1.0494 0.0730
C18B C -0.3616(2) -1.2239(5) 0.04863(16)
H16B H -0.3931 -1.1625 0.0078
C19B C -0.3469(2) -1.4572(5) 0.12582(16)
H17B H -0.3683 -1.5590 0.1401
C20B C -0.26901(19) -1.4003(5) 0.16737(16)
H18B H -0.2386 -1.4647 0.2078
O10 O -0.8756(2) -1.9249(5) -0.01690(17)
H19 H -0.886(3) -1.910(8) -0.0597(9)
H20 H -0.9196(19) -1.934(10) -0.010(3)
O11 O -0.9399(2) -1.0672(5) 0.1148(2)
H21 H -0.909(3) -1.153(5) 0.112(2)
H22 H -0.955(3) -1.088(6) 0.1483(17)
O12 O -0.31461(19) -1.3583(5) 0.30729(16)
H23 H -0.3541 -1.4142 0.3131
H24 H -0.2677 -1.4085 0.3210
loop_
_geom_bond_atom_site_label_1
_geom_bond_atom_site_label_2
_geom_bond_site_symmetry_1
_geom_bond_site_symmetry_2
Ni1 O2 1_555 1_555
Ni2 O1 1_555 1_555
O1 H1 1_555 1_555
H2 O1 1_555 1_555
O2 H3 1_555 1_555
H4 O2 1_555 1_555
O3 Ni1 1_555 1_555
H5 O3 1_555 1_555
H6 O3 1_555 1_555
O4 C6 1_555 1_555
O5 Ni1 1_555 1_555
O6 C7 1_555 1_555
O7 C7 1_555 1_555
O8 Ni1 1_555 1_555
O9 Ni2 1_555 1_555
N1 Ni1 1_555 1_555
N2 N3 1_555 1_555
N3 C14 1_555 1_555
N4 N5 1_555 1_555
N5 H7 1_555 1_555
H8 N5 1_555 1_555
N6 Ni2 1_555 1_555
N7 C9 1_555 1_555
C1 N1 1_555 1_555
C2 C1 1_555 1_555
H9 C2 1_555 1_555
C3 C2 1_555 1_555
C4 C3 1_555 1_555
H10 C4 1_555 1_555
C5 N1 1_555 1_555
C6 O5 1_555 1_555
C7 C3 1_555 1_555
C8 O8 1_555 1_555
C9 H11 1_555 1_555
C10 N7 1_555 1_555
H12 C10 1_555 1_555
C11 C10 1_555 1_555
H13 C11 1_555 1_555
C12 C11 1_555 1_555
C13 C9 1_555 1_555
H14 C13 1_555 1_555
C14 N4 1_555 1_555
C15 N2 1_555 1_555
C16 C15 1_555 1_555
C17 C16 1_555 1_555
H15 C17 1_555 1_555
C18 N6 1_555 1_555
H16 C18 1_555 1_555
C19 N6 1_555 1_555
H17 C19 1_555 1_555
C20 C16 1_555 1_555
H18 C20 1_555 1_555
O10 H19 1_555 1_555
H20 O10 1_555 1_555
O11 H21 1_555 1_555
H22 O11 1_555 1_555
O12 H23 1_555 1_555
H24 O12 1_555 1_555
Ni1B O2B 1_555 1_555
Ni1C N7 1_555 1_555
Ni1A N7B 1_555 1_555
O1B Ni2 1_555 1_555
H1B O1B 1_555 1_555
H2B O1B 1_555 1_555
O2B H3B 1_555 1_555
H4B O2B 1_555 1_555
O3B Ni1B 1_555 1_555
H5B O3B 1_555 1_555
H6B O3B 1_555 1_555
O4B C6B 1_555 1_555
O5B Ni1B 1_555 1_555
O6B C7B 1_555 1_555
O7B C7B 1_555 1_555
O8B Ni1B 1_555 1_555
O9B Ni2 1_555 1_555
N1B Ni1B 1_555 1_555
N2B N3B 1_555 1_555
N3B C14B 1_555 1_555
N4B N5B 1_555 1_555
N5B H7B 1_555 1_555
H8B N5B 1_555 1_555
N6B Ni2 1_555 1_555
N7B C9B 1_555 1_555
N7C Ni1 1_555 1_555
N7A Ni1B 1_555 1_555
C1B N1B 1_555 1_555
C2B C1B 1_555 1_555
H9B C2B 1_555 1_555
C3B C2B 1_555 1_555
C4B C3B 1_555 1_555
H10B C4B 1_555 1_555
C5B N1B 1_555 1_555
C6B O5B 1_555 1_555
C7B C3B 1_555 1_555
C8B O8B 1_555 1_555
C9B H11B 1_555 1_555
C10B N7B 1_555 1_555
H12B C10B 1_555 1_555
C11B C10B 1_555 1_555
H13B C11B 1_555 1_555
C12B C11B 1_555 1_555
C13B C9B 1_555 1_555
H14B C13B 1_555 1_555
C14B N4B 1_555 1_555
C15B N2B 1_555 1_555
C16B C15B 1_555 1_555
C17B C16B 1_555 1_555
H15B C17B 1_555 1_555
C18B N6B 1_555 1_555
H16B C18B 1_555 1_555
C19B N6B 1_555 1_555
H17B C19B 1_555 1_555
C20B C16B 1_555 1_555
H18B C20B 1_555 1_555
O9 C8 1_555 1_555
N4 C15 1_555 1_555
C1 C6 1_555 1_555
C4 C5 1_555 1_555
C5 C8 1_555 1_555
C12 C13 1_555 1_555
C12 C14 1_555 1_555
C17 C18 1_555 1_555
C19 C20 1_555 1_555
O9B C8B 1_555 1_555
N4B C15B 1_555 1_555
C1B C6B 1_555 1_555
C4B C5B 1_555 1_555
C5B C8B 1_555 1_555
C12B C13B 1_555 1_555
C12B C14B 1_555 1_555
C17B C18B 1_555 1_555
C19B C20B 1_555 1_555

#END
