
#######################################################################
#
#                 Cambridge Crystallographic Data Centre
#                                CCDC 
#
#######################################################################
#
# If this CIF has been generated from an entry in the Cambridge 
# Structural Database, then it will include bibliographic, chemical, 
# crystal, experimental, refinement or atomic coordinate data resulting 
# from the CCDC's data processing and validation procedures.
#
#######################################################################

data_AHUWUW
_symmetry_cell_setting           triclinic
_symmetry_space_group_name_H-M   'P -1'
_symmetry_Int_Tables_number      2
_space_group_name_Hall           '-P 1'
loop_
_symmetry_equiv_pos_site_id
_symmetry_equiv_pos_as_xyz
1 x,y,z
2 -x,-y,-z
_cell_length_a                   8.0228(19)
_cell_length_b                   9.853(2)
_cell_length_c                   11.476(3)
_cell_angle_alpha                67.107(3)
_cell_angle_beta                 89.694(4)
_cell_angle_gamma                80.428(4)
_cell_volume                     822.312
loop_
_atom_site_label
_atom_site_type_symbol
_atom_site_fract_x
_atom_site_fract_y
_atom_site_fract_z
C1 C 0.2424(11) 0.6549(8) 0.9574(7)
C2 C 0.2906(9) 0.5701(8) 1.0832(6)
C3 C 0.3098(12) 0.5315(9) 1.2928(8)
H1 H 0.1903 0.5443 1.3082
H2 H 0.3696 0.5597 1.3507
C4 C 0.3727(13) 0.3768(11) 1.3155(8)
H3 H 0.4954 0.3638 1.3211
H4 H 0.3403 0.3176 1.3991
C5 C 0.2901(9) 0.4161(8) 1.1174(6)
C6 C 0.2404(9) 0.3839(8) 1.0147(6)
C7 C 0.2198(10) 0.2372(8) 1.0160(6)
C8 C 0.2333(9) 0.8180(8) 0.8900(7)
Eu1 Eu 0.22038(5) 0.12789(4) 0.76473(3)
N1 N 0.2019(9) 0.4528(7) 0.6068(6)
O3 O 0.3327(7) 0.6244(6) 1.1669(5)
O4 O 0.3314(7) 0.3120(6) 1.2376(5)
O5 O 0.1878(7) 0.2368(5) 0.9072(5)
O6 O 0.2270(8) 0.1270(7) 1.1192(5)
O7 O 0.2810(7) 0.8909(6) 0.9467(5)
O8 O 0.1732(7) 0.8817(6) 0.7757(5)
O9 O 0.0654(7) 0.4102(6) 0.6524(5)
O10 O 0.3297(6) 0.3512(6) 0.6268(5)
O11 O 0.2087(8) 0.5853(7) 0.5463(5)
O12 O 0.4185(8) 0.0353(6) 0.6427(6)
H9 H 0.3712 -0.0142 0.6102
H10 H 0.4566 0.1173 0.5767
O13 O 0.5075(7) 0.1116(6) 0.8460(6)
H11 H 0.5366 0.2098 0.8146
H12 H 0.5855 0.0474 0.8174
O14 O 0.0687(8) 0.1827(7) 0.5682(5)
H13 H 0.0156 0.1116 0.5776
H14 H -0.0035 0.2639 0.5458
O15 O -0.0659(7) 0.1149(6) 0.8249(6)
H15 H -0.0653 0.0717 0.9054
H16 H -0.1322 0.2143 0.7966
S1 S 0.1927(3) 0.5453(2) 0.87916(18)
Eu1_2 Eu 0.22038(5) 1.12789(4) 0.76473(3)
O7_2 O 0.2810(7) -0.1091(6) 0.9467(5)
O8_2 O 0.1732(7) -0.1183(6) 0.7757(5)
O1 O 0.6639(7) 0.1417(7) 0.4950(6)
H5 H 0.7554 0.0829 0.5314
H6 H 0.6689 0.2246 0.5003
O2 O 0.8893(7) 0.8911(6) 0.6388(5)
H7 H 0.8744 0.9085 0.7054
H8 H 0.9505 0.8046 0.6597
loop_
_geom_bond_atom_site_label_1
_geom_bond_atom_site_label_2
_geom_bond_site_symmetry_1
_geom_bond_site_symmetry_2
C1 C2 1_555 1_555
C2 C5 1_555 1_555
C3 H1 1_555 1_555
H2 C3 1_555 1_555
C4 C3 1_555 1_555
H3 C4 1_555 1_555
H4 C4 1_555 1_555
C5 C6 1_555 1_555
C6 C7 1_555 1_555
C7 O5 1_555 1_555
C8 C1 1_555 1_555
Eu1 O5 1_555 1_555
N1 O9 1_555 1_555
O1 H5 1_555 1_555
H6 O1 1_555 1_555
O2 H7 1_555 1_555
H8 O2 1_555 1_555
O3 C2 1_555 1_555
O4 C4 1_555 1_555
O6 C7 1_555 1_555
O7 C8 1_555 1_555
O8 C8 1_555 1_555
O9 Eu1 1_555 1_555
O10 Eu1 1_555 1_555
O11 N1 1_555 1_555
O12 Eu1 1_555 1_555
H9 O12 1_555 1_555
H10 O12 1_555 1_555
O13 Eu1 1_555 1_555
H11 O13 1_555 1_555
H12 O13 1_555 1_555
O14 Eu1 1_555 1_555
H13 O14 1_555 1_555
H14 O14 1_555 1_555
O15 Eu1 1_555 1_555
H15 O15 1_555 1_555
H16 O15 1_555 1_555
S1 C1 1_555 1_555
Eu1_2 O7 1_555 1_555
O7_2 Eu1 1_555 1_555
O8_2 Eu1 1_555 1_555
C3 O3 1_555 1_555
C5 O4 1_555 1_555
C6 S1 1_555 1_555
N1 O10 1_555 1_555
O8 Eu1_2 1_555 1_555

#END
