
#######################################################################
#
#                 Cambridge Crystallographic Data Centre
#                                CCDC 
#
#######################################################################
#
# If this CIF has been generated from an entry in the Cambridge 
# Structural Database, then it will include bibliographic, chemical, 
# crystal, experimental, refinement or atomic coordinate data resulting 
# from the CCDC's data processing and validation procedures.
#
#######################################################################

data_AHUYUZ
_symmetry_cell_setting           triclinic
_symmetry_space_group_name_H-M   'P -1'
_symmetry_Int_Tables_number      2
_space_group_name_Hall           '-P 1'
loop_
_symmetry_equiv_pos_site_id
_symmetry_equiv_pos_as_xyz
1 x,y,z
2 -x,-y,-z
_cell_length_a                   10.7428(7)
_cell_length_b                   11.9618(7)
_cell_length_c                   14.0140(9)
_cell_angle_alpha                72.356(5)
_cell_angle_beta                 72.063(5)
_cell_angle_gamma                88.360(5)
_cell_volume                     1628.55
loop_
_atom_site_label
_atom_site_type_symbol
_atom_site_fract_x
_atom_site_fract_y
_atom_site_fract_z
C1 C 0.2390(4) 0.7142(4) -0.0369(4)
C2 C 0.2491(4) 0.7397(4) 0.0516(4)
C3 C 0.3231(5) 0.8404(4) 0.0380(4)
H1 H 0.3340 0.8559 0.0977
C4 C 0.3816(5) 0.9189(5) -0.0630(4)
H2 H 0.4293 0.9884 -0.0706
C5 C 0.3714(5) 0.8978(5) -0.1501(4)
C6 C 0.3019(5) 0.7954(5) -0.1373(4)
H3 H 0.2965 0.7792 -0.1983
C7 C 0.2079(4) 0.6751(4) 0.2339(4)
C8 C 0.4347(6) 0.9832(6) -0.2602(4)
H4 H 0.4153 0.9535 -0.3125
H5 H 0.5299 0.9905 -0.2748
H6 H 0.3996 1.0604 -0.2642
C9 C -0.2443(5) 0.5675(4) 0.2581(4)
C10 C -0.3764(5) 0.5336(5) 0.3013(5)
H7 H -0.4050 0.4587 0.3525
C11 C -0.4674(6) 0.6077(6) 0.2709(6)
H8 H -0.5583 0.5842 0.3020
C12 C -0.4276(6) 0.7136(6) 0.1971(5)
H9 H -0.4907 0.7639 0.1758
C13 C -0.2965(6) 0.7491(6) 0.1525(5)
H10 H -0.2687 0.8243 0.1017
C14 C -0.2056(5) 0.6746(5) 0.1821(4)
H11 H -0.1147 0.6977 0.1493
C15 C -0.1914(4) 0.3301(4) 0.3747(3)
C16 C -0.1611(5) 0.2430(4) 0.3271(4)
H12 H -0.1095 0.2625 0.2550
C17 C -0.2056(5) 0.1282(5) 0.3839(4)
H13 H -0.1848 0.0685 0.3508
C18 C -0.2803(6) 0.0992(5) 0.4890(5)
H14 H -0.3105 0.0197 0.5282
C19 C -0.3107(5) 0.1857(5) 0.5366(4)
H15 H -0.3615 0.1658 0.6090
C20 C -0.2678(5) 0.3010(4) 0.4798(4)
H16 H -0.2906 0.3608 0.5126
C21 C -0.0943(5) 0.5405(4) 0.3987(4)
H17 H -0.0548 0.6220 0.3620
H18 H -0.1806 0.5445 0.4495
C22 C -0.0071(4) 0.4724(4) 0.4599(4)
H19 H -0.0451 0.3904 0.4964
H20 H 0.0807 0.4701 0.4101
C23 C 0.1639(5) 0.1847(4) 0.1787(4)
C24 C 0.1815(5) 0.0724(5) 0.2401(5)
H21 H 0.2333 0.0647 0.2855
C25 C 0.1251(6) -0.0266(5) 0.2357(5)
H22 H 0.1372 -0.1020 0.2785
C26 C 0.0511(6) -0.0170(6) 0.1693(6)
H23 H 0.0137 -0.0860 0.1657
C27 C 0.0310(5) 0.0914(6) 0.1081(5)
H24 H -0.0210 0.0972 0.0631
C28 C 0.0864(5) 0.1922(5) 0.1121(4)
H25 H 0.0723 0.2670 0.0697
C29 C 0.2702(5) 0.2756(4) 0.3063(4)
C30 C 0.1677(6) 0.2397(4) 0.4003(4)
H26 H 0.0804 0.2365 0.3983
C31 C 0.1896(7) 0.2083(5) 0.4979(5)
H27 H 0.1187 0.1835 0.5618
C32 C 0.3177(8) 0.2144(5) 0.4988(6)
H28 H 0.3350 0.1951 0.5642
C33 C 0.4201(7) 0.2481(6) 0.4063(6)
H29 H 0.5075 0.2496 0.4086
C34 C 0.3984(6) 0.2793(5) 0.3107(5)
H30 H 0.4703 0.3036 0.2474
C35 C 0.3853(5) 0.3584(4) 0.0729(4)
H31 H 0.4470 0.2967 0.0856
H32 H 0.3666 0.3598 0.0076
C36 C 0.4517(4) 0.4758(5) 0.0552(4)
H33 H 0.4987 0.4670 0.1075
H34 H 0.3842 0.5327 0.0667
N1 N 0.1893(4) 0.6587(4) 0.1526(3)
N2 N 0.2227(4) 0.6887(4) 0.3087(4)
P1 P -0.12076(12) 0.47880(11) 0.30125(10)
P2 P 0.23227(12) 0.31798(11) 0.18300(10)
S1 S 0.14894(13) 0.59080(12) -0.03342(10)
Hg1 Hg 0.08450(2) 0.48813(2) 0.157459(18)
C9A C 0.2443(5) 0.4325(4) 0.7419(4)
C10A C 0.3764(5) 0.4664(5) 0.6987(5)
H7A H 0.4050 0.5413 0.6475
C11A C 0.4674(6) 0.3923(6) 0.7291(6)
H8A H 0.5583 0.4158 0.6980
C12A C 0.4276(6) 0.2864(6) 0.8029(5)
H9A H 0.4907 0.2361 0.8242
C13A C 0.2965(6) 0.2509(6) 0.8475(5)
H10A H 0.2687 0.1757 0.8983
C14A C 0.2056(5) 0.3254(5) 0.8179(4)
H11A H 0.1147 0.3023 0.8507
C15A C 0.1914(4) 0.6699(4) 0.6253(3)
C16A C 0.1611(5) 0.7570(4) 0.6729(4)
H12A H 0.1095 0.7375 0.7450
C17A C 0.2056(5) 0.8718(5) 0.6161(4)
H13A H 0.1848 0.9315 0.6492
C18A C 0.2803(6) 0.9008(5) 0.5110(5)
H14A H 0.3105 0.9803 0.4718
C19A C 0.3107(5) 0.8143(5) 0.4634(4)
H15A H 0.3615 0.8342 0.3910
C20A C 0.2678(5) 0.6990(4) 0.5202(4)
H16A H 0.2906 0.6392 0.4874
C21A C 0.0943(5) 0.4595(4) 0.6013(4)
H17A H 0.0548 0.3780 0.6380
H18A H 0.1806 0.4555 0.5505
C22A C 0.0071(4) 0.5276(4) 0.5401(4)
H19A H 0.0451 0.6096 0.5036
H20A H -0.0807 0.5299 0.5899
P1A P 0.12076(12) 0.52120(11) 0.69875(10)
C23A C 0.8361(5) 0.8153(4) -0.1787(4)
C24A C 0.8185(5) 0.9276(5) -0.2401(5)
H21A H 0.7667 0.9353 -0.2855
C25A C 0.8749(6) 1.0266(5) -0.2357(5)
H22A H 0.8628 1.1020 -0.2785
C26A C 0.9489(6) 1.0170(6) -0.1693(6)
H23A H 0.9863 1.0860 -0.1657
C27A C 0.9690(5) 0.9086(6) -0.1081(5)
H24A H 1.0210 0.9028 -0.0631
C28A C 0.9136(5) 0.8078(5) -0.1121(4)
H25A H 0.9277 0.7330 -0.0697
C29A C 0.7298(5) 0.7244(4) -0.3063(4)
C30A C 0.8323(6) 0.7603(4) -0.4003(4)
H26A H 0.9196 0.7635 -0.3983
C31A C 0.8104(7) 0.7917(5) -0.4979(5)
H27A H 0.8813 0.8165 -0.5618
C32A C 0.6823(8) 0.7856(5) -0.4988(6)
H28A H 0.6650 0.8049 -0.5642
C33A C 0.5799(7) 0.7519(6) -0.4063(6)
H29A H 0.4925 0.7504 -0.4086
C34A C 0.6016(6) 0.7207(5) -0.3107(5)
H30A H 0.5297 0.6964 -0.2474
C35A C 0.6147(5) 0.6416(4) -0.0729(4)
H31A H 0.5530 0.7033 -0.0856
H32A H 0.6334 0.6402 -0.0076
C36A C 0.5483(4) 0.5242(5) -0.0552(4)
H33A H 0.5013 0.5330 -0.1075
H34A H 0.6158 0.4673 -0.0667
P2A P 0.76773(12) 0.68202(11) -0.18300(10)
C1A C -0.2390(4) 0.2858(4) 1.0369(4)
C2A C -0.2491(4) 0.2603(4) 0.9484(4)
C3A C -0.3231(5) 0.1596(4) 0.9620(4)
H1A H -0.3340 0.1441 0.9023
C4A C -0.3816(5) 0.0811(5) 1.0630(4)
H2A H -0.4293 0.0116 1.0706
C5A C -0.3714(5) 0.1022(5) 1.1501(4)
C6A C -0.3019(5) 0.2046(5) 1.1373(4)
H3A H -0.2965 0.2208 1.1983
C7A C -0.2079(4) 0.3249(4) 0.7661(4)
C8A C -0.4347(6) 0.0168(6) 1.2602(4)
H4A H -0.4153 0.0465 1.3125
H5A H -0.5299 0.0095 1.2748
H6A H -0.3996 -0.0604 1.2642
N1A N -0.1893(4) 0.3413(4) 0.8474(3)
N2A N -0.2227(4) 0.3113(4) 0.6913(4)
S1A S -0.14894(13) 0.40920(12) 1.03342(10)
Hg1A Hg -0.08450(2) 0.51187(2) 0.842541(18)
P2A_2 P -0.23227(12) 0.68202(11) 0.81700(10)
Hg1A_2 Hg 0.91550(2) 0.51187(2) -0.157459(18)
loop_
_geom_bond_atom_site_label_1
_geom_bond_atom_site_label_2
_geom_bond_site_symmetry_1
_geom_bond_site_symmetry_2
C1 C2 1_555 1_555
C2 C3 1_555 1_555
C3 H1 1_555 1_555
C4 C3 1_555 1_555
H2 C4 1_555 1_555
C5 C4 1_555 1_555
C6 C1 1_555 1_555
H3 C6 1_555 1_555
C7 N1 1_555 1_555
C8 C5 1_555 1_555
H4 C8 1_555 1_555
H5 C8 1_555 1_555
H6 C8 1_555 1_555
C9 C10 1_555 1_555
C10 H7 1_555 1_555
C11 C10 1_555 1_555
H8 C11 1_555 1_555
C12 C11 1_555 1_555
H9 C12 1_555 1_555
C13 C12 1_555 1_555
H10 C13 1_555 1_555
C14 C9 1_555 1_555
H11 C14 1_555 1_555
C15 C16 1_555 1_555
C16 H12 1_555 1_555
C17 C16 1_555 1_555
H13 C17 1_555 1_555
C18 C17 1_555 1_555
H14 C18 1_555 1_555
C19 C18 1_555 1_555
H15 C19 1_555 1_555
C20 C15 1_555 1_555
H16 C20 1_555 1_555
C21 H17 1_555 1_555
H18 C21 1_555 1_555
C22 C21 1_555 1_555
H19 C22 1_555 1_555
H20 C22 1_555 1_555
C23 C24 1_555 1_555
C24 H21 1_555 1_555
C25 C24 1_555 1_555
H22 C25 1_555 1_555
C26 C25 1_555 1_555
H23 C26 1_555 1_555
C27 C26 1_555 1_555
H24 C27 1_555 1_555
C28 C23 1_555 1_555
H25 C28 1_555 1_555
C29 C30 1_555 1_555
C30 H26 1_555 1_555
C31 C30 1_555 1_555
H27 C31 1_555 1_555
C32 C31 1_555 1_555
H28 C32 1_555 1_555
C33 C32 1_555 1_555
H29 C33 1_555 1_555
C34 C29 1_555 1_555
H30 C34 1_555 1_555
C35 H31 1_555 1_555
H32 C35 1_555 1_555
C36 C35 1_555 1_555
H33 C36 1_555 1_555
H34 C36 1_555 1_555
N1 C2 1_555 1_555
N2 C7 1_555 1_555
P1 C9 1_555 1_555
P2 C23 1_555 1_555
S1 C1 1_555 1_555
Hg1 N1 1_555 1_555
C9A C10A 1_555 1_555
C10A H7A 1_555 1_555
C11A C10A 1_555 1_555
H8A C11A 1_555 1_555
C12A C11A 1_555 1_555
H9A C12A 1_555 1_555
C13A C12A 1_555 1_555
H10A C13A 1_555 1_555
C14A C9A 1_555 1_555
H11A C14A 1_555 1_555
C15A C16A 1_555 1_555
C16A H12A 1_555 1_555
C17A C16A 1_555 1_555
H13A C17A 1_555 1_555
C18A C17A 1_555 1_555
H14A C18A 1_555 1_555
C19A C18A 1_555 1_555
H15A C19A 1_555 1_555
C20A C15A 1_555 1_555
H16A C20A 1_555 1_555
C21A H17A 1_555 1_555
H18A C21A 1_555 1_555
C22A C22 1_555 1_555
H19A C22A 1_555 1_555
H20A C22A 1_555 1_555
P1A C9A 1_555 1_555
C23A C24A 1_555 1_555
C24A H21A 1_555 1_555
C25A C24A 1_555 1_555
H22A C25A 1_555 1_555
C26A C25A 1_555 1_555
H23A C26A 1_555 1_555
C27A C26A 1_555 1_555
H24A C27A 1_555 1_555
C28A C23A 1_555 1_555
H25A C28A 1_555 1_555
C29A C30A 1_555 1_555
C30A H26A 1_555 1_555
C31A C30A 1_555 1_555
H27A C31A 1_555 1_555
C32A C31A 1_555 1_555
H28A C32A 1_555 1_555
C33A C32A 1_555 1_555
H29A C33A 1_555 1_555
C34A C29A 1_555 1_555
H30A C34A 1_555 1_555
C35A H31A 1_555 1_555
H32A C35A 1_555 1_555
C36A C36 1_555 1_555
H33A C36A 1_555 1_555
H34A C36A 1_555 1_555
P2A C23A 1_555 1_555
C1A C2A 1_555 1_555
C2A C3A 1_555 1_555
C3A H1A 1_555 1_555
C4A C3A 1_555 1_555
H2A C4A 1_555 1_555
C5A C4A 1_555 1_555
C6A C1A 1_555 1_555
H3A C6A 1_555 1_555
C7A N1A 1_555 1_555
C8A C5A 1_555 1_555
H4A C8A 1_555 1_555
H5A C8A 1_555 1_555
H6A C8A 1_555 1_555
N1A C2A 1_555 1_555
N2A C7A 1_555 1_555
S1A C1A 1_555 1_555
Hg1A P1A 1_555 1_555
P2A_2 Hg1A 1_555 1_555
Hg1A_2 P2A 1_555 1_555
C5 C6 1_555 1_555
C13 C14 1_555 1_555
C15 P1 1_555 1_555
C19 C20 1_555 1_555
C21 P1 1_555 1_555
C27 C28 1_555 1_555
C29 P2 1_555 1_555
C33 C34 1_555 1_555
C35 P2 1_555 1_555
P1 Hg1 1_555 1_555
P2 Hg1 1_555 1_555
S1 Hg1 1_555 1_555
C13A C14A 1_555 1_555
C15A P1A 1_555 1_555
C19A C20A 1_555 1_555
C21A C22A 1_555 1_555
C21A P1A 1_555 1_555
C27A C28A 1_555 1_555
C29A P2A 1_555 1_555
C33A C34A 1_555 1_555
C35A C36A 1_555 1_555
C35A P2A 1_555 1_555
C5A C6A 1_555 1_555
N1A Hg1A 1_555 1_555
S1A Hg1A 1_555 1_555

#END
