
#######################################################################
#
#                 Cambridge Crystallographic Data Centre
#                                CCDC 
#
#######################################################################
#
# If this CIF has been generated from an entry in the Cambridge 
# Structural Database, then it will include bibliographic, chemical, 
# crystal, experimental, refinement or atomic coordinate data resulting 
# from the CCDC's data processing and validation procedures.
#
#######################################################################

data_AHXCUD11
_symmetry_cell_setting           monoclinic
_symmetry_space_group_name_H-M   'P 21/n'
_symmetry_Int_Tables_number      14
_space_group_name_Hall           '-P 2yn'
loop_
_symmetry_equiv_pos_site_id
_symmetry_equiv_pos_as_xyz
1 x,y,z
2 1/2-x,1/2+y,1/2-z
3 -x,-y,-z
4 1/2+x,1/2-y,1/2+z
_cell_length_a                   5.1516(7)
_cell_length_b                   20.064(3)
_cell_length_c                   8.5466(12)
_cell_angle_alpha                90
_cell_angle_beta                 106.913(3)
_cell_angle_gamma                90
_cell_volume                     845.182
loop_
_atom_site_label
_atom_site_type_symbol
_atom_site_fract_x
_atom_site_fract_y
_atom_site_fract_z
Cu1 Cu 0.0000 0.0000 0.5000
O1 O 0.2013(8) 0.0585(2) 0.3905(5)
O2 O -0.1513(9) 0.0401(2) 0.1766(5)
N1 N 0.2011(10) -0.0752(2) 0.4375(6)
H1 H 0.3405(10) -0.0666(2) 0.4049(6)
C1 C 0.0717(13) 0.0661(3) 0.2395(8)
C2 C 0.1186(12) -0.1455(2) 0.4453(8)
H2 H -0.0678(12) -0.1506(2) 0.3782(8)
H3 H 0.1247(12) -0.1559(2) 0.5572(8)
C3 C 0.1269(12) 0.1839(3) 0.1587(7)
H4 H -0.0644(12) 0.1897(3) 0.1023(7)
H5 H 0.1538(12) 0.1937(3) 0.2734(7)
C4 C 0.2865(12) 0.2328(2) 0.0914(7)
H6 H 0.2581(12) 0.2234(2) -0.0237(7)
H7 H 0.4780(12) 0.2268(2) 0.1470(7)
C5 C 0.2029(12) 0.1114(2) 0.1427(7)
H8 H 0.1444(12) 0.0984(2) 0.0284(7)
H9 H 0.3985(12) 0.1065(2) 0.1821(7)
C6 C 0.2903(12) -0.1944(2) 0.3899(7)
H10 H 0.4783(12) -0.1876(2) 0.4524(7)
H11 H 0.2751(12) -0.1860(2) 0.2759(7)
H12 H 0.3657(87) -0.0700(37) 0.5323(56)
Cu1C Cu 0.5000 -0.5000 0.0000
Cu1C_2 Cu 0.5000 0.5000 0.0000
O1B O -0.2013(8) -0.0585(2) 0.6095(5)
O1A O 0.2987(8) -0.4415(2) 0.1095(5)
O2B O 0.1513(9) -0.0401(2) 0.8234(5)
O2A O 0.6513(9) -0.4599(2) 0.3234(5)
N1B N -0.2011(10) 0.0752(2) 0.5625(6)
N1A N 0.2989(10) 0.4248(2) 0.0625(6)
H1B H -0.3405(10) 0.0666(2) 0.5951(6)
H1A H 0.1595(10) 0.4334(2) 0.0951(6)
C1A C 0.4283(13) -0.4339(3) 0.2605(8)
C2A C 0.3814(12) 0.3545(2) 0.0547(8)
H2A H 0.5678(12) 0.3494(2) 0.1218(8)
H3A H 0.3753(12) 0.3441(2) -0.0572(8)
C3A C 0.3731(12) -0.3161(3) 0.3413(7)
H4A H 0.5644(12) -0.3103(3) 0.3977(7)
H5A H 0.3462(12) -0.3063(3) 0.2266(7)
C4A C 0.2135(12) -0.2672(2) 0.4086(7)
H6A H 0.2419(12) -0.2766(2) 0.5237(7)
H7A H 0.0220(12) -0.2732(2) 0.3530(7)
C5A C 0.2971(12) -0.3886(2) 0.3573(7)
H8A H 0.3556(12) -0.4016(2) 0.4716(7)
H9A H 0.1015(12) -0.3935(2) 0.3179(7)
C6A C 0.2097(12) 0.3056(2) 0.1101(7)
H10A H 0.0217(12) 0.3124(2) 0.0476(7)
H11A H 0.2249(12) 0.3140(2) 0.2241(7)
H12B H -0.3657(87) 0.0700(37) 0.4677(56)
H12A H 0.1343(87) 0.4300(37) -0.0323(56)
O3 O 0.5636(14) 0.0603(3) -0.1576(7)
H13 H 0.654(13) 0.0541(34) -0.0522(82)
H14 H 0.456(14) 0.0388(36) -0.1652(85)
loop_
_geom_bond_atom_site_label_1
_geom_bond_atom_site_label_2
_geom_bond_site_symmetry_1
_geom_bond_site_symmetry_2
Cu1 O1 1_555 1_555
O1 C1 1_555 1_555
O2 Cu1 1_555 1_555
N1 Cu1 1_555 1_555
H1 N1 1_555 1_555
C1 O2 1_555 1_555
C2 N1 1_555 1_555
H2 C2 1_555 1_555
H3 C2 1_555 1_555
C3 H4 1_555 1_555
H5 C3 1_555 1_555
C4 C3 1_555 1_555
H6 C4 1_555 1_555
H7 C4 1_555 1_555
C5 C1 1_555 1_555
H8 C5 1_555 1_555
H9 C5 1_555 1_555
C6 C2 1_555 1_555
H10 C6 1_555 1_555
H11 C6 1_555 1_555
H12 N1 1_555 1_555
O3 H13 1_555 1_555
H14 O3 1_555 1_555
Cu1C O1A 1_555 1_555
Cu1C_2 N1A 1_555 1_555
O1B Cu1 1_555 1_555
O1A C1A 1_555 1_555
O2B Cu1 1_555 1_555
O2A Cu1C 1_555 1_555
N1B Cu1 1_555 1_555
N1A H1A 1_555 1_555
H1B N1B 1_555 1_555
C1A O2A 1_555 1_555
C2A N1A 1_555 1_555
H2A C2A 1_555 1_555
H3A C2A 1_555 1_555
C3A H4A 1_555 1_555
H5A C3A 1_555 1_555
C4A C6 1_555 1_555
H6A C4A 1_555 1_555
H7A C4A 1_555 1_555
C5A C1A 1_555 1_555
H8A C5A 1_555 1_555
H9A C5A 1_555 1_555
C6A C4 1_555 1_555
H10A C6A 1_555 1_555
H11A C6A 1_555 1_555
H12B N1B 1_555 1_555
H12A N1A 1_555 1_555
C3 C5 1_555 1_555
C2A C6A 1_555 1_555
C3A C4A 1_555 1_555
C3A C5A 1_555 1_555

#END
