
#######################################################################
#
#                 Cambridge Crystallographic Data Centre
#                                CCDC 
#
#######################################################################
#
# If this CIF has been generated from an entry in the Cambridge 
# Structural Database, then it will include bibliographic, chemical, 
# crystal, experimental, refinement or atomic coordinate data resulting 
# from the CCDC's data processing and validation procedures.
#
#######################################################################

data_AJABIX
_symmetry_cell_setting           rhombohedral
_symmetry_space_group_name_H-M   'R -3'
_symmetry_Int_Tables_number      148
_space_group_name_Hall           '-R 3'
loop_
_symmetry_equiv_pos_site_id
_symmetry_equiv_pos_as_xyz
1 x,y,z
2 -y,x-y,z
3 -x+y,-x,z
4 2/3+x,1/3+y,1/3+z
5 2/3-y,1/3+x-y,1/3+z
6 2/3-x+y,1/3-x,1/3+z
7 1/3+x,2/3+y,2/3+z
8 1/3-y,2/3+x-y,2/3+z
9 1/3-x+y,2/3-x,2/3+z
10 -x,-y,-z
11 y,-x+y,-z
12 x-y,x,-z
13 1/3-x,2/3-y,2/3-z
14 1/3+y,2/3-x+y,2/3-z
15 1/3+x-y,2/3+x,2/3-z
16 2/3-x,1/3-y,1/3-z
17 2/3+y,1/3-x+y,1/3-z
18 2/3+x-y,1/3+x,1/3-z
_cell_length_a                   19.5289(8)
_cell_length_b                   19.5289(8)
_cell_length_c                   14.2935(8)
_cell_angle_alpha                90
_cell_angle_beta                 90
_cell_angle_gamma                120
_cell_volume                     4720.9
loop_
_atom_site_label
_atom_site_type_symbol
_atom_site_fract_x
_atom_site_fract_y
_atom_site_fract_z
Cu1 Cu 0.41475(2) 0.45039(2) 0.56207(2)
N1 N 0.50644(15) 0.54601(15) 0.61372(17)
N2 N 0.57526(14) 0.58570(14) 0.56113(17)
N3 N 0.59045(14) 0.65454(14) 0.69029(17)
C1 C 0.51814(18) 0.58880(17) 0.6902(2)
C2 C 0.46000(19) 0.56830(19) 0.7675(2)
H1 H 0.4842 0.5640 0.8265
H2 H 0.4134 0.5159 0.7545
C3 C 0.4326(3) 0.6278(3) 0.7811(3)
H3 H 0.3956 0.6115 0.8339
H4 H 0.4060 0.6305 0.7242
H5 H 0.4783 0.6800 0.7941
C4 C 0.62340(17) 0.64969(17) 0.6097(2)
C5 C 0.70508(18) 0.70943(19) 0.5795(2)
H6 H 0.7087 0.7616 0.5734
H7 H 0.7156 0.6945 0.5173
C6 C 0.7675(2) 0.7162(3) 0.6478(3)
H8 H 0.8199 0.7559 0.6252
H9 H 0.7649 0.6649 0.6531
H10 H 0.7580 0.7321 0.7093
Cu1I Cu 0.58525(2) 0.54961(2) 0.43793(2)
Cu1Q Cu 0.63103(3) 0.74808(2) 0.77126(2)
N2I N 0.42474(14) 0.41430(14) 0.43887(17)
N3P N 0.32121(14) 0.39742(20) 0.64304(17)
C7 C 0.6188(4) 0.4667(4) 0.6963(5)
H11 H 0.5801 0.4717 0.6615
C8 C 0.6655(5) 0.4606(6) 0.7382(7)
H12 H 0.7042 0.4556 0.7730
loop_
_geom_bond_atom_site_label_1
_geom_bond_atom_site_label_2
_geom_bond_site_symmetry_1
_geom_bond_site_symmetry_2
Cu1 N1 1_555 1_555
N1 N2 1_555 1_555
N2 C4 1_555 1_555
N3 C1 1_555 1_555
C1 N1 1_555 1_555
C2 C1 1_555 1_555
H1 C2 1_555 1_555
H2 C2 1_555 1_555
C3 C2 1_555 1_555
H3 C3 1_555 1_555
H4 C3 1_555 1_555
H5 C3 1_555 1_555
C4 N3 1_555 1_555
C5 C4 1_555 1_555
H6 C5 1_555 1_555
H7 C5 1_555 1_555
C6 C5 1_555 1_555
H8 C6 1_555 1_555
H9 C6 1_555 1_555
H10 C6 1_555 1_555
C7 H11 1_555 1_555
C8 C7 1_555 1_555
H12 C8 1_555 1_555
Cu1I N2 1_555 1_555
Cu1Q N3 1_555 1_555
N2I Cu1 1_555 1_555
N3P Cu1 1_555 1_555

#END
