
#######################################################################
#
#                 Cambridge Crystallographic Data Centre
#                                CCDC 
#
#######################################################################
#
# If this CIF has been generated from an entry in the Cambridge 
# Structural Database, then it will include bibliographic, chemical, 
# crystal, experimental, refinement or atomic coordinate data resulting 
# from the CCDC's data processing and validation procedures.
#
#######################################################################

data_AJABAO
_symmetry_cell_setting           orthorhombic
_symmetry_space_group_name_H-M   'P n a 21'
_symmetry_Int_Tables_number      33
_space_group_name_Hall           'P 2c -2n'
loop_
_symmetry_equiv_pos_site_id
_symmetry_equiv_pos_as_xyz
1 x,y,z
2 -x,-y,1/2+z
3 1/2-x,1/2+y,1/2+z
4 1/2+x,1/2-y,z
_cell_length_a                   17.2819(10)
_cell_length_b                   8.1612(5)
_cell_length_c                   23.3019(18)
_cell_angle_alpha                90
_cell_angle_beta                 90
_cell_angle_gamma                90
_cell_volume                     3286.52
loop_
_atom_site_label
_atom_site_type_symbol
_atom_site_fract_x
_atom_site_fract_y
_atom_site_fract_z
C1 C 0.3033(4) 0.1154(9) 0.4722(3)
H1 H 0.3278 0.0132 0.4584
H2 H 0.2829 0.0963 0.5114
C2 C 0.3612(6) 0.2544(12) 0.4725(5)
H3 H 0.3688 0.2959 0.5120
H4 H 0.4117 0.2164 0.4575
C3 C 0.3292(4) 0.3850(8) 0.4352(3)
H5 H 0.3649 0.4105 0.4032
H6 H 0.3192 0.4863 0.4574
C4 C 0.2553(4) 0.3118(8) 0.4135(3)
C5 C 0.1987(4) 0.3818(8) 0.3733(3)
C6 C 0.1999(4) 0.5347(8) 0.3468(3)
H7 H 0.2400 0.6114 0.3543
C7 C 0.1421(4) 0.5695(9) 0.3102(4)
H8 H 0.1415 0.6741 0.2923
C8 C 0.0828(4) 0.4585(8) 0.2973(3)
H9 H 0.0426 0.4848 0.2710
C9 C 0.0860(4) 0.3064(8) 0.3253(3)
C10 C 0.0337(4) 0.1662(8) 0.3173(3)
C11 C -0.0322(4) 0.1436(9) 0.2767(3)
H10 H -0.0165 0.1662 0.2366
H11 H -0.0766 0.2147 0.2869
C12 C -0.0516(5) -0.0387(10) 0.2855(4)
H12 H -0.1077 -0.0535 0.2923
H13 H -0.0365 -0.1035 0.2514
C13 C -0.0057(4) -0.0912(8) 0.3373(3)
H14 H -0.0405 -0.1100 0.3704
H15 H 0.0226 -0.1941 0.3292
C14 C -0.0016(4) -0.3954(8) 0.4883(3)
H16 H -0.0180 -0.5099 0.4954
H17 H 0.0222 -0.3886 0.4497
C15 C -0.0692(4) -0.2806(8) 0.4930(3)
H18 H -0.1112 -0.3308 0.5160
H19 H -0.0896 -0.2531 0.4545
C16 C -0.0383(4) -0.1291(9) 0.5225(3)
H20 H -0.0261 -0.0415 0.4945
H21 H -0.0753 -0.0866 0.5513
C17 C 0.0340(4) -0.1955(8) 0.5505(2)
C18 C 0.0836(4) -0.1181(8) 0.5942(3)
C19 C 0.0783(4) 0.0394(8) 0.6159(3)
H22 H 0.0383 0.1118 0.6041
C20 C 0.1345(4) 0.0878(10) 0.6563(3)
H23 H 0.1319 0.1938 0.6730
C21 C 0.1943(4) -0.0193(8) 0.6717(3)
H24 H 0.2334 0.0135 0.6980
C22 C 0.1947(4) -0.1751(8) 0.6477(3)
C23 C 0.2498(4) -0.3118(8) 0.6573(3)
C24 C 0.3147(4) -0.3156(9) 0.7016(3)
H25 H 0.2943 -0.3219 0.7412
H26 H 0.3492 -0.2192 0.6980
C25 C 0.3561(4) -0.4754(9) 0.6839(3)
H27 H 0.4050 -0.4506 0.6635
H28 H 0.3682 -0.5426 0.7181
C26 C 0.2999(5) -0.5663(9) 0.6443(4)
H29 H 0.3272 -0.6090 0.6101
H30 H 0.2753 -0.6591 0.6647
N1 N 0.2404(3) 0.1654(7) 0.4333(2)
N2 N 0.1427(3) 0.2724(8) 0.3616(3)
N3 N 0.0487(3) 0.0408(7) 0.3501(2)
N4 N 0.0532(3) -0.3402(6) 0.5328(2)
N5 N 0.1411(3) -0.2201(7) 0.6096(3)
N6 N 0.2402(3) -0.4409(6) 0.6272(2)
N7 N 0.1404(3) -0.1540(8) 0.4321(3)
N8 N 0.1859(3) -0.2224(7) 0.4629(3)
N9 N 0.2250(3) -0.3003(8) 0.4932(3)
N10 N 0.1580(4) 0.3506(9) 0.5434(3)
N11 N 0.1148(3) 0.2775(7) 0.5125(2)
N12 N 0.0758(3) 0.1979(8) 0.4823(3)
O1 O 0.2238(3) -0.0569(6) 0.3175(2)
O2 O 0.3371(4) -0.1518(8) 0.3571(3)
O3 O 0.3284(4) 0.1046(8) 0.3107(4)
O4 O 0.3234(5) -0.1345(10) 0.2581(3)
Cl1 Cl 0.30745(13) -0.0615(3) 0.30991(9)
Cu1 Cu 0.14356(4) 0.06360(11) 0.40137(3)
Cu2 Cu 0.15020(5) -0.43120(11) 0.57150(3)
Cu2_2 Cu 0.15020(5) 0.56880(11) 0.57150(3)
N10_2 N 0.1580(4) -0.6494(9) 0.5434(3)
O5 O -0.0679(9) -0.6610(11) 0.6863(3)
O6 O -0.1202(9) -0.499(2) 0.6291(9)
O7 O -0.0216(7) -0.4211(12) 0.6561(3)
O8 O -0.0360(4) -0.6486(7) 0.5922(2)
Cl2 Cl -0.05307(13) -0.5661(3) 0.64175(8)
loop_
_geom_bond_atom_site_label_1
_geom_bond_atom_site_label_2
_geom_bond_site_symmetry_1
_geom_bond_site_symmetry_2
C1 H1 1_555 1_555
H2 C1 1_555 1_555
C2 C1 1_555 1_555
H3 C2 1_555 1_555
H4 C2 1_555 1_555
C3 C2 1_555 1_555
H5 C3 1_555 1_555
H6 C3 1_555 1_555
C4 C3 1_555 1_555
C5 C4 1_555 1_555
C6 C5 1_555 1_555
H7 C6 1_555 1_555
C7 C6 1_555 1_555
H8 C7 1_555 1_555
C8 C7 1_555 1_555
H9 C8 1_555 1_555
C9 C8 1_555 1_555
C10 C9 1_555 1_555
C11 C10 1_555 1_555
H10 C11 1_555 1_555
H11 C11 1_555 1_555
C12 C11 1_555 1_555
H12 C12 1_555 1_555
H13 C12 1_555 1_555
C13 C12 1_555 1_555
H14 C13 1_555 1_555
H15 C13 1_555 1_555
C14 H16 1_555 1_555
H17 C14 1_555 1_555
C15 C14 1_555 1_555
H18 C15 1_555 1_555
H19 C15 1_555 1_555
C16 C15 1_555 1_555
H20 C16 1_555 1_555
H21 C16 1_555 1_555
C17 C16 1_555 1_555
C18 C17 1_555 1_555
C19 C18 1_555 1_555
H22 C19 1_555 1_555
C20 C19 1_555 1_555
H23 C20 1_555 1_555
C21 C20 1_555 1_555
H24 C21 1_555 1_555
C22 C21 1_555 1_555
C23 C22 1_555 1_555
C24 C23 1_555 1_555
H25 C24 1_555 1_555
H26 C24 1_555 1_555
C25 C24 1_555 1_555
H27 C25 1_555 1_555
H28 C25 1_555 1_555
C26 C25 1_555 1_555
H29 C26 1_555 1_555
H30 C26 1_555 1_555
N1 C1 1_555 1_555
N2 C5 1_555 1_555
N3 C10 1_555 1_555
N4 C14 1_555 1_555
N5 C18 1_555 1_555
N6 C23 1_555 1_555
N7 N8 1_555 1_555
N8 N9 1_555 1_555
N9 Cu2 1_555 1_555
N10 N11 1_555 1_555
N11 N12 1_555 1_555
N12 Cu1 1_555 1_555
O1 Cl1 1_555 1_555
O2 Cl1 1_555 1_555
O3 Cl1 1_555 1_555
O4 Cl1 1_555 1_555
O5 Cl2 1_555 1_555
O6 Cl2 1_555 1_555
O7 Cl2 1_555 1_555
O8 Cl2 1_555 1_555
Cu1 N1 1_555 1_555
Cu2 N4 1_555 1_555
Cu2_2 N10 1_555 1_555
N10_2 Cu2 1_555 1_555
C4 N1 1_555 1_555
C9 N2 1_555 1_555
C13 N3 1_555 1_555
C17 N4 1_555 1_555
C22 N5 1_555 1_555
C26 N6 1_555 1_555
N2 Cu1 1_555 1_555
N3 Cu1 1_555 1_555
N5 Cu2 1_555 1_555
N6 Cu2 1_555 1_555
N7 Cu1 1_555 1_555
O1 Cu1 1_555 1_555

#END
