
#######################################################################
#
#                 Cambridge Crystallographic Data Centre
#                                CCDC 
#
#######################################################################
#
# If this CIF has been generated from an entry in the Cambridge 
# Structural Database, then it will include bibliographic, chemical, 
# crystal, experimental, refinement or atomic coordinate data resulting 
# from the CCDC's data processing and validation procedures.
#
#######################################################################

data_AJABES
_symmetry_cell_setting           monoclinic
_symmetry_space_group_name_H-M   'P 21/n'
_symmetry_Int_Tables_number      14
_space_group_name_Hall           '-P 2yn'
loop_
_symmetry_equiv_pos_site_id
_symmetry_equiv_pos_as_xyz
1 x,y,z
2 1/2-x,1/2+y,1/2-z
3 -x,-y,-z
4 1/2+x,1/2-y,1/2+z
_cell_length_a                   10.3151(13)
_cell_length_b                   14.7264(17)
_cell_length_c                   12.2101(18)
_cell_angle_alpha                90
_cell_angle_beta                 98.797(17)
_cell_angle_gamma                90
_cell_volume                     1832.95
loop_
_atom_site_label
_atom_site_type_symbol
_atom_site_fract_x
_atom_site_fract_y
_atom_site_fract_z
C1 C 0.1428(6) 0.2926(4) -0.1715(5)
H1 H 0.1836 0.2676 -0.1011
H2 H 0.1152 0.3543 -0.1596
C2 C 0.2362(10) 0.2912(6) -0.2529(8)
H3 H 0.3166 0.2605 -0.2215
H4 H 0.2577 0.3527 -0.2722
C3 C 0.1708(7) 0.2414(5) -0.3539(6)
H5 H 0.1540 0.2813 -0.4177
H6 H 0.2229 0.1901 -0.3715
C4 C 0.0470(6) 0.2113(4) -0.3173(6)
C5 C -0.0548(7) 0.1497(4) -0.3774(5)
C6 C -0.0630(8) 0.1135(5) -0.4820(5)
H7 H -0.0025 0.1291 -0.5280
C7 C -0.1633(9) 0.0532(5) -0.5169(6)
H8 H -0.1706 0.0290 -0.5879
C8 C -0.2524(7) 0.0282(4) -0.4502(5)
H9 H -0.3181 -0.0138 -0.4738
C9 C -0.2408(6) 0.0682(4) -0.3448(5)
C10 C -0.3212(6) 0.0542(4) -0.2588(5)
C11 C -0.4386(6) -0.0044(4) -0.2610(5)
H10 H -0.4152 -0.0682 -0.2608
H11 H -0.5033 0.0082 -0.3256
C12 C -0.4895(6) 0.0216(5) -0.1548(6)
H12 H -0.5069 -0.0320 -0.1133
H13 H -0.5695 0.0570 -0.1710
C13 C -0.3789(6) 0.0784(5) -0.0897(5)
H14 H -0.4132 0.1347 -0.0645
H15 H -0.3362 0.0450 -0.0257
N1 N 0.0287(5) 0.2363(3) -0.2197(4)
N2 N -0.1433(5) 0.1282(3) -0.3136(4)
N3 N -0.2871(5) 0.0966(3) -0.1663(4)
N4 N -0.0725(5) 0.1915(3) -0.0034(4)
N5 N -0.0529(5) 0.2671(4) 0.0357(4)
N6 N -0.0337(5) 0.3383(4) 0.0744(5)
N7 N -0.4281(5) 0.3878(4) -0.2733(4)
N8 N -0.3417(5) 0.3454(3) -0.2195(4)
N9 N -0.2581(5) 0.3067(4) -0.1622(4)
N10 N -0.0535(5) -0.0220(3) 0.0814(4)
N11 N -0.1209(5) -0.0275(3) 0.1544(5)
N12 N -0.1817(5) -0.0332(4) 0.2252(5)
Cl1 Cl 0.2723(2) 0.14962(12) 0.05144(16)
Cu1 Cu -0.12806(7) 0.17947(5) -0.16334(6)
Cu2 Cu 0.07441(7) 0.08157(5) 0.06928(6)
Cu2C Cu -0.42559(7) 0.41843(5) -0.43072(6)
Cu2B Cu -0.07441(7) -0.08157(5) -0.06928(6)
N7C N 0.0719(5) 0.1122(4) 0.2267(4)
N10B N 0.0535(5) 0.0220(3) -0.0814(4)
loop_
_geom_bond_atom_site_label_1
_geom_bond_atom_site_label_2
_geom_bond_site_symmetry_1
_geom_bond_site_symmetry_2
C1 H1 1_555 1_555
H2 C1 1_555 1_555
C2 C1 1_555 1_555
H3 C2 1_555 1_555
H4 C2 1_555 1_555
C3 C2 1_555 1_555
H5 C3 1_555 1_555
H6 C3 1_555 1_555
C4 C3 1_555 1_555
C5 C4 1_555 1_555
C6 C5 1_555 1_555
H7 C6 1_555 1_555
C7 C6 1_555 1_555
H8 C7 1_555 1_555
C8 C7 1_555 1_555
H9 C8 1_555 1_555
C9 C8 1_555 1_555
C10 C9 1_555 1_555
C11 C10 1_555 1_555
H10 C11 1_555 1_555
H11 C11 1_555 1_555
C12 C11 1_555 1_555
H12 C12 1_555 1_555
H13 C12 1_555 1_555
C13 C12 1_555 1_555
H14 C13 1_555 1_555
H15 C13 1_555 1_555
N1 C1 1_555 1_555
N2 C5 1_555 1_555
N3 C10 1_555 1_555
N4 N5 1_555 1_555
N5 N6 1_555 1_555
N7 N8 1_555 1_555
N8 N9 1_555 1_555
N9 Cu1 1_555 1_555
N10 N11 1_555 1_555
N11 N12 1_555 1_555
Cl1 Cu2 1_555 1_555
Cu1 N1 1_555 1_555
Cu2 N4 1_555 1_555
Cu2C N7 1_555 1_555
Cu2B N10 1_555 1_555
N7C Cu2 1_555 1_555
N10B Cu2 1_555 1_555
C4 N1 1_555 1_555
C9 N2 1_555 1_555
C13 N3 1_555 1_555
N2 Cu1 1_555 1_555
N3 Cu1 1_555 1_555
N4 Cu1 1_555 1_555
N10 Cu2 1_555 1_555
Cu2B N10B 1_555 1_555

#END
