
#######################################################################
#
#                 Cambridge Crystallographic Data Centre
#                                CCDC 
#
#######################################################################
#
# If this CIF has been generated from an entry in the Cambridge 
# Structural Database, then it will include bibliographic, chemical, 
# crystal, experimental, refinement or atomic coordinate data resulting 
# from the CCDC's data processing and validation procedures.
#
#######################################################################

data_AJABIW
_symmetry_cell_setting           orthorhombic
_symmetry_space_group_name_H-M   'P 21 21 21'
_symmetry_Int_Tables_number      19
_space_group_name_Hall           'P 2ac 2ab'
loop_
_symmetry_equiv_pos_site_id
_symmetry_equiv_pos_as_xyz
1 x,y,z
2 1/2-x,-y,1/2+z
3 1/2+x,1/2-y,-z
4 -x,1/2+y,1/2-z
_cell_length_a                   9.035(5)
_cell_length_b                   22.008(5)
_cell_length_c                   8.218(5)
_cell_angle_alpha                90
_cell_angle_beta                 90
_cell_angle_gamma                90
_cell_volume                     1634.09
loop_
_atom_site_label
_atom_site_type_symbol
_atom_site_fract_x
_atom_site_fract_y
_atom_site_fract_z
C1 C 0.7359(3) 0.80939(11) 0.7508(3)
H1 H 0.7218 0.8098 0.6313
H2 H 0.6400 0.8185 0.8037
C2 C 0.7938(3) 0.74819(10) 0.8062(3)
H3 H 0.7495 0.7146 0.7424
H4 H 0.7743 0.7414 0.9233
C3 C 0.9587(3) 0.75416(11) 0.7724(4)
H5 H 0.9809 0.7456 0.6567
H6 H 1.0164 0.7259 0.8416
C4 C 0.9944(2) 0.82063(10) 0.8148(3)
H7 H 1.0287 0.8227 0.9303
C5 C 1.1108(2) 0.84841(9) 0.7071(2)
C6 C 1.2489(3) 0.82294(10) 0.6800(3)
H8 H 1.2764 0.7859 0.7310
C7 C 1.3463(2) 0.85283(10) 0.5766(3)
H9 H 1.4411 0.8359 0.5557
C8 C 1.3060(3) 0.90727(10) 0.5037(3)
H10 H 1.3724 0.9281 0.4336
C9 C 1.1661(2) 0.93042(10) 0.5361(2)
C10 C 1.1077(2) 0.98865(9) 0.4638(2)
H11 H 1.1132 0.9860 0.3425
C11 C 1.1907(3) 1.04595(11) 0.5206(4)
H12 H 1.2303 1.0406 0.6320
H13 H 1.2733 1.0559 0.4460
C12 C 1.0729(3) 1.09455(11) 0.5163(3)
H14 H 1.0998 1.1294 0.5866
H15 H 1.0561 1.1093 0.4040
C13 C 0.9389(3) 1.06176(10) 0.5811(3)
H16 H 0.9401 1.0610 0.7015
H17 H 0.8469 1.0819 0.5444
N1 N 0.8498(2) 0.85474(8) 0.7998(2)
H18 H 0.834(3) 0.8652(12) 0.879(3)
N2 N 1.07367(19) 0.90108(7) 0.6364(2)
N3 N 0.9487(2) 0.99871(8) 0.5137(2)
H19 H 0.897(3) 0.9962(11) 0.435(3)
N4 N 0.6674(2) 0.96141(8) 0.6752(2)
N5 N 0.6203(2) 0.98847(8) 0.5582(2)
N6 N 0.5725(2) 1.01431(9) 0.4477(2)
O1 O 0.7962(2) 0.88177(9) 0.3902(2)
O2 O 0.9561(2) 0.79844(8) 0.3736(2)
O3 O 0.7992(2) 0.82168(7) 0.1537(2)
O4 O 1.0010(3) 0.88492(10) 0.2155(2)
Cl1 Cl 0.88876(7) 0.84660(2) 0.28293(6)
Cu1 Cu 0.87268(3) 0.931140(10) 0.66033(3)
Cu1A Cu 0.62732(3) 1.068860(10) 0.16033(3)
N6A N 0.9275(2) 0.98569(9) 0.9477(2)
loop_
_geom_bond_atom_site_label_1
_geom_bond_atom_site_label_2
_geom_bond_site_symmetry_1
_geom_bond_site_symmetry_2
C1 H1 1_555 1_555
H2 C1 1_555 1_555
C2 C1 1_555 1_555
H3 C2 1_555 1_555
H4 C2 1_555 1_555
C3 C2 1_555 1_555
H5 C3 1_555 1_555
H6 C3 1_555 1_555
C4 C3 1_555 1_555
H7 C4 1_555 1_555
C5 C4 1_555 1_555
C6 C5 1_555 1_555
H8 C6 1_555 1_555
C7 C6 1_555 1_555
H9 C7 1_555 1_555
C8 C7 1_555 1_555
H10 C8 1_555 1_555
C9 C8 1_555 1_555
C10 C9 1_555 1_555
H11 C10 1_555 1_555
C11 C10 1_555 1_555
H12 C11 1_555 1_555
H13 C11 1_555 1_555
C12 C11 1_555 1_555
H14 C12 1_555 1_555
H15 C12 1_555 1_555
C13 C12 1_555 1_555
H16 C13 1_555 1_555
H17 C13 1_555 1_555
N1 C1 1_555 1_555
H18 N1 1_555 1_555
N2 C5 1_555 1_555
N3 C10 1_555 1_555
H19 N3 1_555 1_555
N4 N5 1_555 1_555
N5 N6 1_555 1_555
N6 Cu1A 1_555 1_555
O1 Cl1 1_555 1_555
O2 Cl1 1_555 1_555
O3 Cl1 1_555 1_555
O4 Cl1 1_555 1_555
Cu1 N1 1_555 1_555
N6A Cu1 1_555 1_555
C4 N1 1_555 1_555
C9 N2 1_555 1_555
C13 N3 1_555 1_555
N2 Cu1 1_555 1_555
N3 Cu1 1_555 1_555
N4 Cu1 1_555 1_555
O1 Cu1 1_555 1_555

#END
