
#######################################################################
#
#                 Cambridge Crystallographic Data Centre
#                                CCDC 
#
#######################################################################
#
# If this CIF has been generated from an entry in the Cambridge 
# Structural Database, then it will include bibliographic, chemical, 
# crystal, experimental, refinement or atomic coordinate data resulting 
# from the CCDC's data processing and validation procedures.
#
#######################################################################

data_AJABOD
_symmetry_cell_setting           rhombohedral
_symmetry_space_group_name_H-M   'R -3'
_symmetry_Int_Tables_number      148
_space_group_name_Hall           '-R 3'
loop_
_symmetry_equiv_pos_site_id
_symmetry_equiv_pos_as_xyz
1 x,y,z
2 -y,x-y,z
3 -x+y,-x,z
4 2/3+x,1/3+y,1/3+z
5 2/3-y,1/3+x-y,1/3+z
6 2/3-x+y,1/3-x,1/3+z
7 1/3+x,2/3+y,2/3+z
8 1/3-y,2/3+x-y,2/3+z
9 1/3-x+y,2/3-x,2/3+z
10 -x,-y,-z
11 y,-x+y,-z
12 x-y,x,-z
13 1/3-x,2/3-y,2/3-z
14 1/3+y,2/3-x+y,2/3-z
15 1/3+x-y,2/3+x,2/3-z
16 2/3-x,1/3-y,1/3-z
17 2/3+y,1/3-x+y,1/3-z
18 2/3+x-y,1/3+x,1/3-z
_cell_length_a                   19.6216(12)
_cell_length_b                   19.6216(12)
_cell_length_c                   14.2113(9)
_cell_angle_alpha                90
_cell_angle_beta                 90
_cell_angle_gamma                120
_cell_volume                     4738.42
loop_
_atom_site_label
_atom_site_type_symbol
_atom_site_fract_x
_atom_site_fract_y
_atom_site_fract_z
Cu1 Cu 0.41492(3) 0.45103(3) 0.56278(3)
N1 N 0.50680(19) 0.5446(2) 0.6145(2)
N2 N 0.57537(19) 0.58401(19) 0.5619(2)
N3 N 0.5898(2) 0.65465(19) 0.6901(2)
C1 C 0.5183(2) 0.5890(2) 0.6908(3)
C2 C 0.4595(3) 0.5677(3) 0.7684(3)
H1 H 0.4133 0.5155 0.7546
H2 H 0.4832 0.5631 0.8278
C3 C 0.4322(4) 0.6258(4) 0.7820(5)
H3 H 0.3952 0.6091 0.8348
H4 H 0.4059 0.6285 0.7246
H5 H 0.4775 0.6777 0.7954
C4 C 0.6231(2) 0.6487(2) 0.6093(3)
C5 C 0.7039(2) 0.7078(3) 0.5788(3)
H6 H 0.7076 0.7598 0.5734
H7 H 0.7139 0.6932 0.5157
C6 C 0.7669(3) 0.7140(4) 0.6469(4)
H8 H 0.8189 0.7537 0.6239
H9 H 0.7643 0.6630 0.6513
H10 H 0.7579 0.7295 0.7091
Cu1I Cu 0.58508(3) 0.54897(3) 0.43722(3)
Cu1Q Cu 0.63056(4) 0.74825(3) 0.77055(3)
N2I N 0.42463(19) 0.41599(19) 0.4381(2)
N3P N 0.32132(19) 0.39818(28) 0.6432(2)
O1 O 0.5662(7) 0.3957(6) 0.6240(11)
O2 O 0.6395(8) 0.4979(6) 0.7272(8)
C7 C 0.6022(7) 0.4466(7) 0.6759(9)
loop_
_geom_bond_atom_site_label_1
_geom_bond_atom_site_label_2
_geom_bond_site_symmetry_1
_geom_bond_site_symmetry_2
Cu1 N1 1_555 1_555
N1 N2 1_555 1_555
N2 C4 1_555 1_555
N3 C1 1_555 1_555
C1 N1 1_555 1_555
C2 C1 1_555 1_555
H1 C2 1_555 1_555
H2 C2 1_555 1_555
C3 C2 1_555 1_555
H3 C3 1_555 1_555
H4 C3 1_555 1_555
H5 C3 1_555 1_555
C4 N3 1_555 1_555
C5 C4 1_555 1_555
H6 C5 1_555 1_555
H7 C5 1_555 1_555
C6 C5 1_555 1_555
H8 C6 1_555 1_555
H9 C6 1_555 1_555
H10 C6 1_555 1_555
O1 C7 1_555 1_555
O2 C7 1_555 1_555
Cu1I N2 1_555 1_555
Cu1Q N3 1_555 1_555
N2I Cu1 1_555 1_555
N3P Cu1 1_555 1_555

#END
