
#######################################################################
#
#                 Cambridge Crystallographic Data Centre
#                                CCDC 
#
#######################################################################
#
# If this CIF has been generated from an entry in the Cambridge 
# Structural Database, then it will include bibliographic, chemical, 
# crystal, experimental, refinement or atomic coordinate data resulting 
# from the CCDC's data processing and validation procedures.
#
#######################################################################

data_AJAGAU
_symmetry_cell_setting           triclinic
_symmetry_space_group_name_H-M   'P -1'
_symmetry_Int_Tables_number      2
_space_group_name_Hall           '-P 1'
loop_
_symmetry_equiv_pos_site_id
_symmetry_equiv_pos_as_xyz
1 x,y,z
2 -x,-y,-z
_cell_length_a                   6.8569(14)
_cell_length_b                   12.554(3)
_cell_length_c                   12.809(3)
_cell_angle_alpha                96.291(3)
_cell_angle_beta                 96.383(3)
_cell_angle_gamma                100.368(3)
_cell_volume                     1068.38
loop_
_atom_site_label
_atom_site_type_symbol
_atom_site_fract_x
_atom_site_fract_y
_atom_site_fract_z
Bi1 Bi 0.77878(2) 0.504289(13) 0.104516(13)
Br1 Br 0.55917(6) 0.36487(4) -0.06472(4)
Br2 Br 1.06178(6) 0.38008(3) 0.08997(3)
Br3 Br 0.60453(7) 0.39354(4) 0.24548(4)
C1 C 0.0618(6) 0.9181(3) 0.5581(3)
C2 C 0.1194(7) 0.8384(4) 0.6189(4)
H1 H 0.2294 0.8060 0.6031
C3 C 0.0175(7) 0.8079(4) 0.7005(4)
H2 H 0.0591 0.7551 0.7412
C4 C -0.1490(8) 0.8537(4) 0.7253(4)
H3 H -0.2203 0.8301 0.7807
C5 C -0.2061(7) 0.9314(4) 0.6693(4)
H4 H -0.3172 0.9621 0.6867
C6 C -0.1030(6) 0.9679(4) 0.5853(3)
C7 C 0.1612(6) 0.9503(3) 0.4724(3)
C8 C 0.3222(7) 0.8951(3) 0.4415(3)
C9 C 0.4430(7) 0.8502(4) 0.4178(4)
C10 C 0.6012(6) 0.7936(4) 0.3893(4)
C11 C 0.6995(7) 0.8189(4) 0.3034(4)
H5 H 0.6632 0.8734 0.2634
C12 C 0.8496(7) 0.7658(4) 0.2756(4)
C13 C 0.9046(7) 0.6852(4) 0.3352(4)
C14 C 0.8075(7) 0.6606(4) 0.4207(4)
H6 H 0.8449 0.6066 0.4610
C15 C 0.6565(7) 0.7132(4) 0.4486(4)
H7 H 0.5905 0.6952 0.5076
C16 C 0.8594(8) 0.8812(4) 0.0995(4)
H8 H 0.8775 0.9508 0.1457
H9 H 0.7163 0.8499 0.0819
H10 H 0.9173 0.8936 0.0343
C17 C 1.1264(8) 0.5240(5) 0.3798(4)
H11 H 0.9981 0.4756 0.3821
H12 H 1.1770 0.5640 0.4505
H13 H 1.2228 0.4803 0.3570
S1 S 1.09234(17) 0.61891(10) 0.28805(10)
S2 S 0.98239(18) 0.78820(10) 0.16676(10)
Bi1A Bi 0.22122(2) 0.495711(13) -0.104516(13)
Bi1A_2 Bi 1.22122(2) 0.495711(13) -0.104516(13)
Bi1A_3 Bi -0.77878(2) 1.495711(13) 0.895484(13)
Br1A Br 0.44083(6) 0.63513(4) 0.06472(4)
Br2A Br 0.93822(6) 0.61992(3) -0.08997(3)
Br2A_2 Br -0.06178(6) 0.61992(3) -0.08997(3)
Br2_2 Br 0.06178(6) 0.38008(3) 0.08997(3)
Br3A Br 0.39547(7) 0.60646(4) -0.24548(4)
C1A C -0.0618(6) 1.0819(3) 0.4419(3)
C2A C -0.1194(7) 1.1616(4) 0.3811(4)
H1A H -0.2294 1.1940 0.3969
C3A C -0.0175(7) 1.1921(4) 0.2995(4)
H2A H -0.0591 1.2449 0.2588
C4A C 0.1490(8) 1.1463(4) 0.2747(4)
H3A H 0.2203 1.1699 0.2193
C5A C 0.2061(7) 1.0686(4) 0.3307(4)
H4A H 0.3172 1.0379 0.3133
C6A C 0.1030(6) 1.0321(4) 0.4147(3)
C7A C -0.1612(6) 1.0497(3) 0.5276(3)
C8A C -0.3222(7) 1.1049(3) 0.5585(3)
C9A C -0.4430(7) 1.1498(4) 0.5822(4)
C10A C -0.6012(6) 1.2064(4) 0.6107(4)
C11A C -0.6995(7) 1.1811(4) 0.6966(4)
H5A H -0.6632 1.1266 0.7366
C12A C -0.8496(7) 1.2342(4) 0.7244(4)
C13A C -0.9046(7) 1.3148(4) 0.6648(4)
C14A C -0.8075(7) 1.3394(4) 0.5793(4)
H6A H -0.8449 1.3934 0.5390
C15A C -0.6565(7) 1.2868(4) 0.5514(4)
H7A H -0.5905 1.3048 0.4924
C16A C -0.8594(8) 1.1188(4) 0.9005(4)
H8A H -0.8775 1.0492 0.8543
H9A H -0.7163 1.1501 0.9181
H10A H -0.9173 1.1064 0.9657
C17A C -1.1264(8) 1.4760(5) 0.6202(4)
H11A H -0.9981 1.5244 0.6179
H12A H -1.1770 1.4360 0.5495
H13A H -1.2228 1.5197 0.6430
S1A S -1.09234(17) 1.38109(10) 0.71195(10)
S1A_2 S -0.09234(17) 0.38109(10) -0.28805(10)
S2A S -0.98239(18) 1.21180(10) 0.83324(10)
C18 C 0.3585(7) 0.9046(4) 0.9830(4)
H14 H 0.2608 0.8389 0.9717
C19 C 0.4670(8) 0.9336(4) 0.9037(4)
H15 H 0.4449 0.8882 0.8374
C20 C 0.3901(8) 0.9704(5) 1.0796(4)
H16 H 0.3143 0.9500 1.1345
C18A C 0.6415(7) 1.0954(4) 1.0170(4)
H14A H 0.7392 1.1611 1.0283
C19A C 0.5330(8) 1.0664(4) 1.0963(4)
H15A H 0.5551 1.1118 1.1626
C20A C 0.6099(8) 1.0296(5) 0.9204(4)
H16A H 0.6857 1.0500 0.8655
loop_
_geom_bond_atom_site_label_1
_geom_bond_atom_site_label_2
_geom_bond_site_symmetry_1
_geom_bond_site_symmetry_2
Bi1 Br1 1_555 1_555
Br1 Bi1A 1_555 1_555
Br2 Bi1 1_555 1_555
Br3 Bi1 1_555 1_555
C1 C2 1_555 1_555
C2 H1 1_555 1_555
C3 C2 1_555 1_555
H2 C3 1_555 1_555
C4 C3 1_555 1_555
H3 C4 1_555 1_555
C5 C4 1_555 1_555
H4 C5 1_555 1_555
C6 C1 1_555 1_555
C7 C1 1_555 1_555
C8 C7 1_555 1_555
C9 C8 1_555 1_555
C10 C9 1_555 1_555
C11 C10 1_555 1_555
H5 C11 1_555 1_555
C12 C11 1_555 1_555
C13 C12 1_555 1_555
C14 C13 1_555 1_555
H6 C14 1_555 1_555
C15 C10 1_555 1_555
H7 C15 1_555 1_555
C16 H8 1_555 1_555
H9 C16 1_555 1_555
H10 C16 1_555 1_555
C17 H11 1_555 1_555
H12 C17 1_555 1_555
H13 C17 1_555 1_555
C18 H14 1_555 1_555
C19 C18 1_555 1_555
H15 C19 1_555 1_555
C20 C18 1_555 1_555
H16 C20 1_555 1_555
S1 Bi1 1_555 1_555
S2 C12 1_555 1_555
Bi1A Br1A 1_555 1_555
Bi1A_2 Br2 1_555 1_555
Bi1A_3 S1A 1_555 1_555
Br1A Bi1 1_555 1_555
Br2A Bi1 1_555 1_555
Br2A_2 Bi1A 1_555 1_555
Br2_2 Bi1A 1_555 1_555
Br3A Bi1A 1_555 1_555
C1A C2A 1_555 1_555
C2A H1A 1_555 1_555
C3A C2A 1_555 1_555
H2A C3A 1_555 1_555
C4A C3A 1_555 1_555
H3A C4A 1_555 1_555
C5A C4A 1_555 1_555
H4A C5A 1_555 1_555
C6A C7 1_555 1_555
C7A C6 1_555 1_555
C8A C7A 1_555 1_555
C9A C8A 1_555 1_555
C10A C9A 1_555 1_555
C11A C10A 1_555 1_555
H5A C11A 1_555 1_555
C12A C11A 1_555 1_555
C13A C12A 1_555 1_555
C14A C13A 1_555 1_555
H6A C14A 1_555 1_555
C15A C10A 1_555 1_555
H7A C15A 1_555 1_555
C16A H8A 1_555 1_555
H9A C16A 1_555 1_555
H10A C16A 1_555 1_555
C17A H11A 1_555 1_555
H12A C17A 1_555 1_555
H13A C17A 1_555 1_555
C18A H14A 1_555 1_555
C19A C20 1_555 1_555
H15A C19A 1_555 1_555
C20A C19 1_555 1_555
H16A C20A 1_555 1_555
S1A C13A 1_555 1_555
S1A_2 Bi1A 1_555 1_555
S2A C12A 1_555 1_555
C5 C6 1_555 1_555
C13 S1 1_555 1_555
C14 C15 1_555 1_555
C16 S2 1_555 1_555
C17 S1 1_555 1_555
Bi1A_2 Br2A 1_555 1_555
C1A C6A 1_555 1_555
C1A C7A 1_555 1_555
C5A C6A 1_555 1_555
C14A C15A 1_555 1_555
C16A S2A 1_555 1_555
C17A S1A 1_555 1_555
C18A C19A 1_555 1_555
C18A C20A 1_555 1_555

#END
