
#######################################################################
#
#                 Cambridge Crystallographic Data Centre
#                                CCDC 
#
#######################################################################
#
# If this CIF has been generated from an entry in the Cambridge 
# Structural Database, then it will include bibliographic, chemical, 
# crystal, experimental, refinement or atomic coordinate data resulting 
# from the CCDC's data processing and validation procedures.
#
#######################################################################

data_AJAGIC
_symmetry_cell_setting           triclinic
_symmetry_space_group_name_H-M   'P -1'
_symmetry_Int_Tables_number      2
_space_group_name_Hall           '-P 1'
loop_
_symmetry_equiv_pos_site_id
_symmetry_equiv_pos_as_xyz
1 x,y,z
2 -x,-y,-z
_cell_length_a                   7.1953(14)
_cell_length_b                   13.182(3)
_cell_length_c                   17.455(4)
_cell_angle_alpha                93.757(4)
_cell_angle_beta                 100.914(4)
_cell_angle_gamma                90.969(4)
_cell_volume                     1621.41
loop_
_atom_site_label
_atom_site_type_symbol
_atom_site_fract_x
_atom_site_fract_y
_atom_site_fract_z
Bi1 Bi 0.44732(3) 0.769666(18) 0.592101(15)
Bi2 Bi -0.10401(3) 0.760560(18) 0.453160(15)
Br1 Br 0.36577(11) 0.69239(6) 0.71647(5)
Br2 Br 0.22256(11) 0.61827(6) 0.49681(6)
Br3 Br 0.75266(9) 0.65056(5) 0.59084(4)
Br4 Br 0.57011(9) 0.86567(5) 0.43887(5)
Br5 Br 0.09140(10) 0.89664(5) 0.57124(4)
Br6 Br 0.04268(10) 0.83847(6) 0.34173(5)
C1 C 0.0597(10) 0.9931(6) 0.9739(5)
C2 C 0.1662(11) 0.9830(6) 0.9284(5)
C3 C 0.2983(10) 0.9676(5) 0.8766(5)
C4 C 0.2737(11) 1.0152(6) 0.8055(5)
H1 H 0.1693 1.0579 0.7915
C5 C 0.4000(12) 1.0001(5) 0.7568(5)
H2 H 0.3827 1.0327 0.7090
C6 C 0.5553(11) 0.9373(5) 0.7761(5)
C7 C 0.5817(11) 0.8908(5) 0.8463(4)
H3 H 0.6881 0.8495 0.8602
C8 C 0.4521(10) 0.9044(5) 0.8971(4)
C9 C 0.4785(10) 0.8539(6) 0.9682(4)
C10 C 0.5021(11) 0.8104(6) 1.0278(5)
C11 C 0.5456(11) 0.7612(6) 1.0997(5)
C12 C 0.7173(12) 0.7131(7) 1.1181(5)
H4 H 0.8034 0.7128 1.0830
C13 C 0.7639(13) 0.6649(7) 1.1881(5)
H5 H 0.8797 0.6304 1.1992
C14 C 0.6438(11) 0.6669(5) 1.2412(5)
C15 C 0.4713(11) 0.7155(6) 1.2229(5)
H6 H 0.3863 0.7164 1.2584
C16 C 0.4230(11) 0.7627(6) 1.1531(5)
H7 H 0.3060 0.7961 1.1416
C17 C 0.8791(11) 0.8350(7) 0.7526(5)
H8 H 0.9465 0.8678 0.8024
H9 H 0.9694 0.8197 0.7182
H10 H 0.8166 0.7718 0.7623
C18 C 0.5124(16) 0.5765(8) 1.3616(7)
H11 H 0.4519 0.6398 1.3744
H12 H 0.5444 0.5388 1.4087
H13 H 0.4253 0.5351 1.3212
S1 S 0.7045(3) 0.91902(15) 0.70675(12)
S2 S 0.7130(4) 0.60412(15) 1.32824(13)
Bi1A Bi -0.44732(3) 1.230334(18) 1.407899(15)
Bi1_2 Bi -0.55268(3) 0.769666(18) 0.592101(15)
Bi2_2 Bi 0.89599(3) 0.760560(18) 1.453160(15)
Bi2_3 Bi 0.89599(3) 0.760560(18) 0.453160(15)
Bi2A Bi -0.89599(3) 1.239440(18) 0.546840(15)
Bi2A_2 Bi 0.10401(3) 1.239440(18) 1.546840(15)
Br1A Br -0.36577(11) 1.30761(6) 1.28353(5)
Br2A Br -0.22256(11) 1.38173(6) 1.50319(6)
Br2_2 Br 1.22256(11) 0.61827(6) 1.49681(6)
Br3_2 Br -0.24734(9) 0.65056(5) 0.59084(4)
Br3A Br -0.75266(9) 1.34944(5) 1.40916(4)
Br3_3 Br 0.75266(9) 0.65056(5) 1.59084(4)
Br4_2 Br -0.42989(9) 0.86567(5) 0.43887(5)
Br4A Br -0.57011(9) 1.13433(5) 1.56113(5)
Br4_3 Br 0.57011(9) 0.86567(5) 1.43887(5)
Br5A Br -0.09140(10) 1.10336(5) 1.42876(4)
Br5_2 Br 1.09140(10) 0.89664(5) 1.57124(4)
Br6_2 Br 1.04268(10) 0.83847(6) 1.34173(5)
C1A C -0.0597(10) 1.0069(6) 1.0261(5)
C2A C -0.1662(11) 1.0170(6) 1.0716(5)
C3A C -0.2983(10) 1.0324(5) 1.1234(5)
C4A C -0.2737(11) 0.9848(6) 1.1945(5)
H1A H -0.1693 0.9421 1.2085
C5A C -0.4000(12) 0.9999(5) 1.2432(5)
H2A H -0.3827 0.9673 1.2910
C6A C -0.5553(11) 1.0627(5) 1.2239(5)
C7A C -0.5817(11) 1.1092(5) 1.1537(4)
H3A H -0.6881 1.1505 1.1398
C8A C -0.4521(10) 1.0956(5) 1.1029(4)
C9A C -0.4785(10) 1.1461(6) 1.0318(4)
C10A C -0.5021(11) 1.1896(6) 0.9722(5)
C11A C -0.5456(11) 1.2388(6) 0.9003(5)
C12A C -0.7173(12) 1.2869(7) 0.8819(5)
H4A H -0.8034 1.2872 0.9170
C13A C -0.7639(13) 1.3351(7) 0.8119(5)
H5A H -0.8797 1.3696 0.8008
C14A C -0.6438(11) 1.3331(5) 0.7588(5)
C15A C -0.4713(11) 1.2845(6) 0.7771(5)
H6A H -0.3863 1.2836 0.7416
C16A C -0.4230(11) 1.2373(6) 0.8469(5)
H7A H -0.3060 1.2039 0.8584
C17A C -0.8791(11) 1.1650(7) 1.2474(5)
H8A H -0.9465 1.1322 1.1976
H9A H -0.9694 1.1803 1.2818
H10A H -0.8166 1.2282 1.2377
C18A C -0.5124(16) 1.4235(8) 0.6384(7)
H11A H -0.4519 1.3602 0.6256
H12A H -0.5444 1.4612 0.5913
H13A H -0.4253 1.4649 0.6788
S1A S -0.7045(3) 1.08098(15) 1.29325(12)
S2A S -0.7130(4) 1.39588(15) 0.67176(13)
S2_2 S -0.2870(4) 0.60412(15) 0.32824(13)
C19 C -0.0811(15) 0.3455(9) 0.1129(9)
H14 H -0.2028 0.3128 0.1002
C20 C -0.0429(18) 0.4220(10) 0.1729(9)
H15 H -0.1384 0.4415 0.2013
C21 C 0.1351(19) 0.4698(8) 0.1914(7)
H16 H 0.1612 0.5221 0.2324
C22 C 0.2749(14) 0.4413(9) 0.1498(8)
H17 H 0.3965 0.4740 0.1625
C23 C 0.2366(16) 0.3648(9) 0.0898(8)
H18 H 0.3322 0.3453 0.0614
C24 C 0.0587(18) 0.3169(8) 0.0713(7)
H19 H 0.0325 0.2647 0.0303
C25? C -0.084(3) 0.3825(16) 0.1298(12)
C26? C 0.085(4) 0.4117(18) 0.1796(9)
C27? C 0.229(3) 0.4587(18) 0.1504(13)
C28? C 0.203(2) 0.4765(14) 0.0715(14)
C29? C 0.033(3) 0.4472(13) 0.0218(9)
C30? C -0.110(2) 0.4002(15) 0.0509(11)
H20? H -0.1828 0.3504 0.1498
H21? H 0.1029 0.3996 0.2335
H22? H 0.3450 0.4787 0.1844
H23? H 0.3014 0.5086 0.0516
H24? H 0.0157 0.4593 -0.0321
H25? H -0.2264 0.3802 0.0170
loop_
_geom_bond_atom_site_label_1
_geom_bond_atom_site_label_2
_geom_bond_site_symmetry_1
_geom_bond_site_symmetry_2
Bi1 Br1 1_555 1_555
Bi2 Br2 1_555 1_555
Br2 Bi1 1_555 1_555
Br3 Bi1 1_555 1_555
Br4 Bi1 1_555 1_555
Br5 Bi1 1_555 1_555
Br6 Bi2 1_555 1_555
C1 C2 1_555 1_555
C2 C3 1_555 1_555
C3 C4 1_555 1_555
C4 H1 1_555 1_555
C5 C4 1_555 1_555
H2 C5 1_555 1_555
C6 C5 1_555 1_555
C7 C6 1_555 1_555
H3 C7 1_555 1_555
C8 C3 1_555 1_555
C9 C8 1_555 1_555
C10 C9 1_555 1_555
C11 C10 1_555 1_555
C12 C11 1_555 1_555
H4 C12 1_555 1_555
C13 C12 1_555 1_555
H5 C13 1_555 1_555
C14 C13 1_555 1_555
C15 C14 1_555 1_555
H6 C15 1_555 1_555
C16 C11 1_555 1_555
H7 C16 1_555 1_555
C17 H8 1_555 1_555
H9 C17 1_555 1_555
H10 C17 1_555 1_555
C18 H11 1_555 1_555
H12 C18 1_555 1_555
H13 C18 1_555 1_555
C19 H14 1_555 1_555
C20 C19 1_555 1_555
H15 C20 1_555 1_555
C21 C20 1_555 1_555
H16 C21 1_555 1_555
C22 C21 1_555 1_555
H17 C22 1_555 1_555
C23 C22 1_555 1_555
H18 C23 1_555 1_555
C24 C19 1_555 1_555
H19 C24 1_555 1_555
S1 Bi1 1_555 1_555
S2 C14 1_555 1_555
Bi1A Br1A 1_555 1_555
Bi1_2 Br3_2 1_555 1_555
Bi2_2 S2 1_555 1_555
Bi2_3 Br3 1_555 1_555
Bi2A S2A 1_555 1_555
Bi2A_2 Br2A 1_555 1_555
Br2A Bi1A 1_555 1_555
Br2_2 Bi2_2 1_555 1_555
Br3_2 Bi2 1_555 1_555
Br3A Bi1A 1_555 1_555
Br3_3 Bi2_2 1_555 1_555
Br4_2 Bi2 1_555 1_555
Br4A Bi1A 1_555 1_555
Br4_3 Bi2_2 1_555 1_555
Br5A Bi1A 1_555 1_555
Br5_2 Bi2_2 1_555 1_555
Br6_2 Bi2_2 1_555 1_555
C1A C1 1_555 1_555
C2A C1A 1_555 1_555
C3A C2A 1_555 1_555
C4A C3A 1_555 1_555
H1A C4A 1_555 1_555
C5A C4A 1_555 1_555
H2A C5A 1_555 1_555
C6A C5A 1_555 1_555
C7A C6A 1_555 1_555
H3A C7A 1_555 1_555
C8A C3A 1_555 1_555
C9A C8A 1_555 1_555
C10A C9A 1_555 1_555
C11A C10A 1_555 1_555
C12A C11A 1_555 1_555
H4A C12A 1_555 1_555
C13A C12A 1_555 1_555
H5A C13A 1_555 1_555
C14A C13A 1_555 1_555
C15A C14A 1_555 1_555
H6A C15A 1_555 1_555
C16A C11A 1_555 1_555
H7A C16A 1_555 1_555
C17A H8A 1_555 1_555
H9A C17A 1_555 1_555
H10A C17A 1_555 1_555
C18A H11A 1_555 1_555
H12A C18A 1_555 1_555
H13A C18A 1_555 1_555
S1A Bi1A 1_555 1_555
S2A C14A 1_555 1_555
S2_2 Bi2 1_555 1_555
Bi2 Br5 1_555 1_555
Br4 Bi2_3 1_555 1_555
C6 S1 1_555 1_555
C7 C8 1_555 1_555
C15 C16 1_555 1_555
C17 S1 1_555 1_555
C18 S2 1_555 1_555
C23 C24 1_555 1_555
Bi1_2 Br4_2 1_555 1_555
Bi2A_2 Br5A 1_555 1_555
C6A S1A 1_555 1_555
C7A C8A 1_555 1_555
C15A C16A 1_555 1_555
C17A S1A 1_555 1_555
C18A S2A 1_555 1_555

#END
