
#######################################################################
#
#                 Cambridge Crystallographic Data Centre
#                                CCDC 
#
#######################################################################
#
# If this CIF has been generated from an entry in the Cambridge 
# Structural Database, then it will include bibliographic, chemical, 
# crystal, experimental, refinement or atomic coordinate data resulting 
# from the CCDC's data processing and validation procedures.
#
#######################################################################

data_AJAGEZ
_symmetry_cell_setting           orthorhombic
_symmetry_space_group_name_H-M   'P b c a'
_symmetry_Int_Tables_number      61
_space_group_name_Hall           '-P 2ac 2ab'
loop_
_symmetry_equiv_pos_site_id
_symmetry_equiv_pos_as_xyz
1 x,y,z
2 1/2+x,1/2-y,-z
3 -x,1/2+y,1/2-z
4 1/2-x,-y,1/2+z
5 -x,-y,-z
6 1/2-x,1/2+y,z
7 x,1/2-y,1/2+z
8 1/2+x,y,1/2-z
_cell_length_a                   8.2412(9)
_cell_length_b                   9.5237(11)
_cell_length_c                   17.800(2)
_cell_angle_alpha                90
_cell_angle_beta                 90
_cell_angle_gamma                90
_cell_volume                     1397.06
loop_
_atom_site_label
_atom_site_type_symbol
_atom_site_fract_x
_atom_site_fract_y
_atom_site_fract_z
N1 N 0.0034(2) 0.1911(3) 0.21193(11)
N2 N 0.0537(2) 0.02986(15) 0.11300(8)
Cu1 Cu 0.0000 0.0000 0.0000
C1 C -0.1154(2) 0.22208(18) 0.08877(9)
C2 C -0.01398(19) 0.1462(2) 0.14239(11)
C3 C 0.1690(3) -0.0100(2) 0.23225(15)
N3 N -0.2745(2) 0.35535(18) 0.02977(10)
C4 C 0.1457(3) -0.0474(2) 0.15885(11)
N4 N -0.12603(18) 0.17299(15) 0.01882(9)
N5 N -0.2263(2) 0.25845(16) -0.01792(12)
N6 N -0.2073(2) 0.33569(18) 0.09806(9)
C5 C 0.0957(3) 0.1110(3) 0.25660(12)
H1 H 0.232(4) -0.061(5) 0.2641(16)
H2 H 0.123(3) 0.145(3) 0.3066(19)
H3 H 0.190(3) -0.125(3) 0.1379(17)
N1D N -0.0034(2) -0.1911(3) -0.21193(11)
N2D N -0.0537(2) -0.02986(15) -0.11300(8)
C1D C 0.1154(2) -0.22208(18) -0.08877(9)
C2D C 0.01398(19) -0.1462(2) -0.14239(11)
C3D C -0.1690(3) 0.0100(2) -0.23225(15)
N3D N 0.2745(2) -0.35535(18) -0.02977(10)
C4D C -0.1457(3) 0.0474(2) -0.15885(11)
N4D N 0.12603(18) -0.17299(15) -0.01882(9)
N5D N 0.2263(2) -0.25845(16) 0.01792(12)
N6D N 0.2073(2) -0.33569(18) -0.09806(9)
C5D C -0.0957(3) -0.1110(3) -0.25660(12)
H1D H -0.232(4) 0.061(5) -0.2641(16)
H2D H -0.123(3) -0.145(3) -0.3066(19)
H3D H -0.190(3) 0.125(3) -0.1379(17)
Cu1A Cu -0.5000 0.5000 0.0000
Cu1A_2 Cu 0.5000 -0.5000 0.0000
N3A N 0.2255(2) 0.14465(18) -0.02977(10)
N3E N -0.2255(2) -0.14465(18) 0.02977(10)
loop_
_geom_bond_atom_site_label_1
_geom_bond_atom_site_label_2
_geom_bond_site_symmetry_1
_geom_bond_site_symmetry_2
N1 C2 1_555 1_555
N2 Cu1 1_555 1_555
Cu1 N4 1_555 1_555
C1 C2 1_555 1_555
C2 N2 1_555 1_555
C3 C4 1_555 1_555
N3 N5 1_555 1_555
C4 N2 1_555 1_555
N4 C1 1_555 1_555
N5 N4 1_555 1_555
N6 C1 1_555 1_555
C5 N1 1_555 1_555
H1 C3 1_555 1_555
H2 C5 1_555 1_555
H3 C4 1_555 1_555
N1D C2D 1_555 1_555
N2D Cu1 1_555 1_555
C1D C2D 1_555 1_555
C2D N2D 1_555 1_555
C3D C4D 1_555 1_555
N3D N5D 1_555 1_555
C4D N2D 1_555 1_555
N4D Cu1 1_555 1_555
N5D N4D 1_555 1_555
N6D C1D 1_555 1_555
C5D N1D 1_555 1_555
H1D C3D 1_555 1_555
H2D C5D 1_555 1_555
H3D C4D 1_555 1_555
Cu1A N3 1_555 1_555
Cu1A_2 N3D 1_555 1_555
N3A Cu1 1_555 1_555
N3E Cu1 1_555 1_555
C3 C5 1_555 1_555
N3 N6 1_555 1_555
C1D N4D 1_555 1_555
C3D C5D 1_555 1_555
N3D N6D 1_555 1_555

#END
