
#######################################################################
#
#                 Cambridge Crystallographic Data Centre
#                                CCDC 
#
#######################################################################
#
# If this CIF has been generated from an entry in the Cambridge 
# Structural Database, then it will include bibliographic, chemical, 
# crystal, experimental, refinement or atomic coordinate data resulting 
# from the CCDC's data processing and validation procedures.
#
#######################################################################

data_AJAGEY
_symmetry_cell_setting           triclinic
_symmetry_space_group_name_H-M   'P -1'
_symmetry_Int_Tables_number      2
_space_group_name_Hall           '-P 1'
loop_
_symmetry_equiv_pos_site_id
_symmetry_equiv_pos_as_xyz
1 x,y,z
2 -x,-y,-z
_cell_length_a                   6.8667(11)
_cell_length_b                   9.6144(15)
_cell_length_c                   13.465(2)
_cell_angle_alpha                78.886(3)
_cell_angle_beta                 89.642(3)
_cell_angle_gamma                71.235(3)
_cell_volume                     824.423
loop_
_atom_site_label
_atom_site_type_symbol
_atom_site_fract_x
_atom_site_fract_y
_atom_site_fract_z
Bi1 Bi 0.24087(6) -0.00775(4) 0.59768(3)
Br1 Br 0.45716(15) -0.17036(11) 0.46213(8)
Br2 Br 0.01003(16) -0.18930(11) 0.61054(8)
Br3 Br 0.47273(16) -0.17634(12) 0.75934(8)
C1 C 0.9143(17) 0.4115(11) 1.0667(8)
H1 H 0.8555 0.3503 1.1127
C2 C 1.0620(17) 0.4601(11) 1.1012(9)
H2 H 1.1048 0.4328 1.1712
C3 C 0.8494(15) 0.4507(11) 0.9651(8)
C4 C 0.6958(17) 0.3973(13) 0.9287(8)
C5 C 0.5720(17) 0.3509(12) 0.8978(8)
C6 C 0.4193(16) 0.3001(12) 0.8631(8)
C7 C 0.3277(16) 0.3543(12) 0.7650(8)
H3 H 0.3711 0.4261 0.7198
C8 C 0.1744(15) 0.3055(11) 0.7321(7)
C9 C 0.1195(17) 0.1930(12) 0.7968(8)
C10 C 0.2046(16) 0.1391(12) 0.8922(8)
H4 H 0.1631 0.0652 0.9361
C11 C 0.3518(15) 0.1912(12) 0.9259(8)
H5 H 0.4096 0.1526 0.9935
C12 C -0.2017(16) 0.4748(13) 0.6283(9)
H6 H -0.2422 0.4232 0.6910
H7 H -0.2917 0.4778 0.5711
H8 H -0.2144 0.5773 0.6341
C13 C -0.0840(19) -0.0154(14) 0.8439(9)
H9 H 0.0535 -0.0836 0.8698
H10 H -0.1626 -0.0717 0.8187
H11 H -0.1558 0.0304 0.8986
S1 S 0.0643(4) 0.3744(3) 0.60709(19)
S2 S -0.0606(4) 0.1276(3) 0.7433(2)
Bi1A Bi 0.75913(6) 0.00775(4) 0.40232(3)
Bi1A_2 Bi -0.24087(6) 0.00775(4) 0.40232(3)
Bi1A_3 Bi 1.75913(6) 1.00775(4) 1.40232(3)
Br1A Br 0.54284(15) 0.17036(11) 0.53787(8)
Br2A Br -0.01003(16) 0.18930(11) 0.38946(8)
Br2A_2 Br 0.98997(16) 0.18930(11) 0.38946(8)
Br2_2 Br 1.01003(16) -0.18930(11) 0.61054(8)
Br3A Br 0.52727(16) 0.17634(12) 0.24066(8)
C1A C 1.0857(17) 0.5885(11) 0.9333(8)
H1A H 1.1445 0.6497 0.8873
C2A C 0.9380(17) 0.5399(11) 0.8988(9)
H2A H 0.8952 0.5672 0.8288
C3A C 1.1506(15) 0.5493(11) 1.0349(8)
C4A C 1.3042(17) 0.6027(13) 1.0713(8)
C5A C 1.4280(17) 0.6491(12) 1.1022(8)
C6A C 1.5807(16) 0.6999(12) 1.1369(8)
C7A C 1.6723(16) 0.6457(12) 1.2350(8)
H3A H 1.6289 0.5739 1.2802
C8A C 1.8256(15) 0.6945(11) 1.2679(7)
C9A C 1.8805(17) 0.8070(12) 1.2032(8)
C10A C 1.7954(16) 0.8609(12) 1.1078(8)
H4A H 1.8369 0.9348 1.0639
C11A C 1.6482(15) 0.8088(12) 1.0741(8)
H5A H 1.5904 0.8474 1.0065
C12A C 2.2017(16) 0.5252(13) 1.3717(9)
H6A H 2.2422 0.5768 1.3090
H7A H 2.2917 0.5222 1.4289
H8A H 2.2144 0.4227 1.3659
C13A C 2.0840(19) 1.0154(14) 1.1561(9)
H9A H 1.9465 1.0836 1.1302
H10A H 2.1626 1.0717 1.1813
H11A H 2.1558 0.9696 1.1014
S1A S 1.9357(4) 0.6256(3) 1.39291(19)
S2A S 2.0606(4) 0.8724(3) 1.2567(2)
S2A_2 S 1.0606(4) -0.1276(3) 0.2567(2)
loop_
_geom_bond_atom_site_label_1
_geom_bond_atom_site_label_2
_geom_bond_site_symmetry_1
_geom_bond_site_symmetry_2
Bi1 Br1 1_555 1_555
Br1 Bi1A 1_555 1_555
Br2 Bi1 1_555 1_555
Br3 Bi1 1_555 1_555
C1 H1 1_555 1_555
C2 C1 1_555 1_555
H2 C2 1_555 1_555
C3 C1 1_555 1_555
C4 C3 1_555 1_555
C5 C4 1_555 1_555
C6 C5 1_555 1_555
C7 C6 1_555 1_555
H3 C7 1_555 1_555
C8 C7 1_555 1_555
C9 C8 1_555 1_555
C10 C9 1_555 1_555
H4 C10 1_555 1_555
C11 C6 1_555 1_555
H5 C11 1_555 1_555
C12 H6 1_555 1_555
H7 C12 1_555 1_555
H8 C12 1_555 1_555
C13 H9 1_555 1_555
H10 C13 1_555 1_555
H11 C13 1_555 1_555
S1 C8 1_555 1_555
S2 Bi1 1_555 1_555
Bi1A Br1A 1_555 1_555
Bi1A_2 Br2 1_555 1_555
Bi1A_3 S2A 1_555 1_555
Br1A Bi1 1_555 1_555
Br2A Bi1 1_555 1_555
Br2A_2 Bi1A 1_555 1_555
Br2_2 Bi1A 1_555 1_555
Br3A Bi1A 1_555 1_555
C1A H1A 1_555 1_555
C2A C3 1_555 1_555
H2A C2A 1_555 1_555
C3A C2 1_555 1_555
C4A C3A 1_555 1_555
C5A C4A 1_555 1_555
C6A C5A 1_555 1_555
C7A C6A 1_555 1_555
H3A C7A 1_555 1_555
C8A C7A 1_555 1_555
C9A C8A 1_555 1_555
C10A C9A 1_555 1_555
H4A C10A 1_555 1_555
C11A C6A 1_555 1_555
H5A C11A 1_555 1_555
C12A H6A 1_555 1_555
H7A C12A 1_555 1_555
H8A C12A 1_555 1_555
C13A H9A 1_555 1_555
H10A C13A 1_555 1_555
H11A C13A 1_555 1_555
S1A C8A 1_555 1_555
S2A C9A 1_555 1_555
S2A_2 Bi1A 1_555 1_555
C9 S2 1_555 1_555
C10 C11 1_555 1_555
C12 S1 1_555 1_555
C13 S2 1_555 1_555
Bi1A_2 Br2A 1_555 1_555
C1A C2A 1_555 1_555
C1A C3A 1_555 1_555
C10A C11A 1_555 1_555
C12A S1A 1_555 1_555
C13A S2A 1_555 1_555

#END
