
#######################################################################
#
#                 Cambridge Crystallographic Data Centre
#                                CCDC 
#
#######################################################################
#
# If this CIF has been generated from an entry in the Cambridge 
# Structural Database, then it will include bibliographic, chemical, 
# crystal, experimental, refinement or atomic coordinate data resulting 
# from the CCDC's data processing and validation procedures.
#
#######################################################################

data_AJAGOI
_symmetry_cell_setting           triclinic
_symmetry_space_group_name_H-M   'P -1'
_symmetry_Int_Tables_number      2
_space_group_name_Hall           '-P 1'
loop_
_symmetry_equiv_pos_site_id
_symmetry_equiv_pos_as_xyz
1 x,y,z
2 -x,-y,-z
_cell_length_a                   6.8728(12)
_cell_length_b                   15.743(3)
_cell_length_c                   19.521(3)
_cell_angle_alpha                113.300(3)
_cell_angle_beta                 93.955(3)
_cell_angle_gamma                95.226(3)
_cell_volume                     1919.05
loop_
_atom_site_label
_atom_site_type_symbol
_atom_site_fract_x
_atom_site_fract_y
_atom_site_fract_z
Bi1 Bi 0.26870(6) 0.01643(3) 0.57040(2)
Bi2 Bi 0.27851(6) 0.04786(3) 1.07048(2)
Br1 Br 0.12527(18) -0.03674(10) 0.66982(7)
Br2 Br 0.57432(17) -0.08314(9) 0.55545(6)
Br3 Br -0.06483(18) 0.13191(9) 0.55339(7)
Br4 Br 0.1461(2) 0.07295(10) 1.19897(7)
Br5 Br 0.58532(18) -0.04104(9) 1.08651(7)
Br6 Br -0.06370(17) 0.12305(9) 1.00396(7)
C1 C 0.3354(17) 0.2125(8) 0.7545(6)
C2 C 0.2906(17) 0.1944(8) 0.8165(6)
H1 H 0.3645 0.1556 0.8320
C3 C 0.1368(17) 0.2337(9) 0.8555(6)
H2 H 0.1065 0.2213 0.8977
C4 C 0.0265(16) 0.2907(8) 0.8340(6)
C5 C 0.0688(17) 0.3038(9) 0.7697(6)
H3 H -0.0108 0.3389 0.7520
C6 C 0.2263(15) 0.2664(8) 0.7305(6)
H4 H 0.2568 0.2783 0.6881
C7 C -0.1243(17) 0.3344(9) 0.8757(6)
C8 C -0.2463(16) 0.3769(9) 0.9127(6)
C9 C -0.3771(16) 0.4383(8) 0.9561(6)
C10 C -0.3417(16) 0.4762(8) 1.0367(6)
C11 C -0.5352(17) 0.4623(8) 0.9216(6)
H5 H -0.5593 0.4359 0.8684
C12 C -0.1888(17) 0.4479(9) 1.0720(7)
C13 C -0.0607(17) 0.4157(9) 1.0961(7)
C14 C 0.0989(16) 0.3730(8) 1.1157(6)
C15 C 0.1126(16) 0.3534(8) 1.1797(6)
H6 H 0.0171 0.3711 1.2140
C16 C 0.2646(17) 0.3082(8) 1.1932(6)
H7 H 0.2747 0.2957 1.2370
C17 C 0.4040(16) 0.2808(8) 1.1420(6)
C18 C 0.3914(17) 0.3007(8) 1.0785(6)
H8 H 0.4868 0.2827 1.0442
C19 C 0.2422(17) 0.3460(8) 1.0652(7)
H9 H 0.2348 0.3594 1.0218
C20 C 0.628(2) 0.2315(11) 1.2459(7)
H10 H 0.6740 0.2973 1.2774
H11 H 0.7253 0.1929 1.2526
H12 H 0.5024 0.2135 1.2607
C21 C 0.6414(19) 0.1000(9) 0.7474(7)
H13 H 0.6845 0.1409 0.8002
H14 H 0.7551 0.0749 0.7225
H15 H 0.5454 0.0485 0.7448
S1 S 0.5290(4) 0.1660(2) 0.70112(16)
S2 S 0.5942(5) 0.2145(2) 1.14836(18)
Bi1A Bi 0.73130(6) -0.01643(3) 0.42960(2)
Bi1A_2 Bi -0.26870(6) -0.01643(3) 0.42960(2)
Bi1A_3 Bi -1.26870(6) 0.98357(3) 1.42960(2)
Bi2A Bi -1.27851(6) 0.95214(3) 0.92952(2)
Bi2A_2 Bi 0.72149(6) -0.04786(3) 0.92952(2)
Bi2A_3 Bi -0.27851(6) -0.04786(3) 0.92952(2)
Br1A Br 0.87473(18) 0.03674(10) 0.33018(7)
Br2A Br 0.42568(17) 0.08314(9) 0.44455(6)
Br3A Br 0.06483(18) -0.13191(9) 0.44661(7)
Br3A_2 Br 1.06483(18) -0.13191(9) 0.44661(7)
Br3_2 Br 0.93517(18) 0.13191(9) 0.55339(7)
Br4A Br -1.1461(2) 0.92705(10) 0.80103(7)
Br5A Br 0.41468(18) 0.04104(9) 0.91349(7)
Br5A_2 Br -1.58532(18) 1.04104(9) 0.91349(7)
Br5_2 Br -1.41468(18) 0.95896(9) 1.08651(7)
Br6A Br 0.06370(17) -0.12305(9) 0.99604(7)
Br6A_2 Br -0.93630(17) 0.87695(9) 0.99604(7)
Br6_2 Br -1.06370(17) 1.12305(9) 1.00396(7)
C1A C -1.3354(17) 0.7875(8) 1.2455(6)
C2A C -1.2906(17) 0.8056(8) 1.1835(6)
H1A H -1.3645 0.8444 1.1680
C3A C -1.1368(17) 0.7663(9) 1.1445(6)
H2A H -1.1065 0.7787 1.1023
C4A C -1.0265(16) 0.7093(8) 1.1660(6)
C5A C -1.0688(17) 0.6962(9) 1.2303(6)
H3A H -0.9892 0.6611 1.2480
C6A C -1.2263(15) 0.7336(8) 1.2695(6)
H4A H -1.2568 0.7217 1.3119
C7A C -0.8757(17) 0.6656(9) 1.1243(6)
C8A C -0.7537(16) 0.6231(9) 1.0873(6)
C9A C -0.6229(16) 0.5617(8) 1.0439(6)
C10A C -0.6583(16) 0.5238(8) 0.9633(6)
C11A C -0.4648(17) 0.5377(8) 1.0784(6)
H5A H -0.4407 0.5641 1.1316
C12A C -0.8112(17) 0.5521(9) 0.9280(7)
C13A C -0.9393(17) 0.5843(9) 0.9039(7)
C14A C -1.0989(16) 0.6270(8) 0.8843(6)
C15A C -1.1126(16) 0.6466(8) 0.8203(6)
H6A H -1.0171 0.6289 0.7860
C16A C -1.2646(17) 0.6918(8) 0.8068(6)
H7A H -1.2747 0.7043 0.7630
C17A C -1.4040(16) 0.7192(8) 0.8580(6)
C18A C -1.3914(17) 0.6993(8) 0.9215(6)
H8A H -1.4868 0.7173 0.9558
C19A C -1.2422(17) 0.6540(8) 0.9348(7)
H9A H -1.2348 0.6406 0.9782
C20A C -1.628(2) 0.7685(11) 0.7541(7)
H10A H -1.6740 0.7027 0.7226
H11A H -1.7253 0.8071 0.7474
H12A H -1.5024 0.7865 0.7393
C21A C -1.6414(19) 0.9000(9) 1.2526(7)
H13A H -1.6845 0.8591 1.1998
H14A H -1.7551 0.9251 1.2775
H15A H -1.5454 0.9515 1.2552
S1A S -1.5290(4) 0.8340(2) 1.29888(16)
S1A_2 S 0.4710(4) -0.1660(2) 0.29888(16)
S2A S -1.5942(5) 0.7855(2) 0.85164(18)
C22 C 0.445(2) 0.3447(10) 0.5914(7)
H16 H 0.4535 0.2988 0.5427
C23 C 0.277(2) 0.3897(10) 0.6046(8)
H17 H 0.1717 0.3742 0.5658
C24 C 0.268(2) 0.4573(9) 0.6752(7)
H18 H 0.1567 0.4900 0.6848
C25 C 0.417(2) 0.4778(10) 0.7316(7)
H19 H 0.4066 0.5235 0.7802
C26 C 0.583(2) 0.4323(11) 0.7183(8)
H20 H 0.6874 0.4468 0.7574
C27 C 0.596(2) 0.3645(11) 0.6462(8)
H21 H 0.7086 0.3329 0.6359
C28 C 1.010(2) 0.6048(12) 0.5900(9)
H22 H 1.1349 0.5828 0.5879
C29 C 0.997(2) 0.6935(11) 0.5954(8)
H23 H 1.1111 0.7331 0.5966
C30 C 0.818(2) 0.7243(11) 0.5990(8)
H24 H 0.8101 0.7863 0.6038
C31 C 0.647(3) 0.6688(13) 0.5959(8)
H25 H 0.5229 0.6912 0.5976
C32 C 0.664(2) 0.5805(13) 0.5902(8)
H26 H 0.5489 0.5407 0.5881
C33 C 0.845(3) 0.5481(12) 0.5876(9)
H27 H 0.8537 0.4867 0.5840
loop_
_geom_bond_atom_site_label_1
_geom_bond_atom_site_label_2
_geom_bond_site_symmetry_1
_geom_bond_site_symmetry_2
Bi1 Br1 1_555 1_555
Bi2 Br4 1_555 1_555
Br2 Bi1 1_555 1_555
Br3 Bi1 1_555 1_555
Br5 Bi2 1_555 1_555
Br6 Bi2 1_555 1_555
C1 C2 1_555 1_555
C2 H1 1_555 1_555
C3 C2 1_555 1_555
H2 C3 1_555 1_555
C4 C3 1_555 1_555
C5 C4 1_555 1_555
H3 C5 1_555 1_555
C6 C1 1_555 1_555
H4 C6 1_555 1_555
C7 C4 1_555 1_555
C8 C7 1_555 1_555
C9 C8 1_555 1_555
C10 C9 1_555 1_555
C11 C9 1_555 1_555
H5 C11 1_555 1_555
C12 C10 1_555 1_555
C13 C12 1_555 1_555
C14 C13 1_555 1_555
C15 C14 1_555 1_555
H6 C15 1_555 1_555
C16 C15 1_555 1_555
H7 C16 1_555 1_555
C17 C16 1_555 1_555
C18 C17 1_555 1_555
H8 C18 1_555 1_555
C19 C14 1_555 1_555
H9 C19 1_555 1_555
C20 H10 1_555 1_555
H11 C20 1_555 1_555
H12 C20 1_555 1_555
C21 H13 1_555 1_555
H14 C21 1_555 1_555
H15 C21 1_555 1_555
C22 H16 1_555 1_555
C23 C22 1_555 1_555
H17 C23 1_555 1_555
C24 C23 1_555 1_555
H18 C24 1_555 1_555
C25 C24 1_555 1_555
H19 C25 1_555 1_555
C26 C25 1_555 1_555
H20 C26 1_555 1_555
C27 C22 1_555 1_555
H21 C27 1_555 1_555
C28 H22 1_555 1_555
C29 C28 1_555 1_555
H23 C29 1_555 1_555
C30 C29 1_555 1_555
H24 C30 1_555 1_555
C31 C30 1_555 1_555
H25 C31 1_555 1_555
C32 C31 1_555 1_555
H26 C32 1_555 1_555
C33 C28 1_555 1_555
H27 C33 1_555 1_555
S1 Bi1 1_555 1_555
S2 Bi2 1_555 1_555
Bi1A Br2 1_555 1_555
Bi1A_2 Br3 1_555 1_555
Bi1A_3 S1A 1_555 1_555
Bi2A Br4A 1_555 1_555
Bi2A_2 Br5 1_555 1_555
Bi2A_3 Br6 1_555 1_555
Br1A Bi1A 1_555 1_555
Br2A Bi1 1_555 1_555
Br3A Bi1 1_555 1_555
Br3A_2 Bi1A 1_555 1_555
Br3_2 Bi1A 1_555 1_555
Br5A Bi2 1_555 1_555
Br5A_2 Bi2A 1_555 1_555
Br5_2 Bi2A 1_555 1_555
Br6A Bi2 1_555 1_555
Br6A_2 Bi2A 1_555 1_555
Br6_2 Bi2A 1_555 1_555
C1A C2A 1_555 1_555
C2A H1A 1_555 1_555
C3A C2A 1_555 1_555
H2A C3A 1_555 1_555
C4A C3A 1_555 1_555
C5A C4A 1_555 1_555
H3A C5A 1_555 1_555
C6A C1A 1_555 1_555
H4A C6A 1_555 1_555
C7A C4A 1_555 1_555
C8A C7A 1_555 1_555
C9A C8A 1_555 1_555
C10A C11 1_555 1_555
C11A C10 1_555 1_555
H5A C11A 1_555 1_555
C12A C10A 1_555 1_555
C13A C12A 1_555 1_555
C14A C13A 1_555 1_555
C15A C14A 1_555 1_555
H6A C15A 1_555 1_555
C16A C15A 1_555 1_555
H7A C16A 1_555 1_555
C17A C16A 1_555 1_555
C18A C17A 1_555 1_555
H8A C18A 1_555 1_555
C19A C14A 1_555 1_555
H9A C19A 1_555 1_555
C20A H10A 1_555 1_555
H11A C20A 1_555 1_555
H12A C20A 1_555 1_555
C21A H13A 1_555 1_555
H14A C21A 1_555 1_555
H15A C21A 1_555 1_555
S1A C1A 1_555 1_555
S1A_2 Bi1A 1_555 1_555
S2A Bi2A 1_555 1_555
C1 S1 1_555 1_555
C5 C6 1_555 1_555
C17 S2 1_555 1_555
C18 C19 1_555 1_555
C20 S2 1_555 1_555
C21 S1 1_555 1_555
C26 C27 1_555 1_555
C32 C33 1_555 1_555
Bi1A Br2A 1_555 1_555
Bi1A_2 Br3A 1_555 1_555
Bi2A_2 Br5A 1_555 1_555
Bi2A_3 Br6A 1_555 1_555
C5A C6A 1_555 1_555
C9A C10A 1_555 1_555
C9A C11A 1_555 1_555
C17A S2A 1_555 1_555
C18A C19A 1_555 1_555
C20A S2A 1_555 1_555
C21A S1A 1_555 1_555

#END
