
#######################################################################
#
#                 Cambridge Crystallographic Data Centre
#                                CCDC 
#
#######################################################################
#
# If this CIF has been generated from an entry in the Cambridge 
# Structural Database, then it will include bibliographic, chemical, 
# crystal, experimental, refinement or atomic coordinate data resulting 
# from the CCDC's data processing and validation procedures.
#
#######################################################################

data_AJAHAV
_symmetry_cell_setting           triclinic
_symmetry_space_group_name_H-M   'P -1'
_symmetry_Int_Tables_number      2
_space_group_name_Hall           '-P 1'
loop_
_symmetry_equiv_pos_site_id
_symmetry_equiv_pos_as_xyz
1 x,y,z
2 -x,-y,-z
_cell_length_a                   9.2400(3)
_cell_length_b                   14.2253(5)
_cell_length_c                   14.7725(5)
_cell_angle_alpha                107.547(3)
_cell_angle_beta                 107.506(3)
_cell_angle_gamma                98.818(3)
_cell_volume                     1700.88
loop_
_atom_site_label
_atom_site_type_symbol
_atom_site_fract_x
_atom_site_fract_y
_atom_site_fract_z
Bi1 Bi 0.30430(3) 0.50796(2) 0.37340(2)
Bi2 Bi 0.06318(3) 0.71061(2) 0.290590(19)
Br1 Br 0.57236(9) 0.42773(7) 0.38759(6)
Br2 Br 0.16351(12) 0.47850(8) 0.17406(6)
Br3 Br 0.03528(8) 0.55984(6) 0.40432(5)
Br4 Br 0.45283(9) 0.70024(6) 0.39118(7)
Br5 Br -0.13190(9) 0.79136(7) 0.36280(6)
Br6 Br 0.07625(10) 0.80680(7) 0.16444(6)
C1 C 0.1408(9) 0.2783(6) 0.4211(5)
H1 H 0.0808 0.2112 0.4083
H2 H 0.1162 0.3284 0.4701
H3 H 0.2512 0.2828 0.4473
C2 C 0.1581(7) 0.2105(5) 0.2262(5)
C3 C 0.0879(7) 0.1844(5) 0.1224(5)
H4 H 0.0142 0.2167 0.0966
C4 C 0.1278(7) 0.1101(5) 0.0569(5)
H5 H 0.0795 0.0926 -0.0132
C5 C 0.2389(7) 0.0603(5) 0.0929(5)
C6 C 0.3072(7) 0.0884(5) 0.1967(5)
H6 H 0.3804 0.0558 0.2225
C7 C 0.2713(8) 0.1637(5) 0.2649(5)
H7 H 0.3218 0.1826 0.3349
C8 C 0.2781(7) -0.0200(5) 0.0200(4)
C9 C 0.2576(7) -0.0228(5) -0.0784(4)
H8 H 0.2154 0.0258 -0.0995
C10 C 0.2978(7) -0.0950(5) -0.1456(5)
C11 C 0.2848(7) -0.0942(5) -0.2491(4)
C12 C 0.2975(8) -0.0041(5) -0.2680(5)
H9 H 0.3029 0.0559 -0.2178
C13 C 0.3024(9) -0.0015(6) -0.3603(5)
H10 H 0.3130 0.0599 -0.3710
C14 C 0.2914(7) -0.0903(5) -0.4357(4)
C15 C 0.2182(11) 0.0097(6) -0.5736(6)
H11 H 0.1194 0.0018 -0.5642
H12 H 0.2019 0.0081 -0.6415
H13 H 0.2894 0.0740 -0.5248
C16 C 0.2784(8) -0.1795(5) -0.4186(5)
H14 H 0.2722 -0.2394 -0.4692
C17 C 0.2742(8) -0.1814(5) -0.3258(5)
H15 H 0.2639 -0.2431 -0.3156
C18 C 0.3593(7) -0.1689(5) -0.1145(5)
H16 H 0.3837 -0.2192 -0.1600
C19 C 0.3848(7) -0.1682(5) -0.0160(5)
C20 C 0.3425(7) -0.0942(5) 0.0488(5)
H17 H 0.3575 -0.0939 0.1141
C21 C 0.4707(7) -0.2382(5) 0.0189(5)
C22 C 0.5877(8) -0.2638(5) -0.0178(5)
H18 H 0.6055 -0.2398 -0.0665
C23 C 0.6774(8) -0.3238(5) 0.0165(5)
H19 H 0.7541 -0.3402 -0.0095
C24 C 0.6536(8) -0.3599(5) 0.0896(5)
C25 C 0.5373(8) -0.3372(6) 0.1254(5)
H20 H 0.5182 -0.3628 0.1729
C26 C 0.4483(8) -0.2763(6) 0.0912(5)
H21 H 0.3714 -0.2605 0.1173
C27 C 0.6850(10) -0.4947(7) 0.1942(7)
H22 H 0.6924 -0.4442 0.2567
H23 H 0.7362 -0.5450 0.2091
H24 H 0.5762 -0.5273 0.1518
S1 S 0.0927(2) 0.30161(14) 0.30432(13)
S2 S 0.3001(2) -0.09208(14) -0.55579(12)
S3 S 0.7789(2) -0.43430(15) 0.12876(15)
Bi1A Bi 0.69570(3) 0.49204(2) 0.62660(2)
Bi2_2 Bi 0.06318(3) -0.28939(2) -0.709410(19)
Bi2_3 Bi 1.06318(3) -0.28939(2) 0.290590(19)
Br1A Br 0.42764(9) 0.57227(7) 0.61241(6)
S2_2 S 0.3001(2) 0.90792(14) 0.44421(12)
S3_2 S -0.2211(2) 0.56570(15) 0.12876(15)
loop_
_geom_bond_atom_site_label_1
_geom_bond_atom_site_label_2
_geom_bond_site_symmetry_1
_geom_bond_site_symmetry_2
Bi1 Br1 1_555 1_555
Bi2 Br2 1_555 1_555
Br1 Bi1A 1_555 1_555
Br2 Bi1 1_555 1_555
Br3 Bi1 1_555 1_555
Br4 Bi1 1_555 1_555
Br5 Bi2 1_555 1_555
Br6 Bi2 1_555 1_555
C1 H1 1_555 1_555
H2 C1 1_555 1_555
H3 C1 1_555 1_555
C2 C3 1_555 1_555
C3 H4 1_555 1_555
C4 C3 1_555 1_555
H5 C4 1_555 1_555
C5 C4 1_555 1_555
C6 C5 1_555 1_555
H6 C6 1_555 1_555
C7 C2 1_555 1_555
H7 C7 1_555 1_555
C8 C5 1_555 1_555
C9 C8 1_555 1_555
H8 C9 1_555 1_555
C10 C9 1_555 1_555
C11 C10 1_555 1_555
C12 C11 1_555 1_555
H9 C12 1_555 1_555
C13 C12 1_555 1_555
H10 C13 1_555 1_555
C14 C13 1_555 1_555
C15 H11 1_555 1_555
H12 C15 1_555 1_555
H13 C15 1_555 1_555
C16 C14 1_555 1_555
H14 C16 1_555 1_555
C17 C11 1_555 1_555
H15 C17 1_555 1_555
C18 C10 1_555 1_555
H16 C18 1_555 1_555
C19 C18 1_555 1_555
C20 C8 1_555 1_555
H17 C20 1_555 1_555
C21 C19 1_555 1_555
C22 C21 1_555 1_555
H18 C22 1_555 1_555
C23 C22 1_555 1_555
H19 C23 1_555 1_555
C24 C23 1_555 1_555
C25 C24 1_555 1_555
H20 C25 1_555 1_555
C26 C21 1_555 1_555
H21 C26 1_555 1_555
C27 H22 1_555 1_555
H23 C27 1_555 1_555
H24 C27 1_555 1_555
S1 Bi1 1_555 1_555
S2 C14 1_555 1_555
S3 C24 1_555 1_555
Bi1A Br1A 1_555 1_555
Bi2_2 S2 1_555 1_555
Bi2_3 S3 1_555 1_555
Br1A Bi1 1_555 1_555
S2_2 Bi2 1_555 1_555
S3_2 Bi2 1_555 1_555
Bi2 Br3 1_555 1_555
Bi2 Br4 1_555 1_555
C1 S1 1_555 1_555
C2 S1 1_555 1_555
C6 C7 1_555 1_555
C15 S2 1_555 1_555
C16 C17 1_555 1_555
C19 C20 1_555 1_555
C25 C26 1_555 1_555
C27 S3 1_555 1_555

#END
