
#######################################################################
#
#                 Cambridge Crystallographic Data Centre
#                                CCDC 
#
#######################################################################
#
# If this CIF has been generated from an entry in the Cambridge 
# Structural Database, then it will include bibliographic, chemical, 
# crystal, experimental, refinement or atomic coordinate data resulting 
# from the CCDC's data processing and validation procedures.
#
#######################################################################

data_AJALUU
_symmetry_cell_setting           monoclinic
_symmetry_space_group_name_H-M   'P 21/c'
_symmetry_Int_Tables_number      14
_space_group_name_Hall           '-P 2ybc'
loop_
_symmetry_equiv_pos_site_id
_symmetry_equiv_pos_as_xyz
1 x,y,z
2 -x,1/2+y,1/2-z
3 -x,-y,-z
4 x,1/2-y,1/2+z
_cell_length_a                   11.2930(14)
_cell_length_b                   12.7554(15)
_cell_length_c                   19.524(2)
_cell_angle_alpha                90
_cell_angle_beta                 90.01
_cell_angle_gamma                90
_cell_volume                     2812.37
loop_
_atom_site_label
_atom_site_type_symbol
_atom_site_fract_x
_atom_site_fract_y
_atom_site_fract_z
Co1 Co 0.65230(2) 0.362866(19) 0.225914(12)
Co2 Co 1.0000 1.0000 0.0000
O1 O 0.65845(12) 0.51768(11) 0.26801(7)
H1 H 0.5797 0.5292 0.2731
H2 H 0.6836 0.5150 0.3074
O2 O 0.65454(12) 0.20984(11) 0.18007(7)
H3 H 0.7228 0.1939 0.1703
H4 H 0.6294 0.1552 0.2017
O3 O 0.99713(13) 1.04256(11) 0.10593(7)
H5 H 1.0652 1.0470 0.1203
H6 H 0.9623 1.0909 0.1252
O4 O -0.16552(13) 0.36608(12) 0.22246(8)
O5 O -0.11039(13) 0.22233(14) 0.16579(10)
O6 O 0.47385(12) 0.36627(11) 0.22334(8)
O7 O 0.42220(14) 0.52713(14) 0.25550(11)
O8 O 0.82102(12) 1.03170(13) -0.00616(8)
O9 O 0.76693(13) 0.95957(15) -0.10551(8)
N1 N 0.66478(17) 0.42913(14) 0.12409(8)
N2 N 0.65180(17) 0.21024(14) -0.17519(9)
N3 N 0.95115(17) 0.84516(14) 0.03109(10)
C1 C 0.39878(17) 0.43680(16) 0.23503(10)
C2 C 0.27194(17) 0.40575(17) 0.22301(11)
C3 C 0.2464(2) 0.3059(2) 0.19995(18)
H7 H 0.3078 0.2592 0.1910
C4 C 0.1304(2) 0.2747(2) 0.19005(18)
H8 H 0.1147 0.2075 0.1738
C5 C 0.03762(18) 0.34195(17) 0.20395(11)
C6 C 0.06303(19) 0.44217(19) 0.22702(15)
H9 H 0.0016 0.4886 0.2364
C7 C 0.1794(2) 0.47371(19) 0.23618(15)
H10 H 0.1954 0.5414 0.2514
C8 C -0.08861(17) 0.30716(17) 0.19615(11)
C9 C 0.6401(2) 0.37362(16) 0.06798(11)
H11 H 0.5954 0.3127 0.0725
C10 C 0.6783(2) 0.40296(18) 0.00301(11)
C11 C 0.7410(3) 0.49610(19) -0.00355(12)
H12 H 0.7663 0.5185 -0.0465
C12 C 0.7658(2) 0.55574(17) 0.05432(11)
C13 C 0.7266(2) 0.51819(17) 0.11710(11)
H13 H 0.7441 0.5567 0.1562
C14 C 0.6644(2) 0.33406(18) -0.05759(11)
C15 C 0.5628(3) 0.2936(4) -0.07961(19)
H14 H 0.4933 0.3055 -0.0552
C16 C 0.5603(3) 0.2336(4) -0.13902(19)
H15 H 0.4872 0.2086 -0.1537
C17 C 0.7521(3) 0.2418(4) -0.1502(2)
H16 H 0.8213 0.2209 -0.1720
C18 C 0.7617(3) 0.3047(4) -0.0930(2)
H17 H 0.8360 0.3272 -0.0787
C19 C 0.8336(2) 0.65487(17) 0.04879(11)
C20 C 0.9224(3) 0.66640(19) 0.00035(14)
H18 H 0.9441 0.6100 -0.0271
C21 C 0.9784(2) 0.76191(19) -0.00692(13)
H19 H 1.0377 0.7684 -0.0397
C22 C 0.8693(3) 0.83290(19) 0.08019(13)
H20 H 0.8522 0.8896 0.1085
C23 C 0.8093(3) 0.73987(19) 0.09066(13)
H21 H 0.7532 0.7344 0.1254
C24 C 0.74450(17) 0.99686(16) -0.04744(10)
C25 C 0.61782(17) 0.99830(17) -0.02287(11)
C26 C 0.58716(19) 1.0497(2) 0.03752(11)
H22 H 0.6455 1.0834 0.0629
C27 C 0.52895(19) 0.9486(2) -0.06019(11)
H23 H 0.5478 0.9140 -0.1007
O8B O 0.17898(12) 0.96830(13) 0.00616(8)
O9B O 0.23307(13) 1.04043(15) 0.10551(8)
C24B C 0.25550(17) 1.00314(16) 0.04744(10)
C25B C 0.38218(17) 1.00170(17) 0.02287(11)
C26B C 0.41284(19) 0.9503(2) -0.03752(11)
H22B H 0.3545 0.9166 -0.0629
C27B C 0.47105(19) 1.0514(2) 0.06019(11)
H23B H 0.4522 1.0860 0.1007
Co1_2 Co 1.65230(2) 0.362866(19) 0.225914(12)
O1_2 O 1.65845(12) 0.51768(11) 0.26801(7)
H1_2 H 1.5797 0.5292 0.2731
H2_2 H 1.6836 0.5150 0.3074
O2_2 O 1.65454(12) 0.20984(11) 0.18007(7)
H3_2 H 1.7228 0.1939 0.1703
H4_2 H 1.6294 0.1552 0.2017
O4_2 O 0.83448(13) 0.36608(12) 0.22246(8)
O5_2 O 0.88961(13) 0.22233(14) 0.16579(10)
O6_2 O 1.47385(12) 0.36627(11) 0.22334(8)
O7_2 O 1.42220(14) 0.52713(14) 0.25550(11)
N1_2 N 1.66478(17) 0.42913(14) 0.12409(8)
N2_2 N 1.65180(17) 0.21024(14) -0.17519(9)
N3_2 N 1.95115(17) 0.84516(14) 0.03109(10)
C1_2 C 1.39878(17) 0.43680(16) 0.23503(10)
C2_2 C 1.27194(17) 0.40575(17) 0.22301(11)
C3_2 C 1.2464(2) 0.3059(2) 0.19995(18)
H7_2 H 1.3078 0.2592 0.1910
C4_2 C 1.1304(2) 0.2747(2) 0.19005(18)
H8_2 H 1.1147 0.2075 0.1738
C5_2 C 1.03762(18) 0.34195(17) 0.20395(11)
C6_2 C 1.06303(19) 0.44217(19) 0.22702(15)
H9_2 H 1.0016 0.4886 0.2364
C7_2 C 1.1794(2) 0.47371(19) 0.23618(15)
H10_2 H 1.1954 0.5414 0.2514
C8_2 C 0.91139(17) 0.30716(17) 0.19615(11)
C9_2 C 1.6401(2) 0.37362(16) 0.06798(11)
H11_2 H 1.5954 0.3127 0.0725
C10_2 C 1.6783(2) 0.40296(18) 0.00301(11)
C11_2 C 1.7410(3) 0.49610(19) -0.00355(12)
H12_2 H 1.7663 0.5185 -0.0465
C12_2 C 1.7658(2) 0.55574(17) 0.05432(11)
C13_2 C 1.7266(2) 0.51819(17) 0.11710(11)
H13_2 H 1.7441 0.5567 0.1562
C14_2 C 1.6644(2) 0.33406(18) -0.05759(11)
C15_2 C 1.5628(3) 0.2936(4) -0.07961(19)
H14_2 H 1.4933 0.3055 -0.0552
C16_2 C 1.5603(3) 0.2336(4) -0.13902(19)
H15_2 H 1.4872 0.2086 -0.1537
C17_2 C 1.7521(3) 0.2418(4) -0.1502(2)
H16_2 H 1.8213 0.2209 -0.1720
C18_2 C 1.7617(3) 0.3047(4) -0.0930(2)
H17_2 H 1.8360 0.3272 -0.0787
C19_2 C 1.8336(2) 0.65487(17) 0.04879(11)
C20_2 C 1.9224(3) 0.66640(19) 0.00035(14)
H18_2 H 1.9441 0.6100 -0.0271
C21_2 C 1.9784(2) 0.76191(19) -0.00692(13)
H19_2 H 2.0377 0.7684 -0.0397
C22_2 C 1.8693(3) 0.83290(19) 0.08019(13)
H20_2 H 1.8522 0.8896 0.1085
C23_2 C 1.8093(3) 0.73987(19) 0.09066(13)
H21_2 H 1.7532 0.7344 0.1254
O3B O 1.00287(13) 0.95744(11) -0.10593(7)
H5B H 0.9348 0.9530 -0.1203
H6B H 1.0377 0.9091 -0.1252
Co1_3 Co -0.34770(2) 0.362866(19) 0.225914(12)
Co1C Co 0.65230(2) 0.137134(19) -0.274086(12)
Co1C_2 Co 1.65230(2) 0.137134(19) -0.274086(12)
Co2_2 Co 0.0000 1.0000 0.0000
Co2_3 Co 2.0000 1.0000 0.0000
O4_3 O 1.83448(13) 0.36608(12) 0.22246(8)
O8B_2 O 1.17898(12) 0.96830(13) 0.00616(8)
N2C N 0.65180(17) 0.28976(14) 0.32481(9)
N2C_2 N 1.65180(17) 0.28976(14) 0.32481(9)
N3B N 1.04885(17) 1.15484(14) -0.03109(10)
loop_
_geom_bond_atom_site_label_1
_geom_bond_atom_site_label_2
_geom_bond_site_symmetry_1
_geom_bond_site_symmetry_2
Co1 O1 1_555 1_555
Co2 O3 1_555 1_555
O1 H1 1_555 1_555
H2 O1 1_555 1_555
O2 Co1 1_555 1_555
H3 O2 1_555 1_555
H4 O2 1_555 1_555
O3 H5 1_555 1_555
H6 O3 1_555 1_555
O4 C8 1_555 1_555
O5 C8 1_555 1_555
O6 Co1 1_555 1_555
O7 C1 1_555 1_555
O8 Co2 1_555 1_555
O9 C24 1_555 1_555
N1 Co1 1_555 1_555
N2 C16 1_555 1_555
N3 Co2 1_555 1_555
C1 O6 1_555 1_555
C2 C1 1_555 1_555
C3 C2 1_555 1_555
H7 C3 1_555 1_555
C4 C3 1_555 1_555
H8 C4 1_555 1_555
C5 C4 1_555 1_555
C6 C5 1_555 1_555
H9 C6 1_555 1_555
C7 C2 1_555 1_555
H10 C7 1_555 1_555
C8 C5 1_555 1_555
C9 N1 1_555 1_555
H11 C9 1_555 1_555
C10 C9 1_555 1_555
C11 C10 1_555 1_555
H12 C11 1_555 1_555
C12 C11 1_555 1_555
C13 N1 1_555 1_555
H13 C13 1_555 1_555
C14 C10 1_555 1_555
C15 C14 1_555 1_555
H14 C15 1_555 1_555
C16 C15 1_555 1_555
H15 C16 1_555 1_555
C17 N2 1_555 1_555
H16 C17 1_555 1_555
C18 C14 1_555 1_555
H17 C18 1_555 1_555
C19 C12 1_555 1_555
C20 C19 1_555 1_555
H18 C20 1_555 1_555
C21 N3 1_555 1_555
H19 C21 1_555 1_555
C22 N3 1_555 1_555
H20 C22 1_555 1_555
C23 C19 1_555 1_555
H21 C23 1_555 1_555
C24 O8 1_555 1_555
C25 C24 1_555 1_555
C26 C25 1_555 1_555
H22 C26 1_555 1_555
C27 C25 1_555 1_555
H23 C27 1_555 1_555
O8B C24B 1_555 1_555
O9B C24B 1_555 1_555
C24B C25B 1_555 1_555
C25B C26B 1_555 1_555
C26B C27 1_555 1_555
H22B C26B 1_555 1_555
C27B C26 1_555 1_555
H23B C27B 1_555 1_555
Co1_2 O1_2 1_555 1_555
O1_2 H1_2 1_555 1_555
H2_2 O1_2 1_555 1_555
O2_2 Co1_2 1_555 1_555
H3_2 O2_2 1_555 1_555
H4_2 O2_2 1_555 1_555
O4_2 Co1 1_555 1_555
O5_2 C8_2 1_555 1_555
O6_2 Co1_2 1_555 1_555
O7_2 C1_2 1_555 1_555
N1_2 Co1_2 1_555 1_555
N2_2 C16_2 1_555 1_555
N3_2 C21_2 1_555 1_555
C1_2 O6_2 1_555 1_555
C2_2 C1_2 1_555 1_555
C3_2 C2_2 1_555 1_555
H7_2 C3_2 1_555 1_555
C4_2 C3_2 1_555 1_555
H8_2 C4_2 1_555 1_555
C5_2 C4_2 1_555 1_555
C6_2 C5_2 1_555 1_555
H9_2 C6_2 1_555 1_555
C7_2 C2_2 1_555 1_555
H10_2 C7_2 1_555 1_555
C8_2 O4_2 1_555 1_555
C9_2 N1_2 1_555 1_555
H11_2 C9_2 1_555 1_555
C10_2 C9_2 1_555 1_555
C11_2 C10_2 1_555 1_555
H12_2 C11_2 1_555 1_555
C12_2 C11_2 1_555 1_555
C13_2 N1_2 1_555 1_555
H13_2 C13_2 1_555 1_555
C14_2 C10_2 1_555 1_555
C15_2 C14_2 1_555 1_555
H14_2 C15_2 1_555 1_555
C16_2 C15_2 1_555 1_555
H15_2 C16_2 1_555 1_555
C17_2 N2_2 1_555 1_555
H16_2 C17_2 1_555 1_555
C18_2 C14_2 1_555 1_555
H17_2 C18_2 1_555 1_555
C19_2 C12_2 1_555 1_555
C20_2 C19_2 1_555 1_555
H18_2 C20_2 1_555 1_555
C21_2 C20_2 1_555 1_555
H19_2 C21_2 1_555 1_555
C22_2 N3_2 1_555 1_555
H20_2 C22_2 1_555 1_555
C23_2 C19_2 1_555 1_555
H21_2 C23_2 1_555 1_555
O3B Co2 1_555 1_555
H5B O3B 1_555 1_555
H6B O3B 1_555 1_555
Co1_3 O4 1_555 1_555
Co1C N2 1_555 1_555
Co1C_2 N2_2 1_555 1_555
Co2_2 O8B 1_555 1_555
Co2_3 N3_2 1_555 1_555
O4_3 Co1_2 1_555 1_555
O8B_2 Co2 1_555 1_555
N2C Co1 1_555 1_555
N2C_2 Co1_2 1_555 1_555
N3B Co2 1_555 1_555
C6 C7 1_555 1_555
C12 C13 1_555 1_555
C17 C18 1_555 1_555
C20 C21 1_555 1_555
C22 C23 1_555 1_555
C25B C27B 1_555 1_555
C5_2 C8_2 1_555 1_555
C6_2 C7_2 1_555 1_555
C12_2 C13_2 1_555 1_555
C17_2 C18_2 1_555 1_555
C22_2 C23_2 1_555 1_555

#END
