
#######################################################################
#
#                 Cambridge Crystallographic Data Centre
#                                CCDC 
#
#######################################################################
#
# If this CIF has been generated from an entry in the Cambridge 
# Structural Database, then it will include bibliographic, chemical, 
# crystal, experimental, refinement or atomic coordinate data resulting 
# from the CCDC's data processing and validation procedures.
#
#######################################################################

data_AJAMEF
_symmetry_cell_setting           monoclinic
_symmetry_space_group_name_H-M   'C 2/c'
_symmetry_Int_Tables_number      15
_space_group_name_Hall           '-C 2yn'
loop_
_symmetry_equiv_pos_site_id
_symmetry_equiv_pos_as_xyz
1 x,y,z
2 -x,y,1/2-z
3 1/2+x,1/2+y,z
4 1/2-x,1/2+y,1/2-z
5 -x,-y,-z
6 x,-y,1/2+z
7 1/2-x,1/2-y,-z
8 1/2+x,1/2-y,1/2+z
_cell_length_a                   10.895(3)
_cell_length_b                   17.520(4)
_cell_length_c                   20.545(6)
_cell_angle_alpha                90
_cell_angle_beta                 99.160(3)
_cell_angle_gamma                90
_cell_volume                     3871.63
loop_
_atom_site_label
_atom_site_type_symbol
_atom_site_fract_x
_atom_site_fract_y
_atom_site_fract_z
O1 O 0.447(3) 0.6593(13) 0.6814(15)
H1 H 0.3860 0.6328 0.6810
H2 H 0.5117 0.6296 0.6766
O2 O 0.3558(3) 0.94386(17) 0.50388(16)
N1 N 1.4903(3) 0.9808(2) 0.86938(18)
C1 C 1.3797(5) 1.0074(3) 0.8406(2)
H3 H 1.3600 1.0579 0.8483
C2 C 1.5143(4) 0.9082(3) 0.8562(2)
H4 H 1.5913 0.8885 0.8745
Co1 Co 0.61894(5) 0.96007(3) 0.44289(3)
N2 N 0.7576(3) 0.9107(2) 0.51651(17)
C3 C 1.3178(4) 0.8884(3) 0.7884(2)
C4 C 0.3946(4) 0.8854(2) 0.4797(2)
C5 C 0.7492(4) 0.8412(2) 0.5429(2)
H5 H 0.6786 0.8123 0.5283
C6 C 0.9468(4) 0.8520(2) 0.61270(19)
C7 C 1.2265(4) 0.8387(3) 0.74703(19)
C8 C 1.1312(4) 0.8690(3) 0.70116(19)
H6 H 1.1238 0.9217 0.6961
C9 C 0.8386(4) 0.8103(3) 0.5902(2)
H7 H 0.8274 0.7620 0.6072
C10 C 1.0469(4) 0.8213(2) 0.66287(19)
C11 C 0.9557(4) 0.9237(3) 0.5850(2)
H8 H 1.0255 0.9538 0.5982
C12 C 1.4337(4) 0.8609(3) 0.8176(2)
H9 H 1.4560 0.8107 0.8109
C13 C 0.8612(4) 0.9500(3) 0.5379(2)
H10 H 0.8699 0.9980 0.5199
N3 N 1.1528(4) 0.7122(2) 0.7157(2)
C14 C 1.2320(4) 0.7593(3) 0.7522(2)
H11 H 1.2945 0.7379 0.7829
C15 C 1.0631(4) 0.7431(3) 0.6727(2)
H12 H 1.0072 0.7105 0.6475
O3 O 0.4963(3) 0.88056(17) 0.45847(16)
C16 C 1.2939(4) 0.9643(3) 0.8006(2)
H13 H 1.2191 0.9862 0.7814
C17 C 0.3146(4) 0.8145(2) 0.4742(2)
H14 H 0.2987 0.8002 0.4275
O4 O 0.7639(3) 0.9916(2) 0.38637(17)
O5 O 0.6936(4) 0.8782(2) 0.37279(19)
N4 N 0.7714(4) 0.9268(3) 0.3602(2)
C18 C 0.3862(4) 0.7484(3) 0.5115(3)
H15 H 0.4064 0.7615 0.5579
H16 H 0.4635 0.7405 0.4947
C19 C 0.1898(4) 0.8256(3) 0.4958(3)
H17 H 0.1442 0.8653 0.4693
H18 H 0.2019 0.8419 0.5415
O6 O 0.8492(4) 0.9139(3) 0.3245(2)
O2F O 0.1442(3) 0.55614(17) 0.49612(16)
C4F C 0.1054(4) 0.6146(2) 0.5203(2)
O3F O 0.0037(3) 0.61944(17) 0.54153(16)
C17F C 0.1854(4) 0.6855(2) 0.5258(2)
H14F H 0.2013 0.6998 0.5725
C18F C 0.1138(4) 0.7516(3) 0.4885(3)
H15F H 0.0936 0.7385 0.4421
H16F H 0.0365 0.7595 0.5053
C19F C 0.3102(4) 0.6744(3) 0.5042(3)
H17F H 0.3558 0.6347 0.5307
H18F H 0.2981 0.6581 0.4585
N1D N -0.4903(3) 1.0192(2) 0.13062(18)
C1D C -0.3797(5) 0.9926(3) 0.1594(2)
H3D H -0.3600 0.9421 0.1517
C2D C -0.5143(4) 1.0918(3) 0.1438(2)
H4D H -0.5913 1.1115 0.1255
Co1D Co 0.38106(5) 1.03993(3) 0.55711(3)
N2D N 0.2424(3) 1.0893(2) 0.48349(17)
C3D C -0.3178(4) 1.1116(3) 0.2116(2)
C5D C 0.2508(4) 1.1588(2) 0.4571(2)
H5D H 0.3214 1.1877 0.4717
C6D C 0.0532(4) 1.1480(2) 0.38730(19)
C7D C -0.2265(4) 1.1613(3) 0.25297(19)
C8D C -0.1312(4) 1.1310(3) 0.29884(19)
H6D H -0.1238 1.0783 0.3039
C9D C 0.1614(4) 1.1897(3) 0.4098(2)
H7D H 0.1726 1.2380 0.3928
C10D C -0.0469(4) 1.1787(2) 0.33713(19)
C11D C 0.0443(4) 1.0763(3) 0.4150(2)
H8D H -0.0255 1.0462 0.4018
C12D C -0.4337(4) 1.1391(3) 0.1824(2)
H9D H -0.4560 1.1893 0.1891
C13D C 0.1388(4) 1.0500(3) 0.4621(2)
H10D H 0.1301 1.0020 0.4801
N3D N -0.1528(4) 1.2878(2) 0.2843(2)
C14D C -0.2320(4) 1.2407(3) 0.2478(2)
H11D H -0.2945 1.2621 0.2171
C15D C -0.0631(4) 1.2569(3) 0.3273(2)
H12D H -0.0072 1.2895 0.3525
C16D C -0.2939(4) 1.0357(3) 0.1994(2)
H13D H -0.2191 1.0138 0.2186
O4D O 0.2361(3) 1.0084(2) 0.61363(17)
O5D O 0.3064(4) 1.1218(2) 0.62721(19)
N4D N 0.2286(4) 1.0732(3) 0.6398(2)
O6D O 0.1508(4) 1.0861(3) 0.6755(2)
O2D O 0.6442(3) 1.05614(17) 0.49612(16)
N1A N 0.5097(3) 0.9808(2) 0.63062(18)
N1E N 0.4903(3) 1.0192(2) 0.36938(18)
Co1A Co -0.61894(5) 0.96007(3) 0.05711(3)
Co1B Co 0.11894(5) 0.46007(3) 0.44289(3)
Co1E Co 1.61894(5) 1.03993(3) 0.94289(3)
Co1F Co -0.11894(5) 0.53993(3) 0.55711(3)
O3D O 0.5037(3) 1.11944(17) 0.54153(16)
loop_
_geom_bond_atom_site_label_1
_geom_bond_atom_site_label_2
_geom_bond_site_symmetry_1
_geom_bond_site_symmetry_2
O1 H1 1_555 1_555
H2 O1 1_555 1_555
O2 C4 1_555 1_555
N1 C1 1_555 1_555
C1 H3 1_555 1_555
C2 N1 1_555 1_555
H4 C2 1_555 1_555
Co1 N2 1_555 1_555
N2 C5 1_555 1_555
C3 C7 1_555 1_555
C4 O3 1_555 1_555
C5 H5 1_555 1_555
C6 C9 1_555 1_555
C7 C8 1_555 1_555
C8 H6 1_555 1_555
C9 C5 1_555 1_555
H7 C9 1_555 1_555
C10 C6 1_555 1_555
C11 C6 1_555 1_555
H8 C11 1_555 1_555
C12 C2 1_555 1_555
H9 C12 1_555 1_555
C13 N2 1_555 1_555
H10 C13 1_555 1_555
N3 C14 1_555 1_555
C14 C7 1_555 1_555
H11 C14 1_555 1_555
C15 C10 1_555 1_555
H12 C15 1_555 1_555
O3 Co1 1_555 1_555
C16 C1 1_555 1_555
H13 C16 1_555 1_555
C17 C4 1_555 1_555
H14 C17 1_555 1_555
O4 Co1 1_555 1_555
O5 Co1 1_555 1_555
N4 O4 1_555 1_555
C18 C17 1_555 1_555
H15 C18 1_555 1_555
H16 C18 1_555 1_555
C19 C17 1_555 1_555
H17 C19 1_555 1_555
H18 C19 1_555 1_555
O6 N4 1_555 1_555
O2F C4F 1_555 1_555
C4F O3F 1_555 1_555
O3F Co1F 1_555 1_555
C17F C4F 1_555 1_555
H14F C17F 1_555 1_555
C18F C19 1_555 1_555
H15F C18F 1_555 1_555
H16F C18F 1_555 1_555
C19F C18 1_555 1_555
H17F C19F 1_555 1_555
H18F C19F 1_555 1_555
N1D C1D 1_555 1_555
C1D H3D 1_555 1_555
C2D N1D 1_555 1_555
H4D C2D 1_555 1_555
Co1D O2 1_555 1_555
N2D Co1D 1_555 1_555
C3D C7D 1_555 1_555
C5D N2D 1_555 1_555
H5D C5D 1_555 1_555
C6D C9D 1_555 1_555
C7D C8D 1_555 1_555
C8D H6D 1_555 1_555
C9D C5D 1_555 1_555
H7D C9D 1_555 1_555
C10D C6D 1_555 1_555
C11D C6D 1_555 1_555
H8D C11D 1_555 1_555
C12D C2D 1_555 1_555
H9D C12D 1_555 1_555
C13D N2D 1_555 1_555
H10D C13D 1_555 1_555
N3D C14D 1_555 1_555
C14D C7D 1_555 1_555
H11D C14D 1_555 1_555
C15D C10D 1_555 1_555
H12D C15D 1_555 1_555
C16D C1D 1_555 1_555
H13D C16D 1_555 1_555
O4D Co1D 1_555 1_555
O5D Co1D 1_555 1_555
N4D O4D 1_555 1_555
O6D N4D 1_555 1_555
O2D Co1 1_555 1_555
N1A Co1D 1_555 1_555
N1E Co1 1_555 1_555
Co1A N1D 1_555 1_555
Co1B O2F 1_555 1_555
Co1E N1 1_555 1_555
O3D Co1D 1_555 1_555
C3 C12 1_555 1_555
C3 C16 1_555 1_555
C8 C10 1_555 1_555
C11 C13 1_555 1_555
N3 C15 1_555 1_555
O5 N4 1_555 1_555
C17F C18F 1_555 1_555
C17F C19F 1_555 1_555
C3D C12D 1_555 1_555
C3D C16D 1_555 1_555
C8D C10D 1_555 1_555
C11D C13D 1_555 1_555
N3D C15D 1_555 1_555
O5D N4D 1_555 1_555

#END
