
#######################################################################
#
#                 Cambridge Crystallographic Data Centre
#                                CCDC 
#
#######################################################################
#
# If this CIF has been generated from an entry in the Cambridge 
# Structural Database, then it will include bibliographic, chemical, 
# crystal, experimental, refinement or atomic coordinate data resulting 
# from the CCDC's data processing and validation procedures.
#
#######################################################################

data_AJAMAB
_symmetry_cell_setting           monoclinic
_symmetry_space_group_name_H-M   'P 21/c'
_symmetry_Int_Tables_number      14
_space_group_name_Hall           '-P 2ybc'
loop_
_symmetry_equiv_pos_site_id
_symmetry_equiv_pos_as_xyz
1 x,y,z
2 -x,1/2+y,1/2-z
3 -x,-y,-z
4 x,1/2-y,1/2+z
_cell_length_a                   11.2710(18)
_cell_length_b                   12.618(2)
_cell_length_c                   19.339(3)
_cell_angle_alpha                90
_cell_angle_beta                 90.01
_cell_angle_gamma                90
_cell_volume                     2750.34
loop_
_atom_site_label
_atom_site_type_symbol
_atom_site_fract_x
_atom_site_fract_y
_atom_site_fract_z
Ni1 Ni 0.15367(3) -0.13804(3) 0.22498(2)
Ni2 Ni 0.5000 0.5000 0.0000
N1 N 0.1667(3) -0.0731(3) 0.12511(15)
C1 C 0.2670(4) 0.0546(3) 0.0545(2)
O1 O -0.0244(2) -0.1367(2) 0.22035(14)
O2 O -0.6651(2) -0.1335(2) 0.22351(15)
O3 O 0.3215(2) 0.5334(2) -0.00476(13)
O4 O 0.1542(2) -0.2900(2) 0.18004(14)
H1 H 0.2227 -0.3078 0.1716
O5 O 0.4971(2) 0.5401(2) 0.10480(13)
H2 H 0.5653 0.5465 0.1190
O6 O 0.1593(2) 0.0146(2) 0.26667(13)
H3 H 0.1826 0.0117 0.3068
O7 O 0.2686(2) 0.4616(3) -0.10561(14)
N2 N 0.1510(4) -0.2906(3) -0.17774(17)
O8 O -0.6109(2) -0.2793(2) 0.16653(17)
N3 N 0.4509(3) 0.3475(3) 0.02959(17)
O9 O -0.0751(2) 0.0252(2) 0.25481(19)
C2 C 0.1183(3) 0.4995(3) -0.02254(19)
C3 C 0.4782(4) 0.2637(4) -0.0084(2)
H4 H 0.5374 0.2703 -0.0416
C4 C -0.0991(3) -0.0656(3) 0.23317(19)
C5 C 0.1400(4) -0.1284(3) 0.0689(2)
H5 H 0.0944 -0.1894 0.0736
C6 C 0.2403(5) -0.0048(4) -0.0034(2)
H6 H 0.2646 0.0182 -0.0469
C7 C 0.3342(4) 0.1552(3) 0.0488(2)
C8 C -0.4619(3) -0.1591(3) 0.2043(2)
C9 C 0.1774(4) -0.0986(3) 0.0031(2)
C10 C -0.2261(3) -0.0962(3) 0.2219(2)
C11 C -0.5887(3) -0.1940(3) 0.1970(2)
C12 C 0.1629(5) -0.1680(3) -0.0581(2)
C13 C 0.2292(4) 0.0163(3) 0.1182(2)
H7 H 0.2483 0.0545 0.1578
C14 C -0.4346(3) -0.0580(4) 0.2263(3)
H8 H -0.4955 -0.0102 0.2353
C15 C -0.3696(4) -0.2287(4) 0.1907(3)
H9 H -0.3860 -0.2969 0.1751
C16 C -0.3185(3) -0.0267(3) 0.2351(3)
H10 H -0.3019 0.0418 0.2500
C17 C 0.2459(3) 0.4978(3) -0.04667(19)
C18 C 0.3100(5) 0.2409(4) 0.0904(2)
H11 H 0.2542 0.2353 0.1256
C19 C 0.0867(3) 0.5489(4) 0.0385(2)
H12 H 0.1448 0.5819 0.0651
C20 C 0.0606(6) -0.2030(5) -0.0831(3)
H13 H -0.0099 -0.1878 -0.0601
C21 C 0.0586(6) -0.2623(5) -0.1434(3)
H14 H -0.0150 -0.2832 -0.1603
C22 C 0.0301(3) 0.4497(4) -0.0608(2)
H15 H 0.0497 0.4152 -0.1017
C23 C -0.2534(4) -0.1971(4) 0.2001(3)
H16 H -0.1924 -0.2449 0.1915
C24 C 0.2516(6) -0.2661(5) -0.1489(3)
H17 H 0.3208 -0.2931 -0.1683
C25 C 0.3691(4) 0.3354(4) 0.0794(2)
H18 H 0.3515 0.3929 0.1077
C26 C 0.4229(5) 0.1668(4) -0.0008(2)
H19 H 0.4445 0.1098 -0.0286
C27 C 0.2619(6) -0.2030(6) -0.0917(4)
H20 H 0.3366 -0.1840 -0.0756
H21 H 0.086(5) 0.026(5) 0.270(3)
H22 H 0.458(4) 0.588(4) 0.123(3)
H23 H 0.125(5) -0.346(4) 0.202(3)
O3B O -0.3215(2) 0.4666(2) 0.00476(13)
O7B O -0.2686(2) 0.5384(3) 0.10561(14)
C2B C -0.1183(3) 0.5005(3) 0.02254(19)
C17B C -0.2459(3) 0.5022(3) 0.04667(19)
C19B C -0.0867(3) 0.4511(4) -0.0385(2)
H12B H -0.1448 0.4181 -0.0651
C22B C -0.0301(3) 0.5503(4) 0.0608(2)
H15B H -0.0497 0.5848 0.1017
Ni1_2 Ni 1.15367(3) -0.13804(3) 0.22498(2)
N1_2 N 1.1667(3) -0.0731(3) 0.12511(15)
C1_2 C 1.2670(4) 0.0546(3) 0.0545(2)
O1_2 O 0.9756(2) -0.1367(2) 0.22035(14)
O2_2 O 0.3349(2) -0.1335(2) 0.22351(15)
O4_2 O 1.1542(2) -0.2900(2) 0.18004(14)
H1_2 H 1.2227 -0.3078 0.1716
O6_2 O 1.1593(2) 0.0146(2) 0.26667(13)
H3_2 H 1.1826 0.0117 0.3068
N2_2 N 1.1510(4) -0.2906(3) -0.17774(17)
O8_2 O 0.3891(2) -0.2793(2) 0.16653(17)
N3_2 N 1.4509(3) 0.3475(3) 0.02959(17)
O9_2 O 0.9249(2) 0.0252(2) 0.25481(19)
C3_2 C 1.4782(4) 0.2637(4) -0.0084(2)
H4_2 H 1.5374 0.2703 -0.0416
C4_2 C 0.9009(3) -0.0656(3) 0.23317(19)
C5_2 C 1.1400(4) -0.1284(3) 0.0689(2)
H5_2 H 1.0944 -0.1894 0.0736
C6_2 C 1.2403(5) -0.0048(4) -0.0034(2)
H6_2 H 1.2646 0.0182 -0.0469
C7_2 C 1.3342(4) 0.1552(3) 0.0488(2)
C8_2 C 0.5381(3) -0.1591(3) 0.2043(2)
C9_2 C 1.1774(4) -0.0986(3) 0.0031(2)
C10_2 C 0.7739(3) -0.0962(3) 0.2219(2)
C11_2 C 0.4113(3) -0.1940(3) 0.1970(2)
C12_2 C 1.1629(5) -0.1680(3) -0.0581(2)
C13_2 C 1.2292(4) 0.0163(3) 0.1182(2)
H7_2 H 1.2483 0.0545 0.1578
C14_2 C 0.5654(3) -0.0580(4) 0.2263(3)
H8_2 H 0.5045 -0.0102 0.2353
C15_2 C 0.6304(4) -0.2287(4) 0.1907(3)
H9_2 H 0.6140 -0.2969 0.1751
C16_2 C 0.6815(3) -0.0267(3) 0.2351(3)
H10_2 H 0.6981 0.0418 0.2500
C18_2 C 1.3100(5) 0.2409(4) 0.0904(2)
H11_2 H 1.2542 0.2353 0.1256
C20_2 C 1.0606(6) -0.2030(5) -0.0831(3)
H13_2 H 0.9901 -0.1878 -0.0601
C21_2 C 1.0586(6) -0.2623(5) -0.1434(3)
H14_2 H 0.9850 -0.2832 -0.1603
C23_2 C 0.7466(4) -0.1971(4) 0.2001(3)
H16_2 H 0.8076 -0.2449 0.1915
C24_2 C 1.2516(6) -0.2661(5) -0.1489(3)
H17_2 H 1.3208 -0.2931 -0.1683
C25_2 C 1.3691(4) 0.3354(4) 0.0794(2)
H18_2 H 1.3515 0.3929 0.1077
C26_2 C 1.4229(5) 0.1668(4) -0.0008(2)
H19_2 H 1.4445 0.1098 -0.0286
C27_2 C 1.2619(6) -0.2030(6) -0.0917(4)
H20_2 H 1.3366 -0.1840 -0.0756
H21_2 H 1.086(5) 0.026(5) 0.270(3)
H23_2 H 1.125(5) -0.346(4) 0.202(3)
O5B O 0.5029(2) 0.4599(2) -0.10480(13)
H2B H 0.4347 0.4535 -0.1190
H22B H 0.542(4) 0.412(4) -0.123(3)
Ni1_3 Ni -0.84633(3) -0.13804(3) 0.22498(2)
Ni1C Ni 0.15367(3) -0.36196(3) -0.27502(2)
Ni1C_2 Ni 1.15367(3) -0.36196(3) -0.27502(2)
Ni2_2 Ni -0.5000 0.5000 0.0000
Ni2_3 Ni 1.5000 0.5000 0.0000
O2_3 O 1.3349(2) -0.1335(2) 0.22351(15)
O3B_2 O 0.6785(2) 0.4666(2) 0.00476(13)
N2C N 0.1510(4) -0.2094(3) 0.32226(17)
N2C_2 N 1.1510(4) -0.2094(3) 0.32226(17)
N3B N 0.5491(3) 0.6525(3) -0.02959(17)
loop_
_geom_bond_atom_site_label_1
_geom_bond_atom_site_label_2
_geom_bond_site_symmetry_1
_geom_bond_site_symmetry_2
Ni1 N1 1_555 1_555
Ni2 O3 1_555 1_555
N1 C5 1_555 1_555
C1 C6 1_555 1_555
O1 Ni1 1_555 1_555
O2 C11 1_555 1_555
O3 C17 1_555 1_555
O4 Ni1 1_555 1_555
H1 O4 1_555 1_555
O5 Ni2 1_555 1_555
H2 O5 1_555 1_555
O6 Ni1 1_555 1_555
H3 O6 1_555 1_555
O7 C17 1_555 1_555
N2 C21 1_555 1_555
O8 C11 1_555 1_555
N3 Ni2 1_555 1_555
O9 C4 1_555 1_555
C2 C17 1_555 1_555
C3 N3 1_555 1_555
H4 C3 1_555 1_555
C4 O1 1_555 1_555
C5 H5 1_555 1_555
C6 H6 1_555 1_555
C7 C1 1_555 1_555
C8 C11 1_555 1_555
C9 C5 1_555 1_555
C10 C4 1_555 1_555
C12 C9 1_555 1_555
C13 N1 1_555 1_555
H7 C13 1_555 1_555
C14 C8 1_555 1_555
H8 C14 1_555 1_555
C15 C8 1_555 1_555
H9 C15 1_555 1_555
C16 C10 1_555 1_555
H10 C16 1_555 1_555
C18 C7 1_555 1_555
H11 C18 1_555 1_555
C19 C2 1_555 1_555
H12 C19 1_555 1_555
C20 C12 1_555 1_555
H13 C20 1_555 1_555
C21 C20 1_555 1_555
H14 C21 1_555 1_555
C22 C2 1_555 1_555
H15 C22 1_555 1_555
C23 C10 1_555 1_555
H16 C23 1_555 1_555
C24 N2 1_555 1_555
H17 C24 1_555 1_555
C25 N3 1_555 1_555
H18 C25 1_555 1_555
C26 C3 1_555 1_555
H19 C26 1_555 1_555
C27 C12 1_555 1_555
H20 C27 1_555 1_555
H21 O6 1_555 1_555
H22 O5 1_555 1_555
H23 O4 1_555 1_555
O3B C17B 1_555 1_555
O7B C17B 1_555 1_555
C2B C17B 1_555 1_555
C19B C22 1_555 1_555
H12B C19B 1_555 1_555
C22B C19 1_555 1_555
H15B C22B 1_555 1_555
Ni1_2 N1_2 1_555 1_555
N1_2 C5_2 1_555 1_555
C1_2 C6_2 1_555 1_555
O1_2 Ni1_2 1_555 1_555
O2_2 Ni1 1_555 1_555
O4_2 Ni1_2 1_555 1_555
H1_2 O4_2 1_555 1_555
O6_2 Ni1_2 1_555 1_555
H3_2 O6_2 1_555 1_555
N2_2 C21_2 1_555 1_555
O8_2 C11_2 1_555 1_555
N3_2 C3_2 1_555 1_555
O9_2 C4_2 1_555 1_555
C3_2 H4_2 1_555 1_555
C4_2 O1_2 1_555 1_555
C5_2 H5_2 1_555 1_555
C6_2 H6_2 1_555 1_555
C7_2 C1_2 1_555 1_555
C8_2 C11_2 1_555 1_555
C9_2 C5_2 1_555 1_555
C10_2 C4_2 1_555 1_555
C11_2 O2_2 1_555 1_555
C12_2 C9_2 1_555 1_555
C13_2 N1_2 1_555 1_555
H7_2 C13_2 1_555 1_555
C14_2 C8_2 1_555 1_555
H8_2 C14_2 1_555 1_555
C15_2 C8_2 1_555 1_555
H9_2 C15_2 1_555 1_555
C16_2 C10_2 1_555 1_555
H10_2 C16_2 1_555 1_555
C18_2 C7_2 1_555 1_555
H11_2 C18_2 1_555 1_555
C20_2 C12_2 1_555 1_555
H13_2 C20_2 1_555 1_555
C21_2 C20_2 1_555 1_555
H14_2 C21_2 1_555 1_555
C23_2 C10_2 1_555 1_555
H16_2 C23_2 1_555 1_555
C24_2 N2_2 1_555 1_555
H17_2 C24_2 1_555 1_555
C25_2 N3_2 1_555 1_555
H18_2 C25_2 1_555 1_555
C26_2 C3_2 1_555 1_555
H19_2 C26_2 1_555 1_555
C27_2 C12_2 1_555 1_555
H20_2 C27_2 1_555 1_555
H21_2 O6_2 1_555 1_555
H23_2 O4_2 1_555 1_555
O5B Ni2 1_555 1_555
H2B O5B 1_555 1_555
H22B O5B 1_555 1_555
Ni1_3 O2 1_555 1_555
Ni1C N2 1_555 1_555
Ni1C_2 N2_2 1_555 1_555
Ni2_2 O3B 1_555 1_555
Ni2_3 N3_2 1_555 1_555
O2_3 Ni1_2 1_555 1_555
O3B_2 Ni2 1_555 1_555
N2C Ni1 1_555 1_555
N2C_2 Ni1_2 1_555 1_555
N3B Ni2 1_555 1_555
C1 C13 1_555 1_555
C6 C9 1_555 1_555
C7 C26 1_555 1_555
C14 C16 1_555 1_555
C15 C23 1_555 1_555
C18 C25 1_555 1_555
C24 C27 1_555 1_555
C2B C19B 1_555 1_555
C2B C22B 1_555 1_555
C1_2 C13_2 1_555 1_555
C6_2 C9_2 1_555 1_555
C7_2 C26_2 1_555 1_555
C14_2 C16_2 1_555 1_555
C15_2 C23_2 1_555 1_555
C18_2 C25_2 1_555 1_555
C24_2 C27_2 1_555 1_555

#END
