
#######################################################################
#
#                 Cambridge Crystallographic Data Centre
#                                CCDC 
#
#######################################################################
#
# If this CIF has been generated from an entry in the Cambridge 
# Structural Database, then it will include bibliographic, chemical, 
# crystal, experimental, refinement or atomic coordinate data resulting 
# from the CCDC's data processing and validation procedures.
#
#######################################################################

data_AJAQIN
_symmetry_cell_setting           monoclinic
_symmetry_space_group_name_H-M   'P 21/c'
_symmetry_Int_Tables_number      14
_space_group_name_Hall           '-P 2ybc'
loop_
_symmetry_equiv_pos_site_id
_symmetry_equiv_pos_as_xyz
1 x,y,z
2 -x,1/2+y,1/2-z
3 -x,-y,-z
4 x,1/2-y,1/2+z
_cell_length_a                   8.5003(3)
_cell_length_b                   7.8069(2)
_cell_length_c                   34.9594(9)
_cell_angle_alpha                90
_cell_angle_beta                 93.864(3)
_cell_angle_gamma                90
_cell_volume                     2314.67
loop_
_atom_site_label
_atom_site_type_symbol
_atom_site_fract_x
_atom_site_fract_y
_atom_site_fract_z
C1 C 0.2098(3) 0.0050(4) 0.31345(8)
H1 H 0.1283 0.0846 0.3123
C2 C 0.3802(4) -0.1756(4) 0.29943(8)
H2 H 0.4410 -0.2463 0.2849
C3 C 0.2013(3) 0.3409(3) 0.64276(8)
H3 H 0.3052 0.3027 0.6448
C4 C -0.0206(3) 0.4432(4) 0.65445(8)
H4 H -0.1004 0.4918 0.6678
C5 C 0.1359(3) 0.2771(3) 0.57290(7)
C6 C 0.2705(3) 0.1845(4) 0.56666(8)
H5 H 0.3422 0.1573 0.5870
C7 C 0.2972(4) 0.1325(4) 0.52965(8)
H6 H 0.3872 0.0692 0.5255
C8 C 0.1929(3) 0.1728(4) 0.49860(8)
C9 C 0.0593(4) 0.2687(4) 0.50575(8)
H7 H -0.0117 0.2988 0.4855
C10 C 0.0308(4) 0.3199(4) 0.54269(8)
H8 H -0.0590 0.3830 0.5470
C11 C 0.2830(3) -0.0464(4) 0.45192(8)
H9 H 0.3100 -0.1181 0.4726
C12 C 0.3055(3) -0.1032(4) 0.41500(8)
H10 H 0.3457 -0.2120 0.4110
C13 C 0.2671(3) 0.0049(4) 0.38423(7)
C14 C 0.2085(3) 0.1670(4) 0.39035(8)
H11 H 0.1861 0.2402 0.3697
C15 C 0.1834(3) 0.2206(4) 0.42719(8)
H12 H 0.1407 0.3285 0.4310
C16 C 0.2211(3) 0.1150(4) 0.45884(8)
C17 C 0.4149(3) 0.6633(3) 0.65324(7)
C18 C 0.4686(3) 0.6061(3) 0.61859(8)
H13 H 0.5588 0.5386 0.6187
C19 C 0.3892(3) 0.6486(3) 0.58402(8)
C20 C 0.2585(3) 0.7570(4) 0.58344(8)
H14 H 0.2057 0.7871 0.5603
C21 C 0.2083(3) 0.8191(4) 0.61740(8)
H15 H 0.1236 0.8946 0.6170
C22 C 0.2828(3) 0.7703(3) 0.65239(8)
C23 C 0.5070(3) 0.6102(3) 0.68968(8)
C24 C 0.2173(3) 0.8505(4) 0.68752(8)
C25 C 0.4395(3) 0.5840(4) 0.54709(8)
H16 H 0.282(3) 0.218(4) 0.7614(6)
H17 H 0.242(3) 0.182(3) 0.7232(6)
H18 H -0.058(3) 0.576(2) 0.7425(10)
H19 H -0.066(4) 0.402(3) 0.7500(9)
N1 N 0.2861(3) -0.0498(3) 0.34578(6)
N2 N 0.3971(3) -0.1696(3) 0.33703(7)
N3 N 0.2663(3) -0.0696(3) 0.28331(6)
N4 N 0.1040(3) 0.3317(3) 0.61085(6)
N5 N -0.0402(3) 0.3985(3) 0.61818(7)
N6 N 0.1274(3) 0.4121(3) 0.67086(6)
Ni1 Ni 0.20638(4) 0.50118(4) 0.725831(9)
O1 O 0.5615(2) 0.4827(3) 0.54944(6)
H20 H 0.578(4) 0.449(5) 0.5284(10)
O2 O 0.3684(3) 0.6258(3) 0.51626(6)
O3 O 0.1627(2) 0.7558(2) 0.71306(5)
O4 O 0.2113(3) 1.0091(2) 0.68731(5)
O5 O 0.4368(2) 0.5361(2) 0.71597(5)
O6 O 0.6519(2) 0.6403(2) 0.69136(5)
O7 O -0.0261(2) 0.4816(3) 0.73799(5)
O8 O 0.2328(2) 0.2478(2) 0.74122(6)
N3C N 0.2663(3) 0.5696(3) 0.78331(6)
Ni1C Ni 0.20638(4) -0.00118(4) 0.225831(9)
loop_
_geom_bond_atom_site_label_1
_geom_bond_atom_site_label_2
_geom_bond_site_symmetry_1
_geom_bond_site_symmetry_2
C1 H1 1_555 1_555
C2 H2 1_555 1_555
C3 H3 1_555 1_555
C4 H4 1_555 1_555
C5 C6 1_555 1_555
C6 H5 1_555 1_555
C7 C6 1_555 1_555
H6 C7 1_555 1_555
C8 C7 1_555 1_555
C9 C8 1_555 1_555
H7 C9 1_555 1_555
C10 C5 1_555 1_555
H8 C10 1_555 1_555
C11 H9 1_555 1_555
C12 C11 1_555 1_555
H10 C12 1_555 1_555
C13 C12 1_555 1_555
C14 C13 1_555 1_555
H11 C14 1_555 1_555
C15 C14 1_555 1_555
H12 C15 1_555 1_555
C16 C8 1_555 1_555
C17 C18 1_555 1_555
C18 H13 1_555 1_555
C19 C18 1_555 1_555
C20 C19 1_555 1_555
H14 C20 1_555 1_555
C21 C20 1_555 1_555
H15 C21 1_555 1_555
C22 C17 1_555 1_555
C23 C17 1_555 1_555
C24 C22 1_555 1_555
C25 C19 1_555 1_555
H16 O8 1_555 1_555
H17 O8 1_555 1_555
H18 O7 1_555 1_555
H19 O7 1_555 1_555
N1 C1 1_555 1_555
N2 C2 1_555 1_555
N3 C1 1_555 1_555
N4 C3 1_555 1_555
N5 C4 1_555 1_555
N6 C3 1_555 1_555
Ni1 N6 1_555 1_555
O1 C25 1_555 1_555
H20 O1 1_555 1_555
O2 C25 1_555 1_555
O3 C24 1_555 1_555
O4 C24 1_555 1_555
O5 C23 1_555 1_555
O6 C23 1_555 1_555
O7 Ni1 1_555 1_555
O8 Ni1 1_555 1_555
N3C Ni1 1_555 1_555
Ni1C N3 1_555 1_555
C2 N3 1_555 1_555
C4 N6 1_555 1_555
C5 N4 1_555 1_555
C9 C10 1_555 1_555
C11 C16 1_555 1_555
C13 N1 1_555 1_555
C15 C16 1_555 1_555
C21 C22 1_555 1_555
N1 N2 1_555 1_555
N4 N5 1_555 1_555
Ni1 O3 1_555 1_555
Ni1 O5 1_555 1_555

#END
