
#######################################################################
#
#                 Cambridge Crystallographic Data Centre
#                                CCDC 
#
#######################################################################
#
# If this CIF has been generated from an entry in the Cambridge 
# Structural Database, then it will include bibliographic, chemical, 
# crystal, experimental, refinement or atomic coordinate data resulting 
# from the CCDC's data processing and validation procedures.
#
#######################################################################

data_AJAQEJ
_symmetry_cell_setting           triclinic
_symmetry_space_group_name_H-M   'P -1'
_symmetry_Int_Tables_number      2
_space_group_name_Hall           '-P 1'
loop_
_symmetry_equiv_pos_site_id
_symmetry_equiv_pos_as_xyz
1 x,y,z
2 -x,-y,-z
_cell_length_a                   10.9756(9)
_cell_length_b                   12.3450(11)
_cell_length_c                   14.9519(13)
_cell_angle_alpha                73.6320(10)
_cell_angle_beta                 89.5340(10)
_cell_angle_gamma                84.3190(10)
_cell_volume                     1933.82
loop_
_atom_site_label
_atom_site_type_symbol
_atom_site_fract_x
_atom_site_fract_y
_atom_site_fract_z
Ni1 Ni 0.64311(5) 0.76677(5) 1.00651(4)
O1 O 0.6598(3) 0.5931(3) 1.0690(3)
O2 O -0.1778(3) 0.8072(3) 0.9996(2)
O3 O -0.0757(3) 0.6656(3) 0.9581(2)
O4 O 0.1987(4) 0.9790(4) 1.2142(3)
O5 O 0.0131(4) 1.0258(4) 1.1640(3)
O6 O 0.4053(3) 0.5999(3) 1.0790(3)
O7 O 0.4582(3) 0.7731(3) 1.0117(3)
O8 O 0.2430(4) 0.7002(3) 0.8781(3)
O9 O 0.1690(3) 0.5515(3) 0.9766(2)
N1 N 0.0170(4) 0.5002(3) 0.1385(3)
N2 N 0.0898(4) 0.5152(4) 0.2692(3)
N3 N 0.5821(4) 0.6992(4) 0.7515(3)
N4 N 0.6415(4) 0.7405(4) 0.8753(3)
N5 N 0.6472(4) 0.7749(4) 1.1460(3)
N6 N 0.7311(4) 0.7713(4) 1.2788(3)
N7 N 1.3599(5) 0.9406(4) 1.6764(3)
N8 N 1.4659(5) 0.9757(5) 1.7848(4)
N9 N 0.1122(4) 0.9695(4) 1.1682(3)
C1 C -0.0700(5) 0.4964(6) 0.2036(4)
H1 H -0.1515 0.4889 0.1923
C2 C 0.5858(5) 0.7194(6) 1.2195(4)
H2 H 0.5150 0.6864 1.2131
N10 N 1.4527(5) 0.9987(6) 1.6316(4)
N11 N 0.6947(4) 0.7399(4) 0.7298(3)
C3 C 0.7255(5) 0.7632(5) 0.8063(3)
H3 H 0.7984 0.7928 0.8131
C4 C 0.5132(5) 0.6683(5) 0.6835(3)
C5 C 0.3047(5) 0.5845(5) 0.4757(3)
C6 C 0.0267(4) 0.8621(4) 1.0731(3)
H4 H -0.0496 0.8999 1.0781
C7 C 0.2558(4) 0.7588(4) 1.0553(3)
N12 N -0.0309(4) 0.5041(6) 0.2833(3)
C8 C 0.2734(5) 0.5798(6) 0.3173(4)
H5 H 0.3019 0.5937 0.2568
C9 C -0.0793(4) 0.7487(4) 0.9907(3)
C10 C 0.1879(4) 0.6561(4) 0.9485(3)
C11 C 0.1168(4) 0.5121(4) 0.1825(3)
H6 H 0.1942 0.5175 0.1569
C12 C 0.3404(6) 0.6053(6) 0.3850(4)
H7 H 0.4131 0.6381 0.3683
C13 C 0.3841(4) 0.7042(5) 1.0472(4)
C14 C 0.2427(4) 0.8346(4) 1.1078(3)
H8 H 0.3099 0.8500 1.1380
C15 C 0.1658(5) 0.5344(5) 0.3393(4)
C16 C 0.0366(4) 0.7818(4) 1.0239(3)
C17 C 0.7904(6) 0.7962(8) 1.4269(5)
H9 H 0.7104 0.7912 1.4473
C18 C 0.7364(5) 0.8078(6) 1.1861(4)
H10 H 0.7961 0.8511 1.1540
C19 C 0.9930(6) 0.8234(5) 1.4628(4)
C20 C 0.8162(5) 0.7850(5) 1.3448(4)
C21 C 1.3712(6) 0.9290(5) 1.7666(4)
H11 H 1.3184 0.8921 1.8114
C22 C 0.5513(6) 0.6915(7) 0.5943(4)
H12 H 0.6222 0.7274 0.5779
C23 C 0.2027(7) 0.5284(8) 0.4977(5)
H13 H 0.1794 0.5059 0.5596
C24 C 0.1277(4) 0.8871(4) 1.1145(3)
C25 C 0.3776(5) 0.6134(5) 0.5480(3)
C26 C 0.1541(4) 0.7315(4) 1.0121(3)
C27 C 1.5146(6) 1.0140(6) 1.7000(5)
H14 H 1.5870 1.0487 1.6911
C28 C 0.5541(4) 0.7006(5) 0.8372(3)
H15 H 0.4826 0.6767 0.8668
C29 C 1.1902(6) 0.8953(6) 1.4804(5)
H16 H 1.1986 0.9085 1.4164
C30 C 0.1323(7) 0.5038(8) 0.4300(5)
H17 H 0.0624 0.4666 0.4469
N13 N 0.6321(5) 0.7147(5) 1.3014(3)
C31 C 1.0286(8) 0.7925(8) 1.3818(6)
H18 H 1.1110 0.7866 1.3670
C32 C 1.2691(6) 0.9067(5) 1.6237(4)
C33 C 0.9412(8) 0.7707(8) 1.3240(6)
H19 H 0.9650 0.7470 1.2721
C34 C 1.1668(7) 0.8625(6) 1.6674(5)
H20 H 1.1575 0.8527 1.7309
C35 C 0.8773(7) 0.8152(8) 1.4845(5)
H21 H 0.8530 0.8228 1.5423
C36 C 0.3417(6) 0.5908(6) 0.6381(4)
H22 H 0.2708 0.5551 0.6548
C37 C 1.0776(7) 0.8327(7) 1.6161(5)
H23 H 1.0095 0.8010 1.6461
C38 C 0.4069(6) 0.6192(6) 0.7059(4)
H24 H 0.3782 0.6047 0.7664
C39 C 1.0885(6) 0.8497(5) 1.5206(4)
C40 C 1.2820(6) 0.9231(7) 1.5308(5)
H25 H 1.3513 0.9525 1.5012
C41 C 0.4865(6) 0.6627(7) 0.5279(4)
H26 H 0.5163 0.6765 0.4678
O10 O 0.5997(3) 0.9435(3) 0.9505(3)
H27 H 0.588(2) 0.576(4) 1.068(4)
H28 H 0.709(3) 0.549(4) 1.050(4)
H29 H 0.583(7) 0.935(6) 0.900(3)
H30 H 0.581(10) 1.006(4) 0.957(6)
Ni2 Ni 0.0000 0.5000 1.0000
Ni1A Ni -0.64311(5) 0.23323(5) -0.00651(4)
O1A O -0.6598(3) 0.4069(3) -0.0690(3)
O2A O 0.1778(3) 0.1928(3) 0.0004(2)
O3A O 0.0757(3) 0.3344(3) 0.0419(2)
O4A O -0.1987(4) 0.0210(4) -0.2142(3)
O5A O -0.0131(4) -0.0258(4) -0.1640(3)
O6A O -0.4053(3) 0.4001(3) -0.0790(3)
O7A O -0.4582(3) 0.2269(3) -0.0117(3)
O8A O -0.2430(4) 0.2998(3) 0.1219(3)
O9A O -0.1690(3) 0.4485(3) 0.0234(2)
N1A N -0.0170(4) 0.4998(3) 0.8615(3)
N2A N -0.0898(4) 0.4848(4) 0.7308(3)
N3A N -0.5821(4) 0.3008(4) 0.2485(3)
N4A N -0.6415(4) 0.2595(4) 0.1247(3)
N5A N -0.6472(4) 0.2251(4) -0.1460(3)
N6A N -0.7311(4) 0.2287(4) -0.2788(3)
N7A N -1.3599(5) 0.0594(4) -0.6764(3)
N8A N -1.4659(5) 0.0243(5) -0.7848(4)
N9A N -0.1122(4) 0.0305(4) -0.1682(3)
C1A C 0.0700(5) 0.5036(6) 0.7964(4)
H1A H 0.1515 0.5111 0.8077
C2A C -0.5858(5) 0.2806(6) -0.2195(4)
H2A H -0.5150 0.3136 -0.2131
N10A N -1.4527(5) 0.0013(6) -0.6316(4)
N11A N -0.6947(4) 0.2601(4) 0.2702(3)
C3A C -0.7255(5) 0.2368(5) 0.1937(3)
H3A H -0.7984 0.2072 0.1869
C4A C -0.5132(5) 0.3317(5) 0.3165(3)
C5A C -0.3047(5) 0.4155(5) 0.5243(3)
C6A C -0.0267(4) 0.1379(4) -0.0731(3)
H4A H 0.0496 0.1001 -0.0781
C7A C -0.2558(4) 0.2412(4) -0.0553(3)
N12A N 0.0309(4) 0.4959(6) 0.7167(3)
C8A C -0.2734(5) 0.4202(6) 0.6827(4)
H5A H -0.3019 0.4063 0.7432
C9A C 0.0793(4) 0.2513(4) 0.0093(3)
C10A C -0.1879(4) 0.3439(4) 0.0515(3)
C11A C -0.1168(4) 0.4879(4) 0.8175(3)
H6A H -0.1942 0.4825 0.8431
C12A C -0.3404(6) 0.3947(6) 0.6150(4)
H7A H -0.4131 0.3619 0.6317
C13A C -0.3841(4) 0.2958(5) -0.0472(4)
C14A C -0.2427(4) 0.1654(4) -0.1078(3)
H8A H -0.3099 0.1500 -0.1380
C15A C -0.1658(5) 0.4656(5) 0.6607(4)
C16A C -0.0366(4) 0.2182(4) -0.0239(3)
C17A C -0.7904(6) 0.2038(8) -0.4269(5)
H9A H -0.7104 0.2088 -0.4473
C18A C -0.7364(5) 0.1922(6) -0.1861(4)
H10A H -0.7961 0.1489 -0.1540
C19A C -0.9930(6) 0.1766(5) -0.4628(4)
C20A C -0.8162(5) 0.2150(5) -0.3448(4)
C21A C -1.3712(6) 0.0710(5) -0.7666(4)
H11A H -1.3184 0.1079 -0.8114
C22A C -0.5513(6) 0.3085(7) 0.4057(4)
H12A H -0.6222 0.2726 0.4221
C23A C -0.2027(7) 0.4716(8) 0.5023(5)
H13A H -0.1794 0.4941 0.4404
C24A C -0.1277(4) 0.1129(4) -0.1145(3)
C25A C -0.3776(5) 0.3866(5) 0.4520(3)
C26A C -0.1541(4) 0.2685(4) -0.0121(3)
C27A C -1.5146(6) -0.0140(6) -0.7000(5)
H14A H -1.5870 -0.0487 -0.6911
C28A C -0.5541(4) 0.2994(5) 0.1628(3)
H15A H -0.4826 0.3233 0.1332
C29A C -1.1902(6) 0.1047(6) -0.4804(5)
H16A H -1.1986 0.0915 -0.4164
C30A C -0.1323(7) 0.4962(8) 0.5700(5)
H17A H -0.0624 0.5334 0.5531
N13A N -0.6321(5) 0.2853(5) -0.3014(3)
C31A C -1.0286(8) 0.2075(8) -0.3818(6)
H18A H -1.1110 0.2134 -0.3670
C32A C -1.2691(6) 0.0933(5) -0.6237(4)
C33A C -0.9412(8) 0.2293(8) -0.3240(6)
H19A H -0.9650 0.2530 -0.2721
C34A C -1.1668(7) 0.1375(6) -0.6674(5)
H20A H -1.1575 0.1473 -0.7309
C35A C -0.8773(7) 0.1848(8) -0.4845(5)
H21A H -0.8530 0.1772 -0.5423
C36A C -0.3417(6) 0.4092(6) 0.3619(4)
H22A H -0.2708 0.4449 0.3452
C37A C -1.0776(7) 0.1673(7) -0.6161(5)
H23A H -1.0095 0.1990 -0.6461
C38A C -0.4069(6) 0.3808(6) 0.2941(4)
H24A H -0.3782 0.3953 0.2336
C39A C -1.0885(6) 0.1503(5) -0.5206(4)
C40A C -1.2820(6) 0.0769(7) -0.5308(5)
H25A H -1.3513 0.0475 -0.5012
C41A C -0.4865(6) 0.3373(7) 0.4721(4)
H26A H -0.5163 0.3235 0.5322
O10A O -0.5997(3) 0.0565(3) 0.0495(3)
H27A H -0.588(2) 0.424(4) -0.068(4)
H28A H -0.709(3) 0.451(4) -0.050(4)
H29A H -0.583(7) 0.065(6) 0.100(3)
H30A H -0.581(10) -0.006(4) 0.043(6)
Ni1_2 Ni -0.35689(5) 0.76677(5) 1.00651(4)
Ni1A_2 Ni 0.35689(5) 0.23323(5) -0.00651(4)
O2_2 O 0.8222(3) 0.8072(3) 0.9996(2)
O2A_2 O -0.8222(3) 0.1928(3) 0.0004(2)
O3A_2 O 0.0757(3) 0.3344(3) 1.0419(2)
O9A_2 O -0.1690(3) 0.4485(3) 1.0234(2)
N1_2 N 0.0170(4) 0.5002(3) 1.1385(3)
Ni2_2 Ni 0.0000 0.5000 0.0000
loop_
_geom_bond_atom_site_label_1
_geom_bond_atom_site_label_2
_geom_bond_site_symmetry_1
_geom_bond_site_symmetry_2
Ni1 O1 1_555 1_555
O1 H27 1_555 1_555
O2 C9 1_555 1_555
O3 C9 1_555 1_555
O4 N9 1_555 1_555
O5 N9 1_555 1_555
O6 C13 1_555 1_555
O7 Ni1 1_555 1_555
O8 C10 1_555 1_555
O9 C10 1_555 1_555
N1 C1 1_555 1_555
N2 N12 1_555 1_555
N3 N11 1_555 1_555
N4 Ni1 1_555 1_555
N5 Ni1 1_555 1_555
N6 C18 1_555 1_555
N7 N10 1_555 1_555
N8 C21 1_555 1_555
N9 C24 1_555 1_555
C1 H1 1_555 1_555
C2 N5 1_555 1_555
H2 C2 1_555 1_555
N10 C27 1_555 1_555
N11 C3 1_555 1_555
C3 N4 1_555 1_555
H3 C3 1_555 1_555
C4 N3 1_555 1_555
C5 C12 1_555 1_555
C6 H4 1_555 1_555
C7 C13 1_555 1_555
N12 C1 1_555 1_555
C8 H5 1_555 1_555
C9 C16 1_555 1_555
C10 C26 1_555 1_555
C11 N1 1_555 1_555
H6 C11 1_555 1_555
C12 C8 1_555 1_555
H7 C12 1_555 1_555
C13 O7 1_555 1_555
C14 C7 1_555 1_555
H8 C14 1_555 1_555
C15 N2 1_555 1_555
C16 C6 1_555 1_555
C17 H9 1_555 1_555
C18 N5 1_555 1_555
H10 C18 1_555 1_555
C19 C31 1_555 1_555
C20 N6 1_555 1_555
C21 N7 1_555 1_555
H11 C21 1_555 1_555
C22 C4 1_555 1_555
H12 C22 1_555 1_555
C23 C5 1_555 1_555
H13 C23 1_555 1_555
C24 C6 1_555 1_555
C25 C5 1_555 1_555
C26 C7 1_555 1_555
C27 N8 1_555 1_555
H14 C27 1_555 1_555
C28 N3 1_555 1_555
H15 C28 1_555 1_555
C29 H16 1_555 1_555
C30 C15 1_555 1_555
H17 C30 1_555 1_555
N13 N6 1_555 1_555
C31 H18 1_555 1_555
C32 N7 1_555 1_555
C33 C20 1_555 1_555
H19 C33 1_555 1_555
C34 C32 1_555 1_555
H20 C34 1_555 1_555
C35 C17 1_555 1_555
H21 C35 1_555 1_555
C36 C25 1_555 1_555
H22 C36 1_555 1_555
C37 C34 1_555 1_555
H23 C37 1_555 1_555
C38 C4 1_555 1_555
H24 C38 1_555 1_555
C39 C19 1_555 1_555
C40 C29 1_555 1_555
H25 C40 1_555 1_555
C41 C22 1_555 1_555
H26 C41 1_555 1_555
O10 Ni1 1_555 1_555
H28 O1 1_555 1_555
H29 O10 1_555 1_555
H30 O10 1_555 1_555
Ni2 O3 1_555 1_555
Ni1A O1A 1_555 1_555
O1A H27A 1_555 1_555
O2A C9A 1_555 1_555
O3A C9A 1_555 1_555
O4A N9A 1_555 1_555
O5A N9A 1_555 1_555
O6A C13A 1_555 1_555
O7A Ni1A 1_555 1_555
O8A C10A 1_555 1_555
O9A C10A 1_555 1_555
N1A Ni2 1_555 1_555
N2A N12A 1_555 1_555
N3A N11A 1_555 1_555
N4A Ni1A 1_555 1_555
N5A Ni1A 1_555 1_555
N6A C18A 1_555 1_555
N7A N10A 1_555 1_555
N8A C21A 1_555 1_555
N9A C24A 1_555 1_555
C1A N1A 1_555 1_555
H1A C1A 1_555 1_555
C2A N5A 1_555 1_555
H2A C2A 1_555 1_555
N10A C27A 1_555 1_555
N11A C3A 1_555 1_555
C3A N4A 1_555 1_555
H3A C3A 1_555 1_555
C4A N3A 1_555 1_555
C5A C12A 1_555 1_555
C6A H4A 1_555 1_555
C7A C13A 1_555 1_555
N12A C1A 1_555 1_555
C8A H5A 1_555 1_555
C9A C16A 1_555 1_555
C10A C26A 1_555 1_555
C11A N1A 1_555 1_555
H6A C11A 1_555 1_555
C12A C8A 1_555 1_555
H7A C12A 1_555 1_555
C13A O7A 1_555 1_555
C14A C7A 1_555 1_555
H8A C14A 1_555 1_555
C15A N2A 1_555 1_555
C16A C6A 1_555 1_555
C17A H9A 1_555 1_555
C18A N5A 1_555 1_555
H10A C18A 1_555 1_555
C19A C31A 1_555 1_555
C20A N6A 1_555 1_555
C21A N7A 1_555 1_555
H11A C21A 1_555 1_555
C22A C4A 1_555 1_555
H12A C22A 1_555 1_555
C23A C5A 1_555 1_555
H13A C23A 1_555 1_555
C24A C6A 1_555 1_555
C25A C5A 1_555 1_555
C26A C7A 1_555 1_555
C27A N8A 1_555 1_555
H14A C27A 1_555 1_555
C28A N3A 1_555 1_555
H15A C28A 1_555 1_555
C29A H16A 1_555 1_555
C30A C15A 1_555 1_555
H17A C30A 1_555 1_555
N13A N6A 1_555 1_555
C31A H18A 1_555 1_555
C32A N7A 1_555 1_555
C33A C20A 1_555 1_555
H19A C33A 1_555 1_555
C34A C32A 1_555 1_555
H20A C34A 1_555 1_555
C35A C17A 1_555 1_555
H21A C35A 1_555 1_555
C36A C25A 1_555 1_555
H22A C36A 1_555 1_555
C37A C34A 1_555 1_555
H23A C37A 1_555 1_555
C38A C4A 1_555 1_555
H24A C38A 1_555 1_555
C39A C19A 1_555 1_555
C40A C29A 1_555 1_555
H25A C40A 1_555 1_555
C41A C22A 1_555 1_555
H26A C41A 1_555 1_555
O10A Ni1A 1_555 1_555
H28A O1A 1_555 1_555
H29A O10A 1_555 1_555
H30A O10A 1_555 1_555
Ni1_2 O2 1_555 1_555
Ni1A_2 O2A 1_555 1_555
O2_2 Ni1 1_555 1_555
O2A_2 Ni1A 1_555 1_555
O3A_2 Ni2 1_555 1_555
O9A_2 Ni2 1_555 1_555
N1_2 Ni2 1_555 1_555
Ni2_2 N1 1_555 1_555
O9 Ni2 1_555 1_555
N2 C11 1_555 1_555
N4 C28 1_555 1_555
C2 N13 1_555 1_555
C8 C15 1_555 1_555
C14 C24 1_555 1_555
C16 C26 1_555 1_555
C17 C20 1_555 1_555
C19 C35 1_555 1_555
C23 C30 1_555 1_555
C25 C41 1_555 1_555
C29 C39 1_555 1_555
C31 C33 1_555 1_555
C32 C40 1_555 1_555
C36 C38 1_555 1_555
C37 C39 1_555 1_555
O3A Ni2_2 1_555 1_555
O9A Ni2_2 1_555 1_555
N2A C11A 1_555 1_555
N4A C28A 1_555 1_555
C2A N13A 1_555 1_555
C8A C15A 1_555 1_555
C14A C24A 1_555 1_555
C16A C26A 1_555 1_555
C17A C20A 1_555 1_555
C19A C35A 1_555 1_555
C23A C30A 1_555 1_555
C25A C41A 1_555 1_555
C29A C39A 1_555 1_555
C31A C33A 1_555 1_555
C32A C40A 1_555 1_555
C36A C38A 1_555 1_555
C37A C39A 1_555 1_555

#END
