
#######################################################################
#
#                 Cambridge Crystallographic Data Centre
#                                CCDC 
#
#######################################################################
#
# If this CIF has been generated from an entry in the Cambridge 
# Structural Database, then it will include bibliographic, chemical, 
# crystal, experimental, refinement or atomic coordinate data resulting 
# from the CCDC's data processing and validation procedures.
#
#######################################################################

data_AJASIO
_symmetry_cell_setting           triclinic
_symmetry_space_group_name_H-M   'P -1'
_symmetry_Int_Tables_number      2
_space_group_name_Hall           '-P 1'
loop_
_symmetry_equiv_pos_site_id
_symmetry_equiv_pos_as_xyz
1 x,y,z
2 -x,-y,-z
_cell_length_a                   6.8683(4)
_cell_length_b                   10.8930(7)
_cell_length_c                   18.1776(11)
_cell_angle_alpha                96.491(5)
_cell_angle_beta                 97.054(5)
_cell_angle_gamma                96.038(5)
_cell_volume                     1331.22
loop_
_atom_site_label
_atom_site_type_symbol
_atom_site_fract_x
_atom_site_fract_y
_atom_site_fract_z
O1 O -0.2142(3) -0.13547(19) 0.31475(11)
O2 O -0.0416(3) -0.1560(2) 0.46750(11)
O3 O -0.3450(3) -0.18628(18) 0.59487(11)
O4 O -0.5237(3) -0.1934(2) 0.27333(11)
O5 O 0.1882(3) -0.08556(19) 0.40541(12)
O6 O -0.6095(3) -0.1039(2) 0.56004(11)
N1 N -0.4105(3) -0.1384(2) 0.06903(13)
N2 N 0.1206(3) -0.2864(2) 0.39808(14)
N3 N 0.0569(4) -0.4982(2) 0.40407(14)
N4 N -0.1853(3) -0.1053(2) 0.74154(13)
N5 N -0.5277(3) -0.1057(2) 0.67969(13)
N6 N -0.6546(4) -0.1541(2) 0.13402(14)
N7 N -0.3063(3) -0.1360(2) 0.19600(13)
N8 N -0.1975(4) -0.4002(3) 0.41966(15)
N9 N -0.4877(3) -0.1324(2) 0.61107(14)
N10 N 0.0837(3) -0.1747(2) 0.42487(13)
N11 N -0.2653(4) -0.1426(2) 0.85058(14)
N12 N -0.5784(4) -0.1412(3) 0.02118(15)
N13 N -0.1198(4) -0.1201(2) 0.81351(14)
N14 N -0.2438(4) -0.5256(3) 0.41853(15)
C1 C -0.3825(4) -0.1204(3) 0.73568(16)
N15 N -0.0942(4) -0.5853(3) 0.40961(15)
C2 C -0.0079(4) -0.3854(3) 0.41004(16)
C3 C -0.4591(4) -0.1467(3) 0.13831(17)
N16 N -0.4325(3) -0.1425(2) 0.80288(13)
N17 N -0.3554(4) -0.1559(2) 0.26146(14)
N18 N -0.7224(4) -0.1497(3) 0.05987(15)
C4 C -0.1775(5) -0.2567(3) 0.00835(18)
H1 H -0.2890 -0.2942 -0.0301
H2 H -0.0558 -0.2482 -0.0157
C5 C -0.6998(7) -0.2867(4) 0.8322(3)
H3 H -0.8373 -0.2885 0.8436
H4 H -0.6205 -0.3144 0.8751
N19 N -0.7420(5) -0.4828(4) 0.77386(18)
C6 C -0.2176(4) -0.1321(3) 0.04281(17)
H5 H -0.1135 -0.1006 0.0854
H6 H -0.2125 -0.0727 0.0055
C7 C -0.6260(4) -0.1593(3) 0.82757(17)
H7 H -0.7216 -0.1247 0.7926
H8 H -0.6192 -0.1107 0.8774
C8 C 0.2534(4) -0.5310(3) 0.39524(19)
H9 H 0.2831 -0.5976 0.4263
H10 H 0.3521 -0.4575 0.4133
N20 N -0.1534(5) -0.3361(3) 0.06897(19)
N21 N 0.2514(6) -0.5051(4) 0.2028(3)
N22 N -0.6996(7) -0.3679(4) 0.7737(3)
N23 N 0.2419(6) -0.4784(3) 0.2683(2)
C9 C 0.2712(6) -0.5753(4) 0.3147(2)
H11 H 0.4038 -0.6017 0.3115
H12 H 0.1716 -0.6482 0.2962
N24 N -0.1916(8) -0.4449(5) 0.0489(2)
K1 K -0.43691(9) -0.17811(7) 0.43237(4)
K2 K -0.04496(9) 0.10394(7) 0.38180(4)
K3 K 0.09383(10) -0.19803(7) 0.24179(4)
N25 N -0.7827(5) -0.5858(3) 0.76552(19)
N26 N 0.2604(12) -0.5136(6) 0.1426(3)
N27 N -0.2255(13) -0.5496(5) 0.0351(4)
O2A O 0.0416(3) 0.1560(2) 0.53250(11)
O3A O 0.3450(3) 0.18628(18) 0.40513(11)
O4_2 O 0.4763(3) -0.1934(2) 0.27333(11)
O5_2 O -0.8118(3) -0.08556(19) 0.40541(12)
O6A O -0.3905(3) 0.1039(2) 0.43996(11)
N4A N 0.1853(3) 0.1053(2) 0.25846(13)
N6_2 N 0.3454(4) -0.1541(2) 0.13402(14)
K1_2 K 0.56309(9) -0.17811(7) 0.43237(4)
K2A K 0.04496(9) -0.10394(7) 0.61820(4)
K2A_2 K -0.95504(9) -0.10394(7) 0.61820(4)
K3_2 K -0.90617(10) -0.19803(7) 0.24179(4)
loop_
_geom_bond_atom_site_label_1
_geom_bond_atom_site_label_2
_geom_bond_site_symmetry_1
_geom_bond_site_symmetry_2
O1 N17 1_555 1_555
O2 N10 1_555 1_555
O3 N9 1_555 1_555
O4 N17 1_555 1_555
O5 N10 1_555 1_555
O6 N9 1_555 1_555
N1 N12 1_555 1_555
N2 N10 1_555 1_555
N3 N15 1_555 1_555
N4 N13 1_555 1_555
N5 N9 1_555 1_555
N6 C3 1_555 1_555
N7 C3 1_555 1_555
N8 N14 1_555 1_555
N11 N13 1_555 1_555
N12 N18 1_555 1_555
N14 N15 1_555 1_555
C1 N4 1_555 1_555
C2 N2 1_555 1_555
C3 N1 1_555 1_555
N16 N11 1_555 1_555
N17 N7 1_555 1_555
N18 N6 1_555 1_555
C4 H1 1_555 1_555
H2 C4 1_555 1_555
C5 H3 1_555 1_555
H4 C5 1_555 1_555
N19 N22 1_555 1_555
C6 N1 1_555 1_555
H5 C6 1_555 1_555
H6 C6 1_555 1_555
C7 N16 1_555 1_555
H7 C7 1_555 1_555
H8 C7 1_555 1_555
C8 N3 1_555 1_555
H9 C8 1_555 1_555
H10 C8 1_555 1_555
N20 C4 1_555 1_555
N21 N23 1_555 1_555
N22 C5 1_555 1_555
N23 C9 1_555 1_555
C9 C8 1_555 1_555
H11 C9 1_555 1_555
H12 C9 1_555 1_555
N24 N20 1_555 1_555
K1 O1 1_555 1_555
K2 O1 1_555 1_555
K3 O1 1_555 1_555
N25 N19 1_555 1_555
N26 N21 1_555 1_555
N27 N24 1_555 1_555
O2A K2 1_555 1_555
O3A K2 1_555 1_555
O4_2 K3 1_555 1_555
O5_2 K1 1_555 1_555
O6A K2 1_555 1_555
N4A K2 1_555 1_555
N6_2 K3 1_555 1_555
K1_2 O5 1_555 1_555
K2A O2 1_555 1_555
K2A_2 O6 1_555 1_555
K3_2 O4 1_555 1_555
O2 K1 1_555 1_555
O3 K2A 1_555 1_555
O4 K1 1_555 1_555
O5 K2 1_555 1_555
O6 K1 1_555 1_555
N3 C2 1_555 1_555
N4 K2A 1_555 1_555
N5 C1 1_555 1_555
N6 K3_2 1_555 1_555
N7 K3 1_555 1_555
N8 C2 1_555 1_555
C1 N16 1_555 1_555
C4 C6 1_555 1_555
C5 C7 1_555 1_555
O4_2 K1_2 1_555 1_555

#END
