
#######################################################################
#
#                 Cambridge Crystallographic Data Centre
#                                CCDC 
#
#######################################################################
#
# If this CIF has been generated from an entry in the Cambridge 
# Structural Database, then it will include bibliographic, chemical, 
# crystal, experimental, refinement or atomic coordinate data resulting 
# from the CCDC's data processing and validation procedures.
#
#######################################################################

data_AJASUA
_symmetry_cell_setting           monoclinic
_symmetry_space_group_name_H-M   'P 21/n'
_symmetry_Int_Tables_number      14
_space_group_name_Hall           '-P 2yn'
loop_
_symmetry_equiv_pos_site_id
_symmetry_equiv_pos_as_xyz
1 x,y,z
2 1/2-x,1/2+y,1/2-z
3 -x,-y,-z
4 1/2+x,1/2-y,1/2+z
_cell_length_a                   7.1264(18)
_cell_length_b                   25.421(7)
_cell_length_c                   10.885(3)
_cell_angle_alpha                90
_cell_angle_beta                 99.724(4)
_cell_angle_gamma                90
_cell_volume                     1943.6
loop_
_atom_site_label
_atom_site_type_symbol
_atom_site_fract_x
_atom_site_fract_y
_atom_site_fract_z
Pb1 Pb 0.46566(6) 0.28518(2) 0.51878(4)
Pb2 Pb 0.00126(6) 0.35107(2) 0.29031(4)
Pb3 Pb 0.17845(6) 0.06194(2) 1.03224(4)
P1 P 0.0101(4) 0.13625(14) 0.7938(3)
P2 P 0.7530(4) 0.07744(13) 0.0636(3)
O1 O 0.0600(12) 0.2885(4) 0.4543(7)
O2 O -0.0207(12) 0.2496(4) 0.2706(7)
O3 O -0.1741(11) 0.1638(4) 0.8081(6)
O4 O 0.1699(11) 0.1651(4) 0.8793(6)
O5 O 0.0157(12) 0.0773(4) 0.8255(7)
O6 O 0.4911(13) 0.2133(4) 0.3630(7)
O7 O 0.5307(13) 0.1790(4) 0.5518(7)
O8 O 0.9041(11) 0.1204(4) 0.0734(7)
O9 O 0.5755(11) 0.0871(4) -0.0325(7)
O10 O 0.8557(10) 0.0253(3) 0.0463(7)
O11 O 0.7923(11) 0.3068(4) 0.6275(7)
O12 O 0.2194(15) 0.0042(5) 1.2465(8)
C1 C 0.0232(16) 0.2454(6) 0.3862(11)
C2 C 0.0409(16) 0.1946(5) 0.4486(9)
C3 C 0.0322(15) 0.1902(5) 0.5755(10)
H1 H 0.0208 0.2203 0.6221
C4 C 0.0403(16) 0.1406(5) 0.6336(10)
C5 C 0.0694(16) 0.0973(5) 0.5647(10)
H2 H 0.0795 0.0645 0.6031
C6 C 0.0844(18) 0.1006(6) 0.4394(10)
H3 H 0.1050 0.0707 0.3945
C7 C 0.0681(17) 0.1496(6) 0.3830(10)
H4 H 0.0757 0.1522 0.2987
C8 C 0.5312(17) 0.1744(6) 0.4381(10)
C9 C 0.5823(15) 0.1231(5) 0.3840(10)
C10 C 0.6299(16) 0.1218(5) 0.2643(10)
H5 H 0.6261 0.1525 0.2175
C11 C 0.6828(15) 0.0746(5) 0.2156(10)
C12 C 0.6963(17) 0.0297(6) 0.2861(10)
H6 H 0.7357 -0.0014 0.2535
C13 C 0.6513(17) 0.0299(5) 0.4075(11)
H7 H 0.6568 -0.0009 0.4540
C14 C 0.5988(18) 0.0769(5) 0.4555(11)
H8 H 0.5741 0.0779 0.5366
Pb1C Pb -0.03434(6) 0.21482(2) 0.01878(4)
Pb1C_2 Pb -0.03434(6) 0.21482(2) 1.01878(4)
Pb1C_3 Pb 0.96566(6) 0.21482(2) 0.01878(4)
Pb2C Pb -0.49874(6) 0.14893(2) 0.79031(4)
Pb2C_2 Pb 0.50126(6) 0.14893(2) 0.79031(4)
Pb2C_3 Pb 0.50126(6) 0.14893(2) -0.20969(4)
Pb3_2 Pb 1.17845(6) 0.06194(2) 0.03224(4)
Pb3B Pb 0.82155(6) -0.06194(2) -0.03224(4)
O2C O 0.4793(12) 0.2504(4) 0.7706(7)
O3C O 0.3259(11) 0.3362(4) 0.3081(6)
O4C O 0.6699(11) 0.3349(4) 0.3793(6)
O4C_2 O -0.3301(11) 0.3349(4) 0.3793(6)
O7C O 0.0307(13) 0.3210(4) 0.0518(7)
O8C O 0.4041(11) 0.3796(4) 0.5734(7)
O8_2 O -0.0959(11) 0.1204(4) 1.0734(7)
O9C O 0.0755(11) 0.4129(4) 0.4675(7)
O10B O 0.1443(10) -0.0253(3) 0.9537(7)
O10_2 O -0.1443(10) 0.0253(3) 1.0463(7)
loop_
_geom_bond_atom_site_label_1
_geom_bond_atom_site_label_2
_geom_bond_site_symmetry_1
_geom_bond_site_symmetry_2
Pb1 O1 1_555 1_555
Pb2 O1 1_555 1_555
Pb3 O5 1_555 1_555
P1 O3 1_555 1_555
P2 O8 1_555 1_555
O1 C1 1_555 1_555
O2 Pb2 1_555 1_555
O3 Pb1C_2 1_555 1_555
O4 P1 1_555 1_555
O5 P1 1_555 1_555
O6 Pb1 1_555 1_555
O7 Pb1 1_555 1_555
O8 Pb1C_3 1_555 1_555
O9 P2 1_555 1_555
O10 P2 1_555 1_555
O11 Pb1 1_555 1_555
O12 Pb3 1_555 1_555
C1 O2 1_555 1_555
C2 C1 1_555 1_555
C3 C2 1_555 1_555
H1 C3 1_555 1_555
C4 P1 1_555 1_555
C5 C4 1_555 1_555
H2 C5 1_555 1_555
C6 C5 1_555 1_555
H3 C6 1_555 1_555
C7 C2 1_555 1_555
H4 C7 1_555 1_555
C8 O6 1_555 1_555
C9 C8 1_555 1_555
C10 C9 1_555 1_555
H5 C10 1_555 1_555
C11 P2 1_555 1_555
C12 C11 1_555 1_555
H6 C12 1_555 1_555
C13 C12 1_555 1_555
H7 C13 1_555 1_555
C14 C9 1_555 1_555
H8 C14 1_555 1_555
Pb1C O2 1_555 1_555
Pb1C_2 O4 1_555 1_555
Pb2C O3 1_555 1_555
Pb2C_2 O4 1_555 1_555
Pb2C_3 O9 1_555 1_555
Pb3_2 O8 1_555 1_555
Pb3B O10 1_555 1_555
O2C Pb1 1_555 1_555
O3C Pb1 1_555 1_555
O4C Pb1 1_555 1_555
O4C_2 Pb2 1_555 1_555
O7C Pb2 1_555 1_555
O8C Pb1 1_555 1_555
O8_2 Pb3 1_555 1_555
O9C Pb2 1_555 1_555
O10B Pb3 1_555 1_555
O10_2 Pb3 1_555 1_555
Pb2 O3C 1_555 1_555
O7 C8 1_555 1_555
O7 Pb2C_2 1_555 1_555
O10 Pb3_2 1_555 1_555
C3 C4 1_555 1_555
C6 C7 1_555 1_555
C10 C11 1_555 1_555
C13 C14 1_555 1_555
Pb1C O7C 1_555 1_555
Pb1C_2 O8_2 1_555 1_555
Pb2C_2 O2C 1_555 1_555

#END
