
#######################################################################
#
#                 Cambridge Crystallographic Data Centre
#                                CCDC 
#
#######################################################################
#
# If this CIF has been generated from an entry in the Cambridge 
# Structural Database, then it will include bibliographic, chemical, 
# crystal, experimental, refinement or atomic coordinate data resulting 
# from the CCDC's data processing and validation procedures.
#
#######################################################################

data_AJASOU
_symmetry_cell_setting           monoclinic
_symmetry_space_group_name_H-M   'C 2/c'
_symmetry_Int_Tables_number      15
_space_group_name_Hall           '-C 2yn'
loop_
_symmetry_equiv_pos_site_id
_symmetry_equiv_pos_as_xyz
1 x,y,z
2 -x,y,1/2-z
3 1/2+x,1/2+y,z
4 1/2-x,1/2+y,1/2-z
5 -x,-y,-z
6 x,-y,1/2+z
7 1/2-x,1/2-y,-z
8 1/2+x,1/2-y,1/2+z
_cell_length_a                   32.030(16)
_cell_length_b                   7.653(4)
_cell_length_c                   7.231(4)
_cell_angle_alpha                90
_cell_angle_beta                 93.866(7)
_cell_angle_gamma                90
_cell_volume                     1768.47
loop_
_atom_site_label
_atom_site_type_symbol
_atom_site_fract_x
_atom_site_fract_y
_atom_site_fract_z
Pb1 Pb 0.274344(14) 0.10219(6) 0.18022(6)
P1 P 0.19259(9) 0.2006(4) 0.3733(4)
O1 O 0.2206(3) 0.0391(11) 0.3998(12)
O2 O 0.2093(3) 0.3135(11) 0.2190(11)
C1 C 0.0398(4) 0.3339(17) 0.099(2)
C2 C 0.0715(4) 0.2028(15) 0.1682(18)
C3 C 0.1296(4) -0.0468(16) 0.2887(18)
H1 H 0.1489 -0.1308 0.3308
C4 C 0.1415(4) 0.1291(15) 0.2930(18)
C5 C 0.0909(5) -0.0994(16) 0.226(2)
H2 H 0.0841 -0.2176 0.2253
C6 C 0.1108(4) 0.2577(16) 0.2324(18)
H3 H 0.1174 0.3761 0.2365
C7 C 0.0610(4) 0.0234(17) 0.161(2)
H4 H 0.0347 -0.0124 0.1139
O3 O 0.1882(3) 0.3110(12) 0.5457(12)
O4 O 0.0492(4) 0.4946(12) 0.1205(19)
O5 O 0.0062(3) 0.2808(12) 0.0178(17)
Pb1E Pb 0.274344(14) -0.10219(6) 0.68022(6)
Pb1C Pb 0.225656(14) 0.60219(6) 0.31978(6)
Pb1F Pb 0.225656(14) 0.39781(6) 0.81978(6)
O1E O 0.2206(3) -0.0391(11) -0.1002(12)
O2C O 0.2907(3) -0.1865(11) 0.2810(11)
O3F O 0.3118(3) 0.1890(12) 0.4543(12)
loop_
_geom_bond_atom_site_label_1
_geom_bond_atom_site_label_2
_geom_bond_site_symmetry_1
_geom_bond_site_symmetry_2
Pb1 O1 1_555 1_555
P1 O1 1_555 1_555
O1 Pb1E 1_555 1_555
O2 Pb1 1_555 1_555
C1 C2 1_555 1_555
C2 C6 1_555 1_555
C3 H1 1_555 1_555
C4 P1 1_555 1_555
C5 C3 1_555 1_555
H2 C5 1_555 1_555
C6 C4 1_555 1_555
H3 C6 1_555 1_555
C7 C2 1_555 1_555
H4 C7 1_555 1_555
O3 P1 1_555 1_555
O4 C1 1_555 1_555
O5 C1 1_555 1_555
Pb1C O2 1_555 1_555
Pb1F O3 1_555 1_555
O1E Pb1 1_555 1_555
O2C Pb1 1_555 1_555
O3F Pb1 1_555 1_555
P1 O2 1_555 1_555
C3 C4 1_555 1_555
C5 C7 1_555 1_555

#END
