
#######################################################################
#
#                 Cambridge Crystallographic Data Centre
#                                CCDC 
#
#######################################################################
#
# If this CIF has been generated from an entry in the Cambridge 
# Structural Database, then it will include bibliographic, chemical, 
# crystal, experimental, refinement or atomic coordinate data resulting 
# from the CCDC's data processing and validation procedures.
#
#######################################################################

data_AJATEL
_symmetry_cell_setting           monoclinic
_symmetry_space_group_name_H-M   'C 2/c'
_symmetry_Int_Tables_number      15
_space_group_name_Hall           '-C 2yn'
loop_
_symmetry_equiv_pos_site_id
_symmetry_equiv_pos_as_xyz
1 x,y,z
2 -x,y,1/2-z
3 1/2+x,1/2+y,z
4 1/2-x,1/2+y,1/2-z
5 -x,-y,-z
6 x,-y,1/2+z
7 1/2-x,1/2-y,-z
8 1/2+x,1/2-y,1/2+z
_cell_length_a                   13.440(3)
_cell_length_b                   22.216(4)
_cell_length_c                   9.930(2)
_cell_angle_alpha                90
_cell_angle_beta                 126.96(3)
_cell_angle_gamma                90
_cell_volume                     2369.14
loop_
_atom_site_label
_atom_site_type_symbol
_atom_site_fract_x
_atom_site_fract_y
_atom_site_fract_z
O8 O 0.5000 0.0289(12) 0.7500
Cd1 Cd -0.18654(13) 0.06750(7) -0.25889(18)
Cd2 Cd -0.0300(3) -0.04484(14) -0.2931(4)
P1 P -0.1112(4) 0.0712(2) -0.5399(6)
O1 O -0.1325(12) 0.0360(6) -0.4273(16)
O2 O -0.1163(11) 0.0282(7) -0.6656(16)
O3 O 0.0078(12) 0.1079(6) -0.4428(17)
O4 O -0.6740(12) 0.1458(7) -1.1056(19)
O5 O -0.6001(12) 0.0543(7) -1.0197(19)
O6 O -0.252(2) 0.0734(10) -0.077(3)
O7 O 0.0000 -0.1393(17) -0.2500
C1 C -0.2407(16) 0.1227(9) -0.663(2)
C2 C -0.3532(18) 0.0992(9) -0.787(3)
H1 H -0.3603 0.0580 -0.8071
C3 C -0.4630(17) 0.1367(9) -0.889(2)
C4 C -0.4428(19) 0.1971(9) -0.853(3)
H2 H -0.5103 0.2232 -0.9135
C5 C -0.327(2) 0.2205(10) -0.731(3)
H3 H -0.3168 0.2618 -0.7130
C6 C -0.2279(19) 0.1842(10) -0.640(3)
H4 H -0.1498 0.2006 -0.5590
C7 C -0.5838(18) 0.1097(10) -1.013(3)
Cd1E Cd -0.18654(13) -0.06750(7) 0.24111(18)
Cd1E_2 Cd -0.18654(13) -0.06750(7) -0.75889(18)
Cd1A Cd 0.18654(13) 0.06750(7) -0.24111(18)
Cd1A_2 Cd -0.81346(13) 0.06750(7) -1.24111(18)
Cd1D Cd 0.18654(13) -0.06750(7) 0.25889(18)
Cd1D_2 Cd -0.81346(13) -0.06750(7) -0.74111(18)
Cd2E Cd -0.0300(3) 0.04484(14) 0.2069(4)
Cd2A Cd 0.0300(3) -0.04484(14) -0.2069(4)
Cd2D Cd 0.0300(3) 0.04484(14) -0.7069(4)
Cd2E_2 Cd -0.0300(3) 0.04484(14) -0.7931(4)
Cd2D_2 Cd 0.0300(3) 0.04484(14) 0.2931(4)
P1E P -0.1112(4) -0.0712(2) -0.0399(6)
O1E O -0.1325(12) -0.0360(6) 0.0727(16)
O1A O 0.1325(12) 0.0360(6) -0.0727(16)
O1D O 0.1325(12) -0.0360(6) 0.4273(16)
O2E O -0.1163(11) -0.0282(7) -0.1656(16)
O2D O 0.1163(11) -0.0282(7) -0.3344(16)
O2_2 O -0.1163(11) 0.0282(7) 0.3344(16)
O2A O 0.1163(11) 0.0282(7) 0.1656(16)
O3E O 0.0078(12) -0.1079(6) 0.0572(17)
O3A O -0.0078(12) 0.1079(6) -0.0572(17)
O3D O -0.0078(12) -0.1079(6) 0.4428(17)
O4E O -0.6740(12) -0.1458(7) -0.6056(19)
O4A O -0.3260(12) 0.1458(7) -0.3944(19)
O4D O -0.3260(12) -0.1458(7) 0.1056(19)
O5E O -0.6001(12) -0.0543(7) -0.5197(19)
O5A O -0.3999(12) 0.0543(7) -0.4803(19)
O5D O -0.3999(12) -0.0543(7) 0.0197(19)
O6E O -0.252(2) -0.0734(10) 0.423(3)
O7D O 0.0000 0.1393(17) 0.2500
C1E C -0.2407(16) -0.1227(9) -0.163(2)
C2E C -0.3532(18) -0.0992(9) -0.287(3)
H1E H -0.3603 -0.0580 -0.3071
C3E C -0.4630(17) -0.1367(9) -0.389(2)
C4E C -0.4428(19) -0.1971(9) -0.353(3)
H2E H -0.5103 -0.2232 -0.4135
C5E C -0.327(2) -0.2205(10) -0.231(3)
H3E H -0.3168 -0.2618 -0.2130
C6E C -0.2279(19) -0.1842(10) -0.140(3)
H4E H -0.1498 -0.2006 -0.0590
C7E C -0.5838(18) -0.1097(10) -0.513(3)
loop_
_geom_bond_atom_site_label_1
_geom_bond_atom_site_label_2
_geom_bond_site_symmetry_1
_geom_bond_site_symmetry_2
Cd1 O1 1_555 1_555
Cd2 O1 1_555 1_555
P1 O1 1_555 1_555
O1 Cd2A 1_555 1_555
O2 P1 1_555 1_555
O3 P1 1_555 1_555
O4 C7 1_555 1_555
O5 C7 1_555 1_555
O6 Cd1 1_555 1_555
O7 Cd2 1_555 1_555
C1 P1 1_555 1_555
C2 C1 1_555 1_555
H1 C2 1_555 1_555
C3 C2 1_555 1_555
C4 C3 1_555 1_555
H2 C4 1_555 1_555
C5 C4 1_555 1_555
H3 C5 1_555 1_555
C6 C1 1_555 1_555
H4 C6 1_555 1_555
C7 C3 1_555 1_555
Cd1E O1E 1_555 1_555
Cd1E_2 O2 1_555 1_555
Cd1A O3 1_555 1_555
Cd1A_2 O4 1_555 1_555
Cd1D O1D 1_555 1_555
Cd1D_2 O4E 1_555 1_555
Cd2E Cd2D_2 1_555 1_555
Cd2A Cd2 1_555 1_555
Cd2D O2 1_555 1_555
Cd2E_2 O2 1_555 1_555
Cd2D_2 O1E 1_555 1_555
P1E O1E 1_555 1_555
O1E Cd2E 1_555 1_555
O1A Cd2 1_555 1_555
O1D Cd2E 1_555 1_555
O2E Cd1 1_555 1_555
O2D Cd2 1_555 1_555
O2_2 Cd1E 1_555 1_555
O2A Cd1D 1_555 1_555
O3E Cd1D 1_555 1_555
O3A Cd1 1_555 1_555
O3D Cd1E 1_555 1_555
O4E C7E 1_555 1_555
O4A Cd1 1_555 1_555
O4D Cd1E 1_555 1_555
O5E Cd1D_2 1_555 1_555
O5A Cd1 1_555 1_555
O5D Cd1E 1_555 1_555
O6E Cd1E 1_555 1_555
O7D Cd2E 1_555 1_555
C1E P1E 1_555 1_555
C2E C1E 1_555 1_555
H1E C2E 1_555 1_555
C3E C2E 1_555 1_555
C4E C3E 1_555 1_555
H2E C4E 1_555 1_555
C5E C4E 1_555 1_555
H3E C5E 1_555 1_555
C6E C1E 1_555 1_555
H4E C6E 1_555 1_555
C7E O5E 1_555 1_555
Cd2 O2E 1_555 1_555
O5 Cd1A_2 1_555 1_555
O7 Cd2A 1_555 1_555
C5 C6 1_555 1_555
Cd1A O1A 1_555 1_555
Cd1A O2D 1_555 1_555
Cd2E O2_2 1_555 1_555
Cd2E O2A 1_555 1_555
Cd2A O1A 1_555 1_555
Cd2A O2E 1_555 1_555
Cd2A O2D 1_555 1_555
Cd2D Cd2E_2 1_555 1_555
Cd2D_2 O1D 1_555 1_555
Cd2D_2 O2_2 1_555 1_555
Cd2D_2 O2A 1_555 1_555
Cd2D_2 O7D 1_555 1_555
P1E O2E 1_555 1_555
P1E O3E 1_555 1_555
C3E C7E 1_555 1_555
C5E C6E 1_555 1_555

#END
