
#######################################################################
#
#                 Cambridge Crystallographic Data Centre
#                                CCDC 
#
#######################################################################
#
# If this CIF has been generated from an entry in the Cambridge 
# Structural Database, then it will include bibliographic, chemical, 
# crystal, experimental, refinement or atomic coordinate data resulting 
# from the CCDC's data processing and validation procedures.
#
#######################################################################

data_AJAVOY
_symmetry_cell_setting           monoclinic
_symmetry_space_group_name_H-M   'P 21/c'
_symmetry_Int_Tables_number      14
_space_group_name_Hall           '-P 2ybc'
loop_
_symmetry_equiv_pos_site_id
_symmetry_equiv_pos_as_xyz
1 x,y,z
2 -x,1/2+y,1/2-z
3 -x,-y,-z
4 x,1/2-y,1/2+z
_cell_length_a                   17.6858(16)
_cell_length_b                   21.480(2)
_cell_length_c                   15.5132(15)
_cell_angle_alpha                90
_cell_angle_beta                 100.476(2)
_cell_angle_gamma                90
_cell_volume                     5795.09
loop_
_atom_site_label
_atom_site_type_symbol
_atom_site_fract_x
_atom_site_fract_y
_atom_site_fract_z
Co1 Co 0.72073(3) 0.40129(3) 0.03874(4)
N1 N 1.18516(19) 0.93404(16) 0.3640(2)
N2 N 0.9442(2) 0.95623(17) 0.1359(2)
N3 N 0.6697(2) 0.73004(17) -0.0318(3)
N4 N 0.6975(2) 0.49677(17) 0.0011(2)
N5 N 0.3747(2) -0.12833(16) -0.4416(2)
N6 N 0.5897(2) -0.14322(17) -0.1720(2)
N7 N 0.7432(2) 0.07729(17) 0.1470(2)
N8 N 0.73933(19) 0.30697(16) 0.0869(2)
C1 C 1.1354(2) 0.9768(2) 0.3835(3)
H1 H 1.1420 0.9915 0.4421
C2 C 1.0760(2) 1.0003(2) 0.3237(3)
H2 H 1.0425 1.0306 0.3408
C3 C 1.0651(2) 0.97935(19) 0.2378(3)
C4 C 1.1155(2) 0.9348(2) 0.2176(3)
H3 H 1.1094 0.9185 0.1598
C5 C 1.1742(2) 0.9142(2) 0.2816(3)
H4 H 1.2089 0.8841 0.2660
C6 C 1.0004(3) 1.0047(2) 0.1694(3)
H5 H 0.9741 1.0387 0.1955
H6 H 1.0219 1.0224 0.1202
C7 C 0.9566(2) 0.9223(2) 0.0618(3)
C8 C 0.8839(2) 0.9466(2) 0.1798(3)
C9 C 0.8978(2) 0.8758(2) 0.0270(3)
C10 C 0.8277(2) 0.8978(2) 0.1459(3)
C11 C 0.9049(3) 0.8428(2) -0.0468(3)
H7 H 0.9476 0.8501 -0.0747
C12 C 0.8351(2) 0.86504(19) 0.0697(3)
C13 C 0.7671(3) 0.8850(2) 0.1885(3)
H8 H 0.7628 0.9067 0.2407
C14 C 0.8495(3) 0.7983(2) -0.0813(3)
H9 H 0.8550 0.7756 -0.1323
C15 C 0.7795(2) 0.8200(2) 0.0354(3)
C16 C 0.7122(3) 0.8402(2) 0.1547(3)
H10 H 0.6708 0.8317 0.1843
C17 C 0.7872(3) 0.7875(2) -0.0414(3)
C18 C 0.7175(3) 0.8084(2) 0.0791(3)
C19 C 0.7292(3) 0.7401(2) -0.0778(3)
C20 C 0.6601(3) 0.7606(2) 0.0451(3)
C21 C 0.6145(3) 0.6811(2) -0.0672(3)
H11 H 0.6015 0.6853 -0.1318
H12 H 0.5667 0.6866 -0.0434
C22 C 0.6464(2) 0.6173(2) -0.0443(3)
C23 C 0.6693(2) 0.5999(2) 0.0428(3)
H13 H 0.6681 0.6292 0.0883
C24 C 0.6937(2) 0.5400(2) 0.0625(3)
H14 H 0.7085 0.5287 0.1224
C25 C 0.6779(3) 0.5141(2) -0.0827(3)
H15 H 0.6818 0.4844 -0.1270
C26 C 0.6523(3) 0.5729(2) -0.1076(3)
H16 H 0.6387 0.5831 -0.1681
C27 C 0.3669(3) -0.1774(2) -0.3908(3)
H17 H 0.3194 -0.1992 -0.4010
C28 C 0.4238(3) -0.1978(2) -0.3247(3)
H18 H 0.4154 -0.2334 -0.2913
C29 C 0.4933(2) -0.1668(2) -0.3067(3)
C30 C 0.5010(2) -0.1150(2) -0.3567(3)
H19 H 0.5470 -0.0912 -0.3452
C31 C 0.4419(2) -0.0977(2) -0.4233(3)
H20 H 0.4492 -0.0625 -0.4580
C32 C 0.5577(3) -0.1906(2) -0.2374(3)
H21 H 0.5385 -0.2261 -0.2067
H22 H 0.5994 -0.2064 -0.2662
C33 C 0.5487(2) -0.1319(2) -0.1048(3)
C34 C 0.6581(2) -0.1139(2) -0.1821(3)
C35 C 0.5819(2) -0.0858(2) -0.0375(3)
C36 C 0.6910(2) -0.0691(2) -0.1128(3)
C37 C 0.5453(2) -0.0730(2) 0.0317(3)
H23 H 0.4990 -0.0942 0.0364
C38 C 0.6518(2) -0.05562(19) -0.0435(3)
C39 C 0.7603(2) -0.0404(2) -0.1166(3)
H24 H 0.7867 -0.0496 -0.1632
C40 C 0.5758(2) -0.0290(2) 0.0951(3)
H25 H 0.5497 -0.0200 0.1420
C41 C 0.6827(2) -0.01182(19) 0.0204(3)
C42 C 0.7915(2) 0.0024(2) -0.0513(3)
H26 H 0.8398 0.0213 -0.0531
C43 C 0.6436(2) 0.0014(2) 0.0899(3)
C44 C 0.7529(2) 0.01725(19) 0.0150(3)
C45 C 0.6754(3) 0.0477(2) 0.1576(3)
C46 C 0.7856(2) 0.06376(19) 0.0818(3)
C47 C 0.7758(3) 0.1266(2) 0.2100(3)
H27 H 0.8316 0.1192 0.2297
H28 H 0.7508 0.1251 0.2621
C48 C 0.7633(3) 0.1899(2) 0.1670(3)
C49 C 0.6901(2) 0.2129(2) 0.1380(3)
H29 H 0.6465 0.1891 0.1454
C50 C 0.6803(2) 0.2701(2) 0.0987(3)
H30 H 0.6294 0.2846 0.0786
C51 C 0.8102(2) 0.2843(2) 0.1147(3)
H31 H 0.8529 0.3091 0.1068
C52 C 0.8245(3) 0.2268(2) 0.1543(3)
H32 H 0.8759 0.2127 0.1726
O1 O 1.01311(18) 0.93174(15) 0.0302(2)
O2 O 0.8774(2) 0.97834(16) 0.2427(2)
O3 O 0.7319(2) 0.71121(17) -0.1432(2)
O4 O 0.6065(2) 0.74781(17) 0.0815(2)
O5 O 0.4897(2) -0.15996(18) -0.1023(2)
O6 O 0.68816(18) -0.12525(17) -0.2443(2)
O7 O 0.6440(2) 0.06001(17) 0.2194(2)
O8 O 0.84626(18) 0.08958(15) 0.0808(2)
O9 O 0.79419(19) 0.38740(19) -0.0514(2)
S1 S 0.59035(14) 0.43791(13) 0.17521(15)
C53 C 0.5674(8) 0.3799(6) 0.2471(9)
F1 F 0.5460(4) 0.3282(3) 0.2002(5)
F2 F 0.5096(5) 0.3937(4) 0.2843(5)
F3 F 0.6311(6) 0.3644(5) 0.3069(6)
O10 O 0.6478(9) 0.4091(7) 0.1335(11)
O11 O 0.6153(5) 0.4901(3) 0.2333(5)
O12 O 0.5212(3) 0.4519(3) 0.1169(5)
H33 H 0.809(4) 0.3472(11) -0.056(5)
H34 H 0.822(3) 0.417(2) -0.070(5)
Co1A Co 0.27927(3) -0.09871(3) -0.53874(4)
Co1A_2 Co 1.27927(3) 0.90129(3) 0.46126(4)
N1A N 0.81484(19) 0.43404(16) 0.1360(2)
N5A N 0.6253(2) 0.37167(16) -0.0584(2)
S2 S 0.96394(8) -0.20070(8) 0.69843(10)
C54 C 0.8651(3) -0.1757(3) 0.6768(4)
F4 F 0.8570(2) -0.12383(19) 0.7193(4)
F5 F 0.8413(3) -0.1656(4) 0.5936(3)
F6 F 0.8195(2) -0.21681(19) 0.7024(3)
O13 O 0.9609(4) -0.2603(3) 0.6562(5)
O14 O 1.0063(3) -0.1546(3) 0.6636(4)
O15 O 0.9809(3) -0.2051(3) 0.7901(3)
O16 O 1.1005(4) -0.4625(4) 1.0953(4)
O17 O 0.8700(3) 0.2128(2) 0.4090(4)
C55 C 0.8766(5) 0.2773(3) 0.4233(6)
C56 C 0.7988(5) 0.3054(3) 0.4068(5)
Cl1 Cl 1.0325(5) -0.6590(5) 1.1374(6)
Cl2 Cl 1.1479(5) -0.6052(5) 1.0696(6)
Cl3 Cl 1.0036(7) -0.5770(5) 1.0038(6)
C57 C 1.0619(8) -0.6269(15) 1.0567(19)
S3? S 0.5806(3) 0.4065(3) 0.1714(4)
C58? C 0.609(2) 0.3894(14) 0.284(2)
F7? F 0.6549(9) 0.3332(7) 0.2860(9)
F8? F 0.5539(10) 0.3786(8) 0.3250(10)
F9? F 0.6572(10) 0.4256(7) 0.3339(8)
O18? O 0.6551(17) 0.4175(13) 0.1447(19)
O19? O 0.5445(9) 0.4707(7) 0.1848(12)
O20? O 0.5353(6) 0.3606(6) 0.1342(8)
O21? O 1.0122(13) -0.6463(12) 1.0837(18)
C59? C 1.0828(14) -0.6309(15) 1.074(2)
C60? C 1.0628(8) -0.5787(6) 1.0134(9)
loop_
_geom_bond_atom_site_label_1
_geom_bond_atom_site_label_2
_geom_bond_site_symmetry_1
_geom_bond_site_symmetry_2
Co1 N4 1_555 1_555
N1 C1 1_555 1_555
N2 C6 1_555 1_555
N3 C19 1_555 1_555
N4 C24 1_555 1_555
N5 C27 1_555 1_555
N6 C32 1_555 1_555
N7 C45 1_555 1_555
N8 Co1 1_555 1_555
C1 H1 1_555 1_555
C2 C1 1_555 1_555
H2 C2 1_555 1_555
C3 C2 1_555 1_555
C4 C3 1_555 1_555
H3 C4 1_555 1_555
C5 N1 1_555 1_555
H4 C5 1_555 1_555
C6 C3 1_555 1_555
H5 C6 1_555 1_555
H6 C6 1_555 1_555
C7 N2 1_555 1_555
C8 N2 1_555 1_555
C9 C7 1_555 1_555
C10 C8 1_555 1_555
C11 C9 1_555 1_555
H7 C11 1_555 1_555
C12 C9 1_555 1_555
C13 C10 1_555 1_555
H8 C13 1_555 1_555
C14 C11 1_555 1_555
H9 C14 1_555 1_555
C15 C12 1_555 1_555
C16 C13 1_555 1_555
H10 C16 1_555 1_555
C17 C14 1_555 1_555
C18 C15 1_555 1_555
C19 C17 1_555 1_555
C20 N3 1_555 1_555
C21 N3 1_555 1_555
H11 C21 1_555 1_555
H12 C21 1_555 1_555
C22 C21 1_555 1_555
C23 C22 1_555 1_555
H13 C23 1_555 1_555
C24 C23 1_555 1_555
H14 C24 1_555 1_555
C25 N4 1_555 1_555
H15 C25 1_555 1_555
C26 C22 1_555 1_555
H16 C26 1_555 1_555
C27 H17 1_555 1_555
C28 C27 1_555 1_555
H18 C28 1_555 1_555
C29 C28 1_555 1_555
C30 C29 1_555 1_555
H19 C30 1_555 1_555
C31 N5 1_555 1_555
H20 C31 1_555 1_555
C32 C29 1_555 1_555
H21 C32 1_555 1_555
H22 C32 1_555 1_555
C33 N6 1_555 1_555
C34 N6 1_555 1_555
C35 C33 1_555 1_555
C36 C34 1_555 1_555
C37 C35 1_555 1_555
H23 C37 1_555 1_555
C38 C35 1_555 1_555
C39 C36 1_555 1_555
H24 C39 1_555 1_555
C40 C37 1_555 1_555
H25 C40 1_555 1_555
C41 C38 1_555 1_555
C42 C39 1_555 1_555
H26 C42 1_555 1_555
C43 C40 1_555 1_555
C44 C41 1_555 1_555
C45 C43 1_555 1_555
C46 N7 1_555 1_555
C47 N7 1_555 1_555
H27 C47 1_555 1_555
H28 C47 1_555 1_555
C48 C47 1_555 1_555
C49 C48 1_555 1_555
H29 C49 1_555 1_555
C50 N8 1_555 1_555
H30 C50 1_555 1_555
C51 N8 1_555 1_555
H31 C51 1_555 1_555
C52 C48 1_555 1_555
H32 C52 1_555 1_555
O1 C7 1_555 1_555
O2 C8 1_555 1_555
O3 C19 1_555 1_555
O4 C20 1_555 1_555
O5 C33 1_555 1_555
O6 C34 1_555 1_555
O7 C45 1_555 1_555
O8 C46 1_555 1_555
O9 Co1 1_555 1_555
S1 C53 1_555 1_555
C53 F1 1_555 1_555
F2 C53 1_555 1_555
F3 C53 1_555 1_555
O10 Co1 1_555 1_555
O11 S1 1_555 1_555
O12 S1 1_555 1_555
H33 O9 1_555 1_555
H34 O9 1_555 1_555
S2 C54 1_555 1_555
C54 F4 1_555 1_555
F5 C54 1_555 1_555
F6 C54 1_555 1_555
O13 S2 1_555 1_555
O14 S2 1_555 1_555
O15 S2 1_555 1_555
O17 C55 1_555 1_555
C55 C56 1_555 1_555
Cl1 C57 1_555 1_555
Cl2 C57 1_555 1_555
Cl3 C57 1_555 1_555
Co1A N5 1_555 1_555
Co1A_2 N1 1_555 1_555
N1A Co1 1_555 1_555
N5A Co1 1_555 1_555
C4 C5 1_555 1_555
C10 C12 1_555 1_555
C15 C17 1_555 1_555
C16 C18 1_555 1_555
C18 C20 1_555 1_555
C25 C26 1_555 1_555
C30 C31 1_555 1_555
C36 C38 1_555 1_555
C41 C43 1_555 1_555
C42 C44 1_555 1_555
C44 C46 1_555 1_555
C49 C50 1_555 1_555
C51 C52 1_555 1_555
S1 O10 1_555 1_555

#END
