
#######################################################################
#
#                 Cambridge Crystallographic Data Centre
#                                CCDC 
#
#######################################################################
#
# If this CIF has been generated from an entry in the Cambridge 
# Structural Database, then it will include bibliographic, chemical, 
# crystal, experimental, refinement or atomic coordinate data resulting 
# from the CCDC's data processing and validation procedures.
#
#######################################################################

data_AJEBUN
_symmetry_cell_setting           monoclinic
_symmetry_space_group_name_H-M   'P 21/c'
_symmetry_Int_Tables_number      14
_space_group_name_Hall           '-P 2ybc'
loop_
_symmetry_equiv_pos_site_id
_symmetry_equiv_pos_as_xyz
1 x,y,z
2 -x,1/2+y,1/2-z
3 -x,-y,-z
4 x,1/2-y,1/2+z
_cell_length_a                   11.6520(2)
_cell_length_b                   23.8720(4)
_cell_length_c                   22.2274(4)
_cell_angle_alpha                90
_cell_angle_beta                 101.898(2)
_cell_angle_gamma                90
_cell_volume                     6049.87
loop_
_atom_site_label
_atom_site_type_symbol
_atom_site_fract_x
_atom_site_fract_y
_atom_site_fract_z
C1 C 0.5828(2) 0.07481(10) 0.37127(12)
C2 C 0.5515(2) 0.03207(10) 0.41713(12)
H1 H 0.6243 0.0209 0.4461
H2 H 0.4995 0.0503 0.4413
C3 C 0.4916(3) -0.01983(11) 0.38698(14)
H3 H 0.4155 -0.0098 0.3602
H4 H 0.4768 -0.0464 0.4187
C4 C 0.5715(2) -0.04658(10) 0.34893(12)
H5 H 0.5324 -0.0801 0.3279
H6 H 0.6448 -0.0590 0.3767
C5 C 0.6021(2) -0.00652(10) 0.30080(12)
C6 C 0.4972(2) 0.00238(10) 0.24710(12)
H7 H 0.4273 0.0113 0.2633
H8 H 0.4833 -0.0319 0.2224
H9 H 0.5142 0.0334 0.2214
C7 C 0.7000(2) -0.03447(9) 0.27501(11)
H10 H 0.7196 -0.0110 0.2424
H11 H 0.6736 -0.0713 0.2582
H12 H 0.7696 -0.0390 0.3080
C8 C 0.4715(2) 0.10432(10) 0.33656(12)
H13 H 0.4871 0.1214 0.2989
H14 H 0.4485 0.1335 0.3627
H15 H 0.4079 0.0769 0.3259
C9 C 0.6649(2) 0.11753(10) 0.40963(11)
H16 H 0.7333 0.0981 0.4337
H17 H 0.6232 0.1370 0.4375
H18 H 0.6907 0.1448 0.3823
C10 C 1.0706(2) 0.00332(10) 0.20265(12)
C11 C 1.1099(3) -0.03185(11) 0.15296(12)
H19 H 1.1600 -0.0629 0.1729
H20 H 1.0399 -0.0486 0.1262
C12 C 1.1772(3) 0.00135(11) 0.11335(14)
H21 H 1.2512 0.0158 0.1388
H22 H 1.1968 -0.0228 0.0807
C13 C 1.0999(3) 0.04954(11) 0.08499(13)
H23 H 1.0293 0.0342 0.0574
H24 H 1.1430 0.0722 0.0596
C14 C 1.0614(3) 0.08772(11) 0.13260(13)
C15 C 0.9672(2) 0.12676(10) 0.09697(12)
H25 H 0.9042 0.1044 0.0722
H26 H 1.0020 0.1510 0.0699
H27 H 0.9351 0.1499 0.1260
C16 C 1.1660(2) 0.12275(11) 0.16719(15)
H28 H 1.1526 0.1329 0.2079
H29 H 1.1735 0.1569 0.1438
H30 H 1.2382 0.1007 0.1718
C17 C 0.9849(2) -0.03282(10) 0.22934(12)
H31 H 1.0237 -0.0677 0.2455
H32 H 0.9164 -0.0415 0.1970
H33 H 0.9597 -0.0124 0.2626
C18 C 1.1745(2) 0.01719(11) 0.25393(13)
H34 H 1.2363 0.0348 0.2365
H35 H 1.2047 -0.0173 0.2754
H36 H 1.1495 0.0431 0.2830
C19 C 0.6950(2) 0.28785(10) 0.12225(11)
C20 C 0.5964(2) 0.32657(10) 0.09012(12)
H37 H 0.5525 0.3404 0.1208
H38 H 0.6314 0.3594 0.0735
C21 C 0.5120(2) 0.29844(11) 0.03856(12)
H39 H 0.5532 0.2873 0.0057
H40 H 0.4480 0.3246 0.0208
C22 C 0.4618(2) 0.24703(11) 0.06414(13)
H41 H 0.4088 0.2274 0.0301
H42 H 0.4144 0.2593 0.0939
C23 C 0.5554(2) 0.20579(11) 0.09605(12)
C24 C 0.4919(2) 0.16449(10) 0.13133(12)
H43 H 0.5484 0.1372 0.1532
H44 H 0.4304 0.1448 0.1023
H45 H 0.4566 0.1851 0.1610
C25 C 0.6083(2) 0.17393(10) 0.04810(11)
H46 H 0.6139 0.1991 0.0140
H47 H 0.5580 0.1420 0.0326
H48 H 0.6868 0.1604 0.0672
C26 C 0.7589(2) 0.31792(9) 0.17968(11)
H49 H 0.7049 0.3240 0.2075
H50 H 0.7879 0.3541 0.1682
H51 H 0.8252 0.2950 0.2004
C27 C 0.7836(2) 0.27758(10) 0.08053(12)
H52 H 0.8371 0.2472 0.0977
H53 H 0.8288 0.3119 0.0781
H54 H 0.7413 0.2671 0.0393
C28 C 1.1022(2) 0.20123(10) 0.41338(11)
C29 C 1.1954(2) 0.24396(10) 0.44284(12)
H55 H 1.2560 0.2244 0.4734
H56 H 1.2340 0.2592 0.4106
C30 C 1.1471(2) 0.29242(11) 0.47441(12)
H57 H 1.1146 0.2785 0.5094
H58 H 1.2102 0.3196 0.4903
C31 C 1.0518(2) 0.32022(10) 0.42747(11)
H59 H 1.0873 0.3368 0.3948
H60 H 1.0173 0.3511 0.4476
C32 C 0.9533(2) 0.27993(10) 0.39783(11)
C33 C 0.8766(2) 0.26438(10) 0.44414(12)
H61 H 0.8259 0.2327 0.4282
H62 H 0.8282 0.2966 0.4502
H63 H 0.9271 0.2539 0.4835
C34 C 0.8770(2) 0.31029(10) 0.34420(11)
H64 H 0.9243 0.3205 0.3142
H65 H 0.8447 0.3443 0.3591
H66 H 0.8126 0.2857 0.3247
C35 C 1.0621(2) 0.16554(10) 0.46287(11)
H67 H 1.0524 0.1896 0.4972
H68 H 1.1213 0.1368 0.4778
H69 H 0.9872 0.1475 0.4452
C36 C 1.1613(2) 0.16320(10) 0.37333(12)
H70 H 1.1055 0.1346 0.3538
H71 H 1.2296 0.1450 0.3990
H72 H 1.1867 0.1857 0.3415
C37 C 0.5623(2) -0.00743(12) -0.00214(13)
H73 H 0.5617 -0.0433 -0.0246
H74 H 0.5932 0.0219 -0.0260
C38 C 0.6114(3) -0.06115(13) 0.09187(14)
H75 H 0.5338 -0.0559 0.1016
H76 H 0.6702 -0.0653 0.1301
H77 H 0.6109 -0.0949 0.0667
C39 C 0.7617(3) -0.01893(14) 0.04924(14)
H78 H 0.8156 -0.0199 0.0894
H79 H 0.7815 0.0128 0.0254
H80 H 0.7686 -0.0538 0.0271
C40 C 1.1895(3) -0.00906(14) 0.42440(14)
H81 H 1.2230 0.0270 0.4402
H82 H 1.1933 -0.0126 0.3809
H83 H 1.2341 -0.0395 0.4479
C41 C 1.0622(2) -0.00406(11) 0.49538(12)
H84 H 1.1097 0.0291 0.5115
H85 H 1.0971 -0.0371 0.5192
C42 C 1.0179(3) -0.06643(12) 0.40855(13)
H86 H 1.0591 -0.0962 0.4349
H87 H 1.0276 -0.0721 0.3662
H88 H 0.9344 -0.0674 0.4097
C43 C 0.3472(2) 0.28321(11) 0.29184(12)
H89 H 0.3175 0.3159 0.3114
H90 H 0.3129 0.2491 0.3063
C44 C 0.5041(2) 0.27000(11) 0.37820(12)
H91 H 0.5896 0.2688 0.3922
H92 H 0.4704 0.2340 0.3869
H93 H 0.4718 0.3000 0.3999
C45 C 0.5290(2) 0.33361(10) 0.29966(12)
H94 H 0.5163 0.3396 0.2552
H95 H 0.6133 0.3323 0.3170
H96 H 0.4934 0.3644 0.3185
C46 C 0.1179(2) 0.32859(10) 0.22614(12)
H97 H 0.1517 0.3644 0.2170
H98 H 0.1265 0.3245 0.2707
H99 H 0.0345 0.3276 0.2065
C47 C 0.1510(2) 0.28412(11) 0.13523(12)
H100 H 0.1760 0.3201 0.1209
H101 H 0.0662 0.2797 0.1206
H102 H 0.1921 0.2536 0.1191
C48 C 0.3065(2) 0.28768(10) 0.22324(12)
H103 H 0.3319 0.3242 0.2095
H104 H 0.3448 0.2579 0.2034
Rb1 Rb 0.74938(2) 0.079687(10) 0.167697(11)
Rb2 Rb 0.90133(2) 0.076567(10) 0.338243(11)
Rb3 Rb 0.66533(2) 0.199760(10) 0.274027(11)
Rb4 Rb 0.97588(2) 0.203008(10) 0.237986(11)
O1 O 0.67267(13) 0.08460(6) 0.28450(7)
O2 O 0.97616(13) 0.08795(6) 0.22186(7)
O3 O 0.73809(13) 0.19767(6) 0.16769(7)
O4 O 0.91353(13) 0.19181(6) 0.34726(7)
N1 N 0.65282(17) 0.04620(8) 0.33111(9)
N2 N 1.00205(17) 0.05280(7) 0.17373(9)
N3 N 0.64428(17) 0.23569(8) 0.14333(9)
N4 N 1.00542(17) 0.23102(8) 0.37098(9)
N5 N 0.6400(2) -0.01266(10) 0.05810(10)
N6 N 1.06693(19) -0.01206(9) 0.43073(10)
N7 N 0.47518(18) 0.28080(8) 0.31189(9)
N8 N 0.17889(17) 0.28270(8) 0.20252(9)
C1B C 0.4172(2) -0.07481(10) -0.37127(12)
C2B C 0.4485(2) -0.03207(10) -0.41713(12)
H1B H 0.3757 -0.0209 -0.4461
H2B H 0.5005 -0.0503 -0.4413
C3B C 0.5084(3) 0.01983(11) -0.38698(14)
H3B H 0.5845 0.0098 -0.3602
H4B H 0.5232 0.0464 -0.4187
C4B C 0.4285(2) 0.04658(10) -0.34893(12)
H5B H 0.4676 0.0801 -0.3279
H6B H 0.3552 0.0590 -0.3767
C5B C 0.3979(2) 0.00652(10) -0.30080(12)
C6B C 0.5028(2) -0.00238(10) -0.24710(12)
H7B H 0.5727 -0.0113 -0.2633
H8B H 0.5167 0.0319 -0.2224
H9B H 0.4858 -0.0334 -0.2214
C7B C 0.3000(2) 0.03447(9) -0.27501(11)
H10B H 0.2804 0.0110 -0.2424
H11B H 0.3264 0.0713 -0.2582
H12B H 0.2304 0.0390 -0.3080
C8B C 0.5285(2) -0.10432(10) -0.33656(12)
H13B H 0.5129 -0.1214 -0.2989
H14B H 0.5515 -0.1335 -0.3627
H15B H 0.5921 -0.0769 -0.3259
C9B C 0.3351(2) -0.11753(10) -0.40963(11)
H16B H 0.2667 -0.0981 -0.4337
H17B H 0.3768 -0.1370 -0.4375
H18B H 0.3093 -0.1448 -0.3823
C10B C -0.0706(2) -0.00332(10) -0.20265(12)
C11B C -0.1099(3) 0.03185(11) -0.15296(12)
H19B H -0.1600 0.0629 -0.1729
H20B H -0.0399 0.0486 -0.1262
C12B C -0.1772(3) -0.00135(11) -0.11335(14)
H21B H -0.2512 -0.0158 -0.1388
H22B H -0.1968 0.0228 -0.0807
C13B C -0.0999(3) -0.04954(11) -0.08499(13)
H23B H -0.0293 -0.0342 -0.0574
H24B H -0.1430 -0.0722 -0.0596
C14B C -0.0614(3) -0.08772(11) -0.13260(13)
C15B C 0.0328(2) -0.12676(10) -0.09697(12)
H25B H 0.0958 -0.1044 -0.0722
H26B H -0.0020 -0.1510 -0.0699
H27B H 0.0649 -0.1499 -0.1260
C16B C -0.1660(2) -0.12275(11) -0.16719(15)
H28B H -0.1526 -0.1329 -0.2079
H29B H -0.1735 -0.1569 -0.1438
H30B H -0.2382 -0.1007 -0.1718
C17B C 0.0151(2) 0.03282(10) -0.22934(12)
H31B H -0.0237 0.0677 -0.2455
H32B H 0.0836 0.0415 -0.1970
H33B H 0.0403 0.0124 -0.2626
C18B C -0.1745(2) -0.01719(11) -0.25393(13)
H34B H -0.2363 -0.0348 -0.2365
H35B H -0.2047 0.0173 -0.2754
H36B H -0.1495 -0.0431 -0.2830
C19B C 0.3050(2) -0.28785(10) -0.12225(11)
C20B C 0.4036(2) -0.32657(10) -0.09012(12)
H37B H 0.4475 -0.3404 -0.1208
H38B H 0.3686 -0.3594 -0.0735
C21B C 0.4880(2) -0.29844(11) -0.03856(12)
H39B H 0.4468 -0.2873 -0.0057
H40B H 0.5520 -0.3246 -0.0208
C22B C 0.5382(2) -0.24703(11) -0.06414(13)
H41B H 0.5912 -0.2274 -0.0301
H42B H 0.5856 -0.2593 -0.0939
C23B C 0.4446(2) -0.20579(11) -0.09605(12)
C24B C 0.5081(2) -0.16449(10) -0.13133(12)
H43B H 0.4516 -0.1372 -0.1532
H44B H 0.5696 -0.1448 -0.1023
H45B H 0.5434 -0.1851 -0.1610
C25B C 0.3917(2) -0.17393(10) -0.04810(11)
H46B H 0.3861 -0.1991 -0.0140
H47B H 0.4420 -0.1420 -0.0326
H48B H 0.3132 -0.1604 -0.0672
C26B C 0.2411(2) -0.31792(9) -0.17968(11)
H49B H 0.2951 -0.3240 -0.2075
H50B H 0.2121 -0.3541 -0.1682
H51B H 0.1748 -0.2950 -0.2004
C27B C 0.2164(2) -0.27758(10) -0.08053(12)
H52B H 0.1629 -0.2472 -0.0977
H53B H 0.1712 -0.3119 -0.0781
H54B H 0.2587 -0.2671 -0.0393
C28B C -0.1022(2) -0.20123(10) -0.41338(11)
C29B C -0.1954(2) -0.24396(10) -0.44284(12)
H55B H -0.2560 -0.2244 -0.4734
H56B H -0.2340 -0.2592 -0.4106
C30B C -0.1471(2) -0.29242(11) -0.47441(12)
H57B H -0.1146 -0.2785 -0.5094
H58B H -0.2102 -0.3196 -0.4903
C31B C -0.0518(2) -0.32022(10) -0.42747(11)
H59B H -0.0873 -0.3368 -0.3948
H60B H -0.0173 -0.3511 -0.4476
C32B C 0.0467(2) -0.27993(10) -0.39783(11)
C33B C 0.1234(2) -0.26438(10) -0.44414(12)
H61B H 0.1741 -0.2327 -0.4282
H62B H 0.1718 -0.2966 -0.4502
H63B H 0.0729 -0.2539 -0.4835
C34B C 0.1230(2) -0.31029(10) -0.34420(11)
H64B H 0.0757 -0.3205 -0.3142
H65B H 0.1553 -0.3443 -0.3591
H66B H 0.1874 -0.2857 -0.3247
C35B C -0.0621(2) -0.16554(10) -0.46287(11)
H67B H -0.0524 -0.1896 -0.4972
H68B H -0.1213 -0.1368 -0.4778
H69B H 0.0128 -0.1475 -0.4452
C36B C -0.1613(2) -0.16320(10) -0.37333(12)
H70B H -0.1055 -0.1346 -0.3538
H71B H -0.2296 -0.1450 -0.3990
H72B H -0.1867 -0.1857 -0.3415
C37B C 0.4377(2) 0.00743(12) 0.00214(13)
H73B H 0.4383 0.0433 0.0246
H74B H 0.4068 -0.0219 0.0260
C38B C 0.3886(3) 0.06115(13) -0.09187(14)
H75B H 0.4662 0.0559 -0.1016
H76B H 0.3298 0.0653 -0.1301
H77B H 0.3891 0.0949 -0.0667
C39B C 0.2383(3) 0.01893(14) -0.04924(14)
H78B H 0.1844 0.0199 -0.0894
H79B H 0.2185 -0.0128 -0.0254
H80B H 0.2314 0.0538 -0.0271
C40B C 0.8105(3) 0.00906(14) 0.57560(14)
H81B H 0.7770 -0.0270 0.5598
H82B H 0.8067 0.0126 0.6191
H83B H 0.7659 0.0395 0.5521
C41B C 0.9378(2) 0.00406(11) 0.50462(12)
H84B H 0.8903 -0.0291 0.4885
H85B H 0.9029 0.0371 0.4808
C42B C 0.9821(3) 0.06643(12) 0.59145(13)
H86B H 0.9409 0.0962 0.5651
H87B H 0.9724 0.0721 0.6338
H88B H 1.0656 0.0674 0.5903
C43_2 C 1.3472(2) 0.28321(11) 0.29184(12)
H89_2 H 1.3175 0.3159 0.3114
H90_2 H 1.3129 0.2491 0.3063
C44_2 C 1.5041(2) 0.27000(11) 0.37820(12)
H91_2 H 1.5896 0.2688 0.3922
H92_2 H 1.4704 0.2340 0.3869
H93_2 H 1.4718 0.3000 0.3999
C45_2 C 1.5290(2) 0.33361(10) 0.29966(12)
H94_2 H 1.5163 0.3396 0.2552
H95_2 H 1.6133 0.3323 0.3170
H96_2 H 1.4934 0.3644 0.3185
C46_2 C 1.1179(2) 0.32859(10) 0.22614(12)
H97_2 H 1.1517 0.3644 0.2170
H98_2 H 1.1265 0.3245 0.2707
H99_2 H 1.0345 0.3276 0.2065
C47_2 C 1.1510(2) 0.28412(11) 0.13523(12)
H100_2 H 1.1760 0.3201 0.1209
H101_2 H 1.0662 0.2797 0.1206
H102_2 H 1.1921 0.2536 0.1191
C48_2 C 1.3065(2) 0.28768(10) 0.22324(12)
H103_2 H 1.3319 0.3242 0.2095
H104_2 H 1.3448 0.2579 0.2034
Rb1B Rb 0.25062(2) -0.079687(10) -0.167697(11)
Rb2B Rb 0.09867(2) -0.076567(10) -0.338243(11)
Rb2B_2 Rb 1.09867(2) -0.076567(10) 0.661757(11)
Rb3B Rb 0.33467(2) -0.199760(10) -0.274027(11)
Rb3_2 Rb 1.66533(2) 0.199760(10) 0.274027(11)
Rb4B Rb 0.02412(2) -0.203008(10) -0.237986(11)
Rb4_2 Rb -0.02412(2) 0.203008(10) 0.237986(11)
O1B O 0.32733(13) -0.08460(6) -0.28450(7)
O2B O 0.02384(13) -0.08795(6) -0.22186(7)
O3B O 0.26191(13) -0.19767(6) -0.16769(7)
O4B O 0.08647(13) -0.19181(6) -0.34726(7)
N1B N 0.34718(17) -0.04620(8) -0.33111(9)
N2B N -0.00205(17) -0.05280(7) -0.17373(9)
N3B N 0.35572(17) -0.23569(8) -0.14333(9)
N4B N -0.00542(17) -0.23102(8) -0.37098(9)
N5B N 0.3600(2) 0.01266(10) -0.05810(10)
N6B N 0.93307(19) 0.01206(9) 0.56927(10)
N6B_2 N -0.06693(19) 0.01206(9) -0.43073(10)
N7_2 N 1.47518(18) 0.28080(8) 0.31189(9)
N7B N 0.52482(18) -0.28080(8) -0.31189(9)
N8_2 N 1.17889(17) 0.28270(8) 0.20252(9)
N8B N -0.17889(17) -0.28270(8) -0.20252(9)
loop_
_geom_bond_atom_site_label_1
_geom_bond_atom_site_label_2
_geom_bond_site_symmetry_1
_geom_bond_site_symmetry_2
C1 C2 1_555 1_555
C2 H1 1_555 1_555
H2 C2 1_555 1_555
C3 C2 1_555 1_555
H3 C3 1_555 1_555
H4 C3 1_555 1_555
C4 C3 1_555 1_555
H5 C4 1_555 1_555
H6 C4 1_555 1_555
C5 C4 1_555 1_555
C6 C5 1_555 1_555
H7 C6 1_555 1_555
H8 C6 1_555 1_555
H9 C6 1_555 1_555
C7 C5 1_555 1_555
H10 C7 1_555 1_555
H11 C7 1_555 1_555
H12 C7 1_555 1_555
C8 C1 1_555 1_555
H13 C8 1_555 1_555
H14 C8 1_555 1_555
H15 C8 1_555 1_555
C9 C1 1_555 1_555
H16 C9 1_555 1_555
H17 C9 1_555 1_555
H18 C9 1_555 1_555
C10 C11 1_555 1_555
C11 H19 1_555 1_555
H20 C11 1_555 1_555
C12 C11 1_555 1_555
H21 C12 1_555 1_555
H22 C12 1_555 1_555
C13 C12 1_555 1_555
H23 C13 1_555 1_555
H24 C13 1_555 1_555
C14 C13 1_555 1_555
C15 C14 1_555 1_555
H25 C15 1_555 1_555
H26 C15 1_555 1_555
H27 C15 1_555 1_555
C16 C14 1_555 1_555
H28 C16 1_555 1_555
H29 C16 1_555 1_555
H30 C16 1_555 1_555
C17 C10 1_555 1_555
H31 C17 1_555 1_555
H32 C17 1_555 1_555
H33 C17 1_555 1_555
C18 C10 1_555 1_555
H34 C18 1_555 1_555
H35 C18 1_555 1_555
H36 C18 1_555 1_555
C19 C20 1_555 1_555
C20 H37 1_555 1_555
H38 C20 1_555 1_555
C21 C20 1_555 1_555
H39 C21 1_555 1_555
H40 C21 1_555 1_555
C22 C21 1_555 1_555
H41 C22 1_555 1_555
H42 C22 1_555 1_555
C23 C22 1_555 1_555
C24 C23 1_555 1_555
H43 C24 1_555 1_555
H44 C24 1_555 1_555
H45 C24 1_555 1_555
C25 C23 1_555 1_555
H46 C25 1_555 1_555
H47 C25 1_555 1_555
H48 C25 1_555 1_555
C26 C19 1_555 1_555
H49 C26 1_555 1_555
H50 C26 1_555 1_555
H51 C26 1_555 1_555
C27 C19 1_555 1_555
H52 C27 1_555 1_555
H53 C27 1_555 1_555
H54 C27 1_555 1_555
C28 C29 1_555 1_555
C29 H55 1_555 1_555
H56 C29 1_555 1_555
C30 C29 1_555 1_555
H57 C30 1_555 1_555
H58 C30 1_555 1_555
C31 C30 1_555 1_555
H59 C31 1_555 1_555
H60 C31 1_555 1_555
C32 C31 1_555 1_555
C33 C32 1_555 1_555
H61 C33 1_555 1_555
H62 C33 1_555 1_555
H63 C33 1_555 1_555
C34 C32 1_555 1_555
H64 C34 1_555 1_555
H65 C34 1_555 1_555
H66 C34 1_555 1_555
C35 C28 1_555 1_555
H67 C35 1_555 1_555
H68 C35 1_555 1_555
H69 C35 1_555 1_555
C36 C28 1_555 1_555
H70 C36 1_555 1_555
H71 C36 1_555 1_555
H72 C36 1_555 1_555
C37 H73 1_555 1_555
H74 C37 1_555 1_555
C38 H75 1_555 1_555
H76 C38 1_555 1_555
H77 C38 1_555 1_555
C39 H78 1_555 1_555
H79 C39 1_555 1_555
H80 C39 1_555 1_555
C40 H81 1_555 1_555
H82 C40 1_555 1_555
H83 C40 1_555 1_555
C41 H84 1_555 1_555
H85 C41 1_555 1_555
C42 H86 1_555 1_555
H87 C42 1_555 1_555
H88 C42 1_555 1_555
C43 H89 1_555 1_555
H90 C43 1_555 1_555
C44 H91 1_555 1_555
H92 C44 1_555 1_555
H93 C44 1_555 1_555
C45 H94 1_555 1_555
H95 C45 1_555 1_555
H96 C45 1_555 1_555
C46 H97 1_555 1_555
H98 C46 1_555 1_555
H99 C46 1_555 1_555
C47 H100 1_555 1_555
H101 C47 1_555 1_555
H102 C47 1_555 1_555
C48 C43 1_555 1_555
H103 C48 1_555 1_555
H104 C48 1_555 1_555
Rb1 O1 1_555 1_555
Rb2 O1 1_555 1_555
Rb3 O1 1_555 1_555
Rb4 O2 1_555 1_555
O1 N1 1_555 1_555
O2 Rb1 1_555 1_555
O3 Rb1 1_555 1_555
O4 Rb2 1_555 1_555
N1 C1 1_555 1_555
N2 C10 1_555 1_555
N3 C19 1_555 1_555
N4 C28 1_555 1_555
N5 C37 1_555 1_555
N6 C40 1_555 1_555
N7 C43 1_555 1_555
N8 C46 1_555 1_555
C1B C2B 1_555 1_555
C2B H1B 1_555 1_555
H2B C2B 1_555 1_555
C3B C2B 1_555 1_555
H3B C3B 1_555 1_555
H4B C3B 1_555 1_555
C4B C3B 1_555 1_555
H5B C4B 1_555 1_555
H6B C4B 1_555 1_555
C5B C4B 1_555 1_555
C6B C5B 1_555 1_555
H7B C6B 1_555 1_555
H8B C6B 1_555 1_555
H9B C6B 1_555 1_555
C7B C5B 1_555 1_555
H10B C7B 1_555 1_555
H11B C7B 1_555 1_555
H12B C7B 1_555 1_555
C8B C1B 1_555 1_555
H13B C8B 1_555 1_555
H14B C8B 1_555 1_555
H15B C8B 1_555 1_555
C9B C1B 1_555 1_555
H16B C9B 1_555 1_555
H17B C9B 1_555 1_555
H18B C9B 1_555 1_555
C10B C11B 1_555 1_555
C11B H19B 1_555 1_555
H20B C11B 1_555 1_555
C12B C11B 1_555 1_555
H21B C12B 1_555 1_555
H22B C12B 1_555 1_555
C13B C12B 1_555 1_555
H23B C13B 1_555 1_555
H24B C13B 1_555 1_555
C14B C13B 1_555 1_555
C15B C14B 1_555 1_555
H25B C15B 1_555 1_555
H26B C15B 1_555 1_555
H27B C15B 1_555 1_555
C16B C14B 1_555 1_555
H28B C16B 1_555 1_555
H29B C16B 1_555 1_555
H30B C16B 1_555 1_555
C17B C10B 1_555 1_555
H31B C17B 1_555 1_555
H32B C17B 1_555 1_555
H33B C17B 1_555 1_555
C18B C10B 1_555 1_555
H34B C18B 1_555 1_555
H35B C18B 1_555 1_555
H36B C18B 1_555 1_555
C19B C20B 1_555 1_555
C20B H37B 1_555 1_555
H38B C20B 1_555 1_555
C21B C20B 1_555 1_555
H39B C21B 1_555 1_555
H40B C21B 1_555 1_555
C22B C21B 1_555 1_555
H41B C22B 1_555 1_555
H42B C22B 1_555 1_555
C23B C22B 1_555 1_555
C24B C23B 1_555 1_555
H43B C24B 1_555 1_555
H44B C24B 1_555 1_555
H45B C24B 1_555 1_555
C25B C23B 1_555 1_555
H46B C25B 1_555 1_555
H47B C25B 1_555 1_555
H48B C25B 1_555 1_555
C26B C19B 1_555 1_555
H49B C26B 1_555 1_555
H50B C26B 1_555 1_555
H51B C26B 1_555 1_555
C27B C19B 1_555 1_555
H52B C27B 1_555 1_555
H53B C27B 1_555 1_555
H54B C27B 1_555 1_555
C28B C29B 1_555 1_555
C29B H55B 1_555 1_555
H56B C29B 1_555 1_555
C30B C29B 1_555 1_555
H57B C30B 1_555 1_555
H58B C30B 1_555 1_555
C31B C30B 1_555 1_555
H59B C31B 1_555 1_555
H60B C31B 1_555 1_555
C32B C31B 1_555 1_555
C33B C32B 1_555 1_555
H61B C33B 1_555 1_555
H62B C33B 1_555 1_555
H63B C33B 1_555 1_555
C34B C32B 1_555 1_555
H64B C34B 1_555 1_555
H65B C34B 1_555 1_555
H66B C34B 1_555 1_555
C35B C28B 1_555 1_555
H67B C35B 1_555 1_555
H68B C35B 1_555 1_555
H69B C35B 1_555 1_555
C36B C28B 1_555 1_555
H70B C36B 1_555 1_555
H71B C36B 1_555 1_555
H72B C36B 1_555 1_555
C37B C37 1_555 1_555
H73B C37B 1_555 1_555
H74B C37B 1_555 1_555
C38B H75B 1_555 1_555
H76B C38B 1_555 1_555
H77B C38B 1_555 1_555
C39B H78B 1_555 1_555
H79B C39B 1_555 1_555
H80B C39B 1_555 1_555
C40B H81B 1_555 1_555
H82B C40B 1_555 1_555
H83B C40B 1_555 1_555
C41B C41 1_555 1_555
H84B C41B 1_555 1_555
H85B C41B 1_555 1_555
C42B H86B 1_555 1_555
H87B C42B 1_555 1_555
H88B C42B 1_555 1_555
C43_2 H89_2 1_555 1_555
H90_2 C43_2 1_555 1_555
C44_2 H91_2 1_555 1_555
H92_2 C44_2 1_555 1_555
H93_2 C44_2 1_555 1_555
C45_2 H94_2 1_555 1_555
H95_2 C45_2 1_555 1_555
H96_2 C45_2 1_555 1_555
C46_2 H97_2 1_555 1_555
H98_2 C46_2 1_555 1_555
H99_2 C46_2 1_555 1_555
C47_2 H100_2 1_555 1_555
H101_2 C47_2 1_555 1_555
H102_2 C47_2 1_555 1_555
C48_2 C43_2 1_555 1_555
H103_2 C48_2 1_555 1_555
H104_2 C48_2 1_555 1_555
Rb1B O1B 1_555 1_555
Rb2B O1B 1_555 1_555
Rb2B_2 N6B 1_555 1_555
Rb3B O1B 1_555 1_555
Rb3_2 N7_2 1_555 1_555
Rb4B O2B 1_555 1_555
Rb4_2 N8 1_555 1_555
O1B N1B 1_555 1_555
O2B Rb1B 1_555 1_555
O3B Rb1B 1_555 1_555
O4B Rb2B 1_555 1_555
N1B C1B 1_555 1_555
N2B C10B 1_555 1_555
N3B C19B 1_555 1_555
N4B C28B 1_555 1_555
N5B C37B 1_555 1_555
N6B C40B 1_555 1_555
N6B_2 Rb2B 1_555 1_555
N7_2 C43_2 1_555 1_555
N7B Rb3B 1_555 1_555
N8_2 Rb4 1_555 1_555
N8B Rb4B 1_555 1_555
C5 N1 1_555 1_555
C14 N2 1_555 1_555
C23 N3 1_555 1_555
C32 N4 1_555 1_555
C38 N5 1_555 1_555
C39 N5 1_555 1_555
C41 N6 1_555 1_555
C42 N6 1_555 1_555
C44 N7 1_555 1_555
C45 N7 1_555 1_555
C47 N8 1_555 1_555
C48 N8 1_555 1_555
Rb1 N2 1_555 1_555
Rb1 N5 1_555 1_555
Rb2 O2 1_555 1_555
Rb2 N1 1_555 1_555
Rb2 N6 1_555 1_555
Rb3 O3 1_555 1_555
Rb3 O4 1_555 1_555
Rb3 N3 1_555 1_555
Rb3 N7 1_555 1_555
Rb4 O3 1_555 1_555
Rb4 O4 1_555 1_555
Rb4 N4 1_555 1_555
O2 N2 1_555 1_555
O3 N3 1_555 1_555
O4 N4 1_555 1_555
C5B N1B 1_555 1_555
C14B N2B 1_555 1_555
C23B N3B 1_555 1_555
C32B N4B 1_555 1_555
C38B N5B 1_555 1_555
C39B N5B 1_555 1_555
C41B N6B 1_555 1_555
C42B N6B 1_555 1_555
C44_2 N7_2 1_555 1_555
C45_2 N7_2 1_555 1_555
C46_2 N8_2 1_555 1_555
C47_2 N8_2 1_555 1_555
C48_2 N8_2 1_555 1_555
Rb1B N2B 1_555 1_555
Rb1B N5B 1_555 1_555
Rb2B O2B 1_555 1_555
Rb2B N1B 1_555 1_555
Rb3B O3B 1_555 1_555
Rb3B O4B 1_555 1_555
Rb3B N3B 1_555 1_555
Rb4B O3B 1_555 1_555
Rb4B O4B 1_555 1_555
Rb4B N4B 1_555 1_555
O2B N2B 1_555 1_555
O3B N3B 1_555 1_555
O4B N4B 1_555 1_555

#END
