
#######################################################################
#
#                 Cambridge Crystallographic Data Centre
#                                CCDC 
#
#######################################################################
#
# If this CIF has been generated from an entry in the Cambridge 
# Structural Database, then it will include bibliographic, chemical, 
# crystal, experimental, refinement or atomic coordinate data resulting 
# from the CCDC's data processing and validation procedures.
#
#######################################################################

data_AJECUO
_symmetry_cell_setting           monoclinic
_symmetry_space_group_name_H-M   'P 21/c'
_symmetry_Int_Tables_number      14
_space_group_name_Hall           '-P 2ybc'
loop_
_symmetry_equiv_pos_site_id
_symmetry_equiv_pos_as_xyz
1 x,y,z
2 -x,1/2+y,1/2-z
3 -x,-y,-z
4 x,1/2-y,1/2+z
_cell_length_a                   10.648(2)
_cell_length_b                   25.083(5)
_cell_length_c                   12.195(2)
_cell_angle_alpha                90
_cell_angle_beta                 92.97(3)
_cell_angle_gamma                90
_cell_volume                     3252.71
loop_
_atom_site_label
_atom_site_type_symbol
_atom_site_fract_x
_atom_site_fract_y
_atom_site_fract_z
Bi1 Bi 0.42912(5) 0.30322(2) 0.74379(4)
Nb1 Nb 0.35491(12) 0.11768(5) 0.60167(10)
O1 O 0.2862(8) 0.1048(3) 0.7328(8)
C1 C 0.2897(17) 0.1044(8) 0.8478(12)
H1 H 0.2117 0.0908 0.8722
H2 H 0.3023 0.1401 0.8748
H3 H 0.3577 0.0822 0.8753
O2 O 0.3636(8) 0.0495(3) 0.5494(8)
C2 C 0.3402(15) 0.0175(7) 0.4577(13)
H4 H 0.3633 -0.0186 0.4752
H5 H 0.3888 0.0300 0.3987
H6 H 0.2524 0.0190 0.4357
C3 C 0.3943(15) 0.3854(3) 0.6921(7)
C4 C 0.2760(11) 0.4055(6) 0.6616(8)
H7 H 0.2058 0.3835 0.6621
C5 C 0.2627(12) 0.4586(7) 0.6303(8)
H8 H 0.1836 0.4721 0.6099
C6 C 0.3677(18) 0.4915(4) 0.6296(9)
H9 H 0.3588 0.5270 0.6087
C7 C 0.4860(13) 0.4713(6) 0.6601(10)
H10 H 0.5562 0.4934 0.6595
C8 C 0.4993(9) 0.4183(6) 0.6913(9)
H11 H 0.5784 0.4048 0.7117
C9 C 0.5740(13) 0.2917(5) 0.6195(9)
C10 C 0.6897(15) 0.2747(6) 0.6480(11)
H12 H 0.7103 0.2674 0.7215
C11 C 0.7785(14) 0.2677(6) 0.5733(14)
H13 H 0.8569 0.2543 0.5965
C12 C 0.7550(18) 0.2800(7) 0.4629(14)
H14 H 0.8164 0.2763 0.4119
C13 C 0.6322(18) 0.2984(7) 0.4322(12)
H15 H 0.6105 0.3069 0.3594
C14 C 0.5461(14) 0.3035(6) 0.5107(10)
H16 H 0.4656 0.3154 0.4899
C15 C 0.1838(12) 0.2223(6) 0.4714(11)
C16 C 0.0836(14) 0.1588(6) 0.3505(13)
H17 H 0.0676 0.1236 0.3307
C17 C 0.0330(16) 0.1984(9) 0.2897(13)
H18 H -0.0190 0.1903 0.2283
C18 C 0.0565(15) 0.2508(8) 0.3163(13)
H19 H 0.0237 0.2780 0.2716
C19 C 0.1301(13) 0.2627(6) 0.4109(13)
H20 H 0.1425 0.2979 0.4325
C20 C 0.1597(13) 0.1701(7) 0.4431(11)
C21 C 0.2670(13) 0.2336(6) 0.5685(11)
O3 O 0.2767(8) 0.2829(4) 0.5952(7)
O4 O 0.3284(7) 0.1982(4) 0.6227(6)
O5 O 0.2056(8) 0.1278(4) 0.4997(7)
C22 C 0.6375(15) 0.3754(5) 1.1434(10)
C23 C 0.7338(14) 0.3871(5) 1.2205(11)
H21 H 0.7145 0.3970 1.2911
C24 C 0.8550(16) 0.3842(6) 1.1943(13)
H22 H 0.9179 0.3899 1.2488
C25 C 0.8884(14) 0.3732(6) 1.0895(13)
H23 H 0.9723 0.3726 1.0721
C26 C 0.7947(14) 0.3633(5) 1.0114(10)
H24 H 0.8157 0.3556 0.9401
C27 C 0.6679(11) 0.3645(5) 1.0362(10)
C28 C 0.5715(14) 0.3507(5) 0.9504(11)
O6 O 0.6025(8) 0.3355(3) 0.8574(6)
O7 O 0.4562(8) 0.3561(3) 0.9689(6)
O8 O 0.5189(9) 0.3781(3) 1.1736(6)
Nb1C Nb 0.35491(12) 0.38232(5) 1.10167(10)
O7C O 0.4562(8) 0.1439(3) 0.4689(6)
O8C O 0.5189(9) 0.1219(3) 0.6736(6)
O9 O -0.065(3) 0.0537(10) 0.178(2)
C29 C -0.067(2) 0.0067(9) 0.340(2)
H25 H -0.1247 -0.0083 0.3899
H26 H -0.0151 0.0327 0.3786
H27 H -0.0151 -0.0210 0.3129
C30 C -0.135(4) 0.0314(14) 0.252(3)
H28 H -0.1893 0.0049 0.2155
H29 H -0.1891 0.0586 0.2810
C31 C -0.142(3) 0.0769(12) 0.103(3)
H30 H -0.1826 0.1076 0.1333
H31 H -0.2053 0.0521 0.0746
C32 C -0.059(3) 0.0934(11) 0.0145(19)
H32 H -0.1078 0.1107 -0.0433
H33 H -0.0183 0.0625 -0.0143
H34 H 0.0043 0.1177 0.0440
loop_
_geom_bond_atom_site_label_1
_geom_bond_atom_site_label_2
_geom_bond_site_symmetry_1
_geom_bond_site_symmetry_2
Bi1 C3 1_555 1_555
Nb1 O1 1_555 1_555
O1 C1 1_555 1_555
C1 H1 1_555 1_555
H2 C1 1_555 1_555
H3 C1 1_555 1_555
O2 Nb1 1_555 1_555
C2 O2 1_555 1_555
H4 C2 1_555 1_555
H5 C2 1_555 1_555
H6 C2 1_555 1_555
C3 C4 1_555 1_555
C4 H7 1_555 1_555
C5 C4 1_555 1_555
H8 C5 1_555 1_555
C6 C5 1_555 1_555
H9 C6 1_555 1_555
C7 C6 1_555 1_555
H10 C7 1_555 1_555
C8 C3 1_555 1_555
H11 C8 1_555 1_555
C9 Bi1 1_555 1_555
C10 C9 1_555 1_555
H12 C10 1_555 1_555
C11 C10 1_555 1_555
H13 C11 1_555 1_555
C12 C11 1_555 1_555
H14 C12 1_555 1_555
C13 C12 1_555 1_555
H15 C13 1_555 1_555
C14 C9 1_555 1_555
H16 C14 1_555 1_555
C15 C19 1_555 1_555
C16 H17 1_555 1_555
C17 C16 1_555 1_555
H18 C17 1_555 1_555
C18 C17 1_555 1_555
H19 C18 1_555 1_555
C19 C18 1_555 1_555
H20 C19 1_555 1_555
C20 C15 1_555 1_555
C21 C15 1_555 1_555
O3 Bi1 1_555 1_555
O4 Nb1 1_555 1_555
O5 Nb1 1_555 1_555
C22 C23 1_555 1_555
C23 H21 1_555 1_555
C24 C23 1_555 1_555
H22 C24 1_555 1_555
C25 C24 1_555 1_555
H23 C25 1_555 1_555
C26 C25 1_555 1_555
H24 C26 1_555 1_555
C27 C22 1_555 1_555
C28 C27 1_555 1_555
O6 Bi1 1_555 1_555
O7 C28 1_555 1_555
O8 C22 1_555 1_555
O9 C30 1_555 1_555
C29 H25 1_555 1_555
H26 C29 1_555 1_555
H27 C29 1_555 1_555
C30 C29 1_555 1_555
H28 C30 1_555 1_555
H29 C30 1_555 1_555
C31 O9 1_555 1_555
H30 C31 1_555 1_555
H31 C31 1_555 1_555
C32 C31 1_555 1_555
H32 C32 1_555 1_555
H33 C32 1_555 1_555
H34 C32 1_555 1_555
Nb1C O7 1_555 1_555
O7C Nb1 1_555 1_555
O8C Nb1 1_555 1_555
C7 C8 1_555 1_555
C13 C14 1_555 1_555
C16 C20 1_555 1_555
C20 O5 1_555 1_555
C21 O3 1_555 1_555
C21 O4 1_555 1_555
C26 C27 1_555 1_555
C28 O6 1_555 1_555
O8 Nb1C 1_555 1_555

#END
