
#######################################################################
#
#                 Cambridge Crystallographic Data Centre
#                                CCDC 
#
#######################################################################
#
# If this CIF has been generated from an entry in the Cambridge 
# Structural Database, then it will include bibliographic, chemical, 
# crystal, experimental, refinement or atomic coordinate data resulting 
# from the CCDC's data processing and validation procedures.
#
#######################################################################

data_AJECAU
_symmetry_cell_setting           monoclinic
_symmetry_space_group_name_H-M   'C 2/c'
_symmetry_Int_Tables_number      15
_space_group_name_Hall           '-C 2yn'
loop_
_symmetry_equiv_pos_site_id
_symmetry_equiv_pos_as_xyz
1 x,y,z
2 -x,y,1/2-z
3 1/2+x,1/2+y,z
4 1/2-x,1/2+y,1/2-z
5 -x,-y,-z
6 x,-y,1/2+z
7 1/2-x,1/2-y,-z
8 1/2+x,1/2-y,1/2+z
_cell_length_a                   24.5577(17)
_cell_length_b                   8.9918(5)
_cell_length_c                   22.9890(16)
_cell_angle_alpha                90
_cell_angle_beta                 116.8920(10)
_cell_angle_gamma                90
_cell_volume                     4527.43
loop_
_atom_site_label
_atom_site_type_symbol
_atom_site_fract_x
_atom_site_fract_y
_atom_site_fract_z
Cs1 Cs 0.950382(8) 0.86764(2) 0.030478(9)
Cs2 Cs 1.093758(9) 0.57632(2) 0.094263(9)
O1 O 1.07191(9) 0.8933(2) 0.10968(10)
O2 O 0.93774(10) 0.5638(2) 0.03370(10)
N1 N 1.12741(11) 0.8793(3) 0.16962(11)
N2 N 0.89847(11) 0.4480(3) 0.03581(12)
C1 C 1.07498(15) 0.7602(4) 0.22492(16)
H1 H 1.0370 0.7594 0.1840
H2 H 1.0653 0.7657 0.2618
H3 H 1.0981 0.6691 0.2282
C2 C 1.07689(16) 1.0359(4) 0.22510(16)
H4 H 1.1036 1.1232 0.2367
H5 H 1.0606 1.0241 0.2567
H6 H 1.0431 1.0493 0.1814
C3 C 1.11354(14) 0.8963(4) 0.22604(14)
C4 C 1.17347(15) 0.8883(4) 0.28972(15)
H7 H 1.1647 0.9086 0.3270
H8 H 1.1903 0.7864 0.2950
C5 C 1.22124(15) 0.9993(5) 0.29104(15)
H9 H 1.2064 1.1022 0.2899
H10 H 1.2597 0.9868 0.3317
C6 C 1.23248(14) 0.9720(4) 0.23268(16)
H11 H 1.2504 0.8718 0.2364
H12 H 1.2626 1.0455 0.2329
C7 C 1.17427(13) 0.9832(4) 0.16767(14)
C8 C 1.15321(15) 1.1469(4) 0.15211(16)
H13 H 1.1097 1.1498 0.1214
H14 H 1.1766 1.1964 0.1327
H15 H 1.1600 1.1983 0.1924
C9 C 1.18919(16) 0.9247(4) 0.11382(17)
H16 H 1.2055 0.8234 0.1246
H17 H 1.2197 0.9894 0.1103
H18 H 1.1520 0.9238 0.0722
C10 C 0.97696(15) 0.2635(4) 0.06112(16)
H19 H 1.0035 0.3388 0.0564
H20 H 1.0020 0.1867 0.0918
H21 H 0.9516 0.2180 0.0186
C11 C 0.97653(16) 0.4044(4) 0.15466(15)
H22 H 0.9524 0.4175 0.1785
H23 H 1.0108 0.3375 0.1792
H24 H 0.9921 0.5010 0.1493
C12 C 0.93591(14) 0.3367(4) 0.08686(15)
C13 C 0.89357(15) 0.2157(4) 0.09143(16)
H25 H 0.9179 0.1487 0.1283
H26 H 0.8770 0.1557 0.0510
C14 C 0.84056(16) 0.2786(4) 0.10114(17)
H27 H 0.8562 0.3302 0.1437
H28 H 0.8132 0.1972 0.1006
C15 C 0.80577(15) 0.3873(4) 0.04602(17)
H29 H 0.7881 0.3325 0.0041
H30 H 0.7716 0.4301 0.0521
C16 C 0.84589(14) 0.5153(4) 0.04205(14)
C17 C 0.86285(17) 0.6244(4) 0.09958(17)
H31 H 0.8991 0.6814 0.1058
H32 H 0.8287 0.6925 0.0900
H33 H 0.8715 0.5683 0.1394
C18 C 0.80811(15) 0.5989(4) -0.02156(16)
H34 H 0.7984 0.5320 -0.0586
H35 H 0.7702 0.6343 -0.0220
H36 H 0.8316 0.6839 -0.0248
Cs1D Cs 1.049618(8) 1.13236(2) -0.030478(9)
Cs2D Cs 0.906242(9) 0.42368(2) -0.094263(9)
O1D O 0.92809(9) 1.1067(2) -0.10968(10)
O2D O 1.06226(10) 0.4362(2) -0.03370(10)
N2D N 1.10153(11) 0.5520(3) -0.03581(12)
loop_
_geom_bond_atom_site_label_1
_geom_bond_atom_site_label_2
_geom_bond_site_symmetry_1
_geom_bond_site_symmetry_2
Cs1 O1 1_555 1_555
Cs2 O1 1_555 1_555
O1 N1 1_555 1_555
O2 Cs1 1_555 1_555
N1 Cs2 1_555 1_555
N2 O2 1_555 1_555
C1 H1 1_555 1_555
H2 C1 1_555 1_555
H3 C1 1_555 1_555
C2 H4 1_555 1_555
H5 C2 1_555 1_555
H6 C2 1_555 1_555
C3 N1 1_555 1_555
C4 C3 1_555 1_555
H7 C4 1_555 1_555
H8 C4 1_555 1_555
C5 C4 1_555 1_555
H9 C5 1_555 1_555
H10 C5 1_555 1_555
C6 C5 1_555 1_555
H11 C6 1_555 1_555
H12 C6 1_555 1_555
C7 N1 1_555 1_555
C8 C7 1_555 1_555
H13 C8 1_555 1_555
H14 C8 1_555 1_555
H15 C8 1_555 1_555
C9 C7 1_555 1_555
H16 C9 1_555 1_555
H17 C9 1_555 1_555
H18 C9 1_555 1_555
C10 H19 1_555 1_555
H20 C10 1_555 1_555
H21 C10 1_555 1_555
C11 H22 1_555 1_555
H23 C11 1_555 1_555
H24 C11 1_555 1_555
C12 N2 1_555 1_555
C13 C12 1_555 1_555
H25 C13 1_555 1_555
H26 C13 1_555 1_555
C14 C13 1_555 1_555
H27 C14 1_555 1_555
H28 C14 1_555 1_555
C15 C14 1_555 1_555
H29 C15 1_555 1_555
H30 C15 1_555 1_555
C16 N2 1_555 1_555
C17 C16 1_555 1_555
H31 C17 1_555 1_555
H32 C17 1_555 1_555
H33 C17 1_555 1_555
C18 C16 1_555 1_555
H34 C18 1_555 1_555
H35 C18 1_555 1_555
H36 C18 1_555 1_555
Cs1D O1 1_555 1_555
Cs2D O2 1_555 1_555
O1D Cs1 1_555 1_555
O2D Cs2 1_555 1_555
N2D Cs2 1_555 1_555
Cs2 O2 1_555 1_555
N2 Cs2D 1_555 1_555
C1 C3 1_555 1_555
C2 C3 1_555 1_555
C6 C7 1_555 1_555
C10 C12 1_555 1_555
C11 C12 1_555 1_555
C15 C16 1_555 1_555
Cs1D O1D 1_555 1_555
Cs2D O2D 1_555 1_555
O2D N2D 1_555 1_555

#END
