
#######################################################################
#
#                 Cambridge Crystallographic Data Centre
#                                CCDC 
#
#######################################################################
#
# If this CIF has been generated from an entry in the Cambridge 
# Structural Database, then it will include bibliographic, chemical, 
# crystal, experimental, refinement or atomic coordinate data resulting 
# from the CCDC's data processing and validation procedures.
#
#######################################################################

data_AJEHOM
_symmetry_cell_setting           monoclinic
_symmetry_space_group_name_H-M   'P 21/n'
_symmetry_Int_Tables_number      14
_space_group_name_Hall           '-P 2yn'
loop_
_symmetry_equiv_pos_site_id
_symmetry_equiv_pos_as_xyz
1 x,y,z
2 1/2+x,1/2-y,1/2+z
3 -x,-y,-z
4 1/2-x,1/2+y,1/2-z
_cell_length_a                   19.848(7)
_cell_length_b                   7.365(2)
_cell_length_c                   21.143(7)
_cell_angle_alpha                90
_cell_angle_beta                 96.67(3)
_cell_angle_gamma                90
_cell_volume                     3069.78
loop_
_atom_site_label
_atom_site_type_symbol
_atom_site_fract_x
_atom_site_fract_y
_atom_site_fract_z
Co1 Co 0.59753(3) 0.73496(8) 0.75634(3)
Fe1 Fe 0.66975(3) 0.22842(9) 0.60542(3)
Fe2 Fe 0.44574(3) 0.2132(1) 0.82531(3)
O1 O 0.4926(3) 0.7660(7) 0.6977(2)
N1 N 0.6261(2) 0.5412(6) 0.6906(2)
N2 N 0.5410(2) 0.5320(6) 0.7971(2)
N3 N 0.6277(2) 0.9455(6) 0.6990(2)
N4 N 0.6897(2) 0.7188(6) 0.8155(2)
N5 N 0.6960(3) -0.1017(7) 0.5223(2)
N6 N 0.4183(3) 0.153(1) 0.6816(2)
N7 N 0.5589(2) 0.9381(6) 0.8130(2)
N8 N 0.3623(3) -0.1331(8) 0.8423(3)
N9 N 0.5802(2) 0.2468(5) 0.5537(2)
N10 N 0.6959(2) 0.3744(6) 0.5335(2)
N11 N 0.3627(2) 0.3578(6) 0.8346(2)
N12 N 0.4593(2) 0.2527(6) 0.9185(2)
C1 C 0.6434(3) 0.4304(7) 0.6584(2)
C2 C 0.5045(3) 0.4177(7) 0.8091(2)
C3 C 0.6426(2) 1.0569(7) 0.6660(2)
C4 C 0.7416(2) 0.7203(7) 0.8461(2)
C5 C 0.6890(2) 0.0169(7) 0.5555(2)
C6 C 0.4288(3) 0.1806(8) 0.7354(2)
C7 C 0.5201(3) 1.0492(7) 0.8199(2)
C8 C 0.3920(3) -0.0033(7) 0.8361(3)
C9 C 0.5208(2) 0.1908(7) 0.5711(2)
C10 C 0.4612(2) 0.1978(8) 0.5311(3)
C11 C 0.4626(3) 0.2612(8) 0.4700(3)
C12 C 0.5234(3) 0.3226(8) 0.4520(3)
C13 C 0.5816(3) 0.3168(7) 0.4952(2)
C14 C 0.6475(3) 0.3886(7) 0.4828(2)
C15 C 0.6620(3) 0.4637(9) 0.4260(3)
C16 C 0.7256(3) 0.5260(9) 0.4203(3)
C17 C 0.7745(3) 0.5147(8) 0.4716(3)
C18 C 0.7581(3) 0.4397(8) 0.5277(3)
C19 C 0.3143(3) 0.4043(9) 0.7879(4)
C20 C 0.2538(4) 0.477(1) 0.8022(5)
C21 C 0.2440(4) 0.514(1) 0.8652(6)
C22 C 0.2933(4) 0.470(1) 0.9109(4)
C23 C 0.3525(3) 0.3915(8) 0.8955(3)
C24 C 0.4075(3) 0.3356(8) 0.9432(3)
C25 C 0.4101(5) 0.362(1) 1.0086(4)
C26 C 0.4669(6) 0.305(1) 1.0476(3)
C27 C 0.5179(5) 0.226(1) 1.0218(3)
C28 C 0.5143(3) 0.1985(8) 0.9571(3)
H4 H 0.5197 0.1439 0.6161
H5 H 0.4169 0.1552 0.5451
H6 H 0.4204 0.2615 0.4387
H7 H 0.5253 0.3726 0.4072
H8 H 0.6250 0.4686 0.3880
H9 H 0.7359 0.5824 0.3788
H10 H 0.8230 0.5579 0.4674
H11 H 0.7945 0.4320 0.5659
H12 H 0.3229 0.3865 0.7406
H13 H 0.2154 0.5055 0.7655
H14 H 0.2000 0.5705 0.8770
H15 H 0.2873 0.4953 0.9581
H16 H 0.3708 0.4214 1.0278
H17 H 0.4696 0.3222 1.0957
H18 H 0.5610 0.1864 1.0506
H19 H 0.5529 0.1365 0.9384
C3_2 C 0.6426(2) 0.0569(7) 0.6660(2)
C4C C 0.7584(2) 0.2203(7) 0.6539(2)
C7_2 C 0.5201(3) 0.0492(7) 0.8199(2)
Fe1_2 Fe 0.66975(3) 1.22842(9) 0.60542(3)
Fe1C Fe 0.83025(3) 0.72842(9) 0.89458(3)
Fe2_2 Fe 0.44574(3) 1.2132(1) 0.82531(3)
C29 C 0.2934(4) 0.7595(9) 0.1830(3)
C30 C 0.3245(3) 0.7253(8) 0.1263(3)
N13 N 0.3485(3) 0.699(1) 0.0821(4)
H1 H 0.2426 0.7497 0.1748
H2 H 0.3052 0.8849 0.2000
H3 H 0.3098 0.6689 0.2175
O2 O 0.380(1) 0.691(3) 0.7174(9)
loop_
_geom_bond_atom_site_label_1
_geom_bond_atom_site_label_2
_geom_bond_site_symmetry_1
_geom_bond_site_symmetry_2
Co1 O1 1_555 1_555
Fe1 N9 1_555 1_555
Fe2 N11 1_555 1_555
N1 Co1 1_555 1_555
N2 Co1 1_555 1_555
N3 Co1 1_555 1_555
N4 Co1 1_555 1_555
N5 C5 1_555 1_555
N6 C6 1_555 1_555
N7 Co1 1_555 1_555
N8 C8 1_555 1_555
N9 C9 1_555 1_555
N10 Fe1 1_555 1_555
N11 C19 1_555 1_555
N12 Fe2 1_555 1_555
C1 Fe1 1_555 1_555
C2 Fe2 1_555 1_555
C3 N3 1_555 1_555
C4 N4 1_555 1_555
C5 Fe1 1_555 1_555
C6 Fe2 1_555 1_555
C7 N7 1_555 1_555
C8 Fe2 1_555 1_555
C9 C10 1_555 1_555
C10 C11 1_555 1_555
C11 C12 1_555 1_555
C12 C13 1_555 1_555
C13 N9 1_555 1_555
C14 N10 1_555 1_555
C15 C14 1_555 1_555
C16 C15 1_555 1_555
C17 C16 1_555 1_555
C18 N10 1_555 1_555
C19 C20 1_555 1_555
C20 C21 1_555 1_555
C21 C22 1_555 1_555
C22 C23 1_555 1_555
C23 N11 1_555 1_555
C24 N12 1_555 1_555
C25 C24 1_555 1_555
C26 C25 1_555 1_555
C27 C26 1_555 1_555
C28 N12 1_555 1_555
C29 C30 1_555 1_555
C30 N13 1_555 1_555
H1 C29 1_555 1_555
H2 C29 1_555 1_555
H3 C29 1_555 1_555
H4 C9 1_555 1_555
H5 C10 1_555 1_555
H6 C11 1_555 1_555
H7 C12 1_555 1_555
H8 C15 1_555 1_555
H9 C16 1_555 1_555
H10 C17 1_555 1_555
H11 C18 1_555 1_555
H12 C19 1_555 1_555
H13 C20 1_555 1_555
H14 C21 1_555 1_555
H15 C22 1_555 1_555
H16 C25 1_555 1_555
H17 C26 1_555 1_555
H18 C27 1_555 1_555
H19 C28 1_555 1_555
C3_2 Fe1 1_555 1_555
C4C Fe1 1_555 1_555
C7_2 Fe2 1_555 1_555
Fe1_2 C3 1_555 1_555
Fe1C C4 1_555 1_555
Fe2_2 C7 1_555 1_555
N1 C1 1_555 1_555
N2 C2 1_555 1_555
C13 C14 1_555 1_555
C17 C18 1_555 1_555
C23 C24 1_555 1_555
C27 C28 1_555 1_555

#END
