
#######################################################################
#
#                 Cambridge Crystallographic Data Centre
#                                CCDC 
#
#######################################################################
#
# If this CIF has been generated from an entry in the Cambridge 
# Structural Database, then it will include bibliographic, chemical, 
# crystal, experimental, refinement or atomic coordinate data resulting 
# from the CCDC's data processing and validation procedures.
#
#######################################################################

data_AJEKEH
_symmetry_cell_setting           monoclinic
_symmetry_space_group_name_H-M   'P 21/m'
_symmetry_Int_Tables_number      11
_space_group_name_Hall           '-P 2yb'
loop_
_symmetry_equiv_pos_site_id
_symmetry_equiv_pos_as_xyz
1 x,y,z
2 -x,1/2+y,-z
3 -x,-y,-z
4 x,1/2-y,z
_cell_length_a                   6.4690(9)
_cell_length_b                   16.7300(2)
_cell_length_c                   8.2290(11)
_cell_angle_alpha                90
_cell_angle_beta                 105.764(14)
_cell_angle_gamma                90
_cell_volume                     857.099
loop_
_atom_site_label
_atom_site_type_symbol
_atom_site_fract_x
_atom_site_fract_y
_atom_site_fract_z
Ni1 Ni 0.5000 0.0000 0.5000
Na1 Na 1.0870(4) 0.2500 0.7700(3)
Na2 Na 0.6638(5) 0.2500 0.4161(3)
N1 N 0.7888(5) -0.02401(19) 0.6671(4)
O1 O 0.6688(4) 0.09420(16) 0.4483(3)
O2 O 0.9749(4) 0.15907(16) 0.5471(4)
O3 O 1.3256(5) 0.14597(17) 0.8758(4)
O4 O 1.4450(5) 0.07886(17) 0.6886(4)
O5 O 0.7196(9) 0.2500 0.7778(8)
H1 H 0.6276 0.2875 0.7614
O6 O 0.5598(10) 0.2500 0.1335(7)
H2 H 0.5075 0.2089 0.0762
O7 O 0.3273(10) 0.2500 0.4670(9)
H3 H 0.2575 0.2090 0.4826
C1 C 0.9377(6) 0.0324(2) 0.6668(4)
C2 C 1.1458(6) 0.0268(2) 0.7705(5)
C3 C 1.1968(7) -0.0385(3) 0.8764(5)
H4 H 1.3354 -0.0442 0.9466
C4 C 1.0447(7) -0.0948(3) 0.8786(5)
H5 H 1.0786 -0.1389 0.9498
C5 C 0.8384(7) -0.0852(3) 0.7726(5)
H6 H 0.7331 -0.1225 0.7759
C6 C 0.8576(6) 0.1003(2) 0.5459(4)
C7 C 1.3175(6) 0.0893(2) 0.7749(5)
H1C H 0.6276 0.2125 0.7614
H2C H 0.5075 0.2911 0.0762
H3C H 0.2575 0.2910 0.4826
N1B N 0.2112(5) 0.02401(19) 0.3329(4)
O1B O 0.3312(4) -0.09420(16) 0.5517(3)
O2B O 0.0251(4) -0.15907(16) 0.4529(4)
O3B O -0.3256(5) -0.14597(17) 0.1242(4)
O4B O -0.4450(5) -0.07886(17) 0.3114(4)
C1B C 0.0623(6) -0.0324(2) 0.3332(4)
C2B C -0.1458(6) -0.0268(2) 0.2295(5)
C3B C -0.1968(7) 0.0385(3) 0.1236(5)
H4B H -0.3354 0.0442 0.0534
C4B C -0.0447(7) 0.0948(3) 0.1214(5)
H5B H -0.0786 0.1389 0.0502
C5B C 0.1616(7) 0.0852(3) 0.2274(5)
H6B H 0.2669 0.1225 0.2241
C6B C 0.1424(6) -0.1003(2) 0.4541(4)
C7B C -0.3175(6) -0.0893(2) 0.2251(5)
Ni1_2 Ni -0.5000 0.0000 0.5000
Ni1_3 Ni 1.5000 0.0000 0.5000
Na1A Na -0.0870(4) -0.2500 0.2300(3)
Na2A Na 0.3362(5) -0.2500 0.5839(3)
O1C O 0.6688(4) 0.40580(16) 0.4483(3)
O2C O 0.9749(4) 0.34093(16) 0.5471(4)
O3C O 1.3256(5) 0.35403(17) 0.8758(4)
O4_2 O 0.4450(5) 0.07886(17) 0.6886(4)
O4B_2 O 0.5550(5) -0.07886(17) 0.3114(4)
loop_
_geom_bond_atom_site_label_1
_geom_bond_atom_site_label_2
_geom_bond_site_symmetry_1
_geom_bond_site_symmetry_2
Ni1 N1 1_555 1_555
Na1 O2 1_555 1_555
Na2 O1 1_555 1_555
N1 C1 1_555 1_555
O1 Ni1 1_555 1_555
O2 Na2 1_555 1_555
O3 Na1 1_555 1_555
O4 C7 1_555 1_555
O5 Na1 1_555 1_555
H1 O5 1_555 1_555
O6 Na2 1_555 1_555
H2 O6 1_555 1_555
O7 Na2 1_555 1_555
H3 O7 1_555 1_555
C1 C2 1_555 1_555
C2 C3 1_555 1_555
C3 H4 1_555 1_555
C4 C3 1_555 1_555
H5 C4 1_555 1_555
C5 N1 1_555 1_555
H6 C5 1_555 1_555
C6 O1 1_555 1_555
C7 O3 1_555 1_555
H1C O5 1_555 1_555
H2C O6 1_555 1_555
H3C O7 1_555 1_555
N1B Ni1 1_555 1_555
O1B Ni1 1_555 1_555
O2B C6B 1_555 1_555
O3B C7B 1_555 1_555
O4B C7B 1_555 1_555
C1B N1B 1_555 1_555
C2B C1B 1_555 1_555
C3B C2B 1_555 1_555
H4B C3B 1_555 1_555
C4B C3B 1_555 1_555
H5B C4B 1_555 1_555
C5B N1B 1_555 1_555
H6B C5B 1_555 1_555
C6B O1B 1_555 1_555
C7B C2B 1_555 1_555
Ni1_2 O4B 1_555 1_555
Ni1_3 O4 1_555 1_555
Na1A O2B 1_555 1_555
Na2A O1B 1_555 1_555
O1C Na2 1_555 1_555
O2C Na1 1_555 1_555
O3C Na1 1_555 1_555
O4_2 Ni1 1_555 1_555
O4B_2 Ni1 1_555 1_555
Na2 O5 1_555 1_555
Na2 O2C 1_555 1_555
O2 C6 1_555 1_555
C1 C6 1_555 1_555
C2 C7 1_555 1_555
C4 C5 1_555 1_555
O2B Na2A 1_555 1_555
O3B Na1A 1_555 1_555
C1B C6B 1_555 1_555
C4B C5B 1_555 1_555

#END
