
#######################################################################
#
#                 Cambridge Crystallographic Data Centre
#                                CCDC 
#
#######################################################################
#
# If this CIF has been generated from an entry in the Cambridge 
# Structural Database, then it will include bibliographic, chemical, 
# crystal, experimental, refinement or atomic coordinate data resulting 
# from the CCDC's data processing and validation procedures.
#
#######################################################################

data_AJEKIL
_symmetry_cell_setting           orthorhombic
_symmetry_space_group_name_H-M   'P 21 21 2'
_symmetry_Int_Tables_number      18
_space_group_name_Hall           'P 2 2ab'
loop_
_symmetry_equiv_pos_site_id
_symmetry_equiv_pos_as_xyz
1 x,y,z
2 1/2+x,1/2-y,-z
3 1/2-x,1/2+y,-z
4 -x,-y,z
_cell_length_a                   15.8808(17)
_cell_length_b                   18.618(2)
_cell_length_c                   9.5210(10)
_cell_angle_alpha                90
_cell_angle_beta                 90
_cell_angle_gamma                90
_cell_volume                     2815.06
loop_
_atom_site_label
_atom_site_type_symbol
_atom_site_fract_x
_atom_site_fract_y
_atom_site_fract_z
Ni1 Ni 0.56432(3) 0.23467(2) 0.95197(5)
O1 O 0.62380(13) 0.23804(14) 0.7576(2)
O2 O 0.75280(15) 0.27029(17) 0.8273(3)
O3 O 1.01230(13) 0.26502(13) 0.8487(2)
O4 O 1.05050(16) 0.37286(13) 0.7638(3)
O5 O 0.30515(18) -0.06237(14) 0.8104(3)
O6 O 0.18061(19) 0.04332(15) 0.1309(3)
O7 O 0.65085(16) 0.31243(13) 1.0221(3)
H1 H 0.6928(18) 0.3019(18) 0.970(4)
H2 H 0.631(2) 0.3522(13) 0.996(4)
O8 O 0.64706(16) 0.15598(13) 1.0179(3)
H3 H 0.652(2) 0.1247(16) 0.955(3)
H4 H 0.623(2) 0.1380(19) 1.092(3)
N1 N 0.47784(19) 0.15532(16) 0.8801(3)
N2 N 0.2705(2) -0.00386(16) 0.6102(3)
N3 N 0.2338(2) -0.01365(15) 0.3220(3)
N4 N 0.01970(19) -0.18403(15) 0.1061(3)
C1 C 0.3095(2) -0.00878(19) 0.7343(4)
C2 C 0.7008(2) 0.25357(17) 0.7363(4)
C3 C 0.7283(2) 0.25424(17) 0.5829(3)
C4 C 0.6674(2) 0.25600(18) 0.4782(3)
H5 H 0.6096 0.2536 0.5033
C5 C 0.6894(2) 0.2612(2) 0.3384(4)
H6 H 0.6469 0.2635 0.2684
C6 C 0.7735(2) 0.2630(2) 0.3002(4)
H7 H 0.7887 0.2658 0.2038
C7 C 0.8353(2) 0.26062(19) 0.4024(3)
H8 H 0.8929 0.2608 0.3754
C8 C 0.81423(19) 0.25795(17) 0.5445(3)
C9 C 0.88287(19) 0.2616(2) 0.6488(3)
H9 H 0.8822 0.2279 0.7238
C10 C 0.9450(2) 0.30854(17) 0.6447(4)
H10 H 0.9500 0.3388 0.5648
C11 C 1.0072(2) 0.31592(18) 0.7597(4)
C12 C 0.4899(2) 0.12306(19) 0.7569(4)
H11 H 0.5381 0.1361 0.7034
C13 C 0.4360(2) 0.07144(19) 0.7023(4)
H12 H 0.4469 0.0500 0.6136
C14 C 0.3661(2) 0.05197(18) 0.7798(4)
C15 C 0.3527(2) 0.08448(19) 0.9082(4)
H13 H 0.3057 0.0714 0.9644
C16 C 0.4089(2) 0.13658(19) 0.9539(5)
H14 H 0.3983 0.1600 1.0408
C17 C 0.2225(3) -0.06502(18) 0.5573(5)
H15 H 0.1614 -0.0546 0.5634
H16 H 0.2344 -0.1081 0.6149
C18 C 0.2593(2) 0.06134(18) 0.5269(4)
H17 H 0.2956 0.0999 0.5650
H18 H 0.2000 0.0775 0.5339
C19 C 0.2813(3) 0.04831(19) 0.3740(4)
H19 H 0.2674 0.0914 0.3176
H20 H 0.3425 0.0391 0.3648
C20 C 0.1851(2) -0.0098(2) 0.2088(4)
C21 C 0.1293(2) -0.0734(2) 0.1769(4)
C22 C 0.0562(3) -0.0843(2) 0.2523(4)
H21 H 0.0428 -0.0542 0.3298
C23 C 0.0029(3) -0.1393(2) 0.2138(4)
H22 H -0.0477 -0.1459 0.2653
C24 C 0.0920(2) -0.1743(2) 0.0374(5)
H23 H 0.1057 -0.2067 -0.0362
C25 C 0.1478(2) -0.1197(2) 0.0675(4)
H24 H 0.1980 -0.1139 0.0142
C26 C 0.2469(3) -0.07904(19) 0.4055(4)
H25 H 0.3067 -0.0936 0.4006
H26 H 0.2122 -0.1186 0.3671
Ni1A Ni 1.06432(3) 0.26533(2) 1.04803(5)
Ni1B Ni -0.06432(3) -0.26533(2) 0.04803(5)
O3A O 0.51230(13) 0.23498(13) 1.1513(2)
N4B N 0.48030(19) 0.31597(15) 0.8939(3)
O9 O 0.9967(3) 0.10940(19) 0.7568(5)
H27 H 1.0334 0.0800 0.7872
H28 H 1.014(3) 0.1532(12) 0.762(6)
O10 O 0.1108(3) 0.0168(2) 0.8579(5)
H29 H 0.1585 -0.0029 0.8465
H30 H 0.1203 0.0590 0.8881
O11 O 0.0000 0.0000 0.5428(5)
H31 H 0.005(4) 0.036(2) 0.597(5)
H31C H -0.005(4) -0.036(2) 0.597(5)
O12 O 0.5000 0.0000 0.3871(4)
H32 H 0.519(3) 0.024(2) 0.319(3)
H32C H 0.481(3) -0.024(2) 0.319(3)
loop_
_geom_bond_atom_site_label_1
_geom_bond_atom_site_label_2
_geom_bond_site_symmetry_1
_geom_bond_site_symmetry_2
Ni1 O1 1_555 1_555
O1 C2 1_555 1_555
O2 C2 1_555 1_555
O3 C11 1_555 1_555
O4 C11 1_555 1_555
O5 C1 1_555 1_555
O6 C20 1_555 1_555
O7 Ni1 1_555 1_555
H1 O7 1_555 1_555
H2 O7 1_555 1_555
O8 Ni1 1_555 1_555
H3 O8 1_555 1_555
H4 O8 1_555 1_555
N1 Ni1 1_555 1_555
N2 C1 1_555 1_555
N3 C19 1_555 1_555
N4 C23 1_555 1_555
C1 C14 1_555 1_555
C2 C3 1_555 1_555
C3 C4 1_555 1_555
C4 H5 1_555 1_555
C5 C4 1_555 1_555
H6 C5 1_555 1_555
C6 C5 1_555 1_555
H7 C6 1_555 1_555
C7 C6 1_555 1_555
H8 C7 1_555 1_555
C8 C3 1_555 1_555
C9 C8 1_555 1_555
H9 C9 1_555 1_555
C10 C9 1_555 1_555
H10 C10 1_555 1_555
C11 C10 1_555 1_555
C12 N1 1_555 1_555
H11 C12 1_555 1_555
C13 C12 1_555 1_555
H12 C13 1_555 1_555
C14 C13 1_555 1_555
C15 C14 1_555 1_555
H13 C15 1_555 1_555
C16 N1 1_555 1_555
H14 C16 1_555 1_555
C17 N2 1_555 1_555
H15 C17 1_555 1_555
H16 C17 1_555 1_555
C18 N2 1_555 1_555
H17 C18 1_555 1_555
H18 C18 1_555 1_555
C19 C18 1_555 1_555
H19 C19 1_555 1_555
H20 C19 1_555 1_555
C20 N3 1_555 1_555
C21 C20 1_555 1_555
C22 C21 1_555 1_555
H21 C22 1_555 1_555
C23 C22 1_555 1_555
H22 C23 1_555 1_555
C24 N4 1_555 1_555
H23 C24 1_555 1_555
C25 C21 1_555 1_555
H24 C25 1_555 1_555
C26 N3 1_555 1_555
H25 C26 1_555 1_555
H26 C26 1_555 1_555
O9 H27 1_555 1_555
H28 O9 1_555 1_555
O10 H29 1_555 1_555
H30 O10 1_555 1_555
O11 H31 1_555 1_555
O12 H32 1_555 1_555
Ni1A O3 1_555 1_555
Ni1B N4 1_555 1_555
O3A Ni1 1_555 1_555
N4B Ni1 1_555 1_555
H31C O11 1_555 1_555
H32C O12 1_555 1_555
C7 C8 1_555 1_555
C15 C16 1_555 1_555
C17 C26 1_555 1_555
C24 C25 1_555 1_555

#END
