
#######################################################################
#
#                 Cambridge Crystallographic Data Centre
#                                CCDC 
#
#######################################################################
#
# If this CIF has been generated from an entry in the Cambridge 
# Structural Database, then it will include bibliographic, chemical, 
# crystal, experimental, refinement or atomic coordinate data resulting 
# from the CCDC's data processing and validation procedures.
#
#######################################################################

data_AJELIL
_symmetry_cell_setting           triclinic
_symmetry_space_group_name_H-M   'P -1'
_symmetry_Int_Tables_number      2
_space_group_name_Hall           '-P 1'
loop_
_symmetry_equiv_pos_site_id
_symmetry_equiv_pos_as_xyz
1 x,y,z
2 -x,-y,-z
_cell_length_a                   6.142(1)
_cell_length_b                   9.164(1)
_cell_length_c                   10.904(1)
_cell_angle_alpha                110.65(1)
_cell_angle_beta                 97.91(1)
_cell_angle_gamma                104.05(1)
_cell_volume                     540.014
loop_
_atom_site_label
_atom_site_type_symbol
_atom_site_fract_x
_atom_site_fract_y
_atom_site_fract_z
Na1 Na 0.73340(10) -0.15631(8) -0.04849(6)
O1 O 0.8829(2) 0.09017(14) -0.07953(12)
H1 H 0.881(4) 0.056(3) -0.166(3)
H2 H 0.804(5) 0.151(3) -0.068(3)
O2 O 0.4300(2) -0.27996(14) 0.02502(12)
H3 H 0.474(4) -0.286(3) 0.093(3)
H4 H 0.352(4) -0.382(3) -0.034(2)
C1 C 0.9365(2) -0.58660(16) -0.33946(13)
C2 C 0.8095(2) -0.64624(16) -0.47432(14)
C3 C 0.8616(2) -0.76494(16) -0.58203(13)
C4 C 1.0486(2) -0.82259(16) -0.54947(13)
C5 C 1.1707(2) -0.75816(16) -0.41239(13)
C6 C 1.1271(2) -0.63770(16) -0.29748(13)
N1 N 0.8674(2) -0.47253(14) -0.23412(12)
O3 O 0.8092(2) -0.36139(13) -0.25416(12)
O4 O 0.8742(2) -0.48877(15) -0.12725(11)
N2 N 0.7352(2) -0.82587(15) -0.71442(12)
O5 O 0.57443(19) -0.76830(14) -0.74262(11)
O6 O 0.78015(19) -0.93289(14) -0.80361(11)
O7 O 1.2493(2) -0.58940(14) -0.18263(11)
O8 O 0.63390(18) -0.59354(13) -0.49932(11)
H5 H 0.572(5) -0.645(3) -0.593(3)
N3 N 1.1315(2) -0.93150(15) -0.62765(12)
O9 O 1.31321(18) -0.93996(13) -0.54152(10)
N4 N 1.3330(2) -0.82862(14) -0.40563(12)
O10 O 1.48436(19) -0.82086(14) -0.31555(11)
Na1A Na 1.26660(10) 0.15631(8) 0.04849(6)
Na1A_2 Na 0.26660(10) -0.84369(8) -0.95151(6)
O1A O 1.1171(2) -0.09017(14) 0.07953(12)
H1A H 1.119(4) -0.056(3) 0.166(3)
H2A H 1.196(5) -0.151(3) 0.068(3)
O5A O 0.42557(19) -0.23170(14) -0.25738(11)
loop_
_geom_bond_atom_site_label_1
_geom_bond_atom_site_label_2
_geom_bond_site_symmetry_1
_geom_bond_site_symmetry_2
Na1 O1 1_555 1_555
O1 H1 1_555 1_555
H2 O1 1_555 1_555
O2 Na1 1_555 1_555
H3 O2 1_555 1_555
H4 O2 1_555 1_555
C1 C2 1_555 1_555
C2 C3 1_555 1_555
C3 C4 1_555 1_555
C4 C5 1_555 1_555
C5 C6 1_555 1_555
C6 C1 1_555 1_555
N1 C1 1_555 1_555
O3 Na1 1_555 1_555
O4 N1 1_555 1_555
N2 C3 1_555 1_555
O5 N2 1_555 1_555
O6 N2 1_555 1_555
O7 C6 1_555 1_555
O8 C2 1_555 1_555
H5 O8 1_555 1_555
N3 C4 1_555 1_555
O9 N3 1_555 1_555
N4 C5 1_555 1_555
O10 N4 1_555 1_555
Na1A O1 1_555 1_555
Na1A_2 O5 1_555 1_555
O1A Na1 1_555 1_555
H1A O1A 1_555 1_555
H2A O1A 1_555 1_555
O5A Na1 1_555 1_555
N1 O3 1_555 1_555
O9 N4 1_555 1_555
Na1A O1A 1_555 1_555

#END
