
#######################################################################
#
#                 Cambridge Crystallographic Data Centre
#                                CCDC 
#
#######################################################################
#
# If this CIF has been generated from an entry in the Cambridge 
# Structural Database, then it will include bibliographic, chemical, 
# crystal, experimental, refinement or atomic coordinate data resulting 
# from the CCDC's data processing and validation procedures.
#
#######################################################################

data_AJEMEJ
_symmetry_cell_setting           triclinic
_symmetry_space_group_name_H-M   'P -1'
_symmetry_Int_Tables_number      2
_space_group_name_Hall           '-P 1'
loop_
_symmetry_equiv_pos_site_id
_symmetry_equiv_pos_as_xyz
1 x,y,z
2 -x,-y,-z
_cell_length_a                   13.04230(10)
_cell_length_b                   17.15240(10)
_cell_length_c                   23.8919(2)
_cell_angle_alpha                83.29
_cell_angle_beta                 81.51
_cell_angle_gamma                73.72
_cell_volume                     5058.2
loop_
_atom_site_label
_atom_site_type_symbol
_atom_site_fract_x
_atom_site_fract_y
_atom_site_fract_z
O1 O 1.3978(2) -0.45727(15) 0.58118(10)
O2 O 1.2702(2) -0.52093(15) 0.61598(11)
C1 C 1.3112(3) -0.4616(2) 0.61132(16)
C2 C 1.2503(3) -0.3912(2) 0.64576(16)
C3 C 1.2015(3) -0.4089(2) 0.69898(16)
H1 H 1.2076 -0.4629 0.7123
C4 C 1.1430(3) -0.3471(2) 0.73316(16)
H2 H 1.1126 -0.3603 0.7695
C5 C 1.1300(3) -0.2677(2) 0.71408(15)
H3 H 1.0896 -0.2276 0.7375
C6 C 1.1759(3) -0.2443(2) 0.65969(15)
C7 C 1.2821(3) -0.2849(2) 0.56866(17)
H4 H 1.3228 -0.3250 0.5453
C8 C 1.2650(3) -0.2052(2) 0.54925(17)
H5 H 1.2939 -0.1914 0.5127
C9 C 1.2036(3) -0.1429(2) 0.58406(17)
H6 H 1.1921 -0.0888 0.5698
Cd1 Cd 0.5000 0.5000 0.5000
Cd2 Cd 0.35169(2) 0.361348(15) 0.578770(11)
Cd3 Cd -0.65064(2) 0.863912(15) 0.081985(11)
Cd4 Cd -0.5000 1.0000 0.0000
O3 O 0.39985(19) 0.41409(14) 0.48706(10)
O4 O 0.2393(2) 0.39246(15) 0.50527(11)
O5 O 0.39759(19) 0.04209(15) 0.08240(10)
O6 O 0.2701(2) -0.01904(16) 0.11893(11)
O7 O -0.4858(2) 0.83143(16) 0.10499(11)
O8 O -0.38452(19) 0.90091(15) 0.04681(10)
O9 O 0.3937(3) 0.22500(18) 0.55303(13)
O10 O 0.2786(3) 0.3015(2) 0.65614(14)
O11 O 0.51164(19) 0.33086(15) 0.60614(11)
O12 O 0.61514(19) 0.39912(15) 0.54748(10)
O13 O 1.2357(2) -0.10008(15) 1.00868(10)
O14 O 1.39994(19) -0.08702(14) 0.98844(10)
O15 O -0.6306(3) 0.73478(19) 0.05737(14)
O16 O -0.7008(3) 0.8043(2) 0.17041(15)
N1 N 0.3871(4) 0.1110(3) 0.5152(2)
N2 N 0.2422(4) 0.1836(3) 0.6884(2)
N3 N -0.6900(6) 0.6182(4) 0.0771(3)
N4 N -0.5858(4) 0.7114(3) 0.2257(2)
C10 C 0.3095(3) 0.4163(2) 0.47136(15)
C11 C 0.2923(3) 0.4418(2) 0.41014(15)
C12 C 0.3832(3) 0.4355(2) 0.37152(15)
H7 H 0.4504 0.4213 0.3843
C13 C 0.3755(3) 0.4505(2) 0.31258(16)
H8 H 0.4369 0.4484 0.2868
C14 C 0.2772(3) 0.4681(2) 0.29405(15)
H9 H 0.2731 0.4753 0.2552
C15 C 0.1808(3) 0.4757(2) 0.33185(15)
C16 C 0.1881(3) 0.4664(2) 0.39125(15)
C17 C 0.0908(3) 0.4871(2) 0.42913(16)
H10 H 0.0942 0.4841 0.4680
C18 C -0.0064(3) 0.5110(2) 0.40937(16)
H11 H -0.0685 0.5272 0.4346
C19 C -0.0143(3) 0.5117(2) 0.35135(16)
H12 H -0.0818 0.5241 0.3390
C20 C 0.0766(3) 0.4940(2) 0.31244(15)
C21 C 0.0611(3) 0.4886(2) 0.25215(15)
C22 C -0.0249(3) 0.5420(2) 0.22787(16)
H13 H -0.0676 0.5858 0.2475
C23 C -0.0489(3) 0.5316(2) 0.17511(15)
C24 C 0.0157(3) 0.4665(2) 0.14571(16)
H14 H 0.0003 0.4595 0.1101
C25 C 0.1032(3) 0.4114(2) 0.16844(15)
C26 C 0.1252(3) 0.4232(2) 0.22215(15)
H15 H 0.1831 0.3870 0.2380
C27 C -0.3981(3) 0.8481(2) 0.08536(16)
C28 C -0.2991(3) 0.7988(2) 0.11218(15)
C29 C -0.2300(3) 0.8393(2) 0.12483(17)
H16 H -0.2458 0.8956 0.1175
C30 C -0.1367(3) 0.7979(2) 0.14838(17)
H17 H -0.0915 0.8268 0.1574
C31 C -0.1108(3) 0.7149(2) 0.15840(16)
H18 H -0.0477 0.6878 0.1739
C32 C -0.1787(3) 0.6696(2) 0.14553(14)
C33 C -0.2759(3) 0.7123(2) 0.12276(15)
C34 C -0.3425(3) 0.6669(2) 0.10753(15)
H19 H -0.4075 0.6940 0.0940
C35 C -0.3112(3) 0.5835(2) 0.11280(18)
H20 H -0.3545 0.5544 0.1020
C36 C -0.2143(3) 0.5412(2) 0.13446(17)
H21 H -0.1936 0.4846 0.1368
C37 C -0.1497(3) 0.5821(2) 0.15224(15)
C38 C 0.3120(3) 0.0397(2) 0.11230(15)
C39 C 0.2515(3) 0.1121(2) 0.14660(15)
C40 C 0.2035(3) 0.0951(2) 0.19937(15)
H22 H 0.2090 0.0411 0.2128
C41 C 0.1450(3) 0.1584(2) 0.23424(16)
H23 H 0.1139 0.1464 0.2707
C42 C 0.1354(3) 0.2375(2) 0.21315(15)
H24 H 0.0963 0.2791 0.2358
C43 C 0.1821(3) 0.2584(2) 0.15894(15)
C44 C 0.2434(3) 0.1940(2) 0.12432(16)
C45 C 0.2873(3) 0.2150(2) 0.06767(17)
H25 H 0.3281 0.1741 0.0450
C46 C 0.2699(4) 0.2940(3) 0.04709(17)
H26 H 0.2980 0.3066 0.0101
C47 C 0.2097(3) 0.3577(2) 0.08090(17)
H27 H 0.1982 0.4114 0.0657
C48 C 0.1681(3) 0.3416(2) 0.13565(16)
C49 C 0.4445(5) 0.2192(3) 0.4541(2)
H28 H 0.3881 0.2321 0.4301
H29 H 0.5057 0.1797 0.4374
H30 H 0.4647 0.2677 0.4582
C50 C 0.4070(4) 0.1863(3) 0.5091(2)
C51 C 0.3440(5) 0.0814(4) 0.5687(3)
H31 H 0.3626 0.1065 0.5982
H32 H 0.3730 0.0234 0.5737
H33 H 0.2671 0.0942 0.5705
C52 C 0.3801(5) 0.0700(3) 0.4651(2)
H34 H 0.3126 0.0955 0.4507
H35 H 0.3849 0.0136 0.4760
H36 H 0.4381 0.0745 0.4362
C53 C 0.2200(4) 0.2498(4) 0.6544(2)
C54 C 0.1448(5) 0.2636(3) 0.6109(2)
H37 H 0.1705 0.2218 0.5849
H38 H 0.1406 0.3159 0.5906
H39 H 0.0746 0.2620 0.6292
C55 C 0.3377(6) 0.1631(4) 0.7187(3)
H40 H 0.3963 0.1266 0.6975
H41 H 0.3220 0.1373 0.7556
H42 H 0.3572 0.2120 0.7226
C56 C 0.1833(5) 0.1219(3) 0.6951(3)
H43 H 0.1291 0.1367 0.6697
H44 H 0.1497 0.1182 0.7335
H45 H 0.2321 0.0702 0.6865
C57 C 0.5994(3) 0.3470(2) 0.58687(16)
C58 C 0.6971(3) 0.2981(2) 0.61472(15)
C59 C 0.7610(3) 0.3396(2) 0.63192(17)
H46 H 0.7455 0.3959 0.6249
C60 C 0.8503(3) 0.2970(2) 0.66019(18)
H47 H 0.8911 0.3260 0.6735
C61 C 0.8779(3) 0.2141(2) 0.66840(16)
H48 H 0.9386 0.1873 0.6860
C62 C 0.8149(3) 0.1679(2) 0.65040(16)
C63 C 0.7212(3) 0.2117(2) 0.62376(15)
C64 C 0.6559(3) 0.1668(2) 0.60609(15)
H49 H 0.5921 0.1941 0.5913
C65 C 0.6879(3) 0.0830(2) 0.61104(16)
H50 H 0.6464 0.0542 0.5982
C66 C 0.7805(3) 0.0405(2) 0.63463(16)
H51 H 0.8002 -0.0162 0.6369
C67 C 0.8445(3) 0.0807(2) 0.65502(15)
C68 C 0.9430(3) 0.0290(2) 0.67860(15)
C69 C 0.9686(3) 0.0384(2) 0.73195(15)
H52 H 0.9266 0.0821 0.7520
C70 C 1.0564(3) -0.0166(2) 0.75610(15)
C71 C 1.1182(3) -0.0823(2) 0.72581(15)
H53 H 1.1753 -0.1197 0.7415
C72 C 1.0949(3) -0.0927(2) 0.67169(15)
C73 C 1.0088(3) -0.0363(2) 0.64904(15)
H54 H 0.9946 -0.0422 0.6130
C74 C 1.2386(3) -0.3080(2) 0.62418(15)
C75 C 1.1614(3) -0.1608(2) 0.63757(16)
C76 C 1.3072(3) -0.0808(2) 0.97381(15)
C77 C 1.2909(3) -0.0584(2) 0.91263(15)
C78 C 1.3821(3) -0.0690(2) 0.87367(15)
H55 H 1.4498 -0.0842 0.8861
C79 C 1.3727(3) -0.0565(2) 0.81455(16)
H56 H 1.4340 -0.0592 0.7886
C80 C 1.2754(3) -0.0408(2) 0.79548(16)
H57 H 1.2718 -0.0378 0.7567
C81 C 1.1784(3) -0.0288(2) 0.83392(15)
C82 C 1.1871(3) -0.0344(2) 0.89349(15)
C83 C 1.0910(3) -0.0083(2) 0.93125(15)
H58 H 1.0949 -0.0085 0.9698
C84 C 0.9930(3) 0.0171(2) 0.91120(16)
H59 H 0.9316 0.0368 0.9361
C85 C 0.9832(3) 0.0140(2) 0.85420(15)
H60 H 0.9152 0.0280 0.8422
C86 C 1.0738(3) -0.0095(2) 0.81512(15)
C87 C -0.7143(7) 0.6998(6) 0.0731(4)
C88 C -0.8322(5) 0.7477(4) 0.0977(3)
H61 H -0.8399 0.7403 0.1384
H62 H -0.8840 0.7270 0.0837
H63 H -0.8441 0.8046 0.0859
C89 C -0.5895(7) 0.5795(5) 0.0512(4)
H64 H -0.5820 0.5999 0.0121
H65 H -0.5816 0.5219 0.0535
H66 H -0.5351 0.5899 0.0700
C90 C -0.7694(7) 0.5734(5) 0.1018(4)
H67 H -0.8265 0.6080 0.1250
H68 H -0.7351 0.5260 0.1246
H69 H -0.7983 0.5569 0.0718
C91 C -0.6246(4) 0.7853(3) 0.2085(2)
C92 C -0.5930(4) 0.8522(3) 0.2294(2)
H70 H -0.6102 0.8515 0.2699
H71 H -0.6313 0.9035 0.2122
H72 H -0.5170 0.8449 0.2196
C93 C -0.4897(5) 0.6878(4) 0.2600(3)
H73 H -0.4251 0.6652 0.2358
H74 H -0.5006 0.6482 0.2905
H75 H -0.4832 0.7354 0.2752
C94 C -0.6241(6) 0.6475(4) 0.2075(3)
H76 H -0.6930 0.6710 0.1942
H77 H -0.6307 0.6081 0.2389
H78 H -0.5738 0.6213 0.1773
O1A O -2.3978(2) 2.45727(15) -0.58118(10)
O2A O -2.2702(2) 2.52093(15) -0.61598(11)
C1A C -2.3112(3) 2.4616(2) -0.61132(16)
C2A C -2.2503(3) 2.3912(2) -0.64576(16)
C3A C -2.2015(3) 2.4089(2) -0.69898(16)
H1A H -2.2076 2.4629 -0.7123
C4A C -2.1430(3) 2.3471(2) -0.73316(16)
H2A H -2.1126 2.3603 -0.7695
C5A C -2.1300(3) 2.2677(2) -0.71408(15)
H3A H -2.0896 2.2276 -0.7375
C6A C -2.1759(3) 2.2443(2) -0.65969(15)
C7A C -2.2821(3) 2.2849(2) -0.56866(17)
H4A H -2.3228 2.3250 -0.5453
C8A C -2.2650(3) 2.2052(2) -0.54925(17)
H5A H -2.2939 2.1914 -0.5127
C9A C -2.2036(3) 2.1429(2) -0.58406(17)
H6A H -2.1921 2.0888 -0.5698
Cd2A Cd -1.35169(2) 1.638652(15) -0.578770(11)
Cd3A Cd -0.34936(2) 1.136088(15) -0.081985(11)
O3A O -1.39985(19) 1.58591(14) -0.48706(10)
O4A O -1.2393(2) 1.60754(15) -0.50527(11)
O5A O -1.39759(19) 1.95791(15) -0.08240(10)
O6A O -1.2701(2) 2.01904(16) -0.11893(11)
O7A O -0.5142(2) 1.16857(16) -0.10499(11)
O8A O -0.61548(19) 1.09909(15) -0.04681(10)
O9A O -1.3937(3) 1.77500(18) -0.55303(13)
O10A O -1.2786(3) 1.6985(2) -0.65614(14)
O11A O -1.51164(19) 1.66914(15) -0.60614(11)
O12A O -1.61514(19) 1.60088(15) -0.54748(10)
O13A O -2.2357(2) 2.10008(15) -1.00868(10)
O14A O -2.39994(19) 2.08702(14) -0.98844(10)
O15A O -0.3694(3) 1.26522(19) -0.05737(14)
O16A O -0.2992(3) 1.1957(2) -0.17041(15)
N1A N -1.3871(4) 1.8890(3) -0.5152(2)
N2A N -1.2422(4) 1.8164(3) -0.6884(2)
N3A N -0.3100(6) 1.3818(4) -0.0771(3)
N4A N -0.4142(4) 1.2886(3) -0.2257(2)
C10A C -1.3095(3) 1.5837(2) -0.47136(15)
C11A C -1.2923(3) 1.5582(2) -0.41014(15)
C12A C -1.3832(3) 1.5645(2) -0.37152(15)
H7A H -1.4504 1.5787 -0.3843
C13A C -1.3755(3) 1.5495(2) -0.31258(16)
H8A H -1.4369 1.5516 -0.2868
C14A C -1.2772(3) 1.5319(2) -0.29405(15)
H9A H -1.2731 1.5247 -0.2552
C15A C -1.1808(3) 1.5243(2) -0.33185(15)
C16A C -1.1881(3) 1.5336(2) -0.39125(15)
C17A C -1.0908(3) 1.5129(2) -0.42913(16)
H10A H -1.0942 1.5159 -0.4680
C18A C -0.9936(3) 1.4890(2) -0.40937(16)
H11A H -0.9315 1.4728 -0.4346
C19A C -0.9857(3) 1.4883(2) -0.35135(16)
H12A H -0.9182 1.4759 -0.3390
C20A C -1.0766(3) 1.5060(2) -0.31244(15)
C21A C -1.0611(3) 1.5114(2) -0.25215(15)
C22A C -0.9751(3) 1.4580(2) -0.22787(16)
H13A H -0.9324 1.4142 -0.2475
C23A C -0.9511(3) 1.4684(2) -0.17511(15)
C24A C -1.0157(3) 1.5335(2) -0.14571(16)
H14A H -1.0003 1.5405 -0.1101
C25A C -1.1032(3) 1.5886(2) -0.16844(15)
C26A C -1.1252(3) 1.5768(2) -0.22215(15)
H15A H -1.1831 1.6130 -0.2380
C27A C -0.6019(3) 1.1519(2) -0.08536(16)
C28A C -0.7009(3) 1.2012(2) -0.11218(15)
C29A C -0.7700(3) 1.1607(2) -0.12483(17)
H16A H -0.7542 1.1044 -0.1175
C30A C -0.8633(3) 1.2021(2) -0.14838(17)
H17A H -0.9085 1.1732 -0.1574
C31A C -0.8892(3) 1.2851(2) -0.15840(16)
H18A H -0.9523 1.3122 -0.1739
C32A C -0.8213(3) 1.3304(2) -0.14553(14)
C33A C -0.7241(3) 1.2877(2) -0.12276(15)
C34A C -0.6575(3) 1.3331(2) -0.10753(15)
H19A H -0.5925 1.3060 -0.0940
C35A C -0.6888(3) 1.4165(2) -0.11280(18)
H20A H -0.6455 1.4456 -0.1020
C36A C -0.7857(3) 1.4588(2) -0.13446(17)
H21A H -0.8064 1.5154 -0.1368
C37A C -0.8503(3) 1.4179(2) -0.15224(15)
C38A C -1.3120(3) 1.9603(2) -0.11230(15)
C39A C -1.2515(3) 1.8879(2) -0.14660(15)
C40A C -1.2035(3) 1.9049(2) -0.19937(15)
H22A H -1.2090 1.9589 -0.2128
C41A C -1.1450(3) 1.8416(2) -0.23424(16)
H23A H -1.1139 1.8536 -0.2707
C42A C -1.1354(3) 1.7625(2) -0.21315(15)
H24A H -1.0963 1.7209 -0.2358
C43A C -1.1821(3) 1.7416(2) -0.15894(15)
C44A C -1.2434(3) 1.8060(2) -0.12432(16)
C45A C -1.2873(3) 1.7850(2) -0.06767(17)
H25A H -1.3281 1.8259 -0.0450
C46A C -1.2699(4) 1.7060(3) -0.04709(17)
H26A H -1.2980 1.6934 -0.0101
C47A C -1.2097(3) 1.6423(2) -0.08090(17)
H27A H -1.1982 1.5886 -0.0657
C48A C -1.1681(3) 1.6584(2) -0.13565(16)
C49A C -1.4445(5) 1.7808(3) -0.4541(2)
H28A H -1.3881 1.7679 -0.4301
H29A H -1.5057 1.8203 -0.4374
H30A H -1.4647 1.7323 -0.4582
C50A C -1.4070(4) 1.8137(3) -0.5091(2)
C51A C -1.3440(5) 1.9186(4) -0.5687(3)
H31A H -1.3626 1.8935 -0.5982
H32A H -1.3730 1.9766 -0.5737
H33A H -1.2671 1.9058 -0.5705
C52A C -1.3801(5) 1.9300(3) -0.4651(2)
H34A H -1.3126 1.9045 -0.4507
H35A H -1.3849 1.9864 -0.4760
H36A H -1.4381 1.9255 -0.4362
C53A C -1.2200(4) 1.7502(4) -0.6544(2)
C54A C -1.1448(5) 1.7364(3) -0.6109(2)
H37A H -1.1705 1.7782 -0.5849
H38A H -1.1406 1.6841 -0.5906
H39A H -1.0746 1.7380 -0.6292
C55A C -1.3377(6) 1.8369(4) -0.7187(3)
H40A H -1.3963 1.8734 -0.6975
H41A H -1.3220 1.8627 -0.7556
H42A H -1.3572 1.7880 -0.7226
C56A C -1.1833(5) 1.8781(3) -0.6951(3)
H43A H -1.1291 1.8633 -0.6697
H44A H -1.1497 1.8818 -0.7335
H45A H -1.2321 1.9298 -0.6865
C57A C -1.5994(3) 1.6530(2) -0.58687(16)
C58A C -1.6971(3) 1.7019(2) -0.61472(15)
C59A C -1.7610(3) 1.6604(2) -0.63192(17)
H46A H -1.7455 1.6041 -0.6249
C60A C -1.8503(3) 1.7030(2) -0.66019(18)
H47A H -1.8911 1.6740 -0.6735
C61A C -1.8779(3) 1.7859(2) -0.66840(16)
H48A H -1.9386 1.8127 -0.6860
C62A C -1.8149(3) 1.8321(2) -0.65040(16)
C63A C -1.7212(3) 1.7883(2) -0.62376(15)
C64A C -1.6559(3) 1.8332(2) -0.60609(15)
H49A H -1.5921 1.8059 -0.5913
C65A C -1.6879(3) 1.9170(2) -0.61104(16)
H50A H -1.6464 1.9458 -0.5982
C66A C -1.7805(3) 1.9595(2) -0.63463(16)
H51A H -1.8002 2.0162 -0.6369
C67A C -1.8445(3) 1.9193(2) -0.65502(15)
C68A C -1.9430(3) 1.9710(2) -0.67860(15)
C69A C -1.9686(3) 1.9616(2) -0.73195(15)
H52A H -1.9266 1.9179 -0.7520
C70A C -2.0564(3) 2.0166(2) -0.75610(15)
C71A C -2.1182(3) 2.0823(2) -0.72581(15)
H53A H -2.1753 2.1197 -0.7415
C72A C -2.0949(3) 2.0927(2) -0.67169(15)
C73A C -2.0088(3) 2.0363(2) -0.64904(15)
H54A H -1.9946 2.0422 -0.6130
C74A C -2.2386(3) 2.3080(2) -0.62418(15)
C75A C -2.1614(3) 2.1608(2) -0.63757(16)
C76A C -2.3072(3) 2.0808(2) -0.97381(15)
C77A C -2.2909(3) 2.0584(2) -0.91263(15)
C78A C -2.3821(3) 2.0690(2) -0.87367(15)
H55A H -2.4498 2.0842 -0.8861
C79A C -2.3727(3) 2.0565(2) -0.81455(16)
H56A H -2.4340 2.0592 -0.7886
C80A C -2.2754(3) 2.0408(2) -0.79548(16)
H57A H -2.2718 2.0378 -0.7567
C81A C -2.1784(3) 2.0288(2) -0.83392(15)
C82A C -2.1871(3) 2.0344(2) -0.89349(15)
C83A C -2.0910(3) 2.0083(2) -0.93125(15)
H58A H -2.0949 2.0085 -0.9698
C84A C -1.9930(3) 1.9829(2) -0.91120(16)
H59A H -1.9316 1.9632 -0.9361
C85A C -1.9832(3) 1.9860(2) -0.85420(15)
H60A H -1.9152 1.9720 -0.8422
C86A C -2.0738(3) 2.0095(2) -0.81512(15)
C87A C -0.2857(7) 1.3002(6) -0.0731(4)
C88A C -0.1678(5) 1.2523(4) -0.0977(3)
H61A H -0.1601 1.2597 -0.1384
H62A H -0.1160 1.2730 -0.0837
H63A H -0.1559 1.1954 -0.0859
C89A C -0.4105(7) 1.4205(5) -0.0512(4)
H64A H -0.4180 1.4001 -0.0121
H65A H -0.4184 1.4781 -0.0535
H66A H -0.4649 1.4101 -0.0700
C90A C -0.2306(7) 1.4266(5) -0.1018(4)
H67A H -0.1735 1.3920 -0.1250
H68A H -0.2649 1.4740 -0.1246
H69A H -0.2017 1.4431 -0.0718
C91A C -0.3754(4) 1.2147(3) -0.2085(2)
C92A C -0.4070(4) 1.1478(3) -0.2294(2)
H70A H -0.3898 1.1485 -0.2699
H71A H -0.3687 1.0965 -0.2122
H72A H -0.4830 1.1551 -0.2196
C93A C -0.5103(5) 1.3122(4) -0.2600(3)
H73A H -0.5749 1.3348 -0.2358
H74A H -0.4994 1.3518 -0.2905
H75A H -0.5168 1.2646 -0.2752
C94A C -0.3759(6) 1.3525(4) -0.2075(3)
H76A H -0.3070 1.3290 -0.1942
H77A H -0.3693 1.3919 -0.2389
H78A H -0.4262 1.3787 -0.1773
O1_2 O 0.3978(2) 0.54273(15) 0.58118(10)
O1A_2 O 0.6022(2) 0.45727(15) 0.41882(10)
O2_2 O 0.2702(2) 0.47907(15) 0.61598(11)
O2A_2 O -1.2702(2) 1.52093(15) -0.61598(11)
Cd1_2 Cd -2.5000 2.5000 -0.5000
Cd1_3 Cd -1.5000 1.5000 -0.5000
Cd1_4 Cd 1.5000 -0.5000 0.5000
Cd2_2 Cd 1.35169(2) -0.638652(15) 0.578770(11)
Cd2A_2 Cd -2.35169(2) 2.638652(15) -0.578770(11)
Cd3_2 Cd 0.34936(2) -0.136088(15) 0.081985(11)
Cd3_3 Cd 1.34936(2) -0.136088(15) 1.081985(11)
Cd3A_2 Cd -2.34936(2) 2.136088(15) -1.081985(11)
Cd3A_3 Cd -1.34936(2) 2.136088(15) -0.081985(11)
Cd4_2 Cd -2.5000 2.0000 -1.0000
Cd4_3 Cd -1.5000 2.0000 0.0000
Cd4_4 Cd 0.5000 0.0000 0.0000
Cd4_5 Cd 1.5000 0.0000 1.0000
O3A_2 O 0.60015(19) 0.58591(14) 0.51294(10)
O5_2 O -0.60241(19) 1.04209(15) 0.08240(10)
O5A_2 O -0.39759(19) 0.95791(15) -0.08240(10)
O6_2 O -0.7299(2) 0.98096(16) 0.11893(11)
O6A_2 O -0.2701(2) 1.01904(16) -0.11893(11)
O12A_2 O 0.38486(19) 0.60088(15) 0.45252(10)
O13_2 O -0.7643(2) 0.89992(15) 0.00868(10)
O13A_2 O -0.2357(2) 1.10008(15) -0.00868(10)
O14_2 O -0.60006(19) 0.91298(14) -0.01156(10)
O14A_2 O -0.39994(19) 1.08702(14) 0.01156(10)
loop_
_geom_bond_atom_site_label_1
_geom_bond_atom_site_label_2
_geom_bond_site_symmetry_1
_geom_bond_site_symmetry_2
O1 C1 1_555 1_555
O2 C1 1_555 1_555
C1 C2 1_555 1_555
C2 C3 1_555 1_555
C3 H1 1_555 1_555
C4 C3 1_555 1_555
H2 C4 1_555 1_555
C5 C4 1_555 1_555
H3 C5 1_555 1_555
C6 C5 1_555 1_555
C7 H4 1_555 1_555
C8 C7 1_555 1_555
H5 C8 1_555 1_555
C9 C8 1_555 1_555
H6 C9 1_555 1_555
Cd1 O3 1_555 1_555
Cd2 O3 1_555 1_555
Cd3 O7 1_555 1_555
Cd4 O8 1_555 1_555
O3 C10 1_555 1_555
O4 Cd2 1_555 1_555
O5 C38 1_555 1_555
O6 C38 1_555 1_555
O7 C27 1_555 1_555
O8 C27 1_555 1_555
O9 Cd2 1_555 1_555
O10 Cd2 1_555 1_555
O11 Cd2 1_555 1_555
O12 Cd1 1_555 1_555
O13 C76 1_555 1_555
O14 C76 1_555 1_555
O15 Cd3 1_555 1_555
O16 Cd3 1_555 1_555
N1 C50 1_555 1_555
N2 C53 1_555 1_555
N3 C87 1_555 1_555
N4 C91 1_555 1_555
C10 O4 1_555 1_555
C11 C10 1_555 1_555
C12 C11 1_555 1_555
H7 C12 1_555 1_555
C13 C12 1_555 1_555
H8 C13 1_555 1_555
C14 C13 1_555 1_555
H9 C14 1_555 1_555
C15 C14 1_555 1_555
C16 C11 1_555 1_555
C17 C16 1_555 1_555
H10 C17 1_555 1_555
C18 C17 1_555 1_555
H11 C18 1_555 1_555
C19 C18 1_555 1_555
H12 C19 1_555 1_555
C20 C15 1_555 1_555
C21 C20 1_555 1_555
C22 C21 1_555 1_555
H13 C22 1_555 1_555
C23 C22 1_555 1_555
C24 C23 1_555 1_555
H14 C24 1_555 1_555
C25 C24 1_555 1_555
C26 C21 1_555 1_555
H15 C26 1_555 1_555
C27 C28 1_555 1_555
C28 C29 1_555 1_555
C29 H16 1_555 1_555
C30 C29 1_555 1_555
H17 C30 1_555 1_555
C31 C30 1_555 1_555
H18 C31 1_555 1_555
C32 C31 1_555 1_555
C33 C28 1_555 1_555
C34 C33 1_555 1_555
H19 C34 1_555 1_555
C35 C34 1_555 1_555
H20 C35 1_555 1_555
C36 C35 1_555 1_555
H21 C36 1_555 1_555
C37 C23 1_555 1_555
C38 C39 1_555 1_555
C39 C40 1_555 1_555
C40 H22 1_555 1_555
C41 C40 1_555 1_555
H23 C41 1_555 1_555
C42 C41 1_555 1_555
H24 C42 1_555 1_555
C43 C42 1_555 1_555
C44 C39 1_555 1_555
C45 C44 1_555 1_555
H25 C45 1_555 1_555
C46 C45 1_555 1_555
H26 C46 1_555 1_555
C47 C46 1_555 1_555
H27 C47 1_555 1_555
C48 C25 1_555 1_555
C49 H28 1_555 1_555
H29 C49 1_555 1_555
H30 C49 1_555 1_555
C50 O9 1_555 1_555
C51 N1 1_555 1_555
H31 C51 1_555 1_555
H32 C51 1_555 1_555
H33 C51 1_555 1_555
C52 N1 1_555 1_555
H34 C52 1_555 1_555
H35 C52 1_555 1_555
H36 C52 1_555 1_555
C53 O10 1_555 1_555
C54 C53 1_555 1_555
H37 C54 1_555 1_555
H38 C54 1_555 1_555
H39 C54 1_555 1_555
C55 N2 1_555 1_555
H40 C55 1_555 1_555
H41 C55 1_555 1_555
H42 C55 1_555 1_555
C56 N2 1_555 1_555
H43 C56 1_555 1_555
H44 C56 1_555 1_555
H45 C56 1_555 1_555
C57 O11 1_555 1_555
C58 C57 1_555 1_555
C59 C58 1_555 1_555
H46 C59 1_555 1_555
C60 C59 1_555 1_555
H47 C60 1_555 1_555
C61 C60 1_555 1_555
H48 C61 1_555 1_555
C62 C61 1_555 1_555
C63 C58 1_555 1_555
C64 C63 1_555 1_555
H49 C64 1_555 1_555
C65 C64 1_555 1_555
H50 C65 1_555 1_555
C66 C65 1_555 1_555
H51 C66 1_555 1_555
C67 C62 1_555 1_555
C68 C67 1_555 1_555
C69 C68 1_555 1_555
H52 C69 1_555 1_555
C70 C69 1_555 1_555
C71 C70 1_555 1_555
H53 C71 1_555 1_555
C72 C71 1_555 1_555
C73 C68 1_555 1_555
H54 C73 1_555 1_555
C74 C2 1_555 1_555
C75 C6 1_555 1_555
C76 C77 1_555 1_555
C77 C78 1_555 1_555
C78 H55 1_555 1_555
C79 C78 1_555 1_555
H56 C79 1_555 1_555
C80 C79 1_555 1_555
H57 C80 1_555 1_555
C81 C80 1_555 1_555
C82 C77 1_555 1_555
C83 C82 1_555 1_555
H58 C83 1_555 1_555
C84 C83 1_555 1_555
H59 C84 1_555 1_555
C85 C84 1_555 1_555
H60 C85 1_555 1_555
C86 C70 1_555 1_555
C87 O15 1_555 1_555
C88 C87 1_555 1_555
H61 C88 1_555 1_555
H62 C88 1_555 1_555
H63 C88 1_555 1_555
C89 N3 1_555 1_555
H64 C89 1_555 1_555
H65 C89 1_555 1_555
H66 C89 1_555 1_555
C90 N3 1_555 1_555
H67 C90 1_555 1_555
H68 C90 1_555 1_555
H69 C90 1_555 1_555
C91 O16 1_555 1_555
C92 C91 1_555 1_555
H70 C92 1_555 1_555
H71 C92 1_555 1_555
H72 C92 1_555 1_555
C93 N4 1_555 1_555
H73 C93 1_555 1_555
H74 C93 1_555 1_555
H75 C93 1_555 1_555
C94 N4 1_555 1_555
H76 C94 1_555 1_555
H77 C94 1_555 1_555
H78 C94 1_555 1_555
O1A C1A 1_555 1_555
O2A C1A 1_555 1_555
C1A C2A 1_555 1_555
C2A C3A 1_555 1_555
C3A H1A 1_555 1_555
C4A C3A 1_555 1_555
H2A C4A 1_555 1_555
C5A C4A 1_555 1_555
H3A C5A 1_555 1_555
C6A C5A 1_555 1_555
C7A H4A 1_555 1_555
C8A C7A 1_555 1_555
H5A C8A 1_555 1_555
C9A C8A 1_555 1_555
H6A C9A 1_555 1_555
Cd2A O3A 1_555 1_555
Cd3A O7A 1_555 1_555
O3A C10A 1_555 1_555
O4A Cd2A 1_555 1_555
O5A C38A 1_555 1_555
O6A C38A 1_555 1_555
O7A C27A 1_555 1_555
O8A Cd4 1_555 1_555
O9A Cd2A 1_555 1_555
O10A Cd2A 1_555 1_555
O11A Cd2A 1_555 1_555
O12A C57A 1_555 1_555
O13A C76A 1_555 1_555
O14A C76A 1_555 1_555
O15A Cd3A 1_555 1_555
O16A Cd3A 1_555 1_555
N1A C50A 1_555 1_555
N2A C53A 1_555 1_555
N3A C87A 1_555 1_555
N4A C91A 1_555 1_555
C10A O4A 1_555 1_555
C11A C10A 1_555 1_555
C12A C11A 1_555 1_555
H7A C12A 1_555 1_555
C13A C12A 1_555 1_555
H8A C13A 1_555 1_555
C14A C13A 1_555 1_555
H9A C14A 1_555 1_555
C15A C14A 1_555 1_555
C16A C11A 1_555 1_555
C17A C16A 1_555 1_555
H10A C17A 1_555 1_555
C18A C17A 1_555 1_555
H11A C18A 1_555 1_555
C19A C18A 1_555 1_555
H12A C19A 1_555 1_555
C20A C15A 1_555 1_555
C21A C20A 1_555 1_555
C22A C21A 1_555 1_555
H13A C22A 1_555 1_555
C23A C22A 1_555 1_555
C24A C23A 1_555 1_555
H14A C24A 1_555 1_555
C25A C24A 1_555 1_555
C26A C21A 1_555 1_555
H15A C26A 1_555 1_555
C27A O8A 1_555 1_555
C28A C27A 1_555 1_555
C29A C28A 1_555 1_555
H16A C29A 1_555 1_555
C30A C29A 1_555 1_555
H17A C30A 1_555 1_555
C31A C30A 1_555 1_555
H18A C31A 1_555 1_555
C32A C31A 1_555 1_555
C33A C28A 1_555 1_555
C34A C33A 1_555 1_555
H19A C34A 1_555 1_555
C35A C34A 1_555 1_555
H20A C35A 1_555 1_555
C36A C35A 1_555 1_555
H21A C36A 1_555 1_555
C37A C23A 1_555 1_555
C38A C39A 1_555 1_555
C39A C40A 1_555 1_555
C40A H22A 1_555 1_555
C41A C40A 1_555 1_555
H23A C41A 1_555 1_555
C42A C41A 1_555 1_555
H24A C42A 1_555 1_555
C43A C42A 1_555 1_555
C44A C39A 1_555 1_555
C45A C44A 1_555 1_555
H25A C45A 1_555 1_555
C46A C45A 1_555 1_555
H26A C46A 1_555 1_555
C47A C46A 1_555 1_555
H27A C47A 1_555 1_555
C48A C25A 1_555 1_555
C49A H28A 1_555 1_555
H29A C49A 1_555 1_555
H30A C49A 1_555 1_555
C50A O9A 1_555 1_555
C51A N1A 1_555 1_555
H31A C51A 1_555 1_555
H32A C51A 1_555 1_555
H33A C51A 1_555 1_555
C52A N1A 1_555 1_555
H34A C52A 1_555 1_555
H35A C52A 1_555 1_555
H36A C52A 1_555 1_555
C53A O10A 1_555 1_555
C54A C53A 1_555 1_555
H37A C54A 1_555 1_555
H38A C54A 1_555 1_555
H39A C54A 1_555 1_555
C55A N2A 1_555 1_555
H40A C55A 1_555 1_555
H41A C55A 1_555 1_555
H42A C55A 1_555 1_555
C56A N2A 1_555 1_555
H43A C56A 1_555 1_555
H44A C56A 1_555 1_555
H45A C56A 1_555 1_555
C57A O11A 1_555 1_555
C58A C57A 1_555 1_555
C59A C58A 1_555 1_555
H46A C59A 1_555 1_555
C60A C59A 1_555 1_555
H47A C60A 1_555 1_555
C61A C60A 1_555 1_555
H48A C61A 1_555 1_555
C62A C61A 1_555 1_555
C63A C58A 1_555 1_555
C64A C63A 1_555 1_555
H49A C64A 1_555 1_555
C65A C64A 1_555 1_555
H50A C65A 1_555 1_555
C66A C65A 1_555 1_555
H51A C66A 1_555 1_555
C67A C62A 1_555 1_555
C68A C67A 1_555 1_555
C69A C68A 1_555 1_555
H52A C69A 1_555 1_555
C70A C69A 1_555 1_555
C71A C70A 1_555 1_555
H53A C71A 1_555 1_555
C72A C71A 1_555 1_555
C73A C68A 1_555 1_555
H54A C73A 1_555 1_555
C74A C2A 1_555 1_555
C75A C6A 1_555 1_555
C76A C77A 1_555 1_555
C77A C78A 1_555 1_555
C78A H55A 1_555 1_555
C79A C78A 1_555 1_555
H56A C79A 1_555 1_555
C80A C79A 1_555 1_555
H57A C80A 1_555 1_555
C81A C80A 1_555 1_555
C82A C77A 1_555 1_555
C83A C82A 1_555 1_555
H58A C83A 1_555 1_555
C84A C83A 1_555 1_555
H59A C84A 1_555 1_555
C85A C84A 1_555 1_555
H60A C85A 1_555 1_555
C86A C70A 1_555 1_555
C87A O15A 1_555 1_555
C88A C87A 1_555 1_555
H61A C88A 1_555 1_555
H62A C88A 1_555 1_555
H63A C88A 1_555 1_555
C89A N3A 1_555 1_555
H64A C89A 1_555 1_555
H65A C89A 1_555 1_555
H66A C89A 1_555 1_555
C90A N3A 1_555 1_555
H67A C90A 1_555 1_555
H68A C90A 1_555 1_555
H69A C90A 1_555 1_555
C91A O16A 1_555 1_555
C92A C91A 1_555 1_555
H70A C92A 1_555 1_555
H71A C92A 1_555 1_555
H72A C92A 1_555 1_555
C93A N4A 1_555 1_555
H73A C93A 1_555 1_555
H74A C93A 1_555 1_555
H75A C93A 1_555 1_555
C94A N4A 1_555 1_555
H76A C94A 1_555 1_555
H77A C94A 1_555 1_555
H78A C94A 1_555 1_555
O1_2 Cd1 1_555 1_555
O1A_2 Cd1 1_555 1_555
O2_2 Cd2 1_555 1_555
O2A_2 Cd2A 1_555 1_555
Cd1_2 O1A 1_555 1_555
Cd1_3 O3A 1_555 1_555
Cd1_4 O1 1_555 1_555
Cd2_2 O2 1_555 1_555
Cd2A_2 O2A 1_555 1_555
Cd3_2 O6 1_555 1_555
Cd3_3 O13 1_555 1_555
Cd3A_2 O13A 1_555 1_555
Cd3A_3 O6A 1_555 1_555
Cd4_2 O14A 1_555 1_555
Cd4_3 O5A 1_555 1_555
Cd4_4 O5 1_555 1_555
Cd4_5 O14 1_555 1_555
O3A_2 Cd1 1_555 1_555
O5_2 Cd4 1_555 1_555
O5A_2 Cd4 1_555 1_555
O6_2 Cd3 1_555 1_555
O6A_2 Cd3A 1_555 1_555
O12A_2 Cd1 1_555 1_555
O13_2 Cd3 1_555 1_555
O13A_2 Cd3A 1_555 1_555
O14_2 Cd3 1_555 1_555
O14A_2 Cd4 1_555 1_555
C6 C74 1_555 1_555
C7 C74 1_555 1_555
C9 C75 1_555 1_555
Cd4 O14_2 1_555 1_555
O12 C57 1_555 1_555
O14 Cd3_3 1_555 1_555
C15 C16 1_555 1_555
C19 C20 1_555 1_555
C25 C26 1_555 1_555
C32 C33 1_555 1_555
C32 C37 1_555 1_555
C36 C37 1_555 1_555
C43 C44 1_555 1_555
C43 C48 1_555 1_555
C47 C48 1_555 1_555
C49 C50 1_555 1_555
C62 C63 1_555 1_555
C66 C67 1_555 1_555
C72 C73 1_555 1_555
C72 C75 1_555 1_555
C81 C82 1_555 1_555
C81 C86 1_555 1_555
C85 C86 1_555 1_555
C6A C74A 1_555 1_555
C7A C74A 1_555 1_555
C9A C75A 1_555 1_555
Cd3A O14A_2 1_555 1_555
O12A Cd1_3 1_555 1_555
O14A Cd3A_2 1_555 1_555
C15A C16A 1_555 1_555
C19A C20A 1_555 1_555
C25A C26A 1_555 1_555
C32A C33A 1_555 1_555
C32A C37A 1_555 1_555
C36A C37A 1_555 1_555
C43A C44A 1_555 1_555
C43A C48A 1_555 1_555
C47A C48A 1_555 1_555
C49A C50A 1_555 1_555
C62A C63A 1_555 1_555
C66A C67A 1_555 1_555
C72A C73A 1_555 1_555
C72A C75A 1_555 1_555
C81A C82A 1_555 1_555
C81A C86A 1_555 1_555
C85A C86A 1_555 1_555

#END
