
#######################################################################
#
#                 Cambridge Crystallographic Data Centre
#                                CCDC 
#
#######################################################################
#
# If this CIF has been generated from an entry in the Cambridge 
# Structural Database, then it will include bibliographic, chemical, 
# crystal, experimental, refinement or atomic coordinate data resulting 
# from the CCDC's data processing and validation procedures.
#
#######################################################################

data_AJEMIN
_symmetry_cell_setting           monoclinic
_symmetry_space_group_name_H-M   'C 2/c'
_symmetry_Int_Tables_number      15
_space_group_name_Hall           '-C 2yn'
loop_
_symmetry_equiv_pos_site_id
_symmetry_equiv_pos_as_xyz
1 x,y,z
2 -x,y,1/2-z
3 1/2+x,1/2+y,z
4 1/2-x,1/2+y,1/2-z
5 -x,-y,-z
6 x,-y,1/2+z
7 1/2-x,1/2-y,-z
8 1/2+x,1/2-y,1/2+z
_cell_length_a                   30.017(4)
_cell_length_b                   8.0085(6)
_cell_length_c                   12.7072(12)
_cell_angle_alpha                90
_cell_angle_beta                 108.101(13)
_cell_angle_gamma                90
_cell_volume                     2903.52
loop_
_atom_site_label
_atom_site_type_symbol
_atom_site_fract_x
_atom_site_fract_y
_atom_site_fract_z
C1 C 0.24761(11) 0.0436(4) 0.9295(2)
C2 C 0.23812(11) 0.2129(4) 0.9489(2)
C3 C 0.27993(12) -0.0446(4) 1.0117(3)
H1 H 0.2865 -0.1549 0.9990
C4 C 0.13469(14) -0.1181(4) 0.6104(2)
C5 C 0.18096(13) 0.2300(4) 0.7577(3)
C6 C 0.09007(14) -0.0623(4) 0.6031(3)
H2 H 0.0852 0.0494 0.6163
C7 C 0.17584(12) -0.0010(5) 0.6291(2)
H3 H 0.2010 -0.0603 0.6124
H4 H 0.1666 0.0908 0.5771
C8 C 0.22475(12) -0.0328(4) 0.8206(3)
C9 C 0.20527(11) 0.3057(4) 0.8667(2)
C10 C 0.05301(15) -0.1718(4) 0.5762(3)
H5 H 0.0236 -0.1317 0.5734
C11 C 0.30289(12) 0.0291(4) 1.1137(3)
H6 H 0.3239 -0.0334 1.1689
C12 C 0.10049(16) -0.3875(5) 0.5633(3)
H7 H 0.1046 -0.4995 0.5492
C13 C 0.13947(15) -0.2856(5) 0.5931(3)
H8 H 0.1690 -0.3303 0.6014
N1 N 0.05724(11) -0.3345(3) 0.5538(2)
N2 N 0.19403(10) 0.0681(3) 0.7406(2)
O1 O 0.23261(8) -0.1756(2) 0.79823(17)
O2 O -0.02631(12) -0.4188(4) 0.6295(2)
O3 O 0.15133(9) 0.3025(3) 0.68637(19)
O4 O 0.03835(11) -0.6835(3) 0.6096(2)
Co1 Co 0.0000 -0.5000 0.5000
H9 H 0.0289(18) -0.715(6) 0.665(3)
H10 H -0.0357(13) -0.315(3) 0.623(3)
H11 H -0.0397(19) -0.490(5) 0.668(4)
C1F C 0.25239(11) 0.4564(4) 1.0705(2)
C2F C 0.26188(11) 0.2871(4) 1.0511(2)
C3F C 0.22007(12) 0.5446(4) 0.9883(3)
H1F H 0.2135 0.6549 1.0010
C4F C 0.36531(14) 0.6181(4) 1.3896(2)
C5F C 0.31904(13) 0.2700(4) 1.2423(3)
C6F C 0.40993(14) 0.5623(4) 1.3969(3)
H2F H 0.4148 0.4506 1.3837
C7F C 0.32416(12) 0.5010(5) 1.3709(2)
H3F H 0.2990 0.5603 1.3876
H4F H 0.3334 0.4092 1.4229
C8F C 0.27525(12) 0.5328(4) 1.1794(3)
C9F C 0.29473(11) 0.1943(4) 1.1333(2)
C10F C 0.44699(15) 0.6718(4) 1.4238(3)
H5F H 0.4764 0.6317 1.4266
C11F C 0.19711(12) 0.4709(4) 0.8863(3)
H6F H 0.1761 0.5334 0.8311
C12F C 0.39951(16) 0.8875(5) 1.4367(3)
H7F H 0.3954 0.9995 1.4508
C13F C 0.36053(15) 0.7856(5) 1.4069(3)
H8F H 0.3310 0.8303 1.3986
N1F N 0.44276(11) 0.8345(3) 1.4462(2)
N2F N 0.30597(10) 0.4319(3) 1.2594(2)
O1F O 0.26739(8) 0.6756(2) 1.20177(17)
O3F O 0.34867(9) 0.1975(3) 1.31363(19)
O2D O 0.02631(12) -0.5812(4) 0.3705(2)
O4D O -0.03835(11) -0.3165(3) 0.3904(2)
H9D H -0.0289(18) -0.285(6) 0.335(3)
H10D H 0.0357(13) -0.685(3) 0.377(3)
H11D H 0.0397(19) -0.510(5) 0.332(4)
N1D N -0.05724(11) -0.6655(3) 0.4462(2)
Co1B Co 0.5000 1.0000 1.5000
N3 N 0.10150(15) -0.0981(7) 0.8670(3)
O5 O 0.05840(10) -0.1033(4) 0.8484(2)
O6 O 0.12155(11) 0.0395(5) 0.8642(2)
O7 O 0.12476(12) -0.2291(6) 0.8900(3)
O8 O -0.08567(16) -0.6126(7) 0.6843(4)
O9 O 0.0000 -0.8515(6) 0.7500
H12 H -0.0227(15) -0.917(5) 0.707(4)
H12A H 0.0227(15) -0.917(5) 0.793(4)
loop_
_geom_bond_atom_site_label_1
_geom_bond_atom_site_label_2
_geom_bond_site_symmetry_1
_geom_bond_site_symmetry_2
C1 C2 1_555 1_555
C2 C9 1_555 1_555
C3 C1 1_555 1_555
H1 C3 1_555 1_555
C4 C6 1_555 1_555
C5 C9 1_555 1_555
C6 H2 1_555 1_555
C7 C4 1_555 1_555
H3 C7 1_555 1_555
H4 C7 1_555 1_555
C8 C1 1_555 1_555
C9 C11F 1_555 1_555
C10 C6 1_555 1_555
H5 C10 1_555 1_555
C11 C3 1_555 1_555
H6 C11 1_555 1_555
C12 H7 1_555 1_555
C13 C4 1_555 1_555
H8 C13 1_555 1_555
N1 C10 1_555 1_555
N2 C5 1_555 1_555
O1 C8 1_555 1_555
O2 Co1 1_555 1_555
O3 C5 1_555 1_555
O4 Co1 1_555 1_555
Co1 N1 1_555 1_555
H9 O4 1_555 1_555
H10 O2 1_555 1_555
H11 O2 1_555 1_555
N3 O5 1_555 1_555
O6 N3 1_555 1_555
O7 N3 1_555 1_555
O9 H12 1_555 1_555
C1F C2F 1_555 1_555
C2F C2 1_555 1_555
C3F C1F 1_555 1_555
H1F C3F 1_555 1_555
C4F C6F 1_555 1_555
C5F C9F 1_555 1_555
C6F H2F 1_555 1_555
C7F C4F 1_555 1_555
H3F C7F 1_555 1_555
H4F C7F 1_555 1_555
C8F C1F 1_555 1_555
C9F C11 1_555 1_555
C10F C6F 1_555 1_555
H5F C10F 1_555 1_555
C11F C3F 1_555 1_555
H6F C11F 1_555 1_555
C12F H7F 1_555 1_555
C13F C4F 1_555 1_555
H8F C13F 1_555 1_555
N1F C10F 1_555 1_555
N2F C5F 1_555 1_555
O1F C8F 1_555 1_555
O3F C5F 1_555 1_555
O2D Co1 1_555 1_555
O4D Co1 1_555 1_555
H9D O4D 1_555 1_555
H10D O2D 1_555 1_555
H11D O2D 1_555 1_555
N1D Co1 1_555 1_555
Co1B N1F 1_555 1_555
H12A O9 1_555 1_555
C7 N2 1_555 1_555
C8 N2 1_555 1_555
C12 C13 1_555 1_555
C12 N1 1_555 1_555
C2F C9F 1_555 1_555
C7F N2F 1_555 1_555
C8F N2F 1_555 1_555
C12F C13F 1_555 1_555
C12F N1F 1_555 1_555

#END
