
#######################################################################
#
#                 Cambridge Crystallographic Data Centre
#                                CCDC 
#
#######################################################################
#
# If this CIF has been generated from an entry in the Cambridge 
# Structural Database, then it will include bibliographic, chemical, 
# crystal, experimental, refinement or atomic coordinate data resulting 
# from the CCDC's data processing and validation procedures.
#
#######################################################################

data_AJENOU
_symmetry_cell_setting           triclinic
_symmetry_space_group_name_H-M   'P -1'
_symmetry_Int_Tables_number      2
_space_group_name_Hall           '-P 1'
loop_
_symmetry_equiv_pos_site_id
_symmetry_equiv_pos_as_xyz
1 x,y,z
2 -x,-y,-z
_cell_length_a                   12.9536(10)
_cell_length_b                   17.0961(15)
_cell_length_c                   23.830(2)
_cell_angle_alpha                83.366(4)
_cell_angle_beta                 82.061(5)
_cell_angle_gamma                73.524(4)
_cell_volume                     4995.88
loop_
_atom_site_label
_atom_site_type_symbol
_atom_site_fract_x
_atom_site_fract_y
_atom_site_fract_z
Mn1 Mn 0.0000 0.5000 0.5000
Mn2 Mn 0.14871(3) 0.63782(2) 0.422162(17)
Mn3 Mn 0.15105(3) 0.13499(2) -0.081656(17)
Mn4 Mn 0.0000 0.0000 0.0000
N1 N 0.1135(2) 0.88181(16) 0.48531(12)
N2 N 0.2616(2) 0.80895(18) 0.31386(13)
N3 N 0.0959(3) 0.2874(2) -0.22281(15)
O1 O 0.09997(14) 0.58161(11) 0.50915(7)
O2 O 0.25803(14) 0.60807(12) 0.49278(8)
O3 O 0.09878(14) 0.95497(11) 0.92342(8)
O4 O 0.22190(14) 1.02047(11) 0.88531(8)
O5 O 0.99309(14) 0.16516(12) 0.89562(8)
O6 O 0.89162(14) 0.09447(11) 0.95234(8)
O7 O 0.10007(14) 0.45496(11) 0.42425(8)
O8 O 0.22149(14) 0.52325(11) 0.38814(8)
O9 O 0.26274(14) 0.10016(12) -0.01137(8)
O10 O 0.09929(14) 0.08283(11) 0.00745(8)
O11 O 0.99646(14) -0.33416(11) 0.39490(8)
O12 O 0.89276(14) -0.40279(11) 0.45175(8)
O13 O 0.10390(17) 0.76892(12) 0.44887(9)
O14 O 0.23143(18) 0.69095(13) 0.35180(10)
O15 O 0.2025(2) 0.18986(15) -0.16577(11)
C1 C 0.1893(2) 0.58190(16) 0.52632(11)
C2 C 0.2064(2) 0.55722(16) 0.58759(11)
C3 C 0.1150(2) 0.56374(16) 0.62594(12)
H1 H 0.0470 0.5786 0.6130
C4 C 0.1238(2) 0.54802(17) 0.68471(12)
H2 H 0.0621 0.5496 0.7101
C5 C 0.2228(2) 0.53041(16) 0.70466(12)
H3 H 0.2268 0.5224 0.7437
C6 C 0.3199(2) 0.52410(15) 0.66678(11)
C7 C 0.3121(2) 0.53277(16) 0.60703(11)
C8 C 0.4091(2) 0.51261(17) 0.56957(12)
H4 H 0.4055 0.5157 0.5306
C9 C 0.5073(2) 0.48886(17) 0.58985(12)
H5 H 0.5699 0.4728 0.5649
C10 C 0.5152(2) 0.48839(17) 0.64796(12)
H6 H 0.5832 0.4757 0.6606
C11 C 0.4242(2) 0.50633(15) 0.68663(11)
C12 C 0.4391(2) 0.51188(16) 0.74670(11)
C13 C 0.3749(2) 0.57758(16) 0.77731(11)
H7 H 0.3168 0.6146 0.7614
C14 C 0.3971(2) 0.58803(16) 0.83124(11)
C15 C 0.4847(2) 0.53235(16) 0.85441(12)
H8 H 0.4995 0.5388 0.8904
C16 C 0.5506(2) 0.46733(16) 0.82504(12)
C17 C 0.5258(2) 0.45726(16) 0.77118(12)
H9 H 0.5682 0.4132 0.7515
C18 C 0.3310(2) 0.65736(17) 0.86453(12)
C19 C 0.2879(3) 0.63939(19) 0.91940(13)
H10 H 0.2985 0.5851 0.9337
C20 C 0.2286(3) 0.7018(2) 0.95377(14)
H11 H 0.2017 0.6882 0.9907
C21 C 0.2095(2) 0.78281(18) 0.93399(13)
H12 H 0.1679 0.8232 0.9571
C22 C 0.2531(2) 0.80532(17) 0.87813(12)
C23 C 0.3151(2) 0.74144(16) 0.84309(12)
C24 C 0.3636(2) 0.76364(17) 0.78856(11)
H13 H 0.4036 0.7229 0.7654
C25 C 0.3526(2) 0.84390(17) 0.76967(12)
H14 H 0.3843 0.8574 0.7338
C26 C 0.2932(2) 0.90598(17) 0.80463(12)
H15 H 0.2871 0.9604 0.7916
C27 C 0.2443(2) 0.88830(16) 0.85725(11)
C28 C 0.1831(2) 0.95973(16) 0.89230(11)
C29 C 0.6515(2) 0.41662(17) 0.84853(12)
C30 C 0.7173(3) 0.45794(19) 0.86593(14)
H16 H 0.6968 0.5148 0.8635
C31 C 0.8151(3) 0.41455(19) 0.88727(14)
H17 H 0.8588 0.4435 0.8982
C32 C 0.8480(2) 0.33075(17) 0.89238(12)
H18 H 0.9140 0.3034 0.9058
C33 C 0.7802(2) 0.28568(16) 0.87700(11)
C34 C 0.6809(2) 0.32879(17) 0.85428(11)
C35 C 0.6121(2) 0.28331(17) 0.84128(12)
H19 H 0.5482 0.3106 0.8257
C36 C 0.6384(2) 0.19999(18) 0.85126(13)
H20 H 0.5926 0.1712 0.8423
C37 C 0.7344(2) 0.15770(17) 0.87501(12)
H21 H 0.7504 0.1012 0.8824
C38 C 0.8053(2) 0.19850(16) 0.88753(11)
C39 C 0.9048(2) 0.14858(16) 0.91409(11)
C40 C 0.1848(2) 0.46168(16) 0.39329(11)
C41 C 0.2467(2) 0.39195(16) 0.35764(12)
C42 C 0.2941(2) 0.41181(17) 0.30459(12)
H22 H 0.2860 0.4665 0.2920
C43 C 0.3548(2) 0.35047(17) 0.26916(12)
H23 H 0.3849 0.3650 0.2331
C44 C 0.3695(2) 0.26974(17) 0.28755(11)
H24 H 0.4115 0.2299 0.2641
C45 C 0.3218(2) 0.24539(17) 0.34177(11)
C46 C 0.2588(2) 0.30737(17) 0.37787(11)
C47 C 0.2149(2) 0.28302(18) 0.43301(12)
H25 H 0.1744 0.3225 0.4571
C48 C 0.2321(2) 0.20208(18) 0.45076(12)
H26 H 0.2019 0.1870 0.4866
C49 C 0.2947(2) 0.14104(18) 0.41565(12)
H27 H 0.3061 0.0863 0.4290
C50 C 0.3390(2) 0.16068(17) 0.36234(11)
C51 C 0.4065(2) 0.09248(16) 0.32802(11)
C52 C 0.4934(2) 0.03667(16) 0.35087(12)
H28 H 0.5087 0.0427 0.3869
C53 C 0.5589(2) -0.02862(16) 0.32077(11)
C54 C 0.5332(2) -0.03762(16) 0.26773(11)
H29 H 0.5757 -0.0813 0.2477
C55 C 0.4453(2) 0.01711(16) 0.24334(11)
C56 C 0.3829(2) 0.08286(16) 0.27398(11)
H30 H 0.3251 0.1206 0.2583
C57 C 0.4274(2) 0.00996(16) 0.18388(11)
C58 C 0.5174(2) -0.01424(17) 0.14519(12)
H31 H 0.5859 -0.0279 0.1574
C59 C 0.5080(2) -0.01877(18) 0.08780(12)
H32 H 0.5698 -0.0396 0.0633
C60 C 0.4097(2) 0.00691(17) 0.06752(12)
H33 H 0.4056 0.0068 0.0289
C61 C 0.3128(2) 0.03403(15) 0.10480(11)
C62 C 0.3215(2) 0.02968(16) 0.16464(11)
C63 C 0.2236(2) 0.04170(17) 0.20241(12)
H34 H 0.2272 0.0381 0.2414
C64 C 0.1253(2) 0.05826(18) 0.18272(12)
H35 H 0.0633 0.0625 0.2084
C65 C 0.1163(2) 0.06911(17) 0.12380(12)
H36 H 0.0483 0.0832 0.1110
C66 C 0.2075(2) 0.05897(16) 0.08530(11)
C67 C 0.1911(2) 0.07969(16) 0.02339(11)
C68 C 0.6594(2) -0.08142(16) 0.34533(11)
C69 C 0.7224(2) -0.04161(17) 0.36602(12)
H37 H 0.7018 0.0153 0.3642
C70 C 0.8178(2) -0.08516(17) 0.39001(12)
H38 H 0.8599 -0.0566 0.4030
C71 C 0.8491(2) -0.16814(17) 0.39438(12)
H39 H 0.9131 -0.1960 0.4096
C72 C 0.7843(2) -0.21263(16) 0.37582(11)
C73 C 0.6898(2) -0.16914(16) 0.34963(11)
C74 C 0.6273(2) -0.21484(17) 0.33017(12)
H40 H 0.5666 -0.1874 0.3120
C75 C 0.6551(2) -0.29860(18) 0.33779(13)
H41 H 0.6145 -0.3274 0.3238
C76 C 0.7449(2) -0.34118(17) 0.36679(12)
H42 H 0.7606 -0.3977 0.3738
C77 C 0.8096(2) -0.29975(16) 0.38474(11)
C78 C 0.9070(2) -0.34960(16) 0.41332(11)
C79 C 0.0957(3) 0.8084(2) 0.49011(15)
C80 C 0.0615(3) 0.7748(2) 0.54942(15)
H43 H 0.0446 0.7242 0.5472
H44 H -0.0013 0.8136 0.5660
H45 H 0.1196 0.7655 0.5726
C81 C 0.1217(3) 0.9269(2) 0.53276(17)
H46 H 0.0794 0.9111 0.5662
H47 H 0.0948 0.9846 0.5232
H48 H 0.1960 0.9143 0.5398
C82 C 0.1469(4) 0.9171(2) 0.42931(17)
H49 H 0.2246 0.9042 0.4233
H50 H 0.1171 0.9755 0.4272
H51 H 0.1211 0.8949 0.4006
C83 C 0.2823(3) 0.7441(2) 0.35128(14)
C84 C 0.3636(3) 0.7334(2) 0.39131(17)
H52 H 0.3456 0.7805 0.4129
H53 H 0.4339 0.7276 0.3704
H54 H 0.3643 0.6854 0.4166
C85 C 0.3180(3) 0.8728(2) 0.30484(18)
H55 H 0.3742 0.8602 0.3295
H56 H 0.2676 0.9244 0.3131
H57 H 0.3494 0.8760 0.2660
C86 C 0.1718(3) 0.8208(3) 0.27952(18)
H58 H 0.1929 0.7828 0.2506
H59 H 0.1541 0.8757 0.2620
H60 H 0.1097 0.8116 0.3035
C87 C 0.1322(3) 0.2115(3) -0.20444(17)
C88 C 0.0938(3) 0.1470(2) -0.22784(15)
H61 H 0.0163 0.1596 -0.2210
H62 H 0.1253 0.0943 -0.2094
H63 H 0.1156 0.1463 -0.2680
C89 C 0.1374(5) 0.3489(3) -0.2007(2)
H64 H 0.0839 0.3777 -0.1727
H65 H 0.1526 0.3870 -0.2314
H66 H 0.2025 0.3218 -0.1837
C90 C 0.0085(4) 0.3146(3) -0.25989(18)
H67 H 0.0175 0.2746 -0.2867
H68 H 0.0112 0.3661 -0.2800
H69 H -0.0602 0.3207 -0.2372
O16 O 0.1252(2) 0.25589(14) -0.05525(12)
H70 H 0.0515 0.2803 -0.0474
C91 C 0.1723(7) 0.2981(5) -0.0468(4)
H71 H 0.1457 0.3189 -0.0103
H72 H 0.1642 0.3428 -0.0757
H73 H 0.2475 0.2688 -0.0471
Mn2A Mn -0.14871(3) -0.63782(2) -0.422162(17)
Mn3A Mn -0.15105(3) -0.13499(2) 0.081656(17)
N1A N -0.1135(2) -0.88181(16) -0.48531(12)
N2A N -0.2616(2) -0.80895(18) -0.31386(13)
N3A N -0.0959(3) -0.2874(2) 0.22281(15)
O1A O -0.09997(14) -0.58161(11) -0.50915(7)
O2A O -0.25803(14) -0.60807(12) -0.49278(8)
O3A O -0.09878(14) -0.95497(11) -0.92342(8)
O4A O -0.22190(14) -1.02047(11) -0.88531(8)
O5A O -0.99309(14) -0.16516(12) -0.89562(8)
O6A O -0.89162(14) -0.09447(11) -0.95234(8)
O7A O -0.10007(14) -0.45496(11) -0.42425(8)
O8A O -0.22149(14) -0.52325(11) -0.38814(8)
O9A O -0.26274(14) -0.10016(12) 0.01137(8)
O10A O -0.09929(14) -0.08283(11) -0.00745(8)
O11A O -0.99646(14) 0.33416(11) -0.39490(8)
O12A O -0.89276(14) 0.40279(11) -0.45175(8)
O13A O -0.10390(17) -0.76892(12) -0.44887(9)
O14A O -0.23143(18) -0.69095(13) -0.35180(10)
O15A O -0.2025(2) -0.18986(15) 0.16577(11)
C1A C -0.1893(2) -0.58190(16) -0.52632(11)
C2A C -0.2064(2) -0.55722(16) -0.58759(11)
C3A C -0.1150(2) -0.56374(16) -0.62594(12)
H1A H -0.0470 -0.5786 -0.6130
C4A C -0.1238(2) -0.54802(17) -0.68471(12)
H2A H -0.0621 -0.5496 -0.7101
C5A C -0.2228(2) -0.53041(16) -0.70466(12)
H3A H -0.2268 -0.5224 -0.7437
C6A C -0.3199(2) -0.52410(15) -0.66678(11)
C7A C -0.3121(2) -0.53277(16) -0.60703(11)
C8A C -0.4091(2) -0.51261(17) -0.56957(12)
H4A H -0.4055 -0.5157 -0.5306
C9A C -0.5073(2) -0.48886(17) -0.58985(12)
H5A H -0.5699 -0.4728 -0.5649
C10A C -0.5152(2) -0.48839(17) -0.64796(12)
H6A H -0.5832 -0.4757 -0.6606
C11A C -0.4242(2) -0.50633(15) -0.68663(11)
C12A C -0.4391(2) -0.51188(16) -0.74670(11)
C13A C -0.3749(2) -0.57758(16) -0.77731(11)
H7A H -0.3168 -0.6146 -0.7614
C14A C -0.3971(2) -0.58803(16) -0.83124(11)
C15A C -0.4847(2) -0.53235(16) -0.85441(12)
H8A H -0.4995 -0.5388 -0.8904
C16A C -0.5506(2) -0.46733(16) -0.82504(12)
C17A C -0.5258(2) -0.45726(16) -0.77118(12)
H9A H -0.5682 -0.4132 -0.7515
C18A C -0.3310(2) -0.65736(17) -0.86453(12)
C19A C -0.2879(3) -0.63939(19) -0.91940(13)
H10A H -0.2985 -0.5851 -0.9337
C20A C -0.2286(3) -0.7018(2) -0.95377(14)
H11A H -0.2017 -0.6882 -0.9907
C21A C -0.2095(2) -0.78281(18) -0.93399(13)
H12A H -0.1679 -0.8232 -0.9571
C22A C -0.2531(2) -0.80532(17) -0.87813(12)
C23A C -0.3151(2) -0.74144(16) -0.84309(12)
C24A C -0.3636(2) -0.76364(17) -0.78856(11)
H13A H -0.4036 -0.7229 -0.7654
C25A C -0.3526(2) -0.84390(17) -0.76967(12)
H14A H -0.3843 -0.8574 -0.7338
C26A C -0.2932(2) -0.90598(17) -0.80463(12)
H15A H -0.2871 -0.9604 -0.7916
C27A C -0.2443(2) -0.88830(16) -0.85725(11)
C28A C -0.1831(2) -0.95973(16) -0.89230(11)
C29A C -0.6515(2) -0.41662(17) -0.84853(12)
C30A C -0.7173(3) -0.45794(19) -0.86593(14)
H16A H -0.6968 -0.5148 -0.8635
C31A C -0.8151(3) -0.41455(19) -0.88727(14)
H17A H -0.8588 -0.4435 -0.8982
C32A C -0.8480(2) -0.33075(17) -0.89238(12)
H18A H -0.9140 -0.3034 -0.9058
C33A C -0.7802(2) -0.28568(16) -0.87700(11)
C34A C -0.6809(2) -0.32879(17) -0.85428(11)
C35A C -0.6121(2) -0.28331(17) -0.84128(12)
H19A H -0.5482 -0.3106 -0.8257
C36A C -0.6384(2) -0.19999(18) -0.85126(13)
H20A H -0.5926 -0.1712 -0.8423
C37A C -0.7344(2) -0.15770(17) -0.87501(12)
H21A H -0.7504 -0.1012 -0.8824
C38A C -0.8053(2) -0.19850(16) -0.88753(11)
C39A C -0.9048(2) -0.14858(16) -0.91409(11)
C40A C -0.1848(2) -0.46168(16) -0.39329(11)
C41A C -0.2467(2) -0.39195(16) -0.35764(12)
C42A C -0.2941(2) -0.41181(17) -0.30459(12)
H22A H -0.2860 -0.4665 -0.2920
C43A C -0.3548(2) -0.35047(17) -0.26916(12)
H23A H -0.3849 -0.3650 -0.2331
C44A C -0.3695(2) -0.26974(17) -0.28755(11)
H24A H -0.4115 -0.2299 -0.2641
C45A C -0.3218(2) -0.24539(17) -0.34177(11)
C46A C -0.2588(2) -0.30737(17) -0.37787(11)
C47A C -0.2149(2) -0.28302(18) -0.43301(12)
H25A H -0.1744 -0.3225 -0.4571
C48A C -0.2321(2) -0.20208(18) -0.45076(12)
H26A H -0.2019 -0.1870 -0.4866
C49A C -0.2947(2) -0.14104(18) -0.41565(12)
H27A H -0.3061 -0.0863 -0.4290
C50A C -0.3390(2) -0.16068(17) -0.36234(11)
C51A C -0.4065(2) -0.09248(16) -0.32802(11)
C52A C -0.4934(2) -0.03667(16) -0.35087(12)
H28A H -0.5087 -0.0427 -0.3869
C53A C -0.5589(2) 0.02862(16) -0.32077(11)
C54A C -0.5332(2) 0.03762(16) -0.26773(11)
H29A H -0.5757 0.0813 -0.2477
C55A C -0.4453(2) -0.01711(16) -0.24334(11)
C56A C -0.3829(2) -0.08286(16) -0.27398(11)
H30A H -0.3251 -0.1206 -0.2583
C57A C -0.4274(2) -0.00996(16) -0.18388(11)
C58A C -0.5174(2) 0.01424(17) -0.14519(12)
H31A H -0.5859 0.0279 -0.1574
C59A C -0.5080(2) 0.01877(18) -0.08780(12)
H32A H -0.5698 0.0396 -0.0633
C60A C -0.4097(2) -0.00691(17) -0.06752(12)
H33A H -0.4056 -0.0068 -0.0289
C61A C -0.3128(2) -0.03403(15) -0.10480(11)
C62A C -0.3215(2) -0.02968(16) -0.16464(11)
C63A C -0.2236(2) -0.04170(17) -0.20241(12)
H34A H -0.2272 -0.0381 -0.2414
C64A C -0.1253(2) -0.05826(18) -0.18272(12)
H35A H -0.0633 -0.0625 -0.2084
C65A C -0.1163(2) -0.06911(17) -0.12380(12)
H36A H -0.0483 -0.0832 -0.1110
C66A C -0.2075(2) -0.05897(16) -0.08530(11)
C67A C -0.1911(2) -0.07969(16) -0.02339(11)
C68A C -0.6594(2) 0.08142(16) -0.34533(11)
C69A C -0.7224(2) 0.04161(17) -0.36602(12)
H37A H -0.7018 -0.0153 -0.3642
C70A C -0.8178(2) 0.08516(17) -0.39001(12)
H38A H -0.8599 0.0566 -0.4030
C71A C -0.8491(2) 0.16814(17) -0.39438(12)
H39A H -0.9131 0.1960 -0.4096
C72A C -0.7843(2) 0.21263(16) -0.37582(11)
C73A C -0.6898(2) 0.16914(16) -0.34963(11)
C74A C -0.6273(2) 0.21484(17) -0.33017(12)
H40A H -0.5666 0.1874 -0.3120
C75A C -0.6551(2) 0.29860(18) -0.33779(13)
H41A H -0.6145 0.3274 -0.3238
C76A C -0.7449(2) 0.34118(17) -0.36679(12)
H42A H -0.7606 0.3977 -0.3738
C77A C -0.8096(2) 0.29975(16) -0.38474(11)
C78A C -0.9070(2) 0.34960(16) -0.41332(11)
C79A C -0.0957(3) -0.8084(2) -0.49011(15)
C80A C -0.0615(3) -0.7748(2) -0.54942(15)
H43A H -0.0446 -0.7242 -0.5472
H44A H 0.0013 -0.8136 -0.5660
H45A H -0.1196 -0.7655 -0.5726
C81A C -0.1217(3) -0.9269(2) -0.53276(17)
H46A H -0.0794 -0.9111 -0.5662
H47A H -0.0948 -0.9846 -0.5232
H48A H -0.1960 -0.9143 -0.5398
C82A C -0.1469(4) -0.9171(2) -0.42931(17)
H49A H -0.2246 -0.9042 -0.4233
H50A H -0.1171 -0.9755 -0.4272
H51A H -0.1211 -0.8949 -0.4006
C83A C -0.2823(3) -0.7441(2) -0.35128(14)
C84A C -0.3636(3) -0.7334(2) -0.39131(17)
H52A H -0.3456 -0.7805 -0.4129
H53A H -0.4339 -0.7276 -0.3704
H54A H -0.3643 -0.6854 -0.4166
C85A C -0.3180(3) -0.8728(2) -0.30484(18)
H55A H -0.3742 -0.8602 -0.3295
H56A H -0.2676 -0.9244 -0.3131
H57A H -0.3494 -0.8760 -0.2660
C86A C -0.1718(3) -0.8208(3) -0.27952(18)
H58A H -0.1929 -0.7828 -0.2506
H59A H -0.1541 -0.8757 -0.2620
H60A H -0.1097 -0.8116 -0.3035
C87A C -0.1322(3) -0.2115(3) 0.20444(17)
C88A C -0.0938(3) -0.1470(2) 0.22784(15)
H61A H -0.0163 -0.1596 0.2210
H62A H -0.1253 -0.0943 0.2094
H63A H -0.1156 -0.1463 0.2680
C89A C -0.1374(5) -0.3489(3) 0.2007(2)
H64A H -0.0839 -0.3777 0.1727
H65A H -0.1526 -0.3870 0.2314
H66A H -0.2025 -0.3218 0.1837
C90A C -0.0085(4) -0.3146(3) 0.25989(18)
H67A H -0.0175 -0.2746 0.2867
H68A H -0.0112 -0.3661 0.2800
H69A H 0.0602 -0.3207 0.2372
O16A O -0.1252(2) -0.25589(14) 0.05525(12)
H70A H -0.0515 -0.2803 0.0474
C91A C -0.1723(7) -0.2981(5) 0.0468(4)
H71A H -0.1457 -0.3189 0.0103
H72A H -0.1642 -0.3428 0.0757
H73A H -0.2475 -0.2688 0.0471
Mn1_2 Mn -1.0000 0.5000 -0.5000
Mn1_3 Mn 0.0000 -0.5000 -0.5000
Mn1_4 Mn 1.0000 -0.5000 0.5000
Mn2_2 Mn 1.14871(3) -0.36218(2) 0.422162(17)
Mn2A_2 Mn -1.14871(3) 0.36218(2) -0.422162(17)
Mn3_2 Mn 0.15105(3) 1.13499(2) 0.918344(17)
Mn3_3 Mn 1.15105(3) 0.13499(2) 0.918344(17)
Mn3A_2 Mn -1.15105(3) -0.13499(2) -0.918344(17)
Mn3A_3 Mn -0.15105(3) -1.13499(2) -0.918344(17)
Mn4_2 Mn -1.0000 0.0000 -1.0000
Mn4_3 Mn 0.0000 -1.0000 -1.0000
Mn4_4 Mn 0.0000 1.0000 1.0000
Mn4_5 Mn 1.0000 0.0000 1.0000
O1A_2 O -0.09997(14) 0.41839(11) 0.49085(7)
O3_2 O 0.09878(14) -0.04503(11) -0.07658(8)
O3A_2 O -0.09878(14) 0.04503(11) 0.07658(8)
O4_2 O 0.22190(14) 0.02047(11) -0.11469(8)
O4A_2 O -0.22190(14) -0.02047(11) 0.11469(8)
O5_2 O -0.00691(14) 0.16516(12) -0.10438(8)
O5A_2 O 0.00691(14) -0.16516(12) 0.10438(8)
O6_2 O -0.10838(14) 0.09447(11) -0.04766(8)
O6A_2 O 0.10838(14) -0.09447(11) 0.04766(8)
O7A_2 O -0.10007(14) 0.54504(11) 0.57575(8)
O11_2 O -0.00354(14) 0.66584(11) 0.39490(8)
O11A_2 O 0.00354(14) -0.66584(11) -0.39490(8)
O12_2 O -0.10724(14) 0.59721(11) 0.45175(8)
O12A_2 O 0.10724(14) 0.40279(11) 0.54825(8)
loop_
_geom_bond_atom_site_label_1
_geom_bond_atom_site_label_2
_geom_bond_site_symmetry_1
_geom_bond_site_symmetry_2
Mn1 O1 1_555 1_555
Mn2 O1 1_555 1_555
Mn3 O9 1_555 1_555
Mn4 O10 1_555 1_555
N1 C79 1_555 1_555
N2 C83 1_555 1_555
N3 C87 1_555 1_555
O1 C1 1_555 1_555
O2 Mn2 1_555 1_555
O3 C28 1_555 1_555
O4 C28 1_555 1_555
O5 C39 1_555 1_555
O6 C39 1_555 1_555
O7 Mn1 1_555 1_555
O8 Mn2 1_555 1_555
O9 C67 1_555 1_555
O10 Mn3 1_555 1_555
O11 C78 1_555 1_555
O12 C78 1_555 1_555
O13 Mn2 1_555 1_555
O14 Mn2 1_555 1_555
O15 Mn3 1_555 1_555
C1 O2 1_555 1_555
C2 C1 1_555 1_555
C3 C2 1_555 1_555
H1 C3 1_555 1_555
C4 C3 1_555 1_555
H2 C4 1_555 1_555
C5 C4 1_555 1_555
H3 C5 1_555 1_555
C6 C5 1_555 1_555
C7 C2 1_555 1_555
C8 C7 1_555 1_555
H4 C8 1_555 1_555
C9 C8 1_555 1_555
H5 C9 1_555 1_555
C10 C9 1_555 1_555
H6 C10 1_555 1_555
C11 C6 1_555 1_555
C12 C11 1_555 1_555
C13 C12 1_555 1_555
H7 C13 1_555 1_555
C14 C13 1_555 1_555
C15 C14 1_555 1_555
H8 C15 1_555 1_555
C16 C15 1_555 1_555
C17 C12 1_555 1_555
H9 C17 1_555 1_555
C18 C14 1_555 1_555
C19 C18 1_555 1_555
H10 C19 1_555 1_555
C20 C19 1_555 1_555
H11 C20 1_555 1_555
C21 C20 1_555 1_555
H12 C21 1_555 1_555
C22 C21 1_555 1_555
C23 C18 1_555 1_555
C24 C23 1_555 1_555
H13 C24 1_555 1_555
C25 C24 1_555 1_555
H14 C25 1_555 1_555
C26 C25 1_555 1_555
H15 C26 1_555 1_555
C27 C22 1_555 1_555
C28 C27 1_555 1_555
C29 C16 1_555 1_555
C30 C29 1_555 1_555
H16 C30 1_555 1_555
C31 C30 1_555 1_555
H17 C31 1_555 1_555
C32 C31 1_555 1_555
H18 C32 1_555 1_555
C33 C32 1_555 1_555
C34 C29 1_555 1_555
C35 C34 1_555 1_555
H19 C35 1_555 1_555
C36 C35 1_555 1_555
H20 C36 1_555 1_555
C37 C36 1_555 1_555
H21 C37 1_555 1_555
C38 C33 1_555 1_555
C39 C38 1_555 1_555
C40 O7 1_555 1_555
C41 C40 1_555 1_555
C42 C41 1_555 1_555
H22 C42 1_555 1_555
C43 C42 1_555 1_555
H23 C43 1_555 1_555
C44 C43 1_555 1_555
H24 C44 1_555 1_555
C45 C44 1_555 1_555
C46 C41 1_555 1_555
C47 C46 1_555 1_555
H25 C47 1_555 1_555
C48 C47 1_555 1_555
H26 C48 1_555 1_555
C49 C48 1_555 1_555
H27 C49 1_555 1_555
C50 C45 1_555 1_555
C51 C50 1_555 1_555
C52 C51 1_555 1_555
H28 C52 1_555 1_555
C53 C52 1_555 1_555
C54 C53 1_555 1_555
H29 C54 1_555 1_555
C55 C54 1_555 1_555
C56 C51 1_555 1_555
H30 C56 1_555 1_555
C57 C55 1_555 1_555
C58 C57 1_555 1_555
H31 C58 1_555 1_555
C59 C58 1_555 1_555
H32 C59 1_555 1_555
C60 C59 1_555 1_555
H33 C60 1_555 1_555
C61 C60 1_555 1_555
C62 C57 1_555 1_555
C63 C62 1_555 1_555
H34 C63 1_555 1_555
C64 C63 1_555 1_555
H35 C64 1_555 1_555
C65 C64 1_555 1_555
H36 C65 1_555 1_555
C66 C61 1_555 1_555
C67 O10 1_555 1_555
C68 C53 1_555 1_555
C69 C68 1_555 1_555
H37 C69 1_555 1_555
C70 C69 1_555 1_555
H38 C70 1_555 1_555
C71 C70 1_555 1_555
H39 C71 1_555 1_555
C72 C71 1_555 1_555
C73 C68 1_555 1_555
C74 C73 1_555 1_555
H40 C74 1_555 1_555
C75 C74 1_555 1_555
H41 C75 1_555 1_555
C76 C75 1_555 1_555
H42 C76 1_555 1_555
C77 C72 1_555 1_555
C78 C77 1_555 1_555
C79 O13 1_555 1_555
C80 C79 1_555 1_555
H43 C80 1_555 1_555
H44 C80 1_555 1_555
H45 C80 1_555 1_555
C81 N1 1_555 1_555
H46 C81 1_555 1_555
H47 C81 1_555 1_555
H48 C81 1_555 1_555
C82 N1 1_555 1_555
H49 C82 1_555 1_555
H50 C82 1_555 1_555
H51 C82 1_555 1_555
C83 O14 1_555 1_555
C84 C83 1_555 1_555
H52 C84 1_555 1_555
H53 C84 1_555 1_555
H54 C84 1_555 1_555
C85 N2 1_555 1_555
H55 C85 1_555 1_555
H56 C85 1_555 1_555
H57 C85 1_555 1_555
C86 N2 1_555 1_555
H58 C86 1_555 1_555
H59 C86 1_555 1_555
H60 C86 1_555 1_555
C87 O15 1_555 1_555
C88 C87 1_555 1_555
H61 C88 1_555 1_555
H62 C88 1_555 1_555
H63 C88 1_555 1_555
C89 N3 1_555 1_555
H64 C89 1_555 1_555
H65 C89 1_555 1_555
H66 C89 1_555 1_555
C90 N3 1_555 1_555
H67 C90 1_555 1_555
H68 C90 1_555 1_555
H69 C90 1_555 1_555
O16 Mn3 1_555 1_555
H70 O16 1_555 1_555
C91 O16 1_555 1_555
H71 C91 1_555 1_555
H72 C91 1_555 1_555
H73 C91 1_555 1_555
Mn2A O1A 1_555 1_555
Mn3A O9A 1_555 1_555
N1A C79A 1_555 1_555
N2A C83A 1_555 1_555
N3A C87A 1_555 1_555
O1A C1A 1_555 1_555
O2A Mn2A 1_555 1_555
O3A C28A 1_555 1_555
O4A C28A 1_555 1_555
O5A C39A 1_555 1_555
O6A C39A 1_555 1_555
O7A C40A 1_555 1_555
O8A Mn2A 1_555 1_555
O9A C67A 1_555 1_555
O10A Mn4 1_555 1_555
O11A C78A 1_555 1_555
O12A C78A 1_555 1_555
O13A Mn2A 1_555 1_555
O14A Mn2A 1_555 1_555
O15A Mn3A 1_555 1_555
C1A O2A 1_555 1_555
C2A C1A 1_555 1_555
C3A C2A 1_555 1_555
H1A C3A 1_555 1_555
C4A C3A 1_555 1_555
H2A C4A 1_555 1_555
C5A C4A 1_555 1_555
H3A C5A 1_555 1_555
C6A C5A 1_555 1_555
C7A C2A 1_555 1_555
C8A C7A 1_555 1_555
H4A C8A 1_555 1_555
C9A C8A 1_555 1_555
H5A C9A 1_555 1_555
C10A C9A 1_555 1_555
H6A C10A 1_555 1_555
C11A C6A 1_555 1_555
C12A C11A 1_555 1_555
C13A C12A 1_555 1_555
H7A C13A 1_555 1_555
C14A C13A 1_555 1_555
C15A C14A 1_555 1_555
H8A C15A 1_555 1_555
C16A C15A 1_555 1_555
C17A C12A 1_555 1_555
H9A C17A 1_555 1_555
C18A C14A 1_555 1_555
C19A C18A 1_555 1_555
H10A C19A 1_555 1_555
C20A C19A 1_555 1_555
H11A C20A 1_555 1_555
C21A C20A 1_555 1_555
H12A C21A 1_555 1_555
C22A C21A 1_555 1_555
C23A C18A 1_555 1_555
C24A C23A 1_555 1_555
H13A C24A 1_555 1_555
C25A C24A 1_555 1_555
H14A C25A 1_555 1_555
C26A C25A 1_555 1_555
H15A C26A 1_555 1_555
C27A C22A 1_555 1_555
C28A C27A 1_555 1_555
C29A C16A 1_555 1_555
C30A C29A 1_555 1_555
H16A C30A 1_555 1_555
C31A C30A 1_555 1_555
H17A C31A 1_555 1_555
C32A C31A 1_555 1_555
H18A C32A 1_555 1_555
C33A C32A 1_555 1_555
C34A C29A 1_555 1_555
C35A C34A 1_555 1_555
H19A C35A 1_555 1_555
C36A C35A 1_555 1_555
H20A C36A 1_555 1_555
C37A C36A 1_555 1_555
H21A C37A 1_555 1_555
C38A C33A 1_555 1_555
C39A C38A 1_555 1_555
C40A O8A 1_555 1_555
C41A C40A 1_555 1_555
C42A C41A 1_555 1_555
H22A C42A 1_555 1_555
C43A C42A 1_555 1_555
H23A C43A 1_555 1_555
C44A C43A 1_555 1_555
H24A C44A 1_555 1_555
C45A C44A 1_555 1_555
C46A C41A 1_555 1_555
C47A C46A 1_555 1_555
H25A C47A 1_555 1_555
C48A C47A 1_555 1_555
H26A C48A 1_555 1_555
C49A C48A 1_555 1_555
H27A C49A 1_555 1_555
C50A C45A 1_555 1_555
C51A C50A 1_555 1_555
C52A C51A 1_555 1_555
H28A C52A 1_555 1_555
C53A C52A 1_555 1_555
C54A C53A 1_555 1_555
H29A C54A 1_555 1_555
C55A C54A 1_555 1_555
C56A C51A 1_555 1_555
H30A C56A 1_555 1_555
C57A C55A 1_555 1_555
C58A C57A 1_555 1_555
H31A C58A 1_555 1_555
C59A C58A 1_555 1_555
H32A C59A 1_555 1_555
C60A C59A 1_555 1_555
H33A C60A 1_555 1_555
C61A C60A 1_555 1_555
C62A C57A 1_555 1_555
C63A C62A 1_555 1_555
H34A C63A 1_555 1_555
C64A C63A 1_555 1_555
H35A C64A 1_555 1_555
C65A C64A 1_555 1_555
H36A C65A 1_555 1_555
C66A C61A 1_555 1_555
C67A O10A 1_555 1_555
C68A C53A 1_555 1_555
C69A C68A 1_555 1_555
H37A C69A 1_555 1_555
C70A C69A 1_555 1_555
H38A C70A 1_555 1_555
C71A C70A 1_555 1_555
H39A C71A 1_555 1_555
C72A C71A 1_555 1_555
C73A C68A 1_555 1_555
C74A C73A 1_555 1_555
H40A C74A 1_555 1_555
C75A C74A 1_555 1_555
H41A C75A 1_555 1_555
C76A C75A 1_555 1_555
H42A C76A 1_555 1_555
C77A C72A 1_555 1_555
C78A C77A 1_555 1_555
C79A O13A 1_555 1_555
C80A C79A 1_555 1_555
H43A C80A 1_555 1_555
H44A C80A 1_555 1_555
H45A C80A 1_555 1_555
C81A N1A 1_555 1_555
H46A C81A 1_555 1_555
H47A C81A 1_555 1_555
H48A C81A 1_555 1_555
C82A N1A 1_555 1_555
H49A C82A 1_555 1_555
H50A C82A 1_555 1_555
H51A C82A 1_555 1_555
C83A O14A 1_555 1_555
C84A C83A 1_555 1_555
H52A C84A 1_555 1_555
H53A C84A 1_555 1_555
H54A C84A 1_555 1_555
C85A N2A 1_555 1_555
H55A C85A 1_555 1_555
H56A C85A 1_555 1_555
H57A C85A 1_555 1_555
C86A N2A 1_555 1_555
H58A C86A 1_555 1_555
H59A C86A 1_555 1_555
H60A C86A 1_555 1_555
C87A O15A 1_555 1_555
C88A C87A 1_555 1_555
H61A C88A 1_555 1_555
H62A C88A 1_555 1_555
H63A C88A 1_555 1_555
C89A N3A 1_555 1_555
H64A C89A 1_555 1_555
H65A C89A 1_555 1_555
H66A C89A 1_555 1_555
C90A N3A 1_555 1_555
H67A C90A 1_555 1_555
H68A C90A 1_555 1_555
H69A C90A 1_555 1_555
O16A Mn3A 1_555 1_555
H70A O16A 1_555 1_555
C91A O16A 1_555 1_555
H71A C91A 1_555 1_555
H72A C91A 1_555 1_555
H73A C91A 1_555 1_555
Mn1_2 O12A 1_555 1_555
Mn1_3 O1A 1_555 1_555
Mn1_4 O12 1_555 1_555
Mn2_2 O11 1_555 1_555
Mn2A_2 O11A 1_555 1_555
Mn3_2 O4 1_555 1_555
Mn3_3 O5 1_555 1_555
Mn3A_2 O5A 1_555 1_555
Mn3A_3 O4A 1_555 1_555
Mn4_2 O6A 1_555 1_555
Mn4_3 O3A 1_555 1_555
Mn4_4 O3 1_555 1_555
Mn4_5 O6 1_555 1_555
O1A_2 Mn1 1_555 1_555
O3_2 Mn4 1_555 1_555
O3A_2 Mn4 1_555 1_555
O4_2 Mn3 1_555 1_555
O4A_2 Mn3A 1_555 1_555
O5_2 Mn3 1_555 1_555
O5A_2 Mn3A 1_555 1_555
O6_2 Mn4 1_555 1_555
O6A_2 Mn4 1_555 1_555
O7A_2 Mn1 1_555 1_555
O11_2 Mn2 1_555 1_555
O11A_2 Mn2A 1_555 1_555
O12_2 Mn1 1_555 1_555
O12A_2 Mn1 1_555 1_555
O8 C40 1_555 1_555
C6 C7 1_555 1_555
C10 C11 1_555 1_555
C16 C17 1_555 1_555
C22 C23 1_555 1_555
C26 C27 1_555 1_555
C33 C34 1_555 1_555
C37 C38 1_555 1_555
C45 C46 1_555 1_555
C49 C50 1_555 1_555
C55 C56 1_555 1_555
C61 C62 1_555 1_555
C65 C66 1_555 1_555
C66 C67 1_555 1_555
C72 C73 1_555 1_555
C76 C77 1_555 1_555
Mn3A O10A 1_555 1_555
O7A Mn1_3 1_555 1_555
C6A C7A 1_555 1_555
C10A C11A 1_555 1_555
C16A C17A 1_555 1_555
C22A C23A 1_555 1_555
C26A C27A 1_555 1_555
C33A C34A 1_555 1_555
C37A C38A 1_555 1_555
C45A C46A 1_555 1_555
C49A C50A 1_555 1_555
C55A C56A 1_555 1_555
C61A C62A 1_555 1_555
C65A C66A 1_555 1_555
C66A C67A 1_555 1_555
C72A C73A 1_555 1_555
C76A C77A 1_555 1_555

#END
