
#######################################################################
#
#                 Cambridge Crystallographic Data Centre
#                                CCDC 
#
#######################################################################
#
# If this CIF has been generated from an entry in the Cambridge 
# Structural Database, then it will include bibliographic, chemical, 
# crystal, experimental, refinement or atomic coordinate data resulting 
# from the CCDC's data processing and validation procedures.
#
#######################################################################

data_AJERUC
_symmetry_cell_setting           monoclinic
_symmetry_space_group_name_H-M   'P 21/c'
_symmetry_Int_Tables_number      14
_space_group_name_Hall           '-P 2ybc'
loop_
_symmetry_equiv_pos_site_id
_symmetry_equiv_pos_as_xyz
1 x,y,z
2 -x,1/2+y,1/2-z
3 -x,-y,-z
4 x,1/2-y,1/2+z
_cell_length_a                   6.0073(4)
_cell_length_b                   16.5286(10)
_cell_length_c                   8.3057(5)
_cell_angle_alpha                90
_cell_angle_beta                 100.560(10)
_cell_angle_gamma                90
_cell_volume                     810.724
loop_
_atom_site_label
_atom_site_type_symbol
_atom_site_fract_x
_atom_site_fract_y
_atom_site_fract_z
Pb1 Pb 0.04516(3) 0.383518(12) 0.12507(2)
Br1 Br 0.10815(9) 0.25372(3) 0.37005(6)
Br2 Br -0.45035(8) 0.40113(3) 0.12565(6)
O1 O 0.1708(6) 0.4607(2) 0.3896(4)
O2 O 0.0661(6) 0.5390(2) 0.1725(4)
N1 N 0.6250(8) 0.6014(3) 0.2990(5)
H1 H 0.6951 0.5812 0.3972
H2 H 0.7233 0.6333 0.2564
H3 H 0.5789 0.5598 0.2290
C1 C 0.1616(8) 0.5292(3) 0.3197(6)
C2 C 0.4228(9) 0.6506(3) 0.3225(6)
H4 H 0.3358 0.6669 0.2143
H5 H 0.4745 0.7004 0.3845
C3 C 0.2715(10) 0.6027(3) 0.4143(6)
H6 H 0.1509 0.6388 0.4396
H7 H 0.3622 0.5842 0.5195
Br2_2 Br 0.54965(8) 0.40113(3) 0.12565(6)
Pb1_2 Pb -0.95484(3) 0.383518(12) 0.12507(2)
loop_
_geom_bond_atom_site_label_1
_geom_bond_atom_site_label_2
_geom_bond_site_symmetry_1
_geom_bond_site_symmetry_2
Pb1 Br1 1_555 1_555
Br2 Pb1 1_555 1_555
O1 Pb1 1_555 1_555
O2 Pb1 1_555 1_555
N1 H1 1_555 1_555
H2 N1 1_555 1_555
H3 N1 1_555 1_555
C1 O1 1_555 1_555
C2 N1 1_555 1_555
H4 C2 1_555 1_555
H5 C2 1_555 1_555
C3 C1 1_555 1_555
H6 C3 1_555 1_555
H7 C3 1_555 1_555
Br2_2 Pb1 1_555 1_555
Pb1_2 Br2 1_555 1_555
O2 C1 1_555 1_555
C2 C3 1_555 1_555

#END
