
#######################################################################
#
#                 Cambridge Crystallographic Data Centre
#                                CCDC 
#
#######################################################################
#
# If this CIF has been generated from an entry in the Cambridge 
# Structural Database, then it will include bibliographic, chemical, 
# crystal, experimental, refinement or atomic coordinate data resulting 
# from the CCDC's data processing and validation procedures.
#
#######################################################################

data_AJESAJ01
_symmetry_cell_setting           monoclinic
_symmetry_space_group_name_H-M   'C 2'
_symmetry_Int_Tables_number      5
_space_group_name_Hall           'C 2y'
loop_
_symmetry_equiv_pos_site_id
_symmetry_equiv_pos_as_xyz
1 x,y,z
2 -x,y,-z
3 1/2+x,1/2+y,z
4 1/2-x,1/2+y,-z
_cell_length_a                   13.559(15)
_cell_length_b                   7.393(8)
_cell_length_c                   8.110(9)
_cell_angle_alpha                90
_cell_angle_beta                 112.228(15)
_cell_angle_gamma                90
_cell_volume                     752.546
loop_
_atom_site_label
_atom_site_type_symbol
_atom_site_fract_x
_atom_site_fract_y
_atom_site_fract_z
Co1 Co 0.5000 0.3256(6) 0.5000
N1 N 0.4013(9) 0.5338(12) 0.5337(14)
N2 N 0.3666(3) 0.822(3) 0.6433(4)
N3 N 0.3999(10) 1.1200(12) 0.5337(15)
N4 N 0.2629(2) 0.326(2) -0.0205(4)
O1 O 0.41603(17) 0.321(2) 0.2228(3)
C1 C 0.3880(7) 0.6700(13) 0.5804(12)
C2 C 0.3850(6) 0.9746(15) 0.5810(13)
C3 C 0.3174(3) 0.328(3) 0.1530(4)
H1 H 0.2796 0.3342 0.2275
C4 C 0.1461(3) 0.330(3) -0.0971(6)
H2 H 0.1198 0.3503 -0.0040
H3 H 0.1195 0.2170 -0.1546
H4 H 0.1226 0.4264 -0.1827
C5 C 0.3169(4) 0.320(4) -0.1443(6)
H5 H 0.3154 0.4382 -0.1946
H6 H 0.2815 0.2355 -0.2378
H7 H 0.3895 0.2832 -0.0825
Co1_2 Co 0.5000 1.3256(6) 0.5000
N1A N 0.5987(9) 0.5338(12) 0.4663(14)
N2A N 0.6334(3) 0.822(3) 0.3567(4)
N3A N 0.6001(10) 1.1200(12) 0.4663(15)
N3_2 N 0.3999(10) 0.1200(12) 0.5337(15)
N3A_2 N 0.6001(10) 0.1200(12) 0.4663(15)
N4A N 0.7371(2) 0.326(2) 1.0205(4)
O1A O 0.58397(17) 0.321(2) 0.7772(3)
C1A C 0.6120(7) 0.6700(13) 0.4196(12)
C2A C 0.6150(6) 0.9746(15) 0.4190(13)
C3A C 0.6826(3) 0.328(3) 0.8470(4)
H1A H 0.7204 0.3342 0.7725
C4A C 0.8539(3) 0.330(3) 1.0971(6)
H2A H 0.8802 0.3503 1.0040
H3A H 0.8805 0.2170 1.1546
H4A H 0.8774 0.4264 1.1827
C5A C 0.6831(4) 0.320(4) 1.1443(6)
H5A H 0.6846 0.4382 1.1946
H6A H 0.7185 0.2355 1.2378
H7A H 0.6105 0.2832 1.0825
loop_
_geom_bond_atom_site_label_1
_geom_bond_atom_site_label_2
_geom_bond_site_symmetry_1
_geom_bond_site_symmetry_2
Co1 N1 1_555 1_555
N1 C1 1_555 1_555
N2 C1 1_555 1_555
N3 C2 1_555 1_555
N4 C3 1_555 1_555
O1 Co1 1_555 1_555
C2 N2 1_555 1_555
C3 O1 1_555 1_555
H1 C3 1_555 1_555
C4 N4 1_555 1_555
H2 C4 1_555 1_555
H3 C4 1_555 1_555
H4 C4 1_555 1_555
C5 N4 1_555 1_555
H5 C5 1_555 1_555
H6 C5 1_555 1_555
H7 C5 1_555 1_555
Co1_2 N3 1_555 1_555
N1A Co1 1_555 1_555
N2A C1A 1_555 1_555
N3A Co1_2 1_555 1_555
N3_2 Co1 1_555 1_555
N3A_2 Co1 1_555 1_555
N4A C3A 1_555 1_555
O1A Co1 1_555 1_555
C1A N1A 1_555 1_555
C2A N2A 1_555 1_555
C3A O1A 1_555 1_555
H1A C3A 1_555 1_555
C4A N4A 1_555 1_555
H2A C4A 1_555 1_555
H3A C4A 1_555 1_555
H4A C4A 1_555 1_555
C5A N4A 1_555 1_555
H5A C5A 1_555 1_555
H6A C5A 1_555 1_555
H7A C5A 1_555 1_555
N3A C2A 1_555 1_555

#END
