
#######################################################################
#
#                 Cambridge Crystallographic Data Centre
#                                CCDC 
#
#######################################################################
#
# If this CIF has been generated from an entry in the Cambridge 
# Structural Database, then it will include bibliographic, chemical, 
# crystal, experimental, refinement or atomic coordinate data resulting 
# from the CCDC's data processing and validation procedures.
#
#######################################################################

data_AJESAJ02
_symmetry_cell_setting           monoclinic
_symmetry_space_group_name_H-M   'C 2'
_symmetry_Int_Tables_number      5
_space_group_name_Hall           'C 2y'
loop_
_symmetry_equiv_pos_site_id
_symmetry_equiv_pos_as_xyz
1 x,y,z
2 -x,y,-z
3 1/2+x,1/2+y,z
4 1/2-x,1/2+y,-z
_cell_length_a                   13.568(6)
_cell_length_b                   7.403(3)
_cell_length_c                   8.118(3)
_cell_angle_alpha                90
_cell_angle_beta                 112.442(6)
_cell_angle_gamma                90
_cell_volume                     753.65
loop_
_atom_site_label
_atom_site_type_symbol
_atom_site_fract_x
_atom_site_fract_y
_atom_site_fract_z
Co1 Co 1.0000 0.8245(6) 0.5000
N1 N 1.1026(6) 1.0270(6) 0.4694(12)
N2 N 1.13360(17) 1.3274(16) 0.3567(3)
N3 N 1.0960(6) 1.6123(8) 0.4628(13)
N4 N 0.76270(15) 0.8209(17) -0.0209(2)
C1 C 1.1171(6) 1.1718(12) 0.4197(12)
C2 C 1.1108(6) 1.4767(8) 0.4197(10)
C3 C 0.81721(18) 0.8209(18) 0.1529(3)
H1 H 0.7794 0.8168 0.2273
C4 C 0.6464(2) 0.819(2) -0.0965(4)
H2 H 0.6202 0.8426 -0.0042
H3 H 0.6217 0.7027 -0.1482
H4 H 0.6207 0.9104 -0.1868
C5 C 0.8173(3) 0.831(2) -0.1439(4)
H5 H 0.8898 0.8677 -0.0806
H6 H 0.7819 0.9169 -0.2360
H7 H 0.8161 0.7141 -0.1964
O1 O 0.91632(11) 0.8262(17) 0.22295(18)
Co1_2 Co 1.0000 1.8245(6) 0.5000
N1A N 0.8974(6) 1.0270(6) 0.5306(12)
N2A N 0.86640(17) 1.3274(16) 0.6433(3)
N3A N 0.9040(6) 1.6123(8) 0.5372(13)
N3_2 N 1.0960(6) 0.6123(8) 0.4628(13)
N3A_2 N 0.9040(6) 0.6123(8) 0.5372(13)
N4A N 1.23730(15) 0.8209(17) 1.0209(2)
C1A C 0.8829(6) 1.1718(12) 0.5803(12)
C2A C 0.8892(6) 1.4767(8) 0.5803(10)
C3A C 1.18279(18) 0.8209(18) 0.8471(3)
H1A H 1.2206 0.8168 0.7727
C4A C 1.3536(2) 0.819(2) 1.0965(4)
H2A H 1.3798 0.8426 1.0042
H3A H 1.3783 0.7027 1.1482
H4A H 1.3793 0.9104 1.1868
C5A C 1.1827(3) 0.831(2) 1.1439(4)
H5A H 1.1102 0.8677 1.0806
H6A H 1.2181 0.9169 1.2360
H7A H 1.1839 0.7141 1.1964
O1A O 1.08368(11) 0.8262(17) 0.77705(18)
loop_
_geom_bond_atom_site_label_1
_geom_bond_atom_site_label_2
_geom_bond_site_symmetry_1
_geom_bond_site_symmetry_2
Co1 N1 1_555 1_555
N1 C1 1_555 1_555
N2 C1 1_555 1_555
N3 C2 1_555 1_555
N4 C3 1_555 1_555
C2 N2 1_555 1_555
C3 H1 1_555 1_555
C4 N4 1_555 1_555
H2 C4 1_555 1_555
H3 C4 1_555 1_555
H4 C4 1_555 1_555
C5 N4 1_555 1_555
H5 C5 1_555 1_555
H6 C5 1_555 1_555
H7 C5 1_555 1_555
O1 Co1 1_555 1_555
Co1_2 N3 1_555 1_555
N1A Co1 1_555 1_555
N2A C1A 1_555 1_555
N3A Co1_2 1_555 1_555
N3_2 Co1 1_555 1_555
N3A_2 Co1 1_555 1_555
N4A C3A 1_555 1_555
C1A N1A 1_555 1_555
C2A N2A 1_555 1_555
C3A H1A 1_555 1_555
C4A N4A 1_555 1_555
H2A C4A 1_555 1_555
H3A C4A 1_555 1_555
H4A C4A 1_555 1_555
C5A N4A 1_555 1_555
H5A C5A 1_555 1_555
H6A C5A 1_555 1_555
H7A C5A 1_555 1_555
O1A Co1 1_555 1_555
C3 O1 1_555 1_555
N3A C2A 1_555 1_555
C3A O1A 1_555 1_555

#END
