
#######################################################################
#
#                 Cambridge Crystallographic Data Centre
#                                CCDC 
#
#######################################################################
#
# If this CIF has been generated from an entry in the Cambridge 
# Structural Database, then it will include bibliographic, chemical, 
# crystal, experimental, refinement or atomic coordinate data resulting 
# from the CCDC's data processing and validation procedures.
#
#######################################################################

data_AJESAJ03
_symmetry_cell_setting           triclinic
_symmetry_space_group_name_H-M   'P -1'
_symmetry_Int_Tables_number      2
_space_group_name_Hall           '-P 1'
loop_
_symmetry_equiv_pos_site_id
_symmetry_equiv_pos_as_xyz
1 x,y,z
2 -x,-y,-z
_cell_length_a                   6.4315(13)
_cell_length_b                   7.3879(15)
_cell_length_c                   8.6210(17)
_cell_angle_alpha                105.69(3)
_cell_angle_beta                 107.94(3)
_cell_angle_gamma                96.19(3)
_cell_volume                     366.933
loop_
_atom_site_label
_atom_site_type_symbol
_atom_site_fract_x
_atom_site_fract_y
_atom_site_fract_z
Co1 Co 0.5000 0.0000 0.5000
O1 O 0.7337(2) 0.1252(2) 0.75360(17)
N1 N 0.3153(3) -0.1843(2) 0.5846(2)
N2 N 0.3184(3) -0.7843(2) 0.5512(2)
N3 N 0.2307(3) -0.4729(2) 0.6597(2)
N4 N 1.0908(3) 0.2096(2) 0.9389(2)
C1 C 0.2790(3) -0.3244(3) 0.6133(2)
C2 C 0.2822(3) -0.6346(3) 0.5966(2)
C3 C 0.9359(3) 0.1312(3) 0.7855(2)
H1 H 0.9817 0.0763 0.6944
C4 C 1.0358(5) 0.3018(4) 1.0885(3)
H2 H 0.8777 0.2958 1.0544
H3 H 1.1137 0.4337 1.1379
H4 H 1.0796 0.2367 1.1720
C5 C 1.3232(4) 0.2040(4) 0.9659(3)
H5 H 1.3381 0.1399 0.8582
H6 H 1.3753 0.1357 1.0456
H7 H 1.4105 0.3329 1.0117
Co1_2 Co 0.5000 -1.0000 0.5000
O1A O 0.2663(2) -0.1252(2) 0.24640(17)
N1A N 0.6847(3) -0.8157(2) 0.4154(2)
N1A_2 N 0.6847(3) 0.1843(2) 0.4154(2)
N2A N 0.6816(3) -0.2157(2) 0.4488(2)
N2_2 N 0.3184(3) 0.2157(2) 0.5512(2)
N3A N 0.7693(3) -0.5271(2) 0.3403(2)
N4A N -0.0908(3) -0.2096(2) 0.0611(2)
C1A C 0.7210(3) -0.6756(3) 0.3867(2)
C2A C 0.7178(3) -0.3654(3) 0.4034(2)
C3A C 0.0641(3) -0.1312(3) 0.2145(2)
H1A H 0.0183 -0.0763 0.3056
C4A C -0.0358(5) -0.3018(4) -0.0885(3)
H2A H 0.1223 -0.2958 -0.0544
H3A H -0.1137 -0.4337 -0.1379
H4A H -0.0796 -0.2367 -0.1720
C5A C -0.3232(4) -0.2040(4) 0.0341(3)
H5A H -0.3381 -0.1399 0.1418
H6A H -0.3753 -0.1357 -0.0456
H7A H -0.4105 -0.3329 -0.0117
loop_
_geom_bond_atom_site_label_1
_geom_bond_atom_site_label_2
_geom_bond_site_symmetry_1
_geom_bond_site_symmetry_2
Co1 O1 1_555 1_555
O1 C3 1_555 1_555
N1 Co1 1_555 1_555
N2 C2 1_555 1_555
N3 C1 1_555 1_555
N4 C3 1_555 1_555
C1 N1 1_555 1_555
C2 N3 1_555 1_555
C3 H1 1_555 1_555
C4 N4 1_555 1_555
H2 C4 1_555 1_555
H3 C4 1_555 1_555
H4 C4 1_555 1_555
C5 N4 1_555 1_555
H5 C5 1_555 1_555
H6 C5 1_555 1_555
H7 C5 1_555 1_555
Co1_2 N2 1_555 1_555
O1A Co1 1_555 1_555
N1A Co1_2 1_555 1_555
N1A_2 Co1 1_555 1_555
N2A Co1 1_555 1_555
N2_2 Co1 1_555 1_555
N3A C1A 1_555 1_555
N4A C3A 1_555 1_555
C1A N1A 1_555 1_555
C2A N2A 1_555 1_555
C3A O1A 1_555 1_555
H1A C3A 1_555 1_555
C4A N4A 1_555 1_555
H2A C4A 1_555 1_555
H3A C4A 1_555 1_555
H4A C4A 1_555 1_555
C5A N4A 1_555 1_555
H5A C5A 1_555 1_555
H6A C5A 1_555 1_555
H7A C5A 1_555 1_555
N3A C2A 1_555 1_555

#END
