
#######################################################################
#
#                 Cambridge Crystallographic Data Centre
#                                CCDC 
#
#######################################################################
#
# If this CIF has been generated from an entry in the Cambridge 
# Structural Database, then it will include bibliographic, chemical, 
# crystal, experimental, refinement or atomic coordinate data resulting 
# from the CCDC's data processing and validation procedures.
#
#######################################################################

data_AJESAJ
_symmetry_cell_setting           monoclinic
_symmetry_space_group_name_H-M   'C 2/m'
_symmetry_Int_Tables_number      12
_space_group_name_Hall           '-C 2y'
loop_
_symmetry_equiv_pos_site_id
_symmetry_equiv_pos_as_xyz
1 x,y,z
2 1/2+x,1/2+y,z
3 -x,y,-z
4 1/2-x,1/2+y,-z
5 -x,-y,-z
6 1/2-x,1/2-y,-z
7 x,-y,z
8 1/2+x,1/2-y,z
_cell_length_a                   13.525(4)
_cell_length_b                   7.383(2)
_cell_length_c                   8.094(3)
_cell_angle_alpha                90
_cell_angle_beta                 112.399(5)
_cell_angle_gamma                90
_cell_volume                     747.248
loop_
_atom_site_label
_atom_site_type_symbol
_atom_site_fract_x
_atom_site_fract_y
_atom_site_fract_z
Co1 Co 0.5000 0.5000 0.5000
O1 O 0.58390(10) 0.5000 0.7776(2)
N1 N 0.59970(10) 0.7068(2) 0.4662(2)
N2 N 0.6333(2) 1.0000 0.3560(3)
N3 N 0.7372(2) 0.5000 1.0206(3)
C1 C 0.61420(10) 0.8476(2) 0.4199(2)
C2 C 0.6826(2) 0.5000 0.8466(3)
C3 C 0.6836(3) 0.5000 1.1447(4)
C4 C 0.8536(2) 0.5000 1.0963(4)
H1 H 0.726(2) 0.5000 0.780(4)
H2 H 0.738(3) 0.5000 1.259(4)
H3 H 0.646(3) 0.389(3) 1.131(6)
H4 H 0.879(3) 0.5000 1.004(4)
H5 H 0.886(2) 0.401(2) 1.171(3)
Co1_2 Co 0.5000 1.5000 0.5000
O1D O 0.41610(10) 0.5000 0.2224(2)
N1F N 0.59970(10) 1.2932(2) 0.4662(2)
N1F_2 N 0.59970(10) 0.2932(2) 0.4662(2)
N1D N 0.40030(10) 0.2932(2) 0.5338(2)
N1B N 0.40030(10) 0.7068(2) 0.5338(2)
N1D_2 N 0.40030(10) 1.2932(2) 0.5338(2)
N2D N 0.3667(2) 1.0000 0.6440(3)
N3D N 0.2628(2) 0.5000 -0.0206(3)
C1F C 0.61420(10) 1.1524(2) 0.4199(2)
C1B C 0.38580(10) 0.8476(2) 0.5801(2)
C1D C 0.38580(10) 1.1524(2) 0.5801(2)
C2D C 0.3174(2) 0.5000 0.1534(3)
C3D C 0.3164(3) 0.5000 -0.1447(4)
C4D C 0.1464(2) 0.5000 -0.0963(4)
H1D H 0.274(2) 0.5000 0.220(4)
H2D H 0.262(3) 0.5000 -0.259(4)
H3F H 0.646(3) 0.611(3) 1.131(6)
H3D H 0.354(3) 0.611(3) -0.131(6)
H3B H 0.354(3) 0.389(3) -0.131(6)
H4D H 0.121(3) 0.5000 -0.004(4)
H5F H 0.886(2) 0.599(2) 1.171(3)
H5D H 0.114(2) 0.599(2) -0.171(3)
H5B H 0.114(2) 0.401(2) -0.171(3)
loop_
_geom_bond_atom_site_label_1
_geom_bond_atom_site_label_2
_geom_bond_site_symmetry_1
_geom_bond_site_symmetry_2
Co1 O1 1_555 1_555
O1 C2 1_555 1_555
N1 Co1 1_555 1_555
N2 C1 1_555 1_555
N3 C2 1_555 1_555
C1 N1 1_555 1_555
C2 H1 1_555 1_555
C3 N3 1_555 1_555
C4 N3 1_555 1_555
H2 C3 1_555 1_555
H3 C3 1_555 1_555
H4 C4 1_555 1_555
H5 C4 1_555 1_555
Co1_2 N1F 1_555 1_555
O1D Co1 1_555 1_555
N1F C1F 1_555 1_555
N1F_2 Co1 1_555 1_555
N1D Co1 1_555 1_555
N1B Co1 1_555 1_555
N1D_2 Co1_2 1_555 1_555
N2D C1B 1_555 1_555
N3D C2D 1_555 1_555
C1F N2 1_555 1_555
C1B N1B 1_555 1_555
C1D N1D_2 1_555 1_555
C2D O1D 1_555 1_555
C3D N3D 1_555 1_555
C4D N3D 1_555 1_555
H1D C2D 1_555 1_555
H2D C3D 1_555 1_555
H3F C3 1_555 1_555
H3D C3D 1_555 1_555
H3B C3D 1_555 1_555
H4D C4D 1_555 1_555
H5F C4 1_555 1_555
H5D C4D 1_555 1_555
H5B C4D 1_555 1_555
N2D C1D 1_555 1_555

#END
