
#######################################################################
#
#                 Cambridge Crystallographic Data Centre
#                                CCDC 
#
#######################################################################
#
# If this CIF has been generated from an entry in the Cambridge 
# Structural Database, then it will include bibliographic, chemical, 
# crystal, experimental, refinement or atomic coordinate data resulting 
# from the CCDC's data processing and validation procedures.
#
#######################################################################

data_AJESUD
_symmetry_cell_setting           monoclinic
_symmetry_space_group_name_H-M   'P 21/c'
_symmetry_Int_Tables_number      14
_space_group_name_Hall           '-P 2ybc'
loop_
_symmetry_equiv_pos_site_id
_symmetry_equiv_pos_as_xyz
1 x,y,z
2 x,1/2-y,1/2+z
3 -x,-y,-z
4 -x,1/2+y,1/2-z
_cell_length_a                   9.8575(15)
_cell_length_b                   15.195(2)
_cell_length_c                   20.974(3)
_cell_angle_alpha                90
_cell_angle_beta                 96.654(4)
_cell_angle_gamma                90
_cell_volume                     3120.42
loop_
_atom_site_label
_atom_site_type_symbol
_atom_site_fract_x
_atom_site_fract_y
_atom_site_fract_z
Ag1 Ag 1.40467(4) 0.45484(3) 1.058760(19)
Ag2 Ag 0.36046(4) 0.36891(3) 0.57747(2)
N1 N 0.1916(4) 0.3960(3) 0.5044(2)
N2 N -0.4386(3) 0.4471(3) 0.13918(17)
N3 N 1.2278(3) 0.4505(3) 0.98898(18)
N4 N 0.5386(4) 0.3858(3) 0.64721(19)
C3 C 0.2069(5) 0.4466(4) 0.4546(3)
H1 H 0.2918 0.4722 0.4518
C4 C 0.1034(5) 0.4630(4) 0.4068(3)
H2 H 0.1199 0.4980 0.3722
C5 C -0.0239(5) 0.4286(3) 0.4092(2)
C6 C -0.1399(4) 0.4464(3) 0.3565(2)
H3 H -0.2242 0.4243 0.3702
H4 H -0.1496 0.5096 0.3508
C7 C -0.1211(5) 0.4071(4) 0.2954(3)
H5 H -0.1102 0.3441 0.3014
H6 H -0.0368 0.4296 0.2819
C8 C -0.2357(5) 0.4230(4) 0.2413(2)
C9 C -0.3248(6) 0.3579(4) 0.2214(3)
H7 H -0.3190 0.3038 0.2422
C10 C -0.4230(5) 0.3716(4) 0.1709(3)
H8 H -0.4820 0.3256 0.1580
C11 C -0.3548(4) 0.5114(3) 0.1595(2)
H9 H -0.3646 0.5654 0.1387
C12 C -0.2528(5) 0.5026(4) 0.2105(2)
H10 H -0.1968 0.5500 0.2236
C13 C -0.0397(5) 0.3774(3) 0.4595(2)
H11 H -0.1240 0.3516 0.4631
C14 C 0.0691(5) 0.3623(3) 0.5067(2)
H12 H 0.0548 0.3268 0.5414
C15 C 1.1742(5) 0.3732(4) 0.9709(2)
H13 H 1.2174 0.3224 0.9876
C16 C 1.0575(5) 0.3647(4) 0.9284(3)
H14 H 1.0231 0.3090 0.9175
C17 C 0.9914(5) 0.4384(4) 0.9021(2)
C18 C 0.8624(5) 0.4318(4) 0.8557(3)
H15 H 0.8006 0.3913 0.8735
H16 H 0.8188 0.4891 0.8529
C19 C 0.8786(5) 0.4045(5) 0.7947(3)
H17 H 0.9215 0.3470 0.7985
H18 H 0.9438 0.4441 0.7785
C20 C 0.7580(5) 0.3973(4) 0.7430(2)
C21 C 0.7694(4) 0.3578(3) 0.6871(2)
H19 H 0.8522 0.3328 0.6797
C22 C 0.6593(5) 0.3537(3) 0.6402(2)
H20 H 0.6714 0.3267 0.6015
C23 C 0.5280(5) 0.4247(4) 0.7017(3)
H21 H 0.4440 0.4490 0.7078
C24 C 0.6321(5) 0.4322(4) 0.7506(3)
H22 H 0.6178 0.4606 0.7886
C25 C 1.0490(5) 0.5173(4) 0.9194(2)
H23 H 1.0098 0.5689 0.9020
C26 C 1.1656(5) 0.5215(3) 0.9628(2)
H24 H 1.2021 0.5764 0.9742
Ag1_2 Ag -0.59533(4) 0.45484(3) 0.058760(19)
N2_2 N 1.5614(3) 0.4471(3) 1.13918(17)
S1 S -0.15755(15) 0.75924(11) 0.32770(7)
O1 O -0.1481(4) 0.6657(3) 0.3294(2)
O2 O -0.0299(3) 0.8018(3) 0.32673(19)
O3 O -0.2442(4) 0.7943(3) 0.3697(2)
F1 F -0.2634(4) 0.8629(3) 0.23702(19)
F2 F -0.1764(4) 0.7480(3) 0.20393(17)
F3 F -0.3659(3) 0.7435(3) 0.24095(17)
C1 C -0.2455(7) 0.7801(5) 0.2488(3)
S2 S -1.42402(14) 0.21579(10) -0.52218(7)
O4 O -1.4474(4) 0.1341(2) -0.5555(2)
O5 O -1.5149(3) 0.2316(2) -0.47487(16)
O6 O -1.2853(3) 0.2361(2) -0.50267(19)
F4 F -1.4060(4) 0.2903(3) -0.6325(2)
F5 F -1.4506(4) 0.3777(3) -0.5578(2)
F6 F -1.6055(4) 0.2920(3) -0.60159(17)
C2 C -1.4715(7) 0.2969(5) -0.5837(4)
loop_
_geom_bond_atom_site_label_1
_geom_bond_atom_site_label_2
_geom_bond_site_symmetry_1
_geom_bond_site_symmetry_2
Ag1 N3 1_555 1_555
Ag2 N1 1_555 1_555
N1 C3 1_555 1_555
N2 C10 1_555 1_555
N3 C15 1_555 1_555
N4 Ag2 1_555 1_555
S1 O1 1_555 1_555
S2 O4 1_555 1_555
O2 S1 1_555 1_555
O3 S1 1_555 1_555
O5 S2 1_555 1_555
O6 S2 1_555 1_555
F1 C1 1_555 1_555
F2 C1 1_555 1_555
F3 C1 1_555 1_555
F4 C2 1_555 1_555
F5 C2 1_555 1_555
F6 C2 1_555 1_555
C1 S1 1_555 1_555
C2 S2 1_555 1_555
C3 H1 1_555 1_555
C4 C3 1_555 1_555
H2 C4 1_555 1_555
C5 C4 1_555 1_555
C6 C5 1_555 1_555
H3 C6 1_555 1_555
H4 C6 1_555 1_555
C7 C6 1_555 1_555
H5 C7 1_555 1_555
H6 C7 1_555 1_555
C8 C7 1_555 1_555
C9 C8 1_555 1_555
H7 C9 1_555 1_555
C10 C9 1_555 1_555
H8 C10 1_555 1_555
C11 N2 1_555 1_555
H9 C11 1_555 1_555
C12 C8 1_555 1_555
H10 C12 1_555 1_555
C13 C5 1_555 1_555
H11 C13 1_555 1_555
C14 N1 1_555 1_555
H12 C14 1_555 1_555
C15 H13 1_555 1_555
C16 C15 1_555 1_555
H14 C16 1_555 1_555
C17 C16 1_555 1_555
C18 C17 1_555 1_555
H15 C18 1_555 1_555
H16 C18 1_555 1_555
C19 C18 1_555 1_555
H17 C19 1_555 1_555
H18 C19 1_555 1_555
C20 C19 1_555 1_555
C21 C20 1_555 1_555
H19 C21 1_555 1_555
C22 N4 1_555 1_555
H20 C22 1_555 1_555
C23 N4 1_555 1_555
H21 C23 1_555 1_555
C24 C20 1_555 1_555
H22 C24 1_555 1_555
C25 C17 1_555 1_555
H23 C25 1_555 1_555
C26 N3 1_555 1_555
H24 C26 1_555 1_555
Ag1_2 N2 1_555 1_555
N2_2 Ag1 1_555 1_555
C11 C12 1_555 1_555
C13 C14 1_555 1_555
C21 C22 1_555 1_555
C23 C24 1_555 1_555
C25 C26 1_555 1_555

#END
