
#######################################################################
#
#                 Cambridge Crystallographic Data Centre
#                                CCDC 
#
#######################################################################
#
# If this CIF has been generated from an entry in the Cambridge 
# Structural Database, then it will include bibliographic, chemical, 
# crystal, experimental, refinement or atomic coordinate data resulting 
# from the CCDC's data processing and validation procedures.
#
#######################################################################

data_AJEWUH
_symmetry_cell_setting           monoclinic
_symmetry_space_group_name_H-M   'C 2/m'
_symmetry_Int_Tables_number      12
_space_group_name_Hall           '-C 2y'
loop_
_symmetry_equiv_pos_site_id
_symmetry_equiv_pos_as_xyz
1 x,y,z
2 1/2+x,1/2+y,z
3 x,-y,z
4 1/2+x,1/2-y,z
5 -x,-y,-z
6 1/2-x,1/2-y,-z
7 -x,y,-z
8 1/2-x,1/2+y,-z
_cell_length_a                   16.610(3)
_cell_length_b                   10.222(2)
_cell_length_c                   11.237(2)
_cell_angle_alpha                90
_cell_angle_beta                 119.22(3)
_cell_angle_gamma                90
_cell_volume                     1665.12
loop_
_atom_site_label
_atom_site_type_symbol
_atom_site_fract_x
_atom_site_fract_y
_atom_site_fract_z
Ni1 Ni 0.63763(5) 0.5000 0.15968(7)
O1 O 0.5599(2) 0.3384(3) 0.1060(3)
O2 O 0.7648(2) 0.6073(3) 0.2635(3)
N1 N 0.6494(4) 0.5000 -0.0159(5)
N2 N 0.6350(4) 0.5000 -0.6569(5)
C1 C 0.5000 0.2834(6) 0.0000
C2 C 0.5000 0.1366(6) 0.0000
C3 C 0.5728(3) 0.0668(4) 0.1012(5)
C4 C 0.8056(4) 0.5000 0.3015(6)
C5 C 0.9073(4) 0.5000 0.4034(7)
C6 C 0.9709(6) 0.5000 0.3714(9)
C7 C 0.9355(7) 0.5000 0.5320(10)
C8 C 0.6533(3) 0.3893(5) -0.0760(5)
C9 C 0.6551(4) 0.3842(5) -0.1963(5)
C10 C 0.6537(5) 0.5000 -0.2622(6)
C11 C 0.6482(5) 0.5000 -0.3981(6)
C12 C 0.6469(6) 0.3881(5) -0.4644(6)
C13 C 0.6392(5) 0.3915(6) -0.5913(6)
H1 H 0.6224 0.1116 0.1702
H2 H 0.9544 0.5000 0.2795
H3 H 0.8922 0.5000 0.5614
H4 H 0.6548 0.3107 -0.0334
H5 H 0.6573 0.3040 -0.2336
H6 H 0.6514 0.3078 -0.4227
H7 H 0.6368 0.3123 -0.6337
O1F O 0.4401(2) 0.3384(3) -0.1060(3)
C3B C 0.5728(3) -0.0668(4) 0.1012(5)
C2B C 0.5000 -0.1366(6) 0.0000
C1B C 0.5000 -0.2834(6) 0.0000
O1B O 0.5599(2) -0.3384(3) 0.1060(3)
O1D O 0.4401(2) -0.3384(3) -0.1060(3)
C3D C 0.4272(3) -0.0668(4) -0.1012(5)
C3F C 0.4272(3) 0.0668(4) -0.1012(5)
H1F H 0.3776 0.1116 -0.1702
H1D H 0.3776 -0.1116 -0.1702
H1B H 0.6224 -0.1116 0.1702
O2B O 0.7648(2) 0.3927(3) 0.2635(3)
C7D C 1.0645(7) 0.5000 0.4680(10)
C5D C 1.0927(4) 0.5000 0.5966(7)
C4D C 1.1944(4) 0.5000 0.6985(6)
O2D O 1.2352(2) 0.3927(3) 0.7365(3)
O2F O 1.2352(2) 0.6073(3) 0.7365(3)
C6D C 1.0291(6) 0.5000 0.6286(9)
H2D H 1.0456 0.5000 0.7205
H3D H 1.1078 0.5000 0.4386
C9B C 0.6551(4) 0.6158(5) -0.1963(5)
C8B C 0.6533(3) 0.6107(5) -0.0760(5)
H4B H 0.6548 0.6893 -0.0334
H5B H 0.6573 0.6960 -0.2336
C13B C 0.6392(5) 0.6085(6) -0.5913(6)
C12B C 0.6469(6) 0.6119(5) -0.4644(6)
H6B H 0.6514 0.6922 -0.4227
H7B H 0.6368 0.6877 -0.6337
N1_2 N 0.6494(4) 0.5000 0.9841(5)
N2_2 N 0.6350(4) 0.5000 0.3431(5)
C8_2 C 0.6533(3) 0.3893(5) 0.9240(5)
C9_2 C 0.6551(4) 0.3842(5) 0.8037(5)
C10_2 C 0.6537(5) 0.5000 0.7378(6)
C11_2 C 0.6482(5) 0.5000 0.6019(6)
C12_2 C 0.6469(6) 0.3881(5) 0.5356(6)
C13_2 C 0.6392(5) 0.3915(6) 0.4087(6)
H4_2 H 0.6548 0.3107 0.9666
H5_2 H 0.6573 0.3040 0.7664
H6_2 H 0.6514 0.3078 0.5773
H7_2 H 0.6368 0.3123 0.3663
C9B_2 C 0.6551(4) 0.6158(5) 0.8037(5)
C8B_2 C 0.6533(3) 0.6107(5) 0.9240(5)
H4B_2 H 0.6548 0.6893 0.9666
H5B_2 H 0.6573 0.6960 0.7664
C13B_2 C 0.6392(5) 0.6085(6) 0.4087(6)
C12B_2 C 0.6469(6) 0.6119(5) 0.5356(6)
H6B_2 H 0.6514 0.6922 0.5773
H7B_2 H 0.6368 0.6877 0.3663
Ni1F Ni 0.36237(5) 0.5000 -0.15968(7)
O1B_2 O 0.5599(2) 0.6616(3) 0.1060(3)
Ni1_2 Ni 0.63763(5) 0.5000 -0.84032(7)
Ni1_3 Ni 0.63763(5) -0.5000 0.15968(7)
Ni1D Ni 0.36237(5) -0.5000 -0.15968(7)
Ni1D_2 Ni 1.36237(5) 0.5000 0.84032(7)
Ni1_4 Ni 0.63763(5) 0.5000 1.15968(7)
O1D_2 O 0.4401(2) 0.6616(3) -0.1060(3)
O2D_2 O 0.2352(2) 0.3927(3) -0.2635(3)
O2F_2 O 0.2352(2) 0.6073(3) -0.2635(3)
N1D N 0.3506(4) 0.5000 0.0159(5)
N2D N 0.3650(4) 0.5000 -0.3431(5)
loop_
_geom_bond_atom_site_label_1
_geom_bond_atom_site_label_2
_geom_bond_site_symmetry_1
_geom_bond_site_symmetry_2
Ni1 O1 1_555 1_555
O1 C1 1_555 1_555
O2 Ni1 1_555 1_555
N1 Ni1 1_555 1_555
N2 C13 1_555 1_555
C1 C2 1_555 1_555
C2 C3 1_555 1_555
C3 H1 1_555 1_555
C4 O2 1_555 1_555
C5 C4 1_555 1_555
C6 C5 1_555 1_555
C7 C5 1_555 1_555
C8 N1 1_555 1_555
C9 C8 1_555 1_555
C10 C9 1_555 1_555
C11 C10 1_555 1_555
C12 C11 1_555 1_555
C13 C12 1_555 1_555
H2 C6 1_555 1_555
H3 C7 1_555 1_555
H4 C8 1_555 1_555
H5 C9 1_555 1_555
H6 C12 1_555 1_555
H7 C13 1_555 1_555
O1F C1 1_555 1_555
C3B C3 1_555 1_555
C2B C3B 1_555 1_555
C1B C2B 1_555 1_555
O1B C1B 1_555 1_555
O1D C1B 1_555 1_555
C3D C2B 1_555 1_555
C3F C2 1_555 1_555
H1F C3F 1_555 1_555
H1D C3D 1_555 1_555
H1B C3B 1_555 1_555
O2B Ni1 1_555 1_555
C7D C6 1_555 1_555
C5D C7D 1_555 1_555
C4D C5D 1_555 1_555
O2D C4D 1_555 1_555
O2F C4D 1_555 1_555
C6D C7 1_555 1_555
H2D C6D 1_555 1_555
H3D C7D 1_555 1_555
C9B C10 1_555 1_555
C8B N1 1_555 1_555
H4B C8B 1_555 1_555
H5B C9B 1_555 1_555
C13B N2 1_555 1_555
C12B C11 1_555 1_555
H6B C12B 1_555 1_555
H7B C13B 1_555 1_555
N1_2 C8_2 1_555 1_555
N2_2 Ni1 1_555 1_555
C8_2 C9_2 1_555 1_555
C9_2 C10_2 1_555 1_555
C10_2 C11_2 1_555 1_555
C11_2 C12_2 1_555 1_555
C12_2 C13_2 1_555 1_555
C13_2 N2_2 1_555 1_555
H4_2 C8_2 1_555 1_555
H5_2 C9_2 1_555 1_555
H6_2 C12_2 1_555 1_555
H7_2 C13_2 1_555 1_555
C9B_2 C10_2 1_555 1_555
C8B_2 N1_2 1_555 1_555
H4B_2 C8B_2 1_555 1_555
H5B_2 C9B_2 1_555 1_555
C13B_2 N2_2 1_555 1_555
C12B_2 C11_2 1_555 1_555
H6B_2 C12B_2 1_555 1_555
H7B_2 C13B_2 1_555 1_555
Ni1F O1F 1_555 1_555
O1B_2 Ni1 1_555 1_555
Ni1_2 N2 1_555 1_555
Ni1_3 O1B 1_555 1_555
Ni1D O1D 1_555 1_555
Ni1D_2 O2D 1_555 1_555
Ni1_4 N1_2 1_555 1_555
O1D_2 Ni1F 1_555 1_555
O2D_2 Ni1F 1_555 1_555
O2F_2 Ni1F 1_555 1_555
N1D Ni1F 1_555 1_555
N2D Ni1F 1_555 1_555
C4 O2B 1_555 1_555
C3D C3F 1_555 1_555
C5D C6D 1_555 1_555
O2F Ni1D_2 1_555 1_555
C9B C8B 1_555 1_555
C13B C12B 1_555 1_555
C9B_2 C8B_2 1_555 1_555
C13B_2 C12B_2 1_555 1_555

#END
