
#######################################################################
#
#                 Cambridge Crystallographic Data Centre
#                                CCDC 
#
#######################################################################
#
# If this CIF has been generated from an entry in the Cambridge 
# Structural Database, then it will include bibliographic, chemical, 
# crystal, experimental, refinement or atomic coordinate data resulting 
# from the CCDC's data processing and validation procedures.
#
#######################################################################

data_AJICUS
_symmetry_cell_setting           monoclinic
_symmetry_space_group_name_H-M   'P 21/c'
_symmetry_Int_Tables_number      14
_space_group_name_Hall           '-P 2ybc'
loop_
_symmetry_equiv_pos_site_id
_symmetry_equiv_pos_as_xyz
1 x,y,z
2 -x,1/2+y,1/2-z
3 -x,-y,-z
4 x,1/2-y,1/2+z
_cell_length_a                   8.4393(8)
_cell_length_b                   19.2477(18)
_cell_length_c                   19.2504(19)
_cell_angle_alpha                90
_cell_angle_beta                 101.781(1)
_cell_angle_gamma                90
_cell_volume                     3061.11
loop_
_atom_site_label
_atom_site_type_symbol
_atom_site_fract_x
_atom_site_fract_y
_atom_site_fract_z
Mn1 Mn 0.67563(4) 0.723418(17) 0.635261(16)
Mn2 Mn 0.32185(4) 0.688473(16) 0.694983(16)
O1 O 0.49411(18) 0.71363(9) 0.54284(8)
O2 O 0.2654(2) 0.69971(10) 0.58282(8)
O3 O 0.09036(18) 0.76369(9) 0.19849(8)
O4 O -0.14651(18) 0.76639(9) 0.23115(8)
O5 O 0.55827(18) 0.64436(7) 0.68920(9)
O6 O 0.7185(2) 0.59280(10) 0.63001(11)
O7 O 0.4054(2) 0.32857(10) 0.84788(10)
O8 O 0.5400(2) 0.27848(8) 0.77449(11)
O9 O 0.0460(3) 0.40503(13) 0.83873(16)
O10 O 0.2619(3) 0.45832(15) 0.95212(15)
O11 O 0.8607(2) 0.75106(16) 0.57777(10)
H1 H 0.949(3) 0.754(2) 0.6082(16)
H2 H 0.851(4) 0.7853(14) 0.5499(17)
N1 N 0.1895(2) 0.58539(10) 0.69258(11)
N2 N 0.3748(2) 0.64538(10) 0.80699(10)
C1 C 0.3440(3) 0.71125(12) 0.53511(11)
C2 C 0.2493(2) 0.72461(11) 0.46106(11)
C3 C 0.2775(3) 0.68379(11) 0.40590(11)
H3 H 0.3502 0.6470 0.4151
C4 C 0.1973(2) 0.69744(11) 0.33599(11)
H4 H 0.2198 0.6703 0.2993
C5 C 0.0864(2) 0.74994(12) 0.32073(10)
C6 C 0.0551(2) 0.79415(12) 0.37652(11)
C7 C 0.1407(2) 0.78174(11) 0.44707(11)
C8 C 0.1222(3) 0.82974(13) 0.50106(12)
H5 H 0.1785 0.8225 0.5473
C9 C 0.0237(3) 0.88607(14) 0.48629(14)
H6 H 0.0149 0.9174 0.5221
C10 C -0.0644(3) 0.89695(15) 0.41734(14)
H7 H -0.1336 0.9349 0.4079
C11 C -0.0502(3) 0.85250(13) 0.36358(13)
H8 H -0.1099 0.8605 0.3181
C12 C 0.0036(3) 0.76148(11) 0.24480(11)
C13 C 0.6211(3) 0.58948(11) 0.66943(12)
C14 C 0.5764(3) 0.52226(11) 0.69999(12)
C15 C 0.6256(3) 0.51188(12) 0.77124(13)
H9 H 0.6830 0.5467 0.7990
C16 C 0.5917(3) 0.44982(12) 0.80367(13)
H10 H 0.6303 0.4433 0.8520
C17 C 0.5020(3) 0.39879(11) 0.76437(12)
C18 C 0.4411(3) 0.40882(11) 0.69041(12)
C19 C 0.4819(3) 0.47085(11) 0.65730(12)
C20 C 0.4218(3) 0.47993(14) 0.58366(13)
H11 H 0.4474 0.5201 0.5614
C21 C 0.3261(3) 0.43017(15) 0.54474(14)
H12 H 0.2903 0.4361 0.4961
C22 C 0.2825(3) 0.37081(15) 0.57776(15)
H13 H 0.2150 0.3381 0.5510
C23 C 0.3369(3) 0.35979(13) 0.64828(14)
H14 H 0.3058 0.3199 0.6693
C24 C 0.4799(3) 0.33048(12) 0.79864(13)
C25 C 0.0982(3) 0.55711(14) 0.63501(15)
H15 H 0.0897 0.5800 0.5919
C26 C 0.0150(3) 0.49487(16) 0.63629(19)
H16 H -0.0466 0.4762 0.5949
C27 C 0.0261(4) 0.46209(15) 0.6996(2)
H17 H -0.0283 0.4204 0.7019
C28 C 0.1182(3) 0.49066(13) 0.76087(17)
C29 C 0.1999(3) 0.55246(11) 0.75504(13)
C30 C 0.1294(4) 0.45708(16) 0.8302(2)
C31 C 0.2429(3) 0.48801(17) 0.89331(19)
C32 C 0.3262(3) 0.55354(14) 0.88447(15)
C33 C 0.3028(3) 0.58499(12) 0.81738(13)
C34 C 0.4268(4) 0.58562(17) 0.94055(15)
H18 H 0.4424 0.5663 0.9857
C35 C 0.5043(3) 0.64632(16) 0.92973(14)
H19 H 0.5750 0.6679 0.9668
C36 C 0.4743(3) 0.67442(13) 0.86218(13)
H20 H 0.5261 0.7156 0.8548
Mn1C Mn -0.32437(4) 0.776582(17) 0.135261(16)
Mn1A Mn 0.32437(4) 0.223418(17) 0.864739(16)
Mn2C Mn 0.32185(4) 0.811527(16) 0.194983(16)
Mn2A Mn 0.67815(4) 0.188473(16) 0.805017(16)
O3C O 0.09036(18) 0.73631(9) 0.69849(8)
O4C O 0.85349(18) 0.73361(9) 0.73115(8)
O7A O 0.5946(2) 0.82857(10) 0.65212(10)
O8A O 0.4600(2) 0.77848(8) 0.72551(11)
loop_
_geom_bond_atom_site_label_1
_geom_bond_atom_site_label_2
_geom_bond_site_symmetry_1
_geom_bond_site_symmetry_2
Mn1 O1 1_555 1_555
Mn2 O2 1_555 1_555
O1 C1 1_555 1_555
O2 C1 1_555 1_555
O3 C12 1_555 1_555
O4 C12 1_555 1_555
O5 Mn1 1_555 1_555
O6 Mn1 1_555 1_555
O7 C24 1_555 1_555
O8 C24 1_555 1_555
O9 C30 1_555 1_555
O10 C31 1_555 1_555
O11 Mn1 1_555 1_555
H1 O11 1_555 1_555
H2 O11 1_555 1_555
N1 Mn2 1_555 1_555
N2 Mn2 1_555 1_555
C1 C2 1_555 1_555
C2 C3 1_555 1_555
C3 H3 1_555 1_555
C4 C3 1_555 1_555
H4 C4 1_555 1_555
C5 C4 1_555 1_555
C6 C5 1_555 1_555
C7 C2 1_555 1_555
C8 C7 1_555 1_555
H5 C8 1_555 1_555
C9 C8 1_555 1_555
H6 C9 1_555 1_555
C10 C9 1_555 1_555
H7 C10 1_555 1_555
C11 C6 1_555 1_555
H8 C11 1_555 1_555
C12 C5 1_555 1_555
C13 O5 1_555 1_555
C14 C13 1_555 1_555
C15 C14 1_555 1_555
H9 C15 1_555 1_555
C16 C15 1_555 1_555
H10 C16 1_555 1_555
C17 C16 1_555 1_555
C18 C17 1_555 1_555
C19 C14 1_555 1_555
C20 C19 1_555 1_555
H11 C20 1_555 1_555
C21 C20 1_555 1_555
H12 C21 1_555 1_555
C22 C21 1_555 1_555
H13 C22 1_555 1_555
C23 C18 1_555 1_555
H14 C23 1_555 1_555
C24 C17 1_555 1_555
C25 N1 1_555 1_555
H15 C25 1_555 1_555
C26 C25 1_555 1_555
H16 C26 1_555 1_555
C27 C26 1_555 1_555
H17 C27 1_555 1_555
C28 C27 1_555 1_555
C29 N1 1_555 1_555
C30 C28 1_555 1_555
C31 C30 1_555 1_555
C32 C31 1_555 1_555
C33 N2 1_555 1_555
C34 C32 1_555 1_555
H18 C34 1_555 1_555
C35 C34 1_555 1_555
H19 C35 1_555 1_555
C36 N2 1_555 1_555
H20 C36 1_555 1_555
Mn1C O4 1_555 1_555
Mn1A O7 1_555 1_555
Mn2C O3 1_555 1_555
Mn2A O8 1_555 1_555
O3C Mn2 1_555 1_555
O4C Mn1 1_555 1_555
O7A Mn1 1_555 1_555
O8A Mn2 1_555 1_555
Mn2 O5 1_555 1_555
O6 C13 1_555 1_555
C6 C7 1_555 1_555
C10 C11 1_555 1_555
C18 C19 1_555 1_555
C22 C23 1_555 1_555
C28 C29 1_555 1_555
C29 C33 1_555 1_555
C32 C33 1_555 1_555
C35 C36 1_555 1_555

#END
