
#######################################################################
#
#                 Cambridge Crystallographic Data Centre
#                                CCDC 
#
#######################################################################
#
# If this CIF has been generated from an entry in the Cambridge 
# Structural Database, then it will include bibliographic, chemical, 
# crystal, experimental, refinement or atomic coordinate data resulting 
# from the CCDC's data processing and validation procedures.
#
#######################################################################

data_AJIDAZ
_symmetry_cell_setting           monoclinic
_symmetry_space_group_name_H-M   'P 21/c'
_symmetry_Int_Tables_number      14
_space_group_name_Hall           '-P 2ybc'
loop_
_symmetry_equiv_pos_site_id
_symmetry_equiv_pos_as_xyz
1 x,y,z
2 -x,1/2+y,1/2-z
3 -x,-y,-z
4 x,1/2-y,1/2+z
_cell_length_a                   10.428(1)
_cell_length_b                   15.187(1)
_cell_length_c                   11.478(3)
_cell_angle_alpha                90
_cell_angle_beta                 114.444(1)
_cell_angle_gamma                90
_cell_volume                     1654.84
loop_
_atom_site_label
_atom_site_type_symbol
_atom_site_fract_x
_atom_site_fract_y
_atom_site_fract_z
Pb1 Pb 0.60601(3) 0.525108(19) 0.39442(2)
O1 O 0.8123(7) 0.4460(4) 0.5353(5)
O2 O 0.7155(6) 0.4344(4) 0.6715(5)
O3 O 1.2513(6) 0.1473(4) 1.0397(5)
O4 O 1.3459(6) 0.1510(4) 0.9005(5)
O5 O 0.7884(6) 0.5551(4) -0.1400(5)
O6 O 0.5419(6) 0.6582(4) -0.2269(4)
N1 N 0.7358(7) 0.4976(4) 0.2537(6)
N2 N 0.5139(6) 0.6109(4) 0.1764(5)
C1 C 0.8093(8) 0.4176(5) 0.6363(6)
C2 C 0.9298(7) 0.3592(5) 0.7180(6)
C3 C 0.9398(8) 0.3284(5) 0.8348(6)
H1 H 0.8732 0.3456 0.8647
C4 C 1.0481(8) 0.2719(5) 0.9082(6)
H2 H 1.0530 0.2514 0.9862
C5 C 1.1492(8) 0.2459(4) 0.8653(6)
C6 C 1.1423(8) 0.2799(5) 0.7518(6)
H3 H 1.2107 0.2642 0.7234
C7 C 1.0367(8) 0.3362(4) 0.6798(6)
H4 H 1.0359 0.3595 0.6046
C8 C 1.2578(8) 0.1772(5) 0.9386(7)
C9 C 0.8489(9) 0.4464(5) 0.2881(7)
H5 H 0.8807 0.4198 0.3681
C10 C 0.9226(8) 0.4296(6) 0.2157(7)
H6 H 1.0007 0.3927 0.2460
C11 C 0.8796(8) 0.4678(5) 0.0993(7)
H7 H 0.9284 0.4576 0.0487
C12 C 0.7620(7) 0.5226(5) 0.0555(6)
C13 C 0.7110(8) 0.5659(5) -0.0684(6)
C14 C 0.5958(8) 0.6182(5) -0.1084(6)
C15 C 0.5252(8) 0.6348(5) -0.0279(6)
C16 C 0.4105(8) 0.6930(5) -0.0603(7)
H8 H 0.3745 0.7208 -0.1397
C17 C 0.3523(9) 0.7087(5) 0.0235(7)
H9 H 0.2778 0.7481 0.0027
C18 C 0.4045(8) 0.6657(5) 0.1401(7)
H10 H 0.3614 0.6754 0.1956
C19 C 0.5741(7) 0.5947(4) 0.0952(6)
C20 C 0.6907(7) 0.5364(4) 0.1342(6)
Pb1A Pb 1.39399(3) 0.025108(19) 1.10558(2)
O3A O 0.7487(6) 0.6473(4) 0.4603(5)
loop_
_geom_bond_atom_site_label_1
_geom_bond_atom_site_label_2
_geom_bond_site_symmetry_1
_geom_bond_site_symmetry_2
Pb1 O1 1_555 1_555
O1 C1 1_555 1_555
O2 C1 1_555 1_555
O3 C8 1_555 1_555
O4 C8 1_555 1_555
O5 C13 1_555 1_555
O6 C14 1_555 1_555
N1 Pb1 1_555 1_555
N2 Pb1 1_555 1_555
C1 C2 1_555 1_555
C2 C3 1_555 1_555
C3 H1 1_555 1_555
C4 C3 1_555 1_555
H2 C4 1_555 1_555
C5 C4 1_555 1_555
C6 C5 1_555 1_555
H3 C6 1_555 1_555
C7 C2 1_555 1_555
H4 C7 1_555 1_555
C8 C5 1_555 1_555
C9 N1 1_555 1_555
H5 C9 1_555 1_555
C10 C9 1_555 1_555
H6 C10 1_555 1_555
C11 C10 1_555 1_555
H7 C11 1_555 1_555
C12 C11 1_555 1_555
C13 C12 1_555 1_555
C14 C13 1_555 1_555
C15 C14 1_555 1_555
C16 C15 1_555 1_555
H8 C16 1_555 1_555
C17 C16 1_555 1_555
H9 C17 1_555 1_555
C18 N2 1_555 1_555
H10 C18 1_555 1_555
C19 N2 1_555 1_555
C20 N1 1_555 1_555
Pb1A O3 1_555 1_555
O3A Pb1 1_555 1_555
C6 C7 1_555 1_555
C12 C20 1_555 1_555
C15 C19 1_555 1_555
C17 C18 1_555 1_555
C19 C20 1_555 1_555

#END
