
#######################################################################
#
#                 Cambridge Crystallographic Data Centre
#                                CCDC 
#
#######################################################################
#
# If this CIF has been generated from an entry in the Cambridge 
# Structural Database, then it will include bibliographic, chemical, 
# crystal, experimental, refinement or atomic coordinate data resulting 
# from the CCDC's data processing and validation procedures.
#
#######################################################################

data_AJIFIJ
_symmetry_cell_setting           triclinic
_symmetry_space_group_name_H-M   'P -1'
_symmetry_Int_Tables_number      2
_space_group_name_Hall           '-P 1'
loop_
_symmetry_equiv_pos_site_id
_symmetry_equiv_pos_as_xyz
1 x,y,z
2 -x,-y,-z
_cell_length_a                   7.499(4)
_cell_length_b                   7.928(4)
_cell_length_c                   11.982(5)
_cell_angle_alpha                72.886(4)
_cell_angle_beta                 85.748(4)
_cell_angle_gamma                65.666(5)
_cell_volume                     619.42
loop_
_atom_site_label
_atom_site_type_symbol
_atom_site_fract_x
_atom_site_fract_y
_atom_site_fract_z
C1 C -1.1870(5) -0.0435(5) 0.8775(3)
C2 C -1.0228(5) -0.2392(5) 0.9250(4)
H1 H -0.9498 -0.2348 0.9868
H2 H -0.9344 -0.2675 0.8632
C3 C -1.0890(5) -0.4024(5) 0.9729(3)
H3 H -1.1514 -0.4154 0.9087
C4 C -1.2362(5) -0.3626(5) 1.0672(3)
C5 C -0.5128(5) 0.1885(5) 0.5710(3)
C6 C -0.5234(5) 0.1089(5) 0.4728(3)
H4 H -0.4237 0.1222 0.4175
C7 C -0.7242(5) 0.2187(5) 0.4086(3)
H5 H -0.7313 0.1558 0.3518
H6 H -0.8234 0.2119 0.4643
C8 C -0.7700(5) 0.4286(5) 0.3463(3)
O1 O -1.1495(4) 0.1055(4) 0.8533(2)
O2 O -1.3566(4) -0.0238(4) 0.8590(3)
O3 O -1.7754(4) 0.6162(4) 0.6382(3)
H7 H -1.847(7) 0.565(7) 0.635(4)
H8 H -1.721(7) 0.639(7) 0.574(4)
O4 O -0.6391(4) 0.2043(4) 0.6460(2)
O5 O -0.9660(4) 0.0105(5) 0.6309(3)
H9 H -0.916(7) -0.104(7) 0.631(4)
H10 H -1.084(3) 0.058(6) 0.611(4)
O6 O -0.3718(4) 0.2352(4) 0.5789(2)
O7 O -0.6465(4) -0.1422(4) 0.8435(3)
H11 H -0.545(5) -0.136(6) 0.864(4)
H12 H -0.628(7) -0.259(4) 0.875(4)
O8 O -1.2174(4) -0.2778(4) 1.1353(2)
O9 O -1.3702(4) -0.4211(4) 1.0774(2)
O10 O -0.6349(4) 0.4662(4) 0.2971(3)
O11 O -0.9426(4) 0.5479(4) 0.3476(3)
Cd1 Cd -0.89424(4) 0.14635(4) 0.75659(2)
Cd2 Cd -1.48747(4) 0.31540(4) 0.76500(2)
C1A C -0.8130(5) -0.9565(5) 1.1225(3)
C2A C -0.9772(5) -0.7608(5) 1.0750(4)
H1A H -1.0502 -0.7652 1.0132
H2A H -1.0656 -0.7325 1.1368
C3A C -0.9110(5) -0.5976(5) 1.0271(3)
H3A H -0.8486 -0.5846 1.0913
C4A C -0.7638(5) -0.6374(5) 0.9328(3)
C5A C -0.4872(5) -0.1885(5) 0.4290(3)
C6A C -0.4766(5) -0.1089(5) 0.5272(3)
H4A H -0.5763 -0.1222 0.5825
C7A C -0.2758(5) -0.2187(5) 0.5914(3)
H5A H -0.2687 -0.1558 0.6482
H6A H -0.1766 -0.2119 0.5357
C8A C -0.2300(5) -0.4286(5) 0.6537(3)
O1A O -0.8505(4) -1.1055(4) 1.1467(2)
O2A O -0.6434(4) -0.9762(4) 1.1410(3)
O3A O -0.2246(4) -1.6162(4) 1.3618(3)
H7A H -0.153(7) -1.565(7) 1.365(4)
H8A H -0.279(7) -1.639(7) 1.426(4)
O4A O -0.3609(4) -0.2043(4) 0.3540(2)
O4_2 O -1.6391(4) 0.2043(4) 0.6460(2)
O4A_2 O -1.3609(4) -1.2043(4) 1.3540(2)
O4A_3 O -0.3609(4) -1.2043(4) 1.3540(2)
O5A O -1.0340(4) -1.0105(5) 1.3691(3)
H9A H -1.084(7) -0.896(7) 1.369(4)
H10A H -0.916(3) -1.058(6) 1.389(4)
O6A O -0.6282(4) -0.2352(4) 0.4211(2)
O6_2 O -1.3718(4) 0.2352(4) 0.5789(2)
O6A_2 O -0.6282(4) -1.2352(4) 1.4211(2)
O7A O -1.3535(4) -0.8578(4) 1.1565(3)
H11A H -1.455(5) -0.864(6) 1.136(4)
H12A H -1.372(7) -0.741(4) 1.125(4)
O8A O -0.7826(4) -0.7222(4) 0.8647(2)
O8A_2 O -0.7826(4) 0.2778(4) 0.8647(2)
O8A_3 O -1.7826(4) 0.2778(4) 0.8647(2)
O8_2 O -1.2174(4) -1.2778(4) 1.1353(2)
O8_3 O -0.2174(4) -1.2778(4) 1.1353(2)
O9A O -0.6298(4) -0.5789(4) 0.9226(2)
O9A_2 O -1.6298(4) 0.4211(4) 0.9226(2)
O9_2 O -0.3702(4) -1.4211(4) 1.0774(2)
O10A O -0.3651(4) -0.4662(4) 0.7029(3)
O10A_2 O -1.3651(4) 0.5338(4) 0.7029(3)
O10_2 O -0.6349(4) -1.5338(4) 1.2971(3)
O11A O -0.0574(4) -0.5479(4) 0.6524(3)
O11A_2 O -1.0574(4) 0.4521(4) 0.6524(3)
O11_2 O -0.9426(4) -1.4521(4) 1.3476(3)
Cd1A Cd -1.10576(4) -1.14635(4) 1.24341(2)
Cd1A_2 Cd -1.10576(4) -0.14635(4) 1.24341(2)
Cd1A_3 Cd -1.10576(4) 0.85365(4) 0.24341(2)
Cd1_2 Cd -0.89424(4) -0.85365(4) 0.75659(2)
Cd1A_4 Cd -0.10576(4) -0.14635(4) 0.24341(2)
Cd1_3 Cd 0.10576(4) -0.85365(4) 0.75659(2)
Cd2A Cd -0.51253(4) -1.31540(4) 1.23500(2)
Cd2_2 Cd -0.48747(4) 0.31540(4) 0.76500(2)
Cd2A_2 Cd -1.51253(4) -0.31540(4) 1.23500(2)
Cd2A_3 Cd -0.51253(4) 0.68460(4) 0.23500(2)
Cd2_3 Cd -0.48747(4) -0.68460(4) 0.76500(2)
Cd2A_4 Cd -0.51253(4) -0.31540(4) 0.23500(2)
loop_
_geom_bond_atom_site_label_1
_geom_bond_atom_site_label_2
_geom_bond_site_symmetry_1
_geom_bond_site_symmetry_2
C1 C2 1_555 1_555
C2 H1 1_555 1_555
H2 C2 1_555 1_555
C3 C2 1_555 1_555
H3 C3 1_555 1_555
C4 C3 1_555 1_555
C5 C6 1_555 1_555
C6 H4 1_555 1_555
C7 C6 1_555 1_555
H5 C7 1_555 1_555
H6 C7 1_555 1_555
C8 C7 1_555 1_555
O1 C1 1_555 1_555
O2 C1 1_555 1_555
O3 H7 1_555 1_555
H8 O3 1_555 1_555
O4 C5 1_555 1_555
O5 H9 1_555 1_555
H10 O5 1_555 1_555
O6 C5 1_555 1_555
O7 H11 1_555 1_555
H12 O7 1_555 1_555
O8 C4 1_555 1_555
O9 C4 1_555 1_555
O10 C8 1_555 1_555
O11 C8 1_555 1_555
Cd1 O1 1_555 1_555
Cd2 O1 1_555 1_555
C1A C2A 1_555 1_555
C2A H1A 1_555 1_555
H2A C2A 1_555 1_555
C3A C3 1_555 1_555
H3A C3A 1_555 1_555
C4A C3A 1_555 1_555
C5A C6A 1_555 1_555
C6A C6 1_555 1_555
H4A C6A 1_555 1_555
C7A C6A 1_555 1_555
H5A C7A 1_555 1_555
H6A C7A 1_555 1_555
C8A C7A 1_555 1_555
O1A C1A 1_555 1_555
O2A C1A 1_555 1_555
O3A H7A 1_555 1_555
H8A O3A 1_555 1_555
O4A C5A 1_555 1_555
O4_2 Cd2 1_555 1_555
O4A_2 Cd1A 1_555 1_555
O4A_3 Cd2A 1_555 1_555
O5A H9A 1_555 1_555
H10A O5A 1_555 1_555
O6A C5A 1_555 1_555
O6_2 Cd2 1_555 1_555
O6A_2 Cd2A 1_555 1_555
O7A H11A 1_555 1_555
H12A O7A 1_555 1_555
O8A C4A 1_555 1_555
O8A_2 Cd1 1_555 1_555
O8A_3 Cd2 1_555 1_555
O8_2 Cd1A 1_555 1_555
O8_3 Cd2A 1_555 1_555
O9A C4A 1_555 1_555
O9A_2 Cd2 1_555 1_555
O9_2 Cd2A 1_555 1_555
O10A C8A 1_555 1_555
O10A_2 Cd2 1_555 1_555
O10_2 Cd2A 1_555 1_555
O11A C8A 1_555 1_555
O11A_2 Cd1 1_555 1_555
O11_2 Cd1A 1_555 1_555
Cd1A O1A 1_555 1_555
Cd1A_2 O8 1_555 1_555
Cd1A_3 O11 1_555 1_555
Cd1_2 O8A 1_555 1_555
Cd1A_4 O4A 1_555 1_555
Cd1_3 O11A 1_555 1_555
Cd2A O1A 1_555 1_555
Cd2_2 O4 1_555 1_555
Cd2A_2 O8 1_555 1_555
Cd2A_3 O10 1_555 1_555
Cd2_3 O8A 1_555 1_555
Cd2A_4 O4A 1_555 1_555
O2 Cd2 1_555 1_555
O3 Cd2 1_555 1_555
O4 Cd1 1_555 1_555
O5 Cd1 1_555 1_555
O6 Cd2_2 1_555 1_555
O7 Cd1 1_555 1_555
O9 Cd2A_2 1_555 1_555
C2A C3A 1_555 1_555
O2A Cd2A 1_555 1_555
O3A Cd2A 1_555 1_555
O5A Cd1A 1_555 1_555
O6A Cd2A_4 1_555 1_555
O7A Cd1A 1_555 1_555
O8A_2 Cd2_2 1_555 1_555
O9A Cd2_3 1_555 1_555
O10A Cd2_3 1_555 1_555

#END
