
#######################################################################
#
#                 Cambridge Crystallographic Data Centre
#                                CCDC 
#
#######################################################################
#
# If this CIF has been generated from an entry in the Cambridge 
# Structural Database, then it will include bibliographic, chemical, 
# crystal, experimental, refinement or atomic coordinate data resulting 
# from the CCDC's data processing and validation procedures.
#
#######################################################################

data_AJIFAB
_symmetry_cell_setting           triclinic
_symmetry_space_group_name_H-M   'P -1'
_symmetry_Int_Tables_number      2
_space_group_name_Hall           '-P 1'
loop_
_symmetry_equiv_pos_site_id
_symmetry_equiv_pos_as_xyz
1 x,y,z
2 -x,-y,-z
_cell_length_a                   6.5325(13)
_cell_length_b                   7.6003(15)
_cell_length_c                   8.6051(17)
_cell_angle_alpha                104.28(3)
_cell_angle_beta                 106.90(3)
_cell_angle_gamma                97.05(3)
_cell_volume                     387.345
loop_
_atom_site_label
_atom_site_type_symbol
_atom_site_fract_x
_atom_site_fract_y
_atom_site_fract_z
Cd1 Cd -0.5000 -0.5000 0.0000
O1 O -0.2488(3) -0.3638(3) 0.2708(2)
N1 N -0.2979(4) -0.3110(3) -0.0987(3)
N2 N -0.2301(6) -0.0218(4) -0.1653(4)
N3 N 0.1012(4) -0.2891(3) 0.4447(3)
N4 N -0.3009(4) 0.2758(3) -0.0440(3)
C1 C -0.2690(4) -0.1705(3) -0.1214(3)
C2 C 0.3277(5) -0.3020(6) 0.4658(4)
H1 H 0.3381 -0.3673 0.3586
H2 H 0.3766 -0.3678 0.5470
H3 H 0.4177 -0.1795 0.5059
C3 C 0.0524(7) -0.1938(5) 0.5930(4)
H4 H -0.1016 -0.1961 0.5624
H5 H 0.1323 -0.0674 0.6357
H6 H 0.0943 -0.2546 0.6792
C4 C -0.0524(4) -0.3648(4) 0.2975(3)
H7 H -0.0115 -0.4235 0.2063
C5 C -0.2739(4) 0.1317(3) -0.0954(3)
Cd1_2 Cd -0.5000 0.5000 0.0000
O1A O -0.7512(3) -0.6362(3) -0.2708(2)
N1A N -0.7021(4) -0.6890(3) 0.0987(3)
N1A_2 N -0.7021(4) 0.3110(3) 0.0987(3)
N2A N -0.7699(6) 0.0218(4) 0.1653(4)
N3A N -1.1012(4) -0.7109(3) -0.4447(3)
N4A N -0.6991(4) -0.2758(3) 0.0440(3)
N4_2 N -0.3009(4) -0.7242(3) -0.0440(3)
C1A C -0.7310(4) 0.1705(3) 0.1214(3)
C2A C -1.3277(5) -0.6980(6) -0.4658(4)
H1A H -1.3381 -0.6327 -0.3586
H2A H -1.3766 -0.6322 -0.5470
H3A H -1.4177 -0.8205 -0.5059
C3A C -1.0524(7) -0.8062(5) -0.5930(4)
H4A H -0.8984 -0.8039 -0.5624
H5A H -1.1323 -0.9326 -0.6357
H6A H -1.0943 -0.7454 -0.6792
C4A C -0.9476(4) -0.6352(4) -0.2975(3)
H7A H -0.9885 -0.5765 -0.2063
C5A C -0.7261(4) -0.1317(3) 0.0954(3)
loop_
_geom_bond_atom_site_label_1
_geom_bond_atom_site_label_2
_geom_bond_site_symmetry_1
_geom_bond_site_symmetry_2
Cd1 O1 1_555 1_555
O1 C4 1_555 1_555
N1 Cd1 1_555 1_555
N2 C1 1_555 1_555
N3 C2 1_555 1_555
N4 C5 1_555 1_555
C1 N1 1_555 1_555
C2 H1 1_555 1_555
H2 C2 1_555 1_555
H3 C2 1_555 1_555
C3 N3 1_555 1_555
H4 C3 1_555 1_555
H5 C3 1_555 1_555
H6 C3 1_555 1_555
C4 N3 1_555 1_555
H7 C4 1_555 1_555
C5 N2 1_555 1_555
Cd1_2 N4 1_555 1_555
O1A Cd1 1_555 1_555
N1A Cd1 1_555 1_555
N1A_2 Cd1_2 1_555 1_555
N2A C1A 1_555 1_555
N3A C2A 1_555 1_555
N4A Cd1 1_555 1_555
N4_2 Cd1 1_555 1_555
C1A N1A_2 1_555 1_555
C2A H1A 1_555 1_555
H2A C2A 1_555 1_555
H3A C2A 1_555 1_555
C3A N3A 1_555 1_555
H4A C3A 1_555 1_555
H5A C3A 1_555 1_555
H6A C3A 1_555 1_555
C4A O1A 1_555 1_555
H7A C4A 1_555 1_555
C5A N2A 1_555 1_555
N3A C4A 1_555 1_555
N4A C5A 1_555 1_555

#END
