
#######################################################################
#
#                 Cambridge Crystallographic Data Centre
#                                CCDC 
#
#######################################################################
#
# If this CIF has been generated from an entry in the Cambridge 
# Structural Database, then it will include bibliographic, chemical, 
# crystal, experimental, refinement or atomic coordinate data resulting 
# from the CCDC's data processing and validation procedures.
#
#######################################################################

data_AJIFEF
_symmetry_cell_setting           triclinic
_symmetry_space_group_name_H-M   'P -1'
_symmetry_Int_Tables_number      2
_space_group_name_Hall           '-P 1'
loop_
_symmetry_equiv_pos_site_id
_symmetry_equiv_pos_as_xyz
1 x,y,z
2 -x,-y,-z
_cell_length_a                   8.5993(17)
_cell_length_b                   9.6356(19)
_cell_length_c                   12.689(3)
_cell_angle_alpha                102.46(3)
_cell_angle_beta                 95.28(3)
_cell_angle_gamma                106.69(3)
_cell_volume                     969.971
loop_
_atom_site_label
_atom_site_type_symbol
_atom_site_fract_x
_atom_site_fract_y
_atom_site_fract_z
Er1 Er 0.869905(13) 0.797688(12) -0.007667(8)
O1 O 0.7733(2) 0.9698(2) 0.10577(15)
O2 O 0.9134(2) 1.2049(2) 0.10636(14)
O3 O 0.5844(2) 1.0620(2) 0.24732(14)
O4 O 0.7484(3) 0.8777(2) 0.61490(15)
O5 O 0.8979(2) 1.0035(2) 0.90125(13)
O6 O 0.7683(3) 0.7795(2) 0.79481(15)
O7 O 1.0417(2) 0.6690(2) 0.07609(14)
O8 O 0.8399(2) 0.7140(2) 0.15645(15)
O9 O 0.9096(3) 0.5949(3) 0.32042(15)
O10 O 0.7747(2) 0.5361(2) -0.08718(17)
H1 H 0.8146 0.4726 -0.0746
H2 H 0.6899 0.4916 -0.1317
O11 O 0.5849(3) 0.7150(3) -0.03432(19)
H3 H 0.5209 0.7517 -0.0033
H4 H 0.5269 0.6420 -0.0823
C1 C 0.8034(3) 1.1075(3) 0.13378(19)
C2 C 0.6953(4) 1.1713(3) 0.2068(2)
H5 H 0.7656 1.2496 0.2684
H6 H 0.6324 1.2167 0.1655
C3 C 0.6421(3) 1.0209(3) 0.3382(2)
C4 C 0.5518(4) 0.8850(4) 0.3518(2)
H7 H 0.4639 0.8225 0.2982
C5 C 0.5904(4) 0.8402(4) 0.4447(2)
H8 H 0.5279 0.7483 0.4534
C6 C 0.7213(4) 0.9312(3) 0.5240(2)
C7 C 0.8153(4) 1.0642(4) 0.5093(3)
H9 H 0.9059 1.1246 0.5616
C8 C 0.7750(4) 1.1096(4) 0.4154(3)
H10 H 0.8390 1.2002 0.4056
C9 C 0.8428(4) 0.9852(3) 0.7110(2)
H11 H 0.8012 1.0699 0.7253
H12 H 0.9565 1.0214 0.7010
C10 C 0.8329(3) 0.9155(3) 0.8065(2)
C11 C 0.9563(3) 0.6601(3) 0.15137(19)
C12 C 1.0010(4) 0.5810(4) 0.2341(2)
H13 H 0.9788 0.4759 0.1988
H14 H 1.1177 0.6239 0.2631
C13 C 0.9586(3) 0.5444(3) 0.4075(2)
C14 C 0.8822(3) 0.5722(3) 0.4975(2)
H15 H 0.8028 0.6202 0.4956
C15 C 1.0760(3) 0.4714(3) 0.4092(2)
H16 H 1.1263 0.4517 0.3484
Er1A Er 1.130095(13) 1.202312(12) 0.007667(8)
Er1_2 Er 0.869905(13) 0.797688(12) 0.992333(8)
Er1A_2 Er 1.130095(13) 1.202312(12) 1.007667(8)
Er1A_3 Er 1.130095(13) 0.202312(12) 1.007667(8)
Er1A_4 Er 1.130095(13) 1.202312(12) -0.992333(8)
Er1_3 Er 0.869905(13) 0.797688(12) -1.007667(8)
O1A O 1.2267(2) 1.0302(2) -0.10577(15)
O2A O 1.0866(2) 0.7951(2) -0.10636(14)
O3A O 1.4156(2) 0.9380(2) -0.24732(14)
O4A O 1.2516(3) 1.1223(2) -0.61490(15)
O5A O 1.1021(2) 0.9965(2) -0.90125(13)
O5_2 O 0.8979(2) 1.0035(2) -0.09875(13)
O5A_2 O 1.1021(2) 0.9965(2) 0.09875(13)
O6A O 1.2317(3) 1.2205(2) -0.79481(15)
O6_2 O 0.7683(3) 0.7795(2) -0.20519(15)
O6A_2 O 1.2317(3) 1.2205(2) 0.20519(15)
O7A O 0.9583(2) 0.3310(2) 0.92391(14)
O7A_2 O 0.9583(2) 1.3310(2) -0.07609(14)
O8A O 1.1601(2) 0.2860(2) 0.84355(15)
O8A_2 O 1.1601(2) 1.2860(2) -0.15645(15)
O9A O 1.0904(3) 0.4051(3) 0.67958(15)
O10A O 1.2253(2) 1.4639(2) 0.08718(17)
H1A H 1.1854 1.5274 0.0746
H2A H 1.3101 1.5084 0.1317
O11A O 1.4151(3) 1.2850(3) 0.03432(19)
H3A H 1.4791 1.2483 0.0033
H4A H 1.4731 1.3580 0.0823
C1A C 1.1966(3) 0.8925(3) -0.13378(19)
C2A C 1.3047(4) 0.8287(3) -0.2068(2)
H5A H 1.2344 0.7504 -0.2684
H6A H 1.3676 0.7833 -0.1655
C3A C 1.3579(3) 0.9791(3) -0.3382(2)
C4A C 1.4482(4) 1.1150(4) -0.3518(2)
H7A H 1.5361 1.1775 -0.2982
C5A C 1.4096(4) 1.1598(4) -0.4447(2)
H8A H 1.4721 1.2517 -0.4534
C6A C 1.2787(4) 1.0688(3) -0.5240(2)
C7A C 1.1847(4) 0.9358(4) -0.5093(3)
H9A H 1.0941 0.8754 -0.5616
C8A C 1.2250(4) 0.8904(4) -0.4154(3)
H10A H 1.1610 0.7998 -0.4056
C9A C 1.1572(4) 1.0148(3) -0.7110(2)
H11A H 1.1988 0.9301 -0.7253
H12A H 1.0435 0.9786 -0.7010
C10A C 1.1671(3) 1.0845(3) -0.8065(2)
C11A C 1.0437(3) 0.3399(3) 0.84863(19)
C12A C 0.9990(4) 0.4190(4) 0.7659(2)
H13A H 1.0212 0.5241 0.8012
H14A H 0.8823 0.3761 0.7369
C13A C 1.0414(3) 0.4556(3) 0.5925(2)
C14A C 1.1178(3) 0.4278(3) 0.5025(2)
H15A H 1.1972 0.3798 0.5044
C15A C 0.9240(3) 0.5286(3) 0.5908(2)
H16A H 0.8737 0.5483 0.6516
O12 O 0.4607(3) 0.4588(3) -0.19590(18)
H17 H 0.3720 0.3998 -0.1934
H18 H 0.4699 0.4849 -0.2530
O13 O 0.3829(3) 0.8206(4) 0.0782(2)
H19 H 0.2831 0.8057 0.0727
H20 H 0.4297 0.9046 0.1180
O14 O 0.5142(4) 0.5730(4) 0.6226(2)
H21 H 0.5877 0.6523 0.6493
H22 H 0.4202 0.5660 0.5976
loop_
_geom_bond_atom_site_label_1
_geom_bond_atom_site_label_2
_geom_bond_site_symmetry_1
_geom_bond_site_symmetry_2
Er1 O1 1_555 1_555
O1 C1 1_555 1_555
O2 C1 1_555 1_555
O3 C2 1_555 1_555
O4 C6 1_555 1_555
O5 C10 1_555 1_555
O6 C10 1_555 1_555
O7 Er1 1_555 1_555
O8 Er1 1_555 1_555
O9 C12 1_555 1_555
O10 Er1 1_555 1_555
H1 O10 1_555 1_555
H2 O10 1_555 1_555
O11 Er1 1_555 1_555
H3 O11 1_555 1_555
H4 O11 1_555 1_555
C1 C2 1_555 1_555
C2 H5 1_555 1_555
H6 C2 1_555 1_555
C3 O3 1_555 1_555
C4 C3 1_555 1_555
H7 C4 1_555 1_555
C5 C4 1_555 1_555
H8 C5 1_555 1_555
C6 C5 1_555 1_555
C7 C6 1_555 1_555
H9 C7 1_555 1_555
C8 C3 1_555 1_555
H10 C8 1_555 1_555
C9 O4 1_555 1_555
H11 C9 1_555 1_555
H12 C9 1_555 1_555
C10 C9 1_555 1_555
C11 O7 1_555 1_555
C12 C11 1_555 1_555
H13 C12 1_555 1_555
H14 C12 1_555 1_555
C13 O9 1_555 1_555
C14 C13 1_555 1_555
H15 C14 1_555 1_555
C15 C13 1_555 1_555
H16 C15 1_555 1_555
O12 H17 1_555 1_555
H18 O12 1_555 1_555
O13 H19 1_555 1_555
H20 O13 1_555 1_555
O14 H21 1_555 1_555
H22 O14 1_555 1_555
Er1A O2 1_555 1_555
Er1_2 O5 1_555 1_555
Er1A_2 O5 1_555 1_555
Er1A_3 O7A 1_555 1_555
Er1A_4 O5A 1_555 1_555
Er1_3 O5A 1_555 1_555
O1A Er1A 1_555 1_555
O2A Er1 1_555 1_555
O3A C2A 1_555 1_555
O4A C6A 1_555 1_555
O5A C10A 1_555 1_555
O5_2 Er1 1_555 1_555
O5A_2 Er1 1_555 1_555
O6A Er1A_4 1_555 1_555
O6_2 Er1 1_555 1_555
O6A_2 Er1A 1_555 1_555
O7A C11A 1_555 1_555
O7A_2 Er1A 1_555 1_555
O8A Er1A_3 1_555 1_555
O8A_2 Er1A 1_555 1_555
O9A C12A 1_555 1_555
O10A Er1A 1_555 1_555
H1A O10A 1_555 1_555
H2A O10A 1_555 1_555
O11A Er1A 1_555 1_555
H3A O11A 1_555 1_555
H4A O11A 1_555 1_555
C1A O1A 1_555 1_555
C2A C1A 1_555 1_555
H5A C2A 1_555 1_555
H6A C2A 1_555 1_555
C3A O3A 1_555 1_555
C4A C3A 1_555 1_555
H7A C4A 1_555 1_555
C5A C4A 1_555 1_555
H8A C5A 1_555 1_555
C6A C5A 1_555 1_555
C7A C6A 1_555 1_555
H9A C7A 1_555 1_555
C8A C3A 1_555 1_555
H10A C8A 1_555 1_555
C9A O4A 1_555 1_555
H11A C9A 1_555 1_555
H12A C9A 1_555 1_555
C10A O6A 1_555 1_555
C11A O8A 1_555 1_555
C12A C11A 1_555 1_555
H13A C12A 1_555 1_555
H14A C12A 1_555 1_555
C13A O9A 1_555 1_555
C14A C15 1_555 1_555
H15A C14A 1_555 1_555
C15A C14 1_555 1_555
H16A C15A 1_555 1_555
O6 Er1_2 1_555 1_555
O8 C11 1_555 1_555
C7 C8 1_555 1_555
Er1A O5_2 1_555 1_555
Er1A O5A_2 1_555 1_555
O2A C1A 1_555 1_555
C7A C8A 1_555 1_555
C9A C10A 1_555 1_555
C13A C14A 1_555 1_555
C13A C15A 1_555 1_555

#END
