
#######################################################################
#
#                 Cambridge Crystallographic Data Centre
#                                CCDC 
#
#######################################################################
#
# If this CIF has been generated from an entry in the Cambridge 
# Structural Database, then it will include bibliographic, chemical, 
# crystal, experimental, refinement or atomic coordinate data resulting 
# from the CCDC's data processing and validation procedures.
#
#######################################################################

data_AJIGOR
_symmetry_cell_setting           triclinic
_symmetry_space_group_name_H-M   'P -1'
_symmetry_Int_Tables_number      2
_space_group_name_Hall           '-P 1'
loop_
_symmetry_equiv_pos_site_id
_symmetry_equiv_pos_as_xyz
1 x,y,z
2 -x,-y,-z
_cell_length_a                   8.8506(9)
_cell_length_b                   10.0354(10)
_cell_length_c                   12.0006(12)
_cell_angle_alpha                96.7280(10)
_cell_angle_beta                 95.735(2)
_cell_angle_gamma                103.5810(10)
_cell_volume                     1019.94
loop_
_atom_site_label
_atom_site_type_symbol
_atom_site_fract_x
_atom_site_fract_y
_atom_site_fract_z
Co1 Co 0.41263(3) 0.22997(3) 0.25338(3)
Co2 Co 0.71891(3) 0.54897(3) 0.25155(3)
O1 O 0.78007(19) 0.72750(18) 0.15060(15)
O2 O 0.94946(18) 0.60929(17) 0.20194(14)
O3 O 1.3144(2) 0.60056(17) -0.10757(14)
O4 O 1.42166(19) 0.80657(17) -0.15929(15)
O5 O 0.39218(19) 0.03082(17) 0.31060(14)
O6 O 0.21450(18) 0.14652(16) 0.34293(14)
O7 O 0.42891(19) -0.30308(18) 0.59548(14)
O8 O 0.20398(19) -0.42121(17) 0.64683(14)
N1 N 0.3698(2) 0.4213(2) 0.25025(17)
N2 N 0.4868(2) 0.5444(2) 0.24841(17)
N3 N 0.2580(2) 0.5938(2) 0.24761(18)
H1 H 0.1858 0.6409 0.2474
N4 N 0.4840(3) 0.7779(2) 0.2367(2)
H2 H 0.5856 0.8035 0.2344
H3 H 0.4274 0.8391 0.2342
N5 N 0.0934(2) 0.3675(2) 0.25218(18)
H4 H 0.0854 0.2784 0.2518
H5 H 0.0092 0.3998 0.2530
N6 N 1.2388(2) 1.1585(2) 0.09564(17)
H6 H 1.1507 1.1897 0.1060
H7 H 1.2816 1.1972 0.0366
N7 N -0.2239(2) -0.2845(2) 0.40311(17)
H8 H -0.2679 -0.2133 0.3873
H9 H -0.2668 -0.3201 0.4634
C1 C 0.4148(3) 0.6448(3) 0.2441(2)
C2 C 0.2363(3) 0.4556(2) 0.2515(2)
C3 C 1.0382(3) 0.7879(2) 0.09375(19)
C4 C 1.1273(3) 0.7217(2) 0.02710(19)
H10 H 1.1074 0.6235 0.0164
C5 C 1.2455(3) 0.8006(2) -0.0237(2)
C6 C 1.2800(3) 0.9449(2) -0.00304(19)
H11 H 1.3622 0.9984 -0.0363
C7 C 1.1942(3) 1.0109(2) 0.0663(2)
C8 C 1.0698(3) 0.9325(2) 0.11152(19)
H12 H 1.0064 0.9773 0.1544
C9 C 0.9141(3) 0.7044(2) 0.1510(2)
C10 C 1.3342(3) 0.7291(2) -0.1027(2)
C11 C 0.1846(3) -0.0756(2) 0.4076(2)
C12 C 0.2696(3) -0.1497(2) 0.4689(2)
H13 H 0.3810 -0.1243 0.4780
C13 C 0.1899(3) -0.2618(2) 0.5170(2)
C14 C 0.0267(3) -0.3043(2) 0.49693(19)
H14 H -0.0272 -0.3831 0.5266
C15 C -0.0577(3) -0.2315(2) 0.4334(2)
C16 C 0.0205(3) -0.1139(2) 0.3929(2)
H15 H -0.0371 -0.0596 0.3554
C17 C 0.2685(3) 0.0408(2) 0.35172(19)
C18 C 0.2825(3) -0.3345(2) 0.5913(2)
Co1_2 Co 1.41263(3) 1.22997(3) 0.25338(3)
Co1A Co 0.58737(3) -0.22997(3) 0.74662(3)
Co1A_2 Co 1.58737(3) 0.77003(3) -0.25338(3)
Co2_2 Co -0.28109(3) -0.45103(3) 0.25155(3)
Co2A Co 0.28109(3) -0.54897(3) 0.74845(3)
Co2A_2 Co 1.28109(3) 0.45103(3) -0.25155(3)
O3A O 0.6856(2) 0.39944(17) 0.10757(14)
O4A O 0.57834(19) 0.19343(17) 0.15929(15)
O7A O 0.57109(19) 0.30308(18) 0.40452(14)
O8A O 0.79602(19) 0.42121(17) 0.35317(14)
N6_2 N 0.2388(2) 0.1585(2) 0.09564(17)
N7_2 N 0.7761(2) 0.7155(2) 0.40311(17)
O9 O 0.7579(5) 0.0267(5) 0.2710(4)
H16 H 0.7574 0.0469 0.3415
H17 H 0.7075 0.0743 0.2362
loop_
_geom_bond_atom_site_label_1
_geom_bond_atom_site_label_2
_geom_bond_site_symmetry_1
_geom_bond_site_symmetry_2
Co1 O5 1_555 1_555
Co2 O1 1_555 1_555
O1 C9 1_555 1_555
O2 Co2 1_555 1_555
O3 C10 1_555 1_555
O4 C10 1_555 1_555
O5 C17 1_555 1_555
O6 Co1 1_555 1_555
O7 C18 1_555 1_555
O8 C18 1_555 1_555
N1 Co1 1_555 1_555
N2 Co2 1_555 1_555
N3 H1 1_555 1_555
N4 H2 1_555 1_555
H3 N4 1_555 1_555
N5 H4 1_555 1_555
H5 N5 1_555 1_555
N6 H6 1_555 1_555
H7 N6 1_555 1_555
N7 H8 1_555 1_555
H9 N7 1_555 1_555
C1 N2 1_555 1_555
C2 N1 1_555 1_555
C3 C4 1_555 1_555
C4 H10 1_555 1_555
C5 C4 1_555 1_555
C6 C5 1_555 1_555
H11 C6 1_555 1_555
C7 N6 1_555 1_555
C8 C3 1_555 1_555
H12 C8 1_555 1_555
C9 O2 1_555 1_555
C10 C5 1_555 1_555
C11 C12 1_555 1_555
C12 H13 1_555 1_555
C13 C12 1_555 1_555
C14 C13 1_555 1_555
H14 C14 1_555 1_555
C15 N7 1_555 1_555
C16 C11 1_555 1_555
H15 C16 1_555 1_555
C17 O6 1_555 1_555
C18 C13 1_555 1_555
O9 H16 1_555 1_555
H17 O9 1_555 1_555
Co1_2 N6 1_555 1_555
Co1A O7 1_555 1_555
Co1A_2 O4 1_555 1_555
Co2_2 N7 1_555 1_555
Co2A O8 1_555 1_555
Co2A_2 O3 1_555 1_555
O3A Co2 1_555 1_555
O4A Co1 1_555 1_555
O7A Co1 1_555 1_555
O8A Co2 1_555 1_555
N6_2 Co1 1_555 1_555
N7_2 Co2 1_555 1_555
N1 N2 1_555 1_555
N3 C1 1_555 1_555
N3 C2 1_555 1_555
N4 C1 1_555 1_555
N5 C2 1_555 1_555
C3 C9 1_555 1_555
C6 C7 1_555 1_555
C7 C8 1_555 1_555
C11 C17 1_555 1_555
C14 C15 1_555 1_555
C15 C16 1_555 1_555

#END
