
#######################################################################
#
#                 Cambridge Crystallographic Data Centre
#                                CCDC 
#
#######################################################################
#
# If this CIF has been generated from an entry in the Cambridge 
# Structural Database, then it will include bibliographic, chemical, 
# crystal, experimental, refinement or atomic coordinate data resulting 
# from the CCDC's data processing and validation procedures.
#
#######################################################################

data_AJIGUX
_symmetry_cell_setting           orthorhombic
_symmetry_space_group_name_H-M   'P n a 21'
_symmetry_Int_Tables_number      33
_space_group_name_Hall           'P 2c -2n'
loop_
_symmetry_equiv_pos_site_id
_symmetry_equiv_pos_as_xyz
1 x,y,z
2 -x,-y,1/2+z
3 1/2+x,1/2-y,z
4 1/2-x,1/2+y,1/2+z
_cell_length_a                   13.7366(5)
_cell_length_b                   12.6208(5)
_cell_length_c                   8.6122(3)
_cell_angle_alpha                90
_cell_angle_beta                 90
_cell_angle_gamma                90
_cell_volume                     1493.07
loop_
_atom_site_label
_atom_site_type_symbol
_atom_site_fract_x
_atom_site_fract_y
_atom_site_fract_z
Co1 Co 0.866342(16) 0.389693(18) -0.09326(4)
O1 O 0.76860(10) 0.49324(10) 0.02405(19)
O2 O 0.77184(10) 0.32656(11) 0.09820(18)
O3 O 0.42601(8) 0.70442(10) 0.3851(2)
O4 O 0.57922(10) 0.74859(11) 0.33574(19)
O5 O 0.74215(10) 0.36137(13) -0.23542(19)
H1 H 0.6914 0.3400 -0.1883
N1 N 0.98072(12) 0.43181(13) 0.0593(2)
N2 N 1.06862(13) 0.37669(13) 0.0714(2)
H2 H 1.0831 0.3180 0.0212
N3 N 1.08291(12) 0.51308(13) 0.2276(2)
N4 N 1.21685(13) 0.39305(13) 0.2087(3)
H3 H 1.2404 0.3347 0.1673
H4 H 1.2521 0.4296 0.2751
N5 N 0.92779(14) 0.59034(15) 0.1766(3)
H5 H 0.8719 0.5883 0.1268
H6 H 0.9403 0.6427 0.2410
C1 C 1.12698(14) 0.42646(16) 0.1703(3)
C2 C 0.99425(16) 0.51319(17) 0.1542(3)
C3 C 0.65073(14) 0.44083(16) 0.2102(3)
C4 C 0.62525(14) 0.54590(17) 0.2408(3)
H7 H 0.6668 0.6020 0.2089
C5 C 0.53907(14) 0.56810(16) 0.3179(3)
C6 C 0.47825(14) 0.48548(16) 0.3642(3)
H8 H 0.4181 0.5014 0.4135
C7 C 0.50372(15) 0.38055(16) 0.3398(3)
C8 C 0.59146(15) 0.35967(17) 0.2631(3)
H9 H 0.6108 0.2882 0.2470
C9 C 0.73556(14) 0.41785(17) 0.1084(3)
C10 C 0.51301(14) 0.68128(16) 0.3492(3)
C11 C 0.44009(14) 0.29013(16) 0.3914(3)
H10 H 0.3838 0.3180 0.4482
H11 H 0.4775 0.2429 0.4592
H12 H 0.4175 0.2506 0.3002
C12 C 0.73466(18) 0.3438(2) -0.3963(3)
H13 H 0.7962 0.3631 -0.4466
H14 H 0.6819 0.3873 -0.4387
H15 H 0.7207 0.2688 -0.4156
Co1A Co 1.133658(16) 0.610307(18) 0.40674(4)
Co1C Co 0.633658(16) 0.889693(18) 0.40674(4)
O4C O 0.92078(10) 0.24859(11) -0.16426(19)
N3A N 0.91709(12) 0.48692(13) -0.2724(2)
loop_
_geom_bond_atom_site_label_1
_geom_bond_atom_site_label_2
_geom_bond_site_symmetry_1
_geom_bond_site_symmetry_2
Co1 O1 1_555 1_555
O1 C9 1_555 1_555
O2 Co1 1_555 1_555
O3 C10 1_555 1_555
O4 C10 1_555 1_555
O5 Co1 1_555 1_555
H1 O5 1_555 1_555
N1 Co1 1_555 1_555
N2 N1 1_555 1_555
H2 N2 1_555 1_555
N3 C1 1_555 1_555
N4 H3 1_555 1_555
H4 N4 1_555 1_555
N5 H5 1_555 1_555
H6 N5 1_555 1_555
C1 N2 1_555 1_555
C2 N1 1_555 1_555
C3 C4 1_555 1_555
C4 H7 1_555 1_555
C5 C4 1_555 1_555
C6 C5 1_555 1_555
H8 C6 1_555 1_555
C7 C6 1_555 1_555
C8 C3 1_555 1_555
H9 C8 1_555 1_555
C9 O2 1_555 1_555
C10 C5 1_555 1_555
C11 C7 1_555 1_555
H10 C11 1_555 1_555
H11 C11 1_555 1_555
H12 C11 1_555 1_555
C12 O5 1_555 1_555
H13 C12 1_555 1_555
H14 C12 1_555 1_555
H15 C12 1_555 1_555
Co1A N3 1_555 1_555
Co1C O4 1_555 1_555
O4C Co1 1_555 1_555
N3A Co1 1_555 1_555
N3 C2 1_555 1_555
N4 C1 1_555 1_555
N5 C2 1_555 1_555
C3 C9 1_555 1_555
C7 C8 1_555 1_555

#END
