
#######################################################################
#
#                 Cambridge Crystallographic Data Centre
#                                CCDC 
#
#######################################################################
#
# If this CIF has been generated from an entry in the Cambridge 
# Structural Database, then it will include bibliographic, chemical, 
# crystal, experimental, refinement or atomic coordinate data resulting 
# from the CCDC's data processing and validation procedures.
#
#######################################################################

data_AJIHEI
_symmetry_cell_setting           tetragonal
_symmetry_space_group_name_H-M   'P 41 21 2'
_symmetry_Int_Tables_number      92
_space_group_name_Hall           'P 4abw 2nw'
loop_
_symmetry_equiv_pos_site_id
_symmetry_equiv_pos_as_xyz
1 x,y,z
2 -x,-y,1/2+z
3 1/2-y,1/2+x,1/4+z
4 1/2+y,1/2-x,3/4+z
5 1/2-x,1/2+y,1/4-z
6 1/2+x,1/2-y,3/4-z
7 y,x,-z
8 -y,-x,1/2-z
_cell_length_a                   9.7142(9)
_cell_length_b                   9.7142(9)
_cell_length_c                   28.543(4)
_cell_angle_alpha                90
_cell_angle_beta                 90
_cell_angle_gamma                90
_cell_volume                     2693.48
loop_
_atom_site_label
_atom_site_type_symbol
_atom_site_fract_x
_atom_site_fract_y
_atom_site_fract_z
Co1 Co -0.06366(3) 0.41912(3) 0.132824(11)
O1 O 0.0570(3) 0.3208(3) 0.02847(9)
O2 O 0.0424(2) 0.4917(2) 0.07996(7)
O3 O 0.3365(3) 0.3789(3) -0.10922(8)
O4 O 0.5000(3) 0.5268(3) -0.10935(8)
O5 O 0.5732(4) 0.8232(4) 0.02298(13)
O6 O 0.4209(2) 0.8385(2) 0.07877(8)
N1 N -0.1473(3) 0.1966(3) 0.06996(8)
N2 N -0.1829(3) 0.2622(3) 0.11160(9)
N3 N -0.3168(2) 0.0794(3) 0.10015(8)
N4 N -0.3511(3) 0.2152(3) 0.16812(9)
H1 H -0.3275 0.2876 0.1848
H2 H -0.4184 0.1615 0.1777
N5 N -0.2177(3) 0.0032(3) 0.02831(9)
H3 H -0.1545 0.0164 0.0067
H4 H -0.2743 -0.0673 0.0261
N6 N 0.3990(3) 0.4746(3) -0.09162(9)
C1 C -0.2850(3) 0.1870(3) 0.12844(10)
C2 C -0.2276(3) 0.0893(3) 0.06417(10)
C3 C 0.2035(3) 0.5105(3) 0.01915(11)
C4 C 0.2701(3) 0.6209(3) 0.03943(10)
H5 H 0.2397 0.6553 0.0688
C5 C 0.3805(3) 0.6814(3) 0.01732(11)
C6 C 0.4233(3) 0.6344(3) -0.02602(10)
H6 H 0.4994 0.6756 -0.0415
C7 C 0.3531(3) 0.5266(3) -0.04616(10)
C8 C 0.2449(3) 0.4621(3) -0.02439(11)
H7 H 0.1996 0.3863 -0.0387
C9 C 0.0923(3) 0.4340(3) 0.04413(11)
C10 C 0.4640(3) 0.7898(4) 0.04047(12)
Co1D Co -0.43634(3) -0.08088(3) 0.117176(11)
Co1D_2 Co 0.56366(3) 0.91912(3) 0.117176(11)
O6D O 0.0791(2) 0.3385(2) 0.17123(8)
N3D N -0.1832(2) 0.5794(3) 0.14985(8)
O7 O 0.1204(3) 0.9621(3) 0.04058(8)
H8 H 0.1418 0.9538 0.0693
H9 H 0.1917 0.9956 0.0275
loop_
_geom_bond_atom_site_label_1
_geom_bond_atom_site_label_2
_geom_bond_site_symmetry_1
_geom_bond_site_symmetry_2
Co1 O2 1_555 1_555
O1 C9 1_555 1_555
O2 C9 1_555 1_555
O3 N6 1_555 1_555
O4 N6 1_555 1_555
O5 C10 1_555 1_555
O6 C10 1_555 1_555
N1 N2 1_555 1_555
N2 Co1 1_555 1_555
N3 C1 1_555 1_555
N4 H1 1_555 1_555
H2 N4 1_555 1_555
N5 H3 1_555 1_555
H4 N5 1_555 1_555
N6 C7 1_555 1_555
C1 N2 1_555 1_555
C2 N1 1_555 1_555
C3 C4 1_555 1_555
C4 H5 1_555 1_555
C5 C4 1_555 1_555
C6 C5 1_555 1_555
H6 C6 1_555 1_555
C7 C6 1_555 1_555
C8 C3 1_555 1_555
H7 C8 1_555 1_555
C9 C3 1_555 1_555
C10 C5 1_555 1_555
O7 H8 1_555 1_555
H9 O7 1_555 1_555
Co1D N3 1_555 1_555
Co1D_2 O6 1_555 1_555
O6D Co1 1_555 1_555
N3D Co1 1_555 1_555
N3 C2 1_555 1_555
N4 C1 1_555 1_555
N5 C2 1_555 1_555
C7 C8 1_555 1_555

#END
