
#######################################################################
#
#                 Cambridge Crystallographic Data Centre
#                                CCDC 
#
#######################################################################
#
# If this CIF has been generated from an entry in the Cambridge 
# Structural Database, then it will include bibliographic, chemical, 
# crystal, experimental, refinement or atomic coordinate data resulting 
# from the CCDC's data processing and validation procedures.
#
#######################################################################

data_AJIHUX
_symmetry_cell_setting           triclinic
_symmetry_space_group_name_H-M   'P -1'
_symmetry_Int_Tables_number      2
_space_group_name_Hall           '-P 1'
loop_
_symmetry_equiv_pos_site_id
_symmetry_equiv_pos_as_xyz
1 x,y,z
2 -x,-y,-z
_cell_length_a                   6.9090(10)
_cell_length_b                   7.0930(10)
_cell_length_c                   13.037(2)
_cell_angle_alpha                80.860(5)
_cell_angle_beta                 83.974(5)
_cell_angle_gamma                71.795(4)
_cell_volume                     598.155
loop_
_atom_site_label
_atom_site_type_symbol
_atom_site_fract_x
_atom_site_fract_y
_atom_site_fract_z
Sr1 Sr 0.25457(8) 0.25734(8) 0.46107(4)
O1 O 0.4011(8) 0.3453(8) 0.6171(5)
O2 O 0.1154(7) 0.5758(7) 0.5744(4)
O3 O 0.3642(7) 0.8869(7) 0.5721(4)
O4 O 0.0729(8) 1.0928(8) 0.6225(5)
O5 O 0.2542(8) 0.5682(8) 0.3316(4)
H1 H 0.3596 0.6002 0.3370
H2 H 0.1502 0.6631 0.3443
O6 O 0.2942(10) 0.0310(10) 0.3189(6)
H3 H 0.3087 0.0953 0.2602
H4 H 0.1896 -0.0064 0.3213
N1 N 0.2543(11) 0.4413(11) 1.0195(5)
N2 N 0.1892(12) 0.7679(11) 1.0241(5)
H7 H 0.1640 0.8830 1.0480
C1 C 0.2549(10) 0.4986(9) 0.6338(5)
C2 C 0.2500(9) 0.5836(9) 0.7336(5)
C3 C 0.2665(11) 0.4524(10) 0.8249(6)
H8 H 0.2916 0.3160 0.8239
C4 C 0.2448(11) 0.5298(11) 0.9184(6)
C5 C 0.2019(11) 0.7366(11) 0.9214(6)
C6 C 0.1836(11) 0.8687(10) 0.8295(6)
H9 H 0.1550 1.0055 0.8308
C7 C 0.2086(9) 0.7926(9) 0.7361(5)
C8 C 0.2165(9) 0.9307(9) 0.6363(5)
C9 C 0.2225(14) 0.5909(14) 1.0781(6)
H10 H 0.2243 0.5692 1.1503
Sr1A Sr -0.25457(8) 0.74266(8) 0.53893(4)
Sr1A_2 Sr 0.74543(8) 0.74266(8) 0.53893(4)
Sr1_2 Sr 0.25457(8) 1.25734(8) 0.46107(4)
O2A O -0.1154(7) 0.4242(7) 0.4256(4)
O3A O 0.6358(7) 0.1131(7) 0.4279(4)
O3_2 O 0.3642(7) -0.1131(7) 0.5721(4)
O4_2 O 0.0729(8) 0.0928(8) 0.6225(5)
O7 O 0.3469(12) 0.0350(11) 1.0913(6)
H5 H 0.3165 0.1485 1.0555
H6 H 0.4687 -0.0248 1.0740
loop_
_geom_bond_atom_site_label_1
_geom_bond_atom_site_label_2
_geom_bond_site_symmetry_1
_geom_bond_site_symmetry_2
Sr1 O1 1_555 1_555
O1 C1 1_555 1_555
O2 Sr1 1_555 1_555
O3 C8 1_555 1_555
O4 C8 1_555 1_555
O5 Sr1 1_555 1_555
H1 O5 1_555 1_555
H2 O5 1_555 1_555
O6 Sr1 1_555 1_555
H3 O6 1_555 1_555
H4 O6 1_555 1_555
O7 H5 1_555 1_555
H6 O7 1_555 1_555
N1 C4 1_555 1_555
N2 H7 1_555 1_555
C1 O2 1_555 1_555
C2 C1 1_555 1_555
C3 C2 1_555 1_555
H8 C3 1_555 1_555
C4 C3 1_555 1_555
C5 N2 1_555 1_555
C6 C5 1_555 1_555
H9 C6 1_555 1_555
C7 C2 1_555 1_555
C8 C7 1_555 1_555
C9 N1 1_555 1_555
H10 C9 1_555 1_555
Sr1A O2 1_555 1_555
Sr1A_2 O3 1_555 1_555
Sr1_2 O3 1_555 1_555
O2A Sr1 1_555 1_555
O3A Sr1 1_555 1_555
O3_2 Sr1 1_555 1_555
O4_2 Sr1 1_555 1_555
O4 Sr1_2 1_555 1_555
N2 C9 1_555 1_555
C4 C5 1_555 1_555
C6 C7 1_555 1_555
Sr1A O2A 1_555 1_555

#END
