
#######################################################################
#
#                 Cambridge Crystallographic Data Centre
#                                CCDC 
#
#######################################################################
#
# If this CIF has been generated from an entry in the Cambridge 
# Structural Database, then it will include bibliographic, chemical, 
# crystal, experimental, refinement or atomic coordinate data resulting 
# from the CCDC's data processing and validation procedures.
#
#######################################################################

data_AJIJEI
_symmetry_cell_setting           monoclinic
_symmetry_space_group_name_H-M   'P 21/n'
_symmetry_Int_Tables_number      14
_space_group_name_Hall           '-P 2yn'
loop_
_symmetry_equiv_pos_site_id
_symmetry_equiv_pos_as_xyz
1 x,y,z
2 1/2+x,1/2-y,1/2+z
3 -x,-y,-z
4 1/2-x,1/2+y,1/2-z
_cell_length_a                   10.2490(2)
_cell_length_b                   7.2706(2)
_cell_length_c                   12.7983(3)
_cell_angle_alpha                90
_cell_angle_beta                 90.7480(10)
_cell_angle_gamma                90
_cell_volume                     953.602
loop_
_atom_site_label
_atom_site_type_symbol
_atom_site_fract_x
_atom_site_fract_y
_atom_site_fract_z
Cd1 Cd 0.44010(3) 0.15434(5) 0.60881(3)
O1 O 0.2838(3) 0.2360(6) 0.4954(3)
O2 O 0.1835(4) 0.1514(5) 0.6396(3)
O3 O -0.3208(4) 0.1797(6) 0.6323(3)
O4 O -0.4085(3) 0.1659(5) 0.4747(3)
N1 N -0.0649(4) 0.5077(5) 0.2593(3)
H1 H 0.004(6) 0.577(8) 0.259(4)
H2 H -0.133(7) 0.572(10) 0.248(5)
C1 C 0.1804(4) 0.2097(7) 0.5468(4)
C2 C 0.0526(4) 0.2532(6) 0.4935(4)
C3 C -0.0650(4) 0.2005(6) 0.5384(4)
H3 H -0.0650 0.1373 0.6015
C4 C -0.1822(4) 0.2432(6) 0.4881(4)
C5 C -0.3105(5) 0.1920(6) 0.5350(4)
C6 C -0.1818(4) 0.3409(6) 0.3945(4)
H4 H -0.2602 0.3657 0.3598
C7 C -0.0653(4) 0.4011(6) 0.3528(4)
C8 C 0.0517(4) 0.3538(6) 0.4010(4)
H5 H 0.1301 0.3893 0.3713
O5 O 0.4504(4) 0.4363(6) 0.6987(4)
H6 H 0.514(6) 0.510(9) 0.688(6)
H7 H 0.410(8) 0.469(13) 0.753(5)
O3_2 O 0.6792(4) 0.1797(6) 0.6323(3)
O4_2 O 0.5915(3) 0.1659(5) 0.4747(3)
O4B O 0.4085(3) -0.1659(5) 0.5253(3)
N1A N 0.4351(4) -0.0077(5) 0.7593(3)
Cd1_2 Cd -0.55990(3) 0.15434(5) 0.60881(3)
Cd1B Cd -0.44010(3) -0.15434(5) 0.39119(3)
Cd1A Cd -0.05990(3) 0.34566(5) 0.10881(3)
H1A H 0.504(6) -0.077(8) 0.759(4)
H2A H 0.367(7) -0.072(10) 0.748(5)
O6 O -0.1345(4) 0.2151(7) 0.7916(3)
H8 H -0.198(4) 0.201(14) 0.749(4)
H9 H -0.163(5) 0.247(9) 0.851(2)
loop_
_geom_bond_atom_site_label_1
_geom_bond_atom_site_label_2
_geom_bond_site_symmetry_1
_geom_bond_site_symmetry_2
Cd1 O1 1_555 1_555
O1 C1 1_555 1_555
O2 Cd1 1_555 1_555
O3 C5 1_555 1_555
O4 C5 1_555 1_555
N1 H1 1_555 1_555
H2 N1 1_555 1_555
C1 O2 1_555 1_555
C2 C1 1_555 1_555
C3 C2 1_555 1_555
H3 C3 1_555 1_555
C4 C3 1_555 1_555
C5 C4 1_555 1_555
C6 C4 1_555 1_555
H4 C6 1_555 1_555
C7 N1 1_555 1_555
C8 C2 1_555 1_555
H5 C8 1_555 1_555
O5 Cd1 1_555 1_555
H6 O5 1_555 1_555
H7 O5 1_555 1_555
O6 H8 1_555 1_555
H9 O6 1_555 1_555
O3_2 Cd1 1_555 1_555
O4_2 Cd1 1_555 1_555
O4B Cd1 1_555 1_555
N1A Cd1 1_555 1_555
Cd1_2 O3 1_555 1_555
Cd1B O4 1_555 1_555
Cd1A N1 1_555 1_555
H1A N1A 1_555 1_555
H2A N1A 1_555 1_555
O4 Cd1_2 1_555 1_555
C6 C7 1_555 1_555
C7 C8 1_555 1_555

#END
