
#######################################################################
#
#                 Cambridge Crystallographic Data Centre
#                                CCDC 
#
#######################################################################
#
# If this CIF has been generated from an entry in the Cambridge 
# Structural Database, then it will include bibliographic, chemical, 
# crystal, experimental, refinement or atomic coordinate data resulting 
# from the CCDC's data processing and validation procedures.
#
#######################################################################

data_AJIJIN
_symmetry_cell_setting           monoclinic
_symmetry_space_group_name_H-M   'P 21/c'
_symmetry_Int_Tables_number      14
_space_group_name_Hall           '-P 2ybc'
loop_
_symmetry_equiv_pos_site_id
_symmetry_equiv_pos_as_xyz
1 x,y,z
2 -x,1/2+y,1/2-z
3 -x,-y,-z
4 x,1/2-y,1/2+z
_cell_length_a                   7.8598(6)
_cell_length_b                   12.8199(10)
_cell_length_c                   9.1080(7)
_cell_angle_alpha                90
_cell_angle_beta                 96.7530(10)
_cell_angle_gamma                90
_cell_volume                     911.372
loop_
_atom_site_label
_atom_site_type_symbol
_atom_site_fract_x
_atom_site_fract_y
_atom_site_fract_z
Ni1 Ni 1.0000 1.0000 0.0000
C1 C 0.9985(2) 0.59861(12) 0.1821(2)
C2 C 0.9988(3) 0.75355(14) 0.0636(2)
N1 N 0.9923(2) 0.84211(11) 0.05067(19)
N2 N 1.0097(3) 0.65203(13) 0.0627(2)
N3 N 0.9881(2) 0.54506(12) 0.28000(17)
O2 O 1.26183(19) 0.99136(10) 0.01412(19)
H6 H 1.330(2) 1.0346(15) 0.057(2)
H7 H 1.313(2) 0.9513(14) -0.039(2)
Ni1A Ni 1.0000 0.5000 0.5000
Ni1A_2 Ni 1.0000 1.5000 -0.5000
C1B C 1.0015(2) 1.40139(12) -0.1821(2)
C2B C 1.0012(3) 1.24645(14) -0.0636(2)
N1B N 1.0077(2) 1.15789(11) -0.05067(19)
N2B N 0.9903(3) 1.34797(13) -0.0627(2)
N3B N 1.0119(2) 1.45494(12) -0.28000(17)
N3A N 1.0119(2) 1.04506(12) 0.22000(17)
N3C N 0.9881(2) 0.95494(12) -0.22000(17)
O2B O 0.73817(19) 1.00864(10) -0.01412(19)
H6B H 0.670(2) 0.9654(15) -0.057(2)
H7B H 0.687(2) 1.0487(14) 0.039(2)
C3 C 0.6251(3) 0.38083(17) 0.1568(3)
H1 H 0.7156 0.4248 0.1417
C4 C 0.6426(3) 0.27675(16) 0.1384(3)
H2 H 0.7434 0.2503 0.1088
C5 C 0.5095(2) 0.20841(13) 0.1638(2)
C6 C 0.3615(3) 0.25592(16) 0.2048(3)
H3 H 0.2686 0.2145 0.2216
C7 C 0.3507(3) 0.36025(17) 0.2205(3)
H4 H 0.2513 0.3896 0.2486
N4 N 0.4816(3) 0.42170(13) 0.1960(2)
O1 O 0.52314(18) 0.10983(10) 0.15018(18)
H5 H 0.473(4) 0.4871(14) 0.214(4)
loop_
_geom_bond_atom_site_label_1
_geom_bond_atom_site_label_2
_geom_bond_site_symmetry_1
_geom_bond_site_symmetry_2
Ni1 N1 1_555 1_555
C1 N2 1_555 1_555
C2 N1 1_555 1_555
C3 H1 1_555 1_555
C4 C3 1_555 1_555
H2 C4 1_555 1_555
C5 C4 1_555 1_555
C6 C5 1_555 1_555
H3 C6 1_555 1_555
C7 C6 1_555 1_555
H4 C7 1_555 1_555
N2 C2 1_555 1_555
N3 C1 1_555 1_555
N4 C3 1_555 1_555
O1 C5 1_555 1_555
O2 Ni1 1_555 1_555
H5 N4 1_555 1_555
H6 O2 1_555 1_555
H7 O2 1_555 1_555
Ni1A N3 1_555 1_555
Ni1A_2 N3B 1_555 1_555
C1B N2B 1_555 1_555
C2B N1B 1_555 1_555
N1B Ni1 1_555 1_555
N2B C2B 1_555 1_555
N3B C1B 1_555 1_555
N3A Ni1 1_555 1_555
N3C Ni1 1_555 1_555
O2B Ni1 1_555 1_555
H6B O2B 1_555 1_555
H7B O2B 1_555 1_555
C7 N4 1_555 1_555

#END
