
#######################################################################
#
#                 Cambridge Crystallographic Data Centre
#                                CCDC 
#
#######################################################################
#
# If this CIF has been generated from an entry in the Cambridge 
# Structural Database, then it will include bibliographic, chemical, 
# crystal, experimental, refinement or atomic coordinate data resulting 
# from the CCDC's data processing and validation procedures.
#
#######################################################################

data_AJIKIO
_symmetry_cell_setting           monoclinic
_symmetry_space_group_name_H-M   'C 2/c'
_symmetry_Int_Tables_number      15
_space_group_name_Hall           '-C 2yn'
loop_
_symmetry_equiv_pos_site_id
_symmetry_equiv_pos_as_xyz
1 x,y,z
2 -x,y,1/2-z
3 1/2+x,1/2+y,z
4 1/2-x,1/2+y,1/2-z
5 -x,-y,-z
6 x,-y,1/2+z
7 1/2-x,1/2-y,-z
8 1/2+x,1/2-y,1/2+z
_cell_length_a                   22.4085(18)
_cell_length_b                   9.1564(7)
_cell_length_c                   13.0907(10)
_cell_angle_alpha                90
_cell_angle_beta                 121.006(4)
_cell_angle_gamma                90
_cell_volume                     2302.18
loop_
_atom_site_label
_atom_site_type_symbol
_atom_site_fract_x
_atom_site_fract_y
_atom_site_fract_z
Co1 Co 0.199951(12) 0.14498(3) 0.12124(2)
O1 O -0.19686(7) 0.44398(15) -0.25564(13)
O2 O -0.20916(7) 0.22564(15) -0.33254(12)
O3 O -0.10064(8) -0.07292(17) -0.23544(16)
O4 O 0.20211(8) 0.25089(16) 0.26967(13)
H1 H 0.1974 0.3419 0.2690
H2 H 0.1706 0.2071 0.2742
O5 O -0.14121(7) 0.02445(15) -0.12688(12)
O6 O 0.20838(8) 0.03724(17) -0.01154(13)
H3 H 0.2019 0.0885 -0.0696
H4 H 0.1863 -0.0415 -0.0365
N1 N 0.07455(8) 0.50513(18) -0.06630(15)
H5 H 0.0716 0.5976 -0.0794
N2 N 0.12237(8) 0.28672(18) 0.00087(15)
C1 C -0.09320(9) 0.3057(2) -0.19386(16)
C2 C -0.06298(9) 0.1649(2) -0.15733(16)
C3 C 0.00868(10) 0.1468(2) -0.09321(18)
H6 H 0.0285 0.0544 -0.0700
C4 C 0.05016(9) 0.2710(2) -0.06466(17)
C5 C 0.01982(10) 0.4091(2) -0.10514(17)
C6 C -0.05185(9) 0.4293(2) -0.16866(17)
H7 H -0.0714 0.5216 -0.1933
C7 C -0.17032(9) 0.3262(2) -0.26428(16)
C8 C -0.10569(9) 0.0287(2) -0.17727(16)
C9 C 0.13324(10) 0.4278(2) -0.00439(18)
H8 H 0.1774 0.4691 0.0315
Co1D Co -0.199951(12) -0.14498(3) -0.12124(2)
Co1G Co -0.300049(12) 0.35502(3) -0.37876(2)
Co1C Co 0.300049(12) -0.35502(3) 0.37876(2)
O1D O 0.19686(7) -0.44398(15) 0.25564(13)
O1G O 0.30314(7) 0.05602(15) 0.24436(13)
O1C O -0.30314(7) -0.05602(15) -0.24436(13)
O2D O 0.20916(7) -0.22564(15) 0.33254(12)
O2G O 0.29084(7) 0.27436(15) 0.16746(12)
O2C O -0.29084(7) -0.27436(15) -0.16746(12)
O3D O 0.10064(8) 0.07292(17) 0.23544(16)
O4D O -0.20211(8) -0.25089(16) -0.26967(13)
H1D H -0.1974 -0.3419 -0.2690
H2D H -0.1706 -0.2071 -0.2742
O5D O 0.14121(7) -0.02445(15) 0.12688(12)
O6D O -0.20838(8) -0.03724(17) 0.01154(13)
H3D H -0.2019 -0.0885 0.0696
H4D H -0.1863 0.0415 0.0365
N1D N -0.07455(8) -0.50513(18) 0.06630(15)
H5D H -0.0716 -0.5976 0.0794
N2D N -0.12237(8) -0.28672(18) -0.00087(15)
C1D C 0.09320(9) -0.3057(2) 0.19386(16)
C2D C 0.06298(9) -0.1649(2) 0.15733(16)
C3D C -0.00868(10) -0.1468(2) 0.09321(18)
H6D H -0.0285 -0.0544 0.0700
C4D C -0.05016(9) -0.2710(2) 0.06466(17)
C5D C -0.01982(10) -0.4091(2) 0.10514(17)
C6D C 0.05185(9) -0.4293(2) 0.16866(17)
H7D H 0.0714 -0.5216 0.1933
C7D C 0.17032(9) -0.3262(2) 0.26428(16)
C8D C 0.10569(9) -0.0287(2) 0.17727(16)
C9D C -0.13324(10) -0.4278(2) 0.00439(18)
H8D H -0.1774 -0.4691 -0.0315
O7 O 0.0000 0.24202(17) 0.2500
H9 H -0.0300 0.1917 0.2543
H9A H 0.0300 0.1917 0.2457
O8 O 0.1643 0.75912(17) 0.0016
H10 H 0.1492 0.8072 0.0382
H11 H 0.2053 0.7403 0.0558
loop_
_geom_bond_atom_site_label_1
_geom_bond_atom_site_label_2
_geom_bond_site_symmetry_1
_geom_bond_site_symmetry_2
Co1 O4 1_555 1_555
O1 C7 1_555 1_555
O2 C7 1_555 1_555
O3 C8 1_555 1_555
O4 H1 1_555 1_555
H2 O4 1_555 1_555
O5 C8 1_555 1_555
O6 Co1 1_555 1_555
H3 O6 1_555 1_555
H4 O6 1_555 1_555
N1 H5 1_555 1_555
N2 Co1 1_555 1_555
C1 C2 1_555 1_555
C2 C3 1_555 1_555
C3 H6 1_555 1_555
C4 N2 1_555 1_555
C5 N1 1_555 1_555
C6 C1 1_555 1_555
H7 C6 1_555 1_555
C7 C1 1_555 1_555
C8 C2 1_555 1_555
C9 N1 1_555 1_555
H8 C9 1_555 1_555
O7 H9 1_555 1_555
O8 H10 1_555 1_555
H11 O8 1_555 1_555
Co1D O5 1_555 1_555
Co1G O1 1_555 1_555
Co1C O1D 1_555 1_555
O1D C7D 1_555 1_555
O1G Co1 1_555 1_555
O1C Co1D 1_555 1_555
O2D Co1C 1_555 1_555
O2G Co1 1_555 1_555
O2C Co1D 1_555 1_555
O3D C8D 1_555 1_555
O4D Co1D 1_555 1_555
H1D O4D 1_555 1_555
H2D O4D 1_555 1_555
O5D Co1 1_555 1_555
O6D Co1D 1_555 1_555
H3D O6D 1_555 1_555
H4D O6D 1_555 1_555
N1D H5D 1_555 1_555
N2D Co1D 1_555 1_555
C1D C2D 1_555 1_555
C2D C3D 1_555 1_555
C3D H6D 1_555 1_555
C4D N2D 1_555 1_555
C5D N1D 1_555 1_555
C6D C1D 1_555 1_555
H7D C6D 1_555 1_555
C7D O2D 1_555 1_555
C8D O5D 1_555 1_555
C9D N1D 1_555 1_555
H8D C9D 1_555 1_555
H9A O7 1_555 1_555
O2 Co1G 1_555 1_555
N2 C9 1_555 1_555
C3 C4 1_555 1_555
C4 C5 1_555 1_555
C5 C6 1_555 1_555
N2D C9D 1_555 1_555
C1D C7D 1_555 1_555
C2D C8D 1_555 1_555
C3D C4D 1_555 1_555
C4D C5D 1_555 1_555
C5D C6D 1_555 1_555

#END
