
#######################################################################
#
#                 Cambridge Crystallographic Data Centre
#                                CCDC 
#
#######################################################################
#
# If this CIF has been generated from an entry in the Cambridge 
# Structural Database, then it will include bibliographic, chemical, 
# crystal, experimental, refinement or atomic coordinate data resulting 
# from the CCDC's data processing and validation procedures.
#
#######################################################################

data_AJILIP
_symmetry_cell_setting           monoclinic
_symmetry_space_group_name_H-M   'P 21/c'
_symmetry_Int_Tables_number      14
_space_group_name_Hall           '-P 2ybc'
loop_
_symmetry_equiv_pos_site_id
_symmetry_equiv_pos_as_xyz
1 x,y,z
2 -x,1/2+y,1/2-z
3 -x,-y,-z
4 x,1/2-y,1/2+z
_cell_length_a                   11.868(3)
_cell_length_b                   7.5745(14)
_cell_length_c                   11.420(3)
_cell_angle_alpha                90
_cell_angle_beta                 110.724(4)
_cell_angle_gamma                90
_cell_volume                     960.167
loop_
_atom_site_label
_atom_site_type_symbol
_atom_site_fract_x
_atom_site_fract_y
_atom_site_fract_z
Ni1 Ni 0.65136(3) 0.59664(5) 0.21049(4)
S1 S 0.37812(7) 0.51034(10) 0.20733(7)
O1 O 0.4632(2) 0.5757(3) 0.1473(2)
O2 O 0.3600(2) 0.3178(3) 0.1818(2)
O3 O 0.2651(2) 0.6067(3) 0.1535(2)
O4 O 0.4322(2) 0.5392(3) 0.3441(2)
O5 O 0.6504(2) 0.3741(3) 0.1062(2)
H1 H 0.626(3) 0.283(3) 0.128(3)
H2 H 0.619(4) 0.381(6) 0.0300(11)
O6 O 0.6708(2) 0.4525(3) 0.3691(2)
H3 H 0.687(4) 0.3472(19) 0.367(4)
H4 H 0.611(2) 0.435(5) 0.387(4)
O7 O 0.6283(2) 0.7484(3) 0.0563(2)
H5 H 0.632(4) 0.724(5) -0.0120(19)
H6 H 0.609(4) 0.850(2) 0.064(4)
N1 N 0.8352(3) 0.6199(4) 0.2656(3)
C1 C 0.9028(3) 0.6672(5) 0.3822(3)
H7 H 0.8637 0.6950 0.4394
C2 C 1.0269(3) 0.6774(6) 0.4232(4)
H8 H 1.0718 0.7112 0.5069
C3 C 1.0846(3) 0.6379(6) 0.3407(4)
H9 H 1.1699 0.6441 0.3664
C4 C 1.0165(4) 0.5894(5) 0.2207(5)
H10 H 1.0539 0.5612 0.1620
C5 C 0.8929(3) 0.5822(5) 0.1867(4)
H11 H 0.8464 0.5490 0.1034
Ni1A Ni 0.34864(3) 0.09664(5) 0.28951(4)
O2A O 0.6400(2) 0.8178(3) 0.3182(2)
loop_
_geom_bond_atom_site_label_1
_geom_bond_atom_site_label_2
_geom_bond_site_symmetry_1
_geom_bond_site_symmetry_2
Ni1 O1 1_555 1_555
S1 O1 1_555 1_555
O2 S1 1_555 1_555
O3 S1 1_555 1_555
O4 S1 1_555 1_555
O5 Ni1 1_555 1_555
H1 O5 1_555 1_555
H2 O5 1_555 1_555
O6 Ni1 1_555 1_555
H3 O6 1_555 1_555
H4 O6 1_555 1_555
O7 Ni1 1_555 1_555
H5 O7 1_555 1_555
H6 O7 1_555 1_555
N1 Ni1 1_555 1_555
C1 N1 1_555 1_555
H7 C1 1_555 1_555
C2 C1 1_555 1_555
H8 C2 1_555 1_555
C3 C2 1_555 1_555
H9 C3 1_555 1_555
C4 C3 1_555 1_555
H10 C4 1_555 1_555
C5 N1 1_555 1_555
H11 C5 1_555 1_555
Ni1A O2 1_555 1_555
O2A Ni1 1_555 1_555
C4 C5 1_555 1_555

#END
