
#######################################################################
#
#                 Cambridge Crystallographic Data Centre
#                                CCDC 
#
#######################################################################
#
# If this CIF has been generated from an entry in the Cambridge 
# Structural Database, then it will include bibliographic, chemical, 
# crystal, experimental, refinement or atomic coordinate data resulting 
# from the CCDC's data processing and validation procedures.
#
#######################################################################

data_AJIPOZ
_symmetry_cell_setting           orthorhombic
_symmetry_space_group_name_H-M   'P b c a'
_symmetry_Int_Tables_number      61
_space_group_name_Hall           '-P 2ac 2ab'
loop_
_symmetry_equiv_pos_site_id
_symmetry_equiv_pos_as_xyz
1 x,y,z
2 1/2-x,-y,1/2+z
3 -x,1/2+y,1/2-z
4 1/2+x,1/2-y,-z
5 -x,-y,-z
6 1/2+x,y,1/2-z
7 x,1/2-y,1/2+z
8 1/2-x,1/2+y,z
_cell_length_a                   20.955(4)
_cell_length_b                   11.282(2)
_cell_length_c                   24.166(5)
_cell_angle_alpha                90
_cell_angle_beta                 90
_cell_angle_gamma                90
_cell_volume                     5713.19
loop_
_atom_site_label
_atom_site_type_symbol
_atom_site_fract_x
_atom_site_fract_y
_atom_site_fract_z
Ag1 Ag 0.52093(3) 0.36852(5) 0.79944(2)
Ag2 Ag 0.64909(3) -0.13085(5) 0.78235(2)
Ag3 Ag 0.67515(3) 0.37154(5) 0.87947(2)
C1 C 0.6615(3) -0.1248(6) 0.6489(3)
C2 C 0.6903(3) -0.2662(6) 0.5877(3)
C3 C 0.7008(3) -0.3450(6) 0.6298(3)
H1 H 0.7150 -0.4234 0.6225
C4 C 0.6900(3) -0.3060(6) 0.6839(3)
C5 C 0.6979(3) -0.3853(6) 0.7322(3)
H2 H 0.7261 -0.3476 0.7594
H3 H 0.7167 -0.4605 0.7201
H4 H 0.6562 -0.4003 0.7491
C6 C 0.6987(3) -0.3009(6) 0.5279(3)
H5 H 0.7259 -0.2425 0.5094
H6 H 0.6570 -0.3035 0.5097
H7 H 0.7188 -0.3793 0.5259
C7 C 0.6454(3) 0.3766(6) 1.0095(3)
C8 C 0.6454(3) 0.1859(6) 0.9759(2)
C9 C 0.6418(3) 0.1451(6) 1.0292(3)
H8 H 0.6404 0.0624 1.0365
C10 C 0.6403(3) 0.2253(6) 1.0719(3)
C11 C 0.6383(3) 0.1870(6) 1.1313(3)
H9 H 0.5996 0.2184 1.1488
H10 H 0.6379 0.1003 1.1332
H11 H 0.6759 0.2174 1.1507
C12 C 0.6471(3) 0.1051(6) 0.9278(3)
H12 H 0.6877 0.1144 0.9082
H13 H 0.6427 0.0230 0.9405
H14 H 0.6118 0.1242 0.9027
C13 C 0.4983(3) 0.3740(6) 0.9306(2)
C14 C 0.4758(3) 0.2293(6) 0.9926(2)
C15 C 0.4727(3) 0.1487(6) 0.9494(3)
H15 H 0.4643 0.0674 0.9566
C16 C 0.4818(3) 0.1875(6) 0.8963(3)
C17 C 0.4785(3) 0.1073(6) 0.8478(3)
H16 H 0.4420 0.1293 0.8246
H17 H 0.4734 0.0253 0.8605
H18 H 0.5179 0.1141 0.8263
C18 C 0.4673(3) 0.1927(6) 1.0520(3)
H19 H 0.5000 0.2309 1.0748
H20 H 0.4713 0.1064 1.0550
H21 H 0.4249 0.2171 1.0648
C19 C 0.6890(3) -0.3251(7) 0.8779(3)
C20 C 0.5259(3) 0.6720(6) 0.7963(3)
C21 C 0.6414(3) 0.1749(7) 0.7817(3)
N1 N 0.6410(3) -0.0144(5) 0.6581(2)
H22 H 0.6334 0.0332 0.6300
H23 H 0.6351 0.0107 0.6922
N2 N 0.6696(3) -0.1582(5) 0.5964(2)
N3 N 0.6702(2) -0.1957(5) 0.6937(2)
N4 N 0.5093(3) 0.4879(5) 0.9220(2)
H24 H 0.5106 0.5373 0.9502
H25 H 0.5154 0.5143 0.8882
N5 N 0.4895(3) 0.3412(5) 0.9834(2)
N6 N 0.4953(2) 0.3018(5) 0.88608(19)
N7 N 0.6486(3) 0.4925(5) 1.0014(2)
H26 H 0.6523 0.5208 0.9676
H27 H 0.6470 0.5413 1.0298
N8 N 0.6479(2) 0.3036(5) 0.96539(19)
N9 N 0.6417(3) 0.3404(5) 1.0628(2)
N10 N 0.6816(3) -0.4254(6) 0.8819(2)
N11 N 0.5227(3) 0.5720(5) 0.7994(2)
N12 N 0.6408(3) 0.0727(5) 0.7811(2)
S1 S 0.64404(8) 0.32168(15) 0.78202(7)
S2 S 0.52625(8) 0.81996(15) 0.79408(7)
S3 S 0.69837(8) -0.17863(15) 0.87471(7)
Ag1B Ag 0.47907(3) 0.86852(5) 0.70056(2)
Ag2_2 Ag 0.64909(3) 0.86915(5) 0.78235(2)
Ag3_2 Ag 0.67515(3) -0.62846(5) 0.87947(2)
Ag3G Ag 0.82485(3) -0.12846(5) 0.87947(2)
N10_2 N 0.6816(3) 0.5746(6) 0.8819(2)
S2B S 0.47375(8) 0.31996(15) 0.70592(7)
S2_2 S 0.52625(8) -0.18004(15) 0.79408(7)
S3G S 0.80163(8) 0.32137(15) 0.87471(7)
loop_
_geom_bond_atom_site_label_1
_geom_bond_atom_site_label_2
_geom_bond_site_symmetry_1
_geom_bond_site_symmetry_2
Ag1 N6 1_555 1_555
Ag2 N3 1_555 1_555
Ag3 N8 1_555 1_555
C1 N1 1_555 1_555
C2 C3 1_555 1_555
C3 H1 1_555 1_555
C4 C3 1_555 1_555
C5 C4 1_555 1_555
H2 C5 1_555 1_555
H3 C5 1_555 1_555
H4 C5 1_555 1_555
C6 C2 1_555 1_555
H5 C6 1_555 1_555
H6 C6 1_555 1_555
H7 C6 1_555 1_555
C7 N7 1_555 1_555
C8 C9 1_555 1_555
C9 H8 1_555 1_555
C10 C9 1_555 1_555
C11 C10 1_555 1_555
H9 C11 1_555 1_555
H10 C11 1_555 1_555
H11 C11 1_555 1_555
C12 C8 1_555 1_555
H12 C12 1_555 1_555
H13 C12 1_555 1_555
H14 C12 1_555 1_555
C13 N4 1_555 1_555
C14 C15 1_555 1_555
C15 H15 1_555 1_555
C16 C15 1_555 1_555
C17 C16 1_555 1_555
H16 C17 1_555 1_555
H17 C17 1_555 1_555
H18 C17 1_555 1_555
C18 C14 1_555 1_555
H19 C18 1_555 1_555
H20 C18 1_555 1_555
H21 C18 1_555 1_555
C19 N10 1_555 1_555
C20 N11 1_555 1_555
C21 N12 1_555 1_555
N1 H22 1_555 1_555
H23 N1 1_555 1_555
N2 C1 1_555 1_555
N3 C1 1_555 1_555
N4 H24 1_555 1_555
H25 N4 1_555 1_555
N5 C13 1_555 1_555
N6 C13 1_555 1_555
N7 H26 1_555 1_555
H27 N7 1_555 1_555
N8 C7 1_555 1_555
N9 C7 1_555 1_555
N10 Ag3_2 1_555 1_555
N11 Ag1 1_555 1_555
N12 Ag2 1_555 1_555
S1 Ag1 1_555 1_555
S2 C20 1_555 1_555
S3 Ag2 1_555 1_555
Ag1B S2 1_555 1_555
Ag2_2 S2 1_555 1_555
Ag3G S3 1_555 1_555
N10_2 Ag3 1_555 1_555
S2B Ag1 1_555 1_555
S2_2 Ag2 1_555 1_555
S3G Ag3 1_555 1_555
Ag3 S1 1_555 1_555
C2 N2 1_555 1_555
C4 N3 1_555 1_555
C8 N8 1_555 1_555
C10 N9 1_555 1_555
C14 N5 1_555 1_555
C16 N6 1_555 1_555
C19 S3 1_555 1_555
C21 S1 1_555 1_555

#END
