
#######################################################################
#
#                 Cambridge Crystallographic Data Centre
#                                CCDC 
#
#######################################################################
#
# If this CIF has been generated from an entry in the Cambridge 
# Structural Database, then it will include bibliographic, chemical, 
# crystal, experimental, refinement or atomic coordinate data resulting 
# from the CCDC's data processing and validation procedures.
#
#######################################################################

data_AJIPIT
_symmetry_cell_setting           monoclinic
_symmetry_space_group_name_H-M   'C 2/c'
_symmetry_Int_Tables_number      15
_space_group_name_Hall           '-C 2yn'
loop_
_symmetry_equiv_pos_site_id
_symmetry_equiv_pos_as_xyz
1 x,y,z
2 -x,y,1/2-z
3 1/2+x,1/2+y,z
4 1/2-x,1/2+y,1/2-z
5 -x,-y,-z
6 x,-y,1/2+z
7 1/2-x,1/2-y,-z
8 1/2+x,1/2-y,1/2+z
_cell_length_a                   16.6086(15)
_cell_length_b                   6.1031(3)
_cell_length_c                   31.450(3)
_cell_angle_alpha                90
_cell_angle_beta                 101.495(6)
_cell_angle_gamma                90
_cell_volume                     3123.95
loop_
_atom_site_label
_atom_site_type_symbol
_atom_site_fract_x
_atom_site_fract_y
_atom_site_fract_z
Gd1 Gd 0.139846(11) 1.22196(3) 0.039941(6)
O1 O 0.00523(18) 1.1186(6) 0.03770(12)
O2 O -0.12825(17) 1.0591(5) 0.01584(10)
O3 O -0.10121(18) 1.5870(5) 0.02786(10)
O4 O -0.22583(18) 1.6064(5) 0.04302(11)
O5 O 0.1478(2) 0.8926(5) 0.08780(10)
O6 O 0.1722(2) 1.2159(5) 0.11810(11)
O7 O 0.06391(18) 1.5307(5) 0.05751(11)
H1 H 0.0807 1.6547 0.0645
H2 H 0.0142 1.5347 0.0480
O8 O 0.22841(18) 1.5367(5) 0.05215(11)
H3 H 0.2736 1.5274 0.0456
H4 H 0.2244 1.6677 0.0574
N1 N 0.1300(6) 0.7787(12) 0.2444(2)
C1 C -0.0810(2) 1.2045(7) 0.08639(14)
C2 C -0.1237(2) 1.3977(7) 0.09020(13)
C3 C -0.1383(3) 1.4600(8) 0.13042(15)
H5 H -0.1675 1.5876 0.1330
C4 C -0.1095(4) 1.3327(11) 0.16656(18)
H6 H -0.1187 1.3758 0.1936
C5 C -0.0672(4) 1.1416(11) 0.16258(18)
H7 H -0.0481 1.0551 0.1868
C6 C -0.0532(3) 1.0793(9) 0.12232(16)
H8 H -0.0246 0.9506 0.1197
C7 C -0.0664(2) 1.1242(7) 0.04312(14)
C8 C -0.1530(2) 1.5409(7) 0.05133(14)
C9 C 0.1530(3) 0.9233(8) 0.16459(16)
C10 C 0.1742(4) 1.0557(10) 0.20058(18)
H9 H 0.1953 1.1949 0.1977
C11 C 0.1646(5) 0.9840(13) 0.2410(2)
H10 H 0.1809 1.0714 0.2654
C12 C 0.1099(5) 0.6447(12) 0.2087(2)
H11 H 0.0883 0.5060 0.2115
C13 C 0.1218(4) 0.7160(9) 0.1690(2)
H12 H 0.1088 0.6245 0.1450
C14 C 0.1590(3) 1.0145(8) 0.12102(15)
Gd1D Gd -0.139846(11) 0.77804(3) -0.039941(6)
Gd1D_2 Gd -0.139846(11) 1.77804(3) -0.039941(6)
Gd1B Gd -0.360154(11) 1.72196(3) 0.039941(6)
O2D O 0.12825(17) 0.9409(5) -0.01584(10)
O3D O 0.10121(18) 1.4130(5) -0.02786(10)
O4B O 0.27417(18) 1.1064(5) 0.04302(11)
loop_
_geom_bond_atom_site_label_1
_geom_bond_atom_site_label_2
_geom_bond_site_symmetry_1
_geom_bond_site_symmetry_2
Gd1 O1 1_555 1_555
O1 C7 1_555 1_555
O2 C7 1_555 1_555
O3 C8 1_555 1_555
O4 C8 1_555 1_555
O5 Gd1 1_555 1_555
O6 Gd1 1_555 1_555
O7 Gd1 1_555 1_555
H1 O7 1_555 1_555
H2 O7 1_555 1_555
O8 Gd1 1_555 1_555
H3 O8 1_555 1_555
H4 O8 1_555 1_555
N1 C11 1_555 1_555
C1 C2 1_555 1_555
C2 C3 1_555 1_555
C3 H5 1_555 1_555
C4 C3 1_555 1_555
H6 C4 1_555 1_555
C5 C4 1_555 1_555
H7 C5 1_555 1_555
C6 C1 1_555 1_555
H8 C6 1_555 1_555
C7 C1 1_555 1_555
C8 C2 1_555 1_555
C9 C10 1_555 1_555
C10 H9 1_555 1_555
C11 C10 1_555 1_555
H10 C11 1_555 1_555
C12 N1 1_555 1_555
H11 C12 1_555 1_555
C13 C9 1_555 1_555
H12 C13 1_555 1_555
C14 O5 1_555 1_555
Gd1D O2 1_555 1_555
Gd1D_2 O3 1_555 1_555
Gd1B O4 1_555 1_555
O2D Gd1 1_555 1_555
O3D Gd1 1_555 1_555
O4B Gd1 1_555 1_555
O6 C14 1_555 1_555
C5 C6 1_555 1_555
C9 C14 1_555 1_555
C12 C13 1_555 1_555

#END
