
#######################################################################
#
#                 Cambridge Crystallographic Data Centre
#                                CCDC 
#
#######################################################################
#
# If this CIF has been generated from an entry in the Cambridge 
# Structural Database, then it will include bibliographic, chemical, 
# crystal, experimental, refinement or atomic coordinate data resulting 
# from the CCDC's data processing and validation procedures.
#
#######################################################################

data_AJIPAM
_symmetry_cell_setting           monoclinic
_symmetry_space_group_name_H-M   'P 21/c'
_symmetry_Int_Tables_number      14
_space_group_name_Hall           '-P 2ybc'
loop_
_symmetry_equiv_pos_site_id
_symmetry_equiv_pos_as_xyz
1 x,y,z
2 -x,1/2+y,1/2-z
3 -x,-y,-z
4 x,1/2-y,1/2+z
_cell_length_a                   8.3803(5)
_cell_length_b                   14.2658(5)
_cell_length_c                   15.581(3)
_cell_angle_alpha                90
_cell_angle_beta                 117.144(6)
_cell_angle_gamma                90
_cell_volume                     1657.58
loop_
_atom_site_label
_atom_site_type_symbol
_atom_site_fract_x
_atom_site_fract_y
_atom_site_fract_z
Ag1 Ag 0.96418(5) 0.11614(3) 0.28688(3)
O1 O 0.6632(4) 0.0779(3) 0.2609(3)
O2 O 0.1892(9) 0.1144(4) 0.0936(4)
O3 O 0.7332(5) -0.0138(3) 0.3895(3)
O4 O 1.0035(6) 0.1209(3) 0.4621(3)
H1 H 0.917(5) 0.086(4) 0.455(4)
H2 H 1.099(4) 0.102(4) 0.510(4)
O5 O 0.3145(6) 0.1139(3) 0.2493(3)
N1 N 1.0008(5) -0.0372(3) 0.2551(3)
N2 N 1.0099(5) -0.2299(3) 0.2370(3)
C1 C 0.6395(6) 0.0091(4) 0.3030(3)
C2 C 0.8757(6) -0.1797(4) 0.1700(3)
C3 C 0.8733(6) -0.0823(4) 0.1780(4)
C4 C 0.7344(7) -0.0242(4) 0.1003(4)
H3 H 0.6163(9) -0.0385(19) 0.0955(19)
H4 H 0.761(3) 0.0424(4) 0.1155(14)
H5 H 0.734(4) -0.038(2) 0.0387(6)
C5 C 0.4884(7) -0.0551(4) 0.2409(4)
C6 C 0.7331(7) -0.2311(4) 0.0864(4)
H6 H 0.763(3) -0.231(2) 0.0324(10)
H7 H 0.726(3) -0.2958(8) 0.1054(9)
H8 H 0.6174(11) -0.1998(15) 0.0665(18)
C7 C 0.5183(8) -0.1521(4) 0.2417(4)
H9 H 0.6297(8) -0.1773(4) 0.2875(4)
N3 N 0.2739(5) 0.0751(3) 0.1715(3)
C8 C 1.1409(6) -0.1858(4) 0.3117(3)
C9 C 1.1343(6) -0.0882(4) 0.3220(4)
C10 C 1.2906(8) -0.2432(4) 0.3845(4)
H10 H 1.262(3) -0.261(2) 0.4368(16)
H11 H 1.306(4) -0.3000(15) 0.3537(8)
H12 H 1.4017(14) -0.2066(11) 0.411(2)
C11 C 1.2784(7) -0.0382(4) 0.4062(4)
H13 H 1.257(3) 0.0295(4) 0.3987(14)
H14 H 1.277(4) -0.059(2) 0.4659(4)
H15 H 1.3953(8) -0.052(2) 0.4092(17)
C12 C 0.2254(8) -0.1765(5) 0.1081(4)
H16 H 0.1378(8) -0.2173(5) 0.0629(4)
C13 C 0.1920(7) -0.0826(4) 0.1060(4)
H17 H 0.0808(7) -0.0580(4) 0.0593(4)
C14 C 0.3214(6) -0.0226(4) 0.1726(3)
C15 C 0.3878(8) -0.2120(5) 0.1766(4)
H18 H 0.4103(8) -0.2775(5) 0.1792(4)
Ag1A Ag 1.03582(5) -0.38386(3) 0.21312(3)
N2A N 0.9901(5) 0.2701(3) 0.2630(3)
loop_
_geom_bond_atom_site_label_1
_geom_bond_atom_site_label_2
_geom_bond_site_symmetry_1
_geom_bond_site_symmetry_2
Ag1 O1 1_555 1_555
O1 C1 1_555 1_555
O2 N3 1_555 1_555
O3 C1 1_555 1_555
O4 Ag1 1_555 1_555
H1 O4 1_555 1_555
H2 O4 1_555 1_555
O5 N3 1_555 1_555
N1 Ag1 1_555 1_555
N2 C2 1_555 1_555
C1 C5 1_555 1_555
C2 C3 1_555 1_555
C3 N1 1_555 1_555
C4 C3 1_555 1_555
H3 C4 1_555 1_555
H4 C4 1_555 1_555
H5 C4 1_555 1_555
C5 C7 1_555 1_555
C6 C2 1_555 1_555
H6 C6 1_555 1_555
H7 C6 1_555 1_555
H8 C6 1_555 1_555
C7 H9 1_555 1_555
N3 C14 1_555 1_555
C8 N2 1_555 1_555
C9 N1 1_555 1_555
C10 C8 1_555 1_555
H10 C10 1_555 1_555
H11 C10 1_555 1_555
H12 C10 1_555 1_555
C11 C9 1_555 1_555
H13 C11 1_555 1_555
H14 C11 1_555 1_555
H15 C11 1_555 1_555
C12 H16 1_555 1_555
C13 C12 1_555 1_555
H17 C13 1_555 1_555
C14 C5 1_555 1_555
C15 C7 1_555 1_555
H18 C15 1_555 1_555
Ag1A N2 1_555 1_555
N2A Ag1 1_555 1_555
C8 C9 1_555 1_555
C12 C15 1_555 1_555
C13 C14 1_555 1_555

#END
