
#######################################################################
#
#                 Cambridge Crystallographic Data Centre
#                                CCDC 
#
#######################################################################
#
# If this CIF has been generated from an entry in the Cambridge 
# Structural Database, then it will include bibliographic, chemical, 
# crystal, experimental, refinement or atomic coordinate data resulting 
# from the CCDC's data processing and validation procedures.
#
#######################################################################

data_AJIQUG01
_symmetry_cell_setting           monoclinic
_symmetry_space_group_name_H-M   'P 21/c'
_symmetry_Int_Tables_number      14
_space_group_name_Hall           '-P 2ybc'
loop_
_symmetry_equiv_pos_site_id
_symmetry_equiv_pos_as_xyz
1 x,y,z
2 -x,1/2+y,1/2-z
3 -x,-y,-z
4 x,1/2-y,1/2+z
_cell_length_a                   6.1289(4)
_cell_length_b                   20.9606(11)
_cell_length_c                   8.9218(6)
_cell_angle_alpha                90
_cell_angle_beta                 96.006(8)
_cell_angle_gamma                90
_cell_volume                     1139.85
loop_
_atom_site_label
_atom_site_type_symbol
_atom_site_fract_x
_atom_site_fract_y
_atom_site_fract_z
Ca1 Ca 0.17073(4) 0.464966(10) 0.34665(2)
O1 O -0.06721(15) 0.53867(4) 0.15492(10)
O2 O -0.11631(14) 0.54115(4) 0.39685(9)
O3 O -0.63243(14) 0.56103(4) 0.32385(10)
O4 O -0.48146(14) 0.59387(4) 0.55042(9)
O5 O -0.77465(16) 0.69483(5) 0.44327(12)
O6 O -0.6745(2) 0.79316(5) 0.42202(15)
N1 N -0.65105(19) 0.73569(5) 0.40148(13)
C1 C -0.22301(19) 0.63317(5) 0.25221(13)
C2 C -0.40142(19) 0.65055(5) 0.32949(13)
C3 C -0.4636(2) 0.71483(5) 0.32352(13)
C4 C -0.3541(2) 0.76080(6) 0.24676(15)
H1 H -0.3976 0.8043 0.2480
C5 C -0.1815(2) 0.74223(6) 0.16882(15)
H2 H -0.1069 0.7729 0.1146
C6 C -0.1168(2) 0.67831(6) 0.16975(14)
H3 H -0.0003 0.6654 0.1142
C7 C -0.13268(18) 0.56640(5) 0.26701(13)
C8 C -0.51762(18) 0.59817(5) 0.40922(13)
O7 O 0.27066(16) 0.42330(4) 0.12141(10)
H4 H 0.1893 0.4292 0.0409
H5 H 0.3983 0.4228 0.0951
O8 O -0.12214(16) 0.39199(4) 0.30347(11)
H6 H -0.2294 0.3948 0.3545
H7 H -0.1697 0.3811 0.2154
Ca1B Ca -0.17073(4) 0.535034(10) 0.65335(2)
Ca1_2 Ca -0.82927(4) 0.464966(10) 0.34665(2)
O2B O 0.11631(14) 0.45885(4) 0.60315(9)
O3_2 O 0.36757(14) 0.56103(4) 0.32385(10)
O4B O 0.48146(14) 0.40613(4) 0.44958(9)
O9 O 0.67190(17) 0.42942(4) 0.00934(11)
H8 H 0.6594 0.4249 -0.0847
H9 H 0.7370 0.4632 0.0380
loop_
_geom_bond_atom_site_label_1
_geom_bond_atom_site_label_2
_geom_bond_site_symmetry_1
_geom_bond_site_symmetry_2
Ca1 O1 1_555 1_555
O1 C7 1_555 1_555
O2 Ca1 1_555 1_555
O3 C8 1_555 1_555
O4 C8 1_555 1_555
O5 N1 1_555 1_555
O6 N1 1_555 1_555
N1 C3 1_555 1_555
C1 C2 1_555 1_555
C2 C3 1_555 1_555
C3 C4 1_555 1_555
C4 H1 1_555 1_555
C5 C4 1_555 1_555
H2 C5 1_555 1_555
C6 C1 1_555 1_555
H3 C6 1_555 1_555
C7 O2 1_555 1_555
C8 C2 1_555 1_555
O7 Ca1 1_555 1_555
H4 O7 1_555 1_555
H5 O7 1_555 1_555
O8 Ca1 1_555 1_555
H6 O8 1_555 1_555
H7 O8 1_555 1_555
O9 H8 1_555 1_555
H9 O9 1_555 1_555
Ca1B O2 1_555 1_555
Ca1_2 O3 1_555 1_555
O2B Ca1 1_555 1_555
O3_2 Ca1 1_555 1_555
O4B Ca1 1_555 1_555
O4 Ca1B 1_555 1_555
C1 C7 1_555 1_555
C5 C6 1_555 1_555
Ca1B O2B 1_555 1_555

#END
