
#######################################################################
#
#                 Cambridge Crystallographic Data Centre
#                                CCDC 
#
#######################################################################
#
# If this CIF has been generated from an entry in the Cambridge 
# Structural Database, then it will include bibliographic, chemical, 
# crystal, experimental, refinement or atomic coordinate data resulting 
# from the CCDC's data processing and validation procedures.
#
#######################################################################

data_AJIQIV
_symmetry_cell_setting           triclinic
_symmetry_space_group_name_H-M   'P -1'
_symmetry_Int_Tables_number      2
_space_group_name_Hall           '-P 1'
loop_
_symmetry_equiv_pos_site_id
_symmetry_equiv_pos_as_xyz
1 x,y,z
2 -x,-y,-z
_cell_length_a                   9.8808(5)
_cell_length_b                   11.4571(7)
_cell_length_c                   11.6006(7)
_cell_angle_alpha                99.968(5)
_cell_angle_beta                 104.116(5)
_cell_angle_gamma                102.749(5)
_cell_volume                     1205.92
loop_
_atom_site_label
_atom_site_type_symbol
_atom_site_fract_x
_atom_site_fract_y
_atom_site_fract_z
Co1 Co 0.86431(4) 0.18515(4) 0.80649(3)
O1 O 0.7276(2) 0.2517(2) 0.57291(18)
O2 O 0.94385(19) 0.25171(19) 0.68293(17)
O3 O 1.3715(2) 0.4362(3) 0.5670(2)
H1 H 1.4628(14) 0.463(5) 0.581(5)
O4 O 1.3500(2) 0.4711(3) 0.3851(2)
O5 O 0.8008(2) 0.3929(2) 0.21159(17)
O6 O 0.8180(3) 0.2122(2) 0.0366(2)
O7 O 0.8688(2) 0.34032(19) -0.07905(17)
O8 O 0.8524(2) -0.0357(2) 0.6977(2)
N1 N 0.6540(2) 0.0789(2) 0.7393(2)
N2 N 0.4655(3) -0.0717(3) 0.6166(2)
H2 H 0.4169 -0.1419 0.5674
N3 N 1.0400(2) 0.1322(2) 0.8920(2)
N4 N 1.1878(3) 0.0148(3) 0.9292(3)
H3 H 1.2185 -0.0500 0.9247
C1 C 0.9275(3) 0.3133(2) 0.4978(2)
C2 C 1.0766(3) 0.3461(3) 0.5196(2)
H4 H 1.1366 0.3375 0.5911
C3 C 1.1360(3) 0.3919(3) 0.4347(2)
C4 C 1.0482(3) 0.4048(3) 0.3264(2)
H5 H 1.0887 0.4336 0.2688
C5 C 0.9001(3) 0.3738(3) 0.3064(2)
C6 C 0.8407(3) 0.3276(3) 0.3913(2)
H6 H 0.7405 0.3058 0.3762
C7 C 0.8595(3) 0.2679(3) 0.5902(2)
C8 C 1.2960(3) 0.4358(3) 0.4615(3)
C9 C 0.8415(3) 0.4249(3) 0.1101(2)
H7 H 0.9374 0.4827 0.1392
H8 H 0.7744 0.4661 0.0702
C10 C 0.8432(3) 0.3157(3) 0.0176(3)
C11 C 0.5273(3) 0.1166(3) 0.7334(3)
C12 C 0.5078(3) 0.2270(3) 0.7867(3)
H9 H 0.5861 0.2919 0.8367
C13 C 0.3670(4) 0.2369(4) 0.7624(3)
H10 H 0.3505 0.3098 0.7974
C14 C 0.2500(4) 0.1407(4) 0.6870(3)
H11 H 0.1570 0.1509 0.6728
C15 C 0.2679(3) 0.0310(4) 0.6330(3)
H12 H 0.1895 -0.0336 0.5828
C16 C 0.4099(3) 0.0215(3) 0.6573(3)
C17 C 0.6101(3) -0.0335(3) 0.6677(3)
C18 C 0.7076(3) -0.1115(3) 0.6468(3)
H13 H 0.6924 -0.1795 0.6860
H14 H 0.6881 -0.1449 0.5598
C19 C 0.9485(3) -0.0848(3) 0.7732(3)
H15 H 0.9955 -0.1312 0.7252
H16 H 0.8965 -0.1392 0.8131
C20 C 1.0577(3) 0.0216(3) 0.8655(3)
C21 C 1.1698(3) 0.2042(3) 0.9794(3)
C22 C 1.2128(3) 0.3282(3) 1.0383(3)
H17 H 1.1504 0.3777 1.0244
C23 C 1.3502(4) 0.3754(4) 1.1176(3)
H18 H 1.3818 0.4584 1.1579
C24 C 1.4436(4) 0.3013(5) 1.1389(4)
H19 H 1.5364 0.3366 1.1928
C25 C 1.4034(4) 0.1781(4) 1.0832(3)
H20 H 1.4663 0.1291 1.0981
C26 C 1.2633(3) 0.1302(3) 1.0031(3)
Co1_2 Co 0.86431(4) 0.18515(4) -0.19351(3)
O7_2 O 0.8688(2) 0.34032(19) 0.92095(17)
loop_
_geom_bond_atom_site_label_1
_geom_bond_atom_site_label_2
_geom_bond_site_symmetry_1
_geom_bond_site_symmetry_2
Co1 O2 1_555 1_555
O1 C7 1_555 1_555
O2 C7 1_555 1_555
O3 H1 1_555 1_555
O4 C8 1_555 1_555
O5 C5 1_555 1_555
O6 C10 1_555 1_555
O7 C10 1_555 1_555
O8 C18 1_555 1_555
N1 Co1 1_555 1_555
N2 H2 1_555 1_555
N3 Co1 1_555 1_555
N4 H3 1_555 1_555
C1 C2 1_555 1_555
C2 H4 1_555 1_555
C3 C2 1_555 1_555
C4 C3 1_555 1_555
H5 C4 1_555 1_555
C5 C4 1_555 1_555
C6 C1 1_555 1_555
H6 C6 1_555 1_555
C7 C1 1_555 1_555
C8 O3 1_555 1_555
C9 O5 1_555 1_555
H7 C9 1_555 1_555
H8 C9 1_555 1_555
C10 C9 1_555 1_555
C11 N1 1_555 1_555
C12 C11 1_555 1_555
H9 C12 1_555 1_555
C13 C12 1_555 1_555
H10 C13 1_555 1_555
C14 C13 1_555 1_555
H11 C14 1_555 1_555
C15 C14 1_555 1_555
H12 C15 1_555 1_555
C16 N2 1_555 1_555
C17 N1 1_555 1_555
C18 C17 1_555 1_555
H13 C18 1_555 1_555
H14 C18 1_555 1_555
C19 O8 1_555 1_555
H15 C19 1_555 1_555
H16 C19 1_555 1_555
C20 N3 1_555 1_555
C21 N3 1_555 1_555
C22 C21 1_555 1_555
H17 C22 1_555 1_555
C23 C22 1_555 1_555
H18 C23 1_555 1_555
C24 C23 1_555 1_555
H19 C24 1_555 1_555
C25 C24 1_555 1_555
H20 C25 1_555 1_555
C26 N4 1_555 1_555
Co1_2 O7 1_555 1_555
O7_2 Co1 1_555 1_555
N2 C17 1_555 1_555
N4 C20 1_555 1_555
C3 C8 1_555 1_555
C5 C6 1_555 1_555
C11 C16 1_555 1_555
C15 C16 1_555 1_555
C19 C20 1_555 1_555
C21 C26 1_555 1_555
C25 C26 1_555 1_555

#END
