
#######################################################################
#
#                 Cambridge Crystallographic Data Centre
#                                CCDC 
#
#######################################################################
#
# If this CIF has been generated from an entry in the Cambridge 
# Structural Database, then it will include bibliographic, chemical, 
# crystal, experimental, refinement or atomic coordinate data resulting 
# from the CCDC's data processing and validation procedures.
#
#######################################################################

data_AJIRAM01
_symmetry_cell_setting           triclinic
_symmetry_space_group_name_H-M   'P -1'
_symmetry_Int_Tables_number      2
_space_group_name_Hall           '-P 1'
loop_
_symmetry_equiv_pos_site_id
_symmetry_equiv_pos_as_xyz
1 x,y,z
2 -x,-y,-z
_cell_length_a                   7.0930
_cell_length_b                   8.6620
_cell_length_c                   11.3350
_cell_angle_alpha                75.96
_cell_angle_beta                 76.40
_cell_angle_gamma                89.52
_cell_volume                     655.794
loop_
_atom_site_label
_atom_site_type_symbol
_atom_site_fract_x
_atom_site_fract_y
_atom_site_fract_z
Cu1 Cu 0.50000 0.00000 1.00000
O1 O 0.33470 -0.17280 0.98875
O2 O 0.71035 -0.03045 0.86320
C1 C 0.24570 -0.40800 0.93895
H1 H 0.12970 -0.39835 0.99990
H2 H 0.30155 -0.50750 0.96675
H3 H 0.21440 -0.40410 0.86055
C2 C 0.38975 -0.27255 0.92275
C3 C 0.56945 -0.26495 0.83815
H4 H 0.59315 -0.34480 0.79600
C4 C 0.71620 -0.14590 0.81100
C5 C 0.90105 -0.15275 0.71590
C6 C 0.90460 -0.20885 0.60960
H5 H 0.79110 -0.24750 0.59735
C7 C 1.08010 -0.20675 0.52200
H6 H 1.08285 -0.24315 0.45185
C8 C 1.25060 -0.15115 0.54010
H7 H 1.36605 -0.15300 0.48350
C9 C 1.24675 -0.09230 0.64300
H8 H 1.35875 -0.04935 0.65235
C10 C 1.07390 -0.09560 0.73130
H9 H 1.07360 -0.05845 0.80130
N1 N 0.35630 0.19760 0.85345
N2 N 0.53480 0.46990 0.54585
C11 C 0.16405 0.20700 0.86980
H10 H 0.08425 0.14820 0.94430
C12 C 0.07845 0.30045 0.78085
H11 H -0.05595 0.30285 0.79565
C13 C 0.19465 0.39000 0.67025
H12 H 0.14130 0.45205 0.60860
C14 C 0.39475 0.38305 0.65395
C15 C 0.46810 0.28545 0.74695
H13 H 0.60205 0.28095 0.73470
Cu1_2 Cu 0.50000 1.00000 0.00000
O1A O 0.66530 0.17280 1.01125
O2A O 0.28965 0.03045 1.13680
C1A C 0.75430 0.40800 1.06105
H1A H 0.87030 0.39835 1.00010
H2A H 0.69845 0.50750 1.03325
H3A H 0.78560 0.40410 1.13945
C2A C 0.61025 0.27255 1.07725
C3A C 0.43055 0.26495 1.16185
H4A H 0.40685 0.34480 1.20400
C4A C 0.28380 0.14590 1.18900
C5A C 0.09895 0.15275 1.28410
C6A C 0.09540 0.20885 1.39040
H5A H 0.20890 0.24750 1.40265
C7A C -0.08010 0.20675 1.47800
H6A H -0.08285 0.24315 1.54815
C8A C -0.25060 0.15115 1.45990
H7A H -0.36605 0.15300 1.51650
C9A C -0.24675 0.09230 1.35700
H8A H -0.35875 0.04935 1.34765
C10A C -0.07390 0.09560 1.26870
H9A H -0.07360 0.05845 1.19870
N1A N 0.64370 0.80240 0.14655
N1A_2 N 0.64370 -0.19760 1.14655
N2A N 0.46520 0.53010 0.45415
C11A C 0.83595 0.79300 0.13020
H10A H 0.91575 0.85180 0.05570
C12A C 0.92155 0.69955 0.21915
H11A H 1.05595 0.69715 0.20435
C13A C 0.80535 0.61000 0.32975
H12A H 0.85870 0.54795 0.39140
C14A C 0.60525 0.61695 0.34605
C15A C 0.53190 0.71455 0.25305
H13A H 0.39795 0.71905 0.26530
loop_
_geom_bond_atom_site_label_1
_geom_bond_atom_site_label_2
_geom_bond_site_symmetry_1
_geom_bond_site_symmetry_2
Cu1 O1 1_555 1_555
O1 C2 1_555 1_555
O2 Cu1 1_555 1_555
C1 H1 1_555 1_555
H2 C1 1_555 1_555
H3 C1 1_555 1_555
C2 C1 1_555 1_555
C3 C2 1_555 1_555
H4 C3 1_555 1_555
C4 O2 1_555 1_555
C5 C4 1_555 1_555
C6 C5 1_555 1_555
H5 C6 1_555 1_555
C7 C6 1_555 1_555
H6 C7 1_555 1_555
C8 C7 1_555 1_555
H7 C8 1_555 1_555
C9 C8 1_555 1_555
H8 C9 1_555 1_555
C10 C5 1_555 1_555
H9 C10 1_555 1_555
N1 Cu1 1_555 1_555
N2 C14 1_555 1_555
C11 N1 1_555 1_555
H10 C11 1_555 1_555
C12 C11 1_555 1_555
H11 C12 1_555 1_555
C13 C12 1_555 1_555
H12 C13 1_555 1_555
C14 C13 1_555 1_555
C15 N1 1_555 1_555
H13 C15 1_555 1_555
Cu1_2 N1A 1_555 1_555
O1A Cu1 1_555 1_555
O2A Cu1 1_555 1_555
C1A H1A 1_555 1_555
H2A C1A 1_555 1_555
H3A C1A 1_555 1_555
C2A O1A 1_555 1_555
C3A C2A 1_555 1_555
H4A C3A 1_555 1_555
C4A O2A 1_555 1_555
C5A C4A 1_555 1_555
C6A C5A 1_555 1_555
H5A C6A 1_555 1_555
C7A C6A 1_555 1_555
H6A C7A 1_555 1_555
C8A C7A 1_555 1_555
H7A C8A 1_555 1_555
C9A C8A 1_555 1_555
H8A C9A 1_555 1_555
C10A C5A 1_555 1_555
H9A C10A 1_555 1_555
N1A C11A 1_555 1_555
N1A_2 Cu1 1_555 1_555
N2A N2 1_555 1_555
C11A H10A 1_555 1_555
C12A C11A 1_555 1_555
H11A C12A 1_555 1_555
C13A C12A 1_555 1_555
H12A C13A 1_555 1_555
C14A N2A 1_555 1_555
C15A N1A 1_555 1_555
H13A C15A 1_555 1_555
C3 C4 1_555 1_555
C9 C10 1_555 1_555
C14 C15 1_555 1_555
C1A C2A 1_555 1_555
C3A C4A 1_555 1_555
C9A C10A 1_555 1_555
C13A C14A 1_555 1_555
C14A C15A 1_555 1_555

#END
