
#######################################################################
#
#                 Cambridge Crystallographic Data Centre
#                                CCDC 
#
#######################################################################
#
# If this CIF has been generated from an entry in the Cambridge 
# Structural Database, then it will include bibliographic, chemical, 
# crystal, experimental, refinement or atomic coordinate data resulting 
# from the CCDC's data processing and validation procedures.
#
#######################################################################

data_AJIROB
_symmetry_cell_setting           monoclinic
_symmetry_space_group_name_H-M   'P 21/n'
_symmetry_Int_Tables_number      14
_space_group_name_Hall           '-P 2yn'
loop_
_symmetry_equiv_pos_site_id
_symmetry_equiv_pos_as_xyz
1 x,y,z
2 1/2-x,1/2+y,1/2-z
3 -x,-y,-z
4 1/2+x,1/2-y,1/2+z
_cell_length_a                   12.7022(10)
_cell_length_b                   10.6710(8)
_cell_length_c                   13.5477(11)
_cell_angle_alpha                90
_cell_angle_beta                 108.3160(10)
_cell_angle_gamma                90
_cell_volume                     1743.29
loop_
_atom_site_label
_atom_site_type_symbol
_atom_site_fract_x
_atom_site_fract_y
_atom_site_fract_z
Ag1 Ag 0.46567(2) 0.42080(2) 0.720067(18)
N1 N 0.7892(2) 0.1581(2) 1.17785(19)
N2 N 0.5757(2) 0.1867(2) 0.87079(18)
H1 H 0.6006 0.1125 0.8959
N3 N 0.5292(2) 0.2041(2) 0.76497(18)
N4 N 0.4610(2) 0.4308(3) 0.3436(2)
O1 O 0.5429(2) 0.3875(2) 0.90517(17)
C1 C 0.7640(3) 0.2276(3) 1.2496(2)
H2 H 0.8045 0.2146 1.3208
C2 C 0.6818(3) 0.3172(4) 1.2241(3)
H3 H 0.6665 0.3655 1.2770
C3 C 0.6220(3) 0.3361(4) 1.1211(3)
H4 H 0.5661 0.3987 1.1018
C4 C 0.6446(2) 0.2623(3) 1.0467(2)
C5 C 0.7289(2) 0.1747(3) 1.0786(2)
H5 H 0.7447 0.1241 1.0273
C6 C 0.5827(2) 0.2850(3) 0.9353(2)
C7 C 0.5010(3) 0.1073(3) 0.7080(2)
H6 H 0.5134 0.0261 0.7383
C8 C 0.4497(2) 0.1209(3) 0.5957(2)
C9 C 0.3725(3) 0.0322(3) 0.5413(2)
H7 H 0.3593 -0.0403 0.5764
C10 C 0.3153(3) 0.0483(3) 0.4373(2)
H8 H 0.2619 -0.0120 0.4017
C11 C 0.3354(3) 0.1520(3) 0.3844(2)
H9 H 0.2951 0.1642 0.3130
C12 C 0.4159(2) 0.2382(3) 0.4378(2)
C13 C 0.4730(2) 0.2234(3) 0.5425(2)
H10 H 0.5276 0.2827 0.5778
C14 C 0.4402(3) 0.3460(3) 0.3840(2)
Ag1C Ag 0.96567(2) 0.07920(2) 1.220067(18)
Ag1B Ag 0.53433(2) 0.57920(2) 0.279933(18)
N1C N 0.2892(2) 0.3419(2) 0.67785(19)
N4B N 0.5390(2) 0.5692(3) 0.6564(2)
As1 As 0.68466(3) 0.82580(3) 0.92847(3)
F1 F 0.6108(3) 0.9114(3) 0.9890(3)
F2 F 0.7995(3) 0.8381(5) 1.0311(2)
F3 F 0.6474(3) 0.6924(2) 0.9767(2)
F4 F 0.5701(2) 0.8156(3) 0.8211(2)
F5 F 0.7177(2) 0.9631(2) 0.8776(2)
F6 F 0.7572(2) 0.7454(2) 0.8622(2)
loop_
_geom_bond_atom_site_label_1
_geom_bond_atom_site_label_2
_geom_bond_site_symmetry_1
_geom_bond_site_symmetry_2
Ag1 N3 1_555 1_555
N1 C1 1_555 1_555
N2 H1 1_555 1_555
N3 N2 1_555 1_555
N4 C14 1_555 1_555
O1 Ag1 1_555 1_555
C1 H2 1_555 1_555
C2 C1 1_555 1_555
H3 C2 1_555 1_555
C3 C2 1_555 1_555
H4 C3 1_555 1_555
C4 C3 1_555 1_555
C5 N1 1_555 1_555
H5 C5 1_555 1_555
C6 N2 1_555 1_555
C7 N3 1_555 1_555
H6 C7 1_555 1_555
C8 C7 1_555 1_555
C9 C8 1_555 1_555
H7 C9 1_555 1_555
C10 C9 1_555 1_555
H8 C10 1_555 1_555
C11 C10 1_555 1_555
H9 C11 1_555 1_555
C12 C11 1_555 1_555
C13 C8 1_555 1_555
H10 C13 1_555 1_555
C14 C12 1_555 1_555
As1 F1 1_555 1_555
F2 As1 1_555 1_555
F3 As1 1_555 1_555
F4 As1 1_555 1_555
F5 As1 1_555 1_555
F6 As1 1_555 1_555
Ag1C N1 1_555 1_555
Ag1B N4 1_555 1_555
N1C Ag1 1_555 1_555
N4B Ag1 1_555 1_555
O1 C6 1_555 1_555
C4 C5 1_555 1_555
C4 C6 1_555 1_555
C12 C13 1_555 1_555

#END
