
#######################################################################
#
#                 Cambridge Crystallographic Data Centre
#                                CCDC 
#
#######################################################################
#
# If this CIF has been generated from an entry in the Cambridge 
# Structural Database, then it will include bibliographic, chemical, 
# crystal, experimental, refinement or atomic coordinate data resulting 
# from the CCDC's data processing and validation procedures.
#
#######################################################################

data_AJISER
_symmetry_cell_setting           orthorhombic
_symmetry_space_group_name_H-M   'P 21 21 21'
_symmetry_Int_Tables_number      19
_space_group_name_Hall           'P 2ac 2ab'
loop_
_symmetry_equiv_pos_site_id
_symmetry_equiv_pos_as_xyz
1 x,y,z
2 1/2-x,-y,1/2+z
3 1/2+x,1/2-y,-z
4 -x,1/2+y,1/2-z
_cell_length_a                   7.540(4)
_cell_length_b                   10.817(6)
_cell_length_c                   32.08(2)
_cell_angle_alpha                90
_cell_angle_beta                 90
_cell_angle_gamma                90
_cell_volume                     2616.45
loop_
_atom_site_label
_atom_site_type_symbol
_atom_site_fract_x
_atom_site_fract_y
_atom_site_fract_z
Na1 Na 0.5077(5) 0.2040(4) 0.5152(1)
O1 O 0.064(1) -0.0955(7) 0.6957(2)
O2 O 0.3486(9) 0.2698(6) 0.7274(2)
O3 O -0.0128(9) 0.5006(7) 0.6158(2)
O4 O 0.5138(8) 0.3937(6) 0.5532(2)
O5 O 0.2046(9) 0.2255(6) 0.5298(2)
O6 O 0.629(1) 0.0773(7) 0.5679(2)
O7 O 0.371(1) 0.0571(7) 0.4692(3)
N1 N 0.139(1) -0.0093(7) 0.7166(2)
N2 N 0.273(1) 0.1656(7) 0.7302(3)
N3 N 0.137(1) 0.5120(8) 0.5980(3)
N4 N 0.382(1) 0.4583(7) 0.5667(3)
C1 C 0.173(1) 0.0744(10) 0.5835(3)
C2 C 0.174(1) 0.0413(9) 0.6239(3)
C3 C 0.197(1) 0.1296(9) 0.6551(3)
C4 C 0.211(1) 0.2536(9) 0.6436(3)
C5 C 0.221(1) 0.2835(9) 0.6014(3)
C6 C 0.197(1) 0.1977(10) 0.5688(3)
C7 C 0.199(1) 0.0969(9) 0.6991(3)
C8 C 0.141(1) -0.0053(9) 0.7629(3)
C9 C 0.284(1) 0.0938(9) 0.7706(3)
C10 C 0.183(1) -0.1307(9) 0.7805(3)
C11 C -0.044(1) 0.038(1) 0.7761(3)
C12 C 0.472(1) 0.041(1) 0.7724(3)
C13 C 0.248(1) 0.1780(9) 0.8072(3)
C14 C 0.242(1) 0.4123(9) 0.5884(3)
C15 C 0.216(1) 0.6319(10) 0.5874(3)
C16 C 0.359(1) 0.5922(9) 0.5551(3)
C17 C 0.294(1) 0.684(1) 0.6276(3)
C18 C 0.077(1) 0.718(1) 0.5701(4)
C19 C 0.539(2) 0.659(1) 0.5601(4)
C20 C 0.294(1) 0.5920(9) 0.5096(3)
C21 C 0.703(2) 0.198(1) 0.6256(4)
C22 C 0.670(2) 0.081(1) 0.6044(4)
C23 C 0.681(2) -0.036(1) 0.6298(4)
H1 H 0.1540 0.0114 0.5634
H2 H 0.1593 -0.0432 0.6312
H3 H 0.2135 0.3167 0.6641
H4 H 0.2974 -0.1554 0.7716
H5 H 0.0973 -0.1888 0.7708
H6 H 0.1792 -0.1272 0.8100
H7 H -0.1306 -0.0183 0.7658
H8 H -0.0507 0.0409 0.8056
H9 H -0.0661 0.1179 0.7650
H10 H 0.4903 -0.0116 0.7491
H11 H 0.4860 -0.0050 0.7974
H12 H 0.5550 0.1068 0.7718
H13 H 0.2567 0.1321 0.8324
H14 H 0.1321 0.2118 0.8048
H15 H 0.3326 0.2431 0.8075
H16 H 0.2031 0.6938 0.6477
H17 H 0.3819 0.6289 0.6380
H18 H 0.3473 0.7621 0.6221
H19 H -0.0119 0.7322 0.5905
H20 H 0.1309 0.7948 0.5629
H21 H 0.0250 0.6825 0.5460
H22 H 0.5754 0.6543 0.5884
H23 H 0.5263 0.7427 0.5521
H24 H 0.6248 0.6198 0.5429
H25 H 0.2783 0.6748 0.5004
H26 H 0.3792 0.5521 0.4924
H27 H 0.1843 0.5491 0.5079
H28 H 0.5996 0.2483 0.6241
H29 H 0.7988 0.2400 0.6123
H30 H 0.7322 0.1833 0.6539
H31 H 0.5693 -0.0762 0.6295
H32 H 0.7687 -0.0887 0.6183
H33 H 0.7120 -0.0155 0.6577
O5B O 0.7046(9) 0.2745(6) 0.4702(2)
Na1B Na 0.0077(5) 0.2960(4) 0.4848(1)
loop_
_geom_bond_atom_site_label_1
_geom_bond_atom_site_label_2
_geom_bond_site_symmetry_1
_geom_bond_site_symmetry_2
Na1 O4 1_555 1_555
O1 N1 1_555 1_555
O2 N2 1_555 1_555
O3 N3 1_555 1_555
O4 N4 1_555 1_555
O5 Na1 1_555 1_555
O6 Na1 1_555 1_555
O7 Na1 1_555 1_555
N1 C7 1_555 1_555
N2 C7 1_555 1_555
N3 C14 1_555 1_555
N4 C14 1_555 1_555
C1 C2 1_555 1_555
C2 C3 1_555 1_555
C3 C4 1_555 1_555
C4 C5 1_555 1_555
C5 C6 1_555 1_555
C6 O5 1_555 1_555
C7 C3 1_555 1_555
C8 N1 1_555 1_555
C9 N2 1_555 1_555
C10 C8 1_555 1_555
C11 C8 1_555 1_555
C12 C9 1_555 1_555
C13 C9 1_555 1_555
C14 C5 1_555 1_555
C15 N3 1_555 1_555
C16 N4 1_555 1_555
C17 C15 1_555 1_555
C18 C15 1_555 1_555
C19 C16 1_555 1_555
C20 C16 1_555 1_555
C21 C22 1_555 1_555
C22 O6 1_555 1_555
C23 C22 1_555 1_555
H1 C1 1_555 1_555
H2 C2 1_555 1_555
H3 C4 1_555 1_555
H4 C10 1_555 1_555
H5 C10 1_555 1_555
H6 C10 1_555 1_555
H7 C11 1_555 1_555
H8 C11 1_555 1_555
H9 C11 1_555 1_555
H10 C12 1_555 1_555
H11 C12 1_555 1_555
H12 C12 1_555 1_555
H13 C13 1_555 1_555
H14 C13 1_555 1_555
H15 C13 1_555 1_555
H16 C17 1_555 1_555
H17 C17 1_555 1_555
H18 C17 1_555 1_555
H19 C18 1_555 1_555
H20 C18 1_555 1_555
H21 C18 1_555 1_555
H22 C19 1_555 1_555
H23 C19 1_555 1_555
H24 C19 1_555 1_555
H25 C20 1_555 1_555
H26 C20 1_555 1_555
H27 C20 1_555 1_555
H28 C21 1_555 1_555
H29 C21 1_555 1_555
H30 C21 1_555 1_555
H31 C23 1_555 1_555
H32 C23 1_555 1_555
H33 C23 1_555 1_555
O5B Na1 1_555 1_555
Na1B O5 1_555 1_555
C1 C6 1_555 1_555
C8 C9 1_555 1_555
C15 C16 1_555 1_555

#END
