
#######################################################################
#
#                 Cambridge Crystallographic Data Centre
#                                CCDC 
#
#######################################################################
#
# If this CIF has been generated from an entry in the Cambridge 
# Structural Database, then it will include bibliographic, chemical, 
# crystal, experimental, refinement or atomic coordinate data resulting 
# from the CCDC's data processing and validation procedures.
#
#######################################################################

data_AJIZOI
_symmetry_cell_setting           orthorhombic
_symmetry_space_group_name_H-M   'P 21 21 21'
_symmetry_Int_Tables_number      19
_space_group_name_Hall           'P 2ac 2ab'
loop_
_symmetry_equiv_pos_site_id
_symmetry_equiv_pos_as_xyz
1 x,y,z
2 1/2-x,-y,1/2+z
3 -x,1/2+y,1/2-z
4 1/2+x,1/2-y,-z
_cell_length_a                   6.09110(10)
_cell_length_b                   10.36420(10)
_cell_length_c                   30.4321(7)
_cell_angle_alpha                90
_cell_angle_beta                 90
_cell_angle_gamma                90
_cell_volume                     1921.16
loop_
_atom_site_label
_atom_site_type_symbol
_atom_site_fract_x
_atom_site_fract_y
_atom_site_fract_z
Mn1 Mn 0.52778(16) 0.05987(9) 0.78608(3)
N1 N 0.5542(10) 0.0954(5) 0.71427(15)
H1 H 0.4776 0.1667 0.7073
H2 H 0.6957 0.1092 0.7072
N2 N 0.3888(9) -0.0327(5) 0.84769(16)
H3 H 0.3952 -0.1191 0.8450
H4 H 0.4714 -0.0099 0.8709
O1 O -0.1562(9) 0.0246(7) 0.81341(18)
O2 O 0.4684(11) -0.2433(4) 0.69410(14)
O4 O 0.5426(9) -0.1327(4) 0.75504(13)
O5 O 0.1592(7) 0.0608(5) 0.77931(14)
C1 C 0.6958(13) 0.1356(8) 0.5863(3)
H5 H 0.8330 0.0965 0.5879
C2 C 0.6690(18) 0.2336(8) 0.5570(2)
H6 H 0.7843 0.2593 0.5390
C3 C 0.4679(17) 0.2942(7) 0.5546(2)
H7 H 0.4451 0.3614 0.5349
C4 C 0.3025(15) 0.2537(7) 0.5817(2)
H8 H 0.1671 0.2951 0.5804
C5 C 0.3309(14) 0.1535(7) 0.6108(2)
H9 H 0.2154 0.1276 0.6288
C6 C 0.5334(13) 0.0909(6) 0.61344(18)
C7 C 0.5666(15) -0.0256(7) 0.6429(2)
H10 H 0.7230 -0.0415 0.6455
H11 H 0.5020 -0.1001 0.6286
C8 C 0.4701(13) -0.0145(6) 0.68887(17)
H12 H 0.3118 -0.0010 0.6854
C9 C 0.4991(12) -0.1402(5) 0.71524(19)
C10 C 0.0981(12) 0.0533(7) 0.9606(2)
H13 H -0.0416 0.0263 0.9524
C11 C 0.1691(16) 0.0344(7) 1.0037(2)
H14 H 0.0799 -0.0086 1.0237
C12 C 0.3703(17) 0.0792(7) 1.0163(2)
H15 H 0.4164 0.0693 1.0452
C13 C 0.5031(15) 0.1383(7) 0.9867(3)
H16 H 0.6405 0.1674 0.9955
C14 C 0.4370(14) 0.1561(7) 0.9430(2)
H17 H 0.5295 0.1972 0.9231
C15 C 0.2340(12) 0.1123(6) 0.9297(2)
C16 C 0.1542(13) 0.1288(6) 0.8831(2)
H18 H 0.2436 0.1939 0.8688
H19 H 0.0045 0.1605 0.8838
C17 C 0.1606(11) 0.0062(6) 0.8556(2)
H20 H 0.0839 -0.0630 0.8712
C18 C 0.0442(12) 0.0322(6) 0.8123(2)
O1_2 O 0.8438(9) 0.0246(7) 0.81341(18)
O2B O 0.5316(11) 0.2567(4) 0.80590(14)
Mn1_2 Mn -0.47222(16) 0.05987(9) 0.78608(3)
Mn1B Mn 0.47222(16) -0.44013(9) 0.71392(3)
O3 O 0.0286(10) 0.2134(5) 0.70756(16)
loop_
_geom_bond_atom_site_label_1
_geom_bond_atom_site_label_2
_geom_bond_site_symmetry_1
_geom_bond_site_symmetry_2
Mn1 N1 1_555 1_555
N1 H1 1_555 1_555
H2 N1 1_555 1_555
N2 Mn1 1_555 1_555
H3 N2 1_555 1_555
H4 N2 1_555 1_555
O1 C18 1_555 1_555
O2 C9 1_555 1_555
O4 Mn1 1_555 1_555
O5 Mn1 1_555 1_555
C1 H5 1_555 1_555
C2 C1 1_555 1_555
H6 C2 1_555 1_555
C3 C2 1_555 1_555
H7 C3 1_555 1_555
C4 C3 1_555 1_555
H8 C4 1_555 1_555
C5 C4 1_555 1_555
H9 C5 1_555 1_555
C6 C1 1_555 1_555
C7 C6 1_555 1_555
H10 C7 1_555 1_555
H11 C7 1_555 1_555
C8 N1 1_555 1_555
H12 C8 1_555 1_555
C9 O4 1_555 1_555
C10 H13 1_555 1_555
C11 C10 1_555 1_555
H14 C11 1_555 1_555
C12 C11 1_555 1_555
H15 C12 1_555 1_555
C13 C12 1_555 1_555
H16 C13 1_555 1_555
C14 C13 1_555 1_555
H17 C14 1_555 1_555
C15 C10 1_555 1_555
C16 C15 1_555 1_555
H18 C16 1_555 1_555
H19 C16 1_555 1_555
C17 N2 1_555 1_555
H20 C17 1_555 1_555
C18 O5 1_555 1_555
O1_2 Mn1 1_555 1_555
O2B Mn1 1_555 1_555
Mn1_2 O1 1_555 1_555
Mn1B O2 1_555 1_555
C5 C6 1_555 1_555
C7 C8 1_555 1_555
C8 C9 1_555 1_555
C14 C15 1_555 1_555
C16 C17 1_555 1_555
C17 C18 1_555 1_555

#END
