
#######################################################################
#
#                 Cambridge Crystallographic Data Centre
#                                CCDC 
#
#######################################################################
#
# If this CIF has been generated from an entry in the Cambridge 
# Structural Database, then it will include bibliographic, chemical, 
# crystal, experimental, refinement or atomic coordinate data resulting 
# from the CCDC's data processing and validation procedures.
#
#######################################################################

data_AJIZIC
_symmetry_cell_setting           monoclinic
_symmetry_space_group_name_H-M   'P 21/c'
_symmetry_Int_Tables_number      14
_space_group_name_Hall           '-P 2ybc'
loop_
_symmetry_equiv_pos_site_id
_symmetry_equiv_pos_as_xyz
1 x,y,z
2 -x,1/2+y,1/2-z
3 -x,-y,-z
4 x,1/2-y,1/2+z
_cell_length_a                   10.618(6)
_cell_length_b                   14.683(8)
_cell_length_c                   16.050(9)
_cell_angle_alpha                90
_cell_angle_beta                 106.488(9)
_cell_angle_gamma                90
_cell_volume                     2399.37
loop_
_atom_site_label
_atom_site_type_symbol
_atom_site_fract_x
_atom_site_fract_y
_atom_site_fract_z
Sn1 Sn 0.390269(19) 0.481845(15) 0.234809(16)
N1 N 0.2752(3) 0.33172(17) 0.1590(2)
O1 O 0.5096(2) 0.10309(14) 0.21012(15)
O2 O 0.3454(2) 0.01399(15) 0.13685(19)
C1 C 0.3910(3) 0.0890(2) 0.1612(2)
C2 C 0.3478(3) 0.2557(2) 0.1767(2)
C3 C 0.3087(3) 0.17294(19) 0.1368(2)
C4 C 0.1870(3) 0.1691(2) 0.0747(2)
C5 C 0.1117(3) 0.2463(2) 0.0562(3)
C6 C 0.1587(3) 0.3257(2) 0.0990(3)
C7 C 0.5091(4) 0.4486(3) 0.1508(3)
C8 C 0.6112(3) 0.5162(2) 0.1432(3)
C9 C 0.5807(4) 0.5913(3) 0.0892(3)
C10 C 0.6801(6) 0.6492(3) 0.0804(4)
C11 C 0.8084(5) 0.6314(4) 0.1246(4)
C12 C 0.8397(5) 0.5593(4) 0.1786(4)
C13 C 0.7415(4) 0.5027(3) 0.1884(3)
C14 C 0.2137(3) 0.5605(3) 0.1788(3)
C15 C 0.2286(3) 0.6280(2) 0.1127(3)
C16 C 0.2047(5) 0.6033(3) 0.0259(3)
C17 C 0.2194(6) 0.6635(4) -0.0365(4)
C18 C 0.2600(6) 0.7488(5) -0.0125(6)
C19 C 0.2862(5) 0.7779(3) 0.0711(6)
C20 C 0.2690(4) 0.7159(3) 0.1346(4)
C21 C 0.3804(3) 0.4135(3) 0.3518(3)
C22 C 0.2468(3) 0.4265(2) 0.3632(2)
C23 C 0.1461(4) 0.3654(3) 0.3298(3)
C24 C 0.0216(4) 0.3804(3) 0.3397(3)
C25 C -0.0032(5) 0.4565(4) 0.3816(3)
C26 C 0.0943(5) 0.5172(3) 0.4138(3)
C27 C 0.2182(4) 0.5028(3) 0.4058(3)
H1 H 0.433(3) 0.260(2) 0.2229(19)
H2 H 0.158(3) 0.114(2) 0.049(2)
H3 H 0.026(3) 0.242(2) 0.015(2)
H4 H 0.104(3) 0.383(2) 0.086(2)
H5 H 0.550(4) 0.390(3) 0.175(2)
H6 H 0.445(4) 0.439(3) 0.097(3)
H7 H 0.496(4) 0.601(2) 0.060(2)
H8 H 0.649(4) 0.694(3) 0.043(3)
H9 H 0.878(5) 0.675(3) 0.115(3)
H10 H 0.936(5) 0.545(3) 0.220(3)
H11 H 0.757(5) 0.442(4) 0.224(3)
H12 H 0.195(4) 0.587(3) 0.227(3)
H13 H 0.139(4) 0.517(2) 0.150(3)
H14 H 0.173(5) 0.545(3) 0.012(3)
H15 H 0.191(7) 0.643(5) -0.105(5)
H16 H 0.284(5) 0.786(4) -0.059(4)
H17 H 0.309(4) 0.830(3) 0.094(3)
H18 H 0.279(3) 0.732(2) 0.192(2)
H19 H 0.441(3) 0.440(2) 0.395(2)
H20 H 0.397(3) 0.348(2) 0.347(2)
H21 H 0.168(3) 0.312(2) 0.305(2)
H22 H -0.028(4) 0.331(3) 0.325(3)
H23 H -0.092(4) 0.461(3) 0.384(3)
H24 H 0.079(4) 0.568(3) 0.444(2)
H25 H 0.293(4) 0.545(3) 0.430(3)
O1A O 0.4904(2) 0.60309(14) 0.28988(15)
Sn1A Sn 0.609731(19) -0.018155(15) 0.265191(16)
loop_
_geom_bond_atom_site_label_1
_geom_bond_atom_site_label_2
_geom_bond_site_symmetry_1
_geom_bond_site_symmetry_2
Sn1 N1 1_555 1_555
N1 C2 1_555 1_555
O1 C1 1_555 1_555
O2 C1 1_555 1_555
C1 C3 1_555 1_555
C2 C3 1_555 1_555
C3 C4 1_555 1_555
C4 C5 1_555 1_555
C5 C6 1_555 1_555
C6 N1 1_555 1_555
C7 Sn1 1_555 1_555
C8 C7 1_555 1_555
C9 C8 1_555 1_555
C10 C9 1_555 1_555
C11 C10 1_555 1_555
C12 C11 1_555 1_555
C13 C8 1_555 1_555
C14 Sn1 1_555 1_555
C15 C14 1_555 1_555
C16 C15 1_555 1_555
C17 C16 1_555 1_555
C18 C17 1_555 1_555
C19 C18 1_555 1_555
C20 C15 1_555 1_555
C21 Sn1 1_555 1_555
C22 C21 1_555 1_555
C23 C22 1_555 1_555
C24 C23 1_555 1_555
C25 C24 1_555 1_555
C26 C25 1_555 1_555
C27 C22 1_555 1_555
H1 C2 1_555 1_555
H2 C4 1_555 1_555
H3 C5 1_555 1_555
H4 C6 1_555 1_555
H5 C7 1_555 1_555
H6 C7 1_555 1_555
H7 C9 1_555 1_555
H8 C10 1_555 1_555
H9 C11 1_555 1_555
H10 C12 1_555 1_555
H11 C13 1_555 1_555
H12 C14 1_555 1_555
H13 C14 1_555 1_555
H14 C16 1_555 1_555
H15 C17 1_555 1_555
H16 C18 1_555 1_555
H17 C19 1_555 1_555
H18 C20 1_555 1_555
H19 C21 1_555 1_555
H20 C21 1_555 1_555
H21 C23 1_555 1_555
H22 C24 1_555 1_555
H23 C25 1_555 1_555
H24 C26 1_555 1_555
H25 C27 1_555 1_555
O1A Sn1 1_555 1_555
Sn1A O1 1_555 1_555
C12 C13 1_555 1_555
C19 C20 1_555 1_555
C26 C27 1_555 1_555

#END
