
#######################################################################
#
#                 Cambridge Crystallographic Data Centre
#                                CCDC 
#
#######################################################################
#
# If this CIF has been generated from an entry in the Cambridge 
# Structural Database, then it will include bibliographic, chemical, 
# crystal, experimental, refinement or atomic coordinate data resulting 
# from the CCDC's data processing and validation procedures.
#
#######################################################################

data_AJODUZ
_symmetry_cell_setting           orthorhombic
_symmetry_space_group_name_H-M   'P c a 21'
_symmetry_Int_Tables_number      29
_space_group_name_Hall           'P 2c -2ac'
loop_
_symmetry_equiv_pos_site_id
_symmetry_equiv_pos_as_xyz
1 x,y,z
2 -x,-y,1/2+z
3 1/2+x,-y,z
4 1/2-x,y,1/2+z
_cell_length_a                   11.4930(13)
_cell_length_b                   16.582(2)
_cell_length_c                   14.6145(17)
_cell_angle_alpha                90
_cell_angle_beta                 90
_cell_angle_gamma                90
_cell_volume                     2785.19
loop_
_atom_site_label
_atom_site_type_symbol
_atom_site_fract_x
_atom_site_fract_y
_atom_site_fract_z
Zn1 Zn 0.62310(7) 0.75258(5) 0.83037(11)
C1 C 0.5779(6) 0.9354(5) 0.8522(5)
H1 H 0.5145 0.9253 0.8143
C2 C 0.5985(7) 1.0133(5) 0.8802(6)
H2 H 0.5501 1.0549 0.8611
C3 C 0.6919(7) 1.0289(5) 0.9369(5)
H3 H 0.7071 1.0811 0.9569
C4 C 0.7623(6) 0.9656(4) 0.9633(5)
C5 C 0.7370(6) 0.8886(4) 0.9320(5)
H4 H 0.7850 0.8462 0.9493
C6 C 0.8614(7) 0.9751(5) 1.0260(5)
C7 C 1.0018(8) 1.0341(5) 1.1007(5)
C8 C 1.0871(9) 1.0832(6) 1.1475(6)
H5 H 1.0837 1.1392 1.1445
C9 C 1.1730(7) 1.0455(6) 1.1964(6)
H6 H 1.2279 1.0765 1.2273
C10 C 1.1795(7) 0.9638(6) 1.2005(6)
H7 H 1.2401 0.9407 1.2336
C11 C 1.1021(7) 0.9143(5) 1.1587(6)
H8 H 1.1093 0.8585 1.1626
C12 C 1.0082(8) 0.9509(5) 1.1079(6)
C13 C 0.6698(6) 0.5696(4) 0.8213(6)
H9 H 0.7334 0.5811 0.8584
C14 C 0.6501(7) 0.4899(5) 0.7986(6)
H10 H 0.6996 0.4497 0.8198
C15 C 0.5555(7) 0.4705(5) 0.7436(5)
H11 H 0.5392 0.4172 0.7282
C16 C 0.4861(6) 0.5332(4) 0.7126(5)
C17 C 0.5135(6) 0.6120(4) 0.7385(5)
H12 H 0.4671 0.6536 0.7163
C18 C 0.3819(7) 0.5208(5) 0.6531(5)
C19 C 0.2384(8) 0.5450(4) 0.5628(6)
C20 C 0.1562(8) 0.5818(6) 0.5154(6)
H13 H 0.1534 0.6376 0.5096
C21 C 0.0725(7) 0.5308(6) 0.4739(7)
H14 H 0.0121 0.5536 0.4405
C22 C 0.0790(8) 0.4460(6) 0.4824(6)
H15 H 0.0244 0.4139 0.4526
C23 C 0.1659(7) 0.4098(5) 0.5346(5)
H16 H 0.1699 0.3543 0.5436
C24 C 0.2431(8) 0.4611(4) 0.5707(6)
C25 C 0.8816(6) 0.7303(4) 0.7795(6)
C26 C 1.0078(3) 0.7417(2) 0.8077(3)
C27 C 1.0945(4) 0.7414(3) 0.7414(3)
H17 H 1.0751 0.7347 0.6800
C28 C 1.2102(4) 0.7512(3) 0.7667(3)
H18 H 1.2682 0.7511 0.7223
C29 C 1.2393(3) 0.7612(3) 0.8583(3)
C30 C 1.1526(4) 0.7615(3) 0.9246(3)
H19 H 1.1720 0.7682 0.9859
C31 C 1.0369(4) 0.7517(3) 0.8993(3)
H20 H 0.9789 0.7518 0.9437
C32 C 1.3664(7) 0.7762(5) 0.8859(7)
N1 N 0.6461(5) 0.8732(3) 0.8778(4)
N2 N 0.9208(5) 0.9151(4) 1.0608(4)
N3 N 0.9093(6) 1.0497(4) 1.0484(4)
N4 N 0.6033(5) 0.6314(4) 0.7935(4)
N5 N 0.3291(6) 0.5818(4) 0.6167(5)
N6 N 0.3401(5) 0.4473(4) 0.6327(4)
O1 O 0.8056(4) 0.7390(3) 0.8413(5)
O2 O 0.8588(4) 0.7148(3) 0.6969(4)
O3 O 1.3863(5) 0.7941(3) 0.9675(4)
O4 O 1.4417(4) 0.7666(3) 0.8238(5)
O5 O 0.6398(5) 0.7780(4) 0.6849(4)
O6 O 0.5998(5) 0.7211(4) 0.9795(5)
H21 H 0.6409 0.7637 0.9805
H22 H 0.7030 0.7532 0.6739
H23 H 0.5321 0.7400 0.9888
H24 H 0.6159 0.8211 0.6588
Zn1_2 Zn 1.62310(7) 0.75258(5) 0.83037(11)
O4_2 O 0.4417(4) 0.7666(3) 0.8238(5)
loop_
_geom_bond_atom_site_label_1
_geom_bond_atom_site_label_2
_geom_bond_site_symmetry_1
_geom_bond_site_symmetry_2
Zn1 N1 1_555 1_555
C1 H1 1_555 1_555
C2 C1 1_555 1_555
H2 C2 1_555 1_555
C3 C2 1_555 1_555
H3 C3 1_555 1_555
C4 C3 1_555 1_555
C5 C4 1_555 1_555
H4 C5 1_555 1_555
C6 C4 1_555 1_555
C7 C8 1_555 1_555
C8 H5 1_555 1_555
C9 C8 1_555 1_555
H6 C9 1_555 1_555
C10 C9 1_555 1_555
H7 C10 1_555 1_555
C11 C10 1_555 1_555
H8 C11 1_555 1_555
C12 C7 1_555 1_555
C13 H9 1_555 1_555
C14 C13 1_555 1_555
H10 C14 1_555 1_555
C15 C14 1_555 1_555
H11 C15 1_555 1_555
C16 C15 1_555 1_555
C17 C16 1_555 1_555
H12 C17 1_555 1_555
C18 C16 1_555 1_555
C19 C20 1_555 1_555
C20 H13 1_555 1_555
C21 C20 1_555 1_555
H14 C21 1_555 1_555
C22 C21 1_555 1_555
H15 C22 1_555 1_555
C23 C22 1_555 1_555
H16 C23 1_555 1_555
C24 C19 1_555 1_555
C25 C26 1_555 1_555
C26 C27 1_555 1_555
C27 H17 1_555 1_555
C28 C27 1_555 1_555
H18 C28 1_555 1_555
C29 C28 1_555 1_555
C30 C29 1_555 1_555
H19 C30 1_555 1_555
C31 C26 1_555 1_555
H20 C31 1_555 1_555
C32 C29 1_555 1_555
N1 C1 1_555 1_555
N2 C6 1_555 1_555
N3 C6 1_555 1_555
N4 Zn1 1_555 1_555
N5 C18 1_555 1_555
N6 C18 1_555 1_555
O1 Zn1 1_555 1_555
O2 C25 1_555 1_555
O3 C32 1_555 1_555
O4 C32 1_555 1_555
O5 Zn1 1_555 1_555
O6 Zn1 1_555 1_555
H21 O6 1_555 1_555
H22 O5 1_555 1_555
H23 O6 1_555 1_555
H24 O5 1_555 1_555
Zn1_2 O4 1_555 1_555
O4_2 Zn1 1_555 1_555
C5 N1 1_555 1_555
C7 N3 1_555 1_555
C11 C12 1_555 1_555
C12 N2 1_555 1_555
C13 N4 1_555 1_555
C17 N4 1_555 1_555
C19 N5 1_555 1_555
C23 C24 1_555 1_555
C24 N6 1_555 1_555
C25 O1 1_555 1_555
C30 C31 1_555 1_555

#END
