
#######################################################################
#
#                 Cambridge Crystallographic Data Centre
#                                CCDC 
#
#######################################################################
#
# If this CIF has been generated from an entry in the Cambridge 
# Structural Database, then it will include bibliographic, chemical, 
# crystal, experimental, refinement or atomic coordinate data resulting 
# from the CCDC's data processing and validation procedures.
#
#######################################################################

data_AJOFIQ
_symmetry_cell_setting           monoclinic
_symmetry_space_group_name_H-M   'P 21/c'
_symmetry_Int_Tables_number      14
_space_group_name_Hall           '-P 2ybc'
loop_
_symmetry_equiv_pos_site_id
_symmetry_equiv_pos_as_xyz
1 x,y,z
2 -x,1/2+y,1/2-z
3 -x,-y,-z
4 x,1/2-y,1/2+z
_cell_length_a                   10.217(2)
_cell_length_b                   15.274(3)
_cell_length_c                   18.315(3)
_cell_angle_alpha                90
_cell_angle_beta                 115.402(8)
_cell_angle_gamma                90
_cell_volume                     2581.81
loop_
_atom_site_label
_atom_site_type_symbol
_atom_site_fract_x
_atom_site_fract_y
_atom_site_fract_z
Zn1 Zn 1.13017(4) 1.15511(2) 0.72370(2)
S1 S 1.33404(12) 0.80674(8) 0.71494(8)
O1 O 1.3072(3) 1.08437(18) 0.77504(15)
O2 O 1.2617(3) 1.04495(16) 0.65026(15)
O3 O 1.0963(3) 0.7595(3) 0.76882(17)
O4 O 0.9025(3) 0.69274(17) 0.68292(15)
N1 N 0.9615(3) 1.07486(18) 0.65945(15)
N2 N 0.3254(3) 0.68877(18) 0.42182(16)
H1 H 0.2824 0.6922 0.3700
N3 N 0.1530(3) 0.25506(17) 0.65651(16)
C1 C 0.9141(4) 1.0597(2) 0.5804(2)
H2 H 0.9562 1.0908 0.5523
C2 C 0.8061(4) 1.0003(2) 0.53810(19)
H3 H 0.7758 0.9926 0.4829
C3 C 0.7430(3) 0.95201(19) 0.57922(18)
C4 C 0.7922(4) 0.9690(2) 0.66168(19)
H4 H 0.7524 0.9390 0.6915
C5 C 0.8991(4) 1.0299(2) 0.69885(19)
H5 H 0.9296 1.0404 0.7537
C6 C 0.6310(3) 0.88543(18) 0.53838(17)
C7 C 0.5362(3) 0.89074(19) 0.45625(18)
H6 H 0.5424 0.9383 0.4262
C8 C 0.4338(3) 0.8269(2) 0.41893(18)
H7 H 0.3708 0.8325 0.3645
C9 C 0.4235(3) 0.75368(18) 0.46212(18)
C10 C 0.5202(3) 0.74666(19) 0.54441(18)
H8 H 0.5170 0.6978 0.5740
C11 C 0.6192(3) 0.8121(2) 0.58103(18)
H9 H 0.6802 0.8075 0.6359
C12 C 0.2897(3) 0.61775(19) 0.45812(18)
C13 C 0.2641(3) 0.62879(19) 0.52622(19)
H10 H 0.2697 0.6843 0.5482
C14 C 0.2305(3) 0.55769(19) 0.56130(19)
H11 H 0.2134 0.5659 0.6068
C15 C 0.2217(3) 0.47351(18) 0.52986(18)
C16 C 0.2436(4) 0.4634(2) 0.4601(2)
H12 H 0.2370 0.4079 0.4378
C17 C 0.2749(4) 0.5344(2) 0.4239(2)
H13 H 0.2862 0.5268 0.3765
C18 C 0.1947(3) 0.39734(18) 0.57142(17)
C19 C 0.2593(4) 0.3164(2) 0.5742(2)
H14 H 0.3169 0.3081 0.5469
C20 C 0.2377(5) 0.2480(2) 0.6178(2)
H15 H 0.2842 0.1950 0.6203
C21 C 0.1060(4) 0.4035(2) 0.6109(2)
H16 H 0.0586 0.4559 0.6096
C22 C 0.0873(4) 0.3329(2) 0.6520(2)
H17 H 0.0268 0.3390 0.6778
C23 C 1.3317(4) 1.0386(2) 0.7233(2)
C24 C 1.4586(4) 0.9751(3) 0.7583(3)
H18 H 1.5463 1.0064 0.7663
H19 H 1.4686 0.9564 0.8110
C25 C 1.4478(4) 0.8943(3) 0.7080(3)
H20 H 1.5447 0.8712 0.7240
H21 H 1.4113 0.9119 0.6518
C26 C 1.1523(5) 0.8459(3) 0.6513(3)
H22 H 1.1260 0.8910 0.6798
H23 H 1.1509 0.8717 0.6026
C27 C 1.0415(5) 0.7717(3) 0.6284(2)
H24 H 0.9509 0.7918 0.5857
H25 H 1.0759 0.7230 0.6073
C28 C 1.0134(4) 0.7397(2) 0.6994(2)
Zn1_2 Zn 0.13017(4) 0.15511(2) 0.72370(2)
Zn1A Zn 0.86983(4) 0.65511(2) 0.77630(2)
O4A O 1.0975(3) 1.19274(17) 0.81708(15)
N3_2 N 1.1530(3) 1.25506(17) 0.65651(16)
loop_
_geom_bond_atom_site_label_1
_geom_bond_atom_site_label_2
_geom_bond_site_symmetry_1
_geom_bond_site_symmetry_2
Zn1 O1 1_555 1_555
S1 C25 1_555 1_555
O1 C23 1_555 1_555
O2 C23 1_555 1_555
O3 C28 1_555 1_555
O4 C28 1_555 1_555
N1 Zn1 1_555 1_555
N2 H1 1_555 1_555
N3 C20 1_555 1_555
C1 N1 1_555 1_555
H2 C1 1_555 1_555
C2 C1 1_555 1_555
H3 C2 1_555 1_555
C3 C2 1_555 1_555
C4 C3 1_555 1_555
H4 C4 1_555 1_555
C5 N1 1_555 1_555
H5 C5 1_555 1_555
C6 C3 1_555 1_555
C7 C6 1_555 1_555
H6 C7 1_555 1_555
C8 C7 1_555 1_555
H7 C8 1_555 1_555
C9 N2 1_555 1_555
C10 C9 1_555 1_555
H8 C10 1_555 1_555
C11 C6 1_555 1_555
H9 C11 1_555 1_555
C12 N2 1_555 1_555
C13 C12 1_555 1_555
H10 C13 1_555 1_555
C14 C13 1_555 1_555
H11 C14 1_555 1_555
C15 C14 1_555 1_555
C16 C15 1_555 1_555
H12 C16 1_555 1_555
C17 C12 1_555 1_555
H13 C17 1_555 1_555
C18 C15 1_555 1_555
C19 C18 1_555 1_555
H14 C19 1_555 1_555
C20 C19 1_555 1_555
H15 C20 1_555 1_555
C21 C18 1_555 1_555
H16 C21 1_555 1_555
C22 N3 1_555 1_555
H17 C22 1_555 1_555
C23 C24 1_555 1_555
C24 H18 1_555 1_555
H19 C24 1_555 1_555
C25 C24 1_555 1_555
H20 C25 1_555 1_555
H21 C25 1_555 1_555
C26 S1 1_555 1_555
H22 C26 1_555 1_555
H23 C26 1_555 1_555
C27 C26 1_555 1_555
H24 C27 1_555 1_555
H25 C27 1_555 1_555
C28 C27 1_555 1_555
Zn1_2 N3 1_555 1_555
Zn1A O4 1_555 1_555
O4A Zn1 1_555 1_555
N3_2 Zn1 1_555 1_555
C4 C5 1_555 1_555
C8 C9 1_555 1_555
C10 C11 1_555 1_555
C16 C17 1_555 1_555
C21 C22 1_555 1_555

#END
