
#######################################################################
#
#                 Cambridge Crystallographic Data Centre
#                                CCDC 
#
#######################################################################
#
# If this CIF has been generated from an entry in the Cambridge 
# Structural Database, then it will include bibliographic, chemical, 
# crystal, experimental, refinement or atomic coordinate data resulting 
# from the CCDC's data processing and validation procedures.
#
#######################################################################

data_AJOHOY
_symmetry_cell_setting           triclinic
_symmetry_space_group_name_H-M   'P -1'
_symmetry_Int_Tables_number      2
_space_group_name_Hall           '-P 1'
loop_
_symmetry_equiv_pos_site_id
_symmetry_equiv_pos_as_xyz
1 x,y,z
2 -x,-y,-z
_cell_length_a                   11.0260(12)
_cell_length_b                   13.8249(13)
_cell_length_c                   16.0081(15)
_cell_angle_alpha                76.1540(10)
_cell_angle_beta                 88.492(2)
_cell_angle_gamma                67.4610(10)
_cell_volume                     2182.47
loop_
_atom_site_label
_atom_site_type_symbol
_atom_site_fract_x
_atom_site_fract_y
_atom_site_fract_z
Ag1 Ag 0.29697(4) 0.59841(3) 0.21702(2)
F1 F 0.4398(4) 0.1939(4) 0.1742(3)
F2 F 0.5048(6) 0.1202(4) 0.3047(4)
F3 F 0.5855(4) 0.2247(4) 0.2370(4)
N1 N 0.1261(4) 0.6231(4) 0.3104(3)
O1 O 0.3257(6) 0.4082(4) 0.2033(3)
O2 O 0.2437(5) 0.2848(5) 0.2915(4)
O3 O 0.4040(5) 0.3345(4) 0.3490(3)
P1 P 0.48176(11) 0.61834(9) 0.28215(7)
P2 P 0.21233(12) 0.66638(10) 0.06484(7)
S1 S 0.34586(13) 0.32076(11) 0.27728(9)
C1 C 0.0077(5) 0.6984(4) 0.2879(3)
H1 H -0.0120 0.7347 0.2299
C2 C 0.1525(5) 0.5718(4) 0.3959(3)
H2 H 0.2352 0.5172 0.4136
C3 C 0.0660(5) 0.5952(5) 0.4562(3)
H3 H 0.0903 0.5579 0.5137
C4 C -0.0613(5) 0.6763(4) 0.4325(3)
C5 C -0.0920(5) 0.7286(4) 0.3449(3)
C6 C -0.2190(5) 0.8095(4) 0.3179(4)
H4 H -0.2409 0.8455 0.2600
C7 C -0.3082(6) 0.8343(5) 0.3767(5)
H5 H -0.3916 0.8877 0.3587
C8 C -0.2779(6) 0.7814(5) 0.4636(5)
H6 H -0.3414 0.7994 0.5029
C9 C -0.1579(6) 0.7048(5) 0.4915(4)
H7 H -0.1385 0.6704 0.5499
C10 C 0.4768(5) 0.6166(3) 0.3973(3)
H8 H 0.5366 0.6473 0.4120
H9 H 0.3886 0.6610 0.4086
C11 C 0.5156(4) 0.5014(4) 0.4536(2)
H10 H 0.4694 0.4654 0.4302
H11 H 0.6093 0.4617 0.4517
C12 C 0.6501(4) 0.5263(3) 0.2759(3)
C13 C 0.6729(5) 0.4303(4) 0.2544(3)
H12 H 0.6022 0.4141 0.2416
C14 C 0.8008(5) 0.3575(5) 0.2518(4)
H13 H 0.8157 0.2929 0.2373
C15 C 0.9049(5) 0.3818(5) 0.2709(4)
H14 H 0.9906 0.3335 0.2687
C16 C 0.8838(5) 0.4762(4) 0.2929(3)
H15 H 0.9550 0.4915 0.3062
C17 C 0.7568(5) 0.5492(4) 0.2956(3)
H16 H 0.7428 0.6135 0.3106
C18 C 0.4811(4) 0.7503(4) 0.2274(3)
C19 C 0.5439(5) 0.7614(4) 0.1515(3)
H17 H 0.5891 0.7010 0.1306
C20 C 0.5401(6) 0.8611(5) 0.1069(4)
H18 H 0.5822 0.8676 0.0560
C21 C 0.4746(6) 0.9502(5) 0.1371(4)
H19 H 0.4739 1.0171 0.1075
C22 C 0.4102(6) 0.9414(4) 0.2105(4)
H20 H 0.3636 1.0028 0.2299
C23 C 0.4138(5) 0.8420(4) 0.2562(3)
H21 H 0.3705 0.8366 0.3068
C24 C 0.3174(5) 0.5784(4) 0.0011(3)
H22 H 0.2995 0.5133 0.0116
H23 H 0.2947 0.6147 -0.0596
C25 C 0.4586(6) 0.5476(5) 0.0195(4)
H24 H 0.4787 0.5269 0.0814
H25 H 0.4817 0.6092 -0.0045
C26 C 0.2067(4) 0.8028(4) 0.0207(3)
C27 C 0.2385(6) 0.8404(5) -0.0610(4)
H26 H 0.2649 0.7949 -0.0983
C28 C 0.2317(7) 0.9456(6) -0.0881(5)
H27 H 0.2539 0.9700 -0.1433
C29 C 0.1929(6) 1.0134(5) -0.0348(5)
H28 H 0.1880 1.0839 -0.0537
C30 C 0.1614(6) 0.9777(5) 0.0462(4)
H29 H 0.1338 1.0242 0.0826
C31 C 0.1702(5) 0.8725(4) 0.0747(3)
H30 H 0.1514 0.8481 0.1309
C32 C 0.0523(5) 0.6721(4) 0.0316(3)
C33 C -0.0020(6) 0.6071(5) 0.0850(3)
H31 H 0.0405 0.5652 0.1385
C34 C -0.1190(6) 0.6041(5) 0.0594(4)
H32 H -0.1550 0.5603 0.0956
C35 C -0.1814(6) 0.6649(5) -0.0187(4)
H33 H -0.2601 0.6627 -0.0356
C36 C -0.1290(6) 0.7301(5) -0.0732(4)
H34 H -0.1727 0.7717 -0.1265
C37 C -0.0121(5) 0.7339(4) -0.0492(3)
H35 H 0.0237 0.7772 -0.0863
C38 C 0.4753(7) 0.2131(5) 0.2442(5)
P1A P 0.51824(11) 0.38166(9) 0.71785(7)
C10A C 0.5232(5) 0.3834(3) 0.6027(3)
H8A H 0.4634 0.3527 0.5880
H9A H 0.6114 0.3390 0.5914
C11A C 0.4844(4) 0.4986(4) 0.5464(2)
H10A H 0.5306 0.5346 0.5698
H11A H 0.3907 0.5383 0.5483
C12A C 0.3499(4) 0.4737(3) 0.7241(3)
C13A C 0.3271(5) 0.5697(4) 0.7456(3)
H12A H 0.3978 0.5859 0.7584
C14A C 0.1992(5) 0.6425(5) 0.7482(4)
H13A H 0.1843 0.7071 0.7627
C15A C 0.0951(5) 0.6182(5) 0.7291(4)
H14A H 0.0094 0.6665 0.7313
C16A C 0.1162(5) 0.5238(4) 0.7071(3)
H15A H 0.0450 0.5085 0.6938
C17A C 0.2432(5) 0.4508(4) 0.7044(3)
H16A H 0.2572 0.3865 0.6894
C18A C 0.5189(4) 0.2497(4) 0.7726(3)
C19A C 0.4561(5) 0.2386(4) 0.8485(3)
H17A H 0.4109 0.2990 0.8694
C20A C 0.4599(6) 0.1389(5) 0.8931(4)
H18A H 0.4178 0.1324 0.9440
C21A C 0.5254(6) 0.0498(5) 0.8629(4)
H19A H 0.5261 -0.0171 0.8925
C22A C 0.5898(6) 0.0586(4) 0.7895(4)
H20A H 0.6364 -0.0028 0.7701
C23A C 0.5862(5) 0.1580(4) 0.7438(3)
H21A H 0.6295 0.1634 0.6932
P2A P 0.78767(12) 0.33362(10) -0.06484(7)
C24A C 0.6826(5) 0.4216(4) -0.0011(3)
H22A H 0.7005 0.4867 -0.0116
H23A H 0.7053 0.3853 0.0596
C25A C 0.5414(6) 0.4524(5) -0.0195(4)
H24A H 0.5213 0.4731 -0.0814
H25A H 0.5183 0.3908 0.0045
C26A C 0.7933(4) 0.1972(4) -0.0207(3)
C27A C 0.7615(6) 0.1596(5) 0.0610(4)
H26A H 0.7351 0.2051 0.0983
C28A C 0.7683(7) 0.0544(6) 0.0881(5)
H27A H 0.7461 0.0300 0.1433
C29A C 0.8071(6) -0.0134(5) 0.0348(5)
H28A H 0.8120 -0.0839 0.0537
C30A C 0.8386(6) 0.0223(5) -0.0462(4)
H29A H 0.8662 -0.0242 -0.0826
C31A C 0.8298(5) 0.1275(4) -0.0747(3)
H30A H 0.8486 0.1519 -0.1309
C32A C 0.9477(5) 0.3279(4) -0.0316(3)
C33A C 1.0020(6) 0.3929(5) -0.0850(3)
H31A H 0.9595 0.4348 -0.1385
C34A C 1.1190(6) 0.3959(5) -0.0594(4)
H32A H 1.1550 0.4397 -0.0956
C35A C 1.1814(6) 0.3351(5) 0.0187(4)
H33A H 1.2601 0.3373 0.0356
C36A C 1.1290(6) 0.2699(5) 0.0732(4)
H34A H 1.1727 0.2283 0.1265
C37A C 1.0121(5) 0.2661(4) 0.0492(3)
H35A H 0.9763 0.2228 0.0863
Ag1A Ag 0.70303(4) 0.40159(3) -0.21702(2)
F1A F 0.5602(4) 0.8061(4) -0.1742(3)
F2A F 0.4952(6) 0.8798(4) -0.3047(4)
F3A F 0.4145(4) 0.7753(4) -0.2370(4)
N1A N 0.8739(4) 0.3769(4) -0.3104(3)
O1A O 0.6743(6) 0.5918(4) -0.2033(3)
O2A O 0.7563(5) 0.7152(5) -0.2915(4)
O3A O 0.5960(5) 0.6655(4) -0.3490(3)
S1A S 0.65414(13) 0.67924(11) -0.27728(9)
C1A C 0.9923(5) 0.3016(4) -0.2879(3)
H1A H 1.0120 0.2653 -0.2299
C2A C 0.8475(5) 0.4282(4) -0.3959(3)
H2A H 0.7648 0.4828 -0.4136
C3A C 0.9340(5) 0.4048(5) -0.4562(3)
H3A H 0.9097 0.4421 -0.5137
C4A C 1.0613(5) 0.3237(4) -0.4325(3)
C5A C 1.0920(5) 0.2714(4) -0.3449(3)
C6A C 1.2190(5) 0.1905(4) -0.3179(4)
H4A H 1.2409 0.1545 -0.2600
C7A C 1.3082(6) 0.1657(5) -0.3767(5)
H5A H 1.3916 0.1123 -0.3587
C8A C 1.2779(6) 0.2186(5) -0.4636(5)
H6A H 1.3414 0.2006 -0.5029
C9A C 1.1579(6) 0.2952(5) -0.4915(4)
H7A H 1.1385 0.3296 -0.5499
C38A C 0.5247(7) 0.7869(5) -0.2442(5)
Ag1A_2 Ag 0.70303(4) 0.40159(3) 0.78298(2)
P1A_2 P 0.51824(11) 0.38166(9) -0.28215(7)
N2 N 0.0016(10) 1.0908(6) 0.2769(5)
C39 C 0.1083(10) 1.0814(6) 0.3180(6)
H36 H 0.1468 1.1308 0.2966
C40 C -0.0552(11) 1.0204(9) 0.3131(7)
H37 H -0.1337 1.0288 0.2863
C41 C -0.0076(9) 0.9412(7) 0.3835(6)
H38 H -0.0524 0.8967 0.4050
C42 C 0.1098(8) 0.9251(5) 0.4247(5)
C43 C 0.1677(7) 0.9984(6) 0.3943(4)
C44 C 0.2831(9) 0.9906(8) 0.4349(6)
H39 H 0.3196 1.0418 0.4154
C45 C 0.3399(10) 0.9048(10) 0.5044(7)
H40 H 0.4184 0.8963 0.5313
C46 C 0.2850(12) 0.8317(9) 0.5351(6)
H41 H 0.3277 0.7744 0.5823
C47 C 0.1711(11) 0.8386(7) 0.5001(6)
H42 H 0.1335 0.7893 0.5238
loop_
_geom_bond_atom_site_label_1
_geom_bond_atom_site_label_2
_geom_bond_site_symmetry_1
_geom_bond_site_symmetry_2
Ag1 N1 1_555 1_555
F1 C38 1_555 1_555
F2 C38 1_555 1_555
F3 C38 1_555 1_555
N1 C1 1_555 1_555
O1 Ag1 1_555 1_555
O2 S1 1_555 1_555
O3 S1 1_555 1_555
P1 Ag1 1_555 1_555
P2 Ag1 1_555 1_555
S1 O1 1_555 1_555
C1 H1 1_555 1_555
C2 N1 1_555 1_555
H2 C2 1_555 1_555
C3 C2 1_555 1_555
H3 C3 1_555 1_555
C4 C3 1_555 1_555
C5 C1 1_555 1_555
C6 C5 1_555 1_555
H4 C6 1_555 1_555
C7 C6 1_555 1_555
H5 C7 1_555 1_555
C8 C7 1_555 1_555
H6 C8 1_555 1_555
C9 C4 1_555 1_555
H7 C9 1_555 1_555
C10 P1 1_555 1_555
H8 C10 1_555 1_555
H9 C10 1_555 1_555
C11 C10 1_555 1_555
H10 C11 1_555 1_555
H11 C11 1_555 1_555
C12 P1 1_555 1_555
C13 C12 1_555 1_555
H12 C13 1_555 1_555
C14 C13 1_555 1_555
H13 C14 1_555 1_555
C15 C14 1_555 1_555
H14 C15 1_555 1_555
C16 C15 1_555 1_555
H15 C16 1_555 1_555
C17 C12 1_555 1_555
H16 C17 1_555 1_555
C18 P1 1_555 1_555
C19 C18 1_555 1_555
H17 C19 1_555 1_555
C20 C19 1_555 1_555
H18 C20 1_555 1_555
C21 C20 1_555 1_555
H19 C21 1_555 1_555
C22 C21 1_555 1_555
H20 C22 1_555 1_555
C23 C18 1_555 1_555
H21 C23 1_555 1_555
C24 P2 1_555 1_555
H22 C24 1_555 1_555
H23 C24 1_555 1_555
C25 C24 1_555 1_555
H24 C25 1_555 1_555
H25 C25 1_555 1_555
C26 P2 1_555 1_555
C27 C26 1_555 1_555
H26 C27 1_555 1_555
C28 C27 1_555 1_555
H27 C28 1_555 1_555
C29 C28 1_555 1_555
H28 C29 1_555 1_555
C30 C29 1_555 1_555
H29 C30 1_555 1_555
C31 C26 1_555 1_555
H30 C31 1_555 1_555
C32 P2 1_555 1_555
C33 C32 1_555 1_555
H31 C33 1_555 1_555
C34 C33 1_555 1_555
H32 C34 1_555 1_555
C35 C34 1_555 1_555
H33 C35 1_555 1_555
C36 C35 1_555 1_555
H34 C36 1_555 1_555
C37 C32 1_555 1_555
H35 C37 1_555 1_555
C38 S1 1_555 1_555
N2 C39 1_555 1_555
C39 H36 1_555 1_555
C40 N2 1_555 1_555
H37 C40 1_555 1_555
C41 C40 1_555 1_555
H38 C41 1_555 1_555
C42 C41 1_555 1_555
C43 C39 1_555 1_555
C44 C43 1_555 1_555
H39 C44 1_555 1_555
C45 C44 1_555 1_555
H40 C45 1_555 1_555
C46 C45 1_555 1_555
H41 C46 1_555 1_555
C47 C42 1_555 1_555
H42 C47 1_555 1_555
P1A C10A 1_555 1_555
C10A H8A 1_555 1_555
H9A C10A 1_555 1_555
C11A C11 1_555 1_555
H10A C11A 1_555 1_555
H11A C11A 1_555 1_555
C12A P1A 1_555 1_555
C13A C12A 1_555 1_555
H12A C13A 1_555 1_555
C14A C13A 1_555 1_555
H13A C14A 1_555 1_555
C15A C14A 1_555 1_555
H14A C15A 1_555 1_555
C16A C15A 1_555 1_555
H15A C16A 1_555 1_555
C17A C12A 1_555 1_555
H16A C17A 1_555 1_555
C18A P1A 1_555 1_555
C19A C18A 1_555 1_555
H17A C19A 1_555 1_555
C20A C19A 1_555 1_555
H18A C20A 1_555 1_555
C21A C20A 1_555 1_555
H19A C21A 1_555 1_555
C22A C21A 1_555 1_555
H20A C22A 1_555 1_555
C23A C18A 1_555 1_555
H21A C23A 1_555 1_555
P2A C24A 1_555 1_555
C24A H22A 1_555 1_555
H23A C24A 1_555 1_555
C25A C25 1_555 1_555
H24A C25A 1_555 1_555
H25A C25A 1_555 1_555
C26A P2A 1_555 1_555
C27A C26A 1_555 1_555
H26A C27A 1_555 1_555
C28A C27A 1_555 1_555
H27A C28A 1_555 1_555
C29A C28A 1_555 1_555
H28A C29A 1_555 1_555
C30A C29A 1_555 1_555
H29A C30A 1_555 1_555
C31A C26A 1_555 1_555
H30A C31A 1_555 1_555
C32A P2A 1_555 1_555
C33A C32A 1_555 1_555
H31A C33A 1_555 1_555
C34A C33A 1_555 1_555
H32A C34A 1_555 1_555
C35A C34A 1_555 1_555
H33A C35A 1_555 1_555
C36A C35A 1_555 1_555
H34A C36A 1_555 1_555
C37A C32A 1_555 1_555
H35A C37A 1_555 1_555
Ag1A P2A 1_555 1_555
F1A C38A 1_555 1_555
F2A C38A 1_555 1_555
F3A C38A 1_555 1_555
N1A Ag1A 1_555 1_555
O1A Ag1A 1_555 1_555
O2A S1A 1_555 1_555
O3A S1A 1_555 1_555
S1A O1A 1_555 1_555
C1A N1A 1_555 1_555
H1A C1A 1_555 1_555
C2A N1A 1_555 1_555
H2A C2A 1_555 1_555
C3A C2A 1_555 1_555
H3A C3A 1_555 1_555
C4A C3A 1_555 1_555
C5A C1A 1_555 1_555
C6A C5A 1_555 1_555
H4A C6A 1_555 1_555
C7A C6A 1_555 1_555
H5A C7A 1_555 1_555
C8A C7A 1_555 1_555
H6A C8A 1_555 1_555
C9A C4A 1_555 1_555
H7A C9A 1_555 1_555
C38A S1A 1_555 1_555
Ag1A_2 P1A 1_555 1_555
P1A_2 Ag1A 1_555 1_555
C4 C5 1_555 1_555
C8 C9 1_555 1_555
C16 C17 1_555 1_555
C22 C23 1_555 1_555
C30 C31 1_555 1_555
C36 C37 1_555 1_555
C42 C43 1_555 1_555
C46 C47 1_555 1_555
C10A C11A 1_555 1_555
C16A C17A 1_555 1_555
C22A C23A 1_555 1_555
C24A C25A 1_555 1_555
C30A C31A 1_555 1_555
C36A C37A 1_555 1_555
C4A C5A 1_555 1_555
C8A C9A 1_555 1_555

#END
