
#######################################################################
#
#                 Cambridge Crystallographic Data Centre
#                                CCDC 
#
#######################################################################
#
# If this CIF has been generated from an entry in the Cambridge 
# Structural Database, then it will include bibliographic, chemical, 
# crystal, experimental, refinement or atomic coordinate data resulting 
# from the CCDC's data processing and validation procedures.
#
#######################################################################

data_AJOLAM01
_symmetry_cell_setting           orthorhombic
_symmetry_space_group_name_H-M   'C 2 2 21'
_symmetry_Int_Tables_number      20
_space_group_name_Hall           'C 2n 2'
loop_
_symmetry_equiv_pos_site_id
_symmetry_equiv_pos_as_xyz
1 x,y,z
2 -x,-y,1/2+z
3 -x,y,1/2-z
4 x,-y,-z
5 1/2+x,1/2+y,z
6 1/2-x,1/2-y,1/2+z
7 1/2-x,1/2+y,1/2-z
8 1/2+x,1/2-y,-z
_cell_length_a                   15.075(5)
_cell_length_b                   48.021(17)
_cell_length_c                   28.944(9)
_cell_angle_alpha                90
_cell_angle_beta                 90
_cell_angle_gamma                90
_cell_volume                     20953
loop_
_atom_site_label
_atom_site_type_symbol
_atom_site_fract_x
_atom_site_fract_y
_atom_site_fract_z
Sn1 Sn 0.68344(4) 0.077967(15) 0.44417(2)
Sn2 Sn 0.87715(4) 0.165584(15) 0.37882(2)
Sn3 Sn 0.74955(5) 0.263500(15) 0.30270(2)
Sn4 Sn 1.14494(5) 0.142520(15) 0.60656(2)
Sn5 Sn 1.32713(5) 0.083080(16) 0.47310(3)
O1 O 0.7857(4) 0.11298(14) 0.4323(3)
O2 O 0.9201(4) 0.13152(15) 0.4236(3)
O3 O 0.8363(4) 0.20330(14) 0.3335(2)
O4 O 0.8194(5) 0.22910(13) 0.2701(2)
O5 O 1.1777(5) 0.19740(14) 0.6680(2)
O6 O 1.0826(5) 0.16282(15) 0.6665(2)
O7 O 1.1957(4) 0.11961(14) 0.5406(2)
O8 O 1.1905(4) 0.09843(15) 0.4736(2)
O9 O 0.5947(5) 0.04291(15) 0.4555(3)
O10 O 0.4731(4) 0.06782(15) 0.4671(3)
C1 C 0.8675(6) 0.11478(19) 0.4427(3)
C2 C 0.9036(7) 0.0973(3) 0.4833(4)
C3 C 1.0068(8) 0.0928(2) 0.4815(4)
C4 C 1.0575(6) 0.1197(2) 0.4972(4)
C5 C 1.1556(6) 0.1126(2) 0.5050(4)
C6 C 0.8552(6) 0.2091(2) 0.2922(3)
C7 C 0.9227(6) 0.1917(2) 0.2652(3)
C8 C 1.0000 0.2114(3) 0.2500
C9 C 1.1081(7) 0.1859(2) 0.6819(3)
C10 C 1.0439(7) 0.2005(2) 0.7144(4)
C11 C 1.0000 0.1811(3) 0.7500
C12 C 0.5124(8) 0.0449(2) 0.4646(4)
C13 C 0.4625(11) 0.0178(3) 0.4667(10)
C14 C 0.4987(18) -0.0062(7) 0.4679(11)
C15 C 0.6749(7) 0.0910(3) 0.5132(3)
C16 C 0.6490(10) 0.0720(4) 0.5489(5)
C17 C 0.6396(11) 0.0822(6) 0.5954(6)
C18 C 0.6531(13) 0.1109(7) 0.6036(8)
C19 C 0.6762(12) 0.1307(5) 0.5701(6)
C20 C 0.6881(8) 0.1192(3) 0.5261(5)
C21 C 0.7795(7) 0.0486(2) 0.4221(5)
C22 C 0.7947(10) 0.0241(3) 0.4464(7)
C23 C 0.8686(18) 0.0063(3) 0.4308(9)
C24 C 0.9140(16) 0.0142(5) 0.3901(10)
C25 C 0.9022(13) 0.0391(4) 0.3667(8)
C26 C 0.8335(9) 0.0558(3) 0.3829(6)
C27 C 0.6092(7) 0.0956(2) 0.3883(4)
C28 C 0.6029(9) 0.0796(3) 0.3486(4)
C29 C 0.5563(11) 0.0887(4) 0.3103(6)
C30 C 0.5084(11) 0.1118(6) 0.3157(6)
C31 C 0.5124(11) 0.1288(4) 0.3545(7)
C32 C 0.5657(9) 0.1202(3) 0.3922(5)
C33 C 1.0155(6) 0.1778(2) 0.3734(3)
C34 C 1.0380(8) 0.2059(2) 0.3729(4)
C35 C 1.1270(10) 0.2126(4) 0.3650(5)
C36 C 1.1889(10) 0.1935(5) 0.3582(5)
C37 C 1.1663(11) 0.1643(4) 0.3591(5)
C38 C 1.0779(7) 0.1571(3) 0.3687(4)
C39 C 0.8283(8) 0.1399(3) 0.3247(3)
C40 C 0.8843(13) 0.1182(3) 0.3073(5)
C41 C 0.8513(18) 0.1037(4) 0.2650(8)
C42 C 0.772(2) 0.1116(5) 0.2466(7)
C43 C 0.7207(14) 0.1323(5) 0.2633(7)
C44 C 0.7486(9) 0.1468(3) 0.3029(5)
C45 C 0.8032(7) 0.1844(2) 0.4334(3)
C46 C 0.8373(14) 0.1815(3) 0.4768(5)
C47 C 0.7820(16) 0.1949(5) 0.5142(6)
C48 C 0.7092(12) 0.2085(5) 0.5061(7)
C49 C 0.6774(10) 0.2106(4) 0.4605(6)
C50 C 0.7232(9) 0.1970(3) 0.4238(5)
C51 C 0.7456(8) 0.2834(2) 0.2362(3)
C52 C 0.7196(9) 0.2689(3) 0.1978(4)
C53 C 0.7102(11) 0.2811(4) 0.1547(4)
C54 C 0.7255(13) 0.3089(5) 0.1517(5)
C55 C 0.7566(14) 0.3256(4) 0.1906(6)
C56 C 0.7657(9) 0.3118(3) 0.2332(4)
C57 C 0.6384(7) 0.2383(2) 0.3229(4)
C58 C 0.6135(11) 0.2167(3) 0.2966(5)
C59 C 0.5411(13) 0.1998(5) 0.3073(7)
C60 C 0.4848(12) 0.2076(4) 0.3438(9)
C61 C 0.5074(11) 0.2299(4) 0.3714(7)
C62 C 0.5866(10) 0.2468(3) 0.3617(5)
C63 C 0.8560(8) 0.2734(3) 0.3465(5)
C64 C 0.9387(10) 0.2790(3) 0.3248(6)
C65 C 1.0140(12) 0.2847(4) 0.3580(12)
C66 C 0.992(2) 0.2865(7) 0.4067(15)
C67 C 0.920(2) 0.2774(7) 0.4227(12)
C68 C 0.8464(14) 0.2717(4) 0.3941(6)
C69 C 1.2707(7) 0.1357(3) 0.6382(4)
C70 C 1.2688(15) 0.1233(4) 0.6814(5)
C71 C 1.3593(18) 0.1208(5) 0.7034(6)
C72 C 1.4358(15) 0.1295(5) 0.6794(9)
C73 C 1.4313(12) 0.1420(5) 0.6364(9)
C74 C 1.3476(9) 0.1445(3) 0.6159(7)
C75 C 1.1144(8) 0.1770(2) 0.5624(3)
C76 C 1.1755(11) 0.1848(3) 0.5284(4)
C77 C 1.1547(17) 0.2067(4) 0.4966(6)
C78 C 1.0722(18) 0.2203(4) 0.5044(7)
C79 C 1.0158(15) 0.2123(4) 0.5388(8)
C80 C 1.0369(9) 0.1909(3) 0.5672(5)
C81 C 1.0483(7) 0.1104(2) 0.6149(4)
C82 C 0.9604(9) 0.1163(3) 0.6240(6)
C83 C 0.8959(11) 0.0943(5) 0.6248(7)
C84 C 0.9267(16) 0.0671(4) 0.6184(7)
C85 C 1.0124(14) 0.0606(3) 0.6096(7)
C86 C 1.0745(9) 0.0829(3) 0.6071(5)
C87 C 1.3809(7) 0.1238(2) 0.4739(4)
C88 C 1.3360(8) 0.1443(3) 0.4494(4)
C89 C 1.3691(10) 0.1724(3) 0.4471(5)
C90 C 1.4420(12) 0.1795(3) 0.4732(6)
C91 C 1.4912(10) 0.1593(3) 0.4990(6)
C92 C 1.4551(8) 0.1309(3) 0.5009(5)
C93 C 1.3124(9) 0.0597(2) 0.5350(4)
C94 C 1.3559(14) 0.0672(4) 0.5741(5)
C95 C 1.337(2) 0.0472(7) 0.6147(7)
C96 C 1.277(2) 0.0248(6) 0.6106(11)
C97 C 1.2388(19) 0.0208(4) 0.5736(8)
C98 C 1.2488(11) 0.0374(3) 0.5353(6)
C99 C 1.2975(9) 0.0654(2) 0.4075(4)
C100 C 1.2085(8) 0.0580(3) 0.3969(5)
C101 C 1.1863(11) 0.0463(3) 0.3526(6)
C102 C 1.2563(13) 0.0422(3) 0.3196(5)
C103 C 1.3400(14) 0.0495(3) 0.3307(5)
C104 C 1.3615(9) 0.0612(3) 0.3738(4)
C7B C 1.0773(6) 0.1917(2) 0.2348(3)
C6B C 1.1448(6) 0.2091(2) 0.2078(3)
O3B O 1.1637(4) 0.20330(14) 0.1665(2)
O4B O 1.1806(5) 0.22910(13) 0.2299(2)
C10B C 0.9561(7) 0.2005(2) 0.7856(4)
C9B C 0.8919(7) 0.1859(2) 0.8181(3)
O5B O 0.8223(5) 0.19740(14) 0.8320(2)
O6B O 0.9174(5) 0.16282(15) 0.8335(2)
C14C C 0.4987(18) 0.0062(7) 0.5321(11)
C13C C 0.4625(11) -0.0178(3) 0.5333(10)
C12C C 0.5124(8) -0.0449(2) 0.5354(4)
O9C O 0.5947(5) -0.04291(15) 0.5445(3)
O10C O 0.4731(4) -0.06782(15) 0.5329(3)
Sn1C Sn 0.68344(4) -0.077967(15) 0.55583(2)
Sn5_2 Sn 0.32713(5) 0.083080(16) 0.47310(3)
O1C O 0.7857(4) -0.11298(14) 0.5677(3)
O2C O 0.9201(4) -0.13152(15) 0.5764(3)
O7C O 1.1957(4) -0.11961(14) 0.4594(2)
O8C O 1.1905(4) -0.09843(15) 0.5264(2)
C1C C 0.8675(6) -0.11478(19) 0.5573(3)
C2C C 0.9036(7) -0.0973(3) 0.5167(4)
C3C C 1.0068(8) -0.0928(2) 0.5185(4)
C4C C 1.0575(6) -0.1197(2) 0.5028(4)
C5C C 1.1556(6) -0.1126(2) 0.4950(4)
C15C C 0.6749(7) -0.0910(3) 0.4868(3)
C16C C 0.6490(10) -0.0720(4) 0.4511(5)
C17C C 0.6396(11) -0.0822(6) 0.4046(6)
C18C C 0.6531(13) -0.1109(7) 0.3964(8)
C19C C 0.6762(12) -0.1307(5) 0.4299(6)
C20C C 0.6881(8) -0.1192(3) 0.4739(5)
C21C C 0.7795(7) -0.0486(2) 0.5779(5)
C22C C 0.7947(10) -0.0241(3) 0.5536(7)
C23C C 0.8686(18) -0.0063(3) 0.5692(9)
C24C C 0.9140(16) -0.0142(5) 0.6099(10)
C25C C 0.9022(13) -0.0391(4) 0.6333(8)
C26C C 0.8335(9) -0.0558(3) 0.6171(6)
C27C C 0.6092(7) -0.0956(2) 0.6117(4)
C28C C 0.6029(9) -0.0796(3) 0.6514(4)
C29C C 0.5563(11) -0.0887(4) 0.6897(6)
C30C C 0.5084(11) -0.1118(6) 0.6843(6)
C31C C 0.5124(11) -0.1288(4) 0.6455(7)
C32C C 0.5657(9) -0.1202(3) 0.6078(5)
C87_2 C 0.3809(7) 0.1238(2) 0.4739(4)
C88_2 C 0.3360(8) 0.1443(3) 0.4494(4)
C89_2 C 0.3691(10) 0.1724(3) 0.4471(5)
C90_2 C 0.4420(12) 0.1795(3) 0.4732(6)
C91_2 C 0.4912(10) 0.1593(3) 0.4990(6)
C92_2 C 0.4551(8) 0.1309(3) 0.5009(5)
C93_2 C 0.3124(9) 0.0597(2) 0.5350(4)
C94_2 C 0.3559(14) 0.0672(4) 0.5741(5)
C95_2 C 0.337(2) 0.0472(7) 0.6147(7)
C96_2 C 0.277(2) 0.0248(6) 0.6106(11)
C97_2 C 0.2388(19) 0.0208(4) 0.5736(8)
C98_2 C 0.2488(11) 0.0374(3) 0.5353(6)
C99_2 C 0.2975(9) 0.0654(2) 0.4075(4)
C100_2 C 0.2085(8) 0.0580(3) 0.3969(5)
C101_2 C 0.1863(11) 0.0463(3) 0.3526(6)
C102_2 C 0.2563(13) 0.0422(3) 0.3196(5)
C103_2 C 0.3400(14) 0.0495(3) 0.3307(5)
C104_2 C 0.3615(9) 0.0612(3) 0.3738(4)
Sn2C Sn 0.87715(4) -0.165584(15) 0.62118(2)
Sn3B Sn 1.25045(5) 0.263500(15) 0.19730(2)
Sn4B Sn 0.85506(5) 0.142520(15) 0.89344(2)
C33C C 1.0155(6) -0.1778(2) 0.6266(3)
C34C C 1.0380(8) -0.2059(2) 0.6271(4)
C35C C 1.1270(10) -0.2126(4) 0.6350(5)
C36C C 1.1889(10) -0.1935(5) 0.6418(5)
C37C C 1.1663(11) -0.1643(4) 0.6409(5)
C38C C 1.0779(7) -0.1571(3) 0.6313(4)
C39C C 0.8283(8) -0.1399(3) 0.6753(3)
C40C C 0.8843(13) -0.1182(3) 0.6927(5)
C41C C 0.8513(18) -0.1037(4) 0.7350(8)
C42C C 0.772(2) -0.1116(5) 0.7534(7)
C43C C 0.7207(14) -0.1323(5) 0.7367(7)
C44C C 0.7486(9) -0.1468(3) 0.6971(5)
C45C C 0.8032(7) -0.1844(2) 0.5666(3)
C46C C 0.8373(14) -0.1815(3) 0.5232(5)
C47C C 0.7820(16) -0.1949(5) 0.4858(6)
C48C C 0.7092(12) -0.2085(5) 0.4939(7)
C49C C 0.6774(10) -0.2106(4) 0.5395(6)
C50C C 0.7232(9) -0.1970(3) 0.5762(5)
C51B C 1.2544(8) 0.2834(2) 0.2638(3)
C52B C 1.2804(9) 0.2689(3) 0.3022(4)
C53B C 1.2898(11) 0.2811(4) 0.3453(4)
C54B C 1.2745(13) 0.3089(5) 0.3483(5)
C55B C 1.2434(14) 0.3256(4) 0.3094(6)
C56B C 1.2343(9) 0.3118(3) 0.2668(4)
C57B C 1.3616(7) 0.2383(2) 0.1771(4)
C58B C 1.3865(11) 0.2167(3) 0.2034(5)
C59B C 1.4589(13) 0.1998(5) 0.1927(7)
C60B C 1.5152(12) 0.2076(4) 0.1562(9)
C61B C 1.4926(11) 0.2299(4) 0.1286(7)
C62B C 1.4134(10) 0.2468(3) 0.1383(5)
C63B C 1.1440(8) 0.2734(3) 0.1535(5)
C64B C 1.0613(10) 0.2790(3) 0.1752(6)
C65B C 0.9860(12) 0.2847(4) 0.1420(12)
C66B C 1.008(2) 0.2865(7) 0.0933(15)
C67B C 1.080(2) 0.2774(7) 0.0773(12)
C68B C 1.1536(14) 0.2717(4) 0.1059(6)
C69B C 0.7293(7) 0.1357(3) 0.8618(4)
C70B C 0.7312(15) 0.1233(4) 0.8186(5)
C71B C 0.6407(18) 0.1208(5) 0.7966(6)
C72B C 0.5642(15) 0.1295(5) 0.8206(9)
C73B C 0.5687(12) 0.1420(5) 0.8636(9)
C74B C 0.6524(9) 0.1445(3) 0.8841(7)
C75B C 0.8856(8) 0.1770(2) 0.9376(3)
C76B C 0.8245(11) 0.1848(3) 0.9716(4)
C77B C 0.8453(17) 0.2067(4) 1.0034(6)
C78B C 0.9278(18) 0.2203(4) 0.9956(7)
C79B C 0.9842(15) 0.2123(4) 0.9612(8)
C80B C 0.9631(9) 0.1909(3) 0.9328(5)
C81B C 0.9517(7) 0.1104(2) 0.8851(4)
C82B C 1.0396(9) 0.1163(3) 0.8760(6)
C83B C 1.1041(11) 0.0943(5) 0.8752(7)
C84B C 1.0733(16) 0.0671(4) 0.8816(7)
C85B C 0.9876(14) 0.0606(3) 0.8904(7)
C86B C 0.9255(9) 0.0829(3) 0.8929(5)
O5G O 0.6777(5) 0.30260(14) 0.3320(2)
O10_2 O 1.4731(4) 0.06782(15) 0.4671(3)
Sn3G Sn 1.24955(5) 0.236500(15) 0.69730(2)
Sn2B Sn 1.12285(4) 0.165584(15) 0.12118(2)
Sn3E Sn 0.75045(5) 0.236500(15) 0.80270(2)
Sn5C Sn 0.32713(5) -0.083080(16) 0.52690(3)
O8_2 O 0.1905(4) 0.09843(15) 0.4736(2)
Sn4C Sn 1.14494(5) -0.142520(15) 0.39344(2)
Sn5C_2 Sn 1.32713(5) -0.083080(16) 0.52690(3)
O3C O 0.8363(4) -0.20330(14) 0.6665(2)
O5E O 1.3223(5) 0.30260(14) 0.1680(2)
O7B O 0.8043(4) 0.11961(14) 0.9594(2)
loop_
_geom_bond_atom_site_label_1
_geom_bond_atom_site_label_2
_geom_bond_site_symmetry_1
_geom_bond_site_symmetry_2
Sn1 O1 1_555 1_555
Sn2 O2 1_555 1_555
Sn3 O4 1_555 1_555
Sn4 O6 1_555 1_555
Sn5 O8 1_555 1_555
O1 C1 1_555 1_555
O2 C1 1_555 1_555
O3 Sn2 1_555 1_555
O4 C6 1_555 1_555
O5 C9 1_555 1_555
O6 C9 1_555 1_555
O7 Sn4 1_555 1_555
O8 C5 1_555 1_555
O9 Sn1 1_555 1_555
O10 C12 1_555 1_555
C1 C2 1_555 1_555
C2 C3 1_555 1_555
C3 C4 1_555 1_555
C4 C5 1_555 1_555
C5 O7 1_555 1_555
C6 O3 1_555 1_555
C7 C6 1_555 1_555
C8 C7 1_555 1_555
C9 C10 1_555 1_555
C10 C11 1_555 1_555
C11 C10B 1_555 1_555
C12 O9 1_555 1_555
C13 C12 1_555 1_555
C14 C13 1_555 1_555
C15 Sn1 1_555 1_555
C16 C15 1_555 1_555
C17 C16 1_555 1_555
C18 C17 1_555 1_555
C19 C18 1_555 1_555
C20 C15 1_555 1_555
C21 Sn1 1_555 1_555
C22 C21 1_555 1_555
C23 C22 1_555 1_555
C24 C23 1_555 1_555
C25 C24 1_555 1_555
C26 C21 1_555 1_555
C27 Sn1 1_555 1_555
C28 C27 1_555 1_555
C29 C28 1_555 1_555
C30 C29 1_555 1_555
C31 C30 1_555 1_555
C32 C27 1_555 1_555
C33 Sn2 1_555 1_555
C34 C33 1_555 1_555
C35 C34 1_555 1_555
C36 C35 1_555 1_555
C37 C36 1_555 1_555
C38 C33 1_555 1_555
C39 Sn2 1_555 1_555
C40 C39 1_555 1_555
C41 C40 1_555 1_555
C42 C41 1_555 1_555
C43 C42 1_555 1_555
C44 C39 1_555 1_555
C45 Sn2 1_555 1_555
C46 C45 1_555 1_555
C47 C46 1_555 1_555
C48 C47 1_555 1_555
C49 C48 1_555 1_555
C50 C45 1_555 1_555
C51 Sn3 1_555 1_555
C52 C51 1_555 1_555
C53 C52 1_555 1_555
C54 C53 1_555 1_555
C55 C54 1_555 1_555
C56 C51 1_555 1_555
C57 Sn3 1_555 1_555
C58 C57 1_555 1_555
C59 C58 1_555 1_555
C60 C59 1_555 1_555
C61 C60 1_555 1_555
C62 C57 1_555 1_555
C63 Sn3 1_555 1_555
C64 C63 1_555 1_555
C65 C64 1_555 1_555
C66 C65 1_555 1_555
C67 C66 1_555 1_555
C68 C63 1_555 1_555
C69 Sn4 1_555 1_555
C70 C69 1_555 1_555
C71 C70 1_555 1_555
C72 C71 1_555 1_555
C73 C72 1_555 1_555
C74 C69 1_555 1_555
C75 Sn4 1_555 1_555
C76 C75 1_555 1_555
C77 C76 1_555 1_555
C78 C77 1_555 1_555
C79 C78 1_555 1_555
C80 C75 1_555 1_555
C81 Sn4 1_555 1_555
C82 C81 1_555 1_555
C83 C82 1_555 1_555
C84 C83 1_555 1_555
C85 C84 1_555 1_555
C86 C81 1_555 1_555
C87 Sn5 1_555 1_555
C88 C87 1_555 1_555
C89 C88 1_555 1_555
C90 C89 1_555 1_555
C91 C90 1_555 1_555
C92 C87 1_555 1_555
C93 Sn5 1_555 1_555
C94 C93 1_555 1_555
C95 C94 1_555 1_555
C96 C95 1_555 1_555
C97 C96 1_555 1_555
C98 C93 1_555 1_555
C99 Sn5 1_555 1_555
C100 C99 1_555 1_555
C101 C100 1_555 1_555
C102 C101 1_555 1_555
C103 C102 1_555 1_555
C104 C99 1_555 1_555
C7B C8 1_555 1_555
C6B C7B 1_555 1_555
O3B C6B 1_555 1_555
O4B C6B 1_555 1_555
C10B C9B 1_555 1_555
C9B O5B 1_555 1_555
O5B Sn3E 1_555 1_555
O6B C9B 1_555 1_555
C14C C14 1_555 1_555
C13C C14C 1_555 1_555
C12C C13C 1_555 1_555
O9C C12C 1_555 1_555
O10C C12C 1_555 1_555
Sn1C O9C 1_555 1_555
Sn5_2 O10 1_555 1_555
O1C Sn1C 1_555 1_555
O2C C1C 1_555 1_555
O7C C5C 1_555 1_555
O8C C5C 1_555 1_555
C1C O1C 1_555 1_555
C2C C1C 1_555 1_555
C3C C2C 1_555 1_555
C4C C3C 1_555 1_555
C5C C4C 1_555 1_555
C15C Sn1C 1_555 1_555
C16C C15C 1_555 1_555
C17C C16C 1_555 1_555
C18C C17C 1_555 1_555
C19C C18C 1_555 1_555
C20C C15C 1_555 1_555
C21C Sn1C 1_555 1_555
C22C C21C 1_555 1_555
C23C C22C 1_555 1_555
C24C C23C 1_555 1_555
C25C C24C 1_555 1_555
C26C C21C 1_555 1_555
C27C Sn1C 1_555 1_555
C28C C27C 1_555 1_555
C29C C28C 1_555 1_555
C30C C29C 1_555 1_555
C31C C30C 1_555 1_555
C32C C27C 1_555 1_555
C87_2 Sn5_2 1_555 1_555
C88_2 C87_2 1_555 1_555
C89_2 C88_2 1_555 1_555
C90_2 C89_2 1_555 1_555
C91_2 C90_2 1_555 1_555
C92_2 C87_2 1_555 1_555
C93_2 Sn5_2 1_555 1_555
C94_2 C93_2 1_555 1_555
C95_2 C94_2 1_555 1_555
C96_2 C95_2 1_555 1_555
C97_2 C96_2 1_555 1_555
C98_2 C93_2 1_555 1_555
C99_2 Sn5_2 1_555 1_555
C100_2 C99_2 1_555 1_555
C101_2 C100_2 1_555 1_555
C102_2 C101_2 1_555 1_555
C103_2 C102_2 1_555 1_555
C104_2 C99_2 1_555 1_555
Sn2C O2C 1_555 1_555
Sn3B O4B 1_555 1_555
Sn4B O6B 1_555 1_555
C33C Sn2C 1_555 1_555
C34C C33C 1_555 1_555
C35C C34C 1_555 1_555
C36C C35C 1_555 1_555
C37C C36C 1_555 1_555
C38C C33C 1_555 1_555
C39C Sn2C 1_555 1_555
C40C C39C 1_555 1_555
C41C C40C 1_555 1_555
C42C C41C 1_555 1_555
C43C C42C 1_555 1_555
C44C C39C 1_555 1_555
C45C Sn2C 1_555 1_555
C46C C45C 1_555 1_555
C47C C46C 1_555 1_555
C48C C47C 1_555 1_555
C49C C48C 1_555 1_555
C50C C45C 1_555 1_555
C51B Sn3B 1_555 1_555
C52B C51B 1_555 1_555
C53B C52B 1_555 1_555
C54B C53B 1_555 1_555
C55B C54B 1_555 1_555
C56B C51B 1_555 1_555
C57B Sn3B 1_555 1_555
C58B C57B 1_555 1_555
C59B C58B 1_555 1_555
C60B C59B 1_555 1_555
C61B C60B 1_555 1_555
C62B C57B 1_555 1_555
C63B Sn3B 1_555 1_555
C64B C63B 1_555 1_555
C65B C64B 1_555 1_555
C66B C65B 1_555 1_555
C67B C66B 1_555 1_555
C68B C63B 1_555 1_555
C69B Sn4B 1_555 1_555
C70B C69B 1_555 1_555
C71B C70B 1_555 1_555
C72B C71B 1_555 1_555
C73B C72B 1_555 1_555
C74B C69B 1_555 1_555
C75B Sn4B 1_555 1_555
C76B C75B 1_555 1_555
C77B C76B 1_555 1_555
C78B C77B 1_555 1_555
C79B C78B 1_555 1_555
C80B C75B 1_555 1_555
C81B Sn4B 1_555 1_555
C82B C81B 1_555 1_555
C83B C82B 1_555 1_555
C84B C83B 1_555 1_555
C85B C84B 1_555 1_555
C86B C81B 1_555 1_555
O5G Sn3 1_555 1_555
O10_2 Sn5 1_555 1_555
Sn3G O5 1_555 1_555
Sn2B O3B 1_555 1_555
Sn5C O10C 1_555 1_555
O8_2 Sn5_2 1_555 1_555
Sn4C O7C 1_555 1_555
Sn5C_2 O8C 1_555 1_555
O3C Sn2C 1_555 1_555
O5E Sn3B 1_555 1_555
O7B Sn4B 1_555 1_555
C19 C20 1_555 1_555
C25 C26 1_555 1_555
C31 C32 1_555 1_555
C37 C38 1_555 1_555
C43 C44 1_555 1_555
C49 C50 1_555 1_555
C55 C56 1_555 1_555
C61 C62 1_555 1_555
C67 C68 1_555 1_555
C73 C74 1_555 1_555
C79 C80 1_555 1_555
C85 C86 1_555 1_555
C91 C92 1_555 1_555
C97 C98 1_555 1_555
C103 C104 1_555 1_555
C19C C20C 1_555 1_555
C25C C26C 1_555 1_555
C31C C32C 1_555 1_555
C91_2 C92_2 1_555 1_555
C97_2 C98_2 1_555 1_555
C103_2 C104_2 1_555 1_555
C37C C38C 1_555 1_555
C43C C44C 1_555 1_555
C49C C50C 1_555 1_555
C55B C56B 1_555 1_555
C61B C62B 1_555 1_555
C67B C68B 1_555 1_555
C73B C74B 1_555 1_555
C79B C80B 1_555 1_555
C85B C86B 1_555 1_555

#END
