
#######################################################################
#
#                 Cambridge Crystallographic Data Centre
#                                CCDC 
#
#######################################################################
#
# If this CIF has been generated from an entry in the Cambridge 
# Structural Database, then it will include bibliographic, chemical, 
# crystal, experimental, refinement or atomic coordinate data resulting 
# from the CCDC's data processing and validation procedures.
#
#######################################################################

data_AJOLAM02
_symmetry_cell_setting           orthorhombic
_symmetry_space_group_name_H-M   'C 2 2 21'
_symmetry_Int_Tables_number      20
_space_group_name_Hall           'C 2n 2'
loop_
_symmetry_equiv_pos_site_id
_symmetry_equiv_pos_as_xyz
1 x,y,z
2 -x,-y,1/2+z
3 -x,y,1/2-z
4 x,-y,-z
5 1/2+x,1/2+y,z
6 1/2-x,1/2-y,1/2+z
7 1/2-x,1/2+y,1/2-z
8 1/2+x,1/2-y,-z
_cell_length_a                   15.003(4)
_cell_length_b                   47.821(13)
_cell_length_c                   28.789(8)
_cell_angle_alpha                90
_cell_angle_beta                 90
_cell_angle_gamma                90
_cell_volume                     20654.9
loop_
_atom_site_label
_atom_site_type_symbol
_atom_site_fract_x
_atom_site_fract_y
_atom_site_fract_z
Sn1 Sn 0.75027(8) 0.26361(3) 0.69722(4)
Sn2 Sn 0.62355(7) 0.16565(3) 0.62081(5)
Sn3 Sn 0.81735(7) 0.07741(3) 0.55579(5)
Sn4 Sn 0.85537(8) 0.35804(3) 0.60705(5)
Sn5 Sn 0.17374(8) 0.08268(3) 0.52693(5)
O1 O 0.6806(7) 0.2292(2) 0.7300(4)
O2 O 0.6644(7) 0.2032(2) 0.6665(4)
O3 O 0.5814(6) 0.1308(2) 0.5770(4)
O4 O 0.7130(7) 0.1125(2) 0.5667(4)
O5 O 0.3059(8) 0.1188(2) 0.4595(5)
O6 O 0.3087(7) 0.0981(2) 0.5281(5)
O7 O 0.8211(7) 0.3024(2) 0.6677(4)
O8 O 0.9185(7) 0.3371(2) 0.6649(4)
O9 O 1.0270(7) 0.0674(3) 0.5323(4)
O10 O 0.9054(7) 0.0421(2) 0.5452(5)
C1 C 0.6453(12) 0.2090(4) 0.7077(7)
C2 C 0.5790(11) 0.1914(3) 0.7340(6)
C3 C 0.5000 0.2129(4) 0.7500
C4 C 0.6286(11) 0.1133(4) 0.5540(7)
C5 C 0.5992(11) 0.0958(4) 0.5147(7)
C6 C 0.4956(11) 0.0922(3) 0.5193(7)
C7 C 0.4445(9) 0.1201(4) 0.5022(6)
C8 C 0.3445(10) 0.1116(4) 0.4961(8)
C9 C 0.8929(14) 0.3136(4) 0.6813(6)
C10 C 0.9575(10) 0.2991(3) 0.7156(6)
C11 C 1.0000 0.3190(4) 0.7500
C12 C 0.9864(15) 0.0432(4) 0.5362(7)
C13 C 1.0421(15) 0.0175(4) 0.5336(14)
C14 C 0.994(2) -0.0069(9) 0.5326(11)
C15 C 0.7529(13) 0.2831(4) 0.7626(7)
C16 C 0.7788(12) 0.2689(4) 0.8034(8)
C17 C 0.7884(14) 0.2839(6) 0.8467(8)
C18 C 0.771(3) 0.3117(8) 0.8493(11)
C19 C 0.746(2) 0.3250(5) 0.8081(12)
C20 C 0.7289(13) 0.3133(4) 0.7674(8)
C21 C 0.6430(9) 0.2732(3) 0.6481(7)
C22 C 0.6556(13) 0.2728(4) 0.6003(8)
C23 C 0.585(2) 0.2785(4) 0.5707(5)
C24 C 0.5010(16) 0.2845(4) 0.5890(9)
C25 C 0.4884(8) 0.2848(3) 0.6368(10)
C26 C 0.5594(13) 0.2792(3) 0.6664(6)
C27 C 0.8607(10) 0.2381(4) 0.6766(8)
C28 C 0.9116(15) 0.2461(4) 0.6371(8)
C29 C 0.9957(16) 0.2297(6) 0.6293(9)
C30 C 1.013(2) 0.2081(5) 0.6588(15)
C31 C 0.956(2) 0.1995(6) 0.6950(11)
C32 C 0.8834(17) 0.2155(5) 0.7054(8)
C33 C 0.4850(11) 0.1771(4) 0.6270(7)
C34 C 0.4215(11) 0.1557(4) 0.6323(7)
C35 C 0.3285(15) 0.1646(6) 0.6398(7)
C36 C 0.3121(17) 0.1937(6) 0.6455(10)
C37 C 0.3723(15) 0.2128(5) 0.6385(8)
C38 C 0.4646(14) 0.2054(4) 0.6297(6)
C39 C 0.6718(14) 0.1403(4) 0.6741(6)
C40 C 0.6184(17) 0.1185(4) 0.6965(9)
C41 C 0.652(2) 0.1043(4) 0.7399(10)
C42 C 0.735(2) 0.1141(6) 0.7559(13)
C43 C 0.779(2) 0.1313(6) 0.7353(12)
C44 C 0.7546(16) 0.1471(5) 0.6976(9)
C45 C 0.6977(14) 0.1830(4) 0.5677(7)
C46 C 0.669(2) 0.1809(4) 0.5227(10)
C47 C 0.724(2) 0.1957(6) 0.4857(11)
C48 C 0.7941(17) 0.2099(7) 0.4955(11)
C49 C 0.8188(19) 0.2103(6) 0.5400(11)
C50 C 0.7802(14) 0.1972(6) 0.5759(8)
C51 C 0.8884(11) 0.0957(4) 0.6095(6)
C52 C 0.9015(14) 0.0809(5) 0.6489(9)
C53 C 0.956(2) 0.0924(7) 0.6888(9)
C54 C 0.990(2) 0.1176(9) 0.6776(17)
C55 C 0.982(3) 0.1313(10) 0.6389(19)
C56 C 0.9310(15) 0.1204(5) 0.6045(10)
C57 C 0.8233(13) 0.0886(5) 0.4878(7)
C58 C 0.8533(18) 0.0691(8) 0.4549(10)
C59 C 0.854(2) 0.0751(9) 0.408(2)
C60 C 0.853(2) 0.1012(11) 0.3951(14)
C61 C 0.8310(19) 0.1252(8) 0.4255(14)
C62 C 0.8117(12) 0.1171(7) 0.4730(9)
C63 C 0.7213(10) 0.0496(4) 0.5753(9)
C64 C 0.6684(13) 0.0550(4) 0.6146(9)
C65 C 0.5972(16) 0.0356(6) 0.6274(12)
C66 C 0.587(3) 0.0110(6) 0.5979(18)
C67 C 0.634(3) 0.0042(8) 0.5638(18)
C68 C 0.7035(17) 0.0245(5) 0.5530(11)
C69 C 0.7289(11) 0.3645(4) 0.6382(7)
C70 C 0.734(2) 0.3768(6) 0.6857(10)
C71 C 0.642(3) 0.3813(8) 0.7057(10)
C72 C 0.566(2) 0.3715(7) 0.6783(12)
C73 C 0.568(2) 0.3603(8) 0.6389(13)
C74 C 0.6552(13) 0.3570(5) 0.6149(10)
C75 C 0.9515(11) 0.3892(4) 0.6168(7)
C76 C 0.9264(14) 0.4186(5) 0.6078(9)
C77 C 0.996(2) 0.4393(4) 0.6105(11)
C78 C 1.083(2) 0.4312(7) 0.6219(11)
C79 C 1.1007(18) 0.4036(7) 0.6306(12)
C80 C 1.0373(16) 0.3826(5) 0.6247(9)
C81 C 0.8847(14) 0.3233(4) 0.5642(7)
C82 C 0.9680(16) 0.3109(5) 0.5701(10)
C83 C 0.987(2) 0.2894(7) 0.5420(15)
C84 C 0.934(3) 0.2792(5) 0.5070(11)
C85 C 0.855(2) 0.2921(6) 0.4996(8)
C86 C 0.8262(15) 0.3154(4) 0.5278(8)
C87 C 0.2026(14) 0.0651(4) 0.5924(8)
C88 C 0.1384(16) 0.0629(5) 0.6254(8)
C89 C 0.1561(19) 0.0517(6) 0.6669(12)
C90 C 0.236(2) 0.0422(6) 0.6819(10)
C91 C 0.310(2) 0.0461(5) 0.6494(11)
C92 C 0.2942(14) 0.0581(4) 0.6051(8)
C93 C 0.1202(11) 0.1235(4) 0.5256(7)
C94 C 0.0418(13) 0.1290(4) 0.4989(7)
C95 C 0.0106(12) 0.1584(5) 0.5013(7)
C96 C 0.0517(16) 0.1815(5) 0.5237(9)
C97 C 0.1288(17) 0.1727(5) 0.5505(10)
C98 C 0.1647(12) 0.1447(5) 0.5533(7)
C99 C 0.1898(13) 0.0595(4) 0.4690(8)
C100 C 0.1444(19) 0.0648(6) 0.4264(10)
C101 C 0.167(3) 0.0436(9) 0.3834(12)
C102 C 0.225(3) 0.0232(9) 0.390(2)
C103 C 0.263(3) 0.0194(9) 0.4275(12)
C104 C 0.2556(18) 0.0373(5) 0.4651(9)
C2B C 0.4210(11) 0.1914(3) 0.7660(6)
C1B C 0.3547(12) 0.2090(4) 0.7923(7)
O1B O 0.3194(7) 0.2292(2) 0.7700(4)
O2B O 0.3356(7) 0.2032(2) 0.8335(4)
C10B C 1.0425(10) 0.2991(3) 0.7844(6)
C9B C 1.1071(14) 0.3136(4) 0.8187(6)
O7B O 1.1789(7) 0.3024(2) 0.8323(4)
O8B O 1.0815(7) 0.3371(2) 0.8351(4)
C14C C 0.994(2) 0.0069(9) 0.4674(11)
C13C C 1.0421(15) -0.0175(4) 0.4664(14)
C12C C 0.9864(15) -0.0432(4) 0.4638(7)
O9C O 1.0270(7) -0.0674(3) 0.4677(4)
O10C O 0.9054(7) -0.0421(2) 0.4548(5)
Sn1B Sn 0.24973(8) 0.26361(3) 0.80278(4)
Sn2B Sn 0.37645(7) 0.16565(3) 0.87919(5)
Sn4B Sn 1.14463(8) 0.35804(3) 0.89295(5)
O3G O 1.0814(6) 0.3692(2) 0.4230(4)
O4G O 1.2130(7) 0.3875(2) 0.4333(4)
O5G O 0.8059(8) 0.3812(2) 0.5405(5)
O6G O 0.8087(7) 0.4019(2) 0.4719(5)
C4G C 1.1286(11) 0.3867(4) 0.4460(7)
C5G C 1.0992(11) 0.4042(4) 0.4853(7)
C6G C 0.9956(11) 0.4078(3) 0.4807(7)
C7G C 0.9445(9) 0.3799(4) 0.4978(6)
C8G C 0.8445(10) 0.3884(4) 0.5039(8)
C15B C 0.2471(13) 0.2831(4) 0.7374(7)
C16B C 0.2212(12) 0.2689(4) 0.6966(8)
C17B C 0.2116(14) 0.2839(6) 0.6533(8)
C18B C 0.229(3) 0.3117(8) 0.6507(11)
C19B C 0.254(2) 0.3250(5) 0.6919(12)
C20B C 0.2711(13) 0.3133(4) 0.7326(8)
C21B C 0.3570(9) 0.2732(3) 0.8519(7)
C22B C 0.3444(13) 0.2728(4) 0.8997(8)
C23B C 0.415(2) 0.2785(4) 0.9293(5)
C24B C 0.4990(16) 0.2845(4) 0.9110(9)
C25B C 0.5116(8) 0.2848(3) 0.8632(10)
C26B C 0.4406(13) 0.2792(3) 0.8336(6)
C27B C 0.1393(10) 0.2381(4) 0.8234(8)
C28B C 0.0884(15) 0.2461(4) 0.8629(8)
C29B C 0.0043(16) 0.2297(6) 0.8707(9)
C30B C -0.013(2) 0.2081(5) 0.8412(15)
C31B C 0.044(2) 0.1995(6) 0.8050(11)
C32B C 0.1166(17) 0.2155(5) 0.7946(8)
C33B C 0.5150(11) 0.1771(4) 0.8730(7)
C34B C 0.5785(11) 0.1557(4) 0.8677(7)
C35B C 0.6715(15) 0.1646(6) 0.8602(7)
C36B C 0.6879(17) 0.1937(6) 0.8545(10)
C37B C 0.6277(15) 0.2128(5) 0.8615(8)
C38B C 0.5354(14) 0.2054(4) 0.8703(6)
C39B C 0.3282(14) 0.1403(4) 0.8259(6)
C40B C 0.3816(17) 0.1185(4) 0.8035(9)
C41B C 0.348(2) 0.1043(4) 0.7601(10)
C42B C 0.265(2) 0.1141(6) 0.7441(13)
C43B C 0.221(2) 0.1313(6) 0.7647(12)
C44B C 0.2454(16) 0.1471(5) 0.8024(9)
C45B C 0.3023(14) 0.1830(4) 0.9323(7)
C46B C 0.331(2) 0.1809(4) 0.9773(10)
C47B C 0.276(2) 0.1957(6) 1.0143(11)
C48B C 0.2059(17) 0.2099(7) 1.0045(11)
C49B C 0.1812(19) 0.2103(6) 0.9600(11)
C50B C 0.2198(14) 0.1972(6) 0.9241(8)
C69B C 1.2711(11) 0.3645(4) 0.8618(7)
C70B C 1.266(2) 0.3768(6) 0.8143(10)
C71B C 1.358(3) 0.3813(8) 0.7943(10)
C72B C 1.434(2) 0.3715(7) 0.8217(12)
C73B C 1.432(2) 0.3603(8) 0.8611(13)
C74B C 1.3448(13) 0.3570(5) 0.8851(10)
C75B C 1.0485(11) 0.3892(4) 0.8832(7)
C76B C 1.0736(14) 0.4186(5) 0.8922(9)
C77B C 1.004(2) 0.4393(4) 0.8895(11)
C78B C 0.917(2) 0.4312(7) 0.8781(11)
C79B C 0.8993(18) 0.4036(7) 0.8694(12)
C80B C 0.9627(16) 0.3826(5) 0.8753(9)
C81B C 1.1153(14) 0.3233(4) 0.9358(7)
C82B C 1.0320(16) 0.3109(5) 0.9299(10)
C83B C 1.013(2) 0.2894(7) 0.9580(15)
C84B C 1.066(3) 0.2792(5) 0.9930(11)
C85B C 1.145(2) 0.2921(6) 1.0004(8)
C86B C 1.1738(15) 0.3154(4) 0.9722(8)
Sn3G Sn 1.31735(7) 0.42259(3) 0.44421(5)
Sn5G Sn 0.67374(8) 0.41732(3) 0.47307(5)
C51G C 1.3884(11) 0.4043(4) 0.3905(6)
C52G C 1.4015(14) 0.4191(5) 0.3511(9)
C53G C 1.456(2) 0.4076(7) 0.3112(9)
C54G C 1.490(2) 0.3824(9) 0.3224(17)
C55G C 1.482(3) 0.3687(10) 0.3611(19)
C56G C 1.4310(15) 0.3796(5) 0.3955(10)
C57G C 1.3233(13) 0.4114(5) 0.5122(7)
C58G C 1.3533(18) 0.4309(8) 0.5451(10)
C59G C 1.354(2) 0.4249(9) 0.592(2)
C60G C 1.353(2) 0.3988(11) 0.6049(14)
C61G C 1.3310(19) 0.3748(8) 0.5745(14)
C62G C 1.3117(12) 0.3829(7) 0.5270(9)
C63G C 1.2213(10) 0.4504(4) 0.4247(9)
C64G C 1.1684(13) 0.4450(4) 0.3854(9)
C65G C 1.0972(16) 0.4644(6) 0.3726(12)
C66G C 1.087(3) 0.4890(6) 0.4021(18)
C67G C 1.134(3) 0.4958(8) 0.4362(18)
C68G C 1.2035(17) 0.4755(5) 0.4470(11)
C87G C 0.7026(14) 0.4349(4) 0.4076(8)
C88G C 0.6384(16) 0.4371(5) 0.3746(8)
C89G C 0.6561(19) 0.4483(6) 0.3331(12)
C90G C 0.736(2) 0.4578(6) 0.3181(10)
C91G C 0.810(2) 0.4539(5) 0.3506(11)
C92G C 0.7942(14) 0.4419(4) 0.3949(8)
C93G C 0.6202(11) 0.3765(4) 0.4744(7)
C94G C 0.5418(13) 0.3710(4) 0.5011(7)
C95G C 0.5106(12) 0.3416(5) 0.4987(7)
C96G C 0.5517(16) 0.3185(5) 0.4763(9)
C97G C 0.6288(17) 0.3273(5) 0.4495(10)
C98G C 0.6647(12) 0.3553(5) 0.4467(7)
C99G C 0.6898(13) 0.4405(4) 0.5310(8)
C100G C 0.6444(19) 0.4352(6) 0.5736(10)
C101G C 0.667(3) 0.4564(9) 0.6166(12)
C102G C 0.725(3) 0.4768(9) 0.610(2)
C103G C 0.763(3) 0.4806(9) 0.5725(12)
C104G C 0.7556(18) 0.4627(5) 0.5349(9)
O9_2 O 0.0270(7) 0.0674(3) 0.5323(4)
Sn4G Sn 0.35537(8) 0.14196(3) 0.39295(5)
Sn5_2 Sn 1.17374(8) 0.08268(3) 0.52693(5)
Sn1B_2 Sn 1.24973(8) 0.26361(3) 0.80278(4)
Sn5C Sn 1.17374(8) -0.08268(3) 0.47307(5)
Sn3C Sn 0.81735(7) -0.07741(3) 0.44421(5)
O7B_2 O 0.1789(7) 0.3024(2) 0.8323(4)
O3B O 0.4186(6) 0.1308(2) 0.9230(4)
O5E O 1.1941(8) 0.3812(2) 0.9595(5)
Sn2G Sn 1.12355(7) 0.33435(3) 0.37919(5)
O10G O 1.4054(7) 0.4579(2) 0.4548(5)
O9G O 0.5270(7) 0.4326(3) 0.4677(4)
loop_
_geom_bond_atom_site_label_1
_geom_bond_atom_site_label_2
_geom_bond_site_symmetry_1
_geom_bond_site_symmetry_2
Sn1 O1 1_555 1_555
Sn2 O2 1_555 1_555
Sn3 O4 1_555 1_555
Sn4 O8 1_555 1_555
Sn5 O6 1_555 1_555
O1 C1 1_555 1_555
O2 C1 1_555 1_555
O3 Sn2 1_555 1_555
O4 C4 1_555 1_555
O5 C8 1_555 1_555
O6 C8 1_555 1_555
O7 Sn1 1_555 1_555
O8 C9 1_555 1_555
O9 C12 1_555 1_555
O10 Sn3 1_555 1_555
C1 C2 1_555 1_555
C2 C3 1_555 1_555
C3 C2B 1_555 1_555
C4 O3 1_555 1_555
C5 C4 1_555 1_555
C6 C5 1_555 1_555
C7 C6 1_555 1_555
C8 C7 1_555 1_555
C9 O7 1_555 1_555
C10 C9 1_555 1_555
C11 C10 1_555 1_555
C12 O10 1_555 1_555
C13 C12 1_555 1_555
C14 C13 1_555 1_555
C15 Sn1 1_555 1_555
C16 C15 1_555 1_555
C17 C16 1_555 1_555
C18 C17 1_555 1_555
C19 C18 1_555 1_555
C20 C15 1_555 1_555
C21 Sn1 1_555 1_555
C22 C21 1_555 1_555
C23 C22 1_555 1_555
C24 C23 1_555 1_555
C25 C24 1_555 1_555
C26 C21 1_555 1_555
C27 Sn1 1_555 1_555
C28 C27 1_555 1_555
C29 C28 1_555 1_555
C30 C29 1_555 1_555
C31 C30 1_555 1_555
C32 C27 1_555 1_555
C33 Sn2 1_555 1_555
C34 C33 1_555 1_555
C35 C34 1_555 1_555
C36 C35 1_555 1_555
C37 C36 1_555 1_555
C38 C33 1_555 1_555
C39 Sn2 1_555 1_555
C40 C39 1_555 1_555
C41 C40 1_555 1_555
C42 C41 1_555 1_555
C43 C42 1_555 1_555
C44 C39 1_555 1_555
C45 Sn2 1_555 1_555
C46 C45 1_555 1_555
C47 C46 1_555 1_555
C48 C47 1_555 1_555
C49 C48 1_555 1_555
C50 C45 1_555 1_555
C51 Sn3 1_555 1_555
C52 C51 1_555 1_555
C53 C52 1_555 1_555
C54 C53 1_555 1_555
C55 C54 1_555 1_555
C56 C51 1_555 1_555
C57 Sn3 1_555 1_555
C58 C57 1_555 1_555
C59 C58 1_555 1_555
C60 C59 1_555 1_555
C61 C60 1_555 1_555
C62 C57 1_555 1_555
C63 Sn3 1_555 1_555
C64 C63 1_555 1_555
C65 C64 1_555 1_555
C66 C65 1_555 1_555
C67 C66 1_555 1_555
C68 C63 1_555 1_555
C69 Sn4 1_555 1_555
C70 C69 1_555 1_555
C71 C70 1_555 1_555
C72 C71 1_555 1_555
C73 C72 1_555 1_555
C74 C69 1_555 1_555
C75 Sn4 1_555 1_555
C76 C75 1_555 1_555
C77 C76 1_555 1_555
C78 C77 1_555 1_555
C79 C78 1_555 1_555
C80 C75 1_555 1_555
C81 Sn4 1_555 1_555
C82 C81 1_555 1_555
C83 C82 1_555 1_555
C84 C83 1_555 1_555
C85 C84 1_555 1_555
C86 C81 1_555 1_555
C87 Sn5 1_555 1_555
C88 C87 1_555 1_555
C89 C88 1_555 1_555
C90 C89 1_555 1_555
C91 C90 1_555 1_555
C92 C87 1_555 1_555
C93 Sn5 1_555 1_555
C94 C93 1_555 1_555
C95 C94 1_555 1_555
C96 C95 1_555 1_555
C97 C96 1_555 1_555
C98 C93 1_555 1_555
C99 Sn5 1_555 1_555
C100 C99 1_555 1_555
C101 C100 1_555 1_555
C102 C101 1_555 1_555
C103 C102 1_555 1_555
C104 C99 1_555 1_555
C2B C1B 1_555 1_555
C1B O1B 1_555 1_555
O1B Sn1B 1_555 1_555
O2B C1B 1_555 1_555
C10B C11 1_555 1_555
C9B C10B 1_555 1_555
O7B C9B 1_555 1_555
O8B C9B 1_555 1_555
C14C C14 1_555 1_555
C13C C14C 1_555 1_555
C12C C13C 1_555 1_555
O9C C12C 1_555 1_555
O10C C12C 1_555 1_555
Sn1B C15B 1_555 1_555
Sn2B O2B 1_555 1_555
Sn4B O8B 1_555 1_555
O3G C4G 1_555 1_555
O4G C4G 1_555 1_555
O5G Sn4 1_555 1_555
O6G C8G 1_555 1_555
C4G C5G 1_555 1_555
C5G C6G 1_555 1_555
C6G C7G 1_555 1_555
C7G C8G 1_555 1_555
C8G O5G 1_555 1_555
C15B C16B 1_555 1_555
C16B C17B 1_555 1_555
C17B C18B 1_555 1_555
C18B C19B 1_555 1_555
C19B C20B 1_555 1_555
C20B C15B 1_555 1_555
C21B Sn1B 1_555 1_555
C22B C21B 1_555 1_555
C23B C22B 1_555 1_555
C24B C23B 1_555 1_555
C25B C24B 1_555 1_555
C26B C21B 1_555 1_555
C27B Sn1B 1_555 1_555
C28B C27B 1_555 1_555
C29B C28B 1_555 1_555
C30B C29B 1_555 1_555
C31B C30B 1_555 1_555
C32B C27B 1_555 1_555
C33B Sn2B 1_555 1_555
C34B C33B 1_555 1_555
C35B C34B 1_555 1_555
C36B C35B 1_555 1_555
C37B C36B 1_555 1_555
C38B C33B 1_555 1_555
C39B Sn2B 1_555 1_555
C40B C39B 1_555 1_555
C41B C40B 1_555 1_555
C42B C41B 1_555 1_555
C43B C42B 1_555 1_555
C44B C39B 1_555 1_555
C45B Sn2B 1_555 1_555
C46B C45B 1_555 1_555
C47B C46B 1_555 1_555
C48B C47B 1_555 1_555
C49B C48B 1_555 1_555
C50B C45B 1_555 1_555
C69B Sn4B 1_555 1_555
C70B C69B 1_555 1_555
C71B C70B 1_555 1_555
C72B C71B 1_555 1_555
C73B C72B 1_555 1_555
C74B C69B 1_555 1_555
C75B Sn4B 1_555 1_555
C76B C75B 1_555 1_555
C77B C76B 1_555 1_555
C78B C77B 1_555 1_555
C79B C78B 1_555 1_555
C80B C75B 1_555 1_555
C81B Sn4B 1_555 1_555
C82B C81B 1_555 1_555
C83B C82B 1_555 1_555
C84B C83B 1_555 1_555
C85B C84B 1_555 1_555
C86B C81B 1_555 1_555
Sn3G O4G 1_555 1_555
Sn5G O6G 1_555 1_555
C51G Sn3G 1_555 1_555
C52G C51G 1_555 1_555
C53G C52G 1_555 1_555
C54G C53G 1_555 1_555
C55G C54G 1_555 1_555
C56G C51G 1_555 1_555
C57G Sn3G 1_555 1_555
C58G C57G 1_555 1_555
C59G C58G 1_555 1_555
C60G C59G 1_555 1_555
C61G C60G 1_555 1_555
C62G C57G 1_555 1_555
C63G Sn3G 1_555 1_555
C64G C63G 1_555 1_555
C65G C64G 1_555 1_555
C66G C65G 1_555 1_555
C67G C66G 1_555 1_555
C68G C63G 1_555 1_555
C87G Sn5G 1_555 1_555
C88G C87G 1_555 1_555
C89G C88G 1_555 1_555
C90G C89G 1_555 1_555
C91G C90G 1_555 1_555
C92G C87G 1_555 1_555
C93G Sn5G 1_555 1_555
C94G C93G 1_555 1_555
C95G C94G 1_555 1_555
C96G C95G 1_555 1_555
C97G C96G 1_555 1_555
C98G C93G 1_555 1_555
C99G Sn5G 1_555 1_555
C100G C99G 1_555 1_555
C101G C100G 1_555 1_555
C102G C101G 1_555 1_555
C103G C102G 1_555 1_555
C104G C99G 1_555 1_555
O9_2 Sn5 1_555 1_555
Sn4G O5 1_555 1_555
Sn5_2 O9 1_555 1_555
Sn1B_2 O7B 1_555 1_555
Sn5C O9C 1_555 1_555
Sn3C O10C 1_555 1_555
O7B_2 Sn1B 1_555 1_555
O3B Sn2B 1_555 1_555
O5E Sn4B 1_555 1_555
Sn2G O3G 1_555 1_555
O10G Sn3G 1_555 1_555
O9G Sn5G 1_555 1_555
C19 C20 1_555 1_555
C25 C26 1_555 1_555
C31 C32 1_555 1_555
C37 C38 1_555 1_555
C43 C44 1_555 1_555
C49 C50 1_555 1_555
C55 C56 1_555 1_555
C61 C62 1_555 1_555
C67 C68 1_555 1_555
C73 C74 1_555 1_555
C79 C80 1_555 1_555
C85 C86 1_555 1_555
C91 C92 1_555 1_555
C97 C98 1_555 1_555
C103 C104 1_555 1_555
C25B C26B 1_555 1_555
C31B C32B 1_555 1_555
C37B C38B 1_555 1_555
C43B C44B 1_555 1_555
C49B C50B 1_555 1_555
C73B C74B 1_555 1_555
C79B C80B 1_555 1_555
C85B C86B 1_555 1_555
C55G C56G 1_555 1_555
C61G C62G 1_555 1_555
C67G C68G 1_555 1_555
C91G C92G 1_555 1_555
C97G C98G 1_555 1_555
C103G C104G 1_555 1_555

#END
