
#######################################################################
#
#                 Cambridge Crystallographic Data Centre
#                                CCDC 
#
#######################################################################
#
# If this CIF has been generated from an entry in the Cambridge 
# Structural Database, then it will include bibliographic, chemical, 
# crystal, experimental, refinement or atomic coordinate data resulting 
# from the CCDC's data processing and validation procedures.
#
#######################################################################

data_AJONOE
_symmetry_cell_setting           monoclinic
_symmetry_space_group_name_H-M   'P 21/n'
_symmetry_Int_Tables_number      14
_space_group_name_Hall           '-P 2yn'
loop_
_symmetry_equiv_pos_site_id
_symmetry_equiv_pos_as_xyz
1 x,y,z
2 1/2-x,1/2+y,1/2-z
3 -x,-y,-z
4 1/2+x,1/2-y,1/2+z
_cell_length_a                   17.6604(4)
_cell_length_b                   10.6264(2)
_cell_length_c                   11.0262(3)
_cell_angle_alpha                90
_cell_angle_beta                 95.590(2)
_cell_angle_gamma                90
_cell_volume                     2059.41
loop_
_atom_site_label
_atom_site_type_symbol
_atom_site_fract_x
_atom_site_fract_y
_atom_site_fract_z
Fe1 Fe 0.1017(4) 0.7039(8) 0.5427(5)
C1 C 0.1163(2) 0.8721(1) 0.6073(2)
C2 C 0.0932(2) 0.5425(2) 0.4621(3)
C3 C 0.1999(1) 0.6469(3) 0.6142(2)
C4 C 0.0096(1) 0.7677(3) 0.4550(2)
C5 C 0.1535(2) 0.7607(3) 0.4068(3)
N1 N 0.1843(1) 0.7945(3) 0.3258(2)
N2 N 0.0571(1) 0.6552(3) 0.6595(2)
O1 O 0.0268(1) 0.6220(2) 0.7392(2)
N3 N 0.0825(1) 1.2146(3) 0.8585(2)
C6 C 0.0814(2) 1.3086(3) 0.9413(3)
N4 N 0.0342(1) 1.2820(3) 1.0272(2)
C7 C 0.0041(2) 1.1649(3) 0.9952(2)
C8 C 0.0330(2) 1.1238(3) 0.8943(2)
C9 C 0.1256(2) 1.4265(3) 0.9375(3)
N5 N 0.1944(1) 1.1901(3) 0.4819(2)
C10 C 0.1662(2) 1.1880(3) 0.2825(3)
N6 N 0.2162(1) 1.2869(2) 0.3085(2)
C11 C 0.2319(2) 1.2844(3) 0.4308(2)
C12 C 0.1527(2) 1.1297(3) 0.3863(2)
C13 C 0.2845(2) 1.3728(3) 0.4998(2)
Cu1 Cu 0.1397(3) 1.1784(5) 0.6898(5)
N7 N 0.1244(3) 0.9695(6) 0.6480(5)
N8 N 0.1070(1) 0.4461(2) 0.4228(2)
N9 N 0.2499(1) 0.6551(2) 0.6867(2)
N10 N -0.0438(1) 0.8190(3) 0.4140(2)
C14 C 0.1388(2) 1.5245(3) 1.0368(3)
C15 C 0.2703(2) 1.3818(3) 0.6381(2)
Cu1A Cu 0.3603(3) 0.6784(5) 0.8102(5)
Cu1B Cu -0.1397(3) 0.8216(5) 0.3102(5)
N9A N 0.2501(1) 1.1551(2) 0.8133(2)
N10B N 0.0438(1) 1.1810(3) 0.5860(2)
loop_
_geom_bond_atom_site_label_1
_geom_bond_atom_site_label_2
_geom_bond_site_symmetry_1
_geom_bond_site_symmetry_2
Fe1 C1 1_555 1_555
C1 N7 1_555 1_555
C2 Fe1 1_555 1_555
C3 Fe1 1_555 1_555
C4 Fe1 1_555 1_555
C5 Fe1 1_555 1_555
N1 C5 1_555 1_555
N2 Fe1 1_555 1_555
O1 N2 1_555 1_555
N3 C6 1_555 1_555
C6 N4 1_555 1_555
N4 C7 1_555 1_555
C7 C8 1_555 1_555
C8 N3 1_555 1_555
C9 C6 1_555 1_555
N5 C11 1_555 1_555
C10 N6 1_555 1_555
N6 C11 1_555 1_555
C11 C13 1_555 1_555
C12 N5 1_555 1_555
C13 C15 1_555 1_555
Cu1 N3 1_555 1_555
N7 Cu1 1_555 1_555
N8 C2 1_555 1_555
N9 C3 1_555 1_555
N10 C4 1_555 1_555
C14 C9 1_555 1_555
Cu1A N9 1_555 1_555
Cu1B N10 1_555 1_555
N9A Cu1 1_555 1_555
N10B Cu1 1_555 1_555
N5 Cu1 1_555 1_555
C10 C12 1_555 1_555

#END
