
#######################################################################
#
#                 Cambridge Crystallographic Data Centre
#                                CCDC 
#
#######################################################################
#
# If this CIF has been generated from an entry in the Cambridge 
# Structural Database, then it will include bibliographic, chemical, 
# crystal, experimental, refinement or atomic coordinate data resulting 
# from the CCDC's data processing and validation procedures.
#
#######################################################################

data_AJOREY
_symmetry_cell_setting           monoclinic
_symmetry_space_group_name_H-M   'C 2/m'
_symmetry_Int_Tables_number      12
_space_group_name_Hall           '-C 2y'
loop_
_symmetry_equiv_pos_site_id
_symmetry_equiv_pos_as_xyz
1 x,y,z
2 -x,y,-z
3 1/2+x,1/2+y,z
4 1/2-x,1/2+y,-z
5 -x,-y,-z
6 x,-y,z
7 1/2-x,1/2-y,-z
8 1/2+x,1/2-y,z
_cell_length_a                   12.585(5)
_cell_length_b                   16.926(4)
_cell_length_c                   8.022(3)
_cell_angle_alpha                90
_cell_angle_beta                 93.094(7)
_cell_angle_gamma                90
_cell_volume                     1706.31
loop_
_atom_site_label
_atom_site_type_symbol
_atom_site_fract_x
_atom_site_fract_y
_atom_site_fract_z
O4 O 1.0000 0.1028(14) 0.0000
H8 H 0.9752 0.1372 -0.0688
H8A H 1.0248 0.1372 0.0688
O5 O 0.075(2) 0.0000 0.964(5)
Zn1 Zn 0.41891(5) 0.0000 0.12726(8)
O1 O 0.3647(3) 0.0830(2) -0.0401(5)
O2 O 0.4842(4) 0.0825(3) -0.2324(5)
C1 C 0.3998(5) 0.1046(3) -0.1740(7)
C2 C 0.3345(6) 0.1638(3) -0.2774(7)
C3 C 0.2504(7) 0.2023(4) -0.2045(7)
H1 H 0.2365 0.1915 -0.0941
C4 C 0.1882(7) 0.2558(5) -0.2930(8)
H2 H 0.1341 0.2825 -0.2422
C5 C 0.2074(7) 0.2699(5) -0.4639(7)
C6 C 0.3534(6) 0.1751(4) -0.4390(8)
H3 H 0.4069 0.1466 -0.4872
N1 N 0.1574(10) 0.0643(8) 0.383(2)
C7 C 0.2313(7) 0.0554(5) 0.2678(12)
H4 H 0.2215 0.0835 0.1612
O3 O 0.3041(5) 0.0000 0.2836(9)
C8 C 0.1695(17) 0.0000 0.533(2)
C9 C 0.0726(13) 0.1231(13) 0.357(3)
H5 H 0.1028 0.1722 0.3228
H6 H 0.0376 0.1308 0.4591
H7 H 0.0219 0.1049 0.2718
O1F O 0.1353(3) 0.4170(2) -0.9599(5)
O2F O 0.0158(4) 0.4175(3) -0.7676(5)
C1F C 0.1002(5) 0.3954(3) -0.8260(7)
C2F C 0.1655(6) 0.3362(3) -0.7226(7)
C3F C 0.2496(7) 0.2977(4) -0.7955(7)
H1F H 0.2635 0.3085 -0.9059
C4F C 0.3118(7) 0.2442(5) -0.7070(8)
H2F H 0.3659 0.2175 -0.7578
C5F C 0.2926(7) 0.2301(5) -0.5361(7)
C6F C 0.1466(6) 0.3249(4) -0.5610(8)
H3F H 0.0931 0.3534 -0.5128
N1E N 0.1574(10) -0.0643(8) 0.383(2)
C7E C 0.2313(7) -0.0554(5) 0.2678(12)
H4E H 0.2215 -0.0835 0.1612
C9E C 0.0726(13) -0.1231(13) 0.357(3)
H5E H 0.1028 -0.1722 0.3228
H6E H 0.0376 -0.1308 0.4591
H7E H 0.0219 -0.1049 0.2718
Zn1A Zn 0.58109(5) 0.0000 -0.12726(8)
Zn1B Zn -0.08109(5) 0.5000 -0.87274(8)
Zn1C Zn 0.08109(5) 0.5000 -1.12726(8)
O1E O 0.3647(3) -0.0830(2) -0.0401(5)
O2A O 0.5158(4) 0.0825(3) 0.2324(5)
O2D O 0.5158(4) -0.0825(3) 0.2324(5)
H9? H 0.0686 0.0067 0.8592
H10? H 0.1409 0.0000 0.9953
H11? H 0.9865 0.1165 0.0986
H12? H 0.2321 -0.0319 0.5242
H13? H 0.1728 0.0270 0.6381
H14? H 0.1075 -0.0332 0.5248
loop_
_geom_bond_atom_site_label_1
_geom_bond_atom_site_label_2
_geom_bond_site_symmetry_1
_geom_bond_site_symmetry_2
Zn1 O1 1_555 1_555
O1 C1 1_555 1_555
O2 C1 1_555 1_555
C1 C2 1_555 1_555
C2 C3 1_555 1_555
C3 H1 1_555 1_555
C4 C3 1_555 1_555
H2 C4 1_555 1_555
C5 C4 1_555 1_555
C6 C2 1_555 1_555
H3 C6 1_555 1_555
N1 C7 1_555 1_555
C7 H4 1_555 1_555
O3 Zn1 1_555 1_555
C8 N1 1_555 1_555
C9 N1 1_555 1_555
H5 C9 1_555 1_555
H6 C9 1_555 1_555
H7 C9 1_555 1_555
O4 H8 1_555 1_555
O1F C1F 1_555 1_555
O2F C1F 1_555 1_555
C1F C2F 1_555 1_555
C2F C3F 1_555 1_555
C3F H1F 1_555 1_555
C4F C3F 1_555 1_555
H2F C4F 1_555 1_555
C5F C5 1_555 1_555
C6F C5 1_555 1_555
H3F C6F 1_555 1_555
N1E C8 1_555 1_555
C7E O3 1_555 1_555
H4E C7E 1_555 1_555
C9E N1E 1_555 1_555
H5E C9E 1_555 1_555
H6E C9E 1_555 1_555
H7E C9E 1_555 1_555
Zn1A O2 1_555 1_555
Zn1B O2F 1_555 1_555
Zn1C O1F 1_555 1_555
O1E Zn1 1_555 1_555
O2A Zn1 1_555 1_555
O2D Zn1 1_555 1_555
H8A O4 1_555 1_555
C6 C5F 1_555 1_555
C7 O3 1_555 1_555
C2F C6F 1_555 1_555
C4F C5F 1_555 1_555
N1E C7E 1_555 1_555

#END
