
#######################################################################
#
#                 Cambridge Crystallographic Data Centre
#                                CCDC 
#
#######################################################################
#
# If this CIF has been generated from an entry in the Cambridge 
# Structural Database, then it will include bibliographic, chemical, 
# crystal, experimental, refinement or atomic coordinate data resulting 
# from the CCDC's data processing and validation procedures.
#
#######################################################################

data_AJOSUN01
_symmetry_cell_setting           monoclinic
_symmetry_space_group_name_H-M   'C 2/c'
_symmetry_Int_Tables_number      15
_space_group_name_Hall           '-C 2yn'
loop_
_symmetry_equiv_pos_site_id
_symmetry_equiv_pos_as_xyz
1 x,y,z
2 1/2+x,1/2+y,z
3 -x,y,1/2-z
4 1/2-x,1/2+y,1/2-z
5 -x,-y,-z
6 1/2-x,1/2-y,-z
7 x,-y,1/2+z
8 1/2+x,1/2-y,1/2+z
_cell_length_a                   10.854(3)
_cell_length_b                   18.955(6)
_cell_length_c                   7.1592(19)
_cell_angle_alpha                90
_cell_angle_beta                 116.23(2)
_cell_angle_gamma                90
_cell_volume                     1321.25
loop_
_atom_site_label
_atom_site_type_symbol
_atom_site_fract_x
_atom_site_fract_y
_atom_site_fract_z
Zn1 Zn 1.0000 0.355797(14) 0.2500
N1 N 0.99898(15) 0.35015(7) -0.0672(2)
O1 O 0.69103(14) 0.33501(7) 0.0353(2)
O2 O 0.84035(12) 0.42311(7) 0.1480(2)
O3 O 1.0000 0.24848(9) 0.2500
H1 H 0.9368 0.2229 0.1617
C1 C 0.71820(18) 0.39851(9) 0.0718(3)
C2 C 0.60519(18) 0.45119(9) 0.0318(3)
C3 C 0.47443(19) 0.42819(10) -0.0041(3)
H2 H 0.4564 0.3801 -0.0072
C4 C 0.62858(18) 0.52352(10) 0.0350(3)
H3 H 0.7151 0.5397 0.0583
C5 C 0.8756(2) 0.31444(10) -0.2266(3)
H4 H 0.7938 0.3392 -0.2405
H5 H 0.8711 0.2666 -0.1818
C6 C 1.1209(2) 0.31248(11) -0.0605(3)
H6 H 1.1190 0.2638 -0.0201
H7 H 1.2038 0.3342 0.0438
C7 C 1.00125(19) 0.42303(9) -0.1416(3)
H8 H 1.0834 0.4470 -0.0434
H9 H 0.9223 0.4488 -0.1479
Zn1_2 Zn 1.0000 0.355797(14) -0.7500
Zn1F Zn 0.0000 0.644203(14) -0.2500
N1B N 1.00102(15) 0.35015(7) -0.4328(2)
N1B_2 N 1.00102(15) 0.35015(7) 0.5672(2)
O1D O 0.30897(14) 0.66499(7) -0.0353(2)
O2D O 0.15965(12) 0.57689(7) -0.1480(2)
O2B O 1.15965(12) 0.42311(7) 0.3520(2)
H1B H 1.0632 0.2229 0.3383
C1D C 0.28180(18) 0.60149(9) -0.0718(3)
C2D C 0.39481(18) 0.54881(9) -0.0318(3)
C3D C 0.52557(19) 0.57181(10) 0.0041(3)
H2D H 0.5436 0.6199 0.0072
C4D C 0.37142(18) 0.47648(10) -0.0350(3)
H3D H 0.2849 0.4603 -0.0583
C5B C 1.1244(2) 0.31444(10) -0.2734(3)
H4B H 1.2062 0.3392 -0.2595
H5B H 1.1289 0.2666 -0.3182
C6B C 0.8791(2) 0.31248(11) -0.4395(3)
H6B H 0.8810 0.2638 -0.4799
H7B H 0.7962 0.3342 -0.5438
C7B C 0.99875(19) 0.42303(9) -0.3584(3)
H8B H 0.9166 0.4470 -0.4566
H9B H 1.0777 0.4488 -0.3521
loop_
_geom_bond_atom_site_label_1
_geom_bond_atom_site_label_2
_geom_bond_site_symmetry_1
_geom_bond_site_symmetry_2
Zn1 N1 1_555 1_555
N1 C5 1_555 1_555
O1 C1 1_555 1_555
O2 Zn1 1_555 1_555
O3 Zn1 1_555 1_555
H1 O3 1_555 1_555
C1 O2 1_555 1_555
C2 C1 1_555 1_555
C3 C2 1_555 1_555
H2 C3 1_555 1_555
C4 C2 1_555 1_555
H3 C4 1_555 1_555
C5 H4 1_555 1_555
H5 C5 1_555 1_555
C6 N1 1_555 1_555
H6 C6 1_555 1_555
H7 C6 1_555 1_555
C7 N1 1_555 1_555
H8 C7 1_555 1_555
H9 C7 1_555 1_555
Zn1_2 N1B 1_555 1_555
Zn1F O2D 1_555 1_555
N1B C5B 1_555 1_555
N1B_2 Zn1 1_555 1_555
O1D C1D 1_555 1_555
O2D C1D 1_555 1_555
O2B Zn1 1_555 1_555
H1B O3 1_555 1_555
C1D C2D 1_555 1_555
C2D C3D 1_555 1_555
C3D C4 1_555 1_555
H2D C3D 1_555 1_555
C4D C3 1_555 1_555
H3D C4D 1_555 1_555
C5B C6 1_555 1_555
H4B C5B 1_555 1_555
H5B C5B 1_555 1_555
C6B C5 1_555 1_555
H6B C6B 1_555 1_555
H7B C6B 1_555 1_555
C7B C7 1_555 1_555
H8B C7B 1_555 1_555
H9B C7B 1_555 1_555
N1B C6B 1_555 1_555
N1B C7B 1_555 1_555
C2D C4D 1_555 1_555

#END
