
#######################################################################
#
#                 Cambridge Crystallographic Data Centre
#                                CCDC 
#
#######################################################################
#
# If this CIF has been generated from an entry in the Cambridge 
# Structural Database, then it will include bibliographic, chemical, 
# crystal, experimental, refinement or atomic coordinate data resulting 
# from the CCDC's data processing and validation procedures.
#
#######################################################################

data_AJOSUN
_symmetry_cell_setting           monoclinic
_symmetry_space_group_name_H-M   'C 2/c'
_symmetry_Int_Tables_number      15
_space_group_name_Hall           '-C 2yn'
loop_
_symmetry_equiv_pos_site_id
_symmetry_equiv_pos_as_xyz
1 x,y,z
2 -x,y,1/2-z
3 1/2+x,1/2+y,z
4 1/2-x,1/2+y,1/2-z
5 -x,-y,-z
6 x,-y,1/2+z
7 1/2-x,1/2-y,-z
8 1/2+x,1/2-y,1/2+z
_cell_length_a                   10.871(17)
_cell_length_b                   19.10(3)
_cell_length_c                   7.155(11)
_cell_angle_alpha                90
_cell_angle_beta                 115.99(3)
_cell_angle_gamma                90
_cell_volume                     1335.39
loop_
_atom_site_label
_atom_site_type_symbol
_atom_site_fract_x
_atom_site_fract_y
_atom_site_fract_z
Zn1 Zn 0.5000 0.3557(1) 0.7500
O1 O 0.1914(6) 0.3350(3) 0.5365(7)
O2 O 0.3396(5) 0.4232(3) 0.6472(6)
O3 O 0.5000 0.2479(4) 0.7500
N1 N 0.5010(6) 0.3501(3) 1.0669(6)
C1 C 0.3790(9) 0.3124(5) 1.0594(9)
C2 C 0.6250(9) 0.3140(5) 1.2250(9)
C3 C 0.4990(9) 0.4234(4) 1.1384(9)
C4 C 0.2184(7) 0.3979(5) 0.5720(8)
C5 C 0.1052(7) 0.4515(5) 0.5317(8)
C6 C 0.1286(8) 0.5237(4) 0.5346(9)
C7 C -0.0252(8) 0.4288(5) 0.4960(10)
H1 H 0.4090(90) 0.4520(70) 1.044(12)
H2 H 0.2300(70) 0.5430(50) 0.5620(80)
H3 H -0.0620(80) 0.3830(50) 0.502(10)
H4 H 0.6440(70) 0.2630(40) 1.1840(80)
H5 H 0.733(13) 0.3350(80) 1.234(12)
H6 H 0.3700(90) 0.2550(50) 1.021(10)
H7 H 0.2900(70) 0.3480(50) 0.9520(80)
H8 H 0.605(10) 0.4610(60) 1.125(11)
H9 H 0.400(20) 0.224(14) 0.680(30)
C7D C 0.0252(8) 0.5712(5) 0.5040(10)
C5D C -0.1052(7) 0.5485(5) 0.4683(8)
C4D C -0.2184(7) 0.6021(5) 0.4280(8)
O1D O -0.1914(6) 0.6650(3) 0.4635(7)
O2D O -0.3396(5) 0.5768(3) 0.3528(6)
C6D C -0.1286(8) 0.4763(4) 0.4654(9)
H2D H -0.2300(70) 0.4570(50) 0.4380(80)
H3D H 0.0620(80) 0.6170(50) 0.498(10)
H9A H 0.600(20) 0.224(14) 0.820(30)
C2A C 0.3750(9) 0.3140(5) 1.2750(9)
N1A N 0.4990(6) 0.3501(3) 1.4331(6)
C1A C 0.6210(9) 0.3124(5) 1.4406(9)
C3A C 0.5010(9) 0.4234(4) 1.3616(9)
H1A H 0.5910(90) 0.4520(70) 1.456(12)
H8A H 0.395(10) 0.4610(60) 1.375(11)
H6A H 0.6300(90) 0.2550(50) 1.479(10)
H7A H 0.7100(70) 0.3480(50) 1.5480(80)
H4A H 0.3560(70) 0.2630(40) 1.3160(80)
H5A H 0.267(13) 0.3350(80) 1.266(12)
O2A O 0.6604(5) 0.4232(3) 0.8528(6)
N1A_2 N 0.4990(6) 0.3501(3) 0.4331(6)
Zn1D Zn -0.5000 0.6443(1) 0.2500
Zn1_2 Zn 0.5000 0.3557(1) 1.7500
loop_
_geom_bond_atom_site_label_1
_geom_bond_atom_site_label_2
_geom_bond_site_symmetry_1
_geom_bond_site_symmetry_2
Zn1 O2 1_555 1_555
O1 C4 1_555 1_555
O2 C4 1_555 1_555
O3 Zn1 1_555 1_555
N1 Zn1 1_555 1_555
C1 N1 1_555 1_555
C2 N1 1_555 1_555
C3 N1 1_555 1_555
C4 C5 1_555 1_555
C5 C6 1_555 1_555
C6 H2 1_555 1_555
C7 C5 1_555 1_555
H1 C3 1_555 1_555
H3 C7 1_555 1_555
H4 C2 1_555 1_555
H5 C2 1_555 1_555
H6 C1 1_555 1_555
H7 C1 1_555 1_555
H8 C3 1_555 1_555
H9 O3 1_555 1_555
C7D C6 1_555 1_555
C5D C7D 1_555 1_555
C4D C5D 1_555 1_555
O1D C4D 1_555 1_555
O2D C4D 1_555 1_555
C6D C7 1_555 1_555
H2D C6D 1_555 1_555
H3D C7D 1_555 1_555
H9A O3 1_555 1_555
C2A C1 1_555 1_555
N1A C2A 1_555 1_555
C1A C2 1_555 1_555
C3A C3 1_555 1_555
H1A C3A 1_555 1_555
H8A C3A 1_555 1_555
H6A C1A 1_555 1_555
H7A C1A 1_555 1_555
H4A C2A 1_555 1_555
H5A C2A 1_555 1_555
O2A Zn1 1_555 1_555
N1A_2 Zn1 1_555 1_555
Zn1D O2D 1_555 1_555
Zn1_2 N1A 1_555 1_555
C5D C6D 1_555 1_555
N1A C1A 1_555 1_555
N1A C3A 1_555 1_555

#END
