
#######################################################################
#
#                 Cambridge Crystallographic Data Centre
#                                CCDC 
#
#######################################################################
#
# If this CIF has been generated from an entry in the Cambridge 
# Structural Database, then it will include bibliographic, chemical, 
# crystal, experimental, refinement or atomic coordinate data resulting 
# from the CCDC's data processing and validation procedures.
#
#######################################################################

data_AKACIY
_symmetry_cell_setting           triclinic
_symmetry_space_group_name_H-M   'P -1'
_symmetry_Int_Tables_number      2
_space_group_name_Hall           '-P 1'
loop_
_symmetry_equiv_pos_site_id
_symmetry_equiv_pos_as_xyz
1 x,y,z
2 -x,-y,-z
_cell_length_a                   8.872(9)
_cell_length_b                   9.097(7)
_cell_length_c                   10.051(6)
_cell_angle_alpha                73.26(7)
_cell_angle_beta                 81.74(7)
_cell_angle_gamma                76.17(10)
_cell_volume                     751.858
loop_
_atom_site_label
_atom_site_type_symbol
_atom_site_fract_x
_atom_site_fract_y
_atom_site_fract_z
Zn1 Zn 0.0000 0.0000 0.0000
O2 O 0.1680(2) 0.3049(3) 0.61838(18)
O3 O 0.2179(2) -0.1439(3) -0.0384(2)
N1 N 0.0721(2) -0.0003(2) 0.1941(2)
N2 N 0.1817(2) 0.3722(2) 0.3854(2)
H1 H 0.2308 0.4141 0.3089
O4 O 0.0832(3) 0.2091(2) -0.09917(19)
H2 H 0.1019 0.2164 -0.1828
C1 C 0.3722(3) 0.4350(3) 0.4985(2)
C2 C 0.3685(4) -0.1111(6) -0.0713(5)
H3 H 0.4417 -0.1975 -0.0180
H4 H 0.3697 -0.0177 -0.0436
C3 C 0.4183(8) -0.0876(10) -0.2150(7)
H5 H 0.5205 -0.0647 -0.2313
H6 H 0.3471 -0.0014 -0.2685
H7 H 0.4209 -0.1809 -0.2425
C4 C 0.4669(3) 0.4783(3) 0.3781(2)
C5 C 0.2323(3) 0.3650(3) 0.5058(2)
C6 C 0.4071(3) 0.4573(3) 0.6209(2)
C7 C 0.0330(3) 0.1329(3) 0.2342(2)
H8 H -0.0373 0.2163 0.1837
C8 C 0.0460(3) 0.3114(3) 0.3787(3)
H9 H -0.0174 0.3853 0.3073
H10 H -0.0162 0.3014 0.4672
C9 C 0.0914(3) 0.1535(3) 0.3463(2)
C10 C 0.2300(3) -0.1114(3) 0.3850(3)
H11 H 0.2964 -0.1979 0.4365
C11 C 0.1920(3) 0.0270(3) 0.4228(3)
H12 H 0.2337 0.0358 0.4993
C12 C 0.1688(3) -0.1211(3) 0.2699(3)
H13 H 0.1959 -0.2150 0.2444
H14 H 0.451(3) 0.460(3) 0.298(3)
H15 H 0.350(3) 0.435(3) 0.693(3)
H16 H 0.228(4) -0.234(4) -0.011(4)
H17 H 0.127(5) 0.251(5) -0.075(4)
C6A C 0.5929(3) 0.5427(3) 0.3791(2)
C1A C 0.6278(3) 0.5650(3) 0.5015(2)
C4A C 0.5331(3) 0.5217(3) 0.6219(2)
H14A H 0.549(3) 0.540(3) 0.702(3)
C5A C 0.7677(3) 0.6350(3) 0.4942(2)
O2A O 0.8320(2) 0.6951(3) 0.38162(18)
N2A N 0.8183(2) 0.6278(2) 0.6146(2)
H1A H 0.7692 0.5859 0.6911
C8A C 0.9540(3) 0.6886(3) 0.6213(3)
H9A H 1.0174 0.6147 0.6927
H10A H 1.0162 0.6986 0.5328
C9A C 0.9086(3) 0.8465(3) 0.6537(2)
C7A C 0.9670(3) 0.8671(3) 0.7658(2)
N1A N 0.9279(2) 1.0003(2) 0.8059(2)
C12A C 0.8312(3) 1.1211(3) 0.7301(3)
C10A C 0.7700(3) 1.1114(3) 0.6150(3)
H11A H 0.7036 1.1979 0.5635
C11A C 0.8080(3) 0.9730(3) 0.5772(3)
H12A H 0.7663 0.9642 0.5007
H13A H 0.8041 1.2150 0.7556
H8A H 1.0373 0.7837 0.8163
H15A H 0.650(3) 0.565(3) 0.307(3)
O3A O -0.2179(2) 0.1439(3) 0.0384(2)
C2A C -0.3685(4) 0.1111(6) 0.0713(5)
H3A H -0.4417 0.1975 0.0180
H4A H -0.3697 0.0177 0.0436
C3A C -0.4183(8) 0.0876(10) 0.2150(7)
H5A H -0.5205 0.0647 0.2313
H6A H -0.3471 0.0014 0.2685
H7A H -0.4209 0.1809 0.2425
H16A H -0.228(4) 0.234(4) 0.011(4)
O4A O -0.0832(3) -0.2091(2) 0.09917(19)
H2A H -0.1019 -0.2164 0.1828
H17A H -0.127(5) -0.251(5) 0.075(4)
N1A_2 N -0.0721(2) 0.0003(2) -0.1941(2)
Zn1_2 Zn 1.0000 1.0000 1.0000
O1 O 0.2759(3) 0.5374(3) 0.0943(2)
N3 N 0.2434(3) 0.4675(3) 0.0158(2)
O5 O 0.2102(4) 0.5400(3) -0.1017(2)
O6 O 0.2448(4) 0.3258(3) 0.0579(3)
loop_
_geom_bond_atom_site_label_1
_geom_bond_atom_site_label_2
_geom_bond_site_symmetry_1
_geom_bond_site_symmetry_2
Zn1 O3 1_555 1_555
O1 N3 1_555 1_555
O2 C5 1_555 1_555
O3 C2 1_555 1_555
N1 Zn1 1_555 1_555
N2 H1 1_555 1_555
O4 Zn1 1_555 1_555
H2 O4 1_555 1_555
C1 C4 1_555 1_555
C2 H3 1_555 1_555
H4 C2 1_555 1_555
C3 C2 1_555 1_555
H5 C3 1_555 1_555
H6 C3 1_555 1_555
H7 C3 1_555 1_555
C4 H14 1_555 1_555
C5 N2 1_555 1_555
N3 O5 1_555 1_555
C6 C1 1_555 1_555
C7 N1 1_555 1_555
H8 C7 1_555 1_555
O6 N3 1_555 1_555
C8 N2 1_555 1_555
H9 C8 1_555 1_555
H10 C8 1_555 1_555
C9 C7 1_555 1_555
C10 H11 1_555 1_555
C11 C9 1_555 1_555
H12 C11 1_555 1_555
C12 N1 1_555 1_555
H13 C12 1_555 1_555
H15 C6 1_555 1_555
H16 O3 1_555 1_555
H17 O4 1_555 1_555
C6A C4 1_555 1_555
C1A C6A 1_555 1_555
C4A C6 1_555 1_555
H14A C4A 1_555 1_555
C5A C1A 1_555 1_555
O2A C5A 1_555 1_555
N2A C5A 1_555 1_555
H1A N2A 1_555 1_555
C8A N2A 1_555 1_555
H9A C8A 1_555 1_555
H10A C8A 1_555 1_555
C9A C8A 1_555 1_555
C7A C9A 1_555 1_555
N1A C7A 1_555 1_555
C12A N1A 1_555 1_555
C10A C12A 1_555 1_555
H11A C10A 1_555 1_555
C11A C9A 1_555 1_555
H12A C11A 1_555 1_555
H13A C12A 1_555 1_555
H8A C7A 1_555 1_555
H15A C6A 1_555 1_555
O3A Zn1 1_555 1_555
C2A O3A 1_555 1_555
H3A C2A 1_555 1_555
H4A C2A 1_555 1_555
C3A C2A 1_555 1_555
H5A C3A 1_555 1_555
H6A C3A 1_555 1_555
H7A C3A 1_555 1_555
H16A O3A 1_555 1_555
O4A Zn1 1_555 1_555
H2A O4A 1_555 1_555
H17A O4A 1_555 1_555
N1A_2 Zn1 1_555 1_555
Zn1_2 N1A 1_555 1_555
C1 C5 1_555 1_555
C8 C9 1_555 1_555
C10 C12 1_555 1_555
C10 C11 1_555 1_555
C1A C4A 1_555 1_555
C10A C11A 1_555 1_555

#END
