
#######################################################################
#
#                 Cambridge Crystallographic Data Centre
#                                CCDC 
#
#######################################################################
#
# If this CIF has been generated from an entry in the Cambridge 
# Structural Database, then it will include bibliographic, chemical, 
# crystal, experimental, refinement or atomic coordinate data resulting 
# from the CCDC's data processing and validation procedures.
#
#######################################################################

data_AKAQAE
_symmetry_cell_setting           triclinic
_symmetry_space_group_name_H-M   'P -1'
_symmetry_Int_Tables_number      2
_space_group_name_Hall           '-P 1'
loop_
_symmetry_equiv_pos_site_id
_symmetry_equiv_pos_as_xyz
1 x,y,z
2 -x,-y,-z
_cell_length_a                   7.3626(19)
_cell_length_b                   9.024(2)
_cell_length_c                   12.963(2)
_cell_angle_alpha                87.08(2)
_cell_angle_beta                 88.397(18)
_cell_angle_gamma                89.79(2)
_cell_volume                     859.806
loop_
_atom_site_label
_atom_site_type_symbol
_atom_site_fract_x
_atom_site_fract_y
_atom_site_fract_z
Cu1 Cu 0.73010(10) 1.04710(9) 0.75247(5)
Cu2 Cu 0.74619(13) 0.73315(11) 0.66362(6)
Cu3 Cu 0.78404(13) 0.70835(12) 0.86202(6)
Cl1 Cl 0.7877(3) 0.51843(19) 0.75759(13)
Cl2 Cl 0.9745(2) 0.9098(2) 0.67309(12)
Cl3 Cl 0.52951(19) 0.86365(18) 0.83350(11)
N1 N 1.0677(6) 1.2380(5) 1.0230(3)
C1 C 1.1296(7) 1.2491(6) 0.9248(4)
C2 C 1.0230(7) 1.1986(6) 0.8476(4)
H1 H 1.0672 1.2079 0.7797
N2 N 0.8604(6) 1.1374(5) 0.8659(3)
C3 C 0.8020(7) 1.1272(6) 0.9634(4)
H2 H 0.6887 1.0857 0.9796
C4 C 0.9053(7) 1.1768(6) 1.0409(4)
H3 H 0.8599 1.1672 1.1086
C5 C 1.3131(8) 1.3188(7) 0.8999(5)
H4 H 1.3558 1.2921 0.8318
H5 H 1.4004 1.2822 0.9498
C6 C 1.2976(12) 1.4852(9) 0.9028(7)
H6 H 1.4143 1.5292 0.8872
H7 H 1.2124 1.5210 0.8526
H8 H 1.2561 1.5111 0.9704
N3 N 0.3971(6) 1.2220(5) 0.4613(3)
C7 C 0.5679(8) 1.2672(6) 0.4745(4)
C8 C 0.6575(8) 1.2236(7) 0.5636(4)
H9 H 0.7751 1.2577 0.5715
N4 N 0.5835(6) 1.1357(5) 0.6382(3)
C9 C 0.4128(7) 1.0930(6) 0.6242(4)
H10 H 0.3543 1.0327 0.6751
C10 C 0.3217(8) 1.1358(7) 0.5367(4)
H11 H 0.2031 1.1034 0.5299
C11 C 0.6534(11) 1.3682(9) 0.3909(5)
H12 H 0.5593 1.4322 0.3623
H13 H 0.6985 1.3076 0.3360
C12 C 0.8009(14) 1.4609(11) 0.4214(7)
H14 H 0.8463 1.5194 0.3624
H15 H 0.7574 1.5253 0.4734
H16 H 0.8967 1.3994 0.4486
N3A N 0.6029(6) 0.7780(5) 0.5387(3)
N1A N 0.9323(6) 0.7620(5) 0.9770(3)
Cu3A Cu 1.21596(13) 1.29165(12) 1.13798(6)
Cu2A Cu 0.25381(13) 1.26685(11) 0.33638(6)
loop_
_geom_bond_atom_site_label_1
_geom_bond_atom_site_label_2
_geom_bond_site_symmetry_1
_geom_bond_site_symmetry_2
Cu1 Cl2 1_555 1_555
Cu2 Cu3 1_555 1_555
Cu3 Cl1 1_555 1_555
Cl1 Cu2 1_555 1_555
Cl2 Cu2 1_555 1_555
Cl3 Cu1 1_555 1_555
N1 C1 1_555 1_555
C1 C2 1_555 1_555
C2 H1 1_555 1_555
N2 Cu1 1_555 1_555
C3 N2 1_555 1_555
H2 C3 1_555 1_555
C4 N1 1_555 1_555
H3 C4 1_555 1_555
C5 C1 1_555 1_555
H4 C5 1_555 1_555
H5 C5 1_555 1_555
C6 C5 1_555 1_555
H6 C6 1_555 1_555
H7 C6 1_555 1_555
H8 C6 1_555 1_555
N3 C7 1_555 1_555
C7 C8 1_555 1_555
C8 H9 1_555 1_555
N4 Cu1 1_555 1_555
C9 N4 1_555 1_555
H10 C9 1_555 1_555
C10 N3 1_555 1_555
H11 C10 1_555 1_555
C11 C7 1_555 1_555
H12 C11 1_555 1_555
H13 C11 1_555 1_555
C12 C11 1_555 1_555
H14 C12 1_555 1_555
H15 C12 1_555 1_555
H16 C12 1_555 1_555
N3A Cu2 1_555 1_555
N1A Cu3 1_555 1_555
Cu3A N1 1_555 1_555
Cu2A N3 1_555 1_555
Cu3 Cl3 1_555 1_555
C2 N2 1_555 1_555
C3 C4 1_555 1_555
C8 N4 1_555 1_555
C9 C10 1_555 1_555

#END
