
#######################################################################
#
#                 Cambridge Crystallographic Data Centre
#                                CCDC 
#
#######################################################################
#
# If this CIF has been generated from an entry in the Cambridge 
# Structural Database, then it will include bibliographic, chemical, 
# crystal, experimental, refinement or atomic coordinate data resulting 
# from the CCDC's data processing and validation procedures.
#
#######################################################################

data_AKAREJ02
_symmetry_cell_setting           triclinic
_symmetry_space_group_name_H-M   'P -1'
_symmetry_Int_Tables_number      2
_space_group_name_Hall           '-P 1'
loop_
_symmetry_equiv_pos_site_id
_symmetry_equiv_pos_as_xyz
1 x,y,z
2 -x,-y,-z
_cell_length_a                   7.8857(14)
_cell_length_b                   9.5778(18)
_cell_length_c                   9.6572(18)
_cell_angle_alpha                117.5270(10)
_cell_angle_beta                 96.023(2)
_cell_angle_gamma                103.380(2)
_cell_volume                     609.986
loop_
_atom_site_label
_atom_site_type_symbol
_atom_site_fract_x
_atom_site_fract_y
_atom_site_fract_z
Co1 Co 0.80610(2) 0.759580(18) 1.137843(19)
O1 O 0.67665(12) 0.70360(10) 1.28024(11)
O2 O 0.78077(13) 0.48986(11) 1.21671(11)
O3 O 0.36228(13) 0.39240(11) 1.07738(11)
O4 O 0.16655(13) 0.21385(11) 1.11425(11)
N1 N 0.81459(14) 1.00073(13) 1.24364(13)
N2 N 0.80558(16) 1.24318(13) 1.28199(14)
H1 H 0.7973 1.3223 1.2618
N3 N 1.06605(14) 0.77592(13) 1.17388(13)
N4 N 1.32859(17) 0.74071(16) 1.20923(16)
H2 H 1.4101 0.6935 1.2158
C1 C 0.83066(19) 1.10428(16) 1.40545(17)
H3 H 0.8434 1.0751 1.4867
C2 C 0.8252(2) 1.25416(17) 1.42968(18)
H4 H 0.8335 1.3483 1.5295
C3 C 0.80121(18) 1.09022(16) 1.17403(16)
H5 H 0.7900 1.0510 1.0623
C4 C 1.19915(19) 0.91901(17) 1.20994(17)
H6 H 1.1796 1.0163 1.2175
C5 C 1.3618(2) 0.89791(19) 1.2327(2)
H7 H 1.4761 0.9765 1.2595
C6 C 1.15090(18) 0.67168(17) 1.17472(17)
H8 H 1.0930 0.5627 1.1536
C7 C 0.68627(17) 0.57442(15) 1.28460(15)
C8 C 0.58360(17) 0.53447(14) 1.39254(15)
C9 C 0.40959(17) 0.42100(14) 1.33753(15)
C10 C 0.30416(17) 0.33417(15) 1.16528(15)
C11 C 0.67117(17) 0.61192(15) 1.55445(15)
H9 H 0.7888 0.6891 1.5923
Co1A Co 0.19390(2) 0.240420(18) 1.862157(19)
Co1A_2 Co 0.19390(2) 0.240420(18) 0.862157(19)
Co1_2 Co 0.80610(2) 0.759580(18) 2.137843(19)
O1A O 0.32335(12) 0.29640(10) 1.71976(11)
O2A O 0.21923(13) 0.51014(11) 1.78329(11)
O3A O 0.63772(13) 0.60760(11) 1.92262(11)
O3A_2 O 0.63772(13) 0.60760(11) 0.92262(11)
O3_2 O 0.36228(13) 0.39240(11) 2.07738(11)
O4A O 0.83345(13) 0.78615(11) 1.88575(11)
N1A N 0.18541(14) -0.00073(13) 1.75636(13)
N2A N 0.19442(16) -0.24318(13) 1.71801(14)
H1A H 0.2027 -0.3223 1.7382
N3A N -0.06605(14) 0.22408(13) 1.82612(13)
N4A N -0.32859(17) 0.25929(16) 1.79077(16)
H2A H -0.4101 0.3065 1.7842
C1A C 0.16934(19) -0.10428(16) 1.59455(17)
H3A H 0.1566 -0.0751 1.5133
C2A C 0.1748(2) -0.25416(17) 1.57032(18)
H4A H 0.1665 -0.3483 1.4705
C3A C 0.19879(18) -0.09022(16) 1.82597(16)
H5A H 0.2100 -0.0510 1.9377
C4A C -0.19915(19) 0.08099(17) 1.79006(17)
H6A H -0.1796 -0.0163 1.7825
C5A C -0.3618(2) 0.10209(19) 1.7673(2)
H7A H -0.4761 0.0235 1.7405
C6A C -0.15090(18) 0.32832(17) 1.82528(17)
H8A H -0.0930 0.4373 1.8464
C7A C 0.31373(17) 0.42558(15) 1.71540(15)
C8A C 0.41640(17) 0.46553(14) 1.60746(15)
C9A C 0.59041(17) 0.57900(14) 1.66247(15)
C10A C 0.69584(17) 0.66583(15) 1.83472(15)
C11A C 0.32883(17) 0.38808(15) 1.44555(15)
H9A H 0.2112 0.3109 1.4077
loop_
_geom_bond_atom_site_label_1
_geom_bond_atom_site_label_2
_geom_bond_site_symmetry_1
_geom_bond_site_symmetry_2
Co1 O1 1_555 1_555
O1 C7 1_555 1_555
O2 C7 1_555 1_555
O3 C10 1_555 1_555
O4 C10 1_555 1_555
N1 Co1 1_555 1_555
N2 H1 1_555 1_555
N3 Co1 1_555 1_555
N4 H2 1_555 1_555
C1 N1 1_555 1_555
H3 C1 1_555 1_555
C2 N2 1_555 1_555
H4 C2 1_555 1_555
C3 N1 1_555 1_555
H5 C3 1_555 1_555
C4 N3 1_555 1_555
H6 C4 1_555 1_555
C5 N4 1_555 1_555
H7 C5 1_555 1_555
C6 N3 1_555 1_555
H8 C6 1_555 1_555
C7 C8 1_555 1_555
C8 C9 1_555 1_555
C9 C10 1_555 1_555
C11 C8 1_555 1_555
H9 C11 1_555 1_555
Co1A O1A 1_555 1_555
Co1A_2 O3 1_555 1_555
Co1_2 O3A 1_555 1_555
O1A C7A 1_555 1_555
O2A C7A 1_555 1_555
O3A C10A 1_555 1_555
O3A_2 Co1 1_555 1_555
O3_2 Co1A 1_555 1_555
O4A C10A 1_555 1_555
N1A Co1A 1_555 1_555
N2A H1A 1_555 1_555
N3A Co1A 1_555 1_555
N4A H2A 1_555 1_555
C1A N1A 1_555 1_555
H3A C1A 1_555 1_555
C2A N2A 1_555 1_555
H4A C2A 1_555 1_555
C3A N1A 1_555 1_555
H5A C3A 1_555 1_555
C4A N3A 1_555 1_555
H6A C4A 1_555 1_555
C5A N4A 1_555 1_555
H7A C5A 1_555 1_555
C6A N3A 1_555 1_555
H8A C6A 1_555 1_555
C7A C8A 1_555 1_555
C8A C9A 1_555 1_555
C9A C11 1_555 1_555
C10A C9A 1_555 1_555
C11A C9 1_555 1_555
H9A C11A 1_555 1_555
N2 C3 1_555 1_555
N4 C6 1_555 1_555
C1 C2 1_555 1_555
C4 C5 1_555 1_555
N2A C3A 1_555 1_555
N4A C6A 1_555 1_555
C1A C2A 1_555 1_555
C4A C5A 1_555 1_555
C8A C11A 1_555 1_555

#END
