
#######################################################################
#
#                 Cambridge Crystallographic Data Centre
#                                CCDC 
#
#######################################################################
#
# If this CIF has been generated from an entry in the Cambridge 
# Structural Database, then it will include bibliographic, chemical, 
# crystal, experimental, refinement or atomic coordinate data resulting 
# from the CCDC's data processing and validation procedures.
#
#######################################################################

data_AKARUZ
_symmetry_cell_setting           monoclinic
_symmetry_space_group_name_H-M   'P 2/c'
_symmetry_Int_Tables_number      13
_space_group_name_Hall           '-P 2yc'
loop_
_symmetry_equiv_pos_site_id
_symmetry_equiv_pos_as_xyz
1 x,y,z
2 x,-y,1/2+z
3 -x,-y,-z
4 -x,y,1/2-z
_cell_length_a                   10.2297(12)
_cell_length_b                   11.6903(14)
_cell_length_c                   16.064(2)
_cell_angle_alpha                90
_cell_angle_beta                 104.093(2)
_cell_angle_gamma                90
_cell_volume                     1863.25
loop_
_atom_site_label
_atom_site_type_symbol
_atom_site_fract_x
_atom_site_fract_y
_atom_site_fract_z
Cd1 Cd 0.61240(3) 0.74473(2) 0.16534(2)
N1 N 0.6082(3) 0.5460(2) 0.1744(2)
C1 C 0.5154(4) 0.4858(3) 0.1122(2)
H1 H 0.4514 0.5251 0.0711
C2 C 0.5182(4) 0.3669(3) 0.1115(2)
H2 H 0.4561 0.3267 0.0699
C3 C 0.6139(3) 0.3083(2) 0.1730(2)
C4 C 0.7068(4) 0.3685(3) 0.2351(3)
H3 H 0.7708 0.3293 0.2762
C5 C 0.7039(4) 0.4874(3) 0.2358(3)
H4 H 0.7660 0.5276 0.2774
N2 N 0.6100(3) -0.0579(2) 0.1733(2)
C6 C 0.5178(4) 0.0024(3) 0.1109(3)
H5 H 0.4546 -0.0368 0.0692
C7 C 0.5201(5) 0.1213(3) 0.1106(3)
H6 H 0.4585 0.1616 0.0688
C8 C 0.6147(4) 0.1799(2) 0.1728(2)
C9 C 0.7068(5) 0.1196(3) 0.2353(3)
H7 H 0.7701 0.1588 0.2769
C10 C 0.7045(5) 0.0007(3) 0.2355(3)
H8 H 0.7662 -0.0396 0.2773
O1 O 0.4093(4) 0.7425(3) 0.0675(3)
O2 O 0.3481(4) 0.7452(3) 0.1876(3)
O3 O -0.1558(4) 0.7396(4) 0.1708(3)
O4 O -0.2909(4) 0.7412(4) 0.0439(3)
C11 C 0.0730(4) 0.7224(6) 0.0995(3)
H9 H 0.0889 0.7534 0.1543
C12 C 0.1801(3) 0.7023(6) 0.0622(3)
C13 C 0.1565(4) 0.6559(7) -0.0198(3)
H10 H 0.2281 0.6425 -0.0447
C14 C 0.0257(5) 0.6296(8) -0.0645(3)
H11 H 0.0099 0.5986 -0.1194
C15 C -0.0814(4) 0.6497(7) -0.0273(4)
H12 H -0.1688 0.6321 -0.0572
C16 C -0.0577(4) 0.6960(6) 0.0547(3)
C23 C 0.3227(4) 0.7426(4) 0.1092(3)
C24 C -0.1754(5) 0.7392(6) 0.0910(4)
N1_2 N 0.6082(3) 1.5460(2) 0.1744(2)
C1_2 C 0.5154(4) 1.4858(3) 0.1122(2)
H1_2 H 0.4514 1.5251 0.0711
C2_2 C 0.5182(4) 1.3669(3) 0.1115(2)
H2_2 H 0.4561 1.3267 0.0699
C3_2 C 0.6139(3) 1.3083(2) 0.1730(2)
C4_2 C 0.7068(4) 1.3685(3) 0.2351(3)
H3_2 H 0.7708 1.3293 0.2762
C5_2 C 0.7039(4) 1.4874(3) 0.2358(3)
H4_2 H 0.7660 1.5276 0.2774
N2_2 N 0.6100(3) 0.9421(2) 0.1733(2)
C6_2 C 0.5178(4) 1.0024(3) 0.1109(3)
H5_2 H 0.4546 0.9632 0.0692
C7_2 C 0.5201(5) 1.1213(3) 0.1106(3)
H6_2 H 0.4585 1.1616 0.0688
C8_2 C 0.6147(4) 1.1799(2) 0.1728(2)
C9_2 C 0.7068(5) 1.1196(3) 0.2353(3)
H7_2 H 0.7701 1.1588 0.2769
C10_2 C 0.7045(5) 1.0007(3) 0.2355(3)
H8_2 H 0.7662 0.9604 0.2773
O1C O 0.5907(4) 0.7425(3) 0.4325(3)
O2C O 0.6519(4) 0.7452(3) 0.3124(3)
O3C O 1.1558(4) 0.7396(4) 0.3292(3)
O4C O 1.2909(4) 0.7412(4) 0.4561(3)
C11C C 0.9270(4) 0.7224(6) 0.4005(3)
H9C H 0.9111 0.7534 0.3457
C12C C 0.8199(3) 0.7023(6) 0.4378(3)
C13C C 0.8435(4) 0.6559(7) 0.5198(3)
H10C H 0.7719 0.6425 0.5447
C14C C 0.9743(5) 0.6296(8) 0.5645(3)
H11C H 0.9901 0.5986 0.6194
C15C C 1.0814(4) 0.6497(7) 0.5273(4)
H12C H 1.1688 0.6321 0.5572
C16C C 1.0577(4) 0.6960(6) 0.4453(3)
C23C C 0.6773(4) 0.7426(4) 0.3908(3)
C24C C 1.1754(5) 0.7392(6) 0.4090(4)
Cd1_2 Cd 0.61240(3) 1.74473(2) 0.16534(2)
O3_2 O 0.8442(4) 0.7396(4) 0.1708(3)
O4_2 O 0.7091(4) 0.7412(4) 0.0439(3)
Cd1_3 Cd 0.61240(3) -0.25527(2) 0.16534(2)
Cd1C Cd 0.38760(3) 0.74473(2) 0.33466(2)
Cd1_4 Cd -0.38760(3) 0.74473(2) 0.16534(2)
Cd1C_2 Cd 1.38760(3) 0.74473(2) 0.33466(2)
N2_3 N 0.6100(3) 1.9421(2) 0.1733(2)
O1_2 O 0.4093(4) 1.7425(3) 0.0675(3)
O2_2 O 0.3481(4) 1.7452(3) 0.1876(3)
O2C_2 O 0.6519(4) 1.7452(3) 0.3124(3)
O3_3 O 0.8442(4) 1.7396(4) 0.1708(3)
O4_3 O 0.7091(4) 1.7412(4) 0.0439(3)
O5 O 0.0000 0.540(2) 0.2500
O6 O 0.0000 0.940(5) 0.2500
C17? C 0.0725(7) 0.7672(11) 0.0993(5)
H13? H 0.0885 0.7339 0.1534
C18? C 0.1793(5) 0.7891(11) 0.0622(6)
C19? C 0.1554(7) 0.8389(13) -0.0187(6)
H14? H 0.2269 0.8536 -0.0435
C20? C 0.0247(8) 0.8668(14) -0.0625(6)
H15? H 0.0086 0.9002 -0.1166
C21? C -0.0822(6) 0.8449(13) -0.0254(6)
H16? H -0.1697 0.8636 -0.0547
C22? C -0.0583(6) 0.7951(11) 0.0555(6)
loop_
_geom_bond_atom_site_label_1
_geom_bond_atom_site_label_2
_geom_bond_site_symmetry_1
_geom_bond_site_symmetry_2
Cd1 N1 1_555 1_555
N1 C1 1_555 1_555
C1 H1 1_555 1_555
C2 C1 1_555 1_555
H2 C2 1_555 1_555
C3 C2 1_555 1_555
C4 C3 1_555 1_555
H3 C4 1_555 1_555
C5 N1 1_555 1_555
H4 C5 1_555 1_555
N2 C6 1_555 1_555
C6 H5 1_555 1_555
C7 C6 1_555 1_555
H6 C7 1_555 1_555
C8 C3 1_555 1_555
C9 C8 1_555 1_555
H7 C9 1_555 1_555
C10 N2 1_555 1_555
H8 C10 1_555 1_555
O1 Cd1 1_555 1_555
O2 Cd1 1_555 1_555
O3 C24 1_555 1_555
O4 C24 1_555 1_555
C11 H9 1_555 1_555
C12 C11 1_555 1_555
C13 C12 1_555 1_555
H10 C13 1_555 1_555
C14 C13 1_555 1_555
H11 C14 1_555 1_555
C15 C14 1_555 1_555
H12 C15 1_555 1_555
C16 C11 1_555 1_555
C23 O1 1_555 1_555
C24 C16 1_555 1_555
N1_2 C1_2 1_555 1_555
C1_2 H1_2 1_555 1_555
C2_2 C1_2 1_555 1_555
H2_2 C2_2 1_555 1_555
C3_2 C2_2 1_555 1_555
C4_2 C3_2 1_555 1_555
H3_2 C4_2 1_555 1_555
C5_2 N1_2 1_555 1_555
H4_2 C5_2 1_555 1_555
N2_2 Cd1 1_555 1_555
C6_2 N2_2 1_555 1_555
H5_2 C6_2 1_555 1_555
C7_2 C6_2 1_555 1_555
H6_2 C7_2 1_555 1_555
C8_2 C3_2 1_555 1_555
C9_2 C8_2 1_555 1_555
H7_2 C9_2 1_555 1_555
C10_2 N2_2 1_555 1_555
H8_2 C10_2 1_555 1_555
O1C C23C 1_555 1_555
O2C Cd1 1_555 1_555
O3C C24C 1_555 1_555
O4C C24C 1_555 1_555
C11C H9C 1_555 1_555
C12C C11C 1_555 1_555
C13C C12C 1_555 1_555
H10C C13C 1_555 1_555
C14C C13C 1_555 1_555
H11C C14C 1_555 1_555
C15C C14C 1_555 1_555
H12C C15C 1_555 1_555
C16C C11C 1_555 1_555
C23C O2C 1_555 1_555
C24C C16C 1_555 1_555
Cd1_2 N1_2 1_555 1_555
O3_2 Cd1 1_555 1_555
O4_2 Cd1 1_555 1_555
Cd1_3 N2 1_555 1_555
Cd1C O2 1_555 1_555
Cd1_4 O3 1_555 1_555
Cd1C_2 O3C 1_555 1_555
N2_3 Cd1_2 1_555 1_555
O1_2 Cd1_2 1_555 1_555
O2_2 Cd1_2 1_555 1_555
O2C_2 Cd1_2 1_555 1_555
O3_3 Cd1_2 1_555 1_555
O4_3 Cd1_2 1_555 1_555
C4 C5 1_555 1_555
C7 C8 1_555 1_555
C9 C10 1_555 1_555
O2 C23 1_555 1_555
O4 Cd1_4 1_555 1_555
C12 C23 1_555 1_555
C15 C16 1_555 1_555
C4_2 C5_2 1_555 1_555
C7_2 C8_2 1_555 1_555
C9_2 C10_2 1_555 1_555
O1C Cd1C 1_555 1_555
O2C Cd1C 1_555 1_555
O4C Cd1C_2 1_555 1_555
C12C C23C 1_555 1_555
C15C C16C 1_555 1_555

#END
