
#######################################################################
#
#                 Cambridge Crystallographic Data Centre
#                                CCDC 
#
#######################################################################
#
# If this CIF has been generated from an entry in the Cambridge 
# Structural Database, then it will include bibliographic, chemical, 
# crystal, experimental, refinement or atomic coordinate data resulting 
# from the CCDC's data processing and validation procedures.
#
#######################################################################

data_AKAREJ01
_symmetry_cell_setting           triclinic
_symmetry_space_group_name_H-M   'P -1'
_symmetry_Int_Tables_number      2
_space_group_name_Hall           '-P 1'
loop_
_symmetry_equiv_pos_site_id
_symmetry_equiv_pos_as_xyz
1 x,y,z
2 -x,-y,-z
_cell_length_a                   9.610(1)
_cell_length_b                   9.684(1)
_cell_length_c                   7.924(1)
_cell_angle_alpha                96.695(9)
_cell_angle_beta                 102.741(6)
_cell_angle_gamma                116.551(5)
_cell_volume                     623.547
loop_
_atom_site_label
_atom_site_type_symbol
_atom_site_fract_x
_atom_site_fract_y
_atom_site_fract_z
Co1 Co 0.74079(3) 0.36120(3) 0.19799(4)
O1 O 0.7986(2) 0.2207(2) 0.3266(2)
O2 O 1.0099(2) 0.2809(2) 0.2215(3)
O3 O 1.1108(2) 0.4233(2) 0.6379(2)
O4 O 1.2855(2) 0.3836(2) 0.8287(3)
N1 N 0.5027(2) 0.2587(3) 0.1927(3)
N2 N 0.2627(3) 0.2217(3) 0.2000(4)
N3 N 0.7247(2) 0.3240(2) -0.0617(3)
N4 N 0.7647(4) 0.2950(4) -0.3205(4)
C1 C 0.9261(3) 0.2147(3) 0.3157(3)
C2 C 0.9667(3) 0.1074(3) 0.4180(3)
C3 C 0.8886(3) -0.0540(3) 0.3312(3)
H1 H 0.8138 -0.0900 0.2177
C4 C 1.0798(3) 0.1628(3) 0.5888(3)
C5 C 1.1671(3) 0.3343(3) 0.6937(3)
C6 C 0.4126(3) 0.3275(3) 0.2045(4)
H2 H 0.4489 0.4356 0.2146
C7 C 0.2532(4) 0.0766(4) 0.1802(5)
H3 H 0.1625 -0.0196 0.1714
C8 C 0.4006(3) 0.0994(3) 0.1757(5)
H4 H 0.4294 0.0199 0.1631
C9 C 0.5858(4) 0.2920(4) -0.1928(4)
H5 H 0.4911 0.2850 -0.1737
C10 C 0.6098(5) 0.2726(6) -0.3523(4)
H6 H 0.5352 0.2485 -0.4632
C11 C 0.8297(4) 0.3246(3) -0.1462(4)
H7 H 0.9345 0.3433 -0.0905
H8 H 0.814(6) 0.304(6) -0.397(6)
H9 H 0.202(6) 0.240(6) 0.229(6)
Co1A Co 1.25921(3) -0.36120(3) 0.80201(4)
Co1A_2 Co 1.25921(3) 0.63880(3) 0.80201(4)
Co1_2 Co 0.74079(3) -0.63880(3) 0.19799(4)
O1A O 1.2014(2) -0.2207(2) 0.6734(2)
O2A O 0.9901(2) -0.2809(2) 0.7785(3)
O3A O 0.8892(2) -0.4233(2) 0.3621(2)
O3A_2 O 0.8892(2) 0.5767(2) 0.3621(2)
O3_2 O 1.1108(2) -0.5767(2) 0.6379(2)
O4A O 0.7145(2) -0.3836(2) 0.1713(3)
N1A N 1.4973(2) -0.2587(3) 0.8073(3)
N2A N 1.7373(3) -0.2217(3) 0.8000(4)
N3A N 1.2753(2) -0.3240(2) 1.0617(3)
N4A N 1.2353(4) -0.2950(4) 1.3205(4)
C1A C 1.0739(3) -0.2147(3) 0.6843(3)
C2A C 1.0333(3) -0.1074(3) 0.5820(3)
C3A C 1.1114(3) 0.0540(3) 0.6688(3)
H1A H 1.1862 0.0900 0.7823
C4A C 0.9202(3) -0.1628(3) 0.4112(3)
C5A C 0.8329(3) -0.3343(3) 0.3063(3)
C6A C 1.5874(3) -0.3275(3) 0.7955(4)
H2A H 1.5511 -0.4356 0.7854
C7A C 1.7468(4) -0.0766(4) 0.8198(5)
H3A H 1.8375 0.0196 0.8286
C8A C 1.5994(3) -0.0994(3) 0.8243(5)
H4A H 1.5706 -0.0199 0.8369
C9A C 1.4142(4) -0.2920(4) 1.1928(4)
H5A H 1.5089 -0.2850 1.1737
C10A C 1.3902(5) -0.2726(6) 1.3523(4)
H6A H 1.4648 -0.2485 1.4632
C11A C 1.1703(4) -0.3246(3) 1.1462(4)
H7A H 1.0655 -0.3433 1.0905
H8A H 1.186(6) -0.304(6) 1.397(6)
H9A H 1.798(6) -0.240(6) 0.771(6)
loop_
_geom_bond_atom_site_label_1
_geom_bond_atom_site_label_2
_geom_bond_site_symmetry_1
_geom_bond_site_symmetry_2
Co1 O1 1_555 1_555
O1 C1 1_555 1_555
O2 C1 1_555 1_555
O3 C5 1_555 1_555
O4 C5 1_555 1_555
N1 Co1 1_555 1_555
N2 C6 1_555 1_555
N3 Co1 1_555 1_555
N4 C10 1_555 1_555
C1 C2 1_555 1_555
C2 C3 1_555 1_555
C3 H1 1_555 1_555
C4 C2 1_555 1_555
C5 C4 1_555 1_555
C6 N1 1_555 1_555
H2 C6 1_555 1_555
C7 N2 1_555 1_555
H3 C7 1_555 1_555
C8 N1 1_555 1_555
H4 C8 1_555 1_555
C9 N3 1_555 1_555
H5 C9 1_555 1_555
C10 C9 1_555 1_555
H6 C10 1_555 1_555
C11 N3 1_555 1_555
H7 C11 1_555 1_555
H8 N4 1_555 1_555
H9 N2 1_555 1_555
Co1A O1A 1_555 1_555
Co1A_2 O3 1_555 1_555
Co1_2 O3A 1_555 1_555
O1A C1A 1_555 1_555
O2A C1A 1_555 1_555
O3A C5A 1_555 1_555
O3A_2 Co1 1_555 1_555
O3_2 Co1A 1_555 1_555
O4A C5A 1_555 1_555
N1A Co1A 1_555 1_555
N2A C6A 1_555 1_555
N3A Co1A 1_555 1_555
N4A C10A 1_555 1_555
C1A C2A 1_555 1_555
C2A C3A 1_555 1_555
C3A C4 1_555 1_555
H1A C3A 1_555 1_555
C4A C3 1_555 1_555
C5A C4A 1_555 1_555
C6A N1A 1_555 1_555
H2A C6A 1_555 1_555
C7A N2A 1_555 1_555
H3A C7A 1_555 1_555
C8A N1A 1_555 1_555
H4A C8A 1_555 1_555
C9A N3A 1_555 1_555
H5A C9A 1_555 1_555
C10A C9A 1_555 1_555
H6A C10A 1_555 1_555
C11A N3A 1_555 1_555
H7A C11A 1_555 1_555
H8A N4A 1_555 1_555
H9A N2A 1_555 1_555
N4 C11 1_555 1_555
C7 C8 1_555 1_555
N4A C11A 1_555 1_555
C2A C4A 1_555 1_555
C7A C8A 1_555 1_555

#END
