
#######################################################################
#
#                 Cambridge Crystallographic Data Centre
#                                CCDC 
#
#######################################################################
#
# If this CIF has been generated from an entry in the Cambridge 
# Structural Database, then it will include bibliographic, chemical, 
# crystal, experimental, refinement or atomic coordinate data resulting 
# from the CCDC's data processing and validation procedures.
#
#######################################################################

data_AKAREJ
_symmetry_cell_setting           triclinic
_symmetry_space_group_name_H-M   'P -1'
_symmetry_Int_Tables_number      2
_space_group_name_Hall           '-P 1'
loop_
_symmetry_equiv_pos_site_id
_symmetry_equiv_pos_as_xyz
1 x,y,z
2 -x,-y,-z
_cell_length_a                   7.9294(11)
_cell_length_b                   9.621(3)
_cell_length_c                   9.6461(16)
_cell_angle_alpha                116.772(19)
_cell_angle_beta                 96.791(13)
_cell_angle_gamma                102.787(19)
_cell_volume                     620.314
loop_
_atom_site_label
_atom_site_type_symbol
_atom_site_fract_x
_atom_site_fract_y
_atom_site_fract_z
Co1 Co 0.19809(3) 0.74097(3) 0.86125(3)
C1 C 0.1767(4) 0.4009(3) 0.5999(3)
H1 H 0.1648 0.4296 0.5200
C2 C 0.1810(5) 0.2535(3) 0.5770(3)
H2 H 0.1723 0.1628 0.4800
C3 C 0.2048(3) 0.4127(3) 0.8276(3)
H3 H 0.2153 0.4498 0.9364
C4 C -0.1925(3) 0.5864(3) 0.7922(4)
H4 H -0.1737 0.4915 0.7850
C5 C -0.3521(4) 0.6109(5) 0.7733(5)
H5 H -0.4631 0.5365 0.7498
C6 C -0.1455(3) 0.8290(3) 0.8244(3)
H6 H -0.0896 0.9337 0.8428
C7 C 0.3061(3) 0.8335(3) 1.1662(3)
C8 C 0.4107(3) 0.9205(3) 1.3379(2)
C9 C 0.3319(3) 0.8886(3) 1.4461(2)
H7 H 0.2184 0.8133 1.4093
C10 C 0.5820(3) 1.0337(3) 1.3925(2)
C11 C 0.6839(3) 1.0738(3) 1.2851(2)
N1 N 0.1927(2) 0.5026(2) 0.7591(2)
N2 N 0.2004(3) 0.2627(3) 0.7226(3)
H8 H 0.2083 0.1858 0.7431
N3 N -0.0615(2) 0.7251(2) 0.8241(2)
N4 N -0.3209(3) 0.7641(4) 0.7949(3)
H9 H -0.4002 0.8112 0.7904
O1 O 0.3620(2) 0.8889(2) 1.07661(18)
O2 O 0.1714(2) 0.7148(2) 1.1167(2)
O3 O 0.7780(2) 0.9901(2) 1.2185(2)
O4 O 0.6733(2) 1.20123(18) 1.27880(18)
C10A C 0.4180(3) 0.9663(3) 1.6075(2)
C8A C 0.5893(3) 1.0795(3) 1.6621(2)
C7A C 0.6939(3) 1.1665(3) 1.8338(3)
O1A O 0.6380(2) 1.1111(2) 1.92339(18)
O2A O 0.8286(2) 1.2852(2) 1.8833(2)
C9A C 0.6681(3) 1.1114(3) 1.5539(2)
H7A H 0.7816 1.1867 1.5907
C11A C 0.3161(3) 0.9262(3) 1.7149(2)
O3A O 0.2220(2) 1.0099(2) 1.7815(2)
O4A O 0.3267(2) 0.79877(18) 1.72120(18)
Co1A Co 0.80191(3) 1.25903(3) 2.13875(3)
C1A C 0.8233(4) 1.5991(3) 2.4001(3)
H1A H 0.8352 1.5704 2.4800
C2A C 0.8190(5) 1.7465(3) 2.4230(3)
H2A H 0.8277 1.8372 2.5200
C3A C 0.7952(3) 1.5873(3) 2.1724(3)
H3A H 0.7847 1.5502 2.0636
N1A N 0.8073(2) 1.4974(2) 2.2409(2)
N2A N 0.7996(3) 1.7373(3) 2.2774(3)
H8A H 0.7917 1.8142 2.2569
C4A C 1.1925(3) 1.4136(3) 2.2078(4)
H4A H 1.1737 1.5085 2.2150
C5A C 1.3521(4) 1.3891(5) 2.2267(5)
H5A H 1.4631 1.4635 2.2502
C6A C 1.1455(3) 1.1710(3) 2.1756(3)
H6A H 1.0896 1.0663 2.1572
N3A N 1.0615(2) 1.2749(2) 2.1759(2)
N4A N 1.3209(3) 1.2359(4) 2.2051(3)
H9A H 1.4002 1.1888 2.2096
O4A_2 O 0.3267(2) 0.79877(18) 0.72120(18)
Co1A_2 Co 0.80191(3) 1.25903(3) 1.13875(3)
Co1_2 Co 0.19809(3) 0.74097(3) 1.86125(3)
O4_2 O 0.6733(2) 1.20123(18) 2.27880(18)
loop_
_geom_bond_atom_site_label_1
_geom_bond_atom_site_label_2
_geom_bond_site_symmetry_1
_geom_bond_site_symmetry_2
Co1 N1 1_555 1_555
C1 H1 1_555 1_555
C2 C1 1_555 1_555
H2 C2 1_555 1_555
C3 H3 1_555 1_555
C4 H4 1_555 1_555
C5 C4 1_555 1_555
H5 C5 1_555 1_555
C6 H6 1_555 1_555
C7 C8 1_555 1_555
C8 C9 1_555 1_555
C9 H7 1_555 1_555
C10 C8 1_555 1_555
C11 C10 1_555 1_555
N1 C1 1_555 1_555
N2 C2 1_555 1_555
H8 N2 1_555 1_555
N3 Co1 1_555 1_555
N4 C5 1_555 1_555
H9 N4 1_555 1_555
O1 Co1 1_555 1_555
O2 C7 1_555 1_555
O3 C11 1_555 1_555
O4 C11 1_555 1_555
C10A C9 1_555 1_555
C8A C10A 1_555 1_555
C7A C8A 1_555 1_555
O1A C7A 1_555 1_555
O2A C7A 1_555 1_555
C9A C10 1_555 1_555
H7A C9A 1_555 1_555
C11A C10A 1_555 1_555
O3A C11A 1_555 1_555
O4A C11A 1_555 1_555
Co1A O1A 1_555 1_555
C1A H1A 1_555 1_555
C2A C1A 1_555 1_555
H2A C2A 1_555 1_555
C3A H3A 1_555 1_555
N1A Co1A 1_555 1_555
N2A C2A 1_555 1_555
H8A N2A 1_555 1_555
C4A H4A 1_555 1_555
C5A C4A 1_555 1_555
H5A C5A 1_555 1_555
C6A H6A 1_555 1_555
N3A Co1A 1_555 1_555
N4A C5A 1_555 1_555
H9A N4A 1_555 1_555
O4A_2 Co1 1_555 1_555
Co1A_2 O4 1_555 1_555
Co1_2 O4A 1_555 1_555
O4_2 Co1A 1_555 1_555
C3 N2 1_555 1_555
C3 N1 1_555 1_555
C4 N3 1_555 1_555
C6 N4 1_555 1_555
C6 N3 1_555 1_555
C7 O1 1_555 1_555
C8A C9A 1_555 1_555
C1A N1A 1_555 1_555
C3A N2A 1_555 1_555
C3A N1A 1_555 1_555
C4A N3A 1_555 1_555
C6A N4A 1_555 1_555
C6A N3A 1_555 1_555

#END
