
#######################################################################
#
#                 Cambridge Crystallographic Data Centre
#                                CCDC 
#
#######################################################################
#
# If this CIF has been generated from an entry in the Cambridge 
# Structural Database, then it will include bibliographic, chemical, 
# crystal, experimental, refinement or atomic coordinate data resulting 
# from the CCDC's data processing and validation procedures.
#
#######################################################################

data_AKASUB
_symmetry_cell_setting           monoclinic
_symmetry_space_group_name_H-M   'P 21/n'
_symmetry_Int_Tables_number      14
_space_group_name_Hall           '-P 2yn'
loop_
_symmetry_equiv_pos_site_id
_symmetry_equiv_pos_as_xyz
1 x,y,z
2 1/2-x,1/2+y,1/2-z
3 -x,-y,-z
4 1/2+x,1/2-y,1/2+z
_cell_length_a                   10.4389(10)
_cell_length_b                   10.8576(9)
_cell_length_c                   11.8095(15)
_cell_angle_alpha                90
_cell_angle_beta                 108.226(13)
_cell_angle_gamma                90
_cell_volume                     1271.35
loop_
_atom_site_label
_atom_site_type_symbol
_atom_site_fract_x
_atom_site_fract_y
_atom_site_fract_z
Mg1 Mg 0.50000 1.00000 0.00000
K1 K 0.47906(6) 0.67089(6) 0.09970(6)
C1 C 0.1111(2) 1.1140(2) 0.12000(19)
C2 C 0.1902(2) 1.2001(2) 0.07131(18)
C3 C 0.2893(2) 1.1266(2) 0.04040(18)
C4 C 0.2725(2) 0.9984(2) 0.06797(18)
C5 C 0.16237(19) 0.9888(2) 0.11595(18)
C6 C 0.1131(2) 0.8834(2) 0.15255(18)
C7 C 0.1658(2) 0.7651(2) 0.1390(2)
C8 C 0.0090(2) 0.8851(2) 0.2078(2)
C9 C 0.1723(2) 1.3256(2) 0.06247(19)
C10 C 0.2526(2) 1.4008(2) 0.0122(2)
C11 C 0.0791(2) 1.3883(2) 0.1096(2)
O1 O 0.01667(16) 1.14236(16) 0.15682(15)
O2 O 0.38237(15) 1.16010(14) -0.00031(14)
O3 O 0.35112(14) 0.91497(14) 0.05393(13)
O4 O 0.6089(2) 1.0353(2) 0.17436(18)
O5 O 0.7117(2) 0.7345(2) 0.2889(2)
N1 N 0.2071(2) 0.6703(2) 0.1269(2)
N2 N -0.0714(2) 0.8805(2) 0.2551(2)
N3 N 0.3182(2) 1.4619(2) -0.0274(2)
N4 N 0.0088(2) 1.4417(2) 0.1501(2)
H1 H 0.669(3) 1.088(3) 0.192(3)
H2 H 0.593(4) 1.009(4) 0.218(4)
H3 H 0.756(4) 0.797(4) 0.282(3)
H4 H 0.690(5) 0.760(4) 0.350(4)
K1B K 0.52094(6) 1.32911(6) -0.09970(6)
K1A K 0.02094(6) 1.17089(6) 0.40030(6)
K1_2 K 0.47906(6) 1.67089(6) 0.09970(6)
K1C K 0.97906(6) 0.82911(6) -0.40030(6)
K1B_2 K 0.52094(6) 0.32911(6) -0.09970(6)
C1B C 0.8889(2) 0.8860(2) -0.12000(19)
C2B C 0.8098(2) 0.7999(2) -0.07131(18)
C3B C 0.7107(2) 0.8734(2) -0.04040(18)
C4B C 0.7275(2) 1.0016(2) -0.06797(18)
C5B C 0.83763(19) 1.0112(2) -0.11595(18)
C6B C 0.8869(2) 1.1166(2) -0.15255(18)
C7B C 0.8342(2) 1.2349(2) -0.1390(2)
C8B C 0.9910(2) 1.1149(2) -0.2078(2)
C9B C 0.8277(2) 0.6744(2) -0.06247(19)
C10B C 0.7474(2) 0.5992(2) -0.0122(2)
C11B C 0.9209(2) 0.6117(2) -0.1096(2)
O1B O 0.98333(16) 0.85764(16) -0.15682(15)
O1A O 0.48333(16) 0.64236(16) 0.34318(15)
O1C O 0.51667(16) 1.35764(16) -0.34318(15)
O2B O 0.61763(15) 0.83990(14) 0.00031(14)
O3B O 0.64888(14) 1.08503(14) -0.05393(13)
O4B O 0.3911(2) 0.9647(2) -0.17436(18)
O5B O 0.2883(2) 1.2655(2) -0.2889(2)
N1B N 0.7929(2) 1.3297(2) -0.1269(2)
N2B N 1.0714(2) 1.1195(2) -0.2551(2)
N3B N 0.6818(2) 0.5381(2) 0.0274(2)
N3_2 N 0.3182(2) 0.4619(2) -0.0274(2)
N3B_2 N 0.6818(2) 1.5381(2) 0.0274(2)
N4B N 0.9912(2) 0.5583(2) -0.1501(2)
H1B H 0.331(3) 0.912(3) -0.192(3)
H2B H 0.407(4) 0.991(4) -0.218(4)
H3B H 0.244(4) 1.203(4) -0.282(3)
H4B H 0.310(5) 1.240(4) -0.350(4)
loop_
_geom_bond_atom_site_label_1
_geom_bond_atom_site_label_2
_geom_bond_site_symmetry_1
_geom_bond_site_symmetry_2
Mg1 O2 1_555 1_555
K1 O3 1_555 1_555
C1 C2 1_555 1_555
C2 C3 1_555 1_555
C3 C4 1_555 1_555
C4 C5 1_555 1_555
C5 C1 1_555 1_555
C6 C5 1_555 1_555
C7 C6 1_555 1_555
C8 C6 1_555 1_555
C9 C2 1_555 1_555
C10 C9 1_555 1_555
C11 C9 1_555 1_555
O1 C1 1_555 1_555
O2 C3 1_555 1_555
O3 Mg1 1_555 1_555
O4 Mg1 1_555 1_555
O5 K1 1_555 1_555
N1 K1 1_555 1_555
N2 C8 1_555 1_555
N3 C10 1_555 1_555
N4 C11 1_555 1_555
H1 O4 1_555 1_555
H2 O4 1_555 1_555
H3 O5 1_555 1_555
H4 O5 1_555 1_555
K1B O2 1_555 1_555
K1A O1 1_555 1_555
K1_2 N3 1_555 1_555
K1C O1B 1_555 1_555
K1B_2 N3B 1_555 1_555
C1B C2B 1_555 1_555
C2B C3B 1_555 1_555
C3B C4B 1_555 1_555
C4B C5B 1_555 1_555
C5B C1B 1_555 1_555
C6B C5B 1_555 1_555
C7B C6B 1_555 1_555
C8B C6B 1_555 1_555
C9B C2B 1_555 1_555
C10B C9B 1_555 1_555
C11B C9B 1_555 1_555
O1B C1B 1_555 1_555
O1A K1 1_555 1_555
O1C K1B 1_555 1_555
O2B Mg1 1_555 1_555
O3B Mg1 1_555 1_555
O4B Mg1 1_555 1_555
O5B K1B 1_555 1_555
N1B K1B 1_555 1_555
N2B C8B 1_555 1_555
N3B K1 1_555 1_555
N3_2 K1 1_555 1_555
N3B_2 K1B 1_555 1_555
N4B C11B 1_555 1_555
H1B O4B 1_555 1_555
H2B O4B 1_555 1_555
H3B O5B 1_555 1_555
H4B O5B 1_555 1_555
K1 O2B 1_555 1_555
C4 O3 1_555 1_555
C7 N1 1_555 1_555
N3 K1B 1_555 1_555
K1B O3B 1_555 1_555
K1_2 N3B_2 1_555 1_555
K1B_2 N3_2 1_555 1_555
C3B O2B 1_555 1_555
C4B O3B 1_555 1_555
C7B N1B 1_555 1_555
C10B N3B 1_555 1_555

#END
