
#######################################################################
#
#                 Cambridge Crystallographic Data Centre
#                                CCDC 
#
#######################################################################
#
# If this CIF has been generated from an entry in the Cambridge 
# Structural Database, then it will include bibliographic, chemical, 
# crystal, experimental, refinement or atomic coordinate data resulting 
# from the CCDC's data processing and validation procedures.
#
#######################################################################

data_AKAXIU
_symmetry_cell_setting           monoclinic
_symmetry_space_group_name_H-M   'C 2'
_symmetry_Int_Tables_number      5
_space_group_name_Hall           'C 2y'
loop_
_symmetry_equiv_pos_site_id
_symmetry_equiv_pos_as_xyz
1 x,y,z
2 -x,y,-z
3 1/2+x,1/2+y,z
4 1/2-x,1/2+y,-z
_cell_length_a                   31.933(4)
_cell_length_b                   7.8383(8)
_cell_length_c                   18.115(2)
_cell_angle_alpha                90
_cell_angle_beta                 116.158(2)
_cell_angle_gamma                90
_cell_volume                     4069.81
loop_
_atom_site_label
_atom_site_type_symbol
_atom_site_fract_x
_atom_site_fract_y
_atom_site_fract_z
Cu1 Cu 0.52562(5) 0.77857(18) -0.12719(7)
Cu2 Cu 0.49157(3) 0.89103(14) -0.27350(6)
I1 I 0.499127(19) 1.08257(7) -0.14623(3)
I2 I 0.53054(3) 0.58803(9) -0.23700(3)
C1 C 0.6805(3) 0.4130(12) 0.3884(5)
H1 H 0.6982 0.4594 0.3627
C2 C 0.6331(3) 0.4083(12) 0.3494(5)
C3 C 0.6058(3) 0.3374(10) 0.3841(5)
H2 H 0.5728 0.3328 0.3552
C4 C 0.6298(3) 0.2744(11) 0.4628(5)
C5 C 0.6769(3) 0.2774(12) 0.5050(5)
H3 H 0.6922 0.2325 0.5591
C6 C 0.7018(3) 0.3473(11) 0.4670(5)
C7 C 0.6091(3) 0.3894(13) 0.2071(5)
C8 C 0.5808(3) 0.2918(12) 0.5295(6)
C9 C 0.7782(3) 0.2896(12) 0.4841(5)
C10 C 0.5864(3) 0.4881(12) 0.1296(5)
C11 C 0.5755(4) 0.4048(13) 0.0563(5)
H4 H 0.5806 0.2854 0.0565
C12 C 0.5575(4) 0.4905(14) -0.0157(6)
H5 H 0.5496 0.4292 -0.0654
C13 C 0.5603(3) 0.7451(14) 0.0496(6)
H6 H 0.5546 0.8643 0.0475
C14 C 0.5789(4) 0.6609(13) 0.1255(5)
H7 H 0.5864 0.7239 0.1745
C15 C 0.5601(3) 0.1885(12) 0.5735(5)
C16 C 0.5386(3) 0.2755(12) 0.6141(6)
H8 H 0.5364 0.3965 0.6122
C17 C 0.5202(3) 0.1788(12) 0.6580(6)
H9 H 0.5056 0.2364 0.6866
C18 C 0.5431(4) -0.0703(11) 0.6219(6)
H10 H 0.5441 -0.1914 0.6242
C19 C 0.5628(4) 0.0124(12) 0.5787(6)
H11 H 0.5782 -0.0499 0.5528
C20 C 0.8293(3) 0.3175(10) 0.5432(5)
C21 C 0.8419(3) 0.4134(11) 0.6150(5)
H12 H 0.8190 0.4646 0.6280
C22 C 0.8890(3) 0.4308(10) 0.6666(5)
H13 H 0.8981 0.4983 0.7148
C23 C 0.9085(3) 0.2668(12) 0.5810(5)
H14 H 0.9318 0.2169 0.5687
C24 C 0.8632(3) 0.2442(11) 0.5274(5)
H15 H 0.8551 0.1778 0.4792
N1 N 0.5507(3) 0.6608(11) -0.0193(5)
N2 N 0.5223(2) 0.0128(9) 0.6610(4)
N3 N 0.9222(2) 0.3577(8) 0.6519(4)
O1 O 0.6097(2) 0.4828(8) 0.2710(3)
O2 O 0.6050(2) 0.1927(8) 0.4997(4)
O3 O 0.7505(2) 0.3586(10) 0.5133(3)
O4 O 0.6263(3) 0.2515(10) 0.2151(4)
O5 O 0.5783(4) 0.4423(9) 0.5225(6)
O6 O 0.7657(2) 0.2175(11) 0.4212(4)
Cu2_2 Cu 0.49157(3) -0.10897(14) 0.72650(6)
Cu2B Cu 0.99157(3) 0.39103(14) 0.72650(6)
N2_2 N 0.5223(2) 1.0128(9) -0.3390(4)
N3B N 0.4222(2) 0.8577(8) -0.3481(4)
N4 N 0.7085(9) 0.688(3) 0.2648(15)
C25 C 0.7083(10) 0.823(3) 0.2463(17)
C26 C 0.7155(9) 0.997(3) 0.2296(17)
H16 H 0.6853 1.0536 0.2006
H17 H 0.7322 0.9989 0.1953
H18 H 0.7341 1.0559 0.2815
N5 N 0.347(2) 0.654(7) 0.280(3)
C27 C 0.347(2) 0.518(7) 0.296(5)
C28 C 0.3318(19) 0.350(7) 0.291(4)
H19 H 0.3295 0.2973 0.2407
H20 H 0.3012 0.3483 0.2916
H21 H 0.3542 0.2859 0.3390
N6 N 0.6271(16) 0.084(8) -0.143(3)
C29 C 0.638(2) 0.058(11) -0.077(3)
C30 C 0.651(2) 0.034(9) 0.007(3)
H22 H 0.6231 0.0347 0.0168
H23 H 0.6719 0.1262 0.0382
H24 H 0.6669 -0.0758 0.0242
loop_
_geom_bond_atom_site_label_1
_geom_bond_atom_site_label_2
_geom_bond_site_symmetry_1
_geom_bond_site_symmetry_2
Cu1 I1 1_555 1_555
Cu2 I1 1_555 1_555
I2 Cu1 1_555 1_555
C1 H1 1_555 1_555
C2 C1 1_555 1_555
C3 C2 1_555 1_555
H2 C3 1_555 1_555
C4 C3 1_555 1_555
C5 C4 1_555 1_555
H3 C5 1_555 1_555
C6 C1 1_555 1_555
C7 C10 1_555 1_555
C8 C15 1_555 1_555
C9 C20 1_555 1_555
C10 C11 1_555 1_555
C11 H4 1_555 1_555
C12 C11 1_555 1_555
H5 C12 1_555 1_555
C13 H6 1_555 1_555
C14 C10 1_555 1_555
H7 C14 1_555 1_555
C15 C16 1_555 1_555
C16 H8 1_555 1_555
C17 C16 1_555 1_555
H9 C17 1_555 1_555
C18 H10 1_555 1_555
C19 C15 1_555 1_555
H11 C19 1_555 1_555
C20 C21 1_555 1_555
C21 H12 1_555 1_555
C22 C21 1_555 1_555
H13 C22 1_555 1_555
C23 H14 1_555 1_555
C24 C20 1_555 1_555
H15 C24 1_555 1_555
N1 Cu1 1_555 1_555
N2 C17 1_555 1_555
N3 C22 1_555 1_555
O1 C2 1_555 1_555
O2 C4 1_555 1_555
O3 C6 1_555 1_555
O4 C7 1_555 1_555
O5 C8 1_555 1_555
O6 C9 1_555 1_555
N4 C25 1_555 1_555
C25 C26 1_555 1_555
C26 H16 1_555 1_555
H17 C26 1_555 1_555
H18 C26 1_555 1_555
N5 C27 1_555 1_555
C27 C28 1_555 1_555
C28 H19 1_555 1_555
H20 C28 1_555 1_555
H21 C28 1_555 1_555
N6 C29 1_555 1_555
C29 C30 1_555 1_555
C30 H22 1_555 1_555
H23 C30 1_555 1_555
H24 C30 1_555 1_555
Cu2_2 N2 1_555 1_555
Cu2B N3 1_555 1_555
N2_2 Cu2 1_555 1_555
N3B Cu2 1_555 1_555
Cu2 I2 1_555 1_555
C5 C6 1_555 1_555
C7 O1 1_555 1_555
C8 O2 1_555 1_555
C9 O3 1_555 1_555
C12 N1 1_555 1_555
C13 C14 1_555 1_555
C13 N1 1_555 1_555
C18 C19 1_555 1_555
C18 N2 1_555 1_555
C23 C24 1_555 1_555
C23 N3 1_555 1_555

#END
