
#######################################################################
#
#                 Cambridge Crystallographic Data Centre
#                                CCDC 
#
#######################################################################
#
# If this CIF has been generated from an entry in the Cambridge 
# Structural Database, then it will include bibliographic, chemical, 
# crystal, experimental, refinement or atomic coordinate data resulting 
# from the CCDC's data processing and validation procedures.
#
#######################################################################

data_AKAXUG
_symmetry_cell_setting           monoclinic
_symmetry_space_group_name_H-M   'C 2'
_symmetry_Int_Tables_number      5
_space_group_name_Hall           'C 2y'
loop_
_symmetry_equiv_pos_site_id
_symmetry_equiv_pos_as_xyz
1 x,y,z
2 -x,y,-z
3 1/2+x,1/2+y,z
4 1/2-x,1/2+y,-z
_cell_length_a                   31.751
_cell_length_b                   7.749
_cell_length_c                   18.199
_cell_angle_alpha                90
_cell_angle_beta                 115.97
_cell_angle_gamma                90
_cell_volume                     4025.52
loop_
_atom_site_label
_atom_site_type_symbol
_atom_site_fract_x
_atom_site_fract_y
_atom_site_fract_z
Cu1 Cu -0.00732(3) 0.96691(14) 0.73043(5)
Cu2 Cu 0.02808(4) 1.07612(15) 0.87561(5)
I1 I -0.002364(15) 0.77220(8) 0.85454(2)
I2 I 0.033184(19) 1.27002(9) 0.76626(3)
N1 N 0.0225(2) 0.8468(9) 0.6645(4)
N2 N 0.4233(2) 0.5007(8) 0.6552(3)
N3 N 0.0515(2) 0.2025(9) -0.0177(4)
O1 O 0.10186(17) 0.6688(8) 0.4962(3)
O2 O 0.25010(18) 0.5015(8) 0.5162(3)
O3 O 0.11043(18) 0.3773(8) 0.2712(3)
O4 O 0.0790(2) 0.4100(9) 0.5236(3)
O5 O 0.2666(2) 0.6320(9) 0.4197(4)
O6 O 0.1287(2) 0.6104(8) 0.2164(3)
C1 C 0.1280(2) 0.5871(11) 0.4608(4)
C2 C 0.1758(2) 0.5799(12) 0.5051(4)
H1 H 0.1907 0.6210 0.5598
C3 C 0.2012(3) 0.5122(11) 0.4683(4)
C4 C 0.1813(3) 0.4457(11) 0.3898(4)
H2 H 0.1997 0.3966 0.3657
C5 C 0.1328(3) 0.4551(12) 0.3484(4)
C6 C 0.1049(3) 0.5240(10) 0.3815(5)
H3 H 0.0717 0.5280 0.3518
C7 C 0.0814(2) 0.5626(11) 0.5294(4)
C8 C 0.2801(3) 0.5639(11) 0.4866(5)
C9 C 0.1122(3) 0.4740(13) 0.2076(4)
C10 C 0.0599(2) 0.6719(12) 0.5743(4)
C11 C 0.0394(2) 0.5896(11) 0.6172(4)
H4 H 0.0382 0.4670 0.6159
C12 C 0.0209(3) 0.6734(11) 0.6611(4)
H5 H 0.0069 0.6106 0.6894
C13 C 0.0420(3) 0.9395(15) 0.6225(5)
H6 H 0.0423 1.0621 0.6235
C14 C 0.0614(3) 0.8475(12) 0.5778(5)
H7 H 0.0758 0.9090 0.5497
C15 C 0.3294(3) 0.5383(11) 0.5460(4)
C16 C 0.3416(3) 0.4443(12) 0.6167(4)
H8 H 0.3184 0.3905 0.6287
C17 C 0.4100(3) 0.5924(11) 0.5846(4)
H9 H 0.4335 0.6458 0.5734
C18 C 0.3639(3) 0.6105(12) 0.5291(4)
H10 H 0.3558 0.6721 0.4796
C19 C 0.0897(3) 0.3803(12) 0.1297(4)
C20 C 0.0776(3) 0.4634(13) 0.0572(4)
H11 H 0.0824 0.5843 0.0566
C21 C 0.0582(3) 0.3716(11) -0.0158(5)
H12 H 0.0495 0.4319 -0.0658
C22 C 0.0615(3) 0.1174(11) 0.0525(5)
H13 H 0.0559 -0.0033 0.0506
C23 C 0.0800(3) 0.2015(11) 0.1277(4)
H14 H 0.0859 0.1404 0.1765
C24 C 0.3896(3) 0.4308(11) 0.6707(5)
H15 H 0.3983 0.3691 0.7203
Cu1B Cu 0.49268(3) 0.46691(14) 0.73043(5)
Cu2_2 Cu 0.02808(4) 0.07612(15) -0.12439(5)
N2B N -0.0767(2) 1.0007(8) 0.6552(3)
N3_2 N 0.0515(2) 1.2025(9) 0.9823(4)
C25 C 0.2302(6) 0.380(3) 0.0250(12)
H16 H 0.2388 0.2617 0.0453
H17 H 0.2543 0.4601 0.0608
H18 H 0.2276 0.3880 -0.0306
C26 C 0.1806(7) 0.428(3) 0.0240(13)
H19 H 0.1567 0.3433 -0.0100
H20 H 0.1835 0.4205 0.0804
C27 C 0.1644(6) 0.607(3) -0.0088(11)
C28 C 0.1433(5) 0.643(3) -0.0872(10)
H21 H 0.1351 0.5512 -0.1255
C29 C 0.1328(5) 0.810(2) -0.1156(10)
H22 H 0.1195 0.8357 -0.1724
C30 C 0.1424(5) 0.937(3) -0.0584(10)
H23 H 0.1331 1.0512 -0.0769
C31 C 0.1659(5) 0.906(2) 0.0294(10)
H24 H 0.1734 1.0006 0.0663
C32 C 0.1774(5) 0.738(2) 0.0594(10)
H25 H 0.1918 0.7088 0.1158
C33 C 0.3270(6) 0.723(3) 0.2188(10)
H26 H 0.3391 0.6048 0.2300
H27 H 0.3517 0.8010 0.2206
H28 H 0.3004 0.7281 0.1644
C34 C 0.3121(5) 0.774(3) 0.2786(8)
H29 H 0.3398 0.7680 0.3323
H30 H 0.2897 0.6858 0.2790
C35 C 0.2894(4) 0.9493(19) 0.2739(7)
C36 C 0.2442(4) 0.962(2) 0.2701(7)
H31 H 0.2271 0.8610 0.2696
C37 C 0.2257(4) 1.1188(19) 0.2670(7)
H32 H 0.1949 1.1254 0.2627
C38 C 0.2503(4) 1.281(2) 0.2701(6)
H33 H 0.2366 1.3907 0.2691
C39 C 0.2955(4) 1.265(2) 0.2744(7)
H34 H 0.3131 1.3643 0.2754
C40 C 0.3147(4) 1.0954(19) 0.2774(7)
H35 H 0.3455 1.0844 0.2819
loop_
_geom_bond_atom_site_label_1
_geom_bond_atom_site_label_2
_geom_bond_site_symmetry_1
_geom_bond_site_symmetry_2
Cu1 I1 1_555 1_555
Cu2 I1 1_555 1_555
I2 Cu1 1_555 1_555
N1 Cu1 1_555 1_555
N2 C17 1_555 1_555
N3 C21 1_555 1_555
O1 C1 1_555 1_555
O2 C3 1_555 1_555
O3 C5 1_555 1_555
O4 C7 1_555 1_555
O5 C8 1_555 1_555
O6 C9 1_555 1_555
C1 C2 1_555 1_555
C2 H1 1_555 1_555
C3 C2 1_555 1_555
C4 C3 1_555 1_555
H2 C4 1_555 1_555
C5 C4 1_555 1_555
C6 C1 1_555 1_555
H3 C6 1_555 1_555
C7 O1 1_555 1_555
C8 O2 1_555 1_555
C9 O3 1_555 1_555
C10 C7 1_555 1_555
C11 C10 1_555 1_555
H4 C11 1_555 1_555
C12 N1 1_555 1_555
H5 C12 1_555 1_555
C13 N1 1_555 1_555
H6 C13 1_555 1_555
C14 C10 1_555 1_555
H7 C14 1_555 1_555
C15 C8 1_555 1_555
C16 C15 1_555 1_555
H8 C16 1_555 1_555
C17 H9 1_555 1_555
C18 C15 1_555 1_555
H10 C18 1_555 1_555
C19 C9 1_555 1_555
C20 C19 1_555 1_555
H11 C20 1_555 1_555
C21 C20 1_555 1_555
H12 C21 1_555 1_555
C22 N3 1_555 1_555
H13 C22 1_555 1_555
C23 C19 1_555 1_555
H14 C23 1_555 1_555
C24 N2 1_555 1_555
H15 C24 1_555 1_555
C25 H16 1_555 1_555
H17 C25 1_555 1_555
H18 C25 1_555 1_555
C26 C25 1_555 1_555
H19 C26 1_555 1_555
H20 C26 1_555 1_555
C27 C26 1_555 1_555
C28 C27 1_555 1_555
H21 C28 1_555 1_555
C29 C28 1_555 1_555
H22 C29 1_555 1_555
C30 C29 1_555 1_555
H23 C30 1_555 1_555
C31 C30 1_555 1_555
H24 C31 1_555 1_555
C32 C27 1_555 1_555
H25 C32 1_555 1_555
C33 H26 1_555 1_555
H27 C33 1_555 1_555
H28 C33 1_555 1_555
C34 C33 1_555 1_555
H29 C34 1_555 1_555
H30 C34 1_555 1_555
C35 C34 1_555 1_555
C36 C35 1_555 1_555
H31 C36 1_555 1_555
C37 C36 1_555 1_555
H32 C37 1_555 1_555
C38 C37 1_555 1_555
H33 C38 1_555 1_555
C39 C38 1_555 1_555
H34 C39 1_555 1_555
C40 C35 1_555 1_555
H35 C40 1_555 1_555
Cu1B N2 1_555 1_555
Cu2_2 N3 1_555 1_555
N2B Cu1 1_555 1_555
N3_2 Cu2 1_555 1_555
Cu2 I2 1_555 1_555
C5 C6 1_555 1_555
C11 C12 1_555 1_555
C13 C14 1_555 1_555
C16 C24 1_555 1_555
C17 C18 1_555 1_555
C22 C23 1_555 1_555
C31 C32 1_555 1_555
C39 C40 1_555 1_555

#END
