
#######################################################################
#
#                 Cambridge Crystallographic Data Centre
#                                CCDC 
#
#######################################################################
#
# If this CIF has been generated from an entry in the Cambridge 
# Structural Database, then it will include bibliographic, chemical, 
# crystal, experimental, refinement or atomic coordinate data resulting 
# from the CCDC's data processing and validation procedures.
#
#######################################################################

data_AKAXOA
_symmetry_cell_setting           monoclinic
_symmetry_space_group_name_H-M   'P 2'
_symmetry_Int_Tables_number      3
_space_group_name_Hall           'P 2y'
loop_
_symmetry_equiv_pos_site_id
_symmetry_equiv_pos_as_xyz
1 x,y,z
2 -x,y,-z
_cell_length_a                   17.8991(10)
_cell_length_b                   7.8787(5)
_cell_length_c                   29.4265(18)
_cell_angle_alpha                90
_cell_angle_beta                 94.742(2)
_cell_angle_gamma                90
_cell_volume                     4135.57
loop_
_atom_site_label
_atom_site_type_symbol
_atom_site_fract_x
_atom_site_fract_y
_atom_site_fract_z
Cu1 Cu -0.23335(6) 0.81244(13) 0.48579(4)
Cu2 Cu -0.34910(7) 0.69549(14) 0.52167(4)
Cu3 Cu -0.73045(7) 0.23521(18) -0.01238(4)
Cu4 Cu 0.15455(8) 1.1187(2) 0.02343(4)
I1 I -0.35673(3) 0.99853(7) 0.49517(2)
I2 I -0.23494(4) 0.50123(8) 0.51908(2)
I3 I -0.85343(4) 0.42434(10) -0.00038(2)
I4 I -0.73164(5) -0.07466(10) 0.02067(3)
C1 C -0.2757(6) 0.6904(15) 0.2024(3)
C2 C -0.2176(5) 0.7514(12) 0.1803(3)
H1 H -0.1735 0.7945 0.1965
C3 C -0.2252(6) 0.7480(14) 0.1334(3)
C4 C -0.2878(6) 0.6783(16) 0.1084(4)
H2 H -0.2915 0.6742 0.0761
C5 C -0.3448(6) 0.6147(13) 0.1338(3)
C6 C -0.3418(5) 0.6183(14) 0.1798(3)
H3 H -0.3813 0.5753 0.1961
C7 C -0.2132(6) 0.6591(14) 0.2766(3)
C8 C -0.1051(6) 0.7266(16) 0.1079(3)
C9 C -0.4556(6) 0.6279(14) 0.0850(4)
C10 C -0.2204(5) 0.7002(13) 0.3257(3)
C11 C -0.2779(5) 0.8024(11) 0.3392(3)
H4 H -0.3152 0.8474 0.3177
C12 C -0.2787(5) 0.8348(10) 0.3841(3)
H5 H -0.3175 0.9054 0.3936
C13 C -0.1718(5) 0.6776(10) 0.4041(3)
H6 H -0.1343 0.6350 0.4259
C14 C -0.1682(5) 0.6394(11) 0.3582(3)
H7 H -0.1287 0.5696 0.3492
C15 C -0.0461(6) 0.8261(17) 0.0848(3)
C16 C 0.0180(7) 0.7404(14) 0.0746(4)
H8 H 0.0228 0.6216 0.0794
C17 C 0.0747(7) 0.8325(16) 0.0571(4)
H9 H 0.1196 0.7751 0.0513
C18 C 0.0067(6) 1.0800(14) 0.0575(3)
H10 H 0.0034 1.1982 0.0513
C19 C -0.0509(6) 1.0017(15) 0.0751(3)
H11 H -0.0946 1.0638 0.0811
C20 C -0.5169(6) 0.5253(15) 0.0625(3)
C21 C -0.5765(7) 0.6139(16) 0.0392(4)
H12 H -0.5762 0.7343 0.0373
C22 C -0.6367(7) 0.5181(17) 0.0186(4)
H13 H -0.6778 0.5777 0.0036
C23 C -0.5803(6) 0.2703(14) 0.0414(4)
H14 H -0.5802 0.1497 0.0417
C24 C -0.5201(7) 0.3544(15) 0.0639(4)
H15 H -0.4812 0.2918 0.0802
C25 C 0.1593(5) 1.1653(11) 0.6326(3)
C26 C 0.1639(5) 1.1546(11) 0.6787(3)
H16 H 0.1246 1.1045 0.6939
C27 C 0.2278(5) 1.2188(13) 0.7033(3)
C28 C 0.2840(5) 1.2868(12) 0.6820(3)
H17 H 0.3270 1.3319 0.6990
C29 C 0.2783(4) 1.2901(10) 0.6346(3)
C30 C 0.2139(5) 1.2334(10) 0.6078(3)
H18 H 0.2087 1.2417 0.5754
C31 C 0.0457(5) 1.1958(12) 0.5832(3)
C32 C 0.2884(6) 1.1454(14) 0.7755(3)
C33 C 0.4016(5) 1.2945(12) 0.6101(3)
C34 C -0.0191(5) 1.0961(11) 0.5622(3)
C35 C -0.0794(6) 1.1879(12) 0.5391(3)
H19 H -0.0790 1.3084 0.5378
C36 C -0.1367(5) 1.0987(10) 0.5194(3)
H20 H -0.1774 1.1608 0.5049
C37 C -0.0843(5) 0.8459(11) 0.5385(3)
H21 H -0.0855 0.7255 0.5368
C38 C -0.0216(5) 0.9194(12) 0.5621(3)
H22 H 0.0171 0.8528 0.5773
C39 C 0.2819(6) 1.1653(15) 0.8254(3)
C40 C 0.2239(6) 1.2680(13) 0.8427(3)
H23 H 0.1879 1.3244 0.8225
C41 C 0.2220(6) 1.2820(12) 0.8886(3)
H24 H 0.1822 1.3447 0.9000
C42 C 0.3290(6) 1.1141(14) 0.9025(3)
H25 H 0.3648 1.0596 0.9232
C43 C 0.3341(6) 1.0926(14) 0.8558(3)
H26 H 0.3738 1.0275 0.8451
C44 C 0.4538(5) 1.3887(12) 0.5865(3)
C45 C 0.5175(6) 1.3086(16) 0.5752(3)
H27 H 0.5241 1.1910 0.5815
C46 C 0.5721(6) 1.3969(13) 0.5546(4)
H28 H 0.6145 1.3381 0.5452
C47 C 0.5041(5) 1.6503(11) 0.5600(3)
H29 H 0.4992 1.7697 0.5563
C48 C 0.4488(6) 1.5588(12) 0.5778(3)
H30 H 0.4043 1.6164 0.5844
N1 N -0.2261(4) 0.7716(8) 0.4177(3)
N2 N 0.0695(5) 0.9948(13) 0.0481(3)
N3 N -0.6394(5) 0.3506(11) 0.0189(3)
N4 N -0.1418(4) 0.9279(10) 0.5185(2)
N5 N 0.2746(5) 1.2103(11) 0.9195(3)
N6 N 0.5659(4) 1.5698(10) 0.5476(3)
O1 O -0.2768(4) 0.6993(10) 0.2502(2)
O2 O -0.1677(4) 0.8192(10) 0.1094(2)
O3 O -0.4061(4) 0.5343(10) 0.1098(2)
O4 O -0.1580(5) 0.5970(11) 0.2626(2)
O5 O -0.0964(4) 0.5880(11) 0.1239(2)
O6 O -0.4492(5) 0.7798(13) 0.0822(4)
O7 O 0.0948(3) 1.0937(8) 0.6079(2)
O8 O 0.2270(4) 1.2170(10) 0.7503(2)
O9 O 0.3332(4) 1.3741(8) 0.6116(2)
O10 O 0.0543(4) 1.3464(8) 0.5808(3)
O11 O 0.3379(5) 1.0744(13) 0.7595(2)
O12 O 0.4108(4) 1.1518(8) 0.6271(2)
Cu2_2 Cu 0.65090(7) 1.69549(14) 0.52167(4)
Cu3_2 Cu 0.26955(7) 1.23521(18) 0.98762(4)
Cu4_2 Cu -0.84545(8) 0.1187(2) 0.02343(4)
I3_2 I 0.14657(4) 1.42434(10) -0.00038(2)
I4_2 I 0.26836(5) 0.92534(10) 0.02067(3)
N5_2 N -0.7254(5) 0.2103(11) -0.0805(3)
N6_2 N -0.4341(4) 0.5698(10) 0.5476(3)
C49 C -0.4658(10) 1.638(3) 0.2917(4)
H31 H -0.4186 1.6500 0.2795
C50 C -0.5017(12) 1.778(2) 0.3082(6)
H32 H -0.4790 1.8873 0.3073
C51 C -0.5708(12) 1.760(3) 0.3261(6)
H33 H -0.5953 1.8565 0.3373
C52 C -0.6040(10) 1.601(4) 0.3274(5)
H34 H -0.6512 1.5885 0.3396
C53 C -0.5682(12) 1.460(3) 0.3109(7)
H35 H -0.5909 1.3513 0.3118
C54 C -0.4991(12) 1.478(3) 0.2930(6)
H36 H -0.4746 1.3820 0.2818
C55 C 0.0579(8) 0.8772(16) 0.1959(4)
H37 H 0.0823 0.7706 0.2002
C56 C -0.0136(8) 0.9004(18) 0.2100(4)
H38 H -0.0382 0.8096 0.2239
C57 C -0.0492(8) 1.056(2) 0.2037(5)
H39 H -0.0981 1.0723 0.2133
C58 C -0.0133(10) 1.1893(18) 0.1834(5)
H40 H -0.0376 1.2960 0.1791
C59 C 0.0583(10) 1.1662(17) 0.1693(5)
H41 H 0.0829 1.2570 0.1554
C60 C 0.0939(8) 1.0101(19) 0.1756(4)
H42 H 0.1428 0.9943 0.1660
loop_
_geom_bond_atom_site_label_1
_geom_bond_atom_site_label_2
_geom_bond_site_symmetry_1
_geom_bond_site_symmetry_2
Cu1 I1 1_555 1_555
Cu2 I1 1_555 1_555
Cu3 I3 1_555 1_555
Cu4 N2 1_555 1_555
I2 Cu1 1_555 1_555
I3 Cu4_2 1_555 1_555
I4 Cu3 1_555 1_555
C1 C2 1_555 1_555
C2 H1 1_555 1_555
C3 C2 1_555 1_555
C4 C3 1_555 1_555
H2 C4 1_555 1_555
C5 C4 1_555 1_555
C6 C1 1_555 1_555
H3 C6 1_555 1_555
C7 C10 1_555 1_555
C8 C15 1_555 1_555
C9 C20 1_555 1_555
C10 C11 1_555 1_555
C11 H4 1_555 1_555
C12 C11 1_555 1_555
H5 C12 1_555 1_555
C13 H6 1_555 1_555
C14 C10 1_555 1_555
H7 C14 1_555 1_555
C15 C16 1_555 1_555
C16 H8 1_555 1_555
C17 C16 1_555 1_555
H9 C17 1_555 1_555
C18 H10 1_555 1_555
C19 C15 1_555 1_555
H11 C19 1_555 1_555
C20 C21 1_555 1_555
C21 H12 1_555 1_555
C22 C21 1_555 1_555
H13 C22 1_555 1_555
C23 H14 1_555 1_555
C24 C20 1_555 1_555
H15 C24 1_555 1_555
C25 C26 1_555 1_555
C26 H16 1_555 1_555
C27 C26 1_555 1_555
C28 C27 1_555 1_555
H17 C28 1_555 1_555
C29 C28 1_555 1_555
C30 C25 1_555 1_555
H18 C30 1_555 1_555
C31 C34 1_555 1_555
C32 C39 1_555 1_555
C33 C44 1_555 1_555
C34 C35 1_555 1_555
C35 H19 1_555 1_555
C36 C35 1_555 1_555
H20 C36 1_555 1_555
C37 H21 1_555 1_555
C38 C34 1_555 1_555
H22 C38 1_555 1_555
C39 C40 1_555 1_555
C40 H23 1_555 1_555
C41 C40 1_555 1_555
H24 C41 1_555 1_555
C42 H25 1_555 1_555
C43 C39 1_555 1_555
H26 C43 1_555 1_555
C44 C45 1_555 1_555
C45 H27 1_555 1_555
C46 C45 1_555 1_555
H28 C46 1_555 1_555
C47 H29 1_555 1_555
C48 C44 1_555 1_555
H30 C48 1_555 1_555
N1 Cu1 1_555 1_555
N2 C17 1_555 1_555
N3 Cu3 1_555 1_555
N4 Cu1 1_555 1_555
N5 C41 1_555 1_555
N6 C46 1_555 1_555
O1 C1 1_555 1_555
O2 C3 1_555 1_555
O3 C5 1_555 1_555
O4 C7 1_555 1_555
O5 C8 1_555 1_555
O6 C9 1_555 1_555
O7 C25 1_555 1_555
O8 C27 1_555 1_555
O9 C29 1_555 1_555
O10 C31 1_555 1_555
O11 C32 1_555 1_555
O12 C33 1_555 1_555
C49 H31 1_555 1_555
C50 C49 1_555 1_555
H32 C50 1_555 1_555
C51 C50 1_555 1_555
H33 C51 1_555 1_555
C52 C51 1_555 1_555
H34 C52 1_555 1_555
C53 C52 1_555 1_555
H35 C53 1_555 1_555
C54 C49 1_555 1_555
H36 C54 1_555 1_555
C55 H37 1_555 1_555
C56 C55 1_555 1_555
H38 C56 1_555 1_555
C57 C56 1_555 1_555
H39 C57 1_555 1_555
C58 C57 1_555 1_555
H40 C58 1_555 1_555
C59 C58 1_555 1_555
H41 C59 1_555 1_555
C60 C55 1_555 1_555
H42 C60 1_555 1_555
Cu2_2 N6 1_555 1_555
Cu3_2 N5 1_555 1_555
Cu4_2 I4 1_555 1_555
I3_2 Cu4 1_555 1_555
I4_2 Cu4 1_555 1_555
N5_2 Cu3 1_555 1_555
N6_2 Cu2 1_555 1_555
Cu2 I2 1_555 1_555
C5 C6 1_555 1_555
C7 O1 1_555 1_555
C8 O2 1_555 1_555
C9 O3 1_555 1_555
C12 N1 1_555 1_555
C13 C14 1_555 1_555
C13 N1 1_555 1_555
C18 C19 1_555 1_555
C18 N2 1_555 1_555
C22 N3 1_555 1_555
C23 C24 1_555 1_555
C23 N3 1_555 1_555
C29 C30 1_555 1_555
C31 O7 1_555 1_555
C32 O8 1_555 1_555
C33 O9 1_555 1_555
C36 N4 1_555 1_555
C37 C38 1_555 1_555
C37 N4 1_555 1_555
C42 C43 1_555 1_555
C42 N5 1_555 1_555
C47 C48 1_555 1_555
C47 N6 1_555 1_555
C53 C54 1_555 1_555
C59 C60 1_555 1_555

#END
