
#######################################################################
#
#                 Cambridge Crystallographic Data Centre
#                                CCDC 
#
#######################################################################
#
# If this CIF has been generated from an entry in the Cambridge 
# Structural Database, then it will include bibliographic, chemical, 
# crystal, experimental, refinement or atomic coordinate data resulting 
# from the CCDC's data processing and validation procedures.
#
#######################################################################

data_AKAYER
_symmetry_cell_setting           monoclinic
_symmetry_space_group_name_H-M   'C 2'
_symmetry_Int_Tables_number      5
_space_group_name_Hall           'C 2y'
loop_
_symmetry_equiv_pos_site_id
_symmetry_equiv_pos_as_xyz
1 x,y,z
2 -x,y,-z
3 1/2+x,1/2+y,z
4 1/2-x,1/2+y,-z
_cell_length_a                   32.093(6)
_cell_length_b                   8.0032(9)
_cell_length_c                   17.658(3)
_cell_angle_alpha                90
_cell_angle_beta                 113.49(2)
_cell_angle_gamma                90
_cell_volume                     4159.55
loop_
_atom_site_label
_atom_site_type_symbol
_atom_site_fract_x
_atom_site_fract_y
_atom_site_fract_z
Cu1 Cu 0.51279(6) 0.5397(2) 0.27669(10)
Cu2 Cu 0.47718(7) 0.4237(3) 0.13092(11)
I1 I 0.50391(3) 0.72200(11) 0.14483(4)
I2 I 0.48196(3) 0.23170(13) 0.24867(5)
C1 C 0.7970(4) 0.5161(17) 0.5282(9)
C2 C 0.8204(4) 0.4411(16) 0.4907(6)
H1 H 0.8063 0.3960 0.4380
C3 C 0.8693(3) 0.4333(15) 0.5365(6)
C4 C 0.8884(4) 0.4964(15) 0.6170(7)
H2 H 0.9196 0.4891 0.6474
C5 C 0.8606(4) 0.5707(15) 0.6518(6)
C6 C 0.8134(4) 0.5820(17) 0.6146(6)
H3 H 0.7950 0.6239 0.6395
C7 C 0.7193(4) 0.4544(18) 0.5171(11)
C8 C 0.9168(4) 0.4436(18) 0.4701(7)
C9 C 0.8882(4) 0.5528(19) 0.7934(7)
C10 C 0.6726(3) 0.4841(14) 0.4560(7)
C11 C 0.6388(4) 0.4069(16) 0.4769(7)
H4 H 0.6460 0.3475 0.5258
C12 C 0.5928(3) 0.4259(15) 0.4182(7)
H5 H 0.5701 0.3702 0.4283
C13 C 0.6145(4) 0.5924(16) 0.3337(7)
H6 H 0.6060 0.6583 0.2865
C14 C 0.6601(4) 0.5750(14) 0.3827(7)
H7 H 0.6820 0.6226 0.3673
C15 C 0.9396(4) 0.3372(16) 0.4249(6)
C16 C 0.9362(4) 0.1723(16) 0.4234(8)
H8 H 0.9200 0.1172 0.4493
C17 C 0.9574(5) 0.0866(15) 0.3823(8)
H9 H 0.9554 -0.0293 0.3808
C18 C 0.9825(4) 0.3229(16) 0.3437(8)
H10 H 0.9966 0.3796 0.3144
C19 C 0.9618(4) 0.4190(19) 0.3897(8)
H11 H 0.9645 0.5347 0.3937
C20 C 0.9112(4) 0.6381(16) 0.8746(7)
C21 C 0.9179(5) 0.8105(18) 0.8721(8)
H12 H 0.9103 0.8707 0.8233
C22 C 0.9374(5) 0.8832(18) 0.9514(7)
H13 H 0.9432 0.9971 0.9520
C23 C 0.9436(4) 0.649(2) 1.0170(8)
H14 H 0.9560 0.5879 1.0658
C24 C 0.9227(5) 0.559(2) 0.9472(8)
H15 H 0.9165 0.4464 0.9494
N1 N 0.5809(3) 0.5167(13) 0.3515(6)
N2 N 0.9818(3) 0.1637(14) 0.3422(6)
N3 N 0.9484(4) 0.8149(14) 1.0239(6)
O1 O 0.7475(3) 0.5196(14) 0.4831(5)
O2 O 0.8936(3) 0.3494(11) 0.5014(5)
O3 O 0.8831(3) 0.6449(11) 0.7291(4)
O4 O 0.7319(3) 0.3866(16) 0.5819(6)
O5 O 0.9189(3) 0.5926(12) 0.4731(7)
O6 O 0.8748(3) 0.4044(14) 0.7851(6)
Cu1B Cu 1.01279(6) 0.0397(2) 0.27669(10)
Cu2B Cu 0.97718(7) 0.9237(3) 1.13092(11)
N2B N 0.4818(3) 0.6637(14) 0.3422(6)
N3B N 0.4484(4) 0.3149(14) 0.0239(6)
loop_
_geom_bond_atom_site_label_1
_geom_bond_atom_site_label_2
_geom_bond_site_symmetry_1
_geom_bond_site_symmetry_2
Cu1 I1 1_555 1_555
Cu2 I1 1_555 1_555
I2 Cu1 1_555 1_555
C1 C2 1_555 1_555
C2 H1 1_555 1_555
C3 C2 1_555 1_555
C4 C3 1_555 1_555
H2 C4 1_555 1_555
C5 C4 1_555 1_555
C6 C1 1_555 1_555
H3 C6 1_555 1_555
C7 C10 1_555 1_555
C8 C15 1_555 1_555
C9 C20 1_555 1_555
C10 C11 1_555 1_555
C11 H4 1_555 1_555
C12 C11 1_555 1_555
H5 C12 1_555 1_555
C13 H6 1_555 1_555
C14 C10 1_555 1_555
H7 C14 1_555 1_555
C15 C16 1_555 1_555
C16 H8 1_555 1_555
C17 C16 1_555 1_555
H9 C17 1_555 1_555
C18 H10 1_555 1_555
C19 C15 1_555 1_555
H11 C19 1_555 1_555
C20 C21 1_555 1_555
C21 H12 1_555 1_555
C22 C21 1_555 1_555
H13 C22 1_555 1_555
C23 H14 1_555 1_555
C24 C20 1_555 1_555
H15 C24 1_555 1_555
N1 Cu1 1_555 1_555
N2 C17 1_555 1_555
N3 C22 1_555 1_555
O1 C1 1_555 1_555
O2 C3 1_555 1_555
O3 C5 1_555 1_555
O4 C7 1_555 1_555
O5 C8 1_555 1_555
O6 C9 1_555 1_555
Cu1B N2 1_555 1_555
Cu2B N3 1_555 1_555
N2B Cu1 1_555 1_555
N3B Cu2 1_555 1_555
Cu2 I2 1_555 1_555
C5 C6 1_555 1_555
C7 O1 1_555 1_555
C8 O2 1_555 1_555
C9 O3 1_555 1_555
C12 N1 1_555 1_555
C13 C14 1_555 1_555
C13 N1 1_555 1_555
C18 C19 1_555 1_555
C18 N2 1_555 1_555
C23 C24 1_555 1_555
C23 N3 1_555 1_555

#END
