
#######################################################################
#
#                 Cambridge Crystallographic Data Centre
#                                CCDC 
#
#######################################################################
#
# If this CIF has been generated from an entry in the Cambridge 
# Structural Database, then it will include bibliographic, chemical, 
# crystal, experimental, refinement or atomic coordinate data resulting 
# from the CCDC's data processing and validation procedures.
#
#######################################################################

data_AKAYAN
_symmetry_cell_setting           monoclinic
_symmetry_space_group_name_H-M   'C 2'
_symmetry_Int_Tables_number      5
_space_group_name_Hall           'C 2y'
loop_
_symmetry_equiv_pos_site_id
_symmetry_equiv_pos_as_xyz
1 x,y,z
2 -x,y,-z
3 1/2+x,1/2+y,z
4 1/2-x,1/2+y,-z
_cell_length_a                   30.375(6)
_cell_length_b                   7.5302(15)
_cell_length_c                   18.652(4)
_cell_angle_alpha                90
_cell_angle_beta                 115.721(3)
_cell_angle_gamma                90
_cell_volume                     3843.56
loop_
_atom_site_label
_atom_site_type_symbol
_atom_site_fract_x
_atom_site_fract_y
_atom_site_fract_z
Cu1 Cu 0.04033(5) 0.12451(16) 1.38671(6)
Cu2 Cu 0.00286(4) 0.23088(15) 1.24551(6)
I1 I 0.00383(2) 0.43120(8) 1.36304(3)
I2 I 0.05408(3) -0.06127(10) 1.28393(3)
N1 N 0.0292(3) -0.6423(11) 2.1753(5)
N2 N 0.0621(3) -0.0049(10) 1.4899(4)
N3 N 0.4306(3) -0.3047(9) 2.1676(4)
O1 O 0.0965(2) -0.4564(8) 1.9886(3)
O2 O 0.1098(2) -0.1826(8) 1.7670(4)
O3 O 0.2521(2) -0.2767(9) 2.0151(3)
O4 O 0.0768(2) -0.1909(9) 2.0231(4)
O5 O 0.1380(2) -0.4155(8) 1.7234(4)
O6 O 0.2737(2) -0.4060(9) 1.9261(4)
C1 C 0.1249(3) -0.3745(12) 1.9549(5)
C2 C 0.1017(4) -0.3195(11) 1.8763(5)
H1 H 0.0674 -0.3299 1.8455
C3 C 0.1329(4) -0.2465(11) 1.8454(5)
C4 C 0.1821(4) -0.2337(12) 1.8876(5)
H2 H 0.2021 -0.1865 1.8647
C5 C 0.2019(3) -0.2929(12) 1.9660(5)
C6 C 0.1734(3) -0.3590(11) 2.0004(5)
H3 H 0.1875 -0.3929 2.0549
C7 C 0.0767(4) -0.3470(13) 2.0262(5)
C8 C 0.1167(3) -0.2765(14) 1.7107(5)
C9 C 0.2851(3) -0.3419(12) 1.9904(5)
C10 C 0.0585(3) -0.4574(14) 2.0749(5)
C11 C 0.0630(4) -0.6412(13) 2.0809(6)
H4 H 0.0767 -0.7059 2.0517
C12 C 0.0471(4) -0.7251(12) 2.1297(6)
H5 H 0.0488 -0.8511 2.1319
C13 C 0.0269(3) -0.4672(14) 2.1704(6)
H6 H 0.0147 -0.4052 2.2024
C14 C 0.0412(3) -0.3686(14) 2.1213(5)
H7 H 0.0390 -0.2427 2.1200
C15 C 0.0960(3) -0.1800(12) 1.6334(5)
C16 C 0.0791(4) -0.0084(11) 1.6265(5)
H8 H 0.0789 0.0509 1.6713
C17 C 0.0626(4) 0.0762(14) 1.5546(5)
H9 H 0.0512 0.1950 1.5502
C18 C 0.0778(4) -0.1713(13) 1.4968(6)
H10 H 0.0770 -0.2290 1.4509
C19 C 0.0951(4) -0.2644(13) 1.5673(5)
H11 H 0.1061 -0.3834 1.5703
C20 C 0.3349(3) -0.3206(11) 2.0525(5)
C21 C 0.3732(3) -0.3961(12) 2.0402(5)
H12 H 0.3668 -0.4539 1.9913
C22 C 0.4189(3) -0.3866(12) 2.0976(5)
H13 H 0.4444 -0.4402 2.0885
C23 C 0.3934(4) -0.2338(11) 2.1789(5)
H14 H 0.4009 -0.1771 2.2283
C24 C 0.3462(3) -0.2382(11) 2.1243(5)
H15 H 0.3213 -0.1858 2.1353
Cu2_2 Cu 0.00286(4) -0.76912(15) 2.24551(6)
Cu2B Cu 0.50286(4) -0.26912(15) 2.24551(6)
N1_2 N 0.0292(3) 0.3577(11) 1.1753(5)
N3B N -0.0694(3) 0.1953(9) 1.1676(4)
C25 C 0.7047(4) 1.2823(13) 0.2186(6)
C26 C 0.7503(5) 1.2624(15) 0.2197(6)
H16 H 0.7672 1.3641 0.2145
C27 C 0.7716(4) 1.0969(15) 0.2284(6)
H17 H 0.8029 1.0859 0.2289
C28 C 0.7483(5) 0.9506(17) 0.2362(7)
H18 H 0.7629 0.8368 0.2413
C29 C 0.7028(5) 0.9674(16) 0.2367(8)
H19 H 0.6867 0.8657 0.2440
C30 C 0.6814(4) 1.1305(16) 0.2265(7)
H20 H 0.6498 1.1404 0.2248
C31 C 0.6809(4) 1.4538(18) 0.2099(7)
H21 H 0.6492 1.4378 0.2109
H22 H 0.6761 1.5074 0.1591
H23 H 0.7015 1.5319 0.2537
C32 C 0.1946(9) 0.612(3) 0.5076(13)
C33 C 0.1657(7) 0.569(3) 0.4306(12)
H24 H 0.1557 0.6587 0.3910
C34 C 0.1508(7) 0.398(3) 0.4093(12)
H25 H 0.1329 0.3687 0.3546
C35 C 0.1612(9) 0.272(3) 0.4653(14)
H26 H 0.1512 0.1526 0.4500
C36 C 0.1861(9) 0.314(3) 0.5442(14)
H27 H 0.1890 0.2301 0.5839
C37 C 0.2070(9) 0.479(3) 0.5656(12)
H28 H 0.2295 0.5022 0.6191
C38 C 0.2104(9) 0.791(3) 0.5302(15)
H29 H 0.1982 0.8667 0.4827
H30 H 0.2462 0.7952 0.5562
H31 H 0.1977 0.8341 0.5671
loop_
_geom_bond_atom_site_label_1
_geom_bond_atom_site_label_2
_geom_bond_site_symmetry_1
_geom_bond_site_symmetry_2
Cu1 I1 1_555 1_555
Cu2 I1 1_555 1_555
I2 Cu1 1_555 1_555
N1 C12 1_555 1_555
N2 Cu1 1_555 1_555
N3 C22 1_555 1_555
O1 C1 1_555 1_555
O2 C3 1_555 1_555
O3 C5 1_555 1_555
O4 C7 1_555 1_555
O5 C8 1_555 1_555
O6 C9 1_555 1_555
C1 C2 1_555 1_555
C2 H1 1_555 1_555
C3 C2 1_555 1_555
C4 C3 1_555 1_555
H2 C4 1_555 1_555
C5 C4 1_555 1_555
C6 C1 1_555 1_555
H3 C6 1_555 1_555
C7 O1 1_555 1_555
C8 O2 1_555 1_555
C9 O3 1_555 1_555
C10 C7 1_555 1_555
C11 C10 1_555 1_555
H4 C11 1_555 1_555
C12 C11 1_555 1_555
H5 C12 1_555 1_555
C13 N1 1_555 1_555
H6 C13 1_555 1_555
C14 C10 1_555 1_555
H7 C14 1_555 1_555
C15 C8 1_555 1_555
C16 C15 1_555 1_555
H8 C16 1_555 1_555
C17 N2 1_555 1_555
H9 C17 1_555 1_555
C18 N2 1_555 1_555
H10 C18 1_555 1_555
C19 C15 1_555 1_555
H11 C19 1_555 1_555
C20 C9 1_555 1_555
C21 C20 1_555 1_555
H12 C21 1_555 1_555
C22 C21 1_555 1_555
H13 C22 1_555 1_555
C23 N3 1_555 1_555
H14 C23 1_555 1_555
C24 C20 1_555 1_555
H15 C24 1_555 1_555
C25 C26 1_555 1_555
C26 H16 1_555 1_555
C27 C26 1_555 1_555
H17 C27 1_555 1_555
C28 C27 1_555 1_555
H18 C28 1_555 1_555
C29 C28 1_555 1_555
H19 C29 1_555 1_555
C30 C25 1_555 1_555
H20 C30 1_555 1_555
C31 C25 1_555 1_555
H21 C31 1_555 1_555
H22 C31 1_555 1_555
H23 C31 1_555 1_555
C32 C33 1_555 1_555
C33 H24 1_555 1_555
C34 C33 1_555 1_555
H25 C34 1_555 1_555
C35 C34 1_555 1_555
H26 C35 1_555 1_555
C36 C35 1_555 1_555
H27 C36 1_555 1_555
C37 C32 1_555 1_555
H28 C37 1_555 1_555
C38 C32 1_555 1_555
H29 C38 1_555 1_555
H30 C38 1_555 1_555
H31 C38 1_555 1_555
Cu2_2 N1 1_555 1_555
Cu2B N3 1_555 1_555
N1_2 Cu2 1_555 1_555
N3B Cu2 1_555 1_555
Cu2 I2 1_555 1_555
C5 C6 1_555 1_555
C13 C14 1_555 1_555
C16 C17 1_555 1_555
C18 C19 1_555 1_555
C23 C24 1_555 1_555
C29 C30 1_555 1_555
C36 C37 1_555 1_555

#END
