
#######################################################################
#
#                 Cambridge Crystallographic Data Centre
#                                CCDC 
#
#######################################################################
#
# If this CIF has been generated from an entry in the Cambridge 
# Structural Database, then it will include bibliographic, chemical, 
# crystal, experimental, refinement or atomic coordinate data resulting 
# from the CCDC's data processing and validation procedures.
#
#######################################################################

data_AKEBOH
_symmetry_cell_setting           triclinic
_symmetry_space_group_name_H-M   'P -1'
_symmetry_Int_Tables_number      2
_space_group_name_Hall           '-P 1'
loop_
_symmetry_equiv_pos_site_id
_symmetry_equiv_pos_as_xyz
1 x,y,z
2 -x,-y,-z
_cell_length_a                   7.2979(7)
_cell_length_b                   13.937(3)
_cell_length_c                   14.381(3)
_cell_angle_alpha                116.30(1)
_cell_angle_beta                 90.02(1)
_cell_angle_gamma                96.97(1)
_cell_volume                     1299.19
loop_
_atom_site_label
_atom_site_type_symbol
_atom_site_fract_x
_atom_site_fract_y
_atom_site_fract_z
W1 W 0.03384(3) 0.12869(2) 0.30700(1)
Co1 Co -0.5000 0.0000 0.5000
Co2 Co -0.5000 0.0000 0.0000
N1 N -0.3152(7) 0.0524(4) 0.4154(4)
N2 N -0.2917(7) 0.0397(5) 0.1178(4)
N3 N -0.7204(7) 0.0614(4) 0.4563(4)
N4 N 0.3072(7) 0.0466(5) 0.1124(4)
N5 N 0.4170(9) 0.3013(6) 0.3982(6)
N6 N -0.082(1) 0.3414(5) 0.5079(5)
N7 N 0.016(1) 0.3184(6) 0.2291(5)
N8 N -0.012(1) -0.1383(5) 0.2034(5)
N9 N -0.4287(7) 0.1515(4) 0.6369(4)
N10 N 0.121(1) 0.4010(7) 0.7515(6)
N11 N -0.4377(7) 0.1670(5) 0.0209(4)
N12 N 0.098(1) 0.3971(6) 0.0046(6)
C1 C -0.1963(8) 0.0787(5) 0.3757(4)
C2 C -0.1822(8) 0.0720(5) 0.1850(4)
C3 C -0.8137(7) 0.0882(5) 0.4097(4)
C4 C 0.2113(8) 0.0752(5) 0.1806(4)
C5 C 0.2860(8) 0.2408(5) 0.3638(5)
C6 C -0.0429(9) 0.2677(5) 0.4401(5)
C7 C 0.0195(9) 0.2505(5) 0.2535(5)
C8 C 0.0053(8) -0.0465(5) 0.2391(5)
C9 C -0.2563(9) 0.2041(6) 0.6536(5)
C10 C -0.2066(9) 0.3056(6) 0.7389(5)
C11 C -0.336(1) 0.3501(7) 0.8100(6)
C12 C -0.513(1) 0.2952(7) 0.7939(6)
C13 C -0.553(1) 0.1966(6) 0.7066(5)
C14 C -0.021(1) 0.3587(6) 0.7490(6)
C15 C -0.2682(9) 0.2077(5) 0.0083(5)
C16 C -0.2236(9) 0.3155(6) 0.0300(5)
C17 C -0.360(1) 0.3855(6) 0.0701(7)
C18 C -0.530(1) 0.3426(8) 0.0830(8)
C19 C -0.564(1) 0.2344(7) 0.0570(7)
C20 C -0.044(1) 0.3578(7) 0.0157(7)
H1 H -0.189(7) 0.166(5) 0.612(4)
H2 H -0.30(2) 0.40(1) 0.854(9)
H3 H -0.60(1) 0.327(7) 0.844(6)
H4 H -0.69(1) 0.147(7) 0.688(6)
H5 H -0.18(1) 0.167(6) -0.017(5)
H6 H -0.33(1) 0.451(8) 0.073(7)
H7 H -0.61(1) 0.388(9) 0.110(8)
H8 H -0.693(8) 0.189(5) 0.054(4)
N1A N -0.6848(7) -0.0524(4) 0.5846(4)
C1A C -0.8037(8) -0.0787(5) 0.6243(4)
N3A N -0.2796(7) -0.0614(4) 0.5437(4)
C3A C -0.1863(7) -0.0882(5) 0.5903(4)
N9A N -0.5713(7) -0.1515(4) 0.3631(4)
N10A N -1.121(1) -0.4010(7) 0.2485(6)
C9A C -0.7437(9) -0.2041(6) 0.3464(5)
C10A C -0.7934(9) -0.3056(6) 0.2611(5)
C11A C -0.664(1) -0.3501(7) 0.1900(6)
C12A C -0.487(1) -0.2952(7) 0.2061(6)
C13A C -0.447(1) -0.1966(6) 0.2934(5)
C14A C -0.979(1) -0.3587(6) 0.2510(6)
H1A H -0.811(7) -0.166(5) 0.388(4)
H2A H -0.70(2) -0.40(1) 0.146(9)
H3A H -0.40(1) -0.327(7) 0.156(6)
H4A H -0.31(1) -0.147(7) 0.312(6)
W1A W -1.03384(3) -0.12869(2) 0.69300(1)
N2A N -0.7083(7) -0.0397(5) 0.8822(4)
C2A C -0.8178(8) -0.0720(5) 0.8150(4)
N4A N -1.3072(7) -0.0466(5) 0.8876(4)
C4A C -1.2113(8) -0.0752(5) 0.8194(4)
N5A N -1.4170(9) -0.3013(6) 0.6018(6)
C5A C -1.2860(8) -0.2408(5) 0.6362(5)
N6A N -0.918(1) -0.3414(5) 0.4921(5)
C6A C -0.9571(9) -0.2677(5) 0.5599(5)
N7A N -1.016(1) -0.3184(6) 0.7709(5)
C7A C -1.0195(9) -0.2505(5) 0.7465(5)
N8A N -0.988(1) 0.1383(5) 0.7966(5)
C8A C -1.0053(8) 0.0465(5) 0.7609(5)
N11A N -0.5623(7) -0.1670(5) -0.0209(4)
N12A N -1.098(1) -0.3971(6) -0.0046(6)
C15A C -0.7318(9) -0.2077(5) -0.0083(5)
C16A C -0.7764(9) -0.3155(6) -0.0300(5)
C17A C -0.640(1) -0.3855(6) -0.0701(7)
C18A C -0.470(1) -0.3426(8) -0.0830(8)
C19A C -0.436(1) -0.2344(7) -0.0570(7)
C20A C -0.956(1) -0.3578(7) -0.0157(7)
H5A H -0.82(1) -0.167(6) 0.017(5)
H6A H -0.67(1) -0.451(8) -0.073(7)
H7A H -0.39(1) -0.388(9) -0.110(8)
H8A H -0.307(8) -0.189(5) -0.054(4)
C3_2 C 0.1863(7) 0.0882(5) 0.4097(4)
N2A_2 N -0.7083(7) -0.0397(5) -0.1178(4)
N4_2 N -0.6928(7) 0.0466(5) 0.1124(4)
N4A_2 N -0.3072(7) -0.0466(5) -0.1124(4)
Co2_2 Co 0.5000 0.0000 0.0000
W1_2 W -0.96616(3) 0.12869(2) 0.30700(1)
W1A_2 W -0.03384(3) -0.12869(2) 0.69300(1)
C3A_2 C -1.1863(7) -0.0882(5) 0.5903(4)
Co2_3 Co -0.5000 0.0000 1.0000
Co2_4 Co -1.5000 0.0000 1.0000
Cs1 Cs 0.28627(6) 0.52029(4) 0.61410(4)
O1 O 0.6831(9) 0.4931(6) 0.6518(6)
loop_
_geom_bond_atom_site_label_1
_geom_bond_atom_site_label_2
_geom_bond_site_symmetry_1
_geom_bond_site_symmetry_2
W1 C1 1_555 1_555
Co1 N1 1_555 1_555
Co2 N2 1_555 1_555
N1 C1 1_555 1_555
N2 C2 1_555 1_555
N3 Co1 1_555 1_555
N4 C4 1_555 1_555
N5 C5 1_555 1_555
N6 C6 1_555 1_555
N7 C7 1_555 1_555
N8 C8 1_555 1_555
N9 Co1 1_555 1_555
N10 C14 1_555 1_555
N11 Co2 1_555 1_555
N12 C20 1_555 1_555
C2 W1 1_555 1_555
C3 N3 1_555 1_555
C4 W1 1_555 1_555
C5 W1 1_555 1_555
C6 W1 1_555 1_555
C7 W1 1_555 1_555
C8 W1 1_555 1_555
C9 N9 1_555 1_555
C10 C9 1_555 1_555
C11 C10 1_555 1_555
C12 C11 1_555 1_555
C13 N9 1_555 1_555
C14 C10 1_555 1_555
C15 N11 1_555 1_555
C16 C15 1_555 1_555
C17 C16 1_555 1_555
C18 C17 1_555 1_555
C19 N11 1_555 1_555
C20 C16 1_555 1_555
H1 C9 1_555 1_555
H2 C11 1_555 1_555
H3 C12 1_555 1_555
H4 C13 1_555 1_555
H5 C15 1_555 1_555
H6 C17 1_555 1_555
H7 C18 1_555 1_555
H8 C19 1_555 1_555
N1A Co1 1_555 1_555
C1A N1A 1_555 1_555
N3A Co1 1_555 1_555
C3A N3A 1_555 1_555
N9A Co1 1_555 1_555
N10A C14A 1_555 1_555
C9A N9A 1_555 1_555
C10A C9A 1_555 1_555
C11A C10A 1_555 1_555
C12A C11A 1_555 1_555
C13A N9A 1_555 1_555
C14A C10A 1_555 1_555
H1A C9A 1_555 1_555
H2A C11A 1_555 1_555
H3A C12A 1_555 1_555
H4A C13A 1_555 1_555
W1A C1A 1_555 1_555
N2A C2A 1_555 1_555
C2A W1A 1_555 1_555
N4A C4A 1_555 1_555
C4A W1A 1_555 1_555
N5A C5A 1_555 1_555
C5A W1A 1_555 1_555
N6A C6A 1_555 1_555
C6A W1A 1_555 1_555
N7A C7A 1_555 1_555
C7A W1A 1_555 1_555
N8A C8A 1_555 1_555
C8A W1A 1_555 1_555
N11A Co2 1_555 1_555
N12A C20A 1_555 1_555
C15A N11A 1_555 1_555
C16A C15A 1_555 1_555
C17A C16A 1_555 1_555
C18A C17A 1_555 1_555
C19A N11A 1_555 1_555
C20A C16A 1_555 1_555
H5A C15A 1_555 1_555
H6A C17A 1_555 1_555
H7A C18A 1_555 1_555
H8A C19A 1_555 1_555
C3_2 W1 1_555 1_555
N2A_2 Co2 1_555 1_555
N4_2 Co2 1_555 1_555
N4A_2 Co2 1_555 1_555
Co2_2 N4 1_555 1_555
W1_2 C3 1_555 1_555
W1A_2 C3A 1_555 1_555
C3A_2 W1A 1_555 1_555
Co2_3 N2A 1_555 1_555
Co2_4 N4A 1_555 1_555
C12 C13 1_555 1_555
C18 C19 1_555 1_555
C12A C13A 1_555 1_555
C18A C19A 1_555 1_555

#END
