
#######################################################################
#
#                 Cambridge Crystallographic Data Centre
#                                CCDC 
#
#######################################################################
#
# If this CIF has been generated from an entry in the Cambridge 
# Structural Database, then it will include bibliographic, chemical, 
# crystal, experimental, refinement or atomic coordinate data resulting 
# from the CCDC's data processing and validation procedures.
#
#######################################################################

data_AKECEZ
_symmetry_cell_setting           monoclinic
_symmetry_space_group_name_H-M   'P 21/c'
_symmetry_Int_Tables_number      14
_space_group_name_Hall           '-P 2ybc'
loop_
_symmetry_equiv_pos_site_id
_symmetry_equiv_pos_as_xyz
1 x,y,z
2 -x,1/2+y,1/2-z
3 -x,-y,-z
4 x,1/2-y,1/2+z
_cell_length_a                   13.6333(10)
_cell_length_b                   18.6190(14)
_cell_length_c                   8.4151(6)
_cell_angle_alpha                90
_cell_angle_beta                 93.3110(10)
_cell_angle_gamma                90
_cell_volume                     2132.51
loop_
_atom_site_label
_atom_site_type_symbol
_atom_site_fract_x
_atom_site_fract_y
_atom_site_fract_z
Sn1 Sn 0.30457(2) 0.181779(14) 0.07073(3)
N1 N 0.0818(3) -0.0474(3) 0.6043(7)
N2 N 0.2680(4) -0.0634(2) 0.1251(7)
O1 O 0.0527(3) -0.1081(2) 0.5747(6)
O2 O 0.0586(3) -0.0123(3) 0.7170(6)
O3 O 0.2491(5) -0.0409(3) -0.0065(6)
O4 O 0.3040(5) -0.1210(3) 0.1527(7)
O5 O 0.3251(2) 0.07794(14) 0.1711(3)
O6 O 0.2836(2) 0.20689(14) 0.3206(3)
O7 O 0.2635(2) 0.18981(14) 0.5737(3)
O8 O 0.3487(3) 0.11995(17) -0.1640(3)
H1 H 0.3269 0.1403 -0.2501
C1 C 0.2625(3) 0.1657(2) 0.4345(4)
C2 C 0.2342(3) 0.0899(2) 0.4053(4)
C3 C 0.2664(3) 0.0513(2) 0.2732(5)
C4 C 0.2359(3) -0.0216(2) 0.2616(6)
C5 C 0.1788(3) -0.0539(2) 0.3674(6)
H2 H 0.1612 -0.1019 0.3557
C6 C 0.1479(3) -0.0142(3) 0.4916(6)
C7 C 0.1746(3) 0.0568(2) 0.5147(5)
H3 H 0.1534 0.0823 0.6014
C8 C 0.4519(3) 0.2161(2) 0.0962(5)
H4 H 0.4778 0.2182 -0.0086
H5 H 0.4531 0.2645 0.1388
C9 C 0.5196(3) 0.1701(2) 0.2015(6)
H6 H 0.4897 0.1625 0.3020
H7 H 0.5263 0.1236 0.1514
C10 C 0.6202(4) 0.2016(3) 0.2345(7)
H8 H 0.6136 0.2494 0.2784
H9 H 0.6522 0.2061 0.1350
C11 C 0.6849(4) 0.1567(4) 0.3497(8)
H10 H 0.7480 0.1792 0.3663
H11 H 0.6930 0.1096 0.3060
H12 H 0.6545 0.1529 0.4495
C12 C 0.1588(3) 0.1636(3) -0.0205(6)
H13 H 0.1527 0.1832 -0.1274
H14 H 0.1493 0.1121 -0.0296
C13 C 0.0774(4) 0.1931(3) 0.0691(7)
H15 H 0.0836 0.2449 0.0756
H16 H 0.0818 0.1741 0.1767
C14 C -0.0237(5) 0.1737(4) -0.0115(9)
H17 H -0.0255 0.1877 -0.1227
H18 H -0.0333 0.1221 -0.0068
C15 C -0.1047(5) 0.2108(5) 0.0689(12)
H19 H -0.1668 0.1979 0.0172
H20 H -0.0959 0.2618 0.0626
H21 H -0.1034 0.1964 0.1786
C16 C 0.4077(7) 0.0605(4) -0.1797(8)
H22 H 0.3667 0.0181 -0.1733
H23 H 0.4549 0.0593 -0.0889
C17 C 0.4643(6) 0.0544(4) -0.3298(9)
H24 H 0.5018 0.0108 -0.3266
H25 H 0.5079 0.0947 -0.3361
H26 H 0.4190 0.0540 -0.4214
Sn1C Sn 0.30457(2) 0.318221(14) 0.57073(3)
O7C O 0.2635(2) 0.31019(14) 0.0737(3)
loop_
_geom_bond_atom_site_label_1
_geom_bond_atom_site_label_2
_geom_bond_site_symmetry_1
_geom_bond_site_symmetry_2
Sn1 O5 1_555 1_555
N1 O1 1_555 1_555
N2 O3 1_555 1_555
O2 N1 1_555 1_555
O4 N2 1_555 1_555
O5 C3 1_555 1_555
O6 Sn1 1_555 1_555
O7 C1 1_555 1_555
O8 Sn1 1_555 1_555
H1 O8 1_555 1_555
C1 O6 1_555 1_555
C2 C1 1_555 1_555
C3 C2 1_555 1_555
C4 N2 1_555 1_555
C5 C4 1_555 1_555
H2 C5 1_555 1_555
C6 N1 1_555 1_555
C7 C2 1_555 1_555
H3 C7 1_555 1_555
C8 Sn1 1_555 1_555
H4 C8 1_555 1_555
H5 C8 1_555 1_555
C9 C8 1_555 1_555
H6 C9 1_555 1_555
H7 C9 1_555 1_555
C10 C9 1_555 1_555
H8 C10 1_555 1_555
H9 C10 1_555 1_555
C11 C10 1_555 1_555
H10 C11 1_555 1_555
H11 C11 1_555 1_555
H12 C11 1_555 1_555
C12 Sn1 1_555 1_555
H13 C12 1_555 1_555
H14 C12 1_555 1_555
C13 C12 1_555 1_555
H15 C13 1_555 1_555
H16 C13 1_555 1_555
C14 C13 1_555 1_555
H17 C14 1_555 1_555
H18 C14 1_555 1_555
C15 C14 1_555 1_555
H19 C15 1_555 1_555
H20 C15 1_555 1_555
H21 C15 1_555 1_555
C16 O8 1_555 1_555
H22 C16 1_555 1_555
H23 C16 1_555 1_555
C17 C16 1_555 1_555
H24 C17 1_555 1_555
H25 C17 1_555 1_555
H26 C17 1_555 1_555
Sn1C O7 1_555 1_555
O7C Sn1 1_555 1_555
C3 C4 1_555 1_555
C5 C6 1_555 1_555
C6 C7 1_555 1_555

#END
