
#######################################################################
#
#                 Cambridge Crystallographic Data Centre
#                                CCDC 
#
#######################################################################
#
# If this CIF has been generated from an entry in the Cambridge 
# Structural Database, then it will include bibliographic, chemical, 
# crystal, experimental, refinement or atomic coordinate data resulting 
# from the CCDC's data processing and validation procedures.
#
#######################################################################

data_AKEDEA
_symmetry_cell_setting           monoclinic
_symmetry_space_group_name_H-M   'C 2/c'
_symmetry_Int_Tables_number      15
_space_group_name_Hall           '-C 2yn'
loop_
_symmetry_equiv_pos_site_id
_symmetry_equiv_pos_as_xyz
1 x,y,z
2 -x,y,1/2-z
3 1/2+x,1/2+y,z
4 1/2-x,1/2+y,1/2-z
5 -x,-y,-z
6 x,-y,1/2+z
7 1/2-x,1/2-y,-z
8 1/2+x,1/2-y,1/2+z
_cell_length_a                   31.769(4)
_cell_length_b                   10.6641(12)
_cell_length_c                   14.8460(17)
_cell_angle_alpha                90
_cell_angle_beta                 115.363(2)
_cell_angle_gamma                90
_cell_volume                     4544.85
loop_
_atom_site_label
_atom_site_type_symbol
_atom_site_fract_x
_atom_site_fract_y
_atom_site_fract_z
Cu1 Cu 0.830155(17) 0.88203(4) 0.12456(4)
C1 C 0.85241(13) 0.8673(3) 0.3539(3)
C2 C 0.84087(13) 0.7319(3) 0.3649(3)
C3 C 0.86921(14) 0.6361(4) 0.3604(3)
H1 H 0.8959 0.6547 0.3520
C4 C 0.85777(13) 0.5112(3) 0.3685(3)
C5 C 0.81622(14) 0.4844(4) 0.3743(3)
H2 H 0.8079 0.4015 0.3774
C6 C 0.78714(13) 0.5807(4) 0.3755(3)
C7 C 0.80025(14) 0.7044(3) 0.3736(3)
H3 H 0.7816 0.7691 0.3782
C8 C 0.74041(14) 0.5549(4) 0.3757(3)
C9 C 0.92990(14) 0.4124(4) 0.3768(3)
C10 C 0.95283(14) 0.2883(4) 0.3791(3)
C11 C 1.00099(15) 0.2819(4) 0.4328(4)
H4 H 1.0179 0.3514 0.4675
C12 C 1.02318(16) 0.1708(5) 0.4337(4)
H5 H 1.0554 0.1679 0.4701
C13 C 0.95604(18) 0.0758(5) 0.3373(4)
H6 H 0.9401 0.0045 0.3040
C14 C 0.93028(15) 0.1813(4) 0.3317(4)
H7 H 0.8980 0.1802 0.2962
C15 C 0.92276(15) 0.8490(4) 0.1148(3)
H8 H 0.9248 0.9358 0.1123
C16 C 0.95983(15) 0.7769(4) 0.1183(4)
H9 H 0.9860 0.8156 0.1181
C17 C 0.95786(15) 0.6494(4) 0.1221(3)
H10 H 0.9826 0.6007 0.1245
C18 C 0.91822(15) 0.5929(4) 0.1224(3)
C19 C 0.91160(16) 0.4608(4) 0.1254(3)
H11 H 0.9350 0.4068 0.1279
C20 C 0.87202(16) 0.4120(4) 0.1247(3)
H12 H 0.8690 0.3255 0.1273
C21 C 0.83522(14) 0.4907(4) 0.1202(3)
C22 C 0.79387(15) 0.4488(4) 0.1214(3)
H13 H 0.7882 0.3633 0.1215
C23 C 0.76178(15) 0.5331(4) 0.1224(3)
H14 H 0.7347 0.5052 0.1254
C24 C 0.76973(14) 0.6609(4) 0.1189(3)
H15 H 0.7473 0.7173 0.1186
C25 C 0.84082(14) 0.6213(4) 0.1176(3)
C26 C 0.88207(14) 0.6714(4) 0.1175(3)
N1 N 0.88578(11) 0.4073(3) 0.3684(2)
H16 H 0.8735 0.3341 0.3624
N2 N 1.00198(14) 0.0679(4) 0.3865(4)
N3 N 0.80830(11) 0.7056(3) 0.1160(2)
N4 N 0.88477(11) 0.7988(3) 0.1148(2)
O1 O 0.86545(10) 0.8943(2) 0.2894(2)
O2 O 0.84786(11) 0.9447(2) 0.4137(2)
O3 O 0.71441(10) 0.6460(3) 0.3665(2)
O4 O 0.72974(9) 0.4414(2) 0.3816(2)
O5 O 0.95132(10) 0.5089(3) 0.3836(3)
O6 O 0.84942(10) 1.0468(2) 0.0942(2)
H17 H 0.8297 1.1022 0.0917
H18 H 0.8500 1.0437 0.0375
Cu1C Cu 0.669845(17) 0.38203(4) 0.37544(4)
O4C O 0.77026(9) 0.9414(2) 0.1184(2)
O7 O 0.17019(11) 0.1882(3) 0.1495(2)
H19 H 0.1636 0.1148 0.1251
H20 H 0.1832 0.1820 0.2127
loop_
_geom_bond_atom_site_label_1
_geom_bond_atom_site_label_2
_geom_bond_site_symmetry_1
_geom_bond_site_symmetry_2
Cu1 N3 1_555 1_555
C1 C2 1_555 1_555
C2 C3 1_555 1_555
C3 H1 1_555 1_555
C4 C3 1_555 1_555
C5 C4 1_555 1_555
H2 C5 1_555 1_555
C6 C5 1_555 1_555
C7 C2 1_555 1_555
H3 C7 1_555 1_555
C8 C6 1_555 1_555
C9 C10 1_555 1_555
C10 C11 1_555 1_555
C11 H4 1_555 1_555
C12 C11 1_555 1_555
H5 C12 1_555 1_555
C13 H6 1_555 1_555
C14 C10 1_555 1_555
H7 C14 1_555 1_555
C15 H8 1_555 1_555
C16 C15 1_555 1_555
H9 C16 1_555 1_555
C17 C16 1_555 1_555
H10 C17 1_555 1_555
C18 C17 1_555 1_555
C19 C18 1_555 1_555
H11 C19 1_555 1_555
C20 C19 1_555 1_555
H12 C20 1_555 1_555
C21 C20 1_555 1_555
C22 C21 1_555 1_555
H13 C22 1_555 1_555
C23 C22 1_555 1_555
H14 C23 1_555 1_555
C24 C23 1_555 1_555
H15 C24 1_555 1_555
C25 C21 1_555 1_555
C26 C18 1_555 1_555
N1 C4 1_555 1_555
H16 N1 1_555 1_555
N2 C12 1_555 1_555
N3 C24 1_555 1_555
N4 Cu1 1_555 1_555
O1 Cu1 1_555 1_555
O2 C1 1_555 1_555
O3 C8 1_555 1_555
O4 C8 1_555 1_555
O5 C9 1_555 1_555
O6 Cu1 1_555 1_555
H17 O6 1_555 1_555
H18 O6 1_555 1_555
O7 H19 1_555 1_555
H20 O7 1_555 1_555
Cu1C O4 1_555 1_555
O4C Cu1 1_555 1_555
C1 O1 1_555 1_555
C6 C7 1_555 1_555
C9 N1 1_555 1_555
C13 C14 1_555 1_555
C13 N2 1_555 1_555
C15 N4 1_555 1_555
C25 C26 1_555 1_555
C25 N3 1_555 1_555
C26 N4 1_555 1_555

#END
