
#######################################################################
#
#                 Cambridge Crystallographic Data Centre
#                                CCDC 
#
#######################################################################
#
# If this CIF has been generated from an entry in the Cambridge 
# Structural Database, then it will include bibliographic, chemical, 
# crystal, experimental, refinement or atomic coordinate data resulting 
# from the CCDC's data processing and validation procedures.
#
#######################################################################

data_AKEDOK
_symmetry_cell_setting           monoclinic
_symmetry_space_group_name_H-M   'P n'
_symmetry_Int_Tables_number      7
_space_group_name_Hall           'P -2yac'
loop_
_symmetry_equiv_pos_site_id
_symmetry_equiv_pos_as_xyz
1 x,y,z
2 1/2+x,-y,1/2+z
_cell_length_a                   7.1944(14)
_cell_length_b                   12.594(3)
_cell_length_c                   16.819(3)
_cell_angle_alpha                90
_cell_angle_beta                 93.30(3)
_cell_angle_gamma                90
_cell_volume                     1521.38
loop_
_atom_site_label
_atom_site_type_symbol
_atom_site_fract_x
_atom_site_fract_y
_atom_site_fract_z
Co1 Co 0.83180(7) 0.02689(5) 0.95703(4)
O1 O 1.1510(4) 0.3744(3) 1.06130(17)
H1 H 1.1885 0.3734 1.1083
O2 O 1.4480(5) 0.4128(3) 1.04174(18)
O3 O 1.0970(4) -0.0162(2) 1.00462(17)
N1 N 0.8325(5) -0.0455(3) 0.8403(2)
O4 O 0.9453(5) 0.1683(2) 0.91596(18)
O5 O 1.2914(5) 0.8891(3) 0.56471(19)
C1 C 0.7972(7) -0.1519(3) 0.8382(2)
C2 C 1.2992(6) 0.8010(3) 0.6903(3)
N2 N 0.7040(5) -0.4761(3) 0.8316(2)
H2 H 0.6883 -0.5248 0.8664
C3 C 1.2151(6) 0.5026(3) 0.8088(2)
N3 N 0.7324(6) -0.3982(3) 0.7139(2)
N4 N 0.7570(6) -0.1364(3) 0.9777(2)
O6 O 1.3450(6) 0.9907(3) 0.67031(19)
C4 C 0.7360(7) -0.3693(3) 0.8467(3)
C5 C 1.0858(7) 0.3259(4) 0.8093(3)
H3 H 1.0209 0.2719 0.7822
C6 C 1.2908(7) 0.3932(4) 1.0167(3)
C7 C 1.2864(7) 0.7054(4) 0.6488(3)
H4 H 1.2934 0.7073 0.5938
C8 C 1.2324(7) 0.3962(4) 0.9295(2)
C9 C 1.3120(7) 0.8999(4) 0.6388(3)
C10 C 0.8593(4) 0.0029(2) 0.77263(16)
H5 H 0.8866 0.0750 0.7737
O7 O 0.5677(4) 0.0834(2) 0.92611(16)
C11 C 0.7360(7) -0.3104(4) 0.9190(2)
C12 C 1.2882(7) 0.7967(4) 0.7744(3)
C13 C 0.7888(7) -0.2118(3) 0.7662(3)
C14 C 1.2613(7) 0.6988(4) 0.8088(3)
H6 H 1.2507 0.6963 0.8637
C15 C 1.1427(6) 0.3126(4) 0.8903(2)
C16 C 1.2491(6) 0.6039(4) 0.7670(2)
C17 C 0.8125(7) -0.1566(4) 0.6953(3)
H7 H 0.8038 -0.1922 0.6467
C18 C 0.7546(7) -0.3224(3) 0.7731(2)
C19 C 0.7627(7) -0.2004(4) 0.9136(3)
C20 C 1.2642(7) 0.6095(4) 0.6842(3)
H8 H 1.2591 0.5478 0.6537
C21 C 1.2715(7) 0.4894(4) 0.8889(3)
H9 H 1.3365 0.5437 0.9157
C22 C 0.8485(7) -0.0501(4) 0.6980(3)
H10 H 0.8657 -0.0126 0.6514
C23 C 1.1257(7) 0.4181(4) 0.7702(3)
H11 H 1.0916 0.4240 0.7162
C24 C 0.7055(8) -0.3554(4) 0.9945(3)
H12 H 0.6912 -0.4282 1.0010
C25 C 0.7020(7) -0.4893(3) 0.7515(3)
C26 C 0.6694(6) -0.5942(3) 0.7140(3)
C27 C 0.5785(7) -0.6738(4) 0.7535(3)
H13 H 0.5315 -0.6599 0.8028
C28 C 0.7221(7) -0.1787(4) 1.0467(3)
H14 H 0.7132 -0.1340 1.0904
C29 C 0.6981(8) -0.2865(4) 1.0574(3)
H15 H 0.6767 -0.3126 1.1078
O8 O 1.3495(5) 0.9804(3) 0.81211(19)
H16 H 1.3600 0.9813 0.7638
O9 O 1.2886(6) 0.8657(3) 0.9048(2)
C30 C 1.3093(7) 0.8853(4) 0.8344(3)
C31 C 0.7115(8) -0.7161(4) 0.6063(3)
H17 H 0.7557 -0.7304 0.5565
C32 C 0.5570(8) -0.7739(4) 0.7199(3)
H18 H 0.4986 -0.8272 0.7475
C33 C 0.7371(7) -0.6160(4) 0.6389(3)
H19 H 0.7985 -0.5637 0.6115
C34 C 0.6218(8) -0.7950(4) 0.6458(3)
H20 H 0.6050 -0.8618 0.6229
O10 O 1.2318(5) 0.1747(2) 0.97856(18)
C35 C 1.1045(7) 0.2107(4) 0.9322(3)
H21 H 1.1521 0.0407 1.0021
H22 H 1.1358 -0.0583 0.9721
H25 H 0.4905 0.0603 0.8888
H26 H 0.4953 0.1128 0.9585
Co1A Co 1.33180(7) 0.97311(5) 0.45703(4)
O5A O 0.7914(5) 0.1109(3) 1.06471(19)
O11 O 1.2216(5) 0.6374(3) 1.44022(19)
H23 H 1.1399 0.6218 1.4701
H24 H 1.2444 0.7017 1.4430
loop_
_geom_bond_atom_site_label_1
_geom_bond_atom_site_label_2
_geom_bond_site_symmetry_1
_geom_bond_site_symmetry_2
Co1 O3 1_555 1_555
O1 H1 1_555 1_555
O2 C6 1_555 1_555
O3 H21 1_555 1_555
N1 Co1 1_555 1_555
O4 Co1 1_555 1_555
O5 C9 1_555 1_555
C1 N1 1_555 1_555
C2 C7 1_555 1_555
N2 H2 1_555 1_555
C3 C16 1_555 1_555
N3 C18 1_555 1_555
N4 Co1 1_555 1_555
O6 C9 1_555 1_555
C4 N2 1_555 1_555
C5 H3 1_555 1_555
C6 O1 1_555 1_555
C7 H4 1_555 1_555
C8 C6 1_555 1_555
C9 C2 1_555 1_555
C10 N1 1_555 1_555
H5 C10 1_555 1_555
O7 Co1 1_555 1_555
C11 C4 1_555 1_555
C12 C2 1_555 1_555
C13 C1 1_555 1_555
C14 C12 1_555 1_555
H6 C14 1_555 1_555
C15 C5 1_555 1_555
C16 C14 1_555 1_555
C17 C13 1_555 1_555
H7 C17 1_555 1_555
C18 C4 1_555 1_555
C19 C1 1_555 1_555
C20 C7 1_555 1_555
H8 C20 1_555 1_555
C21 C3 1_555 1_555
H9 C21 1_555 1_555
C22 C10 1_555 1_555
H10 C22 1_555 1_555
C23 C3 1_555 1_555
H11 C23 1_555 1_555
C24 C11 1_555 1_555
H12 C24 1_555 1_555
C25 N2 1_555 1_555
C26 C25 1_555 1_555
C27 C26 1_555 1_555
H13 C27 1_555 1_555
C28 N4 1_555 1_555
H14 C28 1_555 1_555
C29 C24 1_555 1_555
H15 C29 1_555 1_555
O8 H16 1_555 1_555
O9 C30 1_555 1_555
C30 C12 1_555 1_555
C31 H17 1_555 1_555
C32 C27 1_555 1_555
H18 C32 1_555 1_555
C33 C26 1_555 1_555
H19 C33 1_555 1_555
C34 C31 1_555 1_555
H20 C34 1_555 1_555
O10 C35 1_555 1_555
C35 O4 1_555 1_555
O11 H23 1_555 1_555
H22 O3 1_555 1_555
H24 O11 1_555 1_555
H25 O7 1_555 1_555
H26 O7 1_555 1_555
Co1A O5 1_555 1_555
O5A Co1 1_555 1_555
N3 C25 1_555 1_555
N4 C19 1_555 1_555
C5 C23 1_555 1_555
C8 C15 1_555 1_555
C8 C21 1_555 1_555
C11 C19 1_555 1_555
C13 C18 1_555 1_555
C15 C35 1_555 1_555
C16 C20 1_555 1_555
C17 C22 1_555 1_555
C28 C29 1_555 1_555
O8 C30 1_555 1_555
C31 C33 1_555 1_555
C32 C34 1_555 1_555

#END
