
#######################################################################
#
#                 Cambridge Crystallographic Data Centre
#                                CCDC 
#
#######################################################################
#
# If this CIF has been generated from an entry in the Cambridge 
# Structural Database, then it will include bibliographic, chemical, 
# crystal, experimental, refinement or atomic coordinate data resulting 
# from the CCDC's data processing and validation procedures.
#
#######################################################################

data_AKEGON
_symmetry_cell_setting           monoclinic
_symmetry_space_group_name_H-M   'C 2/c'
_symmetry_Int_Tables_number      15
_space_group_name_Hall           '-C 2yn'
loop_
_symmetry_equiv_pos_site_id
_symmetry_equiv_pos_as_xyz
1 x,y,z
2 -x,y,1/2-z
3 1/2+x,1/2+y,z
4 1/2-x,1/2+y,1/2-z
5 -x,-y,-z
6 x,-y,1/2+z
7 1/2-x,1/2-y,-z
8 1/2+x,1/2-y,1/2+z
_cell_length_a                   16.7686(6)
_cell_length_b                   8.4646(3)
_cell_length_c                   7.4464(3)
_cell_angle_alpha                90
_cell_angle_beta                 99.0930(10)
_cell_angle_gamma                90
_cell_volume                     1043.66
loop_
_atom_site_label
_atom_site_type_symbol
_atom_site_fract_x
_atom_site_fract_y
_atom_site_fract_z
Mn1 Mn 1.0000 -0.076459(18) 0.2500
O1 O 0.88960(4) 0.05007(7) 0.25036(9)
O2 O 0.96699(3) 0.15728(7) 0.48546(7)
O3 O 0.89455(3) 0.29664(7) 0.73532(8)
C1 C 0.82337(4) 0.19593(8) 0.45428(9)
C2 C 0.82294(4) 0.27479(8) 0.62019(9)
C3 C 0.74941(4) 0.32770(8) 0.66249(9)
H1 H 0.7488 0.3815 0.7742
C4 C 0.89808(4) 0.13108(8) 0.39354(9)
C5 C 0.89157(6) 0.38382(13) 0.89920(15)
H2 H 0.8689 0.4889 0.8685
H3 H 0.9463 0.3945 0.9675
H4 H 0.8575 0.3276 0.9736
Mn1B Mn 0.5000 0.423541(18) 0.2500
Mn1D Mn 1.0000 0.076459(18) 0.7500
Mn1F Mn 0.5000 0.576459(18) 0.7500
O1F O 0.61040(4) 0.44993(7) 0.74964(9)
O1A O 1.11040(4) 0.05007(7) 0.24964(9)
O2F O 0.53301(3) 0.34272(7) 0.51454(7)
O2D O 1.03301(3) -0.15728(7) 0.51454(7)
O2E O 0.96699(3) -0.15728(7) -0.01454(7)
O3F O 0.60545(3) 0.20336(7) 0.26468(8)
C1F C 0.67663(4) 0.30407(8) 0.54572(9)
C2F C 0.67706(4) 0.22521(8) 0.37981(9)
C3F C 0.75059(4) 0.17230(8) 0.33751(9)
H1F H 0.7512 0.1185 0.2258
C4F C 0.60192(4) 0.36892(8) 0.60646(9)
C5F C 0.60843(6) 0.11618(13) 0.10080(15)
H2F H 0.6311 0.0111 0.1315
H3F H 0.5537 0.1055 0.0325
H4F H 0.6425 0.1724 0.0264
loop_
_geom_bond_atom_site_label_1
_geom_bond_atom_site_label_2
_geom_bond_site_symmetry_1
_geom_bond_site_symmetry_2
Mn1 O1 1_555 1_555
O1 C4 1_555 1_555
O2 C4 1_555 1_555
O3 C2 1_555 1_555
C1 C2 1_555 1_555
C2 C3 1_555 1_555
C3 H1 1_555 1_555
C4 C1 1_555 1_555
C5 O3 1_555 1_555
H2 C5 1_555 1_555
H3 C5 1_555 1_555
H4 C5 1_555 1_555
Mn1B O2F 1_555 1_555
Mn1D O2 1_555 1_555
Mn1F O1F 1_555 1_555
O1F C4F 1_555 1_555
O1A Mn1 1_555 1_555
O2F C4F 1_555 1_555
O2D Mn1 1_555 1_555
O2E Mn1 1_555 1_555
O3F C2F 1_555 1_555
C1F C3 1_555 1_555
C2F C1F 1_555 1_555
C3F C1 1_555 1_555
H1F C3F 1_555 1_555
C4F C1F 1_555 1_555
C5F O3F 1_555 1_555
H2F C5F 1_555 1_555
H3F C5F 1_555 1_555
H4F C5F 1_555 1_555
C2F C3F 1_555 1_555

#END
