
#######################################################################
#
#                 Cambridge Crystallographic Data Centre
#                                CCDC 
#
#######################################################################
#
# If this CIF has been generated from an entry in the Cambridge 
# Structural Database, then it will include bibliographic, chemical, 
# crystal, experimental, refinement or atomic coordinate data resulting 
# from the CCDC's data processing and validation procedures.
#
#######################################################################

data_AKESOY
_symmetry_cell_setting           monoclinic
_symmetry_space_group_name_H-M   'P 21/n'
_symmetry_Int_Tables_number      14
_space_group_name_Hall           '-P 2yn'
loop_
_symmetry_equiv_pos_site_id
_symmetry_equiv_pos_as_xyz
1 x,y,z
2 1/2+x,1/2-y,1/2+z
3 -x,-y,-z
4 1/2-x,1/2+y,1/2-z
_cell_length_a                   10.1457(3)
_cell_length_b                   11.7643(3)
_cell_length_c                   16.9973(3)
_cell_angle_alpha                90
_cell_angle_beta                 98.7460(10)
_cell_angle_gamma                90
_cell_volume                     2005.16
loop_
_atom_site_label
_atom_site_type_symbol
_atom_site_fract_x
_atom_site_fract_y
_atom_site_fract_z
Ni1 Ni 0.05916(3) 1.16452(3) -0.11939(2)
Ni2 Ni -0.06517(4) 1.09518(3) 0.04335(2)
N1 N -0.2304(3) 1.1241(3) 0.10177(18)
N2 N -0.0327(3) 1.2627(3) 0.0805(2)
C1 C -0.3332(4) 1.0536(4) 0.1026(2)
H1 H -0.3279 0.9806 0.0824
C2 C -0.6866(3) 1.2565(3) -0.0830(2)
C3 C -0.4449(3) 1.2456(3) -0.0951(2)
H2 H -0.4336 1.1966 -0.0517
C4 C -0.3377(3) 1.2698(3) -0.1350(2)
C5 C -0.2059(3) 1.2139(3) -0.1077(2)
C6 C -0.4926(3) 1.4764(3) -0.2912(2)
C7 C -0.5834(3) 1.3722(3) -0.1829(2)
H3 H -0.6653 1.4072 -0.1987
C8 C -0.3540(3) 1.3435(3) -0.1989(2)
H4 H -0.2833 1.3572 -0.2266
C9 C -0.4757(3) 1.3976(3) -0.2220(2)
C10 C -0.5685(3) 1.2947(3) -0.1204(2)
C11 C -0.0019(8) 1.4766(5) 0.1461(5)
H5 H 0.0076 1.5496 0.1674
C12 C 0.0917(7) 1.4336(5) 0.1034(4)
H6 H 0.1659 1.4765 0.0960
C13 C -0.4547(5) 1.1928(5) 0.1616(3)
H7 H -0.5302 1.2161 0.1821
C14 C -0.1090(6) 1.4109(5) 0.1571(4)
H8 H -0.1713 1.4377 0.1874
C15 C -0.3504(5) 1.2660(5) 0.1605(3)
H9 H -0.3541 1.3391 0.1809
C16 C 0.0738(5) 1.3268(4) 0.0721(3)
H10 H 0.1377 1.2973 0.0439
C17 C -0.4476(5) 1.0854(5) 0.1323(3)
H11 H -0.5178 1.0346 0.1322
C18 C -0.1235(5) 1.3050(3) 0.1228(3)
C19 C -0.2391(4) 1.2307(4) 0.1289(2)
O1 O -0.2000(2) 1.1389(2) -0.05607(15)
O2 O -0.1075(2) 1.2489(2) -0.13983(16)
O3 O -0.8003(2) 1.2746(2) -0.12548(15)
O4 O -0.5660(3) 1.5636(2) -0.28745(14)
O5 O -0.4366(2) 1.4528(2) -0.34995(14)
O6 O 0.0899(2) 1.07624(19) -0.02041(14)
O7 O -0.6689(2) 1.2069(3) -0.01874(16)
H12 H 0.158(5) 1.106(4) 0.004(3)
O3_2 O 0.1997(2) 1.2746(2) -0.12548(15)
O4C O 0.0660(3) 1.0636(2) -0.21255(14)
O5A O 0.0634(2) 1.0472(2) 0.15005(14)
O6B O -0.0899(2) 0.92376(19) 0.02041(14)
Ni1_2 Ni -0.94084(3) 1.16452(3) -0.11939(2)
Ni1C Ni -0.55916(3) 1.66452(3) -0.38061(2)
Ni2A Ni -0.56517(4) 1.40482(3) -0.45665(2)
Ni2B Ni 0.06517(4) 0.90482(3) -0.04335(2)
H12B H -0.158(5) 0.894(4) -0.004(3)
loop_
_geom_bond_atom_site_label_1
_geom_bond_atom_site_label_2
_geom_bond_site_symmetry_1
_geom_bond_site_symmetry_2
Ni1 O2 1_555 1_555
Ni2 N1 1_555 1_555
N1 C1 1_555 1_555
N2 Ni2 1_555 1_555
C1 H1 1_555 1_555
C2 C10 1_555 1_555
C3 H2 1_555 1_555
C4 C3 1_555 1_555
C5 C4 1_555 1_555
C6 C9 1_555 1_555
C7 H3 1_555 1_555
C8 C4 1_555 1_555
H4 C8 1_555 1_555
C9 C7 1_555 1_555
C10 C3 1_555 1_555
C11 H5 1_555 1_555
C12 C11 1_555 1_555
H6 C12 1_555 1_555
C13 H7 1_555 1_555
C14 C11 1_555 1_555
H8 C14 1_555 1_555
C15 C13 1_555 1_555
H9 C15 1_555 1_555
C16 N2 1_555 1_555
H10 C16 1_555 1_555
C17 C1 1_555 1_555
H11 C17 1_555 1_555
C18 N2 1_555 1_555
C19 N1 1_555 1_555
O1 Ni2 1_555 1_555
O2 C5 1_555 1_555
O3 C2 1_555 1_555
O4 C6 1_555 1_555
O5 C6 1_555 1_555
O6 Ni1 1_555 1_555
O7 C2 1_555 1_555
H12 O6 1_555 1_555
O3_2 Ni1 1_555 1_555
O4C Ni1 1_555 1_555
O5A Ni2 1_555 1_555
O6B Ni2 1_555 1_555
Ni1_2 O3 1_555 1_555
Ni1C O4 1_555 1_555
Ni2A O5 1_555 1_555
Ni2B O6 1_555 1_555
H12B O6B 1_555 1_555
Ni2 O6 1_555 1_555
C5 O1 1_555 1_555
C7 C10 1_555 1_555
C8 C9 1_555 1_555
C12 C16 1_555 1_555
C13 C17 1_555 1_555
C14 C18 1_555 1_555
C15 C19 1_555 1_555
C18 C19 1_555 1_555
O6B Ni2B 1_555 1_555

#END
