
#######################################################################
#
#                 Cambridge Crystallographic Data Centre
#                                CCDC 
#
#######################################################################
#
# If this CIF has been generated from an entry in the Cambridge 
# Structural Database, then it will include bibliographic, chemical, 
# crystal, experimental, refinement or atomic coordinate data resulting 
# from the CCDC's data processing and validation procedures.
#
#######################################################################

data_AKESIS
_symmetry_cell_setting           triclinic
_symmetry_space_group_name_H-M   'P -1'
_symmetry_Int_Tables_number      2
_space_group_name_Hall           '-P 1'
loop_
_symmetry_equiv_pos_site_id
_symmetry_equiv_pos_as_xyz
1 x,y,z
2 -x,-y,-z
_cell_length_a                   6.8410(10)
_cell_length_b                   8.5110(10)
_cell_length_c                   9.872(2)
_cell_angle_alpha                91.58(2)
_cell_angle_beta                 92.94(2)
_cell_angle_gamma                107.410(10)
_cell_volume                     547.175
loop_
_atom_site_label
_atom_site_type_symbol
_atom_site_fract_x
_atom_site_fract_y
_atom_site_fract_z
Ag1 Ag 0.71845(9) 0.91525(6) 0.58627(5)
N1 N 0.6103(9) 0.6536(7) 0.6593(6)
N2 N -0.1439(9) 0.0781(7) 0.7930(6)
N3 N 0.8127(12) 1.1499(9) 0.3685(7)
O1 O 0.2757(8) 0.4427(7) 0.9076(6)
O2 O 0.9134(10) 1.1655(10) 0.4761(6)
O3 O 0.6595(10) 1.0280(9) 0.3581(7)
C1 C 0.6988(10) 0.5392(9) 0.6218(7)
H1 H 0.8002 0.5662 0.5598
C2 C 0.6448(12) 0.3843(9) 0.6716(8)
H2 H 0.7052 0.3067 0.6407
C3 C 0.5008(11) 0.3438(9) 0.7677(8)
H3 H 0.4649 0.2408 0.8054
C4 C 0.4126(10) 0.4623(8) 0.8053(6)
C5 C 0.4683(10) 0.6133(8) 0.7486(7)
H4 H 0.4036 0.6904 0.7740
C6 C 0.0244(10) 0.2062(9) 0.7919(6)
H5 H 0.0887 0.2299 0.7110
C7 C 0.1076(10) 0.3059(8) 0.9065(7)
C8 C 0.0138(11) 0.2712(10) 1.0266(7)
H6 H 0.0662 0.3361 1.1051
C9 C -0.1595(11) 0.1376(10) 1.0275(7)
H7 H -0.2256 0.1105 1.1074
C10 C -0.2341(11) 0.0451(10) 0.9103(7)
H8 H -0.3521 -0.0443 0.9123
N2_2 N 0.8561(9) 1.0781(7) 0.7930(6)
Ag1_2 Ag -0.28155(9) -0.08475(6) 0.58627(5)
loop_
_geom_bond_atom_site_label_1
_geom_bond_atom_site_label_2
_geom_bond_site_symmetry_1
_geom_bond_site_symmetry_2
Ag1 N1 1_555 1_555
N1 C1 1_555 1_555
N2 C6 1_555 1_555
N3 O2 1_555 1_555
O1 C4 1_555 1_555
O2 Ag1 1_555 1_555
O3 Ag1 1_555 1_555
C1 H1 1_555 1_555
C2 C1 1_555 1_555
H2 C2 1_555 1_555
C3 C2 1_555 1_555
H3 C3 1_555 1_555
C4 C3 1_555 1_555
C5 N1 1_555 1_555
H4 C5 1_555 1_555
C6 H5 1_555 1_555
C7 O1 1_555 1_555
C8 C7 1_555 1_555
H6 C8 1_555 1_555
C9 C8 1_555 1_555
H7 C9 1_555 1_555
C10 N2 1_555 1_555
H8 C10 1_555 1_555
N2_2 Ag1 1_555 1_555
Ag1_2 N2 1_555 1_555
N3 O3 1_555 1_555
C4 C5 1_555 1_555
C6 C7 1_555 1_555
C9 C10 1_555 1_555

#END
