
#######################################################################
#
#                 Cambridge Crystallographic Data Centre
#                                CCDC 
#
#######################################################################
#
# If this CIF has been generated from an entry in the Cambridge 
# Structural Database, then it will include bibliographic, chemical, 
# crystal, experimental, refinement or atomic coordinate data resulting 
# from the CCDC's data processing and validation procedures.
#
#######################################################################

data_AKICUT01
_symmetry_cell_setting           monoclinic
_symmetry_space_group_name_H-M   'P 2/n'
_symmetry_Int_Tables_number      13
_space_group_name_Hall           '-P 2yac'
loop_
_symmetry_equiv_pos_site_id
_symmetry_equiv_pos_as_xyz
1 x,y,z
2 1/2-x,y,1/2-z
3 -x,-y,-z
4 1/2+x,-y,1/2+z
_cell_length_a                   16.1379(3)
_cell_length_b                   14.3657(2)
_cell_length_c                   16.3422(4)
_cell_angle_alpha                90
_cell_angle_beta                 90.1205(9)
_cell_angle_gamma                90
_cell_volume                     3788.64
loop_
_atom_site_label
_atom_site_type_symbol
_atom_site_fract_x
_atom_site_fract_y
_atom_site_fract_z
Ni1 Ni 0.25000 0.90166(3) 0.75000
Ni2 Ni 0.75000 1.01221(3) 0.75000
V1 V 0.42482(3) 0.89545(3) 0.59941(3)
V2 V 0.60612(3) 1.00007(3) 0.57497(3)
O1 O 0.34753(11) 0.90897(13) 0.66440(12)
O2 O 0.50135(11) 0.98625(13) 0.61246(12)
O3 O 0.46567(12) 0.79194(13) 0.61348(14)
O4 O 0.66839(11) 1.01906(13) 0.65336(12)
O5 O 0.38636(12) 0.90085(12) 0.49402(12)
O6 O 0.63452(12) 0.90349(13) 0.52935(13)
N1 N 0.19238(10) 0.79761(11) 0.68415(10)
C1 C 0.14133(11) 0.73467(13) 0.71545(10)
N2 N 0.11172(11) 0.67764(11) 0.65649(12)
C2 C 0.14570(14) 0.70578(14) 0.58400(11)
C3 C 0.19528(12) 0.77971(14) 0.60167(11)
N3 N 0.18562(11) 0.99728(12) 0.68108(12)
C4 C 0.21508(11) 1.07244(14) 0.64403(14)
N4 N 0.15670(14) 1.11190(13) 0.59584(13)
C5 C 0.08653(13) 1.05908(16) 0.60261(17)
C6 C 0.10496(12) 0.98867(15) 0.65524(17)
N5 N 0.82455(10) 1.10891(11) 0.68798(10)
C7 C 0.87086(11) 1.17745(12) 0.71754(10)
N6 N 0.91487(10) 1.21873(11) 0.65736(12)
C8 C 0.89554(12) 1.17412(14) 0.58589(10)
C9 C 0.83987(12) 1.10660(12) 0.60538(11)
N7 N 0.82167(10) 0.90986(11) 0.69624(11)
C10 C 0.79776(9) 0.84972(13) 0.63930(12)
N8 N 0.86183(11) 0.79592(12) 0.61497(11)
C11 C 0.92996(10) 0.82329(14) 0.65870(14)
C12 C 0.90460(11) 0.89350(13) 0.70858(13)
H1 H 0.12773 0.73037 0.77060
H2 H 0.07781 0.63211 0.66328
H3 H 0.13669 0.67955 0.53272
H4 H 0.22634 0.81298 0.56375
H5 H 0.26874 1.09498 0.65038
H6 H 0.16257 1.16106 0.56639
H7 H 0.03614 1.06930 0.57639
H8 H 0.06857 0.94192 0.67124
H9 H 0.87278 1.19478 0.77234
H10 H 0.94873 1.26453 0.66296
H11 H 0.91635 1.18734 0.53416
H12 H 0.81590 1.06527 0.56848
H13 H 0.74409 0.84518 0.61886
H14 H 0.86010 0.75255 0.57874
H15 H 0.98315 0.79874 0.65505
H16 H 0.93822 0.92546 0.74535
Ni2_2 Ni -0.25000 1.01221(3) 0.75000
V1A V 0.07518(3) 0.89545(3) 0.90059(3)
V2A V -0.10612(3) 1.00007(3) 0.92503(3)
V2B V 0.39388(3) 0.99993(3) 0.42503(3)
V2C V 0.10612(3) 0.99993(3) 1.07497(3)
O1A O 0.15247(11) 0.90897(13) 0.83560(12)
O2A O -0.00135(11) 0.98625(13) 0.88754(12)
O3A O 0.03433(12) 0.79194(13) 0.88652(14)
O4A O -0.16839(11) 1.01906(13) 0.84664(12)
O4A_2 O 0.83161(11) 1.01906(13) 0.84664(12)
O5A O 0.11364(12) 0.90085(12) 1.00598(12)
O5B O 0.61364(12) 1.09915(12) 0.50598(12)
O5C O -0.11364(12) 1.09915(12) 0.99402(12)
O6A O -0.13452(12) 0.90349(13) 0.97065(13)
N1A N 0.30762(10) 0.79761(11) 0.81585(10)
C1A C 0.35867(11) 0.73467(13) 0.78455(10)
N2A N 0.38828(11) 0.67764(11) 0.84351(12)
C2A C 0.35430(14) 0.70578(14) 0.91600(11)
C3A C 0.30472(12) 0.77971(14) 0.89833(11)
N3A N 0.31438(11) 0.99728(12) 0.81892(12)
C4A C 0.28492(11) 1.07244(14) 0.85597(14)
N4A N 0.34330(14) 1.11190(13) 0.90416(13)
C5A C 0.41347(13) 1.05908(16) 0.89739(17)
C6A C 0.39504(12) 0.98867(15) 0.84476(17)
N5A N 0.67545(10) 1.10891(11) 0.81202(10)
C7A C 0.62914(11) 1.17745(12) 0.78246(10)
N6A N 0.58513(10) 1.21873(11) 0.84264(12)
C8A C 0.60446(12) 1.17412(14) 0.91411(10)
C9A C 0.66013(12) 1.10660(12) 0.89462(11)
N7A N 0.67833(10) 0.90986(11) 0.80376(11)
C10A C 0.70224(9) 0.84972(13) 0.86070(12)
N8A N 0.63817(11) 0.79592(12) 0.88503(11)
C11A C 0.57004(10) 0.82329(14) 0.84130(14)
C12A C 0.59540(11) 0.89350(13) 0.79142(13)
H1A H 0.37227 0.73037 0.72940
H2A H 0.42219 0.63211 0.83672
H3A H 0.36331 0.67955 0.96728
H4A H 0.27366 0.81298 0.93625
H5A H 0.23126 1.09498 0.84962
H6A H 0.33743 1.16106 0.93361
H7A H 0.46386 1.06930 0.92361
H8A H 0.43143 0.94192 0.82876
H9A H 0.62722 1.19478 0.72766
H10A H 0.55127 1.26453 0.83704
H11A H 0.58365 1.18734 0.96584
H12A H 0.68410 1.06527 0.93152
H13A H 0.75591 0.84518 0.88114
H14A H 0.63990 0.75255 0.92126
H15A H 0.51685 0.79874 0.84495
H16A H 0.56178 0.92546 0.75465
Ni3 Ni 0.25000 0.40531(3) 0.75000
Ni4 Ni 0.25000 0.52946(3) 1.25000
V3 V 0.39569(3) 0.39805(3) 0.92821(3)
V4 V 0.42207(3) 0.51243(3) 1.10308(3)
O7 O 0.33536(11) 0.41572(13) 0.84841(12)
O8 O 0.38333(12) 0.49179(13) 1.00010(12)
O9 O 0.36916(12) 0.29721(13) 0.96864(12)
O10 O 0.34444(11) 0.53913(13) 1.16429(12)
O11 O 0.50368(11) 0.39212(13) 0.89621(12)
O12 O 0.46677(12) 0.41821(14) 1.13700(13)
N9 N 0.32236(10) 0.30056(11) 0.69821(10)
C13 C 0.32133(11) 0.27421(13) 0.62041(10)
N10 N 0.37466(11) 0.20319(12) 0.60760(10)
C14 C 0.41146(11) 0.18339(12) 0.68102(12)
C15 C 0.37885(12) 0.24372(13) 0.73644(10)
N11 N 0.32363(11) 0.49977(13) 0.68989(12)
C16 C 0.40542(12) 0.50658(15) 0.69547(13)
N12 N 0.43556(11) 0.56477(17) 0.63777(16)
C17 C 0.36952(14) 0.59655(16) 0.59324(14)
C18 C 0.30087(11) 0.55613(16) 0.62581(14)
N13 N 0.31470(10) 0.62572(11) 1.32297(10)
C19 C 0.28746(9) 0.69345(13) 1.37110(11)
N14 N 0.35051(11) 0.73219(11) 1.41368(11)
C20 C 0.42146(10) 0.68675(14) 1.39146(13)
C21 C 0.39877(10) 0.62131(13) 1.33558(12)
N15 N 0.30770(11) 0.42515(11) 1.31758(11)
C22 C 0.35338(12) 0.35670(13) 1.28710(10)
N16 N 0.38646(11) 0.30430(11) 1.34757(12)
C23 C 0.36047(13) 0.34136(15) 1.42021(11)
C24 C 0.31200(13) 0.41575(14) 1.40110(11)
H17 H 0.28833 0.30103 0.58009
H18 H 0.38376 0.17558 0.56179
H19 H 0.45100 0.13768 0.69108
H20 H 0.39267 0.24610 0.79168
H21 H 0.43770 0.47548 0.73394
H22 H 0.48674 0.57913 0.63042
H23 H 0.37122 0.63770 0.54934
H24 H 0.24687 0.56526 0.60750
H25 H 0.23235 0.71180 1.37501
H26 H 0.34673 0.77706 1.44830
H27 H 0.47473 0.69831 1.41076
H28 H 0.43464 0.57998 1.30989
H29 H 0.36154 0.34619 1.23154
H30 H 0.41799 0.25655 1.34151
H31 H 0.37339 0.31992 1.47240
H32 H 0.28583 0.45428 1.43877
Ni4_2 Ni 0.25000 0.52946(3) 0.25000
V3A V 0.10431(3) 0.39805(3) 0.57179(3)
V4A V 0.07793(3) 0.51243(3) 0.39692(3)
V4B V 0.57793(3) 0.48757(3) 0.89692(3)
V4C V -0.07793(3) 0.48757(3) 0.60308(3)
O7A O 0.16464(11) 0.41572(13) 0.65159(12)
O8A O 0.11667(12) 0.49179(13) 0.49990(12)
O9A O 0.13084(12) 0.29721(13) 0.53136(12)
O10A O 0.15556(11) 0.53913(13) 0.33571(12)
O10A_2 O 0.15556(11) 0.53913(13) 1.33571(12)
O11A O -0.00368(11) 0.39212(13) 0.60379(12)
O11B O 0.49632(11) 0.60788(13) 1.10379(12)
O11C O 0.00368(11) 0.60788(13) 0.39621(12)
O12A O 0.03323(12) 0.41821(14) 0.36300(13)
N9A N 0.17764(10) 0.30056(11) 0.80179(10)
C13A C 0.17867(11) 0.27421(13) 0.87959(10)
N10A N 0.12534(11) 0.20319(12) 0.89240(10)
C14A C 0.08854(11) 0.18339(12) 0.81898(12)
C15A C 0.12115(12) 0.24372(13) 0.76356(10)
N11A N 0.17637(11) 0.49977(13) 0.81011(12)
C16A C 0.09458(12) 0.50658(15) 0.80453(13)
N12A N 0.06444(11) 0.56477(17) 0.86223(16)
C17A C 0.13048(14) 0.59655(16) 0.90676(14)
C18A C 0.19913(11) 0.55613(16) 0.87419(14)
N13A N 0.18530(10) 0.62572(11) 1.17703(10)
C19A C 0.21254(9) 0.69345(13) 1.12890(11)
N14A N 0.14949(11) 0.73219(11) 1.08632(11)
C20A C 0.07854(10) 0.68675(14) 1.10854(13)
C21A C 0.10123(10) 0.62131(13) 1.16442(12)
N15A N 0.19230(11) 0.42515(11) 1.18242(11)
C22A C 0.14662(12) 0.35670(13) 1.21290(10)
N16A N 0.11354(11) 0.30430(11) 1.15243(12)
C23A C 0.13953(13) 0.34136(15) 1.07979(11)
C24A C 0.18800(13) 0.41575(14) 1.09890(11)
H17A H 0.21167 0.30103 0.91991
H18A H 0.11624 0.17558 0.93821
H19A H 0.04900 0.13768 0.80892
H20A H 0.10733 0.24610 0.70832
H21A H 0.06230 0.47548 0.76606
H22A H 0.01326 0.57913 0.86958
H23A H 0.12878 0.63770 0.95066
H24A H 0.25313 0.56526 0.89250
H25A H 0.26765 0.71180 1.12499
H26A H 0.15327 0.77706 1.05170
H27A H 0.02527 0.69831 1.08924
H28A H 0.06536 0.57998 1.19011
H29A H 0.13846 0.34619 1.26846
H30A H 0.08201 0.25655 1.15849
H31A H 0.12661 0.31992 1.02760
H32A H 0.21417 0.45428 1.06123
loop_
_geom_bond_atom_site_label_1
_geom_bond_atom_site_label_2
_geom_bond_site_symmetry_1
_geom_bond_site_symmetry_2
Ni1 O1 1_555 1_555
Ni2 O4 1_555 1_555
V1 O1 1_555 1_555
V2 O2 1_555 1_555
O2 V1 1_555 1_555
O3 V1 1_555 1_555
O4 V2 1_555 1_555
O5 V1 1_555 1_555
O6 V2 1_555 1_555
N1 Ni1 1_555 1_555
C1 N1 1_555 1_555
N2 C1 1_555 1_555
C2 N2 1_555 1_555
C3 N1 1_555 1_555
N3 Ni1 1_555 1_555
C4 N3 1_555 1_555
N4 C4 1_555 1_555
C5 N4 1_555 1_555
C6 N3 1_555 1_555
N5 Ni2 1_555 1_555
C7 N5 1_555 1_555
N6 C7 1_555 1_555
C8 N6 1_555 1_555
C9 N5 1_555 1_555
N7 Ni2 1_555 1_555
C10 N7 1_555 1_555
N8 C10 1_555 1_555
C11 N8 1_555 1_555
C12 N7 1_555 1_555
H1 C1 1_555 1_555
H2 N2 1_555 1_555
H3 C2 1_555 1_555
H4 C3 1_555 1_555
H5 C4 1_555 1_555
H6 N4 1_555 1_555
H7 C5 1_555 1_555
H8 C6 1_555 1_555
H9 C7 1_555 1_555
H10 N6 1_555 1_555
H11 C8 1_555 1_555
H12 C9 1_555 1_555
H13 C10 1_555 1_555
H14 N8 1_555 1_555
H15 C11 1_555 1_555
H16 C12 1_555 1_555
Ni3 O7 1_555 1_555
Ni4 O10 1_555 1_555
V3 O7 1_555 1_555
V4 O8 1_555 1_555
O8 V3 1_555 1_555
O9 V3 1_555 1_555
O10 V4 1_555 1_555
O11 V3 1_555 1_555
O12 V4 1_555 1_555
N9 Ni3 1_555 1_555
C13 N9 1_555 1_555
N10 C13 1_555 1_555
C14 N10 1_555 1_555
C15 N9 1_555 1_555
N11 Ni3 1_555 1_555
C16 N11 1_555 1_555
N12 C16 1_555 1_555
C17 N12 1_555 1_555
C18 N11 1_555 1_555
N13 Ni4 1_555 1_555
C19 N13 1_555 1_555
N14 C19 1_555 1_555
C20 N14 1_555 1_555
C21 N13 1_555 1_555
N15 Ni4 1_555 1_555
C22 N15 1_555 1_555
N16 C22 1_555 1_555
C23 N16 1_555 1_555
C24 N15 1_555 1_555
H17 C13 1_555 1_555
H18 N10 1_555 1_555
H19 C14 1_555 1_555
H20 C15 1_555 1_555
H21 C16 1_555 1_555
H22 N12 1_555 1_555
H23 C17 1_555 1_555
H24 C18 1_555 1_555
H25 C19 1_555 1_555
H26 N14 1_555 1_555
H27 C20 1_555 1_555
H28 C21 1_555 1_555
H29 C22 1_555 1_555
H30 N16 1_555 1_555
H31 C23 1_555 1_555
H32 C24 1_555 1_555
Ni2_2 O4A 1_555 1_555
V1A O1A 1_555 1_555
V2A O2A 1_555 1_555
V2B O5 1_555 1_555
V2C O5A 1_555 1_555
O1A Ni1 1_555 1_555
O2A V1A 1_555 1_555
O3A V1A 1_555 1_555
O4A V2A 1_555 1_555
O4A_2 Ni2 1_555 1_555
O5A V1A 1_555 1_555
O5B V2 1_555 1_555
O5C V2A 1_555 1_555
O6A V2A 1_555 1_555
N1A Ni1 1_555 1_555
C1A N1A 1_555 1_555
N2A C1A 1_555 1_555
C2A N2A 1_555 1_555
C3A N1A 1_555 1_555
N3A Ni1 1_555 1_555
C4A N3A 1_555 1_555
N4A C4A 1_555 1_555
C5A N4A 1_555 1_555
C6A N3A 1_555 1_555
N5A Ni2 1_555 1_555
C7A N5A 1_555 1_555
N6A C7A 1_555 1_555
C8A N6A 1_555 1_555
C9A N5A 1_555 1_555
N7A Ni2 1_555 1_555
C10A N7A 1_555 1_555
N8A C10A 1_555 1_555
C11A N8A 1_555 1_555
C12A N7A 1_555 1_555
H1A C1A 1_555 1_555
H2A N2A 1_555 1_555
H3A C2A 1_555 1_555
H4A C3A 1_555 1_555
H5A C4A 1_555 1_555
H6A N4A 1_555 1_555
H7A C5A 1_555 1_555
H8A C6A 1_555 1_555
H9A C7A 1_555 1_555
H10A N6A 1_555 1_555
H11A C8A 1_555 1_555
H12A C9A 1_555 1_555
H13A C10A 1_555 1_555
H14A N8A 1_555 1_555
H15A C11A 1_555 1_555
H16A C12A 1_555 1_555
Ni4_2 O10A 1_555 1_555
V3A O7A 1_555 1_555
V4A O8A 1_555 1_555
V4B O11 1_555 1_555
V4C O11A 1_555 1_555
O7A Ni3 1_555 1_555
O8A V3A 1_555 1_555
O9A V3A 1_555 1_555
O10A V4A 1_555 1_555
O10A_2 Ni4 1_555 1_555
O11A V3A 1_555 1_555
O11B V4 1_555 1_555
O11C V4A 1_555 1_555
O12A V4A 1_555 1_555
N9A Ni3 1_555 1_555
C13A N9A 1_555 1_555
N10A C13A 1_555 1_555
C14A N10A 1_555 1_555
C15A N9A 1_555 1_555
N11A Ni3 1_555 1_555
C16A N11A 1_555 1_555
N12A C16A 1_555 1_555
C17A N12A 1_555 1_555
C18A N11A 1_555 1_555
N13A Ni4 1_555 1_555
C19A N13A 1_555 1_555
N14A C19A 1_555 1_555
C20A N14A 1_555 1_555
C21A N13A 1_555 1_555
N15A Ni4 1_555 1_555
C22A N15A 1_555 1_555
N16A C22A 1_555 1_555
C23A N16A 1_555 1_555
C24A N15A 1_555 1_555
H17A C13A 1_555 1_555
H18A N10A 1_555 1_555
H19A C14A 1_555 1_555
H20A C15A 1_555 1_555
H21A C16A 1_555 1_555
H22A N12A 1_555 1_555
H23A C17A 1_555 1_555
H24A C18A 1_555 1_555
H25A C19A 1_555 1_555
H26A N14A 1_555 1_555
H27A C20A 1_555 1_555
H28A C21A 1_555 1_555
H29A C22A 1_555 1_555
H30A N16A 1_555 1_555
H31A C23A 1_555 1_555
H32A C24A 1_555 1_555
C2 C3 1_555 1_555
C5 C6 1_555 1_555
C8 C9 1_555 1_555
C11 C12 1_555 1_555
C14 C15 1_555 1_555
C17 C18 1_555 1_555
C20 C21 1_555 1_555
C23 C24 1_555 1_555
C2A C3A 1_555 1_555
C5A C6A 1_555 1_555
C8A C9A 1_555 1_555
C11A C12A 1_555 1_555
C14A C15A 1_555 1_555
C17A C18A 1_555 1_555
C20A C21A 1_555 1_555
C23A C24A 1_555 1_555

#END
