
#######################################################################
#
#                 Cambridge Crystallographic Data Centre
#                                CCDC 
#
#######################################################################
#
# If this CIF has been generated from an entry in the Cambridge 
# Structural Database, then it will include bibliographic, chemical, 
# crystal, experimental, refinement or atomic coordinate data resulting 
# from the CCDC's data processing and validation procedures.
#
#######################################################################

data_AKIMUD
_symmetry_cell_setting           triclinic
_symmetry_space_group_name_H-M   'P -1'
_symmetry_Int_Tables_number      2
_space_group_name_Hall           '-P 1'
loop_
_symmetry_equiv_pos_site_id
_symmetry_equiv_pos_as_xyz
1 x,y,z
2 -x,-y,-z
_cell_length_a                   9.4367(2)
_cell_length_b                   11.9611(4)
_cell_length_c                   11.9970(4)
_cell_angle_alpha                100.531(2)
_cell_angle_beta                 94.162(2)
_cell_angle_gamma                110.0370(10)
_cell_volume                     1237.28
loop_
_atom_site_label
_atom_site_type_symbol
_atom_site_fract_x
_atom_site_fract_y
_atom_site_fract_z
Tl1 Tl 0.45872(5) 0.24873(3) 0.02737(3)
Au1 Au 0.50000 0.50000 0.00000
Au2 Au 0.50000 0.00000 0.00000
C1 C 0.4445(8) 0.5389(6) 0.1616(6)
C2 C 0.5458(8) 0.5620(6) 0.2609(7)
C3 C 0.5166(9) 0.6026(6) 0.3693(7)
C4 C 0.3818(9) 0.6205(8) 0.3825(8)
C5 C 0.2750(9) 0.5974(8) 0.2869(7)
C6 C 0.3085(8) 0.5559(7) 0.1806(7)
Cl1 Cl 0.7150(3) 0.5350(3) 0.24732(19)
Cl2 Cl 0.6522(3) 0.6348(2) 0.48769(19)
Cl3 Cl 0.3458(4) 0.6755(3) 0.5172(2)
Cl4 Cl 0.1080(3) 0.6226(2) 0.3024(3)
Cl5 Cl 0.1741(2) 0.5292(2) 0.0606(2)
C7 C 0.6336(9) 0.0563(7) 0.1603(7)
C8 C 0.5994(9) -0.0084(7) 0.2466(7)
C9 C 0.6929(11) 0.0200(8) 0.3494(7)
C10 C 0.8312(10) 0.1200(7) 0.3702(8)
C11 C 0.8674(10) 0.1910(8) 0.2883(7)
C12 C 0.7717(10) 0.1558(7) 0.1843(7)
Cl6 Cl 0.4282(3) -0.1324(2) 0.2244(2)
Cl7 Cl 0.6501(4) -0.0664(3) 0.4493(2)
Cl8 Cl 0.9571(4) 0.1544(3) 0.4931(2)
Cl9 Cl 1.0316(3) 0.3192(2) 0.3168(3)
Cl10 Cl 0.8266(3) 0.2425(2) 0.0830(2)
N1 N 0.3437(13) 0.2386(9) 0.2223(8)
H1 H 0.4199 0.2864 0.2788
H2 H 0.2744 0.2748 0.2211
C13 C 0.2723(14) 0.1256(10) 0.2575(10)
H3 H 0.24 0.1434 0.3315
H4 H 0.3466 0.0873 0.2664
C14 C 0.1373(14) 0.0383(10) 0.1738(10)
H5 H 0.1717 0.0132 0.1024
H6 H 0.0687 0.08 0.158
C15 C 0.0492(14) -0.0758(13) 0.2166(13)
H7 H 0.055 -0.0533 0.2991
H8 H 0.0987 -0.1347 0.2002
C16 C -0.126(3) -0.1394(16) 0.1608(18)
H9 H -0.1819 -0.1826 0.2144
H10 H -0.1651 -0.0756 0.1525
N2 N -0.154(2) -0.2083(13) 0.0713(16)
H11 H -0.1471 -0.2793 0.0804
H12 H -0.0878 -0.1772 0.0249
Tl1A Tl 0.54128(5) 0.75127(3) -0.02737(3)
Tl1A_2 Tl 0.54128(5) -0.24873(3) -0.02737(3)
Au2_2 Au 0.50000 1.00000 0.00000
C1A C 0.5555(8) 0.4611(6) -0.1616(6)
C2A C 0.4542(8) 0.4380(6) -0.2609(7)
C3A C 0.4834(9) 0.3974(6) -0.3693(7)
C4A C 0.6182(9) 0.3795(8) -0.3825(8)
C5A C 0.7250(9) 0.4026(8) -0.2869(7)
C6A C 0.6915(8) 0.4441(7) -0.1806(7)
Cl1A Cl 0.2850(3) 0.4650(3) -0.24732(19)
Cl2A Cl 0.3478(3) 0.3652(2) -0.48769(19)
Cl3A Cl 0.6542(4) 0.3245(3) -0.5172(2)
Cl4A Cl 0.8920(3) 0.3774(2) -0.3024(3)
Cl5A Cl 0.8259(2) 0.4708(2) -0.0606(2)
C7A C 0.3664(9) -0.0563(7) -0.1603(7)
C8A C 0.4006(9) 0.0084(7) -0.2466(7)
C9A C 0.3071(11) -0.0200(8) -0.3494(7)
C10A C 0.1688(10) -0.1200(7) -0.3702(8)
C11A C 0.1326(10) -0.1910(8) -0.2883(7)
C12A C 0.2283(10) -0.1558(7) -0.1843(7)
Cl6A Cl 0.5718(3) 0.1324(2) -0.2244(2)
Cl7A Cl 0.3499(4) 0.0664(3) -0.4493(2)
Cl8A Cl 0.0429(4) -0.1544(3) -0.4931(2)
Cl9A Cl -0.0316(3) -0.3192(2) -0.3168(3)
Cl10A Cl 0.1734(3) -0.2425(2) -0.0830(2)
N1A N 0.6563(13) 0.7614(9) -0.2223(8)
H1A H 0.5801 0.7136 -0.2788
H2A H 0.7256 0.7252 -0.2211
C13A C 0.7277(14) 0.8744(10) -0.2575(10)
H3A H 0.76 0.8566 -0.3315
H4A H 0.6534 0.9127 -0.2664
C14A C 0.8627(14) 0.9617(10) -0.1738(10)
H5A H 0.8283 0.9868 -0.1024
H6A H 0.9313 0.92 -0.158
C15A C 0.9508(14) 1.0758(13) -0.2166(13)
H7A H 0.945 1.0533 -0.2991
H8A H 0.9013 1.1347 -0.2002
C16A C 1.126(3) 1.1394(16) -0.1608(18)
H9A H 1.1819 1.1826 -0.2144
H10A H 1.1651 1.0756 -0.1525
N2A N 1.154(2) 1.2083(13) -0.0713(16)
H11A H 1.1471 1.2793 -0.0804
H12A H 1.0878 1.1772 -0.0249
loop_
_geom_bond_atom_site_label_1
_geom_bond_atom_site_label_2
_geom_bond_site_symmetry_1
_geom_bond_site_symmetry_2
Tl1 Au1 1_555 1_555
Au1 C1 1_555 1_555
Au2 Tl1 1_555 1_555
C1 C2 1_555 1_555
C2 C3 1_555 1_555
C3 C4 1_555 1_555
C4 C5 1_555 1_555
C5 C6 1_555 1_555
C6 C1 1_555 1_555
Cl1 C2 1_555 1_555
Cl2 C3 1_555 1_555
Cl3 C4 1_555 1_555
Cl4 C5 1_555 1_555
Cl5 C6 1_555 1_555
C7 Au2 1_555 1_555
C8 C7 1_555 1_555
C9 C8 1_555 1_555
C10 C9 1_555 1_555
C11 C10 1_555 1_555
C12 C7 1_555 1_555
Cl6 C8 1_555 1_555
Cl7 C9 1_555 1_555
Cl8 C10 1_555 1_555
Cl9 C11 1_555 1_555
Cl10 C12 1_555 1_555
N1 Tl1 1_555 1_555
H1 N1 1_555 1_555
H2 N1 1_555 1_555
C13 N1 1_555 1_555
H3 C13 1_555 1_555
H4 C13 1_555 1_555
C14 C13 1_555 1_555
H5 C14 1_555 1_555
H6 C14 1_555 1_555
C15 C14 1_555 1_555
H7 C15 1_555 1_555
H8 C15 1_555 1_555
C16 C15 1_555 1_555
H9 C16 1_555 1_555
H10 C16 1_555 1_555
N2 C16 1_555 1_555
H11 N2 1_555 1_555
H12 N2 1_555 1_555
Tl1A Au1 1_555 1_555
Tl1A_2 Au2 1_555 1_555
Au2_2 Tl1A 1_555 1_555
C1A Au1 1_555 1_555
C2A C1A 1_555 1_555
C3A C2A 1_555 1_555
C4A C3A 1_555 1_555
C5A C4A 1_555 1_555
C6A C1A 1_555 1_555
Cl1A C2A 1_555 1_555
Cl2A C3A 1_555 1_555
Cl3A C4A 1_555 1_555
Cl4A C5A 1_555 1_555
Cl5A C6A 1_555 1_555
C7A Au2 1_555 1_555
C8A C7A 1_555 1_555
C9A C8A 1_555 1_555
C10A C9A 1_555 1_555
C11A C10A 1_555 1_555
C12A C7A 1_555 1_555
Cl6A C8A 1_555 1_555
Cl7A C9A 1_555 1_555
Cl8A C10A 1_555 1_555
Cl9A C11A 1_555 1_555
Cl10A C12A 1_555 1_555
N1A Tl1A 1_555 1_555
H1A N1A 1_555 1_555
H2A N1A 1_555 1_555
C13A N1A 1_555 1_555
H3A C13A 1_555 1_555
H4A C13A 1_555 1_555
C14A C13A 1_555 1_555
H5A C14A 1_555 1_555
H6A C14A 1_555 1_555
C15A C14A 1_555 1_555
H7A C15A 1_555 1_555
H8A C15A 1_555 1_555
C16A C15A 1_555 1_555
H9A C16A 1_555 1_555
H10A C16A 1_555 1_555
N2A C16A 1_555 1_555
H11A N2A 1_555 1_555
H12A N2A 1_555 1_555
C11 C12 1_555 1_555
C5A C6A 1_555 1_555
C11A C12A 1_555 1_555

#END
