
#######################################################################
#
#                 Cambridge Crystallographic Data Centre
#                                CCDC 
#
#######################################################################
#
# If this CIF has been generated from an entry in the Cambridge 
# Structural Database, then it will include bibliographic, chemical, 
# crystal, experimental, refinement or atomic coordinate data resulting 
# from the CCDC's data processing and validation procedures.
#
#######################################################################

data_AKIQIU
_symmetry_cell_setting           triclinic
_symmetry_space_group_name_H-M   'P -1'
_symmetry_Int_Tables_number      2
_space_group_name_Hall           '-P 1'
loop_
_symmetry_equiv_pos_site_id
_symmetry_equiv_pos_as_xyz
1 x,y,z
2 -x,-y,-z
_cell_length_a                   7.4990(10)
_cell_length_b                   10.2700(10)
_cell_length_c                   10.4900(10)
_cell_angle_alpha                97.650(10)
_cell_angle_beta                 106.800(10)
_cell_angle_gamma                100.570(10)
_cell_volume                     745.26
loop_
_atom_site_label
_atom_site_type_symbol
_atom_site_fract_x
_atom_site_fract_y
_atom_site_fract_z
Co1 Co 0.71530(4) 0.69178(3) 0.71243(3)
N1 N 0.8862(3) 0.8925(2) 0.7818(2)
N2 N 0.5133(3) 0.8100(2) 0.6388(2)
C1 C 1.0718(4) 0.9309(3) 0.8498(3)
H1 H 1.1424 0.8652 0.8609
C2 C 1.1658(5) 1.0657(4) 0.9053(3)
H2 H 1.2968 1.0891 0.9517
C3 C 1.0637(5) 1.1624(3) 0.8908(3)
H3 H 1.1237 1.2524 0.9303
C4 C 0.8674(5) 1.1262(3) 0.8161(3)
C5 C 0.7509(6) 1.2211(3) 0.7917(4)
H4 H 0.8048 1.3126 0.8268
C6 C 0.5636(6) 1.1799(3) 0.7183(4)
H5 H 0.4909 1.2440 0.7029
C7 C 0.4734(5) 1.0401(3) 0.6636(3)
C8 C 0.2791(5) 0.9909(4) 0.5871(4)
H6 H 0.1994 1.0503 0.5688
C9 C 0.2083(5) 0.8559(4) 0.5400(4)
H7 H 0.0797 0.8222 0.4891
C10 C 0.3299(4) 0.7678(3) 0.5685(3)
H8 H 0.2790 0.6755 0.5366
C11 C 0.5854(4) 0.9440(3) 0.6868(3)
C12 C 0.7853(4) 0.9883(3) 0.7627(2)
O1 O 0.5653(3) 0.66039(18) 0.86066(18)
O2 O 0.5034(3) 0.50873(19) 0.67713(19)
C13 C 0.4726(3) 0.5483(2) 0.7869(2)
C14 C 0.3295(3) 0.4569(2) 0.8309(3)
H9 H 0.3975 0.4116 0.8982
H10 H 0.2467 0.3881 0.7532
C15 C 0.2071(3) 0.5334(3) 0.8905(2)
H11 H 0.1494 0.4785 0.9431
H12 H 0.2887 0.6157 0.9518
C16 C 0.0501(4) 0.5692(3) 0.7828(3)
O3 O 0.0517(4) 0.5530(4) 0.6642(2)
O4 O -0.0708(3) 0.6167(2) 0.8241(2)
O5 O 0.7792(3) 0.6602(2) 0.5319(2)
H13 H 0.696(7) 0.610(5) 0.465(5)
H14 H 0.856(7) 0.622(5) 0.550(5)
O4_2 O 0.9292(3) 0.6167(2) 0.8241(2)
Co1_2 Co -0.28470(4) 0.69178(3) 0.71243(3)
loop_
_geom_bond_atom_site_label_1
_geom_bond_atom_site_label_2
_geom_bond_site_symmetry_1
_geom_bond_site_symmetry_2
Co1 N1 1_555 1_555
N1 C1 1_555 1_555
N2 Co1 1_555 1_555
C1 H1 1_555 1_555
C2 C1 1_555 1_555
H2 C2 1_555 1_555
C3 C2 1_555 1_555
H3 C3 1_555 1_555
C4 C3 1_555 1_555
C5 C4 1_555 1_555
H4 C5 1_555 1_555
C6 C5 1_555 1_555
H5 C6 1_555 1_555
C7 C6 1_555 1_555
C8 C7 1_555 1_555
H6 C8 1_555 1_555
C9 C8 1_555 1_555
H7 C9 1_555 1_555
C10 N2 1_555 1_555
H8 C10 1_555 1_555
C11 N2 1_555 1_555
C12 N1 1_555 1_555
O1 Co1 1_555 1_555
O2 Co1 1_555 1_555
C13 O1 1_555 1_555
C14 C13 1_555 1_555
H9 C14 1_555 1_555
H10 C14 1_555 1_555
C15 C14 1_555 1_555
H11 C15 1_555 1_555
H12 C15 1_555 1_555
C16 C15 1_555 1_555
O3 C16 1_555 1_555
O4 C16 1_555 1_555
O5 Co1 1_555 1_555
H13 O5 1_555 1_555
H14 O5 1_555 1_555
O4_2 Co1 1_555 1_555
Co1_2 O4 1_555 1_555
C4 C12 1_555 1_555
C7 C11 1_555 1_555
C9 C10 1_555 1_555
C11 C12 1_555 1_555
O2 C13 1_555 1_555

#END
