
#######################################################################
#
#                 Cambridge Crystallographic Data Centre
#                                CCDC 
#
#######################################################################
#
# If this CIF has been generated from an entry in the Cambridge 
# Structural Database, then it will include bibliographic, chemical, 
# crystal, experimental, refinement or atomic coordinate data resulting 
# from the CCDC's data processing and validation procedures.
#
#######################################################################

data_AKIQUG
_symmetry_cell_setting           monoclinic
_symmetry_space_group_name_H-M   'P 21/c'
_symmetry_Int_Tables_number      14
_space_group_name_Hall           '-P 2ybc'
loop_
_symmetry_equiv_pos_site_id
_symmetry_equiv_pos_as_xyz
1 x,y,z
2 -x,1/2+y,1/2-z
3 -x,-y,-z
4 x,1/2-y,1/2+z
_cell_length_a                   20.924(3)
_cell_length_b                   6.667(2)
_cell_length_c                   20.107(2)
_cell_angle_alpha                90
_cell_angle_beta                 95.210(10)
_cell_angle_gamma                90
_cell_volume                     2793.34
loop_
_atom_site_label
_atom_site_type_symbol
_atom_site_fract_x
_atom_site_fract_y
_atom_site_fract_z
Mn1 Mn 0.13251(2) 1.13569(8) -0.12255(3)
S1 S 0.16578(4) 1.63616(13) -0.09110(4)
N1 N 0.02537(13) 1.1471(4) -0.13164(14)
N2 N 0.10099(13) 1.1293(4) -0.23098(13)
C1 C -0.00984(19) 1.1545(6) -0.0792(2)
C2 C -0.0761(2) 1.1537(7) -0.0864(3)
C3 C -0.10674(19) 1.1417(7) -0.1494(3)
C4 C -0.07148(18) 1.1341(6) -0.2041(2)
C5 C -0.00468(16) 1.1383(5) -0.19345(18)
C6 C 0.03723(16) 1.1356(5) -0.24914(17)
C7 C 0.0140(2) 1.1397(6) -0.31657(18)
C8 C 0.0563(2) 1.1420(7) -0.3647(2)
C9 C 0.1213(2) 1.1366(7) -0.34574(19)
C10 C 0.14186(19) 1.1300(6) -0.27936(19)
O1 O 0.23295(13) 1.0828(5) -0.13631(16)
O2 O 0.14369(14) 1.1937(5) -0.01458(14)
O3 O 0.14152(13) 1.4642(4) -0.13152(11)
O4 O 0.16449(12) 1.5889(4) -0.01992(12)
O5 O 0.23246(12) 1.6783(4) -0.10506(14)
O6 O 0.12562(12) 1.8122(4) -0.10865(15)
H1 H 0.0134(15) 1.158(5) -0.0358(17)
H2 H -0.095(2) 1.165(7) -0.055(2)
H3 H -0.151(2) 1.141(6) -0.158(2)
H4 H -0.090(2) 1.123(7) -0.247(2)
H5 H -0.0296(18) 1.156(6) -0.3283(18)
H6 H 0.0427(18) 1.151(6) -0.413(2)
H7 H 0.152(2) 1.148(8) -0.379(3)
H8 H 0.1881(18) 1.121(6) -0.2599(18)
H9 H 0.257(2) 1.157(8) -0.102(2)
H10 H 0.2448(19) 0.966(7) -0.131(2)
H11 H 0.149(2) 1.335(9) -0.010(2)
H12 H 0.174(2) 1.148(8) 0.006(2)
O6_2 O 0.12562(12) 0.8122(4) -0.10865(15)
Mn1_2 Mn 0.13251(2) 2.13569(8) -0.12255(3)
Mn2 Mn 0.35502(2) 0.68197(8) 0.11501(3)
S2 S 0.31072(4) 1.18607(13) 0.12092(4)
N3 N 0.41337(14) 0.7403(5) 0.02733(15)
N4 N 0.45883(14) 0.6590(5) 0.15243(16)
C11 C 0.3877(2) 0.7776(7) -0.0347(2)
C12 C 0.4257(3) 0.8044(8) -0.0875(3)
C13 C 0.4905(3) 0.7916(7) -0.0757(3)
C14 C 0.5168(3) 0.7569(7) -0.0128(3)
C15 C 0.47736(18) 0.7314(5) 0.0387(2)
C16 C 0.50282(17) 0.6938(6) 0.1090(2)
C17 C 0.5679(2) 0.6917(8) 0.1296(3)
C18 C 0.5878(2) 0.6500(8) 0.1949(3)
C19 C 0.5435(3) 0.6082(8) 0.2381(3)
C20 C 0.4792(2) 0.6158(7) 0.2162(2)
O7 O 0.26263(17) 0.7333(6) 0.0650(2)
O8 O 0.32673(16) 0.6241(6) 0.21435(15)
O9 O 0.35330(11) 1.0119(4) 0.13126(12)
O10 O 0.34708(14) 1.3568(4) 0.09650(14)
O11 O 0.25859(14) 1.1356(5) 0.07010(16)
O12 O 0.28538(13) 1.2420(4) 0.18423(14)
H13 H 0.3466(19) 0.796(6) -0.0418(19)
H14 H 0.403(2) 0.814(7) -0.124(2)
H15 H 0.520(3) 0.815(8) -0.110(3)
H16 H 0.563(3) 0.751(9) 0.000(3)
H17 H 0.593(2) 0.721(8) 0.099(2)
H18 H 0.633(2) 0.644(7) 0.208(2)
H19 H 0.557(2) 0.570(8) 0.283(3)
H20 H 0.447(2) 0.575(7) 0.248(2)
H21 H 0.256(2) 0.848(8) 0.060(2)
H22 H 0.238(2) 0.694(7) 0.044(2)
H23 H 0.302(3) 0.706(9) 0.227(3)
H24 H 0.309(3) 0.516(9) 0.211(3)
O10_2 O 0.34708(14) 0.3568(4) 0.09650(14)
Mn2_2 Mn 0.35502(2) 1.68197(8) 0.11501(3)
O13 O 0.2476(2) 0.9042(7) 0.2542(2)
H25 H 0.245(2) 0.913(8) 0.293(3)
H26 H 0.257(3) 1.003(10) 0.240(3)
O14 O 0.30354(14) 1.3343(5) -0.05459(17)
H27 H 0.292(3) 1.456(9) -0.060(3)
H28 H 0.305(2) 1.331(8) -0.015(3)
loop_
_geom_bond_atom_site_label_1
_geom_bond_atom_site_label_2
_geom_bond_site_symmetry_1
_geom_bond_site_symmetry_2
Mn1 N1 1_555 1_555
S1 O3 1_555 1_555
N1 C1 1_555 1_555
N2 Mn1 1_555 1_555
C1 C2 1_555 1_555
C2 C3 1_555 1_555
C3 C4 1_555 1_555
C4 C5 1_555 1_555
C5 N1 1_555 1_555
C6 N2 1_555 1_555
C7 C6 1_555 1_555
C8 C7 1_555 1_555
C9 C8 1_555 1_555
C10 N2 1_555 1_555
O1 Mn1 1_555 1_555
O2 Mn1 1_555 1_555
O3 Mn1 1_555 1_555
O4 S1 1_555 1_555
O5 S1 1_555 1_555
O6 S1 1_555 1_555
H1 C1 1_555 1_555
H2 C2 1_555 1_555
H3 C3 1_555 1_555
H4 C4 1_555 1_555
H5 C7 1_555 1_555
H6 C8 1_555 1_555
H7 C9 1_555 1_555
H8 C10 1_555 1_555
H9 O1 1_555 1_555
H10 O1 1_555 1_555
H11 O2 1_555 1_555
H12 O2 1_555 1_555
Mn2 N3 1_555 1_555
S2 O9 1_555 1_555
N3 C11 1_555 1_555
N4 Mn2 1_555 1_555
C11 C12 1_555 1_555
C12 C13 1_555 1_555
C13 C14 1_555 1_555
C14 C15 1_555 1_555
C15 N3 1_555 1_555
C16 N4 1_555 1_555
C17 C16 1_555 1_555
C18 C17 1_555 1_555
C19 C18 1_555 1_555
C20 N4 1_555 1_555
O7 Mn2 1_555 1_555
O8 Mn2 1_555 1_555
O9 Mn2 1_555 1_555
O10 S2 1_555 1_555
O11 S2 1_555 1_555
O12 S2 1_555 1_555
H13 C11 1_555 1_555
H14 C12 1_555 1_555
H15 C13 1_555 1_555
H16 C14 1_555 1_555
H17 C17 1_555 1_555
H18 C18 1_555 1_555
H19 C19 1_555 1_555
H20 C20 1_555 1_555
H21 O7 1_555 1_555
H22 O7 1_555 1_555
H23 O8 1_555 1_555
H24 O8 1_555 1_555
O13 H25 1_555 1_555
H26 O13 1_555 1_555
O14 H27 1_555 1_555
H28 O14 1_555 1_555
O6_2 Mn1 1_555 1_555
Mn1_2 O6 1_555 1_555
O10_2 Mn2 1_555 1_555
Mn2_2 O10 1_555 1_555
C5 C6 1_555 1_555
C9 C10 1_555 1_555
C15 C16 1_555 1_555
C19 C20 1_555 1_555

#END
