
#######################################################################
#
#                 Cambridge Crystallographic Data Centre
#                                CCDC 
#
#######################################################################
#
# If this CIF has been generated from an entry in the Cambridge 
# Structural Database, then it will include bibliographic, chemical, 
# crystal, experimental, refinement or atomic coordinate data resulting 
# from the CCDC's data processing and validation procedures.
#
#######################################################################

data_AKIQIU01
_symmetry_cell_setting           triclinic
_symmetry_space_group_name_H-M   'P -1'
_symmetry_Int_Tables_number      2
_space_group_name_Hall           '-P 1'
loop_
_symmetry_equiv_pos_site_id
_symmetry_equiv_pos_as_xyz
1 x,y,z
2 -x,-y,-z
_cell_length_a                   7.5222(6)
_cell_length_b                   10.3016(8)
_cell_length_c                   10.5214(8)
_cell_angle_alpha                97.6240(10)
_cell_angle_beta                 106.7870(10)
_cell_angle_gamma                100.5830(10)
_cell_volume                     752.2
loop_
_atom_site_label
_atom_site_type_symbol
_atom_site_fract_x
_atom_site_fract_y
_atom_site_fract_z
Co1 Co 0.78474(6) 0.30828(4) 0.78768(4)
N1 N 0.6143(3) 0.1076(2) 0.7184(2)
N2 N 0.9862(3) 0.1903(3) 0.8609(2)
O1 O 0.5711(3) 0.3829(2) 0.6762(2)
O2 O 0.4484(4) 0.4474(3) 0.8355(2)
O3 O -0.0652(3) 0.3397(2) 0.6393(2)
O4 O -0.0028(3) 0.4909(2) 0.8231(2)
O5 O 0.7204(4) 0.3396(2) 0.9677(2)
C1 C 0.4493(4) 0.4309(3) 0.7174(3)
C2 C 0.2931(4) 0.4669(3) 0.6098(3)
H1 H 0.2123 0.3849 0.5483
H2 H 0.3511 0.5222 0.5580
C3 C 0.1699(4) 0.5425(3) 0.6691(3)
H3 H 0.2520 0.6111 0.7466
H4 H 0.1022 0.5876 0.6019
C4 C 0.0266(4) 0.4513(3) 0.7128(3)
C5 C 0.4278(5) 0.0682(4) 0.6503(3)
H5 H 0.3568 0.1333 0.6395
C6 C 0.3356(5) -0.0648(4) 0.5951(3)
H6 H 0.2052 -0.0880 0.5485
C7 C 0.4362(6) -0.1621(4) 0.6090(3)
H7 H 0.3757 -0.2516 0.5694
C8 C 0.6327(5) -0.1265(3) 0.6838(3)
C9 C 0.7494(6) -0.2208(4) 0.7089(4)
H8 H 0.6954 -0.3121 0.6745
C10 C 0.9367(6) -0.1800(4) 0.7815(4)
H9 H 1.0094 -0.2438 0.7967
C11 C 1.0257(5) -0.0401(4) 0.8357(3)
C12 C 1.2189(5) 0.0094(4) 0.9129(4)
H10 H 1.2977 -0.0501 0.9317
C13 C 1.2916(5) 0.1440(4) 0.9604(4)
H11 H 1.4200 0.1770 1.0109
C14 C 1.1709(5) 0.2319(4) 0.9323(3)
H12 H 1.2219 0.3238 0.9649
C15 C 0.9150(4) 0.0558(3) 0.8133(3)
C16 C 0.7151(4) 0.0113(3) 0.7375(3)
H13 H 0.808(5) 0.387(3) 1.032(3)
H14 H 0.642(6) 0.390(4) 0.944(4)
Co1_2 Co -0.21526(6) 0.30828(4) 0.78768(4)
O3_2 O 0.9348(3) 0.3397(2) 0.6393(2)
O4_2 O 0.9972(3) 0.4909(2) 0.8231(2)
loop_
_geom_bond_atom_site_label_1
_geom_bond_atom_site_label_2
_geom_bond_site_symmetry_1
_geom_bond_site_symmetry_2
Co1 N1 1_555 1_555
N1 C5 1_555 1_555
N2 Co1 1_555 1_555
O1 Co1 1_555 1_555
O2 C1 1_555 1_555
O3 C4 1_555 1_555
O4 C4 1_555 1_555
O5 Co1 1_555 1_555
C1 O1 1_555 1_555
C2 C1 1_555 1_555
H1 C2 1_555 1_555
H2 C2 1_555 1_555
C3 C2 1_555 1_555
H3 C3 1_555 1_555
H4 C3 1_555 1_555
C4 C3 1_555 1_555
C5 H5 1_555 1_555
C6 C5 1_555 1_555
H6 C6 1_555 1_555
C7 C6 1_555 1_555
H7 C7 1_555 1_555
C8 C7 1_555 1_555
C9 C8 1_555 1_555
H8 C9 1_555 1_555
C10 C9 1_555 1_555
H9 C10 1_555 1_555
C11 C10 1_555 1_555
C12 C11 1_555 1_555
H10 C12 1_555 1_555
C13 C12 1_555 1_555
H11 C13 1_555 1_555
C14 N2 1_555 1_555
H12 C14 1_555 1_555
C15 N2 1_555 1_555
C16 N1 1_555 1_555
H13 O5 1_555 1_555
H14 O5 1_555 1_555
Co1_2 O3 1_555 1_555
O3_2 Co1 1_555 1_555
O4_2 Co1 1_555 1_555
O4 Co1_2 1_555 1_555
C8 C16 1_555 1_555
C11 C15 1_555 1_555
C13 C14 1_555 1_555
C15 C16 1_555 1_555

#END
