
#######################################################################
#
#                 Cambridge Crystallographic Data Centre
#                                CCDC 
#
#######################################################################
#
# If this CIF has been generated from an entry in the Cambridge 
# Structural Database, then it will include bibliographic, chemical, 
# crystal, experimental, refinement or atomic coordinate data resulting 
# from the CCDC's data processing and validation procedures.
#
#######################################################################

data_AKIWAS
_symmetry_cell_setting           monoclinic
_symmetry_space_group_name_H-M   'C 2/c'
_symmetry_Int_Tables_number      15
_space_group_name_Hall           '-C 2yn'
loop_
_symmetry_equiv_pos_site_id
_symmetry_equiv_pos_as_xyz
1 x,y,z
2 1/2+x,1/2+y,z
3 x,-y,1/2+z
4 1/2+x,1/2-y,1/2+z
5 -x,-y,-z
6 1/2-x,1/2-y,-z
7 -x,y,1/2-z
8 1/2-x,1/2+y,1/2-z
_cell_length_a                   27.211(9)
_cell_length_b                   9.567(3)
_cell_length_c                   18.565(7)
_cell_angle_alpha                90
_cell_angle_beta                 111.818(6)
_cell_angle_gamma                90
_cell_volume                     4486.79
loop_
_atom_site_label
_atom_site_type_symbol
_atom_site_fract_x
_atom_site_fract_y
_atom_site_fract_z
Cu1 Cu 0.07830(5) 0.61848(14) 1.18138(7)
Cu2 Cu 0.07719(5) 1.11201(14) 1.11782(7)
Cu3 Cu 0.25250(11) 0.8966(3) 0.85889(17)
O1 O 0.0742(3) 0.6793(8) 1.0793(4)
O2 O 0.1425(4) 0.5428(10) 1.0986(5)
O3 O 0.0749(3) 1.0030(7) 1.0267(4)
O4 O 0.1497(3) 0.9151(7) 1.1108(4)
O5 O 0.1005(4) 1.0990(8) 0.8390(5)
O6 O 0.1545(3) 1.1079(7) 0.9621(5)
O7 O 0.0856(3) 0.8262(8) 0.7202(4)
O8 O 0.1649(3) 0.9189(7) 0.7777(5)
O9 O 0.0908(3) 0.4587(9) 0.7831(4)
O10 O 0.1548(3) 0.5806(9) 0.7656(5)
O11 O 0.0742(3) 0.3929(8) 0.9379(5)
O12 O 0.1581(3) 0.3725(8) 0.9514(4)
O13 O 0.1313(3) 0.7644(8) 1.2313(4)
O14 O 0.0072(3) 0.7598(8) 1.1783(4)
O15 O 0.0252(3) 0.4734(8) 1.1371(4)
O16 O 0.0085(3) 1.0209(9) 1.1119(5)
O17 O 0.1365(3) 1.2319(8) 1.1179(5)
O18 O 0.0258(3) 1.2810(8) 1.0289(4)
O19 O 0.2559(6) 0.7257(18) 0.8068(10)
O20 O 0.2500(5) 0.8051(14) 0.9443(9)
O21 O 0.2525(3) 1.0634(12) 0.8955(6)
O22 O 0.2617(5) 0.9829(19) 0.7692(9)
C1 C 0.1177(4) 0.6882(11) 0.9889(6)
C2 C 0.1190(4) 0.8301(11) 0.9801(6)
C3 C 0.1220(4) 0.8859(11) 0.9105(7)
C4 C 0.1266(4) 0.8028(11) 0.8553(6)
C5 C 0.1233(4) 0.6512(10) 0.8648(6)
C6 C 0.1198(4) 0.5939(11) 0.9297(6)
C7 C 0.1115(4) 0.6267(11) 1.0618(6)
C8 C 0.1169(4) 0.9261(12) 1.0430(6)
C9 C 0.1252(5) 1.0458(12) 0.9027(7)
C10 C 0.1274(4) 0.8561(13) 0.7796(7)
C11 C 0.1253(5) 0.5566(12) 0.8006(7)
C12 C 0.1153(5) 0.4458(12) 0.9378(6)
O9B O 0.0908(3) 0.5413(9) 1.2831(4)
O7B O 0.0856(3) 1.1738(8) 1.2202(4)
Cu2B Cu 0.07719(5) 0.88799(14) 0.61782(7)
Cu1B Cu 0.07830(5) 0.38152(14) 0.68138(7)
O23 O 0.2429(5) 0.1703(11) 0.1437(8)
O24 O 0.2533(7) 0.9915(13) 0.0512(7)
loop_
_geom_bond_atom_site_label_1
_geom_bond_atom_site_label_2
_geom_bond_site_symmetry_1
_geom_bond_site_symmetry_2
Cu1 O1 1_555 1_555
Cu2 O3 1_555 1_555
Cu3 O8 1_555 1_555
O1 C7 1_555 1_555
O2 C7 1_555 1_555
O3 C8 1_555 1_555
O4 C8 1_555 1_555
O5 C9 1_555 1_555
O6 C9 1_555 1_555
O7 C10 1_555 1_555
O8 C10 1_555 1_555
O9 C11 1_555 1_555
O10 C11 1_555 1_555
O11 C12 1_555 1_555
O12 C12 1_555 1_555
O13 Cu1 1_555 1_555
O14 Cu1 1_555 1_555
O15 Cu1 1_555 1_555
O16 Cu2 1_555 1_555
O17 Cu2 1_555 1_555
O18 Cu2 1_555 1_555
O19 Cu3 1_555 1_555
O20 Cu3 1_555 1_555
O21 Cu3 1_555 1_555
O22 Cu3 1_555 1_555
C1 C2 1_555 1_555
C2 C3 1_555 1_555
C3 C4 1_555 1_555
C4 C5 1_555 1_555
C5 C6 1_555 1_555
C6 C1 1_555 1_555
C7 C1 1_555 1_555
C8 C2 1_555 1_555
C9 C3 1_555 1_555
C10 C4 1_555 1_555
C11 C5 1_555 1_555
C12 C6 1_555 1_555
O9B Cu1 1_555 1_555
O7B Cu2 1_555 1_555
Cu2B O7 1_555 1_555
Cu1B O9 1_555 1_555

#END
