
#######################################################################
#
#                 Cambridge Crystallographic Data Centre
#                                CCDC 
#
#######################################################################
#
# If this CIF has been generated from an entry in the Cambridge 
# Structural Database, then it will include bibliographic, chemical, 
# crystal, experimental, refinement or atomic coordinate data resulting 
# from the CCDC's data processing and validation procedures.
#
#######################################################################

data_AKIXEX02
_symmetry_cell_setting           triclinic
_symmetry_space_group_name_H-M   'P -1'
_symmetry_Int_Tables_number      2
_space_group_name_Hall           '-P 1'
loop_
_symmetry_equiv_pos_site_id
_symmetry_equiv_pos_as_xyz
1 x,y,z
2 -x,-y,-z
_cell_length_a                   7.7774(16)
_cell_length_b                   9.855(2)
_cell_length_c                   7.1902(14)
_cell_angle_alpha                92.11(3)
_cell_angle_beta                 108.59(3)
_cell_angle_gamma                79.32(3)
_cell_volume                     513.153
loop_
_atom_site_label
_atom_site_type_symbol
_atom_site_fract_x
_atom_site_fract_y
_atom_site_fract_z
Zn1 Zn 1.0000 0.0000 1.0000
N1 N 0.8099(3) 0.1907(2) 0.9750(4)
O1 O 1.1614(3) 0.0612(3) 1.2678(4)
O2 O 0.8512(3) -0.0891(3) 1.1581(4)
C1 C 0.8704(4) 0.3080(3) 1.0366(5)
H1 H 0.9966 0.3073 1.0741
C2 C 0.7546(4) 0.4301(3) 1.0473(5)
H2 H 0.8034 0.5093 1.0901
C3 C 0.5648(4) 0.4356(3) 0.9943(4)
C4 C 0.5034(4) 0.3127(3) 0.9312(5)
H3 H 0.3781 0.3099 0.8948
C5 C 0.6277(4) 0.1953(3) 0.9224(5)
H4 H 0.5825 0.1150 0.8776
H5 H 0.813(6) -0.031(5) 1.219(7)
H6 H 1.194(6) 0.005(4) 1.364(7)
H7 H 1.240(7) 0.108(6) 1.277(11)
H8 H 0.923(6) -0.163(5) 1.231(7)
C3A C 0.4352(4) 0.5644(3) 1.0057(4)
C2A C 0.2454(4) 0.5699(3) 0.9527(5)
C1A C 0.1296(4) 0.6920(3) 0.9634(5)
N1A N 0.1901(3) 0.8093(2) 1.0250(4)
C5A C 0.3723(4) 0.8047(3) 1.0776(5)
C4A C 0.4966(4) 0.6873(3) 1.0688(5)
H3A H 0.6219 0.6901 1.1052
H4A H 0.4175 0.8850 1.1224
H1A H 0.0034 0.6927 0.9259
H2A H 0.1966 0.4907 0.9099
O1A O 0.8386(3) -0.0612(3) 0.7322(4)
H6A H 0.806(6) -0.005(4) 0.636(7)
H7A H 0.760(7) -0.108(6) 0.723(11)
O2A O 1.1488(3) 0.0891(3) 0.8419(4)
H5A H 1.187(6) 0.031(5) 0.781(7)
H8A H 1.077(6) 0.163(5) 0.769(7)
N1A_2 N 1.1901(3) -0.1907(2) 1.0250(4)
Zn1_2 Zn 0.0000 1.0000 1.0000
O3 O 1.3955(3) 0.2300(2) 1.3483(4)
O4 O 1.2035(3) 0.4130(2) 1.3991(4)
C6 C 1.3598(4) 0.3522(3) 1.4022(5)
C7 C 1.5237(4) 0.4249(3) 1.4769(5)
H9 H 1.576(5) 0.417(4) 1.375(6)
H10 H 1.614(5) 0.366(3) 1.588(5)
C7A C 1.4763(4) 0.5751(3) 1.5231(5)
C6A C 1.6402(4) 0.6478(3) 1.5978(5)
O3A O 1.6045(3) 0.7700(2) 1.6517(4)
O4A O 1.7965(3) 0.5870(2) 1.6009(4)
H9A H 1.424(5) 0.583(4) 1.625(6)
H10A H 1.386(5) 0.634(3) 1.412(5)
O5 O 1.0170(4) -0.3139(3) 1.4237(5)
H11 H 1.075(7) -0.379(5) 1.417(8)
H12 H 0.932(8) -0.333(6) 1.472(9)
O6 O 0.7514(4) 0.1086(3) 1.4062(4)
H13 H 0.649(7) 0.152(5) 1.391(7)
H14 H 0.817(6) 0.167(5) 1.434(7)
loop_
_geom_bond_atom_site_label_1
_geom_bond_atom_site_label_2
_geom_bond_site_symmetry_1
_geom_bond_site_symmetry_2
Zn1 N1 1_555 1_555
N1 C1 1_555 1_555
O1 Zn1 1_555 1_555
O2 Zn1 1_555 1_555
C1 H1 1_555 1_555
C2 C1 1_555 1_555
H2 C2 1_555 1_555
C3 C2 1_555 1_555
C4 C3 1_555 1_555
H3 C4 1_555 1_555
C5 N1 1_555 1_555
H4 C5 1_555 1_555
H5 O2 1_555 1_555
H6 O1 1_555 1_555
H7 O1 1_555 1_555
H8 O2 1_555 1_555
O3 C6 1_555 1_555
O4 C6 1_555 1_555
C6 C7 1_555 1_555
C7 H9 1_555 1_555
H10 C7 1_555 1_555
O5 H11 1_555 1_555
H12 O5 1_555 1_555
O6 H13 1_555 1_555
H14 O6 1_555 1_555
C3A C3 1_555 1_555
C2A C3A 1_555 1_555
C1A C2A 1_555 1_555
N1A C1A 1_555 1_555
C5A N1A 1_555 1_555
C4A C3A 1_555 1_555
H3A C4A 1_555 1_555
H4A C5A 1_555 1_555
H1A C1A 1_555 1_555
H2A C2A 1_555 1_555
O1A Zn1 1_555 1_555
H6A O1A 1_555 1_555
H7A O1A 1_555 1_555
O2A Zn1 1_555 1_555
H5A O2A 1_555 1_555
H8A O2A 1_555 1_555
N1A_2 Zn1 1_555 1_555
Zn1_2 N1A 1_555 1_555
C7A C7 1_555 1_555
C6A C7A 1_555 1_555
O3A C6A 1_555 1_555
O4A C6A 1_555 1_555
H9A C7A 1_555 1_555
H10A C7A 1_555 1_555
C4 C5 1_555 1_555
C5A C4A 1_555 1_555

#END
