
#######################################################################
#
#                 Cambridge Crystallographic Data Centre
#                                CCDC 
#
#######################################################################
#
# If this CIF has been generated from an entry in the Cambridge 
# Structural Database, then it will include bibliographic, chemical, 
# crystal, experimental, refinement or atomic coordinate data resulting 
# from the CCDC's data processing and validation procedures.
#
#######################################################################

data_AKIXIB
_symmetry_cell_setting           triclinic
_symmetry_space_group_name_H-M   'P -1'
_symmetry_Int_Tables_number      2
_space_group_name_Hall           '-P 1'
loop_
_symmetry_equiv_pos_site_id
_symmetry_equiv_pos_as_xyz
1 x,y,z
2 -x,-y,-z
_cell_length_a                   4.8740(10)
_cell_length_b                   6.3290(10)
_cell_length_c                   10.5600(10)
_cell_angle_alpha                76.780(10)
_cell_angle_beta                 87.790(10)
_cell_angle_gamma                76.970(10)
_cell_volume                     308.923
loop_
_atom_site_label
_atom_site_type_symbol
_atom_site_fract_x
_atom_site_fract_y
_atom_site_fract_z
Ni1 Ni 0.5000 0.0000 0.5000
O1 O 0.2680(2) -0.09757(17) 0.37172(10)
O2 O 0.5786(2) -0.38670(18) 0.32671(11)
O3 O 0.1865(2) 0.28071(17) 0.48422(10)
O4 O 0.2953(2) -0.15977(18) 0.65685(11)
C1 C 0.3571(3) -0.2403(2) 0.30256(13)
C2 C 0.1817(3) -0.2198(2) 0.18355(15)
H1 H 0.2422 -0.1148 0.1120
H2 H -0.0130 -0.1572 0.2008
C3 C 0.1938(3) -0.4346(2) 0.14017(14)
H3 H 0.1328 -0.5414 0.2105
H4 H 0.3866 -0.4972 0.1200
C4 C 0.0066(3) -0.3938(2) 0.02082(14)
H5 H -0.1824 -0.3195 0.0393
H6 H 0.0768 -0.2949 -0.0508
H7 H 0.331(5) -0.293(4) 0.671(2)
H8 H 0.143(5) -0.113(4) 0.664(2)
H9 H 0.228(6) 0.348(5) 0.545(3)
H10 H 0.053(7) 0.255(6) 0.501(3)
C4A C -0.0066(3) -0.6062(2) -0.02082(14)
C3A C -0.1938(3) -0.5654(2) -0.14017(14)
C2A C -0.1817(3) -0.7802(2) -0.18355(15)
C1A C -0.3571(3) -0.7597(2) -0.30256(13)
O1A O -0.2680(2) -0.90243(17) -0.37172(10)
O2A O -0.5786(2) -0.61330(18) -0.32671(11)
H1A H -0.2422 -0.8852 -0.1120
H2A H 0.0130 -0.8428 -0.2008
H3A H -0.1328 -0.4586 -0.2105
H4A H -0.3866 -0.5028 -0.1200
H5A H 0.1824 -0.6805 -0.0393
H6A H -0.0768 -0.7051 0.0508
O3A O 0.8135(2) -0.28071(17) 0.51578(10)
H9A H 0.772(6) -0.348(5) 0.455(3)
H10A H 0.947(7) -0.255(6) 0.499(3)
O4A O 0.7047(2) 0.15977(18) 0.34315(11)
H7A H 0.669(5) 0.293(4) 0.329(2)
H8A H 0.857(5) 0.113(4) 0.336(2)
O1A_2 O 0.7320(2) 0.09757(17) 0.62828(10)
Ni1_2 Ni -0.5000 -1.0000 -0.5000
loop_
_geom_bond_atom_site_label_1
_geom_bond_atom_site_label_2
_geom_bond_site_symmetry_1
_geom_bond_site_symmetry_2
Ni1 O1 1_555 1_555
O1 C1 1_555 1_555
O2 C1 1_555 1_555
O3 Ni1 1_555 1_555
O4 Ni1 1_555 1_555
C1 C2 1_555 1_555
C2 H1 1_555 1_555
H2 C2 1_555 1_555
C3 C2 1_555 1_555
H3 C3 1_555 1_555
H4 C3 1_555 1_555
C4 C3 1_555 1_555
H5 C4 1_555 1_555
H6 C4 1_555 1_555
H7 O4 1_555 1_555
H8 O4 1_555 1_555
H9 O3 1_555 1_555
H10 O3 1_555 1_555
C4A C4 1_555 1_555
C3A C4A 1_555 1_555
C2A C3A 1_555 1_555
C1A C2A 1_555 1_555
O1A C1A 1_555 1_555
O2A C1A 1_555 1_555
H1A C2A 1_555 1_555
H2A C2A 1_555 1_555
H3A C3A 1_555 1_555
H4A C3A 1_555 1_555
H5A C4A 1_555 1_555
H6A C4A 1_555 1_555
O3A Ni1 1_555 1_555
H9A O3A 1_555 1_555
H10A O3A 1_555 1_555
O4A Ni1 1_555 1_555
H7A O4A 1_555 1_555
H8A O4A 1_555 1_555
O1A_2 Ni1 1_555 1_555
Ni1_2 O1A 1_555 1_555

#END
