
#######################################################################
#
#                 Cambridge Crystallographic Data Centre
#                                CCDC 
#
#######################################################################
#
# If this CIF has been generated from an entry in the Cambridge 
# Structural Database, then it will include bibliographic, chemical, 
# crystal, experimental, refinement or atomic coordinate data resulting 
# from the CCDC's data processing and validation procedures.
#
#######################################################################

data_AKIXEX01
_symmetry_cell_setting           triclinic
_symmetry_space_group_name_H-M   'P -1'
_symmetry_Int_Tables_number      2
_space_group_name_Hall           '-P 1'
loop_
_symmetry_equiv_pos_site_id
_symmetry_equiv_pos_as_xyz
1 x,y,z
2 -x,-y,-z
_cell_length_a                   7.1890(14)
_cell_length_b                   7.7640(16)
_cell_length_c                   9.843(2)
_cell_angle_alpha                79.16(3)
_cell_angle_beta                 87.80(3)
_cell_angle_gamma                71.29(3)
_cell_volume                     510.931
loop_
_atom_site_label
_atom_site_type_symbol
_atom_site_fract_x
_atom_site_fract_y
_atom_site_fract_z
Zn1 Zn 0.0000 0.0000 0.0000
N1 N -0.0244(2) 0.1900(2) -0.19040(14)
C1 C -0.0778(3) 0.3726(2) -0.19435(18)
C2 C -0.0700(3) 0.4979(2) -0.31279(18)
C3 C -0.0065(2) 0.4353(2) -0.43514(16)
C4 C 0.0462(3) 0.2457(2) -0.43087(18)
C5 C 0.0360(3) 0.1293(2) -0.30773(19)
O1 O -0.2670(2) 0.1616(2) 0.06116(16)
O2 O -0.1579(2) -0.1488(2) -0.08905(16)
H1 H -0.123(4) 0.412(4) -0.117(3)
H2 H -0.100(5) 0.625(5) -0.310(3)
H3 H 0.097(4) 0.188(4) -0.509(3)
H4 H 0.084(4) -0.003(4) -0.298(3)
H5 H -0.294(5) 0.228(5) 0.117(4)
H6 H -0.355(4) 0.190(4) 0.012(3)
H7 H -0.222(5) -0.102(4) -0.156(3)
H8 H -0.223(5) -0.183(4) -0.037(3)
C3A C 0.0065(2) 0.5647(2) -0.56486(16)
C2A C 0.0700(3) 0.5021(2) -0.68721(18)
C1A C 0.0778(3) 0.6274(2) -0.80565(18)
N1A N 0.0244(2) 0.8100(2) -0.80960(14)
Zn1A Zn 0.0000 1.0000 -1.0000
C5A C -0.0360(3) 0.8707(2) -0.69227(19)
C4A C -0.0462(3) 0.7543(2) -0.56913(18)
H3A H -0.097(4) 0.812(4) -0.491(3)
H4A H -0.084(4) 1.003(4) -0.702(3)
H1A H 0.123(4) 0.588(4) -0.883(3)
H2A H 0.100(5) 0.375(5) -0.690(3)
N1A_2 N 0.0244(2) -0.1900(2) 0.19040(14)
O1A O 0.2670(2) -0.1616(2) -0.06116(16)
O2A O 0.1579(2) 0.1488(2) 0.08905(16)
H5A H 0.294(5) -0.228(5) -0.117(4)
H6A H 0.355(4) -0.190(4) -0.012(3)
H7A H 0.222(5) 0.102(4) 0.156(3)
H8A H 0.223(5) 0.183(4) 0.037(3)
O3 O -0.3478(3) 0.3955(2) 0.22975(16)
O4 O -0.3993(3) 0.2031(2) 0.41280(16)
C6 C -0.4021(3) 0.3598(2) 0.35217(18)
C7 C -0.4766(3) 0.5240(2) 0.42473(17)
H9 H -0.381(4) 0.580(4) 0.416(3)
C7A C -0.5234(3) 0.4760(2) 0.57527(17)
C6A C -0.5979(3) 0.6402(2) 0.64783(18)
O3A O -0.6522(3) 0.6045(2) 0.77025(16)
O4A O -0.6007(3) 0.7969(2) 0.58720(16)
H9A H -0.619(4) 0.420(4) 0.584(3)
O5 O -0.4063(2) 0.7513(2) 0.10890(16)
H10 H -0.441(5) 0.817(5) 0.166(4)
H11 H -0.374(5) 0.652(5) 0.136(4)
O6 O -0.5761(3) -0.0169(2) 0.31356(17)
H12 H -0.589(5) -0.074(5) 0.387(4)
H13 H -0.513(5) 0.057(5) 0.334(3)
loop_
_geom_bond_atom_site_label_1
_geom_bond_atom_site_label_2
_geom_bond_site_symmetry_1
_geom_bond_site_symmetry_2
Zn1 N1 1_555 1_555
N1 C1 1_555 1_555
C1 C2 1_555 1_555
C2 C3 1_555 1_555
C3 C4 1_555 1_555
C4 C5 1_555 1_555
C5 N1 1_555 1_555
O1 Zn1 1_555 1_555
O2 Zn1 1_555 1_555
H1 C1 1_555 1_555
H2 C2 1_555 1_555
H3 C4 1_555 1_555
H4 C5 1_555 1_555
H5 O1 1_555 1_555
H6 O1 1_555 1_555
H7 O2 1_555 1_555
H8 O2 1_555 1_555
O3 C6 1_555 1_555
O4 C6 1_555 1_555
C6 C7 1_555 1_555
C7 H9 1_555 1_555
O5 H10 1_555 1_555
H11 O5 1_555 1_555
O6 H12 1_555 1_555
H13 O6 1_555 1_555
C3A C3 1_555 1_555
C2A C3A 1_555 1_555
C1A C2A 1_555 1_555
N1A C1A 1_555 1_555
Zn1A N1A 1_555 1_555
C5A N1A 1_555 1_555
C4A C3A 1_555 1_555
H3A C4A 1_555 1_555
H4A C5A 1_555 1_555
H1A C1A 1_555 1_555
H2A C2A 1_555 1_555
N1A_2 Zn1 1_555 1_555
O1A Zn1 1_555 1_555
O2A Zn1 1_555 1_555
H5A O1A 1_555 1_555
H6A O1A 1_555 1_555
H7A O2A 1_555 1_555
H8A O2A 1_555 1_555
C7A C7 1_555 1_555
C6A C7A 1_555 1_555
O3A C6A 1_555 1_555
O4A C6A 1_555 1_555
H9A C7A 1_555 1_555
C5A C4A 1_555 1_555

#END
