
#######################################################################
#
#                 Cambridge Crystallographic Data Centre
#                                CCDC 
#
#######################################################################
#
# If this CIF has been generated from an entry in the Cambridge 
# Structural Database, then it will include bibliographic, chemical, 
# crystal, experimental, refinement or atomic coordinate data resulting 
# from the CCDC's data processing and validation procedures.
#
#######################################################################

data_AKIXEX
_symmetry_cell_setting           triclinic
_symmetry_space_group_name_H-M   'P 1'
_symmetry_Int_Tables_number      1
_space_group_name_Hall           'P 1'
loop_
_symmetry_equiv_pos_site_id
_symmetry_equiv_pos_as_xyz
1 x,y,z
_cell_length_a                   7.1890(14)
_cell_length_b                   7.7640(16)
_cell_length_c                   9.843(2)
_cell_angle_alpha                79.16(3)
_cell_angle_beta                 87.80(3)
_cell_angle_gamma                71.29(3)
_cell_volume                     510.931
loop_
_atom_site_label
_atom_site_type_symbol
_atom_site_fract_x
_atom_site_fract_y
_atom_site_fract_z
Zn1 Zn 0.0890(3) 0.92023(19) 0.80269(14)
C1 C 0.1686(14) 0.5530(11) 0.9954(7)
H1 H 0.2189 0.5082 0.9158
C2 C 0.1515(15) 0.4273(12) 1.1146(9)
H2 H 0.1769 0.3040 1.1078
C3 C 0.0976(13) 0.4795(10) 1.2441(8)
C4 C 0.0484(16) 0.6760(12) 1.2292(8)
H3 H 0.0097 0.7289 1.3072
C5 C 0.0552(16) 0.7902(12) 1.1062(9)
H4 H 0.0143 0.9172 1.1038
C6 C 0.0850(12) 0.3517(10) 1.3718(7)
C7 C 0.1401(16) 0.1668(11) 1.3687(7)
H5 H 0.1843 0.1220 1.2881
C8 C 0.1272(15) 0.0496(11) 1.4902(8)
H6 H 0.1610 -0.0764 1.4896
C9 C 0.0127(15) 0.3002(12) 1.6046(9)
H7 H -0.0255 0.3458 1.6856
C10 C 0.0117(14) 0.4222(11) 1.4886(8)
H8 H -0.0363 0.5490 1.4868
N1 N 0.1159(13) 0.7301(9) 0.9935(6)
N2 N 0.0670(13) 0.1100(9) 1.6122(7)
O1 O -0.0642(12) 0.7682(9) 0.7156(5)
O2 O 0.2516(11) 1.0660(9) 0.8941(6)
O3 O 0.3554(11) 0.7594(9) 0.7419(7)
O4 O -0.1783(9) 1.0825(8) 0.8645(6)
H9 H -0.1570 0.7429 0.7748
H10 H -0.1545 0.8380 0.6369
H11 H 0.3296 1.0082 0.9692
H12 H 0.3263 1.0988 0.8321
H13 H 0.3963 0.6828 0.6865
H14 H 0.4433 0.7358 0.8049
H15 H -0.2188 1.1577 0.9180
H16 H -0.2743 1.1122 0.8036
N2_2 N 0.0670(13) 1.1100(9) 0.6122(7)
Zn1_2 Zn 0.0890(3) -0.07977(19) 1.80269(14)
O5 O 0.4441(15) 0.5269(10) 0.5748(7)
O6 O 0.4872(14) 0.7152(10) 0.3891(7)
C11 C 0.4876(15) 0.5638(10) 0.4510(9)
C12 C 0.5640(12) 0.3936(10) 0.3780(7)
H17 H 0.6810 0.3070 0.4272
H18 H 0.4651 0.3320 0.3843
C13 C 0.6119(15) 0.4404(12) 0.2280(9)
H19 H 0.4947 0.5279 0.1795
H20 H 0.7106 0.5020 0.2223
C14 C 0.6833(14) 0.2837(11) 0.1559(7)
O7 O 0.7468(12) 0.3178(9) 0.0345(6)
O8 O 0.6894(12) 0.1212(8) 0.2152(7)
O9 O 0.4937(12) 0.1754(10) 0.6947(6)
H21 H 0.5233 0.0985 0.6233
H22 H 0.4705 0.2895 0.6423
O10 O 0.6813(12) 0.6777(10) -0.0870(6)
H23 H 0.6540 0.7363 -0.0153
H24 H 0.7172 0.5629 -0.0401
O11 O 0.5129(11) -0.0945(10) 0.1144(7)
H25 H 0.5118 -0.1456 0.2000
H26 H 0.5843 -0.0371 0.1378
O12 O 0.6665(13) 0.9400(9) 0.4865(6)
H27 H 0.6752 0.9982 0.4001
H28 H 0.5925 0.8858 0.4665
loop_
_geom_bond_atom_site_label_1
_geom_bond_atom_site_label_2
_geom_bond_site_symmetry_1
_geom_bond_site_symmetry_2
Zn1 N1 1_555 1_555
C1 H1 1_555 1_555
C2 C1 1_555 1_555
H2 C2 1_555 1_555
C3 C2 1_555 1_555
C4 C3 1_555 1_555
H3 C4 1_555 1_555
C5 C4 1_555 1_555
H4 C5 1_555 1_555
C6 C3 1_555 1_555
C7 C6 1_555 1_555
H5 C7 1_555 1_555
C8 C7 1_555 1_555
H6 C8 1_555 1_555
C9 H7 1_555 1_555
C10 C6 1_555 1_555
H8 C10 1_555 1_555
N1 C1 1_555 1_555
N2 C8 1_555 1_555
O1 Zn1 1_555 1_555
O2 Zn1 1_555 1_555
O3 Zn1 1_555 1_555
O4 Zn1 1_555 1_555
H9 O1 1_555 1_555
H10 O1 1_555 1_555
H11 O2 1_555 1_555
H12 O2 1_555 1_555
H13 O3 1_555 1_555
H14 O3 1_555 1_555
H15 O4 1_555 1_555
H16 O4 1_555 1_555
O5 C11 1_555 1_555
O6 C11 1_555 1_555
C11 C12 1_555 1_555
C12 H17 1_555 1_555
H18 C12 1_555 1_555
C13 C12 1_555 1_555
H19 C13 1_555 1_555
H20 C13 1_555 1_555
C14 C13 1_555 1_555
O7 C14 1_555 1_555
O8 C14 1_555 1_555
O9 H21 1_555 1_555
H22 O9 1_555 1_555
O10 H23 1_555 1_555
H24 O10 1_555 1_555
O11 H25 1_555 1_555
H26 O11 1_555 1_555
O12 H27 1_555 1_555
H28 O12 1_555 1_555
N2_2 Zn1 1_555 1_555
Zn1_2 N2 1_555 1_555
C5 N1 1_555 1_555
C9 C10 1_555 1_555
C9 N2 1_555 1_555

#END
