
#######################################################################
#
#                 Cambridge Crystallographic Data Centre
#                                CCDC 
#
#######################################################################
#
# If this CIF has been generated from an entry in the Cambridge 
# Structural Database, then it will include bibliographic, chemical, 
# crystal, experimental, refinement or atomic coordinate data resulting 
# from the CCDC's data processing and validation procedures.
#
#######################################################################

data_AKIYOI
_symmetry_cell_setting           monoclinic
_symmetry_space_group_name_H-M   'C 2/c'
_symmetry_Int_Tables_number      15
_space_group_name_Hall           '-C 2yn'
loop_
_symmetry_equiv_pos_site_id
_symmetry_equiv_pos_as_xyz
1 x,y,z
2 1/2+x,1/2+y,z
3 -x,y,1/2-z
4 1/2-x,1/2+y,1/2-z
5 -x,-y,-z
6 1/2-x,1/2-y,-z
7 x,-y,1/2+z
8 1/2+x,1/2-y,1/2+z
_cell_length_a                   8.3305(17)
_cell_length_b                   11.645(2)
_cell_length_c                   23.947(5)
_cell_angle_alpha                90
_cell_angle_beta                 94.845(3)
_cell_angle_gamma                90
_cell_volume                     2314.77
loop_
_atom_site_label
_atom_site_type_symbol
_atom_site_fract_x
_atom_site_fract_y
_atom_site_fract_z
Ag1 Ag 0.97424(3) 0.007146(18) 0.688641(11)
N1 N 1.1547(3) -0.1241(2) 0.68623(13)
N2 N 1.2937(4) -0.3673(3) 0.70144(13)
C1 C 1.0820(4) -0.2317(3) 0.66307(16)
C2 C 1.2014(4) -0.3232(3) 0.65094(15)
H1 H 1.230(4) -0.104(3) 0.6692(16)
H2 H 1.207(4) -0.143(3) 0.7241(16)
H3 H 1.239(6) -0.398(4) 0.728(2)
H4 H 1.336(4) -0.314(3) 0.7191(17)
H5 H 1.008(4) -0.256(3) 0.6838(14)
H6 H 1.011(4) -0.219(2) 0.6252(15)
H7 H 1.142(4) -0.371(3) 0.6336(14)
H8 H 1.271(3) -0.290(2) 0.6284(13)
N2A N 0.7937(4) 0.1327(3) 0.70144(13)
H3A H 0.739(6) 0.102(4) 0.728(2)
H4A H 0.836(4) 0.186(3) 0.7191(17)
Ag1B Ag 1.02576(3) 0.007146(18) 0.811359(11)
Ag1A Ag 1.47424(3) -0.492854(18) 0.688641(11)
N3 N 0.1047(4) 0.3182(3) 0.65923(14)
O1 O 0.1338(4) 0.0425(2) 0.42813(11)
O2 O 0.3045(4) -0.0546(3) 0.48028(12)
O3 O 0.0006(3) 0.39470(19) 0.65188(10)
O4 O 0.1955(3) 0.3020(2) 0.70270(11)
C3 C 0.2074(4) 0.0237(2) 0.47324(13)
C4 C 0.1769(4) 0.0964(3) 0.52091(13)
C5 C 0.2584(4) 0.0736(3) 0.57220(14)
C6 C 0.2311(4) 0.1445(3) 0.61714(15)
C7 C 0.1270(3) 0.2376(2) 0.61034(13)
C8 C 0.0454(4) 0.2569(3) 0.55778(14)
C9 C 0.0692(4) 0.1859(3) 0.51341(14)
H9 H 0.334(5) 0.016(3) 0.5719(18)
H10 H 0.287(4) 0.135(3) 0.6486(15)
H11 H -0.020(4) 0.320(3) 0.5520(14)
H12 H 0.020(5) 0.194(3) 0.4792(19)
O5 O 0.0000 0.5259(4) 0.7500
H13 H 0.000(6) 0.492(3) 0.725(2)
H13B H 0.000(6) 0.492(3) 0.775(2)
loop_
_geom_bond_atom_site_label_1
_geom_bond_atom_site_label_2
_geom_bond_site_symmetry_1
_geom_bond_site_symmetry_2
Ag1 N1 1_555 1_555
N1 C1 1_555 1_555
N2 C2 1_555 1_555
C1 C2 1_555 1_555
C2 H7 1_555 1_555
H1 N1 1_555 1_555
H2 N1 1_555 1_555
H3 N2 1_555 1_555
H4 N2 1_555 1_555
H5 C1 1_555 1_555
H6 C1 1_555 1_555
H8 C2 1_555 1_555
N3 O3 1_555 1_555
O1 C3 1_555 1_555
O2 C3 1_555 1_555
O4 N3 1_555 1_555
C3 C4 1_555 1_555
C4 C5 1_555 1_555
C5 C6 1_555 1_555
C6 C7 1_555 1_555
C7 N3 1_555 1_555
C8 C7 1_555 1_555
C9 C4 1_555 1_555
H9 C5 1_555 1_555
H10 C6 1_555 1_555
H11 C8 1_555 1_555
H12 C9 1_555 1_555
O5 H13 1_555 1_555
N2A Ag1 1_555 1_555
H3A N2A 1_555 1_555
H4A N2A 1_555 1_555
Ag1B Ag1 1_555 1_555
Ag1A N2 1_555 1_555
H13B O5 1_555 1_555
C8 C9 1_555 1_555

#END
