
#######################################################################
#
#                 Cambridge Crystallographic Data Centre
#                                CCDC 
#
#######################################################################
#
# If this CIF has been generated from an entry in the Cambridge 
# Structural Database, then it will include bibliographic, chemical, 
# crystal, experimental, refinement or atomic coordinate data resulting 
# from the CCDC's data processing and validation procedures.
#
#######################################################################

data_AKIZEZ
_symmetry_cell_setting           triclinic
_symmetry_space_group_name_H-M   'P -1'
_symmetry_Int_Tables_number      2
_space_group_name_Hall           '-P 1'
loop_
_symmetry_equiv_pos_site_id
_symmetry_equiv_pos_as_xyz
1 x,y,z
2 -x,-y,-z
_cell_length_a                   7.139(2)
_cell_length_b                   7.509(2)
_cell_length_c                   14.007(4)
_cell_angle_alpha                78.505(5)
_cell_angle_beta                 78.789(4)
_cell_angle_gamma                82.023(4)
_cell_volume                     717.849
loop_
_atom_site_label
_atom_site_type_symbol
_atom_site_fract_x
_atom_site_fract_y
_atom_site_fract_z
Ag1 Ag 1.08961(4) 0.39630(4) 0.86104(2)
N1 N 0.7907(4) 0.3784(4) 0.8756(2)
N2 N 0.3843(4) 0.4365(5) 0.8469(3)
C1 C 0.7298(5) 0.3610(5) 0.7833(3)
C2 C 0.5253(5) 0.3104(6) 0.7969(3)
C3 C 0.4791(7) 0.3035(7) 0.6966(4)
H1 H 0.716(4) 0.468(3) 0.902(2)
H2 H 0.760(5) 0.283(3) 0.9228(19)
H3 H 0.405(6) 0.549(6) 0.811(3)
H4 H 0.410(7) 0.435(6) 0.909(4)
H5 H 0.814(5) 0.261(4) 0.759(3)
H6 H 0.730(7) 0.478(3) 0.739(3)
H7 H 0.501(6) 0.205(6) 0.844(3)
H8 H 0.558(6) 0.208(5) 0.667(3)
H9 H 0.485(5) 0.421(2) 0.6541(19)
H10 H 0.343(2) 0.292(6) 0.707(4)
N2_2 N 1.3843(4) 0.4365(5) 0.8469(3)
Ag1_2 Ag 0.08961(4) 0.39630(4) 0.86104(2)
H3_2 H 1.405(6) 0.549(6) 0.811(3)
H4_2 H 1.410(7) 0.435(6) 0.909(4)
N3 N 1.2132(6) 0.9037(5) 0.7892(3)
O1 O 0.9511(5) 0.6871(5) 0.4215(2)
O2 O 0.6818(5) 0.7207(7) 0.5135(3)
O3 O 1.3866(4) 0.8477(4) 0.7854(2)
O4 O 1.1152(4) 0.9926(5) 0.8515(2)
C4 C 0.8524(5) 0.7246(5) 0.4966(3)
C5 C 0.9438(5) 0.7747(5) 0.5707(3)
C6 C 1.1398(6) 0.7617(6) 0.5573(3)
C7 C 1.2249(6) 0.8044(6) 0.6278(3)
C8 C 1.1168(5) 0.8622(5) 0.7108(3)
C9 C 0.9181(5) 0.8765(5) 0.7218(3)
C10 C 0.8303(5) 0.8320(5) 0.6522(3)
H11 H 1.206(7) 0.724(6) 0.505(4)
H12 H 1.356(7) 0.789(6) 0.614(3)
H13 H 0.846(5) 0.903(5) 0.786(3)
H14 H 0.699(6) 0.838(5) 0.660(3)
O5 O 0.5732(4) 0.7166(4) 0.9411(2)
H15 H 0.515(5) 0.769(5) 0.8902(19)
H16 H 0.620(6) 0.810(4) 0.956(3)
O6 O 0.2259(4) 0.0290(5) 0.0220(2)
H17 H 0.108(3) 0.052(5) 0.056(3)
H18 H 0.195(8) 0.030(7) -0.037(2)
loop_
_geom_bond_atom_site_label_1
_geom_bond_atom_site_label_2
_geom_bond_site_symmetry_1
_geom_bond_site_symmetry_2
Ag1 N1 1_555 1_555
N1 C1 1_555 1_555
N2 C2 1_555 1_555
C1 C2 1_555 1_555
C2 C3 1_555 1_555
C3 H8 1_555 1_555
H1 N1 1_555 1_555
H2 N1 1_555 1_555
H3 N2 1_555 1_555
H4 N2 1_555 1_555
H5 C1 1_555 1_555
H6 C1 1_555 1_555
H7 C2 1_555 1_555
H9 C3 1_555 1_555
H10 C3 1_555 1_555
N3 O3 1_555 1_555
O1 C4 1_555 1_555
O2 C4 1_555 1_555
O4 N3 1_555 1_555
C4 C5 1_555 1_555
C5 C6 1_555 1_555
C6 C7 1_555 1_555
C7 C8 1_555 1_555
C8 N3 1_555 1_555
C9 C8 1_555 1_555
C10 C5 1_555 1_555
H11 C6 1_555 1_555
H12 C7 1_555 1_555
H13 C9 1_555 1_555
H14 C10 1_555 1_555
O5 H15 1_555 1_555
H16 O5 1_555 1_555
O6 H17 1_555 1_555
H18 O6 1_555 1_555
N2_2 Ag1 1_555 1_555
Ag1_2 N2 1_555 1_555
H3_2 N2_2 1_555 1_555
H4_2 N2_2 1_555 1_555
C9 C10 1_555 1_555

#END
