
#######################################################################
#
#                 Cambridge Crystallographic Data Centre
#                                CCDC 
#
#######################################################################
#
# If this CIF has been generated from an entry in the Cambridge 
# Structural Database, then it will include bibliographic, chemical, 
# crystal, experimental, refinement or atomic coordinate data resulting 
# from the CCDC's data processing and validation procedures.
#
#######################################################################

data_AKIZID
_symmetry_cell_setting           monoclinic
_symmetry_space_group_name_H-M   'C 2/c'
_symmetry_Int_Tables_number      15
_space_group_name_Hall           '-C 2yn'
loop_
_symmetry_equiv_pos_site_id
_symmetry_equiv_pos_as_xyz
1 x,y,z
2 1/2+x,1/2+y,z
3 -x,y,1/2-z
4 1/2-x,1/2+y,1/2-z
5 -x,-y,-z
6 1/2-x,1/2-y,-z
7 x,-y,1/2+z
8 1/2+x,1/2-y,1/2+z
_cell_length_a                   21.164(6)
_cell_length_b                   6.4510(19)
_cell_length_c                   12.219(4)
_cell_angle_alpha                90
_cell_angle_beta                 104.646(4)
_cell_angle_gamma                90
_cell_volume                     1614.04
loop_
_atom_site_label
_atom_site_type_symbol
_atom_site_fract_x
_atom_site_fract_y
_atom_site_fract_z
Ag1 Ag 0.5000 0.11959(7) 0.2500
Ag2 Ag 0.5000 0.0000 0.0000
N1 N 0.29490(18) 1.1294(6) -0.1631(3)
O1 O 0.43862(15) 0.3607(5) 0.1283(2)
O2 O 0.44685(15) 0.2749(4) -0.0445(2)
O3 O 0.2618(2) 1.2179(6) -0.1117(3)
O4 O 0.30332(17) 1.1913(5) -0.2517(3)
O5 O 0.5000 -0.2103(11) 0.2500
C1 C 0.42813(19) 0.3896(6) 0.0249(4)
C2 C 0.39054(18) 0.5780(6) -0.0261(3)
C3 C 0.3568(2) 0.6960(7) 0.0361(4)
C4 C 0.3249(2) 0.8740(7) -0.0090(4)
C5 C 0.32718(19) 0.9356(6) -0.1150(4)
C6 C 0.3590(2) 0.8197(6) -0.1801(4)
C7 C 0.38997(19) 0.6401(6) -0.1353(3)
H1 H 0.357(2) 0.642(7) 0.103(4)
H2 H 0.303(2) 0.949(7) 0.024(4)
H3 H 0.359(2) 0.862(7) -0.252(4)
H4 H 0.412(2) 0.546(7) -0.179(4)
H5 H 0.515(4) -0.276(10) 0.318(3)
H5B H 0.485(4) -0.276(10) 0.182(3)
N1B N 0.70510(18) 1.1294(6) 0.6631(3)
O1B O 0.56138(15) 0.3607(5) 0.3717(2)
O2B O 0.55315(15) 0.2749(4) 0.5445(2)
O3B O 0.7382(2) 1.2179(6) 0.6117(3)
O4B O 0.69668(17) 1.1913(5) 0.7517(3)
C1B C 0.57187(19) 0.3896(6) 0.4751(4)
C2B C 0.60946(18) 0.5780(6) 0.5261(3)
C3B C 0.6432(2) 0.6960(7) 0.4639(4)
C4B C 0.6751(2) 0.8740(7) 0.5090(4)
C5B C 0.67282(19) 0.9356(6) 0.6150(4)
C6B C 0.6410(2) 0.8197(6) 0.6801(4)
C7B C 0.61003(19) 0.6401(6) 0.6353(3)
H1B H 0.643(2) 0.642(7) 0.397(4)
H2B H 0.697(2) 0.949(7) 0.476(4)
H3B H 0.641(2) 0.862(7) 0.752(4)
H4B H 0.588(2) 0.546(7) 0.679(4)
Ag2F Ag 0.5000 0.0000 0.5000
Ag1F Ag 0.5000 -0.11959(7) -0.2500
O2D O 0.55315(15) -0.2749(4) 0.0445(2)
loop_
_geom_bond_atom_site_label_1
_geom_bond_atom_site_label_2
_geom_bond_site_symmetry_1
_geom_bond_site_symmetry_2
Ag1 Ag2 1_555 1_555
Ag2 O2 1_555 1_555
N1 O3 1_555 1_555
O1 Ag1 1_555 1_555
O2 C1 1_555 1_555
O4 N1 1_555 1_555
O5 Ag1 1_555 1_555
C1 O1 1_555 1_555
C2 C1 1_555 1_555
C3 C2 1_555 1_555
C4 C3 1_555 1_555
C5 N1 1_555 1_555
C6 C5 1_555 1_555
C7 C2 1_555 1_555
H1 C3 1_555 1_555
H2 C4 1_555 1_555
H3 C6 1_555 1_555
H4 C7 1_555 1_555
H5 O5 1_555 1_555
H5B O5 1_555 1_555
N1B O3B 1_555 1_555
O1B Ag1 1_555 1_555
O2B C1B 1_555 1_555
O4B N1B 1_555 1_555
C1B O1B 1_555 1_555
C2B C1B 1_555 1_555
C3B C2B 1_555 1_555
C4B C3B 1_555 1_555
C5B N1B 1_555 1_555
C6B C5B 1_555 1_555
C7B C2B 1_555 1_555
H1B C3B 1_555 1_555
H2B C4B 1_555 1_555
H3B C6B 1_555 1_555
H4B C7B 1_555 1_555
Ag2F Ag1 1_555 1_555
Ag1F Ag2 1_555 1_555
O2D Ag2 1_555 1_555
C4 C5 1_555 1_555
C6 C7 1_555 1_555
O2B Ag2F 1_555 1_555
C4B C5B 1_555 1_555
C6B C7B 1_555 1_555

#END
