
#######################################################################
#
#                 Cambridge Crystallographic Data Centre
#                                CCDC 
#
#######################################################################
#
# If this CIF has been generated from an entry in the Cambridge 
# Structural Database, then it will include bibliographic, chemical, 
# crystal, experimental, refinement or atomic coordinate data resulting 
# from the CCDC's data processing and validation procedures.
#
#######################################################################

data_AKODEK
_symmetry_cell_setting           monoclinic
_symmetry_space_group_name_H-M   'P 21/n'
_symmetry_Int_Tables_number      14
_space_group_name_Hall           '-P 2yn'
loop_
_symmetry_equiv_pos_site_id
_symmetry_equiv_pos_as_xyz
1 x,y,z
2 1/2-x,1/2+y,1/2-z
3 -x,-y,-z
4 1/2+x,1/2-y,1/2+z
_cell_length_a                   12.0599(7)
_cell_length_b                   7.0629(4)
_cell_length_c                   17.4168(10)
_cell_angle_alpha                90
_cell_angle_beta                 93.8490(10)
_cell_angle_gamma                90
_cell_volume                     1480.18
loop_
_atom_site_label
_atom_site_type_symbol
_atom_site_fract_x
_atom_site_fract_y
_atom_site_fract_z
Cu1 Cu 0.10976(3) 0.23527(5) 0.178768(19)
C1 C 0.2580(3) 0.1819(5) 0.04879(19)
H1 H 0.3149 0.1639 0.0868
C2 C 0.2826(3) 0.1784(5) -0.0272(2)
H2 H 0.3554 0.1584 -0.0396
C3 C 0.1997(3) 0.2043(5) -0.08558(19)
C4 C 0.0914(3) 0.2328(4) -0.06306(18)
H3 H 0.0330 0.2499 -0.1001
C5 C 0.0718(2) 0.2354(3) 0.01372(17)
C6 C -0.0402(2) 0.2620(3) 0.04378(17)
C7 C -0.1372(3) 0.2795(4) -0.00290(19)
H4 H -0.1347 0.2782 -0.0562
C8 C -0.2388(3) 0.2991(5) 0.0304(2)
C9 C -0.2366(3) 0.3050(5) 0.1104(2)
H5 H -0.3023 0.3185 0.1349
C10 C -0.1370(3) 0.2907(5) 0.15300(19)
H6 H -0.1370 0.2973 0.2063
C11 C 0.2255(3) 0.2031(6) -0.1689(2)
H7 H 0.2605 0.3204 -0.1813
H8 H 0.1579 0.1886 -0.2007
H9 H 0.2746 0.0998 -0.1781
C12 C -0.3460(3) 0.3126(6) -0.0181(2)
H10 H -0.4038 0.2503 0.0076
H11 H -0.3377 0.2528 -0.0669
H12 H -0.3652 0.4434 -0.0261
C13 C 0.0144(3) 0.0651(6) 0.3036(2)
H13 H -0.0073 0.0607 0.3538
C14 C 0.2958(3) 0.1514(4) 0.28265(17)
H14 H 0.2800 0.2675 0.3046
N1 N -0.0394(2) 0.2676(3) 0.12100(15)
N2 N 0.1541(2) 0.2107(3) 0.06966(14)
O1 O 0.0464(2) 0.2260(3) 0.28004(14)
O2 O 0.36184(19) 0.0466(3) 0.31969(12)
O3 O 0.24788(17) 0.1147(3) 0.21745(12)
O4 O 0.0092(3) -0.0781(5) 0.2692(3)
Cu1A Cu 0.39024(3) -0.26473(5) 0.321232(19)
O2A O 0.13816(19) 0.5466(3) 0.18031(12)
O5 O -0.0177(3) -0.4254(5) 0.3535(2)
H15 H 0.0024 -0.5197 0.3167
H16 H -0.0219 -0.3313 0.3187
loop_
_geom_bond_atom_site_label_1
_geom_bond_atom_site_label_2
_geom_bond_site_symmetry_1
_geom_bond_site_symmetry_2
Cu1 N1 1_555 1_555
C1 H1 1_555 1_555
C2 C1 1_555 1_555
H2 C2 1_555 1_555
C3 C2 1_555 1_555
C4 C3 1_555 1_555
H3 C4 1_555 1_555
C5 C4 1_555 1_555
C6 C5 1_555 1_555
C7 C6 1_555 1_555
H4 C7 1_555 1_555
C8 C7 1_555 1_555
C9 C8 1_555 1_555
H5 C9 1_555 1_555
C10 C9 1_555 1_555
H6 C10 1_555 1_555
C11 C3 1_555 1_555
H7 C11 1_555 1_555
H8 C11 1_555 1_555
H9 C11 1_555 1_555
C12 C8 1_555 1_555
H10 C12 1_555 1_555
H11 C12 1_555 1_555
H12 C12 1_555 1_555
C13 H13 1_555 1_555
C14 H14 1_555 1_555
N1 C6 1_555 1_555
N2 Cu1 1_555 1_555
O1 Cu1 1_555 1_555
O2 C14 1_555 1_555
O3 Cu1 1_555 1_555
O4 C13 1_555 1_555
O5 H15 1_555 1_555
H16 O5 1_555 1_555
Cu1A O2 1_555 1_555
O2A Cu1 1_555 1_555
C1 N2 1_555 1_555
C5 N2 1_555 1_555
C10 N1 1_555 1_555
C13 O1 1_555 1_555
C14 O3 1_555 1_555

#END
