
#######################################################################
#
#                 Cambridge Crystallographic Data Centre
#                                CCDC 
#
#######################################################################
#
# If this CIF has been generated from an entry in the Cambridge 
# Structural Database, then it will include bibliographic, chemical, 
# crystal, experimental, refinement or atomic coordinate data resulting 
# from the CCDC's data processing and validation procedures.
#
#######################################################################

data_AKODIO
_symmetry_cell_setting           monoclinic
_symmetry_space_group_name_H-M   'P 21/c'
_symmetry_Int_Tables_number      14
_space_group_name_Hall           '-P 2ybc'
loop_
_symmetry_equiv_pos_site_id
_symmetry_equiv_pos_as_xyz
1 x,y,z
2 -x,1/2+y,1/2-z
3 -x,-y,-z
4 x,1/2-y,1/2+z
_cell_length_a                   10.0424(9)
_cell_length_b                   16.1906(14)
_cell_length_c                   9.9593(8)
_cell_angle_alpha                90
_cell_angle_beta                 96.619(2)
_cell_angle_gamma                90
_cell_volume                     1608.51
loop_
_atom_site_label
_atom_site_type_symbol
_atom_site_fract_x
_atom_site_fract_y
_atom_site_fract_z
Cu1 Cu 0.65071(4) 0.15630(2) 0.28134(4)
C1 C 0.4192(3) 0.0641(2) 0.1360(3)
H1 H 0.4004 0.1130 0.0886
C2 C 0.3369(4) -0.0036(2) 0.1032(3)
C3 C 0.3684(4) -0.0756(2) 0.1745(3)
H2 H 0.3166 -0.1226 0.1554
C4 C 0.4760(4) -0.0782(2) 0.2738(3)
H3 H 0.4973 -0.1268 0.3210
C5 C 0.5519(3) -0.00795(19) 0.3024(3)
C6 C 0.6666(3) -0.00167(19) 0.4081(3)
C7 C 0.7046(4) -0.0642(2) 0.5002(3)
H4 H 0.6593 -0.1144 0.4960
C8 C 0.8112(4) -0.0502(2) 0.5982(3)
H5 H 0.8386 -0.0919 0.6593
C9 C 0.8778(4) 0.0245(2) 0.6071(3)
C10 C 0.8345(3) 0.0834(2) 0.5094(3)
H6 H 0.8794 0.1336 0.5109
C11 C 0.2213(4) 0.0032(2) -0.0061(4)
H7 H 0.1993 -0.0506 -0.0427
H8 H 0.2455 0.0387 -0.0765
H9 H 0.1451 0.0258 0.0310
C12 C 0.9928(4) 0.0431(2) 0.7127(3)
H10 H 0.9599 0.0703 0.7880
H11 H 1.0556 0.0785 0.6750
H12 H 1.0364 -0.0074 0.7428
C13 C 0.9026(4) 0.2214(2) 0.2573(4)
H13 H 0.9742 0.2570 0.2809
C14 C 0.6051(4) 0.25055(18) 0.5355(3)
H14 H 0.6962 0.2588 0.5317
N1 N 0.7316(3) 0.07104(16) 0.4134(2)
N2 N 0.5241(3) 0.06271(15) 0.2323(2)
O1 O 0.7994(2) 0.23329(13) 0.3171(2)
O2 O 0.5558(2) 0.27719(13) 0.6383(2)
O3 O 0.5409(2) 0.21425(13) 0.4395(2)
O4 O 0.9198(3) 0.16960(18) 0.1735(3)
Cu1C Cu 0.65071(4) 0.34370(2) 0.78134(4)
O2C O 0.5558(2) 0.22281(13) 0.1383(2)
O5 O 0.2751(3) 0.2773(2) 0.3497(3)
H15 H 0.2585 0.2703 0.2561
H16 H 0.3617 0.2515 0.3745
O6 O 1.1569(4) 0.2361(2) 0.0883(3)
H17 H 1.1955 0.2354 -0.0042
H18 H 1.0744 0.2206 0.1204
loop_
_geom_bond_atom_site_label_1
_geom_bond_atom_site_label_2
_geom_bond_site_symmetry_1
_geom_bond_site_symmetry_2
Cu1 N1 1_555 1_555
C1 H1 1_555 1_555
C2 C1 1_555 1_555
C3 C2 1_555 1_555
H2 C3 1_555 1_555
C4 C3 1_555 1_555
H3 C4 1_555 1_555
C5 C4 1_555 1_555
C6 C5 1_555 1_555
C7 C6 1_555 1_555
H4 C7 1_555 1_555
C8 C7 1_555 1_555
H5 C8 1_555 1_555
C9 C8 1_555 1_555
C10 C9 1_555 1_555
H6 C10 1_555 1_555
C11 C2 1_555 1_555
H7 C11 1_555 1_555
H8 C11 1_555 1_555
H9 C11 1_555 1_555
C12 C9 1_555 1_555
H10 C12 1_555 1_555
H11 C12 1_555 1_555
H12 C12 1_555 1_555
C13 H13 1_555 1_555
C14 H14 1_555 1_555
N1 C6 1_555 1_555
N2 Cu1 1_555 1_555
O1 Cu1 1_555 1_555
O2 C14 1_555 1_555
O3 Cu1 1_555 1_555
O4 C13 1_555 1_555
O5 H15 1_555 1_555
H16 O5 1_555 1_555
O6 H17 1_555 1_555
H18 O6 1_555 1_555
Cu1C O2 1_555 1_555
O2C Cu1 1_555 1_555
C1 N2 1_555 1_555
C5 N2 1_555 1_555
C10 N1 1_555 1_555
C13 O1 1_555 1_555
C14 O3 1_555 1_555

#END
