
#######################################################################
#
#                 Cambridge Crystallographic Data Centre
#                                CCDC 
#
#######################################################################
#
# If this CIF has been generated from an entry in the Cambridge 
# Structural Database, then it will include bibliographic, chemical, 
# crystal, experimental, refinement or atomic coordinate data resulting 
# from the CCDC's data processing and validation procedures.
#
#######################################################################

data_AKOSAU
_symmetry_cell_setting           monoclinic
_symmetry_space_group_name_H-M   'C 2/c'
_symmetry_Int_Tables_number      15
_space_group_name_Hall           '-C 2yn'
loop_
_symmetry_equiv_pos_site_id
_symmetry_equiv_pos_as_xyz
1 x,y,z
2 -x,y,1/2-z
3 1/2+x,1/2+y,z
4 1/2-x,1/2+y,1/2-z
5 -x,-y,-z
6 x,-y,1/2+z
7 1/2-x,1/2-y,-z
8 1/2+x,1/2-y,1/2+z
_cell_length_a                   13.9849(3)
_cell_length_b                   14.1601(5)
_cell_length_c                   8.3026(3)
_cell_angle_alpha                90
_cell_angle_beta                 104.621(2)
_cell_angle_gamma                90
_cell_volume                     1590.9
loop_
_atom_site_label
_atom_site_type_symbol
_atom_site_fract_x
_atom_site_fract_y
_atom_site_fract_z
Sr1 Sr 0.5000 0.2793(1) 0.2500
C1 C 0.3682(2) 0.0997(2) -0.1566(3)
C2 C 0.3225(2) 0.1341(2) -0.0210(3)
C3 C 0.2835(1) 0.2348(1) -0.0551(2)
O1 O 0.4040(2) 0.0048(1) -0.1252(3)
O2 O 0.3946(1) 0.1354(1) 0.1357(2)
O3 O 0.3664(1) 0.2976(1) -0.0258(2)
O4 O 0.4224(2) 0.4249(1) 0.3438(3)
O5 O 0.4008(1) 0.2254(1) 0.4651(2)
C3F C 0.2165(1) 0.2652(1) 0.0551(2)
C2F C 0.1775(2) 0.3659(2) 0.0210(3)
C1F C 0.1318(2) 0.4003(2) 0.1566(3)
O1F O 0.0960(2) 0.4952(1) 0.1252(3)
O2F O 0.1054(1) 0.3646(1) -0.1357(2)
O3F O 0.1336(1) 0.2024(1) 0.0258(2)
O4A O 0.5776(2) 0.4249(1) 0.1562(3)
O5A O 0.5992(1) 0.2254(1) 0.0349(2)
O2A O 0.6054(1) 0.1354(1) 0.3643(2)
O3A O 0.6336(1) 0.2976(1) 0.5258(2)
Sr1F Sr 0.0000 0.2207(1) -0.2500
Cl1 Cl 0.3126(1) 0.3975(1) 0.6349(1)
loop_
_geom_bond_atom_site_label_1
_geom_bond_atom_site_label_2
_geom_bond_site_symmetry_1
_geom_bond_site_symmetry_2
Sr1 O2 1_555 1_555
C1 C2 1_555 1_555
C2 C3 1_555 1_555
C3 O3 1_555 1_555
O1 C1 1_555 1_555
O2 C2 1_555 1_555
O3 Sr1 1_555 1_555
O4 Sr1 1_555 1_555
O5 Sr1 1_555 1_555
C3F C3 1_555 1_555
C2F C3F 1_555 1_555
C1F C2F 1_555 1_555
O1F C1F 1_555 1_555
O2F C2F 1_555 1_555
O3F C3F 1_555 1_555
O4A Sr1 1_555 1_555
O5A Sr1 1_555 1_555
O2A Sr1 1_555 1_555
O3A Sr1 1_555 1_555
Sr1F O2F 1_555 1_555
O3F Sr1F 1_555 1_555

#END
