
#######################################################################
#
#                 Cambridge Crystallographic Data Centre
#                                CCDC 
#
#######################################################################
#
# If this CIF has been generated from an entry in the Cambridge 
# Structural Database, then it will include bibliographic, chemical, 
# crystal, experimental, refinement or atomic coordinate data resulting 
# from the CCDC's data processing and validation procedures.
#
#######################################################################

data_AKOVUR
_symmetry_cell_setting           monoclinic
_symmetry_space_group_name_H-M   'C 2/c'
_symmetry_Int_Tables_number      15
_space_group_name_Hall           '-C 2yn'
loop_
_symmetry_equiv_pos_site_id
_symmetry_equiv_pos_as_xyz
1 x,y,z
2 -x,y,1/2-z
3 1/2+x,1/2+y,z
4 1/2-x,1/2+y,1/2-z
5 -x,-y,-z
6 x,-y,1/2+z
7 1/2-x,1/2-y,-z
8 1/2+x,1/2-y,1/2+z
_cell_length_a                   20.454(2)
_cell_length_b                   9.973(1)
_cell_length_c                   15.251(2)
_cell_angle_alpha                90
_cell_angle_beta                 125.68(1)
_cell_angle_gamma                90
_cell_volume                     2527.04
loop_
_atom_site_label
_atom_site_type_symbol
_atom_site_fract_x
_atom_site_fract_y
_atom_site_fract_z
Gd1 Gd -0.13827(2) 0.50946(4) 0.26212(3)
O1 O -0.1203(4) 0.7493(6) 0.2348(5)
O2 O -0.0211(3) 0.6564(6) 0.3816(5)
O3 O 0.2417(3) 0.9282(6) 0.5864(4)
O4 O 0.2229(3) 1.0902(5) 0.6670(5)
O5 O -0.1299(4) 1.2617(6) 0.2372(5)
O6 O -0.0182(3) 1.3697(5) 0.3483(5)
C1 C -0.0521(5) 0.7577(8) 0.3240(7)
C2 C 0.1957(5) 1.0117(8) 0.5871(7)
C3 C -0.0567(5) 1.2608(8) 0.3106(6)
C4 C -0.0104(5) 0.8898(8) 0.3624(6)
C5 C 0.0706(5) 0.8940(8) 0.4487(7)
C6 C 0.1099(5) 1.0150(8) 0.4927(6)
C7 C 0.0682(5) 1.1346(8) 0.4495(7)
C8 C -0.0115(5) 1.1311(8) 0.3596(6)
C9 C -0.0510(4) 1.0101(8) 0.3167(6)
O7 O -0.2093(4) 0.6440(6) 0.3141(6)
O8 O -0.1164(4) 0.4135(7) 0.4207(5)
O9 O -0.1066(5) 0.493(1) 0.1322(6)
O3G O -0.2583(3) 0.5718(6) 0.0864(4)
O4G O -0.2771(3) 0.4098(5) 0.1670(5)
O5_2 O -0.1299(4) 0.2617(6) 0.2372(5)
O6_2 O -0.0182(3) 0.3697(5) 0.3483(5)
Gd1G Gd 0.36173(2) 0.99054(4) 0.76212(3)
Gd1_2 Gd -0.13827(2) 1.50946(4) 0.26212(3)
O10 O -0.7522(4) 0.9203(8) -0.5913(6)
O11 O -0.7500 0.2500 0.5000
loop_
_geom_bond_atom_site_label_1
_geom_bond_atom_site_label_2
_geom_bond_site_symmetry_1
_geom_bond_site_symmetry_2
Gd1 O1 1_555 1_555
O1 C1 1_555 1_555
O2 Gd1 1_555 1_555
O3 C2 1_555 1_555
O4 C2 1_555 1_555
O5 C3 1_555 1_555
O6 C3 1_555 1_555
C1 O2 1_555 1_555
C2 C6 1_555 1_555
C3 C8 1_555 1_555
C4 C1 1_555 1_555
C5 C4 1_555 1_555
C6 C5 1_555 1_555
C7 C6 1_555 1_555
C8 C7 1_555 1_555
C9 C4 1_555 1_555
O7 Gd1 1_555 1_555
O8 Gd1 1_555 1_555
O9 Gd1 1_555 1_555
O3G Gd1 1_555 1_555
O4G Gd1 1_555 1_555
O5_2 Gd1 1_555 1_555
O6_2 Gd1 1_555 1_555
Gd1G O3 1_555 1_555
Gd1_2 O5 1_555 1_555
O4 Gd1G 1_555 1_555
O6 Gd1_2 1_555 1_555
C8 C9 1_555 1_555

#END
