
#######################################################################
#
#                 Cambridge Crystallographic Data Centre
#                                CCDC 
#
#######################################################################
#
# If this CIF has been generated from an entry in the Cambridge 
# Structural Database, then it will include bibliographic, chemical, 
# crystal, experimental, refinement or atomic coordinate data resulting 
# from the CCDC's data processing and validation procedures.
#
#######################################################################

data_AKUGOC
_symmetry_cell_setting           monoclinic
_symmetry_space_group_name_H-M   'C 2/c'
_symmetry_Int_Tables_number      15
_space_group_name_Hall           '-C 2yn'
loop_
_symmetry_equiv_pos_site_id
_symmetry_equiv_pos_as_xyz
1 x,y,z
2 1/2+x,1/2+y,z
3 x,-y,1/2+z
4 1/2+x,1/2-y,1/2+z
5 -x,-y,-z
6 1/2-x,1/2-y,-z
7 -x,y,1/2-z
8 1/2-x,1/2+y,1/2-z
_cell_length_a                   25.33(3)
_cell_length_b                   11.655(6)
_cell_length_c                   18.466(8)
_cell_angle_alpha                90
_cell_angle_beta                 123.00(8)
_cell_angle_gamma                90
_cell_volume                     4572.06
loop_
_atom_site_label
_atom_site_type_symbol
_atom_site_fract_x
_atom_site_fract_y
_atom_site_fract_z
Ag1 Ag 0.0000 0.30404(13) -0.2500
N1 N 0.4729(4) 0.0707(8) 0.1354(6)
N2 N 0.4243(4) -0.0750(8) 0.0441(5)
N3 N 0.1677(4) 0.0821(8) -0.0909(6)
N4 N 0.0918(4) 0.2053(9) -0.1790(6)
C1 C 0.4525(5) -0.036(1) 0.1287(7)
C2 C 0.4567(5) 0.1039(9) 0.0535(7)
C3 C 0.4679(6) 0.2066(12) 0.0242(9)
C4 C 0.4475(8) 0.2110(16) -0.0628(12)
C5 C 0.4174(7) 0.114(2) -0.1137(9)
C6 C 0.4060(5) 0.0168(15) -0.0931(7)
C7 C 0.4264(5) 0.015(1) -0.0052(7)
C8 C 0.3946(5) -0.1845(11) 0.0114(8)
C9 C 0.3230(5) -0.1768(9) -0.0406(7)
C10 C 0.2934(5) -0.107(1) -0.0145(7)
C11 C 0.2278(5) -0.0971(11) -0.0615(8)
C12 C 0.1934(6) -0.1630(13) -0.1359(9)
C13 C 0.2243(6) -0.2346(13) -0.162(1)
C14 C 0.2891(6) -0.2405(12) -0.1142(9)
C15 C 0.1960(6) -0.0170(12) -0.0341(9)
C16 C 0.1067(6) 0.1086(12) -0.1328(8)
C17 C 0.1965(5) 0.1637(11) -0.1105(8)
C18 C 0.2584(6) 0.1819(14) -0.0876(9)
C19 C 0.2707(8) 0.2766(16) -0.1197(13)
C20 C 0.2203(9) 0.3520(14) -0.1761(12)
C21 C 0.1610(7) 0.3385(12) -0.1980(9)
C22 C -0.3510(5) 0.2579(11) -0.6659(7)
H1 H 0.4561 -0.0843 0.1780
H2 H 0.4905 0.2759 0.0665
H3 H 0.4569 0.2883 -0.0848
H4 H 0.4032 0.1252 -0.1791
H5 H 0.3851 -0.0455 -0.1350
H6 H 0.4081 -0.2154 -0.0277
H7 H 0.4097 -0.2391 0.0606
H8 H 0.3195 -0.0569 0.0397
H9 H 0.1446 -0.1558 -0.1702
H10 H 0.1963 -0.2812 -0.2165
H11 H 0.3116 -0.2893 -0.1372
H12 H 0.2281 0.0120 0.0280
H13 H 0.1624 -0.0593 -0.0300
H14 H -0.4255 0.4394 -0.6293
H15 H 0.2937 0.1240 -0.0451
H16 H 0.3161 0.2909 -0.1031
H17 H 0.2292 0.4216 -0.2030
H18 H 0.1248 0.3985 -0.2366
Ag1C Ag 0.5000 0.19596(13) 0.2500
N1C N -0.0271(4) 0.4293(8) -0.3646(6)
C1C C -0.0475(5) 0.536(1) -0.3713(7)
N2C N -0.0757(4) 0.5750(8) -0.4559(5)
C7C C -0.0736(5) 0.485(1) -0.5052(7)
C2C C -0.0433(5) 0.3961(9) -0.4465(7)
C3C C -0.0321(6) 0.2934(12) -0.4758(9)
C4C C -0.0525(8) 0.2890(16) -0.5628(12)
C5C C -0.0826(7) 0.386(2) -0.6137(9)
C6C C -0.0940(5) 0.4832(15) -0.5931(7)
H5C H -0.1149 0.5455 -0.6350
H4C H -0.0968 0.3748 -0.6791
H3C H -0.0431 0.2117 -0.5848
H2C H -0.0095 0.2241 -0.4335
C8C C -0.1054(5) 0.6845(11) -0.4886(8)
C9C C -0.1770(5) 0.6768(9) -0.5406(7)
C10C C -0.2066(5) 0.607(1) -0.5145(7)
C11C C -0.2722(5) 0.5971(11) -0.5615(8)
C12C C -0.3066(6) 0.6630(13) -0.6359(9)
C13C C -0.2757(6) 0.7346(13) -0.662(1)
C14C C -0.2109(6) 0.7405(12) -0.6142(9)
H11C H -0.1884 0.7893 -0.6372
H10C H -0.3037 0.7812 -0.7165
H9C H -0.3554 0.6558 -0.6702
C15C C -0.3040(6) 0.5170(12) -0.5341(9)
N3C N -0.3323(4) 0.4179(8) -0.5909(6)
C16C C -0.3933(6) 0.3914(12) -0.6328(8)
N4C N -0.4082(4) 0.2947(9) -0.6790(6)
Ag1C_2 Ag -0.5000 0.19596(13) -0.7500
N4F N -0.0918(4) 0.2053(9) -0.3210(6)
N1E N 0.0271(4) 0.4293(8) -0.1354(6)
C17C C -0.3035(5) 0.3363(11) -0.6105(8)
C18C C -0.2416(6) 0.3181(14) -0.5876(9)
C19C C -0.2293(8) 0.2234(16) -0.6197(13)
C20C C -0.2797(9) 0.1480(14) -0.6761(12)
C21C C -0.3390(7) 0.1615(12) -0.6980(9)
H18C H -0.3752 0.1015 -0.7366
H17C H -0.2708 0.0784 -0.7030
H16C H -0.1839 0.2091 -0.6031
H15C H -0.2063 0.3760 -0.5451
H12C H -0.2719 0.4880 -0.4720
H13C H -0.3376 0.5593 -0.5300
H8C H -0.1805 0.5569 -0.4603
H6C H -0.0919 0.7154 -0.5277
H7C H -0.0903 0.7391 -0.4394
H1C H -0.0439 0.5843 -0.3220
C22C C 0.1490(5) 0.2421(11) -0.1659(7)
H14C H 0.0745 0.0606 -0.1293
F1 F 0.4721(7) -0.3854(14) 0.1785(9)
F2 F 0.4563(5) -0.2520(9) 0.2484(6)
B1 B 0.5000 -0.319(2) 0.2500
F1F F 0.5279(7) -0.3854(14) 0.3215(9)
F2F F 0.5437(5) -0.2520(9) 0.2516(6)
O1 O 0.5868(15) 0.475(3) 0.164(2)
O2 O 0.590(1) 0.4789(18) 0.0552(14)
loop_
_geom_bond_atom_site_label_1
_geom_bond_atom_site_label_2
_geom_bond_site_symmetry_1
_geom_bond_site_symmetry_2
Ag1 N4 1_555 1_555
N1 C1 1_555 1_555
N2 C1 1_555 1_555
N3 C15 1_555 1_555
N4 C16 1_555 1_555
C1 H1 1_555 1_555
C2 N1 1_555 1_555
C3 C2 1_555 1_555
C4 C3 1_555 1_555
C5 C4 1_555 1_555
C6 C5 1_555 1_555
C7 N2 1_555 1_555
C8 N2 1_555 1_555
C9 C8 1_555 1_555
C10 C9 1_555 1_555
C11 C10 1_555 1_555
C12 C11 1_555 1_555
C13 C12 1_555 1_555
C14 C9 1_555 1_555
C15 C11 1_555 1_555
C16 N3 1_555 1_555
C17 N3 1_555 1_555
C18 C17 1_555 1_555
C19 C18 1_555 1_555
C20 C19 1_555 1_555
C21 C20 1_555 1_555
C22 N4C 1_555 1_555
F1 B1 1_555 1_555
F2 B1 1_555 1_555
B1 F1F 1_555 1_555
H2 C3 1_555 1_555
H3 C4 1_555 1_555
H4 C5 1_555 1_555
H5 C6 1_555 1_555
H6 C8 1_555 1_555
H7 C8 1_555 1_555
H8 C10 1_555 1_555
H9 C12 1_555 1_555
H10 C13 1_555 1_555
H11 C14 1_555 1_555
H12 C15 1_555 1_555
H13 C15 1_555 1_555
H14 C16C 1_555 1_555
H15 C18 1_555 1_555
H16 C19 1_555 1_555
H17 C20 1_555 1_555
H18 C21 1_555 1_555
Ag1C N1 1_555 1_555
N1C Ag1 1_555 1_555
C1C N1C 1_555 1_555
N2C C1C 1_555 1_555
C7C N2C 1_555 1_555
C2C N1C 1_555 1_555
C3C C2C 1_555 1_555
C4C C3C 1_555 1_555
C5C C4C 1_555 1_555
C6C C7C 1_555 1_555
H5C C6C 1_555 1_555
H4C C5C 1_555 1_555
H3C C4C 1_555 1_555
H2C C3C 1_555 1_555
C8C N2C 1_555 1_555
C9C C8C 1_555 1_555
C10C C9C 1_555 1_555
C11C C10C 1_555 1_555
C12C C11C 1_555 1_555
C13C C12C 1_555 1_555
C14C C9C 1_555 1_555
H11C C14C 1_555 1_555
H10C C13C 1_555 1_555
H9C C12C 1_555 1_555
C15C C11C 1_555 1_555
N3C C15C 1_555 1_555
C16C N3C 1_555 1_555
N4C C16C 1_555 1_555
Ag1C_2 N4C 1_555 1_555
N4F Ag1 1_555 1_555
N1E Ag1 1_555 1_555
C17C C22 1_555 1_555
C18C C17C 1_555 1_555
C19C C18C 1_555 1_555
C20C C19C 1_555 1_555
C21C C22 1_555 1_555
H18C C21C 1_555 1_555
H17C C20C 1_555 1_555
H16C C19C 1_555 1_555
H15C C18C 1_555 1_555
H12C C15C 1_555 1_555
H13C C15C 1_555 1_555
H8C C10C 1_555 1_555
H6C C8C 1_555 1_555
H7C C8C 1_555 1_555
H1C C1C 1_555 1_555
C22C N4 1_555 1_555
H14C C16 1_555 1_555
F2F B1 1_555 1_555
C2 C7 1_555 1_555
C6 C7 1_555 1_555
C13 C14 1_555 1_555
C17 C22C 1_555 1_555
C21 C22C 1_555 1_555
C7C C2C 1_555 1_555
C5C C6C 1_555 1_555
C13C C14C 1_555 1_555
N3C C17C 1_555 1_555
C20C C21C 1_555 1_555

#END
