
#######################################################################
#
#                 Cambridge Crystallographic Data Centre
#                                CCDC 
#
#######################################################################
#
# If this CIF has been generated from an entry in the Cambridge 
# Structural Database, then it will include bibliographic, chemical, 
# crystal, experimental, refinement or atomic coordinate data resulting 
# from the CCDC's data processing and validation procedures.
#
#######################################################################

data_AKUHOD01
_symmetry_cell_setting           monoclinic
_symmetry_space_group_name_H-M   'C 2/c'
_symmetry_Int_Tables_number      15
_space_group_name_Hall           '-C 2yn'
loop_
_symmetry_equiv_pos_site_id
_symmetry_equiv_pos_as_xyz
1 x,y,z
2 1/2+x,1/2+y,z
3 -x,y,1/2-z
4 1/2-x,1/2+y,1/2-z
5 -x,-y,-z
6 1/2-x,1/2-y,-z
7 x,-y,1/2+z
8 1/2+x,1/2-y,1/2+z
_cell_length_a                   17.099(6)
_cell_length_b                   12.234(2)
_cell_length_c                   11.087(6)
_cell_angle_alpha                90
_cell_angle_beta                 127.49(3)
_cell_angle_gamma                90
_cell_volume                     1840.26
loop_
_atom_site_label
_atom_site_type_symbol
_atom_site_fract_x
_atom_site_fract_y
_atom_site_fract_z
Gd1 Gd 0.216971(15) 0.148575(17) 0.12043(2)
O1 O 0.2262(2) 0.3320(3) 0.2071(4)
O2 O 0.2010(3) 0.4850(3) 0.2847(4)
O3 O 0.1658(3) 0.1440(3) 0.2746(4)
O4 O 0.1287(3) 0.1838(3) 0.4275(4)
O5 O 0.3396(2) 0.2095(3) 0.0921(4)
O6 O 0.4482(2) 0.2589(3) 0.0584(4)
C1 C 0.1880(3) 0.3844(4) 0.2566(5)
C2 C 0.1190(4) 0.3286(4) 0.2780(6)
H1 H 0.0534 0.3315 0.1819
H2 H 0.1176 0.3712 0.3505
C3 C 0.1402(3) 0.2109(4) 0.3315(5)
C4 C 0.4240(3) 0.2009(4) 0.1248(5)
C5 C 0.5000 0.1256(5) 0.2500
H3 H 0.473(3) 0.079(4) 0.281(6)
O7 O 0.1805(3) 0.0649(3) -0.1091(5)
H4 H 0.162(5) 0.002(4) -0.148(7)
H5 H 0.204(4) 0.081(5) -0.149(7)
O8 O 0.3734(3) 0.1794(3) 0.3815(4)
H6 H 0.365(4) 0.221(4) 0.431(6)
H7 H 0.423(3) 0.199(5) 0.388(7)
O9 O 0.0880(3) 0.0067(4) 0.0132(6)
H8 H 0.035(3) 0.007(6) -0.012(8)
H9 H 0.094(5) -0.051(4) -0.014(8)
Gd1C Gd 0.283029(15) -0.351425(17) 0.37957(2)
Gd1C_2 Gd 0.283029(15) 0.648575(17) 0.37957(2)
Gd1E Gd 0.283029(15) 0.351425(17) -0.12043(2)
Gd1G Gd 0.716971(15) 0.351425(17) 0.62043(2)
Gd1B Gd 0.783029(15) 0.148575(17) 0.37957(2)
O1C O 0.2738(2) -0.1680(3) 0.2929(4)
O2C O 0.2990(3) -0.0150(3) 0.2153(4)
O2_2 O 0.2010(3) -0.5150(3) 0.2847(4)
O3C O 0.3342(3) -0.3560(3) 0.2254(4)
O4C O 0.3713(3) -0.3162(3) 0.0725(4)
O5B O 0.6604(2) 0.2095(3) 0.4079(4)
O5E O 0.1604(2) 0.2905(3) -0.0921(4)
O5F O 0.3396(2) -0.2095(3) 0.5921(4)
O5C O 0.1604(2) -0.2905(3) 0.4079(4)
O6B O 0.5518(2) 0.2589(3) 0.4416(4)
O6E O 0.0518(2) 0.2411(3) -0.0584(4)
O6F O 0.4482(2) -0.2589(3) 0.5584(4)
C1C C 0.3120(3) -0.1156(4) 0.2434(5)
C2C C 0.3810(4) -0.1714(4) 0.2220(6)
H1C H 0.4466 -0.1685 0.3181
H2C H 0.3824 -0.1288 0.1495
C3C C 0.3598(3) -0.2891(4) 0.1685(5)
C4B C 0.5760(3) 0.2009(4) 0.3752(5)
H3B H 0.527(3) 0.079(4) 0.219(6)
O7C O 0.3195(3) -0.4351(3) 0.6091(5)
H4C H 0.338(5) -0.498(4) 0.648(7)
H5C H 0.296(4) -0.419(5) 0.649(7)
O8C O 0.1266(3) -0.3206(3) 0.1185(4)
H6C H 0.135(4) -0.279(4) 0.069(6)
H7C H 0.077(3) -0.301(5) 0.112(7)
O9C O 0.4120(3) -0.4933(4) 0.4868(6)
H8C H 0.465(3) -0.493(6) 0.512(8)
H9C H 0.406(5) -0.551(4) 0.514(8)
loop_
_geom_bond_atom_site_label_1
_geom_bond_atom_site_label_2
_geom_bond_site_symmetry_1
_geom_bond_site_symmetry_2
Gd1 O1 1_555 1_555
O1 C1 1_555 1_555
O2 C1 1_555 1_555
O3 Gd1 1_555 1_555
O4 C3 1_555 1_555
O5 Gd1 1_555 1_555
O6 C4 1_555 1_555
C1 C2 1_555 1_555
C2 H1 1_555 1_555
H2 C2 1_555 1_555
C3 O3 1_555 1_555
C4 O5 1_555 1_555
C5 C4 1_555 1_555
H3 C5 1_555 1_555
O7 Gd1 1_555 1_555
H4 O7 1_555 1_555
H5 O7 1_555 1_555
O8 Gd1 1_555 1_555
H6 O8 1_555 1_555
H7 O8 1_555 1_555
O9 Gd1 1_555 1_555
H8 O9 1_555 1_555
H9 O9 1_555 1_555
Gd1C O1C 1_555 1_555
Gd1C_2 O2 1_555 1_555
Gd1E O5 1_555 1_555
Gd1G O5B 1_555 1_555
Gd1B O5B 1_555 1_555
O1C C1C 1_555 1_555
O2C Gd1 1_555 1_555
O2_2 Gd1C 1_555 1_555
O3C Gd1C 1_555 1_555
O4C C3C 1_555 1_555
O5B C4B 1_555 1_555
O5E Gd1 1_555 1_555
O5F Gd1C 1_555 1_555
O5C Gd1C 1_555 1_555
O6B Gd1G 1_555 1_555
O6E Gd1 1_555 1_555
O6F Gd1C 1_555 1_555
C1C O2C 1_555 1_555
C2C C1C 1_555 1_555
H1C C2C 1_555 1_555
H2C C2C 1_555 1_555
C3C O3C 1_555 1_555
C4B C5 1_555 1_555
H3B C5 1_555 1_555
O7C Gd1C 1_555 1_555
H4C O7C 1_555 1_555
H5C O7C 1_555 1_555
O8C Gd1C 1_555 1_555
H6C O8C 1_555 1_555
H7C O8C 1_555 1_555
O9C Gd1C 1_555 1_555
H8C O9C 1_555 1_555
H9C O9C 1_555 1_555
O6 Gd1E 1_555 1_555
C2 C3 1_555 1_555
Gd1E O5E 1_555 1_555
O6B C4B 1_555 1_555
C2C C3C 1_555 1_555

#END
