
#######################################################################
#
#                 Cambridge Crystallographic Data Centre
#                                CCDC 
#
#######################################################################
#
# If this CIF has been generated from an entry in the Cambridge 
# Structural Database, then it will include bibliographic, chemical, 
# crystal, experimental, refinement or atomic coordinate data resulting 
# from the CCDC's data processing and validation procedures.
#
#######################################################################

data_AKURIH01
_symmetry_cell_setting           orthorhombic
_symmetry_space_group_name_H-M   'P c a 21'
_symmetry_Int_Tables_number      29
_space_group_name_Hall           'P 2c -2ac'
loop_
_symmetry_equiv_pos_site_id
_symmetry_equiv_pos_as_xyz
1 x,y,z
2 -x,-y,1/2+z
3 1/2+x,-y,z
4 1/2-x,y,1/2+z
_cell_length_a                   14.3467(7)
_cell_length_b                   15.7777(8)
_cell_length_c                   24.1775(12)
_cell_angle_alpha                90
_cell_angle_beta                 90
_cell_angle_gamma                90
_cell_volume                     5472.77
loop_
_atom_site_label
_atom_site_type_symbol
_atom_site_fract_x
_atom_site_fract_y
_atom_site_fract_z
Ag1 Ag 0.481398(16) 0.492570(15) 0.166651(12)
C1 C 0.2299(3) 0.5301(2) 0.18285(17)
H1 H 0.1744 0.5684 0.1827
C2 C 0.2822(2) 0.6352(2) 0.25334(17)
H2 H 0.2321 0.6742 0.2500
C3 C 0.3565(3) 0.6428(2) 0.28790(17)
H3 H 0.3685 0.6871 0.3135
C4 C 0.4118(2) 0.5707(2) 0.27766(15)
C5 C 0.5004(2) 0.5449(2) 0.30318(14)
C6 C 0.5640(3) 0.6051(2) 0.32142(15)
H4 H 0.5498 0.6637 0.3182
C7 C 0.6486(3) 0.5801(3) 0.34431(16)
H5 H 0.6924 0.6216 0.3558
C8 C 0.6688(3) 0.4964(3) 0.35029(17)
H6 H 0.7263 0.4801 0.3666
C9 C 0.6062(3) 0.4344(2) 0.33285(16)
H7 H 0.6204 0.3760 0.3373
C10 C 0.5230(3) 0.4595(3) 0.30898(15)
H8 H 0.4805 0.4177 0.2963
C11 C 0.2239(3) 0.5605(3) 0.08236(19)
H9 H 0.1669 0.5911 0.0819
C12 C 0.2743(3) 0.5380(3) 0.03733(19)
H10 H 0.2603 0.5496 -0.0003
C13 C 0.3524(3) 0.4935(2) 0.05838(17)
C14 C 0.4303(3) 0.4560(2) 0.02803(15)
C15 C 0.4643(3) 0.4957(3) -0.02012(19)
H11 H 0.4374 0.5473 -0.0326
C16 C 0.5369(3) 0.4591(3) -0.04901(18)
H12 H 0.5598 0.4857 -0.0816
C17 C 0.5766(3) 0.3843(3) -0.03097(19)
H13 H 0.6266 0.3596 -0.0511
C18 C 0.5438(3) 0.3458(3) 0.01608(18)
H14 H 0.5714 0.2945 0.0284
C19 C 0.4705(3) 0.3810(2) 0.04580(18)
H15 H 0.4481 0.3537 0.0782
C20 C 0.7431(3) 0.6249(2) 0.20974(17)
H16 H 0.8045 0.6270 0.2244
C21 C 0.6872(2) 0.6926(2) 0.19929(17)
H17 H 0.7015 0.7506 0.2056
C22 C 0.6041(2) 0.6597(2) 0.17734(15)
C23 C 0.5208(3) 0.7056(2) 0.1578(2)
C24 C 0.4955(3) 0.7810(3) 0.1838(2)
H18 H 0.5312 0.8022 0.2139
C25 C 0.4167(4) 0.8251(3) 0.1651(3)
H19 H 0.3990 0.8767 0.1825
C26 C 0.3653(4) 0.7941(4) 0.1220(3)
H20 H 0.3116 0.8241 0.1100
C27 C 0.3899(3) 0.7217(3) 0.0962(2)
H21 H 0.3535 0.7013 0.0661
C28 C 0.4678(3) 0.6767(3) 0.1132(2)
H22 H 0.4851 0.6262 0.0945
N1 N 0.3730(2) 0.52074(19) 0.23891(13)
N2 N 0.29247(19) 0.5623(2) 0.22458(14)
N3 N 0.3480(2) 0.48866(18) 0.11365(14)
N4 N 0.2682(2) 0.5322(2) 0.12781(15)
N5 N 0.60969(17) 0.57437(18) 0.17421(13)
N6 N 0.19563(18) 0.44600(19) 0.19556(13)
N6B N 0.69563(18) 0.55400(19) 0.19556(13)
C1B C 0.7299(3) 0.4699(2) 0.18285(17)
H1B H 0.6744 0.4316 0.1827
N2B N 0.79247(19) 0.4377(2) 0.22458(14)
C2B C 0.7822(2) 0.3648(2) 0.25334(17)
H2B H 0.7321 0.3258 0.2500
C3B C 0.8565(3) 0.3572(2) 0.28790(17)
H3B H 0.8685 0.3129 0.3135
C4B C 0.9118(2) 0.4293(2) 0.27766(15)
C5B C 1.0004(2) 0.4551(2) 0.30318(14)
C6B C 1.0640(3) 0.3949(2) 0.32142(15)
H4B H 1.0498 0.3363 0.3182
C7B C 1.1486(3) 0.4199(3) 0.34431(16)
H5B H 1.1924 0.3784 0.3558
C8B C 1.1688(3) 0.5036(3) 0.35029(17)
H6B H 1.2263 0.5199 0.3666
C9B C 1.1062(3) 0.5656(2) 0.33285(16)
H7B H 1.1204 0.6240 0.3373
C10B C 1.0230(3) 0.5405(3) 0.30898(15)
H8B H 0.9805 0.5823 0.2963
N1B N 0.8730(2) 0.47926(19) 0.23891(13)
Ag1B Ag 0.981398(16) 0.507430(15) 0.166651(12)
N3B N 0.8480(2) 0.51134(18) 0.11365(14)
C13B C 0.8524(3) 0.5065(2) 0.05838(17)
C12B C 0.7743(3) 0.4620(3) 0.03733(19)
C11B C 0.7239(3) 0.4395(3) 0.08236(19)
H9B H 0.6669 0.4089 0.0819
N4B N 0.7682(2) 0.4678(2) 0.12781(15)
H10B H 0.7603 0.4504 -0.0003
C14B C 0.9303(3) 0.5440(2) 0.02803(15)
C15B C 0.9643(3) 0.5043(3) -0.02012(19)
H11B H 0.9374 0.4527 -0.0326
C16B C 1.0369(3) 0.5409(3) -0.04901(18)
H12B H 1.0598 0.5143 -0.0816
C17B C 1.0766(3) 0.6157(3) -0.03097(19)
H13B H 1.1266 0.6404 -0.0511
C18B C 1.0438(3) 0.6542(3) 0.01608(18)
H14B H 1.0714 0.7055 0.0284
C19B C 0.9705(3) 0.6190(2) 0.04580(18)
H15B H 0.9481 0.6463 0.0782
C20B C 0.2431(3) 0.3751(2) 0.20974(17)
N5B N 0.10969(17) 0.42563(18) 0.17421(13)
H16B H 0.3045 0.3730 0.2244
C21B C 0.1872(2) 0.3074(2) 0.19929(17)
Ag1B_2 Ag -0.018602(16) 0.507430(15) 0.166651(12)
C22B C 0.1041(2) 0.3403(2) 0.17734(15)
H17B H 0.2015 0.2494 0.2056
N1B_2 N -0.1270(2) 0.47926(19) 0.23891(13)
N3B_2 N -0.1520(2) 0.51134(18) 0.11365(14)
C23B C 0.0208(3) 0.2944(2) 0.1578(2)
C24B C -0.0045(3) 0.2190(3) 0.1838(2)
C28B C -0.0322(3) 0.3233(3) 0.1132(2)
H18B H 0.0312 0.1978 0.2139
C25B C -0.0833(4) 0.1749(3) 0.1651(3)
C27B C -0.1101(3) 0.2783(3) 0.0962(2)
H22B H -0.0149 0.3738 0.0945
H19B H -0.1010 0.1233 0.1825
C26B C -0.1347(4) 0.2059(4) 0.1220(3)
H21B H -0.1465 0.2987 0.0661
H20B H -0.1884 0.1759 0.1100
B1 B 0.5285(3) 0.2824(2) 0.1943(2)
F1 F 0.5706(2) 0.34888(17) 0.16532(13)
F2 F 0.43759(18) 0.3061(2) 0.20159(15)
F3 F 0.57176(16) 0.27438(13) 0.24411(9)
F4 F 0.53055(17) 0.21026(13) 0.16434(11)
Ag2 Ag 0.281305(16) 0.016413(15) 0.402323(11)
C29 C 0.5326(2) 0.0407(2) 0.41121(16)
H23 H 0.5939 0.0709 0.4095
C30 C 0.5148(3) 0.1388(2) 0.49085(16)
H24 H 0.5744 0.1649 0.4891
C31 C 0.4474(3) 0.1559(2) 0.52756(16)
H25 H 0.4497 0.1961 0.5568
C32 C 0.3723(2) 0.1022(2) 0.51391(14)
C33 C 0.2798(2) 0.0981(2) 0.54053(15)
C34 C 0.2466(3) 0.1674(2) 0.56916(15)
H26 H 0.2840 0.2168 0.5721
C35 C 0.1586(3) 0.1659(3) 0.59388(16)
H27 H 0.1363 0.2140 0.6135
C36 C 0.1047(3) 0.0945(3) 0.58961(16)
H28 H 0.0442 0.0936 0.6057
C37 C 0.1375(3) 0.0240(3) 0.56215(18)
H29 H 0.1001 -0.0256 0.5600
C38 C 0.2248(3) 0.0250(3) 0.53763(17)
H30 H 0.2473 -0.0238 0.5189
C39 C 0.5226(3) 0.1007(2) 0.31666(16)
H31 H 0.5781 0.1335 0.3174
C40 C 0.4643(3) 0.0923(2) 0.27323(17)
H32 H 0.4699 0.1181 0.2379
C41 C 0.3933(2) 0.0371(2) 0.29141(15)
C42 C 0.3139(3) 0.0057(2) 0.25960(16)
C43 C 0.2766(3) 0.0557(3) 0.21762(17)
H33 H 0.3012 0.1107 0.2112
C44 C 0.2046(4) 0.0264(4) 0.1853(2)
H34 H 0.1783 0.0615 0.1575
C45 C 0.1707(3) -0.0552(4) 0.19388(19)
H35 H 0.1224 -0.0765 0.1708
C46 C 0.2060(3) -0.1053(3) 0.23515(19)
H36 H 0.1817 -0.1607 0.2410
C47 C 0.2778(3) -0.0747(3) 0.26867(18)
H37 H 0.3019 -0.1089 0.2977
C48 C -0.0044(2) 0.1134(2) 0.43171(17)
H38 H -0.0689 0.1088 0.4403
C49 C 0.0455(2) 0.1862(2) 0.42884(17)
H39 H 0.0234 0.2422 0.4351
C50 C 0.1361(2) 0.1623(2) 0.41474(14)
C51 C 0.2194(2) 0.2165(2) 0.4092(2)
C52 C 0.2364(3) 0.2777(2) 0.44866(16)
H40 H 0.1937 0.2861 0.4782
C53 C 0.3169(3) 0.3274(3) 0.44500(19)
H41 H 0.3296 0.3689 0.4725
C54 C 0.3774(3) 0.3163(3) 0.4019(2)
H42 H 0.4323 0.3499 0.3998
C55 C 0.3601(3) 0.2578(3) 0.3620(2)
H43 H 0.4023 0.2516 0.3320
C56 C 0.2807(3) 0.2067(2) 0.36477(19)
H44 H 0.2686 0.1659 0.3368
N7 N 0.39387(18) 0.05338(19) 0.47040(13)
N8 N 0.48243(19) 0.07763(18) 0.45679(12)
N9 N 0.4072(2) 0.01349(17) 0.34380(13)
N10 N 0.48828(19) 0.05455(17) 0.35877(13)
N11 N 0.14150(16) 0.07755(16) 0.40827(13)
N12 N 0.55405(18) -0.04851(17) 0.42009(12)
N12B N 0.05405(18) 0.04851(17) 0.42009(12)
C29B C 0.0326(2) -0.0407(2) 0.41121(16)
H23B H 0.0939 -0.0709 0.4095
N8B N -0.01757(19) -0.07763(18) 0.45679(12)
C30B C 0.0148(3) -0.1388(2) 0.49085(16)
H24B H 0.0744 -0.1649 0.4891
C31B C -0.0526(3) -0.1559(2) 0.52756(16)
H25B H -0.0503 -0.1961 0.5568
C32B C -0.1277(2) -0.1022(2) 0.51391(14)
C33B C -0.2202(2) -0.0981(2) 0.54053(15)
C34B C -0.2534(3) -0.1674(2) 0.56916(15)
H26B H -0.2160 -0.2168 0.5721
C35B C -0.3414(3) -0.1659(3) 0.59388(16)
H27B H -0.3637 -0.2140 0.6135
C36B C -0.3953(3) -0.0945(3) 0.58961(16)
H28B H -0.4558 -0.0936 0.6057
C37B C -0.3625(3) -0.0240(3) 0.56215(18)
H29B H -0.3999 0.0256 0.5600
C38B C -0.2752(3) -0.0250(3) 0.53763(17)
H30B H -0.2527 0.0238 0.5189
N7B N -0.10613(18) -0.05338(19) 0.47040(13)
Ag2B Ag -0.218695(16) -0.016413(15) 0.402323(11)
N9B N -0.0928(2) -0.01349(17) 0.34380(13)
C41B C -0.1067(2) -0.0371(2) 0.29141(15)
C40B C -0.0357(3) -0.0923(2) 0.27323(17)
C39B C 0.0226(3) -0.1007(2) 0.31666(16)
H31B H 0.0781 -0.1335 0.3174
N10B N -0.01172(19) -0.05455(17) 0.35877(13)
H32B H -0.0301 -0.1181 0.2379
C42B C -0.1861(3) -0.0057(2) 0.25960(16)
C43B C -0.2234(3) -0.0557(3) 0.21762(17)
H33B H -0.1988 -0.1107 0.2112
C44B C -0.2954(4) -0.0264(4) 0.1853(2)
H34B H -0.3217 -0.0615 0.1575
C45B C -0.3293(3) 0.0552(4) 0.19388(19)
H35B H -0.3776 0.0765 0.1708
C46B C -0.2940(3) 0.1053(3) 0.23515(19)
H36B H -0.3183 0.1607 0.2410
C47B C -0.2222(3) 0.0747(3) 0.26867(18)
H37B H -0.1981 0.1089 0.2977
C48B C 0.4956(2) -0.1134(2) 0.43171(17)
N11B N 0.64150(16) -0.07755(16) 0.40827(13)
H38B H 0.4311 -0.1088 0.4403
C49B C 0.5455(2) -0.1862(2) 0.42884(17)
Ag2B_2 Ag 0.781305(16) -0.016413(15) 0.402323(11)
C50B C 0.6361(2) -0.1623(2) 0.41474(14)
H39B H 0.5234 -0.2422 0.4351
N7B_2 N 0.89387(18) -0.05338(19) 0.47040(13)
N9B_2 N 0.9072(2) -0.01349(17) 0.34380(13)
C51B C 0.7194(2) -0.2165(2) 0.4092(2)
C52B C 0.7364(3) -0.2777(2) 0.44866(16)
C56B C 0.7807(3) -0.2067(2) 0.36477(19)
H40B H 0.6937 -0.2861 0.4782
C53B C 0.8169(3) -0.3274(3) 0.44500(19)
C55B C 0.8601(3) -0.2578(3) 0.3620(2)
H44B H 0.7686 -0.1659 0.3368
H41B H 0.8296 -0.3689 0.4725
C54B C 0.8774(3) -0.3163(3) 0.4019(2)
H43B H 0.9023 -0.2516 0.3320
H42B H 0.9323 -0.3499 0.3998
B2 B 0.2376(3) -0.2128(3) 0.4173(3)
F5 F 0.2353(2) -0.13136(16) 0.43878(15)
F6 F 0.2139(2) -0.26982(19) 0.45517(16)
F7 F 0.32301(17) -0.22830(16) 0.39489(13)
F8 F 0.1718(3) -0.2142(2) 0.37597(19)
loop_
_geom_bond_atom_site_label_1
_geom_bond_atom_site_label_2
_geom_bond_site_symmetry_1
_geom_bond_site_symmetry_2
Ag1 N1 1_555 1_555
C1 H1 1_555 1_555
C2 H2 1_555 1_555
C3 C2 1_555 1_555
H3 C3 1_555 1_555
C4 C3 1_555 1_555
C5 C4 1_555 1_555
C6 C5 1_555 1_555
H4 C6 1_555 1_555
C7 C6 1_555 1_555
H5 C7 1_555 1_555
C8 C7 1_555 1_555
H6 C8 1_555 1_555
C9 C8 1_555 1_555
H7 C9 1_555 1_555
C10 C5 1_555 1_555
H8 C10 1_555 1_555
C11 H9 1_555 1_555
C12 C11 1_555 1_555
H10 C12 1_555 1_555
C13 C12 1_555 1_555
C14 C13 1_555 1_555
C15 C14 1_555 1_555
H11 C15 1_555 1_555
C16 C15 1_555 1_555
H12 C16 1_555 1_555
C17 C16 1_555 1_555
H13 C17 1_555 1_555
C18 C17 1_555 1_555
H14 C18 1_555 1_555
C19 C14 1_555 1_555
H15 C19 1_555 1_555
C20 H16 1_555 1_555
C21 C20 1_555 1_555
H17 C21 1_555 1_555
C22 C21 1_555 1_555
C23 C22 1_555 1_555
C24 C23 1_555 1_555
H18 C24 1_555 1_555
C25 C24 1_555 1_555
H19 C25 1_555 1_555
C26 C25 1_555 1_555
H20 C26 1_555 1_555
C27 C26 1_555 1_555
H21 C27 1_555 1_555
C28 C23 1_555 1_555
H22 C28 1_555 1_555
N1 C4 1_555 1_555
N2 C1 1_555 1_555
N3 Ag1 1_555 1_555
N4 C1 1_555 1_555
N5 Ag1 1_555 1_555
N6 C1 1_555 1_555
B1 F1 1_555 1_555
F2 B1 1_555 1_555
F3 B1 1_555 1_555
F4 B1 1_555 1_555
Ag2 N7 1_555 1_555
C29 H23 1_555 1_555
C30 H24 1_555 1_555
C31 C30 1_555 1_555
H25 C31 1_555 1_555
C32 C31 1_555 1_555
C33 C32 1_555 1_555
C34 C33 1_555 1_555
H26 C34 1_555 1_555
C35 C34 1_555 1_555
H27 C35 1_555 1_555
C36 C35 1_555 1_555
H28 C36 1_555 1_555
C37 C36 1_555 1_555
H29 C37 1_555 1_555
C38 C33 1_555 1_555
H30 C38 1_555 1_555
C39 H31 1_555 1_555
C40 C39 1_555 1_555
H32 C40 1_555 1_555
C41 C40 1_555 1_555
C42 C41 1_555 1_555
C43 C42 1_555 1_555
H33 C43 1_555 1_555
C44 C43 1_555 1_555
H34 C44 1_555 1_555
C45 C44 1_555 1_555
H35 C45 1_555 1_555
C46 C45 1_555 1_555
H36 C46 1_555 1_555
C47 C42 1_555 1_555
H37 C47 1_555 1_555
C48 H38 1_555 1_555
C49 C48 1_555 1_555
H39 C49 1_555 1_555
C50 C49 1_555 1_555
C51 C50 1_555 1_555
C52 C51 1_555 1_555
H40 C52 1_555 1_555
C53 C52 1_555 1_555
H41 C53 1_555 1_555
C54 C53 1_555 1_555
H42 C54 1_555 1_555
C55 C54 1_555 1_555
H43 C55 1_555 1_555
C56 C51 1_555 1_555
H44 C56 1_555 1_555
N7 C32 1_555 1_555
N8 C29 1_555 1_555
N9 Ag2 1_555 1_555
N10 C29 1_555 1_555
N11 Ag2 1_555 1_555
N12 C29 1_555 1_555
B2 F5 1_555 1_555
F6 B2 1_555 1_555
F7 B2 1_555 1_555
F8 B2 1_555 1_555
N6B C20 1_555 1_555
C1B N6B 1_555 1_555
H1B C1B 1_555 1_555
N2B C1B 1_555 1_555
C2B N2B 1_555 1_555
H2B C2B 1_555 1_555
C3B C2B 1_555 1_555
H3B C3B 1_555 1_555
C4B C3B 1_555 1_555
C5B C4B 1_555 1_555
C6B C5B 1_555 1_555
H4B C6B 1_555 1_555
C7B C6B 1_555 1_555
H5B C7B 1_555 1_555
C8B C7B 1_555 1_555
H6B C8B 1_555 1_555
C9B C8B 1_555 1_555
H7B C9B 1_555 1_555
C10B C5B 1_555 1_555
H8B C10B 1_555 1_555
N1B N2B 1_555 1_555
Ag1B N1B 1_555 1_555
N3B Ag1B 1_555 1_555
C13B N3B 1_555 1_555
C12B C13B 1_555 1_555
C11B C12B 1_555 1_555
H9B C11B 1_555 1_555
N4B C1B 1_555 1_555
H10B C12B 1_555 1_555
C14B C13B 1_555 1_555
C15B C14B 1_555 1_555
H11B C15B 1_555 1_555
C16B C15B 1_555 1_555
H12B C16B 1_555 1_555
C17B C16B 1_555 1_555
H13B C17B 1_555 1_555
C18B C17B 1_555 1_555
H14B C18B 1_555 1_555
C19B C14B 1_555 1_555
H15B C19B 1_555 1_555
C20B N6 1_555 1_555
N5B N6 1_555 1_555
N12B C48 1_555 1_555
C29B N12B 1_555 1_555
H23B C29B 1_555 1_555
N8B C29B 1_555 1_555
C30B N8B 1_555 1_555
H24B C30B 1_555 1_555
C31B C30B 1_555 1_555
H25B C31B 1_555 1_555
C32B C31B 1_555 1_555
C33B C32B 1_555 1_555
C34B C33B 1_555 1_555
H26B C34B 1_555 1_555
C35B C34B 1_555 1_555
H27B C35B 1_555 1_555
C36B C35B 1_555 1_555
H28B C36B 1_555 1_555
C37B C36B 1_555 1_555
H29B C37B 1_555 1_555
C38B C33B 1_555 1_555
H30B C38B 1_555 1_555
N7B N8B 1_555 1_555
Ag2B N7B 1_555 1_555
N9B Ag2B 1_555 1_555
C41B N9B 1_555 1_555
C40B C41B 1_555 1_555
C39B C40B 1_555 1_555
H31B C39B 1_555 1_555
N10B C29B 1_555 1_555
H32B C40B 1_555 1_555
C42B C41B 1_555 1_555
C43B C42B 1_555 1_555
H33B C43B 1_555 1_555
C44B C43B 1_555 1_555
H34B C44B 1_555 1_555
C45B C44B 1_555 1_555
H35B C45B 1_555 1_555
C46B C45B 1_555 1_555
H36B C46B 1_555 1_555
C47B C42B 1_555 1_555
H37B C47B 1_555 1_555
C48B N12 1_555 1_555
N11B N12 1_555 1_555
H16B C20B 1_555 1_555
C21B C20B 1_555 1_555
Ag1B_2 N5B 1_555 1_555
C22B N5B 1_555 1_555
H38B C48B 1_555 1_555
C49B C48B 1_555 1_555
Ag2B_2 N11B 1_555 1_555
C50B N11B 1_555 1_555
H17B C21B 1_555 1_555
N1B_2 Ag1B_2 1_555 1_555
N3B_2 Ag1B_2 1_555 1_555
C23B C22B 1_555 1_555
H39B C49B 1_555 1_555
N7B_2 Ag2B_2 1_555 1_555
N9B_2 Ag2B_2 1_555 1_555
C51B C50B 1_555 1_555
C24B C23B 1_555 1_555
C28B C23B 1_555 1_555
C52B C51B 1_555 1_555
C56B C51B 1_555 1_555
H18B C24B 1_555 1_555
C25B C24B 1_555 1_555
C27B C28B 1_555 1_555
H22B C28B 1_555 1_555
H40B C52B 1_555 1_555
C53B C52B 1_555 1_555
C55B C56B 1_555 1_555
H44B C56B 1_555 1_555
H19B C25B 1_555 1_555
C26B C25B 1_555 1_555
H21B C27B 1_555 1_555
H41B C53B 1_555 1_555
C54B C53B 1_555 1_555
H43B C55B 1_555 1_555
H20B C26B 1_555 1_555
H42B C54B 1_555 1_555
C2 N2 1_555 1_555
C9 C10 1_555 1_555
C11 N4 1_555 1_555
C13 N3 1_555 1_555
C18 C19 1_555 1_555
C22 N5 1_555 1_555
C27 C28 1_555 1_555
N1 N2 1_555 1_555
N3 N4 1_555 1_555
N5 N6B 1_555 1_555
C30 N8 1_555 1_555
C37 C38 1_555 1_555
C39 N10 1_555 1_555
C41 N9 1_555 1_555
C46 C47 1_555 1_555
C50 N11 1_555 1_555
C55 C56 1_555 1_555
N7 N8 1_555 1_555
N9 N10 1_555 1_555
N11 N12B 1_555 1_555
C4B N1B 1_555 1_555
C9B C10B 1_555 1_555
N3B N4B 1_555 1_555
C11B N4B 1_555 1_555
C18B C19B 1_555 1_555
C32B N7B 1_555 1_555
C37B C38B 1_555 1_555
N9B N10B 1_555 1_555
C39B N10B 1_555 1_555
C46B C47B 1_555 1_555
C21B C22B 1_555 1_555
C49B C50B 1_555 1_555
C27B C26B 1_555 1_555
C55B C54B 1_555 1_555

#END
