
#######################################################################
#
#                 Cambridge Crystallographic Data Centre
#                                CCDC 
#
#######################################################################
#
# If this CIF has been generated from an entry in the Cambridge 
# Structural Database, then it will include bibliographic, chemical, 
# crystal, experimental, refinement or atomic coordinate data resulting 
# from the CCDC's data processing and validation procedures.
#
#######################################################################

data_AKURIH
_symmetry_cell_setting           triclinic
_symmetry_space_group_name_H-M   'P -1'
_symmetry_Int_Tables_number      2
_space_group_name_Hall           '-P 1'
loop_
_symmetry_equiv_pos_site_id
_symmetry_equiv_pos_as_xyz
1 x,y,z
2 -x,-y,-z
_cell_length_a                   12.3992(6)
_cell_length_b                   13.9575(7)
_cell_length_c                   16.4625(8)
_cell_angle_alpha                93.2900(10)
_cell_angle_beta                 95.2510(10)
_cell_angle_gamma                109.9850(10)
_cell_volume                     2654.24
loop_
_atom_site_label
_atom_site_type_symbol
_atom_site_fract_x
_atom_site_fract_y
_atom_site_fract_z
Ag1 Ag 0.28821(2) 0.333628(19) 0.276750(17)
C1 C 0.2606(3) 0.0752(2) 0.3076(2)
H1 H 0.2719 0.0192 0.3386
C2 C 0.4738(3) 0.1547(3) 0.3483(2)
H2 H 0.4824 0.1100 0.3877
C3 C 0.5602(3) 0.2331(3) 0.3231(2)
H3 H 0.6403 0.2547 0.3420
C4 C 0.5068(3) 0.2754(3) 0.2637(2)
C5 C 0.5599(3) 0.3566(3) 0.2112(2)
C6 C 0.6622(3) 0.4359(3) 0.2408(3)
H4 H 0.6959 0.4388 0.2955
C7 C 0.7152(4) 0.5104(3) 0.1912(3)
H5 H 0.7844 0.5648 0.2122
C8 C 0.6681(4) 0.5062(3) 0.1119(3)
H6 H 0.7052 0.5571 0.0777
C9 C 0.5678(4) 0.4286(3) 0.0821(3)
H7 H 0.5350 0.4260 0.0272
C10 C 0.5133(3) 0.3535(3) 0.1314(2)
H8 H 0.4436 0.2998 0.1101
C11 C 0.1297(3) 0.0733(3) 0.4139(2)
H9 H 0.1388 0.0185 0.4420
C12 C 0.0602(4) 0.1270(3) 0.4312(2)
H10 H 0.0106 0.1168 0.4731
C13 C 0.0764(3) 0.2004(3) 0.3749(2)
C14 C 0.0247(3) 0.2809(3) 0.3682(2)
C15 C -0.0195(3) 0.3115(3) 0.4352(3)
H11 H -0.0194 0.2785 0.4841
C16 C -0.0640(4) 0.3902(3) 0.4311(3)
H12 H -0.0942 0.4111 0.4772
C17 C -0.0644(4) 0.4372(3) 0.3610(3)
H13 H -0.0925 0.4924 0.3591
C18 C -0.0245(3) 0.4058(3) 0.2932(3)
H14 H -0.0278 0.4375 0.2440
C19 C 0.0205(3) 0.3280(3) 0.2964(2)
H15 H 0.0486 0.3067 0.2494
C20 C 0.1510(3) 0.0644(3) 0.1677(2)
H16 H 0.1194 0.1167 0.1765
C21 C 0.1445(3) 0.0103(3) 0.0954(2)
H17 H 0.1063 0.0160 0.0441
C22 C 0.2056(3) -0.0556(3) 0.1117(2)
C23 C 0.2219(3) -0.1332(3) 0.0547(2)
C24 C 0.1302(3) -0.1957(3) -0.0004(2)
H18 H 0.0571 -0.1874 -0.0018
C25 C 0.1438(4) -0.2704(3) -0.0536(2)
H19 H 0.0803 -0.3135 -0.0908
C26 C 0.2504(4) -0.2817(3) -0.0521(3)
H20 H 0.2606 -0.3321 -0.0888
C27 C 0.3410(4) -0.2206(4) 0.0022(3)
H21 H 0.4136 -0.2296 0.0037
C28 C 0.3284(4) -0.1459(3) 0.0549(2)
H22 H 0.3926 -0.1030 0.0916
N1 N 0.3919(2) 0.2260(2) 0.25364(17)
N2 N 0.3737(2) 0.1522(2) 0.30709(17)
N3 N 0.1514(2) 0.1916(2) 0.32421(18)
N4 N 0.1834(2) 0.1127(2) 0.34940(17)
N5 N 0.2477(2) -0.0424(2) 0.19077(17)
N6 N 0.2109(2) 0.0304(2) 0.22520(17)
Ag2 Ag 0.31289(2) -0.15743(2) 0.243785(17)
C29 C 0.2872(3) 0.5759(2) 0.2331(2)
H23 H 0.2781 0.5072 0.2060
C30 C 0.4704(3) 0.6201(3) 0.1712(2)
H24 H 0.4638 0.5526 0.1522
C31 C 0.5599(3) 0.7078(3) 0.1639(3)
H25 H 0.6272 0.7139 0.1383
C32 C 0.5320(3) 0.7870(3) 0.2022(2)
C33 C 0.6008(3) 0.8973(3) 0.2121(2)
C34 C 0.6536(3) 0.9430(3) 0.1468(2)
H26 H 0.6414 0.9046 0.0952
C35 C 0.7237(4) 1.0442(3) 0.1568(3)
H27 H 0.7589 1.0758 0.1117
C36 C 0.7435(4) 1.1005(3) 0.2320(3)
H28 H 0.7933 1.1701 0.2387
C37 C 0.6914(3) 1.0558(3) 0.2968(3)
H29 H 0.7052 1.0944 0.3485
C38 C 0.6183(3) 0.9542(3) 0.2871(2)
H30 H 0.5804 0.9237 0.3317
C39 C 0.1137(3) 0.5528(3) 0.1349(2)
H31 H 0.1185 0.4991 0.0989
C40 C 0.0320(3) 0.5975(3) 0.1274(2)
H32 H -0.0311 0.5818 0.0855
C41 C 0.0608(3) 0.6718(3) 0.1947(2)
C42 C 0.0006(3) 0.7426(3) 0.2172(2)
C43 C -0.0667(3) 0.7702(3) 0.1578(2)
H33 H -0.0750 0.7423 0.1026
C44 C -0.1219(3) 0.8375(3) 0.1773(3)
H34 H -0.1670 0.8563 0.1356
C45 C -0.1118(3) 0.8773(3) 0.2570(3)
H35 H -0.1496 0.9238 0.2708
C46 C -0.0464(3) 0.8493(3) 0.3167(3)
H36 H -0.0396 0.8763 0.3720
C47 C 0.0100(3) 0.7818(3) 0.2971(2)
H37 H 0.0548 0.7628 0.3388
C48 C 0.2958(3) 0.6333(3) 0.3836(2)
H38 H 0.2894 0.6989 0.3797
C49 C 0.3086(3) 0.5896(3) 0.4537(2)
H39 H 0.3121 0.6180 0.5081
C50 C 0.3157(3) 0.4940(3) 0.4294(2)
C51 C 0.3286(3) 0.4161(3) 0.4826(2)
C52 C 0.2747(4) 0.4045(3) 0.5531(2)
H40 H 0.2307 0.4461 0.5658
C53 C 0.2840(4) 0.3329(3) 0.6055(3)
H41 H 0.2474 0.3261 0.6541
C54 C 0.3461(4) 0.2717(3) 0.5870(3)
H42 H 0.3515 0.2217 0.6224
C55 C 0.4005(4) 0.2825(3) 0.5176(2)
H43 H 0.4436 0.2400 0.5051
C56 C 0.3931(3) 0.3553(3) 0.4655(2)
H44 H 0.4323 0.3633 0.4180
N7 N 0.4298(2) 0.7507(2) 0.23102(17)
N8 N 0.3934(2) 0.6473(2) 0.21034(18)
N9 N 0.1565(2) 0.6740(2) 0.24024(18)
N10 N 0.1863(2) 0.5984(2) 0.20258(17)
N11 N 0.3080(2) 0.4803(2) 0.34731(17)
N12 N 0.2937(2) 0.5666(2) 0.32052(17)
N7_2 N 0.4298(2) -0.2493(2) 0.23102(17)
N9_2 N 0.1565(2) -0.3260(2) 0.24024(18)
Ag2_2 Ag 0.31289(2) 0.84257(2) 0.243785(17)
B1 B 0.2002(4) 0.3223(3) 0.0702(3)
F1 F 0.2898(2) 0.3949(2) 0.12023(19)
F2 F 0.1262(3) 0.2670(2) 0.12165(19)
F3 F 0.2402(2) 0.26163(19) 0.02310(15)
F4 F 0.1419(2) 0.37123(17) 0.02239(13)
B2 B 0.3067(4) -0.0977(4) 0.4697(3)
F5 F 0.3396(4) -0.1019(2) 0.39238(17)
F6 F 0.3388(2) -0.16532(19) 0.51447(15)
F7 F 0.3567(2) 0.00069(19) 0.50390(17)
F8 F 0.1885(3) -0.1237(2) 0.4636(2)
loop_
_geom_bond_atom_site_label_1
_geom_bond_atom_site_label_2
_geom_bond_site_symmetry_1
_geom_bond_site_symmetry_2
Ag1 N1 1_555 1_555
C1 H1 1_555 1_555
C2 H2 1_555 1_555
C3 C2 1_555 1_555
H3 C3 1_555 1_555
C4 C3 1_555 1_555
C5 C4 1_555 1_555
C6 C5 1_555 1_555
H4 C6 1_555 1_555
C7 C6 1_555 1_555
H5 C7 1_555 1_555
C8 C7 1_555 1_555
H6 C8 1_555 1_555
C9 C8 1_555 1_555
H7 C9 1_555 1_555
C10 C5 1_555 1_555
H8 C10 1_555 1_555
C11 H9 1_555 1_555
C12 C11 1_555 1_555
H10 C12 1_555 1_555
C13 C12 1_555 1_555
C14 C13 1_555 1_555
C15 C14 1_555 1_555
H11 C15 1_555 1_555
C16 C15 1_555 1_555
H12 C16 1_555 1_555
C17 C16 1_555 1_555
H13 C17 1_555 1_555
C18 C17 1_555 1_555
H14 C18 1_555 1_555
C19 C14 1_555 1_555
H15 C19 1_555 1_555
C20 H16 1_555 1_555
C21 C20 1_555 1_555
H17 C21 1_555 1_555
C22 C21 1_555 1_555
C23 C22 1_555 1_555
C24 C23 1_555 1_555
H18 C24 1_555 1_555
C25 C24 1_555 1_555
H19 C25 1_555 1_555
C26 C25 1_555 1_555
H20 C26 1_555 1_555
C27 C26 1_555 1_555
H21 C27 1_555 1_555
C28 C23 1_555 1_555
H22 C28 1_555 1_555
N1 C4 1_555 1_555
N2 C1 1_555 1_555
N3 Ag1 1_555 1_555
N4 C1 1_555 1_555
N5 C22 1_555 1_555
N6 C1 1_555 1_555
B1 F1 1_555 1_555
F2 B1 1_555 1_555
F3 B1 1_555 1_555
F4 B1 1_555 1_555
Ag2 N5 1_555 1_555
C29 H23 1_555 1_555
C30 H24 1_555 1_555
C31 C30 1_555 1_555
H25 C31 1_555 1_555
C32 C31 1_555 1_555
C33 C32 1_555 1_555
C34 C33 1_555 1_555
H26 C34 1_555 1_555
C35 C34 1_555 1_555
H27 C35 1_555 1_555
C36 C35 1_555 1_555
H28 C36 1_555 1_555
C37 C36 1_555 1_555
H29 C37 1_555 1_555
C38 C33 1_555 1_555
H30 C38 1_555 1_555
C39 H31 1_555 1_555
C40 C39 1_555 1_555
H32 C40 1_555 1_555
C41 C40 1_555 1_555
C42 C41 1_555 1_555
C43 C42 1_555 1_555
H33 C43 1_555 1_555
C44 C43 1_555 1_555
H34 C44 1_555 1_555
C45 C44 1_555 1_555
H35 C45 1_555 1_555
C46 C45 1_555 1_555
H36 C46 1_555 1_555
C47 C42 1_555 1_555
H37 C47 1_555 1_555
C48 H38 1_555 1_555
C49 C48 1_555 1_555
H39 C49 1_555 1_555
C50 C49 1_555 1_555
C51 C50 1_555 1_555
C52 C51 1_555 1_555
H40 C52 1_555 1_555
C53 C52 1_555 1_555
H41 C53 1_555 1_555
C54 C53 1_555 1_555
H42 C54 1_555 1_555
C55 C54 1_555 1_555
H43 C55 1_555 1_555
C56 C51 1_555 1_555
H44 C56 1_555 1_555
N7 C32 1_555 1_555
N8 C29 1_555 1_555
N9 C41 1_555 1_555
N10 C29 1_555 1_555
N11 Ag1 1_555 1_555
N12 C29 1_555 1_555
B2 F5 1_555 1_555
F6 B2 1_555 1_555
F7 B2 1_555 1_555
F8 B2 1_555 1_555
N7_2 Ag2 1_555 1_555
N9_2 Ag2 1_555 1_555
Ag2_2 N7 1_555 1_555
C2 N2 1_555 1_555
C9 C10 1_555 1_555
C11 N4 1_555 1_555
C13 N3 1_555 1_555
C18 C19 1_555 1_555
C20 N6 1_555 1_555
C27 C28 1_555 1_555
N1 N2 1_555 1_555
N3 N4 1_555 1_555
N5 N6 1_555 1_555
C30 N8 1_555 1_555
C37 C38 1_555 1_555
C39 N10 1_555 1_555
C46 C47 1_555 1_555
C48 N12 1_555 1_555
C50 N11 1_555 1_555
C55 C56 1_555 1_555
N7 N8 1_555 1_555
N9 N10 1_555 1_555
N9 Ag2_2 1_555 1_555
N11 N12 1_555 1_555

#END
