
#######################################################################
#
#                 Cambridge Crystallographic Data Centre
#                                CCDC 
#
#######################################################################
#
# If this CIF has been generated from an entry in the Cambridge 
# Structural Database, then it will include bibliographic, chemical, 
# crystal, experimental, refinement or atomic coordinate data resulting 
# from the CCDC's data processing and validation procedures.
#
#######################################################################

data_ALALUU01
_symmetry_cell_setting           monoclinic
_symmetry_space_group_name_H-M   'I 2/a'
_symmetry_Int_Tables_number      15
_space_group_name_Hall           '-I 2ya'
loop_
_symmetry_equiv_pos_site_id
_symmetry_equiv_pos_as_xyz
1 x,y,z
2 1/2-x,y,-z
3 1/2+x,1/2+y,1/2+z
4 -x,1/2+y,1/2-z
5 -x,-y,-z
6 1/2+x,-y,z
7 1/2-x,1/2-y,1/2-z
8 x,1/2-y,1/2+z
_cell_length_a                   13.722(7)
_cell_length_b                   12.426(7)
_cell_length_c                   11.245(7)
_cell_angle_alpha                90
_cell_angle_beta                 93.01(2)
_cell_angle_gamma                90
_cell_volume                     1914.73
loop_
_atom_site_label
_atom_site_type_symbol
_atom_site_fract_x
_atom_site_fract_y
_atom_site_fract_z
Pr1 Pr 0.466580(13) 0.396941(13) 0.346656(15)
O1 O 0.3341(3) 0.2525(3) 0.3285(4)
H1 H 0.345(4) 0.194(3) 0.361(5)
H2 H 0.277(2) 0.263(5) 0.346(6)
O2 O 0.6254(2) 0.4291(3) 0.2411(3)
O3 O 0.4319(3) 0.3131(3) 0.5458(3)
O4 O 0.4118(2) 0.39477(17) 0.1381(2)
O5 O 0.4495(2) 0.7311(2) 0.1638(3)
O6 O 0.4753(2) 0.5809(2) 0.2652(2)
O7 O 0.40844(16) 0.54071(19) 0.4996(2)
O8 O 0.29909(17) 0.4938(2) 0.3601(2)
C1 C 0.3885(3) 0.4610(3) 0.0568(3)
O9 O 0.3779(2) 0.4351(2) -0.0499(2)
C2 C 0.3690(3) 0.5769(3) 0.0886(3)
C3 C 0.4370(2) 0.6320(3) 0.1790(3)
C4 C 0.3244(2) 0.5495(3) 0.4492(3)
C5 C 0.2500 0.6251(4) 0.5000
H3 H 0.672(5) 0.451(5) 0.285(6)
H4 H 0.624(4) 0.468(4) 0.185(5)
H5 H 0.452(5) 0.340(6) 0.607(6)
H6 H 0.424(5) 0.259(5) 0.563(5)
H7 H 0.309(3) 0.577(3) 0.126(4)
H8 H 0.368(4) 0.624(4) 0.017(5)
H9 H 0.218(3) 0.667(3) 0.441(3)
Pr1C Pr 0.533420(13) 0.896941(13) 0.153344(15)
Pr1D Pr 0.533420(13) 0.603059(13) 0.653344(15)
Pr1A Pr 0.033420(13) 0.396941(13) 0.653344(15)
Pr1E Pr -0.033420(13) 0.603059(13) 0.346656(15)
Pr1B Pr -0.033420(13) 0.896941(13) 0.846656(15)
O1A O 0.1659(3) 0.2525(3) 0.6715(4)
H1A H 0.155(4) 0.194(3) 0.639(5)
H2A H 0.223(2) 0.263(5) 0.654(6)
O2A O -0.1254(2) 0.4291(3) 0.7589(3)
O3A O 0.0681(3) 0.3131(3) 0.4542(3)
O4A O 0.0882(2) 0.39477(17) 0.8619(2)
O5C O 0.5505(2) 0.2311(2) 0.3362(3)
O5B O -0.0505(2) 0.2311(2) 0.6638(3)
O5A O 0.0505(2) 0.7311(2) 0.8362(3)
O6A O 0.0247(2) 0.5809(2) 0.7348(2)
O7A O 0.09156(16) 0.54071(19) 0.5004(2)
O7D O 0.59156(16) 0.45929(19) 0.5004(2)
O7E O -0.09156(16) 0.45929(19) 0.4996(2)
O8A O 0.20091(17) 0.4938(2) 0.6399(2)
C1A C 0.1115(3) 0.4610(3) 0.9432(3)
O9A O 0.1221(2) 0.4351(2) 1.0499(2)
C2A C 0.1310(3) 0.5769(3) 0.9114(3)
C3A C 0.0630(2) 0.6320(3) 0.8210(3)
C4A C 0.1756(2) 0.5495(3) 0.5508(3)
H3A H -0.172(5) 0.451(5) 0.715(6)
H4A H -0.124(4) 0.468(4) 0.815(5)
H5A H 0.048(5) 0.340(6) 0.393(6)
H6A H 0.076(5) 0.259(5) 0.437(5)
H7A H 0.191(3) 0.577(3) 0.874(4)
H8A H 0.132(4) 0.624(4) 0.983(5)
H9A H 0.282(3) 0.667(3) 0.559(3)
loop_
_geom_bond_atom_site_label_1
_geom_bond_atom_site_label_2
_geom_bond_site_symmetry_1
_geom_bond_site_symmetry_2
Pr1 O1 1_555 1_555
O1 H1 1_555 1_555
H2 O1 1_555 1_555
O2 Pr1 1_555 1_555
O3 Pr1 1_555 1_555
O4 Pr1 1_555 1_555
O5 C3 1_555 1_555
O6 Pr1 1_555 1_555
O7 Pr1 1_555 1_555
O8 Pr1 1_555 1_555
C1 O4 1_555 1_555
O9 C1 1_555 1_555
C2 C1 1_555 1_555
C3 O6 1_555 1_555
C4 O7 1_555 1_555
C5 C4 1_555 1_555
H3 O2 1_555 1_555
H4 O2 1_555 1_555
H5 O3 1_555 1_555
H6 O3 1_555 1_555
H7 C2 1_555 1_555
H8 C2 1_555 1_555
H9 C5 1_555 1_555
Pr1C O5 1_555 1_555
Pr1D O7 1_555 1_555
Pr1A O1A 1_555 1_555
Pr1E O7A 1_555 1_555
Pr1B O5A 1_555 1_555
O1A H1A 1_555 1_555
H2A O1A 1_555 1_555
O2A Pr1A 1_555 1_555
O3A Pr1A 1_555 1_555
O4A Pr1A 1_555 1_555
O5C Pr1 1_555 1_555
O5B Pr1A 1_555 1_555
O5A C3A 1_555 1_555
O6A Pr1A 1_555 1_555
O7A Pr1A 1_555 1_555
O7D Pr1 1_555 1_555
O7E Pr1A 1_555 1_555
O8A Pr1A 1_555 1_555
C1A O4A 1_555 1_555
O9A C1A 1_555 1_555
C2A C1A 1_555 1_555
C3A O6A 1_555 1_555
C4A C5 1_555 1_555
H3A O2A 1_555 1_555
H4A O2A 1_555 1_555
H5A O3A 1_555 1_555
H6A O3A 1_555 1_555
H7A C2A 1_555 1_555
H8A C2A 1_555 1_555
H9A C5 1_555 1_555
O8 C4 1_555 1_555
C2 C3 1_555 1_555
Pr1D O7D 1_555 1_555
Pr1E O7E 1_555 1_555
O7A C4A 1_555 1_555
O8A C4A 1_555 1_555
C2A C3A 1_555 1_555

#END
