
#######################################################################
#
#                 Cambridge Crystallographic Data Centre
#                                CCDC 
#
#######################################################################
#
# If this CIF has been generated from an entry in the Cambridge 
# Structural Database, then it will include bibliographic, chemical, 
# crystal, experimental, refinement or atomic coordinate data resulting 
# from the CCDC's data processing and validation procedures.
#
#######################################################################

data_ALAMIJ
_symmetry_cell_setting           triclinic
_symmetry_space_group_name_H-M   'P -1'
_symmetry_Int_Tables_number      2
_space_group_name_Hall           '-P 1'
loop_
_symmetry_equiv_pos_site_id
_symmetry_equiv_pos_as_xyz
1 x,y,z
2 -x,-y,-z
_cell_length_a                   8.988(4)
_cell_length_b                   11.094(4)
_cell_length_c                   11.858(5)
_cell_angle_alpha                67.90(3)
_cell_angle_beta                 77.14(2)
_cell_angle_gamma                69.02(2)
_cell_volume                     1017.61
loop_
_atom_site_label
_atom_site_type_symbol
_atom_site_fract_x
_atom_site_fract_y
_atom_site_fract_z
Li1 Li -0.3547(14) 0.4776(11) 1.0255(10)
P1 P -0.5166(2) 0.79313(16) 0.84966(16)
O1 O -0.3130(6) 0.5373(5) 1.1458(4)
O2 O -0.3407(6) 0.7639(4) 1.1475(5)
O3 O -0.0348(6) 0.8039(4) 1.1302(5)
O4 O 0.1719(6) 0.6187(4) 1.0690(4)
N1 N -0.4868(7) 0.6329(6) 0.8941(6)
N2 N -0.0770(7) 0.5726(5) 1.1755(5)
S1 S -0.2641(2) 0.62134(17) 1.18710(16)
S2 S 0.0371(2) 0.66129(17) 1.15071(17)
F1 F -0.2990(6) 0.6368(5) 1.4061(4)
F2 F -0.2424(7) 0.4356(5) 1.4029(4)
F3 F -0.4746(7) 0.5738(7) 1.3704(5)
F4 F 0.2395(7) 0.6459(6) 1.2831(5)
F5 F 0.0181(6) 0.6253(6) 1.3836(5)
F6 F 0.1866(6) 0.4604(4) 1.3310(4)
C1 C -0.6107(8) 0.8814(6) 0.7090(6)
C2 C -0.6333(9) 0.8092(7) 0.6450(6)
H1 H -0.5972 0.7143 0.6741
C3 C -0.7071(11) 0.8736(8) 0.5403(7)
H2 H -0.7170 0.8226 0.4970
C4 C -0.7674(9) 1.0143(7) 0.4980(7)
H3 H -0.8218 1.0584 0.4284
C5 C -0.7458(10) 1.0885(7) 0.5601(7)
H4 H -0.7834 1.1834 0.5310
C6 C -0.6691(9) 1.0235(7) 0.6650(7)
H5 H -0.6562 1.0747 0.7067
C7 C -0.3362(8) 0.8388(6) 0.8283(5)
C8 C -0.1895(9) 0.7425(7) 0.8267(6)
H6 H -0.1847 0.6537 0.8376
C9 C -0.0475(9) 0.7737(7) 0.8093(6)
H7 H 0.0507 0.7069 0.8070
C10 C -0.0537(9) 0.9037(7) 0.7955(7)
H8 H 0.0404 0.9259 0.7832
C11 C -0.1989(9) 1.0004(7) 0.7998(7)
H9 H -0.2032 1.0880 0.7925
C12 C -0.3397(9) 0.9695(7) 0.8150(6)
H10 H -0.4375 1.0369 0.8163
C13 C -0.3222(9) 0.5628(8) 1.3500(7)
C14 C 0.1246(9) 0.5939(8) 1.2947(7)
C15 C -0.6470(9) 0.8625(7) 0.9621(6)
H11 H -0.6018 0.8172 1.0389
H12 H -0.7494 0.8492 0.9710
H13 H -0.6601 0.9584 0.9370
H14 H -0.451(8) 0.614(6) 0.839(6)
O4A O -0.1719(6) 0.3813(4) 0.9310(4)
N1A N -0.5132(7) 0.3671(6) 1.1059(6)
Li1A Li 0.3547(14) 0.5224(11) 0.9745(10)
Li1A_2 Li -0.6453(14) 0.5224(11) 0.9745(10)
H14A H -0.549(8) 0.386(6) 1.161(6)
loop_
_geom_bond_atom_site_label_1
_geom_bond_atom_site_label_2
_geom_bond_site_symmetry_1
_geom_bond_site_symmetry_2
Li1 O1 1_555 1_555
P1 N1 1_555 1_555
O1 S1 1_555 1_555
O2 S1 1_555 1_555
O3 S2 1_555 1_555
O4 S2 1_555 1_555
N1 Li1 1_555 1_555
N2 S1 1_555 1_555
S1 C13 1_555 1_555
S2 N2 1_555 1_555
F1 C13 1_555 1_555
F2 C13 1_555 1_555
F3 C13 1_555 1_555
F4 C14 1_555 1_555
F5 C14 1_555 1_555
F6 C14 1_555 1_555
C1 P1 1_555 1_555
C2 C1 1_555 1_555
H1 C2 1_555 1_555
C3 C2 1_555 1_555
H2 C3 1_555 1_555
C4 C3 1_555 1_555
H3 C4 1_555 1_555
C5 C4 1_555 1_555
H4 C5 1_555 1_555
C6 C1 1_555 1_555
H5 C6 1_555 1_555
C7 P1 1_555 1_555
C8 C7 1_555 1_555
H6 C8 1_555 1_555
C9 C8 1_555 1_555
H7 C9 1_555 1_555
C10 C9 1_555 1_555
H8 C10 1_555 1_555
C11 C10 1_555 1_555
H9 C11 1_555 1_555
C12 C7 1_555 1_555
H10 C12 1_555 1_555
C14 S2 1_555 1_555
C15 P1 1_555 1_555
H11 C15 1_555 1_555
H12 C15 1_555 1_555
H13 C15 1_555 1_555
H14 N1 1_555 1_555
O4A Li1 1_555 1_555
N1A Li1 1_555 1_555
Li1A O4 1_555 1_555
Li1A_2 N1 1_555 1_555
H14A N1A 1_555 1_555
C5 C6 1_555 1_555
C11 C12 1_555 1_555
N1A Li1A_2 1_555 1_555

#END
