
#######################################################################
#
#                 Cambridge Crystallographic Data Centre
#                                CCDC 
#
#######################################################################
#
# If this CIF has been generated from an entry in the Cambridge 
# Structural Database, then it will include bibliographic, chemical, 
# crystal, experimental, refinement or atomic coordinate data resulting 
# from the CCDC's data processing and validation procedures.
#
#######################################################################

data_ALANAD
_symmetry_cell_setting           orthorhombic
_symmetry_space_group_name_H-M   'I c a b'
_symmetry_Int_Tables_number      73
_space_group_name_Hall           '-I 2a 2b'
loop_
_symmetry_equiv_pos_site_id
_symmetry_equiv_pos_as_xyz
1 x,y,z
2 1/2-x,-y,z
3 x,1/2-y,-z
4 1/2-x,1/2+y,-z
5 1/2+x,1/2+y,1/2+z
6 -x,1/2-y,1/2+z
7 1/2+x,-y,1/2-z
8 -x,y,1/2-z
9 -x,-y,-z
10 1/2+x,y,-z
11 -x,1/2+y,z
12 1/2+x,1/2-y,z
13 1/2-x,1/2-y,1/2-z
14 x,1/2+y,1/2-z
15 1/2-x,y,1/2+z
16 x,-y,1/2+z
_cell_length_a                   18.199(3)
_cell_length_b                   20.125(4)
_cell_length_c                   69.8204(14)
_cell_angle_alpha                90
_cell_angle_beta                 90
_cell_angle_gamma                90
_cell_volume                     25572.1
loop_
_atom_site_label
_atom_site_type_symbol
_atom_site_fract_x
_atom_site_fract_y
_atom_site_fract_z
Zn1 Zn 0.02804(3) 0.22554(3) 0.118207(9)
Zn2 Zn 0.05301(3) 0.11792(3) 0.155631(9)
O1 O 0.0457(2) 0.0750(2) 0.12887(6)
O2 O 0.0309(2) 0.14136(18) 0.10343(6)
O3 O -0.0183(3) -0.1603(2) 0.12353(6)
O4 O -0.0139(2) -0.21013(19) 0.09596(6)
O5 O -0.0800 0.0710 0.0446
O6 O 0.0775 -0.1032 0.0401
O7 O -0.0734(2) 0.2142(2) 0.12934(5)
O8 O -0.0511(2) 0.1556(2) 0.15639(6)
O9 O -0.3434(2) 0.2571(2) 0.11943(6)
O10 O -0.4112(2) 0.28565(18) 0.14427(6)
O11 O -0.1446(3) 0.3127(3) 0.20723(7)
O12 O -0.3416(3) 0.1716(3) 0.20711(7)
O13 O 0.0601(3) 0.1523(3) 0.18408(7)
O14 O 0.0170(2) 0.0256(3) 0.16679(7)
O15 O 0.1603(2) 0.0879(2) 0.15852(7)
C1 C 0.0107(3) -0.0371(3) 0.10728(8)
H1 H 0.0135 -0.0417 0.1205
C2 C 0.0194(3) 0.0259(3) 0.09917(8)
C3 C 0.0327(3) 0.0865(3) 0.11156(8)
C4 C 0.0162(3) 0.0317(3) 0.07939(8)
H2 H 0.0230 0.0729 0.0736
C5 C 0.0028(3) -0.0238(3) 0.06825(8)
C6 C -0.0054(3) -0.0858(3) 0.07644(9)
H3 H -0.0132 -0.1230 0.0688
C7 C -0.0017(3) -0.0918(3) 0.09632(8)
C8 C -0.0119(3) -0.1577(3) 0.10600(9)
C9 C -0.0337 0.0315 0.0371
C10 C -0.0213 0.0179 0.0184
C11 C -0.0496 0.0579 0.0008
H4 H -0.0851 0.0911 0.0010
C12 C 0.0090 -0.0327 0.0167
C13 C 0.0387 -0.0572 0.0356
C14 C -0.2198(3) 0.2310(3) 0.14204(8)
H5 H -0.2138 0.2302 0.1288
C15 C -0.1626(3) 0.2137(3) 0.15384(8)
C16 C -0.0891(3) 0.1913(3) 0.14585(9)
C17 C -0.1706(3) 0.2156(3) 0.17368(8)
H6 H -0.1320 0.2029 0.1816
C18 C -0.2360(3) 0.2366(3) 0.18139(9)
C19 C -0.2951(3) 0.2535(3) 0.16960(8)
H7 H -0.3395 0.2670 0.1749
C20 C -0.2871(3) 0.2499(3) 0.15000(8)
C21 C -0.3497(3) 0.2661(3) 0.13701(10)
C22 C -0.1940(4) 0.2794(3) 0.21305(9)
C23 C -0.2189(3) 0.2680(3) 0.23304(9)
C24 C -0.1880(4) 0.2947(3) 0.25003(10)
H8 H -0.1477 0.3232 0.2500
C25 C -0.2769(3) 0.2254(3) 0.23324(9)
C26 C -0.2936(4) 0.2062(4) 0.21287(10)
C27 C 0.0363(13) 0.1611(16) 0.19469(17)
H9 H -0.0123 0.1568 0.1908
C28 C 0.1052(19) 0.1455(14) 0.2254(4)
H10 H 0.1163 0.1020 0.2206
H11 H 0.0948 0.1430 0.2389
H12 H 0.1465 0.1743 0.2234
C29 C 0.0214(9) 0.2332(10) 0.2180(2)
H13 H -0.0181 0.2531 0.2109
H14 H 0.0661 0.2569 0.2155
H15 H 0.0104 0.2352 0.2315
C30 C -0.0363(8) -0.0033(6) 0.15990(17)
H16 H -0.0631 0.0241 0.1518
C31 C -0.0163(6) -0.1039(8) 0.17331(19)
H17 H -0.0365 -0.1478 0.1745
H18 H -0.0125 -0.0841 0.1858
H19 H 0.0316 -0.1065 0.1676
C32 C -0.1338(7) -0.0783(7) 0.15305(17)
H20 H -0.1454 -0.1240 0.1556
H21 H -0.1321 -0.0713 0.1395
H22 H -0.1708 -0.0503 0.1586
C33 C 0.2090(6) 0.0875(3) 0.14603(12)
H23 H 0.1942 0.0904 0.1333
C34 C 0.3047(5) 0.0823(5) 0.16956(16)
H24 H 0.3572 0.0789 0.1702
H25 H 0.2829 0.0449 0.1759
H26 H 0.2892 0.1226 0.1757
C35 C 0.3299(6) 0.0819(5) 0.13310(17)
H27 H 0.3798 0.0781 0.1373
H28 H 0.3240 0.1223 0.1259
H29 H 0.3178 0.0446 0.1251
N1 N 0.0009(3) -0.0178(3) 0.04788(7)
N2 N -0.2430(3) 0.2414(3) 0.20178(7)
N3 N 0.0282(16) 0.1773(9) 0.2134(2)
N4 N -0.0651(5) -0.0628(5) 0.16109(16)
N5 N 0.2814(4) 0.0832(3) 0.14954(14)
Zn1H Zn -0.02804(3) -0.22554(3) -0.118207(9)
Zn1J Zn -0.02804(3) -0.27446(3) 0.118207(9)
Zn1K Zn -0.47196(3) 0.27446(3) 0.118207(9)
Zn1B Zn 0.02804(3) 0.27446(3) -0.118207(9)
Zn1G Zn -0.02804(3) 0.22554(3) 0.381793(9)
Zn1L Zn -0.52804(3) 0.27446(3) 0.381793(9)
Zn2H Zn -0.05301(3) -0.11792(3) -0.155631(9)
Zn2K Zn -0.44699(3) 0.38208(3) 0.155631(9)
Zn2G Zn -0.05301(3) 0.11792(3) 0.344369(9)
Zn2L Zn -0.55301(3) 0.38208(3) 0.344369(9)
O1H O -0.0457(2) -0.0750(2) -0.12887(6)
O2H O -0.0309(2) -0.14136(18) -0.10343(6)
O3H O 0.0183(3) 0.1603(2) -0.12353(6)
O3J O 0.0183(3) 0.3397(2) 0.12353(6)
O3B O -0.0183(3) -0.3397(2) -0.12353(6)
O4H O 0.0139(2) 0.21013(19) -0.09596(6)
O4J O 0.0139(2) 0.28987(19) 0.09596(6)
O4B O -0.0139(2) -0.28987(19) -0.09596(6)
O5H O 0.0800 -0.0710 -0.0446
O6H O -0.0775 0.1032 -0.0401
O7L O -0.4266(2) 0.2858(2) 0.37066(5)
O7H O 0.0734(2) -0.2142(2) -0.12934(5)
O8L O -0.4489(2) 0.3444(2) 0.34361(6)
O8H O 0.0511(2) -0.1556(2) -0.15639(6)
O9L O -0.1566(2) 0.2429(2) 0.38057(6)
O9K O 0.1566(2) 0.2429(2) 0.11943(6)
O9C O -0.1566(2) -0.2429(2) -0.11943(6)
O10L O -0.0888(2) 0.21435(18) 0.35573(6)
O10K O 0.0888(2) 0.21435(18) 0.14427(6)
O10C O -0.0888(2) -0.21435(18) -0.14427(6)
O11L O -0.3554(3) 0.1873(3) 0.29277(7)
O12L O -0.1584(3) 0.3284(3) 0.29289(7)
O13H O -0.0601(3) -0.1523(3) -0.18408(7)
O14H O -0.0170(2) -0.0256(3) -0.16679(7)
O15H O -0.1603(2) -0.0879(2) -0.15852(7)
C1H C -0.0107(3) 0.0371(3) -0.10728(8)
H1H H -0.0135 0.0417 -0.1205
C2H C -0.0194(3) -0.0259(3) -0.09917(8)
C3H C -0.0327(3) -0.0865(3) -0.11156(8)
C4H C -0.0162(3) -0.0317(3) -0.07939(8)
H2H H -0.0230 -0.0729 -0.0736
C5H C -0.0028(3) 0.0238(3) -0.06825(8)
C6H C 0.0054(3) 0.0858(3) -0.07644(9)
H3H H 0.0132 0.1230 -0.0688
C7H C 0.0017(3) 0.0918(3) -0.09632(8)
C8H C 0.0119(3) 0.1577(3) -0.10600(9)
C9H C 0.0337 -0.0315 -0.0371
C10H C 0.0213 -0.0179 -0.0184
C11H C 0.0496 -0.0579 -0.0008
H4H H 0.0851 -0.0911 -0.0010
C12H C -0.0090 0.0327 -0.0167
C13H C -0.0387 0.0572 -0.0356
C14L C -0.2802(3) 0.2690(3) 0.35796(8)
H5L H -0.2862 0.2698 0.3712
C15L C -0.3374(3) 0.2863(3) 0.34616(8)
C16L C -0.4109(3) 0.3087(3) 0.35415(9)
C17L C -0.3294(3) 0.2844(3) 0.32632(8)
H6L H -0.3680 0.2971 0.3184
C18L C -0.2640(3) 0.2634(3) 0.31861(9)
C19L C -0.2049(3) 0.2465(3) 0.33040(8)
H7L H -0.1605 0.2330 0.3251
C20L C -0.2129(3) 0.2501(3) 0.35000(8)
C21L C -0.1503(3) 0.2339(3) 0.36299(10)
C22L C -0.3060(4) 0.2206(3) 0.28695(9)
C23L C -0.2811(3) 0.2320(3) 0.26696(9)
C24L C -0.3120(4) 0.2053(3) 0.24997(10)
H8L H -0.3523 0.1768 0.2500
C25L C -0.2231(3) 0.2746(3) 0.26676(9)
C26L C -0.2064(4) 0.2938(4) 0.28713(10)
C27H C -0.0363(13) -0.1611(16) -0.19469(17)
H9H H 0.0123 -0.1568 -0.1908
C28H C -0.1052(19) -0.1455(14) -0.2254(4)
H10H H -0.1163 -0.1020 -0.2206
H11H H -0.0948 -0.1430 -0.2389
H12H H -0.1465 -0.1743 -0.2234
C29H C -0.0214(9) -0.2332(10) -0.2180(2)
H13H H 0.0181 -0.2531 -0.2109
H14H H -0.0661 -0.2569 -0.2155
H15H H -0.0104 -0.2352 -0.2315
C30H C 0.0363(8) 0.0033(6) -0.15990(17)
H16H H 0.0631 -0.0241 -0.1518
C31H C 0.0163(6) 0.1039(8) -0.17331(19)
H17H H 0.0365 0.1478 -0.1745
H18H H 0.0125 0.0841 -0.1858
H19H H -0.0316 0.1065 -0.1676
C32H C 0.1338(7) 0.0783(7) -0.15305(17)
H20H H 0.1454 0.1240 -0.1556
H21H H 0.1321 0.0713 -0.1395
H22H H 0.1708 0.0503 -0.1586
C33H C -0.2090(6) -0.0875(3) -0.14603(12)
H23H H -0.1942 -0.0904 -0.1333
C34H C -0.3047(5) -0.0823(5) -0.16956(16)
H24H H -0.3572 -0.0789 -0.1702
H25H H -0.2829 -0.0449 -0.1759
H26H H -0.2892 -0.1226 -0.1757
C35H C -0.3299(6) -0.0819(5) -0.13310(17)
H27H H -0.3798 -0.0781 -0.1373
H28H H -0.3240 -0.1223 -0.1259
H29H H -0.3178 -0.0446 -0.1251
N1H N -0.0009(3) 0.0178(3) -0.04788(7)
N2L N -0.2570(3) 0.2586(3) 0.29822(7)
N3H N -0.0282(16) -0.1773(9) -0.2134(2)
N4H N 0.0651(5) 0.0628(5) -0.16109(16)
N5H N -0.2814(4) -0.0832(3) -0.14954(14)
loop_
_geom_bond_atom_site_label_1
_geom_bond_atom_site_label_2
_geom_bond_site_symmetry_1
_geom_bond_site_symmetry_2
Zn1 O2 1_555 1_555
Zn2 O1 1_555 1_555
O1 C3 1_555 1_555
O2 C3 1_555 1_555
O3 C8 1_555 1_555
O4 C8 1_555 1_555
O5 C9 1_555 1_555
O6 C13 1_555 1_555
O7 Zn1 1_555 1_555
O8 Zn2 1_555 1_555
O9 C21 1_555 1_555
O10 C21 1_555 1_555
O11 C22 1_555 1_555
O12 C26 1_555 1_555
O13 Zn2 1_555 1_555
O14 Zn2 1_555 1_555
O15 Zn2 1_555 1_555
C1 H1 1_555 1_555
C2 C1 1_555 1_555
C3 C2 1_555 1_555
C4 C2 1_555 1_555
H2 C4 1_555 1_555
C5 C4 1_555 1_555
C6 C5 1_555 1_555
H3 C6 1_555 1_555
C7 C1 1_555 1_555
C8 C7 1_555 1_555
C9 C10 1_555 1_555
C10 C11 1_555 1_555
C11 H4 1_555 1_555
C12 C10 1_555 1_555
C13 C12 1_555 1_555
C14 H5 1_555 1_555
C15 C14 1_555 1_555
C16 O7 1_555 1_555
C17 C15 1_555 1_555
H6 C17 1_555 1_555
C18 C17 1_555 1_555
C19 C18 1_555 1_555
H7 C19 1_555 1_555
C20 C14 1_555 1_555
C21 C20 1_555 1_555
C22 C23 1_555 1_555
C23 C24 1_555 1_555
C24 H8 1_555 1_555
C25 C23 1_555 1_555
C26 C25 1_555 1_555
C27 O13 1_555 1_555
H9 C27 1_555 1_555
C28 H10 1_555 1_555
H11 C28 1_555 1_555
H12 C28 1_555 1_555
C29 H13 1_555 1_555
H14 C29 1_555 1_555
H15 C29 1_555 1_555
C30 O14 1_555 1_555
H16 C30 1_555 1_555
C31 H17 1_555 1_555
H18 C31 1_555 1_555
H19 C31 1_555 1_555
C32 H20 1_555 1_555
H21 C32 1_555 1_555
H22 C32 1_555 1_555
C33 O15 1_555 1_555
H23 C33 1_555 1_555
C34 H24 1_555 1_555
H25 C34 1_555 1_555
H26 C34 1_555 1_555
C35 H27 1_555 1_555
H28 C35 1_555 1_555
H29 C35 1_555 1_555
N1 C5 1_555 1_555
N2 C18 1_555 1_555
N3 C27 1_555 1_555
N4 C30 1_555 1_555
N5 C33 1_555 1_555
Zn1H O2H 1_555 1_555
Zn1J O3 1_555 1_555
Zn1K O9 1_555 1_555
Zn1B O3H 1_555 1_555
Zn1G O9L 1_555 1_555
Zn1L O7L 1_555 1_555
Zn2H O1H 1_555 1_555
Zn2K O10 1_555 1_555
Zn2G O10L 1_555 1_555
Zn2L O8L 1_555 1_555
O1H C3H 1_555 1_555
O2H C3H 1_555 1_555
O3H C8H 1_555 1_555
O3J Zn1 1_555 1_555
O3B Zn1H 1_555 1_555
O4H Zn1B 1_555 1_555
O4J Zn1 1_555 1_555
O4B Zn1H 1_555 1_555
O5H C9H 1_555 1_555
O6H C13H 1_555 1_555
O7L C16L 1_555 1_555
O7H Zn1H 1_555 1_555
O8L C16L 1_555 1_555
O8H Zn2H 1_555 1_555
O9L C21L 1_555 1_555
O9K Zn1 1_555 1_555
O9C Zn1H 1_555 1_555
O10L Zn1G 1_555 1_555
O10K Zn1 1_555 1_555
O10C Zn1H 1_555 1_555
O11L C22L 1_555 1_555
O12L C26L 1_555 1_555
O13H Zn2H 1_555 1_555
O14H Zn2H 1_555 1_555
O15H Zn2H 1_555 1_555
C1H H1H 1_555 1_555
C2H C1H 1_555 1_555
C3H C2H 1_555 1_555
C4H C2H 1_555 1_555
H2H C4H 1_555 1_555
C5H C4H 1_555 1_555
C6H C5H 1_555 1_555
H3H C6H 1_555 1_555
C7H C1H 1_555 1_555
C8H O4H 1_555 1_555
C9H C10H 1_555 1_555
C10H C11H 1_555 1_555
C11H C12 1_555 1_555
H4H C11H 1_555 1_555
C12H C11 1_555 1_555
C13H C12H 1_555 1_555
C14L H5L 1_555 1_555
C15L C14L 1_555 1_555
C16L C15L 1_555 1_555
C17L C15L 1_555 1_555
H6L C17L 1_555 1_555
C18L C17L 1_555 1_555
C19L C18L 1_555 1_555
H7L C19L 1_555 1_555
C20L C14L 1_555 1_555
C21L O10L 1_555 1_555
C22L C23L 1_555 1_555
C23L C24L 1_555 1_555
C24L C25 1_555 1_555
H8L C24L 1_555 1_555
C25L C24 1_555 1_555
C26L C25L 1_555 1_555
C27H O13H 1_555 1_555
H9H C27H 1_555 1_555
C28H H10H 1_555 1_555
H11H C28H 1_555 1_555
H12H C28H 1_555 1_555
C29H H13H 1_555 1_555
H14H C29H 1_555 1_555
H15H C29H 1_555 1_555
C30H O14H 1_555 1_555
H16H C30H 1_555 1_555
C31H H17H 1_555 1_555
H18H C31H 1_555 1_555
H19H C31H 1_555 1_555
C32H H20H 1_555 1_555
H21H C32H 1_555 1_555
H22H C32H 1_555 1_555
C33H O15H 1_555 1_555
H23H C33H 1_555 1_555
C34H H24H 1_555 1_555
H25H C34H 1_555 1_555
H26H C34H 1_555 1_555
C35H H27H 1_555 1_555
H28H C35H 1_555 1_555
H29H C35H 1_555 1_555
N1H C5H 1_555 1_555
N2L C18L 1_555 1_555
N3H C27H 1_555 1_555
N4H C30H 1_555 1_555
N5H C33H 1_555 1_555
Zn2 O10K 1_555 1_555
O4 Zn1J 1_555 1_555
O8 C16 1_555 1_555
O10 Zn1K 1_555 1_555
C6 C7 1_555 1_555
C9 N1 1_555 1_555
C13 N1 1_555 1_555
C15 C16 1_555 1_555
C19 C20 1_555 1_555
C22 N2 1_555 1_555
C26 N2 1_555 1_555
C28 N3 1_555 1_555
C29 N3 1_555 1_555
C31 N4 1_555 1_555
C32 N4 1_555 1_555
C34 N5 1_555 1_555
C35 N5 1_555 1_555
Zn2H O10C 1_555 1_555
C6H C7H 1_555 1_555
C7H C8H 1_555 1_555
C9H N1H 1_555 1_555
C10H C12H 1_555 1_555
C13H N1H 1_555 1_555
C19L C20L 1_555 1_555
C20L C21L 1_555 1_555
C22L N2L 1_555 1_555
C23L C25L 1_555 1_555
C26L N2L 1_555 1_555
C28H N3H 1_555 1_555
C29H N3H 1_555 1_555
C31H N4H 1_555 1_555
C32H N4H 1_555 1_555
C34H N5H 1_555 1_555
C35H N5H 1_555 1_555

#END
