
#######################################################################
#
#                 Cambridge Crystallographic Data Centre
#                                CCDC 
#
#######################################################################
#
# If this CIF has been generated from an entry in the Cambridge 
# Structural Database, then it will include bibliographic, chemical, 
# crystal, experimental, refinement or atomic coordinate data resulting 
# from the CCDC's data processing and validation procedures.
#
#######################################################################

data_ALATOX
_symmetry_cell_setting           monoclinic
_symmetry_space_group_name_H-M   'P 21/c'
_symmetry_Int_Tables_number      14
_space_group_name_Hall           '-P 2ybc'
loop_
_symmetry_equiv_pos_site_id
_symmetry_equiv_pos_as_xyz
1 x,y,z
2 -x,1/2+y,1/2-z
3 -x,-y,-z
4 x,1/2-y,1/2+z
_cell_length_a                   13.997(4)
_cell_length_b                   14.679(5)
_cell_length_c                   26.321(7)
_cell_angle_alpha                90
_cell_angle_beta                 95.687(9)
_cell_angle_gamma                90
_cell_volume                     5381.35
loop_
_atom_site_label
_atom_site_type_symbol
_atom_site_fract_x
_atom_site_fract_y
_atom_site_fract_z
Gd1 Gd 0.97922(7) 0.23475(8) 0.28180(4)
Cu1 Cu 0.79545(19) 0.1429(2) 0.08431(11)
Cu2 Cu 0.6184(2) 0.3652(2) 0.33485(12)
Cu3 Cu 1.1463(2) 0.1027(2) 0.47355(11)
Cu4 Cu 1.35156(17) 0.3365(2) 0.22720(11)
K1 K 0.9296(3) 0.4832(4) 0.2297(2)
O1 O 0.8959(10) 0.2932(11) 0.2032(6)
O2 O 0.9494(9) 0.1199(10) 0.2197(5)
O3 O 0.8230(10) 0.2559(12) 0.1270(5)
O4 O 0.6986(12) 0.1966(14) 0.0415(6)
O5 O 0.8260(9) 0.1990(12) 0.3064(6)
O6 O 0.8937(10) 0.3687(12) 0.3040(5)
O7 O 0.6853(10) 0.2459(12) 0.3271(5)
O8 O 0.5000(12) 0.3163(14) 0.3436(6)
O9 O 1.0598(11) 0.2771(12) 0.3609(5)
O10 O 1.0061(9) 0.1026(10) 0.3359(5)
O11 O 1.1273(11) 0.2218(11) 0.4376(6)
O12 O 1.2251(14) 0.1513(15) 0.5268(7)
O13 O 1.1346(9) 0.1763(11) 0.2623(6)
O14 O 1.0755(9) 0.3507(10) 0.2540(5)
O15 O 1.2817(8) 0.2186(10) 0.2400(5)
O16 O 1.4666(8) 0.2832(10) 0.2139(5)
O19 O 0.7535(16) 0.504(2) 0.1528(9)
N1 N 0.8732(12) 0.0898(14) 0.1390(7)
N2 N 0.7800(14) 0.0215(18) 0.0567(8)
N3 N 0.7392(12) 0.4135(15) 0.3242(8)
N4 N 0.5876(16) 0.4894(17) 0.3515(7)
N5 N 1.0647(13) 0.0563(16) 0.4194(7)
N6 N 1.1468(14) -0.0190(16) 0.4968(7)
N7 N 1.2321(13) 0.3884(14) 0.2313(8)
N8 N 1.3926(11) 0.4590(14) 0.2252(7)
C1 C 0.8702(15) 0.238(2) 0.1686(9)
C2 C 0.9025(13) 0.1377(17) 0.1776(9)
C3 C 0.8852(19) -0.0093(18) 0.1371(9)
C4 C 0.8610(18) -0.0372(18) 0.0834(9)
C5 C 0.717(2) -0.007(2) 0.0200(8)
C6 C 0.650(2) 0.052(3) -0.0019(10)
C7 C 0.646(2) 0.149(2) 0.0092(12)
C8 C 0.710(2) -0.103(2) 0.0029(11)
C9 C 0.5638(18) 0.198(2) -0.0193(10)
C10 C 0.7693(15) 0.256(2) 0.3154(8)
C11 C 0.8083(18) 0.3531(18) 0.3137(7)
C12 C 0.7493(19) 0.507(2) 0.3256(12)
C13 C 0.6674(17) 0.551(2) 0.3501(10)
C14 C 0.508(2) 0.514(2) 0.3674(10)
C15 C 0.4351(17) 0.451(2) 0.3677(9)
C16 C 0.430(2) 0.360(2) 0.3590(11)
C17 C 0.4991(19) 0.614(2) 0.3859(10)
C18 C 0.3404(14) 0.305(2) 0.3655(10)
C19 C 1.0764(15) 0.2143(10) 0.3942(9)
C20 C 1.0469(16) 0.1126(19) 0.3811(10)
C21 C 1.040(2) -0.043(2) 0.4158(10)
C22 C 1.080(2) -0.0827(19) 0.4658(9)
C23 C 1.195(2) -0.047(2) 0.5366(11)
C24 C 1.258(2) 0.011(3) 0.5673(13)
C25 C 1.274(2) 0.105(3) 0.5619(11)
C26 C 1.198(2) -0.147(2) 0.5542(11)
C27 C 1.343(2) 0.157(2) 0.5988(11)
C28 C 1.1940(16) 0.2370(16) 0.2485(7)
C29 C 1.1665(15) 0.3373(19) 0.2443(8)
C30 C 1.2190(14) 0.4822(19) 0.2200(11)
C31 C 1.3185(15) 0.5278(18) 0.2378(10)
C32 C 1.4752(18) 0.4895(19) 0.2238(7)
C33 C 1.5513(15) 0.4237(18) 0.2150(8)
C34 C 1.5422(14) 0.332(2) 0.2101(8)
C35 C 1.5036(14) 0.5904(19) 0.2261(9)
C36 C 1.6334(12) 0.2733(19) 0.2016(8)
H1 H 0.9507 -0.0236 0.1469
H2 H 0.8457 -0.0406 0.1587
H3 H 0.8408 -0.0990 0.0821
H4 H 0.9158 -0.0305 0.0651
H5 H 0.6040 0.0279 -0.0276
H6 H 0.7494 -0.1042 -0.0246
H7 H 0.6471 -0.1220 -0.0089
H8 H 0.7363 -0.1439 0.0289
H9 H 0.5090 0.2006 -0.0008
H10 H 0.5485 0.1659 -0.0503
H11 H 0.5830 0.2586 -0.0268
H12 H 0.8088 0.5206 0.3448
H13 H 0.7500 0.5307 0.2919
H14 H 0.6474 0.6045 0.3315
H15 H 0.6897 0.5672 0.3841
H16 H 0.3776 0.4758 0.3785
H17 H 0.5148 0.6167 0.4218
H18 H 0.4345 0.6325 0.3777
H19 H 0.5407 0.6524 0.3695
H20 H 0.3022 0.2994 0.3337
H21 H 0.3037 0.3337 0.3896
H22 H 0.3605 0.2468 0.3776
H23 H 0.9730 -0.0528 0.4105
H24 H 1.0703 -0.0693 0.3884
H25 H 1.1172 -0.1350 0.4590
H26 H 1.0287 -0.1003 0.4844
H27 H 1.2973 -0.0165 0.5947
H28 H 1.1475 -0.1552 0.5753
H29 H 1.2577 -0.1607 0.5733
H30 H 1.1889 -0.1873 0.5257
H31 H 1.4027 0.1580 0.5844
H32 H 1.3501 0.1231 0.6298
H33 H 1.3237 0.2172 0.6054
H34 H 1.1999 0.4928 0.1849
H35 H 1.1725 0.5072 0.2400
H36 H 1.3258 0.5419 0.2732
H37 H 1.3237 0.5821 0.2186
H38 H 1.6140 0.4479 0.2142
H39 H 1.4984 0.6162 0.1928
H40 H 1.5677 0.5967 0.2413
H41 H 1.4612 0.6210 0.2464
H42 H 1.6637 0.2526 0.2334
H43 H 1.6773 0.3094 0.1849
H44 H 1.6140 0.2225 0.1808
K1A K 1.0704(3) -0.0168(4) 0.2703(2)
O2A O 1.0506(9) 0.6199(10) 0.2803(5)
O10A O 0.9939(9) 0.6026(10) 0.1641(5)
O13A O 0.8654(9) 0.6763(11) 0.2377(6)
O17 O 0.9230(14) 0.1748(19) 0.0263(8)
C37 C 0.914(2) 0.138(2) -0.0258(11)
H45 H 0.9205 0.0736 -0.0212
H46 H 0.9615 0.1584 -0.0466
H47 H 0.8522 0.1512 -0.0419
O18 O 1.1043(17) 0.2149(19) 0.0645(10)
C38 C 1.116(2) 0.231(2) 0.1160(13)
H48 H 1.1062 0.2945 0.1214
H49 H 1.1777 0.2143 0.1313
H50 H 1.0682 0.1973 0.1309
O20 O 0.592(4) 0.443(5) 0.048(2)
C39 C 0.665(2) 0.379(2) 0.0710(11)
H51 H 0.6637 0.3990 0.1052
H52 H 0.7252 0.3931 0.0594
H53 H 0.6551 0.3148 0.0694
loop_
_geom_bond_atom_site_label_1
_geom_bond_atom_site_label_2
_geom_bond_site_symmetry_1
_geom_bond_site_symmetry_2
Gd1 O1 1_555 1_555
Cu1 O3 1_555 1_555
Cu2 O7 1_555 1_555
Cu3 O11 1_555 1_555
Cu4 O15 1_555 1_555
K1 O1 1_555 1_555
O1 C1 1_555 1_555
O2 Gd1 1_555 1_555
O3 C1 1_555 1_555
O4 Cu1 1_555 1_555
O5 Gd1 1_555 1_555
O6 Gd1 1_555 1_555
O7 C10 1_555 1_555
O8 Cu2 1_555 1_555
O9 Gd1 1_555 1_555
O10 Gd1 1_555 1_555
O11 C19 1_555 1_555
O12 Cu3 1_555 1_555
O13 Gd1 1_555 1_555
O14 Gd1 1_555 1_555
O15 C28 1_555 1_555
O16 Cu4 1_555 1_555
O17 C37 1_555 1_555
O18 C38 1_555 1_555
O19 K1 1_555 1_555
O20 C39 1_555 1_555
N1 Cu1 1_555 1_555
N2 Cu1 1_555 1_555
N3 Cu2 1_555 1_555
N4 Cu2 1_555 1_555
N5 Cu3 1_555 1_555
N6 Cu3 1_555 1_555
N7 Cu4 1_555 1_555
N8 Cu4 1_555 1_555
C1 C2 1_555 1_555
C2 O2 1_555 1_555
C3 N1 1_555 1_555
C4 N2 1_555 1_555
C5 N2 1_555 1_555
C6 C5 1_555 1_555
C7 O4 1_555 1_555
C8 C5 1_555 1_555
C9 C7 1_555 1_555
C10 O5 1_555 1_555
C11 O6 1_555 1_555
C12 N3 1_555 1_555
C13 N4 1_555 1_555
C14 N4 1_555 1_555
C15 C14 1_555 1_555
C16 O8 1_555 1_555
C17 C14 1_555 1_555
C18 C16 1_555 1_555
C19 O9 1_555 1_555
C20 O10 1_555 1_555
C21 N5 1_555 1_555
C22 N6 1_555 1_555
C23 N6 1_555 1_555
C24 C23 1_555 1_555
C25 O12 1_555 1_555
C26 C23 1_555 1_555
C27 C25 1_555 1_555
C28 O13 1_555 1_555
C29 O14 1_555 1_555
C30 N7 1_555 1_555
C31 N8 1_555 1_555
C32 N8 1_555 1_555
C33 C32 1_555 1_555
C34 O16 1_555 1_555
C35 C32 1_555 1_555
C36 C34 1_555 1_555
C37 H45 1_555 1_555
C38 H48 1_555 1_555
C39 H51 1_555 1_555
H1 C3 1_555 1_555
H2 C3 1_555 1_555
H3 C4 1_555 1_555
H4 C4 1_555 1_555
H5 C6 1_555 1_555
H6 C8 1_555 1_555
H7 C8 1_555 1_555
H8 C8 1_555 1_555
H9 C9 1_555 1_555
H10 C9 1_555 1_555
H11 C9 1_555 1_555
H12 C12 1_555 1_555
H13 C12 1_555 1_555
H14 C13 1_555 1_555
H15 C13 1_555 1_555
H16 C15 1_555 1_555
H17 C17 1_555 1_555
H18 C17 1_555 1_555
H19 C17 1_555 1_555
H20 C18 1_555 1_555
H21 C18 1_555 1_555
H22 C18 1_555 1_555
H23 C21 1_555 1_555
H24 C21 1_555 1_555
H25 C22 1_555 1_555
H26 C22 1_555 1_555
H27 C24 1_555 1_555
H28 C26 1_555 1_555
H29 C26 1_555 1_555
H30 C26 1_555 1_555
H31 C27 1_555 1_555
H32 C27 1_555 1_555
H33 C27 1_555 1_555
H34 C30 1_555 1_555
H35 C30 1_555 1_555
H36 C31 1_555 1_555
H37 C31 1_555 1_555
H38 C33 1_555 1_555
H39 C35 1_555 1_555
H40 C35 1_555 1_555
H41 C35 1_555 1_555
H42 C36 1_555 1_555
H43 C36 1_555 1_555
H44 C36 1_555 1_555
H46 C37 1_555 1_555
H47 C37 1_555 1_555
H49 C38 1_555 1_555
H50 C38 1_555 1_555
H52 C39 1_555 1_555
H53 C39 1_555 1_555
K1A O2 1_555 1_555
O2A K1 1_555 1_555
O10A K1 1_555 1_555
O13A K1 1_555 1_555
K1 O6 1_555 1_555
K1 O14 1_555 1_555
O10 K1A 1_555 1_555
O13 K1A 1_555 1_555
N1 C2 1_555 1_555
N3 C11 1_555 1_555
N5 C20 1_555 1_555
N7 C29 1_555 1_555
C3 C4 1_555 1_555
C6 C7 1_555 1_555
C10 C11 1_555 1_555
C12 C13 1_555 1_555
C15 C16 1_555 1_555
C19 C20 1_555 1_555
C21 C22 1_555 1_555
C24 C25 1_555 1_555
C28 C29 1_555 1_555
C30 C31 1_555 1_555
C33 C34 1_555 1_555

#END
