
#######################################################################
#
#                 Cambridge Crystallographic Data Centre
#                                CCDC 
#
#######################################################################
#
# If this CIF has been generated from an entry in the Cambridge 
# Structural Database, then it will include bibliographic, chemical, 
# crystal, experimental, refinement or atomic coordinate data resulting 
# from the CCDC's data processing and validation procedures.
#
#######################################################################

data_ALATIR
_symmetry_cell_setting           monoclinic
_symmetry_space_group_name_H-M   'P 21/c'
_symmetry_Int_Tables_number      14
_space_group_name_Hall           '-P 2ybc'
loop_
_symmetry_equiv_pos_site_id
_symmetry_equiv_pos_as_xyz
1 x,y,z
2 -x,1/2+y,1/2-z
3 -x,-y,-z
4 x,1/2-y,1/2+z
_cell_length_a                   14.035(3)
_cell_length_b                   14.766(3)
_cell_length_c                   26.088(6)
_cell_angle_alpha                90
_cell_angle_beta                 94.590(10)
_cell_angle_gamma                90
_cell_volume                     5389.16
loop_
_atom_site_label
_atom_site_type_symbol
_atom_site_fract_x
_atom_site_fract_y
_atom_site_fract_z
Gd1 Gd 0.98152(2) 0.24260(2) 0.271670(10)
Cu1 Cu 0.79197(8) 0.12940(7) 0.07923(4)
Cu2 Cu 0.62852(8) 0.37870(7) 0.33415(5)
Cu3 Cu 1.13946(11) 0.09676(7) 0.46174(5)
Cu4 Cu 1.35278(6) 0.35583(6) 0.22040(4)
Na1 Na 1.0398(2) -0.0062(2) 0.25840(15)
O1 O 0.8943(4) 0.2900(3) 0.1930(2)
O2 O 0.9515(3) 0.1182(3) 0.2126(2)
O3 O 0.8184(4) 0.2469(3) 0.1187(2)
O4 O 0.6913(4) 0.1773(4) 0.0346(2)
O5 O 0.8308(3) 0.2070(3) 0.3007(2)
O6 O 0.8982(3) 0.3792(3) 0.2954(2)
O7 O 0.6911(4) 0.2587(3) 0.3252(3)
O8 O 0.5085(4) 0.3307(5) 0.3417(2)
O9 O 1.0599(5) 0.2728(3) 0.3536(2)
O10 O 1.0058(3) 0.1056(3) 0.3224(2)
O11 O 1.1238(6) 0.2168(4) 0.4269(3)
O12 O 1.2112(6) 0.1430(5) 0.5194(2)
O13 O 1.1366(4) 0.1943(3) 0.2494(2)
O14 O 1.0750(3) 0.3687(3) 0.2440(2)
O15 O 1.2812(3) 0.2375(3) 0.2292(2)
O16 O 1.4697(3) 0.3039(3) 0.2075(2)
O19 O 1.1956(7) -0.0037(10) 0.3036(4)
N1 N 0.8771(5) 0.0818(4) 0.1336(2)
N2 N 0.7798(5) 0.0043(5) 0.0584(3)
N3 N 0.7509(5) 0.4238(4) 0.3226(3)
N4 N 0.5999(5) 0.5018(4) 0.3511(3)
N5 N 1.0579(5) 0.0565(4) 0.4037(2)
N6 N 1.1323(6) -0.0250(4) 0.4863(3)
N7 N 1.2281(4) 0.4070(4) 0.2272(2)
N8 N 1.3939(4) 0.4787(4) 0.2228(2)
C1 C 0.8693(5) 0.2318(4) 0.1595(3)
C2 C 0.9033(5) 0.1341(4) 0.1708(3)
C3 C 0.8922(8) -0.0173(5) 0.1350(3)
C4 C 0.8586(6) -0.0528(5) 0.0812(3)
C5 C 0.7152(6) -0.0260(6) 0.0224(3)
C6 C 0.6411(7) 0.0316(8) -0.0009(4)
C7 C 0.6371(7) 0.1241(8) 0.0037(3)
C8 C 0.7175(9) -0.1223(7) 0.0049(4)
C9 C 0.5601(9) 0.1769(10) -0.0269(5)
C10 C 0.7739(5) 0.2690(4) 0.3126(3)
C11 C 0.8118(5) 0.3669(4) 0.3097(3)
C12 C 0.7585(7) 0.5226(5) 0.3208(4)
C13 C 0.6806(8) 0.5600(7) 0.3528(4)
C14 C 0.5202(7) 0.5293(6) 0.3655(3)
C15 C 0.4417(7) 0.4724(7) 0.3648(4)
C16 C 0.4378(6) 0.3781(8) 0.3525(3)
C17 C 0.5028(8) 0.6250(7) 0.3821(4)
C18 C 0.3451(8) 0.3208(9) 0.3574(5)
C19 C 1.0791(7) 0.2092(5) 0.3841(3)
C20 C 1.0427(5) 0.1151(4) 0.3672(3)
C21 C 1.0355(9) -0.0382(5) 0.4008(4)
C22 C 1.0748(8) -0.0825(6) 0.4527(4)
C23 C 1.1804(9) -0.0533(7) 0.5275(4)
C24 C 1.2365(10) 0.0007(8) 0.5586(4)
C25 C 1.2515(9) 0.0901(8) 0.5528(4)
C26 C 1.1745(12) -0.1549(8) 0.5424(5)
C27 C 1.3152(13) 0.1424(10) 0.5923(6)
C28 C 1.1967(5) 0.2534(4) 0.2388(3)
C29 C 1.1617(4) 0.3522(4) 0.2372(3)
C30 C 1.2215(5) 0.5029(4) 0.2219(4)
C31 C 1.3170(5) 0.5427(5) 0.2344(4)
C32 C 1.4821(5) 0.5041(5) 0.2209(3)
C33 C 1.5572(5) 0.4412(5) 0.2135(4)
C34 C 1.5473(5) 0.3498(5) 0.2065(3)
C35 C 1.5115(6) 0.6031(6) 0.2278(5)
C36 C 1.6342(5) 0.2955(6) 0.1953(4)
H1 H 0.9581 -0.0307 0.1427
H2 H 0.8560 -0.0442 0.1602
H3 H 0.8366 -0.1134 0.0839
H4 H 0.9103 -0.0513 0.0599
H5 H 0.5904 0.0030 -0.0211
H6 H 0.7563 -0.1268 -0.0233
H7 H 0.6545 -0.1418 -0.0056
H8 H 0.7434 -0.1594 0.0323
H9 H 0.5046 0.1794 -0.0084
H10 H 0.5452 0.1480 -0.0590
H11 H 0.5822 0.2366 -0.0325
H12 H 0.8198 0.5415 0.3349
H13 H 0.7486 0.5433 0.2863
H14 H 0.6611 0.6177 0.3398
H15 H 0.7060 0.5660 0.3875
H16 H 0.3836 0.4992 0.3735
H17 H 0.5181 0.6303 0.4181
H18 H 0.4374 0.6400 0.3742
H19 H 0.5418 0.6651 0.3645
H20 H 0.3099 0.3171 0.3248
H21 H 0.3070 0.3489 0.3813
H22 H 0.3622 0.2616 0.3690
H23 H 0.9682 -0.0464 0.3959
H24 H 1.0649 -0.0651 0.3730
H25 H 1.1123 -0.1335 0.4449
H26 H 1.0217 -0.1020 0.4703
H27 H 1.2693 -0.0273 0.5877
H28 H 1.1235 -0.1635 0.5638
H29 H 1.2329 -0.1727 0.5605
H30 H 1.1636 -0.1905 0.5122
H31 H 1.3779 0.1469 0.5812
H32 H 1.3176 0.1117 0.6244
H33 H 1.2898 0.2014 0.5961
H34 H 1.1993 0.5179 0.1876
H35 H 1.1782 0.5259 0.2449
H36 H 1.3239 0.5576 0.2699
H37 H 1.3226 0.5961 0.2145
H38 H 1.6200 0.4652 0.2134
H39 H 1.5073 0.6323 0.1952
H40 H 1.5754 0.6064 0.2428
H41 H 1.4700 0.6324 0.2496
H42 H 1.6655 0.2742 0.2266
H43 H 1.6768 0.3328 0.1781
H44 H 1.6151 0.2455 0.1740
Na1A Na 0.9602(2) 0.4938(2) 0.24160(15)
O6A O 1.1018(3) -0.1208(3) 0.2046(2)
O14A O 0.9250(3) -0.1313(3) 0.2560(2)
O17 O 0.9186(8) 0.1489(7) 0.0155(4)
C37 C 0.9012(11) 0.1116(10) -0.0339(6)
H45 H 0.9065 0.0476 -0.0320
H46 H 0.9467 0.1346 -0.0556
H47 H 0.8387 0.1276 -0.0476
O18 O 1.0940(8) 0.2165(7) 0.0498(4)
C38 C 1.0978(14) 0.2283(11) 0.1029(7)
H48 H 1.0885 0.2905 0.1104
H49 H 1.1584 0.2094 0.1179
H50 H 1.0490 0.1933 0.1166
loop_
_geom_bond_atom_site_label_1
_geom_bond_atom_site_label_2
_geom_bond_site_symmetry_1
_geom_bond_site_symmetry_2
Gd1 O1 1_555 1_555
Cu1 O3 1_555 1_555
Cu2 O7 1_555 1_555
Cu3 O11 1_555 1_555
Cu4 O15 1_555 1_555
Na1 O2 1_555 1_555
O1 C1 1_555 1_555
O2 Gd1 1_555 1_555
O3 C1 1_555 1_555
O4 Cu1 1_555 1_555
O5 Gd1 1_555 1_555
O6 Gd1 1_555 1_555
O7 C10 1_555 1_555
O8 Cu2 1_555 1_555
O9 Gd1 1_555 1_555
O10 Gd1 1_555 1_555
O11 C19 1_555 1_555
O12 Cu3 1_555 1_555
O13 Gd1 1_555 1_555
O14 Gd1 1_555 1_555
O15 C28 1_555 1_555
O16 Cu4 1_555 1_555
O17 C37 1_555 1_555
O18 C38 1_555 1_555
O19 Na1 1_555 1_555
N1 Cu1 1_555 1_555
N2 Cu1 1_555 1_555
N3 Cu2 1_555 1_555
N4 Cu2 1_555 1_555
N5 Cu3 1_555 1_555
N6 Cu3 1_555 1_555
N7 Cu4 1_555 1_555
N8 Cu4 1_555 1_555
C1 C2 1_555 1_555
C2 O2 1_555 1_555
C3 N1 1_555 1_555
C4 N2 1_555 1_555
C5 N2 1_555 1_555
C6 C5 1_555 1_555
C7 O4 1_555 1_555
C8 C5 1_555 1_555
C9 C7 1_555 1_555
C10 O5 1_555 1_555
C11 O6 1_555 1_555
C12 N3 1_555 1_555
C13 N4 1_555 1_555
C14 N4 1_555 1_555
C15 C14 1_555 1_555
C16 O8 1_555 1_555
C17 C14 1_555 1_555
C18 C16 1_555 1_555
C19 O9 1_555 1_555
C20 O10 1_555 1_555
C21 N5 1_555 1_555
C22 N6 1_555 1_555
C23 N6 1_555 1_555
C24 C23 1_555 1_555
C25 O12 1_555 1_555
C26 C23 1_555 1_555
C27 C25 1_555 1_555
C28 O13 1_555 1_555
C29 O14 1_555 1_555
C30 N7 1_555 1_555
C31 N8 1_555 1_555
C32 N8 1_555 1_555
C33 C32 1_555 1_555
C34 O16 1_555 1_555
C35 C32 1_555 1_555
C36 C34 1_555 1_555
C37 H45 1_555 1_555
C38 H48 1_555 1_555
H1 C3 1_555 1_555
H2 C3 1_555 1_555
H3 C4 1_555 1_555
H4 C4 1_555 1_555
H5 C6 1_555 1_555
H6 C8 1_555 1_555
H7 C8 1_555 1_555
H8 C8 1_555 1_555
H9 C9 1_555 1_555
H10 C9 1_555 1_555
H11 C9 1_555 1_555
H12 C12 1_555 1_555
H13 C12 1_555 1_555
H14 C13 1_555 1_555
H15 C13 1_555 1_555
H16 C15 1_555 1_555
H17 C17 1_555 1_555
H18 C17 1_555 1_555
H19 C17 1_555 1_555
H20 C18 1_555 1_555
H21 C18 1_555 1_555
H22 C18 1_555 1_555
H23 C21 1_555 1_555
H24 C21 1_555 1_555
H25 C22 1_555 1_555
H26 C22 1_555 1_555
H27 C24 1_555 1_555
H28 C26 1_555 1_555
H29 C26 1_555 1_555
H30 C26 1_555 1_555
H31 C27 1_555 1_555
H32 C27 1_555 1_555
H33 C27 1_555 1_555
H34 C30 1_555 1_555
H35 C30 1_555 1_555
H36 C31 1_555 1_555
H37 C31 1_555 1_555
H38 C33 1_555 1_555
H39 C35 1_555 1_555
H40 C35 1_555 1_555
H41 C35 1_555 1_555
H42 C36 1_555 1_555
H43 C36 1_555 1_555
H44 C36 1_555 1_555
H46 C37 1_555 1_555
H47 C37 1_555 1_555
H49 C38 1_555 1_555
H50 C38 1_555 1_555
Na1A O6 1_555 1_555
O6A Na1 1_555 1_555
O14A Na1 1_555 1_555
Na1 O10 1_555 1_555
O14 Na1A 1_555 1_555
N1 C2 1_555 1_555
N3 C11 1_555 1_555
N5 C20 1_555 1_555
N7 C29 1_555 1_555
C3 C4 1_555 1_555
C6 C7 1_555 1_555
C10 C11 1_555 1_555
C12 C13 1_555 1_555
C15 C16 1_555 1_555
C19 C20 1_555 1_555
C21 C22 1_555 1_555
C24 C25 1_555 1_555
C28 C29 1_555 1_555
C30 C31 1_555 1_555
C33 C34 1_555 1_555

#END
