
#######################################################################
#
#                 Cambridge Crystallographic Data Centre
#                                CCDC 
#
#######################################################################
#
# If this CIF has been generated from an entry in the Cambridge 
# Structural Database, then it will include bibliographic, chemical, 
# crystal, experimental, refinement or atomic coordinate data resulting 
# from the CCDC's data processing and validation procedures.
#
#######################################################################

data_ALEQAK
_symmetry_cell_setting           monoclinic
_symmetry_space_group_name_H-M   'P 21/n'
_symmetry_Int_Tables_number      14
_space_group_name_Hall           '-P 2yn'
loop_
_symmetry_equiv_pos_site_id
_symmetry_equiv_pos_as_xyz
1 x,y,z
2 1/2-x,1/2+y,1/2-z
3 -x,-y,-z
4 1/2+x,1/2-y,1/2+z
_cell_length_a                   13.5470(11)
_cell_length_b                   7.2157(6)
_cell_length_c                   14.8634(12)
_cell_angle_alpha                90
_cell_angle_beta                 90.187(3)
_cell_angle_gamma                90
_cell_volume                     1452.91
loop_
_atom_site_label
_atom_site_type_symbol
_atom_site_fract_x
_atom_site_fract_y
_atom_site_fract_z
Cu1 Cu 0.37141(6) 0.58608(10) 0.86995(6)
O1 O 0.2476(3) 0.5526(6) 0.9245(3)
O2 O 0.1571(3) 0.1804(6) 0.9453(3)
O3 O -0.0681(4) 0.6093(6) 0.8485(4)
O4 O 0.3247(4) 0.4111(6) 0.7771(4)
O5 O 0.1795(4) 0.3230(6) 0.7231(4)
N1 N 0.4327(4) 0.7067(7) 0.9775(4)
N2 N 0.5086(4) 0.5975(7) 0.8266(4)
N3 N 0.0234(4) 0.3668(8) 0.9066(4)
N4 N 0.1017(4) 0.6004(7) 0.8388(4)
C1 C 0.3859(5) 0.7657(9) 1.0510(5)
H1 H 0.3179 0.7503 1.0553
C2 C 0.4357(5) 0.8478(9) 1.1195(5)
H2 H 0.4017 0.8861 1.1705
C3 C 0.5359(5) 0.8753(9) 1.1147(5)
H3 H 0.5696 0.9360 1.1606
C4 C 0.5858(5) 0.8100(9) 1.0393(5)
H4 H 0.6538 0.8231 1.0347
C5 C 0.5337(4) 0.7276(8) 0.9734(5)
C6 C 0.5763(5) 0.6603(9) 0.8866(5)
C7 C 0.6761(5) 0.6514(10) 0.8700(5)
H5 H 0.7211 0.6932 0.9128
C8 C 0.7087(6) 0.5803(10) 0.7897(6)
H6 H 0.7759 0.5703 0.7782
C9 C 0.6406(5) 0.5239(10) 0.7265(5)
H7 H 0.6611 0.4815 0.6704
C10 C 0.5416(5) 0.5312(10) 0.7474(5)
H8 H 0.4959 0.4887 0.7054
C11 C 0.1215(5) 0.3169(9) 0.9115(5)
C12 C 0.1804(4) 0.4742(9) 0.8662(5)
C13 C 0.0115(5) 0.5359(10) 0.8630(5)
C14 C 0.2318(5) 0.3942(9) 0.7796(5)
Cu1A Cu 0.12859(6) 0.08608(10) 0.63005(6)
O5A O 0.3205(4) 0.8230(6) 0.7769(4)
O6 O 0.8603(4) 0.1834(7) 0.9798(4)
H9 H 0.810(8) 0.128(14) 0.920(8)
H10 H 0.857(8) 0.095(13) 1.004(8)
loop_
_geom_bond_atom_site_label_1
_geom_bond_atom_site_label_2
_geom_bond_site_symmetry_1
_geom_bond_site_symmetry_2
Cu1 O1 1_555 1_555
O1 C12 1_555 1_555
O2 C11 1_555 1_555
O3 C13 1_555 1_555
O4 Cu1 1_555 1_555
O5 C14 1_555 1_555
O6 H9 1_555 1_555
N1 Cu1 1_555 1_555
N2 Cu1 1_555 1_555
N3 C11 1_555 1_555
N4 C12 1_555 1_555
C1 N1 1_555 1_555
H1 C1 1_555 1_555
C2 C1 1_555 1_555
H2 C2 1_555 1_555
C3 C2 1_555 1_555
H3 C3 1_555 1_555
C4 C3 1_555 1_555
H4 C4 1_555 1_555
C5 N1 1_555 1_555
C6 N2 1_555 1_555
C7 C6 1_555 1_555
H5 C7 1_555 1_555
C8 C7 1_555 1_555
H6 C8 1_555 1_555
C9 C8 1_555 1_555
H7 C9 1_555 1_555
C10 N2 1_555 1_555
H8 C10 1_555 1_555
C11 C12 1_555 1_555
C12 C14 1_555 1_555
C13 N3 1_555 1_555
C14 O4 1_555 1_555
H10 O6 1_555 1_555
Cu1A O5 1_555 1_555
O5A Cu1 1_555 1_555
N4 C13 1_555 1_555
C4 C5 1_555 1_555
C5 C6 1_555 1_555
C9 C10 1_555 1_555

#END
