
#######################################################################
#
#                 Cambridge Crystallographic Data Centre
#                                CCDC 
#
#######################################################################
#
# If this CIF has been generated from an entry in the Cambridge 
# Structural Database, then it will include bibliographic, chemical, 
# crystal, experimental, refinement or atomic coordinate data resulting 
# from the CCDC's data processing and validation procedures.
#
#######################################################################

data_ALEYEV
_symmetry_cell_setting           monoclinic
_symmetry_space_group_name_H-M   'C 2/c'
_symmetry_Int_Tables_number      15
_space_group_name_Hall           '-C 2yn'
loop_
_symmetry_equiv_pos_site_id
_symmetry_equiv_pos_as_xyz
1 x,y,z
2 1/2+x,1/2+y,z
3 x,-y,1/2+z
4 1/2+x,1/2-y,1/2+z
5 -x,-y,-z
6 1/2-x,1/2-y,-z
7 -x,y,1/2-z
8 1/2-x,1/2+y,1/2-z
_cell_length_a                   19.355(4)
_cell_length_b                   7.076(2)
_cell_length_c                   22.549(4)
_cell_angle_alpha                90
_cell_angle_beta                 119.50(3)
_cell_angle_gamma                90
_cell_volume                     2687.85
loop_
_atom_site_label
_atom_site_type_symbol
_atom_site_fract_x
_atom_site_fract_y
_atom_site_fract_z
Fe1 Fe 0.2500 0.2500 0.0000
N1 N 0.37066(9) 0.3671(2) 0.03373(7)
N2 N 0.69739(9) 1.1002(2) 0.39698(7)
C1 C 0.43602(13) 0.2599(3) 0.06599(11)
H1 H 0.4297 0.1311 0.0700
C2 C 0.51202(12) 0.3305(3) 0.09345(10)
H2 H 0.5553 0.2497 0.1155
C3 C 0.52428(12) 0.5212(3) 0.08839(9)
C4 C 0.45663(13) 0.6302(3) 0.05265(10)
H3 H 0.4614 0.7582 0.0460
C5 C 0.38232(12) 0.5506(3) 0.02683(9)
H4 H 0.3381 0.6281 0.0035
C6 C 0.67858(14) 0.9173(3) 0.38961(10)
H5 H 0.6902 0.8479 0.4285
C7 C 0.64290(15) 0.8247(3) 0.32769(10)
H6 H 0.6306 0.6970 0.3258
C8 C 0.62544(12) 0.9202(3) 0.26871(9)
C9 C 0.64669(17) 1.1079(3) 0.27665(11)
H7 H 0.6375 1.1793 0.2388
C10 C 0.68141(16) 1.1912(3) 0.34006(10)
H8 H 0.6944 1.3187 0.3432
C11 C 0.60659(13) 0.6035(4) 0.12017(11)
H9 H 0.6065 0.7091 0.0927
H10 H 0.6426 0.5086 0.1199
C12 C 0.58703(13) 0.8265(3) 0.19954(10)
H11 H 0.5764 0.9216 0.1651
H12 H 0.5365 0.7730 0.1903
C13 C 0.63750(13) 0.6719(4) 0.19376(11)
H13 H 0.6393 0.5654 0.2216
H14 H 0.6913 0.7183 0.2117
N3 N 0.22367(11) 0.4941(2) 0.03853(8)
N4 N 0.19397(11) 0.5311(2) 0.07154(9)
N5 N 0.16682(19) 0.5728(4) 0.10507(16)
N1E N 0.12934(9) 0.1329(2) -0.03373(7)
N2E N -0.19739(9) -0.6002(2) -0.39698(7)
C1E C 0.06398(13) 0.2401(3) -0.06599(11)
H1E H 0.0703 0.3689 -0.0700
C2E C -0.01202(12) 0.1695(3) -0.09345(10)
H2E H -0.0553 0.2503 -0.1155
C3E C -0.02428(12) -0.0212(3) -0.08839(9)
C4E C 0.04337(13) -0.1302(3) -0.05265(10)
H3E H 0.0386 -0.2582 -0.0460
C5E C 0.11768(12) -0.0506(3) -0.02683(9)
H4E H 0.1619 -0.1281 -0.0035
C6E C -0.17858(14) -0.4173(3) -0.38961(10)
H5E H -0.1902 -0.3479 -0.4285
C7E C -0.14290(15) -0.3247(3) -0.32769(10)
H6E H -0.1306 -0.1970 -0.3258
C8E C -0.12544(12) -0.4202(3) -0.26871(9)
C9E C -0.14669(17) -0.6079(3) -0.27665(11)
H7E H -0.1375 -0.6793 -0.2388
C10E C -0.18141(16) -0.6912(3) -0.34006(10)
H8E H -0.1944 -0.8187 -0.3432
C11E C -0.10659(13) -0.1035(4) -0.12017(11)
H9E H -0.1065 -0.2091 -0.0927
H10E H -0.1426 -0.0086 -0.1199
C12E C -0.08703(13) -0.3265(3) -0.19954(10)
H11E H -0.0764 -0.4216 -0.1651
H12E H -0.0365 -0.2730 -0.1903
C13E C -0.13750(13) -0.1719(4) -0.19376(11)
H13E H -0.1393 -0.0654 -0.2216
H14E H -0.1913 -0.2183 -0.2117
N3E N 0.27633(11) 0.0059(2) -0.03853(8)
N4E N 0.30603(11) -0.0311(2) -0.07154(9)
N5E N 0.33318(19) -0.0728(4) -0.10507(16)
N2C N 0.19739(9) 0.3998(2) -0.10302(7)
N2F N 0.30261(9) 0.1002(2) 0.10302(7)
Fe1C Fe 0.7500 1.2500 0.5000
Fe1C_2 Fe -0.2500 -0.7500 -0.5000
loop_
_geom_bond_atom_site_label_1
_geom_bond_atom_site_label_2
_geom_bond_site_symmetry_1
_geom_bond_site_symmetry_2
Fe1 N1 1_555 1_555
N1 C1 1_555 1_555
N2 C6 1_555 1_555
C1 H1 1_555 1_555
C2 C1 1_555 1_555
H2 C2 1_555 1_555
C3 C2 1_555 1_555
C4 C3 1_555 1_555
H3 C4 1_555 1_555
C5 N1 1_555 1_555
H4 C5 1_555 1_555
C6 H5 1_555 1_555
C7 C6 1_555 1_555
H6 C7 1_555 1_555
C8 C7 1_555 1_555
C9 C8 1_555 1_555
H7 C9 1_555 1_555
C10 N2 1_555 1_555
H8 C10 1_555 1_555
C11 C3 1_555 1_555
H9 C11 1_555 1_555
H10 C11 1_555 1_555
C12 C8 1_555 1_555
H11 C12 1_555 1_555
H12 C12 1_555 1_555
C13 C11 1_555 1_555
H13 C13 1_555 1_555
H14 C13 1_555 1_555
N3 Fe1 1_555 1_555
N4 N3 1_555 1_555
N5 N4 1_555 1_555
N1E Fe1 1_555 1_555
N2E C6E 1_555 1_555
C1E N1E 1_555 1_555
H1E C1E 1_555 1_555
C2E C1E 1_555 1_555
H2E C2E 1_555 1_555
C3E C2E 1_555 1_555
C4E C3E 1_555 1_555
H3E C4E 1_555 1_555
C5E N1E 1_555 1_555
H4E C5E 1_555 1_555
C6E H5E 1_555 1_555
C7E C6E 1_555 1_555
H6E C7E 1_555 1_555
C8E C7E 1_555 1_555
C9E C8E 1_555 1_555
H7E C9E 1_555 1_555
C10E N2E 1_555 1_555
H8E C10E 1_555 1_555
C11E C3E 1_555 1_555
H9E C11E 1_555 1_555
H10E C11E 1_555 1_555
C12E C8E 1_555 1_555
H11E C12E 1_555 1_555
H12E C12E 1_555 1_555
C13E C11E 1_555 1_555
H13E C13E 1_555 1_555
H14E C13E 1_555 1_555
N3E Fe1 1_555 1_555
N4E N3E 1_555 1_555
N5E N4E 1_555 1_555
N2C Fe1 1_555 1_555
N2F Fe1 1_555 1_555
Fe1C N2 1_555 1_555
Fe1C_2 N2E 1_555 1_555
C4 C5 1_555 1_555
C9 C10 1_555 1_555
C12 C13 1_555 1_555
C4E C5E 1_555 1_555
C9E C10E 1_555 1_555
C12E C13E 1_555 1_555

#END
