
#######################################################################
#
#                 Cambridge Crystallographic Data Centre
#                                CCDC 
#
#######################################################################
#
# If this CIF has been generated from an entry in the Cambridge 
# Structural Database, then it will include bibliographic, chemical, 
# crystal, experimental, refinement or atomic coordinate data resulting 
# from the CCDC's data processing and validation procedures.
#
#######################################################################

data_ALICAA
_symmetry_cell_setting           cubic
_symmetry_space_group_name_H-M   'I m -3 m'
_symmetry_Int_Tables_number      229
_space_group_name_Hall           '-I 4 2 3'
loop_
_symmetry_equiv_pos_site_id
_symmetry_equiv_pos_as_xyz
1 x,y,z
2 -x,-y,z
3 -x,y,-z
4 x,-y,-z
5 z,x,y
6 z,-x,-y
7 -z,-x,y
8 -z,x,-y
9 y,z,x
10 -y,z,-x
11 y,-z,-x
12 -y,-z,x
13 y,x,-z
14 -y,-x,-z
15 y,-x,z
16 -y,x,z
17 x,z,-y
18 -x,z,y
19 -x,-z,-y
20 x,-z,y
21 z,y,-x
22 z,-y,x
23 -z,y,x
24 -z,-y,-x
25 1/2+x,1/2+y,1/2+z
26 1/2-x,1/2-y,1/2+z
27 1/2-x,1/2+y,1/2-z
28 1/2+x,1/2-y,1/2-z
29 1/2+z,1/2+x,1/2+y
30 1/2+z,1/2-x,1/2-y
31 1/2-z,1/2-x,1/2+y
32 1/2-z,1/2+x,1/2-y
33 1/2+y,1/2+z,1/2+x
34 1/2-y,1/2+z,1/2-x
35 1/2+y,1/2-z,1/2-x
36 1/2-y,1/2-z,1/2+x
37 1/2+y,1/2+x,1/2-z
38 1/2-y,1/2-x,1/2-z
39 1/2+y,1/2-x,1/2+z
40 1/2-y,1/2+x,1/2+z
41 1/2+x,1/2+z,1/2-y
42 1/2-x,1/2+z,1/2+y
43 1/2-x,1/2-z,1/2-y
44 1/2+x,1/2-z,1/2+y
45 1/2+z,1/2+y,1/2-x
46 1/2+z,1/2-y,1/2+x
47 1/2-z,1/2+y,1/2+x
48 1/2-z,1/2-y,1/2-x
49 -x,-y,-z
50 x,y,-z
51 x,-y,z
52 -x,y,z
53 -z,-x,-y
54 -z,x,y
55 z,x,-y
56 z,-x,y
57 -y,-z,-x
58 y,-z,x
59 -y,z,x
60 y,z,-x
61 -y,-x,z
62 y,x,z
63 -y,x,-z
64 y,-x,-z
65 -x,-z,y
66 x,-z,-y
67 x,z,y
68 -x,z,-y
69 -z,-y,x
70 -z,y,-x
71 z,-y,-x
72 z,y,x
73 1/2-x,1/2-y,1/2-z
74 1/2+x,1/2+y,1/2-z
75 1/2+x,1/2-y,1/2+z
76 1/2-x,1/2+y,1/2+z
77 1/2-z,1/2-x,1/2-y
78 1/2-z,1/2+x,1/2+y
79 1/2+z,1/2+x,1/2-y
80 1/2+z,1/2-x,1/2+y
81 1/2-y,1/2-z,1/2-x
82 1/2+y,1/2-z,1/2+x
83 1/2-y,1/2+z,1/2+x
84 1/2+y,1/2+z,1/2-x
85 1/2-y,1/2-x,1/2+z
86 1/2+y,1/2+x,1/2+z
87 1/2-y,1/2+x,1/2-z
88 1/2+y,1/2-x,1/2-z
89 1/2-x,1/2-z,1/2+y
90 1/2+x,1/2-z,1/2-y
91 1/2+x,1/2+z,1/2+y
92 1/2-x,1/2+z,1/2-y
93 1/2-z,1/2-y,1/2+x
94 1/2-z,1/2+y,1/2-x
95 1/2+z,1/2-y,1/2-x
96 1/2+z,1/2+y,1/2+x
_cell_length_a                   23.575(3)
_cell_length_b                   23.575(3)
_cell_length_c                   23.575(3)
_cell_angle_alpha                90
_cell_angle_beta                 90
_cell_angle_gamma                90
_cell_volume                     13102.5
loop_
_atom_site_label
_atom_site_type_symbol
_atom_site_fract_x
_atom_site_fract_y
_atom_site_fract_z
W1 W 0.2500 0.5000 0.0000
Zn1 Zn 0.31984(6) 0.5000 0.13859(6)
N1 N 0.2493(6) 0.5000 0.1840(7)
O1 O 0.2930(7) 0.5000 0.0591(5)
N2 N 0.3632(5) 0.4307(6) 0.1478(6)
C1 C 0.2293(8) 0.5000 0.2293(8)
C2 C 0.4091(10) 0.4091(10) 0.1388(14)
C3 C 0.4309(12) 0.4309(12) 0.0736(16)
C4 C 0.2098(13) 0.5542(14) 0.1688(14)
C5 C 0.3524(14) 0.3979(15) 0.2016(15)
C6 C 0.2539(19) 0.433(3) 0.2539(19)
Zn1O Zn 0.5000 0.31984(6) 0.13859(6)
Zn1U Zn 0.13859(6) 0.5000 0.31984(6)
Zn1N Zn 0.5000 0.68016(6) 0.13859(6)
Zn1OA Zn 0.18016(6) 0.63859(6) 0.0000
Zn1PA Zn 0.18016(6) 0.36141(6) 0.0000
Zn1C Zn 0.31984(6) 0.5000 -0.13859(6)
Zn1IA Zn 0.0000 0.36141(6) -0.18016(6)
Zn1HA Zn 0.0000 0.36141(6) 0.18016(6)
Zn1DA Zn 0.36141(6) 0.18016(6) 0.0000
N1U N 0.1840(7) 0.5000 0.2493(6)
N1OA N 0.2507(6) 0.6840(7) 0.0000
N1C N 0.2493(6) 0.5000 -0.1840(7)
N1PA N 0.2507(6) 0.3160(7) 0.0000
N1DA N 0.3160(7) 0.2507(6) 0.0000
O1C O 0.2930(7) 0.5000 -0.0591(5)
O1OA O 0.2070(7) 0.5591(5) 0.0000
O1PA O 0.2070(7) 0.4409(5) 0.0000
N2XA N 0.3632(5) 0.5693(6) 0.1478(6)
N2IB N 0.4307(6) 0.3632(5) 0.1478(6)
N2N N 0.4307(6) 0.6368(5) 0.1478(6)
N2OA N 0.1368(5) 0.6478(6) -0.0693(6)
N2MC N 0.1368(5) 0.6478(6) 0.0693(6)
N2C N 0.3632(5) 0.5693(6) -0.1478(6)
N2WA N 0.3632(5) 0.4307(6) -0.1478(6)
N2PA N 0.1368(5) 0.3522(6) 0.0693(6)
N2JC N 0.1368(5) 0.3522(6) -0.0693(6)
N2BC N 0.0693(6) 0.3522(6) 0.1368(5)
N2IA N 0.0693(6) 0.3522(6) -0.1368(5)
C1DA C 0.2707(8) 0.2707(8) 0.0000
C2N C 0.4091(10) 0.5909(10) 0.1388(14)
C2PA C 0.0909(10) 0.3612(14) 0.0909(10)
C2IA C 0.0909(10) 0.3612(14) -0.0909(10)
C3N C 0.4309(12) 0.5691(12) 0.0736(16)
C3PA C 0.0691(12) 0.4264(16) 0.0691(12)
C3IA C 0.0691(12) 0.4264(16) -0.0691(12)
C4XA C 0.2098(13) 0.4458(14) 0.1688(14)
C4SB C 0.1688(14) 0.5542(14) 0.2098(13)
C4U C 0.1688(14) 0.4458(14) 0.2098(13)
C4PA C 0.2902(13) 0.3312(14) -0.0542(14)
C4JC C 0.2902(13) 0.3312(14) 0.0542(14)
C4DA C 0.3312(14) 0.2902(13) 0.0542(14)
C4XB C 0.3312(14) 0.2902(13) -0.0542(14)
C5IB C 0.3979(15) 0.3524(14) 0.2016(15)
C5XA C 0.3524(14) 0.6021(15) 0.2016(15)
C5N C 0.3979(15) 0.6476(14) 0.2016(15)
C5PA C 0.1476(14) 0.2984(15) 0.1021(15)
C5JC C 0.1476(14) 0.2984(15) -0.1021(15)
C5BC C 0.1021(15) 0.2984(15) 0.1476(14)
C5IA C 0.1021(15) 0.2984(15) -0.1476(14)
C6U C 0.2539(19) 0.567(3) 0.2539(19)
C6DA C 0.2461(19) 0.2461(19) -0.067(3)
C6PA C 0.2461(19) 0.2461(19) 0.067(3)
O2 O 0.2500 0.2500 0.2500
O3 O 0.5000 0.5000 0.280(7)
loop_
_geom_bond_atom_site_label_1
_geom_bond_atom_site_label_2
_geom_bond_site_symmetry_1
_geom_bond_site_symmetry_2
W1 O1 1_555 1_555
Zn1 N1 1_555 1_555
N1 C1 1_555 1_555
O1 Zn1 1_555 1_555
N2 Zn1 1_555 1_555
C1 C6 1_555 1_555
C2 N2 1_555 1_555
C3 C2 1_555 1_555
C4 N1 1_555 1_555
C5 N2 1_555 1_555
Zn1O N2IB 1_555 1_555
Zn1U N1U 1_555 1_555
Zn1N N2N 1_555 1_555
Zn1OA N1OA 1_555 1_555
Zn1PA N1PA 1_555 1_555
Zn1C N1C 1_555 1_555
Zn1IA N2IA 1_555 1_555
Zn1HA N2BC 1_555 1_555
Zn1DA N1DA 1_555 1_555
N1U C1 1_555 1_555
N1PA C1DA 1_555 1_555
N1DA C1DA 1_555 1_555
O1C W1 1_555 1_555
O1OA W1 1_555 1_555
O1PA W1 1_555 1_555
N2XA Zn1 1_555 1_555
N2IB C2 1_555 1_555
N2N C2N 1_555 1_555
N2OA Zn1OA 1_555 1_555
N2MC Zn1OA 1_555 1_555
N2C Zn1C 1_555 1_555
N2WA Zn1C 1_555 1_555
N2PA Zn1PA 1_555 1_555
N2JC Zn1PA 1_555 1_555
N2BC C2PA 1_555 1_555
N2IA C2IA 1_555 1_555
C1DA C6DA 1_555 1_555
C2N N2XA 1_555 1_555
C2PA N2PA 1_555 1_555
C2IA N2JC 1_555 1_555
C3N C2N 1_555 1_555
C3PA C2PA 1_555 1_555
C3IA C2IA 1_555 1_555
C4XA N1 1_555 1_555
C4SB C4 1_555 1_555
C4U N1U 1_555 1_555
C4PA N1PA 1_555 1_555
C4JC N1PA 1_555 1_555
C4DA N1DA 1_555 1_555
C4XB N1DA 1_555 1_555
C5IB C5 1_555 1_555
C5XA N2XA 1_555 1_555
C5N N2N 1_555 1_555
C5PA N2PA 1_555 1_555
C5JC N2JC 1_555 1_555
C5BC N2BC 1_555 1_555
C5IA N2IA 1_555 1_555
C6U C1 1_555 1_555
C6PA C1DA 1_555 1_555
Zn1OA O1OA 1_555 1_555
Zn1PA O1PA 1_555 1_555
Zn1C O1C 1_555 1_555
N1U C4SB 1_555 1_555
N2IB C5IB 1_555 1_555
C4JC C4DA 1_555 1_555
C5XA C5N 1_555 1_555
C5PA C5BC 1_555 1_555
C5JC C5IA 1_555 1_555

#END
