
#######################################################################
#
#                 Cambridge Crystallographic Data Centre
#                                CCDC 
#
#######################################################################
#
# If this CIF has been generated from an entry in the Cambridge 
# Structural Database, then it will include bibliographic, chemical, 
# crystal, experimental, refinement or atomic coordinate data resulting 
# from the CCDC's data processing and validation procedures.
#
#######################################################################

data_ALICII
_symmetry_cell_setting           tetragonal
_symmetry_space_group_name_H-M   'I 41 2 2'
_symmetry_Int_Tables_number      98
_space_group_name_Hall           'I 4bw 2bw'
loop_
_symmetry_equiv_pos_site_id
_symmetry_equiv_pos_as_xyz
1 x,y,z
2 -y,1/2+x,1/4+z
3 -x,-y,z
4 y,1/2-x,1/4+z
5 x,1/2-y,1/4-z
6 -x,1/2+y,1/4-z
7 y,x,-z
8 -y,-x,-z
9 1/2+x,1/2+y,1/2+z
10 1/2-y,x,3/4+z
11 1/2-x,1/2-y,1/2+z
12 1/2+y,-x,3/4+z
13 1/2+x,-y,3/4-z
14 1/2-x,y,3/4-z
15 1/2+y,1/2+x,1/2-z
16 1/2-y,1/2-x,1/2-z
_cell_length_a                   20.7391(7)
_cell_length_b                   20.7391(7)
_cell_length_c                   3.3462(2)
_cell_angle_alpha                90
_cell_angle_beta                 90
_cell_angle_gamma                90
_cell_volume                     1439.23
loop_
_atom_site_label
_atom_site_type_symbol
_atom_site_fract_x
_atom_site_fract_y
_atom_site_fract_z
Cu1 Cu 0.36518(13) 0.2500 0.1250
Cu2 Cu 0.5000 0.5000 0.0000
N1 N 0.3819(6) 0.3410(5) 0.053(4)
N2 N 0.4314(7) 0.4314(7) 0.0000
C1 C 0.4483(12) 0.3654(10) 0.091(6)
H1 H 0.4881 0.3451 0.1531
Cu1F Cu 0.2500 0.36518(13) -0.1250
Cu1B Cu 0.63482(13) 0.7500 0.1250
Cu1G Cu 0.7500 0.63482(13) -0.1250
N1F N 0.3410(5) 0.3819(6) -0.053(4)
N1B N 0.6181(6) 0.6590(5) 0.053(4)
N1G N 0.6590(5) 0.6181(6) -0.053(4)
N1D N 0.3819(6) 0.1590(5) 0.197(4)
N1I N 0.1590(5) 0.3819(6) -0.197(4)
N2B N 0.5686(7) 0.5686(7) 0.0000
C1F C 0.3654(10) 0.4483(12) -0.091(6)
C1B C 0.5517(12) 0.6346(10) 0.091(6)
C1G C 0.6346(10) 0.5517(12) -0.091(6)
H1F H 0.3451 0.4881 -0.1531
H1B H 0.5119 0.6549 0.1531
H1G H 0.6549 0.5119 -0.1531
loop_
_geom_bond_atom_site_label_1
_geom_bond_atom_site_label_2
_geom_bond_site_symmetry_1
_geom_bond_site_symmetry_2
Cu1 N1 1_555 1_555
Cu2 N2 1_555 1_555
N1 C1 1_555 1_555
N2 C1 1_555 1_555
C1 H1 1_555 1_555
Cu1F N1F 1_555 1_555
Cu1B N1B 1_555 1_555
Cu1G N1G 1_555 1_555
N1F N1 1_555 1_555
N1B N1G 1_555 1_555
N1G C1G 1_555 1_555
N1D Cu1 1_555 1_555
N1I Cu1F 1_555 1_555
N2B Cu2 1_555 1_555
C1F N2 1_555 1_555
C1B N1B 1_555 1_555
C1G N2B 1_555 1_555
H1F C1F 1_555 1_555
H1B C1B 1_555 1_555
H1G C1G 1_555 1_555
N1F C1F 1_555 1_555
N2B C1B 1_555 1_555

#END
