
#######################################################################
#
#                 Cambridge Crystallographic Data Centre
#                                CCDC 
#
#######################################################################
#
# If this CIF has been generated from an entry in the Cambridge 
# Structural Database, then it will include bibliographic, chemical, 
# crystal, experimental, refinement or atomic coordinate data resulting 
# from the CCDC's data processing and validation procedures.
#
#######################################################################

data_ALIDEF
_symmetry_cell_setting           orthorhombic
_symmetry_space_group_name_H-M   'P n a 21'
_symmetry_Int_Tables_number      33
_space_group_name_Hall           'P 2c -2n'
loop_
_symmetry_equiv_pos_site_id
_symmetry_equiv_pos_as_xyz
1 x,y,z
2 -x,-y,1/2+z
3 1/2+x,1/2-y,z
4 1/2-x,1/2+y,1/2+z
_cell_length_a                   22.607(2)
_cell_length_b                   12.3933(12)
_cell_length_c                   6.6018(7)
_cell_angle_alpha                90
_cell_angle_beta                 90
_cell_angle_gamma                90
_cell_volume                     1849.66
loop_
_atom_site_label
_atom_site_type_symbol
_atom_site_fract_x
_atom_site_fract_y
_atom_site_fract_z
Cu1 Cu 0.17348(2) 0.65496(4) 0.44627(10)
V1 V 0.02198(3) 1.04365(6) 0.07284(12)
P1 P 0.06982(5) 0.82840(9) 0.29211(18)
O1 O 0.06948(14) 0.9160(2) 0.1253(5)
O2 O 0.12989(14) 0.7785(3) 0.3088(5)
O3 O 0.04847(14) 0.8748(3) 0.4956(5)
O4 O -0.12110(15) 0.4688(3) -0.1379(6)
O5 O -0.12305(17) 0.4120(3) 0.1763(6)
O6 O 0.06824(16) 1.1387(3) 0.1276(6)
O7 O -0.02973(14) 0.9999(3) 0.2949(5)
N1 N 0.24109(18) 0.6231(3) 0.2648(6)
N2 N 0.31303(17) 0.6941(4) 0.4900(7)
N3 N 0.22084(17) 0.7449(3) 0.6253(6)
C1 C 0.01627(19) 0.7286(3) 0.2172(7)
C2 C 0.0050(2) 0.7080(4) 0.0121(7)
H1 H 0.0241 0.7494 -0.0898
C3 C -0.0342(2) 0.6266(4) -0.0410(8)
H2 H -0.0418 0.6130 -0.1802
C4 C -0.0625(2) 0.5648(3) 0.1043(7)
C5 C -0.1034(2) 0.4776(3) 0.0450(8)
C6 C -0.0511(2) 0.5848(4) 0.3108(8)
H3 H -0.0700 0.5429 0.4126
C7 C -0.0118(2) 0.6666(4) 0.3639(7)
H4 H -0.0041 0.6803 0.5030
C8 C 0.2281(2) 0.5734(4) 0.0885(9)
H5 H 0.1878 0.5620 0.0543
C9 C 0.2711(2) 0.5388(4) -0.0435(9)
H6 H 0.2609 0.5028 -0.1656
C10 C 0.3306(2) 0.5578(4) 0.0066(9)
H7 H 0.3613 0.5344 -0.0812
C11 C 0.3439(2) 0.6104(4) 0.1831(8)
H8 H 0.3839 0.6253 0.2178
C12 C 0.2977(2) 0.6421(4) 0.3120(8)
C13 C 0.2800(2) 0.7469(4) 0.6334(8)
C14 C 0.3095(2) 0.8017(4) 0.7897(9)
H9 H 0.3515 0.8040 0.7931
C15 C 0.2772(2) 0.8518(4) 0.9363(10)
H10 H 0.2967 0.8872 1.0448
C16 C 0.2152(2) 0.8513(4) 0.9281(9)
H11 H 0.1921 0.8866 1.0281
C17 C 0.1896(2) 0.7978(4) 0.7699(8)
H12 H 0.1477 0.7976 0.7607
H13 H 0.350(2) 0.699(4) 0.508(7)
Cu1A Cu -0.17348(2) 0.34504(4) -0.05373(10)
V1A V -0.02198(3) 0.95635(6) 0.57284(12)
O3A O -0.04847(14) 1.1252(3) -0.0044(5)
O4A O 0.12110(15) 0.5312(3) 0.3621(6)
O5A O 0.12305(17) 0.5880(3) 0.6763(6)
O7A O 0.02973(14) 1.0001(3) -0.2051(5)
loop_
_geom_bond_atom_site_label_1
_geom_bond_atom_site_label_2
_geom_bond_site_symmetry_1
_geom_bond_site_symmetry_2
Cu1 O2 1_555 1_555
V1 O1 1_555 1_555
P1 O1 1_555 1_555
O2 P1 1_555 1_555
O3 P1 1_555 1_555
O4 C5 1_555 1_555
O5 C5 1_555 1_555
O6 V1 1_555 1_555
O7 V1 1_555 1_555
N1 Cu1 1_555 1_555
N2 C12 1_555 1_555
N3 Cu1 1_555 1_555
C1 P1 1_555 1_555
C2 C1 1_555 1_555
H1 C2 1_555 1_555
C3 C2 1_555 1_555
H2 C3 1_555 1_555
C4 C3 1_555 1_555
C5 C4 1_555 1_555
C6 C4 1_555 1_555
H3 C6 1_555 1_555
C7 C1 1_555 1_555
H4 C7 1_555 1_555
C8 N1 1_555 1_555
H5 C8 1_555 1_555
C9 C8 1_555 1_555
H6 C9 1_555 1_555
C10 C9 1_555 1_555
H7 C10 1_555 1_555
C11 C10 1_555 1_555
H8 C11 1_555 1_555
C12 N1 1_555 1_555
C13 N2 1_555 1_555
C14 C13 1_555 1_555
H9 C14 1_555 1_555
C15 C14 1_555 1_555
H10 C15 1_555 1_555
C16 C15 1_555 1_555
H11 C16 1_555 1_555
C17 N3 1_555 1_555
H12 C17 1_555 1_555
H13 N2 1_555 1_555
Cu1A O4 1_555 1_555
V1A O3 1_555 1_555
O3A V1 1_555 1_555
O4A Cu1 1_555 1_555
O5A Cu1 1_555 1_555
O7A V1 1_555 1_555
O5 Cu1A 1_555 1_555
O7 V1A 1_555 1_555
N3 C13 1_555 1_555
C6 C7 1_555 1_555
C11 C12 1_555 1_555
C16 C17 1_555 1_555

#END
