
#######################################################################
#
#                 Cambridge Crystallographic Data Centre
#                                CCDC 
#
#######################################################################
#
# If this CIF has been generated from an entry in the Cambridge 
# Structural Database, then it will include bibliographic, chemical, 
# crystal, experimental, refinement or atomic coordinate data resulting 
# from the CCDC's data processing and validation procedures.
#
#######################################################################

data_ALIDUV
_symmetry_cell_setting           triclinic
_symmetry_space_group_name_H-M   'P -1'
_symmetry_Int_Tables_number      2
_space_group_name_Hall           '-P 1'
loop_
_symmetry_equiv_pos_site_id
_symmetry_equiv_pos_as_xyz
1 x,y,z
2 -x,-y,-z
_cell_length_a                   8.3457(9)
_cell_length_b                   9.6129(10)
_cell_length_c                   9.8367(11)
_cell_angle_alpha                86.356(2)
_cell_angle_beta                 84.540(2)
_cell_angle_gamma                88.730(2)
_cell_volume                     783.891
loop_
_atom_site_label
_atom_site_type_symbol
_atom_site_fract_x
_atom_site_fract_y
_atom_site_fract_z
Cu1 Cu 0.5000 0.5000 0.5000
Cu2 Cu 0.85673(3) 0.53351(3) 0.73028(3)
P1 P 0.84367(7) 0.34301(6) 0.47058(6)
O1 O 0.8847(2) 0.38292(18) 0.61011(17)
O2 O 0.9856(2) 0.34555(18) 0.36146(18)
O3 O 0.6994(2) 0.42308(17) 0.41871(17)
O4 O 0.6516(2) -0.33758(18) 0.64763(17)
O5 O 0.5775(2) -0.31378(17) 0.43598(17)
N1 N 0.8755(2) 0.6318(2) 0.9056(2)
N2 N 0.7100(2) 0.4152(2) 0.8641(2)
C1 C 0.7910(3) 0.1602(2) 0.4912(2)
C2 C 0.7193(3) 0.1003(3) 0.3873(3)
H1 H 0.7013 0.1542 0.3082
C3 C 0.6743(3) -0.0388(3) 0.3998(2)
H2 H 0.6266 -0.0770 0.3293
C4 C 0.7006(3) -0.1209(2) 0.5179(2)
C5 C 0.7745(3) -0.0628(3) 0.6211(3)
H3 H 0.7938 -0.1171 0.6996
C6 C 0.8199(3) 0.0761(3) 0.6076(3)
H4 H 0.8701 0.1135 0.6771
C7 C 0.6414(3) -0.2677(2) 0.5360(2)
C8 C 0.9626(3) 0.7454(3) 0.9163(3)
H5 H 1.0149 0.7884 0.8376
C9 C 0.9769(3) 0.8005(3) 1.0412(3)
H6 H 1.0375 0.8798 1.0459
C10 C 0.8999(3) 0.7362(3) 1.1591(3)
H7 H 0.9080 0.7720 1.2437
C11 C 0.8110(3) 0.6182(3) 1.1493(2)
H8 H 0.7595 0.5726 1.2271
C12 C 0.8004(3) 0.5692(3) 1.0200(2)
C13 C 0.7071(3) 0.4454(3) 0.9973(2)
C14 C 0.6207(3) 0.3668(3) 1.1010(3)
H9 H 0.6199 0.3895 1.1916
C15 C 0.5352(3) 0.2535(3) 1.0672(3)
H10 H 0.4769 0.1988 1.1351
C16 C 0.5380(3) 0.2233(3) 0.9312(3)
H11 H 0.4816 0.1479 0.9067
C17 C 0.6261(3) 0.3068(3) 0.8320(3)
H12 H 0.6269 0.2868 0.7407
Cu1_2 Cu 0.5000 -0.5000 0.5000
Cu1_3 Cu 0.5000 1.5000 0.5000
Cu2A Cu 0.14327(3) 0.46649(3) 0.26972(3)
Cu2A_2 Cu 1.14327(3) 0.46649(3) 0.26972(3)
Cu2_2 Cu 0.85673(3) -0.46649(3) 0.73028(3)
Cu2_3 Cu -0.14327(3) 0.53351(3) 0.73028(3)
Cu2A_3 Cu 0.14327(3) 1.46649(3) 0.26972(3)
P1A P 0.15633(7) 0.65699(6) 0.52942(6)
O1A O 0.1153(2) 0.61708(18) 0.38989(17)
O2A O 0.0144(2) 0.65445(18) 0.63854(18)
O2A_2 O 1.0144(2) 0.65445(18) 0.63854(18)
O2_2 O -0.0144(2) 0.34555(18) 0.36146(18)
O3A O 0.3006(2) 0.57692(17) 0.58129(17)
O4A O 0.3484(2) 1.33758(18) 0.35237(17)
O4_2 O 0.6516(2) 0.66242(18) 0.64763(17)
O4A_2 O 0.3484(2) 0.33758(18) 0.35237(17)
O5A O 0.4225(2) 1.31378(17) 0.56402(17)
O5_2 O 0.5775(2) 0.68622(17) 0.43598(17)
O5A_2 O 0.4225(2) 0.31378(17) 0.56402(17)
N1A N 0.1245(2) 0.3682(2) 0.0944(2)
N2A N 0.2900(2) 0.5848(2) 0.1359(2)
C1A C 0.2090(3) 0.8398(2) 0.5088(2)
C2A C 0.2807(3) 0.8997(3) 0.6127(3)
H1A H 0.2987 0.8458 0.6918
C3A C 0.3257(3) 1.0388(3) 0.6002(2)
H2A H 0.3734 1.0770 0.6707
C4A C 0.2994(3) 1.1209(2) 0.4821(2)
C5A C 0.2255(3) 1.0628(3) 0.3789(3)
H3A H 0.2062 1.1171 0.3004
C6A C 0.1801(3) 0.9239(3) 0.3924(3)
H4A H 0.1299 0.8865 0.3229
C7A C 0.3586(3) 1.2677(2) 0.4640(2)
C8A C 0.0374(3) 0.2546(3) 0.0837(3)
H5A H -0.0149 0.2116 0.1624
C9A C 0.0231(3) 0.1995(3) -0.0412(3)
H6A H -0.0375 0.1202 -0.0459
C10A C 0.1001(3) 0.2638(3) -0.1591(3)
H7A H 0.0920 0.2280 -0.2437
C11A C 0.1890(3) 0.3818(3) -0.1493(2)
H8A H 0.2405 0.4274 -0.2271
C12A C 0.1996(3) 0.4308(3) -0.0200(2)
C13A C 0.2929(3) 0.5546(3) 0.0027(2)
C14A C 0.3793(3) 0.6332(3) -0.1010(3)
H9A H 0.3801 0.6105 -0.1916
C15A C 0.4648(3) 0.7465(3) -0.0672(3)
H10A H 0.5231 0.8012 -0.1351
C16A C 0.4620(3) 0.7767(3) 0.0688(3)
H11A H 0.5184 0.8521 0.0933
C17A C 0.3739(3) 0.6932(3) 0.1680(3)
H12A H 0.3731 0.7132 0.2593
loop_
_geom_bond_atom_site_label_1
_geom_bond_atom_site_label_2
_geom_bond_site_symmetry_1
_geom_bond_site_symmetry_2
Cu1 O3 1_555 1_555
Cu2 O1 1_555 1_555
P1 O1 1_555 1_555
O2 P1 1_555 1_555
O3 P1 1_555 1_555
O4 C7 1_555 1_555
O5 C7 1_555 1_555
N1 Cu2 1_555 1_555
N2 Cu2 1_555 1_555
C1 P1 1_555 1_555
C2 C1 1_555 1_555
H1 C2 1_555 1_555
C3 C2 1_555 1_555
H2 C3 1_555 1_555
C4 C3 1_555 1_555
C5 C4 1_555 1_555
H3 C5 1_555 1_555
C6 C1 1_555 1_555
H4 C6 1_555 1_555
C7 C4 1_555 1_555
C8 N1 1_555 1_555
H5 C8 1_555 1_555
C9 C8 1_555 1_555
H6 C9 1_555 1_555
C10 C9 1_555 1_555
H7 C10 1_555 1_555
C11 C10 1_555 1_555
H8 C11 1_555 1_555
C12 N1 1_555 1_555
C13 N2 1_555 1_555
C14 C13 1_555 1_555
H9 C14 1_555 1_555
C15 C14 1_555 1_555
H10 C15 1_555 1_555
C16 C15 1_555 1_555
H11 C16 1_555 1_555
C17 N2 1_555 1_555
H12 C17 1_555 1_555
Cu1_2 O5 1_555 1_555
Cu1_3 O5A 1_555 1_555
Cu2A O1A 1_555 1_555
Cu2A_2 O2 1_555 1_555
Cu2_2 O4 1_555 1_555
Cu2_3 O2A 1_555 1_555
Cu2A_3 O4A 1_555 1_555
P1A O1A 1_555 1_555
O2A P1A 1_555 1_555
O2A_2 Cu2 1_555 1_555
O2_2 Cu2A 1_555 1_555
O3A Cu1 1_555 1_555
O4A C7A 1_555 1_555
O4_2 Cu2 1_555 1_555
O4A_2 Cu2A 1_555 1_555
O5A C7A 1_555 1_555
O5_2 Cu1 1_555 1_555
O5A_2 Cu1 1_555 1_555
N1A Cu2A 1_555 1_555
N2A Cu2A 1_555 1_555
C1A P1A 1_555 1_555
C2A C1A 1_555 1_555
H1A C2A 1_555 1_555
C3A C2A 1_555 1_555
H2A C3A 1_555 1_555
C4A C3A 1_555 1_555
C5A C4A 1_555 1_555
H3A C5A 1_555 1_555
C6A C1A 1_555 1_555
H4A C6A 1_555 1_555
C7A C4A 1_555 1_555
C8A N1A 1_555 1_555
H5A C8A 1_555 1_555
C9A C8A 1_555 1_555
H6A C9A 1_555 1_555
C10A C9A 1_555 1_555
H7A C10A 1_555 1_555
C11A C10A 1_555 1_555
H8A C11A 1_555 1_555
C12A N1A 1_555 1_555
C13A N2A 1_555 1_555
C14A C13A 1_555 1_555
H9A C14A 1_555 1_555
C15A C14A 1_555 1_555
H10A C15A 1_555 1_555
C16A C15A 1_555 1_555
H11A C16A 1_555 1_555
C17A N2A 1_555 1_555
H12A C17A 1_555 1_555
C5 C6 1_555 1_555
C11 C12 1_555 1_555
C12 C13 1_555 1_555
C16 C17 1_555 1_555
P1A O3A 1_555 1_555
C5A C6A 1_555 1_555
C11A C12A 1_555 1_555
C12A C13A 1_555 1_555
C16A C17A 1_555 1_555

#END
