
#######################################################################
#
#                 Cambridge Crystallographic Data Centre
#                                CCDC 
#
#######################################################################
#
# If this CIF has been generated from an entry in the Cambridge 
# Structural Database, then it will include bibliographic, chemical, 
# crystal, experimental, refinement or atomic coordinate data resulting 
# from the CCDC's data processing and validation procedures.
#
#######################################################################

data_ALIDAB
_symmetry_cell_setting           triclinic
_symmetry_space_group_name_H-M   'P -1'
_symmetry_Int_Tables_number      2
_space_group_name_Hall           '-P 1'
loop_
_symmetry_equiv_pos_site_id
_symmetry_equiv_pos_as_xyz
1 x,y,z
2 -x,-y,-z
_cell_length_a                   9.5163(7)
_cell_length_b                   9.6165(7)
_cell_length_c                   10.8843(8)
_cell_angle_alpha                112.039(1)
_cell_angle_beta                 95.432(1)
_cell_angle_gamma                110.893(1)
_cell_volume                     832.005
loop_
_atom_site_label
_atom_site_type_symbol
_atom_site_fract_x
_atom_site_fract_y
_atom_site_fract_z
Cu1 Cu 0.61585(4) 0.13053(4) 0.25245(4)
V1 V 0.85098(6) 0.46418(6) 0.27530(5)
P1 P 1.00490(9) 0.29928(9) 0.39838(8)
O1 O 1.0266(2) 0.4405(3) 0.3540(2)
O2 O 1.1204(2) 0.3732(3) 0.5387(2)
O3 O 0.8373(2) 0.2017(3) 0.3888(2)
O4 O 1.3200(3) -0.0519(3) -0.0856(2)
O5 O 1.1358(2) -0.2882(3) -0.1015(2)
O6 O 0.8727(3) 0.5896(3) 0.2066(2)
O7 O 0.6608(2) 0.3474(3) 0.2457(2)
N1 N 0.5102(3) 0.1783(3) 0.4002(2)
N2 N 0.4718(3) -0.1029(3) 0.2096(3)
C1 C 1.0722(3) 0.1656(4) 0.2783(3)
C2 C 1.2033(4) 0.2377(4) 0.2375(3)
H1 H 1.2591 0.3524 0.2788
C3 C 1.2509(4) 0.1409(4) 0.1367(3)
H2 H 1.3384 0.1910 0.1108
C4 C 1.1685(3) -0.0321(4) 0.0730(3)
C5 C 1.2122(3) -0.1322(4) -0.0464(3)
C6 C 1.0417(4) -0.1054(4) 0.1170(3)
H3 H 0.9888 -0.2202 0.0786
C7 C 0.9936(4) -0.0069(4) 0.2186(3)
H4 H 0.9083 -0.0567 0.2469
C8 C 0.5409(4) 0.3306(4) 0.4951(3)
H5 H 0.6219 0.4217 0.4969
C9 C 0.4546(4) 0.3556(4) 0.5907(3)
H6 H 0.4768 0.4622 0.6550
C10 C 0.3356(4) 0.2201(4) 0.5890(3)
H7 H 0.2761 0.2346 0.6517
C11 C 0.3056(4) 0.0620(4) 0.4927(3)
H8 H 0.2272 -0.0309 0.4911
C12 C 0.3949(3) 0.0456(4) 0.3993(3)
C13 C 0.3728(4) -0.1157(4) 0.2903(3)
C14 C 0.2598(4) -0.2660(4) 0.2703(3)
H9 H 0.1935 -0.2713 0.3276
C15 C 0.2474(4) -0.4091(4) 0.1624(3)
H10 H 0.1707 -0.5118 0.1454
C16 C 0.3498(4) -0.3980(4) 0.0806(3)
H11 H 0.3445 -0.4928 0.0093
C17 C 0.4605(4) -0.2424(4) 0.1075(3)
H12 H 0.5295 -0.2344 0.0528
Cu1A Cu 1.38415(4) -0.13053(4) -0.25245(4)
V1A V 1.14902(6) 0.53582(6) 0.72470(5)
V1A_2 V 1.14902(6) -0.46418(6) -0.27530(5)
O2A O 0.8796(2) 0.6268(3) 0.4613(2)
O4A O 0.6800(3) 0.0519(3) 0.0856(2)
O5A O 0.8642(2) 0.2882(3) 0.1015(2)
loop_
_geom_bond_atom_site_label_1
_geom_bond_atom_site_label_2
_geom_bond_site_symmetry_1
_geom_bond_site_symmetry_2
Cu1 O3 1_555 1_555
V1 O1 1_555 1_555
P1 O1 1_555 1_555
O2 P1 1_555 1_555
O3 P1 1_555 1_555
O4 C5 1_555 1_555
O5 C5 1_555 1_555
O6 V1 1_555 1_555
O7 Cu1 1_555 1_555
N1 Cu1 1_555 1_555
N2 Cu1 1_555 1_555
C1 P1 1_555 1_555
C2 C1 1_555 1_555
H1 C2 1_555 1_555
C3 C2 1_555 1_555
H2 C3 1_555 1_555
C4 C3 1_555 1_555
C5 C4 1_555 1_555
C6 C4 1_555 1_555
H3 C6 1_555 1_555
C7 C1 1_555 1_555
H4 C7 1_555 1_555
C8 N1 1_555 1_555
H5 C8 1_555 1_555
C9 C8 1_555 1_555
H6 C9 1_555 1_555
C10 C9 1_555 1_555
H7 C10 1_555 1_555
C11 C10 1_555 1_555
H8 C11 1_555 1_555
C12 N1 1_555 1_555
C13 N2 1_555 1_555
C14 C13 1_555 1_555
H9 C14 1_555 1_555
C15 C14 1_555 1_555
H10 C15 1_555 1_555
C16 C15 1_555 1_555
H11 C16 1_555 1_555
C17 N2 1_555 1_555
H12 C17 1_555 1_555
Cu1A O4 1_555 1_555
V1A O2 1_555 1_555
V1A_2 O5 1_555 1_555
O2A V1 1_555 1_555
O4A Cu1 1_555 1_555
O5A V1 1_555 1_555
V1 O7 1_555 1_555
C6 C7 1_555 1_555
C11 C12 1_555 1_555
C12 C13 1_555 1_555
C16 C17 1_555 1_555

#END
