
#######################################################################
#
#                 Cambridge Crystallographic Data Centre
#                                CCDC 
#
#######################################################################
#
# If this CIF has been generated from an entry in the Cambridge 
# Structural Database, then it will include bibliographic, chemical, 
# crystal, experimental, refinement or atomic coordinate data resulting 
# from the CCDC's data processing and validation procedures.
#
#######################################################################

data_ALIDIJ
_symmetry_cell_setting           triclinic
_symmetry_space_group_name_H-M   'P -1'
_symmetry_Int_Tables_number      2
_space_group_name_Hall           '-P 1'
loop_
_symmetry_equiv_pos_site_id
_symmetry_equiv_pos_as_xyz
1 x,y,z
2 -x,-y,-z
_cell_length_a                   9.9535(10)
_cell_length_b                   11.1104(11)
_cell_length_c                   11.2758(11)
_cell_angle_alpha                113.936(2)
_cell_angle_beta                 104.939(2)
_cell_angle_gamma                102.311(2)
_cell_volume                     1027.42
loop_
_atom_site_label
_atom_site_type_symbol
_atom_site_fract_x
_atom_site_fract_y
_atom_site_fract_z
Cu1 Cu 0.22373(6) 0.83920(6) 0.74358(6)
V1 V 0.12618(9) 0.44132(8) 1.46021(8)
V2 V 0.55492(9) 0.31034(8) 1.32663(8)
P1 P 0.35979(13) 0.52705(13) 1.34634(12)
F1 F 0.0324(3) 0.4759(3) 1.5963(3)
O1 O 0.4096(4) 0.4020(3) 1.2966(3)
O2 O 0.4620(4) 0.6455(3) 1.4949(3)
O3 O 0.1964(3) 0.4837(3) 1.3321(3)
O4 O 0.4307(4) 0.6812(4) 0.8457(3)
O5 O 0.2628(4) 0.7835(4) 0.8889(4)
O6 O 0.2814(4) 0.4406(3) 1.5559(3)
O7 O 0.4559(4) 0.1462(4) 1.2436(4)
O8 O 0.2653(4) 0.6866(3) 0.6184(3)
O9 O -0.0239(4) 0.7258(4) 0.6429(4)
N1 N 0.1921(4) 1.0065(4) 0.8725(4)
N2 N 0.2272(5) 0.9425(4) 0.6335(4)
C1 C 0.3618(5) 0.5983(5) 1.2293(5)
C2 C 0.4767(5) 0.6047(5) 1.1805(5)
H1 H 0.5572 0.5793 1.2155
C3 C 0.4741(5) 0.6483(5) 1.0805(5)
H2 H 0.5526 0.6520 1.0473
C4 C 0.3572(5) 0.6863(5) 1.0290(5)
C5 C 0.3494(5) 0.7204(5) 0.9120(5)
C6 C 0.2462(6) 0.6872(5) 1.0828(5)
H3 H 0.1695 0.7189 1.0524
C7 C 0.2473(6) 0.6417(5) 1.1806(5)
H4 H 0.1696 0.6399 1.2149
C8 C 0.1808(5) 1.0368(5) 0.9953(5)
H5 H 0.1983 0.9783 1.0354
C9 C 0.1434(6) 1.1536(5) 1.0681(5)
H6 H 0.1359 1.1729 1.1558
C10 C 0.1183(6) 1.2381(5) 1.0122(5)
H7 H 0.0921 1.3163 1.0602
C11 C 0.1313(5) 1.2095(5) 0.8826(5)
C12 C 0.1690(5) 1.0913(5) 0.8171(5)
C13 C 0.1141(6) 1.2950(5) 0.8163(6)
H8 H 0.0880 1.3749 0.8588
C14 C 0.1345(6) 1.2638(6) 0.6941(6)
H9 H 0.1210 1.3213 0.6520
C15 C 0.1762(6) 1.1449(5) 0.6275(5)
C16 C 0.1896(5) 1.0575(5) 0.6878(5)
C17 C 0.2087(6) 1.1112(6) 0.5061(6)
H10 H 0.2026 1.1673 0.4613
C18 C 0.2494(7) 0.9957(6) 0.4534(6)
H11 H 0.2732 0.9724 0.3724
C19 C 0.2559(6) 0.9124(6) 0.5185(6)
H12 H 0.2817 0.8317 0.4791
V1A V -0.12618(9) 0.55868(8) 1.53979(8)
V1_2 V 0.12618(9) 0.44132(8) 0.46021(8)
V1A_2 V -0.12618(9) 0.55868(8) 0.53979(8)
V2A V 0.44508(9) 0.68966(8) 1.67337(8)
V2A_2 V 0.44508(9) 0.68966(8) 0.67337(8)
F1A F -0.0324(3) 0.5241(3) 1.4037(3)
O2A O 0.5380(4) 0.3545(3) 1.5051(3)
O4A O 0.5693(4) 0.3188(4) 1.1543(3)
O6A O 0.7186(4) 0.5594(3) 1.4441(3)
O8_2 O 0.2653(4) 0.6866(3) 1.6184(3)
O8A O 0.7347(4) 0.3134(3) 1.3816(3)
O9A O 0.0239(4) 0.2742(4) 1.3571(4)
loop_
_geom_bond_atom_site_label_1
_geom_bond_atom_site_label_2
_geom_bond_site_symmetry_1
_geom_bond_site_symmetry_2
Cu1 O5 1_555 1_555
V1 F1 1_555 1_555
V2 O1 1_555 1_555
P1 O1 1_555 1_555
F1 V1A 1_555 1_555
O2 P1 1_555 1_555
O3 V1 1_555 1_555
O4 C5 1_555 1_555
O5 C5 1_555 1_555
O6 V1 1_555 1_555
O7 V2 1_555 1_555
O8 Cu1 1_555 1_555
O9 Cu1 1_555 1_555
N1 Cu1 1_555 1_555
N2 Cu1 1_555 1_555
C1 P1 1_555 1_555
C2 C1 1_555 1_555
H1 C2 1_555 1_555
C3 C2 1_555 1_555
H2 C3 1_555 1_555
C4 C3 1_555 1_555
C5 C4 1_555 1_555
C6 C4 1_555 1_555
H3 C6 1_555 1_555
C7 C1 1_555 1_555
H4 C7 1_555 1_555
C8 N1 1_555 1_555
H5 C8 1_555 1_555
C9 C8 1_555 1_555
H6 C9 1_555 1_555
C10 C9 1_555 1_555
H7 C10 1_555 1_555
C11 C10 1_555 1_555
C12 N1 1_555 1_555
C13 C11 1_555 1_555
H8 C13 1_555 1_555
C14 C13 1_555 1_555
H9 C14 1_555 1_555
C15 C14 1_555 1_555
C16 N2 1_555 1_555
C17 C15 1_555 1_555
H10 C17 1_555 1_555
C18 C17 1_555 1_555
H11 C18 1_555 1_555
C19 N2 1_555 1_555
H12 C19 1_555 1_555
V1A F1A 1_555 1_555
V1_2 O8 1_555 1_555
V1A_2 O9 1_555 1_555
V2A O2 1_555 1_555
V2A_2 O4 1_555 1_555
F1A V1 1_555 1_555
O2A V2 1_555 1_555
O4A V2 1_555 1_555
O6A V2 1_555 1_555
O8_2 V1 1_555 1_555
O8A V2 1_555 1_555
O9A V1 1_555 1_555
P1 O3 1_555 1_555
O6 V2A 1_555 1_555
O8 V2A_2 1_555 1_555
C6 C7 1_555 1_555
C11 C12 1_555 1_555
C12 C16 1_555 1_555
C15 C16 1_555 1_555
C18 C19 1_555 1_555
V2A O8_2 1_555 1_555

#END
