
#######################################################################
#
#                 Cambridge Crystallographic Data Centre
#                                CCDC 
#
#######################################################################
#
# If this CIF has been generated from an entry in the Cambridge 
# Structural Database, then it will include bibliographic, chemical, 
# crystal, experimental, refinement or atomic coordinate data resulting 
# from the CCDC's data processing and validation procedures.
#
#######################################################################

data_ALIFOR02
_symmetry_cell_setting           orthorhombic
_symmetry_space_group_name_H-M   'P 21 21 21'
_symmetry_Int_Tables_number      19
_space_group_name_Hall           'P 2ac 2ab'
loop_
_symmetry_equiv_pos_site_id
_symmetry_equiv_pos_as_xyz
1 x,y,z
2 1/2-x,-y,1/2+z
3 1/2+x,1/2-y,-z
4 -x,1/2+y,1/2-z
_cell_length_a                   7.9928(4)
_cell_length_b                   11.2136(6)
_cell_length_c                   17.3838(8)
_cell_angle_alpha                90
_cell_angle_beta                 90
_cell_angle_gamma                90
_cell_volume                     1558.08
loop_
_atom_site_label
_atom_site_type_symbol
_atom_site_fract_x
_atom_site_fract_y
_atom_site_fract_z
Cu1 Cu -0.13033(3) -0.16682(2) 0.223340(13)
Cu2 Cu 0.03185(3) 0.08887(3) 0.234410(13)
Cl1 Cl -0.03264(7) -0.04938(5) 0.13950(3)
Cl2 Cl 0.23452(6) 0.21779(5) 0.19314(3)
N1 N -0.12719(18) 0.10016(14) 0.32380(8)
N2 N -0.28263(18) 0.15533(15) 0.32114(9)
C1 C -0.4235(2) 0.0771(2) 0.33625(13)
H1 H -0.4228 0.0124 0.3
H2 H -0.5259 0.1211 0.3312
H3 H -0.415 0.0459 0.3875
C2 C -0.3017(2) 0.2215(2) 0.24899(11)
H4 H -0.2165 0.2817 0.2457
H5 H -0.4099 0.2586 0.2477
H6 H -0.2911 0.1677 0.2063
O1 O 0.18037(16) -0.01774(13) 0.33069(7)
C3 C -0.0794(2) 0.04889(16) 0.38667(10)
C4 C -0.1411(2) 0.03899(16) 0.46811(9)
H7 H -0.2314 0.0939 0.4823
C5 C -0.1778(2) -0.09512(18) 0.48199(10)
H8 H -0.2315 -0.1076 0.5314
H9 H -0.2484 -0.1276 0.4417
C6 C -0.0012(2) -0.15202(17) 0.48026(10)
H10 H 0.0083 -0.2084 0.4382
H11 H 0.0222 -0.1931 0.5282
C7 C 0.1208(2) -0.04545(16) 0.46876(9)
C8 C 0.0905(2) -0.00728(16) 0.38656(9)
C9 C 0.3016(2) -0.0714(2) 0.48733(10)
H12 H 0.3449 -0.1282 0.4511
H13 H 0.3095 -0.1035 0.5384
H14 H 0.3653 0.001 0.4843
C10 C 0.0284(2) 0.05727(16) 0.51199(9)
C11 C 0.1056(2) 0.17991(17) 0.49833(11)
H15 H 0.2112 0.1848 0.5245
H16 H 0.0318 0.2404 0.5177
H17 H 0.1224 0.1917 0.4442
C12 C 0.0136(3) 0.03848(19) 0.59914(10)
H18 H 0.1225 0.0438 0.6222
H19 H -0.0332 -0.0388 0.6092
H20 H -0.0578 0.0987 0.6206
Cu1C Cu 0.13033(3) 0.33318(2) 0.276660(13)
Cl2C Cl -0.23452(6) -0.28221(5) 0.30686(3)
loop_
_geom_bond_atom_site_label_1
_geom_bond_atom_site_label_2
_geom_bond_site_symmetry_1
_geom_bond_site_symmetry_2
Cu1 Cl1 1_555 1_555
Cu2 Cl1 1_555 1_555
Cl2 Cu2 1_555 1_555
N1 Cu2 1_555 1_555
N2 N1 1_555 1_555
C1 N2 1_555 1_555
H1 C1 1_555 1_555
H2 C1 1_555 1_555
H3 C1 1_555 1_555
C2 N2 1_555 1_555
H4 C2 1_555 1_555
H5 C2 1_555 1_555
H6 C2 1_555 1_555
O1 Cu2 1_555 1_555
C3 N1 1_555 1_555
C4 C3 1_555 1_555
H7 C4 1_555 1_555
C5 C4 1_555 1_555
H8 C5 1_555 1_555
H9 C5 1_555 1_555
C6 C5 1_555 1_555
H10 C6 1_555 1_555
H11 C6 1_555 1_555
C7 C6 1_555 1_555
C8 O1 1_555 1_555
C9 C7 1_555 1_555
H12 C9 1_555 1_555
H13 C9 1_555 1_555
H14 C9 1_555 1_555
C10 C4 1_555 1_555
C11 C10 1_555 1_555
H15 C11 1_555 1_555
H16 C11 1_555 1_555
H17 C11 1_555 1_555
C12 C10 1_555 1_555
H18 C12 1_555 1_555
H19 C12 1_555 1_555
H20 C12 1_555 1_555
Cu1C Cl2 1_555 1_555
Cl2C Cu1 1_555 1_555
C3 C8 1_555 1_555
C7 C8 1_555 1_555
C7 C10 1_555 1_555

#END
