
#######################################################################
#
#                 Cambridge Crystallographic Data Centre
#                                CCDC 
#
#######################################################################
#
# If this CIF has been generated from an entry in the Cambridge 
# Structural Database, then it will include bibliographic, chemical, 
# crystal, experimental, refinement or atomic coordinate data resulting 
# from the CCDC's data processing and validation procedures.
#
#######################################################################

data_ALIGOS
_symmetry_cell_setting           orthorhombic
_symmetry_space_group_name_H-M   'P n a 21'
_symmetry_Int_Tables_number      33
_space_group_name_Hall           'P 2c -2n'
loop_
_symmetry_equiv_pos_site_id
_symmetry_equiv_pos_as_xyz
1 x,y,z
2 -x,-y,1/2+z
3 1/2+x,1/2-y,z
4 1/2-x,1/2+y,1/2+z
_cell_length_a                   11.2007(3)
_cell_length_b                   17.3036(6)
_cell_length_c                   7.9293(3)
_cell_angle_alpha                90
_cell_angle_beta                 90
_cell_angle_gamma                90
_cell_volume                     1536.8
loop_
_atom_site_label
_atom_site_type_symbol
_atom_site_fract_x
_atom_site_fract_y
_atom_site_fract_z
Li1 Li -0.4105(3) 0.09349(19) 1.0870(5)
N1 N -0.55531(14) 0.06428(9) 0.9494(2)
N2 N -0.63738(13) 0.00021(10) 0.7229(2)
N3 N -0.28832(13) 0.14249(9) 0.9254(2)
N4 N 0.03917(14) 0.32198(10) 0.2669(2)
C1 C -0.53987(16) 0.02744(11) 0.8017(3)
H1 H -0.4618(16) 0.0196(10) 0.753(3)
C2 C -0.67792(16) 0.06145(10) 0.9696(3)
C3 C -0.72779(15) 0.02277(10) 0.8307(3)
C4 C -0.85212(17) 0.01401(13) 0.8154(4)
H2 H -0.8852(18) -0.0135(13) 0.718(3)
C5 C -0.92233(17) 0.04332(13) 0.9433(4)
H3 H -1.008(2) 0.0389(12) 0.936(4)
C6 C -0.87276(19) 0.07987(13) 1.0837(4)
H4 H -0.923(2) 0.0983(14) 1.173(4)
C7 C -0.75009(19) 0.08968(12) 1.0997(3)
H5 H -0.7156(18) 0.1156(14) 1.189(3)
C8 C -0.23492(15) 0.09945(11) 0.8064(3)
H6 H -0.2454(18) 0.0422(12) 0.821(3)
C9 C -0.17015(16) 0.12940(11) 0.6736(3)
H7 H -0.1304(18) 0.0936(13) 0.595(4)
C10 C -0.15676(15) 0.20951(11) 0.6618(3)
C11 C -0.21129(19) 0.25445(12) 0.7855(3)
H8 H -0.2050(18) 0.3116(14) 0.782(3)
C12 C -0.27499(19) 0.21937(12) 0.9117(3)
H9 H -0.318(2) 0.2501(14) 1.002(4)
C13 C -0.03292(19) 0.26193(12) 0.2348(3)
H10 H -0.0398(18) 0.2457(13) 0.121(4)
C14 C -0.09588(18) 0.22230(13) 0.3574(3)
H11 H -0.149(2) 0.1768(15) 0.325(4)
C15 C -0.08729(17) 0.24600(11) 0.5243(3)
C16 C -0.0109(2) 0.30766(12) 0.5590(3)
H12 H -0.0027(17) 0.3259(12) 0.676(3)
C17 C 0.04981(18) 0.34291(12) 0.4290(3)
H13 H 0.1018(18) 0.3908(12) 0.454(3)
Li1A Li -0.5895(3) -0.09349(19) 0.5870(5)
Li1B Li 0.0895(3) 0.40651(19) 0.0870(5)
N2A N -0.36262(13) -0.00021(10) 1.2229(2)
N4B N -0.46083(14) 0.17802(10) 1.2669(2)
loop_
_geom_bond_atom_site_label_1
_geom_bond_atom_site_label_2
_geom_bond_site_symmetry_1
_geom_bond_site_symmetry_2
Li1 N1 1_555 1_555
N1 C1 1_555 1_555
N2 C1 1_555 1_555
N3 Li1 1_555 1_555
N4 C13 1_555 1_555
C1 H1 1_555 1_555
C2 N1 1_555 1_555
C3 N2 1_555 1_555
C4 C3 1_555 1_555
H2 C4 1_555 1_555
C5 C4 1_555 1_555
H3 C5 1_555 1_555
C6 C5 1_555 1_555
H4 C6 1_555 1_555
C7 C2 1_555 1_555
H5 C7 1_555 1_555
C8 N3 1_555 1_555
H6 C8 1_555 1_555
C9 C8 1_555 1_555
H7 C9 1_555 1_555
C10 C9 1_555 1_555
C11 C10 1_555 1_555
H8 C11 1_555 1_555
C12 N3 1_555 1_555
H9 C12 1_555 1_555
C13 H10 1_555 1_555
C14 C13 1_555 1_555
H11 C14 1_555 1_555
C15 C10 1_555 1_555
C16 C15 1_555 1_555
H12 C16 1_555 1_555
C17 N4 1_555 1_555
H13 C17 1_555 1_555
Li1A N2 1_555 1_555
Li1B N4 1_555 1_555
N2A Li1 1_555 1_555
N4B Li1 1_555 1_555
C2 C3 1_555 1_555
C6 C7 1_555 1_555
C11 C12 1_555 1_555
C14 C15 1_555 1_555
C16 C17 1_555 1_555

#END
