
#######################################################################
#
#                 Cambridge Crystallographic Data Centre
#                                CCDC 
#
#######################################################################
#
# If this CIF has been generated from an entry in the Cambridge 
# Structural Database, then it will include bibliographic, chemical, 
# crystal, experimental, refinement or atomic coordinate data resulting 
# from the CCDC's data processing and validation procedures.
#
#######################################################################

data_ALIHUY
_symmetry_cell_setting           orthorhombic
_symmetry_space_group_name_H-M   'P n m a'
_symmetry_Int_Tables_number      62
_space_group_name_Hall           '-P 2ac 2n'
loop_
_symmetry_equiv_pos_site_id
_symmetry_equiv_pos_as_xyz
1 x,y,z
2 1/2+x,y,1/2-z
3 x,1/2-y,z
4 1/2-x,1/2+y,1/2+z
5 -x,-y,-z
6 1/2-x,-y,1/2+z
7 -x,1/2+y,-z
8 1/2+x,1/2-y,1/2-z
_cell_length_a                   11.0907(2)
_cell_length_b                   16.3289(4)
_cell_length_c                   15.6283(4)
_cell_angle_alpha                90
_cell_angle_beta                 90
_cell_angle_gamma                90
_cell_volume                     2830.27
loop_
_atom_site_label
_atom_site_type_symbol
_atom_site_fract_x
_atom_site_fract_y
_atom_site_fract_z
Pb1 Pb 0.000537(19) 0.2500 -0.266864(11)
Cl1 Cl 0.25073(9) 0.2500 -0.28809(10)
P1 P 0.02659(7) 0.41631(5) -0.13290(7)
O1 O 0.0106(2) 0.39877(12) -0.22515(14)
O2 O 0.14287(19) 0.46802(13) -0.11170(16)
O3 O -0.0700(2) 0.47562(13) -0.09273(16)
C1 C 0.0283(3) 0.2500 -0.1207(3)
C2 C 0.0281(2) 0.32272(18) -0.0735(2)
C3 C 0.0249(2) 0.32267(18) 0.0149(2)
H1 H 0.0252 0.3725 0.0438
C4 C 0.0214(4) 0.2500 0.0624(3)
C5 C 0.0141(5) 0.2500 0.1602(3)
C6 C 0.1394(6) 0.2500 0.1962(5)
H2 H 0.1354 0.2500 0.2576
H3 H 0.1814 0.2980 0.1771
H4 H 0.1814 0.2020 0.1771
C7 C -0.0528(5) 0.3248(3) 0.1946(3)
H5 H -0.0563 0.3220 0.2559
H6 H -0.1332 0.3257 0.1718
H7 H -0.0110 0.3737 0.1776
C8 C 0.2573(3) 0.4422(2) -0.1495(3)
H8 H 0.2462 0.4292 -0.2095
H9 H 0.2870 0.3936 -0.1206
C9 C 0.3453(3) 0.5101(2) -0.1400(3)
H10 H 0.4209 0.4944 -0.1650
H11 H 0.3567 0.5219 -0.0804
H12 H 0.3151 0.5580 -0.1685
C10 C -0.1943(3) 0.4460(2) -0.0846(3)
H13 H -0.2088 0.4262 -0.0270
H14 H -0.2085 0.4013 -0.1243
C11 C -0.2773(3) 0.5168(2) -0.1045(3)
H15 H -0.3596 0.4992 -0.0995
H16 H -0.2627 0.5356 -0.1618
H17 H -0.2625 0.5606 -0.0650
C2B C 0.0281(2) 0.17728(18) -0.0735(2)
P1B P 0.02659(7) 0.08369(5) -0.13290(7)
O1B O 0.0106(2) 0.10123(12) -0.22515(14)
O2B O 0.14287(19) 0.03198(13) -0.11170(16)
C8B C 0.2573(3) 0.0578(2) -0.1495(3)
H8B H 0.2462 0.0708 -0.2095
H9B H 0.2870 0.1064 -0.1206
C9B C 0.3453(3) -0.0101(2) -0.1400(3)
H10B H 0.4209 0.0056 -0.1650
H11B H 0.3567 -0.0219 -0.0804
H12B H 0.3151 -0.0580 -0.1685
O3B O -0.0700(2) 0.02438(13) -0.09273(16)
C10B C -0.1943(3) 0.0540(2) -0.0846(3)
H13B H -0.2088 0.0738 -0.0270
H14B H -0.2085 0.0987 -0.1243
C11B C -0.2773(3) -0.0168(2) -0.1045(3)
H15B H -0.3596 0.0008 -0.0995
H16B H -0.2627 -0.0356 -0.1618
H17B H -0.2625 -0.0606 -0.0650
C3B C 0.0249(2) 0.17733(18) 0.0149(2)
H1B H 0.0252 0.1275 0.0438
C7B C -0.0528(5) 0.1752(3) 0.1946(3)
H5B H -0.0563 0.1780 0.2559
H6B H -0.1332 0.1743 0.1718
H7B H -0.0110 0.1263 0.1776
Cl1A Cl -0.24927(9) 0.2500 -0.21191(10)
Pb1A Pb 0.500537(19) 0.2500 -0.233136(11)
O4 O -0.0956(7) 0.2500 -0.5174(6)
C12 C 0.0016(6) 0.3218(3) -0.5170(4)
H18 H -0.0194 0.3634 -0.5587
H19 H 0.0061 0.3471 -0.4609
C13 C 0.1088(6) 0.2862(3) -0.5376(6)
H20 H 0.1326 0.3050 -0.5940
H21 H 0.1694 0.3050 -0.4973
C13B C 0.1088(6) 0.2138(3) -0.5376(6)
C12B C 0.0016(6) 0.1782(3) -0.5170(4)
H18B H -0.0194 0.1366 -0.5587
H19B H 0.0061 0.1529 -0.4609
H20B H 0.1326 0.1950 -0.5940
H21B H 0.1694 0.1950 -0.4973
loop_
_geom_bond_atom_site_label_1
_geom_bond_atom_site_label_2
_geom_bond_site_symmetry_1
_geom_bond_site_symmetry_2
Pb1 Cl1 1_555 1_555
Cl1 Pb1A 1_555 1_555
P1 O1 1_555 1_555
O1 Pb1 1_555 1_555
O2 P1 1_555 1_555
O3 P1 1_555 1_555
C1 Pb1 1_555 1_555
C2 P1 1_555 1_555
C3 C2 1_555 1_555
H1 C3 1_555 1_555
C4 C3 1_555 1_555
C5 C4 1_555 1_555
C6 C5 1_555 1_555
H2 C6 1_555 1_555
H3 C6 1_555 1_555
H4 C6 1_555 1_555
C7 C5 1_555 1_555
H5 C7 1_555 1_555
H6 C7 1_555 1_555
H7 C7 1_555 1_555
C8 O2 1_555 1_555
H8 C8 1_555 1_555
H9 C8 1_555 1_555
C9 C8 1_555 1_555
H10 C9 1_555 1_555
H11 C9 1_555 1_555
H12 C9 1_555 1_555
C10 O3 1_555 1_555
H13 C10 1_555 1_555
H14 C10 1_555 1_555
C11 C10 1_555 1_555
H15 C11 1_555 1_555
H16 C11 1_555 1_555
H17 C11 1_555 1_555
O4 C12 1_555 1_555
C12 H18 1_555 1_555
H19 C12 1_555 1_555
C13 C12 1_555 1_555
H20 C13 1_555 1_555
H21 C13 1_555 1_555
C2B C1 1_555 1_555
P1B C2B 1_555 1_555
O1B Pb1 1_555 1_555
O2B P1B 1_555 1_555
C8B O2B 1_555 1_555
H8B C8B 1_555 1_555
H9B C8B 1_555 1_555
C9B C8B 1_555 1_555
H10B C9B 1_555 1_555
H11B C9B 1_555 1_555
H12B C9B 1_555 1_555
O3B P1B 1_555 1_555
C10B O3B 1_555 1_555
H13B C10B 1_555 1_555
H14B C10B 1_555 1_555
C11B C10B 1_555 1_555
H15B C11B 1_555 1_555
H16B C11B 1_555 1_555
H17B C11B 1_555 1_555
C3B C4 1_555 1_555
H1B C3B 1_555 1_555
C7B C5 1_555 1_555
H5B C7B 1_555 1_555
H6B C7B 1_555 1_555
H7B C7B 1_555 1_555
C13B C13 1_555 1_555
C12B O4 1_555 1_555
H18B C12B 1_555 1_555
H19B C12B 1_555 1_555
H20B C13B 1_555 1_555
H21B C13B 1_555 1_555
Cl1A Pb1 1_555 1_555
C1 C2 1_555 1_555
C2B C3B 1_555 1_555
P1B O1B 1_555 1_555
C13B C12B 1_555 1_555

#END
