
#######################################################################
#
#                 Cambridge Crystallographic Data Centre
#                                CCDC 
#
#######################################################################
#
# If this CIF has been generated from an entry in the Cambridge 
# Structural Database, then it will include bibliographic, chemical, 
# crystal, experimental, refinement or atomic coordinate data resulting 
# from the CCDC's data processing and validation procedures.
#
#######################################################################

data_ALIHEJ
_symmetry_cell_setting           orthorhombic
_symmetry_space_group_name_H-M   'P b c a'
_symmetry_Int_Tables_number      61
_space_group_name_Hall           '-P 2ac 2ab'
loop_
_symmetry_equiv_pos_site_id
_symmetry_equiv_pos_as_xyz
1 x,y,z
2 1/2-x,-y,1/2+z
3 -x,1/2+y,1/2-z
4 1/2+x,1/2-y,-z
5 -x,-y,-z
6 1/2+x,y,1/2-z
7 x,1/2-y,1/2+z
8 1/2-x,1/2+y,z
_cell_length_a                   12.1648(2)
_cell_length_b                   11.8199(2)
_cell_length_c                   23.5880(3)
_cell_angle_alpha                90
_cell_angle_beta                 90
_cell_angle_gamma                90
_cell_volume                     3391.64
loop_
_atom_site_label
_atom_site_type_symbol
_atom_site_fract_x
_atom_site_fract_y
_atom_site_fract_z
Li1 Li 0.23939(14) 1.01226(15) 0.32721(8)
N1 N 0.08329(7) 1.00983(7) 0.27757(4)
N2 N -0.10896(7) 1.00766(7) 0.22802(4)
N3 N 0.25566(7) 1.16562(7) 0.36657(4)
N4 N 0.26488(7) 1.36074(7) 0.36919(4)
C1 C -0.02394(8) 0.95468(10) 0.19179(4)
H1 H -0.0460(12) 0.8770(13) 0.1840(6)
H2 H -0.0245(12) 0.9958(13) 0.1560(6)
C2 C -0.07273(9) 1.12483(9) 0.23969(5)
H3 H -0.0682(12) 1.1637(13) 0.2021(7)
H4 H -0.1300(13) 1.1614(14) 0.2634(7)
C3 C -0.11222(8) 0.94705(10) 0.28272(4)
H5 H -0.1400(12) 0.8684(12) 0.2753(6)
H6 H -0.1628(13) 0.9887(14) 0.3071(7)
C4 C 0.00305(8) 0.94196(9) 0.31054(4)
H7 H 0.0016(11) 0.9701(11) 0.3500(6)
H8 H 0.0303(12) 0.8650(12) 0.3120(6)
C5 C 0.03839(9) 1.12541(9) 0.27139(5)
H9 H 0.0937(11) 1.1705(12) 0.2502(6)
H10 H 0.0316(11) 1.1563(11) 0.3088(6)
C6 C 0.09082(8) 0.95986(10) 0.22007(4)
H11 H 0.1399(11) 1.0073(12) 0.1985(6)
H12 H 0.1235(11) 0.8823(12) 0.2240(6)
C7 C 0.43097(13) 1.12040(14) 0.55881(6)
H13 H 0.4262(14) 1.0381(16) 0.5503(7)
H14 H 0.3923(14) 1.1373(15) 0.5962(8)
H15 H 0.5128(16) 1.1342(15) 0.5647(8)
C8 C 0.44552(12) 1.36849(13) 0.56122(5)
H16 H 0.5264(15) 1.3476(14) 0.5656(7)
H17 H 0.4089(14) 1.3534(15) 0.5980(8)
H18 H 0.4462(14) 1.4530(16) 0.5550(8)
C9 C 0.38531(9) 1.18923(10) 0.51016(5)
C10 C 0.39114(9) 1.30939(10) 0.51169(4)
C11 C 0.35069(9) 1.37327(9) 0.46683(4)
H19 H 0.3565(11) 1.4566(12) 0.4679(6)
C12 C 0.23870(8) 1.26575(9) 0.34096(4)
H20 H 0.2105(12) 1.2698(11) 0.3015(6)
C13 C 0.33975(9) 1.13416(9) 0.46365(4)
H21 H 0.3387(11) 1.0502(12) 0.4623(6)
C14 C 0.30002(8) 1.19846(8) 0.41818(4)
C15 C 0.30534(8) 1.31810(8) 0.41980(4)
Li1E Li -0.26061(14) 1.01226(15) 0.17279(8)
Li1G Li 0.26061(14) 1.51226(15) 0.32721(8)
N2E N 0.39104(7) 1.00766(7) 0.27198(4)
N4G N 0.23512(7) 0.86074(7) 0.36919(4)
N5 N 0.27918(12) 0.79374(14) 0.65456(6)
C16 C 0.37971(15) 0.7462(2) 0.56130(9)
H22 H 0.450(3) 0.753(2) 0.5632(12)
H23 H 0.351(2) 0.783(3) 0.5299(14)
H24 H 0.364(3) 0.669(3) 0.5530(14)
C17 C 0.32304(11) 0.77347(12) 0.61317(6)
loop_
_geom_bond_atom_site_label_1
_geom_bond_atom_site_label_2
_geom_bond_site_symmetry_1
_geom_bond_site_symmetry_2
Li1 N1 1_555 1_555
N1 C4 1_555 1_555
N2 C1 1_555 1_555
N3 Li1 1_555 1_555
N4 C12 1_555 1_555
N5 C17 1_555 1_555
C1 H1 1_555 1_555
H2 C1 1_555 1_555
C2 N2 1_555 1_555
H3 C2 1_555 1_555
H4 C2 1_555 1_555
C3 N2 1_555 1_555
H5 C3 1_555 1_555
H6 C3 1_555 1_555
C4 C3 1_555 1_555
H7 C4 1_555 1_555
H8 C4 1_555 1_555
C5 N1 1_555 1_555
H9 C5 1_555 1_555
H10 C5 1_555 1_555
C6 N1 1_555 1_555
H11 C6 1_555 1_555
H12 C6 1_555 1_555
C7 H13 1_555 1_555
H14 C7 1_555 1_555
H15 C7 1_555 1_555
C8 H16 1_555 1_555
H17 C8 1_555 1_555
H18 C8 1_555 1_555
C9 C7 1_555 1_555
C10 C8 1_555 1_555
C11 C10 1_555 1_555
H19 C11 1_555 1_555
C12 N3 1_555 1_555
H20 C12 1_555 1_555
C13 C9 1_555 1_555
H21 C13 1_555 1_555
C14 N3 1_555 1_555
C15 N4 1_555 1_555
C16 H22 1_555 1_555
H23 C16 1_555 1_555
H24 C16 1_555 1_555
C17 C16 1_555 1_555
Li1E N2 1_555 1_555
Li1G N4 1_555 1_555
N2E Li1 1_555 1_555
N4G Li1 1_555 1_555
C1 C6 1_555 1_555
C2 C5 1_555 1_555
C9 C10 1_555 1_555
C11 C15 1_555 1_555
C13 C14 1_555 1_555
C14 C15 1_555 1_555

#END
