
#######################################################################
#
#                 Cambridge Crystallographic Data Centre
#                                CCDC 
#
#######################################################################
#
# If this CIF has been generated from an entry in the Cambridge 
# Structural Database, then it will include bibliographic, chemical, 
# crystal, experimental, refinement or atomic coordinate data resulting 
# from the CCDC's data processing and validation procedures.
#
#######################################################################

data_ALIHIN
_symmetry_cell_setting           monoclinic
_symmetry_space_group_name_H-M   'C c'
_symmetry_Int_Tables_number      9
_space_group_name_Hall           'C -2yc'
loop_
_symmetry_equiv_pos_site_id
_symmetry_equiv_pos_as_xyz
1 x,y,z
2 x,-y,1/2+z
3 1/2+x,1/2+y,z
4 1/2+x,1/2-y,1/2+z
_cell_length_a                   7.8645(6)
_cell_length_b                   16.6945(13)
_cell_length_c                   9.1195(6)
_cell_angle_alpha                90
_cell_angle_beta                 97.941(2)
_cell_angle_gamma                90
_cell_volume                     1185.85
loop_
_atom_site_label
_atom_site_type_symbol
_atom_site_fract_x
_atom_site_fract_y
_atom_site_fract_z
Li1 Li 0.6179(3) 0.67600(15) 0.3083(3)
N1 N 0.46378(18) 0.75642(8) 0.19123(15)
N2 N 0.25900(17) 0.79814(7) 0.00632(15)
N3 N 0.43486(17) 0.58726(8) 0.36952(15)
N4 N -0.21538(17) 0.37556(8) 0.67626(15)
C1 C 0.4033(2) 0.75558(8) 0.04599(18)
H1 H 0.462(3) 0.7257(12) -0.027(2)
C2 C 0.2242(2) 0.82867(9) 0.13891(18)
H2 H 0.121(3) 0.8621(15) 0.147(3)
C3 C 0.3478(2) 0.80392(9) 0.25048(18)
H3 H 0.364(3) 0.8181(13) 0.362(2)
C4 C 0.3238(2) 0.62288(9) 0.44693(19)
H4 H 0.335(3) 0.6797(11) 0.459(2)
C5 C 0.1929(2) 0.58361(9) 0.50500(18)
H5 H 0.121(3) 0.6118(11) 0.561(2)
C6 C 0.17393(18) 0.50083(8) 0.48228(16)
C7 C 0.2878(2) 0.46312(9) 0.40125(17)
H6 H 0.275(3) 0.4054(13) 0.375(2)
C8 C 0.4141(2) 0.50805(10) 0.34781(18)
H7 H 0.499(3) 0.4826(12) 0.295(2)
C9 C -0.2459(2) 0.44643(11) 0.6090(2)
H8 H -0.354(3) 0.4659(13) 0.606(2)
C10 C -0.1247(2) 0.48866(10) 0.54399(19)
H9 H -0.157(3) 0.5425(11) 0.502(2)
C11 C 0.03862(18) 0.45623(8) 0.54556(15)
C12 C 0.07034(19) 0.38129(8) 0.61089(16)
H10 H 0.183(2) 0.3562(11) 0.616(2)
C13 C -0.0591(2) 0.34430(9) 0.67530(17)
H11 H -0.038(3) 0.2937(12) 0.721(2)
Li1A Li -0.3821(3) 0.32400(15) 0.8083(3)
Li1C Li 0.1179(3) 0.82400(15) -0.1917(3)
N2C N 0.75900(17) 0.70186(7) 0.50632(15)
N4A N 0.78462(17) 0.62444(8) 0.17626(15)
loop_
_geom_bond_atom_site_label_1
_geom_bond_atom_site_label_2
_geom_bond_site_symmetry_1
_geom_bond_site_symmetry_2
Li1 N1 1_555 1_555
N1 C1 1_555 1_555
N2 C1 1_555 1_555
N3 Li1 1_555 1_555
N4 C9 1_555 1_555
C1 H1 1_555 1_555
C2 N2 1_555 1_555
H2 C2 1_555 1_555
C3 N1 1_555 1_555
H3 C3 1_555 1_555
C4 N3 1_555 1_555
H4 C4 1_555 1_555
C5 C4 1_555 1_555
H5 C5 1_555 1_555
C6 C5 1_555 1_555
C7 C6 1_555 1_555
H6 C7 1_555 1_555
C8 N3 1_555 1_555
H7 C8 1_555 1_555
C9 H8 1_555 1_555
C10 C9 1_555 1_555
H9 C10 1_555 1_555
C11 C6 1_555 1_555
C12 C11 1_555 1_555
H10 C12 1_555 1_555
C13 N4 1_555 1_555
H11 C13 1_555 1_555
Li1A N4 1_555 1_555
Li1C N2 1_555 1_555
N2C Li1 1_555 1_555
N4A Li1 1_555 1_555
C2 C3 1_555 1_555
C7 C8 1_555 1_555
C10 C11 1_555 1_555
C12 C13 1_555 1_555

#END
