
#######################################################################
#
#                 Cambridge Crystallographic Data Centre
#                                CCDC 
#
#######################################################################
#
# If this CIF has been generated from an entry in the Cambridge 
# Structural Database, then it will include bibliographic, chemical, 
# crystal, experimental, refinement or atomic coordinate data resulting 
# from the CCDC's data processing and validation procedures.
#
#######################################################################

data_ALIJUB
_symmetry_cell_setting           monoclinic
_symmetry_space_group_name_H-M   'C 2/c'
_symmetry_Int_Tables_number      15
_space_group_name_Hall           '-C 2yn'
loop_
_symmetry_equiv_pos_site_id
_symmetry_equiv_pos_as_xyz
1 x,y,z
2 -x,y,1/2-z
3 1/2+x,1/2+y,z
4 1/2-x,1/2+y,1/2-z
5 -x,-y,-z
6 x,-y,1/2+z
7 1/2-x,1/2-y,-z
8 1/2+x,1/2-y,1/2+z
_cell_length_a                   17.872(2)
_cell_length_b                   10.1645(11)
_cell_length_c                   17.899(2)
_cell_angle_alpha                90
_cell_angle_beta                 104.399(8)
_cell_angle_gamma                90
_cell_volume                     3149.39
loop_
_atom_site_label
_atom_site_type_symbol
_atom_site_fract_x
_atom_site_fract_y
_atom_site_fract_z
N1 N 0.23866(18) 1.4196(3) 0.27989(19)
N2 N 0.30143(18) 1.6156(3) 0.31238(18)
C1 C 0.3258(2) 1.5292(4) 0.3728(2)
C2 C 0.2869(2) 1.4087(4) 0.3534(2)
C3 C 0.2508(3) 1.5441(4) 0.2612(2)
C4 C 0.3795(3) 1.5455(5) 0.4442(3)
C5 C 0.2998(3) 1.3037(5) 0.4053(3)
C6 C 0.3914(4) 1.4393(5) 0.4936(3)
C7 C 0.3518(3) 1.3209(5) 0.4751(3)
N3 N 0.06272(17) 1.3067(3) 0.22745(17)
C8 C 0.0015(2) 1.2379(6) 0.1719(3)
C9 C 0.0741(2) 1.2406(5) 0.3028(2)
C10 C 0.0365(3) 1.4419(4) 0.2358(3)
N4 N 0.1570(3) 1.3922(4) 0.0929(2)
Li1 Li 0.1695(3) 1.3035(6) 0.1994(3)
H1 H 0.304(5) 1.214(9) 0.397(5)
H2 H 0.219(2) 1.584(4) 0.212(3)
H3 H 0.428(4) 1.622(7) 0.463(4)
H4 H 0.122(3) 1.310(4) 0.347(2)
H5 H 0.016(3) 1.137(6) 0.179(3)
H6 H 0.000(3) 1.290(5) 0.121(3)
H7 H 0.081(4) 1.507(6) 0.275(3)
H8 H 0.109(4) 1.138(7) 0.296(3)
H9 H 0.037(4) 1.491(7) 0.184(4)
H10 H 0.424(4) 1.450(6) 0.540(4)
H11 H 0.336(3) 1.256(5) 0.525(3)
C13 C 0.1612(8) 1.4343(9) -0.0326(5)
C14 C 0.1808(8) 1.4080(9) 0.0476(5)
N1C N 0.26134(18) 0.9196(3) 0.22011(19)
N1A N -0.23866(18) 1.4196(3) 0.22011(19)
N2C N 0.19857(18) 1.1156(3) 0.18762(18)
N2B N -0.19857(18) 1.1156(3) 0.31238(18)
C1C C 0.1742(2) 1.0292(4) 0.1272(2)
C2C C 0.2131(2) 0.9087(4) 0.1466(2)
C3C C 0.2492(3) 1.0441(4) 0.2388(2)
C4C C 0.1205(3) 1.0455(5) 0.0558(3)
C5C C 0.2002(3) 0.8037(5) 0.0947(3)
C6C C 0.1086(4) 0.9393(5) 0.0064(3)
C7C C 0.1482(3) 0.8209(5) 0.0249(3)
N3A N -0.06272(17) 1.3067(3) 0.27255(17)
C8A C -0.0015(2) 1.2379(6) 0.3281(3)
C9A C -0.0741(2) 1.2406(5) 0.1972(2)
C10A C -0.0365(3) 1.4419(4) 0.2642(3)
N4A N -0.1570(3) 1.3922(4) 0.4071(2)
Li1C Li 0.3305(3) 0.8035(6) 0.3006(3)
Li1C_2 Li 0.3305(3) 1.8035(6) 0.3006(3)
Li1A Li -0.1695(3) 1.3035(6) 0.3006(3)
H1C H 0.196(5) 0.714(9) 0.103(5)
H2C H 0.281(2) 1.084(4) 0.288(3)
H3C H 0.072(4) 1.122(7) 0.037(4)
H4A H -0.122(3) 1.310(4) 0.153(2)
H5A H -0.016(3) 1.137(6) 0.321(3)
H6A H 0.000(3) 1.290(5) 0.379(3)
H7A H -0.081(4) 1.507(6) 0.225(3)
H8A H -0.109(4) 1.138(7) 0.204(3)
H9A H -0.037(4) 1.491(7) 0.316(4)
H10C H 0.076(4) 0.950(6) -0.040(4)
H11C H 0.164(3) 0.756(5) -0.025(3)
C13A C -0.1612(8) 1.4343(9) 0.5326(5)
C14A C -0.1808(8) 1.4080(9) 0.4524(5)
C11 C 0.4820(6) 0.3226(9) 0.3168(6)
N5 N 0.4288(5) 0.3226(9) 0.2488(7)
C12 C 0.5564(5) 0.3294(11) 0.3198(4)
H12 H 0.471(4) 0.346(7) 0.373(4)
C11A C 0.5180(6) 0.3226(9) 0.1832(6)
N5A N 0.5712(5) 0.3226(9) 0.2512(7)
C12A C 0.4436(5) 0.3294(11) 0.1802(4)
H12A H 0.529(4) 0.346(7) 0.127(4)
loop_
_geom_bond_atom_site_label_1
_geom_bond_atom_site_label_2
_geom_bond_site_symmetry_1
_geom_bond_site_symmetry_2
N1 C2 1_555 1_555
N2 C1 1_555 1_555
C1 C2 1_555 1_555
C2 C5 1_555 1_555
C3 N1 1_555 1_555
C4 C1 1_555 1_555
C5 C7 1_555 1_555
C6 C4 1_555 1_555
C7 C6 1_555 1_555
N3 C8 1_555 1_555
C8 H5 1_555 1_555
C9 N3 1_555 1_555
C10 N3 1_555 1_555
N4 Li1 1_555 1_555
Li1 N1 1_555 1_555
C11 N5 1_555 1_555
N5 C12A 1_555 1_555
C12 C11 1_555 1_555
H1 C5 1_555 1_555
H2 C3 1_555 1_555
H3 C4 1_555 1_555
H4 C9 1_555 1_555
H6 C8 1_555 1_555
H7 C10 1_555 1_555
H8 C9 1_555 1_555
H9 C10 1_555 1_555
H10 C6 1_555 1_555
H11 C7 1_555 1_555
H12 C11 1_555 1_555
C13 C14 1_555 1_555
C14 N4 1_555 1_555
N1C C2C 1_555 1_555
N1A Li1A 1_555 1_555
N2C Li1 1_555 1_555
N2B Li1A 1_555 1_555
C1C N2C 1_555 1_555
C2C C1C 1_555 1_555
C3C N1C 1_555 1_555
C4C C1C 1_555 1_555
C5C C2C 1_555 1_555
C6C C4C 1_555 1_555
C7C C5C 1_555 1_555
N3A C8A 1_555 1_555
C8A C9 1_555 1_555
C9A C8 1_555 1_555
C10A C10 1_555 1_555
N4A Li1A 1_555 1_555
Li1C N1C 1_555 1_555
Li1C_2 N2 1_555 1_555
Li1A N3A 1_555 1_555
C11A N5A 1_555 1_555
N5A C12 1_555 1_555
C12A C11A 1_555 1_555
H1C C5C 1_555 1_555
H2C C3C 1_555 1_555
H3C C4C 1_555 1_555
H4A C9A 1_555 1_555
H5A C8A 1_555 1_555
H6A C8A 1_555 1_555
H7A C10A 1_555 1_555
H8A C9A 1_555 1_555
H9A C10A 1_555 1_555
H10C C6C 1_555 1_555
H11C C7C 1_555 1_555
H12A C11A 1_555 1_555
C13A C14A 1_555 1_555
C14A N4A 1_555 1_555
N2 C3 1_555 1_555
N3 Li1 1_555 1_555
N2C C3C 1_555 1_555
C6C C7C 1_555 1_555
N3A C9A 1_555 1_555
N3A C10A 1_555 1_555

#END
