
#######################################################################
#
#                 Cambridge Crystallographic Data Centre
#                                CCDC 
#
#######################################################################
#
# If this CIF has been generated from an entry in the Cambridge 
# Structural Database, then it will include bibliographic, chemical, 
# crystal, experimental, refinement or atomic coordinate data resulting 
# from the CCDC's data processing and validation procedures.
#
#######################################################################

data_ALIJIP
_symmetry_cell_setting           triclinic
_symmetry_space_group_name_H-M   'P -1'
_symmetry_Int_Tables_number      2
_space_group_name_Hall           '-P 1'
loop_
_symmetry_equiv_pos_site_id
_symmetry_equiv_pos_as_xyz
1 x,y,z
2 -x,-y,-z
_cell_length_a                   10.0374(5)
_cell_length_b                   10.0674(5)
_cell_length_c                   21.5782(9)
_cell_angle_alpha                86.561(3)
_cell_angle_beta                 84.426(3)
_cell_angle_gamma                61.901(3)
_cell_volume                     1914.14
loop_
_atom_site_label
_atom_site_type_symbol
_atom_site_fract_x
_atom_site_fract_y
_atom_site_fract_z
Li1 Li 0.4535(9) 0.5372(9) 0.2481(4)
Li2 Li -0.2613(10) 0.9112(10) 0.1643(4)
N1 N 0.4227(8) 0.6870(6) 0.4331(2)
H1 H 0.3714 0.7243 0.4676
N2 N -0.2718(7) 1.0234(6) 0.0799(2)
N3 N -0.0380(5) 0.7965(5) 0.18424(19)
N4 N 0.5133(5) 0.3170(5) 0.2569(2)
N5 N 0.2286(5) 0.6520(5) 0.22465(19)
N6 N 0.6732(5) 0.7569(5) 0.15162(19)
N7 N 0.5660(5) 0.6024(5) 0.18014(19)
N8 N 0.6306(5) 0.0677(5) 0.23178(19)
N11 N 0.4709(6) 0.6149(5) 0.3341(2)
C1 C 0.4684(6) 0.2410(6) 0.3020(2)
C2 C 0.6305(5) 0.5699(6) 0.1200(2)
C3 C 0.5421(6) 0.0863(6) 0.2871(2)
C4 C 0.8346(16) 0.5305(12) 0.4312(5)
H2 H 0.909(9) 0.497(9) 0.454(4)
C6 C -0.3663(12) 1.1292(12) -0.0270(4)
H4 H -0.4747 1.1785 -0.0268
H5 H -0.3238 1.0468 -0.0554
H6 H -0.3295 1.1997 -0.0400
C7 C -0.3226(8) 1.0732(7) 0.0348(3)
C8 C 0.5778(9) 0.6208(7) 0.4216(3)
C9 C 0.6897(16) 0.5985(11) 0.4584(5)
H9 H 0.663(9) 0.630(9) 0.491(4)
C10 C 0.7791(8) 0.5493(8) 0.0031(3)
H10 H 0.858(8) 0.530(8) -0.033(3)
C11 C 0.7550(8) 0.5050(7) 0.3334(3)
H11 H 0.783(6) 0.466(6) 0.295(3)
C12 C 0.7095(7) 0.4573(8) 0.0204(3)
H12 H 0.714(6) 0.390(7) -0.008(3)
C13 C 0.4206(8) 0.0355(7) 0.3785(3)
H13 H 0.402(6) -0.027(7) 0.405(3)
C14 C 0.3675(9) 0.6816(7) 0.3798(3)
H14 H 0.268(7) 0.715(7) 0.378(3)
C15 C 0.7748(7) 0.6510(7) 0.0443(3)
H15 H 0.818(6) 0.711(6) 0.034(2)
C16 C 0.3676(6) 0.2929(6) 0.3552(3)
H16 H 0.311(6) 0.411(7) 0.367(3)
C17 C 0.1160(6) 0.6277(7) 0.2662(3)
H17 H 0.146(6) 0.523(7) 0.267(2)
H18 H 0.114(6) 0.660(6) 0.305(3)
C18 C 0.3432(7) 0.1891(7) 0.3922(3)
H19 H 0.276(6) 0.216(6) 0.430(3)
C19 C 0.6080(7) 0.5751(6) 0.3599(3)
C20 C 0.6358(6) 0.4658(7) 0.0779(3)
H20 H 0.583(6) 0.402(6) 0.092(2)
C21 C 0.8696(10) 0.4822(9) 0.3699(4)
H21 H 0.969(8) 0.421(7) 0.348(3)
C22 C 0.1788(7) 0.8153(6) 0.2211(3)
H22 H 0.259(6) 0.823(6) 0.191(2)
H23 H 0.176(6) 0.844(6) 0.264(3)
C23 C -0.0429(6) 0.7180(7) 0.2438(3)
H24 H -0.081(6) 0.647(6) 0.236(2)
H25 H -0.104(6) 0.792(7) 0.275(3)
C24 C 0.2283(7) 0.6012(7) 0.1621(3)
H26 H 0.261(6) 0.493(7) 0.161(2)
H27 H 0.297(7) 0.627(6) 0.132(3)
C25 C 0.5955(6) 0.7134(6) 0.1942(3)
H28 H 0.567(5) 0.762(5) 0.234(2)
C26 C 0.0674(6) 0.6837(7) 0.1395(3)
H29 H 0.072(6) 0.731(6) 0.099(3)
H30 H 0.019(6) 0.617(6) 0.140(2)
C27 C 0.6983(6) 0.6637(6) 0.1023(2)
C28 C 0.6063(6) 0.2085(6) 0.2177(3)
H31 H 0.657(5) 0.230(5) 0.178(2)
C29 C 0.0229(7) 0.9006(6) 0.1945(3)
H32 H 0.023(5) 0.949(6) 0.155(2)
H33 H -0.054(6) 0.971(6) 0.222(3)
C30 C 0.5199(7) -0.0165(7) 0.3269(3)
H34 H 0.575(6) -0.113(7) 0.316(2)
Li2_2 Li 0.7387(10) 0.9112(10) 0.1643(4)
Li2_3 Li 0.7387(10) -0.0888(10) 0.1643(4)
N6_2 N -0.3268(5) 0.7569(5) 0.15162(19)
N8_2 N -0.3694(5) 1.0677(5) 0.23178(19)
N9 N 0.0440(8) 0.2641(9) 0.2341(3)
N10 N 0.2041(10) 0.1832(10) 0.1205(4)
C5 C 0.1914(9) 0.1818(9) 0.2305(4)
H3 H 0.244(10) 0.152(9) 0.271(4)
C31 C -0.0229(10) 0.3057(9) 0.1805(5)
H35 H -0.130(8) 0.382(7) 0.185(3)
C32 C 0.0533(11) 0.2695(10) 0.1265(5)
H36 H 0.012(8) 0.271(8) 0.094(3)
C33 C 0.2677(11) 0.1457(11) 0.1749(5)
H37 H 0.357(9) 0.093(8) 0.176(3)
N12 N -0.0181(11) 0.9552(10) 0.3834(4)
N13 N -0.2174(10) 1.1221(9) 0.4694(4)
C34 C -0.0717(16) 1.1290(16) 0.4748(6)
C35 C 0.0540(16) 1.0243(17) 0.4201(7)
C36 C -0.1312(9) 1.0872(10) 0.3609(4)
C37 C -0.0640(17) 0.8598(17) 0.4254(7)
C38 C -0.1811(15) 0.9598(14) 0.4787(6)
C41 C -0.2432(10) 1.1814(10) 0.4120(4)
H7? H 0.6113 1.1704 0.0532
H8? H 0.6145 1.0232 0.0386
C39? C -0.2780(15) 1.0024(15) 0.4478(6)
C40? C -0.1693(16) 0.9049(16) 0.4011(7)
N14? N -0.0968(15) 0.9607(15) 0.3606(6)
N15? N -0.2997(16) 1.1433(14) 0.4535(6)
loop_
_geom_bond_atom_site_label_1
_geom_bond_atom_site_label_2
_geom_bond_site_symmetry_1
_geom_bond_site_symmetry_2
Li1 N4 1_555 1_555
Li2 N2 1_555 1_555
N1 H1 1_555 1_555
N2 C7 1_555 1_555
N3 Li2 1_555 1_555
N4 C1 1_555 1_555
N5 Li1 1_555 1_555
N6 C25 1_555 1_555
N7 Li1 1_555 1_555
N8 C3 1_555 1_555
N9 C5 1_555 1_555
N10 C32 1_555 1_555
N11 Li1 1_555 1_555
N12 C35 1_555 1_555
N13 C34 1_555 1_555
C1 C3 1_555 1_555
C2 N7 1_555 1_555
C3 C30 1_555 1_555
C4 H2 1_555 1_555
C5 H3 1_555 1_555
C6 H4 1_555 1_555
H5 C6 1_555 1_555
H6 C6 1_555 1_555
C7 C6 1_555 1_555
C8 N1 1_555 1_555
C9 C4 1_555 1_555
H9 C9 1_555 1_555
C10 H10 1_555 1_555
C11 H11 1_555 1_555
C12 C10 1_555 1_555
H12 C12 1_555 1_555
C13 H13 1_555 1_555
C14 N1 1_555 1_555
H14 C14 1_555 1_555
C15 C10 1_555 1_555
H15 C15 1_555 1_555
C16 C1 1_555 1_555
H16 C16 1_555 1_555
C17 N5 1_555 1_555
H17 C17 1_555 1_555
H18 C17 1_555 1_555
C18 C13 1_555 1_555
H19 C18 1_555 1_555
C19 N11 1_555 1_555
C20 C2 1_555 1_555
H20 C20 1_555 1_555
C21 C4 1_555 1_555
H21 C21 1_555 1_555
C22 N5 1_555 1_555
H22 C22 1_555 1_555
H23 C22 1_555 1_555
C23 N3 1_555 1_555
H24 C23 1_555 1_555
H25 C23 1_555 1_555
C24 N5 1_555 1_555
H26 C24 1_555 1_555
H27 C24 1_555 1_555
C25 N7 1_555 1_555
H28 C25 1_555 1_555
C26 N3 1_555 1_555
H29 C26 1_555 1_555
H30 C26 1_555 1_555
C27 N6 1_555 1_555
C28 N4 1_555 1_555
H31 C28 1_555 1_555
C29 N3 1_555 1_555
H32 C29 1_555 1_555
H33 C29 1_555 1_555
C30 C13 1_555 1_555
H34 C30 1_555 1_555
C31 N9 1_555 1_555
H35 C31 1_555 1_555
C32 C31 1_555 1_555
H36 C32 1_555 1_555
C33 N10 1_555 1_555
H37 C33 1_555 1_555
C34 C35 1_555 1_555
C36 N12 1_555 1_555
C37 N12 1_555 1_555
C38 N13 1_555 1_555
C41 N13 1_555 1_555
Li2_2 N6 1_555 1_555
Li2_3 N8 1_555 1_555
N6_2 Li2 1_555 1_555
N8_2 Li2 1_555 1_555
N8 C28 1_555 1_555
N11 C14 1_555 1_555
C2 C27 1_555 1_555
C5 C33 1_555 1_555
C8 C9 1_555 1_555
C8 C19 1_555 1_555
C11 C19 1_555 1_555
C11 C21 1_555 1_555
C12 C20 1_555 1_555
C15 C27 1_555 1_555
C16 C18 1_555 1_555
C17 C23 1_555 1_555
C22 C29 1_555 1_555
C24 C26 1_555 1_555
C36 C41 1_555 1_555
C37 C38 1_555 1_555

#END
