
#######################################################################
#
#                 Cambridge Crystallographic Data Centre
#                                CCDC 
#
#######################################################################
#
# If this CIF has been generated from an entry in the Cambridge 
# Structural Database, then it will include bibliographic, chemical, 
# crystal, experimental, refinement or atomic coordinate data resulting 
# from the CCDC's data processing and validation procedures.
#
#######################################################################

data_ALIJAH
_symmetry_cell_setting           monoclinic
_symmetry_space_group_name_H-M   'P 21/n'
_symmetry_Int_Tables_number      14
_space_group_name_Hall           '-P 2yn'
loop_
_symmetry_equiv_pos_site_id
_symmetry_equiv_pos_as_xyz
1 x,y,z
2 1/2-x,1/2+y,1/2-z
3 -x,-y,-z
4 1/2+x,1/2-y,1/2+z
_cell_length_a                   7.7706(2)
_cell_length_b                   8.8075(2)
_cell_length_c                   16.1226(4)
_cell_angle_alpha                90
_cell_angle_beta                 98.294(1)
_cell_angle_gamma                90
_cell_volume                     1091.88
loop_
_atom_site_label
_atom_site_type_symbol
_atom_site_fract_x
_atom_site_fract_y
_atom_site_fract_z
Li1 Li 0.7181(2) 0.1582(2) 0.62703(11)
N1 N 0.63560(13) 0.01685(11) 0.70999(6)
N2 N 0.51963(13) 0.23214(13) 0.53659(6)
N3 N 0.87907(12) 0.05375(11) 0.54947(6)
N4 N 0.65672(12) -0.16242(11) 0.81468(5)
C1 C 0.2934(2) 0.35054(17) 0.42128(8)
H1 H 0.182(2) 0.301(2) 0.4194(10)
H2 H 0.288(3) 0.460(3) 0.4310(13)
H3 H 0.335(2) 0.340(2) 0.3659(12)
C2 C 0.27149(17) 0.04103(15) 0.87241(8)
H4 H 0.189(2) 0.0452(18) 0.9120(10)
C3 C 0.25731(16) 0.15000(15) 0.80802(8)
H5 H 0.1686(19) 0.2255(17) 0.8054(9)
C4 C 0.71972(15) -0.10245(13) 0.74848(7)
H6 H 0.8240(17) -0.1432(15) 0.7302(8)
C5 C 0.83856(15) 0.03594(14) 0.46649(7)
H7 H 0.7216(18) 0.0628(16) 0.4406(8)
C6 C 0.37171(15) 0.15058(14) 0.74969(7)
H8 H 0.3652(19) 0.2276(17) 0.7055(9)
C7 C 0.42003(15) 0.28247(13) 0.48569(7)
C8 C 1.04154(15) 0.01695(14) 0.58245(7)
H9 H 1.0715(18) 0.0297(16) 0.6418(9)
C9 C 0.51479(14) -0.07087(12) 0.82086(6)
C10 C 0.39914(15) -0.06954(14) 0.87986(7)
H10 H 0.4109(18) -0.1446(17) 0.9266(9)
C11 C 0.50146(14) 0.03946(12) 0.75660(6)
Li1A Li 0.7819(2) 0.6582(2) 0.87297(11)
Li1A_2 Li 0.7819(2) -0.3418(2) 0.87297(11)
Li1B Li 1.2819(2) -0.1582(2) 0.37297(11)
N1A N 0.86440(13) 0.51685(11) 0.79001(6)
N2A N 0.98037(13) 0.73214(13) 0.96341(6)
N3B N 1.12093(12) -0.05375(11) 0.45053(6)
N3A N 0.62093(12) 0.55375(11) 0.95053(6)
N4A N 0.84328(12) 0.33758(11) 0.68532(5)
N4_2 N 0.65672(12) 0.83758(11) 0.81468(5)
C1A C 1.2066(2) 0.85054(17) 1.07872(8)
H1A H 1.318(2) 0.801(2) 1.0806(10)
H2A H 1.212(3) 0.960(3) 1.0690(13)
H3A H 1.165(2) 0.840(2) 1.1341(12)
C2A C 1.22851(17) 0.54103(15) 0.62759(8)
H4A H 1.311(2) 0.5452(18) 0.5880(10)
C3A C 1.24269(16) 0.65000(15) 0.69198(8)
H5A H 1.3314(19) 0.7255(17) 0.6946(9)
C4A C 0.78028(15) 0.39755(13) 0.75152(7)
H6A H 0.6760(17) 0.3568(15) 0.7698(8)
C5B C 1.16144(15) -0.03594(14) 0.53351(7)
H7B H 1.2784(18) -0.0628(16) 0.5594(8)
C6A C 1.12829(15) 0.65058(14) 0.75031(7)
H8A H 1.1348(19) 0.7276(17) 0.7945(9)
C7A C 1.07997(15) 0.78247(13) 1.01431(7)
C8B C 0.95846(15) -0.01695(14) 0.41755(7)
H9B H 0.9285(18) -0.0297(16) 0.3582(9)
C9A C 0.98521(14) 0.42913(12) 0.67914(6)
C10A C 1.10086(15) 0.43046(14) 0.62014(7)
H10A H 1.0891(18) 0.3554(17) 0.5734(9)
C11A C 0.99854(14) 0.53946(12) 0.74340(6)
loop_
_geom_bond_atom_site_label_1
_geom_bond_atom_site_label_2
_geom_bond_site_symmetry_1
_geom_bond_site_symmetry_2
Li1 N1 1_555 1_555
N1 C4 1_555 1_555
N2 Li1 1_555 1_555
N3 Li1 1_555 1_555
N4 C4 1_555 1_555
C1 H1 1_555 1_555
H2 C1 1_555 1_555
H3 C1 1_555 1_555
C2 H4 1_555 1_555
C3 C2 1_555 1_555
H5 C3 1_555 1_555
C4 H6 1_555 1_555
C5 N3 1_555 1_555
H7 C5 1_555 1_555
C6 C3 1_555 1_555
H8 C6 1_555 1_555
C7 N2 1_555 1_555
C8 N3 1_555 1_555
H9 C8 1_555 1_555
C9 N4 1_555 1_555
C10 C2 1_555 1_555
H10 C10 1_555 1_555
C11 N1 1_555 1_555
Li1A N1A 1_555 1_555
Li1A_2 N4 1_555 1_555
Li1B N3B 1_555 1_555
N1A C4A 1_555 1_555
N2A Li1A 1_555 1_555
N3B C5B 1_555 1_555
N3A Li1A 1_555 1_555
N4A Li1 1_555 1_555
N4_2 Li1A 1_555 1_555
C1A H1A 1_555 1_555
H2A C1A 1_555 1_555
H3A C1A 1_555 1_555
C2A H4A 1_555 1_555
C3A C2A 1_555 1_555
H5A C3A 1_555 1_555
C4A N4A 1_555 1_555
H6A C4A 1_555 1_555
C5B C8 1_555 1_555
H7B C5B 1_555 1_555
C6A C3A 1_555 1_555
H8A C6A 1_555 1_555
C7A N2A 1_555 1_555
C8B C5 1_555 1_555
H9B C8B 1_555 1_555
C9A N4A 1_555 1_555
C10A C2A 1_555 1_555
H10A C10A 1_555 1_555
C11A N1A 1_555 1_555
C1 C7 1_555 1_555
C6 C11 1_555 1_555
C9 C10 1_555 1_555
C9 C11 1_555 1_555
N3B C8B 1_555 1_555
C1A C7A 1_555 1_555
C6A C11A 1_555 1_555
C9A C10A 1_555 1_555
C9A C11A 1_555 1_555

#END
