
#######################################################################
#
#                 Cambridge Crystallographic Data Centre
#                                CCDC 
#
#######################################################################
#
# If this CIF has been generated from an entry in the Cambridge 
# Structural Database, then it will include bibliographic, chemical, 
# crystal, experimental, refinement or atomic coordinate data resulting 
# from the CCDC's data processing and validation procedures.
#
#######################################################################

data_ALIJEL
_symmetry_cell_setting           monoclinic
_symmetry_space_group_name_H-M   'P 21'
_symmetry_Int_Tables_number      4
_space_group_name_Hall           'P 2yb'
loop_
_symmetry_equiv_pos_site_id
_symmetry_equiv_pos_as_xyz
1 x,y,z
2 -x,1/2+y,-z
_cell_length_a                   7.6318(3)
_cell_length_b                   9.5156(3)
_cell_length_c                   8.3864(3)
_cell_angle_alpha                90
_cell_angle_beta                 110.474(2)
_cell_angle_gamma                90
_cell_volume                     570.558
loop_
_atom_site_label
_atom_site_type_symbol
_atom_site_fract_x
_atom_site_fract_y
_atom_site_fract_z
Li1 Li -1.1082(4) 0.1279(3) -0.2293(3)
N1 N -1.14506(17) -0.06607(14) -0.15070(16)
N2 N -1.05382(18) -0.24195(14) 0.04921(16)
N3 N -0.9938(2) 0.11366(17) -0.42171(18)
N4 N -1.3626(2) 0.23201(16) -0.32707(18)
C1 C -1.0063(2) -0.13575(17) -0.03251(19)
H1 H -0.874(3) -0.104(2) -0.006(2)
C2 C -1.3038(2) -0.13453(16) -0.14637(19)
C3 C -1.2475(2) -0.24275(16) -0.02370(18)
C4 C -1.3798(2) -0.33028(18) 0.0081(2)
H2 H -1.338(2) -0.406(2) 0.095(2)
C5 C -1.5662(2) -0.3058(2) -0.0841(2)
H3 H -1.654(3) -0.361(3) -0.056(3)
C6 C -1.6230(2) -0.1987(2) -0.2072(2)
H4 H -1.760(3) -0.184(2) -0.275(3)
C7 C -1.4929(2) -0.11246(17) -0.2393(2)
H5 H -1.529(3) -0.032(3) -0.315(2)
C8 C -0.8755(4) 0.0743(3) -0.6723(3)
H6 H -0.768(4) 0.114(3) -0.653(3)
H7 H -0.895(4) -0.005(4) -0.711(4)
C9 C -0.9413(2) 0.09630(18) -0.5308(2)
C10 C -1.6481(3) 0.3967(2) -0.3752(3)
H8 H -1.736(4) 0.395(3) -0.501(4)
H9 H -1.729(3) 0.368(3) -0.311(3)
H10 H -1.608(4) 0.484(4) -0.353(4)
C11 C -1.4878(2) 0.30370(18) -0.3474(2)
Li1A Li -0.8918(4) -0.3721(3) 0.2293(3)
N2A N -0.94618(18) 0.25805(14) -0.04921(16)
loop_
_geom_bond_atom_site_label_1
_geom_bond_atom_site_label_2
_geom_bond_site_symmetry_1
_geom_bond_site_symmetry_2
Li1 N1 1_555 1_555
N1 C1 1_555 1_555
N2 C1 1_555 1_555
N3 Li1 1_555 1_555
N4 Li1 1_555 1_555
C1 H1 1_555 1_555
C2 N1 1_555 1_555
C3 N2 1_555 1_555
C4 C3 1_555 1_555
H2 C4 1_555 1_555
C5 C4 1_555 1_555
H3 C5 1_555 1_555
C6 C5 1_555 1_555
H4 C6 1_555 1_555
C7 C2 1_555 1_555
H5 C7 1_555 1_555
C8 H6 1_555 1_555
H7 C8 1_555 1_555
C9 N3 1_555 1_555
C10 H8 1_555 1_555
H9 C10 1_555 1_555
H10 C10 1_555 1_555
C11 N4 1_555 1_555
Li1A N2 1_555 1_555
N2A Li1 1_555 1_555
C2 C3 1_555 1_555
C6 C7 1_555 1_555
C8 C9 1_555 1_555
C10 C11 1_555 1_555

#END
