
#######################################################################
#
#                 Cambridge Crystallographic Data Centre
#                                CCDC 
#
#######################################################################
#
# If this CIF has been generated from an entry in the Cambridge 
# Structural Database, then it will include bibliographic, chemical, 
# crystal, experimental, refinement or atomic coordinate data resulting 
# from the CCDC's data processing and validation procedures.
#
#######################################################################

data_ALIKEM
_symmetry_cell_setting           triclinic
_symmetry_space_group_name_H-M   'P -1'
_symmetry_Int_Tables_number      2
_space_group_name_Hall           '-P 1'
loop_
_symmetry_equiv_pos_site_id
_symmetry_equiv_pos_as_xyz
1 x,y,z
2 -x,-y,-z
_cell_length_a                   7.0434(2)
_cell_length_b                   8.7481(3)
_cell_length_c                   13.6485(4)
_cell_angle_alpha                98.392(2)
_cell_angle_beta                 92.024(2)
_cell_angle_gamma                97.262(1)
_cell_volume                     824.053
loop_
_atom_site_label
_atom_site_type_symbol
_atom_site_fract_x
_atom_site_fract_y
_atom_site_fract_z
Cu1 Cu 0.17026(4) 0.47240(3) 0.253069(18)
O1 O 0.1206(3) 0.7877(2) 0.37283(14)
O2 O 0.1281(3) 0.1446(2) 0.13022(14)
O3 O -0.1575(2) 0.4153(2) 0.26009(12)
O4 O -0.1881(3) 0.6522(2) 0.23683(13)
O5 O -0.4377(3) 0.4810(3) 0.23719(16)
N1 N 0.2428(2) 0.3540(2) 0.36345(13)
N2 N 0.1696(3) 0.6358(2) 0.36901(13)
N3 N 0.2300(2) 0.6068(2) 0.14598(13)
N4 N 0.1566(3) 0.3075(2) 0.13664(13)
N5 N 0.2926(3) 0.3932(2) 0.53935(14)
N6 N 0.1979(3) 0.6903(3) 0.54317(15)
H1 H 0.181(4) 0.780(4) 0.542(2)
H2 H 0.219(4) 0.652(4) 0.590(2)
N7 N 0.2762(3) 0.5769(3) -0.02714(15)
N8 N 0.1938(4) 0.2607(3) -0.03491(16)
H3 H 0.172(5) 0.166(4) -0.032(2)
H4 H 0.208(4) 0.301(4) -0.082(2)
N9 N -0.2643(3) 0.5167(3) 0.24431(13)
C1 C 0.2850(3) 0.2078(3) 0.35896(18)
H5 H 0.274(4) 0.149(3) 0.294(2)
C2 C 0.3273(4) 0.1485(3) 0.44498(19)
H6 H 0.348(4) 0.041(4) 0.440(2)
C3 C 0.3287(4) 0.2453(3) 0.53388(18)
H7 H 0.359(4) 0.211(3) 0.589(2)
C4 C 0.2511(3) 0.4387(2) 0.45418(15)
C5 C 0.2044(3) 0.6007(2) 0.45635(15)
C6 C 0.2775(4) 0.7612(3) 0.15214(19)
H8 H 0.278(4) 0.814(4) 0.213(2)
C7 C 0.3238(4) 0.8284(3) 0.0694(2)
H9 H 0.363(5) 0.943(4) 0.079(2)
C8 C 0.3199(4) 0.7327(3) -0.0195(2)
H10 H 0.350(4) 0.772(3) -0.075(2)
C9 C 0.2353(3) 0.5234(3) 0.05587(15)
C10 C 0.1925(3) 0.3515(3) 0.05193(15)
H11 H 0.033(5) 0.773(4) 0.333(3)
H12 H 0.035(5) 0.129(4) 0.152(3)
Cu1_2 Cu -0.82974(4) 0.47240(3) 0.253069(18)
O5_2 O 0.5623(3) 0.4810(3) 0.23719(16)
O6 O 0.7648(5) 0.0294(3) 0.16893(18)
O7 O 0.8953(4) 0.0283(3) 0.3119(2)
O8 O 0.5943(4) -0.0047(3) 0.2935(2)
N10 N 0.7490(3) 0.0174(2) 0.25802(17)
loop_
_geom_bond_atom_site_label_1
_geom_bond_atom_site_label_2
_geom_bond_site_symmetry_1
_geom_bond_site_symmetry_2
Cu1 O3 1_555 1_555
O1 N2 1_555 1_555
O2 N4 1_555 1_555
O3 N9 1_555 1_555
O4 N9 1_555 1_555
O5 N9 1_555 1_555
N1 Cu1 1_555 1_555
N2 Cu1 1_555 1_555
N3 Cu1 1_555 1_555
N4 Cu1 1_555 1_555
N5 C3 1_555 1_555
N6 H1 1_555 1_555
H2 N6 1_555 1_555
N7 C8 1_555 1_555
N8 H3 1_555 1_555
H4 N8 1_555 1_555
C1 N1 1_555 1_555
H5 C1 1_555 1_555
C2 C1 1_555 1_555
H6 C2 1_555 1_555
C3 C2 1_555 1_555
H7 C3 1_555 1_555
C4 N1 1_555 1_555
C5 N2 1_555 1_555
C6 N3 1_555 1_555
H8 C6 1_555 1_555
C7 C6 1_555 1_555
H9 C7 1_555 1_555
C8 C7 1_555 1_555
H10 C8 1_555 1_555
C9 N3 1_555 1_555
C10 N4 1_555 1_555
H11 O1 1_555 1_555
H12 O2 1_555 1_555
O6 N10 1_555 1_555
O7 N10 1_555 1_555
O8 N10 1_555 1_555
Cu1_2 O5 1_555 1_555
O5_2 Cu1 1_555 1_555
N5 C4 1_555 1_555
N6 C5 1_555 1_555
N7 C9 1_555 1_555
N8 C10 1_555 1_555
C4 C5 1_555 1_555
C9 C10 1_555 1_555

#END
