
#######################################################################
#
#                 Cambridge Crystallographic Data Centre
#                                CCDC 
#
#######################################################################
#
# If this CIF has been generated from an entry in the Cambridge 
# Structural Database, then it will include bibliographic, chemical, 
# crystal, experimental, refinement or atomic coordinate data resulting 
# from the CCDC's data processing and validation procedures.
#
#######################################################################

data_ALIQUH
_symmetry_cell_setting           triclinic
_symmetry_space_group_name_H-M   'P -1'
_symmetry_Int_Tables_number      2
_space_group_name_Hall           '-P 1'
loop_
_symmetry_equiv_pos_site_id
_symmetry_equiv_pos_as_xyz
1 x,y,z
2 -x,-y,-z
_cell_length_a                   5.9305(5)
_cell_length_b                   7.7763(7)
_cell_length_c                   8.1707(7)
_cell_angle_alpha                81.489(2)
_cell_angle_beta                 81.045(2)
_cell_angle_gamma                86.076(2)
_cell_volume                     367.721
loop_
_atom_site_label
_atom_site_type_symbol
_atom_site_fract_x
_atom_site_fract_y
_atom_site_fract_z
Mn1 Mn 0.44784(8) 0.36712(6) 0.85331(6)
O1 O 0.5218(5) 0.6054(3) 0.6703(3)
O2 O 0.5513(4) 0.7109(3) 0.3981(3)
O3 O 0.2754(4) 0.5382(3) 1.0335(3)
O4 O -0.0639(4) 0.5882(3) 1.1875(3)
O5 O 0.6838(4) 0.1249(3) 0.8494(3)
O6 O 0.7219(5) -0.1543(3) 0.9616(3)
C1 C 0.5214(5) 0.5908(4) 0.5221(4)
C2 C 0.0579(5) 0.5381(4) 1.0654(4)
C3 C 0.6181(5) -0.0099(4) 0.9459(4)
C1A C 0.4786(5) 0.4092(4) 0.4779(4)
O1A O 0.4782(5) 0.3946(3) 0.3297(3)
O2A O 0.4487(4) 0.2891(3) 0.6019(3)
C2A C -0.0579(5) 0.4619(4) 0.9346(4)
O3A O -0.2754(4) 0.4618(3) 0.9665(3)
O4A O 0.0639(4) 0.4118(3) 0.8125(3)
C3A C 0.3819(5) 0.0099(4) 1.0541(4)
O5A O 0.3162(4) -0.1249(3) 1.1506(3)
O6A O 0.2781(5) 0.1543(3) 1.0384(3)
Mn1A Mn 0.55216(8) 0.63288(6) 0.14669(6)
O3A_2 O 0.7246(4) 0.4618(3) 0.9665(3)
Mn1A_2 Mn 0.55216(8) 0.63288(6) 1.14669(6)
Mn1A_3 Mn -0.44784(8) 0.63288(6) 1.14669(6)
Mn1A_4 Mn 0.55216(8) -0.36712(6) 1.14669(6)
Mn1_2 Mn -0.55216(8) 0.36712(6) 0.85331(6)
O3_2 O 0.2754(4) 0.5382(3) 0.0335(3)
O3A_3 O 0.7246(4) 0.4618(3) -0.0335(3)
O4_2 O 0.9361(4) 0.5882(3) 0.1875(3)
O5A_2 O 0.3162(4) 0.8751(3) 0.1506(3)
O6_2 O 0.7219(5) 0.8457(3) -0.0384(3)
N1 N 0.0550(6) 0.1139(4) 0.6095(4)
C4 C 0.1514(6) -0.0689(5) 0.6197(5)
C5 C 0.0096(6) 0.1832(5) 0.4361(5)
H1 H -0.073(8) 0.123(6) 0.688(6)
H2 H 0.161(9) 0.155(6) 0.636(6)
H3 H 0.308(9) -0.046(7) 0.535(6)
H4 H 0.181(10) -0.116(8) 0.746(7)
H5 H -0.06(1) 0.308(8) 0.436(7)
H6 H 0.160(7) 0.186(5) 0.373(5)
C5A C -0.0096(6) -0.1832(5) 0.5639(5)
N1A N -0.0550(6) -0.1139(4) 0.3905(4)
C4A C -0.1514(6) 0.0689(5) 0.3803(5)
H3A H -0.308(9) 0.046(7) 0.465(6)
H4A H -0.181(10) 0.116(8) 0.254(7)
H1A H 0.073(8) -0.123(6) 0.312(6)
H2A H -0.161(9) -0.155(6) 0.364(6)
H5A H 0.06(1) -0.308(8) 0.564(7)
H6A H -0.160(7) -0.186(5) 0.627(5)
loop_
_geom_bond_atom_site_label_1
_geom_bond_atom_site_label_2
_geom_bond_site_symmetry_1
_geom_bond_site_symmetry_2
Mn1 O1 1_555 1_555
O1 C1 1_555 1_555
O2 C1 1_555 1_555
O3 Mn1 1_555 1_555
O4 C2 1_555 1_555
O5 Mn1 1_555 1_555
O6 C3 1_555 1_555
N1 C4 1_555 1_555
C1 C1A 1_555 1_555
C2 O3 1_555 1_555
C3 O5 1_555 1_555
C4 H3 1_555 1_555
C5 N1 1_555 1_555
H1 N1 1_555 1_555
H2 N1 1_555 1_555
H4 C4 1_555 1_555
H5 C5 1_555 1_555
H6 C5 1_555 1_555
C1A O1A 1_555 1_555
O1A Mn1A 1_555 1_555
O2A Mn1 1_555 1_555
C2A C2 1_555 1_555
O3A C2A 1_555 1_555
O4A Mn1 1_555 1_555
C3A C3 1_555 1_555
O5A C3A 1_555 1_555
O6A Mn1 1_555 1_555
C5A C4 1_555 1_555
N1A C5A 1_555 1_555
C4A C5 1_555 1_555
H3A C4A 1_555 1_555
H4A C4A 1_555 1_555
H1A N1A 1_555 1_555
H2A N1A 1_555 1_555
H5A C5A 1_555 1_555
H6A C5A 1_555 1_555
Mn1A O2 1_555 1_555
O3A_2 Mn1 1_555 1_555
Mn1A_2 O3 1_555 1_555
Mn1A_3 O4 1_555 1_555
Mn1A_4 O6 1_555 1_555
Mn1_2 O3A 1_555 1_555
O3_2 Mn1A 1_555 1_555
O3A_3 Mn1A 1_555 1_555
O4_2 Mn1A 1_555 1_555
O5A_2 Mn1A 1_555 1_555
O6_2 Mn1A 1_555 1_555
C1A O2A 1_555 1_555
C2A O4A 1_555 1_555
O3A Mn1A_3 1_555 1_555
C3A O6A 1_555 1_555
O5A Mn1A_4 1_555 1_555
N1A C4A 1_555 1_555
O3A_2 Mn1A_2 1_555 1_555

#END
