
#######################################################################
#
#                 Cambridge Crystallographic Data Centre
#                                CCDC 
#
#######################################################################
#
# If this CIF has been generated from an entry in the Cambridge 
# Structural Database, then it will include bibliographic, chemical, 
# crystal, experimental, refinement or atomic coordinate data resulting 
# from the CCDC's data processing and validation procedures.
#
#######################################################################

data_ALIRAO
_symmetry_cell_setting           monoclinic
_symmetry_space_group_name_H-M   'P 21/c'
_symmetry_Int_Tables_number      14
_space_group_name_Hall           '-P 2ybc'
loop_
_symmetry_equiv_pos_site_id
_symmetry_equiv_pos_as_xyz
1 x,y,z
2 x,1/2-y,1/2+z
3 -x,-y,-z
4 -x,1/2+y,1/2-z
_cell_length_a                   5.9262(12)
_cell_length_b                   5.6949(11)
_cell_length_c                   7.4944(15)
_cell_angle_alpha                90.00
_cell_angle_beta                 91.10(3)
_cell_angle_gamma                90.00
_cell_volume                     252.883
loop_
_atom_site_label
_atom_site_type_symbol
_atom_site_fract_x
_atom_site_fract_y
_atom_site_fract_z
Mn1 Mn 0.4062(3) 0.2650(3) 0.3945(3)
O1 O 0.7170(13) 0.0652(14) 0.4610(12)
C1 C 0.9263(19) 0.092(2) 0.4555(16)
O2 O 1.0197(14) 0.2667(15) 0.3823(11)
O3 O 0.6141(16) 0.5694(17) 0.3451(13)
H1 H 0.71(2) 0.53(2) 0.387(17)
C1B C 1.0737(19) -0.092(2) 0.5445(16)
O1B O 1.2830(13) -0.0652(14) 0.5390(12)
O2B O 0.9803(14) -0.2667(15) 0.6177(11)
O3B O 0.3859(16) 0.4306(17) 0.6549(13)
H1B H 0.29(2) 0.47(2) 0.613(17)
Mn1B Mn 1.5938(3) -0.2650(3) 0.6055(3)
O1B_2 O 0.2830(13) -0.0652(14) 0.5390(12)
O2_2 O 0.0197(14) 0.2667(15) 0.3823(11)
O3C O 0.3859(16) 0.0694(17) 0.1549(13)
Mn1B_2 Mn 0.5938(3) -0.2650(3) 0.6055(3)
Mn1_2 Mn 1.4062(3) 0.2650(3) 0.3945(3)
Mn1B_3 Mn 0.5938(3) 0.7350(3) 0.6055(3)
Mn1C Mn 0.5938(3) 0.7650(3) 0.1055(3)
Mn1A Mn 0.4062(3) 0.2350(3) 0.8945(3)
O1_2 O 1.7170(13) 0.0652(14) 0.4610(12)
O2B_2 O 1.9803(14) -0.2667(15) 0.6177(11)
O3_2 O 1.6141(16) -0.4306(17) 0.3451(13)
O3A O 1.6141(16) -0.0694(17) 0.8451(13)
O3B_2 O 1.3859(16) -0.5694(17) 0.6549(13)
H1C H 0.29(2) 0.03(2) 0.113(17)
H1_2 H 1.71(2) -0.47(2) 0.387(17)
H1A H 1.71(2) -0.03(2) 0.887(17)
H1B_2 H 1.29(2) -0.53(2) 0.613(17)
loop_
_geom_bond_atom_site_label_1
_geom_bond_atom_site_label_2
_geom_bond_site_symmetry_1
_geom_bond_site_symmetry_2
Mn1 O1 1_555 1_555
O1 C1 1_555 1_555
C1 O2 1_555 1_555
O2 Mn1_2 1_555 1_555
O3 Mn1 1_555 1_555
H1 O3 1_555 1_555
C1B C1 1_555 1_555
O1B C1B 1_555 1_555
O2B C1B 1_555 1_555
O3B Mn1 1_555 1_555
H1B O3B 1_555 1_555
Mn1B O1B 1_555 1_555
O1B_2 Mn1 1_555 1_555
O2_2 Mn1 1_555 1_555
O3C Mn1 1_555 1_555
Mn1B_2 O1 1_555 1_555
Mn1_2 O1B 1_555 1_555
Mn1B_3 O3 1_555 1_555
Mn1C O3 1_555 1_555
Mn1A O3B 1_555 1_555
O1_2 Mn1B 1_555 1_555
O2B_2 Mn1B 1_555 1_555
O3_2 Mn1B 1_555 1_555
O3A Mn1B 1_555 1_555
O3B_2 Mn1B 1_555 1_555
H1C O3C 1_555 1_555
H1_2 O3_2 1_555 1_555
H1A O3A 1_555 1_555
H1B_2 O3B_2 1_555 1_555
O2B Mn1B_2 1_555 1_555
O3B Mn1B_3 1_555 1_555
O1B_2 Mn1B_2 1_555 1_555
Mn1_2 O1_2 1_555 1_555

#END
