
#######################################################################
#
#                 Cambridge Crystallographic Data Centre
#                                CCDC 
#
#######################################################################
#
# If this CIF has been generated from an entry in the Cambridge 
# Structural Database, then it will include bibliographic, chemical, 
# crystal, experimental, refinement or atomic coordinate data resulting 
# from the CCDC's data processing and validation procedures.
#
#######################################################################

data_ALIRES
_symmetry_cell_setting           hexagonal
_symmetry_space_group_name_H-M   'P 63'
_symmetry_Int_Tables_number      173
_space_group_name_Hall           'P 6c'
loop_
_symmetry_equiv_pos_site_id
_symmetry_equiv_pos_as_xyz
1 x,y,z
2 -y,x-y,z
3 -x+y,-x,z
4 -x,-y,1/2+z
5 y,-x+y,1/2+z
6 x-y,x,1/2+z
_cell_length_a                   13.895(3)
_cell_length_b                   13.895(3)
_cell_length_c                   7.528(3)
_cell_angle_alpha                90
_cell_angle_beta                 90
_cell_angle_gamma                120
_cell_volume                     1258.71
loop_
_atom_site_label
_atom_site_type_symbol
_atom_site_fract_x
_atom_site_fract_y
_atom_site_fract_z
Ag1 Ag 0.3333 0.6667 0.6711(3)
O1 O 0.2059(4) 0.9160(4) 1.2435(7)
N1 N 0.2858(4) 1.0628(5) 1.0562(8)
H1 H 0.2773 1.1142 1.0019
N2 N 0.3394(3) 0.8386(4) 0.6663(18)
N3 N 0.3333 0.6667 0.322(3)
N4 N 0.3333 0.6667 0.179(4)
N5 N 0.3333 0.6667 0.022(5)
C1 C 0.0984(4) 0.9967(4) 1.1783(18)
C2 C 0.1016(4) 1.0982(4) 1.1807(15)
H2 H 0.1710 1.1654 1.1841
C3 C 0.2016(4) 0.9873(4) 1.1690(19)
C4 C 0.3876(5) 1.0582(6) 1.0265(10)
H3 H 0.3954 1.0133 1.1214
H4 H 0.4525 1.1343 1.0332
C5 C 0.3559(8) 0.8940(9) 0.8151(15)
H5 H 0.3455 0.8545 0.9231
C6 C 0.3864(8) 1.0024(9) 0.8272(15)
C7 C 0.4097(4) 1.0650(5) 0.6566(18)
H6 H 0.4364 1.1427 0.6562
C8 C 0.3927(10) 1.0105(9) 0.5088(16)
H7 H 0.4075 1.0485 0.3985
C9 C 0.3518(8) 0.8934(9) 0.5113(15)
H8 H 0.3331 0.8533 0.4026
C1A C 0.0033(4) 1.1017(6) 1.1783(18)
C2A C -0.0982(4) 1.0034(6) 1.1807(15)
C1B C -0.1017(6) 0.9016(4) 1.1783(18)
C2B C -0.0034(6) 0.8984(4) 1.1807(15)
H2B H -0.0056 0.8290 1.1841
C3B C -0.2143(6) 0.7984(4) 1.1690(19)
O1B O -0.2899(6) 0.7941(4) 1.2435(7)
N1B N -0.2230(6) 0.7142(4) 1.0562(8)
H1B H -0.1631 0.7227 1.0019
C4B C -0.3294(8) 0.6124(5) 1.0265(10)
H3B H -0.3821 0.6046 1.1214
H4B H -0.3182 0.5475 1.0332
C6B C -0.3840(12) 0.6136(8) 0.8272(15)
C5B C -0.4619(12) 0.6441(8) 0.8151(15)
N2B N -0.5008(5) 0.6606(3) 0.6663(18)
C9B C -0.4584(12) 0.6482(8) 0.5113(15)
C8B C -0.3822(13) 0.6073(10) 0.5088(16)
C7B C -0.3447(6) 0.5903(4) 0.6566(18)
H6B H -0.2937 0.5636 0.6562
H7B H -0.3590 0.5925 0.3985
H8B H -0.4798 0.6669 0.4026
H5B H -0.4910 0.6545 0.9231
H2A H -0.1654 1.0056 1.1841
C3A C 0.0127(4) 1.2143(6) 1.1690(19)
O1A O 0.0840(4) 1.2899(6) 1.2435(7)
N1A N -0.0628(5) 1.2230(6) 1.0562(8)
H1A H -0.1142 1.1631 1.0019
C4A C -0.0582(6) 1.3294(8) 1.0265(10)
H3A H -0.0133 1.3821 1.1214
H4A H -0.1343 1.3182 1.0332
C6A C -0.0024(9) 1.3840(12) 0.8272(15)
C5A C 0.1060(9) 1.4619(12) 0.8151(15)
N2A N 0.1614(4) 1.5008(5) 0.6663(18)
C9A C 0.1066(9) 1.4584(12) 0.5113(15)
C8A C -0.0105(9) 1.3822(13) 0.5088(16)
C7A C -0.0650(5) 1.3447(6) 0.6566(18)
H6A H -0.1427 1.2937 0.6562
H7A H -0.0485 1.3590 0.3985
H8A H 0.1467 1.4798 0.4026
H5A H 0.1455 1.4910 0.9231
N2A_2 N 0.1614(4) 0.5008(5) 0.6663(18)
N2B_2 N 0.4992(5) 0.6606(3) 0.6663(18)
N5_2 N 0.3333 0.6667 1.022(5)
Ag1_2 Ag 0.3333 0.6667 -0.3289(3)
Ag1_3 Ag -0.6667 0.6667 0.6711(3)
Ag1_4 Ag 0.3333 1.6667 0.6711(3)
loop_
_geom_bond_atom_site_label_1
_geom_bond_atom_site_label_2
_geom_bond_site_symmetry_1
_geom_bond_site_symmetry_2
Ag1 N2 1_555 1_555
O1 C3 1_555 1_555
N1 H1 1_555 1_555
N2 C5 1_555 1_555
N3 Ag1 1_555 1_555
N4 N3 1_555 1_555
N5 N4 1_555 1_555
C1 C2 1_555 1_555
C2 H2 1_555 1_555
C3 N1 1_555 1_555
C4 N1 1_555 1_555
H3 C4 1_555 1_555
H4 C4 1_555 1_555
C5 H5 1_555 1_555
C6 C4 1_555 1_555
C7 C6 1_555 1_555
H6 C7 1_555 1_555
C8 C7 1_555 1_555
H7 C8 1_555 1_555
C9 N2 1_555 1_555
H8 C9 1_555 1_555
C1A C2 1_555 1_555
C2A C1A 1_555 1_555
C1B C2A 1_555 1_555
C2B C1 1_555 1_555
H2B C2B 1_555 1_555
C3B C1B 1_555 1_555
O1B C3B 1_555 1_555
N1B C3B 1_555 1_555
H1B N1B 1_555 1_555
C4B N1B 1_555 1_555
H3B C4B 1_555 1_555
H4B C4B 1_555 1_555
C6B C4B 1_555 1_555
C5B C6B 1_555 1_555
N2B C5B 1_555 1_555
C9B N2B 1_555 1_555
C8B C9B 1_555 1_555
C7B C6B 1_555 1_555
H6B C7B 1_555 1_555
H7B C8B 1_555 1_555
H8B C9B 1_555 1_555
H5B C5B 1_555 1_555
H2A C2A 1_555 1_555
C3A C1A 1_555 1_555
O1A C3A 1_555 1_555
N1A C3A 1_555 1_555
H1A N1A 1_555 1_555
C4A N1A 1_555 1_555
H3A C4A 1_555 1_555
H4A C4A 1_555 1_555
C6A C4A 1_555 1_555
C5A C6A 1_555 1_555
N2A C5A 1_555 1_555
C9A N2A 1_555 1_555
C8A C9A 1_555 1_555
C7A C6A 1_555 1_555
H6A C7A 1_555 1_555
H7A C8A 1_555 1_555
H8A C9A 1_555 1_555
H5A C5A 1_555 1_555
N2A_2 Ag1 1_555 1_555
N2B_2 Ag1 1_555 1_555
N5_2 Ag1 1_555 1_555
Ag1_2 N5 1_555 1_555
Ag1_3 N2B 1_555 1_555
Ag1_4 N2A 1_555 1_555
C1 C3 1_555 1_555
C5 C6 1_555 1_555
C8 C9 1_555 1_555
C1B C2B 1_555 1_555
C8B C7B 1_555 1_555
C8A C7A 1_555 1_555

#END
