
#######################################################################
#
#                 Cambridge Crystallographic Data Centre
#                                CCDC 
#
#######################################################################
#
# If this CIF has been generated from an entry in the Cambridge 
# Structural Database, then it will include bibliographic, chemical, 
# crystal, experimental, refinement or atomic coordinate data resulting 
# from the CCDC's data processing and validation procedures.
#
#######################################################################

data_ALIRAO01
_symmetry_cell_setting           monoclinic
_symmetry_space_group_name_H-M   'P 21/n'
_symmetry_Int_Tables_number      14
_space_group_name_Hall           '-P 2yn'
loop_
_symmetry_equiv_pos_site_id
_symmetry_equiv_pos_as_xyz
1 x,y,z
2 1/2-x,1/2+y,1/2-z
3 -x,-y,-z
4 1/2+x,1/2-y,1/2+z
_cell_length_a                   10.9072(5)
_cell_length_b                   5.7181(2)
_cell_length_c                   12.6330(5)
_cell_angle_alpha                90
_cell_angle_beta                 108.259(5)
_cell_angle_gamma                90
_cell_volume                     748.23
loop_
_atom_site_label
_atom_site_type_symbol
_atom_site_fract_x
_atom_site_fract_y
_atom_site_fract_z
Mn1 Mn 0.83458(5) 0.22375(9) 0.20580(5)
Mn2 Mn 1.16424(6) 0.27453(9) 0.20252(5)
Mn3 Mn 1.01015(5) -0.24174(8) 0.29964(5)
O1 O 0.7586(2) 0.2175(4) 0.0197(2)
O2 O 0.8347(3) -0.0734(4) 0.3075(2)
H1 H 0.861(4) -0.024(6) 0.3733(19)
O3 O 0.9335(2) 0.4284(4) 0.3594(2)
O4 O 0.9242(2) 0.2337(4) 0.5109(2)
O5 O 0.9179(2) 0.7357(4) -0.0077(2)
O6 O 0.9151(3) 0.5451(4) 0.1471(2)
O7 O 1.0089(2) 0.0468(4) 0.1905(2)
H2 H 0.984(4) -0.025(6) 0.130(2)
O8 O 0.7497(3) 0.4288(4) -0.1315(2)
C1 C 0.7890(4) 0.3884(7) -0.0289(3)
C2 C 0.9588(3) 0.4011(6) 0.4639(3)
C3 C 0.8818(4) 0.5754(6) 0.0419(3)
O9 O 1.1812(3) 0.5635(4) 0.3142(2)
H3 H 1.209(4) 0.504(6) 0.377(2)
Mn1A Mn 0.66542(5) 0.72375(9) 0.29420(5)
Mn1A_2 Mn 0.66542(5) -0.27625(9) 0.29420(5)
Mn1B Mn 1.16542(5) 0.77625(9) 0.79420(5)
Mn1B_2 Mn 1.16542(5) 0.77625(9) -0.20580(5)
Mn2B Mn 0.83576(6) 0.72547(9) -0.20252(5)
Mn2C Mn 0.66424(6) 0.22547(9) -0.29748(5)
Mn2A Mn 1.33576(6) 0.77453(9) 0.29748(5)
Mn2A_2 Mn 1.33576(6) -0.22547(9) 0.29748(5)
Mn2A_3 Mn 0.33576(6) 0.77453(9) 0.29748(5)
Mn3A Mn 0.48985(5) 0.25826(8) 0.20036(5)
Mn3_2 Mn 1.01015(5) 0.75826(8) 0.29964(5)
Mn3B Mn 0.98985(5) 0.24174(8) 0.70036(5)
Mn3B_2 Mn 0.98985(5) 0.24174(8) -0.29964(5)
Mn3A_2 Mn 1.48985(5) 0.25826(8) 0.20036(5)
O1B O 1.2414(2) 0.7825(4) -0.0197(2)
O1A O 0.7414(2) 0.7175(4) 0.4803(2)
O2A O 0.6653(3) 0.4266(4) 0.1925(2)
O2_2 O 0.8347(3) 0.9266(4) 0.3075(2)
H1A H 0.639(4) 0.476(6) 0.1267(19)
H1_2 H 0.861(4) 0.976(6) 0.3733(19)
O3B O 1.0665(2) 0.5716(4) 0.6406(2)
O3_2 O 0.9335(2) -0.5716(4) 0.3594(2)
O3A O 0.5665(2) 0.9284(4) 0.1406(2)
O3A_2 O 0.5665(2) -0.0716(4) 0.1406(2)
O4B O 1.0758(2) 0.7663(4) 0.4891(2)
O4B_2 O 1.0758(2) -0.2337(4) 0.4891(2)
O4C O 0.4242(2) 0.2663(4) 0.0109(2)
O5B O 1.0821(2) 0.2643(4) 0.0077(2)
O6B O 1.0849(3) 0.4549(4) -0.1471(2)
O6_2 O 0.9151(3) -0.4549(4) 0.1471(2)
O6A O 0.5849(3) 1.0451(4) 0.3529(2)
O6A_2 O 0.5849(3) 0.0451(4) 0.3529(2)
O7A O 0.4911(2) 0.5468(4) 0.3095(2)
O7B O 0.9911(2) 0.9532(4) -0.1905(2)
H2A H 0.516(4) 0.475(6) 0.370(2)
H2B H 1.016(4) 1.025(6) -0.130(2)
O8B O 1.2503(3) 0.5712(4) 0.1315(2)
O8C O 1.2497(3) 0.0712(4) 0.3685(2)
O8A O 0.7503(3) 0.9288(4) -0.3685(2)
C1B C 1.2110(4) 0.6116(7) 0.0289(3)
C2B C 1.0412(3) 0.5989(6) 0.5361(3)
C3B C 1.1182(4) 0.4246(6) -0.0419(3)
O9A O 1.3188(3) 0.0635(4) 0.1858(2)
O9_2 O 1.1812(3) -0.4365(4) 0.3142(2)
O9B O 0.8188(3) 0.4365(4) -0.3142(2)
O9C O 0.6812(3) 0.9365(4) -0.1858(2)
O9A_2 O 0.3188(3) 0.0635(4) 0.1858(2)
H3A H 1.291(4) 0.004(6) 0.123(2)
H3_2 H 1.209(4) -0.496(6) 0.377(2)
H3B H 0.791(4) 0.496(6) -0.377(2)
H3C H 0.709(4) 0.996(6) -0.123(2)
H3A_2 H 0.291(4) 0.004(6) 0.123(2)
loop_
_geom_bond_atom_site_label_1
_geom_bond_atom_site_label_2
_geom_bond_site_symmetry_1
_geom_bond_site_symmetry_2
Mn1 O1 1_555 1_555
Mn2 O7 1_555 1_555
Mn3 O2 1_555 1_555
O1 C1 1_555 1_555
O2 Mn1 1_555 1_555
H1 O2 1_555 1_555
O3 Mn1 1_555 1_555
O4 C2 1_555 1_555
O5 C3 1_555 1_555
O6 Mn1 1_555 1_555
O7 Mn1 1_555 1_555
H2 O7 1_555 1_555
O8 C1 1_555 1_555
C1 C3 1_555 1_555
C2 O3 1_555 1_555
C3 O6 1_555 1_555
O9 Mn2 1_555 1_555
H3 O9 1_555 1_555
Mn1A O1A 1_555 1_555
Mn1A_2 O2 1_555 1_555
Mn1B O3B 1_555 1_555
Mn1B_2 O1B 1_555 1_555
Mn2B O5 1_555 1_555
Mn2C O8 1_555 1_555
Mn2A O9 1_555 1_555
Mn2A_2 O8C 1_555 1_555
Mn2A_3 O7A 1_555 1_555
Mn3A O2A 1_555 1_555
Mn3_2 O3 1_555 1_555
Mn3B O4 1_555 1_555
Mn3B_2 O6B 1_555 1_555
Mn3A_2 O9A 1_555 1_555
O1B C1B 1_555 1_555
O2A Mn1 1_555 1_555
O2_2 Mn1A 1_555 1_555
H1A O2A 1_555 1_555
H1_2 O2_2 1_555 1_555
O3B Mn3B 1_555 1_555
O3_2 Mn3 1_555 1_555
O3A Mn1A 1_555 1_555
O3A_2 Mn1A_2 1_555 1_555
O4B Mn3_2 1_555 1_555
O4B_2 Mn3 1_555 1_555
O4C Mn3A 1_555 1_555
O5B Mn2 1_555 1_555
O6B Mn1B_2 1_555 1_555
O6_2 Mn3 1_555 1_555
O6A Mn1A 1_555 1_555
O6A_2 Mn1A_2 1_555 1_555
O7A Mn1A 1_555 1_555
O7B Mn1B_2 1_555 1_555
H2A O7A 1_555 1_555
H2B O7B 1_555 1_555
O8B Mn2 1_555 1_555
O8C Mn2 1_555 1_555
O8A Mn2B 1_555 1_555
C1B O8B 1_555 1_555
C2B C2 1_555 1_555
C3B O5B 1_555 1_555
O9A Mn2 1_555 1_555
O9_2 Mn3 1_555 1_555
O9B Mn2B 1_555 1_555
O9C Mn2B 1_555 1_555
O9A_2 Mn3A 1_555 1_555
H3A O9A 1_555 1_555
H3_2 O9_2 1_555 1_555
H3B O9B 1_555 1_555
H3C O9C 1_555 1_555
H3A_2 O9A_2 1_555 1_555
Mn3 O7 1_555 1_555
O6 Mn3_2 1_555 1_555
O8 Mn2B 1_555 1_555
O9 Mn3_2 1_555 1_555
Mn1A O2A 1_555 1_555
Mn2B O7B 1_555 1_555
Mn2C O9B 1_555 1_555
Mn2A O8B 1_555 1_555
Mn2A_2 O9A 1_555 1_555
Mn2A_2 O9_2 1_555 1_555
Mn3A O3A_2 1_555 1_555
Mn3A O6A_2 1_555 1_555
Mn3A O7A 1_555 1_555
Mn3_2 O2_2 1_555 1_555
Mn3B_2 O9B 1_555 1_555
O3B C2B 1_555 1_555
O4B C2B 1_555 1_555
O6B C3B 1_555 1_555
C1B C3B 1_555 1_555

#END
