
#######################################################################
#
#                 Cambridge Crystallographic Data Centre
#                                CCDC 
#
#######################################################################
#
# If this CIF has been generated from an entry in the Cambridge 
# Structural Database, then it will include bibliographic, chemical, 
# crystal, experimental, refinement or atomic coordinate data resulting 
# from the CCDC's data processing and validation procedures.
#
#######################################################################

data_ALITUL
_symmetry_cell_setting           monoclinic
_symmetry_space_group_name_H-M   'C 2/c'
_symmetry_Int_Tables_number      15
_space_group_name_Hall           '-C 2yn'
loop_
_symmetry_equiv_pos_site_id
_symmetry_equiv_pos_as_xyz
1 x,y,z
2 -x,y,1/2-z
3 1/2+x,1/2+y,z
4 1/2-x,1/2+y,1/2-z
5 -x,-y,-z
6 x,-y,1/2+z
7 1/2-x,1/2-y,-z
8 1/2+x,1/2-y,1/2+z
_cell_length_a                   30.619(6)
_cell_length_b                   4.3818(9)
_cell_length_c                   15.884(3)
_cell_angle_alpha                90
_cell_angle_beta                 110.50(3)
_cell_angle_gamma                90
_cell_volume                     1996.14
loop_
_atom_site_label
_atom_site_type_symbol
_atom_site_fract_x
_atom_site_fract_y
_atom_site_fract_z
Cd1 Cd 0.5000 1.06061(8) 0.2500
N1 N 0.56873(9) 1.0174(6) 0.21820(18)
N2 N 0.64585(9) 0.9948(7) 0.25221(19)
N3 N 0.62375(8) 0.8242(6) 0.17808(17)
C1 C 0.61147(11) 1.1080(9) 0.2739(2)
H1 H 0.6160 1.2373 0.3227
C2 C 0.57823(11) 0.8397(8) 0.1592(2)
H2 H 0.5560 0.7404 0.1114
C3 C 0.64980(12) 0.6399(8) 0.1346(2)
H3 H 0.6279 0.5232 0.0862
H4 H 0.6694 0.4965 0.1780
C4 C 0.67982(10) 0.8295(7) 0.0973(2)
C5 C 0.72760(11) 0.8335(9) 0.1367(2)
H5 H 0.7418 0.7250 0.1896
C6 C 0.75505(12) 0.9966(8) 0.0991(2)
H6 H 0.7873 0.9937 0.1270
C7 C 0.73524(9) 1.1642(7) 0.02062(18)
C8 C 0.68709(10) 1.1623(8) -0.0179(2)
H7 H 0.6727 1.2746 -0.0700
C9 C 0.65990(11) 0.9957(8) 0.0197(2)
H8 H 0.6276 0.9965 -0.0081
I1 I 0.540118(7) 1.53651(5) 0.387999(14)
Cd1_2 Cd 0.5000 2.06061(8) 0.2500
Cd1F Cd 1.0000 1.43939(8) -0.2500
N1F N 0.93127(9) 1.4826(6) -0.21820(18)
N1A N 0.43127(9) 1.0174(6) 0.28180(18)
N2F N 0.85415(9) 1.5052(7) -0.25221(19)
N3F N 0.87625(8) 1.6758(6) -0.17808(17)
C1F C 0.88853(11) 1.3920(9) -0.2739(2)
H1F H 0.8840 1.2627 -0.3227
C2F C 0.92177(11) 1.6603(8) -0.1592(2)
H2F H 0.9440 1.7596 -0.1114
C3F C 0.85020(12) 1.8601(8) -0.1346(2)
H3F H 0.8721 1.9768 -0.0862
H4F H 0.8306 2.0035 -0.1780
C4F C 0.82018(10) 1.6705(7) -0.0973(2)
C5F C 0.77240(11) 1.6665(9) -0.1367(2)
H5F H 0.7582 1.7750 -0.1896
C6F C 0.74495(12) 1.5034(8) -0.0991(2)
H6F H 0.7127 1.5063 -0.1270
C7F C 0.76476(9) 1.3358(7) -0.02062(18)
C8F C 0.81291(10) 1.3377(8) 0.0179(2)
H7F H 0.8273 1.2254 0.0700
C9F C 0.84010(11) 1.5043(8) -0.0197(2)
H8F H 0.8724 1.5035 0.0081
I1A I 0.459882(7) 1.53651(5) 0.112001(14)
I1_2 I 0.540118(7) 0.53651(5) 0.387999(14)
I1A_2 I 0.459882(7) 0.53651(5) 0.112001(14)
loop_
_geom_bond_atom_site_label_1
_geom_bond_atom_site_label_2
_geom_bond_site_symmetry_1
_geom_bond_site_symmetry_2
Cd1 N1 1_555 1_555
N1 C1 1_555 1_555
N2 N3 1_555 1_555
N3 C2 1_555 1_555
C1 N2 1_555 1_555
H1 C1 1_555 1_555
C2 N1 1_555 1_555
H2 C2 1_555 1_555
C3 N3 1_555 1_555
H3 C3 1_555 1_555
H4 C3 1_555 1_555
C4 C3 1_555 1_555
C5 C4 1_555 1_555
H5 C5 1_555 1_555
C6 C5 1_555 1_555
H6 C6 1_555 1_555
C7 C6 1_555 1_555
C8 C7 1_555 1_555
H7 C8 1_555 1_555
C9 C4 1_555 1_555
H8 C9 1_555 1_555
I1 Cd1 1_555 1_555
Cd1_2 I1 1_555 1_555
Cd1F N1F 1_555 1_555
N1F C1F 1_555 1_555
N1A Cd1 1_555 1_555
N2F N3F 1_555 1_555
N3F C2F 1_555 1_555
C1F N2F 1_555 1_555
H1F C1F 1_555 1_555
C2F N1F 1_555 1_555
H2F C2F 1_555 1_555
C3F N3F 1_555 1_555
H3F C3F 1_555 1_555
H4F C3F 1_555 1_555
C4F C3F 1_555 1_555
C5F C4F 1_555 1_555
H5F C5F 1_555 1_555
C6F C5F 1_555 1_555
H6F C6F 1_555 1_555
C7F C7 1_555 1_555
C8F C7F 1_555 1_555
H7F C8F 1_555 1_555
C9F C4F 1_555 1_555
H8F C9F 1_555 1_555
I1A Cd1 1_555 1_555
I1_2 Cd1 1_555 1_555
I1A_2 Cd1 1_555 1_555
C8 C9 1_555 1_555
Cd1_2 I1A 1_555 1_555
C6F C7F 1_555 1_555
C8F C9F 1_555 1_555

#END
