
#######################################################################
#
#                 Cambridge Crystallographic Data Centre
#                                CCDC 
#
#######################################################################
#
# If this CIF has been generated from an entry in the Cambridge 
# Structural Database, then it will include bibliographic, chemical, 
# crystal, experimental, refinement or atomic coordinate data resulting 
# from the CCDC's data processing and validation procedures.
#
#######################################################################

data_ALIVUN
_symmetry_cell_setting           monoclinic
_symmetry_space_group_name_H-M   'P 21/c'
_symmetry_Int_Tables_number      14
_space_group_name_Hall           '-P 2ybc'
loop_
_symmetry_equiv_pos_site_id
_symmetry_equiv_pos_as_xyz
1 x,y,z
2 -x,1/2+y,1/2-z
3 -x,-y,-z
4 x,1/2-y,1/2+z
_cell_length_a                   14.460(3)
_cell_length_b                   5.9959(12)
_cell_length_c                   12.025(2)
_cell_angle_alpha                90
_cell_angle_beta                 95.47(3)
_cell_angle_gamma                90
_cell_volume                     1037.83
loop_
_atom_site_label
_atom_site_type_symbol
_atom_site_fract_x
_atom_site_fract_y
_atom_site_fract_z
Cd1 Cd 0.0000 0.5000 1.0000
Cl1 Cl -0.09307(7) 0.71985(17) 0.83610(8)
O1 O -0.0003(3) 0.8164(5) 1.1103(3)
H1 H 0.0386 0.9149 1.1170
H2 H -0.0174 0.8049 1.1725
N1 N 0.1374(2) 0.5868(6) 0.9285(3)
N2 N 0.2867(3) 0.5543(9) 0.9007(4)
N3 N 0.2473(2) 0.7255(6) 0.8385(3)
C1 C 0.1584(2) 0.7389(7) 0.8563(3)
H3 H 0.1166 0.8419 0.8224
C2 C 0.2188(3) 0.4796(10) 0.9543(4)
H4 H 0.2258 0.3633 1.0056
C3 C 0.2997(3) 0.8742(8) 0.7709(4)
H5 H 0.3400 0.9676 0.8203
H6 H 0.2564 0.9711 0.7274
C4 C 0.3579(3) 0.7534(7) 0.6926(3)
C5 C 0.3334(3) 0.5526(8) 0.6424(4)
H7 H 0.2790 0.4822 0.6588
C6 C 0.3882(3) 0.4541(8) 0.5678(4)
H8 H 0.3700 0.3183 0.5353
C7 C 0.4703(2) 0.5534(7) 0.5405(3)
C8 C 0.4951(3) 0.7553(7) 0.5922(3)
H9 H 0.5495 0.8265 0.5760
C9 C 0.4403(3) 0.8514(7) 0.6675(3)
H10 H 0.4591 0.9848 0.7020
Cd1_2 Cd 1.0000 0.5000 0.0000
Cl1B Cl 0.09307(7) 0.28015(17) 1.16390(8)
O1B O 0.0003(3) 0.1836(5) 0.8897(3)
H1B H -0.0386 0.0851 0.8830
H2B H 0.0174 0.1951 0.8275
N1B N 0.8626(2) 0.4132(6) 0.0715(3)
N1B_2 N -0.1374(2) 0.4132(6) 1.0715(3)
N2B N 0.7133(3) 0.4457(9) 0.0993(4)
N3B N 0.7527(2) 0.2745(6) 0.1615(3)
C1B C 0.8416(2) 0.2611(7) 0.1437(3)
H3B H 0.8834 0.1581 0.1776
C2B C 0.7812(3) 0.5204(10) 0.0457(4)
H4B H 0.7742 0.6367 -0.0056
C3B C 0.7003(3) 0.1258(8) 0.2291(4)
H5B H 0.6600 0.0324 0.1797
H6B H 0.7436 0.0289 0.2726
C4B C 0.6421(3) 0.2466(7) 0.3074(3)
C5B C 0.6666(3) 0.4474(8) 0.3576(4)
H7B H 0.7210 0.5178 0.3412
C6B C 0.6118(3) 0.5459(8) 0.4322(4)
H8B H 0.6300 0.6817 0.4647
C7B C 0.5297(2) 0.4466(7) 0.4595(3)
C8B C 0.5049(3) 0.2447(7) 0.4078(3)
H9B H 0.4505 0.1735 0.4240
C9B C 0.5597(3) 0.1486(7) 0.3325(3)
H10B H 0.5409 0.0152 0.2980
loop_
_geom_bond_atom_site_label_1
_geom_bond_atom_site_label_2
_geom_bond_site_symmetry_1
_geom_bond_site_symmetry_2
Cd1 Cl1 1_555 1_555
O1 Cd1 1_555 1_555
H1 O1 1_555 1_555
H2 O1 1_555 1_555
N1 Cd1 1_555 1_555
N2 N3 1_555 1_555
N3 C1 1_555 1_555
C1 N1 1_555 1_555
H3 C1 1_555 1_555
C2 N1 1_555 1_555
H4 C2 1_555 1_555
C3 N3 1_555 1_555
H5 C3 1_555 1_555
H6 C3 1_555 1_555
C4 C3 1_555 1_555
C5 C4 1_555 1_555
H7 C5 1_555 1_555
C6 C5 1_555 1_555
H8 C6 1_555 1_555
C7 C6 1_555 1_555
C8 C7 1_555 1_555
H9 C8 1_555 1_555
C9 C4 1_555 1_555
H10 C9 1_555 1_555
Cd1_2 N1B 1_555 1_555
Cl1B Cd1 1_555 1_555
O1B Cd1 1_555 1_555
H1B O1B 1_555 1_555
H2B O1B 1_555 1_555
N1B C1B 1_555 1_555
N1B_2 Cd1 1_555 1_555
N2B N3B 1_555 1_555
N3B C1B 1_555 1_555
C1B H3B 1_555 1_555
C2B N1B 1_555 1_555
H4B C2B 1_555 1_555
C3B N3B 1_555 1_555
H5B C3B 1_555 1_555
H6B C3B 1_555 1_555
C4B C3B 1_555 1_555
C5B C4B 1_555 1_555
H7B C5B 1_555 1_555
C6B C5B 1_555 1_555
H8B C6B 1_555 1_555
C7B C7 1_555 1_555
C8B C7B 1_555 1_555
H9B C8B 1_555 1_555
C9B C4B 1_555 1_555
H10B C9B 1_555 1_555
N2 C2 1_555 1_555
C8 C9 1_555 1_555
N2B C2B 1_555 1_555
C6B C7B 1_555 1_555
C8B C9B 1_555 1_555

#END
