
#######################################################################
#
#                 Cambridge Crystallographic Data Centre
#                                CCDC 
#
#######################################################################
#
# If this CIF has been generated from an entry in the Cambridge 
# Structural Database, then it will include bibliographic, chemical, 
# crystal, experimental, refinement or atomic coordinate data resulting 
# from the CCDC's data processing and validation procedures.
#
#######################################################################

data_ALIVEX
_symmetry_cell_setting           monoclinic
_symmetry_space_group_name_H-M   'C 2/m'
_symmetry_Int_Tables_number      12
_space_group_name_Hall           '-C 2y'
loop_
_symmetry_equiv_pos_site_id
_symmetry_equiv_pos_as_xyz
1 x,y,z
2 -x,y,-z
3 1/2+x,1/2+y,z
4 1/2-x,1/2+y,-z
5 -x,-y,-z
6 x,-y,z
7 1/2-x,1/2-y,-z
8 1/2+x,1/2-y,z
_cell_length_a                   9.4362(19)
_cell_length_b                   16.566(3)
_cell_length_c                   14.281(3)
_cell_angle_alpha                90
_cell_angle_beta                 93.71(3)
_cell_angle_gamma                90
_cell_volume                     2227.73
loop_
_atom_site_label
_atom_site_type_symbol
_atom_site_fract_x
_atom_site_fract_y
_atom_site_fract_z
Cd1 Cd 0.0000 0.0000 0.0000
N1 N 0.1309(4) 0.10702(19) 0.0749(3)
N2 N 0.2920(4) 0.2022(3) 0.1145(3)
N3 N 0.1682(4) 0.2178(2) 0.1545(3)
N4 N -0.1606(7) 0.0000 0.1152(4)
S1 S -0.4442(2) 0.0000 0.1454(2)
C1 C 0.2639(5) 0.1356(3) 0.0676(3)
H1 H 0.3301 0.1100 0.0322
C2 C 0.0750(5) 0.1606(3) 0.1297(3)
H2 H -0.0174 0.1586 0.1485
C3 C 0.1523(6) 0.2879(3) 0.2134(4)
H3 H 0.0566 0.2887 0.2346
H4 H 0.1649 0.3362 0.1766
C4 C 0.2574(5) 0.2890(3) 0.2981(3)
C5 C 0.2841(6) 0.2194(3) 0.3515(4)
H5 H 0.2374 0.1717 0.3343
C6 C 0.3782(7) 0.2202(3) 0.4291(4)
H6 H 0.3946 0.1727 0.4629
C7 C 0.4494(5) 0.2904(2) 0.4583(3)
C8 C 0.4192(5) 0.3596(3) 0.4062(3)
H7 H 0.4627 0.4080 0.4245
C9 C 0.3253(6) 0.3584(3) 0.3272(3)
H8 H 0.3083 0.4057 0.2934
C10 C -0.2786(9) 0.0000 0.1278(4)
Cd1_2 Cd 1.0000 0.0000 1.0000
Cd1_3 Cd -1.0000 0.0000 -1.0000
N1A N 0.8691(4) 0.10702(19) 0.9251(3)
N1A_2 N -0.1309(4) 0.10702(19) -0.0749(3)
N1_2 N -0.8691(4) 0.10702(19) -0.9251(3)
N1E N 0.1309(4) -0.10702(19) 0.0749(3)
N1D N -0.1309(4) -0.10702(19) -0.0749(3)
N2A N 0.7080(4) 0.2022(3) 0.8855(3)
N2A_2 N -0.2920(4) 0.2022(3) -0.1145(3)
N2_2 N -0.7080(4) 0.2022(3) -0.8855(3)
N3A N 0.8318(4) 0.2178(2) 0.8455(3)
N3A_2 N -0.1682(4) 0.2178(2) -0.1545(3)
N3_2 N -0.8318(4) 0.2178(2) -0.8455(3)
N4A N 0.1606(7) 0.0000 -0.1152(4)
S1A S 0.4442(2) 0.0000 -0.1454(2)
C1A C 0.7361(5) 0.1356(3) 0.9324(3)
C1A_2 C -0.2639(5) 0.1356(3) -0.0676(3)
C1_2 C -0.7361(5) 0.1356(3) -0.9324(3)
H1A H 0.6699 0.1100 0.9678
H1A_2 H -0.3301 0.1100 -0.0322
H1_2 H -0.6699 0.1100 -0.9678
C2A C 0.9250(5) 0.1606(3) 0.8703(3)
C2A_2 C -0.0750(5) 0.1606(3) -0.1297(3)
C2_2 C -0.9250(5) 0.1606(3) -0.8703(3)
H2A H 1.0174 0.1586 0.8515
H2A_2 H 0.0174 0.1586 -0.1485
H2_2 H -1.0174 0.1586 -0.8515
C3A C 0.8477(6) 0.2879(3) 0.7866(4)
C3A_2 C -0.1523(6) 0.2879(3) -0.2134(4)
C3_2 C -0.8477(6) 0.2879(3) -0.7866(4)
H3A H 0.9434 0.2887 0.7654
H3A_2 H -0.0566 0.2887 -0.2346
H3_2 H -0.9434 0.2887 -0.7654
H4A H 0.8351 0.3362 0.8234
H4A_2 H -0.1649 0.3362 -0.1766
H4_2 H -0.8351 0.3362 -0.8234
C4A C 0.7426(5) 0.2890(3) 0.7019(3)
C4A_2 C -0.2574(5) 0.2890(3) -0.2981(3)
C4_2 C -0.7426(5) 0.2890(3) -0.7019(3)
C5A C 0.7159(6) 0.2194(3) 0.6485(4)
C5A_2 C -0.2841(6) 0.2194(3) -0.3515(4)
C5_2 C -0.7159(6) 0.2194(3) -0.6485(4)
H5A H 0.7626 0.1717 0.6657
H5A_2 H -0.2374 0.1717 -0.3343
H5_2 H -0.7626 0.1717 -0.6657
C6A C 0.6218(7) 0.2202(3) 0.5709(4)
C6A_2 C -0.3782(7) 0.2202(3) -0.4291(4)
C6_2 C -0.6218(7) 0.2202(3) -0.5709(4)
H6A H 0.6054 0.1727 0.5371
H6A_2 H -0.3946 0.1727 -0.4629
H6_2 H -0.6054 0.1727 -0.5371
C7A C 0.5506(5) 0.2904(2) 0.5417(3)
C7A_2 C -0.4494(5) 0.2904(2) -0.4583(3)
C7_2 C -0.5506(5) 0.2904(2) -0.5417(3)
C8A C 0.5808(5) 0.3596(3) 0.5938(3)
C8A_2 C -0.4192(5) 0.3596(3) -0.4062(3)
C8_2 C -0.5808(5) 0.3596(3) -0.5938(3)
H7A H 0.5373 0.4080 0.5755
H7A_2 H -0.4627 0.4080 -0.4245
H7_2 H -0.5373 0.4080 -0.5755
C9A C 0.6747(6) 0.3584(3) 0.6728(3)
C9A_2 C -0.3253(6) 0.3584(3) -0.3272(3)
C9_2 C -0.6747(6) 0.3584(3) -0.6728(3)
H8A H 0.6917 0.4057 0.7066
H8A_2 H -0.3083 0.4057 -0.2934
H8_2 H -0.6917 0.4057 -0.7066
C10A C 0.2786(9) 0.0000 -0.1278(4)
O1 O 0.7853(19) 0.0000 0.649(3)
O2 O 0.5000 0.0000 0.5000
loop_
_geom_bond_atom_site_label_1
_geom_bond_atom_site_label_2
_geom_bond_site_symmetry_1
_geom_bond_site_symmetry_2
Cd1 N1 1_555 1_555
N1 C1 1_555 1_555
N2 N3 1_555 1_555
N3 C2 1_555 1_555
N4 Cd1 1_555 1_555
S1 C10 1_555 1_555
C1 N2 1_555 1_555
H1 C1 1_555 1_555
C2 N1 1_555 1_555
H2 C2 1_555 1_555
C3 N3 1_555 1_555
H3 C3 1_555 1_555
H4 C3 1_555 1_555
C4 C3 1_555 1_555
C5 C4 1_555 1_555
H5 C5 1_555 1_555
C6 C5 1_555 1_555
H6 C6 1_555 1_555
C7 C6 1_555 1_555
C8 C7 1_555 1_555
H7 C8 1_555 1_555
C9 C4 1_555 1_555
H8 C9 1_555 1_555
C10 N4 1_555 1_555
Cd1_2 N1A 1_555 1_555
Cd1_3 N1_2 1_555 1_555
N1A C1A 1_555 1_555
N1A_2 Cd1 1_555 1_555
N1_2 C1_2 1_555 1_555
N1E Cd1 1_555 1_555
N1D Cd1 1_555 1_555
N2A N3A 1_555 1_555
N2A_2 N3A_2 1_555 1_555
N2_2 N3_2 1_555 1_555
N3A C2A 1_555 1_555
N3A_2 C2A_2 1_555 1_555
N3_2 C2_2 1_555 1_555
N4A Cd1 1_555 1_555
S1A C10A 1_555 1_555
C1A N2A 1_555 1_555
C1A_2 N1A_2 1_555 1_555
C1_2 N2_2 1_555 1_555
H1A C1A 1_555 1_555
H1A_2 C1A_2 1_555 1_555
H1_2 C1_2 1_555 1_555
C2A N1A 1_555 1_555
C2A_2 N1A_2 1_555 1_555
C2_2 N1_2 1_555 1_555
H2A C2A 1_555 1_555
H2A_2 C2A_2 1_555 1_555
H2_2 C2_2 1_555 1_555
C3A N3A 1_555 1_555
C3A_2 N3A_2 1_555 1_555
C3_2 N3_2 1_555 1_555
H3A C3A 1_555 1_555
H3A_2 C3A_2 1_555 1_555
H3_2 C3_2 1_555 1_555
H4A C3A 1_555 1_555
H4A_2 C3A_2 1_555 1_555
H4_2 C3_2 1_555 1_555
C4A C3A 1_555 1_555
C4A_2 C3A_2 1_555 1_555
C4_2 C3_2 1_555 1_555
C5A C4A 1_555 1_555
C5A_2 C4A_2 1_555 1_555
C5_2 C4_2 1_555 1_555
H5A C5A 1_555 1_555
H5A_2 C5A_2 1_555 1_555
H5_2 C5_2 1_555 1_555
C6A C5A 1_555 1_555
C6A_2 C5A_2 1_555 1_555
C6_2 C5_2 1_555 1_555
H6A C6A 1_555 1_555
H6A_2 C6A_2 1_555 1_555
H6_2 C6_2 1_555 1_555
C7A C7 1_555 1_555
C7A_2 C6A_2 1_555 1_555
C7_2 C6_2 1_555 1_555
C8A C7A 1_555 1_555
C8A_2 C7A_2 1_555 1_555
C8_2 C7_2 1_555 1_555
H7A C8A 1_555 1_555
H7A_2 C8A_2 1_555 1_555
H7_2 C8_2 1_555 1_555
C9A C4A 1_555 1_555
C9A_2 C4A_2 1_555 1_555
C9_2 C4_2 1_555 1_555
H8A C9A 1_555 1_555
H8A_2 C9A_2 1_555 1_555
H8_2 C9_2 1_555 1_555
C10A N4A 1_555 1_555
C8 C9 1_555 1_555
N2A_2 C1A_2 1_555 1_555
C6A C7A 1_555 1_555
C7A_2 C7_2 1_555 1_555
C8A C9A 1_555 1_555
C8A_2 C9A_2 1_555 1_555
C8_2 C9_2 1_555 1_555

#END
