
#######################################################################
#
#                 Cambridge Crystallographic Data Centre
#                                CCDC 
#
#######################################################################
#
# If this CIF has been generated from an entry in the Cambridge 
# Structural Database, then it will include bibliographic, chemical, 
# crystal, experimental, refinement or atomic coordinate data resulting 
# from the CCDC's data processing and validation procedures.
#
#######################################################################

data_ALIVIB
_symmetry_cell_setting           monoclinic
_symmetry_space_group_name_H-M   'P 21/n'
_symmetry_Int_Tables_number      14
_space_group_name_Hall           '-P 2yn'
loop_
_symmetry_equiv_pos_site_id
_symmetry_equiv_pos_as_xyz
1 x,y,z
2 1/2-x,1/2+y,1/2-z
3 -x,-y,-z
4 1/2+x,1/2-y,1/2+z
_cell_length_a                   10.934(2)
_cell_length_b                   8.1890(16)
_cell_length_c                   29.232(6)
_cell_angle_alpha                90
_cell_angle_beta                 93.33(3)
_cell_angle_gamma                90
_cell_volume                     2612.97
loop_
_atom_site_label
_atom_site_type_symbol
_atom_site_fract_x
_atom_site_fract_y
_atom_site_fract_z
O1 O 0.2621(2) 1.3196(3) 0.27957(10)
O2 O 0.5961(2) 1.5668(3) 0.23491(9)
Cd1 Cd 0.44109(2) 1.35842(3) 0.240245(8)
N1 N 0.6818(2) 1.1397(3) 0.35263(9)
O3 O 0.4361(2) 1.6212(3) 0.27310(9)
N2 N 0.6749(2) 0.1051(3) 0.62220(9)
O4 O 0.3846(2) 1.0813(3) 0.21023(9)
C1 C 0.7151(3) 0.1406(4) 0.66432(12)
H1 H 0.6768 0.2119 0.6837
N3 N 0.5464(3) 1.2530(3) 0.30511(9)
C2 C 0.7191(3) 0.8420(4) 0.48158(12)
H2 H 0.7041 0.8696 0.5116
N4 N 0.8179(3) 0.0605(4) 0.67525(10)
C3 C 0.6857(3) 0.5473(4) 0.50101(11)
C4 C 0.7433(3) 0.6432(4) 0.42347(12)
H3 H 0.7445 0.5349 0.4139
C5 C 0.6556(3) 1.1847(4) 0.30960(11)
H4 H 0.7074 1.1700 0.2858
O5 O 0.5562(2) 1.1985(3) 0.19372(9)
C6 C 0.7048(3) 0.5678(5) 0.54827(12)
H5 H 0.7420 0.6625 0.5598
C7 C 0.5967(3) 0.2838(4) 0.51545(12)
H6 H 0.5611 0.1879 0.5041
C8 C 0.4815(4) 1.0830(5) 0.18943(13)
N5 N 0.7521(3) -0.0011(4) 0.60312(10)
N6 N 0.5858(3) 1.1781(4) 0.37816(11)
C9 C 0.7167(3) 0.6782(4) 0.46836(11)
C10 C 0.7675(3) 0.9280(4) 0.40567(11)
C11 C 0.7435(3) 0.9635(4) 0.45065(12)
H7 H 0.7439 1.0718 0.4602
C12 C 0.8354(3) -0.0238(4) 0.63656(13)
H8 H 0.9020 -0.0931 0.6338
C13 C 0.6318(3) 0.4029(4) 0.48530(12)
H9 H 0.6192 0.3858 0.4539
C14 C 0.7941(3) 1.0630(5) 0.37269(12)
H10 H 0.8440 1.1454 0.3886
H11 H 0.8407 1.0190 0.3483
C15 C 0.5071(4) 1.2439(5) 0.34797(13)
H12 H 0.4305 1.2813 0.3555
C16 C 0.6137(3) 0.3054(4) 0.56212(12)
C17 C 0.7680(3) 0.7657(5) 0.39259(12)
H13 H 0.7852 0.7384 0.3628
C18 C 0.5411(3) 1.6575(4) 0.26072(12)
C19 C 0.5721(3) 0.1776(5) 0.59517(13)
H14 H 0.5162 0.2273 0.6157
H15 H 0.5281 0.0923 0.5781
C20 C 0.6688(3) 0.4479(5) 0.57806(12)
H16 H 0.6820 0.4637 0.6095
C21 C 0.5981(4) 1.8141(5) 0.27695(15)
H17 H 0.5979 1.8901 0.2520
H18 H 0.6809 1.7943 0.2883
H19 H 0.5521 1.8586 0.3010
C22 C 0.5083(5) 0.9432(5) 0.15795(16)
H20 H 0.4769 0.8437 0.1700
H21 H 0.5953 0.9337 0.1557
H22 H 0.4699 0.9634 0.1281
H23 H 0.218(3) 1.249(4) 0.2657(14)
H24 H 0.219(3) 1.404(3) 0.2836(15)
Cd1C Cd 0.94109(2) 0.14158(3) 0.740245(8)
N4C N 0.3179(3) 1.4395(4) 0.17525(10)
C23 C 0.9446(4) 0.2426(7) 0.53396(16)
H25 H 0.8597 0.2658 0.5376
H26 H 0.9944 0.3165 0.5525
H27 H 0.9622 0.1324 0.5434
C24 C 0.9711(4) 0.2625(7) 0.4865(2)
N7 N 0.9897(5) 0.2764(8) 0.44985(17)
loop_
_geom_bond_atom_site_label_1
_geom_bond_atom_site_label_2
_geom_bond_site_symmetry_1
_geom_bond_site_symmetry_2
O1 Cd1 1_555 1_555
O2 Cd1 1_555 1_555
Cd1 O3 1_555 1_555
N1 C5 1_555 1_555
O3 C18 1_555 1_555
N2 C1 1_555 1_555
O4 Cd1 1_555 1_555
C1 H1 1_555 1_555
N3 Cd1 1_555 1_555
C2 H2 1_555 1_555
N4 C1 1_555 1_555
C3 C6 1_555 1_555
C4 H3 1_555 1_555
C5 N3 1_555 1_555
H4 C5 1_555 1_555
O5 Cd1 1_555 1_555
C6 H5 1_555 1_555
C7 H6 1_555 1_555
C8 O4 1_555 1_555
N5 N2 1_555 1_555
N6 N1 1_555 1_555
C9 C2 1_555 1_555
C10 C11 1_555 1_555
C11 C2 1_555 1_555
H7 C11 1_555 1_555
C12 N4 1_555 1_555
H8 C12 1_555 1_555
C13 C3 1_555 1_555
H9 C13 1_555 1_555
C14 N1 1_555 1_555
H10 C14 1_555 1_555
H11 C14 1_555 1_555
C15 N3 1_555 1_555
H12 C15 1_555 1_555
C16 C7 1_555 1_555
C17 C4 1_555 1_555
H13 C17 1_555 1_555
C18 O2 1_555 1_555
C19 N2 1_555 1_555
H14 C19 1_555 1_555
H15 C19 1_555 1_555
C20 C6 1_555 1_555
H16 C20 1_555 1_555
C21 C18 1_555 1_555
H17 C21 1_555 1_555
H18 C21 1_555 1_555
H19 C21 1_555 1_555
C22 C8 1_555 1_555
H20 C22 1_555 1_555
H21 C22 1_555 1_555
H22 C22 1_555 1_555
H23 O1 1_555 1_555
H24 O1 1_555 1_555
C23 H25 1_555 1_555
H26 C23 1_555 1_555
H27 C23 1_555 1_555
C24 C23 1_555 1_555
N7 C24 1_555 1_555
Cd1C N4 1_555 1_555
N4C Cd1 1_555 1_555
C3 C9 1_555 1_555
C4 C9 1_555 1_555
O5 C8 1_555 1_555
C7 C13 1_555 1_555
N5 C12 1_555 1_555
N6 C15 1_555 1_555
C10 C14 1_555 1_555
C10 C17 1_555 1_555
C16 C19 1_555 1_555
C16 C20 1_555 1_555

#END
