
#######################################################################
#
#                 Cambridge Crystallographic Data Centre
#                                CCDC 
#
#######################################################################
#
# If this CIF has been generated from an entry in the Cambridge 
# Structural Database, then it will include bibliographic, chemical, 
# crystal, experimental, refinement or atomic coordinate data resulting 
# from the CCDC's data processing and validation procedures.
#
#######################################################################

data_ALIVOH
_symmetry_cell_setting           triclinic
_symmetry_space_group_name_H-M   'P -1'
_symmetry_Int_Tables_number      2
_space_group_name_Hall           '-P 1'
loop_
_symmetry_equiv_pos_site_id
_symmetry_equiv_pos_as_xyz
1 x,y,z
2 -x,-y,-z
_cell_length_a                   7.6543(15)
_cell_length_b                   9.0234(18)
_cell_length_c                   15.201(3)
_cell_angle_alpha                88.05(3)
_cell_angle_beta                 80.77(3)
_cell_angle_gamma                69.03(3)
_cell_volume                     967.358
loop_
_atom_site_label
_atom_site_type_symbol
_atom_site_fract_x
_atom_site_fract_y
_atom_site_fract_z
N1 N -0.2351(5) 0.2107(4) 0.4355(2)
Cd1 Cd 0.0000 0.0000 0.5000
I1 I -0.14566(4) -0.23587(4) 0.43876(2)
N2 N 0.2135(5) -0.0389(4) 0.3661(2)
N3 N 0.4483(6) -0.1470(5) 0.2612(3)
N4 N 0.3297(8) -0.0193(7) 0.2260(3)
N5 N -0.4789(5) 0.3423(4) 0.3720(2)
N6 N -0.3952(6) 0.4491(5) 0.3834(3)
C1 C 0.1947(8) 0.0411(7) 0.2934(3)
H1 H 0.0926 0.1346 0.2895
C2 C 0.3743(7) -0.1568(6) 0.3447(3)
H2 H 0.4288 -0.2364 0.3831
C3 C 0.6204(9) -0.2612(7) 0.2096(4)
H3 H 0.5852 -0.3318 0.1753
H4 H 0.7012 -0.3251 0.2503
C4 C 0.7292(8) -0.1795(6) 0.1473(4)
C5 C 0.7156(13) -0.1684(12) 0.0591(4)
H5 H 0.6339 -0.2079 0.0370
C6 C 0.8231(12) -0.0981(11) 0.0011(4)
H6 H 0.8129 -0.0933 -0.0592
C7 C 0.9420(7) -0.0367(6) 0.0305(3)
C8 C 0.9509(8) -0.0470(7) 0.1208(3)
H7 H 1.0313 -0.0069 0.1435
C9 C 0.8443(9) -0.1148(7) 0.1776(3)
H8 H 0.8510 -0.1165 0.2382
C10 C -0.2522(8) 0.3646(6) 0.4229(3)
H9 H -0.1689 0.4070 0.4409
C11 C -0.3820(6) 0.2026(5) 0.4032(3)
H10 H -0.4130 0.1121 0.4023
C12 C -0.6465(7) 0.3889(7) 0.3278(3)
H11 H -0.7417 0.4839 0.3572
H12 H -0.6990 0.3052 0.3339
C13 C -0.6022(7) 0.4201(6) 0.2304(3)
C14 C -0.7208(10) 0.5406(9) 0.1917(4)
H13 H -0.8323 0.6058 0.2260
C15 C -0.6843(10) 0.5725(10) 0.1026(4)
H14 H -0.7724 0.6574 0.0786
C16 C -0.5231(8) 0.4831(6) 0.0488(3)
C17 C -0.4013(10) 0.3612(7) 0.0886(4)
H15 H -0.2889 0.2964 0.0548
C18 C -0.4400(10) 0.3312(7) 0.1777(4)
H16 H -0.3520 0.2473 0.2025
N1A N -0.7649(5) 0.7893(4) -0.4355(2)
N1A_2 N 0.2351(5) -0.2107(4) 0.5645(2)
Cd1_2 Cd -1.0000 1.0000 -0.5000
Cd1_3 Cd 2.0000 0.0000 -0.5000
I1A I 0.14566(4) 0.23587(4) 0.56124(2)
N2A N 1.7865(5) 0.0389(4) -0.3661(2)
N2A_2 N -0.2135(5) 0.0389(4) 0.6339(2)
N3A N 1.5517(6) 0.1470(5) -0.2612(3)
N4A N 1.6703(8) 0.0193(7) -0.2260(3)
N5A N -0.5211(5) 0.6577(4) -0.3720(2)
N6A N -0.6048(6) 0.5509(5) -0.3834(3)
C1A C 1.8053(8) -0.0411(7) -0.2934(3)
H1A H 1.9074 -0.1346 -0.2895
C2A C 1.6257(7) 0.1568(6) -0.3447(3)
H2A H 1.5712 0.2364 -0.3831
C3A C 1.3796(9) 0.2612(7) -0.2096(4)
H3A H 1.4148 0.3318 -0.1753
H4A H 1.2988 0.3251 -0.2503
C4A C 1.2708(8) 0.1795(6) -0.1473(4)
C5A C 1.2844(13) 0.1684(12) -0.0591(4)
H5A H 1.3661 0.2079 -0.0370
C6A C 1.1769(12) 0.0981(11) -0.0011(4)
H6A H 1.1871 0.0933 0.0592
C7A C 1.0580(7) 0.0367(6) -0.0305(3)
C8A C 1.0491(8) 0.0470(7) -0.1208(3)
H7A H 0.9687 0.0069 -0.1435
C9A C 1.1557(9) 0.1148(7) -0.1776(3)
H8A H 1.1490 0.1165 -0.2382
C10A C -0.7478(8) 0.6354(6) -0.4229(3)
H9A H -0.8311 0.5930 -0.4409
C11A C -0.6180(6) 0.7974(5) -0.4032(3)
H10A H -0.5870 0.8879 -0.4023
C12A C -0.3535(7) 0.6111(7) -0.3278(3)
H11A H -0.2583 0.5161 -0.3572
H12A H -0.3010 0.6948 -0.3339
C13A C -0.3978(7) 0.5799(6) -0.2304(3)
C14A C -0.2792(10) 0.4594(9) -0.1917(4)
H13A H -0.1677 0.3942 -0.2260
C15A C -0.3157(10) 0.4275(10) -0.1026(4)
H14A H -0.2276 0.3426 -0.0786
C16A C -0.4769(8) 0.5169(6) -0.0488(3)
C17A C -0.5987(10) 0.6388(7) -0.0886(4)
H15A H -0.7111 0.7036 -0.0548
C18A C -0.5600(10) 0.6688(7) -0.1777(4)
H16A H -0.6480 0.7527 -0.2025
loop_
_geom_bond_atom_site_label_1
_geom_bond_atom_site_label_2
_geom_bond_site_symmetry_1
_geom_bond_site_symmetry_2
N1 Cd1 1_555 1_555
Cd1 I1 1_555 1_555
N2 Cd1 1_555 1_555
N3 N4 1_555 1_555
N4 C1 1_555 1_555
N5 N6 1_555 1_555
N6 C10 1_555 1_555
C1 N2 1_555 1_555
H1 C1 1_555 1_555
C2 N2 1_555 1_555
H2 C2 1_555 1_555
C3 N3 1_555 1_555
H3 C3 1_555 1_555
H4 C3 1_555 1_555
C4 C3 1_555 1_555
C5 C4 1_555 1_555
H5 C5 1_555 1_555
C6 C5 1_555 1_555
H6 C6 1_555 1_555
C7 C6 1_555 1_555
C8 C7 1_555 1_555
H7 C8 1_555 1_555
C9 C4 1_555 1_555
H8 C9 1_555 1_555
C10 N1 1_555 1_555
H9 C10 1_555 1_555
C11 N1 1_555 1_555
H10 C11 1_555 1_555
C12 N5 1_555 1_555
H11 C12 1_555 1_555
H12 C12 1_555 1_555
C13 C12 1_555 1_555
C14 C13 1_555 1_555
H13 C14 1_555 1_555
C15 C14 1_555 1_555
H14 C15 1_555 1_555
C16 C15 1_555 1_555
C17 C16 1_555 1_555
H15 C17 1_555 1_555
C18 C13 1_555 1_555
H16 C18 1_555 1_555
N1A Cd1_2 1_555 1_555
N1A_2 Cd1 1_555 1_555
Cd1_3 N2A 1_555 1_555
I1A Cd1 1_555 1_555
N2A C1A 1_555 1_555
N2A_2 Cd1 1_555 1_555
N3A N4A 1_555 1_555
N4A C1A 1_555 1_555
N5A N6A 1_555 1_555
N6A C10A 1_555 1_555
C1A H1A 1_555 1_555
C2A N2A 1_555 1_555
H2A C2A 1_555 1_555
C3A N3A 1_555 1_555
H3A C3A 1_555 1_555
H4A C3A 1_555 1_555
C4A C3A 1_555 1_555
C5A C4A 1_555 1_555
H5A C5A 1_555 1_555
C6A C5A 1_555 1_555
H6A C6A 1_555 1_555
C7A C7 1_555 1_555
C8A C7A 1_555 1_555
H7A C8A 1_555 1_555
C9A C4A 1_555 1_555
H8A C9A 1_555 1_555
C10A N1A 1_555 1_555
H9A C10A 1_555 1_555
C11A N1A 1_555 1_555
H10A C11A 1_555 1_555
C12A N5A 1_555 1_555
H11A C12A 1_555 1_555
H12A C12A 1_555 1_555
C13A C12A 1_555 1_555
C14A C13A 1_555 1_555
H13A C14A 1_555 1_555
C15A C14A 1_555 1_555
H14A C15A 1_555 1_555
C16A C16 1_555 1_555
C17A C16A 1_555 1_555
H15A C17A 1_555 1_555
C18A C13A 1_555 1_555
H16A C18A 1_555 1_555
N3 C2 1_555 1_555
N5 C11 1_555 1_555
C8 C9 1_555 1_555
C17 C18 1_555 1_555
N3A C2A 1_555 1_555
N5A C11A 1_555 1_555
C6A C7A 1_555 1_555
C8A C9A 1_555 1_555
C15A C16A 1_555 1_555
C17A C18A 1_555 1_555

#END
