
#######################################################################
#
#                 Cambridge Crystallographic Data Centre
#                                CCDC 
#
#######################################################################
#
# If this CIF has been generated from an entry in the Cambridge 
# Structural Database, then it will include bibliographic, chemical, 
# crystal, experimental, refinement or atomic coordinate data resulting 
# from the CCDC's data processing and validation procedures.
#
#######################################################################

data_ALIWAT
_symmetry_cell_setting           monoclinic
_symmetry_space_group_name_H-M   'C 2/c'
_symmetry_Int_Tables_number      15
_space_group_name_Hall           '-C 2yn'
loop_
_symmetry_equiv_pos_site_id
_symmetry_equiv_pos_as_xyz
1 x,y,z
2 1/2+x,1/2+y,z
3 x,-y,1/2+z
4 1/2+x,1/2-y,1/2+z
5 -x,-y,-z
6 1/2-x,1/2-y,-z
7 -x,y,1/2-z
8 1/2-x,1/2+y,1/2-z
_cell_length_a                   35.413(12)
_cell_length_b                   18.054(4)
_cell_length_c                   15.455(6)
_cell_angle_alpha                90
_cell_angle_beta                 100.817(6)
_cell_angle_gamma                90
_cell_volume                     9705.53
loop_
_atom_site_label
_atom_site_type_symbol
_atom_site_fract_x
_atom_site_fract_y
_atom_site_fract_z
Sb1 Sb 0.2500 0.2500 0.5000
F1 F 0.2516(5) 0.1756(9) 0.4176(11)
F2 F 0.2318(4) 0.1846(8) 0.5745(9)
F3 F 0.1992(4) 0.2701(8) 0.4447(9)
F1E F 0.2484(5) 0.3244(9) 0.5824(11)
F2E F 0.2682(4) 0.3154(8) 0.4255(9)
F3E F 0.3008(4) 0.2299(8) 0.5553(9)
O10 O 0.0871(19) 0.866(3) 0.126(4)
Cl1 Cl 0.0986(5) 0.4778(13) 0.8987(13)
Cl2 Cl 0.0543(8) 0.3510(15) 0.909(2)
C23 C 0.0570(13) 0.454(3) 0.927(4)
H39 H 0.0351 0.4791 0.8901
H40 H 0.0571 0.4658 0.9899
Re1 Re 0.27918(2) 0.19309(4) 0.93742(5)
Re2 Re 0.21800(2) 0.27647(4) 0.89576(5)
Re3 Re 0.21891(2) 0.16864(4) 1.00967(5)
Se1 Se 0.21778(6) 0.14277(11) 0.84997(13)
Se2 Se 0.16186(6) 0.25305(12) 0.96957(13)
Se3 Se 0.27648(6) 0.29894(12) 0.83054(13)
Se4 Se 0.22117(6) 0.40790(11) 0.95041(13)
P1 P 0.31889(17) 0.1214(3) 0.8511(4)
C1 C 0.2977(7) 0.1181(13) 0.7337(14)
H1 H 0.2951 0.1692 0.7104
H2 H 0.2715 0.0966 0.7268
C2 C 0.3217(9) 0.0714(16) 0.6777(19)
H3 H 0.3088 0.0718 0.6158
H4 H 0.3474 0.0930 0.6829
H5 H 0.3239 0.0203 0.6994
C3 C 0.3286(7) 0.0243(13) 0.8838(18)
H6 H 0.3376 0.0221 0.9484
H7 H 0.3496 0.0054 0.8556
C4 C 0.2938(9) -0.0256(16) 0.8589(19)
H8 H 0.3007 -0.0764 0.8780
H9 H 0.2731 -0.0080 0.8878
H10 H 0.2851 -0.0247 0.7949
C5 C 0.3665(7) 0.1578(15) 0.8548(18)
H11 H 0.3807 0.1222 0.8242
H12 H 0.3796 0.1592 0.9172
C6 C 0.3703(10) 0.2314(17) 0.817(2)
H13 H 0.3975 0.2442 0.8234
H14 H 0.3585 0.2309 0.7541
H15 H 0.3572 0.2682 0.8475
P2 P 0.17704(19) 0.0598(4) 1.0154(5)
C7 C 0.1909(9) -0.0234(15) 0.9560(19)
H16 H 0.1929 -0.0088 0.8954
H17 H 0.2165 -0.0406 0.9862
C8 C 0.1631(10) -0.0858(17) 0.952(2)
H18 H 0.1719 -0.1275 0.9200
H19 H 0.1377 -0.0697 0.9204
H20 H 0.1612 -0.1015 1.0114
C9 C 0.1266(7) 0.0754(16) 0.960(2)
H21 H 0.1108 0.0343 0.9762
H22 H 0.1175 0.1216 0.9836
C10 C 0.1193(10) 0.081(2) 0.865(3)
H23 H 0.0918 0.0890 0.8430
H24 H 0.1273 0.0349 0.8395
H25 H 0.1339 0.1225 0.8469
C11 C 0.1703(10) 0.0315(19) 1.128(3)
H26 H 0.1632 0.0748 1.1614
H27 H 0.1497 -0.0063 1.1246
C12 C 0.2044(14) 0.003(2) 1.168(4)
H28 H 0.2027 -0.0127 1.2280
H29 H 0.2243 0.0414 1.1712
H30 H 0.2109 -0.0392 1.1345
N1 N 0.1797(5) 0.3040(11) 0.7733(11)
C13 C 0.1853(6) 0.2737(13) 0.6977(14)
H31 H 0.2079 0.2454 0.6975
C14 C 0.1588(6) 0.2825(13) 0.6188(14)
H32 H 0.1631 0.2584 0.5669
C15 C 0.1266(6) 0.3256(11) 0.6157(13)
C16 C 0.1225(6) 0.3604(12) 0.6936(14)
H33 H 0.1010 0.3919 0.6946
C17 C 0.1488(6) 0.3496(11) 0.7682(13)
H34 H 0.1455 0.3754 0.8199
C18 C 0.0988(6) 0.3329(14) 0.5340(13)
C19 C 0.1084(7) 0.3221(15) 0.4515(16)
H35 H 0.1340 0.3103 0.4466
C20 C 0.0802(8) 0.3287(17) 0.3769(15)
H36 H 0.0875 0.3220 0.3213
N2 N 0.0434(6) 0.3439(13) 0.3780(12)
C21 C 0.0345(8) 0.3523(18) 0.4556(16)
H37 H 0.0081 0.3595 0.4580
C22 C 0.0601(7) 0.3518(17) 0.5337(17)
H38 H 0.0520 0.3639 0.5871
Cd1 Cd 0.0000 0.34203(18) 0.2500
N3 N 0.0541(12) 0.189(2) 0.233(3)
O1 O 0.0886(11) 0.199(5) 0.233(7)
O2 O 0.0299(9) 0.2354(18) 0.201(2)
O3 O 0.044(2) 0.130(3) 0.261(6)
N4 N 0.0534(9) 0.4576(16) 0.173(2)
O4 O 0.0345(14) 0.498(3) 0.117(3)
O5 O 0.0458(14) 0.3912(16) 0.177(5)
O9 O 0.0162(10) 0.480(2) 0.226(2)
O9F O -0.0162(10) 0.480(2) 0.274(2)
N4F N -0.0534(9) 0.4576(16) 0.327(2)
O4F O -0.0345(14) 0.498(3) 0.383(3)
O5F O -0.0458(14) 0.3912(16) 0.323(5)
N1F N -0.1797(5) 0.3040(11) -0.2733(11)
C13F C -0.1853(6) 0.2737(13) -0.1977(14)
H31F H -0.2079 0.2454 -0.1975
C14F C -0.1588(6) 0.2825(13) -0.1188(14)
H32F H -0.1631 0.2584 -0.0669
C15F C -0.1266(6) 0.3256(11) -0.1157(13)
C16F C -0.1225(6) 0.3604(12) -0.1936(14)
H33F H -0.1010 0.3919 -0.1946
C17F C -0.1488(6) 0.3496(11) -0.2682(13)
H34F H -0.1455 0.3754 -0.3199
C18F C -0.0988(6) 0.3329(14) -0.0340(13)
C19F C -0.1084(7) 0.3221(15) 0.0485(16)
H35F H -0.1340 0.3103 0.0534
C20F C -0.0802(8) 0.3287(17) 0.1231(15)
H36F H -0.0875 0.3220 0.1787
N2F N -0.0434(6) 0.3439(13) 0.1220(12)
C21F C -0.0345(8) 0.3523(18) 0.0444(16)
H37F H -0.0081 0.3595 0.0420
C22F C -0.0601(7) 0.3518(17) -0.0337(17)
H38F H -0.0520 0.3639 -0.0871
N3F N -0.0541(12) 0.189(2) 0.267(3)
O1F O -0.0886(11) 0.199(5) 0.267(7)
O2F O -0.0299(9) 0.2354(18) 0.299(2)
O3F O -0.044(2) 0.130(3) 0.239(6)
Re2F Re -0.21800(2) 0.27647(4) -0.39576(5)
Se1F Se -0.21778(6) 0.14277(11) -0.34997(13)
Se2F Se -0.16186(6) 0.25305(12) -0.46957(13)
Se3F Se -0.27648(6) 0.29894(12) -0.33054(13)
Se4F Se -0.22117(6) 0.40790(11) -0.45041(13)
Re1F Re -0.27918(2) 0.19309(4) -0.43742(5)
Re3F Re -0.21891(2) 0.16864(4) -0.50967(5)
P1F P -0.31889(17) 0.1214(3) -0.3511(4)
C1F C -0.2977(7) 0.1181(13) -0.2337(14)
H1F H -0.2951 0.1692 -0.2104
H2F H -0.2715 0.0966 -0.2268
C2F C -0.3217(9) 0.0714(16) -0.1777(19)
H3F H -0.3088 0.0718 -0.1158
H4F H -0.3474 0.0930 -0.1829
H5F H -0.3239 0.0203 -0.1994
C3F C -0.3286(7) 0.0243(13) -0.3838(18)
H6F H -0.3376 0.0221 -0.4484
H7F H -0.3496 0.0054 -0.3556
C4F C -0.2938(9) -0.0256(16) -0.3589(19)
H8F H -0.3007 -0.0764 -0.3780
H9F H -0.2731 -0.0080 -0.3878
H10F H -0.2851 -0.0247 -0.2949
C5F C -0.3665(7) 0.1578(15) -0.3548(18)
H11F H -0.3807 0.1222 -0.3242
H12F H -0.3796 0.1592 -0.4172
C6F C -0.3703(10) 0.2314(17) -0.317(2)
H13F H -0.3975 0.2442 -0.3234
H14F H -0.3585 0.2309 -0.2541
H15F H -0.3572 0.2682 -0.3475
P2F P -0.17704(19) 0.0598(4) -0.5154(5)
C7F C -0.1909(9) -0.0234(15) -0.4560(19)
H16F H -0.1929 -0.0088 -0.3954
H17F H -0.2165 -0.0406 -0.4862
C8F C -0.1631(10) -0.0858(17) -0.452(2)
H18F H -0.1719 -0.1275 -0.4200
H19F H -0.1377 -0.0697 -0.4204
H20F H -0.1612 -0.1015 -0.5114
C9F C -0.1266(7) 0.0754(16) -0.460(2)
H21F H -0.1108 0.0343 -0.4762
H22F H -0.1175 0.1216 -0.4836
C10F C -0.1193(10) 0.081(2) -0.365(3)
H23F H -0.0918 0.0890 -0.3430
H24F H -0.1273 0.0349 -0.3395
H25F H -0.1339 0.1225 -0.3469
C11F C -0.1703(10) 0.0315(19) -0.628(3)
H26F H -0.1632 0.0748 -0.6614
H27F H -0.1497 -0.0063 -0.6246
C12F C -0.2044(14) 0.003(2) -0.668(4)
H28F H -0.2027 -0.0127 -0.7280
H29F H -0.2243 0.0414 -0.6712
H30F H -0.2109 -0.0392 -0.6345
Re2E Re 0.28200(2) 0.22353(4) 1.10424(5)
Re3E Re 0.28109(2) 0.33136(4) 0.99033(5)
Se2E Se 0.33814(6) 0.24695(12) 1.03043(13)
Se4E Se 0.27883(6) 0.09210(11) 1.04959(13)
Re1E Re 0.22082(2) 0.30691(4) 1.06258(5)
Se3E Se 0.22352(6) 0.20106(12) 1.16946(13)
Re1C Re -0.22082(2) 0.30691(4) -0.56258(5)
Re3C Re -0.28109(2) 0.33136(4) -0.49033(5)
Re2C Re -0.28200(2) 0.22353(4) -0.60424(5)
Se2C Se -0.33814(6) 0.24695(12) -0.53043(13)
Se4C Se -0.27883(6) 0.09210(11) -0.54959(13)
Se3C Se -0.22352(6) 0.20106(12) -0.66946(13)
O6? O 0.0809(12) 0.484(2) 0.223(3)
N5? N 0.0410(8) 0.4599(16) 0.185(2)
O7? O 0.0595(12) 0.508(2) 0.156(3)
O8? O 0.0479(15) 0.3936(17) 0.178(5)
loop_
_geom_bond_atom_site_label_1
_geom_bond_atom_site_label_2
_geom_bond_site_symmetry_1
_geom_bond_site_symmetry_2
Re1 Re2 1_555 1_555
Re2 Re3 1_555 1_555
Re3 Re1 1_555 1_555
Se1 Re1 1_555 1_555
Se2 Re2 1_555 1_555
Se3 Re1 1_555 1_555
Se4 Re2 1_555 1_555
Sb1 F1 1_555 1_555
F2 Sb1 1_555 1_555
F3 Sb1 1_555 1_555
P1 Re1 1_555 1_555
C1 P1 1_555 1_555
H1 C1 1_555 1_555
H2 C1 1_555 1_555
C2 C1 1_555 1_555
H3 C2 1_555 1_555
H4 C2 1_555 1_555
H5 C2 1_555 1_555
C3 P1 1_555 1_555
H6 C3 1_555 1_555
H7 C3 1_555 1_555
C4 C3 1_555 1_555
H8 C4 1_555 1_555
H9 C4 1_555 1_555
H10 C4 1_555 1_555
C5 P1 1_555 1_555
H11 C5 1_555 1_555
H12 C5 1_555 1_555
C6 C5 1_555 1_555
H13 C6 1_555 1_555
H14 C6 1_555 1_555
H15 C6 1_555 1_555
P2 Re3 1_555 1_555
C7 P2 1_555 1_555
H16 C7 1_555 1_555
H17 C7 1_555 1_555
C8 C7 1_555 1_555
H18 C8 1_555 1_555
H19 C8 1_555 1_555
H20 C8 1_555 1_555
C9 P2 1_555 1_555
H21 C9 1_555 1_555
H22 C9 1_555 1_555
C10 C9 1_555 1_555
H23 C10 1_555 1_555
H24 C10 1_555 1_555
H25 C10 1_555 1_555
C11 P2 1_555 1_555
H26 C11 1_555 1_555
H27 C11 1_555 1_555
C12 C11 1_555 1_555
H28 C12 1_555 1_555
H29 C12 1_555 1_555
H30 C12 1_555 1_555
N1 Re2 1_555 1_555
C13 N1 1_555 1_555
H31 C13 1_555 1_555
C14 C13 1_555 1_555
H32 C14 1_555 1_555
C15 C14 1_555 1_555
C16 C15 1_555 1_555
H33 C16 1_555 1_555
C17 N1 1_555 1_555
H34 C17 1_555 1_555
C18 C15 1_555 1_555
C19 C18 1_555 1_555
H35 C19 1_555 1_555
C20 C19 1_555 1_555
H36 C20 1_555 1_555
N2 C20 1_555 1_555
C21 N2 1_555 1_555
H37 C21 1_555 1_555
C22 C18 1_555 1_555
H38 C22 1_555 1_555
Cd1 N2 1_555 1_555
N3 O1 1_555 1_555
O2 Cd1 1_555 1_555
O3 N3 1_555 1_555
N4 O4 1_555 1_555
O5 Cd1 1_555 1_555
O9 Cd1 1_555 1_555
Cl1 C23 1_555 1_555
Cl2 C23 1_555 1_555
C23 H39 1_555 1_555
H40 C23 1_555 1_555
O9F Cd1 1_555 1_555
N4F O9F 1_555 1_555
O4F N4F 1_555 1_555
O5F Cd1 1_555 1_555
F1E Sb1 1_555 1_555
F2E Sb1 1_555 1_555
F3E Sb1 1_555 1_555
N1F C13F 1_555 1_555
C13F H31F 1_555 1_555
C14F C13F 1_555 1_555
H32F C14F 1_555 1_555
C15F C14F 1_555 1_555
C16F C15F 1_555 1_555
H33F C16F 1_555 1_555
C17F N1F 1_555 1_555
H34F C17F 1_555 1_555
C18F C15F 1_555 1_555
C19F C18F 1_555 1_555
H35F C19F 1_555 1_555
C20F C19F 1_555 1_555
H36F C20F 1_555 1_555
N2F Cd1 1_555 1_555
C21F N2F 1_555 1_555
H37F C21F 1_555 1_555
C22F C18F 1_555 1_555
H38F C22F 1_555 1_555
N3F O1F 1_555 1_555
O2F Cd1 1_555 1_555
O3F N3F 1_555 1_555
Re2F N1F 1_555 1_555
Se1F Re2F 1_555 1_555
Se2F Re2F 1_555 1_555
Se3F Re2F 1_555 1_555
Se4F Re2F 1_555 1_555
Re1F Re2F 1_555 1_555
Re3F Re2F 1_555 1_555
P1F Re1F 1_555 1_555
C1F P1F 1_555 1_555
H1F C1F 1_555 1_555
H2F C1F 1_555 1_555
C2F C1F 1_555 1_555
H3F C2F 1_555 1_555
H4F C2F 1_555 1_555
H5F C2F 1_555 1_555
C3F P1F 1_555 1_555
H6F C3F 1_555 1_555
H7F C3F 1_555 1_555
C4F C3F 1_555 1_555
H8F C4F 1_555 1_555
H9F C4F 1_555 1_555
H10F C4F 1_555 1_555
C5F P1F 1_555 1_555
H11F C5F 1_555 1_555
H12F C5F 1_555 1_555
C6F C5F 1_555 1_555
H13F C6F 1_555 1_555
H14F C6F 1_555 1_555
H15F C6F 1_555 1_555
P2F Re3F 1_555 1_555
C7F P2F 1_555 1_555
H16F C7F 1_555 1_555
H17F C7F 1_555 1_555
C8F C7F 1_555 1_555
H18F C8F 1_555 1_555
H19F C8F 1_555 1_555
H20F C8F 1_555 1_555
C9F P2F 1_555 1_555
H21F C9F 1_555 1_555
H22F C9F 1_555 1_555
C10F C9F 1_555 1_555
H23F C10F 1_555 1_555
H24F C10F 1_555 1_555
H25F C10F 1_555 1_555
C11F P2F 1_555 1_555
H26F C11F 1_555 1_555
H27F C11F 1_555 1_555
C12F C11F 1_555 1_555
H28F C12F 1_555 1_555
H29F C12F 1_555 1_555
H30F C12F 1_555 1_555
Re2E Re1 1_555 1_555
Re3E Re1 1_555 1_555
Se2E Re1 1_555 1_555
Se4E Re1 1_555 1_555
Re1E Re2 1_555 1_555
Se3E Re3 1_555 1_555
Re1C Re2F 1_555 1_555
Re3C Re2F 1_555 1_555
Re2C Re1F 1_555 1_555
Se2C Re1F 1_555 1_555
Se4C Re1F 1_555 1_555
Se3C Re3F 1_555 1_555
Re2 Se1 1_555 1_555
Re2 Se3 1_555 1_555
Re2 Re3E 1_555 1_555
Re3 Se1 1_555 1_555
Re3 Se2 1_555 1_555
Re3 Re1E 1_555 1_555
Re3 Re2E 1_555 1_555
Re3 Se4E 1_555 1_555
Se2 Re1E 1_555 1_555
Se3 Re3E 1_555 1_555
Se4 Re1E 1_555 1_555
Se4 Re3E 1_555 1_555
C16 C17 1_555 1_555
C21 C22 1_555 1_555
N3 O2 1_555 1_555
N4 O5 1_555 1_555
N4 O9 1_555 1_555
O9 O9F 1_555 1_555
N4F O5F 1_555 1_555
C16F C17F 1_555 1_555
C20F N2F 1_555 1_555
C21F C22F 1_555 1_555
N3F O2F 1_555 1_555
Se1F Re1F 1_555 1_555
Se1F Re3F 1_555 1_555
Se2F Re3F 1_555 1_555
Se2F Re1C 1_555 1_555
Se3F Re1F 1_555 1_555
Se3F Re3C 1_555 1_555
Se4F Re1C 1_555 1_555
Se4F Re3C 1_555 1_555
Re1F Re3F 1_555 1_555
Re1F Re3C 1_555 1_555
Re3F Re1C 1_555 1_555
Re3F Re2C 1_555 1_555
Re3F Se4C 1_555 1_555
Re2E Re1E 1_555 1_555
Re2E Re3E 1_555 1_555
Re2E Se2E 1_555 1_555
Re2E Se3E 1_555 1_555
Re2E Se4E 1_555 1_555
Re3E Re1E 1_555 1_555
Re3E Se2E 1_555 1_555
Re1E Se3E 1_555 1_555
Re1C Re2C 1_555 1_555
Re1C Re3C 1_555 1_555
Re1C Se3C 1_555 1_555
Re3C Re2C 1_555 1_555
Re3C Se2C 1_555 1_555
Re2C Se2C 1_555 1_555
Re2C Se3C 1_555 1_555
Re2C Se4C 1_555 1_555

#END
