
#######################################################################
#
#                 Cambridge Crystallographic Data Centre
#                                CCDC 
#
#######################################################################
#
# If this CIF has been generated from an entry in the Cambridge 
# Structural Database, then it will include bibliographic, chemical, 
# crystal, experimental, refinement or atomic coordinate data resulting 
# from the CCDC's data processing and validation procedures.
#
#######################################################################

data_ALIWEX
_symmetry_cell_setting           monoclinic
_symmetry_space_group_name_H-M   'P 2/n'
_symmetry_Int_Tables_number      13
_space_group_name_Hall           '-P 2yac'
loop_
_symmetry_equiv_pos_site_id
_symmetry_equiv_pos_as_xyz
1 x,y,z
2 1/2+x,-y,1/2+z
3 -x,-y,-z
4 1/2-x,y,1/2-z
_cell_length_a                   16.955(3)
_cell_length_b                   11.857(2)
_cell_length_c                   21.055(4)
_cell_angle_alpha                90
_cell_angle_beta                 104.99(3)
_cell_angle_gamma                90
_cell_volume                     4088.76
loop_
_atom_site_label
_atom_site_type_symbol
_atom_site_fract_x
_atom_site_fract_y
_atom_site_fract_z
Re1 Re 0.09832(2) 0.57653(3) 0.032563(18)
Re2 Re -0.05758(2) 0.62816(3) 0.012870(18)
Re3 Re 0.00273(2) 0.45109(3) 0.084686(18)
Se1 Se 0.04184(6) 0.64866(8) 0.12427(5)
Se2 Se 0.15104(6) 0.40294(8) 0.09981(5)
Se3 Se 0.03599(6) 0.74253(8) -0.03713(5)
Se4 Se 0.14561(6) 0.49708(8) -0.06268(5)
P1 P -0.13661(16) 0.7979(2) 0.02707(13)
C1 C -0.2350(7) 0.7722(10) 0.0417(6)
H1 H -0.2270 0.7255 0.0818
H2 H -0.2579 0.8454 0.0508
C2 C -0.0870(7) 0.8846(9) 0.0989(5)
H3 H -0.1259 0.9434 0.1050
H4 H -0.0747 0.8362 0.1386
C3 C -0.1552(7) 0.8934(10) -0.0438(5)
H5 H -0.1022 0.9136 -0.0523
H6 H -0.1878 0.8531 -0.0831
C4 C -0.2977(7) 0.7141(12) -0.0136(7)
H7 H -0.3488 0.7043 -0.0006
H8 H -0.2769 0.6401 -0.0222
H9 H -0.3079 0.7604 -0.0534
C5 C -0.0087(7) 0.9415(9) 0.0936(6)
H10 H 0.0142 0.9855 0.1336
H11 H -0.0205 0.9917 0.0554
H12 H 0.0308 0.8840 0.0886
C6 C -0.2003(8) 1.0026(10) -0.0345(6)
H13 H -0.2078 1.0498 -0.0739
H14 H -0.1680 1.0438 0.0038
H15 H -0.2537 0.9836 -0.0276
P2 P 0.00770(17) 0.3930(2) 0.19877(13)
C7 C -0.0636(8) 0.4575(11) 0.2380(6)
H16 H -0.1195 0.4433 0.2104
H17 H -0.0586 0.4195 0.2807
C8 C 0.1084(8) 0.4224(12) 0.2568(5)
H18 H 0.1497 0.3737 0.2450
H19 H 0.1233 0.5017 0.2507
C9 C -0.0060(9) 0.2414(10) 0.2097(6)
H20 H 0.0265 0.1980 0.1853
H21 H 0.0135 0.2217 0.2569
C10 C -0.0539(10) 0.5846(12) 0.2505(8)
H22 H -0.0962 0.6112 0.2708
H23 H -0.0592 0.6239 0.2086
H24 H 0.0001 0.6000 0.2799
C11 C 0.1131(10) 0.4048(19) 0.3286(7)
H25 H 0.1682 0.4234 0.3549
H26 H 0.1010 0.3258 0.3360
H27 H 0.0733 0.4537 0.3414
C12 C -0.1009(10) 0.2092(14) 0.1831(8)
H28 H -0.1079 0.1280 0.1885
H29 H -0.1200 0.2291 0.1365
H30 H -0.1327 0.2509 0.2082
N1 N 0.2155(5) 0.6675(7) 0.0707(4)
C13 C 0.2585(6) 0.7094(8) 0.0310(5)
H31 H 0.2361 0.7043 -0.0151
C14 C 0.3324(6) 0.7585(9) 0.0535(5)
H32 H 0.3602 0.7868 0.0230
C15 C 0.3688(6) 0.7684(9) 0.1210(5)
C16 C 0.3227(6) 0.7283(10) 0.1614(5)
H33 H 0.3430 0.7355 0.2077
C17 C 0.2485(7) 0.6785(10) 0.1363(5)
H34 H 0.2191 0.6508 0.1658
C18 C 0.4526(6) 0.8153(9) 0.1474(5)
C19 C 0.5127(7) 0.7975(10) 0.1148(5)
H35 H 0.5000 0.7594 0.0737
C20 C 0.5909(7) 0.8350(11) 0.1423(6)
H36 H 0.6318 0.8209 0.1198
C21 C 0.5532(6) 0.9137(9) 0.2295(5)
H37 H 0.5663 0.9572 0.2687
C22 C 0.4731(7) 0.8761(10) 0.2054(5)
H38 H 0.4332 0.8919 0.2286
N2 N 0.6117(6) 0.8914(8) 0.2001(5)
Cd1 Cd 0.7500 0.92659(11) 0.2500
N3 N 0.7257(8) 1.0833(11) 0.1423(6)
O1 O 0.7209(8) 1.1343(11) 0.0907(5)
O2 O 0.6902(6) 1.1189(9) 0.1836(5)
O3 O 0.7650(6) 0.9943(8) 0.1533(4)
N4 N 0.7500 0.6863(17) 0.2500
O4 O 0.7651(6) 0.7410(9) 0.2033(5)
O5 O 0.7500 0.5816(15) 0.2500
Re1B Re -0.09832(2) 0.42347(3) -0.032563(18)
Re2B Re 0.05758(2) 0.37184(3) -0.012870(18)
Re3B Re -0.00273(2) 0.54891(3) -0.084686(18)
Se2B Se -0.15104(6) 0.59706(8) -0.09981(5)
Se1B Se -0.04184(6) 0.35134(8) -0.12427(5)
Se4B Se -0.14561(6) 0.50292(8) 0.06268(5)
Se3B Se -0.03599(6) 0.25747(8) 0.03713(5)
N2C N 0.8883(6) 0.8914(8) 0.2999(5)
C20C C 0.9091(7) 0.8350(11) 0.3577(6)
C19C C 0.9873(7) 0.7975(10) 0.3852(5)
C18C C 1.0474(6) 0.8153(9) 0.3526(5)
C15C C 1.1312(6) 0.7684(9) 0.3790(5)
C14C C 1.1676(6) 0.7585(9) 0.4465(5)
C13C C 1.2415(6) 0.7094(8) 0.4690(5)
N1C N 1.2845(5) 0.6675(7) 0.4293(4)
Re1C Re 1.40168(2) 0.57653(3) 0.467437(18)
C17C C 1.2515(7) 0.6785(10) 0.3637(5)
C16C C 1.1773(6) 0.7283(10) 0.3386(5)
H33C H 1.1570 0.7355 0.2923
H34C H 1.2809 0.6508 0.3342
H31C H 1.2639 0.7043 0.5151
H32C H 1.1398 0.7868 0.4770
C22C C 1.0269(7) 0.8761(10) 0.2946(5)
C21C C 0.9468(6) 0.9137(9) 0.2705(5)
H37C H 0.9337 0.9572 0.2313
H38C H 1.0668 0.8919 0.2714
H35C H 1.0000 0.7594 0.4263
H36C H 0.8682 0.8209 0.3802
O3C O 0.7350(6) 0.9943(8) 0.3467(4)
N3C N 0.7743(8) 1.0833(11) 0.3577(6)
O1C O 0.7791(8) 1.1343(11) 0.4093(5)
O2C O 0.8098(6) 1.1189(9) 0.3164(5)
O4C O 0.7349(6) 0.7410(9) 0.2967(5)
P2B P -0.00770(17) 0.6070(2) -0.19877(13)
C7B C 0.0636(8) 0.5425(11) -0.2380(6)
H16B H 0.1195 0.5567 -0.2104
H17B H 0.0586 0.5805 -0.2807
C10B C 0.0539(10) 0.4154(12) -0.2505(8)
H22B H 0.0962 0.3888 -0.2708
H23B H 0.0592 0.3761 -0.2086
H24B H -0.0001 0.4000 -0.2799
C8B C -0.1084(8) 0.5776(12) -0.2568(5)
H18B H -0.1497 0.6263 -0.2450
H19B H -0.1233 0.4983 -0.2507
C11B C -0.1131(10) 0.5952(19) -0.3286(7)
H25B H -0.1682 0.5766 -0.3549
H26B H -0.1010 0.6742 -0.3360
H27B H -0.0733 0.5463 -0.3414
C9B C 0.0060(9) 0.7586(10) -0.2097(6)
H20B H -0.0265 0.8020 -0.1853
H21B H -0.0135 0.7783 -0.2569
C12B C 0.1009(10) 0.7908(14) -0.1831(8)
H28B H 0.1079 0.8720 -0.1885
H29B H 0.1200 0.7709 -0.1365
H30B H 0.1327 0.7491 -0.2082
P1B P 0.13661(16) 0.2021(2) -0.02707(13)
C1B C 0.2350(7) 0.2278(10) -0.0417(6)
H1B H 0.2270 0.2745 -0.0818
H2B H 0.2579 0.1546 -0.0508
C4B C 0.2977(7) 0.2859(12) 0.0136(7)
H7B H 0.3488 0.2957 0.0006
H8B H 0.2769 0.3599 0.0222
H9B H 0.3079 0.2396 0.0534
C2B C 0.0870(7) 0.1154(9) -0.0989(5)
H3B H 0.1259 0.0566 -0.1050
H4B H 0.0747 0.1638 -0.1386
C5B C 0.0087(7) 0.0585(9) -0.0936(6)
H10B H -0.0142 0.0145 -0.1336
H11B H 0.0205 0.0083 -0.0554
H12B H -0.0308 0.1160 -0.0886
C3B C 0.1552(7) 0.1066(10) 0.0438(5)
H5B H 0.1022 0.0864 0.0523
H6B H 0.1878 0.1469 0.0831
C6B C 0.2003(8) -0.0026(10) 0.0345(6)
H13B H 0.2078 -0.0498 0.0739
H14B H 0.1680 -0.0438 -0.0038
H15B H 0.2537 0.0164 0.0276
N1B N -0.2155(5) 0.3325(7) -0.0707(4)
Sb1 Sb 0.2500 0.04259(13) 0.2500
F1 F 0.1818(7) -0.0717(11) 0.2052(5)
F2 F 0.3066(5) 0.0395(9) 0.1859(4)
F3 F 0.1786(9) 0.1477(13) 0.2030(5)
F1C F 0.3182(7) -0.0717(11) 0.2948(5)
F2C F 0.1934(5) 0.0395(9) 0.3141(4)
F3C F 0.3214(9) 0.1477(13) 0.2970(5)
O6 O 0.3833(16) 0.680(2) -0.1370(12)
H39 H 0.4342 0.6752 -0.1224
C23 C 0.344(3) 0.580(3) -0.116(2)
H40 H 0.3590 0.5756 -0.0683
H41 H 0.3622 0.5122 -0.1346
H42 H 0.2845 0.5873 -0.1325
O7 O 0.5066(17) 0.890(3) -0.0697(14)
H43 H 0.5401 0.9213 -0.0383
C24 C 0.4885(19) 0.776(3) -0.0501(15)
H44 H 0.5364 0.7459 -0.0182
H45 H 0.4745 0.7272 -0.0889
H46 H 0.4423 0.7795 -0.0302
O8 O 0.470(3) 0.569(4) -0.023(2)
loop_
_geom_bond_atom_site_label_1
_geom_bond_atom_site_label_2
_geom_bond_site_symmetry_1
_geom_bond_site_symmetry_2
Re1 Re2 1_555 1_555
Re2 Re3 1_555 1_555
Re3 Re1 1_555 1_555
Se1 Re1 1_555 1_555
Se2 Re1 1_555 1_555
Se3 Re1 1_555 1_555
Se4 Re1 1_555 1_555
P1 Re2 1_555 1_555
C1 P1 1_555 1_555
H1 C1 1_555 1_555
H2 C1 1_555 1_555
C2 P1 1_555 1_555
H3 C2 1_555 1_555
H4 C2 1_555 1_555
C3 P1 1_555 1_555
H5 C3 1_555 1_555
H6 C3 1_555 1_555
C4 C1 1_555 1_555
H7 C4 1_555 1_555
H8 C4 1_555 1_555
H9 C4 1_555 1_555
C5 C2 1_555 1_555
H10 C5 1_555 1_555
H11 C5 1_555 1_555
H12 C5 1_555 1_555
C6 C3 1_555 1_555
H13 C6 1_555 1_555
H14 C6 1_555 1_555
H15 C6 1_555 1_555
P2 Re3 1_555 1_555
C7 P2 1_555 1_555
H16 C7 1_555 1_555
H17 C7 1_555 1_555
C8 P2 1_555 1_555
H18 C8 1_555 1_555
H19 C8 1_555 1_555
C9 P2 1_555 1_555
H20 C9 1_555 1_555
H21 C9 1_555 1_555
C10 C7 1_555 1_555
H22 C10 1_555 1_555
H23 C10 1_555 1_555
H24 C10 1_555 1_555
C11 C8 1_555 1_555
H25 C11 1_555 1_555
H26 C11 1_555 1_555
H27 C11 1_555 1_555
C12 C9 1_555 1_555
H28 C12 1_555 1_555
H29 C12 1_555 1_555
H30 C12 1_555 1_555
N1 Re1 1_555 1_555
C13 N1 1_555 1_555
H31 C13 1_555 1_555
C14 C13 1_555 1_555
H32 C14 1_555 1_555
C15 C14 1_555 1_555
C16 C15 1_555 1_555
H33 C16 1_555 1_555
C17 N1 1_555 1_555
H34 C17 1_555 1_555
C18 C15 1_555 1_555
C19 C18 1_555 1_555
H35 C19 1_555 1_555
C20 C19 1_555 1_555
H36 C20 1_555 1_555
C21 H37 1_555 1_555
C22 C18 1_555 1_555
H38 C22 1_555 1_555
N2 C20 1_555 1_555
Cd1 N2 1_555 1_555
N3 O1 1_555 1_555
O2 N3 1_555 1_555
O3 Cd1 1_555 1_555
N4 O4 1_555 1_555
O4 Cd1 1_555 1_555
O5 N4 1_555 1_555
Sb1 F1 1_555 1_555
F2 Sb1 1_555 1_555
F3 Sb1 1_555 1_555
O6 H39 1_555 1_555
C23 O6 1_555 1_555
H40 C23 1_555 1_555
H41 C23 1_555 1_555
H42 C23 1_555 1_555
O7 H43 1_555 1_555
C24 O7 1_555 1_555
H44 C24 1_555 1_555
H45 C24 1_555 1_555
H46 C24 1_555 1_555
Re1B Re2 1_555 1_555
Re2B Re1 1_555 1_555
Re3B Re1 1_555 1_555
Se2B Re2 1_555 1_555
Se1B Re1B 1_555 1_555
Se4B Re2 1_555 1_555
Se3B Re3 1_555 1_555
N2C Cd1 1_555 1_555
C20C N2C 1_555 1_555
C19C C20C 1_555 1_555
C18C C19C 1_555 1_555
C15C C18C 1_555 1_555
C14C C15C 1_555 1_555
C13C C14C 1_555 1_555
N1C C13C 1_555 1_555
Re1C N1C 1_555 1_555
C17C N1C 1_555 1_555
C16C C15C 1_555 1_555
H33C C16C 1_555 1_555
H34C C17C 1_555 1_555
H31C C13C 1_555 1_555
H32C C14C 1_555 1_555
C22C C18C 1_555 1_555
C21C N2C 1_555 1_555
H37C C21C 1_555 1_555
H38C C22C 1_555 1_555
H35C C19C 1_555 1_555
H36C C20C 1_555 1_555
O3C Cd1 1_555 1_555
N3C O3C 1_555 1_555
O1C N3C 1_555 1_555
O2C N3C 1_555 1_555
O4C Cd1 1_555 1_555
P2B Re3B 1_555 1_555
C7B P2B 1_555 1_555
H16B C7B 1_555 1_555
H17B C7B 1_555 1_555
C10B C7B 1_555 1_555
H22B C10B 1_555 1_555
H23B C10B 1_555 1_555
H24B C10B 1_555 1_555
C8B P2B 1_555 1_555
H18B C8B 1_555 1_555
H19B C8B 1_555 1_555
C11B C8B 1_555 1_555
H25B C11B 1_555 1_555
H26B C11B 1_555 1_555
H27B C11B 1_555 1_555
C9B P2B 1_555 1_555
H20B C9B 1_555 1_555
H21B C9B 1_555 1_555
C12B C9B 1_555 1_555
H28B C12B 1_555 1_555
H29B C12B 1_555 1_555
H30B C12B 1_555 1_555
P1B Re2B 1_555 1_555
C1B P1B 1_555 1_555
H1B C1B 1_555 1_555
H2B C1B 1_555 1_555
C4B C1B 1_555 1_555
H7B C4B 1_555 1_555
H8B C4B 1_555 1_555
H9B C4B 1_555 1_555
C2B P1B 1_555 1_555
H3B C2B 1_555 1_555
H4B C2B 1_555 1_555
C5B C2B 1_555 1_555
H10B C5B 1_555 1_555
H11B C5B 1_555 1_555
H12B C5B 1_555 1_555
C3B P1B 1_555 1_555
H5B C3B 1_555 1_555
H6B C3B 1_555 1_555
C6B C3B 1_555 1_555
H13B C6B 1_555 1_555
H14B C6B 1_555 1_555
H15B C6B 1_555 1_555
N1B Re1B 1_555 1_555
F1C Sb1 1_555 1_555
F2C Sb1 1_555 1_555
F3C Sb1 1_555 1_555
Re2 Se1 1_555 1_555
Re2 Re3B 1_555 1_555
Re2 Se3 1_555 1_555
Re3 Re1B 1_555 1_555
Re3 Re2B 1_555 1_555
Re3 Se1 1_555 1_555
Re3 Se2 1_555 1_555
Re3 Se4B 1_555 1_555
Se2 Re2B 1_555 1_555
Se3 Re3B 1_555 1_555
Se4 Re2B 1_555 1_555
Se4 Re3B 1_555 1_555
C16 C17 1_555 1_555
C21 N2 1_555 1_555
C21 C22 1_555 1_555
N3 O3 1_555 1_555
N4 O4C 1_555 1_555
Re1B Re2B 1_555 1_555
Re1B Re3B 1_555 1_555
Re1B Se3B 1_555 1_555
Re1B Se2B 1_555 1_555
Re1B Se4B 1_555 1_555
Re2B Re3B 1_555 1_555
Re2B Se1B 1_555 1_555
Re2B Se3B 1_555 1_555
Re3B Se1B 1_555 1_555
Re3B Se2B 1_555 1_555
C17C C16C 1_555 1_555
C22C C21C 1_555 1_555

#END
