
#######################################################################
#
#                 Cambridge Crystallographic Data Centre
#                                CCDC 
#
#######################################################################
#
# If this CIF has been generated from an entry in the Cambridge 
# Structural Database, then it will include bibliographic, chemical, 
# crystal, experimental, refinement or atomic coordinate data resulting 
# from the CCDC's data processing and validation procedures.
#
#######################################################################

data_ALIWIB
_symmetry_cell_setting           monoclinic
_symmetry_space_group_name_H-M   'P 2/n'
_symmetry_Int_Tables_number      13
_space_group_name_Hall           '-P 2yac'
loop_
_symmetry_equiv_pos_site_id
_symmetry_equiv_pos_as_xyz
1 x,y,z
2 1/2-x,y,1/2-z
3 -x,-y,-z
4 1/2+x,-y,1/2+z
_cell_length_a                   16.7533(16)
_cell_length_b                   11.8072(12)
_cell_length_c                   20.935(2)
_cell_angle_alpha                90
_cell_angle_beta                 104.710(2)
_cell_angle_gamma                90
_cell_volume                     4005.41
loop_
_atom_site_label
_atom_site_type_symbol
_atom_site_fract_x
_atom_site_fract_y
_atom_site_fract_z
Re1 Re 0.09895(4) 0.57730(6) 0.03306(4)
Re2 Re -0.05864(4) 0.62844(6) 0.01230(4)
Re3 Re 0.00158(4) 0.45126(6) 0.08485(4)
Se1 Se 0.04017(11) 0.64960(15) 0.12463(9)
Se2 Se 0.15177(10) 0.40387(15) 0.10089(9)
Se3 Se 0.03666(10) 0.74324(14) -0.03746(9)
Se4 Se 0.14842(10) 0.49664(15) -0.06185(9)
P1 P -0.1386(3) 0.7986(4) 0.0260(3)
C1 C -0.2396(11) 0.7731(19) 0.0417(12)
H1 H -0.2327 0.7232 0.0808
H2 H -0.2627 0.8460 0.0521
C2 C -0.0922(13) 0.8873(18) 0.0988(11)
H3 H -0.1319 0.9473 0.1029
H4 H -0.0821 0.8397 0.1391
C3 C -0.1580(13) 0.8952(16) -0.0467(10)
H5 H -0.1045 0.9140 -0.0560
H6 H -0.1917 0.8545 -0.0856
C4 C -0.3019(11) 0.7169(17) -0.0187(11)
H7 H -0.3550 0.7050 -0.0080
H8 H -0.2799 0.6438 -0.0285
H9 H -0.3098 0.7666 -0.0572
C5 C -0.0092(12) 0.9438(18) 0.0949(12)
H10 H 0.0133 0.9878 0.1351
H11 H -0.0192 0.9941 0.0564
H12 H 0.0303 0.8850 0.0906
C6 C -0.2016(14) 1.0046(17) -0.0382(12)
H13 H -0.2087 1.0510 -0.0781
H14 H -0.1685 1.0463 -0.0002
H15 H -0.2558 0.9873 -0.0309
P2 P 0.0048(3) 0.3914(4) 0.1994(3)
C7 C -0.0738(16) 0.450(2) 0.2375(14)
H16 H -0.1297 0.4405 0.2077
H17 H -0.0721 0.4109 0.2797
C8 C -0.053(2) 0.578(3) 0.2498(19)
H18 H -0.0867 0.6107 0.2769
H19 H -0.0638 0.6180 0.2073
H20 H 0.0058 0.5864 0.2727
C9 C 0.1107(18) 0.420(3) 0.2586(13)
H21 H 0.1518 0.3686 0.2474
H22 H 0.1275 0.4987 0.2519
C10 C -0.0130(15) 0.2381(9) 0.2085(12)
H23 H 0.0006 0.1912 0.1735
H24 H 0.0142 0.2080 0.2528
C11 C -0.106(3) 0.259(19) 0.198(9)
H25 H -0.1347 0.1863 0.1976
H26 H -0.1281 0.2978 0.1558
H27 H -0.1156 0.3061 0.2340
C13 C 0.112(2) 0.405(4) 0.3273(15)
H31 H 0.1673 0.4234 0.3548
H32 H 0.0990 0.3261 0.3350
H33 H 0.0714 0.4551 0.3388
N1 N 0.2175(9) 0.6711(12) 0.0699(8)
C14 C 0.2611(10) 0.7117(14) 0.0302(9)
H34 H 0.2394 0.7067 -0.0162
C15 C 0.3357(10) 0.7602(16) 0.0547(10)
H35 H 0.3641 0.7895 0.0244
C16 C 0.3722(10) 0.7692(15) 0.1204(9)
C17 C 0.3230(10) 0.7338(16) 0.1598(10)
H36 H 0.3421 0.7443 0.2062
C18 C 0.2498(13) 0.6853(17) 0.1361(11)
H37 H 0.2193 0.6599 0.1660
C19 C 0.4569(11) 0.8140(17) 0.1465(10)
C20 C 0.5174(12) 0.7961(19) 0.1163(11)
H38 H 0.5040 0.7597 0.0745
C21 C 0.5987(12) 0.828(2) 0.1431(12)
H39 H 0.6391 0.8119 0.1197
C22 C 0.5617(11) 0.9062(18) 0.2295(11)
H40 H 0.5765 0.9488 0.2693
C23 C 0.4804(10) 0.8763(16) 0.2075(9)
H41 H 0.4412 0.8958 0.2315
N2 N 0.6216(10) 0.8820(14) 0.2015(8)
Co1 Co 0.7500 0.8995(4) 0.2500
N3 N 0.7236(12) 1.0686(17) 0.1464(10)
O1 O 0.7259(12) 1.0999(17) 0.0915(9)
O2 O 0.6836(11) 1.1136(16) 0.1808(10)
O3 O 0.7709(8) 0.9829(14) 0.1729(7)
N4 N 0.7500 0.679(3) 0.2500
O4 O 0.7701(9) 0.7364(14) 0.2069(9)
O5 O 0.7500 0.578(2) 0.2500
Re1B Re -0.09895(4) 0.42270(6) -0.03306(4)
Re2B Re 0.05864(4) 0.37156(6) -0.01230(4)
Re3B Re -0.00158(4) 0.54874(6) -0.08485(4)
Se2B Se -0.15177(10) 0.59613(15) -0.10089(9)
Se1B Se -0.04017(11) 0.35040(15) -0.12463(9)
Se4B Se -0.14842(10) 0.50336(15) 0.06185(9)
Se3B Se -0.03666(10) 0.25676(14) 0.03746(9)
N2A N 0.8784(10) 0.8820(14) 0.2985(8)
C21A C 0.9013(12) 0.828(2) 0.3569(12)
C20A C 0.9826(12) 0.7961(19) 0.3837(11)
C19A C 1.0431(11) 0.8140(17) 0.3535(10)
C16A C 1.1278(10) 0.7692(15) 0.3796(9)
C15A C 1.1643(10) 0.7602(16) 0.4453(10)
C14A C 1.2389(10) 0.7117(14) 0.4698(9)
N1A N 1.2825(9) 0.6711(12) 0.4301(8)
Re1A Re 1.40105(4) 0.57730(6) 0.46694(4)
C18A C 1.2502(13) 0.6853(17) 0.3639(11)
C17A C 1.1770(10) 0.7338(16) 0.3402(10)
H36A H 1.1579 0.7443 0.2938
H37A H 1.2807 0.6599 0.3340
H34A H 1.2606 0.7067 0.5162
H35A H 1.1359 0.7895 0.4756
C23A C 1.0196(10) 0.8763(16) 0.2925(9)
C22A C 0.9383(11) 0.9062(18) 0.2705(11)
H40A H 0.9235 0.9488 0.2307
H41A H 1.0588 0.8958 0.2685
H38A H 0.9960 0.7597 0.4255
H39A H 0.8609 0.8119 0.3803
O3A O 0.7291(8) 0.9829(14) 0.3271(7)
N3A N 0.7764(12) 1.0686(17) 0.3536(10)
O1A O 0.7741(12) 1.0999(17) 0.4085(9)
O2A O 0.8164(11) 1.1136(16) 0.3192(10)
O4A O 0.7299(9) 0.7364(14) 0.2931(9)
P2B P -0.0048(3) 0.6086(4) -0.1994(3)
C7B C 0.0738(16) 0.550(2) -0.2375(14)
H16B H 0.1297 0.5595 -0.2077
H17B H 0.0721 0.5891 -0.2797
C8B C 0.053(2) 0.422(3) -0.2498(19)
H18B H 0.0867 0.3893 -0.2769
H19B H 0.0638 0.3820 -0.2073
H20B H -0.0058 0.4136 -0.2727
C9B C -0.1107(18) 0.580(3) -0.2586(13)
H21B H -0.1518 0.6314 -0.2474
H22B H -0.1275 0.5013 -0.2519
C13B C -0.112(2) 0.595(4) -0.3273(15)
H31B H -0.1673 0.5766 -0.3548
H32B H -0.0990 0.6739 -0.3350
H33B H -0.0714 0.5449 -0.3388
C10B C 0.0130(15) 0.7619(9) -0.2085(12)
H23B H -0.0006 0.8088 -0.1735
H24B H -0.0142 0.7920 -0.2528
C11B C 0.106(3) 0.741(19) -0.198(9)
H25B H 0.1347 0.8137 -0.1976
H26B H 0.1281 0.7022 -0.1558
H27B H 0.1156 0.6939 -0.2340
P1B P 0.1386(3) 0.2014(4) -0.0260(3)
C1B C 0.2396(11) 0.2269(19) -0.0417(12)
H1B H 0.2327 0.2768 -0.0808
H2B H 0.2627 0.1540 -0.0521
C4B C 0.3019(11) 0.2831(17) 0.0187(11)
H7B H 0.3550 0.2950 0.0080
H8B H 0.2799 0.3562 0.0285
H9B H 0.3098 0.2334 0.0572
C2B C 0.0922(13) 0.1127(18) -0.0988(11)
H3B H 0.1319 0.0527 -0.1029
H4B H 0.0821 0.1603 -0.1391
C5B C 0.0092(12) 0.0562(18) -0.0949(12)
H10B H -0.0133 0.0122 -0.1351
H11B H 0.0192 0.0059 -0.0564
H12B H -0.0303 0.1150 -0.0906
C3B C 0.1580(13) 0.1048(16) 0.0467(10)
H5B H 0.1045 0.0860 0.0560
H6B H 0.1917 0.1455 0.0856
C6B C 0.2016(14) -0.0046(17) 0.0382(12)
H13B H 0.2087 -0.0510 0.0781
H14B H 0.1685 -0.0463 0.0002
H15B H 0.2558 0.0127 0.0309
N1B N -0.2175(9) 0.3289(12) -0.0699(8)
Sb1 Sb 0.2500 0.0389(2) 0.2500
F1 F 0.1856(10) -0.0783(19) 0.2037(9)
F2 F 0.3109(9) 0.0343(17) 0.1868(8)
F3 F 0.1777(17) 0.144(2) 0.2005(11)
F1A F 0.3144(10) -0.0783(19) 0.2963(9)
F2A F 0.1891(9) 0.0343(17) 0.3132(8)
F3A F 0.3223(17) 0.144(2) 0.2995(11)
C24 C -0.113(8) 0.433(10) 0.420(6)
O6 O -0.130(4) 0.346(7) 0.369(4)
C25 C 0.520(3) 0.911(4) -0.071(3)
O7 O 0.477(3) 0.806(4) -0.067(3)
O8 O 0.0000 0.5000 0.5000
C12? C -0.1047(16) 0.206(4) 0.181(2)
H28? H -0.1173 0.1389 0.2041
H29? H -0.1154 0.1897 0.1337
H30? H -0.1396 0.2692 0.1877
loop_
_geom_bond_atom_site_label_1
_geom_bond_atom_site_label_2
_geom_bond_site_symmetry_1
_geom_bond_site_symmetry_2
Re1 Re2 1_555 1_555
Re2 Re3 1_555 1_555
Re3 Re1 1_555 1_555
Se1 Re1 1_555 1_555
Se2 Re1 1_555 1_555
Se3 Re1 1_555 1_555
Se4 Re1 1_555 1_555
P1 Re2 1_555 1_555
C1 P1 1_555 1_555
H1 C1 1_555 1_555
H2 C1 1_555 1_555
C2 P1 1_555 1_555
H3 C2 1_555 1_555
H4 C2 1_555 1_555
C3 P1 1_555 1_555
H5 C3 1_555 1_555
H6 C3 1_555 1_555
C4 C1 1_555 1_555
H7 C4 1_555 1_555
H8 C4 1_555 1_555
H9 C4 1_555 1_555
C5 C2 1_555 1_555
H10 C5 1_555 1_555
H11 C5 1_555 1_555
H12 C5 1_555 1_555
C6 C3 1_555 1_555
H13 C6 1_555 1_555
H14 C6 1_555 1_555
H15 C6 1_555 1_555
P2 Re3 1_555 1_555
C7 P2 1_555 1_555
H16 C7 1_555 1_555
H17 C7 1_555 1_555
C8 C7 1_555 1_555
H18 C8 1_555 1_555
H19 C8 1_555 1_555
H20 C8 1_555 1_555
C9 P2 1_555 1_555
H21 C9 1_555 1_555
H22 C9 1_555 1_555
C10 P2 1_555 1_555
H23 C10 1_555 1_555
H24 C10 1_555 1_555
C11 C10 1_555 1_555
H25 C11 1_555 1_555
H26 C11 1_555 1_555
H27 C11 1_555 1_555
C13 C9 1_555 1_555
H31 C13 1_555 1_555
H32 C13 1_555 1_555
H33 C13 1_555 1_555
N1 Re1 1_555 1_555
C14 N1 1_555 1_555
H34 C14 1_555 1_555
C15 C14 1_555 1_555
H35 C15 1_555 1_555
C16 C15 1_555 1_555
C17 C16 1_555 1_555
H36 C17 1_555 1_555
C18 N1 1_555 1_555
H37 C18 1_555 1_555
C19 C16 1_555 1_555
C20 C19 1_555 1_555
H38 C20 1_555 1_555
C21 C20 1_555 1_555
H39 C21 1_555 1_555
C22 H40 1_555 1_555
C23 C19 1_555 1_555
H41 C23 1_555 1_555
N2 C21 1_555 1_555
Co1 N2 1_555 1_555
N3 O1 1_555 1_555
O2 N3 1_555 1_555
O3 Co1 1_555 1_555
N4 O4 1_555 1_555
O4 Co1 1_555 1_555
O5 N4 1_555 1_555
Sb1 F1 1_555 1_555
F2 Sb1 1_555 1_555
F3 Sb1 1_555 1_555
C24 O6 1_555 1_555
C25 O7 1_555 1_555
Re1B Re2 1_555 1_555
Re2B Re1 1_555 1_555
Re3B Re1 1_555 1_555
Se2B Re2 1_555 1_555
Se1B Re1B 1_555 1_555
Se4B Re2 1_555 1_555
Se3B Re3 1_555 1_555
N2A Co1 1_555 1_555
C21A N2A 1_555 1_555
C20A C21A 1_555 1_555
C19A C20A 1_555 1_555
C16A C19A 1_555 1_555
C15A C16A 1_555 1_555
C14A C15A 1_555 1_555
N1A C14A 1_555 1_555
Re1A N1A 1_555 1_555
C18A N1A 1_555 1_555
C17A C16A 1_555 1_555
H36A C17A 1_555 1_555
H37A C18A 1_555 1_555
H34A C14A 1_555 1_555
H35A C15A 1_555 1_555
C23A C19A 1_555 1_555
C22A N2A 1_555 1_555
H40A C22A 1_555 1_555
H41A C23A 1_555 1_555
H38A C20A 1_555 1_555
H39A C21A 1_555 1_555
O3A Co1 1_555 1_555
N3A O3A 1_555 1_555
O1A N3A 1_555 1_555
O2A N3A 1_555 1_555
O4A Co1 1_555 1_555
P2B Re3B 1_555 1_555
C7B P2B 1_555 1_555
H16B C7B 1_555 1_555
H17B C7B 1_555 1_555
C8B C7B 1_555 1_555
H18B C8B 1_555 1_555
H19B C8B 1_555 1_555
H20B C8B 1_555 1_555
C9B P2B 1_555 1_555
H21B C9B 1_555 1_555
H22B C9B 1_555 1_555
C13B C9B 1_555 1_555
H31B C13B 1_555 1_555
H32B C13B 1_555 1_555
H33B C13B 1_555 1_555
C10B P2B 1_555 1_555
H23B C10B 1_555 1_555
H24B C10B 1_555 1_555
C11B C10B 1_555 1_555
H25B C11B 1_555 1_555
H26B C11B 1_555 1_555
H27B C11B 1_555 1_555
P1B Re2B 1_555 1_555
C1B P1B 1_555 1_555
H1B C1B 1_555 1_555
H2B C1B 1_555 1_555
C4B C1B 1_555 1_555
H7B C4B 1_555 1_555
H8B C4B 1_555 1_555
H9B C4B 1_555 1_555
C2B P1B 1_555 1_555
H3B C2B 1_555 1_555
H4B C2B 1_555 1_555
C5B C2B 1_555 1_555
H10B C5B 1_555 1_555
H11B C5B 1_555 1_555
H12B C5B 1_555 1_555
C3B P1B 1_555 1_555
H5B C3B 1_555 1_555
H6B C3B 1_555 1_555
C6B C3B 1_555 1_555
H13B C6B 1_555 1_555
H14B C6B 1_555 1_555
H15B C6B 1_555 1_555
N1B Re1B 1_555 1_555
F1A Sb1 1_555 1_555
F2A Sb1 1_555 1_555
F3A Sb1 1_555 1_555
Re2 Se1 1_555 1_555
Re2 Re3B 1_555 1_555
Re2 Se3 1_555 1_555
Re3 Re1B 1_555 1_555
Re3 Re2B 1_555 1_555
Re3 Se1 1_555 1_555
Re3 Se2 1_555 1_555
Re3 Se4B 1_555 1_555
Se2 Re2B 1_555 1_555
Se3 Re3B 1_555 1_555
Se4 Re2B 1_555 1_555
Se4 Re3B 1_555 1_555
C17 C18 1_555 1_555
C22 N2 1_555 1_555
C22 C23 1_555 1_555
N3 O3 1_555 1_555
N4 O4A 1_555 1_555
Re1B Re2B 1_555 1_555
Re1B Re3B 1_555 1_555
Re1B Se3B 1_555 1_555
Re1B Se2B 1_555 1_555
Re1B Se4B 1_555 1_555
Re2B Re3B 1_555 1_555
Re2B Se1B 1_555 1_555
Re2B Se3B 1_555 1_555
Re3B Se1B 1_555 1_555
Re3B Se2B 1_555 1_555
C18A C17A 1_555 1_555
C23A C22A 1_555 1_555

#END
