
#######################################################################
#
#                 Cambridge Crystallographic Data Centre
#                                CCDC 
#
#######################################################################
#
# If this CIF has been generated from an entry in the Cambridge 
# Structural Database, then it will include bibliographic, chemical, 
# crystal, experimental, refinement or atomic coordinate data resulting 
# from the CCDC's data processing and validation procedures.
#
#######################################################################

data_ALIWOH
_symmetry_cell_setting           orthorhombic
_symmetry_space_group_name_H-M   'P b c n'
_symmetry_Int_Tables_number      60
_space_group_name_Hall           '-P 2n 2ab'
loop_
_symmetry_equiv_pos_site_id
_symmetry_equiv_pos_as_xyz
1 x,y,z
2 1/2+x,1/2+y,1/2-z
3 x,-y,1/2+z
4 1/2-x,1/2+y,z
5 -x,-y,-z
6 1/2-x,1/2-y,1/2+z
7 -x,y,1/2-z
8 1/2+x,1/2-y,-z
_cell_length_a                   23.924(5)
_cell_length_b                   25.868(5)
_cell_length_c                   29.116(6)
_cell_angle_alpha                90
_cell_angle_beta                 90
_cell_angle_gamma                90
_cell_volume                     18018.9
loop_
_atom_site_label
_atom_site_type_symbol
_atom_site_fract_x
_atom_site_fract_y
_atom_site_fract_z
Re1 Re 0.96039(5) 0.04802(5) 0.96540(4)
Re2 Re 1.05973(5) 0.04610(5) 1.00457(5)
Re3 Re 0.53703(6) 0.04743(5) 0.53720(5)
Re4 Re 0.96922(5) 0.02723(5) 1.05357(5)
Re5 Re 0.51974(7) 0.03796(6) 0.44838(5)
Re6 Re 0.43459(6) 0.03801(6) 0.50533(6)
Se1 Se 0.93427(14) -0.02402(13) 0.91125(11)
Se2 Se 0.87549(13) 0.02754(14) 1.01370(12)
Se3 Se 1.04872(14) 0.06422(14) 0.92055(12)
Se4 Se 0.61692(15) 0.04484(17) 0.48103(15)
Se5 Se 0.45340(17) 0.04473(19) 0.59014(14)
Se6 Se 0.98944(14) 0.11596(13) 1.02241(12)
Se7 Se 0.57891(18) -0.02725(16) 0.57979(15)
Se8 Se 0.49096(18) 0.11807(15) 0.49157(16)
P1 P 1.1396(4) 0.1071(4) 1.0098(4)
C1 C 1.171(3) 0.128(2) 0.9569(19)
H1 H 1.1423 0.1416 0.9369
H2 H 1.1968 0.1565 0.9636
C2 C 1.203(2) 0.087(3) 0.932(2)
H3 H 1.2184 0.1010 0.9041
H4 H 1.1779 0.0591 0.9243
H5 H 1.2324 0.0742 0.9510
C3 C 1.197(4) 0.080(5) 1.053(4)
H6 H 1.1870 0.0871 1.0853
H7 H 1.2038 0.0436 1.0493
C4 C 1.245(4) 0.114(4) 1.036(4)
H8 H 1.2793 0.1039 1.0506
H9 H 1.2376 0.1499 1.0434
H10 H 1.2487 0.1107 1.0034
C7 C 1.121(5) 0.171(4) 1.018(3)
H16 H 1.1486 0.1928 1.0037
H17 H 1.0854 0.1770 1.0036
C8 C 1.117(5) 0.185(4) 1.070(3)
H18 H 1.1034 0.2204 1.0722
H19 H 1.1529 0.1828 1.0837
H20 H 1.0912 0.1625 1.0847
P2 P 0.9304(4) 0.0643(4) 1.1248(3)
C11 C 0.9732(17) 0.1168(15) 1.1475(12)
H26 H 1.0106 0.1036 1.1525
H27 H 0.9756 0.1435 1.1242
C12 C 0.9230(15) 0.0175(14) 1.1718(12)
H28 H 0.9031 0.0340 1.1968
H29 H 0.9002 -0.0110 1.1610
C13 C 0.8607(15) 0.0921(16) 1.1203(12)
H30 H 0.8352 0.0652 1.1103
H31 H 0.8489 0.1027 1.1508
C14 C 0.9534(19) 0.1416(17) 1.1916(15)
H32 H 0.9790 0.1685 1.2003
H33 H 0.9519 0.1160 1.2154
H34 H 0.9169 0.1560 1.1870
C15 C 0.9788(17) -0.0049(17) 1.1911(14)
H35 H 0.9707 -0.0292 1.2152
H36 H 1.0013 0.0227 1.2031
H37 H 0.9988 -0.0222 1.1669
C16 C 0.855(2) 0.1360(17) 1.0896(14)
H38 H 0.8164 0.1469 1.0892
H39 H 0.8659 0.1261 1.0592
H40 H 0.8779 0.1638 1.1001
P3 P 0.5410(7) 0.0906(6) 0.3799(4)
C17 C 0.490(3) 0.133(2) 0.3670(19)
H41 H 0.4567 0.1136 0.3598
H42 H 0.4822 0.1530 0.3945
C18 C 0.500(2) 0.173(2) 0.3261(19)
H43 H 0.4672 0.1936 0.3215
H44 H 0.5087 0.1546 0.2984
H45 H 0.5311 0.1955 0.3336
C19 C 0.571(4) 0.039(5) 0.332(4)
H46 H 0.5946 0.0561 0.3097
H47 H 0.5929 0.0119 0.3469
C20 C 0.520(4) 0.015(4) 0.308(4)
H48 H 0.5289 0.0063 0.2771
H49 H 0.4896 0.0397 0.3083
H50 H 0.5082 -0.0155 0.3244
C23 C 0.613(4) 0.109(3) 0.380(3)
H56 H 0.6358 0.0811 0.3929
H57 H 0.6259 0.1152 0.3488
C24 C 0.618(4) 0.158(3) 0.409(3)
H58 H 0.6519 0.1760 0.4016
H59 H 0.6187 0.1488 0.4413
H60 H 0.5865 0.1800 0.4034
P4 P 0.3473(6) 0.0876(6) 0.5151(7)
C27 C 0.300(4) 0.070(4) 0.541(4)
H66 H 0.3146 0.0571 0.5700
H67 H 0.2844 0.0412 0.5248
C28 C 0.252(4) 0.107(4) 0.553(4)
H68 H 0.2262 0.0902 0.5729
H69 H 0.2330 0.1169 0.5249
H70 H 0.2665 0.1376 0.5674
C31 C 0.345(4) 0.143(4) 0.544(3)
H76 H 0.3542 0.1690 0.5210
H77 H 0.3053 0.1479 0.5503
C32 C 0.375(5) 0.160(5) 0.588(3)
H78 H 0.3799 0.1964 0.5876
H79 H 0.4114 0.1433 0.5887
H80 H 0.3539 0.1494 0.6139
C35 C 0.3005(19) 0.089(2) 0.471(2)
H86 H 0.2681 0.1086 0.4818
H87 H 0.3172 0.1093 0.4466
C36 C 0.2785(19) 0.036(2) 0.450(2)
H88 H 0.2529 0.0431 0.4252
H89 H 0.2599 0.0162 0.4731
H90 H 0.3096 0.0165 0.4381
N1 N 0.9156(11) 0.1083(10) 0.9239(9)
C37 C 0.9206(13) 0.1063(13) 0.8790(11)
H91 H 0.9418 0.0807 0.8650
C38 C 0.8922(15) 0.1447(14) 0.8525(13)
H92 H 0.8940 0.1427 0.8206
C39 C 0.8628(14) 0.1838(12) 0.8717(12)
C40 C 0.8583(15) 0.1823(13) 0.9202(12)
H93 H 0.8376 0.2076 0.9352
C41 C 0.8839(14) 0.1440(13) 0.9457(11)
H94 H 0.8795 0.1428 0.9774
C42 C 0.8346(15) 0.2252(12) 0.8444(12)
C43 C 0.8520(16) 0.2388(14) 0.8031(13)
H95 H 0.8805 0.2199 0.7894
C44 C 0.8289(17) 0.2806(15) 0.7791(15)
H96 H 0.8444 0.2907 0.7512
N2 N 0.7855(12) 0.3056(12) 0.7959(11)
C45 C 0.7664(17) 0.2926(15) 0.8375(13)
H97 H 0.7361 0.3108 0.8493
C46 C 0.7895(16) 0.2534(13) 0.8641(13)
H98 H 0.7760 0.2459 0.8933
N3 N 0.5790(12) 0.1047(12) 0.5801(10)
C47 C 0.5757(19) 0.1033(17) 0.6202(13)
H99 H 0.5537 0.0770 0.6324
C48 C 0.604(2) 0.1409(17) 0.6559(15)
H100 H 0.6015 0.1370 0.6875
C49 C 0.6339(19) 0.1796(18) 0.6351(15)
C50 C 0.641(2) 0.1781(19) 0.5899(16)
H101 H 0.6656 0.2019 0.5763
C51 C 0.6133(17) 0.1405(17) 0.5609(14)
H102 H 0.6187 0.1410 0.5293
C52 C 0.6596(17) 0.2213(15) 0.6633(14)
C53 C 0.644(2) 0.2305(16) 0.7085(15)
H103 H 0.6168 0.2099 0.7224
C54 C 0.6684(18) 0.2706(15) 0.7328(16)
H104 H 0.6559 0.2768 0.7625
N4 N 0.7071(12) 0.2996(11) 0.7172(11)
C55 C 0.7233(17) 0.2899(17) 0.6747(16)
H105 H 0.7524 0.3097 0.6627
C56 C 0.6999(18) 0.2524(16) 0.6468(16)
H106 H 0.7120 0.2487 0.6166
N5 N 0.6428(17) 0.3905(14) 0.7843(13)
O1 O 0.6662(12) 0.4078(11) 0.7477(11)
O2 O 0.6687(13) 0.3584(12) 0.8060(10)
O3 O 0.5986(13) 0.4073(13) 0.7982(12)
N6 N 0.8173(12) 0.3917(9) 0.6875(10)
O4 O 0.8452(18) 0.3677(19) 0.7159(15)
O5 O 0.7673(13) 0.4006(15) 0.6938(14)
O6 O 0.8412(16) 0.4082(17) 0.6533(13)
Zn1 Zn 0.74450(18) 0.36142(16) 0.75562(15)
N8 N 0.770(3) 0.4690(17) 0.787(2)
O10 O 0.731(5) 0.494(3) 0.803(5)
O11 O 0.7765(17) 0.4229(17) 0.7958(14)
O12 O 0.801(6) 0.491(3) 0.760(5)
Re1D Re 1.03961(5) -0.04802(5) 1.03460(4)
Re2D Re 0.94027(5) -0.04610(5) 0.99543(5)
Re4D Re 1.03078(5) -0.02723(5) 0.94643(5)
Se1D Se 1.06573(14) 0.02402(13) 1.08875(11)
Se2D Se 1.12451(13) -0.02754(14) 0.98630(12)
Re3D Re 0.46297(6) -0.04743(5) 0.46280(5)
Re5D Re 0.48026(7) -0.03796(6) 0.55162(5)
Re6D Re 0.56541(6) -0.03801(6) 0.49467(6)
Se5D Se 0.54660(17) -0.04473(19) 0.40986(14)
Se4D Se 0.38308(15) -0.04484(17) 0.51897(15)
Se8D Se 0.50904(18) -0.11807(15) 0.50843(16)
Se7D Se 0.42109(18) 0.02725(16) 0.42021(15)
N3D N 0.4210(12) -0.1047(12) 0.4199(10)
C47D C 0.4243(19) -0.1033(17) 0.3798(13)
H99D H 0.4463 -0.0770 0.3676
C48D C 0.396(2) -0.1409(17) 0.3441(15)
H100D H 0.3985 -0.1370 0.3125
C49D C 0.3661(19) -0.1796(18) 0.3649(15)
C50D C 0.359(2) -0.1781(19) 0.4101(16)
H101D H 0.3344 -0.2019 0.4237
C51D C 0.3867(17) -0.1405(17) 0.4391(14)
H102D H 0.3813 -0.1410 0.4707
C52D C 0.3404(17) -0.2213(15) 0.3367(14)
C53D C 0.356(2) -0.2305(16) 0.2915(15)
H103D H 0.3832 -0.2099 0.2776
C54D C 0.3316(18) -0.2706(15) 0.2672(16)
H104D H 0.3441 -0.2768 0.2375
N4D N 0.2929(12) -0.2996(11) 0.2828(11)
C55D C 0.2767(17) -0.2899(17) 0.3253(16)
H105D H 0.2476 -0.3097 0.3373
C56D C 0.3001(18) -0.2524(16) 0.3532(16)
H106D H 0.2880 -0.2487 0.3834
Zn1D Zn 0.25550(18) -0.36142(16) 0.24438(15)
N2D N 0.2145(12) -0.3056(12) 0.2041(11)
C44D C 0.1711(17) -0.2806(15) 0.2209(15)
C43D C 0.1480(16) -0.2388(14) 0.1969(13)
C42D C 0.1654(15) -0.2252(12) 0.1556(12)
C39D C 0.1372(14) -0.1838(12) 0.1283(12)
C38D C 0.1078(15) -0.1447(14) 0.1475(13)
C37D C 0.0794(13) -0.1063(13) 0.1210(11)
N1D N 0.0844(11) -0.1083(10) 0.0761(9)
Re1D_2 Re 0.03961(5) -0.04802(5) 0.03460(4)
C41D C 0.1161(14) -0.1440(13) 0.0543(11)
C40D C 0.1417(15) -0.1823(13) 0.0798(12)
H93D H 0.1624 -0.2076 0.0648
H94D H 0.1205 -0.1428 0.0226
H91D H 0.0582 -0.0807 0.1350
H92D H 0.1060 -0.1427 0.1794
C46D C 0.2105(16) -0.2534(13) 0.1359(13)
C45D C 0.2336(17) -0.2926(15) 0.1625(13)
H97D H 0.2639 -0.3108 0.1507
H98D H 0.2240 -0.2459 0.1067
H95D H 0.1195 -0.2199 0.2106
H96D H 0.1556 -0.2907 0.2488
O1D O 0.3338(12) -0.4078(11) 0.2523(11)
N5D N 0.3572(17) -0.3905(14) 0.2157(13)
O2D O 0.3313(13) -0.3584(12) 0.1940(10)
O4D O 0.1548(18) -0.3677(19) 0.2841(15)
N6D N 0.1827(12) -0.3917(9) 0.3125(10)
O5D O 0.2327(13) -0.4006(15) 0.3062(14)
O11D O 0.2235(17) -0.4229(17) 0.2042(14)
N8D N 0.230(3) -0.4690(17) 0.213(2)
O10D O 0.269(5) -0.494(3) 0.197(5)
O12D O 0.199(6) -0.491(3) 0.240(5)
O6D O 0.1588(16) -0.4082(17) 0.3467(13)
O3D O 0.4014(13) -0.4073(13) 0.2018(12)
P4D P 0.6527(6) -0.0876(6) 0.4849(7)
C27D C 0.700(4) -0.070(4) 0.459(4)
H66D H 0.6854 -0.0571 0.4300
H67D H 0.7156 -0.0412 0.4752
C28D C 0.748(4) -0.107(4) 0.447(4)
H68D H 0.7738 -0.0902 0.4271
H69D H 0.7670 -0.1169 0.4751
H70D H 0.7335 -0.1376 0.4326
C31D C 0.655(4) -0.143(4) 0.456(3)
H76D H 0.6458 -0.1690 0.4790
H77D H 0.6947 -0.1479 0.4497
C32D C 0.625(5) -0.160(5) 0.412(3)
H78D H 0.6201 -0.1964 0.4124
H79D H 0.5886 -0.1433 0.4113
H80D H 0.6461 -0.1494 0.3861
C35D C 0.6995(19) -0.089(2) 0.529(2)
H86D H 0.7319 -0.1086 0.5182
H87D H 0.6828 -0.1093 0.5534
C36D C 0.7215(19) -0.036(2) 0.550(2)
H88D H 0.7471 -0.0431 0.5748
H89D H 0.7401 -0.0162 0.5269
H90D H 0.6904 -0.0165 0.5619
P3D P 0.4590(7) -0.0906(6) 0.6201(4)
C17D C 0.510(3) -0.133(2) 0.6330(19)
H41D H 0.5433 -0.1136 0.6402
H42D H 0.5178 -0.1530 0.6055
C18D C 0.500(2) -0.173(2) 0.6739(19)
H43D H 0.5328 -0.1936 0.6785
H44D H 0.4913 -0.1546 0.7016
H45D H 0.4689 -0.1955 0.6664
C19D C 0.429(4) -0.039(5) 0.668(4)
H46D H 0.4054 -0.0561 0.6903
H47D H 0.4071 -0.0119 0.6531
C20D C 0.480(4) -0.015(4) 0.692(4)
H48D H 0.4711 -0.0063 0.7229
H49D H 0.5104 -0.0397 0.6917
H50D H 0.4918 0.0155 0.6756
C23D C 0.387(4) -0.109(3) 0.620(3)
H56D H 0.3642 -0.0811 0.6071
H57D H 0.3741 -0.1152 0.6512
C24D C 0.382(4) -0.158(3) 0.591(3)
H58D H 0.3481 -0.1760 0.5984
H59D H 0.3813 -0.1488 0.5587
H60D H 0.4135 -0.1800 0.5966
Se3D Se 0.95128(14) -0.06422(14) 1.07945(12)
Se6D Se 1.01056(14) -0.11596(13) 0.97759(12)
N1D_2 N 1.0844(11) -0.1083(10) 1.0761(9)
P1D P 0.8604(4) -0.1071(4) 0.9902(4)
C1D C 0.829(3) -0.128(2) 1.0431(19)
H1D H 0.8577 -0.1416 1.0631
H2D H 0.8032 -0.1565 1.0364
C2D C 0.797(2) -0.087(3) 1.068(2)
H3D H 0.7816 -0.1010 1.0959
H4D H 0.8221 -0.0591 1.0757
H5D H 0.7676 -0.0742 1.0490
C3D C 0.803(4) -0.080(5) 0.947(4)
H6D H 0.8130 -0.0871 0.9147
H7D H 0.7962 -0.0436 0.9507
C4D C 0.755(4) -0.114(4) 0.964(4)
H8D H 0.7207 -0.1039 0.9494
H9D H 0.7624 -0.1499 0.9566
H10D H 0.7513 -0.1107 0.9966
C7D C 0.879(5) -0.171(4) 0.982(3)
H16D H 0.8514 -0.1928 0.9963
H17D H 0.9146 -0.1770 0.9964
C8D C 0.883(5) -0.185(4) 0.930(3)
H18D H 0.8966 -0.2204 0.9278
H19D H 0.8471 -0.1828 0.9163
H20D H 0.9088 -0.1625 0.9153
P2D P 1.0696(4) -0.0643(4) 0.8752(3)
C11D C 1.0268(17) -0.1168(15) 0.8525(12)
H26D H 0.9894 -0.1036 0.8475
H27D H 1.0244 -0.1435 0.8758
C14D C 1.0466(19) -0.1416(17) 0.8084(15)
H32D H 1.0210 -0.1685 0.7997
H33D H 1.0481 -0.1160 0.7846
H34D H 1.0831 -0.1560 0.8130
C12D C 1.0770(15) -0.0175(14) 0.8282(12)
H28D H 1.0969 -0.0340 0.8032
H29D H 1.0998 0.0110 0.8390
C15D C 1.0212(17) 0.0049(17) 0.8089(14)
H35D H 1.0293 0.0292 0.7848
H36D H 0.9987 -0.0227 0.7969
H37D H 1.0012 0.0222 0.8331
C13D C 1.1393(15) -0.0921(16) 0.8797(12)
H30D H 1.1648 -0.0652 0.8897
H31D H 1.1511 -0.1027 0.8492
C16D C 1.145(2) -0.1360(17) 0.9104(14)
H38D H 1.1836 -0.1469 0.9108
H39D H 1.1341 -0.1261 0.9408
H40D H 1.1221 -0.1638 0.8999
N7 N 0.269(2) -0.2479(16) 0.4964(16)
O7 O 0.316(3) -0.256(2) 0.492(2)
O8 O 0.248(2) -0.2425(18) 0.4598(17)
O9 O 0.2449(15) -0.2537(13) 0.5304(12)
O13 O 0.142(4) -0.277(4) 0.435(4)
C57 C 0.145(6) -0.282(5) 0.381(5)
O14 O 0.470(3) 0.251(3) 0.454(2)
C58 C 0.481(4) 0.286(3) 0.416(3)
O15 O 0.524(3) 0.245(3) 0.556(3)
C59 C 0.530(5) 0.242(4) 0.506(3)
C5? C 1.199(3) 0.084(4) 1.035(3)
H11? H 1.1870 0.0609 1.0593
H12? H 1.2170 0.0622 1.0121
C6? C 1.247(4) 0.116(5) 1.056(4)
H13? H 1.2721 0.0935 1.0731
H14? H 1.2321 0.1413 1.0770
H15? H 1.2679 0.1332 1.0325
C9? C 1.128(4) 0.171(3) 1.037(2)
H21? H 1.1621 0.1912 1.0366
H22? H 1.0995 0.1902 1.0199
C10? C 1.108(3) 0.161(3) 1.0866(18)
H23? H 1.0988 0.1935 1.1009
H24? H 1.1379 0.1449 1.1035
H25? H 1.0761 0.1390 1.0863
C21? C 0.545(3) 0.059(4) 0.327(3)
H51? H 0.5600 0.0819 0.3042
H52? H 0.5693 0.0292 0.3298
C22? C 0.486(3) 0.041(4) 0.312(3)
H53? H 0.4898 0.0159 0.2875
H54? H 0.4648 0.0697 0.3014
H55? H 0.4673 0.0248 0.3375
C25? C 0.599(3) 0.133(3) 0.383(2)
H61? H 0.6319 0.1125 0.3867
H62? H 0.6017 0.1503 0.3532
C26? C 0.599(3) 0.175(3) 0.420(2)
H63? H 0.6359 0.1883 0.4243
H64? H 0.5856 0.1609 0.4487
H65? H 0.5745 0.2032 0.4112
C29? C 0.303(3) 0.055(3) 0.565(3)
H71? H 0.2951 0.0200 0.5559
H72? H 0.3263 0.0540 0.5921
C30? C 0.247(3) 0.081(4) 0.579(3)
H73? H 0.2273 0.0581 0.5990
H74? H 0.2251 0.0865 0.5515
H75? H 0.2544 0.1129 0.5936
C33? C 0.360(4) 0.159(3) 0.516(3)
H81? H 0.3854 0.1678 0.4913
H82? H 0.3249 0.1767 0.5104
C34? C 0.385(5) 0.178(5) 0.562(3)
H83? H 0.3739 0.2128 0.5669
H84? H 0.4246 0.1751 0.5606
H85? H 0.3706 0.1564 0.5862
O16? O 1.0000 0.155(4) 0.7500
C60? C 0.957(6) 0.165(7) 0.731(5)
loop_
_geom_bond_atom_site_label_1
_geom_bond_atom_site_label_2
_geom_bond_site_symmetry_1
_geom_bond_site_symmetry_2
Re1 Re2 1_555 1_555
Re2 Re4 1_555 1_555
Re3 Re5 1_555 1_555
Re4 Re1 1_555 1_555
Re5 Re6 1_555 1_555
Re6 Re3 1_555 1_555
Se1 Re1 1_555 1_555
Se2 Re1 1_555 1_555
Se3 Re1 1_555 1_555
Se4 Re3 1_555 1_555
Se5 Re3 1_555 1_555
Se6 Re1 1_555 1_555
Se7 Re3 1_555 1_555
Se8 Re3 1_555 1_555
P1 Re2 1_555 1_555
C1 P1 1_555 1_555
H1 C1 1_555 1_555
H2 C1 1_555 1_555
C2 C1 1_555 1_555
H3 C2 1_555 1_555
H4 C2 1_555 1_555
H5 C2 1_555 1_555
C3 P1 1_555 1_555
H6 C3 1_555 1_555
H7 C3 1_555 1_555
C4 C3 1_555 1_555
H8 C4 1_555 1_555
H9 C4 1_555 1_555
H10 C4 1_555 1_555
C7 P1 1_555 1_555
H16 C7 1_555 1_555
H17 C7 1_555 1_555
C8 C7 1_555 1_555
H18 C8 1_555 1_555
H19 C8 1_555 1_555
H20 C8 1_555 1_555
P2 Re4 1_555 1_555
C11 P2 1_555 1_555
H26 C11 1_555 1_555
H27 C11 1_555 1_555
C12 P2 1_555 1_555
H28 C12 1_555 1_555
H29 C12 1_555 1_555
C13 P2 1_555 1_555
H30 C13 1_555 1_555
H31 C13 1_555 1_555
C14 C11 1_555 1_555
H32 C14 1_555 1_555
H33 C14 1_555 1_555
H34 C14 1_555 1_555
C15 C12 1_555 1_555
H35 C15 1_555 1_555
H36 C15 1_555 1_555
H37 C15 1_555 1_555
C16 C13 1_555 1_555
H38 C16 1_555 1_555
H39 C16 1_555 1_555
H40 C16 1_555 1_555
P3 Re5 1_555 1_555
C17 P3 1_555 1_555
H41 C17 1_555 1_555
H42 C17 1_555 1_555
C18 C17 1_555 1_555
H43 C18 1_555 1_555
H44 C18 1_555 1_555
H45 C18 1_555 1_555
C19 P3 1_555 1_555
H46 C19 1_555 1_555
H47 C19 1_555 1_555
C20 C19 1_555 1_555
H48 C20 1_555 1_555
H49 C20 1_555 1_555
H50 C20 1_555 1_555
C23 P3 1_555 1_555
H56 C23 1_555 1_555
H57 C23 1_555 1_555
C24 C23 1_555 1_555
H58 C24 1_555 1_555
H59 C24 1_555 1_555
H60 C24 1_555 1_555
P4 Re6 1_555 1_555
C27 P4 1_555 1_555
H66 C27 1_555 1_555
H67 C27 1_555 1_555
C28 C27 1_555 1_555
H68 C28 1_555 1_555
H69 C28 1_555 1_555
H70 C28 1_555 1_555
C31 P4 1_555 1_555
H76 C31 1_555 1_555
H77 C31 1_555 1_555
C32 C31 1_555 1_555
H78 C32 1_555 1_555
H79 C32 1_555 1_555
H80 C32 1_555 1_555
C35 P4 1_555 1_555
H86 C35 1_555 1_555
H87 C35 1_555 1_555
C36 C35 1_555 1_555
H88 C36 1_555 1_555
H89 C36 1_555 1_555
H90 C36 1_555 1_555
N1 Re1 1_555 1_555
C37 N1 1_555 1_555
H91 C37 1_555 1_555
C38 C37 1_555 1_555
H92 C38 1_555 1_555
C39 C38 1_555 1_555
C40 C39 1_555 1_555
H93 C40 1_555 1_555
C41 N1 1_555 1_555
H94 C41 1_555 1_555
C42 C39 1_555 1_555
C43 C42 1_555 1_555
H95 C43 1_555 1_555
C44 C43 1_555 1_555
H96 C44 1_555 1_555
N2 C44 1_555 1_555
C45 N2 1_555 1_555
H97 C45 1_555 1_555
C46 C42 1_555 1_555
H98 C46 1_555 1_555
N3 Re3 1_555 1_555
C47 N3 1_555 1_555
H99 C47 1_555 1_555
C48 C47 1_555 1_555
H100 C48 1_555 1_555
C49 C48 1_555 1_555
C50 C49 1_555 1_555
H101 C50 1_555 1_555
C51 N3 1_555 1_555
H102 C51 1_555 1_555
C52 C49 1_555 1_555
C53 C52 1_555 1_555
H103 C53 1_555 1_555
C54 C53 1_555 1_555
H104 C54 1_555 1_555
N4 C54 1_555 1_555
C55 N4 1_555 1_555
H105 C55 1_555 1_555
C56 C52 1_555 1_555
H106 C56 1_555 1_555
N5 O1 1_555 1_555
O1 Zn1 1_555 1_555
O2 N5 1_555 1_555
O3 N5 1_555 1_555
N6 O4 1_555 1_555
O4 Zn1 1_555 1_555
O5 N6 1_555 1_555
O6 N6 1_555 1_555
N7 O7 1_555 1_555
O8 N7 1_555 1_555
O9 N7 1_555 1_555
Zn1 N2 1_555 1_555
N8 O10 1_555 1_555
O11 Zn1 1_555 1_555
O12 N8 1_555 1_555
O13 C57 1_555 1_555
O14 C58 1_555 1_555
O15 C59 1_555 1_555
Re1D Re2 1_555 1_555
Re2D Re1 1_555 1_555
Re4D Re1 1_555 1_555
Se1D Re2 1_555 1_555
Se2D Re2 1_555 1_555
Re3D Re5 1_555 1_555
Re5D Re3 1_555 1_555
Re6D Re3 1_555 1_555
Se5D Re5 1_555 1_555
Se4D Re6 1_555 1_555
Se8D Re3D 1_555 1_555
Se7D Re5 1_555 1_555
N3D Re3D 1_555 1_555
C47D N3D 1_555 1_555
H99D C47D 1_555 1_555
C48D C47D 1_555 1_555
H100D C48D 1_555 1_555
C49D C48D 1_555 1_555
C50D C49D 1_555 1_555
H101D C50D 1_555 1_555
C51D N3D 1_555 1_555
H102D C51D 1_555 1_555
C52D C49D 1_555 1_555
C53D C52D 1_555 1_555
H103D C53D 1_555 1_555
C54D C53D 1_555 1_555
H104D C54D 1_555 1_555
N4D C54D 1_555 1_555
C55D N4D 1_555 1_555
H105D C55D 1_555 1_555
C56D C52D 1_555 1_555
H106D C56D 1_555 1_555
Zn1D N4D 1_555 1_555
N2D Zn1D 1_555 1_555
C44D N2D 1_555 1_555
C43D C44D 1_555 1_555
C42D C43D 1_555 1_555
C39D C42D 1_555 1_555
C38D C39D 1_555 1_555
C37D C38D 1_555 1_555
N1D C37D 1_555 1_555
Re1D_2 N1D 1_555 1_555
C41D N1D 1_555 1_555
C40D C39D 1_555 1_555
H93D C40D 1_555 1_555
H94D C41D 1_555 1_555
H91D C37D 1_555 1_555
H92D C38D 1_555 1_555
C46D C42D 1_555 1_555
C45D N2D 1_555 1_555
H97D C45D 1_555 1_555
H98D C46D 1_555 1_555
H95D C43D 1_555 1_555
H96D C44D 1_555 1_555
O1D Zn1D 1_555 1_555
N5D O1D 1_555 1_555
O2D Zn1D 1_555 1_555
O4D Zn1D 1_555 1_555
N6D O4D 1_555 1_555
O5D Zn1D 1_555 1_555
O11D Zn1D 1_555 1_555
N8D O11D 1_555 1_555
O10D N8D 1_555 1_555
O12D N8D 1_555 1_555
O6D N6D 1_555 1_555
O3D N5D 1_555 1_555
P4D Re6D 1_555 1_555
C27D P4D 1_555 1_555
H66D C27D 1_555 1_555
H67D C27D 1_555 1_555
C28D C27D 1_555 1_555
H68D C28D 1_555 1_555
H69D C28D 1_555 1_555
H70D C28D 1_555 1_555
C31D P4D 1_555 1_555
H76D C31D 1_555 1_555
H77D C31D 1_555 1_555
C32D C31D 1_555 1_555
H78D C32D 1_555 1_555
H79D C32D 1_555 1_555
H80D C32D 1_555 1_555
C35D P4D 1_555 1_555
H86D C35D 1_555 1_555
H87D C35D 1_555 1_555
C36D C35D 1_555 1_555
H88D C36D 1_555 1_555
H89D C36D 1_555 1_555
H90D C36D 1_555 1_555
P3D Re5D 1_555 1_555
C17D P3D 1_555 1_555
H41D C17D 1_555 1_555
H42D C17D 1_555 1_555
C18D C17D 1_555 1_555
H43D C18D 1_555 1_555
H44D C18D 1_555 1_555
H45D C18D 1_555 1_555
C19D P3D 1_555 1_555
H46D C19D 1_555 1_555
H47D C19D 1_555 1_555
C20D C19D 1_555 1_555
H48D C20D 1_555 1_555
H49D C20D 1_555 1_555
H50D C20D 1_555 1_555
C23D P3D 1_555 1_555
H56D C23D 1_555 1_555
H57D C23D 1_555 1_555
C24D C23D 1_555 1_555
H58D C24D 1_555 1_555
H59D C24D 1_555 1_555
H60D C24D 1_555 1_555
Se3D Re4 1_555 1_555
Se6D Re1D 1_555 1_555
N1D_2 Re1D 1_555 1_555
P1D Re2D 1_555 1_555
C1D P1D 1_555 1_555
H1D C1D 1_555 1_555
H2D C1D 1_555 1_555
C2D C1D 1_555 1_555
H3D C2D 1_555 1_555
H4D C2D 1_555 1_555
H5D C2D 1_555 1_555
C3D P1D 1_555 1_555
H6D C3D 1_555 1_555
H7D C3D 1_555 1_555
C4D C3D 1_555 1_555
H8D C4D 1_555 1_555
H9D C4D 1_555 1_555
H10D C4D 1_555 1_555
C7D P1D 1_555 1_555
H16D C7D 1_555 1_555
H17D C7D 1_555 1_555
C8D C7D 1_555 1_555
H18D C8D 1_555 1_555
H19D C8D 1_555 1_555
H20D C8D 1_555 1_555
P2D Re4D 1_555 1_555
C11D P2D 1_555 1_555
H26D C11D 1_555 1_555
H27D C11D 1_555 1_555
C14D C11D 1_555 1_555
H32D C14D 1_555 1_555
H33D C14D 1_555 1_555
H34D C14D 1_555 1_555
C12D P2D 1_555 1_555
H28D C12D 1_555 1_555
H29D C12D 1_555 1_555
C15D C12D 1_555 1_555
H35D C15D 1_555 1_555
H36D C15D 1_555 1_555
H37D C15D 1_555 1_555
C13D P2D 1_555 1_555
H30D C13D 1_555 1_555
H31D C13D 1_555 1_555
C16D C13D 1_555 1_555
H38D C16D 1_555 1_555
H39D C16D 1_555 1_555
H40D C16D 1_555 1_555
Re2 Se6 1_555 1_555
Re2 Re4D 1_555 1_555
Re2 Se3 1_555 1_555
Re4 Re1D 1_555 1_555
Re4 Re2D 1_555 1_555
Re4 Se6 1_555 1_555
Re4 Se1D 1_555 1_555
Re4 Se2 1_555 1_555
Re5 Se8 1_555 1_555
Re5 Se4 1_555 1_555
Re5 Re6D 1_555 1_555
Re6 Re3D 1_555 1_555
Re6 Re5D 1_555 1_555
Re6 Se8 1_555 1_555
Re6 Se5 1_555 1_555
Re6 Se7D 1_555 1_555
Se1 Re2D 1_555 1_555
Se1 Re4D 1_555 1_555
Se2 Re2D 1_555 1_555
Se3 Re4D 1_555 1_555
Se4 Re6D 1_555 1_555
Se5 Re5D 1_555 1_555
Se7 Re5D 1_555 1_555
Se7 Re6D 1_555 1_555
C40 C41 1_555 1_555
C45 C46 1_555 1_555
C50 C51 1_555 1_555
N4 Zn1 1_555 1_555
C55 C56 1_555 1_555
O2 Zn1 1_555 1_555
O5 Zn1 1_555 1_555
N8 O11 1_555 1_555
Re1D Re2D 1_555 1_555
Re1D Re4D 1_555 1_555
Re1D Se2D 1_555 1_555
Re1D Se3D 1_555 1_555
Re1D Se1D 1_555 1_555
Re2D Re4D 1_555 1_555
Re2D Se3D 1_555 1_555
Re2D Se6D 1_555 1_555
Re4D Se2D 1_555 1_555
Re4D Se6D 1_555 1_555
Re3D Re5D 1_555 1_555
Re3D Re6D 1_555 1_555
Re3D Se4D 1_555 1_555
Re3D Se7D 1_555 1_555
Re3D Se5D 1_555 1_555
Re5D Se8D 1_555 1_555
Re5D Re6D 1_555 1_555
Re5D Se4D 1_555 1_555
Re6D Se8D 1_555 1_555
Re6D Se5D 1_555 1_555
C50D C51D 1_555 1_555
C55D C56D 1_555 1_555
C41D C40D 1_555 1_555
C46D C45D 1_555 1_555
N5D O2D 1_555 1_555
N6D O5D 1_555 1_555

#END
