
#######################################################################
#
#                 Cambridge Crystallographic Data Centre
#                                CCDC 
#
#######################################################################
#
# If this CIF has been generated from an entry in the Cambridge 
# Structural Database, then it will include bibliographic, chemical, 
# crystal, experimental, refinement or atomic coordinate data resulting 
# from the CCDC's data processing and validation procedures.
#
#######################################################################

data_ALIXOJ
_symmetry_cell_setting           monoclinic
_symmetry_space_group_name_H-M   'P 21/c'
_symmetry_Int_Tables_number      14
_space_group_name_Hall           '-P 2ybc'
loop_
_symmetry_equiv_pos_site_id
_symmetry_equiv_pos_as_xyz
1 x,y,z
2 -x,1/2+y,1/2-z
3 -x,-y,-z
4 x,1/2-y,1/2+z
_cell_length_a                   10.247(2)
_cell_length_b                   15.250(3)
_cell_length_c                   20.946(4)
_cell_angle_alpha                90
_cell_angle_beta                 99.91(3)
_cell_angle_gamma                90
_cell_volume                     3224.33
loop_
_atom_site_label
_atom_site_type_symbol
_atom_site_fract_x
_atom_site_fract_y
_atom_site_fract_z
Ni1 Ni 0.25327(8) 0.26181(5) 0.33127(4)
Ni2 Ni 0.20295(8) 0.14291(5) 0.18574(4)
C1 C 0.4830(6) 0.0217(4) 0.3380(3)
C2 C 0.5496(7) 0.0323(4) 0.4017(3)
H1 H 0.5292 0.0799 0.4260
C3 C 0.6460(6) -0.0272(4) 0.4293(3)
C4 C 0.6737(6) -0.0975(4) 0.3922(3)
H2 H 0.7366 -0.1385 0.4103
C5 C 0.6099(7) -0.1083(4) 0.3287(3)
C6 C 0.5140(7) -0.0478(5) 0.3012(3)
H3 H 0.4715 -0.0544 0.2585
C7 C 0.7231(7) -0.0110(5) 0.4963(3)
H4 H 0.7662 -0.0651 0.5128
H5 H 0.6621 0.0056 0.5249
C8 C 0.8287(6) 0.0613(4) 0.4976(3)
C9 C 0.8688(7) 0.1079(5) 0.5552(3)
H6 H 0.8326 0.0949 0.5919
C10 C 0.9646(7) 0.1747(5) 0.5572(3)
C11 C 1.0183(6) 0.1936(4) 0.5026(3)
H7 H 1.0804 0.2384 0.5037
C12 C 0.9792(7) 0.1454(4) 0.4454(3)
C13 C 0.8841(7) 0.0804(5) 0.4439(3)
H8 H 0.8572 0.0491 0.4058
C14 C 0.3819(7) 0.0886(4) 0.3088(3)
C15 C 1.0115(7) 0.2240(5) 0.6187(3)
C16 C 1.0443(7) 0.1653(4) 0.3878(3)
C17 C 0.6486(6) -0.1843(4) 0.2895(3)
C18 C 0.4247(8) 0.2714(5) 0.4583(4)
H9 H 0.3923 0.2147 0.4604
C19 C 0.5678(11) 0.3873(7) 0.5075(5)
H10 H 0.6298 0.3961 0.5469
H11 H 0.4982 0.4300 0.5047
H12 H 0.6126 0.3937 0.4711
C20 C 0.5532(10) 0.2456(7) 0.5642(5)
H13 H 0.6174 0.2774 0.5943
H14 H 0.5921 0.1922 0.5520
H15 H 0.4781 0.2320 0.5843
O1 O 0.3296(5) 0.0748(3) 0.2502(2)
O2 O 0.3644(5) 0.1530(3) 0.3431(2)
O3 O 0.9920(6) 0.1901(4) 0.6707(2)
H16 H 1.0218 0.2223 0.7011
O4 O 1.0694(5) 0.2960(3) 0.6137(2)
O5 O 1.1422(5) 0.2151(3) 0.3968(2)
O6 O 0.9923(5) 0.1309(3) 0.3344(2)
O7 O 0.6793(5) -0.2528(3) 0.3209(2)
O8 O 0.6474(5) -0.1720(3) 0.2301(2)
O9 O 0.1187(5) 0.2077(3) 0.2556(2)
H17 H 0.046(8) 0.181(8) 0.271(6)
O10 O 0.3817(5) 0.3154(3) 0.4085(2)
O11 O 0.1463(5) 0.3770(3) 0.3334(3)
O12 O 0.2842(5) 0.0763(4) 0.1162(3)
O13 O 0.0678(5) 0.0415(3) 0.1808(3)
N1 N 0.5109(6) 0.2986(4) 0.5073(3)
H18 H 0.142(12) 0.409(6) 0.295(3)
H19 H 0.191(11) 0.406(6) 0.372(3)
H20 H 0.284(11) 0.059(7) 0.0705(17)
H21 H 0.353(9) 0.041(7) 0.144(4)
H22 H 0.010(9) 0.047(8) 0.140(3)
H23 H 0.021(9) 0.012(8) 0.210(4)
Ni1_2 Ni 1.25327(8) 0.26181(5) 0.33127(4)
Ni1A Ni 0.74673(8) -0.23819(5) 0.16873(4)
Ni2C Ni 1.20295(8) 0.35709(5) 0.68574(4)
Ni2A Ni 0.79705(8) -0.35709(5) 0.31426(4)
O4C O 0.0694(5) 0.2040(3) 0.1137(2)
O5_2 O 0.1422(5) 0.2151(3) 0.3968(2)
O7A O 0.3207(5) 0.2472(3) 0.1791(2)
O8A O 0.3526(5) 0.3280(3) 0.2699(2)
O14 O 0.0509(8) 0.4722(4) 0.2219(3)
O15 O 0.2052(8) 0.4268(5) 0.4847(3)
O16 O 0.4569(8) 0.4905(6) 0.3550(3)
O17 O 0.0875(9) 0.5907(6) 0.4812(4)
loop_
_geom_bond_atom_site_label_1
_geom_bond_atom_site_label_2
_geom_bond_site_symmetry_1
_geom_bond_site_symmetry_2
Ni1 O2 1_555 1_555
Ni2 O1 1_555 1_555
C1 C2 1_555 1_555
C2 H1 1_555 1_555
C3 C2 1_555 1_555
C4 C3 1_555 1_555
H2 C4 1_555 1_555
C5 C4 1_555 1_555
C6 C1 1_555 1_555
H3 C6 1_555 1_555
C7 C3 1_555 1_555
H4 C7 1_555 1_555
H5 C7 1_555 1_555
C8 C7 1_555 1_555
C9 C8 1_555 1_555
H6 C9 1_555 1_555
C10 C9 1_555 1_555
C11 C10 1_555 1_555
H7 C11 1_555 1_555
C12 C11 1_555 1_555
C13 C8 1_555 1_555
H8 C13 1_555 1_555
C14 C1 1_555 1_555
C15 C10 1_555 1_555
C16 C12 1_555 1_555
C17 C5 1_555 1_555
C18 H9 1_555 1_555
C19 H10 1_555 1_555
H11 C19 1_555 1_555
H12 C19 1_555 1_555
C20 H13 1_555 1_555
H14 C20 1_555 1_555
H15 C20 1_555 1_555
O1 C14 1_555 1_555
O2 C14 1_555 1_555
O3 C15 1_555 1_555
H16 O3 1_555 1_555
O4 C15 1_555 1_555
O5 C16 1_555 1_555
O6 C16 1_555 1_555
O7 C17 1_555 1_555
O8 C17 1_555 1_555
O9 Ni1 1_555 1_555
H17 O9 1_555 1_555
O10 Ni1 1_555 1_555
O11 Ni1 1_555 1_555
O12 Ni2 1_555 1_555
O13 Ni2 1_555 1_555
N1 C18 1_555 1_555
H18 O11 1_555 1_555
H19 O11 1_555 1_555
H20 O12 1_555 1_555
H21 O12 1_555 1_555
H22 O13 1_555 1_555
H23 O13 1_555 1_555
Ni1_2 O5 1_555 1_555
Ni1A O8 1_555 1_555
Ni2C O4 1_555 1_555
Ni2A O7 1_555 1_555
O4C Ni2 1_555 1_555
O5_2 Ni1 1_555 1_555
O7A Ni2 1_555 1_555
O8A Ni1 1_555 1_555
Ni2 O9 1_555 1_555
C5 C6 1_555 1_555
C12 C13 1_555 1_555
C18 O10 1_555 1_555
C19 N1 1_555 1_555
C20 N1 1_555 1_555

#END
