
#######################################################################
#
#                 Cambridge Crystallographic Data Centre
#                                CCDC 
#
#######################################################################
#
# If this CIF has been generated from an entry in the Cambridge 
# Structural Database, then it will include bibliographic, chemical, 
# crystal, experimental, refinement or atomic coordinate data resulting 
# from the CCDC's data processing and validation procedures.
#
#######################################################################

data_ALIXUP
_symmetry_cell_setting           orthorhombic
_symmetry_space_group_name_H-M   'P c c n'
_symmetry_Int_Tables_number      56
_space_group_name_Hall           '-P 2ab 2ac'
loop_
_symmetry_equiv_pos_site_id
_symmetry_equiv_pos_as_xyz
1 x,y,z
2 1/2-x,1/2-y,z
3 -x,1/2+y,1/2-z
4 1/2+x,-y,1/2-z
5 -x,-y,-z
6 1/2+x,1/2+y,-z
7 x,1/2-y,1/2+z
8 1/2-x,y,1/2+z
_cell_length_a                   18.4609(10)
_cell_length_b                   18.6553(10)
_cell_length_c                   8.1387(4)
_cell_angle_alpha                90
_cell_angle_beta                 90
_cell_angle_gamma                90
_cell_volume                     2802.92
loop_
_atom_site_label
_atom_site_type_symbol
_atom_site_fract_x
_atom_site_fract_y
_atom_site_fract_z
Cu1 Cu 0.06924(3) 0.58564(3) 0.20933(7)
Cu2 Cu 0.5000 0.5000 0.0000
C1 C 0.2128(2) 0.42153(19) 0.2989(5)
C2 C 0.2822(2) 0.4415(2) 0.2542(5)
H1 H 0.2896 0.4833 0.1942
C3 C 0.3410(2) 0.3993(2) 0.2990(5)
C4 C 0.3301(2) 0.33741(19) 0.3917(4)
H2 H 0.3696 0.3097 0.4230
C5 C 0.2606(2) 0.31694(19) 0.4376(4)
C6 C 0.2021(2) 0.3586(2) 0.3891(5)
H3 H 0.1554 0.3445 0.4168
C7 C 0.2500 0.2500 0.5402(6)
H4 H 0.2919 0.2435 0.6105
C8 C 0.1496(2) 0.4680(2) 0.2544(5)
C9 C 0.4164(2) 0.4202(2) 0.2502(5)
O1 O 0.08743(16) 0.44293(18) 0.2475(5)
O2 O 0.16322(16) 0.53457(15) 0.2273(4)
O3 O 0.42224(16) 0.47229(17) 0.1513(5)
O4 O 0.46729(16) 0.38477(17) 0.3078(4)
O5 O 0.55719(16) 0.41685(14) 0.0533(4)
H5 H 0.554(4) 0.371(2) 0.005(8)
O6 O 0.0742(2) 0.5877(3) -0.0362(6)
H6 H 0.045(3) 0.619(2) -0.100(8)
H7 H 0.058(3) 0.5408(14) -0.065(3)
O7 O 0.1208(2) 0.6989(2) 0.1984(5)
H8 H 0.092(3) 0.731(3) 0.143(7)
H9 H 0.137(4) 0.720(3) 0.295(5)
Cu1A Cu 0.43076(3) -0.08564(3) 0.20933(7)
Cu1C Cu 0.56924(3) 0.41436(3) 0.29067(7)
Cu1B Cu -0.06924(3) 0.08564(3) 0.29067(7)
Cu1G Cu 0.43076(3) 0.58564(3) -0.29067(7)
Cu2A Cu 0.0000 0.0000 0.0000
C1A C 0.2872(2) 0.07847(19) 0.2989(5)
C2A C 0.2178(2) 0.0585(2) 0.2542(5)
H1A H 0.2104 0.0167 0.1942
C3A C 0.1590(2) 0.1007(2) 0.2990(5)
C4A C 0.1699(2) 0.16259(19) 0.3917(4)
H2A H 0.1304 0.1903 0.4230
C5A C 0.2394(2) 0.18306(19) 0.4376(4)
C6A C 0.2979(2) 0.1414(2) 0.3891(5)
H3A H 0.3446 0.1555 0.4168
H4A H 0.2081 0.2565 0.6105
C8A C 0.3504(2) 0.0320(2) 0.2544(5)
C9A C 0.0836(2) 0.0798(2) 0.2502(5)
O1A O 0.41257(16) 0.05707(18) 0.2475(5)
O2A O 0.33678(16) -0.03457(15) 0.2273(4)
O3A O 0.07776(16) 0.02771(17) 0.1513(5)
O3D O 0.57776(16) 0.52771(17) -0.1513(5)
O4A O 0.03271(16) 0.11523(17) 0.3078(4)
O4C O -0.03271(16) 0.61523(17) 0.1922(4)
O4B O 0.53271(16) -0.11523(17) 0.1922(4)
O5D O 0.44281(16) 0.58315(14) -0.0533(4)
O5C O 0.05719(16) 0.58315(14) 0.4467(4)
O5B O 0.44281(16) -0.08315(14) 0.4467(4)
H5D H 0.446(4) 0.629(2) -0.005(8)
H5C H 0.054(4) 0.629(2) 0.495(8)
H5B H 0.446(4) -0.129(2) 0.495(8)
O6A O 0.4258(2) -0.0877(3) -0.0362(6)
H6A H 0.455(3) -0.119(2) -0.100(8)
H7A H 0.442(3) -0.0408(14) -0.065(3)
O7A O 0.3792(2) -0.1989(2) 0.1984(5)
H8A H 0.408(3) -0.231(3) 0.143(7)
H9A H 0.363(4) -0.220(3) 0.295(5)
O8 O 0.0205(3) 0.7808(2) 0.0355(5)
O9 O 0.0456(3) 0.3027(2) 0.1808(5)
O11 O 0.2435(6) 0.6072(4) 0.4789(14)
O13 O 0.2500 0.7500 0.385(3)
O10? O 0.2036(17) 0.6219(15) 0.624(4)
O12? O 0.2142(10) 0.6217(10) 0.757(3)
O14? O 0.2054(13) 0.7533(16) 0.452(3)
loop_
_geom_bond_atom_site_label_1
_geom_bond_atom_site_label_2
_geom_bond_site_symmetry_1
_geom_bond_site_symmetry_2
Cu1 O2 1_555 1_555
Cu2 O3 1_555 1_555
C1 C2 1_555 1_555
C2 H1 1_555 1_555
C3 C2 1_555 1_555
C4 C3 1_555 1_555
H2 C4 1_555 1_555
C5 C4 1_555 1_555
C6 C1 1_555 1_555
H3 C6 1_555 1_555
C7 C5 1_555 1_555
H4 C7 1_555 1_555
C8 C1 1_555 1_555
C9 C3 1_555 1_555
O1 C8 1_555 1_555
O2 C8 1_555 1_555
O3 C9 1_555 1_555
O4 C9 1_555 1_555
O5 Cu2 1_555 1_555
H5 O5 1_555 1_555
O6 Cu1 1_555 1_555
H6 O6 1_555 1_555
H7 O6 1_555 1_555
O7 Cu1 1_555 1_555
H8 O7 1_555 1_555
H9 O7 1_555 1_555
Cu1A O2A 1_555 1_555
Cu1C O4 1_555 1_555
Cu1B O4A 1_555 1_555
Cu1G O5D 1_555 1_555
Cu2A O3A 1_555 1_555
C1A C2A 1_555 1_555
C2A H1A 1_555 1_555
C3A C2A 1_555 1_555
C4A C3A 1_555 1_555
H2A C4A 1_555 1_555
C5A C7 1_555 1_555
C6A C1A 1_555 1_555
H3A C6A 1_555 1_555
H4A C7 1_555 1_555
C8A C1A 1_555 1_555
C9A C3A 1_555 1_555
O1A C8A 1_555 1_555
O2A C8A 1_555 1_555
O3A C9A 1_555 1_555
O3D Cu2 1_555 1_555
O4A C9A 1_555 1_555
O4C Cu1 1_555 1_555
O4B Cu1A 1_555 1_555
O5D Cu2 1_555 1_555
O5C Cu1 1_555 1_555
O5B Cu1A 1_555 1_555
H5D O5D 1_555 1_555
H5C O5C 1_555 1_555
H5B O5B 1_555 1_555
O6A Cu1A 1_555 1_555
H6A O6A 1_555 1_555
H7A O6A 1_555 1_555
O7A Cu1A 1_555 1_555
H8A O7A 1_555 1_555
H9A O7A 1_555 1_555
C5 C6 1_555 1_555
O5 Cu1C 1_555 1_555
C4A C5A 1_555 1_555
C5A C6A 1_555 1_555

#END
