
#######################################################################
#
#                 Cambridge Crystallographic Data Centre
#                                CCDC 
#
#######################################################################
#
# If this CIF has been generated from an entry in the Cambridge 
# Structural Database, then it will include bibliographic, chemical, 
# crystal, experimental, refinement or atomic coordinate data resulting 
# from the CCDC's data processing and validation procedures.
#
#######################################################################

data_ALOJOA
_symmetry_cell_setting           triclinic
_symmetry_space_group_name_H-M   'P -1'
_symmetry_Int_Tables_number      2
_space_group_name_Hall           '-P 1'
loop_
_symmetry_equiv_pos_site_id
_symmetry_equiv_pos_as_xyz
1 x,y,z
2 -x,-y,-z
_cell_length_a                   8.6255(11)
_cell_length_b                   10.2268(17)
_cell_length_c                   15.110(2)
_cell_angle_alpha                94.596(9)
_cell_angle_beta                 100.913(8)
_cell_angle_gamma                113.450(7)
_cell_volume                     1182.66
loop_
_atom_site_label
_atom_site_type_symbol
_atom_site_fract_x
_atom_site_fract_y
_atom_site_fract_z
Zn1 Zn 0.0000 0.5000 0.5000
C1 C -0.3486(4) 0.4491(4) 0.5790(2)
H1 H -0.3036 0.4075 0.6293
H2 H -0.4615 0.4454 0.5870
C2 C -0.3820(4) 0.3532(4) 0.4890(2)
H3 H -0.4884 0.2629 0.4822
H4 H -0.4026 0.4036 0.4378
N1 N -0.2353(3) 0.3169(3) 0.48381(16)
H5 H -0.2214 0.2659 0.5307
C3 C -0.2599(4) 0.2269(3) 0.3966(2)
H6 H -0.3027 0.2668 0.3447
H7 H -0.3472 0.1270 0.3936
C4 C -0.0855(4) 0.2258(3) 0.3906(2)
H8 H -0.0452 0.1817 0.4409
H9 H -0.0986 0.1679 0.3317
N2 N 0.0416(3) 0.3752(3) 0.39761(15)
H10 H 0.0130 0.4050 0.3427
C5 C -0.2220(4) 0.6076(3) 0.58972(19)
H11 H -0.2318 0.6639 0.6431
H12 H -0.2537 0.6465 0.5346
O1 O -0.0774(3) 0.5242(2) 0.26689(13)
O2 O -0.1257(3) 0.5955(2) 0.39861(13)
C6 C -0.1202(4) 0.6014(3) 0.31586(18)
C7 C -0.1744(4) 0.7111(3) 0.27420(18)
C8 C -0.2873(4) 0.7540(3) 0.31022(19)
H13 H -0.3216 0.7194 0.3631
C9 C -0.3506(4) 0.8459(3) 0.2708(2)
H14 H -0.4300 0.8718 0.2954
C10 C -0.2973(4) 0.9002(3) 0.1950(2)
H15 H -0.3395 0.9639 0.1677
C11 C -0.1825(4) 0.8608(3) 0.1594(2)
H16 H -0.1451 0.8992 0.1081
C12 C -0.1211(4) 0.7659(3) 0.19768(18)
C13 C 0.0064(4) 0.7312(3) 0.15394(18)
O3 O -0.0549(3) 0.6634(2) 0.07399(13)
O4 O 0.1621(3) 0.7792(2) 0.19774(15)
Zn2 Zn 0.0000 0.5000 0.0000
C14 C 0.3441(4) 0.6786(4) -0.0167(2)
H17 H 0.3544 0.6059 -0.0598
H18 H 0.4619 0.7569 0.0095
N3 N 0.2703(3) 0.6105(3) 0.05711(16)
H19 H 0.2876 0.6844 0.1032
C15 C 0.3521(4) 0.5207(3) 0.0982(2)
H20 H 0.4773 0.5816 0.1257
H21 H 0.3427 0.4446 0.0499
C16 C 0.2644(4) 0.4500(4) 0.1718(2)
H22 H 0.3413 0.4138 0.2089
H23 H 0.2552 0.5256 0.2129
C17 C 0.0838(4) 0.3255(4) 0.1376(2)
H24 H 0.0860 0.2579 0.0876
H25 H 0.0534 0.2717 0.1881
N4 N -0.0504(3) 0.3760(3) 0.10408(16)
H26 H -0.0550 0.4341 0.1532
C18 C 0.2266(4) 0.7400(3) -0.0671(2)
H27 H 0.2740 0.7838 -0.1177
H28 H 0.2216 0.8165 -0.0248
C5A C 0.2220(4) 0.3924(3) 0.41028(19)
C1A C 0.3486(4) 0.5509(4) 0.4210(2)
H1A H 0.3036 0.5925 0.3707
H2A H 0.4615 0.5546 0.4130
C2A C 0.3820(4) 0.6468(4) 0.5110(2)
H3A H 0.4884 0.7371 0.5178
H4A H 0.4026 0.5964 0.5622
N1A N 0.2353(3) 0.6831(3) 0.51619(16)
H5A H 0.2214 0.7341 0.4693
C3A C 0.2599(4) 0.7731(3) 0.6034(2)
H6A H 0.3027 0.7332 0.6553
H7A H 0.3472 0.8730 0.6064
C4A C 0.0855(4) 0.7742(3) 0.6094(2)
H8A H 0.0452 0.8183 0.5591
H9A H 0.0986 0.8321 0.6683
N2A N -0.0416(3) 0.6248(3) 0.60239(15)
H10A H -0.0130 0.5950 0.6573
H11A H 0.2318 0.3361 0.3569
H12A H 0.2537 0.3535 0.4654
C18A C -0.2266(4) 0.2600(3) 0.0671(2)
C14A C -0.3441(4) 0.3214(4) 0.0167(2)
H17A H -0.3544 0.3941 0.0598
H18A H -0.4619 0.2431 -0.0095
N3A N -0.2703(3) 0.3895(3) -0.05711(16)
H19A H -0.2876 0.3156 -0.1032
C15A C -0.3521(4) 0.4793(3) -0.0982(2)
H20A H -0.4773 0.4184 -0.1257
H21A H -0.3427 0.5554 -0.0499
C16A C -0.2644(4) 0.5500(4) -0.1718(2)
H22A H -0.3413 0.5862 -0.2089
H23A H -0.2552 0.4744 -0.2129
C17A C -0.0838(4) 0.6745(4) -0.1376(2)
H24A H -0.0860 0.7421 -0.0876
H25A H -0.0534 0.7283 -0.1881
N4A N 0.0504(3) 0.6240(3) -0.10408(16)
H26A H 0.0550 0.5659 -0.1532
H27A H -0.2740 0.2162 0.1177
H28A H -0.2216 0.1835 0.0248
O1A O 0.0774(3) 0.4758(2) 0.73311(13)
O2A O 0.1257(3) 0.4045(2) 0.60139(13)
C6A C 0.1202(4) 0.3986(3) 0.68414(18)
C7A C 0.1744(4) 0.2889(3) 0.72580(18)
C8A C 0.2873(4) 0.2460(3) 0.68978(19)
H13A H 0.3216 0.2806 0.6369
C9A C 0.3506(4) 0.1541(3) 0.7292(2)
H14A H 0.4300 0.1282 0.7046
C10A C 0.2973(4) 0.0998(3) 0.8050(2)
H15A H 0.3395 0.0361 0.8323
C11A C 0.1825(4) 0.1392(3) 0.8406(2)
H16A H 0.1451 0.1008 0.8919
C12A C 0.1211(4) 0.2341(3) 0.80232(18)
C13A C -0.0064(4) 0.2688(3) 0.84606(18)
O3A O 0.0549(3) 0.3366(2) 0.92601(13)
O4A O -0.1621(3) 0.2208(2) 0.80226(15)
O3A_2 O 0.0549(3) 0.3366(2) -0.07399(13)
Zn2_2 Zn 0.0000 0.5000 1.0000
C19 C 0.3354(9) 1.1189(6) 0.1533(5)
H29 H 0.2851 1.1168 0.2064
H30 H 0.2441 1.0946 0.0970
H31 H 0.4266 1.2160 0.1568
O5 O 0.4053(5) 1.0212(4) 0.1526(3)
H32 H 0.343(8) 0.947(7) 0.171(4)
C20 C 0.2166(7) 0.9874(5) 0.4032(3)
H33 H 0.2743 1.0355 0.4667
H34 H 0.0903 0.9410 0.3963
H35 H 0.2443 1.0591 0.3625
O6 O 0.2753(4) 0.8822(3) 0.38032(19)
H36 H 0.233(6) 0.847(5) 0.325(3)
loop_
_geom_bond_atom_site_label_1
_geom_bond_atom_site_label_2
_geom_bond_site_symmetry_1
_geom_bond_site_symmetry_2
Zn1 N1 1_555 1_555
C1 H1 1_555 1_555
H2 C1 1_555 1_555
C2 C1 1_555 1_555
H3 C2 1_555 1_555
H4 C2 1_555 1_555
N1 C2 1_555 1_555
H5 N1 1_555 1_555
C3 N1 1_555 1_555
H6 C3 1_555 1_555
H7 C3 1_555 1_555
C4 C3 1_555 1_555
H8 C4 1_555 1_555
H9 C4 1_555 1_555
N2 Zn1 1_555 1_555
H10 N2 1_555 1_555
C5 C1 1_555 1_555
H11 C5 1_555 1_555
H12 C5 1_555 1_555
O1 C6 1_555 1_555
O2 Zn1 1_555 1_555
C6 O2 1_555 1_555
C7 C6 1_555 1_555
C8 C7 1_555 1_555
H13 C8 1_555 1_555
C9 C8 1_555 1_555
H14 C9 1_555 1_555
C10 C9 1_555 1_555
H15 C10 1_555 1_555
C11 C10 1_555 1_555
H16 C11 1_555 1_555
C12 C7 1_555 1_555
C13 C12 1_555 1_555
O3 C13 1_555 1_555
O4 C13 1_555 1_555
Zn2 O3 1_555 1_555
C14 H17 1_555 1_555
H18 C14 1_555 1_555
N3 Zn2 1_555 1_555
H19 N3 1_555 1_555
C15 N3 1_555 1_555
H20 C15 1_555 1_555
H21 C15 1_555 1_555
C16 C15 1_555 1_555
H22 C16 1_555 1_555
H23 C16 1_555 1_555
C17 C16 1_555 1_555
H24 C17 1_555 1_555
H25 C17 1_555 1_555
N4 Zn2 1_555 1_555
H26 N4 1_555 1_555
C18 C14 1_555 1_555
H27 C18 1_555 1_555
H28 C18 1_555 1_555
C19 H29 1_555 1_555
H30 C19 1_555 1_555
H31 C19 1_555 1_555
O5 C19 1_555 1_555
H32 O5 1_555 1_555
C20 H33 1_555 1_555
H34 C20 1_555 1_555
H35 C20 1_555 1_555
O6 C20 1_555 1_555
H36 O6 1_555 1_555
C5A N2 1_555 1_555
C1A C5A 1_555 1_555
H1A C1A 1_555 1_555
H2A C1A 1_555 1_555
C2A C1A 1_555 1_555
H3A C2A 1_555 1_555
H4A C2A 1_555 1_555
N1A Zn1 1_555 1_555
H5A N1A 1_555 1_555
C3A N1A 1_555 1_555
H6A C3A 1_555 1_555
H7A C3A 1_555 1_555
C4A C3A 1_555 1_555
H8A C4A 1_555 1_555
H9A C4A 1_555 1_555
N2A Zn1 1_555 1_555
H10A N2A 1_555 1_555
H11A C5A 1_555 1_555
H12A C5A 1_555 1_555
C18A N4 1_555 1_555
C14A C18A 1_555 1_555
H17A C14A 1_555 1_555
H18A C14A 1_555 1_555
N3A Zn2 1_555 1_555
H19A N3A 1_555 1_555
C15A N3A 1_555 1_555
H20A C15A 1_555 1_555
H21A C15A 1_555 1_555
C16A C15A 1_555 1_555
H22A C16A 1_555 1_555
H23A C16A 1_555 1_555
C17A C16A 1_555 1_555
H24A C17A 1_555 1_555
H25A C17A 1_555 1_555
N4A Zn2 1_555 1_555
H26A N4A 1_555 1_555
H27A C18A 1_555 1_555
H28A C18A 1_555 1_555
O1A C6A 1_555 1_555
O2A Zn1 1_555 1_555
C6A O2A 1_555 1_555
C7A C6A 1_555 1_555
C8A C7A 1_555 1_555
H13A C8A 1_555 1_555
C9A C8A 1_555 1_555
H14A C9A 1_555 1_555
C10A C9A 1_555 1_555
H15A C10A 1_555 1_555
C11A C10A 1_555 1_555
H16A C11A 1_555 1_555
C12A C7A 1_555 1_555
C13A C12A 1_555 1_555
O3A C13A 1_555 1_555
O4A C13A 1_555 1_555
O3A_2 Zn2 1_555 1_555
Zn2_2 O3A 1_555 1_555
C4 N2 1_555 1_555
C5 N2A 1_555 1_555
C11 C12 1_555 1_555
C14 N3 1_555 1_555
C17 N4 1_555 1_555
C18 N4A 1_555 1_555
C2A N1A 1_555 1_555
C4A N2A 1_555 1_555
C14A N3A 1_555 1_555
C17A N4A 1_555 1_555
C11A C12A 1_555 1_555

#END
