
#######################################################################
#
#                 Cambridge Crystallographic Data Centre
#                                CCDC 
#
#######################################################################
#
# If this CIF has been generated from an entry in the Cambridge 
# Structural Database, then it will include bibliographic, chemical, 
# crystal, experimental, refinement or atomic coordinate data resulting 
# from the CCDC's data processing and validation procedures.
#
#######################################################################

data_ALOKER
_symmetry_cell_setting           monoclinic
_symmetry_space_group_name_H-M   'P 21/n'
_symmetry_Int_Tables_number      14
_space_group_name_Hall           '-P 2yn'
loop_
_symmetry_equiv_pos_site_id
_symmetry_equiv_pos_as_xyz
1 x,y,z
2 1/2+x,1/2-y,1/2+z
3 -x,-y,-z
4 1/2-x,1/2+y,1/2-z
_cell_length_a                   3.9807(7)
_cell_length_b                   7.5170(15)
_cell_length_c                   18.262(4)
_cell_angle_alpha                90
_cell_angle_beta                 90.086(17)
_cell_angle_gamma                90
_cell_volume                     546.452
loop_
_atom_site_label
_atom_site_type_symbol
_atom_site_fract_x
_atom_site_fract_y
_atom_site_fract_z
Br1 Br -0.00092(11) 0.31258(6) 0.56079(3)
Fe1 Fe 0.5000 0.5000 0.5000
O1 O 0.497(1) 0.3256(4) 0.4079(2)
C1 C 0.4658(13) 0.1336(7) 0.4119(3)
C2 C 0.4605(13) 0.2215(7) 0.2869(3)
C3 C 0.5558(13) 0.3791(7) 0.3335(3)
C4 C 0.5451(13) 0.0653(7) 0.3364(3)
H1 H 0.6203(13) 0.0863(7) 0.4465(3)
H2 H 0.2439(13) 0.1015(7) 0.4254(3)
H3 H 0.7855(13) 0.4086(7) 0.3268(3)
H4 H 0.4202(13) 0.4789(7) 0.3215(3)
H5 H 0.2286(13) 0.2234(7) 0.2746(3)
H6 H 0.5901(13) 0.2181(7) 0.2434(3)
H7 H 0.7753(13) 0.0338(7) 0.3326(3)
H8 H 0.4097(13) -0.0349(7) 0.3248(3)
Br1_2 Br 0.99908(11) 0.31258(6) 0.56079(3)
O1B O 0.503(1) 0.6744(4) 0.5921(2)
C1B C 0.5342(13) 0.8664(7) 0.5881(3)
C2B C 0.5395(13) 0.7785(7) 0.7131(3)
C3B C 0.4442(13) 0.6209(7) 0.6665(3)
C4B C 0.4549(13) 0.9347(7) 0.6636(3)
H1B H 0.3797(13) 0.9137(7) 0.5535(3)
H2B H 0.7561(13) 0.8985(7) 0.5746(3)
H3B H 0.2145(13) 0.5914(7) 0.6732(3)
H4B H 0.5798(13) 0.5211(7) 0.6785(3)
H5B H 0.7714(13) 0.7766(7) 0.7254(3)
H6B H 0.4099(13) 0.7819(7) 0.7566(3)
H7B H 0.2247(13) 0.9662(7) 0.6674(3)
H8B H 0.5903(13) 1.0349(7) 0.6752(3)
Fe1_2 Fe -0.5000 0.5000 0.5000
Br1B Br 0.00092(11) 0.68742(6) 0.43921(3)
Br1B_2 Br 1.00092(11) 0.68742(6) 0.43921(3)
Fe1_3 Fe 1.5000 0.5000 0.5000
loop_
_geom_bond_atom_site_label_1
_geom_bond_atom_site_label_2
_geom_bond_site_symmetry_1
_geom_bond_site_symmetry_2
Br1 Fe1 1_555 1_555
Fe1 O1 1_555 1_555
O1 C1 1_555 1_555
C1 C4 1_555 1_555
C2 C3 1_555 1_555
C3 O1 1_555 1_555
C4 C2 1_555 1_555
H1 C1 1_555 1_555
H2 C1 1_555 1_555
H3 C3 1_555 1_555
H4 C3 1_555 1_555
H5 C2 1_555 1_555
H6 C2 1_555 1_555
H7 C4 1_555 1_555
H8 C4 1_555 1_555
Br1_2 Fe1 1_555 1_555
O1B Fe1 1_555 1_555
C1B O1B 1_555 1_555
C2B C3B 1_555 1_555
C3B O1B 1_555 1_555
C4B C1B 1_555 1_555
H1B C1B 1_555 1_555
H2B C1B 1_555 1_555
H3B C3B 1_555 1_555
H4B C3B 1_555 1_555
H5B C2B 1_555 1_555
H6B C2B 1_555 1_555
H7B C4B 1_555 1_555
H8B C4B 1_555 1_555
Fe1_2 Br1 1_555 1_555
Br1B Fe1 1_555 1_555
Br1B_2 Fe1 1_555 1_555
Fe1_3 Br1_2 1_555 1_555
C2B C4B 1_555 1_555
Fe1_2 Br1B 1_555 1_555
Br1B_2 Fe1_3 1_555 1_555

#END
