
#######################################################################
#
#                 Cambridge Crystallographic Data Centre
#                                CCDC 
#
#######################################################################
#
# If this CIF has been generated from an entry in the Cambridge 
# Structural Database, then it will include bibliographic, chemical, 
# crystal, experimental, refinement or atomic coordinate data resulting 
# from the CCDC's data processing and validation procedures.
#
#######################################################################

data_ALOLES
_symmetry_cell_setting           monoclinic
_symmetry_space_group_name_H-M   'C 2/c'
_symmetry_Int_Tables_number      15
_space_group_name_Hall           '-C 2yn'
loop_
_symmetry_equiv_pos_site_id
_symmetry_equiv_pos_as_xyz
1 x,y,z
2 1/2+x,1/2+y,z
3 x,-y,1/2+z
4 1/2+x,1/2-y,1/2+z
5 -x,-y,-z
6 1/2-x,1/2-y,-z
7 -x,y,1/2-z
8 1/2-x,1/2+y,1/2-z
_cell_length_a                   28.961(6)
_cell_length_b                   9.6050(19)
_cell_length_c                   28.086(6)
_cell_angle_alpha                90
_cell_angle_beta                 91.17(3)
_cell_angle_gamma                90
_cell_volume                     7811.07
loop_
_atom_site_label
_atom_site_type_symbol
_atom_site_fract_x
_atom_site_fract_y
_atom_site_fract_z
Bi1 Bi 0.099649(13) 0.58214(5) 0.021549(16)
Bi2 Bi 0.246438(14) 0.45172(5) 0.002341(17)
Bi3 Bi 0.011058(16) 0.59089(7) 0.144200(19)
O1 O 0.2658(4) 0.5491(11) 0.0897(4)
O2 O 0.2201(3) 0.6485(11) 0.0364(3)
O3 O 0.1429(3) 0.8525(12) 0.0655(4)
O4 O 0.1863(3) 0.9380(10) 0.0085(3)
O5 O 0.2083(3) 1.1915(10) 0.0636(3)
O6 O 0.1964(5) 1.2496(12) 0.1375(4)
O7 O 0.2634(3) 0.9398(9) 0.0635(3)
O8 O 0.0904(3) 0.5793(10) 0.1102(3)
O9 O 0.1562(3) 0.4728(11) 0.1019(4)
O10 O 0.0538(4) 0.7664(13) 0.1856(4)
O11 O 0.1230(4) 0.7851(15) 0.2162(6)
O12 O 0.0468(3) 0.4496(13) 0.3215(4)
O13 O 0.0427(3) 0.6639(14) 0.2942(4)
O14 O 0.0500(3) 0.4897(11) 0.1978(3)
O15 O 0.1605(3) 0.4204(10) -0.0091(3)
O16 O 0.1925(3) 0.2343(10) -0.0396(3)
O17 O 0.0729(3) 0.5095(10) -0.0516(3)
O18 O 0.0670(3) 0.3161(10) -0.0938(3)
O19 O -0.0239(3) 0.3547(10) -0.0371(3)
O20 O -0.0476(3) 0.2108(10) 0.0180(3)
O21 O 0.0702(3) 0.3827(10) 0.0316(3)
O22 O 0.0169(4) 0.3616(16) 0.1070(4)
C1 C 0.2395(4) 0.6476(14) 0.0787(5)
C2 C 0.2284(5) 0.7626(14) 0.1106(5)
H1 H 0.2528 0.7703 0.1346
H2 H 0.2001 0.7401 0.1268
C3 C 0.2224(4) 0.9027(14) 0.0865(5)
C4 C 0.1807(4) 0.8959(13) 0.0519(5)
C5 C 0.2117(5) 1.0154(16) 0.1251(5)
H3 H 0.1838 0.9890 0.1414
H4 H 0.2368 1.0167 0.1485
C6 C 0.2057(4) 1.1565(14) 0.1055(5)
C7 C 0.1258(4) 0.5162(15) 0.1275(5)
C8 C 0.1310(4) 0.4955(18) 0.1804(5)
H5 H 0.1600 0.5375 0.1909
H6 H 0.1333 0.3964 0.1867
C9 C 0.0918(4) 0.5559(16) 0.2110(5)
C10 C 0.0904(5) 0.7114(19) 0.2053(5)
C11 C 0.1021(4) 0.521(2) 0.2627(5)
H7 H 0.1282 0.5769 0.2737
H8 H 0.1110 0.4242 0.2650
C12 C 0.0616(5) 0.547(2) 0.2953(6)
C13 C 0.1594(4) 0.2936(15) -0.0196(4)
C14 C 0.1166(4) 0.2069(14) -0.0087(5)
H9 H 0.1210 0.1625 0.0220
H10 H 0.1134 0.1340 -0.0325
C15 C 0.0708(3) 0.2948(14) -0.0083(4)
C16 C 0.0688(3) 0.3765(15) -0.0561(5)
C17 C 0.0309(4) 0.1883(15) -0.0065(5)
H11 H 0.0336 0.1251 -0.0333
H12 H 0.0345 0.1336 0.0224
C18 C -0.0176(4) 0.2526(13) -0.0079(5)
O23 O 0.1530(3) 0.7235(11) -0.0500(4)
O15D O -0.1605(3) 0.5796(10) 0.0091(3)
O16D O -0.1925(3) 0.7657(10) 0.0396(3)
O17D O -0.0729(3) 0.4905(10) 0.0516(3)
O18D O -0.0670(3) 0.6839(10) 0.0938(3)
O19D O 0.0239(3) 0.6453(10) 0.0371(3)
O20D O 0.0476(3) 0.7892(10) -0.0180(3)
O21D O -0.0702(3) 0.6173(10) -0.0316(3)
C13D C -0.1594(4) 0.7064(15) 0.0196(4)
C14D C -0.1166(4) 0.7931(14) 0.0087(5)
H9D H -0.1210 0.8375 -0.0220
H10D H -0.1134 0.8660 0.0325
C15D C -0.0708(3) 0.7052(14) 0.0083(4)
C16D C -0.0688(3) 0.6235(15) 0.0561(5)
C17D C -0.0309(4) 0.8117(15) 0.0065(5)
H11D H -0.0336 0.8749 0.0333
H12D H -0.0345 0.8664 -0.0224
C18D C 0.0176(4) 0.7474(13) 0.0079(5)
Bi1D Bi -0.099649(13) 0.41786(5) -0.021549(16)
Bi2D Bi -0.246438(14) 0.54828(5) -0.002341(17)
Bi3F Bi -0.011058(16) 0.59089(7) 0.355800(19)
O1E O 0.2342(4) 0.9509(11) -0.0897(4)
O2E O 0.2799(3) 0.8515(11) -0.0364(3)
O3E O 0.3571(3) 0.6475(12) -0.0655(4)
O4E O 0.3137(3) 0.5620(10) -0.0085(3)
O5E O 0.2917(3) 0.3085(10) -0.0636(3)
O6E O 0.3036(5) 0.2504(12) -0.1375(4)
O7E O 0.2366(3) 0.5602(9) -0.0635(3)
C1E C 0.2605(4) 0.8524(14) -0.0787(5)
C2E C 0.2716(5) 0.7374(14) -0.1106(5)
H1E H 0.2472 0.7297 -0.1346
H2E H 0.2999 0.7599 -0.1268
C3E C 0.2776(4) 0.5973(14) -0.0865(5)
C4E C 0.3193(4) 0.6041(13) -0.0519(5)
C5E C 0.2883(5) 0.4846(16) -0.1251(5)
H3E H 0.3162 0.5110 -0.1414
H4E H 0.2632 0.4833 -0.1485
C6E C 0.2943(4) 0.3435(14) -0.1055(5)
O8F O -0.0904(3) 0.5793(10) 0.3898(3)
O9F O -0.1562(3) 0.4728(11) 0.3981(4)
O10F O -0.0538(4) 0.7664(13) 0.3144(4)
O11F O -0.1230(4) 0.7851(15) 0.2838(6)
O12F O -0.0468(3) 0.4496(13) 0.1785(4)
O13F O -0.0427(3) 0.6639(14) 0.2058(4)
O14F O -0.0500(3) 0.4897(11) 0.3022(3)
C7F C -0.1258(4) 0.5162(15) 0.3725(5)
C8F C -0.1310(4) 0.4955(18) 0.3196(5)
H5F H -0.1600 0.5375 0.3091
H6F H -0.1333 0.3964 0.3133
C9F C -0.0918(4) 0.5559(16) 0.2890(5)
C10F C -0.0904(5) 0.7114(19) 0.2947(5)
C11F C -0.1021(4) 0.521(2) 0.2373(5)
H7F H -0.1282 0.5769 0.2263
H8F H -0.1110 0.4242 0.2350
C12F C -0.0616(5) 0.547(2) 0.2047(6)
O23D O -0.1530(3) 0.2765(11) 0.0500(4)
O22F O -0.0169(4) 0.3616(16) 0.3930(4)
O16E O 0.3075(3) 0.2657(10) 0.0396(3)
Bi2E Bi 0.253562(14) 1.04828(5) -0.002341(17)
Bi2E_2 Bi 0.253562(14) 0.04828(5) -0.002341(17)
Bi3D Bi -0.011058(16) 0.40911(7) -0.144200(19)
Bi2A Bi -0.253562(14) 0.95172(5) 0.002341(17)
O8D O -0.0904(3) 0.4207(10) -0.1102(3)
O9D O -0.1562(3) 0.5272(11) -0.1019(4)
O1D O -0.2658(4) 0.4509(11) -0.0897(4)
O2D O -0.2201(3) 0.3515(11) -0.0364(3)
O4A O -0.3137(3) 0.4380(10) 0.0085(3)
O5A O -0.2917(3) 0.6915(10) 0.0636(3)
O7A O -0.2366(3) 0.4398(9) 0.0635(3)
O16A O -0.3075(3) 0.7343(10) -0.0396(3)
O18B O 0.0670(3) 0.6839(10) 0.4062(3)
Bi1F Bi -0.099649(13) 0.58214(5) 0.478451(16)
O24 O 0.1653(7) 0.457(2) -0.1296(8)
O25 O 0.1157(11) 1.081(3) 0.2188(12)
O26 O 0.3166(10) 0.341(4) 0.1414(11)
O27 O 0.2141(12) 0.793(4) 0.2617(12)
K1 K 0.0764(2) 0.7524(6) -0.1105(2)
N1 N 0.0000 0.899(2) 0.2500
N2 N 0.4397(6) 0.5608(17) -0.1028(6)
N3 N 0.0000 0.292(3) 0.2500
loop_
_geom_bond_atom_site_label_1
_geom_bond_atom_site_label_2
_geom_bond_site_symmetry_1
_geom_bond_site_symmetry_2
Bi1 O8 1_555 1_555
Bi2 O1 1_555 1_555
Bi3 O8 1_555 1_555
O1 C1 1_555 1_555
O2 Bi2 1_555 1_555
O3 C4 1_555 1_555
O4 C4 1_555 1_555
O5 C6 1_555 1_555
O6 C6 1_555 1_555
O7 C3 1_555 1_555
O8 C7 1_555 1_555
O9 Bi1 1_555 1_555
O10 Bi3 1_555 1_555
O11 C10 1_555 1_555
O12 C12 1_555 1_555
O13 C12 1_555 1_555
O14 Bi3 1_555 1_555
O15 Bi1 1_555 1_555
O16 Bi2 1_555 1_555
O17 Bi1 1_555 1_555
O18 C16 1_555 1_555
O19 C18 1_555 1_555
O20 C18 1_555 1_555
O21 Bi1 1_555 1_555
O22 Bi3 1_555 1_555
C1 O2 1_555 1_555
C2 C1 1_555 1_555
H1 C2 1_555 1_555
H2 C2 1_555 1_555
C3 C2 1_555 1_555
C4 C3 1_555 1_555
C5 C3 1_555 1_555
H3 C5 1_555 1_555
H4 C5 1_555 1_555
C6 C5 1_555 1_555
C7 O9 1_555 1_555
C8 C7 1_555 1_555
H5 C8 1_555 1_555
H6 C8 1_555 1_555
C9 O14 1_555 1_555
C10 O10 1_555 1_555
C11 C9 1_555 1_555
H7 C11 1_555 1_555
H8 C11 1_555 1_555
C12 C11 1_555 1_555
C13 O15 1_555 1_555
C14 C13 1_555 1_555
H9 C14 1_555 1_555
H10 C14 1_555 1_555
C15 O21 1_555 1_555
C16 O17 1_555 1_555
C17 C15 1_555 1_555
H11 C17 1_555 1_555
H12 C17 1_555 1_555
C18 C17 1_555 1_555
O23 Bi1 1_555 1_555
O15D C13D 1_555 1_555
O16D C13D 1_555 1_555
O17D C16D 1_555 1_555
O18D Bi3 1_555 1_555
O19D Bi1 1_555 1_555
O20D Bi1 1_555 1_555
O21D C15D 1_555 1_555
C13D C14D 1_555 1_555
C14D H9D 1_555 1_555
H10D C14D 1_555 1_555
C15D C14D 1_555 1_555
C16D O18D 1_555 1_555
C17D C15D 1_555 1_555
H11D C17D 1_555 1_555
H12D C17D 1_555 1_555
C18D O19D 1_555 1_555
Bi1D O19 1_555 1_555
Bi2D O15D 1_555 1_555
Bi3F O12 1_555 1_555
O1E C1E 1_555 1_555
O2E C1E 1_555 1_555
O3E C4E 1_555 1_555
O4E Bi2 1_555 1_555
O5E Bi2 1_555 1_555
O6E C6E 1_555 1_555
O7E Bi2 1_555 1_555
C1E C2E 1_555 1_555
C2E H1E 1_555 1_555
H2E C2E 1_555 1_555
C3E O7E 1_555 1_555
C4E O4E 1_555 1_555
C5E C3E 1_555 1_555
H3E C5E 1_555 1_555
H4E C5E 1_555 1_555
C6E O5E 1_555 1_555
O8F Bi3F 1_555 1_555
O9F C7F 1_555 1_555
O10F Bi3F 1_555 1_555
O11F C10F 1_555 1_555
O12F Bi3 1_555 1_555
O13F Bi3 1_555 1_555
O14F Bi3F 1_555 1_555
C7F O8F 1_555 1_555
C8F C7F 1_555 1_555
H5F C8F 1_555 1_555
H6F C8F 1_555 1_555
C9F O14F 1_555 1_555
C10F O10F 1_555 1_555
C11F C9F 1_555 1_555
H7F C11F 1_555 1_555
H8F C11F 1_555 1_555
C12F O12F 1_555 1_555
O23D Bi1D 1_555 1_555
O22F Bi3F 1_555 1_555
O16E Bi2 1_555 1_555
Bi2E O4 1_555 1_555
Bi2E_2 O16 1_555 1_555
Bi3D O18 1_555 1_555
Bi2A O16D 1_555 1_555
O8D Bi1D 1_555 1_555
O9D Bi1D 1_555 1_555
O1D Bi2D 1_555 1_555
O2D Bi2D 1_555 1_555
O4A Bi2D 1_555 1_555
O5A Bi2D 1_555 1_555
O7A Bi2D 1_555 1_555
O16A Bi2D 1_555 1_555
O18B Bi3F 1_555 1_555
Bi1F O8F 1_555 1_555
Bi2 O15 1_555 1_555
O5 Bi2E 1_555 1_555
O7 Bi2E 1_555 1_555
O13 Bi3F 1_555 1_555
O16 C13 1_555 1_555
O20 Bi1D 1_555 1_555
C8 C9 1_555 1_555
C9 C10 1_555 1_555
C14 C15 1_555 1_555
C15 C16 1_555 1_555
O15D Bi1D 1_555 1_555
O16D Bi2D 1_555 1_555
O17D Bi1D 1_555 1_555
O20D C18D 1_555 1_555
O21D Bi1D 1_555 1_555
C15D C16D 1_555 1_555
C17D C18D 1_555 1_555
O1E Bi2E 1_555 1_555
O2E Bi2E 1_555 1_555
C2E C3E 1_555 1_555
C3E C4E 1_555 1_555
C5E C6E 1_555 1_555
O9F Bi1F 1_555 1_555
O13F C12F 1_555 1_555
C8F C9F 1_555 1_555
C9F C10F 1_555 1_555
C11F C12F 1_555 1_555
O16E Bi2E_2 1_555 1_555
Bi3D O8D 1_555 1_555
Bi2A O16A 1_555 1_555

#END
