
#######################################################################
#
#                 Cambridge Crystallographic Data Centre
#                                CCDC 
#
#######################################################################
#
# If this CIF has been generated from an entry in the Cambridge 
# Structural Database, then it will include bibliographic, chemical, 
# crystal, experimental, refinement or atomic coordinate data resulting 
# from the CCDC's data processing and validation procedures.
#
#######################################################################

data_ALOLOD
_symmetry_cell_setting           trigonal
_symmetry_space_group_name_H-M   'P 3 1 c'
_symmetry_Int_Tables_number      159
_space_group_name_Hall           "P 3 -2'c"
loop_
_symmetry_equiv_pos_site_id
_symmetry_equiv_pos_as_xyz
1 x,y,z
2 -y,x-y,z
3 -x+y,-x,z
4 y,x,1/2+z
5 -x,-x+y,1/2+z
6 x-y,-y,1/2+z
_cell_length_a                   27.2340(2)
_cell_length_b                   27.2340(2)
_cell_length_c                   32.8706(7)
_cell_angle_alpha                90
_cell_angle_beta                 90
_cell_angle_gamma                120
_cell_volume                     21113.5
loop_
_atom_site_label
_atom_site_type_symbol
_atom_site_fract_x
_atom_site_fract_y
_atom_site_fract_z
In1 In -0.12618(4) -0.18269(4) -0.5506(3)
In2 In -0.38584(5) -0.53977(4) -0.6277(3)
In3 In -0.48331(4) -0.27650(4) -0.6276(3)
O1 O -0.0608(6) -0.1334(6) -0.5067(6)
O2 O 0.0551(5) -0.0773(5) -0.0931(5)
O3 O -0.0870(4) -0.2441(4) -0.5517(5)
O4 O -0.1805(5) -0.2775(4) -0.5517(5)
O5 O -0.2104(5) -0.1895(5) -0.5580(5)
O6 O -0.1390(6) -0.1050(6) -0.5600(6)
O7 O 0.1348(6) -0.0571(7) -0.1169(5)
O8 O -0.1426(9) -0.1890(7) -0.4798(5)
O9 O -0.4843(7) -0.3551(6) -0.6277(6)
O10 O -0.3870(5) -0.2396(5) -0.6245(6)
O11 O -0.5684(6) -0.3690(6) -0.6318(7)
O12 O -0.4180(5) -0.1777(5) -0.6261(6)
O13 O -0.4844(5) -0.2886(6) -0.5545(5)
O14 O -0.4095(6) -0.6136(5) -0.5838(6)
O15 O -0.4307(6) -0.4919(7) -0.6326(6)
O16 O -0.3095(5) -0.4545(5) -0.6185(4)
O17 O -0.4890(4) -0.5815(5) -0.6285(6)
O18 O -0.5319(6) -0.2570(6) -0.5835(6)
O19 O -0.6020(7) -0.2057(6) -0.1755(7)
O20 O -0.4699(5) -0.7235(6) -0.1716(6)
O21 O -0.5252(5) -0.8000(6) -0.1943(6)
O22 O -0.6270(11) -0.1501(9) -0.1915(7)
O23 O -0.2962(4) -0.5278(5) -0.6160(5)
O24 O -0.3963(5) -0.5371(4) -0.5576(5)
O25 O -0.2388(8) 0.0068(8) -0.6057(7)
H1 H -0.2149 0.0269 -0.5889
O26 O -0.6791(6) -0.5869(7) -0.6641(6)
H2 H -0.7013 -0.5814 -0.6507
O27 O -0.0832(7) -0.4281(8) -0.5746(7)
H3 H -0.0879 -0.4525 -0.5912
C1 C 0.0887(8) -0.0689(7) -0.1251(5)
C2 C 0.0595(8) -0.0788(6) -0.1658(6)
C3 C 0.0941(8) -0.0692(7) -0.1995(6)
H4 H 0.1318 -0.0597 -0.1965
C4 C 0.0702(7) -0.0743(8) -0.2377(6)
H5 H 0.0921 -0.0695 -0.2607
C5 C 0.0146(8) -0.0864(11) -0.2426(5)
C6 C -0.0208(8) -0.1014(11) -0.2089(6)
H6 H -0.0595 -0.1155 -0.2121
C7 C 0.0027(10) -0.0950(11) -0.1704(7)
H7 H -0.0198 -0.1016 -0.1475
C8 C -0.0261(15) -0.1038(17) -0.2755(9)
H8 H -0.0652 -0.1229 -0.2721
C9 C 0.0027(16) -0.0871(16) -0.3154(10)
H9 H 0.0419 -0.0639 -0.3156
C10 C -0.0260(15) -0.1046(15) -0.3543(10)
C11 C 0.0097(14) -0.0791(11) -0.3876(8)
H10 H 0.0481 -0.0530 -0.3849
C12 C -0.0170(15) -0.0962(12) -0.4251(8)
H11 H 0.0058 -0.0789 -0.4476
C13 C -0.0711(14) -0.1341(10) -0.4331(7)
C14 C -0.1098(15) -0.1626(14) -0.4017(8)
H12 H -0.1472 -0.1908 -0.4057
C15 C -0.0844(15) -0.1429(14) -0.3632(12)
H13 H -0.1086 -0.1566 -0.3409
C16 C -0.0928(15) -0.1567(12) -0.4756(8)
C17 C -0.2507(11) -0.0474(11) -0.6014(9)
C18 C -0.2117(9) -0.0599(8) -0.5828(7)
H14 H -0.1755 -0.0319 -0.5751
C19 C -0.2320(12) -0.1193(11) -0.5767(9)
C20 C -0.2821(7) -0.1565(7) -0.5957(6)
H15 H -0.2901 -0.1937 -0.5989
C21 C -0.3200(8) -0.1435(8) -0.6101(7)
C22 C -0.3065(8) -0.0857(7) -0.6109(7)
H16 H -0.3328 -0.0747 -0.6173
C23 C -0.3768(8) -0.1884(8) -0.6204(7)
C24 C -0.1893(7) -0.1389(7) -0.5656(6)
C25 C -0.6214(6) -0.5460(7) -0.6525(7)
C26 C -0.6108(8) -0.4907(7) -0.6499(7)
H17 H -0.6391 -0.4814 -0.6537
C27 C -0.5552(7) -0.4501(9) -0.6412(7)
C28 C -0.5144(7) -0.4661(7) -0.6366(8)
H18 H -0.4768 -0.4375 -0.6339
C29 C -0.5260(6) -0.5219(6) -0.6358(11)
C30 C -0.5807(6) -0.5621(8) -0.6472(11)
H19 H -0.5901 -0.5995 -0.6513
C31 C -0.4808(7) -0.5345(6) -0.6316(7)
C32 C -0.5377(10) -0.3885(10) -0.6351(9)
C33 C -0.6203(15) -0.1825(15) -0.2063(14)
C34 C -0.6172(9) -0.2009(8) -0.2491(6)
C35 C -0.5946(10) -0.2362(9) -0.2543(8)
H20 H -0.5854 -0.2522 -0.2327
C36 C -0.5869(11) -0.2455(12) -0.2948(7)
H21 H -0.5720 -0.2689 -0.3007
C37 C -0.6007(13) -0.2213(12) -0.3268(9)
C38 C -0.6255(11) -0.1881(10) -0.3204(5)
H22 H -0.6397 -0.1764 -0.3418
C39 C -0.6281(7) -0.1732(7) -0.2803(6)
H23 H -0.6369 -0.1451 -0.2745
C40 C -0.609(2) -0.235(3) -0.3698(9)
H24 H -0.6393 -0.2349 -0.3835
C41 C -0.5724(13) -0.2472(13) -0.3905(7)
H25 H -0.5480 -0.2526 -0.3737
C42 C -0.5650(10) -0.2534(10) -0.4335(7)
C43 C -0.5285(10) -0.2750(9) -0.4374(7)
H26 H -0.5150 -0.2847 -0.4146
C44 C -0.5129(12) -0.2815(11) -0.4764(6)
H27 H -0.4886 -0.2961 -0.4788
C45 C -0.5307(7) -0.2679(8) -0.5121(6)
C46 C -0.5685(9) -0.2478(10) -0.5074(10)
H28 H -0.5843 -0.2408 -0.5302
C47 C -0.5826(13) -0.2384(14) -0.4687(8)
H29 H -0.6047 -0.2214 -0.4662
C48 C -0.5103(8) -0.2756(7) -0.5509(5)
C49 C -0.1235(9) -0.4122(8) -0.5805(7)
C50 C -0.1778(9) -0.4525(9) -0.5977(9)
H30 H -0.1854 -0.4877 -0.6073
C51 C -0.2192(9) -0.4348(9) -0.5991(7)
C52 C -0.2082(9) -0.3837(8) -0.5795(8)
H31 H -0.2379 -0.3768 -0.5752
C53 C -0.1520(9) -0.3426(9) -0.5662(9)
C54 C -0.1125(9) -0.3610(7) -0.5669(9)
H32 H -0.0762 -0.3363 -0.5574
C55 C -0.1418(9) -0.2869(9) -0.5559(7)
C56 C -0.2783(6) -0.4750(8) -0.6120(9)
C57 C -0.4913(8) -0.7567(8) -0.2022(8)
C58 C -0.4724(7) -0.7363(9) -0.2432(8)
C59 C -0.4958(12) -0.7741(12) -0.2771(9)
H33 H -0.5225 -0.8123 -0.2736
C60 C -0.4750(14) -0.7491(15) -0.3182(8)
H34 H -0.4871 -0.7733 -0.3405
C61 C -0.4385(14) -0.691(2) -0.3249(10)
C62 C -0.4144(11) -0.6478(14) -0.2835(11)
H35 H -0.3895 -0.6090 -0.2857
C63 C -0.4325(11) -0.6714(14) -0.2502(9)
H36 H -0.4213 -0.6483 -0.2273
C64 C -0.4237(14) -0.6566(17) -0.3623(11)
H37 H -0.4085 -0.6175 -0.3630
C65 C -0.4342(15) -0.6868(14) -0.3919(19)
H38 H -0.4476 -0.7255 -0.3900
C66 C -0.4235(10) -0.6548(10) -0.4346(8)
C67 C -0.4373(10) -0.6876(10) -0.4697(7)
H39 H -0.4513 -0.7263 -0.4664
C68 C -0.4318(10) -0.6673(8) -0.5092(7)
H40 H -0.4404 -0.6909 -0.5317
C69 C -0.4127(9) -0.6098(8) -0.5131(7)
C70 C -0.3949(11) -0.5744(11) -0.4793(7)
H41 H -0.3775 -0.5353 -0.4828
C71 C -0.4031(12) -0.5971(11) -0.4404(9)
H42 H -0.3948 -0.5736 -0.4179
C72 C -0.4026(8) -0.5822(10) -0.5548(7)
In1D In 0.12618(4) -0.05651(6) -0.0506(3)
In2D In -0.61416(5) -0.15393(6) -0.1277(3)
In3D In -0.51669(4) -0.79319(6) -0.1276(3)
O2D O -0.0551(5) -0.1324(7) -0.5931(5)
O7D O -0.1348(6) -0.1919(9) -0.6169(5)
O19D O -0.3980(7) -0.6037(9) -0.6755(7)
O20D O -0.5301(5) -0.2536(8) -0.6716(6)
O21D O -0.4748(5) -0.2748(8) -0.6943(6)
O22D O -0.3730(11) -0.5231(14) -0.6915(7)
N1 N 0.0000 0.0000 -0.0468(10)
C73 C 0.0000 0.0000 -0.0933(10)
C74 C 0.0000 0.0000 -0.0003(10)
N2 N -0.225(2) 0.0704(18) -0.7049(15)
C75 C -0.202(3) 0.109(3) -0.6677(19)
H43 H -0.1927 0.1469 -0.6750
H44 H -0.1680 0.1097 -0.6583
H45 H -0.2295 0.0952 -0.6464
C76 C -0.235(2) 0.0147(19) -0.6864(19)
H46 H -0.2528 -0.0152 -0.7061
H47 H -0.2583 0.0056 -0.6628
H48 H -0.1988 0.0186 -0.6789
N3 N -0.4509(18) -0.1685(16) -0.2323(14)
C77 C -0.437(3) -0.185(3) -0.2736(17)
H49 H -0.4237 -0.1531 -0.2919
H50 H -0.4704 -0.2164 -0.2846
H51 H -0.4080 -0.1946 -0.2702
C78 C -0.479(2) -0.2269(19) -0.2120(19)
H52 H -0.4885 -0.2237 -0.1845
H53 H -0.4526 -0.2409 -0.2121
H54 H -0.5122 -0.2526 -0.2267
N4 N -0.3333 -0.6667 -0.1563(11)
C79 C -0.3333 -0.6667 -0.1098(11)
C80 C -0.3333 -0.6667 -0.2028(11)
N5 N -0.663(3) -0.567(3) -0.5485(10)
C81 C -0.640(3) -0.606(3) -0.537(2)
H55 H -0.6316 -0.6031 -0.5088
H56 H -0.6055 -0.5949 -0.5525
H57 H -0.6673 -0.6443 -0.5441
C82 C -0.6776(11) -0.5808(11) -0.5935(8)
H58 H -0.6871 -0.5544 -0.6052
H59 H -0.7093 -0.6186 -0.5959
H60 H -0.6455 -0.5784 -0.6075
N6 N 0.173(4) -0.040(4) -0.353(2)
C83 C 0.197(2) -0.045(2) -0.3122(19)
H61 H 0.2235 -0.0075 -0.3026
H62 H 0.2154 -0.0666 -0.3153
H63 H 0.1663 -0.0631 -0.2931
C84 C 0.113(4) -0.092(5) -0.354(4)
H64 H 0.0859 -0.0797 -0.3526
H65 H 0.1088 -0.1155 -0.3309
H66 H 0.1082 -0.1129 -0.3785
N7 N -0.396(2) -0.514(3) -0.343(2)
C85 C -0.448(3) -0.552(4) -0.317(3)
H67 H -0.4390 -0.5752 -0.3000
H68 H -0.4795 -0.5759 -0.3342
H69 H -0.4574 -0.5291 -0.3003
C86 C -0.413(5) -0.474(4) -0.363(4)
H70 H -0.3833 -0.4478 -0.3810
H71 H -0.4200 -0.4527 -0.3428
H72 H -0.4473 -0.4953 -0.3791
loop_
_geom_bond_atom_site_label_1
_geom_bond_atom_site_label_2
_geom_bond_site_symmetry_1
_geom_bond_site_symmetry_2
In1 O1 1_555 1_555
In2 O14 1_555 1_555
In3 O9 1_555 1_555
O1 C16 1_555 1_555
O2 C1 1_555 1_555
O3 In1 1_555 1_555
O4 In1 1_555 1_555
O5 In1 1_555 1_555
O6 In1 1_555 1_555
O7 C1 1_555 1_555
O8 In1 1_555 1_555
O9 C32 1_555 1_555
O10 In3 1_555 1_555
O11 In3 1_555 1_555
O12 In3 1_555 1_555
O13 In3 1_555 1_555
O14 C72 1_555 1_555
O15 In2 1_555 1_555
O16 In2 1_555 1_555
O17 In2 1_555 1_555
O18 In3 1_555 1_555
O19 C33 1_555 1_555
O20 C57 1_555 1_555
O21 C57 1_555 1_555
O22 C33 1_555 1_555
O23 In2 1_555 1_555
O24 In2 1_555 1_555
O25 H1 1_555 1_555
O26 H2 1_555 1_555
O27 H3 1_555 1_555
C1 C2 1_555 1_555
C2 C3 1_555 1_555
C3 H4 1_555 1_555
C4 C3 1_555 1_555
H5 C4 1_555 1_555
C5 C4 1_555 1_555
C6 C5 1_555 1_555
H6 C6 1_555 1_555
C7 C2 1_555 1_555
H7 C7 1_555 1_555
C8 C5 1_555 1_555
H8 C8 1_555 1_555
C9 C8 1_555 1_555
H9 C9 1_555 1_555
C10 C9 1_555 1_555
C11 C10 1_555 1_555
H10 C11 1_555 1_555
C12 C11 1_555 1_555
H11 C12 1_555 1_555
C13 C12 1_555 1_555
C14 C13 1_555 1_555
H12 C14 1_555 1_555
C15 C10 1_555 1_555
H13 C15 1_555 1_555
C16 O8 1_555 1_555
C17 O25 1_555 1_555
C18 C17 1_555 1_555
H14 C18 1_555 1_555
C19 C18 1_555 1_555
C20 C19 1_555 1_555
H15 C20 1_555 1_555
C21 C20 1_555 1_555
C22 C17 1_555 1_555
H16 C22 1_555 1_555
C23 O10 1_555 1_555
C24 O5 1_555 1_555
C25 O26 1_555 1_555
C26 C25 1_555 1_555
H17 C26 1_555 1_555
C27 C26 1_555 1_555
C28 C27 1_555 1_555
H18 C28 1_555 1_555
C29 C28 1_555 1_555
C30 C25 1_555 1_555
H19 C30 1_555 1_555
C31 O15 1_555 1_555
C32 O11 1_555 1_555
C33 C34 1_555 1_555
C34 C35 1_555 1_555
C35 H20 1_555 1_555
C36 C35 1_555 1_555
H21 C36 1_555 1_555
C37 C36 1_555 1_555
C38 C37 1_555 1_555
H22 C38 1_555 1_555
C39 C34 1_555 1_555
H23 C39 1_555 1_555
C40 C37 1_555 1_555
H24 C40 1_555 1_555
C41 C40 1_555 1_555
H25 C41 1_555 1_555
C42 C41 1_555 1_555
C43 C42 1_555 1_555
H26 C43 1_555 1_555
C44 C43 1_555 1_555
H27 C44 1_555 1_555
C45 C44 1_555 1_555
C46 C45 1_555 1_555
H28 C46 1_555 1_555
C47 C42 1_555 1_555
H29 C47 1_555 1_555
C48 O13 1_555 1_555
C49 O27 1_555 1_555
C50 C49 1_555 1_555
H30 C50 1_555 1_555
C51 C50 1_555 1_555
C52 C51 1_555 1_555
H31 C52 1_555 1_555
C53 C52 1_555 1_555
C54 C49 1_555 1_555
H32 C54 1_555 1_555
C55 O3 1_555 1_555
C56 O16 1_555 1_555
C57 C58 1_555 1_555
C58 C59 1_555 1_555
C59 H33 1_555 1_555
C60 C59 1_555 1_555
H34 C60 1_555 1_555
C61 C60 1_555 1_555
C62 C61 1_555 1_555
H35 C62 1_555 1_555
C63 C58 1_555 1_555
H36 C63 1_555 1_555
C64 C61 1_555 1_555
H37 C64 1_555 1_555
C65 C64 1_555 1_555
H38 C65 1_555 1_555
C66 C65 1_555 1_555
C67 C66 1_555 1_555
H39 C67 1_555 1_555
C68 C67 1_555 1_555
H40 C68 1_555 1_555
C69 C68 1_555 1_555
C70 C69 1_555 1_555
H41 C70 1_555 1_555
C71 C66 1_555 1_555
H42 C71 1_555 1_555
C72 O24 1_555 1_555
N1 C73 1_555 1_555
C74 N1 1_555 1_555
N2 C75 1_555 1_555
C75 H43 1_555 1_555
H44 C75 1_555 1_555
H45 C75 1_555 1_555
C76 N2 1_555 1_555
H46 C76 1_555 1_555
H47 C76 1_555 1_555
H48 C76 1_555 1_555
N3 C77 1_555 1_555
C77 H49 1_555 1_555
H50 C77 1_555 1_555
H51 C77 1_555 1_555
C78 N3 1_555 1_555
H52 C78 1_555 1_555
H53 C78 1_555 1_555
H54 C78 1_555 1_555
N4 C79 1_555 1_555
C80 N4 1_555 1_555
N5 C81 1_555 1_555
C81 H55 1_555 1_555
H56 C81 1_555 1_555
H57 C81 1_555 1_555
C82 N5 1_555 1_555
H58 C82 1_555 1_555
H59 C82 1_555 1_555
H60 C82 1_555 1_555
N6 C83 1_555 1_555
C83 H61 1_555 1_555
H62 C83 1_555 1_555
H63 C83 1_555 1_555
C84 N6 1_555 1_555
H64 C84 1_555 1_555
H65 C84 1_555 1_555
H66 C84 1_555 1_555
N7 C85 1_555 1_555
C85 H67 1_555 1_555
H68 C85 1_555 1_555
H69 C85 1_555 1_555
C86 N7 1_555 1_555
H70 C86 1_555 1_555
H71 C86 1_555 1_555
H72 C86 1_555 1_555
In1D O2 1_555 1_555
In2D O19 1_555 1_555
In3D O20 1_555 1_555
O2D In1 1_555 1_555
O7D In1 1_555 1_555
O19D In2 1_555 1_555
O20D In3 1_555 1_555
O21D In3 1_555 1_555
O22D In2 1_555 1_555
O4 C55 1_555 1_555
O6 C24 1_555 1_555
O7 In1D 1_555 1_555
O12 C23 1_555 1_555
O17 C31 1_555 1_555
O18 C48 1_555 1_555
O21 In3D 1_555 1_555
O22 In2D 1_555 1_555
O23 C56 1_555 1_555
C6 C7 1_555 1_555
C13 C16 1_555 1_555
C14 C15 1_555 1_555
C19 C24 1_555 1_555
C21 C22 1_555 1_555
C21 C23 1_555 1_555
C27 C32 1_555 1_555
C29 C30 1_555 1_555
C29 C31 1_555 1_555
C38 C39 1_555 1_555
C45 C48 1_555 1_555
C46 C47 1_555 1_555
C51 C56 1_555 1_555
C53 C54 1_555 1_555
C53 C55 1_555 1_555
C62 C63 1_555 1_555
C69 C72 1_555 1_555
C70 C71 1_555 1_555

#END
