
#######################################################################
#
#                 Cambridge Crystallographic Data Centre
#                                CCDC 
#
#######################################################################
#
# If this CIF has been generated from an entry in the Cambridge 
# Structural Database, then it will include bibliographic, chemical, 
# crystal, experimental, refinement or atomic coordinate data resulting 
# from the CCDC's data processing and validation procedures.
#
#######################################################################

data_ALONUK
_symmetry_cell_setting           monoclinic
_symmetry_space_group_name_H-M   'P 21/n'
_symmetry_Int_Tables_number      14
_space_group_name_Hall           '-P 2yn'
loop_
_symmetry_equiv_pos_site_id
_symmetry_equiv_pos_as_xyz
1 x,y,z
2 1/2+x,1/2-y,1/2+z
3 -x,-y,-z
4 1/2-x,1/2+y,1/2-z
_cell_length_a                   11.0367(10)
_cell_length_b                   10.6323(9)
_cell_length_c                   14.2524(12)
_cell_angle_alpha                90.00
_cell_angle_beta                 111.998(2)
_cell_angle_gamma                90.00
_cell_volume                     1550.7
loop_
_atom_site_label
_atom_site_type_symbol
_atom_site_fract_x
_atom_site_fract_y
_atom_site_fract_z
O9 O 0.3227(4) 1.2529(4) 0.7489(4)
H11 H 0.272(7) 1.278(6) 0.685(5)
H12 H 0.314(6) 1.316(5) 0.774(4)
V1 V 0.72731(7) 1.38266(5) 0.90518(5)
O1 O 0.6607(3) 1.5509(2) 0.83874(18)
O2 O 0.6875(3) 1.1523(2) 1.05051(19)
O3 O 0.7651(2) 1.19945(19) 0.93040(17)
O4 O 0.5838(2) 1.3713(2) 0.95471(17)
C1 C 0.7457(4) 1.1246(3) 0.9941(3)
O5 O 0.5390(3) 1.6332(2) 0.9194(2)
O6 O 0.8440(3) 1.4382(2) 1.00025(18)
O7 O 0.5766(3) 1.3094(3) 0.7624(3)
C2 C 0.5956(4) 1.6367(3) 0.8575(3)
C3 C 0.5879(3) 1.7595(3) 0.8036(2)
N1 N 0.9048(3) 0.8448(2) 0.9258(2)
C4 C 0.8582(4) 0.9592(3) 0.9297(3)
C5 C 0.5185(4) 1.8621(3) 0.8160(3)
C6 C 0.8399(4) 0.7858(4) 1.0617(3)
C7 C 0.7897(4) 0.9039(3) 1.0637(3)
C8 C 0.7988(3) 0.9943(3) 0.9957(3)
C9 C 0.8970(4) 0.7605(4) 0.9932(3)
N2 N 0.8416(3) 1.3758(2) 0.81148(19)
C10 C 0.9109(4) 1.4738(3) 0.7993(3)
C11 C 0.6563(4) 1.7700(3) 0.7395(3)
C12 C 0.5187(4) 1.9710(3) 0.7629(3)
V2 V 0.45454(13) 1.48529(12) 0.96760(10)
O8 O 0.3240(19) 1.4597(19) 0.8769(17)
H1 H 0.835(3) 0.726(3) 1.103(2)
H2 H 0.865(3) 1.020(3) 0.883(2)
H3 H 0.472(3) 2.041(2) 0.769(2)
H4 H 0.464(3) 1.863(2) 0.856(2)
H5 H 0.914(3) 1.549(3) 0.837(2)
H6 H 0.703(3) 1.701(3) 0.730(2)
H7 H 0.572(4) 1.312(3) 0.718(3)
H8 H 0.933(3) 0.683(3) 0.991(2)
H9 H 0.754(3) 0.926(3) 1.110(2)
H10 H 0.487(5) 1.313(4) 0.752(3)
O10 O 0.306(2) 1.488(2) 0.867(2)
V2B V 0.54546(13) 1.51471(12) 1.03240(10)
C11C C 0.8437(4) 1.2700(3) 0.7605(3)
C12C C 0.9813(4) 1.4710(3) 0.7371(3)
N2C N 0.6584(3) 1.8758(2) 0.68852(19)
C10C C 0.5891(4) 1.9738(3) 0.7007(3)
O4B O 0.4162(2) 1.6287(2) 1.04529(17)
O5B O 0.4610(3) 1.3668(2) 1.0806(2)
O8B O 0.6760(19) 1.5403(19) 1.1231(17)
O10B O 0.694(2) 1.512(2) 1.133(2)
C3C C 0.9121(3) 1.2595(3) 0.6964(2)
H6C H 0.797(3) 1.201(3) 0.770(2)
C5C C 0.9815(4) 1.3621(3) 0.6840(3)
H3C H 1.028(3) 1.541(2) 0.731(2)
V1C V 0.77269(7) 1.88266(5) 0.59482(5)
H5C H 0.586(3) 2.049(3) 0.663(2)
V1B V 0.27269(7) 1.61734(5) 1.09482(5)
C2B C 0.4044(4) 1.3633(3) 1.1425(3)
C2C C 0.9044(4) 1.1367(3) 0.6425(3)
H4C H 1.036(3) 1.363(2) 0.644(2)
O1C O 0.8393(3) 2.0509(2) 0.66126(18)
O3C O 0.7349(2) 1.69945(19) 0.56960(17)
O4C O 0.9162(2) 1.8713(2) 0.54529(17)
O6C O 0.6560(3) 1.9382(2) 0.49975(18)
O7C O 0.9234(3) 1.8094(3) 0.7376(3)
O1B O 0.3393(3) 1.4491(2) 1.16126(18)
O3B O 0.2349(2) 1.80055(19) 1.06960(17)
O6B O 0.1560(3) 1.5618(2) 0.99975(18)
O7B O 0.4234(3) 1.6906(3) 1.2376(3)
N2B N 0.1584(3) 1.6242(2) 1.18852(19)
C3B C 0.4121(3) 1.2405(3) 1.1964(2)
C5B C 0.4815(4) 1.1379(3) 1.1840(3)
C11B C 0.3437(4) 1.2300(3) 1.2605(3)
C12B C 0.4813(4) 1.0290(3) 1.2371(3)
H4B H 0.536(3) 1.137(2) 1.144(2)
N2A N 0.3416(3) 1.1242(2) 1.31148(19)
H6B H 0.297(3) 1.299(3) 1.270(2)
C10A C 0.4109(4) 1.0262(3) 1.2993(3)
H3B H 0.528(3) 0.959(2) 1.231(2)
V1A V 0.22731(7) 1.11734(5) 1.40518(5)
H5A H 0.414(3) 0.951(3) 1.337(2)
O1C_2 O 0.8393(3) 1.0509(2) 0.66126(18)
O5C O 0.9610(3) 1.1332(2) 0.5806(2)
V1C_2 V 0.77269(7) 0.88266(5) 0.59482(5)
V2A V 0.95454(13) 1.01471(12) 0.46760(10)
V2C V 1.04546(13) 0.98529(12) 0.53240(10)
loop_
_geom_bond_atom_site_label_1
_geom_bond_atom_site_label_2
_geom_bond_site_symmetry_1
_geom_bond_site_symmetry_2
V1 O1 1_555 1_555
O1 C2 1_555 1_555
O2 C1 1_555 1_555
O3 V1 1_555 1_555
O4 V1 1_555 1_555
C1 O3 1_555 1_555
O5 C2 1_555 1_555
O6 V1 1_555 1_555
O7 V1 1_555 1_555
C2 C3 1_555 1_555
C3 C5 1_555 1_555
N1 C4 1_555 1_555
C4 C8 1_555 1_555
C5 C12 1_555 1_555
C6 C7 1_555 1_555
C7 C8 1_555 1_555
C8 C1 1_555 1_555
C9 N1 1_555 1_555
N2 V1 1_555 1_555
C10 N2 1_555 1_555
C11 C3 1_555 1_555
C12 H3 1_555 1_555
V2 O4 1_555 1_555
O8 V2 1_555 1_555
O9 H11 1_555 1_555
H1 C6 1_555 1_555
H2 C4 1_555 1_555
H4 C5 1_555 1_555
H5 C10 1_555 1_555
H6 C11 1_555 1_555
H7 O7 1_555 1_555
H8 C9 1_555 1_555
H9 C7 1_555 1_555
H10 O7 1_555 1_555
H12 O9 1_555 1_555
O10 V2 1_555 1_555
V2B O4 1_555 1_555
C11C N2 1_555 1_555
C12C C10 1_555 1_555
N2C C11 1_555 1_555
C10C C12 1_555 1_555
O4B V2 1_555 1_555
O5B V2 1_555 1_555
O8B V2B 1_555 1_555
O10B V2B 1_555 1_555
C3C C11C 1_555 1_555
H6C C11C 1_555 1_555
C5C C12C 1_555 1_555
H3C C12C 1_555 1_555
V1C N2C 1_555 1_555
H5C C10C 1_555 1_555
V1B O4B 1_555 1_555
C2B O5B 1_555 1_555
C2C C3C 1_555 1_555
H4C C5C 1_555 1_555
O1C V1C 1_555 1_555
O3C V1C 1_555 1_555
O4C V1C 1_555 1_555
O6C V1C 1_555 1_555
O7C V1C 1_555 1_555
O1B V1B 1_555 1_555
O3B V1B 1_555 1_555
O6B V1B 1_555 1_555
O7B V1B 1_555 1_555
N2B V1B 1_555 1_555
C3B C2B 1_555 1_555
C5B C3B 1_555 1_555
C11B C3B 1_555 1_555
C12B C5B 1_555 1_555
H4B C5B 1_555 1_555
N2A C11B 1_555 1_555
H6B C11B 1_555 1_555
C10A C12B 1_555 1_555
H3B C12B 1_555 1_555
V1A N2A 1_555 1_555
H5A C10A 1_555 1_555
O1C_2 C2C 1_555 1_555
O5C C2C 1_555 1_555
V1C_2 O1C_2 1_555 1_555
V2A O5C 1_555 1_555
V2C O5C 1_555 1_555
O5 V2 1_555 1_555
O5 V2B 1_555 1_555
C6 C9 1_555 1_555
V2 V2B 1_555 1_555
O8 O10 1_555 1_555
V2B O4B 1_555 1_555
V2B O5B 1_555 1_555
N2C C10C 1_555 1_555
O8B O10B 1_555 1_555
C3C C5C 1_555 1_555
C2B O1B 1_555 1_555
N2A C10A 1_555 1_555

#END
