
#######################################################################
#
#                 Cambridge Crystallographic Data Centre
#                                CCDC 
#
#######################################################################
#
# If this CIF has been generated from an entry in the Cambridge 
# Structural Database, then it will include bibliographic, chemical, 
# crystal, experimental, refinement or atomic coordinate data resulting 
# from the CCDC's data processing and validation procedures.
#
#######################################################################

data_ALONOE
_symmetry_cell_setting           monoclinic
_symmetry_space_group_name_H-M   'P 21/n'
_symmetry_Int_Tables_number      14
_space_group_name_Hall           '-P 2yn'
loop_
_symmetry_equiv_pos_site_id
_symmetry_equiv_pos_as_xyz
1 x,y,z
2 1/2+x,1/2-y,1/2+z
3 -x,-y,-z
4 1/2-x,1/2+y,1/2-z
_cell_length_a                   11.121(2)
_cell_length_b                   10.747(2)
_cell_length_c                   19.787(4)
_cell_angle_alpha                90.00
_cell_angle_beta                 104.86(3)
_cell_angle_gamma                90.00
_cell_volume                     2285.8
loop_
_atom_site_label
_atom_site_type_symbol
_atom_site_fract_x
_atom_site_fract_y
_atom_site_fract_z
V1 V 0.91757(9) 0.65337(10) 0.18966(5)
V2 V 1.15518(8) 0.84455(10) 0.15594(5)
O1 O 0.9023(4) 0.8306(4) 0.2234(2)
O2 O 1.0820(3) 0.6848(4) 0.1746(2)
O3 O 0.8261(4) 0.2229(4) -0.0646(2)
O4 O 1.0820(3) 0.9302(4) 0.2280(2)
O5 O 0.8442(4) 0.7217(4) 0.0845(2)
O6 O 1.2924(4) 0.8334(4) 0.2044(2)
O7 O 0.9648(4) 0.8896(4) 0.0882(2)
O8 O 0.9516(4) 0.5910(4) 0.2664(2)
O9 O 0.8255(5) 0.4292(4) -0.0750(2)
C1 C 0.9782(5) 0.9192(6) 0.2415(3)
C2 C 0.9418(5) 1.0215(6) 0.2839(3)
C3 C 0.8843(5) 0.8155(5) 0.0570(3)
C4 C 0.8388(5) 0.3345(6) -0.0398(3)
C5 C 0.8197(5) 1.0371(6) 0.2851(3)
H1 H 0.7616 0.9791 0.2619
C6 C 0.9908(6) 1.2014(7) 0.3547(4)
H2 H 1.0483 1.2587 0.3792
C7 C 0.8647(6) 1.2140(6) 0.3526(4)
H3 H 0.8392 1.2804 0.3756
C8 C 1.0292(6) 1.1049(6) 0.3206(3)
H4 H 1.1129 1.0954 0.3220
N1 N 0.7801(4) 1.1322(4) 0.3182(3)
N2 N 0.8111(4) 0.9737(4) -0.1180(2)
C9 C 0.8490(5) 0.9489(5) -0.0490(3)
H5 H 0.8890 1.0114 -0.0190
C10 C 0.8309(5) 0.8341(6) -0.0205(3)
C11 C 0.7703(7) 0.7431(6) -0.0648(3)
H6 H 0.7536 0.6666 -0.0472
C12 C 0.7546(6) 0.8838(6) -0.1601(4)
H7 H 0.7275 0.9004 -0.2077
C13 C 0.7339(7) 0.7660(7) -0.1367(4)
H8 H 0.6967 0.7041 -0.1679
N3 N 0.9151(4) 0.4749(5) 0.1395(3)
C14 C 0.8800(6) 0.4580(6) 0.0705(3)
H9 H 0.8585 0.5278 0.0422
C15 C 0.8733(5) 0.3422(6) 0.0383(3)
C16 C 0.9084(7) 0.2393(6) 0.0810(4)
H10 H 0.9041 0.1599 0.0618
C17 C 0.9510(7) 0.3728(6) 0.1798(4)
H11 H 0.9775 0.3828 0.2281
C18 C 0.9499(9) 0.2558(7) 0.1526(4)
H12 H 0.9768 0.1880 0.1818
N1C N 0.7199(4) 0.6322(4) 0.1818(3)
O3B O 1.1739(4) 0.7771(4) 0.0646(2)
N2B N 1.1889(4) 1.0263(4) 0.1180(2)
V2B V 0.84482(8) 0.15545(10) -0.15594(5)
V1C V 0.58243(9) 1.15337(10) 0.31034(5)
V2B_2 V 0.84482(8) 1.15545(10) -0.15594(5)
O10 O 0.907(3) 0.543(3) 0.4156(17)
C19 C 0.925(3) 0.739(3) 0.4239(19)
C20 C 0.946(6) 0.583(6) 0.473(4)
loop_
_geom_bond_atom_site_label_1
_geom_bond_atom_site_label_2
_geom_bond_site_symmetry_1
_geom_bond_site_symmetry_2
V1 O1 1_555 1_555
V2 O2 1_555 1_555
O1 C1 1_555 1_555
O2 V1 1_555 1_555
O3 C4 1_555 1_555
O4 V2 1_555 1_555
O5 V1 1_555 1_555
O6 V2 1_555 1_555
O7 V2 1_555 1_555
O8 V1 1_555 1_555
O9 C4 1_555 1_555
C1 O4 1_555 1_555
C2 C1 1_555 1_555
C3 O5 1_555 1_555
C4 C15 1_555 1_555
C5 C2 1_555 1_555
H1 C5 1_555 1_555
C6 H2 1_555 1_555
C7 C6 1_555 1_555
H3 C7 1_555 1_555
C8 C2 1_555 1_555
H4 C8 1_555 1_555
N1 C5 1_555 1_555
N2 C9 1_555 1_555
C9 H5 1_555 1_555
C10 C3 1_555 1_555
C11 C10 1_555 1_555
H6 C11 1_555 1_555
C12 N2 1_555 1_555
H7 C12 1_555 1_555
C13 C11 1_555 1_555
H8 C13 1_555 1_555
N3 V1 1_555 1_555
C14 N3 1_555 1_555
H9 C14 1_555 1_555
C15 C14 1_555 1_555
C16 C15 1_555 1_555
H10 C16 1_555 1_555
C17 N3 1_555 1_555
H11 C17 1_555 1_555
C18 C16 1_555 1_555
H12 C18 1_555 1_555
O10 C20 1_555 1_555
C19 C20 1_555 1_555
N1C V1 1_555 1_555
O3B V2 1_555 1_555
N2B V2 1_555 1_555
V2B O3 1_555 1_555
V1C N1 1_555 1_555
V2B_2 N2 1_555 1_555
O7 C3 1_555 1_555
C6 C8 1_555 1_555
C7 N1 1_555 1_555
C9 C10 1_555 1_555
C12 C13 1_555 1_555
C17 C18 1_555 1_555

#END
