
#######################################################################
#
#                 Cambridge Crystallographic Data Centre
#                                CCDC 
#
#######################################################################
#
# If this CIF has been generated from an entry in the Cambridge 
# Structural Database, then it will include bibliographic, chemical, 
# crystal, experimental, refinement or atomic coordinate data resulting 
# from the CCDC's data processing and validation procedures.
#
#######################################################################

data_ALOVON
_symmetry_cell_setting           triclinic
_symmetry_space_group_name_H-M   'P -1'
_symmetry_Int_Tables_number      2
_space_group_name_Hall           '-P 1'
loop_
_symmetry_equiv_pos_site_id
_symmetry_equiv_pos_as_xyz
1 x,y,z
2 -x,-y,-z
_cell_length_a                   7.541(3)
_cell_length_b                   12.107(5)
_cell_length_c                   13.226(5)
_cell_angle_alpha                79.30(1)
_cell_angle_beta                 77.552(12)
_cell_angle_gamma                87.280(12)
_cell_volume                     1158.6
loop_
_atom_site_label
_atom_site_type_symbol
_atom_site_fract_x
_atom_site_fract_y
_atom_site_fract_z
Ag1 Ag 0.56118(6) 0.15951(4) 0.34060(4)
Ag2 Ag 0.78764(7) 0.46214(4) 0.39592(4)
Ag3 Ag 0.86837(6) 0.38682(4) 0.65491(4)
Ag4 Ag 0.80346(7) -0.32351(4) 0.81258(4)
Mo1 Mo 0.71108(6) 0.37930(4) 0.13463(3)
Mo2 Mo 0.97355(6) -0.39310(4) 1.08431(3)
Mo3 Mo 0.52355(6) 0.38624(4) 0.92842(3)
O1 O 0.9454(5) -0.2513(3) 1.0682(3)
O2 O 0.4710(5) 0.2503(3) 0.9853(3)
O3 O 0.6743(5) 0.4048(3) 0.2626(3)
O4 O 0.6105(5) 0.3799(3) 0.7987(3)
O5 O 0.6997(5) 0.2359(3) 0.1495(3)
O6 O 0.7283(4) 0.5695(3) 0.0803(3)
O7 O 0.9717(5) 0.5686(3) 0.2181(3)
O8 O 1.0305(4) -0.4105(3) 0.9167(3)
O9 O 0.7639(4) 0.3994(3) -0.0389(3)
O10 O 0.5202(4) -0.4267(3) 0.9068(3)
N1 N 0.8570(6) 0.2459(4) 0.5701(4)
N2 N 0.8169(6) 0.2788(4) 0.4745(4)
N3 N 0.7843(7) 0.1877(4) 0.4381(4)
N4 N 0.8019(7) 0.0952(4) 0.5106(4)
N5 N 0.8500(7) -0.1292(4) 0.7899(4)
N6 N 0.2424(6) 0.3978(4) 0.5081(4)
N7 N 0.2111(6) 0.4321(4) 0.4094(4)
N8 N 0.2589(6) 0.3514(4) 0.3539(3)
N9 N 0.3221(6) 0.2629(4) 0.4141(4)
N10 N 0.3780(7) 0.0183(4) 0.6822(4)
C1 C 0.8456(7) 0.1326(5) 0.5902(4)
C2 C 0.8644(7) 0.0598(5) 0.6909(5)
C3 C 0.8513(8) -0.0573(5) 0.7003(5)
H1 H 0.8431 -0.0861 0.6410
C4 C 0.8641(11) -0.0862(6) 0.8739(6)
H2 H 0.8575 -0.1349 0.9378
C5 C 0.8882(13) 0.0277(6) 0.8706(6)
H3 H 0.9058 0.0536 0.9296
C6 C 0.8853(10) 0.1009(6) 0.7783(5)
H4 H 0.8974 0.1777 0.7747
C7 C 0.3079(7) 0.2919(4) 0.5093(4)
C8 C 0.3450(7) 0.2123(4) 0.6015(4)
C9 C 0.3484(8) 0.0972(5) 0.6013(5)
H5 H 0.3290 0.0735 0.5416
C10 C 0.4009(8) 0.0539(5) 0.7693(5)
H6 H 0.4200 0.0005 0.8263
C11 C 0.3972(8) 0.1659(5) 0.7777(5)
H7 H 0.4113 0.1872 0.8395
C12 C 0.3723(8) 0.2460(5) 0.6926(4)
H8 H 0.3737 0.3220 0.6958
Ag1A Ag 0.43882(6) -0.15951(4) 0.65940(4)
Ag2A Ag 0.21236(7) 0.53786(4) 0.60408(4)
Ag3A Ag 1.13163(6) 0.61318(4) 0.34509(4)
Ag3A_2 Ag 0.13163(6) 0.61318(4) 0.34509(4)
Ag4A Ag 0.19654(7) 0.32351(4) 0.18742(4)
Mo1A Mo 1.28892(6) -0.37930(4) 0.86537(3)
Mo1A_2 Mo 0.28892(6) -0.37930(4) 0.86537(3)
Mo2_2 Mo 0.97355(6) 0.60690(4) 0.08431(3)
Mo2A Mo 1.02645(6) -0.60690(4) 0.91569(3)
Mo2A_2 Mo 1.02645(6) 0.39310(4) -0.08431(3)
Mo3A Mo 0.47645(6) 0.61376(4) 0.07158(3)
Mo3_2 Mo 0.52355(6) 0.38624(4) -0.07158(3)
Mo3A_2 Mo 0.47645(6) -0.38624(4) 1.07158(3)
Mo3_3 Mo 0.52355(6) -0.61376(4) 0.92842(3)
O6_2 O 0.7283(4) -0.4305(3) 1.0803(3)
O6A O 0.2717(4) 0.4305(3) 0.9197(3)
O7A O 1.0283(5) 0.4314(3) 0.7819(3)
O7_2 O 0.9717(5) -0.4314(3) 1.2181(3)
O8A O 0.9695(4) 0.4105(3) 0.0833(3)
O8A_2 O 0.9695(4) -0.5895(3) 1.0833(3)
O9A O 1.2361(4) -0.3994(3) 1.0389(3)
O9_2 O 0.7639(4) 0.3994(3) 0.9611(3)
O10A O 0.4798(4) 0.4267(3) 0.0932(3)
O10A_2 O 0.4798(4) 0.4267(3) 1.0932(3)
O10_2 O 0.5202(4) 0.5733(3) 0.9068(3)
N6A N 0.7576(6) 0.6022(4) 0.4919(4)
N7A N 0.7889(6) 0.5679(4) 0.5906(4)
N8A N 0.7411(6) -0.3514(4) 0.6461(3)
N10A N 0.6220(7) -0.0183(4) 0.3178(4)
loop_
_geom_bond_atom_site_label_1
_geom_bond_atom_site_label_2
_geom_bond_site_symmetry_1
_geom_bond_site_symmetry_2
Ag1 O5 1_555 1_555
Ag2 O3 1_555 1_555
Ag3 O4 1_555 1_555
Ag4 O8 1_555 1_555
Mo1 O3 1_555 1_555
Mo2 O1 1_555 1_555
Mo3 O2 1_555 1_555
O4 Mo3 1_555 1_555
O5 Mo1 1_555 1_555
O6 Mo1 1_555 1_555
O7 Ag2 1_555 1_555
O8 Mo2 1_555 1_555
O9 Mo1 1_555 1_555
O10 Ag4 1_555 1_555
N1 Ag3 1_555 1_555
N2 Ag2 1_555 1_555
N3 Ag1 1_555 1_555
N4 N3 1_555 1_555
N5 Ag4 1_555 1_555
N6 N7 1_555 1_555
N7 N8 1_555 1_555
N8 N9 1_555 1_555
N9 Ag1 1_555 1_555
N10 C9 1_555 1_555
C1 N1 1_555 1_555
C2 C1 1_555 1_555
C3 N5 1_555 1_555
H1 C3 1_555 1_555
C4 N5 1_555 1_555
H2 C4 1_555 1_555
C5 C4 1_555 1_555
H3 C5 1_555 1_555
C6 C2 1_555 1_555
H4 C6 1_555 1_555
C7 N6 1_555 1_555
C8 C7 1_555 1_555
C9 C8 1_555 1_555
H5 C9 1_555 1_555
C10 N10 1_555 1_555
H6 C10 1_555 1_555
C11 C10 1_555 1_555
H7 C11 1_555 1_555
C12 C8 1_555 1_555
H8 C12 1_555 1_555
Ag1A N10 1_555 1_555
Ag2A N6 1_555 1_555
Ag3A O7 1_555 1_555
Ag3A_2 N7 1_555 1_555
Ag4A N8 1_555 1_555
Mo1A O8 1_555 1_555
Mo1A_2 O10 1_555 1_555
Mo2_2 O6 1_555 1_555
Mo2A O8 1_555 1_555
Mo2A_2 O9 1_555 1_555
Mo3A O6 1_555 1_555
Mo3_2 O9 1_555 1_555
Mo3A_2 O10 1_555 1_555
Mo3_3 O10 1_555 1_555
O6_2 Mo2 1_555 1_555
O6A Mo3 1_555 1_555
O7A Ag3 1_555 1_555
O7_2 Mo2 1_555 1_555
O8A Mo1 1_555 1_555
O8A_2 Mo2 1_555 1_555
O9A Mo2 1_555 1_555
O9_2 Mo3 1_555 1_555
O10A Mo1 1_555 1_555
O10A_2 Mo3 1_555 1_555
O10_2 Mo3 1_555 1_555
N6A Ag2 1_555 1_555
N7A Ag3 1_555 1_555
N8A Ag4 1_555 1_555
N10A Ag1 1_555 1_555
O7 Mo2_2 1_555 1_555
N1 N2 1_555 1_555
N2 N3 1_555 1_555
N4 C1 1_555 1_555
N9 C7 1_555 1_555
C2 C3 1_555 1_555
C5 C6 1_555 1_555
C11 C12 1_555 1_555
Ag4A O10A 1_555 1_555
Mo1A O9A 1_555 1_555
Mo2_2 O8A 1_555 1_555
Mo2A O8A_2 1_555 1_555
Mo2A_2 O8A 1_555 1_555
Mo3A O10A 1_555 1_555
Mo3_2 O10A 1_555 1_555
Mo3A_2 O6_2 1_555 1_555
N6A N7A 1_555 1_555

#END
