
#######################################################################
#
#                 Cambridge Crystallographic Data Centre
#                                CCDC 
#
#######################################################################
#
# If this CIF has been generated from an entry in the Cambridge 
# Structural Database, then it will include bibliographic, chemical, 
# crystal, experimental, refinement or atomic coordinate data resulting 
# from the CCDC's data processing and validation procedures.
#
#######################################################################

data_ALOVEC
_symmetry_cell_setting           orthorhombic
_symmetry_space_group_name_H-M   'C m m m'
_symmetry_Int_Tables_number      65
_space_group_name_Hall           '-C 2 2'
loop_
_symmetry_equiv_pos_site_id
_symmetry_equiv_pos_as_xyz
1 x,y,z
2 -x,-y,z
3 x,-y,-z
4 -x,y,-z
5 1/2+x,1/2+y,z
6 1/2-x,1/2-y,z
7 1/2+x,1/2-y,-z
8 1/2-x,1/2+y,-z
9 -x,-y,-z
10 x,y,-z
11 -x,y,z
12 x,-y,z
13 1/2-x,1/2-y,-z
14 1/2+x,1/2+y,-z
15 1/2-x,1/2+y,z
16 1/2+x,1/2-y,z
_cell_length_a                   21.4477(8)
_cell_length_b                   7.1449(2)
_cell_length_c                   3.8246(2)
_cell_angle_alpha                90
_cell_angle_beta                 90
_cell_angle_gamma                90
_cell_volume                     586.088
loop_
_atom_site_label
_atom_site_type_symbol
_atom_site_fract_x
_atom_site_fract_y
_atom_site_fract_z
V1 V 0.2500 0.250 0.00000
F1 F 0.2500 0.250 -0.50000
O1 O 0.2910(9) 0.000 0.00000
O2 O 0.1551(4) 0.153(1) 0.00000
C1 C 0.0528(7) 0.000 0.00000
C2 C 0.0317(5) -0.178(1) 0.00000
C3 C 0.1222(8) 0.000 0.00000
O2B O 0.1551(4) -0.153(1) 0.00000
C2C C -0.0317(5) -0.178(1) 0.00000
C1C C -0.0528(7) 0.000 0.00000
C2A C -0.0317(5) 0.178(1) 0.00000
C2B C 0.0317(5) 0.178(1) 0.00000
C3C C -0.1222(8) 0.000 0.00000
O2C O -0.1551(4) 0.153(1) 0.00000
O2A O -0.1551(4) -0.153(1) 0.00000
F1_2 F 0.2500 0.250 0.50000
O1E O 0.2090(9) 0.500 0.00000
V1_2 V 0.2500 0.250 1.00000
O2E O 0.3449(4) 0.347(1) 0.00000
V1_3 V 0.2500 0.250 -1.00000
V1B V 0.2500 -0.250 0.00000
V1C V -0.2500 0.250 0.00000
V1A V -0.2500 -0.250 0.00000
V1B_2 V 0.2500 0.750 0.00000
F1_3 F 0.2500 0.250 1.50000
O1_2 O 0.2910(9) 0.000 1.00000
O1E_2 O 0.2090(9) 0.500 1.00000
O2_2 O 0.1551(4) 0.153(1) 1.00000
O2E_2 O 0.3449(4) 0.347(1) 1.00000
O3 O 0.3969(14) 0.000 0.50000
O4 O 0.5000 0.000 0.00000
loop_
_geom_bond_atom_site_label_1
_geom_bond_atom_site_label_2
_geom_bond_site_symmetry_1
_geom_bond_site_symmetry_2
V1 F1 1_555 1_555
F1 V1_3 1_555 1_555
O1 V1 1_555 1_555
O2 V1 1_555 1_555
C1 C2 1_555 1_555
C2 C2C 1_555 1_555
C3 O2 1_555 1_555
O2B C3 1_555 1_555
C2C C1C 1_555 1_555
C1C C2A 1_555 1_555
C2A C2B 1_555 1_555
C2B C1 1_555 1_555
C3C C1C 1_555 1_555
O2C C3C 1_555 1_555
O2A C3C 1_555 1_555
F1_2 V1 1_555 1_555
O1E V1 1_555 1_555
V1_2 F1_2 1_555 1_555
O2E V1 1_555 1_555
V1B O1 1_555 1_555
V1C O2C 1_555 1_555
V1A O2A 1_555 1_555
V1B_2 O1E 1_555 1_555
F1_3 V1_2 1_555 1_555
O1_2 V1_2 1_555 1_555
O1E_2 V1_2 1_555 1_555
O2_2 V1_2 1_555 1_555
O2E_2 V1_2 1_555 1_555
C1 C3 1_555 1_555
O2B V1B 1_555 1_555

#END
