
#######################################################################
#
#                 Cambridge Crystallographic Data Centre
#                                CCDC 
#
#######################################################################
#
# If this CIF has been generated from an entry in the Cambridge 
# Structural Database, then it will include bibliographic, chemical, 
# crystal, experimental, refinement or atomic coordinate data resulting 
# from the CCDC's data processing and validation procedures.
#
#######################################################################

data_ALOWUU
_symmetry_cell_setting           rhombohedral
_symmetry_space_group_name_H-M   'R -3'
_symmetry_Int_Tables_number      148
_space_group_name_Hall           '-R 3'
loop_
_symmetry_equiv_pos_site_id
_symmetry_equiv_pos_as_xyz
1 x,y,z
2 -y,x-y,z
3 -x+y,-x,z
4 2/3+x,1/3+y,1/3+z
5 2/3-y,1/3+x-y,1/3+z
6 2/3-x+y,1/3-x,1/3+z
7 1/3+x,2/3+y,2/3+z
8 1/3-y,2/3+x-y,2/3+z
9 1/3-x+y,2/3-x,2/3+z
10 -x,-y,-z
11 y,-x+y,-z
12 x-y,x,-z
13 1/3-x,2/3-y,2/3-z
14 1/3+y,2/3-x+y,2/3-z
15 1/3+x-y,2/3+x,2/3-z
16 2/3-x,1/3-y,1/3-z
17 2/3+y,1/3-x+y,1/3-z
18 2/3+x-y,1/3+x,1/3-z
_cell_length_a                   15.8632(6)
_cell_length_b                   15.8632(6)
_cell_length_c                   28.772(2)
_cell_angle_alpha                90
_cell_angle_beta                 90
_cell_angle_gamma                120
_cell_volume                     6270.21
loop_
_atom_site_label
_atom_site_type_symbol
_atom_site_fract_x
_atom_site_fract_y
_atom_site_fract_z
O1 O 0.4756(7) 1.2669(8) 0.7122(4)
H1 H 0.533(6) 1.280(12) 0.699(4)
H2 H 0.494(9) 1.267(11) 0.7419(14)
O2 O 0.4192(5) 1.3260(6) 0.6273(2)
H3 H 0.403(6) 1.340(7) 0.5997(18)
H4 H 0.4839(16) 1.363(6) 0.625(3)
O3 O 0.4618(8) 1.2889(8) 0.3266(3)
H5 H 0.447(10) 1.287(9) 0.2964(14)
H6 H 0.522(13) 1.299(8) 0.324(4)
O4 O 0.2704(6) 1.0917(7) 0.3705(3)
H7 H 0.267(8) 1.073(8) 0.3409(13)
H8 H 0.266(6) 1.039(7) 0.384(3)
Pd1 Pd 0.64460(4) 1.20622(4) 0.471570(18)
Na1 Na 0.6667 1.3333 0.57012(18)
Na2 Na 0.3334 1.1666 0.6666
Na3 Na 0.3107(3) 1.2522(3) 0.37407(14)
O6 O 0.5218(3) 1.1052(3) 0.44073(17)
O7 O 0.3631(4) 1.0351(4) 0.4483(2)
O8 O 0.5576(6) 1.1922(7) 0.6064(3)
O9 O 0.4008(4) 1.0898(4) 0.6215(2)
O10 O 0.4303(3) 1.2740(4) 0.44260(18)
O11 O 0.2750(4) 1.1958(4) 0.4600(2)
O12 O 0.5547(3) 1.2415(3) 0.50435(16)
C1 C 0.4608(5) 1.1535(5) 0.5069(2)
C2 C 0.4452(5) 1.0936(5) 0.4623(3)
C3 C 0.4619(6) 1.0879(6) 0.5464(3)
H11 H 0.516(6) 1.081(6) 0.539(3)
H12 H 0.406(6) 1.030(6) 0.542(3)
C4 C 0.4702(6) 1.1314(7) 0.5949(3)
C5 C 0.3804(5) 1.1776(5) 0.5125(3)
H13 H 0.321(6) 1.120(6) 0.521(3)
H14 H 0.405(5) 1.216(6) 0.543(3)
C6 C 0.3590(5) 1.2166(5) 0.4697(3)
O1O O 0.1911(7) 1.0664(8) 0.6211(4)
O1H O 0.1246(11) 1.1911(7) 0.3789(4)
O1A O 0.7331(8) 1.2087(11) 0.7122(4)
O1P O 0.9336(8) 1.1246(11) 0.6211(4)
O1B O 0.7913(11) 1.5244(7) 0.7122(4)
O1Q O 0.8754(11) 1.8089(7) 0.6211(4)
O1F O 0.8089(7) 0.9336(8) 0.3789(4)
O1G O 1.0664(8) 1.8754(11) 0.3789(4)
H1O H 0.134(6) 1.053(12) 0.634(4)
H1H H 0.080(13) 1.134(6) 0.366(4)
H1A H 0.720(12) 1.253(13) 0.699(4)
H1P H 0.947(12) 1.080(13) 0.634(4)
H1B H 0.747(13) 1.467(6) 0.699(4)
H1Q H 0.920(13) 1.866(6) 0.634(4)
H1F H 0.866(6) 0.947(12) 0.366(4)
H1G H 1.053(12) 1.920(13) 0.366(4)
H2O H 0.173(9) 1.066(11) 0.5914(14)
H2H H 0.106(14) 1.173(9) 0.4086(14)
H2A H 0.733(11) 1.227(14) 0.7419(14)
H2P H 0.934(11) 1.106(14) 0.5914(14)
H2B H 0.773(14) 1.506(9) 0.7419(14)
H2Q H 0.894(14) 1.827(9) 0.5914(14)
H2F H 0.827(9) 0.934(11) 0.4086(14)
H2G H 1.066(11) 1.894(14) 0.4086(14)
O2O O 0.2475(5) 1.0073(6) 0.7060(2)
O2H O 0.2401(8) 1.2475(5) 0.2940(2)
O2A O 0.6740(6) 1.0932(8) 0.6273(2)
O2P O 0.9927(6) 1.2401(8) 0.7060(2)
O2B O 0.9068(8) 1.5808(5) 0.6273(2)
O2Q O 0.7599(8) 1.7525(5) 0.7060(2)
O2F O 0.7525(5) 0.9927(6) 0.2940(2)
O2G O 1.0073(6) 1.7599(8) 0.2940(2)
H3O H 0.264(6) 0.993(7) 0.7336(18)
H3H H 0.270(9) 1.264(6) 0.2664(18)
H3A H 0.660(7) 1.063(9) 0.5997(18)
H3P H 1.007(7) 1.270(9) 0.7336(18)
H3B H 0.937(9) 1.597(6) 0.5997(18)
H3Q H 0.730(9) 1.736(6) 0.7336(18)
H3F H 0.736(6) 1.007(7) 0.2664(18)
H3G H 0.993(7) 1.730(9) 0.2664(18)
H4O H 0.1828(16) 0.970(6) 0.708(3)
H4H H 0.2124(62) 1.1828(16) 0.292(3)
H4A H 0.637(6) 1.1209(62) 0.625(3)
H4P H 1.030(6) 1.2124(62) 0.708(3)
H4B H 0.8791(62) 1.5161(16) 0.625(3)
H4Q H 0.7876(62) 1.8172(16) 0.708(3)
H4F H 0.8172(16) 1.030(6) 0.292(3)
H4G H 0.970(6) 1.7876(62) 0.292(3)
O3A O 0.7111(8) 1.1729(11) 0.3266(3)
O3B O 0.8271(11) 1.5382(8) 0.3266(3)
O3J O 0.2889(8) 0.8271(11) 0.6734(3)
O3K O 1.1729(11) 1.4618(8) 0.6734(3)
O3I O 0.5382(8) 1.7111(8) 0.6734(3)
H5A H 0.713(9) 1.160(13) 0.2964(14)
H5B H 0.840(13) 1.553(10) 0.2964(14)
H5J H 0.287(9) 0.840(13) 0.7036(14)
H5K H 1.160(13) 1.447(10) 0.7036(14)
H5I H 0.553(10) 1.713(9) 0.7036(14)
H6A H 0.701(8) 1.223(15) 0.324(4)
H6B H 0.777(15) 1.478(13) 0.324(4)
H6J H 0.299(8) 0.777(15) 0.676(4)
H6K H 1.223(15) 1.522(13) 0.676(4)
H6I H 0.478(13) 1.701(8) 0.676(4)
O4A O 0.9083(7) 1.1787(9) 0.3705(3)
O4B O 0.8213(9) 1.7296(6) 0.3705(3)
O4J O 0.0917(7) 0.8213(9) 0.6295(3)
O4K O 1.1787(9) 1.2704(6) 0.6295(3)
O4I O 0.7296(6) 1.9083(7) 0.6295(3)
H7A H 0.927(8) 1.194(11) 0.3409(13)
H7B H 0.806(11) 1.733(8) 0.3409(13)
H7J H 0.073(8) 0.806(11) 0.6591(13)
H7K H 1.194(11) 1.267(8) 0.6591(13)
H7I H 0.733(8) 1.927(8) 0.6591(13)
H8A H 0.961(7) 1.227(9) 0.384(3)
H8B H 0.773(9) 1.734(6) 0.384(3)
H8J H 0.039(7) 0.773(9) 0.616(3)
H8K H 1.227(9) 1.266(6) 0.616(3)
H8I H 0.734(6) 1.961(7) 0.616(3)
Pd1A Pd 0.79378(4) 1.43838(6) 0.471570(18)
Pd1B Pd 0.56162(6) 1.35540(4) 0.471570(18)
Pd1O Pd 0.02207(4) 1.12711(4) 0.861763(18)
Pd1K Pd 0.43838(6) 1.64460(4) 0.528430(18)
Pd1P Pd 0.87289(4) 0.89495(6) 0.861763(18)
Pd1Q Pd 0.10505(6) 0.97793(4) 0.861763(18)
Pd1J Pd 0.20622(4) 1.56162(6) 0.528430(18)
Pd1O_2 Pd 1.02207(4) 1.12711(4) 0.861763(18)
Na1O Na -0.0000 1.0000 0.76321(18)
Na1K Na 0.3334 1.6667 0.42988(18)
Na1P Na 1.0000 0.9999 0.76321(18)
Na2A Na 0.8334 1.1668 0.6666
Na2B Na 0.8332 1.6666 0.6666
Na2H Na 0.1665 1.3333 0.3333
Na3A Na 0.7478(3) 1.0585(4) 0.37407(14)
Na3B Na 0.9415(4) 1.6893(3) 0.37407(14)
Na3J Na 0.2522(3) 0.9415(4) 0.62593(14)
Na3K Na 1.0585(4) 1.3107(3) 0.62593(14)
Na3I Na 0.6893(3) 1.7478(3) 0.62593(14)
Na3D Na 0.4145(3) 1.3918(4) 0.70740(14)
Na3O Na 0.3560(3) 1.0811(3) 0.95926(14)
Na3K_2 Na 0.0585(4) 1.3107(3) 0.62593(14)
Na3E Na 0.6082(4) 1.0226(3) 0.70740(14)
Na3P Na 0.9189(3) 1.2748(4) 0.95926(14)
Na3C Na 0.9774(3) 1.5855(3) 0.70740(14)
O6A O 0.8948(3) 1.4166(4) 0.44073(17)
O6B O 0.5834(4) 1.4782(3) 0.44073(17)
O6O O 0.1449(3) 1.2281(3) 0.89260(17)
O6K O 0.4166(4) 1.5218(3) 0.55927(17)
O6P O 0.7719(3) 0.9167(4) 0.89260(17)
O7A O 0.9649(4) 1.3280(6) 0.4483(2)
O7B O 0.6720(6) 1.6369(4) 0.4483(2)
O7O O 0.3036(4) 1.2982(4) 0.8850(2)
O7K O 0.3280(6) 1.3631(4) 0.5517(2)
O7P O 0.7018(4) 1.0053(6) 0.8850(2)
O8A O 0.8078(7) 1.3654(9) 0.6064(3)
O8B O 0.6346(9) 1.4424(6) 0.6064(3)
O8O O 0.1091(6) 1.1411(7) 0.7269(3)
O8K O 0.3654(9) 1.5576(6) 0.3936(3)
O8P O 0.8589(7) 0.9679(9) 0.7269(3)
O8P_2 O -0.1411(7) 0.9679(9) 0.7269(3)
O8Q O 0.0321(9) 0.8909(6) 0.7269(3)
O9A O 0.9102(4) 1.3110(6) 0.6215(2)
O9B O 0.6890(6) 1.5992(4) 0.6215(2)
O9O O 0.2659(4) 1.2435(4) 0.7118(2)
O9K O 0.3110(6) 1.4008(4) 0.3785(2)
O9P O 0.7565(4) 1.0223(6) 0.7118(2)
O9Q O 0.9777(6) 1.7341(4) 0.7118(2)
O9I O 0.5992(4) 0.9102(4) 0.3785(2)
O9J O 1.0898(4) 1.6890(6) 0.3785(2)
O10A O 0.7260(4) 1.1563(5) 0.44260(18)
O10B O 0.8437(5) 1.5697(3) 0.44260(18)
O10O O 0.2364(3) 1.0593(4) 0.89073(18)
O10K O 0.1563(5) 1.4303(3) 0.55740(18)
O10P O 0.9407(4) 1.1770(5) 0.89073(18)
O10J O 0.2740(4) 0.8437(5) 0.55740(18)
O10K_2 O 1.1563(5) 1.4303(3) 0.55740(18)
O10I O 0.5697(3) 1.7260(4) 0.55740(18)
O10P_2 O -0.0593(4) 1.1770(5) 0.89073(18)
O10Q O 0.8230(5) 0.7636(3) 0.89073(18)
O11A O 0.8042(4) 1.0792(6) 0.4600(2)
O11B O 0.9208(6) 1.7250(4) 0.4600(2)
O11O O 0.3917(4) 1.1375(4) 0.8733(2)
O11K O 0.0792(6) 1.2750(4) 0.5400(2)
O11P O 0.8625(4) 1.2541(6) 0.8733(2)
O11J O 0.1958(4) 0.9208(6) 0.5400(2)
O11K_2 O 1.0792(6) 1.2750(4) 0.5400(2)
O11I O 0.7250(4) 1.8042(4) 0.5400(2)
O12A O 0.7585(3) 1.3132(4) 0.50435(16)
O12B O 0.6868(4) 1.4453(3) 0.50435(16)
O12O O 0.1120(3) 1.0918(3) 0.82898(16)
O12K O 0.3132(4) 1.5547(3) 0.49565(16)
O12P O 0.9082(3) 1.0201(4) 0.82898(16)
O12Q O -0.0201(4) 0.8880(3) 0.82898(16)
O12P_2 O -0.0918(3) 1.0201(4) 0.82898(16)
O12I O 0.4453(3) 1.7585(3) 0.49565(16)
O12Q_2 O 0.9799(4) 0.8880(3) 0.82898(16)
C1A C 0.8465(5) 1.3073(7) 0.5069(2)
C1B C 0.6927(7) 1.5392(5) 0.5069(2)
C1O C 0.2059(5) 1.1798(5) 0.8264(2)
C1K C 0.3073(7) 1.4608(5) 0.4931(2)
C1P C 0.8202(5) 1.0260(7) 0.8264(2)
C2A C 0.9064(5) 1.3516(7) 0.4623(3)
C2B C 0.6484(7) 1.5548(5) 0.4623(3)
C2O C 0.2215(5) 1.2397(5) 0.8710(3)
C2K C 0.3516(7) 1.4452(5) 0.5377(3)
C2P C 0.7603(5) 0.9817(7) 0.8710(3)
C3A C 0.9121(6) 1.3740(8) 0.5464(3)
C3B C 0.6260(8) 1.5381(6) 0.5464(3)
C3O C 0.2048(6) 1.2454(6) 0.7869(3)
C3K C 0.3740(8) 1.4619(6) 0.4536(3)
C3P C 0.7546(6) 0.9593(8) 0.7869(3)
H11A H 0.919(6) 1.435(8) 0.539(3)
H11B H 0.565(8) 1.484(6) 0.539(3)
H11O H 0.151(6) 1.252(6) 0.794(3)
H11K H 0.435(8) 1.516(6) 0.461(3)
H11P H 0.748(6) 0.898(8) 0.794(3)
H12A H 0.970(6) 1.376(8) 0.542(3)
H12B H 0.624(8) 1.594(6) 0.542(3)
H12O H 0.261(6) 1.303(6) 0.791(3)
H12K H 0.376(8) 1.406(6) 0.458(3)
H12P H 0.697(6) 0.957(8) 0.791(3)
C4A C 0.8686(7) 1.3388(9) 0.5949(3)
C4B C 0.6612(9) 1.5298(6) 0.5949(3)
C4O C 0.1965(6) 1.2019(7) 0.7384(3)
C4K C 0.3388(9) 1.4702(6) 0.4051(3)
C4P C 0.7981(7) 0.9945(9) 0.7384(3)
C5A C 0.8224(5) 1.2028(7) 0.5125(3)
C5B C 0.7972(7) 1.6196(5) 0.5125(3)
C5O C 0.2863(5) 1.1557(5) 0.8208(3)
C5K C 0.2028(7) 1.3804(5) 0.4875(3)
C5P C 0.8443(5) 1.1305(7) 0.8208(3)
H13A H 0.880(6) 1.201(8) 0.521(3)
H13B H 0.799(8) 1.679(6) 0.521(3)
H13O H 0.346(6) 1.213(6) 0.812(3)
H13K H 0.201(8) 1.321(6) 0.479(3)
H13P H 0.787(6) 1.132(8) 0.812(3)
H14A H 0.784(6) 1.189(8) 0.543(3)
H14B H 0.811(8) 1.595(5) 0.543(3)
H14O H 0.262(5) 1.117(6) 0.790(3)
H14K H 0.189(8) 1.405(5) 0.457(3)
H14P H 0.883(6) 1.144(8) 0.790(3)
C6A C 0.7834(5) 1.1424(7) 0.4697(3)
C6B C 0.8576(7) 1.6410(5) 0.4697(3)
C6O C 0.3077(5) 1.1167(5) 0.8636(3)
C6K C 0.1424(7) 1.3590(5) 0.5303(3)
C6P C 0.8833(5) 1.1909(7) 0.8636(3)
O5 O 0.1918(5) 0.5369(5) 0.1278(3)
H9 H 0.208(7) 0.491(5) 0.131(3)
H10 H 0.235(6) 0.572(6) 0.105(3)
Na4 Na 0.3333 0.6667 0.1667
O5B O 0.3451(7) 0.8082(5) 0.1278(3)
O5A O 0.4631(5) 0.6549(7) 0.1278(3)
O5O O 0.4749(5) 0.7964(5) 0.2055(3)
O5Q O 0.3216(7) 0.5251(5) 0.2055(3)
O5P O 0.2036(5) 0.6784(7) 0.2055(3)
H9B H 0.283(9) 0.792(7) 0.131(3)
H9A H 0.509(5) 0.717(9) 0.131(3)
H9O H 0.459(7) 0.842(5) 0.202(3)
H9Q H 0.384(9) 0.541(7) 0.202(3)
H9P H 0.158(5) 0.616(9) 0.202(3)
H10B H 0.337(8) 0.765(6) 0.105(3)
H10A H 0.428(6) 0.663(8) 0.105(3)
H10O H 0.432(6) 0.761(6) 0.228(3)
H10Q H 0.330(8) 0.568(6) 0.228(3)
H10P H 0.239(6) 0.670(8) 0.228(3)
O13 O 0.3333 0.6667 0.0141(8)
O14? O 0.857(2) 0.8907(13) 0.2706(9)
loop_
_geom_bond_atom_site_label_1
_geom_bond_atom_site_label_2
_geom_bond_site_symmetry_1
_geom_bond_site_symmetry_2
O1 H1 1_555 1_555
H2 O1 1_555 1_555
O2 H3 1_555 1_555
H4 O2 1_555 1_555
O3 H5 1_555 1_555
H6 O3 1_555 1_555
O4 H7 1_555 1_555
H8 O4 1_555 1_555
O5 H9 1_555 1_555
H10 O5 1_555 1_555
Pd1 O6 1_555 1_555
Na1 O8 1_555 1_555
Na2 O1 1_555 1_555
Na3 O3 1_555 1_555
Na4 O5 1_555 1_555
O6 C2 1_555 1_555
O7 C2 1_555 1_555
O8 C4 1_555 1_555
O9 Na2 1_555 1_555
O10 Na3 1_555 1_555
O11 Na3 1_555 1_555
O12 Pd1 1_555 1_555
C1 O12 1_555 1_555
C2 C1 1_555 1_555
C3 C1 1_555 1_555
H11 C3 1_555 1_555
H12 C3 1_555 1_555
C4 O9 1_555 1_555
C5 C1 1_555 1_555
H13 C5 1_555 1_555
H14 C5 1_555 1_555
C6 O10 1_555 1_555
O1O Na2 1_555 1_555
O1H Na3 1_555 1_555
O1A H1A 1_555 1_555
O1P H1P 1_555 1_555
O1B H1B 1_555 1_555
O1Q H1Q 1_555 1_555
O1F H1F 1_555 1_555
O1G H1G 1_555 1_555
H1O O1O 1_555 1_555
H1H O1H 1_555 1_555
H2O O1O 1_555 1_555
H2H O1H 1_555 1_555
H2A O1A 1_555 1_555
H2P O1P 1_555 1_555
H2B O1B 1_555 1_555
H2Q O1Q 1_555 1_555
H2F O1F 1_555 1_555
H2G O1G 1_555 1_555
O2O Na2 1_555 1_555
O2H Na3 1_555 1_555
O2A H3A 1_555 1_555
O2P H3P 1_555 1_555
O2B H3B 1_555 1_555
O2Q H3Q 1_555 1_555
O2F H3F 1_555 1_555
O2G H3G 1_555 1_555
H3O O2O 1_555 1_555
H3H O2H 1_555 1_555
H4O O2O 1_555 1_555
H4H O2H 1_555 1_555
H4A O2A 1_555 1_555
H4P O2P 1_555 1_555
H4B O2B 1_555 1_555
H4Q O2Q 1_555 1_555
H4F O2F 1_555 1_555
H4G O2G 1_555 1_555
O3A H5A 1_555 1_555
O3B H5B 1_555 1_555
O3J H5J 1_555 1_555
O3K H5K 1_555 1_555
O3I H5I 1_555 1_555
H6A O3A 1_555 1_555
H6B O3B 1_555 1_555
H6J O3J 1_555 1_555
H6K O3K 1_555 1_555
H6I O3I 1_555 1_555
O4A H7A 1_555 1_555
O4B H7B 1_555 1_555
O4J H7J 1_555 1_555
O4K H7K 1_555 1_555
O4I H7I 1_555 1_555
H8A O4A 1_555 1_555
H8B O4B 1_555 1_555
H8J O4J 1_555 1_555
H8K O4K 1_555 1_555
H8I O4I 1_555 1_555
O5B Na4 1_555 1_555
O5A Na4 1_555 1_555
O5O Na4 1_555 1_555
O5Q Na4 1_555 1_555
O5P Na4 1_555 1_555
H9B O5B 1_555 1_555
H9A O5A 1_555 1_555
H9O O5O 1_555 1_555
H9Q O5Q 1_555 1_555
H9P O5P 1_555 1_555
H10B O5B 1_555 1_555
H10A O5A 1_555 1_555
H10O O5O 1_555 1_555
H10Q O5Q 1_555 1_555
H10P O5P 1_555 1_555
Pd1A O6A 1_555 1_555
Pd1B O10 1_555 1_555
Pd1O O6O 1_555 1_555
Pd1K O6K 1_555 1_555
Pd1P O6P 1_555 1_555
Pd1Q O10O 1_555 1_555
Pd1J O10K 1_555 1_555
Pd1O_2 O10P 1_555 1_555
Na1O O8O 1_555 1_555
Na1K O8K 1_555 1_555
Na1P O8P 1_555 1_555
Na2A O1A 1_555 1_555
Na2B O1B 1_555 1_555
Na2H O1H 1_555 1_555
Na3A O1F 1_555 1_555
Na3B O1G 1_555 1_555
Na3J O9 1_555 1_555
Na3K O1P 1_555 1_555
Na3I O1Q 1_555 1_555
Na3D O1 1_555 1_555
Na3O O10O 1_555 1_555
Na3K_2 O10K 1_555 1_555
Na3E O1A 1_555 1_555
Na3P O10P 1_555 1_555
Na3C O1B 1_555 1_555
O6A C2A 1_555 1_555
O6B Pd1B 1_555 1_555
O6O C2O 1_555 1_555
O6K C2K 1_555 1_555
O6P C2P 1_555 1_555
O7A C2A 1_555 1_555
O7B C2B 1_555 1_555
O7O C2O 1_555 1_555
O7K C2K 1_555 1_555
O7P C2P 1_555 1_555
O8A Na1 1_555 1_555
O8B Na1 1_555 1_555
O8O C4O 1_555 1_555
O8K C4K 1_555 1_555
O8P C4P 1_555 1_555
O8P_2 Na1O 1_555 1_555
O8Q Na1O 1_555 1_555
O9A Na2A 1_555 1_555
O9B Na2B 1_555 1_555
O9O Na2 1_555 1_555
O9K Na3 1_555 1_555
O9P Na2A 1_555 1_555
O9Q Na2B 1_555 1_555
O9I Na3A 1_555 1_555
O9J Na3B 1_555 1_555
O10A Pd1 1_555 1_555
O10B Pd1A 1_555 1_555
O10O C6O 1_555 1_555
O10K C6K 1_555 1_555
O10P C6P 1_555 1_555
O10J Na3J 1_555 1_555
O10K_2 Na3K 1_555 1_555
O10I Pd1K 1_555 1_555
O10P_2 Pd1O 1_555 1_555
O10Q Pd1P 1_555 1_555
O11A Na3A 1_555 1_555
O11B Na3B 1_555 1_555
O11O Na3O 1_555 1_555
O11K Na3K_2 1_555 1_555
O11P Na3P 1_555 1_555
O11J Na3J 1_555 1_555
O11K_2 Na3K 1_555 1_555
O11I Na3I 1_555 1_555
O12A Pd1 1_555 1_555
O12B Na1 1_555 1_555
O12O Pd1O 1_555 1_555
O12K Pd1K 1_555 1_555
O12P Pd1P 1_555 1_555
O12Q Pd1Q 1_555 1_555
O12P_2 Pd1O 1_555 1_555
O12I Pd1K 1_555 1_555
O12Q_2 Pd1P 1_555 1_555
C1A O12A 1_555 1_555
C1B O12B 1_555 1_555
C1O O12O 1_555 1_555
C1K O12K 1_555 1_555
C1P O12P 1_555 1_555
C2A C1A 1_555 1_555
C2B O6B 1_555 1_555
C2O C1O 1_555 1_555
C2K C1K 1_555 1_555
C2P C1P 1_555 1_555
C3A C1A 1_555 1_555
C3B C1B 1_555 1_555
C3O C1O 1_555 1_555
C3K C1K 1_555 1_555
C3P C1P 1_555 1_555
H11A C3A 1_555 1_555
H11B C3B 1_555 1_555
H11O C3O 1_555 1_555
H11K C3K 1_555 1_555
H11P C3P 1_555 1_555
H12A C3A 1_555 1_555
H12B C3B 1_555 1_555
H12O C3O 1_555 1_555
H12K C3K 1_555 1_555
H12P C3P 1_555 1_555
C4A O8A 1_555 1_555
C4B O8B 1_555 1_555
C4O O9O 1_555 1_555
C4K O9K 1_555 1_555
C4P O9P 1_555 1_555
C5A C1A 1_555 1_555
C5B C1B 1_555 1_555
C5O C1O 1_555 1_555
C5K C1K 1_555 1_555
C5P C1P 1_555 1_555
H13A C5A 1_555 1_555
H13B C5B 1_555 1_555
H13O C5O 1_555 1_555
H13K C5K 1_555 1_555
H13P C5P 1_555 1_555
H14A C5A 1_555 1_555
H14B C5B 1_555 1_555
H14O C5O 1_555 1_555
H14K C5K 1_555 1_555
H14P C5P 1_555 1_555
C6A O10A 1_555 1_555
C6B O10B 1_555 1_555
C6O O11O 1_555 1_555
C6K O11K 1_555 1_555
C6P O11P 1_555 1_555
O2 Na2 1_555 1_555
O2 Na3D 1_555 1_555
O4 Na3 1_555 1_555
Na1 O12 1_555 1_555
Na1 O12A 1_555 1_555
O11 C6 1_555 1_555
O12 Pd1B 1_555 1_555
C3 C4 1_555 1_555
C5 C6 1_555 1_555
O1O Na3J 1_555 1_555
O1P Na2A 1_555 1_555
O1Q Na2B 1_555 1_555
O2O Na3J 1_555 1_555
O2H Na2H 1_555 1_555
O2A Na2A 1_555 1_555
O2A Na3E 1_555 1_555
O2P Na2A 1_555 1_555
O2P Na3K 1_555 1_555
O2B Na2B 1_555 1_555
O2B Na3C 1_555 1_555
O2Q Na2B 1_555 1_555
O2Q Na3I 1_555 1_555
O2F Na3A 1_555 1_555
O2G Na3B 1_555 1_555
O3A Na3A 1_555 1_555
O3B Na3B 1_555 1_555
O3J Na3J 1_555 1_555
O3K Na3K 1_555 1_555
O3I Na3I 1_555 1_555
O4A Na3A 1_555 1_555
O4B Na3B 1_555 1_555
O4J Na3J 1_555 1_555
O4K Na3K 1_555 1_555
O4I Na3I 1_555 1_555
Pd1A O12A 1_555 1_555
Pd1A O12B 1_555 1_555
Pd1B O12B 1_555 1_555
Pd1Q O12O 1_555 1_555
Pd1J O12K 1_555 1_555
Pd1O_2 O12P 1_555 1_555
Na1O O12O 1_555 1_555
Na1O O12Q 1_555 1_555
Na1O O12P_2 1_555 1_555
Na1K O12K 1_555 1_555
Na1K O12I 1_555 1_555
Na1P O12P 1_555 1_555
Na1P O12Q_2 1_555 1_555
Na2H O9K 1_555 1_555
Na3A O10A 1_555 1_555
Na3B O10B 1_555 1_555
Na3K O9A 1_555 1_555
Na3I O9B 1_555 1_555
Na3I O10I 1_555 1_555
Na3D O9O 1_555 1_555
Na3E O9P 1_555 1_555
Na3C O9Q 1_555 1_555
O9A C4A 1_555 1_555
O9B C4B 1_555 1_555
O11A C6A 1_555 1_555
O11B C6B 1_555 1_555
C1B C2B 1_555 1_555
C3A C4A 1_555 1_555
C3B C4B 1_555 1_555
C3O C4O 1_555 1_555
C3K C4K 1_555 1_555
C3P C4P 1_555 1_555
C5A C6A 1_555 1_555
C5B C6B 1_555 1_555
C5O C6O 1_555 1_555
C5K C6K 1_555 1_555
C5P C6P 1_555 1_555

#END
