
#######################################################################
#
#                 Cambridge Crystallographic Data Centre
#                                CCDC 
#
#######################################################################
#
# If this CIF has been generated from an entry in the Cambridge 
# Structural Database, then it will include bibliographic, chemical, 
# crystal, experimental, refinement or atomic coordinate data resulting 
# from the CCDC's data processing and validation procedures.
#
#######################################################################

data_ALOWAA
_symmetry_cell_setting           triclinic
_symmetry_space_group_name_H-M   'P -1'
_symmetry_Int_Tables_number      2
_space_group_name_Hall           '-P 1'
loop_
_symmetry_equiv_pos_site_id
_symmetry_equiv_pos_as_xyz
1 x,y,z
2 -x,-y,-z
_cell_length_a                   9.690(4)
_cell_length_b                   10.240(5)
_cell_length_c                   13.130(5)
_cell_angle_alpha                102.000(2)
_cell_angle_beta                 93.610(4)
_cell_angle_gamma                110.870(6)
_cell_volume                     1177.29
loop_
_atom_site_label
_atom_site_type_symbol
_atom_site_fract_x
_atom_site_fract_y
_atom_site_fract_z
Ag1 Ag 0.29563(7) 0.26643(8) 0.28797(5)
Ag2 Ag 0.36389(7) -0.14566(7) 0.76282(5)
Ag3 Ag 0.92661(7) 0.50974(7) 0.66956(5)
Ag4 Ag 0.74076(7) 0.60097(7) 0.37188(5)
Mo1 Mo 0.43414(6) 0.52771(6) 0.11873(4)
Mo2 Mo 0.21659(6) 0.57438(6) -0.07857(4)
Mo3 Mo 0.09372(6) 0.29337(6) 0.03947(4)
Mo4 Mo 0.56227(6) 0.80076(6) -0.01060(4)
O1 O 0.4285(5) 0.5572(5) -0.0579(3)
O2 O 0.2460(5) 0.5288(5) 0.0873(3)
O3 O 0.2989(5) 0.3043(5) 0.0303(3)
O4 O 0.4388(5) 0.4953(5) 0.2412(3)
O5 O 0.5480(5) 0.7095(5) 0.1381(3)
O6 O -0.0636(5) 0.3722(5) 0.0406(4)
O7 O 0.1290(5) 0.3835(5) -0.1010(3)
O8 O 0.3638(5) 0.7702(5) 0.0009(3)
O9 O 0.2264(5) 0.5969(5) -0.2042(4)
O10 O -0.0060(5) 0.1258(5) -0.0355(4)
O11 O 0.0939(5) 0.2796(5) 0.1675(4)
O12 O 0.5686(5) -0.1693(5) 0.8647(4)
O13 O 0.6652(5) 0.9638(5) 0.0744(4)
N1 N 0.7711(6) 0.3036(6) 0.6975(4)
N2 N 0.5594(6) 0.0519(6) 0.7307(4)
N3 N 0.4738(7) 0.2376(7) 0.4846(5)
N4 N 0.4893(7) 0.3220(7) 0.4183(5)
N5 N 0.6209(7) 0.4294(7) 0.4468(5)
N6 N 0.6923(7) 0.4175(7) 0.5316(5)
N7 N -0.1014(6) -0.1908(6) 0.3446(4)
N8 N 0.1056(6) 0.0650(6) 0.3160(4)
N9 N 0.1911(7) -0.1189(6) 0.5627(5)
N10 N 0.1755(6) -0.2072(6) 0.6266(4)
N11 N 0.0482(7) -0.3173(7) 0.5968(5)
N12 N -0.0222(7) -0.3045(7) 0.5105(5)
C1 C 0.6344(8) 0.2361(7) 0.6372(5)
C2 C 0.7975(8) 0.2428(7) 0.7741(5)
H1 H 0.8892 0.2860 0.8178
C3 C 0.6930(7) 0.1181(7) 0.7905(5)
H2 H 0.7166 0.0798 0.8443
C4 C 0.5318(8) 0.1130(8) 0.6554(5)
H3 H 0.4388 0.0704 0.6133
C5 C 0.6002(8) 0.2991(7) 0.5532(5)
C6 C 0.0322(7) -0.1206(7) 0.4077(5)
C7 C -0.1300(9) -0.1290(8) 0.2679(5)
H4 H -0.2218 -0.1714 0.2243
C8 C -0.0250(8) -0.0047(8) 0.2538(6)
H5 H -0.0464 0.0322 0.1985
C9 C 0.1342(8) 0.0052(7) 0.3923(5)
H6 H 0.2257 0.0500 0.4362
C10 C 0.0679(7) -0.1824(7) 0.4931(5)
Ag3_2 Ag -0.07339(7) -0.49026(7) 0.66956(5)
Ag4_2 Ag -0.25924(7) -0.39903(7) 0.37188(5)
Mo1A Mo 0.56586(6) 0.47229(6) -0.11873(4)
Mo2A Mo -0.21659(6) 0.42562(6) 0.07857(4)
Mo4A Mo 0.43773(6) 0.19924(6) 0.01060(4)
Mo4_2 Mo 0.56227(6) -0.19924(6) 0.98940(4)
O1A O 0.5715(5) 0.4428(5) 0.0579(3)
O3A O 0.7011(5) 0.6957(5) -0.0303(3)
O6A O 0.0636(5) 0.6278(5) -0.0406(4)
O12_2 O 0.5686(5) 0.8307(5) -0.1353(4)
N7_2 N 0.8986(6) 0.8092(6) 0.3446(4)
N11_2 N 1.0482(7) 0.6827(7) 0.5968(5)
N12_2 N 0.9778(7) 0.6955(7) 0.5105(5)
loop_
_geom_bond_atom_site_label_1
_geom_bond_atom_site_label_2
_geom_bond_site_symmetry_1
_geom_bond_site_symmetry_2
Ag1 O4 1_555 1_555
Ag2 O12 1_555 1_555
Ag3 N1 1_555 1_555
Ag4 N5 1_555 1_555
Mo1 O1 1_555 1_555
Mo2 O1 1_555 1_555
Mo3 O2 1_555 1_555
Mo4 O1 1_555 1_555
O1 Mo1A 1_555 1_555
O2 Mo1 1_555 1_555
O3 Mo1 1_555 1_555
O4 Mo1 1_555 1_555
O5 Mo1 1_555 1_555
O6 Mo3 1_555 1_555
O7 Mo2 1_555 1_555
O8 Mo2 1_555 1_555
O9 Mo2 1_555 1_555
O10 Mo3 1_555 1_555
O11 Ag1 1_555 1_555
O12 Mo4_2 1_555 1_555
O13 Mo4 1_555 1_555
N1 C1 1_555 1_555
N2 Ag2 1_555 1_555
N3 N4 1_555 1_555
N4 Ag1 1_555 1_555
N5 N4 1_555 1_555
N6 Ag3 1_555 1_555
N7 C6 1_555 1_555
N8 Ag1 1_555 1_555
N9 N10 1_555 1_555
N10 Ag2 1_555 1_555
N11 N10 1_555 1_555
N12 N11 1_555 1_555
C1 C4 1_555 1_555
C2 N1 1_555 1_555
H1 C2 1_555 1_555
C3 N2 1_555 1_555
H2 C3 1_555 1_555
C4 N2 1_555 1_555
H3 C4 1_555 1_555
C5 N3 1_555 1_555
C6 C9 1_555 1_555
C7 N7 1_555 1_555
H4 C7 1_555 1_555
C8 N8 1_555 1_555
H5 C8 1_555 1_555
C9 N8 1_555 1_555
H6 C9 1_555 1_555
C10 N9 1_555 1_555
Ag3_2 N11 1_555 1_555
Ag4_2 N7 1_555 1_555
Mo1A O1A 1_555 1_555
Mo2A O6 1_555 1_555
Mo4A O3 1_555 1_555
O1A Mo1 1_555 1_555
O3A Mo4 1_555 1_555
O6A Mo2 1_555 1_555
O12_2 Mo4 1_555 1_555
N7_2 Ag4 1_555 1_555
N11_2 Ag3 1_555 1_555
N12_2 Ag4 1_555 1_555
Mo2 O2 1_555 1_555
Mo3 O3 1_555 1_555
Mo3 O7 1_555 1_555
Mo3 O11 1_555 1_555
Mo4 O5 1_555 1_555
Mo4 O8 1_555 1_555
N5 N6 1_555 1_555
N6 C5 1_555 1_555
N12 C10 1_555 1_555
N12 Ag4_2 1_555 1_555
C1 C5 1_555 1_555
C2 C3 1_555 1_555
C6 C10 1_555 1_555
C7 C8 1_555 1_555
Mo1A O3A 1_555 1_555
Mo4A O1A 1_555 1_555
N11_2 N12_2 1_555 1_555

#END
