
#######################################################################
#
#                 Cambridge Crystallographic Data Centre
#                                CCDC 
#
#######################################################################
#
# If this CIF has been generated from an entry in the Cambridge 
# Structural Database, then it will include bibliographic, chemical, 
# crystal, experimental, refinement or atomic coordinate data resulting 
# from the CCDC's data processing and validation procedures.
#
#######################################################################

data_ALOXEF
_symmetry_cell_setting           orthorhombic
_symmetry_space_group_name_H-M   'P b c a'
_symmetry_Int_Tables_number      61
_space_group_name_Hall           '-P 2ac 2ab'
loop_
_symmetry_equiv_pos_site_id
_symmetry_equiv_pos_as_xyz
1 x,y,z
2 1/2-x,-y,1/2+z
3 -x,1/2+y,1/2-z
4 1/2+x,1/2-y,-z
5 -x,-y,-z
6 1/2+x,y,1/2-z
7 x,1/2-y,1/2+z
8 1/2-x,1/2+y,z
_cell_length_a                   20.528(2)
_cell_length_b                   18.6375(18)
_cell_length_c                   24.389(3)
_cell_angle_alpha                90
_cell_angle_beta                 90
_cell_angle_gamma                90
_cell_volume                     9331
loop_
_atom_site_label
_atom_site_type_symbol
_atom_site_fract_x
_atom_site_fract_y
_atom_site_fract_z
Tb1 Tb 1.243113(12) 0.553445(14) 0.074744(10)
O1 O 1.2962(2) 0.5639(2) 0.16495(16)
O2 O 1.2837(2) 0.6107(2) -0.00537(15)
O3 O 1.3393(2) 0.6260(2) 0.10069(17)
O4 O 1.3879(2) 0.6167(3) 0.17946(19)
O5 O 1.2793(3) 0.4323(3) 0.1032(2)
O6 O 1.3447(2) 0.4882(3) 0.0522(2)
O7 O 1.3705(4) 0.3843(4) 0.0796(4)
O8 O 1.2066(2) 0.4644(2) 0.00623(17)
O9 O 1.15137(19) 0.5626(2) 0.00917(14)
O10 O 1.1208(2) 0.4768(3) -0.04529(18)
O11 O 1.08088(18) 0.76907(19) 0.21283(13)
O12 O 1.19191(19) 0.65891(19) 0.09895(14)
O13 O 1.00112(18) 0.9685(2) 0.27529(14)
O14 O 0.83828(18) 1.00712(19) 0.37054(14)
O15 O 1.2099(2) 0.81319(18) 0.40671(14)
O16 O 1.3224(2) 0.7410(2) 0.43194(15)
O17 O 1.4075(2) 0.8569(2) 0.45418(16)
O18 O 1.3636(2) 0.9769(2) 0.39380(15)
O19 O 1.23107(18) 0.94665(18) 0.38900(14)
N1 N 1.1879(2) 0.7562(2) 0.15157(19)
H1 H 1.1636 0.7842 0.1708
N2 N 1.3423(3) 0.6022(3) 0.1492(2)
N3 N 1.3332(4) 0.4334(4) 0.0784(3)
N4 N 1.1583(3) 0.5000(3) -0.0113(2)
C1 C 0.8880(3) 0.9915(3) 0.3430(2)
N5 N 0.9295(2) 0.9435(2) 0.36202(16)
H2 H 0.9620 0.9313 0.3417
C2 C 0.9229(4) 0.9102(4) 0.4158(2)
H3 H 0.8778 0.8970 0.4217
H4 H 0.9351 0.9446 0.4439
C3 C 0.8997(3) 1.0266(3) 0.28891(19)
C4 C 0.9558(3) 1.0166(3) 0.2570(2)
C5 C 0.9640(3) 1.0556(3) 0.2089(2)
H5 H 1.0012 1.0495 0.1877
C6 C 0.9166(3) 1.1032(3) 0.1933(2)
H6 H 0.9224 1.1298 0.1614
C7 C 0.8609(3) 1.1127(3) 0.2233(2)
H7 H 0.8289 1.1446 0.2117
C8 C 0.8534(3) 1.0744(3) 0.2707(2)
H8 H 0.8157 1.0808 0.2913
C9 C 0.9649(3) 0.8446(3) 0.4210(2)
C10 C 0.9475(3) 0.7798(4) 0.3985(2)
H9 H 0.9109 0.7768 0.3762
C11 C 0.9841(4) 0.7193(4) 0.4088(3)
H10 H 0.9718 0.6755 0.3938
C12 C 1.0385(3) 0.7235(4) 0.4412(3)
H11 H 1.0624 0.6823 0.4488
C13 C 1.0578(3) 0.7868(4) 0.4621(2)
H12 H 1.0956 0.7897 0.4830
C14 C 1.0212(3) 0.8475(3) 0.4523(2)
H13 H 1.0344 0.8912 0.4670
C15 C 1.0620(3) 0.9575(3) 0.2464(2)
H14 H 1.0825 1.0030 0.2379
H15 H 1.0548 0.9314 0.2125
C16 C 1.1034(2) 0.9147(3) 0.28484(18)
C17 C 1.1493(3) 0.9507(3) 0.31683(19)
H16 H 1.1559 0.9995 0.3113
C18 C 1.1849(3) 0.9161(3) 0.3559(2)
C19 C 1.1743(3) 0.8429(3) 0.3648(2)
C20 C 1.1303(3) 0.8068(3) 0.3327(2)
H17 H 1.1243 0.7579 0.3380
C21 C 1.0943(2) 0.8417(3) 0.29225(19)
C22 C 1.2565(3) 1.0157(3) 0.3737(2)
H18 H 1.2242 1.0527 0.3804
H19 H 1.2674 1.0162 0.3350
C23 C 1.3156(3) 1.0294(3) 0.4072(2)
H20 H 1.3323 1.0771 0.3997
H21 H 1.3050 1.0265 0.4459
C24 C 1.4194(3) 0.9788(4) 0.4284(3)
H22 H 1.4067 0.9910 0.4656
H23 H 1.4499 1.0148 0.4155
C25 C 1.4510(3) 0.9061(4) 0.4275(3)
H24 H 1.4588 0.8910 0.3900
H25 H 1.4924 0.9075 0.4467
C26 C 1.4275(4) 0.7845(4) 0.4476(3)
H26 H 1.4678 0.7762 0.4674
H27 H 1.4351 0.7743 0.4091
C27 C 1.3756(4) 0.7370(4) 0.4691(2)
H28 H 1.3913 0.6880 0.4718
H29 H 1.3622 0.7527 0.5053
C28 C 1.2626(3) 0.7188(3) 0.4532(2)
H30 H 1.2531 0.7442 0.4870
H31 H 1.2633 0.6678 0.4607
C29 C 1.2120(3) 0.7359(3) 0.4103(2)
H32 H 1.2241 0.7152 0.3752
H33 H 1.1699 0.7170 0.4210
C30 C 1.0468(3) 0.7977(3) 0.2597(2)
H34 H 1.0297 0.7590 0.2820
H35 H 1.0107 0.8274 0.2477
C31 C 1.0510(3) 0.7186(3) 0.18041(19)
C32 C 1.0883(3) 0.6885(3) 0.1376(2)
C33 C 1.0580(3) 0.6390(3) 0.1038(2)
H36 H 1.0813 0.6193 0.0748
C34 C 0.9950(3) 0.6181(3) 0.1118(2)
H37 H 0.9760 0.5849 0.0882
C35 C 0.9597(3) 0.6461(3) 0.1546(2)
H38 H 0.9172 0.6309 0.1606
C36 C 0.9874(3) 0.6968(3) 0.1885(2)
H39 H 0.9632 0.7163 0.2171
C37 C 1.1593(3) 0.7008(3) 0.1278(2)
C38 C 1.2563(3) 0.7738(3) 0.1480(2)
H40 H 1.2620 0.8149 0.1240
H41 H 1.2798 0.7337 0.1323
C39 C 1.2839(3) 0.7910(3) 0.2043(2)
C40 C 1.2964(3) 0.8596(3) 0.2201(2)
H42 H 1.2892 0.8971 0.1956
C41 C 1.3196(4) 0.8744(4) 0.2718(3)
H43 H 1.3279 0.9216 0.2820
C42 C 1.3304(3) 0.8208(5) 0.3079(3)
H44 H 1.3471 0.8310 0.3425
C43 C 1.3170(4) 0.7520(5) 0.2937(3)
H45 H 1.3226 0.7151 0.3189
C44 C 1.2952(4) 0.7374(4) 0.2421(3)
H46 H 1.2877 0.6900 0.2321
H47 H 1.257(2) 0.621(3) -0.0331(17)
H48 H 1.3258(10) 0.621(3) -0.012(2)
Tb1B Tb 0.756887(12) 1.053445(14) 0.425256(10)
O14B O 1.16172(18) 0.50712(19) 0.12946(14)
loop_
_geom_bond_atom_site_label_1
_geom_bond_atom_site_label_2
_geom_bond_site_symmetry_1
_geom_bond_site_symmetry_2
Tb1 O1 1_555 1_555
O1 N2 1_555 1_555
O2 Tb1 1_555 1_555
O3 Tb1 1_555 1_555
O4 N2 1_555 1_555
O5 Tb1 1_555 1_555
O6 Tb1 1_555 1_555
O7 N3 1_555 1_555
O8 Tb1 1_555 1_555
O9 Tb1 1_555 1_555
O10 N4 1_555 1_555
O11 C30 1_555 1_555
O12 Tb1 1_555 1_555
O13 C4 1_555 1_555
O14 C1 1_555 1_555
O15 C19 1_555 1_555
O16 C27 1_555 1_555
O17 C25 1_555 1_555
O18 C23 1_555 1_555
O19 C18 1_555 1_555
N1 H1 1_555 1_555
N2 O3 1_555 1_555
N3 O5 1_555 1_555
N4 O8 1_555 1_555
C1 N5 1_555 1_555
N5 H2 1_555 1_555
C2 N5 1_555 1_555
H3 C2 1_555 1_555
H4 C2 1_555 1_555
C3 C1 1_555 1_555
C4 C3 1_555 1_555
C5 C4 1_555 1_555
H5 C5 1_555 1_555
C6 C5 1_555 1_555
H6 C6 1_555 1_555
C7 C6 1_555 1_555
H7 C7 1_555 1_555
C8 C3 1_555 1_555
H8 C8 1_555 1_555
C9 C2 1_555 1_555
C10 C9 1_555 1_555
H9 C10 1_555 1_555
C11 C10 1_555 1_555
H10 C11 1_555 1_555
C12 C11 1_555 1_555
H11 C12 1_555 1_555
C13 C12 1_555 1_555
H12 C13 1_555 1_555
C14 C9 1_555 1_555
H13 C14 1_555 1_555
C15 O13 1_555 1_555
H14 C15 1_555 1_555
H15 C15 1_555 1_555
C16 C15 1_555 1_555
C17 C16 1_555 1_555
H16 C17 1_555 1_555
C18 C17 1_555 1_555
C19 C18 1_555 1_555
C20 C19 1_555 1_555
H17 C20 1_555 1_555
C21 C16 1_555 1_555
C22 O19 1_555 1_555
H18 C22 1_555 1_555
H19 C22 1_555 1_555
C23 C22 1_555 1_555
H20 C23 1_555 1_555
H21 C23 1_555 1_555
C24 O18 1_555 1_555
H22 C24 1_555 1_555
H23 C24 1_555 1_555
C25 C24 1_555 1_555
H24 C25 1_555 1_555
H25 C25 1_555 1_555
C26 O17 1_555 1_555
H26 C26 1_555 1_555
H27 C26 1_555 1_555
C27 C26 1_555 1_555
H28 C27 1_555 1_555
H29 C27 1_555 1_555
C28 O16 1_555 1_555
H30 C28 1_555 1_555
H31 C28 1_555 1_555
C29 O15 1_555 1_555
H32 C29 1_555 1_555
H33 C29 1_555 1_555
C30 C21 1_555 1_555
H34 C30 1_555 1_555
H35 C30 1_555 1_555
C31 O11 1_555 1_555
C32 C31 1_555 1_555
C33 C32 1_555 1_555
H36 C33 1_555 1_555
C34 C33 1_555 1_555
H37 C34 1_555 1_555
C35 C34 1_555 1_555
H38 C35 1_555 1_555
C36 C31 1_555 1_555
H39 C36 1_555 1_555
C37 O12 1_555 1_555
C38 N1 1_555 1_555
H40 C38 1_555 1_555
H41 C38 1_555 1_555
C39 C38 1_555 1_555
C40 C39 1_555 1_555
H42 C40 1_555 1_555
C41 C40 1_555 1_555
H43 C41 1_555 1_555
C42 C41 1_555 1_555
H44 C42 1_555 1_555
C43 C42 1_555 1_555
H45 C43 1_555 1_555
C44 C39 1_555 1_555
H46 C44 1_555 1_555
H47 O2 1_555 1_555
H48 O2 1_555 1_555
Tb1B O14 1_555 1_555
O14B Tb1 1_555 1_555
O6 N3 1_555 1_555
O9 N4 1_555 1_555
N1 C37 1_555 1_555
C7 C8 1_555 1_555
C13 C14 1_555 1_555
C20 C21 1_555 1_555
C28 C29 1_555 1_555
C32 C37 1_555 1_555
C35 C36 1_555 1_555
C43 C44 1_555 1_555

#END
