
#######################################################################
#
#                 Cambridge Crystallographic Data Centre
#                                CCDC 
#
#######################################################################
#
# If this CIF has been generated from an entry in the Cambridge 
# Structural Database, then it will include bibliographic, chemical, 
# crystal, experimental, refinement or atomic coordinate data resulting 
# from the CCDC's data processing and validation procedures.
#
#######################################################################

data_ALTRMN
_symmetry_cell_setting           orthorhombic
_symmetry_space_group_name_H-M   'P b c a'
_symmetry_Int_Tables_number      61
_space_group_name_Hall           '-P 2ac 2ab'
loop_
_symmetry_equiv_pos_site_id
_symmetry_equiv_pos_as_xyz
1 x,y,z
2 1/2-x,-y,1/2+z
3 1/2+x,1/2-y,-z
4 -x,1/2+y,1/2-z
5 -x,-y,-z
6 1/2+x,y,1/2-z
7 1/2-x,1/2+y,z
8 x,1/2-y,1/2+z
_cell_length_a                   23.455(5)
_cell_length_b                   21.159(5)
_cell_length_c                   11.187(3)
_cell_angle_alpha                90
_cell_angle_beta                 90
_cell_angle_gamma                90
_cell_volume                     5551.93
loop_
_atom_site_label
_atom_site_type_symbol
_atom_site_fract_x
_atom_site_fract_y
_atom_site_fract_z
Mn1 Mn 0.00000 0.00000 0.00000
Mn2 Mn 0.03570 0.00450 0.32020
O1 O 0.03490 -0.05630 0.15020
O2 O 0.10320 -0.07200 0.28440
C1 C 0.08320 -0.08190 0.17770
C2 C 0.11240 -0.12350 0.09460
C3 C 0.16050 -0.16160 0.14920
N1 N 0.20870 -0.12120 0.19000
O3 O 0.06060 0.07710 0.02200
O4 O 0.08780 0.06490 0.21350
C4 C 0.09050 0.08960 0.10830
C5 C 0.13690 0.14240 0.09740
C6 C 0.18600 0.13480 0.18810
N2 N 0.16790 0.13640 0.31490
O5 O 0.06150 -0.04020 -0.12700
O6 O -0.03600 0.06500 0.31150
C7 C 0.06990 -0.06570 -0.22440
C8 C 0.12680 -0.09800 -0.24300
C9 C 0.12700 -0.14270 -0.34990
N3 N 0.11320 -0.11280 -0.47000
O7 O -0.02260 -0.06730 0.39210
O8 O -0.08290 -0.04090 0.53620
C10 C -0.07090 -0.06730 0.43870
C11 C -0.11770 -0.10230 0.37680
C12 C -0.11340 -0.10610 0.24160
N4 N -0.06360 -0.13920 0.19530
H1 H 0.13100 -0.09800 0.02800
H2 H 0.08400 -0.15300 0.05600
H3 H 0.17400 -0.19600 0.09100
H4 H 0.14400 -0.18700 0.22100
H5 H 0.11800 0.18600 0.11400
H6 H 0.15200 0.14600 0.01200
H7 H 0.21600 0.16900 0.17000
H8 H 0.20500 0.09300 0.16600
H9 H 0.13900 -0.12100 -0.16700
H10 H 0.15900 -0.06500 -0.25900
H11 H 0.09700 -0.17800 -0.33100
H12 H 0.16500 -0.16700 -0.35300
H13 H -0.11900 -0.14700 0.40500
H14 H -0.15600 -0.08200 0.39800
H15 H -0.15100 -0.12600 0.20900
H16 H -0.11500 -0.06000 0.20900
O1D O -0.03490 0.05630 -0.15020
O3D O -0.06060 -0.07710 -0.02200
O5D O -0.06150 0.04020 0.12700
C7D C -0.06990 0.06570 0.22440
O6D O 0.03600 -0.06500 -0.31150
O8D O 0.08290 0.04090 0.46380
Mn2D Mn -0.03570 -0.00450 -0.32020
C1D C -0.08320 0.08190 -0.17770
C4D C -0.09050 -0.08960 -0.10830
C8D C -0.12680 0.09800 0.24300
Mn2D_2 Mn -0.03570 -0.00450 0.67980
O2D O -0.10320 0.07200 -0.28440
O4D O -0.08780 -0.06490 -0.21350
O7D O 0.02260 0.06730 -0.39210
O8_2 O -0.08290 -0.04090 -0.46380
C2D C -0.11240 0.12350 -0.09460
C5D C -0.13690 -0.14240 -0.09740
C9D C -0.12700 0.14270 0.34990
H9D H -0.13900 0.12100 0.16700
H10D H -0.15900 0.06500 0.25900
C3D C -0.16050 0.16160 -0.14920
H1D H -0.13100 0.09800 -0.02800
H2D H -0.08400 0.15300 -0.05600
C6D C -0.18600 -0.13480 -0.18810
H5D H -0.11800 -0.18600 -0.11400
H6D H -0.15200 -0.14600 -0.01200
N3D N -0.11320 0.11280 0.47000
H11D H -0.09700 0.17800 0.33100
H12D H -0.16500 0.16700 0.35300
N1D N -0.20870 0.12120 -0.19000
H3D H -0.17400 0.19600 -0.09100
H4D H -0.14400 0.18700 -0.22100
N2D N -0.16790 -0.13640 -0.31490
H7D H -0.21600 -0.16900 -0.17000
H8D H -0.20500 -0.09300 -0.16600
C10D C 0.07090 0.06730 -0.43870
O8D_2 O 0.08290 0.04090 -0.53620
C11D C 0.11770 0.10230 -0.37680
Mn2_2 Mn 0.03570 0.00450 -0.67980
C12D C 0.11340 0.10610 -0.24160
H13D H 0.11900 0.14700 -0.40500
H14D H 0.15600 0.08200 -0.39800
N4D N 0.06360 0.13920 -0.19530
H15D H 0.15100 0.12600 -0.20900
H16D H 0.11500 0.06000 -0.20900
Cl1 Cl 0.25220 -0.00060 0.44940
O9 O 0.30860 -0.01860 0.46650
O10 O 0.24740 0.06760 0.46990
O11 O 0.23820 -0.00920 0.32990
O12 O 0.21380 -0.03290 0.52540
Cl2 Cl 0.25210 0.26000 0.40710
O13 O 0.21910 0.23400 0.49970
O14 O 0.21480 0.28440 0.31900
O15 O 0.28660 0.21230 0.35770
O16 O 0.28730 0.30760 0.44920
Cl3 Cl 0.47670 0.25470 0.38760
O17 O 0.45650 0.29190 0.29660
O18 O 0.53590 0.27430 0.40660
O19 O 0.48020 0.19360 0.34820
O20 O 0.44050 0.25790 0.47650
O21 O 0.07260 0.21980 0.34860
loop_
_geom_bond_atom_site_label_1
_geom_bond_atom_site_label_2
_geom_bond_site_symmetry_1
_geom_bond_site_symmetry_2
Mn1 O1 1_555 1_555
Mn2 O1 1_555 1_555
O1 C1 1_555 1_555
O2 Mn2 1_555 1_555
C1 O2 1_555 1_555
C2 C1 1_555 1_555
C3 C2 1_555 1_555
N1 C3 1_555 1_555
O3 Mn1 1_555 1_555
O4 Mn2 1_555 1_555
C4 O3 1_555 1_555
C5 C4 1_555 1_555
C6 C5 1_555 1_555
N2 C6 1_555 1_555
O5 Mn1 1_555 1_555
O6 Mn2 1_555 1_555
C7 O5 1_555 1_555
C8 C7 1_555 1_555
C9 C8 1_555 1_555
N3 C9 1_555 1_555
O7 Mn2 1_555 1_555
O8 C10 1_555 1_555
C10 O7 1_555 1_555
C11 C10 1_555 1_555
C12 C11 1_555 1_555
N4 C12 1_555 1_555
H1 C2 1_555 1_555
H2 C2 1_555 1_555
H3 C3 1_555 1_555
H4 C3 1_555 1_555
H5 C5 1_555 1_555
H6 C5 1_555 1_555
H7 C6 1_555 1_555
H8 C6 1_555 1_555
H9 C8 1_555 1_555
H10 C8 1_555 1_555
H11 C9 1_555 1_555
H12 C9 1_555 1_555
H13 C11 1_555 1_555
H14 C11 1_555 1_555
H15 C12 1_555 1_555
H16 C12 1_555 1_555
Cl1 O9 1_555 1_555
O10 Cl1 1_555 1_555
O11 Cl1 1_555 1_555
O12 Cl1 1_555 1_555
Cl2 O13 1_555 1_555
O14 Cl2 1_555 1_555
O15 Cl2 1_555 1_555
O16 Cl2 1_555 1_555
Cl3 O17 1_555 1_555
O18 Cl3 1_555 1_555
O19 Cl3 1_555 1_555
O20 Cl3 1_555 1_555
O1D Mn1 1_555 1_555
O3D Mn1 1_555 1_555
O5D Mn1 1_555 1_555
C7D O6 1_555 1_555
O6D C7 1_555 1_555
O8D Mn2 1_555 1_555
Mn2D O1D 1_555 1_555
C1D O1D 1_555 1_555
C4D O3D 1_555 1_555
C8D C7D 1_555 1_555
Mn2D_2 O8 1_555 1_555
O2D Mn2D 1_555 1_555
O4D Mn2D 1_555 1_555
O7D Mn2D 1_555 1_555
O8_2 Mn2D 1_555 1_555
C2D C1D 1_555 1_555
C5D C4D 1_555 1_555
C9D C8D 1_555 1_555
H9D C8D 1_555 1_555
H10D C8D 1_555 1_555
C3D C2D 1_555 1_555
H1D C2D 1_555 1_555
H2D C2D 1_555 1_555
C6D C5D 1_555 1_555
H5D C5D 1_555 1_555
H6D C5D 1_555 1_555
N3D C9D 1_555 1_555
H11D C9D 1_555 1_555
H12D C9D 1_555 1_555
N1D C3D 1_555 1_555
H3D C3D 1_555 1_555
H4D C3D 1_555 1_555
N2D C6D 1_555 1_555
H7D C6D 1_555 1_555
H8D C6D 1_555 1_555
C10D O7D 1_555 1_555
O8D_2 C10D 1_555 1_555
C11D C10D 1_555 1_555
Mn2_2 O8D_2 1_555 1_555
C12D C11D 1_555 1_555
H13D C11D 1_555 1_555
H14D C11D 1_555 1_555
N4D C12D 1_555 1_555
H15D C12D 1_555 1_555
H16D C12D 1_555 1_555
O4 C4 1_555 1_555
O5D C7D 1_555 1_555
O6D Mn2D 1_555 1_555
C1D O2D 1_555 1_555
C4D O4D 1_555 1_555

#END
