
#######################################################################
#
#                 Cambridge Crystallographic Data Centre
#                                CCDC 
#
#######################################################################
#
# If this CIF has been generated from an entry in the Cambridge 
# Structural Database, then it will include bibliographic, chemical, 
# crystal, experimental, refinement or atomic coordinate data resulting 
# from the CCDC's data processing and validation procedures.
#
#######################################################################

data_ALUJOH
_symmetry_cell_setting           triclinic
_symmetry_space_group_name_H-M   'P -1'
_symmetry_Int_Tables_number      2
_space_group_name_Hall           '-P 1'
loop_
_symmetry_equiv_pos_site_id
_symmetry_equiv_pos_as_xyz
1 x,y,z
2 -x,-y,-z
_cell_length_a                   11.1436(14)
_cell_length_b                   17.850(2)
_cell_length_c                   29.340(4)
_cell_angle_alpha                86.638(2)
_cell_angle_beta                 79.666(2)
_cell_angle_gamma                73.206(2)
_cell_volume                     5496.43
loop_
_atom_site_label
_atom_site_type_symbol
_atom_site_fract_x
_atom_site_fract_y
_atom_site_fract_z
C91 C 0.0477(11) 1.0173(7) 0.1572(4)
H76 H 0.0594 1.0336 0.1862
H77 H -0.0159 1.0579 0.1449
H78 H 0.1265 1.0069 0.1358
C92 C -0.0146(11) 0.9158(7) 0.1236(4)
H79 H -0.0405 0.8694 0.1322
H80 H 0.0622 0.9029 0.1011
H81 H -0.0803 0.9534 0.1105
C93 C -0.0149(11) 0.9171(7) 0.2057(4)
H82 H -0.0021 0.9407 0.2311
N4 N 0.0077(9) 0.9482(6) 0.1640(3)
O42 O -0.0520(8) 0.8586(5) 0.2120(3)
C94 C 0.3646(13) 0.7989(8) 0.5065(5)
H83 H 0.3738 0.8160 0.5358
H84 H 0.3013 0.8388 0.4936
H85 H 0.4444 0.7891 0.4857
C95 C 0.3112(12) 0.6952(8) 0.4715(5)
H86 H 0.2858 0.6482 0.4783
H87 H 0.3908 0.6836 0.4505
H88 H 0.2476 0.7329 0.4574
C96 C 0.3013(12) 0.6960(8) 0.5532(5)
H89 H 0.3107 0.7208 0.5788
N8 N 0.3250(10) 0.7264(7) 0.5133(4)
O43 O 0.2667(9) 0.6357(6) 0.5603(3)
C97 C 0.6420(10) 0.8011(7) 0.8037(4)
H90 H 0.6126 0.7557 0.8114
H91 H 0.7199 0.7871 0.7818
H92 H 0.5789 0.8404 0.7903
C98 C 0.7059(10) 0.9009(7) 0.8378(4)
H93 H 0.7161 0.9176 0.8670
H94 H 0.6439 0.9415 0.8248
H95 H 0.7858 0.8898 0.8170
C99 C 0.6351(10) 0.7986(7) 0.8858(4)
H96 H 0.6463 0.8225 0.9114
N9 N 0.6638(8) 0.8310(5) 0.8447(3)
O45 O 0.5968(7) 0.7426(5) 0.8935(3)
Nd1 Nd 0.75613(4) 0.71079(3) 0.379343(16)
Nd2 Nd 0.43940(4) 0.60984(3) 0.035094(16)
Nd3 Nd 0.88414(4) 0.49526(3) 0.309185(16)
Nd4 Nd 0.45372(4) 0.88984(3) 0.035805(16)
Nd5 Nd -0.10735(5) 1.20516(3) 0.289540(17)
Nd6 Nd 0.80166(5) 0.98619(3) 0.356736(17)
C1 C 0.0936(8) 0.8178(5) 0.0206(3)
C2 C -0.0028(8) 0.7829(5) 0.0318(3)
H1 H 0.0106 0.7367 0.0491
C3 C -0.1185(8) 0.8147(5) 0.0181(3)
H2 H -0.1840 0.7915 0.0266
C4 C -0.1361(8) 0.8837(5) -0.0094(3)
C5 C -0.0374(8) 0.9164(6) -0.0218(3)
H3 H -0.0484 0.9610 -0.0405
C6 C 0.0772(8) 0.8846(5) -0.0072(3)
H4 H 0.1431 0.9075 -0.0159
C7 C 0.2159(8) 0.7857(5) 0.0400(3)
C8 C -0.2651(8) 0.9202(6) -0.0238(3)
C9 C 0.4343(8) 0.9198(5) 0.3493(3)
C10 C 0.4306(8) 0.9788(5) 0.3157(3)
H5 H 0.5034 0.9942 0.3043
C11 C 0.3207(8) 1.0137(5) 0.2995(3)
H6 H 0.3184 1.0540 0.2778
C12 C 0.2133(8) 0.9905(5) 0.3146(3)
C13 C 0.2166(8) 0.9293(5) 0.3472(3)
H7 H 0.1449 0.9122 0.3573
C14 C 0.3269(8) 0.8955(5) 0.3638(3)
H8 H 0.3296 0.8550 0.3854
C15 C 0.5547(8) 0.8839(6) 0.3691(3)
C16 C 0.0881(9) 1.0335(6) 0.2978(3)
C17 C 1.3299(8) 0.3249(6) 0.3052(3)
H9 H 1.3106 0.3756 0.2933
C18 C 1.4468(9) 0.2925(6) 0.3175(3)
H10 H 1.5064 0.3206 0.3138
C19 C 1.4757(8) 0.2161(5) 0.3359(3)
C20 C 1.3855(8) 0.1765(6) 0.3419(3)
H11 H 1.4034 0.1266 0.3550
C21 C 1.2688(9) 0.2094(6) 0.3288(3)
H12 H 1.2092 0.1813 0.3324
C22 C 1.2401(8) 0.2846(5) 0.3100(3)
C23 C 1.6097(9) 0.1780(6) 0.3474(3)
C24 C 1.1144(8) 0.3169(5) 0.2934(3)
C25 C 0.2838(8) 0.8855(5) -0.1663(3)
H13 H 0.2534 0.8432 -0.1699
C26 C 0.3194(8) 0.8960(5) -0.1248(3)
H14 H 0.3112 0.8609 -0.1006
C27 C 0.3664(8) 0.9572(5) -0.1186(3)
C28 C 0.3786(8) 1.0091(5) -0.1558(3)
H15 H 0.4116 1.0505 -0.1527
C29 C 0.3418(8) 0.9991(5) -0.1972(3)
H16 H 0.3499 1.0341 -0.2215
C30 C 0.2936(8) 0.9383(5) -0.2028(3)
C31 C 0.4083(8) 0.9679(5) -0.0738(3)
C32 C 0.2502(8) 0.9283(5) -0.2473(3)
C33 C 0.9759(8) 0.7970(6) 0.5524(3)
H17 H 0.9623 0.7653 0.5780
C34 C 0.9406(8) 0.7846(5) 0.5116(3)
H18 H 0.9040 0.7445 0.5096
C35 C 0.9600(8) 0.8329(5) 0.4729(3)
C36 C 1.0174(8) 0.8913(5) 0.4764(3)
H19 H 1.0316 0.9228 0.4508
C37 C 1.0535(8) 0.9030(5) 0.5170(3)
H20 H 1.0925 0.9421 0.5186
C38 C 1.0322(8) 0.8568(5) 0.5559(3)
C39 C 0.9112(8) 0.8250(5) 0.4291(3)
C40 C 1.0682(9) 0.8741(6) 0.6005(3)
C41 C 0.3554(9) 0.6734(6) 0.3508(3)
H21 H 0.3808 0.7171 0.3556
C42 C 0.2333(9) 0.6825(6) 0.3434(3)
H22 H 0.1760 0.7322 0.3439
C43 C 0.1961(8) 0.6181(5) 0.3352(3)
C44 C 0.2810(9) 0.5462(6) 0.3344(3)
H23 H 0.2568 0.5025 0.3285
C45 C 0.4021(9) 0.5370(6) 0.3422(3)
H24 H 0.4591 0.4872 0.3414
C46 C 0.4401(8) 0.6000(5) 0.3510(3)
C47 C 0.5705(8) 0.5898(6) 0.3614(3)
C48 C 0.0611(8) 0.6274(6) 0.3263(3)
C49 C 0.6266(8) 0.3383(5) 0.1401(3)
H25 H 0.5976 0.2988 0.1306
C50 C 0.6374(8) 0.4006(5) 0.1102(3)
C51 C 0.6807(8) 0.4590(6) 0.1242(3)
H26 H 0.6868 0.5010 0.1046
C52 C 0.6587(8) 0.3347(5) 0.1835(3)
H27 H 0.6503 0.2934 0.2034
C53 C 0.6009(8) 0.4029(5) 0.0632(3)
C54 C 0.7461(8) 0.3886(5) 0.2442(3)
C55 C 0.7151(8) 0.4552(5) 0.1673(3)
H28 H 0.7460 0.4941 0.1764
C56 C 0.7036(8) 0.3932(5) 0.1972(3)
C57 C 0.5855(7) 0.7194(5) 0.0974(3)
C58 C 0.6270(8) 0.7143(5) 0.1440(3)
C59 C 0.6089(8) 0.6549(5) 0.1747(3)
H29 H 0.5728 0.6181 0.1661
C60 C 0.6441(8) 0.6499(5) 0.2181(3)
H30 H 0.6357 0.6083 0.2378
C61 C 0.6916(8) 0.7065(5) 0.2319(3)
C62 C 0.7093(8) 0.7665(6) 0.2014(3)
H31 H 0.7424 0.8045 0.2103
C63 C 0.6772(8) 0.7693(5) 0.1576(3)
H32 H 0.6899 0.8092 0.1372
C64 C 0.7270(8) 0.7028(6) 0.2800(3)
C65 C 0.9842(8) 0.4362(6) 0.4811(3)
H33 H 0.9739 0.3925 0.4683
C66 C 1.0168(9) 0.4306(6) 0.5243(3)
H34 H 1.0277 0.3835 0.5406
C67 C 0.9666(8) 0.5051(5) 0.4563(3)
C68 C 0.9295(8) 0.5105(6) 0.4092(3)
C69 C 0.6236(12) 0.5237(7) 0.5369(4)
H35 H 0.6150 0.4986 0.5101
H36 H 0.5473 0.5312 0.5594
H37 H 0.6945 0.4915 0.5499
C70 C 0.6587(12) 0.6472(7) 0.5592(4)
H38 H 0.6695 0.6958 0.5460
H39 H 0.7318 0.6199 0.5727
H40 H 0.5840 0.6573 0.5826
C71 C 0.6552(11) 0.6214(7) 0.4796(4)
C72 C 0.6080(11) 0.8708(7) 0.5348(4)
H41 H 0.5906 0.8403 0.5122
H42 H 0.5329 0.8896 0.5575
H43 H 0.6754 0.8388 0.5497
C73 C 0.6766(11) 0.9861(7) 0.5416(4)
H44 H 0.7007 1.0281 0.5240
H45 H 0.7458 0.9561 0.5563
H46 H 0.6036 1.0074 0.5648
C74 C 0.6555(10) 0.9400(7) 0.4666(4)
C75 C -0.0110(12) 1.2406(8) 0.1075(5)
H47 H -0.0357 1.1986 0.1249
H48 H 0.0629 1.2194 0.0847
H49 H -0.0794 1.2705 0.0923
C76 C 0.0586(12) 1.3575(7) 0.1174(4)
H50 H 0.0759 1.3849 0.1415
H51 H -0.0073 1.3920 0.1028
H52 H 0.1344 1.3399 0.0948
C77 C 0.0071(11) 1.2782(7) 0.1830(4)
C78 C 0.0332(8) 0.5648(5) 0.0100(3)
H53 H 0.0558 0.6088 0.0165
C79 C -0.0870(8) 0.5724(5) 0.0024(3)
H54 H -0.1462 0.6214 0.0044
C80 C 0.2548(8) 0.4841(5) 0.0179(3)
C81 C 0.3446(12) 0.8741(8) 0.2178(5)
H55 H 0.3683 0.9152 0.1991
H56 H 0.4143 0.8452 0.2326
H57 H 0.2720 0.8962 0.2409
C82 C 0.2738(12) 0.7573(8) 0.2124(5)
H58 H 0.2557 0.7277 0.1894
H59 H 0.1987 0.7763 0.2350
H60 H 0.3405 0.7243 0.2272
C83 C 0.3243(11) 0.8309(8) 0.1452(4)
H61 H 0.3046 0.7942 0.1289
C84 C 0.3314(10) 0.5354(7) 0.2131(4)
H62 H 0.3445 0.5841 0.2011
H63 H 0.4026 0.5066 0.2272
H64 H 0.2552 0.5454 0.2358
C85 C 0.2949(10) 0.4150(6) 0.1868(4)
H65 H 0.2862 0.3930 0.1589
H66 H 0.2179 0.4218 0.2089
H67 H 0.3645 0.3804 0.1994
C86 C 0.3364(9) 0.5164(6) 0.1323(4)
H68 H 0.3305 0.4844 0.1093
C87 C 0.9893(10) 0.5723(7) 0.1304(4)
H69 H 0.9720 0.5247 0.1426
H70 H 1.0653 0.5601 0.1075
H71 H 0.9192 0.6031 0.1164
C88 C 1.0359(10) 0.6906(6) 0.1547(4)
H72 H 1.0481 0.7130 0.1818
H73 H 0.9666 0.7259 0.1422
H74 H 1.1120 0.6814 0.1320
C89 C 0.9896(9) 0.5923(6) 0.2103(4)
H75 H 0.9959 0.6249 0.2328
C90 C 0.1217(8) 0.4919(5) 0.0082(3)
N1 N 0.6451(9) 0.5999(6) 0.5234(4)
N2 N 0.6464(8) 0.9374(5) 0.5118(3)
N3 N 0.0169(9) 1.2891(6) 0.1375(3)
N5 N 0.3147(9) 0.8242(6) 0.1898(4)
N6 N 0.3195(8) 0.4910(5) 0.1763(3)
N7 N 1.0063(8) 0.6156(5) 0.1672(3)
O1 O 0.2799(6) 0.8328(4) 0.0421(2)
O2 O 0.2444(6) 0.7168(4) 0.0548(2)
O3 O -0.3464(6) 0.8845(4) -0.0148(2)
O4 O -0.2789(6) 0.9853(4) -0.0437(2)
O5 O 0.5616(6) 0.8233(4) 0.3931(2)
O6 O 0.6401(6) 0.9161(4) 0.3611(2)
O7 O -0.0051(6) 1.0073(4) 0.3100(2)
O8 O 0.0861(6) 1.0910(4) 0.2730(2)
O9 O 1.6254(6) 0.1102(4) 0.3636(2)
O10 O 1.6882(6) 0.2148(4) 0.3404(2)
O11 O 1.0799(6) 0.3891(4) 0.2856(2)
O12 O 1.0564(6) 0.2711(4) 0.2852(2)
O13 O 0.2579(6) 0.9804(4) -0.2779(2)
O14 O 0.4489(6) 1.0255(4) -0.0708(2)
O15 O 0.3952(6) 0.9188(4) -0.0421(2)
O16 O 1.1151(6) 0.9288(4) 0.6005(2)
O17 O 1.0461(6) 0.8297(4) 0.6349(2)
O18 O 0.9293(6) 0.8729(4) 0.3969(2)
O19 O 0.8590(6) 0.7733(4) 0.4273(2)
O20 O 0.6566(6) 0.5260(4) 0.3503(2)
O21 O 0.5876(6) 0.6457(4) 0.3810(2)
O22 O -0.0242(6) 0.6914(4) 0.3367(2)
O23 O 0.0453(6) 0.5684(4) 0.3095(2)
O24 O 0.6280(6) 0.3403(4) 0.0416(2)
O25 O 0.5476(5) 0.4683(3) 0.04621(19)
O26 O 0.7452(6) 0.3287(4) 0.2681(2)
O27 O 0.7758(6) 0.4452(4) 0.2558(2)
O28 O 0.5451(6) 0.6661(4) 0.0863(2)
O29 O 0.5976(5) 0.7779(4) 0.0722(2)
O30 O 0.7093(6) 0.7651(4) 0.2999(2)
O31 O 0.7696(5) 0.6370(4) 0.2986(2)
O32 O 0.9648(6) 0.4482(4) 0.3859(2)
O33 O 0.8698(5) 0.5740(4) 0.3940(2)
O34 O 0.6742(6) 0.6843(4) 0.4655(2)
O35 O 0.6943(7) 0.9912(5) 0.4437(3)
O36 O -0.0307(7) 1.2236(5) 0.2028(3)
O37 O 0.3384(6) 0.4209(4) 0.0072(2)
O38 O 0.3603(7) 0.8867(5) 0.1231(3)
O39 O 0.3590(6) 0.5787(4) 0.1200(2)
O40 O 0.9659(6) 0.5300(4) 0.2236(2)
O41 O 0.2693(6) 0.5424(4) 0.0358(2)
O44 O 0.2080(6) 0.8714(4) -0.2505(2)
O46 O 0.8986(7) 0.8708(5) 0.3078(3)
H97 H 0.9793 0.8579 0.3048
H98 H 0.8770 0.8787 0.2812
O47 O 0.8140(5) 0.3770(3) 0.34790(19)
H99 H 0.7335 0.3920 0.3552
H100 H 0.8436 0.3671 0.3730
H101 H 0.5905 0.7048 -0.0125
H102 H 0.5142 0.7611 -0.0369
O48 O 0.5231(6) 0.7459(4) -0.0084(2)
C67A C 1.0334(8) 0.4949(5) 0.5437(3)
C65A C 1.0158(8) 0.5638(6) 0.5189(3)
H33A H 1.0261 0.6075 0.5317
C66A C 0.9832(9) 0.5694(6) 0.4757(3)
H34A H 0.9723 0.6165 0.4594
C68A C 1.0705(8) 0.4895(6) 0.5908(3)
O32A O 1.0352(6) 0.5518(4) 0.6141(2)
O33A O 1.1302(5) 0.4260(4) 0.6060(2)
C90A C -0.1217(8) 0.5081(5) -0.0082(3)
C78A C -0.0332(8) 0.4352(5) -0.0100(3)
H53A H -0.0558 0.3912 -0.0165
C79A C 0.0870(8) 0.4276(5) -0.0024(3)
H54A H 0.1462 0.3786 -0.0044
C80A C -0.2548(8) 0.5159(5) -0.0179(3)
O37A O -0.3384(6) 0.5791(4) -0.0072(2)
O41A O -0.2693(6) 0.4576(4) -0.0358(2)
C41_2 C 1.3554(9) 0.6734(6) 0.3508(3)
H21_2 H 1.3808 0.7171 0.3556
C42_2 C 1.2333(9) 0.6825(6) 0.3434(3)
H22_2 H 1.1760 0.7322 0.3439
C43_2 C 1.1961(8) 0.6181(5) 0.3352(3)
C44_2 C 1.2810(9) 0.5462(6) 0.3344(3)
H23_2 H 1.2568 0.5025 0.3285
C45_2 C 1.4021(9) 0.5370(6) 0.3422(3)
H24_2 H 1.4591 0.4872 0.3414
C46_2 C 1.4401(8) 0.6000(5) 0.3510(3)
C47_2 C 1.5705(8) 0.5898(6) 0.3614(3)
C48_2 C 1.0611(8) 0.6274(6) 0.3263(3)
O20_2 O 1.6566(6) 0.5260(4) 0.3503(2)
O21_2 O 1.5876(6) 0.6457(4) 0.3810(2)
O22_2 O 0.9758(6) 0.6914(4) 0.3367(2)
O23_2 O 1.0453(6) 0.5684(4) 0.3095(2)
Nd1_2 Nd 1.75613(4) 0.71079(3) 0.379343(16)
Nd3_2 Nd 1.88414(4) 0.49526(3) 0.309185(16)
Nd5A Nd 1.10735(5) 0.79484(3) 0.710460(17)
Nd6A Nd 1.19834(5) 1.01381(3) 0.643264(17)
C49A C 0.3734(8) 0.6617(5) -0.1401(3)
H25A H 0.4024 0.7012 -0.1306
C50A C 0.3626(8) 0.5994(5) -0.1102(3)
C51A C 0.3193(8) 0.5410(6) -0.1242(3)
H26A H 0.3132 0.4990 -0.1046
C52A C 0.3413(8) 0.6653(5) -0.1835(3)
H27A H 0.3497 0.7066 -0.2034
C53A C 0.3991(8) 0.5971(5) -0.0632(3)
C54A C 0.2539(8) 0.6114(5) -0.2442(3)
C55A C 0.2849(8) 0.5448(5) -0.1673(3)
H28A H 0.2540 0.5059 -0.1764
C56A C 0.2964(8) 0.6068(5) -0.1972(3)
O24A O 0.3720(6) 0.6597(4) -0.0416(2)
O25A O 0.4524(5) 0.5317(3) -0.04621(19)
O26A O 0.2548(6) 0.6713(4) -0.2681(2)
O27A O 0.2242(6) 0.5548(4) -0.2558(2)
C1_2 C 1.0936(8) 0.8178(5) 0.0206(3)
C2_2 C 0.9972(8) 0.7829(5) 0.0318(3)
H1_2 H 1.0106 0.7367 0.0491
C3_2 C 0.8815(8) 0.8147(5) 0.0181(3)
H2_2 H 0.8160 0.7915 0.0266
C4_2 C 0.8639(8) 0.8837(5) -0.0094(3)
C5_2 C 0.9626(8) 0.9164(6) -0.0218(3)
H3_2 H 0.9516 0.9610 -0.0405
C6_2 C 1.0772(8) 0.8846(5) -0.0072(3)
H4_2 H 1.1431 0.9075 -0.0159
C7_2 C 1.2159(8) 0.7857(5) 0.0400(3)
C8_2 C 0.7349(8) 0.9202(6) -0.0238(3)
O1_2 O 1.2799(6) 0.8328(4) 0.0421(2)
O2_2 O 1.2444(6) 0.7168(4) 0.0548(2)
O3_2 O 0.6536(6) 0.8845(4) -0.0148(2)
O4_2 O 0.7211(6) 0.9853(4) -0.0437(2)
C25A C 0.7162(8) 1.1145(5) 0.1663(3)
H13A H 0.7466 1.1568 0.1699
C26A C 0.6806(8) 1.1040(5) 0.1248(3)
H14A H 0.6888 1.1391 0.1006
C27A C 0.6336(8) 1.0428(5) 0.1186(3)
C28A C 0.6214(8) 0.9909(5) 0.1558(3)
H15A H 0.5884 0.9495 0.1527
C29A C 0.6582(8) 1.0009(5) 0.1972(3)
H16A H 0.6501 0.9659 0.2215
C30A C 0.7064(8) 1.0617(5) 0.2028(3)
C31A C 0.5917(8) 1.0321(5) 0.0738(3)
C32A C 0.7498(8) 1.0717(5) 0.2473(3)
O13A O 0.7421(6) 1.0196(4) 0.2779(2)
O14A O 0.5511(6) 0.9745(4) 0.0708(2)
O15A O 0.6048(6) 1.0812(4) 0.0421(2)
O44A O 0.7920(6) 1.1286(4) 0.2505(2)
C33A C 0.0241(8) 1.2030(6) 0.4476(3)
H17A H 0.0377 1.2347 0.4220
C34A C 0.0594(8) 1.2154(5) 0.4884(3)
H18A H 0.0960 1.2555 0.4904
C35A C 0.0400(8) 1.1671(5) 0.5271(3)
C36A C -0.0174(8) 1.1087(5) 0.5236(3)
H19A H -0.0316 1.0772 0.5492
C37A C -0.0535(8) 1.0970(5) 0.4830(3)
H20A H -0.0925 1.0579 0.4814
C38A C -0.0322(8) 1.1432(5) 0.4441(3)
C39A C 0.0888(8) 1.1750(5) 0.5709(3)
C40A C -0.0682(9) 1.1259(6) 0.3995(3)
O16A O -0.1151(6) 1.0712(4) 0.3995(2)
O17A O -0.0461(6) 1.1703(4) 0.3651(2)
O18A O 0.0707(6) 1.1271(4) 0.6031(2)
O19A O 0.1410(6) 1.2267(4) 0.5727(2)
C17_2 C -0.6701(8) 1.3249(6) 0.3052(3)
H9_2 H -0.6894 1.3756 0.2933
C18_2 C -0.5532(9) 1.2925(6) 0.3175(3)
H10_2 H -0.4936 1.3206 0.3138
C19_2 C -0.5243(8) 1.2161(5) 0.3359(3)
C20_2 C -0.6145(8) 1.1765(6) 0.3419(3)
H11_2 H -0.5966 1.1266 0.3550
C21_2 C -0.7312(9) 1.2094(6) 0.3288(3)
H12_2 H -0.7908 1.1813 0.3324
C22_2 C -0.7599(8) 1.2846(5) 0.3100(3)
C23_2 C -0.3903(9) 1.1780(6) 0.3474(3)
C24_2 C -0.8856(8) 1.3169(5) 0.2934(3)
O9_2 O -0.3746(6) 1.1102(4) 0.3636(2)
O10_2 O -0.3118(6) 1.2148(4) 0.3404(2)
O11_2 O -0.9201(6) 1.3891(4) 0.2856(2)
O12_2 O -0.9436(6) 1.2711(4) 0.2852(2)
C9_2 C 1.4343(8) 0.9198(5) 0.3493(3)
C10_2 C 1.4306(8) 0.9788(5) 0.3157(3)
H5_2 H 1.5034 0.9942 0.3043
C11_2 C 1.3207(8) 1.0137(5) 0.2995(3)
H6_2 H 1.3184 1.0540 0.2778
C12_2 C 1.2133(8) 0.9905(5) 0.3146(3)
C13_2 C 1.2166(8) 0.9293(5) 0.3472(3)
H7_2 H 1.1449 0.9122 0.3573
C14_2 C 1.3269(8) 0.8955(5) 0.3638(3)
H8_2 H 1.3296 0.8550 0.3854
C15_2 C 1.5547(8) 0.8839(6) 0.3691(3)
C16_2 C 1.0881(9) 1.0335(6) 0.2978(3)
O5_2 O 1.5616(6) 0.8233(4) 0.3931(2)
O6_2 O 1.6401(6) 0.9161(4) 0.3611(2)
O7_2 O 0.9949(6) 1.0073(4) 0.3100(2)
O8_2 O 1.0861(6) 1.0910(4) 0.2730(2)
C57_2 C 1.5855(7) 0.7194(5) 0.0974(3)
C58_2 C 1.6270(8) 0.7143(5) 0.1440(3)
C59_2 C 1.6089(8) 0.6549(5) 0.1747(3)
H29_2 H 1.5728 0.6181 0.1661
C60_2 C 1.6441(8) 0.6499(5) 0.2181(3)
H30_2 H 1.6357 0.6083 0.2378
C61_2 C 1.6916(8) 0.7065(5) 0.2319(3)
C62_2 C 1.7093(8) 0.7665(6) 0.2014(3)
H31_2 H 1.7424 0.8045 0.2103
C63_2 C 1.6772(8) 0.7693(5) 0.1576(3)
H32_2 H 1.6899 0.8092 0.1372
C64_2 C 1.7270(8) 0.7028(6) 0.2800(3)
O28_2 O 1.5451(6) 0.6661(4) 0.0863(2)
O29_2 O 1.5976(5) 0.7779(4) 0.0722(2)
O30_2 O 1.7093(6) 0.7651(4) 0.2999(2)
O31_2 O 1.7696(5) 0.6370(4) 0.2986(2)
C69_2 C 1.6236(12) 0.5237(7) 0.5369(4)
H35_2 H 1.6150 0.4986 0.5101
H36_2 H 1.5473 0.5312 0.5594
H37_2 H 1.6945 0.4915 0.5499
C70_2 C 1.6587(12) 0.6472(7) 0.5592(4)
H38_2 H 1.6695 0.6958 0.5460
H39_2 H 1.7318 0.6199 0.5727
H40_2 H 1.5840 0.6573 0.5826
C71_2 C 1.6552(11) 0.6214(7) 0.4796(4)
N1_2 N 1.6451(9) 0.5999(6) 0.5234(4)
O34_2 O 1.6742(6) 0.6843(4) 0.4655(2)
C87_2 C 1.9893(10) 0.5723(7) 0.1304(4)
H69_2 H 1.9720 0.5247 0.1426
H70_2 H 2.0653 0.5601 0.1075
H71_2 H 1.9192 0.6031 0.1164
C88_2 C 2.0359(10) 0.6906(6) 0.1547(4)
H72_2 H 2.0481 0.7130 0.1818
H73_2 H 1.9666 0.7259 0.1422
H74_2 H 2.1120 0.6814 0.1320
C89_2 C 1.9896(9) 0.5923(6) 0.2103(4)
H75_2 H 1.9959 0.6249 0.2328
N7_2 N 2.0063(8) 0.6156(5) 0.1672(3)
O40_2 O 1.9659(6) 0.5300(4) 0.2236(2)
O47_2 O 1.8140(5) 0.3770(3) 0.34790(19)
H99_2 H 1.7335 0.3920 0.3552
H100_2 H 1.8436 0.3671 0.3730
C75A C 1.0110(12) 0.7594(8) 0.8925(5)
H47A H 1.0357 0.8014 0.8751
H48A H 0.9371 0.7806 0.9153
H49A H 1.0794 0.7295 0.9077
C76A C 0.9414(12) 0.6425(7) 0.8826(4)
H50A H 0.9241 0.6151 0.8585
H51A H 1.0073 0.6080 0.8972
H52A H 0.8656 0.6601 0.9052
C77A C 0.9929(11) 0.7218(7) 0.8170(4)
N3A N 0.9831(9) 0.7109(6) 0.8625(3)
O36A O 1.0307(7) 0.7764(5) 0.7972(3)
C72A C 1.3920(11) 1.1292(7) 0.4652(4)
H41A H 1.4094 1.1597 0.4878
H42A H 1.4671 1.1104 0.4425
H43A H 1.3246 1.1612 0.4503
C73A C 1.3234(11) 1.0139(7) 0.4584(4)
H44A H 1.2993 0.9719 0.4760
H45A H 1.2542 1.0439 0.4437
H46A H 1.3964 0.9926 0.4352
C74A C 1.3445(10) 1.0600(7) 0.5334(4)
N2A N 1.3536(8) 1.0626(5) 0.4882(3)
O35A O 1.3057(7) 1.0088(5) 0.5563(3)
O46A O 1.1014(7) 1.1292(5) 0.6922(3)
H97A H 1.0207 1.1421 0.6952
H98A H 1.1230 1.1213 0.7188
Nd2_2 Nd 1.43940(4) 0.60984(3) 0.035094(16)
Nd4_2 Nd 1.45372(4) 0.88984(3) 0.035805(16)
C84_2 C 1.3314(10) 0.5354(7) 0.2131(4)
H62_2 H 1.3445 0.5841 0.2011
H63_2 H 1.4026 0.5066 0.2272
H64_2 H 1.2552 0.5454 0.2358
C85_2 C 1.2949(10) 0.4150(6) 0.1868(4)
H65_2 H 1.2862 0.3930 0.1589
H66_2 H 1.2179 0.4218 0.2089
H67_2 H 1.3645 0.3804 0.1994
C86_2 C 1.3364(9) 0.5164(6) 0.1323(4)
H68_2 H 1.3305 0.4844 0.1093
N6_2 N 1.3195(8) 0.4910(5) 0.1763(3)
O39_2 O 1.3590(6) 0.5787(4) 0.1200(2)
H101_2 H 1.5905 0.7048 -0.0125
H102_2 H 1.5142 0.7611 -0.0369
O48_2 O 1.5231(6) 0.7459(4) -0.0084(2)
C81_2 C 1.3446(12) 0.8741(8) 0.2178(5)
H55_2 H 1.3683 0.9152 0.1991
H56_2 H 1.4143 0.8452 0.2326
H57_2 H 1.2720 0.8962 0.2409
C82_2 C 1.2738(12) 0.7573(8) 0.2124(5)
H58_2 H 1.2557 0.7277 0.1894
H59_2 H 1.1987 0.7763 0.2350
H60_2 H 1.3405 0.7243 0.2272
C83_2 C 1.3243(11) 0.8309(8) 0.1452(4)
H61_2 H 1.3046 0.7942 0.1289
N5_2 N 1.3147(9) 0.8242(6) 0.1898(4)
O38_2 O 1.3603(7) 0.8867(5) 0.1231(3)
O37A_2 O 0.6616(6) 0.5791(4) -0.0072(2)
O4A O 0.2789(6) 1.0147(4) 0.0437(2)
O12_3 O 0.0564(6) 1.2711(4) 0.2852(2)
O44A_2 O -0.2080(6) 1.1286(4) 0.2505(2)
O26_2 O -0.2548(6) 1.3287(4) 0.2681(2)
O16A_2 O 0.8849(6) 1.0712(4) 0.3995(2)
O9_3 O 0.6254(6) 1.1102(4) 0.3636(2)
Nd4_3 Nd -0.54628(4) 0.88984(3) 0.035805(16)
Nd4A Nd -0.45372(4) 1.11016(3) -0.035805(16)
Nd6_2 Nd -0.19834(5) 0.98619(3) 0.356736(17)
Nd6_3 Nd 1.80166(5) -0.01381(3) 0.356736(17)
Nd5_2 Nd 1.89265(5) 0.20516(3) 0.289540(17)
Nd5_3 Nd 0.89265(5) 0.20516(3) 0.289540(17)
Nd6A_2 Nd 0.19834(5) 1.01381(3) -0.356736(17)
Nd4A_2 Nd 0.54628(4) 1.11016(3) -0.035805(16)
Nd1_3 Nd -0.24387(4) 0.71079(3) 0.379343(16)
Nd3_3 Nd -0.11586(4) 0.49526(3) 0.309185(16)
Nd2A Nd 0.56060(4) 0.39016(3) -0.035094(16)
Nd5A_2 Nd 0.10735(5) 0.79484(3) -0.289540(17)
Nd3A Nd 1.11586(4) 0.50474(3) 0.690815(16)
Nd1A Nd 1.24387(4) 0.28921(3) 0.620657(16)
Nd2_3 Nd -0.56060(4) 0.60984(3) 0.035094(16)
Nd2A_2 Nd -0.43940(4) 0.39016(3) -0.035094(16)
O19_2 O 1.8590(6) 0.7733(4) 0.4273(2)
O33_2 O 1.8698(5) 0.5740(4) 0.3940(2)
O22_3 O 1.9758(6) 0.6914(4) 0.3367(2)
O11_3 O 2.0799(6) 0.3891(4) 0.2856(2)
O27_2 O 1.7758(6) 0.4452(4) 0.2558(2)
O32_2 O 1.9648(6) 0.4482(4) 0.3859(2)
O23_3 O 2.0453(6) 0.5684(4) 0.3095(2)
O8A O 0.9139(6) 0.9090(4) 0.7270(2)
O10A O 1.3118(6) 0.7852(4) 0.6596(2)
O12A O 0.9436(6) 0.7289(4) 0.7148(2)
O44_2 O 1.2080(6) 0.8714(4) 0.7495(2)
O26A_2 O 1.2548(6) 0.6713(4) 0.7319(2)
O6A O 1.3599(6) 1.0839(4) 0.6389(2)
O18A_2 O 1.0707(6) 1.1271(4) 0.6031(2)
O7A O 1.0051(6) 0.9927(4) 0.6900(2)
O9A O 1.3746(6) 0.8898(4) 0.6364(2)
O13_2 O 1.2579(6) 0.9804(4) 0.7221(2)
Nd3A_2 Nd 0.11586(4) 0.50474(3) -0.309185(16)
Nd5_4 Nd 0.89265(5) 1.20516(3) 0.289540(17)
Nd6A_3 Nd 0.19834(5) 1.01381(3) 0.643264(17)
Nd1A_2 Nd 0.24387(4) 1.28921(3) 0.620657(16)
Nd3_4 Nd -1.11586(4) 1.49526(3) 0.309185(16)
Nd5_5 Nd -1.10735(5) 1.20516(3) 0.289540(17)
Nd6_4 Nd 1.80166(5) 0.98619(3) 0.356736(17)
O25_2 O 1.5476(5) 0.4683(3) 0.04621(19)
O41_2 O 1.2693(6) 0.5424(4) 0.0358(2)
O24A_2 O 1.3720(6) 0.6597(4) -0.0416(2)
O37A_3 O 1.6616(6) 0.5791(4) -0.0072(2)
O25A_2 O 1.4524(5) 0.5317(3) -0.04621(19)
O15_2 O 1.3952(6) 0.9188(4) -0.0421(2)
O3_3 O 1.6536(6) 0.8845(4) -0.0148(2)
O4A_2 O 1.2789(6) 1.0147(4) 0.0437(2)
O14A_2 O 1.5511(6) 0.9745(4) 0.0708(2)
loop_
_geom_bond_atom_site_label_1
_geom_bond_atom_site_label_2
_geom_bond_site_symmetry_1
_geom_bond_site_symmetry_2
Nd1 O5 1_555 1_555
Nd2 O2 1_555 1_555
Nd3 O11 1_555 1_555
Nd4 O1 1_555 1_555
Nd5 O8 1_555 1_555
Nd6 O6 1_555 1_555
C1 C2 1_555 1_555
C2 H1 1_555 1_555
C3 C2 1_555 1_555
H2 C3 1_555 1_555
C4 C3 1_555 1_555
C5 C4 1_555 1_555
H3 C5 1_555 1_555
C6 C1 1_555 1_555
H4 C6 1_555 1_555
C7 C1 1_555 1_555
C8 C4 1_555 1_555
C9 C10 1_555 1_555
C10 H5 1_555 1_555
C11 C10 1_555 1_555
H6 C11 1_555 1_555
C12 C11 1_555 1_555
C13 C12 1_555 1_555
H7 C13 1_555 1_555
C14 C9 1_555 1_555
H8 C14 1_555 1_555
C15 C9 1_555 1_555
C16 C12 1_555 1_555
C17 H9 1_555 1_555
C18 C17 1_555 1_555
H10 C18 1_555 1_555
C19 C18 1_555 1_555
C20 C19 1_555 1_555
H11 C20 1_555 1_555
C21 C20 1_555 1_555
H12 C21 1_555 1_555
C22 C17 1_555 1_555
C23 C19 1_555 1_555
C24 C22 1_555 1_555
C25 H13 1_555 1_555
C26 C25 1_555 1_555
H14 C26 1_555 1_555
C27 C26 1_555 1_555
C28 C27 1_555 1_555
H15 C28 1_555 1_555
C29 C28 1_555 1_555
H16 C29 1_555 1_555
C30 C25 1_555 1_555
C31 C27 1_555 1_555
C32 C30 1_555 1_555
C33 H17 1_555 1_555
C34 C33 1_555 1_555
H18 C34 1_555 1_555
C35 C34 1_555 1_555
C36 C35 1_555 1_555
H19 C36 1_555 1_555
C37 C36 1_555 1_555
H20 C37 1_555 1_555
C38 C33 1_555 1_555
C39 C35 1_555 1_555
C40 C38 1_555 1_555
C41 H21 1_555 1_555
C42 C41 1_555 1_555
H22 C42 1_555 1_555
C43 C42 1_555 1_555
C44 C43 1_555 1_555
H23 C44 1_555 1_555
C45 C44 1_555 1_555
H24 C45 1_555 1_555
C46 C41 1_555 1_555
C47 C46 1_555 1_555
C48 C43 1_555 1_555
C49 H25 1_555 1_555
C50 C49 1_555 1_555
C51 C50 1_555 1_555
H26 C51 1_555 1_555
C52 C49 1_555 1_555
H27 C52 1_555 1_555
C53 C50 1_555 1_555
C54 C56 1_555 1_555
C55 C51 1_555 1_555
H28 C55 1_555 1_555
C56 C52 1_555 1_555
C57 C58 1_555 1_555
C58 C59 1_555 1_555
C59 H29 1_555 1_555
C60 C59 1_555 1_555
H30 C60 1_555 1_555
C61 C60 1_555 1_555
C62 C61 1_555 1_555
H31 C62 1_555 1_555
C63 C58 1_555 1_555
H32 C63 1_555 1_555
C64 C61 1_555 1_555
C65 H33 1_555 1_555
C66 C65 1_555 1_555
H34 C66 1_555 1_555
C67 C65 1_555 1_555
C68 C67 1_555 1_555
C69 H35 1_555 1_555
H36 C69 1_555 1_555
H37 C69 1_555 1_555
C70 H38 1_555 1_555
H39 C70 1_555 1_555
H40 C70 1_555 1_555
C71 N1 1_555 1_555
C72 H41 1_555 1_555
H42 C72 1_555 1_555
H43 C72 1_555 1_555
C73 H44 1_555 1_555
H45 C73 1_555 1_555
H46 C73 1_555 1_555
C74 N2 1_555 1_555
C75 H47 1_555 1_555
H48 C75 1_555 1_555
H49 C75 1_555 1_555
C76 H50 1_555 1_555
H51 C76 1_555 1_555
H52 C76 1_555 1_555
C77 N3 1_555 1_555
C78 H53 1_555 1_555
C79 C78 1_555 1_555
H54 C79 1_555 1_555
C80 C90 1_555 1_555
C81 H55 1_555 1_555
H56 C81 1_555 1_555
H57 C81 1_555 1_555
C82 H58 1_555 1_555
H59 C82 1_555 1_555
H60 C82 1_555 1_555
C83 H61 1_555 1_555
C84 H62 1_555 1_555
H63 C84 1_555 1_555
H64 C84 1_555 1_555
C85 H65 1_555 1_555
H66 C85 1_555 1_555
H67 C85 1_555 1_555
C86 H68 1_555 1_555
C87 H69 1_555 1_555
H70 C87 1_555 1_555
H71 C87 1_555 1_555
C88 H72 1_555 1_555
H73 C88 1_555 1_555
H74 C88 1_555 1_555
C89 H75 1_555 1_555
C90 C78 1_555 1_555
C91 H76 1_555 1_555
H77 C91 1_555 1_555
H78 C91 1_555 1_555
C92 H79 1_555 1_555
H80 C92 1_555 1_555
H81 C92 1_555 1_555
C93 H82 1_555 1_555
C94 H83 1_555 1_555
H84 C94 1_555 1_555
H85 C94 1_555 1_555
C95 H86 1_555 1_555
H87 C95 1_555 1_555
H88 C95 1_555 1_555
C96 H89 1_555 1_555
C97 H90 1_555 1_555
H91 C97 1_555 1_555
H92 C97 1_555 1_555
C98 H93 1_555 1_555
H94 C98 1_555 1_555
H95 C98 1_555 1_555
C99 H96 1_555 1_555
N1 C69 1_555 1_555
N2 C72 1_555 1_555
N3 C75 1_555 1_555
N4 C91 1_555 1_555
N5 C81 1_555 1_555
N6 C84 1_555 1_555
N7 C87 1_555 1_555
N8 C94 1_555 1_555
N9 C97 1_555 1_555
O1 C7 1_555 1_555
O2 C7 1_555 1_555
O3 C8 1_555 1_555
O4 C8 1_555 1_555
O5 C15 1_555 1_555
O6 C15 1_555 1_555
O7 C16 1_555 1_555
O8 C16 1_555 1_555
O9 C23 1_555 1_555
O10 C23 1_555 1_555
O11 C24 1_555 1_555
O12 C24 1_555 1_555
O13 C32 1_555 1_555
O14 C31 1_555 1_555
O15 Nd4 1_555 1_555
O16 C40 1_555 1_555
O17 C40 1_555 1_555
O18 Nd6 1_555 1_555
O19 Nd1 1_555 1_555
O20 Nd3 1_555 1_555
O21 Nd1 1_555 1_555
O22 C48 1_555 1_555
O23 C48 1_555 1_555
O24 C53 1_555 1_555
O25 Nd2 1_555 1_555
O26 C54 1_555 1_555
O27 Nd3 1_555 1_555
O28 Nd2 1_555 1_555
O29 Nd4 1_555 1_555
O30 Nd1 1_555 1_555
O31 Nd1 1_555 1_555
O32 Nd3 1_555 1_555
O33 Nd1 1_555 1_555
O34 Nd1 1_555 1_555
O35 Nd6 1_555 1_555
O36 Nd5 1_555 1_555
O37 C80 1_555 1_555
O38 Nd4 1_555 1_555
O39 Nd2 1_555 1_555
O40 Nd3 1_555 1_555
O41 Nd2 1_555 1_555
O42 C93 1_555 1_555
O43 C96 1_555 1_555
O44 C32 1_555 1_555
O45 C99 1_555 1_555
O46 Nd6 1_555 1_555
H97 O46 1_555 1_555
H98 O46 1_555 1_555
O47 Nd3 1_555 1_555
H99 O47 1_555 1_555
H100 O47 1_555 1_555
H101 O48 1_555 1_555
H102 O48 1_555 1_555
O48 Nd2 1_555 1_555
C67A C66 1_555 1_555
C65A C67A 1_555 1_555
H33A C65A 1_555 1_555
C66A C67 1_555 1_555
H34A C66A 1_555 1_555
C68A C67A 1_555 1_555
O32A C68A 1_555 1_555
O33A C68A 1_555 1_555
C90A C79 1_555 1_555
C78A C90A 1_555 1_555
H53A C78A 1_555 1_555
C79A C90 1_555 1_555
H54A C79A 1_555 1_555
C80A C90A 1_555 1_555
O37A C80A 1_555 1_555
O41A C80A 1_555 1_555
C41_2 H21_2 1_555 1_555
C42_2 C41_2 1_555 1_555
H22_2 C42_2 1_555 1_555
C43_2 C42_2 1_555 1_555
C44_2 C43_2 1_555 1_555
H23_2 C44_2 1_555 1_555
C45_2 C44_2 1_555 1_555
H24_2 C45_2 1_555 1_555
C46_2 C41_2 1_555 1_555
C47_2 C46_2 1_555 1_555
C48_2 C43_2 1_555 1_555
O20_2 C47_2 1_555 1_555
O21_2 C47_2 1_555 1_555
O22_2 Nd1 1_555 1_555
O23_2 Nd3 1_555 1_555
Nd1_2 O21_2 1_555 1_555
Nd3_2 O20_2 1_555 1_555
Nd5A O17 1_555 1_555
Nd6A O16 1_555 1_555
C49A H25A 1_555 1_555
C50A C49A 1_555 1_555
C51A C50A 1_555 1_555
H26A C51A 1_555 1_555
C52A C49A 1_555 1_555
H27A C52A 1_555 1_555
C53A C50A 1_555 1_555
C54A C56A 1_555 1_555
C55A C51A 1_555 1_555
H28A C55A 1_555 1_555
C56A C52A 1_555 1_555
O24A Nd2 1_555 1_555
O25A Nd2 1_555 1_555
O26A C54A 1_555 1_555
O27A C54A 1_555 1_555
C1_2 C2_2 1_555 1_555
C2_2 H1_2 1_555 1_555
C3_2 C2_2 1_555 1_555
H2_2 C3_2 1_555 1_555
C4_2 C3_2 1_555 1_555
C5_2 C4_2 1_555 1_555
H3_2 C5_2 1_555 1_555
C6_2 C1_2 1_555 1_555
H4_2 C6_2 1_555 1_555
C7_2 C1_2 1_555 1_555
C8_2 C4_2 1_555 1_555
O1_2 C7_2 1_555 1_555
O2_2 C7_2 1_555 1_555
O3_2 Nd4 1_555 1_555
O4_2 C8_2 1_555 1_555
C25A H13A 1_555 1_555
C26A C25A 1_555 1_555
H14A C26A 1_555 1_555
C27A C26A 1_555 1_555
C28A C27A 1_555 1_555
H15A C28A 1_555 1_555
C29A C28A 1_555 1_555
H16A C29A 1_555 1_555
C30A C25A 1_555 1_555
C31A C27A 1_555 1_555
C32A C30A 1_555 1_555
O13A Nd6 1_555 1_555
O14A Nd4 1_555 1_555
O15A C31A 1_555 1_555
O44A C32A 1_555 1_555
C33A H17A 1_555 1_555
C34A C33A 1_555 1_555
H18A C34A 1_555 1_555
C35A C34A 1_555 1_555
C36A C35A 1_555 1_555
H19A C36A 1_555 1_555
C37A C36A 1_555 1_555
H20A C37A 1_555 1_555
C38A C33A 1_555 1_555
C39A C35A 1_555 1_555
C40A C38A 1_555 1_555
O16A C40A 1_555 1_555
O17A Nd5 1_555 1_555
O18A C39A 1_555 1_555
O19A C39A 1_555 1_555
C17_2 H9_2 1_555 1_555
C18_2 C17_2 1_555 1_555
H10_2 C18_2 1_555 1_555
C19_2 C18_2 1_555 1_555
C20_2 C19_2 1_555 1_555
H11_2 C20_2 1_555 1_555
C21_2 C20_2 1_555 1_555
H12_2 C21_2 1_555 1_555
C22_2 C17_2 1_555 1_555
C23_2 C19_2 1_555 1_555
C24_2 C22_2 1_555 1_555
O9_2 C23_2 1_555 1_555
O10_2 Nd5 1_555 1_555
O11_2 C24_2 1_555 1_555
O12_2 C24_2 1_555 1_555
C9_2 C10_2 1_555 1_555
C10_2 H5_2 1_555 1_555
C11_2 C10_2 1_555 1_555
H6_2 C11_2 1_555 1_555
C12_2 C11_2 1_555 1_555
C13_2 C12_2 1_555 1_555
H7_2 C13_2 1_555 1_555
C14_2 C9_2 1_555 1_555
H8_2 C14_2 1_555 1_555
C15_2 C9_2 1_555 1_555
C16_2 C12_2 1_555 1_555
O5_2 Nd1_2 1_555 1_555
O6_2 C15_2 1_555 1_555
O7_2 Nd6 1_555 1_555
O8_2 C16_2 1_555 1_555
C57_2 C58_2 1_555 1_555
C58_2 C59_2 1_555 1_555
C59_2 H29_2 1_555 1_555
C60_2 C59_2 1_555 1_555
H30_2 C60_2 1_555 1_555
C61_2 C60_2 1_555 1_555
C62_2 C61_2 1_555 1_555
H31_2 C62_2 1_555 1_555
C63_2 C58_2 1_555 1_555
H32_2 C63_2 1_555 1_555
C64_2 C61_2 1_555 1_555
O28_2 C57_2 1_555 1_555
O29_2 C57_2 1_555 1_555
O30_2 Nd1_2 1_555 1_555
O31_2 Nd1_2 1_555 1_555
C69_2 H35_2 1_555 1_555
H36_2 C69_2 1_555 1_555
H37_2 C69_2 1_555 1_555
C70_2 H38_2 1_555 1_555
H39_2 C70_2 1_555 1_555
H40_2 C70_2 1_555 1_555
C71_2 N1_2 1_555 1_555
N1_2 C69_2 1_555 1_555
O34_2 Nd1_2 1_555 1_555
C87_2 H69_2 1_555 1_555
H70_2 C87_2 1_555 1_555
H71_2 C87_2 1_555 1_555
C88_2 H72_2 1_555 1_555
H73_2 C88_2 1_555 1_555
H74_2 C88_2 1_555 1_555
C89_2 H75_2 1_555 1_555
N7_2 C87_2 1_555 1_555
O40_2 Nd3_2 1_555 1_555
O47_2 Nd3_2 1_555 1_555
H99_2 O47_2 1_555 1_555
H100_2 O47_2 1_555 1_555
C75A H47A 1_555 1_555
H48A C75A 1_555 1_555
H49A C75A 1_555 1_555
C76A H50A 1_555 1_555
H51A C76A 1_555 1_555
H52A C76A 1_555 1_555
C77A N3A 1_555 1_555
N3A C75A 1_555 1_555
O36A Nd5A 1_555 1_555
C72A H41A 1_555 1_555
H42A C72A 1_555 1_555
H43A C72A 1_555 1_555
C73A H44A 1_555 1_555
H45A C73A 1_555 1_555
H46A C73A 1_555 1_555
C74A N2A 1_555 1_555
N2A C72A 1_555 1_555
O35A Nd6A 1_555 1_555
O46A Nd6A 1_555 1_555
H97A O46A 1_555 1_555
H98A O46A 1_555 1_555
Nd2_2 O2_2 1_555 1_555
Nd4_2 O1_2 1_555 1_555
C84_2 H62_2 1_555 1_555
H63_2 C84_2 1_555 1_555
H64_2 C84_2 1_555 1_555
C85_2 H65_2 1_555 1_555
H66_2 C85_2 1_555 1_555
H67_2 C85_2 1_555 1_555
C86_2 H68_2 1_555 1_555
N6_2 C84_2 1_555 1_555
O39_2 Nd2_2 1_555 1_555
H101_2 O48_2 1_555 1_555
H102_2 O48_2 1_555 1_555
O48_2 Nd2_2 1_555 1_555
C81_2 H55_2 1_555 1_555
H56_2 C81_2 1_555 1_555
H57_2 C81_2 1_555 1_555
C82_2 H58_2 1_555 1_555
H59_2 C82_2 1_555 1_555
H60_2 C82_2 1_555 1_555
C83_2 H61_2 1_555 1_555
N5_2 C81_2 1_555 1_555
O38_2 Nd4_2 1_555 1_555
O37A_2 Nd2 1_555 1_555
O4A Nd4 1_555 1_555
O12_3 Nd5 1_555 1_555
O44A_2 Nd5 1_555 1_555
O26_2 Nd5 1_555 1_555
O16A_2 Nd6 1_555 1_555
O9_3 Nd6 1_555 1_555
Nd4_3 O3 1_555 1_555
Nd4A O4 1_555 1_555
Nd6_2 O7 1_555 1_555
Nd6_3 O9 1_555 1_555
Nd5_2 O10 1_555 1_555
Nd5_3 O12 1_555 1_555
Nd6A_2 O13 1_555 1_555
Nd4A_2 O14 1_555 1_555
Nd1_3 O22 1_555 1_555
Nd3_3 O23 1_555 1_555
Nd2A O24 1_555 1_555
Nd5A_2 O44 1_555 1_555
Nd3A O32A 1_555 1_555
Nd1A O33A 1_555 1_555
Nd2_3 O37A 1_555 1_555
Nd2A_2 O41A 1_555 1_555
O19_2 Nd1_2 1_555 1_555
O33_2 Nd1_2 1_555 1_555
O22_3 Nd1_2 1_555 1_555
O11_3 Nd3_2 1_555 1_555
O27_2 Nd3_2 1_555 1_555
O32_2 Nd3_2 1_555 1_555
O23_3 Nd3_2 1_555 1_555
O8A Nd5A 1_555 1_555
O10A Nd5A 1_555 1_555
O12A Nd5A 1_555 1_555
O44_2 Nd5A 1_555 1_555
O26A_2 Nd5A 1_555 1_555
O6A Nd6A 1_555 1_555
O18A_2 Nd6A 1_555 1_555
O7A Nd6A 1_555 1_555
O9A Nd6A 1_555 1_555
O13_2 Nd6A 1_555 1_555
Nd3A_2 O27A 1_555 1_555
Nd5_4 O44A 1_555 1_555
Nd6A_3 O18A 1_555 1_555
Nd1A_2 O19A 1_555 1_555
Nd3_4 O11_2 1_555 1_555
Nd5_5 O12_2 1_555 1_555
Nd6_4 O6_2 1_555 1_555
O25_2 Nd2_2 1_555 1_555
O41_2 Nd2_2 1_555 1_555
O24A_2 Nd2_2 1_555 1_555
O37A_3 Nd2_2 1_555 1_555
O25A_2 Nd2_2 1_555 1_555
O15_2 Nd4_2 1_555 1_555
O3_3 Nd4_2 1_555 1_555
O4A_2 Nd4_2 1_555 1_555
O14A_2 Nd4_2 1_555 1_555
Nd3 O33 1_555 1_555
Nd3 O31 1_555 1_555
Nd4 O48 1_555 1_555
C5 C6 1_555 1_555
C13 C14 1_555 1_555
C21 C22 1_555 1_555
C29 C30 1_555 1_555
C31 O15 1_555 1_555
C37 C38 1_555 1_555
C39 O18 1_555 1_555
C39 O19 1_555 1_555
C45 C46 1_555 1_555
C47 O20 1_555 1_555
C47 O21 1_555 1_555
C53 O25 1_555 1_555
C54 O27 1_555 1_555
C55 C56 1_555 1_555
C57 O28 1_555 1_555
C57 O29 1_555 1_555
C62 C63 1_555 1_555
C64 O30 1_555 1_555
C64 O31 1_555 1_555
C68 O32 1_555 1_555
C68 O33 1_555 1_555
C70 N1 1_555 1_555
C71 O34 1_555 1_555
C73 N2 1_555 1_555
C74 O35 1_555 1_555
C76 N3 1_555 1_555
C77 O36 1_555 1_555
C80 O41 1_555 1_555
C82 N5 1_555 1_555
C83 N5 1_555 1_555
C83 O38 1_555 1_555
C85 N6 1_555 1_555
C86 N6 1_555 1_555
C86 O39 1_555 1_555
C88 N7 1_555 1_555
C89 N7 1_555 1_555
C89 O40 1_555 1_555
C92 N4 1_555 1_555
C93 N4 1_555 1_555
C95 N8 1_555 1_555
C96 N8 1_555 1_555
C98 N9 1_555 1_555
C99 N9 1_555 1_555
O25 Nd2A 1_555 1_555
O26 Nd5_3 1_555 1_555
O37 Nd2A 1_555 1_555
C65A C66A 1_555 1_555
O33A Nd3A 1_555 1_555
C78A C79A 1_555 1_555
C45_2 C46_2 1_555 1_555
C48_2 O22_2 1_555 1_555
C48_2 O23_2 1_555 1_555
Nd3_2 O31_2 1_555 1_555
Nd3_2 O33_2 1_555 1_555
C53A O24A 1_555 1_555
C53A O25A 1_555 1_555
C55A C56A 1_555 1_555
O25A Nd2A 1_555 1_555
O26A Nd5A_2 1_555 1_555
C5_2 C6_2 1_555 1_555
C8_2 O3_2 1_555 1_555
O4_2 Nd4A_2 1_555 1_555
C29A C30A 1_555 1_555
C31A O14A 1_555 1_555
C32A O13A 1_555 1_555
O15A Nd4A_2 1_555 1_555
C37A C38A 1_555 1_555
C40A O17A 1_555 1_555
O16A Nd6_2 1_555 1_555
C21_2 C22_2 1_555 1_555
C23_2 O10_2 1_555 1_555
O9_2 Nd6_2 1_555 1_555
C13_2 C14_2 1_555 1_555
C15_2 O5_2 1_555 1_555
C16_2 O7_2 1_555 1_555
O8_2 Nd5_4 1_555 1_555
C62_2 C63_2 1_555 1_555
C64_2 O30_2 1_555 1_555
C64_2 O31_2 1_555 1_555
O28_2 Nd2_2 1_555 1_555
O29_2 Nd4_2 1_555 1_555
C70_2 N1_2 1_555 1_555
C71_2 O34_2 1_555 1_555
C88_2 N7_2 1_555 1_555
C89_2 N7_2 1_555 1_555
C89_2 O40_2 1_555 1_555
C76A N3A 1_555 1_555
C77A O36A 1_555 1_555
C73A N2A 1_555 1_555
C74A O35A 1_555 1_555
Nd4_2 O48_2 1_555 1_555
C85_2 N6_2 1_555 1_555
C86_2 N6_2 1_555 1_555
C86_2 O39_2 1_555 1_555
C82_2 N5_2 1_555 1_555
C83_2 N5_2 1_555 1_555
C83_2 O38_2 1_555 1_555

#END
