
#######################################################################
#
#                 Cambridge Crystallographic Data Centre
#                                CCDC 
#
#######################################################################
#
# If this CIF has been generated from an entry in the Cambridge 
# Structural Database, then it will include bibliographic, chemical, 
# crystal, experimental, refinement or atomic coordinate data resulting 
# from the CCDC's data processing and validation procedures.
#
#######################################################################

data_ALUJIB
_symmetry_cell_setting           triclinic
_symmetry_space_group_name_H-M   'P -1'
_symmetry_Int_Tables_number      2
_space_group_name_Hall           '-P 1'
loop_
_symmetry_equiv_pos_site_id
_symmetry_equiv_pos_as_xyz
1 x,y,z
2 -x,-y,-z
_cell_length_a                   11.0987(13)
_cell_length_b                   17.768(2)
_cell_length_c                   29.159(3)
_cell_angle_alpha                86.547(2)
_cell_angle_beta                 79.811(2)
_cell_angle_gamma                73.123(2)
_cell_volume                     5415.53
loop_
_atom_site_label
_atom_site_type_symbol
_atom_site_fract_x
_atom_site_fract_y
_atom_site_fract_z
C91 C 0.0477(11) 1.0171(7) 0.1563(4)
H76 H 0.0598 1.0340 0.1854
H77 H -0.0161 1.0578 0.1437
H78 H 0.1267 1.0063 0.1348
C92 C -0.0142(11) 0.9167(7) 0.1223(4)
H79 H -0.0403 0.8701 0.1306
H80 H 0.0631 0.9040 0.0998
H81 H -0.0800 0.9548 0.1090
C93 C -0.0169(10) 0.9177(7) 0.2050(4)
H82 H -0.0061 0.9423 0.2306
N4 N 0.0081(8) 0.9491(5) 0.1636(3)
O42 O -0.0527(8) 0.8594(5) 0.2123(3)
C94 C 0.3642(12) 0.7955(7) 0.5065(4)
H83 H 0.3731 0.8121 0.5362
H84 H 0.3005 0.8359 0.4937
H85 H 0.4443 0.7861 0.4858
C95 C 0.3099(12) 0.6951(7) 0.4706(4)
H86 H 0.2844 0.6478 0.4774
H87 H 0.3890 0.6837 0.4491
H88 H 0.2452 0.7336 0.4571
C96 C 0.3019(12) 0.6939(8) 0.5531(5)
H89 H 0.3104 0.7185 0.5792
N8 N 0.3264(9) 0.7249(6) 0.5125(4)
O43 O 0.2674(8) 0.6322(5) 0.5591(3)
C97 C 0.6426(11) 0.8001(7) 0.8020(4)
H90 H 0.6131 0.7546 0.8100
H91 H 0.7216 0.7857 0.7805
H92 H 0.5800 0.8391 0.7878
C98 C 0.7071(11) 0.8996(7) 0.8382(4)
H93 H 0.7167 0.9155 0.8679
H94 H 0.6467 0.9415 0.8249
H95 H 0.7881 0.8877 0.8178
C99 C 0.6366(10) 0.7990(7) 0.8847(4)
H96 H 0.6488 0.8227 0.9104
N9 N 0.6627(8) 0.8321(5) 0.8440(3)
O45 O 0.5981(7) 0.7409(5) 0.8928(3)
Ce1 Ce 0.75723(5) 0.71088(3) 0.379045(15)
Ce2 Ce 0.44003(5) 0.60986(3) 0.034675(16)
Ce3 Ce 0.88416(5) 0.49619(3) 0.309255(16)
Ce4 Ce 0.45414(5) 0.89022(3) 0.035684(16)
Ce5 Ce -0.10770(5) 1.20498(3) 0.289470(16)
Ce6 Ce 0.80215(5) 0.98700(3) 0.356697(16)
C1 C 0.0979(8) 0.8181(5) 0.0195(3)
C2 C 0.0004(8) 0.7822(5) 0.0316(3)
H1 H 0.0139 0.7362 0.0494
C3 C -0.1157(8) 0.8144(5) 0.0175(3)
H2 H -0.1805 0.7903 0.0259
C4 C -0.1364(8) 0.8830(5) -0.0095(3)
C5 C -0.0392(9) 0.9179(5) -0.0220(3)
H3 H -0.0520 0.9635 -0.0401
C6 C 0.0771(9) 0.8849(5) -0.0075(3)
H4 H 0.1425 0.9084 -0.0163
C7 C 0.2195(8) 0.7872(5) 0.0391(3)
C8 C -0.2652(8) 0.9206(5) -0.0233(3)
C9 C 0.4364(8) 0.9200(5) 0.3486(3)
C10 C 0.4306(9) 0.9788(5) 0.3157(3)
H5 H 0.5028 0.9953 0.3046
C11 C 0.3198(8) 1.0134(5) 0.2992(3)
H6 H 0.3172 1.0533 0.2769
C12 C 0.2098(8) 0.9897(5) 0.3154(3)
C13 C 0.2171(9) 0.9296(5) 0.3476(3)
H7 H 0.1454 0.9124 0.3583
C14 C 0.3281(8) 0.8948(5) 0.3640(3)
H8 H 0.3315 0.8539 0.3857
C15 C 0.5563(9) 0.8848(6) 0.3685(3)
C16 C 0.0867(9) 1.0316(5) 0.2981(3)
C17 C 1.3277(9) 0.3267(6) 0.3049(3)
H9 H 1.3081 0.3780 0.2932
C18 C 1.4464(9) 0.2921(5) 0.3171(3)
H10 H 1.5071 0.3197 0.3124
C19 C 1.4764(8) 0.2180(5) 0.3361(3)
C20 C 1.3878(9) 0.1767(6) 0.3425(3)
H11 H 1.4075 0.1263 0.3554
C21 C 1.2677(9) 0.2103(5) 0.3297(3)
H12 H 1.2077 0.1822 0.3345
C22 C 1.2373(8) 0.2848(5) 0.3100(3)
C23 C 1.6100(9) 0.1786(6) 0.3473(3)
C24 C 1.1115(8) 0.3192(5) 0.2934(3)
C25 C 0.7159(8) 1.1147(5) 0.1663(3)
H13 H 0.7469 1.1570 0.1696
C26 C 0.6799(8) 1.1041(5) 0.1245(3)
H14 H 0.6873 1.1392 0.1000
C27 C 0.6328(8) 1.0415(5) 0.1191(3)
C28 C 0.6222(8) 0.9896(5) 0.1559(3)
H15 H 0.5899 0.9477 0.1530
C29 C 0.6604(8) 1.0006(5) 0.1973(3)
H16 H 0.6549 0.9650 0.2217
C30 C 0.7061(8) 1.0629(5) 0.2028(3)
C31 C 0.5935(9) 1.0294(6) 0.0737(3)
C32 C 0.7477(8) 1.0734(5) 0.2478(3)
C33 C 0.9783(8) 0.7962(5) 0.5528(3)
H17 H 0.9662 0.7635 0.5783
C34 C 0.9425(8) 0.7849(5) 0.5105(3)
H18 H 0.9058 0.7448 0.5080
C35 C 0.9614(8) 0.8329(5) 0.4726(3)
C36 C 1.0178(9) 0.8916(5) 0.4762(3)
H19 H 1.0323 0.9236 0.4507
C37 C 1.0529(8) 0.9027(5) 0.5180(3)
H20 H 1.0913 0.9421 0.5202
C38 C 1.0320(8) 0.8567(5) 0.5561(3)
C39 C 0.9120(8) 0.8252(5) 0.4283(3)
C40 C 1.0669(9) 0.8726(6) 0.6012(3)
C41 C 0.3557(9) 0.6744(6) 0.3505(3)
H21 H 0.3802 0.7184 0.3558
C42 C 0.2327(9) 0.6836(6) 0.3430(3)
H22 H 0.1749 0.7335 0.3433
C43 C 0.1961(8) 0.6182(5) 0.3349(3)
C44 C 0.2823(9) 0.5457(6) 0.3342(3)
H23 H 0.2587 0.5014 0.3287
C45 C 0.4037(9) 0.5380(6) 0.3418(3)
H24 H 0.4614 0.4881 0.3411
C46 C 0.4424(8) 0.6010(5) 0.3501(3)
C47 C 0.5726(9) 0.5930(6) 0.3605(3)
C48 C 0.0604(9) 0.6288(5) 0.3265(3)
C49 C 0.3735(8) 0.6611(5) -0.1403(3)
H25 H 0.4035 0.7006 -0.1312
C50 C 0.3636(8) 0.6002(5) -0.1104(3)
C51 C 0.3200(8) 0.5401(5) -0.1245(3)
H26 H 0.3153 0.4975 -0.1048
C52 C 0.3394(9) 0.6648(6) -0.1842(3)
H27 H 0.3457 0.7067 -0.2042
C53 C 0.3989(8) 0.5960(5) -0.0634(3)
C54 C 0.2548(8) 0.6097(5) -0.2445(3)
C55 C 0.2840(8) 0.5445(5) -0.1680(3)
H28 H 0.2518 0.5059 -0.1770
C56 C 0.2959(8) 0.6055(5) -0.1979(3)
C57 C 0.5874(8) 0.7189(5) 0.0966(3)
C58 C 0.6264(8) 0.7143(5) 0.1433(3)
C59 C 0.6084(8) 0.6555(5) 0.1745(3)
H29 H 0.5720 0.6187 0.1659
C60 C 0.6428(8) 0.6493(5) 0.2183(3)
H30 H 0.6331 0.6079 0.2384
C61 C 0.6927(8) 0.7073(5) 0.2315(3)
C62 C 0.7092(8) 0.7677(5) 0.2011(3)
H31 H 0.7415 0.8063 0.2100
C63 C 0.6770(8) 0.7700(5) 0.1570(3)
H32 H 0.6898 0.8099 0.1362
C64 C 0.7274(8) 0.7037(5) 0.2791(3)
C65 C 0.9833(9) 0.4357(6) 0.4803(3)
H33 H 0.9720 0.3925 0.4670
C66 C 1.0161(9) 0.4287(6) 0.5245(3)
H34 H 1.0267 0.3812 0.5408
C67 C 0.9671(8) 0.5057(5) 0.4560(3)
C68 C 0.9319(8) 0.5103(5) 0.4084(3)
C69 C 0.6265(11) 0.5230(7) 0.5361(4)
H35 H 0.6179 0.4982 0.5090
H36 H 0.5498 0.5304 0.5586
H37 H 0.6975 0.4903 0.5493
C70 C 0.6616(11) 0.6474(7) 0.5590(4)
H38 H 0.6725 0.6964 0.5459
H39 H 0.7348 0.6199 0.5728
H40 H 0.5864 0.6576 0.5825
C71 C 0.6571(11) 0.6225(7) 0.4788(4)
C72 C 0.6088(10) 0.8699(6) 0.5347(4)
H41 H 0.5914 0.8393 0.5119
H42 H 0.5333 0.8890 0.5574
H43 H 0.6762 0.8376 0.5499
C73 C 0.6781(11) 0.9884(7) 0.5415(4)
H44 H 0.7020 1.0299 0.5230
H45 H 0.7476 0.9592 0.5567
H46 H 0.6046 1.0104 0.5645
C74 C 0.6575(10) 0.9404(7) 0.4660(4)
C75 C -0.0115(12) 1.2407(7) 0.1077(4)
H47 H -0.0363 1.1986 0.1253
H48 H 0.0625 1.2193 0.0848
H49 H -0.0802 1.2708 0.0925
C76 C 0.0594(12) 1.3567(7) 0.1179(4)
H50 H 0.0768 1.3845 0.1420
H51 H -0.0065 1.3913 0.1030
H52 H 0.1355 1.3384 0.0954
C77 C 0.0062(11) 1.2786(7) 0.1837(4)
C78 C 0.9673(8) 0.4348(5) -0.0096(3)
H53 H 0.9458 0.3903 -0.0162
C79 C 1.0888(8) 0.4272(5) -0.0018(3)
H54 H 1.1480 0.3778 -0.0029
C80 C 0.7449(8) 0.5143(5) -0.0170(3)
C81 C 0.3453(12) 0.8747(7) 0.2177(4)
H55 H 0.3691 0.9162 0.1991
H56 H 0.4150 0.8455 0.2328
H57 H 0.2720 0.8968 0.2407
C82 C 0.2759(12) 0.7607(7) 0.2125(4)
H58 H 0.2572 0.7301 0.1901
H59 H 0.2007 0.7807 0.2352
H60 H 0.3428 0.7280 0.2278
C83 C 0.3260(11) 0.8330(7) 0.1446(4)
H61 H 0.3065 0.7961 0.1281
C84 C 0.3352(10) 0.5349(6) 0.2125(4)
H62 H 0.3483 0.5839 0.2005
H63 H 0.4077 0.5052 0.2260
H64 H 0.2599 0.5450 0.2359
C85 C 0.2969(10) 0.4155(6) 0.1865(4)
H65 H 0.2881 0.3932 0.1585
H66 H 0.2199 0.4220 0.2088
H67 H 0.3674 0.3810 0.1992
C86 C 0.3358(9) 0.5177(6) 0.1322(4)
H68 H 0.3282 0.4859 0.1093
C87 C 0.9846(10) 0.5723(6) 0.1297(3)
H69 H 0.9674 0.5246 0.1423
H70 H 1.0595 0.5598 0.1062
H71 H 0.9132 0.6038 0.1163
C88 C 1.0343(10) 0.6899(6) 0.1549(4)
H72 H 1.0466 0.7121 0.1823
H73 H 0.9647 0.7256 0.1424
H74 H 1.1108 0.6810 0.1321
C89 C 0.9894(9) 0.5913(6) 0.2104(3)
H75 H 0.9964 0.6238 0.2330
C90 C 0.8763(8) 0.5072(5) -0.0077(3)
N1 N 0.6483(9) 0.6000(6) 0.5228(3)
N2 N 0.6477(8) 0.9363(5) 0.5117(3)
N3 N 0.0174(9) 1.2900(6) 0.1381(3)
N5 N 0.3161(9) 0.8250(6) 0.1893(3)
N6 N 0.3200(8) 0.4914(5) 0.1758(3)
N7 N 1.0057(8) 0.6159(5) 0.1669(3)
O1 O 0.2809(6) 0.8352(4) 0.0418(2)
O2 O 0.2497(6) 0.7186(4) 0.0540(2)
O3 O -0.3468(6) 0.8830(4) -0.0144(2)
O4 O -0.2818(6) 0.9851(4) -0.0441(2)
O5 O 0.5687(6) 0.8238(4) 0.3928(2)
O6 O 0.6406(7) 0.9194(4) 0.3609(2)
O7 O -0.0035(6) 1.0042(4) 0.3102(2)
O8 O 0.0831(6) 1.0907(4) 0.2729(2)
O9 O 1.6290(6) 0.1107(4) 0.3640(2)
O10 O 1.6889(6) 0.2169(4) 0.3402(2)
O11 O 1.0768(6) 0.3899(4) 0.28581(19)
O12 O 1.0540(6) 0.2700(4) 0.2861(2)
O13 O 0.7412(6) 1.0231(4) 0.2790(2)
O14 O 0.5525(6) 0.9733(4) 0.0706(2)
O15 O 0.6050(6) 1.0788(4) 0.0417(2)
O16 O 1.1124(6) 0.9290(4) 0.6014(2)
O17 O 1.0473(6) 0.8291(4) 0.6351(2)
O18 O 0.9275(6) 0.8737(4) 0.3968(2)
O19 O 0.8618(6) 0.7725(4) 0.4266(2)
O20 O 0.6566(6) 0.5302(4) 0.3496(2)
O21 O 0.5893(6) 0.6486(4) 0.3799(2)
O22 O -0.0246(6) 0.6908(4) 0.3359(2)
O23 O 0.0458(6) 0.5671(4) 0.3096(2)
O24 O 0.3722(6) 0.6593(4) -0.0417(2)
O25 O 0.4527(5) 0.5314(3) -0.04620(19)
O26 O 0.2529(6) 0.6701(4) -0.2689(2)
O27 O 0.2245(6) 0.5531(4) -0.2565(2)
O28 O 0.5461(6) 0.6653(4) 0.0856(2)
O29 O 0.5964(6) 0.7773(4) 0.0713(2)
O30 O 0.7110(6) 0.7663(4) 0.2994(2)
O31 O 0.7713(5) 0.6374(3) 0.29823(19)
O32 O 0.9679(6) 0.4496(4) 0.3845(2)
O33 O 0.8703(6) 0.5760(4) 0.39338(19)
O34 O 0.6761(6) 0.6846(4) 0.4643(2)
O35 O 0.6936(7) 0.9927(4) 0.4438(2)
O36 O -0.0299(7) 1.2242(4) 0.2033(2)
O37 O 0.6609(6) 0.5769(4) -0.0070(2)
O38 O 0.3603(7) 0.8875(4) 0.1225(2)
O39 O 0.3593(6) 0.5793(4) 0.1190(2)
O40 O 0.9660(6) 0.5298(4) 0.2239(2)
O41 O 0.7299(6) 0.4557(4) -0.0345(2)
O44 O 0.7893(6) 1.1300(4) 0.2509(2)
O46 O 0.8942(7) 0.8712(5) 0.3071(3)
H97 H 0.9752 0.8580 0.3034
H98 H 0.8703 0.8797 0.2807
O47 O 0.8133(5) 0.3784(3) 0.34735(18)
H99 H 0.7323 0.3937 0.3542
H100 H 0.8420 0.3685 0.3729
H101 H 0.5902 0.7048 -0.0137
H102 H 0.5080 0.7610 -0.0367
O48 O 0.5208(6) 0.7449(4) -0.0084(2)
C67A C 1.0329(8) 0.4943(5) 0.5440(3)
C65A C 1.0167(9) 0.5643(6) 0.5197(3)
H33A H 1.0280 0.6075 0.5330
C66A C 0.9839(9) 0.5713(6) 0.4755(3)
H34A H 0.9733 0.6188 0.4592
C68A C 1.0681(8) 0.4897(5) 0.5916(3)
O32A O 1.0321(6) 0.5504(4) 0.6155(2)
O33A O 1.1297(6) 0.4240(4) 0.60662(19)
C90A C 1.1237(8) 0.4928(5) 0.0077(3)
C78A C 1.0327(8) 0.5652(5) 0.0096(3)
H53A H 1.0542 0.6097 0.0162
C79A C 0.9112(8) 0.5728(5) 0.0018(3)
H54A H 0.8520 0.6222 0.0029
C80A C 1.2551(8) 0.4857(5) 0.0170(3)
O41A O 1.2701(6) 0.5443(4) 0.0345(2)
O37A O 1.3391(6) 0.4231(4) 0.0070(2)
C41_2 C 1.3557(9) 0.6744(6) 0.3505(3)
H21_2 H 1.3802 0.7184 0.3558
C42_2 C 1.2327(9) 0.6836(6) 0.3430(3)
H22_2 H 1.1749 0.7335 0.3433
C43_2 C 1.1961(8) 0.6182(5) 0.3349(3)
C44_2 C 1.2823(9) 0.5457(6) 0.3342(3)
H23_2 H 1.2587 0.5014 0.3287
C45_2 C 1.4037(9) 0.5380(6) 0.3418(3)
H24_2 H 1.4614 0.4881 0.3411
C46_2 C 1.4424(8) 0.6010(5) 0.3501(3)
C47_2 C 1.5726(9) 0.5930(6) 0.3605(3)
C48_2 C 1.0604(9) 0.6288(5) 0.3265(3)
O20_2 O 1.6566(6) 0.5302(4) 0.3496(2)
O21_2 O 1.5893(6) 0.6486(4) 0.3799(2)
O22_2 O 0.9754(6) 0.6908(4) 0.3359(2)
O23_2 O 1.0458(6) 0.5671(4) 0.3096(2)
Ce1_2 Ce 1.75723(5) 0.71088(3) 0.379045(15)
Ce3_2 Ce 1.88416(5) 0.49619(3) 0.309255(16)
Ce5A Ce 1.10770(5) 0.79502(3) 0.710530(16)
Ce6A Ce 1.19785(5) 1.01300(3) 0.643303(16)
C49A C 0.6265(8) 0.3389(5) 0.1403(3)
H25A H 0.5965 0.2994 0.1312
C50A C 0.6364(8) 0.3998(5) 0.1104(3)
C51A C 0.6800(8) 0.4599(5) 0.1245(3)
H26A H 0.6847 0.5025 0.1048
C52A C 0.6606(9) 0.3352(6) 0.1842(3)
H27A H 0.6543 0.2933 0.2042
C53A C 0.6011(8) 0.4040(5) 0.0634(3)
C54A C 0.7452(8) 0.3903(5) 0.2445(3)
C55A C 0.7160(8) 0.4555(5) 0.1680(3)
H28A H 0.7482 0.4941 0.1770
C56A C 0.7041(8) 0.3945(5) 0.1979(3)
O24A O 0.6278(6) 0.3407(4) 0.0417(2)
O25A O 0.5473(5) 0.4686(3) 0.04620(19)
O26A O 0.7471(6) 0.3299(4) 0.2689(2)
O27A O 0.7755(6) 0.4469(4) 0.2565(2)
C1_2 C 1.0979(8) 0.8181(5) 0.0195(3)
C2_2 C 1.0004(8) 0.7822(5) 0.0316(3)
H1_2 H 1.0139 0.7362 0.0494
C3_2 C 0.8843(8) 0.8144(5) 0.0175(3)
H2_2 H 0.8195 0.7903 0.0259
C4_2 C 0.8636(8) 0.8830(5) -0.0095(3)
C5_2 C 0.9608(9) 0.9179(5) -0.0220(3)
H3_2 H 0.9480 0.9635 -0.0401
C6_2 C 1.0771(9) 0.8849(5) -0.0075(3)
H4_2 H 1.1425 0.9084 -0.0163
C7_2 C 1.2195(8) 0.7872(5) 0.0391(3)
C8_2 C 0.7348(8) 0.9206(5) -0.0233(3)
O1_2 O 1.2809(6) 0.8352(4) 0.0418(2)
O2_2 O 1.2497(6) 0.7186(4) 0.0540(2)
O3_2 O 0.6532(6) 0.8830(4) -0.0144(2)
O4_2 O 0.7182(6) 0.9851(4) -0.0441(2)
C25A C 0.2841(8) 0.8853(5) -0.1663(3)
H13A H 0.2531 0.8430 -0.1696
C26A C 0.3201(8) 0.8959(5) -0.1245(3)
H14A H 0.3127 0.8608 -0.1000
C27A C 0.3672(8) 0.9585(5) -0.1191(3)
C28A C 0.3778(8) 1.0104(5) -0.1559(3)
H15A H 0.4101 1.0523 -0.1530
C29A C 0.3396(8) 0.9994(5) -0.1973(3)
H16A H 0.3451 1.0350 -0.2217
C30A C 0.2939(8) 0.9371(5) -0.2028(3)
C31A C 0.4065(9) 0.9706(6) -0.0737(3)
C32A C 0.2523(8) 0.9266(5) -0.2478(3)
O13A O 0.2588(6) 0.9769(4) -0.2790(2)
O14A O 0.4475(6) 1.0267(4) -0.0706(2)
O15A O 0.3950(6) 0.9212(4) -0.0417(2)
O44A O 0.2107(6) 0.8700(4) -0.2509(2)
C33A C 0.0217(8) 1.2038(5) 0.4472(3)
H17A H 0.0338 1.2365 0.4217
C34A C 0.0575(8) 1.2151(5) 0.4895(3)
H18A H 0.0942 1.2552 0.4920
C35A C 0.0386(8) 1.1671(5) 0.5274(3)
C36A C -0.0178(9) 1.1084(5) 0.5238(3)
H19A H -0.0323 1.0764 0.5493
C37A C -0.0529(8) 1.0973(5) 0.4820(3)
H20A H -0.0913 1.0579 0.4798
C38A C -0.0320(8) 1.1433(5) 0.4439(3)
C39A C 0.0880(8) 1.1748(5) 0.5717(3)
C40A C -0.0669(9) 1.1274(6) 0.3988(3)
O16A O -0.1124(6) 1.0710(4) 0.3986(2)
O17A O -0.0473(6) 1.1709(4) 0.3649(2)
O18A O 0.0725(6) 1.1263(4) 0.6032(2)
O19A O 0.1382(6) 1.2275(4) 0.5734(2)
C17_2 C -0.6723(9) 1.3267(6) 0.3049(3)
H9_2 H -0.6919 1.3780 0.2932
C18_2 C -0.5536(9) 1.2921(5) 0.3171(3)
H10_2 H -0.4929 1.3197 0.3124
C19_2 C -0.5236(8) 1.2180(5) 0.3361(3)
C20_2 C -0.6122(9) 1.1767(6) 0.3425(3)
H11_2 H -0.5925 1.1263 0.3554
C21_2 C -0.7323(9) 1.2103(5) 0.3297(3)
H12_2 H -0.7923 1.1822 0.3345
C22_2 C -0.7627(8) 1.2848(5) 0.3100(3)
C23_2 C -0.3900(9) 1.1786(6) 0.3473(3)
C24_2 C -0.8885(8) 1.3192(5) 0.2934(3)
O9_2 O -0.3710(6) 1.1107(4) 0.3640(2)
O10_2 O -0.3111(6) 1.2169(4) 0.3402(2)
O11_2 O -0.9232(6) 1.3899(4) 0.28581(19)
O12_2 O -0.9460(6) 1.2700(4) 0.2861(2)
C9_2 C 1.4364(8) 0.9200(5) 0.3486(3)
C10_2 C 1.4306(9) 0.9788(5) 0.3157(3)
H5_2 H 1.5028 0.9953 0.3046
C11_2 C 1.3198(8) 1.0134(5) 0.2992(3)
H6_2 H 1.3172 1.0533 0.2769
C12_2 C 1.2098(8) 0.9897(5) 0.3154(3)
C13_2 C 1.2171(9) 0.9296(5) 0.3476(3)
H7_2 H 1.1454 0.9124 0.3583
C14_2 C 1.3281(8) 0.8948(5) 0.3640(3)
H8_2 H 1.3315 0.8539 0.3857
C15_2 C 1.5563(9) 0.8848(6) 0.3685(3)
C16_2 C 1.0867(9) 1.0316(5) 0.2981(3)
O5_2 O 1.5687(6) 0.8238(4) 0.3928(2)
O6_2 O 1.6406(7) 0.9194(4) 0.3609(2)
O7_2 O 0.9965(6) 1.0042(4) 0.3102(2)
O8_2 O 1.0831(6) 1.0907(4) 0.2729(2)
C57_2 C 1.5874(8) 0.7189(5) 0.0966(3)
C58_2 C 1.6264(8) 0.7143(5) 0.1433(3)
C59_2 C 1.6084(8) 0.6555(5) 0.1745(3)
H29_2 H 1.5720 0.6187 0.1659
C60_2 C 1.6428(8) 0.6493(5) 0.2183(3)
H30_2 H 1.6331 0.6079 0.2384
C61_2 C 1.6927(8) 0.7073(5) 0.2315(3)
C62_2 C 1.7092(8) 0.7677(5) 0.2011(3)
H31_2 H 1.7415 0.8063 0.2100
C63_2 C 1.6770(8) 0.7700(5) 0.1570(3)
H32_2 H 1.6898 0.8099 0.1362
C64_2 C 1.7274(8) 0.7037(5) 0.2791(3)
O28_2 O 1.5461(6) 0.6653(4) 0.0856(2)
O29_2 O 1.5964(6) 0.7773(4) 0.0713(2)
O30_2 O 1.7110(6) 0.7663(4) 0.2994(2)
O31_2 O 1.7713(5) 0.6374(3) 0.29823(19)
C69_2 C 1.6265(11) 0.5230(7) 0.5361(4)
H35_2 H 1.6179 0.4982 0.5090
H36_2 H 1.5498 0.5304 0.5586
H37_2 H 1.6975 0.4903 0.5493
C70_2 C 1.6616(11) 0.6474(7) 0.5590(4)
H38_2 H 1.6725 0.6964 0.5459
H39_2 H 1.7348 0.6199 0.5728
H40_2 H 1.5864 0.6576 0.5825
C71_2 C 1.6571(11) 0.6225(7) 0.4788(4)
N1_2 N 1.6483(9) 0.6000(6) 0.5228(3)
O34_2 O 1.6761(6) 0.6846(4) 0.4643(2)
C87_2 C 1.9846(10) 0.5723(6) 0.1297(3)
H69_2 H 1.9674 0.5246 0.1423
H70_2 H 2.0595 0.5598 0.1062
H71_2 H 1.9132 0.6038 0.1163
C88_2 C 2.0343(10) 0.6899(6) 0.1549(4)
H72_2 H 2.0466 0.7121 0.1823
H73_2 H 1.9647 0.7256 0.1424
H74_2 H 2.1108 0.6810 0.1321
C89_2 C 1.9894(9) 0.5913(6) 0.2104(3)
H75_2 H 1.9964 0.6238 0.2330
N7_2 N 2.0057(8) 0.6159(5) 0.1669(3)
O40_2 O 1.9660(6) 0.5298(4) 0.2239(2)
O47_2 O 1.8133(5) 0.3784(3) 0.34735(18)
H99_2 H 1.7323 0.3937 0.3542
H100_2 H 1.8420 0.3685 0.3729
C75A C 1.0115(12) 0.7593(7) 0.8923(4)
H47A H 1.0363 0.8014 0.8747
H48A H 0.9375 0.7807 0.9152
H49A H 1.0802 0.7292 0.9075
C76A C 0.9406(12) 0.6433(7) 0.8821(4)
H50A H 0.9232 0.6155 0.8580
H51A H 1.0065 0.6087 0.8970
H52A H 0.8645 0.6616 0.9046
C77A C 0.9938(11) 0.7214(7) 0.8163(4)
N3A N 0.9826(9) 0.7100(6) 0.8619(3)
O36A O 1.0299(7) 0.7758(4) 0.7967(2)
C72A C 1.3912(10) 1.1301(6) 0.4653(4)
H41A H 1.4086 1.1607 0.4881
H42A H 1.4667 1.1110 0.4426
H43A H 1.3238 1.1624 0.4501
C73A C 1.3219(11) 1.0116(7) 0.4585(4)
H44A H 1.2980 0.9701 0.4770
H45A H 1.2524 1.0408 0.4433
H46A H 1.3954 0.9896 0.4355
C74A C 1.3425(10) 1.0596(7) 0.5340(4)
N2A N 1.3523(8) 1.0637(5) 0.4883(3)
O35A O 1.3064(7) 1.0073(4) 0.5562(2)
O46A O 1.1058(7) 1.1288(5) 0.6929(3)
H97A H 1.0248 1.1420 0.6966
H98A H 1.1297 1.1203 0.7193
Ce2_2 Ce 1.44003(5) 0.60986(3) 0.034675(16)
Ce4_2 Ce 1.45414(5) 0.89022(3) 0.035684(16)
C84_2 C 1.3352(10) 0.5349(6) 0.2125(4)
H62_2 H 1.3483 0.5839 0.2005
H63_2 H 1.4077 0.5052 0.2260
H64_2 H 1.2599 0.5450 0.2359
C85_2 C 1.2969(10) 0.4155(6) 0.1865(4)
H65_2 H 1.2881 0.3932 0.1585
H66_2 H 1.2199 0.4220 0.2088
H67_2 H 1.3674 0.3810 0.1992
C86_2 C 1.3358(9) 0.5177(6) 0.1322(4)
H68_2 H 1.3282 0.4859 0.1093
N6_2 N 1.3200(8) 0.4914(5) 0.1758(3)
O39_2 O 1.3593(6) 0.5793(4) 0.1190(2)
H101_2 H 1.5902 0.7048 -0.0137
H102_2 H 1.5080 0.7610 -0.0367
O48_2 O 1.5208(6) 0.7449(4) -0.0084(2)
C81_2 C 1.3453(12) 0.8747(7) 0.2177(4)
H55_2 H 1.3691 0.9162 0.1991
H56_2 H 1.4150 0.8455 0.2328
H57_2 H 1.2720 0.8968 0.2407
C82_2 C 1.2759(12) 0.7607(7) 0.2125(4)
H58_2 H 1.2572 0.7301 0.1901
H59_2 H 1.2007 0.7807 0.2352
H60_2 H 1.3428 0.7280 0.2278
C83_2 C 1.3260(11) 0.8330(7) 0.1446(4)
H61_2 H 1.3065 0.7961 0.1281
N5_2 N 1.3161(9) 0.8250(6) 0.1893(3)
O38_2 O 1.3603(7) 0.8875(4) 0.1225(2)
O41A_2 O 0.2701(6) 0.5443(4) 0.0345(2)
O4A O 0.2818(6) 1.0149(4) 0.0441(2)
O12_3 O 0.0540(6) 1.2700(4) 0.2861(2)
O26A_2 O -0.2529(6) 1.3299(4) 0.2689(2)
O44_2 O -0.2107(6) 1.1300(4) 0.2509(2)
O16A_2 O 0.8876(6) 1.0710(4) 0.3986(2)
O9_3 O 0.6290(6) 1.1107(4) 0.3640(2)
Ce4_3 Ce -0.54586(5) 0.89022(3) 0.035684(16)
Ce4A Ce -0.45414(5) 1.10978(3) -0.035684(16)
Ce6_2 Ce -0.19785(5) 0.98700(3) 0.356697(16)
Ce6_3 Ce 1.80215(5) -0.01300(3) 0.356697(16)
Ce5_2 Ce 1.89230(5) 0.20498(3) 0.289470(16)
Ce5_3 Ce 0.89230(5) 0.20498(3) 0.289470(16)
Ce4A_2 Ce 0.54586(5) 1.10978(3) -0.035684(16)
Ce1_3 Ce -0.24277(5) 0.71088(3) 0.379045(15)
Ce3_3 Ce -0.11584(5) 0.49619(3) 0.309255(16)
Ce2A Ce 0.55997(5) 0.39014(3) -0.034675(16)
Ce5A_2 Ce 0.10770(5) 0.79502(3) -0.289470(16)
Ce3A Ce 0.11584(5) 0.50381(3) -0.309255(16)
Ce5_4 Ce 0.89230(5) 1.20498(3) 0.289470(16)
Ce3A_2 Ce 1.11584(5) 0.50381(3) 0.690745(16)
Ce1A Ce 1.24277(5) 0.28912(3) 0.620955(15)
Ce2A_2 Ce 1.55997(5) 0.39014(3) -0.034675(16)
O19_2 O 1.8618(6) 0.7725(4) 0.4266(2)
O33_2 O 1.8703(6) 0.5760(4) 0.39338(19)
O22_3 O 1.9754(6) 0.6908(4) 0.3359(2)
O11_3 O 2.0768(6) 0.3899(4) 0.28581(19)
O32_2 O 1.9679(6) 0.4496(4) 0.3845(2)
O23_3 O 2.0458(6) 0.5671(4) 0.3096(2)
O27A_2 O 1.7755(6) 0.4469(4) 0.2565(2)
O8A O 0.9169(6) 0.9093(4) 0.7271(2)
O10A O 1.3111(6) 0.7831(4) 0.6598(2)
O12A O 0.9460(6) 0.7300(4) 0.7139(2)
O26_2 O 1.2529(6) 0.6701(4) 0.7311(2)
O44A_2 O 1.2107(6) 0.8700(4) 0.7491(2)
O6A O 1.3594(7) 1.0806(4) 0.6391(2)
O13A_2 O 1.2588(6) 0.9769(4) 0.7210(2)
O18A_2 O 1.0725(6) 1.1263(4) 0.6032(2)
O7A O 1.0035(6) 0.9958(4) 0.6898(2)
O9A O 1.3710(6) 0.8893(4) 0.6360(2)
Ce6A_2 Ce 0.19785(5) 1.01300(3) -0.356697(16)
Ce6A_3 Ce 0.19785(5) 1.01300(3) 0.643303(16)
Ce1A_2 Ce 0.24277(5) 1.28912(3) 0.620955(15)
Ce3_4 Ce -1.11584(5) 1.49619(3) 0.309255(16)
Ce5_5 Ce -1.10770(5) 1.20498(3) 0.289470(16)
Ce6_4 Ce 1.80215(5) 0.98700(3) 0.356697(16)
O24_2 O 1.3722(6) 0.6593(4) -0.0417(2)
O25_2 O 1.4527(5) 0.5314(3) -0.04620(19)
O37_2 O 1.6609(6) 0.5769(4) -0.0070(2)
O25A_2 O 1.5473(5) 0.4686(3) 0.04620(19)
O14_2 O 1.5525(6) 0.9733(4) 0.0706(2)
O3_3 O 1.6532(6) 0.8830(4) -0.0144(2)
O4A_2 O 1.2818(6) 1.0149(4) 0.0441(2)
O15A_2 O 1.3950(6) 0.9212(4) -0.0417(2)
loop_
_geom_bond_atom_site_label_1
_geom_bond_atom_site_label_2
_geom_bond_site_symmetry_1
_geom_bond_site_symmetry_2
Ce1 O5 1_555 1_555
Ce2 O2 1_555 1_555
Ce3 O11 1_555 1_555
Ce4 O1 1_555 1_555
Ce5 O8 1_555 1_555
Ce6 O6 1_555 1_555
C1 C2 1_555 1_555
C2 H1 1_555 1_555
C3 C2 1_555 1_555
H2 C3 1_555 1_555
C4 C3 1_555 1_555
C5 C4 1_555 1_555
H3 C5 1_555 1_555
C6 C1 1_555 1_555
H4 C6 1_555 1_555
C7 C1 1_555 1_555
C8 C4 1_555 1_555
C9 C10 1_555 1_555
C10 H5 1_555 1_555
C11 C10 1_555 1_555
H6 C11 1_555 1_555
C12 C11 1_555 1_555
C13 C12 1_555 1_555
H7 C13 1_555 1_555
C14 C9 1_555 1_555
H8 C14 1_555 1_555
C15 C9 1_555 1_555
C16 C12 1_555 1_555
C17 H9 1_555 1_555
C18 C17 1_555 1_555
H10 C18 1_555 1_555
C19 C18 1_555 1_555
C20 C19 1_555 1_555
H11 C20 1_555 1_555
C21 C20 1_555 1_555
H12 C21 1_555 1_555
C22 C17 1_555 1_555
C23 C19 1_555 1_555
C24 C22 1_555 1_555
C25 H13 1_555 1_555
C26 C25 1_555 1_555
H14 C26 1_555 1_555
C27 C26 1_555 1_555
C28 C27 1_555 1_555
H15 C28 1_555 1_555
C29 C28 1_555 1_555
H16 C29 1_555 1_555
C30 C25 1_555 1_555
C31 C27 1_555 1_555
C32 C30 1_555 1_555
C33 H17 1_555 1_555
C34 C33 1_555 1_555
H18 C34 1_555 1_555
C35 C34 1_555 1_555
C36 C35 1_555 1_555
H19 C36 1_555 1_555
C37 C36 1_555 1_555
H20 C37 1_555 1_555
C38 C33 1_555 1_555
C39 C35 1_555 1_555
C40 C38 1_555 1_555
C41 H21 1_555 1_555
C42 C41 1_555 1_555
H22 C42 1_555 1_555
C43 C42 1_555 1_555
C44 C43 1_555 1_555
H23 C44 1_555 1_555
C45 C44 1_555 1_555
H24 C45 1_555 1_555
C46 C41 1_555 1_555
C47 C46 1_555 1_555
C48 C43 1_555 1_555
C49 H25 1_555 1_555
C50 C49 1_555 1_555
C51 C50 1_555 1_555
H26 C51 1_555 1_555
C52 C49 1_555 1_555
H27 C52 1_555 1_555
C53 C50 1_555 1_555
C54 C56 1_555 1_555
C55 C51 1_555 1_555
H28 C55 1_555 1_555
C56 C52 1_555 1_555
C57 C58 1_555 1_555
C58 C59 1_555 1_555
C59 H29 1_555 1_555
C60 C59 1_555 1_555
H30 C60 1_555 1_555
C61 C60 1_555 1_555
C62 C61 1_555 1_555
H31 C62 1_555 1_555
C63 C58 1_555 1_555
H32 C63 1_555 1_555
C64 C61 1_555 1_555
C65 H33 1_555 1_555
C66 C65 1_555 1_555
H34 C66 1_555 1_555
C67 C65 1_555 1_555
C68 C67 1_555 1_555
C69 H35 1_555 1_555
H36 C69 1_555 1_555
H37 C69 1_555 1_555
C70 H38 1_555 1_555
H39 C70 1_555 1_555
H40 C70 1_555 1_555
C71 N1 1_555 1_555
C72 H41 1_555 1_555
H42 C72 1_555 1_555
H43 C72 1_555 1_555
C73 H44 1_555 1_555
H45 C73 1_555 1_555
H46 C73 1_555 1_555
C74 N2 1_555 1_555
C75 H47 1_555 1_555
H48 C75 1_555 1_555
H49 C75 1_555 1_555
C76 H50 1_555 1_555
H51 C76 1_555 1_555
H52 C76 1_555 1_555
C77 N3 1_555 1_555
C78 H53 1_555 1_555
C79 C78 1_555 1_555
H54 C79 1_555 1_555
C80 C90 1_555 1_555
C81 H55 1_555 1_555
H56 C81 1_555 1_555
H57 C81 1_555 1_555
C82 H58 1_555 1_555
H59 C82 1_555 1_555
H60 C82 1_555 1_555
C83 H61 1_555 1_555
C84 H62 1_555 1_555
H63 C84 1_555 1_555
H64 C84 1_555 1_555
C85 H65 1_555 1_555
H66 C85 1_555 1_555
H67 C85 1_555 1_555
C86 H68 1_555 1_555
C87 H69 1_555 1_555
H70 C87 1_555 1_555
H71 C87 1_555 1_555
C88 H72 1_555 1_555
H73 C88 1_555 1_555
H74 C88 1_555 1_555
C89 H75 1_555 1_555
C90 C78 1_555 1_555
C91 H76 1_555 1_555
H77 C91 1_555 1_555
H78 C91 1_555 1_555
C92 H79 1_555 1_555
H80 C92 1_555 1_555
H81 C92 1_555 1_555
C93 H82 1_555 1_555
C94 H83 1_555 1_555
H84 C94 1_555 1_555
H85 C94 1_555 1_555
C95 H86 1_555 1_555
H87 C95 1_555 1_555
H88 C95 1_555 1_555
C96 H89 1_555 1_555
C97 H90 1_555 1_555
H91 C97 1_555 1_555
H92 C97 1_555 1_555
C98 H93 1_555 1_555
H94 C98 1_555 1_555
H95 C98 1_555 1_555
C99 H96 1_555 1_555
N1 C69 1_555 1_555
N2 C72 1_555 1_555
N3 C75 1_555 1_555
N4 C91 1_555 1_555
N5 C81 1_555 1_555
N6 C84 1_555 1_555
N7 C87 1_555 1_555
N8 C94 1_555 1_555
N9 C97 1_555 1_555
O1 C7 1_555 1_555
O2 C7 1_555 1_555
O3 C8 1_555 1_555
O4 C8 1_555 1_555
O5 C15 1_555 1_555
O6 C15 1_555 1_555
O7 C16 1_555 1_555
O8 C16 1_555 1_555
O9 C23 1_555 1_555
O10 C23 1_555 1_555
O11 C24 1_555 1_555
O12 C24 1_555 1_555
O13 Ce6 1_555 1_555
O14 Ce4 1_555 1_555
O15 C31 1_555 1_555
O16 C40 1_555 1_555
O17 C40 1_555 1_555
O18 Ce6 1_555 1_555
O19 Ce1 1_555 1_555
O20 Ce3 1_555 1_555
O21 Ce1 1_555 1_555
O22 C48 1_555 1_555
O23 C48 1_555 1_555
O24 Ce2 1_555 1_555
O25 Ce2 1_555 1_555
O26 C54 1_555 1_555
O27 C54 1_555 1_555
O28 Ce2 1_555 1_555
O29 Ce4 1_555 1_555
O30 Ce1 1_555 1_555
O31 Ce1 1_555 1_555
O32 Ce3 1_555 1_555
O33 Ce1 1_555 1_555
O34 Ce1 1_555 1_555
O35 Ce6 1_555 1_555
O36 Ce5 1_555 1_555
O37 Ce2 1_555 1_555
O38 Ce4 1_555 1_555
O39 Ce2 1_555 1_555
O40 Ce3 1_555 1_555
O41 C80 1_555 1_555
O42 C93 1_555 1_555
O43 C96 1_555 1_555
O44 C32 1_555 1_555
O45 C99 1_555 1_555
O46 Ce6 1_555 1_555
H97 O46 1_555 1_555
H98 O46 1_555 1_555
O47 Ce3 1_555 1_555
H99 O47 1_555 1_555
H100 O47 1_555 1_555
H101 O48 1_555 1_555
H102 O48 1_555 1_555
O48 Ce2 1_555 1_555
C67A C66 1_555 1_555
C65A C67A 1_555 1_555
H33A C65A 1_555 1_555
C66A C67 1_555 1_555
H34A C66A 1_555 1_555
C68A C67A 1_555 1_555
O32A C68A 1_555 1_555
O33A C68A 1_555 1_555
C90A C79 1_555 1_555
C78A C90A 1_555 1_555
H53A C78A 1_555 1_555
C79A C90 1_555 1_555
H54A C79A 1_555 1_555
C80A C90A 1_555 1_555
O41A C80A 1_555 1_555
O37A C80A 1_555 1_555
C41_2 H21_2 1_555 1_555
C42_2 C41_2 1_555 1_555
H22_2 C42_2 1_555 1_555
C43_2 C42_2 1_555 1_555
C44_2 C43_2 1_555 1_555
H23_2 C44_2 1_555 1_555
C45_2 C44_2 1_555 1_555
H24_2 C45_2 1_555 1_555
C46_2 C41_2 1_555 1_555
C47_2 C46_2 1_555 1_555
C48_2 C43_2 1_555 1_555
O20_2 C47_2 1_555 1_555
O21_2 C47_2 1_555 1_555
O22_2 Ce1 1_555 1_555
O23_2 Ce3 1_555 1_555
Ce1_2 O21_2 1_555 1_555
Ce3_2 O20_2 1_555 1_555
Ce5A O17 1_555 1_555
Ce6A O16 1_555 1_555
C49A H25A 1_555 1_555
C50A C49A 1_555 1_555
C51A C50A 1_555 1_555
H26A C51A 1_555 1_555
C52A C49A 1_555 1_555
H27A C52A 1_555 1_555
C53A C50A 1_555 1_555
C54A C56A 1_555 1_555
C55A C51A 1_555 1_555
H28A C55A 1_555 1_555
C56A C52A 1_555 1_555
O24A C53A 1_555 1_555
O25A Ce2 1_555 1_555
O26A C54A 1_555 1_555
O27A Ce3 1_555 1_555
C1_2 C2_2 1_555 1_555
C2_2 H1_2 1_555 1_555
C3_2 C2_2 1_555 1_555
H2_2 C3_2 1_555 1_555
C4_2 C3_2 1_555 1_555
C5_2 C4_2 1_555 1_555
H3_2 C5_2 1_555 1_555
C6_2 C1_2 1_555 1_555
H4_2 C6_2 1_555 1_555
C7_2 C1_2 1_555 1_555
C8_2 C4_2 1_555 1_555
O1_2 C7_2 1_555 1_555
O2_2 C7_2 1_555 1_555
O3_2 Ce4 1_555 1_555
O4_2 C8_2 1_555 1_555
C25A H13A 1_555 1_555
C26A C25A 1_555 1_555
H14A C26A 1_555 1_555
C27A C26A 1_555 1_555
C28A C27A 1_555 1_555
H15A C28A 1_555 1_555
C29A C28A 1_555 1_555
H16A C29A 1_555 1_555
C30A C25A 1_555 1_555
C31A C27A 1_555 1_555
C32A C30A 1_555 1_555
O13A C32A 1_555 1_555
O14A C31A 1_555 1_555
O15A Ce4 1_555 1_555
O44A C32A 1_555 1_555
C33A H17A 1_555 1_555
C34A C33A 1_555 1_555
H18A C34A 1_555 1_555
C35A C34A 1_555 1_555
C36A C35A 1_555 1_555
H19A C36A 1_555 1_555
C37A C36A 1_555 1_555
H20A C37A 1_555 1_555
C38A C33A 1_555 1_555
C39A C35A 1_555 1_555
C40A C38A 1_555 1_555
O16A C40A 1_555 1_555
O17A Ce5 1_555 1_555
O18A C39A 1_555 1_555
O19A C39A 1_555 1_555
C17_2 H9_2 1_555 1_555
C18_2 C17_2 1_555 1_555
H10_2 C18_2 1_555 1_555
C19_2 C18_2 1_555 1_555
C20_2 C19_2 1_555 1_555
H11_2 C20_2 1_555 1_555
C21_2 C20_2 1_555 1_555
H12_2 C21_2 1_555 1_555
C22_2 C17_2 1_555 1_555
C23_2 C19_2 1_555 1_555
C24_2 C22_2 1_555 1_555
O9_2 C23_2 1_555 1_555
O10_2 Ce5 1_555 1_555
O11_2 C24_2 1_555 1_555
O12_2 C24_2 1_555 1_555
C9_2 C10_2 1_555 1_555
C10_2 H5_2 1_555 1_555
C11_2 C10_2 1_555 1_555
H6_2 C11_2 1_555 1_555
C12_2 C11_2 1_555 1_555
C13_2 C12_2 1_555 1_555
H7_2 C13_2 1_555 1_555
C14_2 C9_2 1_555 1_555
H8_2 C14_2 1_555 1_555
C15_2 C9_2 1_555 1_555
C16_2 C12_2 1_555 1_555
O5_2 Ce1_2 1_555 1_555
O6_2 C15_2 1_555 1_555
O7_2 Ce6 1_555 1_555
O8_2 C16_2 1_555 1_555
C57_2 C58_2 1_555 1_555
C58_2 C59_2 1_555 1_555
C59_2 H29_2 1_555 1_555
C60_2 C59_2 1_555 1_555
H30_2 C60_2 1_555 1_555
C61_2 C60_2 1_555 1_555
C62_2 C61_2 1_555 1_555
H31_2 C62_2 1_555 1_555
C63_2 C58_2 1_555 1_555
H32_2 C63_2 1_555 1_555
C64_2 C61_2 1_555 1_555
O28_2 C57_2 1_555 1_555
O29_2 C57_2 1_555 1_555
O30_2 Ce1_2 1_555 1_555
O31_2 Ce1_2 1_555 1_555
C69_2 H35_2 1_555 1_555
H36_2 C69_2 1_555 1_555
H37_2 C69_2 1_555 1_555
C70_2 H38_2 1_555 1_555
H39_2 C70_2 1_555 1_555
H40_2 C70_2 1_555 1_555
C71_2 N1_2 1_555 1_555
N1_2 C69_2 1_555 1_555
O34_2 Ce1_2 1_555 1_555
C87_2 H69_2 1_555 1_555
H70_2 C87_2 1_555 1_555
H71_2 C87_2 1_555 1_555
C88_2 H72_2 1_555 1_555
H73_2 C88_2 1_555 1_555
H74_2 C88_2 1_555 1_555
C89_2 H75_2 1_555 1_555
N7_2 C87_2 1_555 1_555
O40_2 Ce3_2 1_555 1_555
O47_2 Ce3_2 1_555 1_555
H99_2 O47_2 1_555 1_555
H100_2 O47_2 1_555 1_555
C75A H47A 1_555 1_555
H48A C75A 1_555 1_555
H49A C75A 1_555 1_555
C76A H50A 1_555 1_555
H51A C76A 1_555 1_555
H52A C76A 1_555 1_555
C77A N3A 1_555 1_555
N3A C75A 1_555 1_555
O36A Ce5A 1_555 1_555
C72A H41A 1_555 1_555
H42A C72A 1_555 1_555
H43A C72A 1_555 1_555
C73A H44A 1_555 1_555
H45A C73A 1_555 1_555
H46A C73A 1_555 1_555
C74A N2A 1_555 1_555
N2A C72A 1_555 1_555
O35A Ce6A 1_555 1_555
O46A Ce6A 1_555 1_555
H97A O46A 1_555 1_555
H98A O46A 1_555 1_555
Ce2_2 O41A 1_555 1_555
Ce4_2 O1_2 1_555 1_555
C84_2 H62_2 1_555 1_555
H63_2 C84_2 1_555 1_555
H64_2 C84_2 1_555 1_555
C85_2 H65_2 1_555 1_555
H66_2 C85_2 1_555 1_555
H67_2 C85_2 1_555 1_555
C86_2 H68_2 1_555 1_555
N6_2 C84_2 1_555 1_555
O39_2 Ce2_2 1_555 1_555
H101_2 O48_2 1_555 1_555
H102_2 O48_2 1_555 1_555
O48_2 Ce2_2 1_555 1_555
C81_2 H55_2 1_555 1_555
H56_2 C81_2 1_555 1_555
H57_2 C81_2 1_555 1_555
C82_2 H58_2 1_555 1_555
H59_2 C82_2 1_555 1_555
H60_2 C82_2 1_555 1_555
C83_2 H61_2 1_555 1_555
N5_2 C81_2 1_555 1_555
O38_2 Ce4_2 1_555 1_555
O41A_2 Ce2 1_555 1_555
O4A Ce4 1_555 1_555
O12_3 Ce5 1_555 1_555
O26A_2 Ce5 1_555 1_555
O44_2 Ce5 1_555 1_555
O16A_2 Ce6 1_555 1_555
O9_3 Ce6 1_555 1_555
Ce4_3 O3 1_555 1_555
Ce4A O4 1_555 1_555
Ce6_2 O7 1_555 1_555
Ce6_3 O9 1_555 1_555
Ce5_2 O10 1_555 1_555
Ce5_3 O12 1_555 1_555
Ce4A_2 O15 1_555 1_555
Ce1_3 O22 1_555 1_555
Ce3_3 O23 1_555 1_555
Ce2A O25 1_555 1_555
Ce5A_2 O26 1_555 1_555
Ce3A O27 1_555 1_555
Ce5_4 O44 1_555 1_555
Ce3A_2 O32A 1_555 1_555
Ce1A O33A 1_555 1_555
Ce2A_2 O37A 1_555 1_555
O19_2 Ce1_2 1_555 1_555
O33_2 Ce1_2 1_555 1_555
O22_3 Ce1_2 1_555 1_555
O11_3 Ce3_2 1_555 1_555
O32_2 Ce3_2 1_555 1_555
O23_3 Ce3_2 1_555 1_555
O27A_2 Ce3_2 1_555 1_555
O8A Ce5A 1_555 1_555
O10A Ce5A 1_555 1_555
O12A Ce5A 1_555 1_555
O26_2 Ce5A 1_555 1_555
O44A_2 Ce5A 1_555 1_555
O6A Ce6A 1_555 1_555
O13A_2 Ce6A 1_555 1_555
O18A_2 Ce6A 1_555 1_555
O7A Ce6A 1_555 1_555
O9A Ce6A 1_555 1_555
Ce6A_2 O13A 1_555 1_555
Ce6A_3 O18A 1_555 1_555
Ce1A_2 O19A 1_555 1_555
Ce3_4 O11_2 1_555 1_555
Ce5_5 O12_2 1_555 1_555
Ce6_4 O6_2 1_555 1_555
O24_2 Ce2_2 1_555 1_555
O25_2 Ce2_2 1_555 1_555
O37_2 Ce2_2 1_555 1_555
O25A_2 Ce2_2 1_555 1_555
O14_2 Ce4_2 1_555 1_555
O3_3 Ce4_2 1_555 1_555
O4A_2 Ce4_2 1_555 1_555
O15A_2 Ce4_2 1_555 1_555
Ce3 O33 1_555 1_555
Ce3 O31 1_555 1_555
Ce4 O48 1_555 1_555
C5 C6 1_555 1_555
C13 C14 1_555 1_555
C21 C22 1_555 1_555
C29 C30 1_555 1_555
C31 O14 1_555 1_555
C32 O13 1_555 1_555
C37 C38 1_555 1_555
C39 O18 1_555 1_555
C39 O19 1_555 1_555
C45 C46 1_555 1_555
C47 O20 1_555 1_555
C47 O21 1_555 1_555
C53 O24 1_555 1_555
C53 O25 1_555 1_555
C55 C56 1_555 1_555
C57 O28 1_555 1_555
C57 O29 1_555 1_555
C62 C63 1_555 1_555
C64 O30 1_555 1_555
C64 O31 1_555 1_555
C68 O32 1_555 1_555
C68 O33 1_555 1_555
C70 N1 1_555 1_555
C71 O34 1_555 1_555
C73 N2 1_555 1_555
C74 O35 1_555 1_555
C76 N3 1_555 1_555
C77 O36 1_555 1_555
C80 O37 1_555 1_555
C82 N5 1_555 1_555
C83 N5 1_555 1_555
C83 O38 1_555 1_555
C85 N6 1_555 1_555
C86 N6 1_555 1_555
C86 O39 1_555 1_555
C88 N7 1_555 1_555
C89 N7 1_555 1_555
C89 O40 1_555 1_555
C92 N4 1_555 1_555
C93 N4 1_555 1_555
C95 N8 1_555 1_555
C96 N8 1_555 1_555
C98 N9 1_555 1_555
C99 N9 1_555 1_555
O41 Ce2A 1_555 1_555
C65A C66A 1_555 1_555
O33A Ce3A_2 1_555 1_555
C78A C79A 1_555 1_555
C45_2 C46_2 1_555 1_555
C48_2 O22_2 1_555 1_555
C48_2 O23_2 1_555 1_555
Ce3_2 O31_2 1_555 1_555
Ce3_2 O33_2 1_555 1_555
C53A O25A 1_555 1_555
C54A O27A 1_555 1_555
C55A C56A 1_555 1_555
O24A Ce2A 1_555 1_555
O25A Ce2A 1_555 1_555
O26A Ce5_3 1_555 1_555
C5_2 C6_2 1_555 1_555
C8_2 O3_2 1_555 1_555
O2_2 Ce2_2 1_555 1_555
O4_2 Ce4A_2 1_555 1_555
C29A C30A 1_555 1_555
C31A O15A 1_555 1_555
O14A Ce4A_2 1_555 1_555
O44A Ce5A_2 1_555 1_555
C37A C38A 1_555 1_555
C40A O17A 1_555 1_555
O16A Ce6_2 1_555 1_555
C21_2 C22_2 1_555 1_555
C23_2 O10_2 1_555 1_555
O9_2 Ce6_2 1_555 1_555
C13_2 C14_2 1_555 1_555
C15_2 O5_2 1_555 1_555
C16_2 O7_2 1_555 1_555
O8_2 Ce5_4 1_555 1_555
C62_2 C63_2 1_555 1_555
C64_2 O30_2 1_555 1_555
C64_2 O31_2 1_555 1_555
O28_2 Ce2_2 1_555 1_555
O29_2 Ce4_2 1_555 1_555
C70_2 N1_2 1_555 1_555
C71_2 O34_2 1_555 1_555
C88_2 N7_2 1_555 1_555
C89_2 N7_2 1_555 1_555
C89_2 O40_2 1_555 1_555
C76A N3A 1_555 1_555
C77A O36A 1_555 1_555
C73A N2A 1_555 1_555
C74A O35A 1_555 1_555
Ce4_2 O48_2 1_555 1_555
C85_2 N6_2 1_555 1_555
C86_2 N6_2 1_555 1_555
C86_2 O39_2 1_555 1_555
C82_2 N5_2 1_555 1_555
C83_2 N5_2 1_555 1_555
C83_2 O38_2 1_555 1_555
Ce2A_2 O25A_2 1_555 1_555
Ce2A_2 O25_2 1_555 1_555

#END
