
#######################################################################
#
#                 Cambridge Crystallographic Data Centre
#                                CCDC 
#
#######################################################################
#
# If this CIF has been generated from an entry in the Cambridge 
# Structural Database, then it will include bibliographic, chemical, 
# crystal, experimental, refinement or atomic coordinate data resulting 
# from the CCDC's data processing and validation procedures.
#
#######################################################################

data_ALUJEX
_symmetry_cell_setting           triclinic
_symmetry_space_group_name_H-M   'P -1'
_symmetry_Int_Tables_number      2
_space_group_name_Hall           '-P 1'
loop_
_symmetry_equiv_pos_site_id
_symmetry_equiv_pos_as_xyz
1 x,y,z
2 -x,-y,-z
_cell_length_a                   11.1068(12)
_cell_length_b                   17.7727(19)
_cell_length_c                   29.228(3)
_cell_angle_alpha                86.624(2)
_cell_angle_beta                 79.689(2)
_cell_angle_gamma                73.275(2)
_cell_volume                     5436.08
loop_
_atom_site_label
_atom_site_type_symbol
_atom_site_fract_x
_atom_site_fract_y
_atom_site_fract_z
C91 C 0.0480(8) 1.0181(5) 0.1571(3)
H76 H 0.0593 1.0336 0.1866
H77 H -0.0152 1.0593 0.1449
H78 H 0.1274 1.0080 0.1359
C92 C -0.0156(8) 0.9157(5) 0.1231(3)
H79 H -0.0415 0.8692 0.1324
H80 H 0.0610 0.9022 0.1004
H81 H -0.0819 0.9530 0.1099
C93 C -0.0152(7) 0.9178(5) 0.2048(3)
H82 H -0.0033 0.9423 0.2302
N4 N 0.0078(5) 0.9496(4) 0.1630(2)
O42 O -0.0515(6) 0.8574(3) 0.21223(18)
C94 C 0.3625(9) 0.7979(6) 0.5065(3)
H83 H 0.3716 0.8147 0.5360
H84 H 0.2981 0.8378 0.4939
H85 H 0.4423 0.7892 0.4856
C95 C 0.3102(9) 0.6948(6) 0.4712(3)
H86 H 0.2847 0.6477 0.4785
H87 H 0.3893 0.6829 0.4497
H88 H 0.2457 0.7325 0.4573
C96 C 0.3023(9) 0.6962(6) 0.5536(3)
H89 H 0.3121 0.7207 0.5794
N8 N 0.3261(6) 0.7265(4) 0.5126(2)
O43 O 0.2663(7) 0.6349(4) 0.5597(2)
C97 C 0.6426(8) 0.8006(5) 0.8028(3)
H90 H 0.6131 0.7550 0.8105
H91 H 0.7211 0.7865 0.7810
H92 H 0.5798 0.8399 0.7891
C98 C 0.7064(8) 0.9004(5) 0.8382(3)
H93 H 0.7162 0.9166 0.8678
H94 H 0.6450 0.9418 0.8252
H95 H 0.7869 0.8893 0.8176
C99 C 0.6366(6) 0.7987(4) 0.8857(2)
H96 H 0.6497 0.8221 0.9113
N9 N 0.6634(5) 0.8314(3) 0.8444(2)
O45 O 0.5970(5) 0.7420(3) 0.89342(17)
La1 La 0.75577(3) 0.710960(19) 0.379474(11)
La2 La 0.43945(3) 0.609853(18) 0.035130(11)
La3 La 0.88392(3) 0.495299(19) 0.309281(11)
La4 La 0.45372(3) 0.889851(19) 0.035845(11)
La5 La -0.10755(3) 1.20530(2) 0.289500(11)
La6 La 0.80157(3) 0.98628(2) 0.356652(11)
C1 C 0.0943(5) 0.8179(3) 0.02041(19)
C2 C -0.0026(5) 0.7824(3) 0.0321(2)
H1 H 0.0103 0.7363 0.0497
C3 C -0.1185(5) 0.8152(3) 0.0177(2)
H2 H -0.1843 0.7917 0.0261
C4 C -0.1368(5) 0.8835(3) -0.0094(2)
C5 C -0.0385(6) 0.9171(4) -0.0217(2)
H3 H -0.0501 0.9623 -0.0400
C6 C 0.0778(6) 0.8843(4) -0.0071(2)
H4 H 0.1442 0.9071 -0.0159
C7 C 0.2159(6) 0.7857(4) 0.0398(2)
C8 C -0.2642(6) 0.9209(4) -0.0238(2)
C9 C 0.4345(5) 0.9200(3) 0.3489(2)
C10 C 0.4296(6) 0.9794(4) 0.3160(2)
H5 H 0.5019 0.9959 0.3051
C11 C 0.3196(5) 1.0138(3) 0.2995(2)
H6 H 0.3172 1.0540 0.2775
C12 C 0.2122(5) 0.9902(3) 0.3149(2)
C13 C 0.2165(5) 0.9303(3) 0.3474(2)
H7 H 0.1441 0.9137 0.3579
C14 C 0.3264(5) 0.8954(3) 0.3641(2)
H8 H 0.3289 0.8548 0.3858
C15 C 0.5543(6) 0.8835(4) 0.3692(2)
C16 C 0.0893(6) 1.0317(4) 0.2977(2)
C17 C 1.3293(6) 0.3258(4) 0.3051(2)
H9 H 1.3095 0.3771 0.2938
C18 C 1.4483(6) 0.2918(4) 0.3172(2)
H10 H 1.5090 0.3194 0.3128
C19 C 1.4766(5) 0.2166(3) 0.3357(2)
C20 C 1.3860(6) 0.1763(4) 0.3421(2)
H11 H 1.4040 0.1263 0.3553
C21 C 1.2674(6) 0.2101(4) 0.3290(2)
H12 H 1.2067 0.1824 0.3332
C22 C 1.2399(5) 0.2847(3) 0.30975(19)
C23 C 1.6067(6) 0.1776(4) 0.3478(2)
C24 C 1.1144(5) 0.3175(3) 0.29332(19)
C25 C 0.7158(5) 1.1151(3) 0.1668(2)
H13 H 0.7458 1.1577 0.1706
C26 C 0.6810(5) 1.1045(3) 0.1247(2)
H14 H 0.6898 1.1395 0.1002
C27 C 0.6331(5) 1.0421(3) 0.1189(2)
C28 C 0.6218(5) 0.9904(3) 0.1556(2)
H15 H 0.5893 0.9487 0.1524
C29 C 0.6583(5) 1.0004(3) 0.1971(2)
H16 H 0.6508 0.9650 0.2214
C30 C 0.7058(5) 1.0625(3) 0.20267(19)
C31 C 0.5931(5) 1.0316(4) 0.0738(2)
C32 C 0.7504(6) 1.0713(4) 0.2471(2)
C33 C 0.9758(5) 0.7975(3) 0.5528(2)
H17 H 0.9620 0.7657 0.5785
C34 C 0.9410(6) 0.7849(4) 0.5112(2)
H18 H 0.9049 0.7444 0.5090
C35 C 0.9603(5) 0.8332(3) 0.47270(19)
C36 C 1.0180(5) 0.8911(3) 0.4765(2)
H19 H 1.0335 0.9225 0.4508
C37 C 1.0528(5) 0.9031(3) 0.5174(2)
H20 H 1.0915 0.9425 0.5192
C38 C 1.0310(5) 0.8571(3) 0.5561(2)
C39 C 0.9132(5) 0.8251(3) 0.4291(2)
C40 C 1.0674(6) 0.8733(4) 0.6008(2)
C41 C 0.3558(6) 0.6730(4) 0.3516(2)
H21 H 0.3812 0.7167 0.3573
C42 C 0.2324(6) 0.6833(4) 0.3437(2)
H22 H 0.1759 0.7334 0.3440
C43 C 0.1941(5) 0.6190(3) 0.3353(2)
C44 C 0.2807(6) 0.5454(4) 0.3341(2)
H23 H 0.2561 0.5017 0.3281
C45 C 0.4032(6) 0.5360(4) 0.3416(2)
H24 H 0.4610 0.4862 0.3402
C46 C 0.4400(5) 0.6005(4) 0.3512(2)
C47 C 0.5723(6) 0.5909(4) 0.3612(2)
C48 C 0.0616(6) 0.6279(4) 0.3266(2)
C49 C 0.3725(6) 0.6620(4) -0.1400(2)
H25 H 0.4005 0.7022 -0.1306
C50 C 0.3640(5) 0.6002(3) -0.11014(19)
C51 C 0.3200(5) 0.5407(3) -0.1240(2)
H26 H 0.3148 0.4983 -0.1043
C52 C 0.3405(5) 0.6653(3) -0.18330(19)
H27 H 0.3488 0.7068 -0.2033
C53 C 0.3985(5) 0.5974(3) -0.0628(2)
C54 C 0.2554(5) 0.6105(3) -0.2436(2)
C55 C 0.2838(6) 0.5450(3) -0.1674(2)
H28 H 0.2515 0.5063 -0.1762
C56 C 0.2953(5) 0.6061(3) -0.1974(2)
C57 C 0.5866(5) 0.7194(3) 0.09739(19)
C58 C 0.6267(5) 0.7140(3) 0.14389(19)
C59 C 0.6088(5) 0.6548(3) 0.1746(2)
H29 H 0.5733 0.6176 0.1658
C60 C 0.6424(5) 0.6493(3) 0.2182(2)
H30 H 0.6322 0.6079 0.2381
C61 C 0.6916(5) 0.7063(3) 0.23220(19)
C62 C 0.7086(5) 0.7670(3) 0.2016(2)
H31 H 0.7407 0.8056 0.2107
C63 C 0.6775(6) 0.7695(3) 0.1576(2)
H32 H 0.6911 0.8093 0.1370
C64 C 0.7256(5) 0.7031(3) 0.2796(2)
C65 C 0.9828(6) 0.4358(4) 0.4812(2)
H33 H 0.9710 0.3921 0.4686
C66 C 1.0169(6) 0.4304(4) 0.5246(2)
H34 H 1.0284 0.3831 0.5410
C67 C 0.9661(6) 0.5055(3) 0.4560(2)
C68 C 0.9324(6) 0.5098(4) 0.4085(2)
C69 C 0.6240(9) 0.5237(5) 0.5377(3)
H35 H 0.6152 0.4979 0.5111
H36 H 0.5476 0.5316 0.5604
H37 H 0.6952 0.4918 0.5509
C70 C 0.6599(8) 0.6468(5) 0.5593(3)
H38 H 0.6707 0.6955 0.5459
H39 H 0.7335 0.6196 0.5728
H40 H 0.5853 0.6572 0.5830
C71 C 0.6562(7) 0.6213(4) 0.4796(3)
C72 C 0.6086(8) 0.8699(5) 0.5352(3)
H41 H 0.5910 0.8391 0.5126
H42 H 0.5333 0.8891 0.5579
H43 H 0.6760 0.8379 0.5503
C73 C 0.6789(8) 0.9863(5) 0.5410(3)
H44 H 0.7030 1.0281 0.5229
H45 H 0.7487 0.9565 0.5557
H46 H 0.6062 1.0080 0.5644
C74 C 0.6563(7) 0.9403(5) 0.4668(3)
C75 C -0.0146(9) 1.2404(6) 0.1077(3)
H47 H -0.0392 1.1985 0.1255
H48 H 0.0584 1.2188 0.0844
H49 H -0.0839 1.2707 0.0929
C76 C 0.0572(9) 1.3552(5) 0.1168(3)
H50 H 0.0751 1.3836 0.1404
H51 H -0.0091 1.3892 0.1020
H52 H 0.1329 1.3368 0.0941
C77 C 0.0077(7) 1.2785(5) 0.1826(3)
C78 C 0.9663(5) 0.4357(3) -0.0100(2)
H53 H 0.9438 0.3915 -0.0166
C79 C 1.0879(5) 0.4275(3) -0.0026(2)
H54 H 1.1472 0.3782 -0.0047
C80 C 0.7449(5) 0.5155(3) -0.0175(2)
C81 C 0.3470(9) 0.8736(6) 0.2176(3)
H55 H 0.3708 0.9149 0.1989
H56 H 0.4173 0.8442 0.2322
H57 H 0.2748 0.8958 0.2410
C82 C 0.2765(9) 0.7581(6) 0.2132(3)
H58 H 0.2578 0.7275 0.1908
H59 H 0.2018 0.7774 0.2361
H60 H 0.3442 0.7257 0.2280
C83 C 0.3229(7) 0.8320(5) 0.1458(3)
H61 H 0.3000 0.7961 0.1297
C84 C 0.3334(8) 0.5350(5) 0.2140(3)
H62 H 0.3465 0.5840 0.2020
H63 H 0.4055 0.5055 0.2275
H64 H 0.2578 0.5449 0.2372
C85 C 0.2952(7) 0.4147(4) 0.1870(3)
H65 H 0.2863 0.3923 0.1591
H66 H 0.2182 0.4213 0.2093
H67 H 0.3654 0.3803 0.1996
C86 C 0.3361(6) 0.5161(4) 0.1327(2)
H68 H 0.3312 0.4837 0.1097
C87 C 0.9872(8) 0.5726(5) 0.1300(3)
H69 H 0.9698 0.5247 0.1421
H70 H 1.0631 0.5605 0.1069
H71 H 0.9167 0.6038 0.1162
C88 C 1.0333(8) 0.6897(5) 0.1552(3)
H72 H 1.0456 0.7121 0.1825
H73 H 0.9636 0.7251 0.1428
H74 H 1.1096 0.6810 0.1324
C89 C 0.9888(6) 0.5914(4) 0.2103(2)
H75 H 0.9953 0.6242 0.2328
C90 C 0.8773(5) 0.5077(3) -0.00792(19)
N1 N 0.6453(6) 0.5989(4) 0.5237(2)
N2 N 0.6478(5) 0.9367(3) 0.51172(18)
N3 N 0.0165(6) 1.2893(4) 0.1375(2)
N5 N 0.3157(5) 0.8242(4) 0.1897(2)
N6 N 0.3186(5) 0.4904(3) 0.17630(18)
N7 N 1.0051(5) 0.6157(3) 0.16724(18)
O1 O 0.2799(4) 0.8330(3) 0.04201(16)
O2 O 0.2442(4) 0.7177(2) 0.05483(14)
O3 O -0.3452(4) 0.8840(3) -0.01491(14)
O4 O -0.2792(4) 0.9849(3) -0.04455(16)
O5 O 0.5616(4) 0.8229(2) 0.39330(15)
O6 O 0.6391(4) 0.9173(3) 0.36089(17)
O7 O -0.0045(4) 1.0060(3) 0.30971(16)
O8 O 0.0861(4) 1.0909(3) 0.27195(16)
O9 O 1.6267(4) 0.1093(3) 0.36403(16)
O10 O 1.6877(4) 0.2163(3) 0.34075(14)
O11 O 1.0791(4) 0.3899(2) 0.28575(14)
O12 O 1.0558(4) 0.2718(3) 0.28524(15)
O13 O 0.7423(4) 1.0203(3) 0.27855(14)
O14 O 0.5506(4) 0.9749(3) 0.07083(16)
O15 O 0.6062(4) 1.0804(3) 0.04197(14)
O16 O 1.1149(4) 0.9285(3) 0.60094(15)
O17 O 1.0468(4) 0.8299(3) 0.63467(14)
O18 O 0.9282(4) 0.8731(2) 0.39710(14)
O19 O 0.8590(4) 0.7728(3) 0.42732(14)
O20 O 0.6559(4) 0.5267(3) 0.35024(16)
O21 O 0.5889(4) 0.6458(3) 0.38093(15)
O22 O -0.0222(4) 0.6912(2) 0.33605(15)
O23 O 0.0455(4) 0.5688(2) 0.30899(14)
O24 O 0.3731(4) 0.6598(2) -0.04174(14)
O25 O 0.4519(3) 0.5318(2) -0.04585(13)
O26 O 0.2545(4) 0.6710(2) -0.26805(14)
O27 O 0.2240(4) 0.5538(2) -0.25597(14)
O28 O 0.5446(4) 0.6664(2) 0.08635(14)
O29 O 0.5979(4) 0.7773(2) 0.07211(14)
O30 O 0.7103(4) 0.7650(2) 0.29962(14)
O31 O 0.7691(4) 0.6370(2) 0.29799(13)
O32 O 0.9645(5) 0.4490(3) 0.38505(15)
O33 O 0.8693(4) 0.5746(2) 0.39366(13)
O34 O 0.6739(4) 0.6842(3) 0.46543(14)
O35 O 0.6917(5) 0.9909(3) 0.44349(17)
O36 O -0.0297(5) 1.2241(3) 0.20279(16)
O37 O 0.6624(4) 0.5785(2) -0.00734(15)
O38 O 0.3599(5) 0.8866(3) 0.12310(17)
O39 O 0.3580(4) 0.5781(3) 0.12006(14)
O40 O 0.9660(4) 0.5301(3) 0.22387(14)
O41 O 0.7295(4) 0.4584(2) -0.03544(14)
O44 O 0.7917(4) 1.1283(3) 0.25064(15)
O46 O 0.8961(5) 0.8689(3) 0.30841(16)
H97 H 0.9770 0.8556 0.3053
H98 H 0.8742 0.8765 0.2817
O47 O 0.8151(4) 0.3733(3) 0.34749(13)
H99 H 0.7343 0.3879 0.3549
H100 H 0.8450 0.3630 0.3727
O48 O 0.5230(4) 0.7454(2) -0.00884(14)
H101 H 0.5885 0.7058 -0.0120
H102 H 0.5113 0.7630 -0.0359
C67A C 1.0339(6) 0.4945(3) 0.5440(2)
C65A C 1.0172(6) 0.5642(4) 0.5188(2)
H33A H 1.0290 0.6079 0.5314
C66A C 0.9831(6) 0.5696(4) 0.4754(2)
H34A H 0.9716 0.6169 0.4590
C68A C 1.0676(6) 0.4902(4) 0.5915(2)
O32A O 1.0355(5) 0.5510(3) 0.61495(15)
O33A O 1.1307(4) 0.4254(2) 0.60634(13)
C90A C 1.1227(5) 0.4923(3) 0.00792(19)
C78A C 1.0337(5) 0.5643(3) 0.0100(2)
H53A H 1.0562 0.6085 0.0166
C79A C 0.9121(5) 0.5725(3) 0.0026(2)
H54A H 0.8528 0.6218 0.0047
C80A C 1.2551(5) 0.4845(3) 0.0175(2)
O41A O 1.2705(4) 0.5416(2) 0.03544(14)
O37A O 1.3376(4) 0.4215(2) 0.00734(15)
C41_2 C 1.3558(6) 0.6730(4) 0.3516(2)
H21_2 H 1.3812 0.7167 0.3573
C42_2 C 1.2324(6) 0.6833(4) 0.3437(2)
H22_2 H 1.1759 0.7334 0.3440
C43_2 C 1.1941(5) 0.6190(3) 0.3353(2)
C44_2 C 1.2807(6) 0.5454(4) 0.3341(2)
H23_2 H 1.2561 0.5017 0.3281
C45_2 C 1.4032(6) 0.5360(4) 0.3416(2)
H24_2 H 1.4610 0.4862 0.3402
C46_2 C 1.4400(5) 0.6005(4) 0.3512(2)
C47_2 C 1.5723(6) 0.5909(4) 0.3612(2)
C48_2 C 1.0616(6) 0.6279(4) 0.3266(2)
O20_2 O 1.6559(4) 0.5267(3) 0.35024(16)
O21_2 O 1.5889(4) 0.6458(3) 0.38093(15)
O22_2 O 0.9778(4) 0.6912(2) 0.33605(15)
O23_2 O 1.0455(4) 0.5688(2) 0.30899(14)
La1_2 La 1.75577(3) 0.710960(19) 0.379474(11)
La3_2 La 1.88392(3) 0.495299(19) 0.309281(11)
La5A La 1.10755(3) 0.79470(2) 0.710500(11)
La6_2 La -0.19843(3) 0.98628(2) 0.356652(11)
C49A C 0.6275(6) 0.3380(4) 0.1400(2)
H25A H 0.5995 0.2978 0.1306
C50A C 0.6360(5) 0.3998(3) 0.11014(19)
C51A C 0.6800(5) 0.4593(3) 0.1240(2)
H26A H 0.6852 0.5017 0.1043
C52A C 0.6595(5) 0.3347(3) 0.18330(19)
H27A H 0.6512 0.2932 0.2033
C53A C 0.6015(5) 0.4026(3) 0.0628(2)
C54A C 0.7446(5) 0.3895(3) 0.2436(2)
C55A C 0.7162(6) 0.4550(3) 0.1674(2)
H28A H 0.7485 0.4937 0.1762
C56A C 0.7047(5) 0.3939(3) 0.1974(2)
O24A O 0.6269(4) 0.3402(2) 0.04174(14)
O25A O 0.5481(3) 0.4682(2) 0.04585(13)
O26A O 0.7455(4) 0.3290(2) 0.26805(14)
O27A O 0.7760(4) 0.4462(2) 0.25597(14)
C1_2 C 1.0943(5) 0.8179(3) 0.02041(19)
C2_2 C 0.9974(5) 0.7824(3) 0.0321(2)
H1_2 H 1.0103 0.7363 0.0497
C3_2 C 0.8815(5) 0.8152(3) 0.0177(2)
H2_2 H 0.8157 0.7917 0.0261
C4_2 C 0.8632(5) 0.8835(3) -0.0094(2)
C5_2 C 0.9615(6) 0.9171(4) -0.0217(2)
H3_2 H 0.9499 0.9623 -0.0400
C6_2 C 1.0778(6) 0.8843(4) -0.0071(2)
H4_2 H 1.1442 0.9071 -0.0159
C7_2 C 1.2159(6) 0.7857(4) 0.0398(2)
C8_2 C 0.7358(6) 0.9209(4) -0.0238(2)
O1_2 O 1.2799(4) 0.8330(3) 0.04201(16)
O2_2 O 1.2442(4) 0.7177(2) 0.05483(14)
O3_2 O 0.6548(4) 0.8840(3) -0.01491(14)
O4_2 O 0.7208(4) 0.9849(3) -0.04455(16)
C25A C 0.2842(5) 0.8849(3) -0.1668(2)
H13A H 0.2542 0.8423 -0.1706
C26A C 0.3190(5) 0.8955(3) -0.1247(2)
H14A H 0.3102 0.8605 -0.1002
C27A C 0.3669(5) 0.9579(3) -0.1189(2)
C28A C 0.3782(5) 1.0096(3) -0.1556(2)
H15A H 0.4107 1.0513 -0.1524
C29A C 0.3417(5) 0.9996(3) -0.1971(2)
H16A H 0.3492 1.0350 -0.2214
C30A C 0.2942(5) 0.9375(3) -0.20267(19)
C31A C 0.4069(5) 0.9684(4) -0.0738(2)
C32A C 0.2496(6) 0.9287(4) -0.2471(2)
O13A O 0.2577(4) 0.9797(3) -0.27855(14)
O14A O 0.4494(4) 1.0251(3) -0.07083(16)
O15A O 0.3938(4) 0.9196(3) -0.04197(14)
O44A O 0.2083(4) 0.8717(3) -0.25064(15)
C33A C 0.0242(5) 1.2025(3) 0.4472(2)
H17A H 0.0380 1.2343 0.4215
C34A C 0.0590(6) 1.2151(4) 0.4888(2)
H18A H 0.0951 1.2556 0.4910
C35A C 0.0397(5) 1.1668(3) 0.52730(19)
C36A C -0.0180(5) 1.1089(3) 0.5235(2)
H19A H -0.0335 1.0775 0.5492
C37A C -0.0528(5) 1.0969(3) 0.4826(2)
H20A H -0.0915 1.0575 0.4808
C38A C -0.0310(5) 1.1429(3) 0.4439(2)
C39A C 0.0868(5) 1.1749(3) 0.5709(2)
C40A C -0.0674(6) 1.1267(4) 0.3992(2)
O16A O -0.1149(4) 1.0715(3) 0.39906(15)
O17A O -0.0468(4) 1.1701(3) 0.36533(14)
O18A O 0.0718(4) 1.1269(2) 0.60290(14)
O19A O 0.1410(4) 1.2272(3) 0.57268(14)
C17_2 C -0.6707(6) 1.3258(4) 0.3051(2)
H9_2 H -0.6905 1.3771 0.2938
C18_2 C -0.5517(6) 1.2918(4) 0.3172(2)
H10_2 H -0.4910 1.3194 0.3128
C19_2 C -0.5234(5) 1.2166(3) 0.3357(2)
C20_2 C -0.6140(6) 1.1763(4) 0.3421(2)
H11_2 H -0.5960 1.1263 0.3553
C21_2 C -0.7326(6) 1.2101(4) 0.3290(2)
H12_2 H -0.7933 1.1824 0.3332
C22_2 C -0.7601(5) 1.2847(3) 0.30975(19)
C23_2 C -0.3933(6) 1.1776(4) 0.3478(2)
C24_2 C -0.8856(5) 1.3175(3) 0.29332(19)
O9_2 O -0.3733(4) 1.1093(3) 0.36403(16)
O10_2 O -0.3123(4) 1.2163(3) 0.34075(14)
O11_2 O -0.9209(4) 1.3899(2) 0.28575(14)
O12_2 O -0.9442(4) 1.2718(3) 0.28524(15)
C9_2 C 1.4345(5) 0.9200(3) 0.3489(2)
C10_2 C 1.4296(6) 0.9794(4) 0.3160(2)
H5_2 H 1.5019 0.9959 0.3051
C11_2 C 1.3196(5) 1.0138(3) 0.2995(2)
H6_2 H 1.3172 1.0540 0.2775
C12_2 C 1.2122(5) 0.9902(3) 0.3149(2)
C13_2 C 1.2165(5) 0.9303(3) 0.3474(2)
H7_2 H 1.1441 0.9137 0.3579
C14_2 C 1.3264(5) 0.8954(3) 0.3641(2)
H8_2 H 1.3289 0.8548 0.3858
C15_2 C 1.5543(6) 0.8835(4) 0.3692(2)
C16_2 C 1.0893(6) 1.0317(4) 0.2977(2)
O5_2 O 1.5616(4) 0.8229(2) 0.39330(15)
O6_2 O 1.6391(4) 0.9173(3) 0.36089(17)
O7_2 O 0.9955(4) 1.0060(3) 0.30971(16)
O8_2 O 1.0861(4) 1.0909(3) 0.27195(16)
C57_2 C 1.5866(5) 0.7194(3) 0.09739(19)
C58_2 C 1.6267(5) 0.7140(3) 0.14389(19)
C59_2 C 1.6088(5) 0.6548(3) 0.1746(2)
H29_2 H 1.5733 0.6176 0.1658
C60_2 C 1.6424(5) 0.6493(3) 0.2182(2)
H30_2 H 1.6322 0.6079 0.2381
C61_2 C 1.6916(5) 0.7063(3) 0.23220(19)
C62_2 C 1.7086(5) 0.7670(3) 0.2016(2)
H31_2 H 1.7407 0.8056 0.2107
C63_2 C 1.6775(6) 0.7695(3) 0.1576(2)
H32_2 H 1.6911 0.8093 0.1370
C64_2 C 1.7256(5) 0.7031(3) 0.2796(2)
O28_2 O 1.5446(4) 0.6664(2) 0.08635(14)
O29_2 O 1.5979(4) 0.7773(2) 0.07211(14)
O30_2 O 1.7103(4) 0.7650(2) 0.29962(14)
O31_2 O 1.7691(4) 0.6370(2) 0.29799(13)
C69_2 C 1.6240(9) 0.5237(5) 0.5377(3)
H35_2 H 1.6152 0.4979 0.5111
H36_2 H 1.5476 0.5316 0.5604
H37_2 H 1.6952 0.4918 0.5509
C70_2 C 1.6599(8) 0.6468(5) 0.5593(3)
H38_2 H 1.6707 0.6955 0.5459
H39_2 H 1.7335 0.6196 0.5728
H40_2 H 1.5853 0.6572 0.5830
C71_2 C 1.6562(7) 0.6213(4) 0.4796(3)
N1_2 N 1.6453(6) 0.5989(4) 0.5237(2)
O34_2 O 1.6739(4) 0.6842(3) 0.46543(14)
C87_2 C 1.9872(8) 0.5726(5) 0.1300(3)
H69_2 H 1.9698 0.5247 0.1421
H70_2 H 2.0631 0.5605 0.1069
H71_2 H 1.9167 0.6038 0.1162
C88_2 C 2.0333(8) 0.6897(5) 0.1552(3)
H72_2 H 2.0456 0.7121 0.1825
H73_2 H 1.9636 0.7251 0.1428
H74_2 H 2.1096 0.6810 0.1324
C89_2 C 1.9888(6) 0.5914(4) 0.2103(2)
H75_2 H 1.9953 0.6242 0.2328
N7_2 N 2.0051(5) 0.6157(3) 0.16724(18)
O40_2 O 1.9660(4) 0.5301(3) 0.22387(14)
O47_2 O 1.8151(4) 0.3733(3) 0.34749(13)
H99_2 H 1.7343 0.3879 0.3549
H100_2 H 1.8450 0.3630 0.3727
C75A C 1.0146(9) 0.7596(6) 0.8923(3)
H47A H 1.0392 0.8015 0.8745
H48A H 0.9416 0.7812 0.9156
H49A H 1.0839 0.7293 0.9071
C76A C 0.9428(9) 0.6448(5) 0.8832(3)
H50A H 0.9249 0.6164 0.8596
H51A H 1.0091 0.6108 0.8980
H52A H 0.8671 0.6632 0.9059
C77A C 0.9923(7) 0.7215(5) 0.8174(3)
N3A N 0.9835(6) 0.7107(4) 0.8625(2)
O36A O 1.0297(5) 0.7759(3) 0.79721(16)
C72_2 C -0.3914(8) 0.8699(5) 0.5352(3)
H41_2 H -0.4090 0.8391 0.5126
H42_2 H -0.4667 0.8891 0.5579
H43_2 H -0.3240 0.8379 0.5503
C73_2 C -0.3211(8) 0.9863(5) 0.5410(3)
H44_2 H -0.2970 1.0281 0.5229
H45_2 H -0.2513 0.9565 0.5557
H46_2 H -0.3938 1.0080 0.5644
C74_2 C -0.3437(7) 0.9403(5) 0.4668(3)
N2_2 N -0.3522(5) 0.9367(3) 0.51172(18)
O35_2 O -0.3083(5) 0.9909(3) 0.44349(17)
O46_2 O -0.1039(5) 0.8689(3) 0.30841(16)
H97_2 H -0.0230 0.8556 0.3053
H98_2 H -0.1258 0.8765 0.2817
La2_2 La 1.43945(3) 0.609853(18) 0.035130(11)
La4_2 La 1.45372(3) 0.889851(19) 0.035845(11)
C84_2 C 1.3334(8) 0.5350(5) 0.2140(3)
H62_2 H 1.3465 0.5840 0.2020
H63_2 H 1.4055 0.5055 0.2275
H64_2 H 1.2578 0.5449 0.2372
C85_2 C 1.2952(7) 0.4147(4) 0.1870(3)
H65_2 H 1.2863 0.3923 0.1591
H66_2 H 1.2182 0.4213 0.2093
H67_2 H 1.3654 0.3803 0.1996
C86_2 C 1.3361(6) 0.5161(4) 0.1327(2)
H68_2 H 1.3312 0.4837 0.1097
N6_2 N 1.3186(5) 0.4904(3) 0.17630(18)
O39_2 O 1.3580(4) 0.5781(3) 0.12006(14)
O48_2 O 1.5230(4) 0.7454(2) -0.00884(14)
H101_2 H 1.5885 0.7058 -0.0120
H102_2 H 1.5113 0.7630 -0.0359
C81_2 C 1.3470(9) 0.8736(6) 0.2176(3)
H55_2 H 1.3708 0.9149 0.1989
H56_2 H 1.4173 0.8442 0.2322
H57_2 H 1.2748 0.8958 0.2410
C82_2 C 1.2765(9) 0.7581(6) 0.2132(3)
H58_2 H 1.2578 0.7275 0.1908
H59_2 H 1.2018 0.7774 0.2361
H60_2 H 1.3442 0.7257 0.2280
C83_2 C 1.3229(7) 0.8320(5) 0.1458(3)
H61_2 H 1.3000 0.7961 0.1297
N5_2 N 1.3157(5) 0.8242(4) 0.1897(2)
O38_2 O 1.3599(5) 0.8866(3) 0.12310(17)
O41A_2 O 0.2705(4) 0.5416(2) 0.03544(14)
O4A O 0.2792(4) 1.0151(3) 0.04455(16)
O12_3 O 0.0558(4) 1.2718(3) 0.28524(15)
O26A_2 O -0.2545(4) 1.3290(2) 0.26805(14)
O44_2 O -0.2083(4) 1.1283(3) 0.25064(15)
O9_3 O 0.6267(4) 1.1093(3) 0.36403(16)
O16A_2 O 0.8851(4) 1.0715(3) 0.39906(15)
La4_3 La -0.54628(3) 0.889851(19) 0.035845(11)
La4A La -0.45372(3) 1.110149(19) -0.035845(11)
La6_3 La 1.80157(3) -0.01372(2) 0.356652(11)
La5_2 La 1.89245(3) 0.20530(2) 0.289500(11)
La5_3 La 0.89245(3) 0.20530(2) 0.289500(11)
La4A_2 La 0.54628(3) 1.110149(19) -0.035845(11)
La6A La 1.19843(3) 1.01372(2) 0.643348(11)
La1_3 La -0.24423(3) 0.710960(19) 0.379474(11)
La3_3 La -0.11608(3) 0.495299(19) 0.309281(11)
La2A La 0.56055(3) 0.390147(18) -0.035130(11)
La5A_2 La 0.10755(3) 0.79470(2) -0.289500(11)
La3A La 0.11608(3) 0.504701(19) -0.309281(11)
La5_4 La 0.89245(3) 1.20530(2) 0.289500(11)
La3A_2 La 1.11608(3) 0.504701(19) 0.690719(11)
La1A La 1.24423(3) 0.289040(19) 0.620526(11)
La2A_2 La 1.56055(3) 0.390147(18) -0.035130(11)
O19_2 O 1.8590(4) 0.7728(3) 0.42732(14)
O33_2 O 1.8693(4) 0.5746(2) 0.39366(13)
O22_3 O 1.9778(4) 0.6912(2) 0.33605(15)
O11_3 O 2.0791(4) 0.3899(2) 0.28575(14)
O32_2 O 1.9645(5) 0.4490(3) 0.38505(15)
O23_3 O 2.0455(4) 0.5688(2) 0.30899(14)
O27A_2 O 1.7760(4) 0.4462(2) 0.25597(14)
O8A O 0.9139(4) 0.9091(3) 0.72805(16)
O10A O 1.3123(4) 0.7837(3) 0.65925(14)
O12A O 0.9442(4) 0.7282(3) 0.71476(15)
O26_2 O 1.2545(4) 0.6710(2) 0.73195(14)
O44A_2 O 1.2083(4) 0.8717(3) 0.74936(15)
O6_3 O -0.3609(4) 0.9173(3) 0.36089(17)
O13_2 O -0.2577(4) 1.0203(3) 0.27855(14)
O18_2 O -0.0718(4) 0.8731(2) 0.39710(14)
La6A_2 La 0.19843(3) 1.01372(2) -0.356652(11)
La6A_3 La 0.19843(3) 1.01372(2) 0.643348(11)
La1A_2 La 0.24423(3) 1.289040(19) 0.620526(11)
La3_4 La -1.11608(3) 1.495299(19) 0.309281(11)
La5_5 La -1.10755(3) 1.20530(2) 0.289500(11)
La6_4 La 1.80157(3) 0.98628(2) 0.356652(11)
O24_2 O 1.3731(4) 0.6598(2) -0.04174(14)
O25_2 O 1.4519(3) 0.5318(2) -0.04585(13)
O37_2 O 1.6624(4) 0.5785(2) -0.00734(15)
O25A_2 O 1.5481(3) 0.4682(2) 0.04585(13)
O14_2 O 1.5506(4) 0.9749(3) 0.07083(16)
O3_3 O 1.6548(4) 0.8840(3) -0.01491(14)
O4A_2 O 1.2792(4) 1.0151(3) 0.04455(16)
O15A_2 O 1.3938(4) 0.9196(3) -0.04197(14)
loop_
_geom_bond_atom_site_label_1
_geom_bond_atom_site_label_2
_geom_bond_site_symmetry_1
_geom_bond_site_symmetry_2
La1 O5 1_555 1_555
La2 O2 1_555 1_555
La3 O11 1_555 1_555
La4 O1 1_555 1_555
La5 O8 1_555 1_555
La6 O6 1_555 1_555
C1 C2 1_555 1_555
C2 H1 1_555 1_555
C3 C2 1_555 1_555
H2 C3 1_555 1_555
C4 C3 1_555 1_555
C5 C4 1_555 1_555
H3 C5 1_555 1_555
C6 C1 1_555 1_555
H4 C6 1_555 1_555
C7 C1 1_555 1_555
C8 C4 1_555 1_555
C9 C10 1_555 1_555
C10 H5 1_555 1_555
C11 C10 1_555 1_555
H6 C11 1_555 1_555
C12 C11 1_555 1_555
C13 C12 1_555 1_555
H7 C13 1_555 1_555
C14 C9 1_555 1_555
H8 C14 1_555 1_555
C15 C9 1_555 1_555
C16 C12 1_555 1_555
C17 H9 1_555 1_555
C18 C17 1_555 1_555
H10 C18 1_555 1_555
C19 C18 1_555 1_555
C20 C19 1_555 1_555
H11 C20 1_555 1_555
C21 C20 1_555 1_555
H12 C21 1_555 1_555
C22 C17 1_555 1_555
C23 C19 1_555 1_555
C24 C22 1_555 1_555
C25 H13 1_555 1_555
C26 C25 1_555 1_555
H14 C26 1_555 1_555
C27 C26 1_555 1_555
C28 C27 1_555 1_555
H15 C28 1_555 1_555
C29 C28 1_555 1_555
H16 C29 1_555 1_555
C30 C25 1_555 1_555
C31 C27 1_555 1_555
C32 C30 1_555 1_555
C33 H17 1_555 1_555
C34 C33 1_555 1_555
H18 C34 1_555 1_555
C35 C34 1_555 1_555
C36 C35 1_555 1_555
H19 C36 1_555 1_555
C37 C36 1_555 1_555
H20 C37 1_555 1_555
C38 C33 1_555 1_555
C39 C35 1_555 1_555
C40 C38 1_555 1_555
C41 H21 1_555 1_555
C42 C41 1_555 1_555
H22 C42 1_555 1_555
C43 C42 1_555 1_555
C44 C43 1_555 1_555
H23 C44 1_555 1_555
C45 C44 1_555 1_555
H24 C45 1_555 1_555
C46 C41 1_555 1_555
C47 C46 1_555 1_555
C48 C43 1_555 1_555
C49 H25 1_555 1_555
C50 C49 1_555 1_555
C51 C50 1_555 1_555
H26 C51 1_555 1_555
C52 C49 1_555 1_555
H27 C52 1_555 1_555
C53 C50 1_555 1_555
C54 C56 1_555 1_555
C55 C51 1_555 1_555
H28 C55 1_555 1_555
C56 C52 1_555 1_555
C57 C58 1_555 1_555
C58 C59 1_555 1_555
C59 H29 1_555 1_555
C60 C59 1_555 1_555
H30 C60 1_555 1_555
C61 C60 1_555 1_555
C62 C61 1_555 1_555
H31 C62 1_555 1_555
C63 C58 1_555 1_555
H32 C63 1_555 1_555
C64 C61 1_555 1_555
C65 H33 1_555 1_555
C66 C65 1_555 1_555
H34 C66 1_555 1_555
C67 C65 1_555 1_555
C68 C67 1_555 1_555
C69 H35 1_555 1_555
H36 C69 1_555 1_555
H37 C69 1_555 1_555
C70 H38 1_555 1_555
H39 C70 1_555 1_555
H40 C70 1_555 1_555
C71 N1 1_555 1_555
C72 H41 1_555 1_555
H42 C72 1_555 1_555
H43 C72 1_555 1_555
C73 H44 1_555 1_555
H45 C73 1_555 1_555
H46 C73 1_555 1_555
C74 N2 1_555 1_555
C75 H47 1_555 1_555
H48 C75 1_555 1_555
H49 C75 1_555 1_555
C76 H50 1_555 1_555
H51 C76 1_555 1_555
H52 C76 1_555 1_555
C77 N3 1_555 1_555
C78 H53 1_555 1_555
C79 C78 1_555 1_555
H54 C79 1_555 1_555
C80 C90 1_555 1_555
C81 H55 1_555 1_555
H56 C81 1_555 1_555
H57 C81 1_555 1_555
C82 H58 1_555 1_555
H59 C82 1_555 1_555
H60 C82 1_555 1_555
C83 H61 1_555 1_555
C84 H62 1_555 1_555
H63 C84 1_555 1_555
H64 C84 1_555 1_555
C85 H65 1_555 1_555
H66 C85 1_555 1_555
H67 C85 1_555 1_555
C86 H68 1_555 1_555
C87 H69 1_555 1_555
H70 C87 1_555 1_555
H71 C87 1_555 1_555
C88 H72 1_555 1_555
H73 C88 1_555 1_555
H74 C88 1_555 1_555
C89 H75 1_555 1_555
C90 C78 1_555 1_555
C91 H76 1_555 1_555
H77 C91 1_555 1_555
H78 C91 1_555 1_555
C92 H79 1_555 1_555
H80 C92 1_555 1_555
H81 C92 1_555 1_555
C93 H82 1_555 1_555
C94 H83 1_555 1_555
H84 C94 1_555 1_555
H85 C94 1_555 1_555
C95 H86 1_555 1_555
H87 C95 1_555 1_555
H88 C95 1_555 1_555
C96 H89 1_555 1_555
C97 H90 1_555 1_555
H91 C97 1_555 1_555
H92 C97 1_555 1_555
C98 H93 1_555 1_555
H94 C98 1_555 1_555
H95 C98 1_555 1_555
C99 H96 1_555 1_555
N1 C69 1_555 1_555
N2 C72 1_555 1_555
N3 C75 1_555 1_555
N4 C91 1_555 1_555
N5 C81 1_555 1_555
N6 C84 1_555 1_555
N7 C87 1_555 1_555
N8 C94 1_555 1_555
N9 C97 1_555 1_555
O1 C7 1_555 1_555
O2 C7 1_555 1_555
O3 C8 1_555 1_555
O4 C8 1_555 1_555
O5 C15 1_555 1_555
O6 C15 1_555 1_555
O7 C16 1_555 1_555
O8 C16 1_555 1_555
O9 C23 1_555 1_555
O10 C23 1_555 1_555
O11 C24 1_555 1_555
O12 C24 1_555 1_555
O13 La6 1_555 1_555
O14 La4 1_555 1_555
O15 C31 1_555 1_555
O16 C40 1_555 1_555
O17 C40 1_555 1_555
O18 La6 1_555 1_555
O19 La1 1_555 1_555
O20 La3 1_555 1_555
O21 La1 1_555 1_555
O22 C48 1_555 1_555
O23 C48 1_555 1_555
O24 La2 1_555 1_555
O25 La2 1_555 1_555
O26 C54 1_555 1_555
O27 C54 1_555 1_555
O28 La2 1_555 1_555
O29 La4 1_555 1_555
O30 La1 1_555 1_555
O31 La1 1_555 1_555
O32 La3 1_555 1_555
O33 La1 1_555 1_555
O34 La1 1_555 1_555
O35 La6 1_555 1_555
O36 La5 1_555 1_555
O37 La2 1_555 1_555
O38 La4 1_555 1_555
O39 La2 1_555 1_555
O40 La3 1_555 1_555
O41 C80 1_555 1_555
O42 C93 1_555 1_555
O43 C96 1_555 1_555
O44 C32 1_555 1_555
O45 C99 1_555 1_555
O46 La6 1_555 1_555
H97 O46 1_555 1_555
H98 O46 1_555 1_555
O47 La3 1_555 1_555
H99 O47 1_555 1_555
H100 O47 1_555 1_555
O48 La2 1_555 1_555
H101 O48 1_555 1_555
H102 O48 1_555 1_555
C67A C66 1_555 1_555
C65A C67A 1_555 1_555
H33A C65A 1_555 1_555
C66A C67 1_555 1_555
H34A C66A 1_555 1_555
C68A C67A 1_555 1_555
O32A C68A 1_555 1_555
O33A C68A 1_555 1_555
C90A C79 1_555 1_555
C78A C90A 1_555 1_555
H53A C78A 1_555 1_555
C79A C90 1_555 1_555
H54A C79A 1_555 1_555
C80A C90A 1_555 1_555
O41A C80A 1_555 1_555
O37A C80A 1_555 1_555
C41_2 H21_2 1_555 1_555
C42_2 C41_2 1_555 1_555
H22_2 C42_2 1_555 1_555
C43_2 C42_2 1_555 1_555
C44_2 C43_2 1_555 1_555
H23_2 C44_2 1_555 1_555
C45_2 C44_2 1_555 1_555
H24_2 C45_2 1_555 1_555
C46_2 C41_2 1_555 1_555
C47_2 C46_2 1_555 1_555
C48_2 C43_2 1_555 1_555
O20_2 C47_2 1_555 1_555
O21_2 C47_2 1_555 1_555
O22_2 La1 1_555 1_555
O23_2 La3 1_555 1_555
La1_2 O21_2 1_555 1_555
La3_2 O20_2 1_555 1_555
La5A O17 1_555 1_555
La6_2 O7 1_555 1_555
C49A H25A 1_555 1_555
C50A C49A 1_555 1_555
C51A C50A 1_555 1_555
H26A C51A 1_555 1_555
C52A C49A 1_555 1_555
H27A C52A 1_555 1_555
C53A C50A 1_555 1_555
C54A C56A 1_555 1_555
C55A C51A 1_555 1_555
H28A C55A 1_555 1_555
C56A C52A 1_555 1_555
O24A C53A 1_555 1_555
O25A La2 1_555 1_555
O26A C54A 1_555 1_555
O27A La3 1_555 1_555
C1_2 C2_2 1_555 1_555
C2_2 H1_2 1_555 1_555
C3_2 C2_2 1_555 1_555
H2_2 C3_2 1_555 1_555
C4_2 C3_2 1_555 1_555
C5_2 C4_2 1_555 1_555
H3_2 C5_2 1_555 1_555
C6_2 C1_2 1_555 1_555
H4_2 C6_2 1_555 1_555
C7_2 C1_2 1_555 1_555
C8_2 C4_2 1_555 1_555
O1_2 C7_2 1_555 1_555
O2_2 C7_2 1_555 1_555
O3_2 La4 1_555 1_555
O4_2 C8_2 1_555 1_555
C25A H13A 1_555 1_555
C26A C25A 1_555 1_555
H14A C26A 1_555 1_555
C27A C26A 1_555 1_555
C28A C27A 1_555 1_555
H15A C28A 1_555 1_555
C29A C28A 1_555 1_555
H16A C29A 1_555 1_555
C30A C25A 1_555 1_555
C31A C27A 1_555 1_555
C32A C30A 1_555 1_555
O13A C32A 1_555 1_555
O14A C31A 1_555 1_555
O15A La4 1_555 1_555
O44A C32A 1_555 1_555
C33A H17A 1_555 1_555
C34A C33A 1_555 1_555
H18A C34A 1_555 1_555
C35A C34A 1_555 1_555
C36A C35A 1_555 1_555
H19A C36A 1_555 1_555
C37A C36A 1_555 1_555
H20A C37A 1_555 1_555
C38A C33A 1_555 1_555
C39A C35A 1_555 1_555
C40A C38A 1_555 1_555
O16A La6_2 1_555 1_555
O17A La5 1_555 1_555
O18A C39A 1_555 1_555
O19A C39A 1_555 1_555
C17_2 H9_2 1_555 1_555
C18_2 C17_2 1_555 1_555
H10_2 C18_2 1_555 1_555
C19_2 C18_2 1_555 1_555
C20_2 C19_2 1_555 1_555
H11_2 C20_2 1_555 1_555
C21_2 C20_2 1_555 1_555
H12_2 C21_2 1_555 1_555
C22_2 C17_2 1_555 1_555
C23_2 C19_2 1_555 1_555
C24_2 C22_2 1_555 1_555
O9_2 La6_2 1_555 1_555
O10_2 La5 1_555 1_555
O11_2 C24_2 1_555 1_555
O12_2 C24_2 1_555 1_555
C9_2 C10_2 1_555 1_555
C10_2 H5_2 1_555 1_555
C11_2 C10_2 1_555 1_555
H6_2 C11_2 1_555 1_555
C12_2 C11_2 1_555 1_555
C13_2 C12_2 1_555 1_555
H7_2 C13_2 1_555 1_555
C14_2 C9_2 1_555 1_555
H8_2 C14_2 1_555 1_555
C15_2 C9_2 1_555 1_555
C16_2 C12_2 1_555 1_555
O5_2 La1_2 1_555 1_555
O6_2 C15_2 1_555 1_555
O7_2 La6 1_555 1_555
O8_2 C16_2 1_555 1_555
C57_2 C58_2 1_555 1_555
C58_2 C59_2 1_555 1_555
C59_2 H29_2 1_555 1_555
C60_2 C59_2 1_555 1_555
H30_2 C60_2 1_555 1_555
C61_2 C60_2 1_555 1_555
C62_2 C61_2 1_555 1_555
H31_2 C62_2 1_555 1_555
C63_2 C58_2 1_555 1_555
H32_2 C63_2 1_555 1_555
C64_2 C61_2 1_555 1_555
O28_2 C57_2 1_555 1_555
O29_2 C57_2 1_555 1_555
O30_2 La1_2 1_555 1_555
O31_2 La1_2 1_555 1_555
C69_2 H35_2 1_555 1_555
H36_2 C69_2 1_555 1_555
H37_2 C69_2 1_555 1_555
C70_2 H38_2 1_555 1_555
H39_2 C70_2 1_555 1_555
H40_2 C70_2 1_555 1_555
C71_2 N1_2 1_555 1_555
N1_2 C69_2 1_555 1_555
O34_2 La1_2 1_555 1_555
C87_2 H69_2 1_555 1_555
H70_2 C87_2 1_555 1_555
H71_2 C87_2 1_555 1_555
C88_2 H72_2 1_555 1_555
H73_2 C88_2 1_555 1_555
H74_2 C88_2 1_555 1_555
C89_2 H75_2 1_555 1_555
N7_2 C87_2 1_555 1_555
O40_2 La3_2 1_555 1_555
O47_2 La3_2 1_555 1_555
H99_2 O47_2 1_555 1_555
H100_2 O47_2 1_555 1_555
C75A H47A 1_555 1_555
H48A C75A 1_555 1_555
H49A C75A 1_555 1_555
C76A H50A 1_555 1_555
H51A C76A 1_555 1_555
H52A C76A 1_555 1_555
C77A N3A 1_555 1_555
N3A C75A 1_555 1_555
O36A La5A 1_555 1_555
C72_2 H41_2 1_555 1_555
H42_2 C72_2 1_555 1_555
H43_2 C72_2 1_555 1_555
C73_2 H44_2 1_555 1_555
H45_2 C73_2 1_555 1_555
H46_2 C73_2 1_555 1_555
C74_2 N2_2 1_555 1_555
N2_2 C72_2 1_555 1_555
O35_2 La6_2 1_555 1_555
O46_2 La6_2 1_555 1_555
H97_2 O46_2 1_555 1_555
H98_2 O46_2 1_555 1_555
La2_2 O41A 1_555 1_555
La4_2 O1_2 1_555 1_555
C84_2 H62_2 1_555 1_555
H63_2 C84_2 1_555 1_555
H64_2 C84_2 1_555 1_555
C85_2 H65_2 1_555 1_555
H66_2 C85_2 1_555 1_555
H67_2 C85_2 1_555 1_555
C86_2 H68_2 1_555 1_555
N6_2 C84_2 1_555 1_555
O39_2 La2_2 1_555 1_555
O48_2 La2_2 1_555 1_555
H101_2 O48_2 1_555 1_555
H102_2 O48_2 1_555 1_555
C81_2 H55_2 1_555 1_555
H56_2 C81_2 1_555 1_555
H57_2 C81_2 1_555 1_555
C82_2 H58_2 1_555 1_555
H59_2 C82_2 1_555 1_555
H60_2 C82_2 1_555 1_555
C83_2 H61_2 1_555 1_555
N5_2 C81_2 1_555 1_555
O38_2 La4_2 1_555 1_555
O41A_2 La2 1_555 1_555
O4A La4 1_555 1_555
O12_3 La5 1_555 1_555
O26A_2 La5 1_555 1_555
O44_2 La5 1_555 1_555
O9_3 La6 1_555 1_555
O16A_2 La6 1_555 1_555
La4_3 O3 1_555 1_555
La4A O4 1_555 1_555
La6_3 O9 1_555 1_555
La5_2 O10 1_555 1_555
La5_3 O12 1_555 1_555
La4A_2 O15 1_555 1_555
La6A O16 1_555 1_555
La1_3 O22 1_555 1_555
La3_3 O23 1_555 1_555
La2A O25 1_555 1_555
La5A_2 O26 1_555 1_555
La3A O27 1_555 1_555
La5_4 O44 1_555 1_555
La3A_2 O32A 1_555 1_555
La1A O33A 1_555 1_555
La2A_2 O37A 1_555 1_555
O19_2 La1_2 1_555 1_555
O33_2 La1_2 1_555 1_555
O22_3 La1_2 1_555 1_555
O11_3 La3_2 1_555 1_555
O32_2 La3_2 1_555 1_555
O23_3 La3_2 1_555 1_555
O27A_2 La3_2 1_555 1_555
O8A La5A 1_555 1_555
O10A La5A 1_555 1_555
O12A La5A 1_555 1_555
O26_2 La5A 1_555 1_555
O44A_2 La5A 1_555 1_555
O6_3 La6_2 1_555 1_555
O13_2 La6_2 1_555 1_555
O18_2 La6_2 1_555 1_555
La6A_2 O13A 1_555 1_555
La6A_3 O18A 1_555 1_555
La1A_2 O19A 1_555 1_555
La3_4 O11_2 1_555 1_555
La5_5 O12_2 1_555 1_555
La6_4 O6_2 1_555 1_555
O24_2 La2_2 1_555 1_555
O25_2 La2_2 1_555 1_555
O37_2 La2_2 1_555 1_555
O25A_2 La2_2 1_555 1_555
O14_2 La4_2 1_555 1_555
O3_3 La4_2 1_555 1_555
O4A_2 La4_2 1_555 1_555
O15A_2 La4_2 1_555 1_555
La3 O33 1_555 1_555
La3 O31 1_555 1_555
La4 O48 1_555 1_555
C5 C6 1_555 1_555
C13 C14 1_555 1_555
C21 C22 1_555 1_555
C29 C30 1_555 1_555
C31 O14 1_555 1_555
C32 O13 1_555 1_555
C37 C38 1_555 1_555
C39 O18 1_555 1_555
C39 O19 1_555 1_555
C45 C46 1_555 1_555
C47 O20 1_555 1_555
C47 O21 1_555 1_555
C53 O24 1_555 1_555
C53 O25 1_555 1_555
C55 C56 1_555 1_555
C57 O28 1_555 1_555
C57 O29 1_555 1_555
C62 C63 1_555 1_555
C64 O30 1_555 1_555
C64 O31 1_555 1_555
C68 O32 1_555 1_555
C68 O33 1_555 1_555
C70 N1 1_555 1_555
C71 O34 1_555 1_555
C73 N2 1_555 1_555
C74 O35 1_555 1_555
C76 N3 1_555 1_555
C77 O36 1_555 1_555
C80 O37 1_555 1_555
C82 N5 1_555 1_555
C83 N5 1_555 1_555
C83 O38 1_555 1_555
C85 N6 1_555 1_555
C86 N6 1_555 1_555
C86 O39 1_555 1_555
C88 N7 1_555 1_555
C89 N7 1_555 1_555
C89 O40 1_555 1_555
C92 N4 1_555 1_555
C93 N4 1_555 1_555
C95 N8 1_555 1_555
C96 N8 1_555 1_555
C98 N9 1_555 1_555
C99 N9 1_555 1_555
O41 La2A 1_555 1_555
C65A C66A 1_555 1_555
O33A La3A_2 1_555 1_555
C78A C79A 1_555 1_555
C45_2 C46_2 1_555 1_555
C48_2 O22_2 1_555 1_555
C48_2 O23_2 1_555 1_555
La3_2 O31_2 1_555 1_555
La3_2 O33_2 1_555 1_555
C53A O25A 1_555 1_555
C54A O27A 1_555 1_555
C55A C56A 1_555 1_555
O24A La2A 1_555 1_555
O25A La2A 1_555 1_555
O26A La5_3 1_555 1_555
C5_2 C6_2 1_555 1_555
C8_2 O3_2 1_555 1_555
O2_2 La2_2 1_555 1_555
O4_2 La4A_2 1_555 1_555
C29A C30A 1_555 1_555
C31A O15A 1_555 1_555
O14A La4A_2 1_555 1_555
O44A La5A_2 1_555 1_555
C37A C38A 1_555 1_555
C40A O16A 1_555 1_555
C40A O17A 1_555 1_555
C21_2 C22_2 1_555 1_555
C23_2 O9_2 1_555 1_555
C23_2 O10_2 1_555 1_555
C13_2 C14_2 1_555 1_555
C15_2 O5_2 1_555 1_555
C16_2 O7_2 1_555 1_555
O8_2 La5_4 1_555 1_555
C62_2 C63_2 1_555 1_555
C64_2 O30_2 1_555 1_555
C64_2 O31_2 1_555 1_555
O28_2 La2_2 1_555 1_555
O29_2 La4_2 1_555 1_555
C70_2 N1_2 1_555 1_555
C71_2 O34_2 1_555 1_555
C88_2 N7_2 1_555 1_555
C89_2 N7_2 1_555 1_555
C89_2 O40_2 1_555 1_555
C76A N3A 1_555 1_555
C77A O36A 1_555 1_555
C73_2 N2_2 1_555 1_555
C74_2 O35_2 1_555 1_555
La4_2 O48_2 1_555 1_555
C85_2 N6_2 1_555 1_555
C86_2 N6_2 1_555 1_555
C86_2 O39_2 1_555 1_555
C82_2 N5_2 1_555 1_555
C83_2 N5_2 1_555 1_555
C83_2 O38_2 1_555 1_555
La2A_2 O25A_2 1_555 1_555
La2A_2 O25_2 1_555 1_555

#END
