
#######################################################################
#
#                 Cambridge Crystallographic Data Centre
#                                CCDC 
#
#######################################################################
#
# If this CIF has been generated from an entry in the Cambridge 
# Structural Database, then it will include bibliographic, chemical, 
# crystal, experimental, refinement or atomic coordinate data resulting 
# from the CCDC's data processing and validation procedures.
#
#######################################################################

data_ALUJUN
_symmetry_cell_setting           triclinic
_symmetry_space_group_name_H-M   'P -1'
_symmetry_Int_Tables_number      2
_space_group_name_Hall           '-P 1'
loop_
_symmetry_equiv_pos_site_id
_symmetry_equiv_pos_as_xyz
1 x,y,z
2 -x,-y,-z
_cell_length_a                   8.613(2)
_cell_length_b                   10.122(3)
_cell_length_c                   11.095(3)
_cell_angle_alpha                65.205(4)
_cell_angle_beta                 71.609(5)
_cell_angle_gamma                78.617(5)
_cell_volume                     830.874
loop_
_atom_site_label
_atom_site_type_symbol
_atom_site_fract_x
_atom_site_fract_y
_atom_site_fract_z
Y1 Y 0.63312(4) 0.93672(3) 0.66131(3)
C1 C 0.4431(4) 1.2550(4) 0.4563(4)
C2 C 0.4716(5) 1.3812(4) 0.4804(4)
C3 C 0.4678(5) 1.3659(4) 0.6120(4)
H1 H 0.4462 1.2773 0.6860
C4 C 0.5034(5) 1.5156(4) 0.3690(4)
H2 H 0.5052 1.5248 0.2816
C5 C 0.3259(5) 0.9542(4) 0.8390(4)
C6 C 0.1566(5) 0.9792(4) 0.9213(4)
C7 C 0.0233(5) 0.9101(5) 0.9314(4)
H3 H 0.0416 0.8489 0.8842
C8 C 0.1325(5) 1.0698(4) 0.9916(4)
H4 H 0.2190 1.1157 0.9868
C9 C 0.8231(5) 0.7295(4) 0.8202(4)
C10 C 0.9166(5) 0.6087(4) 0.9116(4)
C11 C 0.8356(5) 0.5301(5) 1.0510(5)
H5 H 0.7242 0.5520 1.0839
C12 C 1.0804(5) 0.5780(5) 0.8619(4)
H6 H 1.1342 0.6292 0.7708
C13 C 0.7563(6) 1.1709(4) 0.7450(5)
H7 H 0.6632 1.1583 0.8185
C14 C 0.8213(8) 1.3579(6) 0.7974(6)
H8 H 0.7209 1.3311 0.8680
H9 H 0.8096 1.4589 0.7386
H10 H 0.9090 1.3429 0.8389
C15 C 1.0128(8) 1.2898(7) 0.6089(7)
H11 H 1.0218 1.2267 0.5619
H12 H 1.1034 1.2663 0.6492
H13 H 1.0143 1.3895 0.5447
N1 N 0.8575(5) 1.2699(4) 0.7181(4)
O1 O 0.4816(4) 1.1278(3) 0.5316(3)
O2 O 0.3777(4) 1.2797(3) 0.3614(3)
O3 O 0.3446(3) 0.8775(3) 0.7703(3)
O4 O 0.4474(3) 1.0115(3) 0.8356(3)
O5 O 0.8950(3) 0.8032(3) 0.6942(3)
O6 O 0.6737(3) 0.7551(3) 0.8732(3)
O7 O 0.7804(4) 1.0961(3) 0.6775(3)
O8 O 0.8145(3) 1.0327(3) 0.4351(3)
H14 H 0.7760 1.0420 0.3699
H15 H 0.8969 1.0835 0.4001
Y1A Y 0.36688(4) 2.06328(3) 0.33869(3)
Y1A_2 Y 0.36688(4) 1.06328(3) 0.33869(3)
Y1_2 Y 0.63312(4) 1.93672(3) 0.66131(3)
Y1A_3 Y -0.63312(4) 1.06328(3) 1.33869(3)
Y1A_4 Y 1.36688(4) 0.06328(3) 1.33869(3)
C1A C 0.5569(4) 1.7450(4) 0.5437(4)
C2A C 0.5284(5) 1.6188(4) 0.5196(4)
C3A C 0.5322(5) 1.6341(4) 0.3880(4)
H1A H 0.5538 1.7227 0.3140
C4A C 0.4966(5) 1.4844(4) 0.6310(4)
H2A H 0.4948 1.4752 0.7184
C5A C -0.3259(5) 1.0458(4) 1.1610(4)
C6A C -0.1566(5) 1.0208(4) 1.0787(4)
C7A C -0.0233(5) 1.0899(5) 1.0686(4)
H3A H -0.0416 1.1511 1.1158
C8A C -0.1325(5) 0.9302(4) 1.0084(4)
H4A H -0.2190 0.8843 1.0132
C9A C 1.1769(5) 0.2705(4) 1.1798(4)
C10A C 1.0834(5) 0.3913(4) 1.0884(4)
C11A C 1.1644(5) 0.4699(5) 0.9490(5)
H5A H 1.2758 0.4480 0.9161
C12A C 0.9196(5) 0.4220(5) 1.1381(4)
H6A H 0.8658 0.3708 1.2292
C13A C 0.2437(6) 1.8291(4) 0.2550(5)
H7A H 0.3368 1.8417 0.1815
C14A C 0.1787(8) 1.6421(6) 0.2026(6)
H8A H 0.2791 1.6689 0.1320
H9A H 0.1904 1.5411 0.2614
H10A H 0.0910 1.6571 0.1611
C15A C -0.0128(8) 1.7102(7) 0.3911(7)
H11A H -0.0218 1.7733 0.4381
H12A H -0.1034 1.7337 0.3508
H13A H -0.0143 1.6105 0.4553
N1A N 0.1425(5) 1.7301(4) 0.2819(4)
O1A O 0.5184(4) 1.8722(3) 0.4684(3)
O2A O 0.6223(4) 1.7203(3) 0.6386(3)
O2A_2 O 0.6223(4) 0.7203(3) 0.6386(3)
O2_2 O 0.3777(4) 2.2797(3) 0.3614(3)
O3A O -0.3446(3) 1.1225(3) 1.2297(3)
O3A_2 O 0.6554(3) 2.1225(3) 0.2297(3)
O4A O -0.4474(3) 0.9885(3) 1.1644(3)
O4A_2 O 0.5526(3) 1.9885(3) 0.1644(3)
O5A O 1.1050(3) 0.1968(3) 1.3058(3)
O5A_2 O 0.1050(3) 2.1968(3) 0.3058(3)
O6A O 1.3263(3) 0.2449(3) 1.1268(3)
O6A_2 O 0.3263(3) 2.2449(3) 0.1268(3)
O7A O 0.2196(4) 1.9039(3) 0.3225(3)
O8A O 0.1855(3) 1.9673(3) 0.5649(3)
H14A H 0.2240 1.9580 0.6301
H15A H 0.1031 1.9165 0.5999
loop_
_geom_bond_atom_site_label_1
_geom_bond_atom_site_label_2
_geom_bond_site_symmetry_1
_geom_bond_site_symmetry_2
Y1 O1 1_555 1_555
C1 C2 1_555 1_555
C2 C3 1_555 1_555
C3 H1 1_555 1_555
C4 C2 1_555 1_555
H2 C4 1_555 1_555
C5 C6 1_555 1_555
C6 C7 1_555 1_555
C7 H3 1_555 1_555
C8 C6 1_555 1_555
H4 C8 1_555 1_555
C9 C10 1_555 1_555
C10 C11 1_555 1_555
C11 H5 1_555 1_555
C12 C10 1_555 1_555
H6 C12 1_555 1_555
C13 H7 1_555 1_555
C14 H8 1_555 1_555
H9 C14 1_555 1_555
H10 C14 1_555 1_555
C15 H11 1_555 1_555
H12 C15 1_555 1_555
H13 C15 1_555 1_555
N1 C13 1_555 1_555
O1 C1 1_555 1_555
O2 C1 1_555 1_555
O3 Y1 1_555 1_555
O4 Y1 1_555 1_555
O5 Y1 1_555 1_555
O6 Y1 1_555 1_555
O7 Y1 1_555 1_555
O8 Y1 1_555 1_555
H14 O8 1_555 1_555
H15 O8 1_555 1_555
Y1A O1A 1_555 1_555
Y1A_2 O2 1_555 1_555
Y1_2 O2A 1_555 1_555
Y1A_3 O3A 1_555 1_555
Y1A_4 O5A 1_555 1_555
C1A C2A 1_555 1_555
C2A C3A 1_555 1_555
C3A C4 1_555 1_555
H1A C3A 1_555 1_555
C4A C3 1_555 1_555
H2A C4A 1_555 1_555
C5A C6A 1_555 1_555
C6A C7A 1_555 1_555
C7A C8 1_555 1_555
H3A C7A 1_555 1_555
C8A C7 1_555 1_555
H4A C8A 1_555 1_555
C9A C10A 1_555 1_555
C10A C11A 1_555 1_555
C11A C12 1_555 1_555
H5A C11A 1_555 1_555
C12A C11 1_555 1_555
H6A C12A 1_555 1_555
C13A H7A 1_555 1_555
C14A H8A 1_555 1_555
H9A C14A 1_555 1_555
H10A C14A 1_555 1_555
C15A H11A 1_555 1_555
H12A C15A 1_555 1_555
H13A C15A 1_555 1_555
N1A C13A 1_555 1_555
O1A C1A 1_555 1_555
O2A C1A 1_555 1_555
O2A_2 Y1 1_555 1_555
O2_2 Y1A 1_555 1_555
O3A C5A 1_555 1_555
O3A_2 Y1A 1_555 1_555
O4A Y1A_3 1_555 1_555
O4A_2 Y1A 1_555 1_555
O5A C9A 1_555 1_555
O5A_2 Y1A 1_555 1_555
O6A Y1A_4 1_555 1_555
O6A_2 Y1A 1_555 1_555
O7A Y1A 1_555 1_555
O8A Y1A 1_555 1_555
H14A O8A 1_555 1_555
H15A O8A 1_555 1_555
C5 O3 1_555 1_555
C5 O4 1_555 1_555
C9 O5 1_555 1_555
C9 O6 1_555 1_555
C13 O7 1_555 1_555
C14 N1 1_555 1_555
C15 N1 1_555 1_555
C2A C4A 1_555 1_555
C5A O4A 1_555 1_555
C6A C8A 1_555 1_555
C9A O6A 1_555 1_555
C10A C12A 1_555 1_555
C13A O7A 1_555 1_555
C14A N1A 1_555 1_555
C15A N1A 1_555 1_555

#END
