
#######################################################################
#
#                 Cambridge Crystallographic Data Centre
#                                CCDC 
#
#######################################################################
#
# If this CIF has been generated from an entry in the Cambridge 
# Structural Database, then it will include bibliographic, chemical, 
# crystal, experimental, refinement or atomic coordinate data resulting 
# from the CCDC's data processing and validation procedures.
#
#######################################################################

data_ALUKAU
_symmetry_cell_setting           triclinic
_symmetry_space_group_name_H-M   'P -1'
_symmetry_Int_Tables_number      2
_space_group_name_Hall           '-P 1'
loop_
_symmetry_equiv_pos_site_id
_symmetry_equiv_pos_as_xyz
1 x,y,z
2 -x,-y,-z
_cell_length_a                   8.522(3)
_cell_length_b                   10.154(3)
_cell_length_c                   11.067(4)
_cell_angle_alpha                64.726(5)
_cell_angle_beta                 71.738(6)
_cell_angle_gamma                79.581(6)
_cell_volume                     821.132
loop_
_atom_site_label
_atom_site_type_symbol
_atom_site_fract_x
_atom_site_fract_y
_atom_site_fract_z
Dy1 Dy 0.63217(2) 0.93817(2) 0.65651(2)
C1 C 0.4363(6) 1.2598(6) 0.4511(5)
C2 C 0.4697(6) 1.3838(6) 0.4783(5)
C3 C 0.4618(6) 1.3673(6) 0.6105(6)
H1 H 0.4350 1.2786 0.6849
C4 C 0.5062(7) 1.5169(6) 0.3686(6)
H2 H 0.5092 1.5283 0.2800
C5 C 0.3248(6) 0.9581(6) 0.8339(5)
C6 C 0.1555(6) 0.9801(6) 0.9199(5)
C7 C 0.0233(7) 0.9114(7) 0.9286(6)
H3 H 0.0393 0.8528 0.8797
C8 C 0.1319(7) 1.0699(7) 0.9903(6)
H4 H 0.2203 1.1174 0.9829
C9 C 0.8249(6) 0.7310(6) 0.8198(6)
C10 C 0.9174(7) 0.6110(6) 0.9109(5)
C11 C 0.8369(7) 0.5361(7) 1.0495(6)
H5 H 0.7260 0.5602 1.0831
C12 C 1.0808(7) 0.5735(7) 0.8620(6)
H6 H 1.1358 0.6219 0.7693
C13 C 0.7514(8) 1.1719(7) 0.7455(7)
H7 H 0.6565 1.1576 0.8189
C14 C 0.8146(12) 1.3547(9) 0.8032(11)
H8 H 0.7128 1.3259 0.8740
H9 H 0.8038 1.4560 0.7444
H10 H 0.9026 1.3397 0.8455
C15 C 1.0044(10) 1.2922(11) 0.6096(11)
H11 H 1.0129 1.2291 0.5631
H12 H 1.0974 1.2717 0.6475
H13 H 1.0034 1.3920 0.5448
N1 N 0.8519(8) 1.2676(7) 0.7211(7)
O1 O 0.4730(4) 1.1301(4) 0.5244(4)
O2 O 0.3712(5) 1.2888(5) 0.3561(5)
O3 O 0.3453(4) 0.8784(4) 0.7670(4)
O4 O 0.4438(4) 1.0182(4) 0.8291(4)
O5 O 0.8968(4) 0.8020(4) 0.6934(4)
O6 O 0.6760(4) 0.7619(5) 0.8700(4)
O7 O 0.7763(5) 1.0993(5) 0.6755(4)
O8 O 0.8164(5) 1.0358(5) 0.4336(4)
H14 H 0.7738 1.0494 0.3690
H15 H 0.8991 1.0887 0.3982
Dy1A Dy 0.36783(2) 2.06183(2) 0.34349(2)
Dy1A_2 Dy 0.36783(2) 1.06183(2) 0.34349(2)
Dy1_2 Dy 0.63217(2) 1.93817(2) 0.65651(2)
Dy1A_3 Dy -0.63217(2) 1.06183(2) 1.34349(2)
Dy1A_4 Dy 1.36783(2) 0.06183(2) 1.34349(2)
C1A C 0.5637(6) 1.7402(6) 0.5489(5)
C2A C 0.5303(6) 1.6162(6) 0.5217(5)
C3A C 0.5382(6) 1.6327(6) 0.3895(6)
H1A H 0.5650 1.7214 0.3151
C4A C 0.4938(7) 1.4831(6) 0.6314(6)
H2A H 0.4908 1.4717 0.7200
C5A C -0.3248(6) 1.0419(6) 1.1661(5)
C6A C -0.1555(6) 1.0199(6) 1.0801(5)
C7A C -0.0233(7) 1.0886(7) 1.0714(6)
H3A H -0.0393 1.1472 1.1203
C8A C -0.1319(7) 0.9301(7) 1.0097(6)
H4A H -0.2203 0.8826 1.0171
C9A C 1.1751(6) 0.2690(6) 1.1802(6)
C10A C 1.0826(7) 0.3890(6) 1.0891(5)
C11A C 1.1631(7) 0.4639(7) 0.9505(6)
H5A H 1.2740 0.4398 0.9169
C12A C 0.9192(7) 0.4265(7) 1.1380(6)
H6A H 0.8642 0.3781 1.2307
C13A C 0.2486(8) 1.8281(7) 0.2545(7)
H7A H 0.3435 1.8424 0.1811
C14A C 0.1854(12) 1.6453(9) 0.1968(11)
H8A H 0.2872 1.6741 0.1260
H9A H 0.1962 1.5440 0.2556
H10A H 0.0974 1.6603 0.1545
C15A C -0.0044(10) 1.7078(11) 0.3904(11)
H11A H -0.0129 1.7709 0.4369
H12A H -0.0974 1.7283 0.3525
H13A H -0.0034 1.6080 0.4552
N1A N 0.1481(8) 1.7324(7) 0.2789(7)
O1A O 0.5270(4) 1.8699(4) 0.4756(4)
O2A O 0.6288(5) 1.7112(5) 0.6439(5)
O2A_2 O 0.6288(5) 0.7112(5) 0.6439(5)
O2_2 O 0.3712(5) 2.2888(5) 0.3561(5)
O3A O -0.3453(4) 1.1216(4) 1.2330(4)
O3A_2 O 0.6547(4) 2.1216(4) 0.2330(4)
O4A O -0.4438(4) 0.9818(4) 1.1709(4)
O4A_2 O 0.5562(4) 1.9818(4) 0.1709(4)
O5A O 1.1032(4) 0.1980(4) 1.3066(4)
O5A_2 O 0.1032(4) 2.1980(4) 0.3066(4)
O6A O 1.3240(4) 0.2381(5) 1.1300(4)
O6A_2 O 0.3240(4) 2.2381(5) 0.1300(4)
O7A O 0.2237(5) 1.9007(5) 0.3245(4)
O8A O 0.1836(5) 1.9642(5) 0.5664(4)
H14A H 0.2262 1.9506 0.6310
H15A H 0.1009 1.9113 0.6018
loop_
_geom_bond_atom_site_label_1
_geom_bond_atom_site_label_2
_geom_bond_site_symmetry_1
_geom_bond_site_symmetry_2
Dy1 O1 1_555 1_555
C1 C2 1_555 1_555
C2 C3 1_555 1_555
C3 H1 1_555 1_555
C4 C2 1_555 1_555
H2 C4 1_555 1_555
C5 C6 1_555 1_555
C6 C7 1_555 1_555
C7 H3 1_555 1_555
C8 C6 1_555 1_555
H4 C8 1_555 1_555
C9 C10 1_555 1_555
C10 C11 1_555 1_555
C11 H5 1_555 1_555
C12 C10 1_555 1_555
H6 C12 1_555 1_555
C13 H7 1_555 1_555
C14 H8 1_555 1_555
H9 C14 1_555 1_555
H10 C14 1_555 1_555
C15 H11 1_555 1_555
H12 C15 1_555 1_555
H13 C15 1_555 1_555
N1 C13 1_555 1_555
O1 C1 1_555 1_555
O2 C1 1_555 1_555
O3 Dy1 1_555 1_555
O4 Dy1 1_555 1_555
O5 Dy1 1_555 1_555
O6 Dy1 1_555 1_555
O7 Dy1 1_555 1_555
O8 Dy1 1_555 1_555
H14 O8 1_555 1_555
H15 O8 1_555 1_555
Dy1A O1A 1_555 1_555
Dy1A_2 O2 1_555 1_555
Dy1_2 O2A 1_555 1_555
Dy1A_3 O3A 1_555 1_555
Dy1A_4 O5A 1_555 1_555
C1A C2A 1_555 1_555
C2A C3A 1_555 1_555
C3A C4 1_555 1_555
H1A C3A 1_555 1_555
C4A C3 1_555 1_555
H2A C4A 1_555 1_555
C5A C6A 1_555 1_555
C6A C7A 1_555 1_555
C7A C8 1_555 1_555
H3A C7A 1_555 1_555
C8A C7 1_555 1_555
H4A C8A 1_555 1_555
C9A C10A 1_555 1_555
C10A C11A 1_555 1_555
C11A C12 1_555 1_555
H5A C11A 1_555 1_555
C12A C11 1_555 1_555
H6A C12A 1_555 1_555
C13A H7A 1_555 1_555
C14A H8A 1_555 1_555
H9A C14A 1_555 1_555
H10A C14A 1_555 1_555
C15A H11A 1_555 1_555
H12A C15A 1_555 1_555
H13A C15A 1_555 1_555
N1A C13A 1_555 1_555
O1A C1A 1_555 1_555
O2A C1A 1_555 1_555
O2A_2 Dy1 1_555 1_555
O2_2 Dy1A 1_555 1_555
O3A C5A 1_555 1_555
O3A_2 Dy1A 1_555 1_555
O4A Dy1A_3 1_555 1_555
O4A_2 Dy1A 1_555 1_555
O5A C9A 1_555 1_555
O5A_2 Dy1A 1_555 1_555
O6A Dy1A_4 1_555 1_555
O6A_2 Dy1A 1_555 1_555
O7A Dy1A 1_555 1_555
O8A Dy1A 1_555 1_555
H14A O8A 1_555 1_555
H15A O8A 1_555 1_555
C5 O3 1_555 1_555
C5 O4 1_555 1_555
C9 O5 1_555 1_555
C9 O6 1_555 1_555
C13 O7 1_555 1_555
C14 N1 1_555 1_555
C15 N1 1_555 1_555
C2A C4A 1_555 1_555
C5A O4A 1_555 1_555
C6A C8A 1_555 1_555
C9A O6A 1_555 1_555
C10A C12A 1_555 1_555
C13A O7A 1_555 1_555
C14A N1A 1_555 1_555
C15A N1A 1_555 1_555

#END
