
#######################################################################
#
#                 Cambridge Crystallographic Data Centre
#                                CCDC 
#
#######################################################################
#
# If this CIF has been generated from an entry in the Cambridge 
# Structural Database, then it will include bibliographic, chemical, 
# crystal, experimental, refinement or atomic coordinate data resulting 
# from the CCDC's data processing and validation procedures.
#
#######################################################################

data_ALUNEB
_symmetry_cell_setting           triclinic
_symmetry_space_group_name_H-M   'P -1'
_symmetry_Int_Tables_number      2
_space_group_name_Hall           '-P 1'
loop_
_symmetry_equiv_pos_site_id
_symmetry_equiv_pos_as_xyz
1 x,y,z
2 -x,-y,-z
_cell_length_a                   11.4967(17)
_cell_length_b                   13.400(2)
_cell_length_c                   17.586(3)
_cell_angle_alpha                86.943(2)
_cell_angle_beta                 84.396(2)
_cell_angle_gamma                70.301(2)
_cell_volume                     2537.88
loop_
_atom_site_label
_atom_site_type_symbol
_atom_site_fract_x
_atom_site_fract_y
_atom_site_fract_z
Eu1 Eu 0.074110(14) -0.158860(13) 0.490130(9)
Eu2 Eu 0.433090(14) -0.338870(12) -0.027880(9)
O1 O -0.7230(3) 0.0978(3) 0.7368(2)
O2 O -0.5949(3) 0.1925(3) 0.7176(2)
H1 H -0.6414 0.2264 0.7526
O3 O -0.1408(2) -0.1028(2) 0.52744(18)
O4 O -0.2232(2) 0.07300(19) 0.53601(16)
O5 O 0.2727(2) -0.30938(19) 0.47287(13)
O6 O 0.1886(2) -0.2272(2) 0.36947(14)
O7 O 0.4098(2) -0.3332(2) 0.10961(14)
O8 O 0.5090(2) -0.5055(2) 0.09954(15)
O9 O -0.1394(3) -0.2325(3) 0.1578(2)
O10 O -0.2697(3) -0.3260(3) 0.17873(19)
O11 O 0.2710(2) -0.4064(2) 0.01248(15)
O12 O 0.3502(2) -0.5832(2) 0.02313(16)
O13 O -0.2931(2) 0.27608(19) 0.13242(14)
O14 O -0.2536(2) 0.1642(2) 0.03841(14)
O15 O -0.1514(2) 0.1454(2) 0.38828(14)
O16 O -0.0157(2) -0.0133(2) 0.40490(15)
N1 N 0.0141(3) -0.2949(2) 0.59055(19)
N2 N -0.0238(3) -0.2894(3) 0.4395(2)
N3 N 0.5374(3) -0.2510(3) -0.13573(18)
N4 N 0.5201(3) -0.1915(2) 0.0122(2)
N5 N -0.5347(3) -0.2068(3) 0.5518(2)
H2 H -0.6045 -0.2131 0.5693
H3 H -0.4852 -0.2527 0.5208
N6 N 0.6667(3) -0.5988(3) 0.3676(2)
H4 H 0.6706 -0.6030 0.4163
H5 H 0.7234 -0.6426 0.3385
N7 N -0.0292(3) -0.6922(3) 0.0888(2)
H6 H -0.0153 -0.7258 0.1338
H7 H 0.0197 -0.7329 0.0521
H8 H -0.1082 -0.6782 0.0801
N8 N 0.1179(3) -0.1455(3) 0.1301(2)
H9 H 0.1701 -0.1908 0.1575
H10 H 0.1227 -0.1533 0.0816
C1 C 0.0307(4) -0.2992(4) 0.6647(2)
H11 H 0.0812 -0.2640 0.6804
C2 C -0.0220(5) -0.3525(4) 0.7207(3)
H12 H -0.0071 -0.3522 0.7717
C3 C -0.0951(6) -0.4046(4) 0.6991(4)
H13 H -0.1300 -0.4416 0.7355
C4 C -0.1185(4) -0.4035(4) 0.6229(4)
C5 C -0.1949(6) -0.4557(5) 0.5954(5)
H14 H -0.2324 -0.4929 0.6299
C6 C -0.2142(5) -0.4528(4) 0.5218(5)
H15 H -0.2659 -0.4869 0.5064
C7 C -0.1569(4) -0.3982(4) 0.4654(4)
C8 C -0.1693(6) -0.3986(5) 0.3880(5)
H16 H -0.2171 -0.4346 0.3700
C9 C -0.1113(7) -0.3462(5) 0.3388(4)
H17 H -0.1191 -0.3464 0.2867
C10 C -0.0389(5) -0.2912(4) 0.3660(3)
H18 H -0.0006 -0.2550 0.3312
C11 C -0.0808(4) -0.3441(3) 0.4896(3)
C12 C -0.0606(4) -0.3461(3) 0.5686(3)
C13 C 0.5411(4) -0.2760(4) -0.2086(2)
H19 H 0.4941 -0.3166 -0.2206
C14 C 0.6123(4) -0.2441(4) -0.2679(3)
H20 H 0.6115 -0.2623 -0.3181
C15 C 0.6830(5) -0.1855(4) -0.2506(3)
H21 H 0.7311 -0.1638 -0.2891
C16 C 0.6830(4) -0.1582(4) -0.1746(3)
C17 C 0.7547(5) -0.0967(4) -0.1520(5)
H22 H 0.8078 -0.0768 -0.1882
C18 C 0.7459(5) -0.0683(4) -0.0806(5)
H23 H 0.7933 -0.0285 -0.0677
C19 C 0.6657(4) -0.0965(3) -0.0213(3)
C20 C 0.6472(5) -0.0591(4) 0.0524(4)
H24 H 0.6901 -0.0164 0.0667
C21 C 0.5646(5) -0.0862(3) 0.1041(3)
H25 H 0.5484 -0.0597 0.1532
C22 C 0.5051(4) -0.1543(3) 0.0819(3)
H26 H 0.4521 -0.1743 0.1181
C23 C 0.5983(4) -0.1610(3) -0.0405(3)
C24 C 0.6067(3) -0.1917(3) -0.1185(3)
C25 C -0.6277(4) 0.1137(3) 0.7034(2)
C26 C -0.5463(3) 0.0364(3) 0.6470(2)
C27 C -0.5811(3) -0.0466(3) 0.6239(2)
H27 H -0.6576 -0.0518 0.6421
C28 C -0.5019(3) -0.1219(3) 0.5737(2)
C29 C -0.3864(3) -0.1133(3) 0.5489(2)
H28 H -0.3309 -0.1649 0.5174
C30 C -0.3528(3) -0.0290(3) 0.5705(2)
C31 C -0.4332(3) 0.0476(3) 0.6190(2)
H29 H -0.4121 0.1051 0.6325
C32 C -0.2294(3) -0.0187(3) 0.5424(2)
C33 C 0.2753(3) -0.2978(3) 0.40069(19)
C34 C 0.3794(3) -0.3697(3) 0.35010(19)
C35 C 0.4760(3) -0.4494(3) 0.3823(2)
H30 H 0.4785 -0.4547 0.4351
C36 C 0.5688(3) -0.5211(3) 0.3358(2)
C37 C 0.5633(3) -0.5116(3) 0.2565(2)
H31 H 0.6243 -0.5591 0.2250
C38 C 0.4672(3) -0.4315(3) 0.22403(19)
C39 C 0.3758(3) -0.3594(3) 0.27119(19)
H32 H 0.3130 -0.3049 0.2499
C40 C 0.4613(3) -0.4229(3) 0.1391(2)
C41 C -0.1662(4) -0.3177(4) 0.1535(2)
C42 C -0.0687(3) -0.4121(3) 0.1204(2)
C43 C -0.0944(3) -0.5065(3) 0.1175(2)
H33 H -0.1729 -0.5084 0.1344
C44 C -0.0040(3) -0.5970(3) 0.0896(2)
C45 C 0.1131(3) -0.5936(3) 0.0651(2)
H34 H 0.1751 -0.6552 0.0482
C46 C 0.1392(3) -0.4991(3) 0.0655(2)
C47 C 0.0483(3) -0.4076(3) 0.0941(2)
H35 H 0.0653 -0.3447 0.0956
C48 C 0.2637(3) -0.4963(3) 0.0315(2)
C49 C -0.2371(3) 0.1859(3) 0.10500(19)
C50 C -0.1493(3) 0.1027(3) 0.15385(19)
C51 C -0.0600(3) 0.0142(3) 0.1202(2)
H36 H -0.0575 0.0042 0.0680
C52 C 0.0262(3) -0.0601(3) 0.1643(2)
C53 C 0.0165(3) -0.0457(3) 0.2433(2)
H37 H 0.0722 -0.0945 0.2734
C54 C -0.0750(3) 0.0404(3) 0.27739(19)
C55 C -0.1576(3) 0.1163(3) 0.2322(2)
H38 H -0.2173 0.1751 0.2546
C56 C -0.0826(3) 0.0575(3) 0.3622(2)
Eu1A Eu -0.074110(14) 0.158860(13) 0.509870(9)
Eu2A Eu -0.433090(14) 0.338870(12) 0.027880(9)
Eu2A_2 Eu 0.566910(14) -0.661130(12) 0.027880(9)
O4A O 0.2232(2) -0.07300(19) 0.46399(16)
O8A O 0.4910(2) -0.4945(2) -0.09954(15)
O12A O 0.6498(2) -0.4168(2) -0.02313(16)
O13A O 0.2931(2) -0.27608(19) -0.13242(14)
O14A O 0.2536(2) -0.1642(2) -0.03841(14)
O15A O 0.1514(2) -0.1454(2) 0.61172(14)
loop_
_geom_bond_atom_site_label_1
_geom_bond_atom_site_label_2
_geom_bond_site_symmetry_1
_geom_bond_site_symmetry_2
Eu1 O3 1_555 1_555
Eu2 O7 1_555 1_555
O1 C25 1_555 1_555
O2 H1 1_555 1_555
O3 C32 1_555 1_555
O4 C32 1_555 1_555
O5 Eu1 1_555 1_555
O6 Eu1 1_555 1_555
O7 C40 1_555 1_555
O8 C40 1_555 1_555
O9 C41 1_555 1_555
O10 C41 1_555 1_555
O11 Eu2 1_555 1_555
O12 C48 1_555 1_555
O13 C49 1_555 1_555
O14 C49 1_555 1_555
O15 C56 1_555 1_555
O16 Eu1 1_555 1_555
N1 Eu1 1_555 1_555
N2 Eu1 1_555 1_555
N3 Eu2 1_555 1_555
N4 Eu2 1_555 1_555
N5 H2 1_555 1_555
H3 N5 1_555 1_555
N6 H4 1_555 1_555
H5 N6 1_555 1_555
N7 H6 1_555 1_555
H7 N7 1_555 1_555
H8 N7 1_555 1_555
N8 H9 1_555 1_555
H10 N8 1_555 1_555
C1 N1 1_555 1_555
H11 C1 1_555 1_555
C2 C1 1_555 1_555
H12 C2 1_555 1_555
C3 C2 1_555 1_555
H13 C3 1_555 1_555
C4 C3 1_555 1_555
C5 C4 1_555 1_555
H14 C5 1_555 1_555
C6 C5 1_555 1_555
H15 C6 1_555 1_555
C7 C6 1_555 1_555
C8 C7 1_555 1_555
H16 C8 1_555 1_555
C9 C8 1_555 1_555
H17 C9 1_555 1_555
C10 N2 1_555 1_555
H18 C10 1_555 1_555
C11 N2 1_555 1_555
C12 N1 1_555 1_555
C13 N3 1_555 1_555
H19 C13 1_555 1_555
C14 C13 1_555 1_555
H20 C14 1_555 1_555
C15 C14 1_555 1_555
H21 C15 1_555 1_555
C16 C15 1_555 1_555
C17 C16 1_555 1_555
H22 C17 1_555 1_555
C18 C17 1_555 1_555
H23 C18 1_555 1_555
C19 C18 1_555 1_555
C20 C19 1_555 1_555
H24 C20 1_555 1_555
C21 C20 1_555 1_555
H25 C21 1_555 1_555
C22 N4 1_555 1_555
H26 C22 1_555 1_555
C23 N4 1_555 1_555
C24 N3 1_555 1_555
C25 O2 1_555 1_555
C26 C25 1_555 1_555
C27 C26 1_555 1_555
H27 C27 1_555 1_555
C28 N5 1_555 1_555
C29 C28 1_555 1_555
H28 C29 1_555 1_555
C30 C29 1_555 1_555
C31 C26 1_555 1_555
H29 C31 1_555 1_555
C32 C30 1_555 1_555
C33 O5 1_555 1_555
C34 C33 1_555 1_555
C35 C34 1_555 1_555
H30 C35 1_555 1_555
C36 N6 1_555 1_555
C37 C36 1_555 1_555
H31 C37 1_555 1_555
C38 C37 1_555 1_555
C39 C34 1_555 1_555
H32 C39 1_555 1_555
C40 C38 1_555 1_555
C41 C42 1_555 1_555
C42 C43 1_555 1_555
C43 H33 1_555 1_555
C44 N7 1_555 1_555
C45 C44 1_555 1_555
H34 C45 1_555 1_555
C46 C45 1_555 1_555
C47 C42 1_555 1_555
H35 C47 1_555 1_555
C48 O11 1_555 1_555
C49 C50 1_555 1_555
C50 C51 1_555 1_555
C51 H36 1_555 1_555
C52 N8 1_555 1_555
C53 C52 1_555 1_555
H37 C53 1_555 1_555
C54 C53 1_555 1_555
C55 C50 1_555 1_555
H38 C55 1_555 1_555
C56 O16 1_555 1_555
Eu1A O4 1_555 1_555
Eu2A O13 1_555 1_555
Eu2A_2 O8 1_555 1_555
O4A Eu1 1_555 1_555
O8A Eu2 1_555 1_555
O12A Eu2 1_555 1_555
O13A Eu2 1_555 1_555
O14A Eu2 1_555 1_555
O15A Eu1 1_555 1_555
O6 C33 1_555 1_555
O12 Eu2A_2 1_555 1_555
O14 Eu2A 1_555 1_555
O15 Eu1A 1_555 1_555
C4 C12 1_555 1_555
C7 C11 1_555 1_555
C9 C10 1_555 1_555
C11 C12 1_555 1_555
C16 C24 1_555 1_555
C19 C23 1_555 1_555
C21 C22 1_555 1_555
C23 C24 1_555 1_555
C27 C28 1_555 1_555
C30 C31 1_555 1_555
C35 C36 1_555 1_555
C38 C39 1_555 1_555
C43 C44 1_555 1_555
C46 C47 1_555 1_555
C46 C48 1_555 1_555
C51 C52 1_555 1_555
C54 C55 1_555 1_555
C54 C56 1_555 1_555

#END
