
#######################################################################
#
#                 Cambridge Crystallographic Data Centre
#                                CCDC 
#
#######################################################################
#
# If this CIF has been generated from an entry in the Cambridge 
# Structural Database, then it will include bibliographic, chemical, 
# crystal, experimental, refinement or atomic coordinate data resulting 
# from the CCDC's data processing and validation procedures.
#
#######################################################################

data_ALUNUQ
_symmetry_cell_setting           orthorhombic
_symmetry_space_group_name_H-M   'P b c a'
_symmetry_Int_Tables_number      61
_space_group_name_Hall           '-P 2ac 2ab'
loop_
_symmetry_equiv_pos_site_id
_symmetry_equiv_pos_as_xyz
1 x,y,z
2 1/2+x,y,1/2-z
3 1/2-x,1/2+y,z
4 x,1/2-y,1/2+z
5 -x,-y,-z
6 1/2-x,-y,1/2+z
7 1/2+x,1/2-y,-z
8 -x,1/2+y,1/2-z
_cell_length_a                   12.893(5)
_cell_length_b                   11.621(4)
_cell_length_c                   19.044(7)
_cell_angle_alpha                90
_cell_angle_beta                 90
_cell_angle_gamma                90
_cell_volume                     2853.35
loop_
_atom_site_label
_atom_site_type_symbol
_atom_site_fract_x
_atom_site_fract_y
_atom_site_fract_z
Cu1 Cu 0.21197(2) 0.23077(2) 0.489722(16)
S1 S 0.36994(4) 0.14247(5) 0.47746(3)
S2 S 0.25188(4) -0.07939(4) 0.45791(3)
N1 N 0.08858(16) 0.17541(17) 0.43624(11)
N2 N 0.16832(17) 0.23498(17) 0.58988(12)
C1 C 0.35577(17) -0.00749(19) 0.50263(12)
H1 H 0.4215 -0.0484 0.4926
H2 H 0.3433 -0.0117 0.5539
C2 C 0.29827(19) -0.0649(2) 0.36817(12)
H3 H 0.3664 -0.1036 0.3641
H4 H 0.2494 -0.1047 0.3363
C3 C 0.30949(19) 0.0599(2) 0.34473(12)
H5 H 0.3252 0.0615 0.2939
H6 H 0.2426 0.0999 0.3519
C4 C 0.39383(19) 0.1244(2) 0.38386(12)
H7 H 0.4019 0.2015 0.3623
H8 H 0.4602 0.0828 0.3777
C5 C 0.01482(19) 0.1425(2) 0.41026(12)
C6 C -0.07939(19) 0.0996(2) 0.37728(15)
H9 H -0.0612 0.0536 0.3359
H10 H -0.1229 0.1646 0.3629
H11 H -0.1176 0.0515 0.4108
C7 C 0.14592(19) 0.2401(2) 0.64741(13)
C8 C 0.1170(2) 0.2464(2) 0.72119(14)
H12 H 0.0780 0.3175 0.7297
H13 H 0.1797 0.2461 0.7502
H14 H 0.0738 0.1800 0.7333
S2B S 0.24812(4) 0.42061(4) 0.45791(3)
Cu1B Cu 0.28803(2) -0.26923(2) 0.489722(16)
F1 F 0.29671(12) 0.02435(15) 0.68859(9)
F2 F 0.43955(13) 0.11275(16) 0.64637(9)
F3 F 0.35808(13) 0.18558(15) 0.74139(9)
F4 F 0.44738(15) 0.01914(16) 0.74974(10)
B1 B 0.3848(2) 0.0854(2) 0.70657(15)
loop_
_geom_bond_atom_site_label_1
_geom_bond_atom_site_label_2
_geom_bond_site_symmetry_1
_geom_bond_site_symmetry_2
Cu1 S1 1_555 1_555
S1 C1 1_555 1_555
S2 C1 1_555 1_555
F1 B1 1_555 1_555
F2 B1 1_555 1_555
F3 B1 1_555 1_555
F4 B1 1_555 1_555
N1 Cu1 1_555 1_555
N2 Cu1 1_555 1_555
C1 H1 1_555 1_555
H2 C1 1_555 1_555
C2 S2 1_555 1_555
H3 C2 1_555 1_555
H4 C2 1_555 1_555
C3 C2 1_555 1_555
H5 C3 1_555 1_555
H6 C3 1_555 1_555
C4 S1 1_555 1_555
H7 C4 1_555 1_555
H8 C4 1_555 1_555
C5 N1 1_555 1_555
C6 C5 1_555 1_555
H9 C6 1_555 1_555
H10 C6 1_555 1_555
H11 C6 1_555 1_555
C7 N2 1_555 1_555
C8 C7 1_555 1_555
H12 C8 1_555 1_555
H13 C8 1_555 1_555
H14 C8 1_555 1_555
S2B Cu1 1_555 1_555
Cu1B S2 1_555 1_555
C3 C4 1_555 1_555

#END
