
#######################################################################
#
#                 Cambridge Crystallographic Data Centre
#                                CCDC 
#
#######################################################################
#
# If this CIF has been generated from an entry in the Cambridge 
# Structural Database, then it will include bibliographic, chemical, 
# crystal, experimental, refinement or atomic coordinate data resulting 
# from the CCDC's data processing and validation procedures.
#
#######################################################################

data_ALUNAX
_symmetry_cell_setting           triclinic
_symmetry_space_group_name_H-M   'P -1'
_symmetry_Int_Tables_number      2
_space_group_name_Hall           '-P 1'
loop_
_symmetry_equiv_pos_site_id
_symmetry_equiv_pos_as_xyz
1 x,y,z
2 -x,-y,-z
_cell_length_a                   11.5607(11)
_cell_length_b                   13.3769(13)
_cell_length_c                   17.6537(17)
_cell_angle_alpha                88.2090(10)
_cell_angle_beta                 85.8200(10)
_cell_angle_gamma                70.1180(10)
_cell_volume                     2560.46
loop_
_atom_site_label
_atom_site_type_symbol
_atom_site_fract_x
_atom_site_fract_y
_atom_site_fract_z
Pr1 Pr 0.426367(13) 0.159178(11) 0.509835(8)
Pr2 Pr 0.067489(12) 0.339873(11) 1.025433(8)
O1 O 0.27302(17) 0.07382(15) 0.53636(12)
O2 O 0.35368(18) -0.10172(16) 0.52023(13)
O3 O -0.2237(2) 0.1009(2) 0.72876(16)
O4 O -0.0951(2) 0.1933(2) 0.71661(16)
O5 O 0.31220(19) 0.23440(16) 0.63056(11)
O6 O 0.22250(17) 0.31351(15) 0.52787(10)
O7 O 0.0948(2) 0.32343(16) 0.88560(11)
O8 O -0.01239(18) 0.49356(16) 0.90413(11)
O9 O 0.25274(18) 0.16186(15) 0.03638(10)
O10 O 0.21241(17) 0.27607(14) 0.13070(10)
O11 O 0.33851(18) 0.14753(15) 0.38648(10)
O12 O 0.48438(18) -0.00631(16) 0.40470(11)
O13 O -0.15366(17) 0.41785(16) 1.02864(12)
O14 O -0.23378(17) 0.59453(15) 1.01631(12)
O15 O -0.6386(2) 0.7660(2) 1.16589(16)
O16 O -0.7691(2) 0.6747(2) 1.17996(14)
N1 N 0.4899(2) 0.29337(19) 0.40769(14)
N2 N 0.5238(2) 0.2984(2) 0.55922(15)
N3 N -0.0307(3) -0.2104(2) 0.54944(18)
H1 H -0.1105 -0.1888 0.5411
H2 H 0.0137 -0.2385 0.5072
H3 H -0.0153 -0.2592 0.5863
N4 N -0.1679(2) 0.6030(2) 0.63543(15)
H4 H -0.2261 0.6443 0.6648
H5 H -0.1702 0.6105 0.5869
N5 N 0.6208(2) -0.1473(2) 0.13218(15)
H6 H 0.6269 -0.1553 0.0837
H7 H 0.6719 -0.1926 0.1600
N6 N -0.0310(2) 0.2465(2) 1.13450(14)
N7 N -0.0247(2) 0.18854(18) 0.98667(14)
N8 N -0.5268(3) 0.3067(2) 1.08616(18)
H8 H -0.5138 0.2737 1.1309
H9 H -0.4765 0.2656 1.0503
H10 H -0.6046 0.3197 1.0755
C1 C 0.4739(3) 0.2935(3) 0.33375(18)
H11 H 0.4226 0.2586 0.3183
C2 C 0.5279(4) 0.3418(3) 0.2780(2)
H12 H 0.5137 0.3383 0.2271
C3 C 0.6020(4) 0.3943(3) 0.2994(3)
H13 H 0.6379 0.4286 0.2632
C4 C 0.6245(3) 0.3967(3) 0.3763(3)
C5 C 0.7017(4) 0.4494(3) 0.4028(3)
H14 H 0.7410 0.4828 0.3679
C6 C 0.7194(4) 0.4524(3) 0.4762(4)
H15 H 0.7711 0.4871 0.4915
C7 C 0.6597(3) 0.4028(3) 0.5322(3)
C8 C 0.6711(4) 0.4083(3) 0.6093(3)
H16 H 0.7209 0.4432 0.6269
C9 C 0.6088(5) 0.3622(4) 0.6594(3)
H17 H 0.6135 0.3680 0.7114
C10 C 0.5370(4) 0.3054(3) 0.6323(2)
H18 H 0.4978 0.2720 0.6672
C11 C 0.5828(3) 0.3482(2) 0.5093(2)
C12 C 0.5648(3) 0.3451(2) 0.4298(2)
C13 C -0.1274(3) 0.1152(3) 0.69939(19)
C14 C -0.0453(3) 0.0366(2) 0.64382(17)
C15 C -0.0782(3) -0.0481(2) 0.62056(18)
H19 H -0.1534 -0.0540 0.6383
C16 C 0.0006(3) -0.1240(2) 0.57099(18)
C17 C 0.1141(3) -0.1149(2) 0.54676(17)
H20 H 0.1693 -0.1669 0.5156
C18 C 0.1460(2) -0.0291(2) 0.56862(16)
C19 C 0.0660(3) 0.0479(2) 0.61701(16)
H21 H 0.0864 0.1059 0.6312
C20 C 0.2672(2) -0.0177(2) 0.53946(16)
C21 C 0.2231(3) 0.3028(2) 0.59943(15)
C22 C 0.1189(2) 0.3740(2) 0.65018(14)
C23 C 0.0231(2) 0.4544(2) 0.61913(15)
H22 H 0.0208 0.4619 0.5667
C24 C -0.0700(2) 0.5241(2) 0.66645(16)
C25 C -0.0650(2) 0.5111(2) 0.74526(15)
H23 H -0.1262 0.5570 0.7773
C26 C 0.0310(2) 0.4297(2) 0.77592(15)
C27 C 0.1222(3) 0.3601(2) 0.72831(15)
H24 H 0.1851 0.3046 0.7488
C28 C 0.0384(2) 0.4148(2) 0.86038(15)
C29 C 0.2679(2) 0.1849(2) 0.10344(15)
C30 C 0.3535(2) 0.1017(2) 0.15242(15)
C31 C 0.3430(2) 0.1155(2) 0.23086(15)
H25 H 0.2821 0.1743 0.2526
C32 C 0.4236(2) 0.0412(2) 0.27681(14)
C33 C 0.5164(2) -0.0465(2) 0.24442(15)
H26 H 0.5705 -0.0954 0.2753
C34 C 0.5284(3) -0.0614(2) 0.16533(16)
C35 C 0.4444(3) 0.0130(2) 0.12031(15)
H27 H 0.4496 0.0029 0.0681
C36 C 0.4132(2) 0.0607(2) 0.36094(15)
C37 C -0.2412(2) 0.5056(2) 1.03563(15)
C38 C -0.3641(2) 0.5025(2) 1.06830(15)
C39 C -0.4543(3) 0.5935(2) 1.09731(16)
H28 H -0.4384 0.6569 1.0999
C40 C -0.5698(3) 0.5882(2) 1.12267(17)
C41 C -0.5944(3) 0.4935(3) 1.11757(17)
H29 H -0.6719 0.4913 1.1335
C42 C -0.5039(3) 0.4028(2) 1.08894(18)
C43 C -0.3883(3) 0.4076(2) 1.06557(16)
H30 H -0.3262 0.3465 1.0479
C44 C -0.6659(3) 0.6823(3) 1.15723(19)
C45 C -0.0148(3) 0.1517(2) 0.91656(19)
H31 H 0.0355 0.1718 0.8801
C46 C -0.0762(4) 0.0843(3) 0.8949(2)
H32 H -0.0639 0.0583 0.8457
C47 C -0.1541(4) 0.0572(3) 0.9466(3)
H33 H -0.1982 0.0149 0.9324
C48 C -0.1672(3) 0.0936(3) 1.0213(2)
C49 C -0.2435(4) 0.0646(3) 1.0797(3)
H34 H -0.2912 0.0247 1.0670
C50 C -0.2473(4) 0.0936(3) 1.1513(3)
H35 H -0.2979 0.0738 1.1876
C51 C -0.1749(3) 0.1549(3) 1.1738(2)
C52 C -0.1700(4) 0.1825(3) 1.2495(2)
H36 H -0.2151 0.1606 1.2883
C53 C -0.0998(4) 0.2409(3) 1.2658(2)
H37 H -0.0972 0.2603 1.3156
C54 C -0.0314(3) 0.2714(3) 1.20677(18)
H38 H 0.0166 0.3114 1.2188
C55 C -0.1021(3) 0.1884(2) 1.11753(19)
C56 C -0.0989(3) 0.1578(2) 1.0396(2)
Pr1A Pr 0.573633(13) -0.159178(11) 0.490165(8)
Pr2A Pr -0.067489(12) 0.660127(11) 0.974567(8)
Pr2_2 Pr 0.067489(12) 0.339873(11) 0.025433(8)
O2A O 0.64632(18) 0.10172(16) 0.47977(13)
O8A O 0.01239(18) 0.50644(16) 1.09587(11)
O9_2 O 0.25274(18) 0.16186(15) 1.03638(10)
O10_2 O 0.21241(17) 0.27607(14) 1.13070(10)
O12A O 0.51562(18) 0.00631(16) 0.59530(11)
O14A O 0.23378(17) 0.40547(15) 0.98369(12)
loop_
_geom_bond_atom_site_label_1
_geom_bond_atom_site_label_2
_geom_bond_site_symmetry_1
_geom_bond_site_symmetry_2
Pr1 O1 1_555 1_555
Pr2 O7 1_555 1_555
O1 C20 1_555 1_555
O2 C20 1_555 1_555
O3 C13 1_555 1_555
O4 C13 1_555 1_555
O5 Pr1 1_555 1_555
O6 Pr1 1_555 1_555
O7 C28 1_555 1_555
O8 C28 1_555 1_555
O9 C29 1_555 1_555
O10 C29 1_555 1_555
O11 Pr1 1_555 1_555
O12 C36 1_555 1_555
O13 Pr2 1_555 1_555
O14 C37 1_555 1_555
O15 C44 1_555 1_555
O16 C44 1_555 1_555
N1 Pr1 1_555 1_555
N2 Pr1 1_555 1_555
N3 H1 1_555 1_555
H2 N3 1_555 1_555
H3 N3 1_555 1_555
N4 H4 1_555 1_555
H5 N4 1_555 1_555
N5 H6 1_555 1_555
H7 N5 1_555 1_555
N6 Pr2 1_555 1_555
N7 Pr2 1_555 1_555
N8 H8 1_555 1_555
H9 N8 1_555 1_555
H10 N8 1_555 1_555
C1 N1 1_555 1_555
H11 C1 1_555 1_555
C2 C1 1_555 1_555
H12 C2 1_555 1_555
C3 C2 1_555 1_555
H13 C3 1_555 1_555
C4 C3 1_555 1_555
C5 C4 1_555 1_555
H14 C5 1_555 1_555
C6 C5 1_555 1_555
H15 C6 1_555 1_555
C7 C6 1_555 1_555
C8 C7 1_555 1_555
H16 C8 1_555 1_555
C9 C8 1_555 1_555
H17 C9 1_555 1_555
C10 N2 1_555 1_555
H18 C10 1_555 1_555
C11 N2 1_555 1_555
C12 N1 1_555 1_555
C13 C14 1_555 1_555
C14 C15 1_555 1_555
C15 H19 1_555 1_555
C16 N3 1_555 1_555
C17 C16 1_555 1_555
H20 C17 1_555 1_555
C18 C17 1_555 1_555
C19 C14 1_555 1_555
H21 C19 1_555 1_555
C20 C18 1_555 1_555
C21 O5 1_555 1_555
C22 C21 1_555 1_555
C23 C22 1_555 1_555
H22 C23 1_555 1_555
C24 N4 1_555 1_555
C25 C24 1_555 1_555
H23 C25 1_555 1_555
C26 C25 1_555 1_555
C27 C22 1_555 1_555
H24 C27 1_555 1_555
C28 C26 1_555 1_555
C29 C30 1_555 1_555
C30 C31 1_555 1_555
C31 H25 1_555 1_555
C32 C31 1_555 1_555
C33 C32 1_555 1_555
H26 C33 1_555 1_555
C34 N5 1_555 1_555
C35 C30 1_555 1_555
H27 C35 1_555 1_555
C36 O11 1_555 1_555
C37 O13 1_555 1_555
C38 C37 1_555 1_555
C39 C38 1_555 1_555
H28 C39 1_555 1_555
C40 C39 1_555 1_555
C41 C40 1_555 1_555
H29 C41 1_555 1_555
C42 N8 1_555 1_555
C43 C38 1_555 1_555
H30 C43 1_555 1_555
C44 C40 1_555 1_555
C45 N7 1_555 1_555
H31 C45 1_555 1_555
C46 C45 1_555 1_555
H32 C46 1_555 1_555
C47 C46 1_555 1_555
H33 C47 1_555 1_555
C48 C47 1_555 1_555
C49 C48 1_555 1_555
H34 C49 1_555 1_555
C50 C49 1_555 1_555
H35 C50 1_555 1_555
C51 C50 1_555 1_555
C52 C51 1_555 1_555
H36 C52 1_555 1_555
C53 C52 1_555 1_555
H37 C53 1_555 1_555
C54 N6 1_555 1_555
H38 C54 1_555 1_555
C55 N6 1_555 1_555
C56 N7 1_555 1_555
Pr1A O2 1_555 1_555
Pr2A O8 1_555 1_555
Pr2_2 O9 1_555 1_555
O2A Pr1 1_555 1_555
O8A Pr2 1_555 1_555
O9_2 Pr2 1_555 1_555
O10_2 Pr2 1_555 1_555
O12A Pr1 1_555 1_555
O14A Pr2 1_555 1_555
O6 C21 1_555 1_555
O10 Pr2_2 1_555 1_555
O12 Pr1A 1_555 1_555
O14 Pr2A 1_555 1_555
C4 C12 1_555 1_555
C7 C11 1_555 1_555
C9 C10 1_555 1_555
C11 C12 1_555 1_555
C15 C16 1_555 1_555
C18 C19 1_555 1_555
C23 C24 1_555 1_555
C26 C27 1_555 1_555
C32 C36 1_555 1_555
C33 C34 1_555 1_555
C34 C35 1_555 1_555
C41 C42 1_555 1_555
C42 C43 1_555 1_555
C48 C56 1_555 1_555
C51 C55 1_555 1_555
C53 C54 1_555 1_555
C55 C56 1_555 1_555

#END
