
#######################################################################
#
#                 Cambridge Crystallographic Data Centre
#                                CCDC 
#
#######################################################################
#
# If this CIF has been generated from an entry in the Cambridge 
# Structural Database, then it will include bibliographic, chemical, 
# crystal, experimental, refinement or atomic coordinate data resulting 
# from the CCDC's data processing and validation procedures.
#
#######################################################################

data_ALUPUS
_symmetry_cell_setting           triclinic
_symmetry_space_group_name_H-M   'P -1'
_symmetry_Int_Tables_number      2
_space_group_name_Hall           '-P 1'
loop_
_symmetry_equiv_pos_site_id
_symmetry_equiv_pos_as_xyz
1 x,y,z
2 -x,-y,-z
_cell_length_a                   7.942(3)
_cell_length_b                   9.106(3)
_cell_length_c                   10.593(3)
_cell_angle_alpha                109.296(4)
_cell_angle_beta                 99.716(4)
_cell_angle_gamma                101.034(4)
_cell_volume                     687.065
loop_
_atom_site_label
_atom_site_type_symbol
_atom_site_fract_x
_atom_site_fract_y
_atom_site_fract_z
Zn1 Zn -0.33340(6) -0.01928(5) -0.34930(4)
O1 O -0.2377(4) 0.1568(3) -0.4144(3)
O2 O -0.4042(4) 0.1150(4) -0.6221(3)
O3 O -0.2792(4) -0.1682(4) -0.2332(3)
O4 O -0.0493(4) -0.0079(4) -0.2475(3)
N1 N -0.3479(4) 0.1740(4) -0.1668(3)
N2 N -0.3271(4) 0.7938(4) 0.4616(3)
C1 C -0.2432(5) 0.3240(5) -0.1243(4)
H1 H -0.1674 0.3465 -0.1799
C2 C -0.2385(6) 0.4474(5) -0.0052(4)
H2 H -0.1622 0.5517 0.0188
C3 C -0.3453(5) 0.4200(5) 0.0805(4)
C4 C -0.3381(5) 0.5486(5) 0.2120(4)
C5 C -0.2293(5) 0.7042(5) 0.2543(4)
H3 H -0.1566 0.7301 0.1980
C6 C -0.2266(5) 0.8205(5) 0.3773(4)
H4 H -0.1496 0.9252 0.4040
C7 C -0.4319(6) 0.6437(5) 0.4215(4)
H5 H -0.5029 0.6216 0.4801
C8 C -0.4426(6) 0.5196(5) 0.2999(4)
H6 H -0.5198 0.4157 0.2762
C9 C -0.4551(6) 0.2638(5) 0.0372(4)
H7 H -0.5309 0.2376 0.0915
C10 C -0.4526(6) 0.1474(5) -0.0857(4)
H8 H -0.5299 0.0425 -0.1139
C11 C -0.2700(5) 0.1860(5) -0.5234(4)
C12 C -0.1329(6) 0.3163(6) -0.5331(5)
H9 H -0.0361 0.2729 -0.5626
H10 H -0.0862 0.4045 -0.4425
H11 H -0.1862 0.3571 -0.6005
C13 C -0.1147(6) -0.1153(5) -0.2081(4)
C14 C -0.0009(8) -0.1860(8) -0.1307(6)
H12 H -0.0366 -0.1804 -0.0455
H13 H 0.1233 -0.1250 -0.1078
H14 H -0.0146 -0.2989 -0.1880
O2A O -0.5958(4) -0.1150(4) -0.3779(3)
N2_2 N -0.3271(4) -0.2062(4) -0.5384(3)
Zn1A Zn -0.66660(6) 0.01928(5) -0.65070(4)
Zn1_2 Zn -0.33340(6) 0.98072(5) 0.65070(4)
loop_
_geom_bond_atom_site_label_1
_geom_bond_atom_site_label_2
_geom_bond_site_symmetry_1
_geom_bond_site_symmetry_2
Zn1 O1 1_555 1_555
O1 C11 1_555 1_555
O2 C11 1_555 1_555
O3 Zn1 1_555 1_555
O4 Zn1 1_555 1_555
N1 Zn1 1_555 1_555
N2 C6 1_555 1_555
C1 N1 1_555 1_555
H1 C1 1_555 1_555
C2 C1 1_555 1_555
H2 C2 1_555 1_555
C3 C2 1_555 1_555
C4 C3 1_555 1_555
C5 C4 1_555 1_555
H3 C5 1_555 1_555
C6 C5 1_555 1_555
H4 C6 1_555 1_555
C7 N2 1_555 1_555
H5 C7 1_555 1_555
C8 C4 1_555 1_555
H6 C8 1_555 1_555
C9 C3 1_555 1_555
H7 C9 1_555 1_555
C10 N1 1_555 1_555
H8 C10 1_555 1_555
C11 C12 1_555 1_555
C12 H9 1_555 1_555
H10 C12 1_555 1_555
H11 C12 1_555 1_555
C13 O3 1_555 1_555
C14 C13 1_555 1_555
H12 C14 1_555 1_555
H13 C14 1_555 1_555
H14 C14 1_555 1_555
O2A Zn1 1_555 1_555
N2_2 Zn1 1_555 1_555
Zn1A O2 1_555 1_555
Zn1_2 N2 1_555 1_555
O4 C13 1_555 1_555
C7 C8 1_555 1_555
C9 C10 1_555 1_555

#END
