
#######################################################################
#
#                 Cambridge Crystallographic Data Centre
#                                CCDC 
#
#######################################################################
#
# If this CIF has been generated from an entry in the Cambridge 
# Structural Database, then it will include bibliographic, chemical, 
# crystal, experimental, refinement or atomic coordinate data resulting 
# from the CCDC's data processing and validation procedures.
#
#######################################################################

data_ALUPUS01
_symmetry_cell_setting           triclinic
_symmetry_space_group_name_H-M   'P -1'
_symmetry_Int_Tables_number      2
_space_group_name_Hall           '-P 1'
loop_
_symmetry_equiv_pos_site_id
_symmetry_equiv_pos_as_xyz
1 x,y,z
2 -x,-y,-z
_cell_length_a                   8.0878(7)
_cell_length_b                   9.1895(8)
_cell_length_c                   10.6763(9)
_cell_angle_alpha                109.697(8)
_cell_angle_beta                 100.032(7)
_cell_angle_gamma                101.783(8)
_cell_volume                     705.44
loop_
_atom_site_label
_atom_site_type_symbol
_atom_site_fract_x
_atom_site_fract_y
_atom_site_fract_z
Zn1 Zn 0.16575(3) 0.97862(2) 0.64840(2)
O1 O -0.0928(2) 0.8773(2) 0.61753(16)
O2 O 0.4457(3) 0.9911(2) 0.7510(2)
O3 O 0.2228(2) 0.8326(2) 0.76411(19)
O4 O -0.2591(2) 0.84539(18) 0.41458(15)
N1 N 0.1726(2) 0.79246(19) 0.45819(16)
N2 N 0.1524(2) 0.17206(19) -0.16724(16)
C1 C 0.0709(3) 0.6409(2) 0.4180(2)
H1 H 0.0025 0.6184 0.4744
C2 C 0.0621(3) 0.5166(2) 0.2975(2)
H2 H -0.0103 0.4137 0.2746
C3 C 0.1625(2) 0.5463(2) 0.21065(18)
C4 C 0.2691(3) 0.7030(2) 0.2530(2)
H3 H 0.3393 0.7289 0.1989
C5 C 0.2705(3) 0.8202(2) 0.3758(2)
H4 H 0.3435 0.9237 0.4022
C6 C 0.2557(3) 0.3221(3) -0.1248(2)
H5 H 0.3275 0.3448 -0.1790
C7 C 0.2617(3) 0.4454(2) -0.0046(2)
H6 H 0.3363 0.5478 0.0201
C8 C 0.1567(2) 0.4170(2) 0.07944(18)
C9 C 0.0474(3) 0.2613(2) 0.0341(2)
H7 H -0.0266 0.2353 0.0858
C10 C 0.0490(3) 0.1448(2) -0.0881(2)
H8 H -0.0263 0.0418 -0.1165
C11 C -0.2270(3) 0.8118(2) 0.5184(2)
C12 C -0.3651(4) 0.6802(4) 0.5251(3)
H9 H -0.3275 0.6642 0.6086
H10 H -0.4723 0.7100 0.5237
H11 H -0.3839 0.5822 0.4471
C13 C 0.3858(3) 0.8838(3) 0.7892(2)
C14 C 0.5000(6) 0.8148(6) 0.8638(4)
H12 H 0.4286 0.7333 0.8844
H13 H 0.5747 0.8987 0.9481
H14 H 0.5705 0.7680 0.8070
Zn1A Zn -0.16575(3) 1.02138(2) 0.35160(2)
Zn1_2 Zn 0.16575(3) -0.02138(2) -0.35160(2)
O4A O 0.2591(2) 1.15461(18) 0.58542(15)
N2_2 N 0.1524(2) 1.17206(19) 0.83276(16)
loop_
_geom_bond_atom_site_label_1
_geom_bond_atom_site_label_2
_geom_bond_site_symmetry_1
_geom_bond_site_symmetry_2
Zn1 O1 1_555 1_555
O1 C11 1_555 1_555
O2 Zn1 1_555 1_555
O3 Zn1 1_555 1_555
O4 C11 1_555 1_555
N1 Zn1 1_555 1_555
N2 C6 1_555 1_555
C1 N1 1_555 1_555
H1 C1 1_555 1_555
C2 C1 1_555 1_555
H2 C2 1_555 1_555
C3 C2 1_555 1_555
C4 C3 1_555 1_555
H3 C4 1_555 1_555
C5 N1 1_555 1_555
H4 C5 1_555 1_555
C6 H5 1_555 1_555
C7 C6 1_555 1_555
H6 C7 1_555 1_555
C8 C3 1_555 1_555
C9 C8 1_555 1_555
H7 C9 1_555 1_555
C10 N2 1_555 1_555
H8 C10 1_555 1_555
C11 C12 1_555 1_555
C12 H9 1_555 1_555
H10 C12 1_555 1_555
H11 C12 1_555 1_555
C13 O2 1_555 1_555
C14 C13 1_555 1_555
H12 C14 1_555 1_555
H13 C14 1_555 1_555
H14 C14 1_555 1_555
Zn1A O4 1_555 1_555
Zn1_2 N2 1_555 1_555
O4A Zn1 1_555 1_555
N2_2 Zn1 1_555 1_555
O3 C13 1_555 1_555
C4 C5 1_555 1_555
C7 C8 1_555 1_555
C9 C10 1_555 1_555

#END
