
#######################################################################
#
#                 Cambridge Crystallographic Data Centre
#                                CCDC 
#
#######################################################################
#
# If this CIF has been generated from an entry in the Cambridge 
# Structural Database, then it will include bibliographic, chemical, 
# crystal, experimental, refinement or atomic coordinate data resulting 
# from the CCDC's data processing and validation procedures.
#
#######################################################################

data_ALUPEC
_symmetry_cell_setting           orthorhombic
_symmetry_space_group_name_H-M   'P 21 21 21'
_symmetry_Int_Tables_number      19
_space_group_name_Hall           'P 2ac 2ab'
loop_
_symmetry_equiv_pos_site_id
_symmetry_equiv_pos_as_xyz
1 x,y,z
2 1/2-x,-y,1/2+z
3 1/2+x,1/2-y,-z
4 -x,1/2+y,1/2-z
_cell_length_a                   6.6496(8)
_cell_length_b                   14.8560(17)
_cell_length_c                   17.325(2)
_cell_angle_alpha                90
_cell_angle_beta                 90
_cell_angle_gamma                90
_cell_volume                     1711.48
loop_
_atom_site_label
_atom_site_type_symbol
_atom_site_fract_x
_atom_site_fract_y
_atom_site_fract_z
Cu1 Cu 0.78603(8) 0.98779(3) 0.57455(3)
S1 S 0.74156(16) 0.83606(6) 0.58003(6)
N1 N 0.8039(6) 1.0118(3) 0.4595(2)
C1 C 0.7898(7) 1.0089(3) 0.3946(3)
S2 S 0.9320(2) 0.65447(8) 0.58407(8)
C2 C 0.7746(9) 1.0038(3) 0.3102(3)
H1 H 0.9008 1.0246 0.2870
H2 H 0.6637 1.0421 0.2926
H3 H 0.7491 0.9414 0.2947
S3 S 1.06075(15) 1.05942(7) 0.62665(6)
C3 C 0.9759(7) 0.7745(3) 0.5856(3)
H4 H 1.0627 0.7913 0.5415
H5 H 1.0472 0.7909 0.6338
S4 S 1.50840(14) 1.05991(6) 0.62469(6)
C4 C 0.7852(9) 0.6444(3) 0.6723(3)
H6 H 0.7499 0.5803 0.6800
H7 H 0.8702 0.6631 0.7164
C5 C 0.5963(9) 0.6987(3) 0.6734(3)
H8 H 0.5183 0.6836 0.7203
H9 H 0.5135 0.6826 0.6279
C6 C 0.6373(7) 0.8009(3) 0.6722(3)
H10 H 0.7328 0.8163 0.7140
H11 H 0.5103 0.8338 0.6819
C7 C 1.2829(6) 0.9995(2) 0.5957(2)
H12 H 1.2810 0.9929 0.5388
H13 H 1.2837 0.9386 0.6188
C8 C 1.4743(6) 1.1609(3) 0.5664(3)
H14 H 1.5907 1.2015 0.5741
H15 H 1.4703 1.1440 0.5112
C9 C 1.2813(6) 1.2110(2) 0.5871(2)
H16 H 1.2820 1.2243 0.6431
H17 H 1.2790 1.2692 0.5592
C10 C 1.0919(6) 1.1592(3) 0.5677(3)
H18 H 1.0962 1.1413 0.5127
H19 H 0.9740 1.1990 0.5750
S4_2 S 0.50840(14) 1.05991(6) 0.62469(6)
Cu1_2 Cu 1.78603(8) 0.98779(3) 0.57455(3)
F1 F 0.0729(9) 0.8610(4) 0.8678(3)
B1 B 0.2043(10) 0.8409(4) 0.8112(3)
F2 F 0.3950(7) 0.8434(4) 0.8360(4)
F3 F 0.1835(9) 0.7520(3) 0.7908(3)
F4 F 0.1869(8) 0.8972(3) 0.7496(2)
loop_
_geom_bond_atom_site_label_1
_geom_bond_atom_site_label_2
_geom_bond_site_symmetry_1
_geom_bond_site_symmetry_2
Cu1 S1 1_555 1_555
S1 C3 1_555 1_555
F1 B1 1_555 1_555
N1 Cu1 1_555 1_555
C1 N1 1_555 1_555
B1 F2 1_555 1_555
S2 C3 1_555 1_555
C2 C1 1_555 1_555
H1 C2 1_555 1_555
H2 C2 1_555 1_555
H3 C2 1_555 1_555
S3 Cu1 1_555 1_555
F3 B1 1_555 1_555
C3 H4 1_555 1_555
H5 C3 1_555 1_555
S4 C7 1_555 1_555
F4 B1 1_555 1_555
C4 S2 1_555 1_555
H6 C4 1_555 1_555
H7 C4 1_555 1_555
C5 C4 1_555 1_555
H8 C5 1_555 1_555
H9 C5 1_555 1_555
C6 S1 1_555 1_555
H10 C6 1_555 1_555
H11 C6 1_555 1_555
C7 S3 1_555 1_555
H12 C7 1_555 1_555
H13 C7 1_555 1_555
C8 S4 1_555 1_555
H14 C8 1_555 1_555
H15 C8 1_555 1_555
C9 C8 1_555 1_555
H16 C9 1_555 1_555
H17 C9 1_555 1_555
C10 S3 1_555 1_555
H18 C10 1_555 1_555
H19 C10 1_555 1_555
S4_2 Cu1 1_555 1_555
Cu1_2 S4 1_555 1_555
C5 C6 1_555 1_555
C9 C10 1_555 1_555

#END
