
#######################################################################
#
#                 Cambridge Crystallographic Data Centre
#                                CCDC 
#
#######################################################################
#
# If this CIF has been generated from an entry in the Cambridge 
# Structural Database, then it will include bibliographic, chemical, 
# crystal, experimental, refinement or atomic coordinate data resulting 
# from the CCDC's data processing and validation procedures.
#
#######################################################################

data_ALUTOR
_symmetry_cell_setting           monoclinic
_symmetry_space_group_name_H-M   'C 2/c'
_symmetry_Int_Tables_number      15
_space_group_name_Hall           '-C 2yn'
loop_
_symmetry_equiv_pos_site_id
_symmetry_equiv_pos_as_xyz
1 x,y,z
2 -x,y,1/2-z
3 1/2+x,1/2+y,z
4 1/2-x,1/2+y,1/2-z
5 -x,-y,-z
6 x,-y,1/2+z
7 1/2-x,1/2-y,-z
8 1/2+x,1/2-y,1/2+z
_cell_length_a                   27.153(4)
_cell_length_b                   10.4726(19)
_cell_length_c                   16.681(3)
_cell_angle_alpha                90
_cell_angle_beta                 103.026(5)
_cell_angle_gamma                90
_cell_volume                     4621.39
loop_
_atom_site_label
_atom_site_type_symbol
_atom_site_fract_x
_atom_site_fract_y
_atom_site_fract_z
Mn1 Mn -0.484130(14) -0.14257(3) 0.40058(2)
S1 S -0.35269(3) 0.09793(6) 0.31803(4)
S2 S -0.36529(3) 0.22978(6) 0.15919(4)
S3 S -0.27349(3) 0.32163(6) 0.40318(4)
S4 S -0.29393(3) 0.46149(6) 0.24683(4)
S5 S -0.24936(3) 0.55504(8) 0.50817(4)
S6 S -0.27403(3) 0.71947(7) 0.33017(5)
O1 O -0.42683(6) -0.07475(17) 0.34112(10)
O2 O -0.45565(7) -0.13645(15) 0.21060(10)
O3 O -0.43663(7) 0.14346(16) 0.02488(10)
O4 O -0.49151(7) 0.04910(15) 0.08835(10)
N1 N -0.54428(8) -0.25893(19) 0.44394(12)
N2 N -0.47030(9) -0.3511(2) 0.37750(13)
C1 C -0.40420(9) 0.0504(2) 0.23893(14)
C2 C -0.41038(9) 0.1125(2) 0.16657(14)
C3 C -0.33672(9) 0.2297(2) 0.26409(14)
C4 C -0.30554(10) 0.3227(2) 0.29922(15)
C5 C -0.27010(10) 0.4896(2) 0.40924(15)
C6 C -0.28042(10) 0.5546(2) 0.33784(15)
C7 C -0.18606(11) 0.6055(3) 0.50544(18)
H1 H -0.1687 0.5365 0.4845
H2 H -0.1677 0.6277 0.5606
H3 H -0.1878 0.6793 0.4698
C8 C -0.32042(12) 0.7587(3) 0.2382(2)
H4 H -0.3101 0.7235 0.1907
H5 H -0.3233 0.8508 0.2327
H6 H -0.3529 0.7230 0.2415
C9 C -0.43215(9) -0.0624(2) 0.26412(15)
C10 C -0.44978(10) 0.0980(2) 0.08726(14)
C11 C -0.58164(10) -0.2070(3) 0.47346(16)
H7 H -0.5790 -0.1205 0.4888
C12 C -0.62362(12) -0.2738(3) 0.48240(18)
H8 H -0.6493 -0.2339 0.5028
C13 C -0.62692(13) -0.4005(3) 0.46063(19)
H9 H -0.6552 -0.4489 0.4659
C14 C -0.58890(12) -0.4563(3) 0.43117(19)
H10 H -0.5909 -0.5431 0.4164
C15 C -0.54738(10) -0.3839(2) 0.42318(15)
C16 C -0.43128(12) -0.3933(3) 0.34840(18)
H11 H -0.4073 -0.3338 0.3390
C17 C -0.42454(14) -0.5207(3) 0.3315(2)
H12 H -0.3969 -0.5473 0.3105
C18 C -0.45955(14) -0.6074(3) 0.34636(19)
H13 H -0.4559 -0.6947 0.3361
C19 C -0.49951(13) -0.5661(3) 0.37598(18)
H14 H -0.5235 -0.6248 0.3863
C20 C -0.50476(11) -0.4363(2) 0.39100(15)
Mn1A Mn -0.515870(14) -0.14257(3) 0.09942(2)
Mn1E Mn -0.484130(14) 0.14257(3) -0.09942(2)
O2A O -0.54435(7) -0.13645(15) 0.28940(10)
O3E O -0.43663(7) -0.14346(16) 0.52488(10)
O4A O -0.50849(7) 0.04910(15) 0.41165(10)
loop_
_geom_bond_atom_site_label_1
_geom_bond_atom_site_label_2
_geom_bond_site_symmetry_1
_geom_bond_site_symmetry_2
Mn1 O1 1_555 1_555
S1 C1 1_555 1_555
S2 C2 1_555 1_555
S3 C4 1_555 1_555
S4 C4 1_555 1_555
S5 C5 1_555 1_555
S6 C6 1_555 1_555
O1 C9 1_555 1_555
O2 C9 1_555 1_555
O3 C10 1_555 1_555
O4 C10 1_555 1_555
N1 Mn1 1_555 1_555
N2 Mn1 1_555 1_555
C1 C2 1_555 1_555
C2 C10 1_555 1_555
C3 S1 1_555 1_555
C4 C3 1_555 1_555
C5 S3 1_555 1_555
C6 S4 1_555 1_555
C7 S5 1_555 1_555
H1 C7 1_555 1_555
H2 C7 1_555 1_555
H3 C7 1_555 1_555
C8 S6 1_555 1_555
H4 C8 1_555 1_555
H5 C8 1_555 1_555
H6 C8 1_555 1_555
C9 C1 1_555 1_555
C11 N1 1_555 1_555
H7 C11 1_555 1_555
C12 C11 1_555 1_555
H8 C12 1_555 1_555
C13 C12 1_555 1_555
H9 C13 1_555 1_555
C14 C13 1_555 1_555
H10 C14 1_555 1_555
C15 N1 1_555 1_555
C16 N2 1_555 1_555
H11 C16 1_555 1_555
C17 C16 1_555 1_555
H12 C17 1_555 1_555
C18 C17 1_555 1_555
H13 C18 1_555 1_555
C19 C18 1_555 1_555
H14 C19 1_555 1_555
C20 N2 1_555 1_555
Mn1A O2 1_555 1_555
Mn1E O3 1_555 1_555
O2A Mn1 1_555 1_555
O3E Mn1 1_555 1_555
O4A Mn1 1_555 1_555
S2 C3 1_555 1_555
O4 Mn1A 1_555 1_555
C5 C6 1_555 1_555
C14 C15 1_555 1_555
C15 C20 1_555 1_555
C19 C20 1_555 1_555

#END
