
#######################################################################
#
#                 Cambridge Crystallographic Data Centre
#                                CCDC 
#
#######################################################################
#
# If this CIF has been generated from an entry in the Cambridge 
# Structural Database, then it will include bibliographic, chemical, 
# crystal, experimental, refinement or atomic coordinate data resulting 
# from the CCDC's data processing and validation procedures.
#
#######################################################################

data_AMAGOL
_symmetry_cell_setting           orthorhombic
_symmetry_space_group_name_H-M   'F d d 2'
_symmetry_Int_Tables_number      43
_space_group_name_Hall           'F 2 -2d'
loop_
_symmetry_equiv_pos_site_id
_symmetry_equiv_pos_as_xyz
1 x,y,z
2 -x,-y,z
3 1/4-x,1/4+y,1/4+z
4 1/4+x,1/4-y,1/4+z
5 x,1/2+y,1/2+z
6 -x,1/2-y,1/2+z
7 1/4-x,3/4+y,3/4+z
8 1/4+x,3/4-y,3/4+z
9 1/2+x,y,1/2+z
10 1/2-x,-y,1/2+z
11 3/4-x,1/4+y,3/4+z
12 3/4+x,1/4-y,3/4+z
13 1/2+x,1/2+y,z
14 1/2-x,1/2-y,z
15 3/4-x,3/4+y,1/4+z
16 3/4+x,3/4-y,1/4+z
_cell_length_a                   39.364(3)
_cell_length_b                   48.759(4)
_cell_length_c                   9.4875(8)
_cell_angle_alpha                90
_cell_angle_beta                 90
_cell_angle_gamma                90
_cell_volume                     18209.8
loop_
_atom_site_label
_atom_site_type_symbol
_atom_site_fract_x
_atom_site_fract_y
_atom_site_fract_z
N1 N 0.3817(3) 1.1477(2) 0.3307(12)
N2 N 0.3943(3) 1.2292(2) -0.7161(12)
C1 C 0.3992(3) 1.1963(2) -0.3102(13)
C2 C 0.4284(3) 1.2018(2) -0.3875(14)
H1 H 0.4494 1.198 -0.3475
C3 C 0.4095(3) 1.1508(3) 0.2536(15)
H2 H 0.4302 1.1458 0.2929
C4 C 0.4272(3) 1.2125(2) -0.5199(14)
H3 H 0.4473 1.2162 -0.5677
C5 C 0.4093(3) 1.1608(2) 0.1219(15)
H4 H 0.4295 1.1622 0.0716
C6 C 0.3965(3) 1.2180(3) -0.5837(14)
C7 C 0.3785(3) 1.1691(2) 0.0598(14)
C8 C 0.3667(3) 1.2125(2) -0.5097(14)
H5 H 0.3456 1.2158 -0.5504
C9 C 0.3495(3) 1.1654(2) 0.1433(14)
H6 H 0.3282 1.1697 0.1073
C10 C 0.3690(3) 1.2020(2) -0.3753(14)
H7 H 0.349 1.1986 -0.3262
C11 C 0.3523(3) 1.1554(3) 0.2762(16)
H8 H 0.3328 1.1539 0.331
C12 C 0.3758(3) 1.1798(2) -0.0786(14)
H9 H 0.3539 1.1831 -0.1119
C13 C 0.4015(3) 1.1855(2) -0.1664(14)
H10 H 0.4233 1.1824 -0.132
C14 C 0.4246(4) 1.2363(3) -0.7936(18)
H11 H 0.4366 1.2198 -0.819
H12 H 0.4389 1.2476 -0.7359
H13 H 0.4184 1.2461 -0.8774
C15 C 0.3627(3) 1.2350(3) -0.7860(15)
H14 H 0.3451 1.2374 -0.717
H15 H 0.3569 1.22 -0.8471
H16 H 0.365 1.2515 -0.8406
C16 C 0.3832(4) 1.1371(3) 0.4755(16)
H17 H 0.3905 1.1514 0.5379
H18 H 0.3991 1.1221 0.4796
H19 H 0.3611 1.1307 0.5034
N3 N 0.3671(3) 1.2707(2) 0.7075(11)
N4 N 0.3744(3) 1.3535(2) -0.3366(12)
C17 C 0.3653(3) 1.3210(2) 0.0686(13)
C18 C 0.3962(3) 1.3281(2) 0.0175(14)
H20 H 0.4153 1.3258 0.0736
C19 C 0.3975(4) 1.2771(3) 0.6688(16)
H21 H 0.4157 1.2742 0.7297
C20 C 0.3996(3) 1.3387(2) -0.1173(14)
H22 H 0.421 1.3434 -0.1514
C21 C 0.4031(3) 1.2882(2) 0.5372(15)
H23 H 0.4252 1.2927 0.5112
C22 C 0.3713(3) 1.3425(2) -0.2009(13)
C23 C 0.3774(3) 1.2929(2) 0.4440(14)
C24 C 0.3403(3) 1.3355(2) -0.1486(14)
H24 H 0.321 1.3379 -0.2039
C25 C 0.3452(4) 1.2859(3) 0.4944(17)
H25 H 0.3265 1.2891 0.4371
C26 C 0.3373(3) 1.3253(2) -0.0182(14)
H26 H 0.3158 1.3209 0.0155
C27 C 0.3401(4) 1.2744(3) 0.6268(17)
H27 H 0.3185 1.2695 0.6574
C28 C 0.3608(3) 1.3102(3) 0.2148(15)
H28 H 0.3384 1.3067 0.241
C29 C 0.3833(3) 1.3049(3) 0.3097(14)
H29 H 0.4056 1.3093 0.288
C39 C 0.4073(3) 1.3601(3) -0.3940(18)
H41 H 0.4211 1.3439 -0.3965
H42 H 0.418 1.3737 -0.3359
H43 H 0.4046 1.3672 -0.4878
C40 C 0.3448(3) 1.3584(3) -0.4217(16)
H44 H 0.3302 1.3712 -0.3746
H45 H 0.3329 1.3415 -0.4361
H46 H 0.3516 1.3658 -0.5111
C41 C 0.3604(4) 1.2585(3) 0.8505(18)
H47 H 0.3607 1.2389 0.8438
H48 H 0.3386 1.2645 0.8836
H49 H 0.3776 1.2644 0.9152
N5 N 0.5045(3) 1.3662(3) 0.8843(19)
C30 C 0.4792(5) 1.2545(4) 0.822(3)
H30 H 0.481 1.248 0.7298
C31 C 0.4834(4) 1.2833(3) 0.8426(18)
C32 C 0.4828(4) 1.2959(3) 0.9720(19)
H31 H 0.4776 1.2856 1.0515
C33 C 0.4897(4) 1.3237(3) 0.987(2)
H32 H 0.4895 1.3321 1.0753
C34 C 0.4970(4) 1.3389(3) 0.8619(18)
C35 C 0.4958(4) 1.3260(3) 0.7365(19)
H33 H 0.4996 1.336 0.6546
C36 C 0.4895(4) 1.2997(4) 0.727(2)
H34 H 0.489 1.2917 0.6384
C37 C 0.5014(5) 1.3850(4) 0.766(2)
H35 H 0.4791 1.3834 0.725
H36 H 0.5182 1.3806 0.6958
H37 H 0.5048 1.4035 0.7976
C38 C 0.5087(5) 1.3807(4) 1.019(2)
H38 H 0.5197 1.3688 1.0859
H39 H 0.4869 1.3859 1.0552
H40 H 0.5224 1.3968 1.0054
O14 O 0.4736(4) 1.2379(3) 0.9131(19)
C42 C 0.2513(4) 1.1268(3) 0.6452(18)
C43 C 0.2849(4) 1.1294(4) 0.5737(16)
C44 C 0.2431(3) 1.2022(3) 0.3723(16)
C45 C 0.2742(3) 1.2196(3) 0.4141(17)
C46 C 0.2379(4) 1.2134(3) -0.1425(18)
C47 C 0.2754(3) 1.2054(3) -0.0915(19)
O1 O 0.3010(3) 1.1091(2) 0.5317(12)
O2 O 0.2379(3) 1.1027(2) 0.6579(16)
O3 O 0.2374(3) 1.1478(2) 0.6896(12)
O4 O 0.2944(2) 1.1539(2) 0.5639(12)
O5 O 0.2855(2) 1.2126(2) 0.5356(11)
O6 O 0.2332(2) 1.18429(19) 0.4592(11)
O7 O 0.2294(2) 1.20716(18) 0.2587(11)
O8 O 0.2853(2) 1.2367(2) 0.3367(10)
O9 O 0.2891(2) 1.1885(2) -0.1855(10)
O10 O 0.2284(2) 1.20462(19) -0.2611(11)
O11 O 0.2863(2) 1.21290(19) 0.0205(11)
O12 O 0.2218(2) 1.2287(2) -0.0576(11)
Fe1 Fe 0.26217(5) 1.18159(4) 0.6360(2)
Co1 Co 0.25000 1.25000 0.1375(5)
C42M C 0.2487(4) 1.3732(3) 0.6452(18)
C43M C 0.2151(4) 1.3706(4) 0.5737(16)
C44M C 0.2569(3) 1.2978(3) 0.3723(16)
C45M C 0.2258(3) 1.2804(3) 0.4141(17)
C46M C 0.2621(4) 1.2866(3) -0.1425(18)
C47M C 0.2246(3) 1.2946(3) -0.0915(19)
O1M O 0.1990(3) 1.3909(2) 0.5317(12)
O2M O 0.2621(3) 1.3973(2) 0.6579(16)
O3M O 0.2626(3) 1.3522(2) 0.6896(12)
O4M O 0.2056(2) 1.3461(2) 0.5639(12)
O5M O 0.2145(2) 1.2874(2) 0.5356(11)
O6M O 0.2668(2) 1.31571(19) 0.4592(11)
O7M O 0.2706(2) 1.29284(18) 0.2587(11)
O8M O 0.2147(2) 1.2633(2) 0.3367(10)
O9M O 0.2109(2) 1.3115(2) -0.1855(10)
O9_2 O 0.2891(2) 1.1885(2) 0.8145(10)
O9M_2 O 0.2109(2) 1.3115(2) 0.8145(10)
O10M O 0.2716(2) 1.29538(19) -0.2611(11)
O10_2 O 0.2284(2) 1.20462(19) 0.7389(11)
O10M_2 O 0.2716(2) 1.29538(19) 0.7389(11)
O11M O 0.2137(2) 1.28710(19) 0.0205(11)
O12M O 0.2782(2) 1.2713(2) -0.0576(11)
Fe1M Fe 0.23783(5) 1.31841(4) 0.6360(2)
Fe1_2 Fe 0.26217(5) 1.18159(4) -0.3640(2)
Fe1M_2 Fe 0.23783(5) 1.31841(4) -0.3640(2)
O13 O 0.5251(3) 1.1978(3) 0.8415(18)
loop_
_geom_bond_atom_site_label_1
_geom_bond_atom_site_label_2
_geom_bond_site_symmetry_1
_geom_bond_site_symmetry_2
N1 C3 1_555 1_555
N2 C6 1_555 1_555
C1 C2 1_555 1_555
C2 H1 1_555 1_555
C3 H2 1_555 1_555
C4 C2 1_555 1_555
H3 C4 1_555 1_555
C5 C3 1_555 1_555
H4 C5 1_555 1_555
C6 C4 1_555 1_555
C7 C5 1_555 1_555
C8 C6 1_555 1_555
H5 C8 1_555 1_555
C9 C7 1_555 1_555
H6 C9 1_555 1_555
C10 C1 1_555 1_555
H7 C10 1_555 1_555
C11 N1 1_555 1_555
H8 C11 1_555 1_555
C12 C7 1_555 1_555
H9 C12 1_555 1_555
C13 C1 1_555 1_555
H10 C13 1_555 1_555
C14 N2 1_555 1_555
H11 C14 1_555 1_555
H12 C14 1_555 1_555
H13 C14 1_555 1_555
C15 N2 1_555 1_555
H14 C15 1_555 1_555
H15 C15 1_555 1_555
H16 C15 1_555 1_555
C16 N1 1_555 1_555
H17 C16 1_555 1_555
H18 C16 1_555 1_555
H19 C16 1_555 1_555
N3 C19 1_555 1_555
N4 C22 1_555 1_555
C17 C18 1_555 1_555
C18 H20 1_555 1_555
C19 H21 1_555 1_555
C20 C18 1_555 1_555
H22 C20 1_555 1_555
C21 C19 1_555 1_555
H23 C21 1_555 1_555
C22 C20 1_555 1_555
C23 C21 1_555 1_555
C24 C22 1_555 1_555
H24 C24 1_555 1_555
C25 C23 1_555 1_555
H25 C25 1_555 1_555
C26 C17 1_555 1_555
H26 C26 1_555 1_555
C27 N3 1_555 1_555
H27 C27 1_555 1_555
C28 C17 1_555 1_555
H28 C28 1_555 1_555
C29 C23 1_555 1_555
H29 C29 1_555 1_555
N5 C34 1_555 1_555
C30 H30 1_555 1_555
C31 C30 1_555 1_555
C32 C31 1_555 1_555
H31 C32 1_555 1_555
C33 C32 1_555 1_555
H32 C33 1_555 1_555
C34 C33 1_555 1_555
C35 C34 1_555 1_555
H33 C35 1_555 1_555
C36 C31 1_555 1_555
H34 C36 1_555 1_555
C37 N5 1_555 1_555
H35 C37 1_555 1_555
H36 C37 1_555 1_555
H37 C37 1_555 1_555
C38 N5 1_555 1_555
H38 C38 1_555 1_555
H39 C38 1_555 1_555
H40 C38 1_555 1_555
C39 N4 1_555 1_555
H41 C39 1_555 1_555
H42 C39 1_555 1_555
H43 C39 1_555 1_555
C40 N4 1_555 1_555
H44 C40 1_555 1_555
H45 C40 1_555 1_555
H46 C40 1_555 1_555
C41 N3 1_555 1_555
H47 C41 1_555 1_555
H48 C41 1_555 1_555
H49 C41 1_555 1_555
C42 C43 1_555 1_555
C43 O1 1_555 1_555
C44 C45 1_555 1_555
C45 O5 1_555 1_555
C46 C47 1_555 1_555
C47 O9 1_555 1_555
O2 C42 1_555 1_555
O3 C42 1_555 1_555
O4 C43 1_555 1_555
O5 Fe1 1_555 1_555
O6 C44 1_555 1_555
O7 C44 1_555 1_555
O8 C45 1_555 1_555
O9 Fe1_2 1_555 1_555
O10 C46 1_555 1_555
O11 C47 1_555 1_555
O12 C46 1_555 1_555
Fe1 O3 1_555 1_555
Co1 O7 1_555 1_555
O14 C30 1_555 1_555
C42M C43M 1_555 1_555
C43M O1M 1_555 1_555
C44M C45M 1_555 1_555
C45M O5M 1_555 1_555
C46M C47M 1_555 1_555
C47M O9M 1_555 1_555
O2M C42M 1_555 1_555
O3M C42M 1_555 1_555
O4M C43M 1_555 1_555
O5M Fe1M 1_555 1_555
O6M C44M 1_555 1_555
O7M Co1 1_555 1_555
O8M Co1 1_555 1_555
O9M Fe1M_2 1_555 1_555
O9_2 Fe1 1_555 1_555
O9M_2 Fe1M 1_555 1_555
O10M C46M 1_555 1_555
O10_2 Fe1 1_555 1_555
O10M_2 Fe1M 1_555 1_555
O11M Co1 1_555 1_555
O12M Co1 1_555 1_555
Fe1M O3M 1_555 1_555
Fe1_2 O10 1_555 1_555
Fe1M_2 O10M 1_555 1_555
C8 C10 1_555 1_555
C9 C11 1_555 1_555
C12 C13 1_555 1_555
C24 C26 1_555 1_555
C25 C27 1_555 1_555
C28 C29 1_555 1_555
C35 C36 1_555 1_555
O4 Fe1 1_555 1_555
O6 Fe1 1_555 1_555
O8 Co1 1_555 1_555
O11 Co1 1_555 1_555
O12 Co1 1_555 1_555
C44M O7M 1_555 1_555
C45M O8M 1_555 1_555
C46M O12M 1_555 1_555
C47M O11M 1_555 1_555
O4M Fe1M 1_555 1_555
O6M Fe1M 1_555 1_555

#END
