
#######################################################################
#
#                 Cambridge Crystallographic Data Centre
#                                CCDC 
#
#######################################################################
#
# If this CIF has been generated from an entry in the Cambridge 
# Structural Database, then it will include bibliographic, chemical, 
# crystal, experimental, refinement or atomic coordinate data resulting 
# from the CCDC's data processing and validation procedures.
#
#######################################################################

data_AMALND
_symmetry_cell_setting           orthorhombic
_symmetry_space_group_name_H-M   'P b c n'
_symmetry_Int_Tables_number      60
_space_group_name_Hall           '-P 2n 2ab'
loop_
_symmetry_equiv_pos_site_id
_symmetry_equiv_pos_as_xyz
1 x,y,z
2 1/2-x,1/2-y,1/2+z
3 1/2+x,1/2-y,-z
4 -x,y,1/2-z
5 -x,-y,-z
6 1/2+x,1/2+y,1/2-z
7 1/2-x,1/2+y,z
8 x,-y,1/2+z
_cell_length_a                   11.258(3)
_cell_length_b                   12.602(3)
_cell_length_c                   14.689(3)
_cell_angle_alpha                90
_cell_angle_beta                 90
_cell_angle_gamma                90
_cell_volume                     2083.98
loop_
_atom_site_label
_atom_site_type_symbol
_atom_site_fract_x
_atom_site_fract_y
_atom_site_fract_z
C1 C 0.00000 -0.05270 0.25000
C2 C 0.03250 0.01310 0.16750
C3 C 0.30320 -0.11600 0.07640
C4 C 0.38550 -0.04940 0.13620
C5 C 0.42950 0.05460 0.09660
Nd1 Nd 0.14917 0.11343 0.00741
O1 O 0.10380 0.08500 0.17500
O2 O -0.01670 -0.00880 0.09110
O3 O 0.21990 -0.06970 0.03070
O4 O 0.31470 -0.21550 0.07520
O5 O 0.35450 0.11620 0.06040
O6 O 0.53430 0.07110 0.09520
O7 O -0.05150 0.20280 0.01880
O8 O 0.13680 0.24030 -0.11950
O9 O 0.27800 0.06620 -0.12420
C2C C -0.03250 0.01310 0.33250
O2D O 0.01670 0.00880 -0.09110
Nd1D Nd -0.14917 -0.11343 -0.00741
O4F O 0.18530 0.28450 0.07520
O1C O -0.10380 0.08500 0.32500
O2C O 0.01670 -0.00880 0.40890
Nd1F Nd 0.35083 -0.38657 0.00741
Nd1C Nd -0.14917 0.11343 0.49259
Nd1G Nd 0.14917 -0.11343 0.50741
O2G O -0.01670 0.00880 0.59110
O3C O -0.21990 -0.06970 0.46930
O4E O -0.18530 0.28450 0.42480
O5C O -0.35450 0.11620 0.43960
O7C O 0.05150 0.20280 0.48120
O8C O -0.13680 0.24030 0.61950
O9C O -0.27800 0.06620 0.62420
C3C C -0.30320 -0.11600 0.42360
C5C C -0.42950 0.05460 0.40340
C4C C -0.38550 -0.04940 0.36380
O4C O -0.31470 -0.21550 0.42480
O6C O -0.53430 0.07110 0.40480
Nd1E Nd -0.35083 -0.38657 0.49259
O10 O 0.35510 0.25650 -0.19580
loop_
_geom_bond_atom_site_label_1
_geom_bond_atom_site_label_2
_geom_bond_site_symmetry_1
_geom_bond_site_symmetry_2
C1 C2 1_555 1_555
C2 O1 1_555 1_555
C3 C4 1_555 1_555
C4 C5 1_555 1_555
C5 O5 1_555 1_555
Nd1 O1 1_555 1_555
O2 C2 1_555 1_555
O3 C3 1_555 1_555
O4 C3 1_555 1_555
O5 Nd1 1_555 1_555
O6 C5 1_555 1_555
O7 Nd1 1_555 1_555
O8 Nd1 1_555 1_555
O9 Nd1 1_555 1_555
C2C C1 1_555 1_555
O2D Nd1 1_555 1_555
Nd1D O2 1_555 1_555
O4F Nd1 1_555 1_555
O1C C2C 1_555 1_555
O2C C2C 1_555 1_555
Nd1F O4 1_555 1_555
Nd1C O1C 1_555 1_555
Nd1G O2C 1_555 1_555
O2G Nd1C 1_555 1_555
O3C Nd1C 1_555 1_555
O4E Nd1C 1_555 1_555
O5C Nd1C 1_555 1_555
O7C Nd1C 1_555 1_555
O8C Nd1C 1_555 1_555
O9C Nd1C 1_555 1_555
C3C O3C 1_555 1_555
C5C O5C 1_555 1_555
C4C C3C 1_555 1_555
O4C C3C 1_555 1_555
O6C C5C 1_555 1_555
Nd1E O4C 1_555 1_555
Nd1 O2 1_555 1_555
Nd1 O3 1_555 1_555
O2D Nd1D 1_555 1_555
O2C Nd1C 1_555 1_555
Nd1G O2G 1_555 1_555
C5C C4C 1_555 1_555

#END
