
#######################################################################
#
#                 Cambridge Crystallographic Data Centre
#                                CCDC 
#
#######################################################################
#
# If this CIF has been generated from an entry in the Cambridge 
# Structural Database, then it will include bibliographic, chemical, 
# crystal, experimental, refinement or atomic coordinate data resulting 
# from the CCDC's data processing and validation procedures.
#
#######################################################################

data_AMAPOT
_symmetry_cell_setting           monoclinic
_symmetry_space_group_name_H-M   'P 21/n'
_symmetry_Int_Tables_number      14
_space_group_name_Hall           '-P 2yn'
loop_
_symmetry_equiv_pos_site_id
_symmetry_equiv_pos_as_xyz
1 x,y,z
2 1/2-x,1/2+y,1/2-z
3 -x,-y,-z
4 1/2+x,1/2-y,1/2+z
_cell_length_a                   9.9050(8)
_cell_length_b                   17.877(1)
_cell_length_c                   13.427(1)
_cell_angle_alpha                90
_cell_angle_beta                 91.309(2)
_cell_angle_gamma                90
_cell_volume                     2376.92
loop_
_atom_site_label
_atom_site_type_symbol
_atom_site_fract_x
_atom_site_fract_y
_atom_site_fract_z
Zn1 Zn 0.7467 0.0983 0.2383
O1 O 0.8852 0.1450 0.0573
O2 O 0.6701 0.0184 0.3251
O3 O 0.8529 0.0396 0.1411
O4 O 0.5895 0.1135 0.4112
N1 N 0.7283 0.2141 0.2474
N2 N 0.5627 0.0946 0.1415
N4 N 0.9264 0.1024 0.3413
C1 C 1.1327 0.0479 0.4023
C2 C 0.3495 0.0820 0.0049
C3 C 0.9017 0.0775 0.0693
C4 C 0.9832 0.0357 -0.0050
C5 C 0.5386 -0.0105 0.4629
C6 C 0.8308 0.2597 0.2257
C7 C 0.4663 0.0432 0.1523
C8 C 1.1232 0.0877 0.4909
C9 C 0.5947 0.3219 0.2813
C10 C 0.6025 0.0461 0.3963
C11 C 0.7007 0.3679 0.2595
C12 C 0.6117 0.2454 0.2751
C13 C 0.8200 0.3363 0.2315
C15 C 0.9204 0.1406 0.4266
C16 C 1.0322 0.0566 0.3306
C17 C 0.3579 0.0355 0.0862
C18 C 0.5521 0.1403 0.0625
C19 C 1.0162 0.1350 0.5026
C20 C 0.4464 0.1358 -0.0070
C4B C 1.0168 -0.0357 0.0050
C3B C 1.0983 -0.0775 -0.0693
O1B O 1.1148 -0.1450 -0.0573
O3B O 1.1471 -0.0396 -0.1411
C5B C 0.4614 0.0105 0.5371
C10B C 0.3975 -0.0461 0.6037
O2B O 0.3299 -0.0184 0.6749
O4B O 0.4105 -0.1135 0.5888
Zn1B Zn 0.2533 -0.0983 0.7617
N1B N 0.2717 -0.2141 0.7526
C6B C 0.1692 -0.2597 0.7743
C9B C 0.4053 -0.3219 0.7187
C11B C 0.2993 -0.3679 0.7405
C12B C 0.3883 -0.2454 0.7249
C13B C 0.1800 -0.3363 0.7685
N2B N 0.4373 -0.0946 0.8585
C2B C 0.6505 -0.0820 0.9951
C7B C 0.5337 -0.0432 0.8477
C17B C 0.6421 -0.0355 0.9138
C18B C 0.4479 -0.1403 0.9375
C20B C 0.5536 -0.1358 1.0070
N4B N 0.0736 -0.1024 0.6587
C1B C -0.1327 -0.0479 0.5977
C8B C -0.1232 -0.0877 0.5091
C15B C 0.0796 -0.1406 0.5734
C16B C -0.0322 -0.0566 0.6694
C19B C -0.0162 -0.1350 0.4974
Zn1B_2 Zn 1.2533 -0.0983 -0.2383
O3B_2 O 0.1471 -0.0396 0.8589
N3 N 1.2123 0.2203 0.2086
C14 C 1.2354 0.2470 0.3024
C21 C 1.2089 0.3690 0.2399
C22 C 1.1886 0.3407 0.1540
C23 C 1.1900 0.2673 0.1341
C24 C 1.2319 0.3256 0.3141
loop_
_geom_bond_atom_site_label_1
_geom_bond_atom_site_label_2
_geom_bond_site_symmetry_1
_geom_bond_site_symmetry_2
Zn1 O2 1_555 1_555
O1 C3 1_555 1_555
O2 C10 1_555 1_555
O3 Zn1 1_555 1_555
O4 C10 1_555 1_555
N1 Zn1 1_555 1_555
N2 Zn1 1_555 1_555
N3 C14 1_555 1_555
N4 Zn1 1_555 1_555
C1 C8 1_555 1_555
C2 C17 1_555 1_555
C3 O3 1_555 1_555
C4 C3 1_555 1_555
C5 C10 1_555 1_555
C6 N1 1_555 1_555
C7 N2 1_555 1_555
C8 C19 1_555 1_555
C9 C11 1_555 1_555
C11 C13 1_555 1_555
C12 N1 1_555 1_555
C13 C6 1_555 1_555
C14 C24 1_555 1_555
C15 N4 1_555 1_555
C16 N4 1_555 1_555
C17 C7 1_555 1_555
C18 N2 1_555 1_555
C19 C15 1_555 1_555
C20 C2 1_555 1_555
C21 C22 1_555 1_555
C22 C23 1_555 1_555
C23 N3 1_555 1_555
C24 C21 1_555 1_555
C4B C4 1_555 1_555
C3B C4B 1_555 1_555
O1B C3B 1_555 1_555
O3B C3B 1_555 1_555
C5B C5 1_555 1_555
C10B C5B 1_555 1_555
O2B C10B 1_555 1_555
O4B C10B 1_555 1_555
Zn1B O2B 1_555 1_555
N1B Zn1B 1_555 1_555
C6B N1B 1_555 1_555
C9B C11B 1_555 1_555
C11B C13B 1_555 1_555
C12B N1B 1_555 1_555
C13B C6B 1_555 1_555
N2B Zn1B 1_555 1_555
C2B C17B 1_555 1_555
C7B N2B 1_555 1_555
C17B C7B 1_555 1_555
C18B N2B 1_555 1_555
C20B C2B 1_555 1_555
N4B Zn1B 1_555 1_555
C1B C8B 1_555 1_555
C8B C19B 1_555 1_555
C15B N4B 1_555 1_555
C16B N4B 1_555 1_555
C19B C15B 1_555 1_555
Zn1B_2 O3B 1_555 1_555
O3B_2 Zn1B 1_555 1_555
C1 C16 1_555 1_555
C9 C12 1_555 1_555
C18 C20 1_555 1_555
C9B C12B 1_555 1_555
C18B C20B 1_555 1_555
C1B C16B 1_555 1_555

#END
