
#######################################################################
#
#                 Cambridge Crystallographic Data Centre
#                                CCDC 
#
#######################################################################
#
# If this CIF has been generated from an entry in the Cambridge 
# Structural Database, then it will include bibliographic, chemical, 
# crystal, experimental, refinement or atomic coordinate data resulting 
# from the CCDC's data processing and validation procedures.
#
#######################################################################

data_AMAPIN
_symmetry_cell_setting           monoclinic
_symmetry_space_group_name_H-M   'C 2/c'
_symmetry_Int_Tables_number      15
_space_group_name_Hall           '-C 2yn'
loop_
_symmetry_equiv_pos_site_id
_symmetry_equiv_pos_as_xyz
1 x,y,z
2 -x,y,1/2-z
3 1/2+x,1/2+y,z
4 1/2-x,1/2+y,1/2-z
5 -x,-y,-z
6 x,-y,1/2+z
7 1/2-x,1/2-y,-z
8 1/2+x,1/2-y,1/2+z
_cell_length_a                   24.908(3)
_cell_length_b                   5.8332(5)
_cell_length_c                   22.075(2)
_cell_angle_alpha                90
_cell_angle_beta                 105.628(3)
_cell_angle_gamma                90
_cell_volume                     3088.78
loop_
_atom_site_label
_atom_site_type_symbol
_atom_site_fract_x
_atom_site_fract_y
_atom_site_fract_z
Cu1 Cu 1.0000 0.3929 0.2500
O1 O 1.0000 0.0060 0.2500
O2 O 1.0075 0.4009 0.1644
O3 O 0.9785 0.7571 0.1427
N1 N 1.0839 0.4156 0.2828
C1 C 0.9935 0.5692 0.1281
C2 C 0.9963 0.5325 0.0614
C3 C 1.0144 0.3249 0.0438
C4 C 0.9817 0.7076 0.0176
C5 C 1.1118 0.2539 0.3219
C6 C 1.1699 0.2535 0.3421
C7 C 1.2007 0.4169 0.3213
C8 C 1.1705 0.5854 0.2827
C9 C 1.1122 0.5790 0.2643
C10 C 1.2631 0.4160 0.3401
C11 C 1.2922 0.2344 0.3719
C12 C 1.3507 0.2262 0.3882
C13 C 1.3792 0.4007 0.3715
C14 C 1.3512 0.5754 0.3390
C15 C 1.2935 0.5833 0.3230
H1 H 1.0261 0.1956 0.0794
H2 H 0.9876 0.8692 0.0470
H3 H 1.0932 0.0778 0.3224
H4 H 1.1809 0.1302 0.3450
H5 H 1.1895 0.7073 0.2689
H6 H 1.0859 0.6956 0.2191
H7 H 1.2809 0.1135 0.3638
H8 H 1.3807 0.0823 0.3822
H9 H 1.4216 0.3891 0.3820
H10 H 1.3701 0.6778 0.3285
H11 H 1.2800 0.6862 0.3010
H12 H 1.0038 -0.0928 0.2064
H12A H 0.9962 -0.0928 0.2936
C4D C 1.0183 0.2924 -0.0176
C2D C 1.0037 0.4675 -0.0614
C1D C 1.0065 0.4308 -0.1281
O2D O 0.9925 0.5991 -0.1644
O3D O 1.0215 0.2429 -0.1427
C3D C 0.9856 0.6751 -0.0438
H1D H 0.9739 0.8044 -0.0794
H2D H 1.0124 0.1308 -0.0470
N1A N 0.9161 0.4156 0.2172
C5A C 0.8882 0.2539 0.1781
C6A C 0.8301 0.2535 0.1579
C7A C 0.7993 0.4169 0.1787
C8A C 0.8295 0.5854 0.2173
C9A C 0.8878 0.5790 0.2357
C10A C 0.7369 0.4160 0.1599
C11A C 0.7078 0.2344 0.1281
C12A C 0.6493 0.2262 0.1118
C13A C 0.6208 0.4007 0.1285
C14A C 0.6488 0.5754 0.1610
C15A C 0.7065 0.5833 0.1770
H3A H 0.9068 0.0778 0.1776
H4A H 0.8191 0.1302 0.1550
H5A H 0.8105 0.7073 0.2311
H6A H 0.9141 0.6956 0.2809
H7A H 0.7191 0.1135 0.1362
H8A H 0.6193 0.0823 0.1178
H9A H 0.5784 0.3891 0.1180
H10A H 0.6299 0.6778 0.1715
H11A H 0.7200 0.6862 0.1990
O2A O 0.9925 0.4009 0.3356
Cu1D Cu 1.0000 0.6071 -0.2500
loop_
_geom_bond_atom_site_label_1
_geom_bond_atom_site_label_2
_geom_bond_site_symmetry_1
_geom_bond_site_symmetry_2
Cu1 O1 1_555 1_555
O1 H12 1_555 1_555
O2 Cu1 1_555 1_555
O3 C1 1_555 1_555
N1 Cu1 1_555 1_555
C1 O2 1_555 1_555
C2 C1 1_555 1_555
C3 C2 1_555 1_555
C4 C2 1_555 1_555
C5 N1 1_555 1_555
C6 C5 1_555 1_555
C7 C6 1_555 1_555
C8 C7 1_555 1_555
C9 N1 1_555 1_555
C10 C7 1_555 1_555
C11 C10 1_555 1_555
C12 C11 1_555 1_555
C13 C12 1_555 1_555
C14 C13 1_555 1_555
C15 C10 1_555 1_555
H1 C3 1_555 1_555
H2 C4 1_555 1_555
H3 C5 1_555 1_555
H4 C6 1_555 1_555
H5 C8 1_555 1_555
H6 C9 1_555 1_555
H7 C11 1_555 1_555
H8 C12 1_555 1_555
H9 C13 1_555 1_555
H10 C14 1_555 1_555
H11 C15 1_555 1_555
H12A O1 1_555 1_555
C4D C3 1_555 1_555
C2D C4D 1_555 1_555
C1D C2D 1_555 1_555
O2D C1D 1_555 1_555
O3D C1D 1_555 1_555
C3D C4 1_555 1_555
H1D C3D 1_555 1_555
H2D C4D 1_555 1_555
N1A Cu1 1_555 1_555
C5A N1A 1_555 1_555
C6A C5A 1_555 1_555
C7A C6A 1_555 1_555
C8A C7A 1_555 1_555
C9A N1A 1_555 1_555
C10A C7A 1_555 1_555
C11A C10A 1_555 1_555
C12A C11A 1_555 1_555
C13A C12A 1_555 1_555
C14A C13A 1_555 1_555
C15A C10A 1_555 1_555
H3A C5A 1_555 1_555
H4A C6A 1_555 1_555
H5A C8A 1_555 1_555
H6A C9A 1_555 1_555
H7A C11A 1_555 1_555
H8A C12A 1_555 1_555
H9A C13A 1_555 1_555
H10A C14A 1_555 1_555
H11A C15A 1_555 1_555
O2A Cu1 1_555 1_555
Cu1D O2D 1_555 1_555
C8 C9 1_555 1_555
C14 C15 1_555 1_555
C2D C3D 1_555 1_555
C8A C9A 1_555 1_555
C14A C15A 1_555 1_555

#END
