
#######################################################################
#
#                 Cambridge Crystallographic Data Centre
#                                CCDC 
#
#######################################################################
#
# If this CIF has been generated from an entry in the Cambridge 
# Structural Database, then it will include bibliographic, chemical, 
# crystal, experimental, refinement or atomic coordinate data resulting 
# from the CCDC's data processing and validation procedures.
#
#######################################################################

data_AMAPEJ
_symmetry_cell_setting           orthorhombic
_symmetry_space_group_name_H-M   'P 21 21 2'
_symmetry_Int_Tables_number      18
_space_group_name_Hall           'P 2 2ab'
loop_
_symmetry_equiv_pos_site_id
_symmetry_equiv_pos_as_xyz
1 x,y,z
2 -x,-y,z
3 1/2-x,1/2+y,-z
4 1/2+x,1/2-y,-z
_cell_length_a                   16.1359(11)
_cell_length_b                   57.178(4)
_cell_length_c                   19.4167(13)
_cell_angle_alpha                90
_cell_angle_beta                 90
_cell_angle_gamma                90
_cell_volume                     17914.2
loop_
_atom_site_label
_atom_site_type_symbol
_atom_site_fract_x
_atom_site_fract_y
_atom_site_fract_z
C4 C 0.2078(10) 1.0140(2) 0.8820(8)
H8 H 0.2066 1.0180 0.8329
H9 H 0.2333 1.0268 0.9079
H10 H 0.1510 1.0115 0.8985
C5 C 0.2829(11) 0.9796(3) 0.8327(5)
H11 H 0.3131 0.9657 0.8480
H12 H 0.3195 0.9894 0.8045
H13 H 0.2347 0.9749 0.8054
C6 C 0.2659(10) 0.9834(2) 0.9606(6)
H14 H 0.2424 0.9896 1.0015
N2 N 0.258(3) 0.9897(6) 0.8942(11)
O2 O 0.304(2) 0.9646(6) 0.9816(14)
C7 C 0.2556(17) 0.3358(4) 0.6519(11)
H15 H 0.2334 0.3442 0.6918
H16 H 0.3163 0.3367 0.6523
H17 H 0.2385 0.3194 0.6541
C8 C 0.2395(17) 0.3387(4) 0.5188(9)
H18 H 0.2087 0.3487 0.4868
H19 H 0.2213 0.3224 0.5134
H20 H 0.2989 0.3398 0.5088
C9 C 0.1721(15) 0.3666(4) 0.5972(9)
H21 H 0.1669 0.3732 0.6418
N3 N 0.2242(17) 0.3463(4) 0.5891(7)
O3 O 0.1273(12) 0.3773(3) 0.5412(9)
C10 C 0.913(3) 0.6569(8) -0.067(2)
H22 H 0.9098 0.6683 -0.1048
H23 H 0.8643 0.6583 -0.0378
H24 H 0.9161 0.6410 -0.0864
C11 C 1.006(4) 0.6826(6) 0.012(3)
H25 H 1.0095 0.6959 -0.0199
H26 H 1.0589 0.6808 0.0359
H27 H 0.9618 0.6855 0.0456
C12 C 1.001(3) 0.6414(6) 0.018(2)
H28 H 1.0182 0.6261 0.0061
N4 N 0.987(2) 0.6614(7) -0.0267(16)
O4 O 0.981(3) 0.6503(8) 0.0868(18)
C13 C 0.2537(11) 0.3291(3) 0.8614(7)
H29 H 0.2802 0.3220 0.8210
H30 H 0.2659 0.3459 0.8627
H31 H 0.1936 0.3267 0.8587
C14 C 0.2578(12) 0.3248(3) 0.9919(7)
H32 H 0.2864 0.3152 1.0264
H33 H 0.1979 0.3223 0.9957
H34 H 0.2706 0.3413 0.9997
C15 C 0.3349(11) 0.2974(3) 0.9163(6)
H35 H 0.3416 0.2893 0.8739
N5 N 0.280(3) 0.3208(5) 0.9074(11)
O5 O 0.3483(18) 0.2884(4) 0.9613(14)
C16 C 0.2088(19) 0.6788(4) 0.9088(14)
H36 H 0.2070 0.6837 0.8605
H37 H 0.2328 0.6913 0.9370
H38 H 0.1524 0.6754 0.9248
C17 C 0.284(2) 0.6462(5) 0.8520(9)
H39 H 0.3178 0.6325 0.8632
H40 H 0.3168 0.6570 0.8237
H41 H 0.2348 0.6413 0.8264
C18 C 0.2714(16) 0.6468(5) 0.9813(9)
H42 H 0.2418 0.6502 1.0223
N6 N 0.2646(14) 0.6548(3) 0.9097(5)
O6 O 0.3179(9) 0.6301(3) 0.9958(6)
C19 C 0.5452(6) 0.35204(14) 0.1332(5)
C20 C 0.5350(6) 0.33995(16) 0.0726(4)
C21 C 0.4836(6) 0.32078(16) 0.0705(4)
C22 C 0.4406(6) 0.31418(15) 0.1284(4)
C23 C 0.4529(6) 0.32583(15) 0.1895(4)
C24 C 0.5029(6) 0.34530(14) 0.1913(4)
C25 C 0.0532(6) 0.33881(16) 0.3352(4)
C26 C -0.0040(6) 0.32098(15) 0.3354(4)
C27 C -0.0471(6) 0.31592(16) 0.3947(5)
C28 C -0.0311(7) 0.32811(19) 0.4542(4)
C29 C 0.0268(7) 0.34577(18) 0.4541(4)
C30 C 0.0655(7) 0.35193(17) 0.3937(5)
C31 C 0.4413(9) 0.9841(3) 0.0922(8)
C32 C 0.4683(8) 0.9916(2) 0.0284(7)
C33 C 0.4766(10) 0.9903(3) 0.1510(8)
C32A C 0.5317(8) 1.0084(2) 0.0284(7)
C33A C 0.5234(10) 1.0097(3) 0.1510(8)
C34 C 0.0188(11) 0.0106(3) 0.2952(8)
C35 C 0.0476(10) 0.0200(3) 0.3547(9)
C36 C 0.0263(10) 0.0096(3) 0.4163(8)
C34A C -0.0188(11) -0.0106(3) 0.2952(8)
C36A C -0.0263(10) -0.0096(3) 0.4163(8)
O7 O 0.7050(8) 0.8046(2) 0.4642(7)
O8 O 0.2457(10) 0.6749(3) 0.6175(9)
O9 O 0.9786(13) 0.1552(4) 0.4657(11)
O10 O 0.0000 0.0000 0.076(2)
O11 O 0.5332(11) 0.6937(3) 0.4990(9)
O12 O 0.5000 0.0000 0.3992(15)
O13 O 0.5017(11) 0.3298(3) 0.4249(11)
O14 O 0.4729(13) 0.9801(4) 0.4777(11)
O15 O 0.0010(15) 0.0197(4) 0.0061(12)
C37 C 1.4072(5) 0.45566(14) 0.2996(4)
C38 C 0.0960(6) -0.45751(15) 0.2340(4)
C39 C 0.5963(5) -0.12224(15) 0.2706(4)
C40 C 0.0241(5) -0.49014(14) 0.2946(4)
H43 H 0.0417 -0.4836 0.3371
C41 C 1.4549(5) 0.47872(14) 0.3003(4)
C42 C 1.4785(6) 0.49008(15) 0.2378(4)
H44 H 1.4631 0.4833 0.1951
C43 C 0.9073(6) 0.12430(15) 0.2048(4)
C44 C 0.7226(6) -0.01996(17) 0.2600(5)
C45 C 1.3641(6) 0.39956(16) 0.5206(4)
H45 H 1.3629 0.3844 0.5007
C46 C 0.0480(6) -0.47936(15) 0.2320(4)
C47 C 0.5184(5) -0.15590(14) 0.2139(4)
H46 H 0.5324 -0.1495 0.1704
C48 C 0.8600(6) 0.07043(15) -0.0224(4)
H47 H 0.8534 0.0552 -0.0038
C49 C 0.8178(6) 0.04425(15) 0.1778(4)
C50 C 0.9748(6) 0.15640(16) 0.2687(4)
H48 H 0.9552 0.1495 0.3101
C51 C 1.0954(5) 0.21054(14) 0.2147(4)
C52 C 0.1360(6) -0.40408(17) -0.0619(4)
H49 H 0.1349 -0.3905 -0.0901
C53 C 1.3118(5) 0.37667(14) 0.3166(4)
C54 C 0.6371(6) -0.06551(15) 0.4892(4)
H50 H 0.6358 -0.0505 0.4682
C55 C 0.7859(6) 0.02189(16) 0.2050(4)
C56 C 0.4000(5) -0.20921(15) 0.2811(4)
C57 C 0.2150(5) -0.35334(15) 0.2355(4)
C58 C 0.5448(5) -0.14477(14) 0.2749(4)
C59 C 1.1787(6) 0.41451(17) 0.4184(5)
H51 H 1.1967 0.4031 0.4505
C60 C 1.0471(5) 0.18799(15) 0.2107(4)
C61 C 0.9571(5) 0.14656(15) 0.2063(4)
C62 C 1.2252(5) 0.31257(14) 0.2297(4)
C63 C 1.2826(5) 0.35441(14) 0.2856(4)
C64 C 0.4071(6) -0.41740(16) 0.1201(5)
H52 H 0.4437 -0.4112 0.0865
C65 C 0.4715(5) -0.17643(15) 0.2178(4)
H53 H 0.4536 -0.1837 0.1764
C66 C 0.6374(7) -0.10538(17) 0.4777(5)
H54 H 0.6402 -0.1190 0.4498
C67 C 0.0234(6) -0.48984(15) 0.1703(4)
H55 H 0.0390 -0.4829 0.1277
C68 C 1.4786(6) 0.48931(14) 0.3627(4)
H56 H 1.4655 0.4819 0.4051
C69 C 1.0230(6) 0.17718(15) 0.2703(4)
H57 H 1.0388 0.1837 0.3134
C70 C 0.6408(6) -0.06662(16) 0.5601(4)
H58 H 0.6451 -0.0529 0.5874
C71 C 0.4508(5) -0.18624(15) 0.2796(4)
C72 C 0.4595(6) -0.08232(17) 0.3709(5)
H59 H 0.4791 -0.0917 0.4079
C73 C 0.3251(6) -0.41298(15) 0.1174(5)
H60 H 0.3054 -0.4035 0.0807
C74 C 0.1406(6) -0.40175(17) 0.0060(4)
H61 H 0.1448 -0.3864 0.0243
C75 C 0.6208(6) -0.24648(19) 0.3894(5)
H62 H 0.6543 -0.2389 0.4228
C76 C 1.3672(6) 0.43974(15) 0.5073(4)
H63 H 1.3656 0.4533 0.4790
C77 C 0.9796(6) 0.15730(16) 0.1464(4)
H64 H 0.9637 0.1508 0.1033
C78 C 0.1341(6) -0.44124(16) 0.0238(4)
H65 H 0.1303 -0.4542 0.0541
C79 C 0.6775(7) 0.08098(18) 0.0854(5)
H66 H 0.6966 0.0712 0.0492
C80 C 1.1401(6) 0.26805(15) -0.0053(4)
H67 H 1.1409 0.2832 0.0150
C81 C 0.8718(6) 0.11023(16) -0.0061(5)
H68 H 0.8758 0.1232 0.0244
C82 C 0.8691(5) 0.09457(16) -0.1223(4)
H69 H 0.8714 0.0968 -0.1707
C83 C 0.3708(6) -0.21914(17) 0.5611(4)
H70 H 0.3783 -0.2038 0.5786
C84 C 0.5246(6) -0.15459(15) 0.3370(4)
H71 H 0.5415 -0.1473 0.3786
C85 C 0.4783(6) -0.17579(15) 0.3390(4)
H72 H 0.4661 -0.1828 0.3822
C86 C 0.3628(6) -0.22246(16) 0.4924(4)
H73 H 0.3603 -0.2092 0.4628
C87 C 1.2079(6) 0.43845(16) 0.3292(4)
H74 H 1.2458 0.4447 0.2966
C88 C 0.8237(7) -0.08091(18) 0.3883(5)
H75 H 0.8060 -0.0700 0.4222
C89 C 1.1953(5) 0.29032(14) 0.1974(4)
C90 C 0.2843(5) -0.31171(14) 0.2814(4)
C91 C 1.3649(6) 0.42340(17) 0.6194(5)
H76 H 1.3642 0.4253 0.6680
C92 C 0.1825(5) -0.37599(14) 0.2083(4)
C93 C 0.1738(6) -0.25281(16) 0.3976(5)
H77 H 0.1940 -0.2624 0.4339
C94 C 1.3618(6) 0.40129(17) 0.5915(5)
H78 H 1.3583 0.3878 0.6198
C95 C 0.5960(7) 0.08548(19) 0.0898(6)
H79 H 0.5590 0.0786 0.0575
C96 C 0.6355(6) -0.10705(17) 0.5490(5)
H80 H 0.6325 -0.1221 0.5694
C97 C 0.3550(6) -0.26264(17) 0.5072(4)
H81 H 0.3491 -0.2779 0.4885
C98 C 1.1418(6) 0.24539(17) -0.1069(4)
H82 H 1.1433 0.2440 -0.1556
C99 C 1.1250(6) 0.44557(17) 0.3256(5)
H83 H 1.1080 0.4566 0.2917
C100 C 1.0950(6) 0.42075(18) 0.4190(5)
H84 H 1.0582 0.4141 0.4517
C101 C 1.0267(6) 0.17813(16) 0.1490(4)
H85 H 1.0444 0.1853 0.1074
C102 C 0.3186(5) -0.28877(15) 0.3070(4)
C103 C 1.0432(7) 0.0840(2) 0.0927(6)
H86 H 1.0234 0.0941 0.0574
C104 C 0.8629(6) 0.07293(16) -0.0946(4)
H87 H 0.8606 0.0596 -0.1236
C105 C 0.5372(6) -0.24647(18) 0.3948(5)
H88 H 0.5144 -0.2385 0.4334
C106 C 0.2006(6) -0.23099(16) 0.3012(4)
H89 H 0.2392 -0.2253 0.2683
C107 C 1.1405(6) 0.26657(16) -0.0753(4)
H90 H 1.1398 0.2804 -0.1022
C108 C 0.1336(6) -0.44577(17) -0.0457(4)
H91 H 0.1338 -0.4613 -0.0631
C109 C 0.6885(6) -0.04241(16) 0.2871(4)
C110 C 1.2747(5) 0.33444(14) 0.3284(4)
H92 H 1.2881 0.3352 0.3760
C111 C 0.8789(6) 0.25803(17) 0.1208(5)
H93 H 0.8402 0.2514 0.0895
C112 C 0.1329(6) -0.42543(17) -0.0916(5)
H94 H 0.1304 -0.4272 -0.1402
C113 C 0.8722(6) 0.11402(17) -0.0761(4)
H95 H 0.8744 0.1295 -0.0937
C114 C 1.3277(6) 0.25203(16) 0.0950(4)
H96 H 1.3094 0.2630 0.0615
C115 C 1.3688(6) 0.44260(17) 0.5781(4)
H97 H 1.3726 0.4578 0.5977
C116 C 0.0895(6) -0.24921(17) 0.3923(5)
H98 H 0.0520 -0.2558 0.4245
C117 C 0.7954(7) -0.10180(19) 0.2946(6)
H99 H 0.7563 -0.1075 0.2621
C118 C 0.2993(5) -0.43413(16) 0.2169(4)
H100 H 0.2616 -0.4399 0.2505
C119 C 0.5177(6) -0.26710(16) 0.2988(5)
H101 H 0.4821 -0.2745 0.2665
C120 C 0.7495(6) -0.00282(17) 0.3019(5)
H102 H 0.7473 -0.0050 0.3504
C121 C 0.7049(6) 0.10430(17) 0.1784(5)
H103 H 0.7439 0.1113 0.2087
C122 C 0.3681(6) -0.23724(16) 0.6043(4)
H104 H 0.3717 -0.2348 0.6527
C123 C 0.0616(6) -0.23559(18) 0.3381(5)
H105 H 0.0039 -0.2328 0.3327
C124 C 0.3598(6) -0.26022(17) 0.5769(4)
H106 H 0.3576 -0.2735 0.6063
C125 C 1.1364(6) 0.22857(17) 0.0078(4)
H107 H 1.1315 0.2153 0.0371
C126 C 0.2425(5) -0.32600(14) 0.3274(4)
H108 H 0.2372 -0.3218 0.3745
C127 C 0.9926(6) 0.27829(15) 0.2026(4)
H109 H 1.0318 0.2857 0.2318
C128 C -0.0375(6) -0.42083(17) 0.1237(5)
H110 H -0.0142 -0.4303 0.0886
C129 C 0.7802(6) 0.01787(17) 0.2754(5)
H111 H 0.7981 0.0297 0.3063
C130 C 0.6378(6) -0.08854(16) 0.5897(4)
H112 H 0.6374 -0.0903 0.6383
C131 C 0.3804(6) -0.43887(17) 0.2229(5)
H113 H 0.3991 -0.4475 0.2617
C132 C 1.0672(6) 0.43646(17) 0.3721(5)
H114 H 1.0107 0.4411 0.3708
C133 C 1.5420(6) 0.41534(17) 0.3995(5)
H115 H 1.5236 0.4272 0.4301
C134 C 1.2995(6) 0.22705(16) 0.1867(5)
H116 H 1.2611 0.2209 0.2191
C135 C 0.8796(7) -0.1087(2) 0.2857(6)
H117 H 0.8963 -0.1188 0.2493
C136 C 1.2613(5) 0.35360(14) 0.2167(4)
H118 H 1.2658 0.3673 0.1891
C137 C 0.4374(6) -0.43157(17) 0.1746(5)
H119 H 0.4942 -0.4358 0.1777
C138 C 1.2468(5) 0.31366(14) 0.2987(4)
H120 H 1.2425 0.3000 0.3263
C139 C 1.1263(8) 0.0801(2) 0.0959(6)
H121 H 1.1618 0.0863 0.0614
C140 C 1.2332(5) 0.33285(14) 0.1879(4)
H122 H 1.2195 0.3322 0.1403
C141 C 1.5936(6) 0.38144(16) 0.3108(5)
H123 H 1.6092 0.3697 0.2786
C142 C 1.5117(5) 0.38758(15) 0.3197(4)
H124 H 1.4715 0.3793 0.2934
C143 C 0.9641(6) 0.25227(17) 0.1158(5)
H125 H 0.9817 0.2407 0.0840
C144 C 0.1172(6) -0.22593(17) 0.2918(5)
H126 H 0.0990 -0.2162 0.2550
C145 C -0.0200(6) -0.39737(16) 0.2183(5)
H127 H 0.0160 -0.3895 0.2495
C146 C 0.3762(7) -0.08018(19) 0.3629(5)
H128 H 0.3396 -0.0885 0.3922
C147 C 1.1409(6) 0.22508(17) -0.0626(5)
H129 H 1.1433 0.2097 -0.0813
C148 C 0.2594(5) -0.33871(15) 0.1903(4)
H130 H 0.2662 -0.3432 0.1435
C149 C -0.1562(6) -0.40711(17) 0.1878(5)
H131 H -0.2144 -0.4066 0.1954
C150 C 0.2077(5) -0.34716(15) 0.3022(4)
H132 H 0.1787 -0.3571 0.3330
C151 C -0.1224(6) -0.41959(18) 0.1305(5)
H133 H -0.1577 -0.4269 0.0978
C152 C 1.4088(6) 0.24585(18) 0.0961(5)
H134 H 1.4473 0.2530 0.0656
C153 C 0.4885(6) -0.05780(18) 0.2807(5)
H135 H 0.5270 -0.0498 0.2521
C154 C 0.6553(6) -0.25766(18) 0.3351(5)
H136 H 0.7137 -0.2583 0.3293
C155 C 0.4048(7) -0.0543(2) 0.2697(6)
H137 H 0.3870 -0.0442 0.2339
C156 C 0.9067(7) -0.08825(19) 0.3882(6)
H138 H 0.9418 -0.0850 0.4263
C157 C 0.6011(6) -0.26836(17) 0.2870(5)
H139 H 0.6222 -0.2762 0.2476
C158 C 1.4359(6) 0.22804(17) 0.1449(5)
H140 H 1.4916 0.2227 0.1458
C159 C 1.6533(6) 0.39303(16) 0.3510(5)
H141 H 1.7104 0.3891 0.3479
C160 C -0.1043(6) -0.39624(17) 0.2300(5)
H142 H -0.1252 -0.3877 0.2682
C161 C 0.6222(6) 0.10967(18) 0.1865(5)
H143 H 0.6044 0.1197 0.2226
C162 C 0.8520(6) 0.27335(17) 0.1717(5)
H144 H 0.7946 0.2763 0.1784
C163 C 0.5654(6) 0.10004(18) 0.1407(5)
H145 H 0.5078 0.1033 0.1442
C164 C 0.7571(6) 0.00432(18) 0.1624(5)
H146 H 0.7590 0.0063 0.1139
C165 C 1.3789(6) 0.21957(17) 0.1887(5)
H147 H 1.3947 0.2081 0.2216
C166 C 1.6253(6) 0.41081(18) 0.3963(5)
H148 H 1.6634 0.4194 0.4239
C167 C 0.3448(7) -0.0658(2) 0.3120(6)
H149 H 0.2869 -0.0637 0.3054
C168 C 1.0191(7) 0.0603(2) 0.1821(6)
H150 H 0.9810 0.0528 0.2123
C169 C 0.2928(5) -0.31823(15) 0.2127(4)
H151 H 0.3219 -0.3084 0.1816
C170 C 0.9355(7) -0.0999(2) 0.3333(6)
H152 H 0.9934 -0.1021 0.3272
C171 C 0.7258(7) -0.01603(18) 0.1902(5)
H153 H 0.7056 -0.0278 0.1600
C172 C 1.1019(8) 0.0554(2) 0.1900(7)
H154 H 1.1211 0.0443 0.2228
C173 C 0.9091(6) 0.28386(17) 0.2110(5)
H155 H 0.8927 0.2951 0.2444
C174 C 1.1571(8) 0.0678(2) 0.1466(6)
H156 H 1.2152 0.0671 0.1541
N7 N 1.4848(4) 0.40407(12) 0.3620(3)
N8 N 1.3680(5) 0.41857(12) 0.4769(3)
N9 N 1.2358(4) 0.42369(13) 0.3752(4)
N10 N 1.2726(4) 0.24324(12) 0.1395(3)
N11 N 1.1387(5) 0.24970(13) 0.0359(3)
N12 N 1.0206(5) 0.26314(13) 0.1559(3)
N13 N 0.9887(5) 0.07492(16) 0.1348(4)
N14 N 0.8657(5) 0.08802(13) 0.0201(3)
N15 N 0.7327(5) 0.08963(13) 0.1296(4)
N16 N 0.7683(5) -0.08870(14) 0.3420(4)
N17 N 0.6352(5) -0.08401(13) 0.4489(4)
N18 N 0.5173(5) -0.07184(14) 0.3292(4)
N19 N 0.4829(5) -0.25648(13) 0.3513(4)
N20 N 0.3583(5) -0.24456(12) 0.4644(3)
N21 N 0.2287(4) -0.24321(12) 0.3532(3)
N22 N 0.2698(4) -0.42102(12) 0.1624(3)
N23 N 0.1395(5) -0.42031(14) 0.0516(4)
N24 N 0.0131(5) -0.40876(13) 0.1661(4)
Ni1 Ni 1.35868(7) 0.413296(17) 0.37284(5)
Ni2 Ni 1.14666(7) 0.253688(18) 0.14285(5)
Ni3 Ni 0.85994(7) 0.082291(17) 0.12643(5)
Ni4 Ni 0.64363(7) -0.079447(18) 0.34212(5)
Ni5 Ni 0.35565(7) -0.250541(18) 0.35845(5)
Ni6 Ni 0.14288(7) -0.414613(18) 0.15683(5)
O16 O 1.3944(4) 0.44680(10) 0.3575(3)
O17 O 1.3845(4) 0.44836(11) 0.2431(3)
O18 O 1.3233(4) 0.37748(9) 0.3821(3)
O19 O 1.3244(4) 0.39425(10) 0.2796(3)
O20 O 1.1832(4) 0.28915(10) 0.1348(3)
O21 O 1.1795(4) 0.27285(10) 0.2369(3)
O22 O 1.1112(4) 0.22015(10) 0.1565(3)
O23 O 1.1184(4) 0.21819(11) 0.2711(3)
O24 O 0.8914(4) 0.11587(10) 0.1444(3)
O25 O 0.8843(4) 0.11490(11) 0.2585(3)
O26 O 0.8285(4) 0.04678(10) 0.1139(3)
O27 O 0.8354(4) 0.06136(10) 0.2184(3)
O28 O 0.6741(4) -0.05934(12) 0.2479(3)
O29 O 0.6778(4) -0.04402(11) 0.3526(3)
O30 O 0.6142(4) -0.11494(11) 0.2132(3)
O31 O 0.6123(4) -0.11319(10) 0.3290(3)
O32 O 0.3809(4) -0.21753(11) 0.2258(3)
O33 O 0.3833(4) -0.21626(10) 0.3398(3)
O34 O 0.3338(4) -0.27294(11) 0.2659(3)
O35 O 0.3263(4) -0.28605(10) 0.3714(3)
O36 O 0.1711(4) -0.37902(10) 0.1448(3)
O37 O 0.1647(4) -0.39224(10) 0.2512(3)
O38 O 0.1151(4) -0.44861(10) 0.1738(3)
O39 O 0.1167(4) -0.44827(12) 0.2896(3)
C40A C -0.0241(5) -0.50986(14) 0.2946(4)
C42A C 1.5215(6) 0.50992(15) 0.2378(4)
C67A C -0.0234(6) -0.51016(15) 0.1703(4)
C68A C 1.5214(6) 0.51069(14) 0.3627(4)
C1 C 0.7489(12) 0.4959(3) 0.3637(7)
H1 H 0.7209 0.4880 0.3254
H2 H 0.8088 0.4935 0.3601
H3 H 0.7369 0.5127 0.3620
C2 C 0.7511(12) 0.4937(3) 0.4944(8)
H4 H 0.7236 0.4847 0.5309
H5 H 0.7402 0.5104 0.5011
H6 H 0.8109 0.4908 0.4962
C3 C 0.6633(11) 0.4671(3) 0.4258(7)
H7 H 0.6372 0.4616 0.3850
N1 N 0.7194(11) 0.4864(3) 0.4283(5)
O1 O 0.6514(11) 0.4572(3) 0.4925(6)
C175? C 0.809(2) 0.4987(7) 0.4220(18)
H157? H 0.8297 0.5028 0.3761
H158? H 0.8513 0.4894 0.4462
H159? H 0.7979 0.5130 0.4481
C176? C 0.717(2) 0.4704(7) 0.3564(12)
H160? H 0.6648 0.4620 0.3635
H161? H 0.7622 0.4592 0.3504
H162? H 0.7123 0.4802 0.3151
C177? C 0.693(2) 0.4788(6) 0.4793(14)
H163? H 0.6971 0.4870 0.5216
C178? C 0.244(3) 0.9970(7) 0.8237(12)
H164? H 0.2817 0.9884 0.7932
H165? H 0.2547 1.0139 0.8195
H166? H 0.1866 0.9937 0.8105
C179? C 0.206(2) 0.9996(6) 0.9483(16)
H167? H 0.2236 0.9933 0.9929
H168? H 0.1482 0.9956 0.9398
H169? H 0.2127 1.0167 0.9487
C180? C 0.309(2) 0.9695(6) 0.9086(14)
H170? H 0.3398 0.9609 0.8757
C181? C 0.2984(17) 0.3217(4) 0.6035(13)
H171? H 0.3145 0.3158 0.6490
H172? H 0.3481 0.3259 0.5773
H173? H 0.2678 0.3095 0.5788
C182? C 0.2238(18) 0.3540(5) 0.6745(8)
H174? H 0.2465 0.3455 0.7139
H175? H 0.1633 0.3548 0.6784
H176? H 0.2465 0.3699 0.6739
C183? C 0.2165(19) 0.3526(4) 0.5480(10)
H177? H 0.2295 0.3452 0.5056
C184? C 0.967(3) 0.6807(7) -0.0315(16)
H178? H 0.9884 0.6963 -0.0204
H179? H 0.9118 0.6822 -0.0522
H180? H 1.0043 0.6729 -0.0640
C185? C 0.950(3) 0.6416(5) 0.037(2)
H181? H 0.9156 0.6360 -0.0012
H182? H 0.9236 0.6379 0.0807
H183? H 1.0046 0.6339 0.0346
C186? C 1.0278(19) 0.6739(7) 0.0763(17)
H184? H 1.0736 0.6837 0.0658
C187? C 0.238(2) 0.3431(4) 0.9100(15)
H185? H 0.2229 0.3479 0.8633
H186? H 0.2744 0.3548 0.9307
H187? H 0.1876 0.3415 0.9379
C188? C 0.294(2) 0.3079(6) 0.8446(10)
H188? H 0.3254 0.2936 0.8548
H189? H 0.3258 0.3176 0.8122
H190? H 0.2407 0.3037 0.8240
C189? C 0.302(2) 0.3097(5) 0.9720(11)
H191? H 0.2874 0.3157 1.0160
C190? C 0.2520(11) 0.6633(3) 0.8402(6)
H192? H 0.2905 0.6554 0.8089
H193? H 0.2621 0.6802 0.8388
H194? H 0.1949 0.6601 0.8259
C191? C 0.2126(11) 0.6644(3) 0.9638(9)
H195? H 0.2271 0.6572 1.0080
H196? H 0.1543 0.6612 0.9533
H197? H 0.2212 0.6814 0.9666
C192? C 0.3190(10) 0.6353(3) 0.9233(6)
H198? H 0.3505 0.6271 0.8897
N25? N 0.7336(17) 0.4851(5) 0.4156(13)
N26? N 0.2557(12) 0.9928(2) 0.8921(6)
N27? N 0.2461(18) 0.3421(4) 0.6115(10)
N28? N 0.9611(19) 0.6669(5) 0.0311(13)
N29? N 0.2854(12) 0.3180(3) 0.9237(5)
N30? N 0.259(2) 0.6578(5) 0.9149(9)
O40? O 0.644(2) 0.4579(6) 0.4680(16)
O41? O 0.3178(9) 0.9628(2) 0.9565(6)
O42? O 0.1682(13) 0.3739(3) 0.5466(11)
O43? O 1.0090(18) 0.6625(6) 0.1414(14)
O44? O 0.3730(9) 0.2900(2) 0.9792(6)
O45? O 0.3367(15) 0.6294(4) 0.9742(11)
loop_
_geom_bond_atom_site_label_1
_geom_bond_atom_site_label_2
_geom_bond_site_symmetry_1
_geom_bond_site_symmetry_2
C1 H1 1_555 1_555
H2 C1 1_555 1_555
H3 C1 1_555 1_555
C2 H4 1_555 1_555
H5 C2 1_555 1_555
H6 C2 1_555 1_555
C3 H7 1_555 1_555
N1 C1 1_555 1_555
O1 C3 1_555 1_555
C4 H8 1_555 1_555
H9 C4 1_555 1_555
H10 C4 1_555 1_555
C5 H11 1_555 1_555
H12 C5 1_555 1_555
H13 C5 1_555 1_555
C6 H14 1_555 1_555
N2 C4 1_555 1_555
O2 C6 1_555 1_555
C7 H15 1_555 1_555
H16 C7 1_555 1_555
H17 C7 1_555 1_555
C8 H18 1_555 1_555
H19 C8 1_555 1_555
H20 C8 1_555 1_555
C9 H21 1_555 1_555
N3 C7 1_555 1_555
O3 C9 1_555 1_555
C10 H22 1_555 1_555
H23 C10 1_555 1_555
H24 C10 1_555 1_555
C11 H25 1_555 1_555
H26 C11 1_555 1_555
H27 C11 1_555 1_555
C12 H28 1_555 1_555
N4 C10 1_555 1_555
O4 C12 1_555 1_555
C13 H29 1_555 1_555
H30 C13 1_555 1_555
H31 C13 1_555 1_555
C14 H32 1_555 1_555
H33 C14 1_555 1_555
H34 C14 1_555 1_555
C15 H35 1_555 1_555
N5 C13 1_555 1_555
O5 C15 1_555 1_555
C16 H36 1_555 1_555
H37 C16 1_555 1_555
H38 C16 1_555 1_555
C17 H39 1_555 1_555
H40 C17 1_555 1_555
H41 C17 1_555 1_555
C18 H42 1_555 1_555
N6 C16 1_555 1_555
O6 C18 1_555 1_555
C19 C20 1_555 1_555
C20 C21 1_555 1_555
C21 C22 1_555 1_555
C22 C23 1_555 1_555
C23 C24 1_555 1_555
C24 C19 1_555 1_555
C25 C26 1_555 1_555
C26 C27 1_555 1_555
C27 C28 1_555 1_555
C28 C29 1_555 1_555
C29 C30 1_555 1_555
C30 C25 1_555 1_555
C31 C32 1_555 1_555
C32 C32A 1_555 1_555
C33 C31 1_555 1_555
C34 C35 1_555 1_555
C35 C36 1_555 1_555
C36 C36A 1_555 1_555
C37 C41 1_555 1_555
C38 C46 1_555 1_555
C39 C58 1_555 1_555
C40 H43 1_555 1_555
C41 C42 1_555 1_555
C42 H44 1_555 1_555
C43 C61 1_555 1_555
C44 C109 1_555 1_555
C45 H45 1_555 1_555
C46 C40 1_555 1_555
C47 H46 1_555 1_555
C48 H47 1_555 1_555
C49 C55 1_555 1_555
C50 H48 1_555 1_555
C51 C60 1_555 1_555
C52 H49 1_555 1_555
C53 C63 1_555 1_555
C54 H50 1_555 1_555
C55 C129 1_555 1_555
C56 C71 1_555 1_555
C57 C92 1_555 1_555
C58 C47 1_555 1_555
C59 H51 1_555 1_555
C60 C69 1_555 1_555
C61 C50 1_555 1_555
C62 C89 1_555 1_555
C63 C110 1_555 1_555
C64 H52 1_555 1_555
C65 C47 1_555 1_555
H53 C65 1_555 1_555
C66 H54 1_555 1_555
C67 C46 1_555 1_555
H55 C67 1_555 1_555
C68 C41 1_555 1_555
H56 C68 1_555 1_555
C69 C50 1_555 1_555
H57 C69 1_555 1_555
C70 C54 1_555 1_555
H58 C70 1_555 1_555
C71 C65 1_555 1_555
C72 H59 1_555 1_555
C73 C64 1_555 1_555
H60 C73 1_555 1_555
C74 C52 1_555 1_555
H61 C74 1_555 1_555
C75 H62 1_555 1_555
C76 H63 1_555 1_555
C77 C61 1_555 1_555
H64 C77 1_555 1_555
C78 H65 1_555 1_555
C79 H66 1_555 1_555
C80 H67 1_555 1_555
C81 H68 1_555 1_555
C82 H69 1_555 1_555
C83 H70 1_555 1_555
C84 C58 1_555 1_555
H71 C84 1_555 1_555
C85 C71 1_555 1_555
H72 C85 1_555 1_555
C86 C83 1_555 1_555
H73 C86 1_555 1_555
C87 H74 1_555 1_555
C88 H75 1_555 1_555
C89 O20 1_555 1_555
C90 C102 1_555 1_555
C91 H76 1_555 1_555
C92 O36 1_555 1_555
C93 H77 1_555 1_555
C94 C45 1_555 1_555
H78 C94 1_555 1_555
C95 C79 1_555 1_555
H79 C95 1_555 1_555
C96 C66 1_555 1_555
H80 C96 1_555 1_555
C97 H81 1_555 1_555
C98 H82 1_555 1_555
C99 C87 1_555 1_555
H83 C99 1_555 1_555
C100 C59 1_555 1_555
H84 C100 1_555 1_555
C101 C60 1_555 1_555
H85 C101 1_555 1_555
C102 O34 1_555 1_555
C103 H86 1_555 1_555
C104 C48 1_555 1_555
H87 C104 1_555 1_555
C105 C75 1_555 1_555
H88 C105 1_555 1_555
C106 H89 1_555 1_555
C107 C80 1_555 1_555
H90 C107 1_555 1_555
C108 C78 1_555 1_555
H91 C108 1_555 1_555
C109 O28 1_555 1_555
C110 H92 1_555 1_555
C111 H93 1_555 1_555
C112 C52 1_555 1_555
H94 C112 1_555 1_555
C113 C81 1_555 1_555
H95 C113 1_555 1_555
C114 H96 1_555 1_555
C115 C76 1_555 1_555
H97 C115 1_555 1_555
C116 C93 1_555 1_555
H98 C116 1_555 1_555
C117 H99 1_555 1_555
C118 H100 1_555 1_555
C119 H101 1_555 1_555
C120 C44 1_555 1_555
H102 C120 1_555 1_555
C121 H103 1_555 1_555
C122 C83 1_555 1_555
H104 C122 1_555 1_555
C123 C116 1_555 1_555
H105 C123 1_555 1_555
C124 C97 1_555 1_555
H106 C124 1_555 1_555
C125 H107 1_555 1_555
C126 C90 1_555 1_555
H108 C126 1_555 1_555
C127 H109 1_555 1_555
C128 H110 1_555 1_555
C129 C120 1_555 1_555
H111 C129 1_555 1_555
C130 C70 1_555 1_555
H112 C130 1_555 1_555
C131 C118 1_555 1_555
H113 C131 1_555 1_555
C132 C99 1_555 1_555
H114 C132 1_555 1_555
C133 H115 1_555 1_555
C134 H116 1_555 1_555
C135 C117 1_555 1_555
H117 C135 1_555 1_555
C136 C63 1_555 1_555
H118 C136 1_555 1_555
C137 C64 1_555 1_555
H119 C137 1_555 1_555
C138 C62 1_555 1_555
H120 C138 1_555 1_555
C139 C103 1_555 1_555
H121 C139 1_555 1_555
C140 C62 1_555 1_555
H122 C140 1_555 1_555
C141 H123 1_555 1_555
C142 C141 1_555 1_555
H124 C142 1_555 1_555
C143 C111 1_555 1_555
H125 C143 1_555 1_555
C144 C106 1_555 1_555
H126 C144 1_555 1_555
C145 H127 1_555 1_555
C146 C72 1_555 1_555
H128 C146 1_555 1_555
C147 C98 1_555 1_555
H129 C147 1_555 1_555
C148 C57 1_555 1_555
H130 C148 1_555 1_555
C149 H131 1_555 1_555
C150 C57 1_555 1_555
H132 C150 1_555 1_555
C151 C128 1_555 1_555
H133 C151 1_555 1_555
C152 C114 1_555 1_555
H134 C152 1_555 1_555
C153 H135 1_555 1_555
C154 C75 1_555 1_555
H136 C154 1_555 1_555
C155 C153 1_555 1_555
H137 C155 1_555 1_555
C156 C88 1_555 1_555
H138 C156 1_555 1_555
C157 C119 1_555 1_555
H139 C157 1_555 1_555
C158 C152 1_555 1_555
H140 C158 1_555 1_555
C159 C141 1_555 1_555
H141 C159 1_555 1_555
C160 C145 1_555 1_555
H142 C160 1_555 1_555
C161 C121 1_555 1_555
H143 C161 1_555 1_555
C162 C111 1_555 1_555
H144 C162 1_555 1_555
C163 C95 1_555 1_555
H145 C163 1_555 1_555
C164 C55 1_555 1_555
H146 C164 1_555 1_555
C165 C134 1_555 1_555
H147 C165 1_555 1_555
C166 C133 1_555 1_555
H148 C166 1_555 1_555
C167 C146 1_555 1_555
H149 C167 1_555 1_555
C168 H150 1_555 1_555
C169 C90 1_555 1_555
H151 C169 1_555 1_555
C170 C135 1_555 1_555
H152 C170 1_555 1_555
C171 C44 1_555 1_555
H153 C171 1_555 1_555
C172 C168 1_555 1_555
H154 C172 1_555 1_555
C173 C127 1_555 1_555
H155 C173 1_555 1_555
C174 C139 1_555 1_555
H156 C174 1_555 1_555
N7 C133 1_555 1_555
N8 C45 1_555 1_555
N9 C59 1_555 1_555
N10 C114 1_555 1_555
N11 C80 1_555 1_555
N12 C127 1_555 1_555
N13 C103 1_555 1_555
N14 C48 1_555 1_555
N15 C79 1_555 1_555
N16 C88 1_555 1_555
N17 C54 1_555 1_555
N18 C72 1_555 1_555
N19 C105 1_555 1_555
N20 C86 1_555 1_555
N21 C93 1_555 1_555
N22 C73 1_555 1_555
N23 C74 1_555 1_555
N24 C128 1_555 1_555
Ni1 N7 1_555 1_555
Ni2 N10 1_555 1_555
Ni3 N13 1_555 1_555
Ni4 N16 1_555 1_555
Ni5 N19 1_555 1_555
Ni6 N22 1_555 1_555
O16 C37 1_555 1_555
O17 C37 1_555 1_555
O18 C53 1_555 1_555
O19 C53 1_555 1_555
O20 Ni2 1_555 1_555
O21 C89 1_555 1_555
O22 C51 1_555 1_555
O23 C51 1_555 1_555
O24 C43 1_555 1_555
O25 C43 1_555 1_555
O26 C49 1_555 1_555
O27 C49 1_555 1_555
O28 Ni4 1_555 1_555
O29 C109 1_555 1_555
O30 C39 1_555 1_555
O31 C39 1_555 1_555
O32 C56 1_555 1_555
O33 C56 1_555 1_555
O34 Ni5 1_555 1_555
O35 C102 1_555 1_555
O36 Ni6 1_555 1_555
O37 C92 1_555 1_555
O38 C38 1_555 1_555
O39 C38 1_555 1_555
C33A C33 1_555 1_555
C34A C34 1_555 1_555
C40A C40 1_555 1_555
C42A C42 1_555 1_555
C67A C67 1_555 1_555
C68A C68 1_555 1_555
C2 N1 1_555 1_555
C3 N1 1_555 1_555
C5 N2 1_555 1_555
C6 N2 1_555 1_555
C8 N3 1_555 1_555
C9 N3 1_555 1_555
C11 N4 1_555 1_555
C12 N4 1_555 1_555
C14 N5 1_555 1_555
C15 N5 1_555 1_555
C17 N6 1_555 1_555
C18 N6 1_555 1_555
C66 N17 1_555 1_555
C76 N8 1_555 1_555
C77 C101 1_555 1_555
C78 N23 1_555 1_555
C81 N14 1_555 1_555
C82 C104 1_555 1_555
C82 C113 1_555 1_555
C84 C85 1_555 1_555
C87 N9 1_555 1_555
C91 C94 1_555 1_555
C91 C115 1_555 1_555
C96 C130 1_555 1_555
C97 N20 1_555 1_555
C98 C107 1_555 1_555
C100 C132 1_555 1_555
C106 N21 1_555 1_555
C108 C112 1_555 1_555
C110 C138 1_555 1_555
C117 N16 1_555 1_555
C118 N22 1_555 1_555
C119 N19 1_555 1_555
C121 N15 1_555 1_555
C122 C124 1_555 1_555
C123 C144 1_555 1_555
C125 C147 1_555 1_555
C125 N11 1_555 1_555
C126 C150 1_555 1_555
C131 C137 1_555 1_555
C134 N10 1_555 1_555
C136 C140 1_555 1_555
C142 N7 1_555 1_555
C143 N12 1_555 1_555
C145 N24 1_555 1_555
C148 C169 1_555 1_555
C149 C151 1_555 1_555
C149 C160 1_555 1_555
C153 N18 1_555 1_555
C154 C157 1_555 1_555
C155 C167 1_555 1_555
C156 C170 1_555 1_555
C158 C165 1_555 1_555
C159 C166 1_555 1_555
C161 C163 1_555 1_555
C162 C173 1_555 1_555
C164 C171 1_555 1_555
C168 N13 1_555 1_555
C172 C174 1_555 1_555
N8 Ni1 1_555 1_555
N9 Ni1 1_555 1_555
N11 Ni2 1_555 1_555
N12 Ni2 1_555 1_555
N14 Ni3 1_555 1_555
N15 Ni3 1_555 1_555
N17 Ni4 1_555 1_555
N18 Ni4 1_555 1_555
N20 Ni5 1_555 1_555
N21 Ni5 1_555 1_555
N23 Ni6 1_555 1_555
N24 Ni6 1_555 1_555
Ni1 O16 1_555 1_555
Ni1 O18 1_555 1_555
Ni1 O19 1_555 1_555
Ni2 O21 1_555 1_555
Ni2 O22 1_555 1_555
Ni3 O24 1_555 1_555
Ni3 O26 1_555 1_555
Ni3 O27 1_555 1_555
Ni4 O29 1_555 1_555
Ni4 O31 1_555 1_555
Ni5 O33 1_555 1_555
Ni5 O35 1_555 1_555
Ni6 O37 1_555 1_555
Ni6 O38 1_555 1_555

#END
