
#######################################################################
#
#                 Cambridge Crystallographic Data Centre
#                                CCDC 
#
#######################################################################
#
# If this CIF has been generated from an entry in the Cambridge 
# Structural Database, then it will include bibliographic, chemical, 
# crystal, experimental, refinement or atomic coordinate data resulting 
# from the CCDC's data processing and validation procedures.
#
#######################################################################

data_AMAPUZ
_symmetry_cell_setting           monoclinic
_symmetry_space_group_name_H-M   'P 21/n'
_symmetry_Int_Tables_number      14
_space_group_name_Hall           '-P 2yn'
loop_
_symmetry_equiv_pos_site_id
_symmetry_equiv_pos_as_xyz
1 x,y,z
2 1/2-x,1/2+y,1/2-z
3 -x,-y,-z
4 1/2+x,1/2-y,1/2+z
_cell_length_a                   12.368(5)
_cell_length_b                   15.382(5)
_cell_length_c                   23.340(8)
_cell_angle_alpha                90
_cell_angle_beta                 91.41(2)
_cell_angle_gamma                90
_cell_volume                     4438.96
loop_
_atom_site_label
_atom_site_type_symbol
_atom_site_fract_x
_atom_site_fract_y
_atom_site_fract_z
Zn1 Zn 1.0000 0.0000 0.5000
Zn2 Zn 0.3348 -0.0164 0.8349
O1 O 1.1112 0.0282 0.5664
O2 O 0.8722 -0.0007 0.5581
O3 O 0.9597 0.0021 0.6432
O4 O 0.3797 -0.0479 0.6945
O5 O 0.4633 -0.0146 0.7778
O6 O 0.2257 -0.0025 0.7657
O7 O 0.4485 -0.0293 0.9029
O8 O 0.2053 -0.0164 0.8908
O9 O 0.2913 0.0059 0.9750
N1 N 0.3254 -0.1580 0.8314
N2 N 0.3403 0.1259 0.8391
N6 N 1.0223 -0.1390 0.5116
C1 C 0.9356 -0.1919 0.5117
C2 C 1.1196 -0.1769 0.5130
C3 C 0.9430 -0.2820 0.5127
C4 C 1.1337 -0.2670 0.5140
C5 C 1.0449 -0.3202 0.5136
C6 C 0.8756 -0.0023 0.6117
C7 C 0.7677 -0.0093 0.6414
C8 C 0.6773 -0.0378 0.6107
C9 C 0.7593 0.0135 0.6991
C10 C 0.5783 -0.0448 0.6375
C11 C 0.6603 0.0077 0.7257
C12 C 0.5692 -0.0217 0.6952
C13 C 0.4618 -0.0286 0.7249
C14 C 0.2371 -0.2014 0.8148
C15 C 0.4139 -0.2055 0.8455
C16 C 0.2334 -0.2916 0.8112
C17 C 0.4157 -0.2960 0.8434
C18 C 0.3254 -0.3398 0.8257
C19 C 0.2472 0.1717 0.8419
C20 C 0.4323 0.1717 0.8350
C21 C 0.2433 0.2617 0.8408
C22 C 0.4352 0.2625 0.8337
C23 C 0.3390 0.3082 0.8366
C24 C 0.2079 -0.0038 0.9438
C25 C 0.0993 -0.0015 0.9731
C26 C 0.0077 -0.0309 0.9442
C27 C 0.0926 0.0301 1.0294
H1 H 0.8660 -0.1657 0.5110
H2 H 1.1818 -0.1407 0.5133
H3 H 0.8798 -0.3170 0.5128
H4 H 1.2043 -0.2913 0.5148
H5 H 1.0529 -0.3816 0.5140
H6 H 0.6832 -0.0523 0.5713
H7 H 0.8213 0.0337 0.7199
H8 H 0.5165 -0.0653 0.6167
H9 H 0.6545 0.0233 0.7649
H10 H 0.1739 -0.1690 0.8050
H11 H 0.4778 -0.1755 0.8572
H12 H 0.1686 -0.3205 0.7994
H13 H 0.4794 -0.3269 0.8545
H14 H 0.3254 -0.4014 0.8229
H15 H 0.1814 0.1404 0.8450
H16 H 0.4983 0.1404 0.8328
H17 H 0.1761 0.2913 0.8426
H18 H 0.5020 0.2923 0.8307
H19 H 0.3385 0.3699 0.8361
H20 H 0.0128 -0.0523 0.9062
C27B C -0.0926 -0.0301 0.9706
C25B C -0.0993 0.0015 1.0269
C24B C -0.2079 0.0038 1.0562
O8B O -0.2053 0.0164 1.1092
O9B O -0.2913 -0.0059 1.0250
C26B C -0.0077 0.0309 1.0558
H20B H -0.0128 0.0523 1.0938
O1B O 0.8888 -0.0282 0.4336
O2B O 1.1278 0.0007 0.4419
O3B O 1.0403 -0.0021 0.3568
O4B O 1.6203 0.0479 0.3055
O5B O 1.5367 0.0146 0.2222
C6B C 1.1244 0.0023 0.3883
C7B C 1.2323 0.0093 0.3586
C8B C 1.3227 0.0378 0.3893
C9B C 1.2407 -0.0135 0.3009
C10B C 1.4217 0.0448 0.3625
C11B C 1.3397 -0.0077 0.2743
C12B C 1.4308 0.0217 0.3048
C13B C 1.5382 0.0286 0.2751
H6B H 1.3168 0.0523 0.4287
H7B H 1.1787 -0.0337 0.2801
H8B H 1.4835 0.0653 0.3833
H9B H 1.3455 -0.0233 0.2351
N6B N 0.9777 0.1390 0.4884
C1B C 1.0644 0.1919 0.4883
C2B C 0.8804 0.1769 0.4870
C3B C 1.0570 0.2820 0.4873
C4B C 0.8663 0.2670 0.4860
C5B C 0.9551 0.3202 0.4864
H1B H 1.1340 0.1657 0.4890
H2B H 0.8182 0.1407 0.4867
H3B H 1.1202 0.3170 0.4872
H4B H 0.7957 0.2913 0.4852
H5B H 0.9471 0.3816 0.4860
Zn2B Zn 1.6652 0.0164 0.1651
O6B O 1.7743 0.0025 0.2343
O7B O 1.5515 0.0293 0.0971
N1B N 1.6746 0.1580 0.1686
C14B C 1.7629 0.2014 0.1852
C15B C 1.5861 0.2055 0.1545
C16B C 1.7666 0.2916 0.1888
C17B C 1.5843 0.2960 0.1566
C18B C 1.6746 0.3398 0.1743
H10B H 1.8261 0.1690 0.1950
H11B H 1.5222 0.1755 0.1428
H12B H 1.8314 0.3205 0.2006
H13B H 1.5206 0.3269 0.1455
H14B H 1.6746 0.4014 0.1771
N2B N 1.6597 -0.1259 0.1609
C19B C 1.7528 -0.1717 0.1581
C20B C 1.5677 -0.1717 0.1650
C21B C 1.7567 -0.2617 0.1592
C22B C 1.5648 -0.2625 0.1663
C23B C 1.6610 -0.3082 0.1634
H15B H 1.8186 -0.1404 0.1550
H16B H 1.5017 -0.1404 0.1672
H17B H 1.8239 -0.2913 0.1574
H18B H 1.4980 -0.2923 0.1693
H19B H 1.6615 -0.3699 0.1639
Zn2B_2 Zn -0.3348 0.0164 1.1651
O8B_2 O 1.7947 0.0164 0.1092
O10 O 1.0201 -0.0485 0.7516
O11 O 0.8498 -0.4680 0.5856
O12 O 1.1842 -0.5278 0.9184
N3 N 0.8812 -0.1530 0.8147
C28 C 0.7895 -0.1306 0.8404
C29 C 0.9166 -0.2348 0.8228
C30 C 0.7329 -0.1868 0.8737
C31 C 0.8644 -0.2959 0.8561
C32 C 0.7699 -0.2712 0.8816
H21 H 0.7632 -0.0730 0.8350
H22 H 0.9812 -0.2515 0.8046
H23 H 0.6683 -0.1684 0.8913
H24 H 0.8932 -0.3527 0.8614
H25 H 0.7308 -0.3115 0.9040
N4 N 0.7049 -0.3675 0.6485
C33 C 0.7464 -0.2897 0.6621
C34 C 0.6104 -0.3878 0.6720
C35 C 0.6998 -0.2310 0.6990
C36 C 0.5564 -0.3334 0.7085
C37 C 0.6018 -0.2534 0.7224
H26 H 0.8129 -0.2741 0.6453
H27 H 0.5796 -0.4428 0.6628
H28 H 0.7336 -0.1770 0.7078
H29 H 0.4889 -0.3500 0.7237
H30 H 0.5667 -0.2147 0.7476
N5 N 1.0806 -0.3746 0.9629
C38 C 1.1438 -0.3072 0.9646
C39 C 0.9917 -0.3715 0.9921
C40 C 1.1240 -0.2346 0.9949
C41 C 1.0341 -0.2282 1.0263
C42 C 0.9625 -0.3019 1.0259
H31 H 1.2085 -0.3095 0.9436
H32 H 0.9449 -0.4204 0.9898
H33 H 1.1732 -0.1872 0.9941
H34 H 1.0192 -0.1773 1.0478
H35 H 0.8985 -0.3024 1.0476
loop_
_geom_bond_atom_site_label_1
_geom_bond_atom_site_label_2
_geom_bond_site_symmetry_1
_geom_bond_site_symmetry_2
Zn1 O1 1_555 1_555
Zn2 O5 1_555 1_555
O2 Zn1 1_555 1_555
O3 C6 1_555 1_555
O4 C13 1_555 1_555
O5 C13 1_555 1_555
O6 Zn2 1_555 1_555
O7 Zn2 1_555 1_555
O8 Zn2 1_555 1_555
O9 C24 1_555 1_555
N1 Zn2 1_555 1_555
N2 Zn2 1_555 1_555
N3 C28 1_555 1_555
N4 C33 1_555 1_555
N5 C38 1_555 1_555
N6 Zn1 1_555 1_555
C1 N6 1_555 1_555
C2 N6 1_555 1_555
C3 C1 1_555 1_555
C4 C2 1_555 1_555
C5 C3 1_555 1_555
C6 O2 1_555 1_555
C7 C6 1_555 1_555
C8 C7 1_555 1_555
C9 C7 1_555 1_555
C10 C8 1_555 1_555
C11 C9 1_555 1_555
C12 C10 1_555 1_555
C13 C12 1_555 1_555
C14 N1 1_555 1_555
C15 N1 1_555 1_555
C16 C14 1_555 1_555
C17 C15 1_555 1_555
C18 C16 1_555 1_555
C19 N2 1_555 1_555
C20 N2 1_555 1_555
C21 C19 1_555 1_555
C22 C20 1_555 1_555
C23 C21 1_555 1_555
C24 O8 1_555 1_555
C25 C24 1_555 1_555
C26 C25 1_555 1_555
C27 C25 1_555 1_555
C28 C30 1_555 1_555
C29 N3 1_555 1_555
C30 C32 1_555 1_555
C31 C29 1_555 1_555
C32 C31 1_555 1_555
C33 C35 1_555 1_555
C34 N4 1_555 1_555
C35 C37 1_555 1_555
C36 C34 1_555 1_555
C37 C36 1_555 1_555
C38 C40 1_555 1_555
C39 N5 1_555 1_555
C40 C41 1_555 1_555
C41 C42 1_555 1_555
C42 C39 1_555 1_555
H1 C1 1_555 1_555
H2 C2 1_555 1_555
H3 C3 1_555 1_555
H4 C4 1_555 1_555
H5 C5 1_555 1_555
H6 C8 1_555 1_555
H7 C9 1_555 1_555
H8 C10 1_555 1_555
H9 C11 1_555 1_555
H10 C14 1_555 1_555
H11 C15 1_555 1_555
H12 C16 1_555 1_555
H13 C17 1_555 1_555
H14 C18 1_555 1_555
H15 C19 1_555 1_555
H16 C20 1_555 1_555
H17 C21 1_555 1_555
H18 C22 1_555 1_555
H19 C23 1_555 1_555
H20 C26 1_555 1_555
H21 C28 1_555 1_555
H22 C29 1_555 1_555
H23 C30 1_555 1_555
H24 C31 1_555 1_555
H25 C32 1_555 1_555
H26 C33 1_555 1_555
H27 C34 1_555 1_555
H28 C35 1_555 1_555
H29 C36 1_555 1_555
H30 C37 1_555 1_555
H31 C38 1_555 1_555
H32 C39 1_555 1_555
H33 C40 1_555 1_555
H34 C41 1_555 1_555
H35 C42 1_555 1_555
C27B C26 1_555 1_555
C25B C27B 1_555 1_555
C24B C25B 1_555 1_555
O8B C24B 1_555 1_555
O9B C24B 1_555 1_555
C26B C27 1_555 1_555
H20B C26B 1_555 1_555
O1B Zn1 1_555 1_555
O2B Zn1 1_555 1_555
O3B C6B 1_555 1_555
O4B C13B 1_555 1_555
O5B C13B 1_555 1_555
C6B O2B 1_555 1_555
C7B C6B 1_555 1_555
C8B C7B 1_555 1_555
C9B C7B 1_555 1_555
C10B C8B 1_555 1_555
C11B C9B 1_555 1_555
C12B C10B 1_555 1_555
C13B C12B 1_555 1_555
H6B C8B 1_555 1_555
H7B C9B 1_555 1_555
H8B C10B 1_555 1_555
H9B C11B 1_555 1_555
N6B Zn1 1_555 1_555
C1B N6B 1_555 1_555
C2B N6B 1_555 1_555
C3B C1B 1_555 1_555
C4B C2B 1_555 1_555
C5B C3B 1_555 1_555
H1B C1B 1_555 1_555
H2B C2B 1_555 1_555
H3B C3B 1_555 1_555
H4B C4B 1_555 1_555
H5B C5B 1_555 1_555
Zn2B O5B 1_555 1_555
O6B Zn2B 1_555 1_555
O7B Zn2B 1_555 1_555
N1B Zn2B 1_555 1_555
C14B N1B 1_555 1_555
C15B N1B 1_555 1_555
C16B C14B 1_555 1_555
C17B C15B 1_555 1_555
C18B C16B 1_555 1_555
H10B C14B 1_555 1_555
H11B C15B 1_555 1_555
H12B C16B 1_555 1_555
H13B C17B 1_555 1_555
H14B C18B 1_555 1_555
N2B Zn2B 1_555 1_555
C19B N2B 1_555 1_555
C20B N2B 1_555 1_555
C21B C19B 1_555 1_555
C22B C20B 1_555 1_555
C23B C21B 1_555 1_555
H15B C19B 1_555 1_555
H16B C20B 1_555 1_555
H17B C21B 1_555 1_555
H18B C22B 1_555 1_555
H19B C23B 1_555 1_555
Zn2B_2 O8B 1_555 1_555
O8B_2 Zn2B 1_555 1_555
C4 C5 1_555 1_555
C11 C12 1_555 1_555
C17 C18 1_555 1_555
C22 C23 1_555 1_555
C25B C26B 1_555 1_555
C11B C12B 1_555 1_555
C4B C5B 1_555 1_555
C17B C18B 1_555 1_555
C22B C23B 1_555 1_555

#END
