
#######################################################################
#
#                 Cambridge Crystallographic Data Centre
#                                CCDC 
#
#######################################################################
#
# If this CIF has been generated from an entry in the Cambridge 
# Structural Database, then it will include bibliographic, chemical, 
# crystal, experimental, refinement or atomic coordinate data resulting 
# from the CCDC's data processing and validation procedures.
#
#######################################################################

data_AMAQAG
_symmetry_cell_setting           triclinic
_symmetry_space_group_name_H-M   'P 1'
_symmetry_Int_Tables_number      1
_space_group_name_Hall           'P 1'
loop_
_symmetry_equiv_pos_site_id
_symmetry_equiv_pos_as_xyz
1 x,y,z
_cell_length_a                   9.1818(8)
_cell_length_b                   9.7958(9)
_cell_length_c                   12.8848(12)
_cell_angle_alpha                90.244(2)
_cell_angle_beta                 90.017(2)
_cell_angle_gamma                90.381(2)
_cell_volume                     1158.86
loop_
_atom_site_label
_atom_site_type_symbol
_atom_site_fract_x
_atom_site_fract_y
_atom_site_fract_z
C1 C 0.0110(10) 1.3866(9) 1.2076(7)
H1 H 0.0778 1.4522 1.2344
C2 C -0.1418(10) 1.4155(10) 1.2143(8)
H2 H -0.1746 1.4992 1.2432
C3 C -0.2368(10) 1.3227(9) 1.1791(8)
H3 H -0.3384 1.3389 1.1845
C4 C -0.1860(9) 1.1998(9) 1.1334(7)
H4 H -0.2506 1.1328 1.1058
C5 C -0.0279(9) 1.1829(9) 1.1316(7)
H5 H 0.0102 1.1007 1.1034
C6 C 0.3992(10) 1.5186(9) 1.0583(8)
H6 H 0.4626 1.5145 1.1165
C7 C 0.4140(11) 1.6252(10) 0.9865(8)
H7 H 0.4833 1.6957 0.9992
C8 C 0.3360(11) 1.6292(10) 0.9043(8)
H8 H 0.3515 1.7005 0.8557
C9 C 0.2262(12) 1.5288(10) 0.8839(8)
H9 H 0.1676 1.5299 0.8231
C10 C 0.2111(11) 1.4255(9) 0.9625(7)
H10 H 0.1376 1.3576 0.9542
C11 C 0.4131(11) 0.9734(9) 1.2319(8)
H11 H 0.4761 0.9810 1.1737
C12 C 0.4377(12) 0.8711(11) 1.2985(10)
H12 H 0.5207 0.8147 1.2907
C13 C 0.3365(12) 0.8483(11) 1.3818(9)
H13 H 0.3462 0.7721 1.4266
C14 C 0.2222(11) 0.9427(10) 1.3950(8)
H14 H 0.1570 0.9348 1.4519
C15 C 0.2065(10) 1.0485(10) 1.3225(7)
H15 H 0.1259 1.1081 1.3298
C16 C 0.5821(11) 1.0222(9) 0.5634(8)
H16 H 0.5112 1.0049 0.6155
C17 C 0.5663(12) 1.1392(11) 0.4974(9)
H17 H 0.4920 1.2042 0.5103
C18 C 0.6590(12) 1.1553(12) 0.4168(9)
H18 H 0.6447 1.2258 0.3676
C19 C 0.7728(11) 1.0685(10) 0.4078(8)
H19 H 0.8443 1.0827 0.3556
C20 C 0.7843(11) 0.9593(10) 0.4749(7)
H20 H 0.8609 0.8959 0.4650
C21 C 1.0318(9) 0.8277(9) 0.6653(7)
H21 H 0.9966 0.9086 0.6971
C22 C 1.1738(10) 0.8092(10) 0.6610(7)
H22 H 1.2370 0.8772 0.6889
C23 C 1.2333(10) 0.6926(9) 0.6164(8)
H23 H 1.3355 0.6780 0.6154
C24 C 1.1321(10) 0.5941(10) 0.5715(8)
H24 H 1.1673 0.5149 0.5372
C25 C 0.9871(10) 0.6164(9) 0.5792(7)
H25 H 0.9217 0.5496 0.5521
C26 C 0.7843(11) 0.5759(10) 0.8362(8)
H26 H 0.8557 0.6446 0.8490
C27 C 0.7724(11) 0.4742(11) 0.9048(8)
H27 H 0.8376 0.4720 0.9620
C28 C 0.6686(10) 0.3726(10) 0.8951(8)
H28 H 0.6577 0.3025 0.9454
C29 C 0.5751(10) 0.3794(9) 0.8016(7)
H29 H 0.5003 0.3139 0.7893
C30 C 0.6013(10) 0.4856(9) 0.7326(8)
H30 H 0.5462 0.4867 0.6702
C31 C 0.6539(10) 0.6256(9) 0.4399(7)
C32 C 0.5542(10) 0.5403(9) 0.3781(7)
C33 C 0.4414(10) 0.4700(10) 0.4153(8)
C34 C 0.3391(10) 0.3816(9) 0.3458(7)
C35 C 0.6072(10) 0.8938(9) 0.8003(7)
C36 C 0.5634(11) 0.9826(9) 0.8926(8)
C37 C 0.3818(10) 1.1108(9) 0.9950(7)
C38 C 0.4288(9) 1.0291(9) 0.9043(7)
H41 H 0.579(6) 0.520(5) 0.298(4)
H42 H 0.417(6) 0.458(5) 0.480(4)
H43 H 0.360(4) 0.989(4) 0.857(3)
H44 H 0.633(4) 0.979(4) 0.949(3)
N3 N 0.0634(8) 1.2744(7) 1.1665(6)
N4 N 0.2947(8) 1.4212(8) 1.0451(6)
N5 N 0.3012(8) 1.0705(8) 1.2415(6)
N6 N 0.6908(8) 0.9401(8) 0.5533(6)
N7 N 0.9301(8) 0.7336(7) 0.6252(6)
N8 N 0.6996(8) 0.5877(8) 0.7478(6)
Ni1 Ni 0.71092(5) 0.76116(5) 0.65047(4)
Ni2 Ni 0.28707(6) 1.24371(5) 1.14590(4)
O1 O 0.2498(7) 1.1211(6) 1.0141(5)
O2 O 0.4775(7) 1.1694(7) 1.0551(5)
O3 O 0.3829(7) 0.3609(6) 0.2566(5)
O4 O 0.2262(7) 0.3381(7) 0.3921(5)
O5 O 0.7704(7) 0.6665(7) 0.4028(5)
O6 O 0.6149(7) 0.6492(6) 0.5388(5)
O7 O 0.5166(7) 0.8345(6) 0.7436(5)
O8 O 0.7478(7) 0.8849(6) 0.7826(5)
Ni2_2 Ni 0.28707(6) 0.24371(5) 0.14590(4)
O3_2 O 0.3829(7) 1.3609(6) 1.2566(5)
N1 N 0.1874(6) 0.1619(9) 0.7177(5)
C39 C 0.0746(7) 0.1528(8) 0.7854(5)
H31 H 0.0926 0.1212 0.8538
C40 C -0.0646(9) 0.1877(10) 0.7581(7)
H32 H -0.1417 0.1810 0.8071
C41 C -0.0918(9) 0.2335(10) 0.6565(7)
H33 H -0.1874 0.2594 0.6367
C42 C 0.0184(9) 0.2406(11) 0.5875(7)
H34 H 0.0010 0.2666 0.5177
C43 C 0.1605(10) 0.2084(11) 0.6214(6)
H35 H 0.2396 0.2199 0.5747
N2 N 0.7878(9) 0.8387(11) 0.0804(6)
C44 C 0.8350(11) 0.8022(11) 0.1752(7)
H36 H 0.7627 0.7993 0.2279
C45 C 0.9748(11) 0.7684(12) 0.2066(8)
H37 H 0.9923 0.7374 0.2752
C46 C 1.0867(11) 0.7801(11) 0.1376(8)
H38 H 1.1844 0.7599 0.1560
C47 C 1.0478(11) 0.8250(12) 0.0355(8)
H39 H 1.1199 0.8394 -0.0163
C48 C 0.9034(10) 0.8464(11) 0.0149(8)
H40 H 0.8811 0.8699 -0.0548
loop_
_geom_bond_atom_site_label_1
_geom_bond_atom_site_label_2
_geom_bond_site_symmetry_1
_geom_bond_site_symmetry_2
C1 H1 1_555 1_555
C2 C1 1_555 1_555
H2 C2 1_555 1_555
C3 C2 1_555 1_555
H3 C3 1_555 1_555
C4 C3 1_555 1_555
H4 C4 1_555 1_555
C5 C4 1_555 1_555
H5 C5 1_555 1_555
C6 H6 1_555 1_555
C7 C6 1_555 1_555
H7 C7 1_555 1_555
C8 C7 1_555 1_555
H8 C8 1_555 1_555
C9 C8 1_555 1_555
H9 C9 1_555 1_555
C10 C9 1_555 1_555
H10 C10 1_555 1_555
C11 H11 1_555 1_555
C12 C11 1_555 1_555
H12 C12 1_555 1_555
C13 C12 1_555 1_555
H13 C13 1_555 1_555
C14 C13 1_555 1_555
H14 C14 1_555 1_555
C15 C14 1_555 1_555
H15 C15 1_555 1_555
C16 H16 1_555 1_555
C17 C16 1_555 1_555
H17 C17 1_555 1_555
C18 C17 1_555 1_555
H18 C18 1_555 1_555
C19 C18 1_555 1_555
H19 C19 1_555 1_555
C20 C19 1_555 1_555
H20 C20 1_555 1_555
C21 H21 1_555 1_555
C22 C21 1_555 1_555
H22 C22 1_555 1_555
C23 C22 1_555 1_555
H23 C23 1_555 1_555
C24 C23 1_555 1_555
H24 C24 1_555 1_555
C25 C24 1_555 1_555
H25 C25 1_555 1_555
C26 H26 1_555 1_555
C27 C26 1_555 1_555
H27 C27 1_555 1_555
C28 C27 1_555 1_555
H28 C28 1_555 1_555
C29 C28 1_555 1_555
H29 C29 1_555 1_555
C30 C29 1_555 1_555
H30 C30 1_555 1_555
C31 C32 1_555 1_555
C32 C33 1_555 1_555
C33 C34 1_555 1_555
C34 O3 1_555 1_555
C35 C36 1_555 1_555
C36 C38 1_555 1_555
C37 C38 1_555 1_555
C38 H43 1_555 1_555
N1 C39 1_555 1_555
C39 H31 1_555 1_555
C40 C39 1_555 1_555
H32 C40 1_555 1_555
C41 C40 1_555 1_555
H33 C41 1_555 1_555
C42 C41 1_555 1_555
H34 C42 1_555 1_555
C43 N1 1_555 1_555
H35 C43 1_555 1_555
N2 C44 1_555 1_555
C44 H36 1_555 1_555
C45 C44 1_555 1_555
H37 C45 1_555 1_555
C46 C45 1_555 1_555
H38 C46 1_555 1_555
C47 C46 1_555 1_555
H39 C47 1_555 1_555
C48 N2 1_555 1_555
H40 C48 1_555 1_555
H41 C32 1_555 1_555
H42 C33 1_555 1_555
H44 C36 1_555 1_555
N3 C1 1_555 1_555
N4 C6 1_555 1_555
N5 C11 1_555 1_555
N6 C16 1_555 1_555
N7 C21 1_555 1_555
N8 C26 1_555 1_555
Ni1 N6 1_555 1_555
Ni2 N3 1_555 1_555
O1 C37 1_555 1_555
O2 C37 1_555 1_555
O3 Ni2_2 1_555 1_555
O4 C34 1_555 1_555
O5 C31 1_555 1_555
O6 C31 1_555 1_555
O7 C35 1_555 1_555
O8 C35 1_555 1_555
O3_2 Ni2 1_555 1_555
C5 N3 1_555 1_555
C10 N4 1_555 1_555
C15 N5 1_555 1_555
C20 N6 1_555 1_555
C25 N7 1_555 1_555
C30 N8 1_555 1_555
C42 C43 1_555 1_555
C47 C48 1_555 1_555
N4 Ni2 1_555 1_555
N5 Ni2 1_555 1_555
N7 Ni1 1_555 1_555
N8 Ni1 1_555 1_555
Ni1 O6 1_555 1_555
Ni1 O7 1_555 1_555
Ni1 O8 1_555 1_555
Ni2 O1 1_555 1_555
Ni2 O2 1_555 1_555

#END
