
#######################################################################
#
#                 Cambridge Crystallographic Data Centre
#                                CCDC 
#
#######################################################################
#
# If this CIF has been generated from an entry in the Cambridge 
# Structural Database, then it will include bibliographic, chemical, 
# crystal, experimental, refinement or atomic coordinate data resulting 
# from the CCDC's data processing and validation procedures.
#
#######################################################################

data_AMAQEK
_symmetry_cell_setting           monoclinic
_symmetry_space_group_name_H-M   'C c'
_symmetry_Int_Tables_number      9
_space_group_name_Hall           'C -2yc'
loop_
_symmetry_equiv_pos_site_id
_symmetry_equiv_pos_as_xyz
1 x,y,z
2 x,-y,1/2+z
3 1/2+x,1/2+y,z
4 1/2+x,1/2-y,1/2+z
_cell_length_a                   17.8636(9)
_cell_length_b                   5.9305(3)
_cell_length_c                   22.001(2)
_cell_angle_alpha                90
_cell_angle_beta                 114.239(2)
_cell_angle_gamma                90
_cell_volume                     2125.31
loop_
_atom_site_label
_atom_site_type_symbol
_atom_site_fract_x
_atom_site_fract_y
_atom_site_fract_z
N3 N 0.392(2) 0.098(4) 0.659(2)
C19 C 0.264(2) 0.201(4) 0.618(2)
C20 C 0.318(3) 0.074(5) 0.618(2)
C21 C 0.420(2) 0.273(4) 0.702(2)
C22 C 0.368(2) 0.453(4) 0.685(2)
C23 C 0.287(2) 0.407(4) 0.636(2)
H15 H 0.2093 0.1505 0.6059
H16 H 0.3064 -0.0479 0.5885
H17 H 0.4701 0.2769 0.7401
H18 H 0.3851 0.5977 0.7069
H19 H 0.2469 0.5307 0.6178
Cu1 Cu 0.092(2) 0.4308(1) 0.412(2)
O1 O 0.089(3) 0.0478(8) 0.411(2)
O2 O 0.094(2) 0.419(2) 0.325(2)
O3 O 0.090(2) 0.568(2) -0.002(2)
O4 O 0.101(3) 0.791(2) 0.312(2)
O5 O 0.083(2) 0.200(3) 0.014(2)
N1 N -0.035(2) 0.445(3) 0.370(2)
N2 N 0.216(2) 0.460(2) 0.452(2)
C1 C -0.075(2) 0.614(3) 0.330(2)
C2 C -0.160(2) 0.615(4) 0.304(2)
C3 C -0.208(2) 0.451(4) 0.310(2)
C4 C -0.159(2) 0.288(3) 0.353(2)
C5 C -0.079(2) 0.265(3) 0.381(2)
C6 C 0.261(2) 0.626(3) 0.491(2)
C7 C 0.344(3) 0.638(4) 0.522(2)
C8 C 0.381(2) 0.451(4) 0.506(2)
C9 C 0.343(2) 0.276(4) 0.469(2)
C10 C 0.257(2) 0.302(2) 0.442(2)
C11 C 0.098(2) 0.594(3) 0.291(2)
C12 C 0.096(2) 0.536(3) 0.225(2)
C13 C 0.086(2) 0.397(3) 0.030(2)
C14 C 0.087(2) 0.444(2) 0.098(2)
C15 C 0.108(2) 0.287(2) 0.146(2)
C16 C 0.111(2) 0.349(2) 0.209(2)
C17 C 0.067(2) 0.685(2) 0.112(2)
C18 C 0.069(2) 0.718(3) 0.175(2)
H1 H 0.0866 -0.0312 0.3723
H2 H 0.0853 -0.0332 0.4467
H3 H -0.0469 0.7336 0.3231
H4 H -0.1873 0.7317 0.2725
H5 H -0.2681 0.4343 0.2898
H6 H -0.1852 0.1686 0.3626
H7 H -0.0542 0.1416 0.4105
H8 H 0.2312 0.7462 0.5011
H9 H 0.3733 0.7657 0.5439
H10 H 0.4383 0.4602 0.5265
H11 H 0.3739 0.1516 0.4611
H12 H 0.2244 0.1836 0.4148
H13 H 0.1179 0.1391 0.1357
H14 H 0.0527 0.7983 0.0792
O3A O 0.090(2) 0.432(2) 0.498(2)
Cu1A Cu 0.092(2) 0.5692(1) -0.088(2)
loop_
_geom_bond_atom_site_label_1
_geom_bond_atom_site_label_2
_geom_bond_site_symmetry_1
_geom_bond_site_symmetry_2
Cu1 O1 1_555 1_555
O1 H1 1_555 1_555
O2 Cu1 1_555 1_555
O3 C13 1_555 1_555
O4 C11 1_555 1_555
O5 C13 1_555 1_555
N1 Cu1 1_555 1_555
N2 Cu1 1_555 1_555
N3 C20 1_555 1_555
C1 N1 1_555 1_555
C2 C1 1_555 1_555
C3 C2 1_555 1_555
C4 C3 1_555 1_555
C5 N1 1_555 1_555
C6 N2 1_555 1_555
C7 C6 1_555 1_555
C8 C7 1_555 1_555
C9 C8 1_555 1_555
C10 N2 1_555 1_555
C11 O2 1_555 1_555
C12 C11 1_555 1_555
C13 C14 1_555 1_555
C14 C15 1_555 1_555
C15 C16 1_555 1_555
C16 C12 1_555 1_555
C17 C14 1_555 1_555
C18 C12 1_555 1_555
C19 C20 1_555 1_555
C20 H16 1_555 1_555
C21 N3 1_555 1_555
C22 C21 1_555 1_555
C23 C19 1_555 1_555
H2 O1 1_555 1_555
H3 C1 1_555 1_555
H4 C2 1_555 1_555
H5 C3 1_555 1_555
H6 C4 1_555 1_555
H7 C5 1_555 1_555
H8 C6 1_555 1_555
H9 C7 1_555 1_555
H10 C8 1_555 1_555
H11 C9 1_555 1_555
H12 C10 1_555 1_555
H13 C15 1_555 1_555
H14 C17 1_555 1_555
H15 C19 1_555 1_555
H17 C21 1_555 1_555
H18 C22 1_555 1_555
H19 C23 1_555 1_555
O3A Cu1 1_555 1_555
Cu1A O3 1_555 1_555
C4 C5 1_555 1_555
C9 C10 1_555 1_555
C17 C18 1_555 1_555
C22 C23 1_555 1_555

#END
