
#######################################################################
#
#                 Cambridge Crystallographic Data Centre
#                                CCDC 
#
#######################################################################
#
# If this CIF has been generated from an entry in the Cambridge 
# Structural Database, then it will include bibliographic, chemical, 
# crystal, experimental, refinement or atomic coordinate data resulting 
# from the CCDC's data processing and validation procedures.
#
#######################################################################

data_AMAQAG02
_symmetry_cell_setting           triclinic
_symmetry_space_group_name_H-M   'P -1'
_symmetry_Int_Tables_number      2
_space_group_name_Hall           '-P 1'
loop_
_symmetry_equiv_pos_site_id
_symmetry_equiv_pos_as_xyz
1 x,y,z
2 -x,-y,-z
_cell_length_a                   9.1818
_cell_length_b                   9.7958
_cell_length_c                   12.8848
_cell_angle_alpha                90.24
_cell_angle_beta                 90.02
_cell_angle_gamma                90.38
_cell_volume                     1158.86
loop_
_atom_site_label
_atom_site_type_symbol
_atom_site_fract_x
_atom_site_fract_y
_atom_site_fract_z
Ni1 Ni 0.28808 0.74128 0.74771
C1 C 0.01195 0.88510 0.81420
H1 H 0.07805 0.95130 0.84115
C2 C -0.13695 0.91070 0.82140
H2 H -0.17095 0.99215 0.85300
C3 C -0.23505 0.81505 0.78135
H3 H -0.33695 0.83045 0.78455
C4 C -0.17990 0.69530 0.73620
H4 H -0.24380 0.62780 0.70845
C5 C -0.02985 0.67760 0.73315
H5 H 0.00680 0.59605 0.70315
C6 C 0.39895 1.01650 0.66285
H6 H 0.45820 1.01390 0.72315
C7 C 0.41945 1.12290 0.59245
H7 H 0.49150 1.19090 0.60495
C8 C 0.33370 1.12830 0.50460
H8 H 0.34690 1.19900 0.45515
C9 C 0.22690 1.02730 0.48955
H9 H 0.16500 1.02895 0.43055
C10 C 0.21340 0.92480 0.56315
H10 H 0.14095 0.85650 0.55260
C11 C 0.41550 0.47560 0.83425
H11 H 0.48245 0.48805 0.77910
C12 C 0.43570 0.36595 0.90055
H12 H 0.51435 0.30525 0.89020
C13 C 0.33875 0.34650 0.98250
H13 H 0.35075 0.27315 1.02950
C14 C 0.22470 0.43710 0.99360
H14 H 0.15635 0.42605 1.04815
C15 C 0.21110 0.54460 0.92380
H15 H 0.13250 0.60610 0.93240
C16 C 0.34260 0.87800 0.95295
C17 C 0.44360 0.96485 1.01860
C18 C 0.38730 0.60850 0.59735
C19 C 0.43270 0.52325 0.50585
N1 N 0.06665 0.77040 0.77065
N2 N 0.29755 0.91675 0.64865
N3 N 0.30520 0.56520 0.84410
O1 O 0.25100 0.61810 0.61575
O2 O 0.48045 0.66745 0.65575
H16 H 0.36350 0.50500 0.45400
H22 H 0.41900 0.96900 1.09100
O3 O 0.38400 0.85585 0.85890
O4 O 0.22790 0.83580 0.99465
Ni1A Ni 0.71192 0.25872 0.25229
Ni1A_2 Ni 0.71192 1.25872 1.25229
C1A C 0.98805 0.11490 0.18580
H1A H 0.92195 0.04870 0.15885
C2A C 1.13695 0.08930 0.17860
H2A H 1.17095 0.00785 0.14700
C3A C 1.23505 0.18495 0.21865
H3A H 1.33695 0.16955 0.21545
C4A C 1.17990 0.30470 0.26380
H4A H 1.24380 0.37220 0.29155
C5A C 1.02985 0.32240 0.26685
H5A H 0.99320 0.40395 0.29685
C6A C 0.60105 -0.01650 0.33715
H6A H 0.54180 -0.01390 0.27685
C7A C 0.58055 -0.12290 0.40755
H7A H 0.50850 -0.19090 0.39505
C8A C 0.66630 -0.12830 0.49540
H8A H 0.65310 -0.19900 0.54485
C9A C 0.77310 -0.02730 0.51045
H9A H 0.83500 -0.02895 0.56945
C10A C 0.78660 0.07520 0.43685
H10A H 0.85905 0.14350 0.44740
C11A C 0.58450 0.52440 0.16575
H11A H 0.51755 0.51195 0.22090
C12A C 0.56430 0.63405 0.09945
H12A H 0.48565 0.69475 0.10980
C13A C 0.66125 0.65350 0.01750
H13A H 0.64925 0.72685 -0.02950
C14A C 0.77530 0.56290 0.00640
H14A H 0.84365 0.57395 -0.04815
C15A C 0.78890 0.45540 0.07620
H15A H 0.86750 0.39390 0.06760
C16A C 0.65740 1.12200 1.04705
C17A C 0.55640 1.03515 0.98140
C18A C 0.61270 0.39150 0.40265
C19A C 0.56730 0.47675 0.49415
N1A N 0.93335 0.22960 0.22935
N2A N 0.70245 0.08325 0.35135
N3A N 0.69480 0.43480 0.15590
O1A O 0.74900 0.38190 0.38425
O2A O 0.51955 0.33255 0.34425
H16A H 0.63650 0.49500 0.54600
H22A H 0.58100 1.03100 0.90900
O3A O 0.61600 1.14415 1.14110
O3A_2 O 0.61600 0.14415 0.14110
O4A O 0.77210 1.16420 1.00535
N4 N 0.19980 0.66160 0.31865
C20 C 0.08560 0.65320 0.38525
H17 H 0.10575 0.62565 0.45430
C21 C -0.05620 0.68135 0.36130
H18 H -0.13080 0.67080 0.41170
C22 C -0.08925 0.72670 0.25945
H19 H -0.18590 0.74975 0.24035
C23 C 0.02180 0.73610 0.19045
H20 H 0.00435 0.76460 0.12125
C24 C 0.16275 0.70310 0.22310
H21 H 0.23845 0.71030 0.17340
loop_
_geom_bond_atom_site_label_1
_geom_bond_atom_site_label_2
_geom_bond_site_symmetry_1
_geom_bond_site_symmetry_2
Ni1 N1 1_555 1_555
C1 H1 1_555 1_555
C2 C1 1_555 1_555
H2 C2 1_555 1_555
C3 C2 1_555 1_555
H3 C3 1_555 1_555
C4 C3 1_555 1_555
H4 C4 1_555 1_555
C5 C4 1_555 1_555
H5 C5 1_555 1_555
C6 H6 1_555 1_555
C7 C6 1_555 1_555
H7 C7 1_555 1_555
C8 C7 1_555 1_555
H8 C8 1_555 1_555
C9 C8 1_555 1_555
H9 C9 1_555 1_555
C10 C9 1_555 1_555
H10 C10 1_555 1_555
C11 H11 1_555 1_555
C12 C11 1_555 1_555
H12 C12 1_555 1_555
C13 C12 1_555 1_555
H13 C13 1_555 1_555
C14 C13 1_555 1_555
H14 C14 1_555 1_555
C15 C14 1_555 1_555
H15 C15 1_555 1_555
C16 C17 1_555 1_555
C17 H22 1_555 1_555
C18 C19 1_555 1_555
C19 H16 1_555 1_555
N1 C1 1_555 1_555
N2 Ni1 1_555 1_555
N3 Ni1 1_555 1_555
O1 Ni1 1_555 1_555
O2 Ni1 1_555 1_555
N4 C20 1_555 1_555
C20 H17 1_555 1_555
C21 C20 1_555 1_555
H18 C21 1_555 1_555
C22 C21 1_555 1_555
H19 C22 1_555 1_555
C23 C22 1_555 1_555
H20 C23 1_555 1_555
C24 N4 1_555 1_555
H21 C24 1_555 1_555
O3 Ni1 1_555 1_555
O4 C16 1_555 1_555
Ni1A N1A 1_555 1_555
Ni1A_2 O3A 1_555 1_555
C1A H1A 1_555 1_555
C2A C1A 1_555 1_555
H2A C2A 1_555 1_555
C3A C2A 1_555 1_555
H3A C3A 1_555 1_555
C4A C3A 1_555 1_555
H4A C4A 1_555 1_555
C5A C4A 1_555 1_555
H5A C5A 1_555 1_555
C6A H6A 1_555 1_555
C7A C6A 1_555 1_555
H7A C7A 1_555 1_555
C8A C7A 1_555 1_555
H8A C8A 1_555 1_555
C9A C8A 1_555 1_555
H9A C9A 1_555 1_555
C10A C9A 1_555 1_555
H10A C10A 1_555 1_555
C11A H11A 1_555 1_555
C12A C11A 1_555 1_555
H12A C12A 1_555 1_555
C13A C12A 1_555 1_555
H13A C13A 1_555 1_555
C14A C13A 1_555 1_555
H14A C14A 1_555 1_555
C15A C14A 1_555 1_555
H15A C15A 1_555 1_555
C16A C17A 1_555 1_555
C17A C17 1_555 1_555
C18A C19A 1_555 1_555
C19A C19 1_555 1_555
N1A C1A 1_555 1_555
N2A Ni1A 1_555 1_555
N3A Ni1A 1_555 1_555
O1A Ni1A 1_555 1_555
O2A Ni1A 1_555 1_555
H16A C19A 1_555 1_555
H22A C17A 1_555 1_555
O3A C16A 1_555 1_555
O3A_2 Ni1A 1_555 1_555
O4A C16A 1_555 1_555
C5 N1 1_555 1_555
C6 N2 1_555 1_555
C10 N2 1_555 1_555
C11 N3 1_555 1_555
C15 N3 1_555 1_555
C16 O3 1_555 1_555
C18 O1 1_555 1_555
C18 O2 1_555 1_555
C23 C24 1_555 1_555
C5A N1A 1_555 1_555
C6A N2A 1_555 1_555
C10A N2A 1_555 1_555
C11A N3A 1_555 1_555
C15A N3A 1_555 1_555
C18A O1A 1_555 1_555
C18A O2A 1_555 1_555

#END
