
#######################################################################
#
#                 Cambridge Crystallographic Data Centre
#                                CCDC 
#
#######################################################################
#
# If this CIF has been generated from an entry in the Cambridge 
# Structural Database, then it will include bibliographic, chemical, 
# crystal, experimental, refinement or atomic coordinate data resulting 
# from the CCDC's data processing and validation procedures.
#
#######################################################################

data_AMBAQY
_symmetry_cell_setting           monoclinic
_symmetry_space_group_name_H-M   'C 2/c'
_symmetry_Int_Tables_number      15
_space_group_name_Hall           '-C 2yn'
loop_
_symmetry_equiv_pos_site_id
_symmetry_equiv_pos_as_xyz
1 x,y,z
2 1/2+x,1/2+y,z
3 -x,y,1/2-z
4 1/2-x,1/2+y,1/2-z
5 -x,-y,-z
6 1/2-x,1/2-y,-z
7 x,-y,1/2+z
8 1/2+x,1/2-y,1/2+z
_cell_length_a                   30.89(1)
_cell_length_b                   9.09(1)
_cell_length_c                   14.85(1)
_cell_angle_alpha                90
_cell_angle_beta                 109.3(1)
_cell_angle_gamma                90
_cell_volume                     3935.4
loop_
_atom_site_label
_atom_site_type_symbol
_atom_site_fract_x
_atom_site_fract_y
_atom_site_fract_z
Y1 Y 0.25160 -0.51160 0.20570
O1 O 0.25520 -0.47840 0.05470
C1 C 0.19700 -0.32700 0.38500
C2 C 0.15400 -0.38900 0.43500
C3 C 0.15300 -0.53100 0.47700
C4 C 0.11100 -0.59900 0.51600
C5 C 0.07100 -0.52200 0.52600
C6 C 0.07400 -0.37900 0.48600
C7 C 0.11400 -0.30800 0.44500
O2 O 0.22760 -0.39250 0.34220
O3 O 0.19830 -0.18400 0.38360
N1 N 0.19170 -0.61910 0.46630
C8 C 0.33100 -0.25500 0.20400
C9 C 0.37800 -0.27600 0.18700
C10 C 0.40000 -0.18000 0.23400
C11 C 0.44800 -0.19800 0.21800
C12 C 0.47000 -0.26400 0.14700
C13 C 0.45100 -0.38300 0.10000
C14 C 0.40100 -0.38300 0.11500
O4 O 0.31130 -0.36260 0.17390
O5 O 0.30720 -0.17100 0.25290
N2 N 0.37900 -0.11200 0.31500
C15 C 0.18900 -0.23000 0.19500
C16 C 0.14500 -0.16500 0.18900
C17 C 0.14400 -0.03800 0.14300
C18 C 0.10000 0.01300 0.13700
C19 C 0.06200 -0.07700 0.17700
C20 C 0.06400 -0.19800 0.22300
C21 C 0.10600 -0.24300 0.22600
O6 O 0.21790 -0.13770 0.19560
O7 O 0.19310 -0.36090 0.19700
N3 N 0.17990 0.06190 0.10080
O3C O 0.30170 -0.68400 0.11640
O5C O 0.19280 -0.67100 0.24710
Y1C Y 0.24840 -0.01160 0.29430
O6C O 0.28210 -0.63770 0.30440
loop_
_geom_bond_atom_site_label_1
_geom_bond_atom_site_label_2
_geom_bond_site_symmetry_1
_geom_bond_site_symmetry_2
Y1 O1 1_555 1_555
C1 C2 1_555 1_555
C2 C3 1_555 1_555
C3 C4 1_555 1_555
C4 C5 1_555 1_555
C5 C6 1_555 1_555
C6 C7 1_555 1_555
C7 C2 1_555 1_555
O2 Y1 1_555 1_555
O3 C1 1_555 1_555
N1 C3 1_555 1_555
C8 C9 1_555 1_555
C9 C10 1_555 1_555
C10 C11 1_555 1_555
C11 C12 1_555 1_555
C12 C13 1_555 1_555
C13 C14 1_555 1_555
C14 C9 1_555 1_555
O4 Y1 1_555 1_555
O5 C8 1_555 1_555
N2 C10 1_555 1_555
C15 C16 1_555 1_555
C16 C17 1_555 1_555
C17 C18 1_555 1_555
C18 C19 1_555 1_555
C19 C20 1_555 1_555
C20 C21 1_555 1_555
C21 C16 1_555 1_555
O6 C15 1_555 1_555
O7 Y1 1_555 1_555
N3 C17 1_555 1_555
O3C Y1 1_555 1_555
O5C Y1 1_555 1_555
Y1C O3 1_555 1_555
O6C Y1 1_555 1_555
C1 O2 1_555 1_555
C8 O4 1_555 1_555
O5 Y1C 1_555 1_555
C15 O7 1_555 1_555
O6 Y1C 1_555 1_555

#END
