
#######################################################################
#
#                 Cambridge Crystallographic Data Centre
#                                CCDC 
#
#######################################################################
#
# If this CIF has been generated from an entry in the Cambridge 
# Structural Database, then it will include bibliographic, chemical, 
# crystal, experimental, refinement or atomic coordinate data resulting 
# from the CCDC's data processing and validation procedures.
#
#######################################################################

data_AMBZPB10
_symmetry_cell_setting           triclinic
_symmetry_space_group_name_H-M   'P -1'
_symmetry_Int_Tables_number      2
_space_group_name_Hall           '-P 1'
loop_
_symmetry_equiv_pos_site_id
_symmetry_equiv_pos_as_xyz
1 x,y,z
2 -x,-y,-z
_cell_length_a                   6.933(2)
_cell_length_b                   8.597(2)
_cell_length_c                   7.940(2)
_cell_angle_alpha                102.32(2)
_cell_angle_beta                 82.62(2)
_cell_angle_gamma                102.14(2)
_cell_volume                     450.276
loop_
_atom_site_label
_atom_site_type_symbol
_atom_site_fract_x
_atom_site_fract_y
_atom_site_fract_z
Pb1 Pb 0.28420 0.52330 0.35870
O1 O 0.05600 0.38130 0.57830
O2 O 0.35350 0.31890 0.51560
O3 O 0.78960 0.41270 -0.00900
O4 O 0.48920 0.32000 -0.07380
O5 O 0.56040 0.36280 0.19240
N1 N -0.09270 -0.28160 0.85100
N2 N 0.61170 0.36730 0.04100
C1 C 0.17830 0.29010 0.58940
C2 C 0.11240 0.14410 0.66560
C3 C -0.08240 0.10600 0.73050
C4 C -0.15350 -0.03560 0.79180
C5 C -0.01940 -0.13410 0.79430
C6 C 0.17910 -0.09270 0.73240
C7 C 0.24080 0.04650 0.67260
O1A O -0.05600 0.61870 0.42170
O2A O 0.64650 0.68110 0.48440
Pb1A Pb -0.28420 0.47670 0.64130
Pb1A_2 Pb 0.71580 0.47670 0.64130
N1A N 0.09270 0.28160 0.14900
Pb1A_3 Pb -0.28420 -0.52330 0.64130
loop_
_geom_bond_atom_site_label_1
_geom_bond_atom_site_label_2
_geom_bond_site_symmetry_1
_geom_bond_site_symmetry_2
Pb1 O1 1_555 1_555
O1 C1 1_555 1_555
O2 Pb1 1_555 1_555
O3 N2 1_555 1_555
O4 N2 1_555 1_555
O5 Pb1 1_555 1_555
N1 C5 1_555 1_555
N2 O5 1_555 1_555
C1 O2 1_555 1_555
C2 C1 1_555 1_555
C3 C2 1_555 1_555
C4 C3 1_555 1_555
C5 C4 1_555 1_555
C6 C5 1_555 1_555
C7 C2 1_555 1_555
O1A Pb1 1_555 1_555
O2A Pb1 1_555 1_555
Pb1A O1 1_555 1_555
Pb1A_2 O2 1_555 1_555
N1A Pb1 1_555 1_555
Pb1A_3 N1 1_555 1_555
C6 C7 1_555 1_555
O1A Pb1A 1_555 1_555
O2A Pb1A_2 1_555 1_555

#END
