
#######################################################################
#
#                 Cambridge Crystallographic Data Centre
#                                CCDC 
#
#######################################################################
#
# If this CIF has been generated from an entry in the Cambridge 
# Structural Database, then it will include bibliographic, chemical, 
# crystal, experimental, refinement or atomic coordinate data resulting 
# from the CCDC's data processing and validation procedures.
#
#######################################################################

data_AMEGUV
_symmetry_cell_setting           monoclinic
_symmetry_space_group_name_H-M   'P 21/a'
_symmetry_Int_Tables_number      14
_space_group_name_Hall           '-P 2yab'
loop_
_symmetry_equiv_pos_site_id
_symmetry_equiv_pos_as_xyz
1 x,y,z
2 1/2-x,1/2+y,-z
3 -x,-y,-z
4 1/2+x,1/2-y,z
_cell_length_a                   15.4279(11)
_cell_length_b                   8.8350(13)
_cell_length_c                   29.861(5)
_cell_angle_alpha                90
_cell_angle_beta                 91.829(9)
_cell_angle_gamma                90
_cell_volume                     4068.14
loop_
_atom_site_label
_atom_site_type_symbol
_atom_site_fract_x
_atom_site_fract_y
_atom_site_fract_z
Fe1 Fe 0.42783(4) 0.90782(6) 0.623138(17)
Fe2 Fe 0.53172(4) 0.55316(7) 0.872940(18)
Mn1 Mn 0.68833(4) 0.74462(6) 0.732250(18)
N1 N 0.5870(2) 0.8369(4) 0.68526(11)
N2 N 0.3014(3) 0.7503(4) 0.68650(12)
N3 N 0.4668(3) 0.6072(4) 0.57357(14)
N4 N 0.5984(3) 0.7112(4) 0.78808(12)
N5 N 0.4978(3) 0.8682(4) 0.91514(13)
N6 N 0.3454(3) 0.5529(5) 0.83213(18)
N7 N 0.7658(2) 0.5583(4) 0.77240(11)
N8 N 0.6585(2) 0.5069(4) 0.70011(11)
N9 N 0.7702(3) 0.2913(4) 0.78843(12)
N10 N 0.6829(3) 0.2387(4) 0.70770(12)
N11 N 0.4075(2) 1.1071(4) 0.65250(11)
N12 N 0.3860(2) 1.2304(4) 0.62643(11)
N13 N 0.3232(2) 0.9453(4) 0.58366(10)
N14 N 0.3101(2) 1.0858(4) 0.56458(11)
N15 N 0.4984(2) 1.0167(4) 0.57862(11)
N16 N 0.4669(2) 1.1482(4) 0.55961(11)
N17 N 0.5565(3) 0.3525(4) 0.84531(12)
N18 N 0.5948(3) 0.2408(4) 0.87106(13)
N19 N 0.6499(3) 0.5482(4) 0.90219(12)
N20 N 0.6781(3) 0.4174(5) 0.92252(13)
N21 N 0.4876(3) 0.4440(4) 0.92601(12)
N22 N 0.5327(3) 0.3226(4) 0.94331(12)
B1 B 0.3790(3) 1.2113(5) 0.57455(15)
B2 B 0.6174(4) 0.2747(6) 0.92124(19)
C1 C 0.5267(3) 0.8638(4) 0.66212(13)
C2 C 0.3537(3) 0.8029(5) 0.66412(13)
C3 C 0.4511(3) 0.7167(5) 0.59257(13)
C4 C 0.5716(3) 0.6556(5) 0.81990(14)
C5 C 0.5091(3) 0.7507(5) 0.89941(13)
C6 C 0.4160(3) 0.5572(5) 0.84638(15)
C7 C 0.8199(3) 0.5831(5) 0.80831(16)
C8 C 0.8504(3) 0.4654(5) 0.83562(15)
C9 C 0.8221(3) 0.3204(5) 0.82448(15)
C10 C 0.7452(3) 0.4115(4) 0.76393(13)
C11 C 0.6913(3) 0.3838(4) 0.72162(13)
C12 C 0.6166(3) 0.4814(5) 0.66043(13)
C13 C 0.6082(3) 0.3382(5) 0.64209(14)
C14 C 0.6413(3) 0.2191(5) 0.66769(15)
C15 C 0.4122(3) 1.1559(5) 0.69523(13)
C16 C 0.3942(3) 1.3120(5) 0.69708(15)
C17 C 0.3775(3) 1.3536(5) 0.65301(15)
C18 C 0.2554(3) 0.8587(5) 0.57065(14)
C19 C 0.1973(3) 0.9408(6) 0.54265(16)
C20 C 0.2354(3) 1.0834(5) 0.53959(15)
C21 C 0.5742(3) 0.9858(5) 0.55956(14)
C22 C 0.5925(3) 1.0964(5) 0.52747(15)
C23 C 0.5237(3) 1.1979(5) 0.52873(13)
C24 C 0.5396(3) 0.2925(6) 0.80461(15)
C25 C 0.5655(3) 0.1415(5) 0.80356(18)
C26 C 0.6000(3) 0.1124(5) 0.84578(19)
C27 C 0.7119(3) 0.6530(6) 0.90982(16)
C28 C 0.7802(3) 0.5925(7) 0.93599(19)
C29 C 0.7557(4) 0.4426(7) 0.94323(18)
C30 C 0.4177(3) 0.4610(5) 0.95083(16)
C31 C 0.4162(4) 0.3509(6) 0.98469(15)
C32 C 0.4900(4) 0.2646(6) 0.97839(15)
O1 O 0.7310(2) 0.9594(3) 0.75840(10)
H1 H 0.3594 1.3204 0.5570
H2 H 0.6531 0.1839 0.9365
H3 H 0.7710 0.9650 0.7818
H4 H 0.7202 1.0568 0.7485
H5 H 0.8373 0.6831 0.8155
H6 H 0.8893 0.4822 0.8602
H7 H 0.8395 0.2395 0.8436
H8 H 0.5926 0.5662 0.6442
H9 H 0.5813 0.3226 0.6137
H10 H 0.6335 0.1190 0.6561
H11 H 0.4255 1.0940 0.7203
H12 H 0.3926 1.3726 0.7228
H13 H 0.3635 1.4525 0.6427
H14 H 0.2466 0.7559 0.5787
H15 H 0.1446 0.9078 0.5289
H16 H 0.2112 1.1676 0.5232
H17 H 0.6100 0.9006 0.5668
H18 H 0.6415 1.1015 0.5090
H19 H 0.5172 1.2852 0.5108
H20 H 0.5122 0.3455 0.7803
H21 H 0.5614 0.0734 0.7789
H22 H 0.6241 0.0196 0.8565
H23 H 0.7089 0.7548 0.8998
H24 H 0.8316 0.6415 0.9456
H25 H 0.7900 0.3704 0.9597
H26 H 0.3736 0.5360 0.9464
H27 H 0.3741 0.3387 1.0067
H28 H 0.5069 0.1810 0.9966
Mn1C Mn 0.18833(4) 0.75538(6) 0.732250(18)
N2C N 0.8014(3) 0.7497(4) 0.68650(12)
loop_
_geom_bond_atom_site_label_1
_geom_bond_atom_site_label_2
_geom_bond_site_symmetry_1
_geom_bond_site_symmetry_2
Fe1 N11 1_555 1_555
Fe2 N17 1_555 1_555
Mn1 N1 1_555 1_555
N1 C1 1_555 1_555
N2 C2 1_555 1_555
N3 C3 1_555 1_555
N4 Mn1 1_555 1_555
N5 C5 1_555 1_555
N6 C6 1_555 1_555
N7 Mn1 1_555 1_555
N8 Mn1 1_555 1_555
N9 C9 1_555 1_555
N10 C11 1_555 1_555
N11 N12 1_555 1_555
N12 B1 1_555 1_555
N13 Fe1 1_555 1_555
N14 N13 1_555 1_555
N15 Fe1 1_555 1_555
N16 N15 1_555 1_555
N17 N18 1_555 1_555
N18 B2 1_555 1_555
N19 Fe2 1_555 1_555
N20 N19 1_555 1_555
N21 Fe2 1_555 1_555
N22 N21 1_555 1_555
B1 N14 1_555 1_555
B2 N20 1_555 1_555
C1 Fe1 1_555 1_555
C2 Fe1 1_555 1_555
C3 Fe1 1_555 1_555
C4 Fe2 1_555 1_555
C5 Fe2 1_555 1_555
C6 Fe2 1_555 1_555
C7 N7 1_555 1_555
C8 C7 1_555 1_555
C9 C8 1_555 1_555
C10 N7 1_555 1_555
C11 N8 1_555 1_555
C12 N8 1_555 1_555
C13 C12 1_555 1_555
C14 N10 1_555 1_555
C15 N11 1_555 1_555
C16 C15 1_555 1_555
C17 N12 1_555 1_555
C18 N13 1_555 1_555
C19 C18 1_555 1_555
C20 N14 1_555 1_555
C21 N15 1_555 1_555
C22 C21 1_555 1_555
C23 N16 1_555 1_555
C24 N17 1_555 1_555
C25 C24 1_555 1_555
C26 N18 1_555 1_555
C27 N19 1_555 1_555
C28 C27 1_555 1_555
C29 N20 1_555 1_555
C30 N21 1_555 1_555
C31 C30 1_555 1_555
C32 N22 1_555 1_555
O1 Mn1 1_555 1_555
H1 B1 1_555 1_555
H2 B2 1_555 1_555
H3 O1 1_555 1_555
H4 O1 1_555 1_555
H5 C7 1_555 1_555
H6 C8 1_555 1_555
H7 C9 1_555 1_555
H8 C12 1_555 1_555
H9 C13 1_555 1_555
H10 C14 1_555 1_555
H11 C15 1_555 1_555
H12 C16 1_555 1_555
H13 C17 1_555 1_555
H14 C18 1_555 1_555
H15 C19 1_555 1_555
H16 C20 1_555 1_555
H17 C21 1_555 1_555
H18 C22 1_555 1_555
H19 C23 1_555 1_555
H20 C24 1_555 1_555
H21 C25 1_555 1_555
H22 C26 1_555 1_555
H23 C27 1_555 1_555
H24 C28 1_555 1_555
H25 C29 1_555 1_555
H26 C30 1_555 1_555
H27 C31 1_555 1_555
H28 C32 1_555 1_555
Mn1C N2 1_555 1_555
N2C Mn1 1_555 1_555
N4 C4 1_555 1_555
N9 C10 1_555 1_555
N16 B1 1_555 1_555
N22 B2 1_555 1_555
C10 C11 1_555 1_555
C13 C14 1_555 1_555
C16 C17 1_555 1_555
C19 C20 1_555 1_555
C22 C23 1_555 1_555
C25 C26 1_555 1_555
C28 C29 1_555 1_555
C31 C32 1_555 1_555

#END
