
#######################################################################
#
#                 Cambridge Crystallographic Data Centre
#                                CCDC 
#
#######################################################################
#
# If this CIF has been generated from an entry in the Cambridge 
# Structural Database, then it will include bibliographic, chemical, 
# crystal, experimental, refinement or atomic coordinate data resulting 
# from the CCDC's data processing and validation procedures.
#
#######################################################################

data_AMEGUV01
_symmetry_cell_setting           monoclinic
_symmetry_space_group_name_H-M   'P 21/a'
_symmetry_Int_Tables_number      14
_space_group_name_Hall           '-P 2yab'
loop_
_symmetry_equiv_pos_site_id
_symmetry_equiv_pos_as_xyz
1 x,y,z
2 1/2-x,1/2+y,-z
3 -x,-y,-z
4 1/2+x,1/2-y,z
_cell_length_a                   15.4194(15)
_cell_length_b                   8.8319(15)
_cell_length_c                   29.855(5)
_cell_angle_alpha                90
_cell_angle_beta                 91.824(10)
_cell_angle_gamma                90
_cell_volume                     4063.67
loop_
_atom_site_label
_atom_site_type_symbol
_atom_site_fract_x
_atom_site_fract_y
_atom_site_fract_z
Fe1 Fe 0.42760(3) 0.90790(6) 0.623069(14)
Fe2 Fe 0.53142(3) 0.55306(6) 0.872930(15)
Mn1 Mn 0.68820(3) 0.74457(6) 0.732300(15)
N1 N 0.58725(19) 0.8372(3) 0.68515(9)
N2 N 0.30134(19) 0.7501(4) 0.68651(10)
N3 N 0.4665(2) 0.6068(4) 0.57362(11)
N4 N 0.5980(2) 0.7112(4) 0.78796(10)
N5 N 0.4977(2) 0.8687(4) 0.91521(11)
N6 N 0.3447(2) 0.5528(4) 0.83247(14)
N7 N 0.76563(19) 0.5578(3) 0.77228(9)
N8 N 0.65901(19) 0.5065(3) 0.70014(9)
N9 N 0.7695(2) 0.2918(3) 0.78829(10)
N10 N 0.6828(2) 0.2390(4) 0.70776(9)
N11 N 0.40726(18) 1.1070(3) 0.65244(9)
N12 N 0.38608(19) 1.2304(3) 0.62646(9)
N13 N 0.32280(17) 0.9446(3) 0.58351(9)
N14 N 0.31019(18) 1.0849(4) 0.56454(9)
N15 N 0.49834(18) 1.0168(3) 0.57850(9)
N16 N 0.46767(19) 1.1485(3) 0.55962(9)
N17 N 0.5563(2) 0.3531(4) 0.84560(10)
N18 N 0.5946(2) 0.2408(4) 0.87090(10)
N19 N 0.64995(19) 0.5486(4) 0.90190(9)
N20 N 0.6779(2) 0.4171(4) 0.92239(10)
N21 N 0.48745(19) 0.4440(4) 0.92607(9)
N22 N 0.5325(2) 0.3218(4) 0.94328(10)
B1 B 0.3787(3) 1.2116(5) 0.57454(13)
B2 B 0.6180(3) 0.2740(6) 0.92108(16)
C1 C 0.5265(2) 0.8636(4) 0.66239(11)
C2 C 0.3531(2) 0.8028(4) 0.66424(11)
C3 C 0.4506(2) 0.7163(4) 0.59265(11)
C4 C 0.5716(2) 0.6566(4) 0.82003(11)
C5 C 0.5090(2) 0.7505(5) 0.89912(11)
C6 C 0.4156(3) 0.5567(4) 0.84660(12)
C7 C 0.8199(3) 0.5825(4) 0.80848(13)
C8 C 0.8504(2) 0.4646(4) 0.83543(12)
C9 C 0.8219(3) 0.3213(5) 0.82473(12)
C10 C 0.7449(2) 0.4115(4) 0.76400(10)
C11 C 0.6908(2) 0.3829(4) 0.72162(10)
C12 C 0.6168(2) 0.4825(4) 0.66022(11)
C13 C 0.6085(2) 0.3385(5) 0.64230(12)
C14 C 0.6408(3) 0.2190(4) 0.66741(12)
C15 C 0.4119(2) 1.1559(4) 0.69507(11)
C16 C 0.3938(3) 1.3103(5) 0.69690(12)
C17 C 0.3778(2) 1.3532(4) 0.65276(13)
C18 C 0.2547(2) 0.8586(4) 0.57039(11)
C19 C 0.1975(2) 0.9417(5) 0.54268(12)
C20 C 0.2346(2) 1.0843(5) 0.53973(12)
C21 C 0.5742(2) 0.9852(4) 0.55957(11)
C22 C 0.5925(3) 1.0965(5) 0.52749(12)
C23 C 0.5239(3) 1.1968(4) 0.52869(11)
C24 C 0.5390(3) 0.2927(5) 0.80475(13)
C25 C 0.5658(3) 0.1415(5) 0.80351(14)
C26 C 0.6004(3) 0.1131(5) 0.84631(16)
C27 C 0.7116(3) 0.6531(5) 0.91002(13)
C28 C 0.7800(3) 0.5918(6) 0.93552(15)
C29 C 0.7567(3) 0.4426(6) 0.94303(15)
C30 C 0.4168(2) 0.4605(5) 0.95101(12)
C31 C 0.4162(3) 0.3513(5) 0.98449(12)
C32 C 0.4893(3) 0.2654(5) 0.97877(12)
O1 O 0.73042(17) 0.9590(3) 0.75836(8)
H1 H 0.3594 1.3204 0.5570
H2 H 0.6531 0.1839 0.9365
H3 H 0.7710 0.9650 0.7818
H4 H 0.7202 1.0568 0.7485
H5 H 0.8373 0.6831 0.8155
H6 H 0.8893 0.4822 0.8602
H7 H 0.8395 0.2395 0.8436
H8 H 0.5926 0.5662 0.6442
H9 H 0.5813 0.3226 0.6137
H10 H 0.6335 0.1190 0.6561
H11 H 0.4255 1.0940 0.7203
H12 H 0.3926 1.3726 0.7228
H13 H 0.3635 1.4525 0.6427
H14 H 0.2466 0.7559 0.5787
H15 H 0.1446 0.9078 0.5289
H16 H 0.2112 1.1676 0.5232
H17 H 0.6100 0.9006 0.5668
H18 H 0.6415 1.1015 0.5090
H19 H 0.5172 1.2852 0.5108
H20 H 0.5122 0.3455 0.7803
H21 H 0.5614 0.0734 0.7789
H22 H 0.6241 0.0196 0.8565
H23 H 0.7089 0.7548 0.8998
H24 H 0.8316 0.6415 0.9456
H25 H 0.7900 0.3704 0.9597
H26 H 0.3736 0.5360 0.9464
H27 H 0.3741 0.3387 1.0067
H28 H 0.5069 0.1810 0.9966
Mn1C Mn 0.18820(3) 0.75543(6) 0.732300(15)
N2C N 0.80134(19) 0.7499(4) 0.68651(10)
loop_
_geom_bond_atom_site_label_1
_geom_bond_atom_site_label_2
_geom_bond_site_symmetry_1
_geom_bond_site_symmetry_2
Fe1 N11 1_555 1_555
Fe2 N17 1_555 1_555
Mn1 N1 1_555 1_555
N1 C1 1_555 1_555
N2 C2 1_555 1_555
N3 C3 1_555 1_555
N4 Mn1 1_555 1_555
N5 C5 1_555 1_555
N6 C6 1_555 1_555
N7 Mn1 1_555 1_555
N8 Mn1 1_555 1_555
N9 C9 1_555 1_555
N10 C11 1_555 1_555
N11 N12 1_555 1_555
N12 B1 1_555 1_555
N13 Fe1 1_555 1_555
N14 N13 1_555 1_555
N15 Fe1 1_555 1_555
N16 N15 1_555 1_555
N17 N18 1_555 1_555
N18 B2 1_555 1_555
N19 Fe2 1_555 1_555
N20 N19 1_555 1_555
N21 Fe2 1_555 1_555
N22 N21 1_555 1_555
B1 N14 1_555 1_555
B2 N20 1_555 1_555
C1 Fe1 1_555 1_555
C2 Fe1 1_555 1_555
C3 Fe1 1_555 1_555
C4 Fe2 1_555 1_555
C5 Fe2 1_555 1_555
C6 Fe2 1_555 1_555
C7 N7 1_555 1_555
C8 C7 1_555 1_555
C9 C8 1_555 1_555
C10 N7 1_555 1_555
C11 N8 1_555 1_555
C12 N8 1_555 1_555
C13 C12 1_555 1_555
C14 N10 1_555 1_555
C15 N11 1_555 1_555
C16 C15 1_555 1_555
C17 N12 1_555 1_555
C18 N13 1_555 1_555
C19 C18 1_555 1_555
C20 N14 1_555 1_555
C21 N15 1_555 1_555
C22 C21 1_555 1_555
C23 N16 1_555 1_555
C24 N17 1_555 1_555
C25 C24 1_555 1_555
C26 N18 1_555 1_555
C27 N19 1_555 1_555
C28 C27 1_555 1_555
C29 N20 1_555 1_555
C30 N21 1_555 1_555
C31 C30 1_555 1_555
C32 N22 1_555 1_555
O1 Mn1 1_555 1_555
H1 B1 1_555 1_555
H2 B2 1_555 1_555
H3 O1 1_555 1_555
H4 O1 1_555 1_555
H5 C7 1_555 1_555
H6 C8 1_555 1_555
H7 C9 1_555 1_555
H8 C12 1_555 1_555
H9 C13 1_555 1_555
H10 C14 1_555 1_555
H11 C15 1_555 1_555
H12 C16 1_555 1_555
H13 C17 1_555 1_555
H14 C18 1_555 1_555
H15 C19 1_555 1_555
H16 C20 1_555 1_555
H17 C21 1_555 1_555
H18 C22 1_555 1_555
H19 C23 1_555 1_555
H20 C24 1_555 1_555
H21 C25 1_555 1_555
H22 C26 1_555 1_555
H23 C27 1_555 1_555
H24 C28 1_555 1_555
H25 C29 1_555 1_555
H26 C30 1_555 1_555
H27 C31 1_555 1_555
H28 C32 1_555 1_555
Mn1C N2 1_555 1_555
N2C Mn1 1_555 1_555
N4 C4 1_555 1_555
N9 C10 1_555 1_555
N16 B1 1_555 1_555
N22 B2 1_555 1_555
C10 C11 1_555 1_555
C13 C14 1_555 1_555
C16 C17 1_555 1_555
C19 C20 1_555 1_555
C22 C23 1_555 1_555
C25 C26 1_555 1_555
C28 C29 1_555 1_555
C31 C32 1_555 1_555

#END
