
#######################################################################
#
#                 Cambridge Crystallographic Data Centre
#                                CCDC 
#
#######################################################################
#
# If this CIF has been generated from an entry in the Cambridge 
# Structural Database, then it will include bibliographic, chemical, 
# crystal, experimental, refinement or atomic coordinate data resulting 
# from the CCDC's data processing and validation procedures.
#
#######################################################################

data_AMEHIK
_symmetry_cell_setting           monoclinic
_symmetry_space_group_name_H-M   'C 2/m'
_symmetry_Int_Tables_number      12
_space_group_name_Hall           '-C 2y'
loop_
_symmetry_equiv_pos_site_id
_symmetry_equiv_pos_as_xyz
1 x,y,z
2 -x,y,-z
3 1/2+x,1/2+y,z
4 1/2-x,1/2+y,-z
5 -x,-y,-z
6 x,-y,z
7 1/2-x,1/2-y,-z
8 1/2+x,1/2-y,z
_cell_length_a                   18.263(4)
_cell_length_b                   13.911(3)
_cell_length_c                   8.236(2)
_cell_angle_alpha                90
_cell_angle_beta                 100.237(4)
_cell_angle_gamma                90
_cell_volume                     2059.1
loop_
_atom_site_label
_atom_site_type_symbol
_atom_site_fract_x
_atom_site_fract_y
_atom_site_fract_z
Cl2 Cl 0.4334(4) 0.8756(8) -0.2153(11)
O1 O 0.4174(12) 0.7854(13) -0.302(3)
O2 O 0.4720(18) 0.940(2) -0.315(4)
O3 O 0.484(2) 0.856(2) -0.057(3)
O4 O 0.3668(14) 0.924(2) -0.184(5)
Cl2E Cl 0.4334(4) 1.1244(8) -0.2153(11)
Cl2D Cl 0.5666(4) 1.1244(8) 0.2153(11)
Cl2A Cl 0.5666(4) 0.8756(8) 0.2153(11)
O1E O 0.4174(12) 1.2146(13) -0.302(3)
O1D O 0.5826(12) 1.2146(13) 0.302(3)
O1A O 0.5826(12) 0.7854(13) 0.302(3)
O2E O 0.4720(18) 1.060(2) -0.315(4)
O2D O 0.5280(18) 1.060(2) 0.315(4)
O2A O 0.5280(18) 0.940(2) 0.315(4)
O3E O 0.484(2) 1.144(2) -0.057(3)
O3D O 0.516(2) 1.144(2) 0.057(3)
O3A O 0.516(2) 0.856(2) 0.057(3)
O4A O 0.6332(14) 0.924(2) 0.184(5)
O4D O 0.6332(14) 1.076(2) 0.184(5)
O4E O 0.3668(14) 1.076(2) -0.184(5)
Ag1 Ag 0.99295(2) 1.0000 0.68444(5)
C1 C 1.2080(3) 1.0000 0.3581(8)
C2 C 1.1897(4) 1.0000 0.1832(9)
H1 H 1.1403 1.0000 0.1304
C3 C 1.2467(5) 1.0000 0.0924(10)
H2 H 1.2347 1.0000 -0.0222
C4 C 1.3193(5) 1.0000 0.1647(12)
H3 H 1.3562 1.0000 0.1002
C5 C 1.3387(4) 1.0000 0.3374(13)
H4 H 1.3884 1.0000 0.3886
C6 C 1.2813(4) 1.0000 0.4317(10)
H5 H 1.2936 1.0000 0.5463
C7 C 1.1471(2) 1.1014(3) 0.6140(5)
C8 C 1.2072(3) 1.1638(4) 0.6302(6)
H6 H 1.2434 1.1572 0.5645
C9 C 1.2117(4) 1.2368(4) 0.7481(8)
H7 H 1.2511 1.2801 0.7609
C10 C 1.1592(3) 1.2448(4) 0.8435(7)
H8 H 1.1621 1.2927 0.9231
C11 C 1.0998(3) 1.1787(4) 0.8193(7)
H9 H 1.0636 1.1835 0.8853
Cl1 Cl 1.0000 1.0000 1.0000
N1 N 1.0935(2) 1.1106(3) 0.7068(5)
P1 P 1.13067(8) 1.0000 0.46905(18)
Ag1A Ag 1.00705(2) 1.0000 0.31556(5)
Ag1A_2 Ag 1.00705(2) 1.0000 1.31556(5)
C1A C 0.7920(3) 1.0000 0.6419(8)
C2A C 0.8103(4) 1.0000 0.8168(9)
H1A H 0.8597 1.0000 0.8696
C3A C 0.7533(5) 1.0000 0.9076(10)
H2A H 0.7653 1.0000 1.0222
C4A C 0.6807(5) 1.0000 0.8353(12)
H3A H 0.6438 1.0000 0.8998
C5A C 0.6613(4) 1.0000 0.6626(13)
H4A H 0.6116 1.0000 0.6114
C6A C 0.7187(4) 1.0000 0.5683(10)
H5A H 0.7064 1.0000 0.4537
C7E C 1.1471(2) 0.8986(3) 0.6140(5)
C7A C 0.8529(2) 1.1014(3) 0.3860(5)
C7D C 0.8529(2) 0.8986(3) 0.3860(5)
C8E C 1.2072(3) 0.8362(4) 0.6302(6)
C8A C 0.7928(3) 1.1638(4) 0.3698(6)
C8D C 0.7928(3) 0.8362(4) 0.3698(6)
H6E H 1.2434 0.8428 0.5645
H6A H 0.7566 1.1572 0.4355
H6D H 0.7566 0.8428 0.4355
C9E C 1.2117(4) 0.7632(4) 0.7481(8)
C9A C 0.7883(4) 1.2368(4) 0.2519(8)
C9D C 0.7883(4) 0.7632(4) 0.2519(8)
H7E H 1.2511 0.7199 0.7609
H7A H 0.7489 1.2801 0.2391
H7D H 0.7489 0.7199 0.2391
C10E C 1.1592(3) 0.7552(4) 0.8435(7)
C10A C 0.8408(3) 1.2448(4) 0.1565(7)
C10D C 0.8408(3) 0.7552(4) 0.1565(7)
H8E H 1.1621 0.7073 0.9231
H8A H 0.8379 1.2927 0.0769
H8D H 0.8379 0.7073 0.0769
C11E C 1.0998(3) 0.8213(4) 0.8193(7)
C11A C 0.9002(3) 1.1787(4) 0.1807(7)
C11D C 0.9002(3) 0.8213(4) 0.1807(7)
H9E H 1.0636 0.8165 0.8853
H9A H 0.9364 1.1835 0.1147
H9D H 0.9364 0.8165 0.1147
Cl1_2 Cl 1.0000 1.0000 0.0000
N1E N 1.0935(2) 0.8894(3) 0.7068(5)
N1A N 0.9065(2) 1.1106(3) 0.2932(5)
N1D N 0.9065(2) 0.8894(3) 0.2932(5)
P1A P 0.86933(8) 1.0000 0.53095(18)
loop_
_geom_bond_atom_site_label_1
_geom_bond_atom_site_label_2
_geom_bond_site_symmetry_1
_geom_bond_site_symmetry_2
Ag1 Cl1 1_555 1_555
C1 C2 1_555 1_555
C2 H1 1_555 1_555
C3 C2 1_555 1_555
H2 C3 1_555 1_555
C4 C3 1_555 1_555
H3 C4 1_555 1_555
C5 C4 1_555 1_555
H4 C5 1_555 1_555
C6 C1 1_555 1_555
H5 C6 1_555 1_555
C7 C8 1_555 1_555
C8 H6 1_555 1_555
C9 C8 1_555 1_555
H7 C9 1_555 1_555
C10 C9 1_555 1_555
H8 C10 1_555 1_555
C11 C10 1_555 1_555
H9 C11 1_555 1_555
Cl1 Ag1A_2 1_555 1_555
N1 Ag1 1_555 1_555
P1 C1 1_555 1_555
Cl2 O1 1_555 1_555
O2 Cl2 1_555 1_555
O3 Cl2 1_555 1_555
O4 Cl2 1_555 1_555
Ag1A Ag1 1_555 1_555
C1A C2A 1_555 1_555
C2A H1A 1_555 1_555
C3A C2A 1_555 1_555
H2A C3A 1_555 1_555
C4A C3A 1_555 1_555
H3A C4A 1_555 1_555
C5A C4A 1_555 1_555
H4A C5A 1_555 1_555
C6A C1A 1_555 1_555
H5A C6A 1_555 1_555
C7E P1 1_555 1_555
C7A C8A 1_555 1_555
C7D C8D 1_555 1_555
C8E C7E 1_555 1_555
C8A H6A 1_555 1_555
C8D H6D 1_555 1_555
H6E C8E 1_555 1_555
C9E C8E 1_555 1_555
C9A C8A 1_555 1_555
C9D C8D 1_555 1_555
H7E C9E 1_555 1_555
H7A C9A 1_555 1_555
H7D C9D 1_555 1_555
C10E C9E 1_555 1_555
C10A C9A 1_555 1_555
C10D C9D 1_555 1_555
H8E C10E 1_555 1_555
H8A C10A 1_555 1_555
H8D C10D 1_555 1_555
C11E C10E 1_555 1_555
C11A C10A 1_555 1_555
C11D C10D 1_555 1_555
H9E C11E 1_555 1_555
H9A C11A 1_555 1_555
H9D C11D 1_555 1_555
Cl1_2 Ag1A 1_555 1_555
N1E Ag1 1_555 1_555
N1A Ag1A 1_555 1_555
N1D Ag1A 1_555 1_555
P1A Ag1 1_555 1_555
Cl2E O1E 1_555 1_555
Cl2D O1D 1_555 1_555
Cl2A O1A 1_555 1_555
O2E O2 1_555 1_555
O2D Cl2D 1_555 1_555
O2A Cl2A 1_555 1_555
O3E Cl2E 1_555 1_555
O3D Cl2D 1_555 1_555
O3A O3 1_555 1_555
O4A Cl2A 1_555 1_555
O4D Cl2D 1_555 1_555
O4E Cl2E 1_555 1_555
C5 C6 1_555 1_555
C7 N1 1_555 1_555
C7 P1 1_555 1_555
C11 N1 1_555 1_555
P1 Ag1A 1_555 1_555
C1A P1A 1_555 1_555
C5A C6A 1_555 1_555
C7E N1E 1_555 1_555
C7A N1A 1_555 1_555
C7A P1A 1_555 1_555
C7D N1D 1_555 1_555
C7D P1A 1_555 1_555
C11E N1E 1_555 1_555
C11A N1A 1_555 1_555
C11D N1D 1_555 1_555
Cl2E O2E 1_555 1_555
Cl2A O3A 1_555 1_555
O2D O2A 1_555 1_555
O3E O3D 1_555 1_555

#END
