
#######################################################################
#
#                 Cambridge Crystallographic Data Centre
#                                CCDC 
#
#######################################################################
#
# If this CIF has been generated from an entry in the Cambridge 
# Structural Database, then it will include bibliographic, chemical, 
# crystal, experimental, refinement or atomic coordinate data resulting 
# from the CCDC's data processing and validation procedures.
#
#######################################################################

data_AMEQOZ
_symmetry_cell_setting           triclinic
_symmetry_space_group_name_H-M   'P -1'
_symmetry_Int_Tables_number      2
_space_group_name_Hall           '-P 1'
loop_
_symmetry_equiv_pos_site_id
_symmetry_equiv_pos_as_xyz
1 x,y,z
2 -x,-y,-z
_cell_length_a                   6.4303(13)
_cell_length_b                   10.399(2)
_cell_length_c                   11.713(2)
_cell_angle_alpha                83.04(3)
_cell_angle_beta                 81.87(3)
_cell_angle_gamma                83.84(3)
_cell_volume                     766.401
loop_
_atom_site_label
_atom_site_type_symbol
_atom_site_fract_x
_atom_site_fract_y
_atom_site_fract_z
Cd1 Cd -0.22174(3) -0.008504(18) 0.147725(15)
N1 N -0.0921(5) 0.1596(3) 0.4571(2)
C1 C 0.0140(6) 0.3656(3) 0.5117(3)
C2 C -0.0368(5) 0.1242(3) 0.3493(3)
H1 H 0.0975 0.1280 0.3081
N2 N -0.1968(4) 0.0836(3) 0.3099(2)
O1 O -0.3457(4) -0.1719(3) 0.0726(2)
O2 O -0.3979(5) -0.2003(3) 0.2620(3)
C3 C -0.6103(9) -0.5774(4) 0.2028(5)
C4 C -0.4222(5) -0.2326(3) 0.1668(3)
C5 C 0.0400(7) 0.2178(3) 0.5263(3)
H2 H 0.1868 0.1886 0.5037
H3 H 0.0040 0.1872 0.6075
N3 N -0.3635(6) 0.0952(4) 0.3966(3)
C6 C -0.3016(7) 0.1421(4) 0.4892(3)
H4 H -0.3836 0.1587 0.5588
C7 C -0.8788(6) -0.4213(4) 0.1136(5)
H5 H -0.8886 -0.4189 0.0315
H6 H -1.0205 -0.4052 0.1534
C8 C -0.1468(8) 0.4356(4) 0.4607(5)
H7 H -0.2453 0.3927 0.4325
C9 C 0.1640(7) 0.4283(4) 0.5494(4)
H8 H 0.2766 0.3808 0.5815
C10 C -0.7862(7) -0.5562(4) 0.1580(4)
C11 C -0.4703(7) -0.4724(4) 0.2112(5)
H9 H -0.4636 -0.4650 0.2923
H10 H -0.3287 -0.4975 0.1754
O3 O -0.5904(4) 0.0800(3) 0.1579(2)
C12 C -0.5437(9) -0.3459(4) 0.1554(8)
H11 H -0.4800 -0.3605 0.0764
C13 C -0.7537(9) -0.3194(4) 0.1310(7)
H12 H -0.8182 -0.3074 0.2103
C14 C -0.8243(5) -0.1876(3) 0.0768(3)
O4 O -0.8823(5) -0.1032(4) 0.1437(4)
O5 O -0.8162(7) -0.1739(4) -0.0315(3)
H13 H -0.6920(16) 0.0310(18) 0.171(5)
H14 H -0.579(5) -0.662(2) 0.241(4)
H15 H -0.849(5) -0.641(6) 0.152(4)
H16 H -0.633(2) 0.146(3) 0.115(4)
Cd1A Cd 0.22174(3) 1.008504(18) 0.852275(15)
Cd1_2 Cd -1.22174(3) -0.008504(18) 0.147725(15)
Cd1A_2 Cd -0.77826(3) 0.008504(18) -0.147725(15)
Cd1A_3 Cd 0.22174(3) 0.008504(18) -0.147725(15)
N1A N 0.0921(5) 0.8404(3) 0.5429(2)
C1A C -0.0140(6) 0.6344(3) 0.4883(3)
C2A C 0.0368(5) 0.8758(3) 0.6507(3)
H1A H -0.0975 0.8720 0.6919
N2A N 0.1968(4) 0.9164(3) 0.6901(2)
N2A_2 N -0.8032(4) -0.0836(3) -0.3099(2)
O1A O -0.6543(4) 0.1719(3) -0.0726(2)
O2A O -0.6021(5) 0.2003(3) -0.2620(3)
C3A C -0.3897(9) 0.5774(4) -0.2028(5)
C4A C -0.5778(5) 0.2326(3) -0.1668(3)
C5A C -0.0400(7) 0.7822(3) 0.4737(3)
H2A H -0.1868 0.8114 0.4963
H3A H -0.0040 0.8128 0.3925
N3A N 0.3635(6) 0.9048(4) 0.6034(3)
C6A C 0.3016(7) 0.8579(4) 0.5108(3)
H4A H 0.3836 0.8413 0.4412
C7A C -0.1212(6) 0.4213(4) -0.1136(5)
H5A H -0.1114 0.4189 -0.0315
H6A H 0.0205 0.4052 -0.1534
C8A C 0.1468(8) 0.5644(4) 0.5393(5)
H7A H 0.2453 0.6073 0.5675
C9A C -0.1640(7) 0.5717(4) 0.4506(4)
H8A H -0.2766 0.6192 0.4185
C10A C -0.2138(7) 0.5562(4) -0.1580(4)
C11A C -0.5297(7) 0.4724(4) -0.2112(5)
H9A H -0.5364 0.4650 -0.2923
H10A H -0.6713 0.4975 -0.1754
O3A O -0.4096(4) -0.0800(3) -0.1579(2)
C12A C -0.4563(9) 0.3459(4) -0.1554(8)
H11A H -0.5200 0.3605 -0.0764
C13A C -0.2463(9) 0.3194(4) -0.1310(7)
H12A H -0.1818 0.3074 -0.2103
C14A C -0.1757(5) 0.1876(3) -0.0768(3)
O4_2 O 0.1177(5) -0.1032(4) 0.1437(4)
O4A O -1.1177(5) 0.1032(4) -0.1437(4)
O4A_2 O -0.1177(5) 0.1032(4) -0.1437(4)
O5A O -0.1838(7) 0.1739(4) 0.0315(3)
H13A H -0.3080(16) -0.0310(18) -0.171(5)
H14A H -0.421(5) 0.662(2) -0.241(4)
H15A H -0.151(5) 0.641(6) -0.152(4)
H16A H -0.367(2) -0.146(3) -0.115(4)
loop_
_geom_bond_atom_site_label_1
_geom_bond_atom_site_label_2
_geom_bond_site_symmetry_1
_geom_bond_site_symmetry_2
Cd1 N2 1_555 1_555
N1 C2 1_555 1_555
C1 C5 1_555 1_555
C2 H1 1_555 1_555
N2 C2 1_555 1_555
O1 Cd1 1_555 1_555
O2 Cd1 1_555 1_555
C3 C10 1_555 1_555
C4 O1 1_555 1_555
C5 N1 1_555 1_555
H2 C5 1_555 1_555
H3 C5 1_555 1_555
N3 N2 1_555 1_555
C6 N1 1_555 1_555
H4 C6 1_555 1_555
C7 H5 1_555 1_555
H6 C7 1_555 1_555
C8 C1 1_555 1_555
H7 C8 1_555 1_555
C9 C1 1_555 1_555
H8 C9 1_555 1_555
C10 C7 1_555 1_555
C11 C3 1_555 1_555
H9 C11 1_555 1_555
H10 C11 1_555 1_555
O3 Cd1 1_555 1_555
C12 C4 1_555 1_555
H11 C12 1_555 1_555
C13 C7 1_555 1_555
H12 C13 1_555 1_555
C14 C13 1_555 1_555
O4 C14 1_555 1_555
O5 C14 1_555 1_555
H13 O3 1_555 1_555
H14 C3 1_555 1_555
H15 C10 1_555 1_555
H16 O3 1_555 1_555
Cd1A N2A 1_555 1_555
Cd1_2 O4 1_555 1_555
Cd1A_2 O5 1_555 1_555
Cd1A_3 O4A_2 1_555 1_555
N1A C2A 1_555 1_555
C1A C5A 1_555 1_555
C2A H1A 1_555 1_555
N2A C2A 1_555 1_555
N2A_2 Cd1A_2 1_555 1_555
O1A Cd1A_2 1_555 1_555
O2A Cd1A_2 1_555 1_555
C3A C10A 1_555 1_555
C4A O1A 1_555 1_555
C5A N1A 1_555 1_555
H2A C5A 1_555 1_555
H3A C5A 1_555 1_555
N3A N2A 1_555 1_555
C6A N1A 1_555 1_555
H4A C6A 1_555 1_555
C7A H5A 1_555 1_555
H6A C7A 1_555 1_555
C8A C9 1_555 1_555
H7A C8A 1_555 1_555
C9A C8 1_555 1_555
H8A C9A 1_555 1_555
C10A C7A 1_555 1_555
C11A C3A 1_555 1_555
H9A C11A 1_555 1_555
H10A C11A 1_555 1_555
O3A Cd1A_2 1_555 1_555
C12A C4A 1_555 1_555
H11A C12A 1_555 1_555
C13A C7A 1_555 1_555
H12A C13A 1_555 1_555
C14A C13A 1_555 1_555
O4_2 Cd1 1_555 1_555
O4A Cd1A_2 1_555 1_555
O4A_2 C14A 1_555 1_555
O5A Cd1 1_555 1_555
H13A O3A 1_555 1_555
H14A C3A 1_555 1_555
H15A C10A 1_555 1_555
H16A O3A 1_555 1_555
O2 C4 1_555 1_555
N3 C6 1_555 1_555
C11 C12 1_555 1_555
C12 C13 1_555 1_555
C1A C8A 1_555 1_555
C1A C9A 1_555 1_555
O2A C4A 1_555 1_555
N3A C6A 1_555 1_555
C11A C12A 1_555 1_555
C12A C13A 1_555 1_555
C14A O5A 1_555 1_555

#END
