
#######################################################################
#
#                 Cambridge Crystallographic Data Centre
#                                CCDC 
#
#######################################################################
#
# If this CIF has been generated from an entry in the Cambridge 
# Structural Database, then it will include bibliographic, chemical, 
# crystal, experimental, refinement or atomic coordinate data resulting 
# from the CCDC's data processing and validation procedures.
#
#######################################################################

data_AMEVIX
_symmetry_cell_setting           triclinic
_symmetry_space_group_name_H-M   'P -1'
_symmetry_Int_Tables_number      2
_space_group_name_Hall           '-P 1'
loop_
_symmetry_equiv_pos_site_id
_symmetry_equiv_pos_as_xyz
1 x,y,z
2 -x,-y,-z
_cell_length_a                   7.4560(15)
_cell_length_b                   11.283(2)
_cell_length_c                   11.326(2)
_cell_angle_alpha                78.15(3)
_cell_angle_beta                 89.07(3)
_cell_angle_gamma                88.32(3)
_cell_volume                     932.054
loop_
_atom_site_label
_atom_site_type_symbol
_atom_site_fract_x
_atom_site_fract_y
_atom_site_fract_z
Cu1 Cu 0.75592(9) 0.87953(7) 0.83551(6)
Na1 Na 1.0000 1.0000 1.0000
Na2 Na 0.5000 1.0000 1.0000
Cl1 Cl 1.2464(2) 0.87841(14) 0.78934(12)
O1 O 0.7638(5) 1.0461(3) 0.8504(3)
O2 O 0.7418(5) 0.8465(3) 1.0080(3)
O3 O 1.4009(6) 0.9184(5) 0.8407(4)
O4 O 1.2944(8) 0.7724(5) 0.7464(4)
O5 O 1.1884(7) 0.9685(5) 0.6879(4)
O6 O 1.1041(5) 0.8567(5) 0.8763(4)
N1 N 0.7859(6) 0.9188(4) 0.6554(4)
H1 H 0.9041(6) 0.9309(4) 0.6373(4)
C1 C 0.8007(7) 1.1427(5) 0.7607(5)
N2 N 0.7275(7) 0.7075(5) 0.8193(4)
H2 H 0.6080(7) 0.6928(5) 0.8228(4)
C2 C 0.8728(8) 1.2457(6) 0.7862(5)
H3 H 0.8956(8) 1.2480(6) 0.8662(5)
C3 C 0.9122(9) 1.3448(6) 0.6981(6)
H4 H 0.9622(9) 1.4122(6) 0.7188(6)
C4 C 0.8776(10) 1.3444(7) 0.5784(6)
H5 H 0.9040(10) 1.4108(7) 0.5177(6)
C5 C 0.8026(9) 1.2427(6) 0.5521(5)
H6 H 0.7769(9) 1.2428(6) 0.4720(5)
C6 C 0.7635(8) 1.1404(6) 0.6382(5)
C7 C 0.6838(8) 1.0308(6) 0.6051(5)
H7 H 0.5610(8) 1.0234(6) 0.6348(5)
H8 H 0.6813(8) 1.0416(6) 0.5179(5)
C8 C 0.7294(9) 0.8099(6) 0.6093(5)
H9 H 0.5997(9) 0.8103(6) 0.6031(5)
H10 H 0.7811(9) 0.8114(6) 0.5299(5)
C9 C 0.7934(8) 0.6989(6) 0.6958(5)
H11 H 0.9235(8) 0.6932(6) 0.6944(5)
H12 H 0.7474(8) 0.6271(6) 0.6733(5)
C10 C 0.8148(9) 0.6193(6) 0.9204(6)
H13 H 0.9412(9) 0.6366(6) 0.9225(6)
H14 H 0.8052(9) 0.5378(6) 0.9061(6)
C11 C 0.7288(8) 0.6260(6) 1.0398(5)
C12 C 0.6906(9) 0.5186(7) 1.1214(6)
H15 H 0.7123(9) 0.4451(7) 1.0980(6)
C13 C 0.6217(10) 0.5179(7) 1.2353(7)
H16 H 0.5957(10) 0.4449(7) 1.2868(7)
C14 C 0.5915(9) 0.6259(7) 1.2724(6)
H17 H 0.5444(9) 0.6263(7) 1.3489(6)
C15 C 0.6324(8) 0.7348(6) 1.1939(5)
H18 H 0.6122(8) 0.8074(6) 1.2195(5)
C16 C 0.7035(7) 0.7380(6) 1.0770(5)
O1A O 1.2362(5) 0.9539(3) 1.1496(3)
O2A O 1.2582(5) 1.1535(3) 0.9920(3)
N1A N 1.2141(6) 1.0812(4) 1.3446(4)
H1A H 1.0959(6) 1.0691(4) 1.3627(4)
C1A C 1.1993(7) 0.8573(5) 1.2393(5)
N2A N 1.2725(7) 1.2925(5) 1.1807(4)
H2A H 1.3920(7) 1.3072(5) 1.1772(4)
C2A C 1.1272(8) 0.7543(6) 1.2138(5)
H3A H 1.1044(8) 0.7520(6) 1.1338(5)
C3A C 1.0878(9) 0.6552(6) 1.3019(6)
H4A H 1.0378(9) 0.5878(6) 1.2812(6)
C4A C 1.1224(10) 0.6556(7) 1.4216(6)
H5A H 1.0960(10) 0.5892(7) 1.4823(6)
C5A C 1.1974(9) 0.7573(6) 1.4479(5)
H6A H 1.2231(9) 0.7572(6) 1.5280(5)
C6A C 1.2365(8) 0.8596(6) 1.3618(5)
C7A C 1.3162(8) 0.9692(6) 1.3949(5)
H7A H 1.4390(8) 0.9766(6) 1.3652(5)
H8A H 1.3187(8) 0.9584(6) 1.4821(5)
C8A C 1.2706(9) 1.1901(6) 1.3907(5)
H9A H 1.4003(9) 1.1897(6) 1.3969(5)
H10A H 1.2189(9) 1.1886(6) 1.4701(5)
C9A C 1.2066(8) 1.3011(6) 1.3042(5)
H11A H 1.0765(8) 1.3068(6) 1.3056(5)
H12A H 1.2526(8) 1.3729(6) 1.3267(5)
C10A C 1.1852(9) 1.3807(6) 1.0796(6)
H13A H 1.0588(9) 1.3634(6) 1.0775(6)
H14A H 1.1948(9) 1.4622(6) 1.0939(6)
C11A C 1.2712(8) 1.3740(6) 0.9602(5)
C12A C 1.3094(9) 1.4814(7) 0.8786(6)
H15A H 1.2877(9) 1.5549(7) 0.9020(6)
C13A C 1.3783(10) 1.4821(7) 0.7647(7)
H16A H 1.4043(10) 1.5551(7) 0.7132(7)
C14A C 1.4085(9) 1.3741(7) 0.7276(6)
H17A H 1.4556(9) 1.3737(7) 0.6511(6)
C15A C 1.3676(8) 1.2652(6) 0.8061(5)
H18A H 1.3878(8) 1.1926(6) 0.7805(5)
C16A C 1.2965(7) 1.2620(6) 0.9230(5)
Cl1A Cl 0.7536(2) 1.12159(14) 1.21066(12)
O3A O 0.5991(6) 1.0816(5) 1.1593(4)
O4A O 0.7056(8) 1.2276(5) 1.2536(4)
O5A O 0.8116(7) 1.0315(5) 1.3121(4)
O6A O 0.8959(5) 1.1433(5) 1.1237(4)
Cu1A Cu 1.24408(9) 1.12047(7) 1.16449(6)
O1A_2 O 0.2362(5) 0.9539(3) 1.1496(3)
O2A_2 O 0.2582(5) 1.1535(3) 0.9920(3)
O3_2 O 0.4009(6) 0.9184(5) 0.8407(4)
Na2_2 Na 1.5000 1.0000 1.0000
loop_
_geom_bond_atom_site_label_1
_geom_bond_atom_site_label_2
_geom_bond_site_symmetry_1
_geom_bond_site_symmetry_2
Cu1 O1 1_555 1_555
Na1 O1 1_555 1_555
Na2 O1 1_555 1_555
Cl1 O3 1_555 1_555
O1 C1 1_555 1_555
O2 Cu1 1_555 1_555
O3 Na2_2 1_555 1_555
O4 Cl1 1_555 1_555
O5 Cl1 1_555 1_555
O6 Na1 1_555 1_555
N1 Cu1 1_555 1_555
H1 N1 1_555 1_555
C1 C2 1_555 1_555
N2 Cu1 1_555 1_555
H2 N2 1_555 1_555
C2 H3 1_555 1_555
C3 C2 1_555 1_555
H4 C3 1_555 1_555
C4 C3 1_555 1_555
H5 C4 1_555 1_555
C5 C4 1_555 1_555
H6 C5 1_555 1_555
C6 C1 1_555 1_555
C7 N1 1_555 1_555
H7 C7 1_555 1_555
H8 C7 1_555 1_555
C8 N1 1_555 1_555
H9 C8 1_555 1_555
H10 C8 1_555 1_555
C9 N2 1_555 1_555
H11 C9 1_555 1_555
H12 C9 1_555 1_555
C10 N2 1_555 1_555
H13 C10 1_555 1_555
H14 C10 1_555 1_555
C11 C10 1_555 1_555
C12 C11 1_555 1_555
H15 C12 1_555 1_555
C13 C12 1_555 1_555
H16 C13 1_555 1_555
C14 C13 1_555 1_555
H17 C14 1_555 1_555
C15 C14 1_555 1_555
H18 C15 1_555 1_555
C16 O2 1_555 1_555
O1A Na1 1_555 1_555
O2A Na1 1_555 1_555
N1A H1A 1_555 1_555
C1A O1A 1_555 1_555
N2A H2A 1_555 1_555
C2A C1A 1_555 1_555
H3A C2A 1_555 1_555
C3A C2A 1_555 1_555
H4A C3A 1_555 1_555
C4A C3A 1_555 1_555
H5A C4A 1_555 1_555
C5A C4A 1_555 1_555
H6A C5A 1_555 1_555
C6A C1A 1_555 1_555
C7A N1A 1_555 1_555
H7A C7A 1_555 1_555
H8A C7A 1_555 1_555
C8A N1A 1_555 1_555
H9A C8A 1_555 1_555
H10A C8A 1_555 1_555
C9A N2A 1_555 1_555
H11A C9A 1_555 1_555
H12A C9A 1_555 1_555
C10A N2A 1_555 1_555
H13A C10A 1_555 1_555
H14A C10A 1_555 1_555
C11A C10A 1_555 1_555
C12A C11A 1_555 1_555
H15A C12A 1_555 1_555
C13A C12A 1_555 1_555
H16A C13A 1_555 1_555
C14A C13A 1_555 1_555
H17A C14A 1_555 1_555
C15A C14A 1_555 1_555
H18A C15A 1_555 1_555
C16A O2A 1_555 1_555
Cl1A O3A 1_555 1_555
O3A Na2 1_555 1_555
O4A Cl1A 1_555 1_555
O5A Cl1A 1_555 1_555
O6A Na1 1_555 1_555
Cu1A O1A 1_555 1_555
O1A_2 Na2 1_555 1_555
O2A_2 Na2 1_555 1_555
O3_2 Na2 1_555 1_555
Na2_2 O1A 1_555 1_555
Na1 O2 1_555 1_555
Na2 O2 1_555 1_555
Cl1 O6 1_555 1_555
C5 C6 1_555 1_555
C6 C7 1_555 1_555
C8 C9 1_555 1_555
C11 C16 1_555 1_555
C15 C16 1_555 1_555
O2A Cu1A 1_555 1_555
O2A Na2_2 1_555 1_555
N1A Cu1A 1_555 1_555
N2A Cu1A 1_555 1_555
C5A C6A 1_555 1_555
C6A C7A 1_555 1_555
C8A C9A 1_555 1_555
C11A C16A 1_555 1_555
C15A C16A 1_555 1_555
Cl1A O6A 1_555 1_555

#END
