
#######################################################################
#
#                 Cambridge Crystallographic Data Centre
#                                CCDC 
#
#######################################################################
#
# If this CIF has been generated from an entry in the Cambridge 
# Structural Database, then it will include bibliographic, chemical, 
# crystal, experimental, refinement or atomic coordinate data resulting 
# from the CCDC's data processing and validation procedures.
#
#######################################################################

data_AMEWUK
_symmetry_cell_setting           trigonal
_symmetry_space_group_name_H-M   'P 32 2 1'
_symmetry_Int_Tables_number      154
_space_group_name_Hall           'P 32 2"'
loop_
_symmetry_equiv_pos_site_id
_symmetry_equiv_pos_as_xyz
1 x,y,z
2 -y,x-y,2/3+z
3 -x+y,-x,1/3+z
4 x-y,-y,1/3-z
5 -x,-x+y,2/3-z
6 y,x,-z
_cell_length_a                   12.511(2)
_cell_length_b                   12.511(2)
_cell_length_c                   21.472(4)
_cell_angle_alpha                90
_cell_angle_beta                 90
_cell_angle_gamma                120
_cell_volume                     2910.63
loop_
_atom_site_label
_atom_site_type_symbol
_atom_site_fract_x
_atom_site_fract_y
_atom_site_fract_z
N3 N 1.2752(13) 1.3318(14) 0.5275(7)
C16 C 1.3720(13) 1.4029(15) 0.5116(8)
C17 C 1.4981(11) 1.4981(11) 0.5000
N3E N 1.3318(14) 1.2752(13) 0.4725(7)
C16E C 1.4029(15) 1.3720(13) 0.4884(8)
O5 O 1.0000 0.741(3) 0.3333
C1 C 0.9299(4) 0.9299(4) 0.5000
C2 C 0.8043(4) 0.9187(4) 0.48723(16)
H1 H 0.7473 0.8873 0.5285
H2 H 0.8160 1.0072 0.4739
C3 C 0.6611(4) 0.8379(4) 0.40417(16)
C4 C 0.6144(4) 0.7446(4) 0.35301(17)
C5 C 0.5071(4) 0.7219(4) 0.32232(18)
H3 H 0.4626 0.7737 0.3353
C6 C 0.5142(5) 0.5738(4) 0.26060(19)
H4 H 0.4735 0.5044 0.2246
C7 C 0.6222(5) 0.5938(5) 0.2880(2)
H5 H 0.6665 0.5432 0.2725
C8 C 0.6731(4) 0.6792(4) 0.33527(19)
H6 H 0.7567 0.6953 0.3582
C9 C 0.9852(4) 1.0141(4) 0.55653(15)
H7 H 0.9865 1.1001 0.5493
H8 H 0.9314 0.9703 0.5977
C10 C 1.1739(4) 1.1072(4) 0.61110(16)
C11 C 1.2999(4) 1.1233(4) 0.61476(16)
C12 C 1.3712(4) 1.1813(4) 0.66611(17)
H9 H 1.3357 1.2177 0.7010
C13 C 1.5285(5) 1.1506(5) 0.6308(2)
H10 H 1.6188 1.1610 0.6375
C14 C 1.4625(5) 1.0931(6) 0.5779(2)
H11 H 1.5017 1.0601 0.5433
C15 C 1.3465(5) 1.0776(5) 0.5690(2)
H12 H 1.2932 1.0317 0.5280
N1 N 0.4573(3) 0.6364(3) 0.27660(15)
N2 N 1.4827(3) 1.1941(3) 0.67429(15)
O1 O 0.7474(2) 0.8312(2) 0.43756(11)
O2 O 0.6246(3) 0.9090(3) 0.41394(14)
O3 O 1.1092(2) 1.0358(3) 0.56356(11)
O4 O 1.1331(3) 1.1492(3) 0.64852(14)
Cl1 Cl 0.23537(12) 0.45015(12) 0.16854(5)
Cl2 Cl 0.25062(17) 0.74121(15) 0.24337(8)
Zn1 Zn 0.28204(5) 0.58301(4) 0.24604(2)
C2E C 0.9187(4) 0.8043(4) 0.51277(16)
H1E H 0.8873 0.7473 0.4715
H2E H 1.0072 0.8160 0.5261
O1E O 0.8312(2) 0.7474(2) 0.56244(11)
C3E C 0.8379(4) 0.6611(4) 0.59583(16)
C4E C 0.7446(4) 0.6144(4) 0.64699(17)
C5E C 0.7219(4) 0.5071(4) 0.67768(18)
H3E H 0.7737 0.4626 0.6647
N1E N 0.6364(3) 0.4573(3) 0.72340(15)
C6E C 0.5738(4) 0.5142(5) 0.73940(19)
H4E H 0.5044 0.4735 0.7754
C7E C 0.5938(5) 0.6222(5) 0.7120(2)
H5E H 0.5432 0.6665 0.7275
C8E C 0.6792(4) 0.6731(4) 0.66473(19)
H6E H 0.6953 0.7567 0.6418
O2E O 0.9090(3) 0.6246(3) 0.58606(14)
C9E C 1.0141(4) 0.9852(4) 0.44347(15)
H7E H 1.1001 0.9865 0.4507
H8E H 0.9703 0.9314 0.4023
O3E O 1.0358(3) 1.1092(2) 0.43644(11)
C10E C 1.1072(4) 1.1739(4) 0.38890(16)
C11E C 1.1233(4) 1.2999(4) 0.38524(16)
C12E C 1.1813(4) 1.3712(4) 0.33389(17)
H9E H 1.2177 1.3357 0.2990
N2E N 1.1941(3) 1.4827(3) 0.32571(15)
C13E C 1.1506(5) 1.5285(5) 0.3692(2)
H10E H 1.1610 1.6188 0.3625
C14E C 1.0931(6) 1.4625(5) 0.4221(2)
H11E H 1.0601 1.5017 0.4567
C15E C 1.0776(5) 1.3465(5) 0.4310(2)
H12E H 1.0317 1.2932 0.4720
O4E O 1.1492(3) 1.1331(3) 0.35148(14)
Zn1E Zn 0.58301(4) 0.28204(5) 0.75396(2)
Cl1E Cl 0.45015(12) 0.23537(12) 0.83146(5)
Cl2E Cl 0.74121(15) 0.25062(17) 0.75663(8)
Zn1E_2 Zn 1.58301(4) 1.28204(5) 0.75396(2)
N2E_2 N 0.1941(3) 0.4827(3) 0.32571(15)
Zn1_2 Zn 1.28204(5) 1.58301(4) 0.24604(2)
N2_2 N 0.4827(3) 0.1941(3) 0.67429(15)
loop_
_geom_bond_atom_site_label_1
_geom_bond_atom_site_label_2
_geom_bond_site_symmetry_1
_geom_bond_site_symmetry_2
C1 C2 1_555 1_555
C2 H1 1_555 1_555
H2 C2 1_555 1_555
C3 C4 1_555 1_555
C4 C5 1_555 1_555
C5 H3 1_555 1_555
C6 H4 1_555 1_555
C7 C6 1_555 1_555
H5 C7 1_555 1_555
C8 C4 1_555 1_555
H6 C8 1_555 1_555
C9 C1 1_555 1_555
H7 C9 1_555 1_555
H8 C9 1_555 1_555
C10 C11 1_555 1_555
C11 C12 1_555 1_555
C12 H9 1_555 1_555
C13 H10 1_555 1_555
C14 C13 1_555 1_555
H11 C14 1_555 1_555
C15 C11 1_555 1_555
H12 C15 1_555 1_555
N1 C5 1_555 1_555
N2 C12 1_555 1_555
O1 C2 1_555 1_555
O2 C3 1_555 1_555
O3 C9 1_555 1_555
O4 C10 1_555 1_555
Cl1 Zn1 1_555 1_555
Cl2 Zn1 1_555 1_555
Zn1 N1 1_555 1_555
N3 C16 1_555 1_555
C16 C17 1_555 1_555
C17 C16E 1_555 1_555
C2E C1 1_555 1_555
H1E C2E 1_555 1_555
H2E C2E 1_555 1_555
O1E C2E 1_555 1_555
C3E O1E 1_555 1_555
C4E C3E 1_555 1_555
C5E C4E 1_555 1_555
H3E C5E 1_555 1_555
N1E C5E 1_555 1_555
C6E N1E 1_555 1_555
H4E C6E 1_555 1_555
C7E C6E 1_555 1_555
H5E C7E 1_555 1_555
C8E C4E 1_555 1_555
H6E C8E 1_555 1_555
O2E C3E 1_555 1_555
C9E C1 1_555 1_555
H7E C9E 1_555 1_555
H8E C9E 1_555 1_555
O3E C9E 1_555 1_555
C10E O3E 1_555 1_555
C11E C10E 1_555 1_555
C12E C11E 1_555 1_555
H9E C12E 1_555 1_555
N2E C12E 1_555 1_555
C13E N2E 1_555 1_555
H10E C13E 1_555 1_555
C14E C13E 1_555 1_555
H11E C14E 1_555 1_555
C15E C11E 1_555 1_555
H12E C15E 1_555 1_555
O4E C10E 1_555 1_555
N3E N3 1_555 1_555
C16E N3 1_555 1_555
Zn1E N1E 1_555 1_555
Cl1E Zn1E 1_555 1_555
Cl2E Zn1E 1_555 1_555
Zn1E_2 N2 1_555 1_555
N2E_2 Zn1 1_555 1_555
Zn1_2 N2E 1_555 1_555
N2_2 Zn1E 1_555 1_555
C3 O1 1_555 1_555
C6 N1 1_555 1_555
C7 C8 1_555 1_555
C10 O3 1_555 1_555
C13 N2 1_555 1_555
C14 C15 1_555 1_555
C16 N3E 1_555 1_555
C16 C16E 1_555 1_555
C7E C8E 1_555 1_555
C14E C15E 1_555 1_555
N3E C16E 1_555 1_555

#END
