
#######################################################################
#
#                 Cambridge Crystallographic Data Centre
#                                CCDC 
#
#######################################################################
#
# If this CIF has been generated from an entry in the Cambridge 
# Structural Database, then it will include bibliographic, chemical, 
# crystal, experimental, refinement or atomic coordinate data resulting 
# from the CCDC's data processing and validation procedures.
#
#######################################################################

data_AMEXEV
_symmetry_cell_setting           monoclinic
_symmetry_space_group_name_H-M   'P 2/c'
_symmetry_Int_Tables_number      13
_space_group_name_Hall           '-P 2yc'
loop_
_symmetry_equiv_pos_site_id
_symmetry_equiv_pos_as_xyz
1 x,y,z
2 x,-y,1/2+z
3 -x,-y,-z
4 -x,y,1/2-z
_cell_length_a                   10.5626(4)
_cell_length_b                   15.3884(6)
_cell_length_c                   13.7398(5)
_cell_angle_alpha                90
_cell_angle_beta                 100.219(2)
_cell_angle_gamma                90
_cell_volume                     2197.86
loop_
_atom_site_label
_atom_site_type_symbol
_atom_site_fract_x
_atom_site_fract_y
_atom_site_fract_z
O14 O 0.5000 0.3991(3) 0.7500
H13 H 0.550(5) 0.441(3) 0.797(3)
H13C H 0.450(5) 0.441(3) 0.703(3)
O15 O 0.8953(4) 0.1961(2) 1.2983(3)
H14 H 0.905(5) 0.1354(14) 1.325(4)
H15 H 0.814(3) 0.197(3) 1.249(4)
O16 O 0.6524(5) 0.2131(4) 1.1855(4)
H16 H 0.659(9) 0.153(2) 1.158(5)
H17 H 0.702(8) 0.213(5) 1.255(3)
O17 O 0.5000 0.3441(5) 1.2500
H18 H 0.552(9) 0.297(4) 1.225(8)
H18C H 0.448(9) 0.297(4) 1.275(8)
O18 O 0.6735(11) 0.0507(7) 1.0452(8)
O20 O 0.8846(17) 0.0270(8) 1.3552(17)
O23 O 0.6299(8) 0.5242(5) 0.8698(6)
H19 H 0.698(8) 0.492(7) 0.843(8)
C16 C 0.5398(16) 0.5119(11) 0.9183(12)
H20 H 0.4793 0.5524 0.8917
H21 H 0.5732 0.5330 0.9802
H22 H 0.4890 0.4669 0.9330
C1 C 0.0000 0.5276(3) 0.7500
C2 C -0.0009(4) 0.4727(3) 0.8421(3)
H1 H 0.0132 0.5136 0.9070
H2 H -0.0923 0.4400 0.8371
C3 C 0.1354(4) 0.3715(3) 0.9375(3)
C4 C 0.2376(4) 0.3058(3) 0.9382(3)
C5 C 0.3053(4) 0.2981(3) 0.8608(3)
H3 H 0.2844 0.3427 0.7993
C6 C 0.4200(5) 0.1812(3) 0.9365(3)
H4 H 0.4907 0.1308 0.9348
C7 C 0.3584(6) 0.1857(3) 1.0167(3)
H5 H 0.3823 0.1409 1.0777
C8 C 0.2652(5) 0.2489(3) 1.0174(3)
H6 H 0.2146 0.2538 1.0790
C9 C 0.1219(4) 0.5837(3) 0.7596(3)
H7 H 0.2059 0.5424 0.7705
H8 H 0.1206 0.6204 0.6925
C10 C 0.2181(5) 0.6291(3) 0.9210(3)
C11 C 0.2190(4) 0.6967(3) 0.9983(3)
C12 C 0.3247(4) 0.7004(3) 1.0735(3)
H9 H 0.4014 0.6539 1.0737
C13 C 0.2387(4) 0.8152(3) 1.1463(3)
H10 H 0.2454 0.8618 1.2058
C14 C 0.1303(5) 0.8158(3) 1.0737(4)
H11 H 0.0543 0.8622 1.0766
C15 C 0.1198(4) 0.7563(3) 0.9968(3)
H12 H 0.0373 0.7562 0.9378
N1 N 0.3954(3) 0.2374(2) 0.8598(2)
N2 N 0.3357(3) 0.7598(2) 1.1464(2)
O1 O 0.1023(3) 0.40951(17) 0.84913(18)
O2 O 0.0848(4) 0.3871(2) 1.0069(2)
O3 O 0.1283(3) 0.64270(18) 0.84283(18)
O4 O 0.2909(5) 0.5675(3) 0.9305(3)
S1 S 0.5000 -0.0025(16) 0.7500
O5 O 0.534(8) 0.082(3) 0.767(4)
O8 O 0.611(3) -0.0072(17) 0.850(2)
O9 O 0.3346(17) 0.0103(12) 0.7640(12)
Cu1 Cu 0.5000 0.23310(4) 0.7500
C2C C 0.0009(4) 0.4727(3) 0.6579(3)
C9C C -0.1219(4) 0.5837(3) 0.7404(3)
Cu1A Cu 0.5000 0.76690(4) 1.2500
O5C O 0.466(8) 0.082(3) 0.733(4)
O8C O 0.389(3) -0.0072(17) 0.650(2)
O9C O 0.6654(17) 0.0103(12) 0.7360(12)
N1C N 0.6046(3) 0.2374(2) 0.6402(2)
N2A N 0.3357(3) 0.2402(2) 0.6464(2)
N2B N 0.6643(3) 0.2402(2) 0.8536(2)
O6? O 0.557(4) -0.0464(18) 0.670(2)
O7? O 0.549(5) -0.074(2) 0.763(4)
S2? S 0.4644(12) 0.0046(8) 0.7362(6)
O10? O 0.5000 0.092(2) 0.7500
O11? O 0.533(6) -0.062(2) 0.787(3)
O12? O 0.542(2) -0.0016(15) 0.8789(16)
O13? O 0.396(3) -0.046(3) 0.772(4)
O19? O 1.157(4) 0.0328(18) 0.881(3)
O21? O 0.824(2) 0.0456(12) 1.381(2)
O22? O 0.9124(17) 0.0155(13) 1.5645(15)
loop_
_geom_bond_atom_site_label_1
_geom_bond_atom_site_label_2
_geom_bond_site_symmetry_1
_geom_bond_site_symmetry_2
C1 C2 1_555 1_555
C2 H1 1_555 1_555
H2 C2 1_555 1_555
C3 C4 1_555 1_555
C4 C5 1_555 1_555
C5 H3 1_555 1_555
C6 H4 1_555 1_555
C7 C6 1_555 1_555
H5 C7 1_555 1_555
C8 C4 1_555 1_555
H6 C8 1_555 1_555
C9 C1 1_555 1_555
H7 C9 1_555 1_555
H8 C9 1_555 1_555
C10 C11 1_555 1_555
C11 C12 1_555 1_555
C12 H9 1_555 1_555
C13 H10 1_555 1_555
C14 C13 1_555 1_555
H11 C14 1_555 1_555
C15 C11 1_555 1_555
H12 C15 1_555 1_555
N1 C5 1_555 1_555
N2 C12 1_555 1_555
O1 C2 1_555 1_555
O2 C3 1_555 1_555
O3 C9 1_555 1_555
O4 C10 1_555 1_555
S1 O5 1_555 1_555
O5 Cu1 1_555 1_555
O8 S1 1_555 1_555
O9 S1 1_555 1_555
Cu1 N1 1_555 1_555
O14 H13 1_555 1_555
O15 H14 1_555 1_555
H15 O15 1_555 1_555
O16 H16 1_555 1_555
H17 O16 1_555 1_555
O17 H18 1_555 1_555
O23 H19 1_555 1_555
C16 O23 1_555 1_555
H20 C16 1_555 1_555
H21 C16 1_555 1_555
H22 C16 1_555 1_555
C2C C1 1_555 1_555
C9C C1 1_555 1_555
Cu1A N2 1_555 1_555
O5C S1 1_555 1_555
O8C S1 1_555 1_555
O9C S1 1_555 1_555
N1C Cu1 1_555 1_555
N2A Cu1 1_555 1_555
N2B Cu1 1_555 1_555
H13C O14 1_555 1_555
H18C O17 1_555 1_555
C3 O1 1_555 1_555
C6 N1 1_555 1_555
C7 C8 1_555 1_555
C10 O3 1_555 1_555
C13 N2 1_555 1_555
C14 C15 1_555 1_555
O5 O5C 1_555 1_555
Cu1 O5C 1_555 1_555

#END
