
#######################################################################
#
#                 Cambridge Crystallographic Data Centre
#                                CCDC 
#
#######################################################################
#
# If this CIF has been generated from an entry in the Cambridge 
# Structural Database, then it will include bibliographic, chemical, 
# crystal, experimental, refinement or atomic coordinate data resulting 
# from the CCDC's data processing and validation procedures.
#
#######################################################################

data_AMEXAR
_symmetry_cell_setting           triclinic
_symmetry_space_group_name_H-M   'P -1'
_symmetry_Int_Tables_number      2
_space_group_name_Hall           '-P 1'
loop_
_symmetry_equiv_pos_site_id
_symmetry_equiv_pos_as_xyz
1 x,y,z
2 -x,-y,-z
_cell_length_a                   9.1111(2)
_cell_length_b                   11.1364(2)
_cell_length_c                   15.4384(4)
_cell_angle_alpha                91.057(1)
_cell_angle_beta                 90.350(1)
_cell_angle_gamma                90.218(2)
_cell_volume                     1566.15
loop_
_atom_site_label
_atom_site_type_symbol
_atom_site_fract_x
_atom_site_fract_y
_atom_site_fract_z
C1 C 0.6503(3) -0.2365(3) 0.50350(19)
C2 C 0.7334(3) -0.3430(3) 0.4630(2)
H1 H 0.6570 -0.4134 0.4446
H2 H 0.7903 -0.3148 0.4057
C3 C 0.8146(3) -0.4962(3) 0.5587(2)
C4 C 0.9174(3) -0.5180(3) 0.6329(2)
C5 C 0.8819(4) -0.6095(3) 0.6892(2)
H3 H 0.7892 -0.6679 0.6762
C6 C 0.9676(4) -0.6239(3) 0.7622(2)
H4 H 0.9377 -0.6932 0.8069
C7 C 1.1232(3) -0.4710(3) 0.7235(2)
H5 H 1.2210 -0.4182 0.7360
C8 C 1.0416(3) -0.4480(3) 0.6498(2)
H6 H 1.0734 -0.3775 0.6066
C9 C 0.5396(3) -0.2736(3) 0.5728(2)
H7 H 0.4615 -0.2020 0.5829
H8 H 0.4799 -0.3521 0.5502
C10 C 0.5196(3) -0.2967(3) 0.7224(2)
C11 C 0.5913(3) -0.3266(3) 0.8065(2)
C12 C 0.7358(3) -0.3643(3) 0.8141(2)
H9 H 0.8063 -0.3684 0.7581
C13 C 0.7874(3) -0.3966(3) 0.8944(2)
H10 H 0.8990 -0.4282 0.8995
C14 C 0.5676(3) -0.3516(3) 0.9590(2)
H11 H 0.5016 -0.3440 1.0167
C15 C 0.5059(3) -0.3206(3) 0.8808(2)
H12 H 0.3928 -0.2922 0.8773
C16 C 0.7564(3) -0.1438(3) 0.54365(19)
H13 H 0.6958 -0.0666 0.5668
H14 H 0.8128 -0.1824 0.5982
C17 C 0.8377(3) -0.0028(3) 0.4396(2)
C18 C 0.9341(3) 0.0108(3) 0.3626(2)
C19 C 0.9037(3) 0.1046(3) 0.3066(2)
H15 H 0.8204 0.1701 0.3223
C20 C 0.9822(4) 0.1120(3) 0.2306(2)
H16 H 0.9575 0.1839 0.1869
C21 C 1.1208(3) -0.0544(3) 0.2647(2)
H17 H 1.2092 -0.1152 0.2492
C22 C 1.0457(3) -0.0695(3) 0.3410(2)
H18 H 1.0729 -0.1423 0.3834
C23 C 0.5481(3) -0.1817(3) 0.43537(19)
H19 H 0.4599 -0.2438 0.4203
H20 H 0.5005 -0.1001 0.4614
C24 C 0.5577(3) -0.0787(3) 0.3039(2)
C25 C 0.6278(3) -0.0713(3) 0.2168(2)
C26 C 0.5748(3) 0.0143(3) 0.1605(2)
H21 H 0.4880 0.0744 0.1803
C27 C 0.6343(4) 0.0215(3) 0.0789(2)
H22 H 0.5938 0.0892 0.0357
C28 C 0.7922(4) -0.1347(3) 0.1061(2)
H23 H 0.8789 -0.1937 0.0846
C29 C 0.7385(3) -0.1469(3) 0.1892(2)
H24 H 0.7825 -0.2142 0.2315
Ag1 Ag 1.17627(3) 0.03179(3) 0.078857(17)
Ag2 Ag 1.20143(3) -0.55535(2) 0.908080(17)
N1 N 1.0863(3) -0.5562(2) 0.78040(17)
N2 N 0.7065(3) -0.3908(2) 0.96653(17)
N3 N 1.0884(3) 0.0332(2) 0.20860(18)
N4 N 0.7409(3) -0.0526(2) 0.05111(18)
N5 N 0.9031(3) 0.2856(3) 0.03320(19)
N6 N 1.5038(3) -0.6236(3) 0.7648(2)
O1 O 0.8380(2) -0.38743(19) 0.52601(14)
O2 O 0.7234(3) -0.5663(2) 0.53346(18)
O3 O 0.6118(2) -0.29972(19) 0.65461(13)
O4 O 0.3912(2) -0.2713(2) 0.71672(15)
O5 O 0.8631(2) -0.10661(18) 0.47921(14)
O6 O 0.7473(2) 0.0697(2) 0.46137(15)
O7 O 0.6278(2) -0.15496(18) 0.35645(13)
O8 O 0.4503(2) -0.0215(2) 0.32395(15)
O9 O 0.9079(3) 0.3511(2) -0.03154(18)
O10 O 0.8589(3) 0.3275(2) 0.10384(17)
O11 O 0.9444(3) 0.1790(2) 0.02777(17)
O12 O 1.4626(3) -0.6003(3) 0.84029(18)
O13 O 1.5839(3) -0.7157(2) 0.75237(17)
O14 O 1.4703(3) -0.5589(3) 0.70375(19)
O15 O 1.3218(3) -0.1795(3) 0.09783(19)
H25 H 1.375(4) -0.223(3) 0.144(2)
H26 H 1.240(3) -0.233(3) 0.077(3)
N4A N 1.2591(3) 0.0526(2) -0.05111(18)
O11A O 1.0556(3) -0.1790(2) -0.02777(17)
N2A N 1.2935(3) -0.6092(2) 1.03347(17)
O9_2 O 0.9079(3) -0.6489(2) 0.96846(18)
O10A O 1.1411(3) -0.3275(2) 0.89616(17)
Ag2A Ag 0.79857(3) -0.44465(2) 1.091920(17)
Ag1A Ag 0.82373(3) -0.03179(3) -0.078857(17)
Ag2_2 Ag 1.20143(3) 0.44465(2) -0.091920(17)
Ag2A_2 Ag 0.79857(3) 0.55535(2) 0.091920(17)
loop_
_geom_bond_atom_site_label_1
_geom_bond_atom_site_label_2
_geom_bond_site_symmetry_1
_geom_bond_site_symmetry_2
C1 C2 1_555 1_555
C2 H1 1_555 1_555
H2 C2 1_555 1_555
C3 C4 1_555 1_555
C4 C5 1_555 1_555
C5 H3 1_555 1_555
C6 C5 1_555 1_555
H4 C6 1_555 1_555
C7 H5 1_555 1_555
C8 C4 1_555 1_555
H6 C8 1_555 1_555
C9 C1 1_555 1_555
H7 C9 1_555 1_555
H8 C9 1_555 1_555
C10 C11 1_555 1_555
C11 C12 1_555 1_555
C12 H9 1_555 1_555
C13 C12 1_555 1_555
H10 C13 1_555 1_555
C14 H11 1_555 1_555
C15 C11 1_555 1_555
H12 C15 1_555 1_555
C16 C1 1_555 1_555
H13 C16 1_555 1_555
H14 C16 1_555 1_555
C17 C18 1_555 1_555
C18 C19 1_555 1_555
C19 H15 1_555 1_555
C20 C19 1_555 1_555
H16 C20 1_555 1_555
C21 H17 1_555 1_555
C22 C18 1_555 1_555
H18 C22 1_555 1_555
C23 C1 1_555 1_555
H19 C23 1_555 1_555
H20 C23 1_555 1_555
C24 C25 1_555 1_555
C25 C26 1_555 1_555
C26 H21 1_555 1_555
C27 C26 1_555 1_555
H22 C27 1_555 1_555
C28 H23 1_555 1_555
C29 C25 1_555 1_555
H24 C29 1_555 1_555
Ag1 N3 1_555 1_555
Ag2 N1 1_555 1_555
N1 C6 1_555 1_555
N2 C13 1_555 1_555
N3 C20 1_555 1_555
N4 C27 1_555 1_555
N5 O9 1_555 1_555
N6 O12 1_555 1_555
O1 C2 1_555 1_555
O2 C3 1_555 1_555
O3 C9 1_555 1_555
O4 C10 1_555 1_555
O5 C16 1_555 1_555
O6 C17 1_555 1_555
O7 C23 1_555 1_555
O8 C24 1_555 1_555
O9 Ag2_2 1_555 1_555
O10 N5 1_555 1_555
O11 Ag1 1_555 1_555
O12 Ag2 1_555 1_555
O13 N6 1_555 1_555
O14 N6 1_555 1_555
O15 Ag1 1_555 1_555
H25 O15 1_555 1_555
H26 O15 1_555 1_555
N4A Ag1 1_555 1_555
O11A Ag1 1_555 1_555
N2A Ag2 1_555 1_555
O9_2 Ag2 1_555 1_555
O10A Ag2 1_555 1_555
Ag2A N2 1_555 1_555
Ag1A N4 1_555 1_555
Ag2A_2 O10 1_555 1_555
C3 O1 1_555 1_555
C7 N1 1_555 1_555
C7 C8 1_555 1_555
C10 O3 1_555 1_555
C14 N2 1_555 1_555
C14 C15 1_555 1_555
C17 O5 1_555 1_555
C21 N3 1_555 1_555
C21 C22 1_555 1_555
C24 O7 1_555 1_555
C28 N4 1_555 1_555
C28 C29 1_555 1_555
N5 O11 1_555 1_555
O11 Ag1A 1_555 1_555
O11A Ag1A 1_555 1_555

#END
