
#######################################################################
#
#                 Cambridge Crystallographic Data Centre
#                                CCDC 
#
#######################################################################
#
# If this CIF has been generated from an entry in the Cambridge 
# Structural Database, then it will include bibliographic, chemical, 
# crystal, experimental, refinement or atomic coordinate data resulting 
# from the CCDC's data processing and validation procedures.
#
#######################################################################

data_AMEYOG
_symmetry_cell_setting           triclinic
_symmetry_space_group_name_H-M   'P -1'
_symmetry_Int_Tables_number      2
_space_group_name_Hall           '-P 1'
loop_
_symmetry_equiv_pos_site_id
_symmetry_equiv_pos_as_xyz
1 x,y,z
2 -x,-y,-z
_cell_length_a                   10.0147(8)
_cell_length_b                   12.6221(10)
_cell_length_c                   14.1054(11)
_cell_angle_alpha                108.9110(10)
_cell_angle_beta                 92.025(2)
_cell_angle_gamma                112.2560(10)
_cell_volume                     1535.45
loop_
_atom_site_label
_atom_site_type_symbol
_atom_site_fract_x
_atom_site_fract_y
_atom_site_fract_z
Ag1 Ag 0.11464(2) -0.01430(2) 0.294710(16)
C1 C -0.0116(2) 0.3293(2) 0.13871(18)
C2 C 0.0831(3) 0.4509(2) 0.19615(18)
H1 H 0.1680 0.4752 0.2442
C3 C 0.0350(2) 0.5324(2) 0.17281(18)
C4 C -0.1020(2) 0.4546(2) 0.09822(18)
C5 C -0.1224(3) 0.3319(2) 0.07900(18)
H2 H -0.2009 0.2612 0.0319
C6 C 0.1110(3) 0.6611(2) 0.21078(19)
C7 C 0.2499(3) 0.7255(2) 0.28756(19)
C8 C 0.2626(3) 0.7033(2) 0.37715(19)
H3 H 0.1826 0.6417 0.3896
C9 C 0.3909(3) 0.7706(2) 0.4480(2)
H4 H 0.3993 0.7566 0.5098
C10 C 0.5078(3) 0.8590(2) 0.42790(19)
C11 C 0.4967(3) 0.8821(2) 0.3390(2)
H5 H 0.5771 0.9430 0.3263
C12 C 0.3673(3) 0.8156(2) 0.26928(19)
H6 H 0.3582 0.8312 0.2084
C13 C 0.6416(3) 0.9298(2) 0.5025(2)
C14 C -0.1949(2) 0.4930(2) 0.05443(18)
C15 C -0.3426(2) 0.4067(2) -0.00765(18)
C16 C -0.3985(3) 0.4347(2) -0.08408(19)
H7 H -0.3401 0.5060 -0.0971
C17 C -0.5369(3) 0.3602(2) -0.14060(19)
H8 H -0.5745 0.3802 -0.1920
C18 C -0.6214(2) 0.2553(2) -0.12169(19)
C19 C -0.5694(3) 0.2268(2) -0.0446(2)
H9 H -0.6282 0.1556 -0.0316
C20 C -0.4306(3) 0.3039(2) 0.01275(19)
H10 H -0.3952 0.2864 0.0666
C21 C -0.7663(3) 0.1761(2) -0.18027(19)
C22 C 0.0124(3) 0.2173(2) 0.13824(19)
C23 C 0.0311(3) 0.2191(2) 0.24735(19)
C24 C -0.0857(3) 0.2041(2) 0.2995(2)
H11 H -0.1761 0.1966 0.2681
C25 C -0.0734(3) 0.2000(3) 0.3960(2)
H12 H -0.1561 0.1880 0.4289
C26 C 0.0570(3) 0.2131(2) 0.4458(2)
C27 C 0.1744(3) 0.2308(2) 0.3955(2)
H13 H 0.2657 0.2418 0.4284
C28 C 0.1626(3) 0.2329(2) 0.2975(2)
H14 H 0.2451 0.2439 0.2644
C29 C 0.0712(4) 0.2069(3) 0.5510(2)
H15 H 0.0450 0.1215 0.5447
H16 H 0.1725 0.2577 0.5872
H17 H 0.0051 0.2374 0.5892
C30 C -0.1177(3) 0.0982(2) 0.0723(2)
H18 H -0.2080 0.0974 0.0973
H19 H -0.1265 0.0935 0.0015
H20 H -0.1018 0.0275 0.0758
C31 C 0.1495(3) 0.2206(2) 0.0912(2)
H21 H 0.1345 0.2199 0.0220
H22 H 0.2347 0.2955 0.1329
H23 H 0.1668 0.1485 0.0889
N1 N 0.7458(2) 0.9843(2) 0.56315(17)
N2 N -0.8815(2) 0.11286(19) -0.22595(17)
O1 O 0.07308(18) 0.73187(15) 0.18051(14)
O2 O -0.16186(18) 0.60570(15) 0.06530(14)
H24 H -0.052(4) 0.668(3) 0.115(3)
Cl1 Cl 0.44140(7) 0.09025(6) 0.20659(5)
O3 O 0.2901(2) 0.00174(18) 0.18109(15)
O4 O 0.4821(3) 0.1482(2) 0.31482(17)
O5 O 0.5313(3) 0.0277(2) 0.1696(2)
O6 O 0.4554(3) 0.1799(2) 0.1637(2)
N1A N 0.2542(2) 0.0157(2) 0.43685(17)
N2A N -0.1185(2) -0.11286(19) 0.22595(17)
Ag1A Ag 0.88536(2) 1.01430(2) 0.705290(16)
Ag1A_2 Ag -1.11464(2) 0.01430(2) -0.294710(16)
C32 C 1.3832(8) 0.5453(6) 0.6112(6)
H25 H 1.3355 0.5080 0.5386
H26 H 1.4493 0.6324 0.6259
Cl2 Cl 1.2487(3) 0.5373(2) 0.6892(2)
Cl3 Cl 1.4854(2) 0.46647(18) 0.63414(14)
C33? C 1.2887(17) 0.5805(15) 0.6658(17)
H27? H 1.2326 0.5755 0.7217
H28? H 1.3462 0.6688 0.6792
Cl4? Cl 1.1743(6) 0.5252(3) 0.5635(3)
Cl5? Cl 1.4109(7) 0.5167(5) 0.6737(6)
loop_
_geom_bond_atom_site_label_1
_geom_bond_atom_site_label_2
_geom_bond_site_symmetry_1
_geom_bond_site_symmetry_2
Ag1 C27 1_555 1_555
C1 C2 1_555 1_555
C2 H1 1_555 1_555
C3 C2 1_555 1_555
C4 C3 1_555 1_555
C5 C1 1_555 1_555
H2 C5 1_555 1_555
C6 C3 1_555 1_555
C7 C6 1_555 1_555
C8 C7 1_555 1_555
H3 C8 1_555 1_555
C9 C8 1_555 1_555
H4 C9 1_555 1_555
C10 C9 1_555 1_555
C11 C10 1_555 1_555
H5 C11 1_555 1_555
C12 C7 1_555 1_555
H6 C12 1_555 1_555
C13 C10 1_555 1_555
C14 C4 1_555 1_555
C15 C14 1_555 1_555
C16 C15 1_555 1_555
H7 C16 1_555 1_555
C17 C16 1_555 1_555
H8 C17 1_555 1_555
C18 C17 1_555 1_555
C19 C18 1_555 1_555
H9 C19 1_555 1_555
C20 C15 1_555 1_555
H10 C20 1_555 1_555
C21 C18 1_555 1_555
C22 C1 1_555 1_555
C23 C22 1_555 1_555
C24 C23 1_555 1_555
H11 C24 1_555 1_555
C25 C24 1_555 1_555
H12 C25 1_555 1_555
C26 C25 1_555 1_555
C27 C26 1_555 1_555
H13 C27 1_555 1_555
C28 C23 1_555 1_555
H14 C28 1_555 1_555
C29 C26 1_555 1_555
H15 C29 1_555 1_555
H16 C29 1_555 1_555
H17 C29 1_555 1_555
C30 C22 1_555 1_555
H18 C30 1_555 1_555
H19 C30 1_555 1_555
H20 C30 1_555 1_555
C31 C22 1_555 1_555
H21 C31 1_555 1_555
H22 C31 1_555 1_555
H23 C31 1_555 1_555
N1 C13 1_555 1_555
N2 C21 1_555 1_555
O1 C6 1_555 1_555
O2 C14 1_555 1_555
H24 O2 1_555 1_555
Cl1 O3 1_555 1_555
O3 Ag1 1_555 1_555
O4 Cl1 1_555 1_555
O5 Cl1 1_555 1_555
O6 Cl1 1_555 1_555
C32 H25 1_555 1_555
H26 C32 1_555 1_555
Cl2 C32 1_555 1_555
Cl3 C32 1_555 1_555
N1A Ag1 1_555 1_555
N2A Ag1 1_555 1_555
Ag1A N1 1_555 1_555
Ag1A_2 N2 1_555 1_555
C4 C5 1_555 1_555
C11 C12 1_555 1_555
C19 C20 1_555 1_555
C27 C28 1_555 1_555

#END
