
#######################################################################
#
#                 Cambridge Crystallographic Data Centre
#                                CCDC 
#
#######################################################################
#
# If this CIF has been generated from an entry in the Cambridge 
# Structural Database, then it will include bibliographic, chemical, 
# crystal, experimental, refinement or atomic coordinate data resulting 
# from the CCDC's data processing and validation procedures.
#
#######################################################################

data_AMIKEN
_symmetry_cell_setting           triclinic
_symmetry_space_group_name_H-M   'P -1'
_symmetry_Int_Tables_number      2
_space_group_name_Hall           '-P 1'
loop_
_symmetry_equiv_pos_site_id
_symmetry_equiv_pos_as_xyz
1 x,y,z
2 -x,-y,-z
_cell_length_a                   9.911(2)
_cell_length_b                   11.151(2)
_cell_length_c                   11.534(2)
_cell_angle_alpha                88.23(3)
_cell_angle_beta                 71.51(3)
_cell_angle_gamma                82.74(3)
_cell_volume                     1199.16
loop_
_atom_site_label
_atom_site_type_symbol
_atom_site_fract_x
_atom_site_fract_y
_atom_site_fract_z
Cd1 Cd 0.078039(16) 0.110642(15) 0.580445(15)
Cl1 Cl 0.19615(10) 0.50771(9) 1.17315(8)
Cl2 Cl 0.45104(8) 0.11309(8) -0.21967(6)
N1 N -0.09604(19) 0.26053(17) 0.55605(18)
N2 N -0.77094(19) 0.94524(17) 0.61158(17)
O1 O 0.02186(18) 0.16301(16) 0.79110(16)
O2 O 0.17860(18) 0.26283(16) 0.65673(15)
O3 O 0.10366(17) 0.01744(16) 0.37167(15)
O4 O 0.23591(17) 0.15472(16) 0.39040(15)
C1 C -0.2289(2) 0.2748(2) 0.6359(2)
H1 H -0.2574 0.2131 0.6925
C2 C -0.3256(2) 0.3756(2) 0.6388(2)
H2 H -0.4177 0.3817 0.6966
C3 C -0.2872(2) 0.4684(2) 0.5564(2)
C4 C -0.1505(3) 0.4516(2) 0.4712(2)
H3 H -0.1204 0.5105 0.4116
C5 C -0.0598(3) 0.3483(2) 0.4747(2)
H4 H 0.0324 0.3390 0.4168
C6 C -0.3779(3) 0.5830(2) 0.5563(2)
H5 H -0.3428 0.6353 0.4911
C7 C -0.5030(2) 0.6214(2) 0.6370(2)
H6 H -0.5386 0.5716 0.7042
C8 C -0.5903(2) 0.7355(2) 0.6296(2)
C9 C -0.7251(3) 0.7653(2) 0.7162(3)
H7 H -0.7577 0.7142 0.7829
C10 C -0.8101(3) 0.8693(2) 0.7039(2)
H8 H -0.9000 0.8875 0.7636
C11 C -0.6413(2) 0.9190(2) 0.5297(2)
H9 H -0.6114 0.9726 0.4647
C12 C -0.5488(2) 0.8172(2) 0.5357(2)
H10 H -0.4580 0.8034 0.4764
C13 C 0.1076(2) 0.2413(2) 0.7649(2)
C14 C 0.1259(2) 0.3112(2) 0.8667(2)
C15 C 0.0501(3) 0.2899(2) 0.9878(2)
H11 H -0.0159 0.2330 1.0057
C16 C 0.0698(3) 0.3507(3) 1.0818(2)
H12 H 0.0175 0.3362 1.1634
C17 C 0.1679(3) 0.4336(3) 1.0545(2)
C18 C 0.2446(3) 0.4568(3) 0.9355(3)
H13 H 0.3105 0.5137 0.9181
C19 C 0.2230(3) 0.3951(2) 0.8420(2)
H14 H 0.2750 0.4103 0.7605
C20 C 0.1966(2) 0.0878(2) 0.3254(2)
C21 C 0.2603(2) 0.0922(2) 0.1889(2)
C22 C 0.3623(2) 0.1704(2) 0.1371(2)
H15 H 0.3908 0.2194 0.1878
C23 C 0.4216(3) 0.1760(3) 0.0117(3)
H16 H 0.4911 0.2280 -0.0233
C24 C 0.3783(3) 0.1050(3) -0.0612(2)
C25 C 0.2782(3) 0.0269(3) -0.0127(2)
H17 H 0.2500 -0.0213 -0.0642
C26 C 0.2195(3) 0.0204(2) 0.1135(2)
H18 H 0.1516 -0.0331 0.1478
N2_2 N 0.22906(19) -0.05476(17) 0.61158(17)
Cl2A Cl -0.45104(8) -0.11309(8) 1.21967(6)
O3A O -0.10366(17) -0.01744(16) 0.62833(15)
O4A O -0.23591(17) -0.15472(16) 0.60960(15)
C20A C -0.1966(2) -0.0878(2) 0.6746(2)
C21A C -0.2603(2) -0.0922(2) 0.8111(2)
C22A C -0.3623(2) -0.1704(2) 0.8629(2)
H15A H -0.3908 -0.2194 0.8122
C23A C -0.4216(3) -0.1760(3) 0.9883(3)
H16A H -0.4911 -0.2280 1.0233
C24A C -0.3783(3) -0.1050(3) 1.0612(2)
C25A C -0.2782(3) -0.0269(3) 1.0127(2)
H17A H -0.2500 0.0213 1.0642
C26A C -0.2195(3) -0.0204(2) 0.8865(2)
H18A H -0.1516 0.0331 0.8522
Cd1A Cd -0.078039(16) -0.110642(15) 0.419555(15)
Cd1_2 Cd -0.921961(16) 1.110642(15) 0.580445(15)
N1A N 0.09604(19) -0.26053(17) 0.44395(18)
N2A N 0.77094(19) -0.94524(17) 0.38842(17)
C1A C 0.2289(2) -0.2748(2) 0.3641(2)
H1A H 0.2574 -0.2131 0.3075
C2A C 0.3256(2) -0.3756(2) 0.3612(2)
H2A H 0.4177 -0.3817 0.3034
C3A C 0.2872(2) -0.4684(2) 0.4436(2)
C4A C 0.1505(3) -0.4516(2) 0.5288(2)
H3A H 0.1204 -0.5105 0.5884
C5A C 0.0598(3) -0.3483(2) 0.5253(2)
H4A H -0.0324 -0.3390 0.5832
C6A C 0.3779(3) -0.5830(2) 0.4437(2)
H5A H 0.3428 -0.6353 0.5089
C7A C 0.5030(2) -0.6214(2) 0.3630(2)
H6A H 0.5386 -0.5716 0.2958
C8A C 0.5903(2) -0.7355(2) 0.3704(2)
C9A C 0.7251(3) -0.7653(2) 0.2838(3)
H7A H 0.7577 -0.7142 0.2171
C10A C 0.8101(3) -0.8693(2) 0.2961(2)
H8A H 0.9000 -0.8875 0.2364
C11A C 0.6413(2) -0.9190(2) 0.4703(2)
H9A H 0.6114 -0.9726 0.5353
C12A C 0.5488(2) -0.8172(2) 0.4643(2)
H10A H 0.4580 -0.8034 0.5236
Cl1A Cl -0.19615(10) -0.50771(9) -0.17315(8)
O1A O -0.02186(18) -0.16301(16) 0.20890(16)
O2A O -0.17860(18) -0.26283(16) 0.34327(15)
C13A C -0.1076(2) -0.2413(2) 0.2351(2)
C14A C -0.1259(2) -0.3112(2) 0.1333(2)
C15A C -0.0501(3) -0.2899(2) 0.0122(2)
H11A H 0.0159 -0.2330 -0.0057
C16A C -0.0698(3) -0.3507(3) -0.0818(2)
H12A H -0.0175 -0.3362 -0.1634
C17A C -0.1679(3) -0.4336(3) -0.0545(2)
C18A C -0.2446(3) -0.4568(3) 0.0645(3)
H13A H -0.3105 -0.5137 0.0819
C19A C -0.2230(3) -0.3951(2) 0.1580(2)
H14A H -0.2750 -0.4103 0.2395
N2A_2 N -0.22906(19) 0.05476(17) 0.38842(17)
Cd1A_2 Cd 0.921961(16) -1.110642(15) 0.419555(15)
loop_
_geom_bond_atom_site_label_1
_geom_bond_atom_site_label_2
_geom_bond_site_symmetry_1
_geom_bond_site_symmetry_2
Cd1 N1 1_555 1_555
Cl1 C17 1_555 1_555
Cl2 C24 1_555 1_555
N1 C1 1_555 1_555
N2 C10 1_555 1_555
O1 Cd1 1_555 1_555
O2 Cd1 1_555 1_555
O3 Cd1 1_555 1_555
O4 Cd1 1_555 1_555
C1 H1 1_555 1_555
C2 C1 1_555 1_555
H2 C2 1_555 1_555
C3 C2 1_555 1_555
C4 C3 1_555 1_555
H3 C4 1_555 1_555
C5 N1 1_555 1_555
H4 C5 1_555 1_555
C6 C3 1_555 1_555
H5 C6 1_555 1_555
C7 C6 1_555 1_555
H6 C7 1_555 1_555
C8 C7 1_555 1_555
C9 C8 1_555 1_555
H7 C9 1_555 1_555
C10 C9 1_555 1_555
H8 C10 1_555 1_555
C11 N2 1_555 1_555
H9 C11 1_555 1_555
C12 C8 1_555 1_555
H10 C12 1_555 1_555
C13 O1 1_555 1_555
C14 C13 1_555 1_555
C15 C14 1_555 1_555
H11 C15 1_555 1_555
C16 C15 1_555 1_555
H12 C16 1_555 1_555
C17 C16 1_555 1_555
C18 C17 1_555 1_555
H13 C18 1_555 1_555
C19 C14 1_555 1_555
H14 C19 1_555 1_555
C20 O3 1_555 1_555
C21 C20 1_555 1_555
C22 C21 1_555 1_555
H15 C22 1_555 1_555
C23 C22 1_555 1_555
H16 C23 1_555 1_555
C24 C23 1_555 1_555
C25 C24 1_555 1_555
H17 C25 1_555 1_555
C26 C21 1_555 1_555
H18 C26 1_555 1_555
N2_2 Cd1 1_555 1_555
Cl2A C24A 1_555 1_555
O3A Cd1 1_555 1_555
O4A C20A 1_555 1_555
C20A O3A 1_555 1_555
C21A C20A 1_555 1_555
C22A C21A 1_555 1_555
H15A C22A 1_555 1_555
C23A C22A 1_555 1_555
H16A C23A 1_555 1_555
C24A C23A 1_555 1_555
C25A C24A 1_555 1_555
H17A C25A 1_555 1_555
C26A C21A 1_555 1_555
H18A C26A 1_555 1_555
Cd1A O3 1_555 1_555
Cd1_2 N2 1_555 1_555
N1A Cd1A 1_555 1_555
N2A C10A 1_555 1_555
C1A N1A 1_555 1_555
H1A C1A 1_555 1_555
C2A C1A 1_555 1_555
H2A C2A 1_555 1_555
C3A C2A 1_555 1_555
C4A C3A 1_555 1_555
H3A C4A 1_555 1_555
C5A N1A 1_555 1_555
H4A C5A 1_555 1_555
C6A C3A 1_555 1_555
H5A C6A 1_555 1_555
C7A C6A 1_555 1_555
H6A C7A 1_555 1_555
C8A C7A 1_555 1_555
C9A C8A 1_555 1_555
H7A C9A 1_555 1_555
C10A C9A 1_555 1_555
H8A C10A 1_555 1_555
C11A N2A 1_555 1_555
H9A C11A 1_555 1_555
C12A C8A 1_555 1_555
H10A C12A 1_555 1_555
Cl1A C17A 1_555 1_555
O1A Cd1A 1_555 1_555
O2A Cd1A 1_555 1_555
C13A O1A 1_555 1_555
C14A C13A 1_555 1_555
C15A C14A 1_555 1_555
H11A C15A 1_555 1_555
C16A C15A 1_555 1_555
H12A C16A 1_555 1_555
C17A C16A 1_555 1_555
C18A C17A 1_555 1_555
H13A C18A 1_555 1_555
C19A C14A 1_555 1_555
H14A C19A 1_555 1_555
N2A_2 Cd1A 1_555 1_555
Cd1A_2 N2A 1_555 1_555
O2 C13 1_555 1_555
O4 C20 1_555 1_555
C4 C5 1_555 1_555
C11 C12 1_555 1_555
C18 C19 1_555 1_555
C25 C26 1_555 1_555
O3A Cd1A 1_555 1_555
O4A Cd1A 1_555 1_555
C25A C26A 1_555 1_555
C4A C5A 1_555 1_555
C11A C12A 1_555 1_555
O2A C13A 1_555 1_555
C18A C19A 1_555 1_555

#END
