
#######################################################################
#
#                 Cambridge Crystallographic Data Centre
#                                CCDC 
#
#######################################################################
#
# If this CIF has been generated from an entry in the Cambridge 
# Structural Database, then it will include bibliographic, chemical, 
# crystal, experimental, refinement or atomic coordinate data resulting 
# from the CCDC's data processing and validation procedures.
#
#######################################################################

data_AMIKIR
_symmetry_cell_setting           triclinic
_symmetry_space_group_name_H-M   'P -1'
_symmetry_Int_Tables_number      2
_space_group_name_Hall           '-P 1'
loop_
_symmetry_equiv_pos_site_id
_symmetry_equiv_pos_as_xyz
1 x,y,z
2 -x,-y,-z
_cell_length_a                   10.196(2)
_cell_length_b                   10.634(2)
_cell_length_c                   11.847(2)
_cell_angle_alpha                88.76(3)
_cell_angle_beta                 70.26(3)
_cell_angle_gamma                83.15(3)
_cell_volume                     1200.15
loop_
_atom_site_label
_atom_site_type_symbol
_atom_site_fract_x
_atom_site_fract_y
_atom_site_fract_z
Cd1 Cd 0.09434(2) 0.60834(2) 0.08304(2)
Cl1 Cl 0.45692(11) 0.61722(11) -0.70640(9)
Cl2 Cl 0.18833(13) 1.01083(10) 0.67941(9)
N1 N -0.0719(3) 0.7694(2) 0.0649(2)
N2 N -0.7506(3) 1.4374(2) 0.1046(2)
O1 O 0.2406(2) 0.6423(2) -0.1073(2)
O2 O 0.0867(2) 0.5239(2) -0.1282(2)
O3 O 0.0368(2) 0.6557(2) 0.2903(2)
O4 O 0.1925(2) 0.76406(19) 0.16419(19)
C1 C -0.2049(3) 0.7779(3) 0.1385(3)
H1 H -0.2276 0.7235 0.2041
C2 C -0.3103(3) 0.8624(3) 0.1231(3)
H2 H -0.4022 0.8656 0.1780
C3 C -0.2806(3) 0.9433(3) 0.0260(3)
C4 C -0.1403(3) 0.9382(3) -0.0472(3)
H3 H -0.1137 0.9940 -0.1114
C5 C -0.0410(3) 0.8510(3) -0.0250(3)
H4 H 0.0529 0.8489 -0.0755
C6 C -0.3909(3) 1.0205(3) -0.0133(3)
H5 H -0.3526 1.0931 -0.0618
C7 C -0.5365(3) 1.0623(3) 0.0825(3)
H6 H -0.5420 1.0253 0.1612
C8 C -0.5936(3) 1.2003(3) 0.0971(3)
C9 C -0.7173(3) 1.2373(3) 0.1914(3)
H7 H -0.7500 1.1818 0.2549
C10 C -0.7922(3) 1.3543(3) 0.1923(3)
H8 H -0.8754 1.3766 0.2570
C11 C -0.6263(3) 1.4068(3) 0.0196(3)
H9 H -0.5926 1.4665 -0.0397
C12 C -0.5439(3) 1.2920(3) 0.0137(3)
H10 H -0.4553 1.2765 -0.0462
C13 C 0.1901(3) 0.5853(3) -0.1717(3)
C14 C 0.2557(3) 0.5925(3) -0.3058(3)
C15 C 0.3613(3) 0.6699(3) -0.3544(3)
H11 H 0.3915 0.7168 -0.3033
C16 C 0.4218(4) 0.6780(4) -0.4772(3)
H12 H 0.4920 0.7313 -0.5101
C17 C 0.3789(4) 0.6080(4) -0.5506(3)
C18 C 0.2758(4) 0.5299(3) -0.5051(3)
H13 H 0.2476 0.4819 -0.5567
C19 C 0.2143(3) 0.5230(3) -0.3821(3)
H14 H 0.1433 0.4704 -0.3501
C20 C 0.1189(3) 0.7388(3) 0.2695(3)
C21 C 0.1313(3) 0.8099(3) 0.3717(3)
C22 C 0.0516(3) 0.7878(3) 0.4894(3)
H15 H -0.0148 0.7297 0.5050
C23 C 0.0686(4) 0.8496(3) 0.5835(3)
H16 H 0.0147 0.8337 0.6630
C24 C 0.1655(4) 0.9351(3) 0.5595(3)
C25 C 0.2446(4) 0.9609(3) 0.4448(3)
H17 H 0.3094 1.0204 0.4298
C26 C 0.2269(4) 0.8969(3) 0.3510(3)
H18 H 0.2812 0.9131 0.2716
Cd1A Cd -1.09434(2) 1.39166(2) -0.08304(2)
Cd1_2 Cd -0.90566(2) 1.60834(2) 0.08304(2)
Cd1A_2 Cd -0.09434(2) 0.39166(2) -0.08304(2)
Cl1A Cl -0.45692(11) 0.38278(11) 0.70640(9)
Cl2A Cl -1.18833(13) 0.98917(10) -0.67941(9)
N1A N -0.9281(3) 1.2306(2) -0.0649(2)
N2A N -0.2494(3) 0.5626(2) -0.1046(2)
N2_2 N 0.2494(3) 0.4374(2) 0.1046(2)
N2A_2 N -1.2494(3) 1.5626(2) -0.1046(2)
O1A O -0.2406(2) 0.3577(2) 0.1073(2)
O1A_2 O -1.2406(2) 1.3577(2) 0.1073(2)
O2A O -0.0867(2) 0.4761(2) 0.1282(2)
O2A_2 O -1.0867(2) 1.4761(2) 0.1282(2)
O2_2 O -0.9133(2) 1.5239(2) -0.1282(2)
O3A O -1.0368(2) 1.3443(2) -0.2903(2)
O4A O -1.1925(2) 1.23594(19) -0.16419(19)
C1A C -0.7951(3) 1.2221(3) -0.1385(3)
H1A H -0.7724 1.2765 -0.2041
C2A C -0.6897(3) 1.1376(3) -0.1231(3)
H2A H -0.5978 1.1344 -0.1780
C3A C -0.7194(3) 1.0567(3) -0.0260(3)
C4A C -0.8597(3) 1.0618(3) 0.0472(3)
H3A H -0.8863 1.0060 0.1114
C5A C -0.9590(3) 1.1490(3) 0.0250(3)
H4A H -1.0529 1.1511 0.0755
C6A C -0.6091(3) 0.9795(3) 0.0133(3)
H5A H -0.6474 0.9069 0.0618
C7A C -0.4635(3) 0.9377(3) -0.0825(3)
H6A H -0.4580 0.9747 -0.1612
C8A C -0.4064(3) 0.7997(3) -0.0971(3)
C9A C -0.2827(3) 0.7627(3) -0.1914(3)
H7A H -0.2500 0.8182 -0.2549
C10A C -0.2078(3) 0.6457(3) -0.1923(3)
H8A H -0.1246 0.6234 -0.2570
C11A C -0.3737(3) 0.5932(3) -0.0196(3)
H9A H -0.4074 0.5335 0.0397
C12A C -0.4561(3) 0.7080(3) -0.0137(3)
H10A H -0.5447 0.7235 0.0462
C13A C -0.1901(3) 0.4147(3) 0.1717(3)
C14A C -0.2557(3) 0.4075(3) 0.3058(3)
C15A C -0.3613(3) 0.3301(3) 0.3544(3)
H11A H -0.3915 0.2832 0.3033
C16A C -0.4218(4) 0.3220(4) 0.4772(3)
H12A H -0.4920 0.2687 0.5101
C17A C -0.3789(4) 0.3920(4) 0.5506(3)
C18A C -0.2758(4) 0.4701(3) 0.5051(3)
H13A H -0.2476 0.5181 0.5567
C19A C -0.2143(3) 0.4770(3) 0.3821(3)
H14A H -0.1433 0.5296 0.3501
C20A C -1.1189(3) 1.2612(3) -0.2695(3)
C21A C -1.1313(3) 1.1901(3) -0.3717(3)
C22A C -1.0516(3) 1.2122(3) -0.4894(3)
H15A H -0.9852 1.2703 -0.5050
C23A C -1.0686(4) 1.1504(3) -0.5835(3)
H16A H -1.0147 1.1663 -0.6630
C24A C -1.1655(4) 1.0649(3) -0.5595(3)
C25A C -1.2446(4) 1.0391(3) -0.4448(3)
H17A H -1.3094 0.9796 -0.4298
C26A C -1.2269(4) 1.1031(3) -0.3510(3)
H18A H -1.2812 1.0869 -0.2716
loop_
_geom_bond_atom_site_label_1
_geom_bond_atom_site_label_2
_geom_bond_site_symmetry_1
_geom_bond_site_symmetry_2
Cd1 N1 1_555 1_555
Cl1 C17 1_555 1_555
Cl2 C24 1_555 1_555
N1 C1 1_555 1_555
N2 C10 1_555 1_555
O1 Cd1 1_555 1_555
O2 Cd1 1_555 1_555
O3 Cd1 1_555 1_555
O4 Cd1 1_555 1_555
C1 H1 1_555 1_555
C2 C1 1_555 1_555
H2 C2 1_555 1_555
C3 C2 1_555 1_555
C4 C3 1_555 1_555
H3 C4 1_555 1_555
C5 N1 1_555 1_555
H4 C5 1_555 1_555
C6 C3 1_555 1_555
H5 C6 1_555 1_555
C7 C6 1_555 1_555
H6 C7 1_555 1_555
C8 C7 1_555 1_555
C9 C8 1_555 1_555
H7 C9 1_555 1_555
C10 C9 1_555 1_555
H8 C10 1_555 1_555
C11 N2 1_555 1_555
H9 C11 1_555 1_555
C12 C8 1_555 1_555
H10 C12 1_555 1_555
C13 O1 1_555 1_555
C14 C13 1_555 1_555
C15 C14 1_555 1_555
H11 C15 1_555 1_555
C16 C15 1_555 1_555
H12 C16 1_555 1_555
C17 C16 1_555 1_555
C18 C17 1_555 1_555
H13 C18 1_555 1_555
C19 C14 1_555 1_555
H14 C19 1_555 1_555
C20 O3 1_555 1_555
C21 C20 1_555 1_555
C22 C21 1_555 1_555
H15 C22 1_555 1_555
C23 C22 1_555 1_555
H16 C23 1_555 1_555
C24 C23 1_555 1_555
C25 C24 1_555 1_555
H17 C25 1_555 1_555
C26 C21 1_555 1_555
H18 C26 1_555 1_555
Cd1A N1A 1_555 1_555
Cd1_2 N2 1_555 1_555
Cd1A_2 O2 1_555 1_555
Cl1A C17A 1_555 1_555
Cl2A C24A 1_555 1_555
N1A C1A 1_555 1_555
N2A Cd1A_2 1_555 1_555
N2_2 Cd1 1_555 1_555
N2A_2 Cd1A 1_555 1_555
O1A Cd1A_2 1_555 1_555
O1A_2 Cd1A 1_555 1_555
O2A Cd1 1_555 1_555
O2A_2 Cd1A 1_555 1_555
O2_2 Cd1A 1_555 1_555
O3A Cd1A 1_555 1_555
O4A Cd1A 1_555 1_555
C1A H1A 1_555 1_555
C2A C1A 1_555 1_555
H2A C2A 1_555 1_555
C3A C2A 1_555 1_555
C4A C3A 1_555 1_555
H3A C4A 1_555 1_555
C5A N1A 1_555 1_555
H4A C5A 1_555 1_555
C6A C7 1_555 1_555
H5A C6A 1_555 1_555
C7A C6 1_555 1_555
H6A C7A 1_555 1_555
C8A C7A 1_555 1_555
C9A C8A 1_555 1_555
H7A C9A 1_555 1_555
C10A N2A 1_555 1_555
H8A C10A 1_555 1_555
C11A N2A 1_555 1_555
H9A C11A 1_555 1_555
C12A C8A 1_555 1_555
H10A C12A 1_555 1_555
C13A O1A 1_555 1_555
C14A C13A 1_555 1_555
C15A C14A 1_555 1_555
H11A C15A 1_555 1_555
C16A C15A 1_555 1_555
H12A C16A 1_555 1_555
C17A C16A 1_555 1_555
C18A C17A 1_555 1_555
H13A C18A 1_555 1_555
C19A C14A 1_555 1_555
H14A C19A 1_555 1_555
C20A O3A 1_555 1_555
C21A C20A 1_555 1_555
C22A C21A 1_555 1_555
H15A C22A 1_555 1_555
C23A C22A 1_555 1_555
H16A C23A 1_555 1_555
C24A C23A 1_555 1_555
C25A C24A 1_555 1_555
H17A C25A 1_555 1_555
C26A C21A 1_555 1_555
H18A C26A 1_555 1_555
O2 C13 1_555 1_555
O4 C20 1_555 1_555
C4 C5 1_555 1_555
C11 C12 1_555 1_555
C18 C19 1_555 1_555
C25 C26 1_555 1_555
Cd1_2 O2A_2 1_555 1_555
Cd1_2 O2_2 1_555 1_555
Cd1A_2 O2A 1_555 1_555
O2A C13A 1_555 1_555
O4A C20A 1_555 1_555
C3A C6A 1_555 1_555
C4A C5A 1_555 1_555
C6A C7A 1_555 1_555
C9A C10A 1_555 1_555
C11A C12A 1_555 1_555
C18A C19A 1_555 1_555
C25A C26A 1_555 1_555

#END
