
#######################################################################
#
#                 Cambridge Crystallographic Data Centre
#                                CCDC 
#
#######################################################################
#
# If this CIF has been generated from an entry in the Cambridge 
# Structural Database, then it will include bibliographic, chemical, 
# crystal, experimental, refinement or atomic coordinate data resulting 
# from the CCDC's data processing and validation procedures.
#
#######################################################################

data_AMIKOX
_symmetry_cell_setting           orthorhombic
_symmetry_space_group_name_H-M   'P c c a'
_symmetry_Int_Tables_number      54
_space_group_name_Hall           '-P 2a 2ac'
loop_
_symmetry_equiv_pos_site_id
_symmetry_equiv_pos_as_xyz
1 x,y,z
2 1/2-x,-y,z
3 -x,y,1/2-z
4 1/2+x,-y,1/2-z
5 -x,-y,-z
6 1/2+x,y,-z
7 x,-y,1/2+z
8 1/2-x,y,1/2+z
_cell_length_a                   17.419(4)
_cell_length_b                   9.1351(18)
_cell_length_c                   15.583(3)
_cell_angle_alpha                90
_cell_angle_beta                 90
_cell_angle_gamma                90
_cell_volume                     2479.63
loop_
_atom_site_label
_atom_site_type_symbol
_atom_site_fract_x
_atom_site_fract_y
_atom_site_fract_z
Cd1 Cd 0.7500 0.0000 -0.03918(2)
Cl1 Cl 0.64002(5) -0.19519(11) -0.04894(7)
N1 N 0.67893(14) 0.1135(3) 0.07339(17)
C1 C 0.60288(19) 0.1024(4) 0.0754(3)
H1 H 0.5790 0.0393 0.0360
C2 C 0.55696(18) 0.1787(4) 0.1325(2)
H2 H 0.5033 0.1681 0.1309
N2 N 0.68374(17) 0.8412(3) 0.36723(18)
C3 C 0.59078(15) 0.2707(3) 0.19187(19)
C4 C 0.67022(18) 0.2773(4) 0.1915(2)
H3 H 0.6959 0.3358 0.2320
C5 C 0.71171(17) 0.1984(4) 0.1321(2)
H4 H 0.7656 0.2049 0.1332
C6 C 0.54451(15) 0.3638(3) 0.25219(17)
H5 H 0.5615 0.3467 0.3120
C7 C 0.54281(16) 0.5309(3) 0.2332(2)
H6 H 0.5438 0.5481 0.1705
C8 C 0.59640(16) 0.6352(3) 0.27752(19)
C9 C 0.63973(18) 0.5954(3) 0.3480(2)
H7 H 0.6400 0.4978 0.3670
C10 C 0.6826(2) 0.6998(4) 0.3904(2)
H8 H 0.7124 0.6704 0.4376
C11 C 0.6435(2) 0.8800(3) 0.2978(2)
H9 H 0.6447 0.9783 0.2800
C12 C 0.60058(19) 0.7816(3) 0.2512(2)
H10 H 0.5741 0.8125 0.2019
Cd1B Cd 0.2500 0.0000 0.53918(2)
Cd1D Cd 0.2500 1.0000 0.03918(2)
Cd1F Cd 0.7500 1.0000 0.46082(2)
Cl1A Cl 0.85998(5) 0.19519(11) -0.04894(7)
N1B N 0.32107(14) 0.1135(3) 0.42661(17)
N1A N 0.82107(14) -0.1135(3) 0.07339(17)
C1B C 0.39712(19) 0.1024(4) 0.4246(3)
H1B H 0.4210 0.0393 0.4640
C2B C 0.44304(18) 0.1787(4) 0.3675(2)
H2B H 0.4967 0.1681 0.3691
N2B N 0.31626(17) 0.8412(3) 0.13277(18)
N2F N 0.68374(17) 0.1588(3) -0.13277(18)
N2G N 0.81626(17) -0.1588(3) -0.13277(18)
C3B C 0.40922(15) 0.2707(3) 0.30813(19)
C4B C 0.32978(18) 0.2773(4) 0.3085(2)
H3B H 0.3041 0.3358 0.2680
C5B C 0.28829(17) 0.1984(4) 0.3679(2)
H4B H 0.2344 0.2049 0.3668
C6B C 0.45549(15) 0.3638(3) 0.24781(17)
H5B H 0.4385 0.3467 0.1880
C7B C 0.45719(16) 0.5309(3) 0.2668(2)
H6B H 0.4562 0.5481 0.3295
C8B C 0.40360(16) 0.6352(3) 0.22248(19)
C9B C 0.36027(18) 0.5954(3) 0.1520(2)
H7B H 0.3600 0.4978 0.1330
C10B C 0.3174(2) 0.6998(4) 0.1096(2)
H8B H 0.2876 0.6704 0.0624
C11B C 0.3565(2) 0.8800(3) 0.2022(2)
H9B H 0.3553 0.9783 0.2200
C12B C 0.39942(19) 0.7816(3) 0.2488(2)
H10B H 0.4259 0.8125 0.2981
O1 O 0.6687(6) 0.4712(9) 0.5563(6)
H11 H 0.628(3) 0.437(9) 0.537(5)
H12 H 0.676(5) 0.554(4) 0.537(5)
loop_
_geom_bond_atom_site_label_1
_geom_bond_atom_site_label_2
_geom_bond_site_symmetry_1
_geom_bond_site_symmetry_2
Cd1 Cl1 1_555 1_555
N1 Cd1 1_555 1_555
C1 N1 1_555 1_555
H1 C1 1_555 1_555
C2 C1 1_555 1_555
H2 C2 1_555 1_555
N2 C10 1_555 1_555
C3 C2 1_555 1_555
C4 C3 1_555 1_555
H3 C4 1_555 1_555
C5 N1 1_555 1_555
H4 C5 1_555 1_555
C6 C3 1_555 1_555
H5 C6 1_555 1_555
C7 C6 1_555 1_555
H6 C7 1_555 1_555
C8 C7 1_555 1_555
C9 C8 1_555 1_555
H7 C9 1_555 1_555
C10 C9 1_555 1_555
H8 C10 1_555 1_555
C11 N2 1_555 1_555
H9 C11 1_555 1_555
C12 C8 1_555 1_555
H10 C12 1_555 1_555
O1 H11 1_555 1_555
H12 O1 1_555 1_555
Cd1B N1B 1_555 1_555
Cd1D N2B 1_555 1_555
Cd1F N2 1_555 1_555
Cl1A Cd1 1_555 1_555
N1B C1B 1_555 1_555
N1A Cd1 1_555 1_555
C1B H1B 1_555 1_555
C2B C1B 1_555 1_555
H2B C2B 1_555 1_555
N2B C10B 1_555 1_555
N2F Cd1 1_555 1_555
N2G Cd1 1_555 1_555
C3B C2B 1_555 1_555
C4B C3B 1_555 1_555
H3B C4B 1_555 1_555
C5B N1B 1_555 1_555
H4B C5B 1_555 1_555
C6B C6 1_555 1_555
H5B C6B 1_555 1_555
C7B C7 1_555 1_555
H6B C7B 1_555 1_555
C8B C7B 1_555 1_555
C9B C8B 1_555 1_555
H7B C9B 1_555 1_555
C10B C9B 1_555 1_555
H8B C10B 1_555 1_555
C11B N2B 1_555 1_555
H9B C11B 1_555 1_555
C12B C8B 1_555 1_555
H10B C12B 1_555 1_555
C4 C5 1_555 1_555
C11 C12 1_555 1_555
C3B C6B 1_555 1_555
C4B C5B 1_555 1_555
C6B C7B 1_555 1_555
C11B C12B 1_555 1_555

#END
