
#######################################################################
#
#                 Cambridge Crystallographic Data Centre
#                                CCDC 
#
#######################################################################
#
# If this CIF has been generated from an entry in the Cambridge 
# Structural Database, then it will include bibliographic, chemical, 
# crystal, experimental, refinement or atomic coordinate data resulting 
# from the CCDC's data processing and validation procedures.
#
#######################################################################

data_AMINOZ
_symmetry_cell_setting           orthorhombic
_symmetry_space_group_name_H-M   'I m m m'
_symmetry_Int_Tables_number      71
_space_group_name_Hall           '-I 2 2'
loop_
_symmetry_equiv_pos_site_id
_symmetry_equiv_pos_as_xyz
1 x,y,z
2 1/2+x,1/2+y,1/2+z
3 x,y,-z
4 -x,y,z
5 x,-y,z
6 1/2+x,1/2+y,1/2-z
7 1/2-x,1/2+y,1/2+z
8 1/2+x,1/2-y,1/2+z
9 -x,-y,-z
10 1/2-x,1/2-y,1/2-z
11 -x,-y,z
12 x,-y,-z
13 -x,y,-z
14 1/2-x,1/2-y,1/2+z
15 1/2+x,1/2-y,1/2-z
16 1/2-x,1/2+y,1/2-z
_cell_length_a                   7.1791(5)
_cell_length_b                   9.4033(6)
_cell_length_c                   10.2886(7)
_cell_angle_alpha                90
_cell_angle_beta                 90
_cell_angle_gamma                90
_cell_volume                     694.555
loop_
_atom_site_label
_atom_site_type_symbol
_atom_site_fract_x
_atom_site_fract_y
_atom_site_fract_z
O2 O 0.216(2) 0.6180(10) 0.8260(10)
C1 C 0.0000 0.5000 0.9321(5)
C2 C 0.1660(10) 0.5000 0.8598(7)
C3 C 0.336(2) 0.5000 0.9316(5)
H2 H 0.1648 0.5000 0.7694
H3 H 0.4491 0.5000 0.8872
C1B C 0.0000 0.5000 1.0679(5)
C2C C -0.1660(10) 0.5000 0.8598(7)
O2D O 0.216(2) 0.3820(10) 0.8260(10)
C3B C 0.336(2) 0.5000 1.0684(5)
H3C H 0.5509 0.5000 0.8872
C2B C 0.1660(10) 0.5000 1.1402(7)
C2H C -0.1660(10) 0.5000 1.1402(7)
O2C O -0.216(2) 0.6180(10) 0.8260(10)
O2J O -0.216(2) 0.3820(10) 0.8260(10)
C3C C -0.336(2) 0.5000 0.9316(5)
H2C H -0.1648 0.5000 0.7694
H3B H 0.4491 0.5000 1.1128
C3C_2 C 0.664(2) 0.5000 0.9316(5)
H2B H 0.1648 0.5000 1.2306
H2H H -0.1648 0.5000 1.2306
H3C_2 H -0.4491 0.5000 0.8872
H3H H 0.5509 0.5000 1.1128
Co1 Co 0.5000 0.5000 0.5000
O1 O 0.5000 0.6520(10) 0.6442(9)
N1 N 0.193(2) 0.5000 0.5000
C4 C 0.095(2) 0.3810(10) 0.5000
H1 H 0.4014 0.6486 0.6844
H4 H 0.1580 0.2947 0.5000
H1C H 0.5986 0.6486 0.6844
C4D C 0.095(2) 0.6190(10) 0.5000
C4C C -0.095(2) 0.3810(10) 0.5000
O1B O 0.5000 0.6520(10) 0.3558(9)
H1B H 0.4014 0.6486 0.3156
H1L H 0.5986 0.6486 0.3156
O1D O 0.5000 0.3480(10) 0.6442(9)
H1D H 0.4014 0.3514 0.6844
H1J H 0.5986 0.3514 0.6844
O1H O 0.5000 0.3480(10) 0.3558(9)
H1H H 0.5986 0.3514 0.3156
H1K H 0.4014 0.3514 0.3156
N1C N 0.807(2) 0.5000 0.5000
C4H C -0.095(2) 0.6190(10) 0.5000
H4D H 0.1580 0.7053 0.5000
N1C_2 N -0.193(2) 0.5000 0.5000
H4C H -0.1580 0.2947 0.5000
H4H H -0.1580 0.7053 0.5000
Co1_2 Co -0.5000 0.5000 0.5000
loop_
_geom_bond_atom_site_label_1
_geom_bond_atom_site_label_2
_geom_bond_site_symmetry_1
_geom_bond_site_symmetry_2
Co1 O1 1_555 1_555
O1 H1 1_555 1_555
O2 C2 1_555 1_555
N1 Co1 1_555 1_555
C1 C2 1_555 1_555
C2 C3 1_555 1_555
C3 H3 1_555 1_555
C4 N1 1_555 1_555
H2 O2 1_555 1_555
H3 H3C 1_555 1_555
H4 C4 1_555 1_555
H1C O1 1_555 1_555
C4D N1 1_555 1_555
C1B C1 1_555 1_555
C2C C1 1_555 1_555
O2D C2 1_555 1_555
C3B C3 1_555 1_555
C4C C4 1_555 1_555
H3C C3C_2 1_555 1_555
O1B Co1 1_555 1_555
H1B O1B 1_555 1_555
H1L O1B 1_555 1_555
O1D Co1 1_555 1_555
H1D O1D 1_555 1_555
H1J O1D 1_555 1_555
O1H Co1 1_555 1_555
H1H O1H 1_555 1_555
H1K O1H 1_555 1_555
N1C Co1 1_555 1_555
C4H C4D 1_555 1_555
H4D C4D 1_555 1_555
C2B C1B 1_555 1_555
C2H C1B 1_555 1_555
O2C C2C 1_555 1_555
O2J C2C 1_555 1_555
C3C C2C 1_555 1_555
H2C C2C 1_555 1_555
H3B C3B 1_555 1_555
N1C_2 C4C 1_555 1_555
H4C C4C 1_555 1_555
H4H C4H 1_555 1_555
H2B C2B 1_555 1_555
H2H C2H 1_555 1_555
H3C_2 C3C 1_555 1_555
H3H H3B 1_555 1_555
Co1_2 N1C_2 1_555 1_555
C2 H2 1_555 1_555
H2 O2D 1_555 1_555
C3B C2B 1_555 1_555
C4H N1C_2 1_555 1_555
O2C H2C 1_555 1_555
O2J H2C 1_555 1_555

#END
