
#######################################################################
#
#                 Cambridge Crystallographic Data Centre
#                                CCDC 
#
#######################################################################
#
# If this CIF has been generated from an entry in the Cambridge 
# Structural Database, then it will include bibliographic, chemical, 
# crystal, experimental, refinement or atomic coordinate data resulting 
# from the CCDC's data processing and validation procedures.
#
#######################################################################

data_AMINEP
_symmetry_cell_setting           monoclinic
_symmetry_space_group_name_H-M   'P 21/c'
_symmetry_Int_Tables_number      14
_space_group_name_Hall           '-P 2ybc'
loop_
_symmetry_equiv_pos_site_id
_symmetry_equiv_pos_as_xyz
1 x,y,z
2 x,1/2-y,1/2+z
3 -x,-y,-z
4 -x,1/2+y,1/2-z
_cell_length_a                   13.1148(8)
_cell_length_b                   4.6992(2)
_cell_length_c                   12.8071(5)
_cell_angle_alpha                90
_cell_angle_beta                 107.900(1)
_cell_angle_gamma                90
_cell_volume                     751.084
loop_
_atom_site_label
_atom_site_type_symbol
_atom_site_fract_x
_atom_site_fract_y
_atom_site_fract_z
O1 O 0.42711(8) 0.1613(2) 0.70710(8)
O2 O 0.38455(8) -0.1914(2) 0.88899(8)
O3 O 0.26515(9) -0.5255(2) 0.74941(8)
C1 C 0.21752(11) -0.5924(3) 0.82686(10)
C2 C 0.34849(11) -0.2795(3) 0.96438(10)
C3 C 0.25210(10) -0.4683(3) 0.93194(10)
C4 C 0.13347(12) -0.7874(3) 0.80049(12)
C5 C 0.19574(12) -0.5298(3) 1.00558(12)
C6 C 0.08047(13) -0.8470(4) 0.87559(13)
C7 C 0.11005(14) -0.7165(4) 0.97762(12)
Li1 Li 0.5012(2) -0.0280(5) 0.85294(18)
O4 O 0.39092(8) -0.2220(2) 1.06448(7)
H1 H 0.2179(14) -0.438(4) 1.0796(14)
H2 H 0.1137(15) -0.880(4) 0.7292(15)
H3 H 0.0706(17) -0.751(4) 1.0295(16)
H4 H 0.0215(16) -0.995(4) 0.8550(16)
H5 H 0.4093(15) 0.017(4) 0.6565(16)
H6 H 0.3647(19) 0.243(5) 0.7155(17)
H7 H 0.312(2) -0.373(6) 0.784(2)
Li1C Li 0.4988(2) 0.4720(5) 0.64706(18)
O1C O 0.57289(8) -0.3387(2) 0.79290(8)
O4B O 0.60908(8) 0.2220(2) 0.93552(7)
Li1B Li 0.4988(2) 0.0280(5) 1.14706(18)
H5C H 0.5907(15) -0.483(4) 0.8435(16)
H6C H 0.6353(19) -0.257(5) 0.7845(17)
loop_
_geom_bond_atom_site_label_1
_geom_bond_atom_site_label_2
_geom_bond_site_symmetry_1
_geom_bond_site_symmetry_2
O1 Li1 1_555 1_555
O2 C2 1_555 1_555
O3 C1 1_555 1_555
C1 C3 1_555 1_555
C2 C3 1_555 1_555
C3 C5 1_555 1_555
C4 C1 1_555 1_555
C5 C7 1_555 1_555
C6 C4 1_555 1_555
C7 C6 1_555 1_555
Li1 O2 1_555 1_555
O4 C2 1_555 1_555
H1 C5 1_555 1_555
H2 C4 1_555 1_555
H3 C7 1_555 1_555
H4 C6 1_555 1_555
H5 O1 1_555 1_555
H6 O1 1_555 1_555
H7 O3 1_555 1_555
Li1C O1 1_555 1_555
O1C Li1 1_555 1_555
O4B Li1 1_555 1_555
Li1B O4 1_555 1_555
H5C O1C 1_555 1_555
H6C O1C 1_555 1_555

#END
