
#######################################################################
#
#                 Cambridge Crystallographic Data Centre
#                                CCDC 
#
#######################################################################
#
# If this CIF has been generated from an entry in the Cambridge 
# Structural Database, then it will include bibliographic, chemical, 
# crystal, experimental, refinement or atomic coordinate data resulting 
# from the CCDC's data processing and validation procedures.
#
#######################################################################

data_AMINOZ01
_symmetry_cell_setting           orthorhombic
_symmetry_space_group_name_H-M   'I m m 2'
_symmetry_Int_Tables_number      44
_space_group_name_Hall           'I 2 -2'
loop_
_symmetry_equiv_pos_site_id
_symmetry_equiv_pos_as_xyz
1 x,y,z
2 -x,-y,z
3 -x,y,z
4 x,-y,z
5 1/2+x,1/2+y,1/2+z
6 1/2-x,1/2-y,1/2+z
7 1/2-x,1/2+y,1/2+z
8 1/2+x,1/2-y,1/2+z
_cell_length_a                   9.4033(6)
_cell_length_b                   10.2886(7)
_cell_length_c                   7.1791(5)
_cell_angle_alpha                90
_cell_angle_beta                 90
_cell_angle_gamma                90
_cell_volume                     694.555
loop_
_atom_site_label
_atom_site_type_symbol
_atom_site_fract_x
_atom_site_fract_y
_atom_site_fract_z
Co1 Co 0.0000 0.5000 0.5000
O2 O 0.15140(10) 0.35660(10) 0.4907(3)
N1 N 0.0000 0.5000 0.1944(5)
N2 N 0.0000 0.5000 -0.1952(5)
C1 C 0.1198(3) 0.5000 0.0970(4)
C2 C 0.1207(4) 0.5000 -0.0949(4)
H1 H 0.220(3) 0.342(3) 0.563(4)
H2 H 0.140(4) 0.301(2) 0.407(3)
H3 H 0.2061 0.5000 0.1603
H4 H 0.2075 0.5000 -0.1569
Co1_2 Co 0.0000 0.5000 -0.5000
O2A O -0.15140(10) 0.64340(10) 0.4907(3)
O2B O -0.15140(10) 0.35660(10) 0.4907(3)
O2C O 0.15140(10) 0.64340(10) 0.4907(3)
N2_2 N 0.0000 0.5000 0.8048(5)
C1A C -0.1198(3) 0.5000 0.0970(4)
C2A C -0.1207(4) 0.5000 -0.0949(4)
H1A H -0.220(3) 0.658(3) 0.563(4)
H1B H -0.220(3) 0.342(3) 0.563(4)
H1C H 0.220(3) 0.658(3) 0.563(4)
H2A H -0.140(4) 0.699(2) 0.407(3)
H2B H -0.140(4) 0.301(2) 0.407(3)
H2C H 0.140(4) 0.699(2) 0.407(3)
H3A H -0.2061 0.5000 0.1603
H4A H -0.2075 0.5000 -0.1569
O1 O 0.3824(2) 0.3210(2) 0.7105(2)
C3 C 0.5000 0.4334(3) 0.1354(4)
C4 C 0.5000 0.3668(4) 0.3017(5)
C5 C 0.5000 0.4321(2) 0.4697(3)
C6 C 0.5000 0.3529(3) 0.6460(4)
H5 H 0.5000 0.3881 0.0233
H6 H 0.5000 0.2765 0.3009
O1B O 0.6176(2) 0.3210(2) 0.7105(2)
O1A O 0.6176(2) 0.6790(2) 0.7105(2)
O1C O 0.3824(2) 0.6790(2) 0.7105(2)
C3A C 0.5000 0.5666(3) 0.1354(4)
C4A C 0.5000 0.6332(4) 0.3017(5)
C5A C 0.5000 0.5679(2) 0.4697(3)
C6A C 0.5000 0.6471(3) 0.6460(4)
H5A H 0.5000 0.6119 0.0233
H6A H 0.5000 0.7235 0.3009
loop_
_geom_bond_atom_site_label_1
_geom_bond_atom_site_label_2
_geom_bond_site_symmetry_1
_geom_bond_site_symmetry_2
Co1 O2 1_555 1_555
O1 C6 1_555 1_555
O2 H1 1_555 1_555
N1 Co1 1_555 1_555
N2 C2 1_555 1_555
C1 N1 1_555 1_555
C2 C1 1_555 1_555
C3 C4 1_555 1_555
C4 C5 1_555 1_555
C5 C6 1_555 1_555
C6 O1B 1_555 1_555
H2 O2 1_555 1_555
H3 C1 1_555 1_555
H4 C2 1_555 1_555
H5 C3 1_555 1_555
H6 C4 1_555 1_555
Co1_2 N2 1_555 1_555
O1A C6A 1_555 1_555
O1C C6A 1_555 1_555
O2A Co1 1_555 1_555
O2B Co1 1_555 1_555
O2C Co1 1_555 1_555
N2_2 Co1 1_555 1_555
C1A N1 1_555 1_555
C2A N2 1_555 1_555
C3A C3 1_555 1_555
C4A C3A 1_555 1_555
C5A C5 1_555 1_555
C6A C5A 1_555 1_555
H1A O2A 1_555 1_555
H1B O2B 1_555 1_555
H1C O2C 1_555 1_555
H2A O2A 1_555 1_555
H2B O2B 1_555 1_555
H2C O2C 1_555 1_555
H3A C1A 1_555 1_555
H4A C2A 1_555 1_555
H5A C3A 1_555 1_555
H6A C4A 1_555 1_555
C1A C2A 1_555 1_555
C4A C5A 1_555 1_555

#END
