
#######################################################################
#
#                 Cambridge Crystallographic Data Centre
#                                CCDC 
#
#######################################################################
#
# If this CIF has been generated from an entry in the Cambridge 
# Structural Database, then it will include bibliographic, chemical, 
# crystal, experimental, refinement or atomic coordinate data resulting 
# from the CCDC's data processing and validation procedures.
#
#######################################################################

data_AMIQAO
_symmetry_cell_setting           monoclinic
_symmetry_space_group_name_H-M   'C 2/c'
_symmetry_Int_Tables_number      15
_space_group_name_Hall           '-C 2yn'
loop_
_symmetry_equiv_pos_site_id
_symmetry_equiv_pos_as_xyz
1 x,y,z
2 1/2+x,1/2+y,z
3 x,-y,1/2+z
4 1/2+x,1/2-y,1/2+z
5 -x,-y,-z
6 1/2-x,1/2-y,-z
7 -x,y,1/2-z
8 1/2-x,1/2+y,1/2-z
_cell_length_a                   21.258(10)
_cell_length_b                   9.723(4)
_cell_length_c                   17.253(7)
_cell_angle_alpha                90
_cell_angle_beta                 126.610(14)
_cell_angle_gamma                90
_cell_volume                     2862.52
loop_
_atom_site_label
_atom_site_type_symbol
_atom_site_fract_x
_atom_site_fract_y
_atom_site_fract_z
Mn1 Mn 0.5000 0.03174(6) 0.2500
N1 N 0.41223(12) 0.1957(2) 0.14941(15)
N2 N 0.37685(13) 0.1860(2) 0.05253(15)
H1 H 0.3819 0.1162 0.0261
N3 N 0.41879(12) 0.8495(2) 0.15236(15)
N4 N 0.44367(13) 0.7923(2) 0.10307(17)
H2 H 0.4786 0.8292 0.0995
N5 N 0.45750(14) 0.0319(2) 0.34035(18)
S1 S 0.34771(5) 0.05688(10) 0.37811(7)
C1 C 0.41461(18) 0.3722(3) 0.2558(2)
H3 H 0.3694 0.3871 0.2546
H4 H 0.4423 0.4574 0.2696
H5 H 0.4484 0.3061 0.3049
C2 C 0.38921(14) 0.3193(3) 0.15961(18)
C3 C 0.33996(14) 0.3862(2) 0.06986(18)
C4 C 0.33318(15) 0.2971(3) 0.00271(19)
C5 C 0.28921(18) 0.3080(3) -0.1044(2)
H6 H 0.3189 0.3623 -0.1187
H7 H 0.2394 0.3510 -0.1319
H8 H 0.2811 0.2177 -0.1314
C6 C 0.30215(15) 0.5250(3) 0.0517(2)
H9 H 0.2782 0.5291 0.0851
H10 H 0.2606 0.5338 -0.0169
C7 C 0.32470(18) 0.7820(3) 0.1863(2)
H11 H 0.3447 0.7194 0.2393
H12 H 0.2695 0.7669 0.1392
H13 H 0.3335 0.8749 0.2096
C8 C 0.36596(14) 0.7584(3) 0.14089(17)
C9 C 0.35691(14) 0.6461(2) 0.08333(18)
C10 C 0.40827(17) 0.6725(3) 0.0606(2)
C11 C 0.4269(2) 0.5967(3) 0.0005(3)
H14 H 0.4688 0.6427 0.0047
H15 H 0.3813 0.5946 -0.0655
H16 H 0.4426 0.5043 0.0242
C12 C 0.41290(16) 0.0427(3) 0.35846(19)
N1F N 0.58777(12) 0.1957(2) 0.35059(15)
N2F N 0.62315(13) 0.1860(2) 0.44747(15)
H1F H 0.6181 0.1162 0.4739
N3F N 0.58121(12) 0.8495(2) 0.34764(15)
N4F N 0.55633(13) 0.7923(2) 0.39693(17)
H2F H 0.5214 0.8292 0.4005
C1F C 0.58539(18) 0.3722(3) 0.2442(2)
H3F H 0.6306 0.3871 0.2454
H4F H 0.5577 0.4574 0.2304
H5F H 0.5516 0.3061 0.1951
C2F C 0.61079(14) 0.3193(3) 0.34039(18)
C3F C 0.66004(14) 0.3862(2) 0.43014(18)
C4F C 0.66682(15) 0.2971(3) 0.49729(19)
C5F C 0.71079(18) 0.3080(3) 0.6044(2)
H6F H 0.6811 0.3623 0.6187
H7F H 0.7606 0.3510 0.6319
H8F H 0.7189 0.2177 0.6314
C6F C 0.69785(15) 0.5250(3) 0.4483(2)
H9F H 0.7218 0.5291 0.4149
H10F H 0.7394 0.5338 0.5169
C7F C 0.67530(18) 0.7820(3) 0.3137(2)
H11F H 0.6553 0.7194 0.2607
H12F H 0.7305 0.7669 0.3608
H13F H 0.6665 0.8749 0.2904
C8F C 0.63404(14) 0.7584(3) 0.35911(17)
C9F C 0.64309(14) 0.6461(2) 0.41667(18)
C10F C 0.59173(17) 0.6725(3) 0.4394(2)
C11F C 0.5731(2) 0.5967(3) 0.4995(3)
H14F H 0.5312 0.6427 0.4953
H15F H 0.6187 0.5946 0.5655
H16F H 0.5574 0.5043 0.4758
N5F N 0.54250(14) 0.0319(2) 0.15965(18)
S1F S 0.65229(5) 0.05688(10) 0.12189(7)
C12F C 0.58710(16) 0.0427(3) 0.14154(19)
N3_2 N 0.41879(12) -0.1505(2) 0.15236(15)
N3F_2 N 0.58121(12) -0.1505(2) 0.34764(15)
Mn1_2 Mn 0.5000 1.03174(6) 0.2500
loop_
_geom_bond_atom_site_label_1
_geom_bond_atom_site_label_2
_geom_bond_site_symmetry_1
_geom_bond_site_symmetry_2
Mn1 N1 1_555 1_555
N1 N2 1_555 1_555
N2 H1 1_555 1_555
N3 N4 1_555 1_555
N4 H2 1_555 1_555
N5 Mn1 1_555 1_555
S1 C12 1_555 1_555
C1 H3 1_555 1_555
H4 C1 1_555 1_555
H5 C1 1_555 1_555
C2 N1 1_555 1_555
C3 C2 1_555 1_555
C4 N2 1_555 1_555
C5 C4 1_555 1_555
H6 C5 1_555 1_555
H7 C5 1_555 1_555
H8 C5 1_555 1_555
C6 C3 1_555 1_555
H9 C6 1_555 1_555
H10 C6 1_555 1_555
C7 H11 1_555 1_555
H12 C7 1_555 1_555
H13 C7 1_555 1_555
C8 N3 1_555 1_555
C9 C6 1_555 1_555
C10 N4 1_555 1_555
C11 C10 1_555 1_555
H14 C11 1_555 1_555
H15 C11 1_555 1_555
H16 C11 1_555 1_555
C12 N5 1_555 1_555
N1F Mn1 1_555 1_555
N2F N1F 1_555 1_555
H1F N2F 1_555 1_555
N3F N4F 1_555 1_555
N4F H2F 1_555 1_555
C1F H3F 1_555 1_555
H4F C1F 1_555 1_555
H5F C1F 1_555 1_555
C2F N1F 1_555 1_555
C3F C2F 1_555 1_555
C4F N2F 1_555 1_555
C5F C4F 1_555 1_555
H6F C5F 1_555 1_555
H7F C5F 1_555 1_555
H8F C5F 1_555 1_555
C6F C3F 1_555 1_555
H9F C6F 1_555 1_555
H10F C6F 1_555 1_555
C7F H11F 1_555 1_555
H12F C7F 1_555 1_555
H13F C7F 1_555 1_555
C8F N3F 1_555 1_555
C9F C6F 1_555 1_555
C10F N4F 1_555 1_555
C11F C10F 1_555 1_555
H14F C11F 1_555 1_555
H15F C11F 1_555 1_555
H16F C11F 1_555 1_555
N5F Mn1 1_555 1_555
S1F C12F 1_555 1_555
C12F N5F 1_555 1_555
N3_2 Mn1 1_555 1_555
N3F_2 Mn1 1_555 1_555
Mn1_2 N3 1_555 1_555
C1 C2 1_555 1_555
C3 C4 1_555 1_555
C7 C8 1_555 1_555
C8 C9 1_555 1_555
C9 C10 1_555 1_555
N3F Mn1_2 1_555 1_555
C1F C2F 1_555 1_555
C3F C4F 1_555 1_555
C7F C8F 1_555 1_555
C8F C9F 1_555 1_555
C9F C10F 1_555 1_555

#END
