
#######################################################################
#
#                 Cambridge Crystallographic Data Centre
#                                CCDC 
#
#######################################################################
#
# If this CIF has been generated from an entry in the Cambridge 
# Structural Database, then it will include bibliographic, chemical, 
# crystal, experimental, refinement or atomic coordinate data resulting 
# from the CCDC's data processing and validation procedures.
#
#######################################################################

data_AMIWUP
_symmetry_cell_setting           monoclinic
_symmetry_space_group_name_H-M   'P 21/n'
_symmetry_Int_Tables_number      14
_space_group_name_Hall           '-P 2yn'
loop_
_symmetry_equiv_pos_site_id
_symmetry_equiv_pos_as_xyz
1 x,y,z
2 1/2-x,1/2+y,1/2-z
3 -x,-y,-z
4 1/2+x,1/2-y,1/2+z
_cell_length_a                   10.833(4)
_cell_length_b                   14.298(5)
_cell_length_c                   13.245(4)
_cell_angle_alpha                90
_cell_angle_beta                 90.193(7)
_cell_angle_gamma                90
_cell_volume                     2051.51
loop_
_atom_site_label
_atom_site_type_symbol
_atom_site_fract_x
_atom_site_fract_y
_atom_site_fract_z
Tb1 Tb 0.75560(2) 0.217973(18) 0.28561(2)
Tb2 Tb 0.50552(2) 0.361642(18) 0.13232(2)
S1 S 0.2680(4) 0.2582(4) 0.2829(5)
O1 O 0.7075(4) 0.4061(3) 0.0944(3)
O2 O 0.8570(4) 0.3247(3) 0.1705(4)
O3 O 0.7131(4) 0.6087(3) 0.0852(3)
O4 O 0.6800(4) 0.5593(3) -0.0722(3)
O5 O 0.8909(5) 0.2880(3) 0.3884(4)
O6 O 0.8917(4) 0.2601(3) 0.5550(4)
O7 O 1.1075(5) 0.4022(4) 0.7391(4)
O8 O 1.1193(4) 0.2851(3) 0.6333(4)
O9 O 1.0080(4) 0.0036(3) 0.2820(3)
O10 O 0.8981(5) 0.1210(4) 0.2212(4)
O11 O 0.8666(4) -0.1395(3) 0.2125(3)
O12 O 0.8873(5) -0.2296(3) 0.0797(4)
O13 O 0.3860(5) 0.3069(4) 0.2604(4)
O14 O 0.5363(4) 0.3843(4) -0.0431(3)
C1 C 0.8192(5) 0.3892(4) 0.1143(4)
C2 C 0.7462(5) 0.5664(4) 0.0045(4)
C3 C 0.9117(5) 0.4471(3) 0.0550(3)
C4 C 1.0350(5) 0.4195(4) 0.0496(3)
H1 H 1.0593 0.3653 0.0829
C5 C 0.8766(5) 0.5296(3) 0.0040(3)
C6 C 0.9119(5) 0.3101(4) 0.4789(5)
C7 C 1.0862(6) 0.3702(4) 0.6540(5)
C8 C 0.9590(5) 0.4079(4) 0.4944(4)
C9 C 1.0367(4) 0.4333(4) 0.5731(4)
C10 C 0.9262(6) 0.4734(4) 0.4210(5)
H2 H 0.8781 0.4543 0.3665
C11 C 0.9579(5) 0.0463(4) 0.2106(5)
C12 C 0.9065(5) -0.1531(4) 0.1212(5)
C13 C 0.9769(3) 0.0167(4) 0.1027(4)
C14 C 0.9543(4) -0.0721(4) 0.0625(5)
C15 C 1.0217(5) 0.0873(4) 0.0395(5)
H3 H 1.0360 0.1463 0.0665
C16 C 0.295(3) 0.1370(16) 0.286(2)
C17 C 0.241(2) 0.2829(16) 0.4086(18)
Tb1B Tb 1.24440(2) 0.782027(18) -0.28561(2)
Tb1A Tb 0.74440(2) 0.717973(18) 0.21439(2)
Tb1C Tb 1.25560(2) 0.282027(18) 0.78561(2)
Tb1A_2 Tb 0.74440(2) -0.282027(18) 0.21439(2)
Tb1C_2 Tb 1.25560(2) 0.282027(18) -0.21439(2)
Tb1B_2 Tb 1.24440(2) 0.782027(18) 0.71439(2)
Tb1B_3 Tb 1.24440(2) -0.217973(18) -0.28561(2)
Tb2B Tb 1.49448(2) 0.638358(18) -0.13232(2)
Tb2B_2 Tb 0.49448(2) 0.638358(18) -0.13232(2)
Tb2C Tb 1.00552(2) 0.138358(18) 0.63232(2)
Tb2A Tb 0.99448(2) -0.138358(18) 0.36768(2)
Tb2_2 Tb 1.50552(2) 0.361642(18) 0.13232(2)
Tb2A_2 Tb 0.99448(2) 0.861642(18) 0.36768(2)
Tb2C_2 Tb 1.00552(2) 0.138358(18) -0.36768(2)
S1B S 1.7320(4) 0.7418(4) -0.2829(5)
O1B O 1.2925(4) 0.5939(3) -0.0944(3)
O2B O 1.1430(4) 0.6753(3) -0.1705(4)
O3B O 1.2869(4) 0.3913(3) -0.0852(3)
O3A O 0.7869(4) 0.1087(3) 0.4148(3)
O3C O 1.2131(4) 0.8913(3) -0.4148(3)
O4B O 1.3200(4) 0.4407(3) 0.0722(3)
O4B_2 O 0.3200(4) 0.4407(3) 0.0722(3)
O4_2 O 1.6800(4) 0.5593(3) -0.0722(3)
O5B O 1.1091(5) 0.7120(3) 0.6116(4)
O5B_2 O 1.1091(5) 0.7120(3) -0.3884(4)
O6B O 1.1083(4) 0.7399(3) 0.4450(4)
O6C O 0.3917(4) 0.2399(3) 0.0550(4)
O6A O 1.6083(4) 0.7601(3) -0.0550(4)
O7B O 0.8925(5) 0.5978(4) 0.2609(4)
O7C O 0.6075(5) 0.0978(4) 0.2391(4)
O7A O 1.3925(5) 0.9022(4) -0.2391(4)
O8B O 0.8807(4) 0.7149(3) 0.3667(4)
O8C O 0.6193(4) 0.2149(3) 0.1333(4)
O8A O 1.3807(4) 0.7851(3) -0.1333(4)
O9B O 0.9920(4) -0.0036(3) -0.2820(3)
O9A O 0.4920(4) 0.5036(3) 0.2180(3)
O9C O 1.5080(4) 0.4964(3) -0.2180(3)
O10B O 1.1019(5) -0.1210(4) -0.2212(4)
O10B_2 O 1.1019(5) 0.8790(4) -0.2212(4)
O11B O 1.1334(4) 0.1395(3) -0.2125(3)
O11A O 0.6334(4) 0.3605(3) 0.2875(3)
O11C O 1.3666(4) 0.6395(3) -0.2875(3)
O12B O 1.1127(5) 0.2296(3) -0.0797(4)
O12A O 0.6127(5) 0.2704(3) 0.4203(4)
O12C O 1.3873(5) 0.7296(3) -0.4203(4)
O13B O 1.6140(5) 0.6931(4) -0.2604(4)
O14B O 1.4637(4) 0.6157(4) 0.0431(3)
C1B C 1.1808(5) 0.6108(4) -0.1143(4)
C2B C 1.2538(5) 0.4336(4) -0.0045(4)
C3B C 1.0883(5) 0.5529(3) -0.0550(3)
C4B C 0.9650(5) 0.5805(4) -0.0496(3)
H1B H 0.9407 0.6347 -0.0829
C5B C 1.1234(5) 0.4704(3) -0.0040(3)
C6B C 1.0881(5) 0.6899(4) 0.5211(5)
C7B C 0.9138(6) 0.6298(4) 0.3460(5)
C8B C 1.0410(5) 0.5921(4) 0.5056(4)
C9B C 0.9633(4) 0.5667(4) 0.4269(4)
C10B C 1.0738(6) 0.5266(4) 0.5790(5)
H2B H 1.1219 0.5457 0.6335
C11B C 1.0421(5) -0.0463(4) -0.2106(5)
C12B C 1.0935(5) 0.1531(4) -0.1212(5)
C13B C 1.0231(3) -0.0167(4) -0.1027(4)
C14B C 1.0457(4) 0.0721(4) -0.0625(5)
C15B C 0.9783(5) -0.0873(4) -0.0395(5)
H3B H 0.9640 -0.1463 -0.0665
C16B C 1.705(3) 0.8630(16) -0.286(2)
C17B C 1.759(2) 0.7171(16) -0.4086(18)
loop_
_geom_bond_atom_site_label_1
_geom_bond_atom_site_label_2
_geom_bond_site_symmetry_1
_geom_bond_site_symmetry_2
Tb1 O2 1_555 1_555
Tb2 O1 1_555 1_555
S1 O13 1_555 1_555
O1 C1 1_555 1_555
O2 C1 1_555 1_555
O3 C2 1_555 1_555
O4 C2 1_555 1_555
O5 Tb1 1_555 1_555
O6 C6 1_555 1_555
O7 C7 1_555 1_555
O8 C7 1_555 1_555
O9 C11 1_555 1_555
O10 Tb1 1_555 1_555
O11 C12 1_555 1_555
O12 C12 1_555 1_555
O13 Tb2 1_555 1_555
O14 Tb2 1_555 1_555
C1 C3 1_555 1_555
C2 C5 1_555 1_555
C3 C4 1_555 1_555
C4 H1 1_555 1_555
C5 C3 1_555 1_555
C6 O5 1_555 1_555
C7 C9 1_555 1_555
C8 C6 1_555 1_555
C9 C8 1_555 1_555
C10 C8 1_555 1_555
H2 C10 1_555 1_555
C11 O10 1_555 1_555
C12 C14 1_555 1_555
C13 C11 1_555 1_555
C14 C13 1_555 1_555
C15 C13 1_555 1_555
H3 C15 1_555 1_555
C16 S1 1_555 1_555
C17 S1 1_555 1_555
Tb1B O2B 1_555 1_555
Tb1A O3 1_555 1_555
Tb1C O7 1_555 1_555
Tb1A_2 O11 1_555 1_555
Tb1C_2 O3B 1_555 1_555
Tb1B_2 O5B 1_555 1_555
Tb1B_3 O10B 1_555 1_555
Tb2B O1B 1_555 1_555
Tb2B_2 O4 1_555 1_555
Tb2C O6 1_555 1_555
Tb2A O9 1_555 1_555
Tb2_2 O4B 1_555 1_555
Tb2A_2 O6B 1_555 1_555
Tb2C_2 O9B 1_555 1_555
S1B O13B 1_555 1_555
O1B C1B 1_555 1_555
O2B C1B 1_555 1_555
O3B C2B 1_555 1_555
O3A Tb1 1_555 1_555
O3C Tb1B 1_555 1_555
O4B C2B 1_555 1_555
O4B_2 Tb2 1_555 1_555
O4_2 Tb2B 1_555 1_555
O5B C6B 1_555 1_555
O5B_2 Tb1B 1_555 1_555
O6B C6B 1_555 1_555
O6C Tb2 1_555 1_555
O6A Tb2B 1_555 1_555
O7B Tb1A 1_555 1_555
O7C Tb1 1_555 1_555
O7A Tb1B 1_555 1_555
O8B Tb1A 1_555 1_555
O8C Tb1 1_555 1_555
O8A Tb1B 1_555 1_555
O9B C11B 1_555 1_555
O9A Tb2 1_555 1_555
O9C Tb2B 1_555 1_555
O10B C11B 1_555 1_555
O10B_2 Tb1B 1_555 1_555
O11B Tb1C_2 1_555 1_555
O11A Tb1 1_555 1_555
O11C Tb1B 1_555 1_555
O12B Tb1C_2 1_555 1_555
O12A Tb1 1_555 1_555
O12C Tb1B 1_555 1_555
O13B Tb2B 1_555 1_555
O14B Tb2B 1_555 1_555
C1B C3B 1_555 1_555
C2B C5B 1_555 1_555
C3B C4B 1_555 1_555
C4B C5 1_555 1_555
H1B C4B 1_555 1_555
C5B C4 1_555 1_555
C6B C8B 1_555 1_555
C7B O7B 1_555 1_555
C8B C9B 1_555 1_555
C9B C10 1_555 1_555
C10B C9 1_555 1_555
H2B C10B 1_555 1_555
C11B C13B 1_555 1_555
C12B O11B 1_555 1_555
C13B C14B 1_555 1_555
C14B C15 1_555 1_555
C15B C14 1_555 1_555
H3B C15B 1_555 1_555
C16B S1B 1_555 1_555
C17B S1B 1_555 1_555
Tb2 O8C 1_555 1_555
Tb2 O11A 1_555 1_555
O8 Tb1C 1_555 1_555
O8 Tb2C 1_555 1_555
O11 Tb2A 1_555 1_555
O12 Tb1A_2 1_555 1_555
Tb2B O8A 1_555 1_555
Tb2B O11C 1_555 1_555
Tb2A_2 O8B 1_555 1_555
Tb2C_2 O11B 1_555 1_555
O8B C7B 1_555 1_555
O12B C12B 1_555 1_555
C3B C5B 1_555 1_555
C7B C9B 1_555 1_555
C8B C10B 1_555 1_555
C12B C14B 1_555 1_555
C13B C15B 1_555 1_555

#END
