
#######################################################################
#
#                 Cambridge Crystallographic Data Centre
#                                CCDC 
#
#######################################################################
#
# If this CIF has been generated from an entry in the Cambridge 
# Structural Database, then it will include bibliographic, chemical, 
# crystal, experimental, refinement or atomic coordinate data resulting 
# from the CCDC's data processing and validation procedures.
#
#######################################################################

data_AMIWOJ
_symmetry_cell_setting           monoclinic
_symmetry_space_group_name_H-M   'P 21/n'
_symmetry_Int_Tables_number      14
_space_group_name_Hall           '-P 2yn'
loop_
_symmetry_equiv_pos_site_id
_symmetry_equiv_pos_as_xyz
1 x,y,z
2 1/2-x,1/2+y,1/2-z
3 -x,-y,-z
4 1/2+x,1/2-y,1/2+z
_cell_length_a                   10.853(2)
_cell_length_b                   14.337(3)
_cell_length_c                   13.291(2)
_cell_angle_alpha                90
_cell_angle_beta                 90.032(3)
_cell_angle_gamma                90
_cell_volume                     2068.07
loop_
_atom_site_label
_atom_site_type_symbol
_atom_site_fract_x
_atom_site_fract_y
_atom_site_fract_z
Gd1 Gd 0.24443(2) 0.217803(18) 0.214706(19)
Gd2 Gd -0.00454(2) 0.138310(18) -0.132250(19)
S1 S 0.2261(5) 0.2460(4) -0.2907(5)
O1 O 0.1809(4) 0.0586(3) -0.0721(3)
O2 O 0.2134(4) 0.1080(3) 0.0846(3)
O3 O 0.2074(4) -0.0940(3) 0.0933(3)
O4 O 0.3572(4) -0.1753(3) 0.1695(3)
O5 O 0.1086(4) 0.2607(3) -0.0550(3)
O6 O 0.1091(5) 0.2893(3) 0.1112(4)
O7 O -0.1068(6) 0.4027(4) -0.2385(4)
O8 O -0.1177(4) 0.2857(3) -0.1330(3)
O9 O 0.0999(5) 0.1208(4) 0.2791(4)
O10 O -0.0102(4) 0.0038(3) 0.2188(3)
O11 O 0.1125(5) -0.2297(3) 0.4192(4)
O12 O 0.1326(4) -0.1389(3) 0.2877(3)
O13 O -0.0360(4) 0.1153(4) 0.0437(3)
O14 O 0.1151(5) 0.1950(4) -0.2610(4)
C1 C 0.2461(5) 0.0666(4) 0.0065(4)
C2 C 0.3771(5) 0.0284(4) 0.0028(4)
C3 C 0.4126(5) -0.0523(4) 0.0553(4)
C4 C 0.3188(5) -0.1114(4) 0.1119(4)
C5 C 0.4641(5) 0.0793(4) -0.0520(4)
H1 H 0.4392 0.1323 -0.0869
C6 C 0.0896(6) 0.3112(4) 0.0207(5)
C7 C 0.0392(6) 0.4073(4) 0.0072(5)
C8 C -0.0355(6) 0.4339(4) -0.0729(5)
C9 C -0.0864(6) 0.3697(4) -0.1526(5)
C10 C 0.0738(6) 0.4734(4) 0.0791(5)
H2 H 0.1237 0.4552 0.1326
C11 C 0.0401(6) 0.0468(4) 0.2893(4)
C12 C 0.0220(6) 0.0172(4) 0.3968(4)
C13 C 0.0426(6) -0.0723(4) 0.4370(4)
C14 C 0.0967(6) -0.1527(4) 0.3775(4)
C15 C -0.0190(6) 0.0877(4) 0.4616(4)
H3 H -0.0309 0.1472 0.4357
C16 C 0.3317(12) 0.2600(9) -0.2422(10)
C17 C 0.2455(11) 0.2228(8) -0.4176(9)
Gd1B Gd 0.75557(2) -0.217803(18) -0.214706(19)
Gd1A Gd 0.25557(2) -0.282197(18) 0.285294(19)
Gd1C Gd -0.25557(2) 0.282197(18) -0.285294(19)
Gd1C_2 Gd 0.74443(2) 0.282197(18) -0.285294(19)
Gd1B_2 Gd -0.24443(2) 0.782197(18) -0.214706(19)
Gd1A_2 Gd 0.25557(2) 0.717803(18) 0.285294(19)
Gd1B_3 Gd -0.24443(2) -0.217803(18) 0.785294(19)
Gd1C_3 Gd -0.25557(2) 0.282197(18) 0.714706(19)
Gd2B Gd 1.00454(2) -0.138310(18) 0.132250(19)
Gd2B_2 Gd 0.00454(2) -0.138310(18) 0.132250(19)
Gd2_2 Gd 0.99546(2) 0.138310(18) -0.132250(19)
Gd2B_3 Gd 0.00454(2) 0.861690(18) 0.132250(19)
Gd2_3 Gd -0.00454(2) 0.138310(18) 0.867750(19)
S1B S 0.7739(5) -0.2460(4) 0.2907(5)
O1B O 0.8191(4) -0.0586(3) 0.0721(3)
O2B O 0.7866(4) -0.1080(3) -0.0846(3)
O3B O 0.7926(4) 0.0940(3) -0.0933(3)
O3B_2 O -0.2074(4) 0.0940(3) -0.0933(3)
O3_2 O 1.2074(4) -0.0940(3) 0.0933(3)
O4B O 0.6428(4) 0.1753(3) -0.1695(3)
O4A O 0.1428(4) 0.3247(3) 0.3305(3)
O4C O 0.8572(4) -0.3247(3) -0.3305(3)
O5B O -0.1086(4) 0.7393(3) 0.0550(3)
O5B_2 O 0.8914(4) -0.2607(3) 0.0550(3)
O6B O -0.1091(5) 0.7107(3) -0.1112(4)
O6B_2 O 0.8909(5) -0.2893(3) -0.1112(4)
O7B O 0.1068(6) 0.5973(4) 0.2385(4)
O7C O 0.3932(6) 0.0973(4) 0.2615(4)
O7A O 0.6068(6) -0.0973(4) -0.2615(4)
O8B O 0.1177(4) 0.7143(3) 0.1330(3)
O8C O 0.3823(4) 0.2143(3) 0.3670(3)
O8A O 0.6177(4) -0.2143(3) -0.3670(3)
O8B_2 O 1.1177(4) -0.2857(3) 0.1330(3)
O9B O -0.0999(5) -0.1208(4) 0.7209(4)
O9B_2 O 0.9001(5) -0.1208(4) -0.2791(4)
O10B O 0.0102(4) -0.0038(3) 0.7812(3)
O10B_2 O 0.0102(4) -0.0038(3) -0.2188(3)
O10_2 O 0.9898(4) 0.0038(3) 0.2188(3)
O11B O -0.1125(5) 0.2297(3) 0.5808(4)
O11A O 0.3875(5) 0.2703(3) 0.0808(4)
O11C O 0.6125(5) -0.2703(3) -0.0808(4)
O12B O -0.1326(4) 0.1389(3) 0.7123(3)
O12A O 0.3674(4) 0.3611(3) 0.2123(3)
O12B_2 O -0.1326(4) 0.1389(3) -0.2877(3)
O12C O 0.6326(4) -0.3611(3) -0.2123(3)
O12_2 O 1.1326(4) -0.1389(3) 0.2877(3)
O13B O 1.0360(4) -0.1153(4) -0.0437(3)
O14B O 0.8849(5) -0.1950(4) 0.2610(4)
C1B C 0.7539(5) -0.0666(4) -0.0065(4)
C2B C 0.6229(5) -0.0284(4) -0.0028(4)
C3B C 0.5874(5) 0.0523(4) -0.0553(4)
C4B C 0.6812(5) 0.1114(4) -0.1119(4)
C5B C 0.5359(5) -0.0793(4) 0.0520(4)
H1B H 0.5608 -0.1323 0.0869
C6B C -0.0896(6) 0.6888(4) -0.0207(5)
C7B C -0.0392(6) 0.5927(4) -0.0072(5)
C8B C 0.0355(6) 0.5661(4) 0.0729(5)
C9B C 0.0864(6) 0.6303(4) 0.1526(5)
C10B C -0.0738(6) 0.5266(4) -0.0791(5)
H2B H -0.1237 0.5448 -0.1326
C11B C -0.0401(6) -0.0468(4) 0.7107(4)
C12B C -0.0220(6) -0.0172(4) 0.6032(4)
C13B C -0.0426(6) 0.0723(4) 0.5630(4)
C14B C -0.0967(6) 0.1527(4) 0.6225(4)
C15B C 0.0190(6) -0.0877(4) 0.5384(4)
H3B H 0.0309 -0.1472 0.5643
C16B C 0.6683(12) -0.2600(9) 0.2422(10)
C17B C 0.7545(11) -0.2228(8) 0.4176(9)
loop_
_geom_bond_atom_site_label_1
_geom_bond_atom_site_label_2
_geom_bond_site_symmetry_1
_geom_bond_site_symmetry_2
Gd1 O2 1_555 1_555
Gd2 O1 1_555 1_555
S1 O14 1_555 1_555
O1 C1 1_555 1_555
O2 C1 1_555 1_555
O3 C4 1_555 1_555
O4 C4 1_555 1_555
O5 Gd2 1_555 1_555
O6 Gd1 1_555 1_555
O7 C9 1_555 1_555
O8 Gd2 1_555 1_555
O9 Gd1 1_555 1_555
O10 C11 1_555 1_555
O11 C14 1_555 1_555
O12 C14 1_555 1_555
O13 Gd2 1_555 1_555
O14 Gd2 1_555 1_555
C1 C2 1_555 1_555
C2 C3 1_555 1_555
C3 C4 1_555 1_555
C5 C2 1_555 1_555
H1 C5 1_555 1_555
C6 O5 1_555 1_555
C7 C6 1_555 1_555
C8 C7 1_555 1_555
C9 O8 1_555 1_555
C10 C7 1_555 1_555
H2 C10 1_555 1_555
C11 O9 1_555 1_555
C12 C11 1_555 1_555
C13 C12 1_555 1_555
C14 C13 1_555 1_555
C15 C12 1_555 1_555
H3 C15 1_555 1_555
C16 S1 1_555 1_555
C17 S1 1_555 1_555
Gd1B O2B 1_555 1_555
Gd1A O4 1_555 1_555
Gd1C O7 1_555 1_555
Gd1C_2 O4B 1_555 1_555
Gd1B_2 O6B 1_555 1_555
Gd1A_2 O7B 1_555 1_555
Gd1B_3 O9B 1_555 1_555
Gd1C_3 O11B 1_555 1_555
Gd2B O1B 1_555 1_555
Gd2B_2 O3 1_555 1_555
Gd2_2 O3B 1_555 1_555
Gd2B_3 O5B 1_555 1_555
Gd2_3 O10B 1_555 1_555
S1B O14B 1_555 1_555
O1B C1B 1_555 1_555
O2B C1B 1_555 1_555
O3B C4B 1_555 1_555
O3B_2 Gd2 1_555 1_555
O3_2 Gd2B 1_555 1_555
O4B C4B 1_555 1_555
O4A Gd1 1_555 1_555
O4C Gd1B 1_555 1_555
O5B C6B 1_555 1_555
O5B_2 Gd2B 1_555 1_555
O6B C6B 1_555 1_555
O6B_2 Gd1B 1_555 1_555
O7B C9B 1_555 1_555
O7C Gd1 1_555 1_555
O7A Gd1B 1_555 1_555
O8B Gd1A_2 1_555 1_555
O8C Gd1 1_555 1_555
O8A Gd1B 1_555 1_555
O8B_2 Gd2B 1_555 1_555
O9B C11B 1_555 1_555
O9B_2 Gd1B 1_555 1_555
O10B C11B 1_555 1_555
O10B_2 Gd2 1_555 1_555
O10_2 Gd2B 1_555 1_555
O11B C14B 1_555 1_555
O11A Gd1 1_555 1_555
O11C Gd1B 1_555 1_555
O12B Gd1C_3 1_555 1_555
O12A Gd1 1_555 1_555
O12B_2 Gd2 1_555 1_555
O12C Gd1B 1_555 1_555
O12_2 Gd2B 1_555 1_555
O13B Gd2B 1_555 1_555
O14B Gd2B 1_555 1_555
C1B C2B 1_555 1_555
C2B C3B 1_555 1_555
C3B C5 1_555 1_555
C4B C3B 1_555 1_555
C5B C3 1_555 1_555
H1B C5B 1_555 1_555
C6B C7B 1_555 1_555
C7B C8B 1_555 1_555
C8B C10 1_555 1_555
C9B O8B 1_555 1_555
C10B C8 1_555 1_555
H2B C10B 1_555 1_555
C11B C12B 1_555 1_555
C12B C13B 1_555 1_555
C13B C15 1_555 1_555
C14B O12B 1_555 1_555
C15B C13 1_555 1_555
H3B C15B 1_555 1_555
C16B S1B 1_555 1_555
C17B S1B 1_555 1_555
O6 C6 1_555 1_555
O8 Gd1C 1_555 1_555
O10 Gd2B_2 1_555 1_555
O11 Gd1A 1_555 1_555
O12 Gd1A 1_555 1_555
O12 Gd2B_2 1_555 1_555
C8 C9 1_555 1_555
Gd1C O12B_2 1_555 1_555
Gd2B_3 O8B 1_555 1_555
Gd2_3 O12B 1_555 1_555
C2B C5B 1_555 1_555
C7B C10B 1_555 1_555
C8B C9B 1_555 1_555
C12B C15B 1_555 1_555
C13B C14B 1_555 1_555

#END
