
#######################################################################
#
#                 Cambridge Crystallographic Data Centre
#                                CCDC 
#
#######################################################################
#
# If this CIF has been generated from an entry in the Cambridge 
# Structural Database, then it will include bibliographic, chemical, 
# crystal, experimental, refinement or atomic coordinate data resulting 
# from the CCDC's data processing and validation procedures.
#
#######################################################################

data_AMIWID
_symmetry_cell_setting           monoclinic
_symmetry_space_group_name_H-M   'P 21/n'
_symmetry_Int_Tables_number      14
_space_group_name_Hall           '-P 2yn'
loop_
_symmetry_equiv_pos_site_id
_symmetry_equiv_pos_as_xyz
1 x,y,z
2 1/2-x,1/2+y,1/2-z
3 -x,-y,-z
4 1/2+x,1/2-y,1/2+z
_cell_length_a                   10.860(10)
_cell_length_b                   14.312(13)
_cell_length_c                   13.232(12)
_cell_angle_alpha                90
_cell_angle_beta                 90.521(16)
_cell_angle_gamma                90
_cell_volume                     2056.54
loop_
_atom_site_label
_atom_site_type_symbol
_atom_site_fract_x
_atom_site_fract_y
_atom_site_fract_z
Eu1 Eu 0.74415(3) 0.21777(2) 0.28513(2)
Eu2 Eu 0.99587(3) 0.36158(3) 0.13209(3)
S1 S 1.2225(7) 0.2509(5) 0.2936(6)
C1 C 0.9270(8) -0.0259(6) 0.0788(6)
H1 H 0.8780 -0.0439 0.1327
C2 C 0.9646(7) 0.0664(5) 0.0718(6)
C3 C 0.9608(7) -0.0930(5) 0.0068(6)
C4 C 0.9137(7) 0.1300(5) 0.1521(6)
C5 C 0.9096(7) -0.1882(6) 0.0202(6)
C6 C 0.8779(6) 0.0284(5) 0.4973(5)
C7 C 0.9639(7) 0.0791(5) 0.5504(6)
H2 H 0.9392 0.1330 0.5839
C8 C 0.9127(6) -0.0521(5) 0.4444(5)
C9 C 0.7464(6) 0.0668(5) 0.4926(5)
C10 C 0.8193(6) -0.1113(5) 0.3886(6)
C11 C 0.9799(7) 0.4123(5) 0.5379(6)
H3 H 0.9673 0.3528 0.5642
C12 C 1.0208(7) 0.4822(5) 0.6021(5)
C13 C 0.9575(7) 0.4269(5) 0.4378(6)
C14 C 0.9037(7) 0.3474(5) 0.3789(6)
C15 C 1.0400(6) 0.4532(5) 0.7097(5)
C16 C 1.301(4) 0.276(3) 0.247(3)
C17 C 1.252(3) 0.2728(19) 0.419(2)
O1 O 0.8938(7) 0.0975(5) 0.2380(4)
O2 O 0.9638(5) 0.3848(5) -0.0431(4)
O3 O 0.8811(5) 0.2141(3) 0.1324(4)
O4 O 0.8923(6) -0.2113(4) 0.1109(4)
O5 O 0.8920(5) -0.2398(4) -0.0552(4)
O6 O 0.6822(5) 0.0589(4) 0.5723(4)
O7 O 0.7143(4) 0.1081(4) 0.4160(4)
O8 O 0.8578(5) -0.1744(4) 0.3311(4)
O9 O 0.7074(4) -0.0946(4) 0.4071(4)
O10 O 0.8886(6) 0.2707(4) 0.4195(4)
O11 O 0.8683(5) 0.3614(4) 0.2880(4)
O12 O 1.0980(6) 0.3805(5) 0.7211(5)
O13 O 0.9879(5) 0.4974(4) 0.7801(4)
O14 O 1.1165(6) 0.3064(5) 0.2614(5)
Eu1B Eu 1.25585(3) -0.21777(2) -0.28513(2)
Eu1A Eu 0.75585(3) -0.28223(2) 0.21487(2)
Eu1C Eu 1.24415(3) 0.28223(2) 0.78513(2)
Eu1C_2 Eu 1.24415(3) 0.28223(2) -0.21487(2)
Eu1B_2 Eu 1.25585(3) -0.21777(2) 0.71487(2)
Eu1A_2 Eu 0.75585(3) 0.71777(2) 0.21487(2)
Eu1B_3 Eu 1.25585(3) 0.78223(2) 0.71487(2)
Eu2B Eu 1.00413(3) -0.36158(3) -0.13209(3)
Eu2C Eu 0.49587(3) 0.13842(3) 0.63209(3)
Eu2A Eu 0.50413(3) -0.13842(3) 0.36791(3)
Eu2B_2 Eu 1.00413(3) 0.63842(3) 0.86791(3)
Eu2A_2 Eu 1.50413(3) -0.13842(3) 0.36791(3)
Eu2C_2 Eu 1.49587(3) 0.13842(3) 0.63209(3)
S1B S 0.7775(7) -0.2509(5) -0.2936(6)
C1B C 1.0730(8) 0.0259(6) -0.0788(6)
H1B H 1.1220 0.0439 -0.1327
C2B C 1.0354(7) -0.0664(5) -0.0718(6)
C3B C 1.0392(7) 0.0930(5) -0.0068(6)
C4B C 1.0863(7) -0.1300(5) -0.1521(6)
C5B C 1.0904(7) 0.1882(6) -0.0202(6)
C6B C 1.1221(6) -0.0284(5) 0.5027(5)
C7B C 1.0361(7) -0.0791(5) 0.4496(6)
H2B H 1.0608 -0.1330 0.4161
C8B C 1.0873(6) 0.0521(5) 0.5556(5)
C9B C 1.2536(6) -0.0668(5) 0.5074(5)
C10B C 1.1807(6) 0.1113(5) 0.6114(6)
C11B C 1.0201(7) 0.5877(5) 0.4621(6)
H3B H 1.0327 0.6472 0.4358
C12B C 0.9792(7) 0.5178(5) 0.3979(5)
C13B C 1.0425(7) 0.5731(5) 0.5622(6)
C14B C 1.0963(7) 0.6526(5) 0.6211(6)
C15B C 0.9600(6) 0.5468(5) 0.2903(5)
C16B C 0.699(4) -0.276(3) -0.247(3)
C17B C 0.748(3) -0.2728(19) -0.419(2)
O1B O 1.1062(7) -0.0975(5) -0.2380(4)
O2B O 1.0362(5) -0.3848(5) 0.0431(4)
O3B O 1.1189(5) -0.2141(3) -0.1324(4)
O4B O 1.1077(6) 0.2113(4) -0.1109(4)
O4A O 0.6077(6) 0.2887(4) 0.3891(4)
O4C O 1.3923(6) -0.2887(4) -0.3891(4)
O5B O 1.1080(5) 0.2398(4) 0.0552(4)
O6B O 1.3178(5) -0.0589(4) 0.4277(4)
O6C O 1.1822(5) 0.4411(4) 0.0723(4)
O6A O 0.8178(5) -0.4411(4) -0.0723(4)
O7B O 1.2857(4) -0.1081(4) 0.5840(4)
O7B_2 O 1.2857(4) -0.1081(4) -0.4160(4)
O8B O 1.1422(5) 0.1744(4) 0.6689(4)
O8A O 0.6422(5) 0.3256(4) 0.1689(4)
O8C O 1.3578(5) -0.3256(4) -0.1689(4)
O9B O 1.2926(4) 0.0946(4) 0.5929(4)
O9A O 0.7926(4) 0.4054(4) 0.0929(4)
O9C O 1.2074(4) -0.4054(4) -0.0929(4)
O10B O 1.1114(6) 0.7293(4) 0.5805(4)
O10B_2 O 1.1114(6) -0.2707(4) -0.4195(4)
O11B O 1.1317(5) 0.6386(4) 0.7120(4)
O11B_2 O 1.1317(5) -0.3614(4) -0.2880(4)
O12B O 0.9020(6) 0.6195(5) 0.2789(5)
O12C O 0.5980(6) 0.1195(5) 0.2211(5)
O12A O 1.4020(6) -0.1195(5) -0.2211(5)
O13B O 1.0121(5) 0.5026(4) 0.2199(4)
O13_2 O 0.9879(5) -0.5026(4) -0.2199(4)
O14B O 0.8835(6) -0.3064(5) -0.2614(5)
loop_
_geom_bond_atom_site_label_1
_geom_bond_atom_site_label_2
_geom_bond_site_symmetry_1
_geom_bond_site_symmetry_2
Eu1 O1 1_555 1_555
Eu2 O2 1_555 1_555
S1 C16 1_555 1_555
C1 H1 1_555 1_555
C2 C1 1_555 1_555
C3 C1 1_555 1_555
C4 C2 1_555 1_555
C5 C3 1_555 1_555
C6 C7 1_555 1_555
C7 H2 1_555 1_555
C8 C6 1_555 1_555
C9 C6 1_555 1_555
C10 C8 1_555 1_555
C11 H3 1_555 1_555
C12 C11 1_555 1_555
C13 C11 1_555 1_555
C14 C13 1_555 1_555
C15 C12 1_555 1_555
C17 S1 1_555 1_555
O1 C4 1_555 1_555
O3 Eu1 1_555 1_555
O4 C5 1_555 1_555
O5 C5 1_555 1_555
O6 C9 1_555 1_555
O7 Eu1 1_555 1_555
O8 C10 1_555 1_555
O9 C10 1_555 1_555
O10 Eu1 1_555 1_555
O11 Eu1 1_555 1_555
O12 C15 1_555 1_555
O13 C15 1_555 1_555
O14 Eu2 1_555 1_555
Eu1B O1B 1_555 1_555
Eu1A O4 1_555 1_555
Eu1C O12 1_555 1_555
Eu1C_2 O4B 1_555 1_555
Eu1B_2 O7B 1_555 1_555
Eu1A_2 O12B 1_555 1_555
Eu1B_3 O10B 1_555 1_555
Eu2B O5 1_555 1_555
Eu2C O6 1_555 1_555
Eu2A O9 1_555 1_555
Eu2B_2 O13 1_555 1_555
Eu2A_2 O6B 1_555 1_555
Eu2C_2 O9B 1_555 1_555
S1B C16B 1_555 1_555
C1B H1B 1_555 1_555
C2B C3 1_555 1_555
C3B C2 1_555 1_555
C4B C2B 1_555 1_555
C5B C3B 1_555 1_555
C6B C7B 1_555 1_555
C7B C8 1_555 1_555
H2B C7B 1_555 1_555
C8B C7 1_555 1_555
C9B C6B 1_555 1_555
C10B C8B 1_555 1_555
C11B H3B 1_555 1_555
C12B C13 1_555 1_555
C13B C12 1_555 1_555
C14B C13B 1_555 1_555
C15B C12B 1_555 1_555
C17B S1B 1_555 1_555
O1B C4B 1_555 1_555
O2B Eu2B 1_555 1_555
O3B Eu1B 1_555 1_555
O4B C5B 1_555 1_555
O4A Eu1 1_555 1_555
O4C Eu1B 1_555 1_555
O5B Eu2 1_555 1_555
O6B C9B 1_555 1_555
O6C Eu2 1_555 1_555
O6A Eu2B 1_555 1_555
O7B C9B 1_555 1_555
O7B_2 Eu1B 1_555 1_555
O8B Eu1C 1_555 1_555
O8A Eu1 1_555 1_555
O8C Eu1B 1_555 1_555
O9B C10B 1_555 1_555
O9A Eu2 1_555 1_555
O9C Eu2B 1_555 1_555
O10B C14B 1_555 1_555
O10B_2 Eu1B 1_555 1_555
O11B Eu1B_3 1_555 1_555
O11B_2 Eu1B 1_555 1_555
O12B C15B 1_555 1_555
O12C Eu1 1_555 1_555
O12A Eu1B 1_555 1_555
O13B Eu2 1_555 1_555
O13_2 Eu2B 1_555 1_555
O14B Eu2B 1_555 1_555
Eu2 O3 1_555 1_555
Eu2 O11 1_555 1_555
S1 O14 1_555 1_555
C4 O3 1_555 1_555
C9 O7 1_555 1_555
C14 O10 1_555 1_555
C14 O11 1_555 1_555
O8 Eu1A 1_555 1_555
Eu2B O3B 1_555 1_555
Eu2B O11B_2 1_555 1_555
Eu2B_2 O11B 1_555 1_555
S1B O14B 1_555 1_555
C1B C2B 1_555 1_555
C1B C3B 1_555 1_555
C4B O3B 1_555 1_555
C5B O5B 1_555 1_555
C6B C8B 1_555 1_555
C10B O8B 1_555 1_555
C11B C12B 1_555 1_555
C11B C13B 1_555 1_555
C14B O11B 1_555 1_555
C15B O13B 1_555 1_555

#END
