
#######################################################################
#
#                 Cambridge Crystallographic Data Centre
#                                CCDC 
#
#######################################################################
#
# If this CIF has been generated from an entry in the Cambridge 
# Structural Database, then it will include bibliographic, chemical, 
# crystal, experimental, refinement or atomic coordinate data resulting 
# from the CCDC's data processing and validation procedures.
#
#######################################################################

data_AMIXOK
_symmetry_cell_setting           triclinic
_symmetry_space_group_name_H-M   'P -1'
_symmetry_Int_Tables_number      2
_space_group_name_Hall           '-P 1'
loop_
_symmetry_equiv_pos_site_id
_symmetry_equiv_pos_as_xyz
1 x,y,z
2 -x,-y,-z
_cell_length_a                   6.2012(2)
_cell_length_b                   10.1355(3)
_cell_length_c                   10.2175(3)
_cell_angle_alpha                102.333(2)
_cell_angle_beta                 91.432(2)
_cell_angle_gamma                101.589(2)
_cell_volume                     613.034
loop_
_atom_site_label
_atom_site_type_symbol
_atom_site_fract_x
_atom_site_fract_y
_atom_site_fract_z
Nd1 Nd 0.50460(3) 0.482923(16) 0.244534(17)
O1 O 0.8353(4) 0.3931(2) 0.1526(2)
O2 O 1.1159(4) 0.3870(3) 0.2884(3)
O3 O 0.6215(5) -0.3248(3) -0.0403(3)
O4 O 0.7216(4) -0.3333(3) 0.1660(3)
O5 O 0.3904(5) 0.6233(3) 0.4324(3)
O6 O 0.4789(5) 0.7025(3) 0.6498(3)
O7 O 0.8411(5) 0.5894(3) 0.4135(3)
O8 O 0.2340(5) 0.5974(3) 0.1330(3)
H1 H 0.108(5) 0.567(5) 0.154(5)
H2 H 0.849(8) 0.594(5) 0.497(2)
H3 H 0.939(9) 0.557(7) 0.372(7)
H4 H 0.247(7) 0.610(4) 0.056(2)
C1 C 0.9513(6) 0.3269(3) 0.2073(4)
C2 C 0.8923(6) 0.1726(3) 0.1734(4)
C3 C 0.7836(6) 0.1027(4) 0.0507(3)
H5 H 0.7458 0.1522 -0.0101
C4 C 0.7308(5) -0.0391(3) 0.0179(3)
H6 H 0.6643 -0.0852 -0.0665
C5 C 0.7767(6) -0.1144(3) 0.1108(4)
C6 C 0.8855(6) -0.0446(4) 0.2346(3)
H7 H 0.9165 -0.0940 0.2971
C7 C 0.9478(6) 0.0985(4) 0.2648(4)
H8 H 1.0264 0.1448 0.3458
C8 C 0.7032(5) -0.2681(3) 0.0761(3)
C9 C 0.4461(5) 0.7205(3) 0.5344(3)
C10 C 0.4735(6) 0.8659(4) 0.5169(3)
C11 C 0.4052(6) 0.8906(4) 0.3947(4)
H9 H 0.3415 0.8172 0.3244
C12 C 0.4334(6) 1.0250(4) 0.3793(4)
H10 H 0.3889 1.0419 0.2979
Nd1A Nd 0.49540(3) -0.482923(16) -0.244534(17)
Nd1_2 Nd 0.50460(3) -0.517077(16) 0.244534(17)
Nd1_3 Nd 0.50460(3) 1.482923(16) 0.244534(17)
Nd1_4 Nd 1.50460(3) 0.482923(16) 0.244534(17)
Nd1A_2 Nd -0.50460(3) -0.482923(16) -0.244534(17)
Nd1A_3 Nd 0.49540(3) 0.517077(16) -0.244534(17)
Nd1A_4 Nd 0.49540(3) 0.517077(16) 0.755466(17)
Nd1A_5 Nd 0.49540(3) 1.517077(16) 0.755466(17)
O1A O 0.1647(4) -0.3931(2) -0.1526(2)
O2A O -0.1159(4) -0.3870(3) -0.2884(3)
O2_2 O 0.1159(4) 0.3870(3) 0.2884(3)
O2A_2 O 0.8841(4) -0.3870(3) -0.2884(3)
O3A O 0.3785(5) 0.3248(3) 0.0403(3)
O4A O 0.2784(4) 0.3333(3) -0.1660(3)
O4_2 O 0.7216(4) 0.6667(3) 0.1660(3)
O4A_2 O 0.2784(4) -0.6667(3) -0.1660(3)
O5A O 0.6096(5) 1.3767(3) 0.5676(3)
O5A_2 O 0.6096(5) -0.6233(3) -0.4324(3)
O6A O 0.5211(5) 1.2975(3) 0.3502(3)
O6_2 O 0.4789(5) -0.2975(3) -0.3502(3)
O6A_2 O 0.5211(5) 0.2975(3) 0.3502(3)
O7A O 0.1589(5) -0.5894(3) -0.4135(3)
O8A O 0.7660(5) -0.5974(3) -0.1330(3)
H1A H 0.892(5) -0.567(5) -0.154(5)
H2A H 0.151(8) -0.594(5) -0.497(2)
H3A H 0.061(9) -0.557(7) -0.372(7)
H4A H 0.753(7) -0.610(4) -0.056(2)
C1A C 0.0487(6) -0.3269(3) -0.2073(4)
C2A C 0.1077(6) -0.1726(3) -0.1734(4)
C3A C 0.2164(6) -0.1027(4) -0.0507(3)
H5A H 0.2542 -0.1522 0.0101
C4A C 0.2692(5) 0.0391(3) -0.0179(3)
H6A H 0.3357 0.0852 0.0665
C5A C 0.2233(6) 0.1144(3) -0.1108(4)
C6A C 0.1145(6) 0.0446(4) -0.2346(3)
H7A H 0.0835 0.0940 -0.2971
C7A C 0.0522(6) -0.0985(4) -0.2648(4)
H8A H -0.0264 -0.1448 -0.3458
C8A C 0.2968(5) 0.2681(3) -0.0761(3)
C9A C 0.5539(5) 1.2795(3) 0.4656(3)
C10A C 0.5265(6) 1.1341(4) 0.4831(3)
C11A C 0.5948(6) 1.1094(4) 0.6053(4)
H9A H 0.6585 1.1828 0.6756
C12A C 0.5666(6) 0.9750(4) 0.6207(4)
H10A H 0.6111 0.9581 0.7021
loop_
_geom_bond_atom_site_label_1
_geom_bond_atom_site_label_2
_geom_bond_site_symmetry_1
_geom_bond_site_symmetry_2
Nd1 O1 1_555 1_555
O1 C1 1_555 1_555
O2 C1 1_555 1_555
O3 C8 1_555 1_555
O4 C8 1_555 1_555
O5 Nd1 1_555 1_555
O6 C9 1_555 1_555
O7 Nd1 1_555 1_555
O8 Nd1 1_555 1_555
H1 O8 1_555 1_555
H2 O7 1_555 1_555
H3 O7 1_555 1_555
H4 O8 1_555 1_555
C1 C2 1_555 1_555
C2 C3 1_555 1_555
C3 H5 1_555 1_555
C4 C3 1_555 1_555
H6 C4 1_555 1_555
C5 C4 1_555 1_555
C6 C5 1_555 1_555
H7 C6 1_555 1_555
C7 C2 1_555 1_555
H8 C7 1_555 1_555
C8 C5 1_555 1_555
C9 O5 1_555 1_555
C10 C9 1_555 1_555
C11 C10 1_555 1_555
H9 C11 1_555 1_555
C12 C11 1_555 1_555
H10 C12 1_555 1_555
Nd1A O3 1_555 1_555
Nd1_2 O4 1_555 1_555
Nd1_3 O6A 1_555 1_555
Nd1_4 O2 1_555 1_555
Nd1A_2 O2A 1_555 1_555
Nd1A_3 O4A 1_555 1_555
Nd1A_4 O6 1_555 1_555
Nd1A_5 O5A 1_555 1_555
O1A Nd1A 1_555 1_555
O2A C1A 1_555 1_555
O2_2 Nd1 1_555 1_555
O2A_2 Nd1A 1_555 1_555
O3A Nd1 1_555 1_555
O4A C8A 1_555 1_555
O4_2 Nd1 1_555 1_555
O4A_2 Nd1A 1_555 1_555
O5A C9A 1_555 1_555
O5A_2 Nd1A 1_555 1_555
O6A C9A 1_555 1_555
O6_2 Nd1A 1_555 1_555
O6A_2 Nd1 1_555 1_555
O7A Nd1A 1_555 1_555
O8A Nd1A 1_555 1_555
H1A O8A 1_555 1_555
H2A O7A 1_555 1_555
H3A O7A 1_555 1_555
H4A O8A 1_555 1_555
C1A O1A 1_555 1_555
C2A C1A 1_555 1_555
C3A C2A 1_555 1_555
H5A C3A 1_555 1_555
C4A C3A 1_555 1_555
H6A C4A 1_555 1_555
C5A C4A 1_555 1_555
C6A C5A 1_555 1_555
H7A C6A 1_555 1_555
C7A C2A 1_555 1_555
H8A C7A 1_555 1_555
C8A O3A 1_555 1_555
C9A C10A 1_555 1_555
C10A C12 1_555 1_555
C11A C10A 1_555 1_555
H9A C11A 1_555 1_555
C12A C10 1_555 1_555
H10A C12A 1_555 1_555
C6 C7 1_555 1_555
C5A C8A 1_555 1_555
C6A C7A 1_555 1_555
C11A C12A 1_555 1_555

#END
