
#######################################################################
#
#                 Cambridge Crystallographic Data Centre
#                                CCDC 
#
#######################################################################
#
# If this CIF has been generated from an entry in the Cambridge 
# Structural Database, then it will include bibliographic, chemical, 
# crystal, experimental, refinement or atomic coordinate data resulting 
# from the CCDC's data processing and validation procedures.
#
#######################################################################

data_AMIXIE
_symmetry_cell_setting           triclinic
_symmetry_space_group_name_H-M   'P -1'
_symmetry_Int_Tables_number      2
_space_group_name_Hall           '-P 1'
loop_
_symmetry_equiv_pos_site_id
_symmetry_equiv_pos_as_xyz
1 x,y,z
2 -x,-y,-z
_cell_length_a                   6.1356(3)
_cell_length_b                   9.9896(5)
_cell_length_c                   10.0170(5)
_cell_angle_alpha                102.170(3)
_cell_angle_beta                 91.433(4)
_cell_angle_gamma                101.189(3)
_cell_volume                     587.366
loop_
_atom_site_label
_atom_site_type_symbol
_atom_site_fract_x
_atom_site_fract_y
_atom_site_fract_z
Er1 Er 0.99888(4) 0.51763(2) 0.75506(2)
O1 O 0.6689(7) 0.6044(4) 0.8448(4)
O2 O 0.3799(7) 0.6146(4) 0.7122(4)
O3 O 0.7947(7) 1.3421(4) 0.8350(4)
O4 O 0.8837(7) 1.3289(4) 1.0467(4)
O5 O 1.1087(7) 0.3816(4) 0.5731(4)
O6 O 1.0184(7) 0.3044(4) 0.3503(4)
O7 O 0.6695(7) 0.4121(4) 0.5904(4)
H1 H 0.702(11) 0.455(4) 0.523(3)
H2 H 0.621(8) 0.466(5) 0.661(4)
O8 O 1.2655(7) 0.4064(4) 0.8643(4)
H3 H 1.260(12) 0.406(6) 0.951(2)
H4 H 1.341(8) 0.468(4) 0.823(5)
C1 C 0.5505(9) 0.6724(5) 0.7924(5)
C2 C 0.6112(9) 0.8291(5) 0.8261(5)
C3 C 0.7162(9) 0.8981(5) 0.9520(5)
H5 H 0.7509 0.8474 1.0147
C4 C 0.7699(9) 1.0420(5) 0.9851(5)
H6 H 0.8347 1.0882 1.0716
C5 C 0.7278(9) 1.1187(5) 0.8902(5)
C6 C 0.6230(9) 1.0507(5) 0.7640(5)
H7 H 0.5943 1.1017 0.7004
C7 C 0.5604(10) 0.9064(6) 0.7323(5)
H8 H 0.4846 0.8606 0.6486
C8 C 0.8063(9) 1.2744(5) 0.9267(5)
C9 C 1.0514(9) 0.2826(5) 0.4679(5)
C10 C 1.0282(9) 0.1368(5) 0.4839(5)
C11 C 0.9254(10) 0.0265(6) 0.3782(5)
H9 H 0.8733 0.0444 0.2971
C12 C 1.0992(10) 0.1096(6) 0.6058(5)
H10 H 1.1639 0.1833 0.6775
Er1A Er 1.00112(4) -0.51763(2) 0.24494(2)
Er1_2 Er -0.00112(4) 0.51763(2) 0.75506(2)
Er1_3 Er 0.99888(4) -1.48237(2) -0.24494(2)
Er1_4 Er 0.99888(4) -0.48237(2) 0.75506(2)
Er1_5 Er 0.99888(4) 1.51763(2) 0.75506(2)
Er1A_2 Er 1.00112(4) -1.51763(2) 0.24494(2)
Er1A_3 Er 1.00112(4) 0.48237(2) 0.24494(2)
Er1A_4 Er 1.00112(4) 1.48237(2) 1.24494(2)
Er1A_5 Er 2.00112(4) -0.51763(2) 0.24494(2)
O1A O 1.3311(7) -0.6044(4) 0.1552(4)
O2A O 1.6201(7) -0.6146(4) 0.2878(4)
O2_2 O 1.3799(7) 0.6146(4) 0.7122(4)
O2A_2 O 0.6201(7) -0.6146(4) 0.2878(4)
O3A O 1.2053(7) -1.3421(4) 0.1650(4)
O3_2 O 0.7947(7) 0.3421(4) 0.8350(4)
O3A_2 O 1.2053(7) -0.3421(4) 0.1650(4)
O4A O 1.1163(7) -1.3289(4) -0.0467(4)
O4_2 O 0.8837(7) -0.6711(4) 0.0467(4)
O4A_2 O 1.1163(7) 0.6711(4) 0.9533(4)
O5A O 0.8913(7) -0.3816(4) 0.4269(4)
O6A O 0.9816(7) -0.3044(4) 0.6497(4)
O6_2 O 1.0184(7) -0.6956(4) 0.3503(4)
O6A_2 O 0.9816(7) 0.6956(4) 0.6497(4)
O7A O 1.3305(7) -0.4121(4) 0.4096(4)
H1A H 1.298(11) -0.455(4) 0.477(3)
H2A H 1.379(8) -0.466(5) 0.339(4)
O8A O 0.7345(7) -0.4064(4) 0.1357(4)
H3A H 0.740(12) -0.406(6) 0.049(2)
H4A H 0.659(8) -0.468(4) 0.177(5)
C1A C 1.4495(9) -0.6724(5) 0.2076(5)
C2A C 1.3888(9) -0.8291(5) 0.1739(5)
C3A C 1.2838(9) -0.8981(5) 0.0480(5)
H5A H 1.2491 -0.8474 -0.0147
C4A C 1.2301(9) -1.0420(5) 0.0149(5)
H6A H 1.1653 -1.0882 -0.0716
C5A C 1.2722(9) -1.1187(5) 0.1098(5)
C6A C 1.3770(9) -1.0507(5) 0.2360(5)
H7A H 1.4057 -1.1017 0.2996
C7A C 1.4396(10) -0.9064(6) 0.2677(5)
H8A H 1.5154 -0.8606 0.3514
C8A C 1.1937(9) -1.2744(5) 0.0733(5)
C9A C 0.9486(9) -0.2826(5) 0.5321(5)
C10A C 0.9718(9) -0.1368(5) 0.5161(5)
C11A C 1.0746(10) -0.0265(6) 0.6218(5)
H9A H 1.1267 -0.0444 0.7029
C12A C 0.9008(10) -0.1096(6) 0.3942(5)
H10A H 0.8361 -0.1833 0.3225
loop_
_geom_bond_atom_site_label_1
_geom_bond_atom_site_label_2
_geom_bond_site_symmetry_1
_geom_bond_site_symmetry_2
Er1 O1 1_555 1_555
O1 C1 1_555 1_555
O2 C1 1_555 1_555
O3 C8 1_555 1_555
O4 C8 1_555 1_555
O5 Er1 1_555 1_555
O6 C9 1_555 1_555
O7 Er1 1_555 1_555
H1 O7 1_555 1_555
H2 O7 1_555 1_555
O8 Er1 1_555 1_555
H3 O8 1_555 1_555
H4 O8 1_555 1_555
C1 C2 1_555 1_555
C2 C3 1_555 1_555
C3 H5 1_555 1_555
C4 C3 1_555 1_555
H6 C4 1_555 1_555
C5 C4 1_555 1_555
C6 C5 1_555 1_555
H7 C6 1_555 1_555
C7 C2 1_555 1_555
H8 C7 1_555 1_555
C8 C5 1_555 1_555
C9 O5 1_555 1_555
C10 C9 1_555 1_555
C11 C10 1_555 1_555
H9 C11 1_555 1_555
C12 C10 1_555 1_555
H10 C12 1_555 1_555
Er1A O1A 1_555 1_555
Er1_2 O2 1_555 1_555
Er1_3 O4A 1_555 1_555
Er1_4 O6A 1_555 1_555
Er1_5 O3 1_555 1_555
Er1A_2 O3A 1_555 1_555
Er1A_3 O6 1_555 1_555
Er1A_4 O4 1_555 1_555
Er1A_5 O2A 1_555 1_555
O1A C1A 1_555 1_555
O2A C1A 1_555 1_555
O2_2 Er1 1_555 1_555
O2A_2 Er1A 1_555 1_555
O3A C8A 1_555 1_555
O3_2 Er1 1_555 1_555
O3A_2 Er1A 1_555 1_555
O4A C8A 1_555 1_555
O4_2 Er1A 1_555 1_555
O4A_2 Er1 1_555 1_555
O5A Er1A 1_555 1_555
O6A C9A 1_555 1_555
O6_2 Er1A 1_555 1_555
O6A_2 Er1 1_555 1_555
O7A Er1A 1_555 1_555
H1A O7A 1_555 1_555
H2A O7A 1_555 1_555
O8A Er1A 1_555 1_555
H3A O8A 1_555 1_555
H4A O8A 1_555 1_555
C1A C2A 1_555 1_555
C2A C3A 1_555 1_555
C3A H5A 1_555 1_555
C4A C3A 1_555 1_555
H6A C4A 1_555 1_555
C5A C4A 1_555 1_555
C6A C5A 1_555 1_555
H7A C6A 1_555 1_555
C7A C2A 1_555 1_555
H8A C7A 1_555 1_555
C8A C5A 1_555 1_555
C9A O5A 1_555 1_555
C10A C9A 1_555 1_555
C11A C12 1_555 1_555
H9A C11A 1_555 1_555
C12A C11 1_555 1_555
H10A C12A 1_555 1_555
C6 C7 1_555 1_555
C6A C7A 1_555 1_555
C10A C11A 1_555 1_555
C10A C12A 1_555 1_555

#END
