
#######################################################################
#
#                 Cambridge Crystallographic Data Centre
#                                CCDC 
#
#######################################################################
#
# If this CIF has been generated from an entry in the Cambridge 
# Structural Database, then it will include bibliographic, chemical, 
# crystal, experimental, refinement or atomic coordinate data resulting 
# from the CCDC's data processing and validation procedures.
#
#######################################################################

data_AMIXUQ
_symmetry_cell_setting           triclinic
_symmetry_space_group_name_H-M   'P -1'
_symmetry_Int_Tables_number      2
_space_group_name_Hall           '-P 1'
loop_
_symmetry_equiv_pos_site_id
_symmetry_equiv_pos_as_xyz
1 x,y,z
2 -x,-y,-z
_cell_length_a                   9.940(5)
_cell_length_b                   10.074(5)
_cell_length_c                   13.056(8)
_cell_angle_alpha                67.372(5)
_cell_angle_beta                 73.702(8)
_cell_angle_gamma                83.054(6)
_cell_volume                     1158.12
loop_
_atom_site_label
_atom_site_type_symbol
_atom_site_fract_x
_atom_site_fract_y
_atom_site_fract_z
C1 C 1.0142(4) 0.2753(4) 0.0762(3)
C2 C 1.0359(4) 0.1155(4) 0.1176(3)
C3 C 1.1579(4) 0.0534(4) 0.1511(3)
H1 H 1.2284 0.1128 0.1465
C4 C 1.1761(4) -0.0954(4) 0.1910(3)
H2 H 1.2575 -0.1375 0.2163
C5 C 1.0754(4) -0.1827(4) 0.1941(3)
C6 C 0.9533(4) -0.1210(4) 0.1593(3)
H3 H 0.8854 -0.1800 0.1596
C7 C 0.9328(4) 0.0278(4) 0.1242(3)
H4 H 0.8482 0.0696 0.1047
C8 C 1.1001(4) -0.3422(4) 0.2314(3)
C9 C 0.4627(3) 0.7175(4) 0.0029(3)
C10 C 0.4834(4) 0.8640(4) 0.0004(3)
C11 C 0.5473(4) 0.8784(4) 0.0790(3)
H5 H 0.5798 0.7954 0.1325
C12 C 0.5630(4) 1.0138(4) 0.0784(3)
H6 H 0.6056 1.0232 0.1319
C13 C 0.4832(4) 0.2841(4) 0.3176(3)
C14 C 0.4953(4) 0.1264(4) 0.3400(3)
C15 C 0.6274(4) 0.0601(4) 0.3334(3)
H7 H 0.7085 0.1144 0.3146
C16 C 0.6389(4) -0.0879(4) 0.3549(3)
H8 H 0.7277 -0.1349 0.3541
C17 C 0.5214(4) -0.1656(4) 0.3773(3)
C18 C 0.3894(4) -0.0985(4) 0.3826(3)
H9 H 0.3090 -0.1514 0.3966
C19 C 0.3769(4) 0.0469(4) 0.3669(3)
H10 H 0.2869 0.0918 0.3747
C20 C 0.5380(4) -0.3195(4) 0.3892(3)
C21 C 0.0210(4) 0.7117(4) 0.5001(3)
C22 C 0.0091(4) 0.8610(4) 0.5016(3)
C23 C 0.0599(4) 0.8890(4) 0.5794(3)
H11 H 0.1007 0.8141 0.6331
C24 C 0.0504(4) 1.0287(4) 0.5779(3)
H12 H 0.0846 1.0494 0.6312
O1 O 0.8890(3) 0.3205(3) 0.0886(2)
O2 O 1.1195(3) 0.3533(3) 0.0328(2)
O3 O 1.1956(3) -0.3938(3) 0.2865(2)
O4 O 1.0353(3) -0.4182(3) 0.2063(2)
O5 O 0.5241(3) 0.6117(3) 0.0650(2)
O6 O 0.3841(3) 0.7068(3) -0.0528(2)
O7 O 0.5844(3) 0.3626(3) 0.2510(2)
O8 O 0.3704(3) 0.3280(3) 0.3689(2)
O9 O 0.6526(3) -0.3842(3) 0.4046(2)
O10 O 0.4408(3) -0.3781(3) 0.3789(2)
O11 O 0.1312(3) 0.6400(3) 0.5180(2)
O12 O -0.0780(3) 0.6657(3) 0.4795(2)
O13 O 0.7753(3) 0.5557(3) 0.1973(2)
H13 H 0.856(3) 0.577(6) 0.192(5)
H14 H 0.732(5) 0.542(6) 0.265(2)
O14 O 0.7210(3) 0.5611(3) -0.1255(2)
H15 H 0.662(4) 0.520(5) -0.139(4)
H16 H 0.801(3) 0.545(6) -0.161(4)
Yb1 Yb 0.256746(14) 0.482949(15) 0.443390(12)
Yb2 Yb 0.716973(14) 0.476891(15) 0.071195(12)
C1A C -1.0142(4) 0.7247(4) 0.9238(3)
C2A C -1.0359(4) 0.8845(4) 0.8824(3)
C3A C -1.1579(4) 0.9466(4) 0.8489(3)
H1A H -1.2284 0.8872 0.8535
C4A C -1.1761(4) 1.0954(4) 0.8090(3)
H2A H -1.2575 1.1375 0.7837
C5A C -1.0754(4) 1.1827(4) 0.8059(3)
C6A C -0.9533(4) 1.1210(4) 0.8407(3)
H3A H -0.8854 1.1800 0.8404
C7A C -0.9328(4) 0.9722(4) 0.8758(3)
H4A H -0.8482 0.9304 0.8953
C8A C -1.1001(4) 1.3422(4) 0.7686(3)
C9A C 0.5373(3) 1.2825(4) -0.0029(3)
C10A C 0.5166(4) 1.1360(4) -0.0004(3)
C11A C 0.4527(4) 1.1216(4) -0.0790(3)
H5A H 0.4202 1.2046 -0.1325
C12A C 0.4370(4) 0.9862(4) -0.0784(3)
H6A H 0.3944 0.9768 -0.1319
C13A C -0.4832(4) 0.7159(4) 0.6824(3)
C14A C -0.4953(4) 0.8736(4) 0.6600(3)
C15A C -0.6274(4) 0.9399(4) 0.6666(3)
H7A H -0.7085 0.8856 0.6854
C16A C -0.6389(4) 1.0879(4) 0.6451(3)
H8A H -0.7277 1.1349 0.6459
C17A C -0.5214(4) 1.1656(4) 0.6227(3)
C18A C -0.3894(4) 1.0985(4) 0.6174(3)
H9A H -0.3090 1.1514 0.6034
C19A C -0.3769(4) 0.9531(4) 0.6331(3)
H10A H -0.2869 0.9082 0.6253
C20A C -0.5380(4) 1.3195(4) 0.6108(3)
C21A C -0.0210(4) 1.2883(4) 0.4999(3)
C22A C -0.0091(4) 1.1390(4) 0.4984(3)
C23A C -0.0599(4) 1.1110(4) 0.4206(3)
H11A H -0.1007 1.1859 0.3669
C24A C -0.0504(4) 0.9713(4) 0.4221(3)
H12A H -0.0846 0.9506 0.3688
O1A O -0.8890(3) 0.6795(3) 0.9114(2)
O2A O -1.1195(3) 0.6467(3) 0.9672(2)
O2_2 O -0.8805(3) 0.3533(3) 1.0328(2)
O2A_2 O 0.8805(3) 0.6467(3) -0.0328(2)
O3A O -1.1956(3) 1.3938(3) 0.7135(2)
O3_2 O 0.1956(3) 0.6062(3) 0.2865(2)
O3A_2 O -0.1956(3) 0.3938(3) 0.7135(2)
O4A O -1.0353(3) 1.4182(3) 0.7937(2)
O5A O 0.4759(3) 1.3883(3) -0.0650(2)
O5A_2 O -0.5241(3) 0.3883(3) 0.9350(2)
O6A O 0.6159(3) 1.2932(3) 0.0528(2)
O6_2 O -0.6159(3) 0.7068(3) 0.9472(2)
O6A_2 O 0.6159(3) 0.2932(3) 0.0528(2)
O7A O -0.5844(3) 0.6374(3) 0.7490(2)
O8A O -0.3704(3) 0.6720(3) 0.6311(2)
O9A O -0.6526(3) 1.3842(3) 0.5954(2)
O9_2 O -0.3474(3) 0.6158(3) 0.4046(2)
O9A_2 O 0.3474(3) 0.3842(3) 0.5954(2)
O10A O -0.4408(3) 1.3781(3) 0.6211(2)
O10_2 O 0.4408(3) 0.6219(3) 0.3789(2)
O10A_2 O -0.4408(3) 0.3781(3) 0.6211(2)
O11A O -0.1312(3) 1.3600(3) 0.4820(2)
O11A_2 O -0.1312(3) 0.3600(3) 0.4820(2)
O12A O 0.0780(3) 1.3343(3) 0.5205(2)
O12A_2 O 0.0780(3) 0.3343(3) 0.5205(2)
O13A O -0.7753(3) 0.4443(3) 0.8027(2)
H13A H -0.856(3) 0.423(6) 0.808(5)
H14A H -0.732(5) 0.458(6) 0.735(2)
O14A O -0.7210(3) 0.4389(3) 1.1255(2)
H15A H -0.662(4) 0.480(5) 1.139(4)
H16A H -0.801(3) 0.455(6) 1.161(4)
Yb1A Yb -0.256746(14) 0.517051(15) 0.556610(12)
Yb1_2 Yb -0.743254(14) 1.482949(15) 0.443390(12)
Yb1_3 Yb 0.256746(14) -0.517051(15) 0.443390(12)
Yb1_4 Yb 0.256746(14) 1.482949(15) 0.443390(12)
Yb1_5 Yb 1.256746(14) -0.517051(15) 0.443390(12)
Yb1A_2 Yb -1.256746(14) 1.517051(15) 0.556610(12)
Yb1A_3 Yb -0.256746(14) 1.517051(15) 0.556610(12)
Yb1A_4 Yb 0.743254(14) -0.482949(15) 0.556610(12)
Yb2A Yb -0.716973(14) 0.523109(15) 0.928805(12)
Yb2_2 Yb -1.283027(14) 0.476891(15) 1.071195(12)
Yb2_3 Yb 0.716973(14) 1.476891(15) 0.071195(12)
Yb2A_2 Yb 0.283027(14) 0.523109(15) -0.071195(12)
Yb2A_3 Yb 0.283027(14) 1.523109(15) -0.071195(12)
Yb2A_4 Yb 1.283027(14) 0.523109(15) -0.071195(12)
loop_
_geom_bond_atom_site_label_1
_geom_bond_atom_site_label_2
_geom_bond_site_symmetry_1
_geom_bond_site_symmetry_2
C1 C2 1_555 1_555
C2 C3 1_555 1_555
C3 H1 1_555 1_555
C4 C3 1_555 1_555
H2 C4 1_555 1_555
C5 C4 1_555 1_555
C6 C5 1_555 1_555
H3 C6 1_555 1_555
C7 C2 1_555 1_555
H4 C7 1_555 1_555
C8 C5 1_555 1_555
C9 C10 1_555 1_555
C10 C11 1_555 1_555
C11 H5 1_555 1_555
C12 C11 1_555 1_555
H6 C12 1_555 1_555
C13 C14 1_555 1_555
C14 C15 1_555 1_555
C15 H7 1_555 1_555
C16 C15 1_555 1_555
H8 C16 1_555 1_555
C17 C16 1_555 1_555
C18 C17 1_555 1_555
H9 C18 1_555 1_555
C19 C14 1_555 1_555
H10 C19 1_555 1_555
C20 C17 1_555 1_555
C21 C22 1_555 1_555
C22 C23 1_555 1_555
C23 H11 1_555 1_555
C24 C23 1_555 1_555
H12 C24 1_555 1_555
O1 C1 1_555 1_555
O2 C1 1_555 1_555
O3 C8 1_555 1_555
O4 C8 1_555 1_555
O5 C9 1_555 1_555
O6 C9 1_555 1_555
O7 C13 1_555 1_555
O8 C13 1_555 1_555
O9 C20 1_555 1_555
O10 C20 1_555 1_555
O11 C21 1_555 1_555
O12 C21 1_555 1_555
O13 H13 1_555 1_555
H14 O13 1_555 1_555
O14 H15 1_555 1_555
H16 O14 1_555 1_555
Yb1 O8 1_555 1_555
Yb2 O1 1_555 1_555
C1A C2A 1_555 1_555
C2A C3A 1_555 1_555
C3A H1A 1_555 1_555
C4A C3A 1_555 1_555
H2A C4A 1_555 1_555
C5A C4A 1_555 1_555
C6A C5A 1_555 1_555
H3A C6A 1_555 1_555
C7A C2A 1_555 1_555
H4A C7A 1_555 1_555
C8A C5A 1_555 1_555
C9A C10A 1_555 1_555
C10A C12 1_555 1_555
C11A C10A 1_555 1_555
H5A C11A 1_555 1_555
C12A C10 1_555 1_555
H6A C12A 1_555 1_555
C13A C14A 1_555 1_555
C14A C15A 1_555 1_555
C15A H7A 1_555 1_555
C16A C15A 1_555 1_555
H8A C16A 1_555 1_555
C17A C16A 1_555 1_555
C18A C17A 1_555 1_555
H9A C18A 1_555 1_555
C19A C14A 1_555 1_555
H10A C19A 1_555 1_555
C20A C17A 1_555 1_555
C21A C22A 1_555 1_555
C22A C24 1_555 1_555
C23A C22A 1_555 1_555
H11A C23A 1_555 1_555
C24A C22 1_555 1_555
H12A C24A 1_555 1_555
O1A C1A 1_555 1_555
O2A C1A 1_555 1_555
O2_2 Yb2A 1_555 1_555
O2A_2 Yb2 1_555 1_555
O3A C8A 1_555 1_555
O3_2 Yb1 1_555 1_555
O3A_2 Yb1A 1_555 1_555
O4A C8A 1_555 1_555
O5A C9A 1_555 1_555
O5A_2 Yb2A 1_555 1_555
O6A C9A 1_555 1_555
O6_2 Yb2A 1_555 1_555
O6A_2 Yb2 1_555 1_555
O7A C13A 1_555 1_555
O8A C13A 1_555 1_555
O9A C20A 1_555 1_555
O9_2 Yb1A 1_555 1_555
O9A_2 Yb1 1_555 1_555
O10A C20A 1_555 1_555
O10_2 Yb1 1_555 1_555
O10A_2 Yb1A 1_555 1_555
O11A C21A 1_555 1_555
O11A_2 Yb1A 1_555 1_555
O12A C21A 1_555 1_555
O12A_2 Yb1 1_555 1_555
O13A H13A 1_555 1_555
H14A O13A 1_555 1_555
O14A H15A 1_555 1_555
H16A O14A 1_555 1_555
Yb1A O12 1_555 1_555
Yb1_2 O9A 1_555 1_555
Yb1_3 O10 1_555 1_555
Yb1_4 O12A 1_555 1_555
Yb1_5 O3 1_555 1_555
Yb1A_2 O3A 1_555 1_555
Yb1A_3 O10A 1_555 1_555
Yb1A_4 O9 1_555 1_555
Yb2A O1A 1_555 1_555
Yb2_2 O2A 1_555 1_555
Yb2_3 O6A 1_555 1_555
Yb2A_2 O6 1_555 1_555
Yb2A_3 O5A 1_555 1_555
Yb2A_4 O2 1_555 1_555
C6 C7 1_555 1_555
C18 C19 1_555 1_555
O5 Yb2 1_555 1_555
O7 Yb2 1_555 1_555
O11 Yb1 1_555 1_555
O13 Yb2 1_555 1_555
O14 Yb2 1_555 1_555
C6A C7A 1_555 1_555
C11A C12A 1_555 1_555
C18A C19A 1_555 1_555
C23A C24A 1_555 1_555
O7A Yb2A 1_555 1_555
O8A Yb1A 1_555 1_555
O11A Yb1A_3 1_555 1_555
O13A Yb2A 1_555 1_555
O14A Yb2A 1_555 1_555

#END
