
#######################################################################
#
#                 Cambridge Crystallographic Data Centre
#                                CCDC 
#
#######################################################################
#
# If this CIF has been generated from an entry in the Cambridge 
# Structural Database, then it will include bibliographic, chemical, 
# crystal, experimental, refinement or atomic coordinate data resulting 
# from the CCDC's data processing and validation procedures.
#
#######################################################################

data_AMIXEA
_symmetry_cell_setting           monoclinic
_symmetry_space_group_name_H-M   'P 21/n'
_symmetry_Int_Tables_number      14
_space_group_name_Hall           '-P 2yn'
loop_
_symmetry_equiv_pos_site_id
_symmetry_equiv_pos_as_xyz
1 x,y,z
2 1/2-x,1/2+y,1/2-z
3 -x,-y,-z
4 1/2+x,1/2-y,1/2+z
_cell_length_a                   10.788(3)
_cell_length_b                   14.223(3)
_cell_length_c                   13.170(3)
_cell_angle_alpha                90
_cell_angle_beta                 90.402(4)
_cell_angle_gamma                90
_cell_volume                     2020.73
loop_
_atom_site_label
_atom_site_type_symbol
_atom_site_fract_x
_atom_site_fract_y
_atom_site_fract_z
Ho1 Ho 0.255295(18) 0.218091(14) 0.285910(14)
Ho2 Ho 0.006730(17) 0.361927(14) 0.132411(14)
S1 S -0.2353(3) 0.2622(3) 0.2760(3)
O1 O 0.1074(4) 0.0986(3) 0.2410(3)
O2 O 0.1198(3) 0.2158(2) 0.1337(3)
O3 O -0.1091(4) 0.2121(3) -0.1122(3)
O4 O -0.1067(3) 0.2411(2) 0.0551(3)
O5 O 0.3960(4) 0.1214(3) 0.2206(3)
O6 O 0.5044(3) 0.0036(2) 0.2839(3)
O7 O 0.3852(4) -0.2310(3) 0.0792(3)
O8 O 0.3657(3) -0.1404(2) 0.2125(2)
O9 O 0.3575(3) 0.3238(3) 0.1710(3)
O10 O 0.2066(3) 0.4063(2) 0.0947(3)
O11 O 0.1785(3) 0.5591(2) -0.0733(2)
O12 O 0.2130(3) 0.6092(2) 0.0847(2)
O13 O -0.1132(4) 0.3076(3) 0.2595(3)
O14 O 0.0360(3) 0.3845(3) -0.0416(3)
C1 C 0.0868(4) 0.1308(3) 0.1545(4)
C2 C -0.0891(5) 0.1904(4) -0.0207(4)
C3 C 0.0741(5) -0.0271(4) 0.0800(4)
H1 H 0.1237 -0.0459 0.1343
C4 C 0.0364(5) 0.0667(3) 0.0740(4)
C5 C -0.0398(5) 0.0931(3) -0.0073(4)
C6 C 0.4555(4) 0.0473(3) 0.2111(3)
C7 C 0.4021(4) -0.1528(3) 0.1207(3)
C8 C 0.5186(4) 0.0882(3) 0.0393(4)
H2 H 0.5310 0.1480 0.0660
C9 C 0.4762(4) 0.0170(3) 0.1031(3)
C10 C 0.4571(4) -0.0728(3) 0.0627(3)
C11 C 0.3193(4) 0.3884(3) 0.1127(3)
C12 C 0.2457(4) 0.5676(3) 0.0063(3)
C13 C 0.5362(4) 0.4204(3) 0.0530(4)
H3 H 0.5613 0.3671 0.0885
C14 C 0.3765(4) 0.5288(3) 0.0025(3)
C15 C 0.4124(4) 0.4479(3) 0.0564(3)
C16 C -0.206(2) 0.1381(13) 0.284(2)
C17 C -0.257(2) 0.2827(12) 0.4066(15)
Ho1B Ho -0.255295(18) -0.218091(14) -0.285910(14)
Ho1C Ho -0.244705(18) 0.281909(14) -0.214090(14)
Ho1A Ho 0.244705(18) -0.281909(14) 0.214090(14)
Ho1A_2 Ho 0.244705(18) 0.718091(14) 0.214090(14)
Ho1C_2 Ho 0.755295(18) 0.281909(14) -0.214090(14)
Ho1B_2 Ho 0.744705(18) -0.218091(14) -0.285910(14)
Ho1B_3 Ho 0.744705(18) 0.781909(14) -0.285910(14)
Ho2B Ho -0.006730(17) -0.361927(14) -0.132411(14)
Ho2A Ho 0.493270(17) -0.138073(14) 0.367589(14)
Ho2B_2 Ho -0.006730(17) 0.638073(14) -0.132411(14)
Ho2C Ho 0.506730(17) 0.138073(14) -0.367589(14)
Ho2_2 Ho 1.006730(17) 0.361927(14) 0.132411(14)
Ho2B_3 Ho 0.993270(17) 0.638073(14) -0.132411(14)
S1B S 0.2353(3) -0.2622(3) -0.2760(3)
O1B O -0.1074(4) -0.0986(3) -0.2410(3)
O2B O -0.1198(3) -0.2158(2) -0.1337(3)
O3B O 0.1091(4) -0.2121(3) 0.1122(3)
O3C O 0.3909(4) 0.2879(3) 0.3878(3)
O3A O -0.3909(4) -0.2879(3) -0.3878(3)
O4B O 0.1067(3) -0.2411(2) -0.0551(3)
O5B O 0.6040(4) -0.1214(3) -0.2206(3)
O5B_2 O -0.3960(4) -0.1214(3) -0.2206(3)
O6B O 0.4956(3) -0.0036(2) -0.2839(3)
O6A O -0.0044(3) 0.5036(2) 0.2161(3)
O6C O 0.0044(3) -0.5036(2) -0.2161(3)
O7B O 0.6148(4) 0.2310(3) -0.0792(3)
O7A O 0.1148(4) 0.2690(3) 0.4208(3)
O7C O -0.1148(4) -0.2690(3) -0.4208(3)
O8B O 0.6343(3) 0.1404(2) -0.2125(2)
O8A O 0.1343(3) 0.3596(2) 0.2875(2)
O8C O -0.1343(3) -0.3596(2) -0.2875(2)
O9B O 0.6425(3) 0.6762(3) -0.1710(3)
O9B_2 O -0.3575(3) -0.3238(3) -0.1710(3)
O10B O 0.7934(3) 0.5937(2) -0.0947(3)
O10B_2 O -0.2066(3) -0.4063(2) -0.0947(3)
O11B O 0.8215(3) 0.4409(2) 0.0733(2)
O11B_2 O -0.1785(3) 0.4409(2) 0.0733(2)
O11_2 O 0.1785(3) -0.4409(2) -0.0733(2)
O12B O 0.7870(3) 0.3908(2) -0.0847(2)
O12A O 0.2870(3) 0.1092(2) 0.4153(2)
O12C O -0.2870(3) -0.1092(2) -0.4153(2)
O13B O 0.1132(4) -0.3076(3) -0.2595(3)
O14B O -0.0360(3) -0.3845(3) 0.0416(3)
C1B C -0.0868(4) -0.1308(3) -0.1545(4)
C2B C 0.0891(5) -0.1904(4) 0.0207(4)
C3B C -0.0741(5) 0.0271(4) -0.0800(4)
H1B H -0.1237 0.0459 -0.1343
C4B C -0.0364(5) -0.0667(3) -0.0740(4)
C5B C 0.0398(5) -0.0931(3) 0.0073(4)
C6B C 0.5445(4) -0.0473(3) -0.2111(3)
C7B C 0.5979(4) 0.1528(3) -0.1207(3)
C8B C 0.4814(4) -0.0882(3) -0.0393(4)
H2B H 0.4690 -0.1480 -0.0660
C9B C 0.5238(4) -0.0170(3) -0.1031(3)
C10B C 0.5429(4) 0.0728(3) -0.0627(3)
C11B C 0.6807(4) 0.6116(3) -0.1127(3)
C12B C 0.7543(4) 0.4324(3) -0.0063(3)
C13B C 0.4638(4) 0.5796(3) -0.0530(4)
H3B H 0.4387 0.6329 -0.0885
C14B C 0.6235(4) 0.4712(3) -0.0025(3)
C15B C 0.5876(4) 0.5521(3) -0.0564(3)
C16B C 0.206(2) -0.1381(13) -0.284(2)
C17B C 0.257(2) -0.2827(12) -0.4066(15)
loop_
_geom_bond_atom_site_label_1
_geom_bond_atom_site_label_2
_geom_bond_site_symmetry_1
_geom_bond_site_symmetry_2
Ho1 O1 1_555 1_555
Ho2 O2 1_555 1_555
S1 O13 1_555 1_555
O1 C1 1_555 1_555
O2 Ho1 1_555 1_555
O3 C2 1_555 1_555
O4 Ho2 1_555 1_555
O5 Ho1 1_555 1_555
O6 C6 1_555 1_555
O7 C7 1_555 1_555
O8 C7 1_555 1_555
O9 Ho1 1_555 1_555
O10 Ho2 1_555 1_555
O11 C12 1_555 1_555
O12 C12 1_555 1_555
O13 Ho2 1_555 1_555
O14 Ho2 1_555 1_555
C1 O2 1_555 1_555
C2 O4 1_555 1_555
C3 H1 1_555 1_555
C4 C1 1_555 1_555
C5 C2 1_555 1_555
C6 O5 1_555 1_555
C7 C10 1_555 1_555
C8 H2 1_555 1_555
C9 C6 1_555 1_555
C10 C9 1_555 1_555
C11 O9 1_555 1_555
C12 C14 1_555 1_555
C13 H3 1_555 1_555
C14 C15 1_555 1_555
C15 C11 1_555 1_555
C16 S1 1_555 1_555
C17 S1 1_555 1_555
Ho1B O1B 1_555 1_555
Ho1C O3 1_555 1_555
Ho1A O7 1_555 1_555
Ho1A_2 O12 1_555 1_555
Ho1C_2 O7B 1_555 1_555
Ho1B_2 O5B 1_555 1_555
Ho1B_3 O9B 1_555 1_555
Ho2B O2B 1_555 1_555
Ho2A O6 1_555 1_555
Ho2B_2 O11 1_555 1_555
Ho2C O6B 1_555 1_555
Ho2_2 O11B 1_555 1_555
Ho2B_3 O10B 1_555 1_555
S1B O13B 1_555 1_555
O1B C1B 1_555 1_555
O2B Ho1B 1_555 1_555
O3B Ho1A 1_555 1_555
O3C Ho1 1_555 1_555
O3A Ho1B 1_555 1_555
O4B Ho2B 1_555 1_555
O5B C6B 1_555 1_555
O5B_2 Ho1B 1_555 1_555
O6B C6B 1_555 1_555
O6A Ho2 1_555 1_555
O6C Ho2B 1_555 1_555
O7B C7B 1_555 1_555
O7A Ho1 1_555 1_555
O7C Ho1B 1_555 1_555
O8B Ho1C_2 1_555 1_555
O8A Ho1 1_555 1_555
O8C Ho1B 1_555 1_555
O9B C11B 1_555 1_555
O9B_2 Ho1B 1_555 1_555
O10B C11B 1_555 1_555
O10B_2 Ho2B 1_555 1_555
O11B C12B 1_555 1_555
O11B_2 Ho2 1_555 1_555
O11_2 Ho2B 1_555 1_555
O12B Ho1C_2 1_555 1_555
O12A Ho1 1_555 1_555
O12C Ho1B 1_555 1_555
O13B Ho2B 1_555 1_555
O14B Ho2B 1_555 1_555
C1B O2B 1_555 1_555
C2B O3B 1_555 1_555
C3B C5 1_555 1_555
H1B C3B 1_555 1_555
C4B C1B 1_555 1_555
C5B C3 1_555 1_555
C6B C9B 1_555 1_555
C7B O8B 1_555 1_555
C8B C10 1_555 1_555
H2B C8B 1_555 1_555
C9B C8B 1_555 1_555
C10B C8 1_555 1_555
C11B C15B 1_555 1_555
C12B O12B 1_555 1_555
C13B C14 1_555 1_555
H3B C13B 1_555 1_555
C14B C13 1_555 1_555
C15B C13B 1_555 1_555
C16B S1B 1_555 1_555
C17B S1B 1_555 1_555
Ho2 O8A 1_555 1_555
O8 Ho1A 1_555 1_555
O8 Ho2A 1_555 1_555
O10 C11 1_555 1_555
C3 C4 1_555 1_555
C4 C5 1_555 1_555
C8 C9 1_555 1_555
C13 C15 1_555 1_555
Ho2B O8C 1_555 1_555
Ho2C O8B 1_555 1_555
O4B C2B 1_555 1_555
C2B C5B 1_555 1_555
C3B C4B 1_555 1_555
C4B C5B 1_555 1_555
C7B C10B 1_555 1_555
C9B C10B 1_555 1_555
C12B C14B 1_555 1_555
C14B C15B 1_555 1_555

#END
