
#######################################################################
#
#                 Cambridge Crystallographic Data Centre
#                                CCDC 
#
#######################################################################
#
# If this CIF has been generated from an entry in the Cambridge 
# Structural Database, then it will include bibliographic, chemical, 
# crystal, experimental, refinement or atomic coordinate data resulting 
# from the CCDC's data processing and validation procedures.
#
#######################################################################

data_AMIYOL
_symmetry_cell_setting           orthorhombic
_symmetry_space_group_name_H-M   'P n a 21'
_symmetry_Int_Tables_number      33
_space_group_name_Hall           'P 2c -2n'
loop_
_symmetry_equiv_pos_site_id
_symmetry_equiv_pos_as_xyz
1 x,y,z
2 -x,-y,1/2+z
3 1/2+x,1/2-y,z
4 1/2-x,1/2+y,1/2+z
_cell_length_a                   24.0171(11)
_cell_length_b                   10.0687(5)
_cell_length_c                   18.5808(8)
_cell_angle_alpha                90
_cell_angle_beta                 90
_cell_angle_gamma                90
_cell_volume                     4493.23
loop_
_atom_site_label
_atom_site_type_symbol
_atom_site_fract_x
_atom_site_fract_y
_atom_site_fract_z
Ag1 Ag 0.28191(2) 1.72666(5) 0.32072(3)
Ag2 Ag 0.25225(3) 0.72241(6) 0.00655(3)
N1 N 0.2368(2) 0.8510(6) 0.2297(3)
N2 N 0.2269(3) 0.8484(7) 0.1040(3)
N3 N 0.2262(3) 1.3364(6) 0.4056(3)
N4 N 0.2306(2) 1.5304(6) 0.3349(3)
N5 N 0.2010(2) 1.3235(6) -0.0694(3)
N6 N 0.2106(2) 1.5226(5) -0.0036(3)
N8 N 0.3887(3) 1.6401(10) 0.2385(5)
O1 O 0.3936(8) 1.647(2) 0.3036(8)
O2 O 0.3416(6) 1.660(3) 0.2263(12)
O3 O 0.4269(17) 1.638(3) 0.197(3)
O4 O 0.1562(2) 0.9393(5) 0.0452(2)
O5 O 0.3563(3) 0.7563(10) 0.0543(5)
O6 O 0.1766(2) 0.9452(5) 0.3032(2)
O7 O 0.1711(2) 1.1657(5) 0.3813(3)
O8 O 0.17654(19) 1.5643(5) 0.2387(2)
O9 O 0.1628(2) 1.5653(5) 0.0965(2)
O10 O 0.1458(2) 1.1577(5) -0.0352(3)
C1 C 0.2537(3) 0.8200(7) 0.1637(4)
H1 H 0.2872 0.7744 0.1595
C2 C 0.1902(3) 0.9190(7) 0.2341(4)
C3 C 0.1596(3) 0.9589(6) 0.1752(4)
H2 H 0.1277 1.0107 0.1794
C4 C 0.1798(3) 0.9164(7) 0.1098(4)
C5 C 0.1235(3) 0.9948(6) 0.3190(4)
C6 C 0.0756(3) 0.9280(7) 0.3030(4)
H3 H 0.0774 0.8471 0.2790
C7 C 0.0253(3) 0.9791(9) 0.3219(6)
H4 H -0.0074 0.9353 0.3097
C8 C 0.0238(4) 1.0967(11) 0.3596(5)
H5 H -0.0105 1.1318 0.3728
C9 C 0.0715(4) 1.1640(9) 0.3783(4)
H6 H 0.0700 1.2428 0.4043
C10 C 0.1208(3) 1.1109(6) 0.3575(4)
C11 C 0.1869(3) 1.2903(7) 0.3620(4)
C12 C 0.2457(3) 1.4543(9) 0.3895(4)
H7 H 0.2732 1.4880 0.4197
C13 C 0.1904(3) 1.4813(7) 0.2941(3)
C14 C 0.1675(3) 1.3579(7) 0.3039(3)
H8 H 0.1407 1.3231 0.2732
C15 C 0.1219(3) 1.5608(7) 0.2125(3)
C16 C 0.0768(3) 1.5701(7) 0.2573(4)
H9 H 0.0817 1.5714 0.3070
C17 C 0.0248(3) 1.5776(8) 0.2287(4)
H10 H -0.0059 1.5864 0.2588
C18 C 0.0171(4) 1.5721(8) 0.1545(5)
H11 H -0.0186 1.5727 0.1353
C19 C 0.0621(3) 1.5659(8) 0.1101(4)
H12 H 0.0573 1.5676 0.0604
C20 C 0.1148(3) 1.5570(7) 0.1387(4)
C21 C 0.2226(3) 1.4425(7) -0.0579(4)
H13 H 0.2487 1.4727 -0.0911
C22 C 0.1718(3) 1.4780(7) 0.0426(3)
C23 C 0.1467(3) 1.3564(7) 0.0363(3)
H14 H 0.1200 1.3267 0.0688
C24 C 0.1634(3) 1.2817(7) -0.0212(3)
C25 C 0.0464(3) 1.1624(8) -0.0130(4)
H15 H 0.0426 1.2389 -0.0407
C26 C 0.0007(3) 1.1041(9) 0.0160(5)
H16 H -0.0343 1.1407 0.0082
C27 C 0.0061(4) 0.9897(9) 0.0573(4)
H17 H -0.0253 0.9500 0.0774
C28 C 0.0570(3) 0.9364(7) 0.0682(4)
H18 H 0.0604 0.8589 0.0951
C29 C 0.1035(3) 0.9951(6) 0.0402(3)
C30 C 0.0982(3) 1.1087(6) -0.0017(4)
H31 H 0.376(5) 0.759(11) 0.102(5)
H32 H 0.381(4) 0.806(9) 0.036(4)
Ag1_2 Ag 0.28191(2) 0.72666(5) 0.32072(3)
Ag1C Ag 0.21809(2) 1.22666(5) -0.17928(3)
Ag2_2 Ag 0.25225(3) 1.72241(6) 0.00655(3)
Ag2C Ag 0.24775(3) 1.22241(6) 0.50655(3)
N1_2 N 0.2368(2) 1.8510(6) 0.2297(3)
N3C N 0.2738(3) 0.8364(6) -0.0944(3)
N5C N 0.2990(2) 1.8235(6) 0.4306(3)
N6_2 N 0.2106(2) 0.5226(5) -0.0036(3)
N7 N 0.0639(4) 1.5071(12) 0.4619(5)
O11 O 0.0427(5) 1.4324(16) 0.5030(7)
O12 O 0.0407(5) 1.6036(11) 0.4395(8)
O13 O 0.1081(3) 1.4776(9) 0.4399(4)
N9 N 0.0724(3) 1.2287(6) 0.1818(4)
C43 C -0.0375(4) 1.2358(11) 0.1904(7)
C44 C 0.0242(4) 1.2324(7) 0.1853(4)
C31 C 0.3168(7) 1.4330(11) 0.1001(11)
H19 H 0.3196 1.5196 0.1170
C32 C 0.3439(4) 1.3963(17) 0.0371(11)
H20 H 0.3649 1.4584 0.0119
C33 C 0.3397(5) 1.267(2) 0.0118(5)
H21 H 0.3579 1.2423 -0.0304
C34 C 0.3084(6) 1.1739(10) 0.0495(10)
H22 H 0.3055 1.0873 0.0325
C35 C 0.2812(4) 1.2106(18) 0.1125(10)
H23 H 0.2602 1.1485 0.1377
C36 C 0.2854(6) 1.340(2) 0.1378(5)
H24 H 0.2673 1.3646 0.1800
C37 C 0.0834(4) 0.5494(11) 0.8862(6)
H25 H 0.0593 0.4927 0.9107
C38 C 0.1133(5) 0.5030(8) 0.8273(7)
H26 H 0.1093 0.4154 0.8123
C39 C 0.1493(4) 0.5876(14) 0.7908(4)
H27 H 0.1693 0.5567 0.7514
C40 C 0.1554(3) 0.7186(13) 0.8133(5)
H28 H 0.1794 0.7752 0.7888
C41 C 0.1254(4) 0.7649(8) 0.8722(5)
H29 H 0.1295 0.8525 0.8872
C42 C 0.0895(3) 0.6803(12) 0.9087(4)
H30 H 0.0694 0.7113 0.9481
O14? O 0.3774(8) 1.5650(18) 0.2889(9)
O15? O 0.3637(8) 1.7384(15) 0.2224(13)
O16? O 0.4234(17) 1.586(4) 0.202(2)
loop_
_geom_bond_atom_site_label_1
_geom_bond_atom_site_label_2
_geom_bond_site_symmetry_1
_geom_bond_site_symmetry_2
Ag1 N4 1_555 1_555
Ag2 N2 1_555 1_555
N1 C1 1_555 1_555
N2 C1 1_555 1_555
N3 C11 1_555 1_555
N4 C12 1_555 1_555
N5 C21 1_555 1_555
N6 C21 1_555 1_555
N7 O11 1_555 1_555
N8 O1 1_555 1_555
O2 Ag1 1_555 1_555
O3 N8 1_555 1_555
N9 C44 1_555 1_555
O4 C4 1_555 1_555
O5 Ag2 1_555 1_555
O6 C2 1_555 1_555
O7 C10 1_555 1_555
O8 C13 1_555 1_555
O9 C20 1_555 1_555
O10 C24 1_555 1_555
O12 N7 1_555 1_555
O13 N7 1_555 1_555
C1 H1 1_555 1_555
C2 N1 1_555 1_555
C3 C2 1_555 1_555
H2 C3 1_555 1_555
C4 N2 1_555 1_555
C5 O6 1_555 1_555
C6 C5 1_555 1_555
H3 C6 1_555 1_555
C7 C6 1_555 1_555
H4 C7 1_555 1_555
C8 C7 1_555 1_555
H5 C8 1_555 1_555
C9 C8 1_555 1_555
H6 C9 1_555 1_555
C10 C5 1_555 1_555
C11 O7 1_555 1_555
C12 N3 1_555 1_555
H7 C12 1_555 1_555
C13 N4 1_555 1_555
C14 C11 1_555 1_555
H8 C14 1_555 1_555
C15 O8 1_555 1_555
C16 C15 1_555 1_555
H9 C16 1_555 1_555
C17 C16 1_555 1_555
H10 C17 1_555 1_555
C18 C17 1_555 1_555
H11 C18 1_555 1_555
C19 C18 1_555 1_555
H12 C19 1_555 1_555
C20 C15 1_555 1_555
C21 H13 1_555 1_555
C22 N6 1_555 1_555
C23 C22 1_555 1_555
H14 C23 1_555 1_555
C24 N5 1_555 1_555
C25 H15 1_555 1_555
C26 C25 1_555 1_555
H16 C26 1_555 1_555
C27 C26 1_555 1_555
H17 C27 1_555 1_555
C28 C27 1_555 1_555
H18 C28 1_555 1_555
C29 O4 1_555 1_555
C30 O10 1_555 1_555
C31 H19 1_555 1_555
C32 C31 1_555 1_555
H20 C32 1_555 1_555
C33 C32 1_555 1_555
H21 C33 1_555 1_555
C34 C33 1_555 1_555
H22 C34 1_555 1_555
C35 C34 1_555 1_555
H23 C35 1_555 1_555
C36 C31 1_555 1_555
H24 C36 1_555 1_555
C37 H25 1_555 1_555
C38 C37 1_555 1_555
H26 C38 1_555 1_555
C39 C38 1_555 1_555
H27 C39 1_555 1_555
C40 C39 1_555 1_555
H28 C40 1_555 1_555
C41 C40 1_555 1_555
H29 C41 1_555 1_555
C42 C37 1_555 1_555
H30 C42 1_555 1_555
C43 C44 1_555 1_555
H31 O5 1_555 1_555
H32 O5 1_555 1_555
Ag1_2 N1 1_555 1_555
Ag1C N5 1_555 1_555
Ag2_2 N6 1_555 1_555
Ag2C N3 1_555 1_555
N1_2 Ag1 1_555 1_555
N3C Ag2 1_555 1_555
N5C Ag1 1_555 1_555
N6_2 Ag2 1_555 1_555
N8 O2 1_555 1_555
O9 C22 1_555 1_555
C3 C4 1_555 1_555
C9 C10 1_555 1_555
C13 C14 1_555 1_555
C19 C20 1_555 1_555
C23 C24 1_555 1_555
C25 C30 1_555 1_555
C28 C29 1_555 1_555
C29 C30 1_555 1_555
C35 C36 1_555 1_555
C41 C42 1_555 1_555

#END
