
#######################################################################
#
#                 Cambridge Crystallographic Data Centre
#                                CCDC 
#
#######################################################################
#
# If this CIF has been generated from an entry in the Cambridge 
# Structural Database, then it will include bibliographic, chemical, 
# crystal, experimental, refinement or atomic coordinate data resulting 
# from the CCDC's data processing and validation procedures.
#
#######################################################################

data_AMIYEB
_symmetry_cell_setting           triclinic
_symmetry_space_group_name_H-M   'P -1'
_symmetry_Int_Tables_number      2
_space_group_name_Hall           '-P 1'
loop_
_symmetry_equiv_pos_site_id
_symmetry_equiv_pos_as_xyz
1 x,y,z
2 -x,-y,-z
_cell_length_a                   7.5211(1)
_cell_length_b                   10.0303(2)
_cell_length_c                   10.4364(2)
_cell_angle_alpha                87.805(1)
_cell_angle_beta                 82.549(1)
_cell_angle_gamma                86.299(1)
_cell_volume                     778.678
loop_
_atom_site_label
_atom_site_type_symbol
_atom_site_fract_x
_atom_site_fract_y
_atom_site_fract_z
Yb1 Yb 0.279247(14) 0.735352(11) 0.452678(10)
O1 O 0.2896(3) 0.5690(2) 0.32235(18)
O2 O 0.2616(3) 0.3590(2) 0.28094(19)
O3 O 0.2787(3) 0.75576(19) -0.32493(17)
O4 O 0.2358(3) 0.5531(2) -0.37647(17)
O5 O 0.1401(2) 0.8529(2) 0.29651(18)
O6 O -0.1563(3) 0.8525(2) 0.31850(19)
O7 O 0.4929(3) 0.8217(2) 0.2884(2)
O8 O 0.2988(4) 0.9574(2) 0.4979(2)
O9 O -0.0189(3) 0.7310(3) 0.5177(2)
O10 O 0.5700(3) 0.6593(2) 0.4869(2)
H1 H 0.466(5) 0.888(4) 0.264(4)
H2 H 0.252(5) 0.998(4) 0.560(4)
H4 H 0.626(6) 0.602(4) 0.438(4)
H5 H 0.598(5) 0.652(4) 0.555(4)
H6 H 0.590(6) 0.824(4) 0.302(4)
H8 H 0.330(6) 1.005(4) 0.438(4)
H9 H -0.076(5) 0.684(4) 0.573(4)
H10 H -0.083(6) 0.759(5) 0.466(5)
C1 C 0.2715(3) 0.4786(3) 0.2457(2)
C2 C 0.2648(4) 0.5172(3) 0.1057(2)
C3 C 0.2908(4) 0.6470(3) 0.0635(3)
H11 H 0.3124 0.7100 0.1218
C4 C 0.2851(4) 0.6844(3) -0.0649(3)
H12 H 0.3017 0.7726 -0.0921
C5 C 0.2549(4) 0.5918(3) -0.1530(2)
C6 C 0.2290(4) 0.4609(3) -0.1117(3)
H13 H 0.2097 0.3976 -0.1704
C7 C 0.2319(4) 0.4243(3) 0.0179(3)
H14 H 0.2117 0.3368 0.0459
C8 C 0.2557(3) 0.6345(3) -0.2917(2)
C9 C -0.0080(3) 0.8775(3) 0.2555(2)
C10 C -0.0053(3) 0.9418(3) 0.1233(2)
C11 C -0.1507(4) 0.9373(3) 0.0553(3)
H15 H -0.2523 0.8950 0.0923
C12 C 0.1456(4) 1.0047(3) 0.0673(3)
H16 H 0.2440 1.0078 0.1124
Yb1A Yb -0.279247(14) 1.264648(11) -0.452678(10)
Yb1_2 Yb 0.279247(14) 0.735352(11) -0.547322(10)
Yb1A_2 Yb -0.279247(14) 1.264648(11) 0.547322(10)
O1A O -0.2896(3) 1.4310(2) -0.32235(18)
O2A O -0.2616(3) 1.6410(2) -0.28094(19)
O3A O -0.2787(3) 1.24424(19) 0.32493(17)
O3_2 O 0.2787(3) 0.75576(19) 0.67507(17)
O3A_2 O -0.2787(3) 1.24424(19) -0.67507(17)
O4A O -0.2358(3) 1.4469(2) 0.37647(17)
O4_2 O 0.2358(3) 0.5531(2) 0.62353(17)
O4A_2 O -0.2358(3) 1.4469(2) -0.62353(17)
O5A O -0.1401(2) 1.1471(2) -0.29651(18)
O6A O 0.1563(3) 1.1475(2) -0.31850(19)
O7A O -0.4929(3) 1.1783(2) -0.2884(2)
O8A O -0.2988(4) 1.0426(2) -0.4979(2)
O9A O 0.0189(3) 1.2690(3) -0.5177(2)
O10A O -0.5700(3) 1.3407(2) -0.4869(2)
H1A H -0.466(5) 1.112(4) -0.264(4)
H2A H -0.252(5) 1.002(4) -0.560(4)
H4A H -0.626(6) 1.398(4) -0.438(4)
H5A H -0.598(5) 1.348(4) -0.555(4)
H6A H -0.590(6) 1.176(4) -0.302(4)
H8A H -0.330(6) 0.995(4) -0.438(4)
H9A H 0.076(5) 1.316(4) -0.573(4)
H10A H 0.083(6) 1.241(5) -0.466(5)
C1A C -0.2715(3) 1.5214(3) -0.2457(2)
C2A C -0.2648(4) 1.4828(3) -0.1057(2)
C3A C -0.2908(4) 1.3530(3) -0.0635(3)
H11A H -0.3124 1.2900 -0.1218
C4A C -0.2851(4) 1.3156(3) 0.0649(3)
H12A H -0.3017 1.2274 0.0921
C5A C -0.2549(4) 1.4082(3) 0.1530(2)
C6A C -0.2290(4) 1.5391(3) 0.1117(3)
H13A H -0.2097 1.6024 0.1704
C7A C -0.2319(4) 1.5757(3) -0.0179(3)
H14A H -0.2117 1.6632 -0.0459
C8A C -0.2557(3) 1.3655(3) 0.2917(2)
C8_2 C 0.2557(3) 0.6345(3) 0.7083(2)
C8A_2 C -0.2557(3) 1.3655(3) -0.7083(2)
C9A C 0.0080(3) 1.1225(3) -0.2555(2)
C10A C 0.0053(3) 1.0582(3) -0.1233(2)
C11A C 0.1507(4) 1.0627(3) -0.0553(3)
H15A H 0.2523 1.1050 -0.0923
C12A C -0.1456(4) 0.9953(3) -0.0673(3)
H16A H -0.2440 0.9922 -0.1124
O11 O 0.4287(4) 0.1028(3) 0.2768(3)
H3 H 0.373(6) 0.155(4) 0.257(4)
H7 H 0.516(6) 0.132(4) 0.282(4)
loop_
_geom_bond_atom_site_label_1
_geom_bond_atom_site_label_2
_geom_bond_site_symmetry_1
_geom_bond_site_symmetry_2
Yb1 O1 1_555 1_555
O1 C1 1_555 1_555
O2 C1 1_555 1_555
O3 C8 1_555 1_555
O4 C8 1_555 1_555
O5 Yb1 1_555 1_555
O6 C9 1_555 1_555
O7 Yb1 1_555 1_555
O8 Yb1 1_555 1_555
O9 Yb1 1_555 1_555
O10 Yb1 1_555 1_555
O11 H3 1_555 1_555
H1 O7 1_555 1_555
H2 O8 1_555 1_555
H4 O10 1_555 1_555
H5 O10 1_555 1_555
H6 O7 1_555 1_555
H7 O11 1_555 1_555
H8 O8 1_555 1_555
H9 O9 1_555 1_555
H10 O9 1_555 1_555
C1 C2 1_555 1_555
C2 C3 1_555 1_555
C3 H11 1_555 1_555
C4 C3 1_555 1_555
H12 C4 1_555 1_555
C5 C4 1_555 1_555
C6 C5 1_555 1_555
H13 C6 1_555 1_555
C7 C2 1_555 1_555
H14 C7 1_555 1_555
C8 C5 1_555 1_555
C9 O5 1_555 1_555
C10 C9 1_555 1_555
C11 C10 1_555 1_555
H15 C11 1_555 1_555
C12 C10 1_555 1_555
H16 C12 1_555 1_555
Yb1A O1A 1_555 1_555
Yb1_2 O3 1_555 1_555
Yb1A_2 O3A 1_555 1_555
O1A C1A 1_555 1_555
O2A C1A 1_555 1_555
O3A C8A 1_555 1_555
O3_2 Yb1 1_555 1_555
O3A_2 Yb1A 1_555 1_555
O4A Yb1A_2 1_555 1_555
O4_2 Yb1 1_555 1_555
O4A_2 Yb1A 1_555 1_555
O5A Yb1A 1_555 1_555
O6A C9A 1_555 1_555
O7A Yb1A 1_555 1_555
O8A Yb1A 1_555 1_555
O9A Yb1A 1_555 1_555
O10A Yb1A 1_555 1_555
H1A O7A 1_555 1_555
H2A O8A 1_555 1_555
H4A O10A 1_555 1_555
H5A O10A 1_555 1_555
H6A O7A 1_555 1_555
H8A O8A 1_555 1_555
H9A O9A 1_555 1_555
H10A O9A 1_555 1_555
C1A C2A 1_555 1_555
C2A C3A 1_555 1_555
C3A H11A 1_555 1_555
C4A C3A 1_555 1_555
H12A C4A 1_555 1_555
C5A C4A 1_555 1_555
C6A C5A 1_555 1_555
H13A C6A 1_555 1_555
C7A C2A 1_555 1_555
H14A C7A 1_555 1_555
C8A O4A 1_555 1_555
C8_2 O3_2 1_555 1_555
C8A_2 O3A_2 1_555 1_555
C9A O5A 1_555 1_555
C10A C9A 1_555 1_555
C11A C12 1_555 1_555
H15A C11A 1_555 1_555
C12A C11 1_555 1_555
H16A C12A 1_555 1_555
O4 Yb1_2 1_555 1_555
C6 C7 1_555 1_555
O4_2 C8_2 1_555 1_555
O4A_2 C8A_2 1_555 1_555
C5A C8A 1_555 1_555
C6A C7A 1_555 1_555
C10A C11A 1_555 1_555
C10A C12A 1_555 1_555

#END
