
#######################################################################
#
#                 Cambridge Crystallographic Data Centre
#                                CCDC 
#
#######################################################################
#
# If this CIF has been generated from an entry in the Cambridge 
# Structural Database, then it will include bibliographic, chemical, 
# crystal, experimental, refinement or atomic coordinate data resulting 
# from the CCDC's data processing and validation procedures.
#
#######################################################################

data_AMIYUQ
_symmetry_cell_setting           monoclinic
_symmetry_space_group_name_H-M   'C 2/c'
_symmetry_Int_Tables_number      15
_space_group_name_Hall           '-C 2yn'
loop_
_symmetry_equiv_pos_site_id
_symmetry_equiv_pos_as_xyz
1 x,y,z
2 1/2+x,1/2+y,z
3 x,-y,1/2+z
4 1/2+x,1/2-y,1/2+z
5 -x,-y,-z
6 1/2-x,1/2-y,-z
7 -x,y,1/2-z
8 1/2-x,1/2+y,1/2-z
_cell_length_a                   20.9868(6)
_cell_length_b                   21.5521(7)
_cell_length_c                   8.3162(3)
_cell_angle_alpha                90
_cell_angle_beta                 103.9500(10)
_cell_angle_gamma                90
_cell_volume                     3650.56
loop_
_atom_site_label
_atom_site_type_symbol
_atom_site_fract_x
_atom_site_fract_y
_atom_site_fract_z
Nd1 Nd 0.0000 0.287358(10) 0.2500
Nd2 Nd 0.0000 0.206239(10) -0.2500
O1 O 0.07012(12) 0.20786(9) 0.3785(3)
O2 O 0.03342(13) 0.35609(10) 0.4996(3)
O3 O 0.06025(11) 0.24603(10) 0.0473(3)
O4 O 0.09402(15) 0.36151(14) 0.2372(4)
O5 O 0.05278(13) 0.14727(10) 0.5795(3)
O6 O 0.09615(13) 0.16248(11) -0.0531(3)
O7 O 0.06620(12) 0.29054(9) 0.7086(3)
C1 C 0.10418(18) 0.20446(15) 0.0527(5)
C2 C 0.16904(19) 0.20875(15) 0.1781(5)
C3 C 0.2091(2) 0.25926(19) 0.1652(5)
H1 H 0.1936 0.2904 0.0884
C4 C 0.2727(2) 0.2630(2) 0.2679(6)
H2 H 0.3000 0.2960 0.2573
C5 C 0.2942(2) 0.2182(2) 0.3831(6)
H3 H 0.3358 0.2212 0.4537
C6 C 0.25472(19) 0.1685(2) 0.3957(5)
H4 H 0.2705 0.1382 0.4749
C7 C 0.19165(17) 0.16189(16) 0.2938(4)
C8 C 0.15439(18) 0.10416(16) 0.3094(4)
C9 C 0.1786(2) 0.04794(18) 0.2604(5)
H5 H 0.2151 0.0489 0.2155
C10 C 0.1496(3) -0.00813(19) 0.2771(6)
H6 H 0.1665 -0.0445 0.2434
C11 C 0.0956(3) -0.01052(18) 0.3439(5)
H7 H 0.0750 -0.0481 0.3527
C12 C 0.0727(2) 0.04340(16) 0.3973(5)
H8 H 0.0373 0.0414 0.4462
C13 C 0.10050(18) 0.10107(15) 0.3809(4)
C14 C 0.07241(16) 0.15617(15) 0.4501(4)
C15 C 0.05622(16) 0.34434(14) 0.6491(4)
C16 C 0.07733(18) 0.39722(14) 0.7686(4)
C17 C 0.03566(17) 0.44564(14) 0.7906(4)
C18 C 0.0624(2) 0.49465(16) 0.8965(5)
H9 H 0.0354 0.5273 0.9117
C19 C 0.1278(2) 0.49542(18) 0.9784(5)
H10 H 0.1446 0.5288 1.0465
C20 C 0.1686(2) 0.44702(17) 0.9600(5)
H11 H 0.2126 0.4473 1.0168
C21 C 0.14355(19) 0.39833(17) 0.8570(4)
H12 H 0.1709 0.3655 0.8455
H13 H 0.109(3) 0.372(3) 0.143(5)
H14 H 0.094(4) 0.397(2) 0.304(8)
C17F C -0.03566(17) 0.44564(14) 0.7094(4)
C16F C -0.07733(18) 0.39722(14) 0.7314(4)
C15F C -0.05622(16) 0.34434(14) 0.8509(4)
O2F O -0.03342(13) 0.35609(10) 1.0004(3)
O7F O -0.06620(12) 0.29054(9) 0.7914(3)
C21F C -0.14355(19) 0.39833(17) 0.6430(4)
C20F C -0.1686(2) 0.44702(17) 0.5400(5)
C19F C -0.1278(2) 0.49542(18) 0.5216(5)
C18F C -0.0624(2) 0.49465(16) 0.6035(5)
H9F H -0.0354 0.5273 0.5883
H10F H -0.1446 0.5288 0.4535
H11F H -0.2126 0.4473 0.4832
H12F H -0.1709 0.3655 0.6545
O1F O -0.07012(12) 0.20786(9) 0.1215(3)
O3F O -0.06025(11) 0.24603(10) 0.4527(3)
O5F O -0.05278(13) 0.14727(10) -0.0795(3)
O6F O -0.09615(13) 0.16248(11) 0.5531(3)
C1F C -0.10418(18) 0.20446(15) 0.4473(5)
C2F C -0.16904(19) 0.20875(15) 0.3219(5)
C3F C -0.2091(2) 0.25926(19) 0.3348(5)
H1F H -0.1936 0.2904 0.4116
C4F C -0.2727(2) 0.2630(2) 0.2321(6)
H2F H -0.3000 0.2960 0.2427
C5F C -0.2942(2) 0.2182(2) 0.1169(6)
H3F H -0.3358 0.2212 0.0463
C6F C -0.25472(19) 0.1685(2) 0.1043(5)
H4F H -0.2705 0.1382 0.0251
C7F C -0.19165(17) 0.16189(16) 0.2062(4)
C8F C -0.15439(18) 0.10416(16) 0.1906(4)
C9F C -0.1786(2) 0.04794(18) 0.2396(5)
H5F H -0.2151 0.0489 0.2845
C10F C -0.1496(3) -0.00813(19) 0.2229(6)
H6F H -0.1665 -0.0445 0.2566
C11F C -0.0956(3) -0.01052(18) 0.1561(5)
H7F H -0.0750 -0.0481 0.1473
C12F C -0.0727(2) 0.04340(16) 0.1027(5)
H8F H -0.0373 0.0414 0.0538
C13F C -0.10050(18) 0.10107(15) 0.1191(4)
C14F C -0.07241(16) 0.15617(15) 0.0499(4)
O4F O -0.09402(15) 0.36151(14) 0.2628(4)
H13F H -0.109(3) 0.372(3) 0.357(5)
H14F H -0.094(4) 0.397(2) 0.196(8)
O2F_2 O -0.03342(13) 0.35609(10) 0.0004(3)
O3F_2 O -0.06025(11) 0.24603(10) -0.5473(3)
O5_2 O 0.05278(13) 0.14727(10) -0.4205(3)
O6F_2 O -0.09615(13) 0.16248(11) -0.4469(3)
O7_2 O 0.06620(12) 0.29054(9) -0.2914(3)
O7F_2 O -0.06620(12) 0.29054(9) -0.2086(3)
Nd2_2 Nd 0.0000 0.206239(10) 0.7500
Nd1_2 Nd 0.0000 0.287358(10) 1.2500
loop_
_geom_bond_atom_site_label_1
_geom_bond_atom_site_label_2
_geom_bond_site_symmetry_1
_geom_bond_site_symmetry_2
Nd1 O1 1_555 1_555
Nd2 O3 1_555 1_555
O1 C14 1_555 1_555
O2 Nd1 1_555 1_555
O3 Nd1 1_555 1_555
O4 Nd1 1_555 1_555
O5 C14 1_555 1_555
O6 Nd2 1_555 1_555
O7 C15 1_555 1_555
C1 O3 1_555 1_555
C2 C1 1_555 1_555
C3 C2 1_555 1_555
H1 C3 1_555 1_555
C4 C3 1_555 1_555
H2 C4 1_555 1_555
C5 C4 1_555 1_555
H3 C5 1_555 1_555
C6 C5 1_555 1_555
H4 C6 1_555 1_555
C7 C2 1_555 1_555
C8 C7 1_555 1_555
C9 C8 1_555 1_555
H5 C9 1_555 1_555
C10 C9 1_555 1_555
H6 C10 1_555 1_555
C11 C10 1_555 1_555
H7 C11 1_555 1_555
C12 C11 1_555 1_555
H8 C12 1_555 1_555
C13 C8 1_555 1_555
C14 C13 1_555 1_555
C15 O2 1_555 1_555
C16 C15 1_555 1_555
C17 C16 1_555 1_555
C18 C17 1_555 1_555
H9 C18 1_555 1_555
C19 C18 1_555 1_555
H10 C19 1_555 1_555
C20 C19 1_555 1_555
H11 C20 1_555 1_555
C21 C16 1_555 1_555
H12 C21 1_555 1_555
H13 O4 1_555 1_555
H14 O4 1_555 1_555
C17F C17 1_555 1_555
C16F C17F 1_555 1_555
C15F C16F 1_555 1_555
O2F C15F 1_555 1_555
O7F C15F 1_555 1_555
C21F C16F 1_555 1_555
C20F C21F 1_555 1_555
C19F C20F 1_555 1_555
C18F C17F 1_555 1_555
H9F C18F 1_555 1_555
H10F C19F 1_555 1_555
H11F C20F 1_555 1_555
H12F C21F 1_555 1_555
O1F Nd1 1_555 1_555
O3F Nd1 1_555 1_555
O5F Nd2 1_555 1_555
O6F C1F 1_555 1_555
C1F O3F 1_555 1_555
C2F C1F 1_555 1_555
C3F C2F 1_555 1_555
H1F C3F 1_555 1_555
C4F C3F 1_555 1_555
H2F C4F 1_555 1_555
C5F C4F 1_555 1_555
H3F C5F 1_555 1_555
C6F C5F 1_555 1_555
H4F C6F 1_555 1_555
C7F C2F 1_555 1_555
C8F C7F 1_555 1_555
C9F C8F 1_555 1_555
H5F C9F 1_555 1_555
C10F C9F 1_555 1_555
H6F C10F 1_555 1_555
C11F C10F 1_555 1_555
H7F C11F 1_555 1_555
C12F C11F 1_555 1_555
H8F C12F 1_555 1_555
C13F C8F 1_555 1_555
C14F O1F 1_555 1_555
O4F Nd1 1_555 1_555
H13F O4F 1_555 1_555
H14F O4F 1_555 1_555
O2F_2 Nd1 1_555 1_555
O3F_2 Nd2 1_555 1_555
O5_2 Nd2 1_555 1_555
O6F_2 Nd2 1_555 1_555
O7_2 Nd2 1_555 1_555
O7F_2 Nd2 1_555 1_555
Nd2_2 O5 1_555 1_555
Nd1_2 O2F 1_555 1_555
O6 C1 1_555 1_555
O7 Nd2_2 1_555 1_555
C6 C7 1_555 1_555
C12 C13 1_555 1_555
C20 C21 1_555 1_555
O7F Nd2_2 1_555 1_555
C19F C18F 1_555 1_555
O3F Nd2_2 1_555 1_555
O5F C14F 1_555 1_555
O6F Nd2_2 1_555 1_555
C6F C7F 1_555 1_555
C12F C13F 1_555 1_555
C13F C14F 1_555 1_555

#END
