
#######################################################################
#
#                 Cambridge Crystallographic Data Centre
#                                CCDC 
#
#######################################################################
#
# If this CIF has been generated from an entry in the Cambridge 
# Structural Database, then it will include bibliographic, chemical, 
# crystal, experimental, refinement or atomic coordinate data resulting 
# from the CCDC's data processing and validation procedures.
#
#######################################################################

data_AMIYUQ01
_symmetry_cell_setting           monoclinic
_symmetry_space_group_name_H-M   'C 2/c'
_symmetry_Int_Tables_number      15
_space_group_name_Hall           '-C 2yn'
loop_
_symmetry_equiv_pos_site_id
_symmetry_equiv_pos_as_xyz
1 x,y,z
2 1/2+x,1/2+y,z
3 -x,y,1/2-z
4 1/2-x,1/2+y,1/2-z
5 -x,-y,-z
6 1/2-x,1/2-y,-z
7 x,-y,1/2+z
8 1/2+x,1/2-y,1/2+z
_cell_length_a                   20.969(4)
_cell_length_b                   21.511(4)
_cell_length_c                   8.3076(17)
_cell_angle_alpha                90
_cell_angle_beta                 103.97(3)
_cell_angle_gamma                90
_cell_volume                     3636.43
loop_
_atom_site_label
_atom_site_type_symbol
_atom_site_fract_x
_atom_site_fract_y
_atom_site_fract_z
Nd1 Nd 0.0000 0.206266(7) 0.7500
Nd2 Nd 0.0000 0.287386(7) 1.2500
C1 C 0.05628(11) 0.34424(10) 0.6489(3)
O1 O 0.06047(8) 0.24626(8) 1.04783(18)
O2 O 0.06620(9) 0.29034(8) 0.7091(2)
O3 O 0.03317(10) 0.35620(8) 0.4998(2)
O4 O 0.09642(10) 0.16241(9) 0.9469(2)
O5 O 0.07000(8) 0.20780(8) 1.3783(2)
C2 C 0.07252(11) 0.15615(11) 1.4507(3)
C3 C 0.10435(12) 0.20482(11) 1.0529(3)
C4 C 0.06226(14) 0.49469(12) 0.8971(3)
H1 H 0.0351 0.5272 0.9120
C5 C 0.10053(13) 0.10071(12) 1.3815(3)
C6 C 0.07792(11) 0.39733(10) 0.7702(3)
C7 C 0.25496(13) 0.16786(15) 1.3967(3)
H2 H 0.2707 0.1374 1.4758
C8 C 0.07215(18) 0.04326(12) 1.3976(4)
H3 H 0.0365 0.0413 1.4456
C9 C 0.15460(13) 0.10432(13) 1.3084(3)
C10 C 0.0956(2) -0.01044(15) 1.3441(4)
H4 H 0.0753 -0.0482 1.3537
C11 C 0.16909(12) 0.20880(12) 1.1781(3)
C12 C 0.19211(12) 0.16167(12) 1.2946(3)
C13 C 0.14955(19) -0.00818(15) 1.2757(4)
H5 H 0.1661 -0.0445 1.2407
C14 C 0.20926(15) 0.25951(16) 1.1657(4)
H6 H 0.1937 0.2910 1.0895
C15 C 0.14385(14) 0.39804(14) 0.8578(3)
H7 H 0.1712 0.3651 0.8466
C16 C 0.12806(15) 0.49604(13) 0.9799(3)
H8 H 0.1449 0.5295 1.0479
C17 C 0.03551(12) 0.44532(11) 0.7910(3)
C18 C 0.16856(15) 0.44714(15) 0.9607(3)
H9 H 0.2126 0.4474 1.0174
C19 C 0.17866(18) 0.04820(14) 1.2599(4)
H10 H 0.2154 0.0491 1.2158
C20 C 0.29450(14) 0.21783(17) 1.3841(4)
H11 H 0.3361 0.2209 1.4550
C21 C 0.27292(17) 0.26296(19) 1.2679(4)
H12 H 0.3004 0.2958 1.2567
O6 O 0.05273(11) 0.14722(9) 1.5789(2)
O7 O 0.09389(12) 0.36127(11) 1.2366(3)
H13 H 0.109(2) 0.359(2) 1.157(4)
H14 H 0.093(2) 0.3946(10) 1.279(5)
Nd1_2 Nd 0.0000 0.206266(7) 1.7500
Nd1_3 Nd 0.0000 0.206266(7) -0.2500
Nd2_2 Nd 0.0000 0.287386(7) 0.2500
C1B C -0.05628(11) 0.34424(10) 0.8511(3)
O1B O -0.06047(8) 0.24626(8) 0.45217(18)
O1B_2 O -0.06047(8) 0.24626(8) 1.45217(18)
O2B O -0.06620(9) 0.29034(8) 0.7909(2)
O3B O -0.03317(10) 0.35620(8) 1.0002(2)
O3_2 O 0.03317(10) 0.35620(8) 1.4998(2)
O4B O -0.09642(10) 0.16241(9) 0.5531(2)
O5B O -0.07000(8) 0.20780(8) 0.1217(2)
O5B_2 O -0.07000(8) 0.20780(8) 1.1217(2)
C2B C -0.07252(11) 0.15615(11) 0.0493(3)
C3B C -0.10435(12) 0.20482(11) 0.4471(3)
C4B C -0.06226(14) 0.49469(12) 0.6029(3)
H1B H -0.0351 0.5272 0.5880
C5B C -0.10053(13) 0.10071(12) 0.1185(3)
C6B C -0.07792(11) 0.39733(10) 0.7298(3)
C7B C -0.25496(13) 0.16786(15) 0.1033(3)
H2B H -0.2707 0.1374 0.0242
C8B C -0.07215(18) 0.04326(12) 0.1024(4)
H3B H -0.0365 0.0413 0.0544
C9B C -0.15460(13) 0.10432(13) 0.1916(3)
C10B C -0.0956(2) -0.01044(15) 0.1559(4)
H4B H -0.0753 -0.0482 0.1463
C11B C -0.16909(12) 0.20880(12) 0.3219(3)
C12B C -0.19211(12) 0.16167(12) 0.2054(3)
C13B C -0.14955(19) -0.00818(15) 0.2243(4)
H5B H -0.1661 -0.0445 0.2593
C14B C -0.20926(15) 0.25951(16) 0.3343(4)
H6B H -0.1937 0.2910 0.4105
C15B C -0.14385(14) 0.39804(14) 0.6422(3)
H7B H -0.1712 0.3651 0.6534
C16B C -0.12806(15) 0.49604(13) 0.5201(3)
H8B H -0.1449 0.5295 0.4521
C17B C -0.03551(12) 0.44532(11) 0.7090(3)
C18B C -0.16856(15) 0.44714(15) 0.5393(3)
H9B H -0.2126 0.4474 0.4826
C19B C -0.17866(18) 0.04820(14) 0.2401(4)
H10B H -0.2154 0.0491 0.2842
C20B C -0.29450(14) 0.21783(17) 0.1159(4)
H11B H -0.3361 0.2209 0.0450
C21B C -0.27292(17) 0.26296(19) 0.2321(4)
H12B H -0.3004 0.2958 0.2433
O6B O -0.05273(11) 0.14722(9) -0.0789(2)
O6_2 O 0.05273(11) 0.14722(9) 0.5789(2)
O6B_2 O -0.05273(11) 0.14722(9) 0.9211(2)
O7B O -0.09389(12) 0.36127(11) 1.2634(3)
H13B H -0.109(2) 0.359(2) 1.343(4)
H14B H -0.093(2) 0.3946(10) 1.221(5)
loop_
_geom_bond_atom_site_label_1
_geom_bond_atom_site_label_2
_geom_bond_site_symmetry_1
_geom_bond_site_symmetry_2
Nd1 O1 1_555 1_555
Nd2 O1 1_555 1_555
C1 O2 1_555 1_555
O1 C3 1_555 1_555
O2 Nd1 1_555 1_555
O3 C1 1_555 1_555
O4 Nd1 1_555 1_555
O5 Nd2 1_555 1_555
C2 O5 1_555 1_555
C3 O4 1_555 1_555
C4 H1 1_555 1_555
C5 C2 1_555 1_555
C6 C1 1_555 1_555
C7 H2 1_555 1_555
C8 C5 1_555 1_555
H3 C8 1_555 1_555
C9 C5 1_555 1_555
C10 C8 1_555 1_555
H4 C10 1_555 1_555
C11 C3 1_555 1_555
C12 C7 1_555 1_555
C13 C10 1_555 1_555
H5 C13 1_555 1_555
C14 C11 1_555 1_555
H6 C14 1_555 1_555
C15 C6 1_555 1_555
H7 C15 1_555 1_555
C16 C4 1_555 1_555
H8 C16 1_555 1_555
C17 C4 1_555 1_555
C18 C15 1_555 1_555
H9 C18 1_555 1_555
C19 C9 1_555 1_555
H10 C19 1_555 1_555
C20 C7 1_555 1_555
H11 C20 1_555 1_555
C21 C14 1_555 1_555
H12 C21 1_555 1_555
O6 C2 1_555 1_555
O7 Nd2 1_555 1_555
H13 O7 1_555 1_555
H14 O7 1_555 1_555
Nd1_2 O6 1_555 1_555
Nd1_3 O6B 1_555 1_555
Nd2_2 O3 1_555 1_555
C1B O2B 1_555 1_555
O1B Nd1 1_555 1_555
O1B_2 Nd2 1_555 1_555
O2B Nd1 1_555 1_555
O3B Nd2 1_555 1_555
O3_2 Nd2 1_555 1_555
O4B Nd1 1_555 1_555
O5B Nd2_2 1_555 1_555
O5B_2 Nd2 1_555 1_555
C2B O5B 1_555 1_555
C3B O1B 1_555 1_555
C4B H1B 1_555 1_555
C5B C2B 1_555 1_555
C6B C1B 1_555 1_555
C7B H2B 1_555 1_555
C8B C5B 1_555 1_555
H3B C8B 1_555 1_555
C9B C5B 1_555 1_555
C10B C8B 1_555 1_555
H4B C10B 1_555 1_555
C11B C3B 1_555 1_555
C12B C7B 1_555 1_555
C13B C10B 1_555 1_555
H5B C13B 1_555 1_555
C14B C11B 1_555 1_555
H6B C14B 1_555 1_555
C15B C6B 1_555 1_555
H7B C15B 1_555 1_555
C16B C4B 1_555 1_555
H8B C16B 1_555 1_555
C17B C17 1_555 1_555
C18B C15B 1_555 1_555
H9B C18B 1_555 1_555
C19B C9B 1_555 1_555
H10B C19B 1_555 1_555
C20B C7B 1_555 1_555
H11B C20B 1_555 1_555
C21B C14B 1_555 1_555
H12B C21B 1_555 1_555
O6B C2B 1_555 1_555
O6_2 Nd1 1_555 1_555
O6B_2 Nd1 1_555 1_555
O7B Nd2 1_555 1_555
H13B O7B 1_555 1_555
H14B O7B 1_555 1_555
C6 C17 1_555 1_555
C9 C12 1_555 1_555
C11 C12 1_555 1_555
C13 C19 1_555 1_555
C16 C18 1_555 1_555
C20 C21 1_555 1_555
Nd1_2 O1B_2 1_555 1_555
Nd2_2 O1B 1_555 1_555
C1B O3B 1_555 1_555
O4B C3B 1_555 1_555
C4B C17B 1_555 1_555
C6B C17B 1_555 1_555
C9B C12B 1_555 1_555
C11B C12B 1_555 1_555
C13B C19B 1_555 1_555
C16B C18B 1_555 1_555
C20B C21B 1_555 1_555

#END
