
#######################################################################
#
#                 Cambridge Crystallographic Data Centre
#                                CCDC 
#
#######################################################################
#
# If this CIF has been generated from an entry in the Cambridge 
# Structural Database, then it will include bibliographic, chemical, 
# crystal, experimental, refinement or atomic coordinate data resulting 
# from the CCDC's data processing and validation procedures.
#
#######################################################################

data_AMIZEB
_symmetry_cell_setting           monoclinic
_symmetry_space_group_name_H-M   'C 2/c'
_symmetry_Int_Tables_number      15
_space_group_name_Hall           '-C 2yn'
loop_
_symmetry_equiv_pos_site_id
_symmetry_equiv_pos_as_xyz
1 x,y,z
2 1/2+x,1/2+y,z
3 x,-y,1/2+z
4 1/2+x,1/2-y,1/2+z
5 -x,-y,-z
6 1/2-x,1/2-y,-z
7 -x,y,1/2-z
8 1/2-x,1/2+y,1/2-z
_cell_length_a                   20.9371(5)
_cell_length_b                   21.3218(4)
_cell_length_c                   8.1858(2)
_cell_angle_alpha                90
_cell_angle_beta                 104.1790(10)
_cell_angle_gamma                90
_cell_volume                     3542.95
loop_
_atom_site_label
_atom_site_type_symbol
_atom_site_fract_x
_atom_site_fract_y
_atom_site_fract_z
Y1 Y 0.0000 0.28632(3) 0.2500
Y2 Y 0.0000 0.20768(3) -0.2500
O1 O 0.06835(15) 0.21044(13) 0.3783(4)
O2 O 0.03376(16) 0.35253(13) 0.4959(4)
O3 O 0.05682(15) 0.24664(14) 0.0475(4)
O4 O 0.08969(19) 0.35731(18) 0.2372(5)
O5 O 0.04746(16) 0.14915(14) 0.5805(4)
O6 O 0.09524(16) 0.16588(14) -0.0651(4)
O7 O 0.06571(15) 0.28770(13) 0.7146(4)
C1 C 0.1024(2) 0.2062(2) 0.0490(6)
C2 C 0.1671(2) 0.2091(2) 0.1788(6)
C3 C 0.2082(3) 0.2594(2) 0.1641(7)
H1 H 0.1927 0.2909 0.0858
C4 C 0.2719(3) 0.2629(3) 0.2650(7)
H2 H 0.2993 0.2959 0.2521
C5 C 0.2941(3) 0.2173(3) 0.3841(7)
H3 H 0.3361 0.2199 0.4552
C6 C 0.2536(3) 0.1679(3) 0.3968(6)
H4 H 0.2694 0.1370 0.4767
C7 C 0.1896(2) 0.1619(2) 0.2946(6)
C8 C 0.1517(2) 0.1043(2) 0.3123(5)
C9 C 0.1763(3) 0.0477(2) 0.2665(6)
H5 H 0.2131 0.0484 0.2220
C10 C 0.1472(3) -0.0093(3) 0.2854(7)
H6 H 0.1645 -0.0462 0.2537
C11 C 0.0925(3) -0.0112(3) 0.3516(7)
H7 H 0.0719 -0.0492 0.3618
C12 C 0.0689(3) 0.0444(2) 0.4024(6)
H8 H 0.0329 0.0432 0.4501
C13 C 0.0975(2) 0.1019(2) 0.3841(6)
C14 C 0.0691(2) 0.1577(2) 0.4509(6)
C15 C 0.0568(2) 0.3415(2) 0.6509(6)
C16 C 0.0784(2) 0.3962(2) 0.7710(6)
C17 C 0.0358(2) 0.44484(19) 0.7922(6)
C18 C 0.0625(3) 0.4954(2) 0.8954(6)
H9 H 0.0355 0.5286 0.9084
C19 C 0.1278(3) 0.4967(2) 0.9776(7)
H10 H 0.1445 0.5308 1.0453
C20 C 0.1697(3) 0.4475(2) 0.9611(6)
H11 H 0.2139 0.4482 1.0188
C21 C 0.1440(2) 0.3978(2) 0.8569(6)
H12 H 0.1715 0.3647 0.8446
H13 H 0.101(3) 0.361(3) 0.133(4)
H14 H 0.098(4) 0.3940(19) 0.303(7)
C17F C -0.0358(2) 0.44484(19) 0.7078(6)
C16F C -0.0784(2) 0.3962(2) 0.7290(6)
C15F C -0.0568(2) 0.3415(2) 0.8491(6)
O2F O -0.03376(16) 0.35253(13) 1.0041(4)
O7F O -0.06571(15) 0.28770(13) 0.7854(4)
C21F C -0.1440(2) 0.3978(2) 0.6431(6)
C20F C -0.1697(3) 0.4475(2) 0.5389(6)
C19F C -0.1278(3) 0.4967(2) 0.5224(7)
C18F C -0.0625(3) 0.4954(2) 0.6046(6)
H9F H -0.0355 0.5286 0.5916
H10F H -0.1445 0.5308 0.4547
H11F H -0.2139 0.4482 0.4812
H12F H -0.1715 0.3647 0.6554
O1F O -0.06835(15) 0.21044(13) 0.1217(4)
O3F O -0.05682(15) 0.24664(14) 0.4525(4)
O5F O -0.04746(16) 0.14915(14) -0.0805(4)
O6F O -0.09524(16) 0.16588(14) 0.5651(4)
C1F C -0.1024(2) 0.2062(2) 0.4510(6)
C2F C -0.1671(2) 0.2091(2) 0.3212(6)
C3F C -0.2082(3) 0.2594(2) 0.3359(7)
H1F H -0.1927 0.2909 0.4142
C4F C -0.2719(3) 0.2629(3) 0.2350(7)
H2F H -0.2993 0.2959 0.2479
C5F C -0.2941(3) 0.2173(3) 0.1159(7)
H3F H -0.3361 0.2199 0.0448
C6F C -0.2536(3) 0.1679(3) 0.1032(6)
H4F H -0.2694 0.1370 0.0233
C7F C -0.1896(2) 0.1619(2) 0.2054(6)
C8F C -0.1517(2) 0.1043(2) 0.1877(5)
C9F C -0.1763(3) 0.0477(2) 0.2335(6)
H5F H -0.2131 0.0484 0.2780
C10F C -0.1472(3) -0.0093(3) 0.2146(7)
H6F H -0.1645 -0.0462 0.2463
C11F C -0.0925(3) -0.0112(3) 0.1484(7)
H7F H -0.0719 -0.0492 0.1382
C12F C -0.0689(3) 0.0444(2) 0.0976(6)
H8F H -0.0329 0.0432 0.0499
C13F C -0.0975(2) 0.1019(2) 0.1159(6)
C14F C -0.0691(2) 0.1577(2) 0.0491(6)
O4F O -0.08969(19) 0.35731(18) 0.2628(5)
H13F H -0.101(3) 0.361(3) 0.367(4)
H14F H -0.098(4) 0.3940(19) 0.197(7)
O2F_2 O -0.03376(16) 0.35253(13) 0.0041(4)
O3F_2 O -0.05682(15) 0.24664(14) -0.5475(4)
O5_2 O 0.04746(16) 0.14915(14) -0.4195(4)
O6F_2 O -0.09524(16) 0.16588(14) -0.4349(4)
O7_2 O 0.06571(15) 0.28770(13) -0.2854(4)
O7F_2 O -0.06571(15) 0.28770(13) -0.2146(4)
Y2_2 Y 0.0000 0.20768(3) 0.7500
Y1_2 Y 0.0000 0.28632(3) 1.2500
loop_
_geom_bond_atom_site_label_1
_geom_bond_atom_site_label_2
_geom_bond_site_symmetry_1
_geom_bond_site_symmetry_2
Y1 O1 1_555 1_555
Y2 O3 1_555 1_555
O1 C14 1_555 1_555
O2 Y1 1_555 1_555
O3 Y1 1_555 1_555
O4 Y1 1_555 1_555
O5 C14 1_555 1_555
O6 Y2 1_555 1_555
O7 C15 1_555 1_555
C1 O3 1_555 1_555
C2 C1 1_555 1_555
C3 C2 1_555 1_555
H1 C3 1_555 1_555
C4 C3 1_555 1_555
H2 C4 1_555 1_555
C5 C4 1_555 1_555
H3 C5 1_555 1_555
C6 C5 1_555 1_555
H4 C6 1_555 1_555
C7 C2 1_555 1_555
C8 C7 1_555 1_555
C9 C8 1_555 1_555
H5 C9 1_555 1_555
C10 C9 1_555 1_555
H6 C10 1_555 1_555
C11 C10 1_555 1_555
H7 C11 1_555 1_555
C12 C11 1_555 1_555
H8 C12 1_555 1_555
C13 C8 1_555 1_555
C14 C13 1_555 1_555
C15 O2 1_555 1_555
C16 C15 1_555 1_555
C17 C16 1_555 1_555
C18 C17 1_555 1_555
H9 C18 1_555 1_555
C19 C18 1_555 1_555
H10 C19 1_555 1_555
C20 C19 1_555 1_555
H11 C20 1_555 1_555
C21 C16 1_555 1_555
H12 C21 1_555 1_555
H13 O4 1_555 1_555
H14 O4 1_555 1_555
C17F C17 1_555 1_555
C16F C17F 1_555 1_555
C15F C16F 1_555 1_555
O2F C15F 1_555 1_555
O7F C15F 1_555 1_555
C21F C16F 1_555 1_555
C20F C21F 1_555 1_555
C19F C20F 1_555 1_555
C18F C17F 1_555 1_555
H9F C18F 1_555 1_555
H10F C19F 1_555 1_555
H11F C20F 1_555 1_555
H12F C21F 1_555 1_555
O1F Y1 1_555 1_555
O3F Y1 1_555 1_555
O5F Y2 1_555 1_555
O6F C1F 1_555 1_555
C1F O3F 1_555 1_555
C2F C1F 1_555 1_555
C3F C2F 1_555 1_555
H1F C3F 1_555 1_555
C4F C3F 1_555 1_555
H2F C4F 1_555 1_555
C5F C4F 1_555 1_555
H3F C5F 1_555 1_555
C6F C5F 1_555 1_555
H4F C6F 1_555 1_555
C7F C2F 1_555 1_555
C8F C7F 1_555 1_555
C9F C8F 1_555 1_555
H5F C9F 1_555 1_555
C10F C9F 1_555 1_555
H6F C10F 1_555 1_555
C11F C10F 1_555 1_555
H7F C11F 1_555 1_555
C12F C11F 1_555 1_555
H8F C12F 1_555 1_555
C13F C8F 1_555 1_555
C14F O1F 1_555 1_555
O4F Y1 1_555 1_555
H13F O4F 1_555 1_555
H14F O4F 1_555 1_555
O2F_2 Y1 1_555 1_555
O3F_2 Y2 1_555 1_555
O5_2 Y2 1_555 1_555
O6F_2 Y2 1_555 1_555
O7_2 Y2 1_555 1_555
O7F_2 Y2 1_555 1_555
Y2_2 O5 1_555 1_555
Y1_2 O2F 1_555 1_555
O6 C1 1_555 1_555
O7 Y2_2 1_555 1_555
C6 C7 1_555 1_555
C12 C13 1_555 1_555
C20 C21 1_555 1_555
O7F Y2_2 1_555 1_555
C19F C18F 1_555 1_555
O3F Y2_2 1_555 1_555
O5F C14F 1_555 1_555
O6F Y2_2 1_555 1_555
C6F C7F 1_555 1_555
C12F C13F 1_555 1_555
C13F C14F 1_555 1_555

#END
