
#######################################################################
#
#                 Cambridge Crystallographic Data Centre
#                                CCDC 
#
#######################################################################
#
# If this CIF has been generated from an entry in the Cambridge 
# Structural Database, then it will include bibliographic, chemical, 
# crystal, experimental, refinement or atomic coordinate data resulting 
# from the CCDC's data processing and validation procedures.
#
#######################################################################

data_AMIZAX
_symmetry_cell_setting           monoclinic
_symmetry_space_group_name_H-M   'C 2/c'
_symmetry_Int_Tables_number      15
_space_group_name_Hall           '-C 2yn'
loop_
_symmetry_equiv_pos_site_id
_symmetry_equiv_pos_as_xyz
1 x,y,z
2 1/2+x,1/2+y,z
3 x,-y,1/2+z
4 1/2+x,1/2-y,1/2+z
5 -x,-y,-z
6 1/2-x,1/2-y,-z
7 -x,y,1/2-z
8 1/2-x,1/2+y,1/2-z
_cell_length_a                   20.9794(7)
_cell_length_b                   21.3829(7)
_cell_length_c                   8.2116(3)
_cell_angle_alpha                90
_cell_angle_beta                 104.0890(10)
_cell_angle_gamma                90
_cell_volume                     3572.92
loop_
_atom_site_label
_atom_site_type_symbol
_atom_site_fract_x
_atom_site_fract_y
_atom_site_fract_z
Dy1 Dy 0.0000 0.286558(11) 0.2500
Dy2 Dy 0.0000 0.207499(11) -0.2500
O1 O 0.06868(16) 0.20988(12) 0.3786(4)
O2 O 0.03348(16) 0.35292(13) 0.4970(4)
O3 O 0.05748(14) 0.24654(13) 0.0470(4)
O4 O 0.09071(19) 0.35810(17) 0.2371(5)
O5 O 0.04820(17) 0.14895(13) 0.5795(4)
O6 O 0.09576(16) 0.16541(14) -0.0632(4)
O7 O 0.06609(16) 0.28806(12) 0.7137(4)
C1 C 0.1023(2) 0.20566(18) 0.0491(6)
C2 C 0.1676(2) 0.2095(2) 0.1768(6)
C3 C 0.2081(3) 0.2597(2) 0.1631(7)
H1 H 0.1928 0.2912 0.0854
C4 C 0.2725(3) 0.2629(3) 0.2671(7)
H2 H 0.3002 0.2957 0.2559
C5 C 0.2935(3) 0.2176(3) 0.3834(8)
H3 H 0.3353 0.2202 0.4546
C6 C 0.2537(2) 0.1679(2) 0.3972(6)
H4 H 0.2694 0.1371 0.4769
C7 C 0.1903(2) 0.1623(2) 0.2946(6)
C8 C 0.1520(2) 0.1041(2) 0.3122(6)
C9 C 0.1767(3) 0.0469(2) 0.2659(7)
H5 H 0.2135 0.0472 0.2219
C10 C 0.1469(3) -0.0092(2) 0.2850(7)
H6 H 0.1638 -0.0463 0.2533
C11 C 0.0929(3) -0.0110(2) 0.3498(7)
H7 H 0.0722 -0.0488 0.3588
C12 C 0.0693(3) 0.04357(19) 0.4019(7)
H8 H 0.0336 0.0419 0.4503
C13 C 0.0978(2) 0.1016(2) 0.3837(6)
C14 C 0.0698(2) 0.15753(19) 0.4516(6)
C15 C 0.0564(2) 0.34208(18) 0.6499(6)
C16 C 0.0775(2) 0.39628(19) 0.7695(5)
C17 C 0.0358(2) 0.44500(19) 0.7912(6)
C18 C 0.0630(3) 0.4950(2) 0.8966(6)
H9 H 0.0360 0.5279 0.9117
C19 C 0.1285(3) 0.4964(2) 0.9780(7)
H10 H 0.1454 0.5305 1.0450
C20 C 0.1695(3) 0.4476(2) 0.9610(7)
H11 H 0.2136 0.4482 1.0180
C21 C 0.1440(2) 0.3978(2) 0.8580(6)
H12 H 0.1714 0.3646 0.8469
H13 H 0.115(4) 0.361(4) 0.154(9)
H14 H 0.096(4) 0.395(2) 0.302(8)
C17F C -0.0358(2) 0.44500(19) 0.7088(6)
C16F C -0.0775(2) 0.39628(19) 0.7305(5)
C15F C -0.0564(2) 0.34208(18) 0.8501(6)
O2F O -0.03348(16) 0.35292(13) 1.0030(4)
O7F O -0.06609(16) 0.28806(12) 0.7863(4)
C21F C -0.1440(2) 0.3978(2) 0.6420(6)
C20F C -0.1695(3) 0.4476(2) 0.5390(7)
C19F C -0.1285(3) 0.4964(2) 0.5220(7)
C18F C -0.0630(3) 0.4950(2) 0.6034(6)
H9F H -0.0360 0.5279 0.5883
H10F H -0.1454 0.5305 0.4550
H11F H -0.2136 0.4482 0.4820
H12F H -0.1714 0.3646 0.6531
O1F O -0.06868(16) 0.20988(12) 0.1214(4)
O3F O -0.05748(14) 0.24654(13) 0.4530(4)
O5F O -0.04820(17) 0.14895(13) -0.0795(4)
O6F O -0.09576(16) 0.16541(14) 0.5632(4)
C1F C -0.1023(2) 0.20566(18) 0.4509(6)
C2F C -0.1676(2) 0.2095(2) 0.3232(6)
C3F C -0.2081(3) 0.2597(2) 0.3369(7)
H1F H -0.1928 0.2912 0.4146
C4F C -0.2725(3) 0.2629(3) 0.2329(7)
H2F H -0.3002 0.2957 0.2441
C5F C -0.2935(3) 0.2176(3) 0.1166(8)
H3F H -0.3353 0.2202 0.0454
C6F C -0.2537(2) 0.1679(2) 0.1028(6)
H4F H -0.2694 0.1371 0.0231
C7F C -0.1903(2) 0.1623(2) 0.2054(6)
C8F C -0.1520(2) 0.1041(2) 0.1878(6)
C9F C -0.1767(3) 0.0469(2) 0.2341(7)
H5F H -0.2135 0.0472 0.2781
C10F C -0.1469(3) -0.0092(2) 0.2150(7)
H6F H -0.1638 -0.0463 0.2467
C11F C -0.0929(3) -0.0110(2) 0.1502(7)
H7F H -0.0722 -0.0488 0.1412
C12F C -0.0693(3) 0.04357(19) 0.0981(7)
H8F H -0.0336 0.0419 0.0497
C13F C -0.0978(2) 0.1016(2) 0.1163(6)
C14F C -0.0698(2) 0.15753(19) 0.0484(6)
O4F O -0.09071(19) 0.35810(17) 0.2629(5)
H13F H -0.115(4) 0.361(4) 0.346(9)
H14F H -0.096(4) 0.395(2) 0.198(8)
O2F_2 O -0.03348(16) 0.35292(13) 0.0030(4)
O3F_2 O -0.05748(14) 0.24654(13) -0.5470(4)
O5_2 O 0.04820(17) 0.14895(13) -0.4205(4)
O6F_2 O -0.09576(16) 0.16541(14) -0.4368(4)
O7_2 O 0.06609(16) 0.28806(12) -0.2863(4)
O7F_2 O -0.06609(16) 0.28806(12) -0.2137(4)
Dy2_2 Dy 0.0000 0.207499(11) 0.7500
Dy1_2 Dy 0.0000 0.286558(11) 1.2500
loop_
_geom_bond_atom_site_label_1
_geom_bond_atom_site_label_2
_geom_bond_site_symmetry_1
_geom_bond_site_symmetry_2
Dy1 O1 1_555 1_555
Dy2 O3 1_555 1_555
O1 C14 1_555 1_555
O2 Dy1 1_555 1_555
O3 Dy1 1_555 1_555
O4 Dy1 1_555 1_555
O5 C14 1_555 1_555
O6 Dy2 1_555 1_555
O7 C15 1_555 1_555
C1 O3 1_555 1_555
C2 C1 1_555 1_555
C3 C2 1_555 1_555
H1 C3 1_555 1_555
C4 C3 1_555 1_555
H2 C4 1_555 1_555
C5 C4 1_555 1_555
H3 C5 1_555 1_555
C6 C5 1_555 1_555
H4 C6 1_555 1_555
C7 C2 1_555 1_555
C8 C7 1_555 1_555
C9 C8 1_555 1_555
H5 C9 1_555 1_555
C10 C9 1_555 1_555
H6 C10 1_555 1_555
C11 C10 1_555 1_555
H7 C11 1_555 1_555
C12 C11 1_555 1_555
H8 C12 1_555 1_555
C13 C8 1_555 1_555
C14 C13 1_555 1_555
C15 O2 1_555 1_555
C16 C15 1_555 1_555
C17 C16 1_555 1_555
C18 C17 1_555 1_555
H9 C18 1_555 1_555
C19 C18 1_555 1_555
H10 C19 1_555 1_555
C20 C19 1_555 1_555
H11 C20 1_555 1_555
C21 C16 1_555 1_555
H12 C21 1_555 1_555
H13 O4 1_555 1_555
H14 O4 1_555 1_555
C17F C17 1_555 1_555
C16F C17F 1_555 1_555
C15F C16F 1_555 1_555
O2F C15F 1_555 1_555
O7F C15F 1_555 1_555
C21F C16F 1_555 1_555
C20F C21F 1_555 1_555
C19F C20F 1_555 1_555
C18F C17F 1_555 1_555
H9F C18F 1_555 1_555
H10F C19F 1_555 1_555
H11F C20F 1_555 1_555
H12F C21F 1_555 1_555
O1F Dy1 1_555 1_555
O3F Dy1 1_555 1_555
O5F Dy2 1_555 1_555
O6F C1F 1_555 1_555
C1F O3F 1_555 1_555
C2F C1F 1_555 1_555
C3F C2F 1_555 1_555
H1F C3F 1_555 1_555
C4F C3F 1_555 1_555
H2F C4F 1_555 1_555
C5F C4F 1_555 1_555
H3F C5F 1_555 1_555
C6F C5F 1_555 1_555
H4F C6F 1_555 1_555
C7F C2F 1_555 1_555
C8F C7F 1_555 1_555
C9F C8F 1_555 1_555
H5F C9F 1_555 1_555
C10F C9F 1_555 1_555
H6F C10F 1_555 1_555
C11F C10F 1_555 1_555
H7F C11F 1_555 1_555
C12F C11F 1_555 1_555
H8F C12F 1_555 1_555
C13F C8F 1_555 1_555
C14F O1F 1_555 1_555
O4F Dy1 1_555 1_555
H13F O4F 1_555 1_555
H14F O4F 1_555 1_555
O2F_2 Dy1 1_555 1_555
O3F_2 Dy2 1_555 1_555
O5_2 Dy2 1_555 1_555
O6F_2 Dy2 1_555 1_555
O7_2 Dy2 1_555 1_555
O7F_2 Dy2 1_555 1_555
Dy2_2 O5 1_555 1_555
Dy1_2 O2F 1_555 1_555
O6 C1 1_555 1_555
O7 Dy2_2 1_555 1_555
C6 C7 1_555 1_555
C12 C13 1_555 1_555
C20 C21 1_555 1_555
O7F Dy2_2 1_555 1_555
C19F C18F 1_555 1_555
O3F Dy2_2 1_555 1_555
O5F C14F 1_555 1_555
O6F Dy2_2 1_555 1_555
C6F C7F 1_555 1_555
C12F C13F 1_555 1_555
C13F C14F 1_555 1_555

#END
