
#######################################################################
#
#                 Cambridge Crystallographic Data Centre
#                                CCDC 
#
#######################################################################
#
# If this CIF has been generated from an entry in the Cambridge 
# Structural Database, then it will include bibliographic, chemical, 
# crystal, experimental, refinement or atomic coordinate data resulting 
# from the CCDC's data processing and validation procedures.
#
#######################################################################

data_AMOCAH
_symmetry_cell_setting           monoclinic
_symmetry_space_group_name_H-M   'C 2/c'
_symmetry_Int_Tables_number      15
_space_group_name_Hall           '-C 2yn'
loop_
_symmetry_equiv_pos_site_id
_symmetry_equiv_pos_as_xyz
1 x,y,z
2 -x,y,1/2-z
3 1/2+x,1/2+y,z
4 1/2-x,1/2+y,1/2-z
5 -x,-y,-z
6 x,-y,1/2+z
7 1/2-x,1/2-y,-z
8 1/2+x,1/2-y,1/2+z
_cell_length_a                   23.125(3)
_cell_length_b                   10.7039(7)
_cell_length_c                   21.391(5)
_cell_angle_alpha                90
_cell_angle_beta                 118.741(5)
_cell_angle_gamma                90
_cell_volume                     4642.55
loop_
_atom_site_label
_atom_site_type_symbol
_atom_site_fract_x
_atom_site_fract_y
_atom_site_fract_z
Cu1 Cu 0.26021(3) -0.12017(6) 0.01669(4)
Cu2 Cu 0.26973(3) 0.13401(6) 0.02179(4)
I1 I 0.220096(17) 0.00906(3) 0.094013(19)
I2 I 0.347494(17) 0.00090(3) -0.00928(2)
S1 S 0.31596(5) -0.30150(12) 0.09343(6)
S2 S 0.68264(5) -0.30623(12) -0.09746(6)
N1 N 0.40477(17) -0.3239(4) 0.0498(2)
H1 H 0.3755 -0.3674 0.0153
N2 N 0.59555(18) -0.3157(4) -0.0516(2)
H2 H 0.6241 -0.2726 -0.0163
N3 N 0.53815(18) -0.3487(4) -0.0535(2)
N4 N 0.46351(17) -0.2994(4) 0.0524(2)
N5 N 0.5649(2) -0.4134(4) -0.1579(2)
H3 H 0.524(4) -0.434(7) -0.161(4)
H4 H 0.574(2) -0.427(5) -0.187(3)
N6 N 0.4397(2) -0.2248(5) 0.1566(3)
H5 H 0.477(3) -0.206(6) 0.158(3)
H6 H 0.435(4) -0.190(7) 0.181(4)
C1 C 0.3921(2) -0.2809(4) 0.1007(2)
C2 C 0.4704(2) -0.3394(4) 0.0003(3)
H7 H 0.4370 -0.3846 -0.0365
C3 C 0.6084(2) -0.3491(4) -0.1037(2)
C4 C 0.5314(2) -0.3128(5) -0.0006(3)
H8 H 0.5653 -0.2701 0.0371
Cu1F Cu 0.23979(3) -0.37983(6) -0.01669(4)
Cu2B Cu 0.76973(3) -0.36599(6) 0.02179(4)
Cu2D Cu 0.73027(3) -0.13401(6) -0.02179(4)
S1F S 0.18404(5) -0.19850(12) -0.09343(6)
S2B S 0.18264(5) 0.19377(12) -0.09746(6)
S2D S 0.31736(5) 0.30623(12) 0.09746(6)
N7 N 0.3357(2) 0.6055(4) 0.2658(2)
O1 O 0.4259(2) 0.4938(3) 0.2824(3)
C8 C 0.39984(19) 0.5889(3) 0.2911(2)
H16 H 0.4276 0.6536 0.3177
C9 C 0.28849(19) 0.5120(3) 0.2239(2)
H17 H 0.2448 0.5412 0.2106
H18 H 0.2971 0.4367 0.2513
H19 H 0.2920 0.4955 0.1817
C10 C 0.3103(3) 0.7242(6) 0.2743(4)
H20 H 0.2632 0.7197 0.2531
H21 H 0.3222 0.7885 0.2512
H22 H 0.3289 0.7431 0.3241
N8 N 0.4147(2) 0.0711(5) 0.3117(3)
O2 O 0.4320(2) -0.1098(4) 0.2705(2)
C5 C 0.4086(3) -0.0038(6) 0.2617(4)
H9 H 0.3846 0.0246 0.2150
C6 C 0.4529(5) 0.0299(7) 0.3857(4)
H10 H 0.4533 0.0947 0.4169
H11 H 0.4974 0.0121 0.3961
H12 H 0.4333 -0.0441 0.3927
C7 C 0.38397(19) 0.1906(3) 0.2986(2)
H13 H 0.3949 0.2303 0.3431
H14 H 0.3370 0.1808 0.2712
H15 H 0.3993 0.2413 0.2725
loop_
_geom_bond_atom_site_label_1
_geom_bond_atom_site_label_2
_geom_bond_site_symmetry_1
_geom_bond_site_symmetry_2
Cu1 I1 1_555 1_555
Cu2 I1 1_555 1_555
I2 Cu1 1_555 1_555
S1 Cu1 1_555 1_555
S2 C3 1_555 1_555
N1 H1 1_555 1_555
N2 H2 1_555 1_555
N3 N2 1_555 1_555
N4 N1 1_555 1_555
N5 H3 1_555 1_555
H4 N5 1_555 1_555
N6 H5 1_555 1_555
H6 N6 1_555 1_555
N7 C8 1_555 1_555
N8 C5 1_555 1_555
O1 C8 1_555 1_555
O2 C5 1_555 1_555
C1 S1 1_555 1_555
C2 N4 1_555 1_555
H7 C2 1_555 1_555
C3 N2 1_555 1_555
C4 N3 1_555 1_555
H8 C4 1_555 1_555
C5 H9 1_555 1_555
C6 N8 1_555 1_555
H10 C6 1_555 1_555
H11 C6 1_555 1_555
H12 C6 1_555 1_555
C7 N8 1_555 1_555
H13 C7 1_555 1_555
H14 C7 1_555 1_555
H15 C7 1_555 1_555
C8 H16 1_555 1_555
C9 N7 1_555 1_555
H17 C9 1_555 1_555
H18 C9 1_555 1_555
H19 C9 1_555 1_555
C10 N7 1_555 1_555
H20 C10 1_555 1_555
H21 C10 1_555 1_555
H22 C10 1_555 1_555
Cu1F S1 1_555 1_555
Cu2B S2 1_555 1_555
Cu2D S2 1_555 1_555
S1F Cu1 1_555 1_555
S2B Cu2 1_555 1_555
S2D Cu2 1_555 1_555
Cu2 I2 1_555 1_555
N1 C1 1_555 1_555
N5 C3 1_555 1_555
N6 C1 1_555 1_555
C2 C4 1_555 1_555
Cu1F S1F 1_555 1_555

#END
