
#######################################################################
#
#                 Cambridge Crystallographic Data Centre
#                                CCDC 
#
#######################################################################
#
# If this CIF has been generated from an entry in the Cambridge 
# Structural Database, then it will include bibliographic, chemical, 
# crystal, experimental, refinement or atomic coordinate data resulting 
# from the CCDC's data processing and validation procedures.
#
#######################################################################

data_AMOROK
_symmetry_cell_setting           monoclinic
_symmetry_space_group_name_H-M   'P 21/c'
_symmetry_Int_Tables_number      14
_space_group_name_Hall           '-P 2ybc'
loop_
_symmetry_equiv_pos_site_id
_symmetry_equiv_pos_as_xyz
1 x,y,z
2 -x,1/2+y,1/2-z
3 -x,-y,-z
4 x,1/2-y,1/2+z
_cell_length_a                   10.814(2)
_cell_length_b                   13.113(3)
_cell_length_c                   7.1058(14)
_cell_angle_alpha                90
_cell_angle_beta                 104.51(3)
_cell_angle_gamma                90
_cell_volume                     975.491
loop_
_atom_site_label
_atom_site_type_symbol
_atom_site_fract_x
_atom_site_fract_y
_atom_site_fract_z
Sm1 Sm 0.49300(2) 0.423807(17) 0.24328(4)
P1 P 0.59921(13) 0.15111(10) 0.2797(2)
S1 S 1.23399(13) 0.08271(11) 0.2827(2)
O1 O 0.5390(5) 0.2555(3) 0.2461(8)
O2 O 0.5700(4) 0.0820(3) 0.0965(6)
O3 O 0.5544(4) 0.0880(3) 0.4341(6)
O4 O 1.2281(6) 0.1755(3) 0.1685(8)
O5 O 1.2921(5) 0.0996(4) 0.4881(7)
O6 O 1.2920(4) -0.0019(3) 0.1986(6)
O7 O 0.3149(5) 0.3571(4) 0.3498(7)
H1 H 0.2630 0.3216 0.2566
H2 H 0.2880 0.3625 0.4584
C1 C 0.7699(7) 0.1724(4) 0.3592(12)
H3 H 0.7878 0.2412 0.3235
H4 H 0.7953 0.1681 0.4999
C2 C 0.8528(6) 0.0985(5) 0.2769(10)
H5 H 0.8418 0.0301 0.3220
H6 H 0.8240 0.0984 0.1361
C3 C 0.9948(6) 0.1263(5) 0.3364(11)
H7 H 1.0072 0.1930 0.2850
H8 H 1.0235 0.1294 0.4770
C4 C 1.0732(6) 0.0474(5) 0.2594(11)
H9 H 1.0331 0.0352 0.1231
H10 H 1.0716 -0.0163 0.3284
Sm1A Sm 0.50700(2) -0.076193(17) 0.25672(4)
Sm1C Sm 0.49300(2) 0.076193(17) -0.25672(4)
Sm1C_2 Sm 0.49300(2) 0.076193(17) 0.74328(4)
Sm1C_3 Sm 1.49300(2) 0.076193(17) 0.74328(4)
Sm1A_2 Sm 1.50700(2) -0.076193(17) 0.25672(4)
O2A O 0.4300(4) 0.5820(3) 0.4035(6)
O2C O 0.5700(4) 0.4180(3) 0.5965(6)
O3A O 0.4456(4) 0.5880(3) 0.0659(6)
O3C O 0.5544(4) 0.4120(3) -0.0659(6)
O5C O 0.2921(5) 0.4004(4) -0.0119(7)
O6A O 0.7080(4) 0.4981(3) 0.3014(6)
loop_
_geom_bond_atom_site_label_1
_geom_bond_atom_site_label_2
_geom_bond_site_symmetry_1
_geom_bond_site_symmetry_2
Sm1 O1 1_555 1_555
P1 O1 1_555 1_555
S1 O4 1_555 1_555
O2 P1 1_555 1_555
O3 P1 1_555 1_555
O5 S1 1_555 1_555
O6 S1 1_555 1_555
O7 Sm1 1_555 1_555
H1 O7 1_555 1_555
H2 O7 1_555 1_555
C1 P1 1_555 1_555
H3 C1 1_555 1_555
H4 C1 1_555 1_555
C2 C1 1_555 1_555
H5 C2 1_555 1_555
H6 C2 1_555 1_555
C3 C2 1_555 1_555
H7 C3 1_555 1_555
H8 C3 1_555 1_555
C4 S1 1_555 1_555
H9 C4 1_555 1_555
H10 C4 1_555 1_555
Sm1A O2 1_555 1_555
Sm1C O2 1_555 1_555
Sm1C_2 O3 1_555 1_555
Sm1C_3 O5 1_555 1_555
Sm1A_2 O6 1_555 1_555
O2A Sm1 1_555 1_555
O2C Sm1 1_555 1_555
O3A Sm1 1_555 1_555
O3C Sm1 1_555 1_555
O5C Sm1 1_555 1_555
O6A Sm1 1_555 1_555
O3 Sm1A 1_555 1_555
C3 C4 1_555 1_555

#END
