
#######################################################################
#
#                 Cambridge Crystallographic Data Centre
#                                CCDC 
#
#######################################################################
#
# If this CIF has been generated from an entry in the Cambridge 
# Structural Database, then it will include bibliographic, chemical, 
# crystal, experimental, refinement or atomic coordinate data resulting 
# from the CCDC's data processing and validation procedures.
#
#######################################################################

data_AMORUQ
_symmetry_cell_setting           monoclinic
_symmetry_space_group_name_H-M   'P 21/c'
_symmetry_Int_Tables_number      14
_space_group_name_Hall           '-P 2ybc'
loop_
_symmetry_equiv_pos_site_id
_symmetry_equiv_pos_as_xyz
1 x,y,z
2 -x,1/2+y,1/2-z
3 -x,-y,-z
4 x,1/2-y,1/2+z
_cell_length_a                   10.8127(6)
_cell_length_b                   13.2272(5)
_cell_length_c                   7.1622(4)
_cell_angle_alpha                90
_cell_angle_beta                 104.848(5)
_cell_angle_gamma                90
_cell_volume                     990.146
loop_
_atom_site_label
_atom_site_type_symbol
_atom_site_fract_x
_atom_site_fract_y
_atom_site_fract_z
Pr1 Pr 0.49276(3) 0.42214(2) 0.24279(3)
P1 P 0.60061(13) 0.15022(10) 0.28081(17)
S1 S 1.23123(15) 0.08375(10) 0.2782(2)
O1 O 0.5421(5) 0.2534(3) 0.2492(6)
O2 O 0.5693(5) 0.0829(2) 0.0990(6)
O3 O 0.5587(5) 0.0879(3) 0.4360(6)
O4 O 1.2214(7) 0.1745(3) 0.1627(9)
O5 O 1.2900(5) 0.1022(4) 0.4804(6)
O6 O 1.2899(5) 0.0007(4) 0.1968(6)
O7 O 0.3091(5) 0.3547(4) 0.3445(7)
H1 H 0.2572 0.3193 0.2513
H2 H 0.2822 0.3602 0.4531
C1 C 0.7719(7) 0.1714(5) 0.3570(12)
H3 H 0.7893 0.2389 0.3173
H4 H 0.7983 0.1695 0.4970
C2 C 0.8534(6) 0.0976(5) 0.2805(10)
H5 H 0.8238 0.0952 0.1408
H6 H 0.8430 0.0306 0.3297
C3 C 0.9941(7) 0.1255(5) 0.3370(10)
H7 H 1.0241 0.1283 0.4767
H8 H 1.0052 0.1919 0.2864
C4 C 1.0729(7) 0.0487(6) 0.2590(10)
H9 H 1.0314 0.0365 0.1239
H10 H 1.0729 -0.0146 0.3275
Pr1A Pr 0.50724(3) -0.07786(2) 0.25721(3)
Pr1C Pr 0.49276(3) 0.07786(2) -0.25721(3)
Pr1C_2 Pr 0.49276(3) 0.07786(2) 0.74279(3)
Pr1C_3 Pr 1.49276(3) 0.07786(2) 0.74279(3)
Pr1A_2 Pr 1.50724(3) -0.07786(2) 0.25721(3)
O2A O 0.4307(5) 0.5829(2) 0.4010(6)
O2C O 0.5693(5) 0.4171(2) 0.5990(6)
O3A O 0.4413(5) 0.5879(3) 0.0640(6)
O3C O 0.5587(5) 0.4121(3) -0.0640(6)
O5C O 0.2900(5) 0.3978(4) -0.0196(6)
O6A O 0.7101(5) 0.5007(4) 0.3032(6)
loop_
_geom_bond_atom_site_label_1
_geom_bond_atom_site_label_2
_geom_bond_site_symmetry_1
_geom_bond_site_symmetry_2
Pr1 O1 1_555 1_555
P1 O1 1_555 1_555
S1 O4 1_555 1_555
O2 P1 1_555 1_555
O3 P1 1_555 1_555
O5 S1 1_555 1_555
O6 S1 1_555 1_555
O7 Pr1 1_555 1_555
H1 O7 1_555 1_555
H2 O7 1_555 1_555
C1 P1 1_555 1_555
H3 C1 1_555 1_555
H4 C1 1_555 1_555
C2 C1 1_555 1_555
H5 C2 1_555 1_555
H6 C2 1_555 1_555
C3 C2 1_555 1_555
H7 C3 1_555 1_555
H8 C3 1_555 1_555
C4 S1 1_555 1_555
H9 C4 1_555 1_555
H10 C4 1_555 1_555
Pr1A O2 1_555 1_555
Pr1C O2 1_555 1_555
Pr1C_2 O3 1_555 1_555
Pr1C_3 O5 1_555 1_555
Pr1A_2 O6 1_555 1_555
O2A Pr1 1_555 1_555
O2C Pr1 1_555 1_555
O3A Pr1 1_555 1_555
O3C Pr1 1_555 1_555
O5C Pr1 1_555 1_555
O6A Pr1 1_555 1_555
O3 Pr1A 1_555 1_555
C3 C4 1_555 1_555

#END
