
#######################################################################
#
#                 Cambridge Crystallographic Data Centre
#                                CCDC 
#
#######################################################################
#
# If this CIF has been generated from an entry in the Cambridge 
# Structural Database, then it will include bibliographic, chemical, 
# crystal, experimental, refinement or atomic coordinate data resulting 
# from the CCDC's data processing and validation procedures.
#
#######################################################################

data_AMOYOR
_symmetry_cell_setting           monoclinic
_symmetry_space_group_name_H-M   'C 2/c'
_symmetry_Int_Tables_number      15
_space_group_name_Hall           '-C 2yn'
loop_
_symmetry_equiv_pos_site_id
_symmetry_equiv_pos_as_xyz
1 x,y,z
2 -x,y,1/2-z
3 1/2+x,1/2+y,z
4 1/2-x,1/2+y,1/2-z
5 -x,-y,-z
6 x,-y,1/2+z
7 1/2-x,1/2-y,-z
8 1/2+x,1/2-y,1/2+z
_cell_length_a                   25.029(5)
_cell_length_b                   5.8653(12)
_cell_length_c                   20.980(4)
_cell_angle_alpha                90
_cell_angle_beta                 92.38(3)
_cell_angle_gamma                90
_cell_volume                     3077.26
loop_
_atom_site_label
_atom_site_type_symbol
_atom_site_fract_x
_atom_site_fract_y
_atom_site_fract_z
Zn1 Zn 0.0000 -0.28245(10) 0.2500
N1 N 0.04959(12) -0.0936(5) 0.30736(15)
O1 O -0.03415(11) -0.4876(5) 0.30859(14)
O2 O -0.08291(18) -0.1965(6) 0.3395(2)
C1 C 0.06486(16) -0.1649(7) 0.36643(19)
H1 H 0.0510 -0.3030 0.3814
C2 C 0.09957(16) -0.0450(7) 0.4053(2)
H2 H 0.1096 -0.1029 0.4459
C3 C 0.12026(16) 0.1621(7) 0.3857(2)
C4 C 0.10332(19) 0.2383(7) 0.3244(2)
H3 H 0.1154 0.3788 0.3089
C5 C 0.06918(17) 0.1059(7) 0.2875(2)
H4 H 0.0590 0.1572 0.2463
C6 C 0.15625(18) 0.2897(7) 0.4290(2)
H5 H 0.1617 0.2333 0.4707
C7 C 0.18214(17) 0.4809(7) 0.4139(2)
H6 H 0.1779 0.5343 0.3718
C8 C 0.21702(15) 0.6142(7) 0.4589(2)
C9 C 0.22883(17) 0.5487(8) 0.5224(2)
H7 H 0.2146 0.4121 0.5379
C10 C 0.23901(17) 0.8176(8) 0.4378(2)
H8 H 0.2318 0.8648 0.3954
C11 C -0.06764(16) -0.3963(8) 0.3451(2)
C12 C -0.08461(18) -0.5420(9) 0.4008(2)
H9 H -0.1187 -0.4874 0.4162
H10 H -0.0890 -0.7011 0.3873
C13 C -0.0040(2) -0.6974(7) 0.4637(2)
H11 H -0.0065 -0.8317 0.4393
C14 C -0.04125(16) -0.5233(7) 0.45292(19)
C15 C -0.03648(19) -0.3263(8) 0.4900(2)
H12 H -0.0613 -0.2076 0.4834
C10F C 0.26099(17) 0.6824(8) 0.5622(2)
C8F C 0.28298(15) 0.8858(7) 0.5411(2)
C7F C 0.31786(17) 1.0191(7) 0.5861(2)
C6F C 0.34375(18) 1.2103(7) 0.5710(2)
C3F C 0.37974(16) 1.3379(7) 0.6143(2)
C2F C 0.40043(16) 1.5450(7) 0.5947(2)
C1F C 0.43514(16) 1.6649(7) 0.63357(19)
N1F N 0.45041(12) 1.5936(5) 0.69264(15)
C5F C 0.43082(17) 1.3941(7) 0.7125(2)
C4F C 0.39668(19) 1.2617(7) 0.6756(2)
H3F H 0.3846 1.1212 0.6911
H4F H 0.4410 1.3428 0.7537
H1F H 0.4490 1.8030 0.6186
H2F H 0.3904 1.6029 0.5541
H5F H 0.3383 1.2667 0.5293
H6F H 0.3221 0.9657 0.6282
C9F C 0.27117(17) 0.9513(8) 0.4776(2)
H7F H 0.2854 1.0879 0.4621
H8F H 0.2682 0.6352 0.6046
C15D C 0.03648(19) -0.6737(8) 0.5100(2)
C14D C 0.04125(16) -0.4767(7) 0.54708(19)
C12D C 0.08461(18) -0.4580(9) 0.5992(2)
C11D C 0.06764(16) -0.6037(8) 0.6549(2)
O1D O 0.03415(11) -0.5124(5) 0.69141(14)
O2D O 0.08291(18) -0.8035(6) 0.6605(2)
H9D H 0.1187 -0.5126 0.5838
H10D H 0.0890 -0.2989 0.6127
C13D C 0.0040(2) -0.3026(7) 0.5363(2)
H11D H 0.0065 -0.1683 0.5607
H12D H 0.0613 -0.7924 0.5166
N1A N -0.04959(12) -0.0936(5) 0.19264(15)
O1A O 0.03415(11) -0.4876(5) 0.19141(14)
Zn1F Zn 0.5000 1.78245(10) 0.7500
Zn1D Zn 0.0000 -0.71755(10) 0.7500
O3 O 0.1556(2) 1.0514(11) 0.5729(3)
H13 H 0.180(2) 0.985(12) 0.595(3)
H14 H 0.130(2) 1.112(14) 0.591(3)
loop_
_geom_bond_atom_site_label_1
_geom_bond_atom_site_label_2
_geom_bond_site_symmetry_1
_geom_bond_site_symmetry_2
Zn1 N1 1_555 1_555
N1 C1 1_555 1_555
O1 Zn1 1_555 1_555
O2 C11 1_555 1_555
C1 H1 1_555 1_555
C2 C1 1_555 1_555
H2 C2 1_555 1_555
C3 C2 1_555 1_555
C4 C3 1_555 1_555
H3 C4 1_555 1_555
C5 N1 1_555 1_555
H4 C5 1_555 1_555
C6 C3 1_555 1_555
H5 C6 1_555 1_555
C7 C6 1_555 1_555
H6 C7 1_555 1_555
C8 C7 1_555 1_555
C9 C8 1_555 1_555
H7 C9 1_555 1_555
C10 C8 1_555 1_555
H8 C10 1_555 1_555
C11 O1 1_555 1_555
C12 C11 1_555 1_555
H9 C12 1_555 1_555
H10 C12 1_555 1_555
C13 H11 1_555 1_555
C14 C12 1_555 1_555
C15 C14 1_555 1_555
H12 C15 1_555 1_555
O3 H13 1_555 1_555
H14 O3 1_555 1_555
C10F C9 1_555 1_555
C8F C10F 1_555 1_555
C7F C8F 1_555 1_555
C6F C7F 1_555 1_555
C3F C6F 1_555 1_555
C2F C3F 1_555 1_555
C1F C2F 1_555 1_555
N1F C1F 1_555 1_555
C5F N1F 1_555 1_555
C4F C3F 1_555 1_555
H3F C4F 1_555 1_555
H4F C5F 1_555 1_555
H1F C1F 1_555 1_555
H2F C2F 1_555 1_555
H5F C6F 1_555 1_555
H6F C7F 1_555 1_555
C9F C10 1_555 1_555
H7F C9F 1_555 1_555
H8F C10F 1_555 1_555
C15D C13 1_555 1_555
C14D C15D 1_555 1_555
C12D C14D 1_555 1_555
C11D C12D 1_555 1_555
O1D C11D 1_555 1_555
O2D C11D 1_555 1_555
H9D C12D 1_555 1_555
H10D C12D 1_555 1_555
C13D C15 1_555 1_555
H11D C13D 1_555 1_555
H12D C15D 1_555 1_555
N1A Zn1 1_555 1_555
O1A Zn1 1_555 1_555
Zn1F N1F 1_555 1_555
Zn1D O1D 1_555 1_555
C4 C5 1_555 1_555
C13 C14 1_555 1_555
C8F C9F 1_555 1_555
C5F C4F 1_555 1_555
C14D C13D 1_555 1_555

#END
