
#######################################################################
#
#                 Cambridge Crystallographic Data Centre
#                                CCDC 
#
#######################################################################
#
# If this CIF has been generated from an entry in the Cambridge 
# Structural Database, then it will include bibliographic, chemical, 
# crystal, experimental, refinement or atomic coordinate data resulting 
# from the CCDC's data processing and validation procedures.
#
#######################################################################

data_AMOYUX
_symmetry_cell_setting           triclinic
_symmetry_space_group_name_H-M   'P -1'
_symmetry_Int_Tables_number      2
_space_group_name_Hall           '-P 1'
loop_
_symmetry_equiv_pos_site_id
_symmetry_equiv_pos_as_xyz
1 x,y,z
2 -x,-y,-z
_cell_length_a                   8.4701(17)
_cell_length_b                   8.9690(18)
_cell_length_c                   9.4258(19)
_cell_angle_alpha                95.70(3)
_cell_angle_beta                 115.11(3)
_cell_angle_gamma                95.39(3)
_cell_volume                     637.784
loop_
_atom_site_label
_atom_site_type_symbol
_atom_site_fract_x
_atom_site_fract_y
_atom_site_fract_z
Ce1 Ce 0.67854(2) 0.30468(2) 0.30597(2)
O1 O 0.4110(3) 0.0985(3) 0.1559(2)
O2 O 0.1627(3) -0.0679(3) 0.0308(2)
H1 H 0.1804 -0.0563 -0.0489
O3 O 0.3771(4) -0.2466(3) 0.2362(3)
O4 O 0.3620(3) -0.3325(3) 0.4461(3)
O5 O 0.2214(3) -0.0759(3) 0.7884(2)
O6 O 0.1838(4) 0.1673(3) 0.7931(3)
O7 O -0.0191(3) 0.3236(3) 0.5161(3)
O8 O 0.2634(3) 0.4230(3) 0.6070(3)
O9 O 0.4012(3) 0.4158(3) 0.2432(3)
H2 H 0.3930 0.4847 0.3074
H3 H 0.3124 0.3973 0.1530
O10 O 0.9234(3) 0.4262(3) 0.2274(3)
H4 H 0.9019 0.4701 0.1466
H5 H 0.9782 0.4904 0.3114
O11 O 0.5493(3) 0.3397(3) 0.0121(3)
H6 H 0.5995 0.3438 -0.0490
H7 H 0.4517 0.2802 -0.0291
N1 N 0.2752(3) -0.0757(3) 0.5324(3)
C1 C 0.3480(4) -0.2344(4) 0.3554(4)
C2 C 0.2912(4) -0.0882(4) 0.3967(4)
C3 C 0.2553(4) 0.0244(4) 0.3024(4)
C4 C 0.2043(4) 0.1539(4) 0.3513(4)
H8 H 0.1811 0.2332 0.2887
C5 C 0.1869(4) 0.1684(4) 0.4929(4)
C6 C 0.2239(4) 0.0491(4) 0.5790(4)
C7 C 0.2085(4) 0.0505(4) 0.7334(4)
C8 C 0.2856(4) 0.0183(4) 0.1554(4)
C9 C 0.1386(4) 0.3154(4) 0.5453(3)
Ce1A Ce 0.32146(2) -0.30468(2) 0.69403(2)
Ce1_2 Ce -0.32146(2) 0.30468(2) 0.30597(2)
Ce1A_2 Ce 0.32146(2) 0.69532(2) 0.69403(2)
O4A O 0.6380(3) 0.3325(3) 0.5539(3)
O5A O 0.7786(3) 0.0759(3) 0.2116(2)
O7_2 O 0.9809(3) 0.3236(3) 0.5161(3)
O8A O 0.7366(3) 0.5770(3) 0.3930(3)
N1A N 0.7248(3) 0.0757(3) 0.4676(3)
O12 O 0.9142(3) 0.6515(3) 0.0263(3)
H9 H 0.8765 0.7106 0.0772
H10 H 1.0184 0.6873 0.0437
loop_
_geom_bond_atom_site_label_1
_geom_bond_atom_site_label_2
_geom_bond_site_symmetry_1
_geom_bond_site_symmetry_2
Ce1 O1 1_555 1_555
O1 C8 1_555 1_555
O2 H1 1_555 1_555
O3 C1 1_555 1_555
O4 C1 1_555 1_555
O5 C7 1_555 1_555
O6 C7 1_555 1_555
O7 C9 1_555 1_555
O8 C9 1_555 1_555
O9 Ce1 1_555 1_555
H2 O9 1_555 1_555
H3 O9 1_555 1_555
O10 Ce1 1_555 1_555
H4 O10 1_555 1_555
H5 O10 1_555 1_555
O11 Ce1 1_555 1_555
H6 O11 1_555 1_555
H7 O11 1_555 1_555
N1 C2 1_555 1_555
C1 C2 1_555 1_555
C2 C3 1_555 1_555
C3 C4 1_555 1_555
C4 H8 1_555 1_555
C5 C4 1_555 1_555
C6 N1 1_555 1_555
C7 C6 1_555 1_555
C8 O2 1_555 1_555
C9 C5 1_555 1_555
O12 H9 1_555 1_555
H10 O12 1_555 1_555
Ce1A O4 1_555 1_555
Ce1_2 O7 1_555 1_555
Ce1A_2 O8 1_555 1_555
O4A Ce1 1_555 1_555
O5A Ce1 1_555 1_555
O7_2 Ce1 1_555 1_555
O8A Ce1 1_555 1_555
N1A Ce1 1_555 1_555
O5 Ce1A 1_555 1_555
N1 Ce1A 1_555 1_555
C3 C8 1_555 1_555
C5 C6 1_555 1_555

#END
