
#######################################################################
#
#                 Cambridge Crystallographic Data Centre
#                                CCDC 
#
#######################################################################
#
# If this CIF has been generated from an entry in the Cambridge 
# Structural Database, then it will include bibliographic, chemical, 
# crystal, experimental, refinement or atomic coordinate data resulting 
# from the CCDC's data processing and validation procedures.
#
#######################################################################

data_AMOYEH
_symmetry_cell_setting           triclinic
_symmetry_space_group_name_H-M   'P -1'
_symmetry_Int_Tables_number      2
_space_group_name_Hall           '-P 1'
loop_
_symmetry_equiv_pos_site_id
_symmetry_equiv_pos_as_xyz
1 x,y,z
2 -x,-y,-z
_cell_length_a                   13.483(3)
_cell_length_b                   13.994(3)
_cell_length_c                   17.054(3)
_cell_angle_alpha                69.26(3)
_cell_angle_beta                 82.67(3)
_cell_angle_gamma                89.13(3)
_cell_volume                     2983.09
loop_
_atom_site_label
_atom_site_type_symbol
_atom_site_fract_x
_atom_site_fract_y
_atom_site_fract_z
Zn1 Zn -0.03581(3) -1.44791(3) -0.24423(3)
Zn2 Zn 0.04802(3) -1.20083(3) -0.28269(2)
Zn3 Zn -0.81741(3) -1.38044(3) -1.19427(2)
Zn4 Zn 0.18943(3) -2.13255(3) -0.17353(2)
N1 N -0.0961(2) -1.4176(2) -0.36017(19)
N2 N -0.7154(2) -1.3788(2) -1.10749(18)
N3 N -0.7264(2) -1.1404(2) -1.08096(18)
N4 N -0.02820(19) -1.1566(2) -0.38710(17)
O1 O -0.15557(18) -1.3893(2) -0.19529(16)
O2 O -0.08186(17) -1.25171(18) -0.18765(14)
O3 O 0.0016(3) -1.5042(2) 0.10912(18)
O4 O -0.1600(2) -1.4697(2) 0.12439(17)
O5 O 0.08634(18) -2.0388(2) -0.15743(17)
O6 O 0.01904(18) -2.05620(17) -0.26447(15)
O7 O 0.0138(3) -1.5835(2) -0.2494(2)
O8 O -0.1426(4) -1.6315(3) -0.2008(3)
O9 O 0.2305(2) -1.3539(2) -0.39798(15)
O10 O 0.29612(17) -1.35208(18) -0.28472(14)
O11 O 0.18834(16) -1.14147(17) -0.35522(14)
O12 O 0.28751(17) -1.10643(18) -0.27199(15)
O13 O 0.11892(18) -1.25432(18) -0.17006(15)
H1 H 0.0688(18) -1.263(3) -0.138(2)
O14 O 0.07746(17) -1.34831(17) -0.27952(14)
H2 H 0.114(2) -1.351(3) -0.3190(15)
C1 C -0.0425(3) -1.4018(3) -0.4350(3)
H3 H 0.0271 -1.3915 -0.4400
C2 C -0.0838(3) -1.3996(4) -0.5058(3)
H4 H -0.0423 -1.3889 -0.5570
C3 C -0.1864(3) -1.4131(3) -0.5012(2)
C4 C -0.2406(3) -1.4308(3) -0.4232(3)
H5 H -0.3102 -1.4425 -0.4158
C5 C -0.1944(3) -1.4314(3) -0.3562(3)
H6 H -0.2343 -1.4422 -0.3042
C6 C -0.2317(3) -1.4120(3) -0.5751(3)
H7 H -0.1893 -1.4156 -0.6222
C7 C -0.3289(3) -1.4060(3) -0.5793(3)
H8 H -0.3686 -1.4019 -0.5312
C8 C -0.3832(3) -1.4049(3) -0.6483(3)
C9 C -0.3346(3) -1.4071(3) -0.7257(3)
H9 H -0.2645 -1.4097 -0.7344
C10 C -0.3898(3) -1.4055(3) -0.7892(3)
H10 H -0.3566 -1.4077 -0.8404
C11 C -0.4941(3) -1.4005(3) -0.7786(3)
C12 C -0.5415(3) -1.3980(3) -0.7021(3)
H11 H -0.6116 -1.3952 -0.6936
C13 C -0.4866(3) -1.3997(3) -0.6384(3)
H12 H -0.5202 -1.3973 -0.5874
C14 C -0.5562(3) -1.3988(3) -0.8437(3)
H13 H -0.6258 -1.4011 -0.8281
C15 C -0.5258(3) -1.3943(3) -0.9218(3)
H14 H -0.4565 -1.3933 -0.9384
C16 C -0.5923(3) -1.3909(3) -0.9840(2)
C17 C -0.5538(3) -1.3725(3) -1.0675(3)
H15 H -0.4843 -1.3636 -1.0839
C18 C -0.6163(3) -1.3670(3) -1.1266(2)
H16 H -0.5880 -1.3545 -1.1828
C19 C -0.7529(3) -1.3976(3) -1.0266(2)
H17 H -0.8226 -1.4072 -1.0119
C20 C -0.6956(3) -1.4037(3) -0.9639(2)
H18 H -0.7259 -1.4164 -0.9083
C21 C -0.7646(3) -1.1612(3) -0.9997(2)
H19 H -0.8337 -1.1751 -0.9842
C22 C -0.7064(3) -1.1631(3) -0.9378(2)
H20 H -0.7357 -1.1797 -0.8814
C23 C -0.6039(3) -1.1403(3) -0.9598(3)
C24 C -0.5667(3) -1.1195(3) -1.0435(3)
H21 H -0.4980 -1.1044 -1.0612
C25 C -0.6278(3) -1.1204(3) -1.1012(2)
H22 H -0.5994 -1.1064 -1.1576
C26 C -0.5335(3) -1.1384(3) -0.9001(3)
H23 H -0.4650 -1.1340 -0.9206
C27 C -0.5559(3) -1.1420(3) -0.8234(3)
H24 H -0.6243 -1.1456 -0.8026
C28 C -0.4838(3) -1.1412(3) -0.7647(2)
C29 C -0.5209(3) -1.1480(3) -0.6839(3)
H25 H -0.5904 -1.1513 -0.6678
C30 C -0.4573(3) -1.1501(3) -0.6260(2)
H26 H -0.4846 -1.1551 -0.5711
C31 C -0.3541(2) -1.1450(3) -0.6466(2)
C32 C -0.3157(3) -1.1378(3) -0.7285(2)
H27 H -0.2461 -1.1333 -0.7448
C33 C -0.3802(3) -1.1371(3) -0.7856(2)
H28 H -0.3533 -1.1339 -0.8402
C34 C -0.2921(3) -1.1479(3) -0.5812(2)
H29 H -0.3247 -1.1700 -0.5254
C35 C -0.1957(3) -1.1230(3) -0.5912(2)
H30 H -0.1615 -1.1000 -0.6465
C36 C -0.1388(2) -1.1289(3) -0.5223(2)
C37 C -0.1845(3) -1.1404(3) -0.4413(2)
H31 H -0.2545 -1.1387 -0.4306
C38 C -0.1284(3) -1.1540(3) -0.3775(2)
H32 H -0.1617 -1.1619 -0.3236
C39 C 0.0162(3) -1.1406(3) -0.4648(2)
H33 H 0.0865 -1.1390 -0.4740
C40 C -0.0350(3) -1.1261(3) -0.5334(2)
H34 H 0.0005 -1.1143 -0.5873
C41 C -0.2655(3) -1.1095(3) -0.0126(3)
H35 H -0.3120 -1.0573 -0.0198
C42 C -0.2740(3) -1.1828(3) -0.0493(3)
H36 H -0.3269 -1.1796 -0.0810
C43 C -0.2063(3) -1.2606(3) -0.0401(2)
C44 C -0.1283(3) -1.2650(3) 0.0078(2)
C45 C -0.1892(4) -1.1139(3) 0.0340(3)
H37 H -0.1829 -1.0646 0.0589
C46 C -0.1208(3) -1.1915(3) 0.0444(2)
H38 H -0.0686 -1.1943 0.0767
C47 C -0.2170(3) -1.3364(3) -0.0821(2)
H39 H -0.2853 -1.3335 -0.0966
H40 H -0.2095 -1.4048 -0.0408
C48 C -0.1450(2) -1.3243(3) -0.1615(2)
C49 C -0.0490(3) -1.3453(3) 0.0192(2)
H41 H 0.0123 -1.3161 0.0281
H42 H -0.0346 -1.3581 -0.0339
C50 C -0.0720(3) -1.4478(3) 0.0905(2)
C51 C -0.2151(3) -1.8666(5) -0.3683(3)
H43 H -0.2519 -1.8921 -0.4002
C52 C -0.1781(3) -1.9332(4) -0.2982(3)
H44 H -0.1931 -2.0036 -0.2810
C53 C -0.1190(2) -1.8978(3) -0.2525(2)
C54 C -0.1003(3) -1.7938(3) -0.2761(2)
C55 C -0.1427(3) -1.7270(3) -0.3454(3)
H45 H -0.1329 -1.6561 -0.3605
C56 C -0.1986(3) -1.7635(5) -0.3917(3)
H46 H -0.2251 -1.7180 -0.4389
C57 C -0.0758(3) -1.9756(3) -0.1790(2)
H47 H -0.0594 -1.9415 -0.1408
H48 H -0.1273 -2.0286 -0.1476
C58 C 0.0168(3) -2.0264(2) -0.2037(2)
C59 C -0.0327(4) -1.7508(3) -0.2312(4)
H49 H -0.0342 -1.7995 -0.1732
H50 H 0.0359 -1.7475 -0.2593
C60 C -0.0557(4) -1.6473(3) -0.2267(3)
C61 C 0.5899(3) -1.1750(4) -0.2907(3)
H51 H 0.6298 -1.1454 -0.2635
C62 C 0.5119(3) -1.1211(3) -0.3303(3)
H52 H 0.4994 -1.0551 -0.3296
C63 C 0.4517(2) -1.1636(3) -0.3710(2)
C64 C 0.4709(3) -1.2607(3) -0.3727(2)
C65 C 0.5509(3) -1.3123(3) -0.3325(3)
H53 H 0.5652 -1.3776 -0.3338
C66 C 0.6088(3) -1.2711(4) -0.2913(3)
H54 H 0.6609 -1.3083 -0.2638
C67 C 0.4042(3) -1.3128(3) -0.4118(2)
H55 H 0.4362 -1.3747 -0.4153
H56 H 0.3979 -1.2670 -0.4696
C68 C 0.3002(3) -1.3416(3) -0.3625(2)
C69 C 0.3619(2) -1.1049(3) -0.4063(2)
H57 H 0.3436 -1.1274 -0.4510
H58 H 0.3806 -1.0320 -0.4319
C70 C 0.2709(3) -1.1196(2) -0.3393(2)
Zn1A Zn 0.03581(3) -1.55209(3) 0.24423(3)
Zn2_2 Zn 0.04802(3) -2.20083(3) -0.28269(2)
Zn3A Zn -0.18259(3) -1.61956(3) 0.19427(2)
Zn3_2 Zn 0.18259(3) -1.38044(3) -0.19427(2)
Zn4_2 Zn -0.81057(3) -1.13255(3) -1.17353(2)
Zn4_3 Zn 0.18943(3) -1.13255(3) -0.17353(2)
N3_2 N 0.2736(2) -2.1404(2) -0.08096(18)
O3A O -0.0016(3) -1.4958(2) -0.10912(18)
O4A O -0.8400(2) -1.5303(2) -1.12439(17)
O6_2 O 0.01904(18) -1.05620(17) -0.26447(15)
O10_2 O -0.70388(17) -1.35208(18) -1.28472(14)
O12_2 O 0.28751(17) -2.10643(18) -0.27199(15)
O13_2 O -0.88108(18) -1.25432(18) -1.17006(15)
O13_3 O 0.11892(18) -2.25432(18) -0.17006(15)
H1_2 H -0.9312(18) -1.263(3) -1.138(2)
H1_3 H 0.0688(18) -2.263(3) -0.138(2)
O14_2 O -0.92254(17) -1.34831(17) -1.27952(14)
H2_2 H -0.886(2) -1.351(3) -1.3190(15)
loop_
_geom_bond_atom_site_label_1
_geom_bond_atom_site_label_2
_geom_bond_site_symmetry_1
_geom_bond_site_symmetry_2
Zn1 N1 1_555 1_555
Zn2 N4 1_555 1_555
Zn3 N2 1_555 1_555
Zn4 O5 1_555 1_555
N1 C1 1_555 1_555
N2 C18 1_555 1_555
N3 C21 1_555 1_555
N4 C38 1_555 1_555
O1 Zn1 1_555 1_555
O2 Zn2 1_555 1_555
O3 C50 1_555 1_555
O4 C50 1_555 1_555
O5 C58 1_555 1_555
O6 C58 1_555 1_555
O7 Zn1 1_555 1_555
O8 C60 1_555 1_555
O9 C68 1_555 1_555
O10 C68 1_555 1_555
O11 Zn2 1_555 1_555
O12 C70 1_555 1_555
O13 Zn2 1_555 1_555
H1 O13 1_555 1_555
O14 Zn1 1_555 1_555
H2 O14 1_555 1_555
C1 H3 1_555 1_555
C2 C1 1_555 1_555
H4 C2 1_555 1_555
C3 C2 1_555 1_555
C4 C3 1_555 1_555
H5 C4 1_555 1_555
C5 N1 1_555 1_555
H6 C5 1_555 1_555
C6 C3 1_555 1_555
H7 C6 1_555 1_555
C7 C6 1_555 1_555
H8 C7 1_555 1_555
C8 C7 1_555 1_555
C9 C8 1_555 1_555
H9 C9 1_555 1_555
C10 C9 1_555 1_555
H10 C10 1_555 1_555
C11 C10 1_555 1_555
C12 C11 1_555 1_555
H11 C12 1_555 1_555
C13 C8 1_555 1_555
H12 C13 1_555 1_555
C14 C11 1_555 1_555
H13 C14 1_555 1_555
C15 C14 1_555 1_555
H14 C15 1_555 1_555
C16 C15 1_555 1_555
C17 C16 1_555 1_555
H15 C17 1_555 1_555
C18 C17 1_555 1_555
H16 C18 1_555 1_555
C19 N2 1_555 1_555
H17 C19 1_555 1_555
C20 C16 1_555 1_555
H18 C20 1_555 1_555
C21 H19 1_555 1_555
C22 C21 1_555 1_555
H20 C22 1_555 1_555
C23 C22 1_555 1_555
C24 C23 1_555 1_555
H21 C24 1_555 1_555
C25 N3 1_555 1_555
H22 C25 1_555 1_555
C26 C23 1_555 1_555
H23 C26 1_555 1_555
C27 C26 1_555 1_555
H24 C27 1_555 1_555
C28 C27 1_555 1_555
C29 C28 1_555 1_555
H25 C29 1_555 1_555
C30 C29 1_555 1_555
H26 C30 1_555 1_555
C31 C30 1_555 1_555
C32 C31 1_555 1_555
H27 C32 1_555 1_555
C33 C28 1_555 1_555
H28 C33 1_555 1_555
C34 C31 1_555 1_555
H29 C34 1_555 1_555
C35 C34 1_555 1_555
H30 C35 1_555 1_555
C36 C35 1_555 1_555
C37 C36 1_555 1_555
H31 C37 1_555 1_555
C38 C37 1_555 1_555
H32 C38 1_555 1_555
C39 N4 1_555 1_555
H33 C39 1_555 1_555
C40 C36 1_555 1_555
H34 C40 1_555 1_555
C41 H35 1_555 1_555
C42 C41 1_555 1_555
H36 C42 1_555 1_555
C43 C42 1_555 1_555
C44 C43 1_555 1_555
C45 C41 1_555 1_555
H37 C45 1_555 1_555
C46 C44 1_555 1_555
H38 C46 1_555 1_555
C47 C43 1_555 1_555
H39 C47 1_555 1_555
H40 C47 1_555 1_555
C48 O1 1_555 1_555
C49 C44 1_555 1_555
H41 C49 1_555 1_555
H42 C49 1_555 1_555
C50 C49 1_555 1_555
C51 H43 1_555 1_555
C52 C51 1_555 1_555
H44 C52 1_555 1_555
C53 C52 1_555 1_555
C54 C53 1_555 1_555
C55 C54 1_555 1_555
H45 C55 1_555 1_555
C56 C51 1_555 1_555
H46 C56 1_555 1_555
C57 C53 1_555 1_555
H47 C57 1_555 1_555
H48 C57 1_555 1_555
C58 C57 1_555 1_555
C59 C54 1_555 1_555
H49 C59 1_555 1_555
H50 C59 1_555 1_555
C60 O7 1_555 1_555
C61 H51 1_555 1_555
C62 C61 1_555 1_555
H52 C62 1_555 1_555
C63 C62 1_555 1_555
C64 C63 1_555 1_555
C65 C64 1_555 1_555
H53 C65 1_555 1_555
C66 C61 1_555 1_555
H54 C66 1_555 1_555
C67 C64 1_555 1_555
H55 C67 1_555 1_555
H56 C67 1_555 1_555
C68 C67 1_555 1_555
C69 C63 1_555 1_555
H57 C69 1_555 1_555
H58 C69 1_555 1_555
C70 O11 1_555 1_555
Zn1A O3 1_555 1_555
Zn2_2 O6 1_555 1_555
Zn3A O4 1_555 1_555
Zn3_2 O10 1_555 1_555
Zn4_2 N3 1_555 1_555
Zn4_3 O12 1_555 1_555
N3_2 Zn4 1_555 1_555
O3A Zn1 1_555 1_555
O4A Zn3 1_555 1_555
O6_2 Zn2 1_555 1_555
O10_2 Zn3 1_555 1_555
O12_2 Zn4 1_555 1_555
O13_2 Zn3 1_555 1_555
O13_3 Zn4 1_555 1_555
H1_2 O13_2 1_555 1_555
H1_3 O13_3 1_555 1_555
O14_2 Zn3 1_555 1_555
H2_2 O14_2 1_555 1_555
Zn2 O14 1_555 1_555
O2 C48 1_555 1_555
O13 Zn3_2 1_555 1_555
O13 Zn4_3 1_555 1_555
O14 Zn3_2 1_555 1_555
C4 C5 1_555 1_555
C12 C13 1_555 1_555
C19 C20 1_555 1_555
C24 C25 1_555 1_555
C32 C33 1_555 1_555
C39 C40 1_555 1_555
C45 C46 1_555 1_555
C47 C48 1_555 1_555
C55 C56 1_555 1_555
C59 C60 1_555 1_555
C65 C66 1_555 1_555
C69 C70 1_555 1_555
Zn2_2 O13_3 1_555 1_555
Zn4_2 O13_2 1_555 1_555

#END
