
#######################################################################
#
#                 Cambridge Crystallographic Data Centre
#                                CCDC 
#
#######################################################################
#
# If this CIF has been generated from an entry in the Cambridge 
# Structural Database, then it will include bibliographic, chemical, 
# crystal, experimental, refinement or atomic coordinate data resulting 
# from the CCDC's data processing and validation procedures.
#
#######################################################################

data_AMOZEI
_symmetry_cell_setting           triclinic
_symmetry_space_group_name_H-M   'P -1'
_symmetry_Int_Tables_number      2
_space_group_name_Hall           '-P 1'
loop_
_symmetry_equiv_pos_site_id
_symmetry_equiv_pos_as_xyz
1 x,y,z
2 -x,-y,-z
_cell_length_a                   8.4864(17)
_cell_length_b                   8.9615(18)
_cell_length_c                   9.4369(19)
_cell_angle_alpha                95.53(3)
_cell_angle_beta                 115.45(3)
_cell_angle_gamma                95.45(3)
_cell_volume                     637.555
loop_
_atom_site_label
_atom_site_type_symbol
_atom_site_fract_x
_atom_site_fract_y
_atom_site_fract_z
Pr1 Pr 0.67971(2) 0.30371(2) 0.30549(2)
O1 O 0.4128(3) 0.0971(3) 0.1586(3)
O2 O 0.1631(3) -0.0686(3) 0.0312(3)
H1 H 0.1759 -0.0513 -0.0495
O3 O 0.3715(4) -0.2517(3) 0.2372(3)
O4 O 0.3611(3) -0.3333(3) 0.4508(3)
O5 O 0.2212(3) -0.0764(3) 0.7880(3)
O6 O 0.1854(4) 0.1681(3) 0.7943(3)
O7 O -0.0199(3) 0.3246(3) 0.5165(3)
O8 O 0.2643(3) 0.4243(3) 0.6084(3)
O9 O 0.4041(3) 0.4150(3) 0.2403(3)
H2 H 0.3959 0.4839 0.3046
H3 H 0.3153 0.3965 0.1501
O10 O 0.9217(3) 0.4252(3) 0.2283(3)
H4 H 0.9001 0.4691 0.1476
H5 H 0.9765 0.4895 0.3124
O11 O 0.5518(4) 0.3297(4) 0.0130(3)
H6 H 0.6020 0.3337 -0.0481
H7 H 0.4542 0.2701 -0.0282
N1 N 0.2750(4) -0.0748(4) 0.5343(3)
C1 C 0.3461(5) -0.2366(4) 0.3574(4)
C2 C 0.2900(5) -0.0899(4) 0.3977(4)
C3 C 0.2569(5) 0.0259(4) 0.3042(4)
C4 C 0.2055(4) 0.1553(4) 0.3519(4)
H8 H 0.1828 0.2347 0.2892
C5 C 0.1866(4) 0.1698(4) 0.4926(4)
C6 C 0.2232(5) 0.0495(4) 0.5798(4)
C7 C 0.2085(5) 0.0501(4) 0.7338(4)
C8 C 0.2863(5) 0.0183(4) 0.1569(4)
C9 C 0.1386(5) 0.3163(4) 0.5448(4)
Pr1A Pr 0.32029(2) -0.30371(2) 0.69451(2)
Pr1_2 Pr -0.32029(2) 0.30371(2) 0.30549(2)
Pr1A_2 Pr 0.32029(2) 0.69629(2) 0.69451(2)
O4A O 0.6389(3) 0.3333(3) 0.5492(3)
O5A O 0.7788(3) 0.0764(3) 0.2120(3)
O7_2 O 0.9801(3) 0.3246(3) 0.5165(3)
O8A O 0.7357(3) 0.5757(3) 0.3916(3)
N1A N 0.7250(4) 0.0748(4) 0.4657(3)
O12 O 0.9149(3) 0.6516(3) 0.0281(3)
H9 H 0.8773 0.7106 0.0789
H10 H 1.0191 0.6873 0.0455
loop_
_geom_bond_atom_site_label_1
_geom_bond_atom_site_label_2
_geom_bond_site_symmetry_1
_geom_bond_site_symmetry_2
Pr1 O1 1_555 1_555
O1 C8 1_555 1_555
O2 H1 1_555 1_555
O3 C1 1_555 1_555
O4 C1 1_555 1_555
O5 C7 1_555 1_555
O6 C7 1_555 1_555
O7 C9 1_555 1_555
O8 C9 1_555 1_555
O9 Pr1 1_555 1_555
H2 O9 1_555 1_555
H3 O9 1_555 1_555
O10 Pr1 1_555 1_555
H4 O10 1_555 1_555
H5 O10 1_555 1_555
O11 Pr1 1_555 1_555
H6 O11 1_555 1_555
H7 O11 1_555 1_555
N1 C2 1_555 1_555
C1 C2 1_555 1_555
C2 C3 1_555 1_555
C3 C4 1_555 1_555
C4 H8 1_555 1_555
C5 C4 1_555 1_555
C6 N1 1_555 1_555
C7 C6 1_555 1_555
C8 O2 1_555 1_555
C9 C5 1_555 1_555
O12 H9 1_555 1_555
H10 O12 1_555 1_555
Pr1A O4 1_555 1_555
Pr1_2 O7 1_555 1_555
Pr1A_2 O8 1_555 1_555
O4A Pr1 1_555 1_555
O5A Pr1 1_555 1_555
O7_2 Pr1 1_555 1_555
O8A Pr1 1_555 1_555
N1A Pr1 1_555 1_555
O5 Pr1A 1_555 1_555
N1 Pr1A 1_555 1_555
C3 C8 1_555 1_555
C5 C6 1_555 1_555

#END
