
#######################################################################
#
#                 Cambridge Crystallographic Data Centre
#                                CCDC 
#
#######################################################################
#
# If this CIF has been generated from an entry in the Cambridge 
# Structural Database, then it will include bibliographic, chemical, 
# crystal, experimental, refinement or atomic coordinate data resulting 
# from the CCDC's data processing and validation procedures.
#
#######################################################################

data_AMOZAE
_symmetry_cell_setting           monoclinic
_symmetry_space_group_name_H-M   'P 21/c'
_symmetry_Int_Tables_number      14
_space_group_name_Hall           '-P 2ybc'
loop_
_symmetry_equiv_pos_site_id
_symmetry_equiv_pos_as_xyz
1 x,y,z
2 -x,1/2+y,1/2-z
3 -x,-y,-z
4 x,1/2-y,1/2+z
_cell_length_a                   6.7590(14)
_cell_length_b                   13.978(3)
_cell_length_c                   15.517(4)
_cell_angle_alpha                90
_cell_angle_beta                 113.30(3)
_cell_angle_gamma                90
_cell_volume                     1346.45
loop_
_atom_site_label
_atom_site_type_symbol
_atom_site_fract_x
_atom_site_fract_y
_atom_site_fract_z
Sm1 Sm 0.17380(7) 0.74409(3) -0.06540(3)
K1 K 0.5519(4) 0.69055(16) 0.25824(16)
O1 O 0.3252(10) 0.6489(4) 0.0731(5)
O2 O 0.4163(13) 0.5112(4) 0.1489(5)
O3 O 0.5127(11) 0.3161(5) 0.0830(5)
O4 O 0.1886(11) 0.2993(5) 0.0827(5)
O5 O -0.2497(11) 0.3528(5) -0.3197(5)
O6 O 0.0417(11) 0.3862(4) -0.3413(5)
O7 O -0.2025(12) 0.5769(5) -0.3288(5)
O8 O -0.0260(12) 0.6911(5) -0.2263(5)
N1 N 0.1377(13) 0.5648(5) -0.0899(6)
C1 C 0.3328(13) 0.5589(6) 0.0760(6)
C2 C 0.2310(14) 0.5055(6) -0.0168(6)
C3 C 0.2231(15) 0.4068(6) -0.0284(7)
C4 C 0.1231(15) 0.3702(6) -0.1191(7)
H1 H 0.1172 0.3029 -0.1288
C5 C 0.0323(16) 0.4312(6) -0.1951(7)
C6 C 0.0395(14) 0.5302(6) -0.1770(6)
C7 C -0.0722(16) 0.6051(7) -0.2507(7)
C8 C 0.3171(14) 0.3357(6) 0.0527(6)
C9 C -0.0706(16) 0.3899(6) -0.2922(7)
O9 O 0.0762(11) 0.8319(5) 0.0501(5)
H2 H -0.0129 0.7992 0.0641
H3 H 0.0165 0.8847 0.0266
O10 O 0.4654(12) 0.8619(5) 0.0160(5)
H4 H 0.5032 0.8772 0.0733
H5 H 0.5788 0.8574 0.0051
O11 O 0.7371(12) 0.5442(5) 0.4470(6)
H6 H 0.6324 0.5127 0.4079
H7 H 0.7627 0.5220 0.5013
O12 O 0.3998(15) 0.8769(6) 0.2150(6)
H8 H 0.2697 0.8646 0.1797
H9 H 0.3990 0.9183 0.2550
Sm1B Sm 0.82620(7) 0.25591(3) 0.06540(3)
Sm1B_2 Sm -0.17380(7) 0.25591(3) 0.06540(3)
Sm1A Sm -0.17380(7) 0.24409(3) -0.43460(3)
K1A K 0.4481(4) 0.19055(16) 0.24176(16)
K1B K -0.5519(4) 0.30945(16) -0.25824(16)
K1B_2 K 0.4481(4) 0.30945(16) -0.25824(16)
K1C K -0.4481(4) 0.80945(16) -0.24176(16)
O3B O 0.4873(11) 0.6839(5) -0.0830(5)
O3A O 0.4873(11) 0.8161(5) 0.4170(5)
O4B O -0.1886(11) 0.7007(5) -0.0827(5)
O4A O 0.8114(11) 0.7993(5) 0.4173(5)
O5A O 0.2497(11) 0.8528(5) -0.1803(5)
O5B O 0.2497(11) 0.6472(5) 0.3197(5)
O6A O -0.0417(11) 0.8862(4) -0.1587(5)
O6B O 0.9583(11) 0.6138(4) 0.3413(5)
O8C O 0.9740(12) 0.8089(5) 0.2737(5)
loop_
_geom_bond_atom_site_label_1
_geom_bond_atom_site_label_2
_geom_bond_site_symmetry_1
_geom_bond_site_symmetry_2
Sm1 O1 1_555 1_555
K1 O1 1_555 1_555
O1 C1 1_555 1_555
O2 K1 1_555 1_555
O3 C8 1_555 1_555
O4 C8 1_555 1_555
O5 C9 1_555 1_555
O6 C9 1_555 1_555
O7 C7 1_555 1_555
O8 Sm1 1_555 1_555
N1 Sm1 1_555 1_555
C1 O2 1_555 1_555
C2 N1 1_555 1_555
C3 C2 1_555 1_555
C4 C3 1_555 1_555
H1 C4 1_555 1_555
C5 C4 1_555 1_555
C6 N1 1_555 1_555
C7 O8 1_555 1_555
C8 C3 1_555 1_555
C9 C5 1_555 1_555
O9 Sm1 1_555 1_555
H2 O9 1_555 1_555
H3 O9 1_555 1_555
O10 Sm1 1_555 1_555
H4 O10 1_555 1_555
H5 O10 1_555 1_555
O11 K1 1_555 1_555
H6 O11 1_555 1_555
H7 O11 1_555 1_555
O12 K1 1_555 1_555
H8 O12 1_555 1_555
H9 O12 1_555 1_555
Sm1B O3 1_555 1_555
Sm1B_2 O4 1_555 1_555
Sm1A O5 1_555 1_555
K1A O3 1_555 1_555
K1B O5 1_555 1_555
K1B_2 O6 1_555 1_555
K1C O8 1_555 1_555
O3B Sm1 1_555 1_555
O3A K1 1_555 1_555
O4B Sm1 1_555 1_555
O4A K1 1_555 1_555
O5A Sm1 1_555 1_555
O5B K1 1_555 1_555
O6A Sm1 1_555 1_555
O6B K1 1_555 1_555
O8C K1 1_555 1_555
O4 K1A 1_555 1_555
O6 Sm1A 1_555 1_555
C1 C2 1_555 1_555
C5 C6 1_555 1_555
C6 C7 1_555 1_555
K1C O4B 1_555 1_555
K1C O6A 1_555 1_555

#END
