
#######################################################################
#
#                 Cambridge Crystallographic Data Centre
#                                CCDC 
#
#######################################################################
#
# If this CIF has been generated from an entry in the Cambridge 
# Structural Database, then it will include bibliographic, chemical, 
# crystal, experimental, refinement or atomic coordinate data resulting 
# from the CCDC's data processing and validation procedures.
#
#######################################################################

data_AMOZOS
_symmetry_cell_setting           triclinic
_symmetry_space_group_name_H-M   'P -1'
_symmetry_Int_Tables_number      2
_space_group_name_Hall           '-P 1'
loop_
_symmetry_equiv_pos_site_id
_symmetry_equiv_pos_as_xyz
1 x,y,z
2 -x,-y,-z
_cell_length_a                   8.690(6)
_cell_length_b                   8.933(6)
_cell_length_c                   9.369(6)
_cell_angle_alpha                77.65(3)
_cell_angle_beta                 80.88(2)
_cell_angle_gamma                71.042(19)
_cell_volume                     668.8
loop_
_atom_site_label
_atom_site_type_symbol
_atom_site_fract_x
_atom_site_fract_y
_atom_site_fract_z
Tb1 Tb 0.14558(4) 0.33512(4) 0.66792(4)
O1 O 0.1897(6) 0.2114(7) 0.4537(6)
O2 O 0.3571(7) 0.0933(7) 0.2729(7)
O3 O 0.7239(7) -0.0661(7) 0.2344(6)
O4 O 0.6543(8) 0.1763(7) 0.0951(6)
H1 H 0.5637 0.1886 0.0660
O5 O 0.8707(6) 0.4417(7) 0.5280(6)
O6 O 0.9254(7) 0.2109(7) 0.6791(6)
O7 O 0.5843(7) 0.4293(8) 0.7806(7)
O8 O 0.3368(7) 0.4026(7) 0.7732(6)
O9 O -0.0148(7) 0.5743(7) 0.7574(6)
H2 H -0.0629 0.6364 0.6664
H3 H -0.0957 0.5845 0.8228
O10 O 0.0532(7) 0.2758(7) 0.9217(6)
H4 H -0.0361 0.3416 0.9493
H5 H 0.1223 0.2308 0.9844
N1 N 0.4304(8) 0.2726(8) 0.5418(7)
C1 C 0.3288(9) 0.1633(10) 0.3773(9)
C2 C 0.4692(10) 0.2012(10) 0.4242(8)
C3 C 0.6244(10) 0.1639(10) 0.3520(9)
C4 C 0.7458(10) 0.1994(9) 0.4054(9)
H6 H 0.8542 0.1734 0.3587
C5 C 0.7066(10) 0.2744(10) 0.5297(9)
C6 C 0.5459(10) 0.3081(9) 0.5945(9)
C7 C 0.4883(10) 0.3864(10) 0.7286(9)
C8 C 0.6683(9) 0.0804(10) 0.2213(9)
C9 C 0.8397(9) 0.3131(10) 0.5858(8)
Tb1A Tb 0.85442(4) -0.33512(4) 0.33208(4)
Tb1_2 Tb 1.14558(4) 0.33512(4) 0.66792(4)
Tb1A_2 Tb 0.85442(4) 0.66488(4) 0.33208(4)
O3A O 0.2761(7) 0.0661(7) 0.7656(6)
O5_2 O -0.1293(6) 0.4417(7) 0.5280(6)
O5A O 0.1293(6) 0.5583(7) 0.4720(6)
O6_2 O -0.0746(7) 0.2109(7) 0.6791(6)
O11 O 0.2352(7) 0.5080(7) 0.0346(6)
H7 H 0.3127 0.5198 0.0719
H8 H 0.2470 0.5209 -0.0609
O12 O 0.2033(7) 0.9867(8) 0.1101(6)
H9 H 0.1684 0.9288 0.1842
H10 H 0.1057 1.0094 0.0443
loop_
_geom_bond_atom_site_label_1
_geom_bond_atom_site_label_2
_geom_bond_site_symmetry_1
_geom_bond_site_symmetry_2
Tb1 O1 1_555 1_555
O1 C1 1_555 1_555
O2 C1 1_555 1_555
O3 C8 1_555 1_555
O4 H1 1_555 1_555
O5 C9 1_555 1_555
O6 C9 1_555 1_555
O7 C7 1_555 1_555
O8 Tb1 1_555 1_555
O9 Tb1 1_555 1_555
H2 O9 1_555 1_555
H3 O9 1_555 1_555
O10 Tb1 1_555 1_555
H4 O10 1_555 1_555
H5 O10 1_555 1_555
N1 Tb1 1_555 1_555
C1 C2 1_555 1_555
C2 N1 1_555 1_555
C3 C2 1_555 1_555
C4 C3 1_555 1_555
H6 C4 1_555 1_555
C5 C4 1_555 1_555
C6 N1 1_555 1_555
C7 O8 1_555 1_555
C8 O4 1_555 1_555
C9 C5 1_555 1_555
O11 H7 1_555 1_555
H8 O11 1_555 1_555
O12 H9 1_555 1_555
H10 O12 1_555 1_555
Tb1A O3 1_555 1_555
Tb1_2 O5 1_555 1_555
Tb1A_2 O5 1_555 1_555
O3A Tb1 1_555 1_555
O5_2 Tb1 1_555 1_555
O5A Tb1 1_555 1_555
O6_2 Tb1 1_555 1_555
O6 Tb1_2 1_555 1_555
C3 C8 1_555 1_555
C5 C6 1_555 1_555
C6 C7 1_555 1_555

#END
