
#######################################################################
#
#                 Cambridge Crystallographic Data Centre
#                                CCDC 
#
#######################################################################
#
# If this CIF has been generated from an entry in the Cambridge 
# Structural Database, then it will include bibliographic, chemical, 
# crystal, experimental, refinement or atomic coordinate data resulting 
# from the CCDC's data processing and validation procedures.
#
#######################################################################

data_AMOZUY
_symmetry_cell_setting           triclinic
_symmetry_space_group_name_H-M   'P -1'
_symmetry_Int_Tables_number      2
_space_group_name_Hall           '-P 1'
loop_
_symmetry_equiv_pos_site_id
_symmetry_equiv_pos_as_xyz
1 x,y,z
2 -x,-y,-z
_cell_length_a                   8.718(3)
_cell_length_b                   8.963(3)
_cell_length_c                   9.390(4)
_cell_angle_alpha                77.884(16)
_cell_angle_beta                 80.880(15)
_cell_angle_gamma                71.220(15)
_cell_volume                     675.908
loop_
_atom_site_label
_atom_site_type_symbol
_atom_site_fract_x
_atom_site_fract_y
_atom_site_fract_z
Eu1 Eu 0.14484(5) 0.33622(5) 0.66740(5)
O1 O 0.1926(6) 0.2102(6) 0.4500(6)
O2 O 0.3594(7) 0.0947(7) 0.2721(6)
O3 O 0.7233(6) -0.0650(6) 0.2330(6)
O4 O 0.6560(7) 0.1758(6) 0.0938(6)
H1 H 0.7010 0.1232 0.0263
O5 O 0.8732(6) 0.4379(6) 0.5289(6)
O6 O 0.9267(6) 0.2068(6) 0.6783(6)
O7 O 0.5884(7) 0.4255(7) 0.7796(7)
O8 O 0.3408(6) 0.4028(6) 0.7716(6)
O9 O -0.0161(6) 0.5786(6) 0.7611(6)
H2 H -0.0642 0.6408 0.6701
H3 H -0.0969 0.5888 0.8265
O10 O 0.0504(7) 0.2717(6) 0.9213(6)
H4 H -0.0389 0.3375 0.9489
H5 H 0.1195 0.2267 0.9840
N1 N 0.4326(7) 0.2718(7) 0.5408(7)
C1 C 0.3284(10) 0.1663(9) 0.3785(9)
C2 C 0.4699(10) 0.2004(10) 0.4244(9)
C3 C 0.6252(9) 0.1627(9) 0.3490(9)
C4 C 0.7457(9) 0.1989(9) 0.4057(8)
H6 H 0.8542 0.1733 0.3603
C5 C 0.7063(9) 0.2715(9) 0.5271(8)
C6 C 0.5489(9) 0.3076(9) 0.5939(9)
C7 C 0.4896(9) 0.3871(9) 0.7289(8)
C8 C 0.6698(9) 0.0800(10) 0.2199(9)
C9 C 0.8411(9) 0.3084(9) 0.5853(8)
Eu1A Eu 0.85516(5) -0.33622(5) 0.33260(5)
Eu1_2 Eu 1.14484(5) 0.33622(5) 0.66740(5)
Eu1A_2 Eu 0.85516(5) 0.66378(5) 0.33260(5)
O3A O 0.2767(6) 0.0650(6) 0.7670(6)
O5_2 O -0.1268(6) 0.4379(6) 0.5289(6)
O5A O 0.1268(6) 0.5621(6) 0.4711(6)
O6_2 O -0.0733(6) 0.2068(6) 0.6783(6)
O11 O 0.2375(7) 0.5042(7) 0.0332(6)
H7 H 0.3150 0.5160 0.0705
H8 H 0.2493 0.5171 -0.0622
O12 O 0.2026(6) 0.9924(6) 0.1115(6)
H9 H 0.1678 0.9345 0.1856
H10 H 0.1051 1.0151 0.0457
loop_
_geom_bond_atom_site_label_1
_geom_bond_atom_site_label_2
_geom_bond_site_symmetry_1
_geom_bond_site_symmetry_2
Eu1 O1 1_555 1_555
O1 C1 1_555 1_555
O2 C1 1_555 1_555
O3 C8 1_555 1_555
O4 H1 1_555 1_555
O5 C9 1_555 1_555
O6 C9 1_555 1_555
O7 C7 1_555 1_555
O8 Eu1 1_555 1_555
O9 Eu1 1_555 1_555
H2 O9 1_555 1_555
H3 O9 1_555 1_555
O10 Eu1 1_555 1_555
H4 O10 1_555 1_555
H5 O10 1_555 1_555
N1 Eu1 1_555 1_555
C1 C2 1_555 1_555
C2 N1 1_555 1_555
C3 C2 1_555 1_555
C4 C3 1_555 1_555
H6 C4 1_555 1_555
C5 C4 1_555 1_555
C6 N1 1_555 1_555
C7 O8 1_555 1_555
C8 O4 1_555 1_555
C9 C5 1_555 1_555
O11 H7 1_555 1_555
H8 O11 1_555 1_555
O12 H9 1_555 1_555
H10 O12 1_555 1_555
Eu1A O3 1_555 1_555
Eu1_2 O5 1_555 1_555
Eu1A_2 O5 1_555 1_555
O3A Eu1 1_555 1_555
O5_2 Eu1 1_555 1_555
O5A Eu1 1_555 1_555
O6_2 Eu1 1_555 1_555
O6 Eu1_2 1_555 1_555
C3 C8 1_555 1_555
C5 C6 1_555 1_555
C6 C7 1_555 1_555

#END
