
#######################################################################
#
#                 Cambridge Crystallographic Data Centre
#                                CCDC 
#
#######################################################################
#
# If this CIF has been generated from an entry in the Cambridge 
# Structural Database, then it will include bibliographic, chemical, 
# crystal, experimental, refinement or atomic coordinate data resulting 
# from the CCDC's data processing and validation procedures.
#
#######################################################################

data_AMOZIM
_symmetry_cell_setting           triclinic
_symmetry_space_group_name_H-M   'P -1'
_symmetry_Int_Tables_number      2
_space_group_name_Hall           '-P 1'
loop_
_symmetry_equiv_pos_site_id
_symmetry_equiv_pos_as_xyz
1 x,y,z
2 -x,-y,-z
_cell_length_a                   8.4917(17)
_cell_length_b                   9.0243(18)
_cell_length_c                   9.0255(18)
_cell_angle_alpha                78.37(3)
_cell_angle_beta                 65.06(3)
_cell_angle_gamma                84.04(3)
_cell_volume                     614.13
loop_
_atom_site_label
_atom_site_type_symbol
_atom_site_fract_x
_atom_site_fract_y
_atom_site_fract_z
La1 La -0.37198(2) 0.304915(17) 0.694658(18)
O1 O -0.2546(3) 0.0990(2) 0.8458(2)
O2 O -0.1327(3) -0.0672(2) 0.9705(2)
H1 H -0.222(5) -0.064(4) 1.044(5)
O3 O -0.1433(3) -0.2420(3) 0.7638(3)
O4 O 0.0810(3) -0.3309(2) 0.5559(3)
O5 O 0.5664(3) -0.0738(2) 0.2113(2)
O6 O 0.6092(3) 0.1680(3) 0.2084(3)
O7 O 0.5354(3) 0.3235(2) 0.4832(2)
O8 O 0.3423(3) 0.4212(2) 0.3958(3)
O9 O -0.1537(3) 0.4185(3) 0.7548(3)
H2 H -0.136(4) 0.391(4) 0.842(3)
H3 H -0.096(4) 0.494(3) 0.687(3)
O10 O -0.6959(3) 0.4287(2) 0.7714(3)
H4 H -0.664(4) 0.495(3) 0.683(2)
H5 H -0.763(4) 0.462(3) 0.859(2)
O11 O -0.5383(3) 0.3433(3) 0.9898(3)
H6 H -0.4699 0.3072 1.0356
H7 H -0.6385 0.3174 1.0644
N1 N 0.2563(3) -0.0738(3) 0.4673(3)
C1 C -0.1295(4) 0.0190(3) 0.8461(3)
C2 C 0.0462(4) 0.0257(3) 0.6989(3)
C3 C 0.1477(4) 0.1539(3) 0.6501(3)
H8 H 0.1089 0.2330 0.7135
C4 C 0.3055(4) 0.1676(3) 0.5092(3)
C5 C 0.3552(4) 0.0494(3) 0.4213(3)
C6 C 0.1053(4) -0.0876(3) 0.6035(3)
C7 C 0.0046(4) -0.2316(3) 0.6456(3)
C8 C 0.5234(4) 0.0507(3) 0.2676(3)
C9 C 0.4057(4) 0.3142(3) 0.4565(3)
La1A La 0.37198(2) -0.304915(17) 0.305342(18)
La1A_2 La 0.37198(2) 0.695085(17) 0.305342(18)
La1_2 La 0.62802(2) 0.304915(17) 0.694658(18)
O4A O -0.0810(3) 0.3309(2) 0.4441(3)
O5A O -0.5664(3) 0.0738(2) 0.7887(2)
O7_2 O -0.4646(3) 0.3235(2) 0.4832(2)
O8A O -0.3423(3) 0.5788(2) 0.6042(3)
N1A N -0.2563(3) 0.0738(3) 0.5327(3)
O12 O 0.8879(3) 0.3466(3) 0.0263(3)
H9 H 0.815(3) 0.277(3) 0.077(4)
H10 H 0.9894(19) 0.330(4) 0.019(5)
loop_
_geom_bond_atom_site_label_1
_geom_bond_atom_site_label_2
_geom_bond_site_symmetry_1
_geom_bond_site_symmetry_2
La1 O1 1_555 1_555
O1 C1 1_555 1_555
O2 H1 1_555 1_555
O3 C7 1_555 1_555
O4 C7 1_555 1_555
O5 C8 1_555 1_555
O6 C8 1_555 1_555
O7 C9 1_555 1_555
O8 C9 1_555 1_555
O9 La1 1_555 1_555
H2 O9 1_555 1_555
H3 O9 1_555 1_555
O10 La1 1_555 1_555
H4 O10 1_555 1_555
H5 O10 1_555 1_555
O11 La1 1_555 1_555
H6 O11 1_555 1_555
H7 O11 1_555 1_555
N1 C5 1_555 1_555
C1 O2 1_555 1_555
C2 C1 1_555 1_555
C3 C2 1_555 1_555
H8 C3 1_555 1_555
C4 C3 1_555 1_555
C5 C4 1_555 1_555
C6 N1 1_555 1_555
C7 C6 1_555 1_555
C8 C5 1_555 1_555
C9 C4 1_555 1_555
O12 H9 1_555 1_555
H10 O12 1_555 1_555
La1A O4 1_555 1_555
La1A_2 O8 1_555 1_555
La1_2 O7 1_555 1_555
O4A La1 1_555 1_555
O5A La1 1_555 1_555
O7_2 La1 1_555 1_555
O8A La1 1_555 1_555
N1A La1 1_555 1_555
O5 La1A 1_555 1_555
N1 La1A 1_555 1_555
C2 C6 1_555 1_555

#END
