
#######################################################################
#
#                 Cambridge Crystallographic Data Centre
#                                CCDC 
#
#######################################################################
#
# If this CIF has been generated from an entry in the Cambridge 
# Structural Database, then it will include bibliographic, chemical, 
# crystal, experimental, refinement or atomic coordinate data resulting 
# from the CCDC's data processing and validation procedures.
#
#######################################################################

data_AMPCUS
_symmetry_cell_setting           monoclinic
_symmetry_space_group_name_H-M   'P 21/n'
_symmetry_Int_Tables_number      14
_space_group_name_Hall           '-P 2yn'
loop_
_symmetry_equiv_pos_site_id
_symmetry_equiv_pos_as_xyz
1 x,y,z
2 1/2-x,1/2+y,1/2-z
3 -x,-y,-z
4 1/2+x,1/2-y,1/2+z
_cell_length_a                   7.310(1)
_cell_length_b                   13.117(1)
_cell_length_c                   14.628(2)
_cell_angle_alpha                90
_cell_angle_beta                 100.98(1)
_cell_angle_gamma                90
_cell_volume                     1376.93
loop_
_atom_site_label
_atom_site_type_symbol
_atom_site_fract_x
_atom_site_fract_y
_atom_site_fract_z
Cu1 Cu 0.31550 0.18232 0.25729
O5 O 0.53460 0.13190 0.21080
O6 O 0.10300 0.23210 0.30900
O7 O 0.39510 0.07580 0.39090
O8 O 0.24500 0.29440 0.12710
N1 N 0.15520 0.06870 0.18360
N2 N -0.13540 0.03700 0.08040
N3 N 0.47160 0.29420 0.32980
N4 N -0.22170 -0.14070 0.07580
C1 C 0.00100 0.09660 0.12280
C2 C -0.10620 -0.06070 0.10410
C3 C 0.44870 0.39910 0.33680
C4 C 0.18370 -0.03190 0.20330
C5 C 0.63590 0.27530 0.38250
C6 C -0.41170 -0.13480 0.02050
H1 H -0.01700 0.16600 0.10500
H2 H 0.29800 -0.05100 0.25200
H3 H 0.69500 0.20700 0.39500
H4 H 0.58300 0.08900 0.23100
H5 H 0.61600 0.17200 0.19900
H6 H 0.07100 0.19000 0.34400
H7 H 0.02500 0.24800 0.27600
H8 H 0.46400 0.03100 0.39600
H9 H 0.36900 0.08800 0.43600
H10 H 0.15700 0.33200 0.11500
H11 H 0.31300 0.32800 0.11600
H14 H -0.46000 -0.20200 -0.00600
H15 H -0.50800 -0.10600 0.05800
H16 H -0.41000 -0.09300 -0.04200
C4A C 0.31630 0.46810 0.29670
C2A C 0.60620 0.43930 0.39590
N4A N 0.72170 0.35930 0.42420
C3A C 0.05130 -0.10090 0.16320
N1A N 0.34480 0.56870 0.31640
H2A H 0.20200 0.44900 0.24800
N2A N 0.63540 0.53700 0.41960
C6A C 0.91170 0.36520 0.47950
N3A N 0.02840 -0.20580 0.17020
Cu1A Cu 0.18450 0.68232 0.24271
C1A C 0.49900 0.59660 0.37720
H16A H 0.91000 0.40700 0.54200
H14A H 0.96000 0.29800 0.50600
H15A H 1.00800 0.39400 0.44200
C5A C -0.13590 -0.22470 0.11750
Cu1A_2 Cu 0.18450 -0.31768 0.24271
O8A O 0.25500 0.79440 0.37290
O5A O -0.03460 0.63190 0.28920
O6A O 0.39700 0.73210 0.19100
O7A O 0.10490 0.57580 0.10910
N3A_2 N 0.02840 0.79420 0.17020
H1A H 0.51700 0.66600 0.39500
H3A H -0.19500 -0.29300 0.10500
H11A H 0.18700 0.82800 0.38400
H10A H 0.34300 0.83200 0.38500
H5A H -0.11600 0.67200 0.30100
H4A H -0.08300 0.58900 0.26900
H7A H 0.47500 0.74800 0.22400
H6A H 0.42900 0.69000 0.15600
H9A H 0.13100 0.58800 0.06400
H8A H 0.03600 0.53100 0.10400
S1 S 0.76947 0.38045 0.15543
O1 O 0.57410 0.39860 0.11030
O2 O 0.78750 0.27540 0.19150
O3 O 0.89140 0.39380 0.08750
O4 O 0.82450 0.45030 0.23330
O9 O 0.96240 0.10940 0.41980
H12 H 0.99900 0.10800 0.47100
H13 H 0.94700 0.05200 0.40200
loop_
_geom_bond_atom_site_label_1
_geom_bond_atom_site_label_2
_geom_bond_site_symmetry_1
_geom_bond_site_symmetry_2
Cu1 O5 1_555 1_555
S1 O1 1_555 1_555
O2 S1 1_555 1_555
O3 S1 1_555 1_555
O4 S1 1_555 1_555
O5 H4 1_555 1_555
O6 Cu1 1_555 1_555
O7 Cu1 1_555 1_555
O8 Cu1 1_555 1_555
O9 H12 1_555 1_555
N1 Cu1 1_555 1_555
N2 C1 1_555 1_555
N3 Cu1 1_555 1_555
N4 C2 1_555 1_555
C1 N1 1_555 1_555
C2 N2 1_555 1_555
C3 N3 1_555 1_555
C4 N1 1_555 1_555
C5 N3 1_555 1_555
C6 N4 1_555 1_555
H1 C1 1_555 1_555
H2 C4 1_555 1_555
H3 C5 1_555 1_555
H5 O5 1_555 1_555
H6 O6 1_555 1_555
H7 O6 1_555 1_555
H8 O7 1_555 1_555
H9 O7 1_555 1_555
H10 O8 1_555 1_555
H11 O8 1_555 1_555
H13 O9 1_555 1_555
H14 C6 1_555 1_555
H15 C6 1_555 1_555
H16 C6 1_555 1_555
C4A C3 1_555 1_555
C2A C3 1_555 1_555
N4A C5 1_555 1_555
C3A C2 1_555 1_555
N1A C4A 1_555 1_555
H2A C4A 1_555 1_555
N2A C2A 1_555 1_555
C6A N4A 1_555 1_555
N3A C3A 1_555 1_555
Cu1A N1A 1_555 1_555
C1A N1A 1_555 1_555
H16A C6A 1_555 1_555
H14A C6A 1_555 1_555
H15A C6A 1_555 1_555
C5A N4 1_555 1_555
Cu1A_2 N3A 1_555 1_555
O8A Cu1A 1_555 1_555
O5A Cu1A 1_555 1_555
O6A Cu1A 1_555 1_555
O7A Cu1A 1_555 1_555
N3A_2 Cu1A 1_555 1_555
H1A C1A 1_555 1_555
H3A C5A 1_555 1_555
H11A O8A 1_555 1_555
H10A O8A 1_555 1_555
H5A O5A 1_555 1_555
H4A O5A 1_555 1_555
H7A O6A 1_555 1_555
H6A O6A 1_555 1_555
H9A O7A 1_555 1_555
H8A O7A 1_555 1_555
C4 C3A 1_555 1_555
C2A N4A 1_555 1_555
N2A C1A 1_555 1_555
N3A C5A 1_555 1_555

#END
