
#######################################################################
#
#                 Cambridge Crystallographic Data Centre
#                                CCDC 
#
#######################################################################
#
# If this CIF has been generated from an entry in the Cambridge 
# Structural Database, then it will include bibliographic, chemical, 
# crystal, experimental, refinement or atomic coordinate data resulting 
# from the CCDC's data processing and validation procedures.
#
#######################################################################

data_AMUBIU
_symmetry_cell_setting           tetragonal
_symmetry_space_group_name_H-M   'I 41/a'
_symmetry_Int_Tables_number      88
_space_group_name_Hall           '-I 4ad'
loop_
_symmetry_equiv_pos_site_id
_symmetry_equiv_pos_as_xyz
1 x,y,z
2 1/2-x,-y,1/2+z
3 3/4-y,1/4+x,1/4+z
4 3/4+y,3/4-x,3/4+z
5 1/2+x,1/2+y,1/2+z
6 -x,1/2-y,z
7 1/4-y,3/4+x,3/4+z
8 1/4+y,1/4-x,1/4+z
9 -x,-y,-z
10 1/2+x,y,1/2-z
11 1/4+y,3/4-x,3/4-z
12 1/4-y,1/4+x,1/4-z
13 1/2-x,1/2-y,1/2-z
14 x,1/2+y,-z
15 3/4+y,1/4-x,1/4-z
16 3/4-y,3/4+x,3/4-z
_cell_length_a                   29.7088(10)
_cell_length_b                   29.7088(10)
_cell_length_c                   10.3135(7)
_cell_angle_alpha                90
_cell_angle_beta                 90
_cell_angle_gamma                90
_cell_volume                     9102.83
loop_
_atom_site_label
_atom_site_type_symbol
_atom_site_fract_x
_atom_site_fract_y
_atom_site_fract_z
Cd1 Cd 0.287557(15) 0.725732(15) 1.10475(4)
O1 O 0.19501(16) 0.62696(15) 0.7375(4)
O2 O 0.28386(15) 0.72775(16) 0.8721(4)
O3 O 0.34384(16) 0.69858(18) 0.9618(4)
O4 O 0.32832(19) 0.70026(17) 0.2707(4)
O5 O 0.28034(17) 0.7401(2) 0.3806(5)
N1 N 0.24736(18) 0.65657(19) 1.0988(5)
N2 N 0.1819(3) 0.5560(2) 0.7825(7)
N3 N 0.1700(3) 0.5647(3) 0.6484(6)
N4 N 0.18189(18) 0.7024(2) 0.4004(5)
C1 C 0.2293(2) 0.6448(2) 0.9803(6)
H1 H 0.2283 0.6664 0.9150
C2 C 0.2470(2) 0.6251(3) 1.1905(7)
H2 H 0.2585 0.6322 1.2718
C3 C 0.2306(3) 0.5833(3) 1.1711(8)
H3 H 0.2312 0.5625 1.2383
C4 C 0.2131(3) 0.5714(3) 1.0541(9)
H4 H 0.2016 0.5426 1.0406
C5 C 0.2129(3) 0.6033(2) 0.9549(7)
C6 C 0.1961(3) 0.5929(2) 0.8268(7)
C7 C 0.1784(2) 0.6059(3) 0.6300(6)
C8 C 0.1714(2) 0.6330(2) 0.5138(6)
C9 C 0.1894(2) 0.6755(2) 0.5026(6)
H5 H 0.2076 0.6861 0.5692
C10 C 0.1556(3) 0.6865(3) 0.3073(7)
H6 H 0.1503 0.7044 0.2351
C11 C 0.1362(3) 0.6450(3) 0.3126(8)
H7 H 0.1180 0.6350 0.2453
C12 C 0.1438(3) 0.6189(3) 0.4168(7)
H8 H 0.1300 0.5908 0.4226
C13 C 0.34061(19) 0.69864(18) 0.7326(5)
C14 C 0.31803(19) 0.71116(19) 0.6194(5)
H9 H 0.2899 0.7210 0.6464
C15 C 0.33632(19) 0.70094(18) 0.4993(5)
C16 C 0.3772(2) 0.6795(2) 0.4928(6)
H10 H 0.3895 0.6732 0.4118
C17 C 0.4008(2) 0.6670(2) 0.6030(6)
C18 C 0.3819(2) 0.6768(2) 0.7223(5)
H11 H 0.3971 0.6685 0.7974
C19 C 0.3216(2) 0.7085(2) 0.8628(5)
C20 C 0.3129(2) 0.7146(2) 0.3770(6)
C21 C 0.4461(3) 0.6431(3) 0.5939(7)
H12 H 0.4641 0.6571 0.5281
H13 H 0.4414 0.6120 0.5721
H14 H 0.4613 0.6450 0.6758
Cd1_2 Cd 0.287557(15) 0.725732(15) 0.10475(4)
Cd1L Cd 0.212443(15) 0.774268(15) 0.39525(4)
O4_2 O 0.32832(19) 0.70026(17) 1.2707(4)
O5L O 0.21966(17) 0.7599(2) 1.1194(5)
N4L N 0.31811(18) 0.7976(2) 1.0996(5)
loop_
_geom_bond_atom_site_label_1
_geom_bond_atom_site_label_2
_geom_bond_site_symmetry_1
_geom_bond_site_symmetry_2
Cd1 O2 1_555 1_555
O1 C6 1_555 1_555
O2 C19 1_555 1_555
O3 Cd1 1_555 1_555
O4 C20 1_555 1_555
O5 C20 1_555 1_555
N1 Cd1 1_555 1_555
N2 N3 1_555 1_555
N3 C7 1_555 1_555
N4 C9 1_555 1_555
C1 N1 1_555 1_555
H1 C1 1_555 1_555
C2 N1 1_555 1_555
H2 C2 1_555 1_555
C3 C2 1_555 1_555
H3 C3 1_555 1_555
C4 C3 1_555 1_555
H4 C4 1_555 1_555
C5 C1 1_555 1_555
C6 N2 1_555 1_555
C7 O1 1_555 1_555
C8 C7 1_555 1_555
C9 C8 1_555 1_555
H5 C9 1_555 1_555
C10 N4 1_555 1_555
H6 C10 1_555 1_555
C11 C10 1_555 1_555
H7 C11 1_555 1_555
C12 C8 1_555 1_555
H8 C12 1_555 1_555
C13 C14 1_555 1_555
C14 H9 1_555 1_555
C15 C14 1_555 1_555
C16 C15 1_555 1_555
H10 C16 1_555 1_555
C17 C16 1_555 1_555
C18 C13 1_555 1_555
H11 C18 1_555 1_555
C19 O3 1_555 1_555
C20 C15 1_555 1_555
C21 C17 1_555 1_555
H12 C21 1_555 1_555
H13 C21 1_555 1_555
H14 C21 1_555 1_555
Cd1_2 O4 1_555 1_555
Cd1L O5 1_555 1_555
O4_2 Cd1 1_555 1_555
O5L Cd1 1_555 1_555
N4L Cd1 1_555 1_555
N4 Cd1L 1_555 1_555
C4 C5 1_555 1_555
C5 C6 1_555 1_555
C11 C12 1_555 1_555
C13 C19 1_555 1_555
C17 C18 1_555 1_555

#END
