
#######################################################################
#
#                 Cambridge Crystallographic Data Centre
#                                CCDC 
#
#######################################################################
#
# If this CIF has been generated from an entry in the Cambridge 
# Structural Database, then it will include bibliographic, chemical, 
# crystal, experimental, refinement or atomic coordinate data resulting 
# from the CCDC's data processing and validation procedures.
#
#######################################################################

data_AMUBOA
_symmetry_cell_setting           monoclinic
_symmetry_space_group_name_H-M   'C 2'
_symmetry_Int_Tables_number      5
_space_group_name_Hall           'C 2y'
loop_
_symmetry_equiv_pos_site_id
_symmetry_equiv_pos_as_xyz
1 x,y,z
2 -x,y,-z
3 1/2+x,1/2+y,z
4 1/2-x,1/2+y,-z
_cell_length_a                   21.225(2)
_cell_length_b                   17.3202(18)
_cell_length_c                   21.869(2)
_cell_angle_alpha                90
_cell_angle_beta                 101.709(2)
_cell_angle_gamma                90
_cell_volume                     7872.21
loop_
_atom_site_label
_atom_site_type_symbol
_atom_site_fract_x
_atom_site_fract_y
_atom_site_fract_z
Cd3 Cd 0.18938(2) 0.25959(2) 0.293890(18)
Cd4 Cd 0.306451(19) 0.76244(2) 0.199195(18)
O12 O 0.1984(2) 0.3886(2) 0.2761(2)
O13 O 0.14325(19) 0.3687(3) 0.34953(17)
O14 O 0.2655(2) 0.6504(3) 0.2329(2)
O15 O 0.2348(2) 0.7501(2) 0.27883(17)
O16 O 0.0892(3) 0.6406(3) 0.4102(3)
O17 O 0.36026(19) -0.1262(3) 0.14353(18)
O18 O 0.3022(2) -0.10885(19) 0.21449(18)
O19 O 0.2313(2) 0.1507(3) 0.2605(2)
O20 O 0.2646(2) 0.2525(3) 0.21825(18)
O21 O 0.4176(2) 0.1527(3) 0.0929(2)
O22 O 0.05017(19) 0.8175(3) 0.1883(2)
O23 O 0.5000 0.6398(3) 0.0000
O24 O 0.0000 0.1374(3) 0.5000
O28 O 0.27555(19) 0.2743(2) 0.37650(18)
H7 H 0.2752 0.2403 0.4044
H8 H 0.2647 0.3198 0.3847
O29 O 0.09639(17) 0.2600(3) 0.21571(16)
H9 H 0.1091 0.2650 0.1815
H10 H 0.0740 0.2967 0.2259
O30 O 0.39419(17) 0.7551(3) 0.28212(16)
H11 H 0.3815 0.7565 0.3165
H12 H 0.4128 0.7951 0.2718
N5 N 0.3551(2) 0.6782(3) 0.1388(2)
N6 N 0.4792(2) 0.7588(3) 0.0213(2)
N7 N 0.1376(2) 0.1748(3) 0.3528(2)
N8 N 0.0193(2) 0.2573(3) 0.4778(2)
N9 N 0.2151(2) 0.7821(2) 0.12137(19)
N10 N -0.0084(3) 0.8558(4) 0.1003(3)
N11 N -0.0462(3) 0.8583(4) 0.1465(3)
C1 C -0.0969(4) 0.8058(5) 0.3255(4)
H15 H -0.1387 0.7992 0.3315
C32 C 0.0974(3) 0.2002(3) 0.3885(3)
H36 H 0.0885 0.2528 0.3884
C33 C 0.1475(3) 0.0988(4) 0.3519(3)
H37 H 0.1744 0.0797 0.3268
C34 C 0.1197(3) 0.0475(4) 0.3865(3)
H38 H 0.1282 -0.0050 0.3847
C35 C 0.0794(3) 0.0740(4) 0.4235(3)
H39 H 0.0598 0.0400 0.4468
C36 C 0.0686(3) 0.1528(4) 0.4253(2)
C37 C 0.0284(3) 0.1855(4) 0.4667(2)
C38 C 0.3960(3) 0.7034(3) 0.1049(2)
H40 H 0.4037 0.7562 0.1039
C39 C 0.3453(3) 0.6012(4) 0.1402(3)
H41 H 0.3164 0.5824 0.1634
C40 C 0.3754(3) 0.5505(3) 0.1093(3)
H42 H 0.3685 0.4978 0.1129
C41 C 0.4165(3) 0.5763(3) 0.0726(3)
H43 H 0.4362 0.5420 0.0496
C42 C 0.4278(2) 0.6555(3) 0.0710(2)
C43 C 0.4689(3) 0.6877(3) 0.0320(2)
C44 C 0.1614(3) 0.8009(3) 0.1414(3)
H44 H 0.1634 0.8044 0.1841
C45 C 0.2124(3) 0.7792(4) 0.0606(3)
H45 H 0.2499 0.7681 0.0464
C46 C 0.1556(4) 0.7921(4) 0.0165(3)
H46 H 0.1548 0.7876 -0.0261
C47 C 0.1010(3) 0.8116(4) 0.0376(3)
H47 H 0.0630 0.8220 0.0093
C48 C 0.1026(3) 0.8156(4) 0.1011(3)
C49 C 0.0461(3) 0.8319(3) 0.1269(3)
C50 C -0.0102(3) 0.8361(4) 0.1959(4)
C51 C -0.0237(3) 0.8241(5) 0.2595(4)
C52 C 0.0259(4) 0.8214(6) 0.3104(4)
H48 H 0.0682 0.8263 0.3053
N12 N 0.0131(4) 0.8118(6) 0.3682(4)
C53 C -0.0479(5) 0.8029(6) 0.3743(5)
H49 H -0.0563 0.7944 0.4139
C54 C -0.0863(3) 0.8184(5) 0.2672(4)
H50 H -0.1205 0.8229 0.2333
C55 C 0.1980(2) 0.6270(3) 0.3046(2)
C56 C 0.2018(2) 0.5480(3) 0.2959(2)
H51 H 0.2273 0.5282 0.2696
C57 C 0.1671(2) 0.4988(3) 0.3269(2)
C58 C 0.1283(3) 0.5278(3) 0.3657(2)
H52 H 0.1048 0.4948 0.3861
C59 C 0.1254(3) 0.6068(4) 0.3732(3)
C60 C 0.1599(3) 0.6569(4) 0.3430(3)
H53 H 0.1574 0.7099 0.3485
C61 C 0.2356(3) 0.6796(3) 0.2704(3)
C62 C 0.1697(2) 0.4131(3) 0.3179(2)
C63 C 0.0604(4) 0.5977(6) 0.4495(4)
H54 H 0.0308 0.5618 0.4255
H55 H 0.0374 0.6314 0.4722
H56 H 0.0926 0.5700 0.4783
C64 C 0.3376(2) 0.0043(3) 0.1697(2)
C65 C 0.3028(2) 0.0514(3) 0.2006(2)
H57 H 0.2770 0.0298 0.2258
C66 C 0.3055(2) 0.1307(3) 0.1947(2)
C67 C 0.3445(3) 0.1620(4) 0.1580(3)
H58 H 0.3466 0.2154 0.1539
C68 C 0.3802(3) 0.1155(3) 0.1276(3)
C69 C 0.3773(2) 0.0358(3) 0.1330(2)
H59 H 0.4016 0.0041 0.1124
C70 C 0.3335(2) -0.0824(3) 0.1754(2)
C71 C 0.2648(3) 0.1814(4) 0.2266(3)
C72 C 0.4388(3) 0.1107(5) 0.0462(3)
H60 H 0.4687 0.0718 0.0651
H61 H 0.4596 0.1449 0.0220
H62 H 0.4026 0.0865 0.0196
Cd3A Cd -0.18938(2) 0.25959(2) 0.706110(18)
Cd3_2 Cd 0.18938(2) 1.25959(2) 0.293890(18)
Cd3_3 Cd 0.18938(2) -0.74041(2) 0.293890(18)
Cd3A_2 Cd 0.81062(2) 0.25959(2) -0.293890(18)
Cd3A_3 Cd 0.81062(2) 1.25959(2) -0.293890(18)
Cd3A_4 Cd -0.18938(2) 1.25959(2) 0.706110(18)
Cd3A_5 Cd -0.18938(2) -0.74041(2) 0.706110(18)
Cd4_2 Cd 0.306451(19) -0.23756(2) 0.199195(18)
Cd4A Cd 0.693549(19) 0.76244(2) -0.199195(18)
Cd4A_2 Cd -0.306451(19) 0.76244(2) 0.800805(18)
Cd4A_3 Cd -0.306451(19) -0.23756(2) 0.800805(18)
Cd4_3 Cd 0.306451(19) 1.76244(2) 0.199195(18)
Cd4A_4 Cd 0.693549(19) -0.23756(2) -0.199195(18)
Cd4_4 Cd -0.693549(19) 0.76244(2) 1.199195(18)
Cd4_5 Cd 0.306451(19) -1.23756(2) 0.199195(18)
O12A O -0.1984(2) 0.3886(2) 0.7239(2)
O12_2 O 0.1984(2) 1.3886(2) 0.2761(2)
O12_3 O 0.1984(2) -0.6114(2) 0.2761(2)
O12A_2 O 0.8016(2) 0.3886(2) -0.2761(2)
O12A_3 O 0.8016(2) 1.3886(2) -0.2761(2)
O12A_4 O -0.1984(2) 1.3886(2) 0.7239(2)
O12A_5 O -0.1984(2) -0.6114(2) 0.7239(2)
O13A O -0.14325(19) 0.3687(3) 0.65047(17)
O13_2 O 0.14325(19) 1.3687(3) 0.34953(17)
O13_3 O 0.14325(19) -0.6313(3) 0.34953(17)
O13A_2 O 0.85675(19) 0.3687(3) -0.34953(17)
O13A_3 O 0.85675(19) 1.3687(3) -0.34953(17)
O13A_4 O -0.14325(19) 1.3687(3) 0.65047(17)
O13A_5 O -0.14325(19) -0.6313(3) 0.65047(17)
O14A O -0.2655(2) 0.6504(3) 0.7671(2)
O14_2 O 0.2655(2) -0.3496(3) 0.2329(2)
O14A_2 O 0.7345(2) 0.6504(3) -0.2329(2)
O14_3 O 0.2655(2) 1.6504(3) 0.2329(2)
O14A_3 O -0.2655(2) -0.3496(3) 0.7671(2)
O14A_4 O 0.7345(2) -0.3496(3) -0.2329(2)
O14_4 O -0.7345(2) 0.6504(3) 1.2329(2)
O14A_5 O 0.7345(2) 1.6504(3) -0.2329(2)
O14A_6 O -0.2655(2) 1.6504(3) 0.7671(2)
O15A O -0.2348(2) 0.7501(2) 0.72117(17)
O15_2 O 0.2348(2) -0.2499(2) 0.27883(17)
O15A_2 O 0.7652(2) 0.7501(2) -0.27883(17)
O15_3 O 0.2348(2) 1.7501(2) 0.27883(17)
O15A_3 O -0.2348(2) -0.2499(2) 0.72117(17)
O15A_4 O 0.7652(2) -0.2499(2) -0.27883(17)
O15_4 O -0.7652(2) 0.7501(2) 1.27883(17)
O15A_5 O 0.7652(2) 1.7501(2) -0.27883(17)
O15A_6 O -0.2348(2) 1.7501(2) 0.72117(17)
O16A O -0.0892(3) 0.6406(3) 0.5898(3)
O16_2 O 0.0892(3) -0.3594(3) 0.4102(3)
O16A_2 O 0.9108(3) 0.6406(3) -0.4102(3)
O16_3 O 0.0892(3) 1.6406(3) 0.4102(3)
O16A_3 O -0.0892(3) -0.3594(3) 0.5898(3)
O16A_4 O 0.9108(3) 1.6406(3) -0.4102(3)
O16A_5 O -0.0892(3) 1.6406(3) 0.5898(3)
O16A_6 O 0.9108(3) -0.3594(3) -0.4102(3)
O17_2 O 0.36026(19) 0.8738(3) 0.14353(18)
O17A O 0.63974(19) 0.8738(3) -0.14353(18)
O17A_2 O -0.36026(19) 0.8738(3) 0.85647(18)
O17A_3 O -0.36026(19) -0.1262(3) 0.85647(18)
O17_3 O 0.36026(19) 1.8738(3) 0.14353(18)
O17A_4 O 0.63974(19) -0.1262(3) -0.14353(18)
O17_4 O -0.63974(19) 0.8738(3) 1.14353(18)
O17_5 O 0.36026(19) -1.1262(3) 0.14353(18)
O18_2 O 0.3022(2) 0.89115(19) 0.21449(18)
O18A O 0.6978(2) 0.89115(19) -0.21449(18)
O18A_2 O -0.3022(2) 0.89115(19) 0.78551(18)
O18A_3 O -0.3022(2) -0.10885(19) 0.78551(18)
O18_3 O 0.3022(2) 1.89115(19) 0.21449(18)
O18A_4 O 0.6978(2) -0.10885(19) -0.21449(18)
O18_4 O -0.6978(2) 0.89115(19) 1.21449(18)
O18_5 O 0.3022(2) -1.10885(19) 0.21449(18)
O19_2 O 0.2313(2) 1.1507(3) 0.2605(2)
O19A O -0.2313(2) 0.1507(3) 0.7395(2)
O19A_2 O 0.7687(2) 1.1507(3) -0.2605(2)
O19A_3 O -0.2313(2) 1.1507(3) 0.7395(2)
O19_3 O 0.2313(2) -0.8493(3) 0.2605(2)
O19A_4 O 0.7687(2) 0.1507(3) -0.2605(2)
O19_4 O 0.2313(2) 2.1507(3) 0.2605(2)
O20_2 O 0.2646(2) 1.2525(3) 0.21825(18)
O20A O -0.2646(2) 0.2525(3) 0.78175(18)
O20A_2 O 0.7354(2) 1.2525(3) -0.21825(18)
O20A_3 O -0.2646(2) 1.2525(3) 0.78175(18)
O20_3 O 0.2646(2) -0.7475(3) 0.21825(18)
O20A_4 O 0.7354(2) 0.2525(3) -0.21825(18)
O20_4 O 0.2646(2) 2.2525(3) 0.21825(18)
O21_2 O 0.4176(2) 1.1527(3) 0.0929(2)
O21A O -0.4176(2) 0.1527(3) 0.9071(2)
O21A_2 O 0.5824(2) 1.1527(3) -0.0929(2)
O21A_3 O -0.4176(2) 1.1527(3) 0.9071(2)
O21_3 O 0.4176(2) -0.8473(3) 0.0929(2)
O21A_4 O 0.5824(2) 0.1527(3) -0.0929(2)
O21_4 O 0.4176(2) 2.1527(3) 0.0929(2)
O22_2 O 0.05017(19) -0.1825(3) 0.1883(2)
O22A O 0.94983(19) 0.8175(3) -0.1883(2)
O22A_2 O -0.05017(19) 0.8175(3) 0.8117(2)
O22A_3 O -0.05017(19) -0.1825(3) 0.8117(2)
O22_3 O 0.05017(19) 1.8175(3) 0.1883(2)
O22A_4 O 0.94983(19) -0.1825(3) -0.1883(2)
O22_4 O -0.94983(19) 0.8175(3) 1.1883(2)
O23_2 O 0.5000 -0.3602(3) 0.0000
O23_3 O -0.5000 0.6398(3) 1.0000
O23_4 O -0.5000 -0.3602(3) 1.0000
O23_5 O 0.5000 1.6398(3) 0.0000
O24_2 O 0.0000 1.1374(3) 0.5000
O24_3 O 0.0000 -0.8626(3) 0.5000
O24_4 O 1.0000 0.1374(3) -0.5000
O24_5 O 1.0000 1.1374(3) -0.5000
O28A O -0.27555(19) 0.2743(2) 0.62350(18)
O28_2 O 0.27555(19) 1.2743(2) 0.37650(18)
O28_3 O 0.27555(19) -0.7257(2) 0.37650(18)
O28A_2 O 0.72445(19) 0.2743(2) -0.37650(18)
O28A_3 O 0.72445(19) 1.2743(2) -0.37650(18)
O28A_4 O -0.27555(19) 1.2743(2) 0.62350(18)
H7A H -0.2752 0.2403 0.5956
H7_2 H 0.2752 1.2403 0.4044
H7_3 H 0.2752 -0.7597 0.4044
H7A_2 H 0.7248 0.2403 -0.4044
H7A_3 H 0.7248 1.2403 -0.4044
H7A_4 H -0.2752 1.2403 0.5956
H8A H -0.2647 0.3198 0.6153
H8_2 H 0.2647 1.3198 0.3847
H8_3 H 0.2647 -0.6802 0.3847
H8A_2 H 0.7353 0.3198 -0.3847
H8A_3 H 0.7353 1.3198 -0.3847
H8A_4 H -0.2647 1.3198 0.6153
O29A O -0.09639(17) 0.2600(3) 0.78429(16)
O29_2 O 0.09639(17) 1.2600(3) 0.21571(16)
O29_3 O 0.09639(17) -0.7400(3) 0.21571(16)
O29A_2 O 0.90361(17) 0.2600(3) -0.21571(16)
O29A_3 O 0.90361(17) 1.2600(3) -0.21571(16)
O29A_4 O -0.09639(17) 1.2600(3) 0.78429(16)
H9A H -0.1091 0.2650 0.8185
H9_2 H 0.1091 1.2650 0.1815
H9_3 H 0.1091 -0.7350 0.1815
H9A_2 H 0.8909 0.2650 -0.1815
H9A_3 H 0.8909 1.2650 -0.1815
H9A_4 H -0.1091 1.2650 0.8185
H10A H -0.0740 0.2967 0.7741
H10_2 H 0.0740 1.2967 0.2259
H10_3 H 0.0740 -0.7033 0.2259
H10A_2 H 0.9260 0.2967 -0.2259
H10A_3 H 0.9260 1.2967 -0.2259
H10A_4 H -0.0740 1.2967 0.7741
O30_2 O 0.39419(17) -0.2449(3) 0.28212(16)
O30A O 0.60581(17) 0.7551(3) -0.28212(16)
O30A_2 O -0.39419(17) 0.7551(3) 0.71788(16)
O30A_3 O -0.39419(17) -0.2449(3) 0.71788(16)
O30_3 O 0.39419(17) 1.7551(3) 0.28212(16)
O30A_4 O 0.60581(17) -0.2449(3) -0.28212(16)
O30_4 O -0.60581(17) 0.7551(3) 1.28212(16)
H11_2 H 0.3815 -0.2435 0.3165
H11A H 0.6185 0.7565 -0.3165
H11A_2 H -0.3815 0.7565 0.6835
H11A_3 H -0.3815 -0.2435 0.6835
H11_3 H 0.3815 1.7565 0.3165
H11A_4 H 0.6185 -0.2435 -0.3165
H11_4 H -0.6185 0.7565 1.3165
H12_2 H 0.4128 -0.2049 0.2718
H12A H 0.5872 0.7951 -0.2718
H12A_2 H -0.4128 0.7951 0.7282
H12A_3 H -0.4128 -0.2049 0.7282
H12_3 H 0.4128 1.7951 0.2718
H12A_4 H 0.5872 -0.2049 -0.2718
H12_4 H -0.5872 0.7951 1.2718
N5A N 0.6449(2) 0.6782(3) -0.1388(2)
N5_2 N 0.3551(2) -0.3218(3) 0.1388(2)
N5A_2 N -0.3551(2) 0.6782(3) 0.8612(2)
N5A_3 N -0.3551(2) -0.3218(3) 0.8612(2)
N5A_4 N 0.6449(2) -0.3218(3) -0.1388(2)
N5_3 N 0.3551(2) 1.6782(3) 0.1388(2)
N5_4 N -0.6449(2) 0.6782(3) 1.1388(2)
N6A N 0.5208(2) 0.7588(3) -0.0213(2)
N6_2 N 0.4792(2) -0.2412(3) 0.0213(2)
N6A_2 N 0.5208(2) -0.2412(3) -0.0213(2)
N6A_3 N -0.4792(2) 0.7588(3) 0.9787(2)
N6_3 N -0.5208(2) 0.7588(3) 1.0213(2)
N6A_4 N -0.4792(2) -0.2412(3) 0.9787(2)
N6_4 N -0.5208(2) -0.2412(3) 1.0213(2)
N6_5 N 0.4792(2) 1.7588(3) 0.0213(2)
N6A_5 N 0.5208(2) 1.7588(3) -0.0213(2)
N7A N -0.1376(2) 0.1748(3) 0.6472(2)
N7_2 N 0.1376(2) 1.1748(3) 0.3528(2)
N7_3 N 0.1376(2) -0.8252(3) 0.3528(2)
N7A_2 N 0.8624(2) 0.1748(3) -0.3528(2)
N7A_3 N 0.8624(2) 1.1748(3) -0.3528(2)
N7A_4 N -0.1376(2) 1.1748(3) 0.6472(2)
N8A N -0.0193(2) 0.2573(3) 0.5222(2)
N8_2 N 0.0193(2) 1.2573(3) 0.4778(2)
N8A_2 N -0.0193(2) 1.2573(3) 0.5222(2)
N8_3 N 0.0193(2) -0.7427(3) 0.4778(2)
N8A_3 N 0.9807(2) 0.2573(3) -0.4778(2)
N8A_4 N 0.9807(2) 1.2573(3) -0.4778(2)
N8A_5 N -0.0193(2) -0.7427(3) 0.5222(2)
N8_4 N 1.0193(2) 0.2573(3) -0.5222(2)
N8_5 N 1.0193(2) 1.2573(3) -0.5222(2)
N9_2 N 0.2151(2) -0.2179(2) 0.12137(19)
N9A N 0.7849(2) 0.7821(2) -0.12137(19)
N9A_2 N -0.2151(2) 0.7821(2) 0.87863(19)
N9A_3 N -0.2151(2) -0.2179(2) 0.87863(19)
N9_3 N 0.2151(2) 1.7821(2) 0.12137(19)
N9A_4 N 0.7849(2) -0.2179(2) -0.12137(19)
N9_4 N -0.7849(2) 0.7821(2) 1.12137(19)
N10_2 N -0.0084(3) -0.1442(4) 0.1003(3)
N10A N 1.0084(3) 0.8558(4) -0.1003(3)
N10A_2 N 0.0084(3) 0.8558(4) 0.8997(3)
N10A_3 N 0.0084(3) -0.1442(4) 0.8997(3)
N10_3 N -0.0084(3) 1.8558(4) 0.1003(3)
N10A_4 N 1.0084(3) -0.1442(4) -0.1003(3)
N10_4 N -1.0084(3) 0.8558(4) 1.1003(3)
N11_2 N -0.0462(3) -0.1417(4) 0.1465(3)
N11A N 1.0462(3) 0.8583(4) -0.1465(3)
N11A_2 N 0.0462(3) 0.8583(4) 0.8535(3)
N11A_3 N 0.0462(3) -0.1417(4) 0.8535(3)
N11_3 N -0.0462(3) 1.8583(4) 0.1465(3)
N11A_4 N 1.0462(3) -0.1417(4) -0.1465(3)
C1_2 C -0.0969(4) -0.1942(5) 0.3255(4)
C1A C 1.0969(4) 0.8058(5) -0.3255(4)
C1A_2 C 0.0969(4) 0.8058(5) 0.6745(4)
H15_2 H -0.1387 -0.2008 0.3315
H15A H 1.1387 0.7992 -0.3315
H15A_2 H 0.1387 0.7992 0.6685
C32A C -0.0974(3) 0.2002(3) 0.6115(3)
C32_2 C 0.0974(3) 1.2002(3) 0.3885(3)
C32A_2 C -0.0974(3) 1.2002(3) 0.6115(3)
C32_3 C 0.0974(3) -0.7998(3) 0.3885(3)
C32A_3 C 0.9026(3) 0.2002(3) -0.3885(3)
C32A_4 C 0.9026(3) 1.2002(3) -0.3885(3)
C32A_5 C -0.0974(3) -0.7998(3) 0.6115(3)
H36A H -0.0885 0.2528 0.6116
H36_2 H 0.0885 1.2528 0.3884
H36A_2 H -0.0885 1.2528 0.6116
H36_3 H 0.0885 -0.7472 0.3884
H36A_3 H 0.9115 0.2528 -0.3884
H36A_4 H 0.9115 1.2528 -0.3884
C33A C -0.1475(3) 0.0988(4) 0.6481(3)
C33_2 C 0.1475(3) 1.0988(4) 0.3519(3)
C33_3 C 0.1475(3) -0.9012(4) 0.3519(3)
C33A_2 C 0.8525(3) 0.0988(4) -0.3519(3)
C33A_3 C 0.8525(3) 1.0988(4) -0.3519(3)
C33A_4 C -0.1475(3) 1.0988(4) 0.6481(3)
H37A H -0.1744 0.0797 0.6732
H37_2 H 0.1744 1.0797 0.3268
H37_3 H 0.1744 -0.9203 0.3268
H37A_2 H 0.8256 0.0797 -0.3268
H37A_3 H 0.8256 1.0797 -0.3268
H37A_4 H -0.1744 1.0797 0.6732
C34A C -0.1197(3) 0.0475(4) 0.6135(3)
C34_2 C 0.1197(3) 1.0475(4) 0.3865(3)
C34A_2 C -0.1197(3) 1.0475(4) 0.6135(3)
C34_3 C 0.1197(3) -0.9525(4) 0.3865(3)
C34A_3 C 0.8803(3) 0.0475(4) -0.3865(3)
C34A_4 C 0.8803(3) 1.0475(4) -0.3865(3)
H38A H -0.1282 -0.0050 0.6153
H38_2 H 0.1282 0.9950 0.3847
H38A_2 H -0.1282 0.9950 0.6153
H38_3 H 0.1282 -1.0050 0.3847
H38A_3 H 0.8718 -0.0050 -0.3847
H38A_4 H 0.8718 0.9950 -0.3847
C35A C -0.0794(3) 0.0740(4) 0.5765(3)
C35_2 C 0.0794(3) 1.0740(4) 0.4235(3)
C35A_2 C -0.0794(3) 1.0740(4) 0.5765(3)
C35_3 C 0.0794(3) -0.9260(4) 0.4235(3)
C35A_3 C 0.9206(3) 0.0740(4) -0.4235(3)
C35A_4 C 0.9206(3) 1.0740(4) -0.4235(3)
C35A_5 C -0.0794(3) -0.9260(4) 0.5765(3)
H39A H -0.0598 0.0400 0.5532
H39_2 H 0.0598 1.0400 0.4468
H39A_2 H -0.0598 1.0400 0.5532
H39_3 H 0.0598 -0.9600 0.4468
H39A_3 H 0.9402 0.0400 -0.4468
H39A_4 H 0.9402 1.0400 -0.4468
C36A C -0.0686(3) 0.1528(4) 0.5747(2)
C36_2 C 0.0686(3) 1.1528(4) 0.4253(2)
C36A_2 C -0.0686(3) 1.1528(4) 0.5747(2)
C36_3 C 0.0686(3) -0.8472(4) 0.4253(2)
C36A_3 C 0.9314(3) 0.1528(4) -0.4253(2)
C36A_4 C 0.9314(3) 1.1528(4) -0.4253(2)
C36A_5 C -0.0686(3) -0.8472(4) 0.5747(2)
C36_4 C 1.0686(3) 0.1528(4) -0.5747(2)
C36_5 C 1.0686(3) 1.1528(4) -0.5747(2)
C37A C -0.0284(3) 0.1855(4) 0.5333(2)
C37_2 C 0.0284(3) 1.1855(4) 0.4667(2)
C37A_2 C -0.0284(3) 1.1855(4) 0.5333(2)
C37_3 C 0.0284(3) -0.8145(4) 0.4667(2)
C37A_3 C 0.9716(3) 0.1855(4) -0.4667(2)
C37A_4 C 0.9716(3) 1.1855(4) -0.4667(2)
C37A_5 C -0.0284(3) -0.8145(4) 0.5333(2)
C37_4 C 1.0284(3) 0.1855(4) -0.5333(2)
C37_5 C 1.0284(3) 1.1855(4) -0.5333(2)
C38A C 0.6040(3) 0.7034(3) -0.1049(2)
C38_2 C 0.3960(3) -0.2966(3) 0.1049(2)
C38A_2 C -0.3960(3) 0.7034(3) 0.8951(2)
C38A_3 C 0.6040(3) -0.2966(3) -0.1049(2)
C38_3 C -0.6040(3) 0.7034(3) 1.1049(2)
C38A_4 C -0.3960(3) -0.2966(3) 0.8951(2)
C38_4 C 0.3960(3) 1.7034(3) 0.1049(2)
C38_5 C -0.6040(3) -0.2966(3) 1.1049(2)
H40A H 0.5963 0.7562 -0.1039
H40_2 H 0.4037 -0.2438 0.1039
H40A_2 H -0.4037 0.7562 0.8961
H40A_3 H 0.5963 -0.2438 -0.1039
H40_3 H -0.5963 0.7562 1.1039
H40A_4 H -0.4037 -0.2438 0.8961
H40_4 H 0.4037 1.7562 0.1039
C39A C 0.6547(3) 0.6012(4) -0.1402(3)
C39_2 C 0.3453(3) -0.3988(4) 0.1402(3)
C39A_2 C -0.3453(3) 0.6012(4) 0.8598(3)
C39A_3 C -0.3453(3) -0.3988(4) 0.8598(3)
C39A_4 C 0.6547(3) -0.3988(4) -0.1402(3)
C39_3 C 0.3453(3) 1.6012(4) 0.1402(3)
C39_4 C -0.6547(3) 0.6012(4) 1.1402(3)
H41A H 0.6836 0.5824 -0.1634
H41_2 H 0.3164 -0.4176 0.1634
H41A_2 H -0.3164 0.5824 0.8366
H41A_3 H -0.3164 -0.4176 0.8366
H41A_4 H 0.6836 -0.4176 -0.1634
H41_3 H 0.3164 1.5824 0.1634
H41_4 H -0.6836 0.5824 1.1634
C40A C 0.6246(3) 0.5505(3) -0.1093(3)
C40_2 C 0.3754(3) -0.4495(3) 0.1093(3)
C40A_2 C -0.3754(3) 0.5505(3) 0.8907(3)
C40A_3 C 0.6246(3) -0.4495(3) -0.1093(3)
C40_3 C -0.6246(3) 0.5505(3) 1.1093(3)
C40A_4 C -0.3754(3) -0.4495(3) 0.8907(3)
C40_4 C 0.3754(3) 1.5505(3) 0.1093(3)
H42A H 0.6315 0.4978 -0.1129
H42_2 H 0.3685 -0.5022 0.1129
H42A_2 H -0.3685 0.4978 0.8871
H42A_3 H 0.6315 -0.5022 -0.1129
H42_3 H -0.6315 0.4978 1.1129
H42A_4 H -0.3685 -0.5022 0.8871
H42_4 H 0.3685 1.4978 0.1129
C41A C 0.5835(3) 0.5763(3) -0.0726(3)
C41_2 C 0.4165(3) -0.4237(3) 0.0726(3)
C41A_2 C -0.4165(3) 0.5763(3) 0.9274(3)
C41A_3 C 0.5835(3) -0.4237(3) -0.0726(3)
C41_3 C -0.5835(3) 0.5763(3) 1.0726(3)
C41A_4 C -0.4165(3) -0.4237(3) 0.9274(3)
C41_4 C 0.4165(3) 1.5763(3) 0.0726(3)
C41_5 C -0.5835(3) -0.4237(3) 1.0726(3)
H43A H 0.5638 0.5420 -0.0496
H43_2 H 0.4362 -0.4580 0.0496
H43A_2 H -0.4362 0.5420 0.9504
H43A_3 H 0.5638 -0.4580 -0.0496
H43_3 H -0.5638 0.5420 1.0496
H43A_4 H -0.4362 -0.4580 0.9504
H43_4 H 0.4362 1.5420 0.0496
C42A C 0.5722(2) 0.6555(3) -0.0710(2)
C42_2 C 0.4278(2) -0.3445(3) 0.0710(2)
C42A_2 C -0.4278(2) 0.6555(3) 0.9290(2)
C42A_3 C 0.5722(2) -0.3445(3) -0.0710(2)
C42_3 C -0.5722(2) 0.6555(3) 1.0710(2)
C42A_4 C -0.4278(2) -0.3445(3) 0.9290(2)
C42_4 C 0.4278(2) 1.6555(3) 0.0710(2)
C42_5 C -0.5722(2) -0.3445(3) 1.0710(2)
C42A_5 C 0.5722(2) 1.6555(3) -0.0710(2)
C43A C 0.5311(3) 0.6877(3) -0.0320(2)
C43_2 C 0.4689(3) -0.3123(3) 0.0320(2)
C43A_2 C -0.4689(3) 0.6877(3) 0.9680(2)
C43A_3 C 0.5311(3) -0.3123(3) -0.0320(2)
C43_3 C -0.5311(3) 0.6877(3) 1.0320(2)
C43A_4 C -0.4689(3) -0.3123(3) 0.9680(2)
C43_4 C 0.4689(3) 1.6877(3) 0.0320(2)
C43_5 C -0.5311(3) -0.3123(3) 1.0320(2)
C43A_5 C 0.5311(3) 1.6877(3) -0.0320(2)
C44_2 C 0.1614(3) -0.1991(3) 0.1414(3)
C44A C 0.8386(3) 0.8009(3) -0.1414(3)
C44A_2 C -0.1614(3) 0.8009(3) 0.8586(3)
C44A_3 C -0.1614(3) -0.1991(3) 0.8586(3)
C44_3 C 0.1614(3) 1.8009(3) 0.1414(3)
C44A_4 C 0.8386(3) -0.1991(3) -0.1414(3)
C44_4 C -0.8386(3) 0.8009(3) 1.1414(3)
H44_2 H 0.1634 -0.1956 0.1841
H44A H 0.8366 0.8044 -0.1841
H44A_2 H -0.1634 0.8044 0.8159
H44A_3 H -0.1634 -0.1956 0.8159
H44_3 H 0.1634 1.8044 0.1841
H44A_4 H 0.8366 -0.1956 -0.1841
H44_4 H -0.8366 0.8044 1.1841
C45_2 C 0.2124(3) -0.2208(4) 0.0606(3)
C45A C 0.7876(3) 0.7792(4) -0.0606(3)
C45A_2 C -0.2124(3) 0.7792(4) 0.9394(3)
C45A_3 C -0.2124(3) -0.2208(4) 0.9394(3)
C45_3 C 0.2124(3) 1.7792(4) 0.0606(3)
C45A_4 C 0.7876(3) -0.2208(4) -0.0606(3)
C45_4 C -0.7876(3) 0.7792(4) 1.0606(3)
H45_2 H 0.2499 -0.2319 0.0464
H45A H 0.7501 0.7681 -0.0464
H45A_2 H -0.2499 0.7681 0.9536
H45A_3 H -0.2499 -0.2319 0.9536
H45_3 H 0.2499 1.7681 0.0464
H45A_4 H 0.7501 -0.2319 -0.0464
H45_4 H -0.7501 0.7681 1.0464
C46_2 C 0.1556(4) -0.2079(4) 0.0165(3)
C46A C 0.8444(4) 0.7921(4) -0.0165(3)
C46A_2 C -0.1556(4) 0.7921(4) 0.9835(3)
C46A_3 C -0.1556(4) -0.2079(4) 0.9835(3)
C46_3 C 0.1556(4) 1.7921(4) 0.0165(3)
C46A_4 C 0.8444(4) -0.2079(4) -0.0165(3)
C46_4 C -0.8444(4) 0.7921(4) 1.0165(3)
H46_2 H 0.1548 -0.2124 -0.0261
H46A H 0.8452 0.7876 0.0261
H46A_2 H -0.1548 0.7876 1.0261
H46A_3 H -0.1548 -0.2124 1.0261
H46_3 H 0.1548 1.7876 -0.0261
H46A_4 H 0.8452 -0.2124 0.0261
H46_4 H -0.8452 0.7876 0.9739
C47_2 C 0.1010(3) -0.1884(4) 0.0376(3)
C47A C 0.8990(3) 0.8116(4) -0.0376(3)
C47A_2 C -0.1010(3) 0.8116(4) 0.9624(3)
C47A_3 C -0.1010(3) -0.1884(4) 0.9624(3)
C47_3 C 0.1010(3) 1.8116(4) 0.0376(3)
C47A_4 C 0.8990(3) -0.1884(4) -0.0376(3)
C47_4 C -0.8990(3) 0.8116(4) 1.0376(3)
H47_2 H 0.0630 -0.1780 0.0093
H47A H 0.9370 0.8220 -0.0093
H47A_2 H -0.0630 0.8220 0.9907
H47A_3 H -0.0630 -0.1780 0.9907
H47_3 H 0.0630 1.8220 0.0093
H47A_4 H 0.9370 -0.1780 -0.0093
H47_4 H -0.9370 0.8220 1.0093
C48_2 C 0.1026(3) -0.1844(4) 0.1011(3)
C48A C 0.8974(3) 0.8156(4) -0.1011(3)
C48A_2 C -0.1026(3) 0.8156(4) 0.8989(3)
C48A_3 C -0.1026(3) -0.1844(4) 0.8989(3)
C48_3 C 0.1026(3) 1.8156(4) 0.1011(3)
C48A_4 C 0.8974(3) -0.1844(4) -0.1011(3)
C48_4 C -0.8974(3) 0.8156(4) 1.1011(3)
C49_2 C 0.0461(3) -0.1681(3) 0.1269(3)
C49A C 0.9539(3) 0.8319(3) -0.1269(3)
C49A_2 C -0.0461(3) 0.8319(3) 0.8731(3)
C49A_3 C -0.0461(3) -0.1681(3) 0.8731(3)
C49_3 C 0.0461(3) 1.8319(3) 0.1269(3)
C49A_4 C 0.9539(3) -0.1681(3) -0.1269(3)
C49_4 C -0.9539(3) 0.8319(3) 1.1269(3)
C50_2 C -0.0102(3) -0.1639(4) 0.1959(4)
C50A C 1.0102(3) 0.8361(4) -0.1959(4)
C50A_2 C 0.0102(3) 0.8361(4) 0.8041(4)
C50A_3 C 0.0102(3) -0.1639(4) 0.8041(4)
C50_3 C -0.0102(3) 1.8361(4) 0.1959(4)
C50A_4 C 1.0102(3) -0.1639(4) -0.1959(4)
C51_2 C -0.0237(3) -0.1759(5) 0.2595(4)
C51A C 1.0237(3) 0.8241(5) -0.2595(4)
C51A_2 C 0.0237(3) 0.8241(5) 0.7405(4)
C51A_3 C 0.0237(3) -0.1759(5) 0.7405(4)
C51_3 C -0.0237(3) 1.8241(5) 0.2595(4)
C52_2 C 0.0259(4) -0.1786(6) 0.3104(4)
C52A C 0.9741(4) 0.8214(6) -0.3104(4)
C52A_2 C -0.0259(4) 0.8214(6) 0.6896(4)
C52A_3 C -0.0259(4) -0.1786(6) 0.6896(4)
H48_2 H 0.0682 -0.1737 0.3053
H48A H 0.9318 0.8263 -0.3053
H48A_2 H -0.0682 0.8263 0.6947
N12_2 N 0.0131(4) -0.1882(6) 0.3682(4)
N12A N 0.9869(4) 0.8118(6) -0.3682(4)
N12A_2 N -0.0131(4) 0.8118(6) 0.6318(4)
C53_2 C -0.0479(5) -0.1971(6) 0.3743(5)
C53A C 1.0479(5) 0.8029(6) -0.3743(5)
C53A_2 C 0.0479(5) 0.8029(6) 0.6257(5)
H49_2 H -0.0563 -0.2056 0.4139
H49A H 1.0563 0.7944 -0.4139
H49A_2 H 0.0563 0.7944 0.5861
C54_2 C -0.0863(3) -0.1816(5) 0.2672(4)
C54A C 1.0863(3) 0.8184(5) -0.2672(4)
C54A_2 C 0.0863(3) 0.8184(5) 0.7328(4)
C54A_3 C 0.0863(3) -0.1816(5) 0.7328(4)
H50_2 H -0.1205 -0.1771 0.2333
H50A H 1.1205 0.8229 -0.2333
H50A_2 H 0.1205 0.8229 0.7667
C55A C -0.1980(2) 0.6270(3) 0.6954(2)
C55_2 C 0.1980(2) -0.3730(3) 0.3046(2)
C55A_2 C 0.8020(2) 0.6270(3) -0.3046(2)
C55_3 C 0.1980(2) 1.6270(3) 0.3046(2)
C55A_3 C -0.1980(2) -0.3730(3) 0.6954(2)
C55A_4 C 0.8020(2) -0.3730(3) -0.3046(2)
C55A_5 C 0.8020(2) 1.6270(3) -0.3046(2)
C55A_6 C -0.1980(2) 1.6270(3) 0.6954(2)
C55_4 C -0.8020(2) 0.6270(3) 1.3046(2)
C56A C -0.2018(2) 0.5480(3) 0.7041(2)
C56_2 C 0.2018(2) -0.4520(3) 0.2959(2)
C56A_2 C 0.7982(2) 0.5480(3) -0.2959(2)
C56_3 C 0.2018(2) 1.5480(3) 0.2959(2)
C56A_3 C -0.2018(2) -0.4520(3) 0.7041(2)
C56A_4 C 0.7982(2) 1.5480(3) -0.2959(2)
C56A_5 C -0.2018(2) 1.5480(3) 0.7041(2)
C56A_6 C 0.7982(2) -0.4520(3) -0.2959(2)
C56_4 C -0.7982(2) 0.5480(3) 1.2959(2)
H51A H -0.2273 0.5282 0.7304
H51_2 H 0.2273 -0.4718 0.2696
H51A_2 H 0.7727 0.5282 -0.2696
H51_3 H 0.2273 1.5282 0.2696
H51A_3 H -0.2273 -0.4718 0.7304
H51A_4 H 0.7727 1.5282 -0.2696
H51A_5 H -0.2273 1.5282 0.7304
H51A_6 H 0.7727 -0.4718 -0.2696
H51_4 H -0.7727 0.5282 1.2696
C57A C -0.1671(2) 0.4988(3) 0.6731(2)
C57_2 C 0.1671(2) 1.4988(3) 0.3269(2)
C57_3 C 0.1671(2) -0.5012(3) 0.3269(2)
C57A_2 C 0.8329(2) 0.4988(3) -0.3269(2)
C57A_3 C 0.8329(2) 1.4988(3) -0.3269(2)
C57A_4 C -0.1671(2) 1.4988(3) 0.6731(2)
C57A_5 C -0.1671(2) -0.5012(3) 0.6731(2)
C57A_6 C 0.8329(2) -0.5012(3) -0.3269(2)
C57_4 C -0.8329(2) 0.4988(3) 1.3269(2)
C58A C -0.1283(3) 0.5278(3) 0.6343(2)
C58_2 C 0.1283(3) 1.5278(3) 0.3657(2)
C58_3 C 0.1283(3) -0.4722(3) 0.3657(2)
C58A_2 C 0.8717(3) 0.5278(3) -0.3657(2)
C58A_3 C 0.8717(3) 1.5278(3) -0.3657(2)
C58A_4 C -0.1283(3) 1.5278(3) 0.6343(2)
C58A_5 C -0.1283(3) -0.4722(3) 0.6343(2)
C58A_6 C 0.8717(3) -0.4722(3) -0.3657(2)
H52A H -0.1048 0.4948 0.6139
H52_2 H 0.1048 1.4948 0.3861
H52_3 H 0.1048 -0.5052 0.3861
H52A_2 H 0.8952 0.4948 -0.3861
H52A_3 H 0.8952 1.4948 -0.3861
H52A_4 H -0.1048 1.4948 0.6139
H52A_5 H -0.1048 -0.5052 0.6139
C59A C -0.1254(3) 0.6068(4) 0.6268(3)
C59_2 C 0.1254(3) -0.3932(4) 0.3732(3)
C59A_2 C 0.8746(3) 0.6068(4) -0.3732(3)
C59_3 C 0.1254(3) 1.6068(4) 0.3732(3)
C59A_3 C -0.1254(3) -0.3932(4) 0.6268(3)
C59A_4 C 0.8746(3) 1.6068(4) -0.3732(3)
C59A_5 C -0.1254(3) 1.6068(4) 0.6268(3)
C59A_6 C 0.8746(3) -0.3932(4) -0.3732(3)
C59_4 C -0.8746(3) 0.6068(4) 1.3732(3)
C60A C -0.1599(3) 0.6569(4) 0.6570(3)
C60_2 C 0.1599(3) -0.3431(4) 0.3430(3)
C60A_2 C 0.8401(3) 0.6569(4) -0.3430(3)
C60_3 C 0.1599(3) 1.6569(4) 0.3430(3)
C60A_3 C -0.1599(3) -0.3431(4) 0.6570(3)
C60A_4 C 0.8401(3) -0.3431(4) -0.3430(3)
C60A_5 C 0.8401(3) 1.6569(4) -0.3430(3)
C60A_6 C -0.1599(3) 1.6569(4) 0.6570(3)
C60_4 C -0.8401(3) 0.6569(4) 1.3430(3)
H53A H -0.1574 0.7099 0.6515
H53_2 H 0.1574 -0.2901 0.3485
H53A_2 H 0.8426 0.7099 -0.3485
H53_3 H 0.1574 1.7099 0.3485
H53A_3 H -0.1574 -0.2901 0.6515
H53A_4 H 0.8426 -0.2901 -0.3485
H53A_5 H 0.8426 1.7099 -0.3485
H53A_6 H -0.1574 1.7099 0.6515
H53_4 H -0.8426 0.7099 1.3485
C61A C -0.2356(3) 0.6796(3) 0.7296(3)
C61_2 C 0.2356(3) -0.3204(3) 0.2704(3)
C61A_2 C 0.7644(3) 0.6796(3) -0.2704(3)
C61_3 C 0.2356(3) 1.6796(3) 0.2704(3)
C61A_3 C -0.2356(3) -0.3204(3) 0.7296(3)
C61A_4 C 0.7644(3) -0.3204(3) -0.2704(3)
C61_4 C -0.7644(3) 0.6796(3) 1.2704(3)
C61A_5 C 0.7644(3) 1.6796(3) -0.2704(3)
C61A_6 C -0.2356(3) 1.6796(3) 0.7296(3)
C62A C -0.1697(2) 0.4131(3) 0.6821(2)
C62_2 C 0.1697(2) 1.4131(3) 0.3179(2)
C62_3 C 0.1697(2) -0.5869(3) 0.3179(2)
C62A_2 C 0.8303(2) 0.4131(3) -0.3179(2)
C62A_3 C 0.8303(2) 1.4131(3) -0.3179(2)
C62A_4 C -0.1697(2) 1.4131(3) 0.6821(2)
C62A_5 C -0.1697(2) -0.5869(3) 0.6821(2)
C62A_6 C 0.8303(2) -0.5869(3) -0.3179(2)
C63A C -0.0604(4) 0.5977(6) 0.5505(4)
C63_2 C 0.0604(4) -0.4023(6) 0.4495(4)
C63A_2 C 0.9396(4) 0.5977(6) -0.4495(4)
C63_3 C 0.0604(4) 1.5977(6) 0.4495(4)
C63A_3 C -0.0604(4) -0.4023(6) 0.5505(4)
C63A_4 C 0.9396(4) 1.5977(6) -0.4495(4)
C63A_5 C -0.0604(4) 1.5977(6) 0.5505(4)
H54A H -0.0308 0.5618 0.5745
H54_2 H 0.0308 -0.4382 0.4255
H54A_2 H 0.9692 0.5618 -0.4255
H54_3 H 0.0308 1.5618 0.4255
H54A_3 H -0.0308 -0.4382 0.5745
H55A H -0.0374 0.6314 0.5278
H55_2 H 0.0374 -0.3686 0.4722
H55A_2 H 0.9626 0.6314 -0.4722
H55_3 H 0.0374 1.6314 0.4722
H55A_3 H -0.0374 -0.3686 0.5278
H56A H -0.0926 0.5700 0.5217
H56_2 H 0.0926 -0.4300 0.4783
H56A_2 H 0.9074 0.5700 -0.4783
H56_3 H 0.0926 1.5700 0.4783
H56A_3 H -0.0926 -0.4300 0.5217
C64_2 C 0.3376(2) 1.0043(3) 0.1697(2)
C64A C 0.6624(2) 1.0043(3) -0.1697(2)
C64A_2 C -0.3376(2) 1.0043(3) 0.8303(2)
C64A_3 C -0.3376(2) 0.0043(3) 0.8303(2)
C64_3 C 0.3376(2) 2.0043(3) 0.1697(2)
C64_4 C 0.3376(2) -0.9957(3) 0.1697(2)
C64A_4 C 0.6624(2) 0.0043(3) -0.1697(2)
C64_5 C -0.6624(2) 1.0043(3) 1.1697(2)
C65_2 C 0.3028(2) 1.0514(3) 0.2006(2)
C65A C -0.3028(2) 0.0514(3) 0.7994(2)
C65A_2 C 0.6972(2) 1.0514(3) -0.2006(2)
C65A_3 C -0.3028(2) 1.0514(3) 0.7994(2)
C65_3 C 0.3028(2) -0.9486(3) 0.2006(2)
C65A_4 C 0.6972(2) 0.0514(3) -0.2006(2)
C65_4 C 0.3028(2) 2.0514(3) 0.2006(2)
C65_5 C -0.6972(2) 1.0514(3) 1.2006(2)
H57_2 H 0.2770 1.0298 0.2258
H57A H -0.2770 0.0298 0.7742
H57A_2 H 0.7230 1.0298 -0.2258
H57A_3 H -0.2770 1.0298 0.7742
H57_3 H 0.2770 -0.9702 0.2258
H57A_4 H 0.7230 0.0298 -0.2258
H57_4 H 0.2770 2.0298 0.2258
H57_5 H -0.7230 1.0298 1.2258
C66_2 C 0.3055(2) 1.1307(3) 0.1947(2)
C66A C -0.3055(2) 0.1307(3) 0.8053(2)
C66A_2 C 0.6945(2) 1.1307(3) -0.1947(2)
C66A_3 C -0.3055(2) 1.1307(3) 0.8053(2)
C66_3 C 0.3055(2) -0.8693(3) 0.1947(2)
C66A_4 C 0.6945(2) 0.1307(3) -0.1947(2)
C66_4 C 0.3055(2) 2.1307(3) 0.1947(2)
C66_5 C -0.6945(2) 1.1307(3) 1.1947(2)
C67_2 C 0.3445(3) 1.1620(4) 0.1580(3)
C67A C -0.3445(3) 0.1620(4) 0.8420(3)
C67A_2 C 0.6555(3) 1.1620(4) -0.1580(3)
C67A_3 C -0.3445(3) 1.1620(4) 0.8420(3)
C67_3 C 0.3445(3) -0.8380(4) 0.1580(3)
C67A_4 C 0.6555(3) 0.1620(4) -0.1580(3)
C67_4 C 0.3445(3) 2.1620(4) 0.1580(3)
H58_2 H 0.3466 1.2154 0.1539
H58A H -0.3466 0.2154 0.8461
H58A_2 H 0.6534 1.2154 -0.1539
H58A_3 H -0.3466 1.2154 0.8461
H58_3 H 0.3466 -0.7846 0.1539
H58A_4 H 0.6534 0.2154 -0.1539
H58_4 H 0.3466 2.2154 0.1539
C68_2 C 0.3802(3) 1.1155(3) 0.1276(3)
C68A C -0.3802(3) 0.1155(3) 0.8724(3)
C68A_2 C 0.6198(3) 1.1155(3) -0.1276(3)
C68A_3 C -0.3802(3) 1.1155(3) 0.8724(3)
C68_3 C 0.3802(3) -0.8845(3) 0.1276(3)
C68A_4 C 0.6198(3) 0.1155(3) -0.1276(3)
C68_4 C 0.3802(3) 2.1155(3) 0.1276(3)
C68_5 C -0.6198(3) 1.1155(3) 1.1276(3)
C69_2 C 0.3773(2) 1.0358(3) 0.1330(2)
C69A C 0.6227(2) 1.0358(3) -0.1330(2)
C69A_2 C -0.3773(2) 1.0358(3) 0.8670(2)
C69A_3 C -0.3773(2) 0.0358(3) 0.8670(2)
C69_3 C 0.3773(2) 2.0358(3) 0.1330(2)
C69_4 C 0.3773(2) -0.9642(3) 0.1330(2)
C69A_4 C 0.6227(2) 0.0358(3) -0.1330(2)
C69_5 C -0.6227(2) 1.0358(3) 1.1330(2)
H59_2 H 0.4016 1.0041 0.1124
H59A H 0.5984 1.0041 -0.1124
H59A_2 H -0.4016 1.0041 0.8876
H59A_3 H -0.4016 0.0041 0.8876
H59_3 H 0.4016 2.0041 0.1124
H59_4 H 0.4016 -0.9959 0.1124
H59A_4 H 0.5984 0.0041 -0.1124
H59_5 H -0.5984 1.0041 1.1124
C70_2 C 0.3335(2) 0.9176(3) 0.1754(2)
C70A C 0.6665(2) 0.9176(3) -0.1754(2)
C70A_2 C -0.3335(2) 0.9176(3) 0.8246(2)
C70A_3 C -0.3335(2) -0.0824(3) 0.8246(2)
C70_3 C 0.3335(2) 1.9176(3) 0.1754(2)
C70A_4 C 0.6665(2) -0.0824(3) -0.1754(2)
C70_4 C -0.6665(2) 0.9176(3) 1.1754(2)
C70_5 C 0.3335(2) -1.0824(3) 0.1754(2)
C71_2 C 0.2648(3) 1.1814(4) 0.2266(3)
C71A C -0.2648(3) 0.1814(4) 0.7734(3)
C71A_2 C 0.7352(3) 1.1814(4) -0.2266(3)
C71A_3 C -0.2648(3) 1.1814(4) 0.7734(3)
C71_3 C 0.2648(3) -0.8186(4) 0.2266(3)
C71A_4 C 0.7352(3) 0.1814(4) -0.2266(3)
C71_4 C 0.2648(3) 2.1814(4) 0.2266(3)
C72_2 C 0.4388(3) 1.1107(5) 0.0462(3)
C72A C -0.4388(3) 0.1107(5) 0.9538(3)
C72A_2 C 0.5612(3) 1.1107(5) -0.0462(3)
C72A_3 C -0.4388(3) 1.1107(5) 0.9538(3)
C72_3 C 0.4388(3) -0.8893(5) 0.0462(3)
C72A_4 C 0.5612(3) 0.1107(5) -0.0462(3)
C72_4 C 0.4388(3) 2.1107(5) 0.0462(3)
H60_2 H 0.4687 1.0718 0.0651
H60A H -0.4687 0.0718 0.9349
H60A_2 H 0.5313 1.0718 -0.0651
H60A_3 H -0.4687 1.0718 0.9349
H60_3 H 0.4687 -0.9282 0.0651
H61_2 H 0.4596 1.1449 0.0220
H61A H -0.4596 0.1449 0.9780
H61A_2 H 0.5404 1.1449 -0.0220
H61A_3 H -0.4596 1.1449 0.9780
H61_3 H 0.4596 -0.8551 0.0220
H62_2 H 0.4026 1.0865 0.0196
H62A H -0.4026 0.0865 0.9804
H62A_2 H 0.5974 1.0865 -0.0196
H62A_3 H -0.4026 1.0865 0.9804
H62_3 H 0.4026 -0.9135 0.0196
O32 O 0.3030(4) 0.1879(4) 0.4824(3)
O33 O 0.1973(3) 0.9412(3) 0.2627(2)
O34 O 0.3976(4) 0.3060(6) 0.5129(4)
Cd1 Cd -0.20259(2) 0.37308(3) 0.452719(18)
Cd2 Cd 0.18854(2) 0.41073(3) 0.05830(2)
O1 O -0.1421(2) 0.2684(3) 0.39693(19)
O2 O -0.2036(2) 0.2449(2) 0.46378(19)
O3 O -0.2542(3) -0.0192(3) 0.5155(2)
O4 O -0.2234(2) -0.1180(3) 0.4680(2)
O5 O -0.0814(3) -0.0023(3) 0.3343(2)
O6 O 0.1327(2) 0.2904(2) 0.10568(19)
O7 O 0.2059(2) 0.2858(2) 0.0483(2)
O8 O 0.2794(2) 0.0380(3) -0.0225(2)
O9 O 0.2432(2) -0.0688(3) 0.0078(2)
O10 O 0.1035(2) 0.0042(2) 0.1544(2)
O11 O -0.00947(16) 0.5102(2) 0.25847(15)
O25 O -0.11149(19) 0.3824(2) 0.53419(17)
H1 H -0.0805 0.3513 0.5344
H2 H -0.1306 0.3810 0.5648
O26 O -0.2863(2) 0.3545(3) 0.36706(19)
H3 H -0.2731 0.3813 0.3396
H4 H -0.3269 0.3493 0.3625
O27 O 0.1015(2) 0.3997(3) -0.02823(19)
H5 H 0.0971 0.3962 -0.0676
H6 H 0.0781 0.3641 -0.0179
O31 O 0.2563(2) 0.3981(3) 0.1628(2)
H13 H 0.2788 0.4157 0.1966
H14 H 0.2759 0.3786 0.1362
N1 N -0.1512(2) 0.4616(3) 0.3980(2)
N2 N -0.0270(2) 0.3881(3) 0.2779(2)
N3 N 0.0139(2) 0.3918(2) 0.2346(2)
N4 N 0.1296(2) 0.4883(3) 0.1129(2)
C2 C -0.1098(3) 0.4386(3) 0.3631(2)
H16 H -0.1009 0.3862 0.3611
C3 C -0.1638(3) 0.5372(4) 0.3994(3)
H17 H -0.1938 0.5539 0.4220
C4 C -0.1343(3) 0.5909(4) 0.3689(3)
H18 H -0.1430 0.6432 0.3722
C5 C -0.0923(3) 0.5670(3) 0.3340(3)
H19 H -0.0720 0.6027 0.3127
C6 C -0.0800(3) 0.4894(3) 0.3303(2)
C7 C -0.0391(2) 0.4584(3) 0.2899(2)
C8 C 0.0222(2) 0.4638(3) 0.2248(2)
C9 C 0.0594(3) 0.5008(3) 0.1843(2)
C10 C 0.0665(3) 0.5793(3) 0.1848(3)
H20 H 0.0455 0.6102 0.2091
C11 C 0.1059(3) 0.6119(3) 0.1483(3)
H21 H 0.1108 0.6652 0.1467
C12 C 0.1376(3) 0.5637(3) 0.1143(2)
H22 H 0.1657 0.5853 0.0916
C13 C 0.0911(3) 0.4559(3) 0.1477(2)
H23 H 0.0858 0.4026 0.1472
C14 C 0.1692(2) 0.1669(3) 0.0797(2)
C15 C 0.2065(3) 0.1259(3) 0.0457(2)
H24 H 0.2306 0.1522 0.0214
C16 C 0.2082(2) 0.0470(3) 0.0477(2)
C17 C 0.1720(3) 0.0070(3) 0.0838(2)
H25 H 0.1728 -0.0466 0.0850
C18 C 0.1349(3) 0.0479(3) 0.1177(3)
C19 C 0.1330(2) 0.1272(3) 0.1149(2)
H26 H 0.1070 0.1542 0.1370
C20 C 0.1683(3) 0.2521(3) 0.0775(2)
C21 C 0.2464(3) 0.0032(4) 0.0089(3)
C22 C 0.0675(3) 0.0442(4) 0.1915(3)
H27 H 0.0931 0.0851 0.2134
H28 H 0.0553 0.0092 0.2212
H29 H 0.0296 0.0654 0.1655
C23 C -0.1621(2) 0.1373(3) 0.4192(2)
C24 C -0.1951(2) 0.0860(3) 0.4494(2)
H30 H -0.2218 0.1047 0.4748
C25 C -0.1891(3) 0.0077(3) 0.4425(3)
C26 C -0.1523(3) -0.0207(4) 0.4032(3)
H31 H -0.1501 -0.0736 0.3965
C27 C -0.1176(3) 0.0314(4) 0.3726(3)
C28 C -0.1242(2) 0.1080(3) 0.3798(2)
H32 H -0.1029 0.1419 0.3580
C29 C -0.1693(3) 0.2210(3) 0.4266(2)
C30 C -0.2238(3) -0.0474(3) 0.4772(3)
C31 C -0.0637(4) 0.0441(5) 0.2895(4)
H33 H -0.1001 0.0738 0.2692
H34 H -0.0488 0.0125 0.2593
H35 H -0.0299 0.0782 0.3089
Cd1C Cd -0.29741(2) 0.87308(3) 0.547281(18)
Cd1C_2 Cd -0.29741(2) -0.12692(3) 0.547281(18)
Cd2C Cd 0.31146(2) 0.91073(3) -0.05830(2)
Cd2C_2 Cd 0.31146(2) -0.08927(3) -0.05830(2)
Cd2C_3 Cd -0.68854(2) 0.91073(3) 0.94170(2)
O1C O -0.3579(2) 0.7684(3) 0.60307(19)
O2C O -0.2964(2) 0.7449(2) 0.53622(19)
O3C O -0.2458(3) 0.4808(3) 0.4845(2)
O3_2 O -0.2542(3) 0.9808(3) 0.5155(2)
O4C O -0.2766(2) 0.3820(3) 0.5320(2)
O4_2 O -0.2234(2) 0.8820(3) 0.4680(2)
O5C O -0.4186(3) 0.4977(3) 0.6657(2)
O6C O 0.3673(2) 0.7904(2) -0.10568(19)
O6C_2 O 0.3673(2) -0.2096(2) -0.10568(19)
O7C O 0.2941(2) 0.7858(2) -0.0483(2)
O7C_2 O 0.2941(2) -0.2142(2) -0.0483(2)
O8C O 0.2206(2) 0.5380(3) 0.0225(2)
O9C O 0.2568(2) 0.4312(3) -0.0078(2)
O10C O 0.3965(2) 0.5042(2) -0.1544(2)
O11C O -0.49053(16) 1.0102(2) 0.74153(15)
O25C O -0.38851(19) 0.8824(2) 0.46581(17)
H1C H -0.4195 0.8513 0.4656
H2C H -0.3694 0.8810 0.4352
O26C O -0.2137(2) 0.8545(3) 0.63294(19)
H3C H -0.2269 0.8813 0.6604
H4C H -0.1731 0.8493 0.6375
O27C O 0.3985(2) -0.1003(3) 0.02823(19)
H5C H 0.4029 -0.1038 0.0676
H6C H 0.4219 -0.1359 0.0179
O31C O 0.2437(2) -0.1019(3) -0.1628(2)
H13C H 0.2212 -0.0843 -0.1966
H14C H 0.2241 -0.1214 -0.1362
N1C N -0.3488(2) 0.9616(3) 0.6020(2)
N2C N -0.4730(2) 0.8881(3) 0.7221(2)
N3C N -0.5139(2) 0.8918(2) 0.7654(2)
N4C N -0.6296(2) 0.9883(3) 0.8871(2)
N4C_2 N 0.3704(2) -0.0117(3) -0.1129(2)
C2C C -0.3902(3) 0.9386(3) 0.6369(2)
H16C H -0.3991 0.8862 0.6389
C3C C -0.3362(3) 1.0372(4) 0.6006(3)
H17C H -0.3062 1.0539 0.5780
C4C C -0.3657(3) 1.0909(4) 0.6311(3)
H18C H -0.3570 1.1432 0.6278
C5C C -0.4077(3) 1.0670(3) 0.6660(3)
H19C H -0.4280 1.1027 0.6873
C6C C -0.4200(3) 0.9894(3) 0.6697(2)
C7C C -0.4609(2) 0.9584(3) 0.7101(2)
C8C C -0.5222(2) 0.9638(3) 0.7752(2)
C9C C -0.5594(3) 1.0008(3) 0.8157(2)
C10C C -0.5665(3) 1.0793(3) 0.8152(3)
H20C H -0.5455 1.1102 0.7909
C11C C -0.6059(3) 1.1119(3) 0.8517(3)
H21C H -0.6108 1.1652 0.8533
C12C C -0.6376(3) 1.0637(3) 0.8857(2)
H22C H -0.6657 1.0853 0.9084
C13C C -0.5911(3) 0.9559(3) 0.8523(2)
H23C H -0.5858 0.9026 0.8528
C14C C 0.3308(2) 0.6669(3) -0.0797(2)
C15C C 0.2935(3) 0.6259(3) -0.0457(2)
H24C H 0.2694 0.6522 -0.0214
C16C C 0.2918(2) 0.5470(3) -0.0477(2)
C17C C 0.3280(3) 0.5070(3) -0.0838(2)
H25C H 0.3272 0.4534 -0.0850
C18C C 0.3651(3) 0.5479(3) -0.1177(3)
C19C C 0.3670(2) 0.6272(3) -0.1149(2)
H26C H 0.3930 0.6542 -0.1370
C20C C 0.3317(3) 0.7521(3) -0.0775(2)
C21C C 0.2536(3) 0.5032(4) -0.0089(3)
C22C C 0.4325(3) 0.5442(4) -0.1915(3)
H27C H 0.4069 0.5851 -0.2134
H28C H 0.4447 0.5092 -0.2212
H29C H 0.4704 0.5654 -0.1655
C23C C -0.3379(2) 0.6373(3) 0.5808(2)
C24C C -0.3049(2) 0.5860(3) 0.5506(2)
H30C H -0.2782 0.6047 0.5252
C25C C -0.3109(3) 0.5077(3) 0.5575(3)
C26C C -0.3477(3) 0.4793(4) 0.5968(3)
H31C H -0.3499 0.4264 0.6035
C27C C -0.3824(3) 0.5314(4) 0.6274(3)
C28C C -0.3758(2) 0.6080(3) 0.6202(2)
H32C H -0.3971 0.6419 0.6420
C29C C -0.3307(3) 0.7210(3) 0.5734(2)
C30C C -0.2762(3) 0.4526(3) 0.5228(3)
C31C C -0.4363(4) 0.5441(5) 0.7105(4)
H33C H -0.3999 0.5738 0.7308
H34C H -0.4512 0.5125 0.7407
H35C H -0.4701 0.5782 0.6911
loop_
_geom_bond_atom_site_label_1
_geom_bond_atom_site_label_2
_geom_bond_site_symmetry_1
_geom_bond_site_symmetry_2
Cd1 O1 1_555 1_555
Cd2 O6 1_555 1_555
Cd3 O12 1_555 1_555
Cd4 O14 1_555 1_555
O1 C29 1_555 1_555
O2 Cd1 1_555 1_555
O3 C30 1_555 1_555
O4 C30 1_555 1_555
O5 C27 1_555 1_555
O6 C20 1_555 1_555
O7 Cd2 1_555 1_555
O8 C21 1_555 1_555
O9 C21 1_555 1_555
O10 C18 1_555 1_555
O11 C7 1_555 1_555
O12 C62 1_555 1_555
O13 Cd3 1_555 1_555
O14 C61 1_555 1_555
O15 Cd4 1_555 1_555
O16 C59 1_555 1_555
O17 C70 1_555 1_555
O18 C70 1_555 1_555
O19 Cd3 1_555 1_555
O20 Cd3 1_555 1_555
O21 C68 1_555 1_555
O22 C49 1_555 1_555
O23 C43 1_555 1_555
O24 C37 1_555 1_555
O25 Cd1 1_555 1_555
H1 O25 1_555 1_555
H2 O25 1_555 1_555
O26 Cd1 1_555 1_555
H3 O26 1_555 1_555
H4 O26 1_555 1_555
O27 Cd2 1_555 1_555
H5 O27 1_555 1_555
H6 O27 1_555 1_555
O28 Cd3 1_555 1_555
H7 O28 1_555 1_555
H8 O28 1_555 1_555
O29 Cd3 1_555 1_555
H9 O29 1_555 1_555
H10 O29 1_555 1_555
O30 Cd4 1_555 1_555
H11 O30 1_555 1_555
H12 O30 1_555 1_555
O31 Cd2 1_555 1_555
H13 O31 1_555 1_555
H14 O31 1_555 1_555
N1 Cd1 1_555 1_555
N2 N3 1_555 1_555
N3 C8 1_555 1_555
N4 Cd2 1_555 1_555
N5 Cd4 1_555 1_555
N6 C43 1_555 1_555
N7 Cd3 1_555 1_555
N8 C37 1_555 1_555
N9 Cd4 1_555 1_555
N10 N11 1_555 1_555
N11 C50 1_555 1_555
C1 H15 1_555 1_555
C2 N1 1_555 1_555
H16 C2 1_555 1_555
C3 N1 1_555 1_555
H17 C3 1_555 1_555
C4 C3 1_555 1_555
H18 C4 1_555 1_555
C5 C4 1_555 1_555
H19 C5 1_555 1_555
C6 C2 1_555 1_555
C7 N2 1_555 1_555
C8 O11 1_555 1_555
C9 C8 1_555 1_555
C10 C9 1_555 1_555
H20 C10 1_555 1_555
C11 C10 1_555 1_555
H21 C11 1_555 1_555
C12 N4 1_555 1_555
H22 C12 1_555 1_555
C13 N4 1_555 1_555
H23 C13 1_555 1_555
C14 C15 1_555 1_555
C15 H24 1_555 1_555
C16 C15 1_555 1_555
C17 C16 1_555 1_555
H25 C17 1_555 1_555
C18 C17 1_555 1_555
C19 C14 1_555 1_555
H26 C19 1_555 1_555
C20 O7 1_555 1_555
C21 C16 1_555 1_555
C22 O10 1_555 1_555
H27 C22 1_555 1_555
H28 C22 1_555 1_555
H29 C22 1_555 1_555
C23 C24 1_555 1_555
C24 H30 1_555 1_555
C25 C24 1_555 1_555
C26 C25 1_555 1_555
H31 C26 1_555 1_555
C27 C26 1_555 1_555
C28 C23 1_555 1_555
H32 C28 1_555 1_555
C29 O2 1_555 1_555
C30 C25 1_555 1_555
C31 O5 1_555 1_555
H33 C31 1_555 1_555
H34 C31 1_555 1_555
H35 C31 1_555 1_555
C32 N7 1_555 1_555
H36 C32 1_555 1_555
C33 N7 1_555 1_555
H37 C33 1_555 1_555
C34 C33 1_555 1_555
H38 C34 1_555 1_555
C35 C34 1_555 1_555
H39 C35 1_555 1_555
C36 C32 1_555 1_555
C37 C36 1_555 1_555
C38 N5 1_555 1_555
H40 C38 1_555 1_555
C39 N5 1_555 1_555
H41 C39 1_555 1_555
C40 C39 1_555 1_555
H42 C40 1_555 1_555
C41 C40 1_555 1_555
H43 C41 1_555 1_555
C42 C38 1_555 1_555
C43 C42 1_555 1_555
C44 N9 1_555 1_555
H44 C44 1_555 1_555
C45 N9 1_555 1_555
H45 C45 1_555 1_555
C46 C45 1_555 1_555
H46 C46 1_555 1_555
C47 C46 1_555 1_555
H47 C47 1_555 1_555
C48 C44 1_555 1_555
C49 N10 1_555 1_555
C50 O22 1_555 1_555
C51 C50 1_555 1_555
C52 C51 1_555 1_555
H48 C52 1_555 1_555
N12 C52 1_555 1_555
C53 C1 1_555 1_555
H49 C53 1_555 1_555
C54 C1 1_555 1_555
H50 C54 1_555 1_555
C55 C56 1_555 1_555
C56 H51 1_555 1_555
C57 C56 1_555 1_555
C58 C57 1_555 1_555
H52 C58 1_555 1_555
C59 C58 1_555 1_555
C60 C55 1_555 1_555
H53 C60 1_555 1_555
C61 O15 1_555 1_555
C62 O13 1_555 1_555
C63 O16 1_555 1_555
H54 C63 1_555 1_555
H55 C63 1_555 1_555
H56 C63 1_555 1_555
C64 C65 1_555 1_555
C65 H57 1_555 1_555
C66 C65 1_555 1_555
C67 C66 1_555 1_555
H58 C67 1_555 1_555
C68 C67 1_555 1_555
C69 C64 1_555 1_555
H59 C69 1_555 1_555
C70 C64 1_555 1_555
C71 O19 1_555 1_555
C72 O21 1_555 1_555
H60 C72 1_555 1_555
H61 C72 1_555 1_555
H62 C72 1_555 1_555
Cd1C O1C 1_555 1_555
Cd1C_2 O3 1_555 1_555
Cd2C O6C 1_555 1_555
Cd2C_2 O8 1_555 1_555
Cd2C_3 N4C 1_555 1_555
Cd3A O12A 1_555 1_555
Cd3_2 O12_2 1_555 1_555
Cd3_3 O12_3 1_555 1_555
Cd3A_2 O12A_2 1_555 1_555
Cd3A_3 O12A_3 1_555 1_555
Cd3A_4 O12A_4 1_555 1_555
Cd3A_5 O12A_5 1_555 1_555
Cd4_2 O17 1_555 1_555
Cd4A O14A_2 1_555 1_555
Cd4A_2 O14A 1_555 1_555
Cd4A_3 O14A_3 1_555 1_555
Cd4_3 O14_3 1_555 1_555
Cd4A_4 O14A_4 1_555 1_555
Cd4_4 O14_4 1_555 1_555
Cd4_5 O17_5 1_555 1_555
O1C C29C 1_555 1_555
O2C Cd1C 1_555 1_555
O3C Cd1 1_555 1_555
O3_2 Cd1C 1_555 1_555
O4C Cd1 1_555 1_555
O4_2 Cd1C 1_555 1_555
O5C C27C 1_555 1_555
O6C C20C 1_555 1_555
O6C_2 Cd2C_2 1_555 1_555
O7C Cd2C 1_555 1_555
O7C_2 Cd2C_2 1_555 1_555
O8C Cd2 1_555 1_555
O9C Cd2 1_555 1_555
O10C C18C 1_555 1_555
O11C C7C 1_555 1_555
O12A C62A 1_555 1_555
O12_2 C62_2 1_555 1_555
O12_3 C62_3 1_555 1_555
O12A_2 C62A_2 1_555 1_555
O12A_3 C62A_3 1_555 1_555
O12A_4 C62A_4 1_555 1_555
O12A_5 C62A_5 1_555 1_555
O13A Cd3A 1_555 1_555
O13_2 Cd3_2 1_555 1_555
O13_3 Cd3_3 1_555 1_555
O13A_2 Cd3A_2 1_555 1_555
O13A_3 Cd3A_3 1_555 1_555
O13A_4 Cd3A_4 1_555 1_555
O13A_5 Cd3A_5 1_555 1_555
O14A C61A 1_555 1_555
O14_2 Cd4_2 1_555 1_555
O14A_2 C61A_2 1_555 1_555
O14_3 C61_3 1_555 1_555
O14A_3 C61A_3 1_555 1_555
O14A_4 C61A_4 1_555 1_555
O14_4 C61_4 1_555 1_555
O14A_5 C61A_5 1_555 1_555
O14A_6 C61A_6 1_555 1_555
O15A Cd4A_2 1_555 1_555
O15_2 Cd4_2 1_555 1_555
O15A_2 Cd4A 1_555 1_555
O15_3 Cd4_3 1_555 1_555
O15A_3 Cd4A_3 1_555 1_555
O15A_4 Cd4A_4 1_555 1_555
O15_4 Cd4_4 1_555 1_555
O15A_5 C61A_5 1_555 1_555
O15A_6 C61A_6 1_555 1_555
O16A C59A 1_555 1_555
O16_2 C59_2 1_555 1_555
O16A_2 C59A_2 1_555 1_555
O16_3 C59_3 1_555 1_555
O16A_3 C59A_3 1_555 1_555
O16A_4 C59A_4 1_555 1_555
O16A_5 C59A_5 1_555 1_555
O16A_6 C59A_6 1_555 1_555
O17_2 Cd4 1_555 1_555
O17A Cd4A 1_555 1_555
O17A_2 Cd4A_2 1_555 1_555
O17A_3 Cd4A_3 1_555 1_555
O17_3 Cd4_3 1_555 1_555
O17A_4 Cd4A_4 1_555 1_555
O17_4 Cd4_4 1_555 1_555
O17_5 C70_5 1_555 1_555
O18_2 Cd4 1_555 1_555
O18A Cd4A 1_555 1_555
O18A_2 Cd4A_2 1_555 1_555
O18A_3 Cd4A_3 1_555 1_555
O18_3 Cd4_3 1_555 1_555
O18A_4 Cd4A_4 1_555 1_555
O18_4 Cd4_4 1_555 1_555
O18_5 Cd4_5 1_555 1_555
O19_2 Cd3_2 1_555 1_555
O19A Cd3A 1_555 1_555
O19A_2 Cd3A_3 1_555 1_555
O19A_3 Cd3A_4 1_555 1_555
O19_3 Cd3_3 1_555 1_555
O19A_4 Cd3A_2 1_555 1_555
O19_4 C71_4 1_555 1_555
O20_2 Cd3_2 1_555 1_555
O20A Cd3A 1_555 1_555
O20A_2 Cd3A_3 1_555 1_555
O20A_3 Cd3A_4 1_555 1_555
O20_3 Cd3_3 1_555 1_555
O20A_4 Cd3A_2 1_555 1_555
O20_4 C71_4 1_555 1_555
O21_2 C68_2 1_555 1_555
O21A C68A 1_555 1_555
O21A_2 C68A_2 1_555 1_555
O21A_3 C68A_3 1_555 1_555
O21_3 C68_3 1_555 1_555
O21A_4 C68A_4 1_555 1_555
O21_4 C68_4 1_555 1_555
O22_2 C49_2 1_555 1_555
O22A C49A 1_555 1_555
O22A_2 C49A_2 1_555 1_555
O22A_3 C49A_3 1_555 1_555
O22_3 C49_3 1_555 1_555
O22A_4 C49A_4 1_555 1_555
O22_4 C49_4 1_555 1_555
O23_2 C43_2 1_555 1_555
O23_3 C43A_2 1_555 1_555
O23_4 C43A_4 1_555 1_555
O23_5 C43_4 1_555 1_555
O24_2 C37_2 1_555 1_555
O24_3 C37_3 1_555 1_555
O24_4 C37A_3 1_555 1_555
O24_5 C37A_4 1_555 1_555
O25C Cd1C 1_555 1_555
H1C O25C 1_555 1_555
H2C O25C 1_555 1_555
O26C Cd1C 1_555 1_555
H3C O26C 1_555 1_555
H4C O26C 1_555 1_555
O27C Cd2C_2 1_555 1_555
H5C O27C 1_555 1_555
H6C O27C 1_555 1_555
O28A Cd3A 1_555 1_555
O28_2 Cd3_2 1_555 1_555
O28_3 Cd3_3 1_555 1_555
O28A_2 Cd3A_2 1_555 1_555
O28A_3 Cd3A_3 1_555 1_555
O28A_4 Cd3A_4 1_555 1_555
H7A O28A 1_555 1_555
H7_2 O28_2 1_555 1_555
H7_3 O28_3 1_555 1_555
H7A_2 O28A_2 1_555 1_555
H7A_3 O28A_3 1_555 1_555
H7A_4 O28A_4 1_555 1_555
H8A O28A 1_555 1_555
H8_2 O28_2 1_555 1_555
H8_3 O28_3 1_555 1_555
H8A_2 O28A_2 1_555 1_555
H8A_3 O28A_3 1_555 1_555
H8A_4 O28A_4 1_555 1_555
O29A Cd3A 1_555 1_555
O29_2 Cd3_2 1_555 1_555
O29_3 Cd3_3 1_555 1_555
O29A_2 Cd3A_2 1_555 1_555
O29A_3 Cd3A_3 1_555 1_555
O29A_4 Cd3A_4 1_555 1_555
H9A O29A 1_555 1_555
H9_2 O29_2 1_555 1_555
H9_3 O29_3 1_555 1_555
H9A_2 O29A_2 1_555 1_555
H9A_3 O29A_3 1_555 1_555
H9A_4 O29A_4 1_555 1_555
H10A O29A 1_555 1_555
H10_2 O29_2 1_555 1_555
H10_3 O29_3 1_555 1_555
H10A_2 O29A_2 1_555 1_555
H10A_3 O29A_3 1_555 1_555
H10A_4 O29A_4 1_555 1_555
O30_2 Cd4_2 1_555 1_555
O30A Cd4A 1_555 1_555
O30A_2 Cd4A_2 1_555 1_555
O30A_3 Cd4A_3 1_555 1_555
O30_3 Cd4_3 1_555 1_555
O30A_4 Cd4A_4 1_555 1_555
O30_4 Cd4_4 1_555 1_555
H11_2 O30_2 1_555 1_555
H11A O30A 1_555 1_555
H11A_2 O30A_2 1_555 1_555
H11A_3 O30A_3 1_555 1_555
H11_3 O30_3 1_555 1_555
H11A_4 O30A_4 1_555 1_555
H11_4 O30_4 1_555 1_555
H12_2 O30_2 1_555 1_555
H12A O30A 1_555 1_555
H12A_2 O30A_2 1_555 1_555
H12A_3 O30A_3 1_555 1_555
H12_3 O30_3 1_555 1_555
H12A_4 O30A_4 1_555 1_555
H12_4 O30_4 1_555 1_555
O31C Cd2C_2 1_555 1_555
H13C O31C 1_555 1_555
H14C O31C 1_555 1_555
N1C Cd1C 1_555 1_555
N2C N3C 1_555 1_555
N3C C8C 1_555 1_555
N4C C12C 1_555 1_555
N4C_2 Cd2C_2 1_555 1_555
N5A Cd4A 1_555 1_555
N5_2 Cd4_2 1_555 1_555
N5A_2 Cd4A_2 1_555 1_555
N5A_3 Cd4A_3 1_555 1_555
N5A_4 Cd4A_4 1_555 1_555
N5_3 Cd4_3 1_555 1_555
N5_4 Cd4_4 1_555 1_555
N6A N6 1_555 1_555
N6_2 N6A_2 1_555 1_555
N6A_2 C43A_3 1_555 1_555
N6A_3 N6_3 1_555 1_555
N6_3 C43_3 1_555 1_555
N6A_4 N6_4 1_555 1_555
N6_4 C43_5 1_555 1_555
N6_5 N6A_5 1_555 1_555
N6A_5 C43A_5 1_555 1_555
N7A Cd3A 1_555 1_555
N7_2 Cd3_2 1_555 1_555
N7_3 Cd3_3 1_555 1_555
N7A_2 Cd3A_2 1_555 1_555
N7A_3 Cd3A_3 1_555 1_555
N7A_4 Cd3A_4 1_555 1_555
N8A N8 1_555 1_555
N8_2 N8A_2 1_555 1_555
N8A_2 C37A_2 1_555 1_555
N8_3 N8A_5 1_555 1_555
N8A_3 N8_4 1_555 1_555
N8A_4 N8_5 1_555 1_555
N8A_5 C37A_5 1_555 1_555
N8_4 C37_4 1_555 1_555
N8_5 C37_5 1_555 1_555
N9_2 Cd4_2 1_555 1_555
N9A Cd4A 1_555 1_555
N9A_2 Cd4A_2 1_555 1_555
N9A_3 Cd4A_3 1_555 1_555
N9_3 Cd4_3 1_555 1_555
N9A_4 Cd4A_4 1_555 1_555
N9_4 Cd4_4 1_555 1_555
N10_2 N11_2 1_555 1_555
N10A N11A 1_555 1_555
N10A_2 N11A_2 1_555 1_555
N10A_3 N11A_3 1_555 1_555
N10_3 N11_3 1_555 1_555
N10A_4 N11A_4 1_555 1_555
N10_4 C49_4 1_555 1_555
N11_2 C50_2 1_555 1_555
N11A C50A 1_555 1_555
N11A_2 C50A_2 1_555 1_555
N11A_3 C50A_3 1_555 1_555
N11_3 C50_3 1_555 1_555
C1_2 H15_2 1_555 1_555
C1A H15A 1_555 1_555
C1A_2 H15A_2 1_555 1_555
C2C N1C 1_555 1_555
H16C C2C 1_555 1_555
C3C N1C 1_555 1_555
H17C C3C 1_555 1_555
C4C C3C 1_555 1_555
H18C C4C 1_555 1_555
C5C C4C 1_555 1_555
H19C C5C 1_555 1_555
C6C C2C 1_555 1_555
C7C N2C 1_555 1_555
C8C O11C 1_555 1_555
C9C C8C 1_555 1_555
C10C C9C 1_555 1_555
H20C C10C 1_555 1_555
C11C C10C 1_555 1_555
H21C C11C 1_555 1_555
C12C C11C 1_555 1_555
H22C C12C 1_555 1_555
C13C N4C 1_555 1_555
H23C C13C 1_555 1_555
C14C C15C 1_555 1_555
C15C H24C 1_555 1_555
C16C C15C 1_555 1_555
C17C C16C 1_555 1_555
H25C C17C 1_555 1_555
C18C C17C 1_555 1_555
C19C C14C 1_555 1_555
H26C C19C 1_555 1_555
C20C O7C 1_555 1_555
C21C O8C 1_555 1_555
C22C O10C 1_555 1_555
H27C C22C 1_555 1_555
H28C C22C 1_555 1_555
H29C C22C 1_555 1_555
C23C C24C 1_555 1_555
C24C H30C 1_555 1_555
C25C C24C 1_555 1_555
C26C C25C 1_555 1_555
H31C C26C 1_555 1_555
C27C C26C 1_555 1_555
C28C C23C 1_555 1_555
H32C C28C 1_555 1_555
C29C O2C 1_555 1_555
C30C O3C 1_555 1_555
C31C O5C 1_555 1_555
H33C C31C 1_555 1_555
H34C C31C 1_555 1_555
H35C C31C 1_555 1_555
C32A N7A 1_555 1_555
C32_2 N7_2 1_555 1_555
C32A_2 N7A_4 1_555 1_555
C32_3 N7_3 1_555 1_555
C32A_3 N7A_2 1_555 1_555
C32A_4 N7A_3 1_555 1_555
C32A_5 C36A_5 1_555 1_555
H36A C32A 1_555 1_555
H36_2 C32_2 1_555 1_555
H36A_2 C32A_2 1_555 1_555
H36_3 C32_3 1_555 1_555
H36A_3 C32A_3 1_555 1_555
H36A_4 C32A_4 1_555 1_555
C33A N7A 1_555 1_555
C33_2 N7_2 1_555 1_555
C33_3 N7_3 1_555 1_555
C33A_2 N7A_2 1_555 1_555
C33A_3 N7A_3 1_555 1_555
C33A_4 N7A_4 1_555 1_555
H37A C33A 1_555 1_555
H37_2 C33_2 1_555 1_555
H37_3 C33_3 1_555 1_555
H37A_2 C33A_2 1_555 1_555
H37A_3 C33A_3 1_555 1_555
H37A_4 C33A_4 1_555 1_555
C34A C33A 1_555 1_555
C34_2 C33_2 1_555 1_555
C34A_2 C33A_4 1_555 1_555
C34_3 C33_3 1_555 1_555
C34A_3 C33A_2 1_555 1_555
C34A_4 C33A_3 1_555 1_555
H38A C34A 1_555 1_555
H38_2 C34_2 1_555 1_555
H38A_2 C34A_2 1_555 1_555
H38_3 C34_3 1_555 1_555
H38A_3 C34A_3 1_555 1_555
H38A_4 C34A_4 1_555 1_555
C35A C34A 1_555 1_555
C35_2 C34_2 1_555 1_555
C35A_2 C34A_2 1_555 1_555
C35_3 C34_3 1_555 1_555
C35A_3 C34A_3 1_555 1_555
C35A_4 C34A_4 1_555 1_555
C35A_5 C36A_5 1_555 1_555
H39A C35A 1_555 1_555
H39_2 C35_2 1_555 1_555
H39A_2 C35A_2 1_555 1_555
H39_3 C35_3 1_555 1_555
H39A_3 C35A_3 1_555 1_555
H39A_4 C35A_4 1_555 1_555
C36A C32A 1_555 1_555
C36_2 C32_2 1_555 1_555
C36A_2 C32A_2 1_555 1_555
C36_3 C32_3 1_555 1_555
C36A_3 C32A_3 1_555 1_555
C36A_4 C32A_4 1_555 1_555
C36A_5 C37A_5 1_555 1_555
C36_4 C37_4 1_555 1_555
C36_5 C37_5 1_555 1_555
C37A O24 1_555 1_555
C37_2 N8_2 1_555 1_555
C37A_2 O24_2 1_555 1_555
C37_3 N8_3 1_555 1_555
C37A_3 N8A_3 1_555 1_555
C37A_4 N8A_4 1_555 1_555
C37A_5 O24_3 1_555 1_555
C37_4 O24_4 1_555 1_555
C37_5 O24_5 1_555 1_555
C38A N5A 1_555 1_555
C38_2 N5_2 1_555 1_555
C38A_2 N5A_2 1_555 1_555
C38A_3 N5A_4 1_555 1_555
C38_3 N5_4 1_555 1_555
C38A_4 N5A_3 1_555 1_555
C38_4 N5_3 1_555 1_555
C38_5 C42_5 1_555 1_555
H40A C38A 1_555 1_555
H40_2 C38_2 1_555 1_555
H40A_2 C38A_2 1_555 1_555
H40A_3 C38A_3 1_555 1_555
H40_3 C38_3 1_555 1_555
H40A_4 C38A_4 1_555 1_555
H40_4 C38_4 1_555 1_555
C39A N5A 1_555 1_555
C39_2 N5_2 1_555 1_555
C39A_2 N5A_2 1_555 1_555
C39A_3 N5A_3 1_555 1_555
C39A_4 N5A_4 1_555 1_555
C39_3 N5_3 1_555 1_555
C39_4 N5_4 1_555 1_555
H41A C39A 1_555 1_555
H41_2 C39_2 1_555 1_555
H41A_2 C39A_2 1_555 1_555
H41A_3 C39A_3 1_555 1_555
H41A_4 C39A_4 1_555 1_555
H41_3 C39_3 1_555 1_555
H41_4 C39_4 1_555 1_555
C40A C39A 1_555 1_555
C40_2 C39_2 1_555 1_555
C40A_2 C39A_2 1_555 1_555
C40A_3 C39A_4 1_555 1_555
C40_3 C39_4 1_555 1_555
C40A_4 C39A_3 1_555 1_555
C40_4 C39_3 1_555 1_555
H42A C40A 1_555 1_555
H42_2 C40_2 1_555 1_555
H42A_2 C40A_2 1_555 1_555
H42A_3 C40A_3 1_555 1_555
H42_3 C40_3 1_555 1_555
H42A_4 C40A_4 1_555 1_555
H42_4 C40_4 1_555 1_555
C41A C40A 1_555 1_555
C41_2 C40_2 1_555 1_555
C41A_2 C40A_2 1_555 1_555
C41A_3 C40A_3 1_555 1_555
C41_3 C40_3 1_555 1_555
C41A_4 C40A_4 1_555 1_555
C41_4 C40_4 1_555 1_555
C41_5 C42_5 1_555 1_555
H43A C41A 1_555 1_555
H43_2 C41_2 1_555 1_555
H43A_2 C41A_2 1_555 1_555
H43A_3 C41A_3 1_555 1_555
H43_3 C41_3 1_555 1_555
H43A_4 C41A_4 1_555 1_555
H43_4 C41_4 1_555 1_555
C42A C38A 1_555 1_555
C42_2 C38_2 1_555 1_555
C42A_2 C38A_2 1_555 1_555
C42A_3 C38A_3 1_555 1_555
C42_3 C38_3 1_555 1_555
C42A_4 C38A_4 1_555 1_555
C42_4 C38_4 1_555 1_555
C42_5 C43_5 1_555 1_555
C42A_5 C43A_5 1_555 1_555
C43A O23 1_555 1_555
C43_2 N6_2 1_555 1_555
C43A_2 N6A_3 1_555 1_555
C43A_3 O23_2 1_555 1_555
C43_3 O23_3 1_555 1_555
C43A_4 N6A_4 1_555 1_555
C43_4 N6_5 1_555 1_555
C43_5 O23_4 1_555 1_555
C43A_5 O23_5 1_555 1_555
C44_2 N9_2 1_555 1_555
C44A N9A 1_555 1_555
C44A_2 N9A_2 1_555 1_555
C44A_3 N9A_3 1_555 1_555
C44_3 N9_3 1_555 1_555
C44A_4 N9A_4 1_555 1_555
C44_4 N9_4 1_555 1_555
H44_2 C44_2 1_555 1_555
H44A C44A 1_555 1_555
H44A_2 C44A_2 1_555 1_555
H44A_3 C44A_3 1_555 1_555
H44_3 C44_3 1_555 1_555
H44A_4 C44A_4 1_555 1_555
H44_4 C44_4 1_555 1_555
C45_2 N9_2 1_555 1_555
C45A N9A 1_555 1_555
C45A_2 N9A_2 1_555 1_555
C45A_3 N9A_3 1_555 1_555
C45_3 N9_3 1_555 1_555
C45A_4 N9A_4 1_555 1_555
C45_4 N9_4 1_555 1_555
H45_2 C45_2 1_555 1_555
H45A C45A 1_555 1_555
H45A_2 C45A_2 1_555 1_555
H45A_3 C45A_3 1_555 1_555
H45_3 C45_3 1_555 1_555
H45A_4 C45A_4 1_555 1_555
H45_4 C45_4 1_555 1_555
C46_2 C45_2 1_555 1_555
C46A C45A 1_555 1_555
C46A_2 C45A_2 1_555 1_555
C46A_3 C45A_3 1_555 1_555
C46_3 C45_3 1_555 1_555
C46A_4 C45A_4 1_555 1_555
C46_4 C45_4 1_555 1_555
H46_2 C46_2 1_555 1_555
H46A C46A 1_555 1_555
H46A_2 C46A_2 1_555 1_555
H46A_3 C46A_3 1_555 1_555
H46_3 C46_3 1_555 1_555
H46A_4 C46A_4 1_555 1_555
H46_4 C46_4 1_555 1_555
C47_2 C46_2 1_555 1_555
C47A C46A 1_555 1_555
C47A_2 C46A_2 1_555 1_555
C47A_3 C46A_3 1_555 1_555
C47_3 C46_3 1_555 1_555
C47A_4 C46A_4 1_555 1_555
C47_4 C46_4 1_555 1_555
H47_2 C47_2 1_555 1_555
H47A C47A 1_555 1_555
H47A_2 C47A_2 1_555 1_555
H47A_3 C47A_3 1_555 1_555
H47_3 C47_3 1_555 1_555
H47A_4 C47A_4 1_555 1_555
H47_4 C47_4 1_555 1_555
C48_2 C44_2 1_555 1_555
C48A C44A 1_555 1_555
C48A_2 C44A_2 1_555 1_555
C48A_3 C44A_3 1_555 1_555
C48_3 C44_3 1_555 1_555
C48A_4 C44A_4 1_555 1_555
C48_4 C44_4 1_555 1_555
C49_2 N10_2 1_555 1_555
C49A N10A 1_555 1_555
C49A_2 N10A_2 1_555 1_555
C49A_3 N10A_3 1_555 1_555
C49_3 N10_3 1_555 1_555
C49A_4 N10A_4 1_555 1_555
C49_4 C48_4 1_555 1_555
C50_2 O22_2 1_555 1_555
C50A O22A 1_555 1_555
C50A_2 O22A_2 1_555 1_555
C50A_3 O22A_3 1_555 1_555
C50_3 O22_3 1_555 1_555
C50A_4 O22A_4 1_555 1_555
C51_2 C50_2 1_555 1_555
C51A C50A 1_555 1_555
C51A_2 C50A_2 1_555 1_555
C51A_3 C50A_3 1_555 1_555
C51_3 C50_3 1_555 1_555
C52_2 C51_2 1_555 1_555
C52A C51A 1_555 1_555
C52A_2 C51A_2 1_555 1_555
C52A_3 C51A_3 1_555 1_555
H48_2 C52_2 1_555 1_555
H48A C52A 1_555 1_555
H48A_2 C52A_2 1_555 1_555
N12_2 C52_2 1_555 1_555
N12A C52A 1_555 1_555
N12A_2 C52A_2 1_555 1_555
C53_2 C1_2 1_555 1_555
C53A C1A 1_555 1_555
C53A_2 C1A_2 1_555 1_555
H49_2 C53_2 1_555 1_555
H49A C53A 1_555 1_555
H49A_2 C53A_2 1_555 1_555
C54_2 C1_2 1_555 1_555
C54A C1A 1_555 1_555
C54A_2 C1A_2 1_555 1_555
C54A_3 C51A_3 1_555 1_555
H50_2 C54_2 1_555 1_555
H50A C54A 1_555 1_555
H50A_2 C54A_2 1_555 1_555
C55A C56A 1_555 1_555
C55_2 C56_2 1_555 1_555
C55A_2 C56A_2 1_555 1_555
C55_3 C56_3 1_555 1_555
C55A_3 C56A_3 1_555 1_555
C55A_4 C56A_6 1_555 1_555
C55A_5 C56A_4 1_555 1_555
C55A_6 C56A_5 1_555 1_555
C55_4 C56_4 1_555 1_555
C56A H51A 1_555 1_555
C56_2 H51_2 1_555 1_555
C56A_2 H51A_2 1_555 1_555
C56_3 H51_3 1_555 1_555
C56A_3 H51A_3 1_555 1_555
C56A_4 H51A_4 1_555 1_555
C56A_5 H51A_5 1_555 1_555
C56A_6 H51A_6 1_555 1_555
C56_4 H51_4 1_555 1_555
C57A C56A 1_555 1_555
C57_2 C56_3 1_555 1_555
C57_3 C56_2 1_555 1_555
C57A_2 C56A_2 1_555 1_555
C57A_3 C56A_4 1_555 1_555
C57A_4 C56A_5 1_555 1_555
C57A_5 C56A_3 1_555 1_555
C57A_6 C56A_6 1_555 1_555
C57_4 C56_4 1_555 1_555
C58A C57A 1_555 1_555
C58_2 C57_2 1_555 1_555
C58_3 C57_3 1_555 1_555
C58A_2 C57A_2 1_555 1_555
C58A_3 C57A_3 1_555 1_555
C58A_4 C57A_4 1_555 1_555
C58A_5 C57A_5 1_555 1_555
C58A_6 C57A_6 1_555 1_555
H52A C58A 1_555 1_555
H52_2 C58_2 1_555 1_555
H52_3 C58_3 1_555 1_555
H52A_2 C58A_2 1_555 1_555
H52A_3 C58A_3 1_555 1_555
H52A_4 C58A_4 1_555 1_555
H52A_5 C58A_5 1_555 1_555
C59A C58A 1_555 1_555
C59_2 C58_3 1_555 1_555
C59A_2 C58A_2 1_555 1_555
C59_3 C58_2 1_555 1_555
C59A_3 C58A_5 1_555 1_555
C59A_4 C58A_3 1_555 1_555
C59A_5 C58A_4 1_555 1_555
C59A_6 C58A_6 1_555 1_555
C59_4 C60_4 1_555 1_555
C60A C55A 1_555 1_555
C60_2 C55_2 1_555 1_555
C60A_2 C55A_2 1_555 1_555
C60_3 C55_3 1_555 1_555
C60A_3 C55A_3 1_555 1_555
C60A_4 C55A_4 1_555 1_555
C60A_5 C55A_5 1_555 1_555
C60A_6 C55A_6 1_555 1_555
C60_4 C55_4 1_555 1_555
H53A C60A 1_555 1_555
H53_2 C60_2 1_555 1_555
H53A_2 C60A_2 1_555 1_555
H53_3 C60_3 1_555 1_555
H53A_3 C60A_3 1_555 1_555
H53A_4 C60A_4 1_555 1_555
H53A_5 C60A_5 1_555 1_555
H53A_6 C60A_6 1_555 1_555
H53_4 C60_4 1_555 1_555
C61A O15A 1_555 1_555
C61_2 O14_2 1_555 1_555
C61A_2 O15A_2 1_555 1_555
C61_3 O15_3 1_555 1_555
C61A_3 O15A_3 1_555 1_555
C61A_4 O15A_4 1_555 1_555
C61_4 O15_4 1_555 1_555
C61A_5 C55A_5 1_555 1_555
C61A_6 C55A_6 1_555 1_555
C62A O13A 1_555 1_555
C62_2 O13_2 1_555 1_555
C62_3 O13_3 1_555 1_555
C62A_2 O13A_2 1_555 1_555
C62A_3 O13A_3 1_555 1_555
C62A_4 O13A_4 1_555 1_555
C62A_5 O13A_5 1_555 1_555
C62A_6 C57A_6 1_555 1_555
C63A O16A 1_555 1_555
C63_2 O16_2 1_555 1_555
C63A_2 O16A_2 1_555 1_555
C63_3 O16_3 1_555 1_555
C63A_3 O16A_3 1_555 1_555
C63A_4 O16A_4 1_555 1_555
C63A_5 O16A_5 1_555 1_555
H54A C63A 1_555 1_555
H54_2 C63_2 1_555 1_555
H54A_2 C63A_2 1_555 1_555
H54_3 C63_3 1_555 1_555
H54A_3 C63A_3 1_555 1_555
H55A C63A 1_555 1_555
H55_2 C63_2 1_555 1_555
H55A_2 C63A_2 1_555 1_555
H55_3 C63_3 1_555 1_555
H55A_3 C63A_3 1_555 1_555
H56A C63A 1_555 1_555
H56_2 C63_2 1_555 1_555
H56A_2 C63A_2 1_555 1_555
H56_3 C63_3 1_555 1_555
H56A_3 C63A_3 1_555 1_555
C64_2 C65_2 1_555 1_555
C64A C65A_2 1_555 1_555
C64A_2 C65A_3 1_555 1_555
C64A_3 C65A 1_555 1_555
C64_3 C65_4 1_555 1_555
C64_4 C65_3 1_555 1_555
C64A_4 C65A_4 1_555 1_555
C64_5 C65_5 1_555 1_555
C65_2 H57_2 1_555 1_555
C65A H57A 1_555 1_555
C65A_2 H57A_2 1_555 1_555
C65A_3 H57A_3 1_555 1_555
C65_3 H57_3 1_555 1_555
C65A_4 H57A_4 1_555 1_555
C65_4 H57_4 1_555 1_555
C65_5 H57_5 1_555 1_555
C66_2 C65_2 1_555 1_555
C66A C65A 1_555 1_555
C66A_2 C65A_2 1_555 1_555
C66A_3 C65A_3 1_555 1_555
C66_3 C65_3 1_555 1_555
C66A_4 C65A_4 1_555 1_555
C66_4 C65_4 1_555 1_555
C66_5 C65_5 1_555 1_555
C67_2 C66_2 1_555 1_555
C67A C66A 1_555 1_555
C67A_2 C66A_2 1_555 1_555
C67A_3 C66A_3 1_555 1_555
C67_3 C66_3 1_555 1_555
C67A_4 C66A_4 1_555 1_555
C67_4 C66_4 1_555 1_555
H58_2 C67_2 1_555 1_555
H58A C67A 1_555 1_555
H58A_2 C67A_2 1_555 1_555
H58A_3 C67A_3 1_555 1_555
H58_3 C67_3 1_555 1_555
H58A_4 C67A_4 1_555 1_555
H58_4 C67_4 1_555 1_555
C68_2 C67_2 1_555 1_555
C68A C67A 1_555 1_555
C68A_2 C67A_2 1_555 1_555
C68A_3 C67A_3 1_555 1_555
C68_3 C67_3 1_555 1_555
C68A_4 C67A_4 1_555 1_555
C68_4 C67_4 1_555 1_555
C68_5 C69_5 1_555 1_555
C69_2 C64_2 1_555 1_555
C69A C64A 1_555 1_555
C69A_2 C64A_2 1_555 1_555
C69A_3 C64A_3 1_555 1_555
C69_3 C64_3 1_555 1_555
C69_4 C64_4 1_555 1_555
C69A_4 C64A_4 1_555 1_555
C69_5 C64_5 1_555 1_555
H59_2 C69_2 1_555 1_555
H59A C69A 1_555 1_555
H59A_2 C69A_2 1_555 1_555
H59A_3 C69A_3 1_555 1_555
H59_3 C69_3 1_555 1_555
H59_4 C69_4 1_555 1_555
H59A_4 C69A_4 1_555 1_555
H59_5 C69_5 1_555 1_555
C70_2 O17_2 1_555 1_555
C70A O17A 1_555 1_555
C70A_2 O17A_2 1_555 1_555
C70A_3 O17A_3 1_555 1_555
C70_3 O17_3 1_555 1_555
C70A_4 O17A_4 1_555 1_555
C70_4 O17_4 1_555 1_555
C70_5 O18_5 1_555 1_555
C71_2 O19_2 1_555 1_555
C71A O19A 1_555 1_555
C71A_2 O19A_2 1_555 1_555
C71A_3 O19A_3 1_555 1_555
C71_3 O19_3 1_555 1_555
C71A_4 O19A_4 1_555 1_555
C71_4 C66_4 1_555 1_555
C72_2 O21_2 1_555 1_555
C72A O21A 1_555 1_555
C72A_2 O21A_2 1_555 1_555
C72A_3 O21A_3 1_555 1_555
C72_3 O21_3 1_555 1_555
C72A_4 O21A_4 1_555 1_555
C72_4 O21_4 1_555 1_555
H60_2 C72_2 1_555 1_555
H60A C72A 1_555 1_555
H60A_2 C72A_2 1_555 1_555
H60A_3 C72A_3 1_555 1_555
H60_3 C72_3 1_555 1_555
H61_2 C72_2 1_555 1_555
H61A C72A 1_555 1_555
H61A_2 C72A_2 1_555 1_555
H61A_3 C72A_3 1_555 1_555
H61_3 C72_3 1_555 1_555
H62_2 C72_2 1_555 1_555
H62A C72A 1_555 1_555
H62A_2 C72A_2 1_555 1_555
H62A_3 C72A_3 1_555 1_555
H62_3 C72_3 1_555 1_555
O4 Cd1C_2 1_555 1_555
O9 Cd2C_2 1_555 1_555
O18 Cd4_2 1_555 1_555
O20 C71 1_555 1_555
C5 C6 1_555 1_555
C6 C7 1_555 1_555
C9 C13 1_555 1_555
C11 C12 1_555 1_555
C14 C20 1_555 1_555
C18 C19 1_555 1_555
C23 C29 1_555 1_555
C27 C28 1_555 1_555
C35 C36 1_555 1_555
C41 C42 1_555 1_555
C47 C48 1_555 1_555
C48 C49 1_555 1_555
C51 C54 1_555 1_555
N12 C53 1_555 1_555
C55 C61 1_555 1_555
C57 C62 1_555 1_555
C59 C60 1_555 1_555
C66 C71 1_555 1_555
C68 C69 1_555 1_555
O4C C30C 1_555 1_555
O9C C21C 1_555 1_555
O15_2 C61_2 1_555 1_555
O18_2 C70_2 1_555 1_555
O18A C70A 1_555 1_555
O18A_2 C70A_2 1_555 1_555
O18A_3 C70A_3 1_555 1_555
O18_3 C70_3 1_555 1_555
O18A_4 C70A_4 1_555 1_555
O18_4 C70_4 1_555 1_555
O20_2 C71_2 1_555 1_555
O20A C71A 1_555 1_555
O20A_2 C71A_2 1_555 1_555
O20A_3 C71A_3 1_555 1_555
O20_3 C71_3 1_555 1_555
O20A_4 C71A_4 1_555 1_555
N6A C43A 1_555 1_555
N8A C37A 1_555 1_555
C5C C6C 1_555 1_555
C6C C7C 1_555 1_555
C9C C13C 1_555 1_555
C14C C20C 1_555 1_555
C16C C21C 1_555 1_555
C18C C19C 1_555 1_555
C23C C29C 1_555 1_555
C25C C30C 1_555 1_555
C27C C28C 1_555 1_555
C35A C36A 1_555 1_555
C35_2 C36_2 1_555 1_555
C35A_2 C36A_2 1_555 1_555
C35_3 C36_3 1_555 1_555
C35A_3 C36A_3 1_555 1_555
C35A_4 C36A_4 1_555 1_555
C36A C37A 1_555 1_555
C36_2 C37_2 1_555 1_555
C36A_2 C37A_2 1_555 1_555
C36_3 C37_3 1_555 1_555
C36A_3 C37A_3 1_555 1_555
C36A_4 C37A_4 1_555 1_555
C41A C42A 1_555 1_555
C41_2 C42_2 1_555 1_555
C41A_2 C42A_2 1_555 1_555
C41A_3 C42A_3 1_555 1_555
C41_3 C42_3 1_555 1_555
C41A_4 C42A_4 1_555 1_555
C41_4 C42_4 1_555 1_555
C42A C43A 1_555 1_555
C42_2 C43_2 1_555 1_555
C42A_2 C43A_2 1_555 1_555
C42A_3 C43A_3 1_555 1_555
C42_3 C43_3 1_555 1_555
C42A_4 C43A_4 1_555 1_555
C42_4 C43_4 1_555 1_555
C47_2 C48_2 1_555 1_555
C47A C48A 1_555 1_555
C47A_2 C48A_2 1_555 1_555
C47A_3 C48A_3 1_555 1_555
C47_3 C48_3 1_555 1_555
C47A_4 C48A_4 1_555 1_555
C47_4 C48_4 1_555 1_555
C48_2 C49_2 1_555 1_555
C48A C49A 1_555 1_555
C48A_2 C49A_2 1_555 1_555
C48A_3 C49A_3 1_555 1_555
C48_3 C49_3 1_555 1_555
C48A_4 C49A_4 1_555 1_555
C51_2 C54_2 1_555 1_555
C51A C54A 1_555 1_555
C51A_2 C54A_2 1_555 1_555
N12_2 C53_2 1_555 1_555
N12A C53A 1_555 1_555
N12A_2 C53A_2 1_555 1_555
C55A C61A 1_555 1_555
C55_2 C61_2 1_555 1_555
C55A_2 C61A_2 1_555 1_555
C55_3 C61_3 1_555 1_555
C55A_3 C61A_3 1_555 1_555
C55A_4 C61A_4 1_555 1_555
C55_4 C61_4 1_555 1_555
C57A C62A 1_555 1_555
C57_2 C62_2 1_555 1_555
C57_3 C62_3 1_555 1_555
C57A_2 C62A_2 1_555 1_555
C57A_3 C62A_3 1_555 1_555
C57A_4 C62A_4 1_555 1_555
C57A_5 C62A_5 1_555 1_555
C59A C60A 1_555 1_555
C59_2 C60_2 1_555 1_555
C59A_2 C60A_2 1_555 1_555
C59_3 C60_3 1_555 1_555
C59A_3 C60A_3 1_555 1_555
C59A_4 C60A_5 1_555 1_555
C59A_5 C60A_6 1_555 1_555
C59A_6 C60A_4 1_555 1_555
C64_2 C70_2 1_555 1_555
C64A C70A 1_555 1_555
C64A_2 C70A_2 1_555 1_555
C64A_3 C70A_3 1_555 1_555
C64_3 C70_3 1_555 1_555
C64_4 C70_5 1_555 1_555
C64A_4 C70A_4 1_555 1_555
C64_5 C70_4 1_555 1_555
C66_2 C71_2 1_555 1_555
C66A C71A 1_555 1_555
C66A_2 C71A_2 1_555 1_555
C66A_3 C71A_3 1_555 1_555
C66_3 C71_3 1_555 1_555
C66A_4 C71A_4 1_555 1_555
C68_2 C69_2 1_555 1_555
C68A C69A_3 1_555 1_555
C68A_2 C69A 1_555 1_555
C68A_3 C69A_2 1_555 1_555
C68_3 C69_4 1_555 1_555
C68A_4 C69A_4 1_555 1_555
C68_4 C69_3 1_555 1_555

#END
