
#######################################################################
#
#                 Cambridge Crystallographic Data Centre
#                                CCDC 
#
#######################################################################
#
# If this CIF has been generated from an entry in the Cambridge 
# Structural Database, then it will include bibliographic, chemical, 
# crystal, experimental, refinement or atomic coordinate data resulting 
# from the CCDC's data processing and validation procedures.
#
#######################################################################

data_AMUBEQ
_symmetry_cell_setting           triclinic
_symmetry_space_group_name_H-M   'P -1'
_symmetry_Int_Tables_number      2
_space_group_name_Hall           '-P 1'
loop_
_symmetry_equiv_pos_site_id
_symmetry_equiv_pos_as_xyz
1 x,y,z
2 -x,-y,-z
_cell_length_a                   10.309(4)
_cell_length_b                   13.977(5)
_cell_length_c                   15.650(6)
_cell_angle_alpha                71.099(6)
_cell_angle_beta                 84.320(5)
_cell_angle_gamma                72.490(6)
_cell_volume                     2034.55
loop_
_atom_site_label
_atom_site_type_symbol
_atom_site_fract_x
_atom_site_fract_y
_atom_site_fract_z
Cd1 Cd 0.50433(3) 0.43610(2) 0.331404(19)
Cd2 Cd 0.03882(3) 0.12126(2) 0.196096(19)
N1 N 0.5115(3) 0.3124(3) 0.4744(2)
N2 N 0.4297(4) -0.0220(3) 0.6366(2)
N3 N 0.3539(4) -0.0780(3) 0.6135(2)
N4 N 0.0902(3) 0.0053(3) 0.3461(2)
N5 N 0.4539(3) 0.5477(3) 0.1780(2)
N6 N 0.2721(4) 0.5912(3) -0.1115(2)
N7 N 0.1971(4) 0.5348(3) -0.1352(2)
N8 N 0.0260(3) 0.2464(3) 0.0516(2)
O1 O 0.3147(3) 0.0783(2) 0.51223(17)
O2 O 0.2283(3) 0.4742(2) 0.01237(17)
O3 O 0.6318(3) 0.5279(3) 0.3469(2)
O4 O 0.7976(3) 0.3792(2) 0.3637(2)
O5 O 1.2787(3) 0.4246(2) 0.3318(2)
O6 O 1.3044(3) 0.5547(2) 0.3712(2)
O7 O 0.2435(3) 0.0238(3) 0.1514(2)
O8 O 0.2866(3) 0.1494(3) 0.1866(2)
O9 O 0.7850(3) 0.1506(2) 0.1819(2)
O10 O 0.9376(3) 0.0085(2) 0.1675(2)
O11 O 0.5803(3) 0.3007(2) 0.26556(19)
H1 H 0.6072 0.2369 0.2988
H2 H 0.6300 0.3117 0.2188
O12 O -0.0098(3) 0.2514(2) 0.2639(2)
H3 H -0.0824 0.3008 0.2632
H4 H 0.0553 0.2610 0.2863
C1 C 0.4529(4) 0.2357(3) 0.4864(3)
H5 H 0.4049 0.2365 0.4387
C2 C 0.4609(4) 0.1553(3) 0.5669(3)
C3 C 0.5310(4) 0.1552(4) 0.6389(3)
H6 H 0.5395 0.1016 0.6938
C4 C 0.5870(4) 0.2360(4) 0.6269(3)
H7 H 0.6314 0.2394 0.6743
C5 C 0.5768(4) 0.3118(4) 0.5443(3)
H8 H 0.6172 0.3652 0.5365
C6 C 0.4034(4) 0.0687(3) 0.5756(3)
C7 C 0.2885(4) -0.0170(3) 0.5406(3)
C8 C 0.1643(4) 0.0255(3) 0.3992(3)
H9 H 0.1920 0.0865 0.3771
C9 C 0.2024(4) -0.0400(3) 0.4863(3)
C10 C 0.1591(4) -0.1311(3) 0.5198(3)
H10 H 0.1818 -0.1767 0.5779
C11 C 0.0819(5) -0.1513(3) 0.4646(3)
H11 H 0.0514 -0.2111 0.4851
C12 C 0.0502(4) -0.0829(3) 0.3792(3)
H12 H -0.0012 -0.0983 0.3426
C13 C 0.3863(4) 0.5237(3) 0.1231(3)
H13 H 0.3555 0.4641 0.1461
C14 C 0.3597(4) 0.5834(3) 0.0333(3)
C15 C 0.4048(4) 0.6728(3) -0.0007(3)
H14 H 0.3885 0.7149 -0.0605
C16 C 0.4742(5) 0.6974(3) 0.0563(3)
H15 H 0.5057 0.7568 0.0353
C17 C 0.4965(4) 0.6342(3) 0.1435(3)
H16 H 0.5436 0.6520 0.1810
C18 C 0.2881(4) 0.5536(3) -0.0248(3)
C19 C 0.1728(4) 0.4682(3) -0.0609(3)
C20 C 0.0905(4) 0.3200(3) 0.0369(3)
H17 H 0.1309 0.3245 0.0855
C21 C 0.0995(4) 0.3899(3) -0.0480(3)
C22 C 0.0373(5) 0.3840(4) -0.1199(3)
H18 H 0.0406 0.4304 -0.1776
C23 C -0.0292(5) 0.3086(4) -0.1044(3)
H19 H -0.0715 0.3031 -0.1517
C24 C -0.0330(4) 0.2411(3) -0.0183(3)
H20 H -0.0784 0.1901 -0.0084
C25 C 0.7554(4) 0.4734(3) 0.3585(3)
C26 C 0.8522(4) 0.5340(3) 0.3640(3)
C27 C 0.9915(4) 0.4906(3) 0.3637(2)
H21 H 1.0274 0.4211 0.3638
C28 C 1.0785(4) 0.5498(3) 0.3631(3)
C29 C 1.0256(5) 0.6517(4) 0.3639(5)
H22 H 1.0837 0.6911 0.3644
C30 C 0.8873(5) 0.6962(5) 0.3641(6)
H23 H 0.8518 0.7655 0.3645
C31 C 0.8018(5) 0.6377(4) 0.3635(5)
H24 H 0.7082 0.6685 0.3628
C32 C 1.2292(4) 0.5063(3) 0.3567(3)
C33 C 0.3248(4) 0.0706(3) 0.1601(3)
C34 C 0.4728(4) 0.0273(3) 0.1406(3)
C35 C 0.5711(4) 0.0692(3) 0.1564(2)
H25 H 0.5442 0.1292 0.1750
C36 C 0.7082(4) 0.0237(3) 0.1451(3)
C37 C 0.7471(4) -0.0650(4) 0.1163(4)
H26 H 0.8389 -0.0965 0.1084
C38 C 0.6503(5) -0.1067(4) 0.0993(4)
H27 H 0.6771 -0.1656 0.0793
C39 C 0.5141(4) -0.0612(4) 0.1119(3)
H28 H 0.4495 -0.0901 0.1010
C40 C 0.8159(4) 0.0646(3) 0.1668(3)
Cd1_2 Cd 1.50433(3) 0.43610(2) 0.331404(19)
Cd2_2 Cd 1.03882(3) 0.12126(2) 0.196096(19)
O5_2 O 0.2787(3) 0.4246(2) 0.3318(2)
O6_2 O 0.3044(3) 0.5547(2) 0.3712(2)
O9_2 O -0.2150(3) 0.1506(2) 0.1819(2)
O10_2 O -0.0624(3) 0.0085(2) 0.1675(2)
O13 O 0.1733(8) 0.8386(8) 0.1664(14)
O14 O 0.2049(7) 0.3298(6) 0.2315(5)
O15? O 0.1652(18) 0.872(2) 0.109(2)
O16? O 0.2285(7) 0.2620(6) 0.3039(6)
loop_
_geom_bond_atom_site_label_1
_geom_bond_atom_site_label_2
_geom_bond_site_symmetry_1
_geom_bond_site_symmetry_2
Cd1 N1 1_555 1_555
Cd2 N4 1_555 1_555
N1 C1 1_555 1_555
N2 N3 1_555 1_555
N3 C7 1_555 1_555
N4 C8 1_555 1_555
N5 Cd1 1_555 1_555
N6 N7 1_555 1_555
N7 C19 1_555 1_555
N8 Cd2 1_555 1_555
O1 C6 1_555 1_555
O2 C18 1_555 1_555
O3 Cd1 1_555 1_555
O4 C25 1_555 1_555
O5 C32 1_555 1_555
O6 C32 1_555 1_555
O7 Cd2 1_555 1_555
O8 Cd2 1_555 1_555
O9 C40 1_555 1_555
O10 C40 1_555 1_555
O11 Cd1 1_555 1_555
H1 O11 1_555 1_555
H2 O11 1_555 1_555
O12 Cd2 1_555 1_555
H3 O12 1_555 1_555
H4 O12 1_555 1_555
C1 H5 1_555 1_555
C2 C1 1_555 1_555
C3 C2 1_555 1_555
H6 C3 1_555 1_555
C4 C3 1_555 1_555
H7 C4 1_555 1_555
C5 N1 1_555 1_555
H8 C5 1_555 1_555
C6 N2 1_555 1_555
C7 O1 1_555 1_555
C8 H9 1_555 1_555
C9 C7 1_555 1_555
C10 C9 1_555 1_555
H10 C10 1_555 1_555
C11 C10 1_555 1_555
H11 C11 1_555 1_555
C12 N4 1_555 1_555
H12 C12 1_555 1_555
C13 N5 1_555 1_555
H13 C13 1_555 1_555
C14 C13 1_555 1_555
C15 C14 1_555 1_555
H14 C15 1_555 1_555
C16 C15 1_555 1_555
H15 C16 1_555 1_555
C17 N5 1_555 1_555
H16 C17 1_555 1_555
C18 N6 1_555 1_555
C19 O2 1_555 1_555
C20 N8 1_555 1_555
H17 C20 1_555 1_555
C21 C19 1_555 1_555
C22 C21 1_555 1_555
H18 C22 1_555 1_555
C23 C22 1_555 1_555
H19 C23 1_555 1_555
C24 N8 1_555 1_555
H20 C24 1_555 1_555
C25 O3 1_555 1_555
C26 C25 1_555 1_555
C27 C26 1_555 1_555
H21 C27 1_555 1_555
C28 C27 1_555 1_555
C29 C28 1_555 1_555
H22 C29 1_555 1_555
C30 C29 1_555 1_555
H23 C30 1_555 1_555
C31 C26 1_555 1_555
H24 C31 1_555 1_555
C32 C28 1_555 1_555
C33 O7 1_555 1_555
C34 C33 1_555 1_555
C35 C34 1_555 1_555
H25 C35 1_555 1_555
C36 C35 1_555 1_555
C37 C36 1_555 1_555
H26 C37 1_555 1_555
C38 C37 1_555 1_555
H27 C38 1_555 1_555
C39 C34 1_555 1_555
H28 C39 1_555 1_555
C40 C36 1_555 1_555
Cd1_2 O5 1_555 1_555
Cd2_2 O9 1_555 1_555
O5_2 Cd1 1_555 1_555
O6_2 Cd1 1_555 1_555
O9_2 Cd2 1_555 1_555
O10_2 Cd2 1_555 1_555
O6 Cd1_2 1_555 1_555
O8 C33 1_555 1_555
O10 Cd2_2 1_555 1_555
C2 C6 1_555 1_555
C4 C5 1_555 1_555
C8 C9 1_555 1_555
C11 C12 1_555 1_555
C14 C18 1_555 1_555
C16 C17 1_555 1_555
C20 C21 1_555 1_555
C23 C24 1_555 1_555
C30 C31 1_555 1_555
C38 C39 1_555 1_555

#END
