
#######################################################################
#
#                 Cambridge Crystallographic Data Centre
#                                CCDC 
#
#######################################################################
#
# If this CIF has been generated from an entry in the Cambridge 
# Structural Database, then it will include bibliographic, chemical, 
# crystal, experimental, refinement or atomic coordinate data resulting 
# from the CCDC's data processing and validation procedures.
#
#######################################################################

data_AMUBUG
_symmetry_cell_setting           monoclinic
_symmetry_space_group_name_H-M   'C 2/c'
_symmetry_Int_Tables_number      15
_space_group_name_Hall           '-C 2yn'
loop_
_symmetry_equiv_pos_site_id
_symmetry_equiv_pos_as_xyz
1 x,y,z
2 -x,y,1/2-z
3 1/2+x,1/2+y,z
4 1/2-x,1/2+y,1/2-z
5 -x,-y,-z
6 x,-y,1/2+z
7 1/2-x,1/2-y,-z
8 1/2+x,1/2-y,1/2+z
_cell_length_a                   23.9052(9)
_cell_length_b                   16.4095(6)
_cell_length_c                   10.3284(4)
_cell_angle_alpha                90
_cell_angle_beta                 102.334(1)
_cell_angle_gamma                90
_cell_volume                     3958.03
loop_
_atom_site_label
_atom_site_type_symbol
_atom_site_fract_x
_atom_site_fract_y
_atom_site_fract_z
Cd1 Cd 0.181038(10) 0.072435(13) 0.85529(2)
O1 O 0.0000 0.19957(19) 1.2500
O2 O 0.22676(11) 0.19099(15) 0.7942(3)
O3 O 0.24504(12) 0.07497(15) 0.7110(3)
O4 O 0.37163(11) 0.44412(14) 0.5417(2)
O5 O 0.30970(12) 0.44042(14) 0.6702(3)
O6 O 0.09580(11) 0.07548(14) 0.6916(2)
H1 H 0.1083 0.0702 0.6209
H2 H 0.0752 0.0369 0.7105
O7 O 0.24406(13) 0.06171(16) 1.0674(3)
H3 H 0.2468 0.0138 1.0992
H4 H 0.2364 0.0994 1.1173
N1 N 0.13422(11) 0.16094(16) 0.9705(3)
N2 N 0.01964(12) 0.07244(16) 1.2084(3)
C1 C 0.09589(13) 0.1332(2) 1.0360(3)
H5 H 0.0870 0.0780 1.0309
C2 C 0.14632(14) 0.24109(19) 0.9773(3)
H6 H 0.1736 0.2611 0.9334
C3 C 0.11974(15) 0.2941(2) 1.0470(3)
H7 H 0.1280 0.3495 1.0472
C4 C 0.08117(14) 0.2658(2) 1.1159(3)
H8 H 0.0635 0.3012 1.1650
C5 C 0.06861(13) 0.1830(2) 1.1115(3)
C6 C 0.02985(13) 0.1475(2) 1.1874(3)
C7 C 0.29221(12) 0.19156(18) 0.6508(3)
C8 C 0.32537(13) 0.14664(18) 0.5819(3)
H9 H 0.3220 0.0902 0.5797
C9 C 0.36361(13) 0.18361(19) 0.5159(3)
C10 C 0.36787(12) 0.26843(19) 0.5230(3)
H10 H 0.3934 0.2948 0.4806
C11 C 0.33508(12) 0.31442(18) 0.5915(3)
C12 C 0.29688(13) 0.27522(18) 0.6550(3)
H11 H 0.2744 0.3056 0.7005
C13 C 0.25186(13) 0.1500(2) 0.7225(3)
C14 C 0.39865(15) 0.1315(2) 0.4392(4)
C15 C 0.4370(3) 0.0757(4) 0.5342(7)
H12 H 0.4140 0.0372 0.5700
H13 H 0.4594 0.1072 0.6050
H14 H 0.4619 0.0470 0.4884
C16 C 0.4373(2) 0.1830(3) 0.3722(5)
H15 H 0.4588 0.1480 0.3264
H16 H 0.4631 0.2139 0.4380
H17 H 0.4143 0.2194 0.3100
C17 C 0.3586(3) 0.0862(4) 0.3323(7)
H18 H 0.3398 0.0439 0.3711
H19 H 0.3797 0.0626 0.2725
H20 H 0.3305 0.1232 0.2846
C18 C 0.33970(15) 0.40547(19) 0.6004(3)
Cd1C Cd 0.318962(10) -0.427565(13) 0.64471(2)
Cd1C_2 Cd 0.318962(10) 0.572435(13) 0.64471(2)
Cd1A Cd -0.181038(10) 0.072435(13) 1.64471(2)
O2C O 0.27324(11) -0.30901(15) 0.7058(3)
O3C O 0.25496(12) -0.42503(15) 0.7890(3)
O4C O 0.12837(11) -0.05588(14) 0.9583(2)
O4_2 O 0.37163(11) -0.55588(14) 0.5417(2)
O5C O 0.19030(12) -0.05958(14) 0.8298(3)
O5_2 O 0.30970(12) -0.55958(14) 0.6702(3)
O6C O 0.40420(11) -0.42452(14) 0.8084(2)
H1C H 0.3917 -0.4298 0.8791
H2C H 0.4248 -0.4631 0.7895
O7C O 0.25594(13) -0.43829(16) 0.4326(3)
H3C H 0.2532 -0.4862 0.4008
H4C H 0.2636 -0.4006 0.3827
N1A N -0.13422(11) 0.16094(16) 1.5295(3)
N1C N 0.36578(11) -0.33906(16) 0.5295(3)
N2A N -0.01964(12) 0.07244(16) 1.2916(3)
C1A C -0.09589(13) 0.1332(2) 1.4640(3)
H5A H -0.0870 0.0780 1.4691
C2A C -0.14632(14) 0.24109(19) 1.5227(3)
H6A H -0.1736 0.2611 1.5666
C3A C -0.11974(15) 0.2941(2) 1.4530(3)
H7A H -0.1280 0.3495 1.4528
C4A C -0.08117(14) 0.2658(2) 1.3841(3)
H8A H -0.0635 0.3012 1.3350
C5A C -0.06861(13) 0.1830(2) 1.3885(3)
C6A C -0.02985(13) 0.1475(2) 1.3126(3)
C7C C 0.20779(12) -0.30844(18) 0.8492(3)
C8C C 0.17463(13) -0.35336(18) 0.9181(3)
H9C H 0.1780 -0.4098 0.9203
C9C C 0.13639(13) -0.31639(19) 0.9841(3)
C10C C 0.13213(12) -0.23157(19) 0.9770(3)
H10C H 0.1066 -0.2052 1.0194
C11C C 0.16492(12) -0.18558(18) 0.9085(3)
C12C C 0.20312(13) -0.22478(18) 0.8450(3)
H11C H 0.2256 -0.1944 0.7995
C13C C 0.24814(13) -0.3500(2) 0.7775(3)
C14C C 0.10135(15) -0.3685(2) 1.0608(4)
C15C C 0.0630(3) -0.4243(4) 0.9658(7)
H12C H 0.0860 -0.4628 0.9300
H13C H 0.0406 -0.3928 0.8950
H14C H 0.0381 -0.4530 1.0116
C16C C 0.0627(2) -0.3170(3) 1.1278(5)
H15C H 0.0412 -0.3520 1.1736
H16C H 0.0369 -0.2861 1.0620
H17C H 0.0857 -0.2806 1.1900
C17C C 0.1414(3) -0.4138(4) 1.1677(7)
H18C H 0.1602 -0.4561 1.1289
H19C H 0.1203 -0.4374 1.2275
H20C H 0.1695 -0.3768 1.2154
C18C C 0.16030(15) -0.09453(19) 0.8996(3)
loop_
_geom_bond_atom_site_label_1
_geom_bond_atom_site_label_2
_geom_bond_site_symmetry_1
_geom_bond_site_symmetry_2
Cd1 O2 1_555 1_555
O1 C6 1_555 1_555
O2 C13 1_555 1_555
O3 Cd1 1_555 1_555
O4 C18 1_555 1_555
O5 C18 1_555 1_555
O6 Cd1 1_555 1_555
H1 O6 1_555 1_555
H2 O6 1_555 1_555
O7 Cd1 1_555 1_555
H3 O7 1_555 1_555
H4 O7 1_555 1_555
N1 Cd1 1_555 1_555
N2 C6 1_555 1_555
C1 N1 1_555 1_555
H5 C1 1_555 1_555
C2 N1 1_555 1_555
H6 C2 1_555 1_555
C3 C2 1_555 1_555
H7 C3 1_555 1_555
C4 C3 1_555 1_555
H8 C4 1_555 1_555
C5 C1 1_555 1_555
C6 C5 1_555 1_555
C7 C8 1_555 1_555
C8 H9 1_555 1_555
C9 C8 1_555 1_555
C10 C9 1_555 1_555
H10 C10 1_555 1_555
C11 C10 1_555 1_555
C12 C7 1_555 1_555
H11 C12 1_555 1_555
C13 O3 1_555 1_555
C14 C9 1_555 1_555
C15 C14 1_555 1_555
H12 C15 1_555 1_555
H13 C15 1_555 1_555
H14 C15 1_555 1_555
C16 C14 1_555 1_555
H15 C16 1_555 1_555
H16 C16 1_555 1_555
H17 C16 1_555 1_555
C17 C14 1_555 1_555
H18 C17 1_555 1_555
H19 C17 1_555 1_555
H20 C17 1_555 1_555
C18 C11 1_555 1_555
Cd1C O2C 1_555 1_555
Cd1C_2 O4 1_555 1_555
Cd1A N1A 1_555 1_555
O2C C13C 1_555 1_555
O3C Cd1C 1_555 1_555
O4C Cd1 1_555 1_555
O4_2 Cd1C 1_555 1_555
O5C Cd1 1_555 1_555
O5_2 Cd1C 1_555 1_555
O6C Cd1C 1_555 1_555
H1C O6C 1_555 1_555
H2C O6C 1_555 1_555
O7C Cd1C 1_555 1_555
H3C O7C 1_555 1_555
H4C O7C 1_555 1_555
N1A C1A 1_555 1_555
N1C Cd1C 1_555 1_555
N2A N2 1_555 1_555
C1A H5A 1_555 1_555
C2A N1A 1_555 1_555
H6A C2A 1_555 1_555
C3A C2A 1_555 1_555
H7A C3A 1_555 1_555
C4A C3A 1_555 1_555
H8A C4A 1_555 1_555
C5A C1A 1_555 1_555
C6A O1 1_555 1_555
C7C C8C 1_555 1_555
C8C H9C 1_555 1_555
C9C C8C 1_555 1_555
C10C C9C 1_555 1_555
H10C C10C 1_555 1_555
C11C C10C 1_555 1_555
C12C C7C 1_555 1_555
H11C C12C 1_555 1_555
C13C O3C 1_555 1_555
C14C C9C 1_555 1_555
C15C C14C 1_555 1_555
H12C C15C 1_555 1_555
H13C C15C 1_555 1_555
H14C C15C 1_555 1_555
C16C C14C 1_555 1_555
H15C C16C 1_555 1_555
H16C C16C 1_555 1_555
H17C C16C 1_555 1_555
C17C C14C 1_555 1_555
H18C C17C 1_555 1_555
H19C C17C 1_555 1_555
H20C C17C 1_555 1_555
C18C O4C 1_555 1_555
O5 Cd1C_2 1_555 1_555
C4 C5 1_555 1_555
C7 C13 1_555 1_555
C11 C12 1_555 1_555
O5C C18C 1_555 1_555
N2A C6A 1_555 1_555
C4A C5A 1_555 1_555
C5A C6A 1_555 1_555
C7C C13C 1_555 1_555
C11C C12C 1_555 1_555
C11C C18C 1_555 1_555

#END
