
#######################################################################
#
#                 Cambridge Crystallographic Data Centre
#                                CCDC 
#
#######################################################################
#
# If this CIF has been generated from an entry in the Cambridge 
# Structural Database, then it will include bibliographic, chemical, 
# crystal, experimental, refinement or atomic coordinate data resulting 
# from the CCDC's data processing and validation procedures.
#
#######################################################################

data_AMUCAN
_symmetry_cell_setting           triclinic
_symmetry_space_group_name_H-M   'P -1'
_symmetry_Int_Tables_number      2
_space_group_name_Hall           '-P 1'
loop_
_symmetry_equiv_pos_site_id
_symmetry_equiv_pos_as_xyz
1 x,y,z
2 -x,-y,-z
_cell_length_a                   12.9120(18)
_cell_length_b                   14.868(2)
_cell_length_c                   17.797(3)
_cell_angle_alpha                99.296(2)
_cell_angle_beta                 107.664(2)
_cell_angle_gamma                100.141(3)
_cell_volume                     3119.35
loop_
_atom_site_label
_atom_site_type_symbol
_atom_site_fract_x
_atom_site_fract_y
_atom_site_fract_z
Cd1 Cd 0.30953(5) -0.01533(3) 0.26983(3)
Cd2 Cd 0.40471(5) -0.30302(4) -0.24874(3)
O1 O 0.0222(5) -0.1071(4) 0.4430(4)
O2 O 0.4058(4) 0.3381(3) 0.6059(3)
O3 O 0.0066(5) -0.3656(4) -0.5333(4)
O4 O 0.3016(6) -0.0783(4) 0.1396(3)
O5 O 0.2871(5) 0.0665(4) 0.1505(3)
O6 O 0.3838(5) 0.1632(4) -0.0835(3)
H1 H 0.4288 0.1647 -0.1076
O7 O 0.4101(5) -0.1600(4) -0.1868(3)
O8 O 0.3683(5) -0.2470(4) -0.1064(3)
O9 O 0.3908(6) -0.3807(4) 0.6194(3)
O10 O 0.3941(5) -0.2309(4) 0.6399(3)
O11 O 0.3420(5) -0.0765(3) 0.4008(3)
O12 O 0.3188(5) -0.1648(3) 0.2826(3)
O13 O 0.2933(7) -0.4941(4) 0.3219(3)
H2 H 0.2692 -0.4911 0.2744
O14 O 0.4991(5) 0.0358(4) 0.3009(4)
H3 H 0.5134 0.0818 0.3408
H4 H 0.5565 0.0182 0.2916
O15 O 0.5993(5) -0.2564(4) -0.1871(4)
H5 H 0.6305 -0.1990 -0.1641
H6 H 0.6401 -0.2956 -0.1808
N1 N 0.1149(6) -0.0531(4) 0.2497(4)
N2 N -0.1593(7) -0.1417(7) 0.3748(5)
N3 N -0.1449(7) -0.1533(7) 0.4546(6)
N4 N 0.0152(8) -0.1590(6) 0.7040(5)
N5 N 0.3137(5) 0.1301(4) 0.3463(4)
N6 N 0.4113(5) 0.1907(4) 0.6054(4)
N7 N 0.4394(5) 0.2405(4) 0.6858(4)
N8 N 0.4377(5) 0.5614(4) 0.7907(3)
N9 N 0.2028(6) -0.3606(5) -0.2948(4)
N10 N -0.1519(7) -0.4102(6) -0.5121(5)
N11 N -0.1780(7) -0.4029(6) -0.5924(5)
N12 N -0.1468(8) -0.3488(6) -0.8133(5)
C1 C 0.0806(7) -0.0706(5) 0.3095(5)
H9 H 0.1351 -0.0661 0.3591
C2 C 0.0339(9) -0.0618(7) 0.1782(6)
H10 H 0.0556 -0.0500 0.1348
C3 C -0.0797(9) -0.0874(8) 0.1657(6)
H11 H -0.1325 -0.0948 0.1148
C4 C -0.1116(8) -0.1013(7) 0.2295(6)
H12 H -0.1871 -0.1148 0.2237
C5 C -0.0305(7) -0.0954(6) 0.3044(5)
C6 C -0.0613(8) -0.1153(6) 0.3713(6)
C7 C -0.0365(8) -0.1314(6) 0.4936(6)
C8 C 0.0245(8) -0.1327(6) 0.5759(5)
C9 C -0.0341(8) -0.1567(6) 0.6276(6)
H13 H -0.1119 -0.1719 0.6069
C10 C 0.1252(11) -0.1385(7) 0.7307(6)
H14 H 0.1611 -0.1413 0.7839
C11 C 0.1919(9) -0.1133(8) 0.6860(6)
H15 H 0.2695 -0.0989 0.7086
C12 C 0.1395(9) -0.1102(7) 0.6074(6)
H16 H 0.1815 -0.0931 0.5755
C13 C 0.3288(7) 0.3073(5) 0.4349(5)
H17 H 0.3343 0.3668 0.4642
C14 C 0.2901(8) 0.2860(5) 0.3513(5)
H18 H 0.2699 0.3316 0.3235
C15 C 0.2812(7) 0.1973(5) 0.3090(5)
H19 H 0.2517 0.1833 0.2528
C16 C 0.3509(6) 0.1501(5) 0.4270(4)
H20 H 0.3723 0.1036 0.4531
C17 C 0.3595(6) 0.2374(5) 0.4743(4)
C18 C 0.3926(6) 0.2512(5) 0.5608(4)
C19 C 0.4349(6) 0.3249(5) 0.6826(4)
C20 C 0.4527(6) 0.4045(5) 0.7491(4)
C21 C 0.4910(9) 0.3981(6) 0.8281(5)
H21 H 0.5095 0.3434 0.8410
C22 C 0.5021(11) 0.4747(7) 0.8888(5)
H22 H 0.5285 0.4722 0.9430
C23 C 0.4728(9) 0.5551(6) 0.8672(5)
H23 H 0.4782 0.6057 0.9076
C24 C 0.4285(6) 0.4876(5) 0.7324(4)
H24 H 0.4051 0.4927 0.6787
C25 C 0.1369(8) -0.3629(6) -0.3703(5)
H25 H 0.1717 -0.3450 -0.4061
C26 C 0.1512(9) -0.3839(6) -0.2449(6)
H26 H 0.1945 -0.3803 -0.1916
C27 C 0.0364(10) -0.4134(7) -0.2671(6)
H27 H 0.0041 -0.4314 -0.2301
C28 C -0.0300(9) -0.4160(6) -0.3450(6)
H28 H -0.1076 -0.4346 -0.3615
C29 C 0.0238(8) -0.3895(5) -0.3980(5)
C30 C -0.0443(8) -0.3904(6) -0.4811(6)
C31 C -0.0831(8) -0.3755(6) -0.6017(6)
C32 C -0.0640(8) -0.3548(6) -0.6753(6)
C33 C -0.1554(9) -0.3642(8) -0.7430(7)
H29 H -0.2265 -0.3821 -0.7399
C34 C -0.0444(10) -0.3251(8) -0.8168(7)
H30 H -0.0367 -0.3173 -0.8658
C35 C 0.0500(9) -0.3117(8) -0.7508(7)
H31 H 0.1201 -0.2915 -0.7547
C36 C 0.0413(9) -0.3283(7) -0.6773(6)
H32 H 0.1044 -0.3215 -0.6322
C37 C 0.3239(6) -0.0047(5) 0.0349(4)
C38 C 0.3384(6) 0.0779(5) 0.0082(4)
H33 H 0.3268 0.1319 0.0357
C39 C 0.3700(6) 0.0800(5) -0.0592(4)
C40 C 0.3844(6) -0.0008(5) -0.1027(4)
H34 H 0.4045 0.0011 -0.1485
C41 C 0.3685(6) -0.0844(5) -0.0773(4)
C42 C 0.3384(6) -0.0857(5) -0.0080(4)
H35 H 0.3280 -0.1412 0.0094
C43 C 0.3020(7) -0.0055(5) 0.1124(4)
C44 C 0.3846(7) -0.1698(5) -0.1252(4)
C45 C 0.3600(6) -0.3145(5) 0.5043(4)
C46 C 0.3553(6) -0.2332(5) 0.4738(4)
H36 H 0.3644 -0.1758 0.5080
C47 C 0.3368(6) -0.2398(5) 0.3924(4)
C48 C 0.3189(6) -0.3265(5) 0.3408(4)
H37 H 0.3085 -0.3303 0.2862
C49 C 0.3167(7) -0.4073(5) 0.3706(4)
C50 C 0.3388(7) -0.4005(5) 0.4526(5)
H38 H 0.3393 -0.4543 0.4731
C51 C 0.3842(7) -0.3083(6) 0.5938(4)
C52 C 0.3329(6) -0.1551(5) 0.3571(4)
Cd2_2 Cd 0.40471(5) -0.30302(4) 0.75126(3)
Cd2_3 Cd 0.40471(5) 0.69698(4) 0.75126(3)
O9_2 O 0.3908(6) -0.3807(4) -0.3806(3)
O10_2 O 0.3941(5) -0.2309(4) -0.3601(3)
N8_2 N 0.4377(5) -0.4386(4) -0.2093(3)
O16 O 0.6459(5) 0.0107(4) 0.4383(4)
H7 H 0.6220 -0.0485 0.4211
H8 H 0.6548 0.0334 0.4875
O17 O 0.4810(6) 0.8276(4) 0.1708(4)
O18 O 0.3130(7) 0.3290(6) 0.9566(5)
O19 O 0.2382(9) 0.3292(7) 0.0852(6)
O20 O 0.2075(9) 0.5018(7) 0.1621(5)
O21 O 0.3378(15) 0.6699(9) 0.0091(8)
O22 O 0.2291(15) 0.6931(9) 0.1255(9)
O23 O 0.0344(17) 0.2125(15) 0.1542(12)
O24 O 0.918(2) 0.887(2) 0.9571(13)
loop_
_geom_bond_atom_site_label_1
_geom_bond_atom_site_label_2
_geom_bond_site_symmetry_1
_geom_bond_site_symmetry_2
Cd1 O4 1_555 1_555
Cd2 O7 1_555 1_555
O1 C6 1_555 1_555
O2 C18 1_555 1_555
O3 C30 1_555 1_555
O4 C43 1_555 1_555
O5 Cd1 1_555 1_555
O6 H1 1_555 1_555
O7 C44 1_555 1_555
O8 Cd2 1_555 1_555
O9 C51 1_555 1_555
O10 C51 1_555 1_555
O11 Cd1 1_555 1_555
O12 Cd1 1_555 1_555
O13 H2 1_555 1_555
O14 Cd1 1_555 1_555
H3 O14 1_555 1_555
H4 O14 1_555 1_555
O15 Cd2 1_555 1_555
H5 O15 1_555 1_555
H6 O15 1_555 1_555
O16 H7 1_555 1_555
H8 O16 1_555 1_555
N1 Cd1 1_555 1_555
N2 N3 1_555 1_555
N3 C7 1_555 1_555
N4 C9 1_555 1_555
N5 Cd1 1_555 1_555
N6 N7 1_555 1_555
N7 C19 1_555 1_555
N8 C23 1_555 1_555
N9 Cd2 1_555 1_555
N10 N11 1_555 1_555
N11 C31 1_555 1_555
N12 C33 1_555 1_555
C1 N1 1_555 1_555
H9 C1 1_555 1_555
C2 N1 1_555 1_555
H10 C2 1_555 1_555
C3 C2 1_555 1_555
H11 C3 1_555 1_555
C4 C3 1_555 1_555
H12 C4 1_555 1_555
C5 C1 1_555 1_555
C6 N2 1_555 1_555
C7 O1 1_555 1_555
C8 C7 1_555 1_555
C9 C8 1_555 1_555
H13 C9 1_555 1_555
C10 N4 1_555 1_555
H14 C10 1_555 1_555
C11 C10 1_555 1_555
H15 C11 1_555 1_555
C12 C8 1_555 1_555
H16 C12 1_555 1_555
C13 H17 1_555 1_555
C14 C13 1_555 1_555
H18 C14 1_555 1_555
C15 N5 1_555 1_555
H19 C15 1_555 1_555
C16 N5 1_555 1_555
H20 C16 1_555 1_555
C17 C13 1_555 1_555
C18 N6 1_555 1_555
C19 O2 1_555 1_555
C20 C19 1_555 1_555
C21 C20 1_555 1_555
H21 C21 1_555 1_555
C22 C21 1_555 1_555
H22 C22 1_555 1_555
C23 C22 1_555 1_555
H23 C23 1_555 1_555
C24 N8 1_555 1_555
H24 C24 1_555 1_555
C25 N9 1_555 1_555
H25 C25 1_555 1_555
C26 N9 1_555 1_555
H26 C26 1_555 1_555
C27 C26 1_555 1_555
H27 C27 1_555 1_555
C28 C27 1_555 1_555
H28 C28 1_555 1_555
C29 C25 1_555 1_555
C30 N10 1_555 1_555
C31 O3 1_555 1_555
C32 C31 1_555 1_555
C33 C32 1_555 1_555
H29 C33 1_555 1_555
C34 N12 1_555 1_555
H30 C34 1_555 1_555
C35 C34 1_555 1_555
H31 C35 1_555 1_555
C36 C32 1_555 1_555
H32 C36 1_555 1_555
C37 C38 1_555 1_555
C38 H33 1_555 1_555
C39 O6 1_555 1_555
C40 C39 1_555 1_555
H34 C40 1_555 1_555
C41 C40 1_555 1_555
C42 C37 1_555 1_555
H35 C42 1_555 1_555
C43 O5 1_555 1_555
C44 O8 1_555 1_555
C45 C46 1_555 1_555
C46 H36 1_555 1_555
C47 C46 1_555 1_555
C48 C47 1_555 1_555
H37 C48 1_555 1_555
C49 O13 1_555 1_555
C50 C45 1_555 1_555
H38 C50 1_555 1_555
C51 C45 1_555 1_555
C52 O11 1_555 1_555
Cd2_2 O9 1_555 1_555
Cd2_3 N8 1_555 1_555
O9_2 Cd2 1_555 1_555
O10_2 Cd2 1_555 1_555
N8_2 Cd2 1_555 1_555
O10 Cd2_2 1_555 1_555
O12 C52 1_555 1_555
C4 C5 1_555 1_555
C5 C6 1_555 1_555
C11 C12 1_555 1_555
C14 C15 1_555 1_555
C16 C17 1_555 1_555
C17 C18 1_555 1_555
C20 C24 1_555 1_555
C28 C29 1_555 1_555
C29 C30 1_555 1_555
C35 C36 1_555 1_555
C37 C43 1_555 1_555
C38 C39 1_555 1_555
C41 C42 1_555 1_555
C41 C44 1_555 1_555
C47 C52 1_555 1_555
C48 C49 1_555 1_555
C49 C50 1_555 1_555

#END
