
#######################################################################
#
#                 Cambridge Crystallographic Data Centre
#                                CCDC 
#
#######################################################################
#
# If this CIF has been generated from an entry in the Cambridge 
# Structural Database, then it will include bibliographic, chemical, 
# crystal, experimental, refinement or atomic coordinate data resulting 
# from the CCDC's data processing and validation procedures.
#
#######################################################################

data_AMUCER
_symmetry_cell_setting           triclinic
_symmetry_space_group_name_H-M   'P -1'
_symmetry_Int_Tables_number      2
_space_group_name_Hall           '-P 1'
loop_
_symmetry_equiv_pos_site_id
_symmetry_equiv_pos_as_xyz
1 x,y,z
2 -x,-y,-z
_cell_length_a                   10.2623(6)
_cell_length_b                   10.8870(6)
_cell_length_c                   10.9849(7)
_cell_angle_alpha                70.711(1)
_cell_angle_beta                 73.583(1)
_cell_angle_gamma                70.180(1)
_cell_volume                     1069.47
loop_
_atom_site_label
_atom_site_type_symbol
_atom_site_fract_x
_atom_site_fract_y
_atom_site_fract_z
Cd1 Cd 0.413647(19) 0.43005(2) 0.40551(2)
O1 O 0.0490(2) 0.1324(2) 0.7396(2)
O2 O 0.6353(2) 0.3672(3) 0.3019(3)
O3 O 0.6694(3) 0.4649(3) 0.4291(3)
O4 O 1.1783(2) 0.4396(2) 0.4100(2)
O5 O 1.3434(2) 0.3495(3) 0.2625(3)
O6 O 1.2061(3) 0.2544(3) -0.0813(3)
O7 O 0.9871(3) 0.3230(3) -0.0976(2)
N1 N 0.4316(3) 0.2202(3) 0.5623(3)
N2 N 0.1441(3) -0.0740(3) 0.8504(3)
N3 N -0.0038(3) -0.0484(3) 0.8824(3)
N4 N -0.3716(3) 0.3493(3) 0.7336(3)
N5 N 1.0807(3) 0.3012(3) -0.0399(3)
C1 C 0.3114(3) 0.1896(3) 0.6264(3)
H1 H 0.2273 0.2578 0.6200
C2 C 0.5513(3) 0.1224(4) 0.5762(4)
H2 H 0.6364 0.1428 0.5329
C3 C 0.5546(4) -0.0069(4) 0.6517(4)
H3 H 0.6406 -0.0717 0.6597
C4 C 0.4305(4) -0.0402(3) 0.7151(4)
H4 H 0.4304 -0.1277 0.7650
C5 C 0.3050(3) 0.0613(3) 0.7024(3)
C6 C 0.1693(3) 0.0336(3) 0.7675(3)
C7 C -0.0536(3) 0.0728(3) 0.8165(3)
C8 C -0.2009(3) 0.1485(3) 0.8164(3)
C9 C -0.3076(4) 0.0925(4) 0.9014(4)
H5 H -0.2864 0.0068 0.9585
C10 C -0.4448(4) 0.1674(4) 0.8983(4)
H6 H -0.5185 0.1323 0.9528
C11 C -0.4727(4) 0.2945(4) 0.8141(4)
H7 H -0.5663 0.3443 0.8133
C12 C -0.2379(3) 0.2760(3) 0.7354(3)
H8 H -0.1664 0.3133 0.6790
C13 C 0.8636(3) 0.3876(3) 0.2701(3)
C14 C 0.9015(3) 0.3540(3) 0.1507(3)
H9 H 0.8341 0.3467 0.1139
C15 C 1.0410(3) 0.3319(3) 0.0882(3)
C16 C 1.1447(3) 0.3391(3) 0.1412(3)
H10 H 1.2386 0.3207 0.0984
C17 C 1.1056(3) 0.3743(3) 0.2594(3)
C18 C 0.9654(3) 0.4008(3) 0.3228(3)
H11 H 0.9392 0.4274 0.4005
C19 C 0.7124(3) 0.4084(3) 0.3399(3)
C20 C 1.2170(3) 0.3885(3) 0.3150(3)
Cd1_2 Cd -0.586353(19) 0.43005(2) 0.40551(2)
Cd1A Cd 0.586353(19) 0.56995(2) 0.59449(2)
Cd1_3 Cd 1.413647(19) 0.43005(2) 0.40551(2)
Cd1A_2 Cd -0.413647(19) 0.56995(2) 0.59449(2)
O1A O -0.0490(2) 0.8676(2) 0.2604(2)
O2_2 O -0.3647(2) 0.3672(3) 0.3019(3)
O3_2 O -0.3306(3) 0.4649(3) 0.4291(3)
O3A O 0.3306(3) 0.5351(3) 0.5709(3)
O3A_2 O -0.6694(3) 0.5351(3) 0.5709(3)
O4_2 O 0.1783(2) 0.4396(2) 0.4100(2)
O4_3 O -0.8217(2) 0.4396(2) 0.4100(2)
O5_2 O 0.3434(2) 0.3495(3) 0.2625(3)
O5_3 O -0.6566(2) 0.3495(3) 0.2625(3)
O6_2 O 0.2061(3) 0.2544(3) -0.0813(3)
O7_2 O -0.0129(3) 0.3230(3) -0.0976(2)
N1A N -0.4316(3) 0.7798(3) 0.4377(3)
N1_2 N -0.5684(3) 0.2202(3) 0.5623(3)
N2A N -0.1441(3) 1.0740(3) 0.1496(3)
N3A N 0.0038(3) 1.0484(3) 0.1176(3)
N4A N 0.3716(3) 0.6507(3) 0.2664(3)
N4A_2 N -0.6284(3) 0.6507(3) 0.2664(3)
N5_2 N 0.0807(3) 0.3012(3) -0.0399(3)
C1A C -0.3114(3) 0.8104(3) 0.3736(3)
H1A H -0.2273 0.7422 0.3800
C2A C -0.5513(3) 0.8776(4) 0.4238(4)
H2A H -0.6364 0.8572 0.4671
C3A C -0.5546(4) 1.0069(4) 0.3483(4)
H3A H -0.6406 1.0717 0.3403
C4A C -0.4305(4) 1.0402(3) 0.2849(4)
H4A H -0.4304 1.1277 0.2350
C5A C -0.3050(3) 0.9387(3) 0.2976(3)
C6A C -0.1693(3) 0.9664(3) 0.2325(3)
C7A C 0.0536(3) 0.9272(3) 0.1835(3)
C8A C 0.2009(3) 0.8515(3) 0.1836(3)
C9A C 0.3076(4) 0.9075(4) 0.0986(4)
H5A H 0.2864 0.9932 0.0415
C10A C 0.4448(4) 0.8326(4) 0.1017(4)
H6A H 0.5185 0.8677 0.0472
C11A C 0.4727(4) 0.7055(4) 0.1859(4)
H7A H 0.5663 0.6557 0.1867
C12A C 0.2379(3) 0.7240(3) 0.2646(3)
H8A H 0.1664 0.6867 0.3210
C13_2 C -0.1364(3) 0.3876(3) 0.2701(3)
C14_2 C -0.0985(3) 0.3540(3) 0.1507(3)
H9_2 H -0.1659 0.3467 0.1139
C15_2 C 0.0410(3) 0.3319(3) 0.0882(3)
C16_2 C 0.1447(3) 0.3391(3) 0.1412(3)
H10_2 H 0.2386 0.3207 0.0984
C17_2 C 0.1056(3) 0.3743(3) 0.2594(3)
C18_2 C -0.0346(3) 0.4008(3) 0.3228(3)
H11_2 H -0.0608 0.4274 0.4005
C19_2 C -0.2876(3) 0.4084(3) 0.3399(3)
C20_2 C 0.2170(3) 0.3885(3) 0.3150(3)
O9 O 0.0000 1.0000 0.5000
O8? O 0.4280(14) 0.5344(15) 0.9818(14)
loop_
_geom_bond_atom_site_label_1
_geom_bond_atom_site_label_2
_geom_bond_site_symmetry_1
_geom_bond_site_symmetry_2
Cd1 O2 1_555 1_555
O1 C6 1_555 1_555
O2 C19 1_555 1_555
O3 Cd1 1_555 1_555
O4 C20 1_555 1_555
O5 C20 1_555 1_555
O6 N5 1_555 1_555
O7 N5 1_555 1_555
N1 Cd1 1_555 1_555
N2 N3 1_555 1_555
N3 C7 1_555 1_555
N4 C11 1_555 1_555
N5 C15 1_555 1_555
C1 N1 1_555 1_555
H1 C1 1_555 1_555
C2 N1 1_555 1_555
H2 C2 1_555 1_555
C3 C2 1_555 1_555
H3 C3 1_555 1_555
C4 C3 1_555 1_555
H4 C4 1_555 1_555
C5 C1 1_555 1_555
C6 N2 1_555 1_555
C7 O1 1_555 1_555
C8 C7 1_555 1_555
C9 C8 1_555 1_555
H5 C9 1_555 1_555
C10 C9 1_555 1_555
H6 C10 1_555 1_555
C11 C10 1_555 1_555
H7 C11 1_555 1_555
C12 N4 1_555 1_555
H8 C12 1_555 1_555
C13 C14 1_555 1_555
C14 H9 1_555 1_555
C15 C14 1_555 1_555
C16 C15 1_555 1_555
H10 C16 1_555 1_555
C17 C16 1_555 1_555
C18 C13 1_555 1_555
H11 C18 1_555 1_555
C19 O3 1_555 1_555
C20 C17 1_555 1_555
Cd1_2 O2_2 1_555 1_555
Cd1A O3 1_555 1_555
Cd1_3 O4 1_555 1_555
Cd1A_2 N4 1_555 1_555
O1A C6A 1_555 1_555
O2_2 C19_2 1_555 1_555
O3_2 Cd1_2 1_555 1_555
O3A Cd1 1_555 1_555
O3A_2 Cd1_2 1_555 1_555
O4_2 Cd1 1_555 1_555
O4_3 Cd1_2 1_555 1_555
O5_2 Cd1 1_555 1_555
O5_3 Cd1_2 1_555 1_555
O6_2 N5_2 1_555 1_555
O7_2 N5_2 1_555 1_555
N1A Cd1A_2 1_555 1_555
N1_2 Cd1_2 1_555 1_555
N2A N3A 1_555 1_555
N3A C7A 1_555 1_555
N4A Cd1 1_555 1_555
N4A_2 Cd1_2 1_555 1_555
N5_2 C15_2 1_555 1_555
C1A N1A 1_555 1_555
H1A C1A 1_555 1_555
C2A N1A 1_555 1_555
H2A C2A 1_555 1_555
C3A C2A 1_555 1_555
H3A C3A 1_555 1_555
C4A C3A 1_555 1_555
H4A C4A 1_555 1_555
C5A C1A 1_555 1_555
C6A N2A 1_555 1_555
C7A O1A 1_555 1_555
C8A C7A 1_555 1_555
C9A C8A 1_555 1_555
H5A C9A 1_555 1_555
C10A C9A 1_555 1_555
H6A C10A 1_555 1_555
C11A N4A 1_555 1_555
H7A C11A 1_555 1_555
C12A N4A 1_555 1_555
H8A C12A 1_555 1_555
C13_2 C14_2 1_555 1_555
C14_2 H9_2 1_555 1_555
C15_2 C14_2 1_555 1_555
C16_2 C15_2 1_555 1_555
H10_2 C16_2 1_555 1_555
C17_2 C16_2 1_555 1_555
C18_2 C13_2 1_555 1_555
H11_2 C18_2 1_555 1_555
C19_2 O3_2 1_555 1_555
C20_2 O4_2 1_555 1_555
O5 Cd1_3 1_555 1_555
C4 C5 1_555 1_555
C5 C6 1_555 1_555
C8 C12 1_555 1_555
C13 C19 1_555 1_555
C17 C18 1_555 1_555
Cd1A O3A 1_555 1_555
Cd1A_2 O3_2 1_555 1_555
Cd1A_2 O3A_2 1_555 1_555
O5_2 C20_2 1_555 1_555
C4A C5A 1_555 1_555
C5A C6A 1_555 1_555
C8A C12A 1_555 1_555
C10A C11A 1_555 1_555
C13_2 C19_2 1_555 1_555
C17_2 C18_2 1_555 1_555
C17_2 C20_2 1_555 1_555

#END
