
#######################################################################
#
#                 Cambridge Crystallographic Data Centre
#                                CCDC 
#
#######################################################################
#
# If this CIF has been generated from an entry in the Cambridge 
# Structural Database, then it will include bibliographic, chemical, 
# crystal, experimental, refinement or atomic coordinate data resulting 
# from the CCDC's data processing and validation procedures.
#
#######################################################################

data_AMULOK
_symmetry_cell_setting           monoclinic
_symmetry_space_group_name_H-M   'P 21/c'
_symmetry_Int_Tables_number      14
_space_group_name_Hall           '-P 2ybc'
loop_
_symmetry_equiv_pos_site_id
_symmetry_equiv_pos_as_xyz
1 x,y,z
2 -x,1/2+y,1/2-z
3 -x,-y,-z
4 x,1/2-y,1/2+z
_cell_length_a                   14.071(2)
_cell_length_b                   14.370(2)
_cell_length_c                   9.4824(15)
_cell_angle_alpha                90
_cell_angle_beta                 109.072(2)
_cell_angle_gamma                90
_cell_volume                     1812.1
loop_
_atom_site_label
_atom_site_type_symbol
_atom_site_fract_x
_atom_site_fract_y
_atom_site_fract_z
C1 C 0.6557(2) 0.3304(2) 0.0071(4)
H1 H 0.6098 0.3153 -0.0856
C2 C 0.7422(3) 0.2774(2) 0.0630(4)
H2 H 0.7527 0.2267 0.0088
C3 C 0.8117(2) 0.2989(2) 0.1961(3)
H3 H 0.8698 0.2634 0.2329
C4 C 0.7955(2) 0.3756(2) 0.2790(3)
C5 C 0.7036(2) 0.4249(2) 0.2160(3)
C6 C 0.8626(2) 0.4047(2) 0.4209(3)
C7 C 0.8335(2) 0.4775(2) 0.4914(4)
H4 H 0.8763 0.4955 0.5848
C8 C 0.7434(2) 0.5259(2) 0.4307(4)
H5 H 0.7283 0.5749 0.4839
C9 C 0.6758(2) 0.5022(2) 0.2921(3)
C10 C 0.9604(2) 0.3613(2) 0.4968(3)
H6 H 0.9944 0.3791 0.5946
C11 C 1.1504(2) 0.2156(2) 0.4714(4)
C12 C 1.2531(2) 0.1908(2) 0.5749(3)
C13 C 1.2994(3) 0.2323(3) 0.7120(4)
H7 H 1.2655 0.2770 0.7483
C14 C 1.3962(3) 0.2069(3) 0.7940(4)
H8 H 1.4278 0.2324 0.8879
C15 C 1.4447(2) 0.1434(3) 0.7345(4)
H9 H 1.5105 0.1274 0.7893
C16 C 1.3080(2) 0.1264(2) 0.5264(4)
H10 H 1.2771 0.0973 0.4353
Cd1 Cd 1.5000 0.0000 0.5000
N1 N 0.63657(18) 0.40129(18) 0.0810(3)
N2 N 1.40270(19) 0.1030(2) 0.6017(3)
N3 N 1.00128(19) 0.3013(2) 0.4381(3)
N4 N 1.09495(19) 0.2695(2) 0.5293(3)
O1 O 0.59121(15) 0.54617(16) 0.2329(2)
O2 O 1.12201(17) 0.18948(18) 0.3408(2)
H19 H 1.1108 0.2790 0.6229
C1B C 2.3443(2) -0.3304(2) 0.9929(4)
H1B H 2.3902 -0.3153 1.0856
C2B C 2.2578(3) -0.2774(2) 0.9370(4)
H2B H 2.2473 -0.2267 0.9912
C3B C 2.1883(2) -0.2989(2) 0.8039(3)
H3B H 2.1302 -0.2634 0.7671
C4B C 2.2045(2) -0.3756(2) 0.7210(3)
C5B C 2.2964(2) -0.4249(2) 0.7840(3)
C6B C 2.1374(2) -0.4047(2) 0.5791(3)
C7B C 2.1665(2) -0.4775(2) 0.5086(4)
H4B H 2.1237 -0.4955 0.4152
C8B C 2.2566(2) -0.5259(2) 0.5693(4)
H5B H 2.2717 -0.5749 0.5161
C9B C 2.3242(2) -0.5022(2) 0.7079(3)
C10B C 2.0396(2) -0.3613(2) 0.5032(3)
H6B H 2.0056 -0.3791 0.4054
C11B C 1.8496(2) -0.2156(2) 0.5286(4)
C12B C 1.7469(2) -0.1908(2) 0.4251(3)
C13B C 1.7006(3) -0.2323(3) 0.2880(4)
H7B H 1.7345 -0.2770 0.2517
C14B C 1.6038(3) -0.2069(3) 0.2060(4)
H8B H 1.5722 -0.2324 0.1121
C15B C 1.5553(2) -0.1434(3) 0.2655(4)
H9B H 1.4895 -0.1274 0.2107
C16B C 1.6920(2) -0.1264(2) 0.4736(4)
H10B H 1.7229 -0.0973 0.5647
Cd1A Cd 0.5000 0.5000 0.0000
Cd1A_2 Cd 2.5000 -0.5000 1.0000
N1B N 2.36343(18) -0.40129(18) 0.9190(3)
N1A N 1.36343(18) -0.09871(18) 0.4190(3)
N1C N 1.63657(18) 0.09871(18) 0.5810(3)
N2B N 1.59730(19) -0.1030(2) 0.3983(3)
N3B N 1.99872(19) -0.3013(2) 0.5619(3)
N4B N 1.90505(19) -0.2695(2) 0.4707(3)
O1B O 2.40879(15) -0.54617(16) 0.7671(2)
O1A O 1.40879(15) 0.04617(16) 0.2671(2)
O1C O 1.59121(15) -0.04617(16) 0.7329(2)
O2B O 1.87799(17) -0.18948(18) 0.6592(2)
H19B H 1.8892 -0.2790 0.3771
C17 C 0.9812(4) 0.0553(4) 0.6055(5)
H11 H 0.9792 0.1164 0.6479
H12 H 0.9562 0.0105 0.6614
C18 C 0.9163(4) 0.0546(4) 0.4486(5)
H13 H 0.8478 0.0691 0.4430
H14 H 0.9387 0.1024 0.3942
O4 O 0.9182(2) -0.0329(2) 0.3811(3)
C17B C 1.0188(4) -0.0553(4) 0.3945(5)
H11B H 1.0208 -0.1164 0.3521
H12B H 1.0438 -0.0105 0.3386
C18B C 1.0837(4) -0.0546(4) 0.5514(5)
H13B H 1.1522 -0.0691 0.5570
H14B H 1.0613 -0.1024 0.6058
O4B O 1.0818(2) 0.0329(2) 0.6189(3)
C19 C 0.6006(4) 0.0848(4) 0.1326(6)
H15 H 0.6372 0.1114 0.0728
H16 H 0.5701 0.0274 0.0885
H17 H 0.6459 0.0730 0.2314
O3 O 0.5265(2) 0.1463(2) 0.1400(4)
H18 H 0.4824 0.1177 0.1608
loop_
_geom_bond_atom_site_label_1
_geom_bond_atom_site_label_2
_geom_bond_site_symmetry_1
_geom_bond_site_symmetry_2
C1 H1 1_555 1_555
C2 C1 1_555 1_555
H2 C2 1_555 1_555
C3 C2 1_555 1_555
H3 C3 1_555 1_555
C4 C3 1_555 1_555
C5 C4 1_555 1_555
C6 C4 1_555 1_555
C7 C6 1_555 1_555
H4 C7 1_555 1_555
C8 C7 1_555 1_555
H5 C8 1_555 1_555
C9 C5 1_555 1_555
C10 C6 1_555 1_555
H6 C10 1_555 1_555
C11 C12 1_555 1_555
C12 C13 1_555 1_555
C13 H7 1_555 1_555
C14 C13 1_555 1_555
H8 C14 1_555 1_555
C15 C14 1_555 1_555
H9 C15 1_555 1_555
C16 C12 1_555 1_555
H10 C16 1_555 1_555
C17 H11 1_555 1_555
H12 C17 1_555 1_555
C18 C17 1_555 1_555
H13 C18 1_555 1_555
H14 C18 1_555 1_555
C19 H15 1_555 1_555
H16 C19 1_555 1_555
H17 C19 1_555 1_555
Cd1 N2 1_555 1_555
N1 C1 1_555 1_555
N2 C15 1_555 1_555
N3 C10 1_555 1_555
N4 C11 1_555 1_555
O1 C9 1_555 1_555
O2 C11 1_555 1_555
O3 C19 1_555 1_555
H18 O3 1_555 1_555
O4 C18 1_555 1_555
H19 N4 1_555 1_555
C1B H1B 1_555 1_555
C2B C1B 1_555 1_555
H2B C2B 1_555 1_555
C3B C2B 1_555 1_555
H3B C3B 1_555 1_555
C4B C3B 1_555 1_555
C5B C4B 1_555 1_555
C6B C4B 1_555 1_555
C7B C6B 1_555 1_555
H4B C7B 1_555 1_555
C8B C7B 1_555 1_555
H5B C8B 1_555 1_555
C9B C5B 1_555 1_555
C10B C6B 1_555 1_555
H6B C10B 1_555 1_555
C11B C12B 1_555 1_555
C12B C13B 1_555 1_555
C13B H7B 1_555 1_555
C14B C13B 1_555 1_555
H8B C14B 1_555 1_555
C15B C14B 1_555 1_555
H9B C15B 1_555 1_555
C16B C12B 1_555 1_555
H10B C16B 1_555 1_555
C17B O4 1_555 1_555
H11B C17B 1_555 1_555
H12B C17B 1_555 1_555
C18B C17B 1_555 1_555
H13B C18B 1_555 1_555
H14B C18B 1_555 1_555
Cd1A N1 1_555 1_555
Cd1A_2 N1B 1_555 1_555
N1B C1B 1_555 1_555
N1A Cd1 1_555 1_555
N1C Cd1 1_555 1_555
N2B Cd1 1_555 1_555
N3B C10B 1_555 1_555
N4B C11B 1_555 1_555
O1B C9B 1_555 1_555
O1A Cd1 1_555 1_555
O1C Cd1 1_555 1_555
O2B C11B 1_555 1_555
O4B C17 1_555 1_555
H19B N4B 1_555 1_555
C5 N1 1_555 1_555
C8 C9 1_555 1_555
C16 N2 1_555 1_555
N3 N4 1_555 1_555
O1 Cd1A 1_555 1_555
C5B N1B 1_555 1_555
C8B C9B 1_555 1_555
C15B N2B 1_555 1_555
C16B N2B 1_555 1_555
C18B O4B 1_555 1_555
Cd1A_2 O1B 1_555 1_555
N3B N4B 1_555 1_555

#END
