
#######################################################################
#
#                 Cambridge Crystallographic Data Centre
#                                CCDC 
#
#######################################################################
#
# If this CIF has been generated from an entry in the Cambridge 
# Structural Database, then it will include bibliographic, chemical, 
# crystal, experimental, refinement or atomic coordinate data resulting 
# from the CCDC's data processing and validation procedures.
#
#######################################################################

data_AMULUQ
_symmetry_cell_setting           monoclinic
_symmetry_space_group_name_H-M   'P 21/c'
_symmetry_Int_Tables_number      14
_space_group_name_Hall           '-P 2ybc'
loop_
_symmetry_equiv_pos_site_id
_symmetry_equiv_pos_as_xyz
1 x,y,z
2 -x,1/2+y,1/2-z
3 -x,-y,-z
4 x,1/2-y,1/2+z
_cell_length_a                   14.065(2)
_cell_length_b                   14.593(2)
_cell_length_c                   9.6737(14)
_cell_angle_alpha                90
_cell_angle_beta                 109.441(2)
_cell_angle_gamma                90
_cell_volume                     1872.33
loop_
_atom_site_label
_atom_site_type_symbol
_atom_site_fract_x
_atom_site_fract_y
_atom_site_fract_z
C1 C 0.9520(3) -0.3569(3) -0.2782(4)
H1 H 1.0171 -0.3773 -0.2737
C2 C 0.9061(3) -0.2901(3) -0.3777(4)
H2 H 0.9383 -0.2659 -0.4419
C3 C 0.8127(3) -0.2587(3) -0.3832(4)
H3 H 0.7806 -0.2107 -0.4483
C4 C 0.7661(2) -0.2983(2) -0.2919(4)
C5 C 0.8175(3) -0.3659(2) -0.1965(4)
H4 H 0.7859 -0.3934 -0.1341
C6 C 0.6641(2) -0.2711(2) -0.2878(4)
C7 C 0.4691(3) -0.1397(3) -0.5147(4)
H5 H 0.5037 -0.1250 -0.5810
C8 C 0.3692(2) -0.0993(2) -0.5407(3)
C9 C 0.3416(3) -0.0298(3) -0.6426(4)
H6 H 0.3873 -0.0128 -0.6917
C10 C 0.2499(3) 0.0171(2) -0.6776(4)
H7 H 0.2350 0.0641 -0.7496
C11 C 0.1805(3) -0.0038(2) -0.6093(4)
C12 C 0.2069(2) -0.0776(2) -0.5022(3)
C13 C 0.2995(2) -0.1261(2) -0.4689(3)
C14 C 0.3153(3) -0.1994(2) -0.3688(4)
H8 H 0.3756 -0.2345 -0.3442
C15 C 0.2430(3) -0.2197(3) -0.3072(4)
H9 H 0.2522 -0.2697 -0.2413
C16 C 0.1561(3) -0.1667(2) -0.3418(4)
H10 H 0.1078 -0.1803 -0.2955
Cd1 Cd 1.0000 -0.5000 0.0000
N1 N 0.1379(2) -0.09851(18) -0.4359(3)
N2 N 0.5122(2) -0.1934(2) -0.4080(3)
N3 N 0.6067(2) -0.2223(2) -0.4030(3)
H20 H 0.6292 -0.2089 -0.4752
N4 N 0.9095(2) -0.3945(2) -0.1874(3)
O1 O 0.09498(16) 0.03951(17) -0.6380(3)
O2 O 0.63659(19) -0.29291(19) -0.1840(3)
C1B C 1.0480(3) -0.6431(3) 0.2782(4)
H1B H 0.9829 -0.6227 0.2737
C2B C 1.0939(3) -0.7099(3) 0.3777(4)
H2B H 1.0617 -0.7341 0.4419
C3B C 1.1873(3) -0.7413(3) 0.3832(4)
H3B H 1.2194 -0.7893 0.4483
C4B C 1.2339(2) -0.7017(2) 0.2919(4)
C5B C 1.1825(3) -0.6341(2) 0.1965(4)
H4B H 1.2141 -0.6066 0.1341
C6B C 1.3359(2) -0.7289(2) 0.2878(4)
C7B C 1.5309(3) -0.8603(3) 0.5147(4)
H5B H 1.4963 -0.8750 0.5810
C8B C 1.6308(2) -0.9007(2) 0.5407(3)
C9B C 1.6584(3) -0.9702(3) 0.6426(4)
H6B H 1.6127 -0.9872 0.6917
C10B C 1.7501(3) -1.0171(2) 0.6776(4)
H7B H 1.7650 -1.0641 0.7496
C11B C 1.8195(3) -0.9962(2) 0.6093(4)
C12B C 1.7931(2) -0.9224(2) 0.5022(3)
C13B C 1.7005(2) -0.8739(2) 0.4689(3)
C14B C 1.6847(3) -0.8006(2) 0.3688(4)
H8B H 1.6244 -0.7655 0.3442
C15B C 1.7570(3) -0.7803(3) 0.3072(4)
H9B H 1.7478 -0.7303 0.2413
C16B C 1.8439(3) -0.8333(2) 0.3418(4)
H10B H 1.8922 -0.8197 0.2955
Cd1A Cd 0.0000 0.0000 -0.5000
Cd1A_2 Cd 2.0000 -1.0000 0.5000
N1A N 0.8621(2) -0.59851(18) -0.0641(3)
N1C N 1.1379(2) -0.40149(18) 0.0641(3)
N1B N 1.8621(2) -0.90149(18) 0.4359(3)
N2B N 1.4878(2) -0.8066(2) 0.4080(3)
N3B N 1.3933(2) -0.7777(2) 0.4030(3)
H20B H 1.3708 -0.7911 0.4752
N4B N 1.0905(2) -0.6055(2) 0.1874(3)
O1A O 0.90502(16) -0.46049(17) 0.1380(3)
O1C O 1.09498(16) -0.53951(17) -0.1380(3)
O1B O 1.90502(16) -1.03951(17) 0.6380(3)
O2B O 1.36341(19) -0.70709(19) 0.1840(3)
C17 C -0.0992(4) -0.9205(3) -0.9655(5)
H11 H -0.1390 -0.9373 -0.9032
H12 H -0.0727 -0.9761 -0.9963
H13 H -0.1421 -0.8876 -1.0521
O3 O -0.0195(2) -0.8645(2) -0.8871(3)
H21 H 0.0228 -0.8955 -0.8219
C18 C -0.5102(8) -0.5730(5) -0.4090(9)
H14 H -0.5312 -0.6355 -0.3915
H15 H -0.4774 -0.5423 -0.3137
C19 C -0.6010(6) -0.5161(7) -0.5087(14)
H16 H -0.6207 -0.5366 -0.6120
H17 H -0.6600 -0.5210 -0.4750
C20 C -0.4374(7) -0.5751(5) -0.5073(13)
H18 H -0.4757 -0.5892 -0.6110
H19 H -0.3826 -0.6204 -0.4694
C18B C -0.4898(8) -0.4270(5) -0.5910(9)
H14B H -0.4688 -0.3645 -0.6085
H15B H -0.5226 -0.4577 -0.6863
C19B C -0.3990(6) -0.4839(7) -0.4913(14)
H16B H -0.3793 -0.4634 -0.3880
H17B H -0.3400 -0.4790 -0.5250
C20B C -0.5626(7) -0.4249(5) -0.4927(13)
H18B H -0.5243 -0.4108 -0.3890
H19B H -0.6174 -0.3796 -0.5306
loop_
_geom_bond_atom_site_label_1
_geom_bond_atom_site_label_2
_geom_bond_site_symmetry_1
_geom_bond_site_symmetry_2
C1 H1 1_555 1_555
C2 C1 1_555 1_555
H2 C2 1_555 1_555
C3 C2 1_555 1_555
H3 C3 1_555 1_555
C4 C3 1_555 1_555
C5 C4 1_555 1_555
H4 C5 1_555 1_555
C6 C4 1_555 1_555
C7 H5 1_555 1_555
C8 C7 1_555 1_555
C9 C8 1_555 1_555
H6 C9 1_555 1_555
C10 C9 1_555 1_555
H7 C10 1_555 1_555
C11 C10 1_555 1_555
C12 C11 1_555 1_555
C13 C8 1_555 1_555
C14 C13 1_555 1_555
H8 C14 1_555 1_555
C15 C14 1_555 1_555
H9 C15 1_555 1_555
C16 C15 1_555 1_555
H10 C16 1_555 1_555
C17 H11 1_555 1_555
H12 C17 1_555 1_555
H13 C17 1_555 1_555
C18 H14 1_555 1_555
H15 C18 1_555 1_555
C19 C18 1_555 1_555
H16 C19 1_555 1_555
H17 C19 1_555 1_555
C20 C18 1_555 1_555
H18 C20 1_555 1_555
H19 C20 1_555 1_555
Cd1 N4 1_555 1_555
N1 C12 1_555 1_555
N2 C7 1_555 1_555
N3 C6 1_555 1_555
H20 N3 1_555 1_555
N4 C1 1_555 1_555
O1 C11 1_555 1_555
O2 C6 1_555 1_555
O3 C17 1_555 1_555
H21 O3 1_555 1_555
C1B H1B 1_555 1_555
C2B C1B 1_555 1_555
H2B C2B 1_555 1_555
C3B C2B 1_555 1_555
H3B C3B 1_555 1_555
C4B C3B 1_555 1_555
C5B C4B 1_555 1_555
H4B C5B 1_555 1_555
C6B C4B 1_555 1_555
C7B H5B 1_555 1_555
C8B C7B 1_555 1_555
C9B C8B 1_555 1_555
H6B C9B 1_555 1_555
C10B C9B 1_555 1_555
H7B C10B 1_555 1_555
C11B C10B 1_555 1_555
C12B C11B 1_555 1_555
C13B C8B 1_555 1_555
C14B C13B 1_555 1_555
H8B C14B 1_555 1_555
C15B C14B 1_555 1_555
H9B C15B 1_555 1_555
C16B C15B 1_555 1_555
H10B C16B 1_555 1_555
C18B H14B 1_555 1_555
H15B C18B 1_555 1_555
C19B C20 1_555 1_555
H16B C19B 1_555 1_555
H17B C19B 1_555 1_555
C20B C19 1_555 1_555
H18B C20B 1_555 1_555
H19B C20B 1_555 1_555
Cd1A N1 1_555 1_555
Cd1A_2 N1B 1_555 1_555
N1A Cd1 1_555 1_555
N1C Cd1 1_555 1_555
N1B C12B 1_555 1_555
N2B C7B 1_555 1_555
N3B C6B 1_555 1_555
H20B N3B 1_555 1_555
N4B Cd1 1_555 1_555
O1A Cd1 1_555 1_555
O1C Cd1 1_555 1_555
O1B C11B 1_555 1_555
O2B C6B 1_555 1_555
C5 N4 1_555 1_555
C12 C13 1_555 1_555
C16 N1 1_555 1_555
N2 N3 1_555 1_555
O1 Cd1A 1_555 1_555
C1B N4B 1_555 1_555
C5B N4B 1_555 1_555
C12B C13B 1_555 1_555
C16B N1B 1_555 1_555
C18B C19B 1_555 1_555
C18B C20B 1_555 1_555
Cd1A_2 O1B 1_555 1_555
N2B N3B 1_555 1_555

#END
