
#######################################################################
#
#                 Cambridge Crystallographic Data Centre
#                                CCDC 
#
#######################################################################
#
# If this CIF has been generated from an entry in the Cambridge 
# Structural Database, then it will include bibliographic, chemical, 
# crystal, experimental, refinement or atomic coordinate data resulting 
# from the CCDC's data processing and validation procedures.
#
#######################################################################

data_AMULOX10
_symmetry_cell_setting           monoclinic
_symmetry_space_group_name_H-M   'P 21/n'
_symmetry_Int_Tables_number      14
_space_group_name_Hall           '-P 2yn'
loop_
_symmetry_equiv_pos_site_id
_symmetry_equiv_pos_as_xyz
1 x,y,z
2 1/2-x,1/2+y,1/2-z
3 -x,-y,-z
4 1/2+x,1/2-y,1/2+z
_cell_length_a                   9.46(2)
_cell_length_b                   13.61(2)
_cell_length_c                   6.12(1)
_cell_angle_alpha                90
_cell_angle_beta                 92.7(1)
_cell_angle_gamma                90
_cell_volume                     787.079
loop_
_atom_site_label
_atom_site_type_symbol
_atom_site_fract_x
_atom_site_fract_y
_atom_site_fract_z
C1 C 0.09600 0.31700 0.54000
C2 C 0.13800 0.40300 0.44500
C3 C 0.00200 -0.00800 1.12800
O1 O -0.11400 0.24800 0.99200
O2 O 0.24100 0.20600 1.16900
O3 O 0.01040 0.06700 1.23500
O4 O -0.03100 -0.09800 1.18700
O5 O 0.09300 0.32200 0.77800
O6 O 0.11200 0.38700 0.23500
O7 O 0.19300 0.47900 0.50600
O8 O 0.06300 0.23400 0.46800
U1 U 0.06390 0.22650 1.08810
C3B C -0.00200 0.00800 0.87200
O3B O -0.01040 -0.06700 0.76500
O4B O 0.03100 0.09800 0.81300
C1_2 C 0.09600 0.31700 1.54000
C2_2 C 0.13800 0.40300 1.44500
O5_2 O 0.09300 0.32200 1.77800
O6_2 O 0.11200 0.38700 1.23500
O7_2 O 0.19300 0.47900 1.50600
O8_2 O 0.06300 0.23400 1.46800
U1B U -0.06390 -0.22650 0.91190
U1_2 U 0.06390 0.22650 2.08810
U1_3 U 0.06390 0.22650 0.08810
O1B O 0.11400 -0.24800 1.00800
O2B O -0.24100 -0.20600 0.83100
O5B O -0.09300 -0.32200 1.22200
O6B O -0.11200 -0.38700 0.76500
O8B O -0.06300 -0.23400 0.53200
N1 N 0.23200 0.53000 0.96500
loop_
_geom_bond_atom_site_label_1
_geom_bond_atom_site_label_2
_geom_bond_site_symmetry_1
_geom_bond_site_symmetry_2
C1 C2 1_555 1_555
C2 O6 1_555 1_555
C3 O3 1_555 1_555
O1 U1 1_555 1_555
O2 U1 1_555 1_555
O3 U1 1_555 1_555
O4 C3 1_555 1_555
O5 C1 1_555 1_555
O6 U1_3 1_555 1_555
O7 C2 1_555 1_555
O8 C1 1_555 1_555
U1 O5 1_555 1_555
C3B C3 1_555 1_555
O3B C3B 1_555 1_555
O4B U1 1_555 1_555
C1_2 C2_2 1_555 1_555
C2_2 O6_2 1_555 1_555
O5_2 C1_2 1_555 1_555
O6_2 U1 1_555 1_555
O7_2 C2_2 1_555 1_555
O8_2 U1 1_555 1_555
U1B O4 1_555 1_555
U1_2 O5_2 1_555 1_555
U1_3 O8 1_555 1_555
O1B U1B 1_555 1_555
O2B U1B 1_555 1_555
O5B U1B 1_555 1_555
O6B U1B 1_555 1_555
O8B U1B 1_555 1_555
C3B O4B 1_555 1_555
O3B U1B 1_555 1_555
C1_2 O8_2 1_555 1_555

#END
