
#######################################################################
#
#                 Cambridge Crystallographic Data Centre
#                                CCDC 
#
#######################################################################
#
# If this CIF has been generated from an entry in the Cambridge 
# Structural Database, then it will include bibliographic, chemical, 
# crystal, experimental, refinement or atomic coordinate data resulting 
# from the CCDC's data processing and validation procedures.
#
#######################################################################

data_AMUMEB
_symmetry_cell_setting           monoclinic
_symmetry_space_group_name_H-M   'P 21/c'
_symmetry_Int_Tables_number      14
_space_group_name_Hall           '-P 2ybc'
loop_
_symmetry_equiv_pos_site_id
_symmetry_equiv_pos_as_xyz
1 x,y,z
2 -x,1/2+y,1/2-z
3 -x,-y,-z
4 x,1/2-y,1/2+z
_cell_length_a                   14.097(3)
_cell_length_b                   14.255(3)
_cell_length_c                   9.767(2)
_cell_angle_alpha                90
_cell_angle_beta                 108.617(3)
_cell_angle_gamma                90
_cell_volume                     1860
loop_
_atom_site_label
_atom_site_type_symbol
_atom_site_fract_x
_atom_site_fract_y
_atom_site_fract_z
O1 O 0.4817(2) 0.63875(19) 0.6164(3)
H1 H 0.5294 0.6063 0.6617
C17 C 0.4031(3) 0.5812(3) 0.5403(4)
H12 H 0.4291 0.5225 0.5200
H13 H 0.3661 0.6111 0.4511
H14 H 0.3597 0.5703 0.5969
C1 C 1.34722(19) 0.67161(18) 0.8497(3)
H2 H 1.3942 0.6852 0.8038
C2 C 1.26123(19) 0.72644(19) 0.8185(3)
H3 H 1.2526 0.7772 0.7560
C3 C 1.18995(18) 0.70530(18) 0.8801(3)
H4 H 1.1317 0.7409 0.8579
C4 C 1.20402(16) 0.62943(16) 0.9777(2)
C5 C 1.29544(16) 0.57963(15) 1.0082(2)
C6 C 1.32123(19) 0.50424(15) 1.1128(3)
C7 C 1.2515(2) 0.48274(17) 1.1809(3)
H5 H 1.2654 0.4350 1.2494
C8 C 1.16112(19) 0.53086(19) 1.1491(3)
H6 H 1.1169 0.5142 1.1981
C9 C 1.13380(16) 0.60218(17) 1.0483(3)
C10 C 1.03514(18) 0.64368(19) 1.0234(3)
H7 H 1.0017 0.6311 1.0895
C11 C 0.84184(17) 0.77496(17) 0.7958(3)
C12 C 0.74003(17) 0.80221(17) 0.7998(3)
C13 C 0.69353(18) 0.76425(19) 0.8915(3)
H8 H 0.7264 0.7194 0.9592
C14 C 0.59865(19) 0.7927(2) 0.8829(3)
H9 H 0.5673 0.7691 0.9463
C15 C 0.55153(18) 0.85642(19) 0.7788(3)
H10 H 0.4865 0.8741 0.7710
C16 C 0.68687(18) 0.86787(17) 0.7005(3)
H11 H 0.7178 0.8949 0.6391
Cd1 Cd 0.5000 1.0000 0.5000
N1 N 1.36453(13) 0.60124(13) 0.9417(2)
N2 N 0.59379(14) 0.89462(14) 0.6878(2)
N3 N 0.99233(14) 0.69613(15) 0.9159(2)
N4 N 0.89819(14) 0.72731(15) 0.9116(2)
H18 H 0.8815 0.7239 0.9854
O2 O 1.40562(11) 0.45926(12) 1.13933(19)
O3 O 0.86856(13) 0.79425(14) 0.69126(19)
C1B C -0.34722(19) 1.32839(18) 0.1503(3)
H2B H -0.3942 1.3148 0.1962
C2B C -0.26123(19) 1.27356(19) 0.1815(3)
H3B H -0.2526 1.2228 0.2440
C3B C -0.18995(18) 1.29470(18) 0.1199(3)
H4B H -0.1317 1.2591 0.1421
C4B C -0.20402(16) 1.37057(16) 0.0223(2)
C5B C -0.29544(16) 1.42037(15) -0.0082(2)
C6B C -0.32123(19) 1.49576(15) -0.1128(3)
C7B C -0.2515(2) 1.51726(17) -0.1809(3)
H5B H -0.2654 1.5650 -0.2494
C8B C -0.16112(19) 1.46914(19) -0.1491(3)
H6B H -0.1169 1.4858 -0.1981
C9B C -0.13380(16) 1.39782(17) -0.0483(3)
C10B C -0.03514(18) 1.35632(19) -0.0234(3)
H7B H -0.0017 1.3689 -0.0895
C11B C 0.15816(17) 1.22504(17) 0.2042(3)
C12B C 0.25997(17) 1.19779(17) 0.2002(3)
C13B C 0.30647(18) 1.23575(19) 0.1085(3)
H8B H 0.2736 1.2806 0.0408
C14B C 0.40135(19) 1.2073(2) 0.1171(3)
H9B H 0.4327 1.2309 0.0537
C15B C 0.44847(18) 1.14358(19) 0.2212(3)
H10B H 0.5135 1.1259 0.2290
C16B C 0.31313(18) 1.13213(17) 0.2995(3)
H11B H 0.2822 1.1051 0.3609
Cd1A Cd -0.5000 1.5000 0.0000
Cd1A_2 Cd 1.5000 0.5000 1.0000
N1B N -0.36453(13) 1.39876(13) 0.0583(2)
N1A N 0.63547(13) 1.10124(13) 0.5583(2)
N1C N 0.36453(13) 0.89876(13) 0.4417(2)
N2B N 0.40621(14) 1.10538(14) 0.3122(2)
N3B N 0.00767(14) 1.30387(15) 0.0841(2)
N4B N 0.10181(14) 1.27269(15) 0.0884(2)
H18B H 0.1185 1.2761 0.0146
O2B O -0.40562(11) 1.54074(12) -0.13933(19)
O2A O 0.59438(11) 0.95926(12) 0.36067(19)
O2C O 0.40562(11) 1.04074(12) 0.63933(19)
O3B O 0.13144(13) 1.20575(14) 0.30874(19)
C18 C 0.0888(4) 0.5384(4) 0.5745(6)
H15 H 0.1500 0.5652 0.6257
C19 C 0.0852(4) 0.4702(4) 0.4763(5)
H16 H 0.1435 0.4498 0.4605
C20 C -0.0047(5) 0.4320(3) 0.4011(5)
H17 H -0.0083 0.3855 0.3329
C18B C -0.0888(4) 0.4616(4) 0.4255(6)
H15B H -0.1500 0.4348 0.3743
C19B C -0.0852(4) 0.5298(4) 0.5237(5)
H16B H -0.1435 0.5502 0.5395
C20B C 0.0047(5) 0.5680(3) 0.5989(5)
H17B H 0.0083 0.6145 0.6671
loop_
_geom_bond_atom_site_label_1
_geom_bond_atom_site_label_2
_geom_bond_site_symmetry_1
_geom_bond_site_symmetry_2
O1 H1 1_555 1_555
C1 H2 1_555 1_555
C2 C1 1_555 1_555
H3 C2 1_555 1_555
C3 C2 1_555 1_555
H4 C3 1_555 1_555
C4 C3 1_555 1_555
C5 C4 1_555 1_555
C6 C5 1_555 1_555
C7 C6 1_555 1_555
H5 C7 1_555 1_555
C8 C7 1_555 1_555
H6 C8 1_555 1_555
C9 C4 1_555 1_555
C10 C9 1_555 1_555
H7 C10 1_555 1_555
C11 C12 1_555 1_555
C12 C13 1_555 1_555
C13 H8 1_555 1_555
C14 C13 1_555 1_555
H9 C14 1_555 1_555
C15 C14 1_555 1_555
H10 C15 1_555 1_555
C16 C12 1_555 1_555
H11 C16 1_555 1_555
C17 O1 1_555 1_555
H12 C17 1_555 1_555
H13 C17 1_555 1_555
H14 C17 1_555 1_555
C18 H15 1_555 1_555
C19 C18 1_555 1_555
H16 C19 1_555 1_555
C20 C19 1_555 1_555
H17 C20 1_555 1_555
Cd1 N2 1_555 1_555
N1 C1 1_555 1_555
N2 C15 1_555 1_555
N3 C10 1_555 1_555
N4 C11 1_555 1_555
H18 N4 1_555 1_555
O2 C6 1_555 1_555
O3 C11 1_555 1_555
C1B H2B 1_555 1_555
C2B C1B 1_555 1_555
H3B C2B 1_555 1_555
C3B C2B 1_555 1_555
H4B C3B 1_555 1_555
C4B C3B 1_555 1_555
C5B C4B 1_555 1_555
C6B C5B 1_555 1_555
C7B C6B 1_555 1_555
H5B C7B 1_555 1_555
C8B C7B 1_555 1_555
H6B C8B 1_555 1_555
C9B C4B 1_555 1_555
C10B C9B 1_555 1_555
H7B C10B 1_555 1_555
C11B C12B 1_555 1_555
C12B C13B 1_555 1_555
C13B H8B 1_555 1_555
C14B C13B 1_555 1_555
H9B C14B 1_555 1_555
C15B C14B 1_555 1_555
H10B C15B 1_555 1_555
C16B C12B 1_555 1_555
H11B C16B 1_555 1_555
C18B C20 1_555 1_555
H15B C18B 1_555 1_555
C19B C18B 1_555 1_555
H16B C19B 1_555 1_555
C20B C18 1_555 1_555
H17B C20B 1_555 1_555
Cd1A N1B 1_555 1_555
Cd1A_2 N1 1_555 1_555
N1B C1B 1_555 1_555
N1A Cd1 1_555 1_555
N1C Cd1 1_555 1_555
N2B Cd1 1_555 1_555
N3B C10B 1_555 1_555
N4B C11B 1_555 1_555
H18B N4B 1_555 1_555
O2B C6B 1_555 1_555
O2A Cd1 1_555 1_555
O2C Cd1 1_555 1_555
O3B C11B 1_555 1_555
C5 N1 1_555 1_555
C8 C9 1_555 1_555
C16 N2 1_555 1_555
N3 N4 1_555 1_555
O2 Cd1A_2 1_555 1_555
C5B N1B 1_555 1_555
C8B C9B 1_555 1_555
C15B N2B 1_555 1_555
C16B N2B 1_555 1_555
C19B C20B 1_555 1_555
Cd1A O2B 1_555 1_555
N3B N4B 1_555 1_555

#END
