
#######################################################################
#
#                 Cambridge Crystallographic Data Centre
#                                CCDC 
#
#######################################################################
#
# If this CIF has been generated from an entry in the Cambridge 
# Structural Database, then it will include bibliographic, chemical, 
# crystal, experimental, refinement or atomic coordinate data resulting 
# from the CCDC's data processing and validation procedures.
#
#######################################################################

data_AMUMAX
_symmetry_cell_setting           monoclinic
_symmetry_space_group_name_H-M   'P 21/c'
_symmetry_Int_Tables_number      14
_space_group_name_Hall           '-P 2ybc'
loop_
_symmetry_equiv_pos_site_id
_symmetry_equiv_pos_as_xyz
1 x,y,z
2 -x,1/2+y,1/2-z
3 -x,-y,-z
4 x,1/2-y,1/2+z
_cell_length_a                   14.113(3)
_cell_length_b                   14.450(3)
_cell_length_c                   9.6194(18)
_cell_angle_alpha                90
_cell_angle_beta                 109.299(3)
_cell_angle_gamma                90
_cell_volume                     1851.48
loop_
_atom_site_label
_atom_site_type_symbol
_atom_site_fract_x
_atom_site_fract_y
_atom_site_fract_z
C17 C 0.4011(3) 0.0803(3) 0.5363(5)
H12 H 0.3674 0.0571 0.6035
H13 H 0.4274 0.0280 0.4953
H14 H 0.3531 0.1150 0.4561
O3 O 0.4806(2) 0.1387(2) 0.6135(3)
H25 H 0.5222 0.1088 0.6816
N1 N 1.40696(19) -0.39520(18) 1.3101(3)
C1 C 1.3144(2) -0.3689(2) 1.2978(4)
C2 C 1.4024(3) -0.2903(3) 1.1155(4)
C3 C 1.3080(2) -0.2615(2) 1.1084(4)
C4 C 1.2611(2) -0.3013(2) 1.1998(4)
C5 C 1.1592(2) -0.2757(2) 1.2040(4)
N2 N 1.10291(19) -0.22514(18) 1.0893(3)
H1 H 1.1257 -0.2106 1.0173
N3 N 1.0084(2) -0.19598(19) 1.0854(3)
C6 C 0.9658(3) -0.1408(2) 0.9784(4)
C7 C 0.6537(3) -0.1696(2) 1.1531(4)
H2 H 0.6055 -0.1837 1.1995
C8 C 0.7402(2) -0.2242(2) 1.1863(4)
H3 H 0.7493 -0.2752 1.2517
C9 C 0.8116(2) -0.2033(2) 1.1237(4)
H4 H 0.8710 -0.2395 1.1466
C10 C 0.7973(2) -0.1278(2) 1.0246(3)
C11 C 0.7050(2) -0.0786(2) 0.9928(3)
C12 C 0.6789(2) -0.0034(2) 0.8883(4)
C13 C 0.7486(3) 0.0187(2) 0.8191(4)
H5 H 0.7340 0.0670 0.7480
C14 C 0.8395(3) -0.0288(2) 0.8525(4)
H6 H 0.8849 -0.0113 0.8031
C15 C 0.8668(2) -0.0998(2) 0.9537(4)
C16 C 1.4496(2) -0.3564(2) 1.2194(4)
H7 H 1.5156 -0.3751 1.2266
H8 H 1.4344 -0.2656 1.0509
H9 H 1.2750 -0.2145 1.0409
H10 H 1.2827 -0.3977 1.3595
H11 H 1.0003 -0.1256 0.9118
Cd1 Cd 1.5000 -0.5000 1.5000
N4 N 0.63625(19) -0.09996(17) 1.0607(3)
O1 O 0.59402(16) 0.04088(16) 0.8604(2)
O2 O 1.13157(17) -0.29945(17) 1.3072(3)
N1B N 1.59304(19) -0.60480(18) 1.6899(3)
C1B C 1.6856(2) -0.6311(2) 1.7022(4)
C2B C 1.5976(3) -0.7097(3) 1.8845(4)
C3B C 1.6920(2) -0.7385(2) 1.8916(4)
C4B C 1.7389(2) -0.6987(2) 1.8002(4)
C5B C 1.8408(2) -0.7243(2) 1.7960(4)
N2B N 1.89709(19) -0.77486(18) 1.9107(3)
H1B H 1.8743 -0.7894 1.9827
N3B N 1.9916(2) -0.80402(19) 1.9146(3)
C6B C 2.0342(3) -0.8592(2) 2.0216(4)
C7B C 2.3463(3) -0.8304(2) 1.8469(4)
H2B H 2.3945 -0.8163 1.8005
C8B C 2.2598(2) -0.7758(2) 1.8137(4)
H3B H 2.2507 -0.7248 1.7483
C9B C 2.1884(2) -0.7967(2) 1.8763(4)
H4B H 2.1290 -0.7605 1.8534
C10B C 2.2027(2) -0.8722(2) 1.9754(3)
C11B C 2.2950(2) -0.9214(2) 2.0072(3)
C12B C 2.3211(2) -0.9966(2) 2.1117(4)
C13B C 2.2514(3) -1.0187(2) 2.1809(4)
H5B H 2.2660 -1.0670 2.2520
C14B C 2.1605(3) -0.9712(2) 2.1475(4)
H6B H 2.1151 -0.9887 2.1969
C15B C 2.1332(2) -0.9002(2) 2.0463(4)
C16B C 1.5504(2) -0.6436(2) 1.7806(4)
H7B H 1.4844 -0.6249 1.7734
H8B H 1.5656 -0.7344 1.9491
H9B H 1.7250 -0.7855 1.9591
H10B H 1.7173 -0.6023 1.6405
H11B H 1.9997 -0.8744 2.0882
Cd1A Cd 0.5000 0.0000 1.0000
Cd1A_2 Cd 2.5000 -1.0000 2.0000
N4A N 1.36375(19) -0.59996(17) 1.4393(3)
N4C N 1.63625(19) -0.40004(17) 1.5607(3)
N4B N 2.36375(19) -0.90004(17) 1.9393(3)
O1A O 1.40598(16) -0.45912(16) 1.6396(2)
O1C O 1.59402(16) -0.54088(16) 1.3604(2)
O1B O 2.40598(16) -1.04088(16) 2.1396(2)
O2B O 1.86843(17) -0.70055(17) 1.6928(3)
C18? C 0.9920(11) 0.0835(10) 0.5881(14)
H15? H 1.0149 0.0698 0.6916
H16? H 0.9809 0.1491 0.5791
C19? C 0.8972(14) 0.0381(13) 0.523(2)
H17? H 0.8407 0.0557 0.5518
C20? C 0.8893(12) -0.0312(10) 0.4194(14)
H18? H 0.8282 -0.0655 0.3775
C21? C 1.0758(12) 0.0639(8) 0.5372(14)
H19? H 1.1375 0.0716 0.6173
H20? H 1.0751 0.1089 0.4634
C22? C 0.9750(10) -0.0512(10) 0.3737(14)
H21? H 0.9659 -0.0191 0.2828
H22? H 0.9751 -0.1162 0.3529
C23? C 1.0740(12) -0.0273(13) 0.471(2)
H23? H 1.0942 -0.0721 0.5494
H24? H 1.1215 -0.0292 0.4194
loop_
_geom_bond_atom_site_label_1
_geom_bond_atom_site_label_2
_geom_bond_site_symmetry_1
_geom_bond_site_symmetry_2
N1 C1 1_555 1_555
C1 C4 1_555 1_555
C2 C3 1_555 1_555
C3 C4 1_555 1_555
C4 C5 1_555 1_555
C5 N2 1_555 1_555
N2 H1 1_555 1_555
N3 N2 1_555 1_555
C6 N3 1_555 1_555
C7 H2 1_555 1_555
C8 C7 1_555 1_555
H3 C8 1_555 1_555
C9 C8 1_555 1_555
H4 C9 1_555 1_555
C10 C9 1_555 1_555
C11 C10 1_555 1_555
C12 C11 1_555 1_555
C13 C12 1_555 1_555
H5 C13 1_555 1_555
C14 C13 1_555 1_555
H6 C14 1_555 1_555
C15 C6 1_555 1_555
C16 N1 1_555 1_555
H7 C16 1_555 1_555
H8 C2 1_555 1_555
H9 C3 1_555 1_555
H10 C1 1_555 1_555
H11 C6 1_555 1_555
C17 H12 1_555 1_555
H13 C17 1_555 1_555
H14 C17 1_555 1_555
Cd1 N1 1_555 1_555
N4 C7 1_555 1_555
O1 C12 1_555 1_555
O2 C5 1_555 1_555
O3 C17 1_555 1_555
H25 O3 1_555 1_555
N1B Cd1 1_555 1_555
C1B N1B 1_555 1_555
C2B C3B 1_555 1_555
C3B C4B 1_555 1_555
C4B C1B 1_555 1_555
C5B C4B 1_555 1_555
N2B C5B 1_555 1_555
H1B N2B 1_555 1_555
N3B N2B 1_555 1_555
C6B N3B 1_555 1_555
C7B H2B 1_555 1_555
C8B C7B 1_555 1_555
H3B C8B 1_555 1_555
C9B C8B 1_555 1_555
H4B C9B 1_555 1_555
C10B C9B 1_555 1_555
C11B C10B 1_555 1_555
C12B C11B 1_555 1_555
C13B C12B 1_555 1_555
H5B C13B 1_555 1_555
C14B C13B 1_555 1_555
H6B C14B 1_555 1_555
C15B C6B 1_555 1_555
C16B N1B 1_555 1_555
H7B C16B 1_555 1_555
H8B C2B 1_555 1_555
H9B C3B 1_555 1_555
H10B C1B 1_555 1_555
H11B C6B 1_555 1_555
Cd1A N4 1_555 1_555
Cd1A_2 N4B 1_555 1_555
N4A Cd1 1_555 1_555
N4C Cd1 1_555 1_555
N4B C7B 1_555 1_555
O1A Cd1 1_555 1_555
O1C Cd1 1_555 1_555
O1B C12B 1_555 1_555
O2B C5B 1_555 1_555
C2 C16 1_555 1_555
C10 C15 1_555 1_555
C11 N4 1_555 1_555
C14 C15 1_555 1_555
O1 Cd1A 1_555 1_555
C2B C16B 1_555 1_555
C10B C15B 1_555 1_555
C11B N4B 1_555 1_555
C14B C15B 1_555 1_555
Cd1A_2 O1B 1_555 1_555

#END
