
#######################################################################
#
#                 Cambridge Crystallographic Data Centre
#                                CCDC 
#
#######################################################################
#
# If this CIF has been generated from an entry in the Cambridge 
# Structural Database, then it will include bibliographic, chemical, 
# crystal, experimental, refinement or atomic coordinate data resulting 
# from the CCDC's data processing and validation procedures.
#
#######################################################################

data_AMUSUX
_symmetry_cell_setting           monoclinic
_symmetry_space_group_name_H-M   'C 2'
_symmetry_Int_Tables_number      5
_space_group_name_Hall           'C 2y'
loop_
_symmetry_equiv_pos_site_id
_symmetry_equiv_pos_as_xyz
1 x,y,z
2 -x,y,-z
3 1/2+x,1/2+y,z
4 1/2-x,1/2+y,-z
_cell_length_a                   49.1113(18)
_cell_length_b                   15.7929(6)
_cell_length_c                   18.8454(7)
_cell_angle_alpha                90
_cell_angle_beta                 94.213(2)
_cell_angle_gamma                90
_cell_volume                     14577.2
loop_
_atom_site_label
_atom_site_type_symbol
_atom_site_fract_x
_atom_site_fract_y
_atom_site_fract_z
Cl3 Cl 0.25744(6) 0.9316(2) 0.55032(13)
C2 C 0.25946(16) 0.9963(7) 0.4775(4)
H3 H 0.2477 1.0465 0.4826
H4 H 0.2526 0.9654 0.4341
Cl4 Cl 0.29379(4) 1.03000(19) 0.46820(12)
Cl5 Cl 0.91368(6) 1.0118(2) 0.3490(3)
C3 C 0.9405(2) 0.9366(11) 0.3594(6)
H5 H 0.9526 0.9507 0.4021
H6 H 0.9328 0.8795 0.3662
Cl6 Cl 0.95904(7) 0.9368(2) 0.28529(17)
Cl7 Cl 0.13746(5) 0.09865(17) 0.56525(14)
C4 C 0.1712(2) 0.1389(6) 0.5592(6)
H7 H 0.1740 0.1534 0.5092
H8 H 0.1737 0.1910 0.5882
Cl8 Cl 0.19519(5) 0.06221(14) 0.59012(16)
Cl9 Cl 0.99871(6) 0.6852(2) 0.79542(11)
C5 C 0.99996(16) 0.7531(5) 0.7231(4)
H9 H 1.0167 0.7418 0.6983
H10 H 1.0006 0.8126 0.7398
Cl10 Cl 0.97047(4) 0.73724(14) 0.66326(10)
Cl11 Cl 0.18529(8) 0.4912(2) 0.0576(2)
C6 C 0.1623(3) 0.5615(9) 0.0856(9)
H11 H 0.1615 0.6118 0.0542
H12 H 0.1680 0.5804 0.1345
Cl12 Cl 0.12936(7) 0.5141(3) 0.08451(16)
Cl13 Cl 0.97543(14) 0.4874(4) 0.1356(4)
C7 C 0.9768(2) 0.4136(7) 0.1989(6)
H13 H 0.9738 0.4406 0.2451
H14 H 0.9952 0.3877 0.2026
Cl14 Cl 0.95314(9) 0.3366(2) 0.1825(4)
N1 N 0.54472(10) 1.0797(3) 0.6642(2)
O1 O 0.52060(8) 1.0951(3) 0.6427(2)
O2 O 0.56023(9) 1.1373(3) 0.6859(3)
O3 O 0.55313(8) 1.0038(3) 0.6643(2)
N2 N 0.22975(16) 1.1562(5) 0.3377(6)
O4 O 0.25235(12) 1.1535(4) 0.3704(4)
O5 O 0.20868(16) 1.1731(7) 0.3670(7)
O6 O 0.22853(11) 1.1383(4) 0.2731(4)
N3 N 0.64603(10) 0.8835(3) 0.5142(3)
O7 O 0.64202(10) 0.9280(4) 0.5655(3)
O8 O 0.62986(11) 0.8915(4) 0.4606(3)
O9 O 0.66523(15) 0.8349(5) 0.5157(4)
N4 N 0.01960(10) 0.9639(3) 0.1648(3)
O10 O 0.04026(9) 0.9522(3) 0.2067(2)
O11 O 0.02105(8) 1.0196(3) 0.1169(2)
O12 O -0.00142(10) 0.9237(3) 0.1692(2)
N5 N 0.82671(10) 0.7862(4) 0.8516(3)
O13 O 0.82837(10) 0.8652(3) 0.8411(3)
O14 O 0.84660(11) 0.7522(3) 0.8819(3)
O15 O 0.80558(10) 0.7494(3) 0.8319(3)
Cl15 Cl 0.25177(9) 0.8401(3) 0.8644(3)
Cl16 Cl 0.24440(9) 0.9426(4) 0.74205(19)
C8 C 0.2633(4) 0.8561(10) 0.7796(6)
H15 H 0.2602 0.8048 0.7499
H16 H 0.2831 0.8691 0.7831
Cl17 Cl 0.52731(5) 1.26580(15) 0.53626(11)
C9 C 0.5000 1.2034(6) 0.5000
H17 H 0.5000 1.1432 0.5000
Cl17A Cl 0.47269(5) 1.26580(15) 0.46374(11)
Cl18 Cl 0.16174(11) 0.5892(5) 0.3348(4)
Cl19 Cl 0.17280(12) 0.4232(6) 0.2768(5)
C10 C 0.1687(3) 0.5292(7) 0.2636(8)
H18 H 0.1855 0.5514 0.2447
H19 H 0.1536 0.5374 0.2262
Ag1 Ag 0.510480(8) 0.96032(5) 0.58070(2)
O16 O 0.54064(7) 1.0089(2) 0.50458(19)
N6 N 0.58641(9) 1.0069(3) 0.5145(2)
H20 H 0.6014 0.9762 0.5184
P1 P 0.52570(3) 0.87218(10) 0.39236(7)
C11 C 0.54634(11) 0.8242(3) 0.4680(3)
Ag2 Ag 0.720960(9) 1.07879(5) 0.71430(3)
N7 N 0.61399(9) 1.0969(3) 0.6314(2)
H21 H 0.5982 1.0935 0.6507
P2 P 0.68520(3) 1.13178(10) 0.77840(8)
C12 C 0.54617(13) 0.7362(4) 0.4767(3)
H22 H 0.5350 0.7023 0.4447
Ag3 Ag 0.681180(9) 0.94623(5) 0.64531(2)
P3 P 0.70328(3) 0.84035(10) 0.71746(8)
C13 C 0.56211(13) 0.6980(4) 0.5317(3)
H23 H 0.5617 0.6383 0.5377
P4 P 0.90172(3) 1.14802(11) 0.84634(8)
Ag4 Ag 0.925130(9) 1.01777(5) 0.86811(2)
C14 C 0.57853(13) 0.7473(4) 0.5775(3)
H24 H 0.5897 0.7217 0.6148
Ag5 Ag 0.873290(10) 0.90197(6) 0.89063(2)
P5 P 0.88629(3) 0.92447(10) 1.01333(8)
C15 C 0.57874(12) 0.8357(4) 0.5689(3)
H25 H 0.5901 0.8698 0.6004
N8 N 0.78636(9) 0.9215(3) 0.7352(2)
H26 H 0.7960 0.8987 0.7714
C16 C 0.56265(10) 0.8729(3) 0.5153(3)
N9 N 0.82715(10) 1.0502(3) 0.7474(3)
H27 H 0.8130 1.0845 0.7451
C17 C 0.56271(11) 0.9687(3) 0.5102(3)
C18 C 0.58882(11) 1.0987(3) 0.5129(3)
H28 H 0.5726 1.1242 0.5339
N10 N 0.97239(9) 0.8870(3) 1.0243(2)
H29 H 0.9804 0.9069 1.0642
C19 C 0.58989(13) 1.1301(4) 0.4366(3)
H30 H 0.5729 1.1136 0.4086
H31 H 0.6054 1.1029 0.4148
C20 C 0.59323(17) 1.2278(5) 0.4337(4)
H32 H 0.5948 1.2458 0.3838
H33 H 0.5769 1.2553 0.4511
C21 C 0.61823(17) 1.2551(5) 0.4786(4)
H34 H 0.6194 1.3177 0.4786
H35 H 0.6347 1.2327 0.4578
O17 O 0.74534(7) 0.9614(3) 0.68901(19)
C22 C 0.61759(14) 1.2231(4) 0.5561(4)
H36 H 0.6346 1.2402 0.5839
H37 H 0.6020 1.2492 0.5784
O18 O 0.86683(8) 1.0124(3) 0.8035(2)
C23 C 0.61483(12) 1.1264(4) 0.5573(3)
H38 H 0.6310 1.1008 0.5364
C24 C 0.63665(11) 1.0756(4) 0.6689(3)
C25 C 0.63456(11) 1.0459(3) 0.7439(3)
C26 C 0.61253(13) 0.9968(4) 0.7619(3)
H39 H 0.5979 0.9862 0.7273
O19 O 0.93805(8) 0.9015(3) 0.93934(19)
C27 C 0.61179(13) 0.9632(4) 0.8299(3)
H40 H 0.5964 0.9310 0.8418
C28 C 0.63296(14) 0.9761(4) 0.8796(3)
H41 H 0.6330 0.9498 0.9249
C29 C 0.65497(12) 1.0288(4) 0.8633(3)
H42 H 0.6691 1.0406 0.8990
C30 C 0.65614(12) 1.0636(3) 0.7960(3)
C31 C 0.55035(11) 0.9285(3) 0.3428(3)
C32 C 0.57764(11) 0.9027(4) 0.3441(3)
H43 H 0.5837 0.8558 0.3726
C33 C 0.59595(11) 0.9450(4) 0.3040(3)
H44 H 0.6143 0.9262 0.3042
C34 C 0.58737(12) 1.0145(4) 0.2637(3)
H45 H 0.6001 1.0450 0.2380
C35 C 0.56039(13) 1.0396(4) 0.2609(3)
H46 H 0.5544 1.0856 0.2312
C36 C 0.54140(11) 0.9972(3) 0.3019(3)
H47 H 0.5230 1.0157 0.3012
C37 C 0.51461(11) 0.7823(4) 0.3361(3)
C38 C 0.52895(12) 0.7507(4) 0.2826(3)
H48 H 0.5460 0.7756 0.2734
C39 C 0.51922(14) 0.6834(5) 0.2416(4)
H49 H 0.5293 0.6634 0.2038
C40 C 0.49494(15) 0.6452(5) 0.2554(4)
H50 H 0.4886 0.5975 0.2284
C41 C 0.47968(15) 0.6769(5) 0.3097(4)
H51 H 0.4628 0.6516 0.3192
C42 C 0.48962(14) 0.7455(5) 0.3491(4)
H52 H 0.4793 0.7679 0.3854
C43 C 0.67036(11) 1.2278(4) 0.7377(3)
C44 C 0.68642(13) 1.2734(4) 0.6922(4)
H53 H 0.7041 1.2533 0.6832
C45 C 0.67651(15) 1.3485(4) 0.6599(4)
H54 H 0.6873 1.3788 0.6287
C46 C 0.65127(15) 1.3778(4) 0.6738(4)
H55 H 0.6447 1.4295 0.6531
C47 C 0.63496(14) 1.3319(4) 0.7183(3)
H56 H 0.6172 1.3518 0.7266
C48 C 0.64465(12) 1.2576(4) 0.7503(3)
H57 H 0.6336 1.2271 0.7809
C49 C 0.69829(12) 1.1639(4) 0.8670(3)
C50 C 0.72211(14) 1.1272(5) 0.8957(4)
H58 H 0.7318 1.0876 0.8691
C51 C 0.73182(17) 1.1501(5) 0.9658(4)
H59 H 0.7482 1.1253 0.9862
C52 C 0.71810(15) 1.2069(5) 1.0045(4)
H60 H 0.7248 1.2207 1.0517
C53 C 0.69486(17) 1.2437(5) 0.9753(4)
H61 H 0.6858 1.2851 1.0015
C54 C 0.68465(15) 1.2221(4) 0.9098(4)
H62 H 0.6679 1.2463 0.8916
C55 C 0.72151(12) 0.8672(4) 0.8027(3)
C56 C 0.71018(13) 0.8493(4) 0.8662(3)
H63 H 0.6927 0.8231 0.8653
C57 C 0.72394(15) 0.8692(5) 0.9319(3)
H64 H 0.7155 0.8580 0.9747
C58 C 0.74929(14) 0.9045(4) 0.9350(3)
H65 H 0.7588 0.9171 0.9796
C59 C 0.76101(13) 0.9217(4) 0.8718(3)
H66 H 0.7788 0.9455 0.8739
C60 C 0.74770(11) 0.9055(4) 0.8053(3)
C61 C 0.75998(11) 0.9307(3) 0.7395(3)
C62 C 0.80049(12) 0.9476(4) 0.6724(3)
H67 H 0.7897 0.9939 0.6476
C63 C 0.80217(14) 0.8735(4) 0.6211(3)
H68 H 0.8118 0.8258 0.6461
H69 H 0.7835 0.8545 0.6055
C64 C 0.81697(15) 0.8972(5) 0.5572(3)
H70 H 0.8059 0.9384 0.5279
H71 H 0.8195 0.8462 0.5279
C65 C 0.84513(15) 0.9363(5) 0.5796(4)
H72 H 0.8570 0.8929 0.6040
H73 H 0.8539 0.9551 0.5367
C66 C 0.84231(14) 1.0117(4) 0.6293(4)
H74 H 0.8606 1.0353 0.6438
H75 H 0.8312 1.0566 0.6046
C67 C 0.82850(12) 0.9814(4) 0.6946(3)
H76 H 0.8396 0.9342 0.7171
C68 C 0.84667(11) 1.0608(3) 0.7976(3)
C69 C 0.84399(12) 1.1295(4) 0.8506(3)
C70 C 0.81923(15) 1.1541(4) 0.8735(4)
H77 H 0.8030 1.1291 0.8525
C71 C 0.81735(15) 1.2131(5) 0.9251(4)
H78 H 0.7999 1.2297 0.9386
C72 C 0.84022(17) 1.2490(5) 0.9579(4)
H79 H 0.8388 1.2880 0.9959
C73 C 0.86595(16) 1.2276(5) 0.9348(4)
H80 H 0.8819 1.2533 0.9565
C74 C 0.86820(13) 1.1694(4) 0.8806(3)
C75 C 0.67692(13) 0.7669(4) 0.7419(3)
C76 C 0.68093(17) 0.6794(5) 0.7489(5)
H81 H 0.6986 0.6557 0.7454
C77 C 0.6586(2) 0.6272(6) 0.7612(5)
H82 H 0.6612 0.5677 0.7651
C78 C 0.63282(18) 0.6615(6) 0.7678(4)
H83 H 0.6181 0.6256 0.7778
C79 C 0.62868(16) 0.7461(6) 0.7598(5)
H84 H 0.6111 0.7694 0.7646
C80 C 0.65024(15) 0.7985(5) 0.7447(4)
H85 H 0.6469 0.8570 0.7360
C81 C 0.72761(13) 0.7759(4) 0.6720(3)
C82 C 0.74745(14) 0.7274(4) 0.7096(4)
H86 H 0.7489 0.7279 0.7601
C83 C 0.76527(16) 0.6776(5) 0.6720(5)
H87 H 0.7786 0.6435 0.6976
C84 C 0.76380(16) 0.6773(5) 0.6002(5)
H88 H 0.7761 0.6436 0.5755
C85 C 0.74442(15) 0.7260(5) 0.5629(4)
H89 H 0.7435 0.7259 0.5123
C86 C 0.72602(14) 0.7757(4) 0.5981(3)
H90 H 0.7126 0.8089 0.5718
C87 C 0.92236(14) 1.2370(4) 0.8789(3)
C88 C 0.91794(18) 1.3212(5) 0.8573(4)
H91 H 0.9034 1.3343 0.8231
C89 C 0.93444(19) 1.3849(6) 0.8852(4)
H92 H 0.9318 1.4409 0.8678
C90 C 0.9544(2) 1.3696(7) 0.9368(6)
H93 H 0.9648 1.4150 0.9581
C91 C 0.9596(2) 1.2854(7) 0.9586(6)
H94 H 0.9740 1.2735 0.9935
C92 C 0.9439(2) 1.2207(6) 0.9297(5)
H95 H 0.9477 1.1641 0.9444
C93 C 0.89490(12) 1.1688(4) 0.7502(3)
C94 C 0.87436(13) 1.2246(4) 0.7258(3)
H96 H 0.8633 1.2517 0.7582
C95 C 0.87032(14) 1.2399(4) 0.6533(3)
H97 H 0.8563 1.2774 0.6356
C96 C 0.88715(15) 1.1997(5) 0.6057(3)
H98 H 0.8847 1.2111 0.5562
C97 C 0.90693(14) 1.1444(4) 0.6310(3)
H99 H 0.9181 1.1168 0.5989
C98 C 0.91086(13) 1.1283(4) 0.7047(3)
H100 H 0.9245 1.0896 0.7224
C99 C 0.91080(11) 1.0075(4) 1.0439(3)
C100 C 0.90202(12) 1.0810(4) 1.0763(3)
H101 H 0.8830 1.0890 1.0807
C101 C 0.91984(15) 1.1417(4) 1.1018(4)
H102 H 0.9132 1.1914 1.1230
C102 C 0.94774(14) 1.1308(4) 1.0968(4)
H103 H 0.9603 1.1725 1.1153
C103 C 0.95714(11) 1.0584(4) 1.0645(3)
H104 H 0.9762 1.0507 1.0614
C104 C 0.93929(11) 0.9976(3) 1.0369(3)
C105 C 0.95013(10) 0.9249(3) 0.9974(3)
C106 C 0.98432(11) 0.8146(3) 0.9920(3)
H105 H 0.9802 0.8180 0.9393
C107 C 0.97120(12) 0.7326(4) 1.0196(3)
H106 H 0.9734 0.7315 1.0722
H107 H 0.9514 0.7325 1.0050
C108 C 0.98459(13) 0.6531(4) 0.9897(4)
H108 H 0.9762 0.6017 1.0088
H109 H 0.9814 0.6521 0.9372
C109 C 0.89817(11) 0.8313(4) 1.0633(3)
C110 C 0.89088(12) 0.7519(4) 1.0372(3)
H110 H 0.8799 0.7472 0.9938
C111 C 0.89935(14) 0.6804(5) 1.0731(4)
H111 H 0.8945 0.6265 1.0536
C112 C 0.91495(14) 0.6851(4) 1.1378(4)
H112 H 0.9206 0.6351 1.1629
C113 C 0.92200(13) 0.7635(4) 1.1645(3)
H113 H 0.9325 0.7677 1.2087
C114 C 0.91411(12) 0.8364(4) 1.1283(3)
H114 H 0.9194 0.8901 1.1473
C115 C 0.85488(11) 0.9537(4) 1.0528(3)
C116 C 0.83582(14) 1.0042(6) 1.0131(4)
H115 H 0.8403 1.0251 0.9682
C117 C 0.81092(14) 1.0244(6) 1.0372(4)
H116 H 0.7987 1.0603 1.0099
C118 C 0.80396(14) 0.9927(5) 1.1002(4)
H117 H 0.7866 1.0056 1.1165
C119 C 0.82204(14) 0.9412(5) 1.1414(4)
H118 H 0.8171 0.9194 1.1857
C120 C 0.84725(13) 0.9224(4) 1.1167(3)
H119 H 0.8595 0.8871 1.1444
O20 O 0.65972(7) 1.0778(3) 0.6443(2)
Ag1A Ag 0.489520(8) 0.96032(5) 0.41930(2)
O16A O 0.45936(7) 1.0089(2) 0.49542(19)
N6A N 0.41359(9) 1.0069(3) 0.4855(2)
H20A H 0.3986 0.9762 0.4816
P1A P 0.47430(3) 0.87218(10) 0.60764(7)
C11A C 0.45366(11) 0.8242(3) 0.5320(3)
Ag2A Ag 0.279040(9) 1.07879(5) 0.28570(3)
N7A N 0.38601(9) 1.0969(3) 0.3686(2)
H21A H 0.4018 1.0935 0.3493
P2A P 0.31480(3) 1.13178(10) 0.22160(8)
C12A C 0.45383(13) 0.7362(4) 0.5233(3)
H22A H 0.4650 0.7023 0.5553
Ag3A Ag 0.318820(9) 0.94623(5) 0.35469(2)
P3A P 0.29672(3) 0.84035(10) 0.28254(8)
C13A C 0.43789(13) 0.6980(4) 0.4683(3)
H23A H 0.4383 0.6383 0.4623
P4A P 0.09828(3) 1.14802(11) 0.15366(8)
Ag4A Ag 0.074870(9) 1.01777(5) 0.13189(2)
Ag4A_2 Ag 1.074870(9) 1.01777(5) 1.13189(2)
C14A C 0.42147(13) 0.7473(4) 0.4225(3)
H24A H 0.4103 0.7217 0.3852
Ag5A Ag 0.126710(10) 0.90197(6) 0.10937(2)
Ag5A_2 Ag 1.126710(10) 0.90197(6) 1.10937(2)
P5A P 1.11371(3) 0.92447(10) 0.98667(8)
P5A_2 P 0.11371(3) 0.92447(10) -0.01333(8)
C15A C 0.42126(12) 0.8357(4) 0.4311(3)
H25A H 0.4099 0.8698 0.3996
N8A N 0.21364(9) 0.9215(3) 0.2648(2)
H26A H 0.2040 0.8987 0.2286
C16A C 0.43735(10) 0.8729(3) 0.4847(3)
N9A N 0.17285(10) 1.0502(3) 0.2526(3)
H27A H 0.1870 1.0845 0.2549
C17A C 0.43729(11) 0.9687(3) 0.4898(3)
C18A C 0.41118(11) 1.0987(3) 0.4871(3)
H28A H 0.4274 1.1242 0.4661
N10A N 1.02761(9) 0.8870(3) 0.9757(2)
H29A H 1.0196 0.9069 0.9358
C19A C 0.41011(13) 1.1301(4) 0.5634(3)
H30A H 0.4271 1.1136 0.5914
H31A H 0.3946 1.1029 0.5852
C20A C 0.40677(17) 1.2278(5) 0.5663(4)
H32A H 0.4052 1.2458 0.6162
H33A H 0.4231 1.2553 0.5489
C21A C 0.38177(17) 1.2551(5) 0.5214(4)
H34A H 0.3806 1.3177 0.5214
H35A H 0.3653 1.2327 0.5422
O17A O 0.25466(7) 0.9614(3) 0.31099(19)
C22A C 0.38241(14) 1.2231(4) 0.4439(4)
H36A H 0.3654 1.2402 0.4161
H37A H 0.3980 1.2492 0.4216
O18A O 0.13317(8) 1.0124(3) 0.1965(2)
C23A C 0.38517(12) 1.1264(4) 0.4427(3)
H38A H 0.3690 1.1008 0.4636
C24A C 0.36335(11) 1.0756(4) 0.3311(3)
C25A C 0.36544(11) 1.0459(3) 0.2561(3)
C26A C 0.38747(13) 0.9968(4) 0.2381(3)
H39A H 0.4021 0.9862 0.2727
O19A O 1.06195(8) 0.9015(3) 1.06066(19)
O19A_2 O 0.06195(8) 0.9015(3) 0.06066(19)
C27A C 0.38821(13) 0.9632(4) 0.1701(3)
H40A H 0.4036 0.9310 0.1582
C28A C 0.36704(14) 0.9761(4) 0.1204(3)
H41A H 0.3670 0.9498 0.0751
C29A C 0.34503(12) 1.0288(4) 0.1367(3)
H42A H 0.3309 1.0406 0.1010
C30A C 0.34386(12) 1.0636(3) 0.2040(3)
C31A C 0.44965(11) 0.9285(3) 0.6572(3)
C32A C 0.42236(11) 0.9027(4) 0.6559(3)
H43A H 0.4163 0.8558 0.6274
C33A C 0.40405(11) 0.9450(4) 0.6960(3)
H44A H 0.3857 0.9262 0.6958
C34A C 0.41263(12) 1.0145(4) 0.7363(3)
H45A H 0.3999 1.0450 0.7620
C35A C 0.43961(13) 1.0396(4) 0.7391(3)
H46A H 0.4456 1.0856 0.7688
C36A C 0.45860(11) 0.9972(3) 0.6981(3)
H47A H 0.4770 1.0157 0.6988
C37A C 0.48539(11) 0.7823(4) 0.6639(3)
C38A C 0.47105(12) 0.7507(4) 0.7174(3)
H48A H 0.4540 0.7756 0.7266
C39A C 0.48078(14) 0.6834(5) 0.7584(4)
H49A H 0.4707 0.6634 0.7962
C40A C 0.50506(15) 0.6452(5) 0.7446(4)
H50A H 0.5114 0.5975 0.7716
C41A C 0.52032(15) 0.6769(5) 0.6903(4)
H51A H 0.5372 0.6516 0.6808
C42A C 0.51038(14) 0.7455(5) 0.6509(4)
H52A H 0.5207 0.7679 0.6146
C43A C 0.32964(11) 1.2278(4) 0.2623(3)
C44A C 0.31358(13) 1.2734(4) 0.3078(4)
H53A H 0.2959 1.2533 0.3168
C45A C 0.32349(15) 1.3485(4) 0.3401(4)
H54A H 0.3127 1.3788 0.3713
C46A C 0.34873(15) 1.3778(4) 0.3262(4)
H55A H 0.3553 1.4295 0.3469
C47A C 0.36504(14) 1.3319(4) 0.2817(3)
H56A H 0.3828 1.3518 0.2734
C48A C 0.35535(12) 1.2576(4) 0.2497(3)
H57A H 0.3664 1.2271 0.2191
C49A C 0.30171(12) 1.1639(4) 0.1330(3)
C50A C 0.27789(14) 1.1272(5) 0.1043(4)
H58A H 0.2682 1.0876 0.1309
C51A C 0.26818(17) 1.1501(5) 0.0342(4)
H59A H 0.2518 1.1253 0.0138
C52A C 0.28190(15) 1.2069(5) -0.0045(4)
H60A H 0.2752 1.2207 -0.0517
C53A C 0.30514(17) 1.2437(5) 0.0247(4)
H61A H 0.3142 1.2851 -0.0015
C54A C 0.31535(15) 1.2221(4) 0.0902(4)
H62A H 0.3321 1.2463 0.1084
C55A C 0.27849(12) 0.8672(4) 0.1973(3)
C56A C 0.28982(13) 0.8493(4) 0.1338(3)
H63A H 0.3073 0.8231 0.1347
C57A C 0.27606(15) 0.8692(5) 0.0681(3)
H64A H 0.2845 0.8580 0.0253
C58A C 0.25071(14) 0.9045(4) 0.0650(3)
H65A H 0.2412 0.9171 0.0204
C59A C 0.23899(13) 0.9217(4) 0.1282(3)
H66A H 0.2212 0.9455 0.1261
C60A C 0.25230(11) 0.9055(4) 0.1947(3)
C61A C 0.24002(11) 0.9307(3) 0.2605(3)
C62A C 0.19951(12) 0.9476(4) 0.3276(3)
H67A H 0.2103 0.9939 0.3524
C63A C 0.19783(14) 0.8735(4) 0.3789(3)
H68A H 0.1882 0.8258 0.3539
H69A H 0.2165 0.8545 0.3945
C64A C 0.18303(15) 0.8972(5) 0.4428(3)
H70A H 0.1941 0.9384 0.4721
H71A H 0.1805 0.8462 0.4721
C65A C 0.15487(15) 0.9363(5) 0.4204(4)
H72A H 0.1430 0.8929 0.3960
H73A H 0.1461 0.9551 0.4633
C66A C 0.15769(14) 1.0117(4) 0.3707(4)
H74A H 0.1394 1.0353 0.3562
H75A H 0.1688 1.0566 0.3954
C67A C 0.17150(12) 0.9814(4) 0.3054(3)
H76A H 0.1604 0.9342 0.2829
C68A C 0.15333(11) 1.0608(3) 0.2024(3)
C69A C 0.15601(12) 1.1295(4) 0.1494(3)
C70A C 0.18077(15) 1.1541(4) 0.1265(4)
H77A H 0.1970 1.1291 0.1475
C71A C 0.18265(15) 1.2131(5) 0.0749(4)
H78A H 0.2001 1.2297 0.0614
C72A C 0.15978(17) 1.2490(5) 0.0421(4)
H79A H 0.1612 1.2880 0.0041
C73A C 0.13405(16) 1.2276(5) 0.0652(4)
H80A H 0.1181 1.2533 0.0435
C74A C 0.13180(13) 1.1694(4) 0.1194(3)
C75A C 0.32308(13) 0.7669(4) 0.2581(3)
C76A C 0.31907(17) 0.6794(5) 0.2511(5)
H81A H 0.3014 0.6557 0.2546
C77A C 0.3414(2) 0.6272(6) 0.2388(5)
H82A H 0.3388 0.5677 0.2349
C78A C 0.36718(18) 0.6615(6) 0.2322(4)
H83A H 0.3819 0.6256 0.2222
C79A C 0.37132(16) 0.7461(6) 0.2402(5)
H84A H 0.3889 0.7694 0.2354
C80A C 0.34976(15) 0.7985(5) 0.2553(4)
H85A H 0.3531 0.8570 0.2640
C81A C 0.27239(13) 0.7759(4) 0.3280(3)
C82A C 0.25255(14) 0.7274(4) 0.2904(4)
H86A H 0.2511 0.7279 0.2399
C83A C 0.23473(16) 0.6776(5) 0.3280(5)
H87A H 0.2214 0.6435 0.3024
C84A C 0.23620(16) 0.6773(5) 0.3998(5)
H88A H 0.2239 0.6436 0.4245
C85A C 0.25558(15) 0.7260(5) 0.4371(4)
H89A H 0.2565 0.7259 0.4877
C86A C 0.27398(14) 0.7757(4) 0.4019(3)
H90A H 0.2874 0.8089 0.4282
C87A C 0.07764(14) 1.2370(4) 0.1211(3)
C88A C 0.08206(18) 1.3212(5) 0.1427(4)
H91A H 0.0966 1.3343 0.1769
C89A C 0.06556(19) 1.3849(6) 0.1148(4)
H92A H 0.0682 1.4409 0.1322
C90A C 0.0456(2) 1.3696(7) 0.0632(6)
H93A H 0.0352 1.4150 0.0419
C91A C 0.0404(2) 1.2854(7) 0.0414(6)
H94A H 0.0260 1.2735 0.0065
C92A C 0.0561(2) 1.2207(6) 0.0703(5)
H95A H 0.0523 1.1641 0.0556
C93A C 0.10510(12) 1.1688(4) 0.2498(3)
C94A C 0.12564(13) 1.2246(4) 0.2742(3)
H96A H 0.1367 1.2517 0.2418
C95A C 0.12968(14) 1.2399(4) 0.3467(3)
H97A H 0.1437 1.2774 0.3644
C96A C 0.11285(15) 1.1997(5) 0.3943(3)
H98A H 0.1153 1.2111 0.4438
C97A C 0.09307(14) 1.1444(4) 0.3690(3)
H99A H 0.0819 1.1168 0.4011
C98A C 0.08914(13) 1.1283(4) 0.2953(3)
H100A H 0.0755 1.0896 0.2776
C99A C 1.08920(11) 1.0075(4) 0.9561(3)
C100A C 1.09798(12) 1.0810(4) 0.9237(3)
H101A H 1.1170 1.0890 0.9193
C101A C 1.08016(15) 1.1417(4) 0.8982(4)
H102A H 1.0868 1.1914 0.8770
C102A C 1.05226(14) 1.1308(4) 0.9032(4)
H103A H 1.0397 1.1725 0.8847
C103A C 1.04286(11) 1.0584(4) 0.9355(3)
H104A H 1.0238 1.0507 0.9386
C104A C 1.06071(11) 0.9976(3) 0.9631(3)
C105A C 1.04987(10) 0.9249(3) 1.0026(3)
C106A C 1.01568(11) 0.8146(3) 1.0080(3)
H105A H 1.0198 0.8180 1.0607
C107A C 1.02880(12) 0.7326(4) 0.9804(3)
H106A H 1.0266 0.7315 0.9278
H107A H 1.0486 0.7325 0.9950
C108A C 1.01541(13) 0.6531(4) 1.0103(4)
H108A H 1.0238 0.6017 0.9912
H109A H 1.0186 0.6521 1.0628
C109A C 1.10183(11) 0.8313(4) 0.9367(3)
C110A C 1.10912(12) 0.7519(4) 0.9628(3)
H110A H 1.1201 0.7472 1.0062
C111A C 1.10065(14) 0.6804(5) 0.9269(4)
H111A H 1.1055 0.6265 0.9464
C112A C 1.08505(14) 0.6851(4) 0.8622(4)
H112A H 1.0794 0.6351 0.8371
C113A C 1.07800(13) 0.7635(4) 0.8355(3)
H113A H 1.0675 0.7677 0.7913
C114A C 1.08589(12) 0.8364(4) 0.8717(3)
H114A H 1.0806 0.8901 0.8527
C115A C 1.14512(11) 0.9537(4) 0.9472(3)
C116A C 1.16418(14) 1.0042(6) 0.9869(4)
H115A H 1.1597 1.0251 1.0318
C117A C 1.18908(14) 1.0244(6) 0.9628(4)
H116A H 1.2013 1.0603 0.9901
C118A C 1.19604(14) 0.9927(5) 0.8998(4)
H117A H 1.2134 1.0056 0.8835
C119A C 1.17796(14) 0.9412(5) 0.8586(4)
H118A H 1.1829 0.9194 0.8143
C120A C 1.15275(13) 0.9224(4) 0.8833(3)
H119A H 1.1405 0.8871 0.8556
O20A O 0.34028(7) 1.0778(3) 0.3557(2)
Cl1 Cl 0.09998(4) 0.85131(14) 0.22829(10)
C1 C 0.07443(17) 0.7781(5) 0.1980(5)
H1 H 0.0675 0.7487 0.2395
H2 H 0.0590 0.8093 0.1735
Cl2 Cl 0.08655(4) 0.70244(15) 0.13944(10)
loop_
_geom_bond_atom_site_label_1
_geom_bond_atom_site_label_2
_geom_bond_site_symmetry_1
_geom_bond_site_symmetry_2
Cl1 C1 1_555 1_555
C1 H1 1_555 1_555
H2 C1 1_555 1_555
Cl2 C1 1_555 1_555
Cl3 C2 1_555 1_555
C2 H3 1_555 1_555
H4 C2 1_555 1_555
Cl4 C2 1_555 1_555
Cl5 C3 1_555 1_555
C3 H5 1_555 1_555
H6 C3 1_555 1_555
Cl6 C3 1_555 1_555
Cl7 C4 1_555 1_555
C4 H7 1_555 1_555
H8 C4 1_555 1_555
Cl8 C4 1_555 1_555
Cl9 C5 1_555 1_555
C5 H9 1_555 1_555
H10 C5 1_555 1_555
Cl10 C5 1_555 1_555
Cl11 C6 1_555 1_555
C6 H11 1_555 1_555
H12 C6 1_555 1_555
Cl12 C6 1_555 1_555
Cl13 C7 1_555 1_555
C7 H13 1_555 1_555
H14 C7 1_555 1_555
Cl14 C7 1_555 1_555
N1 O1 1_555 1_555
O2 N1 1_555 1_555
O3 N1 1_555 1_555
N2 O4 1_555 1_555
O5 N2 1_555 1_555
O6 N2 1_555 1_555
N3 O7 1_555 1_555
O8 N3 1_555 1_555
O9 N3 1_555 1_555
N4 O10 1_555 1_555
O11 N4 1_555 1_555
O12 N4 1_555 1_555
N5 O13 1_555 1_555
O14 N5 1_555 1_555
O15 N5 1_555 1_555
Cl15 C8 1_555 1_555
Cl16 C8 1_555 1_555
C8 H15 1_555 1_555
H16 C8 1_555 1_555
Cl17 C9 1_555 1_555
C9 H17 1_555 1_555
Cl18 C10 1_555 1_555
Cl19 C10 1_555 1_555
C10 H18 1_555 1_555
H19 C10 1_555 1_555
Ag1 O16 1_555 1_555
O16 C17 1_555 1_555
N6 H20 1_555 1_555
P1 C11 1_555 1_555
C11 C12 1_555 1_555
Ag2 P2 1_555 1_555
N7 H21 1_555 1_555
P2 C30 1_555 1_555
C12 H22 1_555 1_555
Ag3 P3 1_555 1_555
P3 C55 1_555 1_555
C13 C12 1_555 1_555
H23 C13 1_555 1_555
P4 Ag4 1_555 1_555
Ag4 O19 1_555 1_555
C14 C13 1_555 1_555
H24 C14 1_555 1_555
Ag5 P5 1_555 1_555
P5 C99 1_555 1_555
C15 C14 1_555 1_555
H25 C15 1_555 1_555
N8 H26 1_555 1_555
C16 C11 1_555 1_555
N9 H27 1_555 1_555
C17 N6 1_555 1_555
C18 N6 1_555 1_555
H28 C18 1_555 1_555
N10 H29 1_555 1_555
C19 C18 1_555 1_555
H30 C19 1_555 1_555
H31 C19 1_555 1_555
C20 C19 1_555 1_555
H32 C20 1_555 1_555
H33 C20 1_555 1_555
C21 C20 1_555 1_555
H34 C21 1_555 1_555
H35 C21 1_555 1_555
O17 Ag2 1_555 1_555
C22 C21 1_555 1_555
H36 C22 1_555 1_555
H37 C22 1_555 1_555
O18 Ag5 1_555 1_555
C23 N7 1_555 1_555
H38 C23 1_555 1_555
C24 N7 1_555 1_555
C25 C24 1_555 1_555
C26 C25 1_555 1_555
H39 C26 1_555 1_555
O19 C105 1_555 1_555
C27 C26 1_555 1_555
H40 C27 1_555 1_555
C28 C27 1_555 1_555
H41 C28 1_555 1_555
C29 C28 1_555 1_555
H42 C29 1_555 1_555
C30 C25 1_555 1_555
C31 P1 1_555 1_555
C32 C31 1_555 1_555
H43 C32 1_555 1_555
C33 C32 1_555 1_555
H44 C33 1_555 1_555
C34 C33 1_555 1_555
H45 C34 1_555 1_555
C35 C34 1_555 1_555
H46 C35 1_555 1_555
C36 C31 1_555 1_555
H47 C36 1_555 1_555
C37 P1 1_555 1_555
C38 C37 1_555 1_555
H48 C38 1_555 1_555
C39 C38 1_555 1_555
H49 C39 1_555 1_555
C40 C39 1_555 1_555
H50 C40 1_555 1_555
C41 C40 1_555 1_555
H51 C41 1_555 1_555
C42 C37 1_555 1_555
H52 C42 1_555 1_555
C43 P2 1_555 1_555
C44 C43 1_555 1_555
H53 C44 1_555 1_555
C45 C44 1_555 1_555
H54 C45 1_555 1_555
C46 C45 1_555 1_555
H55 C46 1_555 1_555
C47 C46 1_555 1_555
H56 C47 1_555 1_555
C48 C43 1_555 1_555
H57 C48 1_555 1_555
C49 P2 1_555 1_555
C50 C49 1_555 1_555
H58 C50 1_555 1_555
C51 C50 1_555 1_555
H59 C51 1_555 1_555
C52 C51 1_555 1_555
H60 C52 1_555 1_555
C53 C52 1_555 1_555
H61 C53 1_555 1_555
C54 C49 1_555 1_555
H62 C54 1_555 1_555
C55 C56 1_555 1_555
C56 H63 1_555 1_555
C57 C56 1_555 1_555
H64 C57 1_555 1_555
C58 C57 1_555 1_555
H65 C58 1_555 1_555
C59 C58 1_555 1_555
H66 C59 1_555 1_555
C60 C55 1_555 1_555
C61 N8 1_555 1_555
C62 N8 1_555 1_555
H67 C62 1_555 1_555
C63 C62 1_555 1_555
H68 C63 1_555 1_555
H69 C63 1_555 1_555
C64 C63 1_555 1_555
H70 C64 1_555 1_555
H71 C64 1_555 1_555
C65 C64 1_555 1_555
H72 C65 1_555 1_555
H73 C65 1_555 1_555
C66 C65 1_555 1_555
H74 C66 1_555 1_555
H75 C66 1_555 1_555
C67 N9 1_555 1_555
H76 C67 1_555 1_555
C68 N9 1_555 1_555
C69 C68 1_555 1_555
C70 C69 1_555 1_555
H77 C70 1_555 1_555
C71 C70 1_555 1_555
H78 C71 1_555 1_555
C72 C71 1_555 1_555
H79 C72 1_555 1_555
C73 C72 1_555 1_555
H80 C73 1_555 1_555
C74 P4 1_555 1_555
C75 P3 1_555 1_555
C76 C75 1_555 1_555
H81 C76 1_555 1_555
C77 C76 1_555 1_555
H82 C77 1_555 1_555
C78 C77 1_555 1_555
H83 C78 1_555 1_555
C79 C78 1_555 1_555
H84 C79 1_555 1_555
C80 C75 1_555 1_555
H85 C80 1_555 1_555
C81 P3 1_555 1_555
C82 C81 1_555 1_555
H86 C82 1_555 1_555
C83 C82 1_555 1_555
H87 C83 1_555 1_555
C84 C83 1_555 1_555
H88 C84 1_555 1_555
C85 C84 1_555 1_555
H89 C85 1_555 1_555
C86 C81 1_555 1_555
H90 C86 1_555 1_555
C87 P4 1_555 1_555
C88 C87 1_555 1_555
H91 C88 1_555 1_555
C89 C88 1_555 1_555
H92 C89 1_555 1_555
C90 C89 1_555 1_555
H93 C90 1_555 1_555
C91 C90 1_555 1_555
H94 C91 1_555 1_555
C92 C87 1_555 1_555
H95 C92 1_555 1_555
C93 P4 1_555 1_555
C94 C93 1_555 1_555
H96 C94 1_555 1_555
C95 C94 1_555 1_555
H97 C95 1_555 1_555
C96 C95 1_555 1_555
H98 C96 1_555 1_555
C97 C96 1_555 1_555
H99 C97 1_555 1_555
C98 C93 1_555 1_555
H100 C98 1_555 1_555
C99 C100 1_555 1_555
C100 H101 1_555 1_555
C101 C100 1_555 1_555
H102 C101 1_555 1_555
C102 C101 1_555 1_555
H103 C102 1_555 1_555
C103 C102 1_555 1_555
H104 C103 1_555 1_555
C104 C99 1_555 1_555
C105 N10 1_555 1_555
C106 N10 1_555 1_555
H105 C106 1_555 1_555
C107 C106 1_555 1_555
H106 C107 1_555 1_555
H107 C107 1_555 1_555
C108 C107 1_555 1_555
H108 C108 1_555 1_555
H109 C108 1_555 1_555
C109 P5 1_555 1_555
C110 C109 1_555 1_555
H110 C110 1_555 1_555
C111 C110 1_555 1_555
H111 C111 1_555 1_555
C112 C111 1_555 1_555
H112 C112 1_555 1_555
C113 C112 1_555 1_555
H113 C113 1_555 1_555
C114 C109 1_555 1_555
H114 C114 1_555 1_555
C115 P5 1_555 1_555
C116 C115 1_555 1_555
H115 C116 1_555 1_555
C117 C116 1_555 1_555
H116 C117 1_555 1_555
C118 C117 1_555 1_555
H117 C118 1_555 1_555
C119 C118 1_555 1_555
H118 C119 1_555 1_555
C120 C115 1_555 1_555
H119 C120 1_555 1_555
O20 Ag3 1_555 1_555
Cl17A C9 1_555 1_555
Ag1A P1 1_555 1_555
O16A Ag1A 1_555 1_555
N6A H20A 1_555 1_555
P1A Ag1 1_555 1_555
C11A P1A 1_555 1_555
Ag2A P2A 1_555 1_555
N7A H21A 1_555 1_555
P2A C30A 1_555 1_555
C12A C11A 1_555 1_555
H22A C12A 1_555 1_555
Ag3A P3A 1_555 1_555
P3A C55A 1_555 1_555
C13A C12A 1_555 1_555
H23A C13A 1_555 1_555
P4A Ag4A 1_555 1_555
Ag4A O19A_2 1_555 1_555
Ag4A_2 O19A 1_555 1_555
C14A C13A 1_555 1_555
H24A C14A 1_555 1_555
Ag5A P5A_2 1_555 1_555
Ag5A_2 P5A 1_555 1_555
P5A C99A 1_555 1_555
C15A C14A 1_555 1_555
H25A C15A 1_555 1_555
N8A H26A 1_555 1_555
C16A C11A 1_555 1_555
N9A H27A 1_555 1_555
C17A O16A 1_555 1_555
C18A N6A 1_555 1_555
H28A C18A 1_555 1_555
N10A H29A 1_555 1_555
C19A C18A 1_555 1_555
H30A C19A 1_555 1_555
H31A C19A 1_555 1_555
C20A C19A 1_555 1_555
H32A C20A 1_555 1_555
H33A C20A 1_555 1_555
C21A C20A 1_555 1_555
H34A C21A 1_555 1_555
H35A C21A 1_555 1_555
O17A Ag2A 1_555 1_555
C22A C21A 1_555 1_555
H36A C22A 1_555 1_555
H37A C22A 1_555 1_555
O18A Ag5A 1_555 1_555
C23A N7A 1_555 1_555
H38A C23A 1_555 1_555
C24A N7A 1_555 1_555
C25A C24A 1_555 1_555
C26A C25A 1_555 1_555
H39A C26A 1_555 1_555
O19A C105A 1_555 1_555
C27A C26A 1_555 1_555
H40A C27A 1_555 1_555
C28A C27A 1_555 1_555
H41A C28A 1_555 1_555
C29A C28A 1_555 1_555
H42A C29A 1_555 1_555
C30A C25A 1_555 1_555
C31A P1A 1_555 1_555
C32A C31A 1_555 1_555
H43A C32A 1_555 1_555
C33A C32A 1_555 1_555
H44A C33A 1_555 1_555
C34A C33A 1_555 1_555
H45A C34A 1_555 1_555
C35A C34A 1_555 1_555
H46A C35A 1_555 1_555
C36A C31A 1_555 1_555
H47A C36A 1_555 1_555
C37A P1A 1_555 1_555
C38A C37A 1_555 1_555
H48A C38A 1_555 1_555
C39A C38A 1_555 1_555
H49A C39A 1_555 1_555
C40A C39A 1_555 1_555
H50A C40A 1_555 1_555
C41A C40A 1_555 1_555
H51A C41A 1_555 1_555
C42A C37A 1_555 1_555
H52A C42A 1_555 1_555
C43A P2A 1_555 1_555
C44A C43A 1_555 1_555
H53A C44A 1_555 1_555
C45A C44A 1_555 1_555
H54A C45A 1_555 1_555
C46A C45A 1_555 1_555
H55A C46A 1_555 1_555
C47A C46A 1_555 1_555
H56A C47A 1_555 1_555
C48A C43A 1_555 1_555
H57A C48A 1_555 1_555
C49A P2A 1_555 1_555
C50A C49A 1_555 1_555
H58A C50A 1_555 1_555
C51A C50A 1_555 1_555
H59A C51A 1_555 1_555
C52A C51A 1_555 1_555
H60A C52A 1_555 1_555
C53A C52A 1_555 1_555
H61A C53A 1_555 1_555
C54A C49A 1_555 1_555
H62A C54A 1_555 1_555
C55A C56A 1_555 1_555
C56A H63A 1_555 1_555
C57A C56A 1_555 1_555
H64A C57A 1_555 1_555
C58A C57A 1_555 1_555
H65A C58A 1_555 1_555
C59A C58A 1_555 1_555
H66A C59A 1_555 1_555
C60A C55A 1_555 1_555
C61A N8A 1_555 1_555
C62A N8A 1_555 1_555
H67A C62A 1_555 1_555
C63A C62A 1_555 1_555
H68A C63A 1_555 1_555
H69A C63A 1_555 1_555
C64A C63A 1_555 1_555
H70A C64A 1_555 1_555
H71A C64A 1_555 1_555
C65A C64A 1_555 1_555
H72A C65A 1_555 1_555
H73A C65A 1_555 1_555
C66A C65A 1_555 1_555
H74A C66A 1_555 1_555
H75A C66A 1_555 1_555
C67A N9A 1_555 1_555
H76A C67A 1_555 1_555
C68A N9A 1_555 1_555
C69A C68A 1_555 1_555
C70A C69A 1_555 1_555
H77A C70A 1_555 1_555
C71A C70A 1_555 1_555
H78A C71A 1_555 1_555
C72A C71A 1_555 1_555
H79A C72A 1_555 1_555
C73A C72A 1_555 1_555
H80A C73A 1_555 1_555
C74A P4A 1_555 1_555
C75A P3A 1_555 1_555
C76A C75A 1_555 1_555
H81A C76A 1_555 1_555
C77A C76A 1_555 1_555
H82A C77A 1_555 1_555
C78A C77A 1_555 1_555
H83A C78A 1_555 1_555
C79A C78A 1_555 1_555
H84A C79A 1_555 1_555
C80A C75A 1_555 1_555
H85A C80A 1_555 1_555
C81A P3A 1_555 1_555
C82A C81A 1_555 1_555
H86A C82A 1_555 1_555
C83A C82A 1_555 1_555
H87A C83A 1_555 1_555
C84A C83A 1_555 1_555
H88A C84A 1_555 1_555
C85A C84A 1_555 1_555
H89A C85A 1_555 1_555
C86A C81A 1_555 1_555
H90A C86A 1_555 1_555
C87A P4A 1_555 1_555
C88A C87A 1_555 1_555
H91A C88A 1_555 1_555
C89A C88A 1_555 1_555
H92A C89A 1_555 1_555
C90A C89A 1_555 1_555
H93A C90A 1_555 1_555
C91A C90A 1_555 1_555
H94A C91A 1_555 1_555
C92A C87A 1_555 1_555
H95A C92A 1_555 1_555
C93A P4A 1_555 1_555
C94A C93A 1_555 1_555
H96A C94A 1_555 1_555
C95A C94A 1_555 1_555
H97A C95A 1_555 1_555
C96A C95A 1_555 1_555
H98A C96A 1_555 1_555
C97A C96A 1_555 1_555
H99A C97A 1_555 1_555
C98A C93A 1_555 1_555
H100A C98A 1_555 1_555
C99A C100A 1_555 1_555
C100A H101A 1_555 1_555
C101A C100A 1_555 1_555
H102A C101A 1_555 1_555
C102A C101A 1_555 1_555
H103A C102A 1_555 1_555
C103A C102A 1_555 1_555
H104A C103A 1_555 1_555
C104A C99A 1_555 1_555
C105A N10A 1_555 1_555
C106A C106 1_555 1_555
H105A C106A 1_555 1_555
C107A C106A 1_555 1_555
H106A C107A 1_555 1_555
H107A C107A 1_555 1_555
C108A C108 1_555 1_555
H108A C108A 1_555 1_555
H109A C108A 1_555 1_555
C109A P5A 1_555 1_555
C110A C109A 1_555 1_555
H110A C110A 1_555 1_555
C111A C110A 1_555 1_555
H111A C111A 1_555 1_555
C112A C111A 1_555 1_555
H112A C112A 1_555 1_555
C113A C112A 1_555 1_555
H113A C113A 1_555 1_555
C114A C109A 1_555 1_555
H114A C114A 1_555 1_555
C115A P5A 1_555 1_555
C116A C115A 1_555 1_555
H115A C116A 1_555 1_555
C117A C116A 1_555 1_555
H116A C117A 1_555 1_555
C118A C117A 1_555 1_555
H117A C118A 1_555 1_555
C119A C118A 1_555 1_555
H118A C119A 1_555 1_555
C120A C115A 1_555 1_555
H119A C120A 1_555 1_555
O20A Ag3A 1_555 1_555
C15 C16 1_555 1_555
C16 C17 1_555 1_555
C18 C23 1_555 1_555
O17 C61 1_555 1_555
C22 C23 1_555 1_555
O18 C68 1_555 1_555
C24 O20 1_555 1_555
C29 C30 1_555 1_555
C35 C36 1_555 1_555
C41 C42 1_555 1_555
C47 C48 1_555 1_555
C53 C54 1_555 1_555
C59 C60 1_555 1_555
C60 C61 1_555 1_555
C62 C67 1_555 1_555
C66 C67 1_555 1_555
C69 C74 1_555 1_555
C73 C74 1_555 1_555
C79 C80 1_555 1_555
C85 C86 1_555 1_555
C91 C92 1_555 1_555
C97 C98 1_555 1_555
C103 C104 1_555 1_555
C104 C105 1_555 1_555
C113 C114 1_555 1_555
C119 C120 1_555 1_555
N6A C17A 1_555 1_555
C15A C16A 1_555 1_555
C16A C17A 1_555 1_555
C18A C23A 1_555 1_555
N10A C106A 1_555 1_555
O17A C61A 1_555 1_555
C22A C23A 1_555 1_555
O18A C68A 1_555 1_555
C24A O20A 1_555 1_555
C29A C30A 1_555 1_555
C35A C36A 1_555 1_555
C41A C42A 1_555 1_555
C47A C48A 1_555 1_555
C53A C54A 1_555 1_555
C59A C60A 1_555 1_555
C60A C61A 1_555 1_555
C62A C67A 1_555 1_555
C66A C67A 1_555 1_555
C69A C74A 1_555 1_555
C73A C74A 1_555 1_555
C79A C80A 1_555 1_555
C85A C86A 1_555 1_555
C91A C92A 1_555 1_555
C97A C98A 1_555 1_555
C103A C104A 1_555 1_555
C104A C105A 1_555 1_555
C107A C108A 1_555 1_555
C113A C114A 1_555 1_555
C119A C120A 1_555 1_555

#END
