
#######################################################################
#
#                 Cambridge Crystallographic Data Centre
#                                CCDC 
#
#######################################################################
#
# If this CIF has been generated from an entry in the Cambridge 
# Structural Database, then it will include bibliographic, chemical, 
# crystal, experimental, refinement or atomic coordinate data resulting 
# from the CCDC's data processing and validation procedures.
#
#######################################################################

data_AMUTEI
_symmetry_cell_setting           orthorhombic
_symmetry_space_group_name_H-M   'P 21 21 2'
_symmetry_Int_Tables_number      18
_space_group_name_Hall           'P 2 2ab'
loop_
_symmetry_equiv_pos_site_id
_symmetry_equiv_pos_as_xyz
1 x,y,z
2 1/2+x,1/2-y,-z
3 1/2-x,1/2+y,-z
4 -x,-y,z
_cell_length_a                   9.6784(5)
_cell_length_b                   24.3310(13)
_cell_length_c                   8.8933(4)
_cell_angle_alpha                90
_cell_angle_beta                 90
_cell_angle_gamma                90
_cell_volume                     2094.24
loop_
_atom_site_label
_atom_site_type_symbol
_atom_site_fract_x
_atom_site_fract_y
_atom_site_fract_z
Ag1 Ag 0.38569(3) 0.545084(10) 0.69551(3)
Cl1 Cl 0.34642(8) 0.45318(4) 0.59614(10)
P1 P 0.32598(9) 0.62647(3) 0.82812(10)
O1 O 0.1960(2) 0.60867(10) 0.5508(3)
N1 N 0.0004(3) 0.55831(10) 0.5508(3)
H1 H -0.0779 0.5508 0.5968
C1 C 0.3945(4) 0.68749(13) 0.7353(3)
C2 C 0.5380(4) 0.69038(15) 0.7203(4)
H2 H 0.5937 0.6607 0.7542
C3 C 0.5997(5) 0.73600(16) 0.6564(4)
H3 H 0.6975 0.7384 0.6505
C4 C 0.5176(5) 0.77834(17) 0.6010(4)
H4 H 0.5597 0.8095 0.5556
C5 C 0.3754(5) 0.77537(15) 0.6114(4)
H5 H 0.3195 0.8041 0.5724
C6 C 0.3146(4) 0.72996(14) 0.6794(4)
H6 H 0.2169 0.7281 0.6876
C7 C 0.3985(4) 0.63155(14) 1.0175(4)
C8 C 0.4287(4) 0.68152(16) 1.0857(4)
H7 H 0.4184 0.7147 1.0305
C9 C 0.4737(4) 0.68329(18) 1.2336(4)
H8 H 0.4932 0.7176 1.2802
C10 C 0.4901(5) 0.6353(2) 1.3123(6)
H9 H 0.5207 0.6364 1.4137
C11 C 0.4623(6) 0.5852(2) 1.2454(5)
H10 H 0.4749 0.5520 1.3002
C12 C 0.4165(4) 0.58357(16) 1.0987(5)
H11 H 0.3970 0.5492 1.0529
C13 C 0.1411(3) 0.64069(12) 0.8568(3)
C14 C 0.0396(3) 0.62382(13) 0.7532(4)
C15 C 0.0836(3) 0.59669(13) 0.6090(4)
C16 C 0.0350(3) 0.52831(12) 0.4133(4)
H12 H 0.1373 0.5224 0.4121
C17 C -0.0032(4) 0.55999(14) 0.2733(4)
H13 H 0.0458 0.5957 0.2733
H14 H -0.1037 0.5675 0.2739
C18 C 0.0339(5) 0.52841(15) 0.1319(4)
H15 H 0.1355 0.5242 0.1257
H16 H 0.0028 0.5493 0.0426
C19 C -0.0995(4) 0.63280(14) 0.7845(4)
H17 H -0.1678 0.6217 0.7140
C20 C -0.1389(4) 0.65758(16) 0.9170(4)
H18 H -0.2342 0.6631 0.9377
C21 C -0.0419(4) 0.67438(15) 1.0189(4)
H19 H -0.0699 0.6919 1.1093
C22 C 0.0974(4) 0.66588(13) 0.9903(4)
H20 H 0.1641 0.6773 1.0622
Ag1C Ag 0.61431(3) 0.454916(10) 0.69551(3)
Ag1C_2 Ag -0.38569(3) 0.454916(10) 0.69551(3)
Cl1C Cl 0.65358(8) 0.54682(4) 0.59614(10)
P1C P -0.32598(9) 0.37353(3) 0.82812(10)
P1C_2 P 0.67402(9) 0.37353(3) 0.82812(10)
O1C O -0.1960(2) 0.39133(10) 0.5508(3)
N1C N -0.0004(3) 0.44169(10) 0.5508(3)
H1C H 0.0779 0.4492 0.5968
C1C C -0.3945(4) 0.31251(13) 0.7353(3)
C2C C -0.5380(4) 0.30962(15) 0.7203(4)
H2C H -0.5937 0.3393 0.7542
C3C C -0.5997(5) 0.26400(16) 0.6564(4)
H3C H -0.6975 0.2616 0.6505
C4C C -0.5176(5) 0.22166(17) 0.6010(4)
H4C H -0.5597 0.1905 0.5556
C5C C -0.3754(5) 0.22463(15) 0.6114(4)
H5C H -0.3195 0.1959 0.5724
C6C C -0.3146(4) 0.27004(14) 0.6794(4)
H6C H -0.2169 0.2719 0.6876
C7C C -0.3985(4) 0.36845(14) 1.0175(4)
C8C C -0.4287(4) 0.31848(16) 1.0857(4)
H7C H -0.4184 0.2853 1.0305
C9C C -0.4737(4) 0.31671(18) 1.2336(4)
H8C H -0.4932 0.2824 1.2802
C10C C -0.4901(5) 0.3647(2) 1.3123(6)
H9C H -0.5207 0.3636 1.4137
C11C C -0.4623(6) 0.4148(2) 1.2454(5)
H10C H -0.4749 0.4480 1.3002
C12C C -0.4165(4) 0.41643(16) 1.0987(5)
H11C H -0.3970 0.4508 1.0529
C13C C -0.1411(3) 0.35931(12) 0.8568(3)
C14C C -0.0396(3) 0.37618(13) 0.7532(4)
C15C C -0.0836(3) 0.40331(13) 0.6090(4)
C16C C -0.0350(3) 0.47169(12) 0.4133(4)
H12C H -0.1373 0.4776 0.4121
C17C C 0.0032(4) 0.44001(14) 0.2733(4)
H13C H -0.0458 0.4043 0.2733
H14C H 0.1037 0.4325 0.2739
C18C C -0.0339(5) 0.47159(15) 0.1319(4)
H15C H -0.1355 0.4758 0.1257
H16C H -0.0028 0.4507 0.0426
C19C C 0.0995(4) 0.36720(14) 0.7845(4)
H17C H 0.1678 0.3783 0.7140
C20C C 0.1389(4) 0.34242(16) 0.9170(4)
H18C H 0.2342 0.3369 0.9377
C21C C 0.0419(4) 0.32562(15) 1.0189(4)
H19C H 0.0699 0.3081 1.1093
C22C C -0.0974(4) 0.33412(13) 0.9903(4)
H20C H -0.1641 0.3227 1.0622
loop_
_geom_bond_atom_site_label_1
_geom_bond_atom_site_label_2
_geom_bond_site_symmetry_1
_geom_bond_site_symmetry_2
Ag1 Cl1 1_555 1_555
Cl1 Ag1C 1_555 1_555
P1 Ag1 1_555 1_555
O1 C15 1_555 1_555
N1 H1 1_555 1_555
C1 P1 1_555 1_555
C2 C1 1_555 1_555
H2 C2 1_555 1_555
C3 C2 1_555 1_555
H3 C3 1_555 1_555
C4 C3 1_555 1_555
H4 C4 1_555 1_555
C5 C4 1_555 1_555
H5 C5 1_555 1_555
C6 C1 1_555 1_555
H6 C6 1_555 1_555
C7 P1 1_555 1_555
C8 C7 1_555 1_555
H7 C8 1_555 1_555
C9 C8 1_555 1_555
H8 C9 1_555 1_555
C10 C9 1_555 1_555
H9 C10 1_555 1_555
C11 C10 1_555 1_555
H10 C11 1_555 1_555
C12 C7 1_555 1_555
H11 C12 1_555 1_555
C13 P1 1_555 1_555
C14 C13 1_555 1_555
C15 N1 1_555 1_555
C16 N1 1_555 1_555
H12 C16 1_555 1_555
C17 C16 1_555 1_555
H13 C17 1_555 1_555
H14 C17 1_555 1_555
C18 C17 1_555 1_555
H15 C18 1_555 1_555
H16 C18 1_555 1_555
C19 C14 1_555 1_555
H17 C19 1_555 1_555
C20 C19 1_555 1_555
H18 C20 1_555 1_555
C21 C20 1_555 1_555
H19 C21 1_555 1_555
C22 C13 1_555 1_555
H20 C22 1_555 1_555
Ag1C Cl1C 1_555 1_555
Ag1C_2 P1C 1_555 1_555
Cl1C Ag1 1_555 1_555
P1C C1C 1_555 1_555
P1C_2 Ag1C 1_555 1_555
O1C C15C 1_555 1_555
N1C H1C 1_555 1_555
C1C C2C 1_555 1_555
C2C H2C 1_555 1_555
C3C C2C 1_555 1_555
H3C C3C 1_555 1_555
C4C C3C 1_555 1_555
H4C C4C 1_555 1_555
C5C C4C 1_555 1_555
H5C C5C 1_555 1_555
C6C C1C 1_555 1_555
H6C C6C 1_555 1_555
C7C P1C 1_555 1_555
C8C C7C 1_555 1_555
H7C C8C 1_555 1_555
C9C C8C 1_555 1_555
H8C C9C 1_555 1_555
C10C C9C 1_555 1_555
H9C C10C 1_555 1_555
C11C C10C 1_555 1_555
H10C C11C 1_555 1_555
C12C C7C 1_555 1_555
H11C C12C 1_555 1_555
C13C P1C 1_555 1_555
C14C C13C 1_555 1_555
C15C N1C 1_555 1_555
C16C C16 1_555 1_555
H12C C16C 1_555 1_555
C17C C16C 1_555 1_555
H13C C17C 1_555 1_555
H14C C17C 1_555 1_555
C18C C18 1_555 1_555
H15C C18C 1_555 1_555
H16C C18C 1_555 1_555
C19C C14C 1_555 1_555
H17C C19C 1_555 1_555
C20C C19C 1_555 1_555
H18C C20C 1_555 1_555
C21C C20C 1_555 1_555
H19C C21C 1_555 1_555
C22C C13C 1_555 1_555
H20C C22C 1_555 1_555
C5 C6 1_555 1_555
C11 C12 1_555 1_555
C14 C15 1_555 1_555
C21 C22 1_555 1_555
N1C C16C 1_555 1_555
C5C C6C 1_555 1_555
C11C C12C 1_555 1_555
C14C C15C 1_555 1_555
C17C C18C 1_555 1_555
C21C C22C 1_555 1_555

#END
