
#######################################################################
#
#                 Cambridge Crystallographic Data Centre
#                                CCDC 
#
#######################################################################
#
# If this CIF has been generated from an entry in the Cambridge 
# Structural Database, then it will include bibliographic, chemical, 
# crystal, experimental, refinement or atomic coordinate data resulting 
# from the CCDC's data processing and validation procedures.
#
#######################################################################

data_AMUWIP
_symmetry_cell_setting           orthorhombic
_symmetry_space_group_name_H-M   'P n n 2'
_symmetry_Int_Tables_number      34
_space_group_name_Hall           'P 2 -2n'
loop_
_symmetry_equiv_pos_site_id
_symmetry_equiv_pos_as_xyz
1 x,y,z
2 -x,-y,z
3 1/2+x,1/2-y,1/2+z
4 1/2-x,1/2+y,1/2+z
_cell_length_a                   25.433(1)
_cell_length_b                   31.146(2)
_cell_length_c                   20.939(1)
_cell_angle_alpha                90
_cell_angle_beta                 90
_cell_angle_gamma                90
_cell_volume                     16586.5
loop_
_atom_site_label
_atom_site_type_symbol
_atom_site_fract_x
_atom_site_fract_y
_atom_site_fract_z
C1 C 0.8964(3) 0.5327(3) 0.5042(4)
H1 H 0.8828 0.5090 0.4830
C2 C 0.8627(3) 0.5597(3) 0.5293(4)
H2 H 0.8272 0.5527 0.5292
C3 C 0.8784(3) 0.5982(3) 0.5558(5)
C4 C 0.9323(3) 0.6063(2) 0.5594(4)
H3 H 0.9463 0.6303 0.5795
C5 C 0.9642(3) 0.5739(3) 0.5290(4)
H4 H 0.9996 0.5808 0.5248
C6 C 0.8430(3) 0.6321(2) 0.5798(4)
C7 C 0.7911(3) 0.6214(2) 0.5925(4)
H5 H 0.7792 0.5938 0.5837
C8 C 0.7560(3) 0.6519(3) 0.6187(4)
H6 H 0.7217 0.6434 0.6272
C9 C 0.7697(3) 0.6919(3) 0.6316(4)
C10 C 0.8232(4) 0.7018(3) 0.6216(5)
H7 H 0.8356 0.7288 0.6334
C11 C 0.8581(3) 0.6725(3) 0.5947(4)
H8 H 0.8925 0.6810 0.5866
C12 C 0.7320(3) 0.7215(3) 0.6613(5)
C13 C 0.6907(4) 0.7106(3) 0.6952(4)
H9 H 0.6865 0.6815 0.7035
C14 C 0.6522(3) 0.7383(3) 0.7202(4)
H10 H 0.6232 0.7278 0.7423
C15 C 0.6594(3) 0.7811(3) 0.7105(4)
C16 C 0.7037(4) 0.7958(3) 0.6780(5)
H11 H 0.7094 0.8251 0.6731
C17 C 0.7398(3) 0.7658(3) 0.6524(4)
H12 H 0.7689 0.7754 0.6296
C18 C 0.5315(3) 0.8322(3) 0.7635(5)
H13 H 0.4967 0.8238 0.7691
C19 C 0.5653(3) 0.8043(2) 0.7409(5)
H14 H 0.5535 0.7769 0.7303
C20 C 0.6209(3) 0.8148(3) 0.7318(5)
C21 C 0.6332(3) 0.8561(3) 0.7442(4)
H15 H 0.6663 0.8668 0.7342
C22 C 0.5942(3) 0.8829(3) 0.7731(5)
H16 H 0.6041 0.9097 0.7887
C23 C 0.0251(3) 0.5825(3) 1.1324(4)
H17 H -0.0092 0.5903 1.1426
C24 C 0.0567(3) 0.6121(3) 1.1045(5)
H18 H 0.0448 0.6401 1.0990
C25 C 0.1063(3) 0.6009(3) 1.0841(5)
C26 C 0.1211(3) 0.5601(3) 1.0926(5)
H19 H 0.1540 0.5511 1.0786
C27 C 0.0888(4) 0.5324(3) 1.1209(5)
H20 H 0.0997 0.5039 1.1238
C28 C 0.1398(3) 0.6333(3) 1.0498(5)
C29 C 0.1234(3) 0.6740(3) 1.0309(4)
H21 H 0.0883 0.6815 1.0364
C30 C 0.1582(3) 0.7043(3) 1.0039(5)
H22 H 0.1457 0.7311 0.9912
C31 C 0.2126(3) 0.6940(3) 0.9960(5)
C32 C 0.2273(3) 0.6559(3) 1.0160(4)
H23 H 0.2628 0.6491 1.0126
C33 C 0.1937(3) 0.6244(3) 1.0422(5)
H24 H 0.2071 0.5979 1.0544
C34 C 0.2480(3) 0.7260(3) 0.9717(4)
C35 C 0.2380(4) 0.7694(3) 0.9784(5)
H25 H 0.2062 0.7787 0.9952
C36 C 0.2764(3) 0.7994(3) 0.9597(5)
H26 H 0.2697 0.8286 0.9639
C37 C 0.3250(3) 0.7856(3) 0.9348(5)
C38 C 0.3333(4) 0.7418(3) 0.9278(5)
H27 H 0.3647 0.7321 0.9103
C39 C 0.2957(4) 0.7126(3) 0.9465(5)
H28 H 0.3024 0.6833 0.9423
C40 C 0.4559(3) 0.8326(3) 0.8902(4)
H29 H 0.4905 0.8234 0.8862
C41 C 0.4199(3) 0.8044(3) 0.9099(4)
H30 H 0.4297 0.7766 0.9209
C42 C 0.3662(3) 0.8175(3) 0.9139(4)
C43 C 0.3567(4) 0.8598(3) 0.9009(5)
H31 H 0.3229 0.8707 0.9060
C44 C 0.3939(3) 0.8850(3) 0.8816(4)
H32 H 0.3848 0.9129 0.8708
Cu1 Cu 1.0000 0.5000 0.45677(8)
Cu2 Cu 0.0000 0.5000 1.20046(8)
Cu3 Cu 0.49585(3) 0.91370(3) 0.82722(6)
N1 N 0.9509(3) 0.5367(2) 0.5068(4)
N2 N 0.5446(3) 0.8709(2) 0.7783(4)
N3 N 0.0412(3) 0.5427(2) 1.1460(4)
N4 N 0.4448(2) 0.8739(2) 0.8759(4)
S1 S 1.04803(7) 0.54269(6) 0.38909(11)
S2 S 0.44658(8) 0.96090(6) 0.76626(11)
W1 W 1.0000 0.5000 0.32792(2)
C1A C 1.1036(3) 0.4673(3) 0.5042(4)
H1A H 1.1172 0.4910 0.4830
C2A C 1.1373(3) 0.4403(3) 0.5293(4)
H2A H 1.1728 0.4473 0.5292
C3A C 1.1216(3) 0.4018(3) 0.5558(5)
C4A C 1.0677(3) 0.3937(2) 0.5594(4)
H3A H 1.0537 0.3697 0.5795
C5A C 1.0358(3) 0.4261(3) 0.5290(4)
H4A H 1.0004 0.4192 0.5248
C6A C 1.1570(3) 0.3679(2) 0.5798(4)
C7A C 1.2089(3) 0.3786(2) 0.5925(4)
H5A H 1.2208 0.4062 0.5837
C8A C 1.2440(3) 0.3481(3) 0.6187(4)
H6A H 1.2783 0.3566 0.6272
C9A C 1.2303(3) 0.3081(3) 0.6316(4)
C10A C 1.1768(4) 0.2982(3) 0.6216(5)
H7A H 1.1644 0.2712 0.6334
C11A C 1.1419(3) 0.3275(3) 0.5947(4)
H8A H 1.1075 0.3190 0.5866
C12A C 1.2680(3) 0.2785(3) 0.6613(5)
C13A C 1.3093(4) 0.2894(3) 0.6952(4)
H9A H 1.3135 0.3185 0.7035
C14A C 1.3478(3) 0.2617(3) 0.7202(4)
H10A H 1.3768 0.2722 0.7423
C15A C 1.3406(3) 0.2189(3) 0.7105(4)
C16A C 1.2963(4) 0.2042(3) 0.6780(5)
H11A H 1.2906 0.1749 0.6731
C17A C 1.2602(3) 0.2342(3) 0.6524(4)
H12A H 1.2311 0.2246 0.6296
C18A C 1.4685(3) 0.1678(3) 0.7635(5)
H13A H 1.5033 0.1762 0.7691
C19A C 1.4347(3) 0.1957(2) 0.7409(5)
H14A H 1.4465 0.2231 0.7303
C20A C 1.3791(3) 0.1852(3) 0.7318(5)
C21A C 1.3668(3) 0.1439(3) 0.7442(4)
H15A H 1.3337 0.1332 0.7342
C22A C 1.4058(3) 0.1171(3) 0.7731(5)
H16A H 1.3959 0.0903 0.7887
C23A C 1.9749(3) 0.4175(3) 1.1324(4)
H17A H 2.0092 0.4097 1.1426
C24A C 1.9433(3) 0.3879(3) 1.1045(5)
H18A H 1.9552 0.3599 1.0990
C25A C 1.8937(3) 0.3991(3) 1.0841(5)
C26A C 1.8789(3) 0.4399(3) 1.0926(5)
H19A H 1.8460 0.4489 1.0786
C27A C 1.9112(4) 0.4676(3) 1.1209(5)
H20A H 1.9003 0.4961 1.1238
C28A C 1.8602(3) 0.3667(3) 1.0498(5)
C29A C 1.8766(3) 0.3260(3) 1.0309(4)
H21A H 1.9117 0.3185 1.0364
C30A C 1.8418(3) 0.2957(3) 1.0039(5)
H22A H 1.8543 0.2689 0.9912
C31A C 1.7874(3) 0.3060(3) 0.9960(5)
C32A C 1.7727(3) 0.3441(3) 1.0160(4)
H23A H 1.7372 0.3509 1.0126
C33A C 1.8063(3) 0.3756(3) 1.0422(5)
H24A H 1.7929 0.4021 1.0544
C34A C 1.7520(3) 0.2740(3) 0.9717(4)
C35A C 1.7620(4) 0.2306(3) 0.9784(5)
H25A H 1.7938 0.2213 0.9952
C36A C 1.7236(3) 0.2006(3) 0.9597(5)
H26A H 1.7303 0.1714 0.9639
C37A C 1.6750(3) 0.2144(3) 0.9348(5)
C38A C 1.6667(4) 0.2582(3) 0.9278(5)
H27A H 1.6353 0.2679 0.9103
C39A C 1.7043(4) 0.2874(3) 0.9465(5)
H28A H 1.6976 0.3167 0.9423
C40A C 1.5441(3) 0.1674(3) 0.8902(4)
H29A H 1.5095 0.1766 0.8862
C41A C 1.5801(3) 0.1956(3) 0.9099(4)
H30A H 1.5703 0.2234 0.9209
C42A C 1.6338(3) 0.1825(3) 0.9139(4)
C43A C 1.6433(4) 0.1402(3) 0.9009(5)
H31A H 1.6771 0.1293 0.9060
C44A C 1.6061(3) 0.1150(3) 0.8816(4)
H32A H 1.6152 0.0871 0.8708
Cu2B Cu 0.5000 1.0000 0.70046(8)
Cu2_2 Cu 1.0000 0.5000 0.20046(8)
Cu2_3 Cu 2.0000 0.5000 1.20046(8)
Cu3A Cu 1.50415(3) 0.08630(3) 0.82722(6)
Cu3B Cu 0.99585(3) 0.58630(3) 0.32722(6)
Cu3C Cu 1.00415(3) 0.41370(3) 0.32722(6)
N1A N 1.0491(3) 0.4633(2) 0.5068(4)
N2A N 1.4554(3) 0.1291(2) 0.7783(4)
N3A N 1.9588(3) 0.4573(2) 1.1460(4)
N3A_2 N -0.0412(3) 0.4573(2) 1.1460(4)
N4A N 1.5552(2) 0.1261(2) 0.8759(4)
S1A S 0.95197(7) 0.45731(6) 0.38909(11)
S1B S 0.54803(7) 0.95731(6) 0.88909(11)
S1C S 1.45197(7) 0.04269(6) 0.88909(11)
S2C S 1.05342(8) 0.46090(6) 0.26626(11)
S2C_2 S 0.05342(8) 0.46090(6) 1.26626(11)
S2B S -0.05342(8) 0.53910(6) 1.26626(11)
S2B_2 S 0.94658(8) 0.53910(6) 0.26626(11)
S2A S 1.55342(8) 0.03910(6) 0.76626(11)
W1B W 0.5000 1.0000 0.82792(2)
C45 C 0.3293(4) 0.0775(3) 1.0237(5)
H33 H 0.3164 0.0593 1.0553
C46 C 0.3655(5) 0.1123(3) 1.0418(6)
H34 H 0.3766 0.1154 1.0839
C47 C 0.3834(4) 0.1415(3) 0.9937(5)
C48 C 0.3628(4) 0.1331(3) 0.9350(5)
H35 H 0.3717 0.1521 0.9025
C49 C 0.3293(4) 0.0987(3) 0.9181(5)
H36 H 0.3178 0.0952 0.8762
C50 C 0.4198(3) 0.1757(3) 1.0102(4)
C51 C 0.4557(4) 0.1694(4) 1.0577(5)
H37 H 0.4554 0.1433 1.0793
C52 C 0.4922(4) 0.1997(3) 1.0751(5)
H38 H 0.5157 0.1940 1.1080
C53 C 0.4939(3) 0.2395(3) 1.0429(4)
C54 C 0.4584(4) 0.2447(4) 0.9944(5)
H39 H 0.4583 0.2701 0.9712
C55 C 0.4226(4) 0.2128(3) 0.9792(5)
H40 H 0.3994 0.2176 0.9456
C56 C 0.5349(2) 0.27219(17) 1.0625(3)
C57 C 0.5498(3) 0.27999(18) 1.1253(3)
H41 H 0.5359 0.2634 1.1582
C58 C 0.5854(2) 0.3126(2) 1.1390(2)
H42 H 0.5953 0.3178 1.1811
C59 C 0.6061(2) 0.33737(17) 1.0899(3)
C60 C 0.5913(3) 0.3296(2) 1.0271(3)
H43 H 0.6051 0.3462 0.9942
C61 C 0.5557(3) 0.2970(2) 1.0134(2)
H44 H 0.5457 0.2918 0.9714
C62 C 0.7016(4) 0.4034(3) 1.1781(4)
H45 H 0.7202 0.4009 1.2161
C63 C 0.6714(4) 0.3705(3) 1.1614(5)
H46 H 0.6704 0.3459 1.1865
C64 C 0.6419(3) 0.3730(3) 1.1069(4)
C65 C 0.6478(3) 0.4085(3) 1.0671(5)
H47 H 0.6300 0.4105 1.0284
C66 C 0.6815(4) 0.4409(3) 1.0881(5)
H48 H 0.6863 0.4644 1.0614
C67 C 0.2886(4) -0.1613(3) 0.7750(5)
H49 H 0.2629 -0.1748 0.7994
C68 C 0.3254(3) -0.1856(3) 0.7469(5)
H50 H 0.3263 -0.2152 0.7535
C69 C 0.3635(4) -0.1649(3) 0.7060(5)
C70 C 0.3584(3) -0.1221(3) 0.7005(4)
H51 H 0.3816 -0.1072 0.6743
C71 C 0.3216(3) -0.1007(3) 0.7309(4)
H52 H 0.3198 -0.0711 0.7249
C72 C 0.4012(4) -0.1922(3) 0.6687(5)
C73 C 0.4238(3) -0.2285(3) 0.6953(4)
H53 H 0.4151 -0.2374 0.7363
C74 C 0.4599(3) -0.2512(3) 0.6586(4)
H54 H 0.4752 -0.2757 0.6758
C75 C 0.4739(4) -0.2386(3) 0.5972(5)
C76 C 0.4551(3) -0.2003(3) 0.5731(5)
H55 H 0.4677 -0.1897 0.5345
C77 C 0.4166(3) -0.1774(3) 0.6075(5)
H56 H 0.4015 -0.1528 0.5902
C78 C 0.5159(4) -0.2632(3) 0.5616(5)
C79 C 0.5523(3) -0.2898(3) 0.5920(5)
H57 H 0.5539 -0.2910 0.6363
C80 C 0.5861(3) -0.3147(3) 0.5550(5)
H58 H 0.6108 -0.3323 0.5748
C81 C 0.5832(5) -0.3134(3) 0.4884(5)
C82 C 0.5467(3) -0.2876(3) 0.4589(5)
H59 H 0.5447 -0.2872 0.4145
C83 C 0.5126(4) -0.2618(3) 0.4948(5)
H60 H 0.4882 -0.2441 0.4747
C84 C 0.6630(3) -0.3563(3) 0.3515(5)
H61 H 0.6685 -0.3498 0.3086
C85 C 0.6285(4) -0.3324(3) 0.3875(5)
H62 H 0.6100 -0.3102 0.3680
C86 C 0.6211(4) -0.3399(3) 0.4483(5)
C87 C 0.6488(4) -0.3758(3) 0.4758(5)
H63 H 0.6451 -0.3828 0.5187
C88 C 0.6805(4) -0.3989(3) 0.4365(5)
H64 H 0.6971 -0.4231 0.4528
Cu4 Cu 0.25921(5) 0.02215(4) 0.93640(6)
Cu5 Cu 0.23900(3) -0.07468(3) 0.82042(5)
Cu6 Cu 0.75188(4) 0.49486(4) 1.17917(6)
I1 I 0.22213(3) -0.00318(2) 1.04574(3)
I2 I 0.78354(2) 0.536700(19) 1.08189(3)
N5 N 0.3146(3) 0.0713(3) 0.9639(4)
N6 N 0.7076(3) 0.4407(2) 1.1441(4)
N7 N 0.2868(3) -0.1190(2) 0.7698(4)
N8 N 0.6884(3) -0.3890(2) 0.3787(4)
S3 S 0.21227(9) 0.05908(7) 0.86071(12)
S4 S 0.29619(7) -0.03287(6) 0.87859(10)
S5 S 0.19689(7) -0.02871(6) 0.75091(10)
S6 S 0.81305(9) 0.46297(7) 1.24231(13)
W2 W 0.254618(11) 0.009825(10) 0.808260(19)
C45B C -0.1707(4) 0.4225(3) 0.5237(5)
H33B H -0.1836 0.4407 0.5553
C46B C -0.1345(5) 0.3877(3) 0.5418(6)
H34B H -0.1234 0.3846 0.5839
C47B C -0.1166(4) 0.3585(3) 0.4937(5)
C48B C -0.1372(4) 0.3669(3) 0.4350(5)
H35B H -0.1283 0.3479 0.4025
C49B C -0.1707(4) 0.4013(3) 0.4181(5)
H36B H -0.1822 0.4048 0.3762
C50B C -0.0802(3) 0.3243(3) 0.5102(4)
C51B C -0.0443(4) 0.3306(4) 0.5577(5)
H37B H -0.0446 0.3567 0.5793
C52B C -0.0078(4) 0.3003(3) 0.5751(5)
H38B H 0.0157 0.3060 0.6080
C53B C -0.0061(3) 0.2605(3) 0.5429(4)
C54B C -0.0416(4) 0.2553(4) 0.4944(5)
H39B H -0.0417 0.2299 0.4712
C55B C -0.0774(4) 0.2872(3) 0.4792(5)
H40B H -0.1006 0.2824 0.4456
C56B C 0.0349(2) 0.22781(17) 0.5625(3)
C57B C 0.0498(3) 0.22001(18) 0.6253(3)
H41B H 0.0359 0.2366 0.6582
C58B C 0.0854(2) 0.1874(2) 0.6390(2)
H42B H 0.0953 0.1822 0.6811
C59B C 0.1061(2) 0.16263(17) 0.5899(3)
C60B C 0.0913(3) 0.1704(2) 0.5271(3)
H43B H 0.1051 0.1538 0.4942
C61B C 0.0557(3) 0.2030(2) 0.5134(2)
H44B H 0.0457 0.2082 0.4714
C62B C 0.2016(4) 0.0966(3) 0.6781(4)
H45B H 0.2202 0.0991 0.7161
C63B C 0.1714(4) 0.1295(3) 0.6614(5)
H46B H 0.1704 0.1541 0.6865
C64B C 0.1419(3) 0.1270(3) 0.6069(4)
C65B C 0.1478(3) 0.0915(3) 0.5671(5)
H47B H 0.1300 0.0895 0.5284
C66B C 0.1815(4) 0.0591(3) 0.5881(5)
H48B H 0.1863 0.0356 0.5614
C67B C -0.2114(4) -0.3387(3) 1.2750(5)
H49B H -0.2371 -0.3252 1.2994
C68B C -0.1746(3) -0.3144(3) 1.2469(5)
H50B H -0.1737 -0.2848 1.2535
C69B C -0.1365(4) -0.3351(3) 1.2060(5)
C70B C -0.1416(3) -0.3779(3) 1.2005(4)
H51B H -0.1184 -0.3928 1.1743
C71B C -0.1784(3) -0.3993(3) 1.2309(4)
H52B H -0.1802 -0.4289 1.2249
C72B C -0.0988(4) -0.3078(3) 1.1687(5)
C73B C -0.0762(3) -0.2715(3) 1.1953(4)
H53B H -0.0849 -0.2626 1.2363
C74B C -0.0401(3) -0.2488(3) 1.1586(4)
H54B H -0.0248 -0.2243 1.1758
C75B C -0.0261(4) -0.2614(3) 1.0972(5)
C76B C -0.0449(3) -0.2997(3) 1.0731(5)
H55B H -0.0323 -0.3103 1.0345
C77B C -0.0834(3) -0.3226(3) 1.1075(5)
H56B H -0.0985 -0.3472 1.0902
C78B C 0.0159(4) -0.2368(3) 1.0616(5)
C79B C 0.0523(3) -0.2102(3) 1.0920(5)
H57B H 0.0539 -0.2090 1.1363
C80B C 0.0861(3) -0.1853(3) 1.0550(5)
H58B H 0.1108 -0.1677 1.0748
C81B C 0.0832(5) -0.1866(3) 0.9884(5)
C82B C 0.0467(3) -0.2124(3) 0.9589(5)
H59B H 0.0447 -0.2128 0.9145
C83B C 0.0126(4) -0.2382(3) 0.9948(5)
H60B H -0.0118 -0.2559 0.9747
C84B C 0.1630(3) -0.1437(3) 0.8515(5)
H61B H 0.1685 -0.1502 0.8086
C85B C 0.1285(4) -0.1676(3) 0.8875(5)
H62B H 0.1100 -0.1898 0.8680
C86B C 0.1211(4) -0.1601(3) 0.9483(5)
C87B C 0.1488(4) -0.1242(3) 0.9758(5)
H63B H 0.1451 -0.1172 1.0187
C88B C 0.1805(4) -0.1011(3) 0.9365(5)
H64B H 0.1971 -0.0769 0.9528
Cu4B Cu -0.24079(5) 0.47785(4) 0.43640(6)
Cu4B_2 Cu -0.24079(5) -0.52215(4) 1.43640(6)
Cu4B_3 Cu 0.75921(5) 0.47785(4) 1.43640(6)
Cu5B Cu -0.26100(3) -0.42532(3) 1.32042(5)
Cu5B_2 Cu 0.73900(3) -0.42532(3) 0.32042(5)
Cu5B_3 Cu 0.73900(3) 0.57468(3) 1.32042(5)
Cu6B Cu 0.25188(4) 0.00514(4) 0.67917(6)
I1B I -0.27787(3) 0.50318(2) 0.54574(3)
I2B I 0.28354(2) -0.036700(19) 0.58189(3)
N5B N -0.1854(3) 0.4287(3) 0.4639(4)
N6B N 0.2076(3) 0.0593(2) 0.6441(4)
N7B N -0.2132(3) -0.3810(2) 1.2698(4)
N8B N 0.1884(3) -0.1110(2) 0.8787(4)
N8_2 N -0.3116(3) -0.3890(2) 1.3787(4)
S3B S 0.71227(9) 0.44092(7) 1.36071(12)
S3B_2 S -0.28773(9) 0.44092(7) 0.36071(12)
S4B S -0.20381(7) -0.46713(6) 1.37859(10)
S4B_2 S 0.79619(7) 0.53287(6) 1.37859(10)
S4B_3 S -0.20381(7) 0.53287(6) 0.37859(10)
S5B S 0.69689(7) 0.52871(6) 1.25091(10)
S5B_2 S -0.30311(7) -0.47129(6) 1.25091(10)
S6B S 0.31305(9) 0.03703(7) 0.74231(13)
W2B W 0.754618(11) 0.490175(10) 1.308260(19)
W2B_2 W -0.245382(11) -0.509825(10) 1.308260(19)
C89 C 0.5835(3) 0.4627(3) 0.4473(4)
H65 H 0.5964 0.4905 0.4449
C90 C 0.6130(3) 0.4328(3) 0.4763(4)
H66 H 0.6444 0.4412 0.4951
C91 C 0.5995(4) 0.3921(3) 0.4792(5)
C92 C 0.5472(3) 0.3850(3) 0.4569(4)
H67 H 0.5316 0.3582 0.4622
C93 C 0.5207(3) 0.4160(2) 0.4287(4)
H68 H 0.4876 0.4095 0.4125
C94 C 0.6335(3) 0.3556(3) 0.5016(4)
C95 C 0.6859(3) 0.3565(2) 0.4803(5)
H69 H 0.6969 0.3777 0.4520
C96 C 0.7212(3) 0.3258(3) 0.5014(4)
H70 H 0.7559 0.3266 0.4876
C97 C 0.7047(3) 0.2938(3) 0.5433(4)
C98 C 0.6526(3) 0.2926(2) 0.5636(4)
H71 H 0.6413 0.2713 0.5915
C99 C 0.6174(3) 0.3238(3) 0.5414(5)
H72 H 0.5824 0.3227 0.5542
C100 C 0.7440(3) 0.2593(3) 0.5615(4)
C101 C 0.7287(3) 0.2179(2) 0.5799(4)
H73 H 0.6937 0.2096 0.5759
C102 C 0.7656(3) 0.1892(3) 0.6041(4)
H74 H 0.7551 0.1617 0.6157
C103 C 0.8181(3) 0.2014(3) 0.6110(4)
C104 C 0.8336(3) 0.2424(3) 0.5940(5)
H75 H 0.8686 0.2507 0.5985
C105 C 0.7968(3) 0.2710(3) 0.5704(4)
H76 H 0.8074 0.2988 0.5602
C106 C 0.8861(3) 0.1107(3) 0.6920(4)
H77 H 0.8759 0.0846 0.7095
C107 C 0.8497(3) 0.1364(2) 0.6728(4)
H78 H 0.8151 0.1304 0.6841
C108 C 0.8592(3) 0.1716(3) 0.6370(4)
C109 C 0.9116(3) 0.1796(3) 0.6242(4)
H79 H 0.9219 0.2023 0.5982
C110 C 0.9488(3) 0.1518(2) 0.6522(4)
H80 H 0.9841 0.1575 0.6439
C111 C 1.4687(3) 0.4275(3) 1.0199(4)
H81 H 1.5046 0.4224 1.0160
C112 C 1.4334(3) 0.4016(3) 0.9888(4)
H82 H 1.4464 0.3820 0.9592
C113 C 1.3810(3) 0.4027(3) 0.9986(4)
C114 C 1.3633(3) 0.4328(3) 1.0371(4)
H83 H 1.3276 0.4354 1.0461
C115 C 1.3995(3) 0.4602(3) 1.0634(4)
H84 H 1.3867 0.4816 1.0901
C116 C 1.34134(18) 0.37242(15) 0.9688(3)
C117 C 1.35734(16) 0.33050(17) 0.9570(3)
H85 H 1.3918 0.3223 0.9655
C118 C 1.3219(2) 0.30087(13) 0.9323(3)
H86 H 1.3326 0.2728 0.9244
C119 C 1.27040(19) 0.31316(16) 0.9195(3)
C120 C 1.25440(16) 0.35508(18) 0.9314(3)
H87 H 1.2200 0.3633 0.9228
C121 C 1.2899(2) 0.38471(13) 0.9560(3)
H88 H 1.2792 0.4128 0.9640
C122 C 1.2318(4) 0.2799(3) 0.8974(5)
C123 C 1.2438(4) 0.2461(3) 0.8585(5)
H89 H 1.2787 0.2426 0.8462
C124 C 1.2057(3) 0.2153(3) 0.8351(5)
H90 H 1.2157 0.1931 0.8079
C125 C 1.1552(3) 0.2198(3) 0.8542(4)
C126 C 1.1415(4) 0.2549(3) 0.8922(5)
H91 H 1.1062 0.2591 0.9022
C127 C 1.1788(4) 0.2839(3) 0.9158(5)
H92 H 1.1686 0.3056 0.9436
C128 C 1.0943(3) 0.1193(3) 0.7989(4)
H93 H 1.1043 0.0907 0.7954
C129 C 1.1300(3) 0.1465(3) 0.8189(5)
H94 H 1.1644 0.1376 0.8261
C130 C 1.1160(3) 0.1879(3) 0.8290(5)
C131 C 1.0640(3) 0.2005(3) 0.8164(5)
H95 H 1.0530 0.2286 0.8233
C132 C 1.0302(4) 0.1701(3) 0.7935(4)
H96 H 0.9957 0.1783 0.7850
Cu7 Cu 0.5000 0.5000 0.36757(7)
Cu8 Cu 0.99373(4) 0.08590(3) 0.73838(6)
Cu9 Cu 1.5000 0.5000 1.10867(7)
N9 N 0.5376(3) 0.4547(2) 0.4223(3)
N10 N 0.9383(3) 0.1191(2) 0.6883(4)
N11 N 1.0437(3) 0.1293(2) 0.7828(4)
N12 N 1.4521(3) 0.4589(2) 1.0544(4)
S7 S 1.04754(8) 0.04362(6) 0.67663(11)
S8 S 0.55369(7) 0.53849(6) 0.30028(11)
W3 W 0.5000 0.5000 0.23855(2)
C89A C 0.4165(3) 0.5373(3) 0.4473(4)
H65A H 0.4036 0.5095 0.4449
C90A C 0.3870(3) 0.5672(3) 0.4763(4)
H66A H 0.3556 0.5588 0.4951
C91A C 0.4005(4) 0.6079(3) 0.4792(5)
C92A C 0.4528(3) 0.6150(3) 0.4569(4)
H67A H 0.4684 0.6418 0.4622
C93A C 0.4793(3) 0.5840(2) 0.4287(4)
H68A H 0.5124 0.5905 0.4125
C94A C 0.3665(3) 0.6444(3) 0.5016(4)
C95A C 0.3141(3) 0.6435(2) 0.4803(5)
H69A H 0.3031 0.6223 0.4520
C96A C 0.2788(3) 0.6742(3) 0.5014(4)
H70A H 0.2441 0.6734 0.4876
C97A C 0.2953(3) 0.7062(3) 0.5433(4)
C98A C 0.3474(3) 0.7074(2) 0.5636(4)
H71A H 0.3587 0.7287 0.5915
C99A C 0.3826(3) 0.6762(3) 0.5414(5)
H72A H 0.4176 0.6773 0.5542
C100A C 0.2560(3) 0.7407(3) 0.5615(4)
C101A C 0.2713(3) 0.7821(2) 0.5799(4)
H73A H 0.3063 0.7904 0.5759
C102A C 0.2344(3) 0.8108(3) 0.6041(4)
H74A H 0.2449 0.8383 0.6157
C103A C 0.1819(3) 0.7986(3) 0.6110(4)
C104A C 0.1664(3) 0.7576(3) 0.5940(5)
H75A H 0.1314 0.7493 0.5985
C105A C 0.2032(3) 0.7290(3) 0.5704(4)
H76A H 0.1926 0.7012 0.5602
C106A C 0.1139(3) 0.8893(3) 0.6920(4)
H77A H 0.1241 0.9154 0.7095
C107A C 0.1503(3) 0.8636(2) 0.6728(4)
H78A H 0.1849 0.8696 0.6841
C108A C 0.1408(3) 0.8284(3) 0.6370(4)
C109A C 0.0884(3) 0.8204(3) 0.6242(4)
H79A H 0.0781 0.7977 0.5982
C110A C 0.0512(3) 0.8482(2) 0.6522(4)
H80A H 0.0159 0.8425 0.6439
C111A C -0.4687(3) 0.5725(3) 1.0199(4)
H81A H -0.5046 0.5776 1.0160
C112A C -0.4334(3) 0.5984(3) 0.9888(4)
H82A H -0.4464 0.6180 0.9592
C113A C -0.3810(3) 0.5973(3) 0.9986(4)
C114A C -0.3633(3) 0.5672(3) 1.0371(4)
H83A H -0.3276 0.5646 1.0461
C115A C -0.3995(3) 0.5398(3) 1.0634(4)
H84A H -0.3867 0.5184 1.0901
C116A C -0.34134(18) 0.62758(15) 0.9688(3)
C117A C -0.35734(16) 0.66950(17) 0.9570(3)
H85A H -0.3918 0.6777 0.9655
C118A C -0.3219(2) 0.69913(13) 0.9323(3)
H86A H -0.3326 0.7272 0.9244
C119A C -0.27040(19) 0.68684(16) 0.9195(3)
C120A C -0.25440(16) 0.64492(18) 0.9314(3)
H87A H -0.2200 0.6367 0.9228
C121A C -0.2899(2) 0.61529(13) 0.9560(3)
H88A H -0.2792 0.5872 0.9640
C122A C -0.2318(4) 0.7201(3) 0.8974(5)
C123A C -0.2438(4) 0.7539(3) 0.8585(5)
H89A H -0.2787 0.7574 0.8462
C124A C -0.2057(3) 0.7847(3) 0.8351(5)
H90A H -0.2157 0.8069 0.8079
C125A C -0.1552(3) 0.7802(3) 0.8542(4)
C126A C -0.1415(4) 0.7451(3) 0.8922(5)
H91A H -0.1062 0.7409 0.9022
C127A C -0.1788(4) 0.7161(3) 0.9158(5)
H92A H -0.1686 0.6944 0.9436
C128A C -0.0943(3) 0.8807(3) 0.7989(4)
H93A H -0.1043 0.9093 0.7954
C129A C -0.1300(3) 0.8535(3) 0.8189(5)
H94A H -0.1644 0.8624 0.8261
C130A C -0.1160(3) 0.8121(3) 0.8290(5)
C131A C -0.0640(3) 0.7995(3) 0.8164(5)
H95A H -0.0530 0.7714 0.8233
C132A C -0.0302(4) 0.8299(3) 0.7935(4)
H96A H 0.0043 0.8217 0.7850
Cu8A Cu 0.00627(4) 0.91410(3) 0.73838(6)
Cu8C Cu 0.50627(4) 0.58590(3) 0.23838(6)
Cu8B Cu 0.49373(4) 0.41410(3) 0.23838(6)
Cu9B Cu 1.0000 0.0000 0.60867(7)
Cu9_2 Cu 0.5000 0.5000 0.10867(7)
Cu9_3 Cu -0.5000 0.5000 1.10867(7)
N9A N 0.4624(3) 0.5453(2) 0.4223(3)
N10A N 0.0617(3) 0.8809(2) 0.6883(4)
N11A N -0.0437(3) 0.8707(2) 0.7828(4)
N12A N -0.4521(3) 0.5411(2) 1.0544(4)
N12A_2 N 1.5479(3) 0.5411(2) 1.0544(4)
S7B S 0.54754(8) 0.45638(6) 0.17663(11)
S7B_2 S 1.54754(8) 0.45638(6) 1.17663(11)
S7C S 1.45246(8) 0.54362(6) 1.17663(11)
S7C_2 S 0.45246(8) 0.54362(6) 0.17663(11)
S7A S -0.04754(8) 0.95638(6) 0.67663(11)
S8A S 0.44631(7) 0.46151(6) 0.30028(11)
S8C S 0.94631(7) 0.03849(6) 0.80028(11)
S8B S 0.05369(7) 0.96151(6) 0.80028(11)
W3B W 1.0000 0.0000 0.73855(2)
I3 I 0.00825(2) 0.80287(2) 0.32337(3)
loop_
_geom_bond_atom_site_label_1
_geom_bond_atom_site_label_2
_geom_bond_site_symmetry_1
_geom_bond_site_symmetry_2
C1 H1 1_555 1_555
C2 C1 1_555 1_555
H2 C2 1_555 1_555
C3 C2 1_555 1_555
C4 C3 1_555 1_555
H3 C4 1_555 1_555
C5 C4 1_555 1_555
H4 C5 1_555 1_555
C6 C3 1_555 1_555
C7 C6 1_555 1_555
H5 C7 1_555 1_555
C8 C7 1_555 1_555
H6 C8 1_555 1_555
C9 C8 1_555 1_555
C10 C9 1_555 1_555
H7 C10 1_555 1_555
C11 C6 1_555 1_555
H8 C11 1_555 1_555
C12 C9 1_555 1_555
C13 C12 1_555 1_555
H9 C13 1_555 1_555
C14 C13 1_555 1_555
H10 C14 1_555 1_555
C15 C14 1_555 1_555
C16 C15 1_555 1_555
H11 C16 1_555 1_555
C17 C12 1_555 1_555
H12 C17 1_555 1_555
C18 H13 1_555 1_555
C19 C18 1_555 1_555
H14 C19 1_555 1_555
C20 C15 1_555 1_555
C21 C20 1_555 1_555
H15 C21 1_555 1_555
C22 C21 1_555 1_555
H16 C22 1_555 1_555
C23 H17 1_555 1_555
C24 C23 1_555 1_555
H18 C24 1_555 1_555
C25 C24 1_555 1_555
C26 C25 1_555 1_555
H19 C26 1_555 1_555
C27 C26 1_555 1_555
H20 C27 1_555 1_555
C28 C25 1_555 1_555
C29 C28 1_555 1_555
H21 C29 1_555 1_555
C30 C29 1_555 1_555
H22 C30 1_555 1_555
C31 C30 1_555 1_555
C32 C31 1_555 1_555
H23 C32 1_555 1_555
C33 C28 1_555 1_555
H24 C33 1_555 1_555
C34 C31 1_555 1_555
C35 C34 1_555 1_555
H25 C35 1_555 1_555
C36 C35 1_555 1_555
H26 C36 1_555 1_555
C37 C36 1_555 1_555
C38 C37 1_555 1_555
H27 C38 1_555 1_555
C39 C34 1_555 1_555
H28 C39 1_555 1_555
C40 H29 1_555 1_555
C41 C40 1_555 1_555
H30 C41 1_555 1_555
C42 C37 1_555 1_555
C43 C42 1_555 1_555
H31 C43 1_555 1_555
C44 C43 1_555 1_555
H32 C44 1_555 1_555
C45 H33 1_555 1_555
C46 C45 1_555 1_555
H34 C46 1_555 1_555
C47 C46 1_555 1_555
C48 C47 1_555 1_555
H35 C48 1_555 1_555
C49 C48 1_555 1_555
H36 C49 1_555 1_555
C50 C47 1_555 1_555
C51 C50 1_555 1_555
H37 C51 1_555 1_555
C52 C51 1_555 1_555
H38 C52 1_555 1_555
C53 C52 1_555 1_555
C54 C53 1_555 1_555
H39 C54 1_555 1_555
C55 C50 1_555 1_555
H40 C55 1_555 1_555
C56 C53 1_555 1_555
C57 C56 1_555 1_555
H41 C57 1_555 1_555
C58 C57 1_555 1_555
H42 C58 1_555 1_555
C59 C58 1_555 1_555
C60 C59 1_555 1_555
H43 C60 1_555 1_555
C61 C56 1_555 1_555
H44 C61 1_555 1_555
C62 H45 1_555 1_555
C63 C62 1_555 1_555
H46 C63 1_555 1_555
C64 C59 1_555 1_555
C65 C64 1_555 1_555
H47 C65 1_555 1_555
C66 C65 1_555 1_555
H48 C66 1_555 1_555
C67 H49 1_555 1_555
C68 C67 1_555 1_555
H50 C68 1_555 1_555
C69 C68 1_555 1_555
C70 C69 1_555 1_555
H51 C70 1_555 1_555
C71 C70 1_555 1_555
H52 C71 1_555 1_555
C72 C69 1_555 1_555
C73 C72 1_555 1_555
H53 C73 1_555 1_555
C74 C73 1_555 1_555
H54 C74 1_555 1_555
C75 C74 1_555 1_555
C76 C75 1_555 1_555
H55 C76 1_555 1_555
C77 C72 1_555 1_555
H56 C77 1_555 1_555
C78 C75 1_555 1_555
C79 C78 1_555 1_555
H57 C79 1_555 1_555
C80 C79 1_555 1_555
H58 C80 1_555 1_555
C81 C80 1_555 1_555
C82 C81 1_555 1_555
H59 C82 1_555 1_555
C83 C78 1_555 1_555
H60 C83 1_555 1_555
C84 H61 1_555 1_555
C85 C84 1_555 1_555
H62 C85 1_555 1_555
C86 C81 1_555 1_555
C87 C86 1_555 1_555
H63 C87 1_555 1_555
C88 C87 1_555 1_555
H64 C88 1_555 1_555
C89 H65 1_555 1_555
C90 C89 1_555 1_555
H66 C90 1_555 1_555
C91 C90 1_555 1_555
C92 C91 1_555 1_555
H67 C92 1_555 1_555
C93 C92 1_555 1_555
H68 C93 1_555 1_555
C94 C91 1_555 1_555
C95 C94 1_555 1_555
H69 C95 1_555 1_555
C96 C95 1_555 1_555
H70 C96 1_555 1_555
C97 C96 1_555 1_555
C98 C97 1_555 1_555
H71 C98 1_555 1_555
C99 C94 1_555 1_555
H72 C99 1_555 1_555
C100 C97 1_555 1_555
C101 C100 1_555 1_555
H73 C101 1_555 1_555
C102 C101 1_555 1_555
H74 C102 1_555 1_555
C103 C102 1_555 1_555
C104 C103 1_555 1_555
H75 C104 1_555 1_555
C105 C100 1_555 1_555
H76 C105 1_555 1_555
C106 H77 1_555 1_555
C107 C106 1_555 1_555
H78 C107 1_555 1_555
C108 C103 1_555 1_555
C109 C108 1_555 1_555
H79 C109 1_555 1_555
C110 C109 1_555 1_555
H80 C110 1_555 1_555
C111 H81 1_555 1_555
C112 C111 1_555 1_555
H82 C112 1_555 1_555
C113 C112 1_555 1_555
C114 C113 1_555 1_555
H83 C114 1_555 1_555
C115 C114 1_555 1_555
H84 C115 1_555 1_555
C116 C113 1_555 1_555
C117 C116 1_555 1_555
H85 C117 1_555 1_555
C118 C117 1_555 1_555
H86 C118 1_555 1_555
C119 C118 1_555 1_555
C120 C119 1_555 1_555
H87 C120 1_555 1_555
C121 C116 1_555 1_555
H88 C121 1_555 1_555
C122 C119 1_555 1_555
C123 C122 1_555 1_555
H89 C123 1_555 1_555
C124 C123 1_555 1_555
H90 C124 1_555 1_555
C125 C124 1_555 1_555
C126 C125 1_555 1_555
H91 C126 1_555 1_555
C127 C122 1_555 1_555
H92 C127 1_555 1_555
C128 H93 1_555 1_555
C129 C128 1_555 1_555
H94 C129 1_555 1_555
C130 C125 1_555 1_555
C131 C130 1_555 1_555
H95 C131 1_555 1_555
C132 C131 1_555 1_555
H96 C132 1_555 1_555
Cu1 N1 1_555 1_555
Cu2 N3 1_555 1_555
Cu3 N2 1_555 1_555
Cu4 I1 1_555 1_555
Cu5 N7 1_555 1_555
Cu6 I2 1_555 1_555
Cu7 N9 1_555 1_555
Cu8 N10 1_555 1_555
Cu9 N12 1_555 1_555
N1 C1 1_555 1_555
N2 C18 1_555 1_555
N3 C23 1_555 1_555
N4 C40 1_555 1_555
N5 C45 1_555 1_555
N6 C62 1_555 1_555
N7 C67 1_555 1_555
N8 C84 1_555 1_555
N9 C89 1_555 1_555
N10 C106 1_555 1_555
N11 C128 1_555 1_555
N12 C111 1_555 1_555
S1 Cu1 1_555 1_555
S2 Cu3 1_555 1_555
S3 Cu4 1_555 1_555
S4 Cu4 1_555 1_555
S5 Cu5 1_555 1_555
S6 Cu6 1_555 1_555
S7 Cu8 1_555 1_555
S8 Cu7 1_555 1_555
W1 S1 1_555 1_555
W2 S3 1_555 1_555
W3 S8 1_555 1_555
C1A H1A 1_555 1_555
C2A C1A 1_555 1_555
H2A C2A 1_555 1_555
C3A C2A 1_555 1_555
C4A C3A 1_555 1_555
H3A C4A 1_555 1_555
C5A C4A 1_555 1_555
H4A C5A 1_555 1_555
C6A C3A 1_555 1_555
C7A C6A 1_555 1_555
H5A C7A 1_555 1_555
C8A C7A 1_555 1_555
H6A C8A 1_555 1_555
C9A C8A 1_555 1_555
C10A C9A 1_555 1_555
H7A C10A 1_555 1_555
C11A C6A 1_555 1_555
H8A C11A 1_555 1_555
C12A C9A 1_555 1_555
C13A C12A 1_555 1_555
H9A C13A 1_555 1_555
C14A C13A 1_555 1_555
H10A C14A 1_555 1_555
C15A C14A 1_555 1_555
C16A C15A 1_555 1_555
H11A C16A 1_555 1_555
C17A C12A 1_555 1_555
H12A C17A 1_555 1_555
C18A H13A 1_555 1_555
C19A C18A 1_555 1_555
H14A C19A 1_555 1_555
C20A C15A 1_555 1_555
C21A C20A 1_555 1_555
H15A C21A 1_555 1_555
C22A C21A 1_555 1_555
H16A C22A 1_555 1_555
C23A H17A 1_555 1_555
C24A C23A 1_555 1_555
H18A C24A 1_555 1_555
C25A C24A 1_555 1_555
C26A C25A 1_555 1_555
H19A C26A 1_555 1_555
C27A C26A 1_555 1_555
H20A C27A 1_555 1_555
C28A C25A 1_555 1_555
C29A C28A 1_555 1_555
H21A C29A 1_555 1_555
C30A C29A 1_555 1_555
H22A C30A 1_555 1_555
C31A C30A 1_555 1_555
C32A C31A 1_555 1_555
H23A C32A 1_555 1_555
C33A C28A 1_555 1_555
H24A C33A 1_555 1_555
C34A C31A 1_555 1_555
C35A C34A 1_555 1_555
H25A C35A 1_555 1_555
C36A C35A 1_555 1_555
H26A C36A 1_555 1_555
C37A C36A 1_555 1_555
C38A C37A 1_555 1_555
H27A C38A 1_555 1_555
C39A C34A 1_555 1_555
H28A C39A 1_555 1_555
C40A H29A 1_555 1_555
C41A C40A 1_555 1_555
H30A C41A 1_555 1_555
C42A C37A 1_555 1_555
C43A C42A 1_555 1_555
H31A C43A 1_555 1_555
C44A C43A 1_555 1_555
H32A C44A 1_555 1_555
C45B H33B 1_555 1_555
C46B C45B 1_555 1_555
H34B C46B 1_555 1_555
C47B C46B 1_555 1_555
C48B C47B 1_555 1_555
H35B C48B 1_555 1_555
C49B C48B 1_555 1_555
H36B C49B 1_555 1_555
C50B C47B 1_555 1_555
C51B C50B 1_555 1_555
H37B C51B 1_555 1_555
C52B C51B 1_555 1_555
H38B C52B 1_555 1_555
C53B C52B 1_555 1_555
C54B C53B 1_555 1_555
H39B C54B 1_555 1_555
C55B C50B 1_555 1_555
H40B C55B 1_555 1_555
C56B C53B 1_555 1_555
C57B C56B 1_555 1_555
H41B C57B 1_555 1_555
C58B C57B 1_555 1_555
H42B C58B 1_555 1_555
C59B C58B 1_555 1_555
C60B C59B 1_555 1_555
H43B C60B 1_555 1_555
C61B C56B 1_555 1_555
H44B C61B 1_555 1_555
C62B H45B 1_555 1_555
C63B C62B 1_555 1_555
H46B C63B 1_555 1_555
C64B C59B 1_555 1_555
C65B C64B 1_555 1_555
H47B C65B 1_555 1_555
C66B C65B 1_555 1_555
H48B C66B 1_555 1_555
C67B H49B 1_555 1_555
C68B C67B 1_555 1_555
H50B C68B 1_555 1_555
C69B C68B 1_555 1_555
C70B C69B 1_555 1_555
H51B C70B 1_555 1_555
C71B C70B 1_555 1_555
H52B C71B 1_555 1_555
C72B C69B 1_555 1_555
C73B C72B 1_555 1_555
H53B C73B 1_555 1_555
C74B C73B 1_555 1_555
H54B C74B 1_555 1_555
C75B C74B 1_555 1_555
C76B C75B 1_555 1_555
H55B C76B 1_555 1_555
C77B C72B 1_555 1_555
H56B C77B 1_555 1_555
C78B C75B 1_555 1_555
C79B C78B 1_555 1_555
H57B C79B 1_555 1_555
C80B C79B 1_555 1_555
H58B C80B 1_555 1_555
C81B C80B 1_555 1_555
C82B C81B 1_555 1_555
H59B C82B 1_555 1_555
C83B C78B 1_555 1_555
H60B C83B 1_555 1_555
C84B H61B 1_555 1_555
C85B C84B 1_555 1_555
H62B C85B 1_555 1_555
C86B C81B 1_555 1_555
C87B C86B 1_555 1_555
H63B C87B 1_555 1_555
C88B C87B 1_555 1_555
H64B C88B 1_555 1_555
C89A H65A 1_555 1_555
C90A C89A 1_555 1_555
H66A C90A 1_555 1_555
C91A C90A 1_555 1_555
C92A C91A 1_555 1_555
H67A C92A 1_555 1_555
C93A C92A 1_555 1_555
H68A C93A 1_555 1_555
C94A C91A 1_555 1_555
C95A C94A 1_555 1_555
H69A C95A 1_555 1_555
C96A C95A 1_555 1_555
H70A C96A 1_555 1_555
C97A C96A 1_555 1_555
C98A C97A 1_555 1_555
H71A C98A 1_555 1_555
C99A C94A 1_555 1_555
H72A C99A 1_555 1_555
C100A C97A 1_555 1_555
C101A C100A 1_555 1_555
H73A C101A 1_555 1_555
C102A C101A 1_555 1_555
H74A C102A 1_555 1_555
C103A C102A 1_555 1_555
C104A C103A 1_555 1_555
H75A C104A 1_555 1_555
C105A C100A 1_555 1_555
H76A C105A 1_555 1_555
C106A H77A 1_555 1_555
C107A C106A 1_555 1_555
H78A C107A 1_555 1_555
C108A C103A 1_555 1_555
C109A C108A 1_555 1_555
H79A C109A 1_555 1_555
C110A C109A 1_555 1_555
H80A C110A 1_555 1_555
C111A H81A 1_555 1_555
C112A C111A 1_555 1_555
H82A C112A 1_555 1_555
C113A C112A 1_555 1_555
C114A C113A 1_555 1_555
H83A C114A 1_555 1_555
C115A C114A 1_555 1_555
H84A C115A 1_555 1_555
C116A C113A 1_555 1_555
C117A C116A 1_555 1_555
H85A C117A 1_555 1_555
C118A C117A 1_555 1_555
H86A C118A 1_555 1_555
C119A C118A 1_555 1_555
C120A C119A 1_555 1_555
H87A C120A 1_555 1_555
C121A C116A 1_555 1_555
H88A C121A 1_555 1_555
C122A C119A 1_555 1_555
C123A C122A 1_555 1_555
H89A C123A 1_555 1_555
C124A C123A 1_555 1_555
H90A C124A 1_555 1_555
C125A C124A 1_555 1_555
C126A C125A 1_555 1_555
H91A C126A 1_555 1_555
C127A C122A 1_555 1_555
H92A C127A 1_555 1_555
C128A H93A 1_555 1_555
C129A C128A 1_555 1_555
H94A C129A 1_555 1_555
C130A C125A 1_555 1_555
C131A C130A 1_555 1_555
H95A C131A 1_555 1_555
C132A C131A 1_555 1_555
H96A C132A 1_555 1_555
Cu2B S2 1_555 1_555
Cu2_2 S2C 1_555 1_555
Cu2_3 N3A 1_555 1_555
Cu3A N2A 1_555 1_555
Cu3B S1 1_555 1_555
Cu3C S1A 1_555 1_555
Cu4B I1B 1_555 1_555
Cu4B_2 S4B 1_555 1_555
Cu4B_3 S3B 1_555 1_555
Cu5B N7B 1_555 1_555
Cu5B_2 N8 1_555 1_555
Cu5B_3 S4B_2 1_555 1_555
Cu6B S5 1_555 1_555
Cu8A N10A 1_555 1_555
Cu8C S8 1_555 1_555
Cu8B S7B 1_555 1_555
Cu9B S7 1_555 1_555
Cu9_2 S7B 1_555 1_555
Cu9_3 N12A 1_555 1_555
I2B Cu6B 1_555 1_555
N1A Cu1 1_555 1_555
N2A C18A 1_555 1_555
N3A C23A 1_555 1_555
N3A_2 Cu2 1_555 1_555
N4A C40A 1_555 1_555
N5B C45B 1_555 1_555
N6B C62B 1_555 1_555
N7B C67B 1_555 1_555
N8B Cu5 1_555 1_555
N8_2 Cu5B 1_555 1_555
N9A Cu7 1_555 1_555
N10A C106A 1_555 1_555
N11A C128A 1_555 1_555
N12A C111A 1_555 1_555
N12A_2 Cu9 1_555 1_555
S1A Cu1 1_555 1_555
S1B Cu3 1_555 1_555
S1C Cu3A 1_555 1_555
S2C W1 1_555 1_555
S2C_2 Cu2 1_555 1_555
S2B Cu2 1_555 1_555
S2B_2 W1 1_555 1_555
S2A Cu3A 1_555 1_555
S3B W2B 1_555 1_555
S3B_2 Cu4B 1_555 1_555
S4B Cu5B 1_555 1_555
S4B_2 Cu4B_3 1_555 1_555
S4B_3 Cu4B 1_555 1_555
S5B Cu6 1_555 1_555
S5B_2 Cu5B 1_555 1_555
S6B W2 1_555 1_555
S7B W3 1_555 1_555
S7B_2 Cu9 1_555 1_555
S7C Cu9 1_555 1_555
S7C_2 W3 1_555 1_555
S7A Cu8A 1_555 1_555
S8A Cu7 1_555 1_555
S8C Cu8 1_555 1_555
S8B Cu8A 1_555 1_555
W1B S2 1_555 1_555
W2B S6 1_555 1_555
W2B_2 S4B 1_555 1_555
W3B S7 1_555 1_555
C5 N1 1_555 1_555
C10 C11 1_555 1_555
C16 C17 1_555 1_555
C19 C20 1_555 1_555
C22 N2 1_555 1_555
C27 N3 1_555 1_555
C32 C33 1_555 1_555
C38 C39 1_555 1_555
C41 C42 1_555 1_555
C44 N4 1_555 1_555
C49 N5 1_555 1_555
C54 C55 1_555 1_555
C60 C61 1_555 1_555
C63 C64 1_555 1_555
C66 N6 1_555 1_555
C71 N7 1_555 1_555
C76 C77 1_555 1_555
C82 C83 1_555 1_555
C85 C86 1_555 1_555
C88 N8 1_555 1_555
C93 N9 1_555 1_555
C98 C99 1_555 1_555
C104 C105 1_555 1_555
C107 C108 1_555 1_555
C110 N10 1_555 1_555
C115 N12 1_555 1_555
C120 C121 1_555 1_555
C126 C127 1_555 1_555
C129 C130 1_555 1_555
C132 N11 1_555 1_555
Cu3 N4 1_555 1_555
Cu4 N5 1_555 1_555
Cu5 S4 1_555 1_555
Cu6 N6 1_555 1_555
Cu8 N11 1_555 1_555
S4 W2 1_555 1_555
S5 W2 1_555 1_555
W1 S1A 1_555 1_555
W3 S8A 1_555 1_555
C1A N1A 1_555 1_555
C5A N1A 1_555 1_555
C10A C11A 1_555 1_555
C16A C17A 1_555 1_555
C19A C20A 1_555 1_555
C22A N2A 1_555 1_555
C27A N3A 1_555 1_555
C32A C33A 1_555 1_555
C38A C39A 1_555 1_555
C41A C42A 1_555 1_555
C44A N4A 1_555 1_555
C49B N5B 1_555 1_555
C54B C55B 1_555 1_555
C60B C61B 1_555 1_555
C63B C64B 1_555 1_555
C66B N6B 1_555 1_555
C71B N7B 1_555 1_555
C76B C77B 1_555 1_555
C82B C83B 1_555 1_555
C84B N8B 1_555 1_555
C85B C86B 1_555 1_555
C88B N8B 1_555 1_555
C89A N9A 1_555 1_555
C93A N9A 1_555 1_555
C98A C99A 1_555 1_555
C104A C105A 1_555 1_555
C107A C108A 1_555 1_555
C110A N10A 1_555 1_555
C115A N12A 1_555 1_555
C120A C121A 1_555 1_555
C126A C127A 1_555 1_555
C129A C130A 1_555 1_555
C132A N11A 1_555 1_555
Cu2_2 S2B_2 1_555 1_555
Cu3A N4A 1_555 1_555
Cu3B S2B_2 1_555 1_555
Cu3C S2C 1_555 1_555
Cu4B N5B 1_555 1_555
Cu5B_3 S5B 1_555 1_555
Cu6B N6B 1_555 1_555
Cu6B S6B 1_555 1_555
Cu8A N11A 1_555 1_555
Cu8C S7C_2 1_555 1_555
Cu8B S8A 1_555 1_555
Cu9_2 S7C_2 1_555 1_555
S1B W1B 1_555 1_555
S4B_2 W2B 1_555 1_555
S5B W2B 1_555 1_555
S5B_2 W2B_2 1_555 1_555
S8C W3B 1_555 1_555

#END
