
#######################################################################
#
#                 Cambridge Crystallographic Data Centre
#                                CCDC 
#
#######################################################################
#
# If this CIF has been generated from an entry in the Cambridge 
# Structural Database, then it will include bibliographic, chemical, 
# crystal, experimental, refinement or atomic coordinate data resulting 
# from the CCDC's data processing and validation procedures.
#
#######################################################################

data_AMUWAH
_symmetry_cell_setting           monoclinic
_symmetry_space_group_name_H-M   'C c'
_symmetry_Int_Tables_number      9
_space_group_name_Hall           'C -2yc'
loop_
_symmetry_equiv_pos_site_id
_symmetry_equiv_pos_as_xyz
1 x,y,z
2 x,-y,1/2+z
3 1/2+x,1/2+y,z
4 1/2+x,1/2-y,1/2+z
_cell_length_a                   19.192(4)
_cell_length_b                   8.7720(18)
_cell_length_c                   16.666(3)
_cell_angle_alpha                90
_cell_angle_beta                 120.71(3)
_cell_angle_gamma                90
_cell_volume                     2412.29
loop_
_atom_site_label
_atom_site_type_symbol
_atom_site_fract_x
_atom_site_fract_y
_atom_site_fract_z
In1 In 0.22804(16) -0.16236(5) 0.16884(19)
O1 O 0.3270(8) -0.3419(15) 0.2394(10)
O2 O 0.1323(7) -0.3483(12) 0.0944(10)
C1 C 0.4018(13) -0.167(2) 0.7247(14)
H1 H 0.4031 -0.2414 0.7685
H2 H 0.4548 -0.1190 0.7551
C2 C 0.3440(11) -0.362(2) 0.6007(13)
H3 H 0.3117 -0.3969 0.6236
C3 C 0.1401(10) -0.3496(17) 0.0211(12)
C4 C 0.3126(11) -0.3464(17) 0.2995(13)
O3 O 0.2592(7) -0.2727(16) 0.3087(8)
O4 O 0.1988(6) -0.2678(15) 0.0320(8)
C5 C 0.0487(12) -0.1777(16) -0.4003(14)
H4 H -0.0045 -0.1331 -0.4394
H5 H 0.0573 -0.2554 -0.4359
C6 C 0.0565(9) -0.2496(15) -0.3072(10)
C7 C 0.3962(9) -0.252(2) 0.6490(11)
C8 C 0.0785(8) -0.381(2) -0.1429(12)
C9 C 0.1185(10) -0.3627(18) -0.2624(13)
H6 H 0.1514 -0.3927 -0.2856
C10 C 0.3707(9) -0.440(2) 0.3971(12)
H7 H 0.3502 -0.5438 0.3876
H8 H 0.4242 -0.4460 0.4047
C11 C 0.0096(8) -0.2144(18) -0.2715(13)
H9 H -0.0287 -0.1380 -0.3014
O5 O 0.3324(8) 0.0097(15) 0.7711(9)
C12 C 0.0127(10) -0.279(2) -0.1974(12)
H10 H -0.0262 -0.2576 -0.1815
O6 O 0.3074(9) 0.0139(18) 0.6327(10)
C13 C 0.3432(8) -0.0463(12) 0.7159(11)
O7 O 0.1276(8) -0.0134(19) -0.4329(8)
C14 C 0.3327(8) -0.4275(16) 0.5235(11)
H11 H 0.2923 -0.5003 0.4931
C15 C 0.1175(11) -0.050(2) -0.3648(13)
C16 C 0.1258(10) -0.4266(19) -0.1782(11)
H12 H 0.1645 -0.5018 -0.1467
O8 O 0.1558(7) 0.0072(16) -0.2932(9)
C17 C 0.0943(11) -0.453(2) -0.0516(11)
H13 H 0.0434 -0.4741 -0.0548
H14 H 0.1238 -0.5476 -0.0405
C18 C 0.3817(10) -0.387(2) 0.4884(12)
C19 C 0.4348(11) -0.278(2) 0.5348(14)
H15 H 0.4657 -0.2431 0.5100
C20 C 0.4491(11) -0.209(2) 0.6189(15)
H16 H 0.4910 -0.1395 0.6517
In1A In 0.22804(16) 0.16236(5) 0.66884(19)
In1A_2 In 0.22804(16) 0.16236(5) -0.33116(19)
O5A O 0.3324(8) -0.0097(15) 0.2711(9)
O6A O 0.3074(9) -0.0139(18) 0.1327(10)
O7A O 0.1276(8) 0.0134(19) 0.0671(8)
O8A O 0.1558(7) -0.0072(16) 0.2068(9)
N1 N 0.2578(11) 1.0175(12) 0.9378(11)
H17 H 0.2686 1.0923 0.9088
H18 H 0.2825 1.0401 0.9990
C21 C 0.2858(5) 0.8798(13) 0.9254(7)
H19 H 0.2639 0.8624 0.8593
H20 H 0.2672 0.7982 0.9490
C22 C 0.1315(9) 1.1663(14) 0.8971(10)
H21 H 0.1585 1.2114 0.9581
H22 H 0.0755 1.1492 0.8772
H23 H 0.1351 1.2337 0.8539
C23 C 0.3766(6) 0.8776(12) 0.9751(8)
H24 H 0.3951 0.9575 0.9510
H25 H 0.3945 0.7809 0.9653
H26 H 0.3983 0.8931 1.0406
C24 C 0.1743(14) 1.005(3) 0.9004(11)
H27 H 0.1641 0.9332 0.9374
H28 H 0.1497 0.9645 0.8375
loop_
_geom_bond_atom_site_label_1
_geom_bond_atom_site_label_2
_geom_bond_site_symmetry_1
_geom_bond_site_symmetry_2
In1 O1 1_555 1_555
O1 C4 1_555 1_555
O2 In1 1_555 1_555
C1 H1 1_555 1_555
H2 C1 1_555 1_555
C2 H3 1_555 1_555
C3 O2 1_555 1_555
C4 O3 1_555 1_555
O3 In1 1_555 1_555
O4 In1 1_555 1_555
C5 H4 1_555 1_555
H5 C5 1_555 1_555
C6 C5 1_555 1_555
C7 C1 1_555 1_555
C8 C12 1_555 1_555
C9 C6 1_555 1_555
H6 C9 1_555 1_555
C10 C4 1_555 1_555
H7 C10 1_555 1_555
H8 C10 1_555 1_555
C11 C6 1_555 1_555
H9 C11 1_555 1_555
O5 C13 1_555 1_555
C12 C11 1_555 1_555
H10 C12 1_555 1_555
O6 C13 1_555 1_555
C13 C1 1_555 1_555
O7 C15 1_555 1_555
C14 C2 1_555 1_555
H11 C14 1_555 1_555
C15 C5 1_555 1_555
C16 C8 1_555 1_555
H12 C16 1_555 1_555
O8 C15 1_555 1_555
C17 C3 1_555 1_555
H13 C17 1_555 1_555
H14 C17 1_555 1_555
C18 C10 1_555 1_555
C19 C18 1_555 1_555
H15 C19 1_555 1_555
C20 C7 1_555 1_555
H16 C20 1_555 1_555
N1 H17 1_555 1_555
H18 N1 1_555 1_555
C21 N1 1_555 1_555
H19 C21 1_555 1_555
H20 C21 1_555 1_555
C22 H21 1_555 1_555
H22 C22 1_555 1_555
H23 C22 1_555 1_555
C23 C21 1_555 1_555
H24 C23 1_555 1_555
H25 C23 1_555 1_555
H26 C23 1_555 1_555
C24 N1 1_555 1_555
H27 C24 1_555 1_555
H28 C24 1_555 1_555
In1A O5 1_555 1_555
In1A_2 O7 1_555 1_555
O5A In1 1_555 1_555
O6A In1 1_555 1_555
O7A In1 1_555 1_555
O8A In1 1_555 1_555
C2 C7 1_555 1_555
C3 O4 1_555 1_555
C8 C17 1_555 1_555
C9 C16 1_555 1_555
O6 In1A 1_555 1_555
C14 C18 1_555 1_555
O8 In1A_2 1_555 1_555
C19 C20 1_555 1_555
C22 C24 1_555 1_555

#END
