
#######################################################################
#
#                 Cambridge Crystallographic Data Centre
#                                CCDC 
#
#######################################################################
#
# If this CIF has been generated from an entry in the Cambridge 
# Structural Database, then it will include bibliographic, chemical, 
# crystal, experimental, refinement or atomic coordinate data resulting 
# from the CCDC's data processing and validation procedures.
#
#######################################################################

data_ANABIB
_symmetry_cell_setting           monoclinic
_symmetry_space_group_name_H-M   'P 21/c'
_symmetry_Int_Tables_number      14
_space_group_name_Hall           '-P 2ybc'
loop_
_symmetry_equiv_pos_site_id
_symmetry_equiv_pos_as_xyz
1 x,y,z
2 -x,1/2+y,1/2-z
3 -x,-y,-z
4 x,1/2-y,1/2+z
_cell_length_a                   17.0665(19)
_cell_length_b                   6.8530(10)
_cell_length_c                   15.3784(14)
_cell_angle_alpha                90
_cell_angle_beta                 116.6520(10)
_cell_angle_gamma                90
_cell_volume                     1607.5
loop_
_atom_site_label
_atom_site_type_symbol
_atom_site_fract_x
_atom_site_fract_y
_atom_site_fract_z
Hg1 Hg 0.129819(16) 0.47073(4) 0.281030(17)
Ca1 Ca 0.43353(7) 0.32140(16) 0.18902(8)
N1 N 0.1752(3) 0.5658(7) 0.4326(3)
N2 N 0.2727(4) 0.3038(8) 0.1528(4)
N3 N 0.1645(5) 0.0767(10) 0.3730(6)
O1 O 0.2893(3) 0.5280(7) 0.3536(3)
O2 O 0.3949(3) 0.6679(7) 0.4841(3)
O3 O 0.4290(3) 0.5191(5) 0.6796(3)
O4 O 0.4210(2) 0.8385(5) 0.6870(3)
O5 O 0.4258(3) 0.3023(6) 0.3479(3)
H1 H 0.3879 0.3735 0.3542
H2 H 0.4748 0.3176 0.3976
O6 O 0.3474(3) 0.3479(8) 0.0132(3)
H3 H 0.2940 0.3819 -0.0069
H4 H 0.3488 0.2379 -0.0120
O7 O 0.5310(3) 0.3808(7) 0.1146(3)
H5 H 0.5452 0.2716 0.0989
H6 H 0.5751 0.4475 0.1532
S1 S 0.09837(10) 0.3446(3) 0.12356(12)
S2 S 0.03994(10) -0.1657(2) 0.23248(12)
C1 C 0.3200(4) 0.5993(9) 0.4377(4)
C2 C 0.3872(4) 0.6769(8) 0.6525(4)
C3 C 0.2608(3) 0.6062(8) 0.4880(4)
C4 C 0.2913(3) 0.6627(8) 0.5839(4)
C5 C 0.2315(4) 0.6889(9) 0.6218(4)
H7 H 0.2507 0.7300 0.6858
C6 C 0.1442(4) 0.6535(9) 0.5638(5)
H8 H 0.1035 0.6724 0.5878
C7 C 0.1173(4) 0.5895(9) 0.4696(4)
H9 H 0.0583 0.5621 0.4309
C8 C 0.2030(4) 0.3200(9) 0.1419(4)
C9 C 0.1141(5) -0.0231(10) 0.3156(6)
Hg1A Hg -0.129819(16) -0.02927(4) 0.218970(17)
Hg1_2 Hg 0.129819(16) -0.52927(4) 0.281030(17)
Ca1B Ca 0.56647(7) 0.67860(16) 0.81098(8)
Ca1C Ca 0.43353(7) 0.17860(16) 0.68902(8)
Ca1C_2 Ca 0.43353(7) 1.17860(16) 0.68902(8)
O3B O 0.5710(3) 0.4809(5) 0.3204(3)
O3C O 0.4290(3) -0.0191(5) 0.1796(3)
O4B O 0.5790(2) 0.1615(5) 0.3130(3)
O4C O 0.4210(2) 0.6615(5) 0.1870(3)
S2A S -0.03994(10) 0.3343(2) 0.26752(12)
S2_2 S 0.03994(10) 0.8343(2) 0.23248(12)
loop_
_geom_bond_atom_site_label_1
_geom_bond_atom_site_label_2
_geom_bond_site_symmetry_1
_geom_bond_site_symmetry_2
Hg1 N1 1_555 1_555
Ca1 N2 1_555 1_555
N1 C3 1_555 1_555
N2 C8 1_555 1_555
N3 Hg1 1_555 1_555
O1 Hg1 1_555 1_555
O2 C1 1_555 1_555
O3 C2 1_555 1_555
O4 C2 1_555 1_555
O5 Ca1 1_555 1_555
H1 O5 1_555 1_555
H2 O5 1_555 1_555
O6 Ca1 1_555 1_555
H3 O6 1_555 1_555
H4 O6 1_555 1_555
O7 Ca1 1_555 1_555
H5 O7 1_555 1_555
H6 O7 1_555 1_555
S1 Hg1 1_555 1_555
S2 C9 1_555 1_555
C1 O1 1_555 1_555
C2 C4 1_555 1_555
C3 C1 1_555 1_555
C4 C3 1_555 1_555
C5 C4 1_555 1_555
H7 C5 1_555 1_555
C6 C5 1_555 1_555
H8 C6 1_555 1_555
C7 N1 1_555 1_555
H9 C7 1_555 1_555
C8 S1 1_555 1_555
C9 N3 1_555 1_555
Hg1A S2 1_555 1_555
Hg1_2 S2 1_555 1_555
Ca1B O3 1_555 1_555
Ca1C O3 1_555 1_555
Ca1C_2 O4 1_555 1_555
O3B Ca1 1_555 1_555
O3C Ca1 1_555 1_555
O4B Ca1 1_555 1_555
O4C Ca1 1_555 1_555
S2A Hg1 1_555 1_555
S2_2 Hg1 1_555 1_555
O4 Ca1B 1_555 1_555
C6 C7 1_555 1_555
Hg1A S2A 1_555 1_555

#END
