
#######################################################################
#
#                 Cambridge Crystallographic Data Centre
#                                CCDC 
#
#######################################################################
#
# If this CIF has been generated from an entry in the Cambridge 
# Structural Database, then it will include bibliographic, chemical, 
# crystal, experimental, refinement or atomic coordinate data resulting 
# from the CCDC's data processing and validation procedures.
#
#######################################################################

data_ANABAT
_symmetry_cell_setting           monoclinic
_symmetry_space_group_name_H-M   'P 21/n'
_symmetry_Int_Tables_number      14
_space_group_name_Hall           '-P 2yn'
loop_
_symmetry_equiv_pos_site_id
_symmetry_equiv_pos_as_xyz
1 x,y,z
2 1/2-x,1/2+y,1/2-z
3 -x,-y,-z
4 1/2+x,1/2-y,1/2+z
_cell_length_a                   11.6509(11)
_cell_length_b                   8.9059(10)
_cell_length_c                   14.7490(15)
_cell_angle_alpha                90
_cell_angle_beta                 109.7900(10)
_cell_angle_gamma                90
_cell_volume                     1440
loop_
_atom_site_label
_atom_site_type_symbol
_atom_site_fract_x
_atom_site_fract_y
_atom_site_fract_z
Hg1 Hg 0.32593(3) 0.31488(3) 0.28328(2)
Hg2 Hg 0.90611(3) 0.50716(3) 0.16948(2)
N1 N 0.3529(5) 0.3560(6) 0.4383(4)
N2 N 0.7248(5) 0.3945(6) 0.0813(4)
O1 O 0.4887(5) 0.1524(6) 0.3878(4)
O2 O 0.6336(5) 0.1595(7) 0.5289(4)
O3 O 0.6821(4) 0.3708(6) 0.7073(4)
O4 O 0.5934(5) 0.1595(6) 0.7165(4)
O5 O 0.6920(5) 0.2527(6) 0.2954(4)
O6 O 0.8424(5) 0.3828(7) 0.2756(4)
O7 O 0.4282(4) 0.3749(6) 0.1904(4)
O8 O 0.4459(5) 0.1258(6) 0.1755(4)
C1 C 0.5347(7) 0.1963(8) 0.4733(5)
C2 C 0.5932(6) 0.2853(8) 0.6801(5)
C3 C 0.4532(6) 0.3006(7) 0.5066(5)
C4 C 0.4786(6) 0.3407(8) 0.6025(5)
C5 C 0.3981(6) 0.4318(9) 0.6279(6)
H1 H 0.4141 0.4595 0.6918
C6 C 0.2932(7) 0.4811(8) 0.5567(6)
H2 H 0.2357 0.5378 0.5726
C7 C 0.2752(6) 0.4450(8) 0.4621(5)
H3 H 0.2076 0.4833 0.4138
C8 C 0.7370(7) 0.3234(8) 0.2447(6)
C9 C 0.4685(6) 0.2573(9) 0.1605(5)
C10 C 0.6652(6) 0.3399(8) 0.1382(5)
C11 C 0.5444(6) 0.2928(8) 0.0981(5)
C12 C 0.4905(7) 0.2884(9) -0.0013(6)
H4 H 0.4113 0.2526 -0.0292
C13 C 0.5552(7) 0.3376(8) -0.0581(5)
H5 H 0.5216 0.3324 -0.1249
C14 C 0.6715(7) 0.3951(8) -0.0141(5)
H6 H 0.7133 0.4351 -0.0522
Hg1B Hg 0.67407(3) 0.68512(3) 0.71672(2)
Hg1C Hg 0.82593(3) 0.18512(3) 0.78328(2)
Hg2A Hg 0.59389(3) 0.00716(3) 0.33052(2)
Hg2C Hg 0.40611(3) -0.00716(3) 0.66948(2)
O1A O 1.0113(5) 0.6524(6) 0.1122(4)
O3B O 0.3179(4) 0.6292(6) 0.2927(4)
O3C O 0.1821(4) 0.1292(6) 0.2073(4)
O4C O 0.0934(5) 0.3405(6) 0.2165(4)
O4C_2 O 1.0934(5) 0.3405(6) 0.2165(4)
O5A O 0.8080(5) 0.7527(6) 0.2046(4)
O8A O 1.0541(5) 0.6258(6) 0.3245(4)
loop_
_geom_bond_atom_site_label_1
_geom_bond_atom_site_label_2
_geom_bond_site_symmetry_1
_geom_bond_site_symmetry_2
Hg1 N1 1_555 1_555
Hg2 N2 1_555 1_555
N1 C3 1_555 1_555
N2 C10 1_555 1_555
O1 Hg1 1_555 1_555
O2 C1 1_555 1_555
O3 C2 1_555 1_555
O4 C2 1_555 1_555
O5 C8 1_555 1_555
O6 Hg2 1_555 1_555
O7 Hg1 1_555 1_555
O8 C9 1_555 1_555
C1 O1 1_555 1_555
C2 C4 1_555 1_555
C3 C1 1_555 1_555
C4 C3 1_555 1_555
C5 C4 1_555 1_555
H1 C5 1_555 1_555
C6 C5 1_555 1_555
H2 C6 1_555 1_555
C7 N1 1_555 1_555
H3 C7 1_555 1_555
C8 O6 1_555 1_555
C9 O7 1_555 1_555
C10 C8 1_555 1_555
C11 C9 1_555 1_555
C12 C11 1_555 1_555
H4 C12 1_555 1_555
C13 C12 1_555 1_555
H5 C13 1_555 1_555
C14 N2 1_555 1_555
H6 C14 1_555 1_555
Hg1B O3 1_555 1_555
Hg1C O3 1_555 1_555
Hg2A O1 1_555 1_555
Hg2C O4 1_555 1_555
O1A Hg2 1_555 1_555
O3B Hg1 1_555 1_555
O3C Hg1 1_555 1_555
O4C Hg1 1_555 1_555
O4C_2 Hg2 1_555 1_555
O5A Hg2 1_555 1_555
O8A Hg2 1_555 1_555
O4 Hg1C 1_555 1_555
O5 Hg2A 1_555 1_555
O8 Hg2A 1_555 1_555
C6 C7 1_555 1_555
C10 C11 1_555 1_555
C13 C14 1_555 1_555

#END
