
#######################################################################
#
#                 Cambridge Crystallographic Data Centre
#                                CCDC 
#
#######################################################################
#
# If this CIF has been generated from an entry in the Cambridge 
# Structural Database, then it will include bibliographic, chemical, 
# crystal, experimental, refinement or atomic coordinate data resulting 
# from the CCDC's data processing and validation procedures.
#
#######################################################################

data_ANABUN
_symmetry_cell_setting           monoclinic
_symmetry_space_group_name_H-M   'C 2/c'
_symmetry_Int_Tables_number      15
_space_group_name_Hall           '-C 2yn'
loop_
_symmetry_equiv_pos_site_id
_symmetry_equiv_pos_as_xyz
1 x,y,z
2 -x,y,1/2-z
3 1/2+x,1/2+y,z
4 1/2-x,1/2+y,1/2-z
5 -x,-y,-z
6 x,-y,1/2+z
7 1/2-x,1/2-y,-z
8 1/2+x,1/2-y,1/2+z
_cell_length_a                   30.645(3)
_cell_length_b                   7.0037(9)
_cell_length_c                   15.9747(19)
_cell_angle_alpha                90
_cell_angle_beta                 100.309(2)
_cell_angle_gamma                90
_cell_volume                     3373.28
loop_
_atom_site_label
_atom_site_type_symbol
_atom_site_fract_x
_atom_site_fract_y
_atom_site_fract_z
Hg1 Hg 0.425778(14) 0.53732(6) 0.62516(3)
Ba1 Ba 0.278935(17) 0.24019(7) 0.32957(3)
N1 N 0.4117(2) 0.6774(10) 0.4901(4)
N2 N 0.3647(3) 0.1856(11) 0.4479(5)
N3 N 0.5060(3) 0.6403(14) 0.6369(5)
O1 O 0.34386(17) 0.5599(8) 0.5682(3)
O2 O 0.29766(17) 0.5543(7) 0.4434(3)
O3 O 0.30376(17) 0.5685(7) 0.2617(3)
O4 O 0.29278(18) 0.8689(7) 0.2979(4)
O5 O 0.26821(18) -0.0247(7) 0.4568(4)
H1 H 0.2738 -0.1430 0.4454
H2 H 0.2434 -0.0178 0.4728
O6 O 0.3073(2) 0.1816(8) 0.1787(4)
H3 H 0.3102 0.2854 0.1509
H4 H 0.2957 0.0904 0.1459
O7 O 0.19820(19) 0.3078(7) 0.3972(4)
H5 H 0.1837 0.2040 0.4017
H6 H 0.2039 0.3671 0.4456
S1 S 0.43437(9) 0.1958(4) 0.58880(18)
S2 S 0.58681(9) 0.7047(4) 0.74749(18)
C1 C 0.3346(3) 0.5868(10) 0.4888(6)
C2 C 0.3149(3) 0.7194(12) 0.3030(5)
C3 C 0.3701(3) 0.6677(11) 0.4422(5)
C4 C 0.3601(3) 0.7252(11) 0.3578(5)
C5 C 0.3951(3) 0.8045(11) 0.3231(6)
H7 H 0.3898 0.8490 0.2674
C6 C 0.4370(3) 0.8169(13) 0.3707(6)
H8 H 0.4602 0.8680 0.3473
C7 C 0.4444(3) 0.7519(12) 0.4544(6)
H9 H 0.4728 0.7603 0.4865
C8 C 0.3925(3) 0.1917(13) 0.5049(6)
C9 C 0.5386(3) 0.6660(14) 0.6839(6)
Hg1A Hg 0.574222(14) 0.53732(6) 0.87484(3)
Ba1C Ba 0.221065(17) 0.74019(7) 0.17043(3)
Ba1_2 Ba 0.278935(17) 1.24019(7) 0.32957(3)
O3C O 0.19624(17) 0.0685(7) 0.2383(3)
O4_2 O 0.29278(18) -0.1311(7) 0.2979(4)
O4C O 0.20722(18) 0.3689(7) 0.2021(4)
S2A S 0.41319(9) 0.7047(4) 0.75251(18)
loop_
_geom_bond_atom_site_label_1
_geom_bond_atom_site_label_2
_geom_bond_site_symmetry_1
_geom_bond_site_symmetry_2
Hg1 N1 1_555 1_555
Ba1 N2 1_555 1_555
N1 C3 1_555 1_555
N2 C8 1_555 1_555
N3 Hg1 1_555 1_555
O1 Hg1 1_555 1_555
O2 Ba1 1_555 1_555
O3 Ba1 1_555 1_555
O4 C2 1_555 1_555
O5 Ba1 1_555 1_555
H1 O5 1_555 1_555
H2 O5 1_555 1_555
O6 Ba1 1_555 1_555
H3 O6 1_555 1_555
H4 O6 1_555 1_555
O7 Ba1 1_555 1_555
H5 O7 1_555 1_555
H6 O7 1_555 1_555
S1 Hg1 1_555 1_555
S2 C9 1_555 1_555
C1 O1 1_555 1_555
C2 O3 1_555 1_555
C3 C1 1_555 1_555
C4 C2 1_555 1_555
C5 C4 1_555 1_555
H7 C5 1_555 1_555
C6 C5 1_555 1_555
H8 C6 1_555 1_555
C7 N1 1_555 1_555
H9 C7 1_555 1_555
C8 S1 1_555 1_555
C9 N3 1_555 1_555
Hg1A S2 1_555 1_555
Ba1C O3 1_555 1_555
Ba1_2 O4 1_555 1_555
O3C Ba1 1_555 1_555
O4_2 Ba1 1_555 1_555
O4C Ba1 1_555 1_555
S2A Hg1 1_555 1_555
O2 C1 1_555 1_555
O4 Ba1C 1_555 1_555
C3 C4 1_555 1_555
C6 C7 1_555 1_555
Ba1C O4C 1_555 1_555

#END
