
#######################################################################
#
#                 Cambridge Crystallographic Data Centre
#                                CCDC 
#
#######################################################################
#
# If this CIF has been generated from an entry in the Cambridge 
# Structural Database, then it will include bibliographic, chemical, 
# crystal, experimental, refinement or atomic coordinate data resulting 
# from the CCDC's data processing and validation procedures.
#
#######################################################################

data_ANABEX
_symmetry_cell_setting           monoclinic
_symmetry_space_group_name_H-M   'P 21/c'
_symmetry_Int_Tables_number      14
_space_group_name_Hall           '-P 2ybc'
loop_
_symmetry_equiv_pos_site_id
_symmetry_equiv_pos_as_xyz
1 x,y,z
2 -x,1/2+y,1/2-z
3 -x,-y,-z
4 x,1/2-y,1/2+z
_cell_length_a                   8.3973(17)
_cell_length_b                   20.078(4)
_cell_length_c                   13.076(4)
_cell_angle_alpha                90
_cell_angle_beta                 125.08(2)
_cell_angle_gamma                90
_cell_volume                     1804.16
loop_
_atom_site_label
_atom_site_type_symbol
_atom_site_fract_x
_atom_site_fract_y
_atom_site_fract_z
Hg1 Hg 0.18222(4) 0.333932(14) 0.19669(3)
O1 O 0.0424(9) 0.2403(3) 0.0546(6)
O2 O -0.1542(9) 0.1548(3) 0.0158(6)
O5 O -0.5502(8) 0.2213(3) -0.1477(5)
O6 O -0.6383(10) 0.1599(3) -0.0469(6)
N1 N -0.0759(9) 0.2939(3) 0.1938(5)
N2 N 0.1867(9) 0.3769(3) 0.0321(6)
N3 N 0.2313(10) 0.4479(3) 0.2279(6)
C1 C 0.1722(15) 0.3419(4) -0.0608(9)
H5 H 0.1501 0.2962 -0.0655
C2 C 0.1892(14) 0.3717(6) -0.1499(8)
H6 H 0.1780 0.3463 -0.2131
C3 C 0.2222(14) 0.4380(6) -0.1442(9)
H7 H 0.2331 0.4580 -0.2040
C4 C 0.2400(13) 0.4764(5) -0.0501(8)
C5 C 0.2268(11) 0.4428(4) 0.0428(7)
C6 C 0.2477(10) 0.4803(4) 0.1428(7)
C7 C 0.2806(15) 0.5471(5) -0.0338(10)
H8 H 0.2969 0.5692 -0.0897
C8 C 0.2953(15) 0.5815(5) 0.0578(12)
H9 H 0.3129 0.6274 0.0614
C9 C 0.2843(12) 0.5486(4) 0.1537(9)
C10 C 0.3030(14) 0.5830(5) 0.2515(11)
H10 H 0.3293 0.6285 0.2611
C11 C 0.2821(15) 0.5488(5) 0.3350(10)
H11 H 0.2879 0.5711 0.3994
C12 C 0.2524(13) 0.4807(4) 0.3204(9)
H12 H 0.2473 0.4573 0.3799
C13 C -0.0960(10) 0.2126(4) 0.0501(6)
C14 C -0.1921(10) 0.2510(3) 0.1026(6)
C15 C -0.3777(11) 0.2376(4) 0.0687(7)
C16 C -0.4354(11) 0.2640(4) 0.1428(7)
H13 H -0.5557 0.2532 0.1265
C17 C -0.3094(12) 0.3064(4) 0.2401(7)
H14 H -0.3432 0.3241 0.2910
C18 C -0.1370(13) 0.3218(4) 0.2604(7)
H15 H -0.0569 0.3526 0.3223
C19 C -0.5293(11) 0.2024(3) -0.0487(7)
Hg1C Hg -0.81778(4) 0.166068(14) -0.30331(3)
O5C O 0.4498(8) 0.2787(3) 0.3523(5)
O6C O 0.3617(10) 0.3401(3) 0.4531(6)
O3 O 0.2151(13) 0.0946(4) 0.0766(9)
H1 H 0.2168 0.1368 0.0725
H2 H 0.1201 0.0827 0.0789
O4 O 0.7250(15) 0.0367(4) 0.8419(8)
H3 H 0.7720 0.0631 0.9037
H4 H 0.6305 0.0153 0.8331
loop_
_geom_bond_atom_site_label_1
_geom_bond_atom_site_label_2
_geom_bond_site_symmetry_1
_geom_bond_site_symmetry_2
Hg1 O1 1_555 1_555
O1 C13 1_555 1_555
O2 C13 1_555 1_555
O3 H1 1_555 1_555
H2 O3 1_555 1_555
O4 H3 1_555 1_555
H4 O4 1_555 1_555
O5 C19 1_555 1_555
O6 C19 1_555 1_555
N1 Hg1 1_555 1_555
N2 Hg1 1_555 1_555
N3 Hg1 1_555 1_555
C1 N2 1_555 1_555
H5 C1 1_555 1_555
C2 C1 1_555 1_555
H6 C2 1_555 1_555
C3 C2 1_555 1_555
H7 C3 1_555 1_555
C4 C3 1_555 1_555
C5 N2 1_555 1_555
C6 N3 1_555 1_555
C7 C4 1_555 1_555
H8 C7 1_555 1_555
C8 C7 1_555 1_555
H9 C8 1_555 1_555
C9 C6 1_555 1_555
C10 C9 1_555 1_555
H10 C10 1_555 1_555
C11 C10 1_555 1_555
H11 C11 1_555 1_555
C12 N3 1_555 1_555
H12 C12 1_555 1_555
C13 C14 1_555 1_555
C14 N1 1_555 1_555
C15 C14 1_555 1_555
C16 C15 1_555 1_555
H13 C16 1_555 1_555
C17 C16 1_555 1_555
H14 C17 1_555 1_555
C18 N1 1_555 1_555
H15 C18 1_555 1_555
C19 C15 1_555 1_555
Hg1C O5 1_555 1_555
O5C Hg1 1_555 1_555
O6C Hg1 1_555 1_555
O6 Hg1C 1_555 1_555
C4 C5 1_555 1_555
C5 C6 1_555 1_555
C8 C9 1_555 1_555
C11 C12 1_555 1_555
C17 C18 1_555 1_555

#END
