
#######################################################################
#
#                 Cambridge Crystallographic Data Centre
#                                CCDC 
#
#######################################################################
#
# If this CIF has been generated from an entry in the Cambridge 
# Structural Database, then it will include bibliographic, chemical, 
# crystal, experimental, refinement or atomic coordinate data resulting 
# from the CCDC's data processing and validation procedures.
#
#######################################################################

data_ANADEZ
_symmetry_cell_setting           monoclinic
_symmetry_space_group_name_H-M   'P 21'
_symmetry_Int_Tables_number      4
_space_group_name_Hall           'P 2yb'
loop_
_symmetry_equiv_pos_site_id
_symmetry_equiv_pos_as_xyz
1 x,y,z
2 -x,1/2+y,-z
_cell_length_a                   7.4338(6)
_cell_length_b                   20.8333(16)
_cell_length_c                   22.0157(15)
_cell_angle_alpha                90
_cell_angle_beta                 90.7680(10)
_cell_angle_gamma                90
_cell_volume                     3409.28
loop_
_atom_site_label
_atom_site_type_symbol
_atom_site_fract_x
_atom_site_fract_y
_atom_site_fract_z
Cd1 Cd -0.55118(8) 0.85999(2) 0.37008(3)
Cd2 Cd 0.97713(8) 0.84570(2) 0.87751(3)
O1 O -1.0941(13) 0.5199(4) 0.2913(4)
O2 O -0.8802(13) 0.5231(4) 0.2195(4)
H1 H -0.9590 0.5075 0.1976
O3 O -0.7053(11) 0.7774(3) 0.3189(4)
O4 O -0.6134(12) 0.7593(3) 0.4110(3)
O5 O -0.6815(10) 0.9610(3) 0.3425(3)
O6 O -0.7211(9) 0.9228(3) 0.4330(3)
O7 O -0.6064(17) 1.2229(4) 0.4540(5)
O8 O -0.6475(14) 1.1821(4) 0.5445(4)
H2 H -0.5389 1.1864 0.5502
O9 O 1.1301(12) 1.2081(4) 0.9482(4)
O10 O 1.2075(11) 1.1639(3) 1.0336(3)
H3 H 1.1064 1.1731 1.0452
O11 O 1.1872(8) 0.9037(3) 0.9330(3)
O12 O 1.0989(10) 0.9452(3) 0.8462(3)
O13 O 1.0234(11) 0.7381(3) 0.9066(3)
O14 O 1.1341(9) 0.7695(3) 0.8204(3)
O15 O 1.5979(15) 0.5233(4) 0.8024(5)
O16 O 1.431(3) 0.5345(5) 0.7114(5)
H4 H 1.5262 0.5215 0.6969
N1 N 0.0685(10) 0.8447(4) 0.5797(3)
N2 N 0.3544(9) 0.8489(4) 0.6680(3)
N3 N -0.3206(9) 0.8610(4) 0.4403(3)
N4 N 0.7608(9) 0.8473(4) 0.8032(3)
N5 N 0.0778(9) 0.8518(4) 0.1700(3)
N6 N 0.3754(9) 0.8399(3) 0.0885(3)
N7 N -0.3435(10) 0.8595(4) 0.2946(3)
N8 N 0.7620(9) 0.8510(4) -0.0485(3)
C1 C -0.8093(16) 0.5699(4) 0.3139(4)
C2 C -0.7784(15) 0.6409(4) 0.2970(4)
C3 C -0.7018(16) 0.6673(4) 0.3550(4)
H5 H -0.5806 0.6489 0.3578
C4 C -0.7995(18) 0.6385(5) 0.4075(5)
H6 H -0.8989 0.6655 0.4197
H7 H -0.7191 0.6321 0.4420
C5 C -0.8682(19) 0.5734(5) 0.3819(5)
H8 H -0.9981 0.5709 0.3846
H9 H -0.8161 0.5380 0.4048
C6 C -0.9470(19) 0.5351(4) 0.2741(5)
C7 C -0.6728(15) 0.7400(4) 0.3611(4)
C8 C -0.6293(17) 0.5307(5) 0.3161(5)
H10 H -0.6503 0.4897 0.3347
H11 H -0.5406 0.5538 0.3394
H12 H -0.5868 0.5244 0.2755
C9 C -0.6677(19) 0.6514(6) 0.2412(5)
H13 H -0.6780 0.6954 0.2286
H14 H -0.7104 0.6239 0.2092
H15 H -0.5440 0.6417 0.2503
C10 C -0.9704(17) 0.6707(5) 0.2838(6)
H16 H -1.0423 0.6674 0.3196
H17 H -1.0279 0.6478 0.2511
H18 H -0.9577 0.7150 0.2728
C11 C -0.8314(16) 1.0298(5) 0.4175(5)
C12 C -0.7013(15) 1.0670(5) 0.4641(5)
C13 C -0.7962(15) 1.1331(4) 0.4638(5)
H19 H -0.8995 1.1309 0.4909
C14 C -0.858(3) 1.1476(7) 0.4060(6)
H20 H -0.7746 1.1759 0.3857
H21 H -0.9743 1.1688 0.4077
C15 C -0.877(2) 1.0778(6) 0.3686(7)
H22 H -0.9976 1.0714 0.3527
H23 H -0.7921 1.0754 0.3355
C16 C -0.7393(12) 0.9681(4) 0.3955(4)
C17 C -0.6683(19) 1.1854(5) 0.4875(5)
C18 C -1.0052(16) 1.0131(6) 0.4489(6)
H24 H -1.0438 1.0491 0.4727
H25 H -0.9862 0.9767 0.4749
H26 H -1.0960 1.0030 0.4190
C19 C -0.690(2) 1.0374(6) 0.5277(5)
H27 H -0.6438 0.9945 0.5250
H28 H -0.8083 1.0363 0.5449
H29 H -0.6122 1.0628 0.5531
C20 C -0.5265(14) 1.0708(5) 0.4377(5)
H30 H -0.4434 1.0894 0.4665
H31 H -0.5323 1.0972 0.4020
H32 H -0.4867 1.0285 0.4270
C21 C 1.3174(13) 1.1137(4) 0.9477(4)
C22 C 1.2236(13) 1.0481(4) 0.9583(4)
C23 C 1.3129(13) 1.0049(4) 0.9080(5)
H33 H 1.4269 0.9886 0.9246
C24 C 1.3563(16) 1.0495(5) 0.8558(4)
H34 H 1.2812 1.0397 0.8206
H35 H 1.4813 1.0450 0.8445
C25 C 1.3193(16) 1.1182(5) 0.8780(4)
H36 H 1.2043 1.1334 0.8625
H37 H 1.4129 1.1472 0.8648
C26 C 1.2114(13) 1.1669(4) 0.9759(4)
C27 C 1.1944(12) 0.9480(4) 0.8939(4)
C28 C 1.5033(14) 1.1159(5) 0.9694(6)
H38 H 1.5572 1.1557 0.9574
H39 H 1.5692 1.0808 0.9523
H40 H 1.5062 1.1125 1.0129
C29 C 1.2537(16) 1.0176(4) 1.0207(4)
H41 H 1.3802 1.0165 1.0300
H42 H 1.2070 0.9746 1.0204
H43 H 1.1929 1.0425 1.0508
C30 C 1.0210(12) 1.0536(4) 0.9464(5)
H44 H 0.9709 1.0115 0.9408
H45 H 0.9996 1.0788 0.9105
H46 H 0.9654 1.0739 0.9805
C31 C 1.1265(13) 0.6539(4) 0.8400(4)
C32 C 1.2867(13) 0.6413(5) 0.7963(5)
C33 C 1.2910(16) 0.5671(4) 0.7988(4)
H47 H 1.1831 0.5500 0.7784
C34 C 1.288(2) 0.5489(7) 0.8661(5)
H48 H 1.4080 0.5459 0.8836
H49 H 1.2238 0.5090 0.8728
C35 C 1.177(2) 0.6113(7) 0.8927(6)
H50 H 1.0694 0.5971 0.9133
H51 H 1.2516 0.6347 0.9216
C36 C 1.0954(12) 0.7252(4) 0.8542(4)
C37 C 1.4709(18) 0.5361(5) 0.7674(6)
C38 C 0.9433(16) 0.6324(6) 0.8101(8)
H52 H 0.9470 0.5872 0.8018
H53 H 0.9242 0.6554 0.7728
H54 H 0.8468 0.6414 0.8373
C39 C 1.2527(18) 0.6661(6) 0.7300(5)
H55 H 1.2238 0.7110 0.7309
H56 H 1.1544 0.6427 0.7118
H57 H 1.3591 0.6597 0.7065
C40 C 1.4619(15) 0.6699(6) 0.8220(8)
H58 H 1.4458 0.7150 0.8292
H59 H 1.5567 0.6637 0.7934
H60 H 1.4928 0.6489 0.8595
C41 C 0.2503(14) 0.8241(5) 0.5651(5)
H61 H 0.3121 0.8593 0.5455
H62 H 0.2428 0.7889 0.5362
C42 C 0.3607(16) 0.8026(5) 0.6196(5)
H63 H 0.3152 0.7618 0.6339
H64 H 0.4846 0.7964 0.6076
C43 C 0.1724(12) 0.8697(5) 0.6831(4)
H65 H 0.1097 0.8343 0.7020
H66 H 0.1803 0.9043 0.7125
C44 C 0.0712(14) 0.8909(5) 0.6323(5)
H67 H 0.1201 0.9315 0.6186
H68 H -0.0516 0.8986 0.6447
C45 C -0.1679(14) 0.8285(4) 0.4346(4)
H69 H -0.1488 0.8086 0.3974
C46 C -0.0367(13) 0.8215(4) 0.4778(4)
H70 H 0.0659 0.7977 0.4694
C47 C -0.0566(12) 0.8503(6) 0.5354(4)
C48 C -0.2191(12) 0.8850(4) 0.5413(4)
H71 H -0.2430 0.9057 0.5777
C49 C -0.3363(14) 0.8887(4) 0.4966(5)
H72 H -0.4402 0.9122 0.5037
C50 C 0.7678(12) 0.8100(4) 0.7544(4)
H73 H 0.8665 0.7829 0.7508
C51 C 0.6382(13) 0.8085(4) 0.7082(4)
H74 H 0.6536 0.7819 0.6747
C52 C 0.4844(10) 0.8470(6) 0.7125(3)
C53 C 0.4827(14) 0.8869(4) 0.7662(5)
H75 H 0.3852 0.9141 0.7723
C54 C 0.6147(13) 0.8861(4) 0.8067(5)
H76 H 0.6072 0.9138 0.8397
C55 C 0.0885(15) 0.7983(5) 0.1277(5)
H77 H -0.0321 0.7860 0.1149
H78 H 0.1433 0.7618 0.1481
C56 C 0.1969(13) 0.8151(5) 0.0725(5)
H79 H 0.2099 0.7771 0.0475
H80 H 0.1324 0.8471 0.0487
C57 C 0.3732(12) 0.8899(4) 0.1345(4)
H81 H 0.3296 0.9294 0.1161
H82 H 0.4953 0.8975 0.1488
C58 C 0.2588(12) 0.8743(5) 0.1876(4)
H83 H 0.3179 0.8413 0.2118
H84 H 0.2475 0.9122 0.2129
C59 C -0.3345(12) 0.8149(4) 0.2521(4)
H85 H -0.4257 0.7843 0.2508
C60 C -0.2004(12) 0.8099(4) 0.2094(4)
H86 H -0.2048 0.7778 0.1800
C61 C -0.0590(11) 0.8537(6) 0.2110(4)
C62 C -0.0631(13) 0.8996(5) 0.2562(4)
H87 H 0.0300 0.9292 0.2602
C63 C -0.2073(14) 0.9014(5) 0.2958(4)
H88 H -0.2092 0.9337 0.3249
C64 C 0.6127(13) 0.8132(4) -0.0546(4)
H89 H 0.5967 0.7899 -0.0903
C65 C 0.4871(14) 0.8082(4) -0.0110(4)
H90 H 0.3893 0.7810 -0.0169
C66 C 0.5025(11) 0.8436(5) 0.0435(4)
C67 C 0.6560(13) 0.8824(4) 0.0485(4)
H91 H 0.6740 0.9074 0.0831
C68 C 0.7783(13) 0.8839(4) 0.0036(4)
H92 H 0.8799 0.9094 0.0092
Cd2_2 Cd 0.97713(8) 0.84570(2) -0.12249(3)
N8_2 N 0.7620(9) 0.8510(4) 0.9515(3)
loop_
_geom_bond_atom_site_label_1
_geom_bond_atom_site_label_2
_geom_bond_site_symmetry_1
_geom_bond_site_symmetry_2
Cd1 O3 1_555 1_555
Cd2 O11 1_555 1_555
O1 C6 1_555 1_555
O2 H1 1_555 1_555
O3 C7 1_555 1_555
O4 Cd1 1_555 1_555
O5 Cd1 1_555 1_555
O6 Cd1 1_555 1_555
O7 C17 1_555 1_555
O8 H2 1_555 1_555
O9 C26 1_555 1_555
O10 H3 1_555 1_555
O11 C27 1_555 1_555
O12 Cd2 1_555 1_555
O13 Cd2 1_555 1_555
O14 Cd2 1_555 1_555
O15 C37 1_555 1_555
O16 H4 1_555 1_555
N1 C41 1_555 1_555
N2 C42 1_555 1_555
N3 Cd1 1_555 1_555
N4 Cd2 1_555 1_555
N5 C55 1_555 1_555
N6 C56 1_555 1_555
N7 Cd1 1_555 1_555
N8 C64 1_555 1_555
C1 C2 1_555 1_555
C2 C3 1_555 1_555
C3 H5 1_555 1_555
C4 C3 1_555 1_555
H6 C4 1_555 1_555
H7 C4 1_555 1_555
C5 C1 1_555 1_555
H8 C5 1_555 1_555
H9 C5 1_555 1_555
C6 O2 1_555 1_555
C7 O4 1_555 1_555
C8 C1 1_555 1_555
H10 C8 1_555 1_555
H11 C8 1_555 1_555
H12 C8 1_555 1_555
C9 C2 1_555 1_555
H13 C9 1_555 1_555
H14 C9 1_555 1_555
H15 C9 1_555 1_555
C10 C2 1_555 1_555
H16 C10 1_555 1_555
H17 C10 1_555 1_555
H18 C10 1_555 1_555
C11 C12 1_555 1_555
C12 C13 1_555 1_555
C13 H19 1_555 1_555
C14 C13 1_555 1_555
H20 C14 1_555 1_555
H21 C14 1_555 1_555
C15 C11 1_555 1_555
H22 C15 1_555 1_555
H23 C15 1_555 1_555
C16 O5 1_555 1_555
C17 O8 1_555 1_555
C18 C11 1_555 1_555
H24 C18 1_555 1_555
H25 C18 1_555 1_555
H26 C18 1_555 1_555
C19 C12 1_555 1_555
H27 C19 1_555 1_555
H28 C19 1_555 1_555
H29 C19 1_555 1_555
C20 C12 1_555 1_555
H30 C20 1_555 1_555
H31 C20 1_555 1_555
H32 C20 1_555 1_555
C21 C22 1_555 1_555
C22 C23 1_555 1_555
C23 H33 1_555 1_555
C24 C23 1_555 1_555
H34 C24 1_555 1_555
H35 C24 1_555 1_555
C25 C21 1_555 1_555
H36 C25 1_555 1_555
H37 C25 1_555 1_555
C26 O10 1_555 1_555
C27 O12 1_555 1_555
C28 C21 1_555 1_555
H38 C28 1_555 1_555
H39 C28 1_555 1_555
H40 C28 1_555 1_555
C29 C22 1_555 1_555
H41 C29 1_555 1_555
H42 C29 1_555 1_555
H43 C29 1_555 1_555
C30 C22 1_555 1_555
H44 C30 1_555 1_555
H45 C30 1_555 1_555
H46 C30 1_555 1_555
C31 C32 1_555 1_555
C32 C33 1_555 1_555
C33 H47 1_555 1_555
C34 C33 1_555 1_555
H48 C34 1_555 1_555
H49 C34 1_555 1_555
C35 C31 1_555 1_555
H50 C35 1_555 1_555
H51 C35 1_555 1_555
C36 O13 1_555 1_555
C37 O16 1_555 1_555
C38 C31 1_555 1_555
H52 C38 1_555 1_555
H53 C38 1_555 1_555
H54 C38 1_555 1_555
C39 C32 1_555 1_555
H55 C39 1_555 1_555
H56 C39 1_555 1_555
H57 C39 1_555 1_555
C40 C32 1_555 1_555
H58 C40 1_555 1_555
H59 C40 1_555 1_555
H60 C40 1_555 1_555
C41 H61 1_555 1_555
H62 C41 1_555 1_555
C42 C41 1_555 1_555
H63 C42 1_555 1_555
H64 C42 1_555 1_555
C43 N2 1_555 1_555
H65 C43 1_555 1_555
H66 C43 1_555 1_555
C44 N1 1_555 1_555
H67 C44 1_555 1_555
H68 C44 1_555 1_555
C45 N3 1_555 1_555
H69 C45 1_555 1_555
C46 C45 1_555 1_555
H70 C46 1_555 1_555
C47 N1 1_555 1_555
C48 C47 1_555 1_555
H71 C48 1_555 1_555
C49 N3 1_555 1_555
H72 C49 1_555 1_555
C50 N4 1_555 1_555
H73 C50 1_555 1_555
C51 C50 1_555 1_555
H74 C51 1_555 1_555
C52 N2 1_555 1_555
C53 C52 1_555 1_555
H75 C53 1_555 1_555
C54 N4 1_555 1_555
H76 C54 1_555 1_555
C55 H77 1_555 1_555
H78 C55 1_555 1_555
C56 C55 1_555 1_555
H79 C56 1_555 1_555
H80 C56 1_555 1_555
C57 N6 1_555 1_555
H81 C57 1_555 1_555
H82 C57 1_555 1_555
C58 N5 1_555 1_555
H83 C58 1_555 1_555
H84 C58 1_555 1_555
C59 N7 1_555 1_555
H85 C59 1_555 1_555
C60 C59 1_555 1_555
H86 C60 1_555 1_555
C61 N5 1_555 1_555
C62 C61 1_555 1_555
H87 C62 1_555 1_555
C63 N7 1_555 1_555
H88 C63 1_555 1_555
C64 H89 1_555 1_555
C65 C64 1_555 1_555
H90 C65 1_555 1_555
C66 N6 1_555 1_555
C67 C66 1_555 1_555
H91 C67 1_555 1_555
C68 N8 1_555 1_555
H92 C68 1_555 1_555
Cd2_2 N8 1_555 1_555
N8_2 Cd2 1_555 1_555
O6 C16 1_555 1_555
O14 C36 1_555 1_555
C1 C6 1_555 1_555
C3 C7 1_555 1_555
C4 C5 1_555 1_555
C11 C16 1_555 1_555
C13 C17 1_555 1_555
C14 C15 1_555 1_555
C21 C26 1_555 1_555
C23 C27 1_555 1_555
C24 C25 1_555 1_555
C31 C36 1_555 1_555
C33 C37 1_555 1_555
C34 C35 1_555 1_555
C43 C44 1_555 1_555
C46 C47 1_555 1_555
C48 C49 1_555 1_555
C51 C52 1_555 1_555
C53 C54 1_555 1_555
C57 C58 1_555 1_555
C60 C61 1_555 1_555
C62 C63 1_555 1_555
C65 C66 1_555 1_555
C67 C68 1_555 1_555

#END
