
#######################################################################
#
#                 Cambridge Crystallographic Data Centre
#                                CCDC 
#
#######################################################################
#
# If this CIF has been generated from an entry in the Cambridge 
# Structural Database, then it will include bibliographic, chemical, 
# crystal, experimental, refinement or atomic coordinate data resulting 
# from the CCDC's data processing and validation procedures.
#
#######################################################################

data_ANADAV
_symmetry_cell_setting           monoclinic
_symmetry_space_group_name_H-M   'P 21'
_symmetry_Int_Tables_number      4
_space_group_name_Hall           'P 2yb'
loop_
_symmetry_equiv_pos_site_id
_symmetry_equiv_pos_as_xyz
1 x,y,z
2 -x,1/2+y,-z
_cell_length_a                   10.568(2)
_cell_length_b                   13.363(3)
_cell_length_c                   13.111(3)
_cell_angle_alpha                90
_cell_angle_beta                 112.40(3)
_cell_angle_gamma                90
_cell_volume                     1711.83
loop_
_atom_site_label
_atom_site_type_symbol
_atom_site_fract_x
_atom_site_fract_y
_atom_site_fract_z
Co1 Co 0.35946(6) 0.09851(4) 0.19068(5)
Co2 Co 0.64647(6) 0.05874(4) 0.31701(5)
O1 O 0.2590(4) -0.0246(3) 0.1015(3)
O2 O 0.4780(3) -0.0457(3) 0.1983(3)
O3 O 0.5709(3) -0.3507(3) -0.0767(3)
O4 O 0.3513(3) -0.3910(3) -0.1734(2)
O5 O 0.3563(3) 0.0459(3) 0.3347(3)
O6 O 0.5760(4) 0.0106(3) 0.4299(3)
O7 O 0.2559(4) -0.3120(3) 0.6022(3)
O8 O 0.4772(4) -0.3011(3) 0.6933(3)
N1 N 0.0444(5) 0.4813(4) 0.2312(3)
N2 N -0.0540(5) 0.6695(4) 0.2757(3)
N3 N 0.2229(4) 0.2139(4) 0.1802(3)
N4 N -0.2226(4) 0.9417(4) 0.3247(3)
C1 C 0.3491(5) -0.1916(5) 0.1047(4)
C2 C 0.3690(6) -0.2074(5) -0.0072(4)
C3 C 0.4043(5) -0.3207(5) 0.0025(4)
H1 H 0.3231 -0.3584 -0.0012
C4 C 0.5127(6) -0.3302(5) 0.1187(4)
H2 H 0.6025 -0.3125 0.1203
H3 H 0.5159 -0.3978 0.1465
C5 C 0.4654(6) -0.2552(5) 0.1869(5)
H4 H 0.4326 -0.2909 0.2364
H5 H 0.5410 -0.2127 0.2305
C6 C 0.3636(6) -0.0811(5) 0.1370(4)
C7 C 0.4456(6) -0.3557(5) -0.0886(4)
C8 C 0.2094(5) -0.2278(4) 0.0988(5)
H6 H 0.2055 -0.2235 0.1706
H7 H 0.1960 -0.2960 0.0740
H8 H 0.1389 -0.1867 0.0481
C9 C 0.2378(5) -0.1878(5) -0.1084(4)
H9 H 0.2052 -0.1215 -0.1041
H10 H 0.1692 -0.2358 -0.1103
H11 H 0.2567 -0.1939 -0.1741
C10 C 0.4799(6) -0.1435(5) -0.0131(5)
H12 H 0.4996 -0.1620 -0.0763
H13 H 0.5605 -0.1521 0.0526
H14 H 0.4518 -0.0747 -0.0196
C11 C 0.4175(5) -0.0155(5) 0.5177(4)
C12 C 0.3536(5) -0.1225(5) 0.4998(4)
C13 C 0.3604(5) -0.1495(5) 0.6183(4)
H15 H 0.2782 -0.1226 0.6259
C14 C 0.4866(6) -0.0910(5) 0.6990(4)
H16 H 0.4600 -0.0494 0.7481
H17 H 0.5569 -0.1373 0.7431
C15 C 0.5399(6) -0.0262(5) 0.6277(4)
H18 H 0.6161 -0.0585 0.6170
H19 H 0.5695 0.0387 0.6615
C16 C 0.4539(5) 0.0167(5) 0.4193(4)
C17 C 0.3645(6) -0.2605(5) 0.6391(4)
C18 C 0.3219(5) 0.0654(4) 0.5339(4)
H20 H 0.3012 0.0489 0.5971
H21 H 0.2386 0.0681 0.4695
H22 H 0.3665 0.1294 0.5450
C19 C 0.2048(5) -0.1278(5) 0.4160(4)
H23 H 0.2006 -0.1052 0.3453
H24 H 0.1480 -0.0859 0.4404
H25 H 0.1728 -0.1956 0.4100
C20 C 0.4399(6) -0.1968(5) 0.4631(4)
H26 H 0.4011 -0.2626 0.4566
H27 H 0.5320 -0.1977 0.5168
H28 H 0.4402 -0.1764 0.3930
C21 C 0.0479(7) 0.5044(5) 0.3402(5)
H29 H 0.1381 0.5292 0.3856
H30 H 0.0321 0.4436 0.3740
C22 C -0.0563(6) 0.5802(5) 0.3373(5)
H31 H -0.1463 0.5500 0.3049
H32 H -0.0416 0.5991 0.4123
C23 C -0.0587(6) 0.6434(5) 0.1657(4)
H33 H -0.0481 0.7037 0.1286
H34 H -0.1475 0.6148 0.1226
C24 C 0.0515(6) 0.5699(6) 0.1706(5)
H35 H 0.0410 0.5513 0.0962
H36 H 0.1405 0.6010 0.2059
C25 C 0.1766(5) 0.2257(5) 0.2623(4)
H37 H 0.1844 0.1713 0.3086
C26 C 0.1193(5) 0.3110(5) 0.2831(5)
H38 H 0.0928 0.3142 0.3430
C27 C 0.1012(5) 0.3934(5) 0.2130(4)
C28 C 0.1458(5) 0.3810(5) 0.1265(4)
H39 H 0.1364 0.4333 0.0774
C29 C 0.2032(5) 0.2930(5) 0.1132(4)
H40 H 0.2304 0.2876 0.0538
C30 C -0.1754(5) 0.9294(5) 0.2441(4)
H41 H -0.1813 0.9833 0.1976
C31 C -0.1196(6) 0.8431(5) 0.2266(4)
H42 H -0.0873 0.8402 0.1699
C32 C -0.1091(5) 0.7575(5) 0.2921(4)
C33 C -0.1541(5) 0.7716(5) 0.3793(4)
H43 H -0.1458 0.7202 0.4292
C34 C -0.2104(5) 0.8617(4) 0.3903(4)
H44 H -0.2423 0.8678 0.4470
Co1A Co 0.64054(6) -0.40149(4) -0.19068(5)
Co1A_2 Co 0.64054(6) -0.40149(4) 0.80932(5)
Co2A Co 0.35353(6) -0.44126(4) -0.31701(5)
Co2A_2 Co 0.35353(6) -0.44126(4) 0.68299(5)
Co2_2 Co -0.35353(6) 1.05874(4) 0.31701(5)
O3A O 0.4291(3) 0.1493(3) 0.0767(3)
O4A O 0.6487(3) 0.1090(3) 0.1734(2)
O7A O 0.7441(4) 0.1880(3) 0.3978(3)
O8A O 0.5228(4) 0.1989(3) 0.3067(3)
N4_2 N 0.7774(4) -0.0583(4) 0.3247(3)
O9 O -0.0037(5) 0.0202(5) 0.0997(4)
H45 H -0.0448 0.0485 0.1411
H46 H 0.0709 0.0474 0.1021
O10 O 0.9885(7) 0.1418(7) 0.3914(6)
H47 H 0.9272 0.1726 0.4066
H48 H 0.9515 0.0913 0.3476
loop_
_geom_bond_atom_site_label_1
_geom_bond_atom_site_label_2
_geom_bond_site_symmetry_1
_geom_bond_site_symmetry_2
Co1 O1 1_555 1_555
Co2 O2 1_555 1_555
O1 C6 1_555 1_555
O2 Co1 1_555 1_555
O3 C7 1_555 1_555
O4 C7 1_555 1_555
O5 Co1 1_555 1_555
O6 Co2 1_555 1_555
O7 C17 1_555 1_555
O8 C17 1_555 1_555
N1 C21 1_555 1_555
N2 C22 1_555 1_555
N3 Co1 1_555 1_555
N4 C30 1_555 1_555
C1 C2 1_555 1_555
C2 C3 1_555 1_555
C3 H1 1_555 1_555
C4 C3 1_555 1_555
H2 C4 1_555 1_555
H3 C4 1_555 1_555
C5 C1 1_555 1_555
H4 C5 1_555 1_555
H5 C5 1_555 1_555
C6 O2 1_555 1_555
C7 C3 1_555 1_555
C8 C1 1_555 1_555
H6 C8 1_555 1_555
H7 C8 1_555 1_555
H8 C8 1_555 1_555
C9 C2 1_555 1_555
H9 C9 1_555 1_555
H10 C9 1_555 1_555
H11 C9 1_555 1_555
C10 C2 1_555 1_555
H12 C10 1_555 1_555
H13 C10 1_555 1_555
H14 C10 1_555 1_555
C11 C12 1_555 1_555
C12 C13 1_555 1_555
C13 H15 1_555 1_555
C14 C13 1_555 1_555
H16 C14 1_555 1_555
H17 C14 1_555 1_555
C15 C11 1_555 1_555
H18 C15 1_555 1_555
H19 C15 1_555 1_555
C16 O5 1_555 1_555
C17 C13 1_555 1_555
C18 C11 1_555 1_555
H20 C18 1_555 1_555
H21 C18 1_555 1_555
H22 C18 1_555 1_555
C19 C12 1_555 1_555
H23 C19 1_555 1_555
H24 C19 1_555 1_555
H25 C19 1_555 1_555
C20 C12 1_555 1_555
H26 C20 1_555 1_555
H27 C20 1_555 1_555
H28 C20 1_555 1_555
C21 H29 1_555 1_555
H30 C21 1_555 1_555
C22 C21 1_555 1_555
H31 C22 1_555 1_555
H32 C22 1_555 1_555
C23 N2 1_555 1_555
H33 C23 1_555 1_555
H34 C23 1_555 1_555
C24 N1 1_555 1_555
H35 C24 1_555 1_555
H36 C24 1_555 1_555
C25 N3 1_555 1_555
H37 C25 1_555 1_555
C26 C25 1_555 1_555
H38 C26 1_555 1_555
C27 N1 1_555 1_555
C28 C27 1_555 1_555
H39 C28 1_555 1_555
C29 N3 1_555 1_555
H40 C29 1_555 1_555
C30 H41 1_555 1_555
C31 C30 1_555 1_555
H42 C31 1_555 1_555
C32 N2 1_555 1_555
C33 C32 1_555 1_555
H43 C33 1_555 1_555
C34 N4 1_555 1_555
H44 C34 1_555 1_555
O9 H45 1_555 1_555
H46 O9 1_555 1_555
O10 H47 1_555 1_555
H48 O10 1_555 1_555
Co1A O3 1_555 1_555
Co1A_2 O8 1_555 1_555
Co2A O4 1_555 1_555
Co2A_2 O7 1_555 1_555
Co2_2 N4 1_555 1_555
O3A Co1 1_555 1_555
O4A Co2 1_555 1_555
O7A Co2 1_555 1_555
O8A Co1 1_555 1_555
N4_2 Co2 1_555 1_555
Co2 O8A 1_555 1_555
O6 C16 1_555 1_555
O8 Co2A_2 1_555 1_555
C1 C6 1_555 1_555
C4 C5 1_555 1_555
C11 C16 1_555 1_555
C14 C15 1_555 1_555
C23 C24 1_555 1_555
C26 C27 1_555 1_555
C28 C29 1_555 1_555
C31 C32 1_555 1_555
C33 C34 1_555 1_555

#END
