
#######################################################################
#
#                 Cambridge Crystallographic Data Centre
#                                CCDC 
#
#######################################################################
#
# If this CIF has been generated from an entry in the Cambridge 
# Structural Database, then it will include bibliographic, chemical, 
# crystal, experimental, refinement or atomic coordinate data resulting 
# from the CCDC's data processing and validation procedures.
#
#######################################################################

data_ANAGOM
_symmetry_cell_setting           monoclinic
_symmetry_space_group_name_H-M   'P 21/n'
_symmetry_Int_Tables_number      14
_space_group_name_Hall           '-P 2yn'
loop_
_symmetry_equiv_pos_site_id
_symmetry_equiv_pos_as_xyz
1 x,y,z
2 1/2-x,1/2+y,1/2-z
3 -x,-y,-z
4 1/2+x,1/2-y,1/2+z
_cell_length_a                   10.8152(10)
_cell_length_b                   18.3321(17)
_cell_length_c                   18.1515(18)
_cell_angle_alpha                90
_cell_angle_beta                 94.605(2)
_cell_angle_gamma                90
_cell_volume                     3587.2
loop_
_atom_site_label
_atom_site_type_symbol
_atom_site_fract_x
_atom_site_fract_y
_atom_site_fract_z
Ag1 Ag 0.37244(4) 0.58250(2) 0.29965(2)
Ag2 Ag -0.62999(4) 0.46122(3) -0.19941(2)
N1 N 0.2083(4) 0.5658(2) 0.2224(2)
N2 N -0.4828(4) 0.4996(3) -0.1178(2)
N3 N 0.5282(4) 0.5441(2) 0.3746(2)
N4 N 1.2027(4) 0.4802(3) 0.7281(2)
O1 O 0.5356(3) 0.6524(2) 0.23539(19)
O2 O 0.5638(4) 0.7047(2) 0.1283(2)
O3 O 0.2553(3) 0.67927(19) 0.36286(19)
O4 O 0.2708(4) 0.7204(2) 0.4774(2)
C1 C 0.5104(5) 0.6995(3) 0.1867(3)
C2 C 0.4022(5) 0.7498(3) 0.1968(3)
C3 C 0.3228(5) 0.7670(3) 0.1348(3)
H9 H 0.3425 0.7514 0.0884
C4 C 0.2154(5) 0.8067(3) 0.1411(3)
H10 H 0.1637 0.8172 0.0991
C5 C 0.1845(5) 0.8306(3) 0.2089(3)
H11 H 0.1112 0.8561 0.2137
C6 C 0.2664(5) 0.8156(3) 0.2703(3)
H12 H 0.2473 0.8326 0.3164
C7 C 0.3756(5) 0.7762(3) 0.2654(3)
C8 C 0.4645(5) 0.7722(3) 0.3324(3)
C9 C 0.5841(5) 0.7981(3) 0.3262(3)
H13 H 0.6074 0.8110 0.2797
C10 C 0.6700(6) 0.8054(3) 0.3870(3)
H14 H 0.7503 0.8214 0.3814
C11 C 0.6329(6) 0.7882(3) 0.4558(3)
H15 H 0.6877 0.7945 0.4975
C12 C 0.5163(5) 0.7619(3) 0.4632(3)
H16 H 0.4932 0.7508 0.5101
C13 C 0.4312(5) 0.7513(3) 0.4027(3)
C14 C 0.3094(5) 0.7145(3) 0.4146(3)
C15 C 0.1376(5) 0.6202(3) 0.1947(3)
H17 H 0.1584 0.6676 0.2092
C16 C 0.0350(5) 0.6098(3) 0.1457(3)
H18 H -0.0112 0.6495 0.1273
C17 C 0.0014(5) 0.5392(3) 0.1240(3)
C18 C 0.0750(5) 0.4831(3) 0.1541(3)
H19 H 0.0563 0.4349 0.1414
C19 C 0.1747(5) 0.4986(3) 0.2022(3)
H20 H 0.2219 0.4598 0.2220
C20 C -0.4174(5) 0.4508(3) -0.0766(3)
H21 H -0.4374 0.4017 -0.0827
C21 C -0.3217(5) 0.4694(3) -0.0256(3)
H22 H -0.2788 0.4331 0.0015
C22 C -0.2890(5) 0.5415(3) -0.0144(3)
C23 C -0.3593(5) 0.5923(3) -0.0553(3)
H23 H -0.3438 0.6419 -0.0484
C24 C -0.4524(5) 0.5695(3) -0.1063(3)
H24 H -0.4966 0.6048 -0.1343
C25 C -0.1053(5) 0.5206(3) 0.0723(3)
H25 H -0.1168 0.4711 0.0625
C26 C -0.1865(5) 0.5644(3) 0.0383(3)
H26 H -0.1786 0.6140 0.0483
C27 C 0.5378(5) 0.4774(3) 0.4045(3)
H27 H 0.4787 0.4426 0.3890
C28 C 0.6302(5) 0.4575(3) 0.4568(3)
H28 H 0.6342 0.4099 0.4744
C29 C 0.7174(5) 0.5080(3) 0.4836(3)
C30 C 0.7073(5) 0.5781(3) 0.4530(3)
H29 H 0.7632 0.6144 0.4690
C31 C 0.6144(5) 0.5928(3) 0.3991(3)
H30 H 0.6110 0.6392 0.3784
C32 C 1.1236(5) 0.4287(3) 0.7031(3)
H31 H 1.1364 0.3812 0.7201
C33 C 1.0234(5) 0.4425(3) 0.6533(3)
H32 H 0.9693 0.4050 0.6384
C34 C 1.0030(5) 0.5121(3) 0.6254(3)
C35 C 1.0851(5) 0.5653(3) 0.6516(3)
H33 H 1.0748 0.6131 0.6351
C36 C 1.1822(5) 0.5477(3) 0.7020(3)
H34 H 1.2364 0.5846 0.7188
C37 C 0.8143(5) 0.4874(3) 0.5405(3)
H35 H 0.8143 0.4395 0.5575
C38 C 0.9017(5) 0.5310(3) 0.5696(3)
H36 H 0.8991 0.5790 0.5532
Ag2_2 Ag 1.37001(4) 0.46122(3) 0.80059(2)
Ag2B Ag 0.62999(4) 0.53878(3) 0.19941(2)
N4_2 N -0.7973(4) 0.4802(3) -0.2719(2)
O1B O -0.5356(3) 0.3476(2) -0.23539(19)
O5 O 0.0263(4) 0.7016(2) 0.5051(2)
H1 H 0.0251 0.7285 0.5432
H2 H 0.0992 0.7028 0.4907
O6 O 0.0088(4) 0.7433(2) 0.3547(2)
H3 H 0.0803 0.7274 0.3466
H4 H -0.0023 0.7353 0.3998
O7 O 0.3115(4) 0.7585(2) 0.6240(2)
H5 H 0.2384 0.7715 0.6322
H6 H 0.3105 0.7452 0.5791
O8 O 0.6162(4) 0.3282(3) 0.2524(3)
H7 H 0.5775 0.3016 0.2198
H8 H 0.6380 0.3017 0.2896
loop_
_geom_bond_atom_site_label_1
_geom_bond_atom_site_label_2
_geom_bond_site_symmetry_1
_geom_bond_site_symmetry_2
Ag1 N1 1_555 1_555
Ag2 N2 1_555 1_555
N1 C15 1_555 1_555
N2 C20 1_555 1_555
N3 Ag1 1_555 1_555
N4 C32 1_555 1_555
O1 Ag1 1_555 1_555
O2 C1 1_555 1_555
O3 Ag1 1_555 1_555
O4 C14 1_555 1_555
O5 H1 1_555 1_555
H2 O5 1_555 1_555
O6 H3 1_555 1_555
H4 O6 1_555 1_555
O7 H5 1_555 1_555
H6 O7 1_555 1_555
O8 H7 1_555 1_555
H8 O8 1_555 1_555
C1 O1 1_555 1_555
C2 C1 1_555 1_555
C3 C2 1_555 1_555
H9 C3 1_555 1_555
C4 C3 1_555 1_555
H10 C4 1_555 1_555
C5 C4 1_555 1_555
H11 C5 1_555 1_555
C6 C5 1_555 1_555
H12 C6 1_555 1_555
C7 C2 1_555 1_555
C8 C7 1_555 1_555
C9 C8 1_555 1_555
H13 C9 1_555 1_555
C10 C9 1_555 1_555
H14 C10 1_555 1_555
C11 C10 1_555 1_555
H15 C11 1_555 1_555
C12 C11 1_555 1_555
H16 C12 1_555 1_555
C13 C8 1_555 1_555
C14 O3 1_555 1_555
C15 H17 1_555 1_555
C16 C15 1_555 1_555
H18 C16 1_555 1_555
C17 C16 1_555 1_555
C18 C17 1_555 1_555
H19 C18 1_555 1_555
C19 N1 1_555 1_555
H20 C19 1_555 1_555
C20 H21 1_555 1_555
C21 C20 1_555 1_555
H22 C21 1_555 1_555
C22 C21 1_555 1_555
C23 C22 1_555 1_555
H23 C23 1_555 1_555
C24 N2 1_555 1_555
H24 C24 1_555 1_555
C25 C17 1_555 1_555
H25 C25 1_555 1_555
C26 C22 1_555 1_555
H26 C26 1_555 1_555
C27 N3 1_555 1_555
H27 C27 1_555 1_555
C28 C27 1_555 1_555
H28 C28 1_555 1_555
C29 C28 1_555 1_555
C30 C29 1_555 1_555
H29 C30 1_555 1_555
C31 N3 1_555 1_555
H30 C31 1_555 1_555
C32 H31 1_555 1_555
C33 C32 1_555 1_555
H32 C33 1_555 1_555
C34 C33 1_555 1_555
C35 C34 1_555 1_555
H33 C35 1_555 1_555
C36 N4 1_555 1_555
H34 C36 1_555 1_555
C37 C29 1_555 1_555
H35 C37 1_555 1_555
C38 C34 1_555 1_555
H36 C38 1_555 1_555
Ag2_2 N4 1_555 1_555
Ag2B O1 1_555 1_555
N4_2 Ag2 1_555 1_555
O1B Ag2 1_555 1_555
C6 C7 1_555 1_555
C12 C13 1_555 1_555
C13 C14 1_555 1_555
C18 C19 1_555 1_555
C23 C24 1_555 1_555
C25 C26 1_555 1_555
C30 C31 1_555 1_555
C35 C36 1_555 1_555
C37 C38 1_555 1_555

#END
