
#######################################################################
#
#                 Cambridge Crystallographic Data Centre
#                                CCDC 
#
#######################################################################
#
# If this CIF has been generated from an entry in the Cambridge 
# Structural Database, then it will include bibliographic, chemical, 
# crystal, experimental, refinement or atomic coordinate data resulting 
# from the CCDC's data processing and validation procedures.
#
#######################################################################

data_ANAGAY
_symmetry_cell_setting           monoclinic
_symmetry_space_group_name_H-M   'P 21/c'
_symmetry_Int_Tables_number      14
_space_group_name_Hall           '-P 2ybc'
loop_
_symmetry_equiv_pos_site_id
_symmetry_equiv_pos_as_xyz
1 x,y,z
2 -x,1/2+y,1/2-z
3 -x,-y,-z
4 x,1/2-y,1/2+z
_cell_length_a                   7.9490(9)
_cell_length_b                   15.8628(18)
_cell_length_c                   16.4564(19)
_cell_angle_alpha                90
_cell_angle_beta                 99.459(2)
_cell_angle_gamma                90
_cell_volume                     2046.83
loop_
_atom_site_label
_atom_site_type_symbol
_atom_site_fract_x
_atom_site_fract_y
_atom_site_fract_z
H1 H 0.335(5) 0.855(3) 0.062(3)
H2 H 0.360(6) 0.834(3) 0.137(3)
O1 O 0.3818(4) 0.86538(18) 0.1059(2)
O2 O 1.0433(2) 0.55990(11) 0.14556(12)
S1 S 0.87403(8) 0.53644(4) 0.16184(4)
Cd1 Cd 0.69747(2) 0.028600(11) 0.271488(12)
O3 O 0.7130(3) 0.24031(12) 0.29223(12)
O4 O 0.8588(3) 0.54343(12) 0.24789(13)
O5 O 0.5790(3) 0.10516(14) 0.36309(14)
O6 O 0.7413(3) 0.14336(11) 0.19783(12)
O7 O 0.4338(3) 0.01819(16) 0.18337(16)
O8 O 0.7424(2) 0.58220(12) 0.10748(13)
C1 C 0.7468(3) 0.21959(15) 0.22421(16)
C2 C 0.7934(3) 0.28400(15) 0.16572(15)
N1 N 0.7934(3) -0.07358(16) 0.19096(16)
C3 C 0.7188(3) -0.16855(17) 0.2935(2)
C4 C 0.7811(3) -0.15365(19) 0.2147(2)
N2 N 0.6774(3) -0.10122(14) 0.33452(16)
C5 C 0.8127(3) 0.26257(16) 0.08503(17)
C6 C 0.8444(4) 0.32414(18) 0.02955(17)
H3 H 0.8537 0.3094 -0.0242
C7 C 0.6248(4) -0.1118(2) 0.4067(2)
H4 H 0.5974 -0.0644 0.4350
C8 C 0.7034(5) -0.2498(2) 0.3258(3)
H5 H 0.7311 -0.2969 0.2971
C9 C 0.6090(5) -0.1900(3) 0.4411(3)
H6 H 0.5727 -0.1952 0.4918
C10 C 0.8521(5) -0.0574(3) 0.1217(2)
H7 H 0.8603 -0.0015 0.1057
C11 C 0.9016(5) -0.1200(4) 0.0723(3)
H8 H 0.9438 -0.1068 0.0244
O9 O 0.7961(3) 0.18182(12) 0.05810(12)
H9 H 0.7752 0.1513 0.0954
C12 C 0.8127(3) 0.36894(15) 0.18911(16)
H10 H 0.8011 0.3846 0.2424
C13 C 0.8619(3) 0.40635(18) 0.05392(17)
H11 H 0.8830 0.4474 0.0165
C14 C 0.8484(3) 0.42944(15) 0.13449(16)
C15 C 0.8284(5) -0.2188(2) 0.1666(3)
H12 H 0.8199 -0.2745 0.1831
C16 C 0.6478(5) -0.2592(3) 0.3994(3)
H13 H 0.6364 -0.3127 0.4208
C17 C 0.8870(5) -0.2009(4) 0.0954(3)
H14 H 0.9170 -0.2444 0.0627
H15 H 0.476(5) 0.101(2) 0.368(2)
H16 H 0.425(4) -0.022(2) 0.161(2)
H17 H 0.592(5) 0.150(3) 0.346(3)
H18 H 0.345(5) 0.025(2) 0.204(2)
O2A O 0.9567(2) 0.05990(11) 0.35444(12)
Cd1A Cd 1.30253(2) 0.528600(11) 0.228512(12)
loop_
_geom_bond_atom_site_label_1
_geom_bond_atom_site_label_2
_geom_bond_site_symmetry_1
_geom_bond_site_symmetry_2
H1 O1 1_555 1_555
H2 O1 1_555 1_555
O2 S1 1_555 1_555
S1 O4 1_555 1_555
Cd1 O5 1_555 1_555
O3 C1 1_555 1_555
O5 H15 1_555 1_555
O6 Cd1 1_555 1_555
O7 Cd1 1_555 1_555
O8 S1 1_555 1_555
C1 O6 1_555 1_555
C2 C1 1_555 1_555
N1 Cd1 1_555 1_555
C3 C4 1_555 1_555
C4 N1 1_555 1_555
N2 Cd1 1_555 1_555
C5 C2 1_555 1_555
C6 C5 1_555 1_555
H3 C6 1_555 1_555
C7 N2 1_555 1_555
H4 C7 1_555 1_555
C8 C3 1_555 1_555
H5 C8 1_555 1_555
C9 C7 1_555 1_555
H6 C9 1_555 1_555
C10 N1 1_555 1_555
H7 C10 1_555 1_555
C11 C10 1_555 1_555
H8 C11 1_555 1_555
O9 C5 1_555 1_555
H9 O9 1_555 1_555
C12 C2 1_555 1_555
H10 C12 1_555 1_555
C13 C6 1_555 1_555
H11 C13 1_555 1_555
C14 S1 1_555 1_555
C15 C4 1_555 1_555
H12 C15 1_555 1_555
C16 C8 1_555 1_555
H13 C16 1_555 1_555
C17 C11 1_555 1_555
H14 C17 1_555 1_555
H16 O7 1_555 1_555
H17 O5 1_555 1_555
H18 O7 1_555 1_555
O2A Cd1 1_555 1_555
Cd1A O2 1_555 1_555
C3 N2 1_555 1_555
C9 C16 1_555 1_555
C12 C14 1_555 1_555
C13 C14 1_555 1_555
C15 C17 1_555 1_555

#END
