
#######################################################################
#
#                 Cambridge Crystallographic Data Centre
#                                CCDC 
#
#######################################################################
#
# If this CIF has been generated from an entry in the Cambridge 
# Structural Database, then it will include bibliographic, chemical, 
# crystal, experimental, refinement or atomic coordinate data resulting 
# from the CCDC's data processing and validation procedures.
#
#######################################################################

data_ANAGEC
_symmetry_cell_setting           monoclinic
_symmetry_space_group_name_H-M   'P 21/c'
_symmetry_Int_Tables_number      14
_space_group_name_Hall           '-P 2ybc'
loop_
_symmetry_equiv_pos_site_id
_symmetry_equiv_pos_as_xyz
1 x,y,z
2 -x,1/2+y,1/2-z
3 -x,-y,-z
4 x,1/2-y,1/2+z
_cell_length_a                   11.2215(11)
_cell_length_b                   6.7153(7)
_cell_length_c                   17.1529(18)
_cell_angle_alpha                90
_cell_angle_beta                 107.109(2)
_cell_angle_gamma                90
_cell_volume                     1235.37
loop_
_atom_site_label
_atom_site_type_symbol
_atom_site_fract_x
_atom_site_fract_y
_atom_site_fract_z
Cu1 Cu 0.15675(4) 0.34793(7) 0.21465(3)
Cu2 Cu 0.55966(4) 0.49453(8) 0.09129(3)
O1 O 0.3477(2) 0.3902(4) 0.23975(15)
O2 O 0.4974(2) 0.4310(5) 0.18171(15)
O3 O 0.4089(2) 0.4157(5) 0.00866(15)
O4 O 0.2826(2) 0.4053(4) -0.15587(16)
O5 O 0.1282(3) 0.1927(4) -0.18058(16)
O6 O -0.1382(3) 0.2077(5) 0.02720(17)
O7 O -0.0181(2) 0.2795(5) 0.15269(17)
O8 O 0.1580(3) 0.6673(5) 0.2424(2)
H1 H 0.166(5) 0.744(6) 0.206(2)
H2 H 0.111(5) 0.717(7) 0.267(3)
O10 O 0.6545(3) 0.1702(5) 0.0914(2)
H5 H 0.694(4) 0.193(9) 0.057(2)
H6 H 0.704(4) 0.161(12) 0.1390(13)
N1 N 0.1750(3) 0.3377(4) 0.10732(18)
C1 C 0.2864(3) 0.3734(5) 0.0975(2)
C2 C 0.3008(3) 0.3714(5) 0.0190(2)
C3 C 0.1969(3) 0.3162(5) -0.0468(2)
C4 C 0.0847(3) 0.2719(5) -0.0324(2)
H9 H 0.0166 0.2311 -0.0750
C5 C 0.0747(3) 0.2888(5) 0.0460(2)
C6 C 0.3848(3) 0.4018(5) 0.1781(2)
C7 C 0.2049(3) 0.3049(5) -0.1327(2)
C8 C -0.0382(3) 0.2536(6) 0.0756(2)
Cu1C Cu 0.15675(4) 0.15207(7) -0.28535(3)
Cu2B Cu 0.44034(4) 0.50547(8) -0.09129(3)
O3B O 0.5911(2) 0.5843(5) -0.00866(15)
O4B O 0.7174(2) 0.5947(4) 0.15587(16)
O5C O 0.1282(3) 0.3073(4) 0.31942(16)
O9 O 0.4765(4) 0.8517(7) 0.1075(3)
H3 H 0.530(8) 0.915(14) 0.145(3)
H4 H 0.475(9) 0.895(13) 0.061(2)
O11 O 0.2460(5) 0.9009(7) 0.1468(3)
H7 H 0.3173 0.8585 0.1467
H8 H 0.1919 0.8987 0.1002
loop_
_geom_bond_atom_site_label_1
_geom_bond_atom_site_label_2
_geom_bond_site_symmetry_1
_geom_bond_site_symmetry_2
Cu1 O1 1_555 1_555
Cu2 O2 1_555 1_555
O1 C6 1_555 1_555
O2 C6 1_555 1_555
O3 Cu2 1_555 1_555
O4 C7 1_555 1_555
O5 C7 1_555 1_555
O6 C8 1_555 1_555
O7 Cu1 1_555 1_555
O8 Cu1 1_555 1_555
H1 O8 1_555 1_555
H2 O8 1_555 1_555
O9 H3 1_555 1_555
H4 O9 1_555 1_555
O10 Cu2 1_555 1_555
H5 O10 1_555 1_555
H6 O10 1_555 1_555
O11 H7 1_555 1_555
H8 O11 1_555 1_555
N1 Cu1 1_555 1_555
C1 N1 1_555 1_555
C2 O3 1_555 1_555
C3 C2 1_555 1_555
C4 C3 1_555 1_555
H9 C4 1_555 1_555
C5 N1 1_555 1_555
C6 C1 1_555 1_555
C7 C3 1_555 1_555
C8 O7 1_555 1_555
Cu1C O5 1_555 1_555
Cu2B O3 1_555 1_555
O3B Cu2 1_555 1_555
O4B Cu2 1_555 1_555
O5C Cu1 1_555 1_555
O4 Cu2B 1_555 1_555
C1 C2 1_555 1_555
C4 C5 1_555 1_555
C5 C8 1_555 1_555
Cu2B O3B 1_555 1_555

#END
