
#######################################################################
#
#                 Cambridge Crystallographic Data Centre
#                                CCDC 
#
#######################################################################
#
# If this CIF has been generated from an entry in the Cambridge 
# Structural Database, then it will include bibliographic, chemical, 
# crystal, experimental, refinement or atomic coordinate data resulting 
# from the CCDC's data processing and validation procedures.
#
#######################################################################

data_ANAHED
_symmetry_cell_setting           triclinic
_symmetry_space_group_name_H-M   'P -1'
_symmetry_Int_Tables_number      2
_space_group_name_Hall           '-P 1'
loop_
_symmetry_equiv_pos_site_id
_symmetry_equiv_pos_as_xyz
1 x,y,z
2 -x,-y,-z
_cell_length_a                   9.246(3)
_cell_length_b                   11.590(3)
_cell_length_c                   12.880(4)
_cell_angle_alpha                78.061(5)
_cell_angle_beta                 80.244(6)
_cell_angle_gamma                85.038(5)
_cell_volume                     1328.95
loop_
_atom_site_label
_atom_site_type_symbol
_atom_site_fract_x
_atom_site_fract_y
_atom_site_fract_z
Cu1 Cu 0.38883(17) 0.55119(14) 0.32095(13)
Cr1 Cr 0.5000 0.0000 0.5000
Mo1 Mo 0.58711(12) 0.24398(9) 0.31933(9)
Mo2 Mo 0.35414(13) 0.06200(9) 0.27463(9)
Mo3 Mo 0.27049(12) -0.18325(9) 0.45446(9)
O1 O 0.3772(12) -0.0175(9) 0.1760(8)
O2 O 0.2430(11) 0.1816(8) 0.2337(8)
O3 O 0.5445(10) 0.1309(7) 0.2384(7)
O4 O 0.7535(11) 0.2765(9) 0.2490(8)
O5 O 0.6038(9) 0.2809(7) 0.4556(7)
O6 O 0.4697(10) 0.3603(7) 0.2768(7)
O7 O 0.3958(9) 0.1344(7) 0.4174(6)
O8 O 0.4779(9) -0.0805(7) 0.3828(7)
O9 O 0.3190(9) -0.0789(7) 0.5755(7)
O10 O 0.2109(9) -0.0285(7) 0.3811(7)
O11 O 0.3013(10) -0.2580(7) 0.3505(8)
O12 O 0.1008(10) -0.2170(8) 0.5227(9)
O13 O 0.3297(9) 0.4717(8) 0.4735(7)
O14 O 0.4256(9) 0.4274(8) 0.6270(7)
N1 N 0.1935(12) 0.5241(9) 0.2914(9)
N2 N 0.1609(12) 0.4226(10) 0.2685(9)
H1 H 0.2250 0.3680 0.2530
N3 N 0.4701(13) 0.6271(9) 0.1728(9)
N4 N 0.462(2) 0.7437(12) 0.1346(12)
H2 H 0.4202 0.7944 0.1719
C1 C 0.0213(19) 0.4174(17) 0.2725(15)
H3 H -0.0258 0.3551 0.2599
C2 C -0.0437(19) 0.518(2) 0.2982(18)
H4 H -0.1437 0.5392 0.3081
C3 C 0.0702(17) 0.5829(16) 0.3068(17)
H5 H 0.0593 0.6586 0.3217
C4 C 0.543(3) 0.5842(18) 0.0950(15)
H6 H 0.5733 0.5051 0.0993
C5 C 0.570(3) 0.670(2) 0.0035(19)
H7 H 0.6115 0.6595 -0.0649
C6 C 0.524(4) 0.772(2) 0.0337(16)
H8 H 0.5334 0.8476 -0.0079
C7 C 0.4323(14) 0.4705(10) 0.5275(10)
Cu1A Cu 0.61117(17) -0.55119(14) 0.67905(13)
Cu1_2 Cu 0.38883(17) -0.44881(14) 0.32095(13)
Cu1A_2 Cu 0.61117(17) 0.44881(14) 0.67905(13)
Mo1A Mo 0.41289(12) -0.24398(9) 0.68067(9)
Mo2A Mo 0.64586(13) -0.06200(9) 0.72537(9)
Mo3A Mo 0.72951(12) 0.18325(9) 0.54554(9)
O1A O 0.6228(12) 0.0175(9) 0.8240(8)
O2A O 0.7570(11) -0.1816(8) 0.7663(8)
O3A O 0.4555(10) -0.1309(7) 0.7616(7)
O4A O 0.2465(11) -0.2765(9) 0.7510(8)
O5A O 0.3962(9) -0.2809(7) 0.5444(7)
O6A O 0.5303(10) -0.3603(7) 0.7232(7)
O6A_2 O 0.5303(10) 0.6397(7) 0.7232(7)
O7A O 0.6042(9) -0.1344(7) 0.5826(6)
O8A O 0.5221(9) 0.0805(7) 0.6172(7)
O9A O 0.6810(9) 0.0789(7) 0.4245(7)
O10A O 0.7891(9) 0.0285(7) 0.6189(7)
O11A O 0.6987(10) 0.2580(7) 0.6495(8)
O11_2 O 0.3013(10) 0.7420(7) 0.3505(8)
O12A O 0.8992(10) 0.2170(8) 0.4773(9)
O13A O 0.6703(9) 0.5283(8) 0.5265(7)
O14A O 0.5744(9) 0.5726(8) 0.3730(7)
N1A N 0.8065(12) 0.4759(9) 0.7086(9)
N2A N 0.8391(12) 0.5774(10) 0.7315(9)
H1A H 0.7750 0.6320 0.7470
N3A N 0.5299(13) 0.3729(9) 0.8272(9)
N4A N 0.538(2) 0.2563(12) 0.8654(12)
H2A H 0.5798 0.2056 0.8281
C1A C 0.9787(19) 0.5826(17) 0.7275(15)
H3A H 1.0258 0.6449 0.7401
C2A C 1.0437(19) 0.482(2) 0.7018(18)
H4A H 1.1437 0.4608 0.6919
C3A C 0.9298(17) 0.4171(16) 0.6932(17)
H5A H 0.9407 0.3414 0.6783
C4A C 0.457(3) 0.4158(18) 0.9050(15)
H6A H 0.4267 0.4949 0.9007
C5A C 0.430(3) 0.330(2) 0.9965(19)
H7A H 0.3885 0.3405 1.0649
C6A C 0.476(4) 0.228(2) 0.9663(16)
H8A H 0.4666 0.1524 1.0079
C7A C 0.5677(14) 0.5295(10) 0.4725(10)
O15 O 0.0000 0.0000 0.0000
O16 O 0.751(4) 0.019(4) 0.107(3)
O17 O 0.8256(11) 0.7370(9) 0.4855(8)
O18 O 0.7117(14) 0.8009(12) 0.2875(10)
O19 O 0.9246(13) 0.9828(14) 0.3271(12)
O20 O 0.912(8) 0.311(9) 0.995(3)
loop_
_geom_bond_atom_site_label_1
_geom_bond_atom_site_label_2
_geom_bond_site_symmetry_1
_geom_bond_site_symmetry_2
Cu1 O6 1_555 1_555
Cr1 O7 1_555 1_555
Mo1 O3 1_555 1_555
Mo2 O1 1_555 1_555
Mo3 O8 1_555 1_555
O2 Mo2 1_555 1_555
O3 Mo2 1_555 1_555
O4 Mo1 1_555 1_555
O5 Mo1 1_555 1_555
O6 Mo1 1_555 1_555
O7 Mo1 1_555 1_555
O8 Cr1 1_555 1_555
O9 Cr1 1_555 1_555
O10 Mo2 1_555 1_555
O11 Mo3 1_555 1_555
O12 Mo3 1_555 1_555
O13 Cu1 1_555 1_555
O14 C7 1_555 1_555
N1 Cu1 1_555 1_555
N2 N1 1_555 1_555
H1 N2 1_555 1_555
N3 Cu1 1_555 1_555
N4 N3 1_555 1_555
H2 N4 1_555 1_555
C1 N2 1_555 1_555
H3 C1 1_555 1_555
C2 C1 1_555 1_555
H4 C2 1_555 1_555
C3 N1 1_555 1_555
H5 C3 1_555 1_555
C4 N3 1_555 1_555
H6 C4 1_555 1_555
C5 C4 1_555 1_555
H7 C5 1_555 1_555
C6 N4 1_555 1_555
H8 C6 1_555 1_555
C7 O13 1_555 1_555
Cu1A O6A 1_555 1_555
Cu1_2 O11 1_555 1_555
Cu1A_2 O14 1_555 1_555
Mo1A O9 1_555 1_555
Mo2A O1A 1_555 1_555
Mo3A O5 1_555 1_555
O2A Mo2A 1_555 1_555
O3A Mo1A 1_555 1_555
O4A Mo1A 1_555 1_555
O5A Mo3 1_555 1_555
O6A Mo1A 1_555 1_555
O6A_2 Cu1A_2 1_555 1_555
O7A Cr1 1_555 1_555
O8A Cr1 1_555 1_555
O9A Cr1 1_555 1_555
O10A Mo2A 1_555 1_555
O11A Cu1A_2 1_555 1_555
O11_2 Cu1 1_555 1_555
O12A Mo3A 1_555 1_555
O13A Cu1A_2 1_555 1_555
O14A Cu1 1_555 1_555
N1A Cu1A_2 1_555 1_555
N2A N1A 1_555 1_555
H1A N2A 1_555 1_555
N3A Cu1A_2 1_555 1_555
N4A N3A 1_555 1_555
H2A N4A 1_555 1_555
C1A N2A 1_555 1_555
H3A C1A 1_555 1_555
C2A C1A 1_555 1_555
H4A C2A 1_555 1_555
C3A N1A 1_555 1_555
H5A C3A 1_555 1_555
C4A N3A 1_555 1_555
H6A C4A 1_555 1_555
C5A C4A 1_555 1_555
H7A C5A 1_555 1_555
C6A N4A 1_555 1_555
H8A C6A 1_555 1_555
C7A C7 1_555 1_555
Mo1 O9A 1_555 1_555
Mo2 O7 1_555 1_555
Mo2 O8 1_555 1_555
Mo3 O9 1_555 1_555
Mo3 O10 1_555 1_555
C2 C3 1_555 1_555
C5 C6 1_555 1_555
Mo1A O5A 1_555 1_555
Mo1A O7A 1_555 1_555
Mo2A O3A 1_555 1_555
Mo2A O7A 1_555 1_555
Mo2A O8A 1_555 1_555
Mo3A O8A 1_555 1_555
Mo3A O9A 1_555 1_555
Mo3A O10A 1_555 1_555
Mo3A O11A 1_555 1_555
O13A C7A 1_555 1_555
O14A C7A 1_555 1_555
C2A C3A 1_555 1_555
C5A C6A 1_555 1_555

#END
