
#######################################################################
#
#                 Cambridge Crystallographic Data Centre
#                                CCDC 
#
#######################################################################
#
# If this CIF has been generated from an entry in the Cambridge 
# Structural Database, then it will include bibliographic, chemical, 
# crystal, experimental, refinement or atomic coordinate data resulting 
# from the CCDC's data processing and validation procedures.
#
#######################################################################

data_ANARIR
_symmetry_cell_setting           orthorhombic
_symmetry_space_group_name_H-M   'P b c a'
_symmetry_Int_Tables_number      61
_space_group_name_Hall           '-P 2ac 2ab'
loop_
_symmetry_equiv_pos_site_id
_symmetry_equiv_pos_as_xyz
1 x,y,z
2 1/2-x,-y,1/2+z
3 1/2+x,1/2-y,-z
4 -x,1/2+y,1/2-z
5 -x,-y,-z
6 1/2+x,y,1/2-z
7 1/2-x,1/2+y,z
8 x,1/2-y,1/2+z
_cell_length_a                   17.595(4)
_cell_length_b                   18.176(5)
_cell_length_c                   18.778(5)
_cell_angle_alpha                90
_cell_angle_beta                 90
_cell_angle_gamma                90
_cell_volume                     6005.33
loop_
_atom_site_label
_atom_site_type_symbol
_atom_site_fract_x
_atom_site_fract_y
_atom_site_fract_z
Cd1 Cd 0.43390(3) 0.02346(3) 0.08747(2)
Br1 Br 0.45595(4) 0.08432(4) -0.04163(4)
O1 O 0.3036(3) 0.0575(3) 0.0953(3)
O2 O 0.3242(3) -0.0460(3) 0.0391(3)
O3 O 0.4295(4) 0.1295(4) 0.1700(3)
O4 O 0.5401(3) 0.0815(3) 0.1451(3)
N1 N 0.6194(4) 0.2377(3) 0.4850(3)
N2 N 0.5732(3) 0.0494(3) 0.8089(3)
C1 C 0.4991(5) 0.1239(4) 0.1806(4)
C2 C 0.5350(4) 0.1681(4) 0.2401(4)
C3 C 0.6115(4) 0.1633(4) 0.2539(4)
H1 H 0.6423 0.1343 0.2251
C4 C 0.6431(4) 0.2017(4) 0.3108(4)
H2 H 0.6952 0.1991 0.3191
C5 C 0.5975(5) 0.2434(4) 0.3550(3)
C6 C 0.5211(5) 0.2494(5) 0.3399(4)
H3 H 0.4902 0.2790 0.3679
C7 C 0.4907(5) 0.2116(5) 0.2835(4)
H4 H 0.4389 0.2155 0.2742
C8 C 0.6317(5) 0.2819(4) 0.4186(4)
H5 H 0.6857 0.2889 0.4109
H6 H 0.6084 0.3299 0.4241
C9 C 0.6741(5) 0.1943(4) 0.5097(4)
H7 H 0.7192 0.1897 0.4843
C10 C 0.6649(4) 0.1558(4) 0.5726(4)
H8 H 0.7040 0.1263 0.5896
C11 C 0.5976(4) 0.1612(4) 0.6100(3)
C12 C 0.5407(5) 0.2049(5) 0.5815(4)
H9 H 0.4939 0.2084 0.6042
C13 C 0.5537(5) 0.2429(5) 0.5193(4)
H10 H 0.5156 0.2728 0.5009
C14 C 0.5880(4) 0.1228(4) 0.6788(3)
C15 C 0.6484(4) 0.1147(4) 0.7249(4)
H11 H 0.6956 0.1343 0.7132
C16 C 0.6390(4) 0.0779(4) 0.7879(4)
H12 H 0.6810 0.0726 0.8176
C17 C 0.5137(4) 0.0588(5) 0.7651(4)
H13 H 0.4670 0.0394 0.7785
C18 C 0.5184(4) 0.0956(5) 0.7015(4)
H14 H 0.4752 0.1023 0.6737
C19 C 0.2801(4) 0.0038(4) 0.0601(4)
C20 C 0.1972(4) -0.0005(4) 0.0436(4)
C21 C 0.1451(4) 0.0376(5) 0.0844(4)
H15 H 0.1618 0.0640 0.1238
C22 C 0.0693(4) 0.0372(5) 0.0678(4)
H16 H 0.0356 0.0633 0.0964
C23 C 0.0413(4) -0.0009(4) 0.0094(4)
C24 C 0.0941(5) -0.0380(6) -0.0308(6)
H17 H 0.0777 -0.0638 -0.0706
C25 C 0.1701(5) -0.0383(6) -0.0143(6)
H18 H 0.2037 -0.0645 -0.0429
Cd1D Cd 0.56610(3) -0.02346(3) -0.08747(2)
Cd1D_2 Cd 0.56610(3) -0.02346(3) 0.91253(2)
Cd1D_3 Cd -0.43390(3) -0.02346(3) -0.08747(2)
Br1D Br 0.54405(4) -0.08432(4) 0.04163(4)
O1D O -0.3036(3) -0.0575(3) -0.0953(3)
O1D_2 O 0.6964(3) -0.0575(3) -0.0953(3)
O2D O -0.3242(3) 0.0460(3) -0.0391(3)
O2D_2 O 0.6758(3) 0.0460(3) -0.0391(3)
O3D O 0.5705(4) -0.1295(4) 0.8300(3)
O3D_2 O 0.5705(4) -0.1295(4) -0.1700(3)
O4D O 0.4599(3) -0.0815(3) 0.8549(3)
O4D_2 O 0.4599(3) -0.0815(3) -0.1451(3)
N1D N 0.3806(4) -0.2377(3) 0.5150(3)
N2D N 0.4268(3) -0.0494(3) 0.1911(3)
N2_2 N 0.5732(3) 0.0494(3) -0.1911(3)
C1D C 0.5009(5) -0.1239(4) 0.8194(4)
C2D C 0.4650(4) -0.1681(4) 0.7599(4)
C3D C 0.3885(4) -0.1633(4) 0.7461(4)
H1D H 0.3577 -0.1343 0.7749
C4D C 0.3569(4) -0.2017(4) 0.6892(4)
H2D H 0.3048 -0.1991 0.6809
C5D C 0.4025(5) -0.2434(4) 0.6450(3)
C6D C 0.4789(5) -0.2494(5) 0.6601(4)
H3D H 0.5098 -0.2790 0.6321
C7D C 0.5093(5) -0.2116(5) 0.7165(4)
H4D H 0.5611 -0.2155 0.7258
C8D C 0.3683(5) -0.2819(4) 0.5814(4)
H5D H 0.3143 -0.2889 0.5891
H6D H 0.3916 -0.3299 0.5759
C9D C 0.3259(5) -0.1943(4) 0.4903(4)
H7D H 0.2808 -0.1897 0.5157
C10D C 0.3351(4) -0.1558(4) 0.4274(4)
H8D H 0.2960 -0.1263 0.4104
C11D C 0.4024(4) -0.1612(4) 0.3900(3)
C12D C 0.4593(5) -0.2049(5) 0.4185(4)
H9D H 0.5061 -0.2084 0.3958
C13D C 0.4463(5) -0.2429(5) 0.4807(4)
H10D H 0.4844 -0.2728 0.4991
C14D C 0.4120(4) -0.1228(4) 0.3212(3)
C15D C 0.3516(4) -0.1147(4) 0.2751(4)
H11D H 0.3044 -0.1343 0.2868
C16D C 0.3610(4) -0.0779(4) 0.2121(4)
H12D H 0.3190 -0.0726 0.1824
C17D C 0.4863(4) -0.0588(5) 0.2349(4)
H13D H 0.5330 -0.0394 0.2215
C18D C 0.4816(4) -0.0956(5) 0.2985(4)
H14D H 0.5248 -0.1023 0.3263
C19D C -0.2801(4) -0.0038(4) -0.0601(4)
C20D C -0.1972(4) 0.0005(4) -0.0436(4)
C21D C -0.1451(4) -0.0376(5) -0.0844(4)
H15D H -0.1618 -0.0640 -0.1238
C22D C -0.0693(4) -0.0372(5) -0.0678(4)
H16D H -0.0356 -0.0633 -0.0964
C23D C -0.0413(4) 0.0009(4) -0.0094(4)
C24D C -0.0941(5) 0.0380(6) 0.0308(6)
H17D H -0.0777 0.0638 0.0706
C25D C -0.1701(5) 0.0383(6) 0.0143(6)
H18D H -0.2037 0.0645 0.0429
O5 O 0.3402(6) 0.2550(7) 0.1355(7)
H19 H 0.3438 0.2727 0.0937
H20 H 0.3632 0.2139 0.1380
O6 O 0.2953(7) 0.0794(5) 0.2698(6)
H21 H 0.3228 0.0819 0.2327
H22 H 0.3061 0.1150 0.2973
O7 O 0.3604(6) 0.2533(7) 0.4922(7)
H23 H 0.3869 0.2919 0.4863
H24 H 0.3409 0.2358 0.4544
O8 O 0.3294(3) -0.1343(4) -0.0785(3)
H25 H 0.3262 -0.1053 -0.0431
H26 H 0.3699 -0.1252 -0.1016
O9 O 0.8298(5) 0.1741(5) 0.7234(7)
H27 H 0.8311 0.1969 0.7629
H28 H 0.8168 0.1297 0.7306
O10 O 0.7966(5) 0.2966(5) 0.6337(5)
H29 H 0.7571 0.3163 0.6158
H30 H 0.7995 0.2608 0.6626
O11 O 0.8073(5) 0.0304(5) 0.6758(7)
H31 H 0.8450 0.0019 0.6693
H32 H 0.7801 -0.0050 0.6908
loop_
_geom_bond_atom_site_label_1
_geom_bond_atom_site_label_2
_geom_bond_site_symmetry_1
_geom_bond_site_symmetry_2
Cd1 Br1 1_555 1_555
Br1 Cd1D 1_555 1_555
O1 Cd1 1_555 1_555
O2 Cd1 1_555 1_555
O3 Cd1 1_555 1_555
O4 Cd1 1_555 1_555
N1 C8 1_555 1_555
N2 C16 1_555 1_555
C1 O3 1_555 1_555
C2 C1 1_555 1_555
C3 C2 1_555 1_555
H1 C3 1_555 1_555
C4 C3 1_555 1_555
H2 C4 1_555 1_555
C5 C4 1_555 1_555
C6 C5 1_555 1_555
H3 C6 1_555 1_555
C7 C2 1_555 1_555
H4 C7 1_555 1_555
C8 C5 1_555 1_555
H5 C8 1_555 1_555
H6 C8 1_555 1_555
C9 N1 1_555 1_555
H7 C9 1_555 1_555
C10 C9 1_555 1_555
H8 C10 1_555 1_555
C11 C10 1_555 1_555
C12 C11 1_555 1_555
H9 C12 1_555 1_555
C13 N1 1_555 1_555
H10 C13 1_555 1_555
C14 C11 1_555 1_555
C15 C14 1_555 1_555
H11 C15 1_555 1_555
C16 C15 1_555 1_555
H12 C16 1_555 1_555
C17 N2 1_555 1_555
H13 C17 1_555 1_555
C18 C14 1_555 1_555
H14 C18 1_555 1_555
C19 O1 1_555 1_555
C20 C19 1_555 1_555
C21 C20 1_555 1_555
H15 C21 1_555 1_555
C22 C21 1_555 1_555
H16 C22 1_555 1_555
C23 C22 1_555 1_555
C24 C23 1_555 1_555
H17 C24 1_555 1_555
C25 C20 1_555 1_555
H18 C25 1_555 1_555
O5 H19 1_555 1_555
H20 O5 1_555 1_555
O6 H21 1_555 1_555
H22 O6 1_555 1_555
O7 H23 1_555 1_555
H24 O7 1_555 1_555
O8 H25 1_555 1_555
H26 O8 1_555 1_555
O9 H27 1_555 1_555
H28 O9 1_555 1_555
O10 H29 1_555 1_555
H30 O10 1_555 1_555
O11 H31 1_555 1_555
H32 O11 1_555 1_555
Cd1D Br1D 1_555 1_555
Cd1D_2 N2 1_555 1_555
Cd1D_3 O1D 1_555 1_555
Br1D Cd1 1_555 1_555
O1D C19D 1_555 1_555
O1D_2 Cd1D 1_555 1_555
O2D Cd1D_3 1_555 1_555
O2D_2 Cd1D 1_555 1_555
O3D Cd1D_2 1_555 1_555
O3D_2 Cd1D 1_555 1_555
O4D Cd1D_2 1_555 1_555
O4D_2 Cd1D 1_555 1_555
N1D C8D 1_555 1_555
N2D Cd1 1_555 1_555
N2_2 Cd1D 1_555 1_555
C1D O3D 1_555 1_555
C2D C1D 1_555 1_555
C3D C2D 1_555 1_555
H1D C3D 1_555 1_555
C4D C3D 1_555 1_555
H2D C4D 1_555 1_555
C5D C4D 1_555 1_555
C6D C5D 1_555 1_555
H3D C6D 1_555 1_555
C7D C2D 1_555 1_555
H4D C7D 1_555 1_555
C8D C5D 1_555 1_555
H5D C8D 1_555 1_555
H6D C8D 1_555 1_555
C9D N1D 1_555 1_555
H7D C9D 1_555 1_555
C10D C9D 1_555 1_555
H8D C10D 1_555 1_555
C11D C10D 1_555 1_555
C12D C11D 1_555 1_555
H9D C12D 1_555 1_555
C13D N1D 1_555 1_555
H10D C13D 1_555 1_555
C14D C11D 1_555 1_555
C15D C14D 1_555 1_555
H11D C15D 1_555 1_555
C16D N2D 1_555 1_555
H12D C16D 1_555 1_555
C17D N2D 1_555 1_555
H13D C17D 1_555 1_555
C18D C14D 1_555 1_555
H14D C18D 1_555 1_555
C19D O2D 1_555 1_555
C20D C19D 1_555 1_555
C21D C20D 1_555 1_555
H15D C21D 1_555 1_555
C22D C21D 1_555 1_555
H16D C22D 1_555 1_555
C23D C23 1_555 1_555
C24D C23D 1_555 1_555
H17D C24D 1_555 1_555
C25D C20D 1_555 1_555
H18D C25D 1_555 1_555
O2 C19 1_555 1_555
O4 C1 1_555 1_555
C6 C7 1_555 1_555
C12 C13 1_555 1_555
C17 C18 1_555 1_555
C24 C25 1_555 1_555
O4D C1D 1_555 1_555
C6D C7D 1_555 1_555
C12D C13D 1_555 1_555
C15D C16D 1_555 1_555
C17D C18D 1_555 1_555
C22D C23D 1_555 1_555
C24D C25D 1_555 1_555

#END
