
#######################################################################
#
#                 Cambridge Crystallographic Data Centre
#                                CCDC 
#
#######################################################################
#
# If this CIF has been generated from an entry in the Cambridge 
# Structural Database, then it will include bibliographic, chemical, 
# crystal, experimental, refinement or atomic coordinate data resulting 
# from the CCDC's data processing and validation procedures.
#
#######################################################################

data_ANCLCD
_symmetry_cell_setting           monoclinic
_symmetry_space_group_name_H-M   'B 1 1 2/b'
_symmetry_Int_Tables_number      15
_space_group_name_Hall           '-B 2n'
loop_
_symmetry_equiv_pos_site_id
_symmetry_equiv_pos_as_xyz
1 x,y,z
2 1/2+x,y,1/2+z
3 -x,1/2-y,z
4 1/2-x,1/2-y,1/2+z
5 -x,-y,-z
6 1/2-x,-y,1/2-z
7 x,1/2+y,-z
8 1/2+x,1/2+y,1/2-z
_cell_length_a                   32.76(5)
_cell_length_b                   12.348(16)
_cell_length_c                   7.907(6)
_cell_angle_alpha                90
_cell_angle_beta                 90
_cell_angle_gamma                109.0(3)
_cell_volume                     3024.28
loop_
_atom_site_label
_atom_site_type_symbol
_atom_site_fract_x
_atom_site_fract_y
_atom_site_fract_z
Cd1 Cd 0.05299 -0.48200 -0.13900
Cd2 Cd 0.00000 -0.25000 -0.12940
Cl1 Cl 0.02540 -0.36150 -0.35780
Cl2 Cl 0.02820 -0.36890 0.11080
Cl3 Cl -0.07690 -0.39840 -0.07170
N1 N 0.11740 -0.32900 -0.19300
N2 N 0.05610 -0.60700 -0.35900
C1 C 0.15700 -0.31100 -0.09900
C2 C 0.17830 -0.39400 -0.11400
C3 C 0.21590 -0.38300 -0.02800
C4 C 0.23420 -0.28370 0.06900
C5 C 0.21310 -0.20190 0.08600
C6 C 0.17540 -0.21500 -0.00400
C7 C 0.09870 -0.58600 -0.43900
C8 C 0.12310 -0.65400 -0.39700
C9 C 0.16350 -0.62300 -0.47200
C10 C 0.17970 -0.53400 -0.58200
C11 C 0.15510 -0.46300 -0.61800
C12 C 0.11470 -0.48900 -0.54800
Cl2D Cl -0.02820 -0.63110 -0.11080
Cl1B Cl -0.02540 -0.13850 -0.35780
Cl2B Cl -0.02820 -0.13110 0.11080
Cl3D Cl 0.07690 -0.60160 0.07170
Cl3B Cl 0.07690 -0.10160 -0.07170
Cd1D Cd -0.05299 -0.51800 0.13900
Cl1D Cl -0.02540 -0.63850 0.35780
N1D N -0.11740 -0.67100 0.19300
N2D N -0.05610 -0.39300 0.35900
C1D C -0.15700 -0.68900 0.09900
C7D C -0.09870 -0.41400 0.43900
C2D C -0.17830 -0.60600 0.11400
C6D C -0.17540 -0.78500 0.00400
C8D C -0.12310 -0.34600 0.39700
C12D C -0.11470 -0.51100 0.54800
C3D C -0.21590 -0.61700 0.02800
C5D C -0.21310 -0.79810 -0.08600
C9D C -0.16350 -0.37700 0.47200
C11D C -0.15510 -0.53700 0.61800
C4D C -0.23420 -0.71630 -0.06900
C10D C -0.17970 -0.46600 0.58200
Cd1F Cd 0.05299 0.01800 0.13900
Cd1B Cd -0.05299 -0.01800 -0.13900
loop_
_geom_bond_atom_site_label_1
_geom_bond_atom_site_label_2
_geom_bond_site_symmetry_1
_geom_bond_site_symmetry_2
Cd1 Cl1 1_555 1_555
Cd2 Cl1 1_555 1_555
Cl2 Cd1 1_555 1_555
Cl3 Cd2 1_555 1_555
N1 Cd1 1_555 1_555
N2 Cd1 1_555 1_555
C1 N1 1_555 1_555
C2 C1 1_555 1_555
C3 C2 1_555 1_555
C4 C3 1_555 1_555
C5 C4 1_555 1_555
C6 C1 1_555 1_555
C7 N2 1_555 1_555
C8 C7 1_555 1_555
C9 C8 1_555 1_555
C10 C9 1_555 1_555
C11 C10 1_555 1_555
C12 C7 1_555 1_555
Cl2D Cd1 1_555 1_555
Cl1B Cd2 1_555 1_555
Cl2B Cd2 1_555 1_555
Cl3D Cd1 1_555 1_555
Cl3B Cd2 1_555 1_555
Cd1D Cl2 1_555 1_555
Cl1D Cd1D 1_555 1_555
N1D Cd1D 1_555 1_555
N2D Cd1D 1_555 1_555
C1D N1D 1_555 1_555
C7D N2D 1_555 1_555
C2D C1D 1_555 1_555
C6D C1D 1_555 1_555
C8D C7D 1_555 1_555
C12D C7D 1_555 1_555
C3D C2D 1_555 1_555
C5D C6D 1_555 1_555
C9D C8D 1_555 1_555
C11D C12D 1_555 1_555
C4D C3D 1_555 1_555
C10D C9D 1_555 1_555
Cd1F Cl2B 1_555 1_555
Cd1B Cl1B 1_555 1_555
Cd2 Cl2 1_555 1_555
Cl3 Cd1D 1_555 1_555
C5 C6 1_555 1_555
C11 C12 1_555 1_555
Cl2D Cd1D 1_555 1_555
Cl2B Cd1B 1_555 1_555
Cl3B Cd1F 1_555 1_555
C5D C4D 1_555 1_555
C11D C10D 1_555 1_555

#END
