
#######################################################################
#
#                 Cambridge Crystallographic Data Centre
#                                CCDC 
#
#######################################################################
#
# If this CIF has been generated from an entry in the Cambridge 
# Structural Database, then it will include bibliographic, chemical, 
# crystal, experimental, refinement or atomic coordinate data resulting 
# from the CCDC's data processing and validation procedures.
#
#######################################################################

data_ANEDAZ
_symmetry_cell_setting           monoclinic
_symmetry_space_group_name_H-M   'P 21/c'
_symmetry_Int_Tables_number      14
_space_group_name_Hall           '-P 2ybc'
loop_
_symmetry_equiv_pos_site_id
_symmetry_equiv_pos_as_xyz
1 x,y,z
2 -x,1/2+y,1/2-z
3 -x,-y,-z
4 x,1/2-y,1/2+z
_cell_length_a                   10.7980(4)
_cell_length_b                   17.6826(7)
_cell_length_c                   7.4096(3)
_cell_angle_alpha                90
_cell_angle_beta                 109.201(2)
_cell_angle_gamma                90
_cell_volume                     1336.06
loop_
_atom_site_label
_atom_site_type_symbol
_atom_site_fract_x
_atom_site_fract_y
_atom_site_fract_z
C1 C 0.23336(15) 0.17328(9) 0.6469(2)
C2 C 0.25191(15) 0.09830(9) 0.5867(2)
C3 C 0.10352(17) 0.21328(11) 0.5726(3)
C4 C 0.14704(15) 0.05645(10) 0.4409(2)
C5 C 0.16922(17) -0.02634(10) 0.4138(3)
C6 C 0.56754(14) 0.02467(9) 0.8411(2)
C7 C 0.55511(15) -0.04791(9) 0.7631(2)
C8 C 0.65883(16) -0.09830(9) 0.8246(2)
C9 C 0.77639(16) -0.07680(9) 0.9612(2)
C10 C 0.78999(15) -0.00531(9) 1.0397(2)
C11 C 0.68548(15) 0.04523(9) 0.9803(2)
C12 C 0.81680(17) 0.18169(10) 1.0009(3)
Cl1 Cl 0.55406(4) 0.29338(2) 1.04833(6)
Cu1 Cu 0.501331(18) 0.181350(11) 0.89406(3)
N1 N 0.46558(12) 0.08001(7) 0.78637(18)
N2 N 0.36071(12) 0.05599(7) 0.66094(18)
O1 O 0.32080(11) 0.20965(6) 0.77074(17)
O2 O 0.04505(12) 0.08690(8) 0.34463(19)
S1 S 0.69769(4) 0.13559(2) 1.08712(6)
H1 H 0.110(2) 0.2590(13) 0.639(3)
H2 H 0.080(2) 0.2222(14) 0.440(4)
H3 H 0.030(2) 0.1811(13) 0.591(3)
H4 H 0.095(2) -0.0470(12) 0.313(3)
H5 H 0.250(2) -0.0335(14) 0.382(3)
H6 H 0.180(2) -0.0551(13) 0.524(4)
H7 H 0.480(2) -0.0609(12) 0.674(3)
H8 H 0.647(2) -0.1444(13) 0.774(3)
H9 H 0.848(2) -0.1104(12) 0.998(3)
H10 H 0.865(2) 0.0100(11) 1.126(3)
H11 H 0.816(2) 0.2332(13) 1.035(3)
H12 H 0.791(2) 0.1774(13) 0.874(4)
H13 H 0.898(2) 0.1597(13) 1.052(3)
Cl1C Cl 0.55406(4) 0.20662(2) 0.54833(6)
Cu1C Cu 0.501331(18) 0.318650(11) 1.39406(3)
loop_
_geom_bond_atom_site_label_1
_geom_bond_atom_site_label_2
_geom_bond_site_symmetry_1
_geom_bond_site_symmetry_2
C1 C2 1_555 1_555
C2 C4 1_555 1_555
C3 C1 1_555 1_555
C4 C5 1_555 1_555
C5 H4 1_555 1_555
C6 C7 1_555 1_555
C7 C8 1_555 1_555
C8 C9 1_555 1_555
C9 C10 1_555 1_555
C10 C11 1_555 1_555
C11 C6 1_555 1_555
C12 S1 1_555 1_555
Cl1 Cu1 1_555 1_555
Cu1 N1 1_555 1_555
N1 C6 1_555 1_555
N2 C2 1_555 1_555
O1 C1 1_555 1_555
O2 C4 1_555 1_555
S1 C11 1_555 1_555
H1 C3 1_555 1_555
H2 C3 1_555 1_555
H3 C3 1_555 1_555
H5 C5 1_555 1_555
H6 C5 1_555 1_555
H7 C7 1_555 1_555
H8 C8 1_555 1_555
H9 C9 1_555 1_555
H10 C10 1_555 1_555
H11 C12 1_555 1_555
H12 C12 1_555 1_555
H13 C12 1_555 1_555
Cl1C Cu1 1_555 1_555
Cu1C Cl1 1_555 1_555
Cu1 O1 1_555 1_555
Cu1 S1 1_555 1_555
N1 N2 1_555 1_555

#END
