
#######################################################################
#
#                 Cambridge Crystallographic Data Centre
#                                CCDC 
#
#######################################################################
#
# If this CIF has been generated from an entry in the Cambridge 
# Structural Database, then it will include bibliographic, chemical, 
# crystal, experimental, refinement or atomic coordinate data resulting 
# from the CCDC's data processing and validation procedures.
#
#######################################################################

data_ANEQEQ
_symmetry_cell_setting           monoclinic
_symmetry_space_group_name_H-M   'P 21/c'
_symmetry_Int_Tables_number      14
_space_group_name_Hall           '-P 2ybc'
loop_
_symmetry_equiv_pos_site_id
_symmetry_equiv_pos_as_xyz
1 x,y,z
2 -x,1/2+y,1/2-z
3 -x,-y,-z
4 x,1/2-y,1/2+z
_cell_length_a                   14.5138(11)
_cell_length_b                   17.2793(13)
_cell_length_c                   25.1262(16)
_cell_angle_alpha                90
_cell_angle_beta                 107.933(4)
_cell_angle_gamma                90
_cell_volume                     5995.22
loop_
_atom_site_label
_atom_site_type_symbol
_atom_site_fract_x
_atom_site_fract_y
_atom_site_fract_z
Ag1 Ag 0.24430(3) 0.55016(2) 0.773190(16)
C1 C 0.4314(4) 0.5849(3) 0.7797(3)
C2 C 0.5376(4) 0.5979(3) 0.7916(2)
C3 C 0.6032(4) 0.5638(3) 0.8395(2)
H1 H 0.5779 0.5348 0.8629
C4 C 0.7006(4) 0.5708(3) 0.8533(2)
C5 C 0.7357(4) 0.6150(3) 0.8153(2)
H2 H 0.8023 0.6211 0.8237
C6 C 0.6794(4) 0.6479(3) 0.7688(2)
C7 C 0.5798(4) 0.6410(3) 0.7568(3)
H3 H 0.5395 0.6652 0.7251
C8 C 0.7674(4) 0.5340(3) 0.9050(2)
C9 C 0.7220(4) 0.6902(3) 0.7308(2)
H4 H 0.6703 0.7144 0.7015
H5 H 0.7636 0.7310 0.7517
C10 C 0.7784(4) 0.6409(3) 0.7050(2)
C11 C 0.8788(4) 0.6365(3) 0.7317(2)
H6 H 0.9068 0.6669 0.7630
C12 C 0.9384(4) 0.5861(3) 0.7115(2)
C13 C 0.8962(4) 0.5389(3) 0.6661(2)
H7 H 0.9349 0.5063 0.6526
C14 C 0.7949(4) 0.5397(3) 0.6400(2)
C15 C 0.7350(4) 0.5909(3) 0.6619(2)
H8 H 0.6679 0.5897 0.6468
C16 C 1.0466(4) 0.5814(3) 0.7411(2)
C17 C 0.7460(4) 0.4868(3) 0.5917(2)
O1 O 0.3997(3) 0.5521(2) 0.81330(16)
O2 O 0.3799(3) 0.6139(2) 0.73389(16)
O3 O 0.7322(3) 0.5027(2) 0.93706(17)
O4 O 0.8580(3) 0.5355(2) 0.91122(16)
O5 O 1.0785(3) 0.6156(2) 0.78650(17)
O6 O 1.0952(3) 0.5420(2) 0.71720(15)
O7 O 0.8055(3) 0.4536(2) 0.57115(17)
O8 O 0.6576(3) 0.4821(2) 0.57676(16)
Ag1_2 Ag 1.24430(3) 0.55016(2) 0.773190(16)
O6_2 O 0.0952(3) 0.5420(2) 0.71720(15)
Ag2 Ag 0.24502(3) 0.71294(2) 1.103190(16)
C18 C 0.4479(4) 0.7513(3) 1.0861(2)
H9 H 0.4406 0.8042 1.0901
C19 C 0.5241(4) 0.7218(3) 1.0749(2)
H10 H 0.5766 0.7474 1.0691
C20 C 0.4206(4) 0.6351(3) 1.0827(2)
H11 H 0.3905 0.5876 1.0827
C21 C 0.5630(4) 0.5813(3) 1.0617(2)
H12 H 0.5572 0.5836 1.0222
H13 H 0.5359 0.5323 1.0683
C22 C 0.6685(4) 0.5823(3) 1.0946(2)
C23 C 0.7372(4) 0.5558(3) 1.0726(2)
H14 H 0.7185 0.5382 1.0358
C24 C 0.8327(4) 0.5543(3) 1.1030(2)
H15 H 0.8779 0.5352 1.0869
C25 C 0.8628(5) 0.5805(3) 1.1568(3)
C26 C 0.7954(4) 0.6045(3) 1.1794(3)
H16 H 0.8150 0.6193 1.2168
C27 C 0.6988(4) 0.6082(3) 1.1499(2)
H17 H 0.6544 0.6276 1.1664
C28 C 0.9688(5) 0.5759(3) 1.1868(3)
H18 H 0.9787 0.5770 1.2268
H19 H 0.9931 0.5268 1.1781
C29 C 1.0873(4) 0.7484(4) 1.1617(3)
H20 H 1.0999 0.8013 1.1631
C30 C 1.0264(5) 0.7132(3) 1.1837(2)
H21 H 0.9903 0.7373 1.2038
C31 C 1.0902(4) 0.6288(3) 1.1427(2)
H22 H 1.1043 0.5818 1.1290
N1 N 0.3833(3) 0.7009(3) 1.09121(18)
N2 N 0.5057(4) 0.6427(3) 1.0740(2)
N3 N 1.1283(4) 0.6942(3) 1.1367(2)
N4 N 1.0251(4) 0.6385(3) 1.1726(2)
Ag2_2 Ag 1.24502(3) 0.71294(2) 1.103190(16)
N3_2 N 0.1283(4) 0.6942(3) 1.1367(2)
Ag3 Ag 0.17623(3) 0.77951(2) 0.976000(16)
C32 C 0.0306(4) 0.8927(3) 1.0118(2)
H23 H 0.0606 0.9372 1.0044
C33 C -0.0410(4) 0.8937(3) 1.0298(2)
H24 H -0.0742 0.9369 1.0363
C34 C 0.0024(4) 0.7707(3) 1.0197(2)
H25 H 0.0032 0.7169 1.0186
C35 C -0.1340(4) 0.7827(3) 1.0597(2)
H26 H -0.1381 0.8141 1.0909
H27 H -0.1147 0.7309 1.0737
C36 C -0.2328(4) 0.7789(3) 1.0165(2)
C37 C -0.2903(5) 0.8427(4) 1.0050(3)
H28 H -0.2684 0.8890 1.0235
C38 C -0.3828(5) 0.8390(3) 0.9653(3)
H29 H -0.4231 0.8821 0.9593
C39 C -0.4136(4) 0.7738(3) 0.9359(2)
C40 C -0.3530(4) 0.7090(3) 0.9474(2)
H30 H -0.3743 0.6631 0.9282
C41 C -0.2627(4) 0.7114(3) 0.9864(2)
H31 H -0.2223 0.6684 0.9925
C42 C -0.5113(4) 0.7691(3) 0.8925(2)
H32 H -0.5282 0.8200 0.8762
H33 H -0.5068 0.7346 0.8629
C43 C -0.6145(4) 0.6655(3) 0.9162(2)
H34 H -0.5860 0.6219 0.9062
C44 C -0.6903(4) 0.6672(3) 0.9372(2)
H35 H -0.7230 0.6237 0.9437
C45 C -0.6485(4) 0.7853(3) 0.9313(2)
H36 H -0.6470 0.8391 0.9329
N5 N 0.0612(3) 0.8166(2) 1.00388(17)
N6 N -0.0606(4) 0.8147(3) 1.03820(19)
N7 N -0.7117(3) 0.7414(2) 0.94741(17)
N8 N -0.5882(3) 0.7424(3) 0.91280(19)
Ag3_2 Ag -0.82377(3) 0.77951(2) 0.976000(16)
N7_2 N 0.2883(3) 0.7414(2) 0.94741(17)
Ag4 Ag 0.08451(3) 0.82650(2) 0.843630(17)
C46 C 0.2415(4) 0.7575(4) 0.7967(2)
H37 H 0.2317 0.7083 0.8089
C47 C 0.2994(4) 0.7720(3) 0.7677(2)
H38 H 0.3357 0.7366 0.7547
C48 C 0.2308(4) 0.8777(4) 0.7840(2)
H39 H 0.2119 0.9291 0.7841
C49 C 0.3517(4) 0.8956(3) 0.7309(3)
H40 H 0.3213 0.9453 0.7189
H41 H 0.3522 0.8670 0.6978
C50 C 0.4540(4) 0.9083(3) 0.7673(2)
C51 C 0.5288(4) 0.8700(3) 0.7531(2)
H42 H 0.5146 0.8388 0.7215
C52 C 0.6234(4) 0.8792(3) 0.7865(2)
H43 H 0.6724 0.8525 0.7776
C53 C 0.6472(4) 0.9271(3) 0.8328(2)
C54 C 0.5700(5) 0.9648(3) 0.8471(3)
H44 H 0.5833 0.9961 0.8787
C55 C 0.4758(4) 0.9543(3) 0.8136(2)
H45 H 0.4260 0.9792 0.8228
C56 C 0.7471(4) 0.9428(3) 0.8673(3)
H46 H 0.7677 0.9909 0.8546
H47 H 0.7473 0.9507 0.9056
C57 C 0.8993(4) 0.7775(3) 0.8759(2)
H48 H 0.9176 0.7259 0.8826
C58 C 0.8208(4) 0.8089(3) 0.8829(3)
H49 H 0.7754 0.7840 0.8961
C59 C 0.8987(4) 0.8970(3) 0.8523(2)
H50 H 0.9148 0.9446 0.8403
N9 N 0.1966(3) 0.8220(3) 0.8074(2)
N10 N 0.2957(3) 0.8535(2) 0.75992(18)
N11 N 0.9503(3) 0.8338(3) 0.8570(2)
N12 N 0.8188(3) 0.8832(3) 0.8674(2)
Ag4_2 Ag 1.08451(3) 0.82650(2) 0.843630(17)
N11_2 N -0.0497(3) 0.8338(3) 0.8570(2)
O9 O 0.1483(7) 0.6116(5) -0.0006(4)
H51 H 0.1226 0.5669 -0.0065
H52 H 0.1967 0.6105 0.0289
O10 O 0.5198(9) 0.0568(7) 0.9617(5)
H53 H 0.5084 0.0095 0.9664
H54 H 0.5761 0.0611 0.9583
O11 O 0.2912(9) 0.9260(6) 0.0365(5)
H55 H 0.2912 0.8870 0.0159
H56 H 0.3190 0.9638 0.0260
loop_
_geom_bond_atom_site_label_1
_geom_bond_atom_site_label_2
_geom_bond_site_symmetry_1
_geom_bond_site_symmetry_2
Ag1 O1 1_555 1_555
Ag2 N1 1_555 1_555
Ag3 N5 1_555 1_555
Ag4 N9 1_555 1_555
C1 C2 1_555 1_555
C2 C3 1_555 1_555
C3 H1 1_555 1_555
C4 C3 1_555 1_555
C5 C4 1_555 1_555
H2 C5 1_555 1_555
C6 C5 1_555 1_555
C7 C2 1_555 1_555
H3 C7 1_555 1_555
C8 C4 1_555 1_555
C9 C6 1_555 1_555
H4 C9 1_555 1_555
H5 C9 1_555 1_555
C10 C9 1_555 1_555
C11 C10 1_555 1_555
H6 C11 1_555 1_555
C12 C11 1_555 1_555
C13 C12 1_555 1_555
H7 C13 1_555 1_555
C14 C13 1_555 1_555
C15 C10 1_555 1_555
H8 C15 1_555 1_555
C16 C12 1_555 1_555
C17 C14 1_555 1_555
C18 H9 1_555 1_555
C19 C18 1_555 1_555
H10 C19 1_555 1_555
C20 H11 1_555 1_555
C21 H12 1_555 1_555
H13 C21 1_555 1_555
C22 C21 1_555 1_555
C23 C22 1_555 1_555
H14 C23 1_555 1_555
C24 C23 1_555 1_555
H15 C24 1_555 1_555
C25 C24 1_555 1_555
C26 C25 1_555 1_555
H16 C26 1_555 1_555
C27 C22 1_555 1_555
H17 C27 1_555 1_555
C28 C25 1_555 1_555
H18 C28 1_555 1_555
H19 C28 1_555 1_555
C29 H20 1_555 1_555
C30 C29 1_555 1_555
H21 C30 1_555 1_555
C31 H22 1_555 1_555
C32 H23 1_555 1_555
C33 C32 1_555 1_555
H24 C33 1_555 1_555
C34 H25 1_555 1_555
C35 H26 1_555 1_555
H27 C35 1_555 1_555
C36 C35 1_555 1_555
C37 C36 1_555 1_555
H28 C37 1_555 1_555
C38 C37 1_555 1_555
H29 C38 1_555 1_555
C39 C38 1_555 1_555
C40 C39 1_555 1_555
H30 C40 1_555 1_555
C41 C36 1_555 1_555
H31 C41 1_555 1_555
C42 C39 1_555 1_555
H32 C42 1_555 1_555
H33 C42 1_555 1_555
C43 H34 1_555 1_555
C44 C43 1_555 1_555
H35 C44 1_555 1_555
C45 H36 1_555 1_555
C46 H37 1_555 1_555
C47 C46 1_555 1_555
H38 C47 1_555 1_555
C48 H39 1_555 1_555
C49 H40 1_555 1_555
H41 C49 1_555 1_555
C50 C49 1_555 1_555
C51 C50 1_555 1_555
H42 C51 1_555 1_555
C52 C51 1_555 1_555
H43 C52 1_555 1_555
C53 C52 1_555 1_555
C54 C53 1_555 1_555
H44 C54 1_555 1_555
C55 C50 1_555 1_555
H45 C55 1_555 1_555
C56 C53 1_555 1_555
H46 C56 1_555 1_555
H47 C56 1_555 1_555
C57 H48 1_555 1_555
C58 C57 1_555 1_555
H49 C58 1_555 1_555
C59 H50 1_555 1_555
N1 C18 1_555 1_555
N2 C19 1_555 1_555
N3 C29 1_555 1_555
N4 C28 1_555 1_555
N5 C32 1_555 1_555
N6 C33 1_555 1_555
N7 C44 1_555 1_555
N8 C42 1_555 1_555
N9 C46 1_555 1_555
N10 C47 1_555 1_555
N11 C57 1_555 1_555
N12 C56 1_555 1_555
O1 C1 1_555 1_555
O2 Ag1 1_555 1_555
O3 C8 1_555 1_555
O4 C8 1_555 1_555
O5 C16 1_555 1_555
O6 C16 1_555 1_555
O7 C17 1_555 1_555
O8 C17 1_555 1_555
O9 H51 1_555 1_555
H52 O9 1_555 1_555
O10 H53 1_555 1_555
H54 O10 1_555 1_555
O11 H55 1_555 1_555
H56 O11 1_555 1_555
Ag1_2 O6 1_555 1_555
Ag2_2 N3 1_555 1_555
Ag3_2 N7 1_555 1_555
Ag4_2 N11 1_555 1_555
N3_2 Ag2 1_555 1_555
N7_2 Ag3 1_555 1_555
N11_2 Ag4 1_555 1_555
O6_2 Ag1 1_555 1_555
C1 O2 1_555 1_555
C6 C7 1_555 1_555
C14 C15 1_555 1_555
C20 N1 1_555 1_555
C20 N2 1_555 1_555
C21 N2 1_555 1_555
C26 C27 1_555 1_555
C30 N4 1_555 1_555
C31 N3 1_555 1_555
C31 N4 1_555 1_555
C34 N5 1_555 1_555
C34 N6 1_555 1_555
C35 N6 1_555 1_555
C40 C41 1_555 1_555
C43 N8 1_555 1_555
C45 N7 1_555 1_555
C45 N8 1_555 1_555
C48 N9 1_555 1_555
C48 N10 1_555 1_555
C49 N10 1_555 1_555
C54 C55 1_555 1_555
C58 N12 1_555 1_555
C59 N11 1_555 1_555
C59 N12 1_555 1_555

#END
