
#######################################################################
#
#                 Cambridge Crystallographic Data Centre
#                                CCDC 
#
#######################################################################
#
# If this CIF has been generated from an entry in the Cambridge 
# Structural Database, then it will include bibliographic, chemical, 
# crystal, experimental, refinement or atomic coordinate data resulting 
# from the CCDC's data processing and validation procedures.
#
#######################################################################

data_ANEQIU
_symmetry_cell_setting           orthorhombic
_symmetry_space_group_name_H-M   'P b c n'
_symmetry_Int_Tables_number      60
_space_group_name_Hall           '-P 2n 2ab'
loop_
_symmetry_equiv_pos_site_id
_symmetry_equiv_pos_as_xyz
1 x,y,z
2 1/2-x,1/2-y,1/2+z
3 1/2+x,1/2-y,-z
4 -x,y,1/2-z
5 -x,-y,-z
6 1/2+x,1/2+y,1/2-z
7 1/2-x,1/2+y,z
8 x,-y,1/2+z
_cell_length_a                   13.8500(12)
_cell_length_b                   15.0646(13)
_cell_length_c                   21.0658(18)
_cell_angle_alpha                90
_cell_angle_beta                 90
_cell_angle_gamma                90
_cell_volume                     4395.27
loop_
_atom_site_label
_atom_site_type_symbol
_atom_site_fract_x
_atom_site_fract_y
_atom_site_fract_z
Ag1 Ag 0.26771(3) 0.06377(3) 0.91692(2)
C1 C 0.4347(4) 0.1992(4) 0.9086(3)
H1 H 0.3925 0.2468 0.9038
C2 C 0.5326(4) 0.2042(4) 0.9103(3)
H2 H 0.5697 0.2555 0.9070
C3 C 0.4874(4) 0.0655(4) 0.9203(3)
H3 H 0.4898 0.0041 0.9250
C4 C 0.6679(4) 0.0916(4) 0.9218(3)
H4 H 0.6711 0.0282 0.9295
H5 H 0.6975 0.1213 0.9577
C5 C 0.7265(4) 0.1136(4) 0.8611(3)
C6 C 0.6835(4) 0.1441(4) 0.8061(3)
H6 H 0.6167 0.1495 0.8036
C7 C 0.7399(4) 0.1661(4) 0.7558(4)
H7 H 0.7120 0.1928 0.7205
C8 C 0.8376(4) 0.1494(4) 0.7562(3)
H8 H 0.8741 0.1599 0.7199
C9 C 0.8816(5) 0.1169(4) 0.8105(4)
H9 H 0.9480 0.1081 0.8118
C10 C 0.8241(5) 0.0976(4) 0.8635(3)
C11 C 0.8695(5) 0.0627(4) 0.9257(3)
H10 H 0.8716 0.1104 0.9567
H11 H 0.8294 0.0156 0.9428
C12 C 0.9915(5) -0.0473(4) 0.8842(4)
H12 H 0.9488 -0.0882 0.8668
H13 H 1.1220 -0.0995 0.8662
C13 C 1.0866(4) -0.0530(4) 0.8833(3)
C14 C 1.0469(5) 0.0700(4) 0.9314(4)
H14 H 1.0503 0.1239 0.9528
N1 N 0.4081(4) 0.1103(3) 0.9154(3)
N2 N 0.5669(4) 0.1182(3) 0.9178(3)
N3 N 0.9666(4) 0.0292(4) 0.9153(3)
N4 N 1.1245(4) 0.0212(3) 0.9120(3)
Ag1_2 Ag 1.26771(3) 0.06377(3) 0.91692(2)
N4_2 N 0.1245(4) 0.0212(3) 0.9120(3)
C15 C 0.5076(5) 0.9123(3) 0.8087(3)
C16 C 0.5982(5) 0.8918(4) 0.8354(3)
H15 H 0.6546 0.9114 0.8160
C17 C 0.6026(5) 0.8412(4) 0.8919(3)
C18 C 0.5190(4) 0.8087(4) 0.9200(3)
H16 H 0.5219 0.7760 0.9574
C19 C 0.4286(5) 0.8267(4) 0.8901(3)
C20 C 0.4251(5) 0.8754(4) 0.8365(3)
H17 H 0.3655 0.8849 0.8173
C21 C 0.3357(5) 0.7934(4) 0.9198(3)
C22 C 0.6975(5) 0.8269(4) 0.9253(3)
C23 C 0.5000 0.9680(5) 0.7500
H18 H 0.4436 1.0059 0.7532
O1 O 0.3453(3) 0.7438(3) 0.9684(2)
H19 H 0.2820 0.7309 0.9846
O2 O 0.2581(3) 0.8198(3) 0.8978(3)
O3 O 0.7723(3) 0.8664(3) 0.9042(2)
O4 O 0.6979(3) 0.7730(2) 0.9693(2)
C15C C 0.4924(5) 0.9123(3) 0.6913(3)
C16C C 0.4018(5) 0.8918(4) 0.6646(3)
H15C H 0.3454 0.9114 0.6840
C17C C 0.3974(5) 0.8412(4) 0.6081(3)
C18C C 0.4810(4) 0.8087(4) 0.5800(3)
H16C H 0.4781 0.7760 0.5426
C19C C 0.5714(5) 0.8267(4) 0.6099(3)
C20C C 0.5749(5) 0.8754(4) 0.6635(3)
H17C H 0.6345 0.8849 0.6827
C21C C 0.6643(5) 0.7934(4) 0.5802(3)
C22C C 0.3025(5) 0.8269(4) 0.5747(3)
H18C H 0.5564 1.0059 0.7468
O1C O 0.6547(3) 0.7438(3) 0.5316(2)
H19C H 0.7180 0.7309 0.5154
O2C O 0.7419(3) 0.8198(3) 0.6022(3)
O3C O 0.2277(3) 0.8664(3) 0.5958(2)
O4C O 0.3021(3) 0.7730(2) 0.5307(2)
O5 O 0.9200(6) 0.8415(5) 0.7504(5)
H20 H 0.9407 0.8075 0.7796
H21 H 0.8978 0.8104 0.7201
loop_
_geom_bond_atom_site_label_1
_geom_bond_atom_site_label_2
_geom_bond_site_symmetry_1
_geom_bond_site_symmetry_2
Ag1 N1 1_555 1_555
C1 H1 1_555 1_555
C2 C1 1_555 1_555
H2 C2 1_555 1_555
C3 H3 1_555 1_555
C4 H4 1_555 1_555
H5 C4 1_555 1_555
C5 C4 1_555 1_555
C6 C5 1_555 1_555
H6 C6 1_555 1_555
C7 C6 1_555 1_555
H7 C7 1_555 1_555
C8 C7 1_555 1_555
H8 C8 1_555 1_555
C9 C8 1_555 1_555
H9 C9 1_555 1_555
C10 C5 1_555 1_555
C11 C10 1_555 1_555
H10 C11 1_555 1_555
H11 C11 1_555 1_555
C12 H12 1_555 1_555
H13 C13 1_555 1_555
C13 C12 1_555 1_555
C14 H14 1_555 1_555
N1 C1 1_555 1_555
N2 C2 1_555 1_555
N3 C11 1_555 1_555
N4 C13 1_555 1_555
C15 C16 1_555 1_555
C16 H15 1_555 1_555
C17 C16 1_555 1_555
C18 C17 1_555 1_555
H16 C18 1_555 1_555
C19 C18 1_555 1_555
C20 C15 1_555 1_555
H17 C20 1_555 1_555
C21 C19 1_555 1_555
C22 C17 1_555 1_555
C23 C15 1_555 1_555
H18 C23 1_555 1_555
O1 C21 1_555 1_555
H19 O1 1_555 1_555
O2 C21 1_555 1_555
O3 C22 1_555 1_555
O4 C22 1_555 1_555
O5 H20 1_555 1_555
H21 O5 1_555 1_555
Ag1_2 N4 1_555 1_555
N4_2 Ag1 1_555 1_555
C15C C23 1_555 1_555
C16C C15C 1_555 1_555
H15C C16C 1_555 1_555
C17C C16C 1_555 1_555
C18C C17C 1_555 1_555
H16C C18C 1_555 1_555
C19C C18C 1_555 1_555
C20C C15C 1_555 1_555
H17C C20C 1_555 1_555
C21C C19C 1_555 1_555
C22C C17C 1_555 1_555
H18C C23 1_555 1_555
O1C C21C 1_555 1_555
H19C O1C 1_555 1_555
O2C C21C 1_555 1_555
O3C C22C 1_555 1_555
O4C C22C 1_555 1_555
C3 N1 1_555 1_555
C3 N2 1_555 1_555
C4 N2 1_555 1_555
C9 C10 1_555 1_555
C12 N3 1_555 1_555
C14 N3 1_555 1_555
C14 N4 1_555 1_555
C19 C20 1_555 1_555
C19C C20C 1_555 1_555

#END
