
#######################################################################
#
#                 Cambridge Crystallographic Data Centre
#                                CCDC 
#
#######################################################################
#
# If this CIF has been generated from an entry in the Cambridge 
# Structural Database, then it will include bibliographic, chemical, 
# crystal, experimental, refinement or atomic coordinate data resulting 
# from the CCDC's data processing and validation procedures.
#
#######################################################################

data_ANESES
_symmetry_cell_setting           monoclinic
_symmetry_space_group_name_H-M   'C 2/c'
_symmetry_Int_Tables_number      15
_space_group_name_Hall           '-C 2yn'
loop_
_symmetry_equiv_pos_site_id
_symmetry_equiv_pos_as_xyz
1 x,y,z
2 -x,y,1/2-z
3 1/2+x,1/2+y,z
4 1/2-x,1/2+y,1/2-z
5 -x,-y,-z
6 x,-y,1/2+z
7 1/2-x,1/2-y,-z
8 1/2+x,1/2-y,1/2+z
_cell_length_a                   13.661(3)
_cell_length_b                   16.064(3)
_cell_length_c                   15.037(3)
_cell_angle_alpha                90
_cell_angle_beta                 108.25(3)
_cell_angle_gamma                90
_cell_volume                     3133.89
loop_
_atom_site_label
_atom_site_type_symbol
_atom_site_fract_x
_atom_site_fract_y
_atom_site_fract_z
Cu1 Cu 0.65743(5) 0.30136(4) 0.46735(5)
Cl1 Cl 0.72902(11) 0.20484(9) 0.38300(9)
N1 N 0.5042(3) 0.2776(3) 0.4445(3)
C1 C 0.4031(6) 0.5596(4) 0.3369(5)
H1 H 0.4044 0.6156 0.3594
H2 H 0.3542 0.5275 0.3565
H3 H 0.3835 0.5599 0.2698
N2 N 0.4288(3) 0.3208(3) 0.3795(3)
C2 C 0.5078(5) 0.5217(4) 0.3760(4)
N3 N 0.6291(3) 0.4206(3) 0.4079(3)
C3 C 0.5997(6) 0.5559(4) 0.4281(4)
H4 H 0.6110 0.6109 0.4478
N4 N 0.5277(3) 0.4401(3) 0.3648(3)
C4 C 0.6734(5) 0.4924(4) 0.4460(4)
C5 C 0.7847(5) 0.4955(4) 0.4981(5)
H5 H 0.8075 0.4417 0.5242
H6 H 0.7969 0.5358 0.5476
H7 H 0.8222 0.5112 0.4563
C6 C 0.2361(4) 0.3287(5) 0.3082(5)
H8 H 0.2371 0.3209 0.2452
H9 H 0.2319 0.3871 0.3202
H10 H 0.1774 0.3007 0.3162
C7 C 0.3334(4) 0.2934(4) 0.3756(4)
C8 C 0.3481(4) 0.2332(4) 0.4420(4)
H11 H 0.2971 0.2032 0.4569
C9 C 0.4542(5) 0.2253(4) 0.4835(4)
C10 C 0.5145(6) 0.1700(5) 0.5626(6)
H12 H 0.5015 0.1127 0.5443
H13 H 0.4935 0.1804 0.6168
H14 H 0.5867 0.1815 0.5770
C11 C 0.4576(4) 0.3756(3) 0.3147(4)
H15 H 0.3946 0.4031 0.2759
C12 C 0.5000 0.3248(5) 0.2500
H16 H 0.5544 0.2891 0.2879
Cu1F Cu 0.84257(5) 0.19864(4) 0.53265(5)
Cu1A Cu 0.34257(5) 0.30136(4) 0.03265(5)
Cu1G Cu 0.15743(5) 0.19864(4) -0.03265(5)
Cl1F Cl 0.77098(11) 0.29516(9) 0.61700(9)
Cl1A Cl 0.27098(11) 0.20484(9) 0.11700(9)
Cl1G Cl 0.22902(11) 0.29516(9) -0.11700(9)
N1A N 0.4958(3) 0.2776(3) 0.0555(3)
C1A C 0.5969(6) 0.5596(4) 0.1631(5)
H1A H 0.5956 0.6156 0.1406
H2A H 0.6458 0.5275 0.1435
H3A H 0.6165 0.5599 0.2302
N2A N 0.5712(3) 0.3208(3) 0.1205(3)
C2A C 0.4922(5) 0.5217(4) 0.1240(4)
N3A N 0.3709(3) 0.4206(3) 0.0921(3)
C3A C 0.4003(6) 0.5559(4) 0.0719(4)
H4A H 0.3890 0.6109 0.0522
N4A N 0.4723(3) 0.4401(3) 0.1352(3)
C4A C 0.3266(5) 0.4924(4) 0.0540(4)
C5A C 0.2153(5) 0.4955(4) 0.0019(5)
H5A H 0.1925 0.4417 -0.0242
H6A H 0.2031 0.5358 -0.0476
H7A H 0.1778 0.5112 0.0437
C6A C 0.7639(4) 0.3287(5) 0.1918(5)
H8A H 0.7629 0.3209 0.2548
H9A H 0.7681 0.3871 0.1798
H10A H 0.8226 0.3007 0.1838
C7A C 0.6666(4) 0.2934(4) 0.1244(4)
C8A C 0.6519(4) 0.2332(4) 0.0580(4)
H11A H 0.7029 0.2032 0.0431
C9A C 0.5458(5) 0.2253(4) 0.0165(4)
C10A C 0.4855(6) 0.1700(5) -0.0626(6)
H12A H 0.4985 0.1127 -0.0443
H13A H 0.5065 0.1804 -0.1168
H14A H 0.4133 0.1815 -0.0770
C11A C 0.5424(4) 0.3756(3) 0.1853(4)
H15A H 0.6054 0.4031 0.2241
H16A H 0.4456 0.2891 0.2121
N5 N 0.5000 -0.0497(10) 0.2500
C13 C 0.5000 0.0953(12) 0.2500
C14 C 0.5000 0.0171(12) 0.2500
H17? H 0.5527 0.1152 0.2256
H18? H 0.5132 0.1152 0.3129
H19? H 0.4341 0.1152 0.2115
loop_
_geom_bond_atom_site_label_1
_geom_bond_atom_site_label_2
_geom_bond_site_symmetry_1
_geom_bond_site_symmetry_2
Cu1 Cl1 1_555 1_555
Cl1 Cu1F 1_555 1_555
N1 Cu1 1_555 1_555
C1 H1 1_555 1_555
H2 C1 1_555 1_555
H3 C1 1_555 1_555
N2 N1 1_555 1_555
C2 C1 1_555 1_555
N3 Cu1 1_555 1_555
C3 C2 1_555 1_555
H4 C3 1_555 1_555
N4 C2 1_555 1_555
C4 N3 1_555 1_555
C5 C4 1_555 1_555
H5 C5 1_555 1_555
H6 C5 1_555 1_555
H7 C5 1_555 1_555
C6 H8 1_555 1_555
H9 C6 1_555 1_555
H10 C6 1_555 1_555
C7 N2 1_555 1_555
N5 C14 1_555 1_555
C8 C7 1_555 1_555
H11 C8 1_555 1_555
C9 N1 1_555 1_555
C10 C9 1_555 1_555
H12 C10 1_555 1_555
H13 C10 1_555 1_555
H14 C10 1_555 1_555
C11 N2 1_555 1_555
H15 C11 1_555 1_555
C12 C11 1_555 1_555
H16 C12 1_555 1_555
C13 C14 1_555 1_555
Cu1F Cl1F 1_555 1_555
Cu1A Cl1A 1_555 1_555
Cu1G Cl1A 1_555 1_555
Cl1F Cu1 1_555 1_555
Cl1G Cu1A 1_555 1_555
N1A Cu1A 1_555 1_555
C1A H1A 1_555 1_555
H2A C1A 1_555 1_555
H3A C1A 1_555 1_555
N2A N1A 1_555 1_555
C2A C1A 1_555 1_555
N3A Cu1A 1_555 1_555
C3A C2A 1_555 1_555
H4A C3A 1_555 1_555
N4A C2A 1_555 1_555
C4A N3A 1_555 1_555
C5A C4A 1_555 1_555
H5A C5A 1_555 1_555
H6A C5A 1_555 1_555
H7A C5A 1_555 1_555
C6A H8A 1_555 1_555
H9A C6A 1_555 1_555
H10A C6A 1_555 1_555
C7A N2A 1_555 1_555
C8A C7A 1_555 1_555
H11A C8A 1_555 1_555
C9A N1A 1_555 1_555
C10A C9A 1_555 1_555
H12A C10A 1_555 1_555
H13A C10A 1_555 1_555
H14A C10A 1_555 1_555
C11A C12 1_555 1_555
H15A C11A 1_555 1_555
H16A C12 1_555 1_555
N3 N4 1_555 1_555
C3 C4 1_555 1_555
N4 C11 1_555 1_555
C6 C7 1_555 1_555
C8 C9 1_555 1_555
Cu1G Cl1G 1_555 1_555
N2A C11A 1_555 1_555
N3A N4A 1_555 1_555
C3A C4A 1_555 1_555
N4A C11A 1_555 1_555
C6A C7A 1_555 1_555
C8A C9A 1_555 1_555

#END
