
#######################################################################
#
#                 Cambridge Crystallographic Data Centre
#                                CCDC 
#
#######################################################################
#
# If this CIF has been generated from an entry in the Cambridge 
# Structural Database, then it will include bibliographic, chemical, 
# crystal, experimental, refinement or atomic coordinate data resulting 
# from the CCDC's data processing and validation procedures.
#
#######################################################################

data_ANESUI
_symmetry_cell_setting           monoclinic
_symmetry_space_group_name_H-M   'P 21/n'
_symmetry_Int_Tables_number      14
_space_group_name_Hall           '-P 2yn'
loop_
_symmetry_equiv_pos_site_id
_symmetry_equiv_pos_as_xyz
1 x,y,z
2 1/2-x,1/2+y,1/2-z
3 -x,-y,-z
4 1/2+x,1/2-y,1/2+z
_cell_length_a                   18.747(4)
_cell_length_b                   8.0550(16)
_cell_length_c                   20.321(4)
_cell_angle_alpha                90
_cell_angle_beta                 108.67(3)
_cell_angle_gamma                90
_cell_volume                     2907.14
loop_
_atom_site_label
_atom_site_type_symbol
_atom_site_fract_x
_atom_site_fract_y
_atom_site_fract_z
Cu1 Cu 0.620092(18) 0.34714(4) 0.334269(17)
Cu2 Cu 0.357621(18) 0.23846(4) 0.161481(16)
C1 C 0.62224(14) 0.2589(3) 0.60526(13)
C2 C 0.85831(17) 0.6412(3) 0.63605(14)
C3 C 0.70666(13) 0.3893(3) 0.54315(11)
H1 H 0.6592 0.4377 0.5137
C4 C 0.46380(15) 0.2151(3) 0.31167(13)
C5 C 0.50983(15) 0.3876(3) 0.18665(14)
C6 C 0.78176(13) 0.3790(3) 0.45489(12)
H2 H 0.8331 0.3975 0.4862
C7 C 0.63662(16) 0.1528(3) 0.66056(14)
H3 H 0.6018 0.1111 0.6802
C8 C 0.93961(19) 0.6549(4) 0.67774(17)
H4 H 0.9682 0.5765 0.6608
H5 H 0.9570 0.7652 0.6736
H6 H 0.9459 0.6317 0.7256
C9 C 0.84957(16) 0.2159(4) 0.38510(15)
C10 C 0.66455(17) 0.7118(3) 0.37440(14)
C11 C 0.73713(16) 0.6889(3) 0.58042(14)
C12 C 0.75900(18) 0.0175(4) 0.74234(14)
H7 H 0.8108 0.0174 0.7442
H8 H 0.7550 0.0642 0.7845
H9 H 0.7403 -0.0943 0.7372
C13 C 0.74590(19) 0.1498(3) 0.29993(14)
C14 C 0.55062(16) 0.3390(4) 0.56367(17)
H10 H 0.5456 0.3325 0.5152
H11 H 0.5091 0.2829 0.5718
H12 H 0.5509 0.4533 0.5771
C15 C 0.92770(18) 0.2426(5) 0.43275(18)
H13 H 0.9404 0.3581 0.4328
H14 H 0.9622 0.1779 0.4172
H15 H 0.9308 0.2091 0.4789
C16 C 0.80325(18) 0.7651(3) 0.61709(15)
H16 H 0.8102 0.8776 0.6274
C17 C 0.78607(16) 0.6894(3) 0.43397(13)
C18 C 0.71370(15) 0.1192(3) 0.68179(12)
C19 C 0.6604(2) 0.7582(4) 0.54963(18)
H17 H 0.6621 0.8767 0.5548
H18 H 0.6416 0.7304 0.5012
H19 H 0.6277 0.7124 0.5729
C20 C 0.5889(2) 0.7705(4) 0.33096(18)
H20 H 0.5903 0.7993 0.2855
H21 H 0.5750 0.8663 0.3522
H22 H 0.5526 0.6839 0.3271
C21 C 0.73226(19) 0.7999(3) 0.40001(15)
H23 H 0.7390 0.9129 0.3947
C22 C 0.82393(19) 0.1338(3) 0.32327(16)
H24 H 0.8530 0.0778 0.3010
C23 C 0.6905(2) 0.0835(4) 0.23469(16)
H25 H 0.6403 0.0999 0.2361
H26 H 0.6993 -0.0330 0.2308
H27 H 0.6964 0.1409 0.1954
C24 C 0.86874(18) 0.7114(4) 0.46807(17)
H28 H 0.8837 0.6598 0.5130
H29 H 0.8804 0.8277 0.4731
H30 H 0.8953 0.6608 0.4400
C25 C 0.73873(13) 0.2845(3) 0.49610(11)
H31 H 0.6974 0.2253 0.4633
H32 H 0.7723 0.2020 0.5247
N1 N 0.72257(12) 0.2350(2) 0.34549(10)
N2 N 0.78734(12) 0.2757(3) 0.39770(10)
N3 N 0.67537(11) 0.5518(2) 0.39222(10)
N4 N 0.75040(11) 0.5399(2) 0.42907(10)
N5 N 0.82888(11) 0.4936(3) 0.61189(10)
N6 N 0.75485(11) 0.5250(2) 0.57745(10)
N7 N 0.74630(11) 0.1969(2) 0.64094(10)
N8 N 0.68900(11) 0.2819(2) 0.59385(10)
N9 N 0.55932(13) 0.3929(3) 0.23748(12)
N10 N 0.41310(14) 0.2134(3) 0.26136(12)
S1 S 0.43782(4) 0.38171(9) 0.11383(3)
S2 S 0.53723(4) 0.21630(10) 0.38344(3)
Cu2C Cu 0.857621(18) 0.26154(4) 0.661481(16)
N5C N 0.32888(11) 0.0064(3) 0.11189(10)
N7C N 0.24630(11) 0.3031(2) 0.14094(10)
loop_
_geom_bond_atom_site_label_1
_geom_bond_atom_site_label_2
_geom_bond_site_symmetry_1
_geom_bond_site_symmetry_2
Cu1 N1 1_555 1_555
Cu2 N10 1_555 1_555
C1 C7 1_555 1_555
C2 C8 1_555 1_555
C3 H1 1_555 1_555
C4 N10 1_555 1_555
C5 N9 1_555 1_555
C6 H2 1_555 1_555
C7 H3 1_555 1_555
C8 H4 1_555 1_555
H5 C8 1_555 1_555
H6 C8 1_555 1_555
C9 C15 1_555 1_555
C10 C20 1_555 1_555
C11 C16 1_555 1_555
C12 H7 1_555 1_555
H8 C12 1_555 1_555
H9 C12 1_555 1_555
C13 C22 1_555 1_555
C14 C1 1_555 1_555
H10 C14 1_555 1_555
H11 C14 1_555 1_555
H12 C14 1_555 1_555
C15 H13 1_555 1_555
H14 C15 1_555 1_555
H15 C15 1_555 1_555
C16 C2 1_555 1_555
H16 C16 1_555 1_555
C17 C21 1_555 1_555
C18 C7 1_555 1_555
C19 C11 1_555 1_555
H17 C19 1_555 1_555
H18 C19 1_555 1_555
H19 C19 1_555 1_555
C20 H20 1_555 1_555
H21 C20 1_555 1_555
H22 C20 1_555 1_555
C21 C10 1_555 1_555
H23 C21 1_555 1_555
C22 C9 1_555 1_555
H24 C22 1_555 1_555
C23 C13 1_555 1_555
H25 C23 1_555 1_555
H26 C23 1_555 1_555
H27 C23 1_555 1_555
C24 C17 1_555 1_555
H28 C24 1_555 1_555
H29 C24 1_555 1_555
H30 C24 1_555 1_555
C25 C3 1_555 1_555
H31 C25 1_555 1_555
H32 C25 1_555 1_555
N1 C13 1_555 1_555
N2 C6 1_555 1_555
N3 Cu1 1_555 1_555
N4 C6 1_555 1_555
N5 C2 1_555 1_555
N6 C3 1_555 1_555
N7 C18 1_555 1_555
N8 C1 1_555 1_555
N9 Cu1 1_555 1_555
S1 Cu2 1_555 1_555
S2 Cu1 1_555 1_555
Cu2C N5 1_555 1_555
N5C Cu2 1_555 1_555
N7C Cu2 1_555 1_555
C3 N8 1_555 1_555
C4 S2 1_555 1_555
C5 S1 1_555 1_555
C6 C25 1_555 1_555
C9 N2 1_555 1_555
C10 N3 1_555 1_555
C11 N6 1_555 1_555
C12 C18 1_555 1_555
C17 N4 1_555 1_555
N1 N2 1_555 1_555
N3 N4 1_555 1_555
N5 N6 1_555 1_555
N7 N8 1_555 1_555
N7 Cu2C 1_555 1_555

#END
