
#######################################################################
#
#                 Cambridge Crystallographic Data Centre
#                                CCDC 
#
#######################################################################
#
# If this CIF has been generated from an entry in the Cambridge 
# Structural Database, then it will include bibliographic, chemical, 
# crystal, experimental, refinement or atomic coordinate data resulting 
# from the CCDC's data processing and validation procedures.
#
#######################################################################

data_ANESOC
_symmetry_cell_setting           monoclinic
_symmetry_space_group_name_H-M   'P 21/c'
_symmetry_Int_Tables_number      14
_space_group_name_Hall           '-P 2ybc'
loop_
_symmetry_equiv_pos_site_id
_symmetry_equiv_pos_as_xyz
1 x,y,z
2 -x,1/2+y,1/2-z
3 -x,-y,-z
4 x,1/2-y,1/2+z
_cell_length_a                   11.399(2)
_cell_length_b                   18.994(4)
_cell_length_c                   14.784(3)
_cell_angle_alpha                90
_cell_angle_beta                 94.84(3)
_cell_angle_gamma                90
_cell_volume                     3189.51
loop_
_atom_site_label
_atom_site_type_symbol
_atom_site_fract_x
_atom_site_fract_y
_atom_site_fract_z
Cu1 Cu 0.62105(6) 0.97330(3) 0.54365(5)
Cu2 Cu 0.92228(7) 0.94742(4) 0.95455(5)
I1 I 0.55446(3) 0.98267(2) 0.36741(2)
I2 I 1.03222(4) 0.927318(18) 1.11361(3)
C1 C 0.8533(4) 0.9158(3) 0.6661(3)
C2 C 0.7768(5) 0.9322(3) 0.7443(3)
C3 C 0.8352(5) 1.0765(3) 0.5506(4)
C4 C 0.9576(5) 1.0770(3) 0.5745(4)
C5 C 0.9817(5) 1.0141(3) 0.6194(4)
C6 C 0.7494(5) 0.8667(3) 0.7986(3)
C7 C 0.8450(5) 0.8016(3) 0.5771(4)
C8 C 0.5699(5) 0.8803(3) 0.8872(4)
C9 C 0.7592(6) 1.1328(3) 0.5021(5)
C10 C 0.6618(5) 0.9331(3) 1.0079(4)
C11 C 1.0948(5) 0.9862(3) 0.6640(4)
C12 C 0.5510(5) 0.9078(3) 0.9703(4)
C13 C 0.9711(5) 0.7812(3) 0.5973(4)
C14 C 0.8798(5) 0.7589(3) 0.8142(4)
C15 C 0.6909(7) 0.9684(4) 1.0981(4)
C16 C 0.9967(6) 0.7491(3) 0.8407(4)
C17 C 0.7546(6) 0.7665(3) 0.5301(4)
C18 C 1.0403(5) 0.8156(3) 0.8709(4)
C19 C 1.1630(6) 0.8352(4) 0.9072(5)
C20 C 0.7878(6) 0.7062(3) 0.7761(5)
C21 C 0.6545(6) 0.8095(3) 0.5315(4)
C22 C 0.5291(6) 0.7974(3) 0.4910(6)
C23 C 0.4846(6) 0.8462(4) 0.8151(5)
N1 N 0.8769(4) 0.9789(2) 0.6189(3)
N2 N 0.7864(4) 1.0174(2) 0.5766(3)
N3 N 0.6863(4) 0.8875(2) 0.8778(3)
N4 N 0.7430(4) 0.9214(2) 0.9495(3)
N5 N 0.9538(4) 0.8636(2) 0.8636(3)
N6 N 0.8552(4) 0.8280(2) 0.8277(3)
N7 N 0.7979(4) 0.8626(2) 0.6056(3)
N8 N 0.6816(4) 0.8689(2) 0.5779(3)
Cu1B Cu 0.37895(6) 1.02670(3) 0.45635(5)
Cu2B Cu 1.07772(7) 1.05258(4) 1.04545(5)
I1B I 0.44554(3) 1.01733(2) 0.63259(2)
I2B I 0.96778(4) 1.072682(18) 0.88639(3)
C24 C 0.3555(15) 0.6272(10) 0.6990(12)
H1 H 0.3342 0.6021 0.7516
H2 H 0.4396 0.6302 0.7002
H3 H 0.3252 0.6028 0.6452
C25 C 0.3074(16) 0.6958(11) 0.6990(13)
N9 N 0.2563(14) 0.7549(10) 0.6955(11)
loop_
_geom_bond_atom_site_label_1
_geom_bond_atom_site_label_2
_geom_bond_site_symmetry_1
_geom_bond_site_symmetry_2
Cu1 I1 1_555 1_555
Cu2 I2 1_555 1_555
I1 Cu1B 1_555 1_555
I2 Cu2B 1_555 1_555
C1 C2 1_555 1_555
C2 C6 1_555 1_555
C3 C4 1_555 1_555
C4 C5 1_555 1_555
C5 C11 1_555 1_555
C6 N3 1_555 1_555
C7 C13 1_555 1_555
C8 C12 1_555 1_555
C9 C3 1_555 1_555
C10 C12 1_555 1_555
C14 C16 1_555 1_555
C15 C10 1_555 1_555
C16 C18 1_555 1_555
C17 C7 1_555 1_555
C18 C19 1_555 1_555
C20 C14 1_555 1_555
C21 C17 1_555 1_555
C22 C21 1_555 1_555
C23 C8 1_555 1_555
C24 H1 1_555 1_555
H2 C24 1_555 1_555
H3 C24 1_555 1_555
C25 C24 1_555 1_555
N1 C1 1_555 1_555
N2 Cu1 1_555 1_555
N3 C8 1_555 1_555
N4 Cu2 1_555 1_555
N5 Cu2 1_555 1_555
N6 C6 1_555 1_555
N7 C1 1_555 1_555
N8 Cu1 1_555 1_555
N9 C25 1_555 1_555
Cu1B I1B 1_555 1_555
Cu2B I2B 1_555 1_555
I1B Cu1 1_555 1_555
I2B Cu2 1_555 1_555
C3 N2 1_555 1_555
C5 N1 1_555 1_555
C7 N7 1_555 1_555
C10 N4 1_555 1_555
C14 N6 1_555 1_555
C18 N5 1_555 1_555
C21 N8 1_555 1_555
N1 N2 1_555 1_555
N3 N4 1_555 1_555
N5 N6 1_555 1_555
N7 N8 1_555 1_555

#END
