
#######################################################################
#
#                 Cambridge Crystallographic Data Centre
#                                CCDC 
#
#######################################################################
#
# If this CIF has been generated from an entry in the Cambridge 
# Structural Database, then it will include bibliographic, chemical, 
# crystal, experimental, refinement or atomic coordinate data resulting 
# from the CCDC's data processing and validation procedures.
#
#######################################################################

data_ANESIW
_symmetry_cell_setting           monoclinic
_symmetry_space_group_name_H-M   'C 2/c'
_symmetry_Int_Tables_number      15
_space_group_name_Hall           '-C 2yn'
loop_
_symmetry_equiv_pos_site_id
_symmetry_equiv_pos_as_xyz
1 x,y,z
2 -x,y,1/2-z
3 1/2+x,1/2+y,z
4 1/2-x,1/2+y,1/2-z
5 -x,-y,-z
6 x,-y,1/2+z
7 1/2-x,1/2-y,-z
8 1/2+x,1/2-y,1/2+z
_cell_length_a                   14.010(3)
_cell_length_b                   16.294(3)
_cell_length_c                   14.793(3)
_cell_angle_alpha                90
_cell_angle_beta                 106.91(3)
_cell_angle_gamma                90
_cell_volume                     3230.92
loop_
_atom_site_label
_atom_site_type_symbol
_atom_site_fract_x
_atom_site_fract_y
_atom_site_fract_z
C13 C 0.5000 -0.0200(12) -0.2500
N5 N 0.5000 0.0446(13) -0.2500
C14 C 0.4823(14) -0.0923(10) -0.2075(13)
H17 H 0.4891 -0.0823 -0.1420
H18 H 0.5296 -0.1333 -0.2129
H19 H 0.4159 -0.1113 -0.2383
C14A C 0.5177(14) -0.0923(10) -0.2925(13)
H17A H 0.5109 -0.0823 -0.3580
H18A H 0.4704 -0.1333 -0.2871
H19A H 0.5841 -0.1113 -0.2617
Cu1 Cu 0.65938(4) 0.29980(3) 0.46510(3)
Br1 Br 0.72921(3) 0.19948(3) 0.37420(3)
C1 C 0.3443(3) 0.2978(2) 0.3865(3)
N1 N 0.5347(2) 0.43852(18) 0.3682(2)
C2 C 0.4638(3) 0.3772(2) 0.3200(3)
H1 H 0.4031 0.4059 0.2842
N2 N 0.6331(2) 0.41817(18) 0.4040(2)
N3 N 0.4368(2) 0.32321(19) 0.3871(2)
C3 C 0.5000 0.3265(3) 0.2500
H2 H 0.5540 0.2914 0.2850
C4 C 0.4622(3) 0.2280(3) 0.4910(3)
C5 C 0.3592(3) 0.2376(3) 0.4530(3)
H3 H 0.3100 0.2084 0.4700
C6 C 0.6792(3) 0.4885(2) 0.4376(3)
C7 C 0.5197(3) 0.5197(2) 0.3799(3)
N4 N 0.5102(2) 0.2796(2) 0.4499(2)
C8 C 0.4182(4) 0.5589(3) 0.3475(4)
H4 H 0.3907 0.5515 0.2806
H5 H 0.4240 0.6165 0.3618
H6 H 0.3751 0.5337 0.3795
C9 C 0.6094(4) 0.5527(2) 0.4232(3)
H7 H 0.6227 0.6074 0.4403
C10 C 0.2508(3) 0.3348(3) 0.3247(4)
H8 H 0.1942 0.3072 0.3348
H9 H 0.2494 0.3292 0.2598
H10 H 0.2484 0.3920 0.3398
C11 C 0.7897(4) 0.4900(3) 0.4839(4)
H11 H 0.8090 0.4420 0.5225
H12 H 0.8070 0.5382 0.5225
H13 H 0.8237 0.4908 0.4362
C12 C 0.5182(4) 0.1719(3) 0.5680(4)
H14 H 0.4976 0.1163 0.5517
H15 H 0.5047 0.1864 0.6260
H16 H 0.5885 0.1768 0.5759
Cu1F Cu 0.84062(4) 0.20020(3) 0.53490(3)
Cu1A Cu 0.34062(4) 0.29980(3) 0.03490(3)
Cu1G Cu 0.15938(4) 0.20020(3) -0.03490(3)
Br1F Br 0.77079(3) 0.30052(3) 0.62580(3)
Br1A Br 0.27079(3) 0.19948(3) 0.12580(3)
Br1G Br 0.22921(3) 0.30052(3) -0.12580(3)
C1A C 0.6557(3) 0.2978(2) 0.1135(3)
N1A N 0.4653(2) 0.43852(18) 0.1318(2)
C2A C 0.5362(3) 0.3772(2) 0.1800(3)
H1A H 0.5969 0.4059 0.2158
N2A N 0.3669(2) 0.41817(18) 0.0960(2)
N3A N 0.5632(2) 0.32321(19) 0.1129(2)
H2A H 0.4460 0.2914 0.2150
C4A C 0.5378(3) 0.2280(3) 0.0090(3)
C5A C 0.6408(3) 0.2376(3) 0.0470(3)
H3A H 0.6900 0.2084 0.0300
C6A C 0.3208(3) 0.4885(2) 0.0624(3)
C7A C 0.4803(3) 0.5197(2) 0.1201(3)
N4A N 0.4898(2) 0.2796(2) 0.0501(2)
C8A C 0.5818(4) 0.5589(3) 0.1525(4)
H4A H 0.6093 0.5515 0.2194
H5A H 0.5760 0.6165 0.1382
H6A H 0.6249 0.5337 0.1205
C9A C 0.3906(4) 0.5527(2) 0.0768(3)
H7A H 0.3773 0.6074 0.0597
C10A C 0.7492(3) 0.3348(3) 0.1753(4)
H8A H 0.8058 0.3072 0.1652
H9A H 0.7506 0.3292 0.2402
H10A H 0.7516 0.3920 0.1602
C11A C 0.2103(4) 0.4900(3) 0.0161(4)
H11A H 0.1910 0.4420 -0.0225
H12A H 0.1930 0.5382 -0.0225
H13A H 0.1763 0.4908 0.0638
C12A C 0.4818(4) 0.1719(3) -0.0680(4)
H14A H 0.5024 0.1163 -0.0517
H15A H 0.4953 0.1864 -0.1260
H16A H 0.4115 0.1768 -0.0759
loop_
_geom_bond_atom_site_label_1
_geom_bond_atom_site_label_2
_geom_bond_site_symmetry_1
_geom_bond_site_symmetry_2
Cu1 Br1 1_555 1_555
Br1 Cu1F 1_555 1_555
C1 N3 1_555 1_555
N1 C2 1_555 1_555
C2 H1 1_555 1_555
N2 Cu1 1_555 1_555
N3 C2 1_555 1_555
C3 C2 1_555 1_555
H2 C3 1_555 1_555
C4 C5 1_555 1_555
C5 C1 1_555 1_555
H3 C5 1_555 1_555
C6 N2 1_555 1_555
C7 N1 1_555 1_555
N4 Cu1 1_555 1_555
C8 C7 1_555 1_555
H4 C8 1_555 1_555
H5 C8 1_555 1_555
H6 C8 1_555 1_555
C9 C6 1_555 1_555
H7 C9 1_555 1_555
C10 C1 1_555 1_555
H8 C10 1_555 1_555
H9 C10 1_555 1_555
H10 C10 1_555 1_555
C11 C6 1_555 1_555
H11 C11 1_555 1_555
H12 C11 1_555 1_555
H13 C11 1_555 1_555
C12 C4 1_555 1_555
H14 C12 1_555 1_555
H15 C12 1_555 1_555
H16 C12 1_555 1_555
C13 N5 1_555 1_555
C14 C13 1_555 1_555
H17 C14 1_555 1_555
H18 C14 1_555 1_555
H19 C14 1_555 1_555
Cu1F Br1F 1_555 1_555
Cu1A Br1A 1_555 1_555
Cu1G Br1A 1_555 1_555
Br1F Cu1 1_555 1_555
Br1G Cu1A 1_555 1_555
C1A N3A 1_555 1_555
N1A C2A 1_555 1_555
C2A C3 1_555 1_555
H1A C2A 1_555 1_555
N2A Cu1A 1_555 1_555
N3A C2A 1_555 1_555
H2A C3 1_555 1_555
C4A C5A 1_555 1_555
C5A C1A 1_555 1_555
H3A C5A 1_555 1_555
C6A N2A 1_555 1_555
C7A N1A 1_555 1_555
N4A Cu1A 1_555 1_555
C8A C7A 1_555 1_555
H4A C8A 1_555 1_555
H5A C8A 1_555 1_555
H6A C8A 1_555 1_555
C9A C6A 1_555 1_555
H7A C9A 1_555 1_555
C10A C1A 1_555 1_555
H8A C10A 1_555 1_555
H9A C10A 1_555 1_555
H10A C10A 1_555 1_555
C11A C6A 1_555 1_555
H11A C11A 1_555 1_555
H12A C11A 1_555 1_555
H13A C11A 1_555 1_555
C12A C4A 1_555 1_555
H14A C12A 1_555 1_555
H15A C12A 1_555 1_555
H16A C12A 1_555 1_555
C14A C13 1_555 1_555
H17A C14A 1_555 1_555
H18A C14A 1_555 1_555
H19A C14A 1_555 1_555
N1 N2 1_555 1_555
N3 N4 1_555 1_555
C4 N4 1_555 1_555
C7 C9 1_555 1_555
C14 C14A 1_555 1_555
Cu1G Br1G 1_555 1_555
N1A N2A 1_555 1_555
N3A N4A 1_555 1_555
C4A N4A 1_555 1_555
C7A C9A 1_555 1_555

#END
