
#######################################################################
#
#                 Cambridge Crystallographic Data Centre
#                                CCDC 
#
#######################################################################
#
# If this CIF has been generated from an entry in the Cambridge 
# Structural Database, then it will include bibliographic, chemical, 
# crystal, experimental, refinement or atomic coordinate data resulting 
# from the CCDC's data processing and validation procedures.
#
#######################################################################

data_ANETAP
_symmetry_cell_setting           monoclinic
_symmetry_space_group_name_H-M   'P 2/n'
_symmetry_Int_Tables_number      13
_space_group_name_Hall           '-P 2yac'
loop_
_symmetry_equiv_pos_site_id
_symmetry_equiv_pos_as_xyz
1 x,y,z
2 1/2-x,y,1/2-z
3 -x,-y,-z
4 1/2+x,-y,1/2+z
_cell_length_a                   11.738(2)
_cell_length_b                   7.8457(16)
_cell_length_c                   15.623(3)
_cell_angle_alpha                90
_cell_angle_beta                 97.05(3)
_cell_angle_gamma                90
_cell_volume                     1427.89
loop_
_atom_site_label
_atom_site_type_symbol
_atom_site_fract_x
_atom_site_fract_y
_atom_site_fract_z
Cu1 Cu 0.96168(2) 0.59605(4) 0.236342(19)
N1 N 1.16219(17) 0.5632(2) 0.38451(12)
C1 C 1.3045(3) 0.5022(4) 0.51337(18)
H1 H 1.3692 0.5614 0.4955
H2 H 1.3075 0.3844 0.4973
H3 H 1.3066 0.5110 0.5748
Cu2 Cu 1.0000 1.0000 0.0000
N2 N 1.05999(16) 0.6439(2) 0.35973(12)
C2 C 1.1963(2) 0.5798(3) 0.47077(16)
N3 N 1.13670(16) 0.3165(2) 0.29423(12)
C3 C 1.1143(2) 0.6752(4) 0.50201(16)
H4 H 1.1134 0.7093 0.5589
N4 N 1.03617(16) 0.3479(3) 0.24203(13)
C4 C 1.0312(2) 0.7125(3) 0.43249(16)
N5 N 0.99643(19) 0.7384(3) 0.13944(16)
C5 C 0.9225(2) 0.8103(4) 0.4331(2)
H5 H 0.9378 0.9298 0.4281
H6 H 0.8914 0.7891 0.4861
H7 H 0.8682 0.7749 0.3854
C6 C 1.2447(2) 0.0769(3) 0.37615(18)
H8 H 1.3144 0.1058 0.3531
H9 H 1.2373 -0.0448 0.3784
H10 H 1.2470 0.1230 0.4333
N6 N 0.79902(19) 0.5825(3) 0.24902(15)
C7 C 1.1449(2) 0.1494(3) 0.31999(15)
C8 C 1.0485(2) 0.0718(3) 0.28147(17)
H11 H 1.0295 -0.0427 0.2859
C9 C 0.9830(2) 0.1967(3) 0.23373(15)
C10 C 0.8699(2) 0.1752(3) 0.1796(2)
H12 H 0.8188 0.2643 0.1926
H13 H 0.8377 0.0666 0.1917
H14 H 0.8806 0.1807 0.1197
C11 C 1.21352(18) 0.4568(3) 0.32325(14)
H15 H 1.2832 0.4065 0.3541
C12 C 0.9999(2) 0.8327(3) 0.08297(14)
C13 C 1.2500 0.5640(4) 0.2500
H16 H 1.1866 0.6368 0.2274
Cu1A Cu 0.53832(2) 0.59605(4) 0.263658(19)
Cu1A_2 Cu 1.53832(2) 0.59605(4) 0.263658(19)
N1A N 1.33781(17) 0.5632(2) 0.11549(12)
C1A C 1.1955(3) 0.5022(4) -0.01337(18)
H1A H 1.1308 0.5614 0.0045
H2A H 1.1925 0.3844 0.0027
H3A H 1.1934 0.5110 -0.0748
Cu2A Cu 0.5000 1.0000 0.5000
N2A N 1.44001(16) 0.6439(2) 0.14027(12)
N2A_2 N 0.44001(16) 0.6439(2) 0.14027(12)
C2A C 1.3037(2) 0.5798(3) 0.02923(16)
N3A N 1.36330(16) 0.3165(2) 0.20577(12)
C3A C 1.3857(2) 0.6752(4) -0.00201(16)
H4A H 1.3866 0.7093 -0.0589
N4A N 1.46383(16) 0.3479(3) 0.25797(13)
N4A_2 N 0.46383(16) 0.3479(3) 0.25797(13)
C4A C 1.4688(2) 0.7125(3) 0.06751(16)
N5A N 0.50357(19) 0.7384(3) 0.36056(16)
C5A C 1.5775(2) 0.8103(4) 0.0669(2)
H5A H 1.5622 0.9298 0.0719
H6A H 1.6086 0.7891 0.0139
H7A H 1.6318 0.7749 0.1146
C6A C 1.2553(2) 0.0769(3) 0.12385(18)
H8A H 1.1856 0.1058 0.1469
H9A H 1.2627 -0.0448 0.1216
H10A H 1.2530 0.1230 0.0667
N6A N 0.70098(19) 0.5825(3) 0.25098(15)
C7A C 1.3551(2) 0.1494(3) 0.18001(15)
C8A C 1.4515(2) 0.0718(3) 0.21853(17)
H11A H 1.4705 -0.0427 0.2141
C9A C 1.5170(2) 0.1967(3) 0.26627(15)
C10A C 1.6301(2) 0.1752(3) 0.3204(2)
H12A H 1.6812 0.2643 0.3074
H13A H 1.6623 0.0666 0.3083
H14A H 1.6194 0.1807 0.3803
C11A C 1.28648(18) 0.4568(3) 0.17675(14)
H15A H 1.2168 0.4065 0.1459
C12A C 0.5001(2) 0.8327(3) 0.41703(14)
C12B C 1.0001(2) 1.1673(3) -0.08297(14)
H16A H 1.3134 0.6368 0.2726
loop_
_geom_bond_atom_site_label_1
_geom_bond_atom_site_label_2
_geom_bond_site_symmetry_1
_geom_bond_site_symmetry_2
Cu1 N2 1_555 1_555
N1 N2 1_555 1_555
C1 H1 1_555 1_555
H2 C1 1_555 1_555
H3 C1 1_555 1_555
Cu2 C12 1_555 1_555
N2 C4 1_555 1_555
C2 N1 1_555 1_555
N3 N4 1_555 1_555
C3 C2 1_555 1_555
H4 C3 1_555 1_555
N4 Cu1 1_555 1_555
C4 C3 1_555 1_555
N5 Cu1 1_555 1_555
C5 C4 1_555 1_555
H5 C5 1_555 1_555
H6 C5 1_555 1_555
H7 C5 1_555 1_555
C6 H8 1_555 1_555
H9 C6 1_555 1_555
H10 C6 1_555 1_555
N6 Cu1 1_555 1_555
C7 N3 1_555 1_555
C8 C7 1_555 1_555
H11 C8 1_555 1_555
C9 N4 1_555 1_555
C10 C9 1_555 1_555
H12 C10 1_555 1_555
H13 C10 1_555 1_555
H14 C10 1_555 1_555
C11 N1 1_555 1_555
H15 C11 1_555 1_555
C12 N5 1_555 1_555
C13 C11 1_555 1_555
H16 C13 1_555 1_555
Cu1A N2A_2 1_555 1_555
Cu1A_2 N2A 1_555 1_555
N1A N2A 1_555 1_555
C1A H1A 1_555 1_555
H2A C1A 1_555 1_555
H3A C1A 1_555 1_555
Cu2A C12A 1_555 1_555
N2A C4A 1_555 1_555
C2A N1A 1_555 1_555
N3A N4A 1_555 1_555
C3A C2A 1_555 1_555
H4A C3A 1_555 1_555
N4A Cu1A_2 1_555 1_555
N4A_2 Cu1A 1_555 1_555
C4A C3A 1_555 1_555
N5A Cu1A 1_555 1_555
C5A C4A 1_555 1_555
H5A C5A 1_555 1_555
H6A C5A 1_555 1_555
H7A C5A 1_555 1_555
C6A H8A 1_555 1_555
H9A C6A 1_555 1_555
H10A C6A 1_555 1_555
N6A N6 1_555 1_555
C7A N3A 1_555 1_555
C8A C7A 1_555 1_555
H11A C8A 1_555 1_555
C9A N4A 1_555 1_555
C10A C9A 1_555 1_555
H12A C10A 1_555 1_555
H13A C10A 1_555 1_555
H14A C10A 1_555 1_555
C11A C13 1_555 1_555
H15A C11A 1_555 1_555
C12A N5A 1_555 1_555
C12B Cu2 1_555 1_555
H16A C13 1_555 1_555
C1 C2 1_555 1_555
N3 C11 1_555 1_555
C6 C7 1_555 1_555
C8 C9 1_555 1_555
Cu1A N6A 1_555 1_555
N1A C11A 1_555 1_555
C1A C2A 1_555 1_555
N3A C11A 1_555 1_555
C6A C7A 1_555 1_555
C8A C9A 1_555 1_555

#END
