
#######################################################################
#
#                 Cambridge Crystallographic Data Centre
#                                CCDC 
#
#######################################################################
#
# If this CIF has been generated from an entry in the Cambridge 
# Structural Database, then it will include bibliographic, chemical, 
# crystal, experimental, refinement or atomic coordinate data resulting 
# from the CCDC's data processing and validation procedures.
#
#######################################################################

data_ANIDAD
_symmetry_cell_setting           monoclinic
_symmetry_space_group_name_H-M   'P 21/n'
_symmetry_Int_Tables_number      14
_space_group_name_Hall           '-P 2yn'
loop_
_symmetry_equiv_pos_site_id
_symmetry_equiv_pos_as_xyz
1 x,y,z
2 1/2-x,1/2+y,1/2-z
3 -x,-y,-z
4 1/2+x,1/2-y,1/2+z
_cell_length_a                   18.4972(14)
_cell_length_b                   10.1886(8)
_cell_length_c                   23.0512(16)
_cell_angle_alpha                90
_cell_angle_beta                 112.3890(10)
_cell_angle_gamma                90
_cell_volume                     4016.77
loop_
_atom_site_label
_atom_site_type_symbol
_atom_site_fract_x
_atom_site_fract_y
_atom_site_fract_z
Co1 Co -0.00502(3) 0.52200(6) 0.24446(3)
Co2 Co -0.02851(3) 0.33771(7) 0.12354(3)
Co3 Co 0.47064(3) 0.20970(7) 0.13218(3)
O1 O 0.10103(17) 0.4470(4) 0.24689(17)
O2 O 0.08768(18) 0.3299(4) 0.16156(18)
O3 O 0.43776(17) 0.1872(3) 0.20539(17)
O4 O 0.3228(2) 0.1843(6) 0.1260(2)
C1 C 0.1271(2) 0.3836(5) 0.2127(2)
C2 C 0.2150(2) 0.3697(5) 0.2353(2)
C3 C 0.2636(3) 0.4392(6) 0.2863(3)
H1 H 0.2423 0.4918 0.3087
C4 C 0.3442(3) 0.4317(7) 0.3046(3)
H2 H 0.3769 0.4795 0.3390
C5 C 0.3756(3) 0.3526(6) 0.2714(3)
H3 H 0.4296 0.3481 0.2835
C6 C 0.3284(2) 0.2808(5) 0.2209(2)
C7 C 0.2473(3) 0.2901(5) 0.2018(2)
H4 H 0.2147 0.2434 0.1670
C8 C 0.3632(3) 0.2093(5) 0.1809(3)
O5 O -0.10982(17) 0.5925(3) 0.24634(17)
O6 O -0.08712(18) 0.7156(4) 0.33147(18)
O7 O -0.43017(17) 0.8594(3) 0.30858(16)
O8 O -0.3094(2) 0.8826(5) 0.3813(2)
C9 C -0.1307(2) 0.6552(5) 0.2838(2)
C10 C -0.2174(2) 0.6602(5) 0.2706(2)
C11 C -0.2690(3) 0.5789(5) 0.2264(3)
H5 H -0.2506 0.5221 0.2035
C12 C -0.3481(3) 0.5808(6) 0.2156(3)
H6 H -0.3824 0.5241 0.1864
C13 C -0.3760(3) 0.6676(6) 0.2487(3)
H7 H -0.4290 0.6689 0.2414
C14 C -0.3258(2) 0.7513(5) 0.2920(2)
C15 C -0.2453(2) 0.7452(5) 0.3048(2)
H8 H -0.2106 0.7977 0.3361
C16 C -0.3540(3) 0.8379(5) 0.3324(3)
O9 O 0.0151(2) 0.4185(3) 0.32772(18)
O10 O 0.0420(2) 0.5414(4) 0.41282(18)
O11 O 0.0690(2) -0.1579(4) 0.44016(19)
O12 O 0.0294(2) -0.0646(4) 0.3476(2)
C17 C 0.0336(2) 0.4324(5) 0.3853(2)
C18 C 0.0471(3) 0.3112(5) 0.4245(3)
C19 C 0.0655(3) 0.3212(5) 0.4894(3)
H9 H 0.0668 0.4034 0.5074
C20 C 0.0818(3) 0.2111(6) 0.5266(3)
H10 H 0.0949 0.2192 0.5696
C21 C 0.0786(3) 0.0880(5) 0.5001(3)
H11 H 0.0900 0.0137 0.5255
C22 C 0.0584(3) 0.0755(5) 0.4358(3)
C23 C 0.0429(3) 0.1882(5) 0.3984(2)
H12 H 0.0296 0.1801 0.3554
C24 C 0.0519(3) -0.0565(5) 0.4050(3)
O13 O -0.0248(2) 0.6269(4) 0.16078(18)
O14 O -0.0441(2) 0.5039(3) 0.07641(18)
O15 O -0.0726(2) 1.2041(4) 0.05408(19)
O16 O -0.0293(3) 1.1061(4) 0.1454(2)
C25 C -0.0401(2) 0.6123(5) 0.1035(2)
C26 C -0.0556(3) 0.7345(5) 0.0643(3)
C27 C -0.0740(3) 0.7266(5) -0.0001(3)
H13 H -0.0746 0.6453 -0.0187
C28 C -0.0915(3) 0.8399(5) -0.0369(3)
H14 H -0.1057 0.8335 -0.0801
C29 C -0.0881(3) 0.9604(5) -0.0097(3)
H15 H -0.0998 1.0356 -0.0345
C30 C -0.0669(3) 0.9706(5) 0.0551(3)
C31 C -0.0514(3) 0.8563(5) 0.0911(2)
H16 H -0.0380 0.8627 0.1342
C32 C -0.0561(3) 1.1007(5) 0.0878(3)
Co1A Co 0.50502(3) 0.02200(6) 0.25554(3)
Co1A_2 Co -0.49498(3) 1.02200(6) 0.25554(3)
Co2A Co -0.47149(3) 0.83771(7) 0.37646(3)
Co2_2 Co -0.02851(3) 1.33771(7) 0.12354(3)
Co3A Co 0.02936(3) 0.70970(7) 0.36782(3)
Co3A_2 Co 0.02936(3) -0.29030(7) 0.36782(3)
O3A O 0.06224(17) 0.6872(3) 0.29461(17)
O6A O 0.58712(18) 0.2156(4) 0.16853(18)
O7A O -0.06983(17) 0.3594(3) 0.19142(16)
O10A O 0.4580(2) 0.0414(4) 0.08718(18)
O11A O 0.4310(2) 0.3421(4) 0.05984(19)
O12A O 0.4706(2) 0.4354(4) 0.1524(2)
O15_2 O -0.0726(2) 0.2041(4) 0.05408(19)
O16_2 O -0.0293(3) 0.1061(4) 0.1454(2)
N1 N 0.2232(3) 0.6619(6) 0.5809(3)
C33 C 0.1441(4) 0.6654(10) 0.5824(5)
H17 H 0.1122 0.7267 0.5516
H18 H 0.1475 0.6923 0.6233
H19 H 0.1210 0.5796 0.5733
C34 C 0.2491(6) 0.7997(11) 0.5787(6)
H20 H 0.2828 0.8027 0.5557
H21 H 0.2770 0.8308 0.6206
H22 H 0.2043 0.8543 0.5583
C35 C 0.2221(5) 0.5969(13) 0.5247(5)
H23 H 0.2688 0.6186 0.5180
H24 H 0.1772 0.6254 0.4894
H25 H 0.2196 0.5036 0.5296
C36 C 0.2795(5) 0.6045(11) 0.6384(5)
H26 H 0.2664 0.5142 0.6411
H27 H 0.2782 0.6517 0.6740
H28 H 0.3310 0.6099 0.6378
N2 N 0.7704(3) 0.3705(5) 0.9158(3)
C37 C 0.7665(4) 0.4811(10) 0.9563(4)
H29 H 0.8063 0.4703 0.9975
H30 H 0.7161 0.4821 0.9592
H31 H 0.7747 0.5623 0.9386
C38 C 0.7091(4) 0.3877(8) 0.8519(3)
H32 H 0.6597 0.4043 0.8551
H33 H 0.7055 0.3093 0.8278
H34 H 0.7225 0.4605 0.8315
C39 C 0.8494(4) 0.3654(9) 0.9126(4)
H35 H 0.8605 0.4481 0.8978
H36 H 0.8505 0.2970 0.8844
H37 H 0.8880 0.3479 0.9537
C40 C 0.7557(4) 0.2441(9) 0.9427(5)
H38 H 0.8029 0.2162 0.9760
H39 H 0.7396 0.1782 0.9104
H40 H 0.7154 0.2568 0.9587
loop_
_geom_bond_atom_site_label_1
_geom_bond_atom_site_label_2
_geom_bond_site_symmetry_1
_geom_bond_site_symmetry_2
Co1 O1 1_555 1_555
Co2 O2 1_555 1_555
Co3 O3 1_555 1_555
O1 C1 1_555 1_555
O2 C1 1_555 1_555
O3 C8 1_555 1_555
O4 Co3 1_555 1_555
C1 C2 1_555 1_555
C2 C3 1_555 1_555
C3 H1 1_555 1_555
C4 C3 1_555 1_555
H2 C4 1_555 1_555
C5 C4 1_555 1_555
H3 C5 1_555 1_555
C6 C5 1_555 1_555
C7 C2 1_555 1_555
H4 C7 1_555 1_555
C8 O4 1_555 1_555
O5 Co1 1_555 1_555
O6 C9 1_555 1_555
O7 C16 1_555 1_555
O8 C16 1_555 1_555
C9 O5 1_555 1_555
C10 C9 1_555 1_555
C11 C10 1_555 1_555
H5 C11 1_555 1_555
C12 C11 1_555 1_555
H6 C12 1_555 1_555
C13 C12 1_555 1_555
H7 C13 1_555 1_555
C14 C13 1_555 1_555
C15 C10 1_555 1_555
H8 C15 1_555 1_555
C16 C14 1_555 1_555
O9 Co1 1_555 1_555
O10 C17 1_555 1_555
O11 C24 1_555 1_555
O12 C24 1_555 1_555
C17 O9 1_555 1_555
C18 C17 1_555 1_555
C19 C18 1_555 1_555
H9 C19 1_555 1_555
C20 C19 1_555 1_555
H10 C20 1_555 1_555
C21 C20 1_555 1_555
H11 C21 1_555 1_555
C22 C21 1_555 1_555
C23 C18 1_555 1_555
H12 C23 1_555 1_555
C24 C22 1_555 1_555
O13 Co1 1_555 1_555
O14 Co2 1_555 1_555
O15 C32 1_555 1_555
O16 C32 1_555 1_555
C25 O13 1_555 1_555
C26 C25 1_555 1_555
C27 C26 1_555 1_555
H13 C27 1_555 1_555
C28 C27 1_555 1_555
H14 C28 1_555 1_555
C29 C28 1_555 1_555
H15 C29 1_555 1_555
C30 C29 1_555 1_555
C31 C26 1_555 1_555
H16 C31 1_555 1_555
C32 C30 1_555 1_555
N1 C33 1_555 1_555
C33 H17 1_555 1_555
H18 C33 1_555 1_555
H19 C33 1_555 1_555
C34 N1 1_555 1_555
H20 C34 1_555 1_555
H21 C34 1_555 1_555
H22 C34 1_555 1_555
C35 N1 1_555 1_555
H23 C35 1_555 1_555
H24 C35 1_555 1_555
H25 C35 1_555 1_555
C36 N1 1_555 1_555
H26 C36 1_555 1_555
H27 C36 1_555 1_555
H28 C36 1_555 1_555
N2 C37 1_555 1_555
C37 H29 1_555 1_555
H30 C37 1_555 1_555
H31 C37 1_555 1_555
C38 N2 1_555 1_555
H32 C38 1_555 1_555
H33 C38 1_555 1_555
H34 C38 1_555 1_555
C39 N2 1_555 1_555
H35 C39 1_555 1_555
H36 C39 1_555 1_555
H37 C39 1_555 1_555
C40 N2 1_555 1_555
H38 C40 1_555 1_555
H39 C40 1_555 1_555
H40 C40 1_555 1_555
Co1A O3 1_555 1_555
Co1A_2 O7 1_555 1_555
Co2A O7 1_555 1_555
Co2_2 O15 1_555 1_555
Co3A O6 1_555 1_555
Co3A_2 O11 1_555 1_555
O3A Co1 1_555 1_555
O6A Co3 1_555 1_555
O7A Co1 1_555 1_555
O10A Co3 1_555 1_555
O11A Co3 1_555 1_555
O12A Co3 1_555 1_555
O15_2 Co2 1_555 1_555
O16_2 Co2 1_555 1_555
Co2 O7A 1_555 1_555
C6 C7 1_555 1_555
C6 C8 1_555 1_555
C14 C15 1_555 1_555
O10 Co3A 1_555 1_555
O12 Co3A_2 1_555 1_555
C22 C23 1_555 1_555
O14 C25 1_555 1_555
O16 Co2_2 1_555 1_555
C30 C31 1_555 1_555
Co3A O3A 1_555 1_555

#END
