
#######################################################################
#
#                 Cambridge Crystallographic Data Centre
#                                CCDC 
#
#######################################################################
#
# If this CIF has been generated from an entry in the Cambridge 
# Structural Database, then it will include bibliographic, chemical, 
# crystal, experimental, refinement or atomic coordinate data resulting 
# from the CCDC's data processing and validation procedures.
#
#######################################################################

data_ANIDEH
_symmetry_cell_setting           triclinic
_symmetry_space_group_name_H-M   'P -1'
_symmetry_Int_Tables_number      2
_space_group_name_Hall           '-P 1'
loop_
_symmetry_equiv_pos_site_id
_symmetry_equiv_pos_as_xyz
1 x,y,z
2 -x,-y,-z
_cell_length_a                   9.0408(12)
_cell_length_b                   10.0189(12)
_cell_length_c                   11.6879(14)
_cell_angle_alpha                82.641(2)
_cell_angle_beta                 76.649(2)
_cell_angle_gamma                76.098(2)
_cell_volume                     996.933
loop_
_atom_site_label
_atom_site_type_symbol
_atom_site_fract_x
_atom_site_fract_y
_atom_site_fract_z
Co1 Co 0.64698(5) 0.64646(4) 0.97625(4)
O1 O 0.7649(2) 1.46204(17) 0.91050(17)
O2 O 0.5587(2) 1.37299(18) 0.92041(18)
O3 O 0.8488(2) 0.73696(17) 0.88994(16)
O4 O 0.6456(2) 0.85977(17) 1.00319(17)
C1 C 0.7012(4) 1.3615(3) 0.9097(2)
C2 C 0.8102(3) 1.2229(2) 0.8904(2)
C3 C 0.9671(3) 1.2089(3) 0.8522(2)
H1 H 1.0093 1.2869 0.8396
C4 C 1.0655(4) 1.0807(3) 0.8315(3)
H2 H 1.1717 1.0729 0.8023
C5 C 1.0020(4) 0.9640(3) 0.8552(2)
H3 H 1.0663 0.8776 0.8412
C6 C 0.8462(3) 0.9752(2) 0.8988(2)
C7 C 0.7477(3) 1.1048(2) 0.9139(2)
H4 H 0.6408 1.1129 0.9395
C8 C 0.7759(4) 0.8498(3) 0.9332(3)
N1 N 0.7369(3) 0.5887(2) 1.1323(2)
N2 N 0.7583(3) 0.6107(2) 1.3165(2)
N3 N 0.8688(3) 0.5024(2) 1.2686(2)
N4 N 0.7429(3) 0.3114(2) 1.4125(2)
N5 N 0.4929(3) 0.2210(3) 1.3531(2)
N6 N 0.5362(3) 0.0958(2) 1.3066(2)
N7 N 0.4550(3) 0.2654(2) 1.1734(2)
C9 C 0.8519(3) 0.4912(3) 1.1602(3)
H5 H 0.9131 0.4238 1.1110
C10 C 0.6832(4) 0.6581(3) 1.2317(3)
H6 H 0.5994 0.7336 1.2387
C11 C 0.9697(4) 0.4118(3) 1.3380(3)
H7 H 1.0098 0.4663 1.3817
H8 H 1.0575 0.3585 1.2861
C12 C 0.8839(4) 0.3144(3) 1.4238(3)
C13 C 0.9569(5) 0.2322(4) 1.5083(3)
H9 H 1.0557 0.2377 1.5151
C14 C 0.8773(6) 0.1415(4) 1.5820(3)
H10 H 0.9230 0.0838 1.6392
C15 C 0.7324(5) 0.1369(4) 1.5710(3)
H11 H 0.6780 0.0761 1.6199
C16 C 0.6678(4) 0.2238(3) 1.4860(3)
C17 C 0.5050(5) 0.2309(4) 1.4740(3)
H12 H 0.4394 0.3173 1.5016
H13 H 0.4661 0.1565 1.5241
C18 C 0.5100(4) 0.1289(3) 1.1995(3)
H14 H 0.5279 0.0635 1.1452
C19 C 0.4479(4) 0.3181(3) 1.2728(3)
H15 H 0.4153 0.4116 1.2848
Co1_2 Co 0.64698(5) 1.64646(4) 0.97625(4)
Co1A Co 0.35302(5) 1.35354(4) 1.02375(4)
Co1A_2 Co 0.35302(5) 0.35354(4) 1.02375(4)
O1_2 O 0.7649(2) 0.46204(17) 0.91050(17)
O2A O 0.4413(2) 0.62701(18) 1.07959(18)
N7A N 0.5450(3) 0.7346(2) 0.8266(2)
loop_
_geom_bond_atom_site_label_1
_geom_bond_atom_site_label_2
_geom_bond_site_symmetry_1
_geom_bond_site_symmetry_2
Co1 O3 1_555 1_555
O1 C1 1_555 1_555
O2 C1 1_555 1_555
O3 C8 1_555 1_555
O4 Co1 1_555 1_555
C1 C2 1_555 1_555
C2 C3 1_555 1_555
C3 H1 1_555 1_555
C4 C3 1_555 1_555
H2 C4 1_555 1_555
C5 C4 1_555 1_555
H3 C5 1_555 1_555
C6 C5 1_555 1_555
C7 C2 1_555 1_555
H4 C7 1_555 1_555
C8 O4 1_555 1_555
N1 Co1 1_555 1_555
N2 N3 1_555 1_555
N3 C9 1_555 1_555
N4 C12 1_555 1_555
N5 N6 1_555 1_555
N6 C18 1_555 1_555
N7 C18 1_555 1_555
C9 N1 1_555 1_555
H5 C9 1_555 1_555
C10 N1 1_555 1_555
H6 C10 1_555 1_555
C11 N3 1_555 1_555
H7 C11 1_555 1_555
H8 C11 1_555 1_555
C12 C11 1_555 1_555
C13 C12 1_555 1_555
H9 C13 1_555 1_555
C14 C13 1_555 1_555
H10 C14 1_555 1_555
C15 C14 1_555 1_555
H11 C15 1_555 1_555
C16 N4 1_555 1_555
C17 N5 1_555 1_555
H12 C17 1_555 1_555
H13 C17 1_555 1_555
C18 H14 1_555 1_555
C19 N5 1_555 1_555
H15 C19 1_555 1_555
Co1_2 O1 1_555 1_555
Co1A O2 1_555 1_555
Co1A_2 N7 1_555 1_555
O1_2 Co1 1_555 1_555
O2A Co1 1_555 1_555
N7A Co1 1_555 1_555
C6 C7 1_555 1_555
C6 C8 1_555 1_555
N2 C10 1_555 1_555
N7 C19 1_555 1_555
C15 C16 1_555 1_555
C16 C17 1_555 1_555

#END
