
#######################################################################
#
#                 Cambridge Crystallographic Data Centre
#                                CCDC 
#
#######################################################################
#
# If this CIF has been generated from an entry in the Cambridge 
# Structural Database, then it will include bibliographic, chemical, 
# crystal, experimental, refinement or atomic coordinate data resulting 
# from the CCDC's data processing and validation procedures.
#
#######################################################################

data_ANIMUG
_symmetry_cell_setting           orthorhombic
_symmetry_space_group_name_H-M   'P 21 21 21'
_symmetry_Int_Tables_number      19
_space_group_name_Hall           'P 2ac 2ab'
loop_
_symmetry_equiv_pos_site_id
_symmetry_equiv_pos_as_xyz
1 x,y,z
2 1/2-x,-y,1/2+z
3 -x,1/2+y,1/2-z
4 1/2+x,1/2-y,-z
_cell_length_a                   8.3337(3)
_cell_length_b                   14.6878(4)
_cell_length_c                   18.7462(5)
_cell_angle_alpha                90
_cell_angle_beta                 90
_cell_angle_gamma                90
_cell_volume                     2294.6
loop_
_atom_site_label
_atom_site_type_symbol
_atom_site_fract_x
_atom_site_fract_y
_atom_site_fract_z
Cs1 Cs -0.15909(3) 0.593729(14) 0.945065(10)
O1 O -0.2780(3) 0.80647(16) 0.99278(12)
O2 O -0.2947(3) 0.75296(15) 0.84600(11)
O3 O -0.4561(3) 0.5886(2) 0.81475(11)
O4 O -0.4259(3) 0.45041(16) 0.91994(12)
O5 O -0.3796(3) 0.50248(14) 1.06460(12)
O6 O -0.2375(3) 0.66941(18) 1.09825(12)
C1 C -0.2665(5) 0.7621(3) 1.11368(18)
H1 H -0.2212 0.7774 1.1598
H2 H -0.3811 0.7733 1.1155
C2 C -0.1927(4) 0.8190(2) 1.0578(2)
H3 H -0.1965 0.8825 1.0719
H4 H -0.0812 0.8019 1.0515
C3 C -0.2087(4) 0.8554(2) 0.9363(2)
H5 H -0.0997 0.8343 0.9287
H6 H -0.2041 0.9195 0.9487
C4 C -0.3023(5) 0.8441(2) 0.86922(19)
H7 H -0.4132 0.8611 0.8775
H8 H -0.2591 0.8839 0.8326
C5 C -0.3816(5) 0.7385(3) 0.78217(18)
H9 H -0.3354 0.7750 0.7442
H10 H -0.4920 0.7577 0.7888
C6 C -0.3780(5) 0.6420(3) 0.76174(17)
H11 H -0.4316 0.6339 0.7162
H12 H -0.2677 0.6220 0.7566
C7 C -0.4498(5) 0.4957(3) 0.79910(19)
H13 H -0.3391 0.4771 0.7925
H14 H -0.5076 0.4836 0.7552
C8 C -0.5233(5) 0.4428(3) 0.8590(2)
H15 H -0.6297 0.4661 0.8693
H16 H -0.5333 0.3793 0.8455
C9 C -0.4877(4) 0.4018(3) 0.97936(19)
H17 H -0.4989 0.3379 0.9673
H18 H -0.5928 0.4253 0.9919
C10 C -0.3765(4) 0.4121(2) 1.04081(18)
H19 H -0.4088 0.3717 1.0791
H20 H -0.2684 0.3958 1.0264
C11 C -0.2906(4) 0.5160(3) 1.12829(17)
H21 H -0.1784 0.5017 1.1202
H22 H -0.3307 0.4762 1.1655
C12 C -0.3070(4) 0.6120(3) 1.15044(16)
H23 H -0.4196 0.6270 1.1562
H24 H -0.2539 0.6211 1.1959
O7 O 0.0040(2) 0.41131(15) 0.90359(9)
O8 O 0.0550(3) 0.41305(17) 0.78714(10)
O9 O -0.4163(3) 0.04780(16) 0.92479(12)
O10 O -0.3782(3) 0.17507(14) 0.98715(10)
H25 H -0.4231 0.1461 1.0187
O11 O -0.0425(3) 0.09149(19) 0.71102(11)
C13 C -0.2422(3) 0.1611(2) 0.87710(15)
C14 C -0.1764(4) 0.24751(18) 0.88511(13)
H26 H -0.2042 0.2829 0.9243
C15 C -0.0691(4) 0.2812(2) 0.83479(15)
C16 C -0.0294(4) 0.2277(2) 0.77660(14)
H27 H 0.0393 0.2507 0.7419
C17 C -0.0904(4) 0.1403(2) 0.76910(15)
C18 C -0.1987(3) 0.1076(2) 0.81903(13)
H28 H -0.2423 0.0497 0.8137
C19 C -0.3553(4) 0.12190(19) 0.93101(15)
C20 C 0.0022(4) 0.37602(19) 0.84232(17)
H29 H -0.066(5) 0.039(2) 0.7119(19)
Cs1B Cs 0.15909(3) 0.093729(14) 0.554935(10)
O11B O 0.0425(3) 0.59149(19) 0.78898(11)
H29B H 0.066(5) 0.539(2) 0.7881(19)
loop_
_geom_bond_atom_site_label_1
_geom_bond_atom_site_label_2
_geom_bond_site_symmetry_1
_geom_bond_site_symmetry_2
Cs1 O1 1_555 1_555
O1 C2 1_555 1_555
O2 Cs1 1_555 1_555
O3 Cs1 1_555 1_555
O4 Cs1 1_555 1_555
O5 Cs1 1_555 1_555
O6 Cs1 1_555 1_555
C1 O6 1_555 1_555
H1 C1 1_555 1_555
H2 C1 1_555 1_555
C2 C1 1_555 1_555
H3 C2 1_555 1_555
H4 C2 1_555 1_555
C3 O1 1_555 1_555
H5 C3 1_555 1_555
H6 C3 1_555 1_555
C4 O2 1_555 1_555
H7 C4 1_555 1_555
H8 C4 1_555 1_555
C5 O2 1_555 1_555
H9 C5 1_555 1_555
H10 C5 1_555 1_555
C6 O3 1_555 1_555
H11 C6 1_555 1_555
H12 C6 1_555 1_555
C7 O3 1_555 1_555
H13 C7 1_555 1_555
H14 C7 1_555 1_555
C8 O4 1_555 1_555
H15 C8 1_555 1_555
H16 C8 1_555 1_555
C9 O4 1_555 1_555
H17 C9 1_555 1_555
H18 C9 1_555 1_555
C10 O5 1_555 1_555
H19 C10 1_555 1_555
H20 C10 1_555 1_555
C11 O5 1_555 1_555
H21 C11 1_555 1_555
H22 C11 1_555 1_555
C12 O6 1_555 1_555
H23 C12 1_555 1_555
H24 C12 1_555 1_555
O7 Cs1 1_555 1_555
O8 C20 1_555 1_555
O9 C19 1_555 1_555
O10 H25 1_555 1_555
O11 C17 1_555 1_555
C13 C14 1_555 1_555
C14 H26 1_555 1_555
C15 C14 1_555 1_555
C16 C15 1_555 1_555
H27 C16 1_555 1_555
C17 C16 1_555 1_555
C18 C13 1_555 1_555
H28 C18 1_555 1_555
C19 O10 1_555 1_555
C20 O7 1_555 1_555
H29 O11 1_555 1_555
Cs1B O11 1_555 1_555
O11B Cs1 1_555 1_555
H29B O11B 1_555 1_555
C3 C4 1_555 1_555
C5 C6 1_555 1_555
C7 C8 1_555 1_555
C9 C10 1_555 1_555
C11 C12 1_555 1_555
C13 C19 1_555 1_555
C15 C20 1_555 1_555
C17 C18 1_555 1_555

#END
