
#######################################################################
#
#                 Cambridge Crystallographic Data Centre
#                                CCDC 
#
#######################################################################
#
# If this CIF has been generated from an entry in the Cambridge 
# Structural Database, then it will include bibliographic, chemical, 
# crystal, experimental, refinement or atomic coordinate data resulting 
# from the CCDC's data processing and validation procedures.
#
#######################################################################

data_ANINIV
_symmetry_cell_setting           orthorhombic
_symmetry_space_group_name_H-M   'P 21 21 21'
_symmetry_Int_Tables_number      19
_space_group_name_Hall           'P 2ac 2ab'
loop_
_symmetry_equiv_pos_site_id
_symmetry_equiv_pos_as_xyz
1 x,y,z
2 1/2-x,-y,1/2+z
3 -x,1/2+y,1/2-z
4 1/2+x,1/2-y,-z
_cell_length_a                   8.1436(2)
_cell_length_b                   14.9847(2)
_cell_length_c                   20.1066(4)
_cell_angle_alpha                90
_cell_angle_beta                 90
_cell_angle_gamma                90
_cell_volume                     2453.6
loop_
_atom_site_label
_atom_site_type_symbol
_atom_site_fract_x
_atom_site_fract_y
_atom_site_fract_z
Cs1 Cs -0.13068(2) 0.161190(10) -0.405840(8)
O1 O -0.0065(3) 0.27832(15) -0.53483(12)
O2 O -0.0367(3) 0.36563(14) -0.40882(16)
O3 O 0.0996(3) 0.26746(19) -0.30338(12)
O4 O 0.1146(3) 0.07846(19) -0.30661(12)
O5 O 0.1130(3) -0.00360(13) -0.43706(12)
O6 O -0.0312(3) 0.08867(16) -0.54446(11)
C1 C -0.0018(4) 0.1449(3) -0.59951(17)
H1 H -0.0442 0.1175 -0.6397
H2 H 0.1154 0.1539 -0.6050
C2 C -0.0835(4) 0.2311(3) -0.58815(17)
H3 H -0.0784 0.2667 -0.6284
H4 H -0.1982 0.2210 -0.5775
C3 C -0.0791(5) 0.3628(3) -0.5248(2)
H5 H -0.1950 0.3555 -0.5153
H6 H -0.0688 0.3981 -0.5650
C4 C 0.0004(5) 0.4096(2) -0.4695(3)
H7 H 0.1183 0.4104 -0.4763
H8 H -0.0381 0.4708 -0.4677
C5 C 0.0356(6) 0.4063(3) -0.3529(3)
H9 H -0.0147 0.4640 -0.3450
H10 H 0.1520 0.4154 -0.3607
C6 C 0.0122(5) 0.3490(4) -0.2952(2)
H11 H 0.0509 0.3794 -0.2556
H12 H -0.1038 0.3366 -0.2895
C7 C 0.1030(6) 0.2130(4) -0.2462(2)
H13 H -0.0081 0.1963 -0.2340
H14 H 0.1508 0.2457 -0.2094
C8 C 0.2006(5) 0.1320(4) -0.2594(2)
H15 H 0.3075 0.1483 -0.2768
H16 H 0.2165 0.0989 -0.2185
C9 C 0.2023(5) 0.0017(3) -0.3245(2)
H17 H 0.2213 -0.0350 -0.2855
H18 H 0.3079 0.0183 -0.3430
C10 C 0.1058(6) -0.0489(2) -0.3744(2)
H19 H 0.1502 -0.1086 -0.3790
H20 H -0.0075 -0.0538 -0.3600
C11 C 0.0230(5) -0.0460(2) -0.4877(2)
H21 H -0.0925 -0.0477 -0.4759
H22 H 0.0611 -0.1069 -0.4932
C12 C 0.0449(5) 0.0038(3) -0.5507(2)
H23 H 0.1610 0.0112 -0.5600
H24 H -0.0043 -0.0290 -0.5871
O7 O -0.6661(3) 0.48894(13) -0.11243(12)
O8 O -0.6646(3) 0.44817(12) -0.21857(11)
O9 O -0.3699(3) 0.17818(13) -0.29022(9)
O10 O -0.2993(3) 0.08012(13) -0.21259(11)
H25 H -0.682(6) 0.513(3) -0.249(2)
C13 C -0.5306(3) 0.35511(15) -0.14219(13)
C14 C -0.4851(3) 0.29729(17) -0.19175(13)
H26 H -0.5158 0.3090 -0.2354
C15 C -0.3931(3) 0.22099(16) -0.17733(12)
C16 C -0.3450(3) 0.20536(16) -0.11221(13)
H27 H -0.2844 0.1546 -0.1021
C17 C -0.3863(4) 0.26442(16) -0.06225(13)
C18 C -0.4824(3) 0.33860(19) -0.07672(12)
H28 H -0.5144 0.3771 -0.0429
C19 C -0.6289(4) 0.43824(16) -0.15747(14)
C20 C -0.3518(3) 0.15628(18) -0.23208(13)
C21 C -0.3760(6) 0.2957(2) 0.05395(14)
H29 H -0.3426 0.3565 0.0476
H30 H -0.3269 0.2727 0.0938
H31 H -0.4934 0.2929 0.0577
O11 O -0.3247(3) 0.24412(14) -0.00081(10)
Cs1B Cs -0.86932(2) 0.661190(10) -0.094160(8)
O7B O -0.3339(3) -0.01106(13) -0.38757(12)
loop_
_geom_bond_atom_site_label_1
_geom_bond_atom_site_label_2
_geom_bond_site_symmetry_1
_geom_bond_site_symmetry_2
Cs1 O1 1_555 1_555
O1 C2 1_555 1_555
O2 Cs1 1_555 1_555
O3 Cs1 1_555 1_555
O4 Cs1 1_555 1_555
O5 Cs1 1_555 1_555
O6 Cs1 1_555 1_555
C1 O6 1_555 1_555
H1 C1 1_555 1_555
H2 C1 1_555 1_555
C2 C1 1_555 1_555
H3 C2 1_555 1_555
H4 C2 1_555 1_555
C3 O1 1_555 1_555
H5 C3 1_555 1_555
H6 C3 1_555 1_555
C4 O2 1_555 1_555
H7 C4 1_555 1_555
H8 C4 1_555 1_555
C5 O2 1_555 1_555
H9 C5 1_555 1_555
H10 C5 1_555 1_555
C6 O3 1_555 1_555
H11 C6 1_555 1_555
H12 C6 1_555 1_555
C7 O3 1_555 1_555
H13 C7 1_555 1_555
H14 C7 1_555 1_555
C8 O4 1_555 1_555
H15 C8 1_555 1_555
H16 C8 1_555 1_555
C9 O4 1_555 1_555
H17 C9 1_555 1_555
H18 C9 1_555 1_555
C10 O5 1_555 1_555
H19 C10 1_555 1_555
H20 C10 1_555 1_555
C11 O5 1_555 1_555
H21 C11 1_555 1_555
H22 C11 1_555 1_555
C12 O6 1_555 1_555
H23 C12 1_555 1_555
H24 C12 1_555 1_555
O7 C19 1_555 1_555
O8 H25 1_555 1_555
O9 Cs1 1_555 1_555
O10 C20 1_555 1_555
C13 C14 1_555 1_555
C14 H26 1_555 1_555
C15 C14 1_555 1_555
C16 C15 1_555 1_555
H27 C16 1_555 1_555
C17 C16 1_555 1_555
C18 C13 1_555 1_555
H28 C18 1_555 1_555
C19 O8 1_555 1_555
C20 O9 1_555 1_555
C21 H29 1_555 1_555
H30 C21 1_555 1_555
H31 C21 1_555 1_555
O11 C17 1_555 1_555
Cs1B O7 1_555 1_555
O7B Cs1 1_555 1_555
C3 C4 1_555 1_555
C5 C6 1_555 1_555
C7 C8 1_555 1_555
C9 C10 1_555 1_555
C11 C12 1_555 1_555
C13 C19 1_555 1_555
C15 C20 1_555 1_555
C17 C18 1_555 1_555
C21 O11 1_555 1_555

#END
