
#######################################################################
#
#                 Cambridge Crystallographic Data Centre
#                                CCDC 
#
#######################################################################
#
# If this CIF has been generated from an entry in the Cambridge 
# Structural Database, then it will include bibliographic, chemical, 
# crystal, experimental, refinement or atomic coordinate data resulting 
# from the CCDC's data processing and validation procedures.
#
#######################################################################

data_ANINOB
_symmetry_cell_setting           orthorhombic
_symmetry_space_group_name_H-M   'P 21 21 21'
_symmetry_Int_Tables_number      19
_space_group_name_Hall           'P 2ac 2ab'
loop_
_symmetry_equiv_pos_site_id
_symmetry_equiv_pos_as_xyz
1 x,y,z
2 1/2-x,-y,1/2+z
3 -x,1/2+y,1/2-z
4 1/2+x,1/2-y,-z
_cell_length_a                   8.1755(2)
_cell_length_b                   15.5119(3)
_cell_length_c                   19.1951(3)
_cell_angle_alpha                90
_cell_angle_beta                 90
_cell_angle_gamma                90
_cell_volume                     2434.28
loop_
_atom_site_label
_atom_site_type_symbol
_atom_site_fract_x
_atom_site_fract_y
_atom_site_fract_z
Cs1 Cs -0.10867(2) 0.167930(12) -0.400620(9)
O1 O 0.0147(3) 0.27999(17) -0.53538(13)
O2 O -0.0139(3) 0.36200(13) -0.40199(16)
O3 O 0.1197(4) 0.26495(16) -0.29052(12)
O4 O 0.1251(4) 0.08038(16) -0.29656(13)
O5 O 0.1330(3) 0.00432(14) -0.43480(12)
O6 O -0.0088(3) 0.09531(17) -0.54533(12)
C1 C 0.0169(5) 0.1512(2) -0.60307(18)
H1 H -0.0271 0.1252 -0.6450
H2 H 0.1332 0.1604 -0.6098
C2 C -0.0654(5) 0.2349(3) -0.58976(18)
H3 H -0.0640 0.2694 -0.6319
H4 H -0.1786 0.2248 -0.5770
C3 C -0.0590(5) 0.3621(2) -0.5237(2)
H5 H -0.1743 0.3547 -0.5135
H6 H -0.0495 0.3971 -0.5654
C4 C 0.0228(6) 0.4064(2) -0.4645(3)
H7 H 0.1401 0.4072 -0.4719
H8 H -0.0153 0.4655 -0.4614
C5 C 0.0610(6) 0.4000(2) -0.3421(2)
H9 H 0.0133 0.4562 -0.3330
H10 H 0.1773 0.4075 -0.3500
C6 C 0.0337(5) 0.3421(3) -0.2813(2)
H11 H 0.0704 0.3703 -0.2390
H12 H -0.0821 0.3299 -0.2766
C7 C 0.1133(7) 0.2089(3) -0.23128(17)
H13 H 0.0005 0.1939 -0.2213
H14 H 0.1580 0.2381 -0.1909
C8 C 0.2074(5) 0.1307(3) -0.2455(2)
H15 H 0.3155 0.1460 -0.2622
H16 H 0.2198 0.0975 -0.2030
C9 C 0.2135(5) 0.0064(3) -0.3164(2)
H17 H 0.2307 -0.0303 -0.2762
H18 H 0.3196 0.0232 -0.3346
C10 C 0.1210(6) -0.0412(2) -0.3705(2)
H19 H 0.1655 -0.0988 -0.3758
H20 H 0.0072 -0.0462 -0.3568
C11 C 0.0444(5) -0.0362(2) -0.4886(2)
H21 H -0.0706 -0.0389 -0.4762
H22 H 0.0838 -0.0946 -0.4950
C12 C 0.0646(5) 0.0135(3) -0.5545(2)
H23 H 0.1799 0.0201 -0.5653
H24 H 0.0127 -0.0168 -0.5928
O7 O -0.6947(3) 0.51013(15) -0.13118(12)
O8 O -0.6311(3) 0.46955(12) -0.23921(11)
O9 O -0.3448(3) 0.19373(13) -0.27737(11)
O10 O -0.3389(3) 0.09966(13) -0.18983(11)
H25 H -0.647(7) 0.534(3) -0.274(3)
O11 O -0.3552(5) 0.22665(17) 0.04734(13)
O12 O -0.4677(5) 0.3488(2) 0.06202(13)
N1 N -0.4195(5) 0.2909(2) 0.02535(14)
C13 C -0.5476(4) 0.38059(19) -0.14612(16)
C14 C -0.4896(4) 0.31679(18) -0.19010(15)
H26 H -0.5016 0.3236 -0.2380
C15 C -0.4144(4) 0.24358(17) -0.16508(14)
C16 C -0.3915(5) 0.23370(16) -0.09372(16)
H27 H -0.3414 0.1847 -0.0757
C17 C -0.4453(4) 0.2988(2) -0.05062(16)
C18 C -0.5259(4) 0.3709(2) -0.07502(16)
H28 H -0.5651 0.4123 -0.0442
C19 C -0.6342(4) 0.46056(19) -0.17337(16)
C20 C -0.3602(4) 0.1752(2) -0.21638(15)
Cs1B Cs -0.89133(2) 0.667930(12) -0.099380(9)
O7B O -0.3053(3) 0.01013(15) -0.36882(12)
loop_
_geom_bond_atom_site_label_1
_geom_bond_atom_site_label_2
_geom_bond_site_symmetry_1
_geom_bond_site_symmetry_2
Cs1 O1 1_555 1_555
O1 C2 1_555 1_555
O2 Cs1 1_555 1_555
O3 Cs1 1_555 1_555
O4 Cs1 1_555 1_555
O5 Cs1 1_555 1_555
O6 Cs1 1_555 1_555
C1 O6 1_555 1_555
H1 C1 1_555 1_555
H2 C1 1_555 1_555
C2 C1 1_555 1_555
H3 C2 1_555 1_555
H4 C2 1_555 1_555
C3 O1 1_555 1_555
H5 C3 1_555 1_555
H6 C3 1_555 1_555
C4 O2 1_555 1_555
H7 C4 1_555 1_555
H8 C4 1_555 1_555
C5 O2 1_555 1_555
H9 C5 1_555 1_555
H10 C5 1_555 1_555
C6 O3 1_555 1_555
H11 C6 1_555 1_555
H12 C6 1_555 1_555
C7 O3 1_555 1_555
H13 C7 1_555 1_555
H14 C7 1_555 1_555
C8 O4 1_555 1_555
H15 C8 1_555 1_555
H16 C8 1_555 1_555
C9 O4 1_555 1_555
H17 C9 1_555 1_555
H18 C9 1_555 1_555
C10 O5 1_555 1_555
H19 C10 1_555 1_555
H20 C10 1_555 1_555
C11 O5 1_555 1_555
H21 C11 1_555 1_555
H22 C11 1_555 1_555
C12 O6 1_555 1_555
H23 C12 1_555 1_555
H24 C12 1_555 1_555
O7 C19 1_555 1_555
O8 H25 1_555 1_555
O9 Cs1 1_555 1_555
O10 C20 1_555 1_555
O11 N1 1_555 1_555
O12 N1 1_555 1_555
N1 C17 1_555 1_555
C13 C14 1_555 1_555
C14 H26 1_555 1_555
C15 C14 1_555 1_555
C16 C15 1_555 1_555
H27 C16 1_555 1_555
C17 C16 1_555 1_555
C18 C13 1_555 1_555
H28 C18 1_555 1_555
C19 O8 1_555 1_555
C20 O9 1_555 1_555
Cs1B O7 1_555 1_555
O7B Cs1 1_555 1_555
C3 C4 1_555 1_555
C5 C6 1_555 1_555
C7 C8 1_555 1_555
C9 C10 1_555 1_555
C11 C12 1_555 1_555
C13 C19 1_555 1_555
C15 C20 1_555 1_555
C17 C18 1_555 1_555

#END
