
#######################################################################
#
#                 Cambridge Crystallographic Data Centre
#                                CCDC 
#
#######################################################################
#
# If this CIF has been generated from an entry in the Cambridge 
# Structural Database, then it will include bibliographic, chemical, 
# crystal, experimental, refinement or atomic coordinate data resulting 
# from the CCDC's data processing and validation procedures.
#
#######################################################################

data_ANINER
_symmetry_cell_setting           orthorhombic
_symmetry_space_group_name_H-M   'P 21 21 21'
_symmetry_Int_Tables_number      19
_space_group_name_Hall           'P 2ac 2ab'
loop_
_symmetry_equiv_pos_site_id
_symmetry_equiv_pos_as_xyz
1 x,y,z
2 1/2-x,-y,1/2+z
3 -x,1/2+y,1/2-z
4 1/2+x,1/2-y,-z
_cell_length_a                   8.2041(2)
_cell_length_b                   15.3854(4)
_cell_length_c                   19.3495(6)
_cell_angle_alpha                90
_cell_angle_beta                 90
_cell_angle_gamma                90
_cell_volume                     2442.36
loop_
_atom_site_label
_atom_site_type_symbol
_atom_site_fract_x
_atom_site_fract_y
_atom_site_fract_z
Cs1 Cs 0.11236(4) 0.66474(2) 0.901661(18)
O1 O -0.0081(6) 0.7797(3) 1.0346(3)
O2 O 0.0171(6) 0.8630(3) 0.9020(4)
O3 O -0.1202(8) 0.7624(3) 0.7935(2)
O4 O -0.1275(7) 0.5779(4) 0.7989(3)
O5 O -0.1293(7) 0.5019(3) 0.9358(3)
O6 O 0.0127(6) 0.5952(3) 1.0464(2)
C1 C -0.0123(9) 0.6494(5) 1.1036(4)
H1 H 0.0349 0.6235 1.1447
H2 H -0.1280 0.6578 1.1115
C2 C 0.0679(9) 0.7344(6) 1.0885(4)
H3 H 0.0662 0.7700 1.1298
H4 H 0.1809 0.7241 1.0763
C3 C 0.0640(10) 0.8621(5) 1.0221(5)
H5 H 0.1784 0.8547 1.0109
H6 H 0.0564 0.8977 1.0634
C4 C -0.0224(11) 0.9070(5) 0.9628(5)
H7 H -0.1394 0.9059 0.9701
H8 H 0.0122 0.9672 0.9597
C5 C -0.0520(13) 0.8973(6) 0.8442(7)
H9 H -0.0024 0.9533 0.8347
H10 H -0.1672 0.9070 0.8527
C6 C -0.0335(10) 0.8409(6) 0.7830(5)
H11 H -0.0753 0.8704 0.7424
H12 H 0.0809 0.8283 0.7754
C7 C -0.1105(12) 0.7112(7) 0.7345(4)
H13 H 0.0022 0.6966 0.7248
H14 H -0.1548 0.7421 0.6951
C8 C -0.2103(10) 0.6276(8) 0.7483(4)
H15 H -0.3185 0.6425 0.7647
H16 H -0.2213 0.5943 0.7060
C9 C -0.2143(9) 0.5039(6) 0.8197(5)
H17 H -0.2330 0.4664 0.7802
H18 H -0.3193 0.5210 0.8382
C10 C -0.1246(11) 0.4577(4) 0.8712(5)
H19 H -0.1703 0.3999 0.8766
H20 H -0.0122 0.4515 0.8563
C11 C -0.0474(10) 0.4600(4) 0.9902(5)
H21 H 0.0668 0.4529 0.9785
H22 H -0.0940 0.4028 0.9976
C12 C -0.0622(11) 0.5109(5) 1.0523(5)
H23 H -0.0118 0.4796 1.0903
H24 H -0.1767 0.5182 1.0633
O7 O 0.3058(7) 0.5032(3) 0.8737(3)
O8 O 0.3636(7) 0.4634(2) 0.7639(2)
O9 O 0.6551(7) 0.1904(3) 0.7198(3)
O10 O 0.6713(7) 0.0944(3) 0.8062(3)
H25 H 0.6991 0.0608 0.7755
Br1 Br 0.60425(16) 0.27882(6) 1.04445(4)
C13 C 0.4543(7) 0.3738(4) 0.8547(3)
C14 C 0.5101(7) 0.3110(3) 0.8095(3)
H26 H 0.4935 0.3183 0.7623
C15 C 0.5906(7) 0.2371(3) 0.8330(3)
C16 C 0.6181(8) 0.2274(3) 0.9036(3)
H27 H 0.6709 0.1782 0.9204
C17 C 0.5664(9) 0.2911(4) 0.9478(3)
C18 C 0.4799(8) 0.3632(4) 0.9256(3)
H28 H 0.4398 0.4036 0.9571
C19 C 0.3661(8) 0.4530(4) 0.8293(3)
C20 C 0.6434(6) 0.1698(4) 0.7802(3)
Cs1B Cs 0.88764(4) 0.16474(2) 0.598339(18)
O9B O 0.3449(7) 0.6904(3) 0.7802(3)
loop_
_geom_bond_atom_site_label_1
_geom_bond_atom_site_label_2
_geom_bond_site_symmetry_1
_geom_bond_site_symmetry_2
Cs1 O1 1_555 1_555
O1 C2 1_555 1_555
O2 Cs1 1_555 1_555
O3 Cs1 1_555 1_555
O4 Cs1 1_555 1_555
O5 Cs1 1_555 1_555
O6 Cs1 1_555 1_555
C1 O6 1_555 1_555
H1 C1 1_555 1_555
H2 C1 1_555 1_555
C2 C1 1_555 1_555
H3 C2 1_555 1_555
H4 C2 1_555 1_555
C3 O1 1_555 1_555
H5 C3 1_555 1_555
H6 C3 1_555 1_555
C4 O2 1_555 1_555
H7 C4 1_555 1_555
H8 C4 1_555 1_555
C5 O2 1_555 1_555
H9 C5 1_555 1_555
H10 C5 1_555 1_555
C6 O3 1_555 1_555
H11 C6 1_555 1_555
H12 C6 1_555 1_555
C7 O3 1_555 1_555
H13 C7 1_555 1_555
H14 C7 1_555 1_555
C8 O4 1_555 1_555
H15 C8 1_555 1_555
H16 C8 1_555 1_555
C9 O4 1_555 1_555
H17 C9 1_555 1_555
H18 C9 1_555 1_555
C10 O5 1_555 1_555
H19 C10 1_555 1_555
H20 C10 1_555 1_555
C11 O5 1_555 1_555
H21 C11 1_555 1_555
H22 C11 1_555 1_555
C12 O6 1_555 1_555
H23 C12 1_555 1_555
H24 C12 1_555 1_555
O7 Cs1 1_555 1_555
O8 C19 1_555 1_555
O9 C20 1_555 1_555
O10 H25 1_555 1_555
Br1 C17 1_555 1_555
C13 C14 1_555 1_555
C14 H26 1_555 1_555
C15 C14 1_555 1_555
C16 C15 1_555 1_555
H27 C16 1_555 1_555
C17 C16 1_555 1_555
C18 C13 1_555 1_555
H28 C18 1_555 1_555
C19 O7 1_555 1_555
C20 O10 1_555 1_555
Cs1B O9 1_555 1_555
O9B Cs1 1_555 1_555
C3 C4 1_555 1_555
C5 C6 1_555 1_555
C7 C8 1_555 1_555
C9 C10 1_555 1_555
C11 C12 1_555 1_555
C13 C19 1_555 1_555
C15 C20 1_555 1_555
C17 C18 1_555 1_555

#END
