
#######################################################################
#
#                 Cambridge Crystallographic Data Centre
#                                CCDC 
#
#######################################################################
#
# If this CIF has been generated from an entry in the Cambridge 
# Structural Database, then it will include bibliographic, chemical, 
# crystal, experimental, refinement or atomic coordinate data resulting 
# from the CCDC's data processing and validation procedures.
#
#######################################################################

data_ANIQIY
_symmetry_cell_setting           monoclinic
_symmetry_space_group_name_H-M   'P 21'
_symmetry_Int_Tables_number      4
_space_group_name_Hall           'P 2yb'
loop_
_symmetry_equiv_pos_site_id
_symmetry_equiv_pos_as_xyz
1 x,y,z
2 -x,1/2+y,-z
_cell_length_a                   10.2140(9)
_cell_length_b                   10.5245(9)
_cell_length_c                   11.2450(10)
_cell_angle_alpha                90
_cell_angle_beta                 97.857(1)
_cell_angle_gamma                90
_cell_volume                     1197.46
loop_
_atom_site_label
_atom_site_type_symbol
_atom_site_fract_x
_atom_site_fract_y
_atom_site_fract_z
Co1 Co 0.57121(4) 0.69092(4) 0.07520(3)
O2 O 0.6728(3) 0.5432(2) 0.3412(2)
O3 O 0.5685(2) 0.5086(2) 0.15551(19)
O4 O 0.5515(2) 0.1364(3) 0.0770(2)
O5 O 0.7161(2) 0.2643(2) 0.1557(2)
O6 O 0.6856(2) 0.7623(2) 0.2301(2)
H3 H 0.749(3) 0.803(3) 0.214(3)
H4 H 0.697(4) 0.701(3) 0.278(3)
O7 O -0.0435(3) 0.7382(3) 0.2988(2)
O8 O 0.5785(3) 0.8768(2) 0.0148(2)
H5 H 0.623(4) 0.930(3) 0.057(3)
H6 H 0.532(4) 0.905(4) -0.047(3)
O9 O 0.1663(3) 0.4739(3) 0.8694(2)
N1 N 0.3939(3) 0.7172(3) 0.1629(2)
N2 N 0.0728(2) 0.6822(3) 0.4767(2)
N3 N 0.0609(3) 0.5502(3) 0.6925(3)
N4 N -0.2552(3) 0.6373(3) 0.9941(2)
C1 C 0.3947(3) 0.7862(3) 0.2632(3)
H7 H 0.4693 0.8385 0.2882
C2 C 0.2926(3) 0.7850(4) 0.3321(3)
H8 H 0.2973 0.8357 0.4025
C3 C 0.1833(3) 0.7092(4) 0.2976(3)
C4 C 0.1799(4) 0.6385(4) 0.1916(3)
H9 H 0.1058 0.5867 0.1637
C5 C 0.2862(4) 0.6457(4) 0.1290(3)
H10 H 0.2834 0.5972 0.0575
C6 C 0.0620(3) 0.7106(4) 0.3591(3)
C7 C 0.1950(3) 0.6469(4) 0.5545(3)
H11 H 0.2240 0.7185 0.6089
H12 H 0.2656 0.6297 0.5045
C8 C 0.1737(3) 0.5305(4) 0.6280(3)
H13 H 0.1576 0.4558 0.5746
H14 H 0.2539 0.5138 0.6860
C9 C -0.0440(3) 0.6953(5) 0.5398(3)
H15 H -0.1239 0.7082 0.4805
H16 H -0.0332 0.7706 0.5931
C10 C -0.0611(4) 0.5779(4) 0.6134(3)
H17 H -0.1339 0.5915 0.6619
H18 H -0.0848 0.5048 0.5594
C11 C 0.0699(3) 0.5247(3) 0.8112(3)
C12 C -0.2227(4) 0.5156(3) 0.9843(3)
H19 H -0.2733 0.4533 1.0187
C13 C -0.1185(4) 0.4751(3) 0.9263(3)
H20 H -0.0977 0.3873 0.9230
C14 C -0.0455(3) 0.5643(3) 0.8733(3)
C15 C -0.0781(3) 0.6905(5) 0.8837(3)
H21 H -0.0297 0.7546 0.8492
C16 C -0.1827(4) 0.7233(3) 0.9453(3)
H22 H -0.2032 0.8107 0.9528
C17 C 0.5303(3) 0.3668(3) 0.3102(3)
C18 C 0.4625(4) 0.3848(4) 0.4097(3)
H23 H 0.4622 0.4664 0.4458
C19 C 0.3968(4) 0.2858(4) 0.4555(3)
H24 H 0.3517 0.2994 0.5229
C20 C 0.3962(4) 0.1665(4) 0.4035(3)
H25 H 0.3535 0.0975 0.4367
C21 C 0.4584(4) 0.1484(4) 0.3030(3)
H26 H 0.4534 0.0676 0.2649
C22 C 0.5280(3) 0.2460(3) 0.2563(3)
C23 C 0.5968(3) 0.4808(3) 0.2659(3)
C24 C 0.6051(3) 0.2161(3) 0.1547(3)
Co1A Co 0.42879(4) 0.19092(4) -0.07520(3)
Co1_2 Co -0.42879(4) 0.69092(4) 1.07520(3)
O4A O 0.4485(2) 0.6364(3) -0.0770(2)
N4_2 N 0.7448(3) 0.6373(3) -0.0059(2)
O1 O 0.9230(3) 0.4261(3) 0.2626(3)
H1 H 0.883(4) 0.492(3) 0.287(4)
H2 H 0.858(4) 0.380(4) 0.233(5)
loop_
_geom_bond_atom_site_label_1
_geom_bond_atom_site_label_2
_geom_bond_site_symmetry_1
_geom_bond_site_symmetry_2
Co1 O3 1_555 1_555
O1 H1 1_555 1_555
H2 O1 1_555 1_555
O2 C23 1_555 1_555
O3 C23 1_555 1_555
O4 C24 1_555 1_555
O5 C24 1_555 1_555
O6 Co1 1_555 1_555
H3 O6 1_555 1_555
H4 O6 1_555 1_555
O7 C6 1_555 1_555
O8 Co1 1_555 1_555
H5 O8 1_555 1_555
H6 O8 1_555 1_555
O9 C11 1_555 1_555
N1 Co1 1_555 1_555
N2 C6 1_555 1_555
N3 C8 1_555 1_555
N4 C12 1_555 1_555
C1 N1 1_555 1_555
H7 C1 1_555 1_555
C2 C1 1_555 1_555
H8 C2 1_555 1_555
C3 C2 1_555 1_555
C4 C3 1_555 1_555
H9 C4 1_555 1_555
C5 N1 1_555 1_555
H10 C5 1_555 1_555
C6 C3 1_555 1_555
C7 N2 1_555 1_555
H11 C7 1_555 1_555
H12 C7 1_555 1_555
C8 C7 1_555 1_555
H13 C8 1_555 1_555
H14 C8 1_555 1_555
C9 N2 1_555 1_555
H15 C9 1_555 1_555
H16 C9 1_555 1_555
C10 N3 1_555 1_555
H17 C10 1_555 1_555
H18 C10 1_555 1_555
C11 N3 1_555 1_555
C12 H19 1_555 1_555
C13 C12 1_555 1_555
H20 C13 1_555 1_555
C14 C11 1_555 1_555
C15 C14 1_555 1_555
H21 C15 1_555 1_555
C16 N4 1_555 1_555
H22 C16 1_555 1_555
C17 C18 1_555 1_555
C18 H23 1_555 1_555
C19 C18 1_555 1_555
H24 C19 1_555 1_555
C20 C19 1_555 1_555
H25 C20 1_555 1_555
C21 C20 1_555 1_555
H26 C21 1_555 1_555
C22 C17 1_555 1_555
C23 C17 1_555 1_555
C24 C22 1_555 1_555
Co1A O4 1_555 1_555
Co1_2 N4 1_555 1_555
O4A Co1 1_555 1_555
N4_2 Co1 1_555 1_555
C4 C5 1_555 1_555
C9 C10 1_555 1_555
C13 C14 1_555 1_555
C15 C16 1_555 1_555
C21 C22 1_555 1_555

#END
