
#######################################################################
#
#                 Cambridge Crystallographic Data Centre
#                                CCDC 
#
#######################################################################
#
# If this CIF has been generated from an entry in the Cambridge 
# Structural Database, then it will include bibliographic, chemical, 
# crystal, experimental, refinement or atomic coordinate data resulting 
# from the CCDC's data processing and validation procedures.
#
#######################################################################

data_ANIQEU
_symmetry_cell_setting           monoclinic
_symmetry_space_group_name_H-M   'P 21/n'
_symmetry_Int_Tables_number      14
_space_group_name_Hall           '-P 2yn'
loop_
_symmetry_equiv_pos_site_id
_symmetry_equiv_pos_as_xyz
1 x,y,z
2 1/2-x,1/2+y,1/2-z
3 -x,-y,-z
4 1/2+x,1/2-y,1/2+z
_cell_length_a                   6.9659(7)
_cell_length_b                   29.074(3)
_cell_length_c                   7.8570(8)
_cell_angle_alpha                90
_cell_angle_beta                 105.268(1)
_cell_angle_gamma                90
_cell_volume                     1535.09
loop_
_atom_site_label
_atom_site_type_symbol
_atom_site_fract_x
_atom_site_fract_y
_atom_site_fract_z
Cd1 Cd 0.48674(4) 0.235539(8) 0.86846(3)
O1 O 0.8709(4) 0.03358(9) 1.3043(4)
O2 O 0.3653(4) 0.28984(9) 1.0277(3)
O3 O 0.5296(4) 0.29436(9) 1.6959(3)
O4 O 0.6523(4) 0.27073(8) 1.2104(4)
O5 O 0.3450(4) 0.26756(7) 1.4358(3)
O6 O 0.5044(4) 0.19064(10) 0.6126(3)
H1 H 0.423(5) 0.2096(12) 0.549(5)
H2 H 0.619(3) 0.1974(14) 0.604(5)
N1 N 0.5793(5) 0.01406(10) 1.3615(4)
N2 N 0.4997(4) 0.16633(10) 1.0135(4)
C1 C 0.6646(6) -0.02590(12) 1.4692(5)
H3 H 0.8092 -0.0277 1.4795
H4 H 0.6018 -0.0544 1.4117
C2 C 0.5936(6) 0.12420(13) 1.2837(5)
H5 H 0.6221 0.1243 1.4088
C3 C 0.5162(6) 0.42357(13) 1.4482(5)
H6 H 0.5237 0.4518 1.5103
C4 C 0.6949(6) 0.04139(12) 1.2915(5)
C5 C 0.5473(6) 0.08493(12) 1.0108(5)
H7 H 0.5432 0.0574 0.9449
C6 C 0.4985(5) 0.12659(12) 0.9260(5)
H8 H 0.4626 0.1272 0.8006
C7 C 0.6025(5) 0.08392(12) 1.1939(5)
C8 C 0.5065(5) 0.38235(12) 1.5336(5)
H9 H 0.5087 0.3825 1.6550
C9 C 0.5424(6) 0.16464(13) 1.1893(5)
H10 H 0.5375 0.1923 1.2523
C10 C 0.5147(6) 0.42342(12) 1.2712(5)
H11 H 0.5175 0.4517 1.2112
C11 C 0.3696(5) 0.02174(13) 1.3490(5)
H12 H 0.2903 -0.0042 1.2851
H13 H 0.3248 0.0503 1.2813
C12 C 0.4937(5) 0.34072(12) 1.4436(5)
C13 C 0.5093(5) 0.38232(13) 1.1818(5)
H14 H 0.5123 0.3825 1.0616
C14 C 0.4993(5) 0.34056(11) 1.2668(4)
C15 C 0.5055(5) 0.29673(13) 1.1654(5)
C16 C 0.4550(5) 0.29737(12) 1.5326(5)
Cd1C Cd -0.01326(4) 0.264461(8) 0.36846(3)
Cd1_2 Cd 0.48674(4) 0.235539(8) 1.86846(3)
Cd1C_2 Cd 0.98674(4) 0.264461(8) 1.36846(3)
Cd1C_3 Cd -0.01326(4) 0.264461(8) 1.36846(3)
Cd1B Cd 0.51326(4) -0.235539(8) 2.13154(3)
Cd1_3 Cd -0.51326(4) 0.235539(8) 0.86846(3)
O1B O 0.1291(4) -0.03358(9) 1.6957(4)
O2C O -0.1347(4) 0.21016(9) 0.5277(3)
O3C O 0.0296(4) 0.20564(9) 1.1959(3)
O3_2 O 0.5296(4) 0.29436(9) 0.6959(3)
O3C_2 O 0.0296(4) 0.20564(9) 0.1959(3)
O4C O 0.1523(4) 0.22927(8) 0.7104(4)
O4_2 O -0.3477(4) 0.27073(8) 0.2104(4)
O5C O -0.1550(4) 0.23244(7) 0.9358(3)
O5C_2 O 0.8450(4) 0.23244(7) 0.9358(3)
O5_2 O 0.3450(4) 0.26756(7) 0.4358(3)
O6C O 0.0044(4) 0.30936(10) 0.1126(3)
H1C H -0.077(5) 0.2904(12) 0.049(5)
H2C H 0.119(3) 0.3026(14) 0.104(5)
N1B N 0.4207(5) -0.01406(10) 1.6385(4)
N2B N 0.5003(4) -0.16633(10) 1.9865(4)
N2C N -0.0003(4) 0.33367(10) 0.5135(4)
C1B C 0.3354(6) 0.02590(12) 1.5308(5)
H3B H 0.1908 0.0277 1.5205
H4B H 0.3982 0.0544 1.5883
C2B C 0.4064(6) -0.12420(13) 1.7163(5)
H5B H 0.3779 -0.1243 1.5912
C3C C 0.0162(6) 0.07643(13) 0.9482(5)
H6C H 0.0237 0.0482 1.0103
C4B C 0.3051(6) -0.04139(12) 1.7085(5)
C5B C 0.4527(6) -0.08493(12) 1.9892(5)
H7B H 0.4568 -0.0574 2.0551
C6B C 0.5015(5) -0.12659(12) 2.0740(5)
H8B H 0.5374 -0.1272 2.1994
C7B C 0.3975(5) -0.08392(12) 1.8061(5)
C8C C 0.0065(5) 0.11765(12) 1.0336(5)
H9C H 0.0087 0.1175 1.1550
C9B C 0.4576(6) -0.16464(13) 1.8107(5)
H10B H 0.4625 -0.1923 1.7477
C10C C 0.0147(6) 0.07658(12) 0.7712(5)
H11C H 0.0175 0.0483 0.7112
C11B C 0.6304(5) -0.02174(13) 1.6510(5)
H12B H 0.7097 0.0042 1.7149
H13B H 0.6752 -0.0503 1.7187
C12C C -0.0063(5) 0.15928(12) 0.9436(5)
C13C C 0.0093(5) 0.11768(13) 0.6818(5)
H14C H 0.0123 0.1175 0.5616
C14C C -0.0007(5) 0.15944(11) 0.7668(4)
C15C C 0.0055(5) 0.20327(13) 0.6654(5)
C16C C -0.0450(5) 0.20263(12) 1.0326(5)
loop_
_geom_bond_atom_site_label_1
_geom_bond_atom_site_label_2
_geom_bond_site_symmetry_1
_geom_bond_site_symmetry_2
Cd1 O2 1_555 1_555
O1 C4 1_555 1_555
O2 C15 1_555 1_555
O3 C16 1_555 1_555
O4 C15 1_555 1_555
O5 C16 1_555 1_555
O6 Cd1 1_555 1_555
H1 O6 1_555 1_555
H2 O6 1_555 1_555
N1 C1 1_555 1_555
N2 Cd1 1_555 1_555
C1 H3 1_555 1_555
H4 C1 1_555 1_555
C2 H5 1_555 1_555
C3 H6 1_555 1_555
C4 N1 1_555 1_555
C5 H7 1_555 1_555
C6 N2 1_555 1_555
H8 C6 1_555 1_555
C7 C2 1_555 1_555
C8 C3 1_555 1_555
H9 C8 1_555 1_555
C9 N2 1_555 1_555
H10 C9 1_555 1_555
C10 C3 1_555 1_555
H11 C10 1_555 1_555
C11 N1 1_555 1_555
H12 C11 1_555 1_555
H13 C11 1_555 1_555
C12 C8 1_555 1_555
C13 C10 1_555 1_555
H14 C13 1_555 1_555
C14 C12 1_555 1_555
C15 C14 1_555 1_555
C16 C12 1_555 1_555
Cd1C O2C 1_555 1_555
Cd1_2 O3 1_555 1_555
Cd1C_2 O4 1_555 1_555
Cd1C_3 O5 1_555 1_555
Cd1B N2B 1_555 1_555
Cd1_3 O5C 1_555 1_555
O1B C4B 1_555 1_555
O2C C15C 1_555 1_555
O3C Cd1C_3 1_555 1_555
O3_2 Cd1 1_555 1_555
O3C_2 Cd1C 1_555 1_555
O4C Cd1 1_555 1_555
O4_2 Cd1C 1_555 1_555
O5C C16C 1_555 1_555
O5C_2 Cd1 1_555 1_555
O5_2 Cd1C 1_555 1_555
O6C Cd1C 1_555 1_555
H1C O6C 1_555 1_555
H2C O6C 1_555 1_555
N1B C1B 1_555 1_555
N2B C6B 1_555 1_555
N2C Cd1C 1_555 1_555
C1B C11 1_555 1_555
H3B C1B 1_555 1_555
H4B C1B 1_555 1_555
C2B H5B 1_555 1_555
C3C H6C 1_555 1_555
C4B N1B 1_555 1_555
C5B H7B 1_555 1_555
C6B C5B 1_555 1_555
H8B C6B 1_555 1_555
C7B C2B 1_555 1_555
C8C C3C 1_555 1_555
H9C C8C 1_555 1_555
C9B N2B 1_555 1_555
H10B C9B 1_555 1_555
C10C C3C 1_555 1_555
H11C C10C 1_555 1_555
C11B C1 1_555 1_555
H12B C11B 1_555 1_555
H13B C11B 1_555 1_555
C12C C8C 1_555 1_555
C13C C10C 1_555 1_555
H14C C13C 1_555 1_555
C14C C12C 1_555 1_555
C15C O4C 1_555 1_555
C16C O3C 1_555 1_555
C2 C9 1_555 1_555
C4 C7 1_555 1_555
C5 C6 1_555 1_555
C5 C7 1_555 1_555
C13 C14 1_555 1_555
N1B C11B 1_555 1_555
C2B C9B 1_555 1_555
C4B C7B 1_555 1_555
C5B C7B 1_555 1_555
C12C C16C 1_555 1_555
C13C C14C 1_555 1_555
C14C C15C 1_555 1_555

#END
