
#######################################################################
#
#                 Cambridge Crystallographic Data Centre
#                                CCDC 
#
#######################################################################
#
# If this CIF has been generated from an entry in the Cambridge 
# Structural Database, then it will include bibliographic, chemical, 
# crystal, experimental, refinement or atomic coordinate data resulting 
# from the CCDC's data processing and validation procedures.
#
#######################################################################

data_ANIQOE
_symmetry_cell_setting           triclinic
_symmetry_space_group_name_H-M   'P -1'
_symmetry_Int_Tables_number      2
_space_group_name_Hall           '-P 1'
loop_
_symmetry_equiv_pos_site_id
_symmetry_equiv_pos_as_xyz
1 x,y,z
2 -x,-y,-z
_cell_length_a                   7.2812(10)
_cell_length_b                   10.7032(14)
_cell_length_c                   10.8333(14)
_cell_angle_alpha                95.672(2)
_cell_angle_beta                 103.322(2)
_cell_angle_gamma                109.235(2)
_cell_volume                     761.522
loop_
_atom_site_label
_atom_site_type_symbol
_atom_site_fract_x
_atom_site_fract_y
_atom_site_fract_z
Cu1 Cu 0.23907(5) 0.59722(3) 0.22764(3)
O1 O -0.3799(3) 0.6184(2) 0.1123(2)
O2 O 0.4589(3) 0.6705(2) 0.4620(2)
O3 O 0.1261(3) 0.73769(19) 0.26864(18)
O4 O 0.0112(3) 0.6750(2) 0.05587(19)
O5 O -0.5448(3) 0.73746(19) 0.1872(2)
O6 O 0.3046(3) 0.4499(2) 0.1503(2)
H1 H 0.404(4) 0.490(3) 0.121(3)
H2 H 0.210(4) 0.403(3) 0.081(2)
N1 N 0.4953(4) 0.8825(2) 0.5479(2)
N2 N -0.0347(4) 0.5379(2) 0.7090(2)
C1 C 0.0527(5) 1.1055(3) 0.1529(3)
H3 H 0.1542 1.1911 0.1607
C2 C 0.4216(5) 0.9768(3) 0.6091(3)
H4 H 0.3103 0.9266 0.6439
H5 H 0.5325 1.0409 0.6820
C3 C 0.2510(4) 0.6864(3) 0.5953(3)
C4 C -0.1481(5) 1.0931(3) 0.1319(3)
H6 H -0.1860 1.1690 0.1211
C5 C 0.0314(4) 0.7494(3) 0.1582(3)
C6 C 0.6549(4) 0.9460(3) 0.4888(3)
H7 H 0.7766 1.0084 0.5562
H8 H 0.6926 0.8763 0.4452
C7 C -0.0889(4) 0.5991(3) 0.6111(3)
H9 H -0.2265 0.5907 0.5816
C8 C -0.0406(4) 0.8664(3) 0.1548(3)
C9 C 0.0490(4) 0.6737(3) 0.5518(3)
H10 H 0.0063 0.7152 0.4828
C10 C 0.1050(4) 0.9930(3) 0.1626(3)
H11 H 0.2425 1.0019 0.1748
C11 C -0.2932(5) 0.9687(3) 0.1268(3)
H12 H -0.4307 0.9603 0.1135
C12 C -0.4008(4) 0.7260(3) 0.1455(3)
C13 C 0.4085(4) 0.7472(3) 0.5273(3)
C14 C -0.2411(4) 0.8560(3) 0.1407(3)
C15 C 0.1608(5) 0.5562(3) 0.7533(3)
H13 H 0.2010 0.5174 0.8252
C16 C 0.3082(5) 0.6288(3) 0.6998(3)
H14 H 0.4458 0.6389 0.7340
Cu1A Cu 0.76093(5) 1.40278(3) 0.77236(3)
Cu1_2 Cu -0.76093(5) 0.59722(3) 0.22764(3)
Cu1A_2 Cu -0.23907(5) 0.40278(3) 0.77236(3)
Cu1_3 Cu 1.23907(5) 1.59722(3) 0.22764(3)
Cu1_4 Cu 1.23907(5) 0.59722(3) 0.22764(3)
O1_2 O 0.6201(3) 0.6184(2) 0.1123(2)
O2A O 0.5411(3) 1.3295(2) 0.5380(2)
O3_2 O 1.1261(3) 0.73769(19) 0.26864(18)
O3A O 0.8739(3) 1.26231(19) 0.73136(18)
O4_2 O 1.0112(3) 0.6750(2) 0.05587(19)
O5_2 O 0.4552(3) 0.73746(19) 0.1872(2)
O5A O 0.5448(3) 1.26254(19) 0.8128(2)
O6A O 0.6954(3) 1.5501(2) 0.8497(2)
H1A H 0.596(4) 1.510(3) 0.879(3)
H2A H 0.790(4) 1.597(3) 0.919(2)
N1A N 0.5047(4) 1.1175(2) 0.4521(2)
N2A N 1.0347(4) 1.4621(2) 0.2910(2)
N2A_2 N 0.0347(4) 0.4621(2) 0.2910(2)
N2_2 N 0.9653(4) 1.5379(2) 0.7090(2)
C1_2 C 1.0527(5) 1.1055(3) 0.1529(3)
H3_2 H 1.1542 1.1911 0.1607
C2A C 0.5784(5) 1.0232(3) 0.3909(3)
H4A H 0.6897 1.0734 0.3561
H5A H 0.4675 0.9591 0.3180
C3A C 0.7490(4) 1.3136(3) 0.4047(3)
C4_2 C 0.8519(5) 1.0931(3) 0.1319(3)
H6_2 H 0.8140 1.1690 0.1211
C5_2 C 1.0314(4) 0.7494(3) 0.1582(3)
C6A C 0.3451(4) 1.0540(3) 0.5112(3)
H7A H 0.2234 0.9916 0.4438
H8A H 0.3074 1.1237 0.5548
C7A C 1.0889(4) 1.4009(3) 0.3889(3)
H9A H 1.2265 1.4093 0.4184
C8_2 C 0.9594(4) 0.8664(3) 0.1548(3)
C9A C 0.9510(4) 1.3263(3) 0.4482(3)
H10A H 0.9937 1.2848 0.5172
C10_2 C 1.1050(4) 0.9930(3) 0.1626(3)
H11_2 H 1.2425 1.0019 0.1748
C11_2 C 0.7068(5) 0.9687(3) 0.1268(3)
H12_2 H 0.5693 0.9603 0.1135
C12_2 C 0.5992(4) 0.7260(3) 0.1455(3)
C13A C 0.5915(4) 1.2528(3) 0.4727(3)
C14_2 C 0.7589(4) 0.8560(3) 0.1407(3)
C15A C 0.8392(5) 1.4438(3) 0.2467(3)
H13A H 0.7990 1.4826 0.1748
C16A C 0.6918(5) 1.3712(3) 0.3002(3)
H14A H 0.5542 1.3611 0.2660
loop_
_geom_bond_atom_site_label_1
_geom_bond_atom_site_label_2
_geom_bond_site_symmetry_1
_geom_bond_site_symmetry_2
Cu1 O2 1_555 1_555
O1 C12 1_555 1_555
O2 C13 1_555 1_555
O3 Cu1 1_555 1_555
O4 C5 1_555 1_555
O5 C12 1_555 1_555
O6 Cu1 1_555 1_555
H1 O6 1_555 1_555
H2 O6 1_555 1_555
N1 C2 1_555 1_555
N2 C7 1_555 1_555
C1 H3 1_555 1_555
C2 H4 1_555 1_555
H5 C2 1_555 1_555
C3 C9 1_555 1_555
C4 C1 1_555 1_555
H6 C4 1_555 1_555
C5 O3 1_555 1_555
C6 N1 1_555 1_555
H7 C6 1_555 1_555
H8 C6 1_555 1_555
C7 H9 1_555 1_555
C8 C5 1_555 1_555
C9 C7 1_555 1_555
H10 C9 1_555 1_555
C10 C1 1_555 1_555
H11 C10 1_555 1_555
C11 C4 1_555 1_555
H12 C11 1_555 1_555
C12 C14 1_555 1_555
C13 N1 1_555 1_555
C14 C8 1_555 1_555
C15 N2 1_555 1_555
H13 C15 1_555 1_555
C16 C3 1_555 1_555
H14 C16 1_555 1_555
Cu1A O2A 1_555 1_555
Cu1_2 O5 1_555 1_555
Cu1A_2 N2 1_555 1_555
Cu1_3 N2A 1_555 1_555
Cu1_4 O3_2 1_555 1_555
O1_2 C12_2 1_555 1_555
O2A C13A 1_555 1_555
O3_2 C5_2 1_555 1_555
O3A Cu1A 1_555 1_555
O4_2 C5_2 1_555 1_555
O5_2 Cu1 1_555 1_555
O5A Cu1A 1_555 1_555
O6A Cu1A 1_555 1_555
H1A O6A 1_555 1_555
H2A O6A 1_555 1_555
N1A C2A 1_555 1_555
N2A C7A 1_555 1_555
N2A_2 Cu1 1_555 1_555
N2_2 Cu1A 1_555 1_555
C1_2 H3_2 1_555 1_555
C2A C6 1_555 1_555
H4A C2A 1_555 1_555
H5A C2A 1_555 1_555
C3A C9A 1_555 1_555
C4_2 C1_2 1_555 1_555
H6_2 C4_2 1_555 1_555
C5_2 C8_2 1_555 1_555
C6A C2 1_555 1_555
H7A C6A 1_555 1_555
H8A C6A 1_555 1_555
C7A H9A 1_555 1_555
C8_2 C10_2 1_555 1_555
C9A C7A 1_555 1_555
H10A C9A 1_555 1_555
C10_2 C1_2 1_555 1_555
H11_2 C10_2 1_555 1_555
C11_2 C4_2 1_555 1_555
H12_2 C11_2 1_555 1_555
C12_2 O5_2 1_555 1_555
C13A N1A 1_555 1_555
C14_2 C8_2 1_555 1_555
C15A N2A 1_555 1_555
H13A C15A 1_555 1_555
C16A C3A 1_555 1_555
H14A C16A 1_555 1_555
C3 C13 1_555 1_555
C8 C10 1_555 1_555
C11 C14 1_555 1_555
C15 C16 1_555 1_555
N1A C6A 1_555 1_555
C3A C13A 1_555 1_555
C11_2 C14_2 1_555 1_555
C12_2 C14_2 1_555 1_555
C15A C16A 1_555 1_555

#END
