
#######################################################################
#
#                 Cambridge Crystallographic Data Centre
#                                CCDC 
#
#######################################################################
#
# If this CIF has been generated from an entry in the Cambridge 
# Structural Database, then it will include bibliographic, chemical, 
# crystal, experimental, refinement or atomic coordinate data resulting 
# from the CCDC's data processing and validation procedures.
#
#######################################################################

data_ANODIR
_symmetry_cell_setting           triclinic
_symmetry_space_group_name_H-M   'P -1'
_symmetry_Int_Tables_number      2
_space_group_name_Hall           '-P 1'
loop_
_symmetry_equiv_pos_site_id
_symmetry_equiv_pos_as_xyz
1 x,y,z
2 -x,-y,-z
_cell_length_a                   9.026(4)
_cell_length_b                   12.654(6)
_cell_length_c                   12.979(6)
_cell_angle_alpha                100.646(8)
_cell_angle_beta                 108.786(8)
_cell_angle_gamma                93.118(9)
_cell_volume                     1368.9
loop_
_atom_site_label
_atom_site_type_symbol
_atom_site_fract_x
_atom_site_fract_y
_atom_site_fract_z
Zn1 Zn 0.21374(7) 0.24731(5) 0.79462(5)
S1 S 0.7704(2) -0.15889(13) 0.86493(14)
S2 S 0.5940(2) -0.19082(12) 0.71702(14)
O1 O 0.5858(5) 0.2999(4) 0.9203(4)
O2 O 0.3872(5) 0.1724(3) 0.8601(3)
O3 O 0.5911(6) 0.2864(4) 1.1378(4)
O4 O 0.8298(6) 0.2876(4) 1.2328(4)
O5 O 0.9047(6) 0.1029(4) 0.4471(3)
O6 O 0.6840(5) 0.0430(4) 0.3233(3)
O7 O 0.8673(5) 0.2220(3) 0.6594(3)
O8 O 1.0608(5) 0.1227(3) 0.7149(3)
N1 N 0.1726(5) 0.3343(4) 0.9263(3)
N2 N 0.2288(5) 0.3386(4) 1.6856(3)
N3 N 0.7134(7) 0.2480(5) 1.1530(4)
N4 N 0.7739(6) 0.0532(4) 0.4162(4)
C1 C 0.7369(6) -0.0380(4) 0.9421(4)
C2 C 0.6378(6) 0.0341(4) 0.8999(4)
H1 H 0.5755 0.0174 0.8250
C3 C 0.8088(6) 0.0322(4) 0.6071(4)
C4 C 0.6285(6) 0.1309(4) 0.9661(4)
C5 C 0.7199(6) 0.1501(5) 1.0780(4)
C6 C 0.5794(7) -0.1472(5) 0.5187(6)
H2 H 0.5022 -0.2068 0.4893
C7 C 0.9211(7) 0.1355(5) 0.6625(4)
C8 C 0.0344(7) 0.3222(4) 0.9437(5)
H3 H -0.0492 0.2767 0.8886
C9 C 0.7339(6) -0.0017(5) 0.4940(4)
C10 C 0.1308(9) 0.4422(5) 1.1203(5)
C11 C 0.8278(7) -0.0155(5) 1.0551(5)
H4 H 0.8955 -0.0636 1.0843
C12 C 0.0106(8) 0.3734(5) 1.0380(5)
H5 H -0.0870 0.3617 1.0466
C13 C 0.2887(7) 0.4001(5) 1.0064(4)
H6 H 0.3861 0.4092 0.9969
C14 C 0.5265(7) 0.2101(5) 0.9131(4)
C15 C 0.6548(7) -0.1152(4) 0.6330(5)
C16 C 0.8163(7) 0.0771(6) 1.1218(5)
H7 H 0.8738 0.0915 1.1976
C17 C 0.6194(7) -0.0906(5) 0.4500(5)
H8 H 0.5697 -0.1118 0.3733
C18 C 0.2722(8) 0.4548(5) 1.1016(5)
H9 H 0.3568 0.5012 1.1546
C19 C 0.2920(7) 0.4394(5) 1.7098(5)
H10 H 0.3435 0.4725 1.7842
C20 C 0.2859(8) 0.4988(5) 1.6302(5)
H11 H 0.3333 0.5702 1.6519
C21 C 0.2122(8) 0.4550(5) 1.5208(5)
C22 C 0.1065(11) 0.4964(6) 1.2249(6)
H12 H 0.0393 0.5491 1.2274
C23 C 0.1989(10) 0.4584(6) 1.3226(5)
H13 H 0.3083 0.4640 1.3266
H14 H 0.1633 0.3823 1.3128
C24 C 0.1903(11) 0.5187(6) 1.4323(5)
H15 H 0.2702 0.5812 1.4606
H16 H 0.0884 0.5454 1.4182
C25 C 0.7710(6) -0.0268(4) 0.6758(4)
H17 H 0.8241 -0.0073 0.7522
C26 C 0.1477(8) 0.3501(6) 1.4961(5)
H18 H 0.0966 0.3155 1.4220
C27 C 0.1568(7) 0.2948(5) 1.5781(4)
H19 H 0.1105 0.2232 1.5579
H20 H 0.198(3) 0.545(3) 1.240(6)
Zn1_2 Zn 0.21374(7) 0.24731(5) 1.79462(5)
Zn1_3 Zn 1.21374(7) 0.24731(5) 0.79462(5)
O8_2 O 0.0608(5) 0.1227(3) 0.7149(3)
N2_2 N 0.2288(5) 0.3386(4) 0.6856(3)
O9 O 0.3923(14) 0.6975(11) 0.2908(12)
loop_
_geom_bond_atom_site_label_1
_geom_bond_atom_site_label_2
_geom_bond_site_symmetry_1
_geom_bond_site_symmetry_2
Zn1 O2 1_555 1_555
S1 S2 1_555 1_555
S2 C15 1_555 1_555
O1 C14 1_555 1_555
O2 C14 1_555 1_555
O3 N3 1_555 1_555
O4 N3 1_555 1_555
O5 N4 1_555 1_555
O6 N4 1_555 1_555
O7 C7 1_555 1_555
O8 C7 1_555 1_555
N1 Zn1 1_555 1_555
N2 C19 1_555 1_555
N3 C5 1_555 1_555
N4 C9 1_555 1_555
C1 S1 1_555 1_555
C2 C1 1_555 1_555
H1 C2 1_555 1_555
C3 C7 1_555 1_555
C4 C2 1_555 1_555
C5 C4 1_555 1_555
C6 H2 1_555 1_555
C8 N1 1_555 1_555
H3 C8 1_555 1_555
C9 C3 1_555 1_555
C10 C12 1_555 1_555
C11 C1 1_555 1_555
H4 C11 1_555 1_555
C12 C8 1_555 1_555
H5 C12 1_555 1_555
C13 N1 1_555 1_555
H6 C13 1_555 1_555
C14 C4 1_555 1_555
C15 C6 1_555 1_555
C16 C5 1_555 1_555
H7 C16 1_555 1_555
C17 C6 1_555 1_555
H8 C17 1_555 1_555
C18 C10 1_555 1_555
H9 C18 1_555 1_555
C19 H10 1_555 1_555
C20 C19 1_555 1_555
H11 C20 1_555 1_555
C21 C20 1_555 1_555
C22 C10 1_555 1_555
H12 C22 1_555 1_555
C23 C22 1_555 1_555
H13 C23 1_555 1_555
H14 C23 1_555 1_555
C24 C21 1_555 1_555
H15 C24 1_555 1_555
H16 C24 1_555 1_555
C25 C3 1_555 1_555
H17 C25 1_555 1_555
C26 C21 1_555 1_555
H18 C26 1_555 1_555
C27 N2 1_555 1_555
H19 C27 1_555 1_555
H20 C22 1_555 1_555
Zn1_2 N2 1_555 1_555
Zn1_3 O8 1_555 1_555
O8_2 Zn1 1_555 1_555
N2_2 Zn1 1_555 1_555
C9 C17 1_555 1_555
C11 C16 1_555 1_555
C13 C18 1_555 1_555
C15 C25 1_555 1_555
C23 C24 1_555 1_555
C26 C27 1_555 1_555

#END
