
#######################################################################
#
#                 Cambridge Crystallographic Data Centre
#                                CCDC 
#
#######################################################################
#
# If this CIF has been generated from an entry in the Cambridge 
# Structural Database, then it will include bibliographic, chemical, 
# crystal, experimental, refinement or atomic coordinate data resulting 
# from the CCDC's data processing and validation procedures.
#
#######################################################################

data_ANODEN
_symmetry_cell_setting           monoclinic
_symmetry_space_group_name_H-M   'C 2/c'
_symmetry_Int_Tables_number      15
_space_group_name_Hall           '-C 2yn'
loop_
_symmetry_equiv_pos_site_id
_symmetry_equiv_pos_as_xyz
1 x,y,z
2 -x,y,1/2-z
3 1/2+x,1/2+y,z
4 1/2-x,1/2+y,1/2-z
5 -x,-y,-z
6 x,-y,1/2+z
7 1/2-x,1/2-y,-z
8 1/2+x,1/2-y,1/2+z
_cell_length_a                   10.270(2)
_cell_length_b                   18.812(5)
_cell_length_c                   14.765(3)
_cell_angle_alpha                90
_cell_angle_beta                 90.550(5)
_cell_angle_gamma                90
_cell_volume                     2852.46
loop_
_atom_site_label
_atom_site_type_symbol
_atom_site_fract_x
_atom_site_fract_y
_atom_site_fract_z
Zn1 Zn 0.0000 0.07190(5) 0.7500
S1 S 0.5427(2) -0.17924(9) 0.68905(12)
O1 O 0.2431(6) 0.0912(3) 0.6430(3)
O2 O 0.1500(8) 0.0443(4) 0.4668(4)
O3 O 0.2833(6) 0.0166(3) 0.3649(4)
O4 O 0.1040(5) 0.0066(2) 0.6795(3)
N1 N -0.0945(5) 0.1366(2) 0.6596(3)
N2 N 0.2451(9) 0.0138(3) 0.4418(4)
C1 C 0.3604(7) -0.0718(3) 0.6547(4)
H1 H 0.3441 -0.0709 0.7165
C2 C 0.3200(8) -0.0297(4) 0.5055(4)
C3 C 0.2919(7) -0.0253(3) 0.5987(4)
C4 C -0.2161(7) 0.2261(3) 0.5331(4)
C5 C 0.4515(7) -0.1192(3) 0.6225(4)
C6 C -0.1901(8) 0.1799(3) 0.6829(4)
H2 H -0.2160 0.1801 0.7431
C7 C -0.1175(7) 0.1819(3) 0.5108(4)
H3 H -0.0888 0.1809 0.4513
C8 C 0.4778(7) -0.1201(3) 0.5300(5)
H4 H 0.5397 -0.1515 0.5077
C9 C 0.4135(7) -0.0752(3) 0.4714(5)
H5 H 0.4325 -0.0753 0.4099
C10 C -0.0592(7) 0.1386(3) 0.5737(5)
H6 H 0.0085 0.1093 0.5552
C11 C -0.2539(8) 0.2252(3) 0.6231(4)
H7 H -0.3209 0.2543 0.6429
C12 C 0.2055(9) 0.0278(4) 0.6423(4)
Zn1_2 Zn 1.0000 0.07190(5) 0.7500
Zn1F Zn -0.5000 0.42810(5) 0.2500
S1A S 0.4573(2) -0.17924(9) 0.81095(12)
O1A O 0.7569(6) 0.0912(3) 0.8570(3)
O2A O 0.8500(8) 0.0443(4) 1.0332(4)
O3A O 0.7167(6) 0.0166(3) 1.1351(4)
O4A O 0.8960(5) 0.0066(2) 0.8205(3)
O4A_2 O -0.1040(5) 0.0066(2) 0.8205(3)
N1F N -0.4055(5) 0.3634(2) 0.3404(3)
N1A N 0.0945(5) 0.1366(2) 0.8404(3)
N2A N 0.7549(9) 0.0138(3) 1.0582(4)
C1A C 0.6396(7) -0.0718(3) 0.8453(4)
H1A H 0.6559 -0.0709 0.7835
C2A C 0.6800(8) -0.0297(4) 0.9945(4)
C3A C 0.7081(7) -0.0253(3) 0.9013(4)
C4F C -0.2839(7) 0.2739(3) 0.4669(4)
C5A C 0.5485(7) -0.1192(3) 0.8775(4)
C6F C -0.3099(8) 0.3201(3) 0.3171(4)
H2F H -0.2840 0.3199 0.2569
C7F C -0.3825(7) 0.3181(3) 0.4892(4)
H3F H -0.4112 0.3191 0.5487
C8A C 0.5222(7) -0.1201(3) 0.9700(5)
H4A H 0.4603 -0.1515 0.9923
C9A C 0.5865(7) -0.0752(3) 1.0286(5)
H5A H 0.5675 -0.0753 1.0901
C10F C -0.4408(7) 0.3614(3) 0.4263(5)
H6F H -0.5085 0.3907 0.4448
C11F C -0.2461(8) 0.2748(3) 0.3769(4)
H7F H -0.1791 0.2457 0.3571
C12A C 0.7945(9) 0.0278(4) 0.8577(4)
O5 O 0.1893(9) 0.2705(3) 0.4223(5)
O6 O 0.0859(9) 0.1640(4) 0.3124(5)
O7 O 0.5000 0.1291(18) 0.7500
loop_
_geom_bond_atom_site_label_1
_geom_bond_atom_site_label_2
_geom_bond_site_symmetry_1
_geom_bond_site_symmetry_2
Zn1 O4 1_555 1_555
S1 C5 1_555 1_555
O1 C12 1_555 1_555
O2 N2 1_555 1_555
O3 N2 1_555 1_555
O4 C12 1_555 1_555
N1 Zn1 1_555 1_555
N2 C2 1_555 1_555
C1 H1 1_555 1_555
C2 C3 1_555 1_555
C3 C1 1_555 1_555
C4 C7 1_555 1_555
C5 C1 1_555 1_555
C6 N1 1_555 1_555
H2 C6 1_555 1_555
C7 H3 1_555 1_555
C8 C5 1_555 1_555
H4 C8 1_555 1_555
C9 C2 1_555 1_555
H5 C9 1_555 1_555
C10 N1 1_555 1_555
H6 C10 1_555 1_555
C11 C4 1_555 1_555
H7 C11 1_555 1_555
C12 C3 1_555 1_555
Zn1_2 O4A 1_555 1_555
Zn1F N1F 1_555 1_555
S1A S1 1_555 1_555
O1A C12A 1_555 1_555
O2A N2A 1_555 1_555
O3A N2A 1_555 1_555
O4A C12A 1_555 1_555
O4A_2 Zn1 1_555 1_555
N1F C6F 1_555 1_555
N1A Zn1 1_555 1_555
N2A C2A 1_555 1_555
C1A H1A 1_555 1_555
C2A C3A 1_555 1_555
C3A C1A 1_555 1_555
C4F C4 1_555 1_555
C5A S1A 1_555 1_555
C6F H2F 1_555 1_555
C7F C4F 1_555 1_555
H3F C7F 1_555 1_555
C8A C5A 1_555 1_555
H4A C8A 1_555 1_555
C9A C2A 1_555 1_555
H5A C9A 1_555 1_555
C10F N1F 1_555 1_555
H6F C10F 1_555 1_555
C11F C4F 1_555 1_555
H7F C11F 1_555 1_555
C12A C3A 1_555 1_555
C6 C11 1_555 1_555
C7 C10 1_555 1_555
C8 C9 1_555 1_555
C1A C5A 1_555 1_555
C6F C11F 1_555 1_555
C7F C10F 1_555 1_555
C8A C9A 1_555 1_555

#END
