
#######################################################################
#
#                 Cambridge Crystallographic Data Centre
#                                CCDC 
#
#######################################################################
#
# If this CIF has been generated from an entry in the Cambridge 
# Structural Database, then it will include bibliographic, chemical, 
# crystal, experimental, refinement or atomic coordinate data resulting 
# from the CCDC's data processing and validation procedures.
#
#######################################################################

data_ANODOX
_symmetry_cell_setting           monoclinic
_symmetry_space_group_name_H-M   'P 21/c'
_symmetry_Int_Tables_number      14
_space_group_name_Hall           '-P 2ybc'
loop_
_symmetry_equiv_pos_site_id
_symmetry_equiv_pos_as_xyz
1 x,y,z
2 -x,1/2+y,1/2-z
3 -x,-y,-z
4 x,1/2-y,1/2+z
_cell_length_a                   10.061(3)
_cell_length_b                   18.655(6)
_cell_length_c                   21.168(6)
_cell_angle_alpha                90
_cell_angle_beta                 101.461(6)
_cell_angle_gamma                90
_cell_volume                     3893.76
loop_
_atom_site_label
_atom_site_type_symbol
_atom_site_fract_x
_atom_site_fract_y
_atom_site_fract_z
Zn1 Zn 0.34215(9) 0.36411(5) 0.25227(4)
N1 N 0.1969(6) 0.4396(3) 0.2878(3)
N2 N 0.1186(6) 0.3290(3) 0.2071(2)
N3 N 0.3373(5) 0.2858(3) 0.3351(3)
N4 N 0.4119(5) 0.2577(3) 0.2225(3)
N5 N 0.0997(7) 0.3633(4) 0.0426(3)
N6 N 0.3878(7) 0.8584(4) 0.0185(3)
O1 O 0.3950(4) 0.4096(2) 0.1687(2)
O2 O 0.3967(4) 0.4516(2) 0.0707(2)
O3 O 0.2076(5) 0.3299(3) 0.0579(2)
O4 O 0.0072(6) 0.3400(3) 0.0023(3)
O5 O 0.4927(4) 0.9218(2) 0.1944(2)
O6 O 0.3218(6) 0.9680(3) 0.1232(3)
O7 O 0.4741(6) 0.9006(4) 0.0331(3)
O8 O 0.3313(6) 0.8458(3) -0.0380(3)
S1 S 0.00712(16) 0.63791(10) 0.16918(9)
S2 S 0.18721(17) 0.67918(9) 0.21557(8)
C1 C 0.3409(6) 0.4372(3) 0.1170(4)
C2 C 0.1965(6) 0.4645(4) 0.1097(3)
C3 C 0.0836(7) 0.4307(4) 0.0732(3)
C4 C -0.0462(7) 0.4565(4) 0.0674(3)
H1 H -0.1194 0.4319 0.0432
C5 C -0.0652(6) 0.5191(4) 0.0979(3)
H2 H -0.1526 0.5371 0.0945
C6 C 0.0449(6) 0.5568(3) 0.1345(3)
C7 C 0.1738(6) 0.5277(4) 0.1401(3)
H3 H 0.2472 0.5514 0.1650
C8 C 0.2448(6) 0.7308(4) 0.1552(3)
C9 C 0.2442(6) 0.7043(4) 0.0945(3)
H4 H 0.2129 0.6582 0.0836
C10 C 0.2896(6) 0.7459(4) 0.0506(3)
H5 H 0.2887 0.7283 0.0094
C11 C 0.3372(6) 0.8144(4) 0.0670(3)
C12 C 0.3443(6) 0.8421(4) 0.1284(3)
C13 C 0.3914(8) 0.9178(4) 0.1488(4)
C14 C 0.2379(8) 0.4922(4) 0.3297(4)
H6 H 0.3297 0.4965 0.3477
C15 C 0.1468(11) 0.5409(4) 0.3471(4)
H7 H 0.1777 0.5787 0.3748
C16 C 0.0163(11) 0.5326(5) 0.3239(5)
H8 H -0.0448 0.5633 0.3379
C17 C -0.0347(9) 0.4785(5) 0.2784(4)
C18 C 0.0602(7) 0.4311(4) 0.2614(3)
C19 C -0.1718(10) 0.4673(6) 0.2507(5)
H9 H -0.2363 0.4969 0.2633
C20 C -0.2126(8) 0.4185(6) 0.2091(5)
H10 H -0.3034 0.4162 0.1888
C21 C -0.1158(8) 0.3662(5) 0.1934(4)
C22 C 0.0185(7) 0.3736(4) 0.2192(3)
C23 C 0.0766(8) 0.2741(4) 0.1687(3)
H11 H 0.1408 0.2416 0.1600
C24 C -0.0605(10) 0.2624(5) 0.1403(3)
H12 H -0.0858 0.2223 0.1147
C25 C -0.1534(8) 0.3094(6) 0.1505(4)
H13 H -0.2432 0.3044 0.1292
C26 C 0.3029(7) 0.3005(4) 0.3906(4)
H14 H 0.2742 0.3465 0.3980
C27 C 0.3086(7) 0.2484(6) 0.4387(3)
H15 H 0.2833 0.2600 0.4774
C28 C 0.3507(8) 0.1812(5) 0.4291(5)
H16 H 0.3564 0.1471 0.4615
C29 C 0.3857(7) 0.1630(4) 0.3707(5)
C30 C 0.3769(6) 0.2183(4) 0.3251(3)
C31 C 0.4261(8) 0.0933(5) 0.3565(5)
H17 H 0.4326 0.0578 0.3878
C32 C 0.4544(7) 0.0772(4) 0.3012(6)
H18 H 0.4780 0.0304 0.2933
C33 C 0.4500(6) 0.1317(5) 0.2505(5)
C34 C 0.4138(6) 0.2029(4) 0.2649(4)
C35 C 0.4439(7) 0.2418(4) 0.1661(4)
H19 H 0.4476 0.2790 0.1373
C36 C 0.4720(8) 0.1728(5) 0.1474(5)
H20 H 0.4885 0.1643 0.1064
C37 C 0.4750(7) 0.1196(5) 0.1889(6)
H21 H 0.4940 0.0734 0.1768
C38 C 0.2967(6) 0.7991(4) 0.1717(3)
H22 H 0.2991 0.8161 0.2132
Zn1A Zn 0.65785(9) 0.86411(5) 0.24773(4)
O5A O 0.5073(4) 0.4218(2) 0.3056(2)
O9 O 0.023(2) 0.3729(15) 0.4914(17)
H23 H -0.0013 0.3667 0.4525
C39 C 0.1668(12) 0.4100(8) 0.5679(8)
H24 H 0.2508 0.4327 0.5871
H25 H 0.1676 0.3612 0.5822
H26 H 0.0929 0.4351 0.5805
C40 C 0.1520(18) 0.4116(12) 0.5045(10)
H27 H 0.2235 0.3860 0.4893
H28 H 0.1441 0.4600 0.4873
O10 O 0.6375(4) 0.4273(3) 0.0225(2)
H29 H 0.6289 0.4599 -0.0025
H30 H 0.5699 0.4339 0.0363
loop_
_geom_bond_atom_site_label_1
_geom_bond_atom_site_label_2
_geom_bond_site_symmetry_1
_geom_bond_site_symmetry_2
Zn1 N1 1_555 1_555
N1 C14 1_555 1_555
N2 Zn1 1_555 1_555
N3 Zn1 1_555 1_555
N4 Zn1 1_555 1_555
N5 O3 1_555 1_555
N6 O7 1_555 1_555
O1 Zn1 1_555 1_555
O2 C1 1_555 1_555
O4 N5 1_555 1_555
O5 C13 1_555 1_555
O6 C13 1_555 1_555
O8 N6 1_555 1_555
S1 S2 1_555 1_555
S2 C8 1_555 1_555
C1 O1 1_555 1_555
C2 C1 1_555 1_555
C3 N5 1_555 1_555
C4 C3 1_555 1_555
H1 C4 1_555 1_555
C5 C4 1_555 1_555
H2 C5 1_555 1_555
C6 S1 1_555 1_555
C7 C2 1_555 1_555
H3 C7 1_555 1_555
C8 C9 1_555 1_555
C9 H4 1_555 1_555
C10 C9 1_555 1_555
H5 C10 1_555 1_555
C11 N6 1_555 1_555
C12 C11 1_555 1_555
C13 C12 1_555 1_555
C14 H6 1_555 1_555
C15 C14 1_555 1_555
H7 C15 1_555 1_555
C16 C15 1_555 1_555
H8 C16 1_555 1_555
C17 C16 1_555 1_555
C18 N1 1_555 1_555
C19 C17 1_555 1_555
H9 C19 1_555 1_555
C20 C19 1_555 1_555
H10 C20 1_555 1_555
C21 C20 1_555 1_555
C22 N2 1_555 1_555
C23 N2 1_555 1_555
H11 C23 1_555 1_555
C24 C23 1_555 1_555
H12 C24 1_555 1_555
C25 C21 1_555 1_555
H13 C25 1_555 1_555
C26 N3 1_555 1_555
H14 C26 1_555 1_555
C27 C26 1_555 1_555
H15 C27 1_555 1_555
C28 C27 1_555 1_555
H16 C28 1_555 1_555
C29 C28 1_555 1_555
C30 N3 1_555 1_555
C31 C29 1_555 1_555
H17 C31 1_555 1_555
C32 C31 1_555 1_555
H18 C32 1_555 1_555
C33 C32 1_555 1_555
C34 N4 1_555 1_555
C35 N4 1_555 1_555
H19 C35 1_555 1_555
C36 C35 1_555 1_555
H20 C36 1_555 1_555
C37 C33 1_555 1_555
H21 C37 1_555 1_555
C38 C8 1_555 1_555
H22 C38 1_555 1_555
O9 H23 1_555 1_555
C39 H24 1_555 1_555
H25 C39 1_555 1_555
H26 C39 1_555 1_555
C40 O9 1_555 1_555
H27 C40 1_555 1_555
H28 C40 1_555 1_555
O10 H29 1_555 1_555
H30 O10 1_555 1_555
Zn1A O5 1_555 1_555
O5A Zn1 1_555 1_555
C2 C3 1_555 1_555
C5 C6 1_555 1_555
C6 C7 1_555 1_555
C10 C11 1_555 1_555
C12 C38 1_555 1_555
C17 C18 1_555 1_555
C18 C22 1_555 1_555
C21 C22 1_555 1_555
C24 C25 1_555 1_555
C29 C30 1_555 1_555
C30 C34 1_555 1_555
C33 C34 1_555 1_555
C36 C37 1_555 1_555
C39 C40 1_555 1_555

#END
