
#######################################################################
#
#                 Cambridge Crystallographic Data Centre
#                                CCDC 
#
#######################################################################
#
# If this CIF has been generated from an entry in the Cambridge 
# Structural Database, then it will include bibliographic, chemical, 
# crystal, experimental, refinement or atomic coordinate data resulting 
# from the CCDC's data processing and validation procedures.
#
#######################################################################

data_ANOPID
_symmetry_cell_setting           monoclinic
_symmetry_space_group_name_H-M   'P 21/c'
_symmetry_Int_Tables_number      14
_space_group_name_Hall           '-P 2ybc'
loop_
_symmetry_equiv_pos_site_id
_symmetry_equiv_pos_as_xyz
1 x,y,z
2 -x,1/2+y,1/2-z
3 -x,-y,-z
4 x,1/2-y,1/2+z
_cell_length_a                   17.0609(10)
_cell_length_b                   8.1048(10)
_cell_length_c                   9.1311(10)
_cell_angle_alpha                90
_cell_angle_beta                 101.230(10)
_cell_angle_gamma                90
_cell_volume                     1238.43
loop_
_atom_site_label
_atom_site_type_symbol
_atom_site_fract_x
_atom_site_fract_y
_atom_site_fract_z
Mg1 Mg 0.36331(6) -0.15217(13) -0.00903(12)
O1 O 0.38563(14) -0.3936(3) 0.0702(2)
O2 O 0.43726(12) -0.0662(2) 0.1916(2)
O3 O 0.47334(12) -0.1900(3) -0.0852(2)
O4 O 0.36062(15) 0.0820(3) -0.0785(3)
O5 O 0.40127(14) 0.3323(3) -0.1151(2)
O6 O 0.26107(13) -0.3612(3) -0.4234(2)
O7 O 0.30714(13) -0.2301(3) -0.2124(3)
C1 C 0.3521(2) 0.2152(4) -0.1477(4)
C2 C 0.2838(2) 0.2382(4) -0.2740(4)
C3 C 0.2226(2) 0.1415(5) -0.3020(5)
C4 C 0.1531(3) 0.1605(7) -0.4283(6)
C5 C 0.25264(19) -0.3062(4) -0.2989(3)
C6 C 0.1753(2) -0.3234(5) -0.2515(4)
C7 C 0.1117(2) -0.3858(5) -0.3346(5)
C8 C 0.0327(3) -0.4047(7) -0.2903(6)
H1 H 0.3640 -0.4077 0.1402
H2 H 0.3831 -0.4791 0.0222
H3 H 0.4542 -0.1416 0.2528
H4 H 0.4213 0.0027 0.2444
H5 H 0.4924 -0.1104 -0.1198
H6 H 0.5083 -0.2261 -0.0180
H7 H 0.2860 0.3275 -0.3379
H8 H 0.2218 0.0530 -0.2373
H9 H 0.1629 0.2503 -0.4899
H10 H 0.1460 0.0609 -0.4837
H11 H 0.1065 0.1831 -0.3860
H12 H 0.1724 -0.2884 -0.1559
H13 H 0.1164 -0.4205 -0.4299
H14 H 0.0350 -0.3641 -0.1898
H15 H 0.0181 -0.5193 -0.2948
H16 H -0.0069 -0.3451 -0.3566
Mg1C Mg 0.36331(6) -0.34783(13) -0.50903(12)
O6C O 0.26107(13) -0.1388(3) 0.0766(2)
loop_
_geom_bond_atom_site_label_1
_geom_bond_atom_site_label_2
_geom_bond_site_symmetry_1
_geom_bond_site_symmetry_2
Mg1 O1 1_555 1_555
O1 H1 1_555 1_555
O2 Mg1 1_555 1_555
O3 Mg1 1_555 1_555
O4 Mg1 1_555 1_555
O5 C1 1_555 1_555
O6 C5 1_555 1_555
O7 Mg1 1_555 1_555
C1 O4 1_555 1_555
C2 C1 1_555 1_555
C3 C2 1_555 1_555
C4 C3 1_555 1_555
C5 O7 1_555 1_555
C6 C5 1_555 1_555
C7 C6 1_555 1_555
C8 C7 1_555 1_555
H2 O1 1_555 1_555
H3 O2 1_555 1_555
H4 O2 1_555 1_555
H5 O3 1_555 1_555
H6 O3 1_555 1_555
H7 C2 1_555 1_555
H8 C3 1_555 1_555
H9 C4 1_555 1_555
H10 C4 1_555 1_555
H11 C4 1_555 1_555
H12 C6 1_555 1_555
H13 C7 1_555 1_555
H14 C8 1_555 1_555
H15 C8 1_555 1_555
H16 C8 1_555 1_555
Mg1C O6 1_555 1_555
O6C Mg1 1_555 1_555

#END
