
#######################################################################
#
#                 Cambridge Crystallographic Data Centre
#                                CCDC 
#
#######################################################################
#
# If this CIF has been generated from an entry in the Cambridge 
# Structural Database, then it will include bibliographic, chemical, 
# crystal, experimental, refinement or atomic coordinate data resulting 
# from the CCDC's data processing and validation procedures.
#
#######################################################################

data_ANOZIN
_symmetry_cell_setting           monoclinic
_symmetry_space_group_name_H-M   'P 21/n'
_symmetry_Int_Tables_number      14
_space_group_name_Hall           '-P 2yn'
loop_
_symmetry_equiv_pos_site_id
_symmetry_equiv_pos_as_xyz
1 x,y,z
2 1/2-x,1/2+y,1/2-z
3 -x,-y,-z
4 1/2+x,1/2-y,1/2+z
_cell_length_a                   9.7980(11)
_cell_length_b                   23.755(3)
_cell_length_c                   10.4178(12)
_cell_angle_alpha                90
_cell_angle_beta                 115.8880(10)
_cell_angle_gamma                90
_cell_volume                     2181.43
loop_
_atom_site_label
_atom_site_type_symbol
_atom_site_fract_x
_atom_site_fract_y
_atom_site_fract_z
Cu1 Cu 0.35693(5) 0.692414(19) 1.11373(5)
Cu2 Cu 0.32708(5) 0.554241(18) 0.91396(4)
C1 C 0.6084(4) 0.62740(16) 1.1381(4)
C2 C 0.6292(4) 0.61695(17) 1.2884(4)
H1 H 0.6829 0.5822 1.3333
C3 C 0.6485(5) 0.66451(19) 1.3861(4)
H2 H 0.7132 0.6573 1.4874
C4 C 0.6440(4) 0.72435(17) 1.3381(4)
C5 C 0.2269(5) 0.77606(16) 1.2504(4)
H3 H 0.3181 0.7954 1.2799
C6 C 0.1191(5) 0.79610(17) 1.2911(5)
H4 H 0.1379 0.8280 1.3479
C7 C -0.0150(5) 0.76806(18) 1.2462(4)
H5 H -0.0884 0.7805 1.2736
C8 C -0.0420(4) 0.72124(17) 1.1601(4)
H6 H -0.1344 0.7025 1.1268
C9 C 0.0705(4) 0.70266(15) 1.1241(4)
C10 C 0.0628(4) 0.65123(15) 1.0434(4)
C11 C -0.0439(4) 0.60946(16) 0.9811(4)
H7 H -0.1401 0.6067 0.9778
C12 C 0.0250(4) 0.57276(16) 0.9249(4)
H8 H -0.0191 0.5400 0.8754
C13 C 0.1557(5) 0.63806(16) 0.6747(4)
H9 H 0.0978 0.6462 0.7232
C14 C 0.1237(5) 0.6658(2) 0.5492(5)
H10 H 0.0465 0.6925 0.5133
C15 C 0.2103(6) 0.6529(2) 0.4779(5)
H11 H 0.1911 0.6710 0.3925
C16 C 0.3242(5) 0.61371(19) 0.5321(4)
H12 H 0.3823 0.6049 0.4843
C17 C 0.3508(4) 0.58745(16) 0.6601(4)
C18 C 0.4696(4) 0.54645(15) 0.7305(4)
C19 C 0.5801(5) 0.52333(18) 0.6988(4)
H13 H 0.5988 0.5309 0.6203
C20 C 0.6562(5) 0.48688(17) 0.8078(4)
H14 H 0.7374 0.4646 0.8152
C21 C 0.0036(10) 0.4759(4) 0.6621(9)
H15 H -0.0535 0.4493 0.6885
H16 H 0.0164 0.4617 0.5818
H17 H -0.0498 0.5111 0.6371
N1 N 0.1881(3) 0.63937(12) 1.0252(3)
N2 N 0.2049(3) 0.73006(12) 1.1705(3)
N3 N 0.1654(3) 0.59113(12) 0.9518(3)
N4 N 0.2665(3) 0.59983(12) 0.7303(3)
N5 N 0.4809(3) 0.52464(12) 0.8549(3)
N6 N 0.5979(3) 0.48737(12) 0.9041(3)
O1 O 0.5072(3) 0.63308(12) 1.3233(3)
O2 O 0.4898(3) 0.65146(11) 1.0502(3)
O3 O 0.7130(3) 0.61095(12) 1.1114(3)
O4 O 0.5231(3) 0.74244(11) 1.2344(3)
O5 O 0.7608(3) 0.75129(13) 1.4026(3)
O6 O 0.1398(4) 0.48363(14) 0.7721(4)
H18 H 0.1807 0.4535 0.8067
Cu1C Cu 0.85693(5) 0.807586(19) 1.61373(5)
Cu2B Cu 0.67292(5) 0.445759(18) 1.08604(4)
N6B N 0.4021(3) 0.51263(12) 1.0959(3)
O5C O 0.2608(3) 0.74871(13) 0.9026(3)
loop_
_geom_bond_atom_site_label_1
_geom_bond_atom_site_label_2
_geom_bond_site_symmetry_1
_geom_bond_site_symmetry_2
Cu1 N1 1_555 1_555
Cu2 N3 1_555 1_555
C1 C2 1_555 1_555
C2 H1 1_555 1_555
C3 C2 1_555 1_555
H2 C3 1_555 1_555
C4 C3 1_555 1_555
C5 H3 1_555 1_555
C6 C5 1_555 1_555
H4 C6 1_555 1_555
C7 C6 1_555 1_555
H5 C7 1_555 1_555
C8 C7 1_555 1_555
H6 C8 1_555 1_555
C9 C8 1_555 1_555
C10 C9 1_555 1_555
C11 C10 1_555 1_555
H7 C11 1_555 1_555
C12 C11 1_555 1_555
H8 C12 1_555 1_555
C13 H9 1_555 1_555
C14 C13 1_555 1_555
H10 C14 1_555 1_555
C15 C14 1_555 1_555
H11 C15 1_555 1_555
C16 C15 1_555 1_555
H12 C16 1_555 1_555
C17 C16 1_555 1_555
C18 C17 1_555 1_555
C19 C18 1_555 1_555
H13 C19 1_555 1_555
C20 C19 1_555 1_555
H14 C20 1_555 1_555
C21 H15 1_555 1_555
H16 C21 1_555 1_555
H17 C21 1_555 1_555
N1 C10 1_555 1_555
N2 Cu1 1_555 1_555
N3 C12 1_555 1_555
N4 Cu2 1_555 1_555
N5 Cu2 1_555 1_555
N6 C20 1_555 1_555
O1 Cu1 1_555 1_555
O2 Cu1 1_555 1_555
O3 C1 1_555 1_555
O4 Cu1 1_555 1_555
O5 C4 1_555 1_555
O6 Cu2 1_555 1_555
H18 O6 1_555 1_555
Cu1C O5 1_555 1_555
Cu2B N6 1_555 1_555
N6B Cu2 1_555 1_555
O5C Cu1 1_555 1_555
C1 O2 1_555 1_555
C2 O1 1_555 1_555
C3 O1 1_555 1_555
C4 O4 1_555 1_555
C5 N2 1_555 1_555
C9 N2 1_555 1_555
C13 N4 1_555 1_555
C17 N4 1_555 1_555
C18 N5 1_555 1_555
C21 O6 1_555 1_555
N1 N3 1_555 1_555
N5 N6 1_555 1_555

#END
