
#######################################################################
#
#                 Cambridge Crystallographic Data Centre
#                                CCDC 
#
#######################################################################
#
# If this CIF has been generated from an entry in the Cambridge 
# Structural Database, then it will include bibliographic, chemical, 
# crystal, experimental, refinement or atomic coordinate data resulting 
# from the CCDC's data processing and validation procedures.
#
#######################################################################

data_AOXNDH
_symmetry_cell_setting           monoclinic
_symmetry_space_group_name_H-M   'P 21/c'
_symmetry_Int_Tables_number      14
_space_group_name_Hall           '-P 2ybc'
loop_
_symmetry_equiv_pos_site_id
_symmetry_equiv_pos_as_xyz
1 x,y,z
2 -x,1/2+y,1/2-z
3 -x,-y,-z
4 x,1/2-y,1/2+z
_cell_length_a                   11.90
_cell_length_b                   9.88
_cell_length_c                   10.40
_cell_angle_alpha                90
_cell_angle_beta                 119.0
_cell_angle_gamma                90
_cell_volume                     1069.44
loop_
_atom_site_label
_atom_site_type_symbol
_atom_site_fract_x
_atom_site_fract_y
_atom_site_fract_z
C1 C 0.50100 0.05000 0.43600
C2 C 0.95700 0.08000 0.48600
C3 C 1.05400 0.02200 0.98300
O1 O 0.60600 0.08000 0.44500
O2 O 0.39300 0.10000 0.35700
O3 O 0.86600 0.09900 0.49100
O4 O 0.99100 -0.14500 0.60000
O5 O 1.01700 0.02200 0.84500
O6 O 0.84000 -0.06000 0.91300
O7 O 0.78100 0.19900 0.71800
O8 O 0.70400 -0.19000 0.40800
O9 O 0.83000 -0.28800 0.71000
Nd1 Nd 0.81000 -0.04600 0.64200
C1B C 0.49900 -0.05000 0.56400
C2B C 1.04300 -0.08000 0.51400
O4B O 1.00900 0.14500 0.40000
C3B C 0.94600 -0.02200 1.01700
O6B O 1.16000 0.06000 1.08700
Nd1B Nd 0.19000 0.04600 0.35800
O2B O 0.60700 -0.10000 0.64300
O3B O 1.13400 -0.09900 0.50900
O5B O 0.98300 -0.02200 1.15500
O1B O 0.39400 -0.08000 0.55500
Nd1B_2 Nd 1.19000 0.04600 0.35800
Nd1B_3 Nd 1.19000 0.04600 1.35800
O1B_2 O 1.39400 -0.08000 1.55500
O2_2 O 1.39300 0.10000 1.35700
O3B_2 O 1.13400 -0.09900 1.50900
O4B_2 O 1.00900 0.14500 1.40000
O7B O 1.21900 -0.19900 1.28200
O8B O 1.29600 0.19000 1.59200
O9B O 1.17000 0.28800 1.29000
loop_
_geom_bond_atom_site_label_1
_geom_bond_atom_site_label_2
_geom_bond_site_symmetry_1
_geom_bond_site_symmetry_2
C1 O1 1_555 1_555
C2 O3 1_555 1_555
C3 O5 1_555 1_555
O1 Nd1 1_555 1_555
O2 C1 1_555 1_555
O3 Nd1 1_555 1_555
O4 Nd1 1_555 1_555
O5 Nd1 1_555 1_555
O6 Nd1 1_555 1_555
O7 Nd1 1_555 1_555
O8 Nd1 1_555 1_555
O9 Nd1 1_555 1_555
Nd1 O2B 1_555 1_555
C1B C1 1_555 1_555
C2B C2 1_555 1_555
O4B C2 1_555 1_555
C3B C3 1_555 1_555
O6B C3 1_555 1_555
Nd1B O2 1_555 1_555
O2B C1B 1_555 1_555
O3B C2B 1_555 1_555
O5B C3B 1_555 1_555
O1B C1B 1_555 1_555
Nd1B_2 O4B 1_555 1_555
Nd1B_3 O6B 1_555 1_555
O1B_2 Nd1B_3 1_555 1_555
O2_2 Nd1B_3 1_555 1_555
O3B_2 Nd1B_3 1_555 1_555
O4B_2 Nd1B_3 1_555 1_555
O7B Nd1B_3 1_555 1_555
O8B Nd1B_3 1_555 1_555
O9B Nd1B_3 1_555 1_555
O4 C2B 1_555 1_555
O6 C3B 1_555 1_555
Nd1B O1B 1_555 1_555
O3B Nd1B_2 1_555 1_555
O5B Nd1B_3 1_555 1_555

#END
