
#######################################################################
#
#                 Cambridge Crystallographic Data Centre
#                                CCDC 
#
#######################################################################
#
# If this CIF has been generated from an entry in the Cambridge 
# Structural Database, then it will include bibliographic, chemical, 
# crystal, experimental, refinement or atomic coordinate data resulting 
# from the CCDC's data processing and validation procedures.
#
#######################################################################

data_AOXNDH02
_symmetry_cell_setting           monoclinic
_symmetry_space_group_name_H-M   'P 21/c'
_symmetry_Int_Tables_number      14
_space_group_name_Hall           '-P 2ybc'
loop_
_symmetry_equiv_pos_site_id
_symmetry_equiv_pos_as_xyz
1 x,y,z
2 -x,1/2+y,1/2-z
3 -x,-y,-z
4 x,1/2-y,1/2+z
_cell_length_a                   11.012(2)
_cell_length_b                   9.6077(19)
_cell_length_c                   10.042(2)
_cell_angle_alpha                90
_cell_angle_beta                 114.18(3)
_cell_angle_gamma                90
_cell_volume                     969.228
loop_
_atom_site_label
_atom_site_type_symbol
_atom_site_fract_x
_atom_site_fract_y
_atom_site_fract_z
Nd1 Nd 0.690618(19) 0.95700(2) 0.33121(2)
C1 C 0.4678(4) 0.9287(5) -0.0019(5)
C2 C 0.4450(5) 1.0260(5) 0.4279(5)
C3 C 0.9997(4) 0.9480(5) 0.5577(5)
O1 O 0.5122(3) 0.8574(3) 0.1116(3)
O2 O 0.4728(3) 1.0260(4) 0.3182(4)
O3 O 0.6617(3) 0.9374(4) 0.5678(4)
O4 O 0.6662(4) 0.7158(4) 0.3825(4)
O5 O 0.8906(3) 0.8927(4) 0.5359(4)
O6 O 0.7961(4) 0.8175(4) 0.2016(4)
O7 O 0.8915(3) 1.0736(4) 0.3362(4)
O8 O 0.6270(3) 1.1030(4) 0.1206(4)
O9 O 0.7099(4) 1.1895(4) 0.4274(5)
Nd1B Nd 0.309382(19) 1.04300(2) -0.33121(2)
Nd1B_2 Nd 0.309382(19) 1.04300(2) 0.66879(2)
Nd1B_3 Nd 1.309382(19) 1.04300(2) 0.66879(2)
C1B C 0.5322(4) 1.0713(5) 0.0019(5)
C2B C 0.5550(5) 0.9740(5) 0.5721(5)
C3B C 1.0003(4) 1.0520(5) 0.4423(5)
O1B O 0.4878(3) 1.1426(3) -0.1116(3)
O2B O 0.5272(3) 0.9740(4) 0.6818(4)
O2B_2 O 0.5272(3) 0.9740(4) -0.3182(4)
O3B O 0.3383(3) 1.0626(4) 0.4322(4)
O3B_2 O 0.3383(3) 1.0626(4) -0.5678(4)
O4B O 0.3338(4) 1.2842(4) -0.3825(4)
O5B O 1.1094(3) 1.1073(4) 0.4641(4)
O5B_2 O 0.1094(3) 1.1073(4) -0.5359(4)
O6B O 0.2039(4) 1.1825(4) -0.2016(4)
O7B O 1.1085(3) 0.9264(4) 0.6638(4)
O7B_2 O 0.1085(3) 0.9264(4) -0.3362(4)
O8B O 0.3730(3) 0.8970(4) -0.1206(4)
O9B O 0.2901(4) 0.8105(4) -0.4274(5)
O10 O 1.0703(8) 0.7909(18) 0.3093(16)
O11 O 0.1361(18) 0.541(3) 0.604(4)
loop_
_geom_bond_atom_site_label_1
_geom_bond_atom_site_label_2
_geom_bond_site_symmetry_1
_geom_bond_site_symmetry_2
Nd1 O1 1_555 1_555
C1 O1 1_555 1_555
C2 O2 1_555 1_555
C3 O5 1_555 1_555
O2 Nd1 1_555 1_555
O3 Nd1 1_555 1_555
O4 Nd1 1_555 1_555
O5 Nd1 1_555 1_555
O6 Nd1 1_555 1_555
O7 Nd1 1_555 1_555
O8 Nd1 1_555 1_555
O9 Nd1 1_555 1_555
Nd1B O1B 1_555 1_555
Nd1B_2 O2B 1_555 1_555
Nd1B_3 O5B 1_555 1_555
C1B C1 1_555 1_555
C2B C2 1_555 1_555
C3B C3 1_555 1_555
O1B C1B 1_555 1_555
O2B C2B 1_555 1_555
O2B_2 Nd1B 1_555 1_555
O3B C2 1_555 1_555
O3B_2 Nd1B 1_555 1_555
O4B Nd1B 1_555 1_555
O5B C3B 1_555 1_555
O5B_2 Nd1B 1_555 1_555
O6B Nd1B 1_555 1_555
O7B C3 1_555 1_555
O7B_2 Nd1B 1_555 1_555
O8B C1 1_555 1_555
O9B Nd1B 1_555 1_555
O3 C2B 1_555 1_555
O7 C3B 1_555 1_555
O8 C1B 1_555 1_555
Nd1B O8B 1_555 1_555
Nd1B_2 O3B 1_555 1_555
Nd1B_3 O7B 1_555 1_555

#END
