
#######################################################################
#
#                 Cambridge Crystallographic Data Centre
#                                CCDC 
#
#######################################################################
#
# If this CIF has been generated from an entry in the Cambridge 
# Structural Database, then it will include bibliographic, chemical, 
# crystal, experimental, refinement or atomic coordinate data resulting 
# from the CCDC's data processing and validation procedures.
#
#######################################################################

data_AOXSCH
_symmetry_cell_setting           triclinic
_symmetry_space_group_name_H-M   'A -1'
_symmetry_Int_Tables_number      2
_space_group_name_Hall           '-A 1'
loop_
_symmetry_equiv_pos_site_id
_symmetry_equiv_pos_as_xyz
1 x,y,z
2 x,1/2+y,1/2+z
3 -x,-y,-z
4 -x,1/2-y,1/2-z
_cell_length_a                   9.317(2)
_cell_length_b                   8.468(2)
_cell_length_c                   9.489(2)
_cell_angle_alpha                93.04(1)
_cell_angle_beta                 106.50(1)
_cell_angle_gamma                86.27(2)
_cell_volume                     715.83
loop_
_atom_site_label
_atom_site_type_symbol
_atom_site_fract_x
_atom_site_fract_y
_atom_site_fract_z
C1 C 0.02820 -0.02440 -0.06740
C2 C 0.48690 0.08930 -0.00860
C3 C 0.56900 0.00140 0.47390
O1 O 0.16670 -0.04180 -0.04140
O2 O -0.06900 -0.03650 -0.19040
O3 O 0.39970 0.15310 0.06270
O4 O 0.45120 -0.15600 0.08600
O5 O 0.54510 0.00930 0.33440
O6 O 0.30760 0.00230 0.43080
O7 O 0.26820 0.26250 0.24120
O8 O 0.25160 -0.23990 0.21610
Sc1 Sc 0.30640 0.00480 0.19250
C1B C -0.02820 0.02440 0.06740
Sc1B Sc -0.30640 -0.00480 -0.19250
O2B O 0.06900 0.03650 0.19040
C2B C 0.51310 -0.08930 0.00860
O4B O 0.54880 0.15600 -0.08600
C3B C 0.43100 -0.00140 0.52610
O6B O 0.69240 -0.00230 0.56920
O1B O -0.16670 0.04180 0.04140
O3B O -0.39970 -0.15310 -0.06270
O4B_2 O -0.45120 0.15600 -0.08600
O5B O -0.54510 -0.00930 -0.33440
O6B_2 O -0.30760 -0.00230 -0.43080
O7B O -0.26820 -0.26250 -0.24120
O8B O -0.25160 0.23990 -0.21610
O3B_2 O 0.60030 -0.15310 -0.06270
Sc1B_2 Sc 0.69360 -0.00480 -0.19250
O5B_2 O 0.45490 -0.00930 0.66560
Sc1B_3 Sc 0.69360 -0.00480 0.80750
O9 O 0.02280 -0.15740 0.43680
loop_
_geom_bond_atom_site_label_1
_geom_bond_atom_site_label_2
_geom_bond_site_symmetry_1
_geom_bond_site_symmetry_2
C1 O1 1_555 1_555
C2 O3 1_555 1_555
C3 O5 1_555 1_555
O1 Sc1 1_555 1_555
O2 C1 1_555 1_555
O3 Sc1 1_555 1_555
O4 Sc1 1_555 1_555
O5 Sc1 1_555 1_555
O6 Sc1 1_555 1_555
O7 Sc1 1_555 1_555
O8 Sc1 1_555 1_555
Sc1 O2B 1_555 1_555
C1B C1 1_555 1_555
Sc1B O2 1_555 1_555
O2B C1B 1_555 1_555
C2B C2 1_555 1_555
O4B C2 1_555 1_555
C3B C3 1_555 1_555
O6B C3 1_555 1_555
O1B C1B 1_555 1_555
O3B Sc1B 1_555 1_555
O4B_2 Sc1B 1_555 1_555
O5B Sc1B 1_555 1_555
O6B_2 Sc1B 1_555 1_555
O7B Sc1B 1_555 1_555
O8B Sc1B 1_555 1_555
O3B_2 C2B 1_555 1_555
Sc1B_2 O4B 1_555 1_555
O5B_2 C3B 1_555 1_555
Sc1B_3 O6B 1_555 1_555
O4 C2B 1_555 1_555
O6 C3B 1_555 1_555
Sc1B O1B 1_555 1_555
O3B_2 Sc1B_2 1_555 1_555
O5B_2 Sc1B_3 1_555 1_555

#END
