
#######################################################################
#
#                 Cambridge Crystallographic Data Centre
#                                CCDC 
#
#######################################################################
#
# If this CIF has been generated from an entry in the Cambridge 
# Structural Database, then it will include bibliographic, chemical, 
# crystal, experimental, refinement or atomic coordinate data resulting 
# from the CCDC's data processing and validation procedures.
#
#######################################################################

data_AOXYBH
_symmetry_cell_setting           triclinic
_symmetry_space_group_name_H-M   'A -1'
_symmetry_Int_Tables_number      2
_space_group_name_Hall           '-A 1'
loop_
_symmetry_equiv_pos_site_id
_symmetry_equiv_pos_as_xyz
1 x,y,z
2 x,1/2+y,1/2+z
3 -x,-y,-z
4 -x,1/2-y,1/2-z
_cell_length_a                   9.611(2)
_cell_length_b                   8.457(2)
_cell_length_c                   9.778(2)
_cell_angle_alpha                93.39(1)
_cell_angle_beta                 106.24(1)
_cell_angle_gamma                85.29(2)
_cell_volume                     759.926
loop_
_atom_site_label
_atom_site_type_symbol
_atom_site_fract_x
_atom_site_fract_y
_atom_site_fract_z
C1 C 0.03150 -0.01070 -0.06740
C2 C 0.48670 0.08390 -0.00500
C3 C 0.56620 0.00360 0.47580
O1 O 0.17060 -0.03070 -0.04300
O2 O -0.06380 -0.03030 -0.18650
O3 O 0.41090 0.15230 0.06620
O4 O 0.45610 -0.15690 0.08330
O5 O 0.55170 0.01060 0.33430
O6 O 0.31100 0.00710 0.44240
O7 O 0.26310 0.27650 0.24650
O8 O 0.24290 -0.25250 0.21000
Yb1 Yb 0.30720 0.00430 0.19450
C1B C -0.03150 0.01070 0.06740
Yb1B Yb -0.30720 -0.00430 -0.19450
O2B O 0.06380 0.03030 0.18650
C2B C 0.51330 -0.08390 0.00500
O4B O 0.54390 0.15690 -0.08330
C3B C 0.43380 -0.00360 0.52420
O6B O 0.68900 -0.00710 0.55760
O1B O -0.17060 0.03070 0.04300
O3B O -0.41090 -0.15230 -0.06620
O4B_2 O -0.45610 0.15690 -0.08330
O5B O -0.55170 -0.01060 -0.33430
O6B_2 O -0.31100 -0.00710 -0.44240
O7B O -0.26310 -0.27650 -0.24650
O8B O -0.24290 0.25250 -0.21000
O3B_2 O 0.58910 -0.15230 -0.06620
Yb1B_2 Yb 0.69280 -0.00430 -0.19450
O5B_2 O 0.44830 -0.01060 0.66570
Yb1B_3 Yb 0.69280 -0.00430 0.80550
O9 O 0.02510 -0.15200 0.43120
loop_
_geom_bond_atom_site_label_1
_geom_bond_atom_site_label_2
_geom_bond_site_symmetry_1
_geom_bond_site_symmetry_2
C1 O1 1_555 1_555
C2 O3 1_555 1_555
C3 O5 1_555 1_555
O1 Yb1 1_555 1_555
O2 C1 1_555 1_555
O3 Yb1 1_555 1_555
O4 Yb1 1_555 1_555
O5 Yb1 1_555 1_555
O6 Yb1 1_555 1_555
O7 Yb1 1_555 1_555
O8 Yb1 1_555 1_555
Yb1 O2B 1_555 1_555
C1B C1 1_555 1_555
Yb1B O2 1_555 1_555
O2B C1B 1_555 1_555
C2B C2 1_555 1_555
O4B C2 1_555 1_555
C3B C3 1_555 1_555
O6B C3 1_555 1_555
O1B C1B 1_555 1_555
O3B Yb1B 1_555 1_555
O4B_2 Yb1B 1_555 1_555
O5B Yb1B 1_555 1_555
O6B_2 Yb1B 1_555 1_555
O7B Yb1B 1_555 1_555
O8B Yb1B 1_555 1_555
O3B_2 C2B 1_555 1_555
Yb1B_2 O4B 1_555 1_555
O5B_2 C3B 1_555 1_555
Yb1B_3 O6B 1_555 1_555
O4 C2B 1_555 1_555
O6 C3B 1_555 1_555
Yb1B O1B 1_555 1_555
O3B_2 Yb1B_2 1_555 1_555
O5B_2 Yb1B_3 1_555 1_555

#END
