
#######################################################################
#
#                 Cambridge Crystallographic Data Centre
#                                CCDC 
#
#######################################################################
#
# If this CIF has been generated from an entry in the Cambridge 
# Structural Database, then it will include bibliographic, chemical, 
# crystal, experimental, refinement or atomic coordinate data resulting 
# from the CCDC's data processing and validation procedures.
#
#######################################################################

data_APAXOF
_symmetry_cell_setting           monoclinic
_symmetry_space_group_name_H-M   'P 21/n'
_symmetry_Int_Tables_number      14
_space_group_name_Hall           '-P 2yn'
loop_
_symmetry_equiv_pos_site_id
_symmetry_equiv_pos_as_xyz
1 x,y,z
2 1/2-x,1/2+y,1/2-z
3 -x,-y,-z
4 1/2+x,1/2-y,1/2+z
_cell_length_a                   11.5530(17)
_cell_length_b                   10.5268(16)
_cell_length_c                   11.9871(18)
_cell_angle_alpha                90
_cell_angle_beta                 110.245(2)
_cell_angle_gamma                90
_cell_volume                     1367.76
loop_
_atom_site_label
_atom_site_type_symbol
_atom_site_fract_x
_atom_site_fract_y
_atom_site_fract_z
Cd1 Cd 0.17855(3) 0.97212(3) 1.06258(3)
N1 N 0.2117(4) 0.8198(4) 1.2096(4)
C1 C 0.2997(5) 0.7423(5) 1.2780(5)
H1 H 0.3839 0.7495 1.2849
O1 O -0.1074(3) 0.8088(4) 1.1842(4)
N2 N 0.1645(4) 0.8349(4) 0.9172(4)
O2 O -0.0138(3) 0.9246(3) 1.0859(3)
N3 N 0.1260(4) 0.7605(4) 0.7373(4)
C2 C 0.1314(6) 0.6584(6) 0.8090(6)
H2 H 0.1215 0.5717 0.7857
C3 C 0.0476(5) 0.8810(6) 0.5506(5)
C4 C 0.0985(5) 0.7564(6) 0.6079(5)
H3 H 0.0379 0.6881 0.5728
H4 H 0.1749 0.7363 0.5917
C5 C 0.1476(5) 0.8650(5) 0.8061(5)
H5 H 0.1503 0.9491 0.7783
C6 C 0.1059(5) 0.7787(5) 1.2249(5)
C7 C -0.0140(5) 0.8417(5) 1.1608(5)
C8 C -0.0654(5) 0.9284(7) 0.5524(6)
H6 H -0.1125 0.8785 0.5872
C9 C 0.1097(6) 0.9551(6) 0.4948(6)
H7 H 0.1849 0.9248 0.4890
C10 C 0.1532(5) 0.7042(5) 0.9187(5)
H8 H 0.1598 0.6546 0.9868
O3 O -0.0569(3) 0.6232(4) 1.3230(4)
H9 H -0.0783 0.6728 1.2645
N4 N 0.2593(4) 0.6538(4) 1.3358(4)
C11 C 0.0599(5) 0.5945(5) 1.3506(5)
C12 C 0.1348(5) 0.6777(5) 1.3025(4)
O4 O 0.1039(4) 0.5001(4) 1.4079(4)
Cd1B Cd -0.17855(3) 1.02788(3) 0.93742(3)
Cd1A Cd 0.32145(3) 0.47212(3) 1.43742(3)
Cd1B_2 Cd -0.17855(3) 1.02788(3) -0.06258(3)
Cd1C Cd -0.32145(3) 1.52788(3) 0.56258(3)
N1B N -0.2117(4) 1.1802(4) 0.7904(4)
C1B C -0.2997(5) 1.2577(5) 0.7220(5)
H1B H -0.3839 1.2505 0.7151
O1B O 0.1074(3) 1.1912(4) 0.8158(4)
N2B N -0.1645(4) 1.1651(4) 0.0828(4)
N2B_2 N -0.1645(4) 1.1651(4) 1.0828(4)
O2B O 0.0138(3) 1.0754(3) 0.9141(3)
N3B N -0.1260(4) 1.2395(4) 0.2627(4)
C2B C -0.1314(6) 1.3416(6) 0.1910(6)
H2B H -0.1215 1.4283 0.2143
C3B C -0.0476(5) 1.1190(6) 0.4494(5)
C4B C -0.0985(5) 1.2436(6) 0.3921(5)
H3B H -0.0379 1.3119 0.4272
H4B H -0.1749 1.2637 0.4083
C5B C -0.1476(5) 1.1350(5) 0.1939(5)
H5B H -0.1503 1.0509 0.2217
C6B C -0.1059(5) 1.2213(5) 0.7751(5)
C7B C 0.0140(5) 1.1583(5) 0.8392(5)
C8B C 0.0654(5) 1.0716(7) 0.4476(6)
H6B H 0.1125 1.1215 0.4128
C9B C -0.1097(6) 1.0449(6) 0.5052(6)
H7B H -0.1849 1.0752 0.5110
C10B C -0.1532(5) 1.2958(5) 0.0813(5)
H8B H -0.1598 1.3454 0.0132
O3B O 0.0569(3) 1.3768(4) 0.6770(4)
H9B H 0.0783 1.3272 0.7355
N4B N -0.2593(4) 1.3462(4) 0.6642(4)
N4A N 0.2407(4) 1.1538(4) 1.1642(4)
N4C N -0.2407(4) 0.8462(4) 0.8358(4)
C11B C -0.0599(5) 1.4055(5) 0.6494(5)
C12B C -0.1348(5) 1.3223(5) 0.6975(4)
O4B O -0.1039(4) 1.4999(4) 0.5921(4)
O4A O 0.3961(4) 1.0001(4) 1.0921(4)
O4C O -0.3961(4) 0.9999(4) 0.9079(4)
loop_
_geom_bond_atom_site_label_1
_geom_bond_atom_site_label_2
_geom_bond_site_symmetry_1
_geom_bond_site_symmetry_2
Cd1 N1 1_555 1_555
N1 C1 1_555 1_555
C1 H1 1_555 1_555
O1 C7 1_555 1_555
N2 Cd1 1_555 1_555
O2 Cd1 1_555 1_555
N3 C2 1_555 1_555
C2 H2 1_555 1_555
C3 C4 1_555 1_555
C4 N3 1_555 1_555
H3 C4 1_555 1_555
H4 C4 1_555 1_555
C5 N2 1_555 1_555
H5 C5 1_555 1_555
C6 N1 1_555 1_555
C7 O2 1_555 1_555
C8 C3 1_555 1_555
H6 C8 1_555 1_555
C9 C3 1_555 1_555
H7 C9 1_555 1_555
C10 N2 1_555 1_555
H8 C10 1_555 1_555
O3 H9 1_555 1_555
N4 C1 1_555 1_555
C11 O3 1_555 1_555
C12 C6 1_555 1_555
O4 C11 1_555 1_555
Cd1B O2 1_555 1_555
Cd1A N4 1_555 1_555
Cd1B_2 N2B 1_555 1_555
Cd1C N4B 1_555 1_555
N1B Cd1B 1_555 1_555
C1B N1B 1_555 1_555
H1B C1B 1_555 1_555
O1B C7B 1_555 1_555
N2B C5B 1_555 1_555
N2B_2 Cd1B 1_555 1_555
O2B Cd1 1_555 1_555
N3B C2B 1_555 1_555
C2B H2B 1_555 1_555
C3B C4B 1_555 1_555
C4B N3B 1_555 1_555
H3B C4B 1_555 1_555
H4B C4B 1_555 1_555
C5B N3B 1_555 1_555
H5B C5B 1_555 1_555
C6B N1B 1_555 1_555
C7B O2B 1_555 1_555
C8B C9 1_555 1_555
H6B C8B 1_555 1_555
C9B C8 1_555 1_555
H7B C9B 1_555 1_555
C10B N2B 1_555 1_555
H8B C10B 1_555 1_555
O3B H9B 1_555 1_555
N4B C1B 1_555 1_555
N4A Cd1 1_555 1_555
N4C Cd1B 1_555 1_555
C11B O3B 1_555 1_555
C12B C6B 1_555 1_555
O4B Cd1C 1_555 1_555
O4A Cd1 1_555 1_555
O4C Cd1B 1_555 1_555
N3 C5 1_555 1_555
C2 C10 1_555 1_555
C6 C7 1_555 1_555
N4 C12 1_555 1_555
C11 C12 1_555 1_555
O4 Cd1A 1_555 1_555
Cd1B O2B 1_555 1_555
C2B C10B 1_555 1_555
C3B C8B 1_555 1_555
C3B C9B 1_555 1_555
C6B C7B 1_555 1_555
N4B C12B 1_555 1_555
C11B C12B 1_555 1_555
C11B O4B 1_555 1_555

#END
