
#######################################################################
#
#                 Cambridge Crystallographic Data Centre
#                                CCDC 
#
#######################################################################
#
# If this CIF has been generated from an entry in the Cambridge 
# Structural Database, then it will include bibliographic, chemical, 
# crystal, experimental, refinement or atomic coordinate data resulting 
# from the CCDC's data processing and validation procedures.
#
#######################################################################

data_APAYEW
_symmetry_cell_setting           monoclinic
_symmetry_space_group_name_H-M   'P 21/c'
_symmetry_Int_Tables_number      14
_space_group_name_Hall           '-P 2ybc'
loop_
_symmetry_equiv_pos_site_id
_symmetry_equiv_pos_as_xyz
1 x,y,z
2 -x,1/2+y,1/2-z
3 -x,-y,-z
4 x,1/2-y,1/2+z
_cell_length_a                   7.1548(14)
_cell_length_b                   18.505(4)
_cell_length_c                   6.4568(13)
_cell_angle_alpha                90
_cell_angle_beta                 110.24(3)
_cell_angle_gamma                90
_cell_volume                     802.09
loop_
_atom_site_label
_atom_site_type_symbol
_atom_site_fract_x
_atom_site_fract_y
_atom_site_fract_z
Zn1 Zn 0.71594(4) 0.288022(13) 0.50383(4)
O1 O 0.8294(2) 0.24457(9) 0.7894(2)
H1 H 0.942(3) 0.2299(16) 0.807(5)
O2 O 0.4166(3) 0.28613(10) 0.3568(4)
O3 O 0.1807(3) 0.21009(13) 0.2056(4)
O4 O 0.4840(3) 0.17330(11) 0.3552(4)
N1 N 0.7425(3) 0.39828(11) 0.5202(3)
N2 N 0.8467(3) 0.51081(11) 0.7052(3)
N3 N 0.9121(4) 0.40411(12) 0.8961(3)
H2 H 0.916(6) 0.3584(9) 0.901(5)
H3 H 0.976(5) 0.4257(15) 1.016(4)
N4 N 0.3577(3) 0.22304(12) 0.3054(3)
C1 C 0.7652(4) 0.54419(15) 0.5143(4)
H4 H 0.7715 0.5944 0.5120
C2 C 0.6712(5) 0.50852(14) 0.3181(5)
H5 H 0.6159 0.5332 0.1854
C3 C 0.6637(4) 0.43487(14) 0.3295(4)
H6 H 0.6018 0.4090 0.2003
C4 C 0.8331(4) 0.43793(12) 0.7047(4)
Zn1C Zn 0.71594(4) 0.211978(13) 1.00383(4)
O1C O 0.8294(2) 0.25543(9) 0.2894(2)
H1C H 0.942(3) 0.2701(16) 0.307(5)
loop_
_geom_bond_atom_site_label_1
_geom_bond_atom_site_label_2
_geom_bond_site_symmetry_1
_geom_bond_site_symmetry_2
Zn1 O1 1_555 1_555
O1 H1 1_555 1_555
O2 Zn1 1_555 1_555
O3 N4 1_555 1_555
O4 N4 1_555 1_555
N1 Zn1 1_555 1_555
N2 C1 1_555 1_555
N3 H2 1_555 1_555
H3 N3 1_555 1_555
N4 O2 1_555 1_555
C1 H4 1_555 1_555
C2 C1 1_555 1_555
H5 C2 1_555 1_555
C3 N1 1_555 1_555
H6 C3 1_555 1_555
C4 N1 1_555 1_555
Zn1C O1 1_555 1_555
O1C Zn1 1_555 1_555
H1C O1C 1_555 1_555
N2 C4 1_555 1_555
N3 C4 1_555 1_555
C2 C3 1_555 1_555

#END
