
#######################################################################
#
#                 Cambridge Crystallographic Data Centre
#                                CCDC 
#
#######################################################################
#
# If this CIF has been generated from an entry in the Cambridge 
# Structural Database, then it will include bibliographic, chemical, 
# crystal, experimental, refinement or atomic coordinate data resulting 
# from the CCDC's data processing and validation procedures.
#
#######################################################################

data_APAYOG
_symmetry_cell_setting           triclinic
_symmetry_space_group_name_H-M   'P -1'
_symmetry_Int_Tables_number      2
_space_group_name_Hall           '-P 1'
loop_
_symmetry_equiv_pos_site_id
_symmetry_equiv_pos_as_xyz
1 x,y,z
2 -x,-y,-z
_cell_length_a                   7.6479(11)
_cell_length_b                   8.7049(13)
_cell_length_c                   10.8113(16)
_cell_angle_alpha                85.583(2)
_cell_angle_beta                 82.614(2)
_cell_angle_gamma                81.565(2)
_cell_volume                     704.819
loop_
_atom_site_label
_atom_site_type_symbol
_atom_site_fract_x
_atom_site_fract_y
_atom_site_fract_z
Ni1 Ni 0.5000 1.0000 -0.5000
O1 O 0.4789(2) 0.9828(2) -0.31111(15)
O2 O 0.1920(2) 1.0455(2) -0.24253(16)
O3 O 0.8904(2) 0.6464(2) -0.07475(16)
O4 O 0.7887(2) 0.5236(2) 0.10147(16)
O5 O 0.7480(2) 0.8586(2) -0.5065(2)
N1 N 0.3753(3) 0.8000(2) 0.50054(18)
N2 N 0.1342(3) 0.7424(3) 0.17787(19)
H1 H 0.0382 0.8074 0.1753
C1 C 0.3825(3) 0.8869(3) -0.1099(2)
C2 C 0.5526(3) 0.8109(3) -0.0990(2)
H2 H 0.6454 0.8277 -0.1608
C3 C 0.5851(3) 0.7104(3) 0.0031(2)
C4 C 0.4472(3) 0.6860(3) 0.0969(2)
H3 H 0.4699 0.6176 0.1652
C5 C 0.2757(3) 0.7631(3) 0.0892(2)
C6 C 0.2468(3) 0.8635(3) -0.0165(2)
H4 H 0.1331 0.9157 -0.0237
C7 C 0.3471(3) 0.9820(3) -0.2295(2)
C8 C 0.7673(3) 0.6259(3) 0.0071(2)
C9 C 0.1358(4) 0.6193(3) 0.2748(2)
H5 H 0.1985 0.5249 0.2390
H6 H 0.0138 0.6018 0.3011
C10 C 0.2193(3) 0.6446(3) 0.3896(2)
C11 C 0.2283(3) 0.5305(3) 0.4861(2)
H7 H 0.1808 0.4391 0.4811
C12 C 0.3073(3) 0.5526(3) 0.5886(2)
H8 H 0.3112 0.4779 0.6549
C13 C 0.3810(3) 0.6871(3) 0.5922(2)
H9 H 0.4372 0.7002 0.6613
C14 C 0.2937(3) 0.7777(3) 0.4021(2)
H10 H 0.2865 0.8560 0.3387
H13 H 0.781(6) 0.879(6) -0.574(4)
H14 H 0.825(5) 0.861(4) -0.444(3)
Ni1_2 Ni 0.5000 1.0000 0.5000
Ni1_3 Ni 0.5000 1.0000 -1.5000
O1A O 0.5211(2) 1.0172(2) -0.68889(15)
O2A O 0.8080(2) 0.9545(2) -0.75747(16)
O3A O 0.1096(2) 1.3536(2) -0.92525(16)
O4A O 0.2113(2) 1.4764(2) -1.10147(16)
O5A O 0.2520(2) 1.1414(2) -0.4935(2)
N1A N 0.6247(3) 1.2000(2) -1.50054(18)
N1_2 N 0.3753(3) 0.8000(2) -0.49946(18)
N1A_2 N 0.6247(3) 1.2000(2) -0.50054(18)
N2A N 0.8658(3) 1.2576(3) -1.17787(19)
H1A H 0.9618 1.1926 -1.1753
C1A C 0.6175(3) 1.1131(3) -0.8901(2)
C2A C 0.4474(3) 1.1891(3) -0.9010(2)
H2A H 0.3546 1.1723 -0.8392
C3A C 0.4149(3) 1.2896(3) -1.0031(2)
C4A C 0.5528(3) 1.3140(3) -1.0969(2)
H3A H 0.5301 1.3824 -1.1652
C5A C 0.7243(3) 1.2369(3) -1.0892(2)
C6A C 0.7532(3) 1.1365(3) -0.9835(2)
H4A H 0.8669 1.0843 -0.9763
C7A C 0.6529(3) 1.0180(3) -0.7705(2)
C8A C 0.2327(3) 1.3741(3) -1.0071(2)
C9A C 0.8642(4) 1.3807(3) -1.2748(2)
H5A H 0.8015 1.4751 -1.2390
H6A H 0.9862 1.3982 -1.3011
C10A C 0.7807(3) 1.3554(3) -1.3896(2)
C11A C 0.7717(3) 1.4695(3) -1.4861(2)
H7A H 0.8192 1.5609 -1.4811
C12A C 0.6927(3) 1.4474(3) -1.5886(2)
H8A H 0.6888 1.5221 -1.6549
C13A C 0.6190(3) 1.3129(3) -1.5922(2)
H9A H 0.5628 1.2998 -1.6613
C14A C 0.7063(3) 1.2223(3) -1.4021(2)
H10A H 0.7135 1.1440 -1.3387
H13A H 0.219(6) 1.121(6) -0.426(4)
H14A H 0.175(5) 1.139(4) -0.556(3)
O6 O 0.0478(3) 0.1477(4) 0.3114(3)
H11 H 0.061(6) 0.199(5) 0.241(3)
H12 H -0.011(6) 0.077(5) 0.293(5)
loop_
_geom_bond_atom_site_label_1
_geom_bond_atom_site_label_2
_geom_bond_site_symmetry_1
_geom_bond_site_symmetry_2
Ni1 O1 1_555 1_555
O1 C7 1_555 1_555
O2 C7 1_555 1_555
O3 C8 1_555 1_555
O4 C8 1_555 1_555
O5 Ni1 1_555 1_555
O6 H11 1_555 1_555
N1 C13 1_555 1_555
N2 H1 1_555 1_555
C1 C2 1_555 1_555
C2 H2 1_555 1_555
C3 C2 1_555 1_555
C4 C3 1_555 1_555
H3 C4 1_555 1_555
C5 N2 1_555 1_555
C6 C1 1_555 1_555
H4 C6 1_555 1_555
C7 C1 1_555 1_555
C8 C3 1_555 1_555
C9 N2 1_555 1_555
H5 C9 1_555 1_555
H6 C9 1_555 1_555
C10 C9 1_555 1_555
C11 C10 1_555 1_555
H7 C11 1_555 1_555
C12 C11 1_555 1_555
H8 C12 1_555 1_555
C13 C12 1_555 1_555
H9 C13 1_555 1_555
C14 N1 1_555 1_555
H10 C14 1_555 1_555
H12 O6 1_555 1_555
H13 O5 1_555 1_555
H14 O5 1_555 1_555
Ni1_2 N1 1_555 1_555
Ni1_3 N1A 1_555 1_555
O1A Ni1 1_555 1_555
O2A C7A 1_555 1_555
O3A C8A 1_555 1_555
O4A C8A 1_555 1_555
O5A Ni1 1_555 1_555
N1A C13A 1_555 1_555
N1_2 Ni1 1_555 1_555
N1A_2 Ni1 1_555 1_555
N2A H1A 1_555 1_555
C1A C2A 1_555 1_555
C2A H2A 1_555 1_555
C3A C2A 1_555 1_555
C4A C3A 1_555 1_555
H3A C4A 1_555 1_555
C5A N2A 1_555 1_555
C6A C1A 1_555 1_555
H4A C6A 1_555 1_555
C7A O1A 1_555 1_555
C8A C3A 1_555 1_555
C9A N2A 1_555 1_555
H5A C9A 1_555 1_555
H6A C9A 1_555 1_555
C10A C9A 1_555 1_555
C11A C10A 1_555 1_555
H7A C11A 1_555 1_555
C12A C11A 1_555 1_555
H8A C12A 1_555 1_555
C13A C12A 1_555 1_555
H9A C13A 1_555 1_555
C14A N1A 1_555 1_555
H10A C14A 1_555 1_555
H13A O5A 1_555 1_555
H14A O5A 1_555 1_555
C4 C5 1_555 1_555
C5 C6 1_555 1_555
C10 C14 1_555 1_555
C1A C7A 1_555 1_555
C4A C5A 1_555 1_555
C5A C6A 1_555 1_555
C10A C14A 1_555 1_555

#END
