
#######################################################################
#
#                 Cambridge Crystallographic Data Centre
#                                CCDC 
#
#######################################################################
#
# If this CIF has been generated from an entry in the Cambridge 
# Structural Database, then it will include bibliographic, chemical, 
# crystal, experimental, refinement or atomic coordinate data resulting 
# from the CCDC's data processing and validation procedures.
#
#######################################################################

data_APAYIA
_symmetry_cell_setting           triclinic
_symmetry_space_group_name_H-M   'P 1'
_symmetry_Int_Tables_number      1
_space_group_name_Hall           'P 1'
loop_
_symmetry_equiv_pos_site_id
_symmetry_equiv_pos_as_xyz
1 x,y,z
_cell_length_a                   8.332(4)
_cell_length_b                   9.333(5)
_cell_length_c                   12.995(6)
_cell_angle_alpha                70.866(8)
_cell_angle_beta                 85.876(7)
_cell_angle_gamma                66.626(7)
_cell_volume                     874.379
loop_
_atom_site_label
_atom_site_type_symbol
_atom_site_fract_x
_atom_site_fract_y
_atom_site_fract_z
Ce1 Ce 0.87612(3) -0.00151(3) 0.77209(2)
Ce2 Ce 0.78322(3) 0.30611(3) 0.95479(2)
O1 O 0.5798(18) 0.2150(19) 0.7317(12)
O2 O 0.5234(18) 0.351(2) 0.8545(13)
O3 O -0.067(2) 0.2289(18) 0.6236(10)
O4 O -0.1165(18) 0.3001(19) 0.7736(10)
O5 O 0.7695(18) 0.0155(15) 0.9509(10)
O6 O 0.7223(18) 0.0771(18) 1.1017(11)
O7 O 0.1394(16) -0.049(2) 0.8749(12)
O8 O 0.0831(17) 0.080(2) 0.9986(13)
O9 O 0.6768(15) -0.1535(16) 0.7982(11)
O10 O 1.0103(16) -0.3026(16) 0.8658(13)
O11 O 0.9849(13) -0.5476(12) 0.9304(11)
O12 O 0.6427(11) -0.3874(13) 0.8644(11)
N1 N 0.789(2) -0.016(2) 0.5852(14)
N2 N 1.1317(19) -0.140(2) 0.6488(13)
N3 N 0.872(2) 0.312(2) 1.1485(14)
N4 N 0.527(2) 0.435(2) 1.0754(12)
C1 C 0.480(2) 0.313(2) 0.7820(14)
C2 C 0.281(2) 0.374(2) 0.7555(11)
H1 H 0.2230 0.4838 0.7617
H2 H 0.2364 0.3018 0.8095
C3 C -0.0177(16) 0.4618(19) 0.6251(9)
H3 H -0.0576 0.5354 0.6682
H4 H -0.0706 0.5238 0.5514
C4 C -0.072(2) 0.323(2) 0.6725(12)
C5 C 0.7254(16) -0.0132(12) 1.0456(10)
C6 C 0.665(2) -0.158(2) 1.1065(14)
H5 H 0.7171 -0.2111 1.1807
H6 H 0.7055 -0.2404 1.0697
C7 C 0.380(2) -0.0827(19) 0.9762(15)
H7 H 0.4348 -0.0220 0.9208
H8 H 0.4261 -0.1953 0.9752
C8 C 0.1851(19) -0.0059(17) 0.9484(9)
C9 C 0.626(2) 0.038(2) 0.5499(11)
H9 H 0.5423 0.0655 0.5993
C10 C 0.5642(18) 0.060(2) 0.4508(14)
H10 H 0.4441 0.1098 0.4328
C11 C 0.678(3) 0.008(3) 0.3760(16)
H11 H 0.6393 0.0118 0.3095
C12 C 0.864(3) -0.052(3) 0.4070(15)
C13 C 1.006(3) -0.103(2) 0.3356(11)
H12 H 0.9794 -0.0954 0.2651
C14 C 1.182(3) -0.164(2) 0.3739(15)
H13 H 1.2703 -0.1931 0.3271
C15 C 1.227(3) -0.182(2) 0.4743(16)
C16 C 1.403(2) -0.252(3) 0.5250(17)
H14 H 1.4983 -0.2910 0.4851
C17 C 1.431(2) -0.262(2) 0.6230(17)
H15 H 1.5460 -0.3123 0.6520
C18 C 1.3073(18) -0.205(2) 0.6861(14)
H16 H 1.3370 -0.2087 0.7547
C19 C 1.089(3) -0.124(2) 0.5520(15)
C20 C 0.902(3) -0.057(3) 0.5060(16)
C21 C 1.0426(12) 0.2577(19) 1.1776(12)
H17 H 1.1278 0.2215 1.1311
C22 C 1.092(2) 0.256(2) 1.2836(13)
H18 H 1.2081 0.2282 1.3032
C23 C 0.967(3) 0.297(2) 1.3522(13)
H19 H 0.9989 0.2831 1.4229
C24 C 0.795(3) 0.356(2) 1.3207(12)
C25 C 0.666(3) 0.403(2) 1.3912(13)
H20 H 0.6994 0.3935 1.4607
C26 C 0.500(3) 0.459(2) 1.3622(12)
H21 H 0.4161 0.4880 1.4113
C27 C 0.441(3) 0.477(3) 1.2475(17)
C28 C 0.265(3) 0.546(3) 1.2143(14)
H22 H 0.1795 0.5800 1.2613
C29 C 0.217(2) 0.563(2) 1.1064(15)
H23 H 0.1011 0.6092 1.0783
C30 C 0.369(2) 0.501(3) 1.0433(13)
H24 H 0.3445 0.5125 0.9717
C31 C 0.561(2) 0.431(2) 1.1840(13)
C32 C 0.740(3) 0.369(2) 1.2116(13)
C33 C 0.9337(13) -0.3945(18) 0.8841(11)
C34 C 0.7583(16) -0.3107(13) 0.8480(9)
S1 S 0.2261(7) 0.3826(9) 0.6226(5)
S2 S 0.4353(7) -0.0836(7) 1.1087(4)
Ce1_2 Ce -0.12388(3) -0.00151(3) 0.77209(2)
Ce2_2 Ce -0.21678(3) 0.30611(3) 0.95479(2)
Ce2_3 Ce 0.78322(3) -0.69389(3) 0.95479(2)
O3_2 O 0.933(2) 0.2289(18) 0.6236(10)
O4_2 O 0.8835(18) 0.3001(19) 0.7736(10)
O7_2 O 1.1394(16) -0.049(2) 0.8749(12)
O8_2 O 1.0831(17) 0.080(2) 0.9986(13)
O11_2 O 0.9849(13) 0.4524(12) 0.9304(11)
O12_2 O 0.6427(11) 0.6126(13) 0.8644(11)
loop_
_geom_bond_atom_site_label_1
_geom_bond_atom_site_label_2
_geom_bond_site_symmetry_1
_geom_bond_site_symmetry_2
Ce1 O1 1_555 1_555
Ce2 O2 1_555 1_555
O1 C1 1_555 1_555
O2 C1 1_555 1_555
O3 C4 1_555 1_555
O4 C4 1_555 1_555
O5 Ce1 1_555 1_555
O6 Ce2 1_555 1_555
O7 C8 1_555 1_555
O8 C8 1_555 1_555
O9 Ce1 1_555 1_555
O10 Ce1 1_555 1_555
O11 C33 1_555 1_555
O12 C34 1_555 1_555
N1 Ce1 1_555 1_555
N2 Ce1 1_555 1_555
N3 Ce2 1_555 1_555
N4 Ce2 1_555 1_555
C1 C2 1_555 1_555
C2 H1 1_555 1_555
H2 C2 1_555 1_555
C3 H3 1_555 1_555
H4 C3 1_555 1_555
C4 C3 1_555 1_555
C5 O5 1_555 1_555
C6 C5 1_555 1_555
H5 C6 1_555 1_555
H6 C6 1_555 1_555
C7 H7 1_555 1_555
H8 C7 1_555 1_555
C8 C7 1_555 1_555
C9 N1 1_555 1_555
H9 C9 1_555 1_555
C10 C9 1_555 1_555
H10 C10 1_555 1_555
C11 C10 1_555 1_555
H11 C11 1_555 1_555
C12 C11 1_555 1_555
C13 C12 1_555 1_555
H12 C13 1_555 1_555
C14 C13 1_555 1_555
H13 C14 1_555 1_555
C15 C14 1_555 1_555
C16 C15 1_555 1_555
H14 C16 1_555 1_555
C17 C16 1_555 1_555
H15 C17 1_555 1_555
C18 N2 1_555 1_555
H16 C18 1_555 1_555
C19 N2 1_555 1_555
C20 N1 1_555 1_555
C21 N3 1_555 1_555
H17 C21 1_555 1_555
C22 C21 1_555 1_555
H18 C22 1_555 1_555
C23 C22 1_555 1_555
H19 C23 1_555 1_555
C24 C23 1_555 1_555
C25 C24 1_555 1_555
H20 C25 1_555 1_555
C26 C25 1_555 1_555
H21 C26 1_555 1_555
C27 C26 1_555 1_555
C28 C27 1_555 1_555
H22 C28 1_555 1_555
C29 C28 1_555 1_555
H23 C29 1_555 1_555
C30 N4 1_555 1_555
H24 C30 1_555 1_555
C31 N4 1_555 1_555
C32 N3 1_555 1_555
C33 O10 1_555 1_555
C34 O9 1_555 1_555
S1 C2 1_555 1_555
S2 C6 1_555 1_555
Ce1_2 O3 1_555 1_555
Ce2_2 O4 1_555 1_555
Ce2_3 O11 1_555 1_555
O3_2 Ce1 1_555 1_555
O4_2 Ce1 1_555 1_555
O7_2 Ce1 1_555 1_555
O8_2 Ce2 1_555 1_555
O11_2 Ce2 1_555 1_555
O12_2 Ce2 1_555 1_555
Ce2 O5 1_555 1_555
Ce2 O4_2 1_555 1_555
O4 Ce1_2 1_555 1_555
O6 C5 1_555 1_555
O7 Ce1_2 1_555 1_555
O8 Ce2_2 1_555 1_555
O12 Ce2_3 1_555 1_555
C3 S1 1_555 1_555
C7 S2 1_555 1_555
C12 C20 1_555 1_555
C15 C19 1_555 1_555
C17 C18 1_555 1_555
C19 C20 1_555 1_555
C24 C32 1_555 1_555
C27 C31 1_555 1_555
C29 C30 1_555 1_555
C31 C32 1_555 1_555
C33 C34 1_555 1_555

#END
