
#######################################################################
#
#                 Cambridge Crystallographic Data Centre
#                                CCDC 
#
#######################################################################
#
# If this CIF has been generated from an entry in the Cambridge 
# Structural Database, then it will include bibliographic, chemical, 
# crystal, experimental, refinement or atomic coordinate data resulting 
# from the CCDC's data processing and validation procedures.
#
#######################################################################

data_APAYUM
_symmetry_cell_setting           triclinic
_symmetry_space_group_name_H-M   'P -1'
_symmetry_Int_Tables_number      2
_space_group_name_Hall           '-P 1'
loop_
_symmetry_equiv_pos_site_id
_symmetry_equiv_pos_as_xyz
1 x,y,z
2 -x,-y,-z
_cell_length_a                   8.271(2)
_cell_length_b                   10.165(3)
_cell_length_c                   11.474(3)
_cell_angle_alpha                70.862(4)
_cell_angle_beta                 68.988(4)
_cell_angle_gamma                69.001(4)
_cell_volume                     818.43
loop_
_atom_site_label
_atom_site_type_symbol
_atom_site_fract_x
_atom_site_fract_y
_atom_site_fract_z
Cd1 Cd 1.15092(7) 0.08451(5) 0.05760(5)
O1 O 0.9242(6) 0.1651(5) -0.0437(5)
O2 O 1.3766(7) -0.0068(6) 0.1704(5)
H1 H 1.4464 0.0465 0.1403
O3 O 0.8439(7) 0.6820(5) -0.0607(5)
O4 O 0.6662(7) 0.7713(5) 0.1049(5)
O5 O 0.6759(7) 0.0926(5) 0.0454(5)
O6 O 0.1376(8) 0.5622(7) 0.3292(6)
O7 O 0.1934(8) 0.3314(6) 0.3716(6)
N1 N 0.2366(9) 0.4426(8) 0.3169(6)
N2 N 0.9529(8) 0.0771(6) 0.2511(6)
N3 N 0.8210(8) 0.1460(7) 0.4323(6)
C1 C 0.4503(11) 0.3741(10) 0.5637(8)
H2 H 0.4156 0.2875 0.6093
C2 C 0.6701(9) 0.3063(7) 0.0876(6)
C3 C 0.7244(9) 0.6761(7) 0.0392(8)
C4 C 0.4838(9) 0.5535(7) 0.1841(6)
H3 H 0.4182 0.6378 0.2169
C5 C 0.6492(9) 0.5459(7) 0.0953(6)
C6 C 0.5072(9) 0.3123(7) 0.1779(7)
H4 H 0.4574 0.2324 0.2082
C7 C 0.7406(9) 0.4246(7) 0.0439(7)
H5 H 0.8514 0.4224 -0.0211
C8 C 0.4161(9) 0.4361(8) 0.2244(7)
C9 C 0.7764(12) 0.2252(9) 0.5342(8)
H6 H 0.8862 0.2446 0.5329
H7 H 0.7326 0.1644 0.6195
C10 C 0.9363(10) 0.1669(8) 0.3197(7)
H8 H 1.0008 0.2377 0.2902
C11 C 0.7656(10) 0.1792(7) 0.0251(7)
C12 C 0.6307(10) 0.3694(9) 0.5117(7)
C13 C 0.7660(12) 0.0312(9) 0.4432(9)
H9 H 0.6843 -0.0108 0.5158
C14 C 0.6799(11) 0.4942(10) 0.4509(7)
H10 H 0.8039 0.4913 0.4182
C15 C 0.8468(11) -0.0124(8) 0.3339(8)
H11 H 0.8338 -0.0922 0.3157
H12 H 1.411(10) -0.068(7) 0.118(6)
Cd1A Cd 0.84908(7) 0.91549(5) -0.05760(5)
Cd1A_2 Cd 0.84908(7) -0.08451(5) -0.05760(5)
Cd1A_3 Cd -0.15092(7) 0.91549(5) 0.94240(5)
Cd1_2 Cd 1.15092(7) 1.08451(5) 0.05760(5)
O1A O 1.0758(6) 0.8349(5) 0.0437(5)
O2A O 0.6234(7) 1.0068(6) -0.1704(5)
H1A H 0.5536 0.9535 -0.1403
O3A O 1.1561(7) 0.3180(5) 0.0607(5)
O4A O 1.3338(7) 0.2287(5) -0.1049(5)
O5A O 1.3241(7) 0.9074(5) -0.0454(5)
O5A_2 O 1.3241(7) -0.0926(5) -0.0454(5)
O5_2 O 0.6759(7) 1.0926(5) 0.0454(5)
O6A O 1.8624(8) 0.4378(7) -0.3292(6)
O7A O 1.8066(8) 0.6686(6) -0.3716(6)
N1A N 1.7634(9) 0.5574(8) -0.3169(6)
N2A N 0.0471(8) 0.9229(6) 0.7489(6)
N2A_2 N 1.0471(8) 0.9229(6) -0.2511(6)
N3A N 0.1790(8) 0.8540(7) 0.5677(6)
C1A C 0.5497(11) 0.6259(10) 0.4363(8)
H2A H 0.5844 0.7125 0.3907
C2A C 1.3299(9) 0.6937(7) -0.0876(6)
C3A C 1.2756(9) 0.3239(7) -0.0392(8)
C4A C 1.5162(9) 0.4465(7) -0.1841(6)
H3A H 1.5818 0.3622 -0.2169
C5A C 1.3508(9) 0.4541(7) -0.0953(6)
C6A C 1.4928(9) 0.6877(7) -0.1779(7)
H4A H 1.5426 0.7676 -0.2082
C7A C 1.2594(9) 0.5754(7) -0.0439(7)
H5A H 1.1486 0.5776 0.0211
C8A C 1.5839(9) 0.5639(8) -0.2244(7)
C9A C 0.2236(12) 0.7748(9) 0.4658(8)
H6A H 0.1138 0.7554 0.4671
H7A H 0.2674 0.8356 0.3805
C10A C 0.0637(10) 0.8331(8) 0.6803(7)
H8A H -0.0008 0.7623 0.7098
C11A C 1.2344(10) 0.8208(7) -0.0251(7)
C12A C 0.3693(10) 0.6306(9) 0.4883(7)
C13A C 0.2340(12) 0.9688(9) 0.5568(9)
H9A H 0.3157 1.0108 0.4842
C14A C 0.3201(11) 0.5058(10) 0.5491(7)
H10A H 0.1961 0.5087 0.5818
C15A C 0.1532(11) 1.0124(8) 0.6661(8)
H11A H 0.1662 1.0922 0.6843
H12A H 0.589(10) 1.068(7) -0.118(6)
loop_
_geom_bond_atom_site_label_1
_geom_bond_atom_site_label_2
_geom_bond_site_symmetry_1
_geom_bond_site_symmetry_2
Cd1 O1 1_555 1_555
O1 C11 1_555 1_555
O2 Cd1 1_555 1_555
H1 O2 1_555 1_555
O3 C3 1_555 1_555
O4 C3 1_555 1_555
O5 C11 1_555 1_555
O6 N1 1_555 1_555
O7 N1 1_555 1_555
N1 C8 1_555 1_555
N2 Cd1 1_555 1_555
N3 C9 1_555 1_555
C1 H2 1_555 1_555
C2 C6 1_555 1_555
C3 C5 1_555 1_555
C4 H3 1_555 1_555
C5 C4 1_555 1_555
C6 H4 1_555 1_555
C7 C2 1_555 1_555
H5 C7 1_555 1_555
C8 C4 1_555 1_555
C9 H6 1_555 1_555
H7 C9 1_555 1_555
C10 N2 1_555 1_555
H8 C10 1_555 1_555
C11 C2 1_555 1_555
C12 C1 1_555 1_555
C13 N3 1_555 1_555
H9 C13 1_555 1_555
C14 C12 1_555 1_555
H10 C14 1_555 1_555
C15 N2 1_555 1_555
H11 C15 1_555 1_555
H12 O2 1_555 1_555
Cd1A O3 1_555 1_555
Cd1A_2 O5 1_555 1_555
Cd1A_3 N2A 1_555 1_555
Cd1_2 O5A 1_555 1_555
O1A Cd1A 1_555 1_555
O2A Cd1A 1_555 1_555
H1A O2A 1_555 1_555
O3A Cd1 1_555 1_555
O4A Cd1 1_555 1_555
O5A C11A 1_555 1_555
O5A_2 Cd1 1_555 1_555
O5_2 Cd1A 1_555 1_555
O6A N1A 1_555 1_555
O7A N1A 1_555 1_555
N1A C8A 1_555 1_555
N2A C10A 1_555 1_555
N2A_2 Cd1A 1_555 1_555
N3A C9A 1_555 1_555
C1A C14 1_555 1_555
H2A C1A 1_555 1_555
C2A C6A 1_555 1_555
C3A O3A 1_555 1_555
C4A H3A 1_555 1_555
C5A C3A 1_555 1_555
C6A H4A 1_555 1_555
C7A C2A 1_555 1_555
H5A C7A 1_555 1_555
C8A C4A 1_555 1_555
C9A H6A 1_555 1_555
H7A C9A 1_555 1_555
C10A N3A 1_555 1_555
H8A C10A 1_555 1_555
C11A O1A 1_555 1_555
C12A C1A 1_555 1_555
C13A N3A 1_555 1_555
H9A C13A 1_555 1_555
C14A C1 1_555 1_555
H10A C14A 1_555 1_555
C15A N2A 1_555 1_555
H11A C15A 1_555 1_555
H12A O2A 1_555 1_555
O4 Cd1A 1_555 1_555
N3 C10 1_555 1_555
C5 C7 1_555 1_555
C6 C8 1_555 1_555
C9 C12 1_555 1_555
C13 C15 1_555 1_555
O4A C3A 1_555 1_555
C2A C11A 1_555 1_555
C4A C5A 1_555 1_555
C5A C7A 1_555 1_555
C6A C8A 1_555 1_555
C9A C12A 1_555 1_555
C12A C14A 1_555 1_555
C13A C15A 1_555 1_555

#END
