
#######################################################################
#
#                 Cambridge Crystallographic Data Centre
#                                CCDC 
#
#######################################################################
#
# If this CIF has been generated from an entry in the Cambridge 
# Structural Database, then it will include bibliographic, chemical, 
# crystal, experimental, refinement or atomic coordinate data resulting 
# from the CCDC's data processing and validation procedures.
#
#######################################################################

data_APAZAT
_symmetry_cell_setting           triclinic
_symmetry_space_group_name_H-M   'P -1'
_symmetry_Int_Tables_number      2
_space_group_name_Hall           '-P 1'
loop_
_symmetry_equiv_pos_site_id
_symmetry_equiv_pos_as_xyz
1 x,y,z
2 -x,-y,-z
_cell_length_a                   7.570(2)
_cell_length_b                   8.772(3)
_cell_length_c                   16.415(5)
_cell_angle_alpha                104.187(5)
_cell_angle_beta                 90.905(5)
_cell_angle_gamma                98.589(5)
_cell_volume                     1043.36
loop_
_atom_site_label
_atom_site_type_symbol
_atom_site_fract_x
_atom_site_fract_y
_atom_site_fract_z
Cu1 Cu 0.93967(4) 0.48013(3) 0.28071(2)
N1 N 0.6875(3) -0.2592(2) 0.14865(13)
N2 N 0.7914(3) 0.2935(2) 0.19906(14)
N3 N 1.0529(3) 0.3247(2) 0.32785(14)
N4 N 1.1244(3) -0.3394(2) 0.34316(13)
N5 N 1.3198(3) -0.1257(2) 0.37677(13)
N6 N 0.8291(3) -0.3676(2) 0.22882(14)
N7 N 1.0613(3) 0.1185(3) 0.38413(16)
N8 N 0.6928(4) -0.1597(3) 0.22689(15)
N9 N 1.2853(3) -0.1654(3) 0.45034(14)
C1 C 0.7693(4) -0.3807(3) 0.15119(17)
H1 H 0.7827 -0.4634 0.1051
C2 C 1.2232(4) -0.2293(3) 0.31411(16)
H2 H 1.2246 -0.2253 0.2580
C3 C 0.6030(4) -0.2238(3) 0.07668(17)
H3 H 0.4852 -0.1981 0.0908
H4 H 0.5878 -0.3177 0.0299
C4 C 0.6130(4) 0.2642(3) 0.18105(18)
H5 H 0.5366 0.3348 0.2046
C5 C 0.9624(4) 0.1954(3) 0.34788(19)
H6 H 0.8398 0.1637 0.3368
C6 C 1.2193(4) 0.3273(3) 0.35453(17)
H7 H 1.3164 0.4031 0.3503
C7 C 0.7791(4) -0.2303(3) 0.27240(18)
H8 H 0.8041 -0.1896 0.3300
C8 C 1.1674(4) -0.2950(3) 0.42653(18)
H9 H 1.1175 -0.3517 0.4638
N10 N 0.7112(3) 0.0657(2) 0.11036(13)
N11 N 1.2267(3) 0.2059(2) 0.38801(14)
N12 N 0.5573(3) 0.1271(3) 0.12726(16)
C9 C 0.8481(4) 0.1657(3) 0.15310(16)
H10 H 0.9666 0.1489 0.1512
C10 C 1.4429(3) 0.0187(3) 0.37668(17)
H11 H 1.4550 0.0275 0.3192
H12 H 1.5598 0.0113 0.3991
C11 C 0.7102(4) -0.0875(3) 0.05016(16)
H13 H 0.8324 -0.1073 0.0431
H14 H 0.6613 -0.0826 -0.0039
C12 C 1.3804(4) 0.1661(3) 0.42820(17)
H15 H 1.3489 0.1498 0.4828
H16 H 1.4778 0.2549 0.4371
Br2 Br 0.69786(4) 0.51008(4) 0.401372(19)
Cu1_2 Cu 0.93967(4) -0.51987(3) 0.28071(2)
N4_2 N 1.1244(3) 0.6606(2) 0.34316(13)
N6_2 N 0.8291(3) 0.6324(2) 0.22882(14)
Br1 Br 0.21932(4) 0.45197(4) 0.12057(2)
O1 O 0.1808(5) 0.9733(5) 0.1569(2)
H19 H 0.263(7) 1.020(6) 0.144(3)
H20 H 0.159(8) 0.895(7) 0.113(4)
O2 O 0.8683(5) 0.2909(4) 0.9841(2)
H17 H 0.952(6) 0.324(5) 1.010(3)
H18 H 0.857(6) 0.351(5) 0.957(3)
loop_
_geom_bond_atom_site_label_1
_geom_bond_atom_site_label_2
_geom_bond_site_symmetry_1
_geom_bond_site_symmetry_2
Cu1 N2 1_555 1_555
N1 N8 1_555 1_555
N2 C4 1_555 1_555
N3 Cu1 1_555 1_555
N4 C2 1_555 1_555
N5 N9 1_555 1_555
N6 C1 1_555 1_555
N7 C5 1_555 1_555
N8 C7 1_555 1_555
N9 C8 1_555 1_555
C1 N1 1_555 1_555
H1 C1 1_555 1_555
C2 N5 1_555 1_555
H2 C2 1_555 1_555
C3 N1 1_555 1_555
H3 C3 1_555 1_555
H4 C3 1_555 1_555
C4 H5 1_555 1_555
C5 N3 1_555 1_555
H6 C5 1_555 1_555
C6 N3 1_555 1_555
H7 C6 1_555 1_555
C7 N6 1_555 1_555
H8 C7 1_555 1_555
C8 N4 1_555 1_555
H9 C8 1_555 1_555
N10 N12 1_555 1_555
N11 N7 1_555 1_555
N12 C4 1_555 1_555
C9 N2 1_555 1_555
H10 C9 1_555 1_555
C10 N5 1_555 1_555
H11 C10 1_555 1_555
H12 C10 1_555 1_555
C11 C3 1_555 1_555
H13 C11 1_555 1_555
H14 C11 1_555 1_555
C12 N11 1_555 1_555
H15 C12 1_555 1_555
H16 C12 1_555 1_555
Br2 Cu1 1_555 1_555
O1 H19 1_555 1_555
O2 H17 1_555 1_555
H18 O2 1_555 1_555
H20 O1 1_555 1_555
Cu1_2 N4 1_555 1_555
N4_2 Cu1 1_555 1_555
N6_2 Cu1 1_555 1_555
N6 Cu1_2 1_555 1_555
C6 N11 1_555 1_555
N10 C9 1_555 1_555
N10 C11 1_555 1_555
C10 C12 1_555 1_555

#END
