
#######################################################################
#
#                 Cambridge Crystallographic Data Centre
#                                CCDC 
#
#######################################################################
#
# If this CIF has been generated from an entry in the Cambridge 
# Structural Database, then it will include bibliographic, chemical, 
# crystal, experimental, refinement or atomic coordinate data resulting 
# from the CCDC's data processing and validation procedures.
#
#######################################################################

data_APIHAJ
_symmetry_cell_setting           monoclinic
_symmetry_space_group_name_H-M   'P 21/n'
_symmetry_Int_Tables_number      14
_space_group_name_Hall           '-P 2yn'
loop_
_symmetry_equiv_pos_site_id
_symmetry_equiv_pos_as_xyz
1 x,y,z
2 1/2-x,1/2+y,1/2-z
3 -x,-y,-z
4 1/2+x,1/2-y,1/2+z
_cell_length_a                   11.4981(14)
_cell_length_b                   15.7557(19)
_cell_length_c                   18.504(2)
_cell_angle_alpha                90
_cell_angle_beta                 97.751(2)
_cell_angle_gamma                90
_cell_volume                     3321.57
loop_
_atom_site_label
_atom_site_type_symbol
_atom_site_fract_x
_atom_site_fract_y
_atom_site_fract_z
Cu1 Cu -0.64171(5) -0.46687(3) 0.28866(3)
Cu2 Cu -0.39397(5) -0.51418(3) 0.26248(3)
O1 O -0.7344(3) -0.50457(19) 0.35937(17)
C1 C -0.7864(5) -0.5687(4) 0.4630(3)
F1 F -0.8637(4) -0.6172(4) 0.4293(3)
F2 F -0.8433(4) -0.5032(3) 0.4814(3)
F3 F -0.7488(4) -0.6063(4) 0.5227(2)
C2 C -0.6929(4) -0.5466(3) 0.4159(3)
C3 C -0.5808(4) -0.5768(3) 0.4364(2)
H1 H -0.5649 -0.6022 0.4820
C4 C -0.4890(4) -0.5723(3) 0.3941(2)
O2 O -0.5033(3) -0.52749(18) 0.33318(16)
C5 C -0.3858(4) -0.6184(3) 0.4125(3)
H2 H -0.3746 -0.6440 0.4582
C6 C -0.3010(4) -0.6290(3) 0.3699(3)
C7 C -0.2025(7) -0.6924(5) 0.3935(4)
F4 F -0.1008(4) -0.6583(4) 0.3961(4)
F5 F -0.2003(5) -0.7532(3) 0.3472(3)
F6 F -0.2077(4) -0.7280(3) 0.4565(2)
O3 O -0.2886(3) -0.5966(2) 0.30776(19)
O4 O -0.3244(3) -0.5140(2) 0.17487(19)
C8 C -0.2873(6) -0.4748(5) 0.0593(3)
F7 F -0.2700(4) -0.5536(3) 0.0398(2)
F8 F -0.3274(3) -0.4338(3) -0.00069(18)
F9 F -0.1827(3) -0.4435(3) 0.0821(2)
C9 C -0.3661(4) -0.4712(3) 0.1191(3)
C10 C -0.4666(4) -0.4238(3) 0.1060(3)
H3 H -0.4804 -0.3950 0.0618
C11 C -0.5510(4) -0.4155(3) 0.1545(2)
O5 O -0.5299(3) -0.44884(17) 0.22021(15)
C12 C -0.6561(4) -0.3711(3) 0.1335(2)
H4 H -0.6675 -0.3476 0.0869
C13 C -0.7423(4) -0.3599(3) 0.1759(2)
C14 C -0.8471(5) -0.3044(4) 0.1473(3)
F10 F -0.8508(4) -0.2848(3) 0.07843(18)
F11 F -0.8396(3) -0.2300(2) 0.18119(18)
F12 F -0.9469(3) -0.3359(3) 0.1586(3)
O6 O -0.7517(3) -0.38929(19) 0.23934(17)
O7 O 0.2020(3) -0.0763(2) 0.3055(2)
N1 N 0.2766(3) -0.1330(2) 0.3283(2)
C15 C 0.4582(4) -0.2006(3) 0.3512(3)
C16 C 0.4851(5) -0.2345(4) 0.2759(3)
H5 H 0.5502 -0.2038 0.2614
H6 H 0.4174 -0.2269 0.2401
H7 H 0.5043 -0.2938 0.2801
C17 C 0.5648(5) -0.2170(4) 0.4030(4)
H8 H 0.5534 -0.1969 0.4505
H9 H 0.6302 -0.1880 0.3870
H10 H 0.5802 -0.2769 0.4051
C18 C 0.4062(4) -0.1141(3) 0.3424(3)
C19 C 0.4216(6) -0.0664(4) 0.4191(4)
H11 H 0.5026 -0.0515 0.4325
H12 H 0.3970 -0.1032 0.4555
H13 H 0.3744 -0.0159 0.4154
C20 C 0.4447(5) -0.0558(4) 0.2872(4)
H14 H 0.4368 -0.0836 0.2407
H15 H 0.5254 -0.0404 0.3015
H16 H 0.3970 -0.0056 0.2839
N2 N 0.3557(3) -0.2522(2) 0.3698(2)
O8 O 0.3708(3) -0.3285(2) 0.3931(2)
C21 C 0.2519(4) -0.2117(3) 0.3504(2)
C22 C 0.1341(4) -0.2469(3) 0.3503(2)
C23 C 0.0338(4) -0.1998(3) 0.3314(3)
H17 H 0.0406 -0.1417 0.3239
C24 C -0.0750(4) -0.2356(3) 0.3234(3)
H18 H -0.1411 -0.2023 0.3096
C25 C -0.0870(4) -0.3209(3) 0.3355(2)
C26 C -0.1997(5) -0.3629(3) 0.3210(3)
N3 N -0.2862(4) -0.3986(3) 0.3084(2)
C27 C 0.0108(4) -0.3689(3) 0.3591(3)
H19 H 0.0033 -0.4262 0.3696
C28 C 0.1201(4) -0.3311(3) 0.3669(3)
H20 H 0.1859 -0.3634 0.3839
Cu1A Cu 0.14171(5) 0.03313(3) 0.21134(3)
O7A O -0.7020(3) -0.5763(2) 0.1945(2)
loop_
_geom_bond_atom_site_label_1
_geom_bond_atom_site_label_2
_geom_bond_site_symmetry_1
_geom_bond_site_symmetry_2
Cu1 O1 1_555 1_555
Cu2 O2 1_555 1_555
O1 C2 1_555 1_555
C1 F1 1_555 1_555
F2 C1 1_555 1_555
F3 C1 1_555 1_555
C2 C1 1_555 1_555
C3 C2 1_555 1_555
H1 C3 1_555 1_555
C4 C3 1_555 1_555
O2 Cu1 1_555 1_555
C5 C4 1_555 1_555
H2 C5 1_555 1_555
C6 C5 1_555 1_555
C7 C6 1_555 1_555
F4 C7 1_555 1_555
F5 C7 1_555 1_555
F6 C7 1_555 1_555
O3 Cu2 1_555 1_555
O4 Cu2 1_555 1_555
C8 F7 1_555 1_555
F8 C8 1_555 1_555
F9 C8 1_555 1_555
C9 O4 1_555 1_555
C10 C9 1_555 1_555
H3 C10 1_555 1_555
C11 C10 1_555 1_555
O5 Cu1 1_555 1_555
C12 C11 1_555 1_555
H4 C12 1_555 1_555
C13 C12 1_555 1_555
C14 C13 1_555 1_555
F10 C14 1_555 1_555
F11 C14 1_555 1_555
F12 C14 1_555 1_555
O6 Cu1 1_555 1_555
O7 N1 1_555 1_555
N1 C18 1_555 1_555
C15 C16 1_555 1_555
C16 H5 1_555 1_555
H6 C16 1_555 1_555
H7 C16 1_555 1_555
C17 C15 1_555 1_555
H8 C17 1_555 1_555
H9 C17 1_555 1_555
H10 C17 1_555 1_555
C18 C15 1_555 1_555
C19 C18 1_555 1_555
H11 C19 1_555 1_555
H12 C19 1_555 1_555
H13 C19 1_555 1_555
C20 C18 1_555 1_555
H14 C20 1_555 1_555
H15 C20 1_555 1_555
H16 C20 1_555 1_555
N2 C15 1_555 1_555
O8 N2 1_555 1_555
C21 N1 1_555 1_555
C22 C21 1_555 1_555
C23 C22 1_555 1_555
H17 C23 1_555 1_555
C24 C23 1_555 1_555
H18 C24 1_555 1_555
C25 C24 1_555 1_555
C26 C25 1_555 1_555
N3 Cu2 1_555 1_555
C27 C25 1_555 1_555
H19 C27 1_555 1_555
C28 C22 1_555 1_555
H20 C28 1_555 1_555
Cu1A O7 1_555 1_555
O7A Cu1 1_555 1_555
Cu2 O5 1_555 1_555
C4 O2 1_555 1_555
C6 O3 1_555 1_555
C8 C9 1_555 1_555
C11 O5 1_555 1_555
C13 O6 1_555 1_555
N2 C21 1_555 1_555
C26 N3 1_555 1_555
C27 C28 1_555 1_555

#END
