
#######################################################################
#
#                 Cambridge Crystallographic Data Centre
#                                CCDC 
#
#######################################################################
#
# If this CIF has been generated from an entry in the Cambridge 
# Structural Database, then it will include bibliographic, chemical, 
# crystal, experimental, refinement or atomic coordinate data resulting 
# from the CCDC's data processing and validation procedures.
#
#######################################################################

data_APIJUF
_symmetry_cell_setting           monoclinic
_symmetry_space_group_name_H-M   'P 21/c'
_symmetry_Int_Tables_number      14
_space_group_name_Hall           '-P 2ybc'
loop_
_symmetry_equiv_pos_site_id
_symmetry_equiv_pos_as_xyz
1 x,y,z
2 -x,1/2+y,1/2-z
3 -x,-y,-z
4 x,1/2-y,1/2+z
_cell_length_a                   11.193(3)
_cell_length_b                   14.738(4)
_cell_length_c                   13.136(4)
_cell_angle_alpha                90
_cell_angle_beta                 108.471(5)
_cell_angle_gamma                90
_cell_volume                     2055.31
loop_
_atom_site_label
_atom_site_type_symbol
_atom_site_fract_x
_atom_site_fract_y
_atom_site_fract_z
Mn1 Mn 0.96571(4) 0.01907(3) 0.36605(4)
O1 O 1.0822(2) -0.01111(18) 0.27670(18)
C1 C 1.2530(4) -0.0532(4) 0.2231(3)
F1 F 1.1981(4) -0.1203(3) 0.1596(3)
F2 F 1.2421(4) 0.0194(3) 0.1642(3)
F3 F 1.3737(3) -0.0729(3) 0.2558(2)
C2 C 1.1949(3) -0.0403(2) 0.3119(3)
C3 C 1.2648(3) -0.0631(2) 0.4140(3)
H1 H 1.3476 -0.0826 0.4239
C4 C 1.2261(3) -0.0607(2) 0.5078(3)
O2 O 1.11591(19) -0.03196(14) 0.50406(16)
C5 C 1.3142(3) -0.0927(3) 0.6043(3)
H2 H 1.3935 -0.1104 0.6010
C6 C 1.2952(3) -0.1004(2) 0.7025(3)
C7 C 1.4017(3) -0.1401(3) 0.7937(3)
F4 F 1.3679(3) -0.2084(3) 0.8381(3)
F5 F 1.4472(4) -0.0860(3) 0.8702(3)
F6 F 1.4960(3) -0.1688(4) 0.7703(3)
O3 O 1.2006(2) -0.07842(15) 0.72951(16)
O4 O 0.8793(2) -0.11711(15) 0.32548(17)
N1 N 0.8636(3) -0.17037(19) 0.2434(2)
C8 C 0.7566(3) -0.1572(2) 0.1405(3)
C9 C 0.6362(4) -0.1378(3) 0.1653(3)
H3 H 0.6422 -0.0789 0.1996
H4 H 0.6232 -0.1842 0.2132
H5 H 0.5658 -0.1378 0.0992
C10 C 0.7933(4) -0.0769(3) 0.0832(3)
H6 H 0.7886 -0.0213 0.1213
H7 H 0.7360 -0.0731 0.0104
H8 H 0.8786 -0.0852 0.0816
C11 C 0.7614(3) -0.2505(2) 0.0851(3)
C12 C 0.6788(4) -0.3225(3) 0.1116(4)
H9 H 0.6855 -0.3785 0.0751
H10 H 0.5919 -0.3021 0.0882
H11 H 0.7062 -0.3328 0.1885
C13 C 0.7402(4) -0.2468(3) -0.0349(3)
H12 H 0.7450 -0.3076 -0.0616
H13 H 0.8044 -0.2091 -0.0487
H14 H 0.6577 -0.2214 -0.0710
N2 N 0.8948(3) -0.27841(19) 0.1425(2)
O5 O 0.9499(2) -0.34087(17) 0.10524(19)
C14 C 0.9434(3) -0.2355(2) 0.2371(3)
C15 C 1.0640(3) -0.2573(3) 0.3195(3)
H15 H 1.1029 -0.2008 0.3537
H16 H 1.1206 -0.2845 0.2843
C16 C 1.0520(5) -0.3211(4) 0.4049(3)
H17 H 1.1347 -0.3326 0.4558
H18 H 1.0152 -0.3778 0.3721
H19 H 0.9984 -0.2940 0.4419
Mn1B Mn 1.03429(4) -0.01907(3) 0.63395(4)
Mn1A Mn 1.03429(4) -0.48093(3) 0.13395(4)
O2B O 0.88409(19) 0.03196(14) 0.49594(16)
O3B O 0.7994(2) 0.07842(15) 0.27049(16)
O5A O 1.0501(2) 0.15913(17) 0.39476(19)
loop_
_geom_bond_atom_site_label_1
_geom_bond_atom_site_label_2
_geom_bond_site_symmetry_1
_geom_bond_site_symmetry_2
Mn1 O1 1_555 1_555
O1 C2 1_555 1_555
C1 F1 1_555 1_555
F2 C1 1_555 1_555
F3 C1 1_555 1_555
C2 C1 1_555 1_555
C3 C2 1_555 1_555
H1 C3 1_555 1_555
C4 C3 1_555 1_555
O2 Mn1 1_555 1_555
C5 C4 1_555 1_555
H2 C5 1_555 1_555
C6 C5 1_555 1_555
C7 C6 1_555 1_555
F4 C7 1_555 1_555
F5 C7 1_555 1_555
F6 C7 1_555 1_555
O3 C6 1_555 1_555
O4 Mn1 1_555 1_555
N1 O4 1_555 1_555
C8 N1 1_555 1_555
C9 C8 1_555 1_555
H3 C9 1_555 1_555
H4 C9 1_555 1_555
H5 C9 1_555 1_555
C10 C8 1_555 1_555
H6 C10 1_555 1_555
H7 C10 1_555 1_555
H8 C10 1_555 1_555
C11 C8 1_555 1_555
C12 C11 1_555 1_555
H9 C12 1_555 1_555
H10 C12 1_555 1_555
H11 C12 1_555 1_555
C13 C11 1_555 1_555
H12 C13 1_555 1_555
H13 C13 1_555 1_555
H14 C13 1_555 1_555
N2 C11 1_555 1_555
O5 N2 1_555 1_555
C14 N1 1_555 1_555
C15 C14 1_555 1_555
H15 C15 1_555 1_555
H16 C15 1_555 1_555
C16 C15 1_555 1_555
H17 C16 1_555 1_555
H18 C16 1_555 1_555
H19 C16 1_555 1_555
Mn1B O2 1_555 1_555
Mn1A O5 1_555 1_555
O2B Mn1 1_555 1_555
O3B Mn1 1_555 1_555
O5A Mn1 1_555 1_555
C4 O2 1_555 1_555
O3 Mn1B 1_555 1_555
N2 C14 1_555 1_555
Mn1B O2B 1_555 1_555

#END
