
#######################################################################
#
#                 Cambridge Crystallographic Data Centre
#                                CCDC 
#
#######################################################################
#
# If this CIF has been generated from an entry in the Cambridge 
# Structural Database, then it will include bibliographic, chemical, 
# crystal, experimental, refinement or atomic coordinate data resulting 
# from the CCDC's data processing and validation procedures.
#
#######################################################################

data_APINAP
_symmetry_cell_setting           triclinic
_symmetry_space_group_name_H-M   'P -1'
_symmetry_Int_Tables_number      2
_space_group_name_Hall           '-P 1'
loop_
_symmetry_equiv_pos_site_id
_symmetry_equiv_pos_as_xyz
1 x,y,z
2 -x,-y,-z
_cell_length_a                   9.2849(17)
_cell_length_b                   12.227(2)
_cell_length_c                   13.083(2)
_cell_angle_alpha                70.076(3)
_cell_angle_beta                 85.715(3)
_cell_angle_gamma                78.879(3)
_cell_volume                     1370.08
loop_
_atom_site_label
_atom_site_type_symbol
_atom_site_fract_x
_atom_site_fract_y
_atom_site_fract_z
C1 C 0.1337(7) 0.0262(5) 1.1339(5)
C2 C 0.1861(7) 0.0120(5) 1.2440(5)
C3 C 0.1060(8) -0.0355(6) 1.3362(6)
H1 H 0.0172 -0.0574 1.3306
C4 C 0.1584(11) -0.0503(7) 1.4368(6)
H2 H 0.1061 -0.0845 1.4993
C5 C 0.2863(12) -0.0153(8) 1.4453(7)
H3 H 0.3202 -0.0244 1.5133
C6 C 0.3647(10) 0.0331(7) 1.3542(8)
H4 H 0.4515 0.0577 1.3600
C7 C 0.3152(8) 0.0455(6) 1.2531(6)
H5 H 0.3700 0.0767 1.1911
C8 C 0.3127(7) 0.1744(5) 0.7282(6)
C9 C 0.3971(7) 0.2328(5) 0.6287(5)
C10 C 0.3609(8) 0.2368(6) 0.5284(6)
H6 H 0.2829 0.2023 0.5213
C11 C 0.4384(11) 0.2910(8) 0.4377(6)
H7 H 0.4122 0.2937 0.3696
C12 C 0.5526(12) 0.3405(8) 0.4472(8)
H8 H 0.6049 0.3771 0.3856
C13 C 0.5912(10) 0.3368(8) 0.5470(8)
H9 H 0.6688 0.3721 0.5534
C14 C 0.5150(8) 0.2808(6) 0.6386(6)
H10 H 0.5436 0.2756 0.7069
C15 C -0.6952(7) 0.8345(5) 0.8540(5)
H11 H -0.7714 0.8603 0.8044
C16 C -0.5949(7) 0.7351(5) 0.8564(5)
H12 H -0.6048 0.6946 0.8094
C17 C -0.4799(7) 0.6951(5) 0.9282(5)
C18 C -0.4753(7) 0.7572(5) 0.9975(5)
H13 H -0.4018 0.7320 1.0493
C19 C -0.5781(7) 0.8557(5) 0.9910(5)
H14 H -0.5712 0.8967 1.0382
C20 C -0.3637(7) 0.5940(5) 0.9322(5)
H15 H -0.2936 0.5734 0.9859
C21 C -0.1078(8) 0.2800(5) 0.8056(6)
H16 H -0.1048 0.2429 0.7539
C22 C -0.2177(7) 0.3738(5) 0.7988(5)
H17 H -0.2858 0.3998 0.7431
C23 C -0.2276(7) 0.4300(5) 0.8747(5)
C24 C -0.1203(7) 0.3891(5) 0.9520(5)
H18 H -0.1201 0.4252 1.0041
C25 C -0.0121(7) 0.2936(5) 0.9521(5)
H19 H 0.0595 0.2671 1.0054
C26 C -0.3472(7) 0.5301(5) 0.8699(5)
H20 H -0.4178 0.5491 0.8168
N1 N -0.6873(5) 0.8956(4) 0.9203(4)
N2 N -0.0053(6) 0.2383(4) 0.8806(4)
O1 O 0.2064(5) 0.1305(4) 0.7154(3)
O2 O 0.3448(5) 0.1720(4) 0.8194(4)
O3 O 0.0085(5) 0.0067(4) 1.1274(4)
O4 O 0.2175(5) 0.0590(3) 1.0541(3)
Mn1 Mn 0.16120(10) 0.07126(7) 0.89625(7)
C1A C -0.1337(7) -0.0262(5) 0.8661(5)
C2A C -0.1861(7) -0.0120(5) 0.7560(5)
C3A C -0.1060(8) 0.0355(6) 0.6638(6)
H1A H -0.0172 0.0574 0.6694
C4A C -0.1584(11) 0.0503(7) 0.5632(6)
H2A H -0.1061 0.0845 0.5007
C5A C -0.2863(12) 0.0153(8) 0.5547(7)
H3A H -0.3202 0.0244 0.4867
C6A C -0.3647(10) -0.0331(7) 0.6458(8)
H4A H -0.4515 -0.0577 0.6400
C7A C -0.3152(8) -0.0455(6) 0.7469(6)
H5A H -0.3700 -0.0767 0.8089
C8A C -0.3127(7) -0.1744(5) 1.2718(6)
C9A C -0.3971(7) -0.2328(5) 1.3713(5)
C10A C -0.3609(8) -0.2368(6) 1.4716(6)
H6A H -0.2829 -0.2023 1.4787
C11A C -0.4384(11) -0.2910(8) 1.5623(6)
H7A H -0.4122 -0.2937 1.6304
C12A C -0.5526(12) -0.3405(8) 1.5528(8)
H8A H -0.6049 -0.3771 1.6144
C13A C -0.5912(10) -0.3368(8) 1.4530(8)
H9A H -0.6688 -0.3721 1.4466
C14A C -0.5150(8) -0.2808(6) 1.3614(6)
H10A H -0.5436 -0.2756 1.2931
C15A C -0.3048(7) 0.1655(5) 1.1460(5)
H11A H -0.2286 0.1397 1.1956
C16A C -0.4051(7) 0.2649(5) 1.1436(5)
H12A H -0.3952 0.3054 1.1906
C17A C -0.5201(7) 0.3049(5) 1.0718(5)
C18A C -0.5247(7) 0.2428(5) 1.0025(5)
H13A H -0.5982 0.2680 0.9507
C19A C -0.4219(7) 0.1443(5) 1.0090(5)
H14A H -0.4288 0.1033 0.9618
C20A C -0.6363(7) 0.4060(5) 1.0678(5)
H15A H -0.7064 0.4266 1.0141
C21A C -0.8922(8) 0.7200(5) 1.1944(6)
H16A H -0.8952 0.7571 1.2461
C22A C -0.7823(7) 0.6262(5) 1.2012(5)
H17A H -0.7142 0.6002 1.2569
C23A C -0.7724(7) 0.5700(5) 1.1253(5)
C24A C -0.8797(7) 0.6109(5) 1.0480(5)
H18A H -0.8799 0.5748 0.9959
C25A C -0.9879(7) 0.7064(5) 1.0479(5)
H19A H -1.0595 0.7329 0.9946
C26A C -0.6528(7) 0.4699(5) 1.1301(5)
H20A H -0.5822 0.4509 1.1832
N1_2 N 0.3127(5) -0.1044(4) 0.9203(4)
N1A N -0.3127(5) 0.1044(4) 1.0797(4)
N2A N 0.0053(6) -0.2383(4) 1.1194(4)
N2A_2 N -0.9947(6) 0.7617(4) 1.1194(4)
O1A O -0.2064(5) -0.1305(4) 1.2846(3)
O2A O -0.3448(5) -0.1720(4) 1.1806(4)
O3A O -0.0085(5) -0.0067(4) 0.8726(4)
O4A O -0.2175(5) -0.0590(3) 0.9459(3)
Mn1_2 Mn -0.83880(10) 1.07126(7) 0.89625(7)
Mn1A Mn -0.16120(10) -0.07126(7) 1.10375(7)
Mn1A_2 Mn -1.16120(10) 0.92874(7) 1.10375(7)
C27 C 0.0418(9) 0.5601(7) 0.6092(7)
C28 C 0.1404(11) 0.4786(9) 0.6778(9)
H21 H 0.1740 0.4079 0.6645
C29 C 0.1933(10) 0.4922(7) 0.7636(8)
H22 H 0.2648 0.4316 0.8040
C30 C 0.0522(13) 0.6715(10) 0.7241(9)
H23 H 0.0189 0.7427 0.7366
C31 C 0.0007(11) 0.6575(9) 0.6369(9)
H24 H -0.0672 0.7189 0.5934
C32 C -0.0139(11) 0.5488(7) 0.5152(8)
H25 H -0.0751 0.6147 0.4705
N3 N 0.1518(12) 0.5867(9) 0.7968(7)
C27A C -0.0418(9) 0.4399(7) 0.3908(7)
C28A C -0.1404(11) 0.5214(9) 0.3222(9)
H21A H -0.1740 0.5921 0.3355
C29A C -0.1933(10) 0.5078(7) 0.2364(8)
H22A H -0.2648 0.5684 0.1960
C30A C -0.0522(13) 0.3285(10) 0.2759(9)
H23A H -0.0189 0.2573 0.2634
C31A C -0.0007(11) 0.3425(9) 0.3631(9)
H24A H 0.0672 0.2811 0.4066
C32A C 0.0139(11) 0.4512(7) 0.4848(8)
H25A H 0.0751 0.3853 0.5295
N3A N -0.1518(12) 0.4133(9) 0.2032(7)
loop_
_geom_bond_atom_site_label_1
_geom_bond_atom_site_label_2
_geom_bond_site_symmetry_1
_geom_bond_site_symmetry_2
C1 C2 1_555 1_555
C2 C3 1_555 1_555
C3 H1 1_555 1_555
C4 C3 1_555 1_555
H2 C4 1_555 1_555
C5 C4 1_555 1_555
H3 C5 1_555 1_555
C6 C5 1_555 1_555
H4 C6 1_555 1_555
C7 C2 1_555 1_555
H5 C7 1_555 1_555
C8 C9 1_555 1_555
C9 C10 1_555 1_555
C10 H6 1_555 1_555
C11 C10 1_555 1_555
H7 C11 1_555 1_555
C12 C11 1_555 1_555
H8 C12 1_555 1_555
C13 C12 1_555 1_555
H9 C13 1_555 1_555
C14 C9 1_555 1_555
H10 C14 1_555 1_555
C15 H11 1_555 1_555
C16 C15 1_555 1_555
H12 C16 1_555 1_555
C17 C16 1_555 1_555
C18 C17 1_555 1_555
H13 C18 1_555 1_555
C19 C18 1_555 1_555
H14 C19 1_555 1_555
C20 C17 1_555 1_555
H15 C20 1_555 1_555
C21 H16 1_555 1_555
C22 C21 1_555 1_555
H17 C22 1_555 1_555
C23 C22 1_555 1_555
C24 C23 1_555 1_555
H18 C24 1_555 1_555
C25 C24 1_555 1_555
H19 C25 1_555 1_555
C26 C20 1_555 1_555
H20 C26 1_555 1_555
C27 C28 1_555 1_555
C28 H21 1_555 1_555
C29 C28 1_555 1_555
H22 C29 1_555 1_555
C30 H23 1_555 1_555
C31 C27 1_555 1_555
H24 C31 1_555 1_555
C32 C27 1_555 1_555
H25 C32 1_555 1_555
N1 C15 1_555 1_555
N2 C21 1_555 1_555
N3 C29 1_555 1_555
O1 C8 1_555 1_555
O2 C8 1_555 1_555
O3 C1 1_555 1_555
O4 C1 1_555 1_555
Mn1 N2 1_555 1_555
C1A C2A 1_555 1_555
C2A C3A 1_555 1_555
C3A H1A 1_555 1_555
C4A C3A 1_555 1_555
H2A C4A 1_555 1_555
C5A C4A 1_555 1_555
H3A C5A 1_555 1_555
C6A C5A 1_555 1_555
H4A C6A 1_555 1_555
C7A C2A 1_555 1_555
H5A C7A 1_555 1_555
C8A C9A 1_555 1_555
C9A C10A 1_555 1_555
C10A H6A 1_555 1_555
C11A C10A 1_555 1_555
H7A C11A 1_555 1_555
C12A C11A 1_555 1_555
H8A C12A 1_555 1_555
C13A C12A 1_555 1_555
H9A C13A 1_555 1_555
C14A C9A 1_555 1_555
H10A C14A 1_555 1_555
C15A H11A 1_555 1_555
C16A C15A 1_555 1_555
H12A C16A 1_555 1_555
C17A C16A 1_555 1_555
C18A C17A 1_555 1_555
H13A C18A 1_555 1_555
C19A C18A 1_555 1_555
H14A C19A 1_555 1_555
C20A C17A 1_555 1_555
H15A C20A 1_555 1_555
C21A H16A 1_555 1_555
C22A C21A 1_555 1_555
H17A C22A 1_555 1_555
C23A C22A 1_555 1_555
C24A C23A 1_555 1_555
H18A C24A 1_555 1_555
C25A C24A 1_555 1_555
H19A C25A 1_555 1_555
C26A C20A 1_555 1_555
H20A C26A 1_555 1_555
C27A C28A 1_555 1_555
C28A H21A 1_555 1_555
C29A C28A 1_555 1_555
H22A C29A 1_555 1_555
C30A H23A 1_555 1_555
C31A C27A 1_555 1_555
H24A C31A 1_555 1_555
C32A C32 1_555 1_555
H25A C32A 1_555 1_555
N1_2 Mn1 1_555 1_555
N1A C15A 1_555 1_555
N2A Mn1A 1_555 1_555
N2A_2 C21A 1_555 1_555
N3A C29A 1_555 1_555
O1A C8A 1_555 1_555
O2A C8A 1_555 1_555
O3A Mn1 1_555 1_555
O4A C1A 1_555 1_555
Mn1_2 N1 1_555 1_555
Mn1A O3 1_555 1_555
Mn1A_2 N2A_2 1_555 1_555
C6 C7 1_555 1_555
C13 C14 1_555 1_555
C19 N1 1_555 1_555
C23 C26 1_555 1_555
C25 N2 1_555 1_555
C30 C31 1_555 1_555
C30 N3 1_555 1_555
O1 Mn1 1_555 1_555
O2 Mn1 1_555 1_555
O4 Mn1 1_555 1_555
C1A O3A 1_555 1_555
C6A C7A 1_555 1_555
C13A C14A 1_555 1_555
C19A N1A 1_555 1_555
C23A C26A 1_555 1_555
C25A N2A_2 1_555 1_555
C27A C32A 1_555 1_555
C30A C31A 1_555 1_555
C30A N3A 1_555 1_555
N1A Mn1A 1_555 1_555
O1A Mn1A 1_555 1_555
O2A Mn1A 1_555 1_555
O4A Mn1A 1_555 1_555

#END
