
#######################################################################
#
#                 Cambridge Crystallographic Data Centre
#                                CCDC 
#
#######################################################################
#
# If this CIF has been generated from an entry in the Cambridge 
# Structural Database, then it will include bibliographic, chemical, 
# crystal, experimental, refinement or atomic coordinate data resulting 
# from the CCDC's data processing and validation procedures.
#
#######################################################################

data_APINAP01
_symmetry_cell_setting           triclinic
_symmetry_space_group_name_H-M   'P -1'
_symmetry_Int_Tables_number      2
_space_group_name_Hall           '-P 1'
loop_
_symmetry_equiv_pos_site_id
_symmetry_equiv_pos_as_xyz
1 x,y,z
2 -x,-y,-z
_cell_length_a                   9.2750(19)
_cell_length_b                   12.022(2)
_cell_length_c                   13.158(3)
_cell_angle_alpha                70.92(3)
_cell_angle_beta                 85.37(3)
_cell_angle_gamma                80.44(3)
_cell_volume                     1366.76
loop_
_atom_site_label
_atom_site_type_symbol
_atom_site_fract_x
_atom_site_fract_y
_atom_site_fract_z
Mn1 Mn 0.33255(5) -0.06662(4) 0.10408(4)
O1 O 0.2869(3) -0.1217(2) 0.28388(18)
O2 O 0.1489(3) -0.1737(2) 0.18368(19)
O3 O 0.5017(2) 0.0196(2) 0.12615(19)
O4 O 0.7202(2) 0.0574(2) 0.05318(17)
N1 N 0.1824(3) 0.1087(2) 0.0795(2)
N2 N -0.5012(3) 0.7667(2) 0.1210(2)
C1 C 0.1819(4) -0.1715(3) 0.2735(3)
C2 C 0.0968(4) -0.2320(3) 0.3734(3)
C3 C 0.1352(4) -0.2329(3) 0.4723(3)
H1 H 0.2138 -0.1961 0.4774
C4 C 0.0583(5) -0.2879(4) 0.5644(3)
H2 H 0.0856 -0.2884 0.6310
C5 C -0.0577(5) -0.3417(4) 0.5580(4)
H3 H -0.1097 -0.3782 0.6201
C6 C -0.0974(5) -0.3419(4) 0.4597(4)
H4 H -0.1753 -0.3800 0.4558
C7 C -0.0215(4) -0.2851(4) 0.3652(3)
H5 H -0.0501 -0.2832 0.2985
C8 C 0.1867(4) 0.1717(3) 0.1464(3)
H6 H 0.2603 0.1468 0.1965
C9 C 0.0876(4) 0.2719(3) 0.1448(3)
H7 H 0.0956 0.3131 0.1924
C10 C -0.0244(4) 0.3104(3) 0.0712(3)
C11 C -0.0255(4) 0.2460(3) 0.0004(3)
H8 H -0.0964 0.2698 -0.0516
C12 C 0.0776(4) 0.1474(3) 0.0068(3)
H9 H 0.0741 0.1061 -0.0414
C13 C -0.1394(4) 0.4117(3) 0.0669(3)
H10 H -0.2031 0.4347 0.0102
C14 C -0.1628(4) 0.4740(3) 0.1344(3)
H11 H -0.0986 0.4528 0.1906
C15 C -0.2804(4) 0.5732(3) 0.1287(3)
C16 C -0.2954(4) 0.6304(3) 0.2063(3)
H12 H -0.2314 0.6045 0.2630
C17 C -0.4049(4) 0.7254(3) 0.1995(3)
H13 H -0.4119 0.7623 0.2521
C18 C -0.4887(4) 0.7106(3) 0.0472(3)
H14 H -0.5558 0.7371 -0.0075
C19 C -0.3816(4) 0.6156(3) 0.0478(3)
H15 H -0.3774 0.5803 -0.0057
C26 C 0.6875(4) 0.0137(3) 0.2422(3)
C27 C 0.6325(4) 0.0306(3) 0.1332(3)
C28 C 0.8237(4) 0.0425(3) 0.2515(3)
H21 H 0.8813 0.0715 0.1903
C29 C 0.6046(4) -0.0327(3) 0.3351(3)
H22 H 0.5133 -0.0523 0.3299
C30 C 0.6577(5) -0.0497(4) 0.4345(3)
H23 H 0.6026 -0.0822 0.4962
C31 C 0.7921(5) -0.0190(4) 0.4437(3)
H24 H 0.8271 -0.0299 0.5110
C32 C 0.8736(4) 0.0279(4) 0.3518(3)
H25 H 0.9633 0.0501 0.3574
Mn1A Mn 0.66745(5) 0.06662(4) -0.10408(4)
Mn1_2 Mn -0.66745(5) 0.93338(4) 0.10408(4)
Mn1_3 Mn 1.33255(5) -1.06662(4) 0.10408(4)
O1A O 0.7131(3) 0.1217(2) -0.28388(18)
O2A O 0.8511(3) 0.1737(2) -0.18368(19)
O3A O 0.4983(2) -0.0196(2) -0.12615(19)
O4A O 0.2798(2) -0.0574(2) -0.05318(17)
N1_2 N 1.1824(3) -0.8913(2) 0.0795(2)
N1A N 0.8176(3) -0.1087(2) -0.0795(2)
N2_2 N 0.4988(3) -0.2333(2) 0.1210(2)
N2A N 0.5012(3) 0.2333(2) -0.1210(2)
C1A C 0.8181(4) 0.1715(3) -0.2735(3)
C2A C 0.9032(4) 0.2320(3) -0.3734(3)
C3A C 0.8648(4) 0.2329(3) -0.4723(3)
H1A H 0.7862 0.1961 -0.4774
C4A C 0.9417(5) 0.2879(4) -0.5644(3)
H2A H 0.9144 0.2884 -0.6310
C5A C 1.0577(5) 0.3417(4) -0.5580(4)
H3A H 1.1097 0.3782 -0.6201
C6A C 1.0974(5) 0.3419(4) -0.4597(4)
H4A H 1.1753 0.3800 -0.4558
C7A C 1.0215(4) 0.2851(4) -0.3652(3)
H5A H 1.0501 0.2832 -0.2985
C8_2 C 1.1867(4) -0.8283(3) 0.1464(3)
H6_2 H 1.2603 -0.8532 0.1965
C9_2 C 1.0876(4) -0.7281(3) 0.1448(3)
H7_2 H 1.0956 -0.6869 0.1924
C10_2 C 0.9756(4) -0.6896(3) 0.0712(3)
C11_2 C 0.9745(4) -0.7540(3) 0.0004(3)
H8_2 H 0.9036 -0.7302 -0.0516
C12_2 C 1.0776(4) -0.8526(3) 0.0068(3)
H9_2 H 1.0741 -0.8939 -0.0414
C13_2 C 0.8606(4) -0.5883(3) 0.0669(3)
H10_2 H 0.7969 -0.5653 0.0102
C14_2 C 0.8372(4) -0.5260(3) 0.1344(3)
H11_2 H 0.9014 -0.5472 0.1906
C15_2 C 0.7196(4) -0.4268(3) 0.1287(3)
C16_2 C 0.7046(4) -0.3696(3) 0.2063(3)
H12_2 H 0.7686 -0.3955 0.2630
C17_2 C 0.5951(4) -0.2746(3) 0.1995(3)
H13_2 H 0.5881 -0.2377 0.2521
C18_2 C 0.5113(4) -0.2894(3) 0.0472(3)
H14_2 H 0.4442 -0.2629 -0.0075
C19_2 C 0.6184(4) -0.3844(3) 0.0478(3)
H15_2 H 0.6226 -0.4197 -0.0057
C26A C 0.3125(4) -0.0137(3) -0.2422(3)
C27A C 0.3675(4) -0.0306(3) -0.1332(3)
C28A C 0.1763(4) -0.0425(3) -0.2515(3)
H21A H 0.1187 -0.0715 -0.1903
C29A C 0.3954(4) 0.0327(3) -0.3351(3)
H22A H 0.4867 0.0523 -0.3299
C30A C 0.3423(5) 0.0497(4) -0.4345(3)
H23A H 0.3974 0.0822 -0.4962
C31A C 0.2079(5) 0.0190(4) -0.4437(3)
H24A H 0.1729 0.0299 -0.5110
C32A C 0.1264(4) -0.0279(4) -0.3518(3)
H25A H 0.0367 -0.0501 -0.3574
N3 N 0.3555(4) 0.4153(3) 0.2011(3)
C20 C 0.4502(5) 0.3304(4) 0.2659(4)
H16 H 0.4830 0.2619 0.2474
C21 C 0.5022(5) 0.3383(4) 0.3584(3)
H17 H 0.5669 0.2757 0.4006
C22 C 0.4578(4) 0.4401(3) 0.3885(3)
C23 C 0.3591(4) 0.5277(3) 0.3209(3)
H18 H 0.3241 0.5975 0.3367
C24 C 0.3137(5) 0.5111(4) 0.2316(3)
H19 H 0.2479 0.5719 0.1884
C25 C 0.5117(4) 0.4520(3) 0.4842(3)
H20 H 0.5689 0.3853 0.5283
N3A N 0.6445(4) 0.5847(3) 0.7989(3)
C20A C 0.5498(5) 0.6696(4) 0.7341(4)
H16A H 0.5170 0.7381 0.7526
C21A C 0.4978(5) 0.6617(4) 0.6416(3)
H17A H 0.4331 0.7243 0.5994
C22A C 0.5422(4) 0.5599(3) 0.6115(3)
C23A C 0.6409(4) 0.4723(3) 0.6791(3)
H18A H 0.6759 0.4025 0.6633
C24A C 0.6863(5) 0.4889(4) 0.7684(3)
H19A H 0.7521 0.4281 0.8116
C25A C 0.4883(4) 0.5480(3) 0.5158(3)
H20A H 0.4311 0.6147 0.4717
loop_
_geom_bond_atom_site_label_1
_geom_bond_atom_site_label_2
_geom_bond_site_symmetry_1
_geom_bond_site_symmetry_2
Mn1 O1 1_555 1_555
O1 C1 1_555 1_555
O2 Mn1 1_555 1_555
O3 Mn1 1_555 1_555
O4 C27 1_555 1_555
N1 Mn1 1_555 1_555
N2 C17 1_555 1_555
N3 C20 1_555 1_555
C1 O2 1_555 1_555
C2 C1 1_555 1_555
C3 C2 1_555 1_555
H1 C3 1_555 1_555
C4 C3 1_555 1_555
H2 C4 1_555 1_555
C5 C4 1_555 1_555
H3 C5 1_555 1_555
C6 C5 1_555 1_555
H4 C6 1_555 1_555
C7 C2 1_555 1_555
H5 C7 1_555 1_555
C8 N1 1_555 1_555
H6 C8 1_555 1_555
C9 C8 1_555 1_555
H7 C9 1_555 1_555
C10 C9 1_555 1_555
C11 C10 1_555 1_555
H8 C11 1_555 1_555
C12 N1 1_555 1_555
H9 C12 1_555 1_555
C13 C10 1_555 1_555
H10 C13 1_555 1_555
C14 C13 1_555 1_555
H11 C14 1_555 1_555
C15 C14 1_555 1_555
C16 C15 1_555 1_555
H12 C16 1_555 1_555
C17 C16 1_555 1_555
H13 C17 1_555 1_555
C18 N2 1_555 1_555
H14 C18 1_555 1_555
C19 C15 1_555 1_555
H15 C19 1_555 1_555
C20 H16 1_555 1_555
C21 C20 1_555 1_555
H17 C21 1_555 1_555
C22 C21 1_555 1_555
C23 C22 1_555 1_555
H18 C23 1_555 1_555
C24 N3 1_555 1_555
H19 C24 1_555 1_555
C25 C22 1_555 1_555
H20 C25 1_555 1_555
C26 C27 1_555 1_555
C27 O3 1_555 1_555
C28 C26 1_555 1_555
H21 C28 1_555 1_555
C29 C26 1_555 1_555
H22 C29 1_555 1_555
C30 C29 1_555 1_555
H23 C30 1_555 1_555
C31 C30 1_555 1_555
H24 C31 1_555 1_555
C32 C28 1_555 1_555
H25 C32 1_555 1_555
Mn1A O4 1_555 1_555
Mn1_2 N2 1_555 1_555
Mn1_3 N1_2 1_555 1_555
O1A Mn1A 1_555 1_555
O2A Mn1A 1_555 1_555
O3A Mn1A 1_555 1_555
O4A Mn1 1_555 1_555
N1_2 C8_2 1_555 1_555
N1A Mn1A 1_555 1_555
N2_2 Mn1 1_555 1_555
N2A Mn1A 1_555 1_555
N3A C20A 1_555 1_555
C1A O1A 1_555 1_555
C2A C1A 1_555 1_555
C3A C2A 1_555 1_555
H1A C3A 1_555 1_555
C4A C3A 1_555 1_555
H2A C4A 1_555 1_555
C5A C4A 1_555 1_555
H3A C5A 1_555 1_555
C6A C5A 1_555 1_555
H4A C6A 1_555 1_555
C7A C2A 1_555 1_555
H5A C7A 1_555 1_555
C8_2 H6_2 1_555 1_555
C9_2 C8_2 1_555 1_555
H7_2 C9_2 1_555 1_555
C10_2 C9_2 1_555 1_555
C11_2 C10_2 1_555 1_555
H8_2 C11_2 1_555 1_555
C12_2 N1_2 1_555 1_555
H9_2 C12_2 1_555 1_555
C13_2 C10_2 1_555 1_555
H10_2 C13_2 1_555 1_555
C14_2 C13_2 1_555 1_555
H11_2 C14_2 1_555 1_555
C15_2 C14_2 1_555 1_555
C16_2 C15_2 1_555 1_555
H12_2 C16_2 1_555 1_555
C17_2 N2_2 1_555 1_555
H13_2 C17_2 1_555 1_555
C18_2 N2_2 1_555 1_555
H14_2 C18_2 1_555 1_555
C19_2 C15_2 1_555 1_555
H15_2 C19_2 1_555 1_555
C20A H16A 1_555 1_555
C21A C20A 1_555 1_555
H17A C21A 1_555 1_555
C22A C21A 1_555 1_555
C23A C22A 1_555 1_555
H18A C23A 1_555 1_555
C24A N3A 1_555 1_555
H19A C24A 1_555 1_555
C25A C25 1_555 1_555
H20A C25A 1_555 1_555
C26A C27A 1_555 1_555
C27A O3A 1_555 1_555
C28A C26A 1_555 1_555
H21A C28A 1_555 1_555
C29A C26A 1_555 1_555
H22A C29A 1_555 1_555
C30A C29A 1_555 1_555
H23A C30A 1_555 1_555
C31A C30A 1_555 1_555
H24A C31A 1_555 1_555
C32A C28A 1_555 1_555
H25A C32A 1_555 1_555
C6 C7 1_555 1_555
C11 C12 1_555 1_555
C18 C19 1_555 1_555
C23 C24 1_555 1_555
C31 C32 1_555 1_555
O2A C1A 1_555 1_555
O4A C27A 1_555 1_555
C6A C7A 1_555 1_555
C11_2 C12_2 1_555 1_555
C16_2 C17_2 1_555 1_555
C18_2 C19_2 1_555 1_555
C22A C25A 1_555 1_555
C23A C24A 1_555 1_555
C31A C32A 1_555 1_555

#END
