
#######################################################################
#
#                 Cambridge Crystallographic Data Centre
#                                CCDC 
#
#######################################################################
#
# If this CIF has been generated from an entry in the Cambridge 
# Structural Database, then it will include bibliographic, chemical, 
# crystal, experimental, refinement or atomic coordinate data resulting 
# from the CCDC's data processing and validation procedures.
#
#######################################################################

data_APIQAS
_symmetry_cell_setting           monoclinic
_symmetry_space_group_name_H-M   'P 21/n'
_symmetry_Int_Tables_number      14
_space_group_name_Hall           '-P 2yn'
loop_
_symmetry_equiv_pos_site_id
_symmetry_equiv_pos_as_xyz
1 x,y,z
2 1/2-x,1/2+y,1/2-z
3 -x,-y,-z
4 1/2+x,1/2-y,1/2+z
_cell_length_a                   13.293(3)
_cell_length_b                   11.246(2)
_cell_length_c                   15.050(3)
_cell_angle_alpha                90
_cell_angle_beta                 107.91(3)
_cell_angle_gamma                90
_cell_volume                     2140.84
loop_
_atom_site_label
_atom_site_type_symbol
_atom_site_fract_x
_atom_site_fract_y
_atom_site_fract_z
K1 K 0.61521(4) 0.87268(5) 0.50188(3)
O1 O 0.76675(13) 0.85323(17) 0.66936(11)
O2 O 0.91435(12) 0.57808(16) 0.91312(11)
O3 O 1.05794(12) 0.66753(17) 0.81328(11)
O4 O 0.5279(2) 0.6721(2) 0.54702(17)
C1 C 0.78526(17) 0.7858(2) 0.73726(15)
C2 C 0.70534(17) 0.7618(2) 0.78737(15)
C3 C 0.60604(19) 0.8103(3) 0.77328(19)
C4 C 0.5495(2) 0.7732(3) 0.83242(19)
C5 C 0.5917(2) 0.6920(3) 0.9026(2)
C6 C 0.6915(2) 0.6437(3) 0.91599(19)
C7 C 0.74789(18) 0.6805(2) 0.85771(15)
C8 C 0.85783(18) 0.6495(2) 0.85770(15)
C9 C 0.87877(17) 0.7179(2) 0.78379(14)
C10 C 0.97783(17) 0.7172(2) 0.76373(15)
C11 C 0.98051(17) 0.7818(2) 0.67388(15)
C12 C 1.09065(18) 0.8148(2) 0.67259(14)
C13 C 1.1191(2) 0.9333(3) 0.67110(17)
C14 C 1.2192(3) 0.9654(3) 0.66830(19)
C15 C 1.2914(2) 0.8791(4) 0.6664(2)
C16 C 1.2643(2) 0.7619(3) 0.6665(2)
C17 C 1.16462(19) 0.7292(3) 0.66949(17)
C18 C 0.92138(16) 0.7098(2) 0.58820(14)
C19 C 0.9258(2) 0.5872(3) 0.58659(17)
C20 C 0.8730(2) 0.5238(3) 0.50679(18)
C21 C 0.8143(2) 0.5824(3) 0.42817(18)
C22 C 0.8087(2) 0.7044(3) 0.42826(17)
C23 C 0.86261(19) 0.7677(3) 0.50737(16)
C24 C 0.5598(2) 0.5867(3) 0.59528(19)
C25 C 0.6652(3) 0.5350(5) 0.6054(4)
C26 C 0.4970(4) 0.5273(4) 0.6479(4)
H1 H 0.581(2) 0.865(3) 0.726(2)
H2 H 0.479(2) 0.809(3) 0.823(2)
H3 H 0.554(3) 0.669(3) 0.944(2)
H4 H 0.719(2) 0.597(3) 0.962(2)
H5 H 0.9407(18) 0.855(2) 0.6698(16)
H6 H 1.066(2) 0.995(3) 0.6705(19)
H7 H 1.362(3) 0.900(3) 0.663(2)
H8 H 1.317(3) 0.695(3) 0.664(2)
H9 H 1.150(2) 0.645(3) 0.672(2)
H10 H 0.962(2) 0.546(3) 0.640(2)
H11 H 0.879(2) 0.440(4) 0.507(2)
H12 H 0.778(2) 0.538(3) 0.374(2)
H13 H 0.768(2) 0.745(3) 0.373(2)
H14 H 0.860(2) 0.855(3) 0.5074(19)
H15 H 0.659(3) 0.452(5) 0.583(3)
H16 H 0.703(5) 0.592(6) 0.581(4)
H17 H 0.703(4) 0.530(5) 0.668(4)
H18 H 0.423(4) 0.556(4) 0.613(3)
H19 H 1.236(3) 1.045(3) 0.669(2)
H20 H 0.484(4) 0.437(5) 0.632(3)
H21 H 0.506(5) 0.551(6) 0.705(5)
K1A K 0.88479(4) 0.37268(5) 0.99812(3)
K1C K 1.11521(4) 0.62732(5) 1.00188(3)
O2A O 0.58565(12) 1.07808(16) 0.58688(11)
O2C O 0.41435(12) 0.92192(16) 0.41312(11)
O3C O 0.55794(12) 0.83247(17) 0.31328(11)
loop_
_geom_bond_atom_site_label_1
_geom_bond_atom_site_label_2
_geom_bond_site_symmetry_1
_geom_bond_site_symmetry_2
K1 O1 1_555 1_555
O1 C1 1_555 1_555
O2 C8 1_555 1_555
O3 C10 1_555 1_555
O4 K1 1_555 1_555
C1 C2 1_555 1_555
C2 C3 1_555 1_555
C3 C4 1_555 1_555
C4 C5 1_555 1_555
C5 C6 1_555 1_555
C6 C7 1_555 1_555
C7 C2 1_555 1_555
C8 C7 1_555 1_555
C9 C1 1_555 1_555
C10 C9 1_555 1_555
C11 C10 1_555 1_555
C12 C11 1_555 1_555
C13 C12 1_555 1_555
C14 C13 1_555 1_555
C15 C14 1_555 1_555
C16 C15 1_555 1_555
C17 C12 1_555 1_555
C18 C11 1_555 1_555
C19 C18 1_555 1_555
C20 C19 1_555 1_555
C21 C20 1_555 1_555
C22 C21 1_555 1_555
C23 C18 1_555 1_555
C24 O4 1_555 1_555
C25 C24 1_555 1_555
C26 C24 1_555 1_555
H1 C3 1_555 1_555
H2 C4 1_555 1_555
H3 C5 1_555 1_555
H4 C6 1_555 1_555
H5 C11 1_555 1_555
H6 C13 1_555 1_555
H7 C15 1_555 1_555
H8 C16 1_555 1_555
H9 C17 1_555 1_555
H10 C19 1_555 1_555
H11 C20 1_555 1_555
H12 C21 1_555 1_555
H13 C22 1_555 1_555
H14 C23 1_555 1_555
H15 C25 1_555 1_555
H16 C25 1_555 1_555
H17 C25 1_555 1_555
H18 C26 1_555 1_555
H19 C14 1_555 1_555
H20 C26 1_555 1_555
H21 C26 1_555 1_555
K1A O2 1_555 1_555
K1C O2 1_555 1_555
O2A K1 1_555 1_555
O2C K1 1_555 1_555
O3C K1 1_555 1_555
O3 K1C 1_555 1_555
C8 C9 1_555 1_555
C16 C17 1_555 1_555
C22 C23 1_555 1_555

#END
