
#######################################################################
#
#                 Cambridge Crystallographic Data Centre
#                                CCDC 
#
#######################################################################
#
# If this CIF has been generated from an entry in the Cambridge 
# Structural Database, then it will include bibliographic, chemical, 
# crystal, experimental, refinement or atomic coordinate data resulting 
# from the CCDC's data processing and validation procedures.
#
#######################################################################

data_APIXUT
_symmetry_cell_setting           orthorhombic
_symmetry_space_group_name_H-M   'P b c a'
_symmetry_Int_Tables_number      61
_space_group_name_Hall           '-P 2ac 2ab'
loop_
_symmetry_equiv_pos_site_id
_symmetry_equiv_pos_as_xyz
1 x,y,z
2 1/2-x,-y,1/2+z
3 1/2+x,1/2-y,-z
4 -x,1/2+y,1/2-z
5 -x,-y,-z
6 1/2+x,y,1/2-z
7 1/2-x,1/2+y,z
8 x,1/2-y,1/2+z
_cell_length_a                   8.7745(18)
_cell_length_b                   18.613(4)
_cell_length_c                   24.644(5)
_cell_angle_alpha                90
_cell_angle_beta                 90
_cell_angle_gamma                90
_cell_volume                     4024.85
loop_
_atom_site_label
_atom_site_type_symbol
_atom_site_fract_x
_atom_site_fract_y
_atom_site_fract_z
Cu1 Cu 0.29869(4) -0.118160(16) -0.170510(13)
O1 O 0.0583(2) 0.39858(11) -0.11255(8)
O2 O 0.3707(3) 0.37435(10) -0.22154(10)
O3 O 0.5479(4) 0.32205(13) -0.26945(14)
O4 O 0.1532(4) 0.01883(14) -0.14702(16)
H1 H 0.1408 0.0553 -0.1267
O5 O 0.3416(3) -0.02123(9) -0.19853(9)
N1 N 0.2595(3) 0.29067(11) -0.13671(8)
C1 C 0.0819(3) 0.38061(13) -0.06283(11)
C2 C -0.0154(4) 0.41271(16) -0.02247(13)
H2 H -0.0916 0.4442 -0.0335
C3 C 0.0011(4) 0.39823(17) 0.03094(13)
H3 H -0.0652 0.4192 0.0558
C4 C 0.1185(3) 0.35136(15) 0.05013(11)
C5 C 0.1409(4) 0.34039(18) 0.10625(12)
H4 H 0.0756 0.3625 0.1309
C6 C 0.2556(4) 0.2982(2) 0.12510(12)
H5 H 0.2683 0.2911 0.1622
C7 C 0.3549(4) 0.2654(2) 0.08776(13)
H6 H 0.4354 0.2376 0.1004
C8 C 0.3343(4) 0.27413(18) 0.03267(12)
H7 H 0.4005 0.2514 0.0087
C9 C 0.2151(3) 0.31675(16) 0.01189(11)
C10 C 0.1905(3) 0.32871(14) -0.04547(11)
C11 C 0.2593(3) 0.28185(13) -0.08415(10)
H8 H 0.3085 0.2413 -0.0707
C12 C 0.4417(3) 0.31904(14) -0.23706(11)
C13 C 0.3078(3) 0.23263(14) -0.16991(9)
C14 C 0.3996(3) 0.24549(12) -0.21598(9)
C15 C 0.4557(3) 0.18676(14) -0.24470(10)
H9 H 0.5211 0.1946 -0.2738
C16 C 0.4169(3) 0.11696(13) -0.23109(11)
H10 H 0.4585 0.0786 -0.2502
C17 C 0.3155(3) 0.10435(13) -0.18874(11)
C18 C 0.2624(3) 0.16212(13) -0.15803(10)
H11 H 0.1960 0.1538 -0.1293
C19 C 0.2637(4) 0.02860(16) -0.17614(12)
Cu1C Cu 0.70131(4) 0.381840(16) -0.329490(13)
Cu1F Cu 0.20131(4) 0.381840(16) -0.170510(13)
O1F O 0.4417(2) -0.10142(11) -0.11255(8)
O2F O 0.1293(3) -0.12565(10) -0.22154(10)
O3C O 0.4521(4) -0.17795(13) -0.23055(14)
N1F N 0.2405(3) -0.20933(11) -0.13671(8)
C20 C 0.8243(9) 0.8839(3) -0.1449(4)
H12 H 0.8989 0.8482 -0.1542
H13 H 0.7241 0.8636 -0.1482
H14 H 0.8403 0.8994 -0.1082
C21 C 0.8384(7) 0.9439(3) -0.1807(2)
H15 H 0.9409 0.9630 -0.1778
H16 H 0.8241 0.9275 -0.2177
O6 O 0.7327(9) 1.0000(4) -0.1699(2)
H17 H 0.7436 1.0321 -0.1923
loop_
_geom_bond_atom_site_label_1
_geom_bond_atom_site_label_2
_geom_bond_site_symmetry_1
_geom_bond_site_symmetry_2
Cu1 O5 1_555 1_555
O1 C1 1_555 1_555
O2 C12 1_555 1_555
O3 C12 1_555 1_555
O4 H1 1_555 1_555
O5 C19 1_555 1_555
N1 C11 1_555 1_555
C1 C2 1_555 1_555
C2 H2 1_555 1_555
C3 C2 1_555 1_555
H3 C3 1_555 1_555
C4 C3 1_555 1_555
C5 C4 1_555 1_555
H4 C5 1_555 1_555
C6 C5 1_555 1_555
H5 C6 1_555 1_555
C7 C6 1_555 1_555
H6 C7 1_555 1_555
C8 C7 1_555 1_555
H7 C8 1_555 1_555
C9 C4 1_555 1_555
C10 C1 1_555 1_555
C11 C10 1_555 1_555
H8 C11 1_555 1_555
C12 C14 1_555 1_555
C13 N1 1_555 1_555
C14 C13 1_555 1_555
C15 C14 1_555 1_555
H9 C15 1_555 1_555
C16 C15 1_555 1_555
H10 C16 1_555 1_555
C17 C16 1_555 1_555
C18 C13 1_555 1_555
H11 C18 1_555 1_555
C19 O4 1_555 1_555
C20 H12 1_555 1_555
H13 C20 1_555 1_555
H14 C20 1_555 1_555
C21 C20 1_555 1_555
H15 C21 1_555 1_555
H16 C21 1_555 1_555
O6 C21 1_555 1_555
H17 O6 1_555 1_555
Cu1C O3 1_555 1_555
Cu1F O1 1_555 1_555
O1F Cu1 1_555 1_555
O2F Cu1 1_555 1_555
O3C Cu1 1_555 1_555
N1F Cu1 1_555 1_555
O2 Cu1F 1_555 1_555
N1 Cu1F 1_555 1_555
C8 C9 1_555 1_555
C9 C10 1_555 1_555
C17 C18 1_555 1_555
C17 C19 1_555 1_555

#END
