
#######################################################################
#
#                 Cambridge Crystallographic Data Centre
#                                CCDC 
#
#######################################################################
#
# If this CIF has been generated from an entry in the Cambridge 
# Structural Database, then it will include bibliographic, chemical, 
# crystal, experimental, refinement or atomic coordinate data resulting 
# from the CCDC's data processing and validation procedures.
#
#######################################################################

data_APIXED
_symmetry_cell_setting           triclinic
_symmetry_space_group_name_H-M   'P -1'
_symmetry_Int_Tables_number      2
_space_group_name_Hall           '-P 1'
loop_
_symmetry_equiv_pos_site_id
_symmetry_equiv_pos_as_xyz
1 x,y,z
2 -x,-y,-z
_cell_length_a                   11.0507(7)
_cell_length_b                   11.5825(7)
_cell_length_c                   13.7442(8)
_cell_angle_alpha                84.775(1)
_cell_angle_beta                 74.480(1)
_cell_angle_gamma                68.972(1)
_cell_volume                     1582.14
loop_
_atom_site_label
_atom_site_type_symbol
_atom_site_fract_x
_atom_site_fract_y
_atom_site_fract_z
Ag1 Ag 0.81715(3) 0.18208(3) 0.64775(2)
Ag2 Ag 0.64086(3) 0.46562(3) 0.52766(2)
O9 O 0.7281(3) 0.5743(3) 0.6639(2)
O10 O 0.5293(3) 0.6031(3) 0.6440(2)
O11 O 0.4317(3) 0.9127(4) 1.1056(3)
O12 O 0.2418(3) 0.9179(4) 1.0979(3)
N3 N 0.3617(3) 0.8897(3) 1.0623(2)
N4 N 0.9014(4) 0.3074(4) 0.6858(3)
N5 N 0.7197(3) 0.3204(3) 0.4187(3)
N6 N 1.2687(3) -0.0446(4) 0.3590(4)
N7 N 0.9860(3) 0.2454(3) 0.4665(2)
C15 C 0.6058(4) 0.6196(3) 0.6910(3)
C16 C 0.5392(3) 0.6967(3) 0.7856(2)
C17 C 0.4023(3) 0.7308(4) 0.8284(3)
H9 H 0.3493 0.7099 0.7958
C18 C 0.3437(4) 0.7951(4) 0.9183(3)
H10 H 0.2520 0.8172 0.9468
C19 C 0.4228(3) 0.8258(3) 0.9649(3)
C20 C 0.5575(4) 0.7969(4) 0.9230(3)
H11 H 0.6092 0.8215 0.9544
C21 C 0.6153(4) 0.7309(4) 0.8337(3)
H12 H 0.7070 0.7092 0.8057
C22 C 1.0119(7) 0.3231(10) 0.6129(5)
H13 H 0.9985 0.4103 0.6163
H14 H 1.0887 0.2795 0.6400
C23 C 1.0521(7) 0.2972(8) 0.5205(4)
H15 H 1.1437 0.2401 0.5097
H16 H 1.0567 0.3728 0.4856
C24 C 0.9484(4) 0.3252(4) 0.3828(3)
H17 H 1.0285 0.3156 0.3286
H18 H 0.9119 0.4107 0.4054
C25 C 0.8485(4) 0.2991(4) 0.3422(3)
H19 H 0.8330 0.3518 0.2845
H20 H 0.8846 0.2139 0.3192
C26 C 1.1935(4) 0.0889(4) 0.3559(3)
H21 H 1.1777 0.1116 0.2895
H22 H 1.2443 0.1358 0.3699
C27 C 1.0607(3) 0.1170(4) 0.4355(3)
H23 H 1.0033 0.0869 0.4103
H24 H 1.0780 0.0693 0.4952
H25 H 0.655(3) 0.330(3) 0.388(3)
H26 H 0.830(3) 0.378(2) 0.697(3)
H27 H 0.925(4) 0.288(3) 0.7443(17)
H28 H 0.735(4) 0.248(2) 0.451(3)
H29 H 1.338(3) -0.062(4) 0.3043(16)
H30 H 1.302(4) -0.059(4) 0.4137(16)
Ag1A Ag 1.18285(3) -0.18208(3) 0.35225(2)
N6A N 0.7313(3) 0.0446(4) 0.6410(4)
H29A H 0.662(3) 0.062(4) 0.6957(16)
H30A H 0.698(4) 0.059(4) 0.5863(16)
Ag3 Ag 0.44401(3) 0.18310(3) 0.50443(2)
O1 O 0.7336(3) 0.0541(3) 0.4072(2)
O2 O 0.5427(3) 0.0556(3) 0.3805(2)
O3 O 1.0457(3) -0.1966(3) -0.0737(2)
O4 O 0.8734(3) -0.2408(4) -0.0721(2)
O5 O 0.5319(3) 0.2808(3) 0.6334(2)
O6 O 0.3244(3) 0.3170(3) 0.6268(2)
O7 O 0.0929(3) 0.5855(3) 1.0979(2)
O8 O 0.2891(3) 0.5818(4) 1.0930(2)
N1 N 0.9334(3) -0.1958(3) -0.0331(2)
N2 N 0.2111(3) 0.5591(3) 1.0559(2)
C1 C 0.6689(4) 0.0303(3) 0.3564(3)
C2 C 0.7408(3) -0.0332(3) 0.2554(2)
C3 C 0.6761(4) -0.0810(3) 0.2054(3)
H1 H 0.5882 -0.0759 0.2355
C4 C 0.7390(3) -0.1359(3) 0.1122(3)
H2 H 0.6952 -0.1690 0.0794
C5 C 0.8681(3) -0.1410(3) 0.0683(3)
C6 C 0.9365(3) -0.0948(3) 0.1152(3)
H3 H 1.0239 -0.0993 0.0841
C7 C 0.8725(3) -0.0418(3) 0.2095(3)
H4 H 0.9178 -0.0113 0.2430
C8 C 0.4092(4) 0.3238(3) 0.6690(3)
C9 C 0.3566(3) 0.3872(3) 0.7707(2)
C10 C 0.2198(3) 0.4332(3) 0.8150(3)
H5 H 0.1600 0.4258 0.7816
C11 C 0.1723(3) 0.4897(3) 0.9084(3)
H6 H 0.0808 0.5216 0.9381
C12 C 0.2617(3) 0.4983(3) 0.9566(2)
C13 C 0.3976(4) 0.4514(4) 0.9155(3)
H7 H 0.4569 0.4562 0.9505
C14 C 0.4440(3) 0.3972(4) 0.8215(3)
H8 H 0.5356 0.3669 0.7918
loop_
_geom_bond_atom_site_label_1
_geom_bond_atom_site_label_2
_geom_bond_site_symmetry_1
_geom_bond_site_symmetry_2
Ag1 N4 1_555 1_555
Ag2 O10 1_555 1_555
Ag3 O2 1_555 1_555
O1 C1 1_555 1_555
O2 C1 1_555 1_555
O3 N1 1_555 1_555
O4 N1 1_555 1_555
O5 C8 1_555 1_555
O6 Ag3 1_555 1_555
O7 N2 1_555 1_555
O8 N2 1_555 1_555
O9 C15 1_555 1_555
O10 C15 1_555 1_555
O11 N3 1_555 1_555
O12 N3 1_555 1_555
N1 C5 1_555 1_555
N2 C12 1_555 1_555
N3 C19 1_555 1_555
N4 C22 1_555 1_555
N5 Ag2 1_555 1_555
N6 C26 1_555 1_555
N7 C23 1_555 1_555
C1 C2 1_555 1_555
C2 C3 1_555 1_555
C3 H1 1_555 1_555
C4 C3 1_555 1_555
H2 C4 1_555 1_555
C5 C4 1_555 1_555
C6 C5 1_555 1_555
H3 C6 1_555 1_555
C7 C2 1_555 1_555
H4 C7 1_555 1_555
C8 O6 1_555 1_555
C9 C8 1_555 1_555
C10 C9 1_555 1_555
H5 C10 1_555 1_555
C11 C10 1_555 1_555
H6 C11 1_555 1_555
C12 C11 1_555 1_555
C13 C12 1_555 1_555
H7 C13 1_555 1_555
C14 C9 1_555 1_555
H8 C14 1_555 1_555
C15 C16 1_555 1_555
C16 C17 1_555 1_555
C17 H9 1_555 1_555
C18 C17 1_555 1_555
H10 C18 1_555 1_555
C19 C18 1_555 1_555
C20 C19 1_555 1_555
H11 C20 1_555 1_555
C21 C16 1_555 1_555
H12 C21 1_555 1_555
C22 H13 1_555 1_555
H14 C22 1_555 1_555
C23 C22 1_555 1_555
H15 C23 1_555 1_555
H16 C23 1_555 1_555
C24 N7 1_555 1_555
H17 C24 1_555 1_555
H18 C24 1_555 1_555
C25 N5 1_555 1_555
H19 C25 1_555 1_555
H20 C25 1_555 1_555
C26 H21 1_555 1_555
H22 C26 1_555 1_555
C27 N7 1_555 1_555
H23 C27 1_555 1_555
H24 C27 1_555 1_555
H25 N5 1_555 1_555
H26 N4 1_555 1_555
H27 N4 1_555 1_555
H28 N5 1_555 1_555
H29 N6 1_555 1_555
H30 N6 1_555 1_555
Ag1A N6 1_555 1_555
N6A Ag1 1_555 1_555
H29A N6A 1_555 1_555
H30A N6A 1_555 1_555
C6 C7 1_555 1_555
C13 C14 1_555 1_555
C20 C21 1_555 1_555
C24 C25 1_555 1_555
C26 C27 1_555 1_555

#END
