
#######################################################################
#
#                 Cambridge Crystallographic Data Centre
#                                CCDC 
#
#######################################################################
#
# If this CIF has been generated from an entry in the Cambridge 
# Structural Database, then it will include bibliographic, chemical, 
# crystal, experimental, refinement or atomic coordinate data resulting 
# from the CCDC's data processing and validation procedures.
#
#######################################################################

data_APOHAP
_symmetry_cell_setting           monoclinic
_symmetry_space_group_name_H-M   'P 21/n'
_symmetry_Int_Tables_number      14
_space_group_name_Hall           '-P 2yn'
loop_
_symmetry_equiv_pos_site_id
_symmetry_equiv_pos_as_xyz
1 x,y,z
2 1/2-x,1/2+y,1/2-z
3 -x,-y,-z
4 1/2+x,1/2-y,1/2+z
_cell_length_a                   6.85060(10)
_cell_length_b                   10.5210(10)
_cell_length_c                   12.6995(2)
_cell_angle_alpha                90
_cell_angle_beta                 98.773(2)
_cell_angle_gamma                90
_cell_volume                     904.61
loop_
_atom_site_label
_atom_site_type_symbol
_atom_site_fract_x
_atom_site_fract_y
_atom_site_fract_z
Rb1 Rb 0.88724(2) 0.151716(15) 0.812464(13)
Cr1 Cr 1.14270(4) -0.24784(2) 0.86703(2)
C1 C 1.3034(3) -0.00647(16) 0.88956(13)
C2 C 1.4668(2) -0.09441(16) 0.85896(13)
C3 C 0.7224(2) 0.42210(15) 0.97576(13)
C4 C 0.8039(2) 0.49972(16) 1.07657(14)
O1 O 1.32842(19) 0.10743(11) 0.90470(10)
O2 O 1.14109(17) -0.06571(11) 0.89637(9)
O3 O 1.63498(17) -0.05437(12) 0.85618(10)
O4 O 1.41064(17) -0.21016(11) 0.83966(10)
O5 O 0.75040(18) 0.30123(11) 0.98716(9)
O6 O 0.63881(18) 0.47415(11) 0.89465(9)
O7 O 0.84615(17) 0.43090(11) 1.16076(9)
O8 O 0.82660(18) 0.61484(11) 1.07248(10)
O9 O 0.63306(18) 0.24070(12) 0.60184(10)
H1 H 0.662(4) 0.202(2) 0.5536(18)
H2 H 0.689(4) 0.3061(18) 0.607(2)
O10 O 0.47570(19) 0.27580(12) 0.78405(10)
H3 H 0.515(3) 0.3410(15) 0.8111(17)
H4 H 0.442(3) 0.2290(18) 0.8249(16)
Rb1_2 Rb 1.88724(2) 0.151716(15) 0.812464(13)
Rb1A Rb 1.61276(2) -0.348284(15) 0.687536(13)
Rb1A_2 Rb 0.61276(2) 0.651716(15) 0.687536(13)
Rb1B Rb 1.11276(2) 0.848284(15) 1.187536(13)
Cr1B Cr 0.85730(4) 0.24784(2) 1.13297(2)
Cr1A Cr 0.35730(4) 0.25216(2) 0.63297(2)
O3_2 O 0.63498(17) -0.05437(12) 0.85618(10)
O4A O 1.08936(17) 0.28984(11) 0.66034(10)
O5B O 1.24960(18) -0.30123(11) 1.01284(9)
O6A O 0.86119(18) -0.02585(11) 0.60535(9)
O7B O 1.15385(17) -0.43090(11) 0.83924(9)
O8B O 1.17340(18) 0.38516(11) 0.92752(10)
O9A O 0.86694(18) -0.25930(12) 0.89816(10)
H1A H 0.838(4) -0.298(2) 0.9464(18)
H2A H 0.811(4) -0.1939(18) 0.893(2)
O10A O 1.02430(19) -0.22420(12) 0.71595(10)
H3A H 0.985(3) -0.1590(15) 0.6889(17)
H4A H 1.058(3) -0.2710(18) 0.6751(16)
loop_
_geom_bond_atom_site_label_1
_geom_bond_atom_site_label_2
_geom_bond_site_symmetry_1
_geom_bond_site_symmetry_2
Rb1 O1 1_555 1_555
Cr1 O2 1_555 1_555
C1 C2 1_555 1_555
C2 O3 1_555 1_555
C3 C4 1_555 1_555
C4 O7 1_555 1_555
O1 C1 1_555 1_555
O2 Rb1 1_555 1_555
O3 Rb1_2 1_555 1_555
O4 Cr1 1_555 1_555
O5 Rb1 1_555 1_555
O6 C3 1_555 1_555
O7 Cr1B 1_555 1_555
O8 C4 1_555 1_555
O9 Rb1 1_555 1_555
H1 O9 1_555 1_555
H2 O9 1_555 1_555
O10 Rb1 1_555 1_555
H3 O10 1_555 1_555
H4 O10 1_555 1_555
Rb1A O4 1_555 1_555
Rb1A_2 O6 1_555 1_555
Rb1B O8 1_555 1_555
Cr1B O5 1_555 1_555
Cr1A O9 1_555 1_555
O3_2 Rb1 1_555 1_555
O4A Rb1 1_555 1_555
O5B Cr1 1_555 1_555
O6A Rb1 1_555 1_555
O7B Cr1 1_555 1_555
O8B Rb1 1_555 1_555
O9A Cr1 1_555 1_555
H1A O9A 1_555 1_555
H2A O9A 1_555 1_555
O10A Cr1 1_555 1_555
H3A O10A 1_555 1_555
H4A O10A 1_555 1_555
C1 O2 1_555 1_555
C2 O4 1_555 1_555
C3 O5 1_555 1_555
O10 Cr1A 1_555 1_555

#END
