
#######################################################################
#
#                 Cambridge Crystallographic Data Centre
#                                CCDC 
#
#######################################################################
#
# If this CIF has been generated from an entry in the Cambridge 
# Structural Database, then it will include bibliographic, chemical, 
# crystal, experimental, refinement or atomic coordinate data resulting 
# from the CCDC's data processing and validation procedures.
#
#######################################################################

data_APOJIZ
_symmetry_cell_setting           triclinic
_symmetry_space_group_name_H-M   'P -1'
_symmetry_Int_Tables_number      2
_space_group_name_Hall           '-P 1'
loop_
_symmetry_equiv_pos_site_id
_symmetry_equiv_pos_as_xyz
1 x,y,z
2 -x,-y,-z
_cell_length_a                   5.0936(8)
_cell_length_b                   9.8320(13)
_cell_length_c                   12.8114(14)
_cell_angle_alpha                73.9520(10)
_cell_angle_beta                 78.6790(10)
_cell_angle_gamma                83.706(2)
_cell_volume                     603.554
loop_
_atom_site_label
_atom_site_type_symbol
_atom_site_fract_x
_atom_site_fract_y
_atom_site_fract_z
Cu1 Cu 0.9547(2) 0.51350(10) -0.11430(7)
N1 N 0.1943(16) -0.0535(8) 0.1871(6)
O1 O 0.8339(12) 0.4093(6) 0.0364(4)
O2 O 0.9433(13) 0.3492(6) 0.2479(5)
O3 O 0.7531(14) 0.1650(6) 0.3642(5)
O4 O 0.6860(12) 0.4442(6) -0.1670(4)
O5 O 0.3080(12) 0.3455(6) -0.1527(5)
O6 O 0.2170(18) -0.1335(8) 0.2781(6)
O7 O 0.0526(17) -0.0743(8) 0.1284(7)
C1 C 0.7947(18) 0.2457(9) 0.2697(7)
C2 C 0.5049(17) 0.3587(8) -0.1125(6)
C3 C 0.6768(16) 0.3013(8) 0.0736(6)
C4 C 0.6566(17) 0.2176(9) 0.1838(7)
C5 C 0.4978(18) 0.1016(9) 0.2182(7)
H9 H 0.4878 0.0439 0.2897
C6 C 0.3565(17) 0.0714(8) 0.1481(7)
C7 C 0.3565(17) 0.1554(9) 0.0424(7)
H10 H 0.2513 0.1351 -0.0024
C8 C 0.5171(17) 0.2717(8) 0.0036(6)
Cu1A Cu 1.0453(2) 0.48650(10) 0.11430(7)
Cu1_2 Cu -0.0453(2) 0.51350(10) -0.11430(7)
Cu1A_2 Cu 2.0453(2) 0.48650(10) 0.11430(7)
N1A N 1.8057(16) 1.0535(8) -0.1871(6)
O1A O 1.1661(12) 0.5907(6) -0.0364(4)
O2A O 1.0567(13) 0.6508(6) -0.2479(5)
O3A O 1.2469(14) 0.8350(6) -0.3642(5)
O4A O 1.3140(12) 0.5558(6) 0.1670(4)
O5A O 1.6920(12) 0.6545(6) 0.1527(5)
O5_2 O 1.3080(12) 0.3455(6) -0.1527(5)
O5A_2 O 0.6920(12) 0.6545(6) 0.1527(5)
O6A O 1.7830(18) 1.1335(8) -0.2781(6)
O7A O 1.9474(17) 1.0743(8) -0.1284(7)
C1A C 1.2053(18) 0.7543(9) -0.2697(7)
C2A C 1.4951(17) 0.6413(8) 0.1125(6)
C3A C 1.3232(16) 0.6987(8) -0.0736(6)
C4A C 1.3434(17) 0.7824(9) -0.1838(7)
C5A C 1.5022(18) 0.8984(9) -0.2182(7)
H9A H 1.5122 0.9561 -0.2897
C6A C 1.6435(17) 0.9286(8) -0.1481(7)
C7A C 1.6435(17) 0.8446(9) -0.0424(7)
H10A H 1.7487 0.8649 0.0024
C8A C 1.4829(17) 0.7283(8) -0.0036(6)
Mg1 Mg 0.5000 0.5000 0.5000
O8 O 0.7282(13) 0.6380(7) 0.3713(5)
H1 H 0.7197 0.7209 0.3803
H2 H 0.7283 0.6338 0.3060
O9 O 0.6800(12) 0.5600(6) 0.6088(5)
H3 H 0.8415 0.5836 0.5935
H4 H 0.6613 0.5039 0.6732
O10 O 0.8024(12) 0.3378(6) 0.4925(5)
H5 H 0.7792 0.2810 0.4561
H6 H 0.8340 0.2797 0.5521
O8A O 0.2718(13) 0.3620(7) 0.6287(5)
H1A H 0.2803 0.2791 0.6197
H2A H 0.2717 0.3662 0.6940
O9A O 0.3200(12) 0.4400(6) 0.3912(5)
H3A H 0.1585 0.4164 0.4065
H4A H 0.3387 0.4961 0.3268
O10A O 0.1976(12) 0.6622(6) 0.5075(5)
H5A H 0.2208 0.7190 0.5439
H6A H 0.1660 0.7203 0.4479
O11 O 0.7303(15) 0.8689(7) 0.4559(6)
H7 H 0.6149 0.8561 0.5149
H8 H 0.7547 0.9563 0.4263
loop_
_geom_bond_atom_site_label_1
_geom_bond_atom_site_label_2
_geom_bond_site_symmetry_1
_geom_bond_site_symmetry_2
Cu1 O1 1_555 1_555
Mg1 O8 1_555 1_555
N1 O6 1_555 1_555
O1 C3 1_555 1_555
O2 C1 1_555 1_555
O3 C1 1_555 1_555
O4 Cu1 1_555 1_555
O5 C2 1_555 1_555
O7 N1 1_555 1_555
O8 H1 1_555 1_555
H2 O8 1_555 1_555
O9 Mg1 1_555 1_555
H3 O9 1_555 1_555
H4 O9 1_555 1_555
O10 Mg1 1_555 1_555
H5 O10 1_555 1_555
H6 O10 1_555 1_555
O11 H7 1_555 1_555
H8 O11 1_555 1_555
C1 C4 1_555 1_555
C2 O4 1_555 1_555
C3 C4 1_555 1_555
C4 C5 1_555 1_555
C5 H9 1_555 1_555
C6 N1 1_555 1_555
C7 C6 1_555 1_555
H10 C7 1_555 1_555
C8 C2 1_555 1_555
Cu1A O1 1_555 1_555
Cu1_2 O5 1_555 1_555
Cu1A_2 O5A 1_555 1_555
N1A O6A 1_555 1_555
O1A Cu1 1_555 1_555
O2A Cu1 1_555 1_555
O3A C1A 1_555 1_555
O4A Cu1A 1_555 1_555
O5A C2A 1_555 1_555
O5_2 Cu1 1_555 1_555
O5A_2 Cu1A 1_555 1_555
O7A N1A 1_555 1_555
O8A Mg1 1_555 1_555
H1A O8A 1_555 1_555
H2A O8A 1_555 1_555
O9A Mg1 1_555 1_555
H3A O9A 1_555 1_555
H4A O9A 1_555 1_555
O10A Mg1 1_555 1_555
H5A O10A 1_555 1_555
H6A O10A 1_555 1_555
C1A O2A 1_555 1_555
C2A O4A 1_555 1_555
C3A O1A 1_555 1_555
C4A C1A 1_555 1_555
C5A C4A 1_555 1_555
H9A C5A 1_555 1_555
C6A N1A 1_555 1_555
C7A C6A 1_555 1_555
H10A C7A 1_555 1_555
C8A C2A 1_555 1_555
O2 Cu1A 1_555 1_555
C3 C8 1_555 1_555
C5 C6 1_555 1_555
C7 C8 1_555 1_555
Cu1A O1A 1_555 1_555
C3A C4A 1_555 1_555
C3A C8A 1_555 1_555
C5A C6A 1_555 1_555
C7A C8A 1_555 1_555

#END
