
#######################################################################
#
#                 Cambridge Crystallographic Data Centre
#                                CCDC 
#
#######################################################################
#
# If this CIF has been generated from an entry in the Cambridge 
# Structural Database, then it will include bibliographic, chemical, 
# crystal, experimental, refinement or atomic coordinate data resulting 
# from the CCDC's data processing and validation procedures.
#
#######################################################################

data_APOKAS
_symmetry_cell_setting           monoclinic
_symmetry_space_group_name_H-M   'C 2/c'
_symmetry_Int_Tables_number      15
_space_group_name_Hall           '-C 2yn'
loop_
_symmetry_equiv_pos_site_id
_symmetry_equiv_pos_as_xyz
1 x,y,z
2 -x,y,1/2-z
3 1/2+x,1/2+y,z
4 1/2-x,1/2+y,1/2-z
5 -x,-y,-z
6 x,-y,1/2+z
7 1/2-x,1/2-y,-z
8 1/2+x,1/2-y,1/2+z
_cell_length_a                   17.450(10)
_cell_length_b                   15.480(8)
_cell_length_c                   12.636(7)
_cell_angle_alpha                90
_cell_angle_beta                 118.545(7)
_cell_angle_gamma                90
_cell_volume                     2998.4
loop_
_atom_site_label
_atom_site_type_symbol
_atom_site_fract_x
_atom_site_fract_y
_atom_site_fract_z
C1 C 0.6155(2) 0.8386(2) 0.2543(3)
H1 H 0.6511 0.8459 0.3367
C2 C 0.6153(3) 0.7683(2) 0.1914(3)
H2 H 0.6494 0.7189 0.2211
C3 C 0.5210(2) 0.8621(2) 0.0724(3)
H3 H 0.4779 0.8879 0.0029
C4 C 0.5235(3) 0.7233(2) -0.0252(3)
H4 H 0.5720 0.6877 -0.0163
H5 H 0.5021 0.7549 -0.1003
C5 C 0.4522(3) 0.6661(2) -0.0309(3)
C6 C 0.4321(2) 0.5920(2) -0.1015(3)
C7 C 0.3654(3) 0.5381(3) -0.1128(3)
H6 H 0.3517 0.4889 -0.1607
C8 C 0.3196(3) 0.5578(3) -0.0526(4)
H7 H 0.2749 0.5214 -0.0602
C9 C 0.3383(3) 0.6295(3) 0.0179(3)
H8 H 0.3073 0.6420 0.0588
C10 C 0.4048(3) 0.6837(2) 0.0275(3)
H9 H 0.4175 0.7332 0.0747
C11 C 0.4669(3) 0.50619(19) -0.2295(4)
H10 H 0.4088 0.5089 -0.2979
H11 H 0.4716 0.4540 -0.1843
C12 C 0.3686(2) 1.1113(2) 0.1336(3)
C13 C 0.3053(2) 1.1823(2) 0.0640(3)
C14 C 0.2562(2) 1.1788(2) -0.0604(3)
H12 H 0.2602 1.1308 -0.1016
C15 C 0.2983(2) 1.2540(2) 0.1233(3)
H13 H 0.3309 1.2572 0.2068
Cd1 Cd 0.5000 0.999407(19) 0.2500
N1 N 0.55581(19) 0.89788(17) 0.1793(3)
N2 N 0.55440(19) 0.78475(18) 0.0749(2)
O1 O 0.48294(17) 0.57990(14) -0.15526(19)
O2 O 0.38346(15) 1.05354(15) 0.07587(19)
O3 O 0.40546(17) 1.11282(15) 0.2465(2)
C1A C 0.3845(2) 0.8386(2) -0.7543(3)
H1A H 0.3489 0.8459 -0.8367
C2A C 0.3847(3) 0.7683(2) -0.6914(3)
H2A H 0.3506 0.7189 -0.7211
C3A C 0.4790(2) 0.8621(2) -0.5724(3)
H3A H 0.5221 0.8879 -0.5029
C4A C 0.4765(3) 0.7233(2) -0.4748(3)
H4A H 0.4280 0.6877 -0.4837
H5A H 0.4979 0.7549 -0.3997
C5A C 0.5478(3) 0.6661(2) -0.4691(3)
C6A C 0.5679(2) 0.5920(2) -0.3985(3)
C7A C 0.6346(3) 0.5381(3) -0.3872(3)
H6A H 0.6483 0.4889 -0.3393
C8A C 0.6804(3) 0.5578(3) -0.4474(4)
H7A H 0.7251 0.5214 -0.4398
C9A C 0.6617(3) 0.6295(3) -0.5179(3)
H8A H 0.6927 0.6420 -0.5588
C10A C 0.5952(3) 0.6837(2) -0.5275(3)
H9A H 0.5825 0.7332 -0.5747
C11A C 0.5331(3) 0.50619(19) -0.2705(4)
H10A H 0.5912 0.5089 -0.2021
H11A H 0.5284 0.4540 -0.3157
C12F C 0.1314(2) 1.3887(2) -0.1336(3)
C13F C 0.1947(2) 1.3177(2) -0.0640(3)
C14F C 0.2438(2) 1.3212(2) 0.0604(3)
H12F H 0.2398 1.3692 0.1016
C15F C 0.2017(2) 1.2460(2) -0.1233(3)
H13F H 0.1691 1.2428 -0.2068
Cd1_2 Cd 0.5000 0.999407(19) -0.7500
Cd1F Cd 0.0000 1.500593(19) -0.2500
N1A N 0.44419(19) 0.89788(17) -0.6793(3)
N1A_2 N 0.44419(19) 0.89788(17) 0.3207(3)
N2A N 0.44560(19) 0.78475(18) -0.5749(2)
O1A O 0.51706(17) 0.57990(14) -0.34474(19)
O2F O 0.11654(15) 1.44646(15) -0.07587(19)
O2A O 0.61654(15) 1.05354(15) 0.42413(19)
O3F O 0.09454(17) 1.38718(15) -0.2465(2)
O3A O 0.59454(17) 1.11282(15) 0.2535(2)
O4 O 0.3005(2) 0.9244(2) -0.1301(3)
H14 H 0.3331 0.9213 -0.1623
H15 H 0.3204 0.9594 -0.0690
loop_
_geom_bond_atom_site_label_1
_geom_bond_atom_site_label_2
_geom_bond_site_symmetry_1
_geom_bond_site_symmetry_2
C1 H1 1_555 1_555
C2 C1 1_555 1_555
H2 C2 1_555 1_555
C3 H3 1_555 1_555
C4 H4 1_555 1_555
H5 C4 1_555 1_555
C5 C4 1_555 1_555
C6 C5 1_555 1_555
C7 C6 1_555 1_555
H6 C7 1_555 1_555
C8 C7 1_555 1_555
H7 C8 1_555 1_555
C9 C8 1_555 1_555
H8 C9 1_555 1_555
C10 C5 1_555 1_555
H9 C10 1_555 1_555
C11 H10 1_555 1_555
H11 C11 1_555 1_555
C12 C13 1_555 1_555
C13 C14 1_555 1_555
C14 H12 1_555 1_555
C15 C13 1_555 1_555
H13 C15 1_555 1_555
Cd1 N1 1_555 1_555
N1 C1 1_555 1_555
N2 C2 1_555 1_555
O1 C6 1_555 1_555
O2 C12 1_555 1_555
O3 C12 1_555 1_555
O4 H14 1_555 1_555
H15 O4 1_555 1_555
C1A H1A 1_555 1_555
C2A C1A 1_555 1_555
H2A C2A 1_555 1_555
C3A H3A 1_555 1_555
C4A H4A 1_555 1_555
H5A C4A 1_555 1_555
C5A C4A 1_555 1_555
C6A C5A 1_555 1_555
C7A C6A 1_555 1_555
H6A C7A 1_555 1_555
C8A C7A 1_555 1_555
H7A C8A 1_555 1_555
C9A C8A 1_555 1_555
H8A C9A 1_555 1_555
C10A C5A 1_555 1_555
H9A C10A 1_555 1_555
C11A C11 1_555 1_555
H10A C11A 1_555 1_555
H11A C11A 1_555 1_555
C12F C13F 1_555 1_555
C13F C14F 1_555 1_555
C14F C15 1_555 1_555
H12F C14F 1_555 1_555
C15F C14 1_555 1_555
H13F C15F 1_555 1_555
Cd1_2 N1A 1_555 1_555
Cd1F O2F 1_555 1_555
N1A C1A 1_555 1_555
N1A_2 Cd1 1_555 1_555
N2A C2A 1_555 1_555
O1A C6A 1_555 1_555
O2F C12F 1_555 1_555
O2A Cd1 1_555 1_555
O3F C12F 1_555 1_555
O3A Cd1 1_555 1_555
C3 N1 1_555 1_555
C3 N2 1_555 1_555
C4 N2 1_555 1_555
C9 C10 1_555 1_555
C11 O1 1_555 1_555
Cd1 O2 1_555 1_555
Cd1 O3 1_555 1_555
C3A N1A 1_555 1_555
C3A N2A 1_555 1_555
C4A N2A 1_555 1_555
C9A C10A 1_555 1_555
C11A O1A 1_555 1_555
C13F C15F 1_555 1_555
Cd1F O3F 1_555 1_555

#END
