
#######################################################################
#
#                 Cambridge Crystallographic Data Centre
#                                CCDC 
#
#######################################################################
#
# If this CIF has been generated from an entry in the Cambridge 
# Structural Database, then it will include bibliographic, chemical, 
# crystal, experimental, refinement or atomic coordinate data resulting 
# from the CCDC's data processing and validation procedures.
#
#######################################################################

data_APOKEW
_symmetry_cell_setting           monoclinic
_symmetry_space_group_name_H-M   'C 2/c'
_symmetry_Int_Tables_number      15
_space_group_name_Hall           '-C 2yn'
loop_
_symmetry_equiv_pos_site_id
_symmetry_equiv_pos_as_xyz
1 x,y,z
2 -x,y,1/2-z
3 1/2+x,1/2+y,z
4 1/2-x,1/2+y,1/2-z
5 -x,-y,-z
6 x,-y,1/2+z
7 1/2-x,1/2-y,-z
8 1/2+x,1/2-y,1/2+z
_cell_length_a                   17.612(3)
_cell_length_b                   14.896(3)
_cell_length_c                   12.711(3)
_cell_angle_alpha                90
_cell_angle_beta                 119.724(3)
_cell_angle_gamma                90
_cell_volume                     2895.94
loop_
_atom_site_label
_atom_site_type_symbol
_atom_site_fract_x
_atom_site_fract_y
_atom_site_fract_z
C1 C 0.6175(2) 0.8515(2) 0.2664(3)
H1 H 0.6531 0.8592 0.3495
C2 C 0.6193(2) 0.7806(2) 0.2026(3)
H2 H 0.6554 0.7305 0.2330
C3 C 0.5215(2) 0.8749(2) 0.0821(3)
H3 H 0.4773 0.9011 0.0119
C4 C 0.5289(3) 0.7326(2) -0.0149(3)
H4 H 0.5780 0.6961 -0.0036
H5 H 0.5077 0.7654 -0.0901
C5 C 0.4568(2) 0.6719(2) -0.0238(3)
C6 C 0.4356(2) 0.5968(2) -0.0986(3)
C7 C 0.3691(3) 0.5401(2) -0.1118(3)
H6 H 0.3544 0.4903 -0.1624
C8 C 0.3249(3) 0.5572(3) -0.0504(4)
H7 H 0.2809 0.5184 -0.0589
C9 C 0.3447(3) 0.6307(3) 0.0230(4)
H8 H 0.3143 0.6420 0.0641
C10 C 0.4106(2) 0.6881(2) 0.0356(3)
H9 H 0.4238 0.7384 0.0850
C11 C 0.4664(3) 0.5113(2) -0.2308(3)
H10 H 0.4083 0.5164 -0.3009
H11 H 0.4694 0.4561 -0.1884
C12 C 0.3733(2) 1.1107(2) 0.1391(4)
C13 C 0.3076(2) 1.1814(2) 0.0665(3)
C14 C 0.2577(2) 1.1756(2) -0.0581(3)
H12 H 0.2629 1.1255 -0.0978
C15 C 0.2997(2) 1.2567(2) 0.1243(3)
H13 H 0.3332 1.2616 0.2081
Co1 Co 0.5000 1.00653(4) 0.2500
N1 N 0.55500(18) 0.91105(17) 0.1900(3)
N2 N 0.55827(18) 0.79594(17) 0.0849(2)
O1 O 0.48445(17) 0.58633(14) -0.1531(2)
O2 O 0.39016(16) 1.04909(16) 0.0851(2)
O3 O 0.41257(17) 1.11396(15) 0.2520(2)
C1A C 0.3825(2) 0.8515(2) -0.7664(3)
H1A H 0.3469 0.8592 -0.8495
C2A C 0.3807(2) 0.7806(2) -0.7026(3)
H2A H 0.3446 0.7305 -0.7330
C3A C 0.4785(2) 0.8749(2) -0.5821(3)
H3A H 0.5227 0.9011 -0.5119
C4A C 0.4711(3) 0.7326(2) -0.4851(3)
H4A H 0.4220 0.6961 -0.4964
H5A H 0.4923 0.7654 -0.4099
C5A C 0.5432(2) 0.6719(2) -0.4762(3)
C6A C 0.5644(2) 0.5968(2) -0.4014(3)
C7A C 0.6309(3) 0.5401(2) -0.3882(3)
H6A H 0.6456 0.4903 -0.3376
C8A C 0.6751(3) 0.5572(3) -0.4496(4)
H7A H 0.7191 0.5184 -0.4411
C9A C 0.6553(3) 0.6307(3) -0.5230(4)
H8A H 0.6857 0.6420 -0.5641
C10A C 0.5894(2) 0.6881(2) -0.5356(3)
H9A H 0.5762 0.7384 -0.5850
C11A C 0.5336(3) 0.5113(2) -0.2692(3)
H10A H 0.5917 0.5164 -0.1991
H11A H 0.5306 0.4561 -0.3116
C12F C 0.1267(2) 1.3893(2) -0.1391(4)
C13F C 0.1924(2) 1.3186(2) -0.0665(3)
C14F C 0.2423(2) 1.3244(2) 0.0581(3)
H12F H 0.2371 1.3745 0.0978
C15F C 0.2003(2) 1.2433(2) -0.1243(3)
H13F H 0.1668 1.2384 -0.2081
Co1_2 Co 0.5000 1.00653(4) -0.7500
Co1F Co 0.0000 1.49347(4) -0.2500
N1A N 0.44500(18) 0.91105(17) -0.6900(3)
N1A_2 N 0.44500(18) 0.91105(17) 0.3100(3)
N2A N 0.44173(18) 0.79594(17) -0.5849(2)
O1A O 0.51555(17) 0.58633(14) -0.3469(2)
O2F O 0.10984(16) 1.45091(16) -0.0851(2)
O2A O 0.60984(16) 1.04909(16) 0.4149(2)
O3F O 0.08743(17) 1.38604(15) -0.2520(2)
O3A O 0.58743(17) 1.11396(15) 0.2480(2)
O4 O 0.2984(2) 0.9234(3) -0.1337(3)
H14 H 0.3310 0.9203 -0.1659
H15 H 0.3183 0.9584 -0.0726
loop_
_geom_bond_atom_site_label_1
_geom_bond_atom_site_label_2
_geom_bond_site_symmetry_1
_geom_bond_site_symmetry_2
C1 H1 1_555 1_555
C2 C1 1_555 1_555
H2 C2 1_555 1_555
C3 H3 1_555 1_555
C4 H4 1_555 1_555
H5 C4 1_555 1_555
C5 C4 1_555 1_555
C6 C5 1_555 1_555
C7 C6 1_555 1_555
H6 C7 1_555 1_555
C8 C7 1_555 1_555
H7 C8 1_555 1_555
C9 C8 1_555 1_555
H8 C9 1_555 1_555
C10 C5 1_555 1_555
H9 C10 1_555 1_555
C11 H10 1_555 1_555
H11 C11 1_555 1_555
C12 C13 1_555 1_555
C13 C14 1_555 1_555
C14 H12 1_555 1_555
C15 C13 1_555 1_555
H13 C15 1_555 1_555
Co1 N1 1_555 1_555
N1 C1 1_555 1_555
N2 C2 1_555 1_555
O1 C6 1_555 1_555
O2 C12 1_555 1_555
O3 C12 1_555 1_555
O4 H14 1_555 1_555
H15 O4 1_555 1_555
C1A H1A 1_555 1_555
C2A C1A 1_555 1_555
H2A C2A 1_555 1_555
C3A H3A 1_555 1_555
C4A H4A 1_555 1_555
H5A C4A 1_555 1_555
C5A C4A 1_555 1_555
C6A C5A 1_555 1_555
C7A C6A 1_555 1_555
H6A C7A 1_555 1_555
C8A C7A 1_555 1_555
H7A C8A 1_555 1_555
C9A C8A 1_555 1_555
H8A C9A 1_555 1_555
C10A C5A 1_555 1_555
H9A C10A 1_555 1_555
C11A C11 1_555 1_555
H10A C11A 1_555 1_555
H11A C11A 1_555 1_555
C12F C13F 1_555 1_555
C13F C14F 1_555 1_555
C14F C15 1_555 1_555
H12F C14F 1_555 1_555
C15F C14 1_555 1_555
H13F C15F 1_555 1_555
Co1_2 N1A 1_555 1_555
Co1F O2F 1_555 1_555
N1A C1A 1_555 1_555
N1A_2 Co1 1_555 1_555
N2A C2A 1_555 1_555
O1A C6A 1_555 1_555
O2F C12F 1_555 1_555
O2A Co1 1_555 1_555
O3F C12F 1_555 1_555
O3A Co1 1_555 1_555
C3 N1 1_555 1_555
C3 N2 1_555 1_555
C4 N2 1_555 1_555
C9 C10 1_555 1_555
C11 O1 1_555 1_555
Co1 O2 1_555 1_555
Co1 O3 1_555 1_555
C3A N1A 1_555 1_555
C3A N2A 1_555 1_555
C4A N2A 1_555 1_555
C9A C10A 1_555 1_555
C11A O1A 1_555 1_555
C13F C15F 1_555 1_555
Co1F O3F 1_555 1_555

#END
