
#######################################################################
#
#                 Cambridge Crystallographic Data Centre
#                                CCDC 
#
#######################################################################
#
# If this CIF has been generated from an entry in the Cambridge 
# Structural Database, then it will include bibliographic, chemical, 
# crystal, experimental, refinement or atomic coordinate data resulting 
# from the CCDC's data processing and validation procedures.
#
#######################################################################

data_APUSIN
_symmetry_cell_setting           monoclinic
_symmetry_space_group_name_H-M   'C 2/c'
_symmetry_Int_Tables_number      15
_space_group_name_Hall           '-C 2yn'
loop_
_symmetry_equiv_pos_site_id
_symmetry_equiv_pos_as_xyz
1 x,y,z
2 1/2+x,1/2+y,z
3 x,-y,1/2+z
4 1/2+x,1/2-y,1/2+z
5 -x,-y,-z
6 1/2-x,1/2-y,-z
7 -x,y,1/2-z
8 1/2-x,1/2+y,1/2-z
_cell_length_a                   20.609(5)
_cell_length_b                   9.239(2)
_cell_length_c                   19.972(5)
_cell_angle_alpha                90
_cell_angle_beta                 120.28(1)
_cell_angle_gamma                90
_cell_volume                     3283.99
loop_
_atom_site_label
_atom_site_type_symbol
_atom_site_fract_x
_atom_site_fract_y
_atom_site_fract_z
C18 C 1.0000 -0.6842(9) 0.7500
H14 H 1.0000 -0.7870 0.7500
C19 C 0.9451(3) -0.6195(10) 0.7477(3)
H15 H 0.9056 -0.6730 0.7474
C20 C 0.9430(4) -0.4771(13) 0.7458(4)
H16 H 0.9010 -0.4260 0.7415
C21 C 1.0000 -0.4085(15) 0.7500
H17 H 1.0000 -0.3056 0.7500
C20F C 1.0570(4) -0.4771(13) 0.7542(4)
C19F C 1.0549(3) -0.6195(10) 0.7523(3)
H15F H 1.0944 -0.6730 0.7526
H16F H 1.0990 -0.4260 0.7585
Zn1 Zn 1.0000 0.0000 0.5000
C1 C 0.8767(2) 0.0921(4) 0.3446(2)
O1 O 0.93999(13) 0.0324(3) 0.38273(15)
C2 C 0.85018(19) 0.1209(4) 0.2609(2)
C3 C 0.8879(2) 0.0553(4) 0.2279(2)
H1 H 0.9293 -0.0061 0.2592
C4 C 0.8674(3) 0.0757(5) 0.1523(3)
H2 H 0.8945 0.0285 0.1318
C5 C 0.8099(3) 0.1612(7) 0.1070(3)
H3 H 0.7944 0.1707 0.0537
C6 C 0.7713(3) 0.2386(7) 0.1381(3)
H4 H 0.7323 0.3050 0.1070
C7 C 0.7918(2) 0.2150(6) 0.2149(3)
H5 H 0.7657 0.2634 0.2363
C8 C 0.83160(18) 0.1350(4) 0.3758(2)
H6 H 0.7835 0.1739 0.3407
C9 C 0.85135(18) 0.1254(3) 0.4538(2)
O2 O 0.91063(13) 0.0761(3) 0.50860(14)
C10 C 0.79675(18) 0.1887(4) 0.4762(2)
C11 C 0.72077(19) 0.1902(4) 0.4273(2)
H7 H 0.6997 0.1489 0.3771
C12 C 0.82594(18) 0.2477(4) 0.5488(2)
H8 H 0.8787 0.2461 0.5834
N1 N 0.95554(18) -0.2186(4) 0.4850(2)
C13 C 0.9398(3) -0.2955(6) 0.4231(3)
H9 H 0.9507 -0.2552 0.3861
C14 C 0.9085(4) -0.4308(6) 0.4093(4)
H10 H 0.8982 -0.4831 0.3640
C15 C 0.8922(4) -0.4892(6) 0.4624(4)
H11 H 0.8706 -0.5829 0.4547
C16 C 0.9075(3) -0.4107(6) 0.5257(4)
H12 H 0.8959 -0.4481 0.5627
C17 C 0.9396(3) -0.2781(5) 0.5362(3)
H13 H 0.9511 -0.2253 0.5818
O1D O 1.06001(13) -0.0324(3) 0.61727(15)
O2D O 1.08937(13) -0.0761(3) 0.49140(14)
N1D N 1.04446(18) 0.2186(4) 0.5150(2)
C13D C 1.0602(3) 0.2955(6) 0.5769(3)
H9D H 1.0493 0.2552 0.6139
C14D C 1.0915(4) 0.4308(6) 0.5907(4)
H10D H 1.1018 0.4831 0.6360
C15D C 1.1078(4) 0.4892(6) 0.5376(4)
H11D H 1.1294 0.5829 0.5453
C16D C 1.0925(3) 0.4107(6) 0.4743(4)
H12D H 1.1041 0.4481 0.4373
C17D C 1.0604(3) 0.2781(5) 0.4638(3)
H13D H 1.0489 0.2253 0.4182
C12E C 0.67406(18) 0.2523(4) 0.4512(2)
C11E C 0.77923(19) 0.3098(4) 0.5727(2)
C10E C 0.70325(18) 0.3113(4) 0.5238(2)
H8E H 0.6213 0.2539 0.4166
H7E H 0.8003 0.3511 0.6229
C9E C 0.64865(18) 0.3746(3) 0.5462(2)
C8E C 0.66840(18) 0.3650(4) 0.6242(2)
O2E O 0.58937(13) 0.4239(3) 0.49140(14)
C1E C 0.6233(2) 0.4079(4) 0.6554(2)
H6E H 0.7165 0.3261 0.6593
Zn1A Zn 0.5000 0.5000 0.5000
O1E O 0.56001(13) 0.4676(3) 0.61727(15)
C2E C 0.64982(19) 0.3791(4) 0.7391(2)
C3E C 0.6121(2) 0.4447(4) 0.7721(2)
C7E C 0.7082(2) 0.2850(6) 0.7851(3)
H1E H 0.5707 0.5061 0.7408
C4E C 0.6326(3) 0.4243(5) 0.8477(3)
C6E C 0.7287(3) 0.2614(7) 0.8619(3)
H5E H 0.7343 0.2366 0.7637
H2E H 0.6055 0.4715 0.8682
C5E C 0.6901(3) 0.3388(7) 0.8930(3)
H4E H 0.7677 0.1950 0.8930
H3E H 0.7056 0.3293 0.9463
loop_
_geom_bond_atom_site_label_1
_geom_bond_atom_site_label_2
_geom_bond_site_symmetry_1
_geom_bond_site_symmetry_2
Zn1 O1 1_555 1_555
C1 O1 1_555 1_555
C2 C1 1_555 1_555
C3 C2 1_555 1_555
H1 C3 1_555 1_555
C4 C3 1_555 1_555
H2 C4 1_555 1_555
C5 C4 1_555 1_555
H3 C5 1_555 1_555
C6 C5 1_555 1_555
H4 C6 1_555 1_555
C7 C2 1_555 1_555
H5 C7 1_555 1_555
C8 C1 1_555 1_555
H6 C8 1_555 1_555
C9 C8 1_555 1_555
O2 Zn1 1_555 1_555
C10 C9 1_555 1_555
C11 C10 1_555 1_555
H7 C11 1_555 1_555
C12 C10 1_555 1_555
H8 C12 1_555 1_555
N1 Zn1 1_555 1_555
C13 N1 1_555 1_555
H9 C13 1_555 1_555
C14 C13 1_555 1_555
H10 C14 1_555 1_555
C15 C14 1_555 1_555
H11 C15 1_555 1_555
C16 C15 1_555 1_555
H12 C16 1_555 1_555
C17 N1 1_555 1_555
H13 C17 1_555 1_555
C18 H14 1_555 1_555
C19 C18 1_555 1_555
H15 C19 1_555 1_555
C20 C19 1_555 1_555
H16 C20 1_555 1_555
C21 C20 1_555 1_555
H17 C21 1_555 1_555
O1D Zn1 1_555 1_555
O2D Zn1 1_555 1_555
N1D Zn1 1_555 1_555
C13D N1D 1_555 1_555
H9D C13D 1_555 1_555
C14D C13D 1_555 1_555
H10D C14D 1_555 1_555
C15D C14D 1_555 1_555
H11D C15D 1_555 1_555
C16D C15D 1_555 1_555
H12D C16D 1_555 1_555
C17D N1D 1_555 1_555
H13D C17D 1_555 1_555
C12E C11 1_555 1_555
C11E C12 1_555 1_555
C20F C21 1_555 1_555
C19F C18 1_555 1_555
H15F C19F 1_555 1_555
H16F C20F 1_555 1_555
C10E C12E 1_555 1_555
H8E C12E 1_555 1_555
H7E C11E 1_555 1_555
C9E C10E 1_555 1_555
C8E C9E 1_555 1_555
O2E C9E 1_555 1_555
C1E C8E 1_555 1_555
H6E C8E 1_555 1_555
Zn1A O2E 1_555 1_555
O1E C1E 1_555 1_555
C2E C1E 1_555 1_555
C3E C2E 1_555 1_555
C7E C2E 1_555 1_555
H1E C3E 1_555 1_555
C4E C3E 1_555 1_555
C6E C7E 1_555 1_555
H5E C7E 1_555 1_555
H2E C4E 1_555 1_555
C5E C4E 1_555 1_555
H4E C6E 1_555 1_555
H3E C5E 1_555 1_555
C6 C7 1_555 1_555
C9 O2 1_555 1_555
C16 C17 1_555 1_555
C16D C17D 1_555 1_555
C11E C10E 1_555 1_555
C20F C19F 1_555 1_555
Zn1A O1E 1_555 1_555
C6E C5E 1_555 1_555

#END
