
#######################################################################
#
#                 Cambridge Crystallographic Data Centre
#                                CCDC 
#
#######################################################################
#
# If this CIF has been generated from an entry in the Cambridge 
# Structural Database, then it will include bibliographic, chemical, 
# crystal, experimental, refinement or atomic coordinate data resulting 
# from the CCDC's data processing and validation procedures.
#
#######################################################################

data_APUZIV
_symmetry_cell_setting           monoclinic
_symmetry_space_group_name_H-M   'C 2/c'
_symmetry_Int_Tables_number      15
_space_group_name_Hall           '-C 2yn'
loop_
_symmetry_equiv_pos_site_id
_symmetry_equiv_pos_as_xyz
1 x,y,z
2 -x,y,1/2-z
3 1/2+x,1/2+y,z
4 1/2-x,1/2+y,1/2-z
5 -x,-y,-z
6 x,-y,1/2+z
7 1/2-x,1/2-y,-z
8 1/2+x,1/2-y,1/2+z
_cell_length_a                   18.315(6)
_cell_length_b                   7.365(2)
_cell_length_c                   19.990(7)
_cell_angle_alpha                90
_cell_angle_beta                 99.732(4)
_cell_angle_gamma                90
_cell_volume                     2657.65
loop_
_atom_site_label
_atom_site_type_symbol
_atom_site_fract_x
_atom_site_fract_y
_atom_site_fract_z
S1 S 0.13349(4) 0.60507(9) 0.10702(4)
S2 S 0.41970(4) 0.39601(9) 0.14289(4)
O1 O 0.15328(11) 0.7668(3) 0.14683(10)
O2 O 0.10919(11) 0.4563(3) 0.14526(11)
N1 N 0.14148(13) 0.5939(3) -0.04533(13)
N2 N 0.07027(13) 0.6519(4) 0.04427(13)
H1 H 0.0263 0.6850 0.0521
C1 C 0.27450(14) 0.4867(4) 0.11328(14)
H2 H 0.2763 0.4823 0.1610
C2 C 0.20921(14) 0.5378(4) 0.07082(14)
C3 C 0.20396(14) 0.5427(4) -0.00030(14)
C4 C 0.26709(15) 0.4902(4) -0.02776(15)
H3 H 0.2649 0.4871 -0.0756
C5 C 0.33151(15) 0.4436(4) 0.01441(14)
C6 C 0.33664(14) 0.4426(4) 0.08563(14)
C7 C 0.08205(15) 0.6424(4) -0.01988(15)
H4 H 0.0407 0.6762 -0.0529
Cl1 Cl 0.40780(4) 0.38693(10) -0.02238(4)
O3 O 0.39868(12) 0.3795(3) 0.20881(11)
O4 O 0.47424(11) 0.5272(3) 0.13325(11)
N3 N 0.45067(13) 0.2028(3) 0.12327(13)
K1 K 0.38231(3) 0.60914(8) 0.30864(3)
O5 O 0.23660(13) 0.5959(3) 0.27855(14)
O6 O 0.36182(12) 0.8310(3) 0.18968(12)
H5 H 0.412(3) 0.144(7) 0.118(3)
S1A S 0.86651(4) 0.60507(9) 0.39298(4)
S2A S 0.58030(4) 0.39601(9) 0.35711(4)
O1A O 0.84672(11) 0.7668(3) 0.35317(10)
O1B O 0.65328(11) 0.2668(3) 0.14683(10)
O1C O 0.34672(11) 0.2668(3) 0.35317(10)
O2A O 0.89081(11) 0.4563(3) 0.35474(11)
O2B O 0.60919(11) 0.9563(3) 0.14526(11)
O2C O 0.39081(11) 0.9563(3) 0.35474(11)
N1A N 0.85852(13) 0.5939(3) 0.54533(13)
N2A N 0.92973(13) 0.6519(4) 0.45573(13)
H1A H 0.9737 0.6850 0.4479
C1A C 0.72550(14) 0.4867(4) 0.38672(14)
H2A H 0.7237 0.4823 0.3390
C2A C 0.79079(14) 0.5378(4) 0.42918(14)
C3A C 0.79604(14) 0.5427(4) 0.50030(14)
C4A C 0.73291(15) 0.4902(4) 0.52776(15)
H3A H 0.7351 0.4871 0.5756
C5A C 0.66849(15) 0.4436(4) 0.48559(14)
C6A C 0.66336(14) 0.4426(4) 0.41437(14)
C7A C 0.91795(15) 0.6424(4) 0.51988(15)
H4A H 0.9593 0.6762 0.5529
Cl1A Cl 0.59220(4) 0.38693(10) 0.52238(4)
Cl1D Cl 0.59220(4) 0.61307(10) 0.02238(4)
Cl1E Cl 0.40780(4) 0.61307(10) 0.47762(4)
O3A O 0.60132(12) 0.3795(3) 0.29119(11)
O4A O 0.52576(11) 0.5272(3) 0.36675(11)
N3A N 0.54933(13) 0.2028(3) 0.37673(13)
K1A K 0.61769(3) 0.60914(8) 0.19136(3)
K1B K 0.88231(3) 0.10914(8) 0.30864(3)
K1B_2 K 0.88231(3) 1.10914(8) 0.30864(3)
K1C K 0.11769(3) 0.10914(8) 0.19136(3)
K1C_2 K 0.11769(3) 1.10914(8) 0.19136(3)
K1D K 0.61769(3) 0.39086(8) 0.69136(3)
K1E K 0.38231(3) 0.39086(8) -0.19136(3)
O5A O 0.76340(13) 0.5959(3) 0.22145(14)
O6A O 0.63818(12) 0.8310(3) 0.31032(12)
H5A H 0.588(3) 0.144(7) 0.382(3)
O7 O 0.5000 -0.0308(5) 0.2500
H6 H 0.508(4) 0.072(7) 0.222(3)
H6A H 0.492(4) 0.072(7) 0.278(3)
loop_
_geom_bond_atom_site_label_1
_geom_bond_atom_site_label_2
_geom_bond_site_symmetry_1
_geom_bond_site_symmetry_2
S1 O1 1_555 1_555
S2 C6 1_555 1_555
O1 K1C_2 1_555 1_555
O2 S1 1_555 1_555
N1 C3 1_555 1_555
N2 S1 1_555 1_555
H1 N2 1_555 1_555
C1 H2 1_555 1_555
C2 S1 1_555 1_555
C3 C2 1_555 1_555
C4 C3 1_555 1_555
H3 C4 1_555 1_555
C5 C4 1_555 1_555
C6 C1 1_555 1_555
C7 N1 1_555 1_555
H4 C7 1_555 1_555
Cl1 C5 1_555 1_555
O3 S2 1_555 1_555
O4 S2 1_555 1_555
N3 S2 1_555 1_555
K1 O3 1_555 1_555
O5 K1 1_555 1_555
O6 K1 1_555 1_555
H5 N3 1_555 1_555
O7 H6 1_555 1_555
S1A O1A 1_555 1_555
S2A C6A 1_555 1_555
O1A K1B_2 1_555 1_555
O1B K1A 1_555 1_555
O1C K1 1_555 1_555
O2A S1A 1_555 1_555
O2B K1A 1_555 1_555
O2C K1 1_555 1_555
N1A C3A 1_555 1_555
N2A S1A 1_555 1_555
H1A N2A 1_555 1_555
C1A H2A 1_555 1_555
C2A S1A 1_555 1_555
C3A C2A 1_555 1_555
C4A C3A 1_555 1_555
H3A C4A 1_555 1_555
C5A C4A 1_555 1_555
C6A C1A 1_555 1_555
C7A N1A 1_555 1_555
H4A C7A 1_555 1_555
Cl1A C5A 1_555 1_555
Cl1D K1A 1_555 1_555
Cl1E K1 1_555 1_555
O3A S2A 1_555 1_555
O4A K1 1_555 1_555
N3A S2A 1_555 1_555
K1A O4 1_555 1_555
K1B O2A 1_555 1_555
K1C O2 1_555 1_555
K1D Cl1A 1_555 1_555
K1E Cl1 1_555 1_555
O5A K1A 1_555 1_555
O6A K1A 1_555 1_555
H5A N3A 1_555 1_555
H6A O7 1_555 1_555
N2 C7 1_555 1_555
C1 C2 1_555 1_555
C5 C6 1_555 1_555
S2A O4A 1_555 1_555
N2A C7A 1_555 1_555
C1A C2A 1_555 1_555
C5A C6A 1_555 1_555
O3A K1A 1_555 1_555

#END
