
#######################################################################
#
#                 Cambridge Crystallographic Data Centre
#                                CCDC 
#
#######################################################################
#
# If this CIF has been generated from an entry in the Cambridge 
# Structural Database, then it will include bibliographic, chemical, 
# crystal, experimental, refinement or atomic coordinate data resulting 
# from the CCDC's data processing and validation procedures.
#
#######################################################################

data_APUZOB
_symmetry_cell_setting           triclinic
_symmetry_space_group_name_H-M   'P -1'
_symmetry_Int_Tables_number      2
_space_group_name_Hall           '-P 1'
loop_
_symmetry_equiv_pos_site_id
_symmetry_equiv_pos_as_xyz
1 x,y,z
2 -x,-y,-z
_cell_length_a                   7.078(3)
_cell_length_b                   9.842(5)
_cell_length_c                   21.994(11)
_cell_angle_alpha                87.522(13)
_cell_angle_beta                 84.064(14)
_cell_angle_gamma                78.822(12)
_cell_volume                     1494.59
loop_
_atom_site_label
_atom_site_type_symbol
_atom_site_fract_x
_atom_site_fract_y
_atom_site_fract_z
O1 O 0.1737(4) 0.2516(3) 0.36146(13)
O2 O 0.8658(5) 0.7461(3) 0.14425(14)
Cl1 Cl 0.83111(14) 0.16244(9) -0.01271(4)
Cl2 Cl 0.16019(13) 0.84477(9) 0.51940(4)
S1 S 0.84561(14) 0.17723(9) 0.13643(4)
S2 S 0.69872(14) 0.73596(9) 0.11330(4)
S3 S 0.32833(14) 0.26561(9) 0.39768(4)
S4 S 0.16125(14) 0.82318(9) 0.37028(4)
O3 O 0.5227(5) 0.7474(3) 0.15345(14)
O4 O 0.8322(4) 0.2321(3) 0.19672(12)
N1 N 0.6673(5) 0.0972(3) 0.13413(15)
O5 O 0.5149(4) 0.2548(3) 0.36267(13)
O6 O 0.1868(4) 0.7658(3) 0.31023(13)
O7 O -0.0192(4) 0.9124(3) 0.38963(13)
N2 N 0.6705(5) 0.8494(3) 0.05916(15)
H1 H 0.6487 0.9378 0.0680
N3 N 0.7077(5) 0.6902(3) -0.02451(16)
O8 O 1.0193(4) 0.0836(3) 0.11479(13)
N4 N 0.2976(5) 0.3163(3) 0.53526(15)
N5 N 0.3417(5) 0.1545(3) 0.45249(16)
H2 H 0.3588 0.0660 0.4443
N6 N 0.3307(5) 0.9093(3) 0.37453(16)
C1 C 0.8087(5) 0.3258(4) 0.08649(18)
C2 C 0.7991(5) 0.3212(4) 0.02323(18)
C3 C 0.7698(6) 0.4400(4) -0.01288(18)
H3 H 0.7705 0.4328 -0.0558
C4 C 0.7382(5) 0.5742(4) 0.01334(18)
C5 C 0.7435(5) 0.5765(4) 0.07682(18)
C6 C 0.7797(5) 0.4547(4) 0.11322(18)
H4 H 0.7843 0.4606 0.1560
C7 C 0.6791(6) 0.8140(4) 0.00090(19)
H5 H 0.6618 0.8901 -0.0273
C8 C 0.2701(5) 0.4272(4) 0.43270(18)
C9 C 0.2685(5) 0.4319(4) 0.49671(18)
C10 C 0.2312(5) 0.5665(4) 0.52228(18)
H6 H 0.2277 0.5757 0.5652
C11 C 0.2003(5) 0.6839(4) 0.48477(18)
C12 C 0.1989(5) 0.6767(4) 0.42135(17)
C13 C 0.2354(5) 0.5465(4) 0.39606(18)
H7 H 0.2366 0.5387 0.3531
C14 C 0.3278(6) 0.1920(4) 0.51089(19)
H8 H 0.3419 0.1169 0.5397
K1 K 0.14836(12) 0.85620(9) 0.19068(4)
K2 K 0.87828(12) 0.15119(8) 0.31753(4)
O9 O 0.2378(4) 1.0833(3) 0.24080(13)
O10 O -0.2141(4) 0.9369(3) 0.26149(13)
H9 H 0.560(7) 0.149(5) 0.141(2)
H10 H 0.443(8) 0.863(6) 0.361(3)
O1_2 O 1.1737(4) 0.2516(3) 0.36146(13)
O2_2 O -0.1342(5) 0.7461(3) 0.14425(14)
Cl2A Cl 0.83981(13) 0.15523(9) 0.48060(4)
O7_2 O 0.9808(4) -0.0876(3) 0.38963(13)
O8_2 O 0.0193(4) 1.0836(3) 0.11479(13)
K1_2 K 1.14836(12) 0.85620(9) 0.19068(4)
K1_3 K 1.14836(12) -0.14380(9) 0.19068(4)
K2_2 K -0.12172(12) 0.15119(8) 0.31753(4)
K2A K 0.12172(12) 0.84881(8) 0.68247(4)
K2_3 K -0.12172(12) 1.15119(8) 0.31753(4)
O9_2 O 1.2378(4) 0.0833(3) 0.24080(13)
O10_2 O 0.7859(4) -0.0631(3) 0.26149(13)
O11 O 0.6990(4) 0.7053(3) 0.85027(13)
H11 H 0.6951 0.7071 0.8885
C15 C 0.7045(6) 0.5660(4) 0.8320(2)
H12 H 0.6172 0.5212 0.8608
H13 H 0.8375 0.5114 0.8324
C16 C 0.6414(7) 0.5699(5) 0.7685(2)
H14 H 0.5122 0.6278 0.7679
H15 H 0.6377 0.4757 0.7566
H16 H 0.7331 0.6089 0.7397
O12 O 0.6910(4) 0.7270(3) 0.34148(13)
H17 H 0.7027 0.7035 0.3783
C17 C 0.6677(6) 0.6096(4) 0.3082(2)
H18 H 0.5982 0.6423 0.2719
H19 H 0.5888 0.5532 0.3345
C18 C 0.8608(6) 0.5217(4) 0.2881(2)
H20 H 0.9295 0.4892 0.3240
H21 H 0.9374 0.5767 0.2611
H22 H 0.8412 0.4418 0.2661
loop_
_geom_bond_atom_site_label_1
_geom_bond_atom_site_label_2
_geom_bond_site_symmetry_1
_geom_bond_site_symmetry_2
O1 S3 1_555 1_555
O2 S2 1_555 1_555
Cl1 C2 1_555 1_555
Cl2 C11 1_555 1_555
S1 O4 1_555 1_555
S2 O3 1_555 1_555
S3 O5 1_555 1_555
S4 O6 1_555 1_555
O3 K1 1_555 1_555
O4 K2 1_555 1_555
N1 S1 1_555 1_555
O5 K2 1_555 1_555
O6 K1 1_555 1_555
O7 S4 1_555 1_555
N2 S2 1_555 1_555
H1 N2 1_555 1_555
N3 C4 1_555 1_555
O8 S1 1_555 1_555
N4 C9 1_555 1_555
N5 S3 1_555 1_555
H2 N5 1_555 1_555
N6 S4 1_555 1_555
C1 S1 1_555 1_555
C2 C1 1_555 1_555
C3 C2 1_555 1_555
H3 C3 1_555 1_555
C4 C3 1_555 1_555
C5 S2 1_555 1_555
C6 C1 1_555 1_555
H4 C6 1_555 1_555
C7 N2 1_555 1_555
H5 C7 1_555 1_555
C8 S3 1_555 1_555
C9 C8 1_555 1_555
C10 C9 1_555 1_555
H6 C10 1_555 1_555
C11 C10 1_555 1_555
C12 S4 1_555 1_555
C13 C8 1_555 1_555
H7 C13 1_555 1_555
C14 N4 1_555 1_555
H8 C14 1_555 1_555
K1 O9 1_555 1_555
K2 O1_2 1_555 1_555
O9 K2_3 1_555 1_555
O10 K1 1_555 1_555
H9 N1 1_555 1_555
H10 N6 1_555 1_555
O11 H11 1_555 1_555
C15 O11 1_555 1_555
H12 C15 1_555 1_555
H13 C15 1_555 1_555
C16 C15 1_555 1_555
H14 C16 1_555 1_555
H15 C16 1_555 1_555
H16 C16 1_555 1_555
O12 H17 1_555 1_555
C17 O12 1_555 1_555
H18 C17 1_555 1_555
H19 C17 1_555 1_555
C18 C17 1_555 1_555
H20 C18 1_555 1_555
H21 C18 1_555 1_555
H22 C18 1_555 1_555
O2_2 K1 1_555 1_555
Cl2A K2 1_555 1_555
O7_2 K2 1_555 1_555
O8_2 K1 1_555 1_555
K1_2 O2 1_555 1_555
K1_3 O8 1_555 1_555
K2_2 O1 1_555 1_555
K2A Cl2 1_555 1_555
K2_3 O7 1_555 1_555
O9_2 K2 1_555 1_555
O10_2 K2 1_555 1_555
N3 C7 1_555 1_555
N5 C14 1_555 1_555
C4 C5 1_555 1_555
C5 C6 1_555 1_555
C11 C12 1_555 1_555
C12 C13 1_555 1_555
O10 K2_3 1_555 1_555
K1_3 O9_2 1_555 1_555
K1_3 O10_2 1_555 1_555

#END
