
#######################################################################
#
#                 Cambridge Crystallographic Data Centre
#                                CCDC 
#
#######################################################################
#
# If this CIF has been generated from an entry in the Cambridge 
# Structural Database, then it will include bibliographic, chemical, 
# crystal, experimental, refinement or atomic coordinate data resulting 
# from the CCDC's data processing and validation procedures.
#
#######################################################################

data_APUZER
_symmetry_cell_setting           triclinic
_symmetry_space_group_name_H-M   'P -1'
_symmetry_Int_Tables_number      2
_space_group_name_Hall           '-P 1'
loop_
_symmetry_equiv_pos_site_id
_symmetry_equiv_pos_as_xyz
1 x,y,z
2 -x,-y,-z
_cell_length_a                   8.3567(17)
_cell_length_b                   9.0728(18)
_cell_length_c                   9.6486(19)
_cell_angle_alpha                82.80(3)
_cell_angle_beta                 73.93(3)
_cell_angle_gamma                70.31(3)
_cell_volume                     661.44
loop_
_atom_site_label
_atom_site_type_symbol
_atom_site_fract_x
_atom_site_fract_y
_atom_site_fract_z
Cl1 Cl 0.79042(13) 0.50435(11) -0.05407(11)
S1 S 1.20352(13) -0.08354(12) 0.25814(11)
S2 S 0.66814(13) 0.45222(11) 0.30265(11)
Na1 Na 0.4882(2) 0.18542(19) 0.53785(18)
O2 O 1.0798(4) -0.1595(4) 0.3461(4)
O3 O 1.2968(4) -0.0346(4) 0.3415(3)
O4 O 0.6758(4) -0.0152(4) 0.3647(3)
O5 O 0.3033(5) 0.2753(4) 0.3703(4)
N1 N 1.3396(5) -0.1938(4) 0.1342(4)
H1 H 1.4005 -0.2865 0.1563
N2 N 1.2766(5) -0.0141(4) -0.0677(4)
C1 C 0.9487(5) 0.1928(5) 0.2526(5)
H2 H 0.9194 0.1798 0.3525
C2 C 1.0901(6) 0.0815(5) 0.1702(4)
C3 C 1.1407(6) 0.0958(5) 0.0190(4)
C4 C 1.3614(6) -0.1447(5) -0.0052(5)
C5 C 0.8513(5) 0.3229(5) 0.1870(4)
C6 C 0.9013(6) 0.3415(5) 0.0354(5)
C7 C 1.0426(6) 0.2309(5) -0.0464(4)
H3 H 1.0735 0.2458 -0.1462
H4 H 1.475(9) -0.222(8) -0.088(7)
O6 O 0.7027(4) 0.5973(3) 0.3014(3)
N3 N 0.5053(5) 0.4851(5) 0.2364(4)
H5 H 0.454(9) 0.442(7) 0.259(7)
O7 O 0.6439(4) 0.3638(3) 0.4376(3)
Cl1A Cl 0.20958(13) -0.50435(11) 1.05407(11)
S1A S -0.20352(13) 0.08354(12) 0.74186(11)
S2A S 0.33186(13) -0.45222(11) 0.69735(11)
Na1A Na 0.5118(2) -0.18542(19) 0.46215(18)
Na1_2 Na -0.5118(2) 0.18542(19) 0.53785(18)
Na1_3 Na 0.4882(2) -0.81458(19) 0.53785(18)
Na1A_2 Na 0.5118(2) 0.81458(19) 0.46215(18)
Na1A_3 Na 1.5118(2) -0.18542(19) 0.46215(18)
O2A O -0.0798(4) 0.1595(4) 0.6539(4)
O3A O -0.2968(4) 0.0346(4) 0.6585(3)
O3_2 O 0.2968(4) -0.0346(4) 0.3415(3)
O3A_2 O 0.7032(4) 0.0346(4) 0.6585(3)
O4A O 0.3242(4) 0.0152(4) 0.6353(3)
O5A O 0.6967(5) -0.2753(4) 0.6297(4)
N1A N -0.3396(5) 0.1938(4) 0.8658(4)
H1A H -0.4005 0.2865 0.8437
N2A N -0.2766(5) 0.0141(4) 1.0677(4)
C1A C 0.0513(5) -0.1928(5) 0.7474(5)
H2A H 0.0806 -0.1798 0.6475
C2A C -0.0901(6) -0.0815(5) 0.8298(4)
C3A C -0.1407(6) -0.0958(5) 0.9810(4)
C4A C -0.3614(6) 0.1447(5) 1.0052(5)
C5A C 0.1487(5) -0.3229(5) 0.8130(4)
C6A C 0.0987(6) -0.3415(5) 0.9646(5)
C7A C -0.0426(6) -0.2309(5) 1.0464(4)
H3A H -0.0735 -0.2458 1.1462
H4A H -0.475(9) 0.222(8) 1.088(7)
O6A O 0.2973(4) -0.5973(3) 0.6986(3)
O6_2 O 0.7027(4) -0.4027(3) 0.3014(3)
O6A_2 O 0.2973(4) 0.4027(3) 0.6986(3)
N3A N 0.4947(5) -0.4851(5) 0.7636(4)
H5A H 0.546(9) -0.442(7) 0.741(7)
O7A O 0.3561(4) -0.3638(3) 0.5624(3)
O1 O 0.9954(10) 0.4414(9) 0.5606(8)
O1A O 1.0046(10) 0.5586(9) 0.4394(8)
loop_
_geom_bond_atom_site_label_1
_geom_bond_atom_site_label_2
_geom_bond_site_symmetry_1
_geom_bond_site_symmetry_2
O1 O1A 1_555 1_555
Cl1 C6 1_555 1_555
S1 O2 1_555 1_555
S2 C5 1_555 1_555
Na1 O4 1_555 1_555
O3 S1 1_555 1_555
O4 Na1A 1_555 1_555
O5 Na1 1_555 1_555
N1 S1 1_555 1_555
H1 N1 1_555 1_555
N2 C3 1_555 1_555
C1 H2 1_555 1_555
C2 S1 1_555 1_555
C3 C2 1_555 1_555
C4 N1 1_555 1_555
C5 C1 1_555 1_555
C6 C5 1_555 1_555
C7 C3 1_555 1_555
H3 C7 1_555 1_555
H4 C4 1_555 1_555
O6 S2 1_555 1_555
N3 S2 1_555 1_555
H5 N3 1_555 1_555
O7 S2 1_555 1_555
Cl1A C6A 1_555 1_555
S1A O2A 1_555 1_555
S2A C5A 1_555 1_555
Na1A O3_2 1_555 1_555
Na1_2 O3A 1_555 1_555
Na1_3 O6A 1_555 1_555
Na1A_2 O6 1_555 1_555
Na1A_3 O3 1_555 1_555
O3A S1A 1_555 1_555
O3A_2 Na1 1_555 1_555
O4A Na1 1_555 1_555
O5A Na1A 1_555 1_555
N1A S1A 1_555 1_555
H1A N1A 1_555 1_555
N2A C3A 1_555 1_555
C1A H2A 1_555 1_555
C2A S1A 1_555 1_555
C3A C2A 1_555 1_555
C4A N1A 1_555 1_555
C5A C1A 1_555 1_555
C6A C5A 1_555 1_555
C7A C3A 1_555 1_555
H3A C7A 1_555 1_555
H4A C4A 1_555 1_555
O6A S2A 1_555 1_555
O6_2 Na1A 1_555 1_555
O6A_2 Na1 1_555 1_555
N3A S2A 1_555 1_555
H5A N3A 1_555 1_555
O7A S2A 1_555 1_555
Na1 O7 1_555 1_555
N2 C4 1_555 1_555
C1 C2 1_555 1_555
C6 C7 1_555 1_555
Na1A O4A 1_555 1_555
Na1A O7A 1_555 1_555
N2A C4A 1_555 1_555
C1A C2A 1_555 1_555
C6A C7A 1_555 1_555

#END
