
#######################################################################
#
#                 Cambridge Crystallographic Data Centre
#                                CCDC 
#
#######################################################################
#
# If this CIF has been generated from an entry in the Cambridge 
# Structural Database, then it will include bibliographic, chemical, 
# crystal, experimental, refinement or atomic coordinate data resulting 
# from the CCDC's data processing and validation procedures.
#
#######################################################################

data_AQAJIM
_symmetry_cell_setting           orthorhombic
_symmetry_space_group_name_H-M   'P b c a'
_symmetry_Int_Tables_number      61
_space_group_name_Hall           '-P 2ac 2ab'
loop_
_symmetry_equiv_pos_site_id
_symmetry_equiv_pos_as_xyz
1 x,y,z
2 1/2-x,-y,1/2+z
3 -x,1/2+y,1/2-z
4 1/2+x,1/2-y,-z
5 -x,-y,-z
6 1/2+x,y,1/2-z
7 x,1/2-y,1/2+z
8 1/2-x,1/2+y,z
_cell_length_a                   14.966(3)
_cell_length_b                   7.4087(18)
_cell_length_c                   26.828(6)
_cell_angle_alpha                90
_cell_angle_beta                 90
_cell_angle_gamma                90
_cell_volume                     2974.65
loop_
_atom_site_label
_atom_site_type_symbol
_atom_site_fract_x
_atom_site_fract_y
_atom_site_fract_z
Ba1 Ba 0.583997(15) 0.16997(4) 0.339811(8)
Ba2 Ba 0.5000 0.0000 0.5000
C1 C 0.6277(2) 0.3859(6) 0.64280(13)
C2 C 0.6956(2) 0.3619(6) 0.60838(13)
C3 C 0.7839(2) 0.3996(5) 0.62239(13)
C4 C 0.8022(3) 0.4606(6) 0.67020(13)
C5 C 0.7332(2) 0.4896(6) 0.70461(12)
C6 C 0.6462(3) 0.4507(6) 0.69071(13)
C7 C 0.8585(2) 0.3737(6) 0.58545(13)
C8 C 0.7535(3) 0.5562(6) 0.75691(12)
H1 H 0.681(3) 0.321(5) 0.5729(14)
H2 H 0.862(3) 0.494(6) 0.6779(16)
H3 H 0.600(3) 0.463(7) 0.7117(17)
O1 O 0.49134(17) 0.1764(4) 0.66051(9)
O2 O 0.4704(2) 0.1617(6) 0.25883(12)
O3 O 0.68739(18) 0.5702(4) 0.78612(9)
O4 O 0.93678(17) 0.3526(4) 0.60052(10)
O5 O 0.6443(2) -0.0221(6) 0.42590(12)
O6 O 0.83270(17) 0.5934(4) 0.76866(9)
O7 O 0.51756(18) 0.2746(4) 0.57493(9)
O8 O 0.77263(19) 0.2162(4) 0.36258(10)
O9 O 0.83847(17) 0.3830(4) 0.53930(9)
O10 O 0.46052(18) 0.4843(4) 0.63642(11)
S1 S 0.51635(6) 0.32504(15) 0.62724(3)
H4 H 0.690(4) 0.041(7) 0.4409(19)
H5 H 0.439(3) 0.115(7) 0.2546(17)
H6 H 0.667(4) -0.109(8) 0.418(2)
H7 H 0.610(3) 0.392(7) 0.4683(16)
O12 O 0.5725(3) 0.3293(5) 0.46133(15)
Ba1D Ba 0.416003(15) -0.16997(4) 0.660189(8)
Ba1F Ba 0.583997(15) 0.33003(4) 0.839811(8)
Ba1C Ba 1.083997(15) 0.33003(4) 0.660189(8)
Ba1A Ba 0.916003(15) 0.83003(4) 0.839811(8)
Ba1D_2 Ba 0.416003(15) 0.83003(4) 0.660189(8)
Ba1B Ba 0.416003(15) -0.33003(4) 0.160189(8)
Ba1G Ba -0.083997(15) -0.33003(4) 0.339811(8)
Ba1E Ba 0.083997(15) -0.83003(4) 0.160189(8)
Ba1_2 Ba 0.583997(15) -0.83003(4) 0.339811(8)
Ba2C Ba 1.0000 0.5000 0.5000
Ba2C_2 Ba 0.0000 -0.5000 0.5000
C1D C 0.3723(2) -0.3859(6) 0.35720(13)
C2D C 0.3044(2) -0.3619(6) 0.39162(13)
C3D C 0.2161(2) -0.3996(5) 0.37761(13)
C4D C 0.1978(3) -0.4606(6) 0.32980(13)
C5D C 0.2668(2) -0.4896(6) 0.29539(12)
C6D C 0.3538(3) -0.4507(6) 0.30929(13)
C7D C 0.1415(2) -0.3737(6) 0.41455(13)
C8D C 0.2465(3) -0.5562(6) 0.24309(12)
H1D H 0.319(3) -0.321(5) 0.4271(14)
H2D H 0.138(3) -0.494(6) 0.3221(16)
H3D H 0.400(3) -0.463(7) 0.2883(17)
O1D O 0.50866(17) -0.1764(4) 0.33949(9)
O2D O 0.5296(2) -0.1617(6) 0.74117(12)
O3D O 0.31261(18) -0.5702(4) 0.21388(9)
O3F O 0.68739(18) -0.0702(4) 0.28612(9)
O3B O 0.31261(18) 0.0702(4) 0.71388(9)
O4D O 0.06322(17) -0.3526(4) 0.39948(10)
O4C O 0.43678(17) 0.1474(4) 0.39948(10)
O4G O 0.56322(17) -0.1474(4) 0.60052(10)
O5D O 0.3557(2) 0.0221(6) 0.57410(12)
O6D O 0.16730(17) -0.5934(4) 0.23134(9)
O6A O 0.66730(17) 0.4066(4) 0.26866(9)
O6E O 0.33270(17) -0.4066(4) 0.73134(9)
O7D O 0.48244(18) -0.2746(4) 0.42507(9)
O8D O 0.22737(19) -0.2162(4) 0.63742(10)
O9D O 0.16153(17) -0.3830(4) 0.46070(9)
O9C O 0.33847(17) 0.1170(4) 0.46070(9)
O9G O 0.66153(17) -0.1170(4) 0.53930(9)
O10D O 0.53948(18) -0.4843(4) 0.36358(11)
O10D_2 O 0.53948(18) 0.5157(4) 0.36358(11)
O10_2 O 0.46052(18) -0.5157(4) 0.63642(11)
S1D S 0.48365(6) -0.32504(15) 0.37276(3)
H4D H 0.310(4) -0.041(7) 0.5591(19)
H5D H 0.561(3) -0.115(7) 0.7454(17)
H6D H 0.333(4) 0.109(8) 0.582(2)
H7D H 0.390(3) -0.392(7) 0.5317(16)
O12D O 0.4275(3) -0.3293(5) 0.53867(15)
O11 O 0.2100(3) 0.9302(6) 0.51152(15)
H8 H 0.236(4) 0.957(10) 0.497(2)
loop_
_geom_bond_atom_site_label_1
_geom_bond_atom_site_label_2
_geom_bond_site_symmetry_1
_geom_bond_site_symmetry_2
Ba1 O2 1_555 1_555
Ba2 O5 1_555 1_555
C1 C2 1_555 1_555
C2 C3 1_555 1_555
C3 C4 1_555 1_555
C4 C5 1_555 1_555
C5 C6 1_555 1_555
C6 C1 1_555 1_555
C7 C3 1_555 1_555
C8 C5 1_555 1_555
H1 C2 1_555 1_555
H2 C4 1_555 1_555
H3 C6 1_555 1_555
O1 S1 1_555 1_555
O2 H5 1_555 1_555
O3 C8 1_555 1_555
O4 C7 1_555 1_555
O5 Ba1 1_555 1_555
O6 C8 1_555 1_555
O7 Ba2 1_555 1_555
O8 Ba1 1_555 1_555
O9 C7 1_555 1_555
O10 S1 1_555 1_555
O11 H8 1_555 1_555
S1 C1 1_555 1_555
H4 O5 1_555 1_555
H6 O5 1_555 1_555
H7 O12 1_555 1_555
O12 Ba2 1_555 1_555
Ba1D O1 1_555 1_555
Ba1F O3 1_555 1_555
Ba1C O4 1_555 1_555
Ba1A O6 1_555 1_555
Ba1D_2 O10 1_555 1_555
Ba1B O3D 1_555 1_555
Ba1G O4D 1_555 1_555
Ba1E O6D 1_555 1_555
Ba1_2 O10D 1_555 1_555
Ba2C O4 1_555 1_555
Ba2C_2 O4D 1_555 1_555
C1D C2D 1_555 1_555
C2D C3D 1_555 1_555
C3D C4D 1_555 1_555
C4D C5D 1_555 1_555
C5D C6D 1_555 1_555
C6D C1D 1_555 1_555
C7D C3D 1_555 1_555
C8D C5D 1_555 1_555
H1D C2D 1_555 1_555
H2D C4D 1_555 1_555
H3D C6D 1_555 1_555
O1D Ba1 1_555 1_555
O2D Ba1D 1_555 1_555
O3D C8D 1_555 1_555
O3F Ba1 1_555 1_555
O3B Ba1D 1_555 1_555
O4D C7D 1_555 1_555
O4C Ba1 1_555 1_555
O4G Ba2 1_555 1_555
O5D Ba2 1_555 1_555
O6D C8D 1_555 1_555
O6A Ba1 1_555 1_555
O6E Ba1D 1_555 1_555
O7D Ba2 1_555 1_555
O8D Ba1D 1_555 1_555
O9D Ba2C_2 1_555 1_555
O9C Ba2 1_555 1_555
O9G Ba2 1_555 1_555
O10D S1D 1_555 1_555
O10D_2 Ba1 1_555 1_555
O10_2 Ba1D 1_555 1_555
S1D C1D 1_555 1_555
H4D O5D 1_555 1_555
H5D O2D 1_555 1_555
H6D O5D 1_555 1_555
H7D O12D 1_555 1_555
O12D Ba2 1_555 1_555
Ba2 O4C 1_555 1_555
O7 S1 1_555 1_555
O9 Ba2C 1_555 1_555
Ba1D O4G 1_555 1_555
Ba1D O5D 1_555 1_555
C7D O9D 1_555 1_555
O1D S1D 1_555 1_555
O7D S1D 1_555 1_555

#END
