
#######################################################################
#
#                 Cambridge Crystallographic Data Centre
#                                CCDC 
#
#######################################################################
#
# If this CIF has been generated from an entry in the Cambridge 
# Structural Database, then it will include bibliographic, chemical, 
# crystal, experimental, refinement or atomic coordinate data resulting 
# from the CCDC's data processing and validation procedures.
#
#######################################################################

data_AQAJEI
_symmetry_cell_setting           orthorhombic
_symmetry_space_group_name_H-M   'P b c n'
_symmetry_Int_Tables_number      60
_space_group_name_Hall           '-P 2n 2ab'
loop_
_symmetry_equiv_pos_site_id
_symmetry_equiv_pos_as_xyz
1 x,y,z
2 1/2-x,1/2-y,1/2+z
3 -x,y,1/2-z
4 1/2+x,1/2-y,-z
5 -x,-y,-z
6 1/2+x,1/2+y,1/2-z
7 x,-y,1/2+z
8 1/2-x,1/2+y,z
_cell_length_a                   19.7665(9)
_cell_length_b                   15.8012(8)
_cell_length_c                   16.9680(8)
_cell_angle_alpha                90
_cell_angle_beta                 90
_cell_angle_gamma                90
_cell_volume                     5299.69
loop_
_atom_site_label
_atom_site_type_symbol
_atom_site_fract_x
_atom_site_fract_y
_atom_site_fract_z
C3 C 0.8802(11) 0.2225(13) 0.8851(12)
H1 H 0.8489 0.2697 0.8831
H2 H 0.8702 0.1875 0.8396
C4 C 0.9539(12) 0.2619(16) 0.8697(16)
O2 O 0.8596(6) 0.1684(7) 0.9602(8)
H3 H 0.8396 0.1256 0.9460
C5 C 0.1470(4) 0.4248(4) 1.2037(4)
H4 H 0.1172 0.4198 1.2459
C6 C 0.2297(4) 0.4009(4) 1.1259(4)
H5 H 0.2679 0.3777 1.1024
C7 C 0.2178(3) 0.2975(4) 1.2347(4)
C8 C 0.2137(3) 0.2987(4) 1.3162(4)
H6 H 0.2024 0.3484 1.3425
C9 C 0.2265(4) 0.2256(4) 1.3580(4)
H7 H 0.2230 0.2256 1.4126
C10 C 0.2448(4) 0.1518(4) 1.3187(4)
C11 C 0.2494(5) 0.1513(5) 1.2372(4)
H8 H 0.2618 0.1020 1.2110
C12 C 0.2355(4) 0.2251(5) 1.1942(4)
H9 H 0.2381 0.2252 1.1395
C13 C 0.2598(4) 0.0720(4) 1.3646(4)
C14 C 0.0939(4) 0.6422(5) 0.9816(5)
H10 H 0.1147 0.6873 1.0072
C15 C 0.0204(4) 0.5641(5) 0.9220(5)
H11 H -0.0198 0.5457 0.8991
C16 C -0.0216(4) 0.7060(5) 0.9637(5)
C17 C -0.0866(4) 0.6839(5) 0.9807(4)
H12 H -0.0985 0.6274 0.9871
C18 C -0.1344(4) 0.7473(5) 0.9881(4)
H13 H -0.1788 0.7331 1.0009
C19 C -0.1176(4) 0.8307(5) 0.9770(5)
C20 C -0.0512(5) 0.8526(6) 0.9588(7)
H14 H -0.0395 0.9092 0.9520
C21 C -0.0027(4) 0.7902(5) 0.9509(7)
H15 H 0.0415 0.8039 0.9373
C22 C -0.1701(4) 0.8997(6) 0.9831(5)
N2 N 0.1431(3) 0.4827(4) 1.1508(3)
N3 N 0.1972(3) 0.4673(3) 1.1000(3)
N4 N 0.2002(3) 0.3714(3) 1.1908(3)
N5 N 0.0760(3) 0.5189(4) 0.9263(4)
N6 N 0.1229(3) 0.5695(4) 0.9655(3)
N7 N 0.0291(3) 0.6415(4) 0.9555(4)
O3 O 0.2633(4) 0.0036(3) 1.3307(3)
O4 O 0.2689(2) 0.0826(3) 1.4380(3)
O5 O -0.2300(3) 0.8753(4) 0.9981(3)
O6 O -0.1547(4) 0.9745(4) 0.9756(5)
Zn1 Zn 0.21462(4) 0.52288(4) 0.99343(4)
O4A O 0.2311(2) 0.4174(3) 0.9380(3)
O5C O 0.2700(3) 0.6247(4) 1.0019(3)
Zn1A Zn 0.28538(4) -0.02288(4) 1.49343(4)
Zn1C Zn -0.28538(4) 0.97712(4) 1.00657(4)
C1 C 0.5344(9) 0.2303(10) 0.7506(12)
C2 C 0.5574(13) 0.3624(16) 0.7426(14)
N1 N 0.5000 0.3044(9) 0.7500
O1 O 0.5000 0.1599(8) 0.7500
C1B C 0.4656(9) 0.2303(10) 0.7494(12)
C2B C 0.4426(13) 0.3624(16) 0.7574(14)
loop_
_geom_bond_atom_site_label_1
_geom_bond_atom_site_label_2
_geom_bond_site_symmetry_1
_geom_bond_site_symmetry_2
C1 N1 1_555 1_555
C2 N1 1_555 1_555
N1 C1B 1_555 1_555
O1 C1 1_555 1_555
C3 H1 1_555 1_555
H2 C3 1_555 1_555
C4 C3 1_555 1_555
O2 C3 1_555 1_555
H3 O2 1_555 1_555
C5 H4 1_555 1_555
C6 H5 1_555 1_555
C7 C8 1_555 1_555
C8 H6 1_555 1_555
C9 C8 1_555 1_555
H7 C9 1_555 1_555
C10 C9 1_555 1_555
C11 C10 1_555 1_555
H8 C11 1_555 1_555
C12 C7 1_555 1_555
H9 C12 1_555 1_555
C13 C10 1_555 1_555
C14 H10 1_555 1_555
C15 H11 1_555 1_555
C16 C17 1_555 1_555
C17 H12 1_555 1_555
C18 C17 1_555 1_555
H13 C18 1_555 1_555
C19 C18 1_555 1_555
C20 C19 1_555 1_555
H14 C20 1_555 1_555
C21 C16 1_555 1_555
H15 C21 1_555 1_555
C22 C19 1_555 1_555
N2 C5 1_555 1_555
N3 C6 1_555 1_555
N4 C5 1_555 1_555
N5 C15 1_555 1_555
N6 C14 1_555 1_555
N7 C14 1_555 1_555
O3 C13 1_555 1_555
O4 C13 1_555 1_555
O5 C22 1_555 1_555
O6 C22 1_555 1_555
Zn1 N3 1_555 1_555
C1B C1 1_555 1_555
C2B N1 1_555 1_555
O4A Zn1 1_555 1_555
O5C Zn1 1_555 1_555
Zn1A O4 1_555 1_555
Zn1C O5 1_555 1_555
O1 C1B 1_555 1_555
C6 N4 1_555 1_555
C7 N4 1_555 1_555
C11 C12 1_555 1_555
C15 N7 1_555 1_555
C16 N7 1_555 1_555
C20 C21 1_555 1_555
N2 N3 1_555 1_555
N5 N6 1_555 1_555
N6 Zn1 1_555 1_555

#END
