
#######################################################################
#
#                 Cambridge Crystallographic Data Centre
#                                CCDC 
#
#######################################################################
#
# If this CIF has been generated from an entry in the Cambridge 
# Structural Database, then it will include bibliographic, chemical, 
# crystal, experimental, refinement or atomic coordinate data resulting 
# from the CCDC's data processing and validation procedures.
#
#######################################################################

data_AQAKEJ
_symmetry_cell_setting           monoclinic
_symmetry_space_group_name_H-M   'P 2/c'
_symmetry_Int_Tables_number      13
_space_group_name_Hall           '-P 2yc'
loop_
_symmetry_equiv_pos_site_id
_symmetry_equiv_pos_as_xyz
1 x,y,z
2 -x,y,1/2-z
3 -x,-y,-z
4 x,-y,1/2+z
_cell_length_a                   10.038(4)
_cell_length_b                   8.757(3)
_cell_length_c                   16.528(5)
_cell_angle_alpha                90
_cell_angle_beta                 100.680(15)
_cell_angle_gamma                90
_cell_volume                     1427.69
loop_
_atom_site_label
_atom_site_type_symbol
_atom_site_fract_x
_atom_site_fract_y
_atom_site_fract_z
H1 H 0.6752(19) 0.472(3) 0.3008(16)
C1 C 0.7817(2) 0.2289(3) 0.38281(14)
C2 C 0.8499(3) 0.0967(3) 0.41837(16)
H2 H 0.9264 0.0625 0.3995
C3 C 0.8057(3) 0.0182(3) 0.48004(16)
H3 H 0.8529 -0.0682 0.5019
C4 C 0.6924(3) 0.0642(3) 0.51077(17)
H4 H 0.6640 0.0096 0.5528
C5 C 0.6233(3) 0.1912(4) 0.47821(17)
H5 H 0.5476 0.2233 0.4986
C6 C 0.6649(2) 0.2743(3) 0.41406(14)
C7 C 0.5861(2) 0.4030(3) 0.38269(15)
H6 H 0.5127 0.4271 0.4074
C8 C 0.5239(2) 0.6263(3) 0.29682(14)
H7 H 0.4439 0.6239 0.3229
C9 C 0.6043(3) 0.7704(3) 0.32468(17)
H8 H 0.6870 0.7709 0.3023
H9 H 0.6292 0.7706 0.3843
C10 C 0.5223(3) 0.9133(3) 0.2965(2)
H10 H 0.4432 0.9172 0.3224
H11 H 0.5770 1.0031 0.3133
C11 C 1.0422(4) 0.6395(4) 0.0927(2)
H12 H 1.0672 0.5508 0.0649
H13 H 1.1019 0.7224 0.0861
H14 H 0.9506 0.6676 0.0697
Ce1 Ce 1.0000 0.356871(19) 0.2500
N1 N 0.6065(2) 0.4901(2) 0.32294(12)
N2 N 0.7786(2) 0.3910(3) 0.09726(14)
N3 N 0.9304(8) 0.0231(9) 0.2250(3)
O1 O 0.82167(17) 0.3053(2) 0.32455(11)
O2 O 0.7667(2) 0.4548(3) 0.16357(11)
O3 O 0.6895(2) 0.3986(3) 0.03582(13)
O4 O 0.8872(2) 0.3226(3) 0.09602(15)
O5 O 1.1456(8) 0.1029(6) 0.3056(3)
O6 O 0.8961(8) -0.1309(5) 0.2235(4)
O7 O 1.0000 0.0438(12) 0.2500
O8 O 1.0524(3) 0.6071(2) 0.17678(14)
H15 H 1.0213 0.6953 0.1840
H1A H 0.3248(19) 0.472(3) 0.1992(16)
C1A C 0.2183(2) 0.2289(3) 0.11719(14)
C2A C 0.1501(3) 0.0967(3) 0.08163(16)
H2A H 0.0736 0.0625 0.1005
C3A C 0.1943(3) 0.0182(3) 0.01996(16)
H3A H 0.1471 -0.0682 -0.0019
C4A C 0.3076(3) 0.0642(3) -0.01077(17)
H4A H 0.3360 0.0096 -0.0528
C5A C 0.3767(3) 0.1912(4) 0.02179(17)
H5A H 0.4524 0.2233 0.0014
C6A C 0.3351(2) 0.2743(3) 0.08594(14)
C7A C 0.4139(2) 0.4030(3) 0.11731(15)
H6A H 0.4873 0.4271 0.0926
C8A C 0.4761(2) 0.6263(3) 0.20318(14)
H7A H 0.5561 0.6239 0.1771
C9A C 0.3957(3) 0.7704(3) 0.17532(17)
H8A H 0.3130 0.7709 0.1977
H9A H 0.3708 0.7706 0.1157
C10A C 0.4777(3) 0.9133(3) 0.2035(2)
H10A H 0.5568 0.9172 0.1776
H11A H 0.4230 1.0031 0.1867
C11A C 0.9578(4) 0.6395(4) 0.4073(2)
H12A H 0.9328 0.5508 0.4351
H13A H 0.8981 0.7224 0.4139
H14A H 1.0494 0.6676 0.4303
Ce1_2 Ce 0.0000 0.356871(19) 0.2500
N1A N 0.3935(2) 0.4901(2) 0.17706(12)
N2A N 1.2214(2) 0.3910(3) 0.40274(14)
N3A N 1.0696(8) 0.0231(9) 0.2750(3)
O1A O 0.17833(17) 0.3053(2) 0.17545(11)
O1A_2 O 1.17833(17) 0.3053(2) 0.17545(11)
O2A O 1.2333(2) 0.4548(3) 0.33643(11)
O3A O 1.3105(2) 0.3986(3) 0.46418(13)
O4A O 1.1128(2) 0.3226(3) 0.40398(15)
O5A O 0.8544(8) 0.1029(6) 0.1944(3)
O6A O 1.1039(8) -0.1309(5) 0.2765(4)
O8A O 0.9476(3) 0.6071(2) 0.32322(14)
H15A H 0.9787 0.6953 0.3160
loop_
_geom_bond_atom_site_label_1
_geom_bond_atom_site_label_2
_geom_bond_site_symmetry_1
_geom_bond_site_symmetry_2
H1 N1 1_555 1_555
C1 C2 1_555 1_555
C2 H2 1_555 1_555
C3 C2 1_555 1_555
H3 C3 1_555 1_555
C4 C3 1_555 1_555
H4 C4 1_555 1_555
C5 C4 1_555 1_555
H5 C5 1_555 1_555
C6 C1 1_555 1_555
C7 C6 1_555 1_555
H6 C7 1_555 1_555
C8 H7 1_555 1_555
C9 C8 1_555 1_555
H8 C9 1_555 1_555
H9 C9 1_555 1_555
C10 C9 1_555 1_555
H10 C10 1_555 1_555
H11 C10 1_555 1_555
C11 H12 1_555 1_555
H13 C11 1_555 1_555
H14 C11 1_555 1_555
Ce1 O1 1_555 1_555
N1 C7 1_555 1_555
N2 O2 1_555 1_555
N3 O6 1_555 1_555
O1 C1 1_555 1_555
O2 Ce1 1_555 1_555
O3 N2 1_555 1_555
O4 Ce1 1_555 1_555
O5 Ce1 1_555 1_555
O7 Ce1 1_555 1_555
O8 C11 1_555 1_555
H15 O8 1_555 1_555
H1A N1A 1_555 1_555
C1A C2A 1_555 1_555
C2A H2A 1_555 1_555
C3A C2A 1_555 1_555
H3A C3A 1_555 1_555
C4A C3A 1_555 1_555
H4A C4A 1_555 1_555
C5A C4A 1_555 1_555
H5A C5A 1_555 1_555
C6A C1A 1_555 1_555
C7A C6A 1_555 1_555
H6A C7A 1_555 1_555
C8A C8 1_555 1_555
H7A C8A 1_555 1_555
C9A C8A 1_555 1_555
H8A C9A 1_555 1_555
H9A C9A 1_555 1_555
C10A C10 1_555 1_555
H10A C10A 1_555 1_555
H11A C10A 1_555 1_555
C11A H12A 1_555 1_555
H13A C11A 1_555 1_555
H14A C11A 1_555 1_555
Ce1_2 O1A 1_555 1_555
N1A C7A 1_555 1_555
N2A O2A 1_555 1_555
N3A N3 1_555 1_555
O1A C1A 1_555 1_555
O1A_2 Ce1 1_555 1_555
O2A Ce1 1_555 1_555
O3A N2A 1_555 1_555
O4A Ce1 1_555 1_555
O5A Ce1 1_555 1_555
O6A N3A 1_555 1_555
O8A Ce1 1_555 1_555
H15A O8A 1_555 1_555
C5 C6 1_555 1_555
C8 N1 1_555 1_555
Ce1 O8 1_555 1_555
N2 O4 1_555 1_555
N3 O7 1_555 1_555
N3 O5A 1_555 1_555
O5 N3A 1_555 1_555
O7 N3A 1_555 1_555
C5A C6A 1_555 1_555
C8A N1A 1_555 1_555
C9A C10A 1_555 1_555
C11A O8A 1_555 1_555
N2A O4A 1_555 1_555

#END
