
#######################################################################
#
#                 Cambridge Crystallographic Data Centre
#                                CCDC 
#
#######################################################################
#
# If this CIF has been generated from an entry in the Cambridge 
# Structural Database, then it will include bibliographic, chemical, 
# crystal, experimental, refinement or atomic coordinate data resulting 
# from the CCDC's data processing and validation procedures.
#
#######################################################################

data_AQALUZ
_symmetry_cell_setting           monoclinic
_symmetry_space_group_name_H-M   'P 21/c'
_symmetry_Int_Tables_number      14
_space_group_name_Hall           '-P 2ybc'
loop_
_symmetry_equiv_pos_site_id
_symmetry_equiv_pos_as_xyz
1 x,y,z
2 x,1/2-y,1/2+z
3 -x,-y,-z
4 -x,1/2+y,1/2-z
_cell_length_a                   16.784(5)
_cell_length_b                   5.4457(18)
_cell_length_c                   17.862(6)
_cell_angle_alpha                90
_cell_angle_beta                 105.987(5)
_cell_angle_gamma                90
_cell_volume                     1569.46
loop_
_atom_site_label
_atom_site_type_symbol
_atom_site_fract_x
_atom_site_fract_y
_atom_site_fract_z
Ni1 Ni 0.0000 0.0000 0.0000
Ni2 Ni 0.5000 -1.0000 0.0000
O1 O 0.09770(9) 0.2080(3) 0.06340(8)
O2 O 0.16479(10) -0.0627(3) 0.15290(9)
O3 O 0.40063(8) -0.7671(3) -0.00453(8)
O4 O 0.31864(11) -1.0125(3) 0.04268(11)
O5 O 0.03963(9) -0.3102(3) 0.06987(8)
H1 H 0.0520(16) -0.453(3) 0.0581(17)
H2 H 0.0827(12) -0.245(5) 0.1007(15)
O6 O 0.44320(9) -1.2882(3) 0.03811(9)
H3 H 0.4292(16) -1.424(3) 0.0144(17)
H4 H 0.3999(12) -1.217(4) 0.0441(19)
N1 N 0.44569(10) 0.5853(3) 0.37870(10)
N2 N -0.06939(10) 0.1022(3) 0.07862(10)
C1 C 0.15695(12) 0.1443(4) 0.12251(11)
C2 C 0.21900(13) 0.3374(4) 0.15554(12)
H5 H 0.2165 0.4861 0.1294
C3 C 0.27808(13) 0.3034(4) 0.22156(12)
H6 H 0.2783 0.1533 0.2464
C4 C 0.34292(14) 0.4784(4) 0.25902(13)
C5 C 0.36381(13) 0.6855(4) 0.22271(12)
H7 H 0.3363 0.7214 0.1712
C6 C 0.42609(14) 0.8359(4) 0.26473(13)
H8 H 0.4421 0.9728 0.2413
C7 C 0.46502(13) 0.7820(4) 0.34251(12)
H9 H 0.5062 0.8873 0.3704
C8 C 0.38695(13) 0.4360(4) 0.33634(12)
H10 H 0.3747 0.2945 0.3601
C9 C 0.33069(12) -0.8248(4) 0.00752(12)
C10 C 0.25920(13) -0.6582(4) -0.02394(13)
H11 H 0.2121 -0.6831 -0.0072
C11 C 0.25715(14) -0.4775(4) -0.07382(13)
H12 H 0.3039 -0.4518 -0.0911
C12 C 0.18544(13) -0.3139(4) -0.10382(12)
C13 C 0.16332(14) -0.2270(5) -0.17974(13)
H13 H 0.1952 -0.2654 -0.2133
C14 C 0.09328(16) -0.0825(5) -0.20490(13)
H14 H 0.0770 -0.0237 -0.2557
C15 C -0.04775(16) 0.0268(4) 0.15316(14)
H15 H 0.0000 -0.0672 0.1708
C16 C -0.13729(13) 0.2413(4) 0.05528(12)
H16 H -0.1534 0.2928 0.0037
N1C N 0.55431(10) -0.9147(3) 0.12130(10)
Ni2A Ni 0.5000 0.5000 0.5000
C15B C 0.04775(16) -0.0268(4) -0.15316(14)
N2B N 0.06939(10) -0.1022(3) -0.07862(10)
O1B O -0.09770(9) -0.2080(3) -0.06340(8)
O5B O -0.03963(9) 0.3102(3) -0.06987(8)
H1B H -0.0520(16) 0.453(3) -0.0581(17)
H2B H -0.0827(12) 0.245(5) -0.1007(15)
C16B C 0.13729(13) -0.2413(4) -0.05528(12)
H16B H 0.1534 -0.2928 -0.0037
H15B H 0.0000 0.0672 -0.1708
O3B O 0.59937(8) -1.2329(3) 0.00453(8)
O6B O 0.55680(9) -0.7118(3) -0.03811(9)
H3B H 0.5708(16) -0.576(3) -0.0144(17)
H4B H 0.6001(12) -0.783(4) -0.0441(19)
N1A N 0.44569(10) -1.0853(3) -0.12130(10)
C14B C -0.09328(16) 0.0825(5) 0.20490(13)
C12B C -0.18544(13) 0.3139(4) 0.10382(12)
C1B C -0.15695(12) -0.1443(4) -0.12251(11)
C13B C -0.16332(14) 0.2270(5) 0.17974(13)
H14B H -0.0770 0.0237 0.2557
C11B C -0.25715(14) 0.4775(4) 0.07382(13)
O2B O -0.16479(10) 0.0627(3) -0.15290(9)
C2B C -0.21900(13) -0.3374(4) -0.15554(12)
H13B H -0.1952 0.2654 0.2133
C10B C -0.25920(13) 0.6582(4) 0.02394(13)
H12B H -0.3039 0.4518 0.0911
H5B H -0.2165 -0.4861 -0.1294
C3B C -0.27808(13) -0.3034(4) -0.22156(12)
C9B C -0.33069(12) 0.8248(4) -0.00752(12)
H11B H -0.2121 0.6831 0.0072
H6B H -0.2783 -0.1533 -0.2464
C4B C -0.34292(14) -0.4784(4) -0.25902(13)
O3B_2 O -0.40063(8) 0.7671(3) 0.00453(8)
O4B O -0.31864(11) 1.0125(3) -0.04268(11)
C5B C -0.36381(13) -0.6855(4) -0.22271(12)
C8B C -0.38695(13) -0.4360(4) -0.33634(12)
Ni2_2 Ni -0.5000 1.0000 0.0000
H7B H -0.3363 -0.7214 -0.1712
C6B C -0.42609(14) -0.8359(4) -0.26473(13)
N1B N -0.44569(10) -0.5853(3) -0.37870(10)
H10B H -0.3747 -0.2945 -0.3601
H8B H -0.4421 -0.9728 -0.2413
C7B C -0.46502(13) -0.7820(4) -0.34251(12)
Ni2A_2 Ni -0.5000 -0.5000 -0.5000
H9B H -0.5062 -0.8873 -0.3704
loop_
_geom_bond_atom_site_label_1
_geom_bond_atom_site_label_2
_geom_bond_site_symmetry_1
_geom_bond_site_symmetry_2
Ni1 O1 1_555 1_555
Ni2 O3 1_555 1_555
O1 C1 1_555 1_555
O2 C1 1_555 1_555
O3 C9 1_555 1_555
O4 C9 1_555 1_555
O5 Ni1 1_555 1_555
H1 O5 1_555 1_555
H2 O5 1_555 1_555
O6 Ni2 1_555 1_555
H3 O6 1_555 1_555
H4 O6 1_555 1_555
N1 C7 1_555 1_555
N2 Ni1 1_555 1_555
C1 C2 1_555 1_555
C2 H5 1_555 1_555
C3 C2 1_555 1_555
H6 C3 1_555 1_555
C4 C3 1_555 1_555
C5 C4 1_555 1_555
H7 C5 1_555 1_555
C6 C5 1_555 1_555
H8 C6 1_555 1_555
C7 C6 1_555 1_555
H9 C7 1_555 1_555
C8 N1 1_555 1_555
H10 C8 1_555 1_555
C9 C10 1_555 1_555
C10 H11 1_555 1_555
C11 C10 1_555 1_555
H12 C11 1_555 1_555
C12 C11 1_555 1_555
C13 C12 1_555 1_555
H13 C13 1_555 1_555
C14 C13 1_555 1_555
H14 C14 1_555 1_555
C15 N2 1_555 1_555
H15 C15 1_555 1_555
C16 N2 1_555 1_555
H16 C16 1_555 1_555
N1C Ni2 1_555 1_555
Ni2A N1 1_555 1_555
C15B C14 1_555 1_555
N2B Ni1 1_555 1_555
O1B Ni1 1_555 1_555
O5B Ni1 1_555 1_555
H1B O5B 1_555 1_555
H2B O5B 1_555 1_555
C16B C12 1_555 1_555
H16B C16B 1_555 1_555
H15B C15B 1_555 1_555
O3B Ni2 1_555 1_555
O6B Ni2 1_555 1_555
H3B O6B 1_555 1_555
H4B O6B 1_555 1_555
N1A Ni2 1_555 1_555
C14B C15 1_555 1_555
C12B C16 1_555 1_555
C1B O1B 1_555 1_555
C13B C14B 1_555 1_555
H14B C14B 1_555 1_555
C11B C12B 1_555 1_555
O2B C1B 1_555 1_555
C2B C1B 1_555 1_555
H13B C13B 1_555 1_555
C10B C11B 1_555 1_555
H12B C11B 1_555 1_555
H5B C2B 1_555 1_555
C3B C2B 1_555 1_555
C9B C10B 1_555 1_555
H11B C10B 1_555 1_555
H6B C3B 1_555 1_555
C4B C3B 1_555 1_555
O3B_2 C9B 1_555 1_555
O4B C9B 1_555 1_555
C5B C4B 1_555 1_555
C8B C4B 1_555 1_555
Ni2_2 O3B_2 1_555 1_555
H7B C5B 1_555 1_555
C6B C5B 1_555 1_555
N1B C8B 1_555 1_555
H10B C8B 1_555 1_555
H8B C6B 1_555 1_555
C7B C6B 1_555 1_555
Ni2A_2 N1B 1_555 1_555
H9B C7B 1_555 1_555
C4 C8 1_555 1_555
C15B N2B 1_555 1_555
N2B C16B 1_555 1_555
C12B C13B 1_555 1_555
N1B C7B 1_555 1_555

#END
