
#######################################################################
#
#                 Cambridge Crystallographic Data Centre
#                                CCDC 
#
#######################################################################
#
# If this CIF has been generated from an entry in the Cambridge 
# Structural Database, then it will include bibliographic, chemical, 
# crystal, experimental, refinement or atomic coordinate data resulting 
# from the CCDC's data processing and validation procedures.
#
#######################################################################

data_AQALIO
_symmetry_cell_setting           orthorhombic
_symmetry_space_group_name_H-M   'P n m a'
_symmetry_Int_Tables_number      62
_space_group_name_Hall           '-P 2ac 2n'
loop_
_symmetry_equiv_pos_site_id
_symmetry_equiv_pos_as_xyz
1 x,y,z
2 1/2-x,-y,1/2+z
3 1/2+x,1/2-y,1/2-z
4 -x,1/2+y,-z
5 -x,-y,-z
6 1/2+x,y,1/2-z
7 1/2-x,1/2+y,1/2+z
8 x,1/2-y,z
_cell_length_a                   15.829(3)
_cell_length_b                   11.452(2)
_cell_length_c                   12.685(3)
_cell_angle_alpha                90
_cell_angle_beta                 90
_cell_angle_gamma                90
_cell_volume                     2299.46
loop_
_atom_site_label
_atom_site_type_symbol
_atom_site_fract_x
_atom_site_fract_y
_atom_site_fract_z
Eu1 Eu 0.07766(4) 0.2500 0.52294(6)
Eu2 Eu 0.07442(4) 0.2500 0.02272(6)
Sr1 Sr 0.32789(8) 0.2500 0.37106(12)
O1 O 0.1617(6) 0.2500 0.3577(8)
O2 O 0.2702(5) 0.0425(8) 0.4023(8)
H1 H 0.2213 0.0343 0.4266
H2 H 0.2999 -0.0169 0.4127
O3 O -0.0079(7) 0.2500 0.3601(10)
O4 O 0.3433(8) 0.1209(12) 0.1991(10)
H3 H 0.3809 0.0792 0.2086
H4 H 0.3262 0.0875 0.1441
O5 O 0.1582(6) 0.2500 0.1821(8)
O6 O -0.0089(6) 0.2500 0.1856(9)
O7 O -0.0458(5) 0.1267(7) 0.5464(7)
O8 O 0.2209(8) 0.2500 0.0025(11)
H5 H 0.2522 0.2500 0.0558
H6 H 0.2493 0.2500 -0.0536
O9 O 0.2354(6) 0.2500 0.5568(8)
H7 H 0.2478 0.3106 0.5905
O10 O -0.0550(5) 0.1318(7) -0.0036(6)
O11 O 0.0953(6) 0.3656(7) 0.8618(6)
O12 O 0.0930(5) 0.3664(7) 0.6854(6)
C1 C 0.1246(10) 0.2500 0.2696(12)
C2 C 0.0271(10) 0.2500 0.2731(11)
C3 C -0.0423(6) 0.0231(9) 0.5229(8)
C4 C -0.0425(6) 0.0248(9) -0.0197(9)
C5 C 0.0931(6) 0.3168(9) 0.7738(8)
O15 O -0.1013(5) -0.0504(7) 0.5310(6)
O16 O -0.0918(4) -0.0447(6) -0.0651(6)
Eu1C Eu -0.07766(4) -0.2500 0.47706(6)
Eu2_2 Eu 0.07442(4) 0.2500 1.02272(6)
Eu2C Eu -0.07442(4) -0.2500 -0.02272(6)
Sr1B Sr -0.17211(8) 0.2500 0.12894(12)
Sr1A Sr 0.17211(8) -0.2500 -0.12894(12)
O2G O 0.2702(5) 0.4575(8) 0.4023(8)
H1G H 0.2213 0.4657 0.4266
H2G H 0.2999 0.5169 0.4127
O4G O 0.3433(8) 0.3791(12) 0.1991(10)
H3G H 0.3809 0.4208 0.2086
H4G H 0.3262 0.4125 0.1441
O6B O 0.4911(6) 0.2500 0.3144(9)
O7D O 0.0458(5) -0.1267(7) 0.4536(7)
O7G O -0.0458(5) 0.3733(7) 0.5464(7)
H7G H 0.2478 0.1894 0.5905
O10D O 0.0550(5) -0.1318(7) 0.0036(6)
O10G O -0.0550(5) 0.3682(7) -0.0036(6)
O10E O 0.4450(5) 0.1318(7) 0.5036(6)
O10B O 0.4450(5) 0.3682(7) 0.5036(6)
O11G O 0.0953(6) 0.1344(7) 0.8618(6)
O11_2 O 0.0953(6) 0.3656(7) -0.1382(6)
O11G_2 O 0.0953(6) 0.1344(7) -0.1382(6)
O12G O 0.0930(5) 0.1336(7) 0.6854(6)
C3D C 0.0423(6) -0.0231(9) 0.4771(8)
C4D C 0.0425(6) -0.0248(9) 0.0197(9)
C5G C 0.0931(6) 0.1832(9) 0.7738(8)
O15D O 0.1013(5) 0.0504(7) 0.4690(6)
O15C O 0.1013(5) 0.4496(7) 0.4690(6)
O16D O 0.0918(4) 0.0447(6) 0.0651(6)
O16C O 0.0918(4) 0.4553(6) 0.0651(6)
O13 O 0.1655(10) 0.7500 0.3108(13)
H8 H 0.1593 0.6899 0.3439
H8G H 0.1593 0.8101 0.3439
O14 O 0.2139(7) 0.5703(9) 0.1801(9)
H9 H 0.2197 0.5537 0.2440
H10 H 0.1838 0.5263 0.1472
loop_
_geom_bond_atom_site_label_1
_geom_bond_atom_site_label_2
_geom_bond_site_symmetry_1
_geom_bond_site_symmetry_2
Eu1 O1 1_555 1_555
Eu2 O5 1_555 1_555
Sr1 O1 1_555 1_555
O1 C1 1_555 1_555
O2 Sr1 1_555 1_555
H1 O2 1_555 1_555
H2 O2 1_555 1_555
O3 Eu1 1_555 1_555
O4 Sr1 1_555 1_555
H3 O4 1_555 1_555
H4 O4 1_555 1_555
O5 C1 1_555 1_555
O6 Eu2 1_555 1_555
O7 Eu1 1_555 1_555
O8 Eu2 1_555 1_555
H5 O8 1_555 1_555
H6 O8 1_555 1_555
O9 Eu1 1_555 1_555
H7 O9 1_555 1_555
O10 Eu2 1_555 1_555
O11 C5 1_555 1_555
O12 Eu1 1_555 1_555
C1 C2 1_555 1_555
C2 O3 1_555 1_555
C3 O7 1_555 1_555
C4 O10 1_555 1_555
C5 O12 1_555 1_555
O13 H8 1_555 1_555
O14 H9 1_555 1_555
H10 O14 1_555 1_555
O15 C3 1_555 1_555
O16 C4 1_555 1_555
Eu1C O15 1_555 1_555
Eu2_2 O11 1_555 1_555
Eu2C O16 1_555 1_555
Sr1B O6 1_555 1_555
Sr1A O10D 1_555 1_555
O2G Sr1 1_555 1_555
H1G O2G 1_555 1_555
H2G O2G 1_555 1_555
O4G Sr1 1_555 1_555
H3G O4G 1_555 1_555
H4G O4G 1_555 1_555
O6B Sr1 1_555 1_555
O7D Eu1C 1_555 1_555
O7G Eu1 1_555 1_555
H7G O9 1_555 1_555
O10D Eu2C 1_555 1_555
O10G Eu2 1_555 1_555
O10E Sr1 1_555 1_555
O10B Sr1 1_555 1_555
O11G Eu2_2 1_555 1_555
O11_2 Eu2 1_555 1_555
O11G_2 Eu2 1_555 1_555
O12G Eu1 1_555 1_555
C3D C3 1_555 1_555
C4D C4 1_555 1_555
C5G C5 1_555 1_555
H8G O13 1_555 1_555
O15D Eu1 1_555 1_555
O15C Eu1 1_555 1_555
O16D Eu2 1_555 1_555
O16C Eu2 1_555 1_555
Sr1 O9 1_555 1_555
O6 C2 1_555 1_555
O10 Sr1B 1_555 1_555
Sr1B O10G 1_555 1_555
O7D C3D 1_555 1_555
O10D C4D 1_555 1_555
O11G C5G 1_555 1_555
O12G C5G 1_555 1_555
C3D O15D 1_555 1_555
C4D O16D 1_555 1_555

#END
