
#######################################################################
#
#                 Cambridge Crystallographic Data Centre
#                                CCDC 
#
#######################################################################
#
# If this CIF has been generated from an entry in the Cambridge 
# Structural Database, then it will include bibliographic, chemical, 
# crystal, experimental, refinement or atomic coordinate data resulting 
# from the CCDC's data processing and validation procedures.
#
#######################################################################

data_AQAMAG01
_symmetry_cell_setting           triclinic
_symmetry_space_group_name_H-M   'P -1'
_symmetry_Int_Tables_number      2
_space_group_name_Hall           '-P 1'
loop_
_symmetry_equiv_pos_site_id
_symmetry_equiv_pos_as_xyz
1 x,y,z
2 -x,-y,-z
_cell_length_a                   7.657(8)
_cell_length_b                   9.687(10)
_cell_length_c                   12.04(1)
_cell_angle_alpha                66.53(2)
_cell_angle_beta                 81.18(2)
_cell_angle_gamma                84.64(2)
_cell_volume                     808.962
loop_
_atom_site_label
_atom_site_type_symbol
_atom_site_fract_x
_atom_site_fract_y
_atom_site_fract_z
Ni1 Ni 0.12033(5) 0.15829(3) 0.26242(3)
O1 O 0.6884(4) -0.5346(3) 0.2652(2)
O2 O 0.8986(3) -0.4081(2) 0.1192(2)
O3 O 0.0446(3) -0.0170(2) 0.2126(2)
O4 O 0.1396(3) -0.0737(2) 0.3906(2)
O5 O -0.1418(3) 0.1830(2) 0.3523(2)
O6 O 0.0705(3) 0.3481(2) 0.1197(2)
N1 N 0.3882(3) 0.1468(3) 0.1679(2)
N2 N 0.2199(3) -0.7430(3) 0.3687(2)
C1 C 0.4641(4) 0.0205(3) 0.1618(3)
C2 C 0.6347(4) 0.0085(3) 0.1060(3)
C3 C 0.7295(4) 0.1409(3) 0.0498(3)
C4 C 0.6522(5) 0.2765(4) 0.0538(4)
C5 C 0.4836(4) 0.2724(3) 0.1140(3)
C6 C 0.7177(4) -0.1356(3) 0.1104(3)
C7 C 0.6503(4) -0.2701(3) 0.1701(3)
C8 C 0.7511(4) -0.4158(3) 0.1868(3)
C9 C 0.1823(4) -0.5985(3) 0.3526(3)
C10 C 0.2373(4) -0.5347(3) 0.4273(3)
C11 C 0.3356(4) -0.6273(3) 0.5213(3)
C12 C 0.3764(5) -0.7748(3) 0.5350(3)
C13 C 0.3148(5) -0.8290(3) 0.4584(3)
C14 C 0.1971(4) -0.3772(3) 0.4106(3)
C15 C 0.1071(4) -0.2768(3) 0.3277(3)
C16 C 0.0922(4) -0.1145(3) 0.3108(3)
H1 H 0.4023 -0.0577 0.1993
H2 H 0.8490 0.1484 0.0002
H3 H 0.7418 0.3799 0.0027
H4 H 0.4221 0.3784 0.1187
H5 H 0.8429 -0.1226 0.0746
H6 H 0.5818 -0.2918 0.1958
H7 H 0.1211 -0.5312 0.2788
H8 H 0.3680 -0.5788 0.5704
H9 H 0.4506 -0.8404 0.6089
H10 H 0.3432 -0.9334 0.4555
H11 H 0.2285 -0.3766 0.4601
H12 H 0.0525 -0.2956 0.2734
H13 H -0.1971 0.2616 0.3282
H14 H -0.1225 0.1608 0.4214
H15 H -0.0002 0.4289 0.1321
H16 H 0.1165 0.3550 0.0430
Ni1_2 Ni 0.12033(5) -0.84171(3) 0.26242(3)
N2_2 N 0.2199(3) 0.2570(3) 0.3687(2)
loop_
_geom_bond_atom_site_label_1
_geom_bond_atom_site_label_2
_geom_bond_site_symmetry_1
_geom_bond_site_symmetry_2
Ni1 O3 1_555 1_555
O1 C8 1_555 1_555
O2 C8 1_555 1_555
O3 C16 1_555 1_555
O4 Ni1 1_555 1_555
O5 Ni1 1_555 1_555
O6 Ni1 1_555 1_555
N1 Ni1 1_555 1_555
N2 C9 1_555 1_555
C1 N1 1_555 1_555
C2 C1 1_555 1_555
C3 C2 1_555 1_555
C4 C3 1_555 1_555
C5 N1 1_555 1_555
C6 C2 1_555 1_555
C7 C6 1_555 1_555
C8 C7 1_555 1_555
C9 C10 1_555 1_555
C10 C11 1_555 1_555
C11 C12 1_555 1_555
C12 C13 1_555 1_555
C13 N2 1_555 1_555
C14 C10 1_555 1_555
C15 C14 1_555 1_555
C16 O4 1_555 1_555
H1 C1 1_555 1_555
H2 C3 1_555 1_555
H3 C4 1_555 1_555
H4 C5 1_555 1_555
H5 C6 1_555 1_555
H6 C7 1_555 1_555
H7 C9 1_555 1_555
H8 C11 1_555 1_555
H9 C12 1_555 1_555
H10 C13 1_555 1_555
H11 C14 1_555 1_555
H12 C15 1_555 1_555
H13 O5 1_555 1_555
H14 O5 1_555 1_555
H15 O6 1_555 1_555
H16 O6 1_555 1_555
Ni1_2 N2 1_555 1_555
N2_2 Ni1 1_555 1_555
C4 C5 1_555 1_555
C15 C16 1_555 1_555

#END
