
#######################################################################
#
#                 Cambridge Crystallographic Data Centre
#                                CCDC 
#
#######################################################################
#
# If this CIF has been generated from an entry in the Cambridge 
# Structural Database, then it will include bibliographic, chemical, 
# crystal, experimental, refinement or atomic coordinate data resulting 
# from the CCDC's data processing and validation procedures.
#
#######################################################################

data_AQAMAG
_symmetry_cell_setting           triclinic
_symmetry_space_group_name_H-M   'P -1'
_symmetry_Int_Tables_number      2
_space_group_name_Hall           '-P 1'
loop_
_symmetry_equiv_pos_site_id
_symmetry_equiv_pos_as_xyz
1 x,y,z
2 -x,-y,-z
_cell_length_a                   7.6036(5)
_cell_length_b                   9.6014(6)
_cell_length_c                   11.8554(6)
_cell_angle_alpha                113.880(10)
_cell_angle_beta                 95.080(10)
_cell_angle_gamma                95.040(10)
_cell_volume                     781.002
loop_
_atom_site_label
_atom_site_type_symbol
_atom_site_fract_x
_atom_site_fract_y
_atom_site_fract_z
Ni1 Ni 0.12375(4) 0.07514(3) 0.23572(2)
O1 O -0.1350(2) -0.0312(2) 0.15105(17)
H1 H -0.188(4) -0.092(3) 0.178(3)
H2 H -0.141(5) -0.076(3) 0.0724(10)
O2 O 0.0847(2) 0.0263(2) 0.38075(16)
H3 H 0.024(3) -0.0524(19) 0.381(2)
H4 H 0.091(4) 0.101(2) 0.4519(17)
O3 O 0.1407(2) 0.17836(19) 0.10961(15)
O4 O 0.0434(2) 0.2974(2) 0.28879(16)
O5 O 0.6908(3) 0.7703(2) 0.23511(19)
O6 O 0.9068(2) 0.7816(2) 0.38006(16)
N1 N 0.2186(3) 0.8738(2) 0.13350(18)
N2 N 0.3860(3) 0.1780(2) 0.32829(19)
C1 C 0.0906(3) 0.2974(3) 0.1896(2)
C2 C 0.1039(3) 0.4445(3) 0.1745(2)
H5 H 0.0467 0.5243 0.2245
C3 C 0.1964(3) 0.4631(3) 0.0903(2)
H6 H 0.2406 0.3769 0.0365
C4 C 0.2360(3) 0.6054(3) 0.0734(2)
C5 C 0.3347(3) 0.6044(3) -0.0206(2)
H7 H 0.3731 0.5140 -0.0730
C6 C 0.3750(4) 0.7392(3) -0.0351(2)
H8 H 0.4412 0.7407 -0.0971
C7 C 0.3161(3) 0.8698(3) 0.0430(2)
H9 H 0.3445 0.9602 0.0333
C8 C 0.1809(3) 0.7433(3) 0.1477(2)
H10 H 0.1146 0.7454 0.2105
C9 C 0.7542(3) 0.7281(3) 0.3141(2)
C10 C 0.6489(3) 0.5984(3) 0.3291(2)
H11 H 0.5300 0.5699 0.2939
C11 C 0.7178(3) 0.5227(3) 0.3901(2)
H12 H 0.8305 0.5636 0.4353
C12 C 0.6347(3) 0.3803(3) 0.3941(2)
C13 C 0.7288(3) 0.3033(3) 0.4509(2)
H13 H 0.8432 0.3451 0.4930
C14 C 0.6517(4) 0.1643(3) 0.4446(3)
H14 H 0.7131 0.1117 0.4826
C15 C 0.4819(3) 0.1045(3) 0.3812(3)
H15 H 0.4323 0.0092 0.3750
C16 C 0.4618(3) 0.3135(3) 0.3365(2)
H16 H 0.3951 0.3664 0.3016
N1_2 N 0.2186(3) -0.1262(2) 0.13350(18)
Ni1_2 Ni 0.12375(4) 1.07514(3) 0.23572(2)
loop_
_geom_bond_atom_site_label_1
_geom_bond_atom_site_label_2
_geom_bond_site_symmetry_1
_geom_bond_site_symmetry_2
Ni1 O1 1_555 1_555
O1 H1 1_555 1_555
H2 O1 1_555 1_555
O2 Ni1 1_555 1_555
H3 O2 1_555 1_555
H4 O2 1_555 1_555
O3 Ni1 1_555 1_555
O4 Ni1 1_555 1_555
O5 C9 1_555 1_555
O6 C9 1_555 1_555
N1 C7 1_555 1_555
N2 Ni1 1_555 1_555
C1 O3 1_555 1_555
C2 C1 1_555 1_555
H5 C2 1_555 1_555
C3 C2 1_555 1_555
H6 C3 1_555 1_555
C4 C3 1_555 1_555
C5 C4 1_555 1_555
H7 C5 1_555 1_555
C6 C5 1_555 1_555
H8 C6 1_555 1_555
C7 C6 1_555 1_555
H9 C7 1_555 1_555
C8 N1 1_555 1_555
H10 C8 1_555 1_555
C9 C10 1_555 1_555
C10 H11 1_555 1_555
C11 C10 1_555 1_555
H12 C11 1_555 1_555
C12 C11 1_555 1_555
C13 C12 1_555 1_555
H13 C13 1_555 1_555
C14 C13 1_555 1_555
H14 C14 1_555 1_555
C15 N2 1_555 1_555
H15 C15 1_555 1_555
C16 N2 1_555 1_555
H16 C16 1_555 1_555
N1_2 Ni1 1_555 1_555
Ni1_2 N1 1_555 1_555
O4 C1 1_555 1_555
C4 C8 1_555 1_555
C12 C16 1_555 1_555
C14 C15 1_555 1_555

#END
