
#######################################################################
#
#                 Cambridge Crystallographic Data Centre
#                                CCDC 
#
#######################################################################
#
# If this CIF has been generated from an entry in the Cambridge 
# Structural Database, then it will include bibliographic, chemical, 
# crystal, experimental, refinement or atomic coordinate data resulting 
# from the CCDC's data processing and validation procedures.
#
#######################################################################

data_AQAMIO02
_symmetry_cell_setting           monoclinic
_symmetry_space_group_name_H-M   'P 21/c'
_symmetry_Int_Tables_number      14
_space_group_name_Hall           '-P 2ybc'
loop_
_symmetry_equiv_pos_site_id
_symmetry_equiv_pos_as_xyz
1 x,y,z
2 -x,1/2+y,1/2-z
3 -x,-y,-z
4 x,1/2-y,1/2+z
_cell_length_a                   16.958(8)
_cell_length_b                   5.466(3)
_cell_length_c                   18.034(8)
_cell_angle_alpha                90
_cell_angle_beta                 106.209(7)
_cell_angle_gamma                90
_cell_volume                     1605.17
loop_
_atom_site_label
_atom_site_type_symbol
_atom_site_fract_x
_atom_site_fract_y
_atom_site_fract_z
Co1 Co 0.0000 0.0000 0.5000
Co2 Co 0.5000 -1.0000 0.5000
N1 N -0.44495(14) -0.5893(4) 0.12370(14)
N2 N 0.07053(14) -0.1071(4) 0.42028(14)
O1 O -0.09804(11) -0.2085(3) 0.43488(11)
O2 O -0.16415(13) 0.0595(4) 0.34536(12)
O3 O 0.39900(11) -0.7679(3) 0.49543(11)
O4 O 0.31960(13) -1.0124(4) 0.54316(14)
O5 O -0.04103(11) 0.3115(3) 0.42870(11)
H1 H -0.0524 0.4554 0.4404
H2 H -0.0835 0.2510 0.3967
O6 O 0.44249(12) -1.2902(4) 0.53764(12)
H3 H 0.4278 -1.4181 0.5103
H4 H 0.3995 -1.2227 0.5441
C1 C -0.38602(17) -0.4422(5) 0.16521(16)
H5 H -0.3735 -0.3033 0.1410
C2 C -0.34200(16) -0.4805(5) 0.24173(16)
C3 C -0.36293(18) -0.6855(5) 0.27829(17)
H6 H -0.3354 -0.7205 0.3294
C4 C -0.42507(18) -0.8343(6) 0.23718(18)
H7 H -0.4410 -0.9694 0.2609
C5 C -0.46396(18) -0.7835(6) 0.16068(18)
H8 H -0.5051 -0.8885 0.1337
C6 C -0.27731(17) -0.3071(5) 0.27841(16)
H9 H -0.2774 -0.1591 0.2530
C7 C -0.21853(17) -0.3368(5) 0.34380(16)
H10 H -0.2162 -0.4835 0.3705
C8 C -0.15654(17) -0.1464(5) 0.37614(16)
C9 C 0.13648(17) -0.2487(5) 0.44333(16)
H11 H 0.1513 -0.3035 0.4942
C10 C 0.18498(17) -0.3203(6) 0.39612(17)
C11 C 0.16400(19) -0.2304(6) 0.32187(18)
H12 H 0.1958 -0.2683 0.2889
C12 C 0.0955(2) -0.0837(7) 0.29672(19)
H13 H 0.0800 -0.0233 0.2465
C13 C 0.05052(19) -0.0282(6) 0.34712(18)
H14 H 0.0040 0.0687 0.3296
C14 C 0.25608(17) -0.4831(6) 0.42660(17)
H15 H 0.3023 -0.4574 0.4095
C15 C 0.25896(17) -0.6623(5) 0.47622(18)
H16 H 0.2124 -0.6887 0.4928
C16 C 0.33053(18) -0.8257(5) 0.50786(17)
Co2C Co -0.5000 -0.5000 0.0000
Co2_2 Co -0.5000 1.0000 0.5000
Co2C_2 Co 0.5000 0.5000 1.0000
N1B N 0.44495(14) 0.5893(4) 0.87630(14)
N1C N 0.55505(14) -0.9107(4) 0.62370(14)
N1A N 0.44495(14) -1.0893(4) 0.37630(14)
N2B N -0.07053(14) 0.1071(4) 0.57972(14)
O1B O 0.09804(11) 0.2085(3) 0.56512(11)
O2B O 0.16415(13) -0.0595(4) 0.65464(12)
O3B O -0.39900(11) 0.7679(3) 0.50457(11)
O3B_2 O 0.60100(11) -1.2321(3) 0.50457(11)
O4B O -0.31960(13) 1.0124(4) 0.45684(14)
O5B O 0.04103(11) -0.3115(3) 0.57130(11)
H1B H 0.0524 -0.4554 0.5596
H2B H 0.0835 -0.2510 0.6033
O6B O 0.55751(12) -0.7098(4) 0.46236(12)
H3B H 0.5722 -0.5819 0.4897
H4B H 0.6005 -0.7773 0.4559
C1B C 0.38602(17) 0.4422(5) 0.83479(16)
H5B H 0.3735 0.3033 0.8590
C2B C 0.34200(16) 0.4805(5) 0.75827(16)
C3B C 0.36293(18) 0.6855(5) 0.72171(17)
H6B H 0.3354 0.7205 0.6706
C4B C 0.42507(18) 0.8343(6) 0.76282(18)
H7B H 0.4410 0.9694 0.7391
C5B C 0.46396(18) 0.7835(6) 0.83932(18)
H8B H 0.5051 0.8885 0.8663
C6B C 0.27731(17) 0.3071(5) 0.72159(16)
H9B H 0.2774 0.1591 0.7470
C7B C 0.21853(17) 0.3368(5) 0.65620(16)
H10B H 0.2162 0.4835 0.6295
C8B C 0.15654(17) 0.1464(5) 0.62386(16)
C9B C -0.13648(17) 0.2487(5) 0.55667(16)
H11B H -0.1513 0.3035 0.5058
C10B C -0.18498(17) 0.3203(6) 0.60388(17)
C11B C -0.16400(19) 0.2304(6) 0.67813(18)
H12B H -0.1958 0.2683 0.7111
C12B C -0.0955(2) 0.0837(7) 0.70328(19)
H13B H -0.0800 0.0233 0.7535
C13B C -0.05052(19) 0.0282(6) 0.65288(18)
H14B H -0.0040 -0.0687 0.6704
C14B C -0.25608(17) 0.4831(6) 0.57340(17)
H15B H -0.3023 0.4574 0.5905
C15B C -0.25896(17) 0.6623(5) 0.52378(18)
H16B H -0.2124 0.6887 0.5072
C16B C -0.33053(18) 0.8257(5) 0.49214(17)
loop_
_geom_bond_atom_site_label_1
_geom_bond_atom_site_label_2
_geom_bond_site_symmetry_1
_geom_bond_site_symmetry_2
Co1 N2 1_555 1_555
Co2 O3 1_555 1_555
N1 C1 1_555 1_555
N2 C9 1_555 1_555
O1 Co1 1_555 1_555
O2 C8 1_555 1_555
O3 C16 1_555 1_555
O4 C16 1_555 1_555
O5 Co1 1_555 1_555
H1 O5 1_555 1_555
H2 O5 1_555 1_555
O6 Co2 1_555 1_555
H3 O6 1_555 1_555
H4 O6 1_555 1_555
C1 H5 1_555 1_555
C2 C1 1_555 1_555
C3 C2 1_555 1_555
H6 C3 1_555 1_555
C4 C3 1_555 1_555
H7 C4 1_555 1_555
C5 N1 1_555 1_555
H8 C5 1_555 1_555
C6 C2 1_555 1_555
H9 C6 1_555 1_555
C7 C6 1_555 1_555
H10 C7 1_555 1_555
C8 O1 1_555 1_555
C9 H11 1_555 1_555
C10 C9 1_555 1_555
C11 C10 1_555 1_555
H12 C11 1_555 1_555
C12 C11 1_555 1_555
H13 C12 1_555 1_555
C13 N2 1_555 1_555
H14 C13 1_555 1_555
C14 C10 1_555 1_555
H15 C14 1_555 1_555
C15 C14 1_555 1_555
H16 C15 1_555 1_555
C16 C15 1_555 1_555
Co2C N1 1_555 1_555
Co2_2 O3B 1_555 1_555
Co2C_2 N1B 1_555 1_555
N1B C1B 1_555 1_555
N1C Co2 1_555 1_555
N1A Co2 1_555 1_555
N2B Co1 1_555 1_555
O1B Co1 1_555 1_555
O2B C8B 1_555 1_555
O3B C16B 1_555 1_555
O3B_2 Co2 1_555 1_555
O4B C16B 1_555 1_555
O5B Co1 1_555 1_555
H1B O5B 1_555 1_555
H2B O5B 1_555 1_555
O6B Co2 1_555 1_555
H3B O6B 1_555 1_555
H4B O6B 1_555 1_555
C1B H5B 1_555 1_555
C2B C1B 1_555 1_555
C3B C2B 1_555 1_555
H6B C3B 1_555 1_555
C4B C3B 1_555 1_555
H7B C4B 1_555 1_555
C5B N1B 1_555 1_555
H8B C5B 1_555 1_555
C6B C2B 1_555 1_555
H9B C6B 1_555 1_555
C7B C6B 1_555 1_555
H10B C7B 1_555 1_555
C8B O1B 1_555 1_555
C9B N2B 1_555 1_555
H11B C9B 1_555 1_555
C10B C9B 1_555 1_555
C11B C10B 1_555 1_555
H12B C11B 1_555 1_555
C12B C11B 1_555 1_555
H13B C12B 1_555 1_555
C13B N2B 1_555 1_555
H14B C13B 1_555 1_555
C14B C10B 1_555 1_555
H15B C14B 1_555 1_555
C15B C14B 1_555 1_555
H16B C15B 1_555 1_555
C16B C15B 1_555 1_555
C4 C5 1_555 1_555
C7 C8 1_555 1_555
C12 C13 1_555 1_555
C4B C5B 1_555 1_555
C7B C8B 1_555 1_555
C12B C13B 1_555 1_555

#END
