
#######################################################################
#
#                 Cambridge Crystallographic Data Centre
#                                CCDC 
#
#######################################################################
#
# If this CIF has been generated from an entry in the Cambridge 
# Structural Database, then it will include bibliographic, chemical, 
# crystal, experimental, refinement or atomic coordinate data resulting 
# from the CCDC's data processing and validation procedures.
#
#######################################################################

data_AQANOW
_symmetry_cell_setting           monoclinic
_symmetry_space_group_name_H-M   'P n'
_symmetry_Int_Tables_number      7
_space_group_name_Hall           'P -2yac'
loop_
_symmetry_equiv_pos_site_id
_symmetry_equiv_pos_as_xyz
1 x,y,z
2 1/2+x,-y,1/2+z
_cell_length_a                   11.5679(5)
_cell_length_b                   8.4250(3)
_cell_length_c                   11.6371(4)
_cell_angle_alpha                90
_cell_angle_beta                 113.390(5)
_cell_angle_gamma                90
_cell_volume                     1040.95
loop_
_atom_site_label
_atom_site_type_symbol
_atom_site_fract_x
_atom_site_fract_y
_atom_site_fract_z
Cd1 Cd 0.17403(3) 0.40135(3) 0.57465(3)
O1 O 0.8178(2) 0.7013(4) 0.7476(2)
H1 H 0.8021 0.6802 0.8087
O2 O 0.3936(2) 0.4491(3) 0.6442(2)
O3 O 0.2992(3) 0.4537(4) 0.4408(3)
C1 C 0.7184(4) 0.6611(5) 0.6419(4)
N1 N 0.1262(4) -0.0580(4) 0.3814(3)
C2 C 0.0854(4) -0.0852(4) -0.0733(4)
C3 C 0.7277(4) 0.6846(5) 0.5275(4)
H2 H 0.8007 0.7283 0.5256
C4 C 0.5183(3) 0.5795(4) 0.4187(3)
H3 H 0.4507 0.5552 0.3443
C5 C 0.6097(4) 0.5936(5) 0.6433(4)
H4 H 0.6036 0.5756 0.7195
C6 C 0.1409(5) -0.1386(6) 0.1815(5)
N2 N 0.1247(3) 0.1668(4) 0.4775(3)
C7 C 0.6293(3) 0.6435(4) 0.4165(3)
C8 C 0.0226(4) -0.0605(5) 0.4094(4)
H5 H -0.0369 -0.1413 0.3910
C9 C 0.5103(3) 0.5526(4) 0.5337(3)
C10 C 0.0438(4) -0.0409(5) 0.1112(4)
H6 H -0.0046 0.0082 0.1485
C11 C 0.1840(4) 0.0815(4) 0.4227(4)
H7 H 0.2568 0.1141 0.4137
C12 C 0.0229(4) 0.0772(5) 0.4693(4)
H8 H -0.0368 0.1065 0.5002
C13 C 0.0461(4) -0.0546(4) -0.2117(4)
H9 H -0.0426 -0.0803 -0.2548
H10 H 0.0560 0.0576 -0.2242
C14 C 0.1646(5) -0.1825(5) 0.3141(4)
H11 H 0.1190 -0.2794 0.3136
H12 H 0.2537 -0.2040 0.3592
C15 C 0.1858(5) -0.1812(7) -0.0014(5)
H13 H 0.2349 -0.2294 -0.0383
C16 C 0.0165(4) -0.0139(5) -0.0141(4)
H14 H -0.0496 0.0536 -0.0594
C17 C 0.3940(4) 0.4790(5) 0.5391(4)
O4 O 0.5480(3) 0.6466(4) 0.1940(3)
O5 O 0.7524(3) 0.6878(3) 0.2976(2)
C18 C 0.6436(4) 0.6620(4) 0.2945(4)
C19 C 0.2137(4) -0.2062(6) 0.1246(4)
H15 H 0.2822 -0.2693 0.1714
O6 O -0.0201(3) 0.4910(4) 0.4028(3)
N3 N 0.1173(3) -0.1451(3) -0.2678(3)
N4 N 0.1750(3) -0.3453(4) -0.3548(3)
C20 C 0.2613(4) -0.2251(5) -0.3323(4)
H16 H 0.3331 -0.2287 -0.3496
C21 C 0.0921(4) -0.2935(4) -0.3127(3)
H17 H 0.0238 -0.3528 -0.3138
C22 C 0.2251(5) -0.1000(5) -0.2808(4)
H18 H 0.2657 -0.0026 -0.2586
H19 H -0.036(4) 0.484(5) 0.3254(13)
H20 H -0.074(3) 0.535(5) 0.423(3)
Cd1A Cd 0.67403(3) 0.59865(3) 0.07465(3)
Cd1_2 Cd 0.17403(3) -0.59865(3) -0.42535(3)
O4A O 0.0480(3) 0.3534(4) 0.6940(3)
O5A O 0.2524(3) 0.3122(3) 0.7976(2)
N4_2 N 0.1750(3) 0.6547(4) 0.6452(3)
loop_
_geom_bond_atom_site_label_1
_geom_bond_atom_site_label_2
_geom_bond_site_symmetry_1
_geom_bond_site_symmetry_2
Cd1 O2 1_555 1_555
O1 H1 1_555 1_555
O2 C17 1_555 1_555
O3 Cd1 1_555 1_555
C1 O1 1_555 1_555
N1 C8 1_555 1_555
C2 C13 1_555 1_555
C3 C1 1_555 1_555
H2 C3 1_555 1_555
C4 H3 1_555 1_555
C5 C1 1_555 1_555
H4 C5 1_555 1_555
C6 C10 1_555 1_555
N2 Cd1 1_555 1_555
C7 C3 1_555 1_555
C8 H5 1_555 1_555
C9 C4 1_555 1_555
C10 H6 1_555 1_555
C11 N1 1_555 1_555
H7 C11 1_555 1_555
C12 N2 1_555 1_555
H8 C12 1_555 1_555
C13 H9 1_555 1_555
H10 C13 1_555 1_555
C14 N1 1_555 1_555
H11 C14 1_555 1_555
H12 C14 1_555 1_555
C15 C2 1_555 1_555
H13 C15 1_555 1_555
C16 C2 1_555 1_555
H14 C16 1_555 1_555
C17 O3 1_555 1_555
O4 C18 1_555 1_555
O5 C18 1_555 1_555
C18 C7 1_555 1_555
C19 C6 1_555 1_555
H15 C19 1_555 1_555
O6 Cd1 1_555 1_555
N3 C13 1_555 1_555
N4 C20 1_555 1_555
C20 H16 1_555 1_555
C21 N3 1_555 1_555
H17 C21 1_555 1_555
C22 N3 1_555 1_555
H18 C22 1_555 1_555
H19 O6 1_555 1_555
H20 O6 1_555 1_555
Cd1A O4 1_555 1_555
Cd1_2 N4 1_555 1_555
O4A Cd1 1_555 1_555
O5A Cd1 1_555 1_555
N4_2 Cd1 1_555 1_555
C4 C7 1_555 1_555
C5 C9 1_555 1_555
C6 C14 1_555 1_555
N2 C11 1_555 1_555
C8 C12 1_555 1_555
C9 C17 1_555 1_555
C10 C16 1_555 1_555
C15 C19 1_555 1_555
O5 Cd1A 1_555 1_555
N4 C21 1_555 1_555
C20 C22 1_555 1_555

#END
