
#######################################################################
#
#                 Cambridge Crystallographic Data Centre
#                                CCDC 
#
#######################################################################
#
# If this CIF has been generated from an entry in the Cambridge 
# Structural Database, then it will include bibliographic, chemical, 
# crystal, experimental, refinement or atomic coordinate data resulting 
# from the CCDC's data processing and validation procedures.
#
#######################################################################

data_AQANOW01
_symmetry_cell_setting           monoclinic
_symmetry_space_group_name_H-M   'P n'
_symmetry_Int_Tables_number      7
_space_group_name_Hall           'P -2yac'
loop_
_symmetry_equiv_pos_site_id
_symmetry_equiv_pos_as_xyz
1 x,y,z
2 1/2+x,-y,1/2+z
_cell_length_a                   11.5800(9)
_cell_length_b                   8.4221(6)
_cell_length_c                   11.6393(9)
_cell_angle_alpha                90
_cell_angle_beta                 113.3540(10)
_cell_angle_gamma                90
_cell_volume                     1042.16
loop_
_atom_site_label
_atom_site_type_symbol
_atom_site_fract_x
_atom_site_fract_y
_atom_site_fract_z
Cd1 Cd 0.74827(2) 0.59903(3) 0.92168(2)
C1 C 0.8351(4) 0.2245(5) 1.0146(4)
H1 H 0.9061 0.2274 0.9960
C2 C 0.8004(5) 0.0995(5) 1.0672(5)
H2 H 0.8416 0.0026 1.0906
C3 C 0.6645(4) 0.2929(4) 1.0332(4)
H3 H 0.5949 0.3505 1.0302
C4 C 0.6212(4) 0.0550(4) 1.1358(4)
H4 H 0.6308 -0.0572 1.1230
H5 H 0.5327 0.0809 1.0932
C5 C 0.6608(4) 0.0849(4) 1.2738(4)
C6 C 0.7597(5) 0.1817(6) 1.3458(5)
H6 H 0.8080 0.2308 1.3085
C7 C 0.5911(4) 0.0142(5) 1.3327(4)
H7 H 0.5248 -0.0524 1.2868
C8 C 0.6178(5) 0.0400(5) 1.4583(4)
H8 H 0.5701 -0.0102 1.4957
C9 C 0.7152(5) 0.1403(5) 1.5283(4)
C10 C 0.7887(5) 0.2071(5) 1.4711(4)
H9 H 0.8577 0.2694 1.5177
C11 C 0.7392(5) 0.1826(5) 1.6620(4)
H10 H 0.8283 0.2030 1.7074
H11 H 0.6943 0.2797 1.6624
C12 C 0.5960(4) 0.0628(5) 1.7552(4)
H12 H 0.5370 0.1439 1.7365
C13 C 0.5961(4) -0.0752(4) 1.8158(4)
H13 H 0.5365 -0.1041 1.8469
C14 C 0.7585(4) -0.0810(4) 1.7695(4)
H14 H 0.8317 -0.1135 1.7614
C15 C 0.4697(4) 0.4802(4) 1.3868(3)
C16 C 0.5843(4) 0.5526(4) 1.3806(3)
C17 C 0.5929(4) 0.5792(4) 1.2659(3)
H15 H 0.5256 0.5546 1.1916
C18 C 0.7039(4) 0.6434(4) 1.2634(4)
C19 C 0.7169(4) 0.6621(4) 1.1412(4)
C20 C 0.8022(4) 0.6847(5) 1.3746(4)
H16 H 0.8751 0.7290 1.3730
C21 C 0.7921(4) 0.6600(4) 1.4888(3)
C22 C 0.6843(4) 0.5937(4) 1.4904(4)
H17 H 0.6783 0.5761 1.5667
N1 N 0.7499(3) 0.3462(4) 0.9927(3)
N2 N 0.6920(3) 0.1456(3) 1.0788(3)
N3 N 0.7004(4) 0.0586(4) 1.7272(3)
N4 N 0.6982(3) -0.1657(4) 1.8238(3)
O1 O 0.8266(3) 0.6877(3) 1.1446(2)
O2 O 0.6211(3) 0.6472(4) 1.0407(3)
O3 O 0.4686(3) 0.4481(3) 1.4917(2)
O4 O 0.3735(3) 0.4533(4) 1.2877(3)
O5 O 0.8918(3) 0.7014(4) 1.5949(3)
H18 H 0.896(5) 0.670(6) 1.662(2)
O6 O 0.5537(3) 0.5093(4) 0.7498(3)
H19 H 0.486(3) 0.483(7) 0.756(4)
H20 H 0.537(4) 0.511(7) 0.6721(14)
Cd1_2 Cd 0.74827(2) -0.40097(3) 1.92168(2)
Cd1A Cd 0.24827(2) 0.40097(3) 1.42168(2)
N4_2 N 0.6982(3) 0.8343(4) 0.8238(3)
O3A O 0.9686(3) 0.5519(3) 0.9917(2)
O4A O 0.8735(3) 0.5467(4) 0.7877(3)
loop_
_geom_bond_atom_site_label_1
_geom_bond_atom_site_label_2
_geom_bond_site_symmetry_1
_geom_bond_site_symmetry_2
Cd1 N1 1_555 1_555
C1 H1 1_555 1_555
C2 C1 1_555 1_555
H2 C2 1_555 1_555
C3 H3 1_555 1_555
C4 H4 1_555 1_555
H5 C4 1_555 1_555
C5 C4 1_555 1_555
C6 C5 1_555 1_555
H6 C6 1_555 1_555
C7 C5 1_555 1_555
H7 C7 1_555 1_555
C8 C7 1_555 1_555
H8 C8 1_555 1_555
C9 C8 1_555 1_555
C10 C6 1_555 1_555
H9 C10 1_555 1_555
C11 C9 1_555 1_555
H10 C11 1_555 1_555
H11 C11 1_555 1_555
C12 H12 1_555 1_555
C13 C12 1_555 1_555
H13 C13 1_555 1_555
C14 H14 1_555 1_555
C15 C16 1_555 1_555
C16 C17 1_555 1_555
C17 H15 1_555 1_555
C18 C17 1_555 1_555
C19 C18 1_555 1_555
C20 C18 1_555 1_555
H16 C20 1_555 1_555
C21 C20 1_555 1_555
C22 C16 1_555 1_555
H17 C22 1_555 1_555
N1 C1 1_555 1_555
N2 C2 1_555 1_555
N3 C11 1_555 1_555
N4 C13 1_555 1_555
O1 Cd1 1_555 1_555
O2 Cd1 1_555 1_555
O3 C15 1_555 1_555
O4 C15 1_555 1_555
O5 C21 1_555 1_555
H18 O5 1_555 1_555
O6 Cd1 1_555 1_555
H19 O6 1_555 1_555
H20 O6 1_555 1_555
Cd1_2 N4 1_555 1_555
Cd1A O3 1_555 1_555
N4_2 Cd1 1_555 1_555
O3A Cd1 1_555 1_555
O4A Cd1 1_555 1_555
C3 N1 1_555 1_555
C3 N2 1_555 1_555
C4 N2 1_555 1_555
C9 C10 1_555 1_555
C12 N3 1_555 1_555
C14 N3 1_555 1_555
C14 N4 1_555 1_555
C19 O1 1_555 1_555
C19 O2 1_555 1_555
C21 C22 1_555 1_555
O4 Cd1A 1_555 1_555

#END
