
#######################################################################
#
#                 Cambridge Crystallographic Data Centre
#                                CCDC 
#
#######################################################################
#
# If this CIF has been generated from an entry in the Cambridge 
# Structural Database, then it will include bibliographic, chemical, 
# crystal, experimental, refinement or atomic coordinate data resulting 
# from the CCDC's data processing and validation procedures.
#
#######################################################################

data_AQAPOY
_symmetry_cell_setting           monoclinic
_symmetry_space_group_name_H-M   'P 21/c'
_symmetry_Int_Tables_number      14
_space_group_name_Hall           '-P 2ybc'
loop_
_symmetry_equiv_pos_site_id
_symmetry_equiv_pos_as_xyz
1 x,y,z
2 -x,1/2+y,1/2-z
3 -x,-y,-z
4 x,1/2-y,1/2+z
_cell_length_a                   7.696(5)
_cell_length_b                   17.961(12)
_cell_length_c                   12.778(9)
_cell_angle_alpha                90
_cell_angle_beta                 102.001(2)
_cell_angle_gamma                90
_cell_volume                     1727.67
loop_
_atom_site_label
_atom_site_type_symbol
_atom_site_fract_x
_atom_site_fract_y
_atom_site_fract_z
Fe1 Fe 0.63115(5) 0.63585(2) 0.43799(3)
C1 C 0.2766(4) 0.47607(16) 0.0233(2)
C2 C 0.3209(4) 0.40139(17) 0.0252(2)
H1 H 0.2742 0.3717 -0.0335
C3 C 0.4336(4) 0.36993(16) 0.1130(2)
C4 C 0.4995(4) 0.41453(16) 0.2014(2)
H2 H 0.5779 0.3947 0.2601
C5 C 0.4485(4) 0.48825(16) 0.2021(2)
C6 C 0.3387(4) 0.52006(16) 0.1130(2)
H3 H 0.3072 0.5700 0.1134
C7 C 0.5109(4) 0.53772(17) 0.2971(2)
C8 C 0.4784(4) 0.28778(17) 0.1131(2)
C9 C 0.1111(4) 0.57442(17) -0.0959(2)
C10 C 0.0062(4) 0.58622(17) -0.2081(2)
C11 C -0.0045(5) 0.5360(2) -0.2907(2)
H4 H 0.0589 0.4916 -0.2800
C12 C -0.1092(5) 0.5519(2) -0.3890(2)
H5 H -0.1152 0.5169 -0.4433
C13 C -0.1891(5) 0.66275(19) -0.3314(2)
H6 H -0.2521 0.7071 -0.3448
C14 C -0.0881(5) 0.65117(18) -0.2309(2)
H7 H -0.0835 0.6873 -0.1782
C15 C 0.8212(4) 0.65328(18) 0.2480(2)
H8 H 0.7139 0.6503 0.1988
C16 C 0.9841(5) 0.6626(2) 0.2231(3)
H9 H 1.0089 0.6667 0.1551
C17 C 1.0112(5) 0.6567(2) 0.3966(3)
H10 H 1.0629 0.6566 0.4692
N1 N -0.2016(3) 0.61363(14) -0.41083(18)
N2 N 0.1681(3) 0.50422(15) -0.07194(18)
H11 H 0.1338 0.4719 -0.1216
N3 N 0.8412(3) 0.64907(14) 0.3578(2)
N4 N 1.1017(4) 0.6646(2) 0.3178(2)
H12 H 1.2148 0.6700 0.3262
O1 O 0.6102(3) 0.51247(12) 0.38078(15)
O2 O 0.4654(3) 0.60470(12) 0.29067(16)
O3 O 0.5987(3) 0.26363(13) 0.18476(18)
O4 O 0.3879(3) 0.24832(12) 0.03986(15)
O5 O 0.1376(3) 0.62626(13) -0.03242(18)
O6 O 0.4100(3) 0.61890(12) 0.51054(16)
H13 H 0.3367 0.6014 0.4572
H14 H 0.4240 0.5809 0.5510
Fe1_2 Fe -0.36885(5) 0.63585(2) -0.56201(3)
Fe1A Fe 0.36885(5) 0.13585(2) 0.06201(3)
N1_2 N 0.7984(3) 0.61363(14) 0.58917(18)
O4A O 0.6121(3) 0.74832(12) 0.46014(15)
O7 O 0.7198(4) 0.26138(16) 0.4006(2)
H15 H 0.6815 0.2625 0.3333
H16 H 0.6788 0.2990 0.4279
loop_
_geom_bond_atom_site_label_1
_geom_bond_atom_site_label_2
_geom_bond_site_symmetry_1
_geom_bond_site_symmetry_2
Fe1 N3 1_555 1_555
C1 C2 1_555 1_555
C2 H1 1_555 1_555
C3 C2 1_555 1_555
C4 C3 1_555 1_555
H2 C4 1_555 1_555
C5 C4 1_555 1_555
C6 C1 1_555 1_555
H3 C6 1_555 1_555
C7 C5 1_555 1_555
C8 C3 1_555 1_555
C9 C10 1_555 1_555
C10 C11 1_555 1_555
C11 H4 1_555 1_555
C12 C11 1_555 1_555
H5 C12 1_555 1_555
C13 H6 1_555 1_555
C14 C10 1_555 1_555
H7 C14 1_555 1_555
C15 H8 1_555 1_555
C16 C15 1_555 1_555
H9 C16 1_555 1_555
C17 H10 1_555 1_555
N1 C12 1_555 1_555
N2 C1 1_555 1_555
H11 N2 1_555 1_555
N3 C15 1_555 1_555
N4 C16 1_555 1_555
H12 N4 1_555 1_555
O1 Fe1 1_555 1_555
O2 Fe1 1_555 1_555
O3 C8 1_555 1_555
O4 C8 1_555 1_555
O5 C9 1_555 1_555
O6 Fe1 1_555 1_555
H13 O6 1_555 1_555
H14 O6 1_555 1_555
O7 H15 1_555 1_555
H16 O7 1_555 1_555
Fe1_2 N1 1_555 1_555
Fe1A O4 1_555 1_555
N1_2 Fe1 1_555 1_555
O4A Fe1 1_555 1_555
C5 C6 1_555 1_555
C7 O1 1_555 1_555
C7 O2 1_555 1_555
C9 N2 1_555 1_555
C13 C14 1_555 1_555
C13 N1 1_555 1_555
C17 N3 1_555 1_555
C17 N4 1_555 1_555

#END
