
#######################################################################
#
#                 Cambridge Crystallographic Data Centre
#                                CCDC 
#
#######################################################################
#
# If this CIF has been generated from an entry in the Cambridge 
# Structural Database, then it will include bibliographic, chemical, 
# crystal, experimental, refinement or atomic coordinate data resulting 
# from the CCDC's data processing and validation procedures.
#
#######################################################################

data_AQARUG
_symmetry_cell_setting           monoclinic
_symmetry_space_group_name_H-M   'P 21/n'
_symmetry_Int_Tables_number      14
_space_group_name_Hall           '-P 2yn'
loop_
_symmetry_equiv_pos_site_id
_symmetry_equiv_pos_as_xyz
1 x,y,z
2 1/2-x,1/2+y,1/2-z
3 -x,-y,-z
4 1/2+x,1/2-y,1/2+z
_cell_length_a                   8.1529(4)
_cell_length_b                   9.6506(4)
_cell_length_c                   25.7059(10)
_cell_angle_alpha                90
_cell_angle_beta                 97.864(4)
_cell_angle_gamma                90
_cell_volume                     2003.53
loop_
_atom_site_label
_atom_site_type_symbol
_atom_site_fract_x
_atom_site_fract_y
_atom_site_fract_z
Zn1 Zn 0.63247(3) 0.24674(2) 0.690186(9)
O1 O 0.4256(2) -0.17674(15) 0.48417(6)
H1 H 0.4221 -0.2458 0.4655
O2 O 0.5213(2) 0.09696(13) 0.64693(6)
O3 O 0.6064(2) -0.05143(15) 0.71118(6)
O4 O 0.5664(2) -0.56417(14) 0.66708(6)
O5 O 0.5844(3) -0.61636(17) 0.58500(7)
N1 N 1.0537(2) 0.16701(19) 0.62513(7)
N2 N 0.8652(2) 0.21768(17) 0.67554(7)
C1 C 0.5502(3) -0.0261(2) 0.66522(9)
N3 N 0.9685(3) 0.3080(2) 0.33374(7)
C2 C 0.4794(3) -0.1104(2) 0.57298(8)
H2 H 0.4638 -0.0186 0.5624
C3 C 0.5191(3) -0.1413(2) 0.62569(8)
N4 N 1.0513(2) 0.24435(18) 0.25978(6)
C4 C 0.5275(3) -0.3839(2) 0.60440(9)
C5 C 1.1307(3) 0.1159(3) 0.58068(9)
H3 H 1.1042 0.0183 0.5758
H4 H 1.2500 0.1233 0.5895
C6 C 0.5406(3) -0.27928(19) 0.64172(8)
H5 H 0.5634 -0.3008 0.6772
C7 C 1.0796(3) 0.1899(2) 0.52937(9)
C8 C 0.4891(3) -0.3502(2) 0.55144(9)
H6 H 0.4812 -0.4202 0.5263
C9 C 0.9952(3) 0.3171(2) 0.43150(9)
C10 C 0.9228(3) 0.3575(2) 0.47415(9)
H7 H 0.8438 0.4276 0.4704
C11 C 1.1102(3) 0.2117(3) 0.43801(10)
H8 H 1.1611 0.1828 0.4096
C12 C 0.4626(3) -0.2150(2) 0.53576(9)
C13 C 1.0149(3) 0.2655(2) 0.69875(9)
H9 H 1.0335 0.3115 0.7308
C14 C 0.9654(3) 0.2958(3) 0.52275(9)
H10 H 0.9163 0.3263 0.5513
C15 C 0.9497(4) 0.3923(3) 0.37994(9)
H11 H 0.8356 0.4230 0.3775
H12 H 1.0188 0.4741 0.3797
C16 C 0.5584(3) -0.5325(2) 0.61914(9)
C17 C 1.1508(3) 0.1483(3) 0.48651(9)
H13 H 1.2275 0.0764 0.4901
C18 C 0.9494(3) 0.1426(2) 0.27525(9)
H14 H 0.9211 0.0603 0.2574
C19 C 1.0593(3) 0.3417(2) 0.29614(9)
H15 H 1.1203 0.4230 0.2956
C20 C 0.8947(3) 0.1586(2) 0.63135(9)
H16 H 0.8140 0.1163 0.6075
C21 C 0.8973(3) 0.1828(3) 0.32090(10)
H17 H 0.8265 0.1341 0.3398
C22 C 1.1321(3) 0.2356(3) 0.66806(9)
H18 H 1.2441 0.2573 0.6748
Zn1_2 Zn 0.63247(3) -0.75326(2) 0.690186(9)
Zn1C Zn 1.13247(3) 0.25326(2) 0.190186(9)
O4_2 O 0.5664(2) 0.43583(14) 0.66708(6)
N4C N 0.5513(2) 0.25565(18) 0.75978(6)
loop_
_geom_bond_atom_site_label_1
_geom_bond_atom_site_label_2
_geom_bond_site_symmetry_1
_geom_bond_site_symmetry_2
Zn1 O2 1_555 1_555
O1 H1 1_555 1_555
O2 C1 1_555 1_555
O3 C1 1_555 1_555
O4 C16 1_555 1_555
O5 C16 1_555 1_555
N1 C5 1_555 1_555
N2 Zn1 1_555 1_555
C1 C3 1_555 1_555
N3 C15 1_555 1_555
C2 H2 1_555 1_555
C3 C2 1_555 1_555
N4 C18 1_555 1_555
C4 C6 1_555 1_555
C5 H3 1_555 1_555
H4 C5 1_555 1_555
C6 C3 1_555 1_555
H5 C6 1_555 1_555
C7 C5 1_555 1_555
C8 C4 1_555 1_555
H6 C8 1_555 1_555
C9 C10 1_555 1_555
C10 H7 1_555 1_555
C11 C9 1_555 1_555
H8 C11 1_555 1_555
C12 O1 1_555 1_555
C13 N2 1_555 1_555
H9 C13 1_555 1_555
C14 C7 1_555 1_555
H10 C14 1_555 1_555
C15 C9 1_555 1_555
H11 C15 1_555 1_555
H12 C15 1_555 1_555
C16 C4 1_555 1_555
C17 C7 1_555 1_555
H13 C17 1_555 1_555
C18 H14 1_555 1_555
C19 N3 1_555 1_555
H15 C19 1_555 1_555
C20 N1 1_555 1_555
H16 C20 1_555 1_555
C21 N3 1_555 1_555
H17 C21 1_555 1_555
C22 N1 1_555 1_555
H18 C22 1_555 1_555
Zn1_2 O4 1_555 1_555
Zn1C N4 1_555 1_555
O4_2 Zn1 1_555 1_555
N4C Zn1 1_555 1_555
N2 C20 1_555 1_555
C2 C12 1_555 1_555
N4 C19 1_555 1_555
C8 C12 1_555 1_555
C10 C14 1_555 1_555
C11 C17 1_555 1_555
C13 C22 1_555 1_555
C18 C21 1_555 1_555

#END
