
#######################################################################
#
#                 Cambridge Crystallographic Data Centre
#                                CCDC 
#
#######################################################################
#
# If this CIF has been generated from an entry in the Cambridge 
# Structural Database, then it will include bibliographic, chemical, 
# crystal, experimental, refinement or atomic coordinate data resulting 
# from the CCDC's data processing and validation procedures.
#
#######################################################################

data_AQASUG
_symmetry_cell_setting           monoclinic
_symmetry_space_group_name_H-M   'C 2/c'
_symmetry_Int_Tables_number      15
_space_group_name_Hall           '-C 2yn'
loop_
_symmetry_equiv_pos_site_id
_symmetry_equiv_pos_as_xyz
1 x,y,z
2 x,-y,1/2+z
3 1/2+x,1/2+y,z
4 1/2+x,1/2-y,1/2+z
5 -x,-y,-z
6 -x,y,1/2-z
7 1/2-x,1/2-y,-z
8 1/2-x,1/2+y,1/2-z
_cell_length_a                   32.475(3)
_cell_length_b                   13.496(2)
_cell_length_c                   8.7380(5)
_cell_angle_alpha                90
_cell_angle_beta                 96.335(6)
_cell_angle_gamma                90
_cell_volume                     3806.33
loop_
_atom_site_label
_atom_site_type_symbol
_atom_site_fract_x
_atom_site_fract_y
_atom_site_fract_z
Cu1 Cu 0.29341(3) 0.24120(7) 0.1338(1)
Cl1 Cl 0.23347(6) 0.3135(2) 0.1733(2)
S1 S 0.32004(7) 0.3856(2) 0.0380(3)
C1 C 0.3607(3) 0.3242(7) -0.047(1)
C2 C 0.3745(3) 0.2275(6) 0.028(1)
N1 N 0.3479(2) 0.1808(5) 0.1118(7)
C3 C 0.3583(2) 0.0916(6) 0.1737(9)
C4 C 0.3290(3) 0.0443(7) 0.275(1)
S2 S 0.27644(6) 0.0886(2) 0.2304(2)
C5 C 0.3458(5) 0.443(1) 0.207(1)
C6 C 0.2596(3) 0.1087(9) 0.418(1)
C7 C 0.4122(3) 0.1859(7) 0.003(1)
C8 C 0.4233(3) 0.0920(7) 0.063(1)
C9 C 0.3953(3) 0.0446(6) 0.149(1)
C10 C 0.4630(2) 0.0445(7) 0.031(1)
C11 C 0.4657(3) -0.0561(8) 0.019(1)
C12 C 0.4973(3) 0.1006(8) 0.013(1)
H1 H 0.3839 0.3673 -0.0414
H2 H 0.3513 0.3115 -0.1523
H3 H 0.3381 0.0592 0.3792
H4 H 0.3294 -0.0254 0.2600
H5 H 0.3261 0.4776 0.2595
H6 H 0.3590 0.3936 0.2726
H7 H 0.3660 0.4881 0.1779
H8 H 0.2319 0.1324 0.4061
H9 H 0.2610 0.0480 0.4732
H10 H 0.2771 0.1562 0.4723
H11 H 0.4307 0.2213 -0.0539
H12 H 0.4014 -0.0195 0.1907
H13 H 0.4423 -0.0961 0.0324
H14 H 0.4959 0.1707 0.0214
Cu1F Cu 0.20659(3) 0.25880(7) -0.1338(1)
Cl1F Cl 0.26653(6) 0.1865(2) -0.1733(2)
C12D C 0.5027(3) -0.1006(8) -0.013(1)
C10D C 0.5370(2) -0.0445(7) -0.031(1)
C8D C 0.5767(3) -0.0920(7) -0.063(1)
C7D C 0.5878(3) -0.1859(7) -0.003(1)
C2D C 0.6255(3) -0.2275(6) -0.028(1)
C1D C 0.6393(3) -0.3242(7) 0.047(1)
S1D S 0.67996(7) -0.3856(2) -0.0380(3)
Cu1D Cu 0.70659(3) -0.24120(7) -0.1338(1)
N1D N 0.6521(2) -0.1808(5) -0.1118(7)
C3D C 0.6417(2) -0.0916(6) -0.1737(9)
C4D C 0.6710(3) -0.0443(7) -0.275(1)
S2D S 0.72356(6) -0.0886(2) -0.2304(2)
C6D C 0.7404(3) -0.1087(9) -0.418(1)
H8D H 0.7681 -0.1324 -0.4061
H9D H 0.7390 -0.0480 -0.4732
H10D H 0.7229 -0.1562 -0.4723
H3D H 0.6619 -0.0592 -0.3792
H4D H 0.6706 0.0254 -0.2600
C9D C 0.6047(3) -0.0446(6) -0.149(1)
H12D H 0.5986 0.0195 -0.1907
C5D C 0.6542(5) -0.443(1) -0.207(1)
H5D H 0.6739 -0.4776 -0.2595
H6D H 0.6410 -0.3936 -0.2726
H7D H 0.6340 -0.4881 -0.1779
H1D H 0.6161 -0.3673 0.0414
H2D H 0.6487 -0.3115 0.1523
H11D H 0.5693 -0.2213 0.0539
C11D C 0.5343(3) 0.0561(8) -0.019(1)
H13D H 0.5577 0.0961 -0.0324
H14D H 0.5041 -0.1707 -0.0214
S1F S 0.17996(7) 0.1144(2) -0.0380(3)
N1F N 0.1521(2) 0.3192(5) -0.1118(7)
S2F S 0.22356(6) 0.4114(2) -0.2304(2)
B1 B 0.3729(5) 0.260(1) 0.537(2)
F1 F 0.3818(6) 0.3389(9) 0.606(1)
F2 F 0.3325(3) 0.2788(9) 0.452(1)
F3 F 0.3682(4) 0.1831(7) 0.628(1)
F4 F 0.3965(3) 0.2436(7) 0.422(1)
loop_
_geom_bond_atom_site_label_1
_geom_bond_atom_site_label_2
_geom_bond_site_symmetry_1
_geom_bond_site_symmetry_2
Cu1 Cl1 1_555 1_555
Cl1 Cu1F 1_555 1_555
S1 Cu1 1_555 1_555
C1 S1 1_555 1_555
C2 C1 1_555 1_555
N1 Cu1 1_555 1_555
C3 N1 1_555 1_555
C4 C3 1_555 1_555
S2 Cu1 1_555 1_555
C5 S1 1_555 1_555
C6 S2 1_555 1_555
C7 C2 1_555 1_555
C8 C7 1_555 1_555
C9 C3 1_555 1_555
C10 C8 1_555 1_555
C11 C10 1_555 1_555
C12 C10 1_555 1_555
B1 F1 1_555 1_555
F2 B1 1_555 1_555
F3 B1 1_555 1_555
F4 B1 1_555 1_555
H1 C1 1_555 1_555
H2 C1 1_555 1_555
H3 C4 1_555 1_555
H4 C4 1_555 1_555
H5 C5 1_555 1_555
H6 C5 1_555 1_555
H7 C5 1_555 1_555
H8 C6 1_555 1_555
H9 C6 1_555 1_555
H10 C6 1_555 1_555
H11 C7 1_555 1_555
H12 C9 1_555 1_555
H13 C11 1_555 1_555
H14 C12 1_555 1_555
Cu1F Cl1F 1_555 1_555
Cl1F Cu1 1_555 1_555
C12D C11 1_555 1_555
C10D C12D 1_555 1_555
C8D C10D 1_555 1_555
C7D C8D 1_555 1_555
C2D C7D 1_555 1_555
C1D C2D 1_555 1_555
S1D C1D 1_555 1_555
Cu1D S1D 1_555 1_555
N1D C2D 1_555 1_555
C3D N1D 1_555 1_555
C4D C3D 1_555 1_555
S2D Cu1D 1_555 1_555
C6D S2D 1_555 1_555
H8D C6D 1_555 1_555
H9D C6D 1_555 1_555
H10D C6D 1_555 1_555
H3D C4D 1_555 1_555
H4D C4D 1_555 1_555
C9D C8D 1_555 1_555
H12D C9D 1_555 1_555
C5D S1D 1_555 1_555
H5D C5D 1_555 1_555
H6D C5D 1_555 1_555
H7D C5D 1_555 1_555
H1D C1D 1_555 1_555
H2D C1D 1_555 1_555
H11D C7D 1_555 1_555
C11D C12 1_555 1_555
H13D C11D 1_555 1_555
H14D C12D 1_555 1_555
S1F Cu1F 1_555 1_555
N1F Cu1F 1_555 1_555
S2F Cu1F 1_555 1_555
C2 N1 1_555 1_555
C4 S2 1_555 1_555
C8 C9 1_555 1_555
C10D C11D 1_555 1_555
Cu1D N1D 1_555 1_555
C3D C9D 1_555 1_555
C4D S2D 1_555 1_555

#END
