
#######################################################################
#
#                 Cambridge Crystallographic Data Centre
#                                CCDC 
#
#######################################################################
#
# If this CIF has been generated from an entry in the Cambridge 
# Structural Database, then it will include bibliographic, chemical, 
# crystal, experimental, refinement or atomic coordinate data resulting 
# from the CCDC's data processing and validation procedures.
#
#######################################################################

data_AQATAN
_symmetry_cell_setting           triclinic
_symmetry_space_group_name_H-M   'P -1'
_symmetry_Int_Tables_number      2
_space_group_name_Hall           '-P 1'
loop_
_symmetry_equiv_pos_site_id
_symmetry_equiv_pos_as_xyz
1 x,y,z
2 -x,-y,-z
_cell_length_a                   10.5204(2)
_cell_length_b                   11.2241(2)
_cell_length_c                   14.0039(3)
_cell_angle_alpha                109.398(5)
_cell_angle_beta                 91.023(5)
_cell_angle_gamma                103.730(5)
_cell_volume                     1506.71
loop_
_atom_site_label
_atom_site_type_symbol
_atom_site_fract_x
_atom_site_fract_y
_atom_site_fract_z
Hg1 Hg 0.14182(1) 0.19079(1) 0.78884(1)
Cl1 Cl 0.1120(1) -0.02771(9) 0.78227(7)
Cl2 Cl 0.2701(1) 0.3983(1) 0.80321(7)
N1 N -0.0274(3) 0.1412(3) 0.6506(2)
C1 C -0.1052(5) 0.0196(4) 0.6117(3)
C2 C -0.2000(4) -0.0187(4) 0.5305(3)
C3 C -0.2143(4) 0.0718(3) 0.4861(3)
C4 C -0.1341(4) 0.1979(4) 0.5263(3)
C5 C -0.0415(4) 0.2283(4) 0.6087(3)
C6 C -0.3157(4) 0.0268(4) 0.3966(3)
O1 O -0.3673(3) -0.0855(3) 0.3491(2)
O2 O -0.3408(3) 0.1288(2) 0.3774(2)
C7 C -0.4325(4) 0.0962(4) 0.2879(3)
C8 C -0.4668(4) 0.2219(3) 0.2909(2)
C9 C -0.5455(4) 0.2723(3) 0.3788(2)
C10 C -0.5081(4) 0.3179(4) 0.4831(3)
C11 C -0.5978(4) 0.3620(4) 0.5488(3)
C12 C -0.7205(4) 0.3615(4) 0.5130(3)
C13 C -0.7596(4) 0.3159(4) 0.4082(3)
C14 C -0.6720(4) 0.2702(3) 0.3415(3)
C15 C -0.6837(4) 0.2175(3) 0.2306(3)
C16 C -0.7904(4) 0.1926(4) 0.1599(3)
C17 C -0.7748(4) 0.1428(4) 0.0573(3)
C18 C -0.6566(4) 0.1189(4) 0.0261(3)
C19 C -0.5503(4) 0.1413(4) 0.0963(3)
C20 C -0.5656(4) 0.1910(3) 0.1991(2)
C21 C -0.3447(4) 0.3294(4) 0.2982(3)
O3 O -0.2743(3) 0.2894(2) 0.2100(2)
C22 C -0.1506(4) 0.3573(4) 0.2175(3)
O4 O -0.0891(3) 0.4389(3) 0.2949(2)
C23 C -0.0951(4) 0.3233(4) 0.1169(3)
C24 C -0.1512(4) 0.2091(4) 0.0369(3)
C25 C -0.0924(4) 0.1826(4) -0.0522(3)
N2 N 0.0159(3) 0.2635(3) -0.0670(2)
C26 C 0.0693(4) 0.3751(4) 0.0116(3)
C27 C 0.0172(4) 0.4080(4) 0.1039(3)
H1 H -0.0948 -0.0429 0.6412
H2 H -0.2546 -0.1055 0.5054
H3 H -0.1422 0.2623 0.4982
H4 H 0.0138 0.3146 0.6361
H5 H -0.5097 0.0329 0.2894
H6 H -0.3926 0.0627 0.2278
H7 H -0.4235 0.3188 0.5088
H8 H -0.5737 0.3932 0.6201
H9 H -0.7795 0.3925 0.5598
H10 H -0.8441 0.3164 0.3834
H11 H -0.8715 0.2094 0.1814
H12 H -0.8463 0.1249 0.0079
H13 H -0.6477 0.0865 -0.0446
H14 H -0.4698 0.1230 0.0744
H15 H -0.2893 0.3464 0.3580
H16 H -0.3695 0.4064 0.3010
H17 H -0.2290 0.1500 0.0433
H18 H -0.1303 0.1027 -0.1061
H19 H 0.1461 0.4337 0.0031
H20 H 0.0578 0.4873 0.1575
N2_2 N 0.0159(3) 0.2635(3) 0.9330(2)
Hg1_2 Hg 0.14182(1) 0.19079(1) -0.21116(1)
C28 C -0.5831(5) 0.6654(5) 0.1919(3)
Cl3 Cl -0.6284(2) 0.5066(1) 0.1918(1)
Cl4 Cl -0.6984(2) 0.7508(2) 0.2474(2)
Cl5 Cl -0.5744(2) 0.6646(2) 0.0683(1)
H21 H -0.4996 0.7073 0.2303
loop_
_geom_bond_atom_site_label_1
_geom_bond_atom_site_label_2
_geom_bond_site_symmetry_1
_geom_bond_site_symmetry_2
Hg1 Cl1 1_555 1_555
Cl2 Hg1 1_555 1_555
N1 Hg1 1_555 1_555
C1 N1 1_555 1_555
C2 C1 1_555 1_555
C3 C2 1_555 1_555
C4 C3 1_555 1_555
C5 N1 1_555 1_555
C6 C3 1_555 1_555
O1 C6 1_555 1_555
O2 C6 1_555 1_555
C7 O2 1_555 1_555
C8 C7 1_555 1_555
C9 C8 1_555 1_555
C10 C9 1_555 1_555
C11 C10 1_555 1_555
C12 C11 1_555 1_555
C13 C12 1_555 1_555
C14 C9 1_555 1_555
C15 C14 1_555 1_555
C16 C15 1_555 1_555
C17 C16 1_555 1_555
C18 C17 1_555 1_555
C19 C18 1_555 1_555
C20 C8 1_555 1_555
C21 C8 1_555 1_555
O3 C21 1_555 1_555
C22 O3 1_555 1_555
O4 C22 1_555 1_555
C23 C22 1_555 1_555
C24 C23 1_555 1_555
C25 C24 1_555 1_555
N2 C25 1_555 1_555
C26 N2 1_555 1_555
C27 C23 1_555 1_555
C28 Cl3 1_555 1_555
Cl4 C28 1_555 1_555
Cl5 C28 1_555 1_555
H1 C1 1_555 1_555
H2 C2 1_555 1_555
H3 C4 1_555 1_555
H4 C5 1_555 1_555
H5 C7 1_555 1_555
H6 C7 1_555 1_555
H7 C10 1_555 1_555
H8 C11 1_555 1_555
H9 C12 1_555 1_555
H10 C13 1_555 1_555
H11 C16 1_555 1_555
H12 C17 1_555 1_555
H13 C18 1_555 1_555
H14 C19 1_555 1_555
H15 C21 1_555 1_555
H16 C21 1_555 1_555
H17 C24 1_555 1_555
H18 C25 1_555 1_555
H19 C26 1_555 1_555
H20 C27 1_555 1_555
H21 C28 1_555 1_555
N2_2 Hg1 1_555 1_555
Hg1_2 N2 1_555 1_555
C4 C5 1_555 1_555
C13 C14 1_555 1_555
C15 C20 1_555 1_555
C19 C20 1_555 1_555
C26 C27 1_555 1_555

#END
