
#######################################################################
#
#                 Cambridge Crystallographic Data Centre
#                                CCDC 
#
#######################################################################
#
# If this CIF has been generated from an entry in the Cambridge 
# Structural Database, then it will include bibliographic, chemical, 
# crystal, experimental, refinement or atomic coordinate data resulting 
# from the CCDC's data processing and validation procedures.
#
#######################################################################

data_AQATER
_symmetry_cell_setting           monoclinic
_symmetry_space_group_name_H-M   'P 2/n'
_symmetry_Int_Tables_number      13
_space_group_name_Hall           '-P 2yac'
loop_
_symmetry_equiv_pos_site_id
_symmetry_equiv_pos_as_xyz
1 x,y,z
2 1/2-x,y,1/2-z
3 -x,-y,-z
4 1/2+x,-y,1/2+z
_cell_length_a                   17.6763(2)
_cell_length_b                   7.1511(1)
_cell_length_c                   28.2492(3)
_cell_angle_alpha                90
_cell_angle_beta                 91.544(5)
_cell_angle_gamma                90
_cell_volume                     3569.54
loop_
_atom_site_label
_atom_site_type_symbol
_atom_site_fract_x
_atom_site_fract_y
_atom_site_fract_z
Co1 Co -0.5000 0.0000 -0.5000
Cl1 Cl -0.44615(5) -0.2696(1) -0.53580(3)
N1 N -0.3860(2) 0.1142(5) -0.4889(1)
C1 C -0.3697(2) 0.2951(6) -0.4972(2)
C2 C -0.2977(3) 0.3689(6) -0.4927(2)
C3 C -0.2387(3) 0.2528(7) -0.4787(2)
C4 C -0.2547(2) 0.0663(6) -0.4694(1)
C5 C -0.3287(2) 0.0033(6) -0.4750(1)
C6 C -0.1964(3) -0.0709(7) -0.4527(2)
O1 O -0.2097(2) -0.2288(5) -0.4418(2)
O2 O -0.1267(2) 0.0061(5) -0.4508(1)
C7 C -0.0694(2) -0.0992(7) -0.4275(2)
C8 C -0.0199(3) -0.2029(8) -0.4525(2)
C9 C 0.0369(2) -0.3027(7) -0.4280(1)
C10 C 0.0435(2) -0.2950(6) -0.3789(1)
C11 C -0.0073(3) -0.1855(8) -0.3549(2)
C12 C -0.0636(3) -0.0862(8) -0.3784(2)
C13 C 0.1069(2) -0.3966(6) -0.3514(1)
C14 C 0.1479(2) -0.5459(6) -0.3798(1)
C15 C 0.1196(3) -0.7093(7) -0.3997(2)
C16 C 0.1698(3) -0.8301(7) -0.4223(2)
C17 C 0.2462(3) -0.7877(8) -0.4239(2)
C18 C 0.2748(3) -0.6252(8) -0.4045(2)
C19 C 0.2253(2) -0.5030(6) -0.3826(1)
C20 C 0.2396(2) -0.3232(6) -0.3590(1)
C21 C 0.3054(3) -0.2184(8) -0.3540(2)
C22 C 0.3030(3) -0.0482(8) -0.3300(2)
C23 C 0.2358(3) 0.0151(7) -0.3110(2)
C24 C 0.1692(3) -0.0899(7) -0.3160(2)
C25 C 0.1717(2) -0.2584(6) -0.3403(1)
C26 C 0.0785(2) -0.4942(6) -0.3067(1)
C27 C 0.0095(3) -0.5856(8) -0.3083(2)
C28 C 0.1231(2) -0.5084(6) -0.2655(1)
C29 C 0.1011(3) -0.6185(6) -0.2279(1)
C30 C 0.0336(3) -0.7119(6) -0.2313(1)
C31 C -0.0140(3) -0.6940(8) -0.2708(2)
O3 O 0.0129(2) -0.8230(4) -0.1924(1)
C32 C 0.0019(3) -1.0083(7) -0.2009(1)
O4 O 0.0043(3) -1.0773(6) -0.2395(1)
C33 C -0.0097(2) -1.1161(6) -0.1570(1)
C34 C -0.0053(2) -1.0371(5) -0.1122(1)
N2 N -0.0129(2) -1.1363(5) -0.0723(1)
C35 C -0.4746(3) -0.3210(6) -0.4225(1)
C36 C -0.4703(3) -0.4109(6) -0.3793(2)
C37 C -0.0226(3) -1.3073(6) -0.1614(1)
H1 H -0.4099 0.3761 -0.5067
H2 H -0.2889 0.4973 -0.4992
H3 H -0.1885 0.2994 -0.4754
H4 H -0.3391 -0.1244 -0.4687
H5 H -0.0238 -0.2075 -0.4861
H6 H 0.0714 -0.3766 -0.4452
H7 H -0.0033 -0.1785 -0.3214
H8 H -0.0977 -0.0104 -0.3615
H9 H 0.0673 -0.7390 -0.3981
H10 H 0.1512 -0.9420 -0.4365
H11 H 0.2794 -0.8726 -0.4387
H12 H 0.3272 -0.5969 -0.4061
H13 H 0.3514 -0.2619 -0.3667
H14 H 0.3476 0.0253 -0.3267
H15 H 0.2351 0.1306 -0.2944
H16 H 0.1233 -0.0468 -0.3031
H17 H -0.0225 -0.5738 -0.3357
H18 H -0.0618 -0.7549 -0.2721
H19 H 0.1324 -0.6289 -0.2001
H20 H 0.1695 -0.4414 -0.2631
H21 H 0.0035 -0.9064 -0.1096
H22 H -0.4684 -0.3938 -0.4503
H23 H -0.4624 -0.5422 -0.3777
H24 H -0.0263 -1.3648 -0.1917
Cl1B Cl -0.55385(5) 0.2696(1) -0.46420(3)
N2C N -0.5129(2) 0.1363(5) -0.5723(1)
Co1C Co 0.0000 -1.0000 0.0000
Co1C_2 Co 0.0000 1.0000 0.0000
N1A N -0.1140(2) 1.1142(5) -0.0111(1)
C1A C -0.1303(2) 1.2951(6) -0.0028(2)
C2A C -0.2023(3) 1.3689(6) -0.0073(2)
C3A C -0.2613(3) 1.2528(7) -0.0213(2)
C4A C -0.2453(2) 1.0663(6) -0.0306(1)
C5A C -0.1713(2) 1.0033(6) -0.0250(1)
H4A H -0.1609 0.8756 -0.0313
C6A C -0.3036(3) 0.9291(7) -0.0473(2)
O1A O -0.2903(2) 0.7712(5) -0.0582(2)
O2A O -0.3733(2) 1.0061(5) -0.0492(1)
C7A C -0.4306(2) 0.9008(7) -0.0725(2)
C8A C -0.4801(3) 0.7971(8) -0.0475(2)
C9A C -0.5369(2) 0.6973(7) -0.0720(1)
C10A C -0.5435(2) 0.7050(6) -0.1211(1)
C11A C -0.4927(3) 0.8145(8) -0.1451(2)
C12A C -0.4364(3) 0.9138(8) -0.1216(2)
H8A H -0.4023 0.9896 -0.1385
H7A H -0.4967 0.8215 -0.1786
C13A C -0.6069(2) 0.6034(6) -0.1486(1)
C14A C -0.6479(2) 0.4541(6) -0.1202(1)
C15A C -0.6196(3) 0.2907(7) -0.1003(2)
C16A C -0.6698(3) 0.1699(7) -0.0777(2)
C17A C -0.7462(3) 0.2123(8) -0.0761(2)
C18A C -0.7748(3) 0.3748(8) -0.0955(2)
C19A C -0.7253(2) 0.4970(6) -0.1174(1)
C20A C -0.7396(2) 0.6768(6) -0.1410(1)
C21A C -0.8054(3) 0.7816(8) -0.1460(2)
C22A C -0.8030(3) 0.9518(8) -0.1700(2)
C23A C -0.7358(3) 1.0151(7) -0.1890(2)
C24A C -0.6692(3) 0.9101(7) -0.1840(2)
C25A C -0.6717(2) 0.7416(6) -0.1597(1)
C26A C -0.5785(2) 0.5058(6) -0.1933(1)
C27A C -0.5095(3) 0.4144(8) -0.1917(2)
C31A C -0.4860(3) 0.3060(8) -0.2292(2)
C30A C -0.5336(3) 0.2881(6) -0.2687(1)
C29A C -0.6011(3) 0.3815(6) -0.2721(1)
C28A C -0.6231(2) 0.4916(6) -0.2345(1)
H20A H -0.6695 0.5586 -0.2369
H19A H -0.6324 0.3711 -0.2999
O3A O -0.5129(2) 0.1770(4) -0.3076(1)
C32A C -0.5019(3) -0.0083(7) -0.2991(1)
O4A O -0.5043(3) -0.0773(6) -0.2605(1)
C33A C -0.4903(2) -0.1161(6) -0.3430(1)
C34A C -0.4947(2) -0.0371(5) -0.3878(1)
N2A N -0.4871(2) -0.1363(5) -0.4277(1)
N1B N -0.6140(2) -0.1142(5) -0.5111(1)
C37A C -0.4774(3) -0.3073(6) -0.3386(1)
H24A H -0.4737 -0.3648 -0.3083
H21A H -0.5035 0.0936 -0.3904
H18A H -0.4382 0.2451 -0.2279
H17A H -0.4775 0.4262 -0.1643
H16A H -0.6233 0.9532 -0.1969
H15A H -0.7351 1.1306 -0.2056
H14A H -0.8476 1.0253 -0.1733
H13A H -0.8514 0.7381 -0.1333
H12A H -0.8272 0.4031 -0.0939
H11A H -0.7794 0.1274 -0.0613
H10A H -0.6512 0.0580 -0.0635
H9A H -0.5673 0.2610 -0.1019
H6A H -0.5714 0.6234 -0.0548
H5A H -0.4762 0.7925 -0.0139
H3A H -0.3115 1.2994 -0.0246
H2A H -0.2111 1.4973 -0.0008
H1A H -0.0901 1.3761 0.0067
C35A C -0.0254(3) -1.3210(6) -0.0775(1)
C36A C -0.0297(3) -1.4109(6) -0.1207(2)
H23A H -0.0376 -1.5422 -0.1223
H22A H -0.0316 -1.3938 -0.0497
C38 C -0.2669(2) 0.4354(6) -0.3599(1)
Cl2 Cl -0.3239 0.2347 -0.3586
Cl3 Cl -0.1766 0.3784 -0.3616
Cl4 Cl -0.2721 0.6218 -0.3190
O5 O -0.1697(3) 0.907(1) -0.2619(3)
O6? O -0.2796(8) 0.883(2) -0.3432(5)
loop_
_geom_bond_atom_site_label_1
_geom_bond_atom_site_label_2
_geom_bond_site_symmetry_1
_geom_bond_site_symmetry_2
Co1 Cl1 1_555 1_555
N1 Co1 1_555 1_555
C1 N1 1_555 1_555
C2 C1 1_555 1_555
C3 C2 1_555 1_555
C4 C3 1_555 1_555
C5 N1 1_555 1_555
C6 C4 1_555 1_555
O1 C6 1_555 1_555
O2 C6 1_555 1_555
C7 O2 1_555 1_555
C8 C7 1_555 1_555
C9 C8 1_555 1_555
C10 C9 1_555 1_555
C11 C10 1_555 1_555
C12 C7 1_555 1_555
C13 C10 1_555 1_555
C14 C13 1_555 1_555
C15 C14 1_555 1_555
C16 C15 1_555 1_555
C17 C16 1_555 1_555
C18 C17 1_555 1_555
C19 C14 1_555 1_555
C20 C19 1_555 1_555
C21 C20 1_555 1_555
C22 C21 1_555 1_555
C23 C22 1_555 1_555
C24 C23 1_555 1_555
C25 C13 1_555 1_555
C26 C13 1_555 1_555
C27 C26 1_555 1_555
C28 C26 1_555 1_555
C29 C28 1_555 1_555
C30 C29 1_555 1_555
C31 C27 1_555 1_555
O3 C30 1_555 1_555
C32 O3 1_555 1_555
O4 C32 1_555 1_555
C33 C32 1_555 1_555
C34 C33 1_555 1_555
N2 C34 1_555 1_555
C35 C36 1_555 1_555
C36 H23 1_555 1_555
C37 C33 1_555 1_555
H1 C1 1_555 1_555
H2 C2 1_555 1_555
H3 C3 1_555 1_555
H4 C5 1_555 1_555
H5 C8 1_555 1_555
H6 C9 1_555 1_555
H7 C11 1_555 1_555
H8 C12 1_555 1_555
H9 C15 1_555 1_555
H10 C16 1_555 1_555
H11 C17 1_555 1_555
H12 C18 1_555 1_555
H13 C21 1_555 1_555
H14 C22 1_555 1_555
H15 C23 1_555 1_555
H16 C24 1_555 1_555
H17 C27 1_555 1_555
H18 C31 1_555 1_555
H19 C29 1_555 1_555
H20 C28 1_555 1_555
H21 C34 1_555 1_555
H22 C35 1_555 1_555
H24 C37 1_555 1_555
C38 Cl2 1_555 1_555
Cl3 C38 1_555 1_555
Cl4 C38 1_555 1_555
Cl1B Co1 1_555 1_555
N2C Co1 1_555 1_555
Co1C N2 1_555 1_555
Co1C_2 N1A 1_555 1_555
N1A C1A 1_555 1_555
C1A C2A 1_555 1_555
C2A C3A 1_555 1_555
C3A C4A 1_555 1_555
C4A C5A 1_555 1_555
C5A N1A 1_555 1_555
H4A C5A 1_555 1_555
C6A C4A 1_555 1_555
O1A C6A 1_555 1_555
O2A C6A 1_555 1_555
C7A O2A 1_555 1_555
C8A C7A 1_555 1_555
C9A C8A 1_555 1_555
C10A C9A 1_555 1_555
C11A C10A 1_555 1_555
C12A C7A 1_555 1_555
H8A C12A 1_555 1_555
H7A C11A 1_555 1_555
C13A C10A 1_555 1_555
C14A C13A 1_555 1_555
C15A C14A 1_555 1_555
C16A C15A 1_555 1_555
C17A C16A 1_555 1_555
C18A C17A 1_555 1_555
C19A C14A 1_555 1_555
C20A C19A 1_555 1_555
C21A C20A 1_555 1_555
C22A C21A 1_555 1_555
C23A C22A 1_555 1_555
C24A C23A 1_555 1_555
C25A C13A 1_555 1_555
C26A C13A 1_555 1_555
C27A C26A 1_555 1_555
C31A C27A 1_555 1_555
C30A C31A 1_555 1_555
C29A C30A 1_555 1_555
C28A C26A 1_555 1_555
H20A C28A 1_555 1_555
H19A C29A 1_555 1_555
O3A C30A 1_555 1_555
C32A O3A 1_555 1_555
O4A C32A 1_555 1_555
C33A C32A 1_555 1_555
C34A C33A 1_555 1_555
N2A Co1 1_555 1_555
N1B Co1 1_555 1_555
C37A C36 1_555 1_555
H24A C37A 1_555 1_555
H21A C34A 1_555 1_555
H18A C31A 1_555 1_555
H17A C27A 1_555 1_555
H16A C24A 1_555 1_555
H15A C23A 1_555 1_555
H14A C22A 1_555 1_555
H13A C21A 1_555 1_555
H12A C18A 1_555 1_555
H11A C17A 1_555 1_555
H10A C16A 1_555 1_555
H9A C15A 1_555 1_555
H6A C9A 1_555 1_555
H5A C8A 1_555 1_555
H3A C3A 1_555 1_555
H2A C2A 1_555 1_555
H1A C1A 1_555 1_555
C35A N2 1_555 1_555
C36A C37 1_555 1_555
H23A C36A 1_555 1_555
H22A C35A 1_555 1_555
C4 C5 1_555 1_555
C11 C12 1_555 1_555
C18 C19 1_555 1_555
C20 C25 1_555 1_555
C24 C25 1_555 1_555
C30 C31 1_555 1_555
C35 N2A 1_555 1_555
C11A C12A 1_555 1_555
C18A C19A 1_555 1_555
C20A C25A 1_555 1_555
C24A C25A 1_555 1_555
C29A C28A 1_555 1_555
C33A C37A 1_555 1_555
C34A N2A 1_555 1_555
C35A C36A 1_555 1_555

#END
