
#######################################################################
#
#                 Cambridge Crystallographic Data Centre
#                                CCDC 
#
#######################################################################
#
# If this CIF has been generated from an entry in the Cambridge 
# Structural Database, then it will include bibliographic, chemical, 
# crystal, experimental, refinement or atomic coordinate data resulting 
# from the CCDC's data processing and validation procedures.
#
#######################################################################

data_AQAVUJ
_symmetry_cell_setting           triclinic
_symmetry_space_group_name_H-M   'P -1'
_symmetry_Int_Tables_number      2
_space_group_name_Hall           '-P 1'
loop_
_symmetry_equiv_pos_site_id
_symmetry_equiv_pos_as_xyz
1 x,y,z
2 -x,-y,-z
_cell_length_a                   6.205(3)
_cell_length_b                   6.958(3)
_cell_length_c                   7.827(2)
_cell_angle_alpha                79.83(3)
_cell_angle_beta                 74.79(3)
_cell_angle_gamma                74.24(3)
_cell_volume                     311.806
loop_
_atom_site_label
_atom_site_type_symbol
_atom_site_fract_x
_atom_site_fract_y
_atom_site_fract_z
Ag1 Ag 0.0000 0.0000 0.0000
N1 N -0.1276(7) -0.2633(6) 0.1018(5)
H1 H -0.1728 -0.2999 0.0146
H2 H -0.0114 -0.3635 0.1298
O1 O -0.2048(6) -0.3823(6) 0.7722(4)
O2 O -0.5739(6) -0.3790(5) 0.8800(4)
C1 C -0.4020(8) -0.3527(7) 0.7523(6)
C2 C -0.4541(8) -0.2819(7) 0.5731(6)
C3 C -0.2741(8) -0.2956(7) 0.4248(6)
H3 H -0.1237 -0.3402 0.4389
C4 C -0.3153(8) -0.2434(7) 0.2551(6)
C5 C -0.5408(8) -0.1687(7) 0.2359(6)
H4 H -0.5702 -0.1287 0.1227
C6 C -0.7202(8) -0.1538(7) 0.3834(6)
H5 H -0.8702 -0.1023 0.3694
C7 C -0.6795(8) -0.2148(7) 0.5522(6)
H6 H -0.8018 -0.2111 0.6512
H7 H -0.5000 -0.5000 1.0000
O2A O -0.4261(6) -0.6210(5) 1.1200(4)
C1A C -0.5980(8) -0.6473(7) 1.2477(6)
O1A O -0.7952(6) -0.6177(6) 1.2278(4)
C2A C -0.5459(8) -0.7181(7) 1.4269(6)
C3A C -0.7259(8) -0.7044(7) 1.5752(6)
H3A H -0.8763 -0.6598 1.5611
C4A C -0.6847(8) -0.7566(7) 1.7449(6)
N1A N -0.8724(7) -0.7367(6) 1.8982(5)
Ag1A Ag -1.0000 -1.0000 2.0000
H1A H -0.8272 -0.7001 1.9854
H2A H -0.9886 -0.6365 1.8702
C5A C -0.4592(8) -0.8313(7) 1.7641(6)
H4A H -0.4298 -0.8713 1.8773
C6A C -0.2798(8) -0.8462(7) 1.6166(6)
H5A H -0.1298 -0.8977 1.6306
C7A C -0.3205(8) -0.7852(7) 1.4478(6)
H6A H -0.1982 -0.7889 1.3488
N1A_2 N 0.1276(7) 0.2633(6) -0.1018(5)
H1A_2 H 0.1728 0.2999 -0.0146
H2A_2 H 0.0114 0.3635 -0.1298
loop_
_geom_bond_atom_site_label_1
_geom_bond_atom_site_label_2
_geom_bond_site_symmetry_1
_geom_bond_site_symmetry_2
Ag1 N1 1_555 1_555
N1 H1 1_555 1_555
H2 N1 1_555 1_555
O1 C1 1_555 1_555
O2 C1 1_555 1_555
C1 C2 1_555 1_555
C2 C3 1_555 1_555
C3 H3 1_555 1_555
C4 N1 1_555 1_555
C5 C4 1_555 1_555
H4 C5 1_555 1_555
C6 C5 1_555 1_555
H5 C6 1_555 1_555
C7 C2 1_555 1_555
H6 C7 1_555 1_555
H7 O2 1_555 1_555
O2A H7 1_555 1_555
C1A O2A 1_555 1_555
O1A C1A 1_555 1_555
C2A C1A 1_555 1_555
C3A C2A 1_555 1_555
H3A C3A 1_555 1_555
C4A C3A 1_555 1_555
N1A C4A 1_555 1_555
Ag1A N1A 1_555 1_555
H1A N1A 1_555 1_555
H2A N1A 1_555 1_555
C5A C4A 1_555 1_555
H4A C5A 1_555 1_555
C6A C5A 1_555 1_555
H5A C6A 1_555 1_555
C7A C2A 1_555 1_555
H6A C7A 1_555 1_555
N1A_2 Ag1 1_555 1_555
H1A_2 N1A_2 1_555 1_555
H2A_2 N1A_2 1_555 1_555
C3 C4 1_555 1_555
C6 C7 1_555 1_555
C6A C7A 1_555 1_555

#END
