
#######################################################################
#
#                 Cambridge Crystallographic Data Centre
#                                CCDC 
#
#######################################################################
#
# If this CIF has been generated from an entry in the Cambridge 
# Structural Database, then it will include bibliographic, chemical, 
# crystal, experimental, refinement or atomic coordinate data resulting 
# from the CCDC's data processing and validation procedures.
#
#######################################################################

data_AQAVOD
_symmetry_cell_setting           monoclinic
_symmetry_space_group_name_H-M   'P 21/m'
_symmetry_Int_Tables_number      11
_space_group_name_Hall           '-P 2yb'
loop_
_symmetry_equiv_pos_site_id
_symmetry_equiv_pos_as_xyz
1 x,y,z
2 x,1/2-y,z
3 -x,-y,-z
4 -x,1/2+y,-z
_cell_length_a                   8.2979(2)
_cell_length_b                   17.57650(10)
_cell_length_c                   9.96880(10)
_cell_angle_alpha                90
_cell_angle_beta                 103.5060(10)
_cell_angle_gamma                90
_cell_volume                     1413.72
loop_
_atom_site_label
_atom_site_type_symbol
_atom_site_fract_x
_atom_site_fract_y
_atom_site_fract_z
Ag1 Ag 0.32444(3) 0.485709(16) 0.56128(2)
N1 N 0.1189(3) 0.48486(14) 0.3848(3)
N2 N 0.5103(3) 0.48360(13) 0.7520(2)
C1 C 0.0388(4) 0.42108(18) 0.3342(3)
H3 H 0.0680 0.3759 0.3823
C2 C -0.0843(4) 0.41897(17) 0.2148(3)
H4 H -0.1366 0.3732 0.1849
C3 C -0.1307(4) 0.48491(15) 0.1389(3)
C4 C -0.2553(3) 0.48443(15) 0.0066(3)
C5 C -0.3434(4) 0.41921(17) -0.0461(3)
H5 H -0.3257 0.3740 0.0037
C6 C 0.5445(4) 0.42129(17) 0.8296(3)
H6 H 0.4888 0.3766 0.7972
C7 C 0.5941(4) 0.54661(18) 0.8011(3)
H7 H 0.5732 0.5908 0.7486
C8 C -0.2913(4) 0.54952(17) -0.0757(3)
H8 H -0.2371 0.5950 -0.0465
C9 C -0.0487(4) 0.55134(17) 0.1948(3)
H9 H -0.0766 0.5975 0.1498
C10 C 0.0710(4) 0.54922(18) 0.3137(3)
H10 H 0.1224 0.5946 0.3478
C6_2 C -0.4555(4) 0.42129(17) -0.1704(3)
N2_2 N -0.4897(3) 0.48360(13) -0.2480(2)
Ag1_2 Ag -0.67556(3) 0.485709(16) -0.43872(2)
N1_2 N -0.8811(3) 0.48486(14) -0.6152(3)
C7_2 C -0.4059(4) 0.54661(18) -0.1989(3)
H7_2 H -0.4268 0.5908 -0.2514
H6_2 H -0.5112 0.3766 -0.2028
C5_2 C 0.6566(4) 0.41921(17) 0.9539(3)
C8_2 C 0.7087(4) 0.54952(17) 0.9243(3)
C4_2 C 0.7447(3) 0.48443(15) 1.0066(3)
H5_2 H 0.6743 0.3740 1.0037
H8_2 H 0.7629 0.5950 0.9535
C3_2 C 0.8693(4) 0.48491(15) 1.1389(3)
C2_2 C 0.9157(4) 0.41897(17) 1.2148(3)
C9_2 C 0.9513(4) 0.55134(17) 1.1948(3)
C1_2 C 1.0388(4) 0.42108(18) 1.3342(3)
H4_2 H 0.8634 0.3732 1.1849
H9_2 H 0.9234 0.5975 1.1498
C10_2 C 1.0710(4) 0.54922(18) 1.3137(3)
N1_3 N 1.1189(3) 0.48486(14) 1.3848(3)
H3_2 H 1.0680 0.3759 1.3823
H10_2 H 1.1224 0.5946 1.3478
Ag1_3 Ag 1.32444(3) 0.485709(16) 1.56128(2)
N3 N 0.3317(7) 0.2500 0.6024(4)
O1 O 0.2566(5) 0.3105(2) 0.5826(4)
O3 O 0.4820(5) 0.2500 0.6519(4)
O1A O 0.2566(5) 0.1895(2) 0.5826(4)
N4 N 1.0634(5) 0.7500 1.0728(6)
H1 H 1.1389 0.7500 1.0265
H2 H 1.0909 0.7500 1.1615
O5 O 0.3379(5) 0.7500 0.6703(4)
O6 O 0.2753(4) 0.7500 0.8741(3)
C11 C 0.3774(6) 0.7500 0.8008(5)
C12 C 0.5592(5) 0.7500 0.8709(4)
C13 C 0.6835(6) 0.7500 0.7958(5)
H11 H 0.6535 0.7500 0.6999
C14 C 0.8480(6) 0.7500 0.8619(5)
H12 H 0.9274 0.7500 0.8097
C15 C 0.8991(6) 0.7500 1.0051(5)
C16 C 0.7762(6) 0.7500 1.0808(5)
H13 H 0.8063 0.7500 1.1767
C17 C 0.6099(6) 0.7500 1.0130(5)
H14 H 0.5302 0.7500 1.0649
O2 O 0.0866(6) 0.7500 0.3984(6)
O4 O 0.4082(5) 0.62945(17) 0.5123(3)
H15 H 0.455(6) 0.652(3) 0.450(5)
H16 H 0.370(6) 0.657(3) 0.547(4)
loop_
_geom_bond_atom_site_label_1
_geom_bond_atom_site_label_2
_geom_bond_site_symmetry_1
_geom_bond_site_symmetry_2
Ag1 N1 1_555 1_555
N1 C1 1_555 1_555
N2 Ag1 1_555 1_555
N3 O1 1_555 1_555
N4 H1 1_555 1_555
H2 N4 1_555 1_555
O3 N3 1_555 1_555
O4 H15 1_555 1_555
O5 C11 1_555 1_555
O6 C11 1_555 1_555
C1 H3 1_555 1_555
C2 C1 1_555 1_555
H4 C2 1_555 1_555
C3 C2 1_555 1_555
C4 C3 1_555 1_555
C5 C4 1_555 1_555
H5 C5 1_555 1_555
C6 N2 1_555 1_555
H6 C6 1_555 1_555
C7 N2 1_555 1_555
H7 C7 1_555 1_555
C8 C4 1_555 1_555
H8 C8 1_555 1_555
C9 C3 1_555 1_555
H9 C9 1_555 1_555
C10 N1 1_555 1_555
H10 C10 1_555 1_555
C11 C12 1_555 1_555
C12 C13 1_555 1_555
C13 H11 1_555 1_555
C14 C13 1_555 1_555
H12 C14 1_555 1_555
C15 N4 1_555 1_555
C16 C15 1_555 1_555
H13 C16 1_555 1_555
C17 C12 1_555 1_555
H14 C17 1_555 1_555
H16 O4 1_555 1_555
C6_2 C5 1_555 1_555
N2_2 C6_2 1_555 1_555
Ag1_2 N2_2 1_555 1_555
N1_2 Ag1_2 1_555 1_555
C7_2 C8 1_555 1_555
H7_2 C7_2 1_555 1_555
H6_2 C6_2 1_555 1_555
O1A N3 1_555 1_555
C5_2 C6 1_555 1_555
C8_2 C7 1_555 1_555
C4_2 C5_2 1_555 1_555
H5_2 C5_2 1_555 1_555
H8_2 C8_2 1_555 1_555
C3_2 C4_2 1_555 1_555
C2_2 C3_2 1_555 1_555
C9_2 C3_2 1_555 1_555
C1_2 C2_2 1_555 1_555
H4_2 C2_2 1_555 1_555
H9_2 C9_2 1_555 1_555
C10_2 C9_2 1_555 1_555
N1_3 C1_2 1_555 1_555
H3_2 C1_2 1_555 1_555
H10_2 C10_2 1_555 1_555
Ag1_3 N1_3 1_555 1_555
C9 C10 1_555 1_555
C14 C15 1_555 1_555
C16 C17 1_555 1_555
N2_2 C7_2 1_555 1_555
C8_2 C4_2 1_555 1_555
C10_2 N1_3 1_555 1_555

#END
