
#######################################################################
#
#                 Cambridge Crystallographic Data Centre
#                                CCDC 
#
#######################################################################
#
# If this CIF has been generated from an entry in the Cambridge 
# Structural Database, then it will include bibliographic, chemical, 
# crystal, experimental, refinement or atomic coordinate data resulting 
# from the CCDC's data processing and validation procedures.
#
#######################################################################

data_AQAVET
_symmetry_cell_setting           orthorhombic
_symmetry_space_group_name_H-M   'P c c a'
_symmetry_Int_Tables_number      54
_space_group_name_Hall           '-P 2a 2ac'
loop_
_symmetry_equiv_pos_site_id
_symmetry_equiv_pos_as_xyz
1 x,y,z
2 1/2+x,y,-z
3 x,-y,1/2+z
4 1/2-x,y,1/2+z
5 -x,-y,-z
6 1/2-x,-y,z
7 -x,y,1/2-z
8 1/2+x,-y,1/2-z
_cell_length_a                   28.103(3)
_cell_length_b                   4.5857(5)
_cell_length_c                   11.7914(11)
_cell_angle_alpha                90
_cell_angle_beta                 90
_cell_angle_gamma                90
_cell_volume                     1519.58
loop_
_atom_site_label
_atom_site_type_symbol
_atom_site_fract_x
_atom_site_fract_y
_atom_site_fract_z
Ag1 Ag 0.7500 -1.0000 0.22961(6)
N1 N 0.67867(12) -1.1623(9) 0.1749(3)
H1 H 0.6829 -1.2822 0.1153
H2 H 0.6664 -1.2697 0.2317
N2 N 0.7500 -0.5000 0.4290(6)
O1 O 0.54534(11) -0.1891(7) -0.0500(2)
O2 O 0.51245(11) -0.2284(8) 0.1208(3)
O3 O 0.71890(15) -0.6291(11) 0.3766(4)
O4 O 0.7500 -0.5000 0.5329(5)
C1 C 0.54412(14) -0.3010(10) 0.0447(4)
C2 C 0.57857(15) -0.5247(8) 0.0806(4)
C3 C 0.61293(16) -0.6224(11) 0.0040(4)
H3 H 0.6138 -0.5456 -0.0690
C4 C 0.64551(15) -0.8306(10) 0.0353(4)
H4 H 0.6684 -0.8927 -0.0163
C5 C 0.64449(15) -0.9493(9) 0.1439(4)
C6 C 0.61101(16) -0.8505(11) 0.2207(4)
H5 H 0.6107 -0.9249 0.2941
C7 C 0.57804(14) -0.6419(10) 0.1892(4)
H6 H 0.5553 -0.5796 0.2412
H7 H 0.495(2) -0.072(17) 0.094(7)
N1E N 0.82133(12) -0.8377(9) 0.1749(3)
H1E H 0.8171 -0.7178 0.1153
H2E H 0.8336 -0.7303 0.2317
C5E C 0.85551(15) -1.0507(9) 0.1439(4)
C4E C 0.85449(15) -1.1694(10) 0.0353(4)
C3E C 0.88707(16) -1.3776(11) 0.0040(4)
C2E C 0.92143(15) -1.4753(8) 0.0806(4)
C1E C 0.95588(14) -1.6990(10) 0.0447(4)
O1E O 0.95466(11) -1.8109(7) -0.0500(2)
O2E O 0.98755(11) -1.7716(8) 0.1208(3)
H7E H 1.005(2) -1.928(17) 0.094(7)
C7E C 0.92196(14) -1.3581(10) 0.1892(4)
C6E C 0.88899(16) -1.1495(11) 0.2207(4)
H5E H 0.8893 -1.0751 0.2941
H6E H 0.9447 -1.4204 0.2412
H3E H 0.8862 -1.4544 -0.0690
H4E H 0.8316 -1.1073 -0.0163
O3E O 0.78110(15) -0.3709(11) 0.3766(4)
Ag1E Ag 0.7500 0.0000 0.22961(6)
O3E_2 O 0.78110(15) -1.3709(11) 0.3766(4)
loop_
_geom_bond_atom_site_label_1
_geom_bond_atom_site_label_2
_geom_bond_site_symmetry_1
_geom_bond_site_symmetry_2
Ag1 N1 1_555 1_555
N1 H1 1_555 1_555
H2 N1 1_555 1_555
N2 O3 1_555 1_555
O1 C1 1_555 1_555
O2 C1 1_555 1_555
O3 Ag1 1_555 1_555
O4 N2 1_555 1_555
C1 C2 1_555 1_555
C2 C3 1_555 1_555
C3 H3 1_555 1_555
C4 C3 1_555 1_555
H4 C4 1_555 1_555
C5 N1 1_555 1_555
C6 C5 1_555 1_555
H5 C6 1_555 1_555
C7 C2 1_555 1_555
H6 C7 1_555 1_555
H7 O2 1_555 1_555
N1E Ag1 1_555 1_555
H1E N1E 1_555 1_555
H2E N1E 1_555 1_555
C5E N1E 1_555 1_555
C4E C5E 1_555 1_555
C3E C4E 1_555 1_555
C2E C3E 1_555 1_555
C1E C2E 1_555 1_555
O1E C1E 1_555 1_555
O2E C1E 1_555 1_555
H7E O2E 1_555 1_555
C7E C2E 1_555 1_555
C6E C5E 1_555 1_555
H5E C6E 1_555 1_555
H6E C7E 1_555 1_555
H3E C3E 1_555 1_555
H4E C4E 1_555 1_555
O3E N2 1_555 1_555
Ag1E O3E 1_555 1_555
O3E_2 Ag1 1_555 1_555
C4 C5 1_555 1_555
C6 C7 1_555 1_555
C7E C6E 1_555 1_555

#END
