
#######################################################################
#
#                 Cambridge Crystallographic Data Centre
#                                CCDC 
#
#######################################################################
#
# If this CIF has been generated from an entry in the Cambridge 
# Structural Database, then it will include bibliographic, chemical, 
# crystal, experimental, refinement or atomic coordinate data resulting 
# from the CCDC's data processing and validation procedures.
#
#######################################################################

data_AQAVIX
_symmetry_cell_setting           monoclinic
_symmetry_space_group_name_H-M   'P 21/n'
_symmetry_Int_Tables_number      14
_space_group_name_Hall           '-P 2yn'
loop_
_symmetry_equiv_pos_site_id
_symmetry_equiv_pos_as_xyz
1 x,y,z
2 1/2+x,1/2-y,1/2+z
3 -x,-y,-z
4 1/2-x,1/2+y,1/2-z
_cell_length_a                   9.0672(7)
_cell_length_b                   18.0245(14)
_cell_length_c                   9.3905(7)
_cell_angle_alpha                90
_cell_angle_beta                 103.678(2)
_cell_angle_gamma                90
_cell_volume                     1491.18
loop_
_atom_site_label
_atom_site_type_symbol
_atom_site_fract_x
_atom_site_fract_y
_atom_site_fract_z
Ag1 Ag 0.16594(5) 0.04487(2) -0.48753(5)
N1 N 0.0504(5) 0.1023(2) -0.3260(5)
H1 H 0.0039 0.0922 -0.4148
H2 H 0.0710 0.0675 -0.2618
N2 N 0.1715(6) 0.0812(3) -0.7215(5)
H3 H 0.2600 0.0674 -0.7411
H4 H 0.0956 0.0591 -0.7868
O2 O 0.1119(8) 0.4513(2) -0.2505(6)
O3 O 0.2627(4) 0.42098(19) -0.0414(4)
O4 O 0.1968(5) 0.4383(2) -0.6950(5)
O5 O -0.0426(5) 0.4170(2) -0.8051(6)
H5 H -0.047(8) 0.469(4) -0.769(8)
C1 C 0.1772(6) 0.4040(3) -0.1595(6)
C2 C 0.1535(5) 0.3243(2) -0.2033(5)
C3 C 0.1925(5) 0.2681(2) -0.1007(5)
H6 H 0.2391 0.2798 -0.0041
C4 C 0.1627(5) 0.1942(2) -0.1408(5)
H7 H 0.1889 0.1567 -0.0713
C5 C 0.0934(5) 0.1769(2) -0.2853(5)
C6 C 0.0598(5) 0.2325(2) -0.3893(5)
H8 H 0.0185 0.2207 -0.4869
C7 C 0.0875(5) 0.3054(2) -0.3484(5)
H9 H 0.0618 0.3426 -0.4185
C8 C 0.0954(6) 0.3950(3) -0.7458(5)
C9 C 0.1137(5) 0.3133(2) -0.7443(5)
C10 C -0.0063(5) 0.2657(2) -0.8011(5)
H10 H -0.1017 0.2854 -0.8424
C11 C 0.0136(5) 0.1901(3) -0.7970(5)
H11 H -0.0675 0.1590 -0.8365
C12 C 0.1551(6) 0.1603(3) -0.7340(5)
C13 C 0.2751(6) 0.2076(3) -0.6758(6)
H12 H 0.3701 0.1879 -0.6331
C14 C 0.2547(5) 0.2823(3) -0.6806(5)
H13 H 0.3360 0.3132 -0.6406
O3C O 0.2373(4) -0.07902(19) -0.4586(4)
Ag1C Ag 0.33406(5) 0.54487(2) -0.01247(5)
O1 O 0.3566(7) 0.4862(3) -0.4121(5)
loop_
_geom_bond_atom_site_label_1
_geom_bond_atom_site_label_2
_geom_bond_site_symmetry_1
_geom_bond_site_symmetry_2
Ag1 N1 1_555 1_555
N1 H1 1_555 1_555
H2 N1 1_555 1_555
N2 Ag1 1_555 1_555
H3 N2 1_555 1_555
H4 N2 1_555 1_555
O2 C1 1_555 1_555
O3 C1 1_555 1_555
O4 C8 1_555 1_555
O5 H5 1_555 1_555
C1 C2 1_555 1_555
C2 C3 1_555 1_555
C3 H6 1_555 1_555
C4 C3 1_555 1_555
H7 C4 1_555 1_555
C5 N1 1_555 1_555
C6 C5 1_555 1_555
H8 C6 1_555 1_555
C7 C2 1_555 1_555
H9 C7 1_555 1_555
C8 O5 1_555 1_555
C9 C8 1_555 1_555
C10 C9 1_555 1_555
H10 C10 1_555 1_555
C11 C10 1_555 1_555
H11 C11 1_555 1_555
C12 N2 1_555 1_555
C13 C12 1_555 1_555
H12 C13 1_555 1_555
C14 C9 1_555 1_555
H13 C14 1_555 1_555
O3C Ag1 1_555 1_555
Ag1C O3 1_555 1_555
C4 C5 1_555 1_555
C6 C7 1_555 1_555
C11 C12 1_555 1_555
C13 C14 1_555 1_555

#END
