
#######################################################################
#
#                 Cambridge Crystallographic Data Centre
#                                CCDC 
#
#######################################################################
#
# If this CIF has been generated from an entry in the Cambridge 
# Structural Database, then it will include bibliographic, chemical, 
# crystal, experimental, refinement or atomic coordinate data resulting 
# from the CCDC's data processing and validation procedures.
#
#######################################################################

data_AQAWAQ
_symmetry_cell_setting           monoclinic
_symmetry_space_group_name_H-M   'P 21/c'
_symmetry_Int_Tables_number      14
_space_group_name_Hall           '-P 2ybc'
loop_
_symmetry_equiv_pos_site_id
_symmetry_equiv_pos_as_xyz
1 x,y,z
2 x,1/2-y,1/2+z
3 -x,-y,-z
4 -x,1/2+y,1/2-z
_cell_length_a                   8.0022(8)
_cell_length_b                   16.9508(16)
_cell_length_c                   5.8745(6)
_cell_angle_alpha                90
_cell_angle_beta                 96.895(2)
_cell_angle_gamma                90
_cell_volume                     791.076
loop_
_atom_site_label
_atom_site_type_symbol
_atom_site_fract_x
_atom_site_fract_y
_atom_site_fract_z
Ag1 Ag 0.05618(9) 0.25757(4) 0.19001(10)
N1 N 0.2289(9) 0.3560(4) 0.1346(12)
H1 H 0.2773 0.3106 0.1474
H2 H 0.1651 0.3679 0.0110
O2 O 0.0323(8) 0.6355(3) 0.2766(11)
O3 O 0.1624(8) 0.6688(4) 0.6160(11)
C1 C 0.1269(10) 0.6193(5) 0.4554(15)
C2 C 0.2047(10) 0.5389(5) 0.4783(14)
C3 C 0.1798(10) 0.4857(5) 0.3010(14)
H3 H 0.1121 0.4994 0.1670
C4 C 0.2547(9) 0.4120(4) 0.3202(14)
C5 C 0.3575(10) 0.3918(5) 0.5173(15)
H4 H 0.4093 0.3426 0.5293
C6 C 0.3832(11) 0.4449(5) 0.6971(14)
H5 H 0.4521 0.4314 0.8303
C7 C 0.3067(10) 0.5178(5) 0.6782(14)
H6 H 0.3231 0.5531 0.7998
Ag1A Ag 0.05618(9) 0.24243(4) -0.30999(10)
Ag1C Ag -0.05618(9) 0.75757(4) 0.30999(10)
Ag1B Ag -0.05618(9) 0.74243(4) 0.80999(10)
O3B O -0.1624(8) 0.3312(4) 0.3840(11)
O2C O -0.0323(8) 0.1355(3) 0.2234(11)
Ag1A_2 Ag 0.05618(9) 0.24243(4) 0.69001(10)
O1 O -0.4281(9) 0.2928(5) 0.0666(15)
loop_
_geom_bond_atom_site_label_1
_geom_bond_atom_site_label_2
_geom_bond_site_symmetry_1
_geom_bond_site_symmetry_2
Ag1 N1 1_555 1_555
N1 H1 1_555 1_555
H2 N1 1_555 1_555
O2 C1 1_555 1_555
O3 C1 1_555 1_555
C1 C2 1_555 1_555
C2 C3 1_555 1_555
C3 H3 1_555 1_555
C4 N1 1_555 1_555
C5 C4 1_555 1_555
H4 C5 1_555 1_555
C6 C5 1_555 1_555
H5 C6 1_555 1_555
C7 C2 1_555 1_555
H6 C7 1_555 1_555
Ag1A Ag1 1_555 1_555
Ag1C O2 1_555 1_555
Ag1B O3 1_555 1_555
O3B Ag1 1_555 1_555
O2C Ag1 1_555 1_555
Ag1A_2 Ag1 1_555 1_555
C3 C4 1_555 1_555
C6 C7 1_555 1_555
Ag1C Ag1B 1_555 1_555

#END
