
#######################################################################
#
#                 Cambridge Crystallographic Data Centre
#                                CCDC 
#
#######################################################################
#
# If this CIF has been generated from an entry in the Cambridge 
# Structural Database, then it will include bibliographic, chemical, 
# crystal, experimental, refinement or atomic coordinate data resulting 
# from the CCDC's data processing and validation procedures.
#
#######################################################################

data_AQEGUZ
_symmetry_cell_setting           monoclinic
_symmetry_space_group_name_H-M   'P 21/n'
_symmetry_Int_Tables_number      14
_space_group_name_Hall           '-P 2yn'
loop_
_symmetry_equiv_pos_site_id
_symmetry_equiv_pos_as_xyz
1 x,y,z
2 1/2-x,1/2+y,1/2-z
3 -x,-y,-z
4 1/2+x,1/2-y,1/2+z
_cell_length_a                   6.6443(13)
_cell_length_b                   15.648(3)
_cell_length_c                   12.499(3)
_cell_angle_alpha                90
_cell_angle_beta                 103.38(3)
_cell_angle_gamma                90
_cell_volume                     1264.25
loop_
_atom_site_label
_atom_site_type_symbol
_atom_site_fract_x
_atom_site_fract_y
_atom_site_fract_z
Pb1 Pb 0.70545(2) 0.483716(9) 0.405675(12)
C1 C 0.7844(6) 0.1047(2) 0.4868(3)
C2 C 0.7953(6) 0.2591(2) 0.4528(3)
C3 C 0.9174(6) 0.2697(2) 0.5635(3)
C4 C 0.9626(6) 0.1990(2) 0.6282(3)
H1 H 1.0430 0.2053 0.7002
C5 C 1.0088(6) 0.3527(2) 0.6081(3)
C6 C 0.3770(6) 0.6110(2) 0.1821(3)
C7 C 0.1795(5) 0.6977(2) 0.0269(3)
C8 C 0.2301(5) 0.7722(2) 0.0969(3)
C9 C 0.3417(5) 0.7608(2) 0.2013(3)
H2 H 0.3732 0.8091 0.2468
C10 C 0.1595(6) 0.8599(2) 0.0589(3)
N1 N 0.8954(5) 0.1196(2) 0.5921(3)
H3 H 0.9239 0.0768 0.6375
N2 N 0.7475(4) 0.17489(19) 0.4215(3)
H4 H 0.6875 0.1663 0.3527
N3 N 0.4104(5) 0.6835(2) 0.2435(3)
H5 H 0.4778 0.6802 0.3119
N4 N 0.2622(5) 0.6216(2) 0.0779(3)
H6 H 0.2370 0.5756 0.0380
O1 O 0.7247(5) 0.03331(17) 0.4542(2)
O2 O 0.7343(4) 0.31492(17) 0.3839(2)
O3 O 0.9951(4) 0.41617(16) 0.5420(2)
O4 O 1.1035(6) 0.35772(19) 0.7053(3)
O5 O 0.4460(4) 0.54040(17) 0.2172(2)
O6 O 0.0774(4) 0.69403(17) -0.0674(2)
O7 O 0.0525(4) 0.87095(17) -0.0382(2)
O8 O 0.2056(4) 0.92091(18) 0.1262(2)
O9 O 0.8885(4) 0.44904(18) 0.2577(2)
H7 H 1.0161 0.4443 0.2909
H8 H 0.8764 0.4825 0.2028
Pb1B Pb 1.29455(2) 0.516284(9) 0.594325(12)
Pb1C Pb 0.20545(2) 1.016284(9) -0.094325(12)
Pb1A Pb -0.20545(2) 0.983716(9) 0.094325(12)
O3B O 1.0049(4) 0.58383(16) 0.4580(2)
O7C O 0.5525(4) 0.62905(17) 0.4618(2)
O8A O 0.2944(4) 0.42091(18) 0.3738(2)
loop_
_geom_bond_atom_site_label_1
_geom_bond_atom_site_label_2
_geom_bond_site_symmetry_1
_geom_bond_site_symmetry_2
Pb1 O2 1_555 1_555
C1 N1 1_555 1_555
C2 C3 1_555 1_555
C3 C4 1_555 1_555
C4 H1 1_555 1_555
C5 C3 1_555 1_555
C6 N3 1_555 1_555
C7 C8 1_555 1_555
C8 C9 1_555 1_555
C9 H2 1_555 1_555
C10 C8 1_555 1_555
N1 C4 1_555 1_555
H3 N1 1_555 1_555
N2 C1 1_555 1_555
H4 N2 1_555 1_555
N3 C9 1_555 1_555
H5 N3 1_555 1_555
N4 C6 1_555 1_555
H6 N4 1_555 1_555
O1 C1 1_555 1_555
O2 C2 1_555 1_555
O3 Pb1 1_555 1_555
O4 C5 1_555 1_555
O5 Pb1 1_555 1_555
O6 C7 1_555 1_555
O7 C10 1_555 1_555
O8 C10 1_555 1_555
O9 Pb1 1_555 1_555
H7 O9 1_555 1_555
H8 O9 1_555 1_555
Pb1B O3 1_555 1_555
Pb1C O7 1_555 1_555
Pb1A O8 1_555 1_555
O3B Pb1 1_555 1_555
O7C Pb1 1_555 1_555
O8A Pb1 1_555 1_555
C2 N2 1_555 1_555
C5 O3 1_555 1_555
C6 O5 1_555 1_555
C7 N4 1_555 1_555
Pb1B O3B 1_555 1_555

#END
