
#######################################################################
#
#                 Cambridge Crystallographic Data Centre
#                                CCDC 
#
#######################################################################
#
# If this CIF has been generated from an entry in the Cambridge 
# Structural Database, then it will include bibliographic, chemical, 
# crystal, experimental, refinement or atomic coordinate data resulting 
# from the CCDC's data processing and validation procedures.
#
#######################################################################

data_AQEGOT
_symmetry_cell_setting           triclinic
_symmetry_space_group_name_H-M   'P -1'
_symmetry_Int_Tables_number      2
_space_group_name_Hall           '-P 1'
loop_
_symmetry_equiv_pos_site_id
_symmetry_equiv_pos_as_xyz
1 x,y,z
2 -x,-y,-z
_cell_length_a                   12.756(3)
_cell_length_b                   12.809(3)
_cell_length_c                   13.384(3)
_cell_angle_alpha                62.061(2)
_cell_angle_beta                 62.082(2)
_cell_angle_gamma                83.306(3)
_cell_volume                     1692.24
loop_
_atom_site_label
_atom_site_type_symbol
_atom_site_fract_x
_atom_site_fract_y
_atom_site_fract_z
Cu1 Cu 0.5000 1.0000 0.0000
C1 C 0.2765(6) 0.9855(6) 0.2272(6)
H1 H 0.3181 0.9808 0.2704
C2 C 0.2358(7) 0.9961(11) 0.0871(9)
H2 H 0.2441 0.9980 0.0134
C3 C 0.1330(7) 1.0034(11) 0.1784(8)
H3 H 0.0593 1.0134 0.1789
C4 C 0.0781(6) 0.9959(6) 0.3885(6)
C5 C 0.1162(6) 0.9800(7) 0.4738(6)
H4 H 0.1945 0.9661 0.4565
C6 C -0.0385(6) 1.0156(7) 0.4140(6)
H5 H -0.0646 1.0257 0.3561
C7 C 0.4862(6) 0.7754(6) 0.2250(6)
H6 H 0.4582 0.8111 0.2778
C8 C 0.5455(7) 0.7470(7) 0.0625(7)
H7 H 0.5650 0.7600 -0.0190
C9 C 0.5528(8) 0.6440(7) 0.1559(7)
H8 H 0.5794 0.5754 0.1500
C10 C 0.5068(6) 0.5795(6) 0.3819(6)
C11 C 0.5653(7) 0.4796(6) 0.3952(6)
H9 H 0.6083 0.4651 0.3254
C12 C 0.4405(7) 0.5981(6) 0.4881(6)
H10 H 0.3995 0.6642 0.4800
N1 N 0.3262(5) 0.9855(5) 0.1166(5)
N2 N 0.1592(5) 0.9932(5) 0.2710(5)
N3 N 0.5055(5) 0.8282(5) 0.1059(5)
N4 N 0.5127(5) 0.6618(5) 0.2609(5)
Cu1_2 Cu -0.5000 1.0000 1.0000
Cu1_3 Cu 0.5000 0.0000 1.0000
C1A C -0.2765(6) 1.0145(6) 0.7728(6)
H1A H -0.3181 1.0192 0.7296
C2A C -0.2358(7) 1.0039(11) 0.9129(9)
H2A H -0.2441 1.0020 0.9866
C3A C -0.1330(7) 0.9966(11) 0.8216(8)
H3A H -0.0593 0.9866 0.8211
C4A C -0.0781(6) 1.0041(6) 0.6115(6)
C5A C -0.1162(6) 1.0200(7) 0.5262(6)
H4A H -0.1945 1.0339 0.5435
C6A C 0.0385(6) 0.9844(7) 0.5860(6)
H5A H 0.0646 0.9743 0.6439
C7A C 0.5138(6) 0.2246(6) 0.7750(6)
H6A H 0.5418 0.1889 0.7222
C8A C 0.4545(7) 0.2530(7) 0.9375(7)
H7A H 0.4350 0.2400 1.0190
C9A C 0.4472(8) 0.3560(7) 0.8441(7)
H8A H 0.4206 0.4246 0.8500
C10A C 0.4932(6) 0.4205(6) 0.6181(6)
C11A C 0.4347(7) 0.5204(6) 0.6048(6)
H9A H 0.3917 0.5349 0.6746
C12A C 0.5595(7) 0.4019(6) 0.5119(6)
H10A H 0.6005 0.3358 0.5200
N1A N -0.3262(5) 1.0145(5) 0.8834(5)
N1A_2 N 0.6738(5) 1.0145(5) -0.1166(5)
N2A N -0.1592(5) 1.0068(5) 0.7290(5)
N3A N 0.4945(5) 0.1718(5) 0.8941(5)
N3A_2 N 0.4945(5) 1.1718(5) -0.1059(5)
N4A N 0.4873(5) 0.3382(5) 0.7391(5)
Cu2 Cu 0.09569(8) 0.63043(9) 0.88860(8)
C13 C 0.1073(7) 0.6281(7) 1.1031(7)
H11 H 0.0287 0.6439 1.1362
C14 C 0.2745(7) 0.5920(7) 0.9853(7)
H12 H 0.3336 0.5782 0.9198
C15 C 0.2868(7) 0.5932(7) 1.0793(7)
H13 H 0.3547 0.5807 1.0905
C16 C 0.1483(7) 0.6274(7) 1.2680(7)
C17 C 0.0641(8) 0.6976(9) 1.2984(8)
H14 H 0.0294 0.7382 1.2453
C18 C 0.0283(8) 0.7102(8) 1.4073(8)
H15 H -0.0284 0.7597 1.4269
C19 C 0.0807(6) 0.6457(6) 1.4862(6)
C20 C 0.1647(7) 0.5748(8) 1.4562(8)
H16 H 0.1993 0.5330 1.5091
C21 C 0.1991(8) 0.5646(8) 1.3456(8)
H17 H 0.2560 0.5157 1.3251
C22 C 0.1026(7) 0.6365(7) 1.6648(7)
H18 H 0.1783 0.6124 1.6418
C23 C -0.0655(7) 0.6910(7) 1.6631(7)
H19 H -0.1264 0.7119 1.6402
C24 C -0.0651(7) 0.6885(7) 1.7647(7)
H20 H -0.1271 0.7066 1.8250
N5 N 0.1624(5) 0.6142(6) 1.0010(6)
N6 N 0.1803(5) 0.6164(5) 1.1548(5)
N7 N 0.0414(5) 0.6550(6) 1.7656(5)
N8 N 0.0412(5) 0.6569(5) 1.5997(5)
O4 O 0.0626(5) 0.7996(5) 0.8657(5)
Cl1 Cl 0.14095(18) 0.44409(19) 0.90916(18)
Cu2_2 Cu 0.09569(8) 0.63043(9) -0.11140(8)
Cu2_3 Cu 0.09569(8) 0.63043(9) 1.88860(8)
C13_2 C 0.1073(7) 0.6281(7) 0.1031(7)
H11_2 H 0.0287 0.6439 0.1362
C14_2 C 0.2745(7) 0.5920(7) -0.0147(7)
H12_2 H 0.3336 0.5782 -0.0802
C15_2 C 0.2868(7) 0.5932(7) 0.0793(7)
H13_2 H 0.3547 0.5807 0.0905
C16_2 C 0.1483(7) 0.6274(7) 0.2680(7)
C17_2 C 0.0641(8) 0.6976(9) 0.2984(8)
H14_2 H 0.0294 0.7382 0.2453
C18_2 C 0.0283(8) 0.7102(8) 0.4073(8)
H15_2 H -0.0284 0.7597 0.4269
C19_2 C 0.0807(6) 0.6457(6) 0.4862(6)
C20_2 C 0.1647(7) 0.5748(8) 0.4562(8)
H16_2 H 0.1993 0.5330 0.5091
C21_2 C 0.1991(8) 0.5646(8) 0.3456(8)
H17_2 H 0.2560 0.5157 0.3251
C22_2 C 0.1026(7) 0.6365(7) 0.6648(7)
H18_2 H 0.1783 0.6124 0.6418
C23_2 C -0.0655(7) 0.6910(7) 0.6631(7)
H19_2 H -0.1264 0.7119 0.6402
C24_2 C -0.0651(7) 0.6885(7) 0.7647(7)
H20_2 H -0.1271 0.7066 0.8250
N5_2 N 0.1624(5) 0.6142(6) 0.0010(6)
N6_2 N 0.1803(5) 0.6164(5) 0.1548(5)
N7_2 N 0.0414(5) 0.6550(6) 0.7656(5)
N7_3 N 0.0414(5) 0.6550(6) -0.2344(5)
N8_2 N 0.0412(5) 0.6569(5) 0.5997(5)
O4_2 O 0.0626(5) 0.7996(5) -0.1343(5)
Cl1_2 Cl 0.14095(18) 0.44409(19) -0.09084(18)
Mo1 Mo 0.39430(5) 1.25046(5) 0.30726(5)
Mo2 Mo 0.57986(5) 1.13536(5) 0.43444(5)
Mo3 Mo 0.60306(5) 1.03439(5) 0.23668(5)
Mo4 Mo 0.27898(5) 1.18812(6) 0.60749(5)
O1 O 0.3359(5) 1.2162(5) 0.2342(5)
O2 O 0.5266(4) 1.1596(4) 0.2857(4)
O3 O 0.4398(5) 1.3992(5) 0.2182(5)
O5 O 0.4549(4) 1.2313(4) 0.4508(4)
O7 O 0.2567(4) 1.2164(6) 0.4603(5)
O8 O 0.1490(4) 1.0919(5) 0.7173(5)
O9 O 0.6407(4) 0.8763(4) 0.2890(4)
O10 O 0.2489(5) 1.3181(5) 0.6125(6)
O11 O 0.5828(4) 1.0823(4) 0.5797(4)
O12 O 0.7056(4) 1.2366(4) 0.3227(5)
O13 O 0.3862(4) 1.0010(4) 0.5909(4)
O14 O 0.5388(4) 1.0436(4) 0.1465(4)
O15 O 0.7429(4) 1.1113(4) 0.1284(5)
Mo1A Mo 0.60570(5) 0.74954(5) 0.69274(5)
Mo2A Mo 0.42014(5) 0.86464(5) 0.56556(5)
Mo3A Mo 0.39694(5) 0.96561(5) 0.76332(5)
Mo4A Mo 0.72102(5) 0.81188(6) 0.39251(5)
O1A O 0.6641(5) 0.7838(5) 0.7658(5)
O2A O 0.4734(4) 0.8404(4) 0.7143(4)
O3A O 0.5602(5) 0.6008(5) 0.7818(5)
O5A O 0.5451(4) 0.7687(4) 0.5492(4)
O7A O 0.7433(4) 0.7836(6) 0.5397(5)
O8A O 0.8510(4) 0.9081(5) 0.2827(5)
O9A O 0.3593(4) 1.1237(4) 0.7110(4)
O10A O 0.7511(5) 0.6819(5) 0.3875(6)
O11A O 0.4172(4) 0.9177(4) 0.4203(4)
O12A O 0.2944(4) 0.7634(4) 0.6773(5)
O13A O 0.6138(4) 0.9990(4) 0.4091(4)
O14A O 0.4612(4) 0.9564(4) 0.8535(4)
O15A O 0.2571(4) 0.8887(4) 0.8716(5)
O6 O -0.1017(11) 0.8129(11) 0.0847(12)
O16? O -0.019(3) 0.909(3) 0.031(3)
loop_
_geom_bond_atom_site_label_1
_geom_bond_atom_site_label_2
_geom_bond_site_symmetry_1
_geom_bond_site_symmetry_2
Cu1 N1 1_555 1_555
Cu2 N5 1_555 1_555
Mo1 O1 1_555 1_555
Mo2 O2 1_555 1_555
Mo3 O2 1_555 1_555
Mo4 O5 1_555 1_555
C1 H1 1_555 1_555
C2 H2 1_555 1_555
C3 C2 1_555 1_555
H3 C3 1_555 1_555
C4 C5 1_555 1_555
C5 H4 1_555 1_555
C6 C4 1_555 1_555
H5 C6 1_555 1_555
C7 H6 1_555 1_555
C8 H7 1_555 1_555
C9 C8 1_555 1_555
H8 C9 1_555 1_555
C10 C11 1_555 1_555
C11 H9 1_555 1_555
C12 C10 1_555 1_555
H10 C12 1_555 1_555
C13 H11 1_555 1_555
C14 H12 1_555 1_555
C15 C14 1_555 1_555
H13 C15 1_555 1_555
C16 C17 1_555 1_555
C17 H14 1_555 1_555
C18 C17 1_555 1_555
H15 C18 1_555 1_555
C19 C18 1_555 1_555
C20 C19 1_555 1_555
H16 C20 1_555 1_555
C21 C16 1_555 1_555
H17 C21 1_555 1_555
C22 H18 1_555 1_555
C23 H19 1_555 1_555
C24 C23 1_555 1_555
H20 C24 1_555 1_555
N1 C1 1_555 1_555
N2 C1 1_555 1_555
N3 Cu1 1_555 1_555
N4 C7 1_555 1_555
N5 C13 1_555 1_555
N6 C13 1_555 1_555
N7 C22 1_555 1_555
N8 C19 1_555 1_555
O2 Mo1 1_555 1_555
O3 Mo1 1_555 1_555
O4 Cu2 1_555 1_555
O5 Mo1 1_555 1_555
O7 Mo1 1_555 1_555
O8 Mo4 1_555 1_555
O9 Mo3 1_555 1_555
O10 Mo4 1_555 1_555
O11 Mo2 1_555 1_555
O12 Mo2 1_555 1_555
O13 Mo2 1_555 1_555
O14 Mo3 1_555 1_555
O15 Mo3 1_555 1_555
Cl1 Cu2 1_555 1_555
Cu1_2 N1A 1_555 1_555
Cu1_3 N3A 1_555 1_555
Cu2_2 N5_2 1_555 1_555
Cu2_3 N7 1_555 1_555
Mo1A O1A 1_555 1_555
Mo2A O13 1_555 1_555
Mo3A O11 1_555 1_555
Mo4A O9 1_555 1_555
C1A H1A 1_555 1_555
C2A H2A 1_555 1_555
C3A C2A 1_555 1_555
H3A C3A 1_555 1_555
C4A C5A 1_555 1_555
C5A C6 1_555 1_555
H4A C5A 1_555 1_555
C6A C5 1_555 1_555
H5A C6A 1_555 1_555
C7A H6A 1_555 1_555
C8A H7A 1_555 1_555
C9A C8A 1_555 1_555
H8A C9A 1_555 1_555
C10A C11A 1_555 1_555
C11A C12 1_555 1_555
H9A C11A 1_555 1_555
C12A C11 1_555 1_555
H10A C12A 1_555 1_555
C13_2 H11_2 1_555 1_555
C14_2 H12_2 1_555 1_555
C15_2 C14_2 1_555 1_555
H13_2 C15_2 1_555 1_555
C16_2 C17_2 1_555 1_555
C17_2 H14_2 1_555 1_555
C18_2 C17_2 1_555 1_555
H15_2 C18_2 1_555 1_555
C19_2 C18_2 1_555 1_555
C20_2 C19_2 1_555 1_555
H16_2 C20_2 1_555 1_555
C21_2 C16_2 1_555 1_555
H17_2 C21_2 1_555 1_555
C22_2 H18_2 1_555 1_555
C23_2 H19_2 1_555 1_555
C24_2 C23_2 1_555 1_555
H20_2 C24_2 1_555 1_555
N1A C1A 1_555 1_555
N1A_2 Cu1 1_555 1_555
N2A C1A 1_555 1_555
N3A C7A 1_555 1_555
N3A_2 Cu1 1_555 1_555
N4A C7A 1_555 1_555
N5_2 C13_2 1_555 1_555
N6_2 C13_2 1_555 1_555
N7_2 Cu2 1_555 1_555
N7_3 Cu2_2 1_555 1_555
N8_2 C19_2 1_555 1_555
O2A Mo1A 1_555 1_555
O3A Mo1A 1_555 1_555
O4_2 Cu2_2 1_555 1_555
O5A Mo1A 1_555 1_555
O7A Mo1A 1_555 1_555
O8A Mo4A 1_555 1_555
O9A Mo4 1_555 1_555
O10A Mo4A 1_555 1_555
O11A Mo3 1_555 1_555
O12A Mo2A 1_555 1_555
O13A Mo2 1_555 1_555
O14A Mo3A 1_555 1_555
O15A Mo3A 1_555 1_555
Cl1_2 Cu2_2 1_555 1_555
Mo2 O5 1_555 1_555
Mo3 O13A 1_555 1_555
Mo4 O7 1_555 1_555
C2 N1 1_555 1_555
C3 N2 1_555 1_555
C4 N2 1_555 1_555
C7 N3 1_555 1_555
C8 N3 1_555 1_555
C9 N4 1_555 1_555
C10 N4 1_555 1_555
C14 N5 1_555 1_555
C15 N6 1_555 1_555
C16 N6 1_555 1_555
C20 C21 1_555 1_555
C22 N8 1_555 1_555
C23 N8 1_555 1_555
C24 N7 1_555 1_555
O13 Mo3A 1_555 1_555
Mo2A O2A 1_555 1_555
Mo2A O5A 1_555 1_555
Mo2A O11A 1_555 1_555
Mo2A O13A 1_555 1_555
Mo3A O2A 1_555 1_555
Mo3A O9A 1_555 1_555
Mo4A O5A 1_555 1_555
Mo4A O7A 1_555 1_555
C2A N1A 1_555 1_555
C3A N2A 1_555 1_555
C4A C6A 1_555 1_555
C4A N2A 1_555 1_555
C8A N3A 1_555 1_555
C9A N4A 1_555 1_555
C10A C12A 1_555 1_555
C10A N4A 1_555 1_555
C14_2 N5_2 1_555 1_555
C15_2 N6_2 1_555 1_555
C16_2 N6_2 1_555 1_555
C20_2 C21_2 1_555 1_555
C22_2 N7_2 1_555 1_555
C22_2 N8_2 1_555 1_555
C23_2 N8_2 1_555 1_555
C24_2 N7_2 1_555 1_555

#END
