
#######################################################################
#
#                 Cambridge Crystallographic Data Centre
#                                CCDC 
#
#######################################################################
#
# If this CIF has been generated from an entry in the Cambridge 
# Structural Database, then it will include bibliographic, chemical, 
# crystal, experimental, refinement or atomic coordinate data resulting 
# from the CCDC's data processing and validation procedures.
#
#######################################################################

data_AQEGAF
_symmetry_cell_setting           triclinic
_symmetry_space_group_name_H-M   'P -1'
_symmetry_Int_Tables_number      2
_space_group_name_Hall           '-P 1'
loop_
_symmetry_equiv_pos_site_id
_symmetry_equiv_pos_as_xyz
1 x,y,z
2 -x,-y,-z
_cell_length_a                   11.8100(4)
_cell_length_b                   12.3770(5)
_cell_length_c                   12.5110(5)
_cell_angle_alpha                61.757(4)
_cell_angle_beta                 71.809(4)
_cell_angle_gamma                70.56
_cell_volume                     1492.63
loop_
_atom_site_label
_atom_site_type_symbol
_atom_site_fract_x
_atom_site_fract_y
_atom_site_fract_z
Cu1 Cu 0.2547(5) 0.6104(6) 0.8616(6)
Cu2 Cu 0.0000 1.0000 0.0000
Cu3 Cu 0.4222(5) 0.9719(5) 0.2636(5)
N1 N 0.401(3) 0.872(3) 0.450(3)
N2 N 0.316(3) 0.717(4) 0.693(4)
N3 N 0.296(4) 1.007(3) 0.175(4)
N4 N 0.394(4) 0.543(4) 0.951(4)
N5 N 0.119(3) 1.007(4) 0.066(4)
O1 O 0.530(3) 1.105(3) 0.193(3)
O2 O 0.555(3) 0.840(3) 0.190(3)
N6 N 0.104(3) 0.548(3) 0.948(3)
C1 C 0.236(6) 0.977(6) 0.016(6)
H1 H 0.2592 0.9584 -0.0524
C2 C 0.088(4) 1.028(4) 0.169(4)
H2 H 0.0057 1.0442 0.2050
C3 C 0.327(5) 0.975(4) 0.074(4)
H3 H 0.4088 0.9515 0.0424
C4 C 0.259(4) 0.846(4) 0.639(4)
H4 H 0.1919 0.8817 0.6838
C5 C 0.410(4) 0.611(4) 1.002(4)
H5 H 0.3571 0.6866 0.9982
C6 C 0.304(4) 0.920(4) 0.516(4)
H6 H 0.2658 1.0044 0.4808
C7 C 0.486(3) 0.441(3) 0.939(3)
H7 H 0.4801 0.4061 0.8904
C8 C 0.408(4) 0.675(4) 0.619(4)
H8 H 0.4482 0.5912 0.6501
C9 C 0.106(3) 0.431(3) 1.032(3)
H9 H 0.1808 0.3801 1.0548
C10 C -0.004(3) 0.619(3) 0.913(3)
H10 H -0.0087 0.7005 0.8525
C11 C 0.449(4) 0.751(4) 0.496(4)
H11 H 0.5106 0.7154 0.4468
C12 C 0.174(5) 1.026(5) 0.222(5)
H12 H 0.1475 1.0380 0.2941
Cu1A Cu -0.2547(5) 1.3896(6) -0.8616(6)
Cu1A_2 Cu 0.7453(5) 0.3896(6) 1.1384(6)
Cu1A_3 Cu -0.2547(5) 0.3896(6) 1.1384(6)
Cu3A Cu -0.4222(5) 1.0281(5) -0.2636(5)
N1A N -0.401(3) 1.128(3) -0.450(3)
N2A N -0.316(3) 1.283(4) -0.693(4)
N3A N -0.296(4) 0.993(3) -0.175(4)
N4A N 0.606(4) 0.457(4) 1.049(4)
N4A_2 N -0.394(4) 1.457(4) -0.951(4)
N5A N -0.119(3) 0.993(4) -0.066(4)
O1A O -0.530(3) 0.895(3) -0.193(3)
O2A O -0.555(3) 1.160(3) -0.190(3)
N6A N -0.104(3) 0.452(3) 1.052(3)
N6A_2 N -0.104(3) 1.452(3) -0.948(3)
C1A C -0.236(6) 1.023(6) -0.016(6)
H1A H -0.2592 1.0416 0.0524
C2A C -0.088(4) 0.972(4) -0.169(4)
H2A H -0.0057 0.9558 -0.2050
C3A C -0.327(5) 1.025(4) -0.074(4)
H3A H -0.4088 1.0485 -0.0424
C4A C -0.259(4) 1.154(4) -0.639(4)
H4A H -0.1919 1.1183 -0.6838
C5A C 0.590(4) 0.389(4) 0.998(4)
H5A H 0.6429 0.3134 1.0018
C6A C -0.304(4) 1.080(4) -0.516(4)
H6A H -0.2658 0.9956 -0.4808
C7A C 0.514(3) 0.559(3) 1.061(3)
H7A H 0.5199 0.5939 1.1096
C8A C -0.408(4) 1.325(4) -0.619(4)
H8A H -0.4482 1.4088 -0.6501
C9A C -0.106(3) 0.569(3) 0.968(3)
H9A H -0.1808 0.6199 0.9452
C10A C 0.004(3) 0.381(3) 1.087(3)
H10A H 0.0087 0.2995 1.1475
C11A C -0.449(4) 1.249(4) -0.496(4)
H11A H -0.5106 1.2846 -0.4468
C12A C -0.174(5) 0.974(5) -0.222(5)
H12A H -0.1475 0.9620 -0.2941
W1 W 0.07143(14) 0.66520(13) 0.18121(13)
W2 W 0.26326(12) 0.62075(13) 0.36809(14)
W3 W 0.01865(14) 0.74925(13) 0.54716(14)
W4 W -0.19486(13) 0.54993(13) 0.31392(14)
W5 W 0.24721(13) 0.36688(14) 0.32632(14)
W6 W -0.17123(13) 0.80072(12) 0.35635(14)
O3 O 0.319(4) 0.469(3) 0.343(3)
O4 O 0.171(3) 0.511(3) 0.200(3)
O5 O -0.073(4) 0.619(4) 0.514(4)
O6 O -0.048(4) 0.589(4) 0.389(4)
O7 O -0.126(4) 0.705(4) 0.654(4)
O8 O -0.103(3) 0.471(3) 0.615(3)
O9 O -0.248(3) 0.707(3) 0.324(4)
O10 O 0.266(4) 0.260(4) 0.486(4)
O11 O -0.063(3) 0.831(3) 0.414(3)
O12 O 0.366(3) 0.301(3) 0.239(2)
O13 O 0.113(3) 0.753(3) 0.023(3)
O14 O 0.111(4) 0.617(4) 0.663(3)
O15 O 0.286(4) 0.517(4) 0.528(4)
O16 O -0.050(4) 0.601(3) 0.201(4)
O17 O -0.041(3) 0.794(3) 0.222(3)
O18 O 0.159(3) 0.739(3) 0.422(3)
O19 O 0.085(4) 0.549(4) 0.522(4)
O20 O 0.185(4) 0.697(4) 0.235(4)
O21 O -0.288(3) 0.579(3) 0.223(3)
O22 O -0.258(3) 0.947(3) 0.288(3)
O23 O 0.390(3) 0.672(3) 0.303(3)
O24 O 0.027(2) 0.867(2) 0.578(2)
W1A W -0.07143(14) 0.33480(13) 0.81879(13)
W2A W -0.26326(12) 0.37925(13) 0.63191(14)
W3A W -0.01865(14) 0.25075(13) 0.45284(14)
W4A W 0.19486(13) 0.45007(13) 0.68608(14)
W5A W -0.24721(13) 0.63312(14) 0.67368(14)
W6A W 0.17123(13) 0.19928(12) 0.64365(14)
O3A O -0.319(4) 0.531(3) 0.657(3)
O4A O -0.171(3) 0.489(3) 0.800(3)
O5A O 0.073(4) 0.381(4) 0.486(4)
O6A O 0.048(4) 0.411(4) 0.611(4)
O7A O 0.126(4) 0.295(4) 0.346(4)
O8A O 0.103(3) 0.529(3) 0.385(3)
O9A O 0.248(3) 0.293(3) 0.676(4)
O10A O -0.266(4) 0.740(4) 0.514(4)
O11A O 0.063(3) 0.169(3) 0.586(3)
O12A O -0.366(3) 0.699(3) 0.761(2)
O13A O -0.113(3) 0.247(3) 0.977(3)
O14A O -0.111(4) 0.383(4) 0.337(3)
O15A O -0.286(4) 0.483(4) 0.472(4)
O16A O 0.050(4) 0.399(3) 0.799(4)
O17A O 0.041(3) 0.206(3) 0.778(3)
O18A O -0.159(3) 0.261(3) 0.578(3)
O19A O -0.085(4) 0.451(4) 0.478(4)
O20A O -0.185(4) 0.303(4) 0.765(4)
O21A O 0.288(3) 0.421(3) 0.777(3)
O22A O 0.258(3) 0.053(3) 0.712(3)
O23A O -0.390(3) 0.328(3) 0.697(3)
O24A O -0.027(2) 0.133(2) 0.422(2)
loop_
_geom_bond_atom_site_label_1
_geom_bond_atom_site_label_2
_geom_bond_site_symmetry_1
_geom_bond_site_symmetry_2
W1 O4 1_555 1_555
W2 O3 1_555 1_555
W3 O5 1_555 1_555
W4 O6 1_555 1_555
W5 O3 1_555 1_555
W6 O5 1_555 1_555
Cu1 N2 1_555 1_555
Cu2 N5 1_555 1_555
Cu3 N1 1_555 1_555
N1 C6 1_555 1_555
N2 C4 1_555 1_555
N3 Cu3 1_555 1_555
N4 Cu1 1_555 1_555
N5 C1 1_555 1_555
O1 Cu3 1_555 1_555
O2 Cu3 1_555 1_555
N6 Cu1 1_555 1_555
O4 W5 1_555 1_555
O5 O6 1_555 1_555
O6 W1 1_555 1_555
O7 W3 1_555 1_555
O8 O5 1_555 1_555
O9 W4 1_555 1_555
O10 W5 1_555 1_555
O11 W3 1_555 1_555
O12 W5 1_555 1_555
O13 W1 1_555 1_555
O14 W3 1_555 1_555
O15 W2 1_555 1_555
O16 W1 1_555 1_555
O17 W1 1_555 1_555
O18 W2 1_555 1_555
O19 W2 1_555 1_555
O20 W1 1_555 1_555
O21 W4 1_555 1_555
O22 W6 1_555 1_555
O23 W2 1_555 1_555
O24 W3 1_555 1_555
C1 H1 1_555 1_555
C2 N5 1_555 1_555
H2 C2 1_555 1_555
C3 N3 1_555 1_555
H3 C3 1_555 1_555
C4 H4 1_555 1_555
C5 N4 1_555 1_555
H5 C5 1_555 1_555
C6 C4 1_555 1_555
H6 C6 1_555 1_555
C7 N4 1_555 1_555
H7 C7 1_555 1_555
C8 N2 1_555 1_555
H8 C8 1_555 1_555
C9 N6 1_555 1_555
H9 C9 1_555 1_555
C10 N6 1_555 1_555
H10 C10 1_555 1_555
C11 N1 1_555 1_555
H11 C11 1_555 1_555
C12 N3 1_555 1_555
H12 C12 1_555 1_555
W1A O8 1_555 1_555
W2A O8 1_555 1_555
W3A O5A 1_555 1_555
W4A O14 1_555 1_555
W5A O5 1_555 1_555
W6A O10 1_555 1_555
Cu1A N2A 1_555 1_555
Cu1A_2 N4A 1_555 1_555
Cu1A_3 N6A 1_555 1_555
Cu3A N1A 1_555 1_555
N1A C6A 1_555 1_555
N2A C4A 1_555 1_555
N3A Cu3A 1_555 1_555
N4A C5A 1_555 1_555
N4A_2 Cu1A 1_555 1_555
N5A Cu2 1_555 1_555
O1A Cu3A 1_555 1_555
O2A Cu3A 1_555 1_555
N6A C9A 1_555 1_555
N6A_2 Cu1A 1_555 1_555
O3A W2A 1_555 1_555
O4A W1A 1_555 1_555
O5A W5 1_555 1_555
O6A O8 1_555 1_555
O7A W5 1_555 1_555
O8A W1 1_555 1_555
O9A W4A 1_555 1_555
O10A W6 1_555 1_555
O11A W3A 1_555 1_555
O12A W5A 1_555 1_555
O13A W1A 1_555 1_555
O14A W4 1_555 1_555
O15A W4 1_555 1_555
O16A W1A 1_555 1_555
O17A W1A 1_555 1_555
O18A W2A 1_555 1_555
O19A W4 1_555 1_555
O20A W1A 1_555 1_555
O21A W4A 1_555 1_555
O22A W6A 1_555 1_555
O23A W2A 1_555 1_555
O24A W3A 1_555 1_555
C1A N5A 1_555 1_555
H1A C1A 1_555 1_555
C2A N5A 1_555 1_555
H2A C2A 1_555 1_555
C3A N3A 1_555 1_555
H3A C3A 1_555 1_555
C4A H4A 1_555 1_555
C5A C7 1_555 1_555
H5A C5A 1_555 1_555
C6A C4A 1_555 1_555
H6A C6A 1_555 1_555
C7A C5 1_555 1_555
H7A C7A 1_555 1_555
C8A N2A 1_555 1_555
H8A C8A 1_555 1_555
C9A C10 1_555 1_555
H9A C9A 1_555 1_555
C10A C9 1_555 1_555
H10A C10A 1_555 1_555
C11A N1A 1_555 1_555
H11A C11A 1_555 1_555
C12A N3A 1_555 1_555
H12A C12A 1_555 1_555
W2 O20 1_555 1_555
W2 O8A 1_555 1_555
W3 O18 1_555 1_555
W3 O19 1_555 1_555
W4 O16 1_555 1_555
W5 O8A 1_555 1_555
W6 O6 1_555 1_555
W6 O9 1_555 1_555
W6 O11 1_555 1_555
W6 O17 1_555 1_555
O5 O19 1_555 1_555
O6 O8A 1_555 1_555
O6 O19A 1_555 1_555
O7 W5A 1_555 1_555
O8 W5A 1_555 1_555
O8 O19A 1_555 1_555
O15 W4A 1_555 1_555
O19 W4A 1_555 1_555
O19 O6A 1_555 1_555
O19 O8A 1_555 1_555
C1 C3 1_555 1_555
C2 C12 1_555 1_555
C8 C11 1_555 1_555
W1A O6A 1_555 1_555
W2A O15A 1_555 1_555
W2A O19A 1_555 1_555
W2A O20A 1_555 1_555
W3A O7A 1_555 1_555
W3A O14A 1_555 1_555
W3A O18A 1_555 1_555
W3A O19A 1_555 1_555
W4A O6A 1_555 1_555
W4A O16A 1_555 1_555
W5A O3A 1_555 1_555
W5A O4A 1_555 1_555
W5A O10A 1_555 1_555
W6A O5A 1_555 1_555
W6A O6A 1_555 1_555
W6A O9A 1_555 1_555
W6A O11A 1_555 1_555
W6A O17A 1_555 1_555
N4A C7A 1_555 1_555
N6A C10A 1_555 1_555
O5A O6A 1_555 1_555
O5A O8A 1_555 1_555
O5A O19A 1_555 1_555
C1A C3A 1_555 1_555
C2A C12A 1_555 1_555
C8A C11A 1_555 1_555

#END
