
#######################################################################
#
#                 Cambridge Crystallographic Data Centre
#                                CCDC 
#
#######################################################################
#
# If this CIF has been generated from an entry in the Cambridge 
# Structural Database, then it will include bibliographic, chemical, 
# crystal, experimental, refinement or atomic coordinate data resulting 
# from the CCDC's data processing and validation procedures.
#
#######################################################################

data_AQEGEJ
_symmetry_cell_setting           triclinic
_symmetry_space_group_name_H-M   'P -1'
_symmetry_Int_Tables_number      2
_space_group_name_Hall           '-P 1'
loop_
_symmetry_equiv_pos_site_id
_symmetry_equiv_pos_as_xyz
1 x,y,z
2 -x,-y,-z
_cell_length_a                   11.6690(11)
_cell_length_b                   12.5050(12)
_cell_length_c                   13.4300(13)
_cell_angle_alpha                88.8020(14)
_cell_angle_beta                 77.4430(12)
_cell_angle_gamma                65.8150(12)
_cell_volume                     1739.83
loop_
_atom_site_label
_atom_site_type_symbol
_atom_site_fract_x
_atom_site_fract_y
_atom_site_fract_z
C1 C 0.0465(7) 0.2468(7) -0.0430(5)
H1 H 0.1017 0.2673 -0.0925
C2 C -0.0520(9) 0.2155(9) 0.1002(6)
H2 H -0.0786 0.2112 0.1701
C3 C -0.1073(8) 0.1975(9) 0.0304(6)
H3 H -0.1752 0.1746 0.0413
C4 C -0.0729(6) 0.2114(7) -0.1600(5)
C5 C -0.0419(8) 0.2734(8) -0.2373(6)
H4 H -0.0049 0.3242 -0.2266
C6 C -0.0655(9) 0.2608(9) -0.3324(6)
H5 H -0.0465 0.3044 -0.3854
C7 C -0.1179(7) 0.1825(7) -0.3474(5)
C8 C -0.1446(8) 0.1175(8) -0.2690(6)
H6 H -0.1788 0.0645 -0.2798
C9 C -0.1211(7) 0.1301(8) -0.1752(6)
H7 H -0.1372 0.0848 -0.1228
C10 C -0.0592(7) 0.1523(8) -0.5390(5)
H8 H 0.0214 0.1545 -0.5539
C11 C -0.1246(7) 0.1368(7) -0.6068(5)
H9 H -0.0955 0.1287 -0.6776
C12 C -0.2484(7) 0.1563(7) -0.4580(5)
H10 H -0.3192 0.1648 -0.4059
C13 C -0.6439(6) 0.3039(6) -0.5596(5)
H11 H -0.6451 0.3115 -0.6285
C14 C -0.5800(7) 0.2513(7) -0.4210(5)
H12 H -0.5271 0.2148 -0.3765
C15 C -0.7072(7) 0.3262(7) -0.3923(5)
H13 H -0.7568 0.3498 -0.3258
C16 C -0.8763(6) 0.4325(7) -0.4910(5)
C17 C -0.9200(7) 0.4054(7) -0.5707(6)
H14 H -0.8665 0.3413 -0.6172
C18 C -0.9558(7) 0.5251(7) -0.4195(6)
H15 H -0.9262 0.5409 -0.3650
C19 C -0.4178(7) 0.2864(7) -0.7982(5)
H16 H -0.4409 0.2378 -0.8333
C20 C -0.3529(8) 0.3544(7) -0.6874(6)
H17 H -0.3224 0.3603 -0.6302
C21 C -0.3778(9) 0.4341(8) -0.7577(6)
H18 H -0.3685 0.5045 -0.7581
C22 C -0.4608(8) 0.4464(6) -0.9170(5)
C23 C -0.3827(8) 0.4873(7) -0.9833(6)
H19 H -0.3033 0.4775 -0.9718
C24 C -0.5771(8) 0.4579(7) -0.9342(6)
H20 H -0.6280 0.4282 -0.8896
N1 N 0.0498(6) 0.2413(6) 0.0557(4)
N2 N -0.0452(5) 0.2192(5) -0.0613(4)
N3 N -0.1383(6) 0.1640(6) -0.4447(4)
N4 N -0.2378(5) 0.1350(5) -0.5562(4)
N5 N -0.3799(6) 0.2626(5) -0.7136(4)
N6 N -0.4198(6) 0.3900(6) -0.8291(5)
N7 N -0.5418(5) 0.2378(5) -0.5263(4)
N8 N -0.7475(5) 0.3600(5) -0.4818(4)
O1 O -0.4974(4) 0.0872(4) -0.7021(3)
O2 O -0.7417(4) 0.1046(4) -0.6369(3)
O4 O -0.4888(4) 0.0097(4) -0.9029(3)
O5 O -0.3631(5) -0.0247(5) -0.5430(4)
O6 O -0.5638(4) -0.0913(4) -0.7539(3)
O7 O -0.2250(5) 0.0046(5) -0.7435(4)
O8 O -0.5670(4) -0.1509(4) -0.9481(3)
O9 O -0.3034(4) -0.1650(4) -0.7935(3)
O10 O -0.3123(4) -0.1754(4) -0.9953(3)
O11 O -0.3894(5) -0.3184(4) -0.8487(4)
O12 O -0.2443(4) 0.0164(4) -0.9578(3)
O13 O -0.7409(4) 0.0712(4) -0.8527(3)
O14 O -0.9385(4) 0.2905(5) -0.7613(3)
O15 O -0.8386(5) 0.4000(5) -0.9081(4)
O16 O -0.6752(4) 0.2294(4) -0.8007(3)
Ni1 Ni -0.37341(8) 0.12443(8) -0.62734(6)
Mo1 Mo -0.62059(5) 0.07531(5) -0.74542(4)
Mo2 Mo -0.40866(5) -0.17711(5) -0.85946(4)
Mo3 Mo -0.35523(5) 0.00856(5) -1.01808(4)
Mo4 Mo -0.81432(5) 0.26551(5) -0.86536(4)
C1A C -1.0465(7) 0.7532(7) -1.9570(5)
H1A H -1.1017 0.7327 -1.9075
C2A C -0.9480(9) 0.7845(9) -2.1002(6)
H2A H -0.9214 0.7888 -2.1701
C3A C -0.8927(8) 0.8025(9) -2.0304(6)
H3A H -0.8248 0.8254 -2.0413
C4A C -0.9271(6) 0.7886(7) -1.8400(5)
C5A C -0.9581(8) 0.7266(8) -1.7627(6)
H4A H -0.9951 0.6758 -1.7734
C6A C -0.9345(9) 0.7392(9) -1.6676(6)
H5A H -0.9535 0.6956 -1.6146
C7A C -0.8821(7) 0.8175(7) -1.6526(5)
C8A C -0.8554(8) 0.8825(8) -1.7310(6)
H6A H -0.8212 0.9355 -1.7202
C9A C -0.8789(7) 0.8699(8) -1.8248(6)
H7A H -0.8628 0.9152 -1.8772
C10A C -0.9408(7) 0.8477(8) -1.4610(5)
H8A H -1.0214 0.8455 -1.4461
C11A C -0.8754(7) 0.8632(7) -1.3932(5)
H9A H -0.9045 0.8713 -1.3224
C12A C -0.7516(7) 0.8437(7) -1.5420(5)
H10A H -0.6808 0.8352 -1.5941
C13A C -1.3561(6) 0.6961(6) -0.4404(5)
H11A H -1.3549 0.6885 -0.3715
C14A C -1.4200(7) 0.7487(7) -0.5790(5)
H12A H -1.4729 0.7852 -0.6235
C15A C -1.2928(7) 0.6738(7) -0.6077(5)
H13A H -1.2432 0.6502 -0.6742
C16A C -1.1237(6) 0.5675(7) -0.5090(5)
C17A C -1.0800(7) 0.5946(7) -0.4293(6)
H14A H -1.1335 0.6587 -0.3828
C18A C -1.0442(7) 0.4749(7) -0.5805(6)
H15A H -1.0738 0.4591 -0.6350
C19A C -0.5822(7) 0.7136(7) -1.2018(5)
H16A H -0.5591 0.7622 -1.1667
C20A C -0.6471(8) 0.6456(7) -1.3126(6)
H17A H -0.6776 0.6397 -1.3698
C21A C -0.6222(9) 0.5659(8) -1.2423(6)
H18A H -0.6315 0.4955 -1.2419
C22A C -0.5392(8) 0.5536(6) -1.0830(5)
C23A C -0.6173(8) 0.5127(7) -1.0167(6)
H19A H -0.6967 0.5225 -1.0282
C24A C -0.4229(8) 0.5421(7) -1.0658(6)
H20A H -0.3720 0.5718 -1.1104
N1A N -1.0498(6) 0.7587(6) -2.0557(4)
N1_2 N -0.9502(6) 0.2413(6) -0.9443(4)
N1A_2 N -0.0498(6) -0.2413(6) -1.0557(4)
N2A N -0.9548(5) 0.7808(5) -1.9387(4)
N3A N -0.8617(6) 0.8360(6) -1.5553(4)
N4A N -0.7622(5) 0.8650(5) -1.4438(4)
N5A N -0.6201(6) 0.7374(5) -1.2864(4)
N6A N -0.5802(6) 0.6100(6) -1.1709(5)
N7A N -1.4582(5) 0.7622(5) -0.4737(4)
N7A_2 N -0.4582(5) 0.7622(5) -1.4737(4)
N8A N -1.2525(5) 0.6400(5) -0.5182(4)
O1A O -0.5026(4) 0.9128(4) -1.2979(3)
O1A_2 O -0.5026(4) -0.0872(4) -1.2979(3)
O2A O -0.2583(4) -0.1046(4) -1.3631(3)
O4A O -0.5112(4) -0.0097(4) -1.0971(3)
O5A O -0.6369(5) 1.0247(5) -1.4570(4)
O6A O -0.4362(4) 0.0913(4) -1.2461(3)
O7A O -0.7750(5) 0.9954(5) -1.2565(4)
O8A O -0.4330(4) 0.1509(4) -1.0519(3)
O9A O -0.6966(4) 0.1650(4) -1.2065(3)
O10A O -0.6877(4) 0.1754(4) -1.0047(3)
O11A O -0.6106(5) 0.3184(4) -1.1513(4)
O12A O -0.7557(4) -0.0164(4) -1.0422(3)
O13A O -0.2591(4) -0.0712(4) -1.1473(3)
O14A O -0.0615(4) -0.2905(5) -1.2387(3)
O15A O -0.1614(5) -0.4000(5) -1.0919(4)
O16A O -0.3248(4) -0.2294(4) -1.1993(3)
Ni1A Ni -0.62659(8) 0.87557(8) -1.37266(6)
Ni1A_2 Ni -1.62659(8) 0.87557(8) -0.37266(6)
Ni1A_3 Ni -0.62659(8) -0.12443(8) -1.37266(6)
Mo1A Mo -0.37941(5) -0.07531(5) -1.25458(4)
Mo2A Mo -0.59134(5) 0.17711(5) -1.14054(4)
Mo3A Mo -0.64477(5) -0.00856(5) -0.98192(4)
Mo4A Mo -1.18568(5) 0.73449(5) -2.13464(4)
Mo4_2 Mo 0.18568(5) 0.26551(5) 0.13464(4)
Mo4A_2 Mo -0.18568(5) -0.26551(5) -1.13464(4)
O3 O 0.1164(7) 0.4496(7) -0.1627(6)
loop_
_geom_bond_atom_site_label_1
_geom_bond_atom_site_label_2
_geom_bond_site_symmetry_1
_geom_bond_site_symmetry_2
C1 H1 1_555 1_555
C2 H2 1_555 1_555
C3 C2 1_555 1_555
H3 C3 1_555 1_555
C4 C5 1_555 1_555
C5 H4 1_555 1_555
C6 C5 1_555 1_555
H5 C6 1_555 1_555
C7 C6 1_555 1_555
C8 C7 1_555 1_555
H6 C8 1_555 1_555
C9 C4 1_555 1_555
H7 C9 1_555 1_555
C10 H8 1_555 1_555
C11 C10 1_555 1_555
H9 C11 1_555 1_555
C12 H10 1_555 1_555
C13 H11 1_555 1_555
C14 H12 1_555 1_555
C15 C14 1_555 1_555
H13 C15 1_555 1_555
C16 C17 1_555 1_555
C17 H14 1_555 1_555
C18 C16 1_555 1_555
H15 C18 1_555 1_555
C19 H16 1_555 1_555
C20 H17 1_555 1_555
C21 C20 1_555 1_555
H18 C21 1_555 1_555
C22 C23 1_555 1_555
C23 H19 1_555 1_555
C24 C22 1_555 1_555
H20 C24 1_555 1_555
N1 C1 1_555 1_555
N2 C1 1_555 1_555
N3 C7 1_555 1_555
N4 C11 1_555 1_555
N5 C19 1_555 1_555
N6 C19 1_555 1_555
N7 C13 1_555 1_555
N8 C13 1_555 1_555
O1 Ni1 1_555 1_555
O2 Mo1 1_555 1_555
O4 Mo1 1_555 1_555
O5 Ni1 1_555 1_555
O6 Mo1 1_555 1_555
O7 Ni1 1_555 1_555
O8 Mo2 1_555 1_555
O9 Mo2 1_555 1_555
O10 Mo2 1_555 1_555
O11 Mo2 1_555 1_555
O12 Mo3 1_555 1_555
O13 Mo1 1_555 1_555
O14 Mo4 1_555 1_555
O15 Mo4 1_555 1_555
O16 Mo1 1_555 1_555
Ni1 N4 1_555 1_555
Mo1 O1 1_555 1_555
Mo2 O4 1_555 1_555
Mo3 O4 1_555 1_555
Mo4 O13 1_555 1_555
C1A H1A 1_555 1_555
C2A H2A 1_555 1_555
C3A C2A 1_555 1_555
H3A C3A 1_555 1_555
C4A C5A 1_555 1_555
C5A H4A 1_555 1_555
C6A C5A 1_555 1_555
H5A C6A 1_555 1_555
C7A C6A 1_555 1_555
C8A C7A 1_555 1_555
H6A C8A 1_555 1_555
C9A C4A 1_555 1_555
H7A C9A 1_555 1_555
C10A H8A 1_555 1_555
C11A C10A 1_555 1_555
H9A C11A 1_555 1_555
C12A H10A 1_555 1_555
C13A H11A 1_555 1_555
C14A H12A 1_555 1_555
C15A C14A 1_555 1_555
H13A C15A 1_555 1_555
C16A C17A 1_555 1_555
C17A C18 1_555 1_555
H14A C17A 1_555 1_555
C18A C17 1_555 1_555
H15A C18A 1_555 1_555
C19A H16A 1_555 1_555
C20A H17A 1_555 1_555
C21A C20A 1_555 1_555
H18A C21A 1_555 1_555
C22A C23A 1_555 1_555
C23A C24 1_555 1_555
H19A C23A 1_555 1_555
C24A C23 1_555 1_555
H20A C24A 1_555 1_555
N1A C1A 1_555 1_555
N1_2 Mo4 1_555 1_555
N1A_2 Mo4A_2 1_555 1_555
N2A C1A 1_555 1_555
N3A C7A 1_555 1_555
N4A C11A 1_555 1_555
N5A C19A 1_555 1_555
N6A C19A 1_555 1_555
N7A C13A 1_555 1_555
N7A_2 Ni1A 1_555 1_555
N8A C13A 1_555 1_555
O1A Ni1A 1_555 1_555
O1A_2 Ni1A_3 1_555 1_555
O2A Mo1A 1_555 1_555
O4A Mo3 1_555 1_555
O5A Ni1A 1_555 1_555
O6A Mo1A 1_555 1_555
O7A Ni1A 1_555 1_555
O8A Mo3 1_555 1_555
O9A Mo2A 1_555 1_555
O10A Mo4 1_555 1_555
O11A Mo2A 1_555 1_555
O12A Mo3A 1_555 1_555
O13A Mo3 1_555 1_555
O14A Mo4A_2 1_555 1_555
O15A Mo4A_2 1_555 1_555
O16A Mo1A 1_555 1_555
Ni1A N4A 1_555 1_555
Ni1A_2 N7A 1_555 1_555
Mo1A O1A_2 1_555 1_555
Mo2A O4A 1_555 1_555
Mo3A O4 1_555 1_555
Mo4A N1A 1_555 1_555
Mo4_2 N1 1_555 1_555
Mo4A_2 O10 1_555 1_555
C2 N1 1_555 1_555
C3 N2 1_555 1_555
C4 N2 1_555 1_555
C8 C9 1_555 1_555
C10 N3 1_555 1_555
C12 N3 1_555 1_555
C12 N4 1_555 1_555
C14 N7 1_555 1_555
C15 N8 1_555 1_555
C16 N8 1_555 1_555
C20 N5 1_555 1_555
C21 N6 1_555 1_555
C22 N6 1_555 1_555
N5 Ni1 1_555 1_555
N7 Ni1 1_555 1_555
O6 Mo2 1_555 1_555
O8 Mo3A 1_555 1_555
O10 Mo3 1_555 1_555
O13 Mo3A 1_555 1_555
O16 Mo4 1_555 1_555
C2A N1A 1_555 1_555
C3A N2A 1_555 1_555
C4A N2A 1_555 1_555
C8A C9A 1_555 1_555
C10A N3A 1_555 1_555
C12A N3A 1_555 1_555
C12A N4A 1_555 1_555
C14A N7A 1_555 1_555
C15A N8A 1_555 1_555
C16A C18A 1_555 1_555
C16A N8A 1_555 1_555
C20A N5A 1_555 1_555
C21A N6A 1_555 1_555
C22A C24A 1_555 1_555
C22A N6A 1_555 1_555
N5A Ni1A 1_555 1_555
O4A Mo1A 1_555 1_555
O4A Mo3A 1_555 1_555
O6A Mo2A 1_555 1_555
O8A Mo2A 1_555 1_555
O10A Mo2A 1_555 1_555
O10A Mo3A 1_555 1_555
O13A Mo1A 1_555 1_555
O13A Mo4A_2 1_555 1_555
O16A Mo4A_2 1_555 1_555

#END
