
#######################################################################
#
#                 Cambridge Crystallographic Data Centre
#                                CCDC 
#
#######################################################################
#
# If this CIF has been generated from an entry in the Cambridge 
# Structural Database, then it will include bibliographic, chemical, 
# crystal, experimental, refinement or atomic coordinate data resulting 
# from the CCDC's data processing and validation procedures.
#
#######################################################################

data_AQEGIN
_symmetry_cell_setting           monoclinic
_symmetry_space_group_name_H-M   'P 21/n'
_symmetry_Int_Tables_number      14
_space_group_name_Hall           '-P 2yn'
loop_
_symmetry_equiv_pos_site_id
_symmetry_equiv_pos_as_xyz
1 x,y,z
2 1/2-x,1/2+y,1/2-z
3 -x,-y,-z
4 1/2+x,1/2-y,1/2+z
_cell_length_a                   12.4840(10)
_cell_length_b                   15.9310(12)
_cell_length_c                   16.1670(13)
_cell_angle_alpha                90
_cell_angle_beta                 96.7000(10)
_cell_angle_gamma                90
_cell_volume                     3193.38
loop_
_atom_site_label
_atom_site_type_symbol
_atom_site_fract_x
_atom_site_fract_y
_atom_site_fract_z
Zn1 Zn 0.25521(6) 0.29518(4) -0.74444(4)
Mo1 Mo 0.36460(4) 0.51015(3) -0.04020(3)
Mo2 Mo 0.44773(5) 0.44645(3) 0.16170(3)
Mo3 Mo 0.43281(5) 0.64676(3) 0.13126(3)
Mo4 Mo 0.37454(5) 0.71820(3) -0.05706(3)
C1 C 0.2191(6) 0.2529(5) -0.9282(4)
H1 H 0.2646 0.2958 -0.9414
C2 C 0.1715(6) 0.1961(5) -0.9829(4)
H2 H 0.1781 0.1927 -1.0395
C3 C 0.1252(6) 0.1722(4) -0.8599(4)
H3 H 0.0926 0.1479 -0.8168
C4 C 0.0539(5) 0.0712(4) -0.9694(4)
C5 C 0.0028(5) 0.0693(4) -1.0506(4)
H4 H 0.0057 0.1158 -1.0851
C6 C 0.0518(6) 0.0014(5) -0.9205(4)
H5 H 0.0879 0.0018 -0.8668
C7 C 0.4838(5) 0.2243(4) -0.7107(4)
H6 H 0.5107 0.2553 -0.7525
C8 C 0.5363(6) 0.1626(5) -0.6662(4)
H7 H 0.6050 0.1426 -0.6720
C9 C 0.3796(6) 0.1811(4) -0.6235(4)
H8 H 0.3214 0.1760 -0.5928
C10 C 0.4853(5) 0.0666(4) -0.5537(4)
C11 C 0.4011(6) 0.0143(5) -0.5440(4)
H9 H 0.3341 0.0238 -0.5741
C12 C 0.5849(6) 0.0531(5) -0.5105(5)
H10 H 0.6423 0.0885 -0.5177
C13 C 0.1391(6) 0.6864(5) -0.1589(5)
H11 H 0.1043 0.7120 -0.1178
C14 C 0.0909(6) 0.6517(6) -0.2279(5)
H12 H 0.0170 0.6487 -0.2437
C15 C 0.2642(5) 0.6400(4) -0.2277(4)
H13 H 0.3312 0.6276 -0.2443
C16 C 0.1606(5) 0.5818(4) -0.3512(4)
C17 C 0.2256(6) 0.5118(4) -0.3634(4)
H14 H 0.2687 0.4878 -0.3188
C18 C 0.2244(6) 0.4795(4) -0.4423(4)
H15 H 0.2683 0.4341 -0.4513
C19 C 0.1585(5) 0.5140(4) -0.5085(4)
C20 C 0.0920(5) 0.5796(4) -0.4961(4)
H16 H 0.0457 0.6011 -0.5403
C21 C 0.0939(6) 0.6140(4) -0.4176(4)
H17 H 0.0495 0.6594 -0.4093
C22 C 0.1519(6) 0.5296(4) -0.6637(4)
H18 H 0.1322 0.5858 -0.6693
C23 C 0.1742(6) 0.4771(4) -0.7259(4)
H19 H 0.1734 0.4918 -0.7816
C24 C 0.1914(5) 0.4051(4) -0.6127(4)
H20 H 0.2039 0.3610 -0.5751
N1 N 0.1901(4) 0.2376(3) -0.8504(3)
N2 N 0.1117(4) 0.1450(3) -0.9384(3)
N3 N 0.3842(4) 0.2343(3) -0.6843(3)
N4 N 0.4699(4) 0.1347(3) -0.6108(3)
N5 N 0.2495(4) 0.6786(3) -0.1579(3)
N6 N 0.1700(4) 0.6210(3) -0.2715(3)
N7 N 0.1638(4) 0.4838(3) -0.5913(3)
N8 N 0.1984(4) 0.3984(3) -0.6930(3)
O1 O 0.3402(3) 0.4346(2) 0.0340(2)
O2 O 0.3195(3) 0.6087(2) 0.0088(2)
O3 O 0.5332(4) 0.4607(3) 0.2502(3)
O4 O 0.3601(3) 0.3692(3) 0.1890(2)
O5 O 0.5435(4) 0.6561(3) 0.2010(3)
O6 O 0.2713(4) 0.7758(3) -0.0240(3)
O7 O 0.3428(3) 0.7171(3) 0.1677(3)
O8 O 0.3653(3) 0.5470(3) 0.1709(2)
O9 O 0.4484(3) 0.6100(2) -0.1015(2)
O10 O 0.2699(3) 0.4898(3) -0.1214(3)
O11 O 0.4755(4) 0.7128(3) 0.0412(3)
O12 O 0.5045(3) 0.5385(2) 0.0751(2)
O13 O 0.4385(4) 0.7858(3) -0.1156(3)
Zn1_2 Zn 0.25521(6) 0.29518(4) 0.25556(4)
Zn1A Zn 0.24479(6) 0.79518(4) 0.24444(4)
Zn1C Zn 0.75521(6) 0.20482(4) -0.24444(4)
Zn1B Zn 0.74479(6) -0.29518(4) -0.25556(4)
Zn1B_2 Zn -0.25521(6) -0.29518(4) -1.25556(4)
Zn1B_3 Zn 0.74479(6) 0.70482(4) -0.25556(4)
Mo1B Mo 0.63540(4) 0.48985(3) 0.04020(3)
Mo2B Mo 0.55227(5) 0.55355(3) -0.16170(3)
Mo3B Mo 0.56719(5) 0.35324(3) -0.13126(3)
Mo4B Mo 0.62546(5) 0.28180(3) 0.05706(3)
Mo4B_2 Mo -0.37454(5) -0.71820(3) -1.94294(3)
C1B C -0.2191(6) -0.2529(5) -1.0718(4)
H1B H -0.2646 -0.2958 -1.0586
C2B C -0.1715(6) -0.1961(5) -1.0171(4)
H2B H -0.1781 -0.1927 -0.9605
C3B C -0.1252(6) -0.1722(4) -1.1401(4)
H3B H -0.0926 -0.1479 -1.1832
C4B C -0.0539(5) -0.0712(4) -1.0306(4)
C5B C -0.0028(5) -0.0693(4) -0.9494(4)
H4B H -0.0057 -0.1158 -0.9149
C6B C -0.0518(6) -0.0014(5) -1.0795(4)
H5B H -0.0879 -0.0018 -1.1332
C7B C 0.5162(5) -0.2243(4) -0.2893(4)
H6B H 0.4893 -0.2553 -0.2475
C8B C 0.4637(6) -0.1626(5) -0.3338(4)
H7B H 0.3950 -0.1426 -0.3280
C9B C 0.6204(6) -0.1811(4) -0.3765(4)
H8B H 0.6786 -0.1760 -0.4072
C10B C 0.5147(5) -0.0666(4) -0.4463(4)
C11B C 0.5989(6) -0.0143(5) -0.4560(4)
H9B H 0.6659 -0.0238 -0.4259
C12B C 0.4151(6) -0.0531(5) -0.4895(5)
H10B H 0.3577 -0.0885 -0.4823
C13B C -0.1391(6) -0.6864(5) -1.8411(5)
H11B H -0.1043 -0.7120 -1.8822
C14B C -0.0909(6) -0.6517(6) -1.7721(5)
H12B H -0.0170 -0.6487 -1.7563
C15B C -0.2642(5) -0.6400(4) -1.7723(4)
H13B H -0.3312 -0.6276 -1.7557
C16B C -0.1606(5) -0.5818(4) -1.6488(4)
C17B C -0.2256(6) -0.5118(4) -1.6366(4)
H14B H -0.2687 -0.4878 -1.6812
C18B C -0.2244(6) -0.4795(4) -1.5577(4)
H15B H -0.2683 -0.4341 -1.5487
C19B C -0.1585(5) -0.5140(4) -1.4915(4)
C20B C -0.0920(5) -0.5796(4) -1.5039(4)
H16B H -0.0457 -0.6011 -1.4597
C21B C -0.0939(6) -0.6140(4) -1.5824(4)
H17B H -0.0495 -0.6594 -1.5907
C22B C -0.1519(6) -0.5296(4) -1.3363(4)
H18B H -0.1322 -0.5858 -1.3307
C23B C -0.1742(6) -0.4771(4) -1.2741(4)
H19B H -0.1734 -0.4918 -1.2184
C24B C -0.1914(5) -0.4051(4) -1.3873(4)
H20B H -0.2039 -0.3610 -1.4249
N1B N -0.1901(4) -0.2376(3) -1.1496(3)
N2B N -0.1117(4) -0.1450(3) -1.0616(3)
N3B N 0.6158(4) -0.2343(3) -0.3157(3)
N3B_2 N -0.3842(4) -0.2343(3) -1.3157(3)
N4B N 0.5301(4) -0.1347(3) -0.3892(3)
N5B N 0.7505(4) 0.3214(3) 0.1579(3)
N5B_2 N -0.2495(4) -0.6786(3) -1.8421(3)
N6B N -0.1700(4) -0.6210(3) -1.7285(3)
N7B N -0.1638(4) -0.4838(3) -1.4087(3)
N8B N -0.1984(4) -0.3984(3) -1.3070(3)
O1B O 0.6598(3) 0.5654(2) -0.0340(2)
O2B O 0.6805(3) 0.3913(2) -0.0088(2)
O3B O 0.4668(4) 0.5393(3) -0.2502(3)
O4_2 O 0.3601(3) 0.3692(3) -0.8110(2)
O4B O 0.6399(3) 0.6308(3) -0.1890(2)
O4B_2 O -0.3601(3) -0.3692(3) -1.1890(2)
O5B O 0.4565(4) 0.3439(3) -0.2010(3)
O6B O 0.7287(4) 0.2242(3) 0.0240(3)
O7A O 0.1572(3) 0.2171(3) -0.6677(3)
O7B O 0.6572(3) 0.2829(3) -0.1677(3)
O7C O -0.1572(3) -0.2171(3) -1.3323(3)
O8B O 0.6347(3) 0.4530(3) -0.1709(2)
O9B O 0.5516(3) 0.3900(2) 0.1015(2)
O10B O 0.7301(3) 0.5102(3) 0.1214(3)
O11B O 0.5245(4) 0.2872(3) -0.0412(3)
O12B O 0.4955(3) 0.4615(2) -0.0751(2)
O13B O 0.5615(4) 0.2142(3) 0.1156(3)
loop_
_geom_bond_atom_site_label_1
_geom_bond_atom_site_label_2
_geom_bond_site_symmetry_1
_geom_bond_site_symmetry_2
Zn1 N1 1_555 1_555
Mo1 O1 1_555 1_555
Mo2 O1 1_555 1_555
Mo3 O2 1_555 1_555
Mo4 N5 1_555 1_555
C1 H1 1_555 1_555
C2 C1 1_555 1_555
H2 C2 1_555 1_555
C3 H3 1_555 1_555
C4 C5 1_555 1_555
C5 H4 1_555 1_555
C6 C4 1_555 1_555
H5 C6 1_555 1_555
C7 H6 1_555 1_555
C8 C7 1_555 1_555
H7 C8 1_555 1_555
C9 H8 1_555 1_555
C10 C11 1_555 1_555
C11 H9 1_555 1_555
C12 C10 1_555 1_555
H10 C12 1_555 1_555
C13 H11 1_555 1_555
C14 C13 1_555 1_555
H12 C14 1_555 1_555
C15 H13 1_555 1_555
C16 C17 1_555 1_555
C17 H14 1_555 1_555
C18 C17 1_555 1_555
H15 C18 1_555 1_555
C19 C18 1_555 1_555
C20 C19 1_555 1_555
H16 C20 1_555 1_555
C21 C16 1_555 1_555
H17 C21 1_555 1_555
C22 H18 1_555 1_555
C23 C22 1_555 1_555
H19 C23 1_555 1_555
C24 H20 1_555 1_555
N1 C1 1_555 1_555
N2 C2 1_555 1_555
N3 Zn1 1_555 1_555
N4 C8 1_555 1_555
N5 C13 1_555 1_555
N6 C14 1_555 1_555
N7 C19 1_555 1_555
N8 Zn1 1_555 1_555
O2 Mo1 1_555 1_555
O3 Mo2 1_555 1_555
O4 Mo2 1_555 1_555
O5 Mo3 1_555 1_555
O6 Mo4 1_555 1_555
O7 Mo3 1_555 1_555
O8 Mo2 1_555 1_555
O9 Mo1 1_555 1_555
O10 Mo1 1_555 1_555
O11 Mo3 1_555 1_555
O12 Mo1 1_555 1_555
O13 Mo4 1_555 1_555
Zn1_2 O4 1_555 1_555
Zn1A O7 1_555 1_555
Zn1C O7B 1_555 1_555
Zn1B N3B 1_555 1_555
Zn1B_2 N1B 1_555 1_555
Zn1B_3 O4B 1_555 1_555
Mo1B O12 1_555 1_555
Mo2B O9 1_555 1_555
Mo3B O2B 1_555 1_555
Mo4B N5B 1_555 1_555
Mo4B_2 N5B_2 1_555 1_555
C1B H1B 1_555 1_555
C2B C1B 1_555 1_555
H2B C2B 1_555 1_555
C3B H3B 1_555 1_555
C4B C5B 1_555 1_555
C5B C6 1_555 1_555
H4B C5B 1_555 1_555
C6B C5 1_555 1_555
H5B C6B 1_555 1_555
C7B H6B 1_555 1_555
C8B C7B 1_555 1_555
H7B C8B 1_555 1_555
C9B H8B 1_555 1_555
C10B C11B 1_555 1_555
C11B C12 1_555 1_555
H9B C11B 1_555 1_555
C12B C11 1_555 1_555
H10B C12B 1_555 1_555
C13B H11B 1_555 1_555
C14B C13B 1_555 1_555
H12B C14B 1_555 1_555
C15B H13B 1_555 1_555
C16B C17B 1_555 1_555
C17B H14B 1_555 1_555
C18B C17B 1_555 1_555
H15B C18B 1_555 1_555
C19B C18B 1_555 1_555
C20B C19B 1_555 1_555
H16B C20B 1_555 1_555
C21B C16B 1_555 1_555
H17B C21B 1_555 1_555
C22B H18B 1_555 1_555
C23B C22B 1_555 1_555
H19B C23B 1_555 1_555
C24B H20B 1_555 1_555
N1B C1B 1_555 1_555
N2B C2B 1_555 1_555
N3B C7B 1_555 1_555
N3B_2 Zn1B_2 1_555 1_555
N4B C8B 1_555 1_555
N5B_2 C13B 1_555 1_555
N6B C14B 1_555 1_555
N7B C19B 1_555 1_555
N8B Zn1B_2 1_555 1_555
O1B Mo1B 1_555 1_555
O2B Mo1B 1_555 1_555
O3B Mo2B 1_555 1_555
O4_2 Zn1 1_555 1_555
O4B Mo2B 1_555 1_555
O4B_2 Zn1B_2 1_555 1_555
O5B Mo3B 1_555 1_555
O6B Mo4B 1_555 1_555
O7A Zn1 1_555 1_555
O7B Mo3B 1_555 1_555
O7C Zn1B_2 1_555 1_555
O8B Mo2B 1_555 1_555
O9B Mo2 1_555 1_555
O10B Mo1B 1_555 1_555
O11B Mo3B 1_555 1_555
O12B Mo1 1_555 1_555
O13B Mo4B 1_555 1_555
Mo2 O12 1_555 1_555
Mo3 O8 1_555 1_555
Mo3 O12 1_555 1_555
Mo4 O2 1_555 1_555
Mo4 O9 1_555 1_555
Mo4 O11 1_555 1_555
C3 N1 1_555 1_555
C3 N2 1_555 1_555
C4 N2 1_555 1_555
C7 N3 1_555 1_555
C9 N3 1_555 1_555
C9 N4 1_555 1_555
C10 N4 1_555 1_555
C15 N5 1_555 1_555
C15 N6 1_555 1_555
C16 N6 1_555 1_555
C20 C21 1_555 1_555
C22 N7 1_555 1_555
C23 N8 1_555 1_555
C24 N7 1_555 1_555
C24 N8 1_555 1_555
Mo1B O9B 1_555 1_555
Mo1B O12B 1_555 1_555
Mo2B O1B 1_555 1_555
Mo2B O12B 1_555 1_555
Mo3B O8B 1_555 1_555
Mo3B O12B 1_555 1_555
Mo4B O2B 1_555 1_555
Mo4B O9B 1_555 1_555
Mo4B O11B 1_555 1_555
C3B N1B 1_555 1_555
C3B N2B 1_555 1_555
C4B C6B 1_555 1_555
C4B N2B 1_555 1_555
C9B N3B 1_555 1_555
C9B N4B 1_555 1_555
C10B C12B 1_555 1_555
C10B N4B 1_555 1_555
C15B N5B_2 1_555 1_555
C15B N6B 1_555 1_555
C16B N6B 1_555 1_555
C20B C21B 1_555 1_555
C22B N7B 1_555 1_555
C23B N8B 1_555 1_555
C24B N7B 1_555 1_555
C24B N8B 1_555 1_555

#END
