
#######################################################################
#
#                 Cambridge Crystallographic Data Centre
#                                CCDC 
#
#######################################################################
#
# If this CIF has been generated from an entry in the Cambridge 
# Structural Database, then it will include bibliographic, chemical, 
# crystal, experimental, refinement or atomic coordinate data resulting 
# from the CCDC's data processing and validation procedures.
#
#######################################################################

data_AQEHAG
_symmetry_cell_setting           monoclinic
_symmetry_space_group_name_H-M   'P 21/c'
_symmetry_Int_Tables_number      14
_space_group_name_Hall           '-P 2ybc'
loop_
_symmetry_equiv_pos_site_id
_symmetry_equiv_pos_as_xyz
1 x,y,z
2 -x,1/2+y,1/2-z
3 -x,-y,-z
4 x,1/2-y,1/2+z
_cell_length_a                   6.9995(13)
_cell_length_b                   16.468(3)
_cell_length_c                   6.5392(13)
_cell_angle_alpha                90
_cell_angle_beta                 111.809(2)
_cell_angle_gamma                90
_cell_volume                     699.811
loop_
_atom_site_label
_atom_site_type_symbol
_atom_site_fract_x
_atom_site_fract_y
_atom_site_fract_z
Pb1 Pb 0.77854(4) 0.069472(17) 0.53696(5)
C1 C 1.4465(11) 0.2580(4) 0.9083(12)
C2 C 1.2553(11) 0.2989(5) 0.8506(13)
C3 C 1.0779(12) 0.2514(5) 0.7832(13)
H1 H 0.9524 0.2783 0.7409
C4 C 1.2538(12) 0.1296(5) 0.8345(13)
C5 C 1.2331(12) 0.3873(4) 0.8520(13)
N1 N 1.4328(10) 0.1741(3) 0.8993(11)
H2 H 1.5464 0.1474 0.9375
N2 N 1.0730(11) 0.1697(4) 0.7741(12)
O1 O 1.6228(8) 0.2878(3) 0.9707(10)
O2 O 1.0576(8) 0.4179(3) 0.8005(10)
O3 O 1.3932(9) 0.4322(3) 0.9065(12)
O4 O 1.2620(11) 0.0544(3) 0.8268(11)
O5 O 0.7585(9) 0.0701(3) 0.9039(10)
H3 H 0.7280 0.0239 0.9406
H4 H 0.8659 0.0890 1.0037
Pb1C Pb 1.77854(4) 0.430528(17) 1.03696(5)
Pb1A Pb 1.22146(4) 0.569472(17) 0.96304(5)
O1C O 0.6228(8) 0.2122(3) 0.4707(10)
O2A O 0.9424(8) -0.0821(3) 0.6995(10)
O3C O 0.3932(9) 0.0678(3) 0.4065(12)
O3A O 0.6068(9) -0.0678(3) 0.5935(12)
loop_
_geom_bond_atom_site_label_1
_geom_bond_atom_site_label_2
_geom_bond_site_symmetry_1
_geom_bond_site_symmetry_2
Pb1 N2 1_555 1_555
C1 C2 1_555 1_555
C2 C3 1_555 1_555
C3 H1 1_555 1_555
C4 N1 1_555 1_555
C5 C2 1_555 1_555
N1 C1 1_555 1_555
H2 N1 1_555 1_555
N2 C3 1_555 1_555
O1 C1 1_555 1_555
O2 C5 1_555 1_555
O3 C5 1_555 1_555
O4 C4 1_555 1_555
O5 Pb1 1_555 1_555
H3 O5 1_555 1_555
H4 O5 1_555 1_555
Pb1C O1 1_555 1_555
Pb1A O2 1_555 1_555
O1C Pb1 1_555 1_555
O2A Pb1 1_555 1_555
O3C Pb1 1_555 1_555
O3A Pb1 1_555 1_555
C4 N2 1_555 1_555
O3 Pb1C 1_555 1_555
O3 Pb1A 1_555 1_555

#END
