
#######################################################################
#
#                 Cambridge Crystallographic Data Centre
#                                CCDC 
#
#######################################################################
#
# If this CIF has been generated from an entry in the Cambridge 
# Structural Database, then it will include bibliographic, chemical, 
# crystal, experimental, refinement or atomic coordinate data resulting 
# from the CCDC's data processing and validation procedures.
#
#######################################################################

data_AQENUG
_symmetry_cell_setting           triclinic
_symmetry_space_group_name_H-M   'P -1'
_symmetry_Int_Tables_number      2
_space_group_name_Hall           '-P 1'
loop_
_symmetry_equiv_pos_site_id
_symmetry_equiv_pos_as_xyz
1 x,y,z
2 -x,-y,-z
_cell_length_a                   9.6645(8)
_cell_length_b                   10.6237(8)
_cell_length_c                   15.8602(12)
_cell_angle_alpha                81.453(1)
_cell_angle_beta                 78.763(2)
_cell_angle_gamma                64.177(1)
_cell_volume                     1433.95
loop_
_atom_site_label
_atom_site_type_symbol
_atom_site_fract_x
_atom_site_fract_y
_atom_site_fract_z
Pr1 Pr 0.731674(19) 0.960888(17) 0.503373(11)
C1 C 0.4889(4) 0.9008(4) 0.6748(2)
C2 C 0.4682(4) 0.8381(4) 0.7661(2)
C3 C 0.5613(5) 0.8299(4) 0.8248(2)
H1 H 0.6334 0.8685 0.8096
C4 C 0.5467(5) 0.7639(4) 0.9065(2)
C5 C 0.4498(5) 0.6955(4) 0.9258(3)
H2 H 0.4472 0.6437 0.9784
C6 C 0.3572(5) 0.7040(4) 0.8675(2)
C7 C 0.3612(5) 0.7806(4) 0.7891(2)
H3 H 0.2919 0.7933 0.7519
C8 C 0.6749(5) 0.8566(5) 0.9845(3)
C9 C 0.7329(5) 0.8412(4) 1.0678(3)
C10 C 0.8361(6) 0.8984(5) 1.0708(3)
H4 H 0.8719 0.9411 1.0214
C11 C 0.8848(7) 0.8906(6) 1.1488(3)
H5 H 0.9551 0.9280 1.1503
C12 C 0.7378(7) 0.7791(6) 1.2177(3)
H6 H 0.7035 0.7383 1.2686
C13 C 0.6824(6) 0.7800(5) 1.1437(3)
H7 H 0.6130 0.7405 1.1446
C14 C 0.2568(5) 0.6248(5) 0.8873(3)
C15 C 1.1065(4) 0.7884(4) 0.5569(2)
C16 C 1.2356(4) 0.6475(3) 0.5727(2)
C17 C 1.3616(4) 0.6389(4) 0.6062(2)
H8 H 1.3652 0.7203 0.6182
C18 C 1.4815(4) 0.5109(4) 0.6219(2)
C19 C 1.4818(4) 0.3892(4) 0.6011(2)
H9 H 1.5635 0.3030 0.6114
C20 C 1.3581(4) 0.3972(4) 0.5643(2)
C21 C 1.2334(4) 0.5254(4) 0.5520(2)
H10 H 1.1487 0.5298 0.5301
C22 C 1.6588(5) 0.4429(5) 0.7282(3)
C23 C 1.7778(5) 0.4766(4) 0.7573(3)
C24 C 1.8540(5) 0.5513(5) 0.7059(3)
H11 H 1.8404 0.5779 0.6485
C25 C 1.9504(6) 0.5849(6) 0.7424(3)
H12 H 2.0007 0.6359 0.7082
C26 C 1.9051(5) 0.4746(5) 0.8714(3)
H13 H 1.9237 0.4468 0.9280
C27 C 1.8058(5) 0.4369(5) 0.8415(3)
H14 H 1.7579 0.3852 0.8774
C28 C 1.3641(4) 0.2694(4) 0.5317(2)
N1 N 0.6329(4) 0.7568(4) 0.9715(2)
H15 H 0.5775 0.7427 1.0216
N2 N 0.8365(5) 0.8329(5) 1.2205(3)
N3 N 1.6083(4) 0.5116(3) 0.6555(2)
H16 H 1.6554 0.5602 0.6263
N4 N 1.9758(4) 0.5487(4) 0.8236(2)
O1 O 0.6163(3) 0.9063(3) 0.64757(17)
O2 O 0.3800(3) 0.9364(3) 0.63195(16)
O3 O 0.1480(5) 0.6713(5) 0.8396(3)
H17 H 0.1070 0.6166 0.8453
O4 O 0.2788(4) 0.5283(4) 0.9411(2)
O5 O 0.6646(5) 0.9582(4) 0.9339(2)
O6 O 0.9821(3) 0.7910(3) 0.54282(17)
O7 O 1.1293(3) 0.8946(3) 0.56109(17)
O8 O 1.4779(3) 0.1546(3) 0.53969(18)
O9 O 1.2552(4) 0.2827(3) 0.4946(3)
O10 O 1.6087(5) 0.3623(5) 0.7707(3)
O11 O 0.9236(4) 0.8370(3) 0.37504(19)
H18 H 0.8904 0.7774 0.3686
H19 H 0.9091 0.8880 0.3281
O12 O 0.7982(3) 1.0672(3) 0.61539(17)
H20 H 0.8768 1.0855 0.5974
H21 H 0.8080 1.0190 0.6634
Pr1A Pr 0.268326(19) 1.039112(17) 0.496627(11)
Pr1A_2 Pr 1.268326(19) 1.039112(17) 0.496627(11)
Pr1_2 Pr 1.731674(19) -0.039112(17) 0.503373(11)
Pr1A_3 Pr 1.268326(19) 0.039112(17) 0.496627(11)
O2A O 0.6200(3) 1.0636(3) 0.36805(16)
O7A O 0.8707(3) 1.1054(3) 0.43891(17)
O8_2 O 0.4779(3) 1.1546(3) 0.53969(18)
O9A O 0.7448(4) 0.7173(3) 0.5054(3)
O13 O 0.7920(9) 0.0677(7) 0.7885(3)
H22 H 0.7408 0.1507 0.7684
H23 H 0.7467 0.0260 0.8254
loop_
_geom_bond_atom_site_label_1
_geom_bond_atom_site_label_2
_geom_bond_site_symmetry_1
_geom_bond_site_symmetry_2
Pr1 O1 1_555 1_555
C1 C2 1_555 1_555
C2 C3 1_555 1_555
C3 H1 1_555 1_555
C4 C3 1_555 1_555
C5 C4 1_555 1_555
H2 C5 1_555 1_555
C6 C5 1_555 1_555
C7 C2 1_555 1_555
H3 C7 1_555 1_555
C8 C9 1_555 1_555
C9 C10 1_555 1_555
C10 H4 1_555 1_555
C11 C10 1_555 1_555
H5 C11 1_555 1_555
C12 H6 1_555 1_555
C13 C9 1_555 1_555
H7 C13 1_555 1_555
C14 C6 1_555 1_555
C15 C16 1_555 1_555
C16 C17 1_555 1_555
C17 H8 1_555 1_555
C18 C17 1_555 1_555
C19 C18 1_555 1_555
H9 C19 1_555 1_555
C20 C19 1_555 1_555
C21 C16 1_555 1_555
H10 C21 1_555 1_555
C22 C23 1_555 1_555
C23 C24 1_555 1_555
C24 H11 1_555 1_555
C25 C24 1_555 1_555
H12 C25 1_555 1_555
C26 H13 1_555 1_555
C27 C23 1_555 1_555
H14 C27 1_555 1_555
C28 C20 1_555 1_555
N1 C4 1_555 1_555
H15 N1 1_555 1_555
N2 C11 1_555 1_555
N3 C18 1_555 1_555
H16 N3 1_555 1_555
N4 C25 1_555 1_555
O1 C1 1_555 1_555
O2 C1 1_555 1_555
O3 C14 1_555 1_555
H17 O3 1_555 1_555
O4 C14 1_555 1_555
O5 C8 1_555 1_555
O6 Pr1 1_555 1_555
O7 C15 1_555 1_555
O8 C28 1_555 1_555
O9 C28 1_555 1_555
O10 C22 1_555 1_555
O11 Pr1 1_555 1_555
H18 O11 1_555 1_555
H19 O11 1_555 1_555
O12 Pr1 1_555 1_555
H20 O12 1_555 1_555
H21 O12 1_555 1_555
O13 H22 1_555 1_555
H23 O13 1_555 1_555
Pr1A O2 1_555 1_555
Pr1A_2 O7 1_555 1_555
Pr1_2 O8 1_555 1_555
Pr1A_3 O9 1_555 1_555
O2A Pr1 1_555 1_555
O7A Pr1 1_555 1_555
O8_2 Pr1 1_555 1_555
O9A Pr1 1_555 1_555
C6 C7 1_555 1_555
C8 N1 1_555 1_555
C12 C13 1_555 1_555
C12 N2 1_555 1_555
C15 O6 1_555 1_555
C20 C21 1_555 1_555
C22 N3 1_555 1_555
C26 C27 1_555 1_555
C26 N4 1_555 1_555

#END
