
#######################################################################
#
#                 Cambridge Crystallographic Data Centre
#                                CCDC 
#
#######################################################################
#
# If this CIF has been generated from an entry in the Cambridge 
# Structural Database, then it will include bibliographic, chemical, 
# crystal, experimental, refinement or atomic coordinate data resulting 
# from the CCDC's data processing and validation procedures.
#
#######################################################################

data_AQESAR
_symmetry_cell_setting           orthorhombic
_symmetry_space_group_name_H-M   'P 21 21 21'
_symmetry_Int_Tables_number      19
_space_group_name_Hall           'P 2ac 2ab'
loop_
_symmetry_equiv_pos_site_id
_symmetry_equiv_pos_as_xyz
1 x,y,z
2 1/2-x,-y,1/2+z
3 -x,1/2+y,1/2-z
4 1/2+x,1/2-y,-z
_cell_length_a                   24.1223(2)
_cell_length_b                   28.7844(2)
_cell_length_c                   29.0182(5)
_cell_angle_alpha                90
_cell_angle_beta                 90
_cell_angle_gamma                90
_cell_volume                     20148.7
loop_
_atom_site_label
_atom_site_type_symbol
_atom_site_fract_x
_atom_site_fract_y
_atom_site_fract_z
K1 K -0.10939(7) -0.00398(7) 0.81228(7)
Ti1 Ti -0.24834(5) 0.02238(4) 0.83293(4)
Ti2 Ti -0.47124(5) 0.06709(5) 0.87804(5)
Li1 Li -0.3388(5) 0.0642(4) 0.9144(4)
Li2 Li -0.3813(5) -0.0188(4) 0.8450(4)
Li3 Li -0.3620(5) 0.0880(5) 0.8042(4)
O1 O -0.28439(18) 0.01746(16) 0.89438(16)
O2 O -0.20483(19) -0.02657(18) 0.86036(17)
C1 C -0.2601(3) -0.0120(2) 0.9238(2)
C2 C -0.2139(3) -0.0350(3) 0.9054(3)
C3 C -0.1834(4) -0.0649(3) 0.9321(3)
H1 H -0.1524 -0.0801 0.9195
C4 C -0.1985(5) -0.0727(4) 0.9776(3)
H2 H -0.1770 -0.0927 0.9960
C5 C -0.2441(4) -0.0517(3) 0.9959(3)
H3 H -0.2548 -0.0587 1.0263
C6 C -0.2756(3) -0.0194(3) 0.9699(3)
C7 C -0.3236(3) 0.0036(3) 0.9892(3)
O3 O -0.3523(2) 0.0314(2) 0.96980(18)
O4 O -0.3344(3) -0.0099(2) 1.0331(2)
C8 C -0.3875(4) 0.0096(3) 1.0522(3)
H4 H -0.4179 0.0045 1.0299
C9 C -0.3983(7) -0.0185(4) 1.0949(4)
H5 H -0.3637 -0.0232 1.1115
H6 H -0.4137 -0.0484 1.0864
H7 H -0.4243 -0.0021 1.1145
C10 C -0.3815(3) 0.0595(2) 1.0613(3)
C11 C -0.4250(3) 0.0881(4) 1.0479(3)
H8 H -0.4555 0.0756 1.0320
C12 C -0.4235(6) 0.1353(3) 1.0581(4)
H9 H -0.4529 0.1547 1.0491
C13 C -0.3784(6) 0.1538(2) 1.0816(5)
H10 H -0.3774 0.1857 1.0885
C14 C -0.3349(5) 0.1252(4) 1.0950(4)
H11 H -0.3044 0.1377 1.1109
C15 C -0.3364(3) 0.0780(3) 1.0848(3)
H12 H -0.3070 0.0586 1.0938
O5 O -0.31758(19) -0.00433(17) 0.80594(16)
O6 O -0.2215(2) 0.00218(19) 0.77398(17)
C16 C -0.3110(3) -0.0263(3) 0.7655(3)
C17 C -0.2556(3) -0.0242(3) 0.7483(3)
C18 C -0.2413(4) -0.0464(4) 0.7085(3)
H13 H -0.2046 -0.0450 0.6978
C19 C -0.2806(4) -0.0708(4) 0.6841(3)
H14 H -0.2706 -0.0865 0.6570
C20 C -0.3358(4) -0.0724(3) 0.6996(3)
H15 H -0.3627 -0.0887 0.6826
C21 C -0.3509(3) -0.0494(3) 0.7408(3)
C22 C -0.4076(3) -0.0523(3) 0.7572(3)
O7 O -0.4234(2) -0.03715(18) 0.7940(2)
O8 O -0.4440(2) -0.0717(2) 0.7279(2)
C23 C -0.5024(4) -0.0709(3) 0.7420(4)
H16 H -0.5128 -0.0388 0.7506
C24 C -0.5330(5) -0.0845(5) 0.6987(5)
H17 H -0.5153 -0.1115 0.6850
H18 H -0.5320 -0.0588 0.6770
H19 H -0.5712 -0.0918 0.7062
C25 C -0.5119(3) -0.1023(2) 0.7825(3)
C26 C -0.5338(3) -0.0837(2) 0.8228(3)
H20 H -0.5417 -0.0518 0.8245
C27 C -0.5440(4) -0.1123(4) 0.8604(3)
H21 H -0.5588 -0.0997 0.8876
C28 C -0.5322(4) -0.1595(4) 0.8578(4)
H22 H -0.5391 -0.1788 0.8833
C29 C -0.5103(4) -0.1781(2) 0.8176(5)
H23 H -0.5023 -0.2100 0.8158
C30 C -0.5001(3) -0.1495(3) 0.7799(3)
H24 H -0.4853 -0.1621 0.7527
O9 O -0.28607(18) 0.08386(15) 0.82610(16)
O10 O -0.18635(18) 0.06387(17) 0.83877(17)
C31 C -0.2521(3) 0.1213(2) 0.8262(2)
C32 C -0.1966(3) 0.1100(3) 0.8319(3)
C33 C -0.1558(3) 0.1432(3) 0.8315(3)
H25 H -0.1183 0.1349 0.8350
C34 C -0.1710(4) 0.1891(3) 0.8258(3)
H26 H -0.1439 0.2126 0.8251
C35 C -0.2259(3) 0.1999(3) 0.8212(3)
H27 H -0.2358 0.2313 0.8180
C36 C -0.2671(3) 0.1672(3) 0.8210(3)
C37 C -0.3262(3) 0.1794(3) 0.8162(3)
O11 O -0.3646(2) 0.15269(19) 0.8150(2)
O12 O -0.3355(2) 0.22578(19) 0.8127(2)
C38 C -0.3930(4) 0.2392(3) 0.8077(4)
H28 H -0.4148 0.2258 0.8334
C39 C -0.3919(6) 0.2923(3) 0.8127(5)
H29 H -0.3716 0.3006 0.8403
H30 H -0.4295 0.3039 0.8148
H31 H -0.3738 0.3058 0.7860
C40 C -0.4169(3) 0.2229(2) 0.7629(2)
C41 C -0.4683(3) 0.2012(3) 0.7633(3)
H32 H -0.4872 0.1968 0.7913
C42 C -0.4918(3) 0.1859(3) 0.7222(4)
H33 H -0.5266 0.1712 0.7225
C43 C -0.4639(5) 0.1924(3) 0.6808(3)
H34 H -0.4797 0.1821 0.6531
C44 C -0.4124(5) 0.2141(4) 0.6805(2)
H35 H -0.3935 0.2185 0.6525
C45 C -0.3889(3) 0.2294(3) 0.7215(3)
H36 H -0.3541 0.2441 0.7213
O13 O -0.40332(19) 0.09905(16) 0.89963(18)
O14 O -0.4992(2) 0.12897(18) 0.8880(2)
C46 C -0.4106(3) 0.1433(2) 0.9142(3)
C47 C -0.4651(3) 0.1600(3) 0.9085(3)
C48 C -0.4792(4) 0.2028(3) 0.9234(4)
H37 H -0.5159 0.2132 0.9203
C49 C -0.4398(4) 0.2312(3) 0.9433(5)
H38 H -0.4501 0.2608 0.9541
C50 C -0.3864(4) 0.2169(3) 0.9473(4)
H39 H -0.3597 0.2373 0.9593
C51 C -0.3703(3) 0.1720(3) 0.9337(3)
C52 C -0.3123(3) 0.1562(3) 0.9372(3)
O15 O -0.2966(2) 0.11741(19) 0.92697(19)
O16 O -0.2767(2) 0.18917(19) 0.9517(2)
C53 C -0.2186(3) 0.1754(3) 0.9498(3)
H40 H -0.2116 0.1595 0.9201
C54 C -0.1863(4) 0.2210(4) 0.9504(4)
H41 H -0.1964 0.2394 0.9236
H42 H -0.1468 0.2145 0.9496
H43 H -0.1951 0.2382 0.9782
C55 C -0.2044(2) 0.1424(2) 0.9887(2)
C56 C -0.1988(3) 0.1581(2) 1.0337(2)
H44 H -0.2056 0.1895 1.0407
C57 C -0.1832(4) 0.1275(4) 1.0684(2)
H45 H -0.1795 0.1381 1.0988
C58 C -0.1732(3) 0.0811(3) 1.0580(3)
H46 H -0.1626 0.0604 1.0814
C59 C -0.1787(3) 0.0654(2) 1.0129(4)
H47 H -0.1720 0.0340 1.0059
C60 C -0.1944(3) 0.0960(2) 0.9783(3)
H48 H -0.1981 0.0854 0.9478
O17 O -0.43154(18) 0.00742(16) 0.89042(17)
O18 O -0.5099(2) 0.0457(2) 0.9329(2)
C61 C -0.4523(3) -0.0181(3) 0.9247(3)
C62 C -0.4974(3) 0.0028(3) 0.9474(3)
C63 C -0.5241(4) -0.0201(4) 0.9830(3)
H49 H -0.5543 -0.0062 0.9982
C64 C -0.5057(4) -0.0635(4) 0.9960(4)
H50 H -0.5244 -0.0794 1.0196
C65 C -0.4621(4) -0.0837(3) 0.9757(3)
H51 H -0.4493 -0.1126 0.9864
C66 C -0.4351(3) -0.0618(3) 0.9385(3)
C67 C -0.3860(3) -0.0835(3) 0.9169(3)
O19 O -0.3608(2) -0.06760(18) 0.8848(2)
O20 O -0.3694(3) -0.1226(2) 0.9374(2)
C68 C -0.3164(5) -0.1422(4) 0.9186(4)
H52 H -0.2874 -0.1180 0.9179
C69 C -0.3019(6) -0.1796(4) 0.9550(4)
H53 H -0.2906 -0.1646 0.9834
H54 H -0.2718 -0.1989 0.9437
H55 H -0.3342 -0.1989 0.9608
C70 C -0.3254(3) -0.1609(3) 0.8722(2)
C71 C -0.3631(4) -0.1963(3) 0.8631(3)
H56 H -0.3843 -0.2090 0.8871
C72 C -0.3694(4) -0.2128(3) 0.8184(4)
H57 H -0.3949 -0.2367 0.8122
C73 C -0.3380(5) -0.1940(4) 0.7828(3)
H58 H -0.3423 -0.2052 0.7526
C74 C -0.3003(5) -0.1587(4) 0.7919(3)
H59 H -0.2791 -0.1460 0.7679
C75 C -0.2940(3) -0.1421(3) 0.8366(3)
H60 H -0.2685 -0.1182 0.8428
O21 O -0.43698(18) 0.06624(17) 0.81472(17)
O22 O -0.5346(2) 0.05268(19) 0.84083(19)
C76 C -0.4721(3) 0.0623(2) 0.7801(3)
C77 C -0.5284(3) 0.0547(3) 0.7946(3)
C78 C -0.5705(3) 0.0505(3) 0.7634(3)
H61 H -0.6073 0.0469 0.7737
C79 C -0.5594(3) 0.0514(3) 0.7175(3)
H62 H -0.5882 0.0471 0.6961
C80 C -0.5062(4) 0.0585(3) 0.7021(3)
H63 H -0.4992 0.0599 0.6702
C81 C -0.4620(3) 0.0636(3) 0.7331(3)
C82 C -0.4051(3) 0.0721(3) 0.7155(3)
O23 O -0.3644(2) 0.0782(2) 0.73944(19)
O24 O -0.4036(3) 0.0751(2) 0.6700(2)
C83 C -0.3505(4) 0.0863(4) 0.6481(4)
H64 H -0.3255 0.1014 0.6706
C84 C -0.3248(6) 0.0389(6) 0.6313(5)
H65 H -0.3173 0.0193 0.6578
H66 H -0.2905 0.0449 0.6149
H67 H -0.3507 0.0233 0.6109
C85 C -0.3600(3) 0.1172(2) 0.6088(2)
C86 C -0.4102(3) 0.1172(3) 0.5853(3)
H68 H -0.4386 0.0968 0.5942
C87 C -0.4183(4) 0.1474(3) 0.5485(3)
H69 H -0.4523 0.1474 0.5326
C88 C -0.3763(5) 0.1776(3) 0.5353(3)
H70 H -0.3819 0.1981 0.5104
C89 C -0.3261(4) 0.1777(3) 0.5588(3)
H71 H -0.2977 0.1981 0.5499
C90 C -0.3179(3) 0.1475(3) 0.5956(3)
H72 H -0.2840 0.1475 0.6115
K2 K 0.38978(10) 0.11112(11) 0.87830(13)
Ti3 Ti 0.02907(5) 0.02654(4) 0.83037(4)
Ti4 Ti 0.25129(5) 0.08246(4) 0.84551(4)
Li4 Li 0.1220(4) 0.1162(4) 0.8166(4)
Li5 Li 0.1397(5) 0.0369(4) 0.9043(4)
Li6 Li 0.1626(5) 0.0043(4) 0.7985(4)
O25 O 0.06994(17) 0.07270(16) 0.79095(16)
O26 O -0.00944(19) 0.02021(18) 0.77300(17)
C91 C 0.0495(3) 0.0789(2) 0.7489(2)
C92 C 0.0039(3) 0.0499(3) 0.7390(3)
C93 C -0.0237(4) 0.0526(3) 0.6973(3)
H73 H -0.0539 0.0330 0.6909
C94 C -0.0057(4) 0.0852(4) 0.6648(3)
H74 H -0.0242 0.0875 0.6364
C95 C 0.0374(4) 0.1132(3) 0.6735(3)
H75 H 0.0484 0.1348 0.6509
C96 C 0.0669(3) 0.1112(3) 0.7158(3)
C97 C 0.1110(3) 0.1449(3) 0.7254(3)
O27 O 0.1348(2) 0.1500(2) 0.7613(2)
O28 O 0.1209(3) 0.17312(19) 0.68915(19)
C98 C 0.1557(4) 0.2117(3) 0.6933(3)
H76 H 0.1497 0.2254 0.7242
C99 C 0.2142(5) 0.1967(4) 0.6905(5)
H77 H 0.2213 0.1733 0.7139
H78 H 0.2383 0.2231 0.6954
H79 H 0.2213 0.1836 0.6602
C100 C 0.1390(3) 0.2473(2) 0.6581(2)
C101 C 0.0866(3) 0.2461(2) 0.6382(3)
H80 H 0.0613 0.2228 0.6467
C102 C 0.0716(3) 0.2793(3) 0.6058(3)
H81 H 0.0361 0.2785 0.5923
C103 C 0.1090(4) 0.3138(3) 0.5932(3)
H82 H 0.0988 0.3363 0.5713
C104 C 0.1614(4) 0.3150(3) 0.6131(4)
H83 H 0.1867 0.3384 0.6046
C105 C 0.1764(3) 0.2818(3) 0.6455(4)
H84 H 0.2118 0.2827 0.6590
O29 O 0.06476(18) 0.05501(16) 0.88528(16)
O30 O -0.03276(19) 0.05926(19) 0.85622(17)
C106 C 0.0312(3) 0.0790(2) 0.9126(2)
C107 C -0.0249(3) 0.0799(3) 0.8966(3)
C108 C -0.0646(3) 0.1016(3) 0.9231(3)
H85 H -0.1016 0.1018 0.9130
C109 C -0.0513(4) 0.1231(4) 0.9640(3)
H86 H -0.0792 0.1372 0.9818
C110 C 0.0027(4) 0.1237(3) 0.9786(3)
H87 H 0.0114 0.1398 1.0059
C111 C 0.0454(3) 0.1014(3) 0.9544(2)
C112 C 0.1017(4) 0.0996(3) 0.9705(3)
O31 O 0.1410(2) 0.0834(2) 0.95052(17)
O32 O 0.1094(3) 0.1214(2) 1.01184(18)
C113 C 0.1650(4) 0.1233(3) 1.0287(3)
H88 H 0.1881 0.1391 1.0052
C114 C 0.1632(6) 0.1534(4) 1.0707(4)
H89 H 0.1421 0.1813 1.0641
H90 H 0.2007 0.1619 1.0796
H91 H 0.1457 0.1366 1.0958
C115 C 0.1888(4) 0.0762(2) 1.0369(3)
C116 C 0.2414(4) 0.0659(4) 1.0203(3)
H92 H 0.2616 0.0885 1.0040
C117 C 0.2641(5) 0.0221(5) 1.0276(4)
H93 H 0.2997 0.0151 1.0164
C118 C 0.2342(7) -0.0113(3) 1.0516(4)
H94 H 0.2495 -0.0409 1.0566
C119 C 0.1815(7) -0.0010(3) 1.0683(3)
H95 H 0.1613 -0.0236 1.0845
C120 C 0.1589(4) 0.0428(4) 1.0609(3)
H96 H 0.1233 0.0498 1.0721
O33 O 0.09536(18) -0.01473(15) 0.82943(16)
O34 O -0.0043(2) -0.03180(18) 0.84747(18)
C121 C 0.0847(3) -0.0607(2) 0.8332(3)
C122 C 0.0277(3) -0.0696(3) 0.8420(3)
C123 C 0.0099(4) -0.1150(3) 0.8455(3)
H97 H -0.0277 -0.1214 0.8513
C124 C 0.0463(4) -0.1505(3) 0.8408(4)
H98 H 0.0333 -0.1812 0.8434
C125 C 0.1020(4) -0.1431(3) 0.8322(3)
H99 H 0.1265 -0.1682 0.8286
C126 C 0.1213(3) -0.0964(3) 0.8290(3)
C127 C 0.1820(3) -0.0878(3) 0.8225(2)
O35 O 0.2012(2) -0.04952(19) 0.8174(2)
O36 O 0.2139(3) -0.1241(2) 0.8243(2)
C128 C 0.2734(4) -0.1149(3) 0.8188(4)
H100 H 0.2855 -0.0913 0.8414
C129 C 0.3025(5) -0.1624(5) 0.8294(7)
H101 H 0.2865 -0.1865 0.8101
H102 H 0.2971 -0.1703 0.8615
H103 H 0.3418 -0.1599 0.8229
C130 C 0.2851(3) -0.0981(2) 0.7709(2)
C131 C 0.2695(3) -0.1241(3) 0.7326(3)
H104 H 0.2523 -0.1531 0.7366
C132 C 0.2793(4) -0.1070(4) 0.6886(2)
H105 H 0.2687 -0.1246 0.6627
C133 C 0.3048(4) -0.0641(4) 0.6828(2)
H106 H 0.3114 -0.0526 0.6530
C134 C 0.3204(3) -0.0382(3) 0.7210(3)
H107 H 0.3376 -0.0092 0.7171
C135 C 0.3106(3) -0.0552(2) 0.7651(3)
H108 H 0.3211 -0.0377 0.7910
O37 O 0.18528(18) 0.12147(16) 0.85699(16)
O38 O 0.27971(19) 0.12471(17) 0.89085(19)
C136 C 0.1912(3) 0.1561(2) 0.8881(2)
C137 C 0.2448(3) 0.1580(3) 0.9078(3)
C138 C 0.2566(4) 0.1905(3) 0.9410(3)
H109 H 0.2922 0.1915 0.9540
C139 C 0.2174(4) 0.2210(3) 0.9551(3)
H110 H 0.2261 0.2430 0.9779
C140 C 0.1649(4) 0.2201(3) 0.9365(3)
H111 H 0.1382 0.2414 0.9471
C141 C 0.1507(3) 0.1879(2) 0.9019(3)
C142 C 0.0952(3) 0.1862(3) 0.8815(3)
O39 O 0.0793(2) 0.15654(17) 0.85491(18)
O40 O 0.0622(2) 0.22095(19) 0.8952(2)
C143 C 0.0033(3) 0.2162(3) 0.8801(3)
H112 H -0.0101 0.1848 0.8884
C144 C -0.0273(4) 0.2519(4) 0.9090(4)
H113 H -0.0133 0.2827 0.9020
H114 H -0.0215 0.2453 0.9415
H115 H -0.0666 0.2505 0.9021
C145 C -0.0030(2) 0.2230(2) 0.82965(17)
C146 C -0.0215(2) 0.18590(16) 0.8031(2)
H116 H -0.0278 0.1568 0.8169
C147 C -0.0306(3) 0.1918(2) 0.7562(2)
H117 H -0.0431 0.1667 0.7382
C148 C -0.0214(4) 0.2348(3) 0.73579(18)
H118 H -0.0275 0.2388 0.7041
C149 C -0.0029(4) 0.2719(2) 0.7623(3)
H119 H 0.0034 0.3010 0.7485
C150 C 0.0063(4) 0.26601(18) 0.8093(3)
H120 H 0.0188 0.2911 0.8272
O41 O 0.21538(19) 0.03128(16) 0.88234(17)
O42 O 0.31372(19) 0.04275(19) 0.8572(2)
C151 C 0.2509(3) 0.0004(3) 0.8996(3)
C152 C 0.3070(3) 0.0076(2) 0.8863(3)
C153 C 0.3488(3) -0.0207(3) 0.9019(3)
H121 H 0.3856 -0.0156 0.8926
C154 C 0.3365(4) -0.0562(3) 0.9311(3)
H122 H 0.3654 -0.0749 0.9423
C155 C 0.2820(4) -0.0656(3) 0.9449(3)
H123 H 0.2747 -0.0908 0.9647
C156 C 0.2376(3) -0.0371(3) 0.9291(3)
C157 C 0.1815(4) -0.0458(3) 0.9443(3)
O43 O 0.1415(2) -0.0217(2) 0.93537(19)
O44 O 0.1773(3) -0.0835(2) 0.9717(2)
C158 C 0.1225(4) -0.0951(4) 0.9886(4)
H124 H 0.1019 -0.0659 0.9944
C159 C 0.0927(5) -0.1218(5) 0.9536(4)
H125 H 0.1149 -0.1484 0.9445
H126 H 0.0859 -0.1024 0.9269
H127 H 0.0576 -0.1325 0.9661
C160 C 0.1290(4) -0.1208(3) 1.0336(2)
C161 C 0.0879(4) -0.1168(3) 1.0670(3)
H128 H 0.0585 -0.0958 1.0628
C162 C 0.0902(5) -0.1440(4) 1.1065(3)
H129 H 0.0624 -0.1413 1.1291
C163 C 0.1336(6) -0.1751(3) 1.1128(3)
H130 H 0.1352 -0.1935 1.1395
C164 C 0.1747(5) -0.1791(3) 1.0794(4)
H131 H 0.2040 -0.2002 1.0836
C165 C 0.1724(4) -0.1520(3) 1.0398(3)
H132 H 0.2002 -0.1547 1.0173
O45 O 0.20906(19) 0.05668(17) 0.79160(16)
O46 O 0.2908(2) 0.11074(17) 0.79520(19)
C166 C 0.2331(3) 0.0654(3) 0.7502(3)
C167 C 0.2792(3) 0.0948(3) 0.7527(3)
C168 C 0.3084(3) 0.1060(3) 0.7130(3)
H133 H 0.3395 0.1256 0.7148
C169 C 0.2916(4) 0.0884(3) 0.6711(3)
H134 H 0.3118 0.0956 0.6443
C170 C 0.2458(4) 0.0603(3) 0.6681(3)
H135 H 0.2348 0.0487 0.6392
C171 C 0.2148(3) 0.0483(3) 0.7074(2)
C172 C 0.1674(3) 0.0166(3) 0.7038(3)
O47 O 0.1435(2) -0.0001(2) 0.73604(19)
O48 O 0.1533(3) 0.0079(2) 0.66021(19)
C173 C 0.1043(4) -0.0232(4) 0.6540(3)
H136 H 0.0768 -0.0164 0.6783
C174 C 0.0810(5) -0.0074(4) 0.6072(4)
H137 H 0.0649 0.0233 0.6104
H138 H 0.0528 -0.0291 0.5971
H139 H 0.1107 -0.0064 0.5847
C175 C 0.1202(3) -0.0723(2) 0.6569(3)
C176 C 0.1031(4) -0.0977(4) 0.6950(3)
H140 H 0.0837 -0.0830 0.7190
C177 C 0.1148(5) -0.1449(4) 0.6978(4)
H141 H 0.1032 -0.1621 0.7236
C178 C 0.1436(5) -0.1667(2) 0.6624(5)
H142 H 0.1514 -0.1987 0.6642
C179 C 0.1606(4) -0.1413(3) 0.6242(4)
H143 H 0.1801 -0.1561 0.6002
C180 C 0.1490(4) -0.0941(3) 0.6214(3)
H144 H 0.1605 -0.0769 0.5956
O49 O -0.0996(5) -0.0803(4) 0.7584(4)
C181 C -0.1363(11) -0.1196(8) 0.7700(10)
H145 H -0.1754 -0.1113 0.7740
H146 H -0.1229 -0.1394 0.7951
C182 C -0.1207(18) -0.1364(15) 0.7211(16)
H147 H -0.1390 -0.1657 0.7148
H148 H -0.0809 -0.1406 0.7192
H149 H -0.1324 -0.1134 0.6986
C183 C -0.0490(10) -0.0877(8) 0.7312(8)
H150 H -0.0229 -0.0624 0.7374
H151 H -0.0314 -0.1168 0.7412
C184 C -0.0589(14) -0.0900(12) 0.6841(12)
H152 H -0.0241 -0.0949 0.6680
H153 H -0.0755 -0.0611 0.6739
H154 H -0.0839 -0.1156 0.6776
O50 O 0.3819(7) 0.1695(6) 0.8114(6)
O51 O 0.3991(9) 0.0986(7) 0.9727(8)
O14_2 O 0.5008(2) 0.12897(18) 0.8880(2)
O22_2 O 0.4654(2) 0.05268(19) 0.84083(19)
K2_2 K -0.61022(10) 0.11112(11) 0.87830(13)
O52 O -0.3364(7) -0.2316(6) 0.6677(5)
H155 H -0.3489 -0.2583 0.6650
C185 C -0.2750(16) -0.2326(13) 0.6629(12)
H156 H -0.2678 -0.2425 0.6311
H157 H -0.2630 -0.2002 0.6648
C186 C -0.2437(11) -0.2538(9) 0.6859(9)
H158 H -0.2060 -0.2471 0.6763
H159 H -0.2509 -0.2868 0.6825
H160 H -0.2484 -0.2449 0.7179
O53 O -0.2015(6) 0.1636(5) 0.6716(5)
H161 H -0.2097 0.1897 0.6816
C187 C -0.1976(12) 0.1335(10) 0.7071(9)
H162 H -0.1686 0.1445 0.7281
H163 H -0.2327 0.1337 0.7240
C188 C -0.1861(11) 0.0901(9) 0.6949(9)
H164 H -0.1840 0.0708 0.7222
H165 H -0.1508 0.0893 0.6789
H166 H -0.2150 0.0785 0.6747
O54 O -0.0327(12) -0.0357(10) 0.9682(10)
O55 O -0.0066(9) -0.0149(7) 1.0384(8)
loop_
_geom_bond_atom_site_label_1
_geom_bond_atom_site_label_2
_geom_bond_site_symmetry_1
_geom_bond_site_symmetry_2
K1 O2 1_555 1_555
Ti1 O1 1_555 1_555
Ti2 O13 1_555 1_555
Li1 O1 1_555 1_555
Li2 O5 1_555 1_555
Li3 O9 1_555 1_555
O1 C1 1_555 1_555
O2 Ti1 1_555 1_555
C1 C2 1_555 1_555
C2 O2 1_555 1_555
C3 C2 1_555 1_555
H1 C3 1_555 1_555
C4 C3 1_555 1_555
H2 C4 1_555 1_555
C5 C4 1_555 1_555
H3 C5 1_555 1_555
C6 C1 1_555 1_555
C7 C6 1_555 1_555
O3 Li1 1_555 1_555
O4 C7 1_555 1_555
C8 O4 1_555 1_555
H4 C8 1_555 1_555
C9 C8 1_555 1_555
H5 C9 1_555 1_555
H6 C9 1_555 1_555
H7 C9 1_555 1_555
C10 C8 1_555 1_555
C11 C10 1_555 1_555
H8 C11 1_555 1_555
C12 C11 1_555 1_555
H9 C12 1_555 1_555
C13 C12 1_555 1_555
H10 C13 1_555 1_555
C14 C13 1_555 1_555
H11 C14 1_555 1_555
C15 C10 1_555 1_555
H12 C15 1_555 1_555
O5 Ti1 1_555 1_555
O6 K1 1_555 1_555
C16 O5 1_555 1_555
C17 O6 1_555 1_555
C18 C17 1_555 1_555
H13 C18 1_555 1_555
C19 C18 1_555 1_555
H14 C19 1_555 1_555
C20 C19 1_555 1_555
H15 C20 1_555 1_555
C21 C16 1_555 1_555
C22 C21 1_555 1_555
O7 Li2 1_555 1_555
O8 C22 1_555 1_555
C23 O8 1_555 1_555
H16 C23 1_555 1_555
C24 C23 1_555 1_555
H17 C24 1_555 1_555
H18 C24 1_555 1_555
H19 C24 1_555 1_555
C25 C23 1_555 1_555
C26 C25 1_555 1_555
H20 C26 1_555 1_555
C27 C26 1_555 1_555
H21 C27 1_555 1_555
C28 C27 1_555 1_555
H22 C28 1_555 1_555
C29 C28 1_555 1_555
H23 C29 1_555 1_555
C30 C25 1_555 1_555
H24 C30 1_555 1_555
O9 Ti1 1_555 1_555
O10 K1 1_555 1_555
C31 O9 1_555 1_555
C32 O10 1_555 1_555
C33 C32 1_555 1_555
H25 C33 1_555 1_555
C34 C33 1_555 1_555
H26 C34 1_555 1_555
C35 C34 1_555 1_555
H27 C35 1_555 1_555
C36 C31 1_555 1_555
C37 C36 1_555 1_555
O11 Li3 1_555 1_555
O12 C37 1_555 1_555
C38 O12 1_555 1_555
H28 C38 1_555 1_555
C39 C38 1_555 1_555
H29 C39 1_555 1_555
H30 C39 1_555 1_555
H31 C39 1_555 1_555
C40 C38 1_555 1_555
C41 C40 1_555 1_555
H32 C41 1_555 1_555
C42 C41 1_555 1_555
H33 C42 1_555 1_555
C43 C42 1_555 1_555
H34 C43 1_555 1_555
C44 C43 1_555 1_555
H35 C44 1_555 1_555
C45 C40 1_555 1_555
H36 C45 1_555 1_555
O13 Li1 1_555 1_555
O14 Ti2 1_555 1_555
C46 O13 1_555 1_555
C47 O14 1_555 1_555
C48 C47 1_555 1_555
H37 C48 1_555 1_555
C49 C48 1_555 1_555
H38 C49 1_555 1_555
C50 C49 1_555 1_555
H39 C50 1_555 1_555
C51 C46 1_555 1_555
C52 C51 1_555 1_555
O15 Li1 1_555 1_555
O16 C52 1_555 1_555
C53 O16 1_555 1_555
H40 C53 1_555 1_555
C54 C53 1_555 1_555
H41 C54 1_555 1_555
H42 C54 1_555 1_555
H43 C54 1_555 1_555
C55 C53 1_555 1_555
C56 C55 1_555 1_555
H44 C56 1_555 1_555
C57 C56 1_555 1_555
H45 C57 1_555 1_555
C58 C57 1_555 1_555
H46 C58 1_555 1_555
C59 C58 1_555 1_555
H47 C59 1_555 1_555
C60 C55 1_555 1_555
H48 C60 1_555 1_555
O17 Ti2 1_555 1_555
O18 Ti2 1_555 1_555
C61 O17 1_555 1_555
C62 O18 1_555 1_555
C63 C62 1_555 1_555
H49 C63 1_555 1_555
C64 C63 1_555 1_555
H50 C64 1_555 1_555
C65 C64 1_555 1_555
H51 C65 1_555 1_555
C66 C61 1_555 1_555
C67 C66 1_555 1_555
O19 Li2 1_555 1_555
O20 C67 1_555 1_555
C68 O20 1_555 1_555
H52 C68 1_555 1_555
C69 C68 1_555 1_555
H53 C69 1_555 1_555
H54 C69 1_555 1_555
H55 C69 1_555 1_555
C70 C68 1_555 1_555
C71 C70 1_555 1_555
H56 C71 1_555 1_555
C72 C71 1_555 1_555
H57 C72 1_555 1_555
C73 C72 1_555 1_555
H58 C73 1_555 1_555
C74 C73 1_555 1_555
H59 C74 1_555 1_555
C75 C70 1_555 1_555
H60 C75 1_555 1_555
O21 Ti2 1_555 1_555
O22 Ti2 1_555 1_555
C76 O21 1_555 1_555
C77 O22 1_555 1_555
C78 C77 1_555 1_555
H61 C78 1_555 1_555
C79 C78 1_555 1_555
H62 C79 1_555 1_555
C80 C79 1_555 1_555
H63 C80 1_555 1_555
C81 C76 1_555 1_555
C82 C81 1_555 1_555
O23 Li3 1_555 1_555
O24 C82 1_555 1_555
C83 O24 1_555 1_555
H64 C83 1_555 1_555
C84 C83 1_555 1_555
H65 C84 1_555 1_555
H66 C84 1_555 1_555
H67 C84 1_555 1_555
C85 C83 1_555 1_555
C86 C85 1_555 1_555
H68 C86 1_555 1_555
C87 C86 1_555 1_555
H69 C87 1_555 1_555
C88 C87 1_555 1_555
H70 C88 1_555 1_555
C89 C88 1_555 1_555
H71 C89 1_555 1_555
C90 C85 1_555 1_555
H72 C90 1_555 1_555
K2 O38 1_555 1_555
Ti3 O25 1_555 1_555
Ti4 O37 1_555 1_555
Li4 O25 1_555 1_555
Li5 O29 1_555 1_555
Li6 O33 1_555 1_555
O25 C91 1_555 1_555
O26 K1 1_555 1_555
C91 C92 1_555 1_555
C92 O26 1_555 1_555
C93 C92 1_555 1_555
H73 C93 1_555 1_555
C94 C93 1_555 1_555
H74 C94 1_555 1_555
C95 C94 1_555 1_555
H75 C95 1_555 1_555
C96 C91 1_555 1_555
C97 C96 1_555 1_555
O27 Li4 1_555 1_555
O28 C97 1_555 1_555
C98 O28 1_555 1_555
H76 C98 1_555 1_555
C99 C98 1_555 1_555
H77 C99 1_555 1_555
H78 C99 1_555 1_555
H79 C99 1_555 1_555
C100 C98 1_555 1_555
C101 C100 1_555 1_555
H80 C101 1_555 1_555
C102 C101 1_555 1_555
H81 C102 1_555 1_555
C103 C102 1_555 1_555
H82 C103 1_555 1_555
C104 C103 1_555 1_555
H83 C104 1_555 1_555
C105 C100 1_555 1_555
H84 C105 1_555 1_555
O29 Ti3 1_555 1_555
O30 K1 1_555 1_555
C106 O29 1_555 1_555
C107 O30 1_555 1_555
C108 C107 1_555 1_555
H85 C108 1_555 1_555
C109 C108 1_555 1_555
H86 C109 1_555 1_555
C110 C109 1_555 1_555
H87 C110 1_555 1_555
C111 C106 1_555 1_555
C112 C111 1_555 1_555
O31 Li5 1_555 1_555
O32 C112 1_555 1_555
C113 O32 1_555 1_555
H88 C113 1_555 1_555
C114 C113 1_555 1_555
H89 C114 1_555 1_555
H90 C114 1_555 1_555
H91 C114 1_555 1_555
C115 C113 1_555 1_555
C116 C115 1_555 1_555
H92 C116 1_555 1_555
C117 C116 1_555 1_555
H93 C117 1_555 1_555
C118 C117 1_555 1_555
H94 C118 1_555 1_555
C119 C118 1_555 1_555
H95 C119 1_555 1_555
C120 C115 1_555 1_555
H96 C120 1_555 1_555
O33 Ti3 1_555 1_555
O34 K1 1_555 1_555
C121 O33 1_555 1_555
C122 O34 1_555 1_555
C123 C122 1_555 1_555
H97 C123 1_555 1_555
C124 C123 1_555 1_555
H98 C124 1_555 1_555
C125 C124 1_555 1_555
H99 C125 1_555 1_555
C126 C121 1_555 1_555
C127 C126 1_555 1_555
O35 Li6 1_555 1_555
O36 C127 1_555 1_555
C128 O36 1_555 1_555
H100 C128 1_555 1_555
C129 C128 1_555 1_555
H101 C129 1_555 1_555
H102 C129 1_555 1_555
H103 C129 1_555 1_555
C130 C128 1_555 1_555
C131 C130 1_555 1_555
H104 C131 1_555 1_555
C132 C131 1_555 1_555
H105 C132 1_555 1_555
C133 C132 1_555 1_555
H106 C133 1_555 1_555
C134 C133 1_555 1_555
H107 C134 1_555 1_555
C135 C130 1_555 1_555
H108 C135 1_555 1_555
O37 Li4 1_555 1_555
O38 Ti4 1_555 1_555
C136 O37 1_555 1_555
C137 O38 1_555 1_555
C138 C137 1_555 1_555
H109 C138 1_555 1_555
C139 C138 1_555 1_555
H110 C139 1_555 1_555
C140 C139 1_555 1_555
H111 C140 1_555 1_555
C141 C136 1_555 1_555
C142 C141 1_555 1_555
O39 Li4 1_555 1_555
O40 C142 1_555 1_555
C143 O40 1_555 1_555
H112 C143 1_555 1_555
C144 C143 1_555 1_555
H113 C144 1_555 1_555
H114 C144 1_555 1_555
H115 C144 1_555 1_555
C145 C143 1_555 1_555
C146 C145 1_555 1_555
H116 C146 1_555 1_555
C147 C146 1_555 1_555
H117 C147 1_555 1_555
C148 C147 1_555 1_555
H118 C148 1_555 1_555
C149 C148 1_555 1_555
H119 C149 1_555 1_555
C150 C145 1_555 1_555
H120 C150 1_555 1_555
O41 Ti4 1_555 1_555
O42 K2 1_555 1_555
C151 O41 1_555 1_555
C152 O42 1_555 1_555
C153 C152 1_555 1_555
H121 C153 1_555 1_555
C154 C153 1_555 1_555
H122 C154 1_555 1_555
C155 C154 1_555 1_555
H123 C155 1_555 1_555
C156 C151 1_555 1_555
C157 C156 1_555 1_555
O43 Li5 1_555 1_555
O44 C157 1_555 1_555
C158 O44 1_555 1_555
H124 C158 1_555 1_555
C159 C158 1_555 1_555
H125 C159 1_555 1_555
H126 C159 1_555 1_555
H127 C159 1_555 1_555
C160 C158 1_555 1_555
C161 C160 1_555 1_555
H128 C161 1_555 1_555
C162 C161 1_555 1_555
H129 C162 1_555 1_555
C163 C162 1_555 1_555
H130 C163 1_555 1_555
C164 C163 1_555 1_555
H131 C164 1_555 1_555
C165 C160 1_555 1_555
H132 C165 1_555 1_555
O45 Ti4 1_555 1_555
O46 Ti4 1_555 1_555
C166 O45 1_555 1_555
C167 O46 1_555 1_555
C168 C167 1_555 1_555
H133 C168 1_555 1_555
C169 C168 1_555 1_555
H134 C169 1_555 1_555
C170 C169 1_555 1_555
H135 C170 1_555 1_555
C171 C166 1_555 1_555
C172 C171 1_555 1_555
O47 Li6 1_555 1_555
O48 C172 1_555 1_555
C173 O48 1_555 1_555
H136 C173 1_555 1_555
C174 C173 1_555 1_555
H137 C174 1_555 1_555
H138 C174 1_555 1_555
H139 C174 1_555 1_555
C175 C173 1_555 1_555
C176 C175 1_555 1_555
H140 C176 1_555 1_555
C177 C176 1_555 1_555
H141 C177 1_555 1_555
C178 C177 1_555 1_555
H142 C178 1_555 1_555
C179 C178 1_555 1_555
H143 C179 1_555 1_555
C180 C175 1_555 1_555
H144 C180 1_555 1_555
O49 K1 1_555 1_555
C181 O49 1_555 1_555
H145 C181 1_555 1_555
H146 C181 1_555 1_555
C182 C181 1_555 1_555
H147 C182 1_555 1_555
H148 C182 1_555 1_555
H149 C182 1_555 1_555
C183 O49 1_555 1_555
H150 C183 1_555 1_555
H151 C183 1_555 1_555
C184 C183 1_555 1_555
H152 C184 1_555 1_555
H153 C184 1_555 1_555
H154 C184 1_555 1_555
O50 K2 1_555 1_555
O51 K2 1_555 1_555
O52 H155 1_555 1_555
C185 O52 1_555 1_555
H156 C185 1_555 1_555
H157 C185 1_555 1_555
C186 C185 1_555 1_555
H158 C186 1_555 1_555
H159 C186 1_555 1_555
H160 C186 1_555 1_555
O53 H161 1_555 1_555
C187 O53 1_555 1_555
H162 C187 1_555 1_555
H163 C187 1_555 1_555
C188 C187 1_555 1_555
H164 C188 1_555 1_555
H165 C188 1_555 1_555
H166 C188 1_555 1_555
O14_2 K2 1_555 1_555
O22_2 K2 1_555 1_555
K2_2 O14 1_555 1_555
Ti1 O6 1_555 1_555
Ti1 O10 1_555 1_555
Li2 O17 1_555 1_555
Li3 O21 1_555 1_555
C5 C6 1_555 1_555
C7 O3 1_555 1_555
C14 C15 1_555 1_555
C16 C17 1_555 1_555
C20 C21 1_555 1_555
C22 O7 1_555 1_555
C29 C30 1_555 1_555
C31 C32 1_555 1_555
C35 C36 1_555 1_555
C37 O11 1_555 1_555
C44 C45 1_555 1_555
C46 C47 1_555 1_555
C50 C51 1_555 1_555
C52 O15 1_555 1_555
C59 C60 1_555 1_555
C61 C62 1_555 1_555
C65 C66 1_555 1_555
C67 O19 1_555 1_555
C74 C75 1_555 1_555
O22 K2_2 1_555 1_555
C76 C77 1_555 1_555
C80 C81 1_555 1_555
C82 O23 1_555 1_555
C89 C90 1_555 1_555
Ti3 O26 1_555 1_555
Ti3 O30 1_555 1_555
Ti3 O34 1_555 1_555
Ti4 O42 1_555 1_555
Li5 O41 1_555 1_555
Li6 O45 1_555 1_555
C95 C96 1_555 1_555
C97 O27 1_555 1_555
C104 C105 1_555 1_555
C106 C107 1_555 1_555
C110 C111 1_555 1_555
C112 O31 1_555 1_555
C119 C120 1_555 1_555
C121 C122 1_555 1_555
C125 C126 1_555 1_555
C127 O35 1_555 1_555
C134 C135 1_555 1_555
C136 C137 1_555 1_555
C140 C141 1_555 1_555
C142 O39 1_555 1_555
C149 C150 1_555 1_555
C151 C152 1_555 1_555
C155 C156 1_555 1_555
C157 O43 1_555 1_555
C164 C165 1_555 1_555
C166 C167 1_555 1_555
C170 C171 1_555 1_555
C172 O47 1_555 1_555
C179 C180 1_555 1_555

#END
