
#######################################################################
#
#                 Cambridge Crystallographic Data Centre
#                                CCDC 
#
#######################################################################
#
# If this CIF has been generated from an entry in the Cambridge 
# Structural Database, then it will include bibliographic, chemical, 
# crystal, experimental, refinement or atomic coordinate data resulting 
# from the CCDC's data processing and validation procedures.
#
#######################################################################

data_AQETIA01
_symmetry_cell_setting           monoclinic
_symmetry_space_group_name_H-M   'P 21/c'
_symmetry_Int_Tables_number      14
_space_group_name_Hall           '-P 2ybc'
loop_
_symmetry_equiv_pos_site_id
_symmetry_equiv_pos_as_xyz
1 x,y,z
2 -x,1/2+y,1/2-z
3 -x,-y,-z
4 x,1/2-y,1/2+z
_cell_length_a                   10.411(5)
_cell_length_b                   15.2090(18)
_cell_length_c                   14.1301(16)
_cell_angle_alpha                90
_cell_angle_beta                 109.71(3)
_cell_angle_gamma                90
_cell_volume                     2106.29
loop_
_atom_site_label
_atom_site_type_symbol
_atom_site_fract_x
_atom_site_fract_y
_atom_site_fract_z
Nb1 Nb 0.5976(5) 0.0221(2) 0.8055(2)
Mn1 Mn 0.0985(10) -0.0512(3) 0.7949(4)
Mn2 Mn 0.4090(9) 0.2232(3) 0.4815(4)
O1 O 0.145(4) 0.0914(13) 0.8392(15)
O2 O 0.037(4) -0.1908(15) 0.7698(17)
O3 O 0.191(4) 0.1982(14) 0.4159(16)
O4 O 0.632(4) 0.2507(12) 0.5628(15)
N1 N 0.295(6) -0.061(2) 0.750(2)
N2 N 0.416(4) 0.1280(15) 0.5958(19)
N3 N 0.764(5) 0.206(2) 0.784(2)
N4 N 0.902(7) -0.0406(19) 0.845(2)
N5 N 0.559(4) -0.1227(16) 0.623(2)
N6 N 0.639(4) -0.1687(17) 0.9291(18)
N7 N 0.775(4) 0.0759(17) 1.045(2)
N8 N 0.416(5) 0.176(2) 0.873(2)
N9 N -0.011(5) 0.0079(17) 0.6387(19)
N10 N -0.154(5) -0.0112(18) 0.601(2)
C1 C 0.395(7) -0.031(2) 0.770(3)
C2 C 0.477(5) 0.089(2) 0.668(3)
C3 C 0.711(5) 0.141(2) 0.787(2)
C4 C 0.809(8) -0.017(3) 0.822(3)
C5 C 0.576(5) -0.075(2) 0.686(2)
C6 C 0.621(6) -0.099(2) 0.886(3)
C7 C 0.713(5) 0.059(2) 0.961(3)
C8 C 0.486(6) 0.124(2) 0.844(2)
C9 C 0.036(5) 0.076(2) 0.603(2)
H1 H 0.1285 0.0882 0.6277
C10 C -0.050(5) 0.130(3) 0.530(3)
H2 H -0.0132 0.1772 0.5065
C11 C -0.187(5) 0.114(2) 0.492(3)
H3 H -0.2469 0.1508 0.4453
C12 C -0.232(5) 0.040(2) 0.528(2)
H4 H -0.323 0.0249 0.4988
Mn1_2 Mn 1.0985(10) -0.0512(3) 0.7949(4)
Mn1B Mn 0.9015(10) 0.0512(3) 1.2051(4)
Mn2B Mn 0.5910(9) -0.2232(3) 0.5185(4)
Mn2A Mn 0.5910(9) -0.2768(3) 1.0185(4)
Mn2C Mn 0.4090(9) 0.2768(3) 0.9815(4)
N4_2 N -0.098(7) -0.0406(19) 0.845(2)
N5B N 0.441(4) 0.1227(16) 0.377(2)
N6A N 0.361(4) 0.3313(17) 0.5709(18)
N7B N 0.225(4) -0.0759(17) 0.955(2)
N8C N 0.416(5) 0.324(2) 0.373(2)
O5 O 0.176(4) 0.2521(13) 0.6873(16)
O6 O 1.012(4) 0.1625(14) 0.9720(16)
loop_
_geom_bond_atom_site_label_1
_geom_bond_atom_site_label_2
_geom_bond_site_symmetry_1
_geom_bond_site_symmetry_2
Nb1 C1 1_555 1_555
Mn1 O1 1_555 1_555
Mn2 O3 1_555 1_555
O2 Mn1 1_555 1_555
O4 Mn2 1_555 1_555
N1 Mn1 1_555 1_555
N2 Mn2 1_555 1_555
N3 C3 1_555 1_555
N4 C4 1_555 1_555
N5 C5 1_555 1_555
N6 C6 1_555 1_555
N7 C7 1_555 1_555
N8 C8 1_555 1_555
N9 Mn1 1_555 1_555
N10 N9 1_555 1_555
C1 N1 1_555 1_555
C2 Nb1 1_555 1_555
C3 Nb1 1_555 1_555
C4 Nb1 1_555 1_555
C5 Nb1 1_555 1_555
C6 Nb1 1_555 1_555
C7 Nb1 1_555 1_555
C8 Nb1 1_555 1_555
C9 N9 1_555 1_555
H1 C9 1_555 1_555
C10 C9 1_555 1_555
H2 C10 1_555 1_555
C11 C10 1_555 1_555
H3 C11 1_555 1_555
C12 N10 1_555 1_555
H4 C12 1_555 1_555
Mn1_2 N4 1_555 1_555
Mn1B N7 1_555 1_555
Mn2B N5 1_555 1_555
Mn2A N6 1_555 1_555
Mn2C N8 1_555 1_555
N4_2 Mn1 1_555 1_555
N5B Mn2 1_555 1_555
N6A Mn2 1_555 1_555
N7B Mn1 1_555 1_555
N8C Mn2 1_555 1_555
N2 C2 1_555 1_555
C11 C12 1_555 1_555

#END
