
#######################################################################
#
#                 Cambridge Crystallographic Data Centre
#                                CCDC 
#
#######################################################################
#
# If this CIF has been generated from an entry in the Cambridge 
# Structural Database, then it will include bibliographic, chemical, 
# crystal, experimental, refinement or atomic coordinate data resulting 
# from the CCDC's data processing and validation procedures.
#
#######################################################################

data_AQETIA
_symmetry_cell_setting           monoclinic
_symmetry_space_group_name_H-M   'P 21/c'
_symmetry_Int_Tables_number      14
_space_group_name_Hall           '-P 2ybc'
loop_
_symmetry_equiv_pos_site_id
_symmetry_equiv_pos_as_xyz
1 x,y,z
2 -x,1/2+y,1/2-z
3 -x,-y,-z
4 x,1/2-y,1/2+z
_cell_length_a                   10.60520(10)
_cell_length_b                   15.5751(2)
_cell_length_c                   14.3869(2)
_cell_angle_alpha                90
_cell_angle_beta                 108.2850(10)
_cell_angle_gamma                90
_cell_volume                     2256.4
loop_
_atom_site_label
_atom_site_type_symbol
_atom_site_fract_x
_atom_site_fract_y
_atom_site_fract_z
Nb1 Nb 0.396049(10) 0.021283(7) 0.695107(8)
Mn1 Mn 0.41335(2) -0.224439(13) 0.983216(15)
Mn2 Mn 0.107200(18) 0.051350(15) 0.302810(16)
O1 O 0.15234(13) -0.08570(8) 0.34776(11)
O2 O 0.19737(11) -0.20715(8) 0.92405(11)
O3 O 0.62999(13) -0.24924(9) 1.05672(11)
C1 C 0.28391(14) 0.05763(9) 0.53935(11)
C2 C 0.50817(14) 0.08854(9) 0.83352(11)
O4 O 0.05327(13) 0.18258(8) 0.26709(12)
C3 C 0.18578(14) -0.02168(9) 0.67198(11)
C4 C 0.51155(13) 0.12433(9) 0.64832(11)
N1 N 0.22551(13) 0.07821(10) 0.46069(10)
N2 N 0.36904(14) -0.16664(9) 0.56945(11)
N3 N 0.42377(14) -0.12497(9) 0.87633(10)
C5 C 0.37847(14) -0.10305(9) 0.61151(11)
N4 N 0.55922(14) 0.12931(9) 0.90137(10)
N5 N 0.07764(12) -0.04077(9) 0.65989(11)
N6 N 0.57016(13) 0.17580(9) 0.62254(10)
C6 C 0.60416(13) -0.02911(9) 0.72476(11)
C7 C 0.41314(13) -0.07553(9) 0.81549(11)
N7 N -0.01158(14) -0.00547(10) 0.15155(11)
C8 C 0.27928(15) 0.13751(10) 0.71335(13)
N8 N 0.71013(12) -0.05187(10) 0.73548(11)
N9 N 0.21789(16) 0.19515(11) 0.72306(15)
N10 N -0.12557(16) 0.03127(10) 0.10089(13)
C9 C 0.0171(2) -0.08208(15) 0.12476(17)
H1 H 0.0984 -0.1064 0.1593
C10 C -0.0672(3) -0.12849(15) 0.04805(18)
H2 H -0.044 -0.1827 0.0317
C11 C -0.2082(2) -0.01199(15) 0.02896(18)
H3 H -0.2893 0.0135 -0.0037
C12 C -0.1837(2) -0.09226(15) -0.00171(17)
H4 H -0.2446 -0.1199 -0.0541
H5 H 0.107(2) 0.2191(16) 0.249(2)
H6 H 0.167(2) -0.1535(11) 0.9039(18)
H7 H 0.2389(18) -0.1047(17) 0.369(2)
H8 H 0.110(2) -0.1077(17) 0.3854(18)
H9 H -0.020(2) 0.2047(19) 0.275(2)
H10 H 0.132(2) -0.2349(17) 0.938(2)
H11 H 0.664(3) -0.232(2) 1.1198(15)
H12 H 0.663(3) -0.3028(13) 1.052(2)
Mn1C Mn 0.41335(2) -0.275561(13) 0.483216(15)
Mn1B Mn 0.58665(2) 0.224439(13) 1.016784(15)
Mn1A Mn 0.58665(2) 0.275561(13) 0.516784(15)
Mn2B Mn -0.107200(18) -0.051350(15) 0.697190(16)
Mn2B_2 Mn 0.892800(18) -0.051350(15) 0.697190(16)
N2C N 0.36904(14) -0.33336(9) 1.06945(11)
N4B N 0.44078(14) -0.12931(9) 1.09863(10)
N5B N -0.07764(12) 0.04077(9) 0.34011(11)
N6A N 0.42984(13) -0.32420(9) 0.87746(10)
N8B N 0.28987(12) 0.05187(10) 0.26452(11)
O5 O 0.18120(15) -0.24567(11) 0.69899(14)
H13 H 0.216(5) -0.214(4) 0.657(3)
H14 H 0.244(4) -0.261(3) 0.758(2)
O6 O 0.02289(15) -0.33422(11) 0.96825(13)
H15 H 0.034(4) -0.369(2) 1.022(2)
H16 H -0.063(2) -0.326(3) 0.930(3)
loop_
_geom_bond_atom_site_label_1
_geom_bond_atom_site_label_2
_geom_bond_site_symmetry_1
_geom_bond_site_symmetry_2
Nb1 C1 1_555 1_555
Mn1 O2 1_555 1_555
Mn2 O1 1_555 1_555
O1 H7 1_555 1_555
O2 H6 1_555 1_555
O3 Mn1 1_555 1_555
C1 N1 1_555 1_555
C2 Nb1 1_555 1_555
O4 Mn2 1_555 1_555
C3 Nb1 1_555 1_555
C4 Nb1 1_555 1_555
N1 Mn2 1_555 1_555
N2 C5 1_555 1_555
N3 Mn1 1_555 1_555
C5 Nb1 1_555 1_555
N4 C2 1_555 1_555
N5 C3 1_555 1_555
N6 C4 1_555 1_555
C6 Nb1 1_555 1_555
C7 Nb1 1_555 1_555
N7 Mn2 1_555 1_555
C8 Nb1 1_555 1_555
N8 C6 1_555 1_555
N9 C8 1_555 1_555
N10 N7 1_555 1_555
C9 N7 1_555 1_555
H1 C9 1_555 1_555
C10 C9 1_555 1_555
H2 C10 1_555 1_555
C11 N10 1_555 1_555
H3 C11 1_555 1_555
C12 C10 1_555 1_555
H4 C12 1_555 1_555
H5 O4 1_555 1_555
H8 O1 1_555 1_555
H9 O4 1_555 1_555
H10 O2 1_555 1_555
H11 O3 1_555 1_555
H12 O3 1_555 1_555
O5 H13 1_555 1_555
H14 O5 1_555 1_555
O6 H15 1_555 1_555
H16 O6 1_555 1_555
Mn1C N2 1_555 1_555
Mn1B N4 1_555 1_555
Mn1A N6 1_555 1_555
Mn2B N5 1_555 1_555
Mn2B_2 N8 1_555 1_555
N2C Mn1 1_555 1_555
N4B Mn1 1_555 1_555
N5B Mn2 1_555 1_555
N6A Mn1 1_555 1_555
N8B Mn2 1_555 1_555
N3 C7 1_555 1_555
C11 C12 1_555 1_555

#END
