
#######################################################################
#
#                 Cambridge Crystallographic Data Centre
#                                CCDC 
#
#######################################################################
#
# If this CIF has been generated from an entry in the Cambridge 
# Structural Database, then it will include bibliographic, chemical, 
# crystal, experimental, refinement or atomic coordinate data resulting 
# from the CCDC's data processing and validation procedures.
#
#######################################################################

data_AQETOG
_symmetry_cell_setting           monoclinic
_symmetry_space_group_name_H-M   'P 21/c'
_symmetry_Int_Tables_number      14
_space_group_name_Hall           '-P 2ybc'
loop_
_symmetry_equiv_pos_site_id
_symmetry_equiv_pos_as_xyz
1 x,y,z
2 -x,1/2+y,1/2-z
3 -x,-y,-z
4 x,1/2-y,1/2+z
_cell_length_a                   9.3984(4)
_cell_length_b                   14.2989(5)
_cell_length_c                   14.2497(5)
_cell_angle_alpha                90
_cell_angle_beta                 102.192(3)
_cell_angle_gamma                90
_cell_volume                     1871.78
loop_
_atom_site_label
_atom_site_type_symbol
_atom_site_fract_x
_atom_site_fract_y
_atom_site_fract_z
O1 O 0.5755(15) 0.1858(17) 0.1888(18)
Mn1 Mn -0.2057(7) 0.2226(4) 0.4709(5)
O2 O -0.3712(15) 0.2855(13) 0.3663(11)
Mn2 Mn 0.3629(8) 0.1224(5) 0.1713(5)
C1 C 0.2537(4) 0.3229(3) 0.2585(2)
N1 N 0.3152(4) 0.2581(3) 0.2419(2)
C2 C -0.0057(4) 0.3861(3) 0.1639(2)
N2 N -0.0792(4) 0.3558(3) 0.0958(2)
C3 C 0.2659(4) 0.4009(3) 0.4391(2)
N3 N 0.3294(4) 0.3784(3) 0.5135(2)
C4 C -0.0050(4) 0.3516(3) 0.3583(2)
N4 N -0.0749(4) 0.3005(3) 0.3907(2)
C5 C 0.1482(4) 0.5513(3) 0.1770(2)
N5 N 0.1578(4) 0.6033(3) 0.1174(2)
C6 C -0.0797(4) 0.5240(3) 0.2704(2)
N6 N -0.1859(4) 0.5660(3) 0.2596(2)
C7 C 0.1536(4) 0.5740(3) 0.3944(2)
N7 N 0.1579(4) 0.6354(3) 0.4466(2)
C8 C 0.3727(4) 0.4876(3) 0.3071(2)
N8 N 0.4895(4) 0.5114(3) 0.3076(2)
Nb1 Nb 0.1386(4) 0.4531(3) 0.3005(2)
C9 C -0.675(3) 0.090(2) 0.5302(18)
C10 C -0.534(3) 0.073(2) 0.5809(18)
C11 C -0.417(3) 0.112(2) 0.5646(18)
N9 N -0.428(3) 0.168(2) 0.4903(18)
N10 N -0.559(3) 0.193(2) 0.4416(18)
C12 C -0.687(3) 0.152(2) 0.4568(18)
O1B O -0.5755(15) 0.8142(17) 0.8112(18)
Mn1B Mn 0.2057(7) 0.7774(4) 0.5291(5)
Mn1A Mn 0.2057(7) 0.7226(4) 0.0291(5)
Mn1A_2 Mn 0.2057(7) 0.7226(4) 1.0291(5)
Mn1C Mn -0.2057(7) 0.2774(4) -0.0291(5)
Mn1C_2 Mn -0.2057(7) 0.2774(4) 0.9709(5)
O2B O 0.3712(15) 0.7145(13) 0.6337(11)
Mn2B Mn -0.3629(8) 0.8776(5) 0.8287(5)
Mn2A Mn -0.3629(8) 0.6224(5) 0.3287(5)
Mn2A_2 Mn 0.6371(8) 0.6224(5) 0.3287(5)
Mn2C Mn -0.6371(8) 0.3776(5) 0.6713(5)
Mn2C_2 Mn 0.3629(8) 0.3776(5) 0.6713(5)
C1B C -0.2537(4) 0.6771(3) 0.7415(2)
N1B N -0.3152(4) 0.7419(3) 0.7581(2)
C2B C 0.0057(4) 0.6139(3) 0.8361(2)
N2B N 0.0792(4) 0.6442(3) 0.9042(2)
N2A N 0.0792(4) 0.8558(3) 0.4042(2)
N2C N -0.0792(4) 0.1442(3) 0.5958(2)
C3B C -0.2659(4) 0.5991(3) 0.5609(2)
N3B N -0.3294(4) 0.6216(3) 0.4865(2)
N3A N -0.3294(4) 0.8784(3) 0.9865(2)
N3C N 0.3294(4) 0.1216(3) 0.0135(2)
C4B C 0.0050(4) 0.6484(3) 0.6417(2)
N4B N 0.0749(4) 0.6995(3) 0.6093(2)
C5B C -0.1482(4) 0.4487(3) 0.8230(2)
N5B N -0.1578(4) 0.3967(3) 0.8826(2)
N5A N -0.1578(4) 0.1033(3) 0.3826(2)
N5C N 0.1578(4) 0.8967(3) 0.6174(2)
C6B C 0.0797(4) 0.4760(3) 0.7296(2)
N6B N 0.1859(4) 0.4340(3) 0.7404(2)
N6A N 0.1859(4) 0.0660(3) 0.2404(2)
N6C N -0.1859(4) 0.9340(3) 0.7596(2)
C7B C -0.1536(4) 0.4260(3) 0.6056(2)
N7B N -0.1579(4) 0.3646(3) 0.5534(2)
C8B C -0.3727(4) 0.5124(3) 0.6929(2)
N8B N -0.4895(4) 0.4886(3) 0.6924(2)
N8A N 0.5105(4) 0.0114(3) 0.1924(2)
N8C N -0.5105(4) 0.9886(3) 0.8076(2)
Nb1B Nb -0.1386(4) 0.5469(3) 0.6995(2)
C9B C 0.675(3) 0.910(2) 0.4698(18)
C10B C 0.534(3) 0.927(2) 0.4191(18)
C11B C 0.417(3) 0.888(2) 0.4354(18)
N9B N 0.428(3) 0.832(2) 0.5097(18)
N10B N 0.559(3) 0.807(2) 0.5584(18)
C12B C 0.687(3) 0.848(2) 0.5432(18)
loop_
_geom_bond_atom_site_label_1
_geom_bond_atom_site_label_2
_geom_bond_site_symmetry_1
_geom_bond_site_symmetry_2
O1 Mn2 1_555 1_555
Mn1 O2 1_555 1_555
Mn2 N1 1_555 1_555
C1 N1 1_555 1_555
C2 N2 1_555 1_555
N2 Mn1C 1_555 1_555
C3 N3 1_555 1_555
N3 Mn2C_2 1_555 1_555
C4 N4 1_555 1_555
N4 Mn1 1_555 1_555
C5 N5 1_555 1_555
N5 Mn1A 1_555 1_555
C6 N6 1_555 1_555
N6 Mn2A 1_555 1_555
C7 N7 1_555 1_555
N7 Mn1B 1_555 1_555
C8 N8 1_555 1_555
N8 Mn2A_2 1_555 1_555
Nb1 C1 1_555 1_555
C9 C10 1_555 1_555
C10 C11 1_555 1_555
C11 N9 1_555 1_555
N9 Mn1 1_555 1_555
N10 N9 1_555 1_555
C12 C9 1_555 1_555
O1B Mn2B 1_555 1_555
Mn1B O2B 1_555 1_555
Mn1A_2 N2B 1_555 1_555
Mn1C_2 N5B 1_555 1_555
Mn2B N1B 1_555 1_555
Mn2A N3B 1_555 1_555
Mn2C N8B 1_555 1_555
Mn2C_2 N6B 1_555 1_555
C1B N1B 1_555 1_555
C2B N2B 1_555 1_555
N2A Mn1B 1_555 1_555
N2C Mn1 1_555 1_555
C3B N3B 1_555 1_555
N3A Mn2B 1_555 1_555
N3C Mn2 1_555 1_555
C4B N4B 1_555 1_555
N4B Mn1B 1_555 1_555
C5B N5B 1_555 1_555
N5A Mn1 1_555 1_555
N5C Mn1B 1_555 1_555
C6B N6B 1_555 1_555
N6A Mn2 1_555 1_555
N6C Mn2B 1_555 1_555
C7B N7B 1_555 1_555
N7B Mn1 1_555 1_555
C8B N8B 1_555 1_555
N8A Mn2 1_555 1_555
N8C Mn2B 1_555 1_555
Nb1B C1B 1_555 1_555
C9B C10B 1_555 1_555
C10B C11B 1_555 1_555
C11B N9B 1_555 1_555
N9B Mn1B 1_555 1_555
N10B N9B 1_555 1_555
C12B C9B 1_555 1_555
C2 Nb1 1_555 1_555
C3 Nb1 1_555 1_555
C4 Nb1 1_555 1_555
C5 Nb1 1_555 1_555
C6 Nb1 1_555 1_555
C7 Nb1 1_555 1_555
C8 Nb1 1_555 1_555
N10 C12 1_555 1_555
C2B Nb1B 1_555 1_555
C3B Nb1B 1_555 1_555
C4B Nb1B 1_555 1_555
C5B Nb1B 1_555 1_555
C6B Nb1B 1_555 1_555
C7B Nb1B 1_555 1_555
C8B Nb1B 1_555 1_555
N10B C12B 1_555 1_555

#END
