
#######################################################################
#
#                 Cambridge Crystallographic Data Centre
#                                CCDC 
#
#######################################################################
#
# If this CIF has been generated from an entry in the Cambridge 
# Structural Database, then it will include bibliographic, chemical, 
# crystal, experimental, refinement or atomic coordinate data resulting 
# from the CCDC's data processing and validation procedures.
#
#######################################################################

data_AQFSZN
_symmetry_cell_setting           monoclinic
_symmetry_space_group_name_H-M   'P 21/c'
_symmetry_Int_Tables_number      14
_space_group_name_Hall           '-P 2ybc'
loop_
_symmetry_equiv_pos_site_id
_symmetry_equiv_pos_as_xyz
1 x,y,z
2 -x,1/2+y,1/2-z
3 -x,-y,-z
4 x,1/2-y,1/2+z
_cell_length_a                   10.799(2)
_cell_length_b                   9.115(5)
_cell_length_c                   10.995(3)
_cell_angle_alpha                90
_cell_angle_beta                 115.53(2)
_cell_angle_gamma                90
_cell_volume                     976.596
loop_
_atom_site_label
_atom_site_type_symbol
_atom_site_fract_x
_atom_site_fract_y
_atom_site_fract_z
Zn1 Zn 0.23825 0.13654 -0.00612
O1 O 0.26400 -0.07880 -0.04240
O2 O 0.44950 -0.14580 0.14320
O3 O 0.22270 -0.64950 0.05010
O4 O 0.05990 -0.56280 -0.14270
O5 O 0.03380 0.13220 -0.15190
O6 O 0.28840 0.20420 -0.16760
O7 O 0.44730 0.15620 0.12340
O8 O 0.17590 0.06350 0.13780
C1 C 0.34650 -0.16830 0.03680
C2 C 0.31200 -0.33070 -0.00550
C3 C 0.19540 -0.39250 0.02450
C4 C 0.15390 -0.55020 -0.02820
F1 F 0.42300 -0.41590 0.05740
F2 F 0.27240 -0.34500 -0.13950
F3 F 0.23840 -0.38720 0.15920
F4 F 0.08570 -0.30280 -0.03160
H1 H 0.00500 0.08000 -0.24000
H2 H 0.00100 0.22500 -0.18000
H3 H 0.26000 0.17000 -0.25500
H4 H 0.38300 0.19600 -0.13300
H5 H 0.48500 0.22200 0.19500
H6 H 0.48000 0.07300 0.17200
H7 H 0.19200 0.11000 0.22100
H8 H 0.11000 -0.01000 0.13000
O3_2 O 0.22270 0.35050 0.05010
Zn1_2 Zn 0.23825 -0.86346 -0.00612
loop_
_geom_bond_atom_site_label_1
_geom_bond_atom_site_label_2
_geom_bond_site_symmetry_1
_geom_bond_site_symmetry_2
Zn1 O1 1_555 1_555
O1 C1 1_555 1_555
O2 C1 1_555 1_555
O3 C4 1_555 1_555
O4 C4 1_555 1_555
O5 Zn1 1_555 1_555
O6 Zn1 1_555 1_555
O7 Zn1 1_555 1_555
O8 Zn1 1_555 1_555
C1 C2 1_555 1_555
C2 C3 1_555 1_555
C3 C4 1_555 1_555
F1 C2 1_555 1_555
F2 C2 1_555 1_555
F3 C3 1_555 1_555
F4 C3 1_555 1_555
H1 O5 1_555 1_555
H2 O5 1_555 1_555
H3 O6 1_555 1_555
H4 O6 1_555 1_555
H5 O7 1_555 1_555
H6 O7 1_555 1_555
H7 O8 1_555 1_555
H8 O8 1_555 1_555
O3_2 Zn1 1_555 1_555
Zn1_2 O3 1_555 1_555

#END
