
#######################################################################
#
#                 Cambridge Crystallographic Data Centre
#                                CCDC 
#
#######################################################################
#
# If this CIF has been generated from an entry in the Cambridge 
# Structural Database, then it will include bibliographic, chemical, 
# crystal, experimental, refinement or atomic coordinate data resulting 
# from the CCDC's data processing and validation procedures.
#
#######################################################################

data_AQIDUA01
_symmetry_cell_setting           triclinic
_symmetry_space_group_name_H-M   'P -1'
_symmetry_Int_Tables_number      2
_space_group_name_Hall           '-P 1'
loop_
_symmetry_equiv_pos_site_id
_symmetry_equiv_pos_as_xyz
1 x,y,z
2 -x,-y,-z
_cell_length_a                   5.8534(17)
_cell_length_b                   7.504(2)
_cell_length_c                   18.599(5)
_cell_angle_alpha                91.10(2)
_cell_angle_beta                 95.03(2)
_cell_angle_gamma                95.97(2)
_cell_volume                     809.05
loop_
_atom_site_label
_atom_site_type_symbol
_atom_site_fract_x
_atom_site_fract_y
_atom_site_fract_z
Cd1 Cd -0.00947(19) -0.25420(12) -0.03857(3)
C1 C -0.2550(19) -0.1492(13) 0.2392(5)
C2 C -0.358(2) -0.1890(14) 0.1690(5)
C3 C -0.5776(19) -0.2841(13) 0.1579(6)
C4 C -0.692(2) -0.3366(12) 0.2164(5)
C5 C -0.5947(19) -0.2937(13) 0.2865(5)
C6 C -0.7223(19) -0.3489(14) 0.3491(6)
C7 C -0.6191(19) -0.3006(15) 0.4221(5)
C8 C -0.739(2) -0.3407(16) 0.4811(7)
C9 C -0.650(3) -0.2960(18) 0.5500(5)
C10 C -0.424(3) -0.2115(18) 0.5613(7)
C11 C -0.301(2) -0.1663(15) 0.5044(5)
C12 C -0.393(2) -0.2052(16) 0.4337(5)
C13 C -0.2645(19) -0.1462(14) 0.3717(6)
C14 C -0.3759(18) -0.1980(13) 0.2969(5)
C15 C -0.2209(18) -0.1422(12) 0.1054(6)
C16 C -0.6954(18) -0.3126(15) 0.0832(6)
O1 O -0.7887(13) -0.4655(9) 0.0641(4)
O2 O -0.7066(13) -0.1787(10) 0.0457(4)
O3 O -0.2111(14) -0.2673(10) 0.0593(4)
O4 O -0.1309(13) 0.0153(9) 0.1005(4)
O5 O -0.9069(15) -0.4391(11) 0.3408(4)
O6 O -0.0820(16) -0.0616(12) 0.3799(4)
H1 H -0.1034 -0.0892 0.2467
H2 H -0.8395 -0.4033 0.2091
H3 H -0.8900 -0.4019 0.4736
H4 H -0.7391 -0.3213 0.5896
H5 H -0.1488 -0.1072 0.5131
H6 H -0.3557 -0.1857 0.6091
O7 O 0.2476(16) -0.3863(10) -0.1032(5)
H7 H 0.211(19) -0.496(6) -0.093(6)
H8 H 0.348(14) -0.298(10) -0.091(6)
O8 O -0.3339(14) -0.1619(10) -0.0975(5)
H9 H -0.369(19) -0.056(6) -0.090(6)
H10 H -0.351(19) -0.212(13) -0.139(2)
Cd1A Cd -0.99053(19) -0.74580(12) 0.03857(3)
Cd1_2 Cd -1.00947(19) -0.25420(12) -0.03857(3)
Cd1A_2 Cd 0.00947(19) 0.25420(12) 0.03857(3)
O1_2 O 0.2113(13) -0.4655(9) 0.0641(4)
O1A O -0.2113(13) -0.5345(9) -0.0641(4)
O2_2 O 0.2934(13) -0.1787(10) 0.0457(4)
O4A O 0.1309(13) -0.0153(9) -0.1005(4)
O9 O -0.687(3) 0.192(2) 0.2479(6)
H11 H -0.779(16) 0.100(9) 0.254(6)
H12 H -0.581(14) 0.248(14) 0.276(5)
O10 O -0.210(3) 0.3314(18) 0.2490(6)
H13 H -0.171(19) 0.430(8) 0.272(5)
H14 H -0.22(2) 0.362(13) 0.2051(19)
loop_
_geom_bond_atom_site_label_1
_geom_bond_atom_site_label_2
_geom_bond_site_symmetry_1
_geom_bond_site_symmetry_2
Cd1 O3 1_555 1_555
C1 C2 1_555 1_555
C2 C3 1_555 1_555
C3 C4 1_555 1_555
C4 C5 1_555 1_555
C5 C6 1_555 1_555
C6 C7 1_555 1_555
C7 C8 1_555 1_555
C8 C9 1_555 1_555
C9 C10 1_555 1_555
C10 C11 1_555 1_555
C11 C12 1_555 1_555
C12 C7 1_555 1_555
C13 C12 1_555 1_555
C14 C1 1_555 1_555
C15 C2 1_555 1_555
C16 C3 1_555 1_555
O1 C16 1_555 1_555
O2 C16 1_555 1_555
O3 C15 1_555 1_555
O4 C15 1_555 1_555
O5 C6 1_555 1_555
O6 C13 1_555 1_555
H1 C1 1_555 1_555
H2 C4 1_555 1_555
H3 C8 1_555 1_555
H4 C9 1_555 1_555
H5 C11 1_555 1_555
H6 C10 1_555 1_555
O7 Cd1 1_555 1_555
H7 O7 1_555 1_555
H8 O7 1_555 1_555
O8 Cd1 1_555 1_555
H9 O8 1_555 1_555
H10 O8 1_555 1_555
O9 H11 1_555 1_555
H12 O9 1_555 1_555
O10 H13 1_555 1_555
H14 O10 1_555 1_555
Cd1A O1 1_555 1_555
Cd1_2 O1 1_555 1_555
Cd1A_2 O4 1_555 1_555
O1_2 Cd1 1_555 1_555
O1A Cd1 1_555 1_555
O2_2 Cd1 1_555 1_555
O4A Cd1 1_555 1_555
C5 C14 1_555 1_555
C13 C14 1_555 1_555
O2 Cd1_2 1_555 1_555

#END
