
#######################################################################
#
#                 Cambridge Crystallographic Data Centre
#                                CCDC 
#
#######################################################################
#
# If this CIF has been generated from an entry in the Cambridge 
# Structural Database, then it will include bibliographic, chemical, 
# crystal, experimental, refinement or atomic coordinate data resulting 
# from the CCDC's data processing and validation procedures.
#
#######################################################################

data_AQIDUA
_symmetry_cell_setting           triclinic
_symmetry_space_group_name_H-M   'P -1'
_symmetry_Int_Tables_number      2
_space_group_name_Hall           '-P 1'
loop_
_symmetry_equiv_pos_site_id
_symmetry_equiv_pos_as_xyz
1 x,y,z
2 -x,-y,-z
_cell_length_a                   5.81330(10)
_cell_length_b                   7.4885(2)
_cell_length_c                   18.6076(6)
_cell_angle_alpha                90.4040(10)
_cell_angle_beta                 95.523(2)
_cell_angle_gamma                95.088(2)
_cell_volume                     803.006
loop_
_atom_site_label
_atom_site_type_symbol
_atom_site_fract_x
_atom_site_fract_y
_atom_site_fract_z
C1 C 0.2451(9) 0.3545(7) 0.2399(3)
H1 H 0.3925 0.4211 0.2475
C2 C 0.1479(10) 0.3110(7) 0.1701(3)
C3 C -0.0710(10) 0.2155(8) 0.1580(3)
C4 C -0.1879(10) 0.1615(8) 0.2176(3)
H2 H -0.3346 0.0939 0.2101
C5 C -0.0935(9) 0.2049(8) 0.2875(3)
C6 C -0.2248(10) 0.1506(8) 0.3493(3)
C7 C -0.1178(10) 0.2030(8) 0.4233(3)
C8 C -0.2464(11) 0.1602(9) 0.4820(3)
H3 H -0.3988 0.1021 0.4740
C9 C -0.1489(12) 0.2037(9) 0.5522(3)
H4 H -0.2352 0.1747 0.5920
C10 C 0.0750(11) 0.2895(8) 0.5641(3)
H5 H 0.1420 0.3169 0.6119
C11 C 0.1999(11) 0.3348(8) 0.5054(3)
H6 H 0.3518 0.3940 0.5132
C12 C 0.1023(10) 0.2933(8) 0.4352(3)
C13 C 0.2359(10) 0.3522(8) 0.3735(3)
C14 C 0.1266(10) 0.3005(7) 0.2990(3)
C15 C -0.1923(9) 0.1884(7) 0.0840(3)
C16 C 0.2818(9) 0.3608(7) 0.1058(3)
Cd1 Cd 0.48923(6) 0.24568(5) -0.038630(16)
O1 O -0.4139(8) 0.0636(7) 0.3407(2)
O2 O -0.2870(7) 0.0361(5) 0.0638(2)
O3 O -0.2016(7) 0.3272(5) 0.0451(2)
O4 O 0.4228(7) 0.4392(7) 0.3822(2)
O5 O 0.2899(7) 0.2353(6) 0.0603(2)
O6 O 0.3769(7) 0.5170(5) 0.1046(2)
O7 O 0.1593(7) 0.3369(6) -0.0977(2)
O8 O 0.7466(7) 0.1156(5) -0.1025(2)
H7 H 0.038(8) 0.267(8) -0.093(4)
H8 H 0.740(13) 0.107(10) -0.1481(7)
H9 H 0.143(13) 0.428(6) -0.072(3)
H10 H 0.745(13) 0.020(6) -0.078(3)
Cd1_2 Cd -0.51077(6) 0.24568(5) -0.038630(16)
Cd1A Cd -0.48923(6) -0.24568(5) 0.038630(16)
Cd1A_2 Cd 0.51077(6) 0.75432(5) 0.038630(16)
O2_2 O 0.7130(7) 0.0361(5) 0.0638(2)
O2A O 0.2870(7) -0.0361(5) -0.0638(2)
O3_2 O 0.7984(7) 0.3272(5) 0.0451(2)
O6A O 0.6231(7) 0.4830(5) -0.1046(2)
O9 O 0.8131(10) 0.6946(8) 0.2489(3)
H11 H 0.815(13) 0.666(10) 0.2049(13)
H12 H 0.686(7) 0.742(10) 0.250(4)
O10 O 0.2927(9) 0.8333(7) 0.2473(3)
H13 H 0.164(7) 0.780(9) 0.256(4)
H14 H 0.360(12) 0.920(7) 0.273(4)
loop_
_geom_bond_atom_site_label_1
_geom_bond_atom_site_label_2
_geom_bond_site_symmetry_1
_geom_bond_site_symmetry_2
C1 H1 1_555 1_555
C2 C1 1_555 1_555
C3 C2 1_555 1_555
C4 C3 1_555 1_555
H2 C4 1_555 1_555
C5 C4 1_555 1_555
C6 C5 1_555 1_555
C7 C6 1_555 1_555
C8 C7 1_555 1_555
H3 C8 1_555 1_555
C9 C8 1_555 1_555
H4 C9 1_555 1_555
C10 C9 1_555 1_555
H5 C10 1_555 1_555
C11 C10 1_555 1_555
H6 C11 1_555 1_555
C12 C7 1_555 1_555
C13 C12 1_555 1_555
C14 C1 1_555 1_555
C15 C3 1_555 1_555
C16 C2 1_555 1_555
Cd1 O5 1_555 1_555
O1 C6 1_555 1_555
O2 C15 1_555 1_555
O3 C15 1_555 1_555
O4 C13 1_555 1_555
O5 C16 1_555 1_555
O6 C16 1_555 1_555
O7 Cd1 1_555 1_555
O8 Cd1 1_555 1_555
H7 O7 1_555 1_555
H8 O8 1_555 1_555
H9 O7 1_555 1_555
H10 O8 1_555 1_555
O9 H11 1_555 1_555
H12 O9 1_555 1_555
O10 H13 1_555 1_555
H14 O10 1_555 1_555
Cd1_2 O2 1_555 1_555
Cd1A O2 1_555 1_555
Cd1A_2 O6 1_555 1_555
O2_2 Cd1 1_555 1_555
O2A Cd1 1_555 1_555
O3_2 Cd1 1_555 1_555
O6A Cd1 1_555 1_555
C5 C14 1_555 1_555
C11 C12 1_555 1_555
C13 C14 1_555 1_555
O3 Cd1_2 1_555 1_555

#END
