
#######################################################################
#
#                 Cambridge Crystallographic Data Centre
#                                CCDC 
#
#######################################################################
#
# If this CIF has been generated from an entry in the Cambridge 
# Structural Database, then it will include bibliographic, chemical, 
# crystal, experimental, refinement or atomic coordinate data resulting 
# from the CCDC's data processing and validation procedures.
#
#######################################################################

data_AQIGUD
_symmetry_cell_setting           monoclinic
_symmetry_space_group_name_H-M   'P 21'
_symmetry_Int_Tables_number      4
_space_group_name_Hall           'P 2yb'
loop_
_symmetry_equiv_pos_site_id
_symmetry_equiv_pos_as_xyz
1 x,y,z
2 -x,1/2+y,-z
_cell_length_a                   9.0560(6)
_cell_length_b                   14.1567(10)
_cell_length_c                   10.2238(7)
_cell_angle_alpha                90
_cell_angle_beta                 107.8080(10)
_cell_angle_gamma                90
_cell_volume                     1247.92
loop_
_atom_site_label
_atom_site_type_symbol
_atom_site_fract_x
_atom_site_fract_y
_atom_site_fract_z
C1 C 0.9910(16) 0.3368(9) 1.0110(15)
H1 H 0.9205 0.2872 0.9888
C2 C 1.1062(16) 0.3358(10) 1.1340(15)
H2 H 1.1121 0.2866 1.1955
C3 C 1.2138(16) 0.4080(11) 1.1667(15)
H3 H 1.2933 0.4071 1.2497
C4 C 1.2026(15) 0.4811(10) 1.0758(14)
H4 H 1.2732 0.5307 1.0965
C5 C 1.0840(13) 0.4791(8) 0.9529(13)
C6 C 1.0610(14) 0.5519(8) 0.8431(13)
C7 C 1.1654(16) 0.6225(9) 0.8447(13)
H5 H 1.2558 0.6280 0.9182
C8 C 1.1350(15) 0.6858(9) 0.7358(15)
H6 H 1.2025 0.7355 0.7370
C9 C 1.0007(17) 0.6733(10) 0.6239(15)
H7 H 0.9785 0.7131 0.5481
C10 C 0.9025(15) 0.5998(9) 0.6300(13)
H8 H 0.8123 0.5913 0.5570
C11 C 0.7926(12) 0.2629(8) 0.6380(12)
C12 C 0.7743(13) 0.1623(7) 0.5879(11)
C13 C 0.8941(13) 0.0987(8) 0.6304(13)
C14 C 0.8915(13) 0.0118(8) 0.5631(12)
C15 C 0.7531(13) -0.0126(8) 0.4581(12)
C16 C 0.6222(14) 0.0462(9) 0.4230(11)
C17 C 0.6385(12) 0.1343(9) 0.4883(11)
C18 C 0.4728(13) 0.0163(8) 0.3270(13)
Cu1 Cu 0.80748(16) 0.42527(10) 0.74686(15)
I1 I 0.74580(10) -0.13474(5) 0.34041(9)
I2 I 1.09330(9) 0.13481(6) 0.79244(9)
I3 I 0.45697(9) 0.23372(6) 0.42074(10)
N1 N 0.9776(11) 0.4093(7) 0.9201(10)
N2 N 0.9320(11) 0.5400(7) 0.7372(10)
N3 N 1.0164(12) -0.0489(7) 0.5963(11)
H9 H 1.0998 -0.0341 0.6602
H10 H 1.0109 -0.1016 0.5531
O1 O 0.7415(10) 0.2890(6) 0.7388(8)
O2 O 0.8554(11) 0.3197(6) 0.5797(10)
O3 O 0.3861(9) -0.0313(6) 0.3848(9)
O4 O 0.4324(11) 0.0340(8) 0.2040(9)
Cu1A Cu 0.19252(16) -0.07473(10) 0.25314(15)
O3A O 0.6139(9) 0.4687(6) 0.6152(9)
C19 C 0.596(3) 0.4031(15) 0.0367(19)
H11 H 0.5143 0.4490 0.0125
H12 H 0.5911 0.3646 -0.0419
H13 H 0.6945 0.4349 0.0664
O5 O 0.5800(17) 0.3464(10) 0.1424(13)
H14 H 0.5709 0.3798 0.2050
O6 O 0.6084(13) 0.4855(8) 0.3356(11)
H15 H 0.6263 0.4949 0.4218
H16 H 0.5244 0.5156 0.2917
O7 O 0.4669(12) 0.6498(7) 0.1940(10)
H17 H 0.4146 0.6973 0.2044
H18 H 0.4956 0.6567 0.1227
O8 O 0.4122(13) 0.1887(8) 0.0197(10)
H19 H 0.3713 0.1595 0.0735
H20 H 0.4449 0.2421 0.0534
loop_
_geom_bond_atom_site_label_1
_geom_bond_atom_site_label_2
_geom_bond_site_symmetry_1
_geom_bond_site_symmetry_2
C1 H1 1_555 1_555
C2 C1 1_555 1_555
H2 C2 1_555 1_555
C3 C2 1_555 1_555
H3 C3 1_555 1_555
C4 C3 1_555 1_555
H4 C4 1_555 1_555
C5 C4 1_555 1_555
C6 C5 1_555 1_555
C7 C6 1_555 1_555
H5 C7 1_555 1_555
C8 C7 1_555 1_555
H6 C8 1_555 1_555
C9 C8 1_555 1_555
H7 C9 1_555 1_555
C10 C9 1_555 1_555
H8 C10 1_555 1_555
C11 C12 1_555 1_555
C12 C13 1_555 1_555
C13 C14 1_555 1_555
C14 C15 1_555 1_555
C15 C16 1_555 1_555
C16 C17 1_555 1_555
C17 C12 1_555 1_555
C18 C16 1_555 1_555
Cu1 N1 1_555 1_555
I1 C15 1_555 1_555
I2 C13 1_555 1_555
I3 C17 1_555 1_555
N1 C1 1_555 1_555
N2 C6 1_555 1_555
N3 C14 1_555 1_555
H9 N3 1_555 1_555
H10 N3 1_555 1_555
O1 C11 1_555 1_555
O2 C11 1_555 1_555
O3 C18 1_555 1_555
O4 C18 1_555 1_555
C19 H11 1_555 1_555
H12 C19 1_555 1_555
H13 C19 1_555 1_555
O5 C19 1_555 1_555
H14 O5 1_555 1_555
O6 H15 1_555 1_555
H16 O6 1_555 1_555
O7 H17 1_555 1_555
H18 O7 1_555 1_555
O8 H19 1_555 1_555
H20 O8 1_555 1_555
Cu1A O3 1_555 1_555
O3A Cu1 1_555 1_555
C5 N1 1_555 1_555
C10 N2 1_555 1_555
Cu1 N2 1_555 1_555
Cu1 O1 1_555 1_555
Cu1 O2 1_555 1_555

#END
