
#######################################################################
#
#                 Cambridge Crystallographic Data Centre
#                                CCDC 
#
#######################################################################
#
# If this CIF has been generated from an entry in the Cambridge 
# Structural Database, then it will include bibliographic, chemical, 
# crystal, experimental, refinement or atomic coordinate data resulting 
# from the CCDC's data processing and validation procedures.
#
#######################################################################

data_AQIGOX
_symmetry_cell_setting           monoclinic
_symmetry_space_group_name_H-M   'P 21/c'
_symmetry_Int_Tables_number      14
_space_group_name_Hall           '-P 2ybc'
loop_
_symmetry_equiv_pos_site_id
_symmetry_equiv_pos_as_xyz
1 x,y,z
2 -x,1/2+y,1/2-z
3 -x,-y,-z
4 x,1/2-y,1/2+z
_cell_length_a                   9.7187(7)
_cell_length_b                   18.5089(14)
_cell_length_c                   20.2204(16)
_cell_angle_alpha                90
_cell_angle_beta                 101.8650(10)
_cell_angle_gamma                90
_cell_volume                     3559.58
loop_
_atom_site_label
_atom_site_type_symbol
_atom_site_fract_x
_atom_site_fract_y
_atom_site_fract_z
I1 I 0.32742(3) 0.332205(14) 0.187946(14)
I2 I 0.74053(3) 0.212374(15) 0.428801(14)
I3 I 0.90415(3) 0.461533(18) 0.26726(2)
Mn1 Mn 0.48614(6) 0.58114(3) 0.26900(3)
O1 O 0.5365(3) 0.50196(14) 0.20290(14)
O2 O 0.6009(3) 0.42690(15) 0.13052(15)
O3 O 0.4418(3) 0.16994(14) 0.27906(14)
O4 O 0.3859(3) 0.23424(14) 0.36105(15)
N1 N 0.9249(4) 0.3375(2) 0.38006(19)
H1 H 0.9458 0.3074 0.4130
H2 H 0.9860 0.3687 0.3731
N2 N 0.3725(4) 0.66373(16) 0.32368(16)
N3 N 0.2592(3) 0.58087(17) 0.21538(17)
N4 N 0.6752(3) 0.58394(17) 0.35496(17)
N5 N 0.4516(4) 0.49445(16) 0.34517(16)
C1 C 0.5830(4) 0.44256(19) 0.1880(2)
C2 C 0.6230(4) 0.38660(18) 0.24377(18)
C3 C 0.5264(4) 0.33341(18) 0.25375(18)
C4 C 0.5583(4) 0.28262(18) 0.30566(18)
C5 C 0.6907(4) 0.28581(19) 0.34812(18)
C6 C 0.7935(4) 0.3358(2) 0.3385(2)
C7 C 0.7538(4) 0.3862(2) 0.2856(2)
C8 C 0.4527(4) 0.22476(19) 0.3164(2)
C9 C 0.4308(5) 0.7053(2) 0.3758(2)
H3 H 0.5235 0.6964 0.3972
C10 C 0.3593(7) 0.7613(3) 0.3996(3)
H4 H 0.4038 0.7899 0.4354
C11 C 0.2235(7) 0.7735(3) 0.3695(3)
H5 H 0.1736 0.8100 0.3857
C12 C 0.1572(5) 0.7319(2) 0.3144(3)
C13 C 0.2392(5) 0.6763(2) 0.2931(2)
C14 C 0.0178(6) 0.7414(3) 0.2792(4)
H6 H -0.0354 0.7782 0.2930
C15 C -0.0417(6) 0.7001(3) 0.2270(3)
H7 H -0.1347 0.7083 0.2057
C16 C 0.0365(5) 0.6432(3) 0.2034(3)
C17 C 0.1767(4) 0.6323(2) 0.2363(2)
C18 C -0.0188(5) 0.5981(3) 0.1491(3)
H8 H -0.1120 0.6032 0.1268
C19 C 0.0645(6) 0.5464(3) 0.1290(3)
H9 H 0.0282 0.5158 0.0932
C20 C 0.2035(5) 0.5402(2) 0.1625(2)
H10 H 0.2602 0.5061 0.1473
C21 C 0.7803(5) 0.6308(2) 0.3608(3)
H11 H 0.7817 0.6628 0.3255
C22 C 0.8894(5) 0.6339(3) 0.4180(3)
H12 H 0.9602 0.6683 0.4211
C23 C 0.8902(5) 0.5855(3) 0.4694(3)
H13 H 0.9614 0.5870 0.5079
C24 C 0.7835(5) 0.5340(2) 0.4635(2)
C25 C 0.6759(4) 0.5355(2) 0.4056(2)
C26 C 0.7773(6) 0.4792(3) 0.5137(2)
H14 H 0.8483 0.4772 0.5523
C27 C 0.6734(6) 0.4315(3) 0.5063(2)
H15 H 0.6748 0.3961 0.5390
C28 C 0.5590(5) 0.4335(2) 0.4490(2)
C29 C 0.5583(4) 0.4865(2) 0.39918(19)
C30 C 0.4421(6) 0.3866(2) 0.4396(3)
H16 H 0.4384 0.3498 0.4704
C31 C 0.3363(5) 0.3953(2) 0.3861(3)
H17 H 0.2582 0.3651 0.3801
C32 C 0.3441(5) 0.4501(2) 0.3394(2)
H18 H 0.2698 0.4554 0.3026
Mn1A Mn 0.51386(6) 0.08114(3) 0.23100(3)
O3A O 0.5582(3) 0.66994(14) 0.22094(14)
O5 O 0.7987(4) 0.42446(18) 0.03655(18)
H19 H 0.762(5) 0.431(3) 0.0711(15)
H20 H 0.768(5) 0.458(2) 0.0081(18)
O6 O 0.6229(4) 0.58795(17) 0.08823(18)
H21 H 0.600(6) 0.6287(11) 0.102(3)
H22 H 0.597(6) 0.5544(16) 0.111(2)
O7 O 0.3222(4) 0.4465(2) 0.03216(17)
H23 H 0.400(3) 0.445(3) 0.0604(17)
H24 H 0.338(5) 0.442(3) -0.0077(10)
O8 O 0.0881(5) 0.3565(2) 0.0483(3)
H25 H 0.020(5) 0.377(3) 0.062(4)
H26 H 0.139(6) 0.388(2) 0.035(4)
O9 O 0.1899(5) 0.2474(2) 0.9581(2)
H27 H 0.1548 0.2762 0.9830
H28 H 0.2101 0.2696 0.9251
loop_
_geom_bond_atom_site_label_1
_geom_bond_atom_site_label_2
_geom_bond_site_symmetry_1
_geom_bond_site_symmetry_2
I1 C3 1_555 1_555
I2 C5 1_555 1_555
I3 C7 1_555 1_555
Mn1 O1 1_555 1_555
O1 C1 1_555 1_555
O2 C1 1_555 1_555
O3 C8 1_555 1_555
O4 C8 1_555 1_555
N1 H1 1_555 1_555
H2 N1 1_555 1_555
N2 Mn1 1_555 1_555
N3 Mn1 1_555 1_555
N4 Mn1 1_555 1_555
N5 Mn1 1_555 1_555
C1 C2 1_555 1_555
C2 C3 1_555 1_555
C3 C4 1_555 1_555
C4 C5 1_555 1_555
C5 C6 1_555 1_555
C6 N1 1_555 1_555
C7 C2 1_555 1_555
C8 C4 1_555 1_555
C9 N2 1_555 1_555
H3 C9 1_555 1_555
C10 C9 1_555 1_555
H4 C10 1_555 1_555
C11 C10 1_555 1_555
H5 C11 1_555 1_555
C12 C11 1_555 1_555
C13 N2 1_555 1_555
C14 C12 1_555 1_555
H6 C14 1_555 1_555
C15 C14 1_555 1_555
H7 C15 1_555 1_555
C16 C15 1_555 1_555
C17 N3 1_555 1_555
C18 C16 1_555 1_555
H8 C18 1_555 1_555
C19 C18 1_555 1_555
H9 C19 1_555 1_555
C20 N3 1_555 1_555
H10 C20 1_555 1_555
C21 N4 1_555 1_555
H11 C21 1_555 1_555
C22 C21 1_555 1_555
H12 C22 1_555 1_555
C23 C22 1_555 1_555
H13 C23 1_555 1_555
C24 C23 1_555 1_555
C25 N4 1_555 1_555
C26 C24 1_555 1_555
H14 C26 1_555 1_555
C27 C26 1_555 1_555
H15 C27 1_555 1_555
C28 C27 1_555 1_555
C29 N5 1_555 1_555
C30 C28 1_555 1_555
H16 C30 1_555 1_555
C31 C30 1_555 1_555
H17 C31 1_555 1_555
C32 N5 1_555 1_555
H18 C32 1_555 1_555
O5 H19 1_555 1_555
H20 O5 1_555 1_555
O6 H21 1_555 1_555
H22 O6 1_555 1_555
O7 H23 1_555 1_555
H24 O7 1_555 1_555
O8 H25 1_555 1_555
H26 O8 1_555 1_555
O9 H27 1_555 1_555
H28 O9 1_555 1_555
Mn1A O3 1_555 1_555
O3A Mn1 1_555 1_555
C6 C7 1_555 1_555
C12 C13 1_555 1_555
C13 C17 1_555 1_555
C16 C17 1_555 1_555
C19 C20 1_555 1_555
C24 C25 1_555 1_555
C25 C29 1_555 1_555
C28 C29 1_555 1_555
C31 C32 1_555 1_555

#END
