
#######################################################################
#
#                 Cambridge Crystallographic Data Centre
#                                CCDC 
#
#######################################################################
#
# If this CIF has been generated from an entry in the Cambridge 
# Structural Database, then it will include bibliographic, chemical, 
# crystal, experimental, refinement or atomic coordinate data resulting 
# from the CCDC's data processing and validation procedures.
#
#######################################################################

data_AQIHAK
_symmetry_cell_setting           orthorhombic
_symmetry_space_group_name_H-M   'P n a 21'
_symmetry_Int_Tables_number      33
_space_group_name_Hall           'P 2c -2n'
loop_
_symmetry_equiv_pos_site_id
_symmetry_equiv_pos_as_xyz
1 x,y,z
2 -x,-y,1/2+z
3 1/2+x,1/2-y,z
4 1/2-x,1/2+y,1/2+z
_cell_length_a                   17.4570(17)
_cell_length_b                   9.6129(10)
_cell_length_c                   14.4613(14)
_cell_angle_alpha                90
_cell_angle_beta                 90
_cell_angle_gamma                90
_cell_volume                     2426.79
loop_
_atom_site_label
_atom_site_type_symbol
_atom_site_fract_x
_atom_site_fract_y
_atom_site_fract_z
I1 I 0.72155(3) 0.43549(7) 0.50014(5)
I2 I 1.03887(3) 0.22709(6) 0.59428(5)
I3 I 0.87012(4) 0.60859(7) 0.85768(5)
Cd1 Cd 0.61449(4) 0.70352(10) 0.79134(6)
O1 O 0.6927(4) 0.5194(12) 0.7550(5)
O2 O 0.7333(5) 0.6937(10) 0.6720(8)
O3 O 0.9153(4) 0.3552(8) 0.4097(5)
O4 O 0.8562(4) 0.1669(9) 0.4593(6)
O5 O 0.6817(6) 0.9311(11) 0.7553(7)
H1 H 0.6847 0.9417 0.6971
H2 H 0.6566 0.9983 0.7786
N1 N 1.0020(4) 0.4147(8) 0.7734(6)
H3 H 1.0423 0.3675 0.7596
H4 H 1.0003 0.4608 0.8244
N2 N 0.5064(5) 0.5617(9) 0.8031(6)
N3 N 0.5361(5) 0.7482(8) 0.6681(6)
C1 C 0.7394(6) 0.5715(14) 0.7039(9)
C2 C 0.8105(5) 0.4941(9) 0.6761(6)
C3 C 0.8138(5) 0.4226(8) 0.5917(7)
C4 C 0.8789(5) 0.3476(9) 0.5671(6)
C5 C 0.9398(5) 0.3436(10) 0.6303(7)
C6 C 0.9408(5) 0.4164(9) 0.7145(6)
C7 C 0.8738(5) 0.4923(10) 0.7349(6)
C8 C 0.8855(5) 0.2829(11) 0.4724(7)
C9 C 0.4949(6) 0.4744(12) 0.8692(9)
H5 H 0.5321 0.4685 0.9152
C10 C 0.4324(8) 0.3898(11) 0.8769(10)
H6 H 0.4261 0.3302 0.9270
C11 C 0.3789(7) 0.3972(11) 0.8062(10)
H7 H 0.3357 0.3407 0.8076
C12 C 0.3898(6) 0.4871(12) 0.7352(9)
H8 H 0.3550 0.4913 0.6865
C13 C 0.4542(5) 0.5734(10) 0.7362(7)
C14 C 0.4693(5) 0.6758(10) 0.6638(7)
C15 C 0.4176(6) 0.7024(11) 0.5911(8)
H9 H 0.3722 0.6523 0.5868
C16 C 0.4344(8) 0.8014(13) 0.5271(9)
H10 H 0.4000 0.8199 0.4795
C17 C 0.5026(8) 0.8750(12) 0.5326(7)
H11 H 0.5150 0.9428 0.4893
C18 C 0.5503(7) 0.8444(11) 0.6032(8)
H12 H 0.5961 0.8934 0.6071
Cd1C Cd 0.88551(4) 0.20352(10) 0.29134(6)
O3C O 0.5847(4) 0.8552(8) 0.9097(5)
O4C O 0.6438(4) 0.6669(9) 0.9593(6)
O6 O 0.6805(7) 0.2209(12) 0.8121(9)
H13 H 0.6736 0.2307 0.8699
H14 H 0.6805 0.3034 0.7910
O7 O 0.7462(6) 0.0528(11) 0.5783(8)
H15 H 0.7479 0.0081 0.5276
H16 H 0.7343 0.1378 0.5708
O8 O 0.7386(7) 0.8030(12) 0.4727(10)
H17 H 0.7399 0.7474 0.5184
H18 H 0.6948 0.7947 0.4477
loop_
_geom_bond_atom_site_label_1
_geom_bond_atom_site_label_2
_geom_bond_site_symmetry_1
_geom_bond_site_symmetry_2
I1 C3 1_555 1_555
I2 C5 1_555 1_555
I3 C7 1_555 1_555
Cd1 O1 1_555 1_555
O1 C1 1_555 1_555
O2 C1 1_555 1_555
O3 C8 1_555 1_555
O4 C8 1_555 1_555
O5 Cd1 1_555 1_555
H1 O5 1_555 1_555
H2 O5 1_555 1_555
N1 H3 1_555 1_555
H4 N1 1_555 1_555
N2 Cd1 1_555 1_555
N3 Cd1 1_555 1_555
C1 C2 1_555 1_555
C2 C3 1_555 1_555
C3 C4 1_555 1_555
C4 C5 1_555 1_555
C5 C6 1_555 1_555
C6 N1 1_555 1_555
C7 C2 1_555 1_555
C8 C4 1_555 1_555
C9 N2 1_555 1_555
H5 C9 1_555 1_555
C10 C9 1_555 1_555
H6 C10 1_555 1_555
C11 C10 1_555 1_555
H7 C11 1_555 1_555
C12 C11 1_555 1_555
H8 C12 1_555 1_555
C13 N2 1_555 1_555
C14 N3 1_555 1_555
C15 C14 1_555 1_555
H9 C15 1_555 1_555
C16 C15 1_555 1_555
H10 C16 1_555 1_555
C17 C16 1_555 1_555
H11 C17 1_555 1_555
C18 N3 1_555 1_555
H12 C18 1_555 1_555
O6 H13 1_555 1_555
H14 O6 1_555 1_555
O7 H15 1_555 1_555
H16 O7 1_555 1_555
O8 H17 1_555 1_555
H18 O8 1_555 1_555
Cd1C O3 1_555 1_555
O3C Cd1 1_555 1_555
O4C Cd1 1_555 1_555
O4 Cd1C 1_555 1_555
C6 C7 1_555 1_555
C12 C13 1_555 1_555
C13 C14 1_555 1_555
C17 C18 1_555 1_555

#END
