
#######################################################################
#
#                 Cambridge Crystallographic Data Centre
#                                CCDC 
#
#######################################################################
#
# If this CIF has been generated from an entry in the Cambridge 
# Structural Database, then it will include bibliographic, chemical, 
# crystal, experimental, refinement or atomic coordinate data resulting 
# from the CCDC's data processing and validation procedures.
#
#######################################################################

data_AQIJEQ
_symmetry_cell_setting           monoclinic
_symmetry_space_group_name_H-M   'P 21'
_symmetry_Int_Tables_number      4
_space_group_name_Hall           'P 2yb'
loop_
_symmetry_equiv_pos_site_id
_symmetry_equiv_pos_as_xyz
1 x,y,z
2 -x,1/2+y,-z
_cell_length_a                   8.1190(16)
_cell_length_b                   17.977(4)
_cell_length_c                   9.1051(18)
_cell_angle_alpha                90
_cell_angle_beta                 100.87(3)
_cell_angle_gamma                90
_cell_volume                     1305.09
loop_
_atom_site_label
_atom_site_type_symbol
_atom_site_fract_x
_atom_site_fract_y
_atom_site_fract_z
Zn1 Zn 0.39271(3) 0.078636(13) 0.95763(2)
N1 N 0.1444(2) 0.08941(13) 0.0064(2)
N2 N 0.1580(2) 0.09099(13) 0.1635(2)
N3 N 0.3422(2) 0.07653(16) 0.72022(17)
N4 N 0.6562(3) 0.10733(11) 0.9783(2)
N5 N 0.6706(3) 0.18488(11) 0.9937(3)
N6 N 0.5848(3) 0.46124(13) 1.0203(3)
O1 O 0.43979(18) 0.08512(13) 0.19803(16)
O2 O 0.3895(2) 0.19880(12) 0.9471(2)
C1 C 0.3085(3) 0.08720(15) 0.2480(2)
C2 C 0.3153(3) 0.08515(17) 0.4132(2)
C3 C 0.4220(3) 0.03450(15) 0.4961(3)
H13 H 0.4864 0.0026 0.4496
C4 C 0.4318(3) 0.03188(15) 0.6492(3)
H14 H 0.5037 -0.0024 0.7047
C5 C 0.2390(3) 0.12598(14) 0.6397(3)
H15 H 0.1777 0.1580 0.6890
C6 C 0.2207(3) 0.13087(15) 0.4865(3)
H16 H 0.1454 0.1646 0.4331
C7 C 0.5311(3) 0.22574(12) 0.9752(3)
C8 C 0.5547(3) 0.30799(12) 0.9900(3)
C9 C 0.6819(3) 0.33930(14) 1.0947(3)
H17 H 0.7597 0.3094 1.1559
C10 C 0.6908(3) 0.41556(13) 1.1063(3)
H18 H 0.7752 0.4363 1.1780
C11 C 0.4633(3) 0.43059(13) 0.9173(3)
H19 H 0.3896 0.4619 0.8554
C12 C 0.4432(3) 0.35452(13) 0.8997(3)
H20 H 0.3566 0.3350 0.8286
H21 H 0.078(4) 0.0566(18) -0.030(4)
H22 H 0.103(3) 0.1318(17) -0.027(3)
H23 H 0.075(3) 0.0944(15) 0.203(3)
H24 H 0.716(3) 0.0910(16) 1.056(2)
H25 H 0.699(4) 0.094(2) 0.907(3)
H26 H 0.765(2) 0.2015(14) 1.007(3)
Zn1_2 Zn 0.39271(3) 0.078636(13) -0.04237(2)
Zn1A Zn 0.60729(3) 0.578636(13) 1.04237(2)
N1_2 N 0.1444(2) 0.08941(13) 1.0064(2)
N6A N 0.4152(3) -0.03876(13) 0.9797(3)
O1_2 O 0.43979(18) 0.08512(13) 1.19803(16)
H21_2 H 0.078(4) 0.0566(18) 0.970(4)
H22_2 H 0.103(3) 0.1318(17) 0.973(3)
Cl1 Cl 0.29587(13) 0.32143(5) 1.33128(11)
O9 O 0.3291(6) 0.3857(2) 1.2558(8)
O10 O 0.3191(9) 0.3375(4) 1.4815(6)
O11 O 0.1313(6) 0.3010(3) 1.2881(7)
O12 O 0.3996(6) 0.26287(19) 1.3066(5)
Cl2 Cl 0.1185(2) -0.13362(9) 1.32358(15)
O13 O 0.2270(8) -0.0921(3) 1.2532(6)
O14 O 0.043(2) -0.2031(5) 1.3065(13)
O15 O -0.0414(10) -0.0848(9) 1.2657(10)
O16 O 0.1462(5) -0.1202(3) 1.4780(4)
O3 O 0.9982(3) 0.23708(12) 0.9939(3)
H1 H 0.9833 0.2713 0.9282
H2 H 1.0502 0.2614 1.0670
O4 O 0.8369(3) 0.10990(18) 0.7237(3)
H3 H 0.8490 0.0689 0.6759
H4 H 0.8233 0.1506 0.6682
O5 O 0.8850(6) -0.0147(2) 0.5331(5)
H5 H 0.8318 -0.0416 0.5863
H6 H 0.9708 -0.0411 0.5191
O6 O 0.0979(3) 0.46885(16) 1.0273(3)
H7 H 0.1436 0.4473 1.1085
H8 H 0.0578 0.4333 0.9665
O7 O -0.2555(6) 0.2046(3) 1.4218(6)
H9 H -0.3532 0.2219 1.3920
H10 H -0.2176 0.2322 1.5003
O8 O -0.1447(2) 0.08347(18) 1.2784(2)
H11 H -0.1490 0.0472 1.3366
H12 H -0.1537 0.1257 1.3158
O17? O 0.2390(14) -0.2076(5) 1.2916(12)
O18? O -0.0225(10) -0.1522(12) 1.2389(12)
loop_
_geom_bond_atom_site_label_1
_geom_bond_atom_site_label_2
_geom_bond_site_symmetry_1
_geom_bond_site_symmetry_2
Zn1 N3 1_555 1_555
Cl1 O9 1_555 1_555
Cl2 O13 1_555 1_555
N1 N2 1_555 1_555
N2 C1 1_555 1_555
N3 C4 1_555 1_555
N4 Zn1 1_555 1_555
N5 N4 1_555 1_555
N6 C10 1_555 1_555
O1 C1 1_555 1_555
O2 Zn1 1_555 1_555
O3 H1 1_555 1_555
H2 O3 1_555 1_555
O4 H3 1_555 1_555
H4 O4 1_555 1_555
O5 H5 1_555 1_555
H6 O5 1_555 1_555
O6 H7 1_555 1_555
H8 O6 1_555 1_555
O7 H9 1_555 1_555
H10 O7 1_555 1_555
O8 H11 1_555 1_555
H12 O8 1_555 1_555
O10 Cl1 1_555 1_555
O11 Cl1 1_555 1_555
O12 Cl1 1_555 1_555
O14 Cl2 1_555 1_555
O15 Cl2 1_555 1_555
O16 Cl2 1_555 1_555
C1 C2 1_555 1_555
C2 C3 1_555 1_555
C3 H13 1_555 1_555
C4 C3 1_555 1_555
H14 C4 1_555 1_555
C5 N3 1_555 1_555
H15 C5 1_555 1_555
C6 C2 1_555 1_555
H16 C6 1_555 1_555
C7 N5 1_555 1_555
C8 C7 1_555 1_555
C9 C8 1_555 1_555
H17 C9 1_555 1_555
C10 C9 1_555 1_555
H18 C10 1_555 1_555
C11 N6 1_555 1_555
H19 C11 1_555 1_555
C12 C8 1_555 1_555
H20 C12 1_555 1_555
H21 N1 1_555 1_555
H22 N1 1_555 1_555
H23 N2 1_555 1_555
H24 N4 1_555 1_555
H25 N4 1_555 1_555
H26 N5 1_555 1_555
Zn1_2 N1 1_555 1_555
Zn1A N6 1_555 1_555
N1_2 Zn1 1_555 1_555
N6A Zn1 1_555 1_555
O1_2 Zn1 1_555 1_555
H21_2 N1_2 1_555 1_555
H22_2 N1_2 1_555 1_555
O1 Zn1_2 1_555 1_555
O2 C7 1_555 1_555
C5 C6 1_555 1_555
C11 C12 1_555 1_555

#END
