
#######################################################################
#
#                 Cambridge Crystallographic Data Centre
#                                CCDC 
#
#######################################################################
#
# If this CIF has been generated from an entry in the Cambridge 
# Structural Database, then it will include bibliographic, chemical, 
# crystal, experimental, refinement or atomic coordinate data resulting 
# from the CCDC's data processing and validation procedures.
#
#######################################################################

data_AQIQAT
_symmetry_cell_setting           monoclinic
_symmetry_space_group_name_H-M   'C 2/c'
_symmetry_Int_Tables_number      15
_space_group_name_Hall           '-C 2yn'
loop_
_symmetry_equiv_pos_site_id
_symmetry_equiv_pos_as_xyz
1 x,y,z
2 -x,y,1/2-z
3 1/2+x,1/2+y,z
4 1/2-x,1/2+y,1/2-z
5 -x,-y,-z
6 x,-y,1/2+z
7 1/2-x,1/2-y,-z
8 1/2+x,1/2-y,1/2+z
_cell_length_a                   24.83(3)
_cell_length_b                   11.453(7)
_cell_length_c                   7.644(5)
_cell_angle_alpha                90
_cell_angle_beta                 91.90(2)
_cell_angle_gamma                90
_cell_volume                     2172.59
loop_
_atom_site_label
_atom_site_type_symbol
_atom_site_fract_x
_atom_site_fract_y
_atom_site_fract_z
Cd1 Cd 1.2500 0.7500 0.5000
O1 O 1.30692(6) 0.6317(1) 0.6669(2)
O2 O 1.28040(7) 0.6202(1) 0.2876(2)
O3 O 1.29369(10) 0.7697(1) 0.1223(3)
O4 O 1.31339(7) 0.5957(1) 0.0328(2)
N1 N 1.17519(6) 0.6309(1) 0.5209(2)
N2 N 1.0000 0.4950(2) 0.7500
N3 N 1.04312(7) 0.3163(2) 0.6869(2)
N4 N 1.0000 -0.1129(3) 0.7500
N5 N 1.29601(7) 0.6642(2) 0.1458(2)
C1 C 1.12868(8) 0.6822(2) 0.5616(3)
C2 C 1.08438(8) 0.6215(2) 0.6168(3)
C3 C 1.17748(8) 0.5145(2) 0.5284(3)
C4 C 1.13462(8) 0.4457(2) 0.5799(3)
C5 C 1.08745(7) 0.5005(2) 0.6268(2)
C6 C 1.04111(7) 0.4327(2) 0.6910(2)
C7 C 1.0000 0.2616(2) 0.7500
C8 C 1.0000 0.1322(3) 0.7500
C9 C 0.9528(1) 0.0701(2) 0.7590(5)
C10 C 0.9551(1) -0.0506(3) 0.7537(5)
H1 H 1.1263 0.7660 0.5523
H2 H 1.0521 0.6618 0.6469
H3 H 1.2101 0.4763 0.4974
H4 H 1.1377 0.3625 0.5815
H5 H 0.9191 0.1099 0.7694
H6 H 0.9214 -0.0924 0.7513
H7 H 1.2939 0.5608 0.7148
H8 H 1.3435 0.6538 0.6886
Cd1A Cd 0.7500 0.7500 1.0000
O1F O 1.19308(6) 0.8683(1) 0.3331(2)
O2F O 1.21960(7) 0.8798(1) 0.7124(2)
O3F O 1.20631(10) 0.7303(1) 0.8777(3)
O4F O 1.18661(7) 0.9043(1) 0.9672(2)
N1A N 0.82481(6) 0.6309(1) 0.9791(2)
N1F N 1.32481(6) 0.8691(1) 0.4791(2)
N3A N 0.95688(7) 0.3163(2) 0.8131(2)
N5F N 1.20399(7) 0.8358(2) 0.8542(2)
C1A C 0.87132(8) 0.6822(2) 0.9384(3)
C2A C 0.91562(8) 0.6215(2) 0.8832(3)
C3A C 0.82252(8) 0.5145(2) 0.9716(3)
C4A C 0.86538(8) 0.4457(2) 0.9201(3)
C5A C 0.91255(7) 0.5005(2) 0.8732(2)
C6A C 0.95889(7) 0.4327(2) 0.8090(2)
C9A C 1.0472(1) 0.0701(2) 0.7410(5)
C10A C 1.0449(1) -0.0506(3) 0.7463(5)
H1A H 0.8737 0.7660 0.9477
H2A H 0.9479 0.6618 0.8531
H3A H 0.7899 0.4763 1.0026
H4A H 0.8623 0.3625 0.9185
H5A H 1.0809 0.1099 0.7306
H6A H 1.0786 -0.0924 0.7487
H7F H 1.2061 0.9392 0.2852
H8F H 1.1565 0.8462 0.3114
loop_
_geom_bond_atom_site_label_1
_geom_bond_atom_site_label_2
_geom_bond_site_symmetry_1
_geom_bond_site_symmetry_2
Cd1 O1 1_555 1_555
O1 H7 1_555 1_555
O2 Cd1 1_555 1_555
O3 N5 1_555 1_555
O4 N5 1_555 1_555
N1 Cd1 1_555 1_555
N2 C6 1_555 1_555
N3 C6 1_555 1_555
N4 C10 1_555 1_555
N5 O2 1_555 1_555
C1 N1 1_555 1_555
C2 C1 1_555 1_555
C3 N1 1_555 1_555
C4 C3 1_555 1_555
C5 C2 1_555 1_555
C6 C5 1_555 1_555
C7 N3 1_555 1_555
C8 C7 1_555 1_555
C9 C8 1_555 1_555
C10 C9 1_555 1_555
H1 C1 1_555 1_555
H2 C2 1_555 1_555
H3 C3 1_555 1_555
H4 C4 1_555 1_555
H5 C9 1_555 1_555
H6 C10 1_555 1_555
H8 O1 1_555 1_555
Cd1A N1A 1_555 1_555
O1F Cd1 1_555 1_555
O2F Cd1 1_555 1_555
O3F N5F 1_555 1_555
O4F N5F 1_555 1_555
N1A C1A 1_555 1_555
N1F Cd1 1_555 1_555
N3A C7 1_555 1_555
N5F O2F 1_555 1_555
C1A C2A 1_555 1_555
C2A C5A 1_555 1_555
C3A N1A 1_555 1_555
C4A C3A 1_555 1_555
C5A C4A 1_555 1_555
C6A N2 1_555 1_555
C9A C8 1_555 1_555
C10A N4 1_555 1_555
H1A C1A 1_555 1_555
H2A C2A 1_555 1_555
H3A C3A 1_555 1_555
H4A C4A 1_555 1_555
H5A C9A 1_555 1_555
H6A C10A 1_555 1_555
H7F O1F 1_555 1_555
H8F O1F 1_555 1_555
C4 C5 1_555 1_555
N3A C6A 1_555 1_555
C5A C6A 1_555 1_555
C9A C10A 1_555 1_555

#END
