
#######################################################################
#
#                 Cambridge Crystallographic Data Centre
#                                CCDC 
#
#######################################################################
#
# If this CIF has been generated from an entry in the Cambridge 
# Structural Database, then it will include bibliographic, chemical, 
# crystal, experimental, refinement or atomic coordinate data resulting 
# from the CCDC's data processing and validation procedures.
#
#######################################################################

data_AQIRIB
_symmetry_cell_setting           orthorhombic
_symmetry_space_group_name_H-M   'P c c n'
_symmetry_Int_Tables_number      56
_space_group_name_Hall           '-P 2ab 2ac'
loop_
_symmetry_equiv_pos_site_id
_symmetry_equiv_pos_as_xyz
1 x,y,z
2 1/2+x,1/2+y,-z
3 1/2-x,y,1/2+z
4 x,1/2-y,1/2+z
5 -x,-y,-z
6 1/2-x,1/2-y,z
7 1/2+x,-y,1/2-z
8 -x,1/2+y,1/2-z
_cell_length_a                   19.299(3)
_cell_length_b                   19.866(3)
_cell_length_c                   22.892(3)
_cell_angle_alpha                90
_cell_angle_beta                 90
_cell_angle_gamma                90
_cell_volume                     8776.65
loop_
_atom_site_label
_atom_site_type_symbol
_atom_site_fract_x
_atom_site_fract_y
_atom_site_fract_z
Zn1 Zn 0.2500 0.2500 0.878040(14)
O1 O 0.34735(7) 0.29197(7) 0.87841(6)
O2 O 0.20666(7) 0.34445(8) 0.87304(7)
C1 C 0.36078(10) 0.35289(11) 0.86599(9)
C2 C 0.31165(11) 0.40368(11) 0.85531(11)
H1 H 0.3290 0.4463 0.8435
C3 C 0.23972(10) 0.39743(11) 0.86040(10)
C4 C 0.43602(11) 0.37211(11) 0.86560(10)
C5 C 0.46268(12) 0.42472(13) 0.83238(11)
H2 H 0.4334 0.4492 0.8067
C6 C 0.53254(13) 0.44119(14) 0.83700(13)
H3 H 0.5509 0.4763 0.8135
C7 C 0.57546(12) 0.40734(14) 0.87507(12)
H4 H 0.6227 0.4201 0.8787
C8 C 0.54975(11) 0.35498(12) 0.90786(11)
H5 H 0.5793 0.3313 0.9339
C9 C 0.48037(11) 0.33674(11) 0.90277(10)
H6 H 0.4630 0.2999 0.9248
C10 C 0.19595(11) 0.45863(11) 0.84937(10)
C11 C 0.21839(14) 0.52329(13) 0.86295(12)
H7 H 0.2627 0.5298 0.8802
C12 C 0.17645(16) 0.57815(14) 0.85142(14)
H8 H 0.1919 0.6221 0.8613
C13 C 0.11225(15) 0.56958(14) 0.82565(14)
H9 H 0.0842 0.6075 0.8168
C14 C 0.08948(13) 0.50599(15) 0.81293(13)
H10 H 0.0452 0.4998 0.7957
C15 C 0.13059(12) 0.45058(13) 0.82505(11)
H11 H 0.1139 0.4066 0.8166
N1 N 0.2500 0.2500 0.97277(11)
C16 C 0.30830(11) 0.23815(11) 1.00313(10)
H12 H 0.3500 0.2302 0.9822
C17 C 0.31029(11) 0.23696(10) 1.06352(10)
H13 H 0.3525 0.2273 1.0832
C18 C 0.2500 0.2500 1.09546(13)
N2 N 0.2500 0.2500 1.28207(11)
C19 C 0.19421(11) 0.23058(12) 1.25137(11)
H14 H 0.1541 0.2169 1.2722
C20 C 0.19204(11) 0.22944(12) 1.19141(10)
H15 H 0.1514 0.2148 1.1717
C21 C 0.2500 0.2500 1.15971(13)
C17E C 0.18971(11) 0.26304(10) 1.06352(10)
C16E C 0.19170(11) 0.26185(11) 1.00313(10)
H12E H 0.1500 0.2698 0.9822
H13E H 0.1475 0.2727 1.0832
C19E C 0.30579(11) 0.26942(12) 1.25137(11)
H14E H 0.3459 0.2831 1.2722
C20E C 0.30796(11) 0.27056(12) 1.19141(10)
H15E H 0.3486 0.2852 1.1717
O1E O 0.15265(7) 0.20803(7) 0.87841(6)
O2E O 0.29334(7) 0.15555(8) 0.87304(7)
C1E C 0.13922(10) 0.14711(11) 0.86599(9)
C2E C 0.18835(11) 0.09632(11) 0.85531(11)
H1E H 0.1710 0.0537 0.8435
C3E C 0.26028(10) 0.10257(11) 0.86040(10)
C4E C 0.06398(11) 0.12789(11) 0.86560(10)
C5E C 0.03732(12) 0.07528(13) 0.83238(11)
H2E H 0.0666 0.0508 0.8067
C6E C -0.03254(13) 0.05881(14) 0.83700(13)
H3E H -0.0509 0.0237 0.8135
C7E C -0.07546(12) 0.09266(14) 0.87507(12)
H4E H -0.1227 0.0799 0.8787
C8E C -0.04975(11) 0.14502(12) 0.90786(11)
H5E H -0.0793 0.1687 0.9339
C9E C 0.01963(11) 0.16326(11) 0.90277(10)
H6E H 0.0370 0.2001 0.9248
C10E C 0.30405(11) 0.04137(11) 0.84937(10)
C11E C 0.28161(14) -0.02329(13) 0.86295(12)
H7E H 0.2373 -0.0298 0.8802
C12E C 0.32355(16) -0.07815(14) 0.85142(14)
H8E H 0.3081 -0.1221 0.8613
C13E C 0.38775(15) -0.06958(14) 0.82565(14)
H9E H 0.4158 -0.1075 0.8168
C14E C 0.41052(13) -0.00599(15) 0.81293(13)
H10E H 0.4548 0.0002 0.7957
C15E C 0.36941(12) 0.04942(13) 0.82505(11)
H11E H 0.3861 0.0934 0.8166
N2B N 0.2500 0.2500 0.78207(11)
Zn1B Zn 0.2500 0.2500 1.378040(14)
Zn2 Zn 0.7500 0.2500 0.465447(14)
O3 O 0.84861(7) 0.21123(7) 0.46452(6)
O4 O 0.70969(7) 0.15421(7) 0.46943(6)
C22 C 0.86370(10) 0.15137(10) 0.47854(9)
C23 C 0.81667(11) 0.09911(11) 0.48911(10)
H16 H 0.8351 0.0578 0.5030
C24 C 0.74476(10) 0.10239(10) 0.48098(9)
C25 C 0.93968(10) 0.13480(10) 0.48017(10)
C26 C 0.96834(12) 0.09086(12) 0.52051(11)
H17 H 0.9399 0.0707 0.5495
C27 C 1.03897(13) 0.07637(13) 0.51840(13)
H18 H 1.0589 0.0471 0.5466
C28 C 1.07997(12) 0.10432(13) 0.47547(13)
H19 H 1.1278 0.0931 0.4736
C29 C 1.05241(12) 0.14829(12) 0.43541(12)
H20 H 1.0810 0.1677 0.4061
C30 C 0.98258(11) 0.16418(11) 0.43810(10)
H21 H 0.9636 0.1954 0.4110
C31 C 0.70430(11) 0.03790(10) 0.48545(10)
C32 C 0.73033(14) -0.02186(12) 0.46276(13)
H22 H 0.7752 -0.0228 0.4457
C33 C 0.69072(16) -0.08013(13) 0.46509(14)
H23 H 0.7082 -0.1208 0.4489
C34 C 0.62630(15) -0.07931(14) 0.49070(14)
H24 H 0.5999 -0.1196 0.4928
C35 C 0.59993(13) -0.02054(13) 0.51330(12)
H25 H 0.5554 -0.0202 0.5309
C36 C 0.63865(12) 0.03840(12) 0.51027(11)
H26 H 0.6201 0.0792 0.5253
N3 N 0.7500 0.2500 0.37061(11)
C37 C 0.80798(11) 0.26216(11) 0.34020(10)
H27 H 0.8496 0.2705 0.3611
C38 C 0.81004(11) 0.26317(12) 0.27980(10)
H28 H 0.8521 0.2728 0.2600
C39 C 0.7500 0.2500 0.24850(13)
N4 N 0.7500 0.2500 0.06170(11)
C40 C 0.69482(11) 0.27136(11) 0.09209(10)
H29 H 0.6553 0.2867 0.0712
C41 C 0.69282(11) 0.27199(11) 0.15238(10)
H30 H 0.6525 0.2874 0.1721
C42 C 0.7500 0.2500 0.18405(13)
C38E C 0.68996(11) 0.23683(12) 0.27980(10)
C37E C 0.69202(11) 0.23784(11) 0.34020(10)
H27E H 0.6504 0.2295 0.3611
H28E H 0.6479 0.2272 0.2600
C40E C 0.80518(11) 0.22864(11) 0.09209(10)
H29E H 0.8447 0.2133 0.0712
C41E C 0.80718(11) 0.22801(11) 0.15238(10)
H30E H 0.8475 0.2126 0.1721
O3E O 0.65139(7) 0.28877(7) 0.46452(6)
O4E O 0.79031(7) 0.34579(7) 0.46943(6)
C22E C 0.63630(10) 0.34863(10) 0.47854(9)
C23E C 0.68333(11) 0.40089(11) 0.48911(10)
H16E H 0.6649 0.4422 0.5030
C24E C 0.75524(10) 0.39761(10) 0.48098(9)
C25E C 0.56032(10) 0.36520(10) 0.48017(10)
C26E C 0.53166(12) 0.40914(12) 0.52051(11)
H17E H 0.5601 0.4293 0.5495
C27E C 0.46103(13) 0.42363(13) 0.51840(13)
H18E H 0.4411 0.4529 0.5466
C28E C 0.42003(12) 0.39568(13) 0.47547(13)
H19E H 0.3722 0.4069 0.4736
C29E C 0.44759(12) 0.35171(12) 0.43541(12)
H20E H 0.4190 0.3323 0.4061
C30E C 0.51742(11) 0.33582(11) 0.43810(10)
H21E H 0.5364 0.3046 0.4110
C31E C 0.79570(11) 0.46210(10) 0.48545(10)
C32E C 0.76967(14) 0.52186(12) 0.46276(13)
H22E H 0.7248 0.5228 0.4457
C33E C 0.80928(16) 0.58013(13) 0.46509(14)
H23E H 0.7918 0.6208 0.4489
C34E C 0.87370(15) 0.57931(14) 0.49070(14)
H24E H 0.9001 0.6196 0.4928
C35E C 0.90007(13) 0.52054(13) 0.51330(12)
H25E H 0.9446 0.5202 0.5309
C36E C 0.86135(12) 0.46160(12) 0.51027(11)
H26E H 0.8799 0.4208 0.5253
N4B N 0.7500 0.2500 0.56170(11)
Zn2B Zn 0.7500 0.2500 -0.034553(14)
F1 F 1.08138(17) 0.08730(15) 0.67009(15)
C43 C 1.12813(17) 0.03970(15) 0.67543(16)
C44 C 1.11041(18) -0.02298(16) 0.65833(16)
H31 H 1.0659 -0.0317 0.6424
C45 C 1.1571(2) -0.07305(17) 0.66430(18)
H32 H 1.1458 -0.1176 0.6526
C46 C 1.2204(2) -0.0590(2) 0.68732(19)
H33 H 1.2531 -0.0944 0.6916
C47 C 1.2384(2) 0.0045(2) 0.70453(18)
H34 H 1.2828 0.0133 0.7207
C48 C 1.1910(2) 0.05536(18) 0.69792(18)
H35 H 1.2019 0.1003 0.7088
F2 F 0.99807(17) 0.3035(3) 0.7862(2)
C49 C 0.99764(10) 0.29824(18) 0.72996(19)
C50 C 0.99053(12) 0.35643(19) 0.69988(19)
H36 H 0.9862 0.3980 0.7200
C51 C 0.98962(13) 0.3549(2) 0.64107(19)
H37 H 0.9846 0.3951 0.6191
C52 C 0.99602(11) 0.29411(18) 0.61375(19)
H38 H 0.9955 0.2927 0.5723
C53 C 1.00317(11) 0.23530(18) 0.64389(17)
H39 H 1.0075 0.1936 0.6238
C54 C 1.00402(11) 0.23759(18) 0.70354(17)
H40 H 1.0090 0.1976 0.7259
F3? F 0.99501(19) 0.2942(3) 0.5575(2)
F4? F 0.9847(2) 0.4124(3) 0.7280(3)
loop_
_geom_bond_atom_site_label_1
_geom_bond_atom_site_label_2
_geom_bond_site_symmetry_1
_geom_bond_site_symmetry_2
Zn1 O1 1_555 1_555
O1 C1 1_555 1_555
O2 Zn1 1_555 1_555
C1 C2 1_555 1_555
C2 H1 1_555 1_555
C3 O2 1_555 1_555
C4 C1 1_555 1_555
C5 C4 1_555 1_555
H2 C5 1_555 1_555
C6 C5 1_555 1_555
H3 C6 1_555 1_555
C7 C6 1_555 1_555
H4 C7 1_555 1_555
C8 C7 1_555 1_555
H5 C8 1_555 1_555
C9 C4 1_555 1_555
H6 C9 1_555 1_555
C10 C3 1_555 1_555
C11 C10 1_555 1_555
H7 C11 1_555 1_555
C12 C11 1_555 1_555
H8 C12 1_555 1_555
C13 C12 1_555 1_555
H9 C13 1_555 1_555
C14 C13 1_555 1_555
H10 C14 1_555 1_555
C15 C10 1_555 1_555
H11 C15 1_555 1_555
N1 Zn1 1_555 1_555
C16 N1 1_555 1_555
H12 C16 1_555 1_555
C17 C16 1_555 1_555
H13 C17 1_555 1_555
C18 C17 1_555 1_555
N2 C19 1_555 1_555
C19 H14 1_555 1_555
C20 C19 1_555 1_555
H15 C20 1_555 1_555
C21 C18 1_555 1_555
Zn2 O3 1_555 1_555
O3 C22 1_555 1_555
O4 Zn2 1_555 1_555
C22 C23 1_555 1_555
C23 H16 1_555 1_555
C24 O4 1_555 1_555
C25 C22 1_555 1_555
C26 C25 1_555 1_555
H17 C26 1_555 1_555
C27 C26 1_555 1_555
H18 C27 1_555 1_555
C28 C27 1_555 1_555
H19 C28 1_555 1_555
C29 C28 1_555 1_555
H20 C29 1_555 1_555
C30 C25 1_555 1_555
H21 C30 1_555 1_555
C31 C24 1_555 1_555
C32 C31 1_555 1_555
H22 C32 1_555 1_555
C33 C32 1_555 1_555
H23 C33 1_555 1_555
C34 C33 1_555 1_555
H24 C34 1_555 1_555
C35 C34 1_555 1_555
H25 C35 1_555 1_555
C36 C31 1_555 1_555
H26 C36 1_555 1_555
N3 Zn2 1_555 1_555
C37 N3 1_555 1_555
H27 C37 1_555 1_555
C38 C37 1_555 1_555
H28 C38 1_555 1_555
C39 C38 1_555 1_555
N4 C40 1_555 1_555
C40 H29 1_555 1_555
C41 C40 1_555 1_555
H30 C41 1_555 1_555
C42 C39 1_555 1_555
F1 C43 1_555 1_555
C43 C44 1_555 1_555
C44 H31 1_555 1_555
C45 C44 1_555 1_555
H32 C45 1_555 1_555
C46 C45 1_555 1_555
H33 C46 1_555 1_555
C47 C46 1_555 1_555
H34 C47 1_555 1_555
C48 C43 1_555 1_555
H35 C48 1_555 1_555
F2 C49 1_555 1_555
C49 C50 1_555 1_555
C50 H36 1_555 1_555
C51 C50 1_555 1_555
H37 C51 1_555 1_555
C52 C51 1_555 1_555
H38 C52 1_555 1_555
C53 C52 1_555 1_555
H39 C53 1_555 1_555
C54 C49 1_555 1_555
H40 C54 1_555 1_555
C17E C18 1_555 1_555
C16E N1 1_555 1_555
H12E C16E 1_555 1_555
H13E C17E 1_555 1_555
C19E N2 1_555 1_555
H14E C19E 1_555 1_555
C20E C21 1_555 1_555
H15E C20E 1_555 1_555
C38E C39 1_555 1_555
C37E N3 1_555 1_555
H27E C37E 1_555 1_555
H28E C38E 1_555 1_555
C40E N4 1_555 1_555
H29E C40E 1_555 1_555
C41E C42 1_555 1_555
H30E C41E 1_555 1_555
O1E Zn1 1_555 1_555
O2E Zn1 1_555 1_555
C1E O1E 1_555 1_555
C2E C1E 1_555 1_555
H1E C2E 1_555 1_555
C3E O2E 1_555 1_555
C4E C1E 1_555 1_555
C5E C4E 1_555 1_555
H2E C5E 1_555 1_555
C6E C5E 1_555 1_555
H3E C6E 1_555 1_555
C7E C6E 1_555 1_555
H4E C7E 1_555 1_555
C8E C7E 1_555 1_555
H5E C8E 1_555 1_555
C9E C4E 1_555 1_555
H6E C9E 1_555 1_555
C10E C3E 1_555 1_555
C11E C10E 1_555 1_555
H7E C11E 1_555 1_555
C12E C11E 1_555 1_555
H8E C12E 1_555 1_555
C13E C12E 1_555 1_555
H9E C13E 1_555 1_555
C14E C13E 1_555 1_555
H10E C14E 1_555 1_555
C15E C10E 1_555 1_555
H11E C15E 1_555 1_555
O3E Zn2 1_555 1_555
O4E Zn2 1_555 1_555
C22E O3E 1_555 1_555
C23E C22E 1_555 1_555
H16E C23E 1_555 1_555
C24E O4E 1_555 1_555
C25E C22E 1_555 1_555
C26E C25E 1_555 1_555
H17E C26E 1_555 1_555
C27E C26E 1_555 1_555
H18E C27E 1_555 1_555
C28E C27E 1_555 1_555
H19E C28E 1_555 1_555
C29E C28E 1_555 1_555
H20E C29E 1_555 1_555
C30E C25E 1_555 1_555
H21E C30E 1_555 1_555
C31E C24E 1_555 1_555
C32E C31E 1_555 1_555
H22E C32E 1_555 1_555
C33E C32E 1_555 1_555
H23E C33E 1_555 1_555
C34E C33E 1_555 1_555
H24E C34E 1_555 1_555
C35E C34E 1_555 1_555
H25E C35E 1_555 1_555
C36E C31E 1_555 1_555
H26E C36E 1_555 1_555
N2B Zn1 1_555 1_555
Zn1B N2 1_555 1_555
N4B Zn2 1_555 1_555
Zn2B N4 1_555 1_555
C2 C3 1_555 1_555
C8 C9 1_555 1_555
C14 C15 1_555 1_555
C20 C21 1_555 1_555
C23 C24 1_555 1_555
C29 C30 1_555 1_555
C35 C36 1_555 1_555
C41 C42 1_555 1_555
C47 C48 1_555 1_555
C53 C54 1_555 1_555
C17E C16E 1_555 1_555
C19E C20E 1_555 1_555
C38E C37E 1_555 1_555
C40E C41E 1_555 1_555
C2E C3E 1_555 1_555
C8E C9E 1_555 1_555
C14E C15E 1_555 1_555
C23E C24E 1_555 1_555
C29E C30E 1_555 1_555
C35E C36E 1_555 1_555

#END
