
#######################################################################
#
#                 Cambridge Crystallographic Data Centre
#                                CCDC 
#
#######################################################################
#
# If this CIF has been generated from an entry in the Cambridge 
# Structural Database, then it will include bibliographic, chemical, 
# crystal, experimental, refinement or atomic coordinate data resulting 
# from the CCDC's data processing and validation procedures.
#
#######################################################################

data_AQIREX
_symmetry_cell_setting           triclinic
_symmetry_space_group_name_H-M   'P -1'
_symmetry_Int_Tables_number      2
_space_group_name_Hall           '-P 1'
loop_
_symmetry_equiv_pos_site_id
_symmetry_equiv_pos_as_xyz
1 x,y,z
2 -x,-y,-z
_cell_length_a                   13.006(2)
_cell_length_b                   13.322(2)
_cell_length_c                   22.970(3)
_cell_angle_alpha                99.79(1)
_cell_angle_beta                 95.59(1)
_cell_angle_gamma                102.04(1)
_cell_volume                     3799.05
loop_
_atom_site_label
_atom_site_type_symbol
_atom_site_fract_x
_atom_site_fract_y
_atom_site_fract_z
Zn1 Zn 0.533074(13) 0.730748(13) 0.651274(7)
O1 O 0.41748(8) 0.81572(8) 0.64450(5)
O2 O 0.41285(8) 0.59622(8) 0.63535(5)
O3 O 0.64418(8) 0.64162(8) 0.64746(5)
O4 O 0.65106(8) 0.86327(8) 0.66517(5)
C1 C 0.33087(12) 0.77894(12) 0.60980(7)
C2 C 0.28048(13) 0.67229(13) 0.59253(8)
H1 H 0.2135 0.6549 0.5682
C3 C 0.32101(12) 0.58941(12) 0.60832(7)
C4 C 0.73911(12) 0.67429(12) 0.63883(6)
C5 C 0.78833(12) 0.77851(12) 0.63884(8)
H2 H 0.8584 0.7914 0.6288
C6 C 0.74369(12) 0.86600(12) 0.65236(6)
C7 C 0.27957(14) 0.85740(13) 0.58551(8)
C8 C 0.29951(14) 0.95931(13) 0.61723(8)
H3 H 0.3417 0.9779 0.6553
C9 C 0.25843(17) 1.03441(16) 0.59389(10)
H4 H 0.2712 1.1036 0.6164
C10 C 0.1994(2) 1.00899(19) 0.53838(13)
H5 H 0.1724 1.0608 0.5221
C11 C 0.1794(3) 0.9083(2) 0.50638(14)
H6 H 0.1385 0.8907 0.4680
C12 C 0.2185(2) 0.83236(18) 0.52985(11)
H7 H 0.2033 0.7627 0.5077
C13 C 0.25038(12) 0.48150(12) 0.59222(7)
C14 C 0.19107(14) 0.44234(14) 0.53626(8)
H8 H 0.1921 0.4854 0.5072
C15 C 0.13018(16) 0.34023(15) 0.52271(9)
H9 H 0.0903 0.3135 0.4843
C16 C 0.12739(15) 0.27744(14) 0.56482(9)
H10 H 0.0860 0.2076 0.5553
C17 C 0.18485(15) 0.31643(14) 0.62078(9)
H11 H 0.1820 0.2735 0.6499
C18 C 0.24651(13) 0.41756(13) 0.63471(8)
H12 H 0.2863 0.4436 0.6732
C19 C 0.80138(12) 0.59088(12) 0.62710(7)
C20 C 0.74638(15) 0.48671(14) 0.61704(9)
H13 H 0.6721 0.4706 0.6185
C21 C 0.79810(18) 0.40588(16) 0.60499(11)
H14 H 0.7591 0.3352 0.5976
C22 C 0.90635(18) 0.42834(17) 0.60369(10)
H15 H 0.9420 0.3732 0.5954
C23 C 0.96245(15) 0.53105(17) 0.61445(9)
H16 H 1.0370 0.5465 0.6139
C24 C 0.91075(13) 0.61204(15) 0.62609(8)
H17 H 0.9503 0.6825 0.6334
C25 C 0.80992(12) 0.97406(12) 0.65326(7)
C26 C 0.91276(13) 0.99281(14) 0.63836(8)
H18 H 0.9435 0.9356 0.6253
C27 C 0.97046(15) 1.09469(16) 0.64253(9)
H19 H 1.0409 1.1067 0.6330
C28 C 0.92638(16) 1.17827(15) 0.66037(9)
H20 H 0.9661 1.2477 0.6629
C29 C 0.82421(18) 1.16095(14) 0.67465(9)
H21 H 0.7934 1.2185 0.6867
C30 C 0.76640(15) 1.05928(13) 0.67138(8)
H22 H 0.6964 1.0479 0.6816
N1 N 0.53675(9) 0.73621(9) 0.74564(5)
C31 C 0.51631(12) 0.81669(11) 0.78268(6)
H23 H 0.5058 0.8759 0.7670
C32 C 0.50977(12) 0.81787(11) 0.84269(6)
H24 H 0.4948 0.8765 0.8673
C33 C 0.52548(11) 0.73156(11) 0.86643(6)
C34 C 0.54637(11) 0.64774(11) 0.82773(6)
H25 H 0.5566 0.5871 0.8419
C35 C 0.55204(12) 0.65375(11) 0.76855(6)
H26 H 0.5676 0.5966 0.7429
N2 N 0.53511(11) 0.72923(10) 0.55302(5)
C36 C 0.52139(18) 0.81210(14) 0.53067(7)
H27 H 0.5181 0.8736 0.5576
C37 C 0.51166(18) 0.81345(14) 0.47027(7)
H28 H 0.5021 0.8748 0.4567
C38 C 0.51584(12) 0.72509(12) 0.42948(6)
C39 C 0.53352(14) 0.63968(13) 0.45292(7)
H29 H 0.5395 0.5779 0.4272
C40 C 0.54242(14) 0.64533(13) 0.51427(7)
H30 H 0.5544 0.5860 0.5294
Zn2 Zn 0.501899(12) 0.719079(12) 0.143808(7)
O5 O 0.38191(8) 0.79745(8) 0.14230(5)
O6 O 0.38760(8) 0.57830(8) 0.12558(4)
O7 O 0.62476(8) 0.64381(8) 0.15198(4)
O8 O 0.61343(8) 0.85787(8) 0.16901(5)
C41 C 0.29079(11) 0.76262(11) 0.15561(6)
C42 C 0.25071(12) 0.65810(12) 0.16090(7)
H31 H 0.1851 0.6431 0.1762
C43 C 0.29928(11) 0.57443(11) 0.14557(6)
C44 C 0.71127(11) 0.68293(11) 0.18716(6)
C45 C 0.74912(12) 0.78919(12) 0.21345(7)
H32 H 0.8116 0.8076 0.2417
C46 C 0.70178(11) 0.87075(11) 0.20120(6)
C47 C 0.22294(12) 0.84052(11) 0.16630(7)
C48 C 0.27030(14) 0.94627(13) 0.17165(8)
H33 H 0.3438 0.9670 0.1688
C49 C 0.21121(15) 1.02162(14) 0.18116(10)
H34 H 0.2444 1.0936 0.1853
C50 C 0.10361(15) 0.99165(15) 0.18463(10)
H35 H 0.0630 1.0431 0.1911
C51 C 0.05541(14) 0.88709(14) 0.17863(9)
H36 H -0.0186 0.8666 0.1802
C52 C 0.11476(12) 0.81186(12) 0.17026(7)
H37 H 0.0815 0.7402 0.1672
C53 C 0.23988(11) 0.46844(12) 0.15226(7)
C54 C 0.19188(14) 0.45471(14) 0.20291(9)
H38 H 0.1954 0.5132 0.2338
C55 C 0.13883(16) 0.35549(17) 0.20819(11)
H39 H 0.1070 0.3460 0.2430
C56 C 0.13218(16) 0.27033(16) 0.16289(12)
H40 H 0.0941 0.2029 0.1662
C57 C 0.18049(16) 0.28287(14) 0.11308(10)
H41 H 0.1764 0.2241 0.0823
C58 C 0.23533(13) 0.38168(13) 0.10794(8)
H42 H 0.2699 0.3900 0.0739
C59 C 0.77642(12) 0.60648(12) 0.20009(7)
C60 C 0.72762(14) 0.50037(13) 0.18698(9)
H43 H 0.6546 0.4787 0.1710
C61 C 0.78386(17) 0.42556(15) 0.19686(10)
H44 H 0.7494 0.3534 0.1875
C62 C 0.88986(16) 0.45630(15) 0.22028(10)
H45 H 0.9285 0.4053 0.2272
C63 C 0.93948(15) 0.56083(15) 0.23358(9)
H46 H 1.0125 0.5819 0.2497
C64 C 0.88356(13) 0.63589(13) 0.22360(8)
H47 H 0.9187 0.7079 0.2329
C65 C 0.75698(11) 0.98277(11) 0.22737(6)
C66 C 0.86344(12) 1.01482(13) 0.25207(8)
H48 H 0.9053 0.9644 0.2531
C67 C 0.90893(14) 1.11971(13) 0.27517(8)
H49 H 0.9821 1.1409 0.2908
C68 C 0.84827(14) 1.19366(13) 0.27551(8)
H50 H 0.8791 1.2651 0.2925
C69 C 0.74254(13) 1.16289(12) 0.25102(7)
H51 H 0.7005 1.2133 0.2511
C70 C 0.69776(12) 1.05867(12) 0.22632(7)
H52 H 0.6257 1.0386 0.2084
N3 N 0.49197(10) 0.71969(10) 0.24094(5)
C71 C 0.48296(14) 0.80372(13) 0.27919(7)
H53 H 0.4724 0.8633 0.2639
C72 C 0.48820(14) 0.80827(13) 0.34014(7)
H54 H 0.4809 0.8698 0.3656
C73 C 0.50425(12) 0.72228(11) 0.36411(6)
C74 C 0.51075(13) 0.63395(12) 0.32384(7)
H55 H 0.5191 0.5723 0.3375
C75 C 0.50491(13) 0.63683(12) 0.26355(7)
H56 H 0.5105 0.5760 0.2368
N4 N 0.51089(9) 0.72259(9) 1.05154(5)
C76 C 0.53492(11) 0.81380(11) 1.03316(6)
H57 H 0.5486 0.8770 1.0620
C77 C 0.54065(12) 0.81989(11) 0.97371(6)
H58 H 0.5579 0.8862 0.9626
C78 C 0.52105(11) 0.72862(11) 0.93055(6)
C79 C 0.49680(12) 0.63348(11) 0.95011(6)
H59 H 0.4838 0.5690 0.9225
C80 C 0.49199(12) 0.63463(11) 1.01010(6)
H60 H 0.4743 0.5695 1.0226
N4_2 N 0.51089(9) 0.72259(9) 0.05154(5)
Zn2_2 Zn 0.501899(12) 0.719079(12) 1.143808(7)
N5 N 0.87189(13) 0.38362(13) 0.04853(8)
C81 C 0.78630(16) 0.41655(16) 0.03051(12)
H61 H 0.7219 0.3655 0.0166
C82 C 0.78525(14) 0.52014(15) 0.03084(10)
H62 H 0.7210 0.5390 0.0190
C83 C 0.87866(13) 0.59646(13) 0.04857(7)
C84 C 0.96876(14) 0.56308(14) 0.06732(8)
H63 H 1.0350 0.6120 0.0799
C85 C 0.96071(16) 0.45742(15) 0.06740(8)
H64 H 1.0224 0.4366 0.0818
N6 N 0.89347(12) 0.91911(12) 0.04037(7)
C86 C 0.81025(13) 0.85993(14) 0.05803(8)
H65 H 0.7542 0.8915 0.0692
C87 C 0.80113(13) 0.75538(14) 0.06096(8)
H66 H 0.7395 0.7166 0.0729
C88 C 0.88353(12) 0.70804(13) 0.04618(7)
C89 C 0.97073(13) 0.76919(14) 0.02830(8)
H67 H 1.0289 0.7403 0.0179
C90 C 0.97181(14) 0.87257(14) 0.02579(8)
H68 H 1.0316 0.9128 0.0130
S1 S 0.71021(3) 0.14860(3) 0.06570(2)
O9 O 0.63954(10) 0.04992(9) 0.07470(6)
C91 C 0.73516(15) 0.12281(17) -0.00993(8)
H69 H 0.7623 0.0591 -0.0172
H70 H 0.7878 0.1820 -0.0173
H71 H 0.6690 0.1132 -0.0368
C92 C 0.84075(14) 0.15458(14) 0.10087(8)
H72 H 0.8399 0.1578 0.1438
H73 H 0.8897 0.2171 0.0944
H74 H 0.8642 0.0921 0.0837
loop_
_geom_bond_atom_site_label_1
_geom_bond_atom_site_label_2
_geom_bond_site_symmetry_1
_geom_bond_site_symmetry_2
Zn1 O1 1_555 1_555
O1 C1 1_555 1_555
O2 Zn1 1_555 1_555
O3 Zn1 1_555 1_555
O4 Zn1 1_555 1_555
C1 C2 1_555 1_555
C2 H1 1_555 1_555
C3 O2 1_555 1_555
C4 O3 1_555 1_555
C5 C4 1_555 1_555
H2 C5 1_555 1_555
C6 O4 1_555 1_555
C7 C1 1_555 1_555
C8 C7 1_555 1_555
H3 C8 1_555 1_555
C9 C8 1_555 1_555
H4 C9 1_555 1_555
C10 C9 1_555 1_555
H5 C10 1_555 1_555
C11 C10 1_555 1_555
H6 C11 1_555 1_555
C12 C7 1_555 1_555
H7 C12 1_555 1_555
C13 C3 1_555 1_555
C14 C13 1_555 1_555
H8 C14 1_555 1_555
C15 C14 1_555 1_555
H9 C15 1_555 1_555
C16 C15 1_555 1_555
H10 C16 1_555 1_555
C17 C16 1_555 1_555
H11 C17 1_555 1_555
C18 C13 1_555 1_555
H12 C18 1_555 1_555
C19 C4 1_555 1_555
C20 C19 1_555 1_555
H13 C20 1_555 1_555
C21 C20 1_555 1_555
H14 C21 1_555 1_555
C22 C21 1_555 1_555
H15 C22 1_555 1_555
C23 C22 1_555 1_555
H16 C23 1_555 1_555
C24 C19 1_555 1_555
H17 C24 1_555 1_555
C25 C6 1_555 1_555
C26 C25 1_555 1_555
H18 C26 1_555 1_555
C27 C26 1_555 1_555
H19 C27 1_555 1_555
C28 C27 1_555 1_555
H20 C28 1_555 1_555
C29 C28 1_555 1_555
H21 C29 1_555 1_555
C30 C25 1_555 1_555
H22 C30 1_555 1_555
N1 Zn1 1_555 1_555
C31 N1 1_555 1_555
H23 C31 1_555 1_555
C32 C31 1_555 1_555
H24 C32 1_555 1_555
C33 C32 1_555 1_555
C34 C33 1_555 1_555
H25 C34 1_555 1_555
C35 N1 1_555 1_555
H26 C35 1_555 1_555
N2 Zn1 1_555 1_555
C36 N2 1_555 1_555
H27 C36 1_555 1_555
C37 C36 1_555 1_555
H28 C37 1_555 1_555
C38 C37 1_555 1_555
C39 C38 1_555 1_555
H29 C39 1_555 1_555
C40 N2 1_555 1_555
H30 C40 1_555 1_555
Zn2 O5 1_555 1_555
O5 C41 1_555 1_555
O6 Zn2 1_555 1_555
O7 Zn2 1_555 1_555
O8 Zn2 1_555 1_555
C41 C42 1_555 1_555
C42 H31 1_555 1_555
C43 O6 1_555 1_555
C44 O7 1_555 1_555
C45 C44 1_555 1_555
H32 C45 1_555 1_555
C46 O8 1_555 1_555
C47 C41 1_555 1_555
C48 C47 1_555 1_555
H33 C48 1_555 1_555
C49 C48 1_555 1_555
H34 C49 1_555 1_555
C50 C49 1_555 1_555
H35 C50 1_555 1_555
C51 C50 1_555 1_555
H36 C51 1_555 1_555
C52 C47 1_555 1_555
H37 C52 1_555 1_555
C53 C43 1_555 1_555
C54 C53 1_555 1_555
H38 C54 1_555 1_555
C55 C54 1_555 1_555
H39 C55 1_555 1_555
C56 C55 1_555 1_555
H40 C56 1_555 1_555
C57 C56 1_555 1_555
H41 C57 1_555 1_555
C58 C53 1_555 1_555
H42 C58 1_555 1_555
C59 C44 1_555 1_555
C60 C59 1_555 1_555
H43 C60 1_555 1_555
C61 C60 1_555 1_555
H44 C61 1_555 1_555
C62 C61 1_555 1_555
H45 C62 1_555 1_555
C63 C62 1_555 1_555
H46 C63 1_555 1_555
C64 C59 1_555 1_555
H47 C64 1_555 1_555
C65 C46 1_555 1_555
C66 C65 1_555 1_555
H48 C66 1_555 1_555
C67 C66 1_555 1_555
H49 C67 1_555 1_555
C68 C67 1_555 1_555
H50 C68 1_555 1_555
C69 C68 1_555 1_555
H51 C69 1_555 1_555
C70 C65 1_555 1_555
H52 C70 1_555 1_555
N3 Zn2 1_555 1_555
C71 N3 1_555 1_555
H53 C71 1_555 1_555
C72 C71 1_555 1_555
H54 C72 1_555 1_555
C73 C38 1_555 1_555
C74 C73 1_555 1_555
H55 C74 1_555 1_555
C75 N3 1_555 1_555
H56 C75 1_555 1_555
N4 C76 1_555 1_555
C76 H57 1_555 1_555
C77 C76 1_555 1_555
H58 C77 1_555 1_555
C78 C33 1_555 1_555
C79 C78 1_555 1_555
H59 C79 1_555 1_555
C80 N4 1_555 1_555
H60 C80 1_555 1_555
N5 C81 1_555 1_555
C81 H61 1_555 1_555
C82 C81 1_555 1_555
H62 C82 1_555 1_555
C83 C82 1_555 1_555
C84 C83 1_555 1_555
H63 C84 1_555 1_555
C85 N5 1_555 1_555
H64 C85 1_555 1_555
N6 C86 1_555 1_555
C86 H65 1_555 1_555
C87 C86 1_555 1_555
H66 C87 1_555 1_555
C88 C83 1_555 1_555
C89 C88 1_555 1_555
H67 C89 1_555 1_555
C90 N6 1_555 1_555
H68 C90 1_555 1_555
S1 O9 1_555 1_555
C91 S1 1_555 1_555
H69 C91 1_555 1_555
H70 C91 1_555 1_555
H71 C91 1_555 1_555
C92 S1 1_555 1_555
H72 C92 1_555 1_555
H73 C92 1_555 1_555
H74 C92 1_555 1_555
N4_2 Zn2 1_555 1_555
Zn2_2 N4 1_555 1_555
C2 C3 1_555 1_555
C5 C6 1_555 1_555
C11 C12 1_555 1_555
C17 C18 1_555 1_555
C23 C24 1_555 1_555
C29 C30 1_555 1_555
C34 C35 1_555 1_555
C39 C40 1_555 1_555
C42 C43 1_555 1_555
C45 C46 1_555 1_555
C51 C52 1_555 1_555
C57 C58 1_555 1_555
C63 C64 1_555 1_555
C69 C70 1_555 1_555
C72 C73 1_555 1_555
C74 C75 1_555 1_555
C77 C78 1_555 1_555
C79 C80 1_555 1_555
C84 C85 1_555 1_555
C87 C88 1_555 1_555
C89 C90 1_555 1_555

#END
