
#######################################################################
#
#                 Cambridge Crystallographic Data Centre
#                                CCDC 
#
#######################################################################
#
# If this CIF has been generated from an entry in the Cambridge 
# Structural Database, then it will include bibliographic, chemical, 
# crystal, experimental, refinement or atomic coordinate data resulting 
# from the CCDC's data processing and validation procedures.
#
#######################################################################

data_AQIRAT
_symmetry_cell_setting           monoclinic
_symmetry_space_group_name_H-M   'C 2/c'
_symmetry_Int_Tables_number      15
_space_group_name_Hall           '-C 2yn'
loop_
_symmetry_equiv_pos_site_id
_symmetry_equiv_pos_as_xyz
1 x,y,z
2 -x,y,1/2-z
3 1/2+x,1/2+y,z
4 1/2-x,1/2+y,1/2-z
5 -x,-y,-z
6 x,-y,1/2+z
7 1/2-x,1/2-y,-z
8 1/2+x,1/2-y,1/2+z
_cell_length_a                   23.109(3)
_cell_length_b                   25.834(4)
_cell_length_c                   10.185(2)
_cell_angle_alpha                90
_cell_angle_beta                 104.61(1)
_cell_angle_gamma                90
_cell_volume                     5883.81
loop_
_atom_site_label
_atom_site_type_symbol
_atom_site_fract_x
_atom_site_fract_y
_atom_site_fract_z
N2 N 0.43544(13) 0.09560(12) 0.5304(3)
C21 C 0.49047(16) 0.07848(15) 0.5397(3)
H16 H 0.5124 0.0653 0.6248
C22 C 0.51786(14) 0.07853(12) 0.4345(3)
H17 H 0.5576 0.0662 0.4478
C23 C 0.48653(11) 0.09690(9) 0.3084(2)
C24 C 0.42888(12) 0.11477(9) 0.2972(3)
H18 H 0.4055 0.1275 0.2129
C25 C 0.40588(14) 0.11387(11) 0.4094(3)
H19 H 0.3667 0.1270 0.4002
C23A C 0.51347(11) 0.09690(9) 0.1916(2)
C22A C 0.48214(14) 0.07853(12) 0.0655(3)
C21A C 0.50953(16) 0.07848(15) -0.0397(3)
N2A N 0.56456(13) 0.09560(12) -0.0304(3)
C25A C 0.59412(14) 0.11387(11) 0.0906(3)
C24A C 0.57112(12) 0.11477(9) 0.2028(3)
H18A H 0.5945 0.1275 0.2871
H19A H 0.6333 0.1270 0.0998
H16A H 0.4876 0.0653 -0.1248
H17A H 0.4424 0.0662 0.0522
C26 C 0.00385(18) 0.20399(13) 0.2753(3)
C27 C 0.06456(17) 0.21239(16) 0.3169(4)
H20 H 0.0910 0.1840 0.3440
C28 C 0.0869(2) 0.26183(18) 0.3190(4)
H21 H 0.1288 0.2676 0.3477
C29 C 0.0486(3) 0.30289(15) 0.2797(5)
H22 H 0.0640 0.3370 0.2812
C30 C -0.0121(2) 0.29460(15) 0.2381(6)
H23 H 0.0386 0.3230 0.2890
C31 C -0.03449(19) 0.24511(16) 0.2360(5)
H24 H 0.0764 0.2393 0.2927
C32 C -0.02290(16) 0.14922(18) 0.2715(4)
C33 C 0.0255(3) 0.10897(18) 0.3231(7)
H25 H -0.0536 0.1090 0.2347
H26 H 0.0072 0.0747 0.3207
H27 H 0.0470 0.1173 0.4166
C34 C -0.0562(2) 0.1340(2) 0.1283(6)
H28 H 0.0280 0.1318 0.4289
H29 H -0.0867 0.1601 0.0912
H30 H 0.0754 0.1003 0.3698
C35 C -0.0668(2) 0.1461(2) 0.3606(5)
H31 H -0.0828 0.1108 0.3575
H32 H -0.0997 0.1704 0.3271
H33 H -0.0461 0.1549 0.4543
C26A C -0.00385(18) 0.20399(13) 0.2247(3)
C27A C -0.06456(17) 0.21239(16) 0.1831(4)
C31A C 0.03449(19) 0.24511(16) 0.2640(5)
C32A C 0.02290(16) 0.14922(18) 0.2285(4)
C33A C -0.0255(3) 0.10897(18) 0.1769(7)
H25A H 0.0536 0.1090 0.2653
H26A H -0.0072 0.0747 0.1793
H27A H -0.0470 0.1173 0.0834
H28A H -0.0280 0.1318 0.0711
H30A H -0.0754 0.1003 0.1302
C34A C 0.0562(2) 0.1340(2) 0.3717(6)
C35A C 0.0668(2) 0.1461(2) 0.1394(5)
H31A H 0.0828 0.1108 0.1425
H32A H 0.0997 0.1704 0.1729
H33A H 0.0461 0.1549 0.0457
H29A H 0.0867 0.1601 0.4088
H20A H -0.0910 0.1840 0.1560
C28A C -0.0869(2) 0.26183(18) 0.1810(4)
H21A H -0.1288 0.2676 0.1523
C29A C -0.0486(3) 0.30289(15) 0.2203(5)
H22A H -0.0640 0.3370 0.2188
H23A H -0.0386 0.3230 0.2110
C30A C 0.0121(2) 0.29460(15) 0.2619(6)
H24A H -0.0764 0.2393 0.2073
Zn1 Zn 0.2500 0.2500 0.0000
O1 O 0.23266(6) 0.21426(5) 0.16797(13)
O2 O 0.26139(6) 0.17801(5) -0.07964(13)
N1 N 0.34486(7) 0.24931(7) 0.09700(16)
C1 C 0.24127(8) 0.16695(8) 0.19658(19)
C2 C 0.26155(10) 0.12920(8) 0.1184(2)
H1 H 0.2690 0.0956 0.1566
C3 C 0.27182(9) 0.13663(8) -0.01059(19)
C4 C 0.23083(9) 0.14988(8) 0.3295(2)
C5 C 0.24458(10) 0.18389(9) 0.4391(2)
H2 H 0.2605 0.2171 0.4285
C6 C 0.23517(11) 0.16979(10) 0.5638(2)
H3 H 0.2456 0.1929 0.6386
C7 C 0.21066(12) 0.12201(11) 0.5784(2)
H4 H 0.2033 0.1126 0.6629
C8 C 0.19685(14) 0.08802(12) 0.4709(3)
H5 H 0.1799 0.0553 0.4814
C9 C 0.20757(12) 0.10139(10) 0.3474(2)
H6 H 0.1990 0.0773 0.2745
C10 C 0.29857(10) 0.09274(8) -0.0725(2)
C11 C 0.29355(12) 0.04104(9) -0.0381(2)
H7 H 0.2722 0.0323 0.0272
C12 C 0.31940(14) 0.00246(10) -0.0979(3)
H8 H 0.3159 -0.0326 -0.0732
C13 C 0.35035(14) 0.01453(10) -0.1937(2)
H9 H 0.3680 -0.0122 -0.2347
C14 C 0.35560(12) 0.06537(10) -0.2296(2)
H10 H 0.3767 0.0738 -0.2955
C15 C 0.32983(10) 0.10422(9) -0.1688(2)
H11 H 0.3337 0.1393 -0.1936
C16 C 0.36659(9) 0.26027(11) 0.2283(2)
H12 H 0.3393 0.2692 0.2804
C17 C 0.42687(9) 0.25924(10) 0.2920(2)
H13 H 0.4404 0.2673 0.3858
C18 C 0.46749(7) 0.24640(7) 0.21796(18)
C19 C 0.44486(9) 0.23422(8) 0.0823(2)
H14 H 0.4710 0.2244 0.0281
C20 C 0.38379(9) 0.23648(8) 0.0262(2)
H15 H 0.3690 0.2285 -0.0673
C18A C 0.53251(7) 0.24640(7) 0.28204(18)
C17A C 0.57313(9) 0.25924(10) 0.2080(2)
C16A C 0.63341(9) 0.26027(11) 0.2717(2)
N1A N 0.65514(7) 0.24931(7) 0.40300(16)
C20A C 0.61621(9) 0.23648(8) 0.4738(2)
C19A C 0.55514(9) 0.23422(8) 0.4177(2)
H14A H 0.5290 0.2244 0.4719
H15A H 0.6310 0.2285 0.5673
H12A H 0.6607 0.2692 0.2196
H13A H 0.5596 0.2673 0.1142
O1F O 0.26734(6) 0.28574(5) -0.16797(13)
O2F O 0.23861(6) 0.32199(5) 0.07964(13)
C1F C 0.25873(8) 0.33305(8) -0.19658(19)
C2F C 0.23845(10) 0.37080(8) -0.1184(2)
H1F H 0.2310 0.4044 -0.1566
C3F C 0.22818(9) 0.36337(8) 0.01059(19)
C4F C 0.26917(9) 0.35012(8) -0.3295(2)
C5F C 0.25542(10) 0.31611(9) -0.4391(2)
H2F H 0.2395 0.2829 -0.4285
C6F C 0.26483(11) 0.33021(10) -0.5638(2)
H3F H 0.2544 0.3071 -0.6386
C7F C 0.28934(12) 0.37799(11) -0.5784(2)
H4F H 0.2967 0.3874 -0.6629
C8F C 0.30315(14) 0.41198(12) -0.4709(3)
H5F H 0.3201 0.4447 -0.4814
C9F C 0.29243(12) 0.39861(10) -0.3474(2)
H6F H 0.3010 0.4227 -0.2745
C10F C 0.20143(10) 0.40726(8) 0.0725(2)
C11F C 0.20645(12) 0.45896(9) 0.0381(2)
H7F H 0.2278 0.4677 -0.0272
C12F C 0.18060(14) 0.49754(10) 0.0979(3)
H8F H 0.1841 0.5326 0.0732
C13F C 0.14965(14) 0.48547(10) 0.1937(2)
H9F H 0.1320 0.5122 0.2347
C14F C 0.14440(12) 0.43463(10) 0.2296(2)
H10F H 0.1233 0.4262 0.2955
C15F C 0.17017(10) 0.39578(9) 0.1688(2)
H11F H 0.1663 0.3607 0.1936
N1F N 0.15514(7) 0.25069(7) -0.09700(16)
Zn1A Zn 0.7500 0.2500 0.5000
C36? C 0.00247(16) 0.05836(13) 0.6739(4)
C37? C 0.0284(2) 0.02515(15) 0.5997(4)
H34? H 0.0045 0.0086 0.5213
C38? C 0.0890(2) 0.01585(17) 0.6388(6)
H35? H 0.1068 -0.0071 0.5874
C39? C 0.1237(2) 0.0397(2) 0.7523(6)
H36? H 0.1655 0.0333 0.7793
C40? C 0.0978(3) 0.0730(3) 0.8266(5)
H37? H 0.1218 0.0895 0.9049
C41? C 0.0373(2) 0.0822(2) 0.7874(5)
H38? H 0.0195 0.1052 0.8387
C42? C -0.0654(3) 0.06830(18) 0.6286(5)
C43? C -0.0958(3) 0.0531(5) 0.7392(9)
H39? H -0.0876 0.0795 0.8108
H40? H -0.0802 0.0196 0.7777
H41? H -0.1390 0.0505 0.7005
C44? C -0.0948(3) 0.0369(3) 0.5028(8)
H42? H -0.0902 -0.0001 0.5240
H43? H -0.0755 0.0450 0.4298
H44? H -0.1374 0.0456 0.4736
C45? C -0.0793(3) 0.1249(2) 0.5947(11)
H45? H -0.1224 0.1291 0.5560
H46? H -0.0576 0.1365 0.5288
H47? H -0.0668 0.1457 0.6775
loop_
_geom_bond_atom_site_label_1
_geom_bond_atom_site_label_2
_geom_bond_site_symmetry_1
_geom_bond_site_symmetry_2
Zn1 O1 1_555 1_555
O1 C1 1_555 1_555
O2 Zn1 1_555 1_555
N1 Zn1 1_555 1_555
C1 C2 1_555 1_555
C2 H1 1_555 1_555
C3 O2 1_555 1_555
C4 C1 1_555 1_555
C5 C4 1_555 1_555
H2 C5 1_555 1_555
C6 C5 1_555 1_555
H3 C6 1_555 1_555
C7 C6 1_555 1_555
H4 C7 1_555 1_555
C8 C7 1_555 1_555
H5 C8 1_555 1_555
C9 C4 1_555 1_555
H6 C9 1_555 1_555
C10 C3 1_555 1_555
C11 C10 1_555 1_555
H7 C11 1_555 1_555
C12 C11 1_555 1_555
H8 C12 1_555 1_555
C13 C12 1_555 1_555
H9 C13 1_555 1_555
C14 C13 1_555 1_555
H10 C14 1_555 1_555
C15 C10 1_555 1_555
H11 C15 1_555 1_555
C16 N1 1_555 1_555
H12 C16 1_555 1_555
C17 C16 1_555 1_555
H13 C17 1_555 1_555
C18 C17 1_555 1_555
C19 C18 1_555 1_555
H14 C19 1_555 1_555
C20 N1 1_555 1_555
H15 C20 1_555 1_555
N2 C21 1_555 1_555
C21 H16 1_555 1_555
C22 C21 1_555 1_555
H17 C22 1_555 1_555
C23 C22 1_555 1_555
C24 C23 1_555 1_555
H18 C24 1_555 1_555
C25 N2 1_555 1_555
H19 C25 1_555 1_555
C26 C27 1_555 1_555
C27 H20 1_555 1_555
C28 C27 1_555 1_555
H21 C28 1_555 1_555
C29 C28 1_555 1_555
H22 C29 1_555 1_555
C30 C29 1_555 1_555
H23 C29 1_555 1_555
C31 C26 1_555 1_555
H24 C27 1_555 1_555
C32 C26 1_555 1_555
C33 C32 1_555 1_555
H25 C32 1_555 1_555
H26 C33 1_555 1_555
H27 C33 1_555 1_555
C34 C32 1_555 1_555
H28 C33 1_555 1_555
H29 C34 1_555 1_555
H30 C33 1_555 1_555
C35 C32 1_555 1_555
H31 C35 1_555 1_555
H32 C35 1_555 1_555
H33 C35 1_555 1_555
C18A C18 1_555 1_555
C17A C18A 1_555 1_555
C16A C17A 1_555 1_555
N1A C16A 1_555 1_555
C20A N1A 1_555 1_555
C19A C18A 1_555 1_555
H14A C19A 1_555 1_555
H15A C20A 1_555 1_555
H12A C16A 1_555 1_555
H13A C17A 1_555 1_555
C23A C23 1_555 1_555
C22A C23A 1_555 1_555
C21A C22A 1_555 1_555
N2A C21A 1_555 1_555
C25A N2A 1_555 1_555
C24A C23A 1_555 1_555
H18A C24A 1_555 1_555
H19A C25A 1_555 1_555
H16A C21A 1_555 1_555
H17A C22A 1_555 1_555
C26A C26 1_555 1_555
C27A C26 1_555 1_555
C31A C26 1_555 1_555
C32A C26 1_555 1_555
C33A C32 1_555 1_555
H25A C33 1_555 1_555
H26A C33A 1_555 1_555
H27A C34 1_555 1_555
H28A C34 1_555 1_555
H30A C34 1_555 1_555
C34A C33 1_555 1_555
C35A C32A 1_555 1_555
H31A C35A 1_555 1_555
H32A C35A 1_555 1_555
H33A C35A 1_555 1_555
H29A C34A 1_555 1_555
H20A C27A 1_555 1_555
C28A C31 1_555 1_555
H21A C28A 1_555 1_555
C29A C30 1_555 1_555
H22A C29A 1_555 1_555
H23A C30 1_555 1_555
C30A C29 1_555 1_555
H24A C31 1_555 1_555
O1F Zn1 1_555 1_555
O2F Zn1 1_555 1_555
C1F O1F 1_555 1_555
C2F C1F 1_555 1_555
H1F C2F 1_555 1_555
C3F O2F 1_555 1_555
C4F C1F 1_555 1_555
C5F C4F 1_555 1_555
H2F C5F 1_555 1_555
C6F C5F 1_555 1_555
H3F C6F 1_555 1_555
C7F C6F 1_555 1_555
H4F C7F 1_555 1_555
C8F C7F 1_555 1_555
H5F C8F 1_555 1_555
C9F C4F 1_555 1_555
H6F C9F 1_555 1_555
C10F C3F 1_555 1_555
C11F C10F 1_555 1_555
H7F C11F 1_555 1_555
C12F C11F 1_555 1_555
H8F C12F 1_555 1_555
C13F C12F 1_555 1_555
H9F C13F 1_555 1_555
C14F C13F 1_555 1_555
H10F C14F 1_555 1_555
C15F C10F 1_555 1_555
H11F C15F 1_555 1_555
N1F Zn1 1_555 1_555
Zn1A N1A 1_555 1_555
C2 C3 1_555 1_555
C8 C9 1_555 1_555
C14 C15 1_555 1_555
C19 C20 1_555 1_555
C24 C25 1_555 1_555
C27 C26A 1_555 1_555
C27 C31A 1_555 1_555
C28 H24 1_555 1_555
C28 C31A 1_555 1_555
C29 C31A 1_555 1_555
H22 H23 1_555 1_555
C30 C31 1_555 1_555
C30 C30A 1_555 1_555
C30 C31A 1_555 1_555
H23 C30A 1_555 1_555
C31 C26A 1_555 1_555
C31 C27A 1_555 1_555
C31 C29A 1_555 1_555
C31 C31A 1_555 1_555
C31 C30A 1_555 1_555
H24 C31A 1_555 1_555
C32 C26A 1_555 1_555
C32 C32A 1_555 1_555
C33 C32A 1_555 1_555
C33 C33A 1_555 1_555
H25 C33A 1_555 1_555
H25 C34 1_555 1_555
H27 C34A 1_555 1_555
H27 H28 1_555 1_555
C34 C33A 1_555 1_555
H28 C34A 1_555 1_555
H30 C34A 1_555 1_555
C20A C19A 1_555 1_555
C25A C24A 1_555 1_555
C26A C27A 1_555 1_555
C26A C31A 1_555 1_555
C26A C32A 1_555 1_555
C27A C28A 1_555 1_555
C27A H24A 1_555 1_555
C31A C30A 1_555 1_555
C32A C33A 1_555 1_555
C32A H25A 1_555 1_555
C32A C34A 1_555 1_555
C33A H27A 1_555 1_555
C33A H30A 1_555 1_555
C33A H28A 1_555 1_555
H25A C34A 1_555 1_555
H27A H28A 1_555 1_555
C28A C29A 1_555 1_555
C28A H24A 1_555 1_555
C29A C30A 1_555 1_555
C29A H23A 1_555 1_555
H22A H23A 1_555 1_555
C2F C3F 1_555 1_555
C8F C9F 1_555 1_555
C14F C15F 1_555 1_555

#END
