
#######################################################################
#
#                 Cambridge Crystallographic Data Centre
#                                CCDC 
#
#######################################################################
#
# If this CIF has been generated from an entry in the Cambridge 
# Structural Database, then it will include bibliographic, chemical, 
# crystal, experimental, refinement or atomic coordinate data resulting 
# from the CCDC's data processing and validation procedures.
#
#######################################################################

data_AQIVIF
_symmetry_cell_setting           monoclinic
_symmetry_space_group_name_H-M   'P 21/c'
_symmetry_Int_Tables_number      14
_space_group_name_Hall           '-P 2ybc'
loop_
_symmetry_equiv_pos_site_id
_symmetry_equiv_pos_as_xyz
1 x,y,z
2 x,1/2-y,1/2+z
3 -x,-y,-z
4 -x,1/2+y,1/2-z
_cell_length_a                   10.970(2)
_cell_length_b                   17.575(4)
_cell_length_c                   13.612(3)
_cell_angle_alpha                90
_cell_angle_beta                 100.21(3)
_cell_angle_gamma                90
_cell_volume                     2582.81
loop_
_atom_site_label
_atom_site_type_symbol
_atom_site_fract_x
_atom_site_fract_y
_atom_site_fract_z
La1 La 0.656630(17) 0.237298(11) 0.092985(16)
La2 La 0.172825(17) 0.459051(11) 0.094290(17)
C1 C 0.1564(3) 0.3946(2) -0.1574(3)
C2 C 0.1835(4) 0.3576(3) -0.2406(4)
H1 H 0.1401 0.3689 -0.3040
C3 C 0.2764(4) 0.3034(3) -0.2277(4)
H2 H 0.2983 0.2784 -0.2823
C4 C 0.3357(4) 0.2874(2) -0.1325(4)
H3 H 0.3988 0.2515 -0.1219
C5 C 0.3013(3) 0.3248(2) -0.0522(3)
C6 C 0.0600(3) 0.4564(2) -0.1641(3)
C7 C 0.3590(3) 0.3101(2) 0.0548(3)
C8 C 1.1866(3) 0.3920(2) 0.3391(3)
C9 C 1.1557(4) 0.3572(3) 0.4228(4)
H4 H 1.1997 0.3676 0.4862
C10 C 1.0579(5) 0.3065(3) 0.4097(4)
H5 H 1.0353 0.2823 0.4645
C11 C 0.9938(4) 0.2921(3) 0.3147(4)
H6 H 0.9275 0.2584 0.3044
C12 C 1.0305(3) 0.3290(2) 0.2355(3)
C13 C 1.2863(3) 0.4517(2) 0.3452(3)
C14 C 0.9673(3) 0.3189(2) 0.1284(3)
C15 C 0.6416(4) 0.3718(2) 0.2801(3)
C16 C 0.6200(5) 0.4387(3) 0.3287(4)
H7 H 0.6205 0.4390 0.3970
C17 C 0.5980(5) 0.5042(3) 0.2738(4)
H8 H 0.5813 0.5494 0.3044
C18 C 0.6007(4) 0.5025(2) 0.1717(3)
H9 H 0.5871 0.5464 0.1330
C19 C 0.6242(3) 0.4339(2) 0.1301(3)
C20 C 0.6657(4) 0.2965(2) 0.3325(3)
C21 C 0.6345(3) 0.4253(2) 0.0215(3)
N1 N 0.2127(3) 0.37796(17) -0.0645(3)
N2 N 1.1250(3) 0.37789(17) 0.2470(2)
N3 N 0.6425(3) 0.36947(18) 0.1828(3)
O1 O 0.0517(2) 0.48929(15) -0.0821(2)
O2 O -0.0056(3) 0.4707(2) -0.2446(3)
O3 O 0.3244(3) 0.34987(17) 0.1202(2)
O4 O 0.4368(2) 0.25664(16) 0.0714(3)
O5 O 1.2916(2) 0.48692(16) 0.2653(2)
O6 O 1.3531(3) 0.46362(18) 0.4271(2)
O7 O 1.0154(2) 0.34930(16) 0.0617(2)
O8 O 0.8696(3) 0.28109(19) 0.1129(3)
O9 O 0.6728(3) 0.23917(16) 0.2804(2)
O10 O 0.6775(4) 0.29710(19) 0.4262(2)
O11 O 0.6269(3) 0.35858(16) -0.0126(2)
O12 O 0.6518(2) 0.48440(15) -0.0258(2)
O13 O 0.1623(2) 0.60871(17) 0.1049(2)
O14 O 0.7969(3) 0.1275(2) 0.1590(3)
O15 O 0.5403(2) 0.10784(15) 0.0691(2)
O10A O 0.6775(4) 0.20290(19) -0.0738(2)
N2_2 N 0.1250(3) 0.37789(17) 0.2470(2)
O1B O -0.0517(2) 0.51071(15) 0.0821(2)
O5_2 O 0.2916(2) 0.48692(16) 0.2653(2)
O7_2 O 0.0154(2) 0.34930(16) 0.0617(2)
O12B O 0.3482(2) 0.51560(15) 0.0258(2)
La2_2 La 1.172825(17) 0.459051(11) 0.094290(17)
La2B La -0.172825(17) 0.540949(11) -0.094290(17)
La1A La 0.656630(17) 0.262702(11) 0.592985(16)
La2B_2 La 0.827175(17) 0.540949(11) -0.094290(17)
O16 O -0.0463(16) 0.4471(8) -0.4630(17)
loop_
_geom_bond_atom_site_label_1
_geom_bond_atom_site_label_2
_geom_bond_site_symmetry_1
_geom_bond_site_symmetry_2
La1 N3 1_555 1_555
La2 N1 1_555 1_555
C1 C2 1_555 1_555
C2 H1 1_555 1_555
C3 C2 1_555 1_555
H2 C3 1_555 1_555
C4 C3 1_555 1_555
H3 C4 1_555 1_555
C5 C4 1_555 1_555
C6 C1 1_555 1_555
C7 C5 1_555 1_555
C8 C9 1_555 1_555
C9 H4 1_555 1_555
C10 C9 1_555 1_555
H5 C10 1_555 1_555
C11 C10 1_555 1_555
H6 C11 1_555 1_555
C12 C11 1_555 1_555
C13 C8 1_555 1_555
C14 C12 1_555 1_555
C15 C16 1_555 1_555
C16 H7 1_555 1_555
C17 C16 1_555 1_555
H8 C17 1_555 1_555
C18 C17 1_555 1_555
H9 C18 1_555 1_555
C19 C18 1_555 1_555
C20 C15 1_555 1_555
C21 C19 1_555 1_555
N1 C1 1_555 1_555
N2 C8 1_555 1_555
N3 C15 1_555 1_555
O1 La2 1_555 1_555
O2 C6 1_555 1_555
O3 La2 1_555 1_555
O4 La1 1_555 1_555
O5 C13 1_555 1_555
O6 C13 1_555 1_555
O7 C14 1_555 1_555
O8 La1 1_555 1_555
O9 La1 1_555 1_555
O10 C20 1_555 1_555
O11 La1 1_555 1_555
O12 C21 1_555 1_555
O13 La2 1_555 1_555
O14 La1 1_555 1_555
O15 La1 1_555 1_555
O10A La1 1_555 1_555
N2_2 La2 1_555 1_555
O1B La2 1_555 1_555
O5_2 La2 1_555 1_555
O7_2 La2 1_555 1_555
O12B La2 1_555 1_555
La2_2 N2 1_555 1_555
La2B O1 1_555 1_555
La1A O10 1_555 1_555
La2B_2 O12 1_555 1_555
C5 N1 1_555 1_555
C6 O1 1_555 1_555
C7 O3 1_555 1_555
C7 O4 1_555 1_555
C12 N2 1_555 1_555
C14 O8 1_555 1_555
C19 N3 1_555 1_555
C20 O9 1_555 1_555
C21 O11 1_555 1_555
O5 La2_2 1_555 1_555
O7 La2_2 1_555 1_555
O1B La2B 1_555 1_555

#END
