
#######################################################################
#
#                 Cambridge Crystallographic Data Centre
#                                CCDC 
#
#######################################################################
#
# If this CIF has been generated from an entry in the Cambridge 
# Structural Database, then it will include bibliographic, chemical, 
# crystal, experimental, refinement or atomic coordinate data resulting 
# from the CCDC's data processing and validation procedures.
#
#######################################################################

data_AQIVOL
_symmetry_cell_setting           monoclinic
_symmetry_space_group_name_H-M   'P 21/c'
_symmetry_Int_Tables_number      14
_space_group_name_Hall           '-P 2ybc'
loop_
_symmetry_equiv_pos_site_id
_symmetry_equiv_pos_as_xyz
1 x,y,z
2 x,1/2-y,1/2+z
3 -x,-y,-z
4 -x,1/2+y,1/2-z
_cell_length_a                   10.954(2)
_cell_length_b                   17.403(4)
_cell_length_c                   13.248(3)
_cell_angle_alpha                90
_cell_angle_beta                 101.66(3)
_cell_angle_gamma                90
_cell_volume                     2473.38
loop_
_atom_site_label
_atom_site_type_symbol
_atom_site_fract_x
_atom_site_fract_y
_atom_site_fract_z
Sm1 Sm -0.828320(18) -0.042910(12) -0.410770(15)
Sm2 Sm -0.342420(19) -0.256430(12) -0.405680(14)
C1 C 0.1918(4) -0.1046(3) -0.1634(3)
C2 C 0.1623(5) -0.1393(3) -0.0774(4)
H1 H 0.2084 -0.1285 -0.0120
C3 C 0.0639(6) -0.1900(4) -0.0898(4)
H2 H 0.0435 -0.2141 -0.0328
C4 C -0.0040(5) -0.2049(3) -0.1871(4)
H3 H -0.0715 -0.2384 -0.1973
C5 C 0.0319(4) -0.1680(3) -0.2697(3)
C6 C 0.2906(4) -0.0443(3) -0.1602(3)
C7 C -0.0356(4) -0.1778(2) -0.3791(4)
C8 C -0.8488(4) -0.1036(3) -0.6635(3)
C9 C -0.8221(5) -0.1408(3) -0.7493(4)
H4 H -0.8671 -0.1297 -0.8150
C10 C -0.7279(5) -0.1946(3) -0.7352(4)
H5 H -0.7070 -0.2197 -0.7914
C11 C -0.6647(5) -0.2107(3) -0.6359(4)
H6 H -0.5996 -0.2460 -0.6242
C12 C -0.7004(4) -0.1732(3) -0.5546(4)
C13 C -0.9435(4) -0.0411(3) -0.6719(3)
C14 C -0.6386(4) -0.1863(2) -0.4436(4)
C15 C -0.3736(4) -0.0638(2) -0.3682(3)
C16 C -0.3985(4) 0.0044(3) -0.3237(4)
H7 H -0.4137 0.0491 -0.3628
C17 C -0.4006(6) 0.0050(3) -0.2198(4)
H8 H -0.4182 0.0502 -0.1881
C18 C -0.3768(5) -0.0614(3) -0.1638(4)
H9 H -0.3742 -0.0618 -0.0932
C19 C -0.3565(4) -0.1281(3) -0.2153(3)
C20 C -0.3635(4) -0.0716(2) -0.4789(3)
C21 C -0.3352(5) -0.2053(3) -0.1642(3)
N1 N 0.1268(3) -0.1199(2) -0.2584(3)
N2 N -0.7894(3) -0.1201(2) -0.5678(3)
N3 N -0.3551(4) -0.1294(2) -0.3155(3)
O1 O 0.3602(4) -0.0302(2) -0.0754(3)
O2 O 0.2948(3) -0.01114(19) -0.2437(2)
O3 O 0.0160(3) -0.14976(19) -0.4473(2)
O4 O -0.1377(3) -0.2121(2) -0.3958(3)
O5 O -1.0071(4) -0.0258(3) -0.7567(3)
O6 O -0.9549(3) -0.00925(18) -0.5868(2)
O7 O -0.6762(3) -0.1473(2) -0.3783(3)
O8 O -0.5559(3) -0.23762(19) -0.4263(3)
O9 O -0.3718(3) -0.13828(18) -0.5143(2)
O10 O -0.3449(3) -0.01185(17) -0.5260(2)
O11 O -0.3261(4) -0.26152(19) -0.2207(2)
O12 O -0.3289(4) -0.2066(2) -0.0694(3)
O13 O -0.2014(4) -0.3621(2) -0.3371(3)
O14 O -0.4573(3) -0.38258(18) -0.4257(3)
O15 O -0.8318(3) 0.10199(19) -0.3900(3)
O12A O -0.3289(4) -0.2934(2) -0.5694(3)
Sm1_2 Sm 0.171680(18) -0.042910(12) -0.410770(15)
Sm2A Sm -0.342420(19) -0.243570(12) 0.094320(14)
Sm1B Sm -0.171680(18) 0.042910(12) -0.589230(15)
O10B O -0.6551(3) 0.01185(17) -0.4740(2)
N1_2 N -0.8732(3) -0.1199(2) -0.2584(3)
O2_2 O -0.7052(3) -0.01114(19) -0.2437(2)
O3_2 O -0.9840(3) -0.14976(19) -0.4473(2)
O6B O -1.0451(3) 0.00925(18) -0.4132(2)
Sm1B_2 Sm -1.171680(18) 0.042910(12) -0.589230(15)
O16 O 0.0707(18) 0.0581(11) -0.0289(14)
loop_
_geom_bond_atom_site_label_1
_geom_bond_atom_site_label_2
_geom_bond_site_symmetry_1
_geom_bond_site_symmetry_2
Sm1 N2 1_555 1_555
Sm2 N3 1_555 1_555
C1 C2 1_555 1_555
C2 H1 1_555 1_555
C3 C2 1_555 1_555
H2 C3 1_555 1_555
C4 C3 1_555 1_555
H3 C4 1_555 1_555
C5 C4 1_555 1_555
C6 C1 1_555 1_555
C7 C5 1_555 1_555
C8 C9 1_555 1_555
C9 H4 1_555 1_555
C10 C9 1_555 1_555
H5 C10 1_555 1_555
C11 C10 1_555 1_555
H6 C11 1_555 1_555
C12 C11 1_555 1_555
C13 C8 1_555 1_555
C14 C12 1_555 1_555
C15 C16 1_555 1_555
C16 H7 1_555 1_555
C17 C16 1_555 1_555
H8 C17 1_555 1_555
C18 C17 1_555 1_555
H9 C18 1_555 1_555
C19 C18 1_555 1_555
C20 C15 1_555 1_555
C21 C19 1_555 1_555
N1 C1 1_555 1_555
N2 C8 1_555 1_555
N3 C15 1_555 1_555
O1 C6 1_555 1_555
O2 C6 1_555 1_555
O3 C7 1_555 1_555
O4 Sm2 1_555 1_555
O5 C13 1_555 1_555
O6 Sm1 1_555 1_555
O7 Sm1 1_555 1_555
O8 Sm2 1_555 1_555
O9 Sm2 1_555 1_555
O10 C20 1_555 1_555
O11 Sm2 1_555 1_555
O12 C21 1_555 1_555
O13 Sm2 1_555 1_555
O14 Sm2 1_555 1_555
O15 Sm1 1_555 1_555
O12A Sm2 1_555 1_555
Sm1_2 N1 1_555 1_555
Sm2A O12 1_555 1_555
Sm1B O10 1_555 1_555
O10B Sm1 1_555 1_555
N1_2 Sm1 1_555 1_555
O2_2 Sm1 1_555 1_555
O3_2 Sm1 1_555 1_555
O6B Sm1 1_555 1_555
Sm1B_2 O6 1_555 1_555
C5 N1 1_555 1_555
C7 O4 1_555 1_555
C12 N2 1_555 1_555
C13 O6 1_555 1_555
C14 O8 1_555 1_555
C14 O7 1_555 1_555
C19 N3 1_555 1_555
C20 O9 1_555 1_555
C21 O11 1_555 1_555
O2 Sm1_2 1_555 1_555
O3 Sm1_2 1_555 1_555
O6B Sm1B_2 1_555 1_555

#END
