
#######################################################################
#
#                 Cambridge Crystallographic Data Centre
#                                CCDC 
#
#######################################################################
#
# If this CIF has been generated from an entry in the Cambridge 
# Structural Database, then it will include bibliographic, chemical, 
# crystal, experimental, refinement or atomic coordinate data resulting 
# from the CCDC's data processing and validation procedures.
#
#######################################################################

data_AQIXOO
_symmetry_cell_setting           trigonal
_symmetry_space_group_name_H-M   'P 3 1 c'
_symmetry_Int_Tables_number      159
_space_group_name_Hall           "P 3 -2'c"
loop_
_symmetry_equiv_pos_site_id
_symmetry_equiv_pos_as_xyz
1 x,y,z
2 -y,x-y,z
3 -x+y,-x,z
4 y,x,1/2+z
5 x-y,-y,1/2+z
6 -x,-x+y,1/2+z
_cell_length_a                   13.8140(2)
_cell_length_b                   13.8140(2)
_cell_length_c                   19.9012(2)
_cell_angle_alpha                90
_cell_angle_beta                 90
_cell_angle_gamma                120
_cell_volume                     3288.89
loop_
_atom_site_label
_atom_site_type_symbol
_atom_site_fract_x
_atom_site_fract_y
_atom_site_fract_z
Br2 Br 0.3333 0.6667 0.71540(12)
Br3 Br 1.3333 0.6667 0.10835(11)
K1 K 1.3333 0.6667 0.2615(2)
C1 C 0.7813(9) 0.5775(9) 0.1303(6)
C2 C 0.8120(9) 0.6448(9) 0.1964(5)
C3 C 1.1874(9) 0.8374(9) 0.1348(5)
C4 C 1.2186(9) 0.7949(9) 0.2001(5)
O1 O 0.8567(6) 0.5655(6) 0.1038(3)
O2 O 0.9100(6) 0.6851(6) 0.2194(4)
O3 O 1.0871(6) 0.7781(6) 0.1136(4)
O4 O 1.1456(6) 0.7051(6) 0.2237(3)
O5 O 0.7361(6) 0.6581(6) 0.2234(4)
O6 O 0.6849(6) 0.5413(6) 0.1073(4)
O7 O 1.2588(6) 0.9252(6) 0.1096(4)
O8 O 1.3153(6) 0.8562(6) 0.2221(3)
O9 O 0.9326(6) 0.4853(6) 0.2252(4)
H1 H 0.8514 0.4448 0.2134
O10 O 1.0581(6) 0.6363(6) 0.3538(4)
H2 H 1.0933 0.6765 0.3110
O11 O 0.7857(6) 0.4726(6) 0.3556(4)
H3 H 0.7462 0.4684 0.3127
O12 O 1.1588(6) 0.8976(6) 0.3608(4)
H4 H 1.1610 0.8998 0.3106
O13 O 1.1707(6) 0.7672(6) 0.4646(4)
H6 H 1.1678 0.7644 0.5148
O14 O 0.9106(6) 0.6152(6) 0.4754(4)
H7 H 0.9063 0.6505 0.5183
O15 O 0.5447(6) 0.1971(6) 0.4710(4)
H8 H 0.5405 0.2327 0.5139
O16 O 0.8947(6) 0.7331(6) 0.3646(4)
H9 H 0.8941 0.7330 0.3144
O17 O 0.9474(6) 0.3629(6) 0.3560(4)
H11 H 0.9535 0.3276 0.3135
O18 O 1.0156(6) 0.8769(6) 0.4680(4)
H12 H 1.0150 0.8759 0.5182
O19 O 0.7521(6) 0.7147(6) 0.4676(4)
H14 H 0.7532 0.7144 0.5178
O20 O 1.2046(6) 0.5234(6) 0.3627(4)
H16 H 1.2018 0.5212 0.3125
O21 O 0.4281(6) -0.0807(6) 0.4777(4)
H17 H 0.3937 -0.1216 0.5204
O22 O 1.3334 0.6667 0.4632(6)
H18 H 1.3334 0.6667 0.5134
O23 O 0.5490(6) 0.0664(6) 0.6045(4)
H19 H 0.5895 0.1477 0.6162
Co1 Co 0.99855(11) 0.62479(12) 0.16417(8)
Co2 Co 0.99832(12) 0.40825(12) 0.16451(8)
Co3 Co 0.93210(11) 0.49046(12) 0.32754(8)
Co4 Co 1.03427(12) 0.75119(12) 0.41399(7)
Co5 Co 0.77177(11) 0.59495(11) 0.41536(7)
Co6 Co 0.6667 0.3333 0.41371(15)
Co7 Co 0.55619(12) 0.06378(11) 0.50188(8)
Co8 Co 1.08718(12) 0.38590(11) 0.41841(7)
Co9 Co 1.19129(12) 0.64833(11) 0.41469(7)
Co10 Co 0.87381(13) 0.85450(13) 0.41615(9)
C1B C 0.7962(13) 0.2187(9) 0.1303(6)
C1A C 0.4225(9) 0.2038(13) 0.1303(6)
C2B C 0.8328(13) 0.1880(9) 0.1964(5)
C2A C 0.3552(9) 0.1672(13) 0.1964(5)
C3A C 1.1626(9) 0.3500(13) 0.1348(5)
C3B C 0.6500(13) -0.1874(9) 0.1348(5)
C4A C 1.2051(9) 0.4237(13) 0.2001(5)
C4B C 0.5763(13) -0.2186(9) 0.2001(5)
O1B O 0.7088(8) 0.1433(6) 0.1038(3)
O1A O 0.4345(6) 0.2912(8) 0.1038(3)
O2B O 0.7751(8) 0.0900(6) 0.2194(4)
O2A O 0.3149(6) 0.2249(8) 0.2194(4)
O3A O 1.2219(6) 0.3090(8) 0.1136(4)
O3B O 0.6910(8) -0.0871(6) 0.1136(4)
O3A_2 O 0.2219(6) 0.3090(8) 0.1136(4)
O4A O 1.2949(6) 0.4405(8) 0.2237(3)
O4B O 0.5595(8) -0.1456(6) 0.2237(3)
O4A_2 O 0.2949(6) 0.4405(8) 0.2237(3)
O5B O 0.9220(8) 0.2639(6) 0.2234(4)
O5A O 0.3419(6) 0.0780(8) 0.2234(4)
O6B O 0.8564(8) 0.3151(6) 0.1073(4)
O6A O 0.4587(6) 0.1436(8) 0.1073(4)
O7A O 1.0748(6) 0.3336(8) 0.1096(4)
O7B O 0.6664(8) -0.2588(6) 0.1096(4)
O7_2 O 0.2588(6) -0.0748(6) 0.1096(4)
O7B_2 O 0.6664(8) 0.7412(6) 0.1096(4)
O8A O 1.1438(6) 0.4591(8) 0.2221(3)
O8B O 0.5409(8) -0.3153(6) 0.2221(3)
O8_2 O 0.3153(6) -0.1438(6) 0.2221(3)
O8B_2 O 0.5409(8) 0.6847(6) 0.2221(3)
O9B O 0.5527(8) 0.0674(6) 0.2252(4)
O9A O 0.5147(6) 0.4473(8) 0.2252(4)
H1B H 0.5934 0.1486 0.2134
H1A H 0.5552 0.4066 0.2134
O10B O 0.5782(8) -0.0581(6) 0.3538(4)
O10A O 0.3637(6) 0.4218(8) 0.3538(4)
H2B H 0.5832 -0.0933 0.3110
H2A H 0.3235 0.4168 0.3110
O11B O 0.6869(8) 0.2143(6) 0.3556(4)
O11A O 0.5274(6) 0.3131(8) 0.3556(4)
H3B H 0.7222 0.2538 0.3127
H3A H 0.5316 0.2778 0.3127
O12A O 1.1024(6) 0.2612(8) 0.3608(4)
O12B O 0.7388(8) 0.8412(6) 0.3608(4)
O12B_2 O 0.7388(8) -0.1588(6) 0.3608(4)
O12A_2 O 0.1024(6) 0.2612(8) 0.3608(4)
O12_2 O 0.1588(6) -0.1024(6) 0.3608(4)
H4A H 1.1002 0.2612 0.3106
H4B H 0.7388 0.8390 0.3106
H4B_2 H 0.7388 -0.1610 0.3106
H4A_2 H 0.1002 0.2612 0.3106
H4_2 H 0.1610 -0.1002 0.3106
O13A O 1.2328(6) 0.4035(8) 0.4646(4)
O13B O 0.5965(8) -0.1707(6) 0.4646(4)
O13A_2 O 0.2328(6) 0.4035(8) 0.4646(4)
O13B_2 O 0.5965(8) 0.8293(6) 0.4646(4)
O13_2 O 0.1707(6) -0.2328(6) 0.4646(4)
H6A H 1.2356 0.4034 0.5148
H6B H 0.5966 -0.1678 0.5148
H6A_2 H 0.2356 0.4034 0.5148
H6B_2 H 0.5966 0.8322 0.5148
H6_2 H 0.1678 -0.2356 0.5148
O14B O 0.7046(8) 0.0894(6) 0.4754(4)
O14A O 0.3848(6) 0.2954(8) 0.4754(4)
H7B H 0.7442 0.0937 0.5183
H7A H 0.3495 0.2558 0.5183
O15A O 0.8029(6) 0.3476(8) 0.4710(4)
O15B O 0.6524(8) 0.4553(6) 0.4710(4)
H8A H 0.7673 0.3078 0.5139
H8B H 0.6922 0.4595 0.5139
O16B O 0.8384(8) 0.1053(6) 0.3646(4)
O16A O 0.2669(6) 0.1616(8) 0.3646(4)
H9B H 0.8389 0.1059 0.3144
H9A H 0.2670 0.1611 0.3144
O17A O 0.6371(6) 0.5845(8) 0.3560(4)
O17B O 0.4155(8) 0.0526(6) 0.3560(4)
H11A H 0.6724 0.6259 0.3135
H11B H 0.3741 0.0465 0.3135
O18B O 0.8613(8) 0.9844(6) 0.4680(4)
O18B_2 O 0.8613(8) -0.0156(6) 0.4680(4)
O18A O 0.1231(6) 0.1387(8) 0.4680(4)
O18A_2 O 1.1231(6) 0.1387(8) 0.4680(4)
O18_2 O 0.0156(6) -0.1231(6) 0.4680(4)
H12B H 0.8609 0.9850 0.5182
H12B_2 H 0.8609 -0.0150 0.5182
H12A H 0.1241 0.1391 0.5182
H12A_2 H 1.1241 0.1391 0.5182
H12_2 H 0.0150 -0.1241 0.5182
O19B O 0.9626(8) 0.2479(6) 0.4676(4)
O19A O 0.2853(6) 0.0374(8) 0.4676(4)
H14B H 0.9612 0.2468 0.5178
H14A H 0.2856 0.0388 0.5178
O20B O 1.3188(8) 0.7954(6) 0.3627(4)
O20A O 0.4766(6) 0.6812(8) 0.3627(4)
O20B_2 O 0.3188(8) -0.2046(6) 0.3627(4)
O20A_2 O 0.4766(6) -0.3188(8) 0.3627(4)
O20_2 O 0.2046(6) 0.5234(6) 0.3627(4)
H16B H 1.3194 0.7982 0.3125
H16A H 0.4788 0.6806 0.3125
H16B_2 H 0.3194 -0.2018 0.3125
H16A_2 H 0.4788 -0.3194 0.3125
H16_2 H 0.2018 0.5212 0.3125
O21A O 1.0807(6) 0.5088(8) 0.4777(4)
O21B O 0.4912(8) 0.5719(6) 0.4777(4)
H17A H 1.1216 0.5153 0.5204
H17B H 0.4847 0.6063 0.5204
O22B O 0.3333 -0.3334 0.4632(6)
O22A O 0.3333 0.6667 0.4632(6)
H18B H 0.3333 -0.3334 0.5134
H18A H 0.3333 0.6667 0.5134
O23A O 0.9336(6) 0.4826(8) 0.6045(4)
O23B O 0.5174(8) 0.4510(6) 0.6045(4)
O23C O 1.0664(6) 0.5490(6) 0.1045(4)
O23D O 0.4826(8) -0.0664(6) 0.1045(4)
O23E O 0.4510(6) 0.5174(8) 0.1045(4)
H19A H 0.8523 0.4418 0.6162
H19B H 0.5582 0.4105 0.6162
H19C H 1.1477 0.5895 0.1162
H19D H 0.4418 -0.1477 0.1162
H19E H 0.4105 0.5582 0.1162
Co1B Co 0.62624(16) 0.00145(11) 0.16417(8)
Co1A Co 0.37521(12) 0.37376(16) 0.16417(8)
Co1C Co 0.62479(12) -0.00145(11) 0.66417(8)
Co1E Co 1.00145(11) 0.62624(16) 0.66417(8)
Co1D Co 0.37376(16) 0.37521(12) 0.66417(8)
Co1A_2 Co 1.37521(12) 0.37376(16) 0.16417(8)
Co2B Co 0.40993(17) 0.00168(12) 0.16451(8)
Co2A Co 0.59175(12) 0.59007(17) 0.16451(8)
Co2B_2 Co 1.40993(17) 1.00168(12) 0.16451(8)
Co2C Co 0.40825(12) -0.00168(12) 0.66451(8)
Co2E Co 1.00168(12) 0.40993(17) 0.66451(8)
Co2D Co 0.59007(17) 0.59175(12) 0.66451(8)
Co2A_2 Co 0.59175(12) -0.40993(17) 0.16451(8)
Co3B Co 0.55836(16) 0.06790(11) 0.32754(8)
Co3A Co 0.50954(12) 0.44164(16) 0.32754(8)
Co4B Co 0.71692(17) -0.03427(12) 0.41399(7)
Co4A Co 0.24881(12) 0.28308(17) 0.41399(7)
Co4A_2 Co 1.24881(12) 0.28308(17) 0.41399(7)
Co4B_2 Co 0.71692(17) 0.96573(12) 0.41399(7)
Co5B Co 0.82318(16) 0.22823(11) 0.41536(7)
Co5A Co 0.40505(11) 0.17682(16) 0.41536(7)
Co7A Co 0.93622(11) 0.49241(16) 0.50188(8)
Co7B Co 0.50759(16) 0.44381(12) 0.50188(8)
Co8A Co 0.61410(11) 0.70128(16) 0.41841(7)
Co8B Co 0.29872(16) -0.08718(12) 0.41841(7)
Co8B_2 Co 1.29872(16) 0.91282(12) 0.41841(7)
Co8A_2 Co 0.61410(11) -0.29872(16) 0.41841(7)
Co9B Co 0.45704(16) -0.19129(12) 0.41469(7)
Co9A Co 0.35167(11) 0.54296(16) 0.41469(7)
Co9A_2 Co 1.35167(11) 0.54296(16) 0.41469(7)
Co9B_2 Co 1.45704(16) 0.80871(12) 0.41469(7)
Co9B_3 Co 0.45704(16) 0.80871(12) 0.41469(7)
Co10B Co 0.98069(18) 0.12619(13) 0.41615(9)
Co10A Co 0.14550(13) 0.01931(18) 0.41615(9)
Co10A_2 Co 1.14550(13) 1.01931(18) 0.41615(9)
Co10B_2 Co 0.98069(18) 1.12619(13) 0.41615(9)
Co10_2 Co 0.87381(13) -0.14550(13) 0.41615(9)
H5? H 0.8338 0.6985 -0.1823
H10? H 1.1012 0.7997 -0.1786
H13? H 0.9803 0.8229 0.0115
H15? H 0.6769 0.7201 0.0115
Br1? Br 1.0000 1.0000 -0.1816(10)
Co11? Co 0.8673(19) 0.8816(19) -0.0031(12)
O24? O 0.8699(19) 0.8837(19) 0.0949(12)
Co12? Co 0.8719(19) 0.8839(19) -0.1704(12)
O25? O 0.8747(19) 0.8870(19) -0.2684(12)
O26? O 1.0000 1.0000 -0.1380(14)
O27? O 0.927(3) 0.874(2) 0.1109(15)
O28? O 0.933(2) 0.860(2) -0.2675(13)
loop_
_geom_bond_atom_site_label_1
_geom_bond_atom_site_label_2
_geom_bond_site_symmetry_1
_geom_bond_site_symmetry_2
C1 C2 1_555 1_555
C2 O2 1_555 1_555
C3 C4 1_555 1_555
C4 O4 1_555 1_555
O1 C1 1_555 1_555
O2 Co1 1_555 1_555
O3 C3 1_555 1_555
O4 Co1 1_555 1_555
O5 C2 1_555 1_555
O6 C1 1_555 1_555
O7 C3 1_555 1_555
O8 C4 1_555 1_555
O9 H1 1_555 1_555
O10 H2 1_555 1_555
O11 H3 1_555 1_555
O12 H4 1_555 1_555
O13 H6 1_555 1_555
O14 H7 1_555 1_555
O15 H8 1_555 1_555
O16 H9 1_555 1_555
O17 H11 1_555 1_555
O18 H12 1_555 1_555
O19 H14 1_555 1_555
O20 H16 1_555 1_555
O21 H17 1_555 1_555
O22 H18 1_555 1_555
O23 H19 1_555 1_555
Co1 O1 1_555 1_555
Co2 O9 1_555 1_555
Co3 O9 1_555 1_555
Co4 O10 1_555 1_555
Co5 O11 1_555 1_555
Co6 O11 1_555 1_555
Co7 O15 1_555 1_555
Co8 O17 1_555 1_555
Co9 O10 1_555 1_555
Co10 O16 1_555 1_555
C1B C2B 1_555 1_555
C1A C2A 1_555 1_555
C2B O2B 1_555 1_555
C2A O2A 1_555 1_555
C3A C4A 1_555 1_555
C3B C4B 1_555 1_555
C4A O4A 1_555 1_555
C4B O4B 1_555 1_555
O1B C1B 1_555 1_555
O1A C1A 1_555 1_555
O2B Co1B 1_555 1_555
O2A Co1A 1_555 1_555
O3A C3A 1_555 1_555
O3B C3B 1_555 1_555
O3A_2 Co1A 1_555 1_555
O4A Co1A_2 1_555 1_555
O4B Co1B 1_555 1_555
O4A_2 Co1A 1_555 1_555
O5B Co2 1_555 1_555
O5A C2A 1_555 1_555
O6B Co2 1_555 1_555
O6A C1A 1_555 1_555
O7A Co2 1_555 1_555
O7B C3B 1_555 1_555
O7_2 Co2B 1_555 1_555
O7B_2 Co2A 1_555 1_555
O8A Co2 1_555 1_555
O8B C4B 1_555 1_555
O8_2 Co2B 1_555 1_555
O8B_2 Co2A 1_555 1_555
O9B H1B 1_555 1_555
O9A H1A 1_555 1_555
O10B H2B 1_555 1_555
O10A H2A 1_555 1_555
O11B Co6 1_555 1_555
O11A Co6 1_555 1_555
H3B O11B 1_555 1_555
H3A O11A 1_555 1_555
O12A Co8 1_555 1_555
O12B Co10 1_555 1_555
O12B_2 H4B_2 1_555 1_555
O12A_2 H4A_2 1_555 1_555
O12_2 H4_2 1_555 1_555
H4A O12A 1_555 1_555
H4B O12B 1_555 1_555
O13A Co8 1_555 1_555
O13B H6B 1_555 1_555
O13A_2 H6A_2 1_555 1_555
O13B_2 H6B_2 1_555 1_555
O13_2 H6_2 1_555 1_555
H6A O13A 1_555 1_555
O14B Co7 1_555 1_555
O14A H7A 1_555 1_555
H7B O14B 1_555 1_555
O15A Co6 1_555 1_555
O15B Co5 1_555 1_555
H8A O15A 1_555 1_555
H8B O15B 1_555 1_555
O16B H9B 1_555 1_555
O16A H9A 1_555 1_555
O17A Co5 1_555 1_555
O17B H11B 1_555 1_555
H11A O17A 1_555 1_555
O18B Co10 1_555 1_555
O18B_2 H12B_2 1_555 1_555
O18A H12A 1_555 1_555
O18A_2 H12A_2 1_555 1_555
O18_2 H12_2 1_555 1_555
H12B O18B 1_555 1_555
O19B Co8 1_555 1_555
O19A H14A 1_555 1_555
H14B O19B 1_555 1_555
O20B Co9 1_555 1_555
O20A H16A 1_555 1_555
O20B_2 H16B_2 1_555 1_555
O20A_2 H16A_2 1_555 1_555
O20_2 H16_2 1_555 1_555
H16B O20B 1_555 1_555
O21A Co8 1_555 1_555
O21B H17B 1_555 1_555
H17A O21A 1_555 1_555
O22B H18B 1_555 1_555
O22A H18A 1_555 1_555
O23A H19A 1_555 1_555
O23B H19B 1_555 1_555
O23C Co1 1_555 1_555
O23D H19D 1_555 1_555
O23E H19E 1_555 1_555
H19C O23C 1_555 1_555
Co1B O1B 1_555 1_555
Co1A O1A 1_555 1_555
Co1C O23 1_555 1_555
Co1E O23A 1_555 1_555
Co1D O23B 1_555 1_555
Co1A_2 O3A 1_555 1_555
Co2B O5A 1_555 1_555
Co2A O5 1_555 1_555
Co2B_2 O7 1_555 1_555
Co2C O23 1_555 1_555
Co2E O23A 1_555 1_555
Co2D O23B 1_555 1_555
Co2A_2 O7B 1_555 1_555
Co3B O9B 1_555 1_555
Co3A O9A 1_555 1_555
Co4B O10B 1_555 1_555
Co4A O10A 1_555 1_555
Co4A_2 O12A 1_555 1_555
Co4B_2 O12B 1_555 1_555
Co5B O17 1_555 1_555
Co5A O15 1_555 1_555
Co7A O14 1_555 1_555
Co7B O14A 1_555 1_555
Co8A O19 1_555 1_555
Co8B O21 1_555 1_555
Co8B_2 O12 1_555 1_555
Co8A_2 O12B_2 1_555 1_555
Co9B O21 1_555 1_555
Co9A O10A 1_555 1_555
Co9A_2 O20 1_555 1_555
Co9B_2 O22 1_555 1_555
Co9B_3 O13B_2 1_555 1_555
Co10B O12A 1_555 1_555
Co10A O12_2 1_555 1_555
Co10A_2 O12 1_555 1_555
Co10B_2 O18B 1_555 1_555
Co10_2 O12B_2 1_555 1_555
O3 Co1 1_555 1_555
O6 Co2A 1_555 1_555
O8 Co2B_2 1_555 1_555
O9 Co1 1_555 1_555
O10 Co3 1_555 1_555
O11 Co3 1_555 1_555
O12 Co4 1_555 1_555
O13 Co4 1_555 1_555
O13 Co9 1_555 1_555
O13 Co8B_2 1_555 1_555
O14 Co4 1_555 1_555
O14 Co5 1_555 1_555
O15 Co6 1_555 1_555
O16 Co4 1_555 1_555
O16 Co5 1_555 1_555
O17 Co3 1_555 1_555
O18 Co4 1_555 1_555
O18 Co10 1_555 1_555
O18 Co10A_2 1_555 1_555
O19 Co5 1_555 1_555
O19 Co10 1_555 1_555
O20 Co8 1_555 1_555
O20 Co9 1_555 1_555
O21 Co7 1_555 1_555
O22 Co9 1_555 1_555
O22 Co9A_2 1_555 1_555
O23 Co7 1_555 1_555
Co2 O23C 1_555 1_555
Co6 O15B 1_555 1_555
Co9 O21A 1_555 1_555
C1B O6B 1_555 1_555
C2B O5B 1_555 1_555
C3A O7A 1_555 1_555
C4A O8A 1_555 1_555
O3B Co1B 1_555 1_555
O6A Co2B 1_555 1_555
O8B Co2A_2 1_555 1_555
O9B Co1B 1_555 1_555
O9B Co2B 1_555 1_555
O9A Co1A 1_555 1_555
O9A Co2A 1_555 1_555
O10B Co3B 1_555 1_555
O10B Co9B 1_555 1_555
O10A Co3A 1_555 1_555
O11B Co3B 1_555 1_555
O11B Co5B 1_555 1_555
O11A Co3A 1_555 1_555
O11A Co5A 1_555 1_555
O12B Co8A 1_555 1_555
O12B_2 Co4B 1_555 1_555
O12A_2 Co4A 1_555 1_555
O12_2 Co8B 1_555 1_555
O13A Co4A_2 1_555 1_555
O13A Co9A_2 1_555 1_555
O13B Co4B 1_555 1_555
O13B Co8A_2 1_555 1_555
O13B Co9B 1_555 1_555
O13A_2 Co4A 1_555 1_555
O13A_2 Co9A 1_555 1_555
O13B_2 Co4B_2 1_555 1_555
O13B_2 Co8A 1_555 1_555
O13_2 Co8B 1_555 1_555
O14B Co4B 1_555 1_555
O14B Co5B 1_555 1_555
O14A Co4A 1_555 1_555
O14A Co5A 1_555 1_555
O15A Co5B 1_555 1_555
O15A Co7A 1_555 1_555
O15B Co7B 1_555 1_555
O16B Co4B 1_555 1_555
O16B Co5B 1_555 1_555
O16B Co10B 1_555 1_555
O16A Co4A 1_555 1_555
O16A Co5A 1_555 1_555
O16A Co10A 1_555 1_555
O17A Co3A 1_555 1_555
O17A Co8A 1_555 1_555
O17B Co3B 1_555 1_555
O17B Co5A 1_555 1_555
O17B Co8B 1_555 1_555
O18B Co4B_2 1_555 1_555
O18B_2 Co4B 1_555 1_555
O18B_2 Co10B 1_555 1_555
O18B_2 Co10_2 1_555 1_555
O18A Co4A 1_555 1_555
O18A Co10A 1_555 1_555
O18A_2 Co4A_2 1_555 1_555
O18A_2 Co10B 1_555 1_555
O18_2 Co10A 1_555 1_555
O19B Co5B 1_555 1_555
O19B Co10B 1_555 1_555
O19A Co5A 1_555 1_555
O19A Co8B 1_555 1_555
O19A Co10A 1_555 1_555
O20B Co8B_2 1_555 1_555
O20B Co9B_2 1_555 1_555
O20A Co8A 1_555 1_555
O20A Co9A 1_555 1_555
O20A Co9B_3 1_555 1_555
O20B_2 Co8B 1_555 1_555
O20B_2 Co9B 1_555 1_555
O20A_2 Co8A_2 1_555 1_555
O20A_2 Co9B 1_555 1_555
O20_2 Co9A 1_555 1_555
O21A Co7A 1_555 1_555
O21B Co7B 1_555 1_555
O21B Co8A 1_555 1_555
O21B Co9A 1_555 1_555
O22B Co9B 1_555 1_555
O22A Co9A 1_555 1_555
O22A Co9B_3 1_555 1_555
O23A Co7A 1_555 1_555
O23B Co7B 1_555 1_555
O23D Co1B 1_555 1_555
O23D Co2B 1_555 1_555
O23E Co1A 1_555 1_555
O23E Co2A 1_555 1_555

#END
