
#######################################################################
#
#                 Cambridge Crystallographic Data Centre
#                                CCDC 
#
#######################################################################
#
# If this CIF has been generated from an entry in the Cambridge 
# Structural Database, then it will include bibliographic, chemical, 
# crystal, experimental, refinement or atomic coordinate data resulting 
# from the CCDC's data processing and validation procedures.
#
#######################################################################

data_AQIZUV
_symmetry_cell_setting           monoclinic
_symmetry_space_group_name_H-M   'P 21'
_symmetry_Int_Tables_number      4
_space_group_name_Hall           'P 2yb'
loop_
_symmetry_equiv_pos_site_id
_symmetry_equiv_pos_as_xyz
1 x,y,z
2 -x,1/2+y,-z
_cell_length_a                   10.4143(5)
_cell_length_b                   11.0346(5)
_cell_length_c                   14.7206(7)
_cell_angle_alpha                90
_cell_angle_beta                 105.8810(10)
_cell_angle_gamma                90
_cell_volume                     1627.09
loop_
_atom_site_label
_atom_site_type_symbol
_atom_site_fract_x
_atom_site_fract_y
_atom_site_fract_z
Cu1 Cu 0.78646(3) 0.65015(3) 0.47883(2)
Cu2 Cu 0.50749(3) 0.75319(3) 0.42083(2)
O1 O 0.6606(2) 0.7384(3) 0.52981(14)
O2 O 0.9256(2) 0.5949(2) 0.42359(14)
O3 O 1.1442(2) 0.5909(2) 0.44664(16)
O4 O 1.1891(4) 0.2700(3) 0.8695(2)
H1 H 1.177(4) 0.227(4) 0.847(3)
O5 O 0.63165(19) 0.6643(2) 0.36900(13)
O6 O 0.4116(2) 0.8715(2) 0.47261(14)
O7 O 0.2227(2) 0.9759(2) 0.43676(15)
O8 O 0.1221(3) 0.8620(3) -0.13948(16)
H2 H 0.113(3) 0.923(3) -0.162(2)
O9 O 0.4028(2) 0.5653(3) 0.44079(19)
H3 H 0.334(2) 0.560(3) 0.457(2)
H4 H 0.452(3) 0.510(3) 0.465(3)
N1 N 0.9374(2) 0.6864(2) 0.59082(17)
H9 H 0.9502 0.6179 0.6278
N2 N 0.3819(2) 0.7913(2) 0.29734(16)
H10 H 0.3285 0.7245 0.2778
C1 C 0.6702(3) 0.7406(3) 0.6237(2)
C2 C 0.5591(3) 0.7221(4) 0.6563(2)
H11 H 0.4759 0.7060 0.6132
C3 C 0.5703(4) 0.7271(4) 0.7526(3)
H12 H 0.4946 0.7148 0.7746
C4 C 0.6925(3) 0.7502(4) 0.8159(2)
H13 H 0.7001 0.7551 0.8809
C5 C 0.8029(3) 0.7661(3) 0.7833(2)
H14 H 0.8863 0.7797 0.8268
C6 C 0.7940(3) 0.7624(3) 0.6870(2)
C7 C 0.9138(3) 0.7864(3) 0.6510(2)
H15 H 0.9000 0.8619 0.6145
H16 H 0.9929 0.7968 0.7047
C8 C 1.0600(3) 0.7011(3) 0.5585(2)
H17 H 1.0615 0.7862 0.5376
C9 C 1.0445(3) 0.6210(3) 0.4706(2)
C10 C 1.1900(3) 0.6803(3) 0.6374(2)
H18 H 1.2640 0.6744 0.6084
H19 H 1.2063 0.7515 0.6787
C11 C 1.1914(3) 0.5699(3) 0.6969(2)
C12 C 1.2093(3) 0.5801(3) 0.7935(2)
H20 H 1.2223 0.6574 0.8213
C13 C 1.2088(4) 0.4806(4) 0.8501(3)
H21 H 1.2211 0.4912 0.9153
C14 C 1.1902(3) 0.3658(3) 0.8117(2)
C15 C 1.1740(3) 0.3530(3) 0.7150(2)
H22 H 1.1622 0.2754 0.6877
C16 C 1.1749(3) 0.4527(3) 0.6591(2)
H23 H 1.1643 0.4418 0.5941
C17 C 0.5988(3) 0.6229(3) 0.2786(2)
C18 C 0.6411(3) 0.5105(3) 0.2574(3)
H24 H 0.6945 0.4625 0.3059
C19 C 0.6059(4) 0.4678(4) 0.1659(3)
H25 H 0.6365 0.3915 0.1525
C20 C 0.5266(4) 0.5360(5) 0.0943(3)
H26 H 0.5032 0.5068 0.0319
C21 C 0.4814(4) 0.6480(5) 0.1143(2)
H27 H 0.4267 0.6948 0.0654
C22 C 0.5165(3) 0.6923(3) 0.2072(2)
C23 C 0.4616(3) 0.8121(3) 0.2279(2)
H28 H 0.5348 0.8687 0.2544
H29 H 0.4046 0.8472 0.1696
C24 C 0.2943(3) 0.8944(3) 0.3081(2)
H30 H 0.3280 0.9680 0.2839
C25 C 0.3078(3) 0.9152(3) 0.4138(2)
C26 C 0.1495(3) 0.8762(3) 0.2500(2)
H31 H 0.1158 0.8004 0.2695
H32 H 0.0950 0.9426 0.2634
C27 C 0.1341(3) 0.8717(3) 0.1448(2)
C28 C 0.1360(4) 0.9780(3) 0.0958(2)
H33 H 0.1402 1.0524 0.1276
C29 C 0.1317(4) 0.9778(3) 0.0009(2)
H34 H 0.1335 1.0511 -0.0312
C30 C 0.1248(3) 0.8692(3) -0.0455(2)
C31 C 0.1184(3) 0.7619(3) 0.0009(2)
H35 H 0.1110 0.6877 -0.0315
C32 C 0.1230(3) 0.7646(3) 0.0961(2)
H36 H 0.1183 0.6915 0.1277
O7A O 0.7773(2) 0.4759(2) 0.56324(15)
Cu1A Cu 0.21354(3) 1.15015(3) 0.52117(2)
O10 O 0.0458(3) 1.0698(2) -0.23849(17)
H5 H 0.069(4) 1.066(4) -0.284(2)
H6 H -0.033(2) 1.064(4) -0.245(3)
O11 O 0.2366(3) 0.5500(2) 0.2557(2)
H7 H 0.284(4) 0.529(5) 0.3067(19)
H8 H 0.258(5) 0.514(5) 0.214(3)
loop_
_geom_bond_atom_site_label_1
_geom_bond_atom_site_label_2
_geom_bond_site_symmetry_1
_geom_bond_site_symmetry_2
Cu1 O1 1_555 1_555
Cu2 O1 1_555 1_555
O1 C1 1_555 1_555
O2 Cu1 1_555 1_555
O3 C9 1_555 1_555
O4 H1 1_555 1_555
O5 Cu1 1_555 1_555
O6 Cu2 1_555 1_555
O7 C25 1_555 1_555
O8 H2 1_555 1_555
O9 Cu2 1_555 1_555
H3 O9 1_555 1_555
H4 O9 1_555 1_555
O10 H5 1_555 1_555
H6 O10 1_555 1_555
O11 H7 1_555 1_555
H8 O11 1_555 1_555
N1 Cu1 1_555 1_555
H9 N1 1_555 1_555
N2 Cu2 1_555 1_555
H10 N2 1_555 1_555
C1 C2 1_555 1_555
C2 H11 1_555 1_555
C3 C2 1_555 1_555
H12 C3 1_555 1_555
C4 C3 1_555 1_555
H13 C4 1_555 1_555
C5 C4 1_555 1_555
H14 C5 1_555 1_555
C6 C1 1_555 1_555
C7 N1 1_555 1_555
H15 C7 1_555 1_555
H16 C7 1_555 1_555
C8 N1 1_555 1_555
H17 C8 1_555 1_555
C9 O2 1_555 1_555
C10 C8 1_555 1_555
H18 C10 1_555 1_555
H19 C10 1_555 1_555
C11 C10 1_555 1_555
C12 C11 1_555 1_555
H20 C12 1_555 1_555
C13 C12 1_555 1_555
H21 C13 1_555 1_555
C14 O4 1_555 1_555
C15 C14 1_555 1_555
H22 C15 1_555 1_555
C16 C11 1_555 1_555
H23 C16 1_555 1_555
C17 O5 1_555 1_555
C18 C17 1_555 1_555
H24 C18 1_555 1_555
C19 C18 1_555 1_555
H25 C19 1_555 1_555
C20 C19 1_555 1_555
H26 C20 1_555 1_555
C21 C20 1_555 1_555
H27 C21 1_555 1_555
C22 C17 1_555 1_555
C23 N2 1_555 1_555
H28 C23 1_555 1_555
H29 C23 1_555 1_555
C24 N2 1_555 1_555
H30 C24 1_555 1_555
C25 O6 1_555 1_555
C26 C24 1_555 1_555
H31 C26 1_555 1_555
H32 C26 1_555 1_555
C27 C26 1_555 1_555
C28 C27 1_555 1_555
H33 C28 1_555 1_555
C29 C28 1_555 1_555
H34 C29 1_555 1_555
C30 O8 1_555 1_555
C31 C30 1_555 1_555
H35 C31 1_555 1_555
C32 C27 1_555 1_555
H36 C32 1_555 1_555
O7A Cu1 1_555 1_555
Cu1A O7 1_555 1_555
Cu2 O5 1_555 1_555
C5 C6 1_555 1_555
C6 C7 1_555 1_555
C8 C9 1_555 1_555
C13 C14 1_555 1_555
C15 C16 1_555 1_555
C21 C22 1_555 1_555
C22 C23 1_555 1_555
C24 C25 1_555 1_555
C29 C30 1_555 1_555
C31 C32 1_555 1_555

#END
