
#######################################################################
#
#                 Cambridge Crystallographic Data Centre
#                                CCDC 
#
#######################################################################
#
# If this CIF has been generated from an entry in the Cambridge 
# Structural Database, then it will include bibliographic, chemical, 
# crystal, experimental, refinement or atomic coordinate data resulting 
# from the CCDC's data processing and validation procedures.
#
#######################################################################

data_AQMAND01
_symmetry_cell_setting           monoclinic
_symmetry_space_group_name_H-M   'C 2/c'
_symmetry_Int_Tables_number      15
_space_group_name_Hall           '-C 2yn'
loop_
_symmetry_equiv_pos_site_id
_symmetry_equiv_pos_as_xyz
1 x,y,z
2 1/2+x,1/2+y,z
3 -x,y,1/2-z
4 1/2-x,1/2+y,1/2-z
5 -x,-y,-z
6 1/2-x,1/2-y,-z
7 x,-y,1/2+z
8 1/2+x,1/2-y,1/2+z
_cell_length_a                   17.2240(11)
_cell_length_b                   12.3690(7)
_cell_length_c                   11.2070(7)
_cell_angle_alpha                90
_cell_angle_beta                 127.532(4)
_cell_angle_gamma                90
_cell_volume                     1893.38
loop_
_atom_site_label
_atom_site_type_symbol
_atom_site_fract_x
_atom_site_fract_y
_atom_site_fract_z
Nd1 Nd 0.28337(2) 0.35258(2) 0.38016(4)
O1 O 0.1237(5) 0.3199(6) 0.1158(10)
O2 O 0.3205(9) 0.4354(6) 0.6163(14)
O3 O 0.4158(10) 0.4971(9) 0.493(3)
O4 O 0.2740(5) 0.1687(5) 0.2898(8)
O5 O 0.3007(8) 0.0185(5) 0.2142(16)
O6 O 0.3727(10) 0.3160(5) 0.0728(15)
O7 O 0.3365(8) 0.3555(4) 0.2258(14)
O8 O 0.1593(4) 0.2906(4) 0.4081(8)
O9 O 0.0503(5) 0.2435(6) 0.4411(11)
C1 C 0.3129(5) 0.1178(5) 0.2427(10)
C2 C 0.3808(6) 0.1709(6) 0.2172(12)
C3 C 0.3610(4) 0.2888(5) 0.1673(9)
C4 C 0.0750(5) 0.3001(5) 0.3744(9)
C5 C 0.00000 0.3744(8) 0.25000
H1 H 0.07600 0.37660 0.06420
H2 H 0.11160 0.25070 0.06860
H3 H 0.31940 0.51260 0.62410
H4 H 0.33460 0.39030 0.69700
H5 H 0.40570 0.56590 0.52140
H6 H 0.47580 0.48290 0.50750
H7 H 0.44600 0.17060 0.31030
H8 H 0.38000 0.13220 0.14220
H9 H 0.00000 0.45120 0.25000
Nd1C Nd 0.21663(2) 0.85258(2) 0.11984(4)
Nd1C_2 Nd 0.21663(2) -0.14742(2) 0.11984(4)
Nd1E Nd 0.21663(2) 0.14742(2) 0.61984(4)
Nd1G Nd -0.21663(2) 0.14742(2) -0.11984(4)
Nd1B Nd -0.28337(2) 0.35258(2) 0.11984(4)
O1C O 0.3763(5) 0.8199(6) 0.3842(10)
O2C O 0.1795(9) 0.9354(6) -0.1163(14)
O3C O 0.0842(10) 0.9971(9) 0.007(3)
O4C O 0.2260(5) 0.6687(5) 0.2102(8)
O5C O 0.1993(8) 0.5185(5) 0.2858(16)
O5_2 O 0.3007(8) 1.0185(5) 0.2142(16)
O6C O 0.1273(10) 0.8160(5) 0.4272(15)
O7C O 0.1635(8) 0.8555(4) 0.2742(14)
O8B O -0.1593(4) 0.2906(4) 0.0919(8)
O8E O 0.3407(4) 0.2094(4) 0.5919(8)
O8F O 0.1593(4) 0.7094(4) -0.0919(8)
O8C O 0.3407(4) 0.7906(4) 0.0919(8)
O9B O -0.0503(5) 0.2435(6) 0.0589(11)
O9E O 0.4497(5) 0.2565(6) 0.5589(11)
O9F O 0.0503(5) 0.7565(6) -0.0589(11)
C1C C 0.1871(5) 0.6178(5) 0.2573(10)
C2C C 0.1192(6) 0.6709(6) 0.2828(12)
C3C C 0.1390(4) 0.7888(5) 0.3327(9)
C4B C -0.0750(5) 0.3001(5) 0.1256(9)
H1C H 0.42400 0.87660 0.43580
H2C H 0.38840 0.75070 0.43140
H3C H 0.18060 1.01260 -0.12410
H4C H 0.16540 0.89030 -0.19700
H5C H 0.09430 1.06590 -0.02140
H6C H 0.02420 0.98290 -0.00750
H7C H 0.05400 0.67060 0.18970
H8C H 0.12000 0.63220 0.35780
loop_
_geom_bond_atom_site_label_1
_geom_bond_atom_site_label_2
_geom_bond_site_symmetry_1
_geom_bond_site_symmetry_2
Nd1 O1 1_555 1_555
O1 H1 1_555 1_555
O2 Nd1 1_555 1_555
O3 Nd1 1_555 1_555
O4 Nd1 1_555 1_555
O5 C1 1_555 1_555
O6 C3 1_555 1_555
O7 Nd1 1_555 1_555
O8 Nd1 1_555 1_555
O9 C4 1_555 1_555
C1 O4 1_555 1_555
C2 C1 1_555 1_555
C3 O7 1_555 1_555
C4 O8 1_555 1_555
C5 C4 1_555 1_555
H2 O1 1_555 1_555
H3 O2 1_555 1_555
H4 O2 1_555 1_555
H5 O3 1_555 1_555
H6 O3 1_555 1_555
H7 C2 1_555 1_555
H8 C2 1_555 1_555
H9 C5 1_555 1_555
Nd1C O1C 1_555 1_555
Nd1C_2 O5 1_555 1_555
Nd1E O8 1_555 1_555
Nd1G O8B 1_555 1_555
Nd1B O8B 1_555 1_555
O1C H1C 1_555 1_555
O2C Nd1C 1_555 1_555
O3C Nd1C 1_555 1_555
O4C Nd1C 1_555 1_555
O5C Nd1 1_555 1_555
O5_2 Nd1C 1_555 1_555
O6C C3C 1_555 1_555
O7C Nd1C 1_555 1_555
O8B C4B 1_555 1_555
O8E Nd1 1_555 1_555
O8F Nd1C 1_555 1_555
O8C Nd1C 1_555 1_555
O9B Nd1G 1_555 1_555
O9E Nd1 1_555 1_555
O9F Nd1C 1_555 1_555
C1C O4C 1_555 1_555
C2C C1C 1_555 1_555
C3C O7C 1_555 1_555
C4B C5 1_555 1_555
H2C O1C 1_555 1_555
H3C O2C 1_555 1_555
H4C O2C 1_555 1_555
H5C O3C 1_555 1_555
H6C O3C 1_555 1_555
H7C C2C 1_555 1_555
H8C C2C 1_555 1_555
O9 Nd1E 1_555 1_555
C2 C3 1_555 1_555
Nd1E O8E 1_555 1_555
O5C C1C 1_555 1_555
O9B C4B 1_555 1_555
C2C C3C 1_555 1_555

#END
