
#######################################################################
#
#                 Cambridge Crystallographic Data Centre
#                                CCDC 
#
#######################################################################
#
# If this CIF has been generated from an entry in the Cambridge 
# Structural Database, then it will include bibliographic, chemical, 
# crystal, experimental, refinement or atomic coordinate data resulting 
# from the CCDC's data processing and validation procedures.
#
#######################################################################

data_AQOBAJ
_symmetry_cell_setting           monoclinic
_symmetry_space_group_name_H-M   'P 21'
_symmetry_Int_Tables_number      4
_space_group_name_Hall           'P 2yb'
loop_
_symmetry_equiv_pos_site_id
_symmetry_equiv_pos_as_xyz
1 x,y,z
2 -x,1/2+y,-z
_cell_length_a                   10.3549(3)
_cell_length_b                   10.5453(2)
_cell_length_c                   15.9521(4)
_cell_angle_alpha                90
_cell_angle_beta                 104.367(1)
_cell_angle_gamma                90
_cell_volume                     1687.42
loop_
_atom_site_label
_atom_site_type_symbol
_atom_site_fract_x
_atom_site_fract_y
_atom_site_fract_z
Cu1 Cu 0.52069(5) 0.23744(5) 0.44644(3)
Cu2 Cu 0.80799(4) 0.15097(6) 0.49226(3)
O1 O 0.6517(3) 0.1550(4) 0.39567(17)
O2 O 0.4046(3) 0.3504(4) 0.4909(2)
O3 O 0.2145(3) 0.4572(4) 0.4519(2)
O4 O 0.6819(3) 0.2418(4) 0.54297(18)
O5 O 0.9406(3) 0.1044(4) 0.43103(19)
O6 O 1.1575(3) 0.0842(4) 0.4451(2)
O7 O 0.4247(4) 0.0611(5) 0.4740(4)
H1 H 0.351(4) 0.055(5) 0.472(3)
H2 H 0.449(5) -0.005(4) 0.469(4)
N1 N 0.3926(3) 0.2633(4) 0.3326(2)
H3 H 0.3463 0.1897 0.3189
N2 N 0.9629(3) 0.1854(4) 0.5912(2)
H4 H 0.9722 0.1163 0.6263
C1 C 0.6275(4) 0.1076(5) 0.3151(3)
C2 C 0.6948(5) 0.0008(5) 0.2970(3)
H5 H 0.7561 -0.0398 0.3414
C3 C 0.6712(6) -0.0455(6) 0.2130(3)
H6 H 0.7181 -0.1158 0.2014
C4 C 0.5794(6) 0.0116(7) 0.1475(4)
H7 H 0.5635 -0.0203 0.0915
C5 C 0.5104(5) 0.1162(7) 0.1643(3)
H8 H 0.4467 0.1534 0.1195
C6 C 0.5345(4) 0.1675(6) 0.2476(3)
C7 C 0.4660(5) 0.2863(6) 0.2644(3)
H9 H 0.5314 0.3529 0.2831
H10 H 0.4040 0.3139 0.2115
C8 C 0.2947(4) 0.3638(5) 0.3387(3)
H11 H 0.3169 0.4407 0.3108
C9 C 0.3036(4) 0.3938(5) 0.4349(3)
C10 C 0.1516(5) 0.3235(7) 0.2930(3)
H12 H 0.1224 0.2598 0.3281
H13 H 0.0934 0.3964 0.2897
C11 C 0.1356(5) 0.2718(6) 0.2043(4)
C12 C 0.1212(7) 0.1487(9) 0.1801(5)
H14 H 0.1150 0.0815 0.2166
N3 N 0.1171(7) 0.1374(9) 0.0937(5)
H15 H 0.1096 0.0674 0.0653
C13 C 0.1268(6) 0.2545(10) 0.0604(5)
C14 C 0.1391(5) 0.3412(7) 0.1283(3)
C15 C 0.1556(7) 0.4686(8) 0.1120(4)
H16 H 0.1654 0.5278 0.1563
C16 C 0.1572(9) 0.5070(12) 0.0291(6)
H17 H 0.1678 0.5923 0.0178
C17 C 0.1432(10) 0.4196(15) -0.0362(6)
H18 H 0.1436 0.4482 -0.0913
C18 C 0.1287(8) 0.2931(13) -0.0244(5)
H19 H 0.1205 0.2352 -0.0694
C19 C 0.6988(4) 0.2546(5) 0.6299(3)
C20 C 0.5928(5) 0.2433(8) 0.6676(4)
H20 H 0.5083 0.2240 0.6336
C21 C 0.6123(6) 0.2606(8) 0.7557(4)
H21 H 0.5399 0.2556 0.7803
C22 C 0.7354(7) 0.2846(8) 0.8068(4)
H22 H 0.7478 0.2949 0.8661
C23 C 0.8411(6) 0.2936(7) 0.7702(3)
H23 H 0.9253 0.3099 0.8056
C24 C 0.8271(5) 0.2792(5) 0.6824(3)
C25 C 0.9442(4) 0.2952(5) 0.6443(3)
H24 H 0.9317 0.3710 0.6087
H25 H 1.0240 0.3068 0.6906
C26 C 1.0860(4) 0.1917(5) 0.5582(3)
H26 H 1.0980 0.2809 0.5448
C27 C 1.0630(4) 0.1201(5) 0.4736(3)
C28 C 1.2124(4) 0.1521(6) 0.6270(3)
H27 H 1.2864 0.1475 0.5999
H28 H 1.2331 0.2173 0.6712
C29 C 1.2004(4) 0.0278(5) 0.6694(3)
C30 C 1.1576(5) -0.0850(5) 0.6319(3)
H29 H 1.1303 -0.0977 0.5725
N4 N 1.1596(4) -0.1775(5) 0.6919(3)
H30 H 1.1354 -0.2550 0.6811
C31 C 1.2071(5) -0.1253(6) 0.7728(3)
C32 C 1.2332(5) 0.0019(6) 0.7611(3)
C33 C 1.2863(7) 0.0763(7) 0.8342(4)
H31 H 1.3059 0.1615 0.8288
C34 C 1.3089(10) 0.0192(10) 0.9149(5)
H32 H 1.3455 0.0667 0.9642
C35 C 1.2781(10) -0.1064(11) 0.9234(5)
H33 H 1.2917 -0.1409 0.9785
C36 C 1.2282(7) -0.1815(7) 0.8533(4)
H34 H 1.2092 -0.2667 0.8594
O3A O 0.7855(3) -0.0428(4) 0.5481(2)
Cu2A Cu 0.19201(4) 0.65097(6) 0.50774(3)
loop_
_geom_bond_atom_site_label_1
_geom_bond_atom_site_label_2
_geom_bond_site_symmetry_1
_geom_bond_site_symmetry_2
Cu1 O1 1_555 1_555
Cu2 O1 1_555 1_555
O1 C1 1_555 1_555
O2 Cu1 1_555 1_555
O3 C9 1_555 1_555
O4 Cu1 1_555 1_555
O5 Cu2 1_555 1_555
O6 C27 1_555 1_555
O7 Cu1 1_555 1_555
H1 O7 1_555 1_555
H2 O7 1_555 1_555
N1 Cu1 1_555 1_555
H3 N1 1_555 1_555
N2 Cu2 1_555 1_555
H4 N2 1_555 1_555
C1 C2 1_555 1_555
C2 H5 1_555 1_555
C3 C2 1_555 1_555
H6 C3 1_555 1_555
C4 C3 1_555 1_555
H7 C4 1_555 1_555
C5 C4 1_555 1_555
H8 C5 1_555 1_555
C6 C1 1_555 1_555
C7 N1 1_555 1_555
H9 C7 1_555 1_555
H10 C7 1_555 1_555
C8 N1 1_555 1_555
H11 C8 1_555 1_555
C9 O2 1_555 1_555
C10 C8 1_555 1_555
H12 C10 1_555 1_555
H13 C10 1_555 1_555
C11 C10 1_555 1_555
C12 C11 1_555 1_555
H14 C12 1_555 1_555
N3 C12 1_555 1_555
H15 N3 1_555 1_555
C13 N3 1_555 1_555
C14 C11 1_555 1_555
C15 C14 1_555 1_555
H16 C15 1_555 1_555
C16 C15 1_555 1_555
H17 C16 1_555 1_555
C17 C16 1_555 1_555
H18 C17 1_555 1_555
C18 C13 1_555 1_555
H19 C18 1_555 1_555
C19 O4 1_555 1_555
C20 C19 1_555 1_555
H20 C20 1_555 1_555
C21 C20 1_555 1_555
H21 C21 1_555 1_555
C22 C21 1_555 1_555
H22 C22 1_555 1_555
C23 C22 1_555 1_555
H23 C23 1_555 1_555
C24 C19 1_555 1_555
C25 N2 1_555 1_555
H24 C25 1_555 1_555
H25 C25 1_555 1_555
C26 N2 1_555 1_555
H26 C26 1_555 1_555
C27 O5 1_555 1_555
C28 C26 1_555 1_555
H27 C28 1_555 1_555
H28 C28 1_555 1_555
C29 C28 1_555 1_555
C30 C29 1_555 1_555
H29 C30 1_555 1_555
N4 C30 1_555 1_555
H30 N4 1_555 1_555
C31 N4 1_555 1_555
C32 C29 1_555 1_555
C33 C32 1_555 1_555
H31 C33 1_555 1_555
C34 C33 1_555 1_555
H32 C34 1_555 1_555
C35 C34 1_555 1_555
H33 C35 1_555 1_555
C36 C31 1_555 1_555
H34 C36 1_555 1_555
O3A Cu2 1_555 1_555
Cu2A O3 1_555 1_555
Cu2 O4 1_555 1_555
C5 C6 1_555 1_555
C6 C7 1_555 1_555
C8 C9 1_555 1_555
C13 C14 1_555 1_555
C17 C18 1_555 1_555
C23 C24 1_555 1_555
C24 C25 1_555 1_555
C26 C27 1_555 1_555
C31 C32 1_555 1_555
C35 C36 1_555 1_555

#END
