
#######################################################################
#
#                 Cambridge Crystallographic Data Centre
#                                CCDC 
#
#######################################################################
#
# If this CIF has been generated from an entry in the Cambridge 
# Structural Database, then it will include bibliographic, chemical, 
# crystal, experimental, refinement or atomic coordinate data resulting 
# from the CCDC's data processing and validation procedures.
#
#######################################################################

data_AQODIU
_symmetry_cell_setting           orthorhombic
_symmetry_space_group_name_H-M   'P c a 21'
_symmetry_Int_Tables_number      29
_space_group_name_Hall           'P 2c -2ac'
loop_
_symmetry_equiv_pos_site_id
_symmetry_equiv_pos_as_xyz
1 x,y,z
2 -x,-y,1/2+z
3 1/2-x,y,1/2+z
4 1/2+x,-y,z
_cell_length_a                   11.950(2)
_cell_length_b                   12.730(3)
_cell_length_c                   10.514(2)
_cell_angle_alpha                90
_cell_angle_beta                 90
_cell_angle_gamma                90
_cell_volume                     1599.43
loop_
_atom_site_label
_atom_site_type_symbol
_atom_site_fract_x
_atom_site_fract_y
_atom_site_fract_z
Ag1 Ag 0.381328(18) 0.06009(2) 0.78176(4)
C1 C 0.4435(3) 0.3838(3) 0.9159(4)
C2 C 0.3712(4) 0.4262(4) 1.0033(5)
H1 H 0.3600 0.3927 1.0809
C3 C 0.3149(4) 0.5184(4) 0.9767(4)
H2 H 0.2673 0.5477 1.0371
C4 C 0.3292(4) 0.5669(3) 0.8608(5)
C5 C 0.4034(4) 0.5252(4) 0.7723(6)
H3 H 0.4143 0.5587 0.6947
C6 C 0.4609(4) 0.4337(3) 0.7998(5)
H4 H 0.5109 0.4056 0.7411
C7 C 0.4223(4) 0.2167(3) 0.5415(4)
H5 H 0.3639 0.2599 0.5787
H6 H 0.4925 0.2350 0.5822
C8 C 0.3227(3) 0.2144(3) 0.3472(3)
H7 H 0.3264 0.2294 0.2569
H8 H 0.2651 0.2587 0.3840
C9 C 0.2887(3) 0.0817(3) 0.5052(3)
H9 H 0.2309 0.1248 0.5436
H10 H 0.2695 0.0086 0.5198
C10 C 0.3823(3) 0.0369(3) 0.3101(3)
H11 H 0.3647 -0.0368 0.3226
H12 H 0.3862 0.0499 0.2193
C11 C 0.4850(3) 0.0403(3) 0.5069(3)
H13 H 0.4688 -0.0333 0.5215
H14 H 0.5564 0.0562 0.5463
C12 C 0.5171(3) 0.1733(3) 0.3497(3)
H15 H 0.5886 0.1900 0.3885
H16 H 0.5226 0.1882 0.2594
N1 N 0.3972(2) 0.1050(2) 0.5657(2)
N2 N 0.4300(3) 0.2389(2) 0.4058(3)
N3 N 0.2923(2) 0.1021(2) 0.3662(3)
N4 N 0.4924(2) 0.0601(2) 0.3683(3)
O1 O 0.5277(3) 0.2107(2) 0.8291(3)
O2 O 0.4415(3) 0.2087(2) 1.0376(3)
O3 O 0.6196(2) 0.2914(3) 1.0065(4)
O4 O 0.2728(3) 0.6556(3) 0.8286(4)
S1 S 0.51226(7) 0.26434(6) 0.94922(9)
H17 H 0.239(7) 0.675(7) 0.894(6)
Ag1B Ag 0.118672(18) 0.06009(2) 0.28176(4)
Ag1A Ag 0.618672(18) -0.06009(2) 0.28176(4)
N3B N 0.2077(2) 0.1021(2) 0.8662(3)
N4A N 0.5076(2) -0.0601(2) 0.8683(3)
O5 O 0.7699(4) 0.1573(3) 1.1456(4)
H18 H 0.793(6) 0.164(7) 1.067(5)
H19 H 0.706(4) 0.183(7) 1.131(8)
loop_
_geom_bond_atom_site_label_1
_geom_bond_atom_site_label_2
_geom_bond_site_symmetry_1
_geom_bond_site_symmetry_2
Ag1 N1 1_555 1_555
C1 C2 1_555 1_555
C2 H1 1_555 1_555
C3 C2 1_555 1_555
H2 C3 1_555 1_555
C4 C3 1_555 1_555
C5 C4 1_555 1_555
H3 C5 1_555 1_555
C6 C1 1_555 1_555
H4 C6 1_555 1_555
C7 H5 1_555 1_555
H6 C7 1_555 1_555
C8 H7 1_555 1_555
H8 C8 1_555 1_555
C9 H9 1_555 1_555
H10 C9 1_555 1_555
C10 H11 1_555 1_555
H12 C10 1_555 1_555
C11 H13 1_555 1_555
H14 C11 1_555 1_555
C12 H15 1_555 1_555
H16 C12 1_555 1_555
N1 C7 1_555 1_555
N2 C7 1_555 1_555
N3 C8 1_555 1_555
N4 C10 1_555 1_555
O1 Ag1 1_555 1_555
O2 S1 1_555 1_555
O3 S1 1_555 1_555
O4 C4 1_555 1_555
S1 C1 1_555 1_555
H17 O4 1_555 1_555
O5 H18 1_555 1_555
H19 O5 1_555 1_555
Ag1B N3 1_555 1_555
Ag1A N4 1_555 1_555
N3B Ag1 1_555 1_555
N4A Ag1 1_555 1_555
C5 C6 1_555 1_555
C8 N2 1_555 1_555
C9 N1 1_555 1_555
C9 N3 1_555 1_555
C10 N3 1_555 1_555
C11 N1 1_555 1_555
C11 N4 1_555 1_555
C12 N2 1_555 1_555
C12 N4 1_555 1_555
O1 S1 1_555 1_555

#END
