
#######################################################################
#
#                 Cambridge Crystallographic Data Centre
#                                CCDC 
#
#######################################################################
#
# If this CIF has been generated from an entry in the Cambridge 
# Structural Database, then it will include bibliographic, chemical, 
# crystal, experimental, refinement or atomic coordinate data resulting 
# from the CCDC's data processing and validation procedures.
#
#######################################################################

data_AQODEQ
_symmetry_cell_setting           monoclinic
_symmetry_space_group_name_H-M   'P 21/c'
_symmetry_Int_Tables_number      14
_space_group_name_Hall           '-P 2ybc'
loop_
_symmetry_equiv_pos_site_id
_symmetry_equiv_pos_as_xyz
1 x,y,z
2 -x,1/2+y,1/2-z
3 -x,-y,-z
4 x,1/2-y,1/2+z
_cell_length_a                   16.044(3)
_cell_length_b                   8.6192(17)
_cell_length_c                   12.860(3)
_cell_angle_alpha                90
_cell_angle_beta                 110.29(3)
_cell_angle_gamma                90
_cell_volume                     1668.02
loop_
_atom_site_label
_atom_site_type_symbol
_atom_site_fract_x
_atom_site_fract_y
_atom_site_fract_z
Ag1 Ag 0.235775(15) 0.24124(3) 0.980198(18)
C1 C 0.3447(2) 0.6125(3) 0.7812(2)
C2 C 0.3330(2) 0.5744(3) 0.8792(2)
H1 H 0.2957 0.6344 0.9044
C3 C 0.37630(19) 0.4473(3) 0.9407(2)
C4 C 0.43160(19) 0.3543(3) 0.9018(3)
C5 C 0.4430(2) 0.3984(4) 0.8039(3)
H2 H 0.4808 0.3403 0.7783
C6 C 0.4005(2) 0.5251(3) 0.7430(3)
H3 H 0.4092 0.5514 0.6774
C7 C 0.4752(2) 0.2112(4) 0.9645(3)
H4 H 0.5073 0.1588 0.9243
H5 H 0.4305 0.1432 0.9727
H6 H 0.5155 0.2404 1.0363
C8 C 0.0938(2) 0.1182(3) 0.7579(2)
H7 H 0.1289 0.0238 0.7727
H8 H 0.0574 0.1176 0.8044
C9 C -0.0155(2) 0.2645(4) 0.6199(3)
H9 H -0.0529 0.2666 0.6652
H10 H -0.0539 0.2670 0.5428
C10 C 0.0992(2) 0.3965(3) 0.7607(2)
H11 H 0.0628 0.4009 0.8071
H12 H 0.1379 0.4864 0.7776
C11 C 0.09275(19) 0.1191(3) 0.5727(2)
H13 H 0.0555 0.1198 0.4950
H14 H 0.1277 0.0246 0.5869
C12 C 0.20932(17) 0.2509(3) 0.7149(2)
H15 H 0.2490 0.3397 0.7320
H16 H 0.2454 0.1577 0.7299
C13 C 0.09822(19) 0.3976(3) 0.5758(2)
H17 H 0.1368 0.4877 0.5920
H18 H 0.0611 0.4021 0.4981
N1 N 0.15400(15) 0.2538(2) 0.78705(18)
N2 N 0.03604(16) 0.1203(3) 0.6414(2)
N3 N 0.04171(16) 0.4025(3) 0.6442(2)
N4 N 0.15317(14) 0.2549(2) 0.59607(17)
N5 N 0.35946(18) 0.4062(3) 1.0383(2)
O1 O 0.2995(3) 0.7748(3) 0.6012(3)
O2 O 0.3286(2) 0.9105(3) 0.7703(3)
O3 O 0.1977(3) 0.7599(3) 0.7008(4)
O4 O 0.2813(3) -0.0197(3) 0.9607(2)
S1 S 0.28675(7) 0.77624(8) 0.70635(7)
H19 H 0.284(3) -0.092(4) 1.005(3)
H20 H 0.296(3) -0.049(5) 0.915(3)
H21 H 0.349(3) 0.489(4) 1.068(3)
H22 H 0.406(2) 0.358(5) 1.084(3)
Ag1C Ag 0.235775(15) 0.25876(3) 0.480198(18)
N4C N 0.15317(14) 0.2451(2) 1.09607(17)
loop_
_geom_bond_atom_site_label_1
_geom_bond_atom_site_label_2
_geom_bond_site_symmetry_1
_geom_bond_site_symmetry_2
Ag1 N1 1_555 1_555
C1 C2 1_555 1_555
C2 H1 1_555 1_555
C3 C2 1_555 1_555
C4 C3 1_555 1_555
C5 C4 1_555 1_555
H2 C5 1_555 1_555
C6 C1 1_555 1_555
H3 C6 1_555 1_555
C7 C4 1_555 1_555
H4 C7 1_555 1_555
H5 C7 1_555 1_555
H6 C7 1_555 1_555
C8 H7 1_555 1_555
H8 C8 1_555 1_555
C9 H9 1_555 1_555
H10 C9 1_555 1_555
C10 H11 1_555 1_555
H12 C10 1_555 1_555
C11 H13 1_555 1_555
H14 C11 1_555 1_555
C12 H15 1_555 1_555
H16 C12 1_555 1_555
C13 H17 1_555 1_555
H18 C13 1_555 1_555
N1 C8 1_555 1_555
N2 C8 1_555 1_555
N3 C9 1_555 1_555
N4 C11 1_555 1_555
N5 Ag1 1_555 1_555
O1 S1 1_555 1_555
O2 S1 1_555 1_555
O3 S1 1_555 1_555
O4 Ag1 1_555 1_555
S1 C1 1_555 1_555
H19 O4 1_555 1_555
H20 O4 1_555 1_555
H21 N5 1_555 1_555
H22 N5 1_555 1_555
Ag1C N4 1_555 1_555
N4C Ag1 1_555 1_555
C3 N5 1_555 1_555
C5 C6 1_555 1_555
C9 N2 1_555 1_555
C10 N1 1_555 1_555
C10 N3 1_555 1_555
C11 N2 1_555 1_555
C12 N1 1_555 1_555
C12 N4 1_555 1_555
C13 N3 1_555 1_555
C13 N4 1_555 1_555

#END
