
#######################################################################
#
#                 Cambridge Crystallographic Data Centre
#                                CCDC 
#
#######################################################################
#
# If this CIF has been generated from an entry in the Cambridge 
# Structural Database, then it will include bibliographic, chemical, 
# crystal, experimental, refinement or atomic coordinate data resulting 
# from the CCDC's data processing and validation procedures.
#
#######################################################################

data_AQODAM
_symmetry_cell_setting           orthorhombic
_symmetry_space_group_name_H-M   'P b c n'
_symmetry_Int_Tables_number      60
_space_group_name_Hall           '-P 2n 2ab'
loop_
_symmetry_equiv_pos_site_id
_symmetry_equiv_pos_as_xyz
1 x,y,z
2 1/2-x,1/2-y,1/2+z
3 1/2+x,1/2-y,-z
4 -x,y,1/2-z
5 -x,-y,-z
6 1/2+x,1/2+y,1/2-z
7 1/2-x,1/2+y,z
8 x,-y,1/2+z
_cell_length_a                   24.707(5)
_cell_length_b                   10.885(2)
_cell_length_c                   12.162(2)
_cell_angle_alpha                90
_cell_angle_beta                 90
_cell_angle_gamma                90
_cell_volume                     3270.8
loop_
_atom_site_label
_atom_site_type_symbol
_atom_site_fract_x
_atom_site_fract_y
_atom_site_fract_z
Ag1 Ag 0.304236(10) 0.09723(2) 0.64374(2)
C1 C 0.28964(13) 0.5155(3) 0.8011(3)
H1 H 0.2945 0.6016 0.8191
H2 H 0.2593 0.4848 0.8437
C2 C 0.33036(14) 0.3183(3) 0.8036(3)
H3 H 0.3002 0.2862 0.8459
H4 H 0.3625 0.2723 0.8240
C3 C 0.27086(12) 0.3716(3) 0.6565(2)
H5 H 0.2402 0.3391 0.6968
H6 H 0.2634 0.3622 0.5787
C4 C 0.36570(13) 0.3537(3) 0.6212(3)
H7 H 0.3985 0.3084 0.6380
H8 H 0.3586 0.3453 0.5431
C5 C 0.38371(12) 0.4954(3) 0.7659(3)
H9 H 0.3895 0.5812 0.7838
H10 H 0.4164 0.4506 0.7848
C6 C 0.32487(14) 0.5503(3) 0.6200(2)
H11 H 0.3181 0.5424 0.5418
H12 H 0.3300 0.6368 0.6362
C7 C 0.41471(11) 0.1256(2) 0.4455(2)
C8 C 0.45593(12) 0.2084(3) 0.4241(2)
H13 H 0.4554 0.2554 0.3602
C9 C 0.49810(13) 0.2205(3) 0.4989(3)
C10 C 0.49991(14) 0.1498(3) 0.5921(3)
H14 H 0.5285 0.1581 0.6413
C11 C 0.45909(13) 0.0663(3) 0.6126(3)
H15 H 0.4605 0.0184 0.6758
C12 C 0.41596(11) 0.0524(2) 0.5406(2)
N1 N 0.31942(10) 0.2999(2) 0.6847(2)
N2 N 0.27685(9) 0.5040(2) 0.6821(2)
N3 N 0.33835(12) 0.4479(2) 0.8315(2)
N4 N 0.37378(11) 0.4838(2) 0.6477(2)
N5 N 0.37290(11) -0.0273(2) 0.5656(2)
O1 O 0.35064(10) -0.0133(2) 0.33296(18)
O2 O 0.31304(9) 0.1705(2) 0.4159(2)
O3 O 0.37281(11) 0.18657(18) 0.25853(18)
S1 S 0.35825(3) 0.11709(6) 0.35538(6)
Cl1 Cl 0.54912(4) 0.32667(10) 0.47148(10)
H16 H 0.3629(16) -0.074(3) 0.505(3)
H17 H 0.3830(19) -0.077(4) 0.614(4)
Ag1F Ag 0.195764(10) 0.59723(2) 0.64374(2)
Ag1G Ag 0.304236(10) -0.09723(2) 0.14374(2)
N2F N 0.22315(9) 0.0040(2) 0.6821(2)
O1G O 0.35064(10) 0.0133(2) 0.83296(18)
loop_
_geom_bond_atom_site_label_1
_geom_bond_atom_site_label_2
_geom_bond_site_symmetry_1
_geom_bond_site_symmetry_2
Ag1 N1 1_555 1_555
C1 H1 1_555 1_555
H2 C1 1_555 1_555
C2 H3 1_555 1_555
H4 C2 1_555 1_555
C3 H5 1_555 1_555
H6 C3 1_555 1_555
C4 H7 1_555 1_555
H8 C4 1_555 1_555
C5 H9 1_555 1_555
H10 C5 1_555 1_555
C6 H11 1_555 1_555
H12 C6 1_555 1_555
C7 C8 1_555 1_555
C8 H13 1_555 1_555
C9 C8 1_555 1_555
C10 C9 1_555 1_555
H14 C10 1_555 1_555
C11 C10 1_555 1_555
H15 C11 1_555 1_555
C12 C7 1_555 1_555
N1 C2 1_555 1_555
N2 C1 1_555 1_555
N3 C1 1_555 1_555
N4 C4 1_555 1_555
N5 Ag1 1_555 1_555
O1 S1 1_555 1_555
O2 S1 1_555 1_555
O3 S1 1_555 1_555
S1 C7 1_555 1_555
Cl1 C9 1_555 1_555
H16 N5 1_555 1_555
H17 N5 1_555 1_555
Ag1F N2 1_555 1_555
Ag1G O1 1_555 1_555
N2F Ag1 1_555 1_555
O1G Ag1 1_555 1_555
C2 N3 1_555 1_555
C3 N1 1_555 1_555
C3 N2 1_555 1_555
C4 N1 1_555 1_555
C5 N3 1_555 1_555
C5 N4 1_555 1_555
C6 N2 1_555 1_555
C6 N4 1_555 1_555
C11 C12 1_555 1_555
C12 N5 1_555 1_555

#END
