
#######################################################################
#
#                 Cambridge Crystallographic Data Centre
#                                CCDC 
#
#######################################################################
#
# If this CIF has been generated from an entry in the Cambridge 
# Structural Database, then it will include bibliographic, chemical, 
# crystal, experimental, refinement or atomic coordinate data resulting 
# from the CCDC's data processing and validation procedures.
#
#######################################################################

data_AQODUG
_symmetry_cell_setting           monoclinic
_symmetry_space_group_name_H-M   'P 21'
_symmetry_Int_Tables_number      4
_space_group_name_Hall           'P 2yb'
loop_
_symmetry_equiv_pos_site_id
_symmetry_equiv_pos_as_xyz
1 x,y,z
2 -x,1/2+y,-z
_cell_length_a                   17.356(5)
_cell_length_b                   10.650(5)
_cell_length_c                   34.983(5)
_cell_angle_alpha                90
_cell_angle_beta                 93.399(5)
_cell_angle_gamma                90
_cell_volume                     6454.93
loop_
_atom_site_label
_atom_site_type_symbol
_atom_site_fract_x
_atom_site_fract_y
_atom_site_fract_z
Ag1 Ag 0.07234(2) 0.35189(4) 0.475554(12)
Ag2 Ag 0.24893(2) -0.16082(4) 0.453290(12)
Ag3 Ag 0.41693(2) 0.33870(5) 0.478109(13)
C1 C 0.5747(3) 0.2036(6) 0.36367(15)
H1 H 0.5886 0.2905 0.3595
H2 H 0.6192 0.1528 0.3584
C2 C 0.5100(4) 0.1698(7) 0.33447(17)
C3 C 0.4568(4) 0.0626(7) 0.34338(19)
H3 H 0.4189 0.0894 0.3610
H4 H 0.4858 -0.0072 0.3547
C4 C 0.4171(4) 0.0246(8) 0.3046(2)
H5 H 0.4302 -0.0608 0.2978
H6 H 0.3614 0.0319 0.3049
C5 C 0.4484(4) 0.1155(8) 0.2778(2)
H7 H 0.4429 0.0902 0.2509
C6 C 0.4141(5) 0.2415(9) 0.2860(2)
H8 H 0.3591 0.2348 0.2892
H9 H 0.4226 0.3006 0.2656
C7 C 0.4575(4) 0.2812(6) 0.3233(2)
C8 C 0.5343(4) 0.1331(6) 0.29381(17)
C9 C 0.5815(4) 0.0126(7) 0.29251(19)
H10 H 0.6331 0.0283 0.3027
H11 H 0.5827 -0.0155 0.2665
H12 H 0.5582 -0.0510 0.3075
C10 C 0.5803(4) 0.2394(7) 0.27451(18)
H13 H 0.5517 0.3165 0.2750
H14 H 0.5881 0.2169 0.2484
H15 H 0.6295 0.2502 0.2882
C11 C 0.1632(4) 0.2208(7) 0.61195(17)
H16 H 0.1688 0.3114 0.6121
H17 H 0.1127 0.2021 0.6210
C12 C 0.2241(4) 0.1667(6) 0.64131(17)
C13 C 0.2650(4) 0.0400(7) 0.63207(19)
H18 H 0.2284 -0.0204 0.6209
H19 H 0.3057 0.0532 0.6146
C14 C 0.2985(4) -0.0041(7) 0.67172(19)
H20 H 0.2753 -0.0827 0.6791
H21 H 0.3540 -0.0146 0.6719
C15 C 0.2768(4) 0.1032(7) 0.69837(19)
H22 H 0.2794 0.0817 0.7257
C16 C 0.3277(4) 0.2141(7) 0.68792(19)
H23 H 0.3266 0.2802 0.7069
H24 H 0.3807 0.1877 0.6855
C17 C 0.2914(4) 0.2564(8) 0.6502(2)
C18 C 0.1970(3) 0.1433(6) 0.68205(16)
C19 C 0.1663(4) 0.2605(7) 0.7001(2)
H25 H 0.1159 0.2792 0.6887
H26 H 0.2004 0.3295 0.6960
H27 H 0.1629 0.2473 0.7271
C20 C 0.1353(4) 0.0433(6) 0.6829(2)
H28 H 0.1539 -0.0330 0.6721
H29 H 0.0899 0.0710 0.6682
H30 H 0.1228 0.0286 0.7089
C21 C 0.1909(5) -0.3993(7) 0.33014(17)
H31 H 0.2408 -0.4404 0.3311
H32 H 0.1525 -0.4648 0.3259
C22 C 0.1869(5) -0.3208(7) 0.29562(18)
C23 C 0.2575(6) -0.2223(7) 0.2941(2)
H33 H 0.2649 -0.1752 0.3178
H34 H 0.3054 -0.2639 0.2886
C24 C 0.2265(5) -0.1350(9) 0.2594(2)
H35 H 0.2627 -0.1332 0.2393
H36 H 0.2179 -0.0499 0.2681
C25 C 0.1460(5) -0.2009(10) 0.2445(2)
H37 H 0.1101 -0.1483 0.2290
C26 C 0.1718(6) -0.3261(9) 0.2255(2)
H38 H 0.1290 -0.3674 0.2115
H39 H 0.2133 -0.3124 0.2087
C27 C 0.1967(7) -0.3934(11) 0.2584(3)
C28 C 0.1201(5) -0.2402(8) 0.2816(3)
C29 C 0.0471(5) -0.3288(9) 0.2741(3)
H40 H 0.0291 -0.3562 0.2982
H41 H 0.0614 -0.4006 0.2595
H42 H 0.0068 -0.2833 0.2602
C30 C 0.0992(5) -0.1311(9) 0.3080(2)
H43 H 0.0826 -0.1642 0.3317
H44 H 0.0584 -0.0823 0.2957
H45 H 0.1437 -0.0788 0.3131
C31 C 0.5318(3) -0.2555(6) 0.43349(16)
H46 H 0.5382 -0.1690 0.4256
H47 H 0.5812 -0.2974 0.4322
C32 C 0.4649(3) -0.4477(6) 0.41941(16)
H48 H 0.5134 -0.4920 0.4179
H49 H 0.4270 -0.4884 0.4020
C33 C 0.4002(3) -0.2528(6) 0.40955(16)
H50 H 0.3623 -0.2928 0.3921
H51 H 0.4055 -0.1662 0.4015
C34 C 0.3645(3) -0.3874(6) 0.45993(17)
H52 H 0.3263 -0.4276 0.4427
H53 H 0.3465 -0.3918 0.4856
C35 C 0.4307(3) -0.1969(7) 0.47449(16)
H54 H 0.4136 -0.1993 0.5004
H55 H 0.4359 -0.1094 0.4673
C36 C 0.4964(3) -0.3929(6) 0.48457(17)
H56 H 0.5454 -0.4366 0.4840
H57 H 0.4797 -0.3972 0.5105
C37 C 0.3134(3) 0.1143(6) 0.45161(17)
H58 H 0.3582 0.0792 0.4402
H59 H 0.3194 0.1009 0.4790
C38 C 0.1738(3) 0.1069(6) 0.45310(17)
H60 H 0.1274 0.0650 0.4429
H61 H 0.1776 0.0943 0.4806
C39 C 0.2391(3) 0.3038(6) 0.46063(17)
H62 H 0.2438 0.2915 0.4881
H63 H 0.2359 0.3934 0.4558
C40 C 0.2348(3) 0.0710(6) 0.39379(16)
H64 H 0.2786 0.0344 0.3819
H65 H 0.1884 0.0299 0.3832
C41 C 0.1624(3) 0.2598(6) 0.40240(16)
H66 H 0.1162 0.2187 0.3916
H67 H 0.1584 0.3486 0.3964
C42 C 0.2998(3) 0.2702(6) 0.40186(16)
H68 H 0.3450 0.2375 0.3902
H69 H 0.2964 0.3593 0.3962
C43 C 0.0822(3) 0.7298(6) 0.56235(16)
H70 H 0.0487 0.6854 0.5790
H71 H 0.0930 0.8120 0.5733
C44 C 0.0259(3) 0.6176(6) 0.50783(17)
H72 H 0.0000 0.6260 0.4826
H73 H -0.0085 0.5733 0.5241
C45 C 0.1384(3) 0.5364(6) 0.54379(16)
H74 H 0.1060 0.4912 0.5607
H75 H 0.1860 0.4895 0.5422
C46 C 0.1497(3) 0.6150(6) 0.48015(16)
H76 H 0.1974 0.5688 0.4781
H77 H 0.1248 0.6222 0.4547
C47 C 0.2049(3) 0.7271(6) 0.53421(16)
H78 H 0.2532 0.6822 0.5326
H79 H 0.2166 0.8094 0.5449
C48 C 0.0950(3) 0.8110(6) 0.49818(16)
H80 H 0.0693 0.8197 0.4729
H81 H 0.1059 0.8945 0.5082
N1 N 0.5076(3) -0.2586(5) 0.47397(14)
N2 N 0.4748(3) -0.3171(5) 0.40729(13)
N3 N 0.3723(3) -0.2553(5) 0.44891(13)
N4 N 0.4395(3) -0.4563(5) 0.45876(12)
N5 N 0.1677(3) 0.2426(5) 0.44483(13)
N6 N 0.3089(3) 0.2526(5) 0.44346(14)
N7 N 0.2428(3) 0.0495(4) 0.43597(13)
N8 N 0.2306(3) 0.2070(5) 0.38508(14)
N9 N 0.0985(3) 0.5440(5) 0.50500(13)
N10 N 0.1558(3) 0.6588(5) 0.55967(13)
N11 N 0.1677(3) 0.7419(5) 0.49524(13)
N12 N 0.0431(3) 0.7437(5) 0.52395(13)
O1 O 0.5580(3) 0.0509(4) 0.42077(12)
O2 O 0.4829(2) 0.2406(4) 0.41933(12)
O3 O 0.6212(2) 0.2488(4) 0.43351(11)
O4 O 0.1120(3) 0.2511(5) 0.54245(13)
O5 O 0.1382(3) 0.0380(5) 0.56345(13)
O6 O 0.2438(2) 0.1808(5) 0.55291(12)
O7 O 0.2122(3) -0.4365(5) 0.40170(12)
O8 O 0.0965(3) -0.3244(5) 0.38183(14)
O9 O 0.2190(3) -0.2189(4) 0.38198(13)
O10 O 0.2209(5) -0.5117(9) 0.26077(18)
O11 O 0.3108(3) 0.3451(7) 0.63139(14)
O12 O 0.4531(3) 0.3788(5) 0.33946(14)
S1 S 0.55748(9) 0.18587(17) 0.41291(4)
S2 S 0.16417(10) 0.16953(16) 0.56393(4)
S3 S 0.17863(9) -0.33803(16) 0.37750(4)
Ag1A Ag -0.07234(2) 0.85189(4) 0.524446(12)
Ag2_2 Ag 0.24893(2) 0.83918(4) 0.453290(12)
Ag3A Ag 0.58307(2) -0.16130(5) 0.521891(13)
Ag3_2 Ag 0.41693(2) -0.66130(5) 0.478109(13)
N1A N 0.4924(3) 0.2414(5) 0.52603(14)
N4_2 N 0.4395(3) 0.5437(5) 0.45876(12)
N11_2 N 0.1677(3) -0.2581(5) 0.49524(13)
N12A N -0.0431(3) 0.2437(5) 0.47605(13)
Ag4 Ag 0.07261(2) 1.00785(4) 0.974405(12)
Ag5 Ag 0.24888(2) 1.52004(4) 0.954960(13)
Ag6 Ag 0.41990(2) 1.02306(5) 0.972530(13)
C49 C 0.1429(5) 1.7008(10) 0.7964(2)
C50 C 0.0491(5) 1.7456(11) 0.7897(3)
H82 H 0.0195 1.7294 0.8118
H83 H 0.0433 1.8324 0.7817
C51 C 0.0310(4) 1.6496(9) 0.7560(2)
H84 H -0.0055 1.5872 0.7640
H85 H 0.0074 1.6939 0.7341
C52 C 0.1003(5) 1.5877(10) 0.7452(2)
H86 H 0.0924 1.5134 0.7289
C53 C 0.1532(6) 1.6981(11) 0.7279(3)
H87 H 0.1969 1.6622 0.7157
H88 H 0.1231 1.7477 0.7092
C54 C 0.1792(7) 1.7752(9) 0.7605(2)
C55 C 0.1549(4) 1.5703(8) 0.7802(3)
C56 C 0.1893(5) 1.7543(7) 0.8315(2)
H89 H 0.1788 1.8438 0.8319
H90 H 0.2434 1.7451 0.8265
C57 C 0.1030(6) 1.4819(11) 0.8084(3)
H91 H 0.0514 1.5143 0.8083
H92 H 0.1261 1.4834 0.8340
H93 H 0.1017 1.3971 0.7990
C58 C 0.2358(4) 1.5249(9) 0.7790(2)
H94 H 0.2587 1.5191 0.8046
H95 H 0.2649 1.5826 0.7645
H96 H 0.2360 1.4436 0.7671
C59 C 0.1545(4) 1.1225(6) 1.11228(17)
H97 H 0.1041 1.1429 1.1212
H98 H 0.1565 1.0319 1.1095
C60 C 0.2143(3) 1.1589(6) 1.14378(17)
C61 C 0.2934(5) 1.1063(8) 1.1412(2)
C62 C 0.3454(4) 1.1759(9) 1.1703(2)
H99 H 0.3831 1.2266 1.1579
H100 H 0.3720 1.1183 1.1880
C63 C 0.2880(4) 1.2580(8) 1.19050(19)
H101 H 0.3110 1.3279 1.2054
C64 C 0.2428(5) 1.1648(7) 1.21323(19)
H102 H 0.2112 1.2079 1.2311
H103 H 0.2773 1.1074 1.2274
C65 C 0.1926(4) 1.0948(7) 1.18280(18)
H104 H 0.1382 1.1055 1.1869
H105 H 0.2047 1.0059 1.1829
C66 C 0.2314(4) 1.2963(5) 1.15702(17)
C67 C 0.2720(5) 1.3786(7) 1.1283(2)
H106 H 0.3169 1.3357 1.1202
H107 H 0.2873 1.4565 1.1403
H108 H 0.2373 1.3951 1.1065
C68 C 0.1600(5) 1.3668(7) 1.1699(2)
H109 H 0.1265 1.3867 1.1479
H110 H 0.1760 1.4430 1.1827
H111 H 0.1329 1.3148 1.1871
C69 C 0.5098(3) 1.1720(6) 0.83619(16)
C70 C 0.4796(3) 1.0357(6) 0.83987(17)
H112 H 0.5215 0.9786 0.8471
H113 H 0.4412 1.0308 0.8588
C71 C 0.4441(5) 1.0047(7) 0.80000(19)
H114 H 0.4708 0.9351 0.7888
H115 H 0.3899 0.9835 0.8010
C72 C 0.4543(4) 1.1241(9) 0.77753(19)
H116 H 0.4504 1.1130 0.7497
C73 C 0.3977(4) 1.2212(8) 0.79257(19)
H117 H 0.3928 1.2940 0.7759
H118 H 0.3471 1.1850 0.7954
C74 C 0.4373(3) 1.2542(6) 0.83103(18)
C75 C 0.5340(4) 1.1729(7) 0.79388(17)
C76 C 0.5692(3) 1.2200(5) 0.86643(15)
H119 H 0.5659 1.3109 0.8670
H120 H 0.6201 1.1986 0.8583
C77 C 0.5587(5) 1.3058(8) 0.7810(2)
H121 H 0.6087 1.3254 0.7927
H122 H 0.5219 1.3666 0.7888
H123 H 0.5608 1.3075 0.7537
C78 C 0.6026(5) 1.0850(9) 0.7864(2)
H124 H 0.6496 1.1214 0.7972
H125 H 0.6061 1.0741 0.7593
H126 H 0.5946 1.0049 0.7981
C79 C 0.1617(3) 1.1066(6) 0.90147(16)
H127 H 0.1147 1.1476 0.8916
H128 H 0.1578 1.0184 0.8948
C80 C 0.2403(3) 1.0562(6) 0.95798(15)
H129 H 0.2453 1.0646 0.9856
H130 H 0.2377 0.9674 0.9519
C81 C 0.3109(3) 1.2451(6) 0.95034(17)
H131 H 0.3556 1.2827 0.9395
H132 H 0.3168 1.2551 0.9779
C82 C 0.2320(4) 1.2937(6) 0.89360(17)
H133 H 0.1854 1.3356 0.8836
H134 H 0.2754 1.3321 0.8819
C83 C 0.2994(3) 1.0989(6) 0.89871(17)
H135 H 0.3437 1.1354 0.8872
H136 H 0.2973 1.0105 0.8921
C84 C 0.1739(3) 1.2543(5) 0.95287(16)
H137 H 0.1270 1.2970 0.9437
H138 H 0.1793 1.2637 0.9805
C85 C -0.0271(3) 1.2451(6) 0.99214(16)
H139 H -0.0005 1.2376 1.0172
H140 H 0.0063 1.2907 0.9757
C86 C -0.0950(3) 1.0500(5) 1.00073(16)
H141 H -0.1058 0.9671 0.9902
H142 H -0.0699 1.0395 1.0260
C87 C -0.0834(3) 1.1334(6) 0.93765(16)
H143 H -0.0501 1.1778 0.9209
H144 H -0.0946 1.0516 0.9265
C88 C -0.1374(3) 1.3287(6) 0.95652(15)
H145 H -0.1850 1.3757 0.9580
H146 H -0.1041 1.3744 0.9401
C89 C -0.2051(3) 1.1332(6) 0.96479(17)
H147 H -0.2162 1.0510 0.9539
H148 H -0.2535 1.1779 0.9661
C90 C -0.1492(3) 1.2449(6) 1.01964(16)
H149 H -0.1965 1.2916 1.0223
H150 H -0.1239 1.2358 1.0450
C91 C 0.3994(3) 1.5978(6) 0.91146(17)
H151 H 0.4038 1.5093 0.9054
H152 H 0.3622 1.6348 0.8929
C92 C 0.3665(3) 1.7486(6) 0.95940(17)
H153 H 0.3281 1.7877 0.9420
H154 H 0.3500 1.7589 0.9852
C93 C 0.4295(3) 1.5552(6) 0.97845(16)
H155 H 0.4124 1.5648 1.0042
H156 H 0.4345 1.4662 0.9733
C94 C 0.4980(4) 1.7525(6) 0.98383(17)
H157 H 0.5478 1.7930 0.9822
H158 H 0.4818 1.7638 1.0097
C95 C 0.5302(3) 1.6032(6) 0.93663(17)
H159 H 0.5799 1.6436 0.9346
H160 H 0.5363 1.5147 0.9310
C96 C 0.4667(4) 1.7941(6) 0.91692(16)
H161 H 0.5160 1.8355 0.9146
H162 H 0.4295 1.8318 0.8986
N13 N 0.2406(3) 1.3123(5) 0.93568(13)
N14 N 0.2280(3) 1.1618(5) 0.88303(14)
N15 N 0.1679(3) 1.1188(5) 0.94302(14)
N16 N 0.3088(3) 1.1122(5) 0.94118(13)
N17 N 0.3712(3) 1.6116(5) 0.95036(13)
N18 N 0.5057(3) 1.6173(5) 0.97581(14)
N19 N 0.4744(3) 1.6584(5) 0.90845(14)
N20 N 0.4410(3) 1.8121(5) 0.95621(13)
N21 N -0.1685(3) 1.1184(5) 1.00403(13)
N22 N -0.1546(3) 1.2024(5) 0.93990(14)
N23 N -0.0420(3) 1.1168(5) 0.97598(13)
N24 N -0.0990(3) 1.3163(5) 0.99553(13)
O13 O 0.0973(2) 1.6870(5) 0.88451(13)
O14 O 0.2160(3) 1.7977(4) 0.90065(13)
O15 O 0.1308(3) 1.3172(4) 1.06729(12)
O16 O 0.2410(2) 1.1857(5) 1.05638(12)
O17 O 0.1119(3) 1.1093(4) 1.04048(12)
O18 O 0.5876(2) 1.0335(4) 0.91418(11)
O19 O 0.4817(2) 1.1755(4) 0.92329(12)
O20 O 0.6136(2) 1.2422(4) 0.93809(11)
O21 O 0.3116(3) 1.0160(6) 1.12172(15)
O22 O 0.4164(2) 1.3339(4) 0.85268(12)
O23 O 0.2106(5) 1.8749(6) 0.7605(2)
O24 O 0.2191(3) 1.5813(4) 0.88158(13)
S4 S 0.17884(9) 1.69947(16) 0.87753(4)
S5 S 0.16013(9) 1.18971(15) 1.06561(4)
S6 S 0.56193(9) 1.16366(17) 0.91409(4)
Ag4A Ag -0.07261(2) 1.50785(4) 1.025595(12)
Ag5A Ag -0.24888(2) 1.02004(4) 1.045040(13)
Ag6A Ag 0.58010(2) 1.52306(5) 1.027470(13)
Ag6_2 Ag 0.41990(2) 2.02306(5) 0.972530(13)
N18A N 0.4943(3) 1.1173(5) 1.02419(14)
N20_2 N 0.4410(3) 0.8121(5) 0.95621(13)
N21A N 0.1685(3) 1.6184(5) 0.99597(13)
N24A N 0.0990(3) 0.8163(5) 1.00447(13)
O25 O -0.0138(3) 0.3957(5) 1.09515(16)
H163 H -0.040(3) 0.330(4) 1.1008(16)
H164 H 0.025(2) 0.372(5) 1.0908(19)
O26 O 0.0587(3) 0.8140(7) 1.14736(17)
H165 H 0.030(2) 0.762(5) 1.1560(19)
H166 H 0.1021(18) 0.794(5) 1.1499(17)
O27 O 0.2223(3) 0.7821(6) 1.13424(14)
H167 H 0.212(3) 0.753(5) 1.1138(12)
O28 O 0.3242(3) 0.3931(5) 1.03138(13)
H168 H 0.358(2) 0.400(5) 1.0452(14)
H169 H 0.294(3) 0.336(5) 1.0392(15)
O29 O 0.0046(4) 0.0712(7) 0.8362(2)
H170 H 0.019(4) -0.003(4) 0.8425(19)
O30 O 0.0388(3) 0.4357(5) 0.90748(14)
H171 H 0.069(3) 0.487(5) 0.8971(15)
H172 H 0.015(3) 0.405(5) 0.8881(13)
O31 O 0.3187(3) 0.9544(5) 1.03228(13)
H173 H 0.332(3) 0.907(4) 1.0490(14)
H174 H 0.306(3) 1.020(3) 1.0448(15)
O32 O 0.1611(4) 0.0995(6) 0.8071(2)
H175 H 0.197(2) 0.062(5) 0.7987(17)
H176 H 0.124(2) 0.057(5) 0.8071(16)
O33 O -0.0099(3) -0.0271(5) 0.59321(16)
H177 H 0.027(3) 0.005(6) 0.5887(19)
O34 O 0.4516(5) 0.6054(9) 0.8241(3)
O35 O 0.5324(4) 0.1511(7) 0.67812(16)
H178 H 0.524(3) 0.155(5) 0.6520(10)
H179 H 0.531(4) 0.241(3) 0.6781(16)
O36 O 0.3309(3) -0.0275(5) 0.53190(15)
H180 H 0.307(3) 0.013(4) 0.5507(13)
H181 H 0.346(3) -0.090(4) 0.5466(14)
O37 O 0.2226(3) 0.5811(7) 0.63421(19)
H182 H 0.259(3) 0.521(5) 0.6311(17)
H183 H 0.189(4) 0.582(8) 0.639(2)
O38 O 0.0601(3) 0.5495(6) 0.64553(15)
H184 H 0.040(3) 0.617(4) 0.6488(19)
O39 O -0.0396(3) 0.4290(5) 0.59237(15)
H185 H -0.050(3) 0.357(4) 0.5976(18)
O40 O 0.3226(3) 0.4245(5) 0.53619(13)
H186 H 0.291(3) 0.389(5) 0.5504(14)
H187 H 0.350(3) 0.465(5) 0.5520(14)
O41 O 0.0005(4) 0.2946(7) 0.34221(19)
H188 H 0.043(3) 0.288(6) 0.3304(17)
H189 H 0.010(3) 0.324(6) 0.3632(12)
O42 O 0.1560(4) 0.2783(7) 0.3091(2)
O43? O 0.2106(9) 0.2842(16) 0.3066(5)
loop_
_geom_bond_atom_site_label_1
_geom_bond_atom_site_label_2
_geom_bond_site_symmetry_1
_geom_bond_site_symmetry_2
Ag1 N5 1_555 1_555
Ag2 N3 1_555 1_555
Ag3 N6 1_555 1_555
C1 H1 1_555 1_555
H2 C1 1_555 1_555
C2 C1 1_555 1_555
C3 C2 1_555 1_555
H3 C3 1_555 1_555
H4 C3 1_555 1_555
C4 C3 1_555 1_555
H5 C4 1_555 1_555
H6 C4 1_555 1_555
C5 C4 1_555 1_555
H7 C5 1_555 1_555
C6 C5 1_555 1_555
H8 C6 1_555 1_555
H9 C6 1_555 1_555
C7 C2 1_555 1_555
C8 C2 1_555 1_555
C9 C8 1_555 1_555
H10 C9 1_555 1_555
H11 C9 1_555 1_555
H12 C9 1_555 1_555
C10 C8 1_555 1_555
H13 C10 1_555 1_555
H14 C10 1_555 1_555
H15 C10 1_555 1_555
C11 H16 1_555 1_555
H17 C11 1_555 1_555
C12 C11 1_555 1_555
C13 C12 1_555 1_555
H18 C13 1_555 1_555
H19 C13 1_555 1_555
C14 C13 1_555 1_555
H20 C14 1_555 1_555
H21 C14 1_555 1_555
C15 C14 1_555 1_555
H22 C15 1_555 1_555
C16 C15 1_555 1_555
H23 C16 1_555 1_555
H24 C16 1_555 1_555
C17 C12 1_555 1_555
C18 C12 1_555 1_555
C19 C18 1_555 1_555
H25 C19 1_555 1_555
H26 C19 1_555 1_555
H27 C19 1_555 1_555
C20 C18 1_555 1_555
H28 C20 1_555 1_555
H29 C20 1_555 1_555
H30 C20 1_555 1_555
C21 H31 1_555 1_555
H32 C21 1_555 1_555
C22 C21 1_555 1_555
C23 C22 1_555 1_555
H33 C23 1_555 1_555
H34 C23 1_555 1_555
C24 C23 1_555 1_555
H35 C24 1_555 1_555
H36 C24 1_555 1_555
C25 C24 1_555 1_555
H37 C25 1_555 1_555
C26 C25 1_555 1_555
H38 C26 1_555 1_555
H39 C26 1_555 1_555
C27 C22 1_555 1_555
C28 C22 1_555 1_555
C29 C28 1_555 1_555
H40 C29 1_555 1_555
H41 C29 1_555 1_555
H42 C29 1_555 1_555
C30 C28 1_555 1_555
H43 C30 1_555 1_555
H44 C30 1_555 1_555
H45 C30 1_555 1_555
C31 H46 1_555 1_555
H47 C31 1_555 1_555
C32 H48 1_555 1_555
H49 C32 1_555 1_555
C33 H50 1_555 1_555
H51 C33 1_555 1_555
C34 H52 1_555 1_555
H53 C34 1_555 1_555
C35 H54 1_555 1_555
H55 C35 1_555 1_555
C36 H56 1_555 1_555
H57 C36 1_555 1_555
C37 H58 1_555 1_555
H59 C37 1_555 1_555
C38 H60 1_555 1_555
H61 C38 1_555 1_555
C39 H62 1_555 1_555
H63 C39 1_555 1_555
C40 H64 1_555 1_555
H65 C40 1_555 1_555
C41 H66 1_555 1_555
H67 C41 1_555 1_555
C42 H68 1_555 1_555
H69 C42 1_555 1_555
C43 H70 1_555 1_555
H71 C43 1_555 1_555
C44 H72 1_555 1_555
H73 C44 1_555 1_555
C45 H74 1_555 1_555
H75 C45 1_555 1_555
C46 H76 1_555 1_555
H77 C46 1_555 1_555
C47 H78 1_555 1_555
H79 C47 1_555 1_555
C48 H80 1_555 1_555
H81 C48 1_555 1_555
N1 C31 1_555 1_555
N2 C31 1_555 1_555
N3 C33 1_555 1_555
N4 C32 1_555 1_555
N5 C38 1_555 1_555
N6 C37 1_555 1_555
N7 Ag2 1_555 1_555
N8 C40 1_555 1_555
N9 Ag1 1_555 1_555
N10 C43 1_555 1_555
N11 C46 1_555 1_555
N12 C43 1_555 1_555
O1 S1 1_555 1_555
O2 Ag3 1_555 1_555
O3 S1 1_555 1_555
O4 Ag1 1_555 1_555
O5 S2 1_555 1_555
O6 S2 1_555 1_555
O7 S3 1_555 1_555
O8 S3 1_555 1_555
O9 Ag2 1_555 1_555
O10 C27 1_555 1_555
O11 C17 1_555 1_555
O12 C7 1_555 1_555
S1 C1 1_555 1_555
S2 C11 1_555 1_555
S3 C21 1_555 1_555
Ag4 N15 1_555 1_555
Ag5 N13 1_555 1_555
Ag6 N16 1_555 1_555
C49 C50 1_555 1_555
C50 H82 1_555 1_555
H83 C50 1_555 1_555
C51 C50 1_555 1_555
H84 C51 1_555 1_555
H85 C51 1_555 1_555
C52 C51 1_555 1_555
H86 C52 1_555 1_555
C53 C52 1_555 1_555
H87 C53 1_555 1_555
H88 C53 1_555 1_555
C54 C49 1_555 1_555
C55 C49 1_555 1_555
C56 C49 1_555 1_555
H89 C56 1_555 1_555
H90 C56 1_555 1_555
C57 C55 1_555 1_555
H91 C57 1_555 1_555
H92 C57 1_555 1_555
H93 C57 1_555 1_555
C58 C55 1_555 1_555
H94 C58 1_555 1_555
H95 C58 1_555 1_555
H96 C58 1_555 1_555
C59 H97 1_555 1_555
H98 C59 1_555 1_555
C60 C59 1_555 1_555
C61 C60 1_555 1_555
C62 C61 1_555 1_555
H99 C62 1_555 1_555
H100 C62 1_555 1_555
C63 C62 1_555 1_555
H101 C63 1_555 1_555
C64 C63 1_555 1_555
H102 C64 1_555 1_555
H103 C64 1_555 1_555
C65 C60 1_555 1_555
H104 C65 1_555 1_555
H105 C65 1_555 1_555
C66 C60 1_555 1_555
C67 C66 1_555 1_555
H106 C67 1_555 1_555
H107 C67 1_555 1_555
H108 C67 1_555 1_555
C68 C66 1_555 1_555
H109 C68 1_555 1_555
H110 C68 1_555 1_555
H111 C68 1_555 1_555
C69 C70 1_555 1_555
C70 H112 1_555 1_555
H113 C70 1_555 1_555
C71 C70 1_555 1_555
H114 C71 1_555 1_555
H115 C71 1_555 1_555
C72 C71 1_555 1_555
H116 C72 1_555 1_555
C73 C72 1_555 1_555
H117 C73 1_555 1_555
H118 C73 1_555 1_555
C74 C69 1_555 1_555
C75 C69 1_555 1_555
C76 C69 1_555 1_555
H119 C76 1_555 1_555
H120 C76 1_555 1_555
C77 C75 1_555 1_555
H121 C77 1_555 1_555
H122 C77 1_555 1_555
H123 C77 1_555 1_555
C78 C75 1_555 1_555
H124 C78 1_555 1_555
H125 C78 1_555 1_555
H126 C78 1_555 1_555
C79 H127 1_555 1_555
H128 C79 1_555 1_555
C80 H129 1_555 1_555
H130 C80 1_555 1_555
C81 H131 1_555 1_555
H132 C81 1_555 1_555
C82 H133 1_555 1_555
H134 C82 1_555 1_555
C83 H135 1_555 1_555
H136 C83 1_555 1_555
C84 H137 1_555 1_555
H138 C84 1_555 1_555
C85 H139 1_555 1_555
H140 C85 1_555 1_555
C86 H141 1_555 1_555
H142 C86 1_555 1_555
C87 H143 1_555 1_555
H144 C87 1_555 1_555
C88 H145 1_555 1_555
H146 C88 1_555 1_555
C89 H147 1_555 1_555
H148 C89 1_555 1_555
C90 H149 1_555 1_555
H150 C90 1_555 1_555
C91 H151 1_555 1_555
H152 C91 1_555 1_555
C92 H153 1_555 1_555
H154 C92 1_555 1_555
C93 H155 1_555 1_555
H156 C93 1_555 1_555
C94 H157 1_555 1_555
H158 C94 1_555 1_555
C95 H159 1_555 1_555
H160 C95 1_555 1_555
C96 H161 1_555 1_555
H162 C96 1_555 1_555
N13 C81 1_555 1_555
N14 C79 1_555 1_555
N15 C79 1_555 1_555
N16 C80 1_555 1_555
N17 Ag5 1_555 1_555
N18 C93 1_555 1_555
N19 C91 1_555 1_555
N20 C92 1_555 1_555
N21 C86 1_555 1_555
N22 C87 1_555 1_555
N23 Ag4 1_555 1_555
N24 C85 1_555 1_555
O13 S4 1_555 1_555
O14 S4 1_555 1_555
O15 S5 1_555 1_555
O16 S5 1_555 1_555
O17 Ag4 1_555 1_555
O18 S6 1_555 1_555
O19 Ag6 1_555 1_555
O20 S6 1_555 1_555
O21 C61 1_555 1_555
O22 C74 1_555 1_555
O23 C54 1_555 1_555
O24 Ag5 1_555 1_555
S4 C56 1_555 1_555
S5 C59 1_555 1_555
S6 C76 1_555 1_555
O25 H163 1_555 1_555
H164 O25 1_555 1_555
O26 H165 1_555 1_555
H166 O26 1_555 1_555
O27 H167 1_555 1_555
O28 H168 1_555 1_555
H169 O28 1_555 1_555
O29 H170 1_555 1_555
O30 H171 1_555 1_555
H172 O30 1_555 1_555
O31 H173 1_555 1_555
H174 O31 1_555 1_555
O32 H175 1_555 1_555
H176 O32 1_555 1_555
O33 H177 1_555 1_555
O35 H178 1_555 1_555
H179 O35 1_555 1_555
O36 H180 1_555 1_555
H181 O36 1_555 1_555
O37 H182 1_555 1_555
H183 O37 1_555 1_555
O38 H184 1_555 1_555
O39 H185 1_555 1_555
O40 H186 1_555 1_555
H187 O40 1_555 1_555
O41 H188 1_555 1_555
H189 O41 1_555 1_555
Ag1A N12 1_555 1_555
Ag2_2 N11 1_555 1_555
Ag3A N1 1_555 1_555
Ag3_2 N4 1_555 1_555
N1A Ag3 1_555 1_555
N4_2 Ag3 1_555 1_555
N11_2 Ag2 1_555 1_555
N12A Ag1 1_555 1_555
Ag4A N24 1_555 1_555
Ag5A N21 1_555 1_555
Ag6A N18 1_555 1_555
Ag6_2 N20 1_555 1_555
N18A Ag6 1_555 1_555
N20_2 Ag6 1_555 1_555
N21A Ag5 1_555 1_555
N24A Ag4 1_555 1_555
C5 C8 1_555 1_555
C6 C7 1_555 1_555
C15 C18 1_555 1_555
C16 C17 1_555 1_555
C25 C28 1_555 1_555
C26 C27 1_555 1_555
C32 N2 1_555 1_555
C33 N2 1_555 1_555
C34 N3 1_555 1_555
C34 N4 1_555 1_555
C35 N1 1_555 1_555
C35 N3 1_555 1_555
C36 N1 1_555 1_555
C36 N4 1_555 1_555
C37 N7 1_555 1_555
C38 N7 1_555 1_555
C39 N5 1_555 1_555
C39 N6 1_555 1_555
C40 N7 1_555 1_555
C41 N5 1_555 1_555
C41 N8 1_555 1_555
C42 N6 1_555 1_555
C42 N8 1_555 1_555
C44 N9 1_555 1_555
C44 N12 1_555 1_555
C45 N9 1_555 1_555
C45 N10 1_555 1_555
C46 N9 1_555 1_555
C47 N10 1_555 1_555
C47 N11 1_555 1_555
C48 N11 1_555 1_555
C48 N12 1_555 1_555
O2 S1 1_555 1_555
O4 S2 1_555 1_555
O9 S3 1_555 1_555
C52 C55 1_555 1_555
C53 C54 1_555 1_555
C63 C66 1_555 1_555
C64 C65 1_555 1_555
C72 C75 1_555 1_555
C73 C74 1_555 1_555
C80 N15 1_555 1_555
C81 N16 1_555 1_555
C82 N13 1_555 1_555
C82 N14 1_555 1_555
C83 N14 1_555 1_555
C83 N16 1_555 1_555
C84 N13 1_555 1_555
C84 N15 1_555 1_555
C85 N23 1_555 1_555
C86 N23 1_555 1_555
C87 N23 1_555 1_555
C88 N22 1_555 1_555
C88 N24 1_555 1_555
C89 N21 1_555 1_555
C89 N22 1_555 1_555
C90 N21 1_555 1_555
C90 N24 1_555 1_555
C91 N17 1_555 1_555
C92 N17 1_555 1_555
C93 N17 1_555 1_555
C94 N18 1_555 1_555
C94 N20 1_555 1_555
C95 N18 1_555 1_555
C95 N19 1_555 1_555
C96 N19 1_555 1_555
C96 N20 1_555 1_555
O17 S5 1_555 1_555
O19 S6 1_555 1_555
O24 S4 1_555 1_555

#END
