
#######################################################################
#
#                 Cambridge Crystallographic Data Centre
#                                CCDC 
#
#######################################################################
#
# If this CIF has been generated from an entry in the Cambridge 
# Structural Database, then it will include bibliographic, chemical, 
# crystal, experimental, refinement or atomic coordinate data resulting 
# from the CCDC's data processing and validation procedures.
#
#######################################################################

data_AQOFIW
_symmetry_cell_setting           monoclinic
_symmetry_space_group_name_H-M   'P 21/n'
_symmetry_Int_Tables_number      14
_space_group_name_Hall           '-P 2yn'
loop_
_symmetry_equiv_pos_site_id
_symmetry_equiv_pos_as_xyz
1 x,y,z
2 1/2-x,1/2+y,1/2-z
3 -x,-y,-z
4 1/2+x,1/2-y,1/2+z
_cell_length_a                   10.54880(70)
_cell_length_b                   13.89404(92)
_cell_length_c                   8.17316(53)
_cell_angle_alpha                90
_cell_angle_beta                 84.4291(41)
_cell_angle_gamma                90
_cell_volume                     1192.24
loop_
_atom_site_label
_atom_site_type_symbol
_atom_site_fract_x
_atom_site_fract_y
_atom_site_fract_z
Ni1 Ni 0.00000 0.00000 0.00000
O1 O -0.1764(13) 0.01549(93) 0.1738(17)
N1 N 0.116480 0.056670 0.160290
N2 N 0.266930 0.098980 0.303970
N3 N 0.434960 0.210980 0.346750
N4 N 0.461940 0.360590 0.401430
C1 C 0.239390 0.050230 0.172410
C2 C 0.062740 0.111780 0.286750
N5 N 0.156070 0.138600 0.376450
C3 C 0.392880 0.111210 0.361220
C4 C 0.409610 0.279340 0.459560
C5 C 0.522960 0.343700 0.247630
N6 N 0.505700 0.250680 0.212550
H1 H 0.298920 0.016220 0.099040
H2 H -0.024870 0.128080 0.307340
H3 H 0.390170 0.090790 0.477580
H4 H 0.454720 0.069580 0.295730
H5 H 0.362310 0.271240 0.563550
H6 H 0.568820 0.389470 0.179050
Ni1C Ni 0.50000 0.50000 0.50000
Ni1C_2 Ni -0.50000 0.50000 -0.50000
O1B O 0.1764(13) -0.01549(93) -0.1738(17)
N1C N -0.383520 0.443330 -0.339710
N1B N -0.116480 -0.056670 -0.160290
N2C N -0.233070 0.401020 -0.196030
N3C N -0.065040 0.289020 -0.153250
N4C N -0.038060 0.139410 -0.098570
N4A N 0.038060 -0.139410 0.098570
C1C C -0.260610 0.449770 -0.327590
C2C C -0.437260 0.388220 -0.213250
N5C N -0.343930 0.361400 -0.123550
C3C C -0.107120 0.388790 -0.138780
C4C C -0.090390 0.220660 -0.040440
C5C C 0.022960 0.156300 -0.252370
N6C N 0.005700 0.249320 -0.287450
H1C H -0.201080 0.483780 -0.400960
H2C H -0.524870 0.371920 -0.192660
H3C H -0.109830 0.409210 -0.022420
H4C H -0.045280 0.430420 -0.204270
H5C H -0.137690 0.228760 0.063550
H6C H 0.068820 0.110530 -0.320950
N7 N -0.724209 -0.160386 0.520341
O2 O -0.782728 -0.198254 0.649365
O3 O -0.705069 -0.209777 0.389362
O4 O -0.684377 -0.078710 0.512850
O5 O 0.0599(14) 0.37492(88) 0.3971(21)
O6 O 0.1489(14) 0.6264(10) 0.7034(16)
loop_
_geom_bond_atom_site_label_1
_geom_bond_atom_site_label_2
_geom_bond_site_symmetry_1
_geom_bond_site_symmetry_2
Ni1 O1 1_555 1_555
N1 Ni1 1_555 1_555
N2 C1 1_555 1_555
N3 C3 1_555 1_555
N4 C4 1_555 1_555
C1 N1 1_555 1_555
C2 N1 1_555 1_555
N5 N2 1_555 1_555
C3 N2 1_555 1_555
C4 N3 1_555 1_555
C5 N4 1_555 1_555
N6 N3 1_555 1_555
H1 C1 1_555 1_555
H2 C2 1_555 1_555
H3 C3 1_555 1_555
H4 C3 1_555 1_555
H5 C4 1_555 1_555
H6 C5 1_555 1_555
N7 O2 1_555 1_555
O3 N7 1_555 1_555
O4 N7 1_555 1_555
Ni1C N4 1_555 1_555
Ni1C_2 N1C 1_555 1_555
O1B Ni1 1_555 1_555
N1C C1C 1_555 1_555
N1B Ni1 1_555 1_555
N2C C1C 1_555 1_555
N3C C3C 1_555 1_555
N4C Ni1 1_555 1_555
N4A Ni1 1_555 1_555
C1C H1C 1_555 1_555
C2C N1C 1_555 1_555
N5C N2C 1_555 1_555
C3C N2C 1_555 1_555
C4C N3C 1_555 1_555
C5C N4C 1_555 1_555
N6C N3C 1_555 1_555
H2C C2C 1_555 1_555
H3C C3C 1_555 1_555
H4C C3C 1_555 1_555
H5C C4C 1_555 1_555
H6C C5C 1_555 1_555
C2 N5 1_555 1_555
C5 N6 1_555 1_555
N4C C4C 1_555 1_555
C2C N5C 1_555 1_555
C5C N6C 1_555 1_555

#END
