
#######################################################################
#
#                 Cambridge Crystallographic Data Centre
#                                CCDC 
#
#######################################################################
#
# If this CIF has been generated from an entry in the Cambridge 
# Structural Database, then it will include bibliographic, chemical, 
# crystal, experimental, refinement or atomic coordinate data resulting 
# from the CCDC's data processing and validation procedures.
#
#######################################################################

data_AQOFUI
_symmetry_cell_setting           triclinic
_symmetry_space_group_name_H-M   'P -1'
_symmetry_Int_Tables_number      2
_space_group_name_Hall           '-P 1'
loop_
_symmetry_equiv_pos_site_id
_symmetry_equiv_pos_as_xyz
1 x,y,z
2 -x,-y,-z
_cell_length_a                   7.22492(19)
_cell_length_b                   9.80878(27)
_cell_length_c                   7.98342(22)
_cell_angle_alpha                111.7075(19)
_cell_angle_beta                 98.9632(23)
_cell_angle_gamma                84.4255(24)
_cell_volume                     518.744
loop_
_atom_site_label
_atom_site_type_symbol
_atom_site_fract_x
_atom_site_fract_y
_atom_site_fract_z
Cd1 Cd 0.75860(51) 0.42901(33) 0.51877(48)
Cl1 Cl 0.5238(13) 0.51516(85) 0.2818(11)
Cl2 Cl 0.9257(13) 0.66097(93) 0.6429(12)
N1 N 0.897950 0.354360 0.757000
N2 N 1.090410 0.229860 0.884280
N3 N 1.326930 0.033020 0.827610
N4 N 1.346500 -0.195570 0.658780
C1 C 1.075780 0.331910 0.810260
C2 C 0.794190 0.263540 0.796160
N5 N 0.913370 0.185370 0.875020
C3 C 1.263500 0.171090 0.958980
C4 C 1.254270 -0.097220 0.784880
C5 C 1.482430 -0.126620 0.620360
N6 N 1.469970 0.016080 0.724420
H1 H 1.177390 0.380730 0.797880
H2 H 0.661640 0.257070 0.771940
H3 H 1.242150 0.154970 1.069680
H4 H 1.362140 0.243450 0.994240
H5 H 1.153920 -0.116260 0.835960
H6 H 1.569040 -0.171750 0.535820
Cd1A Cd 0.24140(51) 0.57099(33) 0.48123(48)
Cd1A_2 Cd 1.24140(51) 0.57099(33) 0.48123(48)
Cd1A_3 Cd 1.24140(51) -0.42901(33) 0.48123(48)
Cl1A Cl 0.4762(13) 0.48484(85) 0.7182(11)
Cl2A Cl 1.0743(13) 0.33903(93) 0.3571(12)
N4A N 0.653500 0.195570 0.341220
loop_
_geom_bond_atom_site_label_1
_geom_bond_atom_site_label_2
_geom_bond_site_symmetry_1
_geom_bond_site_symmetry_2
Cd1 Cl1 1_555 1_555
Cl1 Cd1A 1_555 1_555
Cl2 Cd1 1_555 1_555
N1 Cd1 1_555 1_555
N2 C1 1_555 1_555
N3 C3 1_555 1_555
N4 C4 1_555 1_555
C1 N1 1_555 1_555
C2 N1 1_555 1_555
N5 N2 1_555 1_555
C3 N2 1_555 1_555
C4 N3 1_555 1_555
C5 N4 1_555 1_555
N6 N3 1_555 1_555
H1 C1 1_555 1_555
H2 C2 1_555 1_555
H3 C3 1_555 1_555
H4 C3 1_555 1_555
H5 C4 1_555 1_555
H6 C5 1_555 1_555
Cd1A Cl1A 1_555 1_555
Cd1A_2 Cl2 1_555 1_555
Cd1A_3 N4 1_555 1_555
Cl1A Cd1 1_555 1_555
Cl2A Cd1 1_555 1_555
N4A Cd1 1_555 1_555
C2 N5 1_555 1_555
C5 N6 1_555 1_555
Cd1A_2 Cl2A 1_555 1_555

#END
