
#######################################################################
#
#                 Cambridge Crystallographic Data Centre
#                                CCDC 
#
#######################################################################
#
# If this CIF has been generated from an entry in the Cambridge 
# Structural Database, then it will include bibliographic, chemical, 
# crystal, experimental, refinement or atomic coordinate data resulting 
# from the CCDC's data processing and validation procedures.
#
#######################################################################

data_AQOFOC
_symmetry_cell_setting           monoclinic
_symmetry_space_group_name_H-M   'C 2/c'
_symmetry_Int_Tables_number      15
_space_group_name_Hall           '-C 2yn'
loop_
_symmetry_equiv_pos_site_id
_symmetry_equiv_pos_as_xyz
1 x,y,z
2 1/2+x,1/2+y,z
3 -x,y,1/2-z
4 1/2-x,1/2+y,1/2-z
5 -x,-y,-z
6 1/2-x,1/2-y,-z
7 x,-y,1/2+z
8 1/2+x,1/2-y,1/2+z
_cell_length_a                   13.76573(41)
_cell_length_b                   11.57874(39)
_cell_length_c                   9.45569(32)
_cell_angle_alpha                90
_cell_angle_beta                 63.1802(15)
_cell_angle_gamma                90
_cell_volume                     1345.02
loop_
_atom_site_label
_atom_site_type_symbol
_atom_site_fract_x
_atom_site_fract_y
_atom_site_fract_z
Cu1 Cu 0.75000 0.25000 0.00000
C1 C 0.50000 0.45651 -0.25000
N1 N 0.529740 0.379570 -0.153890
C2 C 0.631480 0.364790 -0.166980
N2 N 0.625250 0.286010 -0.056520
C3 C 0.519670 0.252090 0.024830
N3 N 0.460640 0.309920 -0.035350
H1 H 0.695630 0.402830 -0.240390
H2 H 0.492000 0.197580 0.10893
H3 H 0.561640 0.500760 -0.31778
O1 O 0.829660 0.371770 -0.146280
O2 O 0.750050 0.467290 0.078260
C4 C 0.80514 0.46289 -0.06552
C5 C 0.845440 0.577080 -0.148640
H4 H 0.795300 0.604950 -0.188720
H5 H 0.849010 0.633340 -0.073690
H6 H 0.918100 0.566780 -0.237270
Cu1G Cu 0.25000 0.25000 -0.50000
N1B N 0.470260 0.379570 -0.346110
C2B C 0.368520 0.364790 -0.333020
N2B N 0.374750 0.286010 -0.443480
N2E N 0.874750 0.213990 0.056520
C3B C 0.480330 0.252090 -0.524830
N3B N 0.539360 0.309920 -0.464650
H1B H 0.304370 0.402830 -0.259610
H2B H 0.508000 0.197580 -0.60893
H3B H 0.438360 0.500760 -0.18222
O1E O 0.670340 0.128230 0.146280
O2E O 0.749950 0.032710 -0.078260
C4E C 0.69486 0.03711 0.06552
C5E C 0.654560 -0.077080 0.148640
H4E H 0.704700 -0.104950 0.188720
H5E H 0.650990 -0.133340 0.073690
H6E H 0.581900 -0.066780 0.237270
loop_
_geom_bond_atom_site_label_1
_geom_bond_atom_site_label_2
_geom_bond_site_symmetry_1
_geom_bond_site_symmetry_2
Cu1 N2 1_555 1_555
C1 N1 1_555 1_555
N1 C2 1_555 1_555
C2 N2 1_555 1_555
N2 C3 1_555 1_555
C3 N3 1_555 1_555
N3 N1 1_555 1_555
H1 C2 1_555 1_555
H2 C3 1_555 1_555
H3 C1 1_555 1_555
O1 Cu1 1_555 1_555
O2 Cu1 1_555 1_555
C4 O1 1_555 1_555
C5 C4 1_555 1_555
H4 C5 1_555 1_555
H5 C5 1_555 1_555
H6 C5 1_555 1_555
Cu1G N2B 1_555 1_555
N1B C1 1_555 1_555
C2B N1B 1_555 1_555
N2B C2B 1_555 1_555
N2E Cu1 1_555 1_555
C3B N2B 1_555 1_555
N3B N1B 1_555 1_555
H1B C2B 1_555 1_555
H2B C3B 1_555 1_555
H3B C1 1_555 1_555
O1E Cu1 1_555 1_555
O2E Cu1 1_555 1_555
C4E O1E 1_555 1_555
C5E C4E 1_555 1_555
H4E C5E 1_555 1_555
H5E C5E 1_555 1_555
H6E C5E 1_555 1_555
O2 C4 1_555 1_555
C3B N3B 1_555 1_555
O2E C4E 1_555 1_555

#END
