
#######################################################################
#
#                 Cambridge Crystallographic Data Centre
#                                CCDC 
#
#######################################################################
#
# If this CIF has been generated from an entry in the Cambridge 
# Structural Database, then it will include bibliographic, chemical, 
# crystal, experimental, refinement or atomic coordinate data resulting 
# from the CCDC's data processing and validation procedures.
#
#######################################################################

data_AQOFAO
_symmetry_cell_setting           monoclinic
_symmetry_space_group_name_H-M   'P 21'
_symmetry_Int_Tables_number      4
_space_group_name_Hall           'P 2yb'
loop_
_symmetry_equiv_pos_site_id
_symmetry_equiv_pos_as_xyz
1 x,y,z
2 -x,1/2+y,-z
_cell_length_a                   17.3471(7)
_cell_length_b                   10.6483(4)
_cell_length_c                   34.9712(15)
_cell_angle_alpha                90
_cell_angle_beta                 93.3540(10)
_cell_angle_gamma                90
_cell_volume                     6448.71
loop_
_atom_site_label
_atom_site_type_symbol
_atom_site_fract_x
_atom_site_fract_y
_atom_site_fract_z
Ag1 Ag 0.57239(4) -0.09145(7) 0.975522(17)
Ag2 Ag 0.74899(4) 0.42165(7) 0.952970(17)
Ag3 Ag 0.91695(4) -0.07782(7) 0.978110(17)
C1 C 0.6632(4) 0.0001(9) 0.9021(2)
H1 H 0.6587 -0.0884 0.8959
H2 H 0.6171 0.0420 0.8915
C2 C 0.7343(5) 0.1876(9) 0.8935(2)
H3 H 0.6873 0.2274 0.8831
H4 H 0.7774 0.2250 0.8812
C3 C 0.7998(5) -0.0094(8) 0.9016(2)
H5 H 0.8450 0.0240 0.8900
H6 H 0.7970 -0.0985 0.8959
C4 C 0.7385(4) -0.0436(8) 0.9604(2)
H7 H 0.7355 -0.1334 0.9558
H8 H 0.7429 -0.0307 0.9879
C5 C 0.8130(5) 0.1470(9) 0.9517(2)
H9 H 0.8183 0.1598 0.9791
H10 H 0.8581 0.1825 0.9406
C6 C 0.6740(5) 0.1539(9) 0.9539(2)
H11 H 0.6790 0.1652 0.9815
H12 H 0.6272 0.1961 0.9443
C7 C 0.5269(5) -0.3572(9) 1.0078(2)
H13 H 0.4927 -0.3127 1.0241
H14 H 0.5006 -0.3651 0.9826
C8 C 0.5826(5) -0.4680(9) 1.0627(2)
H15 H 0.5495 -0.4221 1.0792
H16 H 0.5931 -0.5497 1.0740
C9 C 0.5957(5) -0.5523(9) 0.9983(2)
H17 H 0.6073 -0.6348 1.0089
H18 H 0.5703 -0.5635 0.9731
C10 C 0.6493(5) -0.3534(9) 0.9801(2)
H19 H 0.6972 -0.3073 0.9783
H20 H 0.6249 -0.3599 0.9545
C11 C 0.7055(5) -0.4677(9) 1.0339(2)
H21 H 0.7178 -0.5498 1.0446
H22 H 0.7534 -0.4217 1.0321
C12 C 0.6376(5) -0.2748(9) 1.0436(2)
H23 H 0.6852 -0.2277 1.0422
H24 H 0.6047 -0.2301 1.0605
C13 C 0.8647(5) 0.6480(9) 0.9602(3)
H25 H 0.8476 0.6513 0.9861
H26 H 0.8261 0.6893 0.9434
C14 C 0.9304(5) 0.4573(9) 0.9746(2)
H27 H 0.9357 0.3698 0.9674
H28 H 0.9129 0.4599 1.0004
C15 C 0.9001(5) 0.5148(9) 0.9097(2)
H29 H 0.8626 0.5565 0.8924
H30 H 0.9042 0.4283 0.9013
C16 C 0.9968(6) 0.6555(9) 0.9841(2)
H31 H 0.9808 0.6617 1.0101
H32 H 1.0458 0.6988 0.9829
C17 C 0.9644(5) 0.7080(9) 0.9198(2)
H33 H 1.0124 0.7539 0.9180
H34 H 0.9257 0.7478 0.9026
C18 C 1.0316(5) 0.5166(9) 0.9333(2)
H35 H 1.0810 0.5586 0.9320
H36 H 1.0382 0.4300 0.9255
C19 C 0.7768(5) 0.1563(9) 1.1985(2)
H37 H 0.7785 0.1775 1.2259
C20 C 0.8277(5) 0.0465(9) 1.1883(2)
H38 H 0.8808 0.0731 1.1862
H39 H 0.8263 -0.0198 1.2073
C21 C 0.7922(6) 0.0033(11) 1.1499(3)
C22 C 0.7244(5) 0.0927(9) 1.1409(2)
C23 C 0.7652(6) 0.2180(9) 1.1314(3)
H40 H 0.7287 0.2782 1.1200
H41 H 0.8061 0.2041 1.1141
C24 C 0.7989(5) 0.2646(9) 1.1719(2)
H42 H 0.8544 0.2754 1.1723
H43 H 0.7753 0.3430 1.1791
C25 C 0.6633(6) 0.0407(9) 1.1117(2)
H44 H 0.6130 0.0608 1.1207
H45 H 0.6679 -0.0501 1.1118
C26 C 0.6978(4) 0.1164(7) 1.1815(2)
C27 C 0.6358(5) 0.2182(8) 1.1827(3)
H46 H 0.6544 0.2943 1.1718
H47 H 0.6239 0.2331 1.2088
H48 H 0.5900 0.1910 1.1682
C28 C 0.6666(5) 0.0005(9) 1.1994(2)
H49 H 0.6165 -0.0182 1.1877
H50 H 0.6626 0.0144 1.2263
H51 H 0.7008 -0.0687 1.1956
C29 C 0.9494(6) 0.1455(9) 0.7777(3)
H52 H 0.9435 0.1712 0.7508
C30 C 0.9178(5) 0.2344(10) 0.8047(3)
H53 H 0.8621 0.2259 0.8049
H54 H 0.9301 0.3201 0.7980
C31 C 0.9561(5) 0.2000(9) 0.8435(2)
H55 H 0.9180 0.1734 0.8611
H56 H 0.9848 0.2705 0.8546
C32 C 1.0099(5) 0.0923(10) 0.8346(2)
C33 C 0.9568(5) -0.0180(9) 0.8234(2)
C34 C 0.9139(6) 0.0188(11) 0.7863(3)
H57 H 0.8589 0.0261 0.7894
H58 H 0.9224 -0.0415 0.7662
C35 C 1.0336(5) 0.1284(8) 0.7933(2)
C36 C 1.0747(4) 0.0584(8) 0.8633(2)
H59 H 1.1189 0.1101 0.8581
H60 H 1.0890 -0.0281 0.8588
C37 C 1.0810(5) 0.2480(9) 0.7926(2)
H61 H 1.1328 0.2312 0.8024
H62 H 1.0582 0.3108 0.8081
H63 H 1.0820 0.2778 0.7667
C38 C 1.0794(6) 0.0243(10) 0.7741(2)
H64 H 1.0508 -0.0528 0.7742
H65 H 1.1284 0.0130 0.7879
H66 H 1.0877 0.0479 0.7481
C39 C 0.7536(7) 0.4832(9) 0.7928(3)
H67 H 0.8013 0.5250 0.7872
H68 H 0.7617 0.4362 0.8164
C40 C 0.7250(7) 0.3951(11) 0.7589(3)
H69 H 0.7158 0.3104 0.7678
H70 H 0.7616 0.3928 0.7390
C41 C 0.6458(7) 0.4638(11) 0.7445(3)
H71 H 0.6099 0.4114 0.7288
C42 C 0.6709(7) 0.5875(14) 0.7249(3)
H72 H 0.7124 0.5737 0.7079
H73 H 0.6281 0.6292 0.7111
C43 C 0.6969(9) 0.6548(15) 0.7595(4)
C44 C 0.6925(6) 0.6609(11) 0.8294(2)
H74 H 0.6564 0.7299 0.8255
H75 H 0.7439 0.6971 0.8299
C45 C 0.6180(6) 0.5013(11) 0.7814(3)
C46 C 0.6845(6) 0.5829(9) 0.7957(2)
C47 C 0.5475(6) 0.5939(13) 0.7739(4)
H76 H 0.5620 0.6605 0.7573
H77 H 0.5332 0.6288 0.7978
H78 H 0.5045 0.5488 0.7621
C48 C 0.5978(7) 0.3918(12) 0.8078(3)
H79 H 0.5808 0.4245 0.8315
H80 H 0.6427 0.3404 0.8129
H81 H 0.5574 0.3422 0.7955
N1 N 0.6682(4) 0.0156(7) 0.94469(18)
N2 N 0.7311(4) 0.0521(7) 0.88459(19)
N3 N 0.8090(4) 0.0078(7) 0.94317(19)
N4 N 0.7432(4) 0.2120(6) 0.93591(17)
N5 N 0.5420(4) -0.4840(7) 1.02369(18)
N6 N 0.6550(4) -0.3997(7) 1.05951(18)
N7 N 0.6673(4) -0.4827(7) 0.99492(18)
N8 N 0.5981(4) -0.2826(7) 1.00448(17)
N9 N 0.8723(4) 0.5167(7) 0.94845(18)
N10 N 0.9757(4) 0.5767(7) 0.90706(18)
N11 N 1.0075(4) 0.5194(7) 0.97415(18)
N12 N 0.9402(4) 0.7160(7) 0.95863(16)
S1 S 0.66444(14) 0.0911(2) 1.06379(6)
S2 S 1.05749(13) 0.0744(2) 0.91271(6)
S3 S 0.67943(14) 0.5988(2) 0.87713(6)
O1 O 1.1215(3) 0.0104(5) 0.93304(14)
O2 O 1.0584(3) 0.2101(5) 0.92059(14)
O3 O 0.9829(3) 0.0192(6) 0.91917(15)
O4 O 0.7438(4) 0.0801(7) 1.05291(16)
O5 O 0.6384(4) 0.2209(7) 1.06361(17)
O6 O 0.6118(4) 0.0102(7) 1.04251(17)
O7 O 0.5967(4) 0.5850(7) 0.88088(18)
O8 O 0.7138(4) 0.6978(6) 0.90209(16)
O9 O 0.7192(4) 0.4778(6) 0.88152(17)
O10 O 0.8117(4) -0.0837(9) 1.13156(18)
O11 O 0.7185(6) 0.7717(13) 0.7608(2)
O12 O 0.9543(4) -0.1180(6) 0.83941(17)
Ag1A Ag 0.42761(4) -0.59145(7) 1.024478(17)
Ag2_2 Ag 0.74899(4) -0.57835(7) 0.952970(17)
Ag3A Ag 1.08305(4) 0.42218(7) 1.021890(17)
Ag3_2 Ag 0.91695(4) 0.92218(7) 0.978110(17)
N5A N 0.4580(4) 0.0160(7) 0.97631(18)
N7_2 N 0.6673(4) 0.5173(7) 0.99492(18)
N11A N 0.9925(4) 0.0194(7) 1.02585(18)
N12_2 N 0.9402(4) -0.2840(7) 0.95863(16)
Ag4 Ag 0.25097(4) 0.24294(6) 0.545292(17)
Ag5 Ag 0.08013(4) -0.25994(7) 0.527420(17)
Ag6 Ag 0.42740(3) 0.75554(6) 0.525530(17)
C49 C 0.0329(5) -0.0323(8) 0.5831(2)
H82 H -0.0166 -0.0732 0.5853
H83 H 0.0697 -0.0704 0.6015
C50 C -0.0305(5) 0.1593(9) 0.5631(2)
H84 H -0.0802 0.1188 0.5650
H85 H -0.0367 0.2478 0.5688
C51 C 0.0698(4) 0.2075(9) 0.5218(2)
H86 H 0.0648 0.2964 0.5271
H87 H 0.0867 0.1987 0.4960
C52 C 0.1335(5) 0.0158(8) 0.5407(2)
H88 H 0.1504 0.0059 0.5149
H89 H 0.1720 -0.0229 0.5581
C53 C 0.0023(5) 0.0115(8) 0.5156(2)
H90 H 0.0197 0.0024 0.4899
H91 H -0.0474 -0.0297 0.5165
C54 C 0.0999(5) 0.1649(9) 0.5891(2)
H92 H 0.1368 0.1280 0.6077
H93 H 0.0950 0.2533 0.5951
C55 C 0.2595(5) 0.7068(9) 0.5418(2)
H94 H 0.2622 0.7954 0.5482
H95 H 0.2546 0.6991 0.5142
C56 C 0.3253(5) 0.5089(8) 0.5477(2)
H96 H 0.3201 0.4992 0.5201
H97 H 0.3720 0.4656 0.5569
C57 C 0.2676(5) 0.4679(8) 0.6061(2)
H98 H 0.2234 0.4306 0.6175
H99 H 0.3136 0.4248 0.6163
C58 C 0.2007(5) 0.6636(9) 0.6014(2)
H100 H 0.2025 0.7519 0.6082
H101 H 0.1566 0.6263 0.6129
C59 C 0.1891(5) 0.5180(8) 0.5499(2)
H102 H 0.1824 0.5068 0.5224
H103 H 0.1448 0.4809 0.5613
C60 C 0.3394(5) 0.6565(9) 0.5987(2)
H104 H 0.3429 0.7450 0.6051
H105 H 0.3864 0.6159 0.6088
C61 C 0.2953(5) 0.1286(9) 0.4648(2)
H106 H 0.2467 0.0841 0.4662
H107 H 0.2841 0.2110 0.4540
C62 C 0.3512(5) 0.0181(8) 0.5196(2)
H108 H 0.3769 0.0278 0.5448
H109 H 0.3041 -0.0292 0.5226
C63 C 0.4062(4) 0.2117(9) 0.5011(2)
H110 H 0.3961 0.2956 0.4913
H111 H 0.4315 0.2197 0.5265
C64 C 0.4737(5) 0.0197(9) 0.4924(2)
H112 H 0.5080 -0.0253 0.4763
H113 H 0.4994 0.0282 0.5177
C65 C 0.3620(5) -0.0636(9) 0.4564(2)
H114 H 0.3949 -0.1093 0.4397
H115 H 0.3144 -0.1106 0.4580
C66 C 0.4172(5) 0.1315(8) 0.4380(2)
H116 H 0.4509 0.0882 0.4211
H117 H 0.4061 0.2139 0.4272
C67 C 0.3452(5) 0.6415(8) 0.3875(2)
H118 H 0.3422 0.7320 0.3904
H119 H 0.3960 0.6229 0.3787
C68 C 0.2866(5) 0.6038(8) 0.3562(2)
C69 C 0.2069(6) 0.6556(11) 0.3586(3)
C70 C 0.1544(6) 0.5896(11) 0.3294(3)
H120 H 0.1289 0.6485 0.3117
H121 H 0.1159 0.5398 0.3415
C71 C 0.2119(7) 0.5064(11) 0.3094(2)
H122 H 0.1883 0.4367 0.2946
C72 C 0.2575(6) 0.5991(9) 0.2860(2)
H123 H 0.2234 0.6560 0.2714
H124 H 0.2900 0.5556 0.2686
C73 C 0.3068(6) 0.6701(10) 0.3179(2)
H125 H 0.2932 0.7584 0.3183
H126 H 0.3615 0.6626 0.3139
C74 C 0.2698(5) 0.4659(7) 0.3427(2)
C75 C 0.2282(7) 0.3847(9) 0.3716(2)
H127 H 0.1835 0.4286 0.3795
H128 H 0.2626 0.3682 0.3935
H129 H 0.2126 0.3068 0.3597
C76 C 0.3420(6) 0.3950(9) 0.3300(3)
H130 H 0.3750 0.3742 0.3521
H131 H 0.3696 0.4475 0.3131
H132 H 0.3262 0.3194 0.3168
C77 C 0.0560(6) -0.2394(9) 0.6997(2)
H133 H 0.0287 -0.1701 0.7108
H134 H 0.1102 -0.2176 0.6987
C78 C 0.0200(4) -0.2748(8) 0.6599(2)
H135 H -0.0222 -0.2186 0.6525
H136 H 0.0583 -0.2703 0.6408
C79 C -0.0680(4) -0.4576(7) 0.6338(2)
H137 H -0.1190 -0.4374 0.6420
H138 H -0.0640 -0.5485 0.6332
C80 C -0.0092(5) -0.4095(9) 0.6639(2)
C81 C 0.0626(5) -0.4895(8) 0.6685(2)
C82 C 0.1022(5) -0.4560(9) 0.7072(2)
H139 H 0.1083 -0.5291 0.7237
H140 H 0.1523 -0.4177 0.7044
C83 C 0.0453(6) -0.3633(10) 0.7223(2)
H141 H 0.0489 -0.3535 0.7502
C84 C -0.0341(6) -0.4112(9) 0.7056(2)
C85 C -0.0550(6) -0.5408(11) 0.7187(3)
H142 H -0.0137 -0.5978 0.7139
H143 H -0.1014 -0.5680 0.7048
H144 H -0.0631 -0.5393 0.7456
C86 C -0.1002(6) -0.3225(11) 0.7129(3)
H145 H -0.1477 -0.3576 0.7023
H146 H -0.0913 -0.2430 0.7010
H147 H -0.1033 -0.3108 0.7400
C87 C 0.3104(6) 0.0063(9) 0.6684(2)
H148 H 0.2562 0.0147 0.6733
H149 H 0.3211 -0.0830 0.6675
C88 C 0.3567(5) 0.0585(10) 0.7042(2)
C89 C 0.4473(7) 0.0210(15) 0.7093(3)
H150 H 0.4549 -0.0668 0.7158
H151 H 0.4751 0.0416 0.6868
C90 C 0.4689(6) 0.1108(13) 0.7441(3)
H152 H 0.4920 0.0629 0.7654
H153 H 0.5059 0.1734 0.7367
C91 C 0.3978(6) 0.1728(11) 0.7555(2)
H154 H 0.4060 0.2474 0.7717
C92 C 0.3507(8) 0.0671(13) 0.7732(3)
H155 H 0.3829 0.0180 0.7912
H156 H 0.3078 0.1015 0.7864
C93 C 0.3227(8) -0.0102(11) 0.7406(3)
C94 C 0.3459(5) 0.1924(9) 0.7195(3)
C95 C 0.3936(8) 0.2850(13) 0.6924(3)
H157 H 0.4456 0.2549 0.6912
H158 H 0.3944 0.3684 0.7029
H159 H 0.3691 0.2865 0.6671
C96 C 0.2650(5) 0.2353(10) 0.7231(3)
H160 H 0.2399 0.2442 0.6980
H161 H 0.2652 0.3148 0.7361
H162 H 0.2378 0.1747 0.7375
N13 N 0.0592(4) -0.0502(7) 0.54362(18)
N14 N 0.0255(4) 0.1039(8) 0.59159(19)
N15 N -0.0061(4) 0.1456(7) 0.52444(19)
N16 N 0.1290(4) 0.1512(7) 0.54955(18)
N17 N 0.2600(4) 0.4513(7) 0.56434(16)
N18 N 0.2726(4) 0.6009(7) 0.6166(2)
N19 N 0.1913(4) 0.6506(7) 0.55846(18)
N20 N 0.3328(4) 0.6422(7) 0.55699(18)
N21 N 0.3311(4) 0.1436(7) 0.50399(18)
N22 N 0.3445(4) 0.0605(7) 0.43974(19)
N23 N 0.4576(4) 0.1461(7) 0.47604(17)
N24 N 0.4014(4) -0.0532(7) 0.49531(17)
S4 S -0.06208(13) -0.4010(2) 0.58586(6)
S5 S 0.34021(14) 0.5736(2) 0.43428(6)
S6 S 0.32069(13) 0.0633(2) 0.62251(5)
O13 O 0.0178(3) -0.4109(6) 0.57651(15)
O14 O -0.1138(3) -0.4806(5) 0.56221(14)
O15 O -0.0887(3) -0.2702(5) 0.58564(13)
O16 O 0.3886(4) 0.6551(6) 0.45939(16)
O17 O 0.3702(4) 0.4452(6) 0.43259(16)
O18 O 0.2588(4) 0.5760(7) 0.44354(17)
O19 O 0.2839(4) -0.0332(7) 0.59902(17)
O20 O 0.2804(4) 0.1805(6) 0.61864(16)
O21 O 0.4030(4) 0.0758(6) 0.61613(16)
O22 O 0.1889(4) 0.7473(8) 0.37808(19)
O23 O 0.0829(3) -0.5696(5) 0.64689(16)
O24 O 0.2898(6) -0.1122(8) 0.7398(2)
Ag5A Ag -0.08013(4) 0.24006(7) 0.472580(17)
Ag5_2 Ag 0.08013(4) 0.74006(7) 0.527420(17)
Ag6A Ag 0.57260(3) 0.25554(6) 0.474470(17)
Ag6_2 Ag 0.42740(3) -0.24446(6) 0.525530(17)
N15A N 0.0061(4) -0.3544(7) 0.47556(19)
N19_2 N 0.1913(4) -0.3494(7) 0.55846(18)
N23A N 0.5424(4) 0.6461(7) 0.52396(17)
N24_2 N 0.4014(4) 0.9468(7) 0.49531(17)
O25 O -0.1763(4) 0.8711(6) 0.53156(15)
O26 O -0.1809(4) 0.3109(6) 0.53264(16)
O27 O 0.4866(4) -0.1306(7) 0.59594(18)
O28 O 0.4403(4) -0.0490(8) 0.35269(18)
O29 O 0.5049(4) 0.1927(9) 0.3369(2)
O30 O 0.4601(4) 0.3260(7) 0.59327(18)
O31 O 0.5031(4) -0.0350(8) 0.8414(2)
O32 O 0.4413(4) 0.2096(8) 0.85470(18)
O33 O 0.4598(4) -0.1643(7) 1.09258(18)
O34 O 0.2772(4) -0.0189(7) 0.36646(18)
O35 O 0.3382(4) -0.3318(7) 0.6930(2)
O36 O 0.1770(4) 0.3369(7) 0.96296(17)
O37 O 0.2789(5) 0.1804(8) 0.86545(18)
O38 O 0.1684(4) -0.2114(7) 0.96706(19)
O39 O 0.5089(4) -0.2125(7) 0.90743(18)
O40 O 0.0463(7) 1.1606(12) 0.6767(4)
O41 O -0.0315(4) 0.6069(7) 0.8221(2)
O42 O 0.6577(6) -0.0157(10) 0.8086(3)
loop_
_geom_bond_atom_site_label_1
_geom_bond_atom_site_label_2
_geom_bond_site_symmetry_1
_geom_bond_site_symmetry_2
Ag1 N1 1_555 1_555
Ag2 N4 1_555 1_555
Ag3 N3 1_555 1_555
C1 H1 1_555 1_555
H2 C1 1_555 1_555
C2 H3 1_555 1_555
H4 C2 1_555 1_555
C3 H5 1_555 1_555
H6 C3 1_555 1_555
C4 H7 1_555 1_555
H8 C4 1_555 1_555
C5 H9 1_555 1_555
H10 C5 1_555 1_555
C6 H11 1_555 1_555
H12 C6 1_555 1_555
C7 H13 1_555 1_555
H14 C7 1_555 1_555
C8 H15 1_555 1_555
H16 C8 1_555 1_555
C9 H17 1_555 1_555
H18 C9 1_555 1_555
C10 H19 1_555 1_555
H20 C10 1_555 1_555
C11 H21 1_555 1_555
H22 C11 1_555 1_555
C12 H23 1_555 1_555
H24 C12 1_555 1_555
C13 H25 1_555 1_555
H26 C13 1_555 1_555
C14 H27 1_555 1_555
H28 C14 1_555 1_555
C15 H29 1_555 1_555
H30 C15 1_555 1_555
C16 H31 1_555 1_555
H32 C16 1_555 1_555
C17 H33 1_555 1_555
H34 C17 1_555 1_555
C18 H35 1_555 1_555
H36 C18 1_555 1_555
C19 H37 1_555 1_555
C20 C19 1_555 1_555
H38 C20 1_555 1_555
H39 C20 1_555 1_555
C21 C20 1_555 1_555
C22 C21 1_555 1_555
C23 C22 1_555 1_555
H40 C23 1_555 1_555
H41 C23 1_555 1_555
C24 C19 1_555 1_555
H42 C24 1_555 1_555
H43 C24 1_555 1_555
C25 C22 1_555 1_555
H44 C25 1_555 1_555
H45 C25 1_555 1_555
C26 C19 1_555 1_555
C27 C26 1_555 1_555
H46 C27 1_555 1_555
H47 C27 1_555 1_555
H48 C27 1_555 1_555
C28 C26 1_555 1_555
H49 C28 1_555 1_555
H50 C28 1_555 1_555
H51 C28 1_555 1_555
C29 H52 1_555 1_555
C30 C29 1_555 1_555
H53 C30 1_555 1_555
H54 C30 1_555 1_555
C31 C30 1_555 1_555
H55 C31 1_555 1_555
H56 C31 1_555 1_555
C32 C31 1_555 1_555
C33 C32 1_555 1_555
C34 C29 1_555 1_555
H57 C34 1_555 1_555
H58 C34 1_555 1_555
C35 C29 1_555 1_555
C36 C32 1_555 1_555
H59 C36 1_555 1_555
H60 C36 1_555 1_555
C37 C35 1_555 1_555
H61 C37 1_555 1_555
H62 C37 1_555 1_555
H63 C37 1_555 1_555
C38 C35 1_555 1_555
H64 C38 1_555 1_555
H65 C38 1_555 1_555
H66 C38 1_555 1_555
C39 H67 1_555 1_555
H68 C39 1_555 1_555
C40 C39 1_555 1_555
H69 C40 1_555 1_555
H70 C40 1_555 1_555
C41 C40 1_555 1_555
H71 C41 1_555 1_555
C42 C41 1_555 1_555
H72 C42 1_555 1_555
H73 C42 1_555 1_555
C43 C42 1_555 1_555
C44 H74 1_555 1_555
H75 C44 1_555 1_555
C45 C41 1_555 1_555
C46 C39 1_555 1_555
C47 C45 1_555 1_555
H76 C47 1_555 1_555
H77 C47 1_555 1_555
H78 C47 1_555 1_555
C48 C45 1_555 1_555
H79 C48 1_555 1_555
H80 C48 1_555 1_555
H81 C48 1_555 1_555
N1 C1 1_555 1_555
N2 C1 1_555 1_555
N3 C3 1_555 1_555
N4 C2 1_555 1_555
N5 C7 1_555 1_555
N6 C8 1_555 1_555
N7 C9 1_555 1_555
N8 Ag1 1_555 1_555
N9 Ag2 1_555 1_555
N10 C15 1_555 1_555
N11 C14 1_555 1_555
N12 C13 1_555 1_555
S1 C25 1_555 1_555
S2 C36 1_555 1_555
S3 C44 1_555 1_555
O1 S2 1_555 1_555
O2 S2 1_555 1_555
O3 Ag3 1_555 1_555
O4 S1 1_555 1_555
O5 S1 1_555 1_555
O6 Ag1 1_555 1_555
O7 S3 1_555 1_555
O8 S3 1_555 1_555
O9 Ag2 1_555 1_555
O10 C21 1_555 1_555
O11 C43 1_555 1_555
O12 C33 1_555 1_555
Ag4 N16 1_555 1_555
Ag5 N13 1_555 1_555
Ag6 N20 1_555 1_555
C49 H82 1_555 1_555
H83 C49 1_555 1_555
C50 H84 1_555 1_555
H85 C50 1_555 1_555
C51 H86 1_555 1_555
H87 C51 1_555 1_555
C52 H88 1_555 1_555
H89 C52 1_555 1_555
C53 H90 1_555 1_555
H91 C53 1_555 1_555
C54 H92 1_555 1_555
H93 C54 1_555 1_555
C55 H94 1_555 1_555
H95 C55 1_555 1_555
C56 H96 1_555 1_555
H97 C56 1_555 1_555
C57 H98 1_555 1_555
H99 C57 1_555 1_555
C58 H100 1_555 1_555
H101 C58 1_555 1_555
C59 H102 1_555 1_555
H103 C59 1_555 1_555
C60 H104 1_555 1_555
H105 C60 1_555 1_555
C61 H106 1_555 1_555
H107 C61 1_555 1_555
C62 H108 1_555 1_555
H109 C62 1_555 1_555
C63 H110 1_555 1_555
H111 C63 1_555 1_555
C64 H112 1_555 1_555
H113 C64 1_555 1_555
C65 H114 1_555 1_555
H115 C65 1_555 1_555
C66 H116 1_555 1_555
H117 C66 1_555 1_555
C67 H118 1_555 1_555
H119 C67 1_555 1_555
C68 C67 1_555 1_555
C69 C68 1_555 1_555
C70 C69 1_555 1_555
H120 C70 1_555 1_555
H121 C70 1_555 1_555
C71 C70 1_555 1_555
H122 C71 1_555 1_555
C72 C71 1_555 1_555
H123 C72 1_555 1_555
H124 C72 1_555 1_555
C73 C68 1_555 1_555
H125 C73 1_555 1_555
H126 C73 1_555 1_555
C74 C68 1_555 1_555
C75 C74 1_555 1_555
H127 C75 1_555 1_555
H128 C75 1_555 1_555
H129 C75 1_555 1_555
C76 C74 1_555 1_555
H130 C76 1_555 1_555
H131 C76 1_555 1_555
H132 C76 1_555 1_555
C77 H133 1_555 1_555
H134 C77 1_555 1_555
C78 C77 1_555 1_555
H135 C78 1_555 1_555
H136 C78 1_555 1_555
C79 H137 1_555 1_555
H138 C79 1_555 1_555
C80 C78 1_555 1_555
C81 C80 1_555 1_555
C82 C81 1_555 1_555
H139 C82 1_555 1_555
H140 C82 1_555 1_555
C83 C77 1_555 1_555
H141 C83 1_555 1_555
C84 C80 1_555 1_555
C85 C84 1_555 1_555
H142 C85 1_555 1_555
H143 C85 1_555 1_555
H144 C85 1_555 1_555
C86 C84 1_555 1_555
H145 C86 1_555 1_555
H146 C86 1_555 1_555
H147 C86 1_555 1_555
C87 H148 1_555 1_555
H149 C87 1_555 1_555
C88 C87 1_555 1_555
C89 C88 1_555 1_555
H150 C89 1_555 1_555
H151 C89 1_555 1_555
C90 C89 1_555 1_555
H152 C90 1_555 1_555
H153 C90 1_555 1_555
C91 C90 1_555 1_555
H154 C91 1_555 1_555
C92 C91 1_555 1_555
H155 C92 1_555 1_555
H156 C92 1_555 1_555
C93 C88 1_555 1_555
C94 C88 1_555 1_555
C95 C94 1_555 1_555
H157 C95 1_555 1_555
H158 C95 1_555 1_555
H159 C95 1_555 1_555
C96 C94 1_555 1_555
H160 C96 1_555 1_555
H161 C96 1_555 1_555
H162 C96 1_555 1_555
N13 C49 1_555 1_555
N14 C49 1_555 1_555
N15 C50 1_555 1_555
N16 C51 1_555 1_555
N17 Ag4 1_555 1_555
N18 C57 1_555 1_555
N19 C55 1_555 1_555
N20 C55 1_555 1_555
N21 Ag4 1_555 1_555
N22 C61 1_555 1_555
N23 C63 1_555 1_555
N24 C62 1_555 1_555
S4 C79 1_555 1_555
S5 C67 1_555 1_555
S6 C87 1_555 1_555
O13 Ag5 1_555 1_555
O14 S4 1_555 1_555
O15 S4 1_555 1_555
O16 Ag6 1_555 1_555
O17 S5 1_555 1_555
O18 S5 1_555 1_555
O19 S6 1_555 1_555
O20 Ag4 1_555 1_555
O21 S6 1_555 1_555
O22 C69 1_555 1_555
O23 C81 1_555 1_555
O24 C93 1_555 1_555
Ag1A N5 1_555 1_555
Ag2_2 N7 1_555 1_555
Ag3A N11 1_555 1_555
Ag3_2 N12 1_555 1_555
N5A Ag1 1_555 1_555
N7_2 Ag2 1_555 1_555
N11A Ag3 1_555 1_555
N12_2 Ag3 1_555 1_555
Ag5A N15 1_555 1_555
Ag5_2 N19 1_555 1_555
Ag6A N23 1_555 1_555
Ag6_2 N24 1_555 1_555
N15A Ag5 1_555 1_555
N19_2 Ag5 1_555 1_555
N23A Ag6 1_555 1_555
N24_2 Ag6 1_555 1_555
C2 N2 1_555 1_555
C3 N2 1_555 1_555
C4 N1 1_555 1_555
C4 N3 1_555 1_555
C5 N3 1_555 1_555
C5 N4 1_555 1_555
C6 N1 1_555 1_555
C6 N4 1_555 1_555
C7 N8 1_555 1_555
C8 N5 1_555 1_555
C9 N5 1_555 1_555
C10 N7 1_555 1_555
C10 N8 1_555 1_555
C11 N6 1_555 1_555
C11 N7 1_555 1_555
C12 N6 1_555 1_555
C12 N8 1_555 1_555
C13 N9 1_555 1_555
C14 N9 1_555 1_555
C15 N9 1_555 1_555
C16 N11 1_555 1_555
C16 N12 1_555 1_555
C17 N10 1_555 1_555
C17 N12 1_555 1_555
C18 N10 1_555 1_555
C18 N11 1_555 1_555
C22 C26 1_555 1_555
C23 C24 1_555 1_555
C32 C35 1_555 1_555
C33 C34 1_555 1_555
C43 C46 1_555 1_555
C44 C46 1_555 1_555
C45 C46 1_555 1_555
S1 O6 1_555 1_555
S2 O3 1_555 1_555
S3 O9 1_555 1_555
C50 N14 1_555 1_555
C51 N15 1_555 1_555
C52 N13 1_555 1_555
C52 N16 1_555 1_555
C53 N13 1_555 1_555
C53 N15 1_555 1_555
C54 N14 1_555 1_555
C54 N16 1_555 1_555
C56 N17 1_555 1_555
C56 N20 1_555 1_555
C57 N17 1_555 1_555
C58 N18 1_555 1_555
C58 N19 1_555 1_555
C59 N17 1_555 1_555
C59 N19 1_555 1_555
C60 N18 1_555 1_555
C60 N20 1_555 1_555
C61 N21 1_555 1_555
C62 N21 1_555 1_555
C63 N21 1_555 1_555
C64 N23 1_555 1_555
C64 N24 1_555 1_555
C65 N22 1_555 1_555
C65 N24 1_555 1_555
C66 N22 1_555 1_555
C66 N23 1_555 1_555
C71 C74 1_555 1_555
C72 C73 1_555 1_555
C79 C80 1_555 1_555
C82 C83 1_555 1_555
C83 C84 1_555 1_555
C91 C94 1_555 1_555
C92 C93 1_555 1_555
S4 O13 1_555 1_555
S5 O16 1_555 1_555
S6 O20 1_555 1_555

#END
