
#######################################################################
#
#                 Cambridge Crystallographic Data Centre
#                                CCDC 
#
#######################################################################
#
# If this CIF has been generated from an entry in the Cambridge 
# Structural Database, then it will include bibliographic, chemical, 
# crystal, experimental, refinement or atomic coordinate data resulting 
# from the CCDC's data processing and validation procedures.
#
#######################################################################

data_AQOHEU
_symmetry_cell_setting           orthorhombic
_symmetry_space_group_name_H-M   'P c c n'
_symmetry_Int_Tables_number      56
_space_group_name_Hall           '-P 2ab 2ac'
loop_
_symmetry_equiv_pos_site_id
_symmetry_equiv_pos_as_xyz
1 x,y,z
2 1/2-x,1/2-y,z
3 -x,1/2+y,1/2-z
4 1/2+x,-y,1/2-z
5 -x,-y,-z
6 1/2+x,1/2+y,-z
7 x,1/2-y,1/2+z
8 1/2-x,y,1/2+z
_cell_length_a                   15.542(3)
_cell_length_b                   8.5675(17)
_cell_length_c                   9.785(2)
_cell_angle_alpha                90
_cell_angle_beta                 90
_cell_angle_gamma                90
_cell_volume                     1302.93
loop_
_atom_site_label
_atom_site_type_symbol
_atom_site_fract_x
_atom_site_fract_y
_atom_site_fract_z
Zn1 Zn 0.395721(17) 0.03484(3) 0.11955(3)
C1 C 0.51089(18) -0.1969(3) 0.2577(3)
H1 H 0.4738 -0.1971 0.3323
C2 C 0.61366(17) -0.2474(3) 0.1278(2)
H2 H 0.6634 -0.2914 0.0916
C3 C 0.22618(16) -0.0924(3) 0.0952(2)
C4 C 0.24819(16) -0.1591(3) 0.2355(2)
H3 H 0.2037 -0.1260 0.3003
O1 O 0.27671(12) 0.0078(2) 0.04291(19)
O2 O 0.32782(11) -0.0940(2) 0.27740(16)
H4 H 0.3493 -0.1055 0.3655
N1 N 0.49929(14) -0.1086(3) 0.1488(2)
N2 N 0.56740(13) -0.1401(2) 0.0640(2)
N3 N 0.58135(14) -0.2859(2) 0.2499(2)
O3 O 0.15945(12) -0.1401(2) 0.03897(18)
Zn1A Zn 0.104279(17) -0.53484(3) 0.11955(3)
Zn1B Zn 0.604279(17) -0.46516(3) 0.38045(3)
Zn1C Zn -0.104279(17) -0.03484(3) 0.38045(3)
Zn1D Zn 0.604279(17) -0.03484(3) -0.11955(3)
Zn1E Zn -0.104279(17) -0.46516(3) -0.11955(3)
C1A C -0.01089(18) -0.3031(3) 0.2577(3)
H1A H 0.0262 -0.3029 0.3323
C2A C -0.11366(17) -0.2526(3) 0.1278(2)
H2A H -0.1634 -0.2086 0.0916
C3A C 0.27382(16) -0.4076(3) 0.0952(2)
C4A C 0.25181(16) -0.3409(3) 0.2355(2)
H3A H 0.2963 -0.3740 0.3003
O1A O 0.22329(12) -0.5078(2) 0.04291(19)
O2A O 0.17218(11) -0.4060(2) 0.27740(16)
H4A H 0.1507 -0.3945 0.3655
N1A N 0.00071(14) -0.3914(3) 0.1488(2)
N2A N -0.06740(13) -0.3599(2) 0.0640(2)
N2D N 0.43260(13) 0.1401(2) -0.0640(2)
N2E N 0.06740(13) -0.6401(2) -0.0640(2)
N3A N -0.08135(14) -0.2141(2) 0.2499(2)
N3B N 0.41865(14) 0.2141(2) 0.2501(2)
N3C N 0.08135(14) -0.7141(2) 0.2501(2)
O3A O 0.34055(12) -0.3599(2) 0.03897(18)
loop_
_geom_bond_atom_site_label_1
_geom_bond_atom_site_label_2
_geom_bond_site_symmetry_1
_geom_bond_site_symmetry_2
Zn1 O1 1_555 1_555
C1 H1 1_555 1_555
C2 H2 1_555 1_555
C3 C4 1_555 1_555
C4 H3 1_555 1_555
O1 C3 1_555 1_555
O2 Zn1 1_555 1_555
H4 O2 1_555 1_555
N1 Zn1 1_555 1_555
N2 C2 1_555 1_555
N3 C1 1_555 1_555
O3 C3 1_555 1_555
Zn1A O1A 1_555 1_555
Zn1B N3 1_555 1_555
Zn1C N3A 1_555 1_555
Zn1D N2 1_555 1_555
Zn1E N2A 1_555 1_555
C1A H1A 1_555 1_555
C2A H2A 1_555 1_555
C3A C4A 1_555 1_555
C4A C4 1_555 1_555
H3A C4A 1_555 1_555
O1A C3A 1_555 1_555
O2A Zn1A 1_555 1_555
H4A O2A 1_555 1_555
N1A Zn1A 1_555 1_555
N2A C2A 1_555 1_555
N2D Zn1 1_555 1_555
N2E Zn1A 1_555 1_555
N3A C1A 1_555 1_555
N3B Zn1 1_555 1_555
N3C Zn1A 1_555 1_555
O3A C3A 1_555 1_555
C1 N1 1_555 1_555
C2 N3 1_555 1_555
C4 O2 1_555 1_555
N1 N2 1_555 1_555
C1A N1A 1_555 1_555
C2A N3A 1_555 1_555
C4A O2A 1_555 1_555
N1A N2A 1_555 1_555

#END
