
#######################################################################
#
#                 Cambridge Crystallographic Data Centre
#                                CCDC 
#
#######################################################################
#
# If this CIF has been generated from an entry in the Cambridge 
# Structural Database, then it will include bibliographic, chemical, 
# crystal, experimental, refinement or atomic coordinate data resulting 
# from the CCDC's data processing and validation procedures.
#
#######################################################################

data_AQOHIX
_symmetry_cell_setting           monoclinic
_symmetry_space_group_name_H-M   'P 21/n'
_symmetry_Int_Tables_number      14
_space_group_name_Hall           '-P 2yn'
loop_
_symmetry_equiv_pos_site_id
_symmetry_equiv_pos_as_xyz
1 x,y,z
2 1/2+x,1/2-y,1/2+z
3 -x,-y,-z
4 1/2-x,1/2+y,1/2-z
_cell_length_a                   9.8376(10)
_cell_length_b                   9.8169(11)
_cell_length_c                   13.1111(14)
_cell_angle_alpha                90
_cell_angle_beta                 104.258(2)
_cell_angle_gamma                90
_cell_volume                     1227.2
loop_
_atom_site_label
_atom_site_type_symbol
_atom_site_fract_x
_atom_site_fract_y
_atom_site_fract_z
La1 La 0.20934(4) 0.20730(4) 0.41218(3)
La2 La -0.26552(4) 0.44617(4) 0.28864(3)
S1 S 0.47141(17) 0.17053(17) 0.24213(13)
S2 S 0.45101(17) 0.28544(16) 0.65947(13)
C1 C 0.0375(7) 0.4372(6) 0.4849(6)
C2 C -0.0497(7) -0.0032(7) 0.4454(5)
O1 O -0.0184(5) 0.3692(5) 0.4068(4)
O2 O 0.1582(5) 0.4100(5) 0.5442(4)
O3 O -0.0210(5) 0.0665(5) 0.3739(4)
O4 O -0.1547(5) -0.0815(5) 0.4309(4)
O5 O 0.2424(7) -0.0504(6) 0.3812(5)
O6 O -0.2941(7) 0.2973(6) 0.4439(5)
O7 O 0.3046(6) 0.4297(5) 0.3713(5)
O8 O 0.4008(6) 0.1591(6) 0.3282(4)
O9 O 0.5950(5) 0.0832(6) 0.2687(4)
O10 O 0.3784(6) 0.1319(6) 0.1414(4)
O11 O 0.5155(5) 0.3133(5) 0.2345(4)
O12 O 0.4260(5) 0.2144(5) 0.5580(4)
O13 O 0.3377(5) 0.2563(5) 0.7120(4)
O14 O 0.5875(5) 0.2413(6) 0.7250(4)
O15 O 0.4519(5) 0.4343(5) 0.6439(4)
C1B C -0.0375(7) 0.5628(6) 0.5151(6)
O1B O 0.0184(5) 0.6308(5) 0.5932(4)
O2B O -0.1582(5) 0.5900(5) 0.4558(4)
C2B C 0.0497(7) 0.0032(7) 0.5546(5)
O3B O 0.0210(5) -0.0665(5) 0.6261(4)
O4B O 0.1547(5) 0.0815(5) 0.5691(4)
S2A S -0.04899(17) 0.21456(16) 0.15947(13)
O12A O -0.0740(5) 0.2856(5) 0.0580(4)
O13A O -0.1623(5) 0.2437(5) 0.2120(4)
O14A O 0.0875(5) 0.2587(6) 0.2250(4)
O15A O -0.0481(5) 0.0657(5) 0.1439(4)
La1B La -0.20934(4) 0.79270(4) 0.58782(3)
La2B La 0.26552(4) 0.55383(4) 0.71136(3)
S1C S 0.02859(17) 0.67053(17) 0.25787(13)
O8C O 0.0992(6) 0.6591(6) 0.1718(4)
O9C O -0.0950(5) 0.5832(6) 0.2313(4)
O10C O 0.1216(6) 0.6319(6) 0.3586(4)
O11C O -0.0155(5) 0.8133(5) 0.2655(4)
O5B O -0.2424(7) 1.0504(6) 0.6188(5)
O7B O -0.3046(6) 0.5703(5) 0.6287(5)
O6B O 0.2941(7) 0.7027(6) 0.5561(5)
O3C O -0.4790(5) 0.5665(5) 0.1261(4)
O4C O -0.3453(5) 0.4185(5) 0.0691(4)
O11_2 O -0.4845(5) 0.3133(5) 0.2345(4)
O13B O -0.3377(5) 0.7437(5) 0.2880(4)
O15B O -0.4519(5) 0.5657(5) 0.3561(4)
La2C La -0.23448(4) -0.05383(4) 0.21136(3)
La1B_2 La -0.20934(4) -0.20730(4) 0.58782(3)
La2C_2 La 0.76552(4) -0.05383(4) 0.21136(3)
La2_2 La 0.73448(4) 0.44617(4) 0.28864(3)
La2A La 0.23448(4) 0.05383(4) 0.78864(3)
La1A La 0.70934(4) 0.29270(4) 0.91218(3)
La1A_2 La -0.29066(4) 0.29270(4) -0.08782(3)
O3B_2 O 0.0210(5) 0.9335(5) 0.6261(4)
O4_2 O -0.1547(5) 0.9185(5) 0.4309(4)
O8B O -0.4008(6) 0.8409(6) 0.6718(4)
O12B O -0.4260(5) 0.7856(5) 0.4420(4)
O14C O -0.0875(5) 0.7413(6) 0.7750(4)
O3A O 0.4790(5) 0.4335(5) 0.8739(4)
O4A O 0.3453(5) 0.5815(5) 0.9309(4)
O9A O 0.0950(5) 0.4168(6) 0.7687(4)
O11B O 0.4845(5) 0.6867(5) 0.7655(4)
O13C O 0.1623(5) 0.7563(5) 0.7880(4)
La1C La 0.29066(4) 0.70730(4) 0.08782(3)
La2C_3 La -0.23448(4) 0.94617(4) 0.21136(3)
loop_
_geom_bond_atom_site_label_1
_geom_bond_atom_site_label_2
_geom_bond_site_symmetry_1
_geom_bond_site_symmetry_2
La1 O1 1_555 1_555
La2 O1 1_555 1_555
S1 O8 1_555 1_555
S2 O12 1_555 1_555
C1 O1 1_555 1_555
C2 O3 1_555 1_555
O2 La1 1_555 1_555
O3 La1 1_555 1_555
O4 C2 1_555 1_555
O5 La1 1_555 1_555
O6 La2 1_555 1_555
O7 La1 1_555 1_555
O8 La1 1_555 1_555
O9 S1 1_555 1_555
O10 S1 1_555 1_555
O11 S1 1_555 1_555
O12 La1 1_555 1_555
O13 S2 1_555 1_555
O14 S2 1_555 1_555
O15 S2 1_555 1_555
C1B C1 1_555 1_555
O1B C1B 1_555 1_555
O2B La2 1_555 1_555
C2B C2 1_555 1_555
O3B C2B 1_555 1_555
O4B La1 1_555 1_555
S2A O12A 1_555 1_555
O12A La1A_2 1_555 1_555
O13A La2 1_555 1_555
O14A La1 1_555 1_555
O15A S2A 1_555 1_555
La1B O1B 1_555 1_555
La2B O2 1_555 1_555
S1C O8C 1_555 1_555
O8C La1C 1_555 1_555
O9C La2 1_555 1_555
O10C S1C 1_555 1_555
O11C S1C 1_555 1_555
O5B La1B 1_555 1_555
O7B La1B 1_555 1_555
O6B La2B 1_555 1_555
O3C La2 1_555 1_555
O4C La2 1_555 1_555
O11_2 La2 1_555 1_555
O13B La2 1_555 1_555
O15B La2 1_555 1_555
La2C O3 1_555 1_555
La1B_2 O4 1_555 1_555
La2C_2 O9 1_555 1_555
La2_2 O11 1_555 1_555
La2A O13 1_555 1_555
La1A O14 1_555 1_555
La1A_2 O4C 1_555 1_555
O3B_2 La1B 1_555 1_555
O4_2 La1B 1_555 1_555
O8B La1B 1_555 1_555
O12B La1B 1_555 1_555
O14C La1B 1_555 1_555
O3A La2B 1_555 1_555
O4A La2B 1_555 1_555
O9A La2B 1_555 1_555
O11B La2B 1_555 1_555
O13C La2B 1_555 1_555
La2C_3 O11C 1_555 1_555
C1 O2 1_555 1_555
O4 La2C 1_555 1_555
O13 La2B 1_555 1_555
O15 La2B 1_555 1_555
C1B O2B 1_555 1_555
O1B La2B 1_555 1_555
O2B La1B 1_555 1_555
C2B O4B 1_555 1_555
O3B La1B_2 1_555 1_555
O3B La2A 1_555 1_555
O4B La2A 1_555 1_555
S2A O13A 1_555 1_555
S2A O14A 1_555 1_555
O13A La2C 1_555 1_555
O15A La2C 1_555 1_555
S1C O9C 1_555 1_555
O13B La2C_3 1_555 1_555
La1A O3A 1_555 1_555
O4_2 La2C_3 1_555 1_555

#END
