
#######################################################################
#
#                 Cambridge Crystallographic Data Centre
#                                CCDC 
#
#######################################################################
#
# If this CIF has been generated from an entry in the Cambridge 
# Structural Database, then it will include bibliographic, chemical, 
# crystal, experimental, refinement or atomic coordinate data resulting 
# from the CCDC's data processing and validation procedures.
#
#######################################################################

data_AQOHAQ
_symmetry_cell_setting           monoclinic
_symmetry_space_group_name_H-M   'P 21/c'
_symmetry_Int_Tables_number      14
_space_group_name_Hall           '-P 2ybc'
loop_
_symmetry_equiv_pos_site_id
_symmetry_equiv_pos_as_xyz
1 x,y,z
2 -x,1/2+y,1/2-z
3 -x,-y,-z
4 x,1/2-y,1/2+z
_cell_length_a                   9.1238(18)
_cell_length_b                   9.4414(19)
_cell_length_c                   9.6790(19)
_cell_angle_alpha                90
_cell_angle_beta                 98.54(3)
_cell_angle_gamma                90
_cell_volume                     824.519
loop_
_atom_site_label
_atom_site_type_symbol
_atom_site_fract_x
_atom_site_fract_y
_atom_site_fract_z
Zn1 Zn 0.65826(2) 0.05764(2) 0.640094(18)
C1 C 0.32720(17) -0.24354(18) 0.60883(16)
H1 H 0.2493 -0.2951 0.5600
C2 C 0.49560(18) -0.17408(18) 0.76600(16)
H2 H 0.5597 -0.1669 0.8499
C3 C 0.93454(19) 0.03362(18) 0.74071(18)
C4 C 1.08767(19) -0.0017(2) 0.8152(2)
H3 H 1.1285 -0.0769 0.7642
H4 H 1.0785 -0.0380 0.9073
C5 C 1.19733(19) 0.1213(2) 0.83193(19)
H5 H 1.2961 0.0836 0.8606
H6 H 1.1964 0.1660 0.7415
O1 O 0.91564(15) 0.11366(17) 0.63682(14)
O2 O 0.82406(14) -0.02360(14) 0.78275(14)
O3 O 1.02632(14) 0.24492(15) 0.94668(14)
H7 H 1.0158 0.3068 1.0038
N1 N 0.49845(15) -0.08771(14) 0.65956(14)
N2 N 0.38815(14) -0.13283(15) 0.55682(13)
N3 N 0.38982(15) -0.27380(15) 0.74000(14)
C6 C 1.16785(19) 0.23278(19) 0.93517(18)
O4 O 1.26345(15) 0.30611(16) 0.99961(14)
Zn1B Zn 0.34174(2) -0.05764(2) 0.359906(18)
Zn1A Zn 0.34174(2) -0.44236(2) 0.859906(18)
N2B N 0.61185(14) 0.13283(15) 0.44318(13)
N3A N 0.61018(15) 0.22620(15) 0.76000(14)
loop_
_geom_bond_atom_site_label_1
_geom_bond_atom_site_label_2
_geom_bond_site_symmetry_1
_geom_bond_site_symmetry_2
Zn1 O1 1_555 1_555
C1 H1 1_555 1_555
C2 H2 1_555 1_555
C3 C4 1_555 1_555
C4 H3 1_555 1_555
H4 C4 1_555 1_555
C5 C4 1_555 1_555
H5 C5 1_555 1_555
H6 C5 1_555 1_555
O1 C3 1_555 1_555
O2 Zn1 1_555 1_555
O3 H7 1_555 1_555
N1 Zn1 1_555 1_555
N2 C1 1_555 1_555
N3 C1 1_555 1_555
C6 C5 1_555 1_555
O4 C6 1_555 1_555
Zn1B N2 1_555 1_555
Zn1A N3 1_555 1_555
N2B Zn1 1_555 1_555
N3A Zn1 1_555 1_555
C2 N1 1_555 1_555
C2 N3 1_555 1_555
C3 O2 1_555 1_555
O3 C6 1_555 1_555
N1 N2 1_555 1_555

#END
