
#######################################################################
#
#                 Cambridge Crystallographic Data Centre
#                                CCDC 
#
#######################################################################
#
# If this CIF has been generated from an entry in the Cambridge 
# Structural Database, then it will include bibliographic, chemical, 
# crystal, experimental, refinement or atomic coordinate data resulting 
# from the CCDC's data processing and validation procedures.
#
#######################################################################

data_AQOHOD
_symmetry_cell_setting           monoclinic
_symmetry_space_group_name_H-M   'C 2/c'
_symmetry_Int_Tables_number      15
_space_group_name_Hall           '-C 2yn'
loop_
_symmetry_equiv_pos_site_id
_symmetry_equiv_pos_as_xyz
1 x,y,z
2 1/2+x,1/2+y,z
3 x,-y,1/2+z
4 1/2+x,1/2-y,1/2+z
5 -x,-y,-z
6 1/2-x,1/2-y,-z
7 -x,y,1/2-z
8 1/2-x,1/2+y,1/2-z
_cell_length_a                   19.884(16)
_cell_length_b                   13.967(13)
_cell_length_c                   11.681(10)
_cell_angle_alpha                90
_cell_angle_beta                 111.38(4)
_cell_angle_gamma                90
_cell_volume                     3020.8
loop_
_atom_site_label
_atom_site_type_symbol
_atom_site_fract_x
_atom_site_fract_y
_atom_site_fract_z
Ag1 Ag 0.33741(2) 0.17626(2) 0.12391(3)
N1 N 0.3684(2) 0.2303(2) 0.3174(3)
C1 C 0.3797(2) 0.1786(3) 0.4141(3)
C2 C 0.3734(2) 0.3380(3) 0.4862(4)
C3 C 0.3914(2) 0.0733(3) 0.4218(3)
C4 C 0.3684(2) 0.0147(3) 0.4977(3)
H1 H 0.3464(2) 0.0434(3) 0.5467(3)
O1 O 0.3963(3) 0.2003(3) 0.6241(3)
N2 N 0.3828(2) 0.2330(2) 0.5163(3)
C5 C 0.3586(3) 0.3343(3) 0.3443(4)
C6 C 0.4253(2) 0.0284(3) 0.3493(3)
H2 H 0.4416(2) 0.0647(3) 0.2979(3)
C7 C 0.4342(2) -0.0696(3) 0.3550(4)
H3 H 0.4569(2) -0.0999(3) 0.3080(4)
C8 C 0.4117(5) 0.3927(5) 0.3048(6)
H4 H 0.4603(5) 0.3761(5) 0.3556(6)
H5 H 0.4040(5) 0.4597(5) 0.3135(6)
H6 H 0.4040(5) 0.3789(5) 0.2204(6)
N3 N 0.3767(2) -0.0816(2) 0.5034(3)
O2 O 0.2036(3) 0.1851(3) 0.0289(4)
C9 C 0.4090(2) -0.1225(3) 0.4316(4)
H7 H 0.4144(2) -0.1887(3) 0.4336(4)
C10 C 0.2801(4) 0.3589(5) 0.2648(6)
H8 H 0.2479(4) 0.3215(5) 0.2912(6)
H9 H 0.2716(4) 0.3449(5) 0.1802(6)
H10 H 0.2716(4) 0.4258(5) 0.2733(6)
N4 N 0.1783(2) 0.1384(3) 0.0941(4)
O3 O 0.2241(3) 0.0942(4) 0.1798(5)
C11 C 0.3118(4) 0.3755(4) 0.5233(6)
H11 H 0.2677(4) 0.3437(4) 0.4755(6)
H12 H 0.3065(4) 0.4432(4) 0.5086(6)
H13 H 0.3227(4) 0.3630(4) 0.6090(6)
C12 C 0.4422(3) 0.3901(5) 0.5639(5)
H14 H 0.4818(3) 0.3679(5) 0.5425(5)
H15 H 0.4522(3) 0.3775(5) 0.6493(5)
H16 H 0.4360(3) 0.4577(5) 0.5489(5)
O4 O 0.1156(3) 0.1370(4) 0.0762(8)
N3B N 0.3767(2) 0.0816(2) 0.0034(3)
O2E O 0.2964(3) 0.3149(3) -0.0289(4)
Ag1B Ag 0.33741(2) -0.17626(2) 0.62391(3)
Ag1E Ag 0.16259(2) 0.32374(2) -0.12391(3)
loop_
_geom_bond_atom_site_label_1
_geom_bond_atom_site_label_2
_geom_bond_site_symmetry_1
_geom_bond_site_symmetry_2
Ag1 N1 1_555 1_555
N1 C1 1_555 1_555
C1 C3 1_555 1_555
C2 N2 1_555 1_555
C3 C4 1_555 1_555
C4 H1 1_555 1_555
O1 N2 1_555 1_555
N2 C1 1_555 1_555
C5 N1 1_555 1_555
C6 C3 1_555 1_555
H2 C6 1_555 1_555
C7 C6 1_555 1_555
H3 C7 1_555 1_555
C8 C5 1_555 1_555
H4 C8 1_555 1_555
H5 C8 1_555 1_555
H6 C8 1_555 1_555
N3 C4 1_555 1_555
O2 Ag1 1_555 1_555
C9 C7 1_555 1_555
H7 C9 1_555 1_555
C10 C5 1_555 1_555
H8 C10 1_555 1_555
H9 C10 1_555 1_555
H10 C10 1_555 1_555
N4 O2 1_555 1_555
O3 N4 1_555 1_555
C11 C2 1_555 1_555
H11 C11 1_555 1_555
H12 C11 1_555 1_555
H13 C11 1_555 1_555
C12 C2 1_555 1_555
H14 C12 1_555 1_555
H15 C12 1_555 1_555
H16 C12 1_555 1_555
O4 N4 1_555 1_555
N3B Ag1 1_555 1_555
O2E Ag1 1_555 1_555
Ag1B N3 1_555 1_555
Ag1E O2 1_555 1_555
C2 C5 1_555 1_555
N3 C9 1_555 1_555
O2E Ag1E 1_555 1_555

#END
