
#######################################################################
#
#                 Cambridge Crystallographic Data Centre
#                                CCDC 
#
#######################################################################
#
# If this CIF has been generated from an entry in the Cambridge 
# Structural Database, then it will include bibliographic, chemical, 
# crystal, experimental, refinement or atomic coordinate data resulting 
# from the CCDC's data processing and validation procedures.
#
#######################################################################

data_AQOJUL01
_symmetry_cell_setting           monoclinic
_symmetry_space_group_name_H-M   'P 21/n'
_symmetry_Int_Tables_number      14
_space_group_name_Hall           '-P 2yn'
loop_
_symmetry_equiv_pos_site_id
_symmetry_equiv_pos_as_xyz
1 x,y,z
2 1/2-x,1/2+y,1/2-z
3 -x,-y,-z
4 1/2+x,1/2-y,1/2+z
_cell_length_a                   6.8713(8)
_cell_length_b                   14.8689(17)
_cell_length_c                   7.9078(9)
_cell_angle_alpha                90
_cell_angle_beta                 102.9300(10)
_cell_angle_gamma                90
_cell_volume                     787.444
loop_
_atom_site_label
_atom_site_type_symbol
_atom_site_fract_x
_atom_site_fract_y
_atom_site_fract_z
Cd1 Cd 0.24760(4) 1.221331(16) 0.61120(3)
N1 N 0.2511(5) 1.08848(19) 0.4628(4)
O1 O 0.2848(4) 0.83809(17) 0.7125(3)
O2 O 0.1046(4) 0.78188(15) 0.4610(3)
O3 O 0.1398(4) 0.82600(18) 0.0540(3)
O4 O 0.4187(4) 0.79079(17) 0.2432(4)
O5 O 0.2274(4) 1.13573(17) 0.8609(3)
H1 H 0.2262 1.0787 0.8544
H2 H 0.2221 1.1614 0.9558
C1 C 0.2435(5) 1.0091(2) 0.5433(5)
H3 H 0.2402 1.0094 0.6602
C2 C 0.2406(5) 0.9274(2) 0.4603(5)
C3 C 0.2553(5) 0.9265(2) 0.2860(5)
C4 C 0.2640(6) 1.0078(2) 0.2040(5)
H4 H 0.2724 1.0095 0.0883
C5 C 0.2601(6) 1.0873(2) 0.2956(5)
H5 H 0.2640 1.1417 0.2385
C6 C 0.2087(5) 0.8422(2) 0.5534(5)
C7 C 0.2727(6) 0.8405(2) 0.1902(5)
Cd1A Cd 0.25240(4) 0.721331(16) -0.11120(3)
Cd1A_2 Cd 0.25240(4) 0.721331(16) 0.88880(3)
Cd1B Cd -0.24760(4) 0.778669(16) 0.38880(3)
Cd1B_2 Cd 0.75240(4) 0.778669(16) 0.38880(3)
O1A O 0.2152(4) 1.33809(17) 0.7875(3)
O2B O -0.1046(4) 1.21812(15) 0.5390(3)
O3A O 0.3602(4) 1.32600(18) 0.4460(3)
O4B O 0.5813(4) 1.20921(17) 0.7568(4)
loop_
_geom_bond_atom_site_label_1
_geom_bond_atom_site_label_2
_geom_bond_site_symmetry_1
_geom_bond_site_symmetry_2
Cd1 N1 1_555 1_555
N1 C1 1_555 1_555
O1 C6 1_555 1_555
O2 C6 1_555 1_555
O3 C7 1_555 1_555
O4 C7 1_555 1_555
O5 Cd1 1_555 1_555
H1 O5 1_555 1_555
H2 O5 1_555 1_555
C1 H3 1_555 1_555
C2 C1 1_555 1_555
C3 C2 1_555 1_555
C4 C3 1_555 1_555
H4 C4 1_555 1_555
C5 N1 1_555 1_555
H5 C5 1_555 1_555
C6 C2 1_555 1_555
C7 C3 1_555 1_555
Cd1A O3 1_555 1_555
Cd1A_2 O1 1_555 1_555
Cd1B O2 1_555 1_555
Cd1B_2 O4 1_555 1_555
O1A Cd1 1_555 1_555
O2B Cd1 1_555 1_555
O3A Cd1 1_555 1_555
O4B Cd1 1_555 1_555
C4 C5 1_555 1_555

#END
