
#######################################################################
#
#                 Cambridge Crystallographic Data Centre
#                                CCDC 
#
#######################################################################
#
# If this CIF has been generated from an entry in the Cambridge 
# Structural Database, then it will include bibliographic, chemical, 
# crystal, experimental, refinement or atomic coordinate data resulting 
# from the CCDC's data processing and validation procedures.
#
#######################################################################

data_AQOJUL
_symmetry_cell_setting           monoclinic
_symmetry_space_group_name_H-M   'P 21/n'
_symmetry_Int_Tables_number      14
_space_group_name_Hall           '-P 2yn'
loop_
_symmetry_equiv_pos_site_id
_symmetry_equiv_pos_as_xyz
1 x,y,z
2 1/2-x,1/2+y,1/2-z
3 -x,-y,-z
4 1/2+x,1/2-y,1/2+z
_cell_length_a                   6.8793(10)
_cell_length_b                   14.906(2)
_cell_length_c                   7.9109(12)
_cell_angle_alpha                90
_cell_angle_beta                 103.103(3)
_cell_angle_gamma                90
_cell_volume                     790.086
loop_
_atom_site_label
_atom_site_type_symbol
_atom_site_fract_x
_atom_site_fract_y
_atom_site_fract_z
Cd1 Cd 0.24899(17) 0.27880(7) 0.11111(13)
N1 N 0.2523(19) 0.4116(8) -0.0380(17)
C1 C 0.262(3) 0.4910(11) -0.2939(18)
H1 H 0.2675 0.4891 -0.4103
C2 C 0.2554(19) 0.5729(9) -0.2128(18)
C3 C 0.209(2) 0.6574(10) 0.0512(18)
C4 C 0.261(2) 0.4146(10) -0.2048(17)
H2 H 0.2673 0.3606 -0.2623
C5 C 0.239(2) 0.5733(10) -0.0424(18)
C6 C 0.272(3) 0.6598(10) -0.3112(18)
C7 C 0.246(2) 0.4903(9) 0.0434(19)
H3 H 0.2458 0.4899 0.1609
O1 O 0.1324(16) 0.6744(7) -0.4477(12)
O2 O 0.2846(17) 0.6613(7) 0.2123(13)
O3 O 0.4189(16) 0.7088(7) -0.2594(14)
O4 O 0.1026(15) 0.7179(7) -0.0400(12)
O5 O 0.2281(16) 0.3645(7) 0.3648(13)
O1A O 0.3676(16) 0.1744(7) -0.0523(12)
O2A O 0.2154(17) 0.1613(7) 0.2877(13)
O3B O 0.5811(16) 0.2912(7) 0.2594(14)
O4B O -0.1026(15) 0.2821(7) 0.0400(12)
Cd1A Cd 0.25101(17) 0.77880(7) -0.61111(13)
Cd1A_2 Cd 0.25101(17) 0.77880(7) 0.38889(13)
Cd1B Cd 0.75101(17) 0.72120(7) -0.11111(13)
Cd1B_2 Cd -0.24899(17) 0.72120(7) -0.11111(13)
loop_
_geom_bond_atom_site_label_1
_geom_bond_atom_site_label_2
_geom_bond_site_symmetry_1
_geom_bond_site_symmetry_2
Cd1 N1 1_555 1_555
N1 C4 1_555 1_555
C1 H1 1_555 1_555
C2 C1 1_555 1_555
C3 C5 1_555 1_555
C4 C1 1_555 1_555
H2 C4 1_555 1_555
C5 C2 1_555 1_555
C6 C2 1_555 1_555
C7 N1 1_555 1_555
H3 C7 1_555 1_555
O1 C6 1_555 1_555
O2 C3 1_555 1_555
O3 C6 1_555 1_555
O4 C3 1_555 1_555
O5 Cd1 1_555 1_555
O1A Cd1 1_555 1_555
O2A Cd1 1_555 1_555
O3B Cd1 1_555 1_555
O4B Cd1 1_555 1_555
Cd1A O1 1_555 1_555
Cd1A_2 O2 1_555 1_555
Cd1B O3 1_555 1_555
Cd1B_2 O4 1_555 1_555
C5 C7 1_555 1_555

#END
