
#######################################################################
#
#                 Cambridge Crystallographic Data Centre
#                                CCDC 
#
#######################################################################
#
# If this CIF has been generated from an entry in the Cambridge 
# Structural Database, then it will include bibliographic, chemical, 
# crystal, experimental, refinement or atomic coordinate data resulting 
# from the CCDC's data processing and validation procedures.
#
#######################################################################

data_AQOJOF
_symmetry_cell_setting           monoclinic
_symmetry_space_group_name_H-M   'C 2/c'
_symmetry_Int_Tables_number      15
_space_group_name_Hall           '-C 2yn'
loop_
_symmetry_equiv_pos_site_id
_symmetry_equiv_pos_as_xyz
1 x,y,z
2 1/2+x,1/2+y,z
3 x,-y,1/2+z
4 1/2+x,1/2-y,1/2+z
5 -x,-y,-z
6 1/2-x,1/2-y,-z
7 -x,y,1/2-z
8 1/2-x,1/2+y,1/2-z
_cell_length_a                   10.209(2)
_cell_length_b                   12.318(3)
_cell_length_c                   7.5300(17)
_cell_angle_alpha                90
_cell_angle_beta                 106.248(4)
_cell_angle_gamma                90
_cell_volume                     909.11
loop_
_atom_site_label
_atom_site_type_symbol
_atom_site_fract_x
_atom_site_fract_y
_atom_site_fract_z
Cd1 Cd 0.5000 0.16036(8) 0.2500
N1 N 0.5000 0.3490(8) 0.2500
C1 C 0.2546(10) 0.5757(7) 0.2650(13)
C2 C 0.3841(8) 0.5185(7) 0.2593(12)
C3 C 0.5000 0.5754(12) 0.2500
H1 H 0.5000 0.6509 0.2500
C4 C 0.3905(9) 0.4060(7) 0.2622(12)
H2 H 0.3146 0.3677 0.2732
O1 O 0.2559(7) 0.6759(5) 0.2857(10)
O2 O 0.1502(6) 0.5198(5) 0.2480(9)
O3 O 0.4521(6) 0.1708(6) -0.0633(9)
C2F C 0.6159(8) 0.5185(7) 0.2407(12)
C1F C 0.7454(10) 0.5757(7) 0.2350(13)
O1F O 0.7441(7) 0.6759(5) 0.2143(10)
O2F O 0.8498(6) 0.5198(5) 0.2520(9)
C4F C 0.6095(9) 0.4060(7) 0.2378(12)
H2F H 0.6854 0.3677 0.2268
O3F O 0.5479(6) 0.1708(6) 0.5633(9)
O1A O 0.7559(7) 0.1759(5) 0.2857(10)
O1G O 0.2441(7) 0.1759(5) 0.2143(10)
O2A O 0.6502(6) 0.0198(5) 0.2480(9)
O2G O 0.3498(6) 0.0198(5) 0.2520(9)
Cd1A Cd 0.0000 0.66036(8) 0.2500
Cd1A_2 Cd 1.0000 0.66036(8) 0.2500
loop_
_geom_bond_atom_site_label_1
_geom_bond_atom_site_label_2
_geom_bond_site_symmetry_1
_geom_bond_site_symmetry_2
Cd1 N1 1_555 1_555
N1 C4 1_555 1_555
C1 C2 1_555 1_555
C2 C3 1_555 1_555
C3 H1 1_555 1_555
C4 C2 1_555 1_555
H2 C4 1_555 1_555
O1 C1 1_555 1_555
O2 C1 1_555 1_555
O3 Cd1 1_555 1_555
C2F C3 1_555 1_555
C1F C2F 1_555 1_555
O1F C1F 1_555 1_555
O2F C1F 1_555 1_555
C4F N1 1_555 1_555
H2F C4F 1_555 1_555
O3F Cd1 1_555 1_555
O1A Cd1 1_555 1_555
O1G Cd1 1_555 1_555
O2A Cd1 1_555 1_555
O2G Cd1 1_555 1_555
Cd1A O1 1_555 1_555
Cd1A_2 O1F 1_555 1_555
O2 Cd1A 1_555 1_555
C2F C4F 1_555 1_555
O2F Cd1A_2 1_555 1_555

#END
