
#######################################################################
#
#                 Cambridge Crystallographic Data Centre
#                                CCDC 
#
#######################################################################
#
# If this CIF has been generated from an entry in the Cambridge 
# Structural Database, then it will include bibliographic, chemical, 
# crystal, experimental, refinement or atomic coordinate data resulting 
# from the CCDC's data processing and validation procedures.
#
#######################################################################

data_AQOPUS
_symmetry_cell_setting           monoclinic
_symmetry_space_group_name_H-M   'P 21/c'
_symmetry_Int_Tables_number      14
_space_group_name_Hall           '-P 2ybc'
loop_
_symmetry_equiv_pos_site_id
_symmetry_equiv_pos_as_xyz
1 x,y,z
2 -x,1/2+y,1/2-z
3 -x,-y,-z
4 x,1/2-y,1/2+z
_cell_length_a                   10.106(2)
_cell_length_b                   20.726(4)
_cell_length_c                   16.394(3)
_cell_angle_alpha                90
_cell_angle_beta                 93.71(3)
_cell_angle_gamma                90
_cell_volume                     3426.64
loop_
_atom_site_label
_atom_site_type_symbol
_atom_site_fract_x
_atom_site_fract_y
_atom_site_fract_z
Zn1 Zn 0.10292(6) 0.54071(2) 0.04313(4)
Zn2 Zn 0.68576(6) 0.10799(2) 0.10656(4)
N1 N 0.2558(4) 0.59640(19) 0.0912(3)
O1 O 0.1941(5) 0.45355(18) 0.0396(3)
O2 O 0.0428(4) 0.39260(18) -0.0266(3)
O3 O 0.4404(6) 0.1215(2) 0.0562(3)
O4 O 0.5746(4) 0.18210(18) 0.1318(3)
O5 O 0.2523(5) 0.6723(2) -0.4694(3)
O6 O 0.2557(5) 0.5710(2) -0.5050(3)
O7 O 0.1395(5) 0.5569(2) -0.0752(3)
O8 O -0.0098(5) 0.4936(2) -0.1399(3)
C1 C 0.2555(6) 0.6601(2) 0.0784(4)
H1 H 0.1827 0.6783 0.0493
C2 C 0.3567(6) 0.7001(2) 0.1059(4)
H2 H 0.3531 0.7440 0.0945
C3 C 0.3628(6) 0.5719(3) 0.1329(4)
H3 H 0.3665 0.5275 0.1413
C4 C 0.4664(6) 0.6085(2) 0.1634(4)
H4 H 0.5381 0.5894 0.1925
C5 C 0.4637(5) 0.6742(2) 0.1506(3)
C6 C 0.5754(6) 0.7166(2) 0.1820(3)
C7 C 0.6671(6) 0.8148(2) 0.1951(3)
C8 C 0.7817(5) 0.7273(2) 0.2379(4)
C9 C 0.6595(6) 0.8862(2) 0.1844(4)
C10 C 0.5609(6) 0.9139(3) 0.1361(4)
H5 H 0.4928 0.8889 0.1119
C11 C 0.5633(6) 0.9803(2) 0.1232(4)
H6 H 0.4965 0.9989 0.0893
C12 C 0.7540(8) 0.9257(3) 0.2226(4)
H7 H 0.8202 0.9085 0.2582
C13 C 0.7485(7) 0.9911(3) 0.2070(4)
H8 H 0.8128 1.0175 0.2329
C14 C 0.9058(5) 0.6983(2) 0.2743(4)
C15 C 0.9041(6) 0.6479(2) 0.3305(4)
H9 H 0.8240 0.6315 0.3463
C16 C 1.0200(6) 0.6233(3) 0.3615(4)
H10 H 1.0180 0.5904 0.4000
C17 C 1.0283(7) 0.7206(4) 0.2546(5)
H11 H 1.0342 0.7554 0.2192
C18 C 1.1403(7) 0.6918(3) 0.2871(5)
H12 H 1.2216 0.7067 0.2713
C19 C 0.1499(7) 0.4008(2) 0.0119(4)
C20 C 0.2370(6) 0.3422(2) 0.0301(4)
C21 C 0.3556(7) 0.3468(3) 0.0757(4)
H13 H 0.3861 0.3871 0.0935
C22 C 0.4303(7) 0.2926(3) 0.0954(4)
H14 H 0.5093 0.2964 0.1275
C23 C 0.3875(6) 0.2329(2) 0.0675(4)
C24 C 0.2706(7) 0.2285(3) 0.0204(4)
H15 H 0.2424 0.1885 0.0001
C25 C 0.1945(6) 0.2825(3) 0.0026(4)
H16 H 0.1142 0.2786 -0.0281
C26 C 0.4699(6) 0.1747(3) 0.0863(4)
C27 C 0.2396(8) 0.6157(3) -0.4541(4)
C28 C 0.2014(8) 0.5948(3) -0.3708(4)
C29 C 0.1446(8) 0.5372(3) -0.3593(4)
H17 H 0.1309 0.5097 -0.4038
C30 C 0.1061(8) 0.5175(3) -0.2853(4)
H18 H 0.0641 0.4778 -0.2807
C31 C 0.1289(8) 0.5558(3) -0.2175(4)
C32 C 0.1891(8) 0.6132(3) -0.2274(4)
H19 H 0.2068 0.6400 -0.1825
C33 C 0.2246(8) 0.6326(3) -0.3042(4)
H20 H 0.2652 0.6725 -0.3099
C34 C 0.0830(9) 0.5336(3) -0.1376(4)
N2 N 0.6569(5) 1.01794(19) 0.1575(3)
N3 N 1.1398(4) 0.64441(19) 0.3392(3)
N4 N 0.5612(4) 0.77972(18) 0.1709(3)
N5 N 0.7812(5) 0.7909(2) 0.2275(3)
N6 N 0.6825(4) 0.6876(2) 0.2176(3)
Zn1B Zn -0.10292(6) 0.45929(2) -0.04313(4)
Zn2A Zn 0.31424(6) 0.60799(2) -0.60656(4)
Zn2_2 Zn 0.68576(6) 1.10799(2) 0.10656(4)
Zn2A_2 Zn 1.31424(6) 0.60799(2) 0.39344(4)
O2B O -0.0428(4) 0.60740(18) 0.0266(3)
O6A O 0.7443(5) 0.0710(2) 0.0050(3)
O8B O 0.0098(5) 0.5064(2) 0.1399(3)
N2_2 N 0.6569(5) 0.01794(19) 0.1575(3)
N3A N 0.8602(4) 0.14441(19) 0.1608(3)
O9 O 0.8075(14) 0.9330(4) 0.0048(7)
H21 H 0.801(18) 0.9745(14) 0.008(8)
H22 H 0.796(18) 0.913(5) -0.041(4)
loop_
_geom_bond_atom_site_label_1
_geom_bond_atom_site_label_2
_geom_bond_site_symmetry_1
_geom_bond_site_symmetry_2
Zn1 N1 1_555 1_555
Zn2 O4 1_555 1_555
N1 C1 1_555 1_555
O1 Zn1 1_555 1_555
O2 C19 1_555 1_555
O3 C26 1_555 1_555
O4 C26 1_555 1_555
O5 C27 1_555 1_555
O6 C27 1_555 1_555
O7 Zn1 1_555 1_555
O8 C34 1_555 1_555
C1 H1 1_555 1_555
C2 C1 1_555 1_555
H2 C2 1_555 1_555
C3 N1 1_555 1_555
H3 C3 1_555 1_555
C4 C3 1_555 1_555
H4 C4 1_555 1_555
C5 C2 1_555 1_555
C6 C5 1_555 1_555
C7 C9 1_555 1_555
C8 C14 1_555 1_555
C9 C10 1_555 1_555
C10 H5 1_555 1_555
C11 C10 1_555 1_555
H6 C11 1_555 1_555
C12 C9 1_555 1_555
H7 C12 1_555 1_555
C13 C12 1_555 1_555
H8 C13 1_555 1_555
C14 C15 1_555 1_555
C15 H9 1_555 1_555
C16 C15 1_555 1_555
H10 C16 1_555 1_555
C17 C14 1_555 1_555
H11 C17 1_555 1_555
C18 C17 1_555 1_555
H12 C18 1_555 1_555
C19 O1 1_555 1_555
C20 C19 1_555 1_555
C21 C20 1_555 1_555
H13 C21 1_555 1_555
C22 C21 1_555 1_555
H14 C22 1_555 1_555
C23 C22 1_555 1_555
C24 C23 1_555 1_555
H15 C24 1_555 1_555
C25 C20 1_555 1_555
H16 C25 1_555 1_555
C26 C23 1_555 1_555
C27 C28 1_555 1_555
C28 C29 1_555 1_555
C29 H17 1_555 1_555
C30 C29 1_555 1_555
H18 C30 1_555 1_555
C31 C30 1_555 1_555
C32 C31 1_555 1_555
H19 C32 1_555 1_555
C33 C28 1_555 1_555
H20 C33 1_555 1_555
C34 O7 1_555 1_555
N2 C11 1_555 1_555
N3 C16 1_555 1_555
N4 C6 1_555 1_555
N5 C7 1_555 1_555
N6 C6 1_555 1_555
O9 H21 1_555 1_555
H22 O9 1_555 1_555
Zn1B O2 1_555 1_555
Zn2A O6 1_555 1_555
Zn2_2 N2 1_555 1_555
Zn2A_2 N3 1_555 1_555
O2B Zn1 1_555 1_555
O6A Zn2 1_555 1_555
O8B Zn1 1_555 1_555
N2_2 Zn2 1_555 1_555
N3A Zn2 1_555 1_555
O8 Zn1B 1_555 1_555
C4 C5 1_555 1_555
C7 N4 1_555 1_555
C8 N5 1_555 1_555
C8 N6 1_555 1_555
C13 N2 1_555 1_555
C18 N3 1_555 1_555
C24 C25 1_555 1_555
C31 C34 1_555 1_555
C32 C33 1_555 1_555

#END
