
#######################################################################
#
#                 Cambridge Crystallographic Data Centre
#                                CCDC 
#
#######################################################################
#
# If this CIF has been generated from an entry in the Cambridge 
# Structural Database, then it will include bibliographic, chemical, 
# crystal, experimental, refinement or atomic coordinate data resulting 
# from the CCDC's data processing and validation procedures.
#
#######################################################################

data_AQOPOM
_symmetry_cell_setting           monoclinic
_symmetry_space_group_name_H-M   'C 2/c'
_symmetry_Int_Tables_number      15
_space_group_name_Hall           '-C 2yn'
loop_
_symmetry_equiv_pos_site_id
_symmetry_equiv_pos_as_xyz
1 x,y,z
2 -x,y,1/2-z
3 1/2+x,1/2+y,z
4 1/2-x,1/2+y,1/2-z
5 -x,-y,-z
6 x,-y,1/2+z
7 1/2-x,1/2-y,-z
8 1/2+x,1/2-y,1/2+z
_cell_length_a                   15.264(3)
_cell_length_b                   12.908(3)
_cell_length_c                   24.867(5)
_cell_angle_alpha                90
_cell_angle_beta                 99.40(3)
_cell_angle_gamma                90
_cell_volume                     4833.7
loop_
_atom_site_label
_atom_site_type_symbol
_atom_site_fract_x
_atom_site_fract_y
_atom_site_fract_z
Zn1 Zn -0.12046(2) 1.25137(2) -0.014197(12)
C1 C 0.0287(2) 1.2988(2) -0.03925(12)
C2 C 0.11592(19) 1.3379(2) -0.05072(11)
C3 C 0.13647(19) 1.44255(19) -0.04413(10)
H1 H 0.0942 1.4884 -0.0351
C4 C 0.21901(18) 1.47910(19) -0.05082(10)
C5 C 0.2810(2) 1.4106(2) -0.06499(13)
H2 H 0.3369 1.4346 -0.0693
C6 C 0.2606(2) 1.3065(2) -0.07290(14)
H3 H 0.3023 1.2610 -0.0829
C7 C 0.1781(2) 1.2708(2) -0.06587(13)
H4 H 0.1642 1.2010 -0.0714
C8 C 0.2419(2) 1.59161(19) -0.04067(10)
C9 C -0.0234(2) 1.2205(2) 0.10451(13)
H5 H -0.0290 1.2922 0.1053
C10 C 0.0197(2) 1.1710(2) 0.15056(13)
H6 H 0.0430 1.2091 0.1813
C11 C 0.0279(2) 1.0651(2) 0.15045(12)
C12 C -0.0079(2) 1.0128(2) 0.10379(12)
H7 H -0.0042 0.9409 0.1023
C13 C -0.0490(2) 1.0678(2) 0.05937(12)
H8 H -0.0722 1.0313 0.0280
C14 C 0.2595(2) 1.2196(2) 0.37311(12)
H9 H 0.2586 1.2916 0.3739
C15 C 0.2099(2) 1.1697(2) 0.32946(12)
H10 H 0.1765 1.2075 0.3015
C16 C 0.2105(2) 1.0632(2) 0.32780(12)
C17 C 0.2613(2) 1.0111(2) 0.37010(12)
H11 H 0.2631 0.9391 0.3703
C18 C 0.3093(2) 1.0667(2) 0.41216(13)
H12 H 0.3438 1.0307 0.4404
C19 C 0.0692(3) 0.5813(3) 0.19827(17)
H13 H 0.0377 0.5454 0.1689
C20 C 0.0685(2) 0.6872(3) 0.19592(14)
H14 H 0.0373 0.7217 0.1659
C21 C 0.1151(2) 0.7415(2) 0.23912(12)
C22 C 0.1608(3) 0.6857(3) 0.28219(15)
H15 H 0.1934 0.7197 0.3119
C23 C 0.1576(3) 0.5791(3) 0.28050(19)
H16 H 0.1891 0.5424 0.3096
C24 C 0.0743(2) 1.0078(2) 0.19848(12)
C25 C 0.1594(2) 1.0068(3) 0.28091(12)
C26 C 0.1163(2) 0.8562(2) 0.23958(12)
N1 N -0.05750(16) 1.17013(17) 0.05881(9)
N2 N 0.30855(17) 1.16980(18) 0.41420(9)
N3 N 0.1120(3) 0.5261(3) 0.23962(15)
N4 N 0.11688(18) 1.0623(2) 0.23995(10)
N5 N 0.16199(19) 0.9033(2) 0.28282(10)
N6 N 0.07111(19) 0.90440(19) 0.19627(10)
O1 O 0.00081(15) 1.21277(16) -0.05592(10)
O2 O -0.01519(14) 1.35549(15) -0.01249(9)
O3 O 0.18077(14) 1.65253(14) -0.03464(8)
O4 O 0.32155(13) 1.61595(13) -0.03927(8)
Zn1G Zn -0.62046(2) 1.24863(2) -0.514197(12)
Zn1G_2 Zn 0.37954(2) 1.24863(2) 0.485803(12)
Zn1D Zn 0.12046(2) 1.74863(2) 0.014197(12)
Zn1B Zn 0.37954(2) 1.75137(2) -0.014197(12)
Zn1F Zn -0.37954(2) 1.24863(2) 0.014197(12)
C1D C -0.0287(2) 1.7012(2) 0.03925(12)
C2D C -0.11592(19) 1.6621(2) 0.05072(11)
C3D C -0.13647(19) 1.55745(19) 0.04413(10)
H1D H -0.0942 1.5116 0.0351
C4D C -0.21901(18) 1.52090(19) 0.05082(10)
C5D C -0.2810(2) 1.5894(2) 0.06499(13)
H2D H -0.3369 1.5654 0.0693
C6D C -0.2606(2) 1.6935(2) 0.07290(14)
H3D H -0.3023 1.7390 0.0829
C7D C -0.1781(2) 1.7292(2) 0.06587(13)
H4D H -0.1642 1.7990 0.0714
C8D C -0.2419(2) 1.40839(19) 0.04067(10)
C9G C -0.5234(2) 1.2795(2) -0.39549(13)
H5G H -0.5290 1.2078 -0.3947
C10G C -0.4803(2) 1.3290(2) -0.34944(13)
H6G H -0.4570 1.2909 -0.3187
C11G C -0.4721(2) 1.4349(2) -0.34955(12)
C12G C -0.5079(2) 1.4872(2) -0.39621(12)
H7G H -0.5042 1.5591 -0.3977
C13G C -0.5490(2) 1.4322(2) -0.44063(12)
H8G H -0.5722 1.4687 -0.4720
C14G C -0.2405(2) 1.2804(2) -0.12689(12)
H9G H -0.2414 1.2084 -0.1261
C15G C -0.2901(2) 1.3303(2) -0.17054(12)
H10G H -0.3235 1.2925 -0.1985
C16G C -0.2895(2) 1.4368(2) -0.17220(12)
C17G C -0.2387(2) 1.4889(2) -0.12990(12)
H11G H -0.2369 1.5609 -0.1297
C18G C -0.1907(2) 1.4333(2) -0.08784(13)
H12G H -0.1562 1.4693 -0.0596
C19G C -0.4308(3) 1.9187(3) -0.30173(17)
H13G H -0.4623 1.9546 -0.3311
C20G C -0.4315(2) 1.8128(3) -0.30408(14)
H14G H -0.4627 1.7783 -0.3341
C21G C -0.3849(2) 1.7585(2) -0.26088(12)
C22G C -0.3392(3) 1.8143(3) -0.21781(15)
H15G H -0.3066 1.7803 -0.1881
C23G C -0.3424(3) 1.9209(3) -0.21950(19)
H16G H -0.3109 1.9576 -0.1904
C24G C -0.4257(2) 1.4922(2) -0.30152(12)
C25G C -0.3406(2) 1.4932(3) -0.21909(12)
C26G C -0.3837(2) 1.6438(2) -0.26042(12)
N1G N -0.55750(16) 1.32987(17) -0.44119(9)
N2G N -0.19145(17) 1.33020(18) -0.08580(9)
N2_2 N -0.69145(17) 1.16980(18) -0.58580(9)
N3G N -0.3880(3) 1.9739(3) -0.26038(15)
N4G N -0.38312(18) 1.4377(2) -0.26005(10)
N5G N -0.33801(19) 1.5967(2) -0.21718(10)
N6G N -0.42889(19) 1.59560(19) -0.30373(10)
O1D O -0.00081(15) 1.78723(16) 0.05592(10)
O1G O -0.49919(15) 1.28723(16) -0.55592(10)
O2D O 0.01519(14) 1.64451(15) 0.01249(9)
O2G O -0.51519(14) 1.14451(15) -0.51249(9)
O3D O -0.18077(14) 1.34747(14) 0.03464(8)
O3C O -0.68077(14) 1.15253(14) -0.46536(8)
O4D O -0.32155(13) 1.38405(13) 0.03927(8)
O4B O -0.17845(13) 1.11595(13) -0.03927(8)
O4E O -0.67845(13) 1.38405(13) -0.53927(8)
O5 O 0.0000 0.3416(4) 0.2500
H17 H 0.051(6) 0.369(13) 0.249(13)
H17A H -0.051(6) 0.369(13) 0.251(13)
loop_
_geom_bond_atom_site_label_1
_geom_bond_atom_site_label_2
_geom_bond_site_symmetry_1
_geom_bond_site_symmetry_2
Zn1 N1 1_555 1_555
C1 C2 1_555 1_555
C2 C3 1_555 1_555
C3 H1 1_555 1_555
C4 C3 1_555 1_555
C5 C4 1_555 1_555
H2 C5 1_555 1_555
C6 C5 1_555 1_555
H3 C6 1_555 1_555
C7 C2 1_555 1_555
H4 C7 1_555 1_555
C8 C4 1_555 1_555
C9 H5 1_555 1_555
C10 C9 1_555 1_555
H6 C10 1_555 1_555
C11 C10 1_555 1_555
C12 C11 1_555 1_555
H7 C12 1_555 1_555
C13 C12 1_555 1_555
H8 C13 1_555 1_555
C14 H9 1_555 1_555
C15 C14 1_555 1_555
H10 C15 1_555 1_555
C16 C15 1_555 1_555
C17 C16 1_555 1_555
H11 C17 1_555 1_555
C18 C17 1_555 1_555
H12 C18 1_555 1_555
C19 H13 1_555 1_555
C20 C19 1_555 1_555
H14 C20 1_555 1_555
C21 C20 1_555 1_555
C22 C21 1_555 1_555
H15 C22 1_555 1_555
C23 C22 1_555 1_555
H16 C23 1_555 1_555
C24 C11 1_555 1_555
C25 C16 1_555 1_555
C26 C21 1_555 1_555
N1 C9 1_555 1_555
N2 C14 1_555 1_555
N3 C19 1_555 1_555
N4 C24 1_555 1_555
N5 C25 1_555 1_555
N6 C24 1_555 1_555
O1 Zn1 1_555 1_555
O2 Zn1 1_555 1_555
O3 C8 1_555 1_555
O4 C8 1_555 1_555
O5 H17 1_555 1_555
Zn1G N1G 1_555 1_555
Zn1G_2 N2 1_555 1_555
Zn1D O3 1_555 1_555
Zn1B O4 1_555 1_555
Zn1F O4D 1_555 1_555
C1D C2D 1_555 1_555
C2D C3D 1_555 1_555
C3D H1D 1_555 1_555
C4D C3D 1_555 1_555
C5D C4D 1_555 1_555
H2D C5D 1_555 1_555
C6D C5D 1_555 1_555
H3D C6D 1_555 1_555
C7D C2D 1_555 1_555
H4D C7D 1_555 1_555
C8D C4D 1_555 1_555
C9G H5G 1_555 1_555
C10G C9G 1_555 1_555
H6G C10G 1_555 1_555
C11G C10G 1_555 1_555
C12G C11G 1_555 1_555
H7G C12G 1_555 1_555
C13G C12G 1_555 1_555
H8G C13G 1_555 1_555
C14G H9G 1_555 1_555
C15G C14G 1_555 1_555
H10G C15G 1_555 1_555
C16G C15G 1_555 1_555
C17G C16G 1_555 1_555
H11G C17G 1_555 1_555
C18G C17G 1_555 1_555
H12G C18G 1_555 1_555
C19G H13G 1_555 1_555
C20G C19G 1_555 1_555
H14G C20G 1_555 1_555
C21G C20G 1_555 1_555
C22G C21G 1_555 1_555
H15G C22G 1_555 1_555
C23G C22G 1_555 1_555
H16G C23G 1_555 1_555
C24G C11G 1_555 1_555
C25G C16G 1_555 1_555
C26G C21G 1_555 1_555
N1G C9G 1_555 1_555
N2G Zn1 1_555 1_555
N2_2 Zn1G 1_555 1_555
N3G C19G 1_555 1_555
N4G C24G 1_555 1_555
N5G C25G 1_555 1_555
N6G C24G 1_555 1_555
O1D Zn1D 1_555 1_555
O1G Zn1G 1_555 1_555
O2D Zn1D 1_555 1_555
O2G Zn1G 1_555 1_555
O3D Zn1 1_555 1_555
O3C Zn1G 1_555 1_555
O4D C8D 1_555 1_555
O4B Zn1 1_555 1_555
O4E Zn1G 1_555 1_555
H17A O5 1_555 1_555
C1 O1 1_555 1_555
C1 O2 1_555 1_555
C6 C7 1_555 1_555
C13 N1 1_555 1_555
C18 N2 1_555 1_555
C23 N3 1_555 1_555
C25 N4 1_555 1_555
C26 N5 1_555 1_555
C26 N6 1_555 1_555
C1D O1D 1_555 1_555
C1D O2D 1_555 1_555
C6D C7D 1_555 1_555
C8D O3D 1_555 1_555
C13G N1G 1_555 1_555
C14G N2G 1_555 1_555
C18G N2G 1_555 1_555
C23G N3G 1_555 1_555
C25G N4G 1_555 1_555
C26G N5G 1_555 1_555
C26G N6G 1_555 1_555

#END
