
#######################################################################
#
#                 Cambridge Crystallographic Data Centre
#                                CCDC 
#
#######################################################################
#
# If this CIF has been generated from an entry in the Cambridge 
# Structural Database, then it will include bibliographic, chemical, 
# crystal, experimental, refinement or atomic coordinate data resulting 
# from the CCDC's data processing and validation procedures.
#
#######################################################################

data_AQOPEB
_symmetry_cell_setting           orthorhombic
_symmetry_space_group_name_H-M   'I b a m'
_symmetry_Int_Tables_number      72
_space_group_name_Hall           '-I 2 2c'
loop_
_symmetry_equiv_pos_site_id
_symmetry_equiv_pos_as_xyz
1 x,y,z
2 -x,-y,z
3 x,-y,1/2-z
4 -x,y,1/2-z
5 1/2+x,1/2+y,1/2+z
6 1/2-x,1/2-y,1/2+z
7 1/2+x,1/2-y,-z
8 1/2-x,1/2+y,-z
9 -x,-y,-z
10 x,y,-z
11 -x,y,1/2+z
12 x,-y,1/2+z
13 1/2-x,1/2-y,1/2-z
14 1/2+x,1/2+y,1/2-z
15 1/2-x,1/2+y,z
16 1/2+x,1/2-y,z
_cell_length_a                   7.5239(5)
_cell_length_b                   14.3461(9)
_cell_length_c                   7.4331(5)
_cell_angle_alpha                90
_cell_angle_beta                 90
_cell_angle_gamma                90
_cell_volume                     802.319
loop_
_atom_site_label
_atom_site_type_symbol
_atom_site_fract_x
_atom_site_fract_y
_atom_site_fract_z
Co1 Co 0.500000 0.000000 0.250000
N1 N 0.3395(8) 0.0764(5) 0.09286(12)
C1 C 0.2023(9) 0.1334(5) 0.15012(12)
C2 C 0.1343(13) 0.1779(7) 0.000000
N1I N 0.3395(8) 0.0764(5) -0.09286(12)
C1I C 0.2023(9) 0.1334(5) -0.15012(12)
N1A N 0.6605(8) -0.0764(5) 0.09286(12)
C1A C 0.7977(9) -0.1334(5) 0.15012(12)
C2A C 0.8657(13) -0.1779(7) 0.000000
N1H N 0.6605(8) -0.0764(5) -0.09286(12)
C1H C 0.7977(9) -0.1334(5) -0.15012(12)
N1B N 0.3395(8) -0.0764(5) 0.40714(12)
N1C N 0.6605(8) 0.0764(5) 0.40714(12)
Co1H Co 0.500000 0.000000 -0.250000
loop_
_geom_bond_atom_site_label_1
_geom_bond_atom_site_label_2
_geom_bond_site_symmetry_1
_geom_bond_site_symmetry_2
Co1 N1 1_555 1_555
N1 C1 1_555 1_555
C1 C2 1_555 1_555
C2 C1I 1_555 1_555
N1I N1 1_555 1_555
C1I N1I 1_555 1_555
N1A Co1 1_555 1_555
C1A N1A 1_555 1_555
C2A C1A 1_555 1_555
N1H N1A 1_555 1_555
C1H C2A 1_555 1_555
N1B Co1 1_555 1_555
N1C Co1 1_555 1_555
Co1H N1I 1_555 1_555
N1H C1H 1_555 1_555
N1H Co1H 1_555 1_555

#END
