
#######################################################################
#
#                 Cambridge Crystallographic Data Centre
#                                CCDC 
#
#######################################################################
#
# If this CIF has been generated from an entry in the Cambridge 
# Structural Database, then it will include bibliographic, chemical, 
# crystal, experimental, refinement or atomic coordinate data resulting 
# from the CCDC's data processing and validation procedures.
#
#######################################################################

data_AQOWOT
_symmetry_cell_setting           triclinic
_symmetry_space_group_name_H-M   'P -1'
_symmetry_Int_Tables_number      2
_space_group_name_Hall           '-P 1'
loop_
_symmetry_equiv_pos_site_id
_symmetry_equiv_pos_as_xyz
1 x,y,z
2 -x,-y,-z
_cell_length_a                   9.0518(12)
_cell_length_b                   9.8960(10)
_cell_length_c                   8.3148(11)
_cell_angle_alpha                91.409(16)
_cell_angle_beta                 106.723(16)
_cell_angle_gamma                90.440(16)
_cell_volume                     713.011
loop_
_atom_site_label
_atom_site_type_symbol
_atom_site_fract_x
_atom_site_fract_y
_atom_site_fract_z
Zn1 Zn 0.5000 0.5000 0.5000
S1 S 0.75255(4) 0.76341(4) 0.62597(5)
O1 O 0.66017(13) 0.64528(12) 0.64176(14)
O2 O 0.83658(14) 0.74123(14) 0.50517(17)
O3 O 0.84318(13) 0.81683(13) 0.78770(16)
C1 C 0.61107(16) 0.89512(16) 0.54945(18)
C2 C 0.50585(17) 0.92565(17) 0.63977(19)
Cl1 Cl 0.50810(5) 0.83790(5) 0.81686(5)
C3 C 0.60357(17) 0.97232(17) 0.40861(19)
Cl2 Cl 0.72735(6) 0.94845(6) 0.28701(7)
O4 O 0.58577(13) 0.52118(13) 0.29804(14)
C4 C 0.71760(19) 0.48368(19) 0.3027(2)
H1 H 0.778(3) 0.437(2) 0.394(3)
N1 N 0.78602(15) 0.51046(15) 0.18644(17)
C5 C 0.7130(2) 0.5948(3) 0.0472(2)
H2 H 0.782(4) 0.655(4) 0.022(5)
H3 H 0.707(5) 0.549(5) -0.048(6)
H4 H 0.614(5) 0.626(5) 0.047(6)
C6 C 0.9412(2) 0.4640(3) 0.2017(3)
H5 H 0.966(3) 0.415(3) 0.294(4)
H6 H 0.947(3) 0.413(3) 0.097(4)
H7 H 1.011(3) 0.541(3) 0.206(3)
O5 O 0.66396(13) 0.34968(13) 0.59582(15)
C7 C 0.67729(18) 0.28631(18) 0.7262(2)
H8 H 0.601(2) 0.299(2) 0.792(3)
N2 N 0.78722(15) 0.19901(15) 0.78795(18)
C8 C 0.9059(2) 0.1661(2) 0.7069(3)
H9 H 0.912(3) 0.068(3) 0.693(3)
H10 H 1.004(4) 0.189(3) 0.785(4)
H11 H 0.884(3) 0.213(3) 0.605(4)
C9 C 0.7951(2) 0.1291(2) 0.9438(2)
H12 H 0.784(3) 0.034(3) 0.924(3)
H13 H 0.894(3) 0.155(3) 1.029(4)
H14 H 0.714(3) 0.155(3) 0.981(3)
Zn1_2 Zn 0.5000 1.5000 0.5000
S1A S 0.24745(4) 1.23659(4) 0.37403(5)
O1A O 0.33983(13) 1.35472(12) 0.35824(14)
O1A_2 O 0.33983(13) 0.35472(12) 0.35824(14)
O2A O 0.16342(14) 1.25877(14) 0.49483(17)
O3A O 0.15682(13) 1.18317(13) 0.21230(16)
C1A C 0.38893(16) 1.10488(16) 0.45055(18)
C2A C 0.49415(17) 1.07435(17) 0.36023(19)
Cl1A Cl 0.49190(5) 1.16210(5) 0.18314(5)
C3A C 0.39643(17) 1.02768(17) 0.59139(19)
Cl2A Cl 0.27265(6) 1.05155(6) 0.71299(7)
O4A O 0.41423(13) 0.47882(13) 0.70196(14)
C4A C 0.28240(19) 0.51632(19) 0.6973(2)
H1A H 0.222(3) 0.563(2) 0.606(3)
N1A N 0.21398(15) 0.48954(15) 0.81356(17)
C5A C 0.2870(2) 0.4052(3) 0.9528(2)
H2A H 0.218(4) 0.345(4) 0.978(5)
H3A H 0.293(5) 0.451(5) 1.048(6)
H4A H 0.386(5) 0.374(5) 0.953(6)
C6A C 0.0588(2) 0.5360(3) 0.7983(3)
H5A H 0.034(3) 0.585(3) 0.706(4)
H6A H 0.053(3) 0.587(3) 0.903(4)
H7A H -0.011(3) 0.459(3) 0.794(3)
O5A O 0.33604(13) 0.65032(13) 0.40418(15)
C7A C 0.32271(18) 0.71369(18) 0.2738(2)
H8A H 0.399(2) 0.701(2) 0.208(3)
N2A N 0.21278(15) 0.80099(15) 0.21205(18)
C8A C 0.0941(2) 0.8339(2) 0.2931(3)
H9A H 0.088(3) 0.932(3) 0.307(3)
H10A H -0.004(4) 0.811(3) 0.215(4)
H11A H 0.116(3) 0.787(3) 0.395(4)
C9A C 0.2049(2) 0.8709(2) 0.0562(2)
H12A H 0.216(3) 0.966(3) 0.076(3)
H13A H 0.106(3) 0.845(3) -0.029(4)
H14A H 0.286(3) 0.845(3) 0.019(3)
loop_
_geom_bond_atom_site_label_1
_geom_bond_atom_site_label_2
_geom_bond_site_symmetry_1
_geom_bond_site_symmetry_2
Zn1 O1 1_555 1_555
S1 O1 1_555 1_555
O2 S1 1_555 1_555
O3 S1 1_555 1_555
C1 S1 1_555 1_555
C2 C1 1_555 1_555
Cl1 C2 1_555 1_555
C3 C1 1_555 1_555
Cl2 C3 1_555 1_555
O4 Zn1 1_555 1_555
C4 O4 1_555 1_555
H1 C4 1_555 1_555
N1 C4 1_555 1_555
C5 N1 1_555 1_555
H2 C5 1_555 1_555
H3 C5 1_555 1_555
H4 C5 1_555 1_555
C6 N1 1_555 1_555
H5 C6 1_555 1_555
H6 C6 1_555 1_555
H7 C6 1_555 1_555
O5 Zn1 1_555 1_555
C7 O5 1_555 1_555
H8 C7 1_555 1_555
N2 C7 1_555 1_555
C8 N2 1_555 1_555
H9 C8 1_555 1_555
H10 C8 1_555 1_555
H11 C8 1_555 1_555
C9 N2 1_555 1_555
H12 C9 1_555 1_555
H13 C9 1_555 1_555
H14 C9 1_555 1_555
Zn1_2 O1A 1_555 1_555
S1A O1A 1_555 1_555
O1A_2 Zn1 1_555 1_555
O2A S1A 1_555 1_555
O3A S1A 1_555 1_555
C1A S1A 1_555 1_555
C2A C3 1_555 1_555
Cl1A C2A 1_555 1_555
C3A C2 1_555 1_555
Cl2A C3A 1_555 1_555
O4A Zn1 1_555 1_555
C4A O4A 1_555 1_555
H1A C4A 1_555 1_555
N1A C4A 1_555 1_555
C5A N1A 1_555 1_555
H2A C5A 1_555 1_555
H3A C5A 1_555 1_555
H4A C5A 1_555 1_555
C6A N1A 1_555 1_555
H5A C6A 1_555 1_555
H6A C6A 1_555 1_555
H7A C6A 1_555 1_555
O5A Zn1 1_555 1_555
C7A O5A 1_555 1_555
H8A C7A 1_555 1_555
N2A C7A 1_555 1_555
C8A N2A 1_555 1_555
H9A C8A 1_555 1_555
H10A C8A 1_555 1_555
H11A C8A 1_555 1_555
C9A N2A 1_555 1_555
H12A C9A 1_555 1_555
H13A C9A 1_555 1_555
H14A C9A 1_555 1_555
C1A C2A 1_555 1_555
C1A C3A 1_555 1_555

#END
