
#######################################################################
#
#                 Cambridge Crystallographic Data Centre
#                                CCDC 
#
#######################################################################
#
# If this CIF has been generated from an entry in the Cambridge 
# Structural Database, then it will include bibliographic, chemical, 
# crystal, experimental, refinement or atomic coordinate data resulting 
# from the CCDC's data processing and validation procedures.
#
#######################################################################

data_AQOWIN
_symmetry_cell_setting           triclinic
_symmetry_space_group_name_H-M   'P -1'
_symmetry_Int_Tables_number      2
_space_group_name_Hall           '-P 1'
loop_
_symmetry_equiv_pos_site_id
_symmetry_equiv_pos_as_xyz
1 x,y,z
2 -x,-y,-z
_cell_length_a                   9.7662(4)
_cell_length_b                   9.8685(4)
_cell_length_c                   10.1440(4)
_cell_angle_alpha                69.106(2)
_cell_angle_beta                 68.746(2)
_cell_angle_gamma                86.295(2)
_cell_volume                     848.891
loop_
_atom_site_label
_atom_site_type_symbol
_atom_site_fract_x
_atom_site_fract_y
_atom_site_fract_z
Zn1 Zn 0.5000 0.5000 0.5000
S1 S 0.70957(3) 0.65243(3) 0.10886(3)
O1 O 0.63069(10) 0.56346(10) 0.26626(10)
O2 O 0.62696(10) 0.65902(9) 0.01125(9)
O3 O 0.76058(11) 0.79604(10) 0.08630(11)
C1 C 0.86996(14) 0.56242(13) 0.04765(13)
C2 C 0.91931(15) 0.46254(14) 0.15509(15)
H1 H 0.8680(15) 0.4424(14) 0.2504(16)
C3 C 0.94887(15) 0.59995(14) -0.10618(14)
H2 H 0.9131(15) 0.6645(15) -0.1763(16)
C4 C 0.35373(16) 0.74750(15) 0.34659(16)
H3 H 0.4180(18) 0.7446(16) 0.2555(18)
O4 O 0.35408(10) 0.65422(10) 0.46698(10)
N1 N 0.26461(13) 0.85401(12) 0.34025(13)
C5 C 0.2650(3) 0.9602(2) 0.1961(2)
H4 H 0.335(2) 0.940(2) 0.116(2)
H5 H 0.289(2) 1.058(2) 0.191(2)
H6 H 0.164(2) 0.950(2) 0.190(2)
C6 C 0.15633(19) 0.86700(18) 0.4771(2)
H7 H 0.1554(19) 0.966(2) 0.4699(19)
H8 H 0.186(2) 0.8086(19) 0.564(2)
H9 H 0.065(2) 0.8314(18) 0.4912(19)
Zn2 Zn 0.5000 0.5000 0.0000
S2 S 0.70629(4) 0.64460(3) 0.61736(3)
O5 O 0.62543(10) 0.65495(9) 0.51777(9)
O6 O 0.62909(10) 0.54643(10) 0.77213(10)
O7 O 0.75137(11) 0.78639(10) 0.60598(10)
C7 C 0.87015(14) 0.56106(13) 0.55123(13)
C8 C 0.91081(15) 0.44494(14) 0.65402(15)
H10 H 0.8515(16) 0.4094(15) 0.7517(16)
C9 C 0.95739(15) 0.61600(14) 0.39864(14)
H11 H 0.9290(15) 0.6963(15) 0.3292(16)
C10 C 0.60536(16) 0.22561(14) 0.15019(15)
H12 H 0.5022(16) 0.2006(15) 0.2207(16)
O8 O 0.64485(10) 0.34331(10) 0.04200(10)
N2 N 0.69322(13) 0.12081(12) 0.18043(12)
C11 C 0.84778(18) 0.13274(17) 0.0874(2)
H13 H 0.8683(17) 0.0575(18) 0.0462(17)
H14 H 0.907(2) 0.1256(19) 0.150(2)
H15 H 0.8712(19) 0.2177(19) 0.004(2)
C12 C 0.6362(2) -0.01443(16) 0.31141(17)
H16 H 0.5285(19) -0.0130(17) 0.3639(18)
H17 H 0.6916(19) -0.0213(19) 0.379(2)
H18 H 0.6550(19) -0.1002(19) 0.2757(19)
Zn1_2 Zn 1.5000 0.5000 -0.5000
Zn1_3 Zn 1.5000 0.5000 0.5000
S1A S 1.29043(3) 0.34757(3) -0.10886(3)
O1A O 1.36931(10) 0.43654(10) -0.26626(10)
O1A_2 O 0.36931(10) 0.43654(10) 0.73374(10)
O2A O 1.37304(10) 0.34098(9) -0.01125(9)
O2A_2 O 0.37304(10) 0.34098(9) -0.01125(9)
O3A O 1.23942(11) 0.20396(10) -0.08630(11)
C1A C 1.13004(14) 0.43758(13) -0.04765(13)
C2A C 1.08069(15) 0.53746(14) -0.15509(15)
H1A H 1.1320(15) 0.5576(14) -0.2504(16)
C3A C 1.05113(15) 0.40005(14) 0.10618(14)
H2A H 1.0869(15) 0.3355(15) 0.1763(16)
C4A C 0.64627(16) 0.25250(15) 0.65341(16)
H3A H 0.5820(18) 0.2554(16) 0.7445(18)
O4A O 0.64592(10) 0.34578(10) 0.53302(10)
N1A N 0.73539(13) 0.14599(12) 0.65975(13)
C5A C 0.7350(3) 0.0398(2) 0.8039(2)
H4A H 0.665(2) 0.060(2) 0.884(2)
H5A H 0.711(2) -0.058(2) 0.809(2)
H6A H 0.836(2) 0.050(2) 0.810(2)
C6A C 0.84367(19) 0.13300(18) 0.5229(2)
H7A H 0.8446(19) 0.034(2) 0.5301(19)
H8A H 0.814(2) 0.1914(19) 0.436(2)
H9A H 0.935(2) 0.1686(18) 0.5088(19)
Zn2_2 Zn 0.5000 0.5000 1.0000
Zn2_3 Zn 1.5000 0.5000 0.0000
S2A S 1.29371(4) 0.35540(3) 0.38264(3)
O5A O 1.37457(10) 0.34505(9) 0.48223(9)
O5A_2 O 0.37457(10) 0.34505(9) 0.48223(9)
O6A O 1.37091(10) 0.45357(10) 0.22787(10)
O6_2 O 0.62909(10) 0.54643(10) -0.22787(10)
O6A_2 O 0.37091(10) 0.45357(10) 0.22787(10)
O7A O 1.24863(11) 0.21361(10) 0.39402(10)
C7A C 1.12985(14) 0.43894(13) 0.44877(13)
C8A C 1.08919(15) 0.55506(14) 0.34598(15)
H10A H 1.1485(16) 0.5906(15) 0.2483(16)
C9A C 1.04261(15) 0.38400(14) 0.60136(14)
H11A H 1.0710(15) 0.3037(15) 0.6708(16)
C10A C 0.39464(16) 0.77439(14) -0.15019(15)
H12A H 0.4978(16) 0.7994(15) -0.2207(16)
O8A O 0.35515(10) 0.65669(10) -0.04200(10)
N2A N 0.30678(13) 0.87919(12) -0.18043(12)
C11A C 0.15222(18) 0.86726(17) -0.0874(2)
H13A H 0.1317(17) 0.9425(18) -0.0462(17)
H14A H 0.093(2) 0.8744(19) -0.150(2)
H15A H 0.1288(19) 0.7823(19) -0.004(2)
C12A C 0.3638(2) 1.01443(16) -0.31141(17)
H16A H 0.4715(19) 1.0130(17) -0.3639(18)
H17A H 0.3084(19) 1.0213(19) -0.379(2)
H18A H 0.3450(19) 1.1002(19) -0.2757(19)
loop_
_geom_bond_atom_site_label_1
_geom_bond_atom_site_label_2
_geom_bond_site_symmetry_1
_geom_bond_site_symmetry_2
Zn1 O1 1_555 1_555
S1 O1 1_555 1_555
O2 S1 1_555 1_555
O3 S1 1_555 1_555
C1 S1 1_555 1_555
C2 C1 1_555 1_555
H1 C2 1_555 1_555
C3 C1 1_555 1_555
H2 C3 1_555 1_555
C4 H3 1_555 1_555
O4 Zn1 1_555 1_555
N1 C4 1_555 1_555
C5 N1 1_555 1_555
H4 C5 1_555 1_555
H5 C5 1_555 1_555
H6 C5 1_555 1_555
C6 N1 1_555 1_555
H7 C6 1_555 1_555
H8 C6 1_555 1_555
H9 C6 1_555 1_555
Zn2 O2 1_555 1_555
S2 O5 1_555 1_555
O5 Zn1 1_555 1_555
O6 S2 1_555 1_555
O7 S2 1_555 1_555
C7 S2 1_555 1_555
C8 C7 1_555 1_555
H10 C8 1_555 1_555
C9 C7 1_555 1_555
H11 C9 1_555 1_555
C10 H12 1_555 1_555
O8 Zn2 1_555 1_555
N2 C10 1_555 1_555
C11 N2 1_555 1_555
H13 C11 1_555 1_555
H14 C11 1_555 1_555
H15 C11 1_555 1_555
C12 N2 1_555 1_555
H16 C12 1_555 1_555
H17 C12 1_555 1_555
H18 C12 1_555 1_555
Zn1_2 O1A 1_555 1_555
Zn1_3 O5A 1_555 1_555
S1A O1A 1_555 1_555
O1A_2 Zn1 1_555 1_555
O2A S1A 1_555 1_555
O2A_2 Zn2 1_555 1_555
O3A S1A 1_555 1_555
C1A S1A 1_555 1_555
C2A C3 1_555 1_555
H1A C2A 1_555 1_555
C3A C2 1_555 1_555
H2A C3A 1_555 1_555
C4A H3A 1_555 1_555
O4A Zn1 1_555 1_555
N1A C4A 1_555 1_555
C5A N1A 1_555 1_555
H4A C5A 1_555 1_555
H5A C5A 1_555 1_555
H6A C5A 1_555 1_555
C6A N1A 1_555 1_555
H7A C6A 1_555 1_555
H8A C6A 1_555 1_555
H9A C6A 1_555 1_555
Zn2_2 O6 1_555 1_555
Zn2_3 O2A 1_555 1_555
S2A O5A 1_555 1_555
O5A_2 Zn1 1_555 1_555
O6A Zn2_3 1_555 1_555
O6_2 Zn2 1_555 1_555
O6A_2 Zn2 1_555 1_555
O7A S2A 1_555 1_555
C7A S2A 1_555 1_555
C8A C9 1_555 1_555
H10A C8A 1_555 1_555
C9A C8 1_555 1_555
H11A C9A 1_555 1_555
C10A H12A 1_555 1_555
O8A Zn2 1_555 1_555
N2A C10A 1_555 1_555
C11A N2A 1_555 1_555
H13A C11A 1_555 1_555
H14A C11A 1_555 1_555
H15A C11A 1_555 1_555
C12A N2A 1_555 1_555
H16A C12A 1_555 1_555
H17A C12A 1_555 1_555
H18A C12A 1_555 1_555
C4 O4 1_555 1_555
C10 O8 1_555 1_555
C1A C2A 1_555 1_555
C1A C3A 1_555 1_555
C4A O4A 1_555 1_555
S2A O6A 1_555 1_555
C7A C8A 1_555 1_555
C7A C9A 1_555 1_555
C10A O8A 1_555 1_555

#END
