
#######################################################################
#
#                 Cambridge Crystallographic Data Centre
#                                CCDC 
#
#######################################################################
#
# If this CIF has been generated from an entry in the Cambridge 
# Structural Database, then it will include bibliographic, chemical, 
# crystal, experimental, refinement or atomic coordinate data resulting 
# from the CCDC's data processing and validation procedures.
#
#######################################################################

data_AQOXEK
_symmetry_cell_setting           monoclinic
_symmetry_space_group_name_H-M   'P 21/c'
_symmetry_Int_Tables_number      14
_space_group_name_Hall           '-P 2ybc'
loop_
_symmetry_equiv_pos_site_id
_symmetry_equiv_pos_as_xyz
1 x,y,z
2 -x,1/2+y,1/2-z
3 -x,-y,-z
4 x,1/2-y,1/2+z
_cell_length_a                   11.5673(16)
_cell_length_b                   5.5847(5)
_cell_length_c                   10.7230(16)
_cell_angle_alpha                90
_cell_angle_beta                 91.488(17)
_cell_angle_gamma                90
_cell_volume                     692.471
loop_
_atom_site_label
_atom_site_type_symbol
_atom_site_fract_x
_atom_site_fract_y
_atom_site_fract_z
Na1 Na 0.37564(5) -0.53277(11) 0.30126(5)
O1 O 0.56625(8) -0.3955(2) 0.30895(10)
H1 H 0.6012 -0.5052 0.2751
H2 H 0.6011 -0.3695 0.3779
S1 S 0.28104(3) -1.01796(6) 0.48481(3)
O2 O 0.31613(8) -0.7712(2) 0.46359(9)
O3 O 0.31312(8) -1.1713(2) 0.38249(9)
O4 O 0.31540(8) -1.1084(2) 0.60693(9)
C1 C 0.12326(10) -1.0110(3) 0.48934(11)
C2 C 0.07051(10) -0.8395(3) 0.56386(12)
Cl1 Cl 0.15179(2) -0.63705(6) 0.65101(3)
C3 C 0.05069(10) -1.1745(3) 0.42629(11)
Cl2 Cl 0.10254(3) -1.40267(6) 0.33564(3)
Na1A Na 0.62436(5) -1.03277(11) 0.19874(5)
Na1A_2 Na 0.62436(5) -0.03277(11) 0.19874(5)
Na1_2 Na 0.37564(5) -1.53277(11) 0.30126(5)
Na1C Na 0.37564(5) -0.96723(11) 0.80126(5)
Na1B Na -0.37564(5) -1.46723(11) 0.69874(5)
Na1B_2 Na -0.37564(5) -0.46723(11) 0.69874(5)
Na1A_3 Na -0.37564(5) -1.03277(11) 0.19874(5)
O1A O 0.43375(8) -0.8955(2) 0.19105(10)
O1_2 O 0.56625(8) -1.3955(2) 0.30895(10)
H1A H 0.3988 -1.0052 0.2249
H1_2 H 0.6012 -1.5052 0.2751
H2A H 0.3989 -0.8695 0.1221
H2_2 H 0.6011 -1.3695 0.3779
S1B S -0.28104(3) -0.98204(6) 0.51519(3)
O2B O -0.31613(8) -1.2288(2) 0.53641(9)
O2A O 0.68387(8) -1.2712(2) 0.03641(9)
O3B O -0.31312(8) -0.8287(2) 0.61751(9)
O3_2 O 0.31312(8) -0.1713(2) 0.38249(9)
O3A O 0.68688(8) -0.6713(2) 0.11751(9)
O4B O -0.31540(8) -0.8916(2) 0.39307(9)
O4C O 0.31540(8) -0.3916(2) 0.10693(9)
O4B_2 O 0.68460(8) -0.8916(2) 0.39307(9)
C1B C -0.12326(10) -0.9890(3) 0.51066(11)
C2B C -0.07051(10) -1.1605(3) 0.43614(12)
Cl1B Cl -0.15179(2) -1.36295(6) 0.34899(3)
C3B C -0.05069(10) -0.8255(3) 0.57371(11)
Cl2B Cl -0.10254(3) -0.59733(6) 0.66436(3)
loop_
_geom_bond_atom_site_label_1
_geom_bond_atom_site_label_2
_geom_bond_site_symmetry_1
_geom_bond_site_symmetry_2
Na1 O1 1_555 1_555
O1 H1 1_555 1_555
H2 O1 1_555 1_555
S1 O2 1_555 1_555
O2 Na1 1_555 1_555
O3 S1 1_555 1_555
O4 S1 1_555 1_555
C1 S1 1_555 1_555
C2 C1 1_555 1_555
Cl1 C2 1_555 1_555
C3 C1 1_555 1_555
Cl2 C3 1_555 1_555
Na1A O1A 1_555 1_555
Na1A_2 O1 1_555 1_555
Na1_2 O3 1_555 1_555
Na1C O4 1_555 1_555
Na1B O2B 1_555 1_555
Na1B_2 O3B 1_555 1_555
Na1A_3 O4B 1_555 1_555
O1A Na1 1_555 1_555
O1_2 Na1A 1_555 1_555
H1A O1A 1_555 1_555
H1_2 O1_2 1_555 1_555
H2A O1A 1_555 1_555
H2_2 O1_2 1_555 1_555
S1B O2B 1_555 1_555
O2A Na1A 1_555 1_555
O3B S1B 1_555 1_555
O3_2 Na1 1_555 1_555
O3A Na1A 1_555 1_555
O4B S1B 1_555 1_555
O4C Na1 1_555 1_555
O4B_2 Na1A 1_555 1_555
C1B S1B 1_555 1_555
C2B C3 1_555 1_555
Cl1B C2B 1_555 1_555
C3B C2 1_555 1_555
Cl2B C3B 1_555 1_555
Na1_2 O1_2 1_555 1_555
C1B C2B 1_555 1_555
C1B C3B 1_555 1_555

#END
