
#######################################################################
#
#                 Cambridge Crystallographic Data Centre
#                                CCDC 
#
#######################################################################
#
# If this CIF has been generated from an entry in the Cambridge 
# Structural Database, then it will include bibliographic, chemical, 
# crystal, experimental, refinement or atomic coordinate data resulting 
# from the CCDC's data processing and validation procedures.
#
#######################################################################

data_AQOXAG
_symmetry_cell_setting           orthorhombic
_symmetry_space_group_name_H-M   'P n m a'
_symmetry_Int_Tables_number      62
_space_group_name_Hall           '-P 2ac 2n'
loop_
_symmetry_equiv_pos_site_id
_symmetry_equiv_pos_as_xyz
1 x,y,z
2 1/2-x,-y,1/2+z
3 1/2+x,1/2-y,1/2-z
4 -x,1/2+y,-z
5 -x,-y,-z
6 1/2+x,y,1/2-z
7 1/2-x,1/2+y,1/2+z
8 x,1/2-y,z
_cell_length_a                   7.2127(2)
_cell_length_b                   21.4781(6)
_cell_length_c                   9.7942(3)
_cell_angle_alpha                90
_cell_angle_beta                 90
_cell_angle_gamma                90
_cell_volume                     1517.27
loop_
_atom_site_label
_atom_site_type_symbol
_atom_site_fract_x
_atom_site_fract_y
_atom_site_fract_z
Cu1 Cu 0.0000 0.5000 1.0000
O1 O 0.15072(14) 0.52507(5) 0.84541(10)
H1 H 0.244(4) 0.5433(11) 0.860(3)
H2 H 0.100(4) 0.5429(12) 0.789(3)
O2 O 0.14377(15) 0.55250(5) 1.12455(10)
H3 H 0.251(4) 0.5564(11) 1.120(2)
H4 H 0.110(4) 0.5579(12) 1.197(3)
S1 S 0.40486(4) 0.399579(13) 1.01581(3)
O3 O 0.21023(13) 0.41208(5) 1.03611(11)
O4 O 0.48219(14) 0.42355(5) 0.88815(10)
O5 O 0.51610(14) 0.41866(5) 1.13342(10)
C1 C 0.42734(17) 0.31590(6) 1.00337(12)
C2 C 0.29518(18) 0.28257(6) 0.92717(13)
Cl1 Cl 0.13952(6) 0.320509(15) 0.82391(4)
C3 C 0.57550(18) 0.28275(6) 1.06127(14)
Cl2 Cl 0.76971(6) 0.319340(17) 1.12444(6)
Cu1C Cu 0.0000 0.0000 1.0000
O1D O -0.15072(14) 0.47493(5) 1.15459(10)
H1D H -0.244(4) 0.4567(11) 1.140(3)
H2D H -0.100(4) 0.4571(12) 1.211(3)
O2D O -0.14377(15) 0.44750(5) 0.87545(10)
H3D H -0.251(4) 0.4436(11) 0.880(2)
H4D H -0.110(4) 0.4421(12) 0.803(3)
S1G S 0.40486(4) 0.100421(13) 1.01581(3)
O3G O 0.21023(13) 0.08792(5) 1.03611(11)
O3D O -0.21023(13) 0.58792(5) 0.96389(11)
O4G O 0.48219(14) 0.07645(5) 0.88815(10)
O5G O 0.51610(14) 0.08134(5) 1.13342(10)
C1G C 0.42734(17) 0.18410(6) 1.00337(12)
C2G C 0.29518(18) 0.21743(6) 0.92717(13)
Cl1G Cl 0.13952(6) 0.179491(15) 0.82391(4)
C3G C 0.57550(18) 0.21725(6) 1.06127(14)
Cl2G Cl 0.76971(6) 0.180660(17) 1.12444(6)
loop_
_geom_bond_atom_site_label_1
_geom_bond_atom_site_label_2
_geom_bond_site_symmetry_1
_geom_bond_site_symmetry_2
Cu1 O1 1_555 1_555
O1 H1 1_555 1_555
H2 O1 1_555 1_555
O2 Cu1 1_555 1_555
H3 O2 1_555 1_555
H4 O2 1_555 1_555
S1 O3 1_555 1_555
O3 Cu1 1_555 1_555
O4 S1 1_555 1_555
O5 S1 1_555 1_555
C1 S1 1_555 1_555
C2 C1 1_555 1_555
Cl1 C2 1_555 1_555
C3 C1 1_555 1_555
Cl2 C3 1_555 1_555
Cu1C O3G 1_555 1_555
O1D Cu1 1_555 1_555
H1D O1D 1_555 1_555
H2D O1D 1_555 1_555
O2D Cu1 1_555 1_555
H3D O2D 1_555 1_555
H4D O2D 1_555 1_555
S1G O3G 1_555 1_555
O3D Cu1 1_555 1_555
O4G S1G 1_555 1_555
O5G S1G 1_555 1_555
C1G S1G 1_555 1_555
C2G C2 1_555 1_555
Cl1G C2G 1_555 1_555
C3G C3 1_555 1_555
Cl2G C3G 1_555 1_555
C1G C2G 1_555 1_555
C1G C3G 1_555 1_555

#END
