
#######################################################################
#
#                 Cambridge Crystallographic Data Centre
#                                CCDC 
#
#######################################################################
#
# If this CIF has been generated from an entry in the Cambridge 
# Structural Database, then it will include bibliographic, chemical, 
# crystal, experimental, refinement or atomic coordinate data resulting 
# from the CCDC's data processing and validation procedures.
#
#######################################################################

data_AQPSHG
_symmetry_cell_setting           monoclinic
_symmetry_space_group_name_H-M   'C 2/c'
_symmetry_Int_Tables_number      15
_space_group_name_Hall           '-C 2yn'
loop_
_symmetry_equiv_pos_site_id
_symmetry_equiv_pos_as_xyz
1 x,y,z
2 1/2+x,1/2+y,z
3 -x,y,1/2-z
4 1/2-x,1/2+y,1/2-z
5 -x,-y,-z
6 1/2-x,1/2-y,-z
7 x,-y,1/2+z
8 1/2+x,1/2-y,1/2+z
_cell_length_a                   9.989(9)
_cell_length_b                   11.788(9)
_cell_length_c                   13.527(13)
_cell_angle_alpha                90
_cell_angle_beta                 94.35(9)
_cell_angle_gamma                90
_cell_volume                     1588.22
loop_
_atom_site_label
_atom_site_type_symbol
_atom_site_fract_x
_atom_site_fract_y
_atom_site_fract_z
Hg1 Hg -0.00050 0.24630 0.15780
S1 S -0.21230 0.50980 0.16700
O1 O -0.15820 0.42300 0.10360
O2 O -0.35470 0.52630 0.15200
O3 O -0.16500 0.49820 0.26970
O4 O -0.20690 0.12720 0.08570
N1 N 0.05130 0.25860 0.00270
C1 C 0.09890 0.35420 -0.03160
C2 C -0.14060 0.63850 0.12670
C3 C -0.14590 0.73600 0.18280
C4 C -0.09250 0.83680 0.14750
C5 C 0.05060 0.16230 -0.05280
H1 H 0.09190 0.42430 0.00520
H2 H -0.17790 0.73420 0.26770
H3 H -0.09700 0.89220 0.19530
H4 H 0.01430 0.08510 -0.01310
Hg1B Hg 0.00050 0.24630 0.34220
O1B O 0.15820 0.42300 0.39640
S1B S 0.21230 0.50980 0.33300
O2B O 0.35470 0.52630 0.34800
O3B O 0.16500 0.49820 0.23030
C2B C 0.14060 0.63850 0.37330
C1F C 0.09890 0.64580 0.46840
N1F N 0.05130 0.74140 0.50270
Hg1F Hg -0.00050 0.75370 0.65780
O1F O -0.15820 0.57700 0.60360
S1F S -0.21230 0.49020 0.66700
O2F O -0.35470 0.47370 0.65200
O3F O -0.16500 0.50180 0.76970
C2F C -0.14060 0.36150 0.62670
C1B C -0.09890 0.35420 0.53160
N1B N -0.05130 0.25860 0.49730
O4B O 0.20690 0.12720 0.41430
C5B C -0.05060 0.16230 0.55280
C4F C -0.09250 0.16320 0.64750
C3F C -0.14590 0.26400 0.68280
H2F H -0.17790 0.26580 0.76770
H3F H -0.09700 0.10780 0.69530
H4B H -0.01430 0.08510 0.51310
H1B H -0.09190 0.42430 0.49480
C5F C 0.05060 0.83770 0.44720
C4B C 0.09250 0.83680 0.35250
C3B C 0.14590 0.73600 0.31720
H2B H 0.17790 0.73420 0.23230
H3B H 0.09700 0.89220 0.30470
H4F H 0.01430 0.91490 0.48690
H1F H 0.09190 0.57570 0.50520
C1D C -0.09890 0.64580 0.03160
N1D N -0.05130 0.74140 -0.00270
Hg1D Hg 0.00050 0.75370 -0.15780
Hg1F_2 Hg -0.00050 0.75370 -0.34220
O1F_2 O -0.15820 0.57700 -0.39640
O4F O -0.20690 0.87280 -0.41430
N1F_2 N 0.05130 0.74140 -0.49730
O1D O 0.15820 0.57700 -0.10360
S1D S 0.21230 0.49020 -0.16700
O2D O 0.35470 0.47370 -0.15200
O3D O 0.16500 0.50180 -0.26970
C2D C 0.14060 0.36150 -0.12670
C4D C 0.09250 0.16320 -0.14750
C3D C 0.14590 0.26400 -0.18280
H2D H 0.17790 0.26580 -0.26770
H3D H 0.09700 0.10780 -0.19530
O4D O 0.20690 0.87280 -0.08570
C5D C -0.05060 0.83770 0.05280
H4D H -0.01430 0.91490 0.01310
H1D H -0.09190 0.57570 -0.00520
loop_
_geom_bond_atom_site_label_1
_geom_bond_atom_site_label_2
_geom_bond_site_symmetry_1
_geom_bond_site_symmetry_2
Hg1 O1 1_555 1_555
S1 O1 1_555 1_555
O2 S1 1_555 1_555
O3 S1 1_555 1_555
O4 Hg1 1_555 1_555
N1 Hg1 1_555 1_555
C1 N1 1_555 1_555
C2 S1 1_555 1_555
C3 C2 1_555 1_555
C4 C3 1_555 1_555
C5 N1 1_555 1_555
H1 C1 1_555 1_555
H2 C3 1_555 1_555
H3 C4 1_555 1_555
H4 C5 1_555 1_555
Hg1B Hg1 1_555 1_555
O1B Hg1B 1_555 1_555
S1B O1B 1_555 1_555
O2B S1B 1_555 1_555
O3B S1B 1_555 1_555
C2B S1B 1_555 1_555
C1F C2B 1_555 1_555
N1F C1F 1_555 1_555
Hg1F N1F 1_555 1_555
O1F Hg1F 1_555 1_555
S1F O1F 1_555 1_555
O2F S1F 1_555 1_555
O3F S1F 1_555 1_555
C2F S1F 1_555 1_555
C1B C2F 1_555 1_555
N1B Hg1B 1_555 1_555
O4B Hg1B 1_555 1_555
C5B N1B 1_555 1_555
C4F C5B 1_555 1_555
C3F C2F 1_555 1_555
H2F C3F 1_555 1_555
H3F C4F 1_555 1_555
H4B C5B 1_555 1_555
H1B C1B 1_555 1_555
C5F N1F 1_555 1_555
C4B C5F 1_555 1_555
C3B C2B 1_555 1_555
H2B C3B 1_555 1_555
H3B C4B 1_555 1_555
H4F C5F 1_555 1_555
H1F C1F 1_555 1_555
C1D C2 1_555 1_555
N1D C1D 1_555 1_555
Hg1D N1D 1_555 1_555
Hg1F_2 Hg1D 1_555 1_555
O1F_2 Hg1F_2 1_555 1_555
O4F Hg1F_2 1_555 1_555
N1F_2 Hg1F_2 1_555 1_555
O1D Hg1D 1_555 1_555
S1D O1D 1_555 1_555
O2D S1D 1_555 1_555
O3D S1D 1_555 1_555
C2D C1 1_555 1_555
C4D C5 1_555 1_555
C3D C2D 1_555 1_555
H2D C3D 1_555 1_555
H3D C4D 1_555 1_555
O4D Hg1D 1_555 1_555
C5D C4 1_555 1_555
H4D C5D 1_555 1_555
H1D C1D 1_555 1_555
C1B N1B 1_555 1_555
C4F C3F 1_555 1_555
C4B C3B 1_555 1_555
N1D C5D 1_555 1_555
S1D C2D 1_555 1_555
C4D C3D 1_555 1_555

#END
