
#######################################################################
#
#                 Cambridge Crystallographic Data Centre
#                                CCDC 
#
#######################################################################
#
# If this CIF has been generated from an entry in the Cambridge 
# Structural Database, then it will include bibliographic, chemical, 
# crystal, experimental, refinement or atomic coordinate data resulting 
# from the CCDC's data processing and validation procedures.
#
#######################################################################

data_AQUBUK
_symmetry_cell_setting           monoclinic
_symmetry_space_group_name_H-M   'P 21/c'
_symmetry_Int_Tables_number      14
_space_group_name_Hall           '-P 2ybc'
loop_
_symmetry_equiv_pos_site_id
_symmetry_equiv_pos_as_xyz
1 x,y,z
2 -x,1/2+y,1/2-z
3 -x,-y,-z
4 x,1/2-y,1/2+z
_cell_length_a                   7.7133(13)
_cell_length_b                   9.8544(16)
_cell_length_c                   14.988(3)
_cell_angle_alpha                90
_cell_angle_beta                 100.434(3)
_cell_angle_gamma                90
_cell_volume                     1120.4
loop_
_atom_site_label
_atom_site_type_symbol
_atom_site_fract_x
_atom_site_fract_y
_atom_site_fract_z
Cu1 Cu 0.43373(3) 0.33827(2) 0.197369(16)
N1 N 0.6502(2) 0.30802(17) 0.14353(12)
N2 N 0.9119(2) 0.42238(19) -0.11433(12)
H1 H 0.9162 0.4746 -0.1599
H2 H 0.9758 0.3504 -0.1064
C1 C 0.7648(3) 0.2069(2) 0.16945(15)
H3 H 0.7503 0.1533 0.2186
C2 C 0.9035(3) 0.1799(2) 0.12542(16)
H4 H 0.9827 0.1107 0.1460
C3 C 0.9243(3) 0.2561(2) 0.05056(15)
H5 H 1.0158 0.2384 0.0195
C4 C 0.8048(3) 0.35979(19) 0.02306(13)
C5 C 0.6734(3) 0.3832(2) 0.07264(14)
H6 H 0.5968 0.4553 0.0557
C6 C 0.8067(3) 0.4529(2) -0.05638(13)
O1 O 0.7121(2) 0.55516(15) -0.06467(10)
C7 C 0.6025(3) 0.5439(2) 0.31811(15)
C8 C 0.6534(3) 0.4241(2) 0.38113(17)
H7 H 0.7774 0.4044 0.3837
H8 H 0.6376 0.4492 0.4417
C9 C 0.4004(3) 0.2861(3) 0.39306(17)
H9 H 0.4163 0.3345 0.4503
H10 H 0.3904 0.1904 0.4063
C10 C 0.2277(3) 0.3324(2) 0.33508(15)
O2 O 0.5217(2) 0.52420(15) 0.23928(10)
O3 O 0.6520(2) 0.65812(14) 0.35152(11)
O4 O 0.5543(2) 0.30494(14) 0.35445(10)
O5 O 0.0957(2) 0.33017(17) 0.37080(13)
O6 O 0.2282(2) 0.36771(16) 0.25374(10)
Cu1B Cu 0.56627(3) 0.66173(2) -0.197369(16)
Cu1A Cu 0.56627(3) 0.83827(2) 0.302631(16)
O1B O 0.2879(2) 0.44484(15) 0.06467(10)
O3A O 0.3480(2) 0.15812(14) 0.14848(11)
loop_
_geom_bond_atom_site_label_1
_geom_bond_atom_site_label_2
_geom_bond_site_symmetry_1
_geom_bond_site_symmetry_2
Cu1 N1 1_555 1_555
N1 C1 1_555 1_555
N2 H1 1_555 1_555
H2 N2 1_555 1_555
C1 H3 1_555 1_555
C2 C1 1_555 1_555
H4 C2 1_555 1_555
C3 C2 1_555 1_555
H5 C3 1_555 1_555
C4 C3 1_555 1_555
C5 N1 1_555 1_555
H6 C5 1_555 1_555
C6 N2 1_555 1_555
O1 C6 1_555 1_555
C7 C8 1_555 1_555
C8 H7 1_555 1_555
H8 C8 1_555 1_555
C9 H9 1_555 1_555
H10 C9 1_555 1_555
C10 C9 1_555 1_555
O2 Cu1 1_555 1_555
O3 C7 1_555 1_555
O4 Cu1 1_555 1_555
O5 C10 1_555 1_555
O6 Cu1 1_555 1_555
Cu1B O1 1_555 1_555
Cu1A O3 1_555 1_555
O1B Cu1 1_555 1_555
O3A Cu1 1_555 1_555
C4 C5 1_555 1_555
C4 C6 1_555 1_555
C7 O2 1_555 1_555
C8 O4 1_555 1_555
C9 O4 1_555 1_555
C10 O6 1_555 1_555

#END
