
#######################################################################
#
#                 Cambridge Crystallographic Data Centre
#                                CCDC 
#
#######################################################################
#
# If this CIF has been generated from an entry in the Cambridge 
# Structural Database, then it will include bibliographic, chemical, 
# crystal, experimental, refinement or atomic coordinate data resulting 
# from the CCDC's data processing and validation procedures.
#
#######################################################################

data_AQUBIY
_symmetry_cell_setting           monoclinic
_symmetry_space_group_name_H-M   'P n'
_symmetry_Int_Tables_number      7
_space_group_name_Hall           'P -2yac'
loop_
_symmetry_equiv_pos_site_id
_symmetry_equiv_pos_as_xyz
1 x,y,z
2 1/2+x,-y,1/2+z
_cell_length_a                   10.674(2)
_cell_length_b                   4.9473(10)
_cell_length_c                   17.432(4)
_cell_angle_alpha                90
_cell_angle_beta                 99.81(3)
_cell_angle_gamma                90
_cell_volume                     907.08
loop_
_atom_site_label
_atom_site_type_symbol
_atom_site_fract_x
_atom_site_fract_y
_atom_site_fract_z
Cu1 Cu 0.99965(5) 0.62699(14) 1.00001(4)
O1 O 0.9146(5) 0.8268(9) 0.9099(2)
O2 O 0.8408(6) 0.4637(10) 0.8418(3)
O3 O 0.7271(5) 0.7539(9) 0.7225(2)
O4 O 0.5940(5) 0.5367(9) 0.5962(2)
O5 O 0.5392(5) 0.9380(9) 0.5424(3)
C1 C 0.8546(7) 0.7029(14) 0.8503(4)
C2 C 0.7964(7) 0.8981(14) 0.7877(3)
H1 H 0.8630 1.0047 0.7708
H2 H 0.7396 1.0204 0.8085
C3 C 0.6651(7) 0.9399(13) 0.6668(4)
H3 H 0.6062 1.0488 0.6903
H4 H 0.7276 1.0599 0.6507
C4 C 0.5934(6) 0.7945(13) 0.5963(3)
N1 N 0.8349(7) 0.5440(16) 1.0386(3)
N2 N 0.4314(7) 0.5075(16) 1.1544(4)
H5 H 0.3629 0.4640 1.1712
H6 H 0.4576 0.6722 1.1577
O6 O 0.4621(7) 0.0805(12) 1.1176(5)
C5 C 0.8017(7) 0.6720(17) 1.0980(5)
H7 H 0.8543 0.8093 1.1214
C6 C 0.6925(8) 0.6132(17) 1.1276(5)
H8 H 0.6723 0.7109 1.1694
C7 C 0.6145(7) 0.4105(15) 1.0948(5)
C8 C 0.6488(8) 0.2774(16) 1.0312(4)
H9 H 0.5977 0.1402 1.0064
C9 C 0.7589(7) 0.3502(16) 1.0054(4)
H10 H 0.7807 0.2595 0.9628
C10 C 0.4959(9) 0.3228(17) 1.1238(6)
N3 N 1.1504(6) 0.5460(15) 0.9460(4)
N4 N 1.5238(8) 0.5477(14) 0.8046(5)
H11 H 1.5851 0.5150 0.7797
H12 H 1.5076 0.7113 0.8164
O7 O 1.4718(8) 0.1113(12) 0.8102(6)
C11 C 1.2598(7) 0.6842(14) 0.9594(4)
H13 H 1.2693 0.8213 0.9965
C12 C 1.3582(7) 0.6307(15) 0.9206(5)
H14 H 1.4325 0.7322 0.9304
C13 C 1.3456(8) 0.4255(16) 0.8671(4)
C14 C 1.2361(8) 0.2772(15) 0.8548(4)
H15 H 1.2273 0.1323 0.8203
C15 C 1.1387(7) 0.3444(15) 0.8939(3)
H16 H 1.0630 0.2475 0.8840
C16 C 1.4550(8) 0.3478(18) 0.8246(6)
Cu1A Cu 0.49965(5) 0.37301(14) 0.50001(4)
Cu1A_2 Cu 0.49965(5) 1.37301(14) 0.50001(4)
O4A O 1.0940(5) 0.4633(9) 1.0962(2)
O5A O 1.0392(5) 1.0620(9) 1.0424(3)
loop_
_geom_bond_atom_site_label_1
_geom_bond_atom_site_label_2
_geom_bond_site_symmetry_1
_geom_bond_site_symmetry_2
Cu1 O1 1_555 1_555
O1 C1 1_555 1_555
O2 C1 1_555 1_555
O3 C2 1_555 1_555
O4 C4 1_555 1_555
O5 C4 1_555 1_555
C1 C2 1_555 1_555
C2 H1 1_555 1_555
H2 C2 1_555 1_555
C3 O3 1_555 1_555
H3 C3 1_555 1_555
H4 C3 1_555 1_555
C4 C3 1_555 1_555
N1 Cu1 1_555 1_555
N2 H5 1_555 1_555
H6 N2 1_555 1_555
O6 C10 1_555 1_555
C5 N1 1_555 1_555
H7 C5 1_555 1_555
C6 C5 1_555 1_555
H8 C6 1_555 1_555
C7 C6 1_555 1_555
C8 C7 1_555 1_555
H9 C8 1_555 1_555
C9 N1 1_555 1_555
H10 C9 1_555 1_555
C10 N2 1_555 1_555
N3 Cu1 1_555 1_555
N4 H11 1_555 1_555
H12 N4 1_555 1_555
O7 C16 1_555 1_555
C11 N3 1_555 1_555
H13 C11 1_555 1_555
C12 C11 1_555 1_555
H14 C12 1_555 1_555
C13 C12 1_555 1_555
C14 C13 1_555 1_555
H15 C14 1_555 1_555
C15 N3 1_555 1_555
H16 C15 1_555 1_555
C16 N4 1_555 1_555
Cu1A O4 1_555 1_555
Cu1A_2 O5 1_555 1_555
O4A Cu1 1_555 1_555
O5A Cu1 1_555 1_555
C7 C10 1_555 1_555
C8 C9 1_555 1_555
C13 C16 1_555 1_555
C14 C15 1_555 1_555

#END
