
#######################################################################
#
#                 Cambridge Crystallographic Data Centre
#                                CCDC 
#
#######################################################################
#
# If this CIF has been generated from an entry in the Cambridge 
# Structural Database, then it will include bibliographic, chemical, 
# crystal, experimental, refinement or atomic coordinate data resulting 
# from the CCDC's data processing and validation procedures.
#
#######################################################################

data_AQUCOF
_symmetry_cell_setting           monoclinic
_symmetry_space_group_name_H-M   'P c'
_symmetry_Int_Tables_number      7
_space_group_name_Hall           'P -2yc'
loop_
_symmetry_equiv_pos_site_id
_symmetry_equiv_pos_as_xyz
1 x,y,z
2 x,-y,1/2+z
_cell_length_a                   11.4029(15)
_cell_length_b                   23.057(3)
_cell_length_c                   13.7713(13)
_cell_angle_alpha                90
_cell_angle_beta                 118.689(8)
_cell_angle_gamma                90
_cell_volume                     3176.22
loop_
_atom_site_label
_atom_site_type_symbol
_atom_site_fract_x
_atom_site_fract_y
_atom_site_fract_z
Si1 Si 0.3268(11) -0.7515(4) 0.4866(10)
C1 C 1.132(3) -0.4256(12) 0.241(3)
C2 C 0.507(3) -0.8814(10) 0.138(2)
C3 C 0.538(3) -0.9197(11) 0.241(2)
C4 C 1.613(2) -0.4778(10) 0.588(2)
C5 C 0.059(4) -0.9204(14) -0.284(3)
H1 H 0.0650 -0.9002 -0.3396
C6 C 1.133(3) -0.3846(13) 0.321(3)
C7 C 1.110(3) -0.5010(13) 0.085(3)
H2 H 1.1061 -0.5283 0.0339
C8 C 1.512(3) -0.4092(12) 0.659(2)
H3 H 1.4489 -0.3809 0.6470
C9 C 1.225(3) -0.4965(11) 0.183(2)
H4 H 1.2983 -0.5195 0.1965
C10 C 1.005(3) -0.4292(11) 0.138(3)
H5 H 0.9304 -0.4073 0.1262
C11 C 1.604(3) -0.4223(10) 0.760(2)
H6 H 1.6007 -0.4039 0.8193
C12 C 0.865(3) -0.7698(15) -0.007(3)
H7 H 0.9051 -0.8004 -0.0243
C13 C 0.439(3) -0.9922(14) 0.282(3)
H8 H 0.3688 -1.0182 0.2647
C14 C -0.052(3) -0.9767(12) -0.223(3)
H9 H -0.1263 -0.9980 -0.2339
C15 C 0.644(4) -0.9276(15) 0.344(3)
H10 H 0.7129 -0.9009 0.3658
C16 C 0.045(3) -0.9686(12) -0.120(3)
C17 C 0.045(3) -0.9968(12) -0.019(2)
C18 C 1.603(3) -0.5081(13) 0.492(3)
C19 C 0.839(3) -0.6109(12) -0.036(2)
C20 C 0.745(2) -0.6812(10) 0.042(2)
H11 H 0.7056 -0.6498 0.0575
C21 C 0.786(3) -0.7794(14) 0.047(3)
H12 H 0.7751 -0.8171 0.0655
C22 C 0.161(4) -0.9136(14) -0.171(3)
H13 H 0.2381 -0.8927 -0.1545
C23 C 1.707(2) -0.4885(10) 0.698(2)
H14 H 1.7747 -0.5151 0.7125
C24 C 0.817(2) -0.6713(11) -0.006(3)
C25 C 0.553(3) -0.9959(14) 0.388(3)
H15 H 0.5525 -1.0204 0.4416
N1 N 0.659(2) -0.9659(11) 0.411(2)
N2 N 1.232(2) -0.4579(9) 0.262(2)
N3 N 1.510(2) -0.4387(9) 0.564(2)
N4 N 1.704(3) -0.4618(9) 0.783(2)
N5 N 0.879(2) -0.7132(10) -0.033(2)
N6 N 0.148(3) -0.9343(10) -0.099(2)
N7 N 0.428(2) -0.9553(10) 0.212(2)
N8 N -0.046(2) -0.9558(10) -0.310(2)
N9 N 0.725(2) -0.7348(9) 0.073(2)
N10 N 1.002(2) -0.4676(10) 0.059(2)
O1 O 0.042(2) -0.6686(9) 0.2363(18)
O2 O 1.045(3) -0.2431(8) 0.372(3)
O3 O 0.111(2) -0.6070(9) 0.4192(17)
O5 O 0.407(2) -0.8030(9) 0.294(2)
O6 O 0.821(3) -1.0819(13) 0.578(3)
O7 O 0.0662(18) -0.8478(8) 0.2388(16)
O8 O 0.176(2) -0.7534(9) 0.204(2)
O9 O 0.7892(18) -0.5688(8) -0.0218(17)
O10 O 0.523(2) -0.8712(8) 0.5294(18)
O11 O 0.299(3) -0.5249(9) 0.488(2)
O12 O 0.481(2) -0.6163(9) 0.5241(18)
O13 O 0.607(2) -0.7358(9) 0.281(2)
O14 O 0.395(2) -0.6878(10) 0.293(2)
O15 O 0.260(2) -0.8118(8) 0.716(2)
O16 O 0.2425(19) -0.7014(8) 0.7170(19)
O17 O 0.4682(19) -0.6337(8) 0.8527(17)
O18 O 0.496(3) -0.8664(10) 0.855(2)
O19 O -0.108(2) -0.8733(9) 0.3131(19)
O20 O 0.3252(19) -0.6239(9) 0.6176(18)
O21 O 0.405(2) -0.8814(8) 0.0565(17)
O22 O 0.4850(16) -0.7461(6) 0.5091(16)
O23 O 0.374(2) -0.8792(9) 0.6230(18)
O24 O 0.3365(16) -0.7514(6) 0.6107(15)
O25 O 0.756(2) -0.6238(10) 0.674(2)
O26 O 0.640(2) -0.6813(9) 0.468(2)
O27 O 0.266(2) -0.6020(10) 0.3268(19)
O28 O 0.0633(19) -0.7037(8) 0.5071(16)
O29 O -0.0046(18) -0.7609(8) 0.3238(16)
O30 O -0.1452(18) -0.6566(8) 0.3061(19)
O31 O 0.2473(16) -0.6929(7) 0.4197(16)
O32 O 0.2654(17) -0.8103(7) 0.4215(16)
O33 O 0.660(2) -0.7973(8) 0.477(2)
O34 O 0.020(2) -0.7639(9) 0.668(2)
O35 O 0.5598(18) -0.6763(7) 0.7068(17)
O36 O 0.5807(19) -0.8163(9) 0.7040(17)
O37 O 0.7268(19) -0.7398(8) 0.6598(17)
O38 O 0.788(2) -0.8572(8) 0.675(2)
O39 O 0.154(2) -0.9004(10) 0.4255(19)
O40 O 0.0777(19) -0.8176(9) 0.5136(17)
O41 O 0.200(2) -0.8547(9) 0.121(2)
O42 O 0.3053(19) -0.8931(10) 0.331(2)
O43 O 0.161(3) -0.6416(10) 0.112(2)
O44 O 0.374(2) -0.9739(9) 0.498(2)
O45 O 0.479(2) -0.7502(9) 0.811(2)
O46 O 0.600(2) -0.8435(10) 0.155(2)
O47 O 1.0418(18) -0.3525(8) 0.3049(17)
O48 O 1.246(2) -0.3911(9) 0.420(2)
O49 O 1.4989(19) -0.4981(9) 0.3993(17)
O50 O 0.149(2) -0.9891(9) 0.070(2)
O51 O -0.059(2) -1.0214(10) -0.036(2)
O52 O 1.6964(17) -0.5411(7) 0.5066(15)
O53 O 0.9171(17) -0.6059(9) -0.0853(17)
W1 W 0.01234(13) -0.68072(6) 0.36162(12)
W2 W 0.23215(12) -0.82977(5) 0.24140(11)
W3 W 0.03787(13) -0.83800(6) 0.36704(12)
W4 W 0.21007(13) -0.67259(6) 0.23759(12)
W5 W 0.34411(13) -0.90389(5) 0.48449(12)
W6 W 0.29741(12) -0.59916(5) 0.47761(11)
W7 W 0.53624(15) -0.74243(6) 0.36512(13)
W8 W 0.13075(15) -0.75908(6) 0.62182(13)
W9 W 0.41625(12) -0.67767(5) 0.73657(11)
W10 W 0.43785(14) -0.82513(6) 0.73991(13)
W11 W 0.64743(14) -0.81662(6) 0.60704(13)
W12 W 0.62487(13) -0.66882(6) 0.60439(12)
Cu1 Cu 1.3786(4) -0.44309(16) 0.4095(3)
Cu2 Cu 0.2809(4) -0.93868(17) 0.0599(3)
Cu3 Cu 0.8231(4) -0.97288(19) 0.5412(4)
Cu4 Cu 0.8266(4) -0.48365(17) -0.0658(3)
Cu5 Cu 0.9840(4) -0.31891(15) 0.3995(4)
Cu6 Cu 0.6553(5) -0.7525(2) 0.1685(4)
N4_2 N 0.704(3) -0.4618(9) -0.217(2)
N5A N 0.879(2) -0.2868(10) 0.467(2)
N8_2 N 0.954(2) -0.9558(10) 0.690(2)
O11_2 O 1.299(3) -0.5249(9) 0.488(2)
O17A O 1.4682(19) -0.3663(8) 0.3527(17)
O43A O 1.161(3) -0.3584(10) 0.612(2)
O44A O 0.374(2) -1.0261(9) -0.002(2)
O51A O 0.941(2) -0.9786(10) 0.464(2)
O52A O 0.6964(17) -0.4589(7) 0.0066(15)
O53A O 0.9171(17) -0.3941(9) 0.4147(17)
Cu1_2 Cu 0.3786(4) -0.44309(16) 0.4095(3)
Cu1A Cu 0.3786(4) -0.55691(16) 0.9095(3)
Cu2A Cu 0.2809(4) -1.06132(17) 0.5599(3)
Cu3_2 Cu -0.1769(4) -0.97288(19) -0.4588(4)
Cu3A Cu -0.1769(4) -1.02712(19) 0.0412(4)
Cu4_2 Cu 1.8266(4) -0.48365(17) 0.9342(3)
Cu4A Cu 1.8266(4) -0.51635(17) 0.4342(3)
Cu5A Cu 0.9840(4) -0.68109(15) -0.1005(4)
Cu5A_2 Cu -0.0160(4) -0.68109(15) -0.1005(4)
O4 O 0.299(4) -0.7671(15) -0.032(3)
loop_
_geom_bond_atom_site_label_1
_geom_bond_atom_site_label_2
_geom_bond_site_symmetry_1
_geom_bond_site_symmetry_2
Si1 O22 1_555 1_555
C1 C6 1_555 1_555
C2 C3 1_555 1_555
C3 C15 1_555 1_555
C4 C18 1_555 1_555
C5 H1 1_555 1_555
C6 O47 1_555 1_555
C7 H2 1_555 1_555
C8 H3 1_555 1_555
C9 C7 1_555 1_555
H4 C9 1_555 1_555
C10 C1 1_555 1_555
H5 C10 1_555 1_555
C11 C8 1_555 1_555
H6 C11 1_555 1_555
C12 H7 1_555 1_555
C13 H8 1_555 1_555
C14 H9 1_555 1_555
C15 H10 1_555 1_555
C16 C14 1_555 1_555
C17 C16 1_555 1_555
C18 O49 1_555 1_555
C19 C24 1_555 1_555
C20 H11 1_555 1_555
C21 C12 1_555 1_555
H12 C21 1_555 1_555
C22 C5 1_555 1_555
H13 C22 1_555 1_555
C23 C4 1_555 1_555
H14 C23 1_555 1_555
C24 C20 1_555 1_555
C25 C13 1_555 1_555
H15 C25 1_555 1_555
N1 C15 1_555 1_555
N2 C1 1_555 1_555
N3 C4 1_555 1_555
N4 C11 1_555 1_555
N5 C12 1_555 1_555
N6 C16 1_555 1_555
N7 C3 1_555 1_555
N8 C5 1_555 1_555
N9 C20 1_555 1_555
N10 C7 1_555 1_555
O1 W1 1_555 1_555
O2 Cu5 1_555 1_555
O3 W1 1_555 1_555
O5 W2 1_555 1_555
O6 Cu3 1_555 1_555
O7 W2 1_555 1_555
O8 W2 1_555 1_555
O9 C19 1_555 1_555
O10 W5 1_555 1_555
O11 W6 1_555 1_555
O12 W6 1_555 1_555
O13 W7 1_555 1_555
O14 W4 1_555 1_555
O15 W8 1_555 1_555
O16 W8 1_555 1_555
O17 W9 1_555 1_555
O18 W10 1_555 1_555
O19 W3 1_555 1_555
O20 W6 1_555 1_555
O21 C2 1_555 1_555
O22 W7 1_555 1_555
O23 W5 1_555 1_555
O24 Si1 1_555 1_555
O25 W12 1_555 1_555
O26 W7 1_555 1_555
O27 W4 1_555 1_555
O28 W1 1_555 1_555
O29 W1 1_555 1_555
O30 W1 1_555 1_555
O31 Si1 1_555 1_555
O32 Si1 1_555 1_555
O33 W7 1_555 1_555
O34 W8 1_555 1_555
O35 W9 1_555 1_555
O36 W10 1_555 1_555
O37 W11 1_555 1_555
O38 W11 1_555 1_555
O39 W3 1_555 1_555
O40 W3 1_555 1_555
O41 W2 1_555 1_555
O42 W2 1_555 1_555
O43 W4 1_555 1_555
O44 W5 1_555 1_555
O45 W9 1_555 1_555
O46 C2 1_555 1_555
O47 Cu5 1_555 1_555
O48 C6 1_555 1_555
O49 Cu1 1_555 1_555
O50 C17 1_555 1_555
O51 C17 1_555 1_555
O52 C18 1_555 1_555
O53 C19 1_555 1_555
W1 O31 1_555 1_555
W2 O32 1_555 1_555
W3 O7 1_555 1_555
W4 O1 1_555 1_555
W5 O32 1_555 1_555
W6 O3 1_555 1_555
W7 O5 1_555 1_555
W8 O24 1_555 1_555
W9 O16 1_555 1_555
W10 O15 1_555 1_555
W11 O10 1_555 1_555
W12 O12 1_555 1_555
Cu1 N2 1_555 1_555
Cu2 N6 1_555 1_555
Cu3 N1 1_555 1_555
Cu4 N10 1_555 1_555
Cu5 N5A 1_555 1_555
Cu6 N9 1_555 1_555
N4_2 Cu4 1_555 1_555
N8_2 Cu3 1_555 1_555
O11_2 Cu1 1_555 1_555
O17A Cu1 1_555 1_555
O43A Cu5 1_555 1_555
O44A Cu2 1_555 1_555
O51A Cu3 1_555 1_555
O52A Cu4 1_555 1_555
O53A Cu5 1_555 1_555
Cu1_2 O11 1_555 1_555
Cu1A O17 1_555 1_555
Cu2A O44 1_555 1_555
Cu3_2 N8 1_555 1_555
Cu3A O51 1_555 1_555
Cu4_2 N4 1_555 1_555
Cu4A O52 1_555 1_555
Cu5A N5 1_555 1_555
Cu5A_2 O43 1_555 1_555
C8 N3 1_555 1_555
C9 N2 1_555 1_555
C10 N10 1_555 1_555
C13 N7 1_555 1_555
C14 N8 1_555 1_555
C21 N9 1_555 1_555
C22 N6 1_555 1_555
C23 N4 1_555 1_555
C24 N5 1_555 1_555
C25 N1 1_555 1_555
N3 Cu1 1_555 1_555
N7 Cu2 1_555 1_555
O8 W4 1_555 1_555
O9 Cu4 1_555 1_555
O13 Cu6 1_555 1_555
O14 W7 1_555 1_555
O20 W9 1_555 1_555
O21 Cu2 1_555 1_555
O22 W11 1_555 1_555
O22 W12 1_555 1_555
O23 W10 1_555 1_555
O24 W9 1_555 1_555
O24 W10 1_555 1_555
O26 W12 1_555 1_555
O27 W6 1_555 1_555
O28 W8 1_555 1_555
O29 W3 1_555 1_555
O31 W4 1_555 1_555
O31 W6 1_555 1_555
O32 W3 1_555 1_555
O33 W11 1_555 1_555
O35 W12 1_555 1_555
O36 W11 1_555 1_555
O37 W12 1_555 1_555
O39 W5 1_555 1_555
O40 W8 1_555 1_555
O41 Cu2 1_555 1_555
O42 W5 1_555 1_555
O45 W10 1_555 1_555
O46 Cu6 1_555 1_555
O48 Cu1 1_555 1_555
O50 Cu2 1_555 1_555
O53 Cu5A 1_555 1_555

#END
