
#######################################################################
#
#                 Cambridge Crystallographic Data Centre
#                                CCDC 
#
#######################################################################
#
# If this CIF has been generated from an entry in the Cambridge 
# Structural Database, then it will include bibliographic, chemical, 
# crystal, experimental, refinement or atomic coordinate data resulting 
# from the CCDC's data processing and validation procedures.
#
#######################################################################

data_AQUDAS
_symmetry_cell_setting           monoclinic
_symmetry_space_group_name_H-M   'P c'
_symmetry_Int_Tables_number      7
_space_group_name_Hall           'P -2yc'
loop_
_symmetry_equiv_pos_site_id
_symmetry_equiv_pos_as_xyz
1 x,y,z
2 x,-y,1/2+z
_cell_length_a                   11.4095(17)
_cell_length_b                   23.103(3)
_cell_length_c                   13.7748(15)
_cell_angle_alpha                90
_cell_angle_beta                 118.723(9)
_cell_angle_gamma                90
_cell_volume                     3184.17
loop_
_atom_site_label
_atom_site_type_symbol
_atom_site_fract_x
_atom_site_fract_y
_atom_site_fract_z
Cu1 Cu -1.4797(5) -0.55670(19) -0.0352(4)
Cu2 Cu -0.3817(5) -0.0614(2) 0.3140(4)
Cu3 Cu -0.9230(5) -0.0280(2) -0.1676(4)
Cu4 Cu -0.9263(4) -0.51500(18) 0.4394(4)
Cu5 Cu -1.0832(5) -0.68078(18) -0.0252(4)
Cu6 Cu -0.7535(5) -0.2468(2) 0.2074(4)
Ge1 Ge -0.4275(5) -0.2490(2) -0.1131(4)
W1 W -0.51603(15) -0.32196(7) -0.36355(12)
W2 W -0.53781(16) -0.17535(7) -0.36747(14)
W3 W -0.72681(15) -0.33071(7) -0.22955(13)
W4 W -0.74978(16) -0.18420(8) -0.23358(15)
W5 W -0.23216(17) -0.24107(8) -0.24990(14)
W6 W -0.63840(17) -0.25717(7) 0.00745(14)
W7 W -0.39647(15) -0.40081(6) -0.10202(13)
W8 W -0.30908(16) -0.32745(7) 0.13670(14)
W9 W -0.44381(16) -0.09597(7) -0.10988(13)
W10 W -0.11314(15) -0.31967(8) 0.01264(14)
W11 W -0.13867(16) -0.16137(7) 0.00707(14)
W12 W -0.33177(15) -0.16919(7) 0.13254(13)
C1 C -0.145(3) -0.0041(13) 0.394(3)
C2 C -1.618(4) -0.5883(15) -0.284(3)
H1 H -1.5519 -0.6148 -0.2738
C3 C -1.713(3) -0.5197(12) -0.213(3)
C4 C -1.328(3) -0.5044(14) 0.188(3)
H2 H -1.3994 -0.4807 0.1754
C5 C -0.610(4) -0.1208(14) 0.230(3)
C6 C -0.638(3) -0.0818(13) 0.142(3)
C7 C -0.743(4) -0.0769(16) 0.038(4)
H3 H -0.8133 -0.1032 0.0146
C8 C -0.884(3) -0.2184(15) 0.329(3)
H4 H -0.8772 -0.1805 0.3094
C9 C -0.653(4) -0.0008(18) -0.013(4)
H5 H -0.6590 0.0268 -0.0648
C10 C -0.536(4) -0.0075(17) 0.090(4)
H6 H -0.4616 0.0149 0.1062
C11 C -1.711(4) -0.5762(15) -0.386(3)
H7 H -1.7077 -0.5952 -0.4437
C12 C -1.811(3) -0.5128(13) -0.321(2)
H8 H -1.8821 -0.4888 -0.3334
C13 C -1.211(3) -0.5005(12) 0.282(3)
H9 H -1.2098 -0.4729 0.3320
C14 C -1.111(4) -0.5675(14) 0.232(3)
H10 H -1.0398 -0.5904 0.2399
C15 C -0.947(3) -0.3911(15) 0.406(3)
C16 C -0.919(3) -0.3338(16) 0.375(3)
C17 C -0.149(3) -0.0340(14) 0.493(3)
C18 C -1.702(4) -0.4918(15) -0.115(3)
C19 C -0.262(3) -0.0881(13) 0.545(3)
H11 H -0.3326 -0.1133 0.5277
C20 C -0.166(4) -0.0799(15) 0.654(3)
H12 H -0.1752 -0.0987 0.7098
C21 C -0.954(4) -0.2324(15) 0.388(3)
H13 H -0.9853 -0.2025 0.4148
C22 C -0.050(3) -0.0196(14) 0.601(3)
H14 H 0.0178 0.0065 0.6142
C23 C -0.843(3) -0.3177(14) 0.331(2)
H15 H -0.7952 -0.3471 0.3192
C24 C -1.233(3) -0.5710(12) 0.134(3)
C25 C -1.234(5) -0.6148(17) 0.045(4)
N1 N -0.061(3) -0.0451(11) 0.681(2)
N2 N -0.827(3) -0.2642(10) 0.301(2)
N3 N -0.748(3) -0.0355(14) -0.031(3)
N4 N -1.614(3) -0.5635(12) -0.191(3)
N5 N -1.338(3) -0.5433(11) 0.113(2)
N6 N -0.977(3) -0.2861(12) 0.406(2)
N7 N -1.094(3) -0.5304(12) 0.318(2)
N8 N -0.252(3) -0.0613(11) 0.470(2)
N9 N -0.531(3) -0.0455(12) 0.167(2)
N10 N -1.813(3) -0.5374(10) -0.411(2)
O1 O -0.280(3) -0.2471(11) 0.160(2)
O3 O -0.686(2) -0.1858(9) -0.3361(19)
O4 O -1.143(3) -0.7552(11) -0.004(2)
O5 O -0.357(2) -0.1870(9) -0.0414(16)
O6 O -0.930(4) 0.0792(14) -0.203(3)
O7 O 0.009(2) -0.1284(11) 0.059(2)
O8 O -0.507(2) -0.1978(10) 0.075(2)
O9 O -0.432(2) -0.2475(8) -0.2425(18)
O10 O -0.736(3) -0.3177(11) -0.095(2)
O11 O -0.469(2) -0.1230(9) -0.252(2)
O12 O -0.659(2) -0.3228(8) -0.3342(17)
O13 O -0.5917(19) -0.2524(8) -0.1379(16)
O14 O -0.890(2) -0.1451(10) -0.303(2)
O15 O -0.854(3) -0.3789(13) -0.299(3)
O16 O -0.337(2) -0.3089(8) -0.0369(19)
O17 O -0.498(2) -0.3104(9) 0.0753(18)
O18 O -0.040(3) 0.0205(12) 0.409(2)
O19 O -0.606(3) -0.1309(10) -0.484(2)
O20 O -0.404(2) -0.4726(10) -0.118(2)
O21 O -0.619(3) -0.1279(11) -0.155(2)
O22 O -0.407(2) -0.1024(9) 0.0427(18)
O23 O -0.256(2) -0.0950(9) -0.0524(19)
O24 O -0.099(2) -0.2402(9) 0.0482(18)
O25 O -0.118(3) -0.2366(11) -0.291(2)
O26 O -0.370(2) -0.1862(9) -0.358(2)
O27 O -0.572(2) -0.3671(9) -0.474(2)
O28 O -0.427(2) -0.3751(9) -0.2422(17)
O29 O -0.577(2) -0.3790(8) -0.1491(17)
O30 O -0.829(2) -0.2608(9) -0.2889(18)
O31 O -0.759(2) -0.2046(10) -0.100(2)
O32 O -0.183(3) -0.1828(11) -0.146(2)
O33 O -0.256(2) -0.0126(10) 0.2990(19)
O34 O -0.706(3) -0.1568(12) 0.217(2)
O35 O -0.505(3) -0.1180(10) 0.319(2)
O36 O -0.167(2) -0.1533(10) 0.1366(18)
O37 O -0.306(2) -0.1441(10) 0.257(2)
O38 O -0.161(2) -0.2970(10) -0.1365(18)
O39 O -0.140(2) -0.3344(9) 0.1372(19)
O40 O -0.269(3) -0.3550(11) 0.263(2)
O41 O -0.208(2) -0.3915(11) -0.0491(19)
O42 O -0.709(3) -0.2631(11) 0.095(2)
O43 O 0.043(3) -0.3398(11) 0.064(3)
O44 O -0.484(2) -0.0242(10) -0.130(2)
O45 O -1.015(2) -0.3945(10) 0.4580(18)
O46 O -0.581(2) -0.2474(9) -0.433(2)
O47 O -0.346(3) -0.2989(10) -0.349(2)
O48 O -0.361(3) -0.3969(11) 0.052(2)
O49 O -0.883(2) -0.4308(9) 0.395(2)
O50 O -1.146(2) -0.6456(8) 0.0648(18)
O51 O -1.347(2) -0.6081(9) -0.0432(17)
O52 O -1.7926(18) -0.4593(8) -0.1322(17)
O53 O -1.604(2) -0.5030(10) -0.025(2)
Cu1A Cu -0.4797(5) -0.44330(19) -0.5352(4)
Cu1_2 Cu -0.4797(5) -0.55670(19) -0.0352(4)
Cu2A Cu -0.3817(5) 0.0614(2) -0.1860(4)
Cu3A Cu 0.0770(5) 0.0280(2) 0.3324(4)
Cu3_2 Cu 0.0770(5) -0.0280(2) 0.8324(4)
Cu4A Cu -1.9263(4) -0.48500(18) -0.0606(4)
Cu4_2 Cu -1.9263(4) -0.51500(18) -0.5606(4)
Cu5A Cu -0.0832(5) -0.31922(18) 0.4748(4)
Cu5A_2 Cu -1.0832(5) -0.31922(18) 0.4748(4)
N1_2 N -1.061(3) -0.0451(11) -0.319(2)
N6A N -0.977(3) -0.7139(12) -0.094(2)
N10_2 N -0.813(3) -0.5374(10) 0.589(2)
O18A O -1.040(3) -0.0205(12) -0.091(2)
O20_2 O -1.404(2) -0.4726(10) -0.118(2)
O27A O -1.572(2) -0.6329(9) 0.026(2)
O40A O -1.269(3) -0.6450(11) -0.237(2)
O44A O -0.484(2) 0.0242(10) 0.370(2)
O45A O -1.015(2) -0.6055(10) -0.0420(18)
O52A O -0.7926(18) -0.5407(8) 0.3678(17)
O2 O -0.396(4) -0.7665(15) 0.908(3)
loop_
_geom_bond_atom_site_label_1
_geom_bond_atom_site_label_2
_geom_bond_site_symmetry_1
_geom_bond_site_symmetry_2
Cu1 N4 1_555 1_555
Cu2 N8 1_555 1_555
Cu3 N3 1_555 1_555
Cu4 N7 1_555 1_555
Cu5 O4 1_555 1_555
Cu6 N2 1_555 1_555
Ge1 O5 1_555 1_555
W1 O9 1_555 1_555
W2 O3 1_555 1_555
W3 O10 1_555 1_555
W4 O3 1_555 1_555
W5 O9 1_555 1_555
W6 O8 1_555 1_555
W7 O16 1_555 1_555
W8 O1 1_555 1_555
W9 O5 1_555 1_555
W10 O16 1_555 1_555
W11 O5 1_555 1_555
W12 O1 1_555 1_555
C1 C17 1_555 1_555
C2 H1 1_555 1_555
C3 C12 1_555 1_555
C4 H2 1_555 1_555
C5 C6 1_555 1_555
C6 C7 1_555 1_555
C7 H3 1_555 1_555
C8 H4 1_555 1_555
C9 H5 1_555 1_555
C10 C9 1_555 1_555
H6 C10 1_555 1_555
C11 C2 1_555 1_555
H7 C11 1_555 1_555
C12 H8 1_555 1_555
C13 C4 1_555 1_555
H9 C13 1_555 1_555
C14 H10 1_555 1_555
C15 C16 1_555 1_555
C16 C23 1_555 1_555
C17 C22 1_555 1_555
C18 C3 1_555 1_555
C19 H11 1_555 1_555
C20 C19 1_555 1_555
H12 C20 1_555 1_555
C21 C8 1_555 1_555
H13 C21 1_555 1_555
C22 H14 1_555 1_555
C23 H15 1_555 1_555
C24 C14 1_555 1_555
C25 C24 1_555 1_555
N1 C20 1_555 1_555
N2 C8 1_555 1_555
N3 C7 1_555 1_555
N4 C2 1_555 1_555
N5 Cu1 1_555 1_555
N6 C16 1_555 1_555
N7 C13 1_555 1_555
N8 C17 1_555 1_555
N9 Cu2 1_555 1_555
N10 C11 1_555 1_555
O5 W12 1_555 1_555
O6 Cu3 1_555 1_555
O7 W11 1_555 1_555
O8 W12 1_555 1_555
O9 Ge1 1_555 1_555
O10 W6 1_555 1_555
O11 W2 1_555 1_555
O12 W1 1_555 1_555
O13 Ge1 1_555 1_555
O14 W4 1_555 1_555
O15 W3 1_555 1_555
O16 Ge1 1_555 1_555
O17 W6 1_555 1_555
O18 C1 1_555 1_555
O19 W2 1_555 1_555
O20 W7 1_555 1_555
O21 W4 1_555 1_555
O22 W9 1_555 1_555
O23 W9 1_555 1_555
O24 W10 1_555 1_555
O25 W5 1_555 1_555
O26 W2 1_555 1_555
O27 W1 1_555 1_555
O28 W1 1_555 1_555
O29 W3 1_555 1_555
O30 W3 1_555 1_555
O31 W4 1_555 1_555
O32 W5 1_555 1_555
O33 Cu2 1_555 1_555
O34 Cu6 1_555 1_555
O35 Cu2 1_555 1_555
O36 W11 1_555 1_555
O37 Cu2 1_555 1_555
O38 W5 1_555 1_555
O39 W8 1_555 1_555
O40 W8 1_555 1_555
O41 W7 1_555 1_555
O42 Cu6 1_555 1_555
O43 W10 1_555 1_555
O44 W9 1_555 1_555
O45 C15 1_555 1_555
O46 W1 1_555 1_555
O47 W1 1_555 1_555
O48 W7 1_555 1_555
O49 Cu4 1_555 1_555
O50 Cu5 1_555 1_555
O51 Cu1 1_555 1_555
O52 C18 1_555 1_555
O53 Cu1 1_555 1_555
Cu1A O27 1_555 1_555
Cu1_2 O20 1_555 1_555
Cu2A O44 1_555 1_555
Cu3A O18 1_555 1_555
Cu3_2 N1 1_555 1_555
Cu4A O52 1_555 1_555
Cu4_2 N10 1_555 1_555
Cu5A O40 1_555 1_555
Cu5A_2 N6 1_555 1_555
N1_2 Cu3 1_555 1_555
N6A Cu5 1_555 1_555
N10_2 Cu4 1_555 1_555
O18A Cu3 1_555 1_555
O20_2 Cu1 1_555 1_555
O27A Cu1 1_555 1_555
O40A Cu5 1_555 1_555
O44A Cu2 1_555 1_555
O45A Cu5 1_555 1_555
O52A Cu4 1_555 1_555
W2 O9 1_555 1_555
W2 O46 1_555 1_555
W3 O12 1_555 1_555
W3 O13 1_555 1_555
W4 O13 1_555 1_555
W4 O30 1_555 1_555
W5 O26 1_555 1_555
W5 O47 1_555 1_555
W6 O13 1_555 1_555
W6 O31 1_555 1_555
W6 O42 1_555 1_555
W7 O28 1_555 1_555
W7 O29 1_555 1_555
W8 O16 1_555 1_555
W8 O17 1_555 1_555
W8 O48 1_555 1_555
W9 O11 1_555 1_555
W9 O21 1_555 1_555
W10 O38 1_555 1_555
W10 O39 1_555 1_555
W10 O41 1_555 1_555
W11 O23 1_555 1_555
W11 O24 1_555 1_555
W11 O32 1_555 1_555
W12 O22 1_555 1_555
W12 O36 1_555 1_555
W12 O37 1_555 1_555
C1 O33 1_555 1_555
C3 N4 1_555 1_555
C4 N5 1_555 1_555
C5 O34 1_555 1_555
C5 O35 1_555 1_555
C6 N9 1_555 1_555
C9 N3 1_555 1_555
C10 N9 1_555 1_555
C12 N10 1_555 1_555
C14 N7 1_555 1_555
C15 O49 1_555 1_555
C18 O53 1_555 1_555
C19 N8 1_555 1_555
C21 N6 1_555 1_555
C22 N1 1_555 1_555
C23 N2 1_555 1_555
C24 N5 1_555 1_555
C25 O50 1_555 1_555
C25 O51 1_555 1_555
O45 Cu5A_2 1_555 1_555

#END
