
#######################################################################
#
#                 Cambridge Crystallographic Data Centre
#                                CCDC 
#
#######################################################################
#
# If this CIF has been generated from an entry in the Cambridge 
# Structural Database, then it will include bibliographic, chemical, 
# crystal, experimental, refinement or atomic coordinate data resulting 
# from the CCDC's data processing and validation procedures.
#
#######################################################################

data_AQUNAC
_symmetry_cell_setting           triclinic
_symmetry_space_group_name_H-M   'P -1'
_symmetry_Int_Tables_number      2
_space_group_name_Hall           '-P 1'
loop_
_symmetry_equiv_pos_site_id
_symmetry_equiv_pos_as_xyz
1 x,y,z
2 -x,-y,-z
_cell_length_a                   8.564(3)
_cell_length_b                   11.284(5)
_cell_length_c                   12.434(5)
_cell_angle_alpha                101.952(5)
_cell_angle_beta                 94.142(3)
_cell_angle_gamma                98.800(3)
_cell_volume                     1154.96
loop_
_atom_site_label
_atom_site_type_symbol
_atom_site_fract_x
_atom_site_fract_y
_atom_site_fract_z
Zn1 Zn 0.5000 0.5000 0.5000
N1 N 0.5514(2) 0.4624(2) 0.66673(15)
N2 N 0.9207(3) 0.4925(3) 0.97713(17)
O1 O 0.7385(2) 0.4911(2) 0.46709(16)
H1 H 0.8054 0.5628 0.5000
H2 H 0.7773 0.4216 0.4373
C1 C 0.6999(3) 0.4780(2) 0.71579(19)
H3 H 0.7835 0.5009 0.6764
C2 C 0.7365(3) 0.4619(2) 0.82190(18)
C3 C 0.6104(3) 0.4264(3) 0.8779(2)
H4 H 0.6287 0.4147 0.9493
C4 C 0.4582(3) 0.4083(3) 0.8279(2)
H5 H 0.3725 0.3837 0.8648
C5 C 0.4333(3) 0.4270(3) 0.7226(2)
H6 H 0.3296 0.4142 0.6893
C6 C 0.9032(3) 0.4805(2) 0.87284(19)
C7 C 1.0348(4) 0.4839(4) 0.8018(3)
H7 H 1.1346 0.5088 0.8474
H8 H 1.0238 0.5416 0.7559
H9 H 1.0313 0.4036 0.7560
O2 O 0.4365(3) 0.31776(19) 0.43474(15)
H10 H 0.4190 0.2857 0.3604
H11 H 0.4352 0.2591 0.4751
Zn1_2 Zn 1.5000 0.5000 1.5000
N1A N 1.4486(2) 0.5376(2) 1.33327(15)
N1A_2 N 0.4486(2) 0.5376(2) 0.33327(15)
N2A N 1.0793(3) 0.5075(3) 1.02287(17)
O1A O 0.2615(2) 0.5089(2) 0.53291(16)
H1A H 0.1946 0.4372 0.5000
H2A H 0.2227 0.5784 0.5627
C1A C 1.3001(3) 0.5220(2) 1.28421(19)
H3A H 1.2165 0.4991 1.3236
C2A C 1.2635(3) 0.5381(2) 1.17810(18)
C3A C 1.3896(3) 0.5736(3) 1.1221(2)
H4A H 1.3713 0.5853 1.0507
C4A C 1.5418(3) 0.5917(3) 1.1721(2)
H5A H 1.6275 0.6163 1.1352
C5A C 1.5667(3) 0.5730(3) 1.2774(2)
H6A H 1.6704 0.5858 1.3107
C6A C 1.0968(3) 0.5195(2) 1.12716(19)
C7A C 0.9652(4) 0.5161(4) 1.1982(3)
H7A H 0.8654 0.4912 1.1526
H8A H 0.9762 0.4584 1.2441
H9A H 0.9687 0.5964 1.2440
O2A O 0.5635(3) 0.68224(19) 0.56526(15)
H10A H 0.5810 0.7143 0.6396
H11A H 0.5648 0.7409 0.5249
C8 C 0.6323(4) 0.1050(3) 0.7010(2)
N3 N 0.4531(3) 0.1494(2) 0.56308(19)
C9 C 0.9951(4) 0.1586(3) 1.0057(2)
C10 C 0.7973(4) 0.1196(3) 0.7531(2)
C11 C 0.3330(4) 0.0882(3) 0.6014(2)
H12 H 0.2307 0.0828 0.5680
N4 N 0.8134(3) 0.1307(3) 0.8575(2)
N5 N 0.9729(3) 0.1449(3) 0.9012(2)
C12 C 1.1638(4) 0.1803(3) 1.0527(2)
C13 C 0.5989(4) 0.1553(3) 0.6110(2)
H13 H 0.6837 0.1957 0.5824
N6 N 1.3582(3) 0.2306(2) 1.21191(19)
C14 C 1.4718(4) 0.2289(3) 1.1460(3)
H14 H 1.5769 0.2466 1.1775
C15 C 0.5044(4) 0.0423(3) 0.7397(2)
H15 H 0.5204 0.0071 0.8001
C16 C 1.2071(4) 0.2058(3) 1.1664(2)
H16 H 1.1270 0.2055 1.2131
C17 C 1.4419(4) 0.2020(4) 1.0328(3)
H17 H 1.5249 0.1998 0.9885
C18 C 0.3534(4) 0.0322(3) 0.6886(3)
H18 H 0.2667 -0.0116 0.7125
C19 C 1.2867(4) 0.1784(3) 0.9864(2)
H19 H 1.2641 0.1610 0.9099
C20 C 0.9289(5) 0.1200(5) 0.6818(3)
H20 H 1.0262 0.1626 0.7253
H21 H 0.9059 0.1609 0.6235
H22 H 0.9398 0.0369 0.6504
C21 C 0.8666(4) 0.1540(5) 1.0785(3)
H23 H 0.8494 0.2360 1.1082
H24 H 0.8962 0.1168 1.1380
H25 H 0.7707 0.1063 1.0367
N7 N 0.9592(4) 0.2626(3) 0.4252(3)
O3 O 0.8693(12) 0.2819(7) 0.3577(4)
O4 O 1.0067(8) 0.1662(7) 0.3940(8)
O5 O 0.9871(6) 0.3315(4) 0.5174(3)
O6? O 1.0243(15) 0.3420(13) 0.3862(11)
O7? O 0.8193(14) 0.2508(17) 0.428(3)
O8? O 1.025(2) 0.1801(19) 0.436(3)
loop_
_geom_bond_atom_site_label_1
_geom_bond_atom_site_label_2
_geom_bond_site_symmetry_1
_geom_bond_site_symmetry_2
Zn1 N1 1_555 1_555
N1 C1 1_555 1_555
N2 C6 1_555 1_555
O1 Zn1 1_555 1_555
H1 O1 1_555 1_555
H2 O1 1_555 1_555
C1 H3 1_555 1_555
C2 C1 1_555 1_555
C3 C2 1_555 1_555
H4 C3 1_555 1_555
C4 C3 1_555 1_555
H5 C4 1_555 1_555
C5 N1 1_555 1_555
H6 C5 1_555 1_555
C6 C2 1_555 1_555
C7 C6 1_555 1_555
H7 C7 1_555 1_555
H8 C7 1_555 1_555
H9 C7 1_555 1_555
C8 C10 1_555 1_555
O2 Zn1 1_555 1_555
H10 O2 1_555 1_555
H11 O2 1_555 1_555
N3 C11 1_555 1_555
C9 N5 1_555 1_555
C10 N4 1_555 1_555
C11 H12 1_555 1_555
N4 N5 1_555 1_555
C12 C9 1_555 1_555
C13 C8 1_555 1_555
H13 C13 1_555 1_555
N6 C14 1_555 1_555
C14 H14 1_555 1_555
C15 C8 1_555 1_555
H15 C15 1_555 1_555
C16 C12 1_555 1_555
H16 C16 1_555 1_555
C17 C14 1_555 1_555
H17 C17 1_555 1_555
C18 C11 1_555 1_555
H18 C18 1_555 1_555
C19 C12 1_555 1_555
H19 C19 1_555 1_555
C20 C10 1_555 1_555
H20 C20 1_555 1_555
H21 C20 1_555 1_555
H22 C20 1_555 1_555
C21 C9 1_555 1_555
H23 C21 1_555 1_555
H24 C21 1_555 1_555
H25 C21 1_555 1_555
N7 O3 1_555 1_555
O4 N7 1_555 1_555
O5 N7 1_555 1_555
Zn1_2 N1A 1_555 1_555
N1A C1A 1_555 1_555
N1A_2 Zn1 1_555 1_555
N2A N2 1_555 1_555
O1A Zn1 1_555 1_555
H1A O1A 1_555 1_555
H2A O1A 1_555 1_555
C1A H3A 1_555 1_555
C2A C1A 1_555 1_555
C3A C2A 1_555 1_555
H4A C3A 1_555 1_555
C4A C3A 1_555 1_555
H5A C4A 1_555 1_555
C5A N1A 1_555 1_555
H6A C5A 1_555 1_555
C6A N2A 1_555 1_555
C7A C6A 1_555 1_555
H7A C7A 1_555 1_555
H8A C7A 1_555 1_555
H9A C7A 1_555 1_555
O2A Zn1 1_555 1_555
H10A O2A 1_555 1_555
H11A O2A 1_555 1_555
C4 C5 1_555 1_555
N3 C13 1_555 1_555
N6 C16 1_555 1_555
C15 C18 1_555 1_555
C17 C19 1_555 1_555
C2A C6A 1_555 1_555
C4A C5A 1_555 1_555

#END
