
#######################################################################
#
#                 Cambridge Crystallographic Data Centre
#                                CCDC 
#
#######################################################################
#
# If this CIF has been generated from an entry in the Cambridge 
# Structural Database, then it will include bibliographic, chemical, 
# crystal, experimental, refinement or atomic coordinate data resulting 
# from the CCDC's data processing and validation procedures.
#
#######################################################################

data_AQUQIN
_symmetry_cell_setting           triclinic
_symmetry_space_group_name_H-M   'P -1'
_symmetry_Int_Tables_number      2
_space_group_name_Hall           '-P 1'
loop_
_symmetry_equiv_pos_site_id
_symmetry_equiv_pos_as_xyz
1 x,y,z
2 -x,-y,-z
_cell_length_a                   11.688(5)
_cell_length_b                   12.312(5)
_cell_length_c                   13.805(5)
_cell_angle_alpha                104.595(5)
_cell_angle_beta                 99.753(5)
_cell_angle_gamma                111.665(5)
_cell_volume                     1708.91
loop_
_atom_site_label
_atom_site_type_symbol
_atom_site_fract_x
_atom_site_fract_y
_atom_site_fract_z
Cu1 Cu 1.33145(12) 1.60477(12) 1.27370(8)
Cu2 Cu 1.44298(12) 2.08652(9) 1.95658(6)
Mo1 Mo 1.10080(4) 1.08125(4) 0.93866(3)
Mo2 Mo 0.86556(5) 0.97705(4) 0.71448(4)
Mo3 Mo 0.87969(4) 1.16937(4) 0.99473(4)
Mo4 Mo 0.93032(4) 0.76685(4) 0.77753(3)
C1 C 1.3887(9) 1.5842(8) 0.9417(8)
H1 H 1.4008 1.5793 0.8762
C2 C 1.4953(10) 1.6277(10) 1.0273(9)
H2 H 1.5791 1.6514 1.0231
C3 C 1.4641(10) 1.6315(8) 1.1168(8)
H3 H 1.5326 1.6616 1.1767
C4 C 1.2486(8) 1.5557(6) 1.0457(6)
H4 H 1.1653 1.5307 1.0514
C5 C 1.2668(9) 1.5485(6) 0.9505(6)
C6 C 1.1509(8) 1.5018(6) 0.8561(6)
H5 H 1.0799 1.5095 0.8799
H6 H 1.1720 1.5535 0.8132
C7 C 1.0083(5) 1.2745(5) 0.7862(4)
H7 H 0.9467 1.2792 0.8197
C8 C 1.1069(7) 1.2005(8) 0.6923(6)
H8 H 1.1271 1.1445 0.6477
C9 C 1.1235(9) 1.5748(7) 1.3627(6)
H9 H 1.0977 1.4921 1.3228
C10 C 1.0505(9) 1.6022(8) 1.4222(7)
H10 H 0.9771 1.5384 1.4233
C11 C 1.0826(8) 1.7201(8) 1.4797(6)
H11 H 1.0313 1.7391 1.5195
C12 C 1.1928(6) 1.8124(6) 1.4786(4)
C13 C 1.2643(6) 1.7812(6) 1.4166(5)
H12 H 1.3374 1.8441 1.4141
C14 C 1.2293(8) 1.9467(7) 1.5392(5)
H13 H 1.2680 1.9978 1.4998
H14 H 1.1518 1.9560 1.5459
C15 C 1.2971(6) 1.9998(6) 1.7346(5)
H15 H 1.2161 1.9759 1.7450
C16 C 1.4954(7) 2.0641(7) 1.7557(5)
H16 H 1.5832 2.0959 1.7880
C17 C 1.4614(6) 1.4583(6) 1.3376(5)
H17 H 1.3852 1.3938 1.2910
C18 C 1.5510(6) 1.4281(6) 1.3887(4)
C19 C 1.6644(6) 1.5233(6) 1.4567(5)
H18 H 1.7266 1.5062 1.4927
C20 C 1.6846(7) 1.6446(7) 1.4706(6)
H19 H 1.7610 1.7106 1.5155
C21 C 1.5887(8) 1.6659(7) 1.4165(6)
H20 H 1.6024 1.7478 1.4262
C22 C 1.5213(6) 1.2934(6) 1.3683(5)
H21 H 1.5774 1.2861 1.4242
H22 H 1.4331 1.2482 1.3673
C23 C 1.4531(5) 1.1746(5) 1.1753(4)
H23 H 1.3647 1.1479 1.1622
C24 C 1.6378(6) 1.2098(6) 1.1614(5)
H24 H 1.7033 1.2091 1.1315
N1 N 1.3463(6) 1.5977(5) 1.1315(5)
N2 N 1.1109(5) 1.3728(5) 0.7931(4)
N3 N 1.1846(6) 1.3347(7) 0.7340(6)
N4 N 1.0023(4) 1.1679(4) 0.7263(4)
N5 N 1.2313(6) 1.6615(6) 1.3589(4)
N6 N 1.3192(5) 1.9925(5) 1.6438(4)
N7 N 1.4478(6) 2.0329(6) 1.6553(4)
N8 N 1.4075(5) 2.0465(5) 1.8095(4)
N9 N 1.4781(6) 1.5750(6) 1.3514(4)
N10 N 1.5393(4) 1.2387(4) 1.2681(4)
N11 N 1.6603(5) 1.2638(5) 1.2605(4)
N12 N 1.5126(5) 1.1545(4) 1.1042(4)
O1 O 1.1931(4) 1.2214(3) 0.9338(3)
O2 O 1.0416(3) 0.9731(3) 0.7977(3)
O3 O 0.9608(3) 0.8784(3) 0.9425(3)
O4 O 0.8956(4) 0.9325(4) 0.5971(3)
O5 O 0.7334(4) 1.0047(4) 0.6860(3)
O6 O 0.7982(3) 0.8268(3) 0.7399(3)
O7 O 0.9151(3) 1.0797(3) 0.8764(3)
O8 O 0.9622(4) 1.3159(4) 0.9951(3)
O9 O 0.7222(4) 1.1394(4) 0.9504(3)
O10 O 1.2123(3) 1.0323(3) 0.9909(3)
O11 O 0.9491(4) 0.7192(4) 0.6563(3)
O12 O 0.9062(3) 1.2117(3) 1.1432(3)
O13 O 0.8282(4) 0.6323(3) 0.7894(3)
Cu2_2 Cu 1.44298(12) 1.08652(9) 0.95658(6)
Mo1A Mo 0.89920(4) 0.91875(4) 1.06134(3)
Mo3A Mo 1.12031(4) 0.83063(4) 1.00527(4)
Mo4A Mo 1.06968(4) 1.23315(4) 1.22247(3)
N12_2 N 1.5126(5) 2.1545(4) 2.1042(4)
O3A O 1.0392(3) 1.1216(3) 1.0575(3)
O10A O 0.7877(3) 0.9677(3) 1.0091(3)
O12A O 1.0938(3) 0.7883(3) 0.8568(3)
loop_
_geom_bond_atom_site_label_1
_geom_bond_atom_site_label_2
_geom_bond_site_symmetry_1
_geom_bond_site_symmetry_2
Cu1 N1 1_555 1_555
Cu2 N8 1_555 1_555
Mo1 O1 1_555 1_555
Mo2 N4 1_555 1_555
Mo3 O7 1_555 1_555
Mo4 O2 1_555 1_555
C1 H1 1_555 1_555
C2 C1 1_555 1_555
H2 C2 1_555 1_555
C3 C2 1_555 1_555
H3 C3 1_555 1_555
C4 H4 1_555 1_555
C5 C1 1_555 1_555
C6 C5 1_555 1_555
H5 C6 1_555 1_555
H6 C6 1_555 1_555
C7 H7 1_555 1_555
C8 H8 1_555 1_555
C9 H9 1_555 1_555
C10 C9 1_555 1_555
H10 C10 1_555 1_555
C11 C10 1_555 1_555
H11 C11 1_555 1_555
C12 C11 1_555 1_555
C13 C12 1_555 1_555
H12 C13 1_555 1_555
C14 C12 1_555 1_555
H13 C14 1_555 1_555
H14 C14 1_555 1_555
C15 H15 1_555 1_555
C16 H16 1_555 1_555
C17 H17 1_555 1_555
C18 C17 1_555 1_555
C19 C18 1_555 1_555
H18 C19 1_555 1_555
C20 C19 1_555 1_555
H19 C20 1_555 1_555
C21 C20 1_555 1_555
H20 C21 1_555 1_555
C22 C18 1_555 1_555
H21 C22 1_555 1_555
H22 C22 1_555 1_555
C23 H23 1_555 1_555
C24 H24 1_555 1_555
N1 C3 1_555 1_555
N2 C6 1_555 1_555
N3 C8 1_555 1_555
N4 C7 1_555 1_555
N5 Cu1 1_555 1_555
N6 C14 1_555 1_555
N7 C16 1_555 1_555
N8 C15 1_555 1_555
N9 Cu1 1_555 1_555
N10 C22 1_555 1_555
N11 C24 1_555 1_555
N12 C23 1_555 1_555
O2 Mo1 1_555 1_555
O3 Mo1 1_555 1_555
O4 Mo2 1_555 1_555
O5 Mo2 1_555 1_555
O6 Mo2 1_555 1_555
O7 Mo1 1_555 1_555
O8 Mo3 1_555 1_555
O9 Mo3 1_555 1_555
O10 Mo1 1_555 1_555
O11 Mo4 1_555 1_555
O12 Mo3 1_555 1_555
O13 Mo4 1_555 1_555
Cu2_2 N12 1_555 1_555
Mo1A O3 1_555 1_555
Mo3A O3 1_555 1_555
Mo4A O12 1_555 1_555
N12_2 Cu2 1_555 1_555
O3A Mo1 1_555 1_555
O10A Mo3 1_555 1_555
O12A Mo4 1_555 1_555
Mo2 O2 1_555 1_555
Mo2 O7 1_555 1_555
Mo3 O3A 1_555 1_555
Mo4 O3 1_555 1_555
Mo4 O6 1_555 1_555
C4 C5 1_555 1_555
C4 N1 1_555 1_555
C7 N2 1_555 1_555
C8 N4 1_555 1_555
C9 N5 1_555 1_555
C13 N5 1_555 1_555
C15 N6 1_555 1_555
C16 N8 1_555 1_555
C17 N9 1_555 1_555
C21 N9 1_555 1_555
C23 N10 1_555 1_555
C24 N12 1_555 1_555
N2 N3 1_555 1_555
N6 N7 1_555 1_555
N10 N11 1_555 1_555
O10 Mo3A 1_555 1_555
Mo1A O3A 1_555 1_555
Mo1A O10A 1_555 1_555
Mo3A O12A 1_555 1_555
Mo4A O3A 1_555 1_555

#END
