
#######################################################################
#
#                 Cambridge Crystallographic Data Centre
#                                CCDC 
#
#######################################################################
#
# If this CIF has been generated from an entry in the Cambridge 
# Structural Database, then it will include bibliographic, chemical, 
# crystal, experimental, refinement or atomic coordinate data resulting 
# from the CCDC's data processing and validation procedures.
#
#######################################################################

data_AQUQAF
_symmetry_cell_setting           triclinic
_symmetry_space_group_name_H-M   'P -1'
_symmetry_Int_Tables_number      2
_space_group_name_Hall           '-P 1'
loop_
_symmetry_equiv_pos_site_id
_symmetry_equiv_pos_as_xyz
1 x,y,z
2 -x,-y,-z
_cell_length_a                   8.0243(16)
_cell_length_b                   10.283(2)
_cell_length_c                   18.892(4)
_cell_angle_alpha                78.10(3)
_cell_angle_beta                 78.59(3)
_cell_angle_gamma                76.55(3)
_cell_volume                     1465.01
loop_
_atom_site_label
_atom_site_type_symbol
_atom_site_fract_x
_atom_site_fract_y
_atom_site_fract_z
S1 S 0.3337(3) 1.2862(2) 0.73116(12)
Bi1 Bi 0.25823(3) 1.04415(3) 0.737469(15)
Bi2 Bi 0.72433(3) 0.84826(3) 0.814740(15)
N1 N 0.3637(8) 1.1095(7) 0.6113(4)
C1 C 0.1791(9) 1.3642(8) 0.7963(4)
C2 C 0.0566(11) 1.2042(9) 0.6063(5)
C3 C 0.2474(10) 1.1786(9) 0.5693(5)
C4 C 0.3002(12) 1.2241(11) 0.4963(6)
H1 H 0.2182 1.2708 0.4667
C5 C 0.4708(13) 1.2013(10) 0.4672(5)
H2 H 0.5072 1.2313 0.4179
C6 C 0.5930(12) 1.1303(10) 0.5143(5)
H3 H 0.7113 1.1152 0.4965
C7 C 0.5351(10) 1.0858(8) 0.5842(5)
C8 C 0.6493(11) 1.0090(8) 0.6386(5)
C9 C 0.0996(10) 0.8261(8) 0.7034(5)
C10 C 0.0195(10) 0.7228(8) 0.6831(5)
C11 C 0.1021(12) 0.6405(9) 0.6319(5)
H4 H 0.2113 0.6482 0.6056
C12 C 0.0124(13) 0.5439(9) 0.6213(6)
H5 H 0.0633 0.4859 0.5878
C13 C -0.1474(12) 0.5359(9) 0.6601(5)
H6 H -0.2055 0.4720 0.6534
C14 C -0.2234(11) 0.6226(8) 0.7094(5)
C15 C -0.4044(11) 0.6272(9) 0.7521(5)
C16 C 0.8021(10) 0.5708(8) 0.9330(5)
C17 C 0.6547(11) 0.6548(8) 0.9779(4)
C18 C 0.5999(14) 0.6135(10) 1.0515(5)
H7 H 0.6540 0.5317 1.0763
C19 C 0.4636(13) 0.6965(10) 1.0871(5)
H8 H 0.4233 0.6707 1.1365
C20 C 0.3867(12) 0.8181(10) 1.0492(5)
H9 H 0.2976 0.8768 1.0731
C21 C 0.4441(10) 0.8511(9) 0.9752(5)
C22 C 0.3573(10) 0.9728(8) 0.9253(5)
O1 O 0.9030(7) 0.9068(6) 0.9049(3)
H10 H 0.925(2) 0.9602(15) 0.9285(10)
H11 H 0.852(5) 0.854(3) 0.9372(14)
O2 O 0.7381(8) 1.1384(8) 0.7772(4)
H12 H 0.816(4) 1.148(10) 0.740(2)
H13 H 0.646(3) 1.1823(14) 0.762(3)
O4 O 0.0343(8) 1.1581(7) 0.6769(4)
O5 O -0.0552(8) 1.2657(8) 0.5715(4)
O6 O 0.5716(8) 0.9761(7) 0.7052(4)
O7 O 0.8065(8) 0.9762(8) 0.6188(4)
O8 O 0.0253(7) 0.8749(6) 0.7594(3)
O9 O 0.2362(8) 0.8549(7) 0.6652(4)
O10 O -0.4556(8) 0.7109(7) 0.7992(4)
O11 O -0.4893(9) 0.5482(8) 0.7426(5)
O12 O 0.8624(7) 0.6291(6) 0.8712(3)
O13 O 0.8542(9) 0.4481(7) 0.9580(4)
O14 O 0.4193(7) 0.9845(6) 0.8583(3)
O15 O 0.2309(8) 1.0497(7) 0.9538(3)
N2 N -0.1389(8) 0.7127(7) 0.7211(4)
N3 N 0.5819(8) 0.7700(7) 0.9412(4)
N4 N 0.1928(9) 1.4833(7) 0.8049(4)
H16 H 0.1191 1.5250 0.8366
H17 H 0.2757 1.5204 0.7789
N5 N 0.0526(8) 1.3069(8) 0.8359(4)
H18 H -0.0268 1.3538 0.8635
N6 N 0.0409(8) 1.1728(7) 0.8352(4)
H19 H -0.0675 1.1737 0.8286
H20 H 0.0550 1.1241 0.8798
Bi2_2 Bi -0.27567(3) 0.84826(3) 0.814740(15)
O8_2 O 1.0253(7) 0.8749(6) 0.7594(3)
O10_2 O 0.5444(8) 0.7109(7) 0.7992(4)
N2_2 N 0.8611(8) 0.7127(7) 0.7211(4)
O3 O 0.2104(8) 0.7197(7) 0.9013(5)
H14 H 0.281(10) 0.751(8) 0.866(4)
H15 H 0.128(5) 0.787(5) 0.907(5)
loop_
_geom_bond_atom_site_label_1
_geom_bond_atom_site_label_2
_geom_bond_site_symmetry_1
_geom_bond_site_symmetry_2
S1 Bi1 1_555 1_555
Bi1 N1 1_555 1_555
Bi2 O1 1_555 1_555
N1 C3 1_555 1_555
C1 S1 1_555 1_555
C2 C3 1_555 1_555
C3 C4 1_555 1_555
C4 H1 1_555 1_555
C5 C4 1_555 1_555
H2 C5 1_555 1_555
C6 C5 1_555 1_555
H3 C6 1_555 1_555
C7 N1 1_555 1_555
C8 C7 1_555 1_555
C9 C10 1_555 1_555
C10 C11 1_555 1_555
C11 H4 1_555 1_555
C12 C11 1_555 1_555
H5 C12 1_555 1_555
C13 C12 1_555 1_555
H6 C13 1_555 1_555
C14 C13 1_555 1_555
C15 C14 1_555 1_555
C16 C17 1_555 1_555
C17 C18 1_555 1_555
C18 H7 1_555 1_555
C19 C18 1_555 1_555
H8 C19 1_555 1_555
C20 C19 1_555 1_555
H9 C20 1_555 1_555
C21 C20 1_555 1_555
C22 C21 1_555 1_555
O1 H10 1_555 1_555
H11 O1 1_555 1_555
O2 Bi2 1_555 1_555
H12 O2 1_555 1_555
H13 O2 1_555 1_555
O3 H14 1_555 1_555
H15 O3 1_555 1_555
O4 Bi1 1_555 1_555
O5 C2 1_555 1_555
O6 Bi1 1_555 1_555
O7 C8 1_555 1_555
O8 Bi1 1_555 1_555
O9 Bi1 1_555 1_555
O10 C15 1_555 1_555
O11 C15 1_555 1_555
O12 Bi2 1_555 1_555
O13 C16 1_555 1_555
O14 Bi1 1_555 1_555
O15 C22 1_555 1_555
N2 C10 1_555 1_555
N3 Bi2 1_555 1_555
N4 C1 1_555 1_555
H16 N4 1_555 1_555
H17 N4 1_555 1_555
N5 C1 1_555 1_555
H18 N5 1_555 1_555
N6 Bi1 1_555 1_555
H19 N6 1_555 1_555
H20 N6 1_555 1_555
Bi2_2 O8 1_555 1_555
O8_2 Bi2 1_555 1_555
O10_2 Bi2 1_555 1_555
N2_2 Bi2 1_555 1_555
Bi2 O6 1_555 1_555
Bi2 O14 1_555 1_555
C2 O4 1_555 1_555
C6 C7 1_555 1_555
C8 O6 1_555 1_555
C9 O8 1_555 1_555
C9 O9 1_555 1_555
C14 N2 1_555 1_555
C16 O12 1_555 1_555
C17 N3 1_555 1_555
C21 N3 1_555 1_555
C22 O14 1_555 1_555
O10 Bi2_2 1_555 1_555
N2 Bi2_2 1_555 1_555
N5 N6 1_555 1_555

#END
