
#######################################################################
#
#                 Cambridge Crystallographic Data Centre
#                                CCDC 
#
#######################################################################
#
# If this CIF has been generated from an entry in the Cambridge 
# Structural Database, then it will include bibliographic, chemical, 
# crystal, experimental, refinement or atomic coordinate data resulting 
# from the CCDC's data processing and validation procedures.
#
#######################################################################

data_AQUQOT
_symmetry_cell_setting           triclinic
_symmetry_space_group_name_H-M   'P -1'
_symmetry_Int_Tables_number      2
_space_group_name_Hall           '-P 1'
loop_
_symmetry_equiv_pos_site_id
_symmetry_equiv_pos_as_xyz
1 x,y,z
2 -x,-y,-z
_cell_length_a                   10.3590(12)
_cell_length_b                   11.7860(14)
_cell_length_c                   12.5130(14)
_cell_angle_alpha                65.0030(10)
_cell_angle_beta                 70.1550(10)
_cell_angle_gamma                83.231(2)
_cell_volume                     1301.81
loop_
_atom_site_label
_atom_site_type_symbol
_atom_site_fract_x
_atom_site_fract_y
_atom_site_fract_z
Mo1 Mo 0.16466(5) 0.49446(5) 0.49820(4)
Mo2 Mo 0.00148(5) 0.75244(5) 0.48832(5)
Mo3 Mo 0.28121(6) 0.71537(5) 0.20559(5)
Mo4 Mo 0.16993(6) 0.45407(5) 0.23685(5)
C1 C 0.3848(6) 0.8392(6) 0.3441(6)
H1 H 0.3205 0.9012 0.3301
C2 C 0.5058(7) 0.6794(6) 0.3444(7)
H2 H 0.5410 0.6092 0.3295
C3 C 0.5499(7) 0.7264(6) 0.4073(7)
H3 H 0.6186 0.6960 0.4438
C4 C 0.4853(6) 0.9161(5) 0.4549(5)
C5 C 0.3781(6) 0.9923(6) 0.4809(6)
H4 H 0.2961 0.9867 0.4682
C6 C 0.6065(6) 0.9236(6) 0.4743(6)
H5 H 0.6780 0.8717 0.4570
N1 N 0.4027(5) 0.7487(5) 0.3053(5)
N2 N 0.4706(5) 0.8303(4) 0.4061(5)
O1 O 0.2706(4) 0.5229(4) 0.5627(4)
O2 O 0.1358(4) 0.6848(3) 0.3827(3)
O4 O 0.1414(4) 0.3310(3) 0.5716(3)
O5 O 0.2792(4) 0.5139(3) 0.3372(3)
O6 O 0.2427(5) 0.8695(4) 0.1472(4)
O7 O 0.4360(4) 0.7003(4) 0.1049(4)
O8 O 0.1598(4) 0.6373(4) 0.1730(4)
O9 O -0.0329(4) 0.8953(4) 0.3880(4)
O10 O 0.1058(4) 0.7861(4) 0.5513(4)
O11 O -0.1623(4) 0.7098(3) 0.6332(4)
O12 O 0.0101(4) 0.4605(3) 0.4100(3)
O13 O 0.0456(4) 0.4392(4) 0.1807(4)
O14 O 0.3194(4) 0.4413(4) 0.1324(4)
Mo1A Mo -0.16466(5) 0.50554(5) 0.50180(4)
Mo2A Mo -0.00148(5) 0.24756(5) 0.51168(5)
Mo3A Mo 0.71879(6) 1.28463(5) 0.79441(5)
Mo3A_2 Mo -0.28121(6) 0.28463(5) 0.79441(5)
Mo4A Mo -0.16993(6) 0.54593(5) 0.76315(5)
C1A C 0.6152(6) 1.1608(6) 0.6559(6)
H1A H 0.6795 1.0988 0.6699
C2A C 0.4942(7) 1.3206(6) 0.6556(7)
H2A H 0.4590 1.3908 0.6705
C3A C 0.4501(7) 1.2736(6) 0.5927(7)
H3A H 0.3814 1.3040 0.5562
C4A C 0.5147(6) 1.0839(5) 0.5451(5)
C5A C 0.6219(6) 1.0077(6) 0.5191(6)
H4A H 0.7039 1.0133 0.5318
C6A C 0.3935(6) 1.0764(6) 0.5257(6)
H5A H 0.3220 1.1283 0.5430
N1A N 0.5973(5) 1.2513(5) 0.6947(5)
N1A_2 N -0.4027(5) 0.2513(5) 0.6947(5)
N2A N 0.5294(5) 1.1697(4) 0.5939(5)
O1A O -0.2706(4) 0.4771(4) 0.4373(4)
O2A O -0.1358(4) 0.3152(3) 0.6173(3)
O4A O -0.1414(4) 0.6690(3) 0.4284(3)
O5A O -0.2792(4) 0.4861(3) 0.6628(3)
O6A O -0.2427(5) 0.1305(4) 0.8528(4)
O7A O -0.4360(4) 0.2997(4) 0.8951(4)
O8A O -0.1598(4) 0.3627(4) 0.8270(4)
O9A O 0.0329(4) 0.1047(4) 0.6120(4)
O10A O -0.1058(4) 0.2139(4) 0.4487(4)
O11A O 0.1623(4) 0.2902(3) 0.3668(4)
O12A O -0.0101(4) 0.5395(3) 0.5900(3)
O13A O -0.0456(4) 0.5608(4) 0.8193(4)
O14A O -0.3194(4) 0.5587(4) 0.8676(4)
C7 C -0.2153(7) 0.8109(7) 0.0054(6)
H6 H -0.2643 0.8629 -0.0462
C8 C -0.1630(8) 0.6993(7) 0.0094(7)
H7 H -0.1683 0.6599 -0.0397
C9 C -0.1121(7) 0.7361(6) 0.1476(6)
H8 H -0.0775 0.7282 0.2099
C10 C -0.2174(7) 0.9414(5) 0.1194(5)
C11 C -0.1238(7) 0.9923(6) 0.1435(6)
H9 H -0.0397 0.9552 0.1449
C12 C -0.1559(7) 1.1004(6) 0.1660(6)
H10 H -0.0936 1.1367 0.1820
C13 C -0.2794(7) 1.1508(6) 0.1640(6)
C14 C -0.3770(7) 1.0980(6) 0.1431(6)
H11 H -0.4628 1.1328 0.1454
C15 C -0.3428(6) 0.9924(6) 0.1190(5)
H12 H -0.4047 0.9562 0.1027
C16 C -0.2700(8) 1.2941(7) 0.2626(7)
H13 H -0.2073 1.2514 0.3032
C17 C -0.4141(9) 1.4353(8) 0.1875(8)
H14 H -0.4660 1.5068 0.1701
C18 C -0.4020(8) 1.3495(7) 0.1445(7)
H15 H -0.4467 1.3491 0.0916
N3 N -0.1006(6) 0.6551(5) 0.0993(5)
H16 H -0.0601 0.5849 0.1206
N4 N -0.1823(5) 0.8324(5) 0.0919(4)
N5 N -0.3156(6) 1.2625(5) 0.1880(5)
N6 N -0.3324(9) 1.3969(7) 0.2655(7)
H17 H -0.3245 1.4348 0.3086
O3 O 0.1885(6) 1.0903(4) 0.2805(4)
loop_
_geom_bond_atom_site_label_1
_geom_bond_atom_site_label_2
_geom_bond_site_symmetry_1
_geom_bond_site_symmetry_2
Mo1 O1 1_555 1_555
Mo2 O2 1_555 1_555
Mo3 N1 1_555 1_555
Mo4 O5 1_555 1_555
C1 H1 1_555 1_555
C2 H2 1_555 1_555
C3 C2 1_555 1_555
H3 C3 1_555 1_555
C4 C5 1_555 1_555
C5 H4 1_555 1_555
C6 C4 1_555 1_555
H5 C6 1_555 1_555
C7 H6 1_555 1_555
C8 C7 1_555 1_555
H7 C8 1_555 1_555
C9 H8 1_555 1_555
C10 C11 1_555 1_555
C11 H9 1_555 1_555
C12 C11 1_555 1_555
H10 C12 1_555 1_555
C13 C12 1_555 1_555
C14 C13 1_555 1_555
H11 C14 1_555 1_555
C15 C10 1_555 1_555
H12 C15 1_555 1_555
C16 H13 1_555 1_555
C17 H14 1_555 1_555
C18 C17 1_555 1_555
H15 C18 1_555 1_555
N1 C1 1_555 1_555
N2 C1 1_555 1_555
N3 C8 1_555 1_555
H16 N3 1_555 1_555
N4 C7 1_555 1_555
N5 C13 1_555 1_555
N6 C16 1_555 1_555
H17 N6 1_555 1_555
O2 Mo1 1_555 1_555
O4 Mo1 1_555 1_555
O5 Mo1 1_555 1_555
O6 Mo3 1_555 1_555
O7 Mo3 1_555 1_555
O8 Mo3 1_555 1_555
O9 Mo2 1_555 1_555
O10 Mo2 1_555 1_555
O11 Mo2 1_555 1_555
O12 Mo1 1_555 1_555
O13 Mo4 1_555 1_555
O14 Mo4 1_555 1_555
Mo1A O12 1_555 1_555
Mo2A O4 1_555 1_555
Mo3A N1A 1_555 1_555
Mo3A_2 N1A_2 1_555 1_555
Mo4A O11 1_555 1_555
C1A H1A 1_555 1_555
C2A H2A 1_555 1_555
C3A C2A 1_555 1_555
H3A C3A 1_555 1_555
C4A C5A 1_555 1_555
C5A C6 1_555 1_555
H4A C5A 1_555 1_555
C6A C5 1_555 1_555
H5A C6A 1_555 1_555
N1A C1A 1_555 1_555
N2A C1A 1_555 1_555
O1A Mo1A 1_555 1_555
O2A Mo1A 1_555 1_555
O4A Mo2 1_555 1_555
O5A Mo1A 1_555 1_555
O6A Mo3A_2 1_555 1_555
O7A Mo3A_2 1_555 1_555
O8A Mo3A_2 1_555 1_555
O9A Mo2A 1_555 1_555
O10A Mo2A 1_555 1_555
O11A Mo4 1_555 1_555
O12A Mo1 1_555 1_555
O13A Mo4A 1_555 1_555
O14A Mo4A 1_555 1_555
Mo2 O12A 1_555 1_555
Mo3 O2 1_555 1_555
Mo3 O5 1_555 1_555
Mo4 O8 1_555 1_555
Mo4 O12 1_555 1_555
C2 N1 1_555 1_555
C3 N2 1_555 1_555
C4 N2 1_555 1_555
C9 N3 1_555 1_555
C9 N4 1_555 1_555
C10 N4 1_555 1_555
C14 C15 1_555 1_555
C16 N5 1_555 1_555
C17 N6 1_555 1_555
C18 N5 1_555 1_555
O12 Mo2A 1_555 1_555
Mo1A O4A 1_555 1_555
Mo1A O12A 1_555 1_555
Mo2A O2A 1_555 1_555
Mo2A O11A 1_555 1_555
Mo3A_2 O2A 1_555 1_555
Mo3A_2 O5A 1_555 1_555
Mo4A O5A 1_555 1_555
Mo4A O8A 1_555 1_555
Mo4A O12A 1_555 1_555
C2A N1A 1_555 1_555
C3A N2A 1_555 1_555
C4A C6A 1_555 1_555
C4A N2A 1_555 1_555

#END
