
#######################################################################
#
#                 Cambridge Crystallographic Data Centre
#                                CCDC 
#
#######################################################################
#
# If this CIF has been generated from an entry in the Cambridge 
# Structural Database, then it will include bibliographic, chemical, 
# crystal, experimental, refinement or atomic coordinate data resulting 
# from the CCDC's data processing and validation procedures.
#
#######################################################################

data_AQUQUZ
_symmetry_cell_setting           triclinic
_symmetry_space_group_name_H-M   'P -1'
_symmetry_Int_Tables_number      2
_space_group_name_Hall           '-P 1'
loop_
_symmetry_equiv_pos_site_id
_symmetry_equiv_pos_as_xyz
1 x,y,z
2 -x,-y,-z
_cell_length_a                   12.1830(14)
_cell_length_b                   12.4050(15)
_cell_length_c                   12.8800(15)
_cell_angle_alpha                68.221(2)
_cell_angle_beta                 64.875(2)
_cell_angle_gamma                89.813(2)
_cell_volume                     1608.8
loop_
_atom_site_label
_atom_site_type_symbol
_atom_site_fract_x
_atom_site_fract_y
_atom_site_fract_z
Ni1 Ni 0.5000 1.0000 0.5000
Mo1 Mo 0.07002(5) 0.61151(5) 1.01368(5)
Mo2 Mo 0.31832(5) 0.68922(5) 0.73332(5)
Mo3 Mo 0.20391(5) 0.38150(5) 1.01004(5)
Mo4 Mo 0.05247(5) 0.73321(5) 0.73339(5)
C1 C 0.6719(6) 1.0585(6) 0.5910(6)
H1 H 0.6623 1.1369 0.5623
C2 C 0.6571(6) 0.8746(6) 0.6342(6)
H2 H 0.6335 0.8000 0.6412
C3 C 0.7385(6) 0.9010(6) 0.6702(6)
H3 H 0.7802 0.8491 0.7063
C4 C 0.8336(6) 1.0958(6) 0.6453(6)
C5 C 0.8005(7) 1.1950(7) 0.6655(7)
H4 H 0.7197 1.2072 0.6879
C6 C 0.8877(7) 1.2764(7) 0.6526(8)
H5 H 0.8670 1.3455 0.6621
C7 C 1.0068(7) 1.2544(7) 0.6252(7)
C8 C 1.0374(7) 1.1527(6) 0.6094(7)
H6 H 1.1166 1.1374 0.5927
C9 C 0.9508(7) 1.0729(7) 0.6183(7)
H7 H 0.9718 1.0048 0.6063
C10 C 1.0792(8) 1.4284(7) 0.6422(8)
H8 H 1.0025 1.4472 0.6806
N1 N 1.1849(6) 1.4868(6) 0.6138(6)
H9 H 1.1944 1.5472 0.6288
C11 C 1.2224(8) 1.3448(9) 0.5549(11)
H10 H 1.2635 1.2929 0.5220
C12 C 0.7243(5) 0.9720(6) 0.2975(6)
H11 H 0.7673 1.0360 0.2942
C13 C 0.5828(6) 0.8279(6) 0.3555(7)
H12 H 0.5092 0.7736 0.4023
C14 C 0.6778(6) 0.8301(6) 0.2512(7)
H13 H 0.6812 0.7803 0.2113
C15 C 0.8876(6) 0.9604(6) 0.1054(6)
C16 C 0.9781(6) 1.0339(6) 0.0963(6)
H14 H 0.9638 1.0559 0.1619
C17 C 0.9089(6) 0.9244(6) 0.0108(6)
H15 H 0.8482 0.8725 0.0185
C18 C 0.3915(6) 0.8197(6) 0.8716(6)
H16 H 0.3573 0.8834 0.8401
C19 C 0.4500(6) 0.6514(6) 0.9139(7)
H17 H 0.4626 0.5765 0.9169
C20 C 0.4874(6) 0.7071(6) 0.9683(7)
H18 H 0.5307 0.6788 1.0145
C21 C 0.4758(6) 0.9078(6) 0.9721(6)
C22 C 0.3897(6) 0.9787(7) 1.0008(7)
H19 H 0.3142 0.9636 1.0023
C23 C 0.5862(6) 0.9292(6) 0.9731(7)
H20 H 0.6442 0.8812 0.9560
N2 N 0.6137(5) 0.9740(5) 0.5855(5)
N3 N 0.7477(5) 1.0190(5) 0.6435(5)
N4 N 1.0980(5) 1.3393(5) 0.6084(6)
C24 C 1.2751(8) 1.4360(9) 0.5575(11)
H21 H 1.3593 1.4603 0.5260
N5 N 0.6111(4) 0.9189(5) 0.3829(5)
N6 N 0.7699(5) 0.9209(5) 0.2148(5)
N7 N 0.3906(4) 0.7219(5) 0.8535(5)
N8 N 0.4489(5) 0.8144(5) 0.9421(5)
O1 O 0.1399(4) 0.6435(4) 1.0901(4)
O2 O -0.0768(4) 0.6446(4) 1.0769(4)
O4 O 0.1457(3) 0.7361(4) 0.8515(4)
O6 O 0.3849(4) 0.8363(4) 0.6321(4)
O7 O 0.4289(4) 0.6136(4) 0.6797(4)
O8 O 0.2203(4) 0.5451(4) 0.9026(4)
O9 O 0.3097(4) 0.3288(4) 0.9104(4)
O10 O 0.2739(4) 0.4049(4) 1.0914(4)
O11 O 0.0903(4) 0.2404(4) 1.1439(4)
O12 O 0.0243(3) 0.4400(4) 1.0976(4)
O13 O -0.0086(4) 0.6831(4) 0.6596(4)
O14 O 0.2069(4) 0.6647(4) 0.6750(4)
O15 O 0.1155(4) 0.8793(4) 0.6366(4)
Ni1_2 Ni 1.5000 1.0000 -0.5000
Mo1A Mo 0.92998(5) 1.38849(5) -0.01368(5)
Mo1A_2 Mo -0.07002(5) 0.38849(5) 0.98632(5)
Mo2A Mo 0.68168(5) 1.31078(5) 0.26668(5)
Mo2A_2 Mo 0.68168(5) 1.31078(5) 1.26668(5)
Mo3A Mo 0.79609(5) 1.61850(5) -0.01004(5)
Mo3A_2 Mo -0.20391(5) 0.61850(5) 0.98996(5)
Mo4A Mo 0.94753(5) 1.26679(5) 0.26661(5)
Mo4A_2 Mo -0.05247(5) 0.26679(5) 1.26661(5)
C1A C 0.3281(6) 0.9415(6) 0.4090(6)
H1A H 0.3377 0.8631 0.4377
C2A C 0.3429(6) 1.1254(6) 0.3658(6)
H2A H 0.3665 1.2000 0.3588
C3A C 0.2615(6) 1.0990(6) 0.3298(6)
H3A H 0.2198 1.1509 0.2937
C4A C 0.1664(6) 0.9042(6) 0.3547(6)
C5A C 0.1995(7) 0.8050(7) 0.3345(7)
H4A H 0.2803 0.7928 0.3121
C6A C 0.1123(7) 0.7236(7) 0.3474(8)
H5A H 0.1330 0.6545 0.3379
C7A C -0.0068(7) 0.7456(7) 0.3748(7)
C8A C -0.0374(7) 0.8473(6) 0.3906(7)
H6A H -0.1166 0.8626 0.4073
C9A C 0.0492(7) 0.9271(7) 0.3817(7)
H7A H 0.0282 0.9952 0.3937
C10A C -0.0792(8) 0.5716(7) 0.3578(8)
H8A H -0.0025 0.5528 0.3194
N1A N -0.1849(6) 0.5132(6) 0.3862(6)
H9A H -0.1944 0.4528 0.3712
C11A C -0.2224(8) 0.6552(9) 0.4451(11)
H10A H -0.2635 0.7071 0.4780
C12A C 1.2757(5) 1.0280(6) -0.2975(6)
H11A H 1.2327 0.9640 -0.2942
C13A C 1.4172(6) 1.1721(6) -0.3555(7)
H12A H 1.4908 1.2264 -0.4023
C14A C 1.3222(6) 1.1699(6) -0.2512(7)
H13A H 1.3188 1.2197 -0.2113
C15A C 1.1124(6) 1.0396(6) -0.1054(6)
C16A C 1.0219(6) 0.9661(6) -0.0963(6)
H14A H 1.0362 0.9441 -0.1619
C17A C 1.0911(6) 1.0756(6) -0.0108(6)
H15A H 1.1518 1.1275 -0.0185
C18A C 0.6085(6) 1.1803(6) 1.1284(6)
H16A H 0.6427 1.1166 1.1599
C19A C 0.5500(6) 1.3486(6) 1.0861(7)
H17A H 0.5374 1.4235 1.0831
C20A C 0.5126(6) 1.2929(6) 1.0317(7)
H18A H 0.4693 1.3212 0.9855
C21A C 0.5242(6) 1.0922(6) 1.0279(6)
C22A C 0.6103(6) 1.0213(7) 0.9992(7)
H19A H 0.6858 1.0364 0.9977
C23A C 0.4138(6) 1.0708(6) 1.0269(7)
H20A H 0.3558 1.1188 1.0440
N2A N 0.3863(5) 1.0260(5) 0.4145(5)
N3A N 0.2523(5) 0.9810(5) 0.3565(5)
N4A N -0.0980(5) 0.6607(5) 0.3916(6)
C24A C -0.2751(8) 0.5640(9) 0.4425(11)
H21A H -0.3593 0.5397 0.4740
N5A N 1.3889(4) 1.0811(5) -0.3829(5)
N5A_2 N 0.3889(4) 1.0811(5) 0.6171(5)
N6A N 1.2301(5) 1.0791(5) -0.2148(5)
N7A N 0.6094(4) 1.2781(5) 1.1465(5)
N7A_2 N 0.6094(4) 1.2781(5) 0.1465(5)
N8A N 0.5511(5) 1.1856(5) 1.0579(5)
O1A O 0.8601(4) 1.3565(4) -0.0901(4)
O2A O 0.0768(4) 0.3554(4) 0.9231(4)
O2A_2 O 1.0768(4) 1.3554(4) -0.0769(4)
O2_2 O 0.9232(4) 1.6446(4) 0.0769(4)
O4A O 0.8543(3) 1.2639(4) 0.1485(4)
O6A O 0.6151(4) 1.1637(4) 0.3679(4)
O7A O 0.5711(4) 1.3864(4) 0.3203(4)
O8A O 0.7797(4) 1.4549(4) 0.0974(4)
O9A O 0.6903(4) 1.6712(4) 0.0896(4)
O10A O 0.7261(4) 1.5951(4) -0.0914(4)
O11A O -0.0903(4) 0.7596(4) 0.8561(4)
O11A_2 O 0.9097(4) 1.7596(4) -0.1439(4)
O11_2 O 1.0903(4) 1.2404(4) 0.1439(4)
O12A O -0.0243(3) 0.5600(4) 0.9024(4)
O12A_2 O 0.9757(3) 1.5600(4) -0.0976(4)
O12_2 O 1.0243(3) 1.4400(4) 0.0976(4)
O13A O 1.0086(4) 1.3169(4) 0.3404(4)
O14A O 0.7931(4) 1.3353(4) 0.3250(4)
O15A O 0.8845(4) 1.1207(4) 0.3634(4)
O3 O 0.2305(7) 0.4963(8) 0.2803(8)
O5 O 0.4334(6) 0.6432(7) 0.2835(7)
loop_
_geom_bond_atom_site_label_1
_geom_bond_atom_site_label_2
_geom_bond_site_symmetry_1
_geom_bond_site_symmetry_2
Ni1 N2 1_555 1_555
Mo1 O1 1_555 1_555
Mo2 N7 1_555 1_555
Mo3 O8 1_555 1_555
Mo4 O4 1_555 1_555
C1 H1 1_555 1_555
C2 H2 1_555 1_555
C3 C2 1_555 1_555
H3 C3 1_555 1_555
C4 C5 1_555 1_555
C5 H4 1_555 1_555
C6 C5 1_555 1_555
H5 C6 1_555 1_555
C7 C6 1_555 1_555
C8 C7 1_555 1_555
H6 C8 1_555 1_555
C9 C4 1_555 1_555
H7 C9 1_555 1_555
C10 H8 1_555 1_555
N1 C10 1_555 1_555
H9 N1 1_555 1_555
C11 H10 1_555 1_555
C12 H11 1_555 1_555
C13 H12 1_555 1_555
C14 C13 1_555 1_555
H13 C14 1_555 1_555
C15 C16 1_555 1_555
C16 H14 1_555 1_555
C17 C15 1_555 1_555
H15 C17 1_555 1_555
C18 H16 1_555 1_555
C19 H17 1_555 1_555
C20 C19 1_555 1_555
H18 C20 1_555 1_555
C21 C22 1_555 1_555
C22 H19 1_555 1_555
C23 C21 1_555 1_555
H20 C23 1_555 1_555
N2 C1 1_555 1_555
N3 C1 1_555 1_555
N4 C7 1_555 1_555
C24 N1 1_555 1_555
H21 C24 1_555 1_555
N5 Ni1 1_555 1_555
N6 C12 1_555 1_555
N7 C18 1_555 1_555
N8 C18 1_555 1_555
O2 Mo1 1_555 1_555
O4 Mo1 1_555 1_555
O6 Ni1 1_555 1_555
O7 Mo2 1_555 1_555
O8 Mo1 1_555 1_555
O9 Mo3 1_555 1_555
O10 Mo3 1_555 1_555
O11 Mo3 1_555 1_555
O12 Mo1 1_555 1_555
O13 Mo4 1_555 1_555
O14 Mo2 1_555 1_555
O15 Mo4 1_555 1_555
Ni1_2 N5A 1_555 1_555
Mo1A O1A 1_555 1_555
Mo1A_2 O12 1_555 1_555
Mo2A N7A_2 1_555 1_555
Mo2A_2 N7A 1_555 1_555
Mo3A O2_2 1_555 1_555
Mo3A_2 O2 1_555 1_555
Mo4A O4A 1_555 1_555
Mo4A_2 O11 1_555 1_555
C1A H1A 1_555 1_555
C2A H2A 1_555 1_555
C3A C2A 1_555 1_555
H3A C3A 1_555 1_555
C4A C5A 1_555 1_555
C5A H4A 1_555 1_555
C6A C5A 1_555 1_555
H5A C6A 1_555 1_555
C7A C6A 1_555 1_555
C8A C7A 1_555 1_555
H6A C8A 1_555 1_555
C9A C4A 1_555 1_555
H7A C9A 1_555 1_555
C10A H8A 1_555 1_555
N1A C10A 1_555 1_555
H9A N1A 1_555 1_555
C11A H10A 1_555 1_555
C12A H11A 1_555 1_555
C13A H12A 1_555 1_555
C14A C13A 1_555 1_555
H13A C14A 1_555 1_555
C15A C16A 1_555 1_555
C16A C17 1_555 1_555
H14A C16A 1_555 1_555
C17A C16 1_555 1_555
H15A C17A 1_555 1_555
C18A H16A 1_555 1_555
C19A H17A 1_555 1_555
C20A C19A 1_555 1_555
H18A C20A 1_555 1_555
C21A C22A 1_555 1_555
C22A C23 1_555 1_555
H19A C22A 1_555 1_555
C23A C22 1_555 1_555
H20A C23A 1_555 1_555
N2A Ni1 1_555 1_555
N3A C1A 1_555 1_555
N4A C7A 1_555 1_555
C24A N1A 1_555 1_555
H21A C24A 1_555 1_555
N5A C12A 1_555 1_555
N5A_2 Ni1 1_555 1_555
N6A C12A 1_555 1_555
N7A C18A 1_555 1_555
N8A C18A 1_555 1_555
O2A Mo3 1_555 1_555
O2A_2 Mo1A 1_555 1_555
O4A Mo1A 1_555 1_555
O6A Ni1 1_555 1_555
O7A Mo2A 1_555 1_555
O8A Mo1A 1_555 1_555
O9A Mo3A 1_555 1_555
O10A Mo3A 1_555 1_555
O11A Mo4 1_555 1_555
O11A_2 Mo3A 1_555 1_555
O11_2 Mo4A 1_555 1_555
O12A Mo1 1_555 1_555
O12A_2 Mo1A 1_555 1_555
O12_2 Mo1A 1_555 1_555
O13A Mo4A 1_555 1_555
O14A Mo2A 1_555 1_555
O15A Mo4A 1_555 1_555
Mo2 O4 1_555 1_555
Mo2 O6 1_555 1_555
Mo2 O8 1_555 1_555
Mo3 O12 1_555 1_555
Mo4 O14 1_555 1_555
Mo4 O12A 1_555 1_555
C2 N2 1_555 1_555
C3 N3 1_555 1_555
C4 N3 1_555 1_555
C8 C9 1_555 1_555
C10 N4 1_555 1_555
C11 N4 1_555 1_555
C11 C24 1_555 1_555
C12 N5 1_555 1_555
C13 N5 1_555 1_555
C14 N6 1_555 1_555
C15 N6 1_555 1_555
C19 N7 1_555 1_555
C20 N8 1_555 1_555
C21 N8 1_555 1_555
O12 Mo4A_2 1_555 1_555
Mo1A_2 O2A 1_555 1_555
Mo1A_2 O12A 1_555 1_555
Mo2A O4A 1_555 1_555
Mo2A O6A 1_555 1_555
Mo2A O8A 1_555 1_555
Mo3A O8A 1_555 1_555
Mo3A O12A_2 1_555 1_555
Mo3A_2 O11A 1_555 1_555
Mo3A_2 O12A 1_555 1_555
Mo4A O12_2 1_555 1_555
Mo4A O14A 1_555 1_555
C1A N2A 1_555 1_555
C2A N2A 1_555 1_555
C3A N3A 1_555 1_555
C4A N3A 1_555 1_555
C8A C9A 1_555 1_555
C10A N4A 1_555 1_555
C11A N4A 1_555 1_555
C11A C24A 1_555 1_555
C13A N5A 1_555 1_555
C14A N6A 1_555 1_555
C15A C17A 1_555 1_555
C15A N6A 1_555 1_555
C19A N7A 1_555 1_555
C20A N8A 1_555 1_555
C21A C23A 1_555 1_555
C21A N8A 1_555 1_555

#END
