
#######################################################################
#
#                 Cambridge Crystallographic Data Centre
#                                CCDC 
#
#######################################################################
#
# If this CIF has been generated from an entry in the Cambridge 
# Structural Database, then it will include bibliographic, chemical, 
# crystal, experimental, refinement or atomic coordinate data resulting 
# from the CCDC's data processing and validation procedures.
#
#######################################################################

data_AQUREK
_symmetry_cell_setting           triclinic
_symmetry_space_group_name_H-M   'P -1'
_symmetry_Int_Tables_number      2
_space_group_name_Hall           '-P 1'
loop_
_symmetry_equiv_pos_site_id
_symmetry_equiv_pos_as_xyz
1 x,y,z
2 -x,-y,-z
_cell_length_a                   9.2129(16)
_cell_length_b                   9.6417(16)
_cell_length_c                   9.9945(17)
_cell_angle_alpha                65.041(3)
_cell_angle_beta                 80.050(3)
_cell_angle_gamma                66.997(3)
_cell_volume                     740.847
loop_
_atom_site_label
_atom_site_type_symbol
_atom_site_fract_x
_atom_site_fract_y
_atom_site_fract_z
C1 C 0.5119(4) 0.5333(4) 0.2223(4)
Zn1 Zn -0.21215(5) 0.38159(5) 0.31949(5)
Zn2 Zn 0.0000 0.5000 0.5000
O1 O 0.6007(3) 0.3981(3) 0.2136(3)
O2 O 0.0017(3) 0.4300(3) 0.3274(3)
O3 O -0.0986(3) 0.7407(3) 0.3672(3)
C2 C 0.0735(4) 0.7711(4) 0.1529(4)
H1 H 0.0665 0.8619 0.0568
O4 O -0.1273(3) 0.5514(4) 0.1242(3)
O5 O -0.1584(4) 0.9770(4) 0.1816(4)
C3 C 0.2706(4) 0.5096(4) 0.1495(4)
H2 H 0.3156 0.4680 0.0728
H3 H 0.2817 0.4177 0.2438
O6 O 0.5587(3) 0.5945(4) 0.2844(4)
C4 C 0.0968(4) 0.6189(4) 0.1184(4)
H4 H 0.0819 0.6592 0.0120
C5 C -0.0157(4) 0.5303(4) 0.1944(4)
C6 C 0.3519(4) 0.6199(4) 0.1518(4)
H5 H 0.3660 0.6888 0.0489
C7 C -0.0733(4) 0.8320(4) 0.2392(4)
C8 C 0.2310(4) 0.7334(4) 0.2227(4)
H6 H 0.2526 0.8346 0.1905
O8 O -0.2386(3) 0.2696(3) 0.5397(3)
O9 O 0.2248(3) 0.5117(3) 0.4511(3)
O10 O -0.0699(4) 0.1645(4) 0.2996(4)
H9 H -0.0209 0.1866 0.2175
H10 H -0.1212 0.1096 0.3031
C9 C 0.2332(4) 0.6523(4) 0.3896(4)
C1A C -0.5119(4) 0.4667(4) 0.7777(4)
Zn1A Zn 0.21215(5) 0.61841(5) 0.68051(5)
Zn1_2 Zn 0.78785(5) 0.38159(5) 0.31949(5)
Zn1A_2 Zn -0.78785(5) 0.61841(5) 0.68051(5)
O1_2 O -0.3993(3) 0.3981(3) 0.2136(3)
O1A O -0.6007(3) 0.6019(3) 0.7864(3)
O1A_2 O 0.3993(3) 0.6019(3) 0.7864(3)
O2A O -0.0017(3) 0.5700(3) 0.6726(3)
O3A O 0.0986(3) 0.2593(3) 0.6328(3)
C2A C -0.0735(4) 0.2289(4) 0.8471(4)
H1A H -0.0665 0.1381 0.9432
O4A O 0.1273(3) 0.4486(4) 0.8758(3)
O5A O 0.1584(4) 0.0230(4) 0.8184(4)
C3A C -0.2706(4) 0.4904(4) 0.8505(4)
H2A H -0.3156 0.5320 0.9272
H3A H -0.2817 0.5823 0.7562
O6_2 O -0.4413(3) 0.5945(4) 0.2844(4)
O6A O -0.5587(3) 0.4055(4) 0.7156(4)
O6A_2 O 0.4413(3) 0.4055(4) 0.7156(4)
C4A C -0.0968(4) 0.3811(4) 0.8816(4)
H4A H -0.0819 0.3408 0.9880
C5A C 0.0157(4) 0.4697(4) 0.8056(4)
C6A C -0.3519(4) 0.3801(4) 0.8482(4)
H5A H -0.3660 0.3112 0.9511
C7A C 0.0733(4) 0.1680(4) 0.7608(4)
C8A C -0.2310(4) 0.2666(4) 0.7773(4)
H6A H -0.2526 0.1654 0.8095
O8A O 0.2386(3) 0.7304(3) 0.4603(3)
O9A O -0.2248(3) 0.4883(3) 0.5489(3)
O10A O 0.0699(4) 0.8355(4) 0.7004(4)
H9A H 0.0209 0.8134 0.7825
H10A H 0.1212 0.8904 0.6969
C9A C -0.2332(4) 0.3477(4) 0.6104(4)
Zn3 Zn -1.5000 0.0000 0.5000
O7 O -1.4512(3) 0.1165(3) 0.2769(3)
H7 H -1.3791 0.0502 0.2445
H8 H -1.4276 0.1945 0.2665
O11 O -1.4761(3) -0.2014(3) 0.4545(4)
H11 H -1.5327 -0.1871 0.3871
H12 H -1.4925 -0.2610 0.5416
O12 O -1.2623(3) -0.0911(3) 0.5439(3)
H13 H -1.2579 -0.1612 0.6308
H14 H -1.2106 -0.1468 0.4954
O7A O -1.5488(3) -0.1165(3) 0.7231(3)
H7A H -1.6209 -0.0502 0.7555
H8A H -1.5724 -0.1945 0.7335
O11A O -1.5239(3) 0.2014(3) 0.5455(4)
H11A H -1.4673 0.1871 0.6129
H12A H -1.5075 0.2610 0.4584
O12A O -1.7377(3) 0.0911(3) 0.4561(3)
H13A H -1.7421 0.1612 0.3692
H14A H -1.7894 0.1468 0.5046
O13 O -1.2145(4) 0.8319(5) 0.8508(4)
H15 H -1.3141 0.8666 0.8434
H16 H -1.1930 0.8272 0.9333
O14? O -1.5015(13) 0.0525(11) 0.9054(15)
H17? H -1.5020 0.0000 0.9988
H18? H -1.4423 -0.1513 1.1100
loop_
_geom_bond_atom_site_label_1
_geom_bond_atom_site_label_2
_geom_bond_site_symmetry_1
_geom_bond_site_symmetry_2
C1 O1 1_555 1_555
Zn1 O2 1_555 1_555
Zn2 O2 1_555 1_555
Zn3 O7 1_555 1_555
O1 Zn1_2 1_555 1_555
O2 C5 1_555 1_555
O3 Zn2 1_555 1_555
C2 H1 1_555 1_555
O4 Zn1 1_555 1_555
O5 C7 1_555 1_555
C3 H2 1_555 1_555
H3 C3 1_555 1_555
O6 C1 1_555 1_555
C4 C2 1_555 1_555
H4 C4 1_555 1_555
C5 O4 1_555 1_555
C6 C1 1_555 1_555
H5 C6 1_555 1_555
C7 O3 1_555 1_555
C8 C2 1_555 1_555
H6 C8 1_555 1_555
O7 H7 1_555 1_555
H8 O7 1_555 1_555
O8 Zn1 1_555 1_555
O9 Zn2 1_555 1_555
O10 Zn1 1_555 1_555
H9 O10 1_555 1_555
H10 O10 1_555 1_555
C9 C8 1_555 1_555
O11 Zn3 1_555 1_555
H11 O11 1_555 1_555
H12 O11 1_555 1_555
O12 Zn3 1_555 1_555
H13 O12 1_555 1_555
H14 O12 1_555 1_555
O13 H15 1_555 1_555
H16 O13 1_555 1_555
C1A O1A 1_555 1_555
Zn1A O1A_2 1_555 1_555
Zn1_2 O6 1_555 1_555
Zn1A_2 O1A 1_555 1_555
O1_2 Zn1 1_555 1_555
O2A Zn2 1_555 1_555
O3A Zn2 1_555 1_555
C2A H1A 1_555 1_555
O4A Zn1A 1_555 1_555
O5A C7A 1_555 1_555
C3A H2A 1_555 1_555
H3A C3A 1_555 1_555
O6_2 Zn1 1_555 1_555
O6A C1A 1_555 1_555
O6A_2 Zn1A 1_555 1_555
C4A C2A 1_555 1_555
H4A C4A 1_555 1_555
C5A O2A 1_555 1_555
C6A C1A 1_555 1_555
H5A C6A 1_555 1_555
C7A O3A 1_555 1_555
C8A C2A 1_555 1_555
H6A C8A 1_555 1_555
O7A Zn3 1_555 1_555
H7A O7A 1_555 1_555
H8A O7A 1_555 1_555
O8A C9 1_555 1_555
O9A Zn2 1_555 1_555
O10A Zn1A 1_555 1_555
H9A O10A 1_555 1_555
H10A O10A 1_555 1_555
C9A O8 1_555 1_555
O11A Zn3 1_555 1_555
H11A O11A 1_555 1_555
H12A O11A 1_555 1_555
O12A Zn3 1_555 1_555
H13A O12A 1_555 1_555
H14A O12A 1_555 1_555
C2 C7 1_555 1_555
C3 C4 1_555 1_555
C3 C6 1_555 1_555
C4 C5 1_555 1_555
C6 C8 1_555 1_555
O9 C9 1_555 1_555
Zn1A O2A 1_555 1_555
Zn1A O8A 1_555 1_555
Zn1A_2 O6A 1_555 1_555
C2A C7A 1_555 1_555
O4A C5A 1_555 1_555
C3A C4A 1_555 1_555
C3A C6A 1_555 1_555
C4A C5A 1_555 1_555
C6A C8A 1_555 1_555
C8A C9A 1_555 1_555
O9A C9A 1_555 1_555

#END
