
#######################################################################
#
#                 Cambridge Crystallographic Data Centre
#                                CCDC 
#
#######################################################################
#
# If this CIF has been generated from an entry in the Cambridge 
# Structural Database, then it will include bibliographic, chemical, 
# crystal, experimental, refinement or atomic coordinate data resulting 
# from the CCDC's data processing and validation procedures.
#
#######################################################################

data_AQURAG
_symmetry_cell_setting           triclinic
_symmetry_space_group_name_H-M   'P -1'
_symmetry_Int_Tables_number      2
_space_group_name_Hall           '-P 1'
loop_
_symmetry_equiv_pos_site_id
_symmetry_equiv_pos_as_xyz
1 x,y,z
2 -x,-y,-z
_cell_length_a                   9.2406(17)
_cell_length_b                   9.5665(17)
_cell_length_c                   9.8746(18)
_cell_angle_alpha                66.661(3)
_cell_angle_beta                 80.464(3)
_cell_angle_gamma                67.465(3)
_cell_volume                     740.196
loop_
_atom_site_label
_atom_site_type_symbol
_atom_site_fract_x
_atom_site_fract_y
_atom_site_fract_z
C1 C 0.5133(4) 0.5323(5) 0.2240(4)
Co1 Co -0.21158(6) 0.39139(7) 0.31212(6)
Co2 Co 0.0000 0.5000 0.5000
O1 O 0.5970(3) 0.3942(3) 0.2188(3)
O2 O 0.0040(3) 0.4312(3) 0.3250(3)
O3 O -0.0981(3) 0.7414(3) 0.3690(3)
C2 C 0.0783(4) 0.7703(5) 0.1575(4)
H1 H 0.0720 0.8599 0.0625
O4 O -0.1269(3) 0.5549(4) 0.1239(3)
O5 O -0.1494(4) 0.9793(4) 0.1908(4)
C3 C 0.2719(4) 0.5090(5) 0.1517(5)
H2 H 0.3169 0.4648 0.0750
H3 H 0.2811 0.4199 0.2458
O6 O 0.5663(3) 0.5984(4) 0.2786(4)
C4 C 0.0995(4) 0.6193(5) 0.1197(4)
H4 H 0.0861 0.6581 0.0130
C5 C -0.0127(4) 0.5321(5) 0.1929(4)
C6 C 0.3536(4) 0.6198(5) 0.1548(4)
H5 H 0.3678 0.6868 0.0522
C7 C -0.0673(5) 0.8324(5) 0.2452(4)
C8 C 0.2352(4) 0.7332(5) 0.2275(4)
H6 H 0.2579 0.8334 0.1974
O8 O -0.2482(4) 0.2708(4) 0.5320(3)
O9 O 0.2205(3) 0.5171(4) 0.4546(3)
O10 O -0.0652(4) 0.1826(4) 0.2778(4)
H9 H -0.0451 0.1331 0.3692
H10 H -0.1165 0.1277 0.2813
C9 C 0.2350(4) 0.6543(5) 0.3942(5)
C1A C -0.5133(4) 0.4677(5) 0.7760(4)
Co1A Co 0.21158(6) 0.60861(7) 0.68788(6)
Co1_2 Co 0.78842(6) 0.39139(7) 0.31212(6)
Co1A_2 Co -0.78842(6) 0.60861(7) 0.68788(6)
O1_2 O -0.4030(3) 0.3942(3) 0.2188(3)
O1A O -0.5970(3) 0.6058(3) 0.7812(3)
O1A_2 O 0.4030(3) 0.6058(3) 0.7812(3)
O2A O -0.0040(3) 0.5688(3) 0.6750(3)
O3A O 0.0981(3) 0.2586(3) 0.6310(3)
C2A C -0.0783(4) 0.2297(5) 0.8425(4)
H1A H -0.0720 0.1401 0.9375
O4A O 0.1269(3) 0.4451(4) 0.8761(3)
O5A O 0.1494(4) 0.0207(4) 0.8092(4)
C3A C -0.2719(4) 0.4910(5) 0.8483(5)
H2A H -0.3169 0.5352 0.9250
H3A H -0.2811 0.5801 0.7542
O6_2 O -0.4337(3) 0.5984(4) 0.2786(4)
O6A O -0.5663(3) 0.4016(4) 0.7214(4)
O6A_2 O 0.4337(3) 0.4016(4) 0.7214(4)
C4A C -0.0995(4) 0.3807(5) 0.8803(4)
H4A H -0.0861 0.3419 0.9870
C5A C 0.0127(4) 0.4679(5) 0.8071(4)
C6A C -0.3536(4) 0.3802(5) 0.8452(4)
H5A H -0.3678 0.3132 0.9478
C7A C 0.0673(5) 0.1676(5) 0.7548(4)
C8A C -0.2352(4) 0.2668(5) 0.7725(4)
H6A H -0.2579 0.1666 0.8026
O8A O 0.2482(4) 0.7292(4) 0.4680(3)
O9A O -0.2205(3) 0.4829(4) 0.5454(3)
O10A O 0.0652(4) 0.8174(4) 0.7222(4)
H9A H 0.0451 0.8669 0.6308
H10A H 0.1165 0.8723 0.7187
C9A C -0.2350(4) 0.3457(5) 0.6058(5)
Co3 Co -1.5000 0.0000 0.5000
O7 O -1.4476(4) 0.1112(4) 0.2791(3)
H7 H -1.5336 0.1510 0.2343
H8 H -1.4240 0.1892 0.2688
O11 O -1.4669(4) -0.2027(4) 0.4521(4)
H11 H -1.5235 -0.1884 0.3847
H12 H -1.4833 -0.2623 0.5392
O12 O -1.2648(4) -0.0839(5) 0.5475(4)
H13 H -1.2604 -0.1540 0.6344
H14 H -1.2132 -0.1396 0.4990
O7A O -1.5524(4) -0.1112(4) 0.7209(3)
H7A H -1.4664 -0.1510 0.7657
H8A H -1.5760 -0.1892 0.7312
O11A O -1.5331(4) 0.2027(4) 0.5479(4)
H11A H -1.4765 0.1884 0.6153
H12A H -1.5167 0.2623 0.4608
O12A O -1.7352(4) 0.0839(5) 0.4525(4)
H13A H -1.7396 0.1540 0.3656
H14A H -1.7868 0.1396 0.5010
O13 O -1.2222(4) 0.8325(5) 0.8617(4)
H15 H -1.2008 0.8277 0.9442
H16 H -1.1874 0.8996 0.7922
O14? O -1.5039(14) 0.0513(13) 0.9125(14)
H17? H -1.5000 0.0003 0.9999
H18? H -1.4398 -0.1501 1.1029
loop_
_geom_bond_atom_site_label_1
_geom_bond_atom_site_label_2
_geom_bond_site_symmetry_1
_geom_bond_site_symmetry_2
C1 O1 1_555 1_555
Co1 O2 1_555 1_555
Co2 O2 1_555 1_555
Co3 O7 1_555 1_555
O1 Co1_2 1_555 1_555
O2 C5 1_555 1_555
O3 Co2 1_555 1_555
C2 H1 1_555 1_555
O4 Co1 1_555 1_555
O5 C7 1_555 1_555
C3 H2 1_555 1_555
H3 C3 1_555 1_555
O6 C1 1_555 1_555
C4 C2 1_555 1_555
H4 C4 1_555 1_555
C5 O4 1_555 1_555
C6 C1 1_555 1_555
H5 C6 1_555 1_555
C7 O3 1_555 1_555
C8 C2 1_555 1_555
H6 C8 1_555 1_555
O7 H7 1_555 1_555
H8 O7 1_555 1_555
O8 Co1 1_555 1_555
O9 Co2 1_555 1_555
O10 Co1 1_555 1_555
H9 O10 1_555 1_555
H10 O10 1_555 1_555
C9 C8 1_555 1_555
O11 Co3 1_555 1_555
H11 O11 1_555 1_555
H12 O11 1_555 1_555
O12 Co3 1_555 1_555
H13 O12 1_555 1_555
H14 O12 1_555 1_555
O13 H15 1_555 1_555
H16 O13 1_555 1_555
C1A O1A 1_555 1_555
Co1A O1A_2 1_555 1_555
Co1_2 O6 1_555 1_555
Co1A_2 O1A 1_555 1_555
O1_2 Co1 1_555 1_555
O2A Co2 1_555 1_555
O3A Co2 1_555 1_555
C2A H1A 1_555 1_555
O4A Co1A 1_555 1_555
O5A C7A 1_555 1_555
C3A H2A 1_555 1_555
H3A C3A 1_555 1_555
O6_2 Co1 1_555 1_555
O6A C1A 1_555 1_555
O6A_2 Co1A 1_555 1_555
C4A C2A 1_555 1_555
H4A C4A 1_555 1_555
C5A O2A 1_555 1_555
C6A C1A 1_555 1_555
H5A C6A 1_555 1_555
C7A O3A 1_555 1_555
C8A C2A 1_555 1_555
H6A C8A 1_555 1_555
O7A Co3 1_555 1_555
H7A O7A 1_555 1_555
H8A O7A 1_555 1_555
O8A C9 1_555 1_555
O9A Co2 1_555 1_555
O10A Co1A 1_555 1_555
H9A O10A 1_555 1_555
H10A O10A 1_555 1_555
C9A O8 1_555 1_555
O11A Co3 1_555 1_555
H11A O11A 1_555 1_555
H12A O11A 1_555 1_555
O12A Co3 1_555 1_555
H13A O12A 1_555 1_555
H14A O12A 1_555 1_555
C2 C7 1_555 1_555
C3 C4 1_555 1_555
C3 C6 1_555 1_555
C4 C5 1_555 1_555
C6 C8 1_555 1_555
O9 C9 1_555 1_555
Co1A O2A 1_555 1_555
Co1A O8A 1_555 1_555
Co1A_2 O6A 1_555 1_555
C2A C7A 1_555 1_555
O4A C5A 1_555 1_555
C3A C4A 1_555 1_555
C3A C6A 1_555 1_555
C4A C5A 1_555 1_555
C6A C8A 1_555 1_555
C8A C9A 1_555 1_555
O9A C9A 1_555 1_555

#END
