
#######################################################################
#
#                 Cambridge Crystallographic Data Centre
#                                CCDC 
#
#######################################################################
#
# If this CIF has been generated from an entry in the Cambridge 
# Structural Database, then it will include bibliographic, chemical, 
# crystal, experimental, refinement or atomic coordinate data resulting 
# from the CCDC's data processing and validation procedures.
#
#######################################################################

data_AQUWUF
_symmetry_cell_setting           triclinic
_symmetry_space_group_name_H-M   'P -1'
_symmetry_Int_Tables_number      2
_space_group_name_Hall           '-P 1'
loop_
_symmetry_equiv_pos_site_id
_symmetry_equiv_pos_as_xyz
1 x,y,z
2 -x,-y,-z
_cell_length_a                   9.7248(14)
_cell_length_b                   11.4547(16)
_cell_length_c                   21.894(3)
_cell_angle_alpha                94.697(2)
_cell_angle_beta                 92.004(2)
_cell_angle_gamma                108.930(2)
_cell_volume                     2294.32
loop_
_atom_site_label
_atom_site_type_symbol
_atom_site_fract_x
_atom_site_fract_y
_atom_site_fract_z
Co1 Co 0.0000 0.5000 0.5000
O3 O 0.1751(5) 0.4330(5) 0.5174(2)
H1 H 0.198(8) 0.429(6) 0.5565(11)
H2 H 0.186(8) 0.369(4) 0.495(2)
N4 N -0.6983(6) -0.2070(5) 0.6057(2)
N5 N -0.1592(6) 0.3446(5) 0.5382(2)
C22 C -0.4818(6) 0.0132(6) 0.5852(3)
C26 C -0.3689(7) 0.1293(6) 0.5711(3)
C27 C -0.5651(8) -0.2030(7) 0.5965(4)
H20 H -0.5416 -0.2771 0.5981
C32 C -0.7221(8) -0.1016(8) 0.6064(4)
H25 H -0.8171 -0.1008 0.6146
C33 C -0.6200(8) 0.0084(7) 0.5961(4)
H26 H -0.6459 0.0816 0.5966
C34 C -0.2905(11) 0.3423(8) 0.5506(6)
H27 H -0.3153 0.4154 0.5476
C38 C -0.1332(7) 0.2424(8) 0.5434(4)
H31 H -0.0383 0.2413 0.5352
C39 C -0.2317(7) 0.1346(8) 0.5596(5)
H32 H -0.2028 0.0636 0.5628
C42 C -0.4562(8) -0.0961(7) 0.5847(5)
H35 H -0.3625 -0.0996 0.5761
C44 C -0.3949(11) 0.2379(8) 0.5678(6)
H37 H -0.4875 0.2426 0.5776
O7 O -0.0491(4) 0.4042(4) 0.41532(18)
H39 H 0.017(5) 0.389(5) 0.393(3)
H40 H -0.130(4) 0.341(4) 0.411(3)
O3A O -0.1751(5) 0.5670(5) 0.4826(2)
H1A H -0.198(8) 0.571(6) 0.4435(11)
H2A H -0.186(8) 0.631(4) 0.505(2)
N4A N 0.6983(6) 1.2070(5) 0.3943(2)
N5A N 0.1592(6) 0.6554(5) 0.4618(2)
C22A C 0.4818(6) 0.9868(6) 0.4148(3)
C26A C 0.3689(7) 0.8707(6) 0.4289(3)
C27A C 0.5651(8) 1.2030(7) 0.4035(4)
H20A H 0.5416 1.2771 0.4019
C32A C 0.7221(8) 1.1016(8) 0.3936(4)
H25A H 0.8171 1.1008 0.3854
C33A C 0.6200(8) 0.9916(7) 0.4039(4)
H26A H 0.6459 0.9184 0.4034
C34A C 0.2905(11) 0.6577(8) 0.4494(6)
H27A H 0.3153 0.5846 0.4524
C38A C 0.1332(7) 0.7576(8) 0.4566(4)
H31A H 0.0383 0.7587 0.4648
C39A C 0.2317(7) 0.8654(8) 0.4404(5)
H32A H 0.2028 0.9364 0.4372
C42A C 0.4562(8) 1.0961(7) 0.4153(5)
H35A H 0.3625 1.0996 0.4239
C44A C 0.3949(11) 0.7621(8) 0.4322(6)
H37A H 0.4875 0.7574 0.4224
O7A O 0.0491(4) 0.5958(4) 0.58468(18)
H39A H -0.017(5) 0.611(5) 0.607(3)
H40A H 0.130(4) 0.659(4) 0.589(3)
Co2 Co -0.45313(7) 0.53739(6) 0.74352(3)
O1 O -0.2271(4) 0.5989(3) 0.75565(16)
N1 N -0.4577(4) 1.3443(4) 0.74141(19)
N2 N -0.4734(4) 0.5281(4) 0.84054(18)
O2 O -0.4421(4) 0.5387(4) 0.64702(17)
N3 N -0.4541(4) 0.7270(4) 0.7501(2)
C1 C -0.4557(5) 1.1011(5) 0.7505(2)
C2 C -0.4549(5) 0.9722(5) 0.7526(2)
C3 C -0.1296(6) 0.6067(5) 0.7188(2)
C4 C -0.5741(6) 0.8775(5) 0.7680(2)
H3 H -0.6592 0.8948 0.7798
C5 C -0.3382(6) 0.8190(5) 0.7366(3)
H4 H -0.2538 0.7998 0.7255
C6 C -0.5704(6) 0.7579(5) 0.7664(2)
H5 H -0.6540 0.6946 0.7772
O4 O 0.2710(5) 0.4096(6) 0.6334(2)
C7 C -0.4944(5) 0.5059(5) 0.9668(2)
O5 O -0.1543(5) 0.5870(6) 0.66211(19)
C8 C -0.5726(6) 1.2535(6) 0.7530(4)
H6 H -0.6604 1.2717 0.7578
C9 C 0.0296(6) 0.5313(6) 0.7867(3)
C10 C 0.0254(5) 0.6319(5) 0.7468(3)
H7 H 0.0925 0.6353 0.7135
H8 H 0.0584 0.7132 0.7718
C11 C -0.3419(7) 1.3111(6) 0.7323(5)
H9 H -0.2561 1.3730 0.7222
C12 C 0.0742(6) 0.3948(6) 0.6978(3)
H10 H 0.0263 0.4386 0.6715
H11 H 0.0297 0.3048 0.6855
C13 C 0.0358(7) 0.3286(8) 0.8029(4)
H12 H 0.0460 0.2523 0.7873
C14 C -0.3341(6) 0.9394(5) 0.7379(3)
H13 H -0.2475 1.0014 0.7286
C15 C -0.5960(6) 0.5157(6) 0.8673(3)
H14 H -0.6791 0.5138 0.8426
C16 C -0.6099(6) 0.5054(6) 0.9294(3)
H15 H -0.7008 0.4978 0.9462
C17 C 0.0447(6) 0.4209(6) 0.7634(3)
C18 C -0.5772(7) 1.1335(6) 0.7588(4)
H16 H -0.6649 1.0735 0.7686
C19 C 0.2359(6) 0.4342(6) 0.6860(3)
C20 C -0.3359(7) 1.1939(6) 0.7363(5)
H17 H -0.2479 1.1774 0.7292
C21 C -0.3628(7) 0.5292(9) 0.8768(3)
H18 H -0.2725 0.5392 0.8590
O6 O 0.3241(4) 0.4788(3) 0.73190(16)
C28 C 0.0099(7) 0.5494(9) 0.8492(3)
H21 H 0.0031 0.6265 0.8657
C30 C -0.3680(7) 0.5171(9) 0.9386(3)
H23 H -0.2838 0.5166 0.9618
C35 C 0.0001(9) 0.4580(14) 0.8876(4)
H28 H -0.0149 0.4713 0.9299
C37 C 0.0124(9) 0.3471(12) 0.8638(5)
H30 H 0.0048 0.2829 0.8897
Co2A Co -0.54687(7) 0.46261(6) 1.25648(3)
Co2_2 Co -0.45313(7) 1.53739(6) 0.74352(3)
Co2_3 Co 0.54687(7) 0.53739(6) 0.74352(3)
Co2A_2 Co -1.54687(7) 0.46261(6) 1.25648(3)
Co2A_3 Co -0.54687(7) -0.53739(6) 1.25648(3)
O1A O -0.7729(4) 0.4011(3) 1.24435(16)
N1A N -0.5423(4) -0.3443(4) 1.25859(19)
N1_2 N -0.4577(4) 0.3443(4) 0.74141(19)
N1A_2 N -0.5423(4) 0.6557(4) 1.25859(19)
N2A N -0.5266(4) 0.4719(4) 1.15946(18)
O2A O -0.5579(4) 0.4613(4) 1.35298(17)
N3A N -0.5459(4) 0.2730(4) 1.2499(2)
C1A C -0.5443(5) -0.1011(5) 1.2495(2)
C2A C -0.5451(5) 0.0278(5) 1.2474(2)
C3A C -0.8704(6) 0.3933(5) 1.2812(2)
C4A C -0.4259(6) 0.1225(5) 1.2320(2)
H3A H -0.3408 0.1052 1.2202
C5A C -0.6618(6) 0.1810(5) 1.2634(3)
H4A H -0.7462 0.2002 1.2745
C6A C -0.4296(6) 0.2421(5) 1.2336(2)
H5A H -0.3460 0.3054 1.2228
O4A O -1.2710(5) 0.5904(6) 1.3666(2)
C7A C -0.5056(5) 0.4941(5) 1.0332(2)
O5A O -0.8457(5) 0.4130(6) 1.33789(19)
C8A C -0.4274(6) -0.2535(6) 1.2470(4)
H6A H -0.3396 -0.2717 1.2422
C9A C -1.0296(6) 0.4687(6) 1.2133(3)
C10A C -1.0254(5) 0.3681(5) 1.2532(3)
H7A H -1.0925 0.3647 1.2865
H8A H -1.0584 0.2868 1.2282
C11A C -0.6581(7) -0.3111(6) 1.2677(5)
H9A H -0.7439 -0.3730 1.2778
C12A C -1.0742(6) 0.6052(6) 1.3022(3)
H10A H -1.0263 0.5614 1.3285
H11A H -1.0297 0.6952 1.3145
C13A C -1.0358(7) 0.6714(8) 1.1971(4)
H12A H -1.0460 0.7477 1.2127
C14A C -0.6659(6) 0.0606(5) 1.2621(3)
H13A H -0.7525 -0.0014 1.2714
C15A C -0.4040(6) 0.4843(6) 1.1327(3)
H14A H -0.3209 0.4862 1.1574
C16A C -0.3901(6) 0.4946(6) 1.0706(3)
H15A H -0.2992 0.5022 1.0538
C17A C -1.0447(6) 0.5791(6) 1.2366(3)
C18A C -0.4228(7) -0.1335(6) 1.2412(4)
H16A H -0.3351 -0.0735 1.2314
C19A C -1.2359(6) 0.5658(6) 1.3140(3)
C20A C -0.6641(7) -0.1939(6) 1.2637(5)
H17A H -0.7521 -0.1774 1.2708
C21A C -0.6372(7) 0.4708(9) 1.1232(3)
H18A H -0.7275 0.4608 1.1410
O6A O -1.3241(4) 0.5212(3) 1.26810(16)
O6_2 O -0.6759(4) 0.4788(3) 0.73190(16)
O6A_2 O -0.3241(4) 0.5212(3) 1.26810(16)
C28A C -1.0099(7) 0.4506(9) 1.1508(3)
H21A H -1.0031 0.3735 1.1343
C30A C -0.6320(7) 0.4829(9) 1.0614(3)
H23A H -0.7162 0.4834 1.0382
C35A C -1.0001(9) 0.5420(14) 1.1124(4)
H28A H -0.9851 0.5287 1.0701
C37A C -1.0124(9) 0.6529(12) 1.1362(5)
H30A H -1.0048 0.7171 1.1103
C23 C -0.4816(6) 0.8345(5) 0.9945(3)
N6 N -0.7597(6) 0.8062(6) 1.0348(3)
C24 C -0.2204(7) 0.8419(7) 1.0114(3)
H19 H -0.2313 0.8374 1.0542
C25 C -0.3361(6) 0.8443(6) 0.9726(3)
N7 N -0.0647(7) 0.8531(8) 0.9282(3)
C29 C -0.5973(8) 0.8230(9) 0.9558(4)
H22 H -0.5860 0.8240 0.9129
C31 C -0.0903(8) 0.8460(8) 0.9873(4)
H24 H -0.0135 0.8436 1.0147
C36 C -0.5094(9) 0.8333(11) 1.0554(4)
H29 H -0.4331 0.8408 1.0853
C40 C -0.6469(9) 0.8214(11) 1.0737(4)
H33 H -0.6614 0.8242 1.1164
C41 C -0.3098(8) 0.8536(10) 0.9117(3)
H34 H -0.3841 0.8565 0.8831
C43 C -0.7308(8) 0.8099(9) 0.9779(4)
H36 H -0.8087 0.8030 0.9489
C45 C -0.1745(9) 0.8588(12) 0.8923(4)
H38 H -0.1589 0.8671 0.8500
O8 O 0.1701(6) 0.9573(8) 0.8478(3)
H41 H 0.1275 0.9437 0.8121
H42 H 0.106(6) 0.927(9) 0.875(2)
N8 N 0.0152(9) 0.9880(8) 0.6983(8)
O9 O -0.0439(12) 0.9754(14) 0.6413(6)
O10 O 0.0154(11) 0.9060(11) 0.7183(7)
O11 O 0.0617(13) 1.0826(12) 0.7182(10)
O12 O -0.2052(12) -0.2430(9) 0.5536(4)
H43 H -0.1600 -0.1808 0.5789
H44 H -0.235(16) -0.217(6) 0.520(3)
O13 O -0.8458(12) 0.1539(9) 0.5772(6)
O14 O 0.0000 0.0000 0.5000
loop_
_geom_bond_atom_site_label_1
_geom_bond_atom_site_label_2
_geom_bond_site_symmetry_1
_geom_bond_site_symmetry_2
Co1 O3 1_555 1_555
Co2 O1 1_555 1_555
O1 C3 1_555 1_555
N1 C8 1_555 1_555
N2 Co2 1_555 1_555
O2 Co2 1_555 1_555
N3 Co2 1_555 1_555
C1 C2 1_555 1_555
C2 C4 1_555 1_555
C3 O5 1_555 1_555
O3 H1 1_555 1_555
H2 O3 1_555 1_555
C4 H3 1_555 1_555
C5 N3 1_555 1_555
H4 C5 1_555 1_555
C6 N3 1_555 1_555
H5 C6 1_555 1_555
O4 C19 1_555 1_555
C7 C16 1_555 1_555
C8 H6 1_555 1_555
C9 C10 1_555 1_555
C10 C3 1_555 1_555
H7 C10 1_555 1_555
H8 C10 1_555 1_555
C11 N1 1_555 1_555
H9 C11 1_555 1_555
C12 H10 1_555 1_555
H11 C12 1_555 1_555
C13 H12 1_555 1_555
C14 C2 1_555 1_555
H13 C14 1_555 1_555
C15 N2 1_555 1_555
H14 C15 1_555 1_555
C16 C15 1_555 1_555
H15 C16 1_555 1_555
C17 C9 1_555 1_555
C18 C1 1_555 1_555
H16 C18 1_555 1_555
C19 C12 1_555 1_555
C20 C1 1_555 1_555
H17 C20 1_555 1_555
C21 N2 1_555 1_555
H18 C21 1_555 1_555
O6 C19 1_555 1_555
N4 C27 1_555 1_555
N5 Co1 1_555 1_555
C22 C26 1_555 1_555
C23 C25 1_555 1_555
N6 C40 1_555 1_555
C24 H19 1_555 1_555
C25 C24 1_555 1_555
C26 C39 1_555 1_555
N7 C31 1_555 1_555
C27 H20 1_555 1_555
C28 C9 1_555 1_555
H21 C28 1_555 1_555
C29 C23 1_555 1_555
H22 C29 1_555 1_555
C30 C7 1_555 1_555
H23 C30 1_555 1_555
C31 C24 1_555 1_555
H24 C31 1_555 1_555
C32 N4 1_555 1_555
H25 C32 1_555 1_555
C33 C22 1_555 1_555
H26 C33 1_555 1_555
C34 N5 1_555 1_555
H27 C34 1_555 1_555
C35 C28 1_555 1_555
H28 C35 1_555 1_555
C36 C23 1_555 1_555
H29 C36 1_555 1_555
C37 C13 1_555 1_555
H30 C37 1_555 1_555
C38 N5 1_555 1_555
H31 C38 1_555 1_555
C39 C38 1_555 1_555
H32 C39 1_555 1_555
C40 C36 1_555 1_555
H33 C40 1_555 1_555
C41 C25 1_555 1_555
H34 C41 1_555 1_555
C42 C22 1_555 1_555
H35 C42 1_555 1_555
C43 N6 1_555 1_555
H36 C43 1_555 1_555
C44 C26 1_555 1_555
H37 C44 1_555 1_555
C45 N7 1_555 1_555
H38 C45 1_555 1_555
O7 Co1 1_555 1_555
H39 O7 1_555 1_555
H40 O7 1_555 1_555
O8 H41 1_555 1_555
H42 O8 1_555 1_555
N8 O9 1_555 1_555
O10 N8 1_555 1_555
O11 N8 1_555 1_555
O12 H43 1_555 1_555
H44 O12 1_555 1_555
Co2A O1A 1_555 1_555
Co2_2 N1 1_555 1_555
Co2_3 O6 1_555 1_555
Co2A_2 O6A 1_555 1_555
Co2A_3 N1A 1_555 1_555
O1A C3A 1_555 1_555
N1A C8A 1_555 1_555
N1_2 Co2 1_555 1_555
N1A_2 Co2A 1_555 1_555
N2A Co2A 1_555 1_555
O2A Co2A 1_555 1_555
N3A Co2A 1_555 1_555
C1A C2A 1_555 1_555
C2A C4A 1_555 1_555
C3A O5A 1_555 1_555
O3A Co1 1_555 1_555
H1A O3A 1_555 1_555
H2A O3A 1_555 1_555
C4A H3A 1_555 1_555
C5A N3A 1_555 1_555
H4A C5A 1_555 1_555
C6A N3A 1_555 1_555
H5A C6A 1_555 1_555
O4A C19A 1_555 1_555
C7A C7 1_555 1_555
C8A H6A 1_555 1_555
C9A C10A 1_555 1_555
C10A C3A 1_555 1_555
H7A C10A 1_555 1_555
H8A C10A 1_555 1_555
C11A N1A 1_555 1_555
H9A C11A 1_555 1_555
C12A H10A 1_555 1_555
H11A C12A 1_555 1_555
C13A H12A 1_555 1_555
C14A C2A 1_555 1_555
H13A C14A 1_555 1_555
C15A N2A 1_555 1_555
H14A C15A 1_555 1_555
C16A C7A 1_555 1_555
H15A C16A 1_555 1_555
C17A C9A 1_555 1_555
C18A C1A 1_555 1_555
H16A C18A 1_555 1_555
C19A C12A 1_555 1_555
C20A C1A 1_555 1_555
H17A C20A 1_555 1_555
C21A N2A 1_555 1_555
H18A C21A 1_555 1_555
O6A C19A 1_555 1_555
O6_2 Co2 1_555 1_555
O6A_2 Co2A 1_555 1_555
N4A C27A 1_555 1_555
N5A Co1 1_555 1_555
C22A C26A 1_555 1_555
C26A C39A 1_555 1_555
C27A H20A 1_555 1_555
C28A C9A 1_555 1_555
H21A C28A 1_555 1_555
C30A C7A 1_555 1_555
H23A C30A 1_555 1_555
C32A N4A 1_555 1_555
H25A C32A 1_555 1_555
C33A C22A 1_555 1_555
H26A C33A 1_555 1_555
C34A N5A 1_555 1_555
H27A C34A 1_555 1_555
C35A C28A 1_555 1_555
H28A C35A 1_555 1_555
C37A C13A 1_555 1_555
H30A C37A 1_555 1_555
C38A N5A 1_555 1_555
H31A C38A 1_555 1_555
C39A C38A 1_555 1_555
H32A C39A 1_555 1_555
C42A C22A 1_555 1_555
H35A C42A 1_555 1_555
C44A C26A 1_555 1_555
H37A C44A 1_555 1_555
O7A Co1 1_555 1_555
H39A O7A 1_555 1_555
H40A O7A 1_555 1_555
C4 C6 1_555 1_555
C5 C14 1_555 1_555
C8 C18 1_555 1_555
C11 C20 1_555 1_555
C12 C17 1_555 1_555
C13 C17 1_555 1_555
C21 C30 1_555 1_555
C27 C42 1_555 1_555
C29 C43 1_555 1_555
C32 C33 1_555 1_555
C34 C44 1_555 1_555
C35 C37 1_555 1_555
C41 C45 1_555 1_555
C4A C6A 1_555 1_555
C5A C14A 1_555 1_555
C8A C18A 1_555 1_555
C11A C20A 1_555 1_555
C12A C17A 1_555 1_555
C13A C17A 1_555 1_555
C15A C16A 1_555 1_555
C21A C30A 1_555 1_555
C27A C42A 1_555 1_555
C32A C33A 1_555 1_555
C34A C44A 1_555 1_555
C35A C37A 1_555 1_555

#END
