
#######################################################################
#
#                 Cambridge Crystallographic Data Centre
#                                CCDC 
#
#######################################################################
#
# If this CIF has been generated from an entry in the Cambridge 
# Structural Database, then it will include bibliographic, chemical, 
# crystal, experimental, refinement or atomic coordinate data resulting 
# from the CCDC's data processing and validation procedures.
#
#######################################################################

data_AQUXAM
_symmetry_cell_setting           monoclinic
_symmetry_space_group_name_H-M   'P 21/c'
_symmetry_Int_Tables_number      14
_space_group_name_Hall           '-P 2ybc'
loop_
_symmetry_equiv_pos_site_id
_symmetry_equiv_pos_as_xyz
1 x,y,z
2 -x,1/2+y,1/2-z
3 -x,-y,-z
4 x,1/2-y,1/2+z
_cell_length_a                   12.1087(19)
_cell_length_b                   19.386(3)
_cell_length_c                   8.5589(14)
_cell_angle_alpha                90
_cell_angle_beta                 98.890(5)
_cell_angle_gamma                90
_cell_volume                     1984.97
loop_
_atom_site_label
_atom_site_type_symbol
_atom_site_fract_x
_atom_site_fract_y
_atom_site_fract_z
Co1 Co 0.70559(3) 0.854371(18) 0.74401(4)
O1 O 0.77252(15) 0.93841(9) 0.6012(2)
O2 O 0.77232(15) 0.83023(9) 0.52690(19)
O3 O 0.68428(18) 0.75086(10) 0.7756(2)
H1 H 0.711(2) 0.7301(12) 0.856(2)
H2 H 0.676(2) 0.7216(11) 0.699(2)
O4 O 0.65449(15) 0.93005(9) -0.1081(2)
O5 O 0.65334(19) 0.83702(10) 0.0363(2)
N1 N 0.54498(18) 0.85850(11) 0.5980(2)
N2 N -0.13055(18) 0.84957(11) -0.1191(2)
C1 C 0.5033(2) 0.80629(14) 0.5035(3)
H3 H 0.5430 0.7650 0.5100
C2 C 0.0307(2) 0.78438(14) -0.0079(3)
H4 H 0.0694 0.7428 -0.0043
C3 C -0.0694(2) 0.79144(14) -0.1072(3)
H5 H -0.0962 0.7539 -0.1694
C4 C 0.4853(2) 0.91665(13) 0.5831(3)
H6 H 0.5124 0.9541 0.6453
C5 C 0.2359(2) 0.87984(15) 0.2814(3)
H7 H 0.2039 0.9235 0.2769
C6 C -0.0877(2) 0.90312(13) -0.0299(3)
H8 H -0.1277 0.9443 -0.0369
C7 C 0.3861(2) 0.92484(14) 0.4816(3)
H9 H 0.3486 0.9668 0.4771
C8 C 0.1815(2) 0.83124(15) 0.1924(3)
H10 H 0.2142 0.7877 0.1968
C9 C 0.0126(2) 0.90015(14) 0.0717(3)
H11 H 0.0389 0.9389 0.1299
C10 C 0.4059(2) 0.81007(14) 0.3981(3)
H12 H 0.3820 0.7724 0.3344
C11 C 0.3424(2) 0.87069(14) 0.3865(3)
C12 C 0.0745(2) 0.83922(14) 0.0873(3)
C13 C 0.7650(3) 1.11886(15) 0.1878(3)
H13 H 0.7488 1.1638 0.1534
C14 C 0.8668(3) 1.10396(15) 0.2775(3)
H14 H 0.9194 1.1387 0.3035
C15 C 0.7913(2) 0.89323(14) 0.5036(3)
C16 C 0.6867(3) 1.06729(14) 0.1487(3)
H15 H 0.6189 1.0776 0.0861
C17 C 0.8403(2) 0.91273(12) 0.3562(3)
H16 H 0.9210 0.9086 0.3797
H17 H 0.8142 0.8798 0.2735
C18 C 0.8906(2) 1.03721(15) 0.3288(3)
H18 H 0.9599 1.0272 0.3877
C19 C 0.8119(2) 0.98466(14) 0.2933(3)
C20 C 0.6202(2) 0.94517(13) 0.1581(3)
H19 H 0.5479 0.9672 0.1305
H20 H 0.6170 0.9159 0.2492
C21 C 0.7085(2) 1.00013(14) 0.2020(3)
C22 C 0.6435(2) 0.90032(15) 0.0189(3)
Co1_2 Co -0.29441(3) 0.854371(18) -0.25599(4)
Co1_3 Co 0.70559(3) 0.854371(18) -0.25599(4)
O4_2 O 0.65449(15) 0.93005(9) 0.8919(2)
N2_2 N 0.86945(18) 0.84957(11) 0.8809(2)
loop_
_geom_bond_atom_site_label_1
_geom_bond_atom_site_label_2
_geom_bond_site_symmetry_1
_geom_bond_site_symmetry_2
Co1 O1 1_555 1_555
O1 C15 1_555 1_555
O2 Co1 1_555 1_555
O3 Co1 1_555 1_555
H1 O3 1_555 1_555
H2 O3 1_555 1_555
O4 C22 1_555 1_555
O5 C22 1_555 1_555
N1 Co1 1_555 1_555
N2 C3 1_555 1_555
C1 N1 1_555 1_555
H3 C1 1_555 1_555
C2 H4 1_555 1_555
C3 C2 1_555 1_555
H5 C3 1_555 1_555
C4 N1 1_555 1_555
H6 C4 1_555 1_555
C5 H7 1_555 1_555
C6 N2 1_555 1_555
H8 C6 1_555 1_555
C7 C4 1_555 1_555
H9 C7 1_555 1_555
C8 C5 1_555 1_555
H10 C8 1_555 1_555
C9 C6 1_555 1_555
H11 C9 1_555 1_555
C10 C1 1_555 1_555
H12 C10 1_555 1_555
C11 C5 1_555 1_555
C12 C2 1_555 1_555
C13 H13 1_555 1_555
C14 C13 1_555 1_555
H14 C14 1_555 1_555
C15 O2 1_555 1_555
C16 C13 1_555 1_555
H15 C16 1_555 1_555
C17 C15 1_555 1_555
H16 C17 1_555 1_555
H17 C17 1_555 1_555
C18 C14 1_555 1_555
H18 C18 1_555 1_555
C19 C17 1_555 1_555
C20 H19 1_555 1_555
H20 C20 1_555 1_555
C21 C16 1_555 1_555
C22 C20 1_555 1_555
Co1_2 N2 1_555 1_555
Co1_3 O4 1_555 1_555
O4_2 Co1 1_555 1_555
N2_2 Co1 1_555 1_555
C7 C11 1_555 1_555
C8 C12 1_555 1_555
C9 C12 1_555 1_555
C10 C11 1_555 1_555
C18 C19 1_555 1_555
C19 C21 1_555 1_555
C20 C21 1_555 1_555

#END
