
#######################################################################
#
#                 Cambridge Crystallographic Data Centre
#                                CCDC 
#
#######################################################################
#
# If this CIF has been generated from an entry in the Cambridge 
# Structural Database, then it will include bibliographic, chemical, 
# crystal, experimental, refinement or atomic coordinate data resulting 
# from the CCDC's data processing and validation procedures.
#
#######################################################################

data_AQUZUI
_symmetry_cell_setting           triclinic
_symmetry_space_group_name_H-M   'P -1'
_symmetry_Int_Tables_number      2
_space_group_name_Hall           '-P 1'
loop_
_symmetry_equiv_pos_site_id
_symmetry_equiv_pos_as_xyz
1 x,y,z
2 -x,-y,-z
_cell_length_a                   7.5557(9)
_cell_length_b                   7.6700(9)
_cell_length_c                   8.1587(9)
_cell_angle_alpha                67.231(2)
_cell_angle_beta                 85.853(2)
_cell_angle_gamma                76.188(2)
_cell_volume                     423.257
loop_
_atom_site_label
_atom_site_type_symbol
_atom_site_fract_x
_atom_site_fract_y
_atom_site_fract_z
Cu1 Cu 0.0000 -1.0000 0.5000
Br1 Br 0.30781(5) -1.08803(5) 0.39339(5)
O1 O 0.0791(3) -0.2971(3) 0.7857(3)
N1 N 0.0888(4) -0.8384(4) 0.6056(4)
N2 N 0.3751(4) -0.4509(4) 0.8619(4)
C1 C 0.1903(4) -0.7130(5) 0.5110(4)
H1 H 0.2297 -0.7113 0.3972
C2 C 0.2100(5) -0.4338(5) 0.7986(4)
C3 C 0.1833(4) -0.5876(5) 0.7379(4)
C4 C 0.0834(5) -0.7218(5) 0.8395(4)
H2 H 0.0467 -0.7301 0.9556
C5 C 0.0388(5) -0.8423(5) 0.7687(4)
H3 H -0.0307 -0.9326 0.8380
C6 C 0.2402(4) -0.5863(5) 0.5720(4)
H4 H 0.3123 -0.4996 0.5013
C7 C 0.4112(5) -0.2984(5) 0.9114(5)
H5 H 0.2995 -0.1936 0.8919
H6 H 0.5078 -0.2419 0.8358
C8 C 0.5286(5) -0.6177(5) 0.8945(5)
H7 H 0.6311 -0.5772 0.8180
H8 H 0.4924 -0.7179 0.8646
Cu1_2 Cu 0.0000 0.0000 0.5000
Cu1_3 Cu 1.0000 -1.0000 1.5000
Cu1_4 Cu 1.0000 0.0000 1.5000
Br1A Br -0.30781(5) -0.91197(5) 0.60661(5)
O1A O 0.9209(3) -0.7029(3) 1.2143(3)
O1_2 O 0.0791(3) -1.2971(3) 0.7857(3)
O1A_2 O -0.0791(3) -0.7029(3) 0.2143(3)
N1A N 0.9112(4) -0.1616(4) 1.3944(4)
N1A_2 N -0.0888(4) -1.1616(4) 0.3944(4)
N2A N 0.6249(4) -0.5491(4) 1.1381(4)
C1A C 0.8097(4) -0.2870(5) 1.4890(4)
H1A H 0.7703 -0.2887 1.6028
C2A C 0.7900(5) -0.5662(5) 1.2014(4)
C3A C 0.8167(4) -0.4124(5) 1.2621(4)
C4A C 0.9166(5) -0.2782(5) 1.1605(4)
H2A H 0.9533 -0.2699 1.0444
C5A C 0.9612(5) -0.1577(5) 1.2313(4)
H3A H 1.0307 -0.0674 1.1620
C6A C 0.7598(4) -0.4137(5) 1.4280(4)
H4A H 0.6877 -0.5004 1.4987
C7A C 0.5888(5) -0.7016(5) 1.0886(5)
H5A H 0.7005 -0.8064 1.1081
H6A H 0.4922 -0.7581 1.1642
C8A C 0.4714(5) -0.3823(5) 1.1055(5)
H7A H 0.3689 -0.4228 1.1820
H8A H 0.5076 -0.2821 1.1354
loop_
_geom_bond_atom_site_label_1
_geom_bond_atom_site_label_2
_geom_bond_site_symmetry_1
_geom_bond_site_symmetry_2
Cu1 Br1 1_555 1_555
O1 C2 1_555 1_555
N1 Cu1 1_555 1_555
N2 C2 1_555 1_555
C1 N1 1_555 1_555
H1 C1 1_555 1_555
C2 C3 1_555 1_555
C3 C4 1_555 1_555
C4 H2 1_555 1_555
C5 N1 1_555 1_555
H3 C5 1_555 1_555
C6 C1 1_555 1_555
H4 C6 1_555 1_555
C7 N2 1_555 1_555
H5 C7 1_555 1_555
H6 C7 1_555 1_555
C8 N2 1_555 1_555
H7 C8 1_555 1_555
H8 C8 1_555 1_555
Cu1_2 O1 1_555 1_555
Cu1_3 O1A 1_555 1_555
Cu1_4 N1A 1_555 1_555
Br1A Cu1 1_555 1_555
O1A C2A 1_555 1_555
O1_2 Cu1 1_555 1_555
O1A_2 Cu1 1_555 1_555
N1A C1A 1_555 1_555
N1A_2 Cu1 1_555 1_555
N2A C2A 1_555 1_555
C1A H1A 1_555 1_555
C2A C3A 1_555 1_555
C3A C4A 1_555 1_555
C4A H2A 1_555 1_555
C5A N1A 1_555 1_555
H3A C5A 1_555 1_555
C6A C1A 1_555 1_555
H4A C6A 1_555 1_555
C7A C8 1_555 1_555
H5A C7A 1_555 1_555
H6A C7A 1_555 1_555
C8A C7 1_555 1_555
H7A C8A 1_555 1_555
H8A C8A 1_555 1_555
C3 C6 1_555 1_555
C4 C5 1_555 1_555
N2A C7A 1_555 1_555
N2A C8A 1_555 1_555
C3A C6A 1_555 1_555
C4A C5A 1_555 1_555

#END
