
#######################################################################
#
#                 Cambridge Crystallographic Data Centre
#                                CCDC 
#
#######################################################################
#
# If this CIF has been generated from an entry in the Cambridge 
# Structural Database, then it will include bibliographic, chemical, 
# crystal, experimental, refinement or atomic coordinate data resulting 
# from the CCDC's data processing and validation procedures.
#
#######################################################################

data_ARADOM
_symmetry_cell_setting           monoclinic
_symmetry_space_group_name_H-M   'P 21/c'
_symmetry_Int_Tables_number      14
_space_group_name_Hall           '-P 2ybc'
loop_
_symmetry_equiv_pos_site_id
_symmetry_equiv_pos_as_xyz
1 x,y,z
2 -x,1/2+y,1/2-z
3 -x,-y,-z
4 x,1/2-y,1/2+z
_cell_length_a                   24.7781(11)
_cell_length_b                   13.2036(6)
_cell_length_c                   24.8406(11)
_cell_angle_alpha                90
_cell_angle_beta                 96.1090(10)
_cell_angle_gamma                90
_cell_volume                     8080.7
loop_
_atom_site_label
_atom_site_type_symbol
_atom_site_fract_x
_atom_site_fract_y
_atom_site_fract_z
Mo1 Mo 0.099030(8) -0.227070(16) 0.056660(8)
Mo2 Mo 0.196490(8) -0.228380(15) -0.029420(8)
Mo3 Mo 0.327090(9) -0.358190(16) 0.009990(8)
Mo4 Mo 0.290240(9) -0.007610(16) 0.260710(8)
Mo5 Mo 0.266030(8) 0.100420(15) 0.136690(8)
Mo6 Mo 0.386210(8) -0.016670(15) 0.173570(8)
Mo7 Mo 0.165890(8) -0.010730(15) 0.031360(8)
Mo8 Mo 0.122950(9) -0.349660(17) 0.191260(9)
Mo9 Mo 0.348920(9) -0.465430(16) 0.133570(9)
Mo10 Mo 0.244920(9) -0.461520(17) 0.230110(9)
Mo11 Mo 0.418910(8) -0.254860(16) 0.104810(9)
Mo12 Mo 0.214500(9) -0.240820(17) 0.286360(8)
As1 As 0.306650(10) -0.098190(18) 0.050390(10)
As2 As 0.337220(10) -0.254750(18) 0.222420(10)
As3 As 0.170190(10) -0.087670(19) 0.169900(10)
As4 As 0.212580(10) -0.396400(18) 0.086980(10)
Cu1 Cu 0.372910(13) -0.73470(2) 0.103340(13)
Cu2 Cu 0.098260(12) -0.31762(2) -0.140850(12)
O1 O 0.15754(7) -0.11183(13) 0.10274(7)
O2 O 0.17351(7) -0.19891(13) 0.20358(7)
O3 O 0.23025(7) -0.02542(13) 0.18154(7)
O4 O 0.18201(7) -0.29821(13) 0.05215(7)
O5 O 0.19885(7) -0.39203(13) 0.15207(7)
O6 O 0.28033(7) -0.38533(13) 0.08401(7)
O7 O 0.33721(7) -0.21188(13) 0.06015(7)
O8 O 0.24001(7) -0.11545(13) 0.03029(7)
O9 O 0.31312(7) -0.03457(13) 0.11024(7)
O10 O 0.35671(7) -0.30387(13) 0.16483(7)
O11 O 0.27388(7) -0.29645(13) 0.23225(7)
O12 O 0.33289(7) -0.12746(13) 0.21538(7)
O13 O 0.10609(7) 0.04714(14) 0.03895(7)
O14 O 0.04650(8) -0.14477(15) 0.05715(8)
O15 O 0.23380(8) 0.18506(14) 0.17345(8)
O16 O 0.25057(8) 0.08979(15) 0.27772(8)
O17 O 0.07930(8) -0.29835(16) 0.23214(8)
O18 O 0.15547(7) -0.20512(14) 0.31432(7)
O19 O 0.10072(8) -0.47028(16) 0.18347(8)
O20 O 0.18408(7) -0.37072(14) 0.25173(7)
O21 O 0.25146(8) -0.29589(16) 0.33882(7)
O22 O 0.24987(7) -0.11742(14) 0.28452(7)
O23 O 0.34449(8) -0.00217(15) 0.30808(7)
O24 O 0.32223(7) 0.06124(13) 0.19912(7)
O25 O 0.30961(7) 0.17927(13) 0.10516(7)
O26 O 0.21341(7) 0.06777(13) 0.08135(7)
O27 O 0.18278(8) 0.03931(14) -0.02753(7)
O28 O 0.13795(7) -0.14567(13) 0.00273(7)
O29 O 0.20411(7) -0.14264(14) -0.07831(7)
O30 O 0.15294(7) -0.31522(14) -0.06235(7)
O31 O 0.07278(8) -0.32064(14) 0.01508(7)
O32 O 0.09855(7) -0.29096(15) 0.12435(7)
O33 O 0.20715(9) -0.56858(15) 0.21881(8)
O34 O 0.31869(8) -0.48066(14) -0.00866(8)
O35 O 0.33448(8) -0.57480(14) 0.09786(8)
O36 O 0.37165(8) -0.31398(16) -0.03138(8)
O37 O 0.40952(8) -0.49066(14) 0.16900(8)
O38 O 0.45057(8) -0.22291(15) 0.05005(8)
O39 O 0.46904(8) -0.31251(14) 0.14538(8)
O40 O 0.41469(7) -0.12820(14) 0.14004(7)
O41 O 0.42719(7) -0.01047(14) 0.23276(7)
O42 O 0.40863(7) 0.08145(14) 0.13710(7)
O43 O 0.38162(7) -0.38364(13) 0.07560(7)
O44 O 0.26143(7) -0.29907(14) -0.02165(7)
O45 O 0.30121(8) -0.48070(14) 0.18700(8)
O46 O 0.27669(9) -0.48111(15) 0.29285(8)
N1 N 0.39379(9) -0.71254(16) 0.18357(9)
N2 N 0.44485(9) -0.68219(16) 0.10094(9)
N3 N 0.37234(9) -0.72112(17) 0.02278(9)
N4 N 0.07591(9) -0.17416(17) -0.12956(9)
N5 N 0.03347(9) -0.34222(18) -0.10649(9)
N6 N 0.09669(9) -0.46992(18) -0.14494(9)
C1 C 0.38700(10) -0.29808(18) 0.28135(10)
C2 C 0.43367(10) -0.34861(19) 0.26927(10)
H1 H 0.4411 -0.3562 0.2328
C3 C 0.46905(11) -0.3876(2) 0.31120(11)
H2 H 0.5012 -0.4212 0.3034
C4 C 0.45769(11) -0.3777(2) 0.36428(11)
H3 H 0.4819 -0.4056 0.3927
C5 C 0.41125(11) -0.3273(2) 0.37654(11)
H4 H 0.4039 -0.3208 0.4131
C6 C 0.37559(11) -0.2864(2) 0.33509(11)
H5 H 0.3440 -0.2511 0.3431
C7 C 0.34215(10) -0.02491(18) -0.00172(10)
C8 C 0.39569(11) 0.0055(2) 0.01321(11)
H6 H 0.4128 -0.0080 0.0485
C9 C 0.42342(12) 0.0557(2) -0.02464(12)
H7 H 0.4598 0.0774 -0.0153
C10 C 0.39773(13) 0.0740(2) -0.07611(12)
H8 H 0.4168 0.1081 -0.1019
C11 C 0.34500(13) 0.0436(2) -0.09039(11)
H9 H 0.3281 0.0571 -0.1258
C12 C 0.31627(11) -0.0069(2) -0.05333(10)
H10 H 0.2800 -0.0284 -0.0630
C13 C 0.19132(10) -0.52263(18) 0.05477(10)
C14 C 0.18244(11) -0.6054(2) 0.08751(11)
H11 H 0.1824 -0.5975 0.1255
C15 C 0.17371(11) -0.6999(2) 0.06345(12)
H12 H 0.1673 -0.7570 0.0851
C16 C 0.17430(12) -0.7113(2) 0.00809(12)
H13 H 0.1686 -0.7763 -0.0079
C17 C 0.18325(12) -0.6282(2) -0.02413(12)
H14 H 0.1836 -0.6365 -0.0621
C18 C 0.19168(12) -0.5333(2) -0.00098(11)
H15 H 0.1976 -0.4762 -0.0228
C19 C 0.11329(10) -0.0066(2) 0.19242(10)
C20 C 0.06921(12) -0.0529(3) 0.21334(12)
H16 H 0.0680 -0.1244 0.2175
C21 C 0.02715(13) 0.0079(3) 0.22797(13)
H17 H -0.0033 -0.0226 0.2417
C22 C 0.02925(13) 0.1110(3) 0.22271(13)
H18 H 0.0006 0.1515 0.2335
C23 C 0.07309(14) 0.1572(3) 0.20171(13)
H19 H 0.0741 0.2287 0.1979
C24 C 0.11521(12) 0.0984(2) 0.18645(12)
H20 H 0.1452 0.1293 0.1720
C25 C 0.36222(11) -0.7210(2) 0.22366(11)
H21 H 0.3250 -0.7374 0.2150
C26 C 0.38206(13) -0.7067(2) 0.27776(11)
H22 H 0.3589 -0.7129 0.3057
C27 C 0.43644(13) -0.6831(2) 0.28957(12)
H23 H 0.4516 -0.6765 0.3262
C28 C 0.46872(12) -0.6693(2) 0.24810(11)
H24 H 0.5058 -0.6508 0.2557
C29 C 0.44610(11) -0.68291(19) 0.19568(10)
C30 C 0.47464(11) -0.65979(19) 0.14749(11)
C31 C 0.52464(11) -0.6129(2) 0.14726(12)
H25 H 0.5453 -0.5942 0.1802
C32 C 0.54376(12) -0.5940(2) 0.09752(12)
H26 H 0.5787 -0.5649 0.0964
C33 C 0.51222(11) -0.6171(2) 0.04953(12)
H27 H 0.5251 -0.6040 0.0155
C34 C 0.46131(11) -0.6600(2) 0.05233(11)
C35 C 0.41879(11) -0.6802(2) 0.00703(11)
C36 C 0.42318(13) -0.6538(2) -0.04619(11)
H28 H 0.4564 -0.6287 -0.0567
C37 C 0.37759(14) -0.6648(2) -0.08421(12)
H29 H 0.3791 -0.6451 -0.1208
C38 C 0.33078(13) -0.7042(2) -0.06810(12)
H30 H 0.2994 -0.7116 -0.0934
C39 C 0.32948(12) -0.7335(2) -0.01409(11)
H31 H 0.2973 -0.7630 -0.0034
C40 C 0.10176(11) -0.0911(2) -0.14340(11)
H32 H 0.1305 -0.0978 -0.1656
C41 C 0.08798(12) 0.0048(2) -0.12649(13)
H33 H 0.1072 0.0629 -0.1366
C42 C 0.04576(12) 0.0143(2) -0.09461(13)
H34 H 0.0359 0.0791 -0.0822
C43 C 0.01803(12) -0.0715(2) -0.08094(12)
H35 H -0.0114 -0.0660 -0.0596
C44 C 0.03375(10) -0.1650(2) -0.09879(10)
C45 C 0.00894(10) -0.2630(2) -0.08598(11)
C46 C -0.03408(11) -0.2789(3) -0.05508(12)
H36 H -0.0526 -0.2236 -0.0409
C47 C -0.04892(12) -0.3775(3) -0.04576(12)
H37 H -0.0778 -0.3899 -0.0244
C48 C -0.02286(12) -0.4589(3) -0.06675(12)
H38 H -0.0335 -0.5265 -0.0602
C49 C 0.01955(11) -0.4383(2) -0.09790(11)
C50 C 0.05431(12) -0.5123(2) -0.12203(11)
C51 C 0.04663(13) -0.6158(2) -0.12183(13)
H39 H 0.0167 -0.6445 -0.1064
C52 C 0.08377(14) -0.6771(2) -0.14485(14)
H40 H 0.0793 -0.7486 -0.1451
C53 C 0.12687(14) -0.6343(2) -0.16724(13)
H41 H 0.1527 -0.6757 -0.1825
C54 C 0.13193(12) -0.5299(2) -0.16707(11)
H42 H 0.1612 -0.5000 -0.1831
O25_2 O 0.30961(7) -0.82073(13) 0.10516(7)
O18C O 0.15547(7) -0.29488(14) -0.18568(7)
Cu1_2 Cu 0.372910(13) 0.26530(2) 0.103340(13)
Cu2C Cu 0.098260(12) -0.18238(2) 0.359150(12)
O47 O 0.25192(14) -0.7083(2) 0.30120(13)
O48 O 0.19159(16) -0.8269(3) 0.88346(16)
O49 O 0.1071(5) -0.6300(8) 0.2700(5)
loop_
_geom_bond_atom_site_label_1
_geom_bond_atom_site_label_2
_geom_bond_site_symmetry_1
_geom_bond_site_symmetry_2
Mo1 O1 1_555 1_555
Mo2 O4 1_555 1_555
Mo3 O6 1_555 1_555
Mo4 O3 1_555 1_555
Mo5 O3 1_555 1_555
Mo6 O9 1_555 1_555
Mo7 O1 1_555 1_555
Mo8 O2 1_555 1_555
Mo9 O6 1_555 1_555
Mo10 O5 1_555 1_555
Mo11 O7 1_555 1_555
Mo12 O2 1_555 1_555
As1 O7 1_555 1_555
As2 O10 1_555 1_555
As3 O1 1_555 1_555
As4 O4 1_555 1_555
Cu1 O35 1_555 1_555
Cu2 O30 1_555 1_555
O2 As3 1_555 1_555
O3 As3 1_555 1_555
O4 Mo1 1_555 1_555
O5 Mo8 1_555 1_555
O6 As4 1_555 1_555
O7 Mo3 1_555 1_555
O8 Mo2 1_555 1_555
O9 Mo5 1_555 1_555
O10 Mo9 1_555 1_555
O11 Mo10 1_555 1_555
O12 Mo4 1_555 1_555
O13 Mo7 1_555 1_555
O14 Mo1 1_555 1_555
O15 Mo5 1_555 1_555
O16 Mo4 1_555 1_555
O17 Mo8 1_555 1_555
O18 Mo12 1_555 1_555
O19 Mo8 1_555 1_555
O20 Mo8 1_555 1_555
O21 Mo12 1_555 1_555
O22 Mo4 1_555 1_555
O23 Mo4 1_555 1_555
O24 Mo4 1_555 1_555
O25 Mo5 1_555 1_555
O26 Mo5 1_555 1_555
O27 Mo7 1_555 1_555
O28 Mo1 1_555 1_555
O29 Mo2 1_555 1_555
O30 Mo2 1_555 1_555
O31 Mo1 1_555 1_555
O32 Mo1 1_555 1_555
O33 Mo10 1_555 1_555
O34 Mo3 1_555 1_555
O35 Mo9 1_555 1_555
O36 Mo3 1_555 1_555
O37 Mo9 1_555 1_555
O38 Mo11 1_555 1_555
O39 Mo11 1_555 1_555
O40 Mo6 1_555 1_555
O41 Mo6 1_555 1_555
O42 Mo6 1_555 1_555
O43 Mo3 1_555 1_555
O44 Mo2 1_555 1_555
O45 Mo9 1_555 1_555
O46 Mo10 1_555 1_555
N1 Cu1 1_555 1_555
N2 Cu1 1_555 1_555
N3 Cu1 1_555 1_555
N4 Cu2 1_555 1_555
N5 Cu2 1_555 1_555
N6 Cu2 1_555 1_555
C1 As2 1_555 1_555
C2 C1 1_555 1_555
H1 C2 1_555 1_555
C3 C2 1_555 1_555
H2 C3 1_555 1_555
C4 C3 1_555 1_555
H3 C4 1_555 1_555
C5 C4 1_555 1_555
H4 C5 1_555 1_555
C6 C1 1_555 1_555
H5 C6 1_555 1_555
C7 As1 1_555 1_555
C8 C7 1_555 1_555
H6 C8 1_555 1_555
C9 C8 1_555 1_555
H7 C9 1_555 1_555
C10 C9 1_555 1_555
H8 C10 1_555 1_555
C11 C10 1_555 1_555
H9 C11 1_555 1_555
C12 C7 1_555 1_555
H10 C12 1_555 1_555
C13 As4 1_555 1_555
C14 C13 1_555 1_555
H11 C14 1_555 1_555
C15 C14 1_555 1_555
H12 C15 1_555 1_555
C16 C15 1_555 1_555
H13 C16 1_555 1_555
C17 C16 1_555 1_555
H14 C17 1_555 1_555
C18 C13 1_555 1_555
H15 C18 1_555 1_555
C19 As3 1_555 1_555
C20 C19 1_555 1_555
H16 C20 1_555 1_555
C21 C20 1_555 1_555
H17 C21 1_555 1_555
C22 C21 1_555 1_555
H18 C22 1_555 1_555
C23 C22 1_555 1_555
H19 C23 1_555 1_555
C24 C19 1_555 1_555
H20 C24 1_555 1_555
C25 N1 1_555 1_555
H21 C25 1_555 1_555
C26 C25 1_555 1_555
H22 C26 1_555 1_555
C27 C26 1_555 1_555
H23 C27 1_555 1_555
C28 C27 1_555 1_555
H24 C28 1_555 1_555
C29 N1 1_555 1_555
C30 N2 1_555 1_555
C31 C30 1_555 1_555
H25 C31 1_555 1_555
C32 C31 1_555 1_555
H26 C32 1_555 1_555
C33 C32 1_555 1_555
H27 C33 1_555 1_555
C34 N2 1_555 1_555
C35 N3 1_555 1_555
C36 C35 1_555 1_555
H28 C36 1_555 1_555
C37 C36 1_555 1_555
H29 C37 1_555 1_555
C38 C37 1_555 1_555
H30 C38 1_555 1_555
C39 N3 1_555 1_555
H31 C39 1_555 1_555
C40 N4 1_555 1_555
H32 C40 1_555 1_555
C41 C40 1_555 1_555
H33 C41 1_555 1_555
C42 C41 1_555 1_555
H34 C42 1_555 1_555
C43 C42 1_555 1_555
H35 C43 1_555 1_555
C44 N4 1_555 1_555
C45 N5 1_555 1_555
C46 C45 1_555 1_555
H36 C46 1_555 1_555
C47 C46 1_555 1_555
H37 C47 1_555 1_555
C48 C47 1_555 1_555
H38 C48 1_555 1_555
C49 N5 1_555 1_555
C50 N6 1_555 1_555
C51 C50 1_555 1_555
H39 C51 1_555 1_555
C52 C51 1_555 1_555
H40 C52 1_555 1_555
C53 C52 1_555 1_555
H41 C53 1_555 1_555
C54 N6 1_555 1_555
H42 C54 1_555 1_555
O25_2 Cu1 1_555 1_555
O18C Cu2 1_555 1_555
Cu1_2 O25 1_555 1_555
Cu2C O18 1_555 1_555
Mo2 O28 1_555 1_555
Mo3 O44 1_555 1_555
Mo5 O24 1_555 1_555
Mo6 O12 1_555 1_555
Mo6 O24 1_555 1_555
Mo7 O8 1_555 1_555
Mo7 O26 1_555 1_555
Mo7 O28 1_555 1_555
Mo8 O32 1_555 1_555
Mo9 O43 1_555 1_555
Mo10 O20 1_555 1_555
Mo10 O45 1_555 1_555
Mo11 O10 1_555 1_555
Mo11 O40 1_555 1_555
Mo11 O43 1_555 1_555
Mo12 O11 1_555 1_555
Mo12 O20 1_555 1_555
Mo12 O22 1_555 1_555
As1 O8 1_555 1_555
As1 O9 1_555 1_555
As2 O11 1_555 1_555
As2 O12 1_555 1_555
As4 O5 1_555 1_555
C5 C6 1_555 1_555
C11 C12 1_555 1_555
C17 C18 1_555 1_555
C23 C24 1_555 1_555
C28 C29 1_555 1_555
C29 C30 1_555 1_555
C33 C34 1_555 1_555
C34 C35 1_555 1_555
C38 C39 1_555 1_555
C43 C44 1_555 1_555
C44 C45 1_555 1_555
C48 C49 1_555 1_555
C49 C50 1_555 1_555
C53 C54 1_555 1_555

#END
