
#######################################################################
#
#                 Cambridge Crystallographic Data Centre
#                                CCDC 
#
#######################################################################
#
# If this CIF has been generated from an entry in the Cambridge 
# Structural Database, then it will include bibliographic, chemical, 
# crystal, experimental, refinement or atomic coordinate data resulting 
# from the CCDC's data processing and validation procedures.
#
#######################################################################

data_ARAPEO01
_symmetry_cell_setting           monoclinic
_symmetry_space_group_name_H-M   'C 2/c'
_symmetry_Int_Tables_number      15
_space_group_name_Hall           '-C 2yn'
loop_
_symmetry_equiv_pos_site_id
_symmetry_equiv_pos_as_xyz
1 x,y,z
2 1/2+x,1/2+y,z
3 x,-y,1/2+z
4 1/2+x,1/2-y,1/2+z
5 -x,-y,-z
6 1/2-x,1/2-y,-z
7 -x,y,1/2-z
8 1/2-x,1/2+y,1/2-z
_cell_length_a                   7.7714(16)
_cell_length_b                   11.398(2)
_cell_length_c                   24.063(5)
_cell_angle_alpha                90
_cell_angle_beta                 97.54(3)
_cell_angle_gamma                90
_cell_volume                     2113.03
loop_
_atom_site_label
_atom_site_type_symbol
_atom_site_fract_x
_atom_site_fract_y
_atom_site_fract_z
Cu1 Cu 0.22748(3) 1.05686(2) -0.244759(9)
O1 O 0.37083(18) 1.16222(14) -0.19440(6)
O2 O 0.2799(2) 1.15574(16) -0.30672(7)
O4 O 0.1289(2) 1.23916(18) -0.17153(8)
C1 C 0.2870(3) 1.22654(18) -0.16355(9)
C2 C 0.3811(3) 1.22786(19) -0.06124(9)
H1 H 0.3039 1.1662 -0.0590
C3 C 0.3960(3) 1.27834(17) -0.11303(8)
C4 C 0.4798(3) 1.2684(2) -0.01286(9)
H2 H 0.4684 1.2345 0.0216
O5 O 0.5000 0.9422(2) -0.2500
C5 C 0.5147(2) 1.36992(17) -0.11654(8)
C6 C 0.5243(3) 1.43329(16) -0.17043(9)
C7 C 0.6149(3) 1.40965(18) -0.06783(8)
H3 H 0.6949 1.4696 -0.0699
C8 C 0.5960(3) 1.36028(19) -0.01632(8)
C9 C 0.6955(3) 1.4054(2) 0.03690(9)
O6 O 0.8067(2) 1.48860(17) 0.02849(7)
O7 O 0.6716(3) 1.36764(19) 0.08234(7)
O8 O 0.3847(2) 1.44295(14) -0.20266(7)
O9 O 0.6694(2) 1.47452(15) -0.17855(6)
H5 H 0.457(4) 0.901(2) -0.2754(10)
H7 H 0.863(4) 1.516(3) 0.0567(10)
H8 H 0.385(2) 1.167(3) -0.3031(13)
H9 H 0.240(4) 1.132(3) -0.3380(9)
H5F H 0.543(4) 0.901(2) -0.2246(10)
O1G O 0.12917(18) 0.66222(14) -0.30560(6)
O4G O 0.3711(2) 0.73916(18) -0.32847(8)
C1G C 0.2130(3) 0.72654(18) -0.33645(9)
C2G C 0.1189(3) 0.72786(19) -0.43876(9)
H1G H 0.1961 0.6662 -0.4410
C3G C 0.1040(3) 0.77834(17) -0.38697(8)
C4G C 0.0202(3) 0.7684(2) -0.48714(9)
H2G H 0.0316 0.7345 -0.5216
C5G C -0.0147(2) 0.86992(17) -0.38346(8)
C6G C -0.0243(3) 0.93329(16) -0.32957(9)
C7G C -0.1149(3) 0.90965(18) -0.43217(8)
H3G H -0.1949 0.9696 -0.4301
C8G C -0.0960(3) 0.86028(19) -0.48368(8)
C9G C -0.1955(3) 0.9054(2) -0.53690(9)
O6G O -0.3067(2) 0.98860(17) -0.52849(7)
O7G O -0.1716(3) 0.86764(19) -0.58234(7)
O8G O 0.1153(2) 0.94295(14) -0.29734(7)
O9G O -0.1694(2) 0.97452(15) -0.32145(6)
H7G H -0.363(4) 1.016(3) -0.5567(10)
Cu1G Cu 0.27252(3) 0.55686(2) -0.255241(9)
O2G O 0.2201(2) 0.65574(16) -0.19328(7)
H8G H 0.115(2) 0.667(3) -0.1969(13)
H9G H 0.260(4) 0.632(3) -0.1620(9)
O9A O 0.1694(2) 0.97452(15) -0.17855(6)
Cu1F Cu 0.77252(3) 1.05686(2) -0.255241(9)
Cu1G_2 Cu 0.27252(3) 1.55686(2) -0.255241(9)
Cu1A Cu 0.72748(3) 1.55686(2) -0.244759(9)
Cu1F_2 Cu -0.22748(3) 1.05686(2) -0.255241(9)
O5A O 0.0000 0.4422(2) -0.2500
O8_2 O 0.3847(2) 0.44295(14) -0.20266(7)
O9F O 0.3306(2) 0.47452(15) -0.32145(6)
H5A H -0.043(4) 0.401(2) -0.2754(10)
H5G H 0.043(4) 0.401(2) -0.2246(10)
O3 O 0.5072(3) 1.0778(2) 0.38446(10)
H4 H 0.406(3) 1.060(2) 0.3727(14)
H6 H 0.525(4) 1.1400(19) 0.3711(12)
loop_
_geom_bond_atom_site_label_1
_geom_bond_atom_site_label_2
_geom_bond_site_symmetry_1
_geom_bond_site_symmetry_2
Cu1 O1 1_555 1_555
O1 C1 1_555 1_555
O2 Cu1 1_555 1_555
O3 H4 1_555 1_555
O4 C1 1_555 1_555
C1 C3 1_555 1_555
C2 H1 1_555 1_555
C3 C2 1_555 1_555
C4 C2 1_555 1_555
H2 C4 1_555 1_555
O5 Cu1 1_555 1_555
C5 C3 1_555 1_555
C6 C5 1_555 1_555
C7 C5 1_555 1_555
H3 C7 1_555 1_555
C8 C4 1_555 1_555
C9 C8 1_555 1_555
O6 C9 1_555 1_555
O7 C9 1_555 1_555
O8 C6 1_555 1_555
O9 C6 1_555 1_555
H5 O5 1_555 1_555
H6 O3 1_555 1_555
H7 O6 1_555 1_555
H8 O2 1_555 1_555
H9 O2 1_555 1_555
H5F O5 1_555 1_555
O1G C1G 1_555 1_555
O4G C1G 1_555 1_555
C1G C3G 1_555 1_555
C2G H1G 1_555 1_555
C3G C2G 1_555 1_555
C4G C2G 1_555 1_555
H2G C4G 1_555 1_555
C5G C3G 1_555 1_555
C6G C5G 1_555 1_555
C7G C5G 1_555 1_555
H3G C7G 1_555 1_555
C8G C4G 1_555 1_555
C9G C8G 1_555 1_555
O6G C9G 1_555 1_555
O7G C9G 1_555 1_555
O8G Cu1 1_555 1_555
O9G C6G 1_555 1_555
H7G O6G 1_555 1_555
Cu1G O1G 1_555 1_555
O2G Cu1G 1_555 1_555
H8G O2G 1_555 1_555
H9G O2G 1_555 1_555
O9A Cu1 1_555 1_555
Cu1F O5 1_555 1_555
Cu1G_2 O8 1_555 1_555
Cu1A O9 1_555 1_555
Cu1F_2 O9G 1_555 1_555
O5A Cu1G 1_555 1_555
O8_2 Cu1G 1_555 1_555
O9F Cu1G 1_555 1_555
H5A O5A 1_555 1_555
H5G O5A 1_555 1_555
C7 C8 1_555 1_555
C6G O8G 1_555 1_555
C7G C8G 1_555 1_555

#END
