
#######################################################################
#
#                 Cambridge Crystallographic Data Centre
#                                CCDC 
#
#######################################################################
#
# If this CIF has been generated from an entry in the Cambridge 
# Structural Database, then it will include bibliographic, chemical, 
# crystal, experimental, refinement or atomic coordinate data resulting 
# from the CCDC's data processing and validation procedures.
#
#######################################################################

data_ARAPEO
_symmetry_cell_setting           monoclinic
_symmetry_space_group_name_H-M   'C 2/c'
_symmetry_Int_Tables_number      15
_space_group_name_Hall           '-C 2yn'
loop_
_symmetry_equiv_pos_site_id
_symmetry_equiv_pos_as_xyz
1 x,y,z
2 1/2+x,1/2+y,z
3 x,-y,1/2+z
4 1/2+x,1/2-y,1/2+z
5 -x,-y,-z
6 1/2-x,1/2-y,-z
7 -x,y,1/2-z
8 1/2-x,1/2+y,1/2-z
_cell_length_a                   7.7535(5)
_cell_length_b                   11.3348(6)
_cell_length_c                   24.0815(11)
_cell_angle_alpha                90
_cell_angle_beta                 97.688(2)
_cell_angle_gamma                90
_cell_volume                     2097.36
loop_
_atom_site_label
_atom_site_type_symbol
_atom_site_fract_x
_atom_site_fract_y
_atom_site_fract_z
Cu1 Cu 0.22807(3) 0.05609(2) 0.255052(10)
O1 O 0.37059(19) 0.16238(14) 0.30549(6)
O2 O 0.1270(2) 0.23897(17) 0.32870(7)
O3 O 0.3846(2) 0.44123(14) 0.29733(6)
O4 O 0.6705(2) 0.47388(14) 0.32150(6)
O5 O 0.8075(2) 0.48860(16) 0.52879(7)
H1 H 0.8600 0.5108 0.5598
O6 O 0.6708(2) 0.36787(17) 0.58242(7)
O7 O 0.2807(2) 0.15472(15) 0.19290(6)
O9 O 0.5000 -0.0576(2) 0.2500
C1 C 0.3949(3) 0.27789(19) 0.38724(8)
C2 C 0.5147(3) 0.36934(18) 0.38372(8)
C3 C 0.6153(3) 0.40910(19) 0.43219(8)
H2 H 0.6978 0.4703 0.4300
C4 C 0.5959(3) 0.35986(19) 0.48389(8)
C5 C 0.4800(3) 0.2678(2) 0.48717(9)
H3 H 0.4688 0.2328 0.5223
C6 C 0.3803(3) 0.2271(2) 0.43874(9)
H4 H 0.3013 0.1637 0.4409
C7 C 0.2862(3) 0.22626(19) 0.33628(9)
C8 C 0.5247(3) 0.43252(17) 0.32953(8)
C9 C 0.6958(3) 0.4054(2) 0.53691(9)
H7 H 0.4657 -0.1161 0.2308
H7F H 0.5343 -0.1161 0.2692
O1G O 0.12941(19) -0.33762(14) 0.19451(6)
O2G O 0.3730(2) -0.26103(17) 0.17130(7)
O3G O 0.1154(2) -0.05877(14) 0.20267(6)
O4G O -0.1705(2) -0.02612(14) 0.17850(6)
O5G O -0.3075(2) -0.01140(16) -0.02879(7)
H1G H -0.3600 0.0108 -0.0598
O6G O -0.1708(2) -0.13213(17) -0.08242(7)
C1G C 0.1051(3) -0.22211(19) 0.11276(8)
C2G C -0.0147(3) -0.13066(18) 0.11628(8)
C3G C -0.1153(3) -0.09090(19) 0.06781(8)
H2G H -0.1978 -0.0297 0.0700
C4G C -0.0959(3) -0.14014(19) 0.01611(8)
C5G C 0.0200(3) -0.2322(2) 0.01283(9)
H3G H 0.0312 -0.2672 -0.0223
C6G C 0.1197(3) -0.2729(2) 0.06126(9)
H4G H 0.1987 -0.3363 0.0591
C7G C 0.2138(3) -0.27374(19) 0.16372(9)
C8G C -0.0247(3) -0.06748(17) 0.17047(8)
C9G C -0.1958(3) -0.0946(2) -0.03691(9)
Cu1G Cu 0.27193(3) -0.44391(2) 0.244948(10)
O7G O 0.2193(2) -0.34528(15) 0.30710(6)
O4A O 0.1705(2) -0.02612(14) 0.32150(6)
Cu1G_2 Cu 0.27193(3) 0.55609(2) 0.244948(10)
Cu1A Cu 0.72807(3) 0.55609(2) 0.255052(10)
Cu1F Cu 0.77193(3) 0.05609(2) 0.244948(10)
Cu1F_2 Cu -0.22807(3) 0.05609(2) 0.244948(10)
O3_2 O 0.3846(2) -0.55877(14) 0.29733(6)
O4F O 0.3295(2) -0.52612(14) 0.17850(6)
O9A O 0.0000 -0.5576(2) 0.2500
H7A H -0.0343 -0.6161 0.2308
H7G H 0.0343 -0.6161 0.2692
O8 O 0.4930(2) 0.07777(17) 0.61575(8)
H5 H 0.4612 0.1416 0.6277
H6 H 0.5883 0.0620 0.6318
loop_
_geom_bond_atom_site_label_1
_geom_bond_atom_site_label_2
_geom_bond_site_symmetry_1
_geom_bond_site_symmetry_2
Cu1 O1 1_555 1_555
O1 C7 1_555 1_555
O2 C7 1_555 1_555
O3 C8 1_555 1_555
O4 C8 1_555 1_555
O5 H1 1_555 1_555
O6 C9 1_555 1_555
O7 Cu1 1_555 1_555
O8 H5 1_555 1_555
O9 Cu1 1_555 1_555
C1 C2 1_555 1_555
C2 C3 1_555 1_555
C3 H2 1_555 1_555
C4 C3 1_555 1_555
C5 C4 1_555 1_555
H3 C5 1_555 1_555
C6 C1 1_555 1_555
H4 C6 1_555 1_555
C7 C1 1_555 1_555
C8 C2 1_555 1_555
C9 O5 1_555 1_555
H6 O8 1_555 1_555
H7 O9 1_555 1_555
H7F O9 1_555 1_555
O1G C7G 1_555 1_555
O2G C7G 1_555 1_555
O3G Cu1 1_555 1_555
O4G C8G 1_555 1_555
O5G H1G 1_555 1_555
O6G C9G 1_555 1_555
C1G C2G 1_555 1_555
C2G C3G 1_555 1_555
C3G H2G 1_555 1_555
C4G C3G 1_555 1_555
C5G C4G 1_555 1_555
H3G C5G 1_555 1_555
C6G C1G 1_555 1_555
H4G C6G 1_555 1_555
C7G C1G 1_555 1_555
C8G O3G 1_555 1_555
C9G O5G 1_555 1_555
Cu1G O1G 1_555 1_555
O7G Cu1G 1_555 1_555
O4A Cu1 1_555 1_555
Cu1G_2 O3 1_555 1_555
Cu1A O4 1_555 1_555
Cu1F O9 1_555 1_555
Cu1F_2 O4G 1_555 1_555
O3_2 Cu1G 1_555 1_555
O4F Cu1G 1_555 1_555
O9A Cu1G 1_555 1_555
H7A O9A 1_555 1_555
H7G O9A 1_555 1_555
C4 C9 1_555 1_555
C5 C6 1_555 1_555
C2G C8G 1_555 1_555
C4G C9G 1_555 1_555
C5G C6G 1_555 1_555

#END
