
#######################################################################
#
#                 Cambridge Crystallographic Data Centre
#                                CCDC 
#
#######################################################################
#
# If this CIF has been generated from an entry in the Cambridge 
# Structural Database, then it will include bibliographic, chemical, 
# crystal, experimental, refinement or atomic coordinate data resulting 
# from the CCDC's data processing and validation procedures.
#
#######################################################################

data_ARAWEW
_symmetry_cell_setting           orthorhombic
_symmetry_space_group_name_H-M   'P b c a'
_symmetry_Int_Tables_number      61
_space_group_name_Hall           '-P 2ac 2ab'
loop_
_symmetry_equiv_pos_site_id
_symmetry_equiv_pos_as_xyz
1 x,y,z
2 1/2-x,-y,1/2+z
3 1/2+x,1/2-y,-z
4 -x,1/2+y,1/2-z
5 -x,-y,-z
6 1/2+x,y,1/2-z
7 1/2-x,1/2+y,z
8 x,1/2-y,1/2+z
_cell_length_a                   13.3256(4)
_cell_length_b                   15.0498(4)
_cell_length_c                   17.4936(6)
_cell_angle_alpha                90
_cell_angle_beta                 90
_cell_angle_gamma                90
_cell_volume                     3508.3
loop_
_atom_site_label
_atom_site_type_symbol
_atom_site_fract_x
_atom_site_fract_y
_atom_site_fract_z
Cu1 Cu 0.6729(5) 0.4209(5) 0.1276(4)
Cu2 Cu 0.3262(5) 0.0783(5) 0.1270(4)
N1 N 0.5667(5) 0.3214(5) 0.1226(4)
N2 N 0.4288(5) 0.1853(5) 0.1385(4)
C1 C 0.4763(5) 0.3300(5) 0.1354(4)
C2 C 0.5342(5) 0.1584(5) 0.1232(4)
C3 C 0.3090(5) 0.0330(5) 0.2228(4)
N3 N 0.3149(5) -0.0105(5) 0.2790(4)
C4 C 0.6007(5) 0.2331(5) 0.1296(4)
C5 C 0.4012(5) 0.2663(5) 0.1301(4)
C6 C 0.2792(5) 0.0615(5) 0.0286(4)
N4 N 0.2424(5) 0.0685(5) -0.0314(4)
C7 C 0.4447(5) 0.4315(5) 0.1153(4)
C8 C 0.5638(5) 0.0693(5) 0.1389(4)
C9 C 0.7129(5) 0.2162(5) 0.1269(4)
C10 C 0.2916(5) 0.2854(5) 0.1355(4)
H1 H 0.374320 0.436410 0.126120
H2 H 0.456760 0.447320 0.062890
H3 H 0.481510 0.470900 0.148120
H4 H 0.633990 0.060680 0.129060
H5 H 0.525180 0.033940 0.103930
H6 H 0.548830 0.051560 0.190390
H7 H 0.721040 0.153570 0.135290
H8 H 0.750010 0.248510 0.164820
H9 H 0.737530 0.231270 0.076950
H10 H 0.271910 0.346290 0.128780
H11 H 0.272510 0.265710 0.185570
H12 H 0.259000 0.249270 0.097680
Cu1B Cu 0.1729(5) 0.0791(5) -0.1276(4)
Cu1C Cu 0.3271(5) -0.0791(5) 0.3724(4)
N3C N 0.6851(5) 0.4895(5) 0.2210(4)
N4B N 0.7424(5) 0.4315(5) 0.0314(4)
C11 C 0.0027(5) 0.3221(5) 0.1693(4)
C12 C 0.0099(5) 0.1707(5) 0.1551(4)
O1 O 0.0577(5) 0.2615(5) 0.0537(4)
C13 C 0.0104(5) 0.1773(5) 0.0777(4)
C14 C 0.0078(5) 0.3327(5) 0.0825(4)
O2 O 0.0543(5) 0.2489(5) 0.1903(4)
H13 H 0.027150 0.372310 0.197510
H14 H -0.067040 0.313020 0.180730
H15 H -0.058510 0.161530 0.170310
H16 H 0.048710 0.118820 0.167390
H17 H -0.056630 0.344580 0.060130
H18 H 0.051010 0.382950 0.074930
H19 H 0.049640 0.131690 0.053810
H20 H -0.056380 0.176670 0.057090
loop_
_geom_bond_atom_site_label_1
_geom_bond_atom_site_label_2
_geom_bond_site_symmetry_1
_geom_bond_site_symmetry_2
Cu1 N1 1_555 1_555
Cu2 N2 1_555 1_555
N1 C1 1_555 1_555
N2 C2 1_555 1_555
C1 C5 1_555 1_555
C2 C4 1_555 1_555
C3 Cu2 1_555 1_555
N3 C3 1_555 1_555
C4 N1 1_555 1_555
C5 N2 1_555 1_555
C6 Cu2 1_555 1_555
N4 C6 1_555 1_555
C7 C1 1_555 1_555
C8 C2 1_555 1_555
C9 C4 1_555 1_555
C10 C5 1_555 1_555
H1 C7 1_555 1_555
H2 C7 1_555 1_555
H3 C7 1_555 1_555
H4 C8 1_555 1_555
H5 C8 1_555 1_555
H6 C8 1_555 1_555
H7 C9 1_555 1_555
H8 C9 1_555 1_555
H9 C9 1_555 1_555
H10 C10 1_555 1_555
H11 C10 1_555 1_555
H12 C10 1_555 1_555
C11 C14 1_555 1_555
C12 C13 1_555 1_555
O1 C13 1_555 1_555
C13 H19 1_555 1_555
C14 O1 1_555 1_555
O2 C11 1_555 1_555
H13 C11 1_555 1_555
H14 C11 1_555 1_555
H15 C12 1_555 1_555
H16 C12 1_555 1_555
H17 C14 1_555 1_555
H18 C14 1_555 1_555
H20 C13 1_555 1_555
Cu1B N4 1_555 1_555
Cu1C N3 1_555 1_555
N3C Cu1 1_555 1_555
N4B Cu1 1_555 1_555
C12 O2 1_555 1_555

#END
