
#######################################################################
#
#                 Cambridge Crystallographic Data Centre
#                                CCDC 
#
#######################################################################
#
# If this CIF has been generated from an entry in the Cambridge 
# Structural Database, then it will include bibliographic, chemical, 
# crystal, experimental, refinement or atomic coordinate data resulting 
# from the CCDC's data processing and validation procedures.
#
#######################################################################

data_ARAXEX
_symmetry_cell_setting           tetragonal
_symmetry_space_group_name_H-M   'P 41'
_symmetry_Int_Tables_number      76
_space_group_name_Hall           'P 4w'
loop_
_symmetry_equiv_pos_site_id
_symmetry_equiv_pos_as_xyz
1 x,y,z
2 -x,-y,1/2+z
3 -y,x,1/4+z
4 y,-x,3/4+z
_cell_length_a                   16.4520(4)
_cell_length_b                   16.4520(4)
_cell_length_c                   20.4057(9)
_cell_angle_alpha                90
_cell_angle_beta                 90
_cell_angle_gamma                90
_cell_volume                     5523.18
loop_
_atom_site_label
_atom_site_type_symbol
_atom_site_fract_x
_atom_site_fract_y
_atom_site_fract_z
C1 C -0.4131(6) 0.1128(4) -0.0158(5)
C2 C -0.4300(7) 0.1858(6) -0.0472(4)
H1 H -0.4326 0.1878 -0.0927
C3 C -0.4429(6) 0.2559(4) -0.0106(5)
H2 H -0.4542 0.3048 -0.0316
C4 C -0.4389(7) 0.2529(4) 0.0574(5)
H3 H -0.4475 0.2998 0.0819
C5 C -0.4220(7) 0.1799(6) 0.0888(4)
H4 H -0.4193 0.1779 0.1343
C6 C -0.4091(6) 0.1098(4) 0.0522(5)
H5 H -0.3978 0.0609 0.0732
C7 C 0.2596(5) -0.2529(6) -0.0688(5)
H6 H 0.3001 -0.2267 -0.0450
C8 C 0.1789(6) -0.2298(5) -0.0610(4)
C9 C 0.1183(5) -0.2689(8) -0.0965(6)
H7 H 0.0643 -0.2535 -0.0914
C10 C 0.1384(7) -0.3310(8) -0.1398(6)
H8 H 0.0979 -0.3572 -0.1635
C11 C 0.2191(9) -0.3541(7) -0.1475(6)
H9 H 0.2326 -0.3956 -0.1764
C12 C 0.2797(6) -0.3150(7) -0.1120(6)
H10 H 0.3337 -0.3304 -0.1172
C13 C 0.1344(6) -0.5239(6) 0.1064(5)
H11 H 0.0868 -0.5542 0.1096
C14 C 0.1916(8) -0.5267(8) 0.1565(5)
H12 H 0.1823 -0.5588 0.1932
C15 C 0.2627(7) -0.4815(8) 0.1516(5)
H13 H 0.3010 -0.4834 0.1852
C16 C 0.2766(5) -0.4335(6) 0.0967(6)
H14 H 0.3242 -0.4033 0.0935
C17 C 0.2194(6) -0.4307(5) 0.0466(4)
H15 H 0.2287 -0.3986 0.0099
C18 C 0.1483(5) -0.4759(6) 0.0515(4)
C19 C -0.4236(4) -0.5156(3) 0.1179(3)
C20 C -0.4952(4) -0.5326(3) 0.1512(3)
H16 H -0.5424 -0.5038 0.1415
C21 C -0.4965(4) -0.5927(3) 0.1990(3)
H17 H -0.5445 -0.6041 0.2213
C22 C -0.4261(4) -0.6358(3) 0.2136(3)
H18 H -0.4270 -0.6760 0.2456
C23 C -0.3544(4) -0.6188(3) 0.1803(3)
H19 H -0.3073 -0.6476 0.1900
C24 C -0.3531(4) -0.5586(3) 0.1324(3)
H20 H -0.3052 -0.5472 0.1101
C25 C 0.1313(4) 0.1336(3) -0.0066(3)
H21 H 0.1554 0.0843 0.0046
C26 C 0.0610(4) 0.1393(3) -0.0440(3)
C27 C 0.0250(4) 0.2176(3) -0.0643(3)
H22 H -0.0230 0.2189 -0.0883
C28 C 0.0644(5) 0.2894(3) -0.0469(4)
H23 H 0.0412 0.3388 -0.0588
C29 C 0.1332(4) 0.2893(3) -0.0142(4)
H24 H 0.1621 0.3375 -0.0088
C30 C 0.1644(4) 0.2138(4) 0.0139(4)
H25 H 0.2056 0.2160 0.0450
C31 C -0.2207(4) -0.0701(3) 0.3330(2)
H26 H -0.1772 -0.0708 0.3039
C32 C -0.2334(5) -0.0030(4) 0.3731(3)
H27 H -0.1983 0.0412 0.3709
C33 C -0.2985(6) -0.0020(4) 0.4165(3)
H28 H -0.3070 0.0429 0.4433
C34 C -0.3510(6) -0.0681(4) 0.4198(3)
H29 H -0.3946 -0.0674 0.4488
C35 C -0.3383(5) -0.1352(4) 0.3796(3)
H30 H -0.3734 -0.1794 0.3818
C36 C -0.2732(4) -0.1362(3) 0.3362(2)
Cd1 Cd 0.02482(4) -0.17811(4) 0.13960(3)
Cd2 Cd -0.57808(4) -0.13288(4) 0.16644(3)
Cd3 Cd -0.16914(4) -0.21025(4) 0.01572(3)
Cd4 Cd -0.37722(4) -0.22619(4) 0.12019(4)
N1 N -0.2554(5) -0.3247(5) 0.0245(4)
N2 N -0.3255(4) -0.3343(5) 0.0565(4)
Cl1 Cl -0.53160(13) -0.25453(14) 0.08447(11)
Cl2 Cl -0.42786(12) -0.10775(14) 0.19983(14)
N3 N -0.0575(5) -0.2976(4) 0.0193(4)
N4 N -0.1755(4) -0.2013(5) 0.1297(4)
N5 N -0.2802(4) -0.1234(5) 0.0038(4)
N6 N -0.0784(5) -0.0976(4) 0.0133(4)
N7 N -0.0179(5) -0.0863(5) 0.0530(4)
N8 N 0.1619(5) -0.1686(5) 0.1062(4)
N9 N 0.0028(5) -0.2769(5) 0.0593(4)
N10 N -0.1143(5) -0.1896(5) 0.1706(4)
C37 C 0.1986(7) -0.1579(7) 0.0491(5)
C38 C 0.0237(8) 0.0639(7) -0.0713(7)
H31 H 0.0639 0.0377 -0.0989
H32 H -0.0210 0.0800 -0.0995
N11 N -0.2425(5) -0.2082(5) 0.1646(5)
N12 N -0.3482(5) -0.1349(5) 0.0358(5)
N13 N 0.0615(5) -0.3347(5) 0.0574(4)
N14 N -0.2953(6) -0.4480(5) 0.0079(5)
C39 C -0.3478(7) -0.4104(7) 0.0450(6)
N15 N -0.2379(5) -0.3929(5) -0.0052(4)
N16 N -0.0379(5) -0.3689(5) -0.0089(4)
N17 N 0.2786(5) -0.1445(6) 0.0580(4)
C40 C -0.4291(8) -0.4473(7) 0.0660(7)
H33 H -0.4632 -0.4042 0.0832
H34 H -0.4560 -0.4689 0.0274
N18 N -0.3998(5) -0.0761(5) 0.0166(5)
N19 N -0.0741(5) -0.0430(5) -0.0349(4)
N20 N 0.0278(5) -0.0246(6) 0.0321(4)
C41 C 0.0332(7) -0.3897(7) 0.0148(6)
C42 C 0.0813(8) -0.4636(8) -0.0010(6)
H35 H 0.1061 -0.4576 -0.0439
H36 H 0.0459 -0.5107 -0.0021
C43 C -0.0090(7) -0.0005(6) -0.0225(6)
N21 N -0.2856(5) -0.0591(5) -0.0367(4)
C44 C -0.3987(9) 0.0394(8) -0.0596(8)
H37 H -0.4503 0.0231 -0.0785
H38 H -0.3636 0.0557 -0.0955
C45 C -0.3620(8) -0.0321(7) -0.0270(7)
N22 N -0.1459(11) -0.1905(7) 0.2321(6)
C46 C 0.1587(8) -0.1633(8) -0.0171(5)
H39 H 0.1004 -0.1649 -0.0099
H40 H 0.1703 -0.1130 -0.0401
N23 N 0.2202(4) -0.1618(5) 0.1512(4)
N24 N 0.2891(5) -0.1467(6) 0.1222(4)
C47 C -0.2262(10) -0.2036(9) 0.2256(7)
O1 O -0.3969(5) -0.3177(6) 0.2049(4)
O2 O -0.5658(5) -0.0515(5) 0.0698(5)
C48 C -0.2630(18) -0.2070(17) 0.2918(13)
H41 H -0.2318 -0.2468 0.3162
H42 H -0.3168 -0.2300 0.2861
Cd1C Cd -0.17811(4) -0.02482(4) -0.11040(3)
Cd2C Cd -0.13288(4) -0.42192(4) -0.08356(3)
Cd2_2 Cd 0.42192(4) -0.13288(4) 0.16644(3)
Cd3B Cd 0.21025(4) -0.16914(4) 0.26572(3)
N15B N -0.6071(5) -0.2379(5) 0.2448(4)
N16B N -0.6311(5) -0.0379(5) 0.2411(4)
N19B N 0.0430(5) -0.0741(5) 0.2151(4)
N21B N 0.0591(5) -0.2856(5) 0.2133(4)
N23C N -0.1618(5) -0.2202(4) -0.0988(4)
N24_2 N -0.7109(5) -0.1467(6) 0.1222(4)
loop_
_geom_bond_atom_site_label_1
_geom_bond_atom_site_label_2
_geom_bond_site_symmetry_1
_geom_bond_site_symmetry_2
C1 C2 1_555 1_555
C2 H1 1_555 1_555
C3 C2 1_555 1_555
H2 C3 1_555 1_555
C4 C3 1_555 1_555
H3 C4 1_555 1_555
C5 C4 1_555 1_555
H4 C5 1_555 1_555
C6 C1 1_555 1_555
H5 C6 1_555 1_555
C7 H6 1_555 1_555
C8 C7 1_555 1_555
C9 C8 1_555 1_555
H7 C9 1_555 1_555
C10 C9 1_555 1_555
H8 C10 1_555 1_555
C11 C10 1_555 1_555
H9 C11 1_555 1_555
C12 C7 1_555 1_555
H10 C12 1_555 1_555
C13 H11 1_555 1_555
C14 C13 1_555 1_555
H12 C14 1_555 1_555
C15 C14 1_555 1_555
H13 C15 1_555 1_555
C16 C15 1_555 1_555
H14 C16 1_555 1_555
C17 C16 1_555 1_555
H15 C17 1_555 1_555
C18 C13 1_555 1_555
C19 C20 1_555 1_555
C20 H16 1_555 1_555
C21 C20 1_555 1_555
H17 C21 1_555 1_555
C22 C21 1_555 1_555
H18 C22 1_555 1_555
C23 C22 1_555 1_555
H19 C23 1_555 1_555
C24 C19 1_555 1_555
H20 C24 1_555 1_555
C25 H21 1_555 1_555
C26 C25 1_555 1_555
C27 C26 1_555 1_555
H22 C27 1_555 1_555
C28 C27 1_555 1_555
H23 C28 1_555 1_555
C29 C28 1_555 1_555
H24 C29 1_555 1_555
C30 C25 1_555 1_555
H25 C30 1_555 1_555
C31 H26 1_555 1_555
C32 C31 1_555 1_555
H27 C32 1_555 1_555
C33 C32 1_555 1_555
H28 C33 1_555 1_555
C34 C33 1_555 1_555
H29 C34 1_555 1_555
C35 C34 1_555 1_555
H30 C35 1_555 1_555
C36 C31 1_555 1_555
Cd1 N7 1_555 1_555
Cd2 Cl1 1_555 1_555
Cd3 N1 1_555 1_555
Cd4 N2 1_555 1_555
N1 N2 1_555 1_555
N2 C39 1_555 1_555
Cl1 Cd4 1_555 1_555
Cl2 Cd2 1_555 1_555
N3 Cd3 1_555 1_555
N4 Cd3 1_555 1_555
N5 Cd3 1_555 1_555
N6 Cd3 1_555 1_555
N7 N6 1_555 1_555
N8 Cd1 1_555 1_555
N9 Cd1 1_555 1_555
N10 Cd1 1_555 1_555
C37 N8 1_555 1_555
C38 C26 1_555 1_555
H31 C38 1_555 1_555
H32 C38 1_555 1_555
N11 Cd4 1_555 1_555
N12 Cd4 1_555 1_555
N13 N9 1_555 1_555
N14 C39 1_555 1_555
C39 C40 1_555 1_555
N15 N1 1_555 1_555
N16 N3 1_555 1_555
N17 C37 1_555 1_555
C40 C19 1_555 1_555
H33 C40 1_555 1_555
H34 C40 1_555 1_555
N18 N12 1_555 1_555
N19 N6 1_555 1_555
N20 N7 1_555 1_555
C41 N13 1_555 1_555
C42 C18 1_555 1_555
H35 C42 1_555 1_555
H36 C42 1_555 1_555
C43 C38 1_555 1_555
N21 N5 1_555 1_555
C44 C1 1_555 1_555
H37 C44 1_555 1_555
H38 C44 1_555 1_555
C45 N18 1_555 1_555
N22 N10 1_555 1_555
C46 C8 1_555 1_555
H39 C46 1_555 1_555
H40 C46 1_555 1_555
N23 N8 1_555 1_555
N24 N17 1_555 1_555
C47 N11 1_555 1_555
O1 Cd4 1_555 1_555
O2 Cd2 1_555 1_555
C48 C36 1_555 1_555
H41 C48 1_555 1_555
H42 C48 1_555 1_555
Cd1C N19 1_555 1_555
Cd2C N15 1_555 1_555
Cd2_2 N24 1_555 1_555
Cd3B N23 1_555 1_555
N15B Cd2 1_555 1_555
N16B Cd2 1_555 1_555
N19B Cd1 1_555 1_555
N21B Cd1 1_555 1_555
N23C Cd3 1_555 1_555
N24_2 Cd2 1_555 1_555
C5 C6 1_555 1_555
C11 C12 1_555 1_555
C17 C18 1_555 1_555
C23 C24 1_555 1_555
C29 C30 1_555 1_555
C35 C36 1_555 1_555
Cd4 Cl2 1_555 1_555
N3 N9 1_555 1_555
N4 N10 1_555 1_555
N4 N11 1_555 1_555
N5 N12 1_555 1_555
C37 C46 1_555 1_555
N14 N15 1_555 1_555
N16 C41 1_555 1_555
N16 Cd2C 1_555 1_555
N19 C43 1_555 1_555
N20 C43 1_555 1_555
C41 C42 1_555 1_555
N21 C45 1_555 1_555
N21 Cd1C 1_555 1_555
C44 C45 1_555 1_555
N22 C47 1_555 1_555
N23 N24 1_555 1_555
C47 C48 1_555 1_555

#END
