
#######################################################################
#
#                 Cambridge Crystallographic Data Centre
#                                CCDC 
#
#######################################################################
#
# If this CIF has been generated from an entry in the Cambridge 
# Structural Database, then it will include bibliographic, chemical, 
# crystal, experimental, refinement or atomic coordinate data resulting 
# from the CCDC's data processing and validation procedures.
#
#######################################################################

data_ARAXIB
_symmetry_cell_setting           monoclinic
_symmetry_space_group_name_H-M   'P 21/n'
_symmetry_Int_Tables_number      14
_space_group_name_Hall           '-P 2yn'
loop_
_symmetry_equiv_pos_site_id
_symmetry_equiv_pos_as_xyz
1 x,y,z
2 1/2-x,1/2+y,1/2-z
3 -x,-y,-z
4 1/2+x,1/2-y,1/2+z
_cell_length_a                   20.909(3)
_cell_length_b                   11.0094(13)
_cell_length_c                   30.109(4)
_cell_angle_alpha                90
_cell_angle_beta                 95.794(2)
_cell_angle_gamma                90
_cell_volume                     6895.55
loop_
_atom_site_label
_atom_site_type_symbol
_atom_site_fract_x
_atom_site_fract_y
_atom_site_fract_z
C1 C 0.02477(11) 0.1839(3) 0.06675(10)
C2 C 0.00092(15) 0.1432(3) 0.02461(10)
H1 H 0.0277 0.1020 0.0069
C3 C -0.06298(16) 0.1640(3) 0.00898(9)
H2 H -0.0789 0.1367 -0.0192
C4 C -0.10302(11) 0.2256(3) 0.03548(12)
H3 H -0.1458 0.2395 0.0250
C5 C -0.07916(13) 0.2663(3) 0.07762(11)
H4 H -0.1060 0.3075 0.0954
C6 C -0.01527(14) 0.2455(3) 0.09326(8)
H5 H 0.0007 0.2727 0.1215
C7 C -0.24092(14) 0.2698(3) 0.11952(11)
H6 H -0.2489 0.1879 0.1139
C8 C -0.24288(14) 0.3517(4) 0.08428(8)
H7 H -0.2522 0.3246 0.0551
C9 C -0.23096(14) 0.4742(3) 0.09266(11)
H8 H -0.2323 0.5290 0.0691
C10 C -0.21708(14) 0.5148(2) 0.13628(13)
H9 H -0.2091 0.5968 0.1419
C11 C -0.21512(13) 0.4329(3) 0.17152(9)
H10 H -0.2058 0.4601 0.2007
C12 C -0.22704(13) 0.3104(3) 0.16314(9)
C13 C -0.02657(10) -0.1184(3) 0.44044(10)
C14 C -0.01106(14) -0.1459(3) 0.48528(9)
H11 H -0.0426 -0.1434 0.5049
C15 C 0.05164(16) -0.1773(3) 0.50078(8)
H12 H 0.0620 -0.1957 0.5308
C16 C 0.09883(11) -0.1810(3) 0.47144(12)
H13 H 0.1408 -0.2020 0.4818
C17 C 0.08332(12) -0.1535(3) 0.42659(11)
H14 H 0.1149 -0.1560 0.4070
C18 C 0.02062(14) -0.1221(3) 0.41109(7)
H15 H 0.0102 -0.1037 0.3811
C19 C 0.22903(15) -0.4197(4) 0.40295(12)
H16 H 0.2288 -0.4779 0.4253
C20 C 0.24067(15) -0.2986(4) 0.41404(8)
H17 H 0.2482 -0.2757 0.4438
C21 C 0.24105(14) -0.2117(3) 0.38058(12)
H18 H 0.2488 -0.1307 0.3880
C22 C 0.22979(14) -0.2459(3) 0.33604(10)
C23 C 0.21815(15) -0.3670(3) 0.32495(9)
H19 H 0.2106 -0.3899 0.2951
C24 C 0.21777(15) -0.4539(2) 0.35841(14)
H20 H 0.2100 -0.5349 0.3510
C25 C 0.28695(16) -0.2734(4) 0.06899(14)
H21 H 0.3159 -0.2115 0.0774
C26 C 0.22444(18) -0.2676(3) 0.08077(12)
H22 H 0.2116 -0.2017 0.0970
C27 C 0.18114(12) -0.3601(3) 0.06822(11)
C28 C 0.20037(19) -0.4586(3) 0.04389(11)
H23 H 0.1714 -0.5205 0.0355
C29 C 0.2629(2) -0.4644(4) 0.03211(12)
H24 H 0.2757 -0.5303 0.0158
C30 C 0.30617(14) -0.3718(5) 0.04466(14)
H25 H 0.3480 -0.3758 0.0368
C31 C 0.10405(18) 0.0864(4) 0.12347(15)
C32 C 0.09524(19) 0.1648(4) 0.08347(15)
H26 H 0.1171 0.1282 0.0599
H27 H 0.1150 0.2430 0.0905
C33 C -0.10736(18) -0.0132(4) 0.38420(16)
C34 C -0.09632(19) -0.0926(4) 0.42428(14)
H28 H -0.1179 -0.1695 0.4177
H29 H -0.1164 -0.0549 0.4485
C35 C 0.00037(19) 0.2592(4) 0.27126(15)
C36 C 0.03636(19) 0.2195(4) 0.31365(15)
H30 H 0.0790 0.1935 0.3078
H31 H 0.0147 0.1503 0.3253
C37 C 0.04227(19) 0.3186(4) 0.34832(16)
C38 C 0.0414(2) 0.2923(5) 0.39357(16)
H32 H 0.0361 0.2122 0.4022
C39 C 0.1149(2) -0.3554(4) 0.08381(15)
H33 H 0.1036 -0.2716 0.0892
H34 H 0.0839 -0.3872 0.0606
C40 C 0.2294(2) -0.1495(4) 0.29992(15)
H35 H 0.1861 -0.1182 0.2933
H36 H 0.2569 -0.0826 0.3107
C41 C -0.04330(19) -0.3177(4) 0.16610(16)
C42 C -0.0422(2) -0.2007(5) 0.14935(18)
H37 H -0.0386 -0.1347 0.1687
C43 C -0.0494(2) -0.4146(4) 0.13666(16)
H38 H -0.0496 -0.4936 0.1476
C44 C -0.0464(2) -0.1822(5) 0.1036(2)
H39 H -0.0446 -0.1036 0.0925
C45 C -0.0532(2) -0.2776(5) 0.07487(18)
H40 H -0.0565 -0.2638 0.0442
C46 C -0.0552(2) -0.3941(5) 0.09080(18)
H41 H -0.0603 -0.4591 0.0711
C47 C -0.0036(2) -0.2494(4) 0.24471(15)
C48 C -0.0378(2) -0.3433(4) 0.21565(15)
H42 H -0.0807 -0.3528 0.2246
H43 H -0.0156 -0.4201 0.2210
C49 C -0.22404(19) 0.2193(4) 0.20162(14)
H44 H -0.2475 0.1466 0.1917
H45 H -0.1796 0.1967 0.2099
C50 C -0.1797(2) 0.4227(4) 0.44102(15)
C51 C -0.1137(2) 0.4242(4) 0.42468(15)
H46 H -0.0831 0.4585 0.4476
H47 H -0.1005 0.3416 0.4191
C52 C -0.1995(2) 0.5154(5) 0.46747(17)
H48 H -0.1710 0.5773 0.4767
C53 C -0.2222(3) 0.3307(5) 0.42835(19)
H49 H -0.2095 0.2671 0.4109
C54 C -0.2837(3) 0.3321(6) 0.4414(2)
H50 H -0.3122 0.2697 0.4326
C55 C 0.0496(2) 0.4389(5) 0.33695(18)
H51 H 0.0502 0.4594 0.3070
C56 C 0.0561(2) 0.5299(5) 0.3688(2)
H52 H 0.0603 0.6104 0.3602
C57 C 0.0564(2) 0.5006(6) 0.4135(2)
H53 H 0.0619 0.5608 0.4352
N1 N -0.02861(15) -0.1934(3) 0.27809(12)
C58 C 0.0482(2) 0.3808(6) 0.42565(18)
H54 H 0.0474 0.3604 0.4556
C59 C -0.2610(3) 0.5172(5) 0.48025(19)
H55 H -0.2741 0.5806 0.4976
C60 C -0.3028(3) 0.4246(6) 0.4671(2)
H56 H -0.3443 0.4251 0.4758
C61 C -0.25167(19) 0.2695(4) 0.24140(14)
C62 C 0.11141(18) -0.4269(4) 0.12529(15)
C63 C 0.25200(19) -0.1991(4) 0.25873(14)
C64 C -0.11331(19) 0.4960(4) 0.38340(15)
N2 N -0.11975(15) 0.1390(3) 0.34218(12)
N3 N -0.06219(15) 0.2876(3) 0.26617(12)
N4 N -0.11864(15) 0.4498(3) 0.34158(13)
N5 N -0.11868(16) 0.5442(3) 0.31341(13)
N6 N -0.11470(15) -0.0538(3) 0.34170(12)
N7 N 0.02476(15) 0.2787(3) 0.23267(12)
N8 N 0.10790(15) 0.1250(3) 0.16585(12)
N9 N 0.11333(16) -0.0670(3) 0.16557(13)
N10 N 0.21459(16) -0.2294(3) 0.22224(12)
N11 N 0.11090(15) -0.3804(3) 0.16653(12)
N12 N 0.05661(15) -0.2112(3) 0.24272(12)
N13 N 0.11368(16) 0.0275(3) 0.19186(12)
N14 N 0.10723(16) -0.0342(3) 0.12243(13)
N15 N -0.02470(17) 0.3193(3) 0.20338(12)
N16 N 0.01769(17) -0.1174(3) 0.29707(13)
N17 N -0.12273(16) 0.0447(3) 0.31578(12)
N18 N -0.10970(15) 0.1073(3) 0.38530(12)
N19 N -0.21998(15) 0.2984(3) 0.27999(12)
N20 N -0.26418(17) 0.3454(3) 0.30605(13)
N21 N 0.25332(17) -0.2793(4) 0.19345(13)
N22 N 0.06870(17) -0.1279(3) 0.27607(13)
N23 N -0.07615(16) 0.3248(3) 0.22385(13)
N24 N -0.31388(15) 0.2973(3) 0.24182(12)
N25 N -0.32016(16) 0.3435(3) 0.28304(12)
N26 N -0.11325(15) 0.6419(3) 0.33803(13)
N27 N -0.10963(16) 0.6170(3) 0.38173(12)
N28 N 0.10863(15) -0.4722(3) 0.19486(12)
N29 N 0.10821(15) -0.5724(3) 0.17086(13)
N30 N 0.10997(16) -0.5484(3) 0.12737(13)
N31 N 0.31173(16) -0.2776(3) 0.21164(13)
N32 N 0.31263(15) -0.2278(3) 0.25299(12)
Zn1 Zn 0.12111(2) -0.22338(4) 0.198530(17)
Zn2 Zn 0.10792(2) 0.27206(4) 0.204648(17)
Zn3 Zn -0.11196(2) -0.20233(4) 0.304842(17)
Zn4 Zn -0.12970(2) 0.29434(4) 0.308500(17)
N24A N -0.18612(15) -0.2027(3) 0.25818(12)
N26_2 N -0.11325(15) -0.3581(3) 0.33803(13)
N29_2 N 0.10821(15) 0.4276(3) 0.17086(13)
N32A N 0.18737(15) 0.2722(3) 0.24701(12)
Zn2A Zn 0.39208(2) -0.22794(4) 0.295352(17)
Zn2_2 Zn 0.10792(2) -0.72794(4) 0.204648(17)
Zn3A Zn -0.38804(2) 0.29767(4) 0.195158(17)
Zn3_2 Zn -0.11196(2) 0.79767(4) 0.304842(17)
loop_
_geom_bond_atom_site_label_1
_geom_bond_atom_site_label_2
_geom_bond_site_symmetry_1
_geom_bond_site_symmetry_2
C1 C2 1_555 1_555
C2 H1 1_555 1_555
C3 C2 1_555 1_555
H2 C3 1_555 1_555
C4 C3 1_555 1_555
H3 C4 1_555 1_555
C5 C4 1_555 1_555
H4 C5 1_555 1_555
C6 C1 1_555 1_555
H5 C6 1_555 1_555
C7 H6 1_555 1_555
C8 C7 1_555 1_555
H7 C8 1_555 1_555
C9 C8 1_555 1_555
H8 C9 1_555 1_555
C10 C9 1_555 1_555
H9 C10 1_555 1_555
C11 C10 1_555 1_555
H10 C11 1_555 1_555
C12 C7 1_555 1_555
C13 C14 1_555 1_555
C14 H11 1_555 1_555
C15 C14 1_555 1_555
H12 C15 1_555 1_555
C16 C15 1_555 1_555
H13 C16 1_555 1_555
C17 C16 1_555 1_555
H14 C17 1_555 1_555
C18 C13 1_555 1_555
H15 C18 1_555 1_555
C19 H16 1_555 1_555
C20 C19 1_555 1_555
H17 C20 1_555 1_555
C21 C20 1_555 1_555
H18 C21 1_555 1_555
C22 C21 1_555 1_555
C23 C22 1_555 1_555
H19 C23 1_555 1_555
C24 C19 1_555 1_555
H20 C24 1_555 1_555
C25 H21 1_555 1_555
C26 C25 1_555 1_555
H22 C26 1_555 1_555
C27 C26 1_555 1_555
C28 C27 1_555 1_555
H23 C28 1_555 1_555
C29 C28 1_555 1_555
H24 C29 1_555 1_555
C30 C25 1_555 1_555
H25 C30 1_555 1_555
C31 C32 1_555 1_555
C32 C1 1_555 1_555
H26 C32 1_555 1_555
H27 C32 1_555 1_555
C33 C34 1_555 1_555
C34 C13 1_555 1_555
H28 C34 1_555 1_555
H29 C34 1_555 1_555
C35 C36 1_555 1_555
C36 H30 1_555 1_555
H31 C36 1_555 1_555
C37 C36 1_555 1_555
C38 C37 1_555 1_555
H32 C38 1_555 1_555
C39 C27 1_555 1_555
H33 C39 1_555 1_555
H34 C39 1_555 1_555
C40 C22 1_555 1_555
H35 C40 1_555 1_555
H36 C40 1_555 1_555
C41 C42 1_555 1_555
C42 H37 1_555 1_555
C43 C41 1_555 1_555
H38 C43 1_555 1_555
C44 C42 1_555 1_555
H39 C44 1_555 1_555
C45 C44 1_555 1_555
H40 C45 1_555 1_555
C46 C43 1_555 1_555
H41 C46 1_555 1_555
C47 C48 1_555 1_555
C48 C41 1_555 1_555
H42 C48 1_555 1_555
H43 C48 1_555 1_555
C49 C12 1_555 1_555
H44 C49 1_555 1_555
H45 C49 1_555 1_555
C50 C51 1_555 1_555
C51 H46 1_555 1_555
H47 C51 1_555 1_555
C52 C50 1_555 1_555
H48 C52 1_555 1_555
C53 C50 1_555 1_555
H49 C53 1_555 1_555
C54 C53 1_555 1_555
H50 C54 1_555 1_555
C55 C37 1_555 1_555
H51 C55 1_555 1_555
C56 C55 1_555 1_555
H52 C56 1_555 1_555
C57 C56 1_555 1_555
H53 C57 1_555 1_555
N1 C47 1_555 1_555
C58 C38 1_555 1_555
H54 C58 1_555 1_555
C59 C52 1_555 1_555
H55 C59 1_555 1_555
C60 C54 1_555 1_555
H56 C60 1_555 1_555
C61 C49 1_555 1_555
C62 C39 1_555 1_555
C63 C40 1_555 1_555
C64 C51 1_555 1_555
N2 N17 1_555 1_555
N3 C35 1_555 1_555
N4 C64 1_555 1_555
N5 N4 1_555 1_555
N6 C33 1_555 1_555
N7 C35 1_555 1_555
N8 C31 1_555 1_555
N9 N13 1_555 1_555
N10 C63 1_555 1_555
N11 C62 1_555 1_555
N12 C47 1_555 1_555
N13 N8 1_555 1_555
N14 C31 1_555 1_555
N15 N7 1_555 1_555
N16 N1 1_555 1_555
N17 N6 1_555 1_555
N18 C33 1_555 1_555
N19 C61 1_555 1_555
N20 N19 1_555 1_555
N21 N10 1_555 1_555
N22 N12 1_555 1_555
N23 N3 1_555 1_555
N24 C61 1_555 1_555
N25 N20 1_555 1_555
N26 N5 1_555 1_555
N27 C64 1_555 1_555
N28 N11 1_555 1_555
N29 N28 1_555 1_555
N30 C62 1_555 1_555
N31 N21 1_555 1_555
N32 C63 1_555 1_555
Zn1 N9 1_555 1_555
Zn2 N7 1_555 1_555
Zn3 N1 1_555 1_555
Zn4 N2 1_555 1_555
N24A Zn3 1_555 1_555
N26_2 Zn3 1_555 1_555
N29_2 Zn2 1_555 1_555
N32A Zn2 1_555 1_555
Zn2A N32 1_555 1_555
Zn2_2 N29 1_555 1_555
Zn3A N24 1_555 1_555
Zn3_2 N26 1_555 1_555
C5 C6 1_555 1_555
C11 C12 1_555 1_555
C17 C18 1_555 1_555
C23 C24 1_555 1_555
C29 C30 1_555 1_555
C45 C46 1_555 1_555
C57 C58 1_555 1_555
C59 C60 1_555 1_555
N2 N18 1_555 1_555
N3 Zn4 1_555 1_555
N4 Zn4 1_555 1_555
N6 Zn3 1_555 1_555
N8 Zn2 1_555 1_555
N9 N14 1_555 1_555
N10 Zn1 1_555 1_555
N11 Zn1 1_555 1_555
N12 Zn1 1_555 1_555
N15 N23 1_555 1_555
N16 N22 1_555 1_555
N19 Zn4 1_555 1_555
N24 N25 1_555 1_555
N26 N27 1_555 1_555
N29 N30 1_555 1_555
N31 N32 1_555 1_555

#END
