
#######################################################################
#
#                 Cambridge Crystallographic Data Centre
#                                CCDC 
#
#######################################################################
#
# If this CIF has been generated from an entry in the Cambridge 
# Structural Database, then it will include bibliographic, chemical, 
# crystal, experimental, refinement or atomic coordinate data resulting 
# from the CCDC's data processing and validation procedures.
#
#######################################################################

data_AREBOO
_symmetry_cell_setting           triclinic
_symmetry_space_group_name_H-M   'P -1'
_symmetry_Int_Tables_number      2
_space_group_name_Hall           '-P 1'
loop_
_symmetry_equiv_pos_site_id
_symmetry_equiv_pos_as_xyz
1 x,y,z
2 -x,-y,-z
_cell_length_a                   8.4720(2)
_cell_length_b                   13.4430(3)
_cell_length_c                   15.7510(4)
_cell_angle_alpha                106.304(5)
_cell_angle_beta                 103.865(5)
_cell_angle_gamma                90.586(5)
_cell_volume                     1665.77
loop_
_atom_site_label
_atom_site_type_symbol
_atom_site_fract_x
_atom_site_fract_y
_atom_site_fract_z
Fe1 Fe 0.21435(4) 0.20646(3) -0.17820(2)
Cu1 Cu 0.0000 0.5000 0.0000
Cu2 Cu 0.0000 0.0000 -0.5000
C1 C -0.2125(4) 0.5586(2) -0.1466(2)
H1 H -0.2260 0.6272 -0.1076
C2 C -0.2664(5) 0.5598(3) -0.2458(3)
H2 H -0.3726 0.5870 -0.2564
H3 H -0.1898 0.6058 -0.2570
C3 C -0.2758(5) 0.4516(3) -0.3121(3)
H4 H -0.3208 0.4544 -0.3741
H5 H -0.1668 0.4287 -0.3081
C4 C -0.3795(5) 0.3752(3) -0.2918(2)
H6 H -0.3773 0.3066 -0.3329
H7 H -0.4913 0.3938 -0.3030
C5 C -0.3221(4) 0.3718(3) -0.1936(2)
H8 H -0.3959 0.3240 -0.1825
H9 H -0.2144 0.3465 -0.1838
C6 C -0.3166(3) 0.4779(3) -0.1279(2)
H10 H -0.4280 0.4994 -0.1337
C7 C -0.0835(4) 0.1686(2) -0.5804(2)
H11 H -0.1340 0.1795 -0.6396
C8 C -0.1146(5) 0.2601(3) -0.5049(3)
H12 H -0.2307 0.2684 -0.5163
H13 H -0.0798 0.2453 -0.4466
C9 C -0.0245(6) 0.3603(3) -0.4995(4)
H14 H -0.0416 0.4157 -0.4486
H15 H -0.0673 0.3794 -0.5552
C10 C 0.1588(6) 0.3478(3) -0.4869(3)
H16 H 0.2138 0.4122 -0.4854
H17 H 0.2030 0.3343 -0.4288
C11 C 0.1919(5) 0.2603(3) -0.5626(3)
H18 H 0.3078 0.2511 -0.5496
H19 H 0.1616 0.2783 -0.6196
C12 C 0.0956(4) 0.1569(3) -0.5737(2)
H20 H 0.1049 0.1073 -0.6309
C19 C 0.2182(4) 0.3416(2) -0.1998(2)
C20 C 0.3525(3) 0.1626(2) -0.26183(19)
C21 C 0.4010(4) 0.2568(2) -0.0722(2)
C22 C 0.0705(3) 0.2530(2) -0.09863(19)
C23 C 0.2023(3) 0.0698(2) -0.15943(19)
C24 C 0.0308(3) 0.1534(2) -0.28255(19)
N1 N -0.0408(3) 0.5359(2) -0.11762(18)
H31 H 0.0257 0.5918 -0.1107
H32 H -0.0184 0.4825 -0.1611
N2 N -0.2467(3) 0.4776(2) -0.03206(17)
H33 H -0.2760 0.4163 -0.0252
H34 H -0.2862 0.5283 0.0061
N3 N -0.1587(3) 0.0706(2) -0.57702(18)
H35 H -0.1936 0.0274 -0.6342
H36 H -0.2459 0.0842 -0.5537
N4 N 0.1610(3) 0.1102(2) -0.49886(19)
H37 H 0.1823 0.1599 -0.4447
H38 H 0.2549 0.0824 -0.5058
N7 N 0.2186(4) 0.4211(2) -0.2124(2)
N8 N 0.4247(3) 0.1361(2) -0.31577(18)
N9 N 0.5082(4) 0.2902(3) -0.0092(2)
N10 N -0.0122(3) 0.2811(2) -0.05058(19)
N11 N 0.1878(4) -0.0108(2) -0.1500(2)
N12 N -0.0709(4) 0.1159(3) -0.34762(19)
C1A C 0.2125(4) 0.4414(2) 0.1466(2)
H1A H 0.2260 0.3728 0.1076
C2A C 0.2664(5) 0.4402(3) 0.2458(3)
H2A H 0.3726 0.4130 0.2564
H3A H 0.1898 0.3942 0.2570
C3A C 0.2758(5) 0.5484(3) 0.3121(3)
H4A H 0.3208 0.5456 0.3741
H5A H 0.1668 0.5713 0.3081
C4A C 0.3795(5) 0.6248(3) 0.2918(2)
H6A H 0.3773 0.6934 0.3329
H7A H 0.4913 0.6062 0.3030
C5A C 0.3221(4) 0.6282(3) 0.1936(2)
H8A H 0.3959 0.6760 0.1825
H9A H 0.2144 0.6535 0.1838
C6A C 0.3166(3) 0.5221(3) 0.1279(2)
H10A H 0.4280 0.5006 0.1337
N1A N 0.0408(3) 0.4641(2) 0.11762(18)
H31A H -0.0257 0.4082 0.1107
H32A H 0.0184 0.5175 0.1611
N2A N 0.2467(3) 0.5224(2) 0.03206(17)
H33A H 0.2760 0.5837 0.0252
H34A H 0.2862 0.4717 -0.0061
C22A C -0.0705(3) 0.7470(2) 0.09863(19)
N10A N 0.0122(3) 0.7189(2) 0.05058(19)
Fe1A Fe -0.21435(4) 0.79354(3) 0.17820(2)
C19A C -0.2182(4) 0.6584(2) 0.1998(2)
N7A N -0.2186(4) 0.5789(2) 0.2124(2)
C20A C -0.3525(3) 0.8374(2) 0.26183(19)
N8A N -0.4247(3) 0.8639(2) 0.31577(18)
C21A C -0.4010(4) 0.7432(2) 0.0722(2)
N9A N -0.5082(4) 0.7098(3) 0.0092(2)
C23A C -0.2023(3) 0.9302(2) 0.15943(19)
N11A N -0.1878(4) 1.0108(2) 0.1500(2)
C24A C -0.0308(3) 0.8466(2) 0.28255(19)
N12A N 0.0709(4) 0.8841(3) 0.34762(19)
C7A C 0.0835(4) -0.1686(2) -0.4196(2)
H11A H 0.1340 -0.1795 -0.3604
C8A C 0.1146(5) -0.2601(3) -0.4951(3)
H12A H 0.2307 -0.2684 -0.4837
H13A H 0.0798 -0.2453 -0.5534
C9A C 0.0245(6) -0.3603(3) -0.5005(4)
H14A H 0.0416 -0.4157 -0.5514
H15A H 0.0673 -0.3794 -0.4448
C10A C -0.1588(6) -0.3478(3) -0.5131(3)
H16A H -0.2138 -0.4122 -0.5146
H17A H -0.2030 -0.3343 -0.5712
C11A C -0.1919(5) -0.2603(3) -0.4374(3)
H18A H -0.3078 -0.2511 -0.4504
H19A H -0.1616 -0.2783 -0.3804
C12A C -0.0956(4) -0.1569(3) -0.4263(2)
H20A H -0.1049 -0.1073 -0.3691
N3A N 0.1587(3) -0.0706(2) -0.42298(18)
H35A H 0.1936 -0.0274 -0.3658
H36A H 0.2459 -0.0842 -0.4463
N4A N -0.1610(3) -0.1102(2) -0.50114(19)
H37A H -0.1823 -0.1599 -0.5553
H38A H -0.2549 -0.0824 -0.4942
N12A_2 N 0.0709(4) -0.1159(3) -0.65238(19)
Cu2_2 Cu 0.0000 1.0000 0.5000
Cu3 Cu 0.0000 0.0000 -1.0000
C13 C 0.3302(3) 0.0880(2) -0.9129(2)
H21 H 0.3695 0.0762 -0.9683
C14 C 0.4510(4) 0.1683(3) -0.8360(2)
H22 H 0.5607 0.1474 -0.8340
H23 H 0.4453 0.2350 -0.8485
C15 C 0.4158(4) 0.1796(3) -0.7439(2)
H24 H 0.3117 0.2087 -0.7431
H25 H 0.4996 0.2270 -0.6962
C16 C 0.4114(4) 0.0741(3) -0.7254(2)
H26 H 0.5178 0.0472 -0.7219
H27 H 0.3857 0.0823 -0.6671
C17 C 0.2839(4) -0.0029(3) -0.8009(2)
H28 H 0.2844 -0.0697 -0.7886
H29 H 0.1765 0.0218 -0.8017
C18 C 0.3188(3) -0.0157(2) -0.8929(2)
H30 H 0.4225 -0.0472 -0.8934
N5 N 0.1631(3) 0.12174(19) -0.93332(17)
H39 H 0.1583 0.1657 -0.9676
H40 H 0.1388 0.1560 -0.8807
N6 N 0.1874(3) -0.0841(2) -0.96717(19)
H41 H 0.1534 -0.1362 -0.9485
H42 H 0.2256 -0.1122 -1.0165
C13A C -0.3302(3) -0.0880(2) -1.0871(2)
H21A H -0.3695 -0.0762 -1.0317
C14A C -0.4510(4) -0.1683(3) -1.1640(2)
H22A H -0.5607 -0.1474 -1.1660
H23A H -0.4453 -0.2350 -1.1515
C15A C -0.4158(4) -0.1796(3) -1.2561(2)
H24A H -0.3117 -0.2087 -1.2569
H25A H -0.4996 -0.2270 -1.3038
C16A C -0.4114(4) -0.0741(3) -1.2746(2)
H26A H -0.5178 -0.0472 -1.2781
H27A H -0.3857 -0.0823 -1.3329
C17A C -0.2839(4) 0.0029(3) -1.1991(2)
H28A H -0.2844 0.0697 -1.2114
H29A H -0.1765 -0.0218 -1.1983
C18A C -0.3188(3) 0.0157(2) -1.1071(2)
H30A H -0.4225 0.0472 -1.1066
N5A N -0.1631(3) -0.12174(19) -1.06668(17)
H39A H -0.1583 -0.1657 -1.0324
H40A H -0.1388 -0.1560 -1.1193
N6A N -0.1874(3) 0.0841(2) -1.03283(19)
H41A H -0.1534 0.1362 -1.0515
H42A H -0.2256 0.1122 -0.9835
O1 O 0.2532(4) 0.6415(2) -0.1631(3)
H43 H 0.266(6) 0.5796(16) -0.179(3)
H44 H 0.313(5) 0.665(3) -0.1121(18)
O2 O -0.0344(3) 0.2183(2) -0.8026(2)
H45 H -0.095(4) 0.1629(19) -0.829(3)
H46 H -0.106(4) 0.261(3) -0.816(3)
O3 O 0.5956(5) 0.0980(3) -0.4594(3)
H47 H 0.522(5) 0.0787(16) -0.504(2)
H48 H 0.557(6) 0.114(5) -0.417(2)
loop_
_geom_bond_atom_site_label_1
_geom_bond_atom_site_label_2
_geom_bond_site_symmetry_1
_geom_bond_site_symmetry_2
Fe1 C19 1_555 1_555
Cu1 N1 1_555 1_555
Cu2 N3 1_555 1_555
Cu3 N5 1_555 1_555
C1 H1 1_555 1_555
C2 C1 1_555 1_555
H2 C2 1_555 1_555
H3 C2 1_555 1_555
C3 C2 1_555 1_555
H4 C3 1_555 1_555
H5 C3 1_555 1_555
C4 C3 1_555 1_555
H6 C4 1_555 1_555
H7 C4 1_555 1_555
C5 C4 1_555 1_555
H8 C5 1_555 1_555
H9 C5 1_555 1_555
C6 C1 1_555 1_555
H10 C6 1_555 1_555
C7 H11 1_555 1_555
C8 C7 1_555 1_555
H12 C8 1_555 1_555
H13 C8 1_555 1_555
C9 C8 1_555 1_555
H14 C9 1_555 1_555
H15 C9 1_555 1_555
C10 C9 1_555 1_555
H16 C10 1_555 1_555
H17 C10 1_555 1_555
C11 C10 1_555 1_555
H18 C11 1_555 1_555
H19 C11 1_555 1_555
C12 C7 1_555 1_555
H20 C12 1_555 1_555
C13 H21 1_555 1_555
C14 C13 1_555 1_555
H22 C14 1_555 1_555
H23 C14 1_555 1_555
C15 C14 1_555 1_555
H24 C15 1_555 1_555
H25 C15 1_555 1_555
C16 C15 1_555 1_555
H26 C16 1_555 1_555
H27 C16 1_555 1_555
C17 C16 1_555 1_555
H28 C17 1_555 1_555
H29 C17 1_555 1_555
C18 C13 1_555 1_555
H30 C18 1_555 1_555
C19 N7 1_555 1_555
C20 Fe1 1_555 1_555
C21 Fe1 1_555 1_555
C22 Fe1 1_555 1_555
C23 Fe1 1_555 1_555
C24 Fe1 1_555 1_555
N1 C1 1_555 1_555
H31 N1 1_555 1_555
H32 N1 1_555 1_555
N2 Cu1 1_555 1_555
H33 N2 1_555 1_555
H34 N2 1_555 1_555
N3 C7 1_555 1_555
H35 N3 1_555 1_555
H36 N3 1_555 1_555
N4 Cu2 1_555 1_555
H37 N4 1_555 1_555
H38 N4 1_555 1_555
N5 C13 1_555 1_555
H39 N5 1_555 1_555
H40 N5 1_555 1_555
N6 Cu3 1_555 1_555
H41 N6 1_555 1_555
H42 N6 1_555 1_555
N8 C20 1_555 1_555
N9 C21 1_555 1_555
N10 Cu1 1_555 1_555
N11 C23 1_555 1_555
N12 Cu2 1_555 1_555
O1 H43 1_555 1_555
H44 O1 1_555 1_555
O2 H45 1_555 1_555
H46 O2 1_555 1_555
O3 H47 1_555 1_555
H48 O3 1_555 1_555
C1A H1A 1_555 1_555
C2A C1A 1_555 1_555
H2A C2A 1_555 1_555
H3A C2A 1_555 1_555
C3A C2A 1_555 1_555
H4A C3A 1_555 1_555
H5A C3A 1_555 1_555
C4A C3A 1_555 1_555
H6A C4A 1_555 1_555
H7A C4A 1_555 1_555
C5A C4A 1_555 1_555
H8A C5A 1_555 1_555
H9A C5A 1_555 1_555
C6A C1A 1_555 1_555
H10A C6A 1_555 1_555
N1A Cu1 1_555 1_555
H31A N1A 1_555 1_555
H32A N1A 1_555 1_555
N2A Cu1 1_555 1_555
H33A N2A 1_555 1_555
H34A N2A 1_555 1_555
C22A N10A 1_555 1_555
N10A Cu1 1_555 1_555
Fe1A C22A 1_555 1_555
C19A Fe1A 1_555 1_555
N7A C19A 1_555 1_555
C20A Fe1A 1_555 1_555
N8A C20A 1_555 1_555
C21A Fe1A 1_555 1_555
N9A C21A 1_555 1_555
C23A Fe1A 1_555 1_555
N11A C23A 1_555 1_555
C24A Fe1A 1_555 1_555
N12A C24A 1_555 1_555
C7A H11A 1_555 1_555
C8A C7A 1_555 1_555
H12A C8A 1_555 1_555
H13A C8A 1_555 1_555
C9A C8A 1_555 1_555
H14A C9A 1_555 1_555
H15A C9A 1_555 1_555
C10A C9A 1_555 1_555
H16A C10A 1_555 1_555
H17A C10A 1_555 1_555
C11A C10A 1_555 1_555
H18A C11A 1_555 1_555
H19A C11A 1_555 1_555
C12A C7A 1_555 1_555
H20A C12A 1_555 1_555
N3A Cu2 1_555 1_555
H35A N3A 1_555 1_555
H36A N3A 1_555 1_555
N4A Cu2 1_555 1_555
H37A N4A 1_555 1_555
H38A N4A 1_555 1_555
C13A H21A 1_555 1_555
C14A C13A 1_555 1_555
H22A C14A 1_555 1_555
H23A C14A 1_555 1_555
C15A C14A 1_555 1_555
H24A C15A 1_555 1_555
H25A C15A 1_555 1_555
C16A C15A 1_555 1_555
H26A C16A 1_555 1_555
H27A C16A 1_555 1_555
C17A C16A 1_555 1_555
H28A C17A 1_555 1_555
H29A C17A 1_555 1_555
C18A C13A 1_555 1_555
H30A C18A 1_555 1_555
N5A Cu3 1_555 1_555
H39A N5A 1_555 1_555
H40A N5A 1_555 1_555
N6A Cu3 1_555 1_555
H41A N6A 1_555 1_555
H42A N6A 1_555 1_555
N12A_2 Cu2 1_555 1_555
Cu2_2 N12A 1_555 1_555
C5 C6 1_555 1_555
C6 N2 1_555 1_555
C11 C12 1_555 1_555
C12 N4 1_555 1_555
C17 C18 1_555 1_555
C18 N6 1_555 1_555
C22 N10 1_555 1_555
C24 N12 1_555 1_555
C1A N1A 1_555 1_555
C5A C6A 1_555 1_555
C6A N2A 1_555 1_555
C7A N3A 1_555 1_555
C11A C12A 1_555 1_555
C12A N4A 1_555 1_555
C13A N5A 1_555 1_555
C17A C18A 1_555 1_555
C18A N6A 1_555 1_555

#END
