
#######################################################################
#
#                 Cambridge Crystallographic Data Centre
#                                CCDC 
#
#######################################################################
#
# If this CIF has been generated from an entry in the Cambridge 
# Structural Database, then it will include bibliographic, chemical, 
# crystal, experimental, refinement or atomic coordinate data resulting 
# from the CCDC's data processing and validation procedures.
#
#######################################################################

data_AREDEH
_symmetry_cell_setting           rhombohedral
_symmetry_space_group_name_H-M   'R -3'
_symmetry_Int_Tables_number      148
_space_group_name_Hall           '-R 3'
loop_
_symmetry_equiv_pos_site_id
_symmetry_equiv_pos_as_xyz
1 x,y,z
2 -y,x-y,z
3 -x+y,-x,z
4 2/3+x,1/3+y,1/3+z
5 2/3-y,1/3+x-y,1/3+z
6 2/3-x+y,1/3-x,1/3+z
7 1/3+x,2/3+y,2/3+z
8 1/3-y,2/3+x-y,2/3+z
9 1/3-x+y,2/3-x,2/3+z
10 -x,-y,-z
11 y,-x+y,-z
12 x-y,x,-z
13 1/3-x,2/3-y,2/3-z
14 1/3+y,2/3-x+y,2/3-z
15 1/3+x-y,2/3+x,2/3-z
16 2/3-x,1/3-y,1/3-z
17 2/3+y,1/3-x+y,1/3-z
18 2/3+x-y,1/3+x,1/3-z
_cell_length_a                   11.6599(6)
_cell_length_b                   11.6599(6)
_cell_length_c                   41.664(4)
_cell_angle_alpha                90
_cell_angle_beta                 90
_cell_angle_gamma                120
_cell_volume                     4905.48
loop_
_atom_site_label
_atom_site_type_symbol
_atom_site_fract_x
_atom_site_fract_y
_atom_site_fract_z
Cu1 Cu -0.3333 -0.6667 0.3333
C1 C 0.0247(10) -0.4623(11) 0.43224(17)
H1 H -0.0401 -0.5297 0.4460
H2 H 0.0503 -0.3767 0.4410
H3 H 0.1010 -0.4730 0.4308
C2 C 0.0287(7) -0.3968(7) 0.37428(16)
C3 C 0.2051(8) -0.2035(8) 0.33535(17)
H4 H 0.2978 -0.1439 0.3305
H5 H 0.1716 -0.2766 0.3203
N1 N -0.0322(7) -0.4740(6) 0.39999(13)
N2 N -0.1531(6) -0.5647(6) 0.39218(13)
N3 N -0.1651(8) -0.5437(6) 0.36226(14)
N4 N -0.0540(6) -0.4381(6) 0.35031(13)
S1 S 0.1908(2) -0.2665(2) 0.37557(5)
Cu1L Cu 0.6666 0.3334 0.3334
Cu1M Cu -1.3334 -0.6667 0.3334
Cu1N Cu -0.3333 -1.6666 0.3334
C1L C 0.3086(10) 0.1290(11) 0.23443(17)
C1A C -0.5377(11) -0.5130(15) 0.43224(17)
C1M C -1.1290(11) -0.8203(15) 0.23443(17)
C1B C -0.4870(15) -1.0247(10) 0.43224(17)
C1N C -0.1797(15) -1.3086(10) 0.23443(17)
H1L H 0.3734 0.1964 0.2207
H1A H -0.4703 -0.5104 0.4460
H1M H -1.1964 -0.8229 0.2207
H1B H -0.4896 -0.9599 0.4460
H1N H -0.1771 -1.3734 0.2207
H2L H 0.2830 0.0434 0.2257
H2A H -0.6233 -0.5730 0.4410
H2M H -1.0434 -0.7603 0.2257
H2B H -0.4270 -1.0503 0.4410
H2N H -0.2397 -1.2830 0.2257
H3L H 0.2323 0.1397 0.2359
H3A H -0.5270 -0.4260 0.4308
H3M H -1.1397 -0.9073 0.2359
H3B H -0.5740 -1.1010 0.4308
H3N H -0.0927 -1.2323 0.2359
C2L C 0.3046(7) 0.0635(7) 0.29239(16)
C2A C -0.6032(7) -0.5745(10) 0.37428(16)
C2M C -1.0635(7) -0.7588(10) 0.29239(16)
C2B C -0.4255(10) -1.0287(7) 0.37428(16)
C2N C -0.2412(10) -1.3046(7) 0.29239(16)
C3L C 0.1282(8) -0.1298(8) 0.33132(17)
C3A C -0.7965(8) -0.5914(11) 0.33535(17)
C3M C -0.8702(8) -0.7419(11) 0.33132(17)
C3B C -0.4086(11) -1.2051(8) 0.33535(17)
C3N C -0.2581(11) -1.1282(8) 0.33132(17)
H4L H 0.0355 -0.1894 0.3362
H4A H -0.8561 -0.5583 0.3305
H4M H -0.8106 -0.7750 0.3362
H4B H -0.4417 -1.2978 0.3305
H4N H -0.2250 -1.0355 0.3362
H5L H 0.1617 -0.0567 0.3464
H5A H -0.7234 -0.5518 0.3203
H5M H -0.9433 -0.7815 0.3464
H5B H -0.4482 -1.1716 0.3203
H5N H -0.2185 -1.1617 0.3464
N1L N 0.3655(7) 0.1407(6) 0.26668(13)
N1A N -0.5260(6) -0.5582(9) 0.39999(13)
N1M N -1.1407(6) -0.7751(9) 0.26668(13)
N1B N -0.4418(9) -0.9678(7) 0.39999(13)
N1N N -0.2249(9) -1.3655(7) 0.26668(13)
N2L N 0.4864(6) 0.2314(6) 0.27449(13)
N2A N -0.4353(6) -0.5884(8) 0.39218(13)
N2M N -1.2314(6) -0.7449(8) 0.27449(13)
N2B N -0.4116(8) -0.8469(6) 0.39218(13)
N2N N -0.2551(8) -1.4864(6) 0.27449(13)
N3L N 0.4984(8) 0.2104(6) 0.30441(14)
N3A N -0.4563(6) -0.6214(10) 0.36226(14)
N3M N -1.2104(6) -0.7119(10) 0.30441(14)
N3B N -0.3786(10) -0.8349(8) 0.36226(14)
N3N N -0.2881(10) -1.4984(8) 0.30441(14)
N3L_2 N -0.5016(8) -0.7896(6) 0.30441(14)
N3M_2 N -0.2104(6) -0.7119(10) 0.30441(14)
N3N_2 N -0.2881(10) -0.4984(8) 0.30441(14)
N4L N 0.3873(6) 0.1048(6) 0.31636(13)
N4A N -0.5619(6) -0.6159(8) 0.35031(13)
N4M N -1.1048(6) -0.7174(8) 0.31636(13)
N4B N -0.3841(8) -0.9460(6) 0.35031(13)
N4N N -0.2826(8) -1.3873(6) 0.31636(13)
S1L S 0.1425(2) -0.0668(2) 0.29110(5)
S1A S -0.7335(2) -0.5427(3) 0.37557(5)
S1M S -0.9332(2) -0.7906(3) 0.29110(5)
S1B S -0.4573(3) -1.1908(2) 0.37557(5)
S1N S -0.2094(3) -1.1425(2) 0.29110(5)
P1 P 0.3333 0.6667 0.1667
Mo1 Mo 0.20717(8) 0.32040(5) 0.170770(13)
Mo2 Mo 0.19304(8) 0.46876(5) 0.096610(12)
O2 O 0.2252(11) 0.5302(8) 0.15471(16)
O3 O 0.2603(10) 0.3686(8) 0.21178(14)
O4 O 0.0577(10) 0.3285(6) 0.17386(14)
O5 O 0.2010(10) 0.3525(6) 0.12365(13)
O6 O 0.1541(8) 0.1597(6) 0.17070(14)
O7 O 0.1203(8) 0.3791(6) 0.06463(12)
O8 O 0.3679(8) 0.5578(6) 0.0852(2)
Mo1Q Mo 0.55344(9) 0.54050(8) 0.162563(13)
Mo1A Mo 0.67960(5) 0.88677(9) 0.170770(13)
Mo1O Mo 0.45950(8) 1.01293(5) 0.162563(13)
Mo1B Mo 0.11323(9) 0.79283(8) 0.170770(13)
Mo1P Mo -0.01293(5) 0.44656(9) 0.162563(13)
Mo2Q Mo 0.39095(9) 0.52637(8) 0.236723(12)
Mo2A Mo 0.53124(5) 0.72428(9) 0.096610(12)
Mo2O Mo 0.47363(8) 0.86457(5) 0.236723(12)
Mo2B Mo 0.27572(9) 0.80696(8) 0.096610(12)
Mo2P Mo 0.13543(5) 0.60905(9) 0.236723(12)
O2Q O 0.3617(14) 0.5585(11) 0.17862(16)
O2A O 0.4698(8) 0.6950(14) 0.15471(16)
O2O O 0.4415(11) 0.8031(8) 0.17862(16)
O2B O 0.3050(14) 0.7748(11) 0.15471(16)
O2P O 0.1969(8) 0.6383(14) 0.17862(16)
O3P O 0.0353(8) 0.4416(13) 0.12155(14)
O3Q O 0.5584(13) 0.5936(10) 0.12155(14)
O3A O 0.6314(8) 0.8917(13) 0.21178(14)
O3O O 0.4064(10) 0.9647(8) 0.12155(14)
O3B O 0.1083(13) 0.7397(10) 0.21178(14)
O4Q O 0.3959(12) 0.3910(10) 0.15947(14)
O4A O 0.6715(6) 0.7292(12) 0.17386(14)
O4O O 0.6090(10) 1.0048(6) 0.15947(14)
O4B O 0.2708(12) 0.9423(10) 0.17386(14)
O4P O -0.0048(6) 0.6041(12) 0.15947(14)
O5Q O 0.5152(12) 0.5343(10) 0.20968(13)
O5A O 0.6475(6) 0.8485(12) 0.12365(13)
O5O O 0.4657(10) 0.9808(6) 0.20968(13)
O5B O 0.1515(12) 0.7990(10) 0.12365(13)
O5P O 0.0192(6) 0.4848(12) 0.20968(13)
O6Q O 0.6611(10) 0.4874(8) 0.16263(14)
O6A O 0.8403(6) 0.9944(10) 0.17070(14)
O6O O 0.5126(8) 1.1736(6) 0.16263(14)
O6B O 0.0056(10) 0.8459(8) 0.17070(14)
O6P O -0.1736(6) 0.3389(10) 0.16263(14)
O7Q O 0.4079(10) 0.4536(8) 0.26870(12)
O7A O 0.6209(6) 0.7412(10) 0.06463(12)
O7O O 0.5464(8) 0.9542(6) 0.26870(12)
O7B O 0.2588(10) 0.8797(8) 0.06463(12)
O7P O 0.0458(6) 0.5921(10) 0.26870(12)
O8B O 0.1899(10) 0.6321(8) 0.0852(2)
O8Q O 0.4768(10) 0.7012(8) 0.2481(2)
O8P O 0.2245(6) 0.5232(10) 0.2481(2)
O8A O 0.4422(6) 0.8101(10) 0.0852(2)
O8O O 0.2988(8) 0.7755(6) 0.2481(2)
O1? O 0.3334 0.6666 0.2035(3)
loop_
_geom_bond_atom_site_label_1
_geom_bond_atom_site_label_2
_geom_bond_site_symmetry_1
_geom_bond_site_symmetry_2
P1 O2 1_555 1_555
Mo1 O2 1_555 1_555
Mo2 O2 1_555 1_555
O2 Mo1P 1_555 1_555
O3 Mo1 1_555 1_555
O4 Mo1 1_555 1_555
O5 Mo1 1_555 1_555
O6 Mo1 1_555 1_555
O7 Mo2 1_555 1_555
O8 Mo2 1_555 1_555
Cu1 N3 1_555 1_555
C1 H1 1_555 1_555
H2 C1 1_555 1_555
H3 C1 1_555 1_555
C2 N1 1_555 1_555
C3 H4 1_555 1_555
H5 C3 1_555 1_555
N1 C1 1_555 1_555
N2 N1 1_555 1_555
N3 N2 1_555 1_555
N4 C2 1_555 1_555
S1 C2 1_555 1_555
Mo1Q O2Q 1_555 1_555
Mo1A O2A 1_555 1_555
Mo1O O2O 1_555 1_555
Mo1B O2B 1_555 1_555
Mo1P O4 1_555 1_555
Mo2Q O3 1_555 1_555
Mo2A O8 1_555 1_555
Mo2O O2O 1_555 1_555
Mo2B O2B 1_555 1_555
Mo2P O2P 1_555 1_555
O2Q P1 1_555 1_555
O2A P1 1_555 1_555
O2O P1 1_555 1_555
O2B P1 1_555 1_555
O2P P1 1_555 1_555
O3P Mo2 1_555 1_555
O3Q Mo1Q 1_555 1_555
O3A Mo1A 1_555 1_555
O3O Mo1O 1_555 1_555
O3B Mo1B 1_555 1_555
O4Q Mo1 1_555 1_555
O4A Mo1Q 1_555 1_555
O4O Mo1A 1_555 1_555
O4B Mo1O 1_555 1_555
O4P Mo1B 1_555 1_555
O5Q Mo1Q 1_555 1_555
O5A Mo1A 1_555 1_555
O5O Mo1O 1_555 1_555
O5B Mo1B 1_555 1_555
O5P Mo1P 1_555 1_555
O6Q Mo1Q 1_555 1_555
O6A Mo1A 1_555 1_555
O6O Mo1O 1_555 1_555
O6B Mo1B 1_555 1_555
O6P Mo1P 1_555 1_555
O7Q Mo2Q 1_555 1_555
O7A Mo2A 1_555 1_555
O7O Mo2O 1_555 1_555
O7B Mo2B 1_555 1_555
O7P Mo2P 1_555 1_555
O8B Mo2 1_555 1_555
O8Q Mo2Q 1_555 1_555
O8P Mo2Q 1_555 1_555
O8A Mo2A 1_555 1_555
O8O Mo2O 1_555 1_555
Cu1L N3L 1_555 1_555
Cu1M N3M 1_555 1_555
Cu1N N3N 1_555 1_555
C1L H1L 1_555 1_555
C1A H1A 1_555 1_555
C1M H1M 1_555 1_555
C1B H1B 1_555 1_555
C1N H1N 1_555 1_555
H2L C1L 1_555 1_555
H2A C1A 1_555 1_555
H2M C1M 1_555 1_555
H2B C1B 1_555 1_555
H2N C1N 1_555 1_555
H3L C1L 1_555 1_555
H3A C1A 1_555 1_555
H3M C1M 1_555 1_555
H3B C1B 1_555 1_555
H3N C1N 1_555 1_555
C2L N1L 1_555 1_555
C2A N1A 1_555 1_555
C2M N1M 1_555 1_555
C2B N1B 1_555 1_555
C2N N1N 1_555 1_555
C3L C3 1_555 1_555
C3A C3M 1_555 1_555
C3M H4M 1_555 1_555
C3B C3N 1_555 1_555
C3N H4N 1_555 1_555
H4L C3L 1_555 1_555
H4A C3A 1_555 1_555
H4B C3B 1_555 1_555
H5L C3L 1_555 1_555
H5A C3A 1_555 1_555
H5M C3M 1_555 1_555
H5B C3B 1_555 1_555
H5N C3N 1_555 1_555
N1L C1L 1_555 1_555
N1A C1A 1_555 1_555
N1M C1M 1_555 1_555
N1B C1B 1_555 1_555
N1N C1N 1_555 1_555
N2L N1L 1_555 1_555
N2A N1A 1_555 1_555
N2M N1M 1_555 1_555
N2B N1B 1_555 1_555
N2N N1N 1_555 1_555
N3L N2L 1_555 1_555
N3A Cu1 1_555 1_555
N3M N2M 1_555 1_555
N3B Cu1 1_555 1_555
N3N N2N 1_555 1_555
N3L_2 Cu1 1_555 1_555
N3M_2 Cu1 1_555 1_555
N3N_2 Cu1 1_555 1_555
N4L C2L 1_555 1_555
N4A C2A 1_555 1_555
N4M C2M 1_555 1_555
N4B C2B 1_555 1_555
N4N C2N 1_555 1_555
S1L C2L 1_555 1_555
S1A C2A 1_555 1_555
S1M C2M 1_555 1_555
S1B C2B 1_555 1_555
S1N C2N 1_555 1_555
Mo1 O2Q 1_555 1_555
Mo2 O5 1_555 1_555
O2 O2Q 1_555 1_555
O2 O2P 1_555 1_555
C3 S1 1_555 1_555
N3 N4 1_555 1_555
Mo1Q O2A 1_555 1_555
Mo1Q O4Q 1_555 1_555
Mo1A O2O 1_555 1_555
Mo1A O4A 1_555 1_555
Mo1O O2B 1_555 1_555
Mo1O O4O 1_555 1_555
Mo1B O2P 1_555 1_555
Mo1B O4B 1_555 1_555
Mo1P O2P 1_555 1_555
Mo1P O3P 1_555 1_555
Mo1P O4P 1_555 1_555
Mo2Q O2Q 1_555 1_555
Mo2Q O5Q 1_555 1_555
Mo2A O2A 1_555 1_555
Mo2A O3Q 1_555 1_555
Mo2A O5A 1_555 1_555
Mo2O O3A 1_555 1_555
Mo2O O5O 1_555 1_555
Mo2O O8Q 1_555 1_555
Mo2B O3O 1_555 1_555
Mo2B O5B 1_555 1_555
Mo2B O8B 1_555 1_555
Mo2B O8A 1_555 1_555
Mo2P O3B 1_555 1_555
Mo2P O5P 1_555 1_555
Mo2P O8P 1_555 1_555
Mo2P O8O 1_555 1_555
O2Q O2A 1_555 1_555
O2A O2O 1_555 1_555
O2O O2B 1_555 1_555
O2B O2P 1_555 1_555
C3L S1L 1_555 1_555
C3A S1A 1_555 1_555
C3M S1M 1_555 1_555
C3B S1B 1_555 1_555
C3N S1N 1_555 1_555
N2A N3A 1_555 1_555
N2B N3B 1_555 1_555
N3L N4L 1_555 1_555
N3A N4A 1_555 1_555
N3M N4M 1_555 1_555
N3B N4B 1_555 1_555
N3N N4N 1_555 1_555

#END
