
#######################################################################
#
#                 Cambridge Crystallographic Data Centre
#                                CCDC 
#
#######################################################################
#
# If this CIF has been generated from an entry in the Cambridge 
# Structural Database, then it will include bibliographic, chemical, 
# crystal, experimental, refinement or atomic coordinate data resulting 
# from the CCDC's data processing and validation procedures.
#
#######################################################################

data_ARENIV
_symmetry_cell_setting           triclinic
_symmetry_space_group_name_H-M   'P -1'
_symmetry_Int_Tables_number      2
_space_group_name_Hall           '-P 1'
loop_
_symmetry_equiv_pos_site_id
_symmetry_equiv_pos_as_xyz
1 x,y,z
2 -x,-y,-z
_cell_length_a                   13.8053(16)
_cell_length_b                   13.8932(18)
_cell_length_c                   14.0281(16)
_cell_angle_alpha                103.698(10)
_cell_angle_beta                 106.301(10)
_cell_angle_gamma                104.191(11)
_cell_volume                     2364.73
loop_
_atom_site_label
_atom_site_type_symbol
_atom_site_fract_x
_atom_site_fract_y
_atom_site_fract_z
Mn1 Mn 0.76180(6) 0.13113(6) 0.99389(6)
Mn2 Mn 0.51427(6) -0.23384(6) 0.66784(6)
Mn3 Mn 1.12963(6) 0.51624(6) 1.28752(6)
O1 O 0.6069(3) -0.2043(3) 0.5930(3)
C1 C 0.6490(4) -0.1144(4) 0.5802(4)
C2 C 0.7288(5) -0.1063(5) 0.5344(5)
H1 H 0.7524 -0.1630 0.5175
C3 C 0.7722(5) -0.0158(5) 0.5141(5)
H2 H 0.8225 -0.0138 0.4816
C4 C 0.8303(4) 0.0237(4) 1.1419(4)
C5 C 0.8033(5) -0.0423(4) 1.2003(4)
H3 H 0.7332 -0.0648 1.1979
C6 C 0.8792(5) -0.0737(5) 1.2607(5)
H4 H 0.8595 -0.1163 1.2989
C7 C 0.9846(5) -0.0428(5) 1.2654(5)
H5 H 1.0350 -0.0636 1.3074
C8 C 1.0140(5) 0.0185(5) 1.2080(5)
H6 H 1.0846 0.0385 1.2113
C9 C 0.9378(4) 0.0528(4) 1.1423(4)
C10 C 0.9747(4) 0.1132(4) 1.0827(4)
H7 H 1.0469 0.1302 1.0915
C11 C 0.9623(4) 0.2112(4) 0.9632(5)
H8 H 1.0180 0.1886 0.9456
H9 H 0.9940 0.2840 1.0085
C12 C 0.8741(4) 0.2011(5) 0.8628(4)
H10 H 0.8969 0.2575 0.8359
H11 H 0.8556 0.1343 0.8089
C13 C 0.7254(4) 0.2643(4) 0.8633(4)
H12 H 0.7444 0.3004 0.8197
C14 C 0.6354(4) 0.2739(4) 0.8922(4)
C15 C 0.5191(6) 0.3763(6) 0.9079(6)
H13 H 0.4990 0.4341 0.9007
C16 C 0.4688(6) 0.3109(8) 0.9519(6)
H14 H 0.4137 0.3242 0.9725
C17 C 0.4997(5) 0.2224(7) 0.9665(5)
H15 H 0.4626 0.1765 0.9930
C18 C 0.5867(4) 0.2064(5) 0.9403(4)
C19 C 0.4529(4) -0.4471(4) 0.6716(4)
C20 C 0.4534(4) -0.5511(4) 0.6353(4)
H16 H 0.4980 -0.5642 0.5986
C21 C 0.3905(5) -0.6329(5) 0.6526(5)
H17 H 0.3931 -0.7001 0.6281
C22 C 0.3221(5) -0.6159(5) 0.7070(5)
H18 H 0.2786 -0.6720 0.7176
C23 C 0.3191(5) -0.5178(5) 0.7443(5)
H19 H 0.2744 -0.5072 0.7815
C24 C 0.3830(4) -0.4304(4) 0.7278(4)
C25 C 0.3762(4) -0.3285(5) 0.7707(4)
H20 H 0.3343 -0.3233 0.8119
C26 C 0.4164(5) -0.1415(5) 0.8077(5)
H21 H 0.4793 -0.1020 0.8706
H22 H 0.3536 -0.1516 0.8274
C27 C 0.4088(5) -0.0833(5) 0.7294(5)
H23 H 0.3381 -0.1128 0.6751
H24 H 0.4219 -0.0096 0.7641
N1 N 0.4913(3) -0.0948(3) 0.6828(4)
C28 C 0.7165(4) -0.1002(4) 0.8728(4)
H25 H 0.7706 -0.0978 0.9314
C29 C 0.3577(4) -0.3009(4) 0.4371(4)
H26 H 0.4206 -0.2637 0.4315
C30 C 0.8952(4) 0.3585(4) 1.1861(4)
H27 H 0.8843 0.4167 1.2243
C31 C 1.0434(4) 0.6597(4) 1.3941(4)
C32 C 0.9967(4) 0.7394(4) 1.3911(4)
H28 H 0.9648 0.7471 1.3268
C33 C 0.9975(5) 0.8062(4) 1.4825(5)
H29 H 0.9652 0.8572 1.4786
C34 C 1.0473(5) 0.7973(5) 1.5816(5)
H30 H 1.0492 0.8428 1.6431
C35 C 1.0922(4) 0.7206(5) 1.5848(4)
H31 H 1.1249 0.7147 1.6497
C36 C 1.0912(4) 0.6496(4) 1.4934(4)
C37 C 1.1332(4) 0.5657(4) 1.5026(4)
H32 H 1.1550 0.5583 1.5687
C38 C 1.1852(4) 0.4145(4) 1.4435(5)
H33 H 1.1283 0.3470 1.4096
H34 H 1.2153 0.4248 1.5179
C39 C 1.2701(4) 0.4183(4) 1.3957(4)
H35 H 1.3342 0.4779 1.4396
H36 H 1.2885 0.3546 1.3887
N2 N 1.2251(3) 0.4287(3) 1.2907(3)
C40 C 1.2504(4) 0.3868(4) 1.2126(4)
H37 H 1.2954 0.3473 1.2235
C41 C 1.2138(4) 0.3971(4) 1.1100(4)
C42 C 1.2409(4) 0.3387(4) 1.0315(4)
H38 H 1.2814 0.2965 1.0483
C43 C 1.2094(4) 0.3419(5) 0.9296(5)
H39 H 1.2276 0.3019 0.8785
C44 C 1.1494(4) 0.4070(4) 0.9055(4)
H40 H 1.1272 0.4096 0.8374
C45 C 1.1229(4) 0.4674(4) 0.9812(4)
H41 H 1.0846 0.5111 0.9636
C46 C 1.1533(4) 0.4636(4) 1.0858(4)
O2 O 0.7558(3) 0.0531(3) 1.0880(3)
O3 O 0.6181(3) 0.1281(3) 0.9606(3)
O4 O 0.5154(3) -0.3732(3) 0.6513(3)
O5 O 0.6535(3) -0.1889(3) 0.8161(3)
O6 O 0.7171(3) -0.0150(3) 0.8620(3)
O7 O 0.3632(3) -0.3040(3) 0.5272(3)
O8 O 0.2779(3) -0.3418(3) 0.3546(3)
O9 O 0.8119(3) 0.2840(3) 1.1253(3)
O10 O 0.9898(3) 0.3656(3) 1.2025(3)
O11 O 1.0410(3) 0.5996(3) 1.3039(3)
O12 O 1.1260(3) 0.5234(3) 1.1549(3)
N3 N 0.9161(3) 0.1463(3) 1.0174(3)
N4 N 0.7812(3) 0.2079(3) 0.8950(3)
N5 N 0.4235(3) -0.2441(4) 0.7565(4)
N6 N 1.1432(3) 0.5002(3) 1.4272(3)
C47 C 0.5985(5) 0.3570(5) 0.8747(6)
H42 H 0.6285 0.3986 0.8404
C48 C 0.6199(4) -0.0238(4) 0.6095(5)
C49 C 0.6663(5) 0.0678(5) 0.5886(5)
H43 H 0.6453 0.1261 0.6070
C50 C 0.5408(5) -0.0207(5) 0.6580(5)
H44 H 0.5248 0.0411 0.6724
C51 C 0.7417(5) 0.0729(6) 0.5418(6)
H45 H 0.7717 0.1338 0.5288
Mn3_2 Mn 0.12963(6) -0.48376(6) 0.28752(6)
O8_2 O 1.2779(3) 0.6582(3) 1.3546(3)
loop_
_geom_bond_atom_site_label_1
_geom_bond_atom_site_label_2
_geom_bond_site_symmetry_1
_geom_bond_site_symmetry_2
Mn1 O2 1_555 1_555
Mn2 O1 1_555 1_555
Mn3 N2 1_555 1_555
O1 C1 1_555 1_555
C1 C2 1_555 1_555
C2 H1 1_555 1_555
C3 C2 1_555 1_555
H2 C3 1_555 1_555
C4 C5 1_555 1_555
C5 H3 1_555 1_555
C6 C5 1_555 1_555
H4 C6 1_555 1_555
C7 C6 1_555 1_555
H5 C7 1_555 1_555
C8 C7 1_555 1_555
H6 C8 1_555 1_555
C9 C4 1_555 1_555
C10 C9 1_555 1_555
H7 C10 1_555 1_555
C11 H8 1_555 1_555
H9 C11 1_555 1_555
C12 C11 1_555 1_555
H10 C12 1_555 1_555
H11 C12 1_555 1_555
C13 H12 1_555 1_555
C14 C13 1_555 1_555
C15 H13 1_555 1_555
C16 C15 1_555 1_555
H14 C16 1_555 1_555
C17 C16 1_555 1_555
H15 C17 1_555 1_555
C18 C14 1_555 1_555
C19 C20 1_555 1_555
C20 H16 1_555 1_555
C21 C20 1_555 1_555
H17 C21 1_555 1_555
C22 C21 1_555 1_555
H18 C22 1_555 1_555
C23 C22 1_555 1_555
H19 C23 1_555 1_555
C24 C19 1_555 1_555
C25 C24 1_555 1_555
H20 C25 1_555 1_555
C26 H21 1_555 1_555
H22 C26 1_555 1_555
C27 C26 1_555 1_555
H23 C27 1_555 1_555
H24 C27 1_555 1_555
N1 Mn2 1_555 1_555
C28 H25 1_555 1_555
C29 H26 1_555 1_555
C30 H27 1_555 1_555
C31 C32 1_555 1_555
C32 H28 1_555 1_555
C33 C32 1_555 1_555
H29 C33 1_555 1_555
C34 C33 1_555 1_555
H30 C34 1_555 1_555
C35 C34 1_555 1_555
H31 C35 1_555 1_555
C36 C31 1_555 1_555
C37 C36 1_555 1_555
H32 C37 1_555 1_555
C38 H33 1_555 1_555
H34 C38 1_555 1_555
C39 C38 1_555 1_555
H35 C39 1_555 1_555
H36 C39 1_555 1_555
N2 C39 1_555 1_555
C40 N2 1_555 1_555
H37 C40 1_555 1_555
C41 C40 1_555 1_555
C42 C41 1_555 1_555
H38 C42 1_555 1_555
C43 C42 1_555 1_555
H39 C43 1_555 1_555
C44 C43 1_555 1_555
H40 C44 1_555 1_555
C45 C44 1_555 1_555
H41 C45 1_555 1_555
C46 C41 1_555 1_555
O2 C4 1_555 1_555
O3 Mn1 1_555 1_555
O4 Mn2 1_555 1_555
O5 Mn2 1_555 1_555
O6 Mn1 1_555 1_555
O7 Mn2 1_555 1_555
O8 C29 1_555 1_555
O9 Mn1 1_555 1_555
O10 Mn3 1_555 1_555
O11 Mn3 1_555 1_555
O12 Mn3 1_555 1_555
N3 Mn1 1_555 1_555
N4 Mn1 1_555 1_555
N5 Mn2 1_555 1_555
N6 Mn3 1_555 1_555
C47 C14 1_555 1_555
H42 C47 1_555 1_555
C48 C1 1_555 1_555
C49 C48 1_555 1_555
H43 C49 1_555 1_555
C50 N1 1_555 1_555
H44 C50 1_555 1_555
C51 C3 1_555 1_555
H45 C51 1_555 1_555
Mn3_2 O8 1_555 1_555
O8_2 Mn3 1_555 1_555
C8 C9 1_555 1_555
C10 N3 1_555 1_555
C11 N3 1_555 1_555
C12 N4 1_555 1_555
C13 N4 1_555 1_555
C15 C47 1_555 1_555
C17 C18 1_555 1_555
C18 O3 1_555 1_555
C19 O4 1_555 1_555
C23 C24 1_555 1_555
C25 N5 1_555 1_555
C26 N5 1_555 1_555
C27 N1 1_555 1_555
C28 O5 1_555 1_555
C28 O6 1_555 1_555
C29 O7 1_555 1_555
C30 O9 1_555 1_555
C30 O10 1_555 1_555
C31 O11 1_555 1_555
C35 C36 1_555 1_555
C37 N6 1_555 1_555
C38 N6 1_555 1_555
C45 C46 1_555 1_555
C46 O12 1_555 1_555
C48 C50 1_555 1_555
C49 C51 1_555 1_555

#END
