
#######################################################################
#
#                 Cambridge Crystallographic Data Centre
#                                CCDC 
#
#######################################################################
#
# If this CIF has been generated from an entry in the Cambridge 
# Structural Database, then it will include bibliographic, chemical, 
# crystal, experimental, refinement or atomic coordinate data resulting 
# from the CCDC's data processing and validation procedures.
#
#######################################################################

data_AREQEU
_symmetry_cell_setting           monoclinic
_symmetry_space_group_name_H-M   'C 2/c'
_symmetry_Int_Tables_number      15
_space_group_name_Hall           '-C 2yn'
loop_
_symmetry_equiv_pos_site_id
_symmetry_equiv_pos_as_xyz
1 x,y,z
2 -x,y,1/2-z
3 1/2+x,1/2+y,z
4 1/2-x,1/2+y,1/2-z
5 -x,-y,-z
6 x,-y,1/2+z
7 1/2-x,1/2-y,-z
8 1/2+x,1/2-y,1/2+z
_cell_length_a                   19.7328(4)
_cell_length_b                   11.6301(2)
_cell_length_c                   23.7320(5)
_cell_angle_alpha                90
_cell_angle_beta                 91.481(2)
_cell_angle_gamma                90
_cell_volume                     5444.54
loop_
_atom_site_label
_atom_site_type_symbol
_atom_site_fract_x
_atom_site_fract_y
_atom_site_fract_z
Ce1 Ce 0.5000 0.25684(3) -0.2500
C1 C 0.5158(2) 0.1685(3) -0.00417(16)
C2 C 0.4684(2) 0.1369(3) 0.03520(18)
C3 C 0.4877(2) 0.1247(4) 0.09195(18)
C4 C 0.5546(2) 0.1465(4) 0.10912(17)
C5 C 0.6025(2) 0.1793(4) 0.06999(19)
C6 C 0.5835(2) 0.1884(4) 0.01240(18)
C7 C 0.4956(2) 0.1779(4) -0.06640(17)
H1 H 0.4572 0.1273 -0.0735
H2 H 0.5329 0.1491 -0.0882
C8 C 0.3946(2) 0.1179(5) 0.0172(2)
H3 H 0.3922 0.0963 -0.0219
H4 H 0.3696 0.1877 0.0224
H5 H 0.3757 0.0579 0.0396
C9 C 0.4362(3) 0.0913(5) 0.1351(2)
H6 H 0.4063 0.1546 0.1417
H7 H 0.4598 0.0713 0.1696
H8 H 0.4104 0.0264 0.1217
C10 C 0.5758(3) 0.1366(4) 0.17104(19)
H9 H 0.5378 0.1596 0.1936
H10 H 0.6123 0.1907 0.1786
C11 C 0.6747(3) 0.2052(7) 0.0879(3)
H11 H 0.7043 0.1487 0.0723
H12 H 0.6789 0.2033 0.1283
H13 H 0.6870 0.2801 0.0746
C12 C 0.6369(3) 0.2169(6) -0.0292(2)
H14 H 0.6513 0.2951 -0.0239
H15 H 0.6186 0.2076 -0.0668
H16 H 0.6750 0.1664 -0.0236
C13 C 0.5724(4) 0.4758(6) -0.1007(3)
H17 H 0.6184 0.4675 -0.0859
H18 H 0.5713 0.4499 -0.1395
C14 C 0.5537(6) 0.5893(7) -0.0986(4)
H19 H 0.5064 0.5962 -0.1086
H20 H 0.5799 0.6327 -0.1246
H21 H 0.5616 0.6182 -0.0611
C15 C 0.3740(3) 0.4581(6) -0.0682(3)
H22 H 0.3696 0.4779 -0.1078
H23 H 0.4008 0.5171 -0.0492
C16 C 0.3062(3) 0.4502(7) -0.0432(3)
H24 H 0.2818 0.3866 -0.0596
H25 H 0.2816 0.5201 -0.0504
H26 H 0.3112 0.4388 -0.0032
C17 C 0.6935(3) -0.1429(6) 0.1498(3)
H27 H 0.7099 -0.1558 0.1882
H28 H 0.6655 -0.2078 0.1385
C18 C 0.7500(5) -0.1330(10) 0.1131(5)
H29 H 0.7346 -0.1445 0.0748
H30 H 0.7833 -0.1901 0.1231
H31 H 0.7696 -0.0578 0.1169
C19 C 0.7446(4) 0.0467(10) 0.3045(4)
H32 H 0.7596 -0.0311 0.2997
H33 H 0.7170 0.0515 0.3371
H34 H 0.7833 0.0962 0.3094
C20 C 0.7064(4) 0.0801(7) 0.2558(3)
H35 H 0.7334 0.0696 0.2226
H36 H 0.6947 0.1609 0.2584
N1 N 0.6424(3) 0.2424(5) -0.1974(2)
N2 N 0.5000 0.51460(18) -0.2500
O1 O 0.46594(18) 0.3241(3) -0.15457(11)
O2 O 0.52636(19) 0.4042(3) -0.06740(14)
O3 O 0.40676(18) 0.3460(3) -0.06146(13)
O4 O 0.54901(16) -0.0859(3) 0.20271(12)
O5 O 0.65367(19) -0.0379(3) 0.14713(13)
O6 O 0.64492(18) 0.0121(3) 0.25029(13)
O7 O 0.59133(17) 0.2024(4) -0.17441(14)
O8 O 0.6976(3) 0.2416(6) -0.1744(3)
O9 O 0.4526(5) 0.4602(3) -0.2599(5)
O10 O 0.5000 0.6324(11) -0.2500
O11 O 0.638(2) 0.269(5) -0.2487(10)
P1 P 0.47372(6) 0.31716(9) -0.09240(4)
P2 P 0.60321(6) -0.00292(11) 0.19386(4)
Ce1D Ce 0.5000 -0.25684(3) -0.7500
Ce1D_2 Ce 0.5000 -0.25684(3) 0.2500
C1A C 0.4842(2) 0.1685(3) -0.49583(16)
C2A C 0.5316(2) 0.1369(3) -0.53520(18)
C3A C 0.5123(2) 0.1247(4) -0.59195(18)
C4A C 0.4454(2) 0.1465(4) -0.60912(17)
C5A C 0.3975(2) 0.1793(4) -0.56999(19)
C6A C 0.4165(2) 0.1884(4) -0.51240(18)
C7A C 0.5044(2) 0.1779(4) -0.43360(17)
H1A H 0.5428 0.1273 -0.4265
H2A H 0.4671 0.1491 -0.4118
C8A C 0.6054(2) 0.1179(5) -0.5172(2)
H3A H 0.6078 0.0963 -0.4781
H4A H 0.6304 0.1877 -0.5224
H5A H 0.6243 0.0579 -0.5396
C9A C 0.5638(3) 0.0913(5) -0.6351(2)
H6A H 0.5937 0.1546 -0.6417
H7A H 0.5402 0.0713 -0.6696
H8A H 0.5896 0.0264 -0.6217
C10A C 0.4242(3) 0.1366(4) -0.67104(19)
H9A H 0.4622 0.1596 -0.6936
H10A H 0.3877 0.1907 -0.6786
C11A C 0.3253(3) 0.2052(7) -0.5879(3)
H11A H 0.2957 0.1487 -0.5723
H12A H 0.3211 0.2033 -0.6283
H13A H 0.3130 0.2801 -0.5746
C12A C 0.3631(3) 0.2169(6) -0.4708(2)
H14A H 0.3487 0.2951 -0.4761
H15A H 0.3814 0.2076 -0.4332
H16A H 0.3250 0.1664 -0.4764
C13A C 0.4276(4) 0.4758(6) -0.3993(3)
H17A H 0.3816 0.4675 -0.4141
H18A H 0.4287 0.4499 -0.3605
C14A C 0.4463(6) 0.5893(7) -0.4014(4)
H19A H 0.4936 0.5962 -0.3914
H20A H 0.4201 0.6327 -0.3754
H21A H 0.4384 0.6182 -0.4389
C15A C 0.6260(3) 0.4581(6) -0.4318(3)
H22A H 0.6304 0.4779 -0.3922
H23A H 0.5992 0.5171 -0.4508
C16A C 0.6938(3) 0.4502(7) -0.4568(3)
H24A H 0.7182 0.3866 -0.4404
H25A H 0.7184 0.5201 -0.4496
H26A H 0.6888 0.4388 -0.4968
C17A C 0.3065(3) -0.1429(6) -0.6498(3)
H27A H 0.2901 -0.1558 -0.6882
H28A H 0.3345 -0.2078 -0.6385
C18A C 0.2500(5) -0.1330(10) -0.6131(5)
H29A H 0.2654 -0.1445 -0.5748
H30A H 0.2167 -0.1901 -0.6231
H31A H 0.2304 -0.0578 -0.6169
C19A C 0.2554(4) 0.0467(10) -0.8045(4)
H32A H 0.2404 -0.0311 -0.7997
H33A H 0.2830 0.0515 -0.8371
H34A H 0.2167 0.0962 -0.8094
C20A C 0.2936(4) 0.0801(7) -0.7558(3)
H35A H 0.2666 0.0696 -0.7226
H36A H 0.3053 0.1609 -0.7584
N1A N 0.3576(3) 0.2424(5) -0.3026(2)
O1A O 0.53406(18) 0.3241(3) -0.34543(11)
O2A O 0.47364(19) 0.4042(3) -0.43260(14)
O3A O 0.59324(18) 0.3460(3) -0.43854(13)
O4A O 0.45099(16) -0.0859(3) -0.70271(12)
O4D O 0.45099(16) 0.0859(3) -0.20271(12)
O4E O 0.54901(16) 0.0859(3) -0.29729(12)
O5A O 0.34633(19) -0.0379(3) -0.64713(13)
O6A O 0.35508(18) 0.0121(3) -0.75029(13)
O7A O 0.40867(17) 0.2024(4) -0.32559(14)
O8A O 0.3024(3) 0.2416(6) -0.3256(3)
O9A O 0.5474(5) 0.4602(3) -0.2401(5)
O11A O 0.362(2) 0.269(5) -0.2513(10)
P1A P 0.52628(6) 0.31716(9) -0.40760(4)
P2A P 0.39679(6) -0.00292(11) -0.69386(4)
O12 O 0.8967(12) 0.881(2) 0.2511(11)
O13? O 0.624(3) 0.304(6) -0.241(2)
loop_
_geom_bond_atom_site_label_1
_geom_bond_atom_site_label_2
_geom_bond_site_symmetry_1
_geom_bond_site_symmetry_2
Ce1 O1 1_555 1_555
C1 C2 1_555 1_555
C2 C3 1_555 1_555
C3 C4 1_555 1_555
C4 C5 1_555 1_555
C5 C6 1_555 1_555
C6 C1 1_555 1_555
C7 C1 1_555 1_555
H1 C7 1_555 1_555
H2 C7 1_555 1_555
C8 C2 1_555 1_555
H3 C8 1_555 1_555
H4 C8 1_555 1_555
H5 C8 1_555 1_555
C9 C3 1_555 1_555
H6 C9 1_555 1_555
H7 C9 1_555 1_555
H8 C9 1_555 1_555
C10 C4 1_555 1_555
H9 C10 1_555 1_555
H10 C10 1_555 1_555
C11 C5 1_555 1_555
H11 C11 1_555 1_555
H12 C11 1_555 1_555
H13 C11 1_555 1_555
C12 C6 1_555 1_555
H14 C12 1_555 1_555
H15 C12 1_555 1_555
H16 C12 1_555 1_555
C13 H17 1_555 1_555
H18 C13 1_555 1_555
C14 C13 1_555 1_555
H19 C14 1_555 1_555
H20 C14 1_555 1_555
H21 C14 1_555 1_555
C15 H22 1_555 1_555
H23 C15 1_555 1_555
C16 C15 1_555 1_555
H24 C16 1_555 1_555
H25 C16 1_555 1_555
H26 C16 1_555 1_555
C17 H27 1_555 1_555
H28 C17 1_555 1_555
C18 C17 1_555 1_555
H29 C18 1_555 1_555
H30 C18 1_555 1_555
H31 C18 1_555 1_555
C19 H32 1_555 1_555
H33 C19 1_555 1_555
H34 C19 1_555 1_555
C20 C19 1_555 1_555
H35 C20 1_555 1_555
H36 C20 1_555 1_555
N1 O7 1_555 1_555
N2 O9 1_555 1_555
O1 P1 1_555 1_555
O2 C13 1_555 1_555
O3 C15 1_555 1_555
O4 P2 1_555 1_555
O5 C17 1_555 1_555
O6 C20 1_555 1_555
O7 Ce1 1_555 1_555
O8 N1 1_555 1_555
O9 Ce1 1_555 1_555
O10 N2 1_555 1_555
O11 Ce1 1_555 1_555
P1 C7 1_555 1_555
P2 C10 1_555 1_555
Ce1D O4A 1_555 1_555
Ce1D_2 O4 1_555 1_555
C1A C2A 1_555 1_555
C2A C3A 1_555 1_555
C3A C4A 1_555 1_555
C4A C5A 1_555 1_555
C5A C6A 1_555 1_555
C6A C1A 1_555 1_555
C7A C1A 1_555 1_555
H1A C7A 1_555 1_555
H2A C7A 1_555 1_555
C8A C2A 1_555 1_555
H3A C8A 1_555 1_555
H4A C8A 1_555 1_555
H5A C8A 1_555 1_555
C9A C3A 1_555 1_555
H6A C9A 1_555 1_555
H7A C9A 1_555 1_555
H8A C9A 1_555 1_555
C10A C4A 1_555 1_555
H9A C10A 1_555 1_555
H10A C10A 1_555 1_555
C11A C5A 1_555 1_555
H11A C11A 1_555 1_555
H12A C11A 1_555 1_555
H13A C11A 1_555 1_555
C12A C6A 1_555 1_555
H14A C12A 1_555 1_555
H15A C12A 1_555 1_555
H16A C12A 1_555 1_555
C13A H17A 1_555 1_555
H18A C13A 1_555 1_555
C14A C13A 1_555 1_555
H19A C14A 1_555 1_555
H20A C14A 1_555 1_555
H21A C14A 1_555 1_555
C15A H22A 1_555 1_555
H23A C15A 1_555 1_555
C16A C15A 1_555 1_555
H24A C16A 1_555 1_555
H25A C16A 1_555 1_555
H26A C16A 1_555 1_555
C17A H27A 1_555 1_555
H28A C17A 1_555 1_555
C18A C17A 1_555 1_555
H29A C18A 1_555 1_555
H30A C18A 1_555 1_555
H31A C18A 1_555 1_555
C19A H32A 1_555 1_555
H33A C19A 1_555 1_555
H34A C19A 1_555 1_555
C20A C19A 1_555 1_555
H35A C20A 1_555 1_555
H36A C20A 1_555 1_555
N1A O7A 1_555 1_555
O1A Ce1 1_555 1_555
O2A C13A 1_555 1_555
O3A C15A 1_555 1_555
O4A P2A 1_555 1_555
O4D Ce1 1_555 1_555
O4E Ce1 1_555 1_555
O5A C17A 1_555 1_555
O6A C20A 1_555 1_555
O7A Ce1 1_555 1_555
O8A N1A 1_555 1_555
O9A Ce1 1_555 1_555
O11A Ce1 1_555 1_555
P1A C7A 1_555 1_555
P2A C10A 1_555 1_555
N1 O11 1_555 1_555
N2 O9A 1_555 1_555
O2 P1 1_555 1_555
O3 P1 1_555 1_555
O5 P2 1_555 1_555
O6 P2 1_555 1_555
N1A O11A 1_555 1_555
O1A P1A 1_555 1_555
O2A P1A 1_555 1_555
O3A P1A 1_555 1_555
O5A P2A 1_555 1_555
O6A P2A 1_555 1_555

#END
