
#######################################################################
#
#                 Cambridge Crystallographic Data Centre
#                                CCDC 
#
#######################################################################
#
# If this CIF has been generated from an entry in the Cambridge 
# Structural Database, then it will include bibliographic, chemical, 
# crystal, experimental, refinement or atomic coordinate data resulting 
# from the CCDC's data processing and validation procedures.
#
#######################################################################

data_AREREV
_symmetry_cell_setting           triclinic
_symmetry_space_group_name_H-M   'P -1'
_symmetry_Int_Tables_number      2
_space_group_name_Hall           '-P 1'
loop_
_symmetry_equiv_pos_site_id
_symmetry_equiv_pos_as_xyz
1 x,y,z
2 -x,-y,-z
_cell_length_a                   10.3803(10)
_cell_length_b                   10.8448(10)
_cell_length_c                   24.194(2)
_cell_angle_alpha                93.937(4)
_cell_angle_beta                 93.343(4)
_cell_angle_gamma                113.073(5)
_cell_volume                     2488.99
loop_
_atom_site_label
_atom_site_type_symbol
_atom_site_fract_x
_atom_site_fract_y
_atom_site_fract_z
C31 C 0.781(3) 0.175(2) 0.0005(13)
H55 H 0.8260 0.1421 -0.0266
H56 H 0.7044 0.1909 -0.0178
H57 H 0.7448 0.1104 0.0267
C32 C 0.886(3) 0.309(3) 0.0321(8)
H58 H 0.9308 0.3486 -0.0002
H59 H 0.8209 0.3510 0.0385
O19 O 0.999(2) 0.396(3) 0.0763(10)
H60 H 0.9868 0.3632 0.1060
Sm1 Sm 0.09603(3) 0.32572(3) 0.732970(11)
C1 C 0.0401(7) 0.1724(5) 0.3743(2)
C2 C 0.1579(7) 0.2404(6) 0.4133(3)
C3 C 0.1418(6) 0.2361(6) 0.4704(2)
C4 C 0.0094(6) 0.1659(5) 0.4883(2)
C5 C -0.1072(6) 0.0988(5) 0.4499(2)
C6 C -0.0918(6) 0.1012(5) 0.3923(2)
C7 C -0.2172(7) 0.0323(8) 0.3502(3)
H1 H -0.2344 0.0986 0.3302
H2 H -0.2982 -0.0162 0.3690
H3 H -0.1988 -0.0292 0.3246
C8 C 0.0565(8) 0.1785(7) 0.3121(2)
H4 H 0.1291 0.2653 0.3070
H5 H -0.0308 0.1746 0.2938
C9 C 0.3004(8) 0.3203(8) 0.3947(4)
H6 H 0.3420 0.4059 0.4166
H7 H 0.2905 0.3341 0.3562
H8 H 0.3596 0.2717 0.3994
C10 C 0.2710(7) 0.3128(7) 0.5110(3)
H9 H 0.2479 0.2943 0.5483
H10 H 0.3015 0.4076 0.5081
H11 H 0.3451 0.2847 0.5024
C11 C -0.0075(7) 0.1621(6) 0.5506(2)
H12 H 0.0773 0.1605 0.5690
H13 H -0.0845 0.0782 0.5559
C12 C -0.2492(7) 0.0242(7) 0.4690(3)
H14 H -0.2386 -0.0006 0.5058
H15 H -0.2994 -0.0555 0.4441
H16 H -0.3007 0.0809 0.4695
C13 C -0.2836(16) 0.3278(18) 0.5946(6)
H17 H -0.3280 0.3732 0.5720
H18 H -0.2374 0.3830 0.6290
C14 C -0.382(2) 0.184(2) 0.6034(11)
H19 H -0.4754 0.1656 0.5873
H20 H -0.3833 0.1774 0.6427
H21 H -0.3490 0.1208 0.5866
C15 C 0.0884(10) 0.5624(5) 0.5824(3)
H22 H 0.0709 0.5658 0.6213
H23 H 0.0298 0.5980 0.5618
C16 C 0.2441(9) 0.6427(8) 0.5755(4)
H24 H 0.3007 0.6113 0.5987
H25 H 0.2681 0.7365 0.5861
H26 H 0.2611 0.6306 0.5373
C17 C -0.0004(8) 0.0479(10) 0.1738(3)
H27 H -0.0441 0.1123 0.1756
H28 H -0.0706 -0.0411 0.1777
C18 C 0.0690(13) 0.0497(13) 0.1194(3)
H29 H 0.1554 0.1282 0.1215
H30 H 0.0068 0.0519 0.0888
H31 H 0.0882 -0.0297 0.1137
C19 C 0.3513(11) 0.065(2) 0.2624(6)
H32 H 0.3396 0.0978 0.2270
H33 H 0.3402 -0.0284 0.2560
C20 C 0.4922(14) 0.1517(19) 0.2941(8)
H34 H 0.4931 0.2383 0.3060
H35 H 0.5660 0.1626 0.2703
H36 H 0.5065 0.1091 0.3260
C21 C 0.4143(18) -0.0053(14) 0.8648(6)
H37 H 0.4904 0.0368 0.8934
H38 H 0.4314 -0.0726 0.8422
H39 H 0.3279 -0.0467 0.8816
C22 C 0.4034(14) 0.1009(11) 0.8285(4)
H40 H 0.4906 0.1436 0.8116
H41 H 0.3280 0.0588 0.7990
C23 C 0.7044(16) 0.5521(14) 0.7782(7)
H42 H 0.6724 0.6237 0.7832
H43 H 0.7397 0.5525 0.7424
H44 H 0.7779 0.5647 0.8067
C24 C 0.5825(11) 0.4178(14) 0.7818(3)
H45 H 0.5136 0.3975 0.7500
H46 H 0.6160 0.3460 0.7822
C25 C 0.3104(8) 0.4081(9) 0.8979(3)
H47 H 0.2971 0.4857 0.8853
H48 H 0.2196 0.3447 0.9066
C26 C 0.2797(11) 0.2280(9) 0.9866(4)
H49 H 0.2121 0.2196 0.9562
H50 H 0.2341 0.2126 1.0204
H51 H 0.3196 0.1628 0.9797
C27 C 0.3964(8) 0.3698(7) 0.9924(3)
C28 C 0.4102(7) 0.4542(7) 0.9517(2)
C29 C 0.5135(8) 0.5870(7) 0.9587(3)
C30 C 0.5282(12) 0.6808(9) 0.9140(3)
H52 H 0.6258 0.7271 0.9086
H53 H 0.4900 0.7453 0.9251
H54 H 0.4779 0.6298 0.8798
N1 N -0.1308(7) 0.2477(7) 0.8064(3)
N2 N 0.1376(8) 0.6055(6) 0.7675(3)
N3 N 0.3367(6) 0.4061(8) 0.6662(3)
O1 O -0.0227(5) 0.3032(4) 0.64517(15)
O2 O -0.1905(6) 0.2772(7) 0.5636(2)
O3 O 0.0587(7) 0.4216(4) 0.5596(2)
O4 O -0.0023(4) -0.0864(4) 0.28317(17)
O5 O 0.1196(5) 0.0866(5) 0.21666(18)
O6 O 0.2514(5) 0.0787(6) 0.3022(2)
O7 O 0.2691(4) 0.2981(5) 0.79081(16)
O8 O 0.3748(7) 0.2040(6) 0.8641(2)
O9 O 0.5181(5) 0.4300(6) 0.8344(2)
O10 O -0.1506(5) 0.2710(6) 0.7572(2)
O11 O -0.2278(7) 0.2087(8) 0.8354(3)
O12 O -0.0086(5) 0.2637(6) 0.82286(19)
O13 O 0.0574(6) 0.5400(5) 0.7257(2)
O14 O 0.1884(7) 0.5413(5) 0.7959(2)
O15 O 0.1587(8) 0.7222(6) 0.7801(3)
O16 O 0.3056(6) 0.4890(6) 0.6951(2)
O17 O 0.4381(6) 0.4409(7) 0.6405(3)
O18 O 0.2566(5) 0.2858(5) 0.66516(18)
P1 P 0.09921(18) 0.05134(17) 0.27786(7)
P2 P -0.03981(19) 0.29664(17) 0.58443(6)
P3 P 0.36593(18) 0.33171(19) 0.84213(6)
C29A C 0.4865(8) 0.4130(7) 1.0413(3)
C28A C 0.5898(7) 0.5458(7) 1.0483(2)
C25A C 0.6896(8) 0.5919(9) 1.1021(3)
H47A H 0.7029 0.5143 1.1147
H48A H 0.7804 0.6553 1.0934
P3A P 0.63407(18) 0.66829(19) 1.15787(6)
O7A O 0.7309(4) 0.7019(5) 1.20919(16)
O8A O 0.6252(7) 0.7960(6) 1.1359(2)
C22A C 0.5966(14) 0.8991(11) 1.1715(4)
C21A C 0.5857(18) 1.0053(14) 1.1352(6)
H37A H 0.5096 0.9632 1.1066
H38A H 0.5686 1.0726 1.1578
H39A H 0.6721 1.0467 1.1184
H40A H 0.5094 0.8564 1.1884
H41A H 0.6720 0.9412 1.2010
O9A O 0.4819(5) 0.5700(6) 1.1656(2)
C24A C 0.4175(11) 0.5822(14) 1.2182(3)
C23A C 0.2956(16) 0.4479(14) 1.2218(7)
H42A H 0.3276 0.3763 1.2168
H43A H 0.2603 0.4475 1.2576
H44A H 0.2221 0.4353 1.1933
H45A H 0.4864 0.6025 1.2500
H46A H 0.3840 0.6540 1.2178
C27A C 0.6036(8) 0.6302(7) 1.0076(3)
C26A C 0.7203(11) 0.7720(9) 1.0134(4)
H49A H 0.7879 0.7804 1.0438
H50A H 0.7659 0.7874 0.9796
H51A H 0.6804 0.8372 1.0203
C30A C 0.4718(12) 0.3192(9) 1.0860(3)
H52A H 0.3742 0.2729 1.0914
H53A H 0.5100 0.2547 1.0749
H54A H 0.5221 0.3702 1.1202
C1A C -0.0401(7) -0.1724(5) 0.6257(2)
C2A C -0.1579(7) -0.2404(6) 0.5867(3)
C3A C -0.1418(6) -0.2361(6) 0.5296(2)
C4A C -0.0094(6) -0.1659(5) 0.5117(2)
C5A C 0.1072(6) -0.0988(5) 0.5501(2)
C6A C 0.0918(6) -0.1012(5) 0.6077(2)
C7A C 0.2172(7) -0.0323(8) 0.6498(3)
H1A H 0.2344 -0.0986 0.6698
H2A H 0.2982 0.0162 0.6310
H3A H 0.1988 0.0292 0.6754
C8A C -0.0565(8) -0.1785(7) 0.6879(2)
H4A H -0.1291 -0.2653 0.6930
H5A H 0.0308 -0.1746 0.7062
C9A C -0.3004(8) -0.3203(8) 0.6053(4)
H6A H -0.3420 -0.4059 0.5834
H7A H -0.2905 -0.3341 0.6438
H8A H -0.3596 -0.2717 0.6006
C10A C -0.2710(7) -0.3128(7) 0.4890(3)
H9A H -0.2479 -0.2943 0.4517
H10A H -0.3015 -0.4076 0.4919
H11A H -0.3451 -0.2847 0.4976
C11A C 0.0075(7) -0.1621(6) 0.4494(2)
H12A H -0.0773 -0.1605 0.4310
H13A H 0.0845 -0.0782 0.4441
C12A C 0.2492(7) -0.0242(7) 0.5310(3)
H14A H 0.2386 0.0006 0.4942
H15A H 0.2994 0.0555 0.5559
H16A H 0.3007 -0.0809 0.5305
C13A C 0.2836(16) -0.3278(18) 0.4054(6)
H17A H 0.3280 -0.3732 0.4280
H18A H 0.2374 -0.3830 0.3710
C14A C 0.382(2) -0.184(2) 0.3966(11)
H19A H 0.4754 -0.1656 0.4127
H20A H 0.3833 -0.1774 0.3573
H21A H 0.3490 -0.1208 0.4134
C15A C -0.0884(10) -0.5624(5) 0.4176(3)
H22A H -0.0709 -0.5658 0.3787
H23A H -0.0298 -0.5980 0.4382
C16A C -0.2441(9) -0.6427(8) 0.4245(4)
H24A H -0.3007 -0.6113 0.4013
H25A H -0.2681 -0.7365 0.4139
H26A H -0.2611 -0.6306 0.4627
C17A C 0.0004(8) -0.0479(10) 0.8262(3)
H27A H 0.0441 -0.1123 0.8244
H28A H 0.0706 0.0411 0.8223
C18A C -0.0690(13) -0.0497(13) 0.8806(3)
H29A H -0.1554 -0.1282 0.8785
H30A H -0.0068 -0.0519 0.9112
H31A H -0.0882 0.0297 0.8863
C19A C -0.3513(11) -0.065(2) 0.7376(6)
H32A H -0.3396 -0.0978 0.7730
H33A H -0.3402 0.0284 0.7440
C20A C -0.4922(14) -0.1517(19) 0.7059(8)
H34A H -0.4931 -0.2383 0.6940
H35A H -0.5660 -0.1626 0.7297
H36A H -0.5065 -0.1091 0.6740
O1A O 0.0227(5) -0.3032(4) 0.35483(15)
O2A O 0.1905(6) -0.2772(7) 0.4364(2)
O3A O -0.0587(7) -0.4216(4) 0.4404(2)
O4A O 0.0023(4) 0.0864(4) 0.71683(17)
O5A O -0.1196(5) -0.0866(5) 0.78334(18)
O6A O -0.2514(5) -0.0787(6) 0.6978(2)
P1A P -0.09921(18) -0.05134(17) 0.72214(7)
P2A P 0.03981(19) -0.29664(17) 0.41557(6)
Sm1A Sm -0.09603(3) -0.32572(3) 0.267030(11)
N1A N 0.1308(7) -0.2477(7) 0.1936(3)
O10A O 0.1506(5) -0.2710(6) 0.2428(2)
O11A O 0.2278(7) -0.2087(8) 0.1646(3)
O12A O 0.0086(5) -0.2637(6) 0.17714(19)
N2A N -0.1376(8) -0.6055(6) 0.2325(3)
O13A O -0.0574(6) -0.5400(5) 0.2743(2)
O14A O -0.1884(7) -0.5413(5) 0.2041(2)
O15A O -0.1587(8) -0.7222(6) 0.2199(3)
N3A N -0.3367(6) -0.4061(8) 0.3338(3)
O16A O -0.3056(6) -0.4890(6) 0.3049(2)
O17A O -0.4381(6) -0.4409(7) 0.3595(3)
O18A O -0.2566(5) -0.2858(5) 0.33484(18)
Sm1A_2 Sm 0.90397(3) 0.67428(3) 1.267030(11)
O7A_2 O -0.2691(4) -0.2981(5) 0.20919(16)
loop_
_geom_bond_atom_site_label_1
_geom_bond_atom_site_label_2
_geom_bond_site_symmetry_1
_geom_bond_site_symmetry_2
Sm1 O1 1_555 1_555
C1 C2 1_555 1_555
C2 C3 1_555 1_555
C3 C4 1_555 1_555
C4 C5 1_555 1_555
C5 C6 1_555 1_555
C6 C1 1_555 1_555
C7 C6 1_555 1_555
H1 C7 1_555 1_555
H2 C7 1_555 1_555
H3 C7 1_555 1_555
C8 C1 1_555 1_555
H4 C8 1_555 1_555
H5 C8 1_555 1_555
C9 C2 1_555 1_555
H6 C9 1_555 1_555
H7 C9 1_555 1_555
H8 C9 1_555 1_555
C10 C3 1_555 1_555
H9 C10 1_555 1_555
H10 C10 1_555 1_555
H11 C10 1_555 1_555
C11 C4 1_555 1_555
H12 C11 1_555 1_555
H13 C11 1_555 1_555
C12 C5 1_555 1_555
H14 C12 1_555 1_555
H15 C12 1_555 1_555
H16 C12 1_555 1_555
C13 H17 1_555 1_555
H18 C13 1_555 1_555
C14 C13 1_555 1_555
H19 C14 1_555 1_555
H20 C14 1_555 1_555
H21 C14 1_555 1_555
C15 H22 1_555 1_555
H23 C15 1_555 1_555
C16 C15 1_555 1_555
H24 C16 1_555 1_555
H25 C16 1_555 1_555
H26 C16 1_555 1_555
C17 H27 1_555 1_555
H28 C17 1_555 1_555
C18 C17 1_555 1_555
H29 C18 1_555 1_555
H30 C18 1_555 1_555
H31 C18 1_555 1_555
C19 H32 1_555 1_555
H33 C19 1_555 1_555
C20 C19 1_555 1_555
H34 C20 1_555 1_555
H35 C20 1_555 1_555
H36 C20 1_555 1_555
C21 H37 1_555 1_555
H38 C21 1_555 1_555
H39 C21 1_555 1_555
C22 C21 1_555 1_555
H40 C22 1_555 1_555
H41 C22 1_555 1_555
C23 H42 1_555 1_555
H43 C23 1_555 1_555
H44 C23 1_555 1_555
C24 C23 1_555 1_555
H45 C24 1_555 1_555
H46 C24 1_555 1_555
C25 H47 1_555 1_555
H48 C25 1_555 1_555
C26 H49 1_555 1_555
H50 C26 1_555 1_555
H51 C26 1_555 1_555
C27 C26 1_555 1_555
C28 C25 1_555 1_555
C29 C28 1_555 1_555
C30 C29 1_555 1_555
H52 C30 1_555 1_555
H53 C30 1_555 1_555
H54 C30 1_555 1_555
C31 H55 1_555 1_555
H56 C31 1_555 1_555
H57 C31 1_555 1_555
C32 C31 1_555 1_555
H58 C32 1_555 1_555
H59 C32 1_555 1_555
N1 O10 1_555 1_555
N2 O13 1_555 1_555
N3 O16 1_555 1_555
O1 P2 1_555 1_555
O2 C13 1_555 1_555
O3 C15 1_555 1_555
O4 P1 1_555 1_555
O5 C17 1_555 1_555
O6 C19 1_555 1_555
O7 Sm1 1_555 1_555
O8 C22 1_555 1_555
O9 C24 1_555 1_555
O10 Sm1 1_555 1_555
O11 N1 1_555 1_555
O12 Sm1 1_555 1_555
O13 Sm1 1_555 1_555
O14 Sm1 1_555 1_555
O15 N2 1_555 1_555
O16 Sm1 1_555 1_555
O17 N3 1_555 1_555
O18 Sm1 1_555 1_555
O19 C32 1_555 1_555
H60 O19 1_555 1_555
P1 C8 1_555 1_555
P2 C11 1_555 1_555
P3 C25 1_555 1_555
C29A C27 1_555 1_555
C28A C29A 1_555 1_555
C25A C28A 1_555 1_555
H47A C25A 1_555 1_555
H48A C25A 1_555 1_555
P3A C25A 1_555 1_555
O7A P3A 1_555 1_555
O8A P3A 1_555 1_555
C22A O8A 1_555 1_555
C21A C22A 1_555 1_555
H37A C21A 1_555 1_555
H38A C21A 1_555 1_555
H39A C21A 1_555 1_555
H40A C22A 1_555 1_555
H41A C22A 1_555 1_555
O9A P3A 1_555 1_555
C24A O9A 1_555 1_555
C23A C24A 1_555 1_555
H42A C23A 1_555 1_555
H43A C23A 1_555 1_555
H44A C23A 1_555 1_555
H45A C24A 1_555 1_555
H46A C24A 1_555 1_555
C27A C29 1_555 1_555
C26A C27A 1_555 1_555
H49A C26A 1_555 1_555
H50A C26A 1_555 1_555
H51A C26A 1_555 1_555
C30A C29A 1_555 1_555
H52A C30A 1_555 1_555
H53A C30A 1_555 1_555
H54A C30A 1_555 1_555
C1A C2A 1_555 1_555
C2A C3A 1_555 1_555
C3A C4A 1_555 1_555
C4A C5A 1_555 1_555
C5A C6A 1_555 1_555
C6A C1A 1_555 1_555
C7A C6A 1_555 1_555
H1A C7A 1_555 1_555
H2A C7A 1_555 1_555
H3A C7A 1_555 1_555
C8A C1A 1_555 1_555
H4A C8A 1_555 1_555
H5A C8A 1_555 1_555
C9A C2A 1_555 1_555
H6A C9A 1_555 1_555
H7A C9A 1_555 1_555
H8A C9A 1_555 1_555
C10A C3A 1_555 1_555
H9A C10A 1_555 1_555
H10A C10A 1_555 1_555
H11A C10A 1_555 1_555
C11A C4A 1_555 1_555
H12A C11A 1_555 1_555
H13A C11A 1_555 1_555
C12A C5A 1_555 1_555
H14A C12A 1_555 1_555
H15A C12A 1_555 1_555
H16A C12A 1_555 1_555
C13A H17A 1_555 1_555
H18A C13A 1_555 1_555
C14A C13A 1_555 1_555
H19A C14A 1_555 1_555
H20A C14A 1_555 1_555
H21A C14A 1_555 1_555
C15A H22A 1_555 1_555
H23A C15A 1_555 1_555
C16A C15A 1_555 1_555
H24A C16A 1_555 1_555
H25A C16A 1_555 1_555
H26A C16A 1_555 1_555
C17A H27A 1_555 1_555
H28A C17A 1_555 1_555
C18A C17A 1_555 1_555
H29A C18A 1_555 1_555
H30A C18A 1_555 1_555
H31A C18A 1_555 1_555
C19A H32A 1_555 1_555
H33A C19A 1_555 1_555
C20A C19A 1_555 1_555
H34A C20A 1_555 1_555
H35A C20A 1_555 1_555
H36A C20A 1_555 1_555
O1A P2A 1_555 1_555
O2A C13A 1_555 1_555
O3A C15A 1_555 1_555
O4A Sm1 1_555 1_555
O5A C17A 1_555 1_555
O6A C19A 1_555 1_555
P1A C8A 1_555 1_555
P2A C11A 1_555 1_555
Sm1A O4 1_555 1_555
N1A O10A 1_555 1_555
O10A Sm1A 1_555 1_555
O11A N1A 1_555 1_555
O12A Sm1A 1_555 1_555
N2A O13A 1_555 1_555
O13A Sm1A 1_555 1_555
O14A Sm1A 1_555 1_555
O15A N2A 1_555 1_555
N3A O16A 1_555 1_555
O16A Sm1A 1_555 1_555
O17A N3A 1_555 1_555
O18A Sm1A 1_555 1_555
Sm1A_2 O7A 1_555 1_555
O7A_2 Sm1A 1_555 1_555
C27 C28 1_555 1_555
N1 O12 1_555 1_555
N2 O14 1_555 1_555
N3 O18 1_555 1_555
O2 P2 1_555 1_555
O3 P2 1_555 1_555
O5 P1 1_555 1_555
O6 P1 1_555 1_555
O7 P3 1_555 1_555
O8 P3 1_555 1_555
O9 P3 1_555 1_555
C28A C27A 1_555 1_555
O1A Sm1A 1_555 1_555
O2A P2A 1_555 1_555
O3A P2A 1_555 1_555
O4A P1A 1_555 1_555
O5A P1A 1_555 1_555
O6A P1A 1_555 1_555
N1A O12A 1_555 1_555
N2A O14A 1_555 1_555
N3A O18A 1_555 1_555

#END
