
#######################################################################
#
#                 Cambridge Crystallographic Data Centre
#                                CCDC 
#
#######################################################################
#
# If this CIF has been generated from an entry in the Cambridge 
# Structural Database, then it will include bibliographic, chemical, 
# crystal, experimental, refinement or atomic coordinate data resulting 
# from the CCDC's data processing and validation procedures.
#
#######################################################################

data_ARESOF
_symmetry_cell_setting           triclinic
_symmetry_space_group_name_H-M   'P -1'
_symmetry_Int_Tables_number      2
_space_group_name_Hall           '-P 1'
loop_
_symmetry_equiv_pos_site_id
_symmetry_equiv_pos_as_xyz
1 x,y,z
2 -x,-y,-z
_cell_length_a                   13.1686(11)
_cell_length_b                   16.7358(13)
_cell_length_c                   17.3144(14)
_cell_angle_alpha                113.416(3)
_cell_angle_beta                 100.613(3)
_cell_angle_gamma                93.647(3)
_cell_volume                     3401.89
loop_
_atom_site_label
_atom_site_type_symbol
_atom_site_fract_x
_atom_site_fract_y
_atom_site_fract_z
Cd1 Cd 0.50138(3) 0.47129(2) 0.33963(2)
Cd2 Cd 0.66003(3) 1.30967(2) 0.38001(2)
Cd3 Cd 0.36817(3) 0.66679(2) 0.39629(2)
Cd4 Cd 0.84026(3) 1.21939(3) 0.49947(3)
O1 O 0.6694(4) 1.1734(2) 0.2862(3)
O2 O 0.7174(4) 1.1196(3) 0.3832(3)
O3 O 0.7259(3) 0.9554(3) 0.3364(3)
H1 H 0.7382 1.0068 0.3773
O4 O 0.5984(3) 0.5871(3) 0.3325(3)
O5 O 0.4868(3) 0.6784(3) 0.3180(3)
O6 O 0.5354(3) 0.7911(3) 0.2604(3)
H2 H 0.4915 0.7712 0.2812
O7 O 0.3892(4) 0.3591(3) 0.3428(3)
O8 O 0.4903(4) 0.2566(3) 0.3373(4)
O9 O 0.4142(3) 0.1017(2) 0.3061(3)
H3 H 0.4686 0.1389 0.3192
O10 O 0.2369(4) -0.2594(3) 0.3552(3)
O11 O 0.1824(5) -0.1361(3) 0.4279(3)
O12 O 0.1937(4) -0.0067(3) 0.3845(3)
H4 H 0.1825 -0.0253 0.4217
O13 O 0.5907(3) 0.3868(3) 0.2457(2)
O14 O 0.7423(3) 0.3655(3) 0.3101(3)
O15 O 0.9003(3) 0.3580(3) 0.2472(3)
H5 H 0.8742 0.3546 0.2874
O16 O 1.3688(3) 0.4640(3) 0.2362(3)
O17 O 1.2585(3) 0.5513(3) 0.2947(3)
O18 O 1.0628(3) 0.5111(2) 0.2258(3)
H6 H 1.1131 0.5515 0.2594
O19 O 0.7394(3) 1.3242(2) 0.5079(2)
H7 H 0.7807 1.3728 0.5304
O20 O 0.4598(3) 0.5832(2) 0.4511(2)
H8 H 0.5155 0.6143 0.4869
O21 O 0.6180(3) 0.4525(3) 0.4464(2)
H9 H 0.5903 0.4572 0.4883
H10 H 0.6726 0.4910 0.4655
O22 O 0.4516(5) 0.8050(3) 0.4937(4)
H11 H 0.5158 0.8061 0.4922
H12 H 0.4476 0.8090 0.5435
O23 O 0.9093(5) 1.2759(4) 0.4099(4)
H13 H 0.8582 1.2869 0.3798
H14 H 0.9397 1.2375 0.3770
O24 O 0.9880(6) 1.3023(7) 0.5988(5)
H15 H 0.9839 1.3520 0.5969
H16 H 1.0355 1.2824 0.5724
O25 O 0.9583(7) 1.1165(6) 0.4496(6)
H17 H 0.9744 1.1211 0.4062
H18 H 0.9248 1.0650 0.4318
C1 C 0.6696(4) 0.8616(3) 0.1889(3)
C2 C 0.6874(4) 0.9447(3) 0.2536(3)
C3 C 0.6688(4) 1.0199(3) 0.2353(3)
C4 C 0.6344(4) 1.0062(3) 0.1505(3)
H19 H 0.6215 1.0560 0.1380
C5 C 0.5794(4) 0.9068(4) -0.0069(4)
H20 H 0.5699 0.9564 -0.0207
C6 C 0.5576(5) 0.8234(4) -0.0714(4)
H21 H 0.5311 0.8142 -0.1302
C7 C 0.5720(5) 0.7512(4) -0.0508(4)
H22 H 0.5561 0.6927 -0.0961
C8 C 0.6087(4) 0.7624(3) 0.0316(4)
H23 H 0.6202 0.7120 0.0436
C9 C 0.6316(4) 0.8482(3) 0.1013(3)
C10 C 0.6159(4) 0.9216(3) 0.0823(3)
C11 C 0.6908(4) 0.7861(3) 0.2114(3)
C12 C 0.6238(4) 0.7530(3) 0.2467(3)
C13 C 0.6432(4) 0.6811(3) 0.2691(3)
C14 C 0.7327(4) 0.6458(3) 0.2548(3)
H24 H 0.7459 0.5970 0.2691
C15 C 0.8970(5) 0.6405(4) 0.2059(4)
H25 H 0.9081 0.5899 0.2177
C16 C 0.9691(5) 0.6756(4) 0.1755(4)
H26 H 1.0320 0.6505 0.1677
C17 C 0.9516(5) 0.7474(5) 0.1561(5)
H27 H 1.0035 0.7731 0.1369
C18 C 0.8594(5) 0.7828(4) 0.1651(4)
H28 H 0.8457 0.8301 0.1486
C19 C 0.7852(4) 0.7491(3) 0.1979(3)
C20 C 0.8046(4) 0.6775(3) 0.2196(3)
C21 C 0.6874(4) 1.1110(3) 0.3062(4)
C22 C 0.5713(4) 0.6459(3) 0.3091(4)
C23 C 0.2324(4) 0.0634(3) 0.2702(3)
C24 C 0.3189(4) 0.1257(3) 0.2930(4)
C25 C 0.3086(4) 0.2143(3) 0.3024(4)
C26 C 0.2106(5) 0.2339(3) 0.2844(4)
H29 H 0.2033 0.2922 0.2888
C27 C 0.0186(5) 0.1928(4) 0.2398(4)
H30 H 0.0116 0.2507 0.2430
C28 C -0.0681(5) 0.1334(5) 0.2178(4)
H31 H -0.1358 0.1489 0.2037
C29 C -0.0592(5) 0.0487(4) 0.2139(4)
H32 H -0.1211 0.0071 0.1987
C30 C 0.0369(4) 0.0249(4) 0.2309(4)
H33 H 0.0423 -0.0330 0.2285
C31 C 0.1302(4) 0.0860(3) 0.2542(3)
C32 C 0.1182(4) 0.1720(4) 0.2591(4)
C33 C 0.2471(4) -0.0291(3) 0.2560(4)
C34 C 0.2273(4) -0.0610(3) 0.3140(4)
C35 C 0.2406(5) -0.1488(3) 0.3019(4)
C36 C 0.2739(4) -0.2014(3) 0.2307(4)
H34 H 0.2828 -0.2605 0.2225
C37 C 0.3313(5) -0.2262(4) 0.0971(4)
H35 H 0.3419 -0.2848 0.0897
C38 C 0.3491(5) -0.1983(4) 0.0377(5)
H36 H 0.3732 -0.2366 -0.0112
C39 C 0.3353(5) -0.1112(4) 0.0488(4)
H37 H 0.3479 -0.0918 0.0057
C40 C 0.3042(4) -0.0553(4) 0.1190(4)
H38 H 0.2960 0.0036 0.1263
C41 C 0.2825(4) -0.0843(3) 0.1828(4)
C42 C 0.2953(4) -0.1727(3) 0.1693(4)
C43 C 0.4027(5) 0.2822(3) 0.3295(4)
C44 C 0.2196(5) -0.1837(4) 0.3652(4)
C45 C 0.8905(4) 0.3864(3) 0.1239(3)
C46 C 0.8436(4) 0.3800(3) 0.1868(3)
C47 C 0.7383(4) 0.3962(3) 0.1880(3)
C48 C 0.6866(4) 0.4249(3) 0.1302(3)
H39 H 0.6163 0.4363 0.1317
C49 C 0.6809(5) 0.4701(4) 0.0114(4)
H40 H 0.6114 0.4833 0.0138
C50 C 0.7273(6) 0.4811(5) -0.0492(5)
H41 H 0.6935 0.5062 -0.0864
C51 C 0.8271(6) 0.4582(5) -0.0548(4)
H42 H 0.8578 0.4630 -0.0992
C52 C 0.8805(4) 0.4269(4) 0.0002(4)
H43 H 0.9494 0.4131 -0.0041
C53 C 0.8361(4) 0.4158(3) 0.0638(3)
C54 C 0.7325(4) 0.4372(3) 0.0688(3)
C55 C 1.0000(4) 0.3659(3) 0.1250(3)
C56 C 1.0827(4) 0.4293(3) 0.1775(3)
C57 C 1.1874(4) 0.4110(3) 0.1824(3)
C58 C 1.2050(4) 0.3279(3) 0.1361(3)
H44 H 1.2756 0.3160 0.1395
C59 C 1.1423(5) 0.1718(4) 0.0414(4)
H45 H 1.2131 0.1603 0.0450
C60 C 1.0608(5) 0.1042(4) -0.0057(4)
H46 H 1.0738 0.0447 -0.0334
C61 C 0.9579(5) 0.1222(4) -0.0133(4)
H47 H 0.9015 0.0744 -0.0460
C62 C 0.9364(4) 0.2065(4) 0.0253(4)
H48 H 0.8652 0.2170 0.0177
C63 C 1.0183(4) 0.2777(3) 0.0771(3)
C64 C 1.1229(4) 0.2588(3) 0.0840(3)
C65 C 0.6848(4) 0.3818(3) 0.2512(3)
C66 C 1.2782(4) 0.4797(4) 0.2415(3)
O16_2 O 0.3688(3) 0.4640(3) 0.2362(3)
O8_2 O 0.4903(4) 1.2566(3) 0.3373(4)
O14_2 O 0.7423(3) 1.3655(3) 0.3101(3)
O21_2 O 0.6180(3) 1.4525(3) 0.4464(2)
O10_2 O 0.2369(4) 0.7406(3) 0.3552(3)
O17_2 O 0.2585(3) 0.5513(3) 0.2947(3)
O19A O 0.2606(3) 0.6758(2) 0.4921(2)
O11A O 0.8176(5) 1.1361(3) 0.5721(3)
Cd2_2 Cd 0.66003(3) 0.30967(2) 0.38001(2)
Cd3_2 Cd 0.36817(3) -0.33321(2) 0.39629(2)
Cd4A Cd 0.15974(3) -0.21939(3) 0.50053(3)
Cd1_2 Cd 1.50138(3) 0.47129(2) 0.33963(2)
Cd3_3 Cd 1.36817(3) 0.66679(2) 0.39629(2)
Cd3A Cd 0.63183(3) 1.33321(2) 0.60371(2)
H9_2 H 0.5903 1.4572 0.4883
H10_2 H 0.6726 1.4910 0.4655
H7A H 0.2193 0.6272 0.4696
O26 O 0.4972(4) 0.9709(4) 0.3591(4)
H49 H 0.4647 0.9985 0.3329
H50 H 0.5254 0.9297 0.3274
O27 O 0.7697(18) 0.5753(13) 0.5580(14)
H51 H 0.7454 0.6011 0.6023
H52 H 0.8289 0.5603 0.5705
O28 O 1.0737(9) 0.5218(7) 0.4022(6)
H53 H 1.0514 0.4998 0.4337
H54 H 1.0758 0.4832 0.3528
O29 O 0.3430(10) 0.1342(8) 0.5280(8)
H55 H 0.2996 0.1678 0.5218
H56 H 0.3198 0.0818 0.4906
O30 O 0.9202(11) 0.9030(9) 0.4035(9)
H57 H 0.8632 0.9182 0.3859
H58 H 0.8963 0.8935 0.4419
O31 O 1.0459(14) 0.4158(11) 0.4879(12)
H59 H 1.0180 0.4622 0.4969
H60 H 1.0223 0.3686 0.4425
O32 O 1.1719(17) 0.2026(14) 0.4902(12)
H61 H 1.1147 0.1682 0.4763
H62 H 1.1926 0.2553 0.4988
O33 O 0.7680(17) 0.6398(12) 0.4773(13)
H63 H 0.8219 0.6228 0.4591
H64 H 0.7214 0.6293 0.4319
O34 O 0.4048(15) 0.9413(12) 0.4906(13)
H65 H 0.3930 0.9794 0.5367
H66 H 0.4429 0.9643 0.4679
loop_
_geom_bond_atom_site_label_1
_geom_bond_atom_site_label_2
_geom_bond_site_symmetry_1
_geom_bond_site_symmetry_2
Cd1 O4 1_555 1_555
Cd2 O1 1_555 1_555
Cd3 O5 1_555 1_555
Cd4 O2 1_555 1_555
O1 C21 1_555 1_555
O2 C21 1_555 1_555
O3 H1 1_555 1_555
O4 C22 1_555 1_555
O5 C22 1_555 1_555
O6 H2 1_555 1_555
O7 Cd1 1_555 1_555
O8 C43 1_555 1_555
O9 H3 1_555 1_555
O10 C44 1_555 1_555
O11 C44 1_555 1_555
O12 H4 1_555 1_555
O13 Cd1 1_555 1_555
O14 C65 1_555 1_555
O15 H5 1_555 1_555
O16 C66 1_555 1_555
O17 C66 1_555 1_555
O18 H6 1_555 1_555
O19 Cd2 1_555 1_555
H7 O19 1_555 1_555
O20 Cd1 1_555 1_555
H8 O20 1_555 1_555
O21 Cd1 1_555 1_555
H9 O21 1_555 1_555
H10 O21 1_555 1_555
O22 Cd3 1_555 1_555
H11 O22 1_555 1_555
H12 O22 1_555 1_555
O23 Cd4 1_555 1_555
H13 O23 1_555 1_555
H14 O23 1_555 1_555
O24 Cd4 1_555 1_555
H15 O24 1_555 1_555
H16 O24 1_555 1_555
O25 Cd4 1_555 1_555
H17 O25 1_555 1_555
H18 O25 1_555 1_555
C1 C2 1_555 1_555
C2 O3 1_555 1_555
C3 C2 1_555 1_555
C4 C3 1_555 1_555
H19 C4 1_555 1_555
C5 H20 1_555 1_555
C6 C5 1_555 1_555
H21 C6 1_555 1_555
C7 C6 1_555 1_555
H22 C7 1_555 1_555
C8 C7 1_555 1_555
H23 C8 1_555 1_555
C9 C1 1_555 1_555
C10 C4 1_555 1_555
C11 C1 1_555 1_555
C12 O6 1_555 1_555
C13 C12 1_555 1_555
C14 C13 1_555 1_555
H24 C14 1_555 1_555
C15 H25 1_555 1_555
C16 C15 1_555 1_555
H26 C16 1_555 1_555
C17 C16 1_555 1_555
H27 C17 1_555 1_555
C18 C17 1_555 1_555
H28 C18 1_555 1_555
C19 C11 1_555 1_555
C20 C14 1_555 1_555
C21 C3 1_555 1_555
C22 C13 1_555 1_555
C23 C24 1_555 1_555
C24 O9 1_555 1_555
C25 C24 1_555 1_555
C26 C25 1_555 1_555
H29 C26 1_555 1_555
C27 H30 1_555 1_555
C28 C27 1_555 1_555
H31 C28 1_555 1_555
C29 C28 1_555 1_555
H32 C29 1_555 1_555
C30 C29 1_555 1_555
H33 C30 1_555 1_555
C31 C23 1_555 1_555
C32 C26 1_555 1_555
C33 C23 1_555 1_555
C34 O12 1_555 1_555
C35 C34 1_555 1_555
C36 C35 1_555 1_555
H34 C36 1_555 1_555
C37 H35 1_555 1_555
C38 C37 1_555 1_555
H36 C38 1_555 1_555
C39 C38 1_555 1_555
H37 C39 1_555 1_555
C40 C39 1_555 1_555
H38 C40 1_555 1_555
C41 C33 1_555 1_555
C42 C36 1_555 1_555
C43 O7 1_555 1_555
C44 C35 1_555 1_555
C45 C46 1_555 1_555
C46 O15 1_555 1_555
C47 C46 1_555 1_555
C48 C47 1_555 1_555
H39 C48 1_555 1_555
C49 H40 1_555 1_555
C50 C49 1_555 1_555
H41 C50 1_555 1_555
C51 C50 1_555 1_555
H42 C51 1_555 1_555
C52 C51 1_555 1_555
H43 C52 1_555 1_555
C53 C45 1_555 1_555
C54 C48 1_555 1_555
C55 C45 1_555 1_555
C56 O18 1_555 1_555
C57 C56 1_555 1_555
C58 C57 1_555 1_555
H44 C58 1_555 1_555
C59 H45 1_555 1_555
C60 C59 1_555 1_555
H46 C60 1_555 1_555
C61 C60 1_555 1_555
H47 C61 1_555 1_555
C62 C61 1_555 1_555
H48 C62 1_555 1_555
C63 C55 1_555 1_555
C64 C58 1_555 1_555
C65 O13 1_555 1_555
C66 C57 1_555 1_555
O26 H49 1_555 1_555
H50 O26 1_555 1_555
O27 H51 1_555 1_555
H52 O27 1_555 1_555
O28 H53 1_555 1_555
H54 O28 1_555 1_555
O29 H55 1_555 1_555
H56 O29 1_555 1_555
O30 H57 1_555 1_555
H58 O30 1_555 1_555
O31 H59 1_555 1_555
H60 O31 1_555 1_555
O32 H61 1_555 1_555
H62 O32 1_555 1_555
O33 H63 1_555 1_555
H64 O33 1_555 1_555
O34 H65 1_555 1_555
H66 O34 1_555 1_555
O16_2 Cd1 1_555 1_555
O8_2 Cd2 1_555 1_555
O14_2 Cd2 1_555 1_555
O21_2 Cd2 1_555 1_555
O10_2 Cd3 1_555 1_555
O17_2 Cd3 1_555 1_555
O19A Cd3 1_555 1_555
O11A Cd4 1_555 1_555
Cd2_2 O8 1_555 1_555
Cd3_2 O10 1_555 1_555
Cd4A O11 1_555 1_555
Cd1_2 O16 1_555 1_555
Cd3_3 O17 1_555 1_555
Cd3A O19 1_555 1_555
H9_2 O21_2 1_555 1_555
H10_2 O21_2 1_555 1_555
H7A O19A 1_555 1_555
Cd3 O20 1_555 1_555
Cd4 O19 1_555 1_555
O14 Cd2_2 1_555 1_555
O21 Cd2_2 1_555 1_555
C5 C10 1_555 1_555
C8 C9 1_555 1_555
C9 C10 1_555 1_555
C11 C12 1_555 1_555
C15 C20 1_555 1_555
C18 C19 1_555 1_555
C19 C20 1_555 1_555
C25 C43 1_555 1_555
C27 C32 1_555 1_555
C30 C31 1_555 1_555
C31 C32 1_555 1_555
C33 C34 1_555 1_555
C37 C42 1_555 1_555
C40 C41 1_555 1_555
C41 C42 1_555 1_555
C47 C65 1_555 1_555
C49 C54 1_555 1_555
C52 C53 1_555 1_555
C53 C54 1_555 1_555
C55 C56 1_555 1_555
C59 C64 1_555 1_555
C62 C63 1_555 1_555
C63 C64 1_555 1_555

#END
