
#######################################################################
#
#                 Cambridge Crystallographic Data Centre
#                                CCDC 
#
#######################################################################
#
# If this CIF has been generated from an entry in the Cambridge 
# Structural Database, then it will include bibliographic, chemical, 
# crystal, experimental, refinement or atomic coordinate data resulting 
# from the CCDC's data processing and validation procedures.
#
#######################################################################

data_ARESUL
_symmetry_cell_setting           triclinic
_symmetry_space_group_name_H-M   'P -1'
_symmetry_Int_Tables_number      2
_space_group_name_Hall           '-P 1'
loop_
_symmetry_equiv_pos_site_id
_symmetry_equiv_pos_as_xyz
1 x,y,z
2 -x,-y,-z
_cell_length_a                   13.796(5)
_cell_length_b                   14.348(7)
_cell_length_c                   15.220(8)
_cell_angle_alpha                109.84(7)
_cell_angle_beta                 94.01(7)
_cell_angle_gamma                110.34(6)
_cell_volume                     2596.2
loop_
_atom_site_label
_atom_site_type_symbol
_atom_site_fract_x
_atom_site_fract_y
_atom_site_fract_z
Zn1 Zn 0.20958(5) 0.60842(6) 0.65476(5)
Zn2 Zn -0.03389(5) 0.37901(6) 0.49412(5)
O1 O 0.0687(3) 0.3240(3) 0.5319(3)
O2 O 0.2288(3) 0.4640(4) 0.5868(4)
O3 O 0.3991(3) 0.4301(3) 0.6291(4)
H1 H 0.3742 0.4641 0.6076
O4 O 0.8563(3) 0.3597(3) 0.5754(3)
O5 O 0.7310(3) 0.3403(4) 0.4585(3)
O6 O 0.5319(3) 0.2677(4) 0.4712(3)
H2 H 0.5807 0.2950 0.4481
O7 O 0.1117(4) 0.7775(3) 0.6161(3)
O8 O 0.2074(4) 0.7596(4) 0.7330(3)
O9 O 0.2709(4) 0.9059(4) 0.9039(3)
H3 H 0.2602 0.8485 0.8601
O10 O 0.6273(3) 1.3246(4) 1.2851(3)
O11 O 0.6360(4) 1.3033(6) 1.1320(4)
O12 O 0.4704(4) 1.1950(5) 0.9983(3)
H4 H 0.5335 1.2282 1.0234
O13 O 0.0495(3) 0.5465(3) 0.5940(3)
H5 H 0.0103 0.5627 0.6444
O14 O 0.1684(4) 0.5605(6) 0.7750(4)
H6 H 0.1178 0.5159 0.7844
H7 H 0.2305 0.6101 0.8170
C1 C 0.3795(4) 0.2480(5) 0.5849(4)
C2 C 0.3338(4) 0.3219(5) 0.5876(4)
C3 C 0.2211(4) 0.2853(5) 0.5511(4)
C4 C 0.1594(4) 0.1749(5) 0.5096(4)
H10 H 0.0878 0.1515 0.4841
C5 C 0.1794(6) -0.0923(6) 0.4618(5)
H11 H 0.1367 -0.1656 0.4347
C6 C 0.1378(5) -0.0174(5) 0.4638(4)
H12 H 0.0663 -0.0410 0.4380
C7 C 0.2879(6) -0.0558(6) 0.5016(6)
H13 H 0.3160 -0.1060 0.5019
C8 C 0.3539(5) 0.0533(5) 0.5403(5)
H14 H 0.4254 0.0747 0.5645
C9 C 0.3127(5) 0.1329(5) 0.5432(4)
C10 C 0.2025(4) 0.0972(5) 0.5050(4)
C11 C 0.4968(4) 0.2891(5) 0.6263(4)
C12 C 0.5691(4) 0.2961(5) 0.5678(4)
C13 C 0.6815(4) 0.3313(5) 0.6042(4)
C14 C 0.7156(5) 0.3595(5) 0.7018(4)
H15 H 0.7872 0.3809 0.7259
C15 C 0.6818(6) 0.3910(7) 0.8671(5)
H16 H 0.7533 0.4137 0.8922
C16 C 0.6123(7) 0.3905(8) 0.9274(5)
H17 H 0.6371 0.4133 0.9927
C17 C 0.5040(7) 0.3558(8) 0.8909(6)
H18 H 0.4579 0.3562 0.9326
C18 C 0.4639(6) 0.3206(6) 0.7934(5)
H19 H 0.3916 0.2964 0.7707
C19 C 0.5339(5) 0.3214(5) 0.7276(4)
C20 C 0.6463(5) 0.3569(5) 0.7650(5)
C21 C 0.1697(5) 0.3646(5) 0.5582(4)
C22 C 0.7624(5) 0.3447(5) 0.5428(4)
C23 C 0.2537(5) 1.0718(5) 0.9300(4)
C24 C 0.2384(5) 0.9705(5) 0.8681(4)
C25 C 0.1897(5) 0.9293(5) 0.7679(4)
C26 C 0.1623(5) 0.9957(5) 0.7326(4)
H20 H 0.1323 0.9695 0.6680
C27 C 0.1491(5) 1.1721(6) 0.7567(5)
H21 H 0.1195 1.1469 0.6920
C28 C 0.1639(7) 1.2756(6) 0.8161(6)
H22 H 0.1483 1.3210 0.7915
C29 C 0.2037(7) 1.3112(7) 0.9165(6)
H23 H 0.2092 1.3786 0.9578
C30 C 0.2339(6) 1.2479(6) 0.9528(5)
H24 H 0.2623 1.2750 1.0179
C31 C 0.2234(5) 1.1421(5) 0.8946(4)
C32 C 0.1784(5) 1.1029(5) 0.7922(4)
C33 C 0.3048(5) 1.1138(5) 1.0351(4)
C34 C 0.4138(5) 1.1771(6) 1.0662(4)
C35 C 0.4658(5) 1.2228(5) 1.1662(4)
C36 C 0.4055(5) 1.2017(5) 1.2330(4)
H25 H 0.4382 1.2295 1.2971
C37 C 0.2318(6) 1.1182(7) 1.2721(5)
H26 H 0.2639 1.1491 1.3367
C38 C 0.1238(6) 1.0534(9) 1.2437(6)
H27 H 0.0845 1.0400 1.2885
C39 C 0.0741(6) 1.0075(9) 1.1438(6)
H28 H 0.0025 0.9628 1.1239
C40 C 0.1312(6) 1.0289(7) 1.0780(5)
H29 H 0.0962 1.0016 1.0145
C41 C 0.2442(5) 1.0928(6) 1.1034(4)
C42 C 0.2952(5) 1.1385(6) 1.2035(4)
C43 C 0.1688(5) 0.8137(5) 0.7002(5)
C44 C 0.5845(5) 1.2900(6) 1.1974(5)
O5A O 0.2690(3) 0.6597(4) 0.5415(3)
O10A O 0.3727(3) 0.6754(4) 0.7149(3)
O4_2 O -0.1437(3) 0.3597(3) 0.5754(3)
O7A O -0.1117(4) 0.2225(3) 0.3839(3)
O13A O -0.0495(3) 0.4535(3) 0.4060(3)
Zn2_2 Zn 0.96611(5) 0.37901(6) 0.49412(5)
Zn1A Zn 0.79042(5) 0.39158(6) 0.34524(5)
Zn2A Zn 0.03389(5) 0.62099(6) 0.50588(5)
Zn1A_2 Zn 0.79042(5) 1.39158(6) 1.34524(5)
H5A H -0.0103 0.4373 0.3556
O15 O 0.0108 0.6109 0.2418
H8 H 0.0019 0.6667 0.2342
H9 H 0.0606 0.6292 0.3070
N1 N 0.8657(13) 0.6206(11) 0.6816(13)
C50 C 0.7745(16) 0.6022(13) 0.6561(15)
C51 C 0.6645(13) 0.5795(10) 0.6277(13)
H36 H 0.6576 0.6417 0.6223
H37 H 0.6275 0.5619 0.6748
H38 H 0.6350 0.5196 0.5671
N2 N 0.5282(12) 1.0359(12) 0.8552(12)
H30 H 0.4842 1.0222 0.8910
C45 C 0.4921(9) 0.9994(10) 0.7572(13)
H31 H 0.4203 0.9602 0.7303
C46 C 0.5632(15) 1.0215(12) 0.6994(7)
H32 H 0.5391 0.9971 0.6339
C47 C 0.6705(14) 1.0802(12) 0.7397(12)
H33 H 0.7182 1.0950 0.7010
C48 C 0.7067(8) 1.1167(9) 0.8377(13)
H34 H 0.7785 1.1559 0.8646
C49 C 0.6355(14) 1.0946(10) 0.8955(7)
H35 H 0.6597 1.1190 0.9610
loop_
_geom_bond_atom_site_label_1
_geom_bond_atom_site_label_2
_geom_bond_site_symmetry_1
_geom_bond_site_symmetry_2
Zn1 O2 1_555 1_555
Zn2 O1 1_555 1_555
O1 C21 1_555 1_555
O2 C21 1_555 1_555
O3 H1 1_555 1_555
O4 C22 1_555 1_555
O5 C22 1_555 1_555
O6 H2 1_555 1_555
O7 C43 1_555 1_555
O8 Zn1 1_555 1_555
O9 H3 1_555 1_555
O10 C44 1_555 1_555
O11 C44 1_555 1_555
O12 H4 1_555 1_555
O13 Zn1 1_555 1_555
H5 O13 1_555 1_555
O14 Zn1 1_555 1_555
H6 O14 1_555 1_555
H7 O14 1_555 1_555
O15 H8 1_555 1_555
H9 O15 1_555 1_555
N1 C50 1_555 1_555
C1 C2 1_555 1_555
C2 O3 1_555 1_555
C3 C2 1_555 1_555
C4 C3 1_555 1_555
H10 C4 1_555 1_555
C5 H11 1_555 1_555
C6 C5 1_555 1_555
H12 C6 1_555 1_555
C7 C5 1_555 1_555
H13 C7 1_555 1_555
C8 C7 1_555 1_555
H14 C8 1_555 1_555
C9 C1 1_555 1_555
C10 C4 1_555 1_555
C11 C1 1_555 1_555
C12 O6 1_555 1_555
C13 C12 1_555 1_555
C14 C13 1_555 1_555
H15 C14 1_555 1_555
C15 H16 1_555 1_555
C16 C15 1_555 1_555
H17 C16 1_555 1_555
C17 C16 1_555 1_555
H18 C17 1_555 1_555
C18 C17 1_555 1_555
H19 C18 1_555 1_555
C19 C11 1_555 1_555
C20 C14 1_555 1_555
C21 C3 1_555 1_555
C22 C13 1_555 1_555
C23 C24 1_555 1_555
C24 O9 1_555 1_555
C25 C24 1_555 1_555
C26 C25 1_555 1_555
H20 C26 1_555 1_555
C27 H21 1_555 1_555
C28 C27 1_555 1_555
H22 C28 1_555 1_555
C29 C28 1_555 1_555
H23 C29 1_555 1_555
C30 C29 1_555 1_555
H24 C30 1_555 1_555
C31 C23 1_555 1_555
C32 C26 1_555 1_555
C33 C23 1_555 1_555
C34 O12 1_555 1_555
C35 C34 1_555 1_555
C36 C35 1_555 1_555
H25 C36 1_555 1_555
C37 H26 1_555 1_555
C38 C37 1_555 1_555
H27 C38 1_555 1_555
C39 C38 1_555 1_555
H28 C39 1_555 1_555
C40 C39 1_555 1_555
H29 C40 1_555 1_555
C41 C33 1_555 1_555
C42 C36 1_555 1_555
C43 O8 1_555 1_555
C44 C35 1_555 1_555
N2 H30 1_555 1_555
C45 N2 1_555 1_555
H31 C45 1_555 1_555
C46 C45 1_555 1_555
H32 C46 1_555 1_555
C47 C46 1_555 1_555
H33 C47 1_555 1_555
C48 C47 1_555 1_555
H34 C48 1_555 1_555
C49 N2 1_555 1_555
H35 C49 1_555 1_555
C50 C51 1_555 1_555
C51 H36 1_555 1_555
H37 C51 1_555 1_555
H38 C51 1_555 1_555
O5A Zn1 1_555 1_555
O10A Zn1 1_555 1_555
O4_2 Zn2 1_555 1_555
O7A Zn2 1_555 1_555
O13A Zn2 1_555 1_555
Zn2_2 O4 1_555 1_555
Zn1A O5 1_555 1_555
Zn2A O7 1_555 1_555
Zn1A_2 O10 1_555 1_555
H5A O13A 1_555 1_555
Zn2 O13 1_555 1_555
O13 Zn2A 1_555 1_555
C6 C10 1_555 1_555
C8 C9 1_555 1_555
C9 C10 1_555 1_555
C11 C12 1_555 1_555
C15 C20 1_555 1_555
C18 C19 1_555 1_555
C19 C20 1_555 1_555
C25 C43 1_555 1_555
C27 C32 1_555 1_555
C30 C31 1_555 1_555
C31 C32 1_555 1_555
C33 C34 1_555 1_555
C37 C42 1_555 1_555
C40 C41 1_555 1_555
C41 C42 1_555 1_555
C48 C49 1_555 1_555
O13A Zn2A 1_555 1_555

#END
