
#######################################################################
#
#                 Cambridge Crystallographic Data Centre
#                                CCDC 
#
#######################################################################
#
# If this CIF has been generated from an entry in the Cambridge 
# Structural Database, then it will include bibliographic, chemical, 
# crystal, experimental, refinement or atomic coordinate data resulting 
# from the CCDC's data processing and validation procedures.
#
#######################################################################

data_AREWOK
_symmetry_cell_setting           monoclinic
_symmetry_space_group_name_H-M   'C 2/c'
_symmetry_Int_Tables_number      15
_space_group_name_Hall           '-C 2yn'
loop_
_symmetry_equiv_pos_site_id
_symmetry_equiv_pos_as_xyz
1 x,y,z
2 -x,y,1/2-z
3 1/2+x,1/2+y,z
4 1/2-x,1/2+y,1/2-z
5 -x,-y,-z
6 x,-y,1/2+z
7 1/2-x,1/2-y,-z
8 1/2+x,1/2-y,1/2+z
_cell_length_a                   16.985(5)
_cell_length_b                   8.957(5)
_cell_length_c                   22.275(5)
_cell_angle_alpha                90
_cell_angle_beta                 91.660(5)
_cell_angle_gamma                90
_cell_volume                     3387.38
loop_
_atom_site_label
_atom_site_type_symbol
_atom_site_fract_x
_atom_site_fract_y
_atom_site_fract_z
Ag1 Ag 0.706675(11) 0.75287(2) 0.664159(8)
C1 C 0.81280(13) 0.5968(2) 0.56982(9)
C2 C 0.82339(12) 0.8368(2) 0.55771(10)
C3 C 0.82125(13) 0.9912(3) 0.56321(11)
H1 H 0.7949 1.0373 0.5942
C4 C 0.85951(15) 1.0726(3) 0.52104(12)
H2 H 0.8601 1.1761 0.5242
C5 C 0.89750(14) 1.0054(3) 0.47369(11)
H3 H 0.9214 1.0654 0.4454
C6 C 0.90079(13) 0.8530(3) 0.46749(10)
H4 H 0.9267 0.8081 0.4360
C7 C 0.86330(12) 0.7696(2) 0.51084(10)
C8 C 0.88716(12) 0.5020(2) 0.47975(10)
H5 H 0.8914 0.5435 0.4398
H6 H 0.8501 0.4197 0.4773
C9 C 0.96748(12) 0.4419(2) 0.50041(10)
H7 H 0.9637 0.4033 0.5409
H8 H 0.9815 0.3594 0.4746
C10 C 0.79268(14) 0.4494(2) 0.59537(10)
H9 H 0.7952 0.3745 0.5640
H10 H 0.7389 0.4525 0.6089
C11 C 0.84717(15) 0.4030(3) 0.64797(12)
H11 H 0.8310 0.3075 0.6628
H12 H 0.8444 0.4758 0.6794
H13 H 0.9003 0.3964 0.6346
C12 C 0.60504(13) 0.2008(2) 0.68326(9)
C13 C 0.52842(14) 0.2137(3) 0.66151(10)
H14 H 0.5016 0.1296 0.6475
C14 C 0.49147(14) 0.3515(3) 0.66056(11)
H15 H 0.4400 0.3595 0.6455
C15 C 0.53019(13) 0.4767(3) 0.68167(10)
H16 H 0.5052 0.5691 0.6799
C16 C 0.60636(13) 0.4655(2) 0.70553(9)
C17 C 0.64412(13) 0.3277(2) 0.70549(9)
H17 H 0.6957 0.3198 0.7203
C18 C 0.64597(16) 0.0519(3) 0.68228(10)
N1 N 0.64465(13) 0.5952(2) 0.72979(9)
N2 N 0.79203(10) 0.72565(18) 0.59374(8)
N3 N 0.85605(10) 0.61693(19) 0.51949(7)
O1 O 0.60421(10) -0.06129(17) 0.66974(7)
O2 O 0.71849(10) 0.04645(18) 0.69229(8)
H19 H 0.6104(12) 0.658(3) 0.7459(10)
H20 H 0.6826(11) 0.576(3) 0.7553(9)
Ag1_2 Ag 0.706675(11) 1.75287(2) 0.664159(8)
Ag1_3 Ag 0.706675(11) -0.24713(2) 0.664159(8)
Ag1D Ag 1.293325(11) 0.24713(2) 0.335841(8)
C1D C 1.18720(13) 0.4032(2) 0.43018(9)
C2D C 1.17661(12) 0.1632(2) 0.44229(10)
C3D C 1.17875(13) 0.0088(3) 0.43679(11)
H1D H 1.2051 -0.0373 0.4058
C4D C 1.14049(15) -0.0726(3) 0.47896(12)
H2D H 1.1399 -0.1761 0.4758
C5D C 1.10250(14) -0.0054(3) 0.52631(11)
H3D H 1.0786 -0.0654 0.5546
C6D C 1.09921(13) 0.1470(3) 0.53251(10)
H4D H 1.0733 0.1919 0.5640
C7D C 1.13670(12) 0.2304(2) 0.48916(10)
C8D C 1.11284(12) 0.4980(2) 0.52025(10)
H5D H 1.1086 0.4565 0.5602
H6D H 1.1499 0.5803 0.5227
C9D C 1.03252(12) 0.5581(2) 0.49959(10)
H7D H 1.0363 0.5967 0.4591
H8D H 1.0185 0.6406 0.5254
C10D C 1.20732(14) 0.5506(2) 0.40463(10)
H9D H 1.2048 0.6255 0.4360
H10D H 1.2611 0.5475 0.3911
C11D C 1.15283(15) 0.5970(3) 0.35203(12)
H11D H 1.1690 0.6925 0.3372
H12D H 1.1556 0.5242 0.3206
H13D H 1.0997 0.6036 0.3654
C12_2 C 0.60504(13) 1.2008(2) 0.68326(9)
C13_2 C 0.52842(14) 1.2137(3) 0.66151(10)
H14_2 H 0.5016 1.1296 0.6475
C14_2 C 0.49147(14) 1.3515(3) 0.66056(11)
H15_2 H 0.4400 1.3595 0.6455
C15_2 C 0.53019(13) 1.4767(3) 0.68167(10)
H16_2 H 0.5052 1.5691 0.6799
C16_2 C 0.60636(13) 1.4655(2) 0.70553(9)
C17_2 C 0.64412(13) 1.3277(2) 0.70549(9)
H17_2 H 0.6957 1.3198 0.7203
C18_2 C 0.64597(16) 1.0519(3) 0.68228(10)
N1_2 N 0.64465(13) 1.5952(2) 0.72979(9)
N2D N 1.20797(10) 0.27435(18) 0.40626(8)
N2_2 N 0.79203(10) 1.72565(18) 0.59374(8)
N3D N 1.14395(10) 0.38307(19) 0.48051(7)
O1_2 O 0.60421(10) 0.93871(17) 0.66974(7)
O1_3 O 0.60421(10) 1.93871(17) 0.66974(7)
O2_2 O 0.71849(10) 1.04645(18) 0.69229(8)
O2_3 O 0.71849(10) 2.04645(18) 0.69229(8)
H19_2 H 0.6104(12) 1.658(3) 0.7459(10)
H20_2 H 0.6826(11) 1.576(3) 0.7553(9)
O3 O 0.5000 0.8108(3) 0.7500
H18 H 0.5250(14) 0.864(2) 0.7279(10)
H18A H 0.4750(14) 0.864(2) 0.7721(10)
loop_
_geom_bond_atom_site_label_1
_geom_bond_atom_site_label_2
_geom_bond_site_symmetry_1
_geom_bond_site_symmetry_2
Ag1 N1 1_555 1_555
C1 C10 1_555 1_555
C2 C3 1_555 1_555
C3 H1 1_555 1_555
C4 C3 1_555 1_555
H2 C4 1_555 1_555
C5 C4 1_555 1_555
H3 C5 1_555 1_555
C6 C5 1_555 1_555
H4 C6 1_555 1_555
C7 C2 1_555 1_555
C8 H5 1_555 1_555
H6 C8 1_555 1_555
C9 C8 1_555 1_555
H7 C9 1_555 1_555
H8 C9 1_555 1_555
C10 H9 1_555 1_555
H10 C10 1_555 1_555
C11 C10 1_555 1_555
H11 C11 1_555 1_555
H12 C11 1_555 1_555
H13 C11 1_555 1_555
C12 C13 1_555 1_555
C13 H14 1_555 1_555
C14 C13 1_555 1_555
H15 C14 1_555 1_555
C15 C14 1_555 1_555
H16 C15 1_555 1_555
C16 C15 1_555 1_555
C17 C12 1_555 1_555
H17 C17 1_555 1_555
C18 C12 1_555 1_555
N1 C16 1_555 1_555
N2 Ag1 1_555 1_555
N3 C1 1_555 1_555
O1 C18 1_555 1_555
O2 C18 1_555 1_555
O3 H18 1_555 1_555
H19 N1 1_555 1_555
H20 N1 1_555 1_555
Ag1_2 N1_2 1_555 1_555
Ag1_3 O1 1_555 1_555
Ag1D N2D 1_555 1_555
C1D C10D 1_555 1_555
C2D C3D 1_555 1_555
C3D H1D 1_555 1_555
C4D C3D 1_555 1_555
H2D C4D 1_555 1_555
C5D C4D 1_555 1_555
H3D C5D 1_555 1_555
C6D C5D 1_555 1_555
H4D C6D 1_555 1_555
C7D C2D 1_555 1_555
C8D H5D 1_555 1_555
H6D C8D 1_555 1_555
C9D C9 1_555 1_555
H7D C9D 1_555 1_555
H8D C9D 1_555 1_555
C10D H9D 1_555 1_555
H10D C10D 1_555 1_555
C11D C10D 1_555 1_555
H11D C11D 1_555 1_555
H12D C11D 1_555 1_555
H13D C11D 1_555 1_555
C12_2 C13_2 1_555 1_555
C13_2 H14_2 1_555 1_555
C14_2 C13_2 1_555 1_555
H15_2 C14_2 1_555 1_555
C15_2 C14_2 1_555 1_555
H16_2 C15_2 1_555 1_555
C16_2 C15_2 1_555 1_555
C17_2 C12_2 1_555 1_555
H17_2 C17_2 1_555 1_555
C18_2 C12_2 1_555 1_555
N1_2 C16_2 1_555 1_555
N2D C1D 1_555 1_555
N2_2 Ag1_2 1_555 1_555
N3D C1D 1_555 1_555
O1_2 Ag1 1_555 1_555
O1_3 Ag1_2 1_555 1_555
O2_2 Ag1 1_555 1_555
O2_3 Ag1_2 1_555 1_555
H18A O3 1_555 1_555
H19_2 N1_2 1_555 1_555
H20_2 N1_2 1_555 1_555
C1 N2 1_555 1_555
C2 N2 1_555 1_555
C6 C7 1_555 1_555
C7 N3 1_555 1_555
C8 N3 1_555 1_555
C16 C17 1_555 1_555
O2 Ag1_3 1_555 1_555
C2D N2D 1_555 1_555
C6D C7D 1_555 1_555
C7D N3D 1_555 1_555
C8D C9D 1_555 1_555
C8D N3D 1_555 1_555
C16_2 C17_2 1_555 1_555
C18_2 O1_2 1_555 1_555
C18_2 O2_2 1_555 1_555

#END
