
#######################################################################
#
#                 Cambridge Crystallographic Data Centre
#                                CCDC 
#
#######################################################################
#
# If this CIF has been generated from an entry in the Cambridge 
# Structural Database, then it will include bibliographic, chemical, 
# crystal, experimental, refinement or atomic coordinate data resulting 
# from the CCDC's data processing and validation procedures.
#
#######################################################################

data_AREZUS
_symmetry_cell_setting           monoclinic
_symmetry_space_group_name_H-M   'P 21/n'
_symmetry_Int_Tables_number      14
_space_group_name_Hall           '-P 2yn'
loop_
_symmetry_equiv_pos_site_id
_symmetry_equiv_pos_as_xyz
1 x,y,z
2 1/2+x,1/2-y,1/2+z
3 -x,-y,-z
4 1/2-x,1/2+y,1/2-z
_cell_length_a                   12.732(4)
_cell_length_b                   13.164(4)
_cell_length_c                   23.024(8)
_cell_angle_alpha                90
_cell_angle_beta                 92.659(6)
_cell_angle_gamma                90
_cell_volume                     3854.76
loop_
_atom_site_label
_atom_site_type_symbol
_atom_site_fract_x
_atom_site_fract_y
_atom_site_fract_z
Cu1 Cu 0.56379(5) 0.31092(6) 0.67819(3)
N1 N 0.6672(3) 0.3410(4) 0.74629(18)
N2 N 0.9715(3) 0.3536(4) 0.89689(19)
H1 H 0.9975 0.3118 0.8686
N3 N 1.1951(3) 0.4339(4) 0.88358(19)
H2 H 1.2415 0.3989 0.9061
N4 N 1.4397(3) 0.3499(4) 0.72539(19)
N5 N 0.4644(3) 0.2991(4) 0.60631(19)
N6 N 0.1735(3) 0.2220(4) 0.45561(18)
H3 H 0.1749 0.1685 0.4819
N7 N -0.0366(3) 0.3036(4) 0.47830(18)
H4 H -0.0251 0.3387 0.4981
N8 N -0.3147(3) 0.2815(4) 0.62760(18)
O1 O 0.5532(3) 0.1379(3) 0.70409(17)
H5 H 0.4791 0.0824 0.7046
H6 H 0.5950 0.1135 0.7364
O2 O 0.8552(3) 0.4691(3) 0.92569(18)
O3 O 1.1124(3) 0.4986(4) 0.80305(17)
O4 O 0.2612(3) 0.3536(4) 0.41820(17)
O5 O -0.1381(3) 0.1692(4) 0.45294(17)
C1 C 0.7485(4) 0.2794(5) 0.7587(2)
H7 H 0.7564 0.2219 0.7358
C2 C 0.8207(4) 0.2969(5) 0.8033(2)
H8 H 0.8769 0.2526 0.8099
C3 C 0.8097(4) 0.3809(4) 0.8386(2)
C4 C 0.7259(4) 0.4435(5) 0.8263(2)
H9 H 0.7154 0.5002 0.8495
C5 C 0.6568(4) 0.4232(5) 0.7799(2)
H10 H 0.6014 0.4678 0.7717
C6 C 0.8819(5) 0.4047(5) 0.8910(2)
C7 C 1.0484(4) 0.3801(5) 0.9429(2)
H11 H 1.0911 0.3210 0.9528
H12 H 1.0121 0.3999 0.9773
C8 C 1.1193(4) 0.4662(5) 0.9254(2)
H13 H 1.0765 0.5206 0.9086
H14 H 1.1568 0.4926 0.9598
C9 C 1.1852(4) 0.4511(5) 0.8277(2)
C10 C 1.2737(4) 0.4119(5) 0.7916(2)
C11 C 1.3354(5) 0.3285(5) 0.8077(3)
H15 H 1.3220 0.2924 0.8413
C12 C 1.4159(5) 0.2997(5) 0.7740(2)
H16 H 1.4557 0.2431 0.7851
C13 C 1.3779(5) 0.4274(5) 0.7098(3)
H17 H 1.3913 0.4617 0.6756
C14 C 1.2959(5) 0.4591(5) 0.7410(3)
H18 H 1.2548 0.5135 0.7278
C15 C 0.3726(4) 0.2495(5) 0.6079(2)
H19 H 0.3555 0.2187 0.6426
C16 C 0.3028(5) 0.2420(5) 0.5612(2)
H20 H 0.2402 0.2065 0.5644
C17 C 0.3258(4) 0.2878(4) 0.5089(2)
C18 C 0.4209(5) 0.3383(5) 0.5075(2)
H21 H 0.4397 0.3699 0.4734
C19 C 0.4874(4) 0.3421(5) 0.5557(2)
H22 H 0.5511 0.3760 0.5534
C20 C 0.2503(4) 0.2901(5) 0.4562(2)
C21 C 0.0874(4) 0.2243(5) 0.4112(2)
H23 H 0.0500 0.1601 0.4111
H24 H 0.1157 0.2335 0.3732
C22 C 0.0114(4) 0.3109(5) 0.4232(2)
H25 H 0.0492 0.3748 0.4218
H26 H -0.0435 0.3121 0.3926
C23 C -0.1134(5) 0.2376(5) 0.4875(2)
C24 C -0.1740(4) 0.2514(5) 0.5414(2)
C25 C -0.2421(4) 0.1757(5) 0.5567(2)
H27 H -0.2413 0.1131 0.5380
C26 C -0.3103(4) 0.1932(5) 0.5992(2)
H28 H -0.3560 0.1414 0.6090
C27 C -0.2448(4) 0.3525(5) 0.6160(2)
H29 H -0.2427 0.4120 0.6378
C28 C -0.1766(5) 0.3403(6) 0.5734(3)
H30 H -0.1305 0.3928 0.5653
N4_2 N 0.4397(3) 0.3499(4) 0.72539(19)
N8_2 N 0.6853(3) 0.2815(4) 0.62760(18)
Cu1_2 Cu 1.56379(5) 0.31092(6) 0.67819(3)
Cu1_3 Cu -0.43621(5) 0.31092(6) 0.67819(3)
Cl1 Cl 0.6906(3) 0.4148(3) 0.42429(16)
O6 O 0.7538(8) 0.4771(8) 0.4670(5)
O7 O 0.6699(10) 0.3375(13) 0.4574(5)
O8 O 0.5848(8) 0.4418(13) 0.4109(6)
O9 O 0.7522(6) 0.3963(8) 0.3796(3)
Cl2 Cl 0.0409(2) 0.1591(2) 0.66378(12)
O10 O 0.0482(6) 0.2161(7) 0.6117(4)
O11 O 0.0243(8) 0.0559(7) 0.6485(4)
O12 O -0.0399(8) 0.1924(10) 0.6922(4)
O13 O 0.1332(8) 0.1708(8) 0.6925(4)
O14 O 0.8905(4) 0.9485(4) 0.4751(2)
O15 O 0.9921(6) 0.5651(7) 0.3086(3)
O16 O 0.5686(6) 0.2929(8) 0.3199(3)
O17 O 0.1496(5) 0.4262(4) 0.3099(2)
O18 O 0.0652(5) 0.4363(5) 0.5669(3)
O19 O 0.9112(4) 0.0195(4) 0.8504(2)
loop_
_geom_bond_atom_site_label_1
_geom_bond_atom_site_label_2
_geom_bond_site_symmetry_1
_geom_bond_site_symmetry_2
Cu1 N1 1_555 1_555
N1 C1 1_555 1_555
N2 H1 1_555 1_555
N3 H2 1_555 1_555
N4 C12 1_555 1_555
N5 Cu1 1_555 1_555
N6 H3 1_555 1_555
N7 H4 1_555 1_555
N8 C26 1_555 1_555
O1 Cu1 1_555 1_555
H5 O1 1_555 1_555
H6 O1 1_555 1_555
O2 C6 1_555 1_555
O3 C9 1_555 1_555
O4 C20 1_555 1_555
O5 C23 1_555 1_555
C1 H7 1_555 1_555
C2 C1 1_555 1_555
H8 C2 1_555 1_555
C3 C2 1_555 1_555
C4 C3 1_555 1_555
H9 C4 1_555 1_555
C5 N1 1_555 1_555
H10 C5 1_555 1_555
C6 N2 1_555 1_555
C7 N2 1_555 1_555
H11 C7 1_555 1_555
H12 C7 1_555 1_555
C8 N3 1_555 1_555
H13 C8 1_555 1_555
H14 C8 1_555 1_555
C9 N3 1_555 1_555
C10 C9 1_555 1_555
C11 C10 1_555 1_555
H15 C11 1_555 1_555
C12 C11 1_555 1_555
H16 C12 1_555 1_555
C13 N4 1_555 1_555
H17 C13 1_555 1_555
C14 C10 1_555 1_555
H18 C14 1_555 1_555
C15 N5 1_555 1_555
H19 C15 1_555 1_555
C16 C15 1_555 1_555
H20 C16 1_555 1_555
C17 C16 1_555 1_555
C18 C17 1_555 1_555
H21 C18 1_555 1_555
C19 N5 1_555 1_555
H22 C19 1_555 1_555
C20 N6 1_555 1_555
C21 N6 1_555 1_555
H23 C21 1_555 1_555
H24 C21 1_555 1_555
C22 N7 1_555 1_555
H25 C22 1_555 1_555
H26 C22 1_555 1_555
C23 N7 1_555 1_555
C24 C23 1_555 1_555
C25 C24 1_555 1_555
H27 C25 1_555 1_555
C26 C25 1_555 1_555
H28 C26 1_555 1_555
C27 N8 1_555 1_555
H29 C27 1_555 1_555
C28 C24 1_555 1_555
H30 C28 1_555 1_555
Cl1 O6 1_555 1_555
O7 Cl1 1_555 1_555
O8 Cl1 1_555 1_555
O9 Cl1 1_555 1_555
Cl2 O10 1_555 1_555
O11 Cl2 1_555 1_555
O12 Cl2 1_555 1_555
O13 Cl2 1_555 1_555
N4_2 Cu1 1_555 1_555
N8_2 Cu1 1_555 1_555
Cu1_2 N4 1_555 1_555
Cu1_3 N8 1_555 1_555
C3 C6 1_555 1_555
C4 C5 1_555 1_555
C7 C8 1_555 1_555
C13 C14 1_555 1_555
C17 C20 1_555 1_555
C18 C19 1_555 1_555
C21 C22 1_555 1_555
C27 C28 1_555 1_555

#END
