
#######################################################################
#
#                 Cambridge Crystallographic Data Centre
#                                CCDC 
#
#######################################################################
#
# If this CIF has been generated from an entry in the Cambridge 
# Structural Database, then it will include bibliographic, chemical, 
# crystal, experimental, refinement or atomic coordinate data resulting 
# from the CCDC's data processing and validation procedures.
#
#######################################################################

data_ARIBUY
_symmetry_cell_setting           monoclinic
_symmetry_space_group_name_H-M   'P 21/c'
_symmetry_Int_Tables_number      14
_space_group_name_Hall           '-P 2ybc'
loop_
_symmetry_equiv_pos_site_id
_symmetry_equiv_pos_as_xyz
1 x,y,z
2 x,1/2-y,1/2+z
3 -x,-y,-z
4 -x,1/2+y,1/2-z
_cell_length_a                   14.0695(3)
_cell_length_b                   14.0633(4)
_cell_length_c                   22.2760(4)
_cell_angle_alpha                90
_cell_angle_beta                 92.4430(10)
_cell_angle_gamma                90
_cell_volume                     4403.6
loop_
_atom_site_label
_atom_site_type_symbol
_atom_site_fract_x
_atom_site_fract_y
_atom_site_fract_z
Cd1 Cd 1.34579(4) 0.80896(3) 0.82198(2)
N1 N 1.3566(4) 0.9750(4) 0.8245(3)
N2 N 1.3417(5) 1.6420(4) 0.8212(3)
N3 N 1.2047(4) 0.8309(4) 0.8777(3)
O1 O 1.3865(3) 0.8322(4) 0.7187(2)
O2 O 1.2383(3) 0.7988(4) 0.7356(2)
O3 O 0.9560(7) 0.7160(8) 0.6469(4)
O4 O 1.1035(6) 0.6942(5) 0.6839(3)
O5 O 1.4238(3) 0.7829(4) 0.9200(2)
O6 O 1.5187(3) 0.7923(3) 0.8442(2)
O7 O 1.6866(4) 0.7555(4) 0.8114(2)
O8 O 1.8332(4) 0.8115(5) 0.8147(3)
C1 C 1.2808(6) 1.0312(5) 0.8209(4)
H1 H 1.2211 1.0029 0.8182
C2 C 1.2857(6) 1.1288(5) 0.8210(4)
H2 H 1.2302 1.1647 0.8193
C3 C 1.3732(5) 1.1733(5) 0.8234(3)
C4 C 1.3849(6) 1.2776(5) 0.8231(3)
H3 H 1.4451 1.3009 0.8155
C5 C 1.3199(6) 1.3391(5) 0.8324(4)
H4 H 1.2605 1.3161 0.8421
C6 C 1.3312(6) 1.4435(5) 0.8292(3)
C7 C 1.2544(6) 1.5009(5) 0.8387(4)
H5 H 1.1967 1.4736 0.8481
C8 C 1.2617(5) 1.5976(5) 0.8344(4)
H6 H 1.2080 1.6341 0.8410
C9 C 1.4177(6) 1.5879(5) 0.8132(4)
H7 H 1.4750 1.6173 0.8052
C10 C 1.4149(6) 1.4899(5) 0.8161(4)
H8 H 1.4694 1.4548 0.8093
C11 C 1.4519(5) 1.1155(5) 0.8260(4)
H9 H 1.5125 1.1420 0.8271
C12 C 1.4408(5) 1.0184(5) 0.8269(3)
H10 H 1.4952 0.9809 0.8294
C13 C 1.1179(5) 0.8470(6) 0.8539(3)
H11 H 1.1033 0.8245 0.8153
C14 C 1.0487(5) 0.8952(6) 0.8834(4)
H12 H 0.9892 0.9047 0.8644
C15 C 1.0665(5) 0.9295(5) 0.9406(3)
C16 C 0.9956(5) 0.9851(6) 0.9719(3)
H13 H 0.9397 1.0008 0.9504
C17 C 1.1553(5) 0.9095(6) 0.9657(3)
H14 H 1.1705 0.9286 1.0049
C18 C 1.2216(5) 0.8619(6) 0.9339(3)
H15 H 1.2812 0.8507 0.9522
C19 C 1.1854(5) 0.8644(5) 0.6151(3)
C20 C 1.2758(5) 0.8361(4) 0.6350(3)
C21 C 1.3452(6) 0.8158(6) 0.5942(4)
H16 H 1.4061 0.7986 0.6079
C22 C 1.3237(8) 0.8211(7) 0.5339(4)
H17 H 1.3702 0.8078 0.5066
C23 C 1.2337(9) 0.8460(7) 0.5134(4)
H18 H 1.2192 0.8479 0.4723
C24 C 1.1638(7) 0.8683(6) 0.5536(4)
C25 C 1.0659(8) 0.8986(10) 0.5298(5)
H19 H 1.0260 0.9105 0.5629
H20 H 1.0385 0.8490 0.5051
H21 H 1.0713 0.9556 0.5064
C26 C 1.3026(5) 0.8226(5) 0.7003(3)
C27 C 1.1145(6) 0.9035(7) 0.6580(4)
C28 C 1.0395(6) 0.8516(9) 0.6796(4)
C29 C 0.9719(8) 0.8935(12) 0.7163(5)
H22 H 0.9214 0.8586 0.7305
C30 C 0.9837(10) 0.9869(13) 0.7302(6)
H23 H 0.9399 1.0157 0.7544
C31 C 1.0582(10) 1.0416(10) 0.7099(6)
H24 H 1.0647 1.1049 0.7215
C32 C 1.1228(7) 1.0008(8) 0.6720(4)
C33 C 1.2002(9) 1.0614(7) 0.6489(6)
H25 H 1.2393 1.0239 0.6237
H26 H 1.2383 1.0862 0.6821
H27 H 1.1727 1.1131 0.6260
C34 C 1.0312(9) 0.7492(11) 0.6677(5)
C35 C 1.6687(5) 0.7814(5) 0.9473(3)
C36 C 1.5833(5) 0.7326(5) 0.9376(3)
C37 C 1.5725(6) 0.6438(5) 0.9630(4)
H28 H 1.5152 0.6115 0.9573
C38 C 1.6457(7) 0.6028(7) 0.9966(4)
H29 H 1.6383 0.5424 1.0127
C39 C 1.7292(7) 0.6509(7) 1.0064(4)
H30 H 1.7781 0.6228 1.0296
C40 C 1.7427(6) 0.7408(7) 0.9827(4)
C41 C 1.8350(6) 0.7938(8) 0.9947(5)
H31 H 1.8319 0.8543 0.9748
H32 H 1.8866 0.7573 0.9799
H33 H 1.8450 0.8034 1.0372
C42 C 1.5033(5) 0.7728(5) 0.8990(4)
C43 C 1.6780(5) 0.8802(5) 0.9228(3)
C44 C 1.7192(5) 0.8973(6) 0.8678(3)
C45 C 1.7316(6) 0.9903(7) 0.8475(4)
H34 H 1.7623 1.0012 0.8119
C46 C 1.6988(6) 1.0651(6) 0.8797(4)
H35 H 1.7052 1.1271 0.8659
C47 C 1.6561(6) 1.0470(6) 0.9330(4)
H36 H 1.6320 1.0980 0.9541
C48 C 1.6474(5) 0.9570(5) 0.9565(3)
C49 C 1.6081(6) 0.9422(6) 1.0180(3)
H37 H 1.5906 1.0024 1.0345
H38 H 1.6557 0.9128 1.0440
H39 H 1.5531 0.9018 1.0145
C50 C 1.7515(6) 0.8167(7) 0.8302(4)
C16B C 1.0044(5) 1.0149(6) 1.0281(3)
C15B C 0.9335(5) 1.0705(5) 1.0594(3)
C14B C 0.9513(5) 1.1048(6) 1.1166(4)
C13B C 0.8821(5) 1.1530(6) 1.1461(3)
N3B N 0.7953(4) 1.1691(4) 1.1223(3)
C18B C 0.7784(5) 1.1381(6) 1.0661(3)
C17B C 0.8447(5) 1.0905(6) 1.0343(3)
H14B H 0.8295 1.0714 0.9951
H15B H 0.7188 1.1493 1.0478
H11B H 0.8967 1.1755 1.1847
H12B H 1.0108 1.0953 1.1356
H13B H 1.0603 0.9992 1.0496
N1_2 N 1.3566(4) -0.0250(4) 0.8245(3)
N2_2 N 1.3417(5) 0.6420(4) 0.8212(3)
C1_2 C 1.2808(6) 0.0312(5) 0.8209(4)
H1_2 H 1.2211 0.0029 0.8182
C2_2 C 1.2857(6) 0.1288(5) 0.8210(4)
H2_2 H 1.2302 0.1647 0.8193
C3_2 C 1.3732(5) 0.1733(5) 0.8234(3)
C4_2 C 1.3849(6) 0.2776(5) 0.8231(3)
H3_2 H 1.4451 0.3009 0.8155
C5_2 C 1.3199(6) 0.3391(5) 0.8324(4)
H4_2 H 1.2605 0.3161 0.8421
C6_2 C 1.3312(6) 0.4435(5) 0.8292(3)
C7_2 C 1.2544(6) 0.5009(5) 0.8387(4)
H5_2 H 1.1967 0.4736 0.8481
C8_2 C 1.2617(5) 0.5976(5) 0.8344(4)
H6_2 H 1.2080 0.6341 0.8410
C9_2 C 1.4177(6) 0.5879(5) 0.8132(4)
H7_2 H 1.4750 0.6173 0.8052
C10_2 C 1.4149(6) 0.4899(5) 0.8161(4)
H8_2 H 1.4694 0.4548 0.8093
C11_2 C 1.4519(5) 0.1155(5) 0.8260(4)
H9_2 H 1.5125 0.1420 0.8271
C12_2 C 1.4408(5) 0.0184(5) 0.8269(3)
H10_2 H 1.4952 -0.0191 0.8294
Cd1_2 Cd 1.34579(4) -0.19104(3) 0.82198(2)
O1_2 O 1.3865(3) -0.1678(4) 0.7187(2)
O2_2 O 1.2383(3) -0.2012(4) 0.7356(2)
O3_2 O 0.9560(7) -0.2840(8) 0.6469(4)
O4_2 O 1.1035(6) -0.3058(5) 0.6839(3)
C19_2 C 1.1854(5) -0.1356(5) 0.6151(3)
C20_2 C 1.2758(5) -0.1639(4) 0.6350(3)
C21_2 C 1.3452(6) -0.1842(6) 0.5942(4)
H16_2 H 1.4061 -0.2014 0.6079
C22_2 C 1.3237(8) -0.1789(7) 0.5339(4)
H17_2 H 1.3702 -0.1922 0.5066
C23_2 C 1.2337(9) -0.1540(7) 0.5134(4)
H18_2 H 1.2192 -0.1521 0.4723
C24_2 C 1.1638(7) -0.1317(6) 0.5536(4)
C25_2 C 1.0659(8) -0.1014(10) 0.5298(5)
H19_2 H 1.0260 -0.0895 0.5629
H20_2 H 1.0385 -0.1510 0.5051
H21_2 H 1.0713 -0.0444 0.5064
C26_2 C 1.3026(5) -0.1774(5) 0.7003(3)
C27_2 C 1.1145(6) -0.0965(7) 0.6580(4)
C28_2 C 1.0395(6) -0.1484(9) 0.6796(4)
C29_2 C 0.9719(8) -0.1065(12) 0.7163(5)
H22_2 H 0.9214 -0.1414 0.7305
C30_2 C 0.9837(10) -0.0131(13) 0.7302(6)
H23_2 H 0.9399 0.0157 0.7544
C31_2 C 1.0582(10) 0.0416(10) 0.7099(6)
H24_2 H 1.0647 0.1049 0.7215
C32_2 C 1.1228(7) 0.0008(8) 0.6720(4)
C33_2 C 1.2002(9) 0.0614(7) 0.6489(6)
H25_2 H 1.2393 0.0239 0.6237
H26_2 H 1.2383 0.0862 0.6821
H27_2 H 1.1727 0.1131 0.6260
C34_2 C 1.0312(9) -0.2508(11) 0.6677(5)
O5_2 O 1.4238(3) -0.2171(4) 0.9200(2)
O6_2 O 1.5187(3) -0.2077(3) 0.8442(2)
O7_2 O 1.6866(4) -0.2445(4) 0.8114(2)
O8_2 O 1.8332(4) -0.1885(5) 0.8147(3)
C35_2 C 1.6687(5) -0.2186(5) 0.9473(3)
C36_2 C 1.5833(5) -0.2674(5) 0.9376(3)
C37_2 C 1.5725(6) -0.3562(5) 0.9630(4)
H28_2 H 1.5152 -0.3885 0.9573
C38_2 C 1.6457(7) -0.3972(7) 0.9966(4)
H29_2 H 1.6383 -0.4576 1.0127
C39_2 C 1.7292(7) -0.3491(7) 1.0064(4)
H30_2 H 1.7781 -0.3772 1.0296
C40_2 C 1.7427(6) -0.2592(7) 0.9827(4)
C41_2 C 1.8350(6) -0.2062(8) 0.9947(5)
H31_2 H 1.8319 -0.1457 0.9748
H32_2 H 1.8866 -0.2427 0.9799
H33_2 H 1.8450 -0.1966 1.0372
C42_2 C 1.5033(5) -0.2272(5) 0.8990(4)
C43_2 C 1.6780(5) -0.1198(5) 0.9228(3)
C44_2 C 1.7192(5) -0.1027(6) 0.8678(3)
C45_2 C 1.7316(6) -0.0097(7) 0.8475(4)
H34_2 H 1.7623 0.0012 0.8119
C46_2 C 1.6988(6) 0.0651(6) 0.8797(4)
H35_2 H 1.7052 0.1271 0.8659
C47_2 C 1.6561(6) 0.0470(6) 0.9330(4)
H36_2 H 1.6320 0.0980 0.9541
C48_2 C 1.6474(5) -0.0430(5) 0.9565(3)
C49_2 C 1.6081(6) -0.0578(6) 1.0180(3)
H37_2 H 1.5906 0.0024 1.0345
H38_2 H 1.6557 -0.0872 1.0440
H39_2 H 1.5531 -0.0982 1.0145
C50_2 C 1.7515(6) -0.1833(7) 0.8302(4)
Cd1_3 Cd 1.34579(4) 1.80896(3) 0.82198(2)
Cd1B Cd 0.65421(4) 1.19104(3) 1.17802(2)
N2_3 N 1.3417(5) -0.3580(4) 0.8212(3)
N3_2 N 1.2047(4) -0.1691(4) 0.8777(3)
loop_
_geom_bond_atom_site_label_1
_geom_bond_atom_site_label_2
_geom_bond_site_symmetry_1
_geom_bond_site_symmetry_2
Cd1 N1 1_555 1_555
N1 C1 1_555 1_555
N2 C8 1_555 1_555
N3 Cd1 1_555 1_555
O1 Cd1 1_555 1_555
O2 Cd1 1_555 1_555
O3 C34 1_555 1_555
O4 C34 1_555 1_555
O5 Cd1 1_555 1_555
O6 Cd1 1_555 1_555
O7 C50 1_555 1_555
O8 C50 1_555 1_555
C1 H1 1_555 1_555
C2 C1 1_555 1_555
H2 C2 1_555 1_555
C3 C2 1_555 1_555
C4 C3 1_555 1_555
H3 C4 1_555 1_555
C5 C4 1_555 1_555
H4 C5 1_555 1_555
C6 C5 1_555 1_555
C7 C6 1_555 1_555
H5 C7 1_555 1_555
C8 C7 1_555 1_555
H6 C8 1_555 1_555
C9 N2 1_555 1_555
H7 C9 1_555 1_555
C10 C6 1_555 1_555
H8 C10 1_555 1_555
C11 C3 1_555 1_555
H9 C11 1_555 1_555
C12 N1 1_555 1_555
H10 C12 1_555 1_555
C13 N3 1_555 1_555
H11 C13 1_555 1_555
C14 C13 1_555 1_555
H12 C14 1_555 1_555
C15 C14 1_555 1_555
C16 C15 1_555 1_555
H13 C16 1_555 1_555
C17 C15 1_555 1_555
H14 C17 1_555 1_555
C18 N3 1_555 1_555
H15 C18 1_555 1_555
C19 C20 1_555 1_555
C20 C21 1_555 1_555
C21 H16 1_555 1_555
C22 C21 1_555 1_555
H17 C22 1_555 1_555
C23 C22 1_555 1_555
H18 C23 1_555 1_555
C24 C19 1_555 1_555
C25 C24 1_555 1_555
H19 C25 1_555 1_555
H20 C25 1_555 1_555
H21 C25 1_555 1_555
C26 O1 1_555 1_555
C27 C19 1_555 1_555
C28 C27 1_555 1_555
C29 C28 1_555 1_555
H22 C29 1_555 1_555
C30 C29 1_555 1_555
H23 C30 1_555 1_555
C31 C30 1_555 1_555
H24 C31 1_555 1_555
C32 C27 1_555 1_555
C33 C32 1_555 1_555
H25 C33 1_555 1_555
H26 C33 1_555 1_555
H27 C33 1_555 1_555
C34 C28 1_555 1_555
C35 C36 1_555 1_555
C36 C37 1_555 1_555
C37 H28 1_555 1_555
C38 C37 1_555 1_555
H29 C38 1_555 1_555
C39 C38 1_555 1_555
H30 C39 1_555 1_555
C40 C35 1_555 1_555
C41 C40 1_555 1_555
H31 C41 1_555 1_555
H32 C41 1_555 1_555
H33 C41 1_555 1_555
C42 O5 1_555 1_555
C43 C35 1_555 1_555
C44 C43 1_555 1_555
C45 C44 1_555 1_555
H34 C45 1_555 1_555
C46 C45 1_555 1_555
H35 C46 1_555 1_555
C47 C46 1_555 1_555
H36 C47 1_555 1_555
C48 C43 1_555 1_555
C49 C48 1_555 1_555
H37 C49 1_555 1_555
H38 C49 1_555 1_555
H39 C49 1_555 1_555
C50 C44 1_555 1_555
C16B C16 1_555 1_555
C15B C16B 1_555 1_555
C14B C15B 1_555 1_555
C13B C14B 1_555 1_555
N3B C13B 1_555 1_555
C18B N3B 1_555 1_555
C17B C15B 1_555 1_555
H14B C17B 1_555 1_555
H15B C18B 1_555 1_555
H11B C13B 1_555 1_555
H12B C14B 1_555 1_555
H13B C16B 1_555 1_555
N1_2 C1_2 1_555 1_555
N2_2 Cd1 1_555 1_555
C1_2 H1_2 1_555 1_555
C2_2 C1_2 1_555 1_555
H2_2 C2_2 1_555 1_555
C3_2 C2_2 1_555 1_555
C4_2 C3_2 1_555 1_555
H3_2 C4_2 1_555 1_555
C5_2 C4_2 1_555 1_555
H4_2 C5_2 1_555 1_555
C6_2 C5_2 1_555 1_555
C7_2 C6_2 1_555 1_555
H5_2 C7_2 1_555 1_555
C8_2 N2_2 1_555 1_555
H6_2 C8_2 1_555 1_555
C9_2 N2_2 1_555 1_555
H7_2 C9_2 1_555 1_555
C10_2 C6_2 1_555 1_555
H8_2 C10_2 1_555 1_555
C11_2 C3_2 1_555 1_555
H9_2 C11_2 1_555 1_555
C12_2 N1_2 1_555 1_555
H10_2 C12_2 1_555 1_555
Cd1_2 N1_2 1_555 1_555
O1_2 Cd1_2 1_555 1_555
O2_2 Cd1_2 1_555 1_555
O3_2 C34_2 1_555 1_555
O4_2 C34_2 1_555 1_555
C19_2 C20_2 1_555 1_555
C20_2 C21_2 1_555 1_555
C21_2 H16_2 1_555 1_555
C22_2 C21_2 1_555 1_555
H17_2 C22_2 1_555 1_555
C23_2 C22_2 1_555 1_555
H18_2 C23_2 1_555 1_555
C24_2 C19_2 1_555 1_555
C25_2 C24_2 1_555 1_555
H19_2 C25_2 1_555 1_555
H20_2 C25_2 1_555 1_555
H21_2 C25_2 1_555 1_555
C26_2 O1_2 1_555 1_555
C27_2 C19_2 1_555 1_555
C28_2 C27_2 1_555 1_555
C29_2 C28_2 1_555 1_555
H22_2 C29_2 1_555 1_555
C30_2 C29_2 1_555 1_555
H23_2 C30_2 1_555 1_555
C31_2 C30_2 1_555 1_555
H24_2 C31_2 1_555 1_555
C32_2 C27_2 1_555 1_555
C33_2 C32_2 1_555 1_555
H25_2 C33_2 1_555 1_555
H26_2 C33_2 1_555 1_555
H27_2 C33_2 1_555 1_555
C34_2 C28_2 1_555 1_555
O5_2 Cd1_2 1_555 1_555
O6_2 Cd1_2 1_555 1_555
O7_2 C50_2 1_555 1_555
O8_2 C50_2 1_555 1_555
C35_2 C36_2 1_555 1_555
C36_2 C37_2 1_555 1_555
C37_2 H28_2 1_555 1_555
C38_2 C37_2 1_555 1_555
H29_2 C38_2 1_555 1_555
C39_2 C38_2 1_555 1_555
H30_2 C39_2 1_555 1_555
C40_2 C35_2 1_555 1_555
C41_2 C40_2 1_555 1_555
H31_2 C41_2 1_555 1_555
H32_2 C41_2 1_555 1_555
H33_2 C41_2 1_555 1_555
C42_2 O5_2 1_555 1_555
C43_2 C35_2 1_555 1_555
C44_2 C43_2 1_555 1_555
C45_2 C44_2 1_555 1_555
H34_2 C45_2 1_555 1_555
C46_2 C45_2 1_555 1_555
H35_2 C46_2 1_555 1_555
C47_2 C46_2 1_555 1_555
H36_2 C47_2 1_555 1_555
C48_2 C43_2 1_555 1_555
C49_2 C48_2 1_555 1_555
H37_2 C49_2 1_555 1_555
H38_2 C49_2 1_555 1_555
H39_2 C49_2 1_555 1_555
C50_2 C44_2 1_555 1_555
Cd1_3 N2 1_555 1_555
Cd1B N3B 1_555 1_555
N2_3 Cd1_2 1_555 1_555
N3_2 Cd1_2 1_555 1_555
O2 C26 1_555 1_555
O6 C42 1_555 1_555
C9 C10 1_555 1_555
C11 C12 1_555 1_555
C17 C18 1_555 1_555
C20 C26 1_555 1_555
C23 C24 1_555 1_555
C31 C32 1_555 1_555
C36 C42 1_555 1_555
C39 C40 1_555 1_555
C47 C48 1_555 1_555
C18B C17B 1_555 1_555
C7_2 C8_2 1_555 1_555
C9_2 C10_2 1_555 1_555
C11_2 C12_2 1_555 1_555
O2_2 C26_2 1_555 1_555
C20_2 C26_2 1_555 1_555
C23_2 C24_2 1_555 1_555
C31_2 C32_2 1_555 1_555
O6_2 C42_2 1_555 1_555
C36_2 C42_2 1_555 1_555
C39_2 C40_2 1_555 1_555
C47_2 C48_2 1_555 1_555

#END
