
#######################################################################
#
#                 Cambridge Crystallographic Data Centre
#                                CCDC 
#
#######################################################################
#
# If this CIF has been generated from an entry in the Cambridge 
# Structural Database, then it will include bibliographic, chemical, 
# crystal, experimental, refinement or atomic coordinate data resulting 
# from the CCDC's data processing and validation procedures.
#
#######################################################################

data_ARIBUZ
_symmetry_cell_setting           triclinic
_symmetry_space_group_name_H-M   'P -1'
_symmetry_Int_Tables_number      2
_space_group_name_Hall           '-P 1'
loop_
_symmetry_equiv_pos_site_id
_symmetry_equiv_pos_as_xyz
1 x,y,z
2 -x,-y,-z
_cell_length_a                   14.4745(4)
_cell_length_b                   18.5268(5)
_cell_length_c                   18.6685(5)
_cell_angle_alpha                80.728(2)
_cell_angle_beta                 88.149(2)
_cell_angle_gamma                76.515(2)
_cell_volume                     4804.56
loop_
_atom_site_label
_atom_site_type_symbol
_atom_site_fract_x
_atom_site_fract_y
_atom_site_fract_z
Pr2 Pr 0.815507(19) 0.751679(14) 0.542887(14)
P4 P 0.80748(10) 0.63916(7) 0.38816(7)
P5 P 1.08338(10) 0.71566(7) 0.51542(7)
P6 P 0.82066(9) 0.94915(7) 0.58139(6)
O13 O 0.8220(2) 0.67342(18) 0.45312(17)
O14 O 0.9784(2) 0.74516(19) 0.51640(19)
O15 O 0.8288(2) 0.86783(17) 0.57722(17)
N4 N 0.7195(3) 0.8476(2) 0.4110(2)
O16 O 0.6738(3) 0.8241(2) 0.46487(19)
O17 O 0.8085(3) 0.83882(19) 0.41881(18)
O18 O 0.6794(3) 0.8772(2) 0.3529(2)
N5 N 0.6317(3) 0.7284(3) 0.6089(2)
O19 O 0.6636(3) 0.7836(2) 0.6191(2)
O20 O 0.6873(3) 0.6781(2) 0.5794(2)
O21 O 0.5510(3) 0.7226(2) 0.6272(2)
N6 N 0.9098(3) 0.6368(3) 0.6685(2)
O22 O 0.8841(3) 0.7078(2) 0.67146(19)
O23 O 0.8957(3) 0.6180(2) 0.60820(19)
O24 O 0.9460(4) 0.5913(3) 0.7194(2)
C46 C 0.8811(4) 0.6630(3) 0.3138(3)
C47 C 0.8561(4) 0.7356(3) 0.2749(3)
H37 H 0.7993 0.7692 0.2863
C48 C 0.9150(4) 0.7594(3) 0.2190(3)
H38 H 0.8988 0.8091 0.1930
C49 C 0.9962(4) 0.7097(4) 0.2022(3)
H39 H 1.0350 0.7253 0.1636
C50 C 1.0230(4) 0.6364(4) 0.2409(3)
H40 H 1.0802 0.6030 0.2298
C51 C 0.9632(4) 0.6139(3) 0.2962(3)
H41 H 0.9792 0.5641 0.3220
C52 C 0.6864(4) 0.6674(3) 0.3577(3)
C53 C 0.6598(4) 0.6708(3) 0.2870(3)
H42 H 0.7069 0.6566 0.2520
C54 C 0.5664(4) 0.6942(4) 0.2665(3)
H43 H 0.5490 0.6963 0.2175
C55 C 0.4980(4) 0.7148(4) 0.3163(4)
H44 H 0.4336 0.7331 0.3011
C56 C 0.5215(4) 0.7092(4) 0.3888(4)
H45 H 0.4736 0.7212 0.4238
C57 C 0.6165(4) 0.6855(4) 0.4090(3)
H46 H 0.6340 0.6816 0.4583
C58 C 0.8367(4) 0.5386(3) 0.4119(3)
C59 C 0.8187(4) 0.4928(3) 0.3659(3)
H47 H 0.7912 0.5139 0.3195
C60 C 0.8414(4) 0.4138(3) 0.3877(3)
H48 H 0.8282 0.3818 0.3563
C61 C 1.1285(4) 0.7303(3) 0.4248(3)
C62 C 1.0738(4) 0.7838(3) 0.3725(3)
H49 H 1.0134 0.8118 0.3850
C63 C 1.1069(4) 0.7962(3) 0.3025(3)
H50 H 1.0708 0.8343 0.2674
C64 C 1.1918(5) 0.7534(4) 0.2839(3)
H51 H 1.2132 0.7612 0.2353
C65 C 1.2464(5) 0.6998(4) 0.3337(4)
H52 H 1.3052 0.6707 0.3196
C66 C 1.2162(4) 0.6876(4) 0.4047(4)
H53 H 1.2544 0.6507 0.4396
C67 C 1.1398(4) 0.7614(3) 0.5733(3)
C68 C 1.0896(5) 0.7883(4) 0.6304(3)
H54 H 1.0266 0.7823 0.6389
C69 C 1.1302(6) 0.8243(4) 0.6757(4)
H55 H 1.0949 0.8423 0.7156
C70 C 1.2189(7) 0.8344(4) 0.6642(5)
H56 H 1.2454 0.8602 0.6954
C71 C 1.2729(6) 0.8066(5) 0.6055(6)
H57 H 1.3360 0.8129 0.5978
C72 C 1.2329(5) 0.7700(4) 0.5593(4)
H58 H 1.2677 0.7515 0.5194
C73 C 1.1175(3) 0.6161(3) 0.5455(3)
C74 C 1.0991(4) 0.5698(3) 0.4994(3)
H59 H 1.0712 0.5909 0.4531
C75 C 0.8782(4) 0.5084(3) 0.4788(3)
H60 H 0.8915 0.5404 0.5101
C76 C 0.7125(3) 1.0068(3) 0.5386(3)
C77 C 0.6366(4) 1.0415(3) 0.5765(3)
H61 H 0.6419 1.0394 0.6274
C78 C 0.5512(4) 1.0799(3) 0.5408(3)
H62 H 0.4995 1.1055 0.5668
C79 C 0.5437(4) 1.0799(3) 0.4676(3)
H63 H 0.4860 1.1049 0.4429
C80 C 0.6175(4) 1.0447(3) 0.4307(3)
H64 H 0.6103 1.0442 0.3804
C81 C 0.7027(4) 1.0096(3) 0.4641(3)
H65 H 0.7549 0.9873 0.4366
C82 C 0.8216(3) 0.9629(3) 0.6749(3)
C83 C 0.8002(3) 1.0340(3) 0.6951(3)
H66 H 0.7851 1.0778 0.6594
C84 C 0.8014(4) 1.0398(3) 0.7684(3)
H67 H 0.7873 1.0880 0.7830
C85 C 0.8230(4) 0.9758(3) 0.8203(3)
H68 H 0.8229 0.9806 0.8702
C86 C 0.8444(4) 0.9057(3) 0.8007(3)
H69 H 0.8595 0.8620 0.8366
C87 C 0.8439(3) 0.8995(3) 0.7272(3)
H70 H 0.8589 0.8511 0.7130
C88 C 0.9212(3) 0.9787(3) 0.5356(3)
C89 C 0.9771(4) 0.9335(3) 0.4916(3)
H71 H 0.9630 0.8872 0.4857
C90 C 0.9455(5) 1.0445(3) 0.5444(3)
H72 H 0.9087 1.0755 0.5758
Pr2A Pr 1.184493(19) 0.248321(14) 0.457113(14)
Pr2A_2 Pr 1.184493(19) 1.248321(14) 0.457113(14)
P4A P 1.19252(10) 0.36084(7) 0.61184(7)
P5A P 0.91662(10) 0.28434(7) 0.48458(7)
P6A P 1.17934(9) 1.05085(7) 0.41861(6)
O13A O 1.1780(2) 0.32658(18) 0.54688(17)
O13A_2 O 1.1780(2) 1.32658(18) 0.54688(17)
O14A O 1.0216(2) 0.25484(19) 0.48360(19)
O14A_2 O 1.0216(2) 1.25484(19) 0.48360(19)
O15A O 1.1712(2) 1.13217(17) 0.42278(17)
N4A N 1.2805(3) 1.1524(2) 0.5890(2)
O16A O 1.3262(3) 1.1759(2) 0.53513(19)
O17A O 1.1915(3) 1.16118(19) 0.58119(18)
O18A O 1.3206(3) 1.1228(2) 0.6471(2)
N5A N 1.3683(3) 1.2716(3) 0.3911(2)
O19A O 1.3364(3) 1.2164(2) 0.3809(2)
O20A O 1.3127(3) 1.3219(2) 0.4206(2)
O21A O 1.4490(3) 1.2774(2) 0.3728(2)
N6A N 1.0902(3) 1.3632(3) 0.3315(2)
O22A O 1.1159(3) 1.2922(2) 0.32854(19)
O23A O 1.1043(3) 1.3820(2) 0.39180(19)
O24A O 1.0540(4) 1.4087(3) 0.2806(2)
C46A C 1.1189(4) 0.3370(3) 0.6862(3)
C47A C 1.1439(4) 0.2644(3) 0.7251(3)
H37A H 1.2007 0.2308 0.7137
C48A C 1.0850(4) 0.2406(3) 0.7810(3)
H38A H 1.1012 0.1909 0.8070
C49A C 1.0038(4) 0.2903(4) 0.7978(3)
H39A H 0.9650 0.2747 0.8364
C50A C 0.9770(4) 0.3636(4) 0.7591(3)
H40A H 0.9198 0.3970 0.7702
C51A C 1.0368(4) 0.3861(3) 0.7038(3)
H41A H 1.0208 0.4359 0.6780
C52A C 1.3136(4) 0.3326(3) 0.6423(3)
C53A C 1.3402(4) 0.3292(3) 0.7130(3)
H42A H 1.2931 0.3434 0.7480
C54A C 1.4336(4) 0.3058(4) 0.7335(3)
H43A H 1.4510 0.3037 0.7825
C55A C 1.5020(4) 0.2852(4) 0.6837(4)
H44A H 1.5664 0.2669 0.6989
C56A C 1.4785(4) 0.2908(4) 0.6112(4)
H45A H 1.5264 0.2788 0.5762
C57A C 1.3835(4) 0.3145(4) 0.5910(3)
H46A H 1.3660 0.3184 0.5417
C58A C 1.1633(4) 0.4614(3) 0.5881(3)
C59A C 1.1813(4) 0.5072(3) 0.6341(3)
H47A H 1.2088 0.4861 0.6805
C60A C 1.1586(4) 0.5862(3) 0.6123(3)
H48A H 1.1718 0.6182 0.6437
C61A C 0.8715(4) 0.2697(3) 0.5752(3)
C62A C 0.9262(4) 0.2162(3) 0.6275(3)
H49A H 0.9866 0.1882 0.6150
C63A C 0.8931(4) 0.2038(3) 0.6975(3)
H50A H 0.9292 0.1657 0.7326
C64A C 0.8082(5) 0.2466(4) 0.7161(3)
H51A H 0.7868 0.2388 0.7647
C65A C 0.7536(5) 0.3002(4) 0.6663(4)
H52A H 0.6948 0.3293 0.6804
C66A C 0.7838(4) 0.3124(4) 0.5953(4)
H53A H 0.7456 0.3493 0.5604
C67A C 0.8602(4) 0.2386(3) 0.4267(3)
C68A C 0.9104(5) 0.2117(4) 0.3696(3)
H54A H 0.9734 0.2177 0.3611
C69A C 0.8698(6) 0.1757(4) 0.3243(4)
H55A H 0.9051 0.1577 0.2844
C70A C 0.7811(7) 0.1656(4) 0.3358(5)
H56A H 0.7546 0.1398 0.3046
C71A C 0.7271(6) 0.1934(5) 0.3945(6)
H57A H 0.6640 0.1871 0.4022
C72A C 0.7671(5) 0.2300(4) 0.4407(4)
H58A H 0.7323 0.2485 0.4806
C73A C 0.8825(3) 0.3839(3) 0.4545(3)
C74A C 0.9009(4) 0.4302(3) 0.5006(3)
H59A H 0.9288 0.4091 0.5469
C75A C 1.1218(4) 0.4916(3) 0.5212(3)
H60A H 1.1085 0.4596 0.4899
C76A C 1.2875(3) 0.9932(3) 0.4614(3)
C77A C 1.3634(4) 0.9585(3) 0.4235(3)
H61A H 1.3581 0.9606 0.3726
C78A C 1.4488(4) 0.9201(3) 0.4592(3)
H62A H 1.5005 0.8945 0.4332
C79A C 1.4563(4) 0.9201(3) 0.5324(3)
H63A H 1.5140 0.8951 0.5571
C80A C 1.3825(4) 0.9553(3) 0.5693(3)
H64A H 1.3897 0.9558 0.6196
C81A C 1.2973(4) 0.9904(3) 0.5359(3)
H65A H 1.2451 1.0127 0.5634
C82A C 1.1784(3) 1.0371(3) 0.3251(3)
C83A C 1.1998(3) 0.9660(3) 0.3049(3)
H66A H 1.2149 0.9222 0.3406
C84A C 1.1986(4) 0.9602(3) 0.2316(3)
H67A H 1.2127 0.9120 0.2170
C85A C 1.1770(4) 1.0242(3) 0.1797(3)
H68A H 1.1771 1.0194 0.1298
C86A C 1.1556(4) 1.0943(3) 0.1993(3)
H69A H 1.1405 1.1380 0.1634
C87A C 1.1561(3) 1.1005(3) 0.2728(3)
H70A H 1.1411 1.1489 0.2870
C88A C 1.0788(3) 1.0213(3) 0.4644(3)
C89A C 1.0229(4) 1.0665(3) 0.5084(3)
H71A H 1.0370 1.1128 0.5143
C90A C 1.0545(5) 0.9555(3) 0.4556(3)
H72A H 1.0913 0.9245 0.4242
O25 O -0.0969(4) 0.7770(3) -0.0119(4)
H73 H -0.0553 0.7634 -0.0425
C91 C -0.0835(7) 0.8420(5) 0.0104(4)
H74 H -0.1420 0.8672 0.0325
H75 H -0.0674 0.8758 -0.0316
H76 H -0.0316 0.8287 0.0460
O26 O 0.0258(4) 0.7430(4) -0.1261(4)
H77 H 0.0743 0.7609 -0.1292
C92 C 0.0481(7) 0.6719(6) -0.1509(6)
H78 H 0.0726 0.6780 -0.2005
H79 H -0.0095 0.6525 -0.1504
H80 H 0.0962 0.6365 -0.1190
O27 O 0.3844(8) 0.6375(5) -0.2066(6)
H81 H 0.3584 0.6783 -0.1928
C93 C 0.3513(13) 0.6362(6) -0.2707(6)
H82 H 0.2829 0.6389 -0.2675
H83 H 0.3835 0.5894 -0.2878
H84 H 0.3627 0.6792 -0.3049
Pr1 Pr 0.335356(19) 0.794929(14) 0.037252(14)
P1 P 0.33507(10) 0.58546(7) 0.09434(8)
P2 P 0.60620(9) 0.73789(7) 0.01657(7)
P3 P 0.34118(9) 0.96054(7) -0.11390(7)
O1 O 0.3319(3) 0.6676(2) 0.0780(2)
O2 O 0.5028(2) 0.73862(19) 0.02675(19)
O3 O 0.3450(2) 0.89977(17) -0.04973(17)
N1 N 0.2566(4) 0.7620(3) -0.0986(3)
O4 O 0.2022(3) 0.7871(2) -0.0497(2)
O5 O 0.3452(3) 0.7475(2) -0.08785(19)
O6 O 0.2241(4) 0.7524(3) -0.1551(3)
N2 N 0.1444(3) 0.8613(3) 0.0957(2)
O7 O 0.1764(2) 0.7905(2) 0.1034(2)
O8 O 0.1977(3) 0.90138(19) 0.06240(19)
O9 O 0.0678(3) 0.8886(2) 0.1194(2)
N3 N 0.4016(3) 0.8468(2) 0.1658(2)
O10 O 0.3673(3) 0.7892(2) 0.16980(19)
O11 O 0.4110(3) 0.8793(2) 0.10189(19)
O12 O 0.4233(3) 0.8693(2) 0.2183(2)
C1 C 0.2259(4) 0.5654(3) 0.0708(3)
C2 C 0.1468(4) 0.6238(3) 0.0630(3)
H1 H 0.1514 0.6742 0.0624
C3 C 0.0600(5) 0.6061(4) 0.0560(4)
H2 H 0.0038 0.6451 0.0496
C4 C 0.0537(5) 0.5321(4) 0.0581(4)
H3 H -0.0067 0.5205 0.0569
C5 C 0.1353(5) 0.4755(4) 0.0621(4)
H4 H 0.1317 0.4251 0.0607
C6 C 0.2202(4) 0.4924(3) 0.0679(4)
H5 H 0.2767 0.4537 0.0701
C7 C 0.3558(4) 0.5488(3) 0.1885(3)
C8 C 0.2956(5) 0.5077(3) 0.2300(3)
H6 H 0.2424 0.4985 0.2076
C9 C 0.3140(7) 0.4813(4) 0.3020(4)
H7 H 0.2738 0.4534 0.3293
C10 C 0.3890(7) 0.4948(4) 0.3347(4)
H8 H 0.4000 0.4765 0.3850
C11 C 0.4505(6) 0.5345(5) 0.2968(4)
H9 H 0.5035 0.5427 0.3203
C12 C 0.4322(5) 0.5620(4) 0.2230(3)
H10 H 0.4727 0.5901 0.1963
C13 C 0.4290(4) 0.5346(3) 0.0429(3)
C14 C 0.4383(4) 0.5657(3) -0.0292(3)
H11 H 0.3954 0.6112 -0.0489
C15 C 0.4914(4) 0.4682(3) 0.0723(3)
H12 H 0.4856 0.4466 0.1214
C16 C 0.6428(4) 0.7269(3) -0.0753(3)
C17 C 0.5845(4) 0.7030(3) -0.1179(3)
H13 H 0.5226 0.6992 -0.1018
C18 C 0.6165(4) 0.6842(3) -0.1853(3)
H14 H 0.5771 0.6665 -0.2148
C19 C 0.7054(4) 0.6914(3) -0.2086(3)
H15 H 0.7276 0.6781 -0.2543
C20 C 0.7616(4) 0.7171(3) -0.1673(3)
H16 H 0.8222 0.7229 -0.1850
C21 C 0.7327(4) 0.7352(3) -0.0996(3)
H17 H 0.7729 0.7527 -0.0705
C22 C 0.6791(4) 0.6571(3) 0.0735(3)
C23 C 0.7723(4) 0.6553(3) 0.0933(3)
H18 H 0.7988 0.6977 0.0783
C24 C 0.8254(4) 0.5912(3) 0.1348(3)
H19 H 0.8886 0.5894 0.1485
C25 C 0.7863(5) 0.5299(3) 0.1561(3)
H20 H 0.8229 0.4861 0.1847
C26 C 0.6945(5) 0.5319(3) 0.1364(3)
H21 H 0.6683 0.4894 0.1510
C27 C 0.6410(4) 0.5959(3) 0.0953(3)
H22 H 0.5776 0.5975 0.0820
C28 C 0.6341(3) 0.8199(3) 0.0405(3)
C29 C 0.6503(3) 0.8222(3) 0.1142(3)
H23 H 0.6547 0.7782 0.1493
C30 C 0.6598(4) 0.8875(3) 0.1352(3)
H24 H 0.6714 0.8881 0.1849
C31 C 0.2321(3) 0.9776(3) -0.1642(3)
C32 C 0.1536(4) 0.9596(3) -0.1285(3)
H25 H 0.1579 0.9386 -0.0784
C33 C 0.0692(4) 0.9720(3) -0.1654(3)
H26 H 0.0155 0.9587 -0.1409
C34 C 0.0620(4) 1.0038(3) -0.2386(3)
H27 H 0.0037 1.0122 -0.2640
C35 C 0.1401(4) 1.0230(3) -0.2737(3)
H28 H 0.1353 1.0454 -0.3233
C36 C 0.2252(4) 1.0100(3) -0.2372(3)
H29 H 0.2789 1.0230 -0.2617
C37 C 0.4355(3) 0.9387(3) -0.1759(2)
C38 C 0.4374(4) 0.8796(3) -0.2151(3)
H30 H 0.3875 0.8537 -0.2097
C39 C 0.5112(4) 0.8594(3) -0.2612(3)
H31 H 0.5115 0.8197 -0.2877
C40 C 0.5848(4) 0.8954(3) -0.2697(3)
H32 H 0.6358 0.8807 -0.3015
C41 C 0.5829(4) 0.9534(3) -0.2312(3)
H33 H 0.6332 0.9789 -0.2369
C42 C 0.5088(4) 0.9751(3) -0.1841(3)
H34 H 0.5088 1.0150 -0.1578
C43 C 0.3472(3) 1.0469(2) -0.0852(3)
C44 C 0.3641(4) 1.0481(3) -0.0122(3)
H35 H 0.3696 1.0037 0.0225
C45 C 0.6272(4) 0.8851(3) -0.0094(3)
H36 H 0.6163 0.8842 -0.0591
Pr1A Pr 0.664644(19) 1.205071(14) -0.037252(14)
Pr1A_2 Pr 0.664644(19) 0.205071(14) -0.037252(14)
P1A P 0.66493(10) 0.41454(7) -0.09434(8)
P2A P 0.39380(9) 1.26211(7) -0.01657(7)
P3A P 0.65882(9) 1.03946(7) 0.11390(7)
O1A O 0.6681(3) 1.3324(2) -0.0780(2)
O1A_2 O 0.6681(3) 0.3324(2) -0.0780(2)
O2A O 0.4972(2) 1.26138(19) -0.02675(19)
O2A_2 O 0.4972(2) 0.26138(19) -0.02675(19)
O3A O 0.6550(2) 1.10023(17) 0.04973(17)
O3A_2 O 0.6550(2) 0.10023(17) 0.04973(17)
N1A N 0.7434(4) 0.2380(3) 0.0986(3)
O4A O 0.7978(3) 1.2129(2) 0.0497(2)
O4A_2 O 0.7978(3) 0.2129(2) 0.0497(2)
O5A O 0.6548(3) 1.2525(2) 0.08785(19)
O5A_2 O 0.6548(3) 0.2525(2) 0.08785(19)
O6A O 0.7759(4) 0.2476(3) 0.1551(3)
N2A N 0.8556(3) 0.1387(3) -0.0957(2)
O7A O 0.8236(2) 1.2095(2) -0.1034(2)
O7A_2 O 0.8236(2) 0.2095(2) -0.1034(2)
O8A O 0.8023(3) 1.09862(19) -0.06240(19)
O8A_2 O 0.8023(3) 0.09862(19) -0.06240(19)
O9A O 0.9322(3) 0.1114(2) -0.1194(2)
N3A N 0.5984(3) 0.1532(2) -0.1658(2)
O10A O 0.6327(3) 1.2108(2) -0.16980(19)
O10A_2 O 0.6327(3) 0.2108(2) -0.16980(19)
O11A O 0.5890(3) 1.1207(2) -0.10189(19)
O11A_2 O 0.5890(3) 0.1207(2) -0.10189(19)
O12A O 0.5767(3) 0.1307(2) -0.2183(2)
C1A C 0.7741(4) 0.4346(3) -0.0708(3)
C2A C 0.8532(4) 0.3762(3) -0.0630(3)
H1A H 0.8486 0.3258 -0.0624
C3A C 0.9400(5) 0.3939(4) -0.0560(4)
H2A H 0.9962 0.3549 -0.0496
C4A C 0.9463(5) 0.4679(4) -0.0581(4)
H3A H 1.0067 0.4795 -0.0569
C5A C 0.8647(5) 0.5245(4) -0.0621(4)
H4A H 0.8683 0.5749 -0.0607
C6A C 0.7798(4) 0.5076(3) -0.0679(4)
H5A H 0.7233 0.5463 -0.0701
C7A C 0.6442(4) 0.4512(3) -0.1885(3)
C8A C 0.7044(5) 0.4923(3) -0.2300(3)
H6A H 0.7576 0.5015 -0.2076
C9A C 0.6860(7) 0.5187(4) -0.3020(4)
H7A H 0.7262 0.5466 -0.3293
C10A C 0.6110(7) 0.5052(4) -0.3347(4)
H8A H 0.6000 0.5235 -0.3850
C11A C 0.5495(6) 0.4655(5) -0.2968(4)
H9A H 0.4965 0.4573 -0.3203
C12A C 0.5678(5) 0.4380(4) -0.2230(3)
H10A H 0.5273 0.4099 -0.1963
C13A C 0.5710(4) 0.4654(3) -0.0429(3)
C14A C 0.5617(4) 0.4343(3) 0.0292(3)
H11A H 0.6046 0.3888 0.0489
C15A C 0.5086(4) 0.5318(3) -0.0723(3)
H12A H 0.5144 0.5534 -0.1214
C16A C 0.3572(4) 1.2731(3) 0.0753(3)
C17A C 0.4155(4) 1.2970(3) 0.1179(3)
H13A H 0.4774 1.3008 0.1018
C18A C 0.3835(4) 1.3158(3) 0.1853(3)
H14A H 0.4229 1.3335 0.2148
C19A C 0.2946(4) 1.3086(3) 0.2086(3)
H15A H 0.2724 1.3219 0.2543
C20A C 0.2384(4) 1.2829(3) 0.1673(3)
H16A H 0.1778 1.2771 0.1850
C21A C 0.2673(4) 1.2648(3) 0.0996(3)
H17A H 0.2271 1.2473 0.0705
C22A C 0.3209(4) 1.3429(3) -0.0735(3)
C23A C 0.2277(4) 1.3447(3) -0.0933(3)
H18A H 0.2012 1.3023 -0.0783
C24A C 0.1746(4) 1.4088(3) -0.1348(3)
H19A H 0.1114 1.4106 -0.1485
C25A C 0.2137(5) 1.4701(3) -0.1561(3)
H20A H 0.1771 1.5139 -0.1847
C26A C 0.3055(5) 1.4681(3) -0.1364(3)
H21A H 0.3317 1.5106 -0.1510
C27A C 0.3590(4) 1.4041(3) -0.0953(3)
H22A H 0.4224 1.4025 -0.0820
C28A C 0.3659(3) 1.1801(3) -0.0405(3)
C29A C 0.3497(3) 1.1778(3) -0.1142(3)
H23A H 0.3453 1.2218 -0.1493
C30A C 0.3402(4) 1.1125(3) -0.1352(3)
H24A H 0.3286 1.1119 -0.1849
C31A C 0.7679(3) 1.0224(3) 0.1642(3)
C32A C 0.8464(4) 1.0404(3) 0.1285(3)
H25A H 0.8421 1.0614 0.0784
C33A C 0.9308(4) 1.0280(3) 0.1654(3)
H26A H 0.9845 1.0413 0.1409
C34A C 0.9380(4) 0.9962(3) 0.2386(3)
H27A H 0.9963 0.9878 0.2640
C35A C 0.8599(4) 0.9770(3) 0.2737(3)
H28A H 0.8647 0.9546 0.3233
C36A C 0.7748(4) 0.9900(3) 0.2372(3)
H29A H 0.7211 0.9770 0.2617
C37A C 0.5645(3) 1.0613(3) 0.1759(2)
C38A C 0.5626(4) 1.1204(3) 0.2151(3)
H30A H 0.6125 1.1463 0.2097
C39A C 0.4888(4) 1.1406(3) 0.2612(3)
H31A H 0.4885 1.1803 0.2877
C40A C 0.4152(4) 1.1046(3) 0.2697(3)
H32A H 0.3642 1.1193 0.3015
C41A C 0.4171(4) 1.0466(3) 0.2312(3)
H33A H 0.3668 1.0211 0.2369
C42A C 0.4912(4) 1.0249(3) 0.1841(3)
H34A H 0.4912 0.9850 0.1578
C43A C 0.6528(3) 0.9531(2) 0.0852(3)
C44A C 0.6359(4) 0.9519(3) 0.0122(3)
H35A H 0.6304 0.9963 -0.0225
C45A C 0.3728(4) 1.1149(3) 0.0094(3)
H36A H 0.3837 1.1158 0.0591
loop_
_geom_bond_atom_site_label_1
_geom_bond_atom_site_label_2
_geom_bond_site_symmetry_1
_geom_bond_site_symmetry_2
Pr1 O1 1_555 1_555
P1 O1 1_555 1_555
P2 O2 1_555 1_555
P3 O3 1_555 1_555
O2 Pr1 1_555 1_555
O3 Pr1 1_555 1_555
N1 O4 1_555 1_555
O4 Pr1 1_555 1_555
O5 Pr1 1_555 1_555
O6 N1 1_555 1_555
N2 O7 1_555 1_555
O7 Pr1 1_555 1_555
O8 Pr1 1_555 1_555
O9 N2 1_555 1_555
N3 O10 1_555 1_555
O10 Pr1 1_555 1_555
O11 Pr1 1_555 1_555
O12 N3 1_555 1_555
C1 P1 1_555 1_555
C2 C1 1_555 1_555
H1 C2 1_555 1_555
C3 C2 1_555 1_555
H2 C3 1_555 1_555
C4 C3 1_555 1_555
H3 C4 1_555 1_555
C5 C4 1_555 1_555
H4 C5 1_555 1_555
C6 C1 1_555 1_555
H5 C6 1_555 1_555
C7 P1 1_555 1_555
C8 C7 1_555 1_555
H6 C8 1_555 1_555
C9 C8 1_555 1_555
H7 C9 1_555 1_555
C10 C9 1_555 1_555
H8 C10 1_555 1_555
C11 C10 1_555 1_555
H9 C11 1_555 1_555
C12 C7 1_555 1_555
H10 C12 1_555 1_555
C13 P1 1_555 1_555
C14 C13 1_555 1_555
H11 C14 1_555 1_555
C15 C13 1_555 1_555
H12 C15 1_555 1_555
C16 P2 1_555 1_555
C17 C16 1_555 1_555
H13 C17 1_555 1_555
C18 C17 1_555 1_555
H14 C18 1_555 1_555
C19 C18 1_555 1_555
H15 C19 1_555 1_555
C20 C19 1_555 1_555
H16 C20 1_555 1_555
C21 C16 1_555 1_555
H17 C21 1_555 1_555
C22 P2 1_555 1_555
C23 C22 1_555 1_555
H18 C23 1_555 1_555
C24 C23 1_555 1_555
H19 C24 1_555 1_555
C25 C24 1_555 1_555
H20 C25 1_555 1_555
C26 C25 1_555 1_555
H21 C26 1_555 1_555
C27 C22 1_555 1_555
H22 C27 1_555 1_555
C28 P2 1_555 1_555
C29 C28 1_555 1_555
H23 C29 1_555 1_555
C30 C29 1_555 1_555
H24 C30 1_555 1_555
C31 P3 1_555 1_555
C32 C31 1_555 1_555
H25 C32 1_555 1_555
C33 C32 1_555 1_555
H26 C33 1_555 1_555
C34 C33 1_555 1_555
H27 C34 1_555 1_555
C35 C34 1_555 1_555
H28 C35 1_555 1_555
C36 C31 1_555 1_555
H29 C36 1_555 1_555
C37 P3 1_555 1_555
C38 C37 1_555 1_555
H30 C38 1_555 1_555
C39 C38 1_555 1_555
H31 C39 1_555 1_555
C40 C39 1_555 1_555
H32 C40 1_555 1_555
C41 C40 1_555 1_555
H33 C41 1_555 1_555
C42 C37 1_555 1_555
H34 C42 1_555 1_555
C43 P3 1_555 1_555
C44 C43 1_555 1_555
H35 C44 1_555 1_555
C45 C28 1_555 1_555
H36 C45 1_555 1_555
Pr2 O13 1_555 1_555
P4 O13 1_555 1_555
P5 O14 1_555 1_555
P6 O15 1_555 1_555
O14 Pr2 1_555 1_555
O15 Pr2 1_555 1_555
N4 O16 1_555 1_555
O16 Pr2 1_555 1_555
O17 Pr2 1_555 1_555
O18 N4 1_555 1_555
N5 O19 1_555 1_555
O19 Pr2 1_555 1_555
O20 Pr2 1_555 1_555
O21 N5 1_555 1_555
N6 O22 1_555 1_555
O22 Pr2 1_555 1_555
O23 Pr2 1_555 1_555
O24 N6 1_555 1_555
C46 P4 1_555 1_555
C47 C46 1_555 1_555
H37 C47 1_555 1_555
C48 C47 1_555 1_555
H38 C48 1_555 1_555
C49 C48 1_555 1_555
H39 C49 1_555 1_555
C50 C49 1_555 1_555
H40 C50 1_555 1_555
C51 C46 1_555 1_555
H41 C51 1_555 1_555
C52 P4 1_555 1_555
C53 C52 1_555 1_555
H42 C53 1_555 1_555
C54 C53 1_555 1_555
H43 C54 1_555 1_555
C55 C54 1_555 1_555
H44 C55 1_555 1_555
C56 C55 1_555 1_555
H45 C56 1_555 1_555
C57 C52 1_555 1_555
H46 C57 1_555 1_555
C58 P4 1_555 1_555
C59 C58 1_555 1_555
H47 C59 1_555 1_555
C60 C59 1_555 1_555
H48 C60 1_555 1_555
C61 P5 1_555 1_555
C62 C61 1_555 1_555
H49 C62 1_555 1_555
C63 C62 1_555 1_555
H50 C63 1_555 1_555
C64 C63 1_555 1_555
H51 C64 1_555 1_555
C65 C64 1_555 1_555
H52 C65 1_555 1_555
C66 C61 1_555 1_555
H53 C66 1_555 1_555
C67 P5 1_555 1_555
C68 C67 1_555 1_555
H54 C68 1_555 1_555
C69 C68 1_555 1_555
H55 C69 1_555 1_555
C70 C69 1_555 1_555
H56 C70 1_555 1_555
C71 C70 1_555 1_555
H57 C71 1_555 1_555
C72 C67 1_555 1_555
H58 C72 1_555 1_555
C73 P5 1_555 1_555
C74 C73 1_555 1_555
H59 C74 1_555 1_555
C75 C58 1_555 1_555
H60 C75 1_555 1_555
C76 P6 1_555 1_555
C77 C76 1_555 1_555
H61 C77 1_555 1_555
C78 C77 1_555 1_555
H62 C78 1_555 1_555
C79 C78 1_555 1_555
H63 C79 1_555 1_555
C80 C79 1_555 1_555
H64 C80 1_555 1_555
C81 C76 1_555 1_555
H65 C81 1_555 1_555
C82 P6 1_555 1_555
C83 C82 1_555 1_555
H66 C83 1_555 1_555
C84 C83 1_555 1_555
H67 C84 1_555 1_555
C85 C84 1_555 1_555
H68 C85 1_555 1_555
C86 C85 1_555 1_555
H69 C86 1_555 1_555
C87 C82 1_555 1_555
H70 C87 1_555 1_555
C88 P6 1_555 1_555
C89 C88 1_555 1_555
H71 C89 1_555 1_555
C90 C88 1_555 1_555
H72 C90 1_555 1_555
O25 H73 1_555 1_555
C91 O25 1_555 1_555
H74 C91 1_555 1_555
H75 C91 1_555 1_555
H76 C91 1_555 1_555
O26 H77 1_555 1_555
C92 O26 1_555 1_555
H78 C92 1_555 1_555
H79 C92 1_555 1_555
H80 C92 1_555 1_555
O27 H81 1_555 1_555
C93 O27 1_555 1_555
H82 C93 1_555 1_555
H83 C93 1_555 1_555
H84 C93 1_555 1_555
Pr1A O1A 1_555 1_555
Pr1A_2 O1A_2 1_555 1_555
P1A O1A_2 1_555 1_555
P2A O2A 1_555 1_555
P3A O3A 1_555 1_555
O2A Pr1A 1_555 1_555
O2A_2 Pr1A_2 1_555 1_555
O3A Pr1A 1_555 1_555
O3A_2 Pr1A_2 1_555 1_555
N1A O4A_2 1_555 1_555
O4A Pr1A 1_555 1_555
O4A_2 Pr1A_2 1_555 1_555
O5A Pr1A 1_555 1_555
O5A_2 Pr1A_2 1_555 1_555
O6A N1A 1_555 1_555
N2A O7A_2 1_555 1_555
O7A Pr1A 1_555 1_555
O7A_2 Pr1A_2 1_555 1_555
O8A Pr1A 1_555 1_555
O8A_2 Pr1A_2 1_555 1_555
O9A N2A 1_555 1_555
N3A O10A_2 1_555 1_555
O10A Pr1A 1_555 1_555
O10A_2 Pr1A_2 1_555 1_555
O11A Pr1A 1_555 1_555
O11A_2 Pr1A_2 1_555 1_555
O12A N3A 1_555 1_555
C1A P1A 1_555 1_555
C2A C1A 1_555 1_555
H1A C2A 1_555 1_555
C3A C2A 1_555 1_555
H2A C3A 1_555 1_555
C4A C3A 1_555 1_555
H3A C4A 1_555 1_555
C5A C4A 1_555 1_555
H4A C5A 1_555 1_555
C6A C1A 1_555 1_555
H5A C6A 1_555 1_555
C7A P1A 1_555 1_555
C8A C7A 1_555 1_555
H6A C8A 1_555 1_555
C9A C8A 1_555 1_555
H7A C9A 1_555 1_555
C10A C9A 1_555 1_555
H8A C10A 1_555 1_555
C11A C10A 1_555 1_555
H9A C11A 1_555 1_555
C12A C7A 1_555 1_555
H10A C12A 1_555 1_555
C13A P1A 1_555 1_555
C14A C15 1_555 1_555
H11A C14A 1_555 1_555
C15A C14 1_555 1_555
H12A C15A 1_555 1_555
C16A P2A 1_555 1_555
C17A C16A 1_555 1_555
H13A C17A 1_555 1_555
C18A C17A 1_555 1_555
H14A C18A 1_555 1_555
C19A C18A 1_555 1_555
H15A C19A 1_555 1_555
C20A C19A 1_555 1_555
H16A C20A 1_555 1_555
C21A C16A 1_555 1_555
H17A C21A 1_555 1_555
C22A P2A 1_555 1_555
C23A C22A 1_555 1_555
H18A C23A 1_555 1_555
C24A C23A 1_555 1_555
H19A C24A 1_555 1_555
C25A C24A 1_555 1_555
H20A C25A 1_555 1_555
C26A C25A 1_555 1_555
H21A C26A 1_555 1_555
C27A C22A 1_555 1_555
H22A C27A 1_555 1_555
C28A P2A 1_555 1_555
C29A C28A 1_555 1_555
H23A C29A 1_555 1_555
C30A C43 1_555 1_555
H24A C30A 1_555 1_555
C31A P3A 1_555 1_555
C32A C31A 1_555 1_555
H25A C32A 1_555 1_555
C33A C32A 1_555 1_555
H26A C33A 1_555 1_555
C34A C33A 1_555 1_555
H27A C34A 1_555 1_555
C35A C34A 1_555 1_555
H28A C35A 1_555 1_555
C36A C31A 1_555 1_555
H29A C36A 1_555 1_555
C37A P3A 1_555 1_555
C38A C37A 1_555 1_555
H30A C38A 1_555 1_555
C39A C38A 1_555 1_555
H31A C39A 1_555 1_555
C40A C39A 1_555 1_555
H32A C40A 1_555 1_555
C41A C40A 1_555 1_555
H33A C41A 1_555 1_555
C42A C37A 1_555 1_555
H34A C42A 1_555 1_555
C43A C30 1_555 1_555
C44A C45 1_555 1_555
H35A C44A 1_555 1_555
C45A C44 1_555 1_555
H36A C45A 1_555 1_555
Pr2A O13A 1_555 1_555
Pr2A_2 O13A_2 1_555 1_555
P4A O13A 1_555 1_555
P5A O14A 1_555 1_555
P6A O15A 1_555 1_555
O14A Pr2A 1_555 1_555
O14A_2 Pr2A_2 1_555 1_555
O15A Pr2A_2 1_555 1_555
N4A O16A 1_555 1_555
O16A Pr2A_2 1_555 1_555
O17A Pr2A_2 1_555 1_555
O18A N4A 1_555 1_555
N5A O19A 1_555 1_555
O19A Pr2A_2 1_555 1_555
O20A Pr2A_2 1_555 1_555
O21A N5A 1_555 1_555
N6A O22A 1_555 1_555
O22A Pr2A_2 1_555 1_555
O23A Pr2A_2 1_555 1_555
O24A N6A 1_555 1_555
C46A P4A 1_555 1_555
C47A C46A 1_555 1_555
H37A C47A 1_555 1_555
C48A C47A 1_555 1_555
H38A C48A 1_555 1_555
C49A C48A 1_555 1_555
H39A C49A 1_555 1_555
C50A C49A 1_555 1_555
H40A C50A 1_555 1_555
C51A C46A 1_555 1_555
H41A C51A 1_555 1_555
C52A P4A 1_555 1_555
C53A C52A 1_555 1_555
H42A C53A 1_555 1_555
C54A C53A 1_555 1_555
H43A C54A 1_555 1_555
C55A C54A 1_555 1_555
H44A C55A 1_555 1_555
C56A C55A 1_555 1_555
H45A C56A 1_555 1_555
C57A C52A 1_555 1_555
H46A C57A 1_555 1_555
C58A P4A 1_555 1_555
C59A C58A 1_555 1_555
H47A C59A 1_555 1_555
C60A C73 1_555 1_555
H48A C60A 1_555 1_555
C61A P5A 1_555 1_555
C62A C61A 1_555 1_555
H49A C62A 1_555 1_555
C63A C62A 1_555 1_555
H50A C63A 1_555 1_555
C64A C63A 1_555 1_555
H51A C64A 1_555 1_555
C65A C64A 1_555 1_555
H52A C65A 1_555 1_555
C66A C61A 1_555 1_555
H53A C66A 1_555 1_555
C67A P5A 1_555 1_555
C68A C67A 1_555 1_555
H54A C68A 1_555 1_555
C69A C68A 1_555 1_555
H55A C69A 1_555 1_555
C70A C69A 1_555 1_555
H56A C70A 1_555 1_555
C71A C70A 1_555 1_555
H57A C71A 1_555 1_555
C72A C67A 1_555 1_555
H58A C72A 1_555 1_555
C73A C60 1_555 1_555
C74A C75 1_555 1_555
H59A C74A 1_555 1_555
C75A C74 1_555 1_555
H60A C75A 1_555 1_555
C76A P6A 1_555 1_555
C77A C76A 1_555 1_555
H61A C77A 1_555 1_555
C78A C77A 1_555 1_555
H62A C78A 1_555 1_555
C79A C78A 1_555 1_555
H63A C79A 1_555 1_555
C80A C79A 1_555 1_555
H64A C80A 1_555 1_555
C81A C76A 1_555 1_555
H65A C81A 1_555 1_555
C82A P6A 1_555 1_555
C83A C82A 1_555 1_555
H66A C83A 1_555 1_555
C84A C83A 1_555 1_555
H67A C84A 1_555 1_555
C85A C84A 1_555 1_555
H68A C85A 1_555 1_555
C86A C85A 1_555 1_555
H69A C86A 1_555 1_555
C87A C82A 1_555 1_555
H70A C87A 1_555 1_555
C88A P6A 1_555 1_555
C89A C90 1_555 1_555
H71A C89A 1_555 1_555
C90A C89 1_555 1_555
H72A C90A 1_555 1_555
N1 O5 1_555 1_555
N2 O8 1_555 1_555
N3 O11 1_555 1_555
C5 C6 1_555 1_555
C11 C12 1_555 1_555
C20 C21 1_555 1_555
C26 C27 1_555 1_555
C35 C36 1_555 1_555
C41 C42 1_555 1_555
N4 O17 1_555 1_555
N5 O20 1_555 1_555
N6 O23 1_555 1_555
C50 C51 1_555 1_555
C56 C57 1_555 1_555
C65 C66 1_555 1_555
C71 C72 1_555 1_555
C80 C81 1_555 1_555
C86 C87 1_555 1_555
P3A C43A 1_555 1_555
N1A O5A_2 1_555 1_555
N2A O8A_2 1_555 1_555
N3A O11A_2 1_555 1_555
C5A C6A 1_555 1_555
C11A C12A 1_555 1_555
C13A C14A 1_555 1_555
C13A C15A 1_555 1_555
C20A C21A 1_555 1_555
C26A C27A 1_555 1_555
C28A C45A 1_555 1_555
C29A C30A 1_555 1_555
C35A C36A 1_555 1_555
C41A C42A 1_555 1_555
C43A C44A 1_555 1_555
P5A C73A 1_555 1_555
N4A O17A 1_555 1_555
N5A O20A 1_555 1_555
N6A O23A 1_555 1_555
C50A C51A 1_555 1_555
C56A C57A 1_555 1_555
C58A C75A 1_555 1_555
C59A C60A 1_555 1_555
C65A C66A 1_555 1_555
C71A C72A 1_555 1_555
C73A C74A 1_555 1_555
C80A C81A 1_555 1_555
C86A C87A 1_555 1_555
C88A C89A 1_555 1_555
C88A C90A 1_555 1_555

#END
