
#######################################################################
#
#                 Cambridge Crystallographic Data Centre
#                                CCDC 
#
#######################################################################
#
# If this CIF has been generated from an entry in the Cambridge 
# Structural Database, then it will include bibliographic, chemical, 
# crystal, experimental, refinement or atomic coordinate data resulting 
# from the CCDC's data processing and validation procedures.
#
#######################################################################

data_ARIBOT
_symmetry_cell_setting           triclinic
_symmetry_space_group_name_H-M   'P -1'
_symmetry_Int_Tables_number      2
_space_group_name_Hall           '-P 1'
loop_
_symmetry_equiv_pos_site_id
_symmetry_equiv_pos_as_xyz
1 x,y,z
2 -x,-y,-z
_cell_length_a                   14.4567(13)
_cell_length_b                   18.552(6)
_cell_length_c                   18.740(5)
_cell_angle_alpha                80.64(2)
_cell_angle_beta                 88.090(12)
_cell_angle_gamma                76.410(15)
_cell_volume                     4820.25
loop_
_atom_site_label
_atom_site_type_symbol
_atom_site_fract_x
_atom_site_fract_y
_atom_site_fract_z
Nd2 Nd 0.816593(13) 0.751528(9) 0.543531(9)
P4 P 0.80697(6) 0.64101(5) 0.38862(4)
P5 P 0.91493(6) 0.28581(5) 0.48453(5)
P6 P 0.82044(6) 0.94860(4) 0.58152(4)
O13 O 0.82195(16) 0.67500(12) 0.45325(12)
O14 O 1.02049(17) 0.25572(12) 0.48275(12)
O15 O 0.82933(16) 0.86742(12) 0.57742(11)
N4 N 0.7226(2) 0.84878(16) 0.41271(16)
O16 O 0.67659(17) 0.82498(13) 0.46663(13)
O17 O 0.81207(18) 0.83864(13) 0.42071(12)
O18 O 0.6828(2) 0.87896(16) 0.35547(14)
N5 N 0.6331(2) 0.72738(17) 0.60870(15)
O19 O 0.66597(18) 0.78284(14) 0.61956(13)
O20 O 0.68898(19) 0.67823(13) 0.57777(13)
O21 O 0.5530(2) 0.72126(16) 0.62714(15)
N6 N 0.9110(2) 0.63790(17) 0.66749(16)
O22 O 0.88422(19) 0.70818(14) 0.67106(12)
O23 O 0.89683(19) 0.61890(13) 0.60773(13)
O24 O 0.9479(3) 0.59216(17) 0.71840(16)
C46 C 0.8803(2) 0.66513(19) 0.31321(17)
C47 C 0.8556(3) 0.7379(2) 0.27462(18)
H37 H 0.7994 0.7719 0.2867
C48 C 0.9127(3) 0.7609(2) 0.2186(2)
H38 H 0.8955 0.8103 0.1920
C49 C 0.9952(3) 0.7111(2) 0.2020(2)
H39 H 1.0349 0.7267 0.1641
C50 C 1.0201(3) 0.6387(2) 0.2401(2)
H40 H 1.0766 0.6048 0.2283
C51 C 0.9620(3) 0.6160(2) 0.29582(19)
H41 H 0.9788 0.5664 0.3220
C52 C 0.6852(3) 0.66932(19) 0.35897(19)
C53 C 0.6587(3) 0.6708(2) 0.28755(19)
H42 H 0.7056 0.6559 0.2528
C54 C 0.5636(3) 0.6943(2) 0.2680(2)
H43 H 0.5455 0.6948 0.2196
C55 C 0.4955(3) 0.7165(3) 0.3168(2)
H44 H 0.4308 0.7340 0.3020
C56 C 0.5206(3) 0.7138(3) 0.3880(3)
H45 H 0.4728 0.7284 0.4223
C57 C 0.6153(3) 0.6897(2) 0.4094(2)
H46 H 0.6323 0.6872 0.4584
C58 C 0.8359(2) 0.53992(18) 0.41260(17)
C59 C 0.8175(3) 0.49381(19) 0.36660(19)
H47 H 0.7897 0.5150 0.3205
C60 C 0.8398(3) 0.41640(19) 0.38775(19)
H48 H 0.8270 0.3846 0.3563
C61 C 0.8713(3) 0.27088(19) 0.57576(19)
C62 C 0.9263(3) 0.21662(19) 0.62624(19)
H49 H 0.9860 0.1882 0.6128
C63 C 0.8940(3) 0.2037(2) 0.6966(2)
H50 H 0.9307 0.1653 0.7311
C64 C 0.8079(3) 0.2470(2) 0.7166(2)
H51 H 0.7857 0.2382 0.7648
C65 C 0.7552(3) 0.3021(3) 0.6670(2)
H52 H 0.6972 0.3324 0.6813
C66 C 0.7850(3) 0.3143(2) 0.5963(2)
H53 H 0.7470 0.3519 0.5618
C67 C 0.8563(3) 0.24093(19) 0.4277(2)
C68 C 0.9064(3) 0.2132(2) 0.3699(2)
H54 H 0.9694 0.2192 0.3608
C69 C 0.8650(4) 0.1765(3) 0.3252(3)
H55 H 0.8994 0.1567 0.2859
C70 C 0.7724(5) 0.1695(3) 0.3392(3)
H56 H 0.7431 0.1450 0.3088
C71 C 0.7226(4) 0.1973(3) 0.3959(3)
H57 H 0.6592 0.1920 0.4043
C72 C 0.7636(3) 0.2333(2) 0.4416(3)
H58 H 0.7291 0.2523 0.4813
C73 C 0.8809(2) 0.38592(18) 0.45483(17)
C74 C 0.8996(3) 0.43164(19) 0.50101(19)
H59 H 0.9276 0.4102 0.5471
C75 C 0.8772(3) 0.50930(19) 0.47998(18)
H60 H 0.8901 0.5411 0.5114
C76 C 0.7129(2) 1.00679(17) 0.53851(18)
C77 C 0.6347(3) 1.0408(2) 0.5773(2)
H61 H 0.6393 1.0379 0.6282
C78 C 0.5504(3) 1.0788(2) 0.5412(2)
H62 H 0.4981 1.1035 0.5672
C79 C 0.5427(3) 1.0805(2) 0.4682(2)
H63 H 0.4846 1.1058 0.4440
C80 C 0.6179(3) 1.0462(2) 0.4298(2)
H64 H 0.6114 1.0472 0.3794
C81 C 0.7038(3) 1.0101(2) 0.46426(19)
H65 H 0.7563 0.9876 0.4372
C82 C 0.8214(2) 0.96252(18) 0.67468(17)
C83 C 0.8000(2) 1.03387(18) 0.69490(18)
H66 H 0.7856 1.0776 0.6592
C84 C 0.8000(3) 1.0400(2) 0.76753(18)
H67 H 0.7850 1.0883 0.7816
C85 C 0.8216(3) 0.9767(2) 0.81978(19)
H68 H 0.8210 0.9815 0.8695
C86 C 0.8439(3) 0.9065(2) 0.79944(19)
H69 H 0.8591 0.8630 0.8354
C87 C 0.8445(2) 0.89888(19) 0.72722(18)
H70 H 0.8606 0.8504 0.7136
C88 C 0.9208(2) 0.97917(17) 0.53531(16)
C89 C 0.9790(3) 0.9332(2) 0.4932(2)
H71 H 0.9657 0.8865 0.4881
C90 C 0.9432(3) 1.0460(2) 0.5419(2)
H72 H 0.9046 1.0785 0.5712
Nd2A Nd 1.183407(13) 0.248472(9) 0.456469(9)
Nd2A_2 Nd 1.183407(13) 1.248472(9) 0.456469(9)
P4A P 1.19303(6) 0.35899(5) 0.61138(4)
P4A_2 P 1.19303(6) 1.35899(5) 0.61138(4)
P5A P 1.08507(6) 0.71419(5) 0.51547(5)
P5_2 P 0.91493(6) 1.28581(5) 0.48453(5)
P6A P 1.17956(6) 1.05140(4) 0.41848(4)
P6A_2 P 1.17956(6) 0.05140(4) 0.41848(4)
O13A O 1.17805(16) 0.32500(12) 0.54675(12)
O13A_2 O 1.17805(16) 1.32500(12) 0.54675(12)
O14A O 0.97951(17) 0.74428(12) 0.51725(12)
O14_2 O 1.02049(17) 1.25572(12) 0.48275(12)
O15A O 1.17067(16) 1.13258(12) 0.42258(11)
O15A_2 O 1.17067(16) 0.13258(12) 0.42258(11)
N4A N 1.2774(2) 0.15122(16) 0.58729(16)
N4A_2 N 1.2774(2) 1.15122(16) 0.58729(16)
O16A O 1.32341(17) 0.17502(13) 0.53337(13)
O16A_2 O 1.32341(17) 1.17502(13) 0.53337(13)
O17A O 1.18793(18) 0.16136(13) 0.57929(12)
O17A_2 O 1.18793(18) 1.16136(13) 0.57929(12)
O18A O 1.3172(2) 0.12104(16) 0.64453(14)
N5A N 1.3669(2) 0.27262(17) 0.39130(15)
N5A_2 N 1.3669(2) 1.27262(17) 0.39130(15)
O19A O 1.33403(18) 0.21716(14) 0.38044(13)
O19A_2 O 1.33403(18) 1.21716(14) 0.38044(13)
O20A O 1.31102(19) 0.32177(13) 0.42223(13)
O20A_2 O 1.31102(19) 1.32177(13) 0.42223(13)
O21A O 1.4470(2) 0.27874(16) 0.37286(15)
N6A N 1.0890(2) 0.36210(17) 0.33251(16)
N6A_2 N 1.0890(2) 1.36210(17) 0.33251(16)
O22A O 1.11578(19) 0.29182(14) 0.32894(12)
O22A_2 O 1.11578(19) 1.29182(14) 0.32894(12)
O23A O 1.10317(19) 0.38110(13) 0.39227(13)
O23A_2 O 1.10317(19) 1.38110(13) 0.39227(13)
O24A O 1.0521(3) 0.40784(17) 0.28160(16)
C46A C 1.1197(2) 0.33487(19) 0.68679(17)
C47A C 1.1444(3) 0.2621(2) 0.72538(18)
H37A H 1.2006 0.2281 0.7133
C48A C 1.0873(3) 0.2391(2) 0.7814(2)
H38A H 1.1045 0.1897 0.8080
C49A C 1.0048(3) 0.2889(2) 0.7980(2)
H39A H 0.9651 0.2733 0.8359
C50A C 0.9799(3) 0.3613(2) 0.7599(2)
H40A H 0.9234 0.3952 0.7717
C51A C 1.0380(3) 0.3840(2) 0.70418(19)
H41A H 1.0212 0.4336 0.6780
C52A C 1.3148(3) 0.33068(19) 0.64103(19)
C53A C 1.3413(3) 0.3292(2) 0.71245(19)
H42A H 1.2944 0.3441 0.7472
C54A C 1.4364(3) 0.3057(2) 0.7320(2)
H43A H 1.4545 0.3052 0.7804
C55A C 1.5045(3) 0.2835(3) 0.6832(2)
H44A H 1.5692 0.2660 0.6980
C56A C 1.4794(3) 0.2862(3) 0.6120(3)
H45A H 1.5272 0.2716 0.5777
C57A C 1.3847(3) 0.3103(2) 0.5906(2)
H46A H 1.3677 0.3128 0.5416
C58A C 1.1641(2) 0.46008(18) 0.58740(17)
C59A C 1.1825(3) 0.50619(19) 0.63340(19)
H47A H 1.2103 0.4850 0.6795
C60A C 1.1602(3) 0.58360(19) 0.61225(19)
H48A H 1.1730 0.6154 0.6437
C61A C 1.1287(3) 0.72912(19) 0.42424(19)
C62A C 1.0737(3) 0.78338(19) 0.37376(19)
H49A H 1.0140 0.8118 0.3872
C63A C 1.1060(3) 0.7963(2) 0.3034(2)
H50A H 1.0693 0.8347 0.2689
C64A C 1.1921(3) 0.7530(2) 0.2834(2)
H51A H 1.2143 0.7618 0.2352
C65A C 1.2448(3) 0.6979(3) 0.3330(2)
H52A H 1.3028 0.6676 0.3187
C66A C 1.2150(3) 0.6857(2) 0.4037(2)
H53A H 1.2530 0.6481 0.4382
C67A C 1.1437(3) 0.75907(19) 0.5723(2)
C68A C 1.0936(3) 0.7868(2) 0.6301(2)
H54A H 1.0306 0.7808 0.6392
C69A C 1.1350(4) 0.8235(3) 0.6748(3)
H55A H 1.1006 0.8433 0.7141
C70A C 1.2276(5) 0.8305(3) 0.6608(3)
H56A H 1.2569 0.8550 0.6912
C71A C 1.2774(4) 0.8027(3) 0.6041(3)
H57A H 1.3408 0.8080 0.5957
C72A C 1.2364(3) 0.7667(2) 0.5584(3)
H58A H 1.2709 0.7477 0.5187
C73A C 1.1191(2) 0.61408(18) 0.54517(17)
C74A C 1.1004(3) 0.56836(19) 0.49899(19)
H59A H 1.0724 0.5898 0.4529
C75A C 1.1228(3) 0.49070(19) 0.52002(18)
H60A H 1.1099 0.4589 0.4886
C76A C 1.2871(2) 0.99321(17) 0.46149(18)
C76A_2 C 1.2871(2) -0.00679(17) 0.46149(18)
C77A C 1.3653(3) 0.9592(2) 0.4227(2)
H61A H 1.3607 0.9621 0.3718
C78A C 1.4496(3) 0.9212(2) 0.4588(2)
H62A H 1.5019 0.8965 0.4328
C79A C 1.4573(3) 0.9195(2) 0.5318(2)
H63A H 1.5154 0.8942 0.5560
C80A C 1.3821(3) 0.9538(2) 0.5702(2)
H64A H 1.3886 0.9528 0.6206
C81A C 1.2962(3) 0.9899(2) 0.53574(19)
H65A H 1.2437 1.0124 0.5628
C82A C 1.1786(2) 1.03748(18) 0.32532(17)
C82A_2 C 1.1786(2) 0.03748(18) 0.32532(17)
C83A C 1.2000(2) 0.96613(18) 0.30510(18)
H66A H 1.2144 0.9224 0.3408
C84A C 1.2000(3) 0.9600(2) 0.23247(18)
H67A H 1.2150 0.9117 0.2184
C85A C 1.1784(3) 1.0233(2) 0.18022(19)
H68A H 1.1790 1.0185 0.1305
C86A C 1.1561(3) 1.0935(2) 0.20056(19)
H69A H 1.1409 1.1370 0.1646
C87A C 1.1555(2) 1.10112(19) 0.27278(18)
H70A H 1.1394 1.1496 0.2864
C88A C 1.0792(2) 1.02083(17) 0.46469(16)
C88A_2 C 1.0792(2) 0.02083(17) 0.46469(16)
C89A C 1.0210(3) 1.0668(2) 0.5068(2)
H71A H 1.0343 1.1135 0.5119
C90A C 1.0568(3) 0.9540(2) 0.4581(2)
H72A H 1.0954 0.9215 0.4288
O25 O -0.0972(3) 0.7786(2) -0.0123(3)
H73 H -0.0602 0.7685 -0.0467
C91 C -0.0844(5) 0.8443(3) 0.0103(3)
H74 H -0.0700 0.8341 0.0622
H75 H -0.1427 0.8840 0.0008
H76 H -0.0315 0.8605 -0.0164
O26 O 0.0264(3) 0.7448(3) -0.1262(3)
H77 H 0.0765 0.7590 -0.1211
C92 C 0.0500(5) 0.6736(4) -0.1522(4)
H78 H 0.0893 0.6777 -0.1957
H79 H -0.0086 0.6600 -0.1639
H80 H 0.0854 0.6348 -0.1147
O27 O 0.3847(5) 0.6364(3) -0.2056(3)
H81 H 0.3571 0.6770 -0.1920
C93 C 0.3547(8) 0.6352(4) -0.2718(4)
H82 H 0.2854 0.6414 -0.2715
H83 H 0.3851 0.5870 -0.2870
H84 H 0.3714 0.6762 -0.3057
C94 C 0.4622(11) 0.5678(8) 0.5162(11)
H85 H 0.4440 0.6064 0.5474
H86 H 0.4530 0.5914 0.4655
H87 H 0.5292 0.5421 0.5247
O28 O 0.4059(4) 0.5161(4) 0.5320(3)
H88 H 0.3853 0.5081 0.4933
Nd1 Nd 0.334999(13) 0.795148(9) 0.037422(9)
P1 P 0.33398(7) 0.58625(5) 0.09331(5)
P2 P 0.60565(6) 0.73842(5) 0.01715(5)
P3 P 0.65859(6) 1.04031(5) 0.11371(4)
O1 O 0.33186(18) 0.66822(13) 0.07747(13)
O2 O 0.50172(17) 0.73925(12) 0.02698(12)
O3 O 0.65503(17) 1.10096(12) 0.04932(12)
N1 N 0.2578(3) 0.76264(18) -0.09774(17)
O4 O 0.20276(19) 0.78758(14) -0.04848(13)
O5 O 0.34586(19) 0.74734(14) -0.08616(13)
O6 O 0.2248(2) 0.7541(2) -0.15497(17)
N2 N 0.1449(2) 0.86082(17) 0.09599(15)
O7 O 0.17800(18) 0.79003(13) 0.10326(13)
O8 O 0.19757(18) 0.90113(13) 0.06251(13)
O9 O 0.06812(19) 0.88817(16) 0.12023(16)
N3 N 0.4010(2) 0.84714(16) 0.16384(15)
O10 O 0.36761(18) 0.78871(13) 0.16883(12)
O11 O 0.41002(18) 0.87980(13) 0.10042(12)
O12 O 0.4230(2) 0.86968(15) 0.21614(14)
C1 C 0.2249(3) 0.5665(2) 0.0694(2)
C2 C 0.1444(3) 0.6244(2) 0.0616(2)
H1 H 0.1489 0.6747 0.0610
C3 C 0.0566(3) 0.6076(3) 0.0547(3)
H2 H 0.0004 0.6467 0.0482
C4 C 0.0513(3) 0.5333(3) 0.0573(3)
H3 H -0.0090 0.5214 0.0564
C5 C 0.1334(3) 0.4765(3) 0.0614(3)
H4 H 0.1295 0.4262 0.0605
C6 C 0.2194(3) 0.4927(2) 0.0666(2)
H5 H 0.2760 0.4540 0.0683
C7 C 0.3536(3) 0.54898(19) 0.1883(2)
C8 C 0.2946(4) 0.5079(2) 0.2286(2)
H6 H 0.2420 0.4985 0.2056
C9 C 0.3115(4) 0.4809(2) 0.3008(3)
H7 H 0.2699 0.4543 0.3280
C10 C 0.3905(5) 0.4930(3) 0.3337(3)
H8 H 0.4040 0.4727 0.3831
C11 C 0.4490(4) 0.5340(3) 0.2954(3)
H9 H 0.5018 0.5431 0.3183
C12 C 0.4296(4) 0.5620(3) 0.2226(2)
H10 H 0.4696 0.5906 0.1960
C13 C 0.4284(3) 0.53509(18) 0.04203(19)
C14 C 0.4379(3) 0.56610(19) -0.0299(2)
H11 H 0.3950 0.6115 -0.0500
C15 C 0.4908(3) 0.46879(19) 0.0722(2)
H12 H 0.4844 0.4477 0.1213
C16 C 0.6430(3) 0.72751(17) -0.07425(18)
C17 C 0.5843(3) 0.70250(19) -0.11676(18)
H13 H 0.5228 0.6980 -0.1002
C18 C 0.6162(3) 0.6839(2) -0.1842(2)
H14 H 0.5766 0.6664 -0.2136
C19 C 0.7058(3) 0.6912(2) -0.2079(2)
H15 H 0.7280 0.6777 -0.2533
C20 C 0.7628(3) 0.7178(2) -0.1665(2)
H16 H 0.8233 0.7240 -0.1841
C21 C 0.7327(3) 0.7359(2) -0.0985(2)
H17 H 0.7726 0.7535 -0.0695
C22 C 0.6782(3) 0.65800(18) 0.07437(18)
C23 C 0.7719(3) 0.6558(2) 0.09382(19)
H18 H 0.7988 0.6978 0.0783
C24 C 0.8243(3) 0.5924(2) 0.1355(2)
H19 H 0.8871 0.5913 0.1500
C25 C 0.7867(3) 0.5301(2) 0.1566(2)
H20 H 0.8240 0.4862 0.1847
C26 C 0.6948(3) 0.5320(2) 0.1368(2)
H21 H 0.6687 0.4895 0.1513
C27 C 0.6405(3) 0.5962(2) 0.0955(2)
H22 H 0.5773 0.5975 0.0819
C28 C 0.6334(2) 0.82131(18) 0.04118(17)
C29 C 0.6495(3) 0.82300(18) 0.11394(18)
H23 H 0.6541 0.7788 0.1486
C30 C 0.6587(3) 0.88835(18) 0.13561(18)
H24 H 0.6698 0.8892 0.1851
C31 C 0.7672(2) 1.02301(18) 0.16406(17)
C32 C 0.8472(3) 1.04100(19) 0.1282(2)
H25 H 0.8436 1.0617 0.0782
C33 C 0.9314(3) 1.0283(2) 0.1659(2)
H26 H 0.9858 1.0409 0.1421
C34 C 0.9369(3) 0.9973(2) 0.2388(2)
H27 H 0.9948 0.9893 0.2645
C35 C 0.8593(3) 0.9780(2) 0.2738(2)
H28 H 0.8640 0.9554 0.3232
C36 C 0.7740(3) 0.9916(2) 0.23695(19)
H29 H 0.7198 0.9794 0.2615
C37 C 0.5631(2) 1.06287(17) 0.17545(17)
C38 C 0.5622(3) 1.12113(18) 0.21415(18)
H30 H 0.6124 1.1467 0.2083
C39 C 0.4882(3) 1.14187(19) 0.26120(18)
H31 H 0.4880 1.1814 0.2877
C40 C 0.4154(3) 1.1053(2) 0.26946(19)
H32 H 0.3647 1.1196 0.3017
C41 C 0.4155(3) 1.0477(2) 0.2310(2)
H33 H 0.3647 1.0227 0.2368
C42 C 0.4891(2) 1.02610(19) 0.18410(18)
H34 H 0.4890 0.9863 0.1579
C43 C 0.6516(2) 0.95348(17) 0.08477(17)
C44 C 0.6367(3) 0.95190(18) 0.01246(18)
H35 H 0.6328 0.9960 -0.0222
C45 C 0.6273(3) 0.88550(18) -0.00943(18)
H36 H 0.6167 0.8844 -0.0590
Nd1A Nd 0.665001(13) 0.204852(9) -0.037422(9)
Nd1A_2 Nd 0.665001(13) 1.204852(9) -0.037422(9)
P1A P 0.66602(7) 0.41375(5) -0.09331(5)
P1A_2 P 0.66602(7) 1.41375(5) -0.09331(5)
P2A P 0.39435(6) 1.26158(5) -0.01715(5)
P2A_2 P 0.39435(6) 0.26158(5) -0.01715(5)
P3A P 0.34141(6) 0.95969(5) -0.11371(4)
P3_2 P 0.65859(6) 0.04031(5) 0.11371(4)
O1A O 0.66814(18) 0.33178(13) -0.07747(13)
O1A_2 O 0.66814(18) 1.33178(13) -0.07747(13)
O2A O 0.49828(17) 1.26075(12) -0.02698(12)
O2A_2 O 0.49828(17) 0.26075(12) -0.02698(12)
O3A O 0.34497(17) 0.89904(12) -0.04932(12)
O3_2 O 0.65503(17) 0.10096(12) 0.04932(12)
N1A N 0.7422(3) 0.23736(18) 0.09774(17)
N1A_2 N 0.7422(3) 1.23736(18) 0.09774(17)
O4A O 0.79724(19) 0.21242(14) 0.04848(13)
O4A_2 O 0.79724(19) 1.21242(14) 0.04848(13)
O5A O 0.65414(19) 0.25266(14) 0.08616(13)
O5A_2 O 0.65414(19) 1.25266(14) 0.08616(13)
O6A O 0.7752(2) 0.2459(2) 0.15497(17)
N2A N 0.8551(2) 0.13918(17) -0.09599(15)
N2A_2 N 0.8551(2) 1.13918(17) -0.09599(15)
O7A O 0.82200(18) 0.20997(13) -0.10326(13)
O7A_2 O 0.82200(18) 1.20997(13) -0.10326(13)
O8A O 0.80243(18) 0.09887(13) -0.06251(13)
O8A_2 O 0.80243(18) 1.09887(13) -0.06251(13)
O9A O 0.93188(19) 0.11183(16) -0.12023(16)
N3A N 0.5990(2) 0.15286(16) -0.16384(15)
N3A_2 N 0.5990(2) 1.15286(16) -0.16384(15)
O10A O 0.63239(18) 0.21129(13) -0.16883(12)
O10A_2 O 0.63239(18) 1.21129(13) -0.16883(12)
O11A O 0.58998(18) 0.12020(13) -0.10042(12)
O11A_2 O 0.58998(18) 1.12020(13) -0.10042(12)
O12A O 0.5770(2) 0.13032(15) -0.21614(14)
C1A C 0.7751(3) 0.4335(2) -0.0694(2)
C2A C 0.8556(3) 0.3756(2) -0.0616(2)
H1A H 0.8511 0.3253 -0.0610
C3A C 0.9434(3) 0.3924(3) -0.0547(3)
H2A H 0.9996 0.3533 -0.0482
C4A C 0.9487(3) 0.4667(3) -0.0573(3)
H3A H 1.0090 0.4786 -0.0564
C5A C 0.8666(3) 0.5235(3) -0.0614(3)
H4A H 0.8705 0.5738 -0.0605
C6A C 0.7806(3) 0.5073(2) -0.0666(2)
H5A H 0.7240 0.5460 -0.0683
C7A C 0.6464(3) 0.45102(19) -0.1883(2)
C8A C 0.7054(4) 0.4921(2) -0.2286(2)
H6A H 0.7580 0.5015 -0.2056
C9A C 0.6885(4) 0.5191(2) -0.3008(3)
H7A H 0.7301 0.5457 -0.3280
C10A C 0.6095(5) 0.5070(3) -0.3337(3)
H8A H 0.5960 0.5273 -0.3831
C11A C 0.5510(4) 0.4660(3) -0.2954(3)
H9A H 0.4982 0.4569 -0.3183
C12A C 0.5704(4) 0.4380(3) -0.2226(2)
H10A H 0.5304 0.4094 -0.1960
C13A C 0.5716(3) 0.46491(18) -0.04203(19)
C14A C 0.5621(3) 0.43390(19) 0.0299(2)
H11A H 0.6050 0.3885 0.0500
C15A C 0.5092(3) 0.53121(19) -0.0722(2)
H12A H 0.5156 0.5523 -0.1213
C16A C 0.3570(3) 1.27249(17) 0.07425(18)
C16A_2 C 0.3570(3) 0.27249(17) 0.07425(18)
C17A C 0.4157(3) 1.29750(19) 0.11676(18)
H13A H 0.4772 1.3020 0.1002
C18A C 0.3838(3) 1.3161(2) 0.1842(2)
H14A H 0.4234 1.3336 0.2136
C19A C 0.2942(3) 1.3088(2) 0.2079(2)
H15A H 0.2720 1.3223 0.2533
C20A C 0.2372(3) 1.2822(2) 0.1665(2)
H16A H 0.1767 1.2760 0.1841
C21A C 0.2673(3) 1.2641(2) 0.0985(2)
H17A H 0.2274 1.2465 0.0695
C22A C 0.3218(3) 1.34200(18) -0.07437(18)
C22A_2 C 0.3218(3) 0.34200(18) -0.07437(18)
C23A C 0.2281(3) 1.3442(2) -0.09382(19)
H18A H 0.2012 1.3022 -0.0783
C24A C 0.1757(3) 1.4076(2) -0.1355(2)
H19A H 0.1129 1.4087 -0.1500
C25A C 0.2133(3) 1.4699(2) -0.1566(2)
H20A H 0.1760 1.5138 -0.1847
C26A C 0.3052(3) 1.4680(2) -0.1368(2)
H21A H 0.3313 1.5105 -0.1513
C27A C 0.3595(3) 1.4038(2) -0.0955(2)
H22A H 0.4227 1.4025 -0.0819
C28A C 0.3666(2) 1.17869(18) -0.04118(17)
C28A_2 C 0.3666(2) 0.17869(18) -0.04118(17)
C29A C 0.3505(3) 1.17700(18) -0.11394(18)
H23A H 0.3459 1.2212 -0.1486
C30A C 0.3413(3) 1.11165(18) -0.13561(18)
H24A H 0.3302 1.1108 -0.1851
C31A C 0.2328(2) 0.97699(18) -0.16406(17)
C31_2 C 0.7672(2) 0.02301(18) 0.16406(17)
C32A C 0.1528(3) 0.95900(19) -0.1282(2)
H25A H 0.1564 0.9383 -0.0782
C33A C 0.0686(3) 0.9717(2) -0.1659(2)
H26A H 0.0142 0.9591 -0.1421
C34A C 0.0631(3) 1.0027(2) -0.2388(2)
H27A H 0.0052 1.0107 -0.2645
C35A C 0.1407(3) 1.0220(2) -0.2738(2)
H28A H 0.1360 1.0446 -0.3232
C36A C 0.2260(3) 1.0084(2) -0.23695(19)
H29A H 0.2802 1.0206 -0.2615
C37A C 0.4369(2) 0.93713(17) -0.17545(17)
C37_2 C 0.5631(2) 0.06287(17) 0.17545(17)
C38A C 0.4378(3) 0.87887(18) -0.21415(18)
H30A H 0.3876 0.8533 -0.2083
C39A C 0.5118(3) 0.85813(19) -0.26120(18)
H31A H 0.5120 0.8186 -0.2877
C40A C 0.5846(3) 0.8947(2) -0.26946(19)
H32A H 0.6353 0.8804 -0.3017
C41A C 0.5845(3) 0.9523(2) -0.2310(2)
H33A H 0.6353 0.9773 -0.2368
C42A C 0.5109(2) 0.97390(19) -0.18410(18)
H34A H 0.5110 1.0137 -0.1579
C43A C 0.3484(2) 1.04652(17) -0.08477(17)
C43_2 C 0.6516(2) -0.04652(17) 0.08477(17)
C44A C 0.3633(3) 1.04810(18) -0.01246(18)
H35A H 0.3672 1.0040 0.0222
C45A C 0.3727(3) 1.11450(18) 0.00943(18)
H36A H 0.3833 1.1156 0.0590
C95? C 0.4139(17) 0.4809(8) 0.5272(12)
H89? H 0.4156 0.5462 0.5883
H90? H 0.4827 0.4597 0.5268
H91? H 0.3875 0.4843 0.4790
H92? H 0.3838 0.4485 0.5624
O29? O 0.3972(15) 0.5495(8) 0.5456(11)
loop_
_geom_bond_atom_site_label_1
_geom_bond_atom_site_label_2
_geom_bond_site_symmetry_1
_geom_bond_site_symmetry_2
Nd1 O1 1_555 1_555
P1 O1 1_555 1_555
P2 O2 1_555 1_555
P3 O3 1_555 1_555
O2 Nd1 1_555 1_555
O3 Nd1A_2 1_555 1_555
N1 O4 1_555 1_555
O4 Nd1 1_555 1_555
O5 Nd1 1_555 1_555
O6 N1 1_555 1_555
N2 O7 1_555 1_555
O7 Nd1 1_555 1_555
O8 Nd1 1_555 1_555
O9 N2 1_555 1_555
N3 O10 1_555 1_555
O10 Nd1 1_555 1_555
O11 Nd1 1_555 1_555
O12 N3 1_555 1_555
C1 P1 1_555 1_555
C2 C1 1_555 1_555
H1 C2 1_555 1_555
C3 C2 1_555 1_555
H2 C3 1_555 1_555
C4 C3 1_555 1_555
H3 C4 1_555 1_555
C5 C4 1_555 1_555
H4 C5 1_555 1_555
C6 C1 1_555 1_555
H5 C6 1_555 1_555
C7 P1 1_555 1_555
C8 C7 1_555 1_555
H6 C8 1_555 1_555
C9 C8 1_555 1_555
H7 C9 1_555 1_555
C10 C9 1_555 1_555
H8 C10 1_555 1_555
C11 C10 1_555 1_555
H9 C11 1_555 1_555
C12 C7 1_555 1_555
H10 C12 1_555 1_555
C13 P1 1_555 1_555
C14 C13 1_555 1_555
H11 C14 1_555 1_555
C15 C13 1_555 1_555
H12 C15 1_555 1_555
C16 P2 1_555 1_555
C17 C16 1_555 1_555
H13 C17 1_555 1_555
C18 C17 1_555 1_555
H14 C18 1_555 1_555
C19 C18 1_555 1_555
H15 C19 1_555 1_555
C20 C19 1_555 1_555
H16 C20 1_555 1_555
C21 C16 1_555 1_555
H17 C21 1_555 1_555
C22 P2 1_555 1_555
C23 C22 1_555 1_555
H18 C23 1_555 1_555
C24 C23 1_555 1_555
H19 C24 1_555 1_555
C25 C24 1_555 1_555
H20 C25 1_555 1_555
C26 C25 1_555 1_555
H21 C26 1_555 1_555
C27 C22 1_555 1_555
H22 C27 1_555 1_555
C28 P2 1_555 1_555
C29 C28 1_555 1_555
H23 C29 1_555 1_555
C30 C29 1_555 1_555
H24 C30 1_555 1_555
C31 P3 1_555 1_555
C32 C31 1_555 1_555
H25 C32 1_555 1_555
C33 C32 1_555 1_555
H26 C33 1_555 1_555
C34 C33 1_555 1_555
H27 C34 1_555 1_555
C35 C34 1_555 1_555
H28 C35 1_555 1_555
C36 C31 1_555 1_555
H29 C36 1_555 1_555
C37 P3 1_555 1_555
C38 C37 1_555 1_555
H30 C38 1_555 1_555
C39 C38 1_555 1_555
H31 C39 1_555 1_555
C40 C39 1_555 1_555
H32 C40 1_555 1_555
C41 C40 1_555 1_555
H33 C41 1_555 1_555
C42 C37 1_555 1_555
H34 C42 1_555 1_555
C43 P3 1_555 1_555
C44 C43 1_555 1_555
H35 C44 1_555 1_555
C45 C28 1_555 1_555
H36 C45 1_555 1_555
Nd2 O13 1_555 1_555
P4 O13 1_555 1_555
P5 O14 1_555 1_555
P6 O15 1_555 1_555
O14 Nd2A 1_555 1_555
O15 Nd2 1_555 1_555
N4 O16 1_555 1_555
O16 Nd2 1_555 1_555
O17 Nd2 1_555 1_555
O18 N4 1_555 1_555
N5 O19 1_555 1_555
O19 Nd2 1_555 1_555
O20 Nd2 1_555 1_555
O21 N5 1_555 1_555
N6 O22 1_555 1_555
O22 Nd2 1_555 1_555
O23 Nd2 1_555 1_555
O24 N6 1_555 1_555
C46 P4 1_555 1_555
C47 C46 1_555 1_555
H37 C47 1_555 1_555
C48 C47 1_555 1_555
H38 C48 1_555 1_555
C49 C48 1_555 1_555
H39 C49 1_555 1_555
C50 C49 1_555 1_555
H40 C50 1_555 1_555
C51 C46 1_555 1_555
H41 C51 1_555 1_555
C52 P4 1_555 1_555
C53 C52 1_555 1_555
H42 C53 1_555 1_555
C54 C53 1_555 1_555
H43 C54 1_555 1_555
C55 C54 1_555 1_555
H44 C55 1_555 1_555
C56 C55 1_555 1_555
H45 C56 1_555 1_555
C57 C52 1_555 1_555
H46 C57 1_555 1_555
C58 P4 1_555 1_555
C59 C58 1_555 1_555
H47 C59 1_555 1_555
C60 C59 1_555 1_555
H48 C60 1_555 1_555
C61 P5 1_555 1_555
C62 C61 1_555 1_555
H49 C62 1_555 1_555
C63 C62 1_555 1_555
H50 C63 1_555 1_555
C64 C63 1_555 1_555
H51 C64 1_555 1_555
C65 C64 1_555 1_555
H52 C65 1_555 1_555
C66 C61 1_555 1_555
H53 C66 1_555 1_555
C67 P5 1_555 1_555
C68 C67 1_555 1_555
H54 C68 1_555 1_555
C69 C68 1_555 1_555
H55 C69 1_555 1_555
C70 C69 1_555 1_555
H56 C70 1_555 1_555
C71 C70 1_555 1_555
H57 C71 1_555 1_555
C72 C67 1_555 1_555
H58 C72 1_555 1_555
C73 P5 1_555 1_555
C74 C73 1_555 1_555
H59 C74 1_555 1_555
C75 C58 1_555 1_555
H60 C75 1_555 1_555
C76 P6 1_555 1_555
C77 C76 1_555 1_555
H61 C77 1_555 1_555
C78 C77 1_555 1_555
H62 C78 1_555 1_555
C79 C78 1_555 1_555
H63 C79 1_555 1_555
C80 C79 1_555 1_555
H64 C80 1_555 1_555
C81 C76 1_555 1_555
H65 C81 1_555 1_555
C82 P6 1_555 1_555
C83 C82 1_555 1_555
H66 C83 1_555 1_555
C84 C83 1_555 1_555
H67 C84 1_555 1_555
C85 C84 1_555 1_555
H68 C85 1_555 1_555
C86 C85 1_555 1_555
H69 C86 1_555 1_555
C87 C82 1_555 1_555
H70 C87 1_555 1_555
C88 P6 1_555 1_555
C89 C88 1_555 1_555
H71 C89 1_555 1_555
C90 C88 1_555 1_555
H72 C90 1_555 1_555
O25 H73 1_555 1_555
C91 O25 1_555 1_555
H74 C91 1_555 1_555
H75 C91 1_555 1_555
H76 C91 1_555 1_555
O26 H77 1_555 1_555
C92 O26 1_555 1_555
H78 C92 1_555 1_555
H79 C92 1_555 1_555
H80 C92 1_555 1_555
O27 H81 1_555 1_555
C93 O27 1_555 1_555
H82 C93 1_555 1_555
H83 C93 1_555 1_555
H84 C93 1_555 1_555
C94 H85 1_555 1_555
H86 C94 1_555 1_555
H87 C94 1_555 1_555
O28 C94 1_555 1_555
H88 O28 1_555 1_555
Nd1A O1A 1_555 1_555
Nd1A_2 O1A_2 1_555 1_555
P1A O1A 1_555 1_555
P1A_2 O1A_2 1_555 1_555
P2A O2A 1_555 1_555
P2A_2 O2A_2 1_555 1_555
P3A O3A 1_555 1_555
P3_2 O3_2 1_555 1_555
O2A Nd1A_2 1_555 1_555
O2A_2 Nd1A 1_555 1_555
O3A Nd1 1_555 1_555
O3_2 Nd1A 1_555 1_555
N1A O4A 1_555 1_555
N1A_2 O4A_2 1_555 1_555
O4A Nd1A 1_555 1_555
O4A_2 Nd1A_2 1_555 1_555
O5A Nd1A 1_555 1_555
O5A_2 Nd1A_2 1_555 1_555
O6A N1A 1_555 1_555
N2A O7A 1_555 1_555
N2A_2 O7A_2 1_555 1_555
O7A Nd1A 1_555 1_555
O7A_2 Nd1A_2 1_555 1_555
O8A Nd1A 1_555 1_555
O8A_2 Nd1A_2 1_555 1_555
O9A N2A 1_555 1_555
N3A O10A 1_555 1_555
N3A_2 O10A_2 1_555 1_555
O10A Nd1A 1_555 1_555
O10A_2 Nd1A_2 1_555 1_555
O11A Nd1A 1_555 1_555
O11A_2 Nd1A_2 1_555 1_555
O12A N3A 1_555 1_555
C1A P1A 1_555 1_555
C2A C1A 1_555 1_555
H1A C2A 1_555 1_555
C3A C2A 1_555 1_555
H2A C3A 1_555 1_555
C4A C3A 1_555 1_555
H3A C4A 1_555 1_555
C5A C4A 1_555 1_555
H4A C5A 1_555 1_555
C6A C1A 1_555 1_555
H5A C6A 1_555 1_555
C7A P1A 1_555 1_555
C8A C7A 1_555 1_555
H6A C8A 1_555 1_555
C9A C8A 1_555 1_555
H7A C9A 1_555 1_555
C10A C9A 1_555 1_555
H8A C10A 1_555 1_555
C11A C10A 1_555 1_555
H9A C11A 1_555 1_555
C12A C7A 1_555 1_555
H10A C12A 1_555 1_555
C13A P1A 1_555 1_555
C14A C15 1_555 1_555
H11A C14A 1_555 1_555
C15A C14 1_555 1_555
H12A C15A 1_555 1_555
C16A P2A 1_555 1_555
C16A_2 P2A_2 1_555 1_555
C17A C16A 1_555 1_555
H13A C17A 1_555 1_555
C18A C17A 1_555 1_555
H14A C18A 1_555 1_555
C19A C18A 1_555 1_555
H15A C19A 1_555 1_555
C20A C19A 1_555 1_555
H16A C20A 1_555 1_555
C21A C16A 1_555 1_555
H17A C21A 1_555 1_555
C22A P2A 1_555 1_555
C22A_2 P2A_2 1_555 1_555
C23A C22A 1_555 1_555
H18A C23A 1_555 1_555
C24A C23A 1_555 1_555
H19A C24A 1_555 1_555
C25A C24A 1_555 1_555
H20A C25A 1_555 1_555
C26A C25A 1_555 1_555
H21A C26A 1_555 1_555
C27A C22A 1_555 1_555
H22A C27A 1_555 1_555
C28A P2A 1_555 1_555
C28A_2 P2A_2 1_555 1_555
C29A C28A 1_555 1_555
H23A C29A 1_555 1_555
C30A C29A 1_555 1_555
H24A C30A 1_555 1_555
C31A P3A 1_555 1_555
C31_2 P3_2 1_555 1_555
C32A C31A 1_555 1_555
H25A C32A 1_555 1_555
C33A C32A 1_555 1_555
H26A C33A 1_555 1_555
C34A C33A 1_555 1_555
H27A C34A 1_555 1_555
C35A C34A 1_555 1_555
H28A C35A 1_555 1_555
C36A C31A 1_555 1_555
H29A C36A 1_555 1_555
C37A P3A 1_555 1_555
C37_2 P3_2 1_555 1_555
C38A C37A 1_555 1_555
H30A C38A 1_555 1_555
C39A C38A 1_555 1_555
H31A C39A 1_555 1_555
C40A C39A 1_555 1_555
H32A C40A 1_555 1_555
C41A C40A 1_555 1_555
H33A C41A 1_555 1_555
C42A C37A 1_555 1_555
H34A C42A 1_555 1_555
C43A P3A 1_555 1_555
C43_2 P3_2 1_555 1_555
C44A C43A 1_555 1_555
H35A C44A 1_555 1_555
C45A C28A 1_555 1_555
H36A C45A 1_555 1_555
Nd2A O13A 1_555 1_555
Nd2A_2 O13A_2 1_555 1_555
P4A O13A 1_555 1_555
P4A_2 O13A_2 1_555 1_555
P5A O14A 1_555 1_555
P5_2 O14_2 1_555 1_555
P6A O15A 1_555 1_555
P6A_2 O15A_2 1_555 1_555
O14A Nd2 1_555 1_555
O14_2 Nd2A_2 1_555 1_555
O15A Nd2A_2 1_555 1_555
O15A_2 Nd2A 1_555 1_555
N4A O16A 1_555 1_555
N4A_2 O16A_2 1_555 1_555
O16A Nd2A 1_555 1_555
O16A_2 Nd2A_2 1_555 1_555
O17A Nd2A 1_555 1_555
O17A_2 Nd2A_2 1_555 1_555
O18A N4A 1_555 1_555
N5A O19A 1_555 1_555
N5A_2 O19A_2 1_555 1_555
O19A Nd2A 1_555 1_555
O19A_2 Nd2A_2 1_555 1_555
O20A Nd2A 1_555 1_555
O20A_2 Nd2A_2 1_555 1_555
O21A N5A 1_555 1_555
N6A O22A 1_555 1_555
N6A_2 O22A_2 1_555 1_555
O22A Nd2A 1_555 1_555
O22A_2 Nd2A_2 1_555 1_555
O23A Nd2A 1_555 1_555
O23A_2 Nd2A_2 1_555 1_555
O24A N6A 1_555 1_555
C46A P4A 1_555 1_555
C47A C46A 1_555 1_555
H37A C47A 1_555 1_555
C48A C47A 1_555 1_555
H38A C48A 1_555 1_555
C49A C48A 1_555 1_555
H39A C49A 1_555 1_555
C50A C49A 1_555 1_555
H40A C50A 1_555 1_555
C51A C46A 1_555 1_555
H41A C51A 1_555 1_555
C52A P4A 1_555 1_555
C53A C52A 1_555 1_555
H42A C53A 1_555 1_555
C54A C53A 1_555 1_555
H43A C54A 1_555 1_555
C55A C54A 1_555 1_555
H44A C55A 1_555 1_555
C56A C55A 1_555 1_555
H45A C56A 1_555 1_555
C57A C52A 1_555 1_555
H46A C57A 1_555 1_555
C58A P4A 1_555 1_555
C59A C58A 1_555 1_555
H47A C59A 1_555 1_555
C60A C59A 1_555 1_555
H48A C60A 1_555 1_555
C61A P5A 1_555 1_555
C62A C61A 1_555 1_555
H49A C62A 1_555 1_555
C63A C62A 1_555 1_555
H50A C63A 1_555 1_555
C64A C63A 1_555 1_555
H51A C64A 1_555 1_555
C65A C64A 1_555 1_555
H52A C65A 1_555 1_555
C66A C61A 1_555 1_555
H53A C66A 1_555 1_555
C67A P5A 1_555 1_555
C68A C67A 1_555 1_555
H54A C68A 1_555 1_555
C69A C68A 1_555 1_555
H55A C69A 1_555 1_555
C70A C69A 1_555 1_555
H56A C70A 1_555 1_555
C71A C70A 1_555 1_555
H57A C71A 1_555 1_555
C72A C67A 1_555 1_555
H58A C72A 1_555 1_555
C73A P5A 1_555 1_555
C74A C73A 1_555 1_555
H59A C74A 1_555 1_555
C75A C58A 1_555 1_555
H60A C75A 1_555 1_555
C76A P6A 1_555 1_555
C76A_2 P6A_2 1_555 1_555
C77A C76A 1_555 1_555
H61A C77A 1_555 1_555
C78A C77A 1_555 1_555
H62A C78A 1_555 1_555
C79A C78A 1_555 1_555
H63A C79A 1_555 1_555
C80A C79A 1_555 1_555
H64A C80A 1_555 1_555
C81A C76A 1_555 1_555
H65A C81A 1_555 1_555
C82A P6A 1_555 1_555
C82A_2 P6A_2 1_555 1_555
C83A C82A 1_555 1_555
H66A C83A 1_555 1_555
C84A C83A 1_555 1_555
H67A C84A 1_555 1_555
C85A C84A 1_555 1_555
H68A C85A 1_555 1_555
C86A C85A 1_555 1_555
H69A C86A 1_555 1_555
C87A C82A 1_555 1_555
H70A C87A 1_555 1_555
C88A P6A 1_555 1_555
C88A_2 P6A_2 1_555 1_555
C89A C90 1_555 1_555
H71A C89A 1_555 1_555
C90A C89 1_555 1_555
H72A C90A 1_555 1_555
N1 O5 1_555 1_555
N2 O8 1_555 1_555
N3 O11 1_555 1_555
C5 C6 1_555 1_555
C11 C12 1_555 1_555
C20 C21 1_555 1_555
C26 C27 1_555 1_555
C30 C43 1_555 1_555
C35 C36 1_555 1_555
C41 C42 1_555 1_555
C44 C45 1_555 1_555
N4 O17 1_555 1_555
N5 O20 1_555 1_555
N6 O23 1_555 1_555
C50 C51 1_555 1_555
C56 C57 1_555 1_555
C60 C73 1_555 1_555
C65 C66 1_555 1_555
C71 C72 1_555 1_555
C74 C75 1_555 1_555
C80 C81 1_555 1_555
C86 C87 1_555 1_555
N1A O5A 1_555 1_555
N1A_2 O5A_2 1_555 1_555
N2A O8A 1_555 1_555
N2A_2 O8A_2 1_555 1_555
N3A O11A 1_555 1_555
N3A_2 O11A_2 1_555 1_555
C5A C6A 1_555 1_555
C11A C12A 1_555 1_555
C13A C14A 1_555 1_555
C13A C15A 1_555 1_555
C20A C21A 1_555 1_555
C26A C27A 1_555 1_555
C30A C43A 1_555 1_555
C35A C36A 1_555 1_555
C41A C42A 1_555 1_555
C44A C45A 1_555 1_555
N4A O17A 1_555 1_555
N4A_2 O17A_2 1_555 1_555
N5A O20A 1_555 1_555
N5A_2 O20A_2 1_555 1_555
N6A O23A 1_555 1_555
N6A_2 O23A_2 1_555 1_555
C50A C51A 1_555 1_555
C56A C57A 1_555 1_555
C60A C73A 1_555 1_555
C65A C66A 1_555 1_555
C71A C72A 1_555 1_555
C74A C75A 1_555 1_555
C80A C81A 1_555 1_555
C86A C87A 1_555 1_555
C88A C89A 1_555 1_555
C88A C90A 1_555 1_555

#END
