
#######################################################################
#
#                 Cambridge Crystallographic Data Centre
#                                CCDC 
#
#######################################################################
#
# If this CIF has been generated from an entry in the Cambridge 
# Structural Database, then it will include bibliographic, chemical, 
# crystal, experimental, refinement or atomic coordinate data resulting 
# from the CCDC's data processing and validation procedures.
#
#######################################################################

data_ARICIN
_symmetry_cell_setting           monoclinic
_symmetry_space_group_name_H-M   'C 2/c'
_symmetry_Int_Tables_number      15
_space_group_name_Hall           '-C 2yn'
loop_
_symmetry_equiv_pos_site_id
_symmetry_equiv_pos_as_xyz
1 x,y,z
2 1/2+x,1/2+y,z
3 -x,y,1/2-z
4 1/2-x,1/2+y,1/2-z
5 -x,-y,-z
6 1/2-x,1/2-y,-z
7 x,-y,1/2+z
8 1/2+x,1/2-y,1/2+z
_cell_length_a                   25.502(9)
_cell_length_b                   9.866(2)
_cell_length_c                   21.239(5)
_cell_angle_alpha                90
_cell_angle_beta                 125.75(2)
_cell_angle_gamma                90
_cell_volume                     4336.88
loop_
_atom_site_label
_atom_site_type_symbol
_atom_site_fract_x
_atom_site_fract_y
_atom_site_fract_z
Cd1 Cd 0.163487(18) 0.20411(4) 0.18926(2)
O1 O 0.1816(5) 0.1395(8) 0.3016(4)
O2 O 0.2378(3) 0.3177(10) 0.3225(4)
O3 O 0.2443(2) 0.2654(5) 0.1701(3)
O4 O 0.1501(3) 0.1963(5) 0.0701(3)
O5 O 0.1853(3) -0.0354(5) 0.2008(3)
N1 N 0.1084(2) 0.4124(5) 0.1622(3)
N2 N 0.0522(3) 0.1633(6) 0.1175(3)
C1 C 0.1353(4) 0.5364(8) 0.1867(5)
H1 H 0.1801 0.5422 0.2206
C2 C 0.1003(5) 0.6543(9) 0.1642(6)
H2 H 0.1212 0.7373 0.1828
C3 C 0.0356(5) 0.6495(8) 0.1151(6)
H3 H 0.0117 0.7292 0.0999
C4 C 0.0036(4) 0.5224(8) 0.0863(4)
C5 C 0.0434(3) 0.4053(7) 0.1125(4)
C6 C 0.0133(3) 0.2738(7) 0.0886(4)
C7 C -0.0547(3) 0.2643(10) 0.0359(5)
C8 C -0.0802(3) 0.1341(11) 0.0162(5)
H4 H -0.1247 0.1234 -0.0182
C9 C -0.0431(4) 0.0244(9) 0.0449(5)
H5 H -0.0611 -0.0619 0.0311
C10 C 0.0233(3) 0.0415(7) 0.0959(4)
H6 H 0.0492 -0.0355 0.1163
C11 C -0.0647(4) 0.5082(10) 0.0328(5)
H7 H -0.0909 0.5848 0.0133
C12 C -0.0912(4) 0.3848(11) 0.0109(5)
H8 H -0.1360 0.3782 -0.0226
C13 C 0.2363(3) 0.2464(8) 0.4271(4)
C14 C 0.2548(3) 0.3631(7) 0.4661(4)
H9 H 0.2579 0.4405 0.4435
C15 C 0.2307(4) 0.1294(7) 0.4608(4)
H10 H 0.2174 0.0479 0.4337
C16 C 0.2165(4) 0.2329(11) 0.3447(5)
C17 C 0.2291(3) 0.2425(6) 0.0475(3)
C18 C 0.1855(3) 0.2332(8) -0.0328(4)
H11 H 0.1417 0.2227 -0.0548
C19 C 0.2946(3) 0.2608(8) 0.0799(3)
H12 H 0.3245 0.2689 0.1333
C20 C 0.2064(3) 0.2341(6) 0.0995(4)
C15E C 0.2693(4) 0.3706(7) 0.5392(4)
C13E C 0.2637(3) 0.2536(8) 0.5729(4)
C14E C 0.2452(3) 0.1369(7) 0.5339(4)
H9E H 0.2421 0.0595 0.5565
C16E C 0.2835(4) 0.2671(11) 0.6553(5)
O1E O 0.3184(5) 0.3605(8) 0.6984(4)
O2E O 0.2622(3) 0.1823(10) 0.6775(4)
H10E H 0.2826 0.4521 0.5663
C19E C 0.2054(3) 0.2392(8) -0.0799(3)
C17E C 0.2709(3) 0.2575(6) -0.0475(3)
C18E C 0.3145(3) 0.2668(8) 0.0328(4)
H11E H 0.3583 0.2773 0.0548
C20E C 0.2936(3) 0.2659(6) -0.0995(4)
O3E O 0.2557(2) 0.2346(5) -0.1701(3)
O4E O 0.3499(3) 0.3037(5) -0.0701(3)
H12E H 0.1755 0.2311 -0.1333
Cd1E Cd 0.336513(18) 0.29589(4) 0.81074(2)
O5E O 0.3147(3) 0.5354(5) 0.7992(3)
N1E N 0.3916(2) 0.0876(5) 0.8378(3)
N2E N 0.4478(3) 0.3367(6) 0.8825(3)
C1E C 0.3647(4) -0.0364(8) 0.8133(5)
H1E H 0.3199 -0.0422 0.7794
C2E C 0.3997(5) -0.1543(9) 0.8358(6)
H2E H 0.3788 -0.2373 0.8172
C3E C 0.4644(5) -0.1495(8) 0.8849(6)
H3E H 0.4883 -0.2292 0.9001
C4E C 0.4964(4) -0.0224(8) 0.9137(4)
C5E C 0.4566(3) 0.0947(7) 0.8875(4)
C6E C 0.4867(3) 0.2262(7) 0.9114(4)
C7E C 0.5547(3) 0.2357(10) 0.9641(5)
C8E C 0.5802(3) 0.3659(11) 0.9838(5)
H4E H 0.6247 0.3766 1.0182
C9E C 0.5431(4) 0.4756(9) 0.9551(5)
H5E H 0.5611 0.5619 0.9689
C10E C 0.4767(3) 0.4585(7) 0.9041(4)
H6E H 0.4508 0.5355 0.8837
C11E C 0.5647(4) -0.0082(10) 0.9672(5)
H7E H 0.5909 -0.0848 0.9867
C12E C 0.5912(4) 0.1152(11) 0.9891(5)
H8E H 0.6360 0.1218 1.0226
Cd1E_2 Cd 0.336513(18) 0.29589(4) -0.18926(2)
O3E_2 O 0.2557(2) 0.2346(5) 0.8299(3)
O4E_2 O 0.3499(3) 0.3037(5) 0.9299(3)
loop_
_geom_bond_atom_site_label_1
_geom_bond_atom_site_label_2
_geom_bond_site_symmetry_1
_geom_bond_site_symmetry_2
Cd1 O1 1_555 1_555
O1 C16 1_555 1_555
O2 Cd1 1_555 1_555
O3 Cd1 1_555 1_555
O4 Cd1 1_555 1_555
O5 Cd1 1_555 1_555
N1 Cd1 1_555 1_555
N2 Cd1 1_555 1_555
C1 N1 1_555 1_555
H1 C1 1_555 1_555
C2 C1 1_555 1_555
H2 C2 1_555 1_555
C3 C2 1_555 1_555
H3 C3 1_555 1_555
C4 C3 1_555 1_555
C5 N1 1_555 1_555
C6 N2 1_555 1_555
C7 C6 1_555 1_555
C8 C7 1_555 1_555
H4 C8 1_555 1_555
C9 C8 1_555 1_555
H5 C9 1_555 1_555
C10 N2 1_555 1_555
H6 C10 1_555 1_555
C11 C4 1_555 1_555
H7 C11 1_555 1_555
C12 C7 1_555 1_555
H8 C12 1_555 1_555
C13 C14 1_555 1_555
C14 H9 1_555 1_555
C15 C13 1_555 1_555
H10 C15 1_555 1_555
C16 O2 1_555 1_555
C17 C18 1_555 1_555
C18 H11 1_555 1_555
C19 C17 1_555 1_555
H12 C19 1_555 1_555
C20 O3 1_555 1_555
C15E C14 1_555 1_555
C13E C15E 1_555 1_555
C14E C15 1_555 1_555
H9E C14E 1_555 1_555
C16E C13E 1_555 1_555
O1E C16E 1_555 1_555
O2E C16E 1_555 1_555
H10E C15E 1_555 1_555
C19E C18 1_555 1_555
C17E C19E 1_555 1_555
C18E C19 1_555 1_555
H11E C18E 1_555 1_555
C20E C17E 1_555 1_555
O3E C20E 1_555 1_555
O4E C20E 1_555 1_555
H12E C19E 1_555 1_555
Cd1E O1E 1_555 1_555
O5E Cd1E 1_555 1_555
N1E Cd1E 1_555 1_555
N2E Cd1E 1_555 1_555
C1E N1E 1_555 1_555
H1E C1E 1_555 1_555
C2E C1E 1_555 1_555
H2E C2E 1_555 1_555
C3E C2E 1_555 1_555
H3E C3E 1_555 1_555
C4E C3E 1_555 1_555
C5E N1E 1_555 1_555
C6E N2E 1_555 1_555
C7E C6E 1_555 1_555
C8E C7E 1_555 1_555
H4E C8E 1_555 1_555
C9E C8E 1_555 1_555
H5E C9E 1_555 1_555
C10E N2E 1_555 1_555
H6E C10E 1_555 1_555
C11E C4E 1_555 1_555
H7E C11E 1_555 1_555
C12E C7E 1_555 1_555
H8E C12E 1_555 1_555
Cd1E_2 O3E 1_555 1_555
O3E_2 Cd1E 1_555 1_555
O4E_2 Cd1E 1_555 1_555
O4 C20 1_555 1_555
C4 C5 1_555 1_555
C5 C6 1_555 1_555
C9 C10 1_555 1_555
C11 C12 1_555 1_555
C13 C16 1_555 1_555
C17 C20 1_555 1_555
C13E C14E 1_555 1_555
O2E Cd1E 1_555 1_555
C17E C18E 1_555 1_555
O4E Cd1E_2 1_555 1_555
C4E C5E 1_555 1_555
C5E C6E 1_555 1_555
C9E C10E 1_555 1_555
C11E C12E 1_555 1_555

#END
