
#######################################################################
#
#                 Cambridge Crystallographic Data Centre
#                                CCDC 
#
#######################################################################
#
# If this CIF has been generated from an entry in the Cambridge 
# Structural Database, then it will include bibliographic, chemical, 
# crystal, experimental, refinement or atomic coordinate data resulting 
# from the CCDC's data processing and validation procedures.
#
#######################################################################

data_ARICOT
_symmetry_cell_setting           triclinic
_symmetry_space_group_name_H-M   'P -1'
_symmetry_Int_Tables_number      2
_space_group_name_Hall           '-P 1'
loop_
_symmetry_equiv_pos_site_id
_symmetry_equiv_pos_as_xyz
1 x,y,z
2 -x,-y,-z
_cell_length_a                   10.192(2)
_cell_length_b                   16.074(3)
_cell_length_c                   23.747(5)
_cell_angle_alpha                104.84(3)
_cell_angle_beta                 92.26(3)
_cell_angle_gamma                90.80(3)
_cell_volume                     3756.53
loop_
_atom_site_label
_atom_site_type_symbol
_atom_site_fract_x
_atom_site_fract_y
_atom_site_fract_z
Cd1 Cd 0.85755(5) 1.00162(3) 0.125902(19)
O1 O 0.8303(7) 0.8064(4) 0.0352(3)
O2 O 0.8837(6) 0.9391(4) 0.0320(2)
O3 O 0.7732(7) 0.5758(4) -0.1533(3)
O4 O 0.7874(6) 0.6186(3) -0.2352(2)
H1 H 0.7755 0.5671 -0.2504
O5 O 0.9316(5) 1.0054(3) -0.1609(2)
O6 O 0.8026(6) 0.9232(3) -0.2315(2)
N1 N 0.8446(7) 1.1285(4) 0.2066(3)
N2 N 0.8363(6) 1.1296(4) 0.0917(3)
N3 N 0.7992(6) 0.9162(4) 0.1879(3)
N4 N 0.6287(6) 0.9742(4) 0.1156(3)
C1 C 0.8792(9) 0.8911(5) 0.2249(3)
H2 H 0.9718 0.9098 0.2283
C2 C 0.8360(9) 0.8382(6) 0.2596(4)
H3 H 0.8977 0.8214 0.2871
C3 C 0.7111(9) 0.8109(5) 0.2550(4)
H4 H 0.6817 0.7731 0.2788
C4 C 0.6219(9) 0.8356(5) 0.2166(3)
C5 C 0.6703(7) 0.8907(4) 0.1842(3)
C6 C 0.5822(7) 0.9215(5) 0.1462(3)
C7 C 0.4482(8) 0.8966(6) 0.1423(4)
C8 C 0.4033(10) 0.8382(7) 0.1747(4)
H5 H 0.3107 0.8198 0.1715
C9 C 0.4862(10) 0.8094(6) 0.2086(4)
H6 H 0.4538 0.7684 0.2294
C10 C 0.3647(8) 0.9318(7) 0.1059(4)
H7 H 0.2705 0.9171 0.1027
C11 C 0.4118(8) 0.9850(7) 0.0757(4)
H8 H 0.3534 1.0087 0.0503
C12 C 0.5483(8) 1.0058(6) 0.0814(4)
H9 H 0.5839 1.0446 0.0596
C13 C 0.8557(7) 0.8616(5) 0.0093(3)
C14 C 0.8451(6) 0.8344(4) -0.0572(3)
C15 C 0.8208(7) 0.7492(4) -0.0865(3)
H10 H 0.8099 0.7059 -0.0644
C16 C 0.8118(7) 0.7250(4) -0.1463(3)
C17 C 0.7895(7) 0.6324(5) -0.1777(3)
C18 C 0.8621(6) 0.9387(4) -0.1835(3)
C19 C 0.8633(6) 0.8957(4) -0.0885(3)
H11 H 0.8871 0.9553 -0.0679
C20 C 0.8218(6) 0.7867(4) -0.1780(3)
H12 H 0.8108 0.7696 -0.2206
C21 C 0.8475(6) 0.8722(4) -0.1491(3)
C22 C 0.8500(11) 1.1272(6) 0.2617(4)
H13 H 0.8494 1.0714 0.2713
C23 C 0.8566(11) 1.2023(8) 0.3074(5)
H14 H 0.8536 1.1995 0.3480
C24 C 0.8673(10) 1.2788(7) 0.2939(5)
H15 H 0.8788 1.3317 0.3254
C25 C 0.8622(8) 1.2841(6) 0.2353(5)
C26 C 0.8500(7) 1.2051(5) 0.1930(4)
C27 C 0.8714(10) 1.3629(6) 0.2186(6)
H16 H 0.8826 1.4173 0.2488
C28 C 0.8652(11) 1.3638(6) 0.1631(6)
H17 H 0.8699 1.4193 0.1532
C29 C 0.8517(9) 1.2858(6) 0.1162(5)
C30 C 0.8448(7) 1.2048(5) 0.1327(4)
C31 C 0.8428(10) 1.2828(7) 0.0576(5)
H18 H 0.8435 1.3365 0.0452
C32 C 0.8333(10) 1.2073(7) 0.0177(5)
H19 H 0.8270 1.2051 -0.0239
C33 C 0.8325(8) 1.1303(6) 0.0363(4)
H20 H 0.8289 1.0752 0.0066
O5A O 1.0684(5) 0.9946(3) 0.1609(2)
Cd1A Cd 1.14245(5) 0.99838(3) -0.125902(19)
Cd2 Cd 0.82119(5) 0.67909(3) 0.40509(2)
Cd3 Cd 0.53228(5) 0.54821(3) 0.29727(2)
O7 O 1.0624(5) 0.6747(4) 0.4094(3)
O8 O 0.9617(5) 0.7710(4) 0.3753(3)
O9 O 1.2065(6) 0.9642(4) 0.2890(2)
H21 H 1.2121 1.0050 0.2743
O10 O 1.4174(6) 0.9960(4) 0.3129(3)
O11 O 0.8045(5) 0.5687(3) 0.3196(2)
O12 O 0.6888(5) 0.5906(4) 0.2448(3)
O13 O 1.5533(5) 0.6505(3) 0.3860(2)
O14 O 1.6605(5) 0.7721(4) 0.3926(3)
O15 O 1.2936(5) 0.5362(3) 0.2926(2)
O16 O 1.3904(5) 0.6273(4) 0.2511(3)
O17 O 0.8950(6) 0.7252(5) 0.1109(3)
H22 H 0.8936 0.7502 0.0848
O18 O 1.1109(7) 0.7387(6) 0.1063(3)
N5 N 0.8175(7) 0.7396(5) 0.5060(3)
N6 N 0.8240(6) 0.5685(4) 0.4522(3)
N7 N 0.5260(7) 0.4425(5) 0.3494(4)
N8 N 0.5365(7) 0.4125(6) 0.2315(4)
C34 C 1.0645(6) 0.7380(4) 0.3882(3)
C35 C 1.1942(6) 0.7743(4) 0.3758(3)
C36 C 1.1966(7) 0.8445(4) 0.3520(3)
H23 H 1.1142 0.8694 0.3423
C37 C 1.3165(7) 0.8795(4) 0.3418(3)
C38 C 1.3195(7) 0.9534(4) 0.3131(3)
C39 C 0.7957(7) 0.5871(4) 0.2710(3)
C40 C 0.9200(7) 0.6060(4) 0.2435(3)
C41 C 0.8178(13) 0.8225(8) 0.5310(5)
H24 H 0.8176 0.8639 0.5070
C42 C 0.8186(16) 0.8526(10) 0.5930(7)
H25 H 0.8176 0.9146 0.6113
C43 C 0.8206(13) 0.7971(11) 0.6264(5)
H26 H 0.8181 0.8181 0.6689
C44 C 0.8261(10) 0.7095(8) 0.6005(4)
C45 C 0.8226(7) 0.6836(6) 0.5392(3)
C46 C 0.8251(7) 0.5939(6) 0.5112(3)
C47 C 0.8291(8) 0.5324(7) 0.5449(4)
C48 C 0.8286(10) 0.5615(11) 0.6065(5)
H27 H 0.8291 0.5196 0.6301
C49 C 0.8274(11) 0.6450(12) 0.6326(5)
H28 H 0.8275 0.6633 0.6753
C50 C 0.8351(9) 0.4449(7) 0.5146(5)
H29 H 0.8389 0.4006 0.5363
C51 C 0.8358(9) 0.4216(6) 0.4553(5)
H30 H 0.8396 0.3610 0.4339
C52 C 0.8309(8) 0.4865(5) 0.4258(4)
H31 H 0.8327 0.4698 0.3831
C53 C 1.5566(7) 0.7296(5) 0.3862(3)
C54 C 1.4307(6) 0.7727(4) 0.3775(3)
C55 C 1.4334(7) 0.8448(4) 0.3561(3)
H32 H 1.5176 0.8715 0.3510
C56 C 1.3113(6) 0.7375(4) 0.3874(3)
H33 H 1.3097 0.6863 0.4026
C57 C 0.5185(10) 0.4573(9) 0.4060(5)
H34 H 0.5196 0.5167 0.4302
C58 C 0.5086(12) 0.3877(13) 0.4324(8)
H35 H 0.5068 0.3998 0.4750
C59 C 0.5018(14) 0.3082(11) 0.4013(10)
H36 H 0.4922 0.2618 0.4209
C60 C 0.5079(12) 0.2870(8) 0.3393(9)
C61 C 0.5178(8) 0.3586(6) 0.3157(7)
C62 C 0.5250(9) 0.3436(7) 0.2542(7)
C63 C 0.5138(10) 0.2568(9) 0.2194(10)
C64 C 0.5152(16) 0.2419(13) 0.1615(11)
H37 H 0.5075 0.1831 0.1364
C65 C 0.5277(13) 0.3124(16) 0.1379(8)
H38 H 0.5293 0.3026 0.0955
C66 C 0.5387(12) 0.4001(11) 0.1745(6)
H39 H 0.5475 0.4489 0.1572
C67 C 1.2887(7) 0.5912(4) 0.2627(3)
C68 C 1.1569(7) 0.6112(4) 0.2404(3)
C69 C 1.0424(6) 0.5882(4) 0.2646(3)
H40 H 1.0491 0.5596 0.2963
C70 C 1.1466(7) 0.6526(5) 0.1958(3)
H41 H 1.2260 0.6707 0.1797
C71 C 1.0236(7) 0.6683(5) 0.1741(3)
C72 C 0.9104(7) 0.6428(5) 0.1964(3)
H42 H 0.8240 0.6506 0.1791
C73 C 1.0163(8) 0.7146(6) 0.1265(4)
C74 C 0.4998(13) 0.1883(8) 0.2421(10)
H43 H 0.4924 0.1297 0.2167
C75 C 0.4959(12) 0.2035(8) 0.3045(10)
H44 H 0.4850 0.1551 0.3222
O14_2 O 0.6605(5) 0.7721(4) 0.3926(3)
O13_2 O 0.5533(5) 0.6505(3) 0.3860(2)
O15_2 O 0.2936(5) 0.5362(3) 0.2926(2)
O16_2 O 0.3904(5) 0.6273(4) 0.2511(3)
Cd3_2 Cd 1.53228(5) 0.54821(3) 0.29727(2)
Cd2_2 Cd 1.82119(5) 0.67909(3) 0.40509(2)
loop_
_geom_bond_atom_site_label_1
_geom_bond_atom_site_label_2
_geom_bond_site_symmetry_1
_geom_bond_site_symmetry_2
Cd1 O2 1_555 1_555
O1 C13 1_555 1_555
O2 C13 1_555 1_555
O3 C17 1_555 1_555
O4 H1 1_555 1_555
O5 C18 1_555 1_555
O6 C18 1_555 1_555
N1 Cd1 1_555 1_555
N2 Cd1 1_555 1_555
N3 Cd1 1_555 1_555
N4 Cd1 1_555 1_555
C1 N3 1_555 1_555
H2 C1 1_555 1_555
C2 C1 1_555 1_555
H3 C2 1_555 1_555
C3 C2 1_555 1_555
H4 C3 1_555 1_555
C4 C3 1_555 1_555
C5 N3 1_555 1_555
C6 N4 1_555 1_555
C7 C6 1_555 1_555
C8 C7 1_555 1_555
H5 C8 1_555 1_555
C9 C4 1_555 1_555
H6 C9 1_555 1_555
C10 C7 1_555 1_555
H7 C10 1_555 1_555
C11 C10 1_555 1_555
H8 C11 1_555 1_555
C12 N4 1_555 1_555
H9 C12 1_555 1_555
C13 C14 1_555 1_555
C14 C15 1_555 1_555
C15 H10 1_555 1_555
C16 C15 1_555 1_555
C17 O4 1_555 1_555
C18 C21 1_555 1_555
C19 C14 1_555 1_555
H11 C19 1_555 1_555
C20 C16 1_555 1_555
H12 C20 1_555 1_555
C21 C19 1_555 1_555
C22 N1 1_555 1_555
H13 C22 1_555 1_555
C23 C22 1_555 1_555
H14 C23 1_555 1_555
C24 C23 1_555 1_555
H15 C24 1_555 1_555
C25 C24 1_555 1_555
C26 N1 1_555 1_555
C27 C25 1_555 1_555
H16 C27 1_555 1_555
C28 C27 1_555 1_555
H17 C28 1_555 1_555
C29 C28 1_555 1_555
C30 N2 1_555 1_555
C31 C29 1_555 1_555
H18 C31 1_555 1_555
C32 C31 1_555 1_555
H19 C32 1_555 1_555
C33 N2 1_555 1_555
H20 C33 1_555 1_555
Cd2 O7 1_555 1_555
Cd3 O12 1_555 1_555
O7 C34 1_555 1_555
O8 Cd2 1_555 1_555
O9 H21 1_555 1_555
O10 C38 1_555 1_555
O11 Cd2 1_555 1_555
O12 C39 1_555 1_555
O13 C53 1_555 1_555
O14 C53 1_555 1_555
O15 C67 1_555 1_555
O16 C67 1_555 1_555
O17 H22 1_555 1_555
O18 C73 1_555 1_555
N5 Cd2 1_555 1_555
N6 Cd2 1_555 1_555
N7 Cd3 1_555 1_555
N8 Cd3 1_555 1_555
C34 O8 1_555 1_555
C35 C34 1_555 1_555
C36 C35 1_555 1_555
H23 C36 1_555 1_555
C37 C36 1_555 1_555
C38 O9 1_555 1_555
C39 O11 1_555 1_555
C40 C39 1_555 1_555
C41 N5 1_555 1_555
H24 C41 1_555 1_555
C42 C41 1_555 1_555
H25 C42 1_555 1_555
C43 C42 1_555 1_555
H26 C43 1_555 1_555
C44 C43 1_555 1_555
C45 N5 1_555 1_555
C46 N6 1_555 1_555
C47 C46 1_555 1_555
C48 C47 1_555 1_555
H27 C48 1_555 1_555
C49 C44 1_555 1_555
H28 C49 1_555 1_555
C50 C47 1_555 1_555
H29 C50 1_555 1_555
C51 C50 1_555 1_555
H30 C51 1_555 1_555
C52 N6 1_555 1_555
H31 C52 1_555 1_555
C53 C54 1_555 1_555
C54 C55 1_555 1_555
C55 C37 1_555 1_555
H32 C55 1_555 1_555
C56 C35 1_555 1_555
H33 C56 1_555 1_555
C57 N7 1_555 1_555
H34 C57 1_555 1_555
C58 C57 1_555 1_555
H35 C58 1_555 1_555
C59 C58 1_555 1_555
H36 C59 1_555 1_555
C60 C59 1_555 1_555
C61 N7 1_555 1_555
C62 N8 1_555 1_555
C63 C62 1_555 1_555
C64 C63 1_555 1_555
H37 C64 1_555 1_555
C65 C64 1_555 1_555
H38 C65 1_555 1_555
C66 N8 1_555 1_555
H39 C66 1_555 1_555
C67 C68 1_555 1_555
C68 C69 1_555 1_555
C69 C40 1_555 1_555
H40 C69 1_555 1_555
C70 C68 1_555 1_555
H41 C70 1_555 1_555
C71 C70 1_555 1_555
C72 C40 1_555 1_555
H42 C72 1_555 1_555
C73 O17 1_555 1_555
C74 C63 1_555 1_555
H43 C74 1_555 1_555
C75 C60 1_555 1_555
H44 C75 1_555 1_555
O5A Cd1 1_555 1_555
Cd1A O5 1_555 1_555
O14_2 Cd2 1_555 1_555
O13_2 Cd3 1_555 1_555
O15_2 Cd3 1_555 1_555
O16_2 Cd3 1_555 1_555
Cd3_2 O13 1_555 1_555
Cd2_2 O14 1_555 1_555
C4 C5 1_555 1_555
C5 C6 1_555 1_555
C8 C9 1_555 1_555
C11 C12 1_555 1_555
C16 C17 1_555 1_555
C20 C21 1_555 1_555
C25 C26 1_555 1_555
C26 C30 1_555 1_555
C29 C30 1_555 1_555
C32 C33 1_555 1_555
O15 Cd3_2 1_555 1_555
O16 Cd3_2 1_555 1_555
C37 C38 1_555 1_555
C44 C45 1_555 1_555
C45 C46 1_555 1_555
C48 C49 1_555 1_555
C51 C52 1_555 1_555
C54 C56 1_555 1_555
C60 C61 1_555 1_555
C61 C62 1_555 1_555
C65 C66 1_555 1_555
C71 C72 1_555 1_555
C71 C73 1_555 1_555
C74 C75 1_555 1_555

#END
