
#######################################################################
#
#                 Cambridge Crystallographic Data Centre
#                                CCDC 
#
#######################################################################
#
# If this CIF has been generated from an entry in the Cambridge 
# Structural Database, then it will include bibliographic, chemical, 
# crystal, experimental, refinement or atomic coordinate data resulting 
# from the CCDC's data processing and validation procedures.
#
#######################################################################

data_ARIDUA
_symmetry_cell_setting           monoclinic
_symmetry_space_group_name_H-M   'P n'
_symmetry_Int_Tables_number      7
_space_group_name_Hall           'P -2yac'
loop_
_symmetry_equiv_pos_site_id
_symmetry_equiv_pos_as_xyz
1 x,y,z
2 1/2+x,-y,1/2+z
_cell_length_a                   12.954(3)
_cell_length_b                   13.417(3)
_cell_length_c                   18.810(4)
_cell_angle_alpha                90
_cell_angle_beta                 99.67(3)
_cell_angle_gamma                90
_cell_volume                     3222.8
loop_
_atom_site_label
_atom_site_type_symbol
_atom_site_fract_x
_atom_site_fract_y
_atom_site_fract_z
La1 La 0.25482(3) -0.23985(2) 0.00093(2)
P1 P 0.51099(15) -0.74252(12) -0.07823(10)
Mo1 Mo 0.45343(5) -0.80745(5) -0.26404(3)
Mo2 Mo 0.25184(4) -0.77788(4) -0.16972(3)
Mo3 Mo 0.38853(5) -0.57413(4) -0.21138(3)
Mo4 Mo 0.64521(5) -0.51706(4) -0.10024(3)
Mo5 Mo 0.77475(4) -0.70115(4) 0.00512(3)
Mo6 Mo 0.71996(5) -0.73085(4) -0.17851(3)
Mo7 Mo 0.30989(5) -0.74532(4) 0.02924(3)
Mo8 Mo 0.40671(5) -0.52197(4) -0.01593(3)
Mo9 Mo 0.55660(5) -0.67275(4) 0.10729(3)
Mo10 Mo 0.39357(4) -0.97401(4) -0.05414(3)
Mo11 Mo 0.61225(5) -0.97257(4) -0.13128(3)
Mo12 Mo 0.62959(4) -0.92280(4) 0.04942(3)
O1 O 0.4531(5) -0.8434(4) -0.3495(3)
O2 O 0.1288(4) -0.8144(4) -0.1987(3)
O3 O 0.3363(4) -0.4776(4) -0.2601(3)
O4 O 0.6841(4) -0.4026(4) -0.1176(3)
O5 O 0.8913(4) -0.6894(4) 0.0595(3)
O6 O 0.8113(5) -0.7456(4) -0.2312(3)
O7 O 0.2010(4) -0.7604(4) 0.0640(3)
O8 O 0.3667(4) -0.4062(3) 0.0015(3)
O9 O 0.5963(5) -0.6560(4) 0.1958(3)
O10 O 0.3136(4) -1.0683(3) -0.0392(3)
O11 O 0.6560(4) -1.0705(3) -0.1704(3)
O12 O 0.7004(4) -0.9898(4) 0.1146(3)
O13 O 0.2571(4) -0.6518(4) -0.2082(3)
O14 O 0.4159(4) -0.6625(4) -0.2806(3)
O15 O 0.3644(4) -0.5374(4) -0.1117(3)
O16 O 0.5226(4) -0.5350(4) -0.1783(3)
O17 O 0.3171(4) -0.8264(4) -0.2525(3)
O18 O 0.5953(4) -0.7471(3) -0.2380(3)
O19 O 0.7145(4) -0.5940(4) -0.1698(3)
O20 O 0.8133(4) -0.7297(4) -0.0825(3)
O21 O 0.6995(4) -0.8723(4) -0.1473(3)
O22 O 0.7523(4) -0.5597(4) -0.0296(3)
O23 O 0.5109(4) -0.9141(3) -0.2116(3)
O24 O 0.7329(4) -0.8261(3) 0.0252(3)
O25 O 0.6684(4) -0.9945(4) -0.0361(3)
O26 O 0.6746(4) -0.6556(3) 0.0680(3)
O27 O 0.5796(4) -0.8192(3) 0.0974(3)
O28 O 0.5064(4) -0.9946(3) 0.0308(3)
O29 O 0.4813(4) -1.0353(4) -0.1080(3)
O30 O 0.5484(4) -0.4971(3) -0.0414(3)
O31 O 0.3158(4) -0.9052(4) -0.1271(3)
O32 O 0.4939(4) -0.5530(3) 0.0798(3)
O33 O 0.3490(4) -0.8722(3) 0.0108(3)
O34 O 0.4096(4) -0.7218(4) 0.1098(3)
O35 O 0.3044(4) -0.5973(3) 0.0147(3)
O36 O 0.2513(4) -0.7421(3) -0.0765(3)
O37 O 0.4347(4) -0.7293(3) -0.1485(2)
O38 O 0.6153(4) -0.6942(3) -0.0845(2)
O39 O 0.4652(4) -0.6933(3) -0.0163(2)
O40 O 0.5274(3) -0.8547(3) -0.0611(2)
N1 N 0.2465(6) 0.0178(5) 0.1662(4)
O41 O 0.2505(5) -0.1212(4) 0.0990(3)
C1 C 0.2938(7) -0.0590(5) 0.1419(4)
C2 C 0.4084(7) -0.0602(6) 0.1764(4)
H1 H 0.4220 -0.1117 0.2130
H2 H 0.4531 -0.0711 0.1406
C3 C 0.4254(8) 0.0421(8) 0.2094(6)
H3 H 0.4579 0.0859 0.1786
H4 H 0.4699 0.0386 0.2563
C4 C 0.3174(7) 0.0794(7) 0.2165(5)
H5 H 0.3042 0.0709 0.2654
H6 H 0.3095 0.1493 0.2035
C5 C 0.1362(7) 0.0338(6) 0.1502(5)
H7 H 0.1050 -0.0151 0.1159
H8 H 0.1225 0.0993 0.1302
H9 H 0.1069 0.0280 0.1936
N2 N -0.0062(8) -0.4102(11) -0.1442(6)
O42 O 0.1378(4) -0.3613(4) -0.0652(4)
C6 C 0.0737(7) -0.4086(9) -0.1043(5)
C7 C 0.0891(11) -0.5367(9) -0.0979(7)
H10 H 0.1467 -0.5587 -0.1210
H11 H 0.1019 -0.5580 -0.0479
C8 C -0.0058(13) -0.5733(11) -0.1338(10)
H12 H -0.0504 -0.5927 -0.0996
H13 H 0.0055 -0.6309 -0.1627
C9 C -0.0582(6) -0.4846(8) -0.1841(5)
H14 H -0.0418 -0.4877 -0.2325
H15 H -0.1334 -0.4808 -0.1860
C10 C -0.0450(17) -0.3104(14) -0.1734(9)
H16 H -0.0076 -0.2586 -0.1447
H17 H -0.1185 -0.3047 -0.1717
H18 H -0.0338 -0.3042 -0.2223
N3 N -0.0467(5) -0.0473(5) -0.0362(4)
O43 O 0.0948(4) -0.1446(4) -0.0425(3)
C11 C 0.0518(5) -0.0594(5) -0.0443(4)
C12 C 0.0991(6) 0.0395(5) -0.0554(5)
H19 H 0.1298 0.0394 -0.0990
H20 H 0.1529 0.0564 -0.0148
C13 C 0.0087(7) 0.1120(6) -0.0618(7)
H21 H 0.0286 0.1709 -0.0328
H22 H -0.0129 0.1322 -0.1116
C14 C -0.0776(6) 0.0585(6) -0.0351(6)
H23 H -0.0834 0.0796 0.0133
H24 H -0.1439 0.0699 -0.0666
C15 C -0.1182(6) -0.1272(6) -0.0225(5)
H25 H -0.0848 -0.1906 -0.0255
H26 H -0.1808 -0.1242 -0.0580
H27 H -0.1358 -0.1190 0.0247
N4 N 0.5686(5) -0.3138(4) 0.1138(3)
O44 O 0.4384(4) -0.2210(3) 0.0503(3)
C16 C 0.5293(6) -0.2556(5) 0.0597(4)
C17 C 0.6065(7) -0.2430(6) 0.0098(4)
H28 H 0.6124 -0.1736 -0.0032
H29 H 0.5864 -0.2820 -0.0338
C18 C 0.7089(6) -0.2810(6) 0.0532(5)
H30 H 0.7501 -0.2267 0.0773
H31 H 0.7501 -0.3160 0.0225
C19 C 0.6726(6) -0.3515(6) 0.1075(4)
H32 H 0.6689 -0.4196 0.0900
H33 H 0.7192 -0.3488 0.1536
C20 C 0.5120(6) -0.3460(6) 0.1698(4)
H34 H 0.4457 -0.3124 0.1642
H35 H 0.5520 -0.3303 0.2162
H36 H 0.5007 -0.4166 0.1663
N5 N 0.0773(6) -0.4601(5) 0.1088(4)
O45 O 0.1945(5) -0.3383(4) 0.0921(3)
C21 C 0.1705(7) -0.4197(6) 0.1168(4)
C22 C 0.2483(6) -0.4869(7) 0.1633(4)
H37 H 0.2991 -0.5135 0.1358
H38 H 0.2852 -0.4508 0.2046
C23 C 0.1826(8) -0.5695(7) 0.1872(5)
H39 H 0.1807 -0.5644 0.2384
H40 H 0.2107 -0.6342 0.1775
C24 C 0.0740(8) -0.5556(7) 0.1436(5)
H41 H 0.0580 -0.6083 0.1081
H42 H 0.0215 -0.5558 0.1748
C25 C -0.0152(7) -0.4161(8) 0.0672(5)
H43 H 0.0024 -0.3530 0.0484
H44 H -0.0670 -0.4064 0.0976
H45 H -0.0426 -0.4596 0.0280
N6 N 0.3066(5) -0.1698(4) -0.2232(3)
O46 O 0.3084(6) -0.2491(4) -0.1163(3)
C26 C 0.3485(7) -0.2288(5) -0.1704(4)
C27 C 0.4533(7) -0.2638(6) -0.1824(4)
H46 H 0.4612 -0.3350 -0.1743
H47 H 0.5090 -0.2292 -0.1511
C28 C 0.4534(7) -0.2377(6) -0.2620(5)
H48 H 0.5221 -0.2153 -0.2693
H49 H 0.4329 -0.2947 -0.2929
C29 C 0.3735(6) -0.1543(6) -0.2774(4)
H50 H 0.4071 -0.0895 -0.2718
H51 H 0.3337 -0.1597 -0.3258
C30 C 0.2095(6) -0.1160(6) -0.2254(4)
H52 H 0.1767 -0.1361 -0.1856
H53 H 0.1637 -0.1302 -0.2699
H54 H 0.2237 -0.0457 -0.2223
O10_2 O 0.3136(4) -0.0683(3) -0.0392(3)
La1_2 La 0.25482(3) -1.23985(2) 0.00093(2)
loop_
_geom_bond_atom_site_label_1
_geom_bond_atom_site_label_2
_geom_bond_site_symmetry_1
_geom_bond_site_symmetry_2
La1 O8 1_555 1_555
P1 O37 1_555 1_555
Mo1 O1 1_555 1_555
Mo2 O2 1_555 1_555
Mo3 O3 1_555 1_555
Mo4 O4 1_555 1_555
Mo5 O5 1_555 1_555
Mo6 O6 1_555 1_555
Mo7 O7 1_555 1_555
Mo8 O8 1_555 1_555
Mo9 O9 1_555 1_555
Mo10 O10 1_555 1_555
Mo11 O11 1_555 1_555
Mo12 O12 1_555 1_555
O10 La1_2 1_555 1_555
O13 Mo2 1_555 1_555
O14 Mo1 1_555 1_555
O15 Mo3 1_555 1_555
O16 Mo3 1_555 1_555
O17 Mo1 1_555 1_555
O18 Mo1 1_555 1_555
O19 Mo4 1_555 1_555
O20 Mo5 1_555 1_555
O21 Mo6 1_555 1_555
O22 Mo4 1_555 1_555
O23 Mo1 1_555 1_555
O24 Mo5 1_555 1_555
O25 Mo11 1_555 1_555
O26 Mo5 1_555 1_555
O27 Mo9 1_555 1_555
O28 Mo10 1_555 1_555
O29 Mo10 1_555 1_555
O30 Mo4 1_555 1_555
O31 Mo2 1_555 1_555
O32 Mo8 1_555 1_555
O33 Mo7 1_555 1_555
O34 Mo7 1_555 1_555
O35 Mo7 1_555 1_555
O36 Mo2 1_555 1_555
O37 Mo1 1_555 1_555
O38 P1 1_555 1_555
O39 P1 1_555 1_555
O40 P1 1_555 1_555
N1 C1 1_555 1_555
O41 La1 1_555 1_555
C1 O41 1_555 1_555
C2 C1 1_555 1_555
H1 C2 1_555 1_555
H2 C2 1_555 1_555
C3 C2 1_555 1_555
H3 C3 1_555 1_555
H4 C3 1_555 1_555
C4 N1 1_555 1_555
H5 C4 1_555 1_555
H6 C4 1_555 1_555
C5 N1 1_555 1_555
H7 C5 1_555 1_555
H8 C5 1_555 1_555
H9 C5 1_555 1_555
N2 C6 1_555 1_555
O42 La1 1_555 1_555
C6 O42 1_555 1_555
C7 C6 1_555 1_555
H10 C7 1_555 1_555
H11 C7 1_555 1_555
C8 C7 1_555 1_555
H12 C8 1_555 1_555
H13 C8 1_555 1_555
C9 N2 1_555 1_555
H14 C9 1_555 1_555
H15 C9 1_555 1_555
C10 N2 1_555 1_555
H16 C10 1_555 1_555
H17 C10 1_555 1_555
H18 C10 1_555 1_555
N3 C11 1_555 1_555
O43 La1 1_555 1_555
C11 O43 1_555 1_555
C12 C11 1_555 1_555
H19 C12 1_555 1_555
H20 C12 1_555 1_555
C13 C12 1_555 1_555
H21 C13 1_555 1_555
H22 C13 1_555 1_555
C14 N3 1_555 1_555
H23 C14 1_555 1_555
H24 C14 1_555 1_555
C15 N3 1_555 1_555
H25 C15 1_555 1_555
H26 C15 1_555 1_555
H27 C15 1_555 1_555
N4 C16 1_555 1_555
O44 La1 1_555 1_555
C16 O44 1_555 1_555
C17 C16 1_555 1_555
H28 C17 1_555 1_555
H29 C17 1_555 1_555
C18 C17 1_555 1_555
H30 C18 1_555 1_555
H31 C18 1_555 1_555
C19 N4 1_555 1_555
H32 C19 1_555 1_555
H33 C19 1_555 1_555
C20 N4 1_555 1_555
H34 C20 1_555 1_555
H35 C20 1_555 1_555
H36 C20 1_555 1_555
N5 C21 1_555 1_555
O45 La1 1_555 1_555
C21 O45 1_555 1_555
C22 C21 1_555 1_555
H37 C22 1_555 1_555
H38 C22 1_555 1_555
C23 C22 1_555 1_555
H39 C23 1_555 1_555
H40 C23 1_555 1_555
C24 N5 1_555 1_555
H41 C24 1_555 1_555
H42 C24 1_555 1_555
C25 N5 1_555 1_555
H43 C25 1_555 1_555
H44 C25 1_555 1_555
H45 C25 1_555 1_555
N6 C26 1_555 1_555
O46 La1 1_555 1_555
C26 O46 1_555 1_555
C27 C26 1_555 1_555
H46 C27 1_555 1_555
H47 C27 1_555 1_555
C28 C27 1_555 1_555
H48 C28 1_555 1_555
H49 C28 1_555 1_555
C29 N6 1_555 1_555
H50 C29 1_555 1_555
H51 C29 1_555 1_555
C30 N6 1_555 1_555
H52 C30 1_555 1_555
H53 C30 1_555 1_555
H54 C30 1_555 1_555
O10_2 La1 1_555 1_555
Mo2 O17 1_555 1_555
Mo2 O37 1_555 1_555
Mo3 O13 1_555 1_555
Mo3 O37 1_555 1_555
Mo3 O14 1_555 1_555
Mo4 O38 1_555 1_555
Mo4 O16 1_555 1_555
Mo5 O38 1_555 1_555
Mo5 O22 1_555 1_555
Mo6 O38 1_555 1_555
Mo6 O18 1_555 1_555
Mo6 O19 1_555 1_555
Mo6 O20 1_555 1_555
Mo7 O39 1_555 1_555
Mo7 O36 1_555 1_555
Mo8 O15 1_555 1_555
Mo8 O30 1_555 1_555
Mo8 O35 1_555 1_555
Mo8 O39 1_555 1_555
Mo9 O34 1_555 1_555
Mo9 O32 1_555 1_555
Mo9 O39 1_555 1_555
Mo9 O26 1_555 1_555
Mo10 O33 1_555 1_555
Mo10 O40 1_555 1_555
Mo10 O31 1_555 1_555
Mo11 O29 1_555 1_555
Mo11 O40 1_555 1_555
Mo11 O21 1_555 1_555
Mo11 O23 1_555 1_555
Mo12 O40 1_555 1_555
Mo12 O24 1_555 1_555
Mo12 O25 1_555 1_555
Mo12 O27 1_555 1_555
Mo12 O28 1_555 1_555
C3 C4 1_555 1_555
C8 C9 1_555 1_555
C13 C14 1_555 1_555
C18 C19 1_555 1_555
C23 C24 1_555 1_555
C28 C29 1_555 1_555

#END
