
#######################################################################
#
#                 Cambridge Crystallographic Data Centre
#                                CCDC 
#
#######################################################################
#
# If this CIF has been generated from an entry in the Cambridge 
# Structural Database, then it will include bibliographic, chemical, 
# crystal, experimental, refinement or atomic coordinate data resulting 
# from the CCDC's data processing and validation procedures.
#
#######################################################################

data_ARIFOW
_symmetry_cell_setting           monoclinic
_symmetry_space_group_name_H-M   'C 2/c'
_symmetry_Int_Tables_number      15
_space_group_name_Hall           '-C 2yn'
loop_
_symmetry_equiv_pos_site_id
_symmetry_equiv_pos_as_xyz
1 x,y,z
2 1/2+x,1/2+y,z
3 x,-y,1/2+z
4 1/2+x,1/2-y,1/2+z
5 -x,-y,-z
6 1/2-x,1/2-y,-z
7 -x,y,1/2-z
8 1/2-x,1/2+y,1/2-z
_cell_length_a                   25.6018(6)
_cell_length_b                   16.5713(4)
_cell_length_c                   13.3218(3)
_cell_angle_alpha                90
_cell_angle_beta                 92.5240(10)
_cell_angle_gamma                90
_cell_volume                     5646.36
loop_
_atom_site_label
_atom_site_type_symbol
_atom_site_fract_x
_atom_site_fract_y
_atom_site_fract_z
Cd1 Cd 0.201625(10) 0.105316(16) 0.66881(2)
Cd2 Cd 0.203547(10) 0.229267(17) 0.39875(2)
O1 O 0.21549(10) 0.21145(16) 0.57177(19)
H1 H 0.1918 0.2518 0.5983
N1 N 0.11931(13) 0.0487(2) 0.6402(2)
N2 N -0.12840(13) -0.1442(2) 0.6138(3)
N3 N 0.14714(13) 0.3398(2) 0.4419(3)
N4 N 0.0362(3) 0.6954(4) 0.6333(5)
C1 C 0.24961(14) -0.0334(2) 0.6040(3)
C2 C 0.29406(15) -0.2022(3) 0.3085(3)
C3 C 0.27659(14) -0.1064(2) 0.5633(3)
C4 C 0.27461(15) -0.1205(2) 0.4605(3)
H2 H 0.2570 -0.0843 0.4178
C5 C 0.29832(15) -0.1876(2) 0.4202(3)
C6 C 0.32620(15) -0.2401(2) 0.4839(3)
H3 H 0.3428 -0.2850 0.4580
C7 C 0.32922(15) -0.2251(2) 0.5870(3)
C8 C 0.30408(14) -0.1594(2) 0.6272(3)
H4 H 0.3055 -0.1508 0.6962
C9 C 0.11404(16) -0.0319(3) 0.6337(3)
H5 H 0.1441 -0.0634 0.6346
C10 C 0.06634(15) -0.0699(3) 0.6260(3)
H6 H 0.0647 -0.1258 0.6202
C11 C 0.02030(14) -0.0245(2) 0.6267(3)
C12 C 0.02625(15) 0.0587(2) 0.6322(3)
H7 H -0.0031 0.0919 0.6315
C13 C 0.07567(16) 0.0922(3) 0.6385(3)
H8 H 0.0786 0.1481 0.6418
C14 C -0.08366(17) -0.1833(3) 0.6326(4)
H9 H -0.0851 -0.2387 0.6435
C15 C -0.03538(16) -0.1469(3) 0.6370(3)
H10 H -0.0053 -0.1776 0.6487
C16 C -0.03177(15) -0.0641(2) 0.6237(3)
C17 C -0.07849(15) -0.0222(2) 0.6100(3)
H11 H -0.0783 0.0338 0.6046
C18 C -0.12527(15) -0.0639(3) 0.6045(3)
H12 H -0.1561 -0.0348 0.5937
C19 C 0.11973(17) 0.3371(3) 0.5254(3)
H13 H 0.1181 0.2883 0.5595
C20 C 0.0937(2) 0.4025(3) 0.5636(4)
H14 H 0.0759 0.3977 0.6226
C21 C 0.09479(17) 0.4757(3) 0.5124(4)
C22 C 0.12058(17) 0.4773(3) 0.4240(4)
H15 H 0.1205 0.5241 0.3855
C23 C 0.14628(17) 0.4101(3) 0.3925(3)
H16 H 0.1642 0.4135 0.3334
C24 C 0.0570(5) 0.6379(6) 0.6893(7)
H17 H 0.0602 0.6470 0.7582
C25 C 0.0744(4) 0.5655(5) 0.6543(5)
H18 H 0.0881 0.5270 0.6989
C26 C 0.0715(2) 0.5500(3) 0.5532(4)
C27 C 0.0495(2) 0.6097(3) 0.4926(5)
H19 H 0.0464 0.6026 0.4234
C28 C 0.0323(3) 0.6800(4) 0.5360(6)
H20 H 0.0169 0.7190 0.4941
O2 O 0.24182(11) -0.02758(17) 0.6958(2)
O3 O 0.23529(11) 0.02167(17) 0.5431(2)
O4 O 0.27453(12) -0.1453(2) 0.2558(2)
O5 O 0.31042(14) -0.2662(2) 0.2733(2)
O6 O 0.41482(13) -0.3035(3) 0.6275(3)
O7 O 0.3648(2) -0.2576(3) 0.7659(3)
O8 O 0.33566(14) -0.3671(2) 0.6696(3)
S1 S 0.36547(4) -0.29216(7) 0.66767(8)
O9 O 0.25580(13) 0.11403(19) 0.3743(3)
H21 H 0.2501(17) 0.093(3) 0.326(4)
H22 H 0.254(2) 0.080(3) 0.423(4)
C1B C 0.24961(14) 0.0334(2) 1.1040(3)
C2B C 0.29406(15) 0.2022(3) 0.8085(3)
C3B C 0.27659(14) 0.1064(2) 1.0633(3)
C4B C 0.27461(15) 0.1205(2) 0.9605(3)
H2B H 0.2570 0.0843 0.9178
C5B C 0.29832(15) 0.1876(2) 0.9202(3)
C6B C 0.32620(15) 0.2401(2) 0.9839(3)
H3B H 0.3428 0.2850 0.9580
C7B C 0.32922(15) 0.2251(2) 1.0870(3)
C8B C 0.30408(14) 0.1594(2) 1.1272(3)
H4B H 0.3055 0.1508 1.1962
O2B O 0.24182(11) 0.02758(17) 1.1958(2)
O3B O 0.23529(11) -0.02167(17) 1.0431(2)
O4B O 0.27453(12) 0.1453(2) 0.7558(2)
O5B O 0.31042(14) 0.2662(2) 0.7733(2)
O6B O 0.41482(13) 0.3035(3) 1.1275(3)
O7B O 0.3648(2) 0.2576(3) 1.2659(3)
O8B O 0.33566(14) 0.3671(2) 1.1696(3)
S1B S 0.36547(4) 0.29216(7) 1.16767(8)
Cd1B Cd 0.201625(10) -0.105316(16) 1.16881(2)
Cd2E Cd 0.296453(10) 0.270733(17) 0.60125(2)
O1E O 0.28451(10) 0.28855(16) 0.42823(19)
H1E H 0.3082 0.2482 0.4017
N1D N -0.11931(13) -0.0487(2) 0.3598(2)
N2D N 0.12840(13) 0.1442(2) 0.3862(3)
C9D C -0.11404(16) 0.0319(3) 0.3663(3)
H5D H -0.1441 0.0634 0.3654
C10D C -0.06634(15) 0.0699(3) 0.3740(3)
H6D H -0.0647 0.1258 0.3798
C11D C -0.02030(14) 0.0245(2) 0.3733(3)
C12D C -0.02625(15) -0.0587(2) 0.3678(3)
H7D H 0.0031 -0.0919 0.3685
C13D C -0.07567(16) -0.0922(3) 0.3615(3)
H8D H -0.0786 -0.1481 0.3582
C14D C 0.08366(17) 0.1833(3) 0.3674(4)
H9D H 0.0851 0.2387 0.3565
C15D C 0.03538(16) 0.1469(3) 0.3630(3)
H10D H 0.0053 0.1776 0.3513
C16D C 0.03177(15) 0.0641(2) 0.3763(3)
C17D C 0.07849(15) 0.0222(2) 0.3900(3)
H11D H 0.0783 -0.0338 0.3954
C18D C 0.12527(15) 0.0639(3) 0.3955(3)
H12D H 0.1561 0.0348 0.4063
N3E N 0.35286(13) 0.1602(2) 0.5581(3)
N4E N 0.4638(3) -0.1954(4) 0.3667(5)
C19E C 0.38027(17) 0.1629(3) 0.4746(3)
H13E H 0.3819 0.2117 0.4405
C20E C 0.4063(2) 0.0975(3) 0.4364(4)
H14E H 0.4241 0.1023 0.3774
C21E C 0.40521(17) 0.0243(3) 0.4876(4)
C22E C 0.37942(17) 0.0227(3) 0.5760(4)
H15E H 0.3795 -0.0241 0.6145
C23E C 0.35372(17) 0.0899(3) 0.6075(3)
H16E H 0.3358 0.0865 0.6666
C24E C 0.4430(5) -0.1379(6) 0.3107(7)
H17E H 0.4398 -0.1470 0.2418
C25E C 0.4256(4) -0.0655(5) 0.3457(5)
H18E H 0.4119 -0.0270 0.3011
C26E C 0.4285(2) -0.0500(3) 0.4468(4)
C27E C 0.4505(2) -0.1097(3) 0.5074(5)
H19E H 0.4536 -0.1026 0.5766
C28E C 0.4677(3) -0.1800(4) 0.4640(6)
H20E H 0.4831 -0.2190 0.5059
O9E O 0.24420(13) 0.38597(19) 0.6257(3)
H21E H 0.2499(17) 0.407(3) 0.674(4)
H22E H 0.246(2) 0.420(3) 0.577(4)
O8G O 0.16434(14) 0.1329(2) 0.8304(3)
O5G O 0.18958(14) 0.2338(2) 0.2267(2)
Cd2D Cd -0.203547(10) -0.229267(17) 0.60125(2)
Cd1B_2 Cd 0.201625(10) -0.105316(16) 0.16881(2)
Cd2G Cd 0.296453(10) -0.270733(17) 0.10125(2)
Cd1G Cd 0.298375(10) -0.394684(16) 0.83119(2)
Cd1E Cd 0.298375(10) 0.394684(16) 1.33119(2)
O1B O 0.21549(10) -0.21145(16) 1.07177(19)
N1B N 0.11931(13) -0.0487(2) 1.1402(2)
O4_2 O 0.27453(12) -0.1453(2) 1.2558(2)
O8E O 0.16434(14) -0.1329(2) 1.3304(3)
N2A N 0.37160(13) 0.3558(2) 0.6138(3)
Cd1E_2 Cd 0.298375(10) 0.394684(16) 0.33119(2)
Cd1D Cd -0.201625(10) -0.105316(16) 0.33119(2)
H1B H 0.1918 -0.2518 1.0983
O10 O 0.5000 -0.1915(9) 0.7500
H23 H 0.509(2) -0.225(4) 0.697(5)
H23F H 0.491(2) -0.225(4) 0.803(5)
loop_
_geom_bond_atom_site_label_1
_geom_bond_atom_site_label_2
_geom_bond_site_symmetry_1
_geom_bond_site_symmetry_2
Cd1 O1 1_555 1_555
Cd2 O1 1_555 1_555
O1 H1 1_555 1_555
N1 Cd1 1_555 1_555
N2 C14 1_555 1_555
N3 Cd2 1_555 1_555
N4 C24 1_555 1_555
C1 C3 1_555 1_555
C2 C5 1_555 1_555
C3 C4 1_555 1_555
C4 H2 1_555 1_555
C5 C4 1_555 1_555
C6 C5 1_555 1_555
H3 C6 1_555 1_555
C7 C6 1_555 1_555
C8 C3 1_555 1_555
H4 C8 1_555 1_555
C9 N1 1_555 1_555
H5 C9 1_555 1_555
C10 C9 1_555 1_555
H6 C10 1_555 1_555
C11 C10 1_555 1_555
C12 C11 1_555 1_555
H7 C12 1_555 1_555
C13 N1 1_555 1_555
H8 C13 1_555 1_555
C14 H9 1_555 1_555
C15 C14 1_555 1_555
H10 C15 1_555 1_555
C16 C11 1_555 1_555
C17 C16 1_555 1_555
H11 C17 1_555 1_555
C18 N2 1_555 1_555
H12 C18 1_555 1_555
C19 N3 1_555 1_555
H13 C19 1_555 1_555
C20 C19 1_555 1_555
H14 C20 1_555 1_555
C21 C20 1_555 1_555
C22 C21 1_555 1_555
H15 C22 1_555 1_555
C23 N3 1_555 1_555
H16 C23 1_555 1_555
C24 H17 1_555 1_555
C25 C24 1_555 1_555
H18 C25 1_555 1_555
C26 C21 1_555 1_555
C27 C26 1_555 1_555
H19 C27 1_555 1_555
C28 N4 1_555 1_555
H20 C28 1_555 1_555
O2 Cd1 1_555 1_555
O3 Cd1 1_555 1_555
O4 C2 1_555 1_555
O5 C2 1_555 1_555
O6 S1 1_555 1_555
O7 S1 1_555 1_555
O8 S1 1_555 1_555
S1 C7 1_555 1_555
O9 Cd2 1_555 1_555
H21 O9 1_555 1_555
H22 O9 1_555 1_555
O10 H23 1_555 1_555
H23F O10 1_555 1_555
C1B C3B 1_555 1_555
C2B C5B 1_555 1_555
C3B C4B 1_555 1_555
C4B H2B 1_555 1_555
C5B C4B 1_555 1_555
C6B C5B 1_555 1_555
H3B C6B 1_555 1_555
C7B C6B 1_555 1_555
C8B C3B 1_555 1_555
H4B C8B 1_555 1_555
O2B C1B 1_555 1_555
O3B C1B 1_555 1_555
O4B Cd1 1_555 1_555
O5B C2B 1_555 1_555
O6B S1B 1_555 1_555
O7B S1B 1_555 1_555
O8B S1B 1_555 1_555
S1B C7B 1_555 1_555
Cd1B O2B 1_555 1_555
Cd2E O1 1_555 1_555
O1E Cd2 1_555 1_555
H1E O1E 1_555 1_555
N1D C9D 1_555 1_555
N2D Cd2 1_555 1_555
C9D H5D 1_555 1_555
C10D C9D 1_555 1_555
H6D C10D 1_555 1_555
C11D C10D 1_555 1_555
C12D C11D 1_555 1_555
H7D C12D 1_555 1_555
C13D N1D 1_555 1_555
H8D C13D 1_555 1_555
C14D N2D 1_555 1_555
H9D C14D 1_555 1_555
C15D C14D 1_555 1_555
H10D C15D 1_555 1_555
C16D C11D 1_555 1_555
C17D C16D 1_555 1_555
H11D C17D 1_555 1_555
C18D N2D 1_555 1_555
H12D C18D 1_555 1_555
N3E Cd2E 1_555 1_555
N4E C24E 1_555 1_555
C19E N3E 1_555 1_555
H13E C19E 1_555 1_555
C20E C19E 1_555 1_555
H14E C20E 1_555 1_555
C21E C20E 1_555 1_555
C22E C21E 1_555 1_555
H15E C22E 1_555 1_555
C23E N3E 1_555 1_555
H16E C23E 1_555 1_555
C24E H17E 1_555 1_555
C25E C24E 1_555 1_555
H18E C25E 1_555 1_555
C26E C21E 1_555 1_555
C27E C26E 1_555 1_555
H19E C27E 1_555 1_555
C28E N4E 1_555 1_555
H20E C28E 1_555 1_555
O9E Cd2E 1_555 1_555
H21E O9E 1_555 1_555
H22E O9E 1_555 1_555
O8G Cd1 1_555 1_555
O5G Cd2 1_555 1_555
Cd2D N2 1_555 1_555
Cd1B_2 O4 1_555 1_555
Cd2G O5 1_555 1_555
Cd1G O8 1_555 1_555
Cd1E O8B 1_555 1_555
O1B Cd1B 1_555 1_555
N1B Cd1B 1_555 1_555
O4_2 Cd1B 1_555 1_555
O8E Cd1B 1_555 1_555
N2A Cd2E 1_555 1_555
Cd1E_2 O1E 1_555 1_555
Cd1D N1D 1_555 1_555
H1B O1B 1_555 1_555
C1 O2 1_555 1_555
C1 O3 1_555 1_555
C7 C8 1_555 1_555
C12 C13 1_555 1_555
C15 C16 1_555 1_555
C17 C18 1_555 1_555
C22 C23 1_555 1_555
C25 C26 1_555 1_555
C27 C28 1_555 1_555
C2B O4B 1_555 1_555
C7B C8B 1_555 1_555
O3B Cd1B 1_555 1_555
O5B Cd2E 1_555 1_555
Cd2E O1E 1_555 1_555
C12D C13D 1_555 1_555
C15D C16D 1_555 1_555
C17D C18D 1_555 1_555
C22E C23E 1_555 1_555
C25E C26E 1_555 1_555
C27E C28E 1_555 1_555

#END
