
#######################################################################
#
#                 Cambridge Crystallographic Data Centre
#                                CCDC 
#
#######################################################################
#
# If this CIF has been generated from an entry in the Cambridge 
# Structural Database, then it will include bibliographic, chemical, 
# crystal, experimental, refinement or atomic coordinate data resulting 
# from the CCDC's data processing and validation procedures.
#
#######################################################################

data_ARIHOY
_symmetry_cell_setting           monoclinic
_symmetry_space_group_name_H-M   'P 21/c'
_symmetry_Int_Tables_number      14
_space_group_name_Hall           '-P 2ybc'
loop_
_symmetry_equiv_pos_site_id
_symmetry_equiv_pos_as_xyz
1 x,y,z
2 x,1/2-y,1/2+z
3 -x,-y,-z
4 -x,1/2+y,1/2-z
_cell_length_a                   22.774(2)
_cell_length_b                   11.375(1)
_cell_length_c                   22.533(2)
_cell_angle_alpha                90
_cell_angle_beta                 104.15(1)
_cell_angle_gamma                90
_cell_volume                     5660.16
loop_
_atom_site_label
_atom_site_type_symbol
_atom_site_fract_x
_atom_site_fract_y
_atom_site_fract_z
Co1 Co 0.19277(8) 0.09368(13) 0.33892(7)
Co2 Co 0.39253(7) -0.00838(14) 0.43858(7)
O1 O 0.4818(4) -0.0128(9) 0.4302(4)
O2 O 0.5791(4) 0.0056(8) 0.4652(4)
O3 O 0.4171(7) -0.2720(12) 0.2485(6)
O4 O 0.4743(7) -0.2902(13) 0.1877(7)
O5 O 0.7017(6) -0.0151(15) 0.3138(7)
O6 O 0.6657(6) -0.0963(13) 0.2273(6)
O7 O 0.0657(4) 0.1919(9) 0.2443(4)
O8 O 0.1517(4) 0.0955(7) 0.2446(3)
O9 O -0.0432(5) 0.2624(12) -0.0370(5)
O10 O -0.0589(5) 0.3234(10) 0.0489(5)
O11 O 0.1814(6) -0.0463(12) 0.0479(6)
O12 O 0.1036(5) -0.0540(10) -0.0280(5)
O13 O 0.3062(4) -0.0254(8) 0.4548(4)
O14 O 0.2214(4) 0.0823(7) 0.4319(3)
O15 O 0.3249(7) -0.3361(12) 0.6067(6)
O16 O 0.2660(7) -0.3391(11) 0.6693(6)
O17 O 0.1056(5) -0.0560(11) 0.6478(5)
O18 O 0.0815(6) 0.0490(11) 0.5648(6)
O19 O 0.3668(4) 0.0001(7) 0.3417(3)
O20 O 0.2763(4) 0.0937(7) 0.3195(3)
O21 O 0.4457(5) 0.0739(13) 0.0967(5)
O22 O 0.4861(6) 0.0171(14) 0.1858(7)
O23 O 0.2002(5) 0.2678(10) 0.1206(5)
O24 O 0.2428(6) 0.2291(12) 0.0478(5)
N1 N 0.4645(8) -0.2529(12) 0.2341(6)
N2 N 0.6622(6) -0.0625(12) 0.2773(7)
N3 N -0.0312(6) 0.2669(12) 0.0186(6)
N4 N 0.1296(7) -0.0236(11) 0.0231(6)
N5 N 0.2837(8) -0.2988(13) 0.6263(7)
N6 N 0.1145(6) -0.0188(12) 0.5996(6)
N7 N 0.4429(6) 0.0547(12) 0.1480(7)
N8 N 0.2406(6) 0.2273(11) 0.1022(6)
C1 C 0.5442(5) -0.0725(10) 0.3668(5)
C2 C 0.4998(6) -0.1382(12) 0.3287(6)
H1 H 0.4631 -0.1518 0.3386
C3 C 0.5106(8) -0.1835(12) 0.2757(7)
C4 C 0.5645(7) -0.1623(12) 0.2586(6)
H2 H 0.5714 -0.1934 0.2227
C5 C 0.6069(6) -0.0938(12) 0.2970(6)
C6 C 0.5989(6) -0.0512(10) 0.3512(6)
H3 H 0.6295 -0.0086 0.3772
C7 C 0.5339(6) -0.0219(10) 0.4270(6)
C8 C 0.0841(6) 0.1349(11) 0.1496(5)
C9 C 0.0358(5) 0.2015(11) 0.1166(5)
H4 H 0.0147 0.2506 0.1370
C10 C 0.0195(6) 0.1950(12) 0.0542(6)
C11 C 0.0483(6) 0.1204(12) 0.0209(6)
H5 H 0.0361 0.1144 -0.0215
C12 C 0.0963(5) 0.0564(11) 0.0552(6)
C13 C 0.1158(6) 0.0613(11) 0.1181(6)
H6 H 0.1488 0.0173 0.1390
C14 C 0.1021(7) 0.1425(11) 0.2184(6)
C15 C 0.2379(6) -0.0492(11) 0.5162(5)
C16 C 0.2692(6) -0.1446(12) 0.5470(6)
H7 H 0.3035 -0.1729 0.5363
C17 C 0.2488(7) -0.1984(12) 0.5946(6)
C18 C 0.1993(7) -0.1592(14) 0.6109(6)
H8 H 0.1864 -0.1953 0.6425
C19 C 0.1678(6) -0.0636(13) 0.5800(6)
C20 C 0.1873(6) -0.0091(11) 0.5343(6)
H9 H 0.1663 0.0561 0.5150
C21 C 0.2573(6) 0.0080(11) 0.4631(5)
C22 C 0.3313(5) 0.0795(10) 0.2430(5)
C23 C 0.3839(6) 0.0547(10) 0.2266(6)
H10 H 0.4163 0.0198 0.2543
C24 C 0.3878(6) 0.0829(12) 0.1677(6)
C25 C 0.3419(6) 0.1374(12) 0.1255(6)
H11 H 0.3455 0.1554 0.0863
C26 C 0.2915(6) 0.1634(12) 0.1440(6)
C27 C 0.2828(6) 0.1362(10) 0.2014(6)
H12 H 0.2469 0.1543 0.2119
C28 C 0.3236(6) 0.0552(10) 0.3082(5)
N9 N 0.3924(5) -0.1964(9) 0.4355(5)
N10 N 0.3931(5) -0.8191(9) 0.4402(5)
N11 N 0.1890(4) -0.0944(8) 0.3336(5)
N12 N 0.1971(4) -0.7172(8) 0.3406(4)
C29 C 0.3896(8) -0.4433(11) 0.4355(6)
C30 C 0.415(2) -0.3803(17) 0.4817(10)
H13 H 0.4353 -0.4176 0.5176
C31 C 0.413(2) -0.2594(17) 0.4802(9)
H14 H 0.4298 -0.2209 0.5169
C32 C 0.3681(8) -0.2575(13) 0.3900(8)
H15 H 0.3494 -0.2173 0.3545
C33 C 0.3664(9) -0.3789(13) 0.3875(9)
H16 H 0.3483 -0.4156 0.3507
C34 C 0.3916(8) -0.5718(12) 0.4356(6)
C35 C 0.3492(7) -0.6341(13) 0.4515(9)
H17 H 0.3168 -0.5957 0.4614
C36 C 0.3520(6) -0.7557(12) 0.4537(8)
H18 H 0.3211 -0.7946 0.4661
C37 C 0.4319(12) -0.7603(14) 0.4215(15)
H19 H 0.4617 -0.8006 0.4080
C38 C 0.4322(14) -0.6351(16) 0.4199(16)
H20 H 0.4631 -0.5975 0.4070
C39 C 0.1916(6) -0.3409(9) 0.3358(5)
C40 C 0.2182(6) -0.2757(10) 0.2960(5)
H21 H 0.2380 -0.3134 0.2698
C41 C 0.2143(6) -0.1549(10) 0.2969(5)
H22 H 0.2307 -0.1130 0.2694
C42 C 0.1624(6) -0.1583(10) 0.3712(6)
H23 H 0.1422 -0.1181 0.3962
C43 C 0.1638(6) -0.2785(10) 0.3740(5)
H24 H 0.1463 -0.3179 0.4015
C44 C 0.1951(6) -0.4713(10) 0.3382(6)
C45 C 0.1975(6) -0.5366(11) 0.2876(6)
H25 H 0.1984 -0.4991 0.2511
C46 C 0.1986(6) -0.6584(10) 0.2906(6)
H26 H 0.2004 -0.7005 0.2558
C47 C 0.1936(6) -0.6549(11) 0.3901(6)
H27 H 0.1908 -0.6951 0.4253
C48 C 0.1940(6) -0.5346(10) 0.3911(5)
H28 H 0.1936 -0.4948 0.4270
C52 C 0.0725(7) 0.1221(15) 0.3985(7)
H35 H 0.0295 0.1170 0.3825
H36 H 0.0829 0.1991 0.4152
H37 H 0.0853 0.0643 0.4300
O25 O 0.1016(4) 0.1016(8) 0.3512(4)
N12_2 N 0.1971(4) 0.2828(8) 0.3406(4)
O2B O 0.4209(4) -0.0056(8) 0.5348(4)
N10_2 N 0.3931(5) 0.1809(9) 0.4402(5)
Co2B Co 0.60747(7) 0.00838(14) 0.56142(7)
Co2_2 Co 0.39253(7) -1.00838(14) 0.43858(7)
Co1_2 Co 0.19277(8) -0.90632(13) 0.33892(7)
C49 C -0.0498(10) 0.3259(18) 0.2894(11)
H29 H -0.0607 0.2904 0.3239
H30 H -0.0408 0.2656 0.2632
H31 H -0.0828 0.3730 0.2671
C50 C 0.0283(10) 0.465(2) 0.2637(12)
H32 H 0.0635 0.5112 0.2821
H33 H -0.0029 0.5164 0.2412
H34 H 0.0386 0.4087 0.2363
C51 C 0.0063(12) 0.404(2) 0.3121(9)
O26 O 0.0252(10) 0.4166(18) 0.3620(9)
loop_
_geom_bond_atom_site_label_1
_geom_bond_atom_site_label_2
_geom_bond_site_symmetry_1
_geom_bond_site_symmetry_2
Co1 O8 1_555 1_555
Co2 O1 1_555 1_555
O1 C7 1_555 1_555
O2 C7 1_555 1_555
O3 N1 1_555 1_555
O4 N1 1_555 1_555
O5 N2 1_555 1_555
O6 N2 1_555 1_555
O7 C14 1_555 1_555
O8 C14 1_555 1_555
O9 N3 1_555 1_555
O10 N3 1_555 1_555
O11 N4 1_555 1_555
O12 N4 1_555 1_555
O13 Co2 1_555 1_555
O14 Co1 1_555 1_555
O15 N5 1_555 1_555
O16 N5 1_555 1_555
O17 N6 1_555 1_555
O18 N6 1_555 1_555
O19 Co2 1_555 1_555
O20 Co1 1_555 1_555
O21 N7 1_555 1_555
O22 N7 1_555 1_555
O23 N8 1_555 1_555
O24 N8 1_555 1_555
N1 C3 1_555 1_555
N2 C5 1_555 1_555
N3 C10 1_555 1_555
N4 C12 1_555 1_555
N5 C17 1_555 1_555
N6 C19 1_555 1_555
N7 C24 1_555 1_555
N8 C26 1_555 1_555
C1 C2 1_555 1_555
C2 H1 1_555 1_555
C3 C2 1_555 1_555
C4 C3 1_555 1_555
H2 C4 1_555 1_555
C5 C4 1_555 1_555
C6 C1 1_555 1_555
H3 C6 1_555 1_555
C7 C1 1_555 1_555
C8 C9 1_555 1_555
C9 H4 1_555 1_555
C10 C9 1_555 1_555
C11 C10 1_555 1_555
H5 C11 1_555 1_555
C12 C11 1_555 1_555
C13 C8 1_555 1_555
H6 C13 1_555 1_555
C14 C8 1_555 1_555
C15 C16 1_555 1_555
C16 H7 1_555 1_555
C17 C16 1_555 1_555
C18 C17 1_555 1_555
H8 C18 1_555 1_555
C19 C18 1_555 1_555
C20 C15 1_555 1_555
H9 C20 1_555 1_555
C21 O13 1_555 1_555
C22 C23 1_555 1_555
C23 H10 1_555 1_555
C24 C23 1_555 1_555
C25 C24 1_555 1_555
H11 C25 1_555 1_555
C26 C25 1_555 1_555
C27 C22 1_555 1_555
H12 C27 1_555 1_555
C28 O19 1_555 1_555
N9 Co2 1_555 1_555
N10 C36 1_555 1_555
N11 Co1 1_555 1_555
N12 C46 1_555 1_555
C29 C30 1_555 1_555
C30 H13 1_555 1_555
C31 N9 1_555 1_555
H14 C31 1_555 1_555
C32 N9 1_555 1_555
H15 C32 1_555 1_555
C33 C29 1_555 1_555
H16 C33 1_555 1_555
C34 C29 1_555 1_555
C35 C34 1_555 1_555
H17 C35 1_555 1_555
C36 C35 1_555 1_555
H18 C36 1_555 1_555
C37 N10 1_555 1_555
H19 C37 1_555 1_555
C38 C34 1_555 1_555
H20 C38 1_555 1_555
C39 C40 1_555 1_555
C40 H21 1_555 1_555
C41 N11 1_555 1_555
H22 C41 1_555 1_555
C42 N11 1_555 1_555
H23 C42 1_555 1_555
C43 C39 1_555 1_555
H24 C43 1_555 1_555
C44 C39 1_555 1_555
C45 C44 1_555 1_555
H25 C45 1_555 1_555
C46 C45 1_555 1_555
H26 C46 1_555 1_555
C47 N12 1_555 1_555
H27 C47 1_555 1_555
C48 C44 1_555 1_555
H28 C48 1_555 1_555
C49 H29 1_555 1_555
H30 C49 1_555 1_555
H31 C49 1_555 1_555
C50 H32 1_555 1_555
H33 C50 1_555 1_555
H34 C50 1_555 1_555
C51 C49 1_555 1_555
C52 H35 1_555 1_555
H36 C52 1_555 1_555
H37 C52 1_555 1_555
O25 Co1 1_555 1_555
O26 C51 1_555 1_555
N12_2 Co1 1_555 1_555
O2B Co2 1_555 1_555
N10_2 Co2 1_555 1_555
Co2B O2 1_555 1_555
Co2_2 N10 1_555 1_555
Co1_2 N12 1_555 1_555
O14 C21 1_555 1_555
O20 C28 1_555 1_555
C5 C6 1_555 1_555
C12 C13 1_555 1_555
C15 C21 1_555 1_555
C19 C20 1_555 1_555
C22 C28 1_555 1_555
C26 C27 1_555 1_555
C30 C31 1_555 1_555
C32 C33 1_555 1_555
C37 C38 1_555 1_555
C40 C41 1_555 1_555
C42 C43 1_555 1_555
C47 C48 1_555 1_555
C50 C51 1_555 1_555
C52 O25 1_555 1_555

#END
