
#######################################################################
#
#                 Cambridge Crystallographic Data Centre
#                                CCDC 
#
#######################################################################
#
# If this CIF has been generated from an entry in the Cambridge 
# Structural Database, then it will include bibliographic, chemical, 
# crystal, experimental, refinement or atomic coordinate data resulting 
# from the CCDC's data processing and validation procedures.
#
#######################################################################

data_ARINIZ
_symmetry_cell_setting           triclinic
_symmetry_space_group_name_H-M   'P -1'
_symmetry_Int_Tables_number      2
_space_group_name_Hall           '-P 1'
loop_
_symmetry_equiv_pos_site_id
_symmetry_equiv_pos_as_xyz
1 x,y,z
2 -x,-y,-z
_cell_length_a                   7.8433(7)
_cell_length_b                   12.2795(11)
_cell_length_c                   13.5977(12)
_cell_angle_alpha                101.596(2)
_cell_angle_beta                 93.864(2)
_cell_angle_gamma                93.200(2)
_cell_volume                     1276.74
loop_
_atom_site_label
_atom_site_type_symbol
_atom_site_fract_x
_atom_site_fract_y
_atom_site_fract_z
Ag1 Ag 0.17472(5) 0.42921(3) 0.94622(2)
Ag2 Ag -0.35828(5) 0.41245(3) 0.44748(3)
S2 S -0.20471(14) 0.27138(9) 1.00982(8)
F4 F -0.1849(8) 0.1897(4) 1.1709(3)
F5 F -0.3840(5) 0.1142(3) 1.0682(4)
F6 F -0.1330(7) 0.0760(4) 1.0374(5)
O1 O -0.0155(5) 0.6646(3) 0.6520(2)
O2 O 0.3394(4) 0.1666(3) 1.2154(2)
O3 O 0.2902(5) 0.2411(3) 0.8724(3)
H1 H 0.3569 0.2346 0.8261
O7 O -0.0255(4) 0.3026(4) 1.0251(4)
O8 O -0.2671(6) 0.2236(4) 0.9095(3)
O9 O -0.3046(6) 0.3540(3) 1.0620(3)
N1 N 0.0259(5) 0.4124(3) 0.7983(3)
N2 N -0.1670(5) 0.3812(3) 0.6138(3)
N3 N -0.2107(5) 0.5628(3) 0.5254(3)
H2 H -0.2215 0.6227 0.4999
N4 N 0.3270(5) 0.4410(3) 1.0922(3)
N5 N 0.5208(5) 0.4447(3) 1.2726(3)
N6 N 0.5079(5) 0.2617(3) 1.3585(3)
H3 H 0.5088 0.2010 1.3836
C1 C 0.0088(6) 0.4964(4) 0.7488(3)
H4 H 0.0642 0.5678 0.7767
C2 C -0.0510(6) 0.3135(4) 0.7541(3)
H5 H -0.0395 0.2518 0.7858
C3 C -0.1475(6) 0.2992(4) 0.6627(3)
H6 H -0.2018 0.2277 0.6340
C4 C -0.0885(5) 0.4796(4) 0.6577(3)
C5 C -0.1109(6) 0.5731(4) 0.6038(3)
C6 C -0.0194(7) 0.7628(4) 0.6108(4)
H7 H 0.0237 0.7477 0.5437
H8 H 0.0528 0.8233 0.6548
H9 H -0.1375 0.7845 0.6055
C7 C 0.3292(6) 0.3511(4) 1.1353(3)
H10 H 0.2633 0.2845 1.1034
C8 C 0.4243(6) 0.5318(4) 1.1401(3)
H11 H 0.4273 0.5968 1.1122
C9 C 0.5205(6) 0.5328(4) 1.2296(3)
H12 H 0.5885 0.5986 1.2612
C10 C 0.4250(5) 0.3541(3) 1.2243(3)
C11 C 0.4284(5) 0.2547(4) 1.2729(3)
C12 C 0.3477(8) 0.0603(4) 1.2432(4)
H13 H 0.4672 0.0411 1.2475
H14 H 0.2804 0.0034 1.1923
H15 H 0.3011 0.0637 1.3087
C13 C 0.2585(5) 0.1370(3) 0.8984(3)
H16 H 0.3624 0.1168 0.9327
H17 H 0.2256 0.0804 0.8373
H18 H 0.1655 0.1413 0.9434
C15 C -0.2262(6) 0.1568(3) 1.0749(3)
Ag2_2 Ag 0.64172(5) 0.41245(3) 1.44748(3)
N5_2 N -0.4792(5) 0.4447(3) 0.2726(3)
N6_2 N -0.4921(5) 0.2617(3) 0.3585(3)
H3_2 H -0.4912 0.2010 0.3836
S1 S 0.39077(17) 0.17589(10) 0.60184(9)
F1 F 0.2903(5) -0.0266(3) 0.6180(3)
F2 F 0.1699(5) 0.0299(4) 0.4916(3)
F3 F 0.0983(4) 0.0883(3) 0.6442(3)
O4 O 0.2876(6) 0.2677(3) 0.5923(3)
O5 O 0.4994(5) 0.1418(3) 0.5212(3)
O6 O 0.4725(4) 0.1834(3) 0.7010(3)
C14 C 0.2301(6) 0.0606(3) 0.5873(3)
loop_
_geom_bond_atom_site_label_1
_geom_bond_atom_site_label_2
_geom_bond_site_symmetry_1
_geom_bond_site_symmetry_2
Ag1 O3 1_555 1_555
Ag2 N2 1_555 1_555
S1 O4 1_555 1_555
S2 O7 1_555 1_555
F1 C14 1_555 1_555
F2 C14 1_555 1_555
F3 C14 1_555 1_555
F4 C15 1_555 1_555
F5 C15 1_555 1_555
F6 C15 1_555 1_555
O1 C5 1_555 1_555
O2 C11 1_555 1_555
O3 H1 1_555 1_555
O5 S1 1_555 1_555
O6 S1 1_555 1_555
O7 Ag1 1_555 1_555
O8 S2 1_555 1_555
O9 S2 1_555 1_555
N1 Ag1 1_555 1_555
N2 C3 1_555 1_555
N3 Ag2 1_555 1_555
H2 N3 1_555 1_555
N4 Ag1 1_555 1_555
N5 C9 1_555 1_555
N6 H3 1_555 1_555
C1 N1 1_555 1_555
H4 C1 1_555 1_555
C2 N1 1_555 1_555
H5 C2 1_555 1_555
C3 C2 1_555 1_555
H6 C3 1_555 1_555
C4 N2 1_555 1_555
C5 N3 1_555 1_555
C6 O1 1_555 1_555
H7 C6 1_555 1_555
H8 C6 1_555 1_555
H9 C6 1_555 1_555
C7 N4 1_555 1_555
H10 C7 1_555 1_555
C8 N4 1_555 1_555
H11 C8 1_555 1_555
C9 C8 1_555 1_555
H12 C9 1_555 1_555
C10 N5 1_555 1_555
C11 N6 1_555 1_555
C12 O2 1_555 1_555
H13 C12 1_555 1_555
H14 C12 1_555 1_555
H15 C12 1_555 1_555
C13 O3 1_555 1_555
H16 C13 1_555 1_555
H17 C13 1_555 1_555
H18 C13 1_555 1_555
C14 S1 1_555 1_555
C15 S2 1_555 1_555
Ag2_2 N5 1_555 1_555
N5_2 Ag2 1_555 1_555
N6_2 Ag2 1_555 1_555
H3_2 N6_2 1_555 1_555
N6 Ag2_2 1_555 1_555
C1 C4 1_555 1_555
C4 C5 1_555 1_555
C7 C10 1_555 1_555
C10 C11 1_555 1_555

#END
