
#######################################################################
#
#                 Cambridge Crystallographic Data Centre
#                                CCDC 
#
#######################################################################
#
# If this CIF has been generated from an entry in the Cambridge 
# Structural Database, then it will include bibliographic, chemical, 
# crystal, experimental, refinement or atomic coordinate data resulting 
# from the CCDC's data processing and validation procedures.
#
#######################################################################

data_ARIPAT
_symmetry_cell_setting           orthorhombic
_symmetry_space_group_name_H-M   'I b a 2'
_symmetry_Int_Tables_number      45
_space_group_name_Hall           'I 2 -2c'
loop_
_symmetry_equiv_pos_site_id
_symmetry_equiv_pos_as_xyz
1 x,y,z
2 -x,-y,z
3 1/2+x,1/2-y,z
4 1/2-x,1/2+y,z
5 1/2+x,1/2+y,1/2+z
6 1/2-x,1/2-y,1/2+z
7 x,-y,1/2+z
8 -x,y,1/2+z
_cell_length_a                   17.469(4)
_cell_length_b                   10.786(2)
_cell_length_c                   11.055(2)
_cell_angle_alpha                90
_cell_angle_beta                 90
_cell_angle_gamma                90
_cell_volume                     2082.99
loop_
_atom_site_label
_atom_site_type_symbol
_atom_site_fract_x
_atom_site_fract_y
_atom_site_fract_z
Ag1 Ag 0.41701(2) 0.04310(4) 1.08841(4)
Ag2 Ag 0.46979(3) -0.13334(4) 1.36863(4)
O1 O 0.3821(2) -0.0091(4) 1.2987(4)
O2 O 0.4951(2) 0.1827(4) 1.1571(4)
N1 N 0.3348(3) 0.0591(4) 1.4818(4)
N2 N 0.5302(3) 0.2694(4) 0.9746(4)
C1 C 0.3345(3) 0.0597(5) 1.3603(6)
C2 C 0.2808(4) 0.1346(6) 1.2985(6)
H1 H 0.2781 0.1307 1.2145
C3 C 0.2335(3) 0.2111(6) 1.3587(7)
H2 H 0.2002 0.2631 1.3171
C4 C 0.2355(4) 0.2111(6) 1.4843(7)
H3 H 0.2033 0.2619 1.5293
C5 C 0.2866(4) 0.1333(6) 1.5391(6)
H4 H 0.2876 0.1325 1.6232
C6 C 0.5308(3) 0.2688(5) 1.0976(6)
C7 C 0.5698(3) 0.3622(6) 1.1584(6)
H5 H 0.5693 0.3640 1.2425
C8 C 0.6088(3) 0.4510(5) 1.0965(8)
H6 H 0.6349 0.5129 1.1382
C9 C 0.6096(4) 0.4492(6) 0.9711(7)
H7 H 0.6367 0.5078 0.9267
C10 C 0.5689(4) 0.3574(6) 0.9158(6)
H8 H 0.5680 0.3561 0.8317
Ag1F Ag 0.41701(2) -0.04310(4) 1.58841(4)
Ag2A Ag 0.53021(3) 0.13334(4) 1.36863(4)
Ag2F Ag 0.46979(3) 0.13334(4) 0.86863(4)
O2A O 0.5049(2) -0.1827(4) 1.1571(4)
N1F N 0.3348(3) -0.0591(4) 0.9818(4)
N2F N 0.5302(3) -0.2694(4) 1.4746(4)
loop_
_geom_bond_atom_site_label_1
_geom_bond_atom_site_label_2
_geom_bond_site_symmetry_1
_geom_bond_site_symmetry_2
Ag1 O1 1_555 1_555
Ag2 O1 1_555 1_555
O1 C1 1_555 1_555
O2 Ag1 1_555 1_555
N1 C1 1_555 1_555
N2 C6 1_555 1_555
C1 C2 1_555 1_555
C2 H1 1_555 1_555
C3 C2 1_555 1_555
H2 C3 1_555 1_555
C4 C3 1_555 1_555
H3 C4 1_555 1_555
C5 N1 1_555 1_555
H4 C5 1_555 1_555
C6 O2 1_555 1_555
C7 C6 1_555 1_555
H5 C7 1_555 1_555
C8 C7 1_555 1_555
H6 C8 1_555 1_555
C9 C8 1_555 1_555
H7 C9 1_555 1_555
C10 N2 1_555 1_555
H8 C10 1_555 1_555
Ag1F N1 1_555 1_555
Ag2A O2 1_555 1_555
Ag2F N2 1_555 1_555
O2A Ag2 1_555 1_555
N1F Ag1 1_555 1_555
N2F Ag2 1_555 1_555
C4 C5 1_555 1_555
C9 C10 1_555 1_555

#END
