
#######################################################################
#
#                 Cambridge Crystallographic Data Centre
#                                CCDC 
#
#######################################################################
#
# If this CIF has been generated from an entry in the Cambridge 
# Structural Database, then it will include bibliographic, chemical, 
# crystal, experimental, refinement or atomic coordinate data resulting 
# from the CCDC's data processing and validation procedures.
#
#######################################################################

data_ARODER
_symmetry_cell_setting           orthorhombic
_symmetry_space_group_name_H-M   'P b c a'
_symmetry_Int_Tables_number      61
_space_group_name_Hall           '-P 2ac 2ab'
loop_
_symmetry_equiv_pos_site_id
_symmetry_equiv_pos_as_xyz
1 x,y,z
2 1/2+x,1/2-y,-z
3 -x,1/2+y,1/2-z
4 1/2-x,-y,1/2+z
5 -x,-y,-z
6 1/2-x,1/2+y,z
7 x,1/2-y,1/2+z
8 1/2+x,y,1/2-z
_cell_length_a                   11.9228(6)
_cell_length_b                   11.8475(6)
_cell_length_c                   19.5004(10)
_cell_angle_alpha                90
_cell_angle_beta                 90
_cell_angle_gamma                90
_cell_volume                     2754.54
loop_
_atom_site_label
_atom_site_type_symbol
_atom_site_fract_x
_atom_site_fract_y
_atom_site_fract_z
C1 C 1.1970(2) 0.1824(3) 0.61856(15)
C2 C 1.3041(2) 0.2175(3) 0.58381(14)
C3 C 1.3850(2) 0.1371(3) 0.56657(15)
H1 H 1.3717 0.0596 0.5760
C4 C 1.4845(3) 0.1698(3) 0.53575(16)
H2 H 1.5398 0.1148 0.5250
C5 C 1.5035(3) 0.2822(3) 0.52061(17)
H3 H 1.5716 0.3043 0.4992
C6 C 1.4232(3) 0.3628(3) 0.53668(15)
H4 H 1.4356 0.4399 0.5258
C7 C 1.3242(3) 0.3298(3) 0.56884(15)
H5 H 1.2698 0.3850 0.5807
C8 C 0.7432(3) 0.0084(3) 0.74170(15)
H6 H 0.7798 -0.0135 0.7853
H7 H 0.7343 0.0915 0.7418
C9 C 0.7339(3) -0.0059(2) 0.59914(15)
H8 H 0.7239 0.0766 0.5936
H9 H 0.7652 -0.0359 0.5558
C10 C 0.8136(2) -0.1864(3) 0.67680(15)
H10 H 0.8488 -0.2239 0.6368
H11 H 0.8521 -0.2138 0.7186
C11 C 0.5729(3) -0.0137(3) 0.67373(15)
H12 H 0.4946 -0.0412 0.6761
H13 H 0.5703 0.0697 0.6702
C12 C 0.6338(3) -0.1811(3) 0.61827(15)
H14 H 0.6729 -0.2108 0.5773
H15 H 0.5575 -0.2139 0.6189
C13 C 0.6405(2) -0.1700(2) 0.74027(15)
H16 H 0.6835 -0.1918 0.7816
H17 H 0.5643 -0.2025 0.7447
N1 N 0.6310(2) -0.04460(19) 0.73827(12)
N2 N 0.6245(2) -0.0582(2) 0.61204(13)
N3 N 0.6946(2) -0.2188(2) 0.68012(12)
O1 O 1.16764(17) 0.08136(17) 0.60786(11)
O2 O 1.14507(18) 0.25133(19) 0.65447(11)
P1 P 0.83404(7) -0.03266(7) 0.66948(4)
Ag1 Ag 1.01981(2) 0.02600(2) 0.663616(13)
N1G N 1.1310(2) -0.04460(19) 0.76173(12)
Ag1G Ag 0.51981(2) 0.02600(2) 0.836384(13)
loop_
_geom_bond_atom_site_label_1
_geom_bond_atom_site_label_2
_geom_bond_site_symmetry_1
_geom_bond_site_symmetry_2
C1 C2 1_555 1_555
C2 C3 1_555 1_555
C3 H1 1_555 1_555
C4 C3 1_555 1_555
H2 C4 1_555 1_555
C5 C4 1_555 1_555
H3 C5 1_555 1_555
C6 C5 1_555 1_555
H4 C6 1_555 1_555
C7 C2 1_555 1_555
H5 C7 1_555 1_555
C8 H6 1_555 1_555
H7 C8 1_555 1_555
C9 H8 1_555 1_555
H9 C9 1_555 1_555
C10 H10 1_555 1_555
H11 C10 1_555 1_555
C11 H12 1_555 1_555
H13 C11 1_555 1_555
C12 H14 1_555 1_555
H15 C12 1_555 1_555
C13 H16 1_555 1_555
H17 C13 1_555 1_555
N1 C8 1_555 1_555
N2 C9 1_555 1_555
N3 C10 1_555 1_555
O1 C1 1_555 1_555
O2 C1 1_555 1_555
P1 C8 1_555 1_555
Ag1 O1 1_555 1_555
N1G Ag1 1_555 1_555
Ag1G N1 1_555 1_555
C6 C7 1_555 1_555
C9 P1 1_555 1_555
C10 P1 1_555 1_555
C11 N1 1_555 1_555
C11 N2 1_555 1_555
C12 N2 1_555 1_555
C12 N3 1_555 1_555
C13 N1 1_555 1_555
C13 N3 1_555 1_555
P1 Ag1 1_555 1_555

#END
