
#######################################################################
#
#                 Cambridge Crystallographic Data Centre
#                                CCDC 
#
#######################################################################
#
# If this CIF has been generated from an entry in the Cambridge 
# Structural Database, then it will include bibliographic, chemical, 
# crystal, experimental, refinement or atomic coordinate data resulting 
# from the CCDC's data processing and validation procedures.
#
#######################################################################

data_ARODUH
_symmetry_cell_setting           triclinic
_symmetry_space_group_name_H-M   'P -1'
_symmetry_Int_Tables_number      2
_space_group_name_Hall           '-P 1'
loop_
_symmetry_equiv_pos_site_id
_symmetry_equiv_pos_as_xyz
1 x,y,z
2 -x,-y,-z
_cell_length_a                   6.9593(3)
_cell_length_b                   9.8142(5)
_cell_length_c                   10.2972(5)
_cell_angle_alpha                95.358(3)
_cell_angle_beta                 107.925(2)
_cell_angle_gamma                106.985(2)
_cell_volume                     626.856
loop_
_atom_site_label
_atom_site_type_symbol
_atom_site_fract_x
_atom_site_fract_y
_atom_site_fract_z
C1 C 0.6090(3) 1.2493(2) -0.0840(2)
C2 C 0.5516(4) 1.3791(2) -0.0413(2)
C3 C 0.7105(4) 1.5161(2) 0.0126(2)
H1 H 0.8546 1.5277 0.0215
C4 C 0.3415(4) 1.3645(2) -0.0533(2)
H2 H 0.2324 1.2718 -0.0897
C5 C 0.0329(3) 0.8769(2) -0.1590(2)
H3 H 0.1039 0.9834 -0.1263
H4 H 0.0513 0.8318 -0.0760
C6 C -0.2369(4) 0.9047(2) -0.4109(2)
H5 H -0.3828 0.8772 -0.4813
H6 H -0.1746 1.0122 -0.3879
C7 C -0.3271(3) 0.6416(2) -0.3220(2)
H7 H -0.3219 0.5884 -0.2446
H8 H -0.4761 0.6043 -0.3896
C8 C 0.1163(3) 0.8882(2) -0.3729(2)
H9 H 0.1736 0.9954 -0.3429
H10 H 0.2049 0.8600 -0.4221
C9 C 0.0409(3) 0.6629(2) -0.2943(2)
H11 H 0.1285 0.6282 -0.3403
H12 H 0.0459 0.6180 -0.2117
C10 C -0.1916(4) 0.6870(2) -0.5108(2)
H13 H -0.1114 0.6538 -0.5640
H14 H -0.3431 0.6580 -0.5734
N1 N 0.1389(3) 0.82245(19) -0.24690(19)
N2 N -0.1036(3) 0.84544(19) -0.46999(19)
N3 N -0.1822(3) 0.61231(19) -0.39128(19)
O1 O 0.4863(2) 1.12605(15) -0.08008(16)
O2 O 0.7702(3) 1.26939(17) -0.11791(18)
P1 P -0.25568(9) 0.83690(6) -0.25271(6)
Ag1 Ag 0.53315(2) 0.912784(17) -0.145992(17)
C1A C 0.3910(3) 1.7507(2) 0.0840(2)
C2A C 0.4484(4) 1.6209(2) 0.0413(2)
C3A C 0.2895(4) 1.4839(2) -0.0126(2)
H1A H 0.1454 1.4723 -0.0215
C4A C 0.6585(4) 1.6355(2) 0.0533(2)
H2A H 0.7676 1.7282 0.0897
C5_2 C 1.0329(3) 0.8769(2) -0.1590(2)
H3_2 H 1.1039 0.9834 -0.1263
H4_2 H 1.0513 0.8318 -0.0760
C6_2 C 0.7631(4) 0.9047(2) -0.4109(2)
H5_2 H 0.6172 0.8772 -0.4813
H6_2 H 0.8254 1.0122 -0.3879
C7_2 C 0.6729(3) 0.6416(2) -0.3220(2)
H7_2 H 0.6781 0.5884 -0.2446
H8_2 H 0.5239 0.6043 -0.3896
C8_2 C 1.1163(3) 0.8882(2) -0.3729(2)
H9_2 H 1.1736 0.9954 -0.3429
H10_2 H 1.2049 0.8600 -0.4221
C9_2 C 1.0409(3) 0.6629(2) -0.2943(2)
H11_2 H 1.1285 0.6282 -0.3403
H12_2 H 1.0459 0.6180 -0.2117
C10_2 C 0.8084(4) 0.6870(2) -0.5108(2)
H13_2 H 0.8886 0.6538 -0.5640
H14_2 H 0.6569 0.6580 -0.5734
N1_2 N 1.1389(3) 0.82245(19) -0.24690(19)
N2_2 N 0.8964(3) 0.84544(19) -0.46999(19)
N3_2 N 0.8178(3) 0.61231(19) -0.39128(19)
O1A O 0.5137(2) 1.87395(15) 0.08008(16)
O1A_2 O 0.5137(2) 0.87395(15) 0.08008(16)
O1_2 O 1.4863(2) 1.12605(15) -0.08008(16)
O1A_3 O 1.5137(2) 0.87395(15) 0.08008(16)
O2A O 0.2298(3) 1.73061(17) 0.11791(18)
P1_2 P 0.74432(9) 0.83690(6) -0.25271(6)
P1_3 P 1.74432(9) 0.83690(6) -0.25271(6)
Ag1_2 Ag 1.53315(2) 0.912784(17) -0.145992(17)
Ag1A Ag 0.46685(2) 1.087216(17) 0.145992(17)
Ag1_3 Ag -0.46685(2) 0.912784(17) -0.145992(17)
Ag1A_2 Ag 0.46685(2) 2.087216(17) 0.145992(17)
Ag1_4 Ag 0.53315(2) 1.912784(17) -0.145992(17)
O3 O -0.7529(3) 0.69876(18) -0.60948(19)
H15 H -0.766(4) 0.6136(13) -0.612(2)
H16 H -0.764(5) 0.712(3) -0.6878(15)
loop_
_geom_bond_atom_site_label_1
_geom_bond_atom_site_label_2
_geom_bond_site_symmetry_1
_geom_bond_site_symmetry_2
C1 C2 1_555 1_555
C2 C3 1_555 1_555
C3 H1 1_555 1_555
C4 C2 1_555 1_555
H2 C4 1_555 1_555
C5 H3 1_555 1_555
H4 C5 1_555 1_555
C6 H5 1_555 1_555
H6 C6 1_555 1_555
C7 H7 1_555 1_555
H8 C7 1_555 1_555
C8 H9 1_555 1_555
H10 C8 1_555 1_555
C9 H11 1_555 1_555
H12 C9 1_555 1_555
C10 H13 1_555 1_555
H14 C10 1_555 1_555
N1 C5 1_555 1_555
N2 C6 1_555 1_555
N3 C7 1_555 1_555
O1 C1 1_555 1_555
O2 C1 1_555 1_555
O3 H15 1_555 1_555
P1 C5 1_555 1_555
Ag1 N1 1_555 1_555
H16 O3 1_555 1_555
C1A C2A 1_555 1_555
C2A C3A 1_555 1_555
C3A C4 1_555 1_555
H1A C3A 1_555 1_555
C4A C3 1_555 1_555
H2A C4A 1_555 1_555
C5_2 H3_2 1_555 1_555
H4_2 C5_2 1_555 1_555
C6_2 H5_2 1_555 1_555
H6_2 C6_2 1_555 1_555
C7_2 H7_2 1_555 1_555
H8_2 C7_2 1_555 1_555
C8_2 H9_2 1_555 1_555
H10_2 C8_2 1_555 1_555
C9_2 H11_2 1_555 1_555
H12_2 C9_2 1_555 1_555
C10_2 H13_2 1_555 1_555
H14_2 C10_2 1_555 1_555
N1_2 C5_2 1_555 1_555
N2_2 C6_2 1_555 1_555
N3_2 C7_2 1_555 1_555
O1A C1A 1_555 1_555
O1A_2 Ag1 1_555 1_555
O1_2 Ag1_2 1_555 1_555
O1A_3 Ag1_2 1_555 1_555
O2A C1A 1_555 1_555
P1_2 Ag1 1_555 1_555
P1_3 Ag1_2 1_555 1_555
Ag1_2 N1_2 1_555 1_555
Ag1A O1 1_555 1_555
Ag1_3 P1 1_555 1_555
Ag1A_2 O1A 1_555 1_555
Ag1_4 O1A 1_555 1_555
C6 P1 1_555 1_555
C7 P1 1_555 1_555
C8 N1 1_555 1_555
C8 N2 1_555 1_555
C9 N1 1_555 1_555
C9 N3 1_555 1_555
C10 N2 1_555 1_555
C10 N3 1_555 1_555
O1 Ag1 1_555 1_555
C2A C4A 1_555 1_555
C5_2 P1_2 1_555 1_555
C6_2 P1_2 1_555 1_555
C7_2 P1_2 1_555 1_555
C8_2 N1_2 1_555 1_555
C8_2 N2_2 1_555 1_555
C9_2 N1_2 1_555 1_555
C9_2 N3_2 1_555 1_555
C10_2 N2_2 1_555 1_555
C10_2 N3_2 1_555 1_555
O1A_2 Ag1A 1_555 1_555

#END
