
#######################################################################
#
#                 Cambridge Crystallographic Data Centre
#                                CCDC 
#
#######################################################################
#
# If this CIF has been generated from an entry in the Cambridge 
# Structural Database, then it will include bibliographic, chemical, 
# crystal, experimental, refinement or atomic coordinate data resulting 
# from the CCDC's data processing and validation procedures.
#
#######################################################################

data_ARODEQ
_symmetry_cell_setting           triclinic
_symmetry_space_group_name_H-M   'P -1'
_symmetry_Int_Tables_number      2
_space_group_name_Hall           '-P 1'
loop_
_symmetry_equiv_pos_site_id
_symmetry_equiv_pos_as_xyz
1 x,y,z
2 -x,-y,-z
_cell_length_a                   10.043(3)
_cell_length_b                   12.840(3)
_cell_length_c                   14.448(5)
_cell_angle_alpha                112.29(2)
_cell_angle_beta                 90.96(2)
_cell_angle_gamma                101.10(2)
_cell_volume                     1683.34
loop_
_atom_site_label
_atom_site_type_symbol
_atom_site_fract_x
_atom_site_fract_y
_atom_site_fract_z
Mn1 Mn 0.26905(4) 0.07142(4) 0.54490(3)
N1 N 0.0964(2) 0.0918(2) 0.4663(2)
C1 C -0.0010(3) 0.0395(2) 0.4110(2)
N2 N -0.1148(2) -0.0190(2) 0.3559(2)
C2 C -0.1309(3) -0.0136(2) 0.2606(2)
C3 C -0.2553(3) -0.0669(3) 0.2020(2)
H1 H -0.3249(3) -0.1070(3) 0.2252(2)
C4 C -0.2755(4) -0.0604(3) 0.1098(3)
H2 H -0.3595(4) -0.0953(3) 0.0718(3)
C5 C -0.1732(4) -0.0029(3) 0.0732(3)
H3 H -0.1875(4) 0.0005(3) 0.0107(3)
C6 C -0.0492(4) 0.0495(3) 0.1304(3)
H4 H 0.0200(4) 0.0890(3) 0.1066(3)
C7 C -0.0270(3) 0.0437(3) 0.2230(2)
H5 H 0.0574(3) 0.0781(3) 0.2604(2)
N3 N 0.4460(2) 0.0400(2) 0.6133(2)
C8 C 0.5175(3) -0.0250(2) 0.5981(2)
N4 N 0.5997(2) -0.0960(2) 0.5749(2)
C9 C 0.6230(3) -0.1477(2) 0.6424(2)
C10 C 0.5861(3) -0.1094(3) 0.7403(2)
H6 H 0.5434(3) -0.0474(3) 0.7634(2)
C11 C 0.6128(3) -0.1631(3) 0.8038(2)
H7 H 0.5874(3) -0.1369(3) 0.8689(2)
C12 C 0.6766(4) -0.2554(3) 0.7710(3)
H8 H 0.6954(4) -0.2906(3) 0.8138(3)
C13 C 0.7122(3) -0.2944(3) 0.6731(3)
H9 H 0.7544(3) -0.3568(3) 0.6503(3)
C14 C 0.6858(3) -0.2422(3) 0.6094(3)
H10 H 0.7099(3) -0.2699(3) 0.5439(3)
N5 N 0.2197(2) -0.1258(2) 0.4479(2)
C15 C 0.1824(3) -0.1722(3) 0.3489(2)
H11 H 0.1879(3) -0.1235(3) 0.3145(2)
C16 C 0.1360(3) -0.2893(3) 0.2952(2)
H12 H 0.1147(3) -0.3189(3) 0.2260(2)
C17 C 0.1221(3) -0.3615(2) 0.3468(2)
C18 C 0.1601(3) -0.3145(3) 0.4493(2)
H13 H 0.1518(3) -0.3610(3) 0.4858(2)
C19 C 0.2106(3) -0.1968(3) 0.4963(2)
H14 H 0.2395(3) -0.1658(3) 0.5646(2)
C20 C 0.0705(3) -0.4895(3) 0.2936(2)
O1 O 0.1366(2) -0.5453(2) 0.2310(2)
C21 C -0.0599(3) -0.5434(3) 0.3200(2)
C22 C -0.0990(3) -0.6633(3) 0.2820(2)
H15 H -0.0395(3) -0.7078(3) 0.2466(2)
C23 C -0.2245(3) -0.7161(3) 0.2964(2)
H16 H -0.2505(3) -0.7961(3) 0.2700(2)
C24 C -0.3131(3) -0.6498(3) 0.3505(2)
H17 H -0.3988(3) -0.6854(3) 0.3597(2)
C25 C -0.2734(3) -0.5307(3) 0.3908(2)
H18 H -0.3318(3) -0.4865(3) 0.4282(2)
C26 C -0.1478(3) -0.4772(3) 0.3758(2)
H19 H -0.1217(3) -0.3972(3) 0.4029(2)
N6 N 0.3333(3) 0.2574(2) 0.6568(2)
C27 C 0.2527(3) 0.3024(3) 0.7273(2)
H20 H 0.1629(3) 0.2628(3) 0.7209(2)
C28 C 0.2969(3) 0.4058(3) 0.8098(2)
H21 H 0.2377(3) 0.4352(3) 0.8569(2)
C29 C 0.4309(3) 0.4636(3) 0.8201(2)
C30 C 0.5158(3) 0.4182(3) 0.7471(2)
H22 H 0.6063(3) 0.4557(3) 0.7524(2)
C31 C 0.4624(3) 0.3156(3) 0.6661(2)
H23 H 0.5183(3) 0.2861(3) 0.6163(2)
C32 C 0.4922(4) 0.5672(3) 0.9143(2)
O2 O 0.6097(3) 0.5785(2) 0.9452(2)
C33 C 0.4079(4) 0.6496(3) 0.9693(2)
C34 C 0.4405(4) 0.7114(3) 1.0729(2)
H24 H 0.5122(4) 0.6985(3) 1.1058(2)
C35 C 0.3674(4) 0.7907(3) 1.1262(3)
H25 H 0.3892(4) 0.8305(3) 1.1951(3)
C36 C 0.2621(5) 0.8118(3) 1.0787(3)
H26 H 0.2128(5) 0.8655(3) 1.1154(3)
C37 C 0.2297(6) 0.7529(4) 0.9757(3)
H27 H 0.1600(6) 0.7681(4) 0.9429(3)
C38 C 0.3021(5) 0.6710(3) 0.9219(3)
H28 H 0.2790(5) 0.6302(3) 0.8532(3)
N2A N 0.1148(2) 0.0190(2) 0.6441(2)
N4A N 0.4003(2) 0.0960(2) 0.4251(2)
Mn1A Mn -0.26905(4) -0.07142(4) 0.45510(3)
Mn1A_2 Mn 0.73095(4) -0.07142(4) 0.45510(3)
O3 O 0.8906(9) 0.6066(10) 1.0050(6)
H29 H 0.8111(17) 0.5769(33) 0.994(10)
C39 C 0.9053(10) 0.7180(10) 1.0250(9)
H30 H 0.8187(17) 0.7393(15) 1.0371(50)
H31 H 0.9390(65) 0.7337(14) 0.9688(21)
H32 H 0.9688(53) 0.7617(10) 1.0835(30)
O4? O 0.9684(9) 0.5486(11) 1.0775(5)
H33? H 0.996(18) 0.4945(83) 1.0786(30)
C40? C 0.9396(23) 0.5310(19) 0.9768(17)
H34? H 0.8544(75) 0.4767(90) 0.9502(33)
H35? H 1.0110(76) 0.502(12) 0.9387(28)
H36? H 0.934(14) 0.6028(27) 0.9726(21)
loop_
_geom_bond_atom_site_label_1
_geom_bond_atom_site_label_2
_geom_bond_site_symmetry_1
_geom_bond_site_symmetry_2
Mn1 N1 1_555 1_555
N1 C1 1_555 1_555
C1 N2 1_555 1_555
N2 C2 1_555 1_555
C2 C3 1_555 1_555
C3 H1 1_555 1_555
C4 C3 1_555 1_555
H2 C4 1_555 1_555
C5 C4 1_555 1_555
H3 C5 1_555 1_555
C6 C5 1_555 1_555
H4 C6 1_555 1_555
C7 C2 1_555 1_555
H5 C7 1_555 1_555
N3 Mn1 1_555 1_555
C8 N3 1_555 1_555
N4 C8 1_555 1_555
C9 N4 1_555 1_555
C10 C9 1_555 1_555
H6 C10 1_555 1_555
C11 C10 1_555 1_555
H7 C11 1_555 1_555
C12 C11 1_555 1_555
H8 C12 1_555 1_555
C13 C12 1_555 1_555
H9 C13 1_555 1_555
C14 C9 1_555 1_555
H10 C14 1_555 1_555
N5 Mn1 1_555 1_555
C15 N5 1_555 1_555
H11 C15 1_555 1_555
C16 C15 1_555 1_555
H12 C16 1_555 1_555
C17 C16 1_555 1_555
C18 C17 1_555 1_555
H13 C18 1_555 1_555
C19 N5 1_555 1_555
H14 C19 1_555 1_555
C20 C17 1_555 1_555
O1 C20 1_555 1_555
C21 C20 1_555 1_555
C22 C21 1_555 1_555
H15 C22 1_555 1_555
C23 C22 1_555 1_555
H16 C23 1_555 1_555
C24 C23 1_555 1_555
H17 C24 1_555 1_555
C25 C24 1_555 1_555
H18 C25 1_555 1_555
C26 C21 1_555 1_555
H19 C26 1_555 1_555
N6 Mn1 1_555 1_555
C27 N6 1_555 1_555
H20 C27 1_555 1_555
C28 C27 1_555 1_555
H21 C28 1_555 1_555
C29 C28 1_555 1_555
C30 C29 1_555 1_555
H22 C30 1_555 1_555
C31 N6 1_555 1_555
H23 C31 1_555 1_555
C32 C29 1_555 1_555
O2 C32 1_555 1_555
C33 C32 1_555 1_555
C34 C33 1_555 1_555
H24 C34 1_555 1_555
C35 C34 1_555 1_555
H25 C35 1_555 1_555
C36 C35 1_555 1_555
H26 C36 1_555 1_555
C37 C36 1_555 1_555
H27 C37 1_555 1_555
C38 C33 1_555 1_555
H28 C38 1_555 1_555
O3 H29 1_555 1_555
C39 O3 1_555 1_555
H30 C39 1_555 1_555
H31 C39 1_555 1_555
H32 C39 1_555 1_555
N2A Mn1 1_555 1_555
N4A Mn1 1_555 1_555
Mn1A N2 1_555 1_555
Mn1A_2 N4 1_555 1_555
C6 C7 1_555 1_555
C13 C14 1_555 1_555
C18 C19 1_555 1_555
C25 C26 1_555 1_555
C30 C31 1_555 1_555
C37 C38 1_555 1_555

#END
