
#######################################################################
#
#                 Cambridge Crystallographic Data Centre
#                                CCDC 
#
#######################################################################
#
# If this CIF has been generated from an entry in the Cambridge 
# Structural Database, then it will include bibliographic, chemical, 
# crystal, experimental, refinement or atomic coordinate data resulting 
# from the CCDC's data processing and validation procedures.
#
#######################################################################

data_ARODIU
_symmetry_cell_setting           monoclinic
_symmetry_space_group_name_H-M   'C 2'
_symmetry_Int_Tables_number      5
_space_group_name_Hall           'C 2y'
loop_
_symmetry_equiv_pos_site_id
_symmetry_equiv_pos_as_xyz
1 x,y,z
2 -x,y,-z
3 1/2+x,1/2+y,z
4 1/2-x,1/2+y,-z
_cell_length_a                   18.498(4)
_cell_length_b                   11.712(2)
_cell_length_c                   10.472(2)
_cell_angle_alpha                90
_cell_angle_beta                 106.43(3)
_cell_angle_gamma                90
_cell_volume                     2176.1
loop_
_atom_site_label
_atom_site_type_symbol
_atom_site_fract_x
_atom_site_fract_y
_atom_site_fract_z
Mn1 Mn 0.0000 0.05771(7) -0.5000
Mn2 Mn 0.0000 -0.05757(7) 0.0000
N1 N -0.0693(2) -0.0630(4) -0.2056(3)
C1 C -0.0862(3) -0.0096(5) -0.3031(5)
N2 N -0.1017(2) 0.0494(4) -0.4126(3)
N3 N 0.0678(2) 0.0655(5) -0.2919(4)
C2 C 0.0886(2) 0.0213(5) -0.1871(4)
N4 N 0.1054(2) -0.0327(4) -0.0766(4)
N5 N 0.0000 -0.1429(6) -0.5000
C3 C 0.0000 -0.3808(7) -0.5000
C4 C 0.0000 -0.5083(6) -0.5000
C5 C 0.0256(3) -0.5700(4) -0.5922(4)
H1 H 0.0434(3) -0.5321(4) -0.6554(4)
C6 C 0.0245(3) -0.6877(4) -0.5890(4)
H2 H 0.0416(3) -0.7276(4) -0.6516(4)
N6 N 0.0000 -0.7477(6) -0.5000
N7 N 0.0000 0.1389(6) 0.0000
C7 C 0.0609(3) 0.1999(4) 0.0635(5)
H3 H 0.1040(3) 0.1603(4) 0.1092(5)
C8 C 0.0637(3) 0.3182(4) 0.0655(5)
H4 H 0.1080(3) 0.3554(4) 0.1105(5)
C9 C 0.0000 0.3816(8) 0.0000
C10 C 0.0000 0.5058(7) 0.0000
C11 C 0.0530(2) 0.5673(4) 0.0965(4)
H5 H 0.0897(2) 0.5295(4) 0.1621(4)
C12 C 0.0502(2) 0.6864(4) 0.0935(4)
H6 H 0.0849(2) 0.7267(4) 0.1597(4)
N8 N 0.0000 0.7450(6) 0.0000
C13 C 0.1831(3) -0.0309(4) -0.0018(4)
C14 C 0.2152(3) -0.1272(5) 0.0690(4)
H7 H 0.1858(3) -0.1915(5) 0.0695(4)
C15 C 0.2911(3) -0.1276(5) 0.1393(4)
H8 H 0.3125(3) -0.1933(5) 0.1841(4)
C16 C 0.3354(3) -0.0311(5) 0.1433(5)
H9 H 0.3862(3) -0.0314(5) 0.1910(5)
C17 C 0.3028(3) 0.0639(5) 0.0760(5)
H10 H 0.3322(3) 0.1287(5) 0.0776(5)
C18 C 0.2274(3) 0.0668(5) 0.0052(4)
H11 H 0.2062(3) 0.1335(5) -0.0375(4)
C19 C -0.1746(3) 0.0977(5) -0.4536(4)
C20 C -0.2289(3) 0.0736(5) -0.3896(5)
H12 H -0.2181(3) 0.0233(5) -0.3180(5)
C21 C -0.2996(3) 0.1245(7) -0.4322(6)
H13 H -0.3357(3) 0.1074(7) -0.3888(6)
C22 C -0.3170(3) 0.1996(6) -0.5372(6)
H14 H -0.3644(3) 0.2332(6) -0.5649(6)
C23 C -0.2629(3) 0.2244(5) -0.6011(5)
H15 H -0.2741(3) 0.2755(5) -0.6720(5)
C24 C -0.1923(3) 0.1742(5) -0.5608(5)
H16 H -0.1566(3) 0.1913(5) -0.6050(5)
C25 C 0.0243(2) -0.3209(4) -0.3823(4)
H17 H 0.0400(2) -0.3593(4) -0.3014(4)
C26 C 0.0249(2) -0.2022(4) -0.3865(4)
H18 H 0.0432(2) -0.1623(4) -0.3071(4)
C6A C -0.0245(3) -0.6877(4) -0.4110(4)
C5A C -0.0256(3) -0.5700(4) -0.4078(4)
H1A H -0.0434(3) -0.5321(4) -0.3446(4)
H2A H -0.0416(3) -0.7276(4) -0.3484(4)
C25A C -0.0243(2) -0.3209(4) -0.6177(4)
H17A H -0.0400(2) -0.3593(4) -0.6986(4)
C26A C -0.0249(2) -0.2022(4) -0.6135(4)
H18A H -0.0432(2) -0.1623(4) -0.6929(4)
C8A C -0.0637(3) 0.3182(4) -0.0655(5)
C7A C -0.0609(3) 0.1999(4) -0.0635(5)
H3A H -0.1040(3) 0.1603(4) -0.1092(5)
H4A H -0.1080(3) 0.3554(4) -0.1105(5)
C12A C -0.0502(2) 0.6864(4) -0.0935(4)
C11A C -0.0530(2) 0.5673(4) -0.0965(4)
H5A H -0.0897(2) 0.5295(4) -0.1621(4)
H6A H -0.0849(2) 0.7267(4) -0.1597(4)
N1A N 0.0693(2) -0.0630(4) -0.7944(3)
C1A C 0.0862(3) -0.0096(5) -0.6969(5)
N2A N 0.1017(2) 0.0494(4) -0.5874(3)
C19A C 0.1746(3) 0.0977(5) -0.5464(4)
C20A C 0.2289(3) 0.0736(5) -0.6104(5)
H12A H 0.2181(3) 0.0233(5) -0.6820(5)
C21A C 0.2996(3) 0.1245(7) -0.5678(6)
H13A H 0.3357(3) 0.1074(7) -0.6112(6)
C22A C 0.3170(3) 0.1996(6) -0.4628(6)
H14A H 0.3644(3) 0.2332(6) -0.4351(6)
C23A C 0.2629(3) 0.2244(5) -0.3989(5)
H15A H 0.2741(3) 0.2755(5) -0.3280(5)
C24A C 0.1923(3) 0.1742(5) -0.4392(5)
H16A H 0.1566(3) 0.1913(5) -0.3950(5)
N3A N -0.0678(2) 0.0655(5) -0.7081(4)
C2A C -0.0886(2) 0.0213(5) -0.8129(4)
N4A N -0.1054(2) -0.0327(4) -0.9234(4)
C13A C -0.1831(3) -0.0309(4) -0.9982(4)
C14A C -0.2152(3) -0.1272(5) -1.0690(4)
H7A H -0.1858(3) -0.1915(5) -1.0695(4)
C15A C -0.2911(3) -0.1276(5) -1.1393(4)
H8A H -0.3125(3) -0.1933(5) -1.1841(4)
C16A C -0.3354(3) -0.0311(5) -1.1433(5)
H9A H -0.3862(3) -0.0314(5) -1.1910(5)
C17A C -0.3028(3) 0.0639(5) -1.0760(5)
H10A H -0.3322(3) 0.1287(5) -1.0776(5)
C18A C -0.2274(3) 0.0668(5) -1.0052(4)
H11A H -0.2062(3) 0.1335(5) -0.9625(4)
N6_2 N 0.0000 0.2523(6) -0.5000
N1A_2 N 0.0693(2) -0.0630(4) 0.2056(3)
N4A_2 N -0.1054(2) -0.0327(4) 0.0766(4)
N8_2 N 0.0000 -0.2550(6) 0.0000
Mn1_2 Mn 0.0000 -0.94229(7) -0.5000
Mn2_2 Mn 0.0000 0.94243(7) 0.0000
Mn2_3 Mn 0.0000 -0.05757(7) -1.0000
O1 O 0.3096(3) -0.0945(7) -0.3231(5)
H19 H 0.2985(14) -0.1139(84) -0.4015(30)
C27 C 0.2472(4) -0.1014(8) -0.2777(7)
H20 H 0.2457(17) -0.1748(19) -0.2379(50)
H21 H 0.2027(4) -0.0913(50) -0.3509(12)
H22 H 0.2494(16) -0.0427(31) -0.2127(43)
loop_
_geom_bond_atom_site_label_1
_geom_bond_atom_site_label_2
_geom_bond_site_symmetry_1
_geom_bond_site_symmetry_2
Mn1 N2 1_555 1_555
Mn2 N1 1_555 1_555
N1 C1 1_555 1_555
C1 N2 1_555 1_555
N2 C19 1_555 1_555
N3 Mn1 1_555 1_555
C2 N3 1_555 1_555
N4 Mn2 1_555 1_555
N5 Mn1 1_555 1_555
C3 C4 1_555 1_555
C4 C5 1_555 1_555
C5 H1 1_555 1_555
C6 C5 1_555 1_555
H2 C6 1_555 1_555
N6 C6 1_555 1_555
N7 Mn2 1_555 1_555
C7 N7 1_555 1_555
H3 C7 1_555 1_555
C8 C7 1_555 1_555
H4 C8 1_555 1_555
C9 C8 1_555 1_555
C10 C9 1_555 1_555
C11 C10 1_555 1_555
H5 C11 1_555 1_555
C12 C11 1_555 1_555
H6 C12 1_555 1_555
N8 C12 1_555 1_555
C13 N4 1_555 1_555
C14 C13 1_555 1_555
H7 C14 1_555 1_555
C15 C14 1_555 1_555
H8 C15 1_555 1_555
C16 C15 1_555 1_555
H9 C16 1_555 1_555
C17 C16 1_555 1_555
H10 C17 1_555 1_555
C18 C13 1_555 1_555
H11 C18 1_555 1_555
C19 C20 1_555 1_555
C20 H12 1_555 1_555
C21 C20 1_555 1_555
H13 C21 1_555 1_555
C22 C21 1_555 1_555
H14 C22 1_555 1_555
C23 C22 1_555 1_555
H15 C23 1_555 1_555
C24 C19 1_555 1_555
H16 C24 1_555 1_555
C25 C3 1_555 1_555
H17 C25 1_555 1_555
C26 N5 1_555 1_555
H18 C26 1_555 1_555
O1 H19 1_555 1_555
C27 O1 1_555 1_555
H20 C27 1_555 1_555
H21 C27 1_555 1_555
H22 C27 1_555 1_555
C6A N6 1_555 1_555
C5A C4 1_555 1_555
H1A C5A 1_555 1_555
H2A C6A 1_555 1_555
C25A C3 1_555 1_555
H17A C25A 1_555 1_555
C26A N5 1_555 1_555
H18A C26A 1_555 1_555
C8A C9 1_555 1_555
C7A N7 1_555 1_555
H3A C7A 1_555 1_555
H4A C8A 1_555 1_555
C12A N8 1_555 1_555
C11A C10 1_555 1_555
H5A C11A 1_555 1_555
H6A C12A 1_555 1_555
N1A C1A 1_555 1_555
C1A N2A 1_555 1_555
N2A Mn1 1_555 1_555
C19A N2A 1_555 1_555
C20A C19A 1_555 1_555
H12A C20A 1_555 1_555
C21A C20A 1_555 1_555
H13A C21A 1_555 1_555
C22A C21A 1_555 1_555
H14A C22A 1_555 1_555
C23A C22A 1_555 1_555
H15A C23A 1_555 1_555
C24A C19A 1_555 1_555
H16A C24A 1_555 1_555
N3A Mn1 1_555 1_555
C2A N3A 1_555 1_555
N4A C2A 1_555 1_555
C13A N4A 1_555 1_555
C14A C13A 1_555 1_555
H7A C14A 1_555 1_555
C15A C14A 1_555 1_555
H8A C15A 1_555 1_555
C16A C15A 1_555 1_555
H9A C16A 1_555 1_555
C17A C16A 1_555 1_555
H10A C17A 1_555 1_555
C18A C13A 1_555 1_555
H11A C18A 1_555 1_555
N6_2 Mn1 1_555 1_555
N1A_2 Mn2 1_555 1_555
N4A_2 Mn2 1_555 1_555
N8_2 Mn2 1_555 1_555
Mn1_2 N6 1_555 1_555
Mn2_2 N8 1_555 1_555
Mn2_3 N1A 1_555 1_555
C2 N4 1_555 1_555
C17 C18 1_555 1_555
C23 C24 1_555 1_555
C25 C26 1_555 1_555
C6A C5A 1_555 1_555
C25A C26A 1_555 1_555
C8A C7A 1_555 1_555
C12A C11A 1_555 1_555
C23A C24A 1_555 1_555
N4A Mn2_3 1_555 1_555
C17A C18A 1_555 1_555

#END
