
#######################################################################
#
#                 Cambridge Crystallographic Data Centre
#                                CCDC 
#
#######################################################################
#
# If this CIF has been generated from an entry in the Cambridge 
# Structural Database, then it will include bibliographic, chemical, 
# crystal, experimental, refinement or atomic coordinate data resulting 
# from the CCDC's data processing and validation procedures.
#
#######################################################################

data_ARODOB
_symmetry_cell_setting           orthorhombic
_symmetry_space_group_name_H-M   'P 21 21 21'
_symmetry_Int_Tables_number      19
_space_group_name_Hall           'P 2ac 2ab'
loop_
_symmetry_equiv_pos_site_id
_symmetry_equiv_pos_as_xyz
1 x,y,z
2 1/2-x,-y,1/2+z
3 1/2+x,1/2-y,-z
4 -x,1/2+y,1/2-z
_cell_length_a                   6.8977(12)
_cell_length_b                   13.917(3)
_cell_length_c                   18.161(3)
_cell_angle_alpha                90
_cell_angle_beta                 90
_cell_angle_gamma                90
_cell_volume                     1743.37
loop_
_atom_site_label
_atom_site_type_symbol
_atom_site_fract_x
_atom_site_fract_y
_atom_site_fract_z
C1 C 0.5136(11) 0.3066(6) 0.6089(4)
C2 C 0.3958(11) 0.3928(5) 0.6278(3)
C3 C 0.1952(10) 0.4026(6) 0.6089(4)
C4 C 0.0966(13) 0.4823(5) 0.6333(4)
H1 H -0.0374 0.4881 0.6222
C5 C 0.1844(13) 0.5536(6) 0.6731(4)
H2 H 0.1125 0.6085 0.6880
C6 C 0.3799(14) 0.5453(6) 0.6915(4)
H3 H 0.4421 0.5940 0.7196
C7 C 0.4810(11) 0.4663(5) 0.6688(4)
H4 H 0.6143 0.4612 0.6814
C8 C -0.3858(10) 0.4326(5) 0.4296(5)
H5 H -0.3861 0.3980 0.4772
H6 H -0.3745 0.3841 0.3899
C9 C -0.5526(10) 0.5663(6) 0.3365(4)
H7 H -0.5471 0.5228 0.2934
H8 H -0.6554 0.6144 0.3273
C10 C -0.5747(10) 0.5907(6) 0.4876(4)
H9 H -0.6779 0.6397 0.4830
H10 H -0.5835 0.5627 0.5376
C11 C -0.2258(11) 0.5690(6) 0.4868(5)
H11 H -0.2417 0.5349 0.5342
H12 H -0.1016 0.6046 0.4889
C12 C -0.2051(11) 0.5477(6) 0.3553(4)
H13 H -0.0807 0.5830 0.3521
H14 H -0.2074 0.4998 0.3150
C13 C -0.3694(12) 0.6839(5) 0.4066(4)
H15 H -0.2504 0.7236 0.4051
H16 H -0.4816 0.7274 0.4003
N1 N 0.1051(9) 0.3363(4) 0.5623(3)
H17 H -0.0197 0.3251 0.5780
H18 H 0.1714 0.2789 0.5632
N2 N -0.2138(8) 0.4967(4) 0.4268(4)
N3 N -0.3650(8) 0.6157(4) 0.3444(3)
N4 N -0.3829(10) 0.6378(4) 0.4789(3)
O1 O 0.4258(8) 0.2266(4) 0.6048(3)
O2 O 0.6921(7) 0.3167(4) 0.5991(3)
P1 P -0.6159(3) 0.49571(14) 0.41927(10)
Ag1 Ag 0.10103(8) 0.40225(4) 0.43311(3)
O1B O -0.0742(8) 0.2734(4) 0.3952(3)
P1_2 P 0.3841(3) 0.49571(14) 0.41927(10)
Ag1B Ag 0.60103(8) 0.09775(4) 0.56689(3)
Ag1_2 Ag -0.89897(8) 0.40225(4) 0.43311(3)
O3 O 0.6253(10) -0.2388(4) 0.6120(3)
H21 H 0.636(14) -0.289(4) 0.581(4)
H22 H 0.637(15) -0.272(6) 0.654(3)
O4 O 0.1234(9) 0.7491(4) 0.7724(3)
H19 H 0.1339 0.7979 0.7445
H20 H 0.1672 0.7657 0.8147
O5 O 0.7498(9) 0.6858(5) 0.7528(3)
H23 H 0.680(12) 0.710(7) 0.789(4)
H24 H 0.8547 0.7110 0.7530
loop_
_geom_bond_atom_site_label_1
_geom_bond_atom_site_label_2
_geom_bond_site_symmetry_1
_geom_bond_site_symmetry_2
C1 C2 1_555 1_555
C2 C3 1_555 1_555
C3 C4 1_555 1_555
C4 H1 1_555 1_555
C5 C4 1_555 1_555
H2 C5 1_555 1_555
C6 C5 1_555 1_555
H3 C6 1_555 1_555
C7 C2 1_555 1_555
H4 C7 1_555 1_555
C8 H5 1_555 1_555
H6 C8 1_555 1_555
C9 H7 1_555 1_555
H8 C9 1_555 1_555
C10 H9 1_555 1_555
H10 C10 1_555 1_555
C11 H11 1_555 1_555
H12 C11 1_555 1_555
C12 H13 1_555 1_555
H14 C12 1_555 1_555
C13 H15 1_555 1_555
H16 C13 1_555 1_555
N1 C3 1_555 1_555
H17 N1 1_555 1_555
H18 N1 1_555 1_555
N2 C8 1_555 1_555
N3 C9 1_555 1_555
N4 C10 1_555 1_555
O1 C1 1_555 1_555
O2 C1 1_555 1_555
P1 C8 1_555 1_555
Ag1 N1 1_555 1_555
O3 H21 1_555 1_555
O4 H19 1_555 1_555
O5 H23 1_555 1_555
H20 O4 1_555 1_555
H22 O3 1_555 1_555
H24 O5 1_555 1_555
O1B Ag1 1_555 1_555
P1_2 Ag1 1_555 1_555
Ag1B O1 1_555 1_555
Ag1_2 P1 1_555 1_555
C6 C7 1_555 1_555
C9 P1 1_555 1_555
C10 P1 1_555 1_555
C11 N2 1_555 1_555
C11 N4 1_555 1_555
C12 N2 1_555 1_555
C12 N3 1_555 1_555
C13 N3 1_555 1_555
C13 N4 1_555 1_555
N2 Ag1 1_555 1_555

#END
