
#######################################################################
#
#                 Cambridge Crystallographic Data Centre
#                                CCDC 
#
#######################################################################
#
# If this CIF has been generated from an entry in the Cambridge 
# Structural Database, then it will include bibliographic, chemical, 
# crystal, experimental, refinement or atomic coordinate data resulting 
# from the CCDC's data processing and validation procedures.
#
#######################################################################

data_AROFUJ
_symmetry_cell_setting           triclinic
_symmetry_space_group_name_H-M   'P -1'
_symmetry_Int_Tables_number      2
_space_group_name_Hall           '-P 1'
loop_
_symmetry_equiv_pos_site_id
_symmetry_equiv_pos_as_xyz
1 x,y,z
2 -x,-y,-z
_cell_length_a                   18.9215(6)
_cell_length_b                   20.0382(7)
_cell_length_c                   20.7893(6)
_cell_angle_alpha                64.239(2)
_cell_angle_beta                 65.377(2)
_cell_angle_gamma                64.850(2)
_cell_volume                     6160.39
loop_
_atom_site_label
_atom_site_type_symbol
_atom_site_fract_x
_atom_site_fract_y
_atom_site_fract_z
B2 B 0.5000 0.5000 0.5000
W13 W 0.60370(4) 0.63534(3) 0.38472(4)
W14 W 0.48274(4) 0.60324(4) 0.31991(4)
W15 W 0.39294(3) 0.69706(3) 0.45463(4)
W16 W 0.71163(3) 0.43998(3) 0.42700(4)
W17 W 0.41163(4) 0.59480(3) 0.63442(4)
W18 W 0.62362(4) 0.53185(4) 0.56307(4)
O41 O 0.6536(5) 0.7023(5) 0.3281(5)
O42 O 0.4761(6) 0.6542(6) 0.2315(6)
O43 O 0.3433(6) 0.7930(5) 0.4306(7)
O44 O 0.8135(6) 0.4091(7) 0.3892(7)
O45 O 0.3706(7) 0.6407(5) 0.6994(5)
O46 O 0.6830(5) 0.5477(6) 0.5938(5)
O47 O 0.6239(8) 0.6147(5) 0.4735(6)
O48 O 0.4996(6) 0.7034(7) 0.4145(6)
O49 O 0.5647(5) 0.6368(7) 0.3134(6)
O50 O 0.6916(8) 0.5443(5) 0.3707(7)
O51 O 0.4087(6) 0.6763(7) 0.3703(6)
O52 O 0.3982(6) 0.5573(6) 0.3571(9)
O53 O 0.3988(6) 0.6790(5) 0.5522(5)
O54 O 0.3062(5) 0.6536(5) 0.5021(5)
O55 O 0.7073(9) 0.4656(5) 0.5051(7)
O56 O 0.6801(6) 0.4241(5) 0.3618(5)
O57 O 0.5587(6) 0.5088(6) 0.3018(9)
O58 O 0.5190(6) 0.5922(6) 0.6069(9)
O59 O 0.4915(9) 0.5834(9) 0.4434(9)
O60 O 0.5665(9) 0.4404(7) 0.4787(9)
O61 O 0.5051(8) 0.5066(8) 0.5746(9)
O62 O 0.4153(8) 0.4859(8) 0.5269(8)
Ho1 Ho 0.74492(3) 0.77902(3) 0.25447(3)
O63 O 0.7618(5) 0.7141(4) 0.1770(4)
O64 O 0.8378(6) 0.2156(5) 0.1589(6)
N1 N 0.7659(6) 0.6414(5) 0.1872(5)
N2 N 0.8259(7) 0.2819(6) 0.1698(7)
C1 C 0.8364(8) 0.5823(7) 0.1973(7)
H1 H 0.8789 0.5922 0.1996
C2 C 0.8430(8) 0.5099(7) 0.2039(7)
H2 H 0.8870 0.4685 0.2174
C3 C 0.7843(7) 0.4969(8) 0.1906(7)
C4 C 0.7160(8) 0.5564(7) 0.1837(7)
H3 H 0.6730 0.5477 0.1807
C5 C 0.7070(7) 0.6263(7) 0.1809(7)
H4 H 0.6591 0.6657 0.1746
C6 C 0.7959(7) 0.4202(7) 0.1874(8)
C7 C 0.8370(7) 0.3519(7) 0.2285(7)
H5 H 0.8557 0.3524 0.2632
C8 C 0.8524(9) 0.2805(7) 0.2206(9)
H6 H 0.8800 0.2340 0.2496
C9 C 0.7821(8) 0.3459(7) 0.1294(8)
H7 H 0.7626 0.3438 0.0962
C10 C 0.7669(7) 0.4157(7) 0.1389(8)
H8 H 0.7360 0.4610 0.1116
O65 O 0.8307(5) 0.6614(5) 0.2966(5)
O66 O 1.0047(5) 0.2770(5) 0.7264(5)
N3 N 0.8519(6) 0.6074(5) 0.3569(6)
N4 N 0.9808(6) 0.3317(6) 0.6666(6)
C11 C 0.9035(12) 0.5438(8) 0.3497(8)
H9 H 0.9277 0.5350 0.3038
C12 C 0.9222(12) 0.4878(8) 0.4135(8)
H10 H 0.9548 0.4386 0.4100
C13 C 0.8978(7) 0.4975(7) 0.4801(8)
C14 C 0.8485(7) 0.5670(8) 0.4801(7)
H11 H 0.8308 0.5796 0.5235
C15 C 0.8203(8) 0.6239(7) 0.4198(9)
H12 H 0.7812 0.6709 0.4238
C16 C 0.9272(8) 0.4395(7) 0.5454(7)
C17 C 0.9871(8) 0.3710(7) 0.5417(7)
H13 H 1.0144 0.3616 0.4961
C18 C 1.0076(9) 0.3155(9) 0.6054(8)
H14 H 1.0411 0.2659 0.6040
C19 C 0.9252(11) 0.3977(10) 0.6713(8)
H15 H 0.9033 0.4079 0.7165
C20 C 0.8995(13) 0.4507(12) 0.6130(10)
H16 H 0.8609 0.4975 0.6186
O67 O 0.6283(4) 0.8546(4) 0.2150(5)
O68 O 0.1906(6) 0.8295(8) 0.1097(7)
N5 N 0.5721(5) 0.8433(5) 0.2051(6)
N6 N 0.2549(6) 0.8303(8) 0.1219(8)
C21 C 0.5852(7) 0.8212(6) 0.1474(7)
H17 H 0.6385 0.8083 0.1176
C22 C 0.5279(6) 0.8165(6) 0.1299(7)
H18 H 0.5411 0.8033 0.0877
C23 C 0.4512(8) 0.8308(7) 0.1734(6)
C24 C 0.4329(7) 0.8523(8) 0.2351(8)
H19 H 0.3800 0.8633 0.2663
C25 C 0.4972(8) 0.8569(10) 0.2486(9)
H20 H 0.4862 0.8702 0.2902
C26 C 0.3822(8) 0.8307(7) 0.1564(7)
C27 C 0.3923(7) 0.8136(9) 0.0977(8)
H21 H 0.4444 0.8022 0.0655
C28 C 0.3303(8) 0.8118(9) 0.0822(9)
H22 H 0.3423 0.7966 0.0415
C29 C 0.2380(10) 0.8469(13) 0.1815(12)
H23 H 0.1847 0.8584 0.2118
C30 C 0.3026(10) 0.8473(11) 0.1998(11)
H24 H 0.2906 0.8591 0.2425
O69 O 0.6891(4) 0.7999(4) 0.3692(4)
O70 O 0.1419(5) 0.9003(6) 0.6986(6)
N7 N 0.6140(6) 0.8096(5) 0.4153(6)
N8 N 0.2165(6) 0.8821(6) 0.6557(6)
C31 C 0.5991(7) 0.7642(6) 0.4867(6)
H25 H 0.6414 0.7240 0.5045
C32 C 0.5208(7) 0.7774(7) 0.5335(7)
H26 H 0.5117 0.7474 0.5835
C33 C 0.4547(6) 0.8346(6) 0.5083(6)
C34 C 0.4730(7) 0.8789(6) 0.4359(7)
H27 H 0.4309 0.9193 0.4181
C35 C 0.5512(7) 0.8678(7) 0.3865(7)
H28 H 0.5609 0.8979 0.3366
C36 C 0.3738(8) 0.8485(6) 0.5601(6)
C37 C 0.3561(8) 0.8240(8) 0.6352(8)
H29 H 0.3992 0.7950 0.6561
C38 C 0.2787(8) 0.8391(8) 0.6828(8)
H30 H 0.2705 0.8188 0.7341
C39 C 0.2300(9) 0.9066(9) 0.5837(9)
H31 H 0.1854 0.9364 0.5649
C40 C 0.3039(8) 0.8919(9) 0.5347(9)
H32 H 0.3089 0.9104 0.4840
O71 O 0.7209(6) 0.9167(5) 0.2170(6)
O72 O 0.8399(4) 0.8024(4) 0.2867(5)
O73 O 0.8455(6) 0.8094(6) 0.1410(6)
Ho2 Ho 0.93058(5) 0.09488(4) 0.18281(5)
O74 O 1.0160(6) 0.0912(9) 0.2365(7)
N9 N 1.0180(9) 0.0673(4) 0.3065(5)
C41 C 0.9848(9) 0.1187(6) 0.3465(4)
H33 H 0.9644 0.1717 0.3242
C42 C 0.9827(10) 0.0890(5) 0.4209(5)
H34 H 0.9677 0.1243 0.4455
C43 C 1.0011(12) 0.0109(4) 0.4615(6)
C44 C 1.0369(12) -0.0385(7) 0.4186(4)
H35 H 1.0543 -0.0917 0.4416
C45 C 1.0474(11) -0.0107(6) 0.3422(5)
H36 H 1.0747 -0.0453 0.3148
O75 O 1.0159(8) 0.1775(7) 0.0983(7)
O76 O 0.9286(10) 0.1201(10) 0.0598(8)
O77 O 0.8157(7) 0.0678(7) 0.1926(7)
O78 O 0.9500(8) -0.0333(7) 0.2526(7)
O79 O 1.0486(16) 0.0133(13) 0.1226(15)
W13A W 0.39630(4) 0.36466(3) 0.61528(4)
W14A W 0.51726(4) 0.39676(4) 0.68009(4)
W15A W 0.60706(3) 0.30294(3) 0.54537(4)
W16A W 0.28837(3) 0.56002(3) 0.57300(4)
W17A W 0.58837(4) 0.40520(3) 0.36558(4)
W18A W 0.37638(4) 0.46815(4) 0.43693(4)
O41A O 0.3464(5) 0.2977(5) 0.6719(5)
O42A O 0.5239(6) 0.3458(6) 0.7685(6)
O43A O 0.6567(6) 0.2070(5) 0.5694(7)
O44A O 0.1865(6) 0.5909(7) 0.6108(7)
O45A O 0.6294(7) 0.3593(5) 0.3006(5)
O46A O 0.3170(5) 0.4523(6) 0.4062(5)
O47A O 0.3761(8) 0.3853(5) 0.5265(6)
O48A O 0.5004(6) 0.2966(7) 0.5855(6)
O49A O 0.4353(5) 0.3632(7) 0.6866(6)
O50A O 0.3084(8) 0.4557(5) 0.6293(7)
O51A O 0.5913(6) 0.3237(7) 0.6297(6)
O52A O 0.6018(6) 0.4427(6) 0.6429(9)
O53A O 0.6012(6) 0.3210(5) 0.4478(5)
O54A O 0.6938(5) 0.3464(5) 0.4979(5)
O55A O 0.2927(9) 0.5344(5) 0.4949(7)
O56A O 0.3199(6) 0.5759(5) 0.6382(5)
O57A O 0.4413(6) 0.4912(6) 0.6982(9)
O58A O 0.4810(6) 0.4078(6) 0.3931(9)
O59A O 0.5085(9) 0.4166(9) 0.5566(9)
O60A O 0.4335(9) 0.5596(7) 0.5213(9)
O61A O 0.4949(8) 0.4934(8) 0.4254(9)
O62A O 0.5847(8) 0.5141(8) 0.4731(8)
Ho1A Ho 0.25508(3) 0.22098(3) 0.74553(3)
O63A O 0.2382(5) 0.2859(4) 0.8230(4)
O64A O 0.1622(6) 0.7844(5) 0.8411(6)
O64_2 O -0.1622(6) 1.2156(5) 0.1589(6)
N1A N 0.2341(6) 0.3586(5) 0.8128(5)
N2A N 0.1741(7) 0.7181(6) 0.8302(7)
C1A C 0.1636(8) 0.4177(7) 0.8027(7)
H1A H 0.1211 0.4078 0.8004
C2A C 0.1570(8) 0.4901(7) 0.7961(7)
H2A H 0.1130 0.5315 0.7826
C3A C 0.2157(7) 0.5031(8) 0.8094(7)
C4A C 0.2840(8) 0.4436(7) 0.8163(7)
H3A H 0.3270 0.4523 0.8193
C5A C 0.2930(7) 0.3737(7) 0.8191(7)
H4A H 0.3409 0.3343 0.8254
C6A C 0.2041(7) 0.5798(7) 0.8126(8)
C7A C 0.1630(7) 0.6481(7) 0.7715(7)
H5A H 0.1443 0.6476 0.7368
C8A C 0.1476(9) 0.7195(7) 0.7794(9)
H6A H 0.1200 0.7660 0.7504
C9A C 0.2179(8) 0.6541(7) 0.8706(8)
H7A H 0.2374 0.6562 0.9038
C10A C 0.2331(7) 0.5843(7) 0.8611(8)
H8A H 0.2640 0.5390 0.8884
O65A O 0.1693(5) 0.3386(5) 0.7034(5)
O66A O -0.0047(5) 0.7230(5) 0.2736(5)
N3A N 0.1481(6) 0.3926(5) 0.6431(6)
N4A N 0.0192(6) 0.6683(6) 0.3334(6)
C11A C 0.0965(12) 0.4562(8) 0.6503(8)
H9A H 0.0723 0.4650 0.6962
C12A C 0.0778(12) 0.5122(8) 0.5865(8)
H10A H 0.0452 0.5614 0.5900
C13A C 0.1022(7) 0.5025(7) 0.5199(8)
C14A C 0.1515(7) 0.4330(8) 0.5199(7)
H11A H 0.1692 0.4204 0.4765
C15A C 0.1797(8) 0.3761(7) 0.5802(9)
H12A H 0.2188 0.3291 0.5762
C16A C 0.0728(8) 0.5605(7) 0.4546(7)
C17A C 0.0129(8) 0.6290(7) 0.4583(7)
H13A H -0.0144 0.6384 0.5039
C18A C -0.0076(9) 0.6845(9) 0.3946(8)
H14A H -0.0411 0.7341 0.3960
C19A C 0.0748(11) 0.6023(10) 0.3287(8)
H15A H 0.0967 0.5921 0.2835
C20A C 0.1005(13) 0.5493(12) 0.3870(10)
H16A H 0.1391 0.5025 0.3814
O67A O 0.3717(4) 0.1454(4) 0.7850(5)
O68A O 0.8094(6) 0.1705(8) 0.8903(7)
N5A N 0.4279(5) 0.1567(5) 0.7949(6)
N6A N 0.7451(6) 0.1697(8) 0.8781(8)
C21A C 0.4148(7) 0.1788(6) 0.8526(7)
H17A H 0.3615 0.1917 0.8824
C22A C 0.4721(6) 0.1835(6) 0.8701(7)
H18A H 0.4589 0.1967 0.9123
C23A C 0.5488(8) 0.1692(7) 0.8266(6)
C24A C 0.5671(7) 0.1477(8) 0.7649(8)
H19A H 0.6200 0.1367 0.7337
C25A C 0.5028(8) 0.1431(10) 0.7514(9)
H20A H 0.5138 0.1298 0.7098
C26A C 0.6178(8) 0.1693(7) 0.8436(7)
C27A C 0.6077(7) 0.1864(9) 0.9023(8)
H21A H 0.5556 0.1978 0.9345
C28A C 0.6697(8) 0.1882(9) 0.9178(9)
H22A H 0.6577 0.2034 0.9585
C29A C 0.7620(10) 0.1531(13) 0.8185(12)
H23A H 0.8153 0.1416 0.7882
C30A C 0.6974(10) 0.1527(11) 0.8002(11)
H24A H 0.7094 0.1409 0.7575
O69A O 0.3109(4) 0.2001(4) 0.6308(4)
O70A O 0.8581(5) 0.0997(6) 0.3014(6)
O70A_2 O -0.1419(5) 1.0997(6) 0.3014(6)
N7A N 0.3860(6) 0.1904(5) 0.5847(6)
N8A N 0.7835(6) 0.1179(6) 0.3443(6)
C31A C 0.4009(7) 0.2358(6) 0.5133(6)
H25A H 0.3586 0.2760 0.4955
C32A C 0.4792(7) 0.2226(7) 0.4665(7)
H26A H 0.4883 0.2526 0.4165
C33A C 0.5453(6) 0.1654(6) 0.4917(6)
C34A C 0.5270(7) 0.1211(6) 0.5641(7)
H27A H 0.5691 0.0807 0.5819
C35A C 0.4488(7) 0.1322(7) 0.6135(7)
H28A H 0.4391 0.1021 0.6634
C36A C 0.6262(8) 0.1515(6) 0.4399(6)
C37A C 0.6439(8) 0.1760(8) 0.3648(8)
H29A H 0.6008 0.2050 0.3439
C38A C 0.7213(8) 0.1609(8) 0.3172(8)
H30A H 0.7295 0.1812 0.2659
C39A C 0.7700(9) 0.0934(9) 0.4163(9)
H31A H 0.8146 0.0636 0.4351
C40A C 0.6961(8) 0.1081(9) 0.4653(9)
H32A H 0.6911 0.0896 0.5160
O71A O 0.2791(6) 0.0833(5) 0.7830(6)
O72A O 0.1601(4) 0.1976(4) 0.7133(5)
O73A O 0.1545(6) 0.1906(6) 0.8590(6)
Ho2A Ho 0.06942(5) 0.90512(4) 0.81719(5)
Ho2_2 Ho -0.06942(5) 1.09488(4) 0.18281(5)
O74A O -0.0160(6) 0.9088(9) 0.7635(7)
O74_2 O 0.0160(6) 1.0912(9) 0.2365(7)
N9A N -0.0180(9) 0.9327(4) 0.6935(5)
N9_2 N 0.0180(9) 1.0673(4) 0.3065(5)
C41A C 0.0152(9) 0.8813(6) 0.6535(4)
C41_2 C -0.0152(9) 1.1187(6) 0.3465(4)
H33A H 0.0356 0.8283 0.6758
H33_2 H -0.0356 1.1717 0.3242
C42A C 0.0173(10) 0.9110(5) 0.5791(5)
C42_2 C -0.0173(10) 1.0890(5) 0.4209(5)
C42A_2 C 1.0173(10) -0.0890(5) 0.5791(5)
H34A H 0.0323 0.8757 0.5545
H34_2 H -0.0323 1.1243 0.4455
C43A C -0.0011(12) 0.9891(4) 0.5385(6)
C43_2 C 0.0011(12) 1.0109(4) 0.4615(6)
C43A_2 C 0.9989(12) -0.0109(4) 0.5385(6)
C44_2 C 0.0369(12) 0.9615(7) 0.4186(4)
C44A C -0.0369(12) 1.0385(7) 0.5814(4)
C44A_2 C 0.9631(12) 0.0385(7) 0.5814(4)
H35_2 H 0.0543 0.9083 0.4416
H35A H -0.0543 1.0917 0.5584
C45_2 C 0.0474(11) 0.9893(6) 0.3422(5)
C45A C -0.0474(11) 1.0107(6) 0.6578(5)
H36_2 H 0.0747 0.9547 0.3148
H36A H -0.0747 1.0453 0.6852
O75_2 O 0.0159(8) 1.1775(7) 0.0983(7)
O75A O -0.0159(8) 0.8225(7) 0.9017(7)
O76_2 O -0.0714(10) 1.1201(10) 0.0598(8)
O76A O 0.0714(10) 0.8799(10) 0.9402(8)
O77_2 O -0.1843(7) 1.0678(7) 0.1926(7)
O77A O 0.1843(7) 0.9322(7) 0.8074(7)
O78_2 O -0.0500(8) 0.9667(7) 0.2526(7)
O78A O 0.0500(8) 1.0333(7) 0.7474(7)
O79_2 O 0.0486(16) 1.0133(13) 0.1226(15)
O79A O -0.0486(16) 0.9867(13) 0.8774(15)
N13 N 0.5484(7) 0.5131(6) 0.7833(6)
H49 H 0.5854 0.5391 0.7626
H50 H 0.5438 0.5038 0.7468
N14 N 0.5020(7) 0.4852(6) 0.9396(6)
H51 H 0.4619 0.4632 0.9584
H52 H 0.5058 0.4928 0.9775
C61 C 0.5795(8) 0.4286(8) 0.9126(5)
H53 H 0.6261 0.4407 0.9085
H54 H 0.5815 0.3761 0.9458
C62 C 0.4687(7) 0.5623(8) 0.8173(6)
H55 H 0.4255 0.5410 0.8300
H56 H 0.4566 0.6146 0.7830
C63 C 0.4764(12) 0.5626(7) 0.8853(7)
H57 H 0.4243 0.5921 0.9105
H58 H 0.5156 0.5897 0.8701
C64 C 0.5781(12) 0.4377(8) 0.8383(6)
H59 H 0.5465 0.4054 0.8474
H60 H 0.6336 0.4141 0.8127
O83 O 0.7771(13) 0.1016(12) 0.6365(14)
O84 O 0.9036(12) -0.1236(12) 0.4088(13)
O85 O 0.9517(12) 0.9033(12) 0.0849(12)
O86 O 0.431(2) 0.3882(19) 0.890(2)
O87 O 0.3170(14) 0.8793(14) 0.8570(15)
O88 O 0.8570(15) 0.0160(14) -0.0114(15)
O89 O 0.1583(16) 0.7719(15) 0.5807(16)
O90 O 0.0605(12) 0.6983(11) 0.1316(12)
O91 O 0.9603(8) 0.1511(7) 0.8065(10)
O92 O 0.093(3) 0.793(3) 0.404(3)
O93 O 0.770(2) 0.322(2) 0.628(2)
O94 O 0.217(3) 0.650(3) 0.049(3)
B1 B 1.2519(6) 0.2685(7) 0.2292(7)
W1 W 1.44278(3) 0.25529(3) 0.09840(3)
W2 W 1.29441(3) 0.42032(3) 0.06973(3)
W3 W 1.29141(3) 0.26614(3) 0.05082(3)
W4 W 1.24903(4) 0.10165(3) 0.21404(4)
W5 W 1.40009(4) 0.09017(3) 0.26266(3)
W6 W 1.21614(4) 0.10657(3) 0.38113(4)
W7 W 1.08788(3) 0.28518(3) 0.18263(3)
W8 W 1.09108(3) 0.43880(3) 0.20148(3)
W9 W 1.05485(3) 0.28937(3) 0.34992(3)
W10 W 1.25862(3) 0.42427(3) 0.25497(3)
W11 W 1.22318(3) 0.27443(3) 0.40372(3)
W12 W 1.40644(3) 0.25959(3) 0.28323(3)
O1 O 1.5437(5) 0.2354(5) 0.0530(5)
O2 O 1.3041(5) 0.5064(5) 0.0040(5)
O3 O 1.2926(4) 0.2548(5) -0.0265(5)
O4 O 1.2379(7) 0.0336(5) 0.1926(6)
O5 O 1.4872(6) 0.0154(5) 0.2712(6)
O6 O 1.1824(7) 0.0436(6) 0.4659(6)
O7 O 1.0264(5) 0.2787(5) 0.1471(5)
O8 O 1.0281(4) 0.5307(5) 0.1823(5)
O9 O 0.9711(5) 0.2853(5) 0.4249(5)
O10 O 1.2540(5) 0.5143(5) 0.2488(5)
O11 O 1.1958(6) 0.2640(5) 0.4960(5)
O12 O 1.4965(5) 0.2441(6) 0.2964(5)
O13 O 1.4073(4) 0.2404(4) 0.0338(4)
O14 O 1.4083(4) 0.3651(5) 0.0494(5)
O15 O 1.4402(4) 0.2770(5) 0.1793(4)
O16 O 1.4364(5) 0.1548(5) 0.1645(5)
O17 O 1.2857(4) 0.3755(5) 0.0103(5)
O18 O 1.1797(4) 0.4444(4) 0.1152(4)
O19 O 1.3003(4) 0.4338(4) 0.1513(4)
O20 O 1.1782(4) 0.2959(5) 0.0973(4)
O21 O 1.2939(5) 0.1658(4) 0.1167(5)
O22 O 1.3549(6) 0.0510(4) 0.2228(5)
O23 O 1.2102(6) 0.0607(5) 0.3213(6)
O24 O 1.1477(5) 0.1802(5) 0.2129(5)
O25 O 1.3301(6) 0.0537(5) 0.3594(5)
O26 O 1.4119(5) 0.1569(4) 0.2970(4)
O27 O 1.2377(5) 0.1723(5) 0.4111(5)
O28 O 1.1157(5) 0.1829(5) 0.3722(5)
O29 O 1.0491(4) 0.3967(5) 0.1633(5)
O30 O 1.0209(5) 0.2760(5) 0.2832(5)
O31 O 1.1562(4) 0.4474(4) 0.2442(5)
O32 O 1.0261(5) 0.3973(4) 0.2988(4)
O33 O 1.1230(5) 0.3043(5) 0.3879(5)
O34 O 1.3664(5) 0.3699(5) 0.2625(5)
O35 O 1.2190(5) 0.3819(4) 0.3600(4)
O36 O 1.3377(5) 0.2499(5) 0.3831(5)
O37 O 1.3004(4) 0.2926(4) 0.1470(4)
O38 O 1.2723(4) 0.1808(4) 0.2588(4)
O39 O 1.1623(4) 0.3052(4) 0.2368(4)
O40 O 1.2785(4) 0.2952(4) 0.2716(4)
O80? O -0.0418(8) 0.7369(7) 1.0383(7)
N10? N -0.0272(7) 0.6743(8) 1.0276(7)
C46? C 0.0453(9) 0.6181(11) 1.0166(9)
H37? H 0.0916 0.6266 1.0132
C47? C 0.0537(8) 0.5504(10) 1.0105(8)
H38? H 0.1033 0.5115 1.0102
C48? C -0.0065(7) 0.5376(7) 1.0048(7)
C49? C -0.0819(9) 0.5921(8) 1.0155(8)
H39? H -0.1273 0.5845 1.0159
C50? C -0.0882(10) 0.6583(8) 1.0256(8)
H40? H -0.1392 0.6951 1.0315
O81? O 0.2935(7) -0.0076(6) -0.0745(7)
N11? N 0.3497(9) -0.0054(8) -0.0529(8)
C51? C 0.3302(10) 0.0255(10) 0.0009(11)
H41? H 0.2758 0.0472 0.0234
C52? C 0.3864(10) 0.0253(10) 0.0216(10)
H42? H 0.3710 0.0417 0.0623
C53? C 0.4667(8) 0.0018(8) -0.0142(8)
C54? C 0.4941(10) -0.0310(9) -0.0676(10)
H43? H 0.5492 -0.0496 -0.0909
C55? C 0.4321(11) -0.0348(10) -0.0851(10)
H44? H 0.4473 -0.0585 -0.1206
O82? O 0.2381(6) 1.0475(5) 0.6861(6)
N12? N 0.3094(7) 1.0312(6) 0.6373(7)
C56? C 0.3149(9) 1.0710(8) 0.5656(9)
H45? H 0.2686 1.1075 0.5520
C57? C 0.3898(7) 1.0588(8) 0.5099(8)
H46? H 0.3911 1.0874 0.4605
C58? C 0.4615(8) 1.0058(8) 0.5261(7)
C59? C 0.4523(10) 0.9662(7) 0.5988(9)
H47? H 0.4976 0.9285 0.6134
C60? C 0.3755(9) 0.9792(8) 0.6559(9)
H48? H 0.3727 0.9509 0.7057
loop_
_geom_bond_atom_site_label_1
_geom_bond_atom_site_label_2
_geom_bond_site_symmetry_1
_geom_bond_site_symmetry_2
B1 O37 1_555 1_555
W1 W3 1_555 1_555
W2 O2 1_555 1_555
W3 O3 1_555 1_555
W4 O4 1_555 1_555
W5 W6 1_555 1_555
W6 O6 1_555 1_555
W7 W8 1_555 1_555
W8 O8 1_555 1_555
W9 O9 1_555 1_555
W10 O10 1_555 1_555
W11 O11 1_555 1_555
W12 O12 1_555 1_555
O1 W1 1_555 1_555
O5 W5 1_555 1_555
O7 W7 1_555 1_555
O13 W1 1_555 1_555
O14 W1 1_555 1_555
O15 W1 1_555 1_555
O16 W1 1_555 1_555
O17 W2 1_555 1_555
O18 W2 1_555 1_555
O19 W2 1_555 1_555
O20 W3 1_555 1_555
O21 W3 1_555 1_555
O22 W4 1_555 1_555
O23 W4 1_555 1_555
O24 W4 1_555 1_555
O25 W5 1_555 1_555
O26 W5 1_555 1_555
O27 W6 1_555 1_555
O28 W6 1_555 1_555
O29 W7 1_555 1_555
O30 W7 1_555 1_555
O31 W8 1_555 1_555
O32 W8 1_555 1_555
O33 W9 1_555 1_555
O34 W10 1_555 1_555
O35 W10 1_555 1_555
O36 W11 1_555 1_555
O37 W1 1_555 1_555
O38 B1 1_555 1_555
O39 B1 1_555 1_555
O40 B1 1_555 1_555
B2 O59 1_555 1_555
W13 O41 1_555 1_555
W14 O42 1_555 1_555
W15 O43 1_555 1_555
W16 O44 1_555 1_555
W17 O45 1_555 1_555
W18 O46 1_555 1_555
O41 Ho1 1_555 1_555
O47 W13 1_555 1_555
O48 W13 1_555 1_555
O49 W13 1_555 1_555
O50 W13 1_555 1_555
O51 W14 1_555 1_555
O52 W14 1_555 1_555
O53 W15 1_555 1_555
O54 W15 1_555 1_555
O55 W16 1_555 1_555
O56 W16 1_555 1_555
O57 W14 1_555 1_555
O58 W17 1_555 1_555
O59 W13 1_555 1_555
O60 B2 1_555 1_555
O61 B2 1_555 1_555
O62 B2 1_555 1_555
Ho1 O63 1_555 1_555
O63 N1 1_555 1_555
O64 N2 1_555 1_555
N1 C1 1_555 1_555
N2 C8 1_555 1_555
C1 H1 1_555 1_555
C2 C1 1_555 1_555
H2 C2 1_555 1_555
C3 C2 1_555 1_555
C4 C3 1_555 1_555
H3 C4 1_555 1_555
C5 N1 1_555 1_555
H4 C5 1_555 1_555
C6 C3 1_555 1_555
C7 C6 1_555 1_555
H5 C7 1_555 1_555
C8 C7 1_555 1_555
H6 C8 1_555 1_555
C9 N2 1_555 1_555
H7 C9 1_555 1_555
C10 C6 1_555 1_555
H8 C10 1_555 1_555
O65 Ho1 1_555 1_555
O66 N4 1_555 1_555
N3 O65 1_555 1_555
N4 C18 1_555 1_555
C11 N3 1_555 1_555
H9 C11 1_555 1_555
C12 C11 1_555 1_555
H10 C12 1_555 1_555
C13 C12 1_555 1_555
C14 C13 1_555 1_555
H11 C14 1_555 1_555
C15 N3 1_555 1_555
H12 C15 1_555 1_555
C16 C13 1_555 1_555
C17 C16 1_555 1_555
H13 C17 1_555 1_555
C18 C17 1_555 1_555
H14 C18 1_555 1_555
C19 N4 1_555 1_555
H15 C19 1_555 1_555
C20 C16 1_555 1_555
H16 C20 1_555 1_555
O67 Ho1 1_555 1_555
O68 N6 1_555 1_555
N5 O67 1_555 1_555
N6 C28 1_555 1_555
C21 N5 1_555 1_555
H17 C21 1_555 1_555
C22 C21 1_555 1_555
H18 C22 1_555 1_555
C23 C22 1_555 1_555
C24 C23 1_555 1_555
H19 C24 1_555 1_555
C25 N5 1_555 1_555
H20 C25 1_555 1_555
C26 C23 1_555 1_555
C27 C26 1_555 1_555
H21 C27 1_555 1_555
C28 C27 1_555 1_555
H22 C28 1_555 1_555
C29 N6 1_555 1_555
H23 C29 1_555 1_555
C30 C26 1_555 1_555
H24 C30 1_555 1_555
O69 Ho1 1_555 1_555
O70 N8 1_555 1_555
N7 O69 1_555 1_555
N8 C38 1_555 1_555
C31 N7 1_555 1_555
H25 C31 1_555 1_555
C32 C31 1_555 1_555
H26 C32 1_555 1_555
C33 C32 1_555 1_555
C34 C33 1_555 1_555
H27 C34 1_555 1_555
C35 N7 1_555 1_555
H28 C35 1_555 1_555
C36 C33 1_555 1_555
C37 C36 1_555 1_555
H29 C37 1_555 1_555
C38 C37 1_555 1_555
H30 C38 1_555 1_555
C39 N8 1_555 1_555
H31 C39 1_555 1_555
C40 C36 1_555 1_555
H32 C40 1_555 1_555
O71 Ho1 1_555 1_555
O72 Ho1 1_555 1_555
O73 Ho1 1_555 1_555
Ho2 O64 1_555 1_555
O74 Ho2 1_555 1_555
N9 O74 1_555 1_555
C41 N9 1_555 1_555
H33 C41 1_555 1_555
C42 C41 1_555 1_555
H34 C42 1_555 1_555
C43 C42 1_555 1_555
C44 C43 1_555 1_555
H35 C44 1_555 1_555
C45 N9 1_555 1_555
H36 C45 1_555 1_555
O75 Ho2 1_555 1_555
O76 Ho2 1_555 1_555
O77 Ho2 1_555 1_555
O78 Ho2 1_555 1_555
O79 Ho2 1_555 1_555
N13 H49 1_555 1_555
H50 N13 1_555 1_555
N14 H51 1_555 1_555
H52 N14 1_555 1_555
C61 N14 1_555 1_555
H53 C61 1_555 1_555
H54 C61 1_555 1_555
C62 N13 1_555 1_555
H55 C62 1_555 1_555
H56 C62 1_555 1_555
C63 N14 1_555 1_555
H57 C63 1_555 1_555
H58 C63 1_555 1_555
C64 N13 1_555 1_555
H59 C64 1_555 1_555
H60 C64 1_555 1_555
W13A O62 1_555 1_555
W14A O61 1_555 1_555
W15A O60 1_555 1_555
W16A O54 1_555 1_555
W17A O56 1_555 1_555
W18A O52 1_555 1_555
O41A W13A 1_555 1_555
O42A W14A 1_555 1_555
O43A W15A 1_555 1_555
O44A W16A 1_555 1_555
O45A W17A 1_555 1_555
O46A W18A 1_555 1_555
O47A W13A 1_555 1_555
O48A W13A 1_555 1_555
O49A W13A 1_555 1_555
O50A W13A 1_555 1_555
O51A W14A 1_555 1_555
O52A W18 1_555 1_555
O53A W15A 1_555 1_555
O54A W16 1_555 1_555
O55A W16A 1_555 1_555
O56A W17 1_555 1_555
O57A W17 1_555 1_555
O58A W17A 1_555 1_555
O59A B2 1_555 1_555
O60A B2 1_555 1_555
O61A B2 1_555 1_555
O62A B2 1_555 1_555
Ho1A O41A 1_555 1_555
O63A Ho1A 1_555 1_555
O64A N2A 1_555 1_555
O64_2 Ho2_2 1_555 1_555
N1A O63A 1_555 1_555
N2A C8A 1_555 1_555
C1A N1A 1_555 1_555
H1A C1A 1_555 1_555
C2A C1A 1_555 1_555
H2A C2A 1_555 1_555
C3A C2A 1_555 1_555
C4A C3A 1_555 1_555
H3A C4A 1_555 1_555
C5A N1A 1_555 1_555
H4A C5A 1_555 1_555
C6A C3A 1_555 1_555
C7A C6A 1_555 1_555
H5A C7A 1_555 1_555
C8A C7A 1_555 1_555
H6A C8A 1_555 1_555
C9A N2A 1_555 1_555
H7A C9A 1_555 1_555
C10A C6A 1_555 1_555
H8A C10A 1_555 1_555
O65A Ho1A 1_555 1_555
O66A N4A 1_555 1_555
N3A O65A 1_555 1_555
N4A C18A 1_555 1_555
C11A N3A 1_555 1_555
H9A C11A 1_555 1_555
C12A C11A 1_555 1_555
H10A C12A 1_555 1_555
C13A C12A 1_555 1_555
C14A C13A 1_555 1_555
H11A C14A 1_555 1_555
C15A N3A 1_555 1_555
H12A C15A 1_555 1_555
C16A C13A 1_555 1_555
C17A C16A 1_555 1_555
H13A C17A 1_555 1_555
C18A C17A 1_555 1_555
H14A C18A 1_555 1_555
C19A N4A 1_555 1_555
H15A C19A 1_555 1_555
C20A C16A 1_555 1_555
H16A C20A 1_555 1_555
O67A Ho1A 1_555 1_555
O68A N6A 1_555 1_555
N5A O67A 1_555 1_555
N6A C28A 1_555 1_555
C21A N5A 1_555 1_555
H17A C21A 1_555 1_555
C22A C21A 1_555 1_555
H18A C22A 1_555 1_555
C23A C22A 1_555 1_555
C24A C23A 1_555 1_555
H19A C24A 1_555 1_555
C25A N5A 1_555 1_555
H20A C25A 1_555 1_555
C26A C23A 1_555 1_555
C27A C26A 1_555 1_555
H21A C27A 1_555 1_555
C28A C27A 1_555 1_555
H22A C28A 1_555 1_555
C29A N6A 1_555 1_555
H23A C29A 1_555 1_555
C30A C26A 1_555 1_555
H24A C30A 1_555 1_555
O69A Ho1A 1_555 1_555
O70A Ho2 1_555 1_555
O70A_2 Ho2_2 1_555 1_555
N7A O69A 1_555 1_555
N8A O70A 1_555 1_555
C31A N7A 1_555 1_555
H25A C31A 1_555 1_555
C32A C31A 1_555 1_555
H26A C32A 1_555 1_555
C33A C32A 1_555 1_555
C34A C33A 1_555 1_555
H27A C34A 1_555 1_555
C35A N7A 1_555 1_555
H28A C35A 1_555 1_555
C36A C33A 1_555 1_555
C37A C36A 1_555 1_555
H29A C37A 1_555 1_555
C38A N8A 1_555 1_555
H30A C38A 1_555 1_555
C39A N8A 1_555 1_555
H31A C39A 1_555 1_555
C40A C36A 1_555 1_555
H32A C40A 1_555 1_555
O71A Ho1A 1_555 1_555
O72A Ho1A 1_555 1_555
O73A Ho1A 1_555 1_555
Ho2A O70 1_555 1_555
Ho2_2 O74_2 1_555 1_555
O74A Ho2A 1_555 1_555
O74_2 N9_2 1_555 1_555
N9A O74A 1_555 1_555
N9_2 C41_2 1_555 1_555
C41A N9A 1_555 1_555
C41_2 H33_2 1_555 1_555
H33A C41A 1_555 1_555
C42A C41A 1_555 1_555
C42_2 C41_2 1_555 1_555
C42A_2 C43A_2 1_555 1_555
H34A C42A 1_555 1_555
H34_2 C42_2 1_555 1_555
C43A C42A 1_555 1_555
C43_2 C42_2 1_555 1_555
C43A_2 C43 1_555 1_555
C44_2 C43_2 1_555 1_555
C44A C43A 1_555 1_555
C44A_2 C43A_2 1_555 1_555
H35_2 C44_2 1_555 1_555
H35A C44A 1_555 1_555
C45_2 N9_2 1_555 1_555
C45A N9A 1_555 1_555
H36_2 C45_2 1_555 1_555
H36A C45A 1_555 1_555
O75_2 Ho2_2 1_555 1_555
O75A Ho2A 1_555 1_555
O76_2 Ho2_2 1_555 1_555
O76A Ho2A 1_555 1_555
O77_2 Ho2_2 1_555 1_555
O77A Ho2A 1_555 1_555
O78_2 Ho2_2 1_555 1_555
O78A Ho2A 1_555 1_555
O79_2 Ho2_2 1_555 1_555
O79A Ho2A 1_555 1_555
W2 O14 1_555 1_555
W2 O37 1_555 1_555
W3 O13 1_555 1_555
W3 O17 1_555 1_555
W3 O37 1_555 1_555
W4 O21 1_555 1_555
W4 O38 1_555 1_555
W5 O16 1_555 1_555
W5 O22 1_555 1_555
W5 O38 1_555 1_555
W6 O23 1_555 1_555
W6 O25 1_555 1_555
W6 O38 1_555 1_555
W7 O20 1_555 1_555
W7 O24 1_555 1_555
W7 O39 1_555 1_555
W8 O18 1_555 1_555
W8 O29 1_555 1_555
W8 O39 1_555 1_555
W9 O28 1_555 1_555
W9 O30 1_555 1_555
W9 O32 1_555 1_555
W9 O39 1_555 1_555
W10 O19 1_555 1_555
W10 O31 1_555 1_555
W10 O40 1_555 1_555
W11 O27 1_555 1_555
W11 O33 1_555 1_555
W11 O35 1_555 1_555
W11 O40 1_555 1_555
W12 O15 1_555 1_555
W12 O26 1_555 1_555
W12 O34 1_555 1_555
W12 O36 1_555 1_555
W12 O40 1_555 1_555
W13 O62A 1_555 1_555
W14 O49 1_555 1_555
W14 O59 1_555 1_555
W14 O61A 1_555 1_555
W15 O48 1_555 1_555
W15 O51 1_555 1_555
W15 O59 1_555 1_555
W15 O60A 1_555 1_555
W16 O50 1_555 1_555
W16 O60 1_555 1_555
W16 O62A 1_555 1_555
W17 O53 1_555 1_555
W17 O61 1_555 1_555
W18 O47 1_555 1_555
W18 O55 1_555 1_555
W18 O58 1_555 1_555
W18 O61 1_555 1_555
W18 O62A 1_555 1_555
O57 W17A 1_555 1_555
O59 O60A 1_555 1_555
O60 O59A 1_555 1_555
O60 O62A 1_555 1_555
O62 W16A 1_555 1_555
O62 W18A 1_555 1_555
O62 O60A 1_555 1_555
C4 C5 1_555 1_555
C9 C10 1_555 1_555
C14 C15 1_555 1_555
C19 C20 1_555 1_555
C24 C25 1_555 1_555
C29 C30 1_555 1_555
C34 C35 1_555 1_555
C39 C40 1_555 1_555
C44 C45 1_555 1_555
C61 C64 1_555 1_555
C62 C63 1_555 1_555
W13A O59A 1_555 1_555
W14A O49A 1_555 1_555
W14A O52A 1_555 1_555
W14A O57A 1_555 1_555
W14A O59A 1_555 1_555
W15A O48A 1_555 1_555
W15A O51A 1_555 1_555
W15A O54A 1_555 1_555
W15A O59A 1_555 1_555
W16A O50A 1_555 1_555
W16A O56A 1_555 1_555
W16A O60A 1_555 1_555
W17A O53A 1_555 1_555
W17A O61A 1_555 1_555
W18A O47A 1_555 1_555
W18A O55A 1_555 1_555
W18A O58A 1_555 1_555
W18A O61A 1_555 1_555
O64A Ho2A 1_555 1_555
C4A C5A 1_555 1_555
C9A C10A 1_555 1_555
C14A C15A 1_555 1_555
C19A C20A 1_555 1_555
C24A C25A 1_555 1_555
C29A C30A 1_555 1_555
C34A C35A 1_555 1_555
C37A C38A 1_555 1_555
C39A C40A 1_555 1_555
C43A C43_2 1_555 1_555
C44_2 C45_2 1_555 1_555
C44A C45A 1_555 1_555

#END
