
#######################################################################
#
#                 Cambridge Crystallographic Data Centre
#                                CCDC 
#
#######################################################################
#
# If this CIF has been generated from an entry in the Cambridge 
# Structural Database, then it will include bibliographic, chemical, 
# crystal, experimental, refinement or atomic coordinate data resulting 
# from the CCDC's data processing and validation procedures.
#
#######################################################################

data_AROGUJ
_symmetry_cell_setting           monoclinic
_symmetry_space_group_name_H-M   'P 21/n'
_symmetry_Int_Tables_number      14
_space_group_name_Hall           '-P 2yn'
loop_
_symmetry_equiv_pos_site_id
_symmetry_equiv_pos_as_xyz
1 x,y,z
2 1/2+x,1/2-y,1/2+z
3 -x,-y,-z
4 1/2-x,1/2+y,1/2-z
_cell_length_a                   9.6921(18)
_cell_length_b                   15.309(3)
_cell_length_c                   11.093(2)
_cell_angle_alpha                90
_cell_angle_beta                 91.312(2)
_cell_angle_gamma                90
_cell_volume                     1645.51
loop_
_atom_site_label
_atom_site_type_symbol
_atom_site_fract_x
_atom_site_fract_y
_atom_site_fract_z
Cu1 Cu 0.07676(3) 0.568618(18) 0.89404(2)
Cl1 Cl 0.26925(7) 0.58188(4) 0.78056(6)
Cl2 Cl 0.13640(6) 0.42402(4) 1.01475(5)
N1 N -0.1664(2) 0.51307(13) 0.60414(16)
N2 N -0.1121(2) 0.55941(13) 0.69617(18)
N3 N -0.0188(2) 0.51076(13) 0.75210(17)
C1 C -0.0106(3) 0.43095(16) 0.6949(2)
C2 C 0.0750(3) 0.35813(17) 0.7152(2)
H1 H 0.1394 0.3564 0.7786
C3 C 0.0583(3) 0.28947(18) 0.6362(2)
H2 H 0.1145 0.2406 0.6455
C4 C -0.0412(3) 0.29085(18) 0.5417(2)
H3 H -0.0504 0.2419 0.4924
C5 C -0.1250(3) 0.36126(17) 0.5193(2)
H4 H -0.1896 0.3622 0.4561
C6 C -0.1064(3) 0.43222(16) 0.5989(2)
N4 N -0.3390(2) 0.73317(13) 0.63211(17)
N5 N -0.4094(2) 0.77440(13) 0.54252(17)
N6 N -0.3433(2) 0.84720(12) 0.51802(17)
C7 C -0.2270(2) 0.85424(15) 0.5914(2)
C8 C -0.1207(3) 0.91605(16) 0.5973(2)
H5 H -0.1203 0.9646 0.5470
C9 C -0.0169(3) 0.90132(18) 0.6810(2)
H6 H 0.0566 0.9403 0.6861
C10 C -0.0182(3) 0.82881(18) 0.7597(2)
H7 H 0.0535 0.8224 0.8162
C11 C -0.1212(3) 0.76759(17) 0.7558(2)
H8 H -0.1223 0.7203 0.8084
C12 C -0.2250(2) 0.78081(15) 0.66731(19)
C13 C -0.3928(3) 0.65081(15) 0.6807(2)
H9 H -0.4836 0.6612 0.7126
H10 H -0.3329 0.6317 0.7468
C14 C -0.4028(3) 0.57852(16) 0.5870(2)
H11 H -0.4706 0.5957 0.5258
H12 H -0.4375 0.5264 0.6258
C15 C -0.2693(3) 0.55459(17) 0.5239(2)
H13 H -0.2910 0.5152 0.4576
H14 H -0.2296 0.6072 0.4903
Cl2B Cl -0.13640(6) 0.57598(4) 0.98525(5)
N6A N 0.1567(2) 0.65280(12) 1.01802(17)
Cu1B Cu -0.07676(3) 0.431382(18) 1.10596(2)
Cu1A Cu -0.42324(3) 0.931382(18) 0.39404(2)
loop_
_geom_bond_atom_site_label_1
_geom_bond_atom_site_label_2
_geom_bond_site_symmetry_1
_geom_bond_site_symmetry_2
Cu1 Cl1 1_555 1_555
Cl2 Cu1 1_555 1_555
N1 N2 1_555 1_555
N2 N3 1_555 1_555
N3 Cu1 1_555 1_555
C1 N3 1_555 1_555
C2 C1 1_555 1_555
H1 C2 1_555 1_555
C3 C2 1_555 1_555
H2 C3 1_555 1_555
C4 C3 1_555 1_555
H3 C4 1_555 1_555
C5 C4 1_555 1_555
H4 C5 1_555 1_555
C6 N1 1_555 1_555
N4 N5 1_555 1_555
N5 N6 1_555 1_555
N6 C7 1_555 1_555
C7 C8 1_555 1_555
C8 H5 1_555 1_555
C9 C8 1_555 1_555
H6 C9 1_555 1_555
C10 C9 1_555 1_555
H7 C10 1_555 1_555
C11 C10 1_555 1_555
H8 C11 1_555 1_555
C12 N4 1_555 1_555
C13 N4 1_555 1_555
H9 C13 1_555 1_555
H10 C13 1_555 1_555
C14 C13 1_555 1_555
H11 C14 1_555 1_555
H12 C14 1_555 1_555
C15 N1 1_555 1_555
H13 C15 1_555 1_555
H14 C15 1_555 1_555
Cl2B Cu1 1_555 1_555
N6A Cu1 1_555 1_555
Cu1B Cl2 1_555 1_555
Cu1A N6 1_555 1_555
C1 C6 1_555 1_555
C5 C6 1_555 1_555
C7 C12 1_555 1_555
C11 C12 1_555 1_555
C14 C15 1_555 1_555
Cl2B Cu1B 1_555 1_555

#END
