
#######################################################################
#
#                 Cambridge Crystallographic Data Centre
#                                CCDC 
#
#######################################################################
#
# If this CIF has been generated from an entry in the Cambridge 
# Structural Database, then it will include bibliographic, chemical, 
# crystal, experimental, refinement or atomic coordinate data resulting 
# from the CCDC's data processing and validation procedures.
#
#######################################################################

data_AROGOD
_symmetry_cell_setting           orthorhombic
_symmetry_space_group_name_H-M   'P n n a'
_symmetry_Int_Tables_number      52
_space_group_name_Hall           '-P 2a 2bc'
loop_
_symmetry_equiv_pos_site_id
_symmetry_equiv_pos_as_xyz
1 x,y,z
2 1/2+x,y,-z
3 1/2+x,1/2-y,1/2+z
4 -x,1/2+y,1/2+z
5 -x,-y,-z
6 1/2-x,-y,z
7 1/2-x,1/2+y,1/2-z
8 x,1/2-y,1/2-z
_cell_length_a                   14.3768(17)
_cell_length_b                   13.9973(16)
_cell_length_c                   8.0365(9)
_cell_angle_alpha                90
_cell_angle_beta                 90
_cell_angle_gamma                90
_cell_volume                     1617.24
loop_
_atom_site_label
_atom_site_type_symbol
_atom_site_fract_x
_atom_site_fract_y
_atom_site_fract_z
Co1 Co 0.39138(3) 0.2500 0.2500
Cl1 Cl 0.30935(4) 0.24196(4) 0.01587(7)
C1 C 0.66798(15) 0.02105(16) 0.0672(3)
H1 H 0.6839 0.0756 -0.0059
H2 H 0.6565 -0.0351 -0.0048
C2 C 0.7500 0.0000 0.1786(4)
H3 H 0.7364 -0.0557 0.2505
N1 N 0.58300(12) 0.04355(12) 0.1570(2)
N2 N 0.55189(12) 0.13313(12) 0.1603(2)
N3 N 0.47345(12) 0.13373(13) 0.24326(19)
C3 C 0.45306(15) 0.04297(16) 0.2944(2)
C4 C 0.37812(15) 0.00694(16) 0.3846(2)
H4 H 0.3291 0.0470 0.4222
C5 C 0.37863(16) -0.08849(16) 0.4163(3)
H5 H 0.3286 -0.1159 0.4771
C6 C 0.45130(16) -0.14741(16) 0.3613(3)
H6 H 0.4492 -0.2135 0.3878
C7 C 0.52486(16) -0.11377(16) 0.2715(2)
H7 H 0.5736 -0.1542 0.2338
C8 C 0.52365(15) -0.01635(15) 0.2390(2)
C1E C 0.83202(15) -0.02105(16) 0.0672(3)
H1E H 0.8161 -0.0756 -0.0059
H2E H 0.8435 0.0351 -0.0048
N1E N 0.91700(12) -0.04355(12) 0.1570(2)
N2E N 0.94811(12) -0.13313(12) 0.1603(2)
N3E N 1.02655(12) -0.13373(13) 0.24326(19)
C3E C 1.04694(15) -0.04297(16) 0.2944(2)
C4E C 1.12188(15) -0.00694(16) 0.3846(2)
H4E H 1.1709 -0.0470 0.4222
C5E C 1.12137(16) 0.08849(16) 0.4163(3)
H5E H 1.1714 0.1159 0.4771
C6E C 1.04870(16) 0.14741(16) 0.3613(3)
H6E H 1.0508 0.2135 0.3878
C7E C 0.97514(16) 0.11377(16) 0.2715(2)
H7E H 0.9264 0.1542 0.2338
C8E C 0.97635(15) 0.01635(15) 0.2390(2)
H3E H 0.7636 0.0557 0.2505
Cl1G Cl 0.30935(4) 0.25804(4) 0.48413(7)
N3G N 0.47345(12) 0.36627(13) 0.25674(19)
Co1E Co 1.10862(3) -0.2500 0.2500
loop_
_geom_bond_atom_site_label_1
_geom_bond_atom_site_label_2
_geom_bond_site_symmetry_1
_geom_bond_site_symmetry_2
Co1 Cl1 1_555 1_555
C1 H1 1_555 1_555
H2 C1 1_555 1_555
C2 C1 1_555 1_555
H3 C2 1_555 1_555
N1 C1 1_555 1_555
N2 N1 1_555 1_555
N3 Co1 1_555 1_555
C3 N3 1_555 1_555
C4 C3 1_555 1_555
H4 C4 1_555 1_555
C5 C4 1_555 1_555
H5 C5 1_555 1_555
C6 C5 1_555 1_555
H6 C6 1_555 1_555
C7 C6 1_555 1_555
H7 C7 1_555 1_555
C8 N1 1_555 1_555
C1E C2 1_555 1_555
H1E C1E 1_555 1_555
H2E C1E 1_555 1_555
N1E C1E 1_555 1_555
N2E N1E 1_555 1_555
N3E N2E 1_555 1_555
C3E N3E 1_555 1_555
C4E C3E 1_555 1_555
H4E C4E 1_555 1_555
C5E C4E 1_555 1_555
H5E C5E 1_555 1_555
C6E C5E 1_555 1_555
H6E C6E 1_555 1_555
C7E C6E 1_555 1_555
H7E C7E 1_555 1_555
C8E N1E 1_555 1_555
H3E C2 1_555 1_555
Cl1G Co1 1_555 1_555
N3G Co1 1_555 1_555
Co1E N3E 1_555 1_555
N2 N3 1_555 1_555
C3 C8 1_555 1_555
C7 C8 1_555 1_555
C3E C8E 1_555 1_555
C7E C8E 1_555 1_555

#END
