
#######################################################################
#
#                 Cambridge Crystallographic Data Centre
#                                CCDC 
#
#######################################################################
#
# If this CIF has been generated from an entry in the Cambridge 
# Structural Database, then it will include bibliographic, chemical, 
# crystal, experimental, refinement or atomic coordinate data resulting 
# from the CCDC's data processing and validation procedures.
#
#######################################################################

data_AROHEU
_symmetry_cell_setting           monoclinic
_symmetry_space_group_name_H-M   'C 2/c'
_symmetry_Int_Tables_number      15
_space_group_name_Hall           '-C 2yn'
loop_
_symmetry_equiv_pos_site_id
_symmetry_equiv_pos_as_xyz
1 x,y,z
2 1/2+x,1/2+y,z
3 x,-y,1/2+z
4 1/2+x,1/2-y,1/2+z
5 -x,-y,-z
6 1/2-x,1/2-y,-z
7 -x,y,1/2-z
8 1/2-x,1/2+y,1/2-z
_cell_length_a                   11.6934(9)
_cell_length_b                   17.8761(14)
_cell_length_c                   15.4440(12)
_cell_angle_alpha                90
_cell_angle_beta                 112.1310(10)
_cell_angle_gamma                90
_cell_volume                     2990.45
loop_
_atom_site_label
_atom_site_type_symbol
_atom_site_fract_x
_atom_site_fract_y
_atom_site_fract_z
Cu1 Cu 0.41233(4) 0.47881(2) 0.15798(3)
Cl1 Cl 0.62298(7) 0.51230(4) 0.20171(6)
C1 C 0.4718(3) 0.36033(17) 0.0169(2)
H1 H 0.5395 0.3946 0.0529
H2 H 0.4073 0.3902 -0.0309
C2 C 0.5210(3) 0.30199(17) -0.0310(2)
H3 H 0.4527 0.2689 -0.0692
H4 H 0.5833 0.2708 0.0167
C3 C 0.5793(3) 0.33865(17) -0.0932(2)
H5 H 0.6025 0.2995 -0.1288
H6 H 0.5179 0.3718 -0.1386
N1 N 0.3850(2) 0.36811(14) 0.13732(19)
N2 N 0.4194(2) 0.32566(14) 0.08014(19)
N3 N 0.4022(3) 0.25257(15) 0.0832(2)
C4 C 0.3525(3) 0.24562(17) 0.1493(2)
C5 C 0.3155(3) 0.18134(18) 0.1850(2)
H7 H 0.3231 0.1327 0.1630
C6 C 0.2682(3) 0.19218(18) 0.2525(2)
H8 H 0.2418 0.1502 0.2777
C7 C 0.2577(3) 0.26475(19) 0.2856(3)
H9 H 0.2251 0.2696 0.3331
C8 C 0.2922(3) 0.32789(18) 0.2523(2)
H10 H 0.2839 0.3762 0.2749
C9 C 0.3411(3) 0.31735(17) 0.1825(2)
N4 N 0.6974(2) 0.45591(15) -0.05329(19)
N5 N 0.6891(2) 0.38245(15) -0.03913(19)
N6 N 0.7851(3) 0.35099(16) 0.0277(2)
C10 C 0.8638(3) 0.4089(2) 0.0607(2)
C11 C 0.9824(3) 0.4104(2) 0.1320(3)
H11 H 1.0200 0.3665 0.1651
C12 C 1.0406(4) 0.4781(2) 0.1512(3)
H12 H 1.1203 0.4813 0.1993
C13 C 0.9856(3) 0.5442(2) 0.1013(3)
H13 H 1.0299 0.5900 0.1170
C14 C 0.8716(3) 0.5436(2) 0.0318(3)
H14 H 0.8353 0.5878 -0.0014
C15 C 0.8101(3) 0.47447(18) 0.0115(2)
Cu1F Cu 0.58767(4) 0.47881(2) 0.34202(3)
Cl1F Cl 0.37702(7) 0.51230(4) 0.29829(6)
N4D N 0.3026(2) 0.54409(15) 0.05329(19)
Cu1D Cu 0.58767(4) 0.52119(2) -0.15798(3)
loop_
_geom_bond_atom_site_label_1
_geom_bond_atom_site_label_2
_geom_bond_site_symmetry_1
_geom_bond_site_symmetry_2
Cu1 Cl1 1_555 1_555
Cl1 Cu1F 1_555 1_555
C1 H1 1_555 1_555
H2 C1 1_555 1_555
C2 C1 1_555 1_555
H3 C2 1_555 1_555
H4 C2 1_555 1_555
C3 C2 1_555 1_555
H5 C3 1_555 1_555
H6 C3 1_555 1_555
N1 Cu1 1_555 1_555
N2 C1 1_555 1_555
N3 N2 1_555 1_555
C4 N3 1_555 1_555
C5 C4 1_555 1_555
H7 C5 1_555 1_555
C6 C5 1_555 1_555
H8 C6 1_555 1_555
C7 C6 1_555 1_555
H9 C7 1_555 1_555
C8 C7 1_555 1_555
H10 C8 1_555 1_555
C9 N1 1_555 1_555
N4 N5 1_555 1_555
N5 C3 1_555 1_555
N6 N5 1_555 1_555
C10 N6 1_555 1_555
C11 C10 1_555 1_555
H11 C11 1_555 1_555
C12 C11 1_555 1_555
H12 C12 1_555 1_555
C13 C12 1_555 1_555
H13 C13 1_555 1_555
C14 C13 1_555 1_555
H14 C14 1_555 1_555
C15 N4 1_555 1_555
Cu1F Cu1 1_555 1_555
Cl1F Cu1 1_555 1_555
N4D Cu1 1_555 1_555
Cu1D N4 1_555 1_555
N1 N2 1_555 1_555
C4 C9 1_555 1_555
C8 C9 1_555 1_555
C10 C15 1_555 1_555
C14 C15 1_555 1_555
Cu1F Cl1F 1_555 1_555

#END
