
#######################################################################
#
#                 Cambridge Crystallographic Data Centre
#                                CCDC 
#
#######################################################################
#
# If this CIF has been generated from an entry in the Cambridge 
# Structural Database, then it will include bibliographic, chemical, 
# crystal, experimental, refinement or atomic coordinate data resulting 
# from the CCDC's data processing and validation procedures.
#
#######################################################################

data_AROHUL
_symmetry_cell_setting           monoclinic
_symmetry_space_group_name_H-M   'P 21/n'
_symmetry_Int_Tables_number      14
_space_group_name_Hall           '-P 2yn'
loop_
_symmetry_equiv_pos_site_id
_symmetry_equiv_pos_as_xyz
1 x,y,z
2 1/2-x,1/2+y,1/2-z
3 -x,-y,-z
4 1/2+x,1/2-y,1/2+z
_cell_length_a                   7.20778(13)
_cell_length_b                   15.7128(3)
_cell_length_c                   18.1688(3)
_cell_angle_alpha                90
_cell_angle_beta                 95.0877(7)
_cell_angle_gamma                90
_cell_volume                     2049.59
loop_
_atom_site_label
_atom_site_type_symbol
_atom_site_fract_x
_atom_site_fract_y
_atom_site_fract_z
Mo1 Mo 0.490340(18) 0.743707(8) 0.060006(7)
Mn1 Mn 0.95950(3) 1.214760(16) -0.280750(13)
Mn2 Mn 1.0000 1.0000 0.0000
Mn3 Mn 0.0000 0.5000 0.0000
O1 O -0.04795(19) 0.41775(8) 0.10047(7)
O2 O 0.7050(2) 1.21449(11) -0.36490(8)
N1 N 0.7951(2) 0.88990(9) 0.00785(8)
N2 N 0.3989(2) 0.69389(10) -0.11769(8)
N3 N 0.2277(2) 0.57111(9) 0.06314(8)
N4 N 0.7920(2) 0.76894(10) 0.20503(8)
N5 N 0.8058(2) 0.59456(10) 0.03470(9)
N6 N 0.2390(2) 0.76874(10) 0.19907(8)
N7 N 0.7815(2) 1.09423(10) -0.00957(8)
N8 N 0.98254(19) 1.36046(9) -0.29255(8)
N9 N 1.0144(2) 1.49177(10) -0.22769(9)
N10 N 0.98863(19) 0.99179(9) -0.12899(8)
N11 N 0.9735(2) 1.07360(9) -0.24017(8)
C1 C 0.6933(2) 0.83748(11) 0.02477(9)
C2 C 0.4232(2) 0.71335(10) -0.05606(9)
C3 C 0.3238(2) 0.63052(10) 0.06591(9)
C4 C 0.6809(2) 0.75814(10) 0.15565(10)
C5 C 0.6983(2) 0.64585(11) 0.04571(9)
C6 C 0.3293(2) 0.76163(10) 0.14986(10)
C7 C 0.6892(2) 1.15154(11) -0.02878(9)
C8 C 0.9882(2) 1.40778(11) -0.23091(10)
C9 C 1.0355(2) 1.53224(11) -0.29187(11)
C10 C 1.0336(2) 1.48888(12) -0.35773(10)
C11 C 1.0070(2) 1.40169(11) -0.35553(9)
C12 C 0.9842(2) 1.00156(12) -0.27948(10)
C13 C 0.9775(2) 1.06492(11) -0.16667(9)
C14 C 0.9986(2) 0.92020(11) -0.16944(11)
C15 C 0.9986(2) 0.92242(12) -0.24535(11)
H1 H -0.042(4) 0.453(2) 0.1434(18)
H2 H -0.141(4) 0.396(2) 0.0984(16)
H3 H 0.638(4) 1.174(2) -0.3644(17)
H4 H 0.749(6) 1.225(2) -0.409(2)
H5 H 0.973(2) 1.3810(14) -0.1875(12)
H6 H 1.056(3) 1.5879(17) -0.2894(13)
H7 H 1.043(3) 1.5164(16) -0.4013(14)
H8 H 1.006(2) 1.3683(14) -0.3999(12)
H9 H 0.983(3) 1.0081(15) -0.3328(13)
H10 H 0.970(2) 1.1178(15) -0.1384(12)
H11 H 1.011(2) 0.8682(14) -0.1423(12)
H12 H 1.007(3) 0.8725(17) -0.2716(14)
Mo1B Mo 1.509660(18) 1.256293(8) -0.060006(7)
Mo1B_2 Mo 0.509660(18) 1.256293(8) -0.060006(7)
Mo1_2 Mo 1.490340(18) 0.743707(8) 0.060006(7)
Mo1A Mo 1.009660(18) 1.243707(8) -0.560006(7)
Mn1B Mn 1.04050(3) 0.785240(16) 0.280750(13)
Mn1A Mn 0.54050(3) 0.714760(16) -0.219250(13)
Mn1B_2 Mn 0.04050(3) 0.785240(16) 0.280750(13)
Mn3_2 Mn 1.0000 0.5000 0.0000
Mn3_3 Mn 2.0000 1.5000 0.0000
Mn3_4 Mn 1.0000 1.5000 0.0000
O1B O 0.04795(19) 0.58225(8) -0.10047(7)
O2B O 1.2950(2) 0.78551(11) 0.36490(8)
N1B N 1.2049(2) 1.11010(9) -0.00785(8)
N2A N 1.1011(2) 1.19389(10) -0.38231(8)
N2C N 0.8989(2) 0.80611(10) 0.38231(8)
N3B N 1.7723(2) 1.42889(9) -0.06314(8)
N3B_2 N -0.2277(2) 0.42889(9) -0.06314(8)
N4B N 1.2080(2) 1.23106(10) -0.20503(8)
N5B N 1.1942(2) 1.40544(10) -0.03470(9)
N5_2 N -0.1942(2) 0.59456(10) 0.03470(9)
N5B_2 N 0.1942(2) 0.40544(10) -0.03470(9)
N6B N 0.7610(2) 1.23126(10) -0.19907(8)
N6_2 N 1.2390(2) 0.76874(10) 0.19907(8)
N7B N 1.2185(2) 0.90577(10) 0.00957(8)
N8B N 1.01746(19) 0.63954(9) 0.29255(8)
N9B N 0.9856(2) 0.50823(10) 0.22769(9)
N10B N 1.01137(19) 1.00821(9) 0.12899(8)
N11B N 1.0265(2) 0.92640(9) 0.24017(8)
C1B C 1.3067(2) 1.16252(11) -0.02477(9)
C2A C 1.0768(2) 1.21335(10) -0.44394(9)
C2B C 1.5768(2) 1.28665(10) 0.05606(9)
C3B C 1.6762(2) 1.36948(10) -0.06591(9)
C4B C 1.3191(2) 1.24186(10) -0.15565(10)
C5B C 1.3017(2) 1.35415(11) -0.04571(9)
C6B C 0.6707(2) 1.23837(10) -0.14986(10)
C6B_2 C 1.6707(2) 1.23837(10) -0.14986(10)
C7B C 1.3108(2) 0.84846(11) 0.02878(9)
C7B_2 C 0.3108(2) 0.84846(11) 0.02878(9)
C7_2 C 1.6892(2) 1.15154(11) -0.02878(9)
C8B C 1.0118(2) 0.59222(11) 0.23091(10)
C9B C 0.9645(2) 0.46776(11) 0.29187(11)
C10B C 0.9664(2) 0.51112(12) 0.35773(10)
C11B C 0.9930(2) 0.59831(11) 0.35553(9)
C12B C 1.0158(2) 0.99844(12) 0.27948(10)
C13B C 1.0225(2) 0.93508(11) 0.16667(9)
C14B C 1.0014(2) 1.07980(11) 0.16944(11)
C15B C 1.0014(2) 1.07758(12) 0.24535(11)
H1B H 0.042(4) 0.547(2) -0.1434(18)
H2B H 0.141(4) 0.604(2) -0.0984(16)
H3B H 1.362(4) 0.826(2) 0.3644(17)
H4B H 1.251(6) 0.775(2) 0.409(2)
H5B H 1.027(2) 0.6190(14) 0.1875(12)
H6B H 0.944(3) 0.4121(17) 0.2894(13)
H7B H 0.957(3) 0.4836(16) 0.4013(14)
H8B H 0.994(2) 0.6317(14) 0.3999(12)
H9B H 1.017(3) 0.9919(15) 0.3328(13)
H10B H 1.030(2) 0.8822(15) 0.1384(12)
H11B H 0.989(2) 1.1318(14) 0.1423(12)
H12B H 0.993(3) 1.1275(17) 0.2716(14)
loop_
_geom_bond_atom_site_label_1
_geom_bond_atom_site_label_2
_geom_bond_site_symmetry_1
_geom_bond_site_symmetry_2
Mo1 C1 1_555 1_555
Mn1 O2 1_555 1_555
Mn2 N1 1_555 1_555
Mn3 O1 1_555 1_555
O1 H1 1_555 1_555
O2 H3 1_555 1_555
N1 C1 1_555 1_555
N2 C2 1_555 1_555
N3 Mn3 1_555 1_555
N4 C4 1_555 1_555
N5 C5 1_555 1_555
N6 C6 1_555 1_555
N7 Mn2 1_555 1_555
N8 Mn1 1_555 1_555
N9 C8 1_555 1_555
N10 Mn2 1_555 1_555
N11 Mn1 1_555 1_555
C2 Mo1 1_555 1_555
C3 Mo1 1_555 1_555
C4 Mo1 1_555 1_555
C5 Mo1 1_555 1_555
C6 Mo1 1_555 1_555
C7 N7 1_555 1_555
C8 N8 1_555 1_555
C9 N9 1_555 1_555
C10 C9 1_555 1_555
C11 N8 1_555 1_555
C12 N11 1_555 1_555
C13 N10 1_555 1_555
C14 N10 1_555 1_555
C15 C12 1_555 1_555
H2 O1 1_555 1_555
H4 O2 1_555 1_555
H5 C8 1_555 1_555
H6 C9 1_555 1_555
H7 C10 1_555 1_555
H8 C11 1_555 1_555
H9 C12 1_555 1_555
H10 C13 1_555 1_555
H11 C14 1_555 1_555
H12 C15 1_555 1_555
Mo1B C1B 1_555 1_555
Mo1B_2 C7 1_555 1_555
Mo1_2 C7B 1_555 1_555
Mo1A C2A 1_555 1_555
Mn1B N4 1_555 1_555
Mn1A N2 1_555 1_555
Mn1B_2 N6 1_555 1_555
Mn3_2 N5 1_555 1_555
Mn3_3 N3B 1_555 1_555
Mn3_4 N5B 1_555 1_555
O1B Mn3 1_555 1_555
O2B Mn1B 1_555 1_555
N1B Mn2 1_555 1_555
N2A Mn1 1_555 1_555
N2C Mn1B 1_555 1_555
N3B C3B 1_555 1_555
N3B_2 Mn3 1_555 1_555
N4B Mn1 1_555 1_555
N5B C5B 1_555 1_555
N5_2 Mn3 1_555 1_555
N5B_2 Mn3 1_555 1_555
N6B Mn1 1_555 1_555
N6_2 Mn1B 1_555 1_555
N7B Mn2 1_555 1_555
N8B Mn1B 1_555 1_555
N9B C8B 1_555 1_555
N10B Mn2 1_555 1_555
N11B Mn1B 1_555 1_555
C1B N1B 1_555 1_555
C2A N2A 1_555 1_555
C2B Mo1B 1_555 1_555
C3B Mo1B 1_555 1_555
C4B Mo1B 1_555 1_555
C5B Mo1B 1_555 1_555
C6B Mo1B_2 1_555 1_555
C6B_2 Mo1B 1_555 1_555
C7B N7B 1_555 1_555
C7B_2 Mo1 1_555 1_555
C7_2 Mo1B 1_555 1_555
C8B N8B 1_555 1_555
C9B N9B 1_555 1_555
C10B C9B 1_555 1_555
C11B N8B 1_555 1_555
C12B N11B 1_555 1_555
C13B N10B 1_555 1_555
C14B N10B 1_555 1_555
C15B C12B 1_555 1_555
H1B O1B 1_555 1_555
H2B O1B 1_555 1_555
H3B O2B 1_555 1_555
H4B O2B 1_555 1_555
H5B C8B 1_555 1_555
H6B C9B 1_555 1_555
H7B C10B 1_555 1_555
H8B C11B 1_555 1_555
H9B C12B 1_555 1_555
H10B C13B 1_555 1_555
H11B C14B 1_555 1_555
H12B C15B 1_555 1_555
N3 C3 1_555 1_555
N11 C13 1_555 1_555
C10 C11 1_555 1_555
C14 C15 1_555 1_555
N4B C4B 1_555 1_555
N6B C6B 1_555 1_555
N11B C13B 1_555 1_555
C10B C11B 1_555 1_555
C14B C15B 1_555 1_555

#END
