
#######################################################################
#
#                 Cambridge Crystallographic Data Centre
#                                CCDC 
#
#######################################################################
#
# If this CIF has been generated from an entry in the Cambridge 
# Structural Database, then it will include bibliographic, chemical, 
# crystal, experimental, refinement or atomic coordinate data resulting 
# from the CCDC's data processing and validation procedures.
#
#######################################################################

data_AROSUW
_symmetry_cell_setting           triclinic
_symmetry_space_group_name_H-M   'P -1'
_symmetry_Int_Tables_number      2
_space_group_name_Hall           '-P 1'
loop_
_symmetry_equiv_pos_site_id
_symmetry_equiv_pos_as_xyz
1 x,y,z
2 -x,-y,-z
_cell_length_a                   8.738(3)
_cell_length_b                   10.188(4)
_cell_length_c                   10.760(4)
_cell_angle_alpha                63.080(7)
_cell_angle_beta                 83.713(8)
_cell_angle_gamma                76.770(7)
_cell_volume                     831.401
loop_
_atom_site_label
_atom_site_type_symbol
_atom_site_fract_x
_atom_site_fract_y
_atom_site_fract_z
Cu1 Cu 0.60872(7) 0.15668(6) 0.18812(6)
N1 N 0.3849(4) 0.1858(4) 0.2503(4)
C1 C 0.2800(6) 0.3104(5) 0.1783(6)
H1 H 0.3136 0.3857 0.0983
C2 C 0.1257(6) 0.3321(6) 0.2168(6)
H2 H 0.0562 0.4202 0.1633
C3 C 0.0733(6) 0.2218(6) 0.3363(6)
H3 H -0.0317 0.2337 0.3636
C4 C 0.1805(6) 0.0947(6) 0.4131(5)
H4 H 0.1502 0.0186 0.4944
C5 C 0.3325(6) 0.0827(5) 0.3673(5)
H5 H 0.4048 -0.0029 0.4211
N2 N 0.8345(5) 0.1349(4) 0.1253(4)
C6 C 0.9447(6) 0.0140(5) 0.1970(5)
H6 H 0.9153 -0.0621 0.2787
C7 C 1.0982(6) -0.0019(6) 0.1552(6)
H7 H 1.1704 -0.0880 0.2080
C8 C 1.1466(6) 0.1085(6) 0.0355(6)
H8 H 1.2512 0.0999 0.0067
C9 C 1.0349(7) 0.2316(6) -0.0399(6)
H9 H 1.0621 0.3084 -0.1222
C10 C 0.8809(6) 0.2406(5) 0.0080(5)
H10 H 0.8062 0.3247 -0.0444
O1 O 0.6647(4) 0.2295(3) 0.3287(3)
O2 O 0.5846(4) 0.4513(3) 0.1500(4)
O3 O 0.6428(4) 0.9258(3) 0.3112(3)
O4 O 0.5177(4) 0.8915(3) 0.1625(4)
O5 O 0.6249(3) 0.5972(3) 0.2888(3)
O6 O 0.8284(6) 0.3896(4) 0.6687(4)
C11 C 0.6334(5) 0.3704(5) 0.2707(5)
C12 C 0.6641(5) 0.4443(4) 0.3575(5)
C13 C 0.7265(6) 0.3732(5) 0.4837(5)
H11 H 0.7467 0.2687 0.5279
C14 C 0.7645(7) 0.4526(5) 0.5555(6)
C15 C 0.7182(6) 0.6141(5) 0.4768(5)
H12 H 0.7354 0.6746 0.5155
C16 C 0.6523(5) 0.6797(5) 0.3519(5)
C17 C 0.5977(5) 0.8466(5) 0.2656(5)
O7 O 0.5408(5) 0.2491(3) -0.0144(4)
H13 H 0.530(6) 0.186(4) -0.040(5)
H14 H 0.502(6) 0.337(3) -0.063(5)
Cu1_2 Cu 0.60872(7) 1.15668(6) 0.18812(6)
O3_2 O 0.6428(4) -0.0742(3) 0.3112(3)
loop_
_geom_bond_atom_site_label_1
_geom_bond_atom_site_label_2
_geom_bond_site_symmetry_1
_geom_bond_site_symmetry_2
Cu1 N1 1_555 1_555
N1 C1 1_555 1_555
C1 H1 1_555 1_555
C2 C1 1_555 1_555
H2 C2 1_555 1_555
C3 C2 1_555 1_555
H3 C3 1_555 1_555
C4 C3 1_555 1_555
H4 C4 1_555 1_555
C5 N1 1_555 1_555
H5 C5 1_555 1_555
N2 Cu1 1_555 1_555
C6 N2 1_555 1_555
H6 C6 1_555 1_555
C7 C6 1_555 1_555
H7 C7 1_555 1_555
C8 C7 1_555 1_555
H8 C8 1_555 1_555
C9 C8 1_555 1_555
H9 C9 1_555 1_555
C10 N2 1_555 1_555
H10 C10 1_555 1_555
O1 Cu1 1_555 1_555
O2 C11 1_555 1_555
O3 C17 1_555 1_555
O4 C17 1_555 1_555
O5 C12 1_555 1_555
O6 C14 1_555 1_555
C11 O1 1_555 1_555
C12 C11 1_555 1_555
C13 C12 1_555 1_555
H11 C13 1_555 1_555
C14 C13 1_555 1_555
C15 C14 1_555 1_555
H12 C15 1_555 1_555
C16 O5 1_555 1_555
C17 C16 1_555 1_555
O7 Cu1 1_555 1_555
H13 O7 1_555 1_555
H14 O7 1_555 1_555
Cu1_2 O3 1_555 1_555
O3_2 Cu1 1_555 1_555
C4 C5 1_555 1_555
C9 C10 1_555 1_555
C15 C16 1_555 1_555

#END
