
#######################################################################
#
#                 Cambridge Crystallographic Data Centre
#                                CCDC 
#
#######################################################################
#
# If this CIF has been generated from an entry in the Cambridge 
# Structural Database, then it will include bibliographic, chemical, 
# crystal, experimental, refinement or atomic coordinate data resulting 
# from the CCDC's data processing and validation procedures.
#
#######################################################################

data_AROTEG
_symmetry_cell_setting           triclinic
_symmetry_space_group_name_H-M   'P -1'
_symmetry_Int_Tables_number      2
_space_group_name_Hall           '-P 1'
loop_
_symmetry_equiv_pos_site_id
_symmetry_equiv_pos_as_xyz
1 x,y,z
2 -x,-y,-z
_cell_length_a                   9.746(5)
_cell_length_b                   12.780(7)
_cell_length_c                   13.315(7)
_cell_angle_alpha                113.132(9)
_cell_angle_beta                 104.763(9)
_cell_angle_gamma                96.916(9)
_cell_volume                     1428.69
loop_
_atom_site_label
_atom_site_type_symbol
_atom_site_fract_x
_atom_site_fract_y
_atom_site_fract_z
La1 La 0.270721(16) 0.462748(14) 0.474272(14)
C1 C 0.5566(3) 0.7307(3) 0.5589(3)
C2 C 0.4994(3) 0.8372(3) 0.5770(3)
C3 C 0.5894(4) 0.9501(3) 0.6337(3)
C4 C 0.5366(4) 1.0488(3) 0.6504(4)
H1 H 0.6003 1.1232 0.6886
C5 C 0.3877(5) 1.0351(4) 0.6096(4)
H2 H 0.3500 1.1007 0.6201
C6 C 0.2943(4) 0.9246(4) 0.5532(4)
H3 H 0.1937 0.9157 0.5256
C7 C 0.3493(3) 0.8275(3) 0.5378(3)
H4 H 0.2849 0.7535 0.5002
C8 C 0.5667(3) 0.4954(3) 0.7183(3)
C9 C 0.5893(3) 0.4608(3) 0.8161(3)
C10 C 0.7051(4) 0.5192(4) 0.9196(3)
C11 C 0.7232(5) 0.4870(4) 1.0083(4)
H5 H 0.8009 0.5294 1.0772
C12 C 0.6252(5) 0.3915(4) 0.9941(4)
H6 H 0.6376 0.3680 1.0530
C13 C 0.5093(5) 0.3307(4) 0.8935(4)
H7 H 0.4432 0.2659 0.8842
C14 C 0.4903(4) 0.3657(3) 0.8054(3)
H8 H 0.4101 0.3249 0.7381
C15 C -0.0091(3) 0.6065(3) 0.4011(3)
C16 C -0.0020(3) 0.6741(3) 0.3320(3)
C17 C -0.0702(4) 0.7648(3) 0.3408(3)
C18 C -0.0586(5) 0.8265(4) 0.2762(4)
H9 H -0.1055 0.8869 0.2829
C19 C 0.0215(5) 0.7987(4) 0.2027(4)
H10 H 0.0292 0.8402 0.1598
C20 C 0.0906(4) 0.7093(4) 0.1927(3)
H11 H 0.1453 0.6905 0.1430
C21 C 0.0791(3) 0.6470(3) 0.2561(3)
H12 H 0.1258 0.5864 0.2482
C22 C -0.0008(4) 0.2862(3) 0.1763(3)
H13 H 0.0315 0.3567 0.1744
C23 C -0.1093(4) 0.1992(3) 0.0790(3)
H14 H -0.1483 0.2120 0.0146
C24 C -0.1592(4) 0.0927(3) 0.0788(3)
C25 C -0.0939(4) 0.0806(3) 0.1780(4)
H15 H -0.1228 0.0106 0.1819
C26 C 0.0135(4) 0.1721(3) 0.2707(3)
H16 H 0.0559 0.1614 0.3358
C27 C -0.5196(4) -0.0661(4) -0.1615(3)
H17 H -0.5966 -0.0469 -0.2027
C28 C -0.3986(4) 0.0242(3) -0.0806(3)
H18 H -0.3953 0.1013 -0.0689
C29 C -0.2835(4) -0.0022(3) -0.0179(3)
C30 C -0.2942(5) -0.1199(4) -0.0431(4)
H19 H -0.2182 -0.1426 -0.0051
C31 C -0.4198(5) -0.2026(4) -0.1256(4)
H20 H -0.4254 -0.2808 -0.1412
F1 F 0.7359(2) 0.9671(2) 0.6771(3)
F2 F 0.8003(3) 0.6157(3) 0.9376(2)
F3 F -0.1461(3) 0.8002(3) 0.4148(3)
N1 N 0.0599(3) 0.2759(2) 0.2716(2)
N2 N -0.5319(4) -0.1780(3) -0.1835(3)
O1 O 0.4742(3) 0.63668(19) 0.5411(2)
O2 O 0.6865(2) 0.7367(2) 0.5615(2)
O3 O 0.4358(2) 0.4812(2) 0.6617(2)
O4 O 0.6770(2) 0.5342(2) 0.69945(19)
O5 O 0.0632(2) 0.5309(2) 0.3915(2)
O6 O -0.0876(2) 0.6291(2) 0.4651(2)
O7 O 0.2306(2) 0.6321(2) 0.6405(2)
H21 H 0.2930 0.6952 0.6915
H22 H 0.1487 0.6292 0.6521
O1A O 0.5258(3) 0.36332(19) 0.4589(2)
O2A O 0.3135(2) 0.2633(2) 0.4385(2)
O4A O 0.3230(2) 0.4658(2) 0.30055(19)
O6A O 0.0876(2) 0.3709(2) 0.5349(2)
La1A La 0.729279(16) 0.537252(14) 0.525728(14)
La1A_2 La -0.270721(16) 0.537252(14) 0.525728(14)
loop_
_geom_bond_atom_site_label_1
_geom_bond_atom_site_label_2
_geom_bond_site_symmetry_1
_geom_bond_site_symmetry_2
La1 N1 1_555 1_555
C1 C2 1_555 1_555
C2 C3 1_555 1_555
C3 C4 1_555 1_555
C4 H1 1_555 1_555
C5 C4 1_555 1_555
H2 C5 1_555 1_555
C6 C5 1_555 1_555
H3 C6 1_555 1_555
C7 C2 1_555 1_555
H4 C7 1_555 1_555
C8 C9 1_555 1_555
C9 C10 1_555 1_555
C10 C11 1_555 1_555
C11 H5 1_555 1_555
C12 C11 1_555 1_555
H6 C12 1_555 1_555
C13 C12 1_555 1_555
H7 C13 1_555 1_555
C14 C9 1_555 1_555
H8 C14 1_555 1_555
C15 C16 1_555 1_555
C16 C17 1_555 1_555
C17 C18 1_555 1_555
C18 H9 1_555 1_555
C19 C18 1_555 1_555
H10 C19 1_555 1_555
C20 C19 1_555 1_555
H11 C20 1_555 1_555
C21 C16 1_555 1_555
H12 C21 1_555 1_555
C22 H13 1_555 1_555
C23 C22 1_555 1_555
H14 C23 1_555 1_555
C24 C23 1_555 1_555
C25 C24 1_555 1_555
H15 C25 1_555 1_555
C26 C25 1_555 1_555
H16 C26 1_555 1_555
C27 H17 1_555 1_555
C28 C27 1_555 1_555
H18 C28 1_555 1_555
C29 C24 1_555 1_555
C30 C29 1_555 1_555
H19 C30 1_555 1_555
C31 C30 1_555 1_555
H20 C31 1_555 1_555
F1 C3 1_555 1_555
F2 C10 1_555 1_555
F3 C17 1_555 1_555
N1 C22 1_555 1_555
N2 C27 1_555 1_555
O1 La1 1_555 1_555
O2 C1 1_555 1_555
O3 La1 1_555 1_555
O4 C8 1_555 1_555
O5 La1 1_555 1_555
O6 C15 1_555 1_555
O7 La1 1_555 1_555
H21 O7 1_555 1_555
H22 O7 1_555 1_555
O1A La1 1_555 1_555
O2A La1 1_555 1_555
O4A La1 1_555 1_555
O6A La1 1_555 1_555
La1A O1 1_555 1_555
La1A_2 O6 1_555 1_555
C1 O1 1_555 1_555
C6 C7 1_555 1_555
C8 O3 1_555 1_555
C13 C14 1_555 1_555
C15 O5 1_555 1_555
C20 C21 1_555 1_555
C26 N1 1_555 1_555
C28 C29 1_555 1_555
C31 N2 1_555 1_555
O2 La1A 1_555 1_555
O4 La1A 1_555 1_555
O1A La1A 1_555 1_555

#END
