
#######################################################################
#
#                 Cambridge Crystallographic Data Centre
#                                CCDC 
#
#######################################################################
#
# If this CIF has been generated from an entry in the Cambridge 
# Structural Database, then it will include bibliographic, chemical, 
# crystal, experimental, refinement or atomic coordinate data resulting 
# from the CCDC's data processing and validation procedures.
#
#######################################################################

data_AROTEH
_symmetry_cell_setting           triclinic
_symmetry_space_group_name_H-M   'P -1'
_symmetry_Int_Tables_number      2
_space_group_name_Hall           '-P 1'
loop_
_symmetry_equiv_pos_site_id
_symmetry_equiv_pos_as_xyz
1 x,y,z
2 -x,-y,-z
_cell_length_a                   7.729(3)
_cell_length_b                   8.805(3)
_cell_length_c                   9.393(3)
_cell_angle_alpha                62.493(6)
_cell_angle_beta                 81.809(6)
_cell_angle_gamma                68.261(6)
_cell_volume                     526.328
loop_
_atom_site_label
_atom_site_type_symbol
_atom_site_fract_x
_atom_site_fract_y
_atom_site_fract_z
Cu1 Cu 0.66520(10) 0.59994(10) 0.34902(9)
O1 O 0.4692(5) 0.8392(6) 0.2519(5)
H1 H 0.4193 0.8611 0.1657
H2 H 0.407(7) 0.856(8) 0.321(5)
O2 O 0.8798(5) 0.3750(5) 0.4422(5)
H3 H 0.9016 0.3329 0.5388
H4 H 0.9946 0.3958 0.3973
O3 O 0.8082(5) 0.6711(5) 0.1511(4)
O4 O 0.8750(5) 0.7217(5) -0.1026(4)
O5 O 0.4257(5) 0.4375(5) 0.4381(4)
O6 O 0.2601(5) 0.2960(5) 0.4018(5)
O7 O 0.5751(5) 0.5170(5) 0.1716(4)
O8 O 0.2699(5) 0.8528(5) 0.0164(5)
H5 H 0.1791 0.8457 0.0769
O9 O 0.1704(5) 0.8324(5) -0.1939(4)
H6 H 0.0801 0.7947 -0.1680
C1 C 0.7883(7) 0.6661(7) 0.0203(7)
C2 C 0.6479(7) 0.5841(7) 0.0161(7)
C3 C 0.4936(7) 0.7121(7) -0.1243(6)
H7 H 0.5136 0.8285 -0.2016
C4 C 0.2983(7) 0.7402(7) -0.0590(6)
C5 C 0.7179(7) 0.4429(7) -0.0545(6)
H8 H 0.8447 0.4326 -0.0999
C6 C 0.4411(7) 0.4352(7) 0.1864(6)
C7 C 0.3703(7) 0.3810(7) 0.3581(7)
Cu1A Cu 0.33480(10) 0.40006(10) -0.34902(9)
Cu1A_2 Cu 0.33480(10) 0.40006(10) 0.65098(9)
Cu1_2 Cu 0.66520(10) 0.59994(10) -0.65098(9)
O1A O 0.5308(5) 0.1608(6) -0.2519(5)
H1A H 0.5807 0.1389 -0.1657
H2A H 0.593(7) 0.144(8) -0.321(5)
O2A O 0.1202(5) 0.6250(5) -0.4422(5)
H3A H 0.0984 0.6671 -0.5388
H4A H 0.0054 0.6042 -0.3973
O3A O 0.1918(5) 0.3289(5) -0.1511(4)
O4A O 0.1250(5) 0.2783(5) 0.1026(4)
O5A O 0.5743(5) 0.5625(5) -0.4381(4)
O5A_2 O 0.5743(5) 0.5625(5) 0.5619(4)
O5_2 O 0.4257(5) 0.4375(5) -0.5619(4)
O6A O 0.7399(5) 0.7040(5) -0.4018(5)
O7A O 0.4249(5) 0.4830(5) -0.1716(4)
O8A O 0.7301(5) 0.1472(5) -0.0164(5)
H5A H 0.8209 0.1543 -0.0769
O9A O 0.8296(5) 0.1676(5) 0.1939(4)
H6A H 0.9199 0.2053 0.1680
C1A C 0.2117(7) 0.3339(7) -0.0203(7)
C2A C 0.3521(7) 0.4159(7) -0.0161(7)
C3A C 0.5064(7) 0.2879(7) 0.1243(6)
H7A H 0.4864 0.1715 0.2016
C4A C 0.7017(7) 0.2598(7) 0.0590(6)
C5A C 0.2821(7) 0.5571(7) 0.0545(6)
H8A H 0.1553 0.5674 0.0999
C6A C 0.5589(7) 0.5648(7) -0.1864(6)
C7A C 0.6297(7) 0.6190(7) -0.3581(7)
O10 O 0.0104(5) 0.8096(5) 0.2424(5)
H9 H -0.0823 0.9213 0.2018
H10 H -0.0514 0.7608 0.2208
O11 O 0.2331(6) 0.9641(6) 0.4386(5)
H11 H 0.2362 1.0683 0.4231
H12 H 0.1917 0.8971 0.5250
loop_
_geom_bond_atom_site_label_1
_geom_bond_atom_site_label_2
_geom_bond_site_symmetry_1
_geom_bond_site_symmetry_2
Cu1 O1 1_555 1_555
O1 H1 1_555 1_555
H2 O1 1_555 1_555
O2 Cu1 1_555 1_555
H3 O2 1_555 1_555
H4 O2 1_555 1_555
O3 Cu1 1_555 1_555
O4 C1 1_555 1_555
O5 C7 1_555 1_555
O6 C7 1_555 1_555
O7 Cu1 1_555 1_555
O8 H5 1_555 1_555
O9 H6 1_555 1_555
C1 O3 1_555 1_555
C2 O7 1_555 1_555
C3 C2 1_555 1_555
H7 C3 1_555 1_555
C4 O8 1_555 1_555
C5 C2 1_555 1_555
H8 C5 1_555 1_555
C6 O7 1_555 1_555
C7 C6 1_555 1_555
O10 H9 1_555 1_555
H10 O10 1_555 1_555
O11 H11 1_555 1_555
H12 O11 1_555 1_555
Cu1A O1A 1_555 1_555
Cu1A_2 O5 1_555 1_555
Cu1_2 O5A 1_555 1_555
O1A H1A 1_555 1_555
H2A O1A 1_555 1_555
O2A Cu1A 1_555 1_555
H3A O2A 1_555 1_555
H4A O2A 1_555 1_555
O3A Cu1A 1_555 1_555
O4A C1A 1_555 1_555
O5A C7A 1_555 1_555
O5A_2 Cu1 1_555 1_555
O5_2 Cu1A 1_555 1_555
O6A C7A 1_555 1_555
O7A Cu1A 1_555 1_555
O8A H5A 1_555 1_555
O9A H6A 1_555 1_555
C1A O3A 1_555 1_555
C2A O7A 1_555 1_555
C3A C6 1_555 1_555
H7A C3A 1_555 1_555
C4A C5 1_555 1_555
C5A C4 1_555 1_555
H8A C5A 1_555 1_555
C6A C3 1_555 1_555
C7A C6A 1_555 1_555
O9 C4 1_555 1_555
C1 C2 1_555 1_555
C3 C4 1_555 1_555
C5 C6A 1_555 1_555
C6 C5A 1_555 1_555
O7A C6A 1_555 1_555
O8A C4A 1_555 1_555
O9A C4A 1_555 1_555
C1A C2A 1_555 1_555
C2A C3A 1_555 1_555
C2A C5A 1_555 1_555
C3A C4A 1_555 1_555

#END
