
#######################################################################
#
#                 Cambridge Crystallographic Data Centre
#                                CCDC 
#
#######################################################################
#
# If this CIF has been generated from an entry in the Cambridge 
# Structural Database, then it will include bibliographic, chemical, 
# crystal, experimental, refinement or atomic coordinate data resulting 
# from the CCDC's data processing and validation procedures.
#
#######################################################################

data_AROTAD
_symmetry_cell_setting           triclinic
_symmetry_space_group_name_H-M   'P -1'
_symmetry_Int_Tables_number      2
_space_group_name_Hall           '-P 1'
loop_
_symmetry_equiv_pos_site_id
_symmetry_equiv_pos_as_xyz
1 x,y,z
2 -x,-y,-z
_cell_length_a                   8.586(2)
_cell_length_b                   9.954(3)
_cell_length_c                   10.576(3)
_cell_angle_alpha                62.738(4)
_cell_angle_beta                 87.681(4)
_cell_angle_gamma                77.070(4)
_cell_volume                     781.094
loop_
_atom_site_label
_atom_site_type_symbol
_atom_site_fract_x
_atom_site_fract_y
_atom_site_fract_z
Cu1 Cu 0.59960(11) 0.83745(9) 0.81887(8)
O1 O 0.6193(6) 0.7398(5) 0.6728(4)
O2 O 0.5001(5) 0.5639(5) 0.8342(4)
O3 O 0.6389(5) 0.0523(5) 0.6610(4)
O4 O 0.5792(6) 0.1005(5) 0.8447(4)
O5 O 0.5799(5) 0.3962(4) 0.6906(4)
O6 O 0.8470(5) 0.5093(5) 0.3866(4)
O7 O 0.5526(6) 0.7264(5) 1.0245(4)
H1 H 0.541(8) 0.634(3) 1.064(6)
H2 H 0.526(7) 0.774(5) 1.072(5)
N1 N 0.3666(6) 0.9354(6) 0.7573(5)
C1 C 0.3112(8) 0.9702(7) 0.6260(6)
H3 H 0.3828 0.9474 0.5663
C2 C 0.1545(8) 1.0374(8) 0.5767(6)
H4 H 0.1206 1.0564 0.4864
C3 C 0.0466(9) 1.0773(7) 0.6611(7)
H5 H -0.0602 1.1247 0.6284
C4 C 0.1005(8) 1.0453(7) 0.7939(6)
H6 H 0.0302 1.0696 0.8537
C5 C 0.2618(8) 0.9758(7) 0.8393(6)
H7 H 0.2982 0.9566 0.9290
N2 N 0.8315(6) 0.7543(6) 0.8819(5)
C6 C 0.8895(9) 0.7443(8) 1.0023(7)
H8 H 0.8181 0.7763 1.0570
C7 C 1.0499(8) 0.6887(7) 1.0499(6)
H9 H 1.0854 0.6854 1.1334
C8 C 1.1556(8) 0.6384(7) 0.9708(6)
H10 H 1.2642 0.6007 0.9999
C9 C 1.0977(8) 0.6450(7) 0.8470(6)
H11 H 1.1665 0.6107 0.7921
C10 C 0.9372(8) 0.7030(7) 0.8072(6)
H12 H 0.8992 0.7072 0.7241
C11 C 0.5585(8) 0.6256(7) 0.7173(6)
C12 C 0.5378(8) 0.5617(7) 0.6107(6)
C13 C 0.6144(8) 0.6278(7) 0.4660(6)
H13 H 0.6649 0.7131 0.4492
C14 C 0.7174(8) 0.5023(7) 0.4354(6)
C15 C 0.3632(8) 0.6260(7) 0.5320(6)
H14 H 0.2977 0.7109 0.5471
C16 C 0.5593(8) 0.3177(7) 0.6127(6)
C17 C 0.5998(8) 0.1429(7) 0.7161(6)
Cu1A Cu 0.40040(11) 0.16255(9) 0.18113(8)
Cu1_2 Cu 0.59960(11) -0.16255(9) 0.81887(8)
Cu1A_2 Cu 0.40040(11) 1.16255(9) 0.18113(8)
O1A O 0.3807(6) 0.2602(5) 0.3272(4)
O2A O 0.4999(5) 0.4361(5) 0.1658(4)
O3A O 0.3611(5) 0.9477(5) 0.3390(4)
O3_2 O 0.6389(5) 1.0523(5) 0.6610(4)
O3A_2 O 0.3611(5) -0.0523(5) 0.3390(4)
O4A O 0.4208(6) 0.8995(5) 0.1553(4)
O5A O 0.4201(5) 0.6038(4) 0.3094(4)
O6A O 0.1530(5) 0.4907(5) 0.6134(4)
O7A O 0.4474(6) 0.2736(5) -0.0245(4)
H1A H 0.459(8) 0.366(3) -0.064(6)
H2A H 0.474(7) 0.226(5) -0.072(5)
N1A N 0.6334(6) 0.0646(6) 0.2427(5)
C1A C 0.6888(8) 0.0298(7) 0.3740(6)
H3A H 0.6172 0.0526 0.4337
C2A C 0.8455(8) -0.0374(8) 0.4233(6)
H4A H 0.8794 -0.0564 0.5136
C3A C 0.9534(9) -0.0773(7) 0.3389(7)
H5A H 1.0602 -0.1247 0.3716
C4A C 0.8995(8) -0.0453(7) 0.2061(6)
H6A H 0.9698 -0.0696 0.1463
C5A C 0.7382(8) 0.0242(7) 0.1607(6)
H7A H 0.7018 0.0434 0.0710
N2A N 0.1685(6) 0.2457(6) 0.1181(5)
C6A C 0.1105(9) 0.2557(8) -0.0023(7)
H8A H 0.1819 0.2237 -0.0570
C7A C -0.0499(8) 0.3113(7) -0.0499(6)
H9A H -0.0854 0.3146 -0.1334
C8A C -0.1556(8) 0.3616(7) 0.0292(6)
H10A H -0.2642 0.3993 0.0001
C9A C -0.0977(8) 0.3550(7) 0.1530(6)
H11A H -0.1665 0.3893 0.2079
C10A C 0.0628(8) 0.2970(7) 0.1928(6)
H12A H 0.1008 0.2928 0.2759
C11A C 0.4415(8) 0.3744(7) 0.2827(6)
C12A C 0.4622(8) 0.4383(7) 0.3893(6)
C13A C 0.3856(8) 0.3722(7) 0.5340(6)
H13A H 0.3351 0.2869 0.5508
C14A C 0.2826(8) 0.4977(7) 0.5646(6)
C15A C 0.6368(8) 0.3740(7) 0.4680(6)
H14A H 0.7023 0.2891 0.4529
C16A C 0.4407(8) 0.6823(7) 0.3873(6)
C17A C 0.4002(8) 0.8571(7) 0.2839(6)
loop_
_geom_bond_atom_site_label_1
_geom_bond_atom_site_label_2
_geom_bond_site_symmetry_1
_geom_bond_site_symmetry_2
Cu1 O1 1_555 1_555
O1 C11 1_555 1_555
O2 C11 1_555 1_555
O3 C17 1_555 1_555
O4 C17 1_555 1_555
O5 C12 1_555 1_555
O6 C14 1_555 1_555
O7 Cu1 1_555 1_555
H1 O7 1_555 1_555
H2 O7 1_555 1_555
N1 Cu1 1_555 1_555
C1 N1 1_555 1_555
H3 C1 1_555 1_555
C2 C1 1_555 1_555
H4 C2 1_555 1_555
C3 C2 1_555 1_555
H5 C3 1_555 1_555
C4 C3 1_555 1_555
H6 C4 1_555 1_555
C5 N1 1_555 1_555
H7 C5 1_555 1_555
N2 Cu1 1_555 1_555
C6 N2 1_555 1_555
H8 C6 1_555 1_555
C7 C6 1_555 1_555
H9 C7 1_555 1_555
C8 C7 1_555 1_555
H10 C8 1_555 1_555
C9 C8 1_555 1_555
H11 C9 1_555 1_555
C10 N2 1_555 1_555
H12 C10 1_555 1_555
C11 C12 1_555 1_555
C12 C13 1_555 1_555
C13 H13 1_555 1_555
C14 C13 1_555 1_555
C15 C12 1_555 1_555
H14 C15 1_555 1_555
C16 O5 1_555 1_555
C17 C16 1_555 1_555
Cu1A O1A 1_555 1_555
Cu1_2 O3 1_555 1_555
Cu1A_2 O3A 1_555 1_555
O1A C11A 1_555 1_555
O2A C11A 1_555 1_555
O3A C17A 1_555 1_555
O3_2 Cu1 1_555 1_555
O3A_2 Cu1A 1_555 1_555
O4A C17A 1_555 1_555
O5A C12A 1_555 1_555
O6A C14A 1_555 1_555
O7A Cu1A 1_555 1_555
H1A O7A 1_555 1_555
H2A O7A 1_555 1_555
N1A Cu1A 1_555 1_555
C1A N1A 1_555 1_555
H3A C1A 1_555 1_555
C2A C1A 1_555 1_555
H4A C2A 1_555 1_555
C3A C2A 1_555 1_555
H5A C3A 1_555 1_555
C4A C3A 1_555 1_555
H6A C4A 1_555 1_555
C5A N1A 1_555 1_555
H7A C5A 1_555 1_555
N2A Cu1A 1_555 1_555
C6A N2A 1_555 1_555
H8A C6A 1_555 1_555
C7A C6A 1_555 1_555
H9A C7A 1_555 1_555
C8A C7A 1_555 1_555
H10A C8A 1_555 1_555
C9A C8A 1_555 1_555
H11A C9A 1_555 1_555
C10A N2A 1_555 1_555
H12A C10A 1_555 1_555
C11A C12A 1_555 1_555
C12A C13A 1_555 1_555
C13A C16 1_555 1_555
H13A C13A 1_555 1_555
C14A C15 1_555 1_555
C15A C14 1_555 1_555
H14A C15A 1_555 1_555
C16A C13 1_555 1_555
C17A C16A 1_555 1_555
C4 C5 1_555 1_555
C9 C10 1_555 1_555
C15 C16A 1_555 1_555
C16 C15A 1_555 1_555
O5A C16A 1_555 1_555
C4A C5A 1_555 1_555
C9A C10A 1_555 1_555
C12A C15A 1_555 1_555
C13A C14A 1_555 1_555

#END
