
#######################################################################
#
#                 Cambridge Crystallographic Data Centre
#                                CCDC 
#
#######################################################################
#
# If this CIF has been generated from an entry in the Cambridge 
# Structural Database, then it will include bibliographic, chemical, 
# crystal, experimental, refinement or atomic coordinate data resulting 
# from the CCDC's data processing and validation procedures.
#
#######################################################################

data_AROTOQ
_symmetry_cell_setting           monoclinic
_symmetry_space_group_name_H-M   'P 21/n'
_symmetry_Int_Tables_number      14
_space_group_name_Hall           '-P 2yn'
loop_
_symmetry_equiv_pos_site_id
_symmetry_equiv_pos_as_xyz
1 x,y,z
2 1/2+x,1/2-y,1/2+z
3 -x,-y,-z
4 1/2-x,1/2+y,1/2-z
_cell_length_a                   8.203(3)
_cell_length_b                   11.566(4)
_cell_length_c                   14.534(4)
_cell_angle_alpha                90
_cell_angle_beta                 91.025(3)
_cell_angle_gamma                90
_cell_volume                     1378.71
loop_
_atom_site_label
_atom_site_type_symbol
_atom_site_fract_x
_atom_site_fract_y
_atom_site_fract_z
Na1 Na 0.55261(5) 0.14119(3) 0.33996(2)
C1 C 0.39454(11) 0.32400(8) 0.48549(6)
O1 O 0.46065(10) 0.27266(6) 0.55778(5)
O2 O 0.40319(10) 0.28866(6) 0.40661(5)
H1 H 0.510(2) 0.2133(17) 0.5398(13)
C2 C 0.07506(11) 0.66165(7) 0.37724(6)
O3 O -0.01529(9) 0.75239(6) 0.40050(5)
O4 O 0.08903(9) 0.62891(6) 0.29822(4)
H2 H -0.068(2) 0.7691(17) 0.3526(14)
S1 S 0.18594(3) 0.617774(17) 0.733274(13)
O5 O 0.22703(8) 0.51866(6) 0.79203(4)
O6 O 0.01749(8) 0.65548(6) 0.74123(4)
O7 O 0.30261(8) 0.71288(6) 0.74595(4)
C3 C 0.30668(10) 0.43329(7) 0.50831(6)
C4 C 0.23757(11) 0.49797(7) 0.43693(6)
C5 C 0.15327(10) 0.59977(7) 0.45642(6)
C6 C 0.13727(11) 0.63710(7) 0.54707(6)
C7 C 0.20716(10) 0.57076(7) 0.61796(5)
C8 C 0.29193(10) 0.46957(7) 0.59950(6)
H3 H 0.2439(17) 0.4719(12) 0.3780(10)
H4 H 0.0806(17) 0.7070(13) 0.5596(10)
H5 H 0.3388(17) 0.4226(13) 0.6488(10)
C9 C 0.70458(10) 0.03210(7) 0.54052(6)
O8 O 0.62541(9) 0.10516(6) 0.49343(5)
N1 N 0.80422(10) -0.04331(7) 0.49985(6)
H6 H 0.8118(19) -0.0418(15) 0.4408(12)
H7 H 0.8620(19) -0.0933(14) 0.5309(11)
N2 N 0.68951(11) 0.02366(8) 0.63262(5)
H8 H 0.6409(19) 0.0710(14) 0.6591(11)
H9 H 0.7551(17) -0.0164(12) 0.6624(10)
O4C O 0.41097(9) 0.12891(6) 0.20178(4)
O5A O 0.72703(8) -0.01866(6) 0.29203(4)
O7B O 0.69739(8) 0.28712(6) 0.25405(4)
N2B N 0.31049(11) -0.02366(8) 0.36738(5)
Na1C Na -0.05261(5) 0.64119(3) 0.16004(2)
Na1A Na 0.05261(5) 0.35881(3) 0.83996(2)
Na1B Na 0.44739(5) 0.85881(3) 0.66004(2)
Na1B_2 Na 0.44739(5) -0.14119(3) 0.66004(2)
H8B H 0.3591(19) -0.0710(14) 0.3409(11)
H9B H 0.2449(17) 0.0164(12) 0.3376(10)
O9 O 0.52632(10) 0.38305(7) 0.82537(6)
H10 H 0.525(2) 0.3183(18) 0.7982(13)
H11 H 0.446(2) 0.4165(17) 0.8107(14)
loop_
_geom_bond_atom_site_label_1
_geom_bond_atom_site_label_2
_geom_bond_site_symmetry_1
_geom_bond_site_symmetry_2
Na1 O2 1_555 1_555
C1 O1 1_555 1_555
O1 H1 1_555 1_555
O2 C1 1_555 1_555
C2 O3 1_555 1_555
O3 H2 1_555 1_555
O4 C2 1_555 1_555
S1 O5 1_555 1_555
O5 Na1A 1_555 1_555
O6 S1 1_555 1_555
O7 S1 1_555 1_555
C3 C1 1_555 1_555
C4 C3 1_555 1_555
C5 C2 1_555 1_555
C6 C5 1_555 1_555
C7 S1 1_555 1_555
C8 C3 1_555 1_555
H3 C4 1_555 1_555
H4 C6 1_555 1_555
H5 C8 1_555 1_555
C9 O8 1_555 1_555
O8 Na1 1_555 1_555
N1 C9 1_555 1_555
H6 N1 1_555 1_555
H7 N1 1_555 1_555
N2 C9 1_555 1_555
H8 N2 1_555 1_555
H9 N2 1_555 1_555
O9 H10 1_555 1_555
H11 O9 1_555 1_555
O4C Na1 1_555 1_555
O5A Na1 1_555 1_555
O7B Na1 1_555 1_555
N2B Na1 1_555 1_555
Na1C O4 1_555 1_555
Na1B O7 1_555 1_555
Na1B_2 N2 1_555 1_555
H8B N2B 1_555 1_555
H9B N2B 1_555 1_555
C4 C5 1_555 1_555
C6 C7 1_555 1_555
C7 C8 1_555 1_555

#END
