
#######################################################################
#
#                 Cambridge Crystallographic Data Centre
#                                CCDC 
#
#######################################################################
#
# If this CIF has been generated from an entry in the Cambridge 
# Structural Database, then it will include bibliographic, chemical, 
# crystal, experimental, refinement or atomic coordinate data resulting 
# from the CCDC's data processing and validation procedures.
#
#######################################################################

data_AROTIK
_symmetry_cell_setting           triclinic
_symmetry_space_group_name_H-M   'P -1'
_symmetry_Int_Tables_number      2
_space_group_name_Hall           '-P 1'
loop_
_symmetry_equiv_pos_site_id
_symmetry_equiv_pos_as_xyz
1 x,y,z
2 -x,-y,-z
_cell_length_a                   9.6876(9)
_cell_length_b                   10.2079(10)
_cell_length_c                   11.3561(11)
_cell_angle_alpha                86.8080(10)
_cell_angle_beta                 72.1410(10)
_cell_angle_gamma                64.9280(10)
_cell_volume                     964.577
loop_
_atom_site_label
_atom_site_type_symbol
_atom_site_fract_x
_atom_site_fract_y
_atom_site_fract_z
Co1 Co 0.03047(3) 0.64435(2) 0.26583(2)
O1 O -0.15217(15) 0.58018(14) 0.36161(11)
O2 O -0.24254(18) 0.55106(18) 0.21105(12)
H1 H -0.1881 0.5914 0.1709
O3 O -0.31281(14) 0.65972(13) 0.65043(12)
O4 O -0.15180(14) 0.42311(13) 0.59928(11)
O5 O -0.07601(15) 0.68519(13) 0.12147(11)
O6 O -0.19525(18) 0.76792(14) -0.02205(12)
O7 O -0.37471(16) 0.99264(15) 0.20818(14)
O8 O -0.38653(17) 1.21410(15) 0.21772(15)
H2 H -0.4760 1.2329 0.2666
O9 O 0.18396(17) 0.44222(14) 0.16821(13)
H3 H 0.2270 0.3861 0.2142
N1 N -0.10232(18) 0.85251(15) 0.36087(13)
N2 N 0.19074(17) 0.73961(16) 0.19143(13)
C1 C -0.2458(2) 0.9054(2) 0.44578(18)
H4 H -0.3007 0.8474 0.4663
C2 C -0.3181(3) 1.0449(2) 0.5059(2)
H5 H -0.4195 1.0788 0.5647
C3 C -0.2382(3) 1.1305(2) 0.4771(2)
H6 H -0.2855 1.2238 0.5160
C4 C -0.0847(3) 1.0783(2) 0.38913(18)
C5 C 0.0121(3) 1.1573(2) 0.3574(2)
H7 H -0.0288 1.2509 0.3942
C6 C 0.1603(3) 1.0987(2) 0.2760(2)
H8 H 0.2206 1.1522 0.2581
C7 C 0.2283(3) 0.9555(2) 0.21557(18)
C8 C 0.3838(3) 0.8874(3) 0.1315(2)
H9 H 0.4494 0.9358 0.1105
C9 C 0.4380(3) 0.7500(3) 0.0809(2)
H10 H 0.5414 0.7034 0.0260
C10 C 0.3374(2) 0.6799(2) 0.11196(18)
H11 H 0.3752 0.5869 0.0752
C11 C 0.1359(2) 0.87599(19) 0.24367(16)
C12 C -0.0216(2) 0.93725(18) 0.33264(16)
C13 C -0.2456(2) 0.55366(18) 0.32534(16)
C14 C -0.37430(19) 0.52296(17) 0.41623(15)
C15 C -0.38829(19) 0.52132(17) 0.54273(15)
C16 C -0.4860(2) 0.50171(17) 0.37586(15)
H12 H -0.4759 0.5030 0.2917
C17 C -0.27171(19) 0.53728(17) 0.59906(14)
C18 C -0.1196(2) 0.77691(17) 0.04299(15)
C19 C -0.0615(2) 0.89547(17) 0.02549(15)
C20 C 0.0892(2) 0.86184(18) -0.05910(15)
H13 H 0.1498 0.7689 -0.0993
C21 C -0.1519(2) 1.03543(18) 0.08526(15)
C22 C -0.3159(2) 1.07642(19) 0.17620(16)
H14 H 0.171(3) 0.393(2) 0.1223(18)
C16A C -0.5140(2) 0.49829(17) 0.62414(15)
C14A C -0.62570(19) 0.47704(17) 0.58377(15)
C13A C -0.7544(2) 0.44634(18) 0.67466(16)
O1A O -0.84783(15) 0.41982(14) 0.63839(11)
O2A O -0.75746(18) 0.44894(18) 0.78895(12)
H1A H -0.8119 0.4086 0.8291
C15A C -0.61171(19) 0.47868(17) 0.45727(15)
C17A C -0.72829(19) 0.46272(17) 0.40094(14)
O3A O -0.68719(14) 0.34028(13) 0.34957(12)
O4A O -0.84820(14) 0.57689(13) 0.40072(11)
H12A H -0.5241 0.4970 0.7083
C21A C 0.1519(2) 0.96457(18) -0.08526(15)
C19A C 0.0615(2) 1.10453(17) -0.02549(15)
C18A C 0.1196(2) 1.22309(17) -0.04299(15)
O5A O 0.07601(15) 1.31481(13) -0.12147(11)
O6A O 0.19525(18) 1.23208(14) 0.02205(12)
C20A C -0.0892(2) 1.13816(18) 0.05910(15)
H13A H -0.1498 1.2311 0.0993
C22A C 0.3159(2) 0.92358(19) -0.17620(16)
O7A O 0.37471(16) 1.00736(15) -0.20818(14)
O8A O 0.38653(17) 0.78590(15) -0.21772(15)
H2A H 0.4760 0.7671 -0.2666
Co1A Co -1.03047(3) 0.35565(2) 0.73417(2)
O9A O -1.18396(17) 0.55778(14) 0.83179(13)
H3A H -1.2270 0.6139 0.7858
H14A H -1.171(3) 0.607(2) 0.8777(18)
N1A N -0.89768(18) 0.14749(15) 0.63913(13)
N2A N -1.19074(17) 0.26039(16) 0.80857(13)
C1A C -0.7542(2) 0.0946(2) 0.55422(18)
H4A H -0.6993 0.1526 0.5337
C2A C -0.6819(3) -0.0449(2) 0.4941(2)
H5A H -0.5805 -0.0788 0.4353
C3A C -0.7618(3) -0.1305(2) 0.5229(2)
H6A H -0.7145 -0.2238 0.4840
C4A C -0.9153(3) -0.0783(2) 0.61087(18)
C5A C -1.0121(3) -0.1573(2) 0.6426(2)
H7A H -0.9712 -0.2509 0.6058
C6A C -1.1603(3) -0.0987(2) 0.7240(2)
H8A H -1.2206 -0.1522 0.7419
C7A C -1.2283(3) 0.0445(2) 0.78443(18)
C8A C -1.3838(3) 0.1126(3) 0.8685(2)
H9A H -1.4494 0.0642 0.8895
C9A C -1.4380(3) 0.2500(3) 0.9191(2)
H10A H -1.5414 0.2966 0.9740
C10A C -1.3374(2) 0.3201(2) 0.88804(18)
H11A H -1.3752 0.4131 0.9248
C11A C -1.1359(2) 0.12401(19) 0.75633(16)
C12A C -0.9784(2) 0.06275(18) 0.66736(16)
O4A_2 O 0.15180(14) 0.57689(13) 0.40072(11)
Co1A_2 Co -0.03047(3) 0.35565(2) 0.73417(2)
Co1_2 Co -0.96953(3) 0.64435(2) 0.26583(2)
Co1A_3 Co -0.03047(3) 1.35565(2) -0.26583(2)
O4_2 O -1.15180(14) 0.42311(13) 0.59928(11)
O5A_2 O -0.92399(15) 0.31481(13) 0.87853(11)
loop_
_geom_bond_atom_site_label_1
_geom_bond_atom_site_label_2
_geom_bond_site_symmetry_1
_geom_bond_site_symmetry_2
Co1 O1 1_555 1_555
O1 C13 1_555 1_555
O2 H1 1_555 1_555
O3 C17 1_555 1_555
O4 C17 1_555 1_555
O5 Co1 1_555 1_555
O6 C18 1_555 1_555
O7 C22 1_555 1_555
O8 H2 1_555 1_555
O9 Co1 1_555 1_555
H3 O9 1_555 1_555
N1 Co1 1_555 1_555
N2 Co1 1_555 1_555
C1 N1 1_555 1_555
H4 C1 1_555 1_555
C2 C1 1_555 1_555
H5 C2 1_555 1_555
C3 C2 1_555 1_555
H6 C3 1_555 1_555
C4 C3 1_555 1_555
C5 C4 1_555 1_555
H7 C5 1_555 1_555
C6 C5 1_555 1_555
H8 C6 1_555 1_555
C7 C6 1_555 1_555
C8 C7 1_555 1_555
H9 C8 1_555 1_555
C9 C8 1_555 1_555
H10 C9 1_555 1_555
C10 N2 1_555 1_555
H11 C10 1_555 1_555
C11 N2 1_555 1_555
C12 N1 1_555 1_555
C13 O2 1_555 1_555
C14 C13 1_555 1_555
C15 C14 1_555 1_555
C16 C14 1_555 1_555
H12 C16 1_555 1_555
C17 C15 1_555 1_555
C18 O5 1_555 1_555
C19 C18 1_555 1_555
C20 C19 1_555 1_555
H13 C20 1_555 1_555
C21 C19 1_555 1_555
C22 O8 1_555 1_555
H14 O9 1_555 1_555
C16A C15 1_555 1_555
C14A C16A 1_555 1_555
C13A C14A 1_555 1_555
O1A C13A 1_555 1_555
O2A C13A 1_555 1_555
H1A O2A 1_555 1_555
C15A C16 1_555 1_555
C17A C15A 1_555 1_555
O3A C17A 1_555 1_555
O4A C17A 1_555 1_555
H12A C16A 1_555 1_555
C21A C20 1_555 1_555
C19A C21A 1_555 1_555
C18A C19A 1_555 1_555
O5A C18A 1_555 1_555
O6A C18A 1_555 1_555
C20A C21 1_555 1_555
H13A C20A 1_555 1_555
C22A C21A 1_555 1_555
O7A C22A 1_555 1_555
O8A C22A 1_555 1_555
H2A O8A 1_555 1_555
Co1A O1A 1_555 1_555
O9A Co1A 1_555 1_555
H3A O9A 1_555 1_555
H14A O9A 1_555 1_555
N1A Co1A 1_555 1_555
N2A Co1A 1_555 1_555
C1A N1A 1_555 1_555
H4A C1A 1_555 1_555
C2A C1A 1_555 1_555
H5A C2A 1_555 1_555
C3A C2A 1_555 1_555
H6A C3A 1_555 1_555
C4A C3A 1_555 1_555
C5A C4A 1_555 1_555
H7A C5A 1_555 1_555
C6A C5A 1_555 1_555
H8A C6A 1_555 1_555
C7A C6A 1_555 1_555
C8A C7A 1_555 1_555
H9A C8A 1_555 1_555
C9A C8A 1_555 1_555
H10A C9A 1_555 1_555
C10A N2A 1_555 1_555
H11A C10A 1_555 1_555
C11A N2A 1_555 1_555
C12A N1A 1_555 1_555
O4A_2 Co1 1_555 1_555
Co1A_2 O4 1_555 1_555
Co1_2 O4A 1_555 1_555
Co1A_3 O5A 1_555 1_555
O4_2 Co1A 1_555 1_555
O5A_2 Co1A 1_555 1_555
C4 C12 1_555 1_555
C7 C11 1_555 1_555
C9 C10 1_555 1_555
C11 C12 1_555 1_555
C21 C22 1_555 1_555
C14A C15A 1_555 1_555
C19A C20A 1_555 1_555
C4A C12A 1_555 1_555
C7A C11A 1_555 1_555
C9A C10A 1_555 1_555
C11A C12A 1_555 1_555

#END
