
#######################################################################
#
#                 Cambridge Crystallographic Data Centre
#                                CCDC 
#
#######################################################################
#
# If this CIF has been generated from an entry in the Cambridge 
# Structural Database, then it will include bibliographic, chemical, 
# crystal, experimental, refinement or atomic coordinate data resulting 
# from the CCDC's data processing and validation procedures.
#
#######################################################################

data_AROVUY
_symmetry_cell_setting           monoclinic
_symmetry_space_group_name_H-M   'C 2/m'
_symmetry_Int_Tables_number      12
_space_group_name_Hall           '-C 2y'
loop_
_symmetry_equiv_pos_site_id
_symmetry_equiv_pos_as_xyz
1 x,y,z
2 1/2+x,1/2+y,z
3 x,-y,z
4 1/2+x,1/2-y,z
5 -x,-y,-z
6 1/2-x,1/2-y,-z
7 -x,y,-z
8 1/2-x,1/2+y,-z
_cell_length_a                   6.6390(10)
_cell_length_b                   7.3130(10)
_cell_length_c                   10.078(2)
_cell_angle_alpha                90
_cell_angle_beta                 92.46(3)
_cell_angle_gamma                90
_cell_volume                     488.846
loop_
_atom_site_label
_atom_site_type_symbol
_atom_site_fract_x
_atom_site_fract_y
_atom_site_fract_z
Rb1 Rb 0.0000 0.5000 0.5000
Cr1 Cr 0.5000 0.5000 0.0000
O1 O 0.43538(15) 0.32232(13) 0.13719(10)
O2 O 0.2128(2) 0.5000 -0.06230(18)
O3 O 0.31678(19) 0.30771(17) 0.34099(12)
C1 C 0.3731(2) 0.3934(2) 0.24689(14)
H1 H 0.165(4) 0.415(3) -0.102(2)
C1B C 0.3731(2) 0.6066(2) 0.24689(14)
O1B O 0.43538(15) 0.67768(13) 0.13719(10)
O3B O 0.31678(19) 0.69229(17) 0.34099(12)
H1B H 0.165(4) 0.585(3) -0.102(2)
O3A O -0.18322(19) 0.80771(17) 0.34099(12)
O2D O 0.7872(2) 0.5000 0.06230(18)
H1D H 0.835(4) 0.585(3) 0.102(2)
H1F H 0.835(4) 0.415(3) 0.102(2)
O3C O -0.18322(19) 0.19229(17) 0.34099(12)
O3D O -0.31678(19) 0.69229(17) 0.65901(12)
O3E O 0.18322(19) 0.19229(17) 0.65901(12)
O3F O -0.31678(19) 0.30771(17) 0.65901(12)
O3G O 0.18322(19) 0.80771(17) 0.65901(12)
O1D O 0.56462(15) 0.67768(13) -0.13719(10)
O1F O 0.56462(15) 0.32232(13) -0.13719(10)
Rb1A Rb 0.5000 0.0000 0.5000
Rb1A_2 Rb 0.5000 1.0000 0.5000
Rb1A_3 Rb -0.5000 1.0000 0.5000
C1D C 0.6269(2) 0.6066(2) -0.24689(14)
C1F C 0.6269(2) 0.3934(2) -0.24689(14)
O3D_2 O 0.68322(19) 0.69229(17) -0.34099(12)
O3F_2 O 0.68322(19) 0.30771(17) -0.34099(12)
Rb1_2 Rb 1.0000 0.5000 -0.5000
Rb1A_4 Rb 0.5000 1.0000 -0.5000
Rb1A_5 Rb 0.5000 0.0000 -0.5000
loop_
_geom_bond_atom_site_label_1
_geom_bond_atom_site_label_2
_geom_bond_site_symmetry_1
_geom_bond_site_symmetry_2
Rb1 O3 1_555 1_555
Cr1 O1 1_555 1_555
O1 C1 1_555 1_555
O2 Cr1 1_555 1_555
O3 C1 1_555 1_555
C1 C1B 1_555 1_555
H1 O2 1_555 1_555
C1B O1B 1_555 1_555
O1B Cr1 1_555 1_555
O3B Rb1 1_555 1_555
H1B O2 1_555 1_555
O3A Rb1 1_555 1_555
O2D Cr1 1_555 1_555
H1D O2D 1_555 1_555
H1F O2D 1_555 1_555
O3C Rb1 1_555 1_555
O3D Rb1 1_555 1_555
O3E Rb1 1_555 1_555
O3F Rb1 1_555 1_555
O3G Rb1 1_555 1_555
O1D Cr1 1_555 1_555
O1F Cr1 1_555 1_555
Rb1A O3 1_555 1_555
Rb1A_2 O3B 1_555 1_555
Rb1A_3 O3A 1_555 1_555
C1D O1D 1_555 1_555
C1F O1F 1_555 1_555
O3D_2 C1D 1_555 1_555
O3F_2 C1F 1_555 1_555
Rb1_2 O3D_2 1_555 1_555
Rb1A_4 O3D_2 1_555 1_555
Rb1A_5 O3F_2 1_555 1_555
C1B O3B 1_555 1_555
O3D Rb1A_3 1_555 1_555
O3E Rb1A 1_555 1_555
O3G Rb1A_2 1_555 1_555
C1D C1F 1_555 1_555
O3F_2 Rb1_2 1_555 1_555

#END
