
#######################################################################
#
#                 Cambridge Crystallographic Data Centre
#                                CCDC 
#
#######################################################################
#
# If this CIF has been generated from an entry in the Cambridge 
# Structural Database, then it will include bibliographic, chemical, 
# crystal, experimental, refinement or atomic coordinate data resulting 
# from the CCDC's data processing and validation procedures.
#
#######################################################################

data_AROVAE
_symmetry_cell_setting           monoclinic
_symmetry_space_group_name_H-M   'P 21/n'
_symmetry_Int_Tables_number      14
_space_group_name_Hall           '-P 2yn'
loop_
_symmetry_equiv_pos_site_id
_symmetry_equiv_pos_as_xyz
1 x,y,z
2 1/2+x,1/2-y,1/2+z
3 -x,-y,-z
4 1/2-x,1/2+y,1/2-z
_cell_length_a                   11.438(2)
_cell_length_b                   13.869(2)
_cell_length_c                   15.635(5)
_cell_angle_alpha                90
_cell_angle_beta                 109.75(5)
_cell_angle_gamma                90
_cell_volume                     2334.34
loop_
_atom_site_label
_atom_site_type_symbol
_atom_site_fract_x
_atom_site_fract_y
_atom_site_fract_z
La1 La 0.502367(19) 0.096640(14) 0.376054(13)
La2 La 0.414130(18) 0.073356(14) 0.093689(13)
O1 O 0.3336(2) 0.14670(17) 0.22744(16)
O2 O 0.1954(3) 0.0847(2) 0.10603(18)
O3 O 0.0475(2) 0.46346(18) 0.25785(16)
O4 O 0.1671(2) 0.46164(19) 0.17371(16)
O5 O 0.5801(2) 0.13429(19) 0.23289(16)
O6 O 0.7200(3) 0.0927(2) 0.36284(17)
O7 O 0.5877(2) -0.03185(18) 0.08395(15)
O8 O 0.7371(2) -0.1204(2) 0.06663(16)
O9 O 0.9565(2) -0.30718(18) 0.46603(17)
O10 O 1.1027(2) -0.24083(18) 0.42414(17)
O11 O 0.5793(3) -0.05591(19) 0.46729(19)
O12 O 0.6564(3) -0.1714(2) 0.56491(18)
O13 O 0.5378(3) 0.27863(19) 0.37020(18)
H1 H 0.6100 0.3010 0.3860
H2 H 0.4960 0.3080 0.3950
O14 O 0.6629(3) 0.1498(2) 0.52531(17)
H3 H 0.7350 0.1730 0.5330
H4 H 0.6660 0.1180 0.5710
O15 O 0.3045(3) -0.08366(19) 0.0332(2)
H5 H 0.3450 -0.1220 0.0160
H6 H 0.2330 -0.0970 0.0270
C1 C 0.2219(3) 0.1236(2) 0.1831(2)
C2 C 0.1200(3) 0.1435(3) 0.2214(3)
H9 H 0.1507 0.1316 0.2863
H10 H 0.0513 0.0998 0.1940
C3 C 0.0737(4) 0.2476(3) 0.2036(3)
H11 H 0.0557 0.2625 0.1399
H12 H -0.0031 0.2537 0.2167
C4 C 0.1675(5) 0.3205(3) 0.2610(3)
H13 H 0.1751 0.3135 0.3244
H14 H 0.2482 0.3084 0.2556
C5 C 0.1268(4) 0.4205(3) 0.2301(2)
C6 C 0.6912(4) 0.1111(3) 0.2795(2)
C7 C 0.7881(4) 0.1018(3) 0.2349(3)
H15 H 0.8523 0.1497 0.2599
H16 H 0.7504 0.1142 0.1703
C8 C 0.8458(4) 0.0027(3) 0.2488(3)
H17 H 0.8933 -0.0053 0.3128
H18 H 0.9036 -0.0012 0.2155
C9 C 0.7531(4) -0.0806(3) 0.2186(2)
H19 H 0.7966 -0.1414 0.2359
H20 H 0.6922 -0.0757 0.2490
C10 C 0.6881(3) -0.0787(2) 0.1174(2)
C11 C 1.0180(3) -0.2342(2) 0.4588(2)
C12 C 0.9956(3) -0.1382(3) 0.4940(3)
H21 H 0.9794 -0.0918 0.4450
H22 H 1.0715 -0.1185 0.5413
C13 C 0.8902(3) -0.1327(3) 0.5322(2)
H23 H 0.8981 -0.0732 0.5663
H24 H 0.8982 -0.1858 0.5741
C14 C 0.7610(3) -0.1363(3) 0.4600(2)
H25 H 0.7554 -0.0875 0.4144
H26 H 0.7492 -0.1987 0.4303
C15 C 0.6597(3) -0.1201(3) 0.4989(2)
O3C O 0.4525(2) -0.03654(18) 0.24215(16)
O4C O 0.3329(2) -0.03836(19) 0.32629(16)
O12B O 0.3436(3) 0.1714(2) 0.43509(18)
O7B O 0.4123(2) 0.03185(18) -0.08395(15)
O8B O 0.2629(2) 0.1204(2) -0.06663(16)
O9C O 0.5435(2) 0.19282(18) 0.03397(17)
O10C O 0.3973(2) 0.25917(18) 0.07586(17)
La1C La -0.002367(19) 0.596640(14) 0.123946(13)
La2C La 0.085870(18) 0.573356(14) 0.406311(13)
La2B La 0.585870(18) -0.073356(14) -0.093689(13)
La2C_2 La 1.085870(18) -0.426644(14) 0.406311(13)
La1B La 0.497633(19) -0.096640(14) 0.623946(13)
O16 O 0.4171(4) 0.3866(3) 0.2172(3)
O17 O 0.0603(4) -0.1144(4) 0.0060(3)
H7 H -0.0130 -0.1130 -0.0370
H8 H 0.0590 -0.0720 0.0440
loop_
_geom_bond_atom_site_label_1
_geom_bond_atom_site_label_2
_geom_bond_site_symmetry_1
_geom_bond_site_symmetry_2
La1 O1 1_555 1_555
La2 O1 1_555 1_555
O1 C1 1_555 1_555
O2 La2 1_555 1_555
O3 C5 1_555 1_555
O4 C5 1_555 1_555
O5 La1 1_555 1_555
O6 La1 1_555 1_555
O7 La2 1_555 1_555
O8 C10 1_555 1_555
O9 C11 1_555 1_555
O10 C11 1_555 1_555
O11 La1 1_555 1_555
O12 C15 1_555 1_555
O13 La1 1_555 1_555
H1 O13 1_555 1_555
H2 O13 1_555 1_555
O14 La1 1_555 1_555
H3 O14 1_555 1_555
H4 O14 1_555 1_555
O15 La2 1_555 1_555
H5 O15 1_555 1_555
H6 O15 1_555 1_555
O17 H7 1_555 1_555
H8 O17 1_555 1_555
C1 O2 1_555 1_555
C2 C1 1_555 1_555
H9 C2 1_555 1_555
H10 C2 1_555 1_555
C3 C2 1_555 1_555
H11 C3 1_555 1_555
H12 C3 1_555 1_555
C4 C3 1_555 1_555
H13 C4 1_555 1_555
H14 C4 1_555 1_555
C5 C4 1_555 1_555
C6 O5 1_555 1_555
C7 C6 1_555 1_555
H15 C7 1_555 1_555
H16 C7 1_555 1_555
C8 C7 1_555 1_555
H17 C8 1_555 1_555
H18 C8 1_555 1_555
C9 C8 1_555 1_555
H19 C9 1_555 1_555
H20 C9 1_555 1_555
C10 O7 1_555 1_555
C11 C12 1_555 1_555
C12 H21 1_555 1_555
H22 C12 1_555 1_555
C13 C12 1_555 1_555
H23 C13 1_555 1_555
H24 C13 1_555 1_555
C14 C13 1_555 1_555
H25 C14 1_555 1_555
H26 C14 1_555 1_555
C15 O11 1_555 1_555
O3C La1 1_555 1_555
O4C La1 1_555 1_555
O12B La1 1_555 1_555
O7B La2 1_555 1_555
O8B La2 1_555 1_555
O9C La2 1_555 1_555
O10C La2 1_555 1_555
La1C O3 1_555 1_555
La2C O3 1_555 1_555
La2B O7 1_555 1_555
La2C_2 O9 1_555 1_555
La1B O12 1_555 1_555
La2 O5 1_555 1_555
La2 O3C 1_555 1_555
O4 La1C 1_555 1_555
O6 C6 1_555 1_555
O8 La2B 1_555 1_555
O10 La2C_2 1_555 1_555
C9 C10 1_555 1_555
C14 C15 1_555 1_555
O7B La2B 1_555 1_555

#END
