
#######################################################################
#
#                 Cambridge Crystallographic Data Centre
#                                CCDC 
#
#######################################################################
#
# If this CIF has been generated from an entry in the Cambridge 
# Structural Database, then it will include bibliographic, chemical, 
# crystal, experimental, refinement or atomic coordinate data resulting 
# from the CCDC's data processing and validation procedures.
#
#######################################################################

data_AROWAF
_symmetry_cell_setting           monoclinic
_symmetry_space_group_name_H-M   'C 2/c'
_symmetry_Int_Tables_number      15
_space_group_name_Hall           '-C 2yn'
loop_
_symmetry_equiv_pos_site_id
_symmetry_equiv_pos_as_xyz
1 x,y,z
2 1/2+x,1/2+y,z
3 x,-y,1/2+z
4 1/2+x,1/2-y,1/2+z
5 -x,-y,-z
6 1/2-x,1/2-y,-z
7 -x,y,1/2-z
8 1/2-x,1/2+y,1/2-z
_cell_length_a                   17.045(3)
_cell_length_b                   7.3680(10)
_cell_length_c                   13.588(3)
_cell_angle_alpha                90
_cell_angle_beta                 128.61(3)
_cell_angle_gamma                90
_cell_volume                     1333.47
loop_
_atom_site_label
_atom_site_type_symbol
_atom_site_fract_x
_atom_site_fract_y
_atom_site_fract_z
Cs1 Cs 0.152820(10) 0.683360(18) 0.607430(12)
Mg1 Mg 0.0000 0.33317(11) 0.2500
C1 C 0.12842(14) 0.1839(3) 0.49764(18)
C2 C 0.15869(13) 0.0878(2) 0.42361(18)
O1 O 0.06078(11) 0.30331(18) 0.43747(13)
O2 O 0.17076(12) 0.1346(3) 0.60756(14)
O3 O 0.22516(12) -0.0283(2) 0.47684(15)
O4 O 0.10857(11) 0.13669(19) 0.30969(13)
O5 O 0.09999(13) 0.5245(2) 0.28078(17)
O6 O -0.03594(13) 0.8385(2) 0.34742(16)
H1 H 0.083(3) 0.628(5) 0.252(3)
H2 H 0.153(3) 0.529(5) 0.347(3)
H3 H -0.077(2) 0.839(4) 0.363(3)
H4 H -0.053(2) 0.917(4) 0.304(3)
C1F C -0.12842(14) 0.1839(3) 0.00236(18)
C2F C -0.15869(13) 0.0878(2) 0.07639(18)
O1F O -0.06078(11) 0.30331(18) 0.06253(13)
O2F O -0.17076(12) 0.1346(3) -0.10756(14)
O3F O -0.22516(12) -0.0283(2) 0.02316(15)
O4F O -0.10857(11) 0.13669(19) 0.19031(13)
O5F O -0.09999(13) 0.5245(2) 0.21922(17)
H1F H -0.083(3) 0.628(5) 0.248(3)
H2F H -0.153(3) 0.529(5) 0.153(3)
Cs1F Cs -0.152820(10) 0.683360(18) -0.107430(12)
O6F O 0.03594(13) 0.8385(2) 0.15258(16)
H3F H 0.077(2) 0.839(4) 0.137(3)
H4F H 0.053(2) 0.917(4) 0.196(3)
Cs1G Cs 0.347180(10) 0.183360(18) 0.892570(12)
O1D O -0.06078(11) 0.69669(18) 0.56253(13)
O2_2 O 0.17076(12) 1.1346(3) 0.60756(14)
O2G O 0.32924(12) 0.6346(3) 0.89244(14)
O3_2 O 0.22516(12) 0.9717(2) 0.47684(15)
O3E O 0.27484(12) 0.5283(2) 0.52316(15)
O4B O 0.10857(11) 0.86331(19) 0.80969(13)
O5B O 0.09999(13) 0.4755(2) 0.78078(17)
Cs1D Cs -0.152820(10) 0.316640(18) 0.392570(12)
Cs1_2 Cs 0.152820(10) -0.316640(18) 0.607430(12)
Cs1E Cs 0.347180(10) -0.183360(18) 0.392570(12)
Cs1B Cs 0.152820(10) 0.316640(18) 0.107430(12)
Cs1A Cs -0.347180(10) 0.183360(18) -0.392570(12)
Cs1F_2 Cs -0.152820(10) -0.316640(18) -0.107430(12)
Cs1C Cs -0.347180(10) -0.183360(18) 0.107430(12)
O1B O 0.06078(11) 0.69669(18) -0.06253(13)
O2A O -0.32924(12) 0.6346(3) -0.39244(14)
O2F_2 O -0.17076(12) 1.1346(3) -0.10756(14)
O3C O -0.27484(12) 0.5283(2) -0.02316(15)
O3F_2 O -0.22516(12) 0.9717(2) 0.02316(15)
O4D O -0.10857(11) 0.86331(19) -0.30969(13)
O5D O -0.09999(13) 0.4755(2) -0.28078(17)
H1B H 0.083(3) 0.372(5) 0.752(3)
H2B H 0.153(3) 0.471(5) 0.847(3)
H1D H -0.083(3) 0.372(5) -0.252(3)
H2D H -0.153(3) 0.471(5) -0.347(3)
loop_
_geom_bond_atom_site_label_1
_geom_bond_atom_site_label_2
_geom_bond_site_symmetry_1
_geom_bond_site_symmetry_2
Cs1 O1 1_555 1_555
Mg1 O1 1_555 1_555
C1 C2 1_555 1_555
C2 O3 1_555 1_555
O1 C1 1_555 1_555
O2 C1 1_555 1_555
O3 Cs1_2 1_555 1_555
O4 Mg1 1_555 1_555
O5 Mg1 1_555 1_555
O6 Cs1 1_555 1_555
H1 O5 1_555 1_555
H2 O5 1_555 1_555
H3 O6 1_555 1_555
H4 O6 1_555 1_555
C1F C2F 1_555 1_555
C2F O3F 1_555 1_555
O1F Mg1 1_555 1_555
O2F C1F 1_555 1_555
O3F Cs1F_2 1_555 1_555
O4F Mg1 1_555 1_555
O5F Mg1 1_555 1_555
H1F O5F 1_555 1_555
H2F O5F 1_555 1_555
Cs1F O1F 1_555 1_555
O6F Cs1F 1_555 1_555
H3F O6F 1_555 1_555
H4F O6F 1_555 1_555
Cs1G O2 1_555 1_555
O1D Cs1 1_555 1_555
O2_2 Cs1 1_555 1_555
O2G Cs1 1_555 1_555
O3_2 Cs1 1_555 1_555
O3E Cs1 1_555 1_555
O4B Cs1 1_555 1_555
O5B Cs1 1_555 1_555
Cs1D O1 1_555 1_555
Cs1_2 O2 1_555 1_555
Cs1E O3 1_555 1_555
Cs1B O4 1_555 1_555
Cs1A O2F 1_555 1_555
Cs1F_2 O2F 1_555 1_555
Cs1C O3F 1_555 1_555
O1B Cs1F 1_555 1_555
O2A Cs1F 1_555 1_555
O2F_2 Cs1F 1_555 1_555
O3C Cs1F 1_555 1_555
O3F_2 Cs1F 1_555 1_555
O4D Cs1F 1_555 1_555
O5D Cs1F 1_555 1_555
H1B O5B 1_555 1_555
H2B O5B 1_555 1_555
H1D O5D 1_555 1_555
H2D O5D 1_555 1_555
C2 O4 1_555 1_555
O5 Cs1B 1_555 1_555
C1F O1F 1_555 1_555
C2F O4F 1_555 1_555
O1F Cs1B 1_555 1_555
O4F Cs1D 1_555 1_555
O5F Cs1D 1_555 1_555
Cs1G O2G 1_555 1_555
O1D Cs1D 1_555 1_555
Cs1B O1B 1_555 1_555
Cs1A O2A 1_555 1_555

#END
