
#######################################################################
#
#                 Cambridge Crystallographic Data Centre
#                                CCDC 
#
#######################################################################
#
# If this CIF has been generated from an entry in the Cambridge 
# Structural Database, then it will include bibliographic, chemical, 
# crystal, experimental, refinement or atomic coordinate data resulting 
# from the CCDC's data processing and validation procedures.
#
#######################################################################

data_ARUJON
_symmetry_cell_setting           triclinic
_symmetry_space_group_name_H-M   'P -1'
_symmetry_Int_Tables_number      2
_space_group_name_Hall           '-P 1'
loop_
_symmetry_equiv_pos_site_id
_symmetry_equiv_pos_as_xyz
1 x,y,z
2 -x,-y,-z
_cell_length_a                   7.49280(10)
_cell_length_b                   10.82610(10)
_cell_length_c                   12.19460(10)
_cell_angle_alpha                92.7010(10)
_cell_angle_beta                 104.7710(10)
_cell_angle_gamma                93.6780(10)
_cell_volume                     952.471
loop_
_atom_site_label
_atom_site_type_symbol
_atom_site_fract_x
_atom_site_fract_y
_atom_site_fract_z
Mn1 Mn 0.77381(4) 0.54284(3) 0.45938(2)
C1 C 0.3767(3) 0.45751(17) 0.32827(15)
C2 C 0.2441(3) 0.38937(17) 0.22432(15)
C3 C 0.0566(3) 0.4039(2) 0.20243(17)
H1 H 0.0118 0.4557 0.2505
C4 C -0.0625(3) 0.3416(2) 0.10971(18)
H2 H -0.1890 0.3500 0.0955
C5 C 0.1836(3) 0.2545(2) 0.05668(18)
H3 H 0.2259 0.2043 0.0062
C6 C 0.3075(3) 0.3144(2) 0.14956(17)
H4 H 0.4334 0.3048 0.1622
C7 C -0.1335(3) 0.2018(2) -0.06043(18)
H5 H -0.2344 0.1619 -0.0353
H6 H -0.0740 0.1380 -0.0932
C8 C -0.2095(3) 0.29035(19) -0.14950(18)
H7 H -0.1161 0.3129 -0.1889
H8 H -0.2374 0.3654 -0.1127
C9 C -0.3833(3) 0.23424(19) -0.23523(18)
H9 H -0.4742 0.2076 -0.1953
H10 H -0.4351 0.2971 -0.2854
C10 C -0.4105(3) 0.01140(19) -0.28945(17)
H11 H -0.4744 -0.0012 -0.2343
C11 C -0.3817(3) -0.08789(18) -0.35580(17)
H12 H -0.4255 -0.1677 -0.3454
C12 C -0.2871(3) -0.06834(17) -0.43805(16)
C13 C -0.2221(3) 0.05132(19) -0.45124(18)
H13 H -0.1579 0.0662 -0.5059
C14 C -0.2533(3) 0.14772(19) -0.38319(18)
H14 H -0.2098 0.2282 -0.3917
C15 C -0.2624(3) -0.17554(18) -0.51698(16)
N1 N 0.0021(2) 0.26790(15) 0.03839(14)
N2 N -0.3464(2) 0.12660(15) -0.30429(13)
N3 N 1.0664(2) 0.61910(16) 0.55256(15)
N4 N 1.1200(3) 0.71011(16) 0.61408(15)
N5 N 1.1709(4) 0.7980(2) 0.6728(2)
O1 O 0.5441(2) 0.44622(16) 0.33803(13)
O2 O 0.3069(2) 0.52053(13) 0.39253(11)
O3 O -0.1977(2) -0.14914(15) -0.59755(13)
O4 O -0.3143(2) -0.28146(13) -0.49371(13)
O5 O 0.8252(2) 0.62582(16) 0.30038(14)
H15 H 0.820(4) 0.704(2) 0.318(2)
H16 H 0.749(4) 0.608(3) 0.238(2)
Mn1A Mn 1.22619(4) 0.45716(3) 0.54062(2)
Mn1A_2 Mn 0.22619(4) 0.45716(3) 0.54062(2)
Mn1_2 Mn -0.22619(4) -0.45716(3) -0.54062(2)
Mn1A_3 Mn 1.22619(4) 1.45716(3) 1.54062(2)
C1A C 0.6233(3) 0.54249(17) 0.67173(15)
C2A C 0.7559(3) 0.61063(17) 0.77568(15)
C3A C 0.9434(3) 0.5961(2) 0.79757(17)
H1A H 0.9882 0.5443 0.7495
C4A C 1.0625(3) 0.6584(2) 0.89029(18)
H2A H 1.1890 0.6500 0.9045
C5A C 0.8164(3) 0.7455(2) 0.94332(18)
H3A H 0.7741 0.7957 0.9938
C6A C 0.6925(3) 0.6856(2) 0.85044(17)
H4A H 0.5666 0.6952 0.8378
C7A C 1.1335(3) 0.7982(2) 1.06043(18)
H5A H 1.2344 0.8381 1.0353
H6A H 1.0740 0.8620 1.0932
C8A C 1.2095(3) 0.70965(19) 1.14950(18)
H7A H 1.1161 0.6871 1.1889
H8A H 1.2374 0.6346 1.1127
C9A C 1.3833(3) 0.76576(19) 1.23523(18)
H9A H 1.4742 0.7924 1.1953
H10A H 1.4351 0.7029 1.2854
C10A C 1.4105(3) 0.98860(19) 1.28945(17)
H11A H 1.4744 1.0012 1.2343
C11A C 1.3817(3) 1.08789(18) 1.35580(17)
H12A H 1.4255 1.1677 1.3454
C12A C 1.2871(3) 1.06834(17) 1.43805(16)
C13A C 1.2221(3) 0.94868(19) 1.45124(18)
H13A H 1.1579 0.9338 1.5059
C14A C 1.2533(3) 0.85228(19) 1.38319(18)
H14A H 1.2098 0.7718 1.3917
C15A C 1.2624(3) 1.17554(18) 1.51698(16)
N1A N 0.9979(2) 0.73210(15) 0.96161(14)
N2A N 1.3464(2) 0.87340(15) 1.30429(13)
N3A N 0.9336(2) 0.38090(16) 0.44744(15)
N4A N 0.8800(3) 0.28989(16) 0.38592(15)
N5A N 0.8291(4) 0.2020(2) 0.3272(2)
O1A O 0.4559(2) 0.55378(16) 0.66197(13)
O1A_2 O 1.4559(2) 0.55378(16) 0.66197(13)
O2A O 0.6931(2) 0.47947(13) 0.60747(11)
O2_2 O 1.3069(2) 0.52053(13) 0.39253(11)
O3A O 1.1977(2) 1.14914(15) 1.59755(13)
O4A O 1.3143(2) 1.28146(13) 1.49371(13)
O4_2 O 0.6857(2) 0.71854(13) 0.50629(13)
O4A_2 O 1.3143(2) 0.28146(13) 0.49371(13)
O5A O 1.1748(2) 0.37418(16) 0.69962(14)
H15A H 1.180(4) 0.296(2) 0.682(2)
H16A H 1.251(4) 0.392(3) 0.762(2)
N6 N 0.4237(5) 0.4371(3) 0.9261(2)
N7 N 0.5000 0.5000 1.0000
N6A N 0.5763(5) 0.5629(3) 1.0739(2)
O6 O 0.9129(6) 0.9875(6) 0.1790(3)
H17 H 0.813(8) 1.012(9) 0.144(8)
H18 H 0.893(14) 0.931(8) 0.222(8)
Br1 Br 0.5000 0.0000 0.0000
loop_
_geom_bond_atom_site_label_1
_geom_bond_atom_site_label_2
_geom_bond_site_symmetry_1
_geom_bond_site_symmetry_2
Mn1 N3 1_555 1_555
C1 C2 1_555 1_555
C2 C3 1_555 1_555
C3 H1 1_555 1_555
C4 C3 1_555 1_555
H2 C4 1_555 1_555
C5 H3 1_555 1_555
C6 C2 1_555 1_555
H4 C6 1_555 1_555
C7 H5 1_555 1_555
H6 C7 1_555 1_555
C8 C7 1_555 1_555
H7 C8 1_555 1_555
H8 C8 1_555 1_555
C9 C8 1_555 1_555
H9 C9 1_555 1_555
H10 C9 1_555 1_555
C10 H11 1_555 1_555
C11 C10 1_555 1_555
H12 C11 1_555 1_555
C12 C11 1_555 1_555
C13 C12 1_555 1_555
H13 C13 1_555 1_555
C14 C13 1_555 1_555
H14 C14 1_555 1_555
C15 C12 1_555 1_555
N1 C4 1_555 1_555
N2 C9 1_555 1_555
N3 N4 1_555 1_555
N4 N5 1_555 1_555
N6 N7 1_555 1_555
N7 N6A 1_555 1_555
O1 Mn1 1_555 1_555
O2 C1 1_555 1_555
O3 C15 1_555 1_555
O4 C15 1_555 1_555
O5 Mn1 1_555 1_555
H15 O5 1_555 1_555
H16 O5 1_555 1_555
O6 H17 1_555 1_555
H18 O6 1_555 1_555
Mn1A N3 1_555 1_555
Mn1A_2 O2 1_555 1_555
Mn1_2 O4 1_555 1_555
Mn1A_3 O4A 1_555 1_555
C1A C2A 1_555 1_555
C2A C3A 1_555 1_555
C3A H1A 1_555 1_555
C4A C3A 1_555 1_555
H2A C4A 1_555 1_555
C5A H3A 1_555 1_555
C6A C2A 1_555 1_555
H4A C6A 1_555 1_555
C7A H5A 1_555 1_555
H6A C7A 1_555 1_555
C8A C7A 1_555 1_555
H7A C8A 1_555 1_555
H8A C8A 1_555 1_555
C9A C8A 1_555 1_555
H9A C9A 1_555 1_555
H10A C9A 1_555 1_555
C10A H11A 1_555 1_555
C11A C10A 1_555 1_555
H12A C11A 1_555 1_555
C12A C11A 1_555 1_555
C13A C12A 1_555 1_555
H13A C13A 1_555 1_555
C14A C13A 1_555 1_555
H14A C14A 1_555 1_555
C15A C12A 1_555 1_555
N1A C4A 1_555 1_555
N2A C9A 1_555 1_555
N3A Mn1 1_555 1_555
N4A N3A 1_555 1_555
N5A N4A 1_555 1_555
O1A Mn1A_2 1_555 1_555
O1A_2 Mn1A 1_555 1_555
O2A Mn1 1_555 1_555
O2_2 Mn1A 1_555 1_555
O3A C15A 1_555 1_555
O4A C15A 1_555 1_555
O4_2 Mn1 1_555 1_555
O4A_2 Mn1A 1_555 1_555
O5A Mn1A 1_555 1_555
H15A O5A 1_555 1_555
H16A O5A 1_555 1_555
C1 O1 1_555 1_555
C5 C6 1_555 1_555
C5 N1 1_555 1_555
C7 N1 1_555 1_555
C10 N2 1_555 1_555
C14 N2 1_555 1_555
Mn1A N3A 1_555 1_555
C1A O1A 1_555 1_555
C1A O2A 1_555 1_555
C5A C6A 1_555 1_555
C5A N1A 1_555 1_555
C7A N1A 1_555 1_555
C10A N2A 1_555 1_555
C14A N2A 1_555 1_555

#END
