
#######################################################################
#
#                 Cambridge Crystallographic Data Centre
#                                CCDC 
#
#######################################################################
#
# If this CIF has been generated from an entry in the Cambridge 
# Structural Database, then it will include bibliographic, chemical, 
# crystal, experimental, refinement or atomic coordinate data resulting 
# from the CCDC's data processing and validation procedures.
#
#######################################################################

data_ARUJAY
_symmetry_cell_setting           monoclinic
_symmetry_space_group_name_H-M   'C 2/c'
_symmetry_Int_Tables_number      15
_space_group_name_Hall           '-C 2yn'
loop_
_symmetry_equiv_pos_site_id
_symmetry_equiv_pos_as_xyz
1 x,y,z
2 1/2+x,1/2+y,z
3 x,-y,1/2+z
4 1/2+x,1/2-y,1/2+z
5 -x,-y,-z
6 1/2-x,1/2-y,-z
7 -x,y,1/2-z
8 1/2-x,1/2+y,1/2-z
_cell_length_a                   44.632(2)
_cell_length_b                   17.9597(9)
_cell_length_c                   30.2910(14)
_cell_angle_alpha                90
_cell_angle_beta                 105.0430(10)
_cell_angle_gamma                90
_cell_volume                     23448.5
loop_
_atom_site_label
_atom_site_type_symbol
_atom_site_fract_x
_atom_site_fract_y
_atom_site_fract_z
N38 N 0.2341(6) 0.7932(8) 0.3049(7)
C81 C 0.2292(4) 0.7297(11) 0.2992(5)
C82 C 0.2281(4) 0.6468(9) 0.2911(6)
H82 H 0.2124 0.6354 0.2628
H83 H 0.2229 0.6215 0.3168
H84 H 0.2485 0.6297 0.2885
Ag1 Ag 0.013896(12) 0.49197(4) 0.409482(18)
Ag2 Ag 0.0000 0.97526(7) 0.2500
Ag3 Ag 0.252010(13) 1.04977(4) 0.41391(2)
C1 C 0.08826(16) 0.5494(5) 0.4222(2)
C2 C 0.19378(18) 0.9214(5) 0.4062(2)
C3 C 0.0734(2) 0.9365(7) 0.2432(4)
C4 C 0.31018(15) 1.1425(5) 0.3804(2)
C5 C -0.06383(15) 0.4850(5) 0.3598(2)
C6 C 0.22313(18) 0.4218(5) 0.3695(3)
C7 C 0.10887(16) 0.4836(5) 0.4986(2)
H1 H 0.1291 0.5042 0.5074
C8 C 0.09717(17) 0.4366(5) 0.5231(2)
H2 H 0.1068 0.4174 0.5527
C9 C 0.06757(18) 0.4214(5) 0.4961(3)
H3 H 0.0536 0.3877 0.5045
C10 C 0.0782(2) 0.6846(7) 0.4309(2)
H4 H 0.0987 0.7030 0.4349
C11 C 0.0534(3) 0.7258(5) 0.4318(2)
H5 H 0.0528 0.7780 0.4364
C12 C 0.0286(2) 0.6754(7) 0.4246(2)
H6 H 0.0078 0.6884 0.4238
C13 C 0.05817(19) 0.5424(6) 0.3397(3)
H7 H 0.0483 0.5896 0.3368
C14 C 0.0579(2) 0.4924(7) 0.3056(3)
H8 H 0.0472 0.4966 0.2742
C15 C 0.0767(2) 0.4343(6) 0.3266(3)
H9 H 0.0809 0.3912 0.3111
C16 C 0.1746(2) 0.9787(6) 0.4714(3)
H10 H 0.1595 0.9428 0.4740
C17 C 0.1824(3) 1.0415(6) 0.4966(3)
H11 H 0.1736 1.0589 0.5202
C18 C 0.2052(2) 1.0745(5) 0.4813(3)
H12 H 0.2154 1.1191 0.4938
C19 C 0.2302(3) 0.8139(6) 0.4358(3)
H13 H 0.2158 0.7779 0.4407
C20 C 0.2611(3) 0.8058(6) 0.4455(3)
H14 H 0.2731 0.7635 0.4579
C21 C 0.2716(2) 0.8735(6) 0.4331(3)
H15 H 0.2929 0.8839 0.4364
C22 C 0.20301(18) 0.9504(5) 0.3277(3)
H16 H 0.2186 0.9148 0.3267
C23 C 0.1896(2) 0.9981(5) 0.2942(3)
H17 H 0.1935 1.0027 0.2649
C24 C 0.1688(2) 1.0395(5) 0.3115(4)
H18 H 0.1564 1.0789 0.2956
C25 C 0.0889(3) 1.0689(8) 0.2400(4)
H19 H 0.1066 1.0634 0.2283
C26 C 0.0773(3) 1.1336(8) 0.2499(5)
H20 H 0.0852 1.1823 0.2481
C27 C 0.0501(3) 1.1122(9) 0.2639(5)
H21 H 0.0365 1.1464 0.2726
C28 C 0.0587(3) 0.8851(6) 0.1624(4)
H22 H 0.0788 0.8749 0.1587
C29 C 0.0317(3) 0.8754(6) 0.1301(4)
H23 H 0.0287 0.8568 0.0999
C30 C 0.0090(2) 0.8995(7) 0.1519(5)
H24 H -0.0127 0.9001 0.1376
C31 C 0.0499(3) 0.8323(8) 0.2777(5)
H25 H 0.0391 0.8080 0.2503
C32 C 0.0528(3) 0.8086(8) 0.3223(7)
H26 H 0.0443 0.7644 0.3315
C33 C 0.0706(3) 0.8622(10) 0.3511(5)
H27 H 0.0759 0.8605 0.3836
C34 C 0.33174(18) 1.1990(5) 0.4604(3)
H28 H 0.3442 1.2377 0.4532
C35 C 0.3287(2) 1.1821(6) 0.5024(3)
H29 H 0.3386 1.2058 0.5304
C36 C 0.30821(19) 1.1230(5) 0.4960(3)
H30 H 0.3015 1.0990 0.5197
C37 C 0.27373(18) 1.2270(5) 0.3254(3)
H31 H 0.2884 1.2584 0.3169
C38 C 0.24233(19) 1.2315(5) 0.3098(3)
H32 H 0.2306 1.2661 0.2884
C39 C 0.23117(17) 1.1747(5) 0.3317(3)
H33 H 0.2097 1.1644 0.3273
C40 C 0.33587(15) 1.0255(5) 0.3974(2)
H34 H 0.3511 1.0420 0.4237
C41 C 0.33299(19) 0.9620(7) 0.3796(3)
H35 H 0.3469 0.9226 0.3916
C42 C 0.3079(2) 0.9522(5) 0.3406(3)
H36 H 0.3016 0.9089 0.3226
C43 C -0.07443(17) 0.4038(4) 0.4217(2)
H37 H -0.0943 0.3851 0.4063
C44 C -0.05756(18) 0.3855(5) 0.4648(2)
H38 H -0.0632 0.3527 0.4858
C45 C -0.03042(17) 0.4255(5) 0.4708(3)
H39 H -0.0139 0.4228 0.4978
C46 C -0.05995(17) 0.3963(5) 0.2974(2)
H40 H -0.0814 0.3890 0.2834
C47 C -0.0364(2) 0.3613(5) 0.2858(2)
H41 H -0.0377 0.3248 0.2626
C48 C -0.00993(18) 0.3904(5) 0.3150(3)
H42 H 0.0105 0.3762 0.3148
C49 C -0.03992(18) 0.6004(7) 0.3338(3)
H43 H -0.0308 0.5796 0.3115
C50 C -0.0418(2) 0.6730(7) 0.3430(3)
H44 H -0.0343 0.7139 0.3291
C51 C -0.05726(18) 0.6752(6) 0.3780(3)
H45 H -0.0618 0.7199 0.3918
C52 C 0.2568(2) 0.3298(7) 0.4196(3)
H46 H 0.2764 0.3526 0.4222
C53 C 0.2514(4) 0.2670(8) 0.4400(4)
H47 H 0.2665 0.2373 0.4602
C54 C 0.2202(4) 0.2530(7) 0.4266(5)
H48 H 0.2101 0.2116 0.4360
C55 C 0.2304(3) 0.4258(5) 0.2898(3)
H49 H 0.2095 0.4286 0.2723
C56 C 0.2550(3) 0.4223(6) 0.2732(4)
H50 H 0.2551 0.4218 0.2419
C57 C 0.2812(3) 0.4195(7) 0.3112(6)
H51 H 0.3022 0.4170 0.3099
C58 C 0.2496(3) 0.5411(9) 0.4001(6)
H52 H 0.2620 0.5494 0.3793
C59 C 0.2475(3) 0.5873(9) 0.4351(7)
H53 H 0.2574 0.6341 0.4428
C60 C 0.2293(4) 0.5537(10) 0.4551(4)
H54 H 0.2242 0.5721 0.4816
C61 C 0.12189(14) 0.5712(5) 0.4263(2)
H55 H 0.1300 0.6024 0.4537
H56 H 0.1351 0.5263 0.4285
C62 C 0.15227(16) 0.6260(5) 0.3804(2)
H57 H 0.1656 0.5812 0.3879
H58 H 0.1623 0.6675 0.4003
C63 C 0.16757(17) 0.8673(5) 0.4013(2)
H59 H 0.1689 0.8420 0.4308
H60 H 0.1474 0.8936 0.3919
C64 C 0.14077(18) 0.7793(5) 0.3483(3)
H61 H 0.1257 0.8168 0.3320
H62 H 0.1328 0.7578 0.3731
C65 C 0.1068(2) 0.9169(6) 0.2433(3)
H63 H 0.1116 0.9367 0.2155
H64 H 0.1215 0.9391 0.2704
C66 C 0.14140(17) 0.8142(6) 0.2560(3)
H65 H 0.1540 0.8443 0.2816
H66 H 0.1501 0.8201 0.2294
C67 C 0.33641(14) 1.1876(4) 0.3695(2)
H67 H 0.3341 1.2411 0.3759
H68 H 0.3568 1.1702 0.3883
C68 C 0.13662(15) 0.6928(4) 0.1879(2)
H69 H 0.1201 0.6604 0.1695
H70 H 0.1307 0.7453 0.1806
C69 C -0.09976(14) 0.4837(5) 0.3385(2)
H71 H -0.1071 0.4318 0.3319
H72 H -0.1106 0.5059 0.3599
C70 C 0.13883(14) 0.5413(4) 0.2185(2)
H73 H 0.1474 0.5566 0.1929
H74 H 0.1502 0.4967 0.2332
C71 C 0.18693(19) 0.4265(5) 0.3488(3)
H75 H 0.1797 0.3855 0.3268
H76 H 0.1760 0.4231 0.3733
C72 C 0.14814(14) 0.5085(5) 0.3152(2)
H77 H 0.1395 0.5027 0.3419
H78 H 0.1369 0.4749 0.2905
C73 C 0.14711(15) 0.6467(6) 0.3302(2)
C74 C 0.14419(16) 0.7189(6) 0.3157(3)
C75 C 0.14225(16) 0.7352(5) 0.2695(3)
C76 C 0.14067(15) 0.6783(6) 0.2388(2)
C77 C 0.14166(14) 0.6032(5) 0.2524(2)
C78 C 0.14576(14) 0.5880(5) 0.2991(2)
N1 N 0.06102(13) 0.4596(4) 0.45701(19)
N2 N 0.08714(13) 0.4978(4) 0.45854(18)
N3 N 0.03824(15) 0.6071(5) 0.41910(17)
N4 N 0.06960(15) 0.6136(5) 0.42358(18)
N5 N 0.08807(15) 0.4462(5) 0.3712(2)
N6 N 0.07551(14) 0.5102(5) 0.37834(19)
N7 N 0.21145(14) 1.0378(4) 0.4476(2)
N8 N 0.19265(15) 0.9773(4) 0.4417(2)
N9 N 0.24975(16) 0.9215(4) 0.4165(2)
N10 N 0.22324(15) 0.8831(5) 0.4176(2)
N11 N 0.16859(16) 1.0171(5) 0.3529(3)
N12 N 0.19025(14) 0.9626(4) 0.3632(2)
N13 N 0.0465(3) 1.0390(6) 0.2632(4)
N14 N 0.0714(2) 1.0127(6) 0.2493(3)
N15 N 0.0211(2) 0.9207(5) 0.1938(4)
N16 N 0.05252(19) 0.9115(4) 0.2005(3)
N17 N 0.0792(2) 0.9164(6) 0.3264(4)
N18 N 0.0652(2) 0.8958(6) 0.2813(4)
N19 N 0.29924(13) 1.1044(4) 0.4520(2)
N20 N 0.31377(12) 1.1509(4) 0.43001(19)
N21 N 0.25352(13) 1.1362(3) 0.35965(18)
N22 N 0.28015(12) 1.1697(4) 0.35515(18)
N23 N 0.29498(18) 1.0230(5) 0.3357(3)
N24 N 0.31233(13) 1.0651(4) 0.37087(19)
N25 N -0.02967(12) 0.4673(4) 0.43586(19)
N26 N -0.05754(13) 0.4531(4) 0.40554(17)
N27 N -0.01633(12) 0.4401(4) 0.3434(2)
N28 N -0.04813(12) 0.4430(3) 0.33194(18)
N29 N -0.06455(14) 0.6101(5) 0.3892(2)
N30 N -0.05353(13) 0.5620(4) 0.3620(2)
N31 N 0.2062(2) 0.3072(6) 0.3983(3)
N32 N 0.2292(2) 0.3543(5) 0.3951(2)
N33 N 0.2716(2) 0.4208(6) 0.3487(3)
N34 N 0.24015(19) 0.4250(5) 0.3356(2)
N35 N 0.2190(3) 0.4921(6) 0.4351(3)
N36 N 0.23218(17) 0.4848(5) 0.4003(2)
O1 O 0.12141(10) 0.6112(3) 0.38643(15)
O2 O 0.17015(11) 0.8142(3) 0.36728(16)
O3 O 0.10960(13) 0.8394(4) 0.24456(19)
O4 O 0.16569(9) 0.6768(3) 0.17788(14)
O5 O -0.10568(9) 0.5252(3) 0.29796(13)
O6 O 0.18146(12) 0.4927(4) 0.32757(17)
N13F N -0.0465(3) 1.0390(6) 0.2368(4)
N15F N -0.0211(2) 0.9207(5) 0.3062(4)
O4G O 0.33431(9) 1.1768(3) 0.32212(14)
O5F O 0.10568(9) 0.5252(3) 0.20204(13)
C67G C 0.16359(14) 0.6876(4) 0.1305(2)
C70F C -0.13883(14) 0.5413(4) 0.2815(2)
N37? N 0.0000 0.6629(13) 0.2500
C79? C 0.0274(2) 0.6618(14) 0.2590(8)
C80? C 0.0624(4) 0.6640(12) 0.2691(6)
H79? H 0.0696 0.6231 0.2530
H80? H 0.0714 0.6585 0.3021
H81? H 0.0689 0.7116 0.2589
loop_
_geom_bond_atom_site_label_1
_geom_bond_atom_site_label_2
_geom_bond_site_symmetry_1
_geom_bond_site_symmetry_2
Ag1 N1 1_555 1_555
Ag2 N13 1_555 1_555
Ag3 N7 1_555 1_555
C1 C61 1_555 1_555
C2 C63 1_555 1_555
C3 C65 1_555 1_555
C4 C67 1_555 1_555
C5 C69 1_555 1_555
C6 C71 1_555 1_555
C7 H1 1_555 1_555
C8 C7 1_555 1_555
H2 C8 1_555 1_555
C9 C8 1_555 1_555
H3 C9 1_555 1_555
C10 H4 1_555 1_555
C11 C10 1_555 1_555
H5 C11 1_555 1_555
C12 C11 1_555 1_555
H6 C12 1_555 1_555
C13 H7 1_555 1_555
C14 C13 1_555 1_555
H8 C14 1_555 1_555
C15 C14 1_555 1_555
H9 C15 1_555 1_555
C16 H10 1_555 1_555
C17 C16 1_555 1_555
H11 C17 1_555 1_555
C18 C17 1_555 1_555
H12 C18 1_555 1_555
C19 H13 1_555 1_555
C20 C19 1_555 1_555
H14 C20 1_555 1_555
C21 C20 1_555 1_555
H15 C21 1_555 1_555
C22 H16 1_555 1_555
C23 C22 1_555 1_555
H17 C23 1_555 1_555
C24 C23 1_555 1_555
H18 C24 1_555 1_555
C25 H19 1_555 1_555
C26 C25 1_555 1_555
H20 C26 1_555 1_555
C27 C26 1_555 1_555
H21 C27 1_555 1_555
C28 H22 1_555 1_555
C29 C28 1_555 1_555
H23 C29 1_555 1_555
C30 C29 1_555 1_555
H24 C30 1_555 1_555
C31 H25 1_555 1_555
C32 C31 1_555 1_555
H26 C32 1_555 1_555
C33 C32 1_555 1_555
H27 C33 1_555 1_555
C34 H28 1_555 1_555
C35 C34 1_555 1_555
H29 C35 1_555 1_555
C36 C35 1_555 1_555
H30 C36 1_555 1_555
C37 H31 1_555 1_555
C38 C37 1_555 1_555
H32 C38 1_555 1_555
C39 C38 1_555 1_555
H33 C39 1_555 1_555
C40 H34 1_555 1_555
C41 C40 1_555 1_555
H35 C41 1_555 1_555
C42 C41 1_555 1_555
H36 C42 1_555 1_555
C43 H37 1_555 1_555
C44 C43 1_555 1_555
H38 C44 1_555 1_555
C45 C44 1_555 1_555
H39 C45 1_555 1_555
C46 H40 1_555 1_555
C47 C46 1_555 1_555
H41 C47 1_555 1_555
C48 C47 1_555 1_555
H42 C48 1_555 1_555
C49 H43 1_555 1_555
C50 C49 1_555 1_555
H44 C50 1_555 1_555
C51 C50 1_555 1_555
H45 C51 1_555 1_555
C52 H46 1_555 1_555
C53 C52 1_555 1_555
H47 C53 1_555 1_555
C54 C53 1_555 1_555
H48 C54 1_555 1_555
C55 H49 1_555 1_555
C56 C55 1_555 1_555
H50 C56 1_555 1_555
C57 C56 1_555 1_555
H51 C57 1_555 1_555
C58 H52 1_555 1_555
C59 C58 1_555 1_555
H53 C59 1_555 1_555
C60 C59 1_555 1_555
H54 C60 1_555 1_555
C61 H55 1_555 1_555
H56 C61 1_555 1_555
C62 H57 1_555 1_555
H58 C62 1_555 1_555
C63 H59 1_555 1_555
H60 C63 1_555 1_555
C64 H61 1_555 1_555
H62 C64 1_555 1_555
C65 H63 1_555 1_555
H64 C65 1_555 1_555
C66 H65 1_555 1_555
H66 C66 1_555 1_555
C67 H67 1_555 1_555
H68 C67 1_555 1_555
C68 H69 1_555 1_555
H70 C68 1_555 1_555
C69 H71 1_555 1_555
H72 C69 1_555 1_555
C70 H73 1_555 1_555
H74 C70 1_555 1_555
C71 H75 1_555 1_555
H76 C71 1_555 1_555
C72 H77 1_555 1_555
H78 C72 1_555 1_555
C73 C62 1_555 1_555
C74 C64 1_555 1_555
C75 C66 1_555 1_555
C76 C68 1_555 1_555
C77 C70 1_555 1_555
C78 C72 1_555 1_555
N1 C9 1_555 1_555
N2 C1 1_555 1_555
N3 Ag1 1_555 1_555
N4 C1 1_555 1_555
N5 C15 1_555 1_555
N6 C1 1_555 1_555
N7 C18 1_555 1_555
N8 C2 1_555 1_555
N9 Ag3 1_555 1_555
N10 C2 1_555 1_555
N11 C24 1_555 1_555
N12 C2 1_555 1_555
N13 C27 1_555 1_555
N14 C3 1_555 1_555
N15 Ag2 1_555 1_555
N16 C3 1_555 1_555
N17 C33 1_555 1_555
N18 C3 1_555 1_555
N19 Ag3 1_555 1_555
N20 C4 1_555 1_555
N21 Ag3 1_555 1_555
N22 C4 1_555 1_555
N23 C42 1_555 1_555
N24 C4 1_555 1_555
N25 Ag1 1_555 1_555
N26 C5 1_555 1_555
N27 Ag1 1_555 1_555
N28 C5 1_555 1_555
N29 C51 1_555 1_555
N30 C5 1_555 1_555
N31 C54 1_555 1_555
N32 C6 1_555 1_555
N33 C57 1_555 1_555
N34 C6 1_555 1_555
N35 C60 1_555 1_555
N36 C6 1_555 1_555
O1 C61 1_555 1_555
O2 C63 1_555 1_555
O3 C65 1_555 1_555
O4 C68 1_555 1_555
O5 C69 1_555 1_555
O6 C71 1_555 1_555
N38 C81 1_555 1_555
C81 C82 1_555 1_555
C82 H82 1_555 1_555
H83 C82 1_555 1_555
H84 C82 1_555 1_555
N13F Ag2 1_555 1_555
N15F Ag2 1_555 1_555
O4G C67 1_555 1_555
O5F C70 1_555 1_555
C67G O4 1_555 1_555
C70F O5 1_555 1_555
C7 N2 1_555 1_555
C10 N4 1_555 1_555
C12 N3 1_555 1_555
C13 N6 1_555 1_555
C16 N8 1_555 1_555
C19 N10 1_555 1_555
C21 N9 1_555 1_555
C22 N12 1_555 1_555
C25 N14 1_555 1_555
C28 N16 1_555 1_555
C30 N15 1_555 1_555
C31 N18 1_555 1_555
C34 N20 1_555 1_555
C36 N19 1_555 1_555
C37 N22 1_555 1_555
C39 N21 1_555 1_555
C40 N24 1_555 1_555
C43 N26 1_555 1_555
C45 N25 1_555 1_555
C46 N28 1_555 1_555
C48 N27 1_555 1_555
C49 N30 1_555 1_555
C52 N32 1_555 1_555
C55 N34 1_555 1_555
C58 N36 1_555 1_555
C62 O1 1_555 1_555
C64 O2 1_555 1_555
C66 O3 1_555 1_555
C72 O6 1_555 1_555
C73 C74 1_555 1_555
C73 C78 1_555 1_555
C74 C75 1_555 1_555
C75 C76 1_555 1_555
C76 C77 1_555 1_555
C77 C78 1_555 1_555
N1 N2 1_555 1_555
N3 N4 1_555 1_555
N5 N6 1_555 1_555
N7 N8 1_555 1_555
N9 N10 1_555 1_555
N11 N12 1_555 1_555
N13 N14 1_555 1_555
N15 N16 1_555 1_555
N17 N18 1_555 1_555
N19 N20 1_555 1_555
N21 N22 1_555 1_555
N23 N24 1_555 1_555
N25 N26 1_555 1_555
N27 N28 1_555 1_555
N29 N30 1_555 1_555
N31 N32 1_555 1_555
N33 N34 1_555 1_555
N35 N36 1_555 1_555

#END
