
#######################################################################
#
#                 Cambridge Crystallographic Data Centre
#                                CCDC 
#
#######################################################################
#
# If this CIF has been generated from an entry in the Cambridge 
# Structural Database, then it will include bibliographic, chemical, 
# crystal, experimental, refinement or atomic coordinate data resulting 
# from the CCDC's data processing and validation procedures.
#
#######################################################################

data_ARUKIH
_symmetry_cell_setting           monoclinic
_symmetry_space_group_name_H-M   'P 21/a'
_symmetry_Int_Tables_number      14
_space_group_name_Hall           '-P 2yab'
loop_
_symmetry_equiv_pos_site_id
_symmetry_equiv_pos_as_xyz
1 x,y,z
2 1/2-x,1/2+y,-z
3 -x,-y,-z
4 1/2+x,1/2-y,z
_cell_length_a                   12.893(3)
_cell_length_b                   11.200(3)
_cell_length_c                   14.060(2)
_cell_angle_alpha                90
_cell_angle_beta                 102.04(5)
_cell_angle_gamma                90
_cell_volume                     1985.62
loop_
_atom_site_label
_atom_site_type_symbol
_atom_site_fract_x
_atom_site_fract_y
_atom_site_fract_z
Pr1 Pr 0.85123(2) 0.79452(3) 0.23042(2)
O1 O 0.8758(4) 0.4791(4) 0.0305(3)
O2 O 0.8696(3) 0.5976(4) 0.1557(3)
O3 O 0.8648(4) 0.9919(4) 0.1434(3)
O4 O 0.8735(5) 1.1000(5) 0.0133(4)
O5 O 0.7821(3) 0.9291(4) 0.3457(3)
O6 O 0.7847(3) 1.1043(4) 0.4210(4)
O7 O 1.0465(3) 0.7807(3) 0.2266(3)
O8 O 1.2154(3) 0.8340(4) 0.2808(3)
O9 O 0.6742(4) 0.8468(6) 0.1325(5)
O10 O 0.9374(4) 0.6831(5) 0.3751(4)
N1 N 0.8679(4) 0.7895(4) 0.0485(4)
N2 N 0.9802(3) 0.9483(4) 0.3319(3)
C1 C 0.8681(5) 0.9990(6) 0.0583(5)
C2 C 0.8660(5) 0.8912(6) -0.0024(5)
C3 C 0.8642(7) 0.8915(8) -0.1007(6)
H1 H 0.8627 0.9628 -0.1349
C4 C 0.8646(9) 0.7835(7) -0.1466(7)
H2 H 0.8632 0.7813 -0.2130
C5 C 0.8671(7) 0.6787(8) -0.0954(6)
H3 H 0.8672 0.6052 -0.1262
C6 C 0.8694(5) 0.6854(6) 0.0033(5)
C7 C 0.8715(5) 0.5796(6) 0.0673(5)
C8 C 0.8270(5) 1.0246(6) 0.3813(4)
C9 C 0.9409(4) 1.0387(5) 0.3737(4)
C10 C 1.0009(5) 1.1380(5) 0.4084(5)
H4 H 0.9708 1.2020 0.4350
C11 C 1.1054(5) 1.1398(6) 0.4027(5)
H5 H 1.1477 1.2049 0.4266
C12 C 1.1479(4) 1.0454(5) 0.3617(4)
H6 H 1.2191 1.0450 0.3581
C13 C 1.0828(4) 0.9516(5) 0.3261(4)
C14 C 1.1186(5) 0.8463(5) 0.2740(4)
H7 H 0.911(6) 0.632(8) 0.415(6)
H8 H 1.000(5) 0.696(4) 0.381(4)
H9 H 0.649(5) 0.848(6) 0.162(5)
H10 H 0.718(14) 0.834(16) 0.098(13)
O8C O 0.7154(3) 0.6660(4) 0.2808(3)
Pr1C Pr 1.35123(2) 0.70548(3) 0.23042(2)
O11 O 0.1489(4) 0.6917(6) 0.4583(5)
H11 H 0.168(6) 0.734(7) 0.486(5)
H12 H 0.194(7) 0.666(8) 0.436(6)
O12 O 0.9023(4) 0.5577(5) 0.5300(4)
H13 H 0.845(5) 0.573(4) 0.541(4)
H14 H 0.935(10) 0.470(12) 0.554(9)
O13 O 0.0845(7) 0.5966(6) 0.7011(6)
H15 H 0.103(11) 0.504(13) 0.763(10)
H16 H 0.003(4) 0.588(4) 0.721(4)
O14 O 0.8840(8) 0.2743(8) 0.1225(7)
H17 H 0.899(7) 0.267(8) 0.177(7)
H18 H 0.890(12) 0.333(15) 0.138(13)
loop_
_geom_bond_atom_site_label_1
_geom_bond_atom_site_label_2
_geom_bond_site_symmetry_1
_geom_bond_site_symmetry_2
Pr1 O2 1_555 1_555
O1 C7 1_555 1_555
O2 C7 1_555 1_555
O3 Pr1 1_555 1_555
O4 C1 1_555 1_555
O5 Pr1 1_555 1_555
O6 C8 1_555 1_555
O7 Pr1 1_555 1_555
O8 C14 1_555 1_555
O9 Pr1 1_555 1_555
O10 Pr1 1_555 1_555
N1 Pr1 1_555 1_555
N2 Pr1 1_555 1_555
C1 O3 1_555 1_555
C2 N1 1_555 1_555
C3 C2 1_555 1_555
H1 C3 1_555 1_555
C4 C3 1_555 1_555
H2 C4 1_555 1_555
C5 C4 1_555 1_555
H3 C5 1_555 1_555
C6 N1 1_555 1_555
C7 C6 1_555 1_555
C8 O5 1_555 1_555
C9 N2 1_555 1_555
C10 C9 1_555 1_555
H4 C10 1_555 1_555
C11 C10 1_555 1_555
H5 C11 1_555 1_555
C12 C11 1_555 1_555
H6 C12 1_555 1_555
C13 N2 1_555 1_555
C14 O7 1_555 1_555
H7 O10 1_555 1_555
H8 O10 1_555 1_555
H9 O9 1_555 1_555
H10 O9 1_555 1_555
O11 H11 1_555 1_555
H12 O11 1_555 1_555
O12 H13 1_555 1_555
H14 O12 1_555 1_555
O13 H15 1_555 1_555
H16 O13 1_555 1_555
O14 H17 1_555 1_555
H18 O14 1_555 1_555
O8C Pr1 1_555 1_555
Pr1C O8 1_555 1_555
C1 C2 1_555 1_555
C5 C6 1_555 1_555
C8 C9 1_555 1_555
C12 C13 1_555 1_555
C13 C14 1_555 1_555

#END
