
#######################################################################
#
#                 Cambridge Crystallographic Data Centre
#                                CCDC 
#
#######################################################################
#
# If this CIF has been generated from an entry in the Cambridge 
# Structural Database, then it will include bibliographic, chemical, 
# crystal, experimental, refinement or atomic coordinate data resulting 
# from the CCDC's data processing and validation procedures.
#
#######################################################################

data_ARUKUT
_symmetry_cell_setting           monoclinic
_symmetry_space_group_name_H-M   'P 21/n'
_symmetry_Int_Tables_number      14
_space_group_name_Hall           '-P 2yn'
loop_
_symmetry_equiv_pos_site_id
_symmetry_equiv_pos_as_xyz
1 x,y,z
2 1/2+x,1/2-y,1/2+z
3 -x,-y,-z
4 1/2-x,1/2+y,1/2-z
_cell_length_a                   15.9623(3)
_cell_length_b                   7.5837(1)
_cell_length_c                   18.1181(3)
_cell_angle_alpha                90
_cell_angle_beta                 99.95
_cell_angle_gamma                90
_cell_volume                     2160.27
loop_
_atom_site_label
_atom_site_type_symbol
_atom_site_fract_x
_atom_site_fract_y
_atom_site_fract_z
Cd1 Cd -0.105374(12) 1.09314(2) -0.380377(11)
Cd2 Cd 0.171040(13) 1.11681(3) -0.367175(11)
O1 O -0.09543(13) 1.0913(3) -0.24299(12)
O2 O 0.03771(12) 1.1024(2) -0.33368(11)
O3 O 0.19876(13) 1.1470(3) -0.23775(12)
O4 O 0.17203(17) 1.1271(4) -0.08052(14)
O5 O -0.01367(17) 1.1169(4) -0.08368(13)
O6 O -0.10825(13) 1.2758(2) -0.49053(11)
O7 O -0.08737(15) 1.3981(2) -0.34167(11)
O8 O -0.08871(14) 1.7948(3) -0.34395(11)
O9 O -0.12430(14) 1.9000(2) -0.49853(11)
O10 O -0.13604(15) 1.5931(2) -0.59345(12)
O11 O 0.16838(15) 0.8195(3) -0.35972(13)
H1 H 0.151(2) 0.776(5) -0.4057(10)
H2 H 0.2154(14) 0.761(4) -0.3407(19)
N1 N -0.24654(16) 1.0971(3) -0.38007(15)
N2 N -0.68713(17) 1.1360(4) -0.36910(15)
C1 C -0.01817(19) 1.1005(3) -0.21752(16)
C2 C 0.04873(18) 1.1070(3) -0.26190(16)
C3 C 0.12881(19) 1.1260(4) -0.21432(17)
C4 C 0.1168(2) 1.1221(5) -0.13631(18)
C5 C 0.0225(2) 1.1114(4) -0.13750(18)
C6 C -0.10733(18) 1.4360(4) -0.47397(16)
C7 C -0.09514(18) 1.4980(4) -0.39651(15)
C8 C -0.09742(17) 1.6917(4) -0.39749(15)
C9 C -0.11417(17) 1.7427(3) -0.47558(15)
C10 C -0.12037(19) 1.5896(3) -0.52377(16)
C11 C -0.3004(2) 1.1800(6) -0.4323(2)
H3 H -0.2791 1.2309 -0.4719
C12 C -0.3860(2) 1.1955(6) -0.4317(2)
H4 H -0.4207 1.2565 -0.4697
C13 C -0.4199(2) 1.1207(4) -0.37466(18)
C14 C -0.3643(2) 1.0294(6) -0.3210(2)
H5 H -0.3844 0.9744 -0.2816
C15 C -0.2796(2) 1.0201(6) -0.3259(2)
H6 H -0.2436 0.9568 -0.2895
C16 C -0.51298(19) 1.1297(4) -0.37217(18)
C17 C -0.5715(2) 1.1725(6) -0.4348(2)
H7 H -0.5533 1.2004 -0.4795
C18 C -0.6564(2) 1.1740(6) -0.4311(2)
H8 H -0.6947 1.2031 -0.4741
C19 C -0.6300(2) 1.0980(4) -0.30765(19)
H9 H -0.6496 1.0738 -0.2633
C20 C -0.5440(2) 1.0932(5) -0.3074(2)
H10 H -0.5067 1.0655 -0.2636
O8_2 O -0.08871(14) 0.7948(3) -0.34395(11)
O9_2 O -0.12430(14) 0.9000(2) -0.49853(11)
O9B O 0.12430(14) 1.1000(2) -0.50147(11)
O10B O 0.13604(15) 1.4069(2) -0.40655(12)
N2_2 N 0.31287(17) 1.1360(4) -0.36910(15)
Cd1_2 Cd -0.105374(12) 2.09314(2) -0.380377(11)
Cd2B Cd -0.171040(13) 1.88319(3) -0.632825(11)
Cd2_2 Cd -0.828960(13) 1.11681(3) -0.367175(11)
O12 O -0.2055(3) 1.1139(8) -0.0952(4)
H11 H -0.1496(17) 1.103(10) -0.076(5)
H12 H -0.223(6) 1.059(12) -0.139(3)
loop_
_geom_bond_atom_site_label_1
_geom_bond_atom_site_label_2
_geom_bond_site_symmetry_1
_geom_bond_site_symmetry_2
Cd1 O1 1_555 1_555
Cd2 O2 1_555 1_555
O1 C1 1_555 1_555
O2 Cd1 1_555 1_555
O3 Cd2 1_555 1_555
O4 C4 1_555 1_555
O5 C5 1_555 1_555
O6 Cd1 1_555 1_555
O7 Cd1 1_555 1_555
O8 C8 1_555 1_555
O9 C9 1_555 1_555
O10 C10 1_555 1_555
O11 Cd2 1_555 1_555
H1 O11 1_555 1_555
H2 O11 1_555 1_555
N1 Cd1 1_555 1_555
N2 C18 1_555 1_555
C1 C2 1_555 1_555
C2 O2 1_555 1_555
C3 O3 1_555 1_555
C4 C3 1_555 1_555
C5 C1 1_555 1_555
C6 O6 1_555 1_555
C7 O7 1_555 1_555
C8 C7 1_555 1_555
C9 C8 1_555 1_555
C10 C6 1_555 1_555
C11 N1 1_555 1_555
H3 C11 1_555 1_555
C12 C11 1_555 1_555
H4 C12 1_555 1_555
C13 C12 1_555 1_555
C14 C13 1_555 1_555
H5 C14 1_555 1_555
C15 N1 1_555 1_555
H6 C15 1_555 1_555
C16 C13 1_555 1_555
C17 C16 1_555 1_555
H7 C17 1_555 1_555
C18 C17 1_555 1_555
H8 C18 1_555 1_555
C19 N2 1_555 1_555
H9 C19 1_555 1_555
C20 C16 1_555 1_555
H10 C20 1_555 1_555
O12 H11 1_555 1_555
H12 O12 1_555 1_555
O8_2 Cd1 1_555 1_555
O9_2 Cd1 1_555 1_555
O9B Cd2 1_555 1_555
O10B Cd2 1_555 1_555
N2_2 Cd2 1_555 1_555
Cd1_2 O8 1_555 1_555
Cd2B O9 1_555 1_555
Cd2_2 N2 1_555 1_555
O9 Cd1_2 1_555 1_555
O10 Cd2B 1_555 1_555
C2 C3 1_555 1_555
C4 C5 1_555 1_555
C6 C7 1_555 1_555
C9 C10 1_555 1_555
C14 C15 1_555 1_555
C19 C20 1_555 1_555

#END
