
#######################################################################
#
#                 Cambridge Crystallographic Data Centre
#                                CCDC 
#
#######################################################################
#
# If this CIF has been generated from an entry in the Cambridge 
# Structural Database, then it will include bibliographic, chemical, 
# crystal, experimental, refinement or atomic coordinate data resulting 
# from the CCDC's data processing and validation procedures.
#
#######################################################################

data_ARUYES
_symmetry_cell_setting           monoclinic
_symmetry_space_group_name_H-M   'P 21/c'
_symmetry_Int_Tables_number      14
_space_group_name_Hall           '-P 2ybc'
loop_
_symmetry_equiv_pos_site_id
_symmetry_equiv_pos_as_xyz
1 x,y,z
2 -x,1/2+y,1/2-z
3 -x,-y,-z
4 x,1/2-y,1/2+z
_cell_length_a                   7.0800(1)
_cell_length_b                   17.3265(4)
_cell_length_c                   20.8512(5)
_cell_angle_alpha                90
_cell_angle_beta                 100.304(15)
_cell_angle_gamma                90
_cell_volume                     2516.6
loop_
_atom_site_label
_atom_site_type_symbol
_atom_site_fract_x
_atom_site_fract_y
_atom_site_fract_z
C1 C 0.8154(6) 0.0892(3) 0.3252(2)
C2 C 0.9201(7) 0.0295(3) 0.2934(2)
C3 C 1.1086(7) 0.0438(3) 0.2848(2)
H1 H 1.1704 0.0891 0.3008
C4 C 0.8269(7) -0.0378(3) 0.2690(3)
H2 H 0.7013 -0.0470 0.2744
C5 C 0.9209(7) -0.0910(3) 0.2366(3)
H3 H 0.8591 -0.1362 0.2205
C6 C 1.2030(7) -0.0098(3) 0.2524(3)
H4 H 1.3287 -0.0010 0.2469
C7 C 1.1084(6) -0.0768(3) 0.2282(2)
C8 C 1.2111(7) -0.1344(3) 0.1926(2)
C9 C 1.3845(6) 0.2774(3) 0.7506(2)
C10 C 1.2554(6) 0.2785(3) 0.6848(2)
C11 C 1.3336(7) 0.2754(3) 0.6281(2)
H5 H 1.4662 0.2744 0.6309
C12 C 1.0566(6) 0.2822(3) 0.6804(2)
H6 H 1.0034 0.2844 0.7181
C13 C 0.9387(7) 0.2826(3) 0.6197(3)
H7 H 0.8064 0.2866 0.6167
C14 C 1.2160(7) 0.2740(3) 0.5678(2)
H8 H 1.2694 0.2711 0.5302
C15 C 1.0171(7) 0.2770(3) 0.5630(2)
C16 C 0.8873(6) 0.2725(3) 0.4975(2)
C17 C 1.5565(10) 0.0722(5) 0.6021(4)
H9 H 1.4810 0.0421 0.6268
H10 H 1.6018 0.1179 0.6261
H11 H 1.6641 0.0423 0.5942
C18 C 1.2370(8) 0.0727(4) 0.5305(4)
H12 H 1.2149 0.0425 0.5670
H13 H 1.2040 0.0429 0.4913
H14 H 1.1591 0.1183 0.5272
C19 C 1.5068(8) 0.1363(3) 0.4959(3)
H15 H 1.6363 0.1491 0.5056
C20 C 1.4428(10) 0.5477(4) 0.4059(4)
H16 H 1.3752 0.5957 0.4062
H17 H 1.4785 0.5404 0.3640
H18 H 1.5561 0.5487 0.4390
C21 C 1.1220(9) 0.5050(4) 0.4224(4)
H19 H 1.1076 0.5601 0.4199
H20 H 1.0916 0.4869 0.4628
H21 H 1.0368 0.4815 0.3867
C22 C 1.3787(8) 0.4116(3) 0.4211(3)
H22 H 1.5063 0.4027 0.4180
N1 N 1.4378(6) 0.0943(3) 0.5395(2)
N2 N 1.3191(7) 0.4846(3) 0.4188(2)
O1 O 0.9021(4) 0.15427(18) 0.33781(16)
O2 O 0.6537(5) 0.0783(2) 0.33826(19)
O3 O 1.3806(5) -0.12571(19) 0.18612(18)
O4 O 1.1119(4) -0.19392(19) 0.16886(16)
O5 O 1.5648(4) 0.28097(19) 0.75286(17)
O6 O 1.3111(4) 0.27264(19) 0.80099(16)
O7 O 0.9378(5) 0.22616(19) 0.45638(16)
O8 O 0.7362(5) 0.3103(2) 0.48628(19)
O9 O 1.4160(5) 0.1600(2) 0.44380(18)
O10 O 1.2783(6) 0.3551(2) 0.4269(2)
Na1 Na 1.1656(2) 0.23795(11) 0.38780(9)
Bi1 Bi 0.67085(2) 0.230068(9) 0.365375(8)
O4A O 0.8881(4) 0.30608(19) 0.33114(16)
O5C O 0.5648(4) 0.21903(19) 0.25286(17)
O6C O 1.3111(4) 0.22736(19) 0.30099(16)
Na1A Na 0.8344(2) -0.26205(11) 0.11220(9)
Na1C Na 1.1656(2) 0.26205(11) 0.88780(9)
Bi1A Bi 1.32915(2) -0.269932(9) 0.134625(8)
Bi1C Bi 1.67085(2) 0.269932(9) 0.865375(8)
loop_
_geom_bond_atom_site_label_1
_geom_bond_atom_site_label_2
_geom_bond_site_symmetry_1
_geom_bond_site_symmetry_2
C1 C2 1_555 1_555
C2 C3 1_555 1_555
C3 H1 1_555 1_555
C4 C2 1_555 1_555
H2 C4 1_555 1_555
C5 C4 1_555 1_555
H3 C5 1_555 1_555
C6 C3 1_555 1_555
H4 C6 1_555 1_555
C7 C5 1_555 1_555
C8 C7 1_555 1_555
C9 C10 1_555 1_555
C10 C11 1_555 1_555
C11 H5 1_555 1_555
C12 C10 1_555 1_555
H6 C12 1_555 1_555
C13 C12 1_555 1_555
H7 C13 1_555 1_555
C14 C11 1_555 1_555
H8 C14 1_555 1_555
C15 C13 1_555 1_555
C16 C15 1_555 1_555
C17 H9 1_555 1_555
H10 C17 1_555 1_555
H11 C17 1_555 1_555
C18 H12 1_555 1_555
H13 C18 1_555 1_555
H14 C18 1_555 1_555
C19 H15 1_555 1_555
C20 H16 1_555 1_555
H17 C20 1_555 1_555
H18 C20 1_555 1_555
C21 H19 1_555 1_555
H20 C21 1_555 1_555
H21 C21 1_555 1_555
C22 H22 1_555 1_555
N1 C17 1_555 1_555
N2 C20 1_555 1_555
O1 C1 1_555 1_555
O2 C1 1_555 1_555
O3 C8 1_555 1_555
O4 C8 1_555 1_555
O5 C9 1_555 1_555
O6 C9 1_555 1_555
O7 C16 1_555 1_555
O8 C16 1_555 1_555
O9 C19 1_555 1_555
O10 C22 1_555 1_555
Na1 O1 1_555 1_555
Bi1 O1 1_555 1_555
O4A Na1 1_555 1_555
O5C Bi1 1_555 1_555
O6C Na1 1_555 1_555
Na1A O4 1_555 1_555
Na1C O6 1_555 1_555
Bi1A O4 1_555 1_555
Bi1C O5 1_555 1_555
C6 C7 1_555 1_555
C14 C15 1_555 1_555
C18 N1 1_555 1_555
C19 N1 1_555 1_555
C21 N2 1_555 1_555
C22 N2 1_555 1_555
O7 Na1 1_555 1_555
O7 Bi1 1_555 1_555
O9 Na1 1_555 1_555
O10 Na1 1_555 1_555
Bi1 O4A 1_555 1_555

#END
