
#######################################################################
#
#                 Cambridge Crystallographic Data Centre
#                                CCDC 
#
#######################################################################
#
# If this CIF has been generated from an entry in the Cambridge 
# Structural Database, then it will include bibliographic, chemical, 
# crystal, experimental, refinement or atomic coordinate data resulting 
# from the CCDC's data processing and validation procedures.
#
#######################################################################

data_ASABOL
_symmetry_cell_setting           triclinic
_symmetry_space_group_name_H-M   'P -1'
_symmetry_Int_Tables_number      2
_space_group_name_Hall           '-P 1'
loop_
_symmetry_equiv_pos_site_id
_symmetry_equiv_pos_as_xyz
1 x,y,z
2 -x,-y,-z
_cell_length_a                   8.265(2)
_cell_length_b                   10.166(2)
_cell_length_c                   15.354(3)
_cell_angle_alpha                81.32(3)
_cell_angle_beta                 75.43(3)
_cell_angle_gamma                69.44(3)
_cell_volume                     1166.27
loop_
_atom_site_label
_atom_site_type_symbol
_atom_site_fract_x
_atom_site_fract_y
_atom_site_fract_z
Au1 Au 0.5000 0.5000 0.0000
Cl1 Cl 0.2502(2) 0.56160(14) 0.11077(9)
Cl2 Cl 0.6653(2) 0.50274(14) 0.09749(10)
K1 K 0.06634(11) 0.80342(10) -0.03546(6)
N1 N -0.1459(4) 0.7382(4) -0.2928(2)
C1 C 0.0243(5) 0.7025(5) -0.3601(3)
H1 H 0.0902(5) 0.7616(5) -0.3539(3)
H2 H 0.0003(5) 0.7225(5) -0.4202(3)
C2 C 0.1347(7) 0.5511(6) -0.3493(4)
H3 H 0.2429(18) 0.5329(9) -0.3942(12)
H4 H 0.0708(17) 0.4921(6) -0.3563(19)
H5 H 0.1613(31) 0.5314(9) -0.2903(8)
C3 C -0.1447(5) 0.7639(4) -0.2076(3)
O1 O -0.0124(4) 0.7611(3) -0.1850(2)
N2 N -0.3084(4) 0.7968(4) -0.1488(2)
H6 H -0.3193(54) 0.8202(44) -0.0874(28)
C4 C -0.4662(5) 0.8042(4) -0.1672(3)
O2 O -0.6028(3) 0.8352(3) -0.1067(2)
C5 C -0.4577(5) 0.7746(5) -0.2571(3)
C6 C -0.6244(6) 0.7802(6) -0.2830(3)
H7 H -0.7082(16) 0.8737(9) -0.2773(19)
H8 H -0.6742(22) 0.7147(23) -0.2438(13)
H9 H -0.5971(9) 0.7559(32) -0.3443(7)
C7 C -0.3008(5) 0.7438(5) -0.3142(3)
H10 H -0.2953(5) 0.7248(5) -0.3724(3)
N3 N 0.2711(4) 0.8831(4) 0.2202(2)
C8 C 0.1122(5) 0.8920(5) 0.2925(3)
H11 H 0.1063(5) 0.9518(5) 0.3377(3)
H12 H 0.0073(5) 0.9345(5) 0.2674(3)
C9 C 0.1156(7) 0.7485(6) 0.3362(3)
H13 H 0.0082(18) 0.7566(7) 0.3808(14)
H14 H 0.1257(39) 0.6883(11) 0.2912(4)
H15 H 0.2149(23) 0.7090(14) 0.3646(17)
C10 C 0.2576(5) 0.8953(4) 0.1318(2)
O3 O 0.1190(3) 0.9227(3) 0.1064(2)
N4 N 0.4170(4) 0.8727(4) 0.0706(2)
H16 H 0.4091(58) 0.8820(46) 0.0203(28)
C11 C 0.5806(5) 0.8459(4) 0.0882(2)
O4 O 0.7128(3) 0.8315(3) 0.0256(2)
C12 C 0.5863(5) 0.8374(4) 0.1822(3)
C13 C 0.7599(6) 0.8079(5) 0.2057(3)
H17 H 0.8395(13) 0.7191(14) 0.1839(17)
H18 H 0.8083(18) 0.8812(16) 0.1783(16)
H19 H 0.7443(8) 0.8042(30) 0.2700(3)
C14 C 0.4318(5) 0.8556(4) 0.2422(3)
H20 H 0.4337(5) 0.8490(4) 0.3030(3)
Cl1A Cl 0.7498(2) 0.43840(14) -0.11077(9)
Cl2A Cl 0.3347(2) 0.49726(14) -0.09749(10)
K1A K 0.93366(11) 0.19658(10) 0.03546(6)
N1_2 N 0.8541(4) 0.7382(4) -0.2928(2)
C1_2 C 1.0243(5) 0.7025(5) -0.3601(3)
H1_2 H 1.0902(5) 0.7616(5) -0.3539(3)
H2_2 H 1.0003(5) 0.7225(5) -0.4202(3)
C2_2 C 1.1347(7) 0.5511(6) -0.3493(4)
H3_2 H 1.2429(18) 0.5329(9) -0.3942(12)
H4_2 H 1.0708(17) 0.4921(6) -0.3563(19)
H5_2 H 1.1613(31) 0.5314(9) -0.2903(8)
C3_2 C 0.8553(5) 0.7639(4) -0.2076(3)
O1_2 O 0.9876(4) 0.7611(3) -0.1850(2)
N2_2 N 0.6916(4) 0.7968(4) -0.1488(2)
H6_2 H 0.6807(54) 0.8202(44) -0.0874(28)
C4_2 C 0.5338(5) 0.8042(4) -0.1672(3)
O2_2 O 0.3972(3) 0.8352(3) -0.1067(2)
C5_2 C 0.5423(5) 0.7746(5) -0.2571(3)
C6_2 C 0.3756(6) 0.7802(6) -0.2830(3)
H7_2 H 0.2918(16) 0.8737(9) -0.2773(19)
H8_2 H 0.3258(22) 0.7147(23) -0.2438(13)
H9_2 H 0.4029(9) 0.7559(32) -0.3443(7)
C7_2 C 0.6992(5) 0.7438(5) -0.3142(3)
H10_2 H 0.7047(5) 0.7248(5) -0.3724(3)
N3A N -0.2711(4) 1.1169(4) -0.2202(2)
C8A C -0.1122(5) 1.1080(5) -0.2925(3)
H11A H -0.1063(5) 1.0482(5) -0.3377(3)
H12A H -0.0073(5) 1.0655(5) -0.2674(3)
C9A C -0.1156(7) 1.2515(6) -0.3362(3)
H13A H -0.0082(18) 1.2434(7) -0.3808(14)
H14A H -0.1257(39) 1.3117(11) -0.2912(4)
H15A H -0.2149(23) 1.2910(14) -0.3646(17)
C10A C -0.2576(5) 1.1047(4) -0.1318(2)
O3A O -0.1190(3) 1.0773(3) -0.1064(2)
N4A N -0.4170(4) 1.1273(4) -0.0706(2)
H16A H -0.4091(58) 1.1180(46) -0.0203(28)
C11A C -0.5806(5) 1.1541(4) -0.0882(2)
O4A O -0.7128(3) 1.1685(3) -0.0256(2)
C12A C -0.5863(5) 1.1626(4) -0.1822(3)
C13A C -0.7599(6) 1.1921(5) -0.2057(3)
H17A H -0.8395(13) 1.2809(14) -0.1839(17)
H18A H -0.8083(18) 1.1188(16) -0.1783(16)
H19A H -0.7443(8) 1.1958(30) -0.2700(3)
C14A C -0.4318(5) 1.1444(4) -0.2422(3)
H20A H -0.4337(5) 1.1510(4) -0.3030(3)
O4_2 O -0.2872(3) 0.8315(3) 0.0256(2)
K1_2 K -0.93366(11) 0.80342(10) -0.03546(6)
K1A_2 K -0.06634(11) 1.19658(10) 0.03546(6)
K1_3 K 1.06634(11) 0.80342(10) -0.03546(6)
O1A O 1.0124(4) 0.2389(3) 0.1850(2)
O2A O 0.6028(3) 0.1648(3) 0.1067(2)
O3_2 O 1.1190(3) -0.0773(3) 0.1064(2)
O3A_2 O 0.8810(3) 0.0773(3) -0.1064(2)
O4A_2 O 1.2872(3) 0.1685(3) -0.0256(2)
K1A_3 K -1.06634(11) 1.19658(10) 0.03546(6)
Au2 Au 1.5000 0.0000 0.5000
Cl3 Cl 1.3786(2) 0.22717(12) 0.53995(7)
Cl4 Cl 1.77148(15) 0.00486(14) 0.50534(8)
Cl3A Cl 1.6214(2) -0.22717(12) 0.46005(7)
Cl4A Cl 1.22852(15) -0.00486(14) 0.49466(8)
loop_
_geom_bond_atom_site_label_1
_geom_bond_atom_site_label_2
_geom_bond_site_symmetry_1
_geom_bond_site_symmetry_2
Au1 Cl1 1_555 1_555
Au2 Cl3 1_555 1_555
Cl1 K1 1_555 1_555
Cl2 Au1 1_555 1_555
Cl4 Au2 1_555 1_555
K1 O1 1_555 1_555
N1 C1 1_555 1_555
C1 H1 1_555 1_555
H2 C1 1_555 1_555
C2 C1 1_555 1_555
H3 C2 1_555 1_555
H4 C2 1_555 1_555
H5 C2 1_555 1_555
C3 N1 1_555 1_555
O1 C3 1_555 1_555
N2 C3 1_555 1_555
H6 N2 1_555 1_555
C4 N2 1_555 1_555
O2 C4 1_555 1_555
C5 C4 1_555 1_555
C6 C5 1_555 1_555
H7 C6 1_555 1_555
H8 C6 1_555 1_555
H9 C6 1_555 1_555
C7 N1 1_555 1_555
H10 C7 1_555 1_555
N3 C8 1_555 1_555
C8 H11 1_555 1_555
H12 C8 1_555 1_555
C9 C8 1_555 1_555
H13 C9 1_555 1_555
H14 C9 1_555 1_555
H15 C9 1_555 1_555
C10 N3 1_555 1_555
O3 K1 1_555 1_555
N4 C10 1_555 1_555
H16 N4 1_555 1_555
C11 N4 1_555 1_555
O4 C11 1_555 1_555
C12 C11 1_555 1_555
C13 C12 1_555 1_555
H17 C13 1_555 1_555
H18 C13 1_555 1_555
H19 C13 1_555 1_555
C14 N3 1_555 1_555
H20 C14 1_555 1_555
Cl1A Au1 1_555 1_555
Cl2A Au1 1_555 1_555
K1A Cl2 1_555 1_555
N1_2 C1_2 1_555 1_555
C1_2 H1_2 1_555 1_555
H2_2 C1_2 1_555 1_555
C2_2 C1_2 1_555 1_555
H3_2 C2_2 1_555 1_555
H4_2 C2_2 1_555 1_555
H5_2 C2_2 1_555 1_555
C3_2 N1_2 1_555 1_555
O1_2 C3_2 1_555 1_555
N2_2 C3_2 1_555 1_555
H6_2 N2_2 1_555 1_555
C4_2 N2_2 1_555 1_555
O2_2 K1 1_555 1_555
C5_2 C4_2 1_555 1_555
C6_2 C5_2 1_555 1_555
H7_2 C6_2 1_555 1_555
H8_2 C6_2 1_555 1_555
H9_2 C6_2 1_555 1_555
C7_2 N1_2 1_555 1_555
H10_2 C7_2 1_555 1_555
N3A C8A 1_555 1_555
C8A H11A 1_555 1_555
H12A C8A 1_555 1_555
C9A C8A 1_555 1_555
H13A C9A 1_555 1_555
H14A C9A 1_555 1_555
H15A C9A 1_555 1_555
C10A N3A 1_555 1_555
O3A K1 1_555 1_555
N4A C10A 1_555 1_555
H16A N4A 1_555 1_555
C11A N4A 1_555 1_555
O4A C11A 1_555 1_555
C12A C11A 1_555 1_555
C13A C12A 1_555 1_555
H17A C13A 1_555 1_555
H18A C13A 1_555 1_555
H19A C13A 1_555 1_555
C14A N3A 1_555 1_555
H20A C14A 1_555 1_555
Cl3A Au2 1_555 1_555
Cl4A Au2 1_555 1_555
O4_2 K1 1_555 1_555
K1_2 O2 1_555 1_555
K1A_2 O3 1_555 1_555
K1_3 O4 1_555 1_555
O1A K1A 1_555 1_555
O2A K1A 1_555 1_555
O3_2 K1A 1_555 1_555
O3A_2 K1A 1_555 1_555
O4A_2 K1A 1_555 1_555
K1A_3 O4A 1_555 1_555
K1 Cl2A 1_555 1_555
C5 C7 1_555 1_555
C10 O3 1_555 1_555
C12 C14 1_555 1_555
Cl1A K1A 1_555 1_555
O1_2 K1_3 1_555 1_555
C4_2 O2_2 1_555 1_555
C5_2 C7_2 1_555 1_555
C10A O3A 1_555 1_555
O3A K1A_2 1_555 1_555
C12A C14A 1_555 1_555

#END
