
#######################################################################
#
#                 Cambridge Crystallographic Data Centre
#                                CCDC 
#
#######################################################################
#
# If this CIF has been generated from an entry in the Cambridge 
# Structural Database, then it will include bibliographic, chemical, 
# crystal, experimental, refinement or atomic coordinate data resulting 
# from the CCDC's data processing and validation procedures.
#
#######################################################################

data_ASABIF
_symmetry_cell_setting           triclinic
_symmetry_space_group_name_H-M   'P -1'
_symmetry_Int_Tables_number      2
_space_group_name_Hall           '-P 1'
loop_
_symmetry_equiv_pos_site_id
_symmetry_equiv_pos_as_xyz
1 x,y,z
2 -x,-y,-z
_cell_length_a                   8.528(2)
_cell_length_b                   8.836(2)
_cell_length_c                   12.572(3)
_cell_angle_alpha                88.90(3)
_cell_angle_beta                 89.04(3)
_cell_angle_gamma                81.32(3)
_cell_volume                     936.228
loop_
_atom_site_label
_atom_site_type_symbol
_atom_site_fract_x
_atom_site_fract_y
_atom_site_fract_z
Au1 Au 0.0000 0.0000 0.0000
Cl1 Cl 0.0287(3) 0.2291(2) -0.07807(14)
Cl2 Cl 0.2653(3) -0.0737(3) -0.0069(2)
Cl1A Cl -0.0287(3) -0.2291(2) 0.07807(14)
Cl2A Cl -0.2653(3) 0.0737(3) 0.0069(2)
K1 K -0.5000 0.5000 -0.5000
N1 N -0.1431(5) 0.5782(6) -0.2189(3)
C1 C -0.2837(7) 0.6491(9) -0.1559(5)
H1 H -0.2658(7) 0.7483(9) -0.1312(5)
H2 H -0.3762(7) 0.6647(9) -0.2010(5)
C2 C -0.3133(9) 0.5530(11) -0.0656(6)
H3 H -0.4034(30) 0.6016(23) -0.0259(18)
H4 H -0.2219(20) 0.5377(40) -0.0209(18)
H5 H -0.3341(47) 0.4558(19) -0.0902(6)
C3 C -0.1656(6) 0.4892(7) -0.3043(4)
O1 O -0.2954(4) 0.4604(5) -0.3298(3)
N2 N -0.0295(5) 0.4361(5) -0.3605(3)
H6 H -0.0395(5) 0.3774(5) -0.4129(3)
C4 C 0.1208(6) 0.4666(6) -0.3418(4)
O2 O 0.2312(4) 0.4166(5) -0.4014(3)
C5 C 0.1390(6) 0.5557(6) -0.2482(4)
C6 C 0.2973(6) 0.5916(7) -0.2219(5)
H7 H 0.3384(22) 0.6448(42) -0.2809(14)
H8 H 0.3676(15) 0.4983(8) -0.2074(33)
H9 H 0.2888(10) 0.6550(41) -0.1603(21)
C7 C 0.0053(6) 0.6060(6) -0.1926(4)
H10 H 0.0144(6) 0.6633(6) -0.1323(4)
N3 N -0.3409(6) 0.9813(9) -0.3281(6)
C8 C -0.4772(12) 1.0112(17) -0.2507(10)
H11 H -0.5594(12) 0.9507(17) -0.2671(10)
H12 H -0.4425(12) 0.9877(17) -0.1783(10)
C9 C -0.5325(18) 1.1698(17) -0.2644(16)
H13 H -0.6251(46) 1.1980(22) -0.2204(39)
H14 H -0.5589(68) 1.1914(20) -0.3376(18)
H15 H -0.4511(32) 1.2274(17) -0.2444(48)
C10 C -0.3544(8) 0.8673(10) -0.3999(5)
O3 O -0.4796(5) 0.8220(8) -0.4210(4)
N4 N -0.2146(5) 0.8042(6) -0.4438(3)
H16 H -0.2197(5) 0.7360(6) -0.4909(3)
C11 C -0.0664(6) 0.8352(6) -0.4226(4)
O4 O 0.0497(4) 0.7635(5) -0.4681(3)
C12 C -0.0574(6) 0.9529(6) -0.3455(4)
C13 C 0.1018(6) 0.9905(6) -0.3169(4)
H17 H 0.1688(17) 0.9852(47) -0.3793(8)
H18 H 0.1489(22) 0.9183(29) -0.2643(24)
H19 H 0.0897(8) 1.0919(19) -0.2890(31)
C14 C -0.1926(7) 1.0185(9) -0.3053(6)
H20 H -0.1891(7) 1.0967(9) -0.2573(6)
N1A N -0.8569(5) 0.4218(6) -0.7811(3)
C1A C -0.7163(7) 0.3509(9) -0.8441(5)
H1A H -0.7342(7) 0.2517(9) -0.8688(5)
H2A H -0.6238(7) 0.3353(9) -0.7990(5)
C2A C -0.6867(9) 0.4470(11) -0.9344(6)
H3A H -0.5966(30) 0.3984(23) -0.9741(18)
H4A H -0.7781(20) 0.4623(40) -0.9791(18)
H5A H -0.6659(47) 0.5442(19) -0.9098(6)
C3A C -0.8344(6) 0.5108(7) -0.6957(4)
O1A O -0.7046(4) 0.5396(5) -0.6702(3)
N2A N -0.9705(5) 0.5639(5) -0.6395(3)
H6A H -0.9605(5) 0.6226(5) -0.5871(3)
C4A C -1.1208(6) 0.5334(6) -0.6582(4)
O2A O -1.2312(4) 0.5834(5) -0.5986(3)
C5A C -1.1390(6) 0.4443(6) -0.7518(4)
C6A C -1.2973(6) 0.4084(7) -0.7781(5)
H7A H -1.3384(22) 0.3552(42) -0.7191(14)
H8A H -1.3676(15) 0.5017(8) -0.7926(33)
H9A H -1.2888(10) 0.3450(41) -0.8397(21)
C7A C -1.0053(6) 0.3940(6) -0.8074(4)
H10A H -1.0144(6) 0.3367(6) -0.8677(4)
N3A N -0.6591(6) 0.0187(9) -0.6719(6)
C8A C -0.5228(12) -0.0112(17) -0.7493(10)
H11A H -0.4406(12) 0.0493(17) -0.7329(10)
H12A H -0.5575(12) 0.0123(17) -0.8217(10)
C9A C -0.4675(18) -0.1698(17) -0.7356(16)
H13A H -0.3749(46) -0.1980(22) -0.7796(39)
H14A H -0.4411(68) -0.1914(20) -0.6624(18)
H15A H -0.5489(32) -0.2274(17) -0.7556(48)
C10A C -0.6456(8) 0.1327(10) -0.6001(5)
O3A O -0.5204(5) 0.1780(8) -0.5790(4)
N4A N -0.7854(5) 0.1958(6) -0.5562(3)
H16A H -0.7803(5) 0.2640(6) -0.5091(3)
C11A C -0.9336(6) 0.1648(6) -0.5774(4)
O4A O -1.0497(4) 0.2365(5) -0.5319(3)
C12A C -0.9426(6) 0.0471(6) -0.6545(4)
C13A C -1.1018(6) 0.0095(6) -0.6831(4)
H17A H -1.1688(17) 0.0148(47) -0.6207(8)
H18A H -1.1489(22) 0.0817(29) -0.7357(24)
H19A H -1.0897(8) -0.0919(19) -0.7110(31)
C14A C -0.8074(7) -0.0185(9) -0.6947(6)
H20A H -0.8109(7) -0.0967(9) -0.7427(6)
O2_2 O -0.7688(4) 0.4166(5) -0.4014(3)
O2A_2 O -0.2312(4) 0.5834(5) -0.5986(3)
K1_2 K 0.5000 0.5000 -0.5000
K1_3 K -1.5000 0.5000 -0.5000
C15? C -0.4763(18) 1.1091(20) 0.6830(13)
H21? H -0.5531(18) 1.1079(20) 0.6271(13)
H22? H -0.4400(18) 1.2080(20) 0.6827(13)
C16? C -0.5431(20) 1.0714(28) 0.7895(12)
H23? H -0.6391(54) 1.1405(62) 0.8034(29)
H24? H -0.4674(43) 1.0813(89) 0.8436(14)
H25? H -0.5657(85) 0.9682(40) 0.7898(23)
loop_
_geom_bond_atom_site_label_1
_geom_bond_atom_site_label_2
_geom_bond_site_symmetry_1
_geom_bond_site_symmetry_2
Au1 Cl1 1_555 1_555
Cl2 Au1 1_555 1_555
K1 O1 1_555 1_555
N1 C1 1_555 1_555
C1 H1 1_555 1_555
H2 C1 1_555 1_555
C2 C1 1_555 1_555
H3 C2 1_555 1_555
H4 C2 1_555 1_555
H5 C2 1_555 1_555
C3 N1 1_555 1_555
O1 C3 1_555 1_555
N2 C3 1_555 1_555
H6 N2 1_555 1_555
C4 N2 1_555 1_555
O2 C4 1_555 1_555
C5 C4 1_555 1_555
C6 C5 1_555 1_555
H7 C6 1_555 1_555
H8 C6 1_555 1_555
H9 C6 1_555 1_555
C7 N1 1_555 1_555
H10 C7 1_555 1_555
N3 C8 1_555 1_555
C8 H11 1_555 1_555
H12 C8 1_555 1_555
C9 C8 1_555 1_555
H13 C9 1_555 1_555
H14 C9 1_555 1_555
H15 C9 1_555 1_555
C10 N3 1_555 1_555
O3 K1 1_555 1_555
N4 C10 1_555 1_555
H16 N4 1_555 1_555
C11 N4 1_555 1_555
O4 C11 1_555 1_555
C12 C11 1_555 1_555
C13 C12 1_555 1_555
H17 C13 1_555 1_555
H18 C13 1_555 1_555
H19 C13 1_555 1_555
C14 N3 1_555 1_555
H20 C14 1_555 1_555
Cl1A Au1 1_555 1_555
Cl2A Au1 1_555 1_555
N1A C1A 1_555 1_555
C1A H1A 1_555 1_555
H2A C1A 1_555 1_555
C2A C1A 1_555 1_555
H3A C2A 1_555 1_555
H4A C2A 1_555 1_555
H5A C2A 1_555 1_555
C3A N1A 1_555 1_555
O1A K1 1_555 1_555
N2A C3A 1_555 1_555
H6A N2A 1_555 1_555
C4A N2A 1_555 1_555
O2A C4A 1_555 1_555
C5A C4A 1_555 1_555
C6A C5A 1_555 1_555
H7A C6A 1_555 1_555
H8A C6A 1_555 1_555
H9A C6A 1_555 1_555
C7A N1A 1_555 1_555
H10A C7A 1_555 1_555
N3A C8A 1_555 1_555
C8A H11A 1_555 1_555
H12A C8A 1_555 1_555
C9A C8A 1_555 1_555
H13A C9A 1_555 1_555
H14A C9A 1_555 1_555
H15A C9A 1_555 1_555
C10A N3A 1_555 1_555
O3A K1 1_555 1_555
N4A C10A 1_555 1_555
H16A N4A 1_555 1_555
C11A N4A 1_555 1_555
O4A C11A 1_555 1_555
C12A C11A 1_555 1_555
C13A C12A 1_555 1_555
H17A C13A 1_555 1_555
H18A C13A 1_555 1_555
H19A C13A 1_555 1_555
C14A N3A 1_555 1_555
H20A C14A 1_555 1_555
O2_2 K1 1_555 1_555
O2A_2 K1 1_555 1_555
K1_2 O2 1_555 1_555
K1_3 O2A 1_555 1_555
C5 C7 1_555 1_555
C10 O3 1_555 1_555
C12 C14 1_555 1_555
C3A O1A 1_555 1_555
C5A C7A 1_555 1_555
C10A O3A 1_555 1_555
C12A C14A 1_555 1_555

#END
