
#######################################################################
#
#                 Cambridge Crystallographic Data Centre
#                                CCDC 
#
#######################################################################
#
# If this CIF has been generated from an entry in the Cambridge 
# Structural Database, then it will include bibliographic, chemical, 
# crystal, experimental, refinement or atomic coordinate data resulting 
# from the CCDC's data processing and validation procedures.
#
#######################################################################

data_ASACIH
_symmetry_cell_setting           monoclinic
_symmetry_space_group_name_H-M   'P 21/c'
_symmetry_Int_Tables_number      14
_space_group_name_Hall           '-P 2ybc'
loop_
_symmetry_equiv_pos_site_id
_symmetry_equiv_pos_as_xyz
1 x,y,z
2 -x,1/2+y,1/2-z
3 -x,-y,-z
4 x,1/2-y,1/2+z
_cell_length_a                   7.2270(18)
_cell_length_b                   15.907(3)
_cell_length_c                   11.981(3)
_cell_angle_alpha                90
_cell_angle_beta                 106.874(3)
_cell_angle_gamma                90
_cell_volume                     1318.03
loop_
_atom_site_label
_atom_site_type_symbol
_atom_site_fract_x
_atom_site_fract_y
_atom_site_fract_z
Zn1 Zn 0.0000 0.0000 0.0000
Zn2 Zn -0.71930(5) -0.18958(2) 0.02169(3)
Zn3 Zn 0.01649(5) -0.17366(2) 0.19184(3)
C1 C -0.3066(5) -0.06823(18) 0.4096(3)
H1 H -0.3415 -0.1225 0.4243
C2 C -0.3024(4) -0.04636(17) 0.2992(2)
C3 C -0.2517(4) 0.03586(17) 0.2769(2)
C4 C -0.2095(4) 0.09558(17) 0.3670(3)
C5 C -0.2116(4) 0.07205(17) 0.4792(3)
C6 C -0.2593(5) -0.00984(19) 0.4985(3)
H2 H -0.2595 -0.0259 0.5731
C7 C -0.3687(4) -0.10942(17) 0.2029(3)
C8 C -0.2394(4) 0.05783(17) 0.1584(3)
C9 C -0.1579(5) 0.18379(18) 0.3418(3)
C10 C -0.1539(4) 0.13118(18) 0.5811(3)
O1 O -0.2604(3) -0.17120(12) 0.19749(19)
O2 O -0.5371(3) -0.10159(12) 0.13778(18)
O3 O -0.1894(3) 0.00110(12) 0.10125(18)
O4 O -0.2789(4) 0.13258(13) 0.12615(19)
O5 O 0.0077(3) 0.19928(13) 0.3353(2)
O6 O -0.2870(3) 0.24023(12) 0.32742(18)
O7 O 0.0344(3) -0.13062(12) 0.03972(17)
O8 O -0.1035(3) 0.20504(12) 0.56846(18)
O9 O -0.1489(3) 0.10117(12) 0.68018(18)
O10 O -0.2250(4) -0.02421(14) -0.1568(2)
H3 H -0.208(6) -0.004(2) -0.219(2)
H4 H -0.320(4) 0.0113(19) -0.163(3)
O11 O -0.4833(3) -0.25901(14) 0.0069(2)
H5 H -0.450(5) -0.231(2) -0.047(2)
H6 H -0.400(5) -0.250(2) 0.0752(17)
Zn2B Zn 0.71930(5) 0.18958(2) -0.02169(3)
Zn2B_2 Zn -0.28070(5) 0.18958(2) -0.02169(3)
Zn2A Zn -0.28070(5) 0.31042(2) 0.47831(3)
Zn2_2 Zn 0.28070(5) -0.18958(2) 0.02169(3)
Zn2C Zn 0.28070(5) -0.31042(2) -0.47831(3)
Zn3B Zn -0.01649(5) 0.17366(2) -0.19184(3)
Zn3A Zn -0.01649(5) 0.32634(2) 0.30816(3)
Zn3B_2 Zn -0.01649(5) 0.17366(2) 0.80816(3)
Zn3C Zn 0.01649(5) -0.32634(2) -0.30816(3)
Zn3_2 Zn 0.01649(5) -0.17366(2) -0.80816(3)
C1B C 0.3066(5) 0.06823(18) -0.4096(3)
H1B H 0.3415 0.1225 -0.4243
C2B C 0.3024(4) 0.04636(17) -0.2992(2)
C3B C 0.2517(4) -0.03586(17) -0.2769(2)
C4B C 0.2095(4) -0.09558(17) -0.3670(3)
C5B C 0.2116(4) -0.07205(17) -0.4792(3)
C6B C 0.2593(5) 0.00984(19) -0.4985(3)
H2B H 0.2595 0.0259 -0.5731
C7B C 0.3687(4) 0.10942(17) -0.2029(3)
C8B C 0.2394(4) -0.05783(17) -0.1584(3)
C9B C 0.1579(5) -0.18379(18) -0.3418(3)
C10B C 0.1539(4) -0.13118(18) -0.5811(3)
O1B O 0.2604(3) 0.17120(12) -0.19749(19)
O2B O 0.5371(3) 0.10159(12) -0.13778(18)
O3B O 0.1894(3) -0.00110(12) -0.10125(18)
O4B O 0.2789(4) -0.13258(13) -0.12615(19)
O4B_2 O -0.7211(4) -0.13258(13) -0.12615(19)
O4_2 O 0.7211(4) 0.13258(13) 0.12615(19)
O5B O -0.0077(3) -0.19928(13) -0.3353(2)
O5A O -0.0077(3) -0.30072(13) 0.1647(2)
O5C O 0.0077(3) 0.30072(13) -0.1647(2)
O6B O 0.2870(3) -0.24023(12) -0.32742(18)
O6A O -0.7130(3) -0.25977(12) 0.17258(18)
O6A_2 O 0.2870(3) -0.25977(12) 0.17258(18)
O6C O 0.7130(3) 0.25977(12) -0.17258(18)
O6C_2 O -0.2870(3) 0.25977(12) -0.17258(18)
O7B O -0.0344(3) 0.13062(12) -0.03972(17)
O7_2 O -0.9656(3) -0.13062(12) 0.03972(17)
O7B_2 O 0.9656(3) 0.13062(12) -0.03972(17)
O8B O 0.1035(3) -0.20504(12) -0.56846(18)
O8A O -0.8965(3) -0.29496(12) -0.06846(18)
O8C O 0.8965(3) 0.29496(12) 0.06846(18)
O9B O 0.1489(3) -0.10117(12) -0.68018(18)
O9B_2 O 0.1489(3) -0.10117(12) 0.31982(18)
O9_2 O -0.1489(3) 0.10117(12) -0.31982(18)
O10B O 0.2250(4) 0.02421(14) 0.1568(2)
H3B H 0.208(6) 0.004(2) 0.219(2)
H4B H 0.320(4) -0.0113(19) 0.163(3)
O11B O 0.4833(3) 0.25901(14) -0.0069(2)
H5B H 0.450(5) 0.231(2) 0.047(2)
H6B H 0.400(5) 0.250(2) -0.0752(17)
O12 O -0.7030(5) 0.19631(17) 0.1441(3)
H7 H -0.620(7) 0.216(2) 0.209(3)
H8 H -0.721(7) 0.1413(14) 0.158(4)
loop_
_geom_bond_atom_site_label_1
_geom_bond_atom_site_label_2
_geom_bond_site_symmetry_1
_geom_bond_site_symmetry_2
Zn1 O3 1_555 1_555
Zn2 O2 1_555 1_555
Zn3 O1 1_555 1_555
C1 H1 1_555 1_555
C2 C1 1_555 1_555
C3 C2 1_555 1_555
C4 C3 1_555 1_555
C5 C4 1_555 1_555
C6 C1 1_555 1_555
H2 C6 1_555 1_555
C7 C2 1_555 1_555
C8 C3 1_555 1_555
C9 C4 1_555 1_555
C10 C5 1_555 1_555
O1 C7 1_555 1_555
O2 C7 1_555 1_555
O3 C8 1_555 1_555
O4 C8 1_555 1_555
O5 C9 1_555 1_555
O6 C9 1_555 1_555
O7 Zn1 1_555 1_555
O8 C10 1_555 1_555
O9 C10 1_555 1_555
O10 Zn1 1_555 1_555
H3 O10 1_555 1_555
H4 O10 1_555 1_555
O11 Zn2 1_555 1_555
H5 O11 1_555 1_555
H6 O11 1_555 1_555
O12 H7 1_555 1_555
H8 O12 1_555 1_555
Zn2B O2B 1_555 1_555
Zn2B_2 O4 1_555 1_555
Zn2A O6 1_555 1_555
Zn2_2 O7 1_555 1_555
Zn2C O6B 1_555 1_555
Zn3B O1B 1_555 1_555
Zn3A O5 1_555 1_555
Zn3B_2 O9 1_555 1_555
Zn3C O5B 1_555 1_555
Zn3_2 O9B 1_555 1_555
C1B H1B 1_555 1_555
C2B C1B 1_555 1_555
C3B C2B 1_555 1_555
C4B C3B 1_555 1_555
C5B C4B 1_555 1_555
C6B C1B 1_555 1_555
H2B C6B 1_555 1_555
C7B C2B 1_555 1_555
C8B C3B 1_555 1_555
C9B C4B 1_555 1_555
C10B C5B 1_555 1_555
O1B C7B 1_555 1_555
O2B C7B 1_555 1_555
O3B Zn1 1_555 1_555
O4B Zn2_2 1_555 1_555
O4B_2 Zn2 1_555 1_555
O4_2 Zn2B 1_555 1_555
O5B C9B 1_555 1_555
O5A Zn3 1_555 1_555
O5C Zn3B 1_555 1_555
O6B Zn3C 1_555 1_555
O6A Zn2 1_555 1_555
O6A_2 Zn3 1_555 1_555
O6C Zn2B 1_555 1_555
O6C_2 Zn2B_2 1_555 1_555
O7B Zn1 1_555 1_555
O7_2 Zn2 1_555 1_555
O7B_2 Zn2B 1_555 1_555
O8B Zn2C 1_555 1_555
O8A Zn2 1_555 1_555
O8C Zn2B 1_555 1_555
O9B C10B 1_555 1_555
O9B_2 Zn3 1_555 1_555
O9_2 Zn3B 1_555 1_555
O10B Zn1 1_555 1_555
H3B O10B 1_555 1_555
H4B O10B 1_555 1_555
O11B Zn2B 1_555 1_555
H5B O11B 1_555 1_555
H6B O11B 1_555 1_555
Zn3 O7 1_555 1_555
C5 C6 1_555 1_555
O6 Zn3A 1_555 1_555
O8 Zn2A 1_555 1_555
Zn2B_2 O7B 1_555 1_555
Zn2_2 O6A_2 1_555 1_555
Zn3B O6C_2 1_555 1_555
Zn3B O7B 1_555 1_555
C5B C6B 1_555 1_555
C8B O3B 1_555 1_555
C8B O4B 1_555 1_555
C9B O6B 1_555 1_555
C10B O8B 1_555 1_555

#END
