
#######################################################################
#
#                 Cambridge Crystallographic Data Centre
#                                CCDC 
#
#######################################################################
#
# If this CIF has been generated from an entry in the Cambridge 
# Structural Database, then it will include bibliographic, chemical, 
# crystal, experimental, refinement or atomic coordinate data resulting 
# from the CCDC's data processing and validation procedures.
#
#######################################################################

data_ASACEC
_symmetry_cell_setting           triclinic
_symmetry_space_group_name_H-M   'P -1'
_symmetry_Int_Tables_number      2
_space_group_name_Hall           '-P 1'
loop_
_symmetry_equiv_pos_site_id
_symmetry_equiv_pos_as_xyz
1 x,y,z
2 -x,-y,-z
_cell_length_a                   8.367(2)
_cell_length_b                   9.451(2)
_cell_length_c                   12.357(2)
_cell_angle_alpha                91.67(3)
_cell_angle_beta                 95.88(3)
_cell_angle_gamma                104.75(3)
_cell_volume                     938.426
loop_
_atom_site_label
_atom_site_type_symbol
_atom_site_fract_x
_atom_site_fract_y
_atom_site_fract_z
Au1 Au 0.0000 0.0000 0.0000
Cl1 Cl 0.27406(10) 0.00419(11) 0.01554(8)
Cl2 Cl 0.05739(12) 0.22001(9) -0.07887(7)
Cl1A Cl -0.27406(10) -0.00419(11) -0.01554(8)
Cl2A Cl -0.05739(12) -0.22001(9) 0.07887(7)
Cs1 Cs 0.5000 -0.5000 -0.5000
N1 N 0.2338(3) -0.4018(3) -0.1767(2)
C1 C 0.3805(4) -0.3329(4) -0.0994(3)
H1 H 0.3967(4) -0.2274(4) -0.0963(3)
H2 H 0.4783(4) -0.3540(4) -0.1247(3)
C2 C 0.3605(4) -0.3883(4) 0.0142(3)
H3 H 0.2700(19) -0.3594(22) 0.0422(8)
H4 H 0.4612(11) -0.3472(20) 0.0615(5)
H5 H 0.3379(29) -0.4933(4) 0.0106(4)
C3 C 0.2458(4) -0.5018(3) -0.2567(2)
O1 O 0.3723(3) -0.5416(2) -0.2669(2)
N2 N 0.1029(3) -0.5550(3) -0.3271(2)
H6 H 0.1047(32) -0.6118(30) -0.3734(22)
C4 C -0.0466(4) -0.5189(3) -0.3250(2)
O2 O -0.1631(2) -0.5696(2) -0.3970(2)
C5 C -0.0532(4) -0.4196(3) -0.2366(2)
C6 C -0.2130(4) -0.3774(4) -0.2258(3)
H7 H -0.3007(7) -0.4639(4) -0.2198(19)
H8 H -0.2409(15) -0.3278(22) -0.2889(9)
H9 H -0.1993(10) -0.3135(20) -0.1618(11)
C7 C 0.0866(4) -0.3661(3) -0.1679(2)
H10 H 0.0830(4) -0.3008(3) -0.1110(2)
N3 N 0.2976(3) -0.0496(3) -0.3098(2)
C8 C 0.4563(4) 0.0339(4) -0.2507(3)
H11 H 0.5303(4) -0.0298(4) -0.2399(3)
H12 H 0.4369(4) 0.0674(4) -0.1794(3)
C9 C 0.5387(4) 0.1638(4) -0.3106(3)
H13 H 0.6446(14) 0.2121(15) -0.2715(10)
H14 H 0.4696(14) 0.2309(13) -0.3165(17)
H15 H 0.5544(26) 0.1315(5) -0.3822(7)
O3 O 0.4194(3) -0.2125(2) -0.3884(2)
C10 C 0.2966(4) -0.1672(3) -0.3793(2)
N4 N 0.1456(3) -0.2295(3) -0.4381(2)
H16 H 0.1395(39) -0.2893(37) -0.4839(28)
C11 C -0.0021(4) -0.1879(3) -0.4351(3)
O4 O -0.1274(3) -0.2542(2) -0.4962(2)
C12 C 0.0069(4) -0.0658(3) -0.3601(2)
C13 C -0.1451(4) -0.0138(4) -0.3499(3)
H17 H -0.2222(13) -0.0842(13) -0.3133(18)
H18 H -0.1961(17) -0.0022(25) -0.4212(3)
H19 H -0.1151(6) 0.0787(13) -0.3087(17)
C14 C 0.1556(4) -0.0025(3) -0.3033(3)
H20 H 0.1630(4) 0.0785(3) -0.2567(3)
N1A N 0.7662(3) -0.5982(3) -0.8233(2)
C1A C 0.6195(4) -0.6671(4) -0.9006(3)
H1A H 0.6033(4) -0.7726(4) -0.9037(3)
H2A H 0.5217(4) -0.6460(4) -0.8753(3)
C2A C 0.6395(4) -0.6117(4) -1.0142(3)
H3A H 0.7300(19) -0.6406(22) -1.0422(8)
H4A H 0.5388(11) -0.6528(20) -1.0615(5)
H5A H 0.6621(29) -0.5067(4) -1.0106(4)
C3A C 0.7542(4) -0.4982(3) -0.7433(2)
O1A O 0.6277(3) -0.4584(2) -0.7331(2)
N2A N 0.8971(3) -0.4450(3) -0.6729(2)
H6A H 0.8953(32) -0.3882(30) -0.6266(22)
C4A C 1.0466(4) -0.4811(3) -0.6750(2)
O2A O 1.1631(2) -0.4304(2) -0.6030(2)
C5A C 1.0532(4) -0.5804(3) -0.7634(2)
C6A C 1.2130(4) -0.6226(4) -0.7742(3)
H7A H 1.3007(7) -0.5361(4) -0.7802(19)
H8A H 1.2409(15) -0.6722(22) -0.7111(9)
H9A H 1.1993(10) -0.6865(20) -0.8382(11)
C7A C 0.9134(4) -0.6339(3) -0.8321(2)
H10A H 0.9170(4) -0.6992(3) -0.8890(2)
N3A N 0.7024(3) -0.9504(3) -0.6902(2)
C8A C 0.5437(4) -1.0339(4) -0.7493(3)
H11A H 0.4697(4) -0.9702(4) -0.7601(3)
H12A H 0.5631(4) -1.0674(4) -0.8206(3)
C9A C 0.4613(4) -1.1638(4) -0.6894(3)
H13A H 0.3554(14) -1.2121(15) -0.7285(10)
H14A H 0.5304(14) -1.2309(13) -0.6835(17)
H15A H 0.4456(26) -1.1315(5) -0.6178(7)
O3A O 0.5806(3) -0.7875(2) -0.6116(2)
C10A C 0.7034(4) -0.8328(3) -0.6207(2)
N4A N 0.8544(3) -0.7705(3) -0.5619(2)
H16A H 0.8605(39) -0.7107(37) -0.5161(28)
C11A C 1.0021(4) -0.8121(3) -0.5649(3)
O4A O 1.1274(3) -0.7458(2) -0.5038(2)
C12A C 0.9931(4) -0.9342(3) -0.6399(2)
C13A C 1.1451(4) -0.9862(4) -0.6501(3)
H17A H 1.2222(13) -0.9158(13) -0.6867(18)
H18A H 1.1961(17) -0.9978(25) -0.5788(3)
H19A H 1.1151(6) -1.0787(13) -0.6913(17)
C14A C 0.8444(4) -0.9975(3) -0.6967(3)
H20A H 0.8370(4) -1.0785(3) -0.7433(3)
O2_2 O 0.8369(2) -0.5696(2) -0.3970(2)
O2A_2 O 0.1631(2) -0.4304(2) -0.6030(2)
O4_2 O 0.8726(3) -0.2542(2) -0.4962(2)
O4A_2 O 0.1274(3) -0.7458(2) -0.5038(2)
Cs1_2 Cs -0.5000 -0.5000 -0.5000
Cs1_3 Cs 1.5000 -0.5000 -0.5000
loop_
_geom_bond_atom_site_label_1
_geom_bond_atom_site_label_2
_geom_bond_site_symmetry_1
_geom_bond_site_symmetry_2
Au1 Cl1 1_555 1_555
Cl2 Au1 1_555 1_555
Cs1 O1 1_555 1_555
N1 C1 1_555 1_555
C1 H1 1_555 1_555
H2 C1 1_555 1_555
C2 C1 1_555 1_555
H3 C2 1_555 1_555
H4 C2 1_555 1_555
H5 C2 1_555 1_555
C3 N1 1_555 1_555
O1 C3 1_555 1_555
N2 C3 1_555 1_555
H6 N2 1_555 1_555
C4 N2 1_555 1_555
O2 C4 1_555 1_555
C5 C4 1_555 1_555
C6 C5 1_555 1_555
H7 C6 1_555 1_555
H8 C6 1_555 1_555
H9 C6 1_555 1_555
C7 N1 1_555 1_555
H10 C7 1_555 1_555
N3 C8 1_555 1_555
C8 H11 1_555 1_555
H12 C8 1_555 1_555
C9 C8 1_555 1_555
H13 C9 1_555 1_555
H14 C9 1_555 1_555
H15 C9 1_555 1_555
O3 Cs1 1_555 1_555
C10 N3 1_555 1_555
N4 C10 1_555 1_555
H16 N4 1_555 1_555
C11 N4 1_555 1_555
O4 C11 1_555 1_555
C12 C11 1_555 1_555
C13 C12 1_555 1_555
H17 C13 1_555 1_555
H18 C13 1_555 1_555
H19 C13 1_555 1_555
C14 N3 1_555 1_555
H20 C14 1_555 1_555
Cl1A Au1 1_555 1_555
Cl2A Au1 1_555 1_555
N1A C1A 1_555 1_555
C1A H1A 1_555 1_555
H2A C1A 1_555 1_555
C2A C1A 1_555 1_555
H3A C2A 1_555 1_555
H4A C2A 1_555 1_555
H5A C2A 1_555 1_555
C3A N1A 1_555 1_555
O1A Cs1 1_555 1_555
N2A C3A 1_555 1_555
H6A N2A 1_555 1_555
C4A N2A 1_555 1_555
O2A C4A 1_555 1_555
C5A C4A 1_555 1_555
C6A C5A 1_555 1_555
H7A C6A 1_555 1_555
H8A C6A 1_555 1_555
H9A C6A 1_555 1_555
C7A N1A 1_555 1_555
H10A C7A 1_555 1_555
N3A C8A 1_555 1_555
C8A H11A 1_555 1_555
H12A C8A 1_555 1_555
C9A C8A 1_555 1_555
H13A C9A 1_555 1_555
H14A C9A 1_555 1_555
H15A C9A 1_555 1_555
O3A Cs1 1_555 1_555
C10A N3A 1_555 1_555
N4A C10A 1_555 1_555
H16A N4A 1_555 1_555
C11A N4A 1_555 1_555
O4A C11A 1_555 1_555
C12A C11A 1_555 1_555
C13A C12A 1_555 1_555
H17A C13A 1_555 1_555
H18A C13A 1_555 1_555
H19A C13A 1_555 1_555
C14A N3A 1_555 1_555
H20A C14A 1_555 1_555
O2_2 Cs1 1_555 1_555
O2A_2 Cs1 1_555 1_555
O4_2 Cs1 1_555 1_555
O4A_2 Cs1 1_555 1_555
Cs1_2 O2 1_555 1_555
Cs1_3 O2A 1_555 1_555
C5 C7 1_555 1_555
O3 C10 1_555 1_555
O4 Cs1_2 1_555 1_555
C12 C14 1_555 1_555
C3A O1A 1_555 1_555
C5A C7A 1_555 1_555
O3A C10A 1_555 1_555
O4A Cs1_3 1_555 1_555
C12A C14A 1_555 1_555

#END
