
#######################################################################
#
#                 Cambridge Crystallographic Data Centre
#                                CCDC 
#
#######################################################################
#
# If this CIF has been generated from an entry in the Cambridge 
# Structural Database, then it will include bibliographic, chemical, 
# crystal, experimental, refinement or atomic coordinate data resulting 
# from the CCDC's data processing and validation procedures.
#
#######################################################################

data_ASACAY
_symmetry_cell_setting           triclinic
_symmetry_space_group_name_H-M   'P -1'
_symmetry_Int_Tables_number      2
_space_group_name_Hall           '-P 1'
loop_
_symmetry_equiv_pos_site_id
_symmetry_equiv_pos_as_xyz
1 x,y,z
2 -x,-y,-z
_cell_length_a                   8.593(2)
_cell_length_b                   8.742(2)
_cell_length_c                   12.667(3)
_cell_angle_alpha                88.94(3)
_cell_angle_beta                 88.59(3)
_cell_angle_gamma                81.05(3)
_cell_volume                     939.571
loop_
_atom_site_label
_atom_site_type_symbol
_atom_site_fract_x
_atom_site_fract_y
_atom_site_fract_z
Au1 Au 0.0000 0.0000 0.0000
Cl1 Cl 0.0253(2) 0.2302(2) -0.08113(11)
Cl2 Cl 0.2655(2) -0.0717(2) -0.00847(14)
Cl1A Cl -0.0253(2) -0.2302(2) 0.08113(11)
Cl2A Cl -0.2655(2) 0.0717(2) 0.00847(14)
Rb1 Rb 0.5000 0.5000 0.5000
N1 N 0.3238(12) -0.0080(12) 0.3533(8)
C1 C 0.4672(13) -0.1123(13) 0.3185(9)
H1 H 0.5464(13) -0.1143(13) 0.3720(9)
C2 C 0.5426(14) -0.1772(13) 0.2691(12)
H2 H 0.6361(45) -0.2119(27) 0.2278(38)
H3 H 0.4645(32) -0.2416(17) 0.2558(48)
C3 C 0.3461(6) 0.1327(6) 0.3988(4)
O1 O 0.4712(4) 0.1746(5) 0.4206(3)
N2 N 0.2058(4) 0.1976(4) 0.4439(3)
H4 H 0.2110(4) 0.2666(4) 0.4907(3)
C4 C 0.0580(5) 0.1668(5) 0.4240(3)
O2 O -0.0574(4) 0.2396(4) 0.4703(3)
C5 C 0.0499(6) 0.0493(5) 0.3468(3)
C6 C -0.1079(6) 0.0109(5) 0.3191(4)
H5 H -0.1549(20) 0.0836(27) 0.2668(22)
H6 H -0.1748(16) 0.0166(43) 0.3812(7)
H7 H -0.0953(8) -0.0919(17) 0.2915(28)
C7 C 0.1861(7) -0.0186(7) 0.3051(6)
H8 H 0.1874(7) -0.0735(7) 0.2428(6)
N3 N 0.1443(4) 0.4150(4) 0.2150(3)
C8 C 0.2831(6) 0.3452(7) 0.1512(4)
H9 H 0.2656(6) 0.2449(7) 0.1267(4)
H10 H 0.3748(6) 0.3288(7) 0.1956(4)
C9 C 0.3159(8) 0.4428(9) 0.0588(5)
H11 H 0.4089(26) 0.3943(23) 0.0218(18)
H12 H 0.3317(44) 0.5428(17) 0.0824(5)
H13 H 0.2281(20) 0.4543(37) 0.0123(15)
C10 C 0.1679(5) 0.5092(5) 0.2979(3)
O3 O 0.2968(4) 0.5395(4) 0.3209(2)
N4 N 0.0328(4) 0.5648(4) 0.3549(3)
H14 H 0.0435(4) 0.6237(4) 0.4070(3)
C11 C -0.1165(5) 0.5365(5) 0.3374(3)
O4 O -0.2270(4) 0.5885(4) 0.3977(3)
C12 C -0.1350(5) 0.4438(5) 0.2467(3)
C13 C -0.2949(6) 0.4098(6) 0.2222(4)
H15 H -0.3655(12) 0.5053(6) 0.2126(30)
H16 H -0.3330(20) 0.3514(38) 0.2795(14)
H17 H -0.2891(10) 0.3508(39) 0.1586(17)
C14 C -0.0038(5) 0.3890(5) 0.1912(3)
H18 H -0.0142(5) 0.3293(5) 0.1325(3)
N1A N 0.6762(12) 1.0080(12) 0.6467(8)
C1A C 0.5328(13) 1.1123(13) 0.6815(9)
H1A H 0.4536(13) 1.1143(13) 0.6280(9)
C2A C 0.4574(14) 1.1772(13) 0.7309(12)
H2A H 0.3639(45) 1.2119(27) 0.7722(38)
H3A H 0.5355(32) 1.2416(17) 0.7442(48)
C3A C 0.6539(6) 0.8673(6) 0.6012(4)
O1A O 0.5288(4) 0.8254(5) 0.5794(3)
N2A N 0.7942(4) 0.8024(4) 0.5561(3)
H4A H 0.7890(4) 0.7334(4) 0.5093(3)
C4A C 0.9420(5) 0.8332(5) 0.5760(3)
O2A O 1.0574(4) 0.7604(4) 0.5297(3)
C5A C 0.9501(6) 0.9507(5) 0.6532(3)
C6A C 1.1079(6) 0.9891(5) 0.6809(4)
H5A H 1.1549(20) 0.9164(27) 0.7332(22)
H6A H 1.1748(16) 0.9834(43) 0.6188(7)
H7A H 1.0953(8) 1.0919(17) 0.7085(28)
C7A C 0.8139(7) 1.0186(7) 0.6949(6)
H8A H 0.8126(7) 1.0735(7) 0.7572(6)
N3A N 0.8557(4) 0.5850(4) 0.7850(3)
C8A C 0.7169(6) 0.6548(7) 0.8488(4)
H9A H 0.7344(6) 0.7551(7) 0.8733(4)
H10A H 0.6252(6) 0.6712(7) 0.8044(4)
C9A C 0.6841(8) 0.5572(9) 0.9412(5)
H11A H 0.5911(26) 0.6057(23) 0.9782(18)
H12A H 0.6683(44) 0.4572(17) 0.9176(5)
H13A H 0.7719(20) 0.5457(37) 0.9877(15)
C10A C 0.8321(5) 0.4908(5) 0.7021(3)
O3A O 0.7032(4) 0.4605(4) 0.6791(2)
N4A N 0.9672(4) 0.4352(4) 0.6451(3)
H14A H 0.9565(4) 0.3763(4) 0.5930(3)
C11A C 1.1165(5) 0.4635(5) 0.6626(3)
O4A O 1.2270(4) 0.4115(4) 0.6023(3)
C12A C 1.1350(5) 0.5562(5) 0.7533(3)
C13A C 1.2949(6) 0.5902(6) 0.7778(4)
H15A H 1.3655(12) 0.4947(6) 0.7874(30)
H16A H 1.3330(20) 0.6486(38) 0.7205(14)
H17A H 1.2891(10) 0.6492(39) 0.8414(17)
C14A C 1.0038(5) 0.6110(5) 0.8088(3)
H18A H 1.0142(5) 0.6707(5) 0.8675(3)
O4_2 O 0.7730(4) 0.5885(4) 0.3977(3)
O4A_2 O 0.2270(4) 0.4115(4) 0.6023(3)
Rb1_2 Rb -0.5000 0.5000 0.5000
Rb1_3 Rb 1.5000 0.5000 0.5000
Rb2? Rb 0.4709(27) 0.5594(17) 0.5063(19)
H19? H 0.4423(13) -0.2164(13) 0.3135(9)
C15? C 0.5340(17) -0.0696(18) 0.2179(11)
H20? H 0.6264(49) -0.1425(47) 0.2011(28)
H21? H 0.5619(73) 0.0322(35) 0.2223(20)
H22? H 0.4579(34) -0.0702(78) 0.1638(15)
N5? N 0.3352(10) 0.0440(10) 0.3074(7)
C16? C 0.4794(14) -0.0114(15) 0.2394(9)
H23? H 0.4518(14) -0.0047(15) 0.1655(9)
H24? H 0.5594(14) 0.0535(15) 0.2499(9)
H25? H 0.5673(71) -0.1836(18) 0.3427(16)
loop_
_geom_bond_atom_site_label_1
_geom_bond_atom_site_label_2
_geom_bond_site_symmetry_1
_geom_bond_site_symmetry_2
Au1 Cl1 1_555 1_555
Cl2 Au1 1_555 1_555
Rb1 O1 1_555 1_555
N1 C1 1_555 1_555
C1 H1 1_555 1_555
C2 C1 1_555 1_555
H2 C2 1_555 1_555
H3 C2 1_555 1_555
C3 N1 1_555 1_555
O1 C3 1_555 1_555
N2 C3 1_555 1_555
H4 N2 1_555 1_555
C4 N2 1_555 1_555
O2 C4 1_555 1_555
C5 C4 1_555 1_555
C6 C5 1_555 1_555
H5 C6 1_555 1_555
H6 C6 1_555 1_555
H7 C6 1_555 1_555
C7 N1 1_555 1_555
H8 C7 1_555 1_555
N3 C8 1_555 1_555
C8 H9 1_555 1_555
H10 C8 1_555 1_555
C9 C8 1_555 1_555
H11 C9 1_555 1_555
H12 C9 1_555 1_555
H13 C9 1_555 1_555
C10 N3 1_555 1_555
O3 Rb1 1_555 1_555
N4 C10 1_555 1_555
H14 N4 1_555 1_555
C11 N4 1_555 1_555
O4 C11 1_555 1_555
C12 C11 1_555 1_555
C13 C12 1_555 1_555
H15 C13 1_555 1_555
H16 C13 1_555 1_555
H17 C13 1_555 1_555
C14 N3 1_555 1_555
H18 C14 1_555 1_555
Cl1A Au1 1_555 1_555
Cl2A Au1 1_555 1_555
N1A C1A 1_555 1_555
C1A H1A 1_555 1_555
C2A C1A 1_555 1_555
H2A C2A 1_555 1_555
H3A C2A 1_555 1_555
C3A N1A 1_555 1_555
O1A Rb1 1_555 1_555
N2A C3A 1_555 1_555
H4A N2A 1_555 1_555
C4A N2A 1_555 1_555
O2A C4A 1_555 1_555
C5A C4A 1_555 1_555
C6A C5A 1_555 1_555
H5A C6A 1_555 1_555
H6A C6A 1_555 1_555
H7A C6A 1_555 1_555
C7A N1A 1_555 1_555
H8A C7A 1_555 1_555
N3A C8A 1_555 1_555
C8A H9A 1_555 1_555
H10A C8A 1_555 1_555
C9A C8A 1_555 1_555
H11A C9A 1_555 1_555
H12A C9A 1_555 1_555
H13A C9A 1_555 1_555
C10A N3A 1_555 1_555
O3A Rb1 1_555 1_555
N4A C10A 1_555 1_555
H14A N4A 1_555 1_555
C11A N4A 1_555 1_555
O4A C11A 1_555 1_555
C12A C11A 1_555 1_555
C13A C12A 1_555 1_555
H15A C13A 1_555 1_555
H16A C13A 1_555 1_555
H17A C13A 1_555 1_555
C14A N3A 1_555 1_555
H18A C14A 1_555 1_555
O4_2 Rb1 1_555 1_555
O4A_2 Rb1 1_555 1_555
Rb1_2 O4 1_555 1_555
Rb1_3 O4A 1_555 1_555
C5 C7 1_555 1_555
C10 O3 1_555 1_555
C12 C14 1_555 1_555
C3A O1A 1_555 1_555
C5A C7A 1_555 1_555
C10A O3A 1_555 1_555
C12A C14A 1_555 1_555

#END
