
#######################################################################
#
#                 Cambridge Crystallographic Data Centre
#                                CCDC 
#
#######################################################################
#
# If this CIF has been generated from an entry in the Cambridge 
# Structural Database, then it will include bibliographic, chemical, 
# crystal, experimental, refinement or atomic coordinate data resulting 
# from the CCDC's data processing and validation procedures.
#
#######################################################################

data_ASACUT
_symmetry_cell_setting           triclinic
_symmetry_space_group_name_H-M   'P -1'
_symmetry_Int_Tables_number      2
_space_group_name_Hall           '-P 1'
loop_
_symmetry_equiv_pos_site_id
_symmetry_equiv_pos_as_xyz
1 x,y,z
2 -x,-y,-z
_cell_length_a                   8.911(6)
_cell_length_b                   10.240(7)
_cell_length_c                   12.241(7)
_cell_angle_alpha                73.252(5)
_cell_angle_beta                 71.644(6)
_cell_angle_gamma                64.380(7)
_cell_volume                     940.713
loop_
_atom_site_label
_atom_site_type_symbol
_atom_site_fract_x
_atom_site_fract_y
_atom_site_fract_z
Zn1 Zn 0.15486(6) -0.29246(4) 0.62486(5)
Zn2 Zn 0.71991(6) 0.41931(4) 0.72025(4)
C1 C 0.2314(5) 0.1461(3) 0.6925(3)
C2 C 0.3217(5) 0.2321(3) 0.6865(3)
C3 C 0.4975(5) 0.1757(3) 0.6580(3)
C4 C 0.5878(5) 0.0335(4) 0.6364(3)
H1 H 0.7064 -0.0051 0.6201
C5 C 0.4989(6) -0.0506(4) 0.6396(4)
H2 H 0.5593 -0.1460 0.6244
C6 C 0.3223(5) 0.0040(3) 0.6648(3)
C7 C 0.2337(6) -0.0856(4) 0.6507(3)
C8 C 0.0390(5) 0.2115(4) 0.7304(3)
C9 C 0.2253(5) 0.3874(3) 0.7122(4)
C10 C 0.5991(5) 0.2646(4) 0.6515(4)
C11 C 0.5429(5) 0.6531(4) 0.8622(4)
H3 H 0.4638 0.7056 0.8153
C12 C 0.7483(6) 0.4833(4) 0.9380(4)
H4 H 0.8394 0.3954 0.9521
C13 C 0.6803(6) 0.5934(4) 0.9997(4)
H5 H 0.7142 0.5958 1.0633
C14 C 0.4451(6) 0.8458(4) 0.9845(4)
H6 H 0.3737 0.8326 1.0618
H7 H 0.3710 0.9055 0.9304
C15 C 0.5538(6) 0.9241(4) 0.9854(4)
H8 H 0.6298 0.9322 0.9093
H9 H 0.6233 0.8669 1.0427
N1 N 0.6619(4) 0.5212(3) 0.8507(3)
N2 N 0.5510(4) 0.7010(3) 0.9495(3)
O1 O 0.3163(3) -0.2244(2) 0.6583(2)
O2 O 0.0921(4) -0.0241(2) 0.6259(3)
O3 O -0.0364(4) 0.1621(2) 0.8253(2)
O4 O -0.0346(3) 0.3248(2) 0.6598(2)
O5 O 0.1305(3) 0.4067(2) 0.8091(2)
O6 O 0.2553(3) 0.4880(2) 0.6267(2)
O7 O 0.5706(4) 0.3152(3) 0.7420(2)
O8 O 0.7062(4) 0.2816(3) 0.5608(3)
O9 O 0.0018(4) -0.2938(3) 0.7895(3)
H10 H 0.011(6) -0.383(3) 0.829(3)
H11 H 0.019(6) -0.246(3) 0.832(3)
O10 O -0.0452(4) -0.2271(3) 0.5505(3)
H12 H -0.044(6) -0.301(3) 0.527(3)
H13 H -0.022(4) -0.162(3) 0.493(2)
O11 O 0.6508(4) 0.5883(3) 0.5881(3)
H14 H 0.677(5) 0.567(4) 0.518(2)
H15 H 0.542(3) 0.645(4) 0.605(3)
Zn1A Zn 0.84514(6) 0.29246(4) 0.37514(5)
Zn1_2 Zn 0.15486(6) 0.70754(4) 0.62486(5)
Zn1A_2 Zn 0.84514(6) -0.70754(4) 0.37514(5)
Zn2A Zn 0.28009(6) -0.41931(4) 0.27975(4)
Zn2_2 Zn -0.28009(6) 0.41931(4) 0.72025(4)
Zn2A_2 Zn 0.28009(6) 1.58069(4) 1.27975(4)
Zn2A_3 Zn 1.28009(6) -0.41931(4) 0.27975(4)
C1A C 0.7686(5) -0.1461(3) 0.3075(3)
C2A C 0.6783(5) -0.2321(3) 0.3135(3)
C3A C 0.5025(5) -0.1757(3) 0.3420(3)
C4A C 0.4122(5) -0.0335(4) 0.3636(3)
H1A H 0.2936 0.0051 0.3799
C5A C 0.5011(6) 0.0506(4) 0.3604(4)
H2A H 0.4407 0.1460 0.3756
C6A C 0.6777(5) -0.0040(3) 0.3352(3)
C7A C 0.7663(6) 0.0856(4) 0.3493(3)
C8A C 0.9610(5) -0.2115(4) 0.2696(3)
C9A C 0.7747(5) -0.3874(3) 0.2878(4)
C10A C 0.4009(5) -0.2646(4) 0.3485(4)
C11A C 0.4571(5) 1.3469(4) 1.1378(4)
H3A H 0.5362 1.2944 1.1847
C12A C 0.2517(6) 1.5167(4) 1.0620(4)
H4A H 0.1606 1.6046 1.0479
C13A C 0.3197(6) 1.4066(4) 1.0003(4)
H5A H 0.2858 1.4042 0.9367
C14A C 0.5549(6) 1.1542(4) 1.0155(4)
H6A H 0.6263 1.1674 0.9382
H7A H 0.6290 1.0945 1.0696
C15A C 0.4462(6) 1.0759(4) 1.0146(4)
H8A H 0.3702 1.0678 1.0907
H9A H 0.3767 1.1331 0.9573
N1A N 0.3381(4) 1.4788(3) 1.1493(3)
N1A_2 N 0.3381(4) -0.5212(3) 0.1493(3)
N2A N 0.4490(4) 1.2990(3) 1.0505(3)
O1A O 0.6837(3) 0.2244(2) 0.3417(2)
O2A O 0.9079(4) 0.0241(2) 0.3741(3)
O3A O 1.0364(4) -0.1621(2) 0.1747(2)
O4A O 1.0346(3) -0.3248(2) 0.3402(2)
O4_2 O 0.9654(3) 0.3248(2) 0.6598(2)
O4A_2 O 0.0346(3) -0.3248(2) 0.3402(2)
O5A O 0.8695(3) -0.4067(2) 0.1909(2)
O6A O 0.7447(3) -0.4880(2) 0.3733(2)
O6_2 O 0.2553(3) -0.5120(2) 0.6267(2)
O6A_2 O 0.7447(3) 0.5120(2) 0.3733(2)
O7A O 0.4294(4) -0.3152(3) 0.2580(2)
O8A O 0.2938(4) -0.2816(3) 0.4392(3)
O9A O 0.9982(4) 0.2938(3) 0.2105(3)
H10A H 0.989(6) 0.383(3) 0.171(3)
H11A H 0.981(6) 0.246(3) 0.168(3)
O10A O 1.0452(4) 0.2271(3) 0.4495(3)
H12A H 1.044(6) 0.301(3) 0.473(3)
H13A H 1.022(4) 0.162(3) 0.507(2)
O11A O 0.3492(4) -0.5883(3) 0.4119(3)
H14A H 0.323(5) -0.567(4) 0.482(2)
H15A H 0.458(3) -0.645(4) 0.395(3)
O12 O 0.0170(6) -0.1334(3) 0.9262(3)
H16 H 0.001(8) -0.041(3) 0.899(4)
H17 H -0.014(8) -0.145(6) 1.0038(17)
loop_
_geom_bond_atom_site_label_1
_geom_bond_atom_site_label_2
_geom_bond_site_symmetry_1
_geom_bond_site_symmetry_2
Zn1 O1 1_555 1_555
Zn2 N1 1_555 1_555
C1 C2 1_555 1_555
C2 C3 1_555 1_555
C3 C4 1_555 1_555
C4 H1 1_555 1_555
C5 C4 1_555 1_555
H2 C5 1_555 1_555
C6 C1 1_555 1_555
C7 C6 1_555 1_555
C8 C1 1_555 1_555
C9 C2 1_555 1_555
C10 C3 1_555 1_555
C11 H3 1_555 1_555
C12 H4 1_555 1_555
C13 C12 1_555 1_555
H5 C13 1_555 1_555
C14 H6 1_555 1_555
H7 C14 1_555 1_555
C15 C14 1_555 1_555
H8 C15 1_555 1_555
H9 C15 1_555 1_555
N1 C11 1_555 1_555
N2 C11 1_555 1_555
O1 C7 1_555 1_555
O2 Zn1 1_555 1_555
O3 C8 1_555 1_555
O4 C8 1_555 1_555
O5 C9 1_555 1_555
O6 C9 1_555 1_555
O7 Zn2 1_555 1_555
O8 C10 1_555 1_555
O9 Zn1 1_555 1_555
H10 O9 1_555 1_555
H11 O9 1_555 1_555
O10 Zn1 1_555 1_555
H12 O10 1_555 1_555
H13 O10 1_555 1_555
O11 Zn2 1_555 1_555
H14 O11 1_555 1_555
H15 O11 1_555 1_555
O12 H16 1_555 1_555
H17 O12 1_555 1_555
Zn1A O8 1_555 1_555
Zn1_2 O6 1_555 1_555
Zn1A_2 O6A 1_555 1_555
Zn2A N1A_2 1_555 1_555
Zn2_2 O4 1_555 1_555
Zn2A_2 N1A 1_555 1_555
Zn2A_3 O4A 1_555 1_555
C1A C2A 1_555 1_555
C2A C3A 1_555 1_555
C3A C4A 1_555 1_555
C4A H1A 1_555 1_555
C5A C4A 1_555 1_555
H2A C5A 1_555 1_555
C6A C1A 1_555 1_555
C7A C6A 1_555 1_555
C8A C1A 1_555 1_555
C9A C2A 1_555 1_555
C10A C3A 1_555 1_555
C11A H3A 1_555 1_555
C12A H4A 1_555 1_555
C13A C12A 1_555 1_555
H5A C13A 1_555 1_555
C14A H6A 1_555 1_555
H7A C14A 1_555 1_555
C15A C15 1_555 1_555
H8A C15A 1_555 1_555
H9A C15A 1_555 1_555
N1A C11A 1_555 1_555
N2A C11A 1_555 1_555
O1A Zn1A 1_555 1_555
O2A Zn1A 1_555 1_555
O3A C8A 1_555 1_555
O4A C8A 1_555 1_555
O4_2 Zn2 1_555 1_555
O4A_2 Zn2A 1_555 1_555
O5A C9A 1_555 1_555
O6A C9A 1_555 1_555
O6_2 Zn1 1_555 1_555
O6A_2 Zn1A 1_555 1_555
O7A Zn2A 1_555 1_555
O8A Zn1 1_555 1_555
O9A Zn1A 1_555 1_555
H10A O9A 1_555 1_555
H11A O9A 1_555 1_555
O10A Zn1A 1_555 1_555
H12A O10A 1_555 1_555
H13A O10A 1_555 1_555
O11A Zn2A 1_555 1_555
H14A O11A 1_555 1_555
H15A O11A 1_555 1_555
C5 C6 1_555 1_555
C7 O2 1_555 1_555
C10 O7 1_555 1_555
C12 N1 1_555 1_555
C13 N2 1_555 1_555
C14 N2 1_555 1_555
C5A C6A 1_555 1_555
C7A O1A 1_555 1_555
C7A O2A 1_555 1_555
C10A O7A 1_555 1_555
C10A O8A 1_555 1_555
C12A N1A 1_555 1_555
C13A N2A 1_555 1_555
C14A C15A 1_555 1_555
C14A N2A 1_555 1_555

#END
