
#######################################################################
#
#                 Cambridge Crystallographic Data Centre
#                                CCDC 
#
#######################################################################
#
# If this CIF has been generated from an entry in the Cambridge 
# Structural Database, then it will include bibliographic, chemical, 
# crystal, experimental, refinement or atomic coordinate data resulting 
# from the CCDC's data processing and validation procedures.
#
#######################################################################

data_ASADEE
_symmetry_cell_setting           monoclinic
_symmetry_space_group_name_H-M   'P 21/c'
_symmetry_Int_Tables_number      14
_space_group_name_Hall           '-P 2ybc'
loop_
_symmetry_equiv_pos_site_id
_symmetry_equiv_pos_as_xyz
1 x,y,z
2 -x,1/2+y,1/2-z
3 -x,-y,-z
4 x,1/2-y,1/2+z
_cell_length_a                   16.382(4)
_cell_length_b                   17.179(4)
_cell_length_c                   13.067(5)
_cell_angle_alpha                90
_cell_angle_beta                 101.812(11)
_cell_angle_gamma                90
_cell_volume                     3599.53
loop_
_atom_site_label
_atom_site_type_symbol
_atom_site_fract_x
_atom_site_fract_y
_atom_site_fract_z
Cu1 Cu 0.16110(3) 0.49527(2) 0.20711(4)
Cu2 Cu 0.32921(3) 0.50462(2) 0.25483(4)
C1 C 0.2561(3) 0.3841(2) 0.3531(3)
C2 C 0.2580(3) 0.3086(2) 0.4114(3)
C3 C 0.3327(3) 0.2662(2) 0.4427(3)
C4 C 0.4068(3) 0.2839(2) 0.3951(4)
C5 C 0.3346(3) 0.2013(2) 0.5088(3)
C6 C 0.4167(3) 0.1592(2) 0.5437(3)
C7 C 0.2557(3) 0.1040(2) 0.5995(3)
C8 C 0.2599(3) 0.1751(2) 0.5332(3)
C9 C 0.1854(3) 0.2138(2) 0.4941(3)
H1 H 0.1355 0.1942 0.5070
C10 C 0.1850(3) 0.2815(2) 0.4360(3)
H2 H 0.1355 0.3087 0.4136
C11 C 0.2328(3) 0.6051(2) 0.3613(3)
C12 C 0.2309(3) 0.6770(2) 0.4258(3)
C13 C 0.0718(3) 0.6716(2) 0.4063(3)
C14 C 0.1571(3) 0.7063(2) 0.4496(3)
C15 C 0.1612(3) 0.7699(2) 0.5172(3)
C16 C 0.0881(3) 0.7883(2) 0.5670(3)
C17 C 0.2369(2) 0.8099(2) 0.5503(3)
C18 C 0.2399(3) 0.8848(2) 0.6101(3)
C19 C 0.3088(3) 0.7812(2) 0.5242(3)
H3 H 0.3592 0.8071 0.5463
C20 C 0.3061(3) 0.7139(2) 0.4653(3)
H4 H 0.3553 0.6932 0.4519
C21 C 0.5114(3) 0.4850(3) 0.3697(4)
H5 H 0.4886 0.4487 0.4086
C22 C 0.5961(3) 0.4996(3) 0.3972(4)
H6 H 0.6282 0.4747 0.4548
C23 C 0.6328(3) 0.5508(3) 0.3395(4)
C24 C 0.7232(3) 0.5664(3) 0.3619(4)
C25 C 0.7781(3) 0.5198(3) 0.4301(4)
H7 H 0.7580 0.4774 0.4617
C26 C 0.8617(3) 0.5356(3) 0.4514(4)
H8 H 0.8974 0.5047 0.4992
C27 C 0.8419(3) 0.6393(3) 0.3387(4)
H9 H 0.8643 0.6803 0.3068
C28 C 0.7571(3) 0.6275(3) 0.3154(4)
H10 H 0.7228 0.6604 0.2688
C29 C 0.5812(3) 0.5838(3) 0.2537(4)
H11 H 0.6031 0.6173 0.2104
C30 C 0.4977(3) 0.5671(3) 0.2324(5)
H12 H 0.4644 0.5899 0.1740
C31 C 0.0026(3) 0.4073(3) 0.2028(5)
H13 H 0.0419 0.3676 0.2172
C32 C -0.0796(3) 0.3893(3) 0.2039(5)
H14 H -0.0936 0.3396 0.2226
C33 C -0.1409(3) 0.4450(3) 0.1772(4)
C34 C -0.1146(3) 0.5136(3) 0.1428(4)
H15 H -0.1535 0.5517 0.1164
C35 C -0.0309(3) 0.5273(3) 0.1465(5)
H16 H -0.0156 0.5749 0.1220
C36 C -0.2291(3) 0.4252(3) 0.1745(4)
C37 C -0.2504(3) 0.3666(3) 0.2372(4)
H17 H -0.2090 0.3414 0.2851
C38 C -0.3325(3) 0.3458(3) 0.2286(4)
H18 H -0.3458 0.3059 0.2705
C39 C -0.3747(3) 0.4391(3) 0.1029(4)
H19 H -0.4176 0.4643 0.0571
C40 C -0.2941(3) 0.4627(3) 0.1077(4)
H20 H -0.2829 0.5037 0.0663
N1 N 0.4613(2) 0.5197(2) 0.2911(3)
N2 N 0.8929(2) 0.5941(2) 0.4053(3)
N3 N 0.0285(2) 0.47670(19) 0.1828(3)
N4 N -0.3934(2) 0.3812(2) 0.1620(3)
O1 O 0.18523(19) 0.41032(16) 0.3126(3)
O2 O 0.32421(18) 0.41685(16) 0.3504(2)
O3 O 0.3832(2) 0.27255(19) 0.2908(3)
H21 H 0.4195 0.2891 0.2617
O4 O 0.4748(2) 0.3013(2) 0.4398(3)
O5 O 0.45961(19) 0.17944(17) 0.6355(3)
H22 H 0.5035 0.1550 0.6481
O6 O 0.4401(2) 0.11286(19) 0.4864(3)
O7 O 0.32228(19) 0.07176(16) 0.6409(2)
O8 O 0.18426(19) 0.08322(16) 0.6083(3)
O9 O 0.30372(18) 0.57901(16) 0.3586(2)
O10 O 0.16481(18) 0.57611(16) 0.3157(2)
O11 O 0.04607(19) 0.62574(18) 0.4692(3)
H23 H -0.0027 0.6141 0.4456
O12 O 0.03140(18) 0.69160(17) 0.3202(2)
O13 O 0.0201(2) 0.8071(2) 0.5215(3)
O14 O 0.1108(2) 0.77500(18) 0.6688(2)
H24 H 0.0734 0.7888 0.6979
O15 O 0.17245(18) 0.91934(15) 0.6094(2)
O16 O 0.31106(19) 0.90721(16) 0.6568(2)
Cu1C Cu 0.16110(3) 0.00473(2) 0.70711(4)
Cu1C_2 Cu 0.16110(3) 1.00473(2) 0.70711(4)
Cu2C Cu 0.32921(3) -0.00462(2) 0.75483(4)
Cu2C_2 Cu 0.32921(3) 0.99538(2) 0.75483(4)
O7C O 0.32228(19) 0.42824(16) 0.1409(2)
O8C O 0.18426(19) 0.41678(16) 0.1083(3)
O15C O 0.17245(18) 0.58066(15) 0.1094(2)
O16C O 0.31106(19) 0.59279(16) 0.1568(2)
loop_
_geom_bond_atom_site_label_1
_geom_bond_atom_site_label_2
_geom_bond_site_symmetry_1
_geom_bond_site_symmetry_2
Cu1 N3 1_555 1_555
Cu2 N1 1_555 1_555
C1 C2 1_555 1_555
C2 C3 1_555 1_555
C3 C4 1_555 1_555
C4 O3 1_555 1_555
C5 C3 1_555 1_555
C6 C5 1_555 1_555
C7 C8 1_555 1_555
C8 C5 1_555 1_555
C9 C8 1_555 1_555
H1 C9 1_555 1_555
C10 C2 1_555 1_555
H2 C10 1_555 1_555
C11 C12 1_555 1_555
C12 C14 1_555 1_555
C13 C14 1_555 1_555
C14 C15 1_555 1_555
C15 C16 1_555 1_555
C16 O13 1_555 1_555
C17 C15 1_555 1_555
C18 C17 1_555 1_555
C19 C17 1_555 1_555
H3 C19 1_555 1_555
C20 C12 1_555 1_555
H4 C20 1_555 1_555
C21 H5 1_555 1_555
C22 C21 1_555 1_555
H6 C22 1_555 1_555
C23 C22 1_555 1_555
C24 C23 1_555 1_555
C25 C24 1_555 1_555
H7 C25 1_555 1_555
C26 C25 1_555 1_555
H8 C26 1_555 1_555
C27 H9 1_555 1_555
C28 C24 1_555 1_555
H10 C28 1_555 1_555
C29 C23 1_555 1_555
H11 C29 1_555 1_555
C30 C29 1_555 1_555
H12 C30 1_555 1_555
C31 H13 1_555 1_555
C32 C31 1_555 1_555
H14 C32 1_555 1_555
C33 C32 1_555 1_555
C34 C33 1_555 1_555
H15 C34 1_555 1_555
C35 C34 1_555 1_555
H16 C35 1_555 1_555
C36 C33 1_555 1_555
C37 C36 1_555 1_555
H17 C37 1_555 1_555
C38 C37 1_555 1_555
H18 C38 1_555 1_555
C39 H19 1_555 1_555
C40 C36 1_555 1_555
H20 C40 1_555 1_555
N1 C21 1_555 1_555
N2 C26 1_555 1_555
N3 C31 1_555 1_555
N4 C38 1_555 1_555
O1 Cu1 1_555 1_555
O2 Cu2 1_555 1_555
O3 H21 1_555 1_555
O4 C4 1_555 1_555
O5 C6 1_555 1_555
H22 O5 1_555 1_555
O6 C6 1_555 1_555
O7 C7 1_555 1_555
O8 C7 1_555 1_555
O9 Cu2 1_555 1_555
O10 Cu1 1_555 1_555
O11 C13 1_555 1_555
H23 O11 1_555 1_555
O12 C13 1_555 1_555
O14 C16 1_555 1_555
H24 O14 1_555 1_555
O15 C18 1_555 1_555
O16 C18 1_555 1_555
Cu1C O8 1_555 1_555
Cu1C_2 O15 1_555 1_555
Cu2C O7 1_555 1_555
Cu2C_2 O16 1_555 1_555
O7C Cu2 1_555 1_555
O8C Cu1 1_555 1_555
O15C Cu1 1_555 1_555
O16C Cu2 1_555 1_555
C1 O1 1_555 1_555
C1 O2 1_555 1_555
C9 C10 1_555 1_555
C11 O9 1_555 1_555
C11 O10 1_555 1_555
C19 C20 1_555 1_555
C27 C28 1_555 1_555
C27 N2 1_555 1_555
C30 N1 1_555 1_555
C35 N3 1_555 1_555
C39 C40 1_555 1_555
C39 N4 1_555 1_555

#END
