
#######################################################################
#
#                 Cambridge Crystallographic Data Centre
#                                CCDC 
#
#######################################################################
#
# If this CIF has been generated from an entry in the Cambridge 
# Structural Database, then it will include bibliographic, chemical, 
# crystal, experimental, refinement or atomic coordinate data resulting 
# from the CCDC's data processing and validation procedures.
#
#######################################################################

data_ASAFEF
_symmetry_cell_setting           monoclinic
_symmetry_space_group_name_H-M   'C 2/c'
_symmetry_Int_Tables_number      15
_space_group_name_Hall           '-C 2yn'
loop_
_symmetry_equiv_pos_site_id
_symmetry_equiv_pos_as_xyz
1 x,y,z
2 1/2+x,1/2+y,z
3 x,-y,1/2+z
4 1/2+x,1/2-y,1/2+z
5 -x,-y,-z
6 1/2-x,1/2-y,-z
7 -x,y,1/2-z
8 1/2-x,1/2+y,1/2-z
_cell_length_a                   27.2789(18)
_cell_length_b                   11.7378(8)
_cell_length_c                   7.3357(5)
_cell_angle_alpha                90
_cell_angle_beta                 101.4270(10)
_cell_angle_gamma                90
_cell_volume                     2302.29
loop_
_atom_site_label
_atom_site_type_symbol
_atom_site_fract_x
_atom_site_fract_y
_atom_site_fract_z
Zn1 Zn 0.2500 0.7500 0.0000
C1 C 0.36060(8) 0.71511(17) 0.0591(3)
H1 H 0.3581 0.7941 0.0307
C2 C 0.40731(7) 0.66718(16) 0.1041(3)
H2 H 0.4364 0.7119 0.1054
C3 C 0.41117(7) 0.55188(16) 0.1477(3)
C4 C 0.36768(7) 0.48856(16) 0.1371(3)
H3 H 0.3691 0.4090 0.1616
C5 C 0.32234(7) 0.54405(16) 0.0903(3)
H4 H 0.2926 0.5010 0.0840
C6 C 0.46064(8) 0.50056(16) 0.2044(3)
N1 N 0.31834(6) 0.65596(13) 0.0533(2)
N2 N 0.47387(7) 0.39600(15) 0.2197(3)
N3 N 0.20892(6) 0.66908(13) 0.3410(2)
O1 O 0.5000 0.57256(15) 0.2500
O2 O 0.28592(6) 0.87427(12) 0.1786(2)
H8 H 0.2880(9) 0.874(2) 0.291(3)
H9 H 0.2914(11) 0.935(2) 0.140(4)
O3 O 0.22690(5) 0.64069(11) 0.20234(19)
O4 O 0.20050(6) 0.76928(11) 0.3738(2)
O5 O 0.19979(6) 0.59054(11) 0.4470(2)
N2F N 0.52613(7) 0.39600(15) 0.2803(3)
C6F C 0.53936(8) 0.50056(16) 0.2956(3)
C3F C 0.58883(7) 0.55188(16) 0.3523(3)
C2F C 0.59269(7) 0.66718(16) 0.3959(3)
C1F C 0.63940(8) 0.71511(17) 0.4409(3)
H1F H 0.6419 0.7941 0.4693
N1F N 0.68166(6) 0.65596(13) 0.4467(2)
C5F C 0.67766(7) 0.54405(16) 0.4097(3)
C4F C 0.63232(7) 0.48856(16) 0.3629(3)
H3F H 0.6309 0.4090 0.3384
H4F H 0.7074 0.5010 0.4160
H2F H 0.5636 0.7119 0.3946
O2E O 0.21408(6) 0.62573(12) -0.1786(2)
H8E H 0.2120(9) 0.626(2) -0.291(3)
H9E H 0.2086(11) 0.565(2) -0.140(4)
N3E N 0.29108(6) 0.83092(13) -0.3410(2)
O3E O 0.27310(5) 0.85931(11) -0.20234(19)
O4E O 0.29950(6) 0.73072(11) -0.3738(2)
O5E O 0.30021(6) 0.90946(11) -0.4470(2)
N1E N 0.18166(6) 0.84404(13) -0.0533(2)
Zn1C Zn 0.7500 0.7500 0.5000
C7 C 0.43528(13) 0.0188(3) 0.0324(5)
C8 C 0.43063(15) 0.1417(3) 0.0397(6)
H5 H 0.4311 0.1654 0.1681
H6 H 0.3990 0.1654 -0.0397
H7 H 0.4586 0.1773 -0.0044
N4 N 0.43931(14) -0.0767(2) 0.0285(5)
loop_
_geom_bond_atom_site_label_1
_geom_bond_atom_site_label_2
_geom_bond_site_symmetry_1
_geom_bond_site_symmetry_2
Zn1 N1 1_555 1_555
C1 H1 1_555 1_555
C2 C1 1_555 1_555
H2 C2 1_555 1_555
C3 C2 1_555 1_555
C4 C3 1_555 1_555
H3 C4 1_555 1_555
C5 C4 1_555 1_555
H4 C5 1_555 1_555
C6 C3 1_555 1_555
C7 C8 1_555 1_555
C8 H5 1_555 1_555
H6 C8 1_555 1_555
H7 C8 1_555 1_555
N1 C1 1_555 1_555
N2 C6 1_555 1_555
N3 O3 1_555 1_555
N4 C7 1_555 1_555
O1 C6 1_555 1_555
O2 Zn1 1_555 1_555
H8 O2 1_555 1_555
H9 O2 1_555 1_555
O3 Zn1 1_555 1_555
O4 N3 1_555 1_555
O5 N3 1_555 1_555
N2F N2 1_555 1_555
C6F O1 1_555 1_555
C3F C6F 1_555 1_555
C2F C3F 1_555 1_555
C1F C2F 1_555 1_555
H1F C1F 1_555 1_555
N1F C1F 1_555 1_555
C5F N1F 1_555 1_555
C4F C3F 1_555 1_555
H3F C4F 1_555 1_555
H4F C5F 1_555 1_555
H2F C2F 1_555 1_555
O2E Zn1 1_555 1_555
H8E O2E 1_555 1_555
H9E O2E 1_555 1_555
N3E O3E 1_555 1_555
O3E Zn1 1_555 1_555
O4E N3E 1_555 1_555
O5E N3E 1_555 1_555
N1E Zn1 1_555 1_555
Zn1C N1F 1_555 1_555
C5 N1 1_555 1_555
N2F C6F 1_555 1_555
C5F C4F 1_555 1_555

#END
