
#######################################################################
#
#                 Cambridge Crystallographic Data Centre
#                                CCDC 
#
#######################################################################
#
# If this CIF has been generated from an entry in the Cambridge 
# Structural Database, then it will include bibliographic, chemical, 
# crystal, experimental, refinement or atomic coordinate data resulting 
# from the CCDC's data processing and validation procedures.
#
#######################################################################

data_ASAJOT
_symmetry_cell_setting           monoclinic
_symmetry_space_group_name_H-M   'P 21/n'
_symmetry_Int_Tables_number      14
_space_group_name_Hall           '-P 2yn'
loop_
_symmetry_equiv_pos_site_id
_symmetry_equiv_pos_as_xyz
1 x,y,z
2 1/2+x,1/2-y,1/2+z
3 -x,-y,-z
4 1/2-x,1/2+y,1/2-z
_cell_length_a                   8.968(2)
_cell_length_b                   16.616(4)
_cell_length_c                   24.746(7)
_cell_angle_alpha                90
_cell_angle_beta                 97.14(2)
_cell_angle_gamma                90
_cell_volume                     3658.86
loop_
_atom_site_label
_atom_site_type_symbol
_atom_site_fract_x
_atom_site_fract_y
_atom_site_fract_z
Bi1 Bi 0.87377(3) 0.841510(15) 0.807884(10)
S1 S 0.7941(2) 0.98278(11) 0.76522(7)
S2 S 0.6617(2) 0.87393(11) 0.86770(8)
S3 S 0.6638(2) 0.78268(11) 0.73431(8)
C1 C 1.1513(14) 0.8752(5) 0.7065(5)
H1 H 1.0935 0.8487 0.6782
C2 C 1.2847(17) 0.9279(6) 0.6378(4)
H2 H 1.2092 0.9036 0.6120
H3 H 1.3804 0.9037 0.6346
H4 H 1.2895 0.9845 0.6306
C3 C 1.3678(13) 0.9530(8) 0.7296(5)
H5 H 1.3429 0.9446 0.7658
H6 H 1.3737 1.0097 0.7227
H7 H 1.4629 0.9283 0.7261
C4 C 0.9264(8) 1.0507(4) 0.7975(3)
C5 C 0.9216(8) 1.0777(4) 0.8503(3)
C6 C 1.0186(9) 1.1336(4) 0.8758(3)
C7 C 1.1241(9) 1.1679(5) 0.8467(4)
C8 C 1.1353(8) 1.1430(4) 0.7945(3)
C9 C 1.0344(8) 1.0855(4) 0.7705(3)
C10 C 0.6025(9) 0.7842(4) 0.8961(3)
C11 C 0.6645(10) 0.7568(5) 0.9464(3)
C12 C 0.6125(11) 0.6895(6) 0.9699(3)
C13 C 0.4940(13) 0.6467(5) 0.9438(4)
C14 C 0.4258(10) 0.6737(5) 0.8939(4)
C15 C 0.4799(9) 0.7412(4) 0.8710(3)
C16 C 0.7731(8) 0.7540(4) 0.6832(3)
C17 C 0.8778(8) 0.6927(4) 0.6895(3)
C18 C 0.9529(8) 0.6655(5) 0.6476(3)
C19 C 0.9280(10) 0.7016(6) 0.5976(3)
C20 C 0.8304(10) 0.7649(6) 0.5903(3)
C21 C 0.7544(9) 0.7898(5) 0.6325(3)
C22 C 1.0021(10) 0.7004(4) 0.9096(3)
H8 H 1.0576 0.7473 0.9169
C23 C 1.0265(11) 0.6366(4) 0.9463(3)
H9 H 1.0977 0.6411 0.9768
C24 C 0.9450(11) 0.5674(4) 0.9369(3)
C25 C 0.8446(10) 0.5644(4) 0.8905(3)
H10 H 0.7881 0.5181 0.8822
C26 C 0.8268(9) 0.6298(4) 0.8557(3)
H11 H 0.7578 0.6262 0.8245
C27 C 0.9621(16) 0.4975(6) 0.9756(3)
H12 H 0.8614 0.4801 0.9805
H13 H 1.0070 0.4541 0.9569
C28 C 1.0549(9) 0.9196(5) 0.9401(3)
H14 H 0.9622 0.9072 0.9512
C29 C 1.1645(9) 0.9487(5) 0.9773(3)
H15 H 1.1464 0.9539 1.0134
C30 C 1.3008(9) 0.9706(4) 0.9633(3)
C31 C 1.3199(9) 0.9578(4) 0.9102(3)
H16 H 1.4105 0.9712 0.8979
C32 C 1.2071(9) 0.9257(4) 0.8754(3)
H17 H 1.2252 0.9156 0.8398
C33 C 1.4196(8) 1.0064(5) 1.0051(3)
H18 H 1.4018 1.0639 1.0069
H19 H 1.4072 0.9839 1.0404
N1 N 0.9043(7) 0.6976(4) 0.8652(2)
N2 N 1.0738(7) 0.9080(3) 0.8887(2)
N3 N 1.2491(9) 0.9162(4) 0.6893(3)
F1 F 0.8177(5) 1.0470(2) 0.88000(16)
F2 F 1.0084(5) 1.1577(3) 0.92659(18)
F3 F 1.2190(5) 1.2237(3) 0.87027(19)
F4 F 1.2378(5) 1.1764(3) 0.76616(19)
F5 F 1.0451(5) 1.0657(2) 0.71827(17)
F6 F 0.7780(6) 0.7957(3) 0.97485(18)
F7 F 0.6752(7) 0.6624(4) 1.0180(2)
F8 F 0.4394(8) 0.5802(3) 0.9649(2)
F9 F 0.3064(6) 0.6331(3) 0.8673(2)
F10 F 0.4114(5) 0.7655(3) 0.82310(18)
F11 F 0.9072(5) 0.6563(3) 0.73759(16)
F12 F 1.0487(5) 0.6037(3) 0.6551(2)
F13 F 1.0018(6) 0.6763(3) 0.55652(18)
F14 F 0.8045(6) 0.8004(4) 0.5411(2)
F15 F 0.6553(6) 0.8510(3) 0.62187(19)
O1 O 1.1096(7) 0.8598(4) 0.7488(3)
C27B C 1.0379(16) 0.5025(6) 1.0244(3)
C24B C 1.0550(11) 0.4326(4) 1.0631(3)
C23B C 0.9735(11) 0.3634(4) 1.0537(3)
C22B C 0.9979(10) 0.2996(4) 1.0904(3)
H8B H 0.9424 0.2527 1.0831
N1B N 1.0957(7) 0.3024(4) 1.1348(2)
C26B C 1.1732(9) 0.3702(4) 1.1443(3)
C25B C 1.1554(10) 0.4356(4) 1.1095(3)
H10B H 1.2119 0.4819 1.1178
H11B H 1.2422 0.3738 1.1755
H9B H 0.9023 0.3589 1.0232
H12B H 1.1386 0.5199 1.0195
H13B H 0.9930 0.5459 1.0431
C33B C 1.5804(8) 0.9936(5) 0.9949(3)
C30B C 1.6992(9) 1.0294(4) 1.0367(3)
C29B C 1.8355(9) 1.0513(5) 1.0227(3)
C28B C 1.9451(9) 1.0804(5) 1.0599(3)
H14B H 2.0378 1.0928 1.0488
N2B N 1.9262(7) 1.0920(3) 1.1113(2)
C32B C 1.7929(9) 1.0743(4) 1.1246(3)
C31B C 1.6801(9) 1.0422(4) 1.0898(3)
H16B H 1.5895 1.0288 1.1021
H17B H 1.7748 1.0844 1.1602
H15B H 1.8536 1.0461 0.9866
H18B H 1.5982 0.9361 0.9931
H19B H 1.5928 1.0161 0.9596
Bi1B Bi 1.12623(3) 0.158490(15) 1.192116(10)
S1B S 1.2059(2) 0.01722(11) 1.23478(7)
C4B C 1.0736(8) -0.0507(4) 1.2025(3)
C5B C 1.0784(8) -0.0777(4) 1.1497(3)
C6B C 0.9814(9) -0.1336(4) 1.1242(3)
C7B C 0.8759(9) -0.1679(5) 1.1533(4)
C8B C 0.8647(8) -0.1430(4) 1.2055(3)
C9B C 0.9656(8) -0.0855(4) 1.2295(3)
F1B F 1.1823(5) -0.0470(2) 1.12000(16)
F2B F 0.9916(5) -0.1577(3) 1.07341(18)
F3B F 0.7810(5) -0.2237(3) 1.12973(19)
F4B F 0.7622(5) -0.1764(3) 1.23384(19)
F5B F 0.9549(5) -0.0657(2) 1.28173(17)
S2B S 1.3383(2) 0.12607(11) 1.13230(8)
C10B C 1.3975(9) 0.2158(4) 1.1039(3)
C11B C 1.3355(10) 0.2432(5) 1.0536(3)
C12B C 1.3875(11) 0.3105(6) 1.0301(3)
C13B C 1.5060(13) 0.3533(5) 1.0562(4)
C14B C 1.5742(10) 0.3263(5) 1.1061(4)
C15B C 1.5201(9) 0.2588(4) 1.1290(3)
F6B F 1.2220(6) 0.2043(3) 1.02515(18)
F7B F 1.3248(7) 0.3376(4) 0.9820(2)
F8B F 1.5606(8) 0.4198(3) 1.0351(2)
F9B F 1.6936(6) 0.3669(3) 1.1327(2)
F10B F 1.5886(5) 0.2345(3) 1.17690(18)
S3B S 1.3362(2) 0.21732(11) 1.26569(8)
C16B C 1.2269(8) 0.2460(4) 1.3168(3)
C17B C 1.1222(8) 0.3073(4) 1.3105(3)
C18B C 1.0471(8) 0.3345(5) 1.3524(3)
C19B C 1.0720(10) 0.2984(6) 1.4024(3)
C20B C 1.1696(10) 0.2351(6) 1.4097(3)
C21B C 1.2456(9) 0.2102(5) 1.3675(3)
F11B F 1.0928(5) 0.3437(3) 1.26241(16)
F12B F 0.9513(5) 0.3963(3) 1.3449(2)
F13B F 0.9982(6) 0.3237(3) 1.44348(18)
F14B F 1.1955(6) 0.1996(4) 1.4589(2)
F15B F 1.3447(6) 0.1490(3) 1.37813(19)
C1B C 0.8487(14) 0.1248(5) 1.2935(5)
H1B H 0.9065 0.1513 1.3218
C2B C 0.7153(17) 0.0721(6) 1.3622(4)
H2B H 0.7908 0.0964 1.3880
H3B H 0.6196 0.0963 1.3654
H4B H 0.7105 0.0155 1.3694
C3B C 0.6322(13) 0.0470(8) 1.2704(5)
H5B H 0.6571 0.0554 1.2342
H6B H 0.6263 -0.0097 1.2773
H7B H 0.5371 0.0717 1.2739
N3B N 0.7509(9) 0.0838(4) 1.3107(3)
O1B O 0.8904(7) 0.1402(4) 1.2512(3)
Bi1B_2 Bi 2.12623(3) 1.158490(15) 1.192116(10)
N2B_2 N 0.9262(7) 0.0920(3) 1.1113(2)
loop_
_geom_bond_atom_site_label_1
_geom_bond_atom_site_label_2
_geom_bond_site_symmetry_1
_geom_bond_site_symmetry_2
Bi1 S1 1_555 1_555
S1 C4 1_555 1_555
S2 Bi1 1_555 1_555
S3 Bi1 1_555 1_555
C1 H1 1_555 1_555
C2 H2 1_555 1_555
H3 C2 1_555 1_555
H4 C2 1_555 1_555
C3 H5 1_555 1_555
H6 C3 1_555 1_555
H7 C3 1_555 1_555
C4 C5 1_555 1_555
C5 C6 1_555 1_555
C6 C7 1_555 1_555
C7 C8 1_555 1_555
C8 C9 1_555 1_555
C9 C4 1_555 1_555
C10 S2 1_555 1_555
C11 C10 1_555 1_555
C12 C11 1_555 1_555
C13 C12 1_555 1_555
C14 C13 1_555 1_555
C15 C10 1_555 1_555
C16 S3 1_555 1_555
C17 C16 1_555 1_555
C18 C17 1_555 1_555
C19 C18 1_555 1_555
C20 C19 1_555 1_555
C21 C16 1_555 1_555
C22 H8 1_555 1_555
C23 C22 1_555 1_555
H9 C23 1_555 1_555
C24 C23 1_555 1_555
C25 C24 1_555 1_555
H10 C25 1_555 1_555
C26 C25 1_555 1_555
H11 C26 1_555 1_555
C27 C24 1_555 1_555
H12 C27 1_555 1_555
H13 C27 1_555 1_555
C28 H14 1_555 1_555
C29 C28 1_555 1_555
H15 C29 1_555 1_555
C30 C29 1_555 1_555
C31 C30 1_555 1_555
H16 C31 1_555 1_555
C32 C31 1_555 1_555
H17 C32 1_555 1_555
C33 C30 1_555 1_555
H18 C33 1_555 1_555
H19 C33 1_555 1_555
N1 Bi1 1_555 1_555
N2 Bi1 1_555 1_555
N3 C1 1_555 1_555
F1 C5 1_555 1_555
F2 C6 1_555 1_555
F3 C7 1_555 1_555
F4 C8 1_555 1_555
F5 C9 1_555 1_555
F6 C11 1_555 1_555
F7 C12 1_555 1_555
F8 C13 1_555 1_555
F9 C14 1_555 1_555
F10 C15 1_555 1_555
F11 C17 1_555 1_555
F12 C18 1_555 1_555
F13 C19 1_555 1_555
F14 C20 1_555 1_555
F15 C21 1_555 1_555
O1 Bi1 1_555 1_555
C27B C27 1_555 1_555
C24B C27B 1_555 1_555
C23B C24B 1_555 1_555
C22B C23B 1_555 1_555
H8B C22B 1_555 1_555
N1B C22B 1_555 1_555
C26B N1B 1_555 1_555
C25B C24B 1_555 1_555
H10B C25B 1_555 1_555
H11B C26B 1_555 1_555
H9B C23B 1_555 1_555
H12B C27B 1_555 1_555
H13B C27B 1_555 1_555
C33B C33 1_555 1_555
C30B C33B 1_555 1_555
C29B C30B 1_555 1_555
C28B C29B 1_555 1_555
H14B C28B 1_555 1_555
N2B C28B 1_555 1_555
C32B N2B 1_555 1_555
C31B C30B 1_555 1_555
H16B C31B 1_555 1_555
H17B C32B 1_555 1_555
H15B C29B 1_555 1_555
H18B C33B 1_555 1_555
H19B C33B 1_555 1_555
Bi1B N1B 1_555 1_555
S1B Bi1B 1_555 1_555
C4B S1B 1_555 1_555
C5B C4B 1_555 1_555
C6B C5B 1_555 1_555
C7B C6B 1_555 1_555
C8B C7B 1_555 1_555
C9B C4B 1_555 1_555
F1B C5B 1_555 1_555
F2B C6B 1_555 1_555
F3B C7B 1_555 1_555
F4B C8B 1_555 1_555
F5B C9B 1_555 1_555
S2B Bi1B 1_555 1_555
C10B S2B 1_555 1_555
C11B C10B 1_555 1_555
C12B C11B 1_555 1_555
C13B C12B 1_555 1_555
C14B C13B 1_555 1_555
C15B C10B 1_555 1_555
F6B C11B 1_555 1_555
F7B C12B 1_555 1_555
F8B C13B 1_555 1_555
F9B C14B 1_555 1_555
F10B C15B 1_555 1_555
S3B Bi1B 1_555 1_555
C16B S3B 1_555 1_555
C17B C16B 1_555 1_555
C18B C17B 1_555 1_555
C19B C18B 1_555 1_555
C20B C19B 1_555 1_555
C21B C16B 1_555 1_555
F11B C17B 1_555 1_555
F12B C18B 1_555 1_555
F13B C19B 1_555 1_555
F14B C20B 1_555 1_555
F15B C21B 1_555 1_555
C1B H1B 1_555 1_555
C2B H2B 1_555 1_555
H3B C2B 1_555 1_555
H4B C2B 1_555 1_555
C3B H5B 1_555 1_555
H6B C3B 1_555 1_555
H7B C3B 1_555 1_555
N3B C1B 1_555 1_555
O1B Bi1B 1_555 1_555
Bi1B_2 N2B 1_555 1_555
N2B_2 Bi1B 1_555 1_555
C1 O1 1_555 1_555
C2 N3 1_555 1_555
C3 N3 1_555 1_555
C14 C15 1_555 1_555
C20 C21 1_555 1_555
C22 N1 1_555 1_555
C26 N1 1_555 1_555
C28 N2 1_555 1_555
C32 N2 1_555 1_555
C26B C25B 1_555 1_555
C32B C31B 1_555 1_555
C8B C9B 1_555 1_555
C14B C15B 1_555 1_555
C20B C21B 1_555 1_555
C1B O1B 1_555 1_555
C2B N3B 1_555 1_555
C3B N3B 1_555 1_555

#END
