
#######################################################################
#
#                 Cambridge Crystallographic Data Centre
#                                CCDC 
#
#######################################################################
#
# If this CIF has been generated from an entry in the Cambridge 
# Structural Database, then it will include bibliographic, chemical, 
# crystal, experimental, refinement or atomic coordinate data resulting 
# from the CCDC's data processing and validation procedures.
#
#######################################################################

data_ASAKIP
_symmetry_cell_setting           monoclinic
_symmetry_space_group_name_H-M   'C c'
_symmetry_Int_Tables_number      9
_space_group_name_Hall           'C -2yc'
loop_
_symmetry_equiv_pos_site_id
_symmetry_equiv_pos_as_xyz
1 x,y,z
2 x,-y,1/2+z
3 1/2+x,1/2+y,z
4 1/2+x,1/2-y,1/2+z
_cell_length_a                   18.3455(11)
_cell_length_b                   11.7661(7)
_cell_length_c                   19.1766(13)
_cell_angle_alpha                90
_cell_angle_beta                 99.0270(10)
_cell_angle_gamma                90
_cell_volume                     4088.1
loop_
_atom_site_label
_atom_site_type_symbol
_atom_site_fract_x
_atom_site_fract_y
_atom_site_fract_z
Ag1 Ag 0.22556(2) 0.17584(4) 0.28823(2)
Ag2 Ag 0.38555(2) 0.77950(4) 0.21590(3)
N1 N 0.2733(3) -0.0023(4) 0.3370(3)
N2 N 0.3528(3) 0.1781(4) 0.2980(3)
N3 N 0.2567(3) 0.7723(4) 0.2143(3)
N4 N 0.3338(3) 0.9537(4) 0.1721(2)
N5 N 0.4637(3) 0.6596(4) 0.2913(3)
N6 N 0.4627(3) 0.6822(5) 0.1480(3)
N7 N 0.1414(3) 0.6990(4) -0.2731(3)
N8 N 0.1530(3) 0.7463(5) -0.1316(3)
C1 C 0.2374(3) -0.0882(5) 0.3608(3)
H1 H 0.1868 -0.0935 0.3456
C2 C 0.2705(3) -0.1706(5) 0.4067(3)
H2 H 0.2427 -0.2294 0.4215
C3 C 0.3447(4) -0.1641(5) 0.4301(3)
H3 H 0.3685 -0.2175 0.4614
C4 C 0.3833(3) -0.0747(5) 0.4053(3)
H4 H 0.4340 -0.0687 0.4195
C5 C 0.3471(3) 0.0046(5) 0.3602(3)
C6 C 0.3851(4) 0.1010(5) 0.3358(3)
H5 H 0.4360 0.1059 0.3489
C7 C 0.3967(4) 0.2718(5) 0.2764(4)
H6 H 0.4141 0.2524 0.2326
H7 H 0.4394 0.2850 0.3122
C8 C 0.3497(3) 0.3786(6) 0.2660(3)
C9 C 0.3190(3) 0.4221(6) 0.3219(3)
H8 H 0.3281 0.3864 0.3657
C10 C 0.2751(3) 0.5176(6) 0.3133(3)
H9 H 0.2550 0.5462 0.3513
C11 C 0.2607(3) 0.5712(5) 0.2484(3)
C12 C 0.2915(3) 0.5289(5) 0.1931(3)
H10 H 0.2826 0.5651 0.1495
C13 C 0.3357(4) 0.4331(6) 0.2015(3)
H11 H 0.3560 0.4051 0.1635
C14 C 0.2145(4) 0.6783(5) 0.2386(4)
H12 H 0.1706 0.6645 0.2043
H13 H 0.1989 0.6988 0.2830
C15 C 0.2212(4) 0.8512(5) 0.1797(3)
H14 H 0.1700 0.8471 0.1699
C16 C 0.2594(3) 0.9500(5) 0.1547(3)
C17 C 0.2189(3) 1.0322(5) 0.1136(3)
H15 H 0.1677 1.0272 0.1033
C18 C 0.2559(3) 1.1209(6) 0.0883(3)
H16 H 0.2303 1.1751 0.0587
C19 C 0.3313(4) 1.1289(6) 0.1074(3)
H17 H 0.3576 1.1897 0.0929
C20 C 0.3666(4) 1.0427(6) 0.1492(3)
H18 H 0.4175 1.0482 0.1620
C21 C 0.4635(3) 0.6407(6) 0.3597(3)
H19 H 0.4385 0.6914 0.3847
C22 C 0.4988(3) 0.5492(5) 0.3950(3)
H20 H 0.4969 0.5399 0.4428
C23 C 0.5360(3) 0.4728(6) 0.3615(3)
H21 H 0.5602 0.4111 0.3851
C24 C 0.5365(3) 0.4908(5) 0.2907(3)
H22 H 0.5614 0.4402 0.2655
C25 C 0.5008(3) 0.5826(5) 0.2567(3)
C26 C 0.4993(3) 0.6012(6) 0.1811(3)
H23 H 0.5259 0.5524 0.1564
C27 C 0.4636(4) 0.6922(6) 0.0723(3)
H24 H 0.4833 0.6233 0.0547
H25 H 0.4947 0.7554 0.0631
C28 C 0.3850(4) 0.7117(5) 0.0354(3)
C29 C 0.3360(3) 0.6224(5) 0.0229(3)
H26 H 0.3521 0.5486 0.0336
C30 C 0.2633(3) 0.6419(6) -0.0053(3)
H27 H 0.2308 0.5810 -0.0139
C31 C 0.3613(4) 0.8203(6) 0.0180(4)
H28 H 0.3944 0.8806 0.0249
C32 C 0.2882(4) 0.8397(6) -0.0097(3)
H29 H 0.2724 0.9135 -0.0211
C33 C 0.1381(4) 0.6669(5) -0.3402(3)
H30 H 0.1612 0.7124 -0.3698
C34 C 0.1021(4) 0.5690(6) -0.3684(4)
H31 H 0.1018 0.5492 -0.4154
C35 C 0.0671(3) 0.5030(6) -0.3252(4)
H32 H 0.0430 0.4367 -0.3420
C36 C 0.0683(3) 0.5363(6) -0.2569(4)
H33 H 0.0435 0.4937 -0.2271
C37 C 0.1065(3) 0.6334(5) -0.2316(3)
C38 C 0.1120(4) 0.6661(6) -0.1569(4)
H34 H 0.0846 0.6267 -0.1279
C39 C 0.1591(4) 0.7707(7) -0.0554(3)
H35 H 0.1450 0.8488 -0.0484
H36 H 0.1263 0.7212 -0.0342
C40 C 0.2381(4) 0.7512(6) -0.0208(3)
Ag1A Ag 0.22556(2) 0.82416(4) -0.21177(2)
N7A N 0.1414(3) 0.3010(4) 0.2269(3)
N8A N 0.1530(3) 0.2537(5) 0.3684(3)
Cl1 Cl 0.00546(8) 0.80692(14) 0.07991(8)
O1 O 0.0110(3) 0.7059(4) 0.0395(3)
O2 O 0.0624(2) 0.8844(4) 0.0681(2)
O3 O 0.0140(3) 0.7807(4) 0.1538(3)
O4 O -0.0659(2) 0.8580(4) 0.0572(3)
Cl2 Cl 0.60046(9) 0.15805(13) 0.43675(9)
O5 O 0.5454(3) 0.0797(5) 0.4495(3)
O6 O 0.5993(3) 0.2564(4) 0.4791(3)
O7 O 0.6698(3) 0.1063(5) 0.4547(4)
O8 O 0.5909(4) 0.1920(4) 0.3646(3)
loop_
_geom_bond_atom_site_label_1
_geom_bond_atom_site_label_2
_geom_bond_site_symmetry_1
_geom_bond_site_symmetry_2
Ag1 N1 1_555 1_555
Ag2 N3 1_555 1_555
Cl1 O1 1_555 1_555
Cl2 O5 1_555 1_555
N1 C1 1_555 1_555
N2 Ag1 1_555 1_555
N3 C14 1_555 1_555
N4 Ag2 1_555 1_555
N5 Ag2 1_555 1_555
N6 Ag2 1_555 1_555
N7 C33 1_555 1_555
N8 C38 1_555 1_555
C1 H1 1_555 1_555
C2 C1 1_555 1_555
H2 C2 1_555 1_555
C3 C2 1_555 1_555
H3 C3 1_555 1_555
C4 C3 1_555 1_555
H4 C4 1_555 1_555
C5 N1 1_555 1_555
C6 N2 1_555 1_555
H5 C6 1_555 1_555
C7 N2 1_555 1_555
H6 C7 1_555 1_555
H7 C7 1_555 1_555
C8 C7 1_555 1_555
C9 C8 1_555 1_555
H8 C9 1_555 1_555
C10 C9 1_555 1_555
H9 C10 1_555 1_555
C11 C10 1_555 1_555
C12 C11 1_555 1_555
H10 C12 1_555 1_555
C13 C8 1_555 1_555
H11 C13 1_555 1_555
C14 C11 1_555 1_555
H12 C14 1_555 1_555
H13 C14 1_555 1_555
C15 N3 1_555 1_555
H14 C15 1_555 1_555
C16 N4 1_555 1_555
C17 C16 1_555 1_555
H15 C17 1_555 1_555
C18 C17 1_555 1_555
H16 C18 1_555 1_555
C19 C18 1_555 1_555
H17 C19 1_555 1_555
C20 N4 1_555 1_555
H18 C20 1_555 1_555
C21 N5 1_555 1_555
H19 C21 1_555 1_555
C22 C21 1_555 1_555
H20 C22 1_555 1_555
C23 C22 1_555 1_555
H21 C23 1_555 1_555
C24 C23 1_555 1_555
H22 C24 1_555 1_555
C25 N5 1_555 1_555
C26 N6 1_555 1_555
H23 C26 1_555 1_555
C27 N6 1_555 1_555
H24 C27 1_555 1_555
H25 C27 1_555 1_555
C28 C27 1_555 1_555
C29 C28 1_555 1_555
H26 C29 1_555 1_555
C30 C29 1_555 1_555
H27 C30 1_555 1_555
C31 C28 1_555 1_555
H28 C31 1_555 1_555
C32 C31 1_555 1_555
H29 C32 1_555 1_555
C33 H30 1_555 1_555
C34 C33 1_555 1_555
H31 C34 1_555 1_555
C35 C34 1_555 1_555
H32 C35 1_555 1_555
C36 C35 1_555 1_555
H33 C36 1_555 1_555
C37 N7 1_555 1_555
C38 C37 1_555 1_555
H34 C38 1_555 1_555
C39 N8 1_555 1_555
H35 C39 1_555 1_555
H36 C39 1_555 1_555
C40 C30 1_555 1_555
O2 Cl1 1_555 1_555
O3 Cl1 1_555 1_555
O4 Cl1 1_555 1_555
O6 Cl2 1_555 1_555
O7 Cl2 1_555 1_555
O8 Cl2 1_555 1_555
Ag1A N7 1_555 1_555
N7A Ag1 1_555 1_555
N8A Ag1 1_555 1_555
N8 Ag1A 1_555 1_555
C4 C5 1_555 1_555
C5 C6 1_555 1_555
C12 C13 1_555 1_555
C15 C16 1_555 1_555
C19 C20 1_555 1_555
C24 C25 1_555 1_555
C25 C26 1_555 1_555
C32 C40 1_555 1_555
C36 C37 1_555 1_555
C39 C40 1_555 1_555

#END
