
#######################################################################
#
#                 Cambridge Crystallographic Data Centre
#                                CCDC 
#
#######################################################################
#
# If this CIF has been generated from an entry in the Cambridge 
# Structural Database, then it will include bibliographic, chemical, 
# crystal, experimental, refinement or atomic coordinate data resulting 
# from the CCDC's data processing and validation procedures.
#
#######################################################################

data_ASAKEL
_symmetry_cell_setting           monoclinic
_symmetry_space_group_name_H-M   'P c'
_symmetry_Int_Tables_number      7
_space_group_name_Hall           'P -2yc'
loop_
_symmetry_equiv_pos_site_id
_symmetry_equiv_pos_as_xyz
1 x,y,z
2 x,-y,1/2+z
_cell_length_a                   13.8187(8)
_cell_length_b                   19.7414(12)
_cell_length_c                   13.2414(7)
_cell_angle_alpha                90
_cell_angle_beta                 109.4690(10)
_cell_angle_gamma                90
_cell_volume                     3405.72
loop_
_atom_site_label
_atom_site_type_symbol
_atom_site_fract_x
_atom_site_fract_y
_atom_site_fract_z
Ag1 Ag 0.51007(7) -0.21734(5) 0.32739(7)
Ag2 Ag 0.49543(7) 0.21729(5) 0.17162(7)
N1 N 0.6456(9) -0.2558(6) 0.4652(9)
N2 N 0.6526(9) -0.1560(5) 0.3264(9)
N3 N 0.3515(9) 0.1539(6) 0.1762(10)
N4 N 0.3521(9) 0.2520(7) 0.0285(9)
N5 N 0.6371(8) -0.1443(6) -0.3352(9)
N6 N 0.6363(9) -0.2476(6) -0.1904(8)
N7 N 0.3683(9) -0.1462(6) 0.3344(10)
N8 N 0.3706(9) -0.2489(6) 0.1924(9)
C1 C 0.6493(13) -0.3026(9) 0.5370(14)
H1 H 0.5903 -0.3282 0.5267
C2 C 0.7361(14) -0.3176(9) 0.6298(12)
H2 H 0.7349 -0.3491 0.6816
C3 C 0.8212(13) -0.2802(10) 0.6337(16)
H3 H 0.8822 -0.2900 0.6884
C4 C 0.8234(13) -0.2319(9) 0.5668(12)
H4 H 0.8822 -0.2061 0.5771
C5 C 0.7350(12) -0.2206(7) 0.4799(13)
C6 C 0.7344(12) -0.1683(7) 0.4039(13)
H5 H 0.7936 -0.1435 0.4116
C7 C 0.6599(11) -0.1021(7) 0.2534(11)
H6 H 0.6492 -0.1208 0.1827
H7 H 0.7278 -0.0819 0.2790
C8 C 0.5785(11) -0.0482(7) 0.2473(11)
C9 C 0.6041(12) 0.0027(7) 0.3268(10)
H8 H 0.6696 0.0044 0.3773
C10 C 0.5303(11) 0.0505(7) 0.3288(12)
H9 H 0.5473 0.0844 0.3805
C11 C 0.4312(9) 0.0479(6) 0.2542(10)
C12 C 0.4111(11) -0.0036(8) 0.1794(11)
H10 H 0.3464 -0.0063 0.1275
C13 C 0.4827(12) -0.0499(7) 0.1793(11)
H11 H 0.4643 -0.0848 0.1294
C14 C 0.3543(10) 0.0992(7) 0.2554(11)
H12 H 0.3716 0.1185 0.3265
H13 H 0.2872 0.0782 0.2374
C15 C 0.2717(11) 0.1663(7) 0.1000(12)
H14 H 0.2131 0.1413 0.0942
C16 C 0.2655(12) 0.2190(7) 0.0182(11)
C17 C 0.1780(11) 0.2290(8) -0.0656(14)
H15 H 0.1199 0.2037 -0.0702
C18 C 0.1733(14) 0.2774(8) -0.1468(12)
H16 H 0.1151 0.2842 -0.2064
C19 C 0.2625(14) 0.3132(8) -0.1289(12)
H17 H 0.2640 0.3481 -0.1754
C20 C 0.3476(13) 0.2992(8) -0.0463(14)
H18 H 0.4069 0.3235 -0.0404
C21 C 0.6439(12) -0.0952(9) -0.4003(13)
H19 H 0.5893 -0.0887 -0.4635
C22 C 0.7273(13) -0.0534(7) -0.3792(13)
H20 H 0.7290 -0.0197 -0.4276
C23 C 0.8076(11) -0.0616(8) -0.2869(13)
H21 H 0.8648 -0.0336 -0.2720
C24 C 0.8041(9) -0.1099(7) -0.2178(11)
H22 H 0.8572 -0.1154 -0.1531
C25 C 0.7178(12) -0.1521(7) -0.2461(12)
C26 C 0.7155(12) -0.2086(8) -0.1733(12)
H23 H 0.7729 -0.2163 -0.1132
C27 C 0.6470(11) -0.3045(7) -0.1165(11)
H24 H 0.6401 -0.3465 -0.1562
H25 H 0.7153 -0.3035 -0.0636
C28 C 0.5696(9) -0.3039(8) -0.0596(11)
C29 C 0.5280(11) -0.3621(8) -0.0355(11)
H26 H 0.5441 -0.4026 -0.0620
C30 C 0.4641(10) -0.3652(7) 0.0248(10)
H27 H 0.4399 -0.4064 0.0403
C31 C 0.4368(11) -0.3042(8) 0.0619(10)
C32 C 0.4750(12) -0.2462(7) 0.0371(12)
H28 H 0.4560 -0.2060 0.0618
C33 C 0.5406(11) -0.2419(7) -0.0226(10)
H29 H 0.5645 -0.2004 -0.0377
C34 C 0.3635(11) -0.3070(7) 0.1238(12)
H30 H 0.3771 -0.3477 0.1673
H31 H 0.2941 -0.3102 0.0737
C35 C 0.3617(11) -0.0960(8) 0.3990(11)
H32 H 0.4162 -0.0903 0.4624
C36 C 0.2788(12) -0.0513(8) 0.3786(12)
H33 H 0.2770 -0.0174 0.4267
C37 C 0.2014(11) -0.0602(8) 0.2846(12)
H34 H 0.1453 -0.0310 0.2665
C38 C 0.2043(12) -0.1124(8) 0.2141(11)
H35 H 0.1510 -0.1186 0.1497
C39 C 0.2882(11) -0.1541(8) 0.2432(12)
C40 C 0.2931(12) -0.2129(7) 0.1751(11)
H36 H 0.2354 -0.2232 0.1167
Ag2A Ag 0.49543(7) -0.21729(5) -0.32838(7)
N5A N 0.6371(8) 0.1443(6) 0.1648(9)
N6A N 0.6363(9) 0.2476(6) 0.3096(8)
Ag3 Ag 0.98819(9) 0.43347(6) 1.04779(10)
N9 N 1.1164(9) 0.3715(7) 1.1829(11)
N10 N 1.1462(10) 0.4679(7) 1.0430(10)
N11 N 0.8681(8) 0.6304(6) 0.4022(9)
N12 N 0.8275(9) 0.5220(6) 0.5111(10)
C41 C 1.1074(12) 0.3304(8) 1.2547(14)
H37 H 1.0440 0.3279 1.2647
C42 C 1.1867(14) 0.2893(8) 1.3188(13)
H38 H 1.1770 0.2612 1.3710
C43 C 1.2760(14) 0.2918(10) 1.3023(14)
H39 H 1.3287 0.2628 1.3400
C44 C 1.2918(11) 0.3369(9) 1.2302(13)
H40 H 1.3554 0.3403 1.2210
C45 C 1.2093(12) 0.3773(7) 1.1712(10)
C46 C 1.2223(13) 0.4267(11) 1.0959(14)
H41 H 1.2850 0.4297 1.0843
C47 C 1.1577(13) 0.5159(10) 0.9617(12)
H42 H 1.1582 0.5622 0.9862
H43 H 1.2214 0.5074 0.9479
C48 C 1.0689(12) 0.5043(9) 0.8640(12)
C49 C 0.9746(13) 0.5347(7) 0.8518(12)
H44 H 0.9689 0.5653 0.9030
C50 C 0.8925(12) 0.5202(7) 0.7668(12)
H45 H 0.8298 0.5401 0.7608
C51 C 0.8981(10) 0.4755(7) 0.6859(10)
C52 C 0.9940(12) 0.4442(6) 0.6981(11)
H46 H 1.0013 0.4137 0.6476
C53 C 1.0762(11) 0.4610(8) 0.7884(13)
H47 H 1.1397 0.4413 0.7971
C54 C 0.8877(12) 0.6777(8) 0.3390(13)
H48 H 0.9543 0.6944 0.3565
C55 C 0.8123(13) 0.7031(7) 0.2478(12)
H49 H 0.8289 0.7347 0.2041
C56 C 0.7141(14) 0.6805(8) 0.2244(13)
H50 H 0.6614 0.6977 0.1663
C57 C 0.6948(11) 0.6308(8) 0.2899(12)
H51 H 0.6286 0.6140 0.2747
C58 C 0.7725(11) 0.6064(7) 0.3766(10)
C59 C 0.7538(11) 0.5518(7) 0.4442(12)
H52 H 0.6869 0.5394 0.4369
C60 C 0.8122(11) 0.4693(8) 0.5836(10)
H53 H 0.7471 0.4760 0.5951
H54 H 0.8123 0.4247 0.5528
Ag3A Ag 0.98819(9) 0.56653(6) 0.54779(10)
N11A N 0.8681(8) 0.3696(6) 0.9022(9)
N12A N 0.8275(9) 0.4780(6) 1.0111(10)
Cl1 Cl 0.5340(3) 0.45435(18) 0.1619(3)
O1 O 0.4992(7) 0.3853(4) 0.1548(7)
O2 O 0.6264(8) 0.4611(5) 0.2520(9)
O3 O 0.5542(8) 0.4703(5) 0.0647(8)
O4 O 0.4585(8) 0.4994(5) 0.1749(8)
Cl2 Cl 0.9987(4) 0.72333(16) 0.0090(4)
O5 O 1.0846(7) 0.6803(5) 0.0514(9)
O6 O 1.0276(11) 0.7906(5) 0.0067(12)
O7 O 0.9417(13) 0.7040(9) -0.0885(14)
O8 O 0.9412(11) 0.7224(6) 0.0776(11)
Cl3 Cl 1.0021(3) 0.05443(14) 1.0007(3)
O9 O 1.062(3) 0.0300(15) 1.094(2)
O11 O 1.0013(11) 0.1244(6) 1.0225(11)
O14 O 0.895(2) 0.0287(14) 0.984(2)
O16 O 1.030(3) 0.0413(17) 0.911(3)
N13 N 0.7431(11) 0.8783(7) 0.0335(11)
C61 C 0.8238(14) 0.8821(8) 0.0893(15)
C62 C 0.9291(12) 0.8853(8) 0.1640(13)
H55 H 0.9539 0.9310 0.1679
H56 H 0.9721 0.8560 0.1395
H57 H 0.9304 0.8710 0.2338
N14 N 0.2622(10) 0.8786(7) 0.9670(10)
C63 C 0.1822(14) 0.8818(8) 0.9092(12)
C64 C 0.0768(12) 0.8917(9) 0.8367(14)
H58 H 0.0421 0.9232 0.8681
H59 H 0.0411 0.8492 0.8249
H60 H 0.0781 0.9093 0.7695
O13 O 0.4281(14) 0.4368(10) 0.8514(10)
O10? O 0.9267(19) 0.0219(12) 0.922(2)
O12? O 1.1049(16) 0.0256(11) 1.0186(17)
O15? O 0.991(3) 0.1152(19) 0.942(3)
O17? O 0.977(3) 0.0282(18) 1.088(3)
loop_
_geom_bond_atom_site_label_1
_geom_bond_atom_site_label_2
_geom_bond_site_symmetry_1
_geom_bond_site_symmetry_2
Ag1 N1 1_555 1_555
Ag2 N3 1_555 1_555
Ag3 N9 1_555 1_555
Cl1 O1 1_555 1_555
Cl2 O5 1_555 1_555
Cl3 O9 1_555 1_555
N1 C1 1_555 1_555
N2 Ag1 1_555 1_555
N3 C14 1_555 1_555
N4 Ag2 1_555 1_555
N5 C21 1_555 1_555
N6 C26 1_555 1_555
N7 Ag1 1_555 1_555
N8 Ag1 1_555 1_555
N9 C41 1_555 1_555
N10 Ag3 1_555 1_555
N11 C54 1_555 1_555
N12 C59 1_555 1_555
N13 C61 1_555 1_555
N14 C63 1_555 1_555
C1 H1 1_555 1_555
C2 C1 1_555 1_555
H2 C2 1_555 1_555
C3 C2 1_555 1_555
H3 C3 1_555 1_555
C4 C3 1_555 1_555
H4 C4 1_555 1_555
C5 N1 1_555 1_555
C6 N2 1_555 1_555
H5 C6 1_555 1_555
C7 N2 1_555 1_555
H6 C7 1_555 1_555
H7 C7 1_555 1_555
C8 C7 1_555 1_555
C9 C8 1_555 1_555
H8 C9 1_555 1_555
C10 C9 1_555 1_555
H9 C10 1_555 1_555
C11 C10 1_555 1_555
C12 C11 1_555 1_555
H10 C12 1_555 1_555
C13 C8 1_555 1_555
H11 C13 1_555 1_555
C14 C11 1_555 1_555
H12 C14 1_555 1_555
H13 C14 1_555 1_555
C15 N3 1_555 1_555
H14 C15 1_555 1_555
C16 N4 1_555 1_555
C17 C16 1_555 1_555
H15 C17 1_555 1_555
C18 C17 1_555 1_555
H16 C18 1_555 1_555
C19 C18 1_555 1_555
H17 C19 1_555 1_555
C20 N4 1_555 1_555
H18 C20 1_555 1_555
C21 H19 1_555 1_555
C22 C21 1_555 1_555
H20 C22 1_555 1_555
C23 C22 1_555 1_555
H21 C23 1_555 1_555
C24 C23 1_555 1_555
H22 C24 1_555 1_555
C25 N5 1_555 1_555
C26 C25 1_555 1_555
H23 C26 1_555 1_555
C27 N6 1_555 1_555
H24 C27 1_555 1_555
H25 C27 1_555 1_555
C28 C27 1_555 1_555
C29 C28 1_555 1_555
H26 C29 1_555 1_555
C30 C29 1_555 1_555
H27 C30 1_555 1_555
C31 C30 1_555 1_555
C32 C31 1_555 1_555
H28 C32 1_555 1_555
C33 C28 1_555 1_555
H29 C33 1_555 1_555
C34 N8 1_555 1_555
H30 C34 1_555 1_555
H31 C34 1_555 1_555
C35 N7 1_555 1_555
H32 C35 1_555 1_555
C36 C35 1_555 1_555
H33 C36 1_555 1_555
C37 C36 1_555 1_555
H34 C37 1_555 1_555
C38 C37 1_555 1_555
H35 C38 1_555 1_555
C39 N7 1_555 1_555
C40 N8 1_555 1_555
H36 C40 1_555 1_555
C41 H37 1_555 1_555
C42 C41 1_555 1_555
H38 C42 1_555 1_555
C43 C42 1_555 1_555
H39 C43 1_555 1_555
C44 C43 1_555 1_555
H40 C44 1_555 1_555
C45 N9 1_555 1_555
C46 N10 1_555 1_555
H41 C46 1_555 1_555
C47 N10 1_555 1_555
H42 C47 1_555 1_555
H43 C47 1_555 1_555
C48 C47 1_555 1_555
C49 C48 1_555 1_555
H44 C49 1_555 1_555
C50 C49 1_555 1_555
H45 C50 1_555 1_555
C51 C50 1_555 1_555
C52 C51 1_555 1_555
H46 C52 1_555 1_555
C53 C48 1_555 1_555
H47 C53 1_555 1_555
C54 H48 1_555 1_555
C55 C54 1_555 1_555
H49 C55 1_555 1_555
C56 C55 1_555 1_555
H50 C56 1_555 1_555
C57 C56 1_555 1_555
H51 C57 1_555 1_555
C58 N11 1_555 1_555
C59 C58 1_555 1_555
H52 C59 1_555 1_555
C60 N12 1_555 1_555
H53 C60 1_555 1_555
H54 C60 1_555 1_555
C61 C62 1_555 1_555
C62 H55 1_555 1_555
H56 C62 1_555 1_555
H57 C62 1_555 1_555
C63 C64 1_555 1_555
C64 H58 1_555 1_555
H59 C64 1_555 1_555
H60 C64 1_555 1_555
O2 Cl1 1_555 1_555
O3 Cl1 1_555 1_555
O4 Cl1 1_555 1_555
O6 Cl2 1_555 1_555
O7 Cl2 1_555 1_555
O8 Cl2 1_555 1_555
O11 Cl3 1_555 1_555
O14 Cl3 1_555 1_555
O16 Cl3 1_555 1_555
Ag2A N5 1_555 1_555
Ag3A N11 1_555 1_555
N5A Ag2 1_555 1_555
N6A Ag2 1_555 1_555
N11A Ag3 1_555 1_555
N12A Ag3 1_555 1_555
N6 Ag2A 1_555 1_555
N12 Ag3A 1_555 1_555
C4 C5 1_555 1_555
C5 C6 1_555 1_555
C12 C13 1_555 1_555
C15 C16 1_555 1_555
C19 C20 1_555 1_555
C24 C25 1_555 1_555
C31 C34 1_555 1_555
C32 C33 1_555 1_555
C38 C39 1_555 1_555
C39 C40 1_555 1_555
C44 C45 1_555 1_555
C45 C46 1_555 1_555
C51 C60 1_555 1_555
C52 C53 1_555 1_555
C57 C58 1_555 1_555

#END
