
#######################################################################
#
#                 Cambridge Crystallographic Data Centre
#                                CCDC 
#
#######################################################################
#
# If this CIF has been generated from an entry in the Cambridge 
# Structural Database, then it will include bibliographic, chemical, 
# crystal, experimental, refinement or atomic coordinate data resulting 
# from the CCDC's data processing and validation procedures.
#
#######################################################################

data_ASALAH
_symmetry_cell_setting           orthorhombic
_symmetry_space_group_name_H-M   'P 21 21 21'
_symmetry_Int_Tables_number      19
_space_group_name_Hall           'P 2ac 2ab'
loop_
_symmetry_equiv_pos_site_id
_symmetry_equiv_pos_as_xyz
1 x,y,z
2 1/2-x,-y,1/2+z
3 -x,1/2+y,1/2-z
4 1/2+x,1/2-y,-z
_cell_length_a                   7.1497(8)
_cell_length_b                   9.5284(10)
_cell_length_c                   16.0211(17)
_cell_angle_alpha                90
_cell_angle_beta                 90
_cell_angle_gamma                90
_cell_volume                     1091.44
loop_
_atom_site_label
_atom_site_type_symbol
_atom_site_fract_x
_atom_site_fract_y
_atom_site_fract_z
Zn1 Zn 0.23368(15) 0.43528(10) 0.96239(5)
C1 C 0.1711(15) 0.5137(9) 0.7880(5)
H1 H 0.2950 0.4852 0.7832
C2 C 0.0833(14) 0.5696(10) 0.7193(5)
N1 N 0.0849(12) 0.4986(8) 0.8617(4)
C3 C -0.0994(15) 0.5351(11) 0.8677(6)
H2 H -0.1621 0.5224 0.9180
C4 C -0.1005(16) 0.6094(12) 0.7267(6)
H3 H -0.1622 0.6495 0.6815
C5 C -0.1932(15) 0.5902(12) 0.8006(6)
H4 H -0.3188 0.6143 0.8053
C6 C 0.1891(17) 0.6019(12) 0.6415(5)
N2 N 0.1701(14) 0.5021(9) 0.5755(5)
H5 H 0.2497 0.5008 0.5353
H6 H 0.0789 0.4432 0.5761
C7 C 0.331(3) 0.6983(19) 0.6441(10)
H7 H 0.3583 0.7321 0.6972
C8 C 0.4456(16) 0.7559(11) 0.5788(6)
O1 O 0.4265(12) 0.7215(7) 0.5054(4)
O2 O 0.5674(13) 0.8441(8) 0.6029(5)
N2A N 0.3299(14) 0.4979(9) 1.0755(5)
H5A H 0.2503 0.4992 1.0353
O1A O 0.0735(12) 0.2785(7) 1.0054(4)
O2B O 0.4326(13) 0.3441(8) 0.8971(5)
Zn1A Zn 0.26632(15) 0.56472(10) 0.46239(5)
Zn1B Zn 0.76632(15) 0.93528(10) 0.53761(5)
H6A H 0.4211 0.5568 1.0761
Cl1 Cl 0.3488(5) 0.8187(3) 0.90035(19)
O3 O 0.4683(18) 0.8294(11) 0.8309(7)
O4 O 0.1586(16) 0.8138(11) 0.8595(7)
O5 O 0.365(2) 0.9392(17) 0.9436(10)
O6 O 0.388(2) 0.6948(17) 0.9385(9)
loop_
_geom_bond_atom_site_label_1
_geom_bond_atom_site_label_2
_geom_bond_site_symmetry_1
_geom_bond_site_symmetry_2
Zn1 N1 1_555 1_555
Cl1 O3 1_555 1_555
C1 H1 1_555 1_555
C2 C1 1_555 1_555
N1 C1 1_555 1_555
C3 N1 1_555 1_555
H2 C3 1_555 1_555
C4 C2 1_555 1_555
H3 C4 1_555 1_555
C5 C3 1_555 1_555
H4 C5 1_555 1_555
C6 C2 1_555 1_555
N2 C6 1_555 1_555
H5 N2 1_555 1_555
H6 N2 1_555 1_555
C7 C6 1_555 1_555
H7 C7 1_555 1_555
C8 C7 1_555 1_555
O1 C8 1_555 1_555
O2 C8 1_555 1_555
O4 Cl1 1_555 1_555
O5 Cl1 1_555 1_555
O6 Cl1 1_555 1_555
N2A Zn1 1_555 1_555
H5A N2A 1_555 1_555
O1A Zn1 1_555 1_555
O2B Zn1 1_555 1_555
Zn1A N2 1_555 1_555
Zn1B O2 1_555 1_555
H6A N2A 1_555 1_555
C4 C5 1_555 1_555
O1 Zn1A 1_555 1_555

#END
