
#######################################################################
#
#                 Cambridge Crystallographic Data Centre
#                                CCDC 
#
#######################################################################
#
# If this CIF has been generated from an entry in the Cambridge 
# Structural Database, then it will include bibliographic, chemical, 
# crystal, experimental, refinement or atomic coordinate data resulting 
# from the CCDC's data processing and validation procedures.
#
#######################################################################

data_ASALEL
_symmetry_cell_setting           orthorhombic
_symmetry_space_group_name_H-M   'P 21 21 21'
_symmetry_Int_Tables_number      19
_space_group_name_Hall           'P 2ac 2ab'
loop_
_symmetry_equiv_pos_site_id
_symmetry_equiv_pos_as_xyz
1 x,y,z
2 1/2-x,-y,1/2+z
3 -x,1/2+y,1/2-z
4 1/2+x,1/2-y,-z
_cell_length_a                   5.3597(5)
_cell_length_b                   9.9042(10)
_cell_length_c                   15.6760(16)
_cell_angle_alpha                90
_cell_angle_beta                 90
_cell_angle_gamma                90
_cell_volume                     832.138
loop_
_atom_site_label
_atom_site_type_symbol
_atom_site_fract_x
_atom_site_fract_y
_atom_site_fract_z
Zn1 Zn 0.73156(4) 0.34120(2) 0.970477(14)
O1 O 1.0827(3) 0.30810(16) 0.96719(11)
C1 C 0.4666(5) 0.6226(2) 1.16063(14)
N1 N 0.6757(4) 0.50728(18) 1.04669(12)
C2 C 0.8286(5) 0.6127(2) 1.03799(15)
H1 H 0.9525 0.6091 0.9965
C3 C 0.1067(5) 0.5368(3) 1.24639(13)
H2 H 0.0920 0.4608 1.2119
C4 C 0.4995(5) 0.5125(2) 1.10705(14)
H3 H 0.3939 0.4387 1.1134
C5 C 0.2804(5) 0.6267(2) 1.22868(15)
H4 H 0.2850 0.7022 1.2639
C6 C 0.6271(5) 0.7306(2) 1.14929(16)
H5 H 0.6110 0.8069 1.1835
C7 C 0.8108(5) 0.7261(2) 1.08757(15)
H6 H 0.9196 0.7982 1.0799
C8 C -0.0668(4) 0.5529(3) 1.31986(14)
O2 O -0.0299(4) 0.65796(18) 1.36684(11)
O3 O -0.2299(4) 0.4691(2) 1.33418(12)
O1C O 0.5827(3) 0.19190(16) 1.03281(11)
O2A O 0.5299(4) 0.34204(18) 0.86684(11)
Zn1C Zn 1.23156(4) 0.15880(2) 1.029523(14)
Zn1A Zn -0.23156(4) 0.65880(2) 1.470477(14)
loop_
_geom_bond_atom_site_label_1
_geom_bond_atom_site_label_2
_geom_bond_site_symmetry_1
_geom_bond_site_symmetry_2
Zn1 O1 1_555 1_555
O1 Zn1C 1_555 1_555
C1 C4 1_555 1_555
N1 Zn1 1_555 1_555
C2 N1 1_555 1_555
H1 C2 1_555 1_555
C3 H2 1_555 1_555
C4 N1 1_555 1_555
H3 C4 1_555 1_555
C5 C1 1_555 1_555
H4 C5 1_555 1_555
C6 C1 1_555 1_555
H5 C6 1_555 1_555
C7 C2 1_555 1_555
H6 C7 1_555 1_555
C8 C3 1_555 1_555
O2 C8 1_555 1_555
O3 C8 1_555 1_555
O1C Zn1 1_555 1_555
O2A Zn1 1_555 1_555
Zn1A O2 1_555 1_555
C3 C5 1_555 1_555
C6 C7 1_555 1_555

#END
