
#######################################################################
#
#                 Cambridge Crystallographic Data Centre
#                                CCDC 
#
#######################################################################
#
# If this CIF has been generated from an entry in the Cambridge 
# Structural Database, then it will include bibliographic, chemical, 
# crystal, experimental, refinement or atomic coordinate data resulting 
# from the CCDC's data processing and validation procedures.
#
#######################################################################

data_ASALIP
_symmetry_cell_setting           orthorhombic
_symmetry_space_group_name_H-M   'P 21 21 21'
_symmetry_Int_Tables_number      19
_space_group_name_Hall           'P 2ac 2ab'
loop_
_symmetry_equiv_pos_site_id
_symmetry_equiv_pos_as_xyz
1 x,y,z
2 1/2-x,-y,1/2+z
3 -x,1/2+y,1/2-z
4 1/2+x,1/2-y,-z
_cell_length_a                   7.2039(9)
_cell_length_b                   8.7309(11)
_cell_length_c                   16.234(2)
_cell_angle_alpha                90
_cell_angle_beta                 90
_cell_angle_gamma                90
_cell_volume                     1021.06
loop_
_atom_site_label
_atom_site_type_symbol
_atom_site_fract_x
_atom_site_fract_y
_atom_site_fract_z
Zn1 Zn 0.74215(7) 0.54235(5) 0.04103(3)
C1 C 0.8355(8) 0.4127(10) 0.3629(3)
H1 H 0.9078 0.3258 0.3836
N1 N 0.9227(5) 0.5072(4) 0.1397(2)
O1 O 0.8079(7) 0.2379(9) 0.0354(4)
C2 C 0.9379(6) 0.4444(7) 0.2835(3)
C3 C 1.1009(6) 0.4697(6) 0.1321(3)
H2 H 1.1567 0.4775 0.0806
C4 C 1.1229(7) 0.4065(7) 0.2747(3)
H3 H 1.1910 0.3725 0.3198
C5 C 1.2061(7) 0.4195(6) 0.1983(3)
H4 H 1.3308 0.3949 0.1914
C6 C 0.8463(7) 0.4985(6) 0.2148(3)
H5 H 0.7241 0.5308 0.2210
O2 O 0.5842(5) 0.3453(5) 0.0954(3)
N2 N 0.6705(8) 0.2251(6) 0.0784(4)
N3 N 0.8577(11) 0.5128(8) 0.4263(3)
H6 H 0.7660 0.5329 0.4584
H7 H 0.9635 0.5560 0.4342
C7 C 0.6611(9) 0.3386(8) 0.3479(3)
H8 H 0.6839 0.2582 0.3079
H9 H 0.5813 0.4131 0.3212
C8 C 0.5501(7) 0.2679(6) 0.4171(3)
O3 O 0.4279(5) 0.1759(5) 0.3947(2)
O4 O 0.5790(6) 0.3016(5) 0.4906(2)
O5 O 0.6134(14) 0.1073(8) 0.1064(7)
N3A N 0.6423(11) 0.4872(8) -0.0737(3)
H6A H 0.7340 0.4671 -0.0416
O3B O 0.5721(5) 0.6759(5) 0.1053(2)
O4A O 0.9210(6) 0.6984(5) -0.0094(2)
Zn1A Zn 0.75785(7) 0.45765(5) 0.54103(3)
Zn1B Zn 0.25785(7) 0.04235(5) 0.45897(3)
H7A H 0.5365 0.4440 -0.0658
loop_
_geom_bond_atom_site_label_1
_geom_bond_atom_site_label_2
_geom_bond_site_symmetry_1
_geom_bond_site_symmetry_2
Zn1 N1 1_555 1_555
C1 H1 1_555 1_555
N1 C3 1_555 1_555
O1 N2 1_555 1_555
C2 C1 1_555 1_555
C3 H2 1_555 1_555
C4 C2 1_555 1_555
H3 C4 1_555 1_555
C5 C3 1_555 1_555
H4 C5 1_555 1_555
C6 N1 1_555 1_555
H5 C6 1_555 1_555
O2 Zn1 1_555 1_555
N2 O2 1_555 1_555
N3 C1 1_555 1_555
H6 N3 1_555 1_555
H7 N3 1_555 1_555
C7 C1 1_555 1_555
H8 C7 1_555 1_555
H9 C7 1_555 1_555
C8 C7 1_555 1_555
O3 C8 1_555 1_555
O4 C8 1_555 1_555
O5 N2 1_555 1_555
N3A Zn1 1_555 1_555
H6A N3A 1_555 1_555
O3B Zn1 1_555 1_555
O4A Zn1 1_555 1_555
Zn1A N3 1_555 1_555
Zn1B O3 1_555 1_555
H7A N3A 1_555 1_555
C2 C6 1_555 1_555
C4 C5 1_555 1_555
O4 Zn1A 1_555 1_555

#END
