
#######################################################################
#
#                 Cambridge Crystallographic Data Centre
#                                CCDC 
#
#######################################################################
#
# If this CIF has been generated from an entry in the Cambridge 
# Structural Database, then it will include bibliographic, chemical, 
# crystal, experimental, refinement or atomic coordinate data resulting 
# from the CCDC's data processing and validation procedures.
#
#######################################################################

data_ASAQOA
_symmetry_cell_setting           monoclinic
_symmetry_space_group_name_H-M   'P 2/n'
_symmetry_Int_Tables_number      13
_space_group_name_Hall           '-P 2yac'
loop_
_symmetry_equiv_pos_site_id
_symmetry_equiv_pos_as_xyz
1 x,y,z
2 1/2+x,-y,1/2+z
3 -x,-y,-z
4 1/2-x,y,1/2-z
_cell_length_a                   15.114(10)
_cell_length_b                   10.069(8)
_cell_length_c                   28.022(16)
_cell_angle_alpha                90
_cell_angle_beta                 101.830(10)
_cell_angle_gamma                90
_cell_volume                     4173.89
loop_
_atom_site_label
_atom_site_type_symbol
_atom_site_fract_x
_atom_site_fract_y
_atom_site_fract_z
Cd1 Cd 0.2500 0.18979(9) 0.2500
Cd2 Cd 0.14293(4) 0.14054(5) 0.775836(18)
O1 O 0.0844(4) -0.0145(5) 0.70751(18)
O2 O 0.1961(3) 0.1221(5) 0.69947(18)
O3 O 0.1737(5) 0.1701(9) 0.3165(3)
O4 O 0.2895(5) 0.0474(7) 0.3167(2)
O5 O 0.1464(5) -0.2035(5) 0.49784(18)
O6 O -0.4262(4) -0.4837(7) 0.9586(2)
O7 O -0.4042(4) -0.4412(6) 1.0395(2)
H1 H -0.4586 -0.4682 1.0342
O8 O 0.1381(4) -0.0407(5) 0.82558(19)
O9 O 0.0606(5) 0.1293(7) 0.8444(2)
O10 O -0.0122(4) -0.2966(8) 1.0039(2)
N1 N 0.0325(4) 0.2868(6) 0.73059(19)
N2 N 0.1873(4) 0.3636(5) 0.79633(19)
N3 N 0.3279(5) 0.3785(6) 0.2860(2)
C1 C 0.1401(5) 0.0291(7) 0.6828(3)
C2 C 0.1402(5) -0.0284(6) 0.6333(2)
C3 C 0.0968(5) -0.1496(6) 0.6191(2)
H2 H 0.0667 -0.1957 0.6412
C4 C 0.0987(5) -0.2033(7) 0.5736(2)
H3 H 0.0686 -0.2857 0.5637
C5 C 0.1433(5) -0.1368(7) 0.5415(2)
C6 C 0.1843(6) -0.0144(7) 0.5543(3)
H4 H 0.2123 0.0333 0.5317
C7 C 0.1825(5) 0.0380(8) 0.6005(3)
H5 H 0.2115 0.1214 0.6100
C8 C 0.1672(7) -0.1288(8) 0.4590(3)
C9 C 0.2436(6) -0.1640(8) 0.4414(3)
H6 H 0.2826 -0.2340 0.4565
C10 C 0.2610(5) -0.0956(8) 0.4010(3)
H7 H 0.3130 -0.1194 0.3882
C11 C 0.2069(5) 0.0068(8) 0.3790(3)
C12 C 0.1299(6) 0.0374(10) 0.3964(4)
H8 H 0.0913 0.1078 0.3812
C13 C 0.1097(7) -0.0317(10) 0.4369(4)
H9 H 0.0555 -0.0125 0.4485
C14 C 0.2243(5) 0.0813(9) 0.3344(3)
C15 C -0.3758(6) -0.4468(9) 0.9992(4)
C16 C -0.2808(6) -0.4059(9) 1.0000(3)
C17 C -0.2467(7) -0.4094(13) 0.9576(3)
H10 H -0.2853 -0.4377 0.9277
C18 C -0.1589(8) -0.3711(14) 0.9587(4)
H11 H -0.1361 -0.3720 0.9292
C19 C -0.1028(6) -0.3300(10) 1.0003(3)
C20 C -0.1351(6) -0.3268(9) 1.0437(3)
H12 H -0.0963 -0.2966 1.0733
C21 C -0.2244(6) -0.3657(9) 1.0428(3)
H13 H -0.2471 -0.3655 1.0724
C22 C 0.0097(6) -0.2235(10) 0.9647(3)
C23 C 0.0801(6) -0.2664(8) 0.9444(3)
H14 H 0.1106 -0.3482 0.9549
C24 C 0.1059(6) -0.1897(8) 0.9078(3)
H15 H 0.1552 -0.2183 0.8935
C25 C 0.0620(5) -0.0719(8) 0.8917(3)
C26 C -0.0074(6) -0.0317(11) 0.9133(4)
H16 H -0.0388 0.0489 0.9021
C27 C -0.0340(7) -0.1049(12) 0.9505(5)
H17 H -0.0814 -0.0748 0.9660
C28 C 0.0880(5) 0.0131(9) 0.8519(3)
C29 C -0.0399(5) 0.2502(9) 0.6974(3)
H18 H -0.0512 0.1571 0.6919
C30 C -0.1000(6) 0.3438(9) 0.6699(3)
H19 H -0.1518 0.3145 0.6464
C31 C -0.0840(6) 0.4749(9) 0.6776(3)
H20 H -0.1245 0.5390 0.6595
C32 C -0.0068(5) 0.5200(8) 0.7122(3)
C33 C 0.0497(5) 0.4201(7) 0.7382(2)
C34 C 0.0142(5) 0.6587(8) 0.7227(3)
H21 H -0.0252 0.7257 0.7055
C35 C 0.0869(6) 0.6965(7) 0.7555(3)
H22 H 0.0989 0.7891 0.7620
C36 C 0.1476(5) 0.6006(7) 0.7813(3)
C37 C 0.1298(4) 0.4605(7) 0.7728(2)
C38 C 0.2265(5) 0.6339(8) 0.8154(3)
H23 H 0.2410 0.7256 0.8225
C39 C 0.2835(5) 0.5362(8) 0.8387(3)
H24 H 0.3376 0.5585 0.8618
C40 C 0.2605(5) 0.4009(7) 0.8268(3)
H25 H 0.3004 0.3328 0.8426
C41 C 0.4038(7) 0.3784(10) 0.3205(3)
H26 H 0.4287 0.2942 0.3324
C42 C 0.4458(7) 0.4957(13) 0.3399(3)
H27 H 0.5004 0.4902 0.3644
C43 C 0.4100(7) 0.6161(11) 0.3234(4)
H28 H 0.4379 0.6969 0.3372
C44 C 0.3306(6) 0.6228(8) 0.2867(3)
C45 C 0.2898(5) 0.4993(7) 0.2685(3)
C46 C 0.2867(5) 0.7424(9) 0.2677(3)
H29 H 0.3112 0.8257 0.2809
O11 O 0.097(2) 0.078(3) 0.2401(11)
H30 H 0.0547 0.1302 0.2269
H31 H 0.0756 0.0033 0.2455
C45C C 0.2102(5) 0.4993(7) 0.2315(3)
N3C N 0.1721(5) 0.3785(6) 0.2140(2)
C41C C 0.0962(7) 0.3784(10) 0.1795(3)
H26C H 0.0713 0.2942 0.1676
C42C C 0.0542(7) 0.4957(13) 0.1601(3)
H27C H -0.0004 0.4902 0.1356
C43C C 0.0900(7) 0.6161(11) 0.1766(4)
H28C H 0.0621 0.6969 0.1628
C44C C 0.1694(6) 0.6228(8) 0.2133(3)
C46C C 0.2133(5) 0.7424(9) 0.2323(3)
H29C H 0.1888 0.8257 0.2191
O1C O 0.4156(4) -0.0145(5) -0.20751(18)
O2C O 0.3039(3) 0.1221(5) -0.19947(18)
O3C O 0.3263(5) 0.1701(9) 0.1835(3)
O4C O 0.2105(5) 0.0474(7) 0.1833(2)
O5C O 0.3536(5) -0.2035(5) 0.00216(18)
C1C C 0.3599(5) 0.0291(7) -0.1828(3)
C2C C 0.3598(5) -0.0284(6) -0.1333(2)
C3C C 0.4032(5) -0.1496(6) -0.1191(2)
H2C H 0.4333 -0.1957 -0.1412
C4C C 0.4013(5) -0.2033(7) -0.0736(2)
H3C H 0.4314 -0.2857 -0.0637
C5C C 0.3567(5) -0.1368(7) -0.0415(2)
C6C C 0.3157(6) -0.0144(7) -0.0543(3)
H4C H 0.2877 0.0333 -0.0317
C7C C 0.3175(5) 0.0380(8) -0.1005(3)
H5C H 0.2885 0.1214 -0.1100
C8C C 0.3328(7) -0.1288(8) 0.0410(3)
C9C C 0.2564(6) -0.1640(8) 0.0586(3)
H6C H 0.2174 -0.2340 0.0435
C10C C 0.2390(5) -0.0956(8) 0.0990(3)
H7C H 0.1870 -0.1194 0.1118
C11C C 0.2931(5) 0.0068(8) 0.1210(3)
C12C C 0.3701(6) 0.0374(10) 0.1036(4)
H8C H 0.4087 0.1078 0.1188
C13C C 0.3903(7) -0.0317(10) 0.0631(4)
H9C H 0.4445 -0.0125 0.0515
C14C C 0.2757(5) 0.0813(9) 0.1656(3)
O11C O 0.403(2) 0.078(3) 0.2599(11)
H30C H 0.4453 0.1302 0.2731
H31C H 0.4244 0.0033 0.2545
Cd2C Cd 0.35707(4) 0.14054(5) -0.275836(18)
O6C O 0.9262(4) -0.4837(7) -0.4586(2)
O7C O 0.9042(4) -0.4412(6) -0.5395(2)
H1C H 0.9586 -0.4682 -0.5342
O8C O 0.3619(4) -0.0407(5) -0.32558(19)
O9C O 0.4394(5) 0.1293(7) -0.3444(2)
O10C O 0.5122(4) -0.2966(8) -0.5039(2)
C15C C 0.8758(6) -0.4468(9) -0.4992(4)
C16C C 0.7808(6) -0.4059(9) -0.5000(3)
C17C C 0.7467(7) -0.4094(13) -0.4576(3)
H10C H 0.7853 -0.4377 -0.4277
C18C C 0.6589(8) -0.3711(14) -0.4587(4)
H11C H 0.6361 -0.3720 -0.4292
C19C C 0.6028(6) -0.3300(10) -0.5003(3)
C20C C 0.6351(6) -0.3268(9) -0.5437(3)
H12C H 0.5963 -0.2966 -0.5733
C21C C 0.7244(6) -0.3657(9) -0.5428(3)
H13C H 0.7471 -0.3655 -0.5724
C22C C 0.4903(6) -0.2235(10) -0.4647(3)
C23C C 0.4199(6) -0.2664(8) -0.4444(3)
H14C H 0.3894 -0.3482 -0.4549
C24C C 0.3941(6) -0.1897(8) -0.4078(3)
H15C H 0.3448 -0.2183 -0.3935
C25C C 0.4380(5) -0.0719(8) -0.3917(3)
C26C C 0.5074(6) -0.0317(11) -0.4133(4)
H16C H 0.5388 0.0489 -0.4021
C27C C 0.5340(7) -0.1049(12) -0.4505(5)
H17C H 0.5814 -0.0748 -0.4660
C28C C 0.4120(5) 0.0131(9) -0.3519(3)
N1C N 0.4675(4) 0.2868(6) -0.23059(19)
N2C N 0.3127(4) 0.3636(5) -0.29633(19)
C29C C 0.5399(5) 0.2502(9) -0.1974(3)
H18C H 0.5512 0.1571 -0.1919
C30C C 0.6000(6) 0.3438(9) -0.1699(3)
H19C H 0.6518 0.3145 -0.1464
C31C C 0.5840(6) 0.4749(9) -0.1776(3)
H20C H 0.6245 0.5390 -0.1595
C32C C 0.5068(5) 0.5200(8) -0.2122(3)
C33C C 0.4503(5) 0.4201(7) -0.2382(2)
C34C C 0.4858(5) 0.6587(8) -0.2227(3)
H21C H 0.5252 0.7257 -0.2055
C35C C 0.4131(6) 0.6965(7) -0.2555(3)
H22C H 0.4011 0.7891 -0.2620
C36C C 0.3524(5) 0.6006(7) -0.2813(3)
C37C C 0.3702(4) 0.4605(7) -0.2728(2)
C38C C 0.2735(5) 0.6339(8) -0.3154(3)
H23C H 0.2590 0.7256 -0.3225
C39C C 0.2165(5) 0.5362(8) -0.3387(3)
H24C H 0.1624 0.5585 -0.3618
C40C C 0.2395(5) 0.4009(7) -0.3268(3)
H25C H 0.1996 0.3328 -0.3426
O2C_2 O 0.3039(3) 0.1221(5) 0.80053(18)
Cd2C_2 Cd 0.35707(4) 0.14054(5) 0.724164(18)
Cd2_2 Cd 0.14293(4) 0.14054(5) -0.224164(18)
O2_2 O 0.1961(3) 0.1221(5) -0.30053(18)
loop_
_geom_bond_atom_site_label_1
_geom_bond_atom_site_label_2
_geom_bond_site_symmetry_1
_geom_bond_site_symmetry_2
Cd1 O3 1_555 1_555
Cd2 O1 1_555 1_555
O1 C1 1_555 1_555
O2 Cd2 1_555 1_555
O3 C14 1_555 1_555
O4 Cd1 1_555 1_555
O5 C5 1_555 1_555
O6 C15 1_555 1_555
O7 H1 1_555 1_555
O8 Cd2 1_555 1_555
O9 Cd2 1_555 1_555
O10 C19 1_555 1_555
N1 Cd2 1_555 1_555
N2 Cd2 1_555 1_555
N3 Cd1 1_555 1_555
C1 O2 1_555 1_555
C2 C1 1_555 1_555
C3 C2 1_555 1_555
H2 C3 1_555 1_555
C4 C3 1_555 1_555
H3 C4 1_555 1_555
C5 C4 1_555 1_555
C6 C5 1_555 1_555
H4 C6 1_555 1_555
C7 C2 1_555 1_555
H5 C7 1_555 1_555
C8 O5 1_555 1_555
C9 C8 1_555 1_555
H6 C9 1_555 1_555
C10 C9 1_555 1_555
H7 C10 1_555 1_555
C11 C10 1_555 1_555
C12 C11 1_555 1_555
H8 C12 1_555 1_555
C13 C8 1_555 1_555
H9 C13 1_555 1_555
C14 O4 1_555 1_555
C15 O7 1_555 1_555
C16 C15 1_555 1_555
C17 C16 1_555 1_555
H10 C17 1_555 1_555
C18 C17 1_555 1_555
H11 C18 1_555 1_555
C19 C18 1_555 1_555
C20 C19 1_555 1_555
H12 C20 1_555 1_555
C21 C16 1_555 1_555
H13 C21 1_555 1_555
C22 O10 1_555 1_555
C23 C22 1_555 1_555
H14 C23 1_555 1_555
C24 C23 1_555 1_555
H15 C24 1_555 1_555
C25 C24 1_555 1_555
C26 C25 1_555 1_555
H16 C26 1_555 1_555
C27 C22 1_555 1_555
H17 C27 1_555 1_555
C28 O8 1_555 1_555
C29 N1 1_555 1_555
H18 C29 1_555 1_555
C30 C29 1_555 1_555
H19 C30 1_555 1_555
C31 C30 1_555 1_555
H20 C31 1_555 1_555
C32 C31 1_555 1_555
C33 N1 1_555 1_555
C34 C32 1_555 1_555
H21 C34 1_555 1_555
C35 C34 1_555 1_555
H22 C35 1_555 1_555
C36 C35 1_555 1_555
C37 N2 1_555 1_555
C38 C36 1_555 1_555
H23 C38 1_555 1_555
C39 C38 1_555 1_555
H24 C39 1_555 1_555
C40 N2 1_555 1_555
H25 C40 1_555 1_555
C41 N3 1_555 1_555
H26 C41 1_555 1_555
C42 C41 1_555 1_555
H27 C42 1_555 1_555
C43 C42 1_555 1_555
H28 C43 1_555 1_555
C44 C43 1_555 1_555
C45 N3 1_555 1_555
C46 C44 1_555 1_555
H29 C46 1_555 1_555
O11 Cd1 1_555 1_555
H30 O11 1_555 1_555
H31 O11 1_555 1_555
C45C C45 1_555 1_555
N3C Cd1 1_555 1_555
C41C N3C 1_555 1_555
H26C C41C 1_555 1_555
C42C C41C 1_555 1_555
H27C C42C 1_555 1_555
C43C C42C 1_555 1_555
H28C C43C 1_555 1_555
C44C C45C 1_555 1_555
C46C C46 1_555 1_555
H29C C46C 1_555 1_555
O1C C1C 1_555 1_555
O2C C1C 1_555 1_555
O3C Cd1 1_555 1_555
O4C Cd1 1_555 1_555
O5C C5C 1_555 1_555
C1C C2C 1_555 1_555
C2C C3C 1_555 1_555
C3C H2C 1_555 1_555
C4C C3C 1_555 1_555
H3C C4C 1_555 1_555
C5C C4C 1_555 1_555
C6C C5C 1_555 1_555
H4C C6C 1_555 1_555
C7C C2C 1_555 1_555
H5C C7C 1_555 1_555
C8C O5C 1_555 1_555
C9C C8C 1_555 1_555
H6C C9C 1_555 1_555
C10C C9C 1_555 1_555
H7C C10C 1_555 1_555
C11C C10C 1_555 1_555
C12C C11C 1_555 1_555
H8C C12C 1_555 1_555
C13C C8C 1_555 1_555
H9C C13C 1_555 1_555
C14C O3C 1_555 1_555
O11C Cd1 1_555 1_555
H30C O11C 1_555 1_555
H31C O11C 1_555 1_555
Cd2C O1C 1_555 1_555
O6C C15C 1_555 1_555
O7C H1C 1_555 1_555
O8C Cd2C 1_555 1_555
O9C Cd2C 1_555 1_555
O10C C19C 1_555 1_555
C15C O7C 1_555 1_555
C16C C15C 1_555 1_555
C17C C16C 1_555 1_555
H10C C17C 1_555 1_555
C18C C17C 1_555 1_555
H11C C18C 1_555 1_555
C19C C18C 1_555 1_555
C20C C19C 1_555 1_555
H12C C20C 1_555 1_555
C21C C16C 1_555 1_555
H13C C21C 1_555 1_555
C22C O10C 1_555 1_555
C23C C22C 1_555 1_555
H14C C23C 1_555 1_555
C24C C23C 1_555 1_555
H15C C24C 1_555 1_555
C25C C24C 1_555 1_555
C26C C25C 1_555 1_555
H16C C26C 1_555 1_555
C27C C22C 1_555 1_555
H17C C27C 1_555 1_555
C28C O8C 1_555 1_555
N1C Cd2C 1_555 1_555
N2C Cd2C 1_555 1_555
C29C N1C 1_555 1_555
H18C C29C 1_555 1_555
C30C C29C 1_555 1_555
H19C C30C 1_555 1_555
C31C C30C 1_555 1_555
H20C C31C 1_555 1_555
C32C C31C 1_555 1_555
C33C N1C 1_555 1_555
C34C C32C 1_555 1_555
H21C C34C 1_555 1_555
C35C C34C 1_555 1_555
H22C C35C 1_555 1_555
C36C C35C 1_555 1_555
C37C N2C 1_555 1_555
C38C C36C 1_555 1_555
H23C C38C 1_555 1_555
C39C C38C 1_555 1_555
H24C C39C 1_555 1_555
C40C N2C 1_555 1_555
H25C C40C 1_555 1_555
O2C_2 Cd2 1_555 1_555
Cd2C_2 O2 1_555 1_555
Cd2_2 O2C 1_555 1_555
O2_2 Cd2C 1_555 1_555
O9 C28 1_555 1_555
C6 C7 1_555 1_555
C11 C14 1_555 1_555
C12 C13 1_555 1_555
C20 C21 1_555 1_555
C25 C28 1_555 1_555
C26 C27 1_555 1_555
C32 C33 1_555 1_555
C33 C37 1_555 1_555
C36 C37 1_555 1_555
C39 C40 1_555 1_555
C44 C45 1_555 1_555
C45C N3C 1_555 1_555
C43C C44C 1_555 1_555
C44C C46C 1_555 1_555
O2C Cd2C 1_555 1_555
O4C C14C 1_555 1_555
C6C C7C 1_555 1_555
C11C C14C 1_555 1_555
C12C C13C 1_555 1_555
O9C C28C 1_555 1_555
C20C C21C 1_555 1_555
C25C C28C 1_555 1_555
C26C C27C 1_555 1_555
C32C C33C 1_555 1_555
C33C C37C 1_555 1_555
C36C C37C 1_555 1_555
C39C C40C 1_555 1_555
O2C_2 Cd2C_2 1_555 1_555
Cd2_2 O2_2 1_555 1_555

#END
