
#######################################################################
#
#                 Cambridge Crystallographic Data Centre
#                                CCDC 
#
#######################################################################
#
# If this CIF has been generated from an entry in the Cambridge 
# Structural Database, then it will include bibliographic, chemical, 
# crystal, experimental, refinement or atomic coordinate data resulting 
# from the CCDC's data processing and validation procedures.
#
#######################################################################

data_ASATUK
_symmetry_cell_setting           monoclinic
_symmetry_space_group_name_H-M   'P 21/c'
_symmetry_Int_Tables_number      14
_space_group_name_Hall           '-P 2ybc'
loop_
_symmetry_equiv_pos_site_id
_symmetry_equiv_pos_as_xyz
1 x,y,z
2 -x,1/2+y,1/2-z
3 -x,-y,-z
4 x,1/2-y,1/2+z
_cell_length_a                   5.8204(8)
_cell_length_b                   15.169(2)
_cell_length_c                   14.6671(18)
_cell_angle_alpha                90
_cell_angle_beta                 108.554(5)
_cell_angle_gamma                90
_cell_volume                     1227.65
loop_
_atom_site_label
_atom_site_type_symbol
_atom_site_fract_x
_atom_site_fract_y
_atom_site_fract_z
C1 C 0.4068(3) 0.62524(12) 0.65834(11)
H1 H 0.4741 0.6315 0.6091
C2 C 0.5174(3) 0.66475(13) 0.74627(12)
H2 H 0.6549 0.6989 0.7536
C3 C 0.1151(3) 0.57130(11) 0.71644(11)
H3 H -0.0300 0.5415 0.7075
C4 C 0.2361(3) 0.60821(10) 0.80638(10)
C5 C 0.3208(3) 0.65625(13) 0.99340(11)
H4 H 0.4878 0.6380 1.0061
H5 H 0.3059 0.7171 0.9720
C6 C 0.2511(3) 0.64805(11) 1.08347(10)
C7 C 0.3878(3) 0.59678(11) 1.15922(11)
H6 H 0.5206 0.5659 1.1535
C8 C 0.3292(3) 0.59092(11) 1.24382(11)
H7 H 0.4226 0.5559 1.2940
C9 C 0.1325(3) 0.63687(10) 1.25409(10)
C10 C -0.0078(3) 0.68696(11) 1.17674(12)
H8 H -0.1422 0.7172 1.1818
C11 C 0.0501(3) 0.69241(12) 1.09250(12)
H9 H -0.0460 0.7260 1.0415
C12 C 0.0651(3) 0.63164(10) 1.34527(10)
Cd1 Cd 0.0000 0.5000 0.5000
N1 N 0.2033(2) 0.57793(9) 0.64333(9)
N2 N 0.4356(3) 0.65607(10) 0.82125(9)
O1 O 0.19187(19) 0.58000(8) 1.41163(7)
O2 O 0.3039(2) 0.39445(9) 0.52210(9)
H10 H 0.268(4) 0.3638(14) 0.5644(13)
H11 H 0.442(4) 0.4036(15) 0.5417(17)
O3 O -0.1103(2) 0.67498(9) 1.35035(9)
S1 S 0.12178(8) 0.58689(3) 0.90129(3)
C1B C -0.4068(3) 0.37476(12) 0.34166(11)
H1B H -0.4741 0.3685 0.3909
C2B C -0.5174(3) 0.33525(13) 0.25373(12)
H2B H -0.6549 0.3011 0.2464
C3B C -0.1151(3) 0.42870(11) 0.28356(11)
H3B H 0.0300 0.4585 0.2925
C4B C -0.2361(3) 0.39179(10) 0.19362(10)
C5B C -0.3208(3) 0.34375(13) 0.00660(11)
H4B H -0.4878 0.3620 -0.0061
H5B H -0.3059 0.2829 0.0280
C6B C -0.2511(3) 0.35195(11) -0.08347(10)
C7B C -0.3878(3) 0.40322(11) -0.15922(11)
H6B H -0.5206 0.4341 -0.1535
C8B C -0.3292(3) 0.40908(11) -0.24382(11)
H7B H -0.4226 0.4441 -0.2940
C9B C -0.1325(3) 0.36313(10) -0.25409(10)
C10B C 0.0078(3) 0.31304(11) -0.17674(12)
H8B H 0.1422 0.2828 -0.1818
C11B C -0.0501(3) 0.30759(12) -0.09250(12)
H9B H 0.0460 0.2740 -0.0415
C12B C -0.0651(3) 0.36836(10) -0.34527(10)
Cd1_2 Cd 0.0000 0.5000 -0.5000
Cd1_3 Cd 0.0000 0.5000 1.5000
N1B N -0.2033(2) 0.42207(9) 0.35667(9)
N2B N -0.4356(3) 0.34393(10) 0.17875(9)
O1B O -0.19187(19) 0.42000(8) -0.41163(7)
O1_2 O 0.19187(19) 0.58000(8) 0.41163(7)
O1B_2 O -0.19187(19) 0.42000(8) 0.58837(7)
O2B O -0.3039(2) 0.60555(9) 0.47790(9)
H10B H -0.268(4) 0.6362(14) 0.4356(13)
H11B H -0.442(4) 0.5964(15) 0.4583(17)
O3B O 0.1103(2) 0.32502(9) -0.35035(9)
S1B S -0.12178(8) 0.41311(3) 0.09871(3)
loop_
_geom_bond_atom_site_label_1
_geom_bond_atom_site_label_2
_geom_bond_site_symmetry_1
_geom_bond_site_symmetry_2
C1 H1 1_555 1_555
C2 C1 1_555 1_555
H2 C2 1_555 1_555
C3 H3 1_555 1_555
C4 C3 1_555 1_555
C5 H4 1_555 1_555
H5 C5 1_555 1_555
C6 C5 1_555 1_555
C7 C6 1_555 1_555
H6 C7 1_555 1_555
C8 C7 1_555 1_555
H7 C8 1_555 1_555
C9 C8 1_555 1_555
C10 C9 1_555 1_555
H8 C10 1_555 1_555
C11 C6 1_555 1_555
H9 C11 1_555 1_555
C12 C9 1_555 1_555
Cd1 N1 1_555 1_555
N1 C1 1_555 1_555
N2 C2 1_555 1_555
O1 C12 1_555 1_555
O2 Cd1 1_555 1_555
H10 O2 1_555 1_555
H11 O2 1_555 1_555
O3 C12 1_555 1_555
S1 C4 1_555 1_555
C1B H1B 1_555 1_555
C2B C1B 1_555 1_555
H2B C2B 1_555 1_555
C3B H3B 1_555 1_555
C4B C3B 1_555 1_555
C5B H4B 1_555 1_555
H5B C5B 1_555 1_555
C6B C5B 1_555 1_555
C7B C6B 1_555 1_555
H6B C7B 1_555 1_555
C8B C7B 1_555 1_555
H7B C8B 1_555 1_555
C9B C8B 1_555 1_555
C10B C9B 1_555 1_555
H8B C10B 1_555 1_555
C11B C6B 1_555 1_555
H9B C11B 1_555 1_555
C12B C9B 1_555 1_555
Cd1_2 O1B 1_555 1_555
Cd1_3 O1 1_555 1_555
N1B Cd1 1_555 1_555
N2B C2B 1_555 1_555
O1B C12B 1_555 1_555
O1_2 Cd1 1_555 1_555
O1B_2 Cd1 1_555 1_555
O2B Cd1 1_555 1_555
H10B O2B 1_555 1_555
H11B O2B 1_555 1_555
O3B C12B 1_555 1_555
S1B C4B 1_555 1_555
C3 N1 1_555 1_555
C4 N2 1_555 1_555
C5 S1 1_555 1_555
C10 C11 1_555 1_555
C1B N1B 1_555 1_555
C3B N1B 1_555 1_555
C4B N2B 1_555 1_555
C5B S1B 1_555 1_555
C10B C11B 1_555 1_555

#END
