
#######################################################################
#
#                 Cambridge Crystallographic Data Centre
#                                CCDC 
#
#######################################################################
#
# If this CIF has been generated from an entry in the Cambridge 
# Structural Database, then it will include bibliographic, chemical, 
# crystal, experimental, refinement or atomic coordinate data resulting 
# from the CCDC's data processing and validation procedures.
#
#######################################################################

data_ASAVOG
_symmetry_cell_setting           orthorhombic
_symmetry_space_group_name_H-M   'P 21 21 21'
_symmetry_Int_Tables_number      19
_space_group_name_Hall           'P 2ac 2ab'
loop_
_symmetry_equiv_pos_site_id
_symmetry_equiv_pos_as_xyz
1 x,y,z
2 1/2-x,-y,1/2+z
3 -x,1/2+y,1/2-z
4 1/2+x,1/2-y,-z
_cell_length_a                   8.2622(8)
_cell_length_b                   8.6335(8)
_cell_length_c                   27.508(3)
_cell_angle_alpha                90
_cell_angle_beta                 90
_cell_angle_gamma                90
_cell_volume                     1962.19
loop_
_atom_site_label
_atom_site_type_symbol
_atom_site_fract_x
_atom_site_fract_y
_atom_site_fract_z
N1 N 0.6602(2) -0.0258(2) 0.88236(6)
S1 S 0.69241(7) 0.09332(7) 0.92542(2)
S2 S 0.80310(7) -0.04093(7) 0.84372(2)
O1 O 0.6597(2) 0.0198(2) 0.97127(5)
O2 O 0.6130(2) 0.2404(2) 0.91856(8)
O3 O 0.8380(2) -0.20152(19) 0.83408(6)
O4 O 0.7776(2) 0.0518(2) 0.80065(6)
C1 C 0.9038(3) 0.1209(3) 0.91859(8)
C2 C 0.9614(3) 0.0467(3) 0.87731(8)
C3 C 1.1238(3) 0.0533(3) 0.86509(9)
H1 H 1.1636 0.0020 0.8370
C4 C 1.2268(3) 0.1373(4) 0.89512(10)
H2 H 1.3389 0.1429 0.8876
C5 C 1.1684(4) 0.2129(3) 0.93586(9)
H3 H 1.2408 0.2704 0.9557
C6 C 1.0060(3) 0.2060(3) 0.94812(9)
H4 H 0.9659 0.2582 0.9760
Ag1 Ag 0.65612(2) 0.51556(2) 0.856313(6)
N2 N 0.7243(3) 0.3880(3) 0.79229(8)
H5 H 0.743(3) 0.302(2) 0.8025(9)
C7 C 0.4430(3) 0.3021(4) 0.77990(11)
H6 H 0.4674 0.2058 0.7973
H7 H 0.3616 0.2817 0.7548
H8 H 0.4011 0.3791 0.8028
C8 C 0.5946(3) 0.3628(4) 0.75651(10)
H9 H 0.6322 0.2881 0.7317
H10 H 0.5703 0.4618 0.7399
C9 C 0.8761(3) 0.4437(3) 0.76953(9)
H11 H 0.8569 0.5467 0.7548
H12 H 0.9077 0.3716 0.7432
C10 C 1.0126(3) 0.4556(3) 0.80570(10)
H13 H 0.9843 0.5313 0.8309
H14 H 1.1113 0.4890 0.7890
H15 H 1.0308 0.3542 0.8208
N3 N 0.5869(3) 0.6371(3) 0.92156(8)
H16 H 0.600(3) 0.724(2) 0.9135(9)
C11 C 0.3080(4) 0.6663(5) 0.89251(16)
H17 H 0.3314 0.7738 0.8835
H18 H 0.1946 0.6575 0.9026
H19 H 0.3276 0.5986 0.8645
C12 C 0.4157(4) 0.6190(4) 0.93371(13)
H20 H 0.3903 0.6828 0.9626
H21 H 0.3942 0.5094 0.9421
C13 C 0.6938(4) 0.6003(3) 0.96309(9)
H22 H 0.6754 0.4918 0.9733
H23 H 0.6662 0.6684 0.9908
C14 C 0.8709(4) 0.6219(4) 0.95012(10)
H24 H 0.8983 0.5553 0.9225
H25 H 0.9383 0.5939 0.9781
H26 H 0.8905 0.7303 0.9414
O3_2 O 0.8380(2) 0.79848(19) 0.83408(6)
Ag1_2 Ag 0.65612(2) -0.48444(2) 0.856313(6)
loop_
_geom_bond_atom_site_label_1
_geom_bond_atom_site_label_2
_geom_bond_site_symmetry_1
_geom_bond_site_symmetry_2
N1 S1 1_555 1_555
S1 O1 1_555 1_555
S2 N1 1_555 1_555
O2 S1 1_555 1_555
O3 S2 1_555 1_555
O4 S2 1_555 1_555
C1 S1 1_555 1_555
C2 S2 1_555 1_555
C3 C2 1_555 1_555
H1 C3 1_555 1_555
C4 C3 1_555 1_555
H2 C4 1_555 1_555
C5 C4 1_555 1_555
H3 C5 1_555 1_555
C6 C1 1_555 1_555
H4 C6 1_555 1_555
Ag1 O2 1_555 1_555
N2 Ag1 1_555 1_555
H5 N2 1_555 1_555
C7 H6 1_555 1_555
H7 C7 1_555 1_555
H8 C7 1_555 1_555
C8 N2 1_555 1_555
H9 C8 1_555 1_555
H10 C8 1_555 1_555
C9 N2 1_555 1_555
H11 C9 1_555 1_555
H12 C9 1_555 1_555
C10 C9 1_555 1_555
H13 C10 1_555 1_555
H14 C10 1_555 1_555
H15 C10 1_555 1_555
N3 Ag1 1_555 1_555
H16 N3 1_555 1_555
C11 H17 1_555 1_555
H18 C11 1_555 1_555
H19 C11 1_555 1_555
C12 N3 1_555 1_555
H20 C12 1_555 1_555
H21 C12 1_555 1_555
C13 N3 1_555 1_555
H22 C13 1_555 1_555
H23 C13 1_555 1_555
C14 C13 1_555 1_555
H24 C14 1_555 1_555
H25 C14 1_555 1_555
H26 C14 1_555 1_555
O3_2 Ag1 1_555 1_555
Ag1_2 O3 1_555 1_555
C1 C2 1_555 1_555
C5 C6 1_555 1_555
C7 C8 1_555 1_555
C11 C12 1_555 1_555

#END
