
#######################################################################
#
#                 Cambridge Crystallographic Data Centre
#                                CCDC 
#
#######################################################################
#
# If this CIF has been generated from an entry in the Cambridge 
# Structural Database, then it will include bibliographic, chemical, 
# crystal, experimental, refinement or atomic coordinate data resulting 
# from the CCDC's data processing and validation procedures.
#
#######################################################################

data_ASAWAT
_symmetry_cell_setting           monoclinic
_symmetry_space_group_name_H-M   'P 21/c'
_symmetry_Int_Tables_number      14
_space_group_name_Hall           '-P 2ybc'
loop_
_symmetry_equiv_pos_site_id
_symmetry_equiv_pos_as_xyz
1 x,y,z
2 -x,1/2+y,1/2-z
3 -x,-y,-z
4 x,1/2-y,1/2+z
_cell_length_a                   8.23150(10)
_cell_length_b                   17.1464(2)
_cell_length_c                   7.70130(10)
_cell_angle_alpha                90
_cell_angle_beta                 96.9050(10)
_cell_angle_gamma                90
_cell_volume                     1079.08
loop_
_atom_site_label
_atom_site_type_symbol
_atom_site_fract_x
_atom_site_fract_y
_atom_site_fract_z
Cd1 Cd 0.048655(18) 0.649384(9) 0.612820(18)
S1 S 0.34349(6) 0.61737(3) 0.59414(7)
O1 O 0.10312(19) 0.70158(9) 0.9120(2)
O2 O -0.07128(19) 0.73461(9) 1.0980(2)
O3 O -0.05473(19) 0.59231(10) 1.36231(19)
O4 O -0.3107(2) 0.63676(10) 1.3149(2)
N1 N -0.1123(2) 0.58569(10) 0.7924(2)
N2 N 0.6016(2) 0.70821(12) 0.6304(2)
H1 H 0.6567 0.7491 0.6649
H2 H 0.6449 0.6730 0.5711
N3 N 0.3877(2) 0.75499(12) 0.7599(2)
H3 H 0.4455 0.7953 0.7929
H4 H 0.2895 0.7508 0.7865
C1 C -0.2031(3) 0.52343(13) 0.7446(3)
H5 H -0.2064 0.5051 0.6306
C2 C -0.2926(3) 0.48517(14) 0.8587(3)
H6 H -0.3559 0.4420 0.8216
C3 C -0.2870(3) 0.51164(14) 1.0283(3)
H7 H -0.3442 0.4855 1.1075
C4 C -0.1956(2) 0.57752(12) 1.0806(2)
C5 C -0.1103(2) 0.61357(12) 0.9565(2)
C6 C -0.1867(3) 0.60609(12) 1.2686(3)
C7 C -0.0164(2) 0.68885(13) 0.9918(2)
C8 C 0.4498(3) 0.69946(13) 0.6685(3)
Cd1_2 Cd 0.048655(18) 0.649384(9) 1.612820(18)
Cd1C Cd 0.048655(18) 0.850616(9) 1.112820(18)
O2C O -0.07128(19) 0.76539(9) 0.5980(2)
O3_2 O -0.05473(19) 0.59231(10) 0.36231(19)
loop_
_geom_bond_atom_site_label_1
_geom_bond_atom_site_label_2
_geom_bond_site_symmetry_1
_geom_bond_site_symmetry_2
Cd1 S1 1_555 1_555
S1 C8 1_555 1_555
O1 Cd1 1_555 1_555
O2 C7 1_555 1_555
O3 C6 1_555 1_555
O4 C6 1_555 1_555
N1 Cd1 1_555 1_555
N2 H1 1_555 1_555
H2 N2 1_555 1_555
N3 H3 1_555 1_555
H4 N3 1_555 1_555
C1 N1 1_555 1_555
H5 C1 1_555 1_555
C2 C1 1_555 1_555
H6 C2 1_555 1_555
C3 C2 1_555 1_555
H7 C3 1_555 1_555
C4 C3 1_555 1_555
C5 N1 1_555 1_555
C6 C4 1_555 1_555
C7 O1 1_555 1_555
C8 N2 1_555 1_555
Cd1_2 O3 1_555 1_555
Cd1C O2 1_555 1_555
O2C Cd1 1_555 1_555
O3_2 Cd1 1_555 1_555
N3 C8 1_555 1_555
C4 C5 1_555 1_555
C5 C7 1_555 1_555

#END
