
#######################################################################
#
#                 Cambridge Crystallographic Data Centre
#                                CCDC 
#
#######################################################################
#
# If this CIF has been generated from an entry in the Cambridge 
# Structural Database, then it will include bibliographic, chemical, 
# crystal, experimental, refinement or atomic coordinate data resulting 
# from the CCDC's data processing and validation procedures.
#
#######################################################################

data_ASAWEX
_symmetry_cell_setting           monoclinic
_symmetry_space_group_name_H-M   'C 2/c'
_symmetry_Int_Tables_number      15
_space_group_name_Hall           '-C 2yn'
loop_
_symmetry_equiv_pos_site_id
_symmetry_equiv_pos_as_xyz
1 x,y,z
2 -x,y,1/2-z
3 1/2+x,1/2+y,z
4 1/2-x,1/2+y,1/2-z
5 -x,-y,-z
6 x,-y,1/2+z
7 1/2-x,1/2-y,-z
8 1/2+x,1/2-y,1/2+z
_cell_length_a                   23.999(3)
_cell_length_b                   7.9719(8)
_cell_length_c                   23.070(3)
_cell_angle_alpha                90
_cell_angle_beta                 100.338(5)
_cell_angle_gamma                90
_cell_volume                     4342.05
loop_
_atom_site_label
_atom_site_type_symbol
_atom_site_fract_x
_atom_site_fract_y
_atom_site_fract_z
Cd1 Cd 0.287163(9) 0.91168(3) 1.101096(9)
Cd2 Cd 0.527760(9) 1.16353(3) 1.165840(10)
S1 S 0.40441(3) 1.00883(10) 1.19555(3)
S2 S 0.49385(4) 1.33784(13) 1.07145(4)
S3 S 0.5000 1.35063(19) 1.2500
O1 O 0.20892(12) 0.9195(4) 1.02299(12)
O2 O 0.62077(12) 1.2902(4) 1.19322(17)
O3 O 0.36338(9) 0.8730(3) 1.17531(10)
O4 O 0.44887(11) 1.0040(4) 1.15889(11)
O5 O 0.43045(10) 0.9754(3) 1.25754(9)
O6 O 0.37598(11) 1.1712(3) 1.19119(12)
O7 O 0.28410(10) 0.6176(3) 1.10031(10)
O8 O 0.22134(10) 0.7227(3) 1.14894(11)
O9 O 0.32157(12) 1.1159(3) 1.04157(12)
O10 O 0.34745(10) 0.8588(3) 1.02587(10)
N1 N 0.24752(10) 0.1313(3) 1.14341(11)
N2 N 0.43227(11) 1.0205(3) 0.89338(11)
N3 N 0.40022(15) 1.4392(5) 1.1073(2)
H1 H 0.3736 1.5103 1.1089
H2 H 0.4000 1.3434 1.1244
N4 N 0.44039(15) 1.6228(4) 1.05299(17)
H3 H 0.4135 1.6927 1.0550
H4 H 0.4669 1.6492 1.0340
N5 N 0.5000 1.6807(7) 1.2500
N6 N 0.4267(4) 1.5585(13) 1.2347(9)
C1 C 0.44099(14) 1.4766(5) 1.07870(16)
C2 C 0.4798(3) 1.5444(8) 1.2466(3)
C3 C 0.21780(13) 0.1086(4) 1.18682(14)
H5 H 0.2119 -0.0004 1.1987
C4 C 0.19570(14) 0.2391(4) 1.21448(15)
H6 H 0.1755 0.2183 1.2446
C5 C 0.20397(13) 0.4010(4) 1.19693(14)
H7 H 0.1889 0.4911 1.2145
C6 C 0.23517(12) 0.4275(3) 1.15255(13)
C7 C 0.25609(12) 0.2887(4) 1.12733(13)
H8 H 0.2772 0.3060 1.0977
C8 C 0.24719(12) 0.6009(4) 1.13265(13)
C9 C 0.43350(15) 1.1851(5) 0.88306(16)
H9 H 0.4540 1.2230 0.8551
C10 C 0.40599(16) 1.3013(5) 0.91174(16)
H10 H 0.4068 1.4145 0.9022
C11 C 0.37721(14) 1.2472(4) 0.95486(14)
H11 H 0.3584 1.3233 0.9750
C12 C 0.37684(12) 1.0773(4) 0.96768(13)
C13 C 0.40432(13) 0.9690(4) 0.93541(13)
H12 H 0.4033 0.8548 0.9433
C14 C 0.34667(13) 1.0135(4) 1.01484(13)
H13 H 0.220(2) 0.947(7) 0.994(2)
H14 H 0.1924(19) 0.837(6) 1.016(2)
H15 H 0.627(3) 1.273(9) 1.225(3)
H16 H 0.645(2) 1.268(7) 1.178(2)
Cd1_2 Cd 0.287163(9) 1.91168(3) 1.101096(9)
Cd1_3 Cd 0.287163(9) -0.08832(3) 1.101096(9)
Cd1D Cd 0.712837(9) 1.08832(3) 0.898904(9)
Cd1A Cd 0.712837(9) 0.91168(3) 1.398904(9)
Cd2D Cd 0.472240(9) 0.83647(3) 0.834160(10)
Cd2A Cd 0.472240(9) 1.16353(3) 1.334160(10)
S1A S 0.59559(3) 1.00883(10) 1.30445(3)
S2D S 0.50615(4) 0.66216(13) 0.92855(4)
S3D S 0.5000 0.64937(19) 0.7500
O1_2 O 0.20892(12) 1.9195(4) 1.02299(12)
O2D O 0.37923(12) 0.7098(4) 0.80678(17)
O3A O 0.63662(9) 0.8730(3) 1.32469(10)
O3_2 O 0.36338(9) 1.8730(3) 1.17531(10)
O4A O 0.55113(11) 1.0040(4) 1.34111(11)
O4D O 0.55113(11) 0.9960(4) 0.84111(11)
O5A O 0.56955(10) 0.9754(3) 1.24246(9)
O5E O 0.43045(10) 1.0246(3) 0.75754(9)
O6A O 0.62402(11) 1.1712(3) 1.30881(12)
O7_2 O 0.28410(10) 1.6176(3) 1.10031(10)
O8_2 O 0.22134(10) 1.7227(3) 1.14894(11)
O9D O 0.67843(12) 0.8841(3) 0.95843(12)
O9_2 O 0.32157(12) 2.1159(3) 1.04157(12)
O10D O 0.65255(10) 1.1412(3) 0.97413(10)
O10_2 O 0.34745(10) 1.8588(3) 1.02587(10)
N1_2 N 0.24752(10) 1.1313(3) 1.14341(11)
N1_3 N 0.24752(10) 2.1313(3) 1.14341(11)
N2D N 0.56773(11) 0.9795(3) 1.10662(11)
N3D N 0.59978(15) 0.5608(5) 0.8927(2)
H1D H 0.6264 0.4897 0.8911
H2D H 0.6000 0.6566 0.8756
N4D N 0.55961(15) 0.3772(4) 0.94701(17)
H3D H 0.5865 0.3073 0.9450
H4D H 0.5331 0.3508 0.9660
N6A N 0.5733(4) 1.5585(13) 1.2653(9)
C1D C 0.55901(14) 0.5234(5) 0.92130(16)
C2A C 0.5202(3) 1.5444(8) 1.2534(3)
C3_2 C 0.21780(13) 1.1086(4) 1.18682(14)
H5_2 H 0.2119 0.9996 1.1987
C4_2 C 0.19570(14) 1.2391(4) 1.21448(15)
H6_2 H 0.1755 1.2183 1.2446
C5_2 C 0.20397(13) 1.4010(4) 1.19693(14)
H7_2 H 0.1889 1.4911 1.2145
C6_2 C 0.23517(12) 1.4275(3) 1.15255(13)
C7_2 C 0.25609(12) 1.2887(4) 1.12733(13)
H8_2 H 0.2772 1.3060 1.0977
C8_2 C 0.24719(12) 1.6009(4) 1.13265(13)
C9D C 0.56650(15) 0.8149(5) 1.11694(16)
H9D H 0.5460 0.7770 1.1449
C10D C 0.59401(16) 0.6987(5) 1.08826(16)
H10D H 0.5932 0.5855 1.0978
C11D C 0.62279(14) 0.7528(4) 1.04514(14)
H11D H 0.6416 0.6767 1.0250
C12D C 0.62316(12) 0.9227(4) 1.03232(13)
C13D C 0.59568(13) 1.0310(4) 1.06459(13)
H12D H 0.5967 1.1452 1.0567
C14D C 0.65333(13) 0.9865(4) 0.98516(13)
H13_2 H 0.220(2) 1.947(7) 0.994(2)
H14_2 H 0.1924(19) 1.837(6) 1.016(2)
H15D H 0.373(3) 0.727(9) 0.775(3)
H16D H 0.355(2) 0.732(7) 0.822(2)
loop_
_geom_bond_atom_site_label_1
_geom_bond_atom_site_label_2
_geom_bond_site_symmetry_1
_geom_bond_site_symmetry_2
Cd1 O1 1_555 1_555
Cd2 S2 1_555 1_555
S1 O3 1_555 1_555
S2 C1 1_555 1_555
S3 Cd2 1_555 1_555
O1 H13 1_555 1_555
O2 Cd2 1_555 1_555
O3 Cd1 1_555 1_555
O4 Cd2 1_555 1_555
O5 S1 1_555 1_555
O6 S1 1_555 1_555
O7 Cd1 1_555 1_555
O8 C8 1_555 1_555
O9 Cd1 1_555 1_555
O10 Cd1 1_555 1_555
N1 C3 1_555 1_555
N2 C9 1_555 1_555
N3 H1 1_555 1_555
H2 N3 1_555 1_555
N4 H3 1_555 1_555
H4 N4 1_555 1_555
N5 C2 1_555 1_555
N6 C2 1_555 1_555
C1 N3 1_555 1_555
C2 S3 1_555 1_555
C3 H5 1_555 1_555
C4 C3 1_555 1_555
H6 C4 1_555 1_555
C5 C4 1_555 1_555
H7 C5 1_555 1_555
C6 C5 1_555 1_555
C7 N1 1_555 1_555
H8 C7 1_555 1_555
C8 O7 1_555 1_555
C9 H9 1_555 1_555
C10 C9 1_555 1_555
H10 C10 1_555 1_555
C11 C10 1_555 1_555
H11 C11 1_555 1_555
C12 C11 1_555 1_555
C13 N2 1_555 1_555
H12 C13 1_555 1_555
C14 O9 1_555 1_555
H14 O1 1_555 1_555
H15 O2 1_555 1_555
H16 O2 1_555 1_555
Cd1_2 O1_2 1_555 1_555
Cd1_3 N1 1_555 1_555
Cd1D O9D 1_555 1_555
Cd1A O3A 1_555 1_555
Cd2D N2 1_555 1_555
Cd2A S3 1_555 1_555
S1A O3A 1_555 1_555
S2D Cd2D 1_555 1_555
S3D Cd2D 1_555 1_555
O1_2 H13_2 1_555 1_555
O2D Cd2D 1_555 1_555
O3_2 Cd1_2 1_555 1_555
O4A Cd2A 1_555 1_555
O4D Cd2D 1_555 1_555
O5A Cd2 1_555 1_555
O5E Cd2D 1_555 1_555
O6A S1A 1_555 1_555
O7_2 Cd1_2 1_555 1_555
O8_2 C8_2 1_555 1_555
O9D C14D 1_555 1_555
O9_2 Cd1_2 1_555 1_555
O10D Cd1D 1_555 1_555
O10_2 Cd1_2 1_555 1_555
N1_2 Cd1 1_555 1_555
N1_3 Cd1_2 1_555 1_555
N2D Cd2 1_555 1_555
N3D H1D 1_555 1_555
H2D N3D 1_555 1_555
N4D H3D 1_555 1_555
H4D N4D 1_555 1_555
N6A C2A 1_555 1_555
C1D S2D 1_555 1_555
C2A S3 1_555 1_555
C3_2 N1_2 1_555 1_555
H5_2 C3_2 1_555 1_555
C4_2 C3_2 1_555 1_555
H6_2 C4_2 1_555 1_555
C5_2 C4_2 1_555 1_555
H7_2 C5_2 1_555 1_555
C6_2 C5_2 1_555 1_555
C7_2 N1_2 1_555 1_555
H8_2 C7_2 1_555 1_555
C8_2 O7_2 1_555 1_555
C9D N2D 1_555 1_555
H9D C9D 1_555 1_555
C10D C9D 1_555 1_555
H10D C10D 1_555 1_555
C11D C10D 1_555 1_555
H11D C11D 1_555 1_555
C12D C11D 1_555 1_555
C13D N2D 1_555 1_555
H12D C13D 1_555 1_555
C14D O10D 1_555 1_555
H14_2 O1_2 1_555 1_555
H15D O2D 1_555 1_555
H16D O2D 1_555 1_555
S1 O4 1_555 1_555
O5 Cd2A 1_555 1_555
O10 C14 1_555 1_555
N4 C1 1_555 1_555
N5 C2A 1_555 1_555
C2 C2A 1_555 1_555
C6 C7 1_555 1_555
C6 C8 1_555 1_555
C12 C13 1_555 1_555
C12 C14 1_555 1_555
S1A O4A 1_555 1_555
S1A O5A 1_555 1_555
N3D C1D 1_555 1_555
N4D C1D 1_555 1_555
C6_2 C7_2 1_555 1_555
C6_2 C8_2 1_555 1_555
C12D C13D 1_555 1_555
C12D C14D 1_555 1_555

#END
