
#######################################################################
#
#                 Cambridge Crystallographic Data Centre
#                                CCDC 
#
#######################################################################
#
# If this CIF has been generated from an entry in the Cambridge 
# Structural Database, then it will include bibliographic, chemical, 
# crystal, experimental, refinement or atomic coordinate data resulting 
# from the CCDC's data processing and validation procedures.
#
#######################################################################

data_ASAYOJ
_symmetry_cell_setting           monoclinic
_symmetry_space_group_name_H-M   'C 2'
_symmetry_Int_Tables_number      5
_space_group_name_Hall           'C 2y'
loop_
_symmetry_equiv_pos_site_id
_symmetry_equiv_pos_as_xyz
1 x,y,z
2 -x,y,-z
3 1/2+x,1/2+y,z
4 1/2-x,1/2+y,-z
_cell_length_a                   16.814(4)
_cell_length_b                   10.603(3)
_cell_length_c                   11.327(3)
_cell_angle_alpha                90
_cell_angle_beta                 91.067(4)
_cell_angle_gamma                90
_cell_volume                     2019.01
loop_
_atom_site_label
_atom_site_type_symbol
_atom_site_fract_x
_atom_site_fract_y
_atom_site_fract_z
Zn1 Zn 0.167393(15) 0.48073(8) 1.01503(2)
O1 O 0.0801(3) 0.3318(5) 0.9121(4)
O2 O 0.1202(2) 0.2914(4) 1.0917(4)
O3 O 0.2057(2) 0.1154(5) 0.9364(4)
O4 O 0.2049(3) -0.0841(4) 0.9857(5)
N1 N 0.1759(3) 0.5674(5) 0.8362(4)
N2 N 0.2256(3) 0.6822(5) 0.6980(4)
N3 N 0.0970(4) 0.7839(5) 0.2439(5)
N4 N 0.1164(3) 0.6048(5) 0.1523(5)
C1 C 0.0846(3) 0.2614(5) 0.9978(4)
C2 C 0.1688(4) 0.0183(5) 0.9674(5)
C3 C 0.0426(4) -0.0904(5) 0.9905(5)
H5 H 0.0698 -0.1662 0.9830
C4 C 0.0828(3) 0.0224(5) 0.9837(4)
C5 C 0.0419(3) 0.1357(5) 0.9936(4)
C6 C 0.1572(4) 0.5187(7) 0.7274(6)
H6 H 0.1274 0.4458 0.7153
C7 C 0.1861(5) 0.5866(7) 0.6431(6)
H7 H 0.1809 0.5727 0.5622
C8 C 0.2174(4) 0.6681(7) 0.8123(6)
H8 H 0.2385 0.7228 0.8689
C9 C 0.2668(4) 0.7873(8) 0.6385(6)
H9 H 0.3025 0.7536 0.5802
H10 H 0.2983 0.8342 0.6961
C10 C 0.2088(5) 0.8735(7) 0.5797(6)
C11 C 0.1847(4) 0.8523(6) 0.4651(6)
H11 H 0.2038 0.7821 0.4254
C12 C 0.1328(4) 0.9330(6) 0.4076(5)
C13 C 0.1034(6) 1.0327(8) 0.4685(7)
H12 H 0.0675 1.0870 0.4312
C14 C 0.1260(7) 1.0548(10) 0.5853(7)
H13 H 0.1048 1.1220 0.6272
C15 C 0.1814(5) 0.9730(13) 0.6381(5)
H14 H 0.1994 0.9884 0.7148
C16 C 0.1086(5) 0.9163(7) 0.2804(6)
H15 H 0.0595 0.9621 0.2657
H16 H 0.1492 0.9537 0.2315
C17 C 0.0342(6) 0.7123(10) 0.2680(10)
H17 H -0.0084 0.7320 0.3158
C18 C 0.0468(6) 0.6005(10) 0.2049(9)
H18 H 0.0114 0.5332 0.2006
C19 C 0.1450(4) 0.7184(6) 0.1761(5)
H19 H 0.1931 0.7486 0.1485
Zn1A Zn -0.167393(15) 0.48073(8) 0.98497(2)
Zn1C Zn 0.332607(15) -0.01927(8) 0.98497(2)
Zn1_2 Zn 0.167393(15) 0.48073(8) 0.01503(2)
Zn1B Zn -0.332607(15) -0.01927(8) 1.01503(2)
Zn1_3 Zn 0.167393(15) 0.48073(8) 2.01503(2)
O1A O -0.0801(3) 0.3318(5) 1.0879(4)
O2A O -0.1202(2) 0.2914(4) 0.9083(4)
O3A O -0.2057(2) 0.1154(5) 1.0636(4)
O4A O -0.2049(3) -0.0841(4) 1.0143(5)
O4C O 0.2951(3) 0.4159(4) 1.0143(5)
O4B O -0.2951(3) 0.4159(4) 0.9857(5)
N1_2 N 0.1759(3) 0.5674(5) 1.8362(4)
N1A N -0.1759(3) 0.5674(5) 1.1638(4)
N2_2 N 0.2256(3) 0.6822(5) 1.6980(4)
N3_2 N 0.0970(4) 0.7839(5) 1.2439(5)
N4_2 N 0.1164(3) 0.6048(5) 1.1523(5)
N4A N -0.1164(3) 0.6048(5) 0.8477(5)
C1A C -0.0846(3) 0.2614(5) 1.0022(4)
C2A C -0.1688(4) 0.0183(5) 1.0326(5)
C3A C -0.0426(4) -0.0904(5) 1.0095(5)
H5A H -0.0698 -0.1662 1.0170
C4A C -0.0828(3) 0.0224(5) 1.0163(4)
C5A C -0.0419(3) 0.1357(5) 1.0064(4)
C6_2 C 0.1572(4) 0.5187(7) 1.7274(6)
H6_2 H 0.1274 0.4458 1.7153
C7_2 C 0.1861(5) 0.5866(7) 1.6431(6)
H7_2 H 0.1809 0.5727 1.5622
C8_2 C 0.2174(4) 0.6681(7) 1.8123(6)
H8_2 H 0.2385 0.7228 1.8689
C9_2 C 0.2668(4) 0.7873(8) 1.6385(6)
H9_2 H 0.3025 0.7536 1.5802
H10_2 H 0.2983 0.8342 1.6961
C10_2 C 0.2088(5) 0.8735(7) 1.5797(6)
C11_2 C 0.1847(4) 0.8523(6) 1.4651(6)
H11_2 H 0.2038 0.7821 1.4254
C12_2 C 0.1328(4) 0.9330(6) 1.4076(5)
C13_2 C 0.1034(6) 1.0327(8) 1.4685(7)
H12_2 H 0.0675 1.0870 1.4312
C14_2 C 0.1260(7) 1.0548(10) 1.5853(7)
H13_2 H 0.1048 1.1220 1.6272
C15_2 C 0.1814(5) 0.9730(13) 1.6381(5)
H14_2 H 0.1994 0.9884 1.7148
C16_2 C 0.1086(5) 0.9163(7) 1.2804(6)
H15_2 H 0.0595 0.9621 1.2657
H16_2 H 0.1492 0.9537 1.2315
C17_2 C 0.0342(6) 0.7123(10) 1.2680(10)
H17_2 H -0.0084 0.7320 1.3158
C18_2 C 0.0468(6) 0.6005(10) 1.2049(9)
H18_2 H 0.0114 0.5332 1.2006
C19_2 C 0.1450(4) 0.7184(6) 1.1761(5)
H19_2 H 0.1931 0.7486 1.1485
O5 O 0.0139(4) 0.2591(7) 0.2835(5)
H1 H 0.0308 0.3080 0.2301
H2 H -0.0195 0.2380 0.2298
O6 O 0.0612(13) 0.383(3) 0.495(2)
H3 H 0.0509 0.3876 0.5678
H4 H 0.0452 0.3459 0.4310
loop_
_geom_bond_atom_site_label_1
_geom_bond_atom_site_label_2
_geom_bond_site_symmetry_1
_geom_bond_site_symmetry_2
Zn1 O1 1_555 1_555
O1 C1 1_555 1_555
O2 Zn1 1_555 1_555
O3 C2 1_555 1_555
O4 C2 1_555 1_555
O5 H1 1_555 1_555
H2 O5 1_555 1_555
O6 H3 1_555 1_555
H4 O6 1_555 1_555
N1 Zn1 1_555 1_555
N2 C7 1_555 1_555
N3 C16 1_555 1_555
N4 C18 1_555 1_555
C1 O2 1_555 1_555
C2 C4 1_555 1_555
C3 H5 1_555 1_555
C4 C3 1_555 1_555
C5 C1 1_555 1_555
C6 N1 1_555 1_555
H6 C6 1_555 1_555
C7 C6 1_555 1_555
H7 C7 1_555 1_555
C8 N1 1_555 1_555
H8 C8 1_555 1_555
C9 N2 1_555 1_555
H9 C9 1_555 1_555
H10 C9 1_555 1_555
C10 C9 1_555 1_555
C11 C10 1_555 1_555
H11 C11 1_555 1_555
C12 C11 1_555 1_555
C13 C12 1_555 1_555
H12 C13 1_555 1_555
C14 C13 1_555 1_555
H13 C14 1_555 1_555
C15 C10 1_555 1_555
H14 C15 1_555 1_555
C16 C12 1_555 1_555
H15 C16 1_555 1_555
H16 C16 1_555 1_555
C17 N3 1_555 1_555
H17 C17 1_555 1_555
C18 C17 1_555 1_555
H18 C18 1_555 1_555
C19 N3 1_555 1_555
H19 C19 1_555 1_555
Zn1A O1A 1_555 1_555
Zn1C O4 1_555 1_555
Zn1_2 N4 1_555 1_555
Zn1B O4A 1_555 1_555
Zn1_3 N1_2 1_555 1_555
O1A C1A 1_555 1_555
O2A Zn1A 1_555 1_555
O3A C2A 1_555 1_555
O4A C2A 1_555 1_555
O4C Zn1 1_555 1_555
O4B Zn1A 1_555 1_555
N1_2 C6_2 1_555 1_555
N1A Zn1A 1_555 1_555
N2_2 C7_2 1_555 1_555
N3_2 C16_2 1_555 1_555
N4_2 Zn1 1_555 1_555
N4A Zn1A 1_555 1_555
C1A O2A 1_555 1_555
C2A C4A 1_555 1_555
C3A C3 1_555 1_555
H5A C3A 1_555 1_555
C4A C3A 1_555 1_555
C5A C5 1_555 1_555
C6_2 H6_2 1_555 1_555
C7_2 C6_2 1_555 1_555
H7_2 C7_2 1_555 1_555
C8_2 N1_2 1_555 1_555
H8_2 C8_2 1_555 1_555
C9_2 N2_2 1_555 1_555
H9_2 C9_2 1_555 1_555
H10_2 C9_2 1_555 1_555
C10_2 C9_2 1_555 1_555
C11_2 C10_2 1_555 1_555
H11_2 C11_2 1_555 1_555
C12_2 C11_2 1_555 1_555
C13_2 C12_2 1_555 1_555
H12_2 C13_2 1_555 1_555
C14_2 C13_2 1_555 1_555
H13_2 C14_2 1_555 1_555
C15_2 C10_2 1_555 1_555
H14_2 C15_2 1_555 1_555
C16_2 C12_2 1_555 1_555
H15_2 C16_2 1_555 1_555
H16_2 C16_2 1_555 1_555
C17_2 N3_2 1_555 1_555
H17_2 C17_2 1_555 1_555
C18_2 N4_2 1_555 1_555
H18_2 C18_2 1_555 1_555
C19_2 N3_2 1_555 1_555
H19_2 C19_2 1_555 1_555
N2 C8 1_555 1_555
N4 C19 1_555 1_555
C4 C5 1_555 1_555
C14 C15 1_555 1_555
N2_2 C8_2 1_555 1_555
N4_2 C19_2 1_555 1_555
C1A C5A 1_555 1_555
C4A C5A 1_555 1_555
C14_2 C15_2 1_555 1_555
C17_2 C18_2 1_555 1_555

#END
