
#######################################################################
#
#                 Cambridge Crystallographic Data Centre
#                                CCDC 
#
#######################################################################
#
# If this CIF has been generated from an entry in the Cambridge 
# Structural Database, then it will include bibliographic, chemical, 
# crystal, experimental, refinement or atomic coordinate data resulting 
# from the CCDC's data processing and validation procedures.
#
#######################################################################

data_ASAZUQ
_symmetry_cell_setting           monoclinic
_symmetry_space_group_name_H-M   'A 2/a'
_symmetry_Int_Tables_number      15
_space_group_name_Hall           '-A 2yn'
loop_
_symmetry_equiv_pos_site_id
_symmetry_equiv_pos_as_xyz
1 x,y,z
2 1/2-x,y,-z
3 x,1/2+y,1/2+z
4 1/2-x,1/2+y,1/2-z
5 -x,-y,-z
6 1/2+x,-y,z
7 -x,1/2-y,1/2-z
8 1/2+x,1/2-y,1/2+z
_cell_length_a                   26.3735(8)
_cell_length_b                   13.4268(4)
_cell_length_c                   18.3958(6)
_cell_angle_alpha                90
_cell_angle_beta                 92.237(3)
_cell_angle_gamma                90
_cell_volume                     6509.2
loop_
_atom_site_label
_atom_site_type_symbol
_atom_site_fract_x
_atom_site_fract_y
_atom_site_fract_z
N1 N 0.70293(5) 0.33104(10) -0.14048(8)
Cu1 Cu 0.67222(4) 0.23377(7) -0.06575(5)
C1 C 0.71874(5) 0.37798(10) -0.17642(7)
N2 N 0.612709(34) 0.20357(7) -0.13738(5)
N3 N 0.617609(34) 0.33157(6) -0.01431(5)
N4 N 0.643662(34) 0.12096(6) -0.00508(5)
Os1 Os 0.747954(28) 0.47599(6) -0.24746(5)
C2 C 0.580937(32) 0.29851(6) -0.13247(4)
C3 C 0.586235(31) 0.11261(6) -0.11246(5)
C4 C 0.627919(31) 0.19052(6) -0.21362(4)
C5 C 0.570608(31) 0.33179(6) -0.05739(4)
C6 C 0.608367(32) 0.27466(6) 0.05460(4)
C7 C 0.636684(31) 0.43723(6) -0.00130(4)
C8 C 0.606209(32) 0.16211(6) 0.04109(5)
C9 C 0.616469(32) 0.05273(6) -0.05741(4)
C10 C 0.682074(30) 0.05839(6) 0.03591(4)
O1 O 0.80342(4) 0.38861(11) -0.28245(10)
O2 O 0.69980(5) 0.41611(11) -0.32252(8)
N5 N 0.79242(4) 0.54524(8) -0.17416(6)
N6 N 0.696019(35) 0.56899(9) -0.20941(6)
C11 C 0.72119(6) 0.07424(10) -0.18172(7)
H1 H 0.59803(7) 0.35231(12) -0.15645(10)
H2 H 0.54906(6) 0.28720(14) -0.15779(10)
H3 H 0.55479(6) 0.13230(14) -0.09226(10)
H4 H 0.57824(7) 0.07021(12) -0.15306(8)
H5 H 0.59834(6) 0.17640(14) -0.24353(9)
H6 H 0.64383(7) 0.25131(11) -0.22983(10)
H7 H 0.65132(6) 0.13551(12) -0.21625(11)
H8 H 0.54647(6) 0.28693(12) -0.03661(10)
H9 H 0.55648(7) 0.39842(11) -0.05842(11)
H10 H 0.63516(6) 0.28950(14) 0.08932(9)
H11 H 0.57693(6) 0.29627(14) 0.07384(10)
H12 H 0.61097(6) 0.47580(13) 0.02122(10)
H13 H 0.66668(6) 0.43541(14) 0.02948(9)
H14 H 0.64456(7) 0.46802(13) -0.04627(8)
H15 H 0.57321(6) 0.14598(14) 0.02070(10)
H16 H 0.60939(7) 0.12836(13) 0.08662(8)
H17 H 0.64069(6) 0.01177(13) -0.08106(9)
H18 H 0.59415(6) 0.00875(12) -0.03223(9)
H19 H 0.66496(7) 0.00732(12) 0.06265(9)
H20 H 0.70425(6) 0.02705(13) 0.00296(9)
H21 H 0.70161(7) 0.10075(13) 0.06838(9)
C12 C 0.851724(32) 0.40240(10) -0.26464(6)
C13 C 0.65395(4) 0.45285(10) -0.33803(6)
C14 C 0.841336(32) 0.53218(9) -0.16653(6)
C15 C 0.767981(30) 0.62743(6) -0.13531(5)
C16 C 0.712254(30) 0.61770(6) -0.14183(5)
C17 C 0.649715(33) 0.57529(10) -0.23236(6)
N7 N 0.70350(13) 0.13118(17) -0.14028(11)
C18 C 0.887549(31) 0.34890(9) -0.30456(6)
C19 C 0.871400(33) 0.46823(9) -0.20948(6)
C20 C 0.628484(35) 0.52390(10) -0.29404(6)
C21 C 0.629279(34) 0.41835(10) -0.40067(5)
H22 H 0.85891(6) 0.57009(17) -0.12956(11)
H23 H 0.77811(7) 0.69133(11) -0.15476(10)
H24 H 0.77882(7) 0.62505(14) -0.08554(8)
H25 H 0.70056(7) 0.57859(13) -0.10214(8)
H26 H 0.69722(7) 0.68336(11) -0.13984(11)
H27 H 0.62724(6) 0.61586(18) -0.20535(10)
H28 H 0.87553(6) 0.30417(16) -0.34182(11)
C22 C 0.938197(31) 0.36184(9) -0.29327(6)
C23 C 0.925224(31) 0.47936(9) -0.20009(6)
C24 C 0.577775(34) 0.54901(10) -0.31658(5)
C25 C 0.580726(34) 0.44604(10) -0.41997(5)
H29 H 0.64716(7) 0.37461(17) -0.43169(9)
H30 H 0.96114(6) 0.32498(17) -0.32193(11)
C26 C 0.957945(32) 0.42780(9) -0.24046(6)
H31 H 0.93860(6) 0.52449(16) -0.16401(11)
H32 H 0.55927(6) 0.59489(16) -0.28791(10)
C27 C 0.554323(34) 0.51093(10) -0.37726(5)
H33 H 0.56501(6) 0.42107(19) -0.46367(9)
H34 H 0.99393(5) 0.43614(19) -0.23305(13)
H35 H 0.51997(6) 0.52927(19) -0.39027(11)
Os1C Os 0.752046(28) -0.02401(6) -0.25254(5)
C11C C 0.77881(6) 0.57424(10) -0.31828(7)
Cl1 Cl 0.91635(4) 0.22400(7) -0.46621(5)
O3 O 0.92844(10) 0.28478(15) -0.40708(9)
O4 O 0.91984(11) 0.11997(11) -0.45208(15)
O5 O 0.86689(6) 0.24231(20) -0.49350(14)
O6 O 0.94980(7) 0.24290(20) -0.52283(9)
loop_
_geom_bond_atom_site_label_1
_geom_bond_atom_site_label_2
_geom_bond_site_symmetry_1
_geom_bond_site_symmetry_2
N1 Cu1 1_555 1_555
Cu1 N2 1_555 1_555
C1 N1 1_555 1_555
N2 C2 1_555 1_555
N3 Cu1 1_555 1_555
N4 Cu1 1_555 1_555
Os1 C1 1_555 1_555
C2 C5 1_555 1_555
C3 N2 1_555 1_555
C4 N2 1_555 1_555
C5 N3 1_555 1_555
C6 N3 1_555 1_555
C7 N3 1_555 1_555
C8 N4 1_555 1_555
C9 N4 1_555 1_555
C10 N4 1_555 1_555
O1 Os1 1_555 1_555
O2 Os1 1_555 1_555
N5 Os1 1_555 1_555
N6 Os1 1_555 1_555
C11 N7 1_555 1_555
H1 C2 1_555 1_555
H2 C2 1_555 1_555
H3 C3 1_555 1_555
H4 C3 1_555 1_555
H5 C4 1_555 1_555
H6 C4 1_555 1_555
H7 C4 1_555 1_555
H8 C5 1_555 1_555
H9 C5 1_555 1_555
H10 C6 1_555 1_555
H11 C6 1_555 1_555
H12 C7 1_555 1_555
H13 C7 1_555 1_555
H14 C7 1_555 1_555
H15 C8 1_555 1_555
H16 C8 1_555 1_555
H17 C9 1_555 1_555
H18 C9 1_555 1_555
H19 C10 1_555 1_555
H20 C10 1_555 1_555
H21 C10 1_555 1_555
C12 O1 1_555 1_555
C13 O2 1_555 1_555
C14 N5 1_555 1_555
C15 N5 1_555 1_555
C16 N6 1_555 1_555
C17 N6 1_555 1_555
N7 Cu1 1_555 1_555
C18 C12 1_555 1_555
C19 C12 1_555 1_555
C20 C13 1_555 1_555
C21 C13 1_555 1_555
H22 C14 1_555 1_555
H23 C15 1_555 1_555
H24 C15 1_555 1_555
H25 C16 1_555 1_555
H26 C16 1_555 1_555
H27 C17 1_555 1_555
H28 C18 1_555 1_555
C22 C18 1_555 1_555
C23 C19 1_555 1_555
C24 C20 1_555 1_555
C25 C21 1_555 1_555
H29 C21 1_555 1_555
H30 C22 1_555 1_555
C26 C22 1_555 1_555
H31 C23 1_555 1_555
H32 C24 1_555 1_555
C27 C24 1_555 1_555
H33 C25 1_555 1_555
H34 C26 1_555 1_555
H35 C27 1_555 1_555
Cl1 O3 1_555 1_555
O4 Cl1 1_555 1_555
O5 Cl1 1_555 1_555
O6 Cl1 1_555 1_555
Os1C C11 1_555 1_555
C11C Os1 1_555 1_555
C3 C9 1_555 1_555
C6 C8 1_555 1_555
C14 C19 1_555 1_555
C15 C16 1_555 1_555
C17 C20 1_555 1_555
C23 C26 1_555 1_555
C25 C27 1_555 1_555

#END
