
#######################################################################
#
#                 Cambridge Crystallographic Data Centre
#                                CCDC 
#
#######################################################################
#
# If this CIF has been generated from an entry in the Cambridge 
# Structural Database, then it will include bibliographic, chemical, 
# crystal, experimental, refinement or atomic coordinate data resulting 
# from the CCDC's data processing and validation procedures.
#
#######################################################################

data_ASEKUE
_symmetry_cell_setting           monoclinic
_symmetry_space_group_name_H-M   'P 21/c'
_symmetry_Int_Tables_number      14
_space_group_name_Hall           '-P 2ybc'
loop_
_symmetry_equiv_pos_site_id
_symmetry_equiv_pos_as_xyz
1 x,y,z
2 x,1/2-y,1/2+z
3 -x,-y,-z
4 -x,1/2+y,1/2-z
_cell_length_a                   8.976(3)
_cell_length_b                   18.493(5)
_cell_length_c                   17.312(5)
_cell_angle_alpha                90
_cell_angle_beta                 104.827(6)
_cell_angle_gamma                90
_cell_volume                     2777.99
loop_
_atom_site_label
_atom_site_type_symbol
_atom_site_fract_x
_atom_site_fract_y
_atom_site_fract_z
Zn1 Zn 0.28342(6) 0.83538(3) 0.66614(3)
S1 S 0.1879(5) 0.59034(13) 0.68755(17)
S2 S 0.5708(5) 0.9129(2) 0.91236(15)
N1 N 0.4189(4) 0.8538(2) 0.5911(2)
N2 N 0.3939(4) 0.81840(19) 0.5198(2)
H1 H 0.3265 0.7848 0.5048
N3 N 1.0869(4) 0.8899(2) 0.6200(2)
N4 N 1.0802(4) 0.9628(2) 0.6322(2)
H2 H 1.1538 0.9876 0.6620
N5 N 0.2459(6) 0.7327(3) 0.6701(3)
N6 N 0.3765(6) 0.8741(3) 0.7708(3)
C1 C 0.5906(5) 0.9518(3) 0.6594(3)
H3 H 0.5371 0.9430 0.6999
H4 H 0.5731 1.0008 0.6410
H5 H 0.6990 0.9442 0.6813
C2 C 0.5323(5) 0.9011(2) 0.5909(3)
C3 C 0.5774(5) 0.8954(2) 0.5203(3)
C4 C 0.4861(5) 0.8420(3) 0.4762(3)
C5 C 0.4789(7) 0.8114(3) 0.3948(3)
H6 H 0.4015 0.7744 0.3824
H7 H 0.5772 0.7911 0.3944
H8 H 0.4534 0.8492 0.3556
C6 C 0.6998(5) 0.9395(3) 0.4964(3)
H9 H 0.7049 0.9242 0.4436
H10 H 0.6680 0.9897 0.4926
C7 C 0.9141(6) 0.7975(3) 0.5412(4)
H11 H 0.9996 0.7667 0.5650
H12 H 0.8960 0.7962 0.4841
H13 H 0.8238 0.7809 0.5559
C8 C 0.9498(5) 0.8732(2) 0.5701(3)
C9 C 0.8581(5) 0.9347(2) 0.5512(3)
C10 C 0.9444(5) 0.9907(2) 0.5918(3)
C11 C 0.9107(6) 1.0693(3) 0.5968(3)
H14 H 0.9982 1.0929 0.6312
H15 H 0.8227 1.0752 0.6181
H16 H 0.8896 1.0903 0.5444
C12 C 0.2188(8) 0.6746(4) 0.6778(4)
C13 C 0.4558(8) 0.8892(4) 0.8290(4)
N3_2 N 0.0869(4) 0.8899(2) 0.6200(2)
Zn1_2 Zn 1.28342(6) 0.83538(3) 0.66614(3)
N7 N 0.0845(9) 0.8838(5) 0.9015(6)
C14 C 0.1676(11) 0.8363(6) 0.9429(7)
H17 H 0.2530 0.8578 0.9773
C15 C -0.0167(17) 0.8710(11) 0.8308(9)
H18 H -0.0282 0.8198 0.8224
H19 H 0.0205 0.8922 0.7887
H20 H -0.1146 0.8918 0.8309
C16 C 0.107(2) 0.9628(9) 0.9164(12)
H21 H 0.1765 0.9705 0.9680
H22 H 0.0099 0.9852 0.9146
H23 H 0.1501 0.9838 0.8761
O1 O 0.1719(6) 0.7777(3) 0.9515(4)
N8 N 0.6635(7) 0.6397(4) 0.6892(4)
C17 C 0.6518(8) 0.5806(4) 0.7280(5)
H24 H 0.5863 0.5457 0.6988
C18 C 0.5889(14) 0.6536(6) 0.6076(5)
H25 H 0.5348 0.6110 0.5840
H26 H 0.6644 0.6664 0.5795
H27 H 0.5171 0.6926 0.6043
C19 C 0.7559(18) 0.7003(6) 0.7354(8)
H28 H 0.8018 0.6845 0.7891
H29 H 0.6897 0.7408 0.7364
H30 H 0.8354 0.7142 0.7104
O2 O 0.7117(5) 0.5648(2) 0.7945(3)
loop_
_geom_bond_atom_site_label_1
_geom_bond_atom_site_label_2
_geom_bond_site_symmetry_1
_geom_bond_site_symmetry_2
Zn1 N1 1_555 1_555
S1 C12 1_555 1_555
S2 C13 1_555 1_555
N1 N2 1_555 1_555
N2 H1 1_555 1_555
N3 N4 1_555 1_555
N4 H2 1_555 1_555
N5 Zn1 1_555 1_555
N6 Zn1 1_555 1_555
N7 C14 1_555 1_555
N8 C17 1_555 1_555
C1 H3 1_555 1_555
H4 C1 1_555 1_555
H5 C1 1_555 1_555
C2 N1 1_555 1_555
C3 C2 1_555 1_555
C4 N2 1_555 1_555
C5 C4 1_555 1_555
H6 C5 1_555 1_555
H7 C5 1_555 1_555
H8 C5 1_555 1_555
C6 C3 1_555 1_555
H9 C6 1_555 1_555
H10 C6 1_555 1_555
C7 H11 1_555 1_555
H12 C7 1_555 1_555
H13 C7 1_555 1_555
C8 N3 1_555 1_555
C9 C6 1_555 1_555
C10 N4 1_555 1_555
C11 C10 1_555 1_555
H14 C11 1_555 1_555
H15 C11 1_555 1_555
H16 C11 1_555 1_555
C12 N5 1_555 1_555
C13 N6 1_555 1_555
C14 H17 1_555 1_555
C15 N7 1_555 1_555
H18 C15 1_555 1_555
H19 C15 1_555 1_555
H20 C15 1_555 1_555
C16 N7 1_555 1_555
H21 C16 1_555 1_555
H22 C16 1_555 1_555
H23 C16 1_555 1_555
C17 H24 1_555 1_555
C18 N8 1_555 1_555
H25 C18 1_555 1_555
H26 C18 1_555 1_555
H27 C18 1_555 1_555
C19 N8 1_555 1_555
H28 C19 1_555 1_555
H29 C19 1_555 1_555
H30 C19 1_555 1_555
O1 C14 1_555 1_555
O2 C17 1_555 1_555
N3_2 Zn1 1_555 1_555
Zn1_2 N3 1_555 1_555
C1 C2 1_555 1_555
C3 C4 1_555 1_555
C7 C8 1_555 1_555
C8 C9 1_555 1_555
C9 C10 1_555 1_555

#END
