
#######################################################################
#
#                 Cambridge Crystallographic Data Centre
#                                CCDC 
#
#######################################################################
#
# If this CIF has been generated from an entry in the Cambridge 
# Structural Database, then it will include bibliographic, chemical, 
# crystal, experimental, refinement or atomic coordinate data resulting 
# from the CCDC's data processing and validation procedures.
#
#######################################################################

data_ASELOZ
_symmetry_cell_setting           monoclinic
_symmetry_space_group_name_H-M   'C 2/c'
_symmetry_Int_Tables_number      15
_space_group_name_Hall           '-C 2yn'
loop_
_symmetry_equiv_pos_site_id
_symmetry_equiv_pos_as_xyz
1 x,y,z
2 1/2+x,1/2+y,z
3 x,-y,1/2+z
4 1/2+x,1/2-y,1/2+z
5 -x,-y,-z
6 1/2-x,1/2-y,-z
7 -x,y,1/2-z
8 1/2-x,1/2+y,1/2-z
_cell_length_a                   11.846(3)
_cell_length_b                   21.302(6)
_cell_length_c                   11.330(3)
_cell_angle_alpha                90
_cell_angle_beta                 104.171(4)
_cell_angle_gamma                90
_cell_volume                     2772.05
loop_
_atom_site_label
_atom_site_type_symbol
_atom_site_fract_x
_atom_site_fract_y
_atom_site_fract_z
Cl1 Cl 0.5605(3) 0.36732(10) -0.1195(2)
C14 C 0.5584(15) 0.3343(5) -0.238(2)
H13 H 0.5899 0.3591 -0.2938
H14 H 0.5926 0.2927 -0.2273
Cl1F Cl 0.4395(3) 0.36732(10) -0.3805(2)
C14F C 0.4416(15) 0.3343(5) -0.262(2)
H13F H 0.4101 0.3591 -0.2062
H14F H 0.4074 0.2927 -0.2727
Cu1 Cu 0.5000 0.22848(2) 0.2500
P1 P 0.39637(6) 0.18479(3) 0.07958(7)
O1 O 0.5763(2) 0.32084(13) 0.2184(3)
O2 O 0.5000 0.40884(17) 0.2500
N1 N 0.5000 0.35171(19) 0.2500
C1 C 0.3072(2) 0.11771(14) 0.0964(3)
C2 C 0.3182(3) 0.09246(17) 0.2107(3)
H1 H 0.361(3) 0.1069(18) 0.275(4)
C3 C 0.2519(4) 0.0419(2) 0.2280(5)
H2 H 0.260(4) 0.0318(19) 0.296(4)
C4 C 0.1732(3) 0.0160(2) 0.1315(5)
H3 H 0.133(4) -0.017(2) 0.138(4)
C5 C 0.1609(3) 0.0405(2) 0.0177(5)
H4 H 0.118(4) 0.024(2) -0.036(4)
C6 C 0.2271(3) 0.09098(16) -0.0013(4)
H5 H 0.224(3) 0.1068(18) -0.083(4)
C7 C 0.4955(2) 0.15714(14) -0.0088(3)
C8 C 0.5043(3) 0.09558(19) -0.0428(4)
H6 H 0.459(4) 0.068(2) -0.024(4)
C9 C 0.5875(5) 0.0788(3) -0.1027(5)
H7 H 0.582(4) 0.052(2) -0.128(4)
C10 C 0.6606(4) 0.1217(3) -0.1307(4)
H8 H 0.711(4) 0.112(2) -0.162(4)
C11 C 0.6524(4) 0.1821(3) -0.0995(5)
H9 H 0.701(4) 0.208(2) -0.107(4)
C12 C 0.5722(3) 0.2000(2) -0.0365(4)
H10 H 0.576(4) 0.236(2) -0.004(4)
C13 C 0.2976(3) 0.23690(15) -0.0278(3)
H11 H 0.348(3) 0.2672(14) -0.047(3)
H12 H 0.267(3) 0.2168(14) -0.100(3)
C13E C 0.2024(3) 0.26310(15) 0.0278(3)
P1E P 0.10363(6) 0.31521(3) -0.07958(7)
C1E C 0.1928(2) 0.38229(14) -0.0964(3)
C2E C 0.1818(3) 0.40754(17) -0.2107(3)
H1E H 0.139(3) 0.3931(18) -0.275(4)
C3E C 0.2481(4) 0.4581(2) -0.2280(5)
H2E H 0.240(4) 0.4682(19) -0.296(4)
C4E C 0.3268(3) 0.4840(2) -0.1315(5)
H3E H 0.367(4) 0.517(2) -0.138(4)
C5E C 0.3391(3) 0.4595(2) -0.0177(5)
H4E H 0.382(4) 0.476(2) 0.036(4)
C6E C 0.2729(3) 0.40902(16) 0.0013(4)
H5E H 0.276(3) 0.3932(18) 0.083(4)
C7E C 0.0045(2) 0.34286(14) 0.0088(3)
C8E C -0.0043(3) 0.40442(19) 0.0428(4)
H6E H 0.041(4) 0.432(2) 0.024(4)
C9E C -0.0875(5) 0.4212(3) 0.1027(5)
H7E H -0.082(4) 0.448(2) 0.128(4)
C10E C -0.1606(4) 0.3783(3) 0.1307(4)
H8E H -0.211(4) 0.388(2) 0.162(4)
C11E C -0.1524(4) 0.3179(3) 0.0995(5)
H9E H -0.201(4) 0.292(2) 0.107(4)
C12E C -0.0722(3) 0.3000(2) 0.0365(4)
H10E H -0.076(4) 0.264(2) 0.004(4)
H11E H 0.152(3) 0.2328(14) 0.047(3)
H12E H 0.233(3) 0.2832(14) 0.100(3)
O1F O 0.4237(2) 0.32084(13) 0.2816(3)
P1F P 0.60363(6) 0.18479(3) 0.42042(7)
Cu1C Cu 0.0000 0.27152(2) -0.2500
loop_
_geom_bond_atom_site_label_1
_geom_bond_atom_site_label_2
_geom_bond_site_symmetry_1
_geom_bond_site_symmetry_2
Cu1 P1 1_555 1_555
P1 C1 1_555 1_555
Cl1 C14 1_555 1_555
O1 Cu1 1_555 1_555
O2 N1 1_555 1_555
N1 O1 1_555 1_555
C1 C2 1_555 1_555
C2 H1 1_555 1_555
C3 C2 1_555 1_555
H2 C3 1_555 1_555
C4 C3 1_555 1_555
H3 C4 1_555 1_555
C5 C4 1_555 1_555
H4 C5 1_555 1_555
C6 C1 1_555 1_555
H5 C6 1_555 1_555
C7 P1 1_555 1_555
C8 C7 1_555 1_555
H6 C8 1_555 1_555
C9 C8 1_555 1_555
H7 C9 1_555 1_555
C10 C9 1_555 1_555
H8 C10 1_555 1_555
C11 C10 1_555 1_555
H9 C11 1_555 1_555
C12 C7 1_555 1_555
H10 C12 1_555 1_555
C13 P1 1_555 1_555
H11 C13 1_555 1_555
H12 C13 1_555 1_555
C14 H13 1_555 1_555
H14 C14 1_555 1_555
C13E C13 1_555 1_555
P1E C13E 1_555 1_555
C1E P1E 1_555 1_555
C2E C1E 1_555 1_555
H1E C2E 1_555 1_555
C3E C2E 1_555 1_555
H2E C3E 1_555 1_555
C4E C3E 1_555 1_555
H3E C4E 1_555 1_555
C5E C4E 1_555 1_555
H4E C5E 1_555 1_555
C6E C1E 1_555 1_555
H5E C6E 1_555 1_555
C7E P1E 1_555 1_555
C8E C7E 1_555 1_555
H6E C8E 1_555 1_555
C9E C8E 1_555 1_555
H7E C9E 1_555 1_555
C10E C9E 1_555 1_555
H8E C10E 1_555 1_555
C11E C10E 1_555 1_555
H9E C11E 1_555 1_555
C12E C7E 1_555 1_555
H10E C12E 1_555 1_555
H11E C13E 1_555 1_555
H12E C13E 1_555 1_555
Cl1F C14 1_555 1_555
C14F Cl1 1_555 1_555
H13F C14F 1_555 1_555
H14F C14F 1_555 1_555
O1F Cu1 1_555 1_555
P1F Cu1 1_555 1_555
Cu1C P1E 1_555 1_555
N1 O1F 1_555 1_555
C5 C6 1_555 1_555
C11 C12 1_555 1_555
C14 C14F 1_555 1_555
C5E C6E 1_555 1_555
C11E C12E 1_555 1_555
Cl1F C14F 1_555 1_555

#END
