
#######################################################################
#
#                 Cambridge Crystallographic Data Centre
#                                CCDC 
#
#######################################################################
#
# If this CIF has been generated from an entry in the Cambridge 
# Structural Database, then it will include bibliographic, chemical, 
# crystal, experimental, refinement or atomic coordinate data resulting 
# from the CCDC's data processing and validation procedures.
#
#######################################################################

data_ASEMEQ
_symmetry_cell_setting           monoclinic
_symmetry_space_group_name_H-M   'P 21/n'
_symmetry_Int_Tables_number      14
_space_group_name_Hall           '-P 2yn'
loop_
_symmetry_equiv_pos_site_id
_symmetry_equiv_pos_as_xyz
1 x,y,z
2 1/2+x,1/2-y,1/2+z
3 -x,-y,-z
4 1/2-x,1/2+y,1/2-z
_cell_length_a                   10.017(2)
_cell_length_b                   16.324(3)
_cell_length_c                   11.457(2)
_cell_angle_alpha                90
_cell_angle_beta                 112.50(3)
_cell_angle_gamma                90
_cell_volume                     1730.81
loop_
_atom_site_label
_atom_site_type_symbol
_atom_site_fract_x
_atom_site_fract_y
_atom_site_fract_z
Cd1 Cd 0.203045(13) 0.037945(8) 0.372734(12)
O1 O 0.22066(13) 0.14157(8) 0.23268(12)
N1 N 0.21444(17) -0.07081(10) 0.24427(16)
O2 O 0.42106(13) 0.09968(8) 0.38250(12)
C1 C 0.43935(18) 0.20094(10) 0.23887(16)
O3 O 0.79938(14) 0.38217(11) 0.15927(15)
C2 C 0.35502(19) 0.14413(10) 0.28740(17)
C3 C 0.59239(18) 0.30576(11) 0.14318(16)
C4 C 0.0915(2) -0.08865(11) 0.14559(18)
C5 C 0.6625(2) 0.26371(12) 0.25511(19)
C6 C 0.5866(2) 0.21130(12) 0.30177(19)
C7 C 0.3691(2) 0.24493(13) 0.12903(19)
N2 N -0.02761(17) 0.00745(10) 0.23234(15)
C8 C 0.6746(2) 0.36234(11) 0.09109(19)
C9 C 0.4448(2) 0.29596(13) 0.08149(19)
C10 C -0.1441(2) 0.04823(15) 0.2304(2)
C11 C -0.0405(2) -0.04446(11) 0.13825(18)
C12 C 0.0906(3) -0.14659(13) 0.0569(2)
C13 C -0.1730(3) -0.05479(15) 0.0396(2)
C14 C -0.2912(3) -0.01226(19) 0.0389(3)
C15 C -0.2776(3) 0.03991(18) 0.1359(3)
C16 C 0.2170(3) -0.18695(15) 0.0719(3)
C17 C 0.3355(3) -0.11041(14) 0.2571(3)
C18 C 0.3399(3) -0.16904(16) 0.1725(3)
O4 O 0.31916(18) -0.02750(11) 0.55873(15)
O5 O 0.60732(15) 0.38508(9) -0.02148(12)
H1 H 0.399(2) 0.3253(14) 0.009(2)
H2 H 0.762(2) 0.2719(12) 0.3012(19)
H3 H 0.267(2) 0.2383(13) 0.084(2)
H4 H -0.181(2) -0.0882(12) -0.0176(19)
H5 H 0.394(3) -0.0494(13) 0.574(2)
H6 H 0.329(3) 0.0093(16) 0.603(2)
H7 H -0.134(2) 0.0799(13) 0.294(2)
H8 H -0.381(3) -0.0242(17) -0.032(3)
H9 H 0.633(3) 0.1833(14) 0.372(2)
H10 H 0.008(2) -0.1560(12) -0.014(2)
H11 H 0.219(3) -0.2203(15) 0.008(2)
H12 H -0.355(3) 0.0730(15) 0.136(2)
H13 H 0.424(2) -0.1944(14) 0.192(2)
H14 H 0.417(2) -0.0996(14) 0.327(2)
O5A O 0.10732(15) 0.11492(9) 0.47852(12)
Cd1A Cd 0.703045(13) 0.462055(8) -0.127266(12)
loop_
_geom_bond_atom_site_label_1
_geom_bond_atom_site_label_2
_geom_bond_site_symmetry_1
_geom_bond_site_symmetry_2
Cd1 O1 1_555 1_555
O1 C2 1_555 1_555
N1 Cd1 1_555 1_555
O2 Cd1 1_555 1_555
C1 C2 1_555 1_555
O3 C8 1_555 1_555
C2 O2 1_555 1_555
C3 C5 1_555 1_555
C4 N1 1_555 1_555
C5 C6 1_555 1_555
C6 C1 1_555 1_555
C7 C1 1_555 1_555
N2 Cd1 1_555 1_555
C8 C3 1_555 1_555
C9 C3 1_555 1_555
C10 N2 1_555 1_555
C11 C4 1_555 1_555
C12 C4 1_555 1_555
C13 C11 1_555 1_555
C14 C13 1_555 1_555
C15 C10 1_555 1_555
C16 C12 1_555 1_555
C17 N1 1_555 1_555
C18 C16 1_555 1_555
O4 Cd1 1_555 1_555
O5 C8 1_555 1_555
H1 C9 1_555 1_555
H2 C5 1_555 1_555
H3 C7 1_555 1_555
H4 C13 1_555 1_555
H5 O4 1_555 1_555
H6 O4 1_555 1_555
H7 C10 1_555 1_555
H8 C14 1_555 1_555
H9 C6 1_555 1_555
H10 C12 1_555 1_555
H11 C16 1_555 1_555
H12 C15 1_555 1_555
H13 C18 1_555 1_555
H14 C17 1_555 1_555
O5A Cd1 1_555 1_555
Cd1A O5 1_555 1_555
C7 C9 1_555 1_555
N2 C11 1_555 1_555
C14 C15 1_555 1_555
C17 C18 1_555 1_555

#END
