
#######################################################################
#
#                 Cambridge Crystallographic Data Centre
#                                CCDC 
#
#######################################################################
#
# If this CIF has been generated from an entry in the Cambridge 
# Structural Database, then it will include bibliographic, chemical, 
# crystal, experimental, refinement or atomic coordinate data resulting 
# from the CCDC's data processing and validation procedures.
#
#######################################################################

data_ASEMOA
_symmetry_cell_setting           monoclinic
_symmetry_space_group_name_H-M   'C 2/c'
_symmetry_Int_Tables_number      15
_space_group_name_Hall           '-C 2yn'
loop_
_symmetry_equiv_pos_site_id
_symmetry_equiv_pos_as_xyz
1 x,y,z
2 1/2+x,1/2+y,z
3 x,-y,1/2+z
4 1/2+x,1/2-y,1/2+z
5 -x,-y,-z
6 1/2-x,1/2-y,-z
7 -x,y,1/2-z
8 1/2-x,1/2+y,1/2-z
_cell_length_a                   9.6847(7)
_cell_length_b                   17.3633(13)
_cell_length_c                   19.8489(14)
_cell_angle_alpha                90
_cell_angle_beta                 98.0960(10)
_cell_angle_gamma                90
_cell_volume                     3304.49
loop_
_atom_site_label
_atom_site_type_symbol
_atom_site_fract_x
_atom_site_fract_y
_atom_site_fract_z
Cd1 Cd 0.96302(7) 0.13194(4) 0.90807(4)
Cd2 Cd 1.0000 0.25518(5) 0.7500
C1 C 0.9581(8) 0.3842(5) 0.9116(4)
C2 C 0.8370(9) 0.4275(5) 0.9097(4)
H1 H 0.7516 0.4027 0.9084
C3 C 0.8418(8) 0.5079(5) 0.9096(4)
C4 C 0.9720(9) 0.5449(5) 0.9164(4)
H2 H 0.9770 0.5983 0.9197
C5 C 1.0931(8) 0.5017(5) 0.9183(4)
C6 C 1.0848(9) 0.4209(5) 0.9151(4)
H3 H 1.1657 0.3920 0.9153
C7 C 0.9442(9) 0.2979(5) 0.9119(5)
C8 C 0.7115(10) 0.5558(6) 0.9020(5)
C9 C 1.2296(8) 0.5437(5) 0.9202(4)
C10 C 1.0000 0.4963(7) 0.7500
C11 C 0.8750(9) 0.5377(5) 0.7460(4)
H4 H 0.7911 0.5110 0.7431
C12 C 0.8738(9) 0.6173(5) 0.7463(5)
C13 C 1.0000 0.6572(7) 0.7500
H5 H 1.0000 0.7108 0.7500
C14 C 1.0000 0.4116(7) 0.7500
C15 C 0.7375(9) 0.6592(5) 0.7420(4)
O1 O 1.0095(7) 0.2583(3) 0.8724(3)
O2 O 0.8745(6) 0.2672(4) 0.9526(3)
O3 O 0.6043(6) 0.5289(4) 0.8677(4)
O4 O 0.7123(7) 0.6205(4) 0.9300(4)
O5 O 1.3406(6) 0.5051(4) 0.9221(3)
O6 O 1.2290(6) 0.6152(3) 0.9176(3)
O7 O 1.1137(6) 0.3755(3) 0.7561(3)
O8 O 0.6277(6) 0.6250(4) 0.7142(3)
O9 O 0.7344(7) 0.7245(4) 0.7675(3)
O11 O 1.0055(7) 0.1254(4) 1.0277(3)
C12F C 1.1262(9) 0.6173(5) 0.7537(5)
C11F C 1.1250(9) 0.5377(5) 0.7540(4)
O7F O 0.8863(6) 0.3755(3) 0.7439(3)
H4F H 1.2089 0.5110 0.7569
C15F C 1.2625(9) 0.6592(5) 0.7580(4)
O8F O 1.3723(6) 0.6250(4) 0.7858(3)
O9F O 1.2656(7) 0.7245(4) 0.7325(3)
C1F C 1.0419(8) 0.3842(5) 0.5884(4)
C2F C 1.1630(9) 0.4275(5) 0.5903(4)
H1F H 1.2484 0.4027 0.5916
C3F C 1.1582(8) 0.5079(5) 0.5904(4)
C4F C 1.0280(9) 0.5449(5) 0.5836(4)
H2F H 1.0230 0.5983 0.5803
C5F C 0.9069(8) 0.5017(5) 0.5817(4)
C6F C 0.9152(9) 0.4209(5) 0.5849(4)
H3F H 0.8343 0.3920 0.5847
C7F C 1.0558(9) 0.2979(5) 0.5881(5)
C8F C 1.2885(10) 0.5558(6) 0.5980(5)
C9F C 0.7704(8) 0.5437(5) 0.5798(4)
O1F O 0.9905(7) 0.2583(3) 0.6276(3)
O2F O 1.1255(6) 0.2672(4) 0.5474(3)
O3F O 1.3957(6) 0.5289(4) 0.6323(4)
O4F O 1.2877(7) 0.6205(4) 0.5700(4)
O5F O 0.6594(6) 0.5051(4) 0.5779(3)
O6F O 0.7710(6) 0.6152(3) 0.5824(3)
Cd1F Cd 1.03698(7) 0.13194(4) 0.59193(4)
O11F O 0.9945(7) 0.1254(4) 0.4723(3)
O3A O 1.1043(6) 0.0289(4) 0.8677(4)
O4A O 1.2123(7) 0.1205(4) 0.9300(4)
O5A O 0.8406(6) 0.0051(4) 0.9221(3)
O6A O 0.7290(6) 0.1152(3) 0.9176(3)
O8G O 0.8723(6) 0.1250(4) 0.7858(3)
O9A O 1.2344(7) 0.2245(4) 0.7675(3)
O9G O 0.7656(7) 0.2245(4) 0.7325(3)
Cd1A Cd 0.46302(7) 0.63194(4) 0.90807(4)
Cd1A_2 Cd 1.46302(7) 0.63194(4) 0.90807(4)
Cd1G Cd 0.53698(7) 0.63194(4) 0.59193(4)
Cd2A Cd 0.5000 0.75518(5) 0.7500
Cd2A_2 Cd 1.5000 0.75518(5) 0.7500
Cd1G_2 Cd 1.53698(7) 0.63194(4) 0.59193(4)
O3G O 0.8957(6) 0.0289(4) 0.6323(4)
O4G O 0.7877(7) 0.1205(4) 0.5700(4)
O5G O 1.1594(6) 0.0051(4) 0.5779(3)
O6G O 1.2710(6) 0.1152(3) 0.5824(3)
O8A O 1.1277(6) 0.1250(4) 0.7142(3)
Na1 Na 0.8697(4) 0.2617(2) 1.0702(2)
Na2 Na 1.0000 0.0156(3) 0.7500
O10 O 1.1246(7) 0.2552(4) 1.0922(4)
O12 O 0.8867(7) -0.0860(4) 0.8062(3)
O13 O 0.8841(7) 0.1904(4) 1.1699(3)
loop_
_geom_bond_atom_site_label_1
_geom_bond_atom_site_label_2
_geom_bond_site_symmetry_1
_geom_bond_site_symmetry_2
Cd1 O1 1_555 1_555
Cd2 O1 1_555 1_555
C1 C2 1_555 1_555
C2 H1 1_555 1_555
C3 C2 1_555 1_555
C4 C3 1_555 1_555
H2 C4 1_555 1_555
C5 C4 1_555 1_555
C6 C1 1_555 1_555
H3 C6 1_555 1_555
C7 C1 1_555 1_555
C8 C3 1_555 1_555
C9 C5 1_555 1_555
C10 C11 1_555 1_555
C11 H4 1_555 1_555
C12 C11 1_555 1_555
C13 C12 1_555 1_555
H5 C13 1_555 1_555
C14 C10 1_555 1_555
C15 C12 1_555 1_555
O1 C7 1_555 1_555
O2 C7 1_555 1_555
O3 C8 1_555 1_555
O4 C8 1_555 1_555
O5 C9 1_555 1_555
O6 C9 1_555 1_555
O7 Cd2 1_555 1_555
O8 C15 1_555 1_555
O9 C15 1_555 1_555
O11 Cd1 1_555 1_555
C12F C13 1_555 1_555
C11F C10 1_555 1_555
O7F Cd2 1_555 1_555
H4F C11F 1_555 1_555
C15F C12F 1_555 1_555
O8F C15F 1_555 1_555
O9F C15F 1_555 1_555
C1F C2F 1_555 1_555
C2F H1F 1_555 1_555
C3F C2F 1_555 1_555
C4F C3F 1_555 1_555
H2F C4F 1_555 1_555
C5F C4F 1_555 1_555
C6F C1F 1_555 1_555
H3F C6F 1_555 1_555
C7F C1F 1_555 1_555
C8F C3F 1_555 1_555
C9F C5F 1_555 1_555
O1F Cd2 1_555 1_555
O2F C7F 1_555 1_555
O3F C8F 1_555 1_555
O4F C8F 1_555 1_555
O5F C9F 1_555 1_555
O6F C9F 1_555 1_555
Cd1F O1F 1_555 1_555
O11F Cd1F 1_555 1_555
O3A Cd1 1_555 1_555
O4A Cd1 1_555 1_555
O5A Cd1 1_555 1_555
O6A Cd1 1_555 1_555
O8G Cd1 1_555 1_555
O9A Cd2 1_555 1_555
O9G Cd2 1_555 1_555
Cd1A O3 1_555 1_555
Cd1A_2 O5 1_555 1_555
Cd1G O8 1_555 1_555
Cd2A O9 1_555 1_555
Cd2A_2 O9F 1_555 1_555
Cd1G_2 O3F 1_555 1_555
O3G Cd1F 1_555 1_555
O4G Cd1F 1_555 1_555
O5G Cd1F 1_555 1_555
O6G Cd1F 1_555 1_555
O8A Cd1F 1_555 1_555
C5 C6 1_555 1_555
C14 O7 1_555 1_555
C14 O7F 1_555 1_555
O4 Cd1A 1_555 1_555
O6 Cd1A_2 1_555 1_555
C12F C11F 1_555 1_555
O8F Cd1A_2 1_555 1_555
C5F C6F 1_555 1_555
C7F O1F 1_555 1_555
O4F Cd1G_2 1_555 1_555
O5F Cd1G 1_555 1_555
O6F Cd1G 1_555 1_555

#END
