
#######################################################################
#
#                 Cambridge Crystallographic Data Centre
#                                CCDC 
#
#######################################################################
#
# If this CIF has been generated from an entry in the Cambridge 
# Structural Database, then it will include bibliographic, chemical, 
# crystal, experimental, refinement or atomic coordinate data resulting 
# from the CCDC's data processing and validation procedures.
#
#######################################################################

data_ASENES
_symmetry_cell_setting           monoclinic
_symmetry_space_group_name_H-M   'C 2/c'
_symmetry_Int_Tables_number      15
_space_group_name_Hall           '-C 2yn'
loop_
_symmetry_equiv_pos_site_id
_symmetry_equiv_pos_as_xyz
1 x,y,z
2 -x,y,1/2-z
3 1/2+x,1/2+y,z
4 1/2-x,1/2+y,1/2-z
5 -x,-y,-z
6 x,-y,1/2+z
7 1/2-x,1/2-y,-z
8 1/2+x,1/2-y,1/2+z
_cell_length_a                   19.543(2)
_cell_length_b                   14.719(2)
_cell_length_c                   17.692(2)
_cell_angle_alpha                90
_cell_angle_beta                 105.473(4)
_cell_angle_gamma                90
_cell_volume                     4904.71
loop_
_atom_site_label
_atom_site_type_symbol
_atom_site_fract_x
_atom_site_fract_y
_atom_site_fract_z
C1 C 0.9083(6) 0.5449(11) 0.6281(9)
C2 C 0.9051(5) 0.6035(12) 0.5670(11)
H1 H 0.9036 0.5810 0.5175
C3 C 0.9042(7) 0.7002(13) 0.5802(15)
H2 H 0.9010 0.7384 0.5375
C4 C 0.9078(10) 0.7403(14) 0.6523(14)
C5 C 0.9124(9) 0.6768(12) 0.7116(12)
C6 C 0.9099(6) 0.5863(11) 0.7061(10)
C7 C 0.9135(7) 0.5177(11) 0.7683(11)
H3 H 0.9143 0.4555 0.7592
C8 C 0.9159(8) 0.5560(11) 0.8448(10)
H4 H 0.9197 0.5205 0.8892
C9 C 0.9116(7) 0.7116(13) 0.7836(11)
C10 C 0.9118(6) 0.6521(10) 0.8457(9)
C11 C 0.9173(8) 0.6964(12) 0.9182(10)
H5 H 0.9225 0.6622 0.9635
C12 C 0.9152(10) 0.7883(13) 0.9219(15)
H6 H 0.9170 0.8141 0.9704
C13 C 0.9108(9) 0.8448(16) 0.8618(12)
H7 H 0.9080 0.9074 0.8676
C14 C 0.9105(10) 0.8080(13) 0.7944(10)
C15 C 0.9082(12) 0.8685(9) 0.7334(11)
H8 H 0.9077 0.9307 0.7422
C16 C 0.9065(11) 0.8358(14) 0.6592(10)
H9 H 0.9048 0.8743 0.6170
C17 C 0.9056(7) 0.4455(10) 0.6280(12)
H10 H 0.9220 0.4231 0.5843
H11 H 0.9383 0.4233 0.6759
C18 C 0.7718(5) 0.1285(6) 0.7042(5)
H12 H 0.7715 0.0864 0.6649
C19 C 0.7726(4) 0.1870(5) 0.8154(4)
C20 C 0.7696(4) 0.2072(5) 0.8916(5)
C21 C 0.7663(5) 0.3599(5) 0.8556(5)
H13 H 0.7648 0.4201 0.8710
C22 C 0.7703(5) 0.2586(5) 0.7637(4)
C23 C 0.8373(6) 0.3086(6) 0.6152(6)
H14 H 0.8756 0.2846 0.6572
H15 H 0.8472 0.2931 0.5659
C24 C 0.7692(5) 0.2647(6) 0.6185(5)
H16 H 0.7323 0.3107 0.6090
H17 H 0.7560 0.2204 0.5766
N1 N 0.7661(4) 0.2973(4) 0.9097(4)
N2 N 0.7684(4) 0.3462(4) 0.7805(4)
N3 N 0.7712(4) 0.1465(5) 0.9462(4)
H18 H 0.7700 0.1634 0.9923
H19 H 0.7733 0.0896 0.9358
N4 N 0.7723(4) 0.1057(4) 0.7765(4)
N5 N 0.7718(4) 0.2192(5) 0.6933(3)
N6 N 0.8357(5) 0.4081(5) 0.6223(6)
H20 H 0.8110 0.4252 0.5732
Ag1 Ag 0.76769(4) 0.46930(4) 0.69904(4)
N4C N 0.7277(4) 0.6057(4) 0.7235(4)
Ag1C Ag 0.73231(4) -0.03070(4) 0.80096(4)
N7 N 0.6790(5) 0.5585(5) 0.9759(5)
O1 O 0.6640(4) 0.5347(4) 1.0374(5)
O2 O 0.7392(4) 0.5441(4) 0.9671(4)
O3 O 0.6342(5) 0.5970(8) 0.9227(6)
O4 O 0.0392(16) 0.130(2) 0.6019(18)
O5? O 0.0437(14) 0.2240(19) 0.6455(16)
loop_
_geom_bond_atom_site_label_1
_geom_bond_atom_site_label_2
_geom_bond_site_symmetry_1
_geom_bond_site_symmetry_2
C1 C2 1_555 1_555
C2 H1 1_555 1_555
C3 C2 1_555 1_555
H2 C3 1_555 1_555
C4 C3 1_555 1_555
C5 C4 1_555 1_555
C6 C1 1_555 1_555
C7 C6 1_555 1_555
H3 C7 1_555 1_555
C8 C7 1_555 1_555
H4 C8 1_555 1_555
C9 C5 1_555 1_555
C10 C8 1_555 1_555
C11 C10 1_555 1_555
H5 C11 1_555 1_555
C12 C11 1_555 1_555
H6 C12 1_555 1_555
C13 C12 1_555 1_555
H7 C13 1_555 1_555
C14 C9 1_555 1_555
C15 C14 1_555 1_555
H8 C15 1_555 1_555
C16 C4 1_555 1_555
H9 C16 1_555 1_555
C17 C1 1_555 1_555
H10 C17 1_555 1_555
H11 C17 1_555 1_555
C18 H12 1_555 1_555
C19 C20 1_555 1_555
C20 N1 1_555 1_555
C21 H13 1_555 1_555
C22 C19 1_555 1_555
C23 H14 1_555 1_555
H15 C23 1_555 1_555
C24 C23 1_555 1_555
H16 C24 1_555 1_555
H17 C24 1_555 1_555
N1 C21 1_555 1_555
N2 C21 1_555 1_555
N3 C20 1_555 1_555
H18 N3 1_555 1_555
H19 N3 1_555 1_555
N4 C18 1_555 1_555
N5 C18 1_555 1_555
N6 C17 1_555 1_555
H20 N6 1_555 1_555
Ag1 N2 1_555 1_555
N7 O1 1_555 1_555
O2 N7 1_555 1_555
O3 N7 1_555 1_555
N4C Ag1 1_555 1_555
Ag1C N4 1_555 1_555
C5 C6 1_555 1_555
C9 C10 1_555 1_555
C13 C14 1_555 1_555
C15 C16 1_555 1_555
C19 N4 1_555 1_555
C22 N2 1_555 1_555
C22 N5 1_555 1_555
C23 N6 1_555 1_555
C24 N5 1_555 1_555
N6 Ag1 1_555 1_555

#END
