
#######################################################################
#
#                 Cambridge Crystallographic Data Centre
#                                CCDC 
#
#######################################################################
#
# If this CIF has been generated from an entry in the Cambridge 
# Structural Database, then it will include bibliographic, chemical, 
# crystal, experimental, refinement or atomic coordinate data resulting 
# from the CCDC's data processing and validation procedures.
#
#######################################################################

data_ASEPOD
_symmetry_cell_setting           triclinic
_symmetry_space_group_name_H-M   'P -1'
_symmetry_Int_Tables_number      2
_space_group_name_Hall           '-P 1'
loop_
_symmetry_equiv_pos_site_id
_symmetry_equiv_pos_as_xyz
1 x,y,z
2 -x,-y,-z
_cell_length_a                   8.2705(9)
_cell_length_b                   13.1236(13)
_cell_length_c                   17.0823(18)
_cell_angle_alpha                93.236(2)
_cell_angle_beta                 91.480(2)
_cell_angle_gamma                105.775(2)
_cell_volume                     1779.78
loop_
_atom_site_label
_atom_site_type_symbol
_atom_site_fract_x
_atom_site_fract_y
_atom_site_fract_z
Cu1 Cu 0.42713(8) 0.31473(5) 0.36194(4)
O1 O 0.9994(4) 0.8071(2) 0.46246(19)
O2 O 0.7092(5) 0.0469(3) 0.0424(2)
C1 C 0.6132(7) 0.5394(4) 0.3816(3)
H1 H 0.5442 0.5440 0.3388
C2 C 0.7359(7) 0.6292(4) 0.4089(3)
H2 H 0.7487 0.6927 0.3850
C3 C 0.8387(6) 0.6237(3) 0.4719(3)
C4 C 0.8129(6) 0.5291(3) 0.5070(3)
H3 H 0.8789 0.5240 0.5508
C5 C 0.6881(6) 0.4418(4) 0.4768(3)
H4 H 0.6722 0.3781 0.5008
C6 C 0.9770(6) 0.7165(3) 0.5016(3)
C7 C 1.1376(6) 0.8731(4) 0.5023(3)
C8 C 1.2025(6) 0.9794(3) 0.4745(3)
C9 C 1.1375(7) 1.0073(4) 0.4066(3)
H5 H 1.0495 0.9591 0.3780
C10 C 1.2034(7) 1.1059(4) 0.3820(3)
H6 H 1.1580 1.1230 0.3357
C11 C 1.3891(6) 1.1527(4) 0.4864(3)
H7 H 1.4756 1.2028 0.5145
C12 C 1.3309(6) 1.0555(4) 0.5155(3)
H8 H 1.3767 1.0404 0.5623
C13 C 0.5678(8) 0.1703(4) 0.2548(3)
H9 H 0.5709 0.1349 0.3002
C14 C 0.6164(8) 0.1285(4) 0.1865(3)
H10 H 0.6500 0.0663 0.1862
C15 C 0.6143(7) 0.1797(4) 0.1192(3)
C16 C 0.5617(7) 0.2722(5) 0.1232(3)
H11 H 0.5588 0.3090 0.0786
C17 C 0.5143(7) 0.3082(4) 0.1932(3)
H12 H 0.4789 0.3697 0.1949
C18 C 0.6639(7) 0.1396(5) 0.0454(3)
C19 C 0.7507(7) 0.0347(5) -0.0333(3)
C20 C 0.8101(7) -0.0556(5) -0.0577(3)
C21 C 0.8095(8) -0.1352(5) -0.0090(4)
H13 H 0.7683 -0.1334 0.0411
C22 C 0.8713(10) -0.2181(6) -0.0355(5)
H14 H 0.8703 -0.2713 -0.0017
C23 C 0.9318(9) -0.1501(7) -0.1519(4)
H15 H 0.9743 -0.1539 -0.2015
C24 C 0.8725(9) -0.0639(6) -0.1311(4)
H16 H 0.8747 -0.0121 -0.1663
C25 C 0.1161(9) 0.3809(5) 0.2896(4)
C26 C -0.0356(10) 0.4076(7) 0.2627(6)
H17 H -0.0389 0.4078 0.2065
H18 H -0.0345 0.4766 0.2850
H19 H -0.1329 0.3559 0.2790
N1 N 0.5883(5) 0.4452(3) 0.4137(2)
N2 N 1.0849(5) 0.7254(3) 0.5580(3)
N3 N 1.1920(5) 0.8285(3) 0.5588(3)
N4 N 1.3288(5) 1.1803(3) 0.4194(2)
N5 N 0.5167(5) 0.2583(3) 0.2601(3)
N6 N 0.6770(8) 0.1812(4) -0.0223(3)
N7 N 0.7324(8) 0.1116(5) -0.0739(3)
N8 N 0.9317(8) -0.2269(6) -0.1058(5)
N9 N 0.2304(6) 0.3603(4) 0.3128(3)
N4_2 N 0.3288(5) 0.1803(3) 0.4194(2)
Cu1_2 Cu 1.42713(8) 1.31473(5) 0.36194(4)
Cl1 Cl -0.2568(3) -0.1272(2) 0.25327(13)
O3 O -0.3293(9) -0.1272(5) 0.1791(3)
O4 O -0.1174(10) -0.1680(8) 0.2545(8)
O5 O -0.3689(10) -0.1896(8) 0.3028(5)
O6 O -0.1939(15) -0.0204(4) 0.2839(5)
C27 C 1.2297(12) 0.7257(9) 0.3139(6)
C28 C 1.2317(16) 0.7877(12) 0.2470(7)
H20 H 1.2653 0.7525 0.2020
H21 H 1.3097 0.8564 0.2575
H22 H 1.1212 0.7956 0.2367
N10 N 1.2281(13) 0.6823(9) 0.3667(5)
O7 O 1.493(4) 0.602(3) 0.1287(18)
O8 O 1.759(4) 0.589(3) 0.1653(19)
O9 O 2.000(5) 0.521(3) 0.0569(19)
loop_
_geom_bond_atom_site_label_1
_geom_bond_atom_site_label_2
_geom_bond_site_symmetry_1
_geom_bond_site_symmetry_2
Cu1 N1 1_555 1_555
O1 C6 1_555 1_555
O2 C18 1_555 1_555
C1 H1 1_555 1_555
C2 C1 1_555 1_555
H2 C2 1_555 1_555
C3 C2 1_555 1_555
C4 C3 1_555 1_555
H3 C4 1_555 1_555
C5 C4 1_555 1_555
H4 C5 1_555 1_555
C6 C3 1_555 1_555
C7 O1 1_555 1_555
C8 C7 1_555 1_555
C9 C8 1_555 1_555
H5 C9 1_555 1_555
C10 C9 1_555 1_555
H6 C10 1_555 1_555
C11 H7 1_555 1_555
C12 C8 1_555 1_555
H8 C12 1_555 1_555
C13 H9 1_555 1_555
C14 C13 1_555 1_555
H10 C14 1_555 1_555
C15 C14 1_555 1_555
C16 C15 1_555 1_555
H11 C16 1_555 1_555
C17 C16 1_555 1_555
H12 C17 1_555 1_555
C18 C15 1_555 1_555
C19 O2 1_555 1_555
C20 C19 1_555 1_555
C21 C20 1_555 1_555
H13 C21 1_555 1_555
C22 C21 1_555 1_555
H14 C22 1_555 1_555
C23 H15 1_555 1_555
C24 C20 1_555 1_555
H16 C24 1_555 1_555
C25 C26 1_555 1_555
C26 H17 1_555 1_555
H18 C26 1_555 1_555
H19 C26 1_555 1_555
N1 C1 1_555 1_555
N2 C6 1_555 1_555
N3 C7 1_555 1_555
N4 C10 1_555 1_555
N5 Cu1 1_555 1_555
N6 C18 1_555 1_555
N7 C19 1_555 1_555
N8 C22 1_555 1_555
N9 Cu1 1_555 1_555
Cl1 O3 1_555 1_555
O4 Cl1 1_555 1_555
O5 Cl1 1_555 1_555
O6 Cl1 1_555 1_555
C27 C28 1_555 1_555
C28 H20 1_555 1_555
H21 C28 1_555 1_555
H22 C28 1_555 1_555
N10 C27 1_555 1_555
N4_2 Cu1 1_555 1_555
Cu1_2 N4 1_555 1_555
C5 N1 1_555 1_555
C11 N4 1_555 1_555
C11 C12 1_555 1_555
C13 N5 1_555 1_555
C17 N5 1_555 1_555
C23 N8 1_555 1_555
C23 C24 1_555 1_555
C25 N9 1_555 1_555
N2 N3 1_555 1_555
N6 N7 1_555 1_555

#END
