
#######################################################################
#
#                 Cambridge Crystallographic Data Centre
#                                CCDC 
#
#######################################################################
#
# If this CIF has been generated from an entry in the Cambridge 
# Structural Database, then it will include bibliographic, chemical, 
# crystal, experimental, refinement or atomic coordinate data resulting 
# from the CCDC's data processing and validation procedures.
#
#######################################################################

data_ASEWUQ
_symmetry_cell_setting           triclinic
_symmetry_space_group_name_H-M   'P -1'
_symmetry_Int_Tables_number      2
_space_group_name_Hall           '-P 1'
loop_
_symmetry_equiv_pos_site_id
_symmetry_equiv_pos_as_xyz
1 x,y,z
2 -x,-y,-z
_cell_length_a                   10.544
_cell_length_b                   10.754
_cell_length_c                   9.384
_cell_angle_alpha                115.36
_cell_angle_beta                 106.76
_cell_angle_gamma                96.24
_cell_volume                     886.899
loop_
_atom_site_label
_atom_site_type_symbol
_atom_site_fract_x
_atom_site_fract_y
_atom_site_fract_z
V1 V 0.6355(1) -0.0936(1) -0.4789(1)
Cl1 Cl 0.8158(1) -0.0851(1) -0.5530(2)
Cl2 Cl 0.5485(1) 0.0341(1) -0.6234(2)
N1 N 0.5503(4) -0.2586(4) -0.6260(4)
C1 C 0.4979(5) -0.4017(5) -0.7371(5)
C2 C 0.5861(5) -0.4809(5) -0.7906(6)
C3 C 0.5325(6) -0.6257(5) -0.9053(6)
C4 C 0.3965(6) -0.6891(6) -0.9623(7)
C5 C 0.3077(6) -0.6112(5) -0.9099(6)
C6 C 0.3579(5) -0.4667(5) -0.7962(6)
Cl3 Cl 0.7146(1) -0.1595(1) -0.2744(2)
Cl4 Cl 0.7761(1) 0.1604(1) -0.2125(2)
V2 V 0.8619(1) 0.0924(1) -0.0107(1)
Cl5 Cl 0.6874(1) 0.0836(1) 0.0729(2)
Cl6 Cl 1.0435(1) 0.0387(1) -0.1233(1)
N2 N 0.9506(4) 0.2568(4) 0.1365(4)
C7 C 1.0072(5) 0.4016(4) 0.2443(5)
C8 C 0.9475(5) 0.4950(5) 0.1991(6)
C9 C 1.0038(6) 0.6407(5) 0.3094(6)
C10 C 1.1150(6) 0.6905(5) 0.4574(6)
C11 C 1.1723(5) 0.5964(5) 0.4987(6)
C12 C 1.1196(5) 0.4510(5) 0.3929(6)
H1 H 0.6744(14) -0.4357(14) -0.7551(14)
H2 H 0.3649(14) -0.8151(14) -1.0721(14)
H3 H 0.6015(14) -0.6661(14) -0.9455(14)
H4 H 0.2090(14) -0.6541(14) -0.9570(14)
H5 H 0.2999(14) -0.4210(14) -0.7623(14)
H6 H 0.8764(14) 0.4749(14) 0.1112(14)
H7 H 0.9553(14) 0.7035(14) 0.2727(14)
H8 H 1.1486(14) 0.8020(14) 0.5387(14)
H9 H 1.2530(14) 0.6186(14) 0.6034(14)
H10 H 1.1641(14) 0.3873(14) 0.4240(14)
Cl2A Cl 0.4515(1) -0.0341(1) -0.3766(2)
V1A V 0.3645(1) 0.0936(1) -0.5211(1)
Cl6A Cl 0.9565(1) -0.0387(1) 0.1233(1)
V2A V 1.1381(1) -0.0924(1) 0.0107(1)
loop_
_geom_bond_atom_site_label_1
_geom_bond_atom_site_label_2
_geom_bond_site_symmetry_1
_geom_bond_site_symmetry_2
V1 Cl1 1_555 1_555
Cl2 V1 1_555 1_555
N1 V1 1_555 1_555
C1 N1 1_555 1_555
C2 C1 1_555 1_555
C3 C2 1_555 1_555
C4 C3 1_555 1_555
C5 C4 1_555 1_555
C6 C1 1_555 1_555
Cl3 V1 1_555 1_555
Cl4 V1 1_555 1_555
V2 Cl3 1_555 1_555
Cl5 V2 1_555 1_555
Cl6 V2 1_555 1_555
N2 V2 1_555 1_555
C7 N2 1_555 1_555
C8 C7 1_555 1_555
C9 C8 1_555 1_555
C10 C9 1_555 1_555
C11 C10 1_555 1_555
C12 C7 1_555 1_555
H1 C2 1_555 1_555
H2 C4 1_555 1_555
H3 C3 1_555 1_555
H4 C5 1_555 1_555
H5 C6 1_555 1_555
H6 C8 1_555 1_555
H7 C9 1_555 1_555
H8 C10 1_555 1_555
H9 C11 1_555 1_555
H10 C12 1_555 1_555
Cl2A V1 1_555 1_555
V1A Cl2 1_555 1_555
Cl6A V2 1_555 1_555
V2A Cl6 1_555 1_555
C5 C6 1_555 1_555
Cl4 V2 1_555 1_555
C11 C12 1_555 1_555
Cl2A V1A 1_555 1_555
Cl6A V2A 1_555 1_555

#END
