
#######################################################################
#
#                 Cambridge Crystallographic Data Centre
#                                CCDC 
#
#######################################################################
#
# If this CIF has been generated from an entry in the Cambridge 
# Structural Database, then it will include bibliographic, chemical, 
# crystal, experimental, refinement or atomic coordinate data resulting 
# from the CCDC's data processing and validation procedures.
#
#######################################################################

data_ASEWEB
_symmetry_cell_setting           triclinic
_symmetry_space_group_name_H-M   'P -1'
_symmetry_Int_Tables_number      2
_space_group_name_Hall           '-P 1'
loop_
_symmetry_equiv_pos_site_id
_symmetry_equiv_pos_as_xyz
1 x,y,z
2 -x,-y,-z
_cell_length_a                   7.7903(10)
_cell_length_b                   10.9783(11)
_cell_length_c                   13.1952(15)
_cell_angle_alpha                70.556(7)
_cell_angle_beta                 83.187(9)
_cell_angle_gamma                73.963(7)
_cell_volume                     1022.29
loop_
_atom_site_label
_atom_site_type_symbol
_atom_site_fract_x
_atom_site_fract_y
_atom_site_fract_z
Cu1 Cu 1.5000 0.5000 0.0000
Cu2 Cu 1.08776(4) 0.47577(3) 0.12931(2)
Cu3 Cu 1.55564(4) 0.72253(3) -0.18396(2)
O1 O 1.3356(2) 0.67690(18) -0.03891(15)
O2 O 1.0627(3) 0.65962(18) 0.03364(16)
O3 O 0.9472(3) 0.70844(18) -0.17519(16)
O4 O 0.6781(2) 0.85187(18) -0.17590(16)
O5 O 1.8805(2) 0.51655(18) 0.21953(15)
O6 O 1.6708(3) 0.66527(19) 0.10533(15)
O7 O 1.5204(2) 0.42673(18) 0.20777(15)
O8 O 1.2382(3) 0.4829(2) 0.26226(17)
O9 O 1.3135(2) 0.40975(18) 0.06096(16)
H1 H 1.300(5) 0.386(4) 0.022(3)
N1 N 1.1643(3) 0.9513(2) -0.39302(18)
N2 N 1.4049(3) 0.8513(2) -0.29867(18)
C1 C 1.0939(4) 0.8650(3) -0.0903(2)
C2 C 0.9332(4) 0.9113(3) -0.1462(2)
C3 C 0.8623(4) 1.0485(3) -0.1904(2)
H4 H 0.7519 1.0808 -0.2260
C4 C 0.9520(4) 1.1382(3) -0.1830(2)
H5 H 0.9029 1.2315 -0.2136
C5 C 1.1126(4) 1.0920(3) -0.1309(2)
H6 H 1.1745 1.1534 -0.1265
C6 C 1.1832(4) 0.9558(3) -0.0852(2)
H7 H 1.2939 0.9245 -0.0500
C7 C 1.1674(3) 0.7203(3) -0.0283(2)
C8 C 0.8464(4) 0.8157(3) -0.1655(2)
C9 C 1.6044(4) 0.6131(3) 0.2913(2)
C10 C 1.4422(3) 0.5768(3) 0.3109(2)
C11 C 1.3264(4) 0.6090(3) 0.3925(2)
H8 H 1.2146 0.5866 0.4049
C12 C 1.3719(4) 0.6728(3) 0.4554(2)
H9 H 1.2908 0.6957 0.5098
C13 C 1.5359(4) 0.7034(3) 0.4392(2)
H10 H 1.5693 0.7443 0.4843
C14 C 1.6517(4) 0.6743(3) 0.3569(2)
H11 H 1.7637 0.6963 0.3454
C15 C 1.7259(4) 0.5967(3) 0.1957(2)
C16 C 1.3949(4) 0.4921(3) 0.2552(2)
C17 C 0.9920(4) 0.9755(3) -0.4392(2)
H12 H 0.9521 0.8919 -0.4154
H13 H 0.9017 1.0430 -0.4137
C18 C 1.2581(4) 0.8353(3) -0.3278(2)
H14 H 1.2240 0.7535 -0.3057
C19 C 1.4033(4) 0.9834(3) -0.3470(3)
H15 H 1.4926 1.0241 -0.3405
C20 C 1.2545(4) 1.0464(3) -0.4055(3)
H16 H 1.2196 1.1381 -0.4467
Cu2A Cu 1.91224(4) 0.52423(3) -0.12931(2)
Cu2A_2 Cu 0.91224(4) 0.52423(3) -0.12931(2)
Cu2_2 Cu 2.08776(4) 0.47577(3) 0.12931(2)
Cu3A Cu 1.44436(4) 0.27747(3) 0.18396(2)
Cu3_2 Cu 0.55564(4) 0.72253(3) -0.18396(2)
Cu3A_2 Cu 0.44436(4) 1.27747(3) -0.81604(2)
Cu3A_3 Cu 2.44436(4) 0.27747(3) 0.18396(2)
O1A O 1.6644(2) 0.32310(18) 0.03891(15)
O2A O 1.9373(3) 0.34038(18) -0.03364(16)
O3A O 2.0528(3) 0.29156(18) 0.17519(16)
O3A_2 O 1.0528(3) 0.29156(18) 0.17519(16)
O3_2 O 1.9472(3) 0.70844(18) -0.17519(16)
O4A O 2.3219(2) 0.14813(18) 0.17590(16)
O4_2 O 1.6781(2) 0.85187(18) -0.17590(16)
O4A_2 O 1.3219(2) 0.14813(18) 0.17590(16)
O5A O 1.1195(2) 0.48345(18) -0.21953(15)
O5_2 O 0.8805(2) 0.51655(18) 0.21953(15)
O5A_2 O 2.1195(2) 0.48345(18) -0.21953(15)
O6A O 1.3292(3) 0.33473(19) -0.10533(15)
O7A O 1.4796(2) 0.57327(18) -0.20777(15)
O8A O 1.7618(3) 0.5171(2) -0.26226(17)
O9A O 1.6865(2) 0.59025(18) -0.06096(16)
H1A H 1.700(5) 0.614(4) -0.022(3)
N1A N 0.8357(3) 1.0487(2) -0.60698(18)
N2A N 0.5951(3) 1.1487(2) -0.70133(18)
N2A_2 N 1.5951(3) 0.1487(2) 0.29867(18)
C1A C 1.9061(4) 0.1350(3) 0.0903(2)
C2A C 2.0668(4) 0.0887(3) 0.1462(2)
C3A C 2.1377(4) -0.0485(3) 0.1904(2)
H4A H 2.2481 -0.0808 0.2260
C4A C 2.0480(4) -0.1382(3) 0.1830(2)
H5A H 2.0971 -0.2315 0.2136
C5A C 1.8874(4) -0.0920(3) 0.1309(2)
H6A H 1.8255 -0.1534 0.1265
C6A C 1.8168(4) 0.0442(3) 0.0852(2)
H7A H 1.7061 0.0755 0.0500
C7A C 1.8326(3) 0.2797(3) 0.0283(2)
C8A C 2.1536(4) 0.1843(3) 0.1655(2)
C9A C 1.3956(4) 0.3869(3) -0.2913(2)
C10A C 1.5578(3) 0.4232(3) -0.3109(2)
C11A C 1.6736(4) 0.3910(3) -0.3925(2)
H8A H 1.7854 0.4134 -0.4049
C12A C 1.6281(4) 0.3272(3) -0.4554(2)
H9A H 1.7092 0.3043 -0.5098
C13A C 1.4641(4) 0.2966(3) -0.4392(2)
H10A H 1.4307 0.2557 -0.4843
C14A C 1.3483(4) 0.3257(3) -0.3569(2)
H11A H 1.2363 0.3037 -0.3454
C15A C 1.2741(4) 0.4033(3) -0.1957(2)
C16A C 1.6051(4) 0.5079(3) -0.2552(2)
C17A C 1.0080(4) 1.0245(3) -0.5608(2)
H12A H 1.0479 1.1081 -0.5846
H13A H 1.0983 0.9570 -0.5863
C18A C 0.7419(4) 1.1647(3) -0.6722(2)
H14A H 0.7760 1.2465 -0.6943
C19A C 0.5967(4) 1.0166(3) -0.6530(3)
H15A H 0.5074 0.9759 -0.6595
C20A C 0.7455(4) 0.9536(3) -0.5945(3)
H16A H 0.7804 0.8619 -0.5533
O10 O 0.9705(4) 0.6561(3) 0.5714(3)
H2 H 1.039(8) 0.601(6) 0.625(5)
H3 H 0.922(10) 0.607(7) 0.573(6)
loop_
_geom_bond_atom_site_label_1
_geom_bond_atom_site_label_2
_geom_bond_site_symmetry_1
_geom_bond_site_symmetry_2
Cu1 O1 1_555 1_555
Cu2 O2 1_555 1_555
Cu3 O1 1_555 1_555
O1 C7 1_555 1_555
O2 C7 1_555 1_555
O3 C8 1_555 1_555
O4 C8 1_555 1_555
O5 C15 1_555 1_555
O6 C15 1_555 1_555
O7 Cu1 1_555 1_555
O8 Cu2 1_555 1_555
O9 Cu1 1_555 1_555
H1 O9 1_555 1_555
O10 H2 1_555 1_555
H3 O10 1_555 1_555
N1 C17 1_555 1_555
N2 Cu3 1_555 1_555
C1 C2 1_555 1_555
C2 C3 1_555 1_555
C3 H4 1_555 1_555
C4 C3 1_555 1_555
H5 C4 1_555 1_555
C5 C4 1_555 1_555
H6 C5 1_555 1_555
C6 C1 1_555 1_555
H7 C6 1_555 1_555
C7 C1 1_555 1_555
C8 C2 1_555 1_555
C9 C10 1_555 1_555
C10 C11 1_555 1_555
C11 H8 1_555 1_555
C12 C11 1_555 1_555
H9 C12 1_555 1_555
C13 C12 1_555 1_555
H10 C13 1_555 1_555
C14 C9 1_555 1_555
H11 C14 1_555 1_555
C15 C9 1_555 1_555
C16 O7 1_555 1_555
C17 H12 1_555 1_555
H13 C17 1_555 1_555
C18 N1 1_555 1_555
H14 C18 1_555 1_555
C19 N2 1_555 1_555
H15 C19 1_555 1_555
C20 N1 1_555 1_555
H16 C20 1_555 1_555
Cu2A O2A 1_555 1_555
Cu2A_2 O3 1_555 1_555
Cu2_2 O5 1_555 1_555
Cu3A O7 1_555 1_555
Cu3_2 O4 1_555 1_555
Cu3A_2 N2A 1_555 1_555
Cu3A_3 O4A 1_555 1_555
O1A Cu1 1_555 1_555
O2A C7A 1_555 1_555
O3A Cu2_2 1_555 1_555
O3A_2 Cu2 1_555 1_555
O3_2 Cu2A 1_555 1_555
O4A C8A 1_555 1_555
O4_2 Cu3 1_555 1_555
O4A_2 Cu3A 1_555 1_555
O5A Cu2A_2 1_555 1_555
O5_2 Cu2 1_555 1_555
O5A_2 Cu2A 1_555 1_555
O6A C15A 1_555 1_555
O7A Cu1 1_555 1_555
O8A Cu2A 1_555 1_555
O9A Cu1 1_555 1_555
H1A O9A 1_555 1_555
N1A C17A 1_555 1_555
N2A C18A 1_555 1_555
N2A_2 Cu3A 1_555 1_555
C1A C2A 1_555 1_555
C2A C3A 1_555 1_555
C3A H4A 1_555 1_555
C4A C3A 1_555 1_555
H5A C4A 1_555 1_555
C5A C4A 1_555 1_555
H6A C5A 1_555 1_555
C6A C1A 1_555 1_555
H7A C6A 1_555 1_555
C7A O1A 1_555 1_555
C8A O3A 1_555 1_555
C9A C10A 1_555 1_555
C10A C11A 1_555 1_555
C11A H8A 1_555 1_555
C12A C11A 1_555 1_555
H9A C12A 1_555 1_555
C13A C12A 1_555 1_555
H10A C13A 1_555 1_555
C14A C9A 1_555 1_555
H11A C14A 1_555 1_555
C15A O5A 1_555 1_555
C16A O7A 1_555 1_555
C17A C17 1_555 1_555
H12A C17A 1_555 1_555
H13A C17A 1_555 1_555
C18A N1A 1_555 1_555
H14A C18A 1_555 1_555
C19A N2A 1_555 1_555
H15A C19A 1_555 1_555
C20A N1A 1_555 1_555
H16A C20A 1_555 1_555
Cu2 O9 1_555 1_555
Cu3 O7A 1_555 1_555
Cu3 O9A 1_555 1_555
O8 C16 1_555 1_555
O9 Cu3A 1_555 1_555
N2 C18 1_555 1_555
C5 C6 1_555 1_555
C10 C16 1_555 1_555
C13 C14 1_555 1_555
C19 C20 1_555 1_555
Cu2A O9A 1_555 1_555
Cu3A O1A 1_555 1_555
O8A C16A 1_555 1_555
C1A C7A 1_555 1_555
C2A C8A 1_555 1_555
C5A C6A 1_555 1_555
C9A C15A 1_555 1_555
C10A C16A 1_555 1_555
C13A C14A 1_555 1_555
C19A C20A 1_555 1_555

#END
