
#######################################################################
#
#                 Cambridge Crystallographic Data Centre
#                                CCDC 
#
#######################################################################
#
# If this CIF has been generated from an entry in the Cambridge 
# Structural Database, then it will include bibliographic, chemical, 
# crystal, experimental, refinement or atomic coordinate data resulting 
# from the CCDC's data processing and validation procedures.
#
#######################################################################

data_ASISOK
_symmetry_cell_setting           monoclinic
_symmetry_space_group_name_H-M   'P 21/c'
_symmetry_Int_Tables_number      14
_space_group_name_Hall           '-P 2ybc'
loop_
_symmetry_equiv_pos_site_id
_symmetry_equiv_pos_as_xyz
1 x,y,z
2 x,1/2-y,1/2+z
3 -x,-y,-z
4 -x,1/2+y,1/2-z
_cell_length_a                   9.6777(5)
_cell_length_b                   13.8879(6)
_cell_length_c                   12.7353(6)
_cell_angle_alpha                90.00
_cell_angle_beta                 97.606(5)
_cell_angle_gamma                90.00
_cell_volume                     1696.6
loop_
_atom_site_label
_atom_site_type_symbol
_atom_site_fract_x
_atom_site_fract_y
_atom_site_fract_z
V1 V 0.36396(3) 0.15202(2) 0.09396(2)
K1 K 0.59409(4) 0.35350(3) 0.04327(3)
O1 O 0.51268(13) 0.12606(10) 0.05897(11)
O2 O 0.33212(13) 0.27306(9) 0.02568(10)
O3 O 0.38243(14) 0.28033(9) 0.13669(10)
O4 O 0.31323(13) 0.01076(9) 0.12252(10)
O5 O 0.41509(13) 0.14006(9) 0.25300(10)
O6 O 0.31365(13) -0.10072(9) 0.24901(10)
O7 O 0.45884(15) 0.03438(10) 0.38522(10)
O9 O 0.8412(2) 0.40287(12) -0.03194(14)
O10 O 0.6592(2) 0.27502(11) -0.14823(12)
N1 N 0.2507(2) 0.10935(11) -0.05348(12)
N2 N 0.1361(2) 0.16330(10) 0.11388(12)
C1 C 0.3394(2) -0.01985(13) 0.21726(14)
C2 C 0.4111(2) 0.05584(13) 0.29481(15)
C3 C 0.3162(2) 0.08313(14) -0.1356(2)
C4 C 0.2449(2) 0.05627(15) -0.2321(2)
C5 C 0.1010(2) 0.05637(14) -0.2452(2)
C6 C 0.0328(2) 0.08294(14) -0.1609(2)
C7 C 0.1091(2) 0.10901(13) -0.06575(15)
C8 C 0.0449(2) 0.13808(12) 0.02908(15)
C9 C -0.0982(2) 0.13922(14) 0.0324(2)
C10 C -0.1468(2) 0.16776(14) 0.1249(2)
C11 C -0.0533(2) 0.19539(14) 0.2106(2)
C12 C 0.0878(2) 0.19187(14) 0.2023(2)
H1 H 0.4138(25) 0.0803(16) -0.1203(17)
H2 H 0.2922(24) 0.0388(17) -0.2841(19)
H3 H 0.0529(24) 0.0370(17) -0.3074(18)
H4 H -0.0625(25) 0.0843(16) -0.1680(17)
H7 H -0.1555(22) 0.1209(15) -0.0211(17)
H8 H 0.7985(28) 0.3660(20) -0.0780(22)
H9 H 0.9203(34) 0.3946(22) -0.0299(23)
H10 H -0.2421(26) 0.1668(16) 0.1302(18)
H11 H 0.6688(26) 0.2225(20) -0.1725(20)
H12 H 0.5844(30) 0.2944(20) -0.1784(21)
H13 H -0.0801(22) 0.2163(16) 0.2738(18)
H14 H 0.1548(21) 0.2083(15) 0.2580(16)
O6C O 0.68635(13) 0.39928(9) 0.25099(10)
O7A O 0.45884(15) 0.46562(10) -0.11478(10)
O7C O 0.54116(15) 0.53438(10) 0.11478(10)
K1C K 0.40591(4) -0.14650(3) 0.45673(3)
K1A K 0.59409(4) 0.14650(3) 0.54327(3)
O8 O 0.8787(2) 0.5943(2) 0.0394(2)
H5 H 0.8330(33) 0.6328(24) 0.0154(24)
H6 H 0.8526(31) 0.5433(25) 0.0203(24)
loop_
_geom_bond_atom_site_label_1
_geom_bond_atom_site_label_2
_geom_bond_site_symmetry_1
_geom_bond_site_symmetry_2
V1 O1 1_555 1_555
K1 O1 1_555 1_555
O2 V1 1_555 1_555
O3 V1 1_555 1_555
O4 V1 1_555 1_555
O5 V1 1_555 1_555
O6 C1 1_555 1_555
O7 C2 1_555 1_555
O8 H5 1_555 1_555
O9 K1 1_555 1_555
O10 K1 1_555 1_555
N1 V1 1_555 1_555
N2 V1 1_555 1_555
C1 O4 1_555 1_555
C2 O5 1_555 1_555
C3 N1 1_555 1_555
C4 C3 1_555 1_555
C5 C4 1_555 1_555
C6 C5 1_555 1_555
C7 N1 1_555 1_555
C8 N2 1_555 1_555
C9 C8 1_555 1_555
C10 C9 1_555 1_555
C11 C10 1_555 1_555
C12 N2 1_555 1_555
H1 C3 1_555 1_555
H2 C4 1_555 1_555
H3 C5 1_555 1_555
H4 C6 1_555 1_555
H6 O8 1_555 1_555
H7 C9 1_555 1_555
H8 O9 1_555 1_555
H9 O9 1_555 1_555
H10 C10 1_555 1_555
H11 O10 1_555 1_555
H12 O10 1_555 1_555
H13 C11 1_555 1_555
H14 C12 1_555 1_555
O6C K1 1_555 1_555
O7A K1 1_555 1_555
O7C K1 1_555 1_555
K1C O6 1_555 1_555
K1A O7 1_555 1_555
K1 O2 1_555 1_555
K1 O3 1_555 1_555
O2 O3 1_555 1_555
O7 K1C 1_555 1_555
C1 C2 1_555 1_555
C6 C7 1_555 1_555
C7 C8 1_555 1_555
C11 C12 1_555 1_555

#END
