
#######################################################################
#
#                 Cambridge Crystallographic Data Centre
#                                CCDC 
#
#######################################################################
#
# If this CIF has been generated from an entry in the Cambridge 
# Structural Database, then it will include bibliographic, chemical, 
# crystal, experimental, refinement or atomic coordinate data resulting 
# from the CCDC's data processing and validation procedures.
#
#######################################################################

data_ASOHUL
_symmetry_cell_setting           orthorhombic
_symmetry_space_group_name_H-M   'P n m a'
_symmetry_Int_Tables_number      62
_space_group_name_Hall           '-P 2ac 2n'
loop_
_symmetry_equiv_pos_site_id
_symmetry_equiv_pos_as_xyz
1 x,y,z
2 1/2+x,y,1/2-z
3 x,1/2-y,z
4 1/2-x,1/2+y,1/2+z
5 -x,-y,-z
6 1/2-x,-y,1/2+z
7 -x,1/2+y,-z
8 1/2+x,1/2-y,1/2-z
_cell_length_a                   17.6956(19)
_cell_length_b                   6.8745(7)
_cell_length_c                   11.9303(12)
_cell_angle_alpha                90
_cell_angle_beta                 90
_cell_angle_gamma                90
_cell_volume                     1451.3
loop_
_atom_site_label
_atom_site_type_symbol
_atom_site_fract_x
_atom_site_fract_y
_atom_site_fract_z
C7 C 0.3610(9) 0.0012(16) -0.0243(13)
C9 C 0.3703(18) 0.2500 -0.035(2)
C11 C 0.4664(9) 0.0001(15) -0.1363(14)
O5 O 0.4689(11) 0.2500 -0.1500(16)
O7 O 0.3669(18) -0.2500 -0.033(3)
O9 O 0.4664(13) -0.2500 -0.153(2)
C13 C 0.4138(9) 0.126(5) -0.0842(16)
C14 C 0.4133(9) -0.124(5) -0.0845(16)
C13B C 0.4138(9) 0.374(5) -0.0842(16)
C7B C 0.3610(9) 0.4988(16) -0.0243(13)
C11B C 0.4664(9) 0.4999(15) -0.1363(14)
C14B C 0.4133(9) -0.376(5) -0.0845(16)
C7B_2 C 0.3610(9) -0.5012(16) -0.0243(13)
C11B_2 C 0.4664(9) -0.5001(15) -0.1363(14)
C14B_2 C 0.4133(9) 0.624(5) -0.0845(16)
O7_2 O 0.3669(18) 0.7500 -0.033(3)
O9_2 O 0.4664(13) 0.7500 -0.153(2)
C13B_2 C 0.4138(9) -0.626(5) -0.0842(16)
C9_2 C 0.3703(18) -0.7500 -0.035(2)
O5_2 O 0.4689(11) -0.7500 -0.1500(16)
V1 V 0.0000 0.0000 0.0000
O1 O 0.07407(18) 0.0864(5) -0.1169(3)
O2 O 0.0064(2) 0.2500 0.0738(5)
O3 O 0.41147(18) 0.0859(5) -0.4090(3)
C1 C 0.1009(4) 0.2500 -0.1429(6)
C2 C 0.1726(4) 0.2500 -0.2104(6)
C3 C 0.2068(3) 0.0743(8) -0.2394(6)
C4 C 0.2743(3) 0.0743(9) -0.2971(5)
C5 C 0.3083(4) 0.2500 -0.3253(6)
C6 C 0.3836(4) 0.2500 -0.3864(6)
O1B O 0.07407(18) 0.4136(5) -0.1169(3)
C3B C 0.2068(3) 0.4257(8) -0.2394(6)
C4B C 0.2743(3) 0.4257(9) -0.2971(5)
O3B O 0.41147(18) 0.4141(5) -0.4090(3)
O1D O -0.07407(18) -0.0864(5) 0.1169(3)
O2D O -0.0064(2) -0.2500 -0.0738(5)
O3A O -0.08853(18) 0.0859(5) -0.0910(3)
V1B V 0.0000 0.5000 0.0000
O3E O 0.08853(18) -0.0859(5) 0.0910(3)
V1A V 0.5000 0.0000 -0.5000
V1C V 0.5000 0.5000 -0.5000
Fe1? Fe 0.0000 0.0000 0.0000
C8? C 0.4689(11) 0.2500 -0.1500(16)
C10? C 0.3669(18) -0.2500 -0.033(3)
C12? C 0.4664(13) -0.2500 -0.153(2)
O4? O 0.3610(9) 0.0012(16) -0.0243(13)
O6? O 0.3703(18) 0.2500 -0.035(2)
O8? O 0.4664(9) 0.0001(15) -0.1363(14)
loop_
_geom_bond_atom_site_label_1
_geom_bond_atom_site_label_2
_geom_bond_site_symmetry_1
_geom_bond_site_symmetry_2
V1 O1 1_555 1_555
O1 C1 1_555 1_555
O2 V1 1_555 1_555
O3 C6 1_555 1_555
C1 C2 1_555 1_555
C2 C3 1_555 1_555
C3 C4 1_555 1_555
C4 C5 1_555 1_555
C5 C6 1_555 1_555
C6 O3B 1_555 1_555
C7 C9 1_555 1_555
C9 C13 1_555 1_555
C11 O5 1_555 1_555
O5 C13 1_555 1_555
O7 C7 1_555 1_555
O9 C11 1_555 1_555
C13 C7 1_555 1_555
C14 C7 1_555 1_555
O1B C1 1_555 1_555
C3B C2 1_555 1_555
C4B C5 1_555 1_555
O3B V1C 1_555 1_555
C13B C9 1_555 1_555
C7B C9 1_555 1_555
C11B O5 1_555 1_555
C14B O7 1_555 1_555
C7B_2 O7 1_555 1_555
C11B_2 O9 1_555 1_555
O1D V1 1_555 1_555
O2D V1 1_555 1_555
O3A V1 1_555 1_555
V1B O2 1_555 1_555
O3E V1 1_555 1_555
V1A O3 1_555 1_555
C14B_2 C13B 1_555 1_555
O7_2 C7B 1_555 1_555
O9_2 C11B 1_555 1_555
C13B_2 C14B 1_555 1_555
C9_2 C7B_2 1_555 1_555
O5_2 C11B_2 1_555 1_555
C11 C13 1_555 1_555
C11 C14 1_555 1_555
O5 C13B 1_555 1_555
O7 C14 1_555 1_555
O9 C14 1_555 1_555
O9 C14B 1_555 1_555
C13 C13B 1_555 1_555
C13 C14 1_555 1_555
C14 C14B 1_555 1_555
O1B V1B 1_555 1_555
C3B C4B 1_555 1_555
C13B C7B 1_555 1_555
C13B C11B 1_555 1_555
C7B C14B_2 1_555 1_555
C11B C14B_2 1_555 1_555
C14B C7B_2 1_555 1_555
C14B C11B_2 1_555 1_555
C7B_2 C13B_2 1_555 1_555
C11B_2 C13B_2 1_555 1_555
C14B_2 O7_2 1_555 1_555
C14B_2 O9_2 1_555 1_555
C13B_2 C9_2 1_555 1_555
C13B_2 O5_2 1_555 1_555

#END
