
#######################################################################
#
#                 Cambridge Crystallographic Data Centre
#                                CCDC 
#
#######################################################################
#
# If this CIF has been generated from an entry in the Cambridge 
# Structural Database, then it will include bibliographic, chemical, 
# crystal, experimental, refinement or atomic coordinate data resulting 
# from the CCDC's data processing and validation procedures.
#
#######################################################################

data_ASOWOU
_symmetry_cell_setting           monoclinic
_symmetry_space_group_name_H-M   'P 21/n'
_symmetry_Int_Tables_number      14
_space_group_name_Hall           '-P 2yn'
loop_
_symmetry_equiv_pos_site_id
_symmetry_equiv_pos_as_xyz
1 x,y,z
2 1/2+x,1/2-y,1/2+z
3 -x,-y,-z
4 1/2-x,1/2+y,1/2-z
_cell_length_a                   13.1128(8)
_cell_length_b                   6.9843(4)
_cell_length_c                   15.3908(9)
_cell_angle_alpha                90
_cell_angle_beta                 104.6470(10)
_cell_angle_gamma                90
_cell_volume                     1363.74
loop_
_atom_site_label
_atom_site_type_symbol
_atom_site_fract_x
_atom_site_fract_y
_atom_site_fract_z
Ag1 Ag -0.029037(19) 1.22818(4) 0.512076(16)
Br1 Br 0.24221(2) 0.90876(5) 0.687253(18)
O1 O 0.1424(2) 1.0416(5) 0.6374(2)
O2 O 0.2229(2) 0.7032(4) 0.63352(18)
O3 O 0.3442(2) 1.0075(5) 0.6621(2)
N1 N -0.12038(18) 1.1979(3) 0.60900(15)
N2 N -0.42709(18) 1.2083(4) 0.92607(15)
C1 C -0.2248(2) 1.2329(4) 0.58523(19)
H7 H -0.2567 1.2625 0.5256
C2 C -0.2864(2) 1.2267(4) 0.64597(18)
H8 H -0.3583 1.2509 0.6270
C3 C -0.24043(19) 1.1841(4) 0.73521(15)
C4 C -0.13304(19) 1.1463(4) 0.75920(17)
H9 H -0.0995 1.1161 0.8184
C5 C -0.0763(2) 1.1534(4) 0.69566(18)
H10 H -0.0046 1.1265 0.7130
C6 C -0.4693(2) 1.1531(4) 0.84139(19)
H11 H -0.5407 1.1226 0.8244
C7 C -0.41121(19) 1.1396(4) 0.77813(17)
H12 H -0.4433 1.1008 0.7198
C8 C -0.30410(19) 1.1847(4) 0.80251(16)
C9 C -0.2606(2) 1.2366(4) 0.89162(18)
H13 H -0.1891 1.2639 0.9113
C10 C -0.3239(2) 1.2471(4) 0.95023(18)
H14 H -0.2937 1.2829 1.0093
Br1B Br -0.24221(2) 1.09124(5) 0.312747(18)
O1B O -0.1424(2) 0.9584(5) 0.3626(2)
O2B O -0.2229(2) 1.2968(4) 0.36648(18)
O3B O -0.3442(2) 0.9925(5) 0.3379(2)
N1A N 0.37962(18) 1.3021(3) 0.10900(15)
N2A N 0.07291(18) 1.2917(4) 0.42607(15)
C1A C 0.2752(2) 1.2671(4) 0.08523(19)
H7A H 0.2433 1.2375 0.0256
C2A C 0.2136(2) 1.2733(4) 0.14597(18)
H8A H 0.1417 1.2491 0.1270
C3A C 0.25957(19) 1.3159(4) 0.23521(15)
C4A C 0.36696(19) 1.3537(4) 0.25920(17)
H9A H 0.4005 1.3839 0.3184
C5A C 0.4237(2) 1.3466(4) 0.19566(18)
H10A H 0.4954 1.3735 0.2130
C6A C 0.0307(2) 1.3469(4) 0.34139(19)
H11A H -0.0407 1.3774 0.3244
C7A C 0.08879(19) 1.3604(4) 0.27813(17)
H12A H 0.0567 1.3992 0.2198
C8A C 0.19590(19) 1.3153(4) 0.30251(16)
C9A C 0.2394(2) 1.2634(4) 0.39162(18)
H13A H 0.3109 1.2361 0.4113
C10A C 0.1761(2) 1.2529(4) 0.45023(18)
H14A H 0.2063 1.2171 0.5093
Ag1B Ag 0.029037(19) 0.77182(4) 0.487924(16)
Ag1B_2 Ag 0.029037(19) 1.77182(4) 0.487924(16)
Ag1A Ag -0.529037(19) 1.27182(4) 1.012076(16)
Ag1A_2 Ag 0.470963(19) 1.27182(4) 0.012076(16)
Ag1_2 Ag -0.029037(19) 0.22818(4) 0.512076(16)
N1B N 0.12038(18) 0.8021(3) 0.39100(15)
N2C N -0.07291(18) 0.7083(4) 0.57393(15)
O4 O 0.3858(3) 0.4166(7) 0.6336(4)
H1 H 0.437(3) 0.496(6) 0.638(5)
H2 H 0.335(3) 0.479(7) 0.647(5)
O5 O 0.5197(4) 0.1357(9) 0.4411(3)
H3 H 0.552(5) 0.043(7) 0.475(3)
H4 H 0.541(5) 0.132(9) 0.393(3)
O6 O 0.5000 0.5000 0.5000
H5 H 0.496(18) 0.396(18) 0.527(14)
H5B H 0.504(18) 0.604(18) 0.473(14)
H6? H 0.554(9) 0.56(3) 0.528(13)
loop_
_geom_bond_atom_site_label_1
_geom_bond_atom_site_label_2
_geom_bond_site_symmetry_1
_geom_bond_site_symmetry_2
Ag1 O1 1_555 1_555
Br1 O1 1_555 1_555
O2 Br1 1_555 1_555
O3 Br1 1_555 1_555
O4 H1 1_555 1_555
H2 O4 1_555 1_555
O5 H3 1_555 1_555
H4 O5 1_555 1_555
O6 H5 1_555 1_555
N1 Ag1 1_555 1_555
N2 C6 1_555 1_555
C1 N1 1_555 1_555
H7 C1 1_555 1_555
C2 C1 1_555 1_555
H8 C2 1_555 1_555
C3 C2 1_555 1_555
C4 C3 1_555 1_555
H9 C4 1_555 1_555
C5 N1 1_555 1_555
H10 C5 1_555 1_555
C6 H11 1_555 1_555
C7 C6 1_555 1_555
H12 C7 1_555 1_555
C8 C3 1_555 1_555
C9 C8 1_555 1_555
H13 C9 1_555 1_555
C10 N2 1_555 1_555
H14 C10 1_555 1_555
H5B O6 1_555 1_555
Br1B O1B 1_555 1_555
O1B Ag1B 1_555 1_555
O2B Ag1 1_555 1_555
O3B Br1B 1_555 1_555
N1A C1A 1_555 1_555
N2A Ag1 1_555 1_555
C1A H7A 1_555 1_555
C2A C1A 1_555 1_555
H8A C2A 1_555 1_555
C3A C2A 1_555 1_555
C4A C3A 1_555 1_555
H9A C4A 1_555 1_555
C5A N1A 1_555 1_555
H10A C5A 1_555 1_555
C6A N2A 1_555 1_555
H11A C6A 1_555 1_555
C7A C6A 1_555 1_555
H12A C7A 1_555 1_555
C8A C3A 1_555 1_555
C9A C8A 1_555 1_555
H13A C9A 1_555 1_555
C10A N2A 1_555 1_555
H14A C10A 1_555 1_555
Ag1B Ag1 1_555 1_555
Ag1B_2 Ag1 1_555 1_555
Ag1A N2 1_555 1_555
Ag1A_2 N1A 1_555 1_555
Ag1_2 Ag1B 1_555 1_555
N1B Ag1B 1_555 1_555
N2C Ag1B 1_555 1_555
O2 Ag1B 1_555 1_555
C4 C5 1_555 1_555
C7 C8 1_555 1_555
C9 C10 1_555 1_555
Br1B O2B 1_555 1_555
C4A C5A 1_555 1_555
C7A C8A 1_555 1_555
C9A C10A 1_555 1_555

#END
