
#######################################################################
#
#                 Cambridge Crystallographic Data Centre
#                                CCDC 
#
#######################################################################
#
# If this CIF has been generated from an entry in the Cambridge 
# Structural Database, then it will include bibliographic, chemical, 
# crystal, experimental, refinement or atomic coordinate data resulting 
# from the CCDC's data processing and validation procedures.
#
#######################################################################

data_ASUBIZ
_symmetry_cell_setting           monoclinic
_symmetry_space_group_name_H-M   'P 21/c'
_symmetry_Int_Tables_number      14
_space_group_name_Hall           '-P 2ybc'
loop_
_symmetry_equiv_pos_site_id
_symmetry_equiv_pos_as_xyz
1 x,y,z
2 x,1/2-y,1/2+z
3 -x,-y,-z
4 -x,1/2+y,1/2-z
_cell_length_a                   11.0956(4)
_cell_length_b                   17.2715(7)
_cell_length_c                   12.2400(5)
_cell_angle_alpha                90
_cell_angle_beta                 95.695(2)
_cell_angle_gamma                90
_cell_volume                     2334.07
loop_
_atom_site_label
_atom_site_type_symbol
_atom_site_fract_x
_atom_site_fract_y
_atom_site_fract_z
Zn1 Zn 0.07980(4) 1.00722(2) 0.10573(3)
S1 S -0.41871(8) 0.89190(6) 0.00181(8)
S2 S -0.59619(9) 0.88921(6) 0.03420(9)
O1 O -0.0553(2) 0.93215(17) 0.1400(2)
O2 O -0.1759(2) 0.91937(16) -0.0164(2)
O3 O -0.8384(2) 0.91547(16) 0.0383(2)
O4 O -0.9592(3) 0.90437(17) -0.1170(2)
O7 O 0.1672(3) 1.01165(19) 0.2529(2)
C1 C -0.3411(3) 0.8310(2) 0.1041(3)
C2 C -0.3998(4) 0.7732(2) 0.1569(3)
H1 H -0.4823 0.7655 0.1387
C3 C -0.3385(4) 0.7266(2) 0.2362(3)
H2 H -0.3791 0.6872 0.2691
C4 C -0.2172(4) 0.7390(3) 0.2658(3)
H3 H -0.1754 0.7078 0.3188
C5 C -0.1582(4) 0.7974(2) 0.2171(3)
H4 H -0.0767 0.8062 0.2393
C6 C -0.2167(3) 0.8438(2) 0.1351(3)
C7 C -0.1440(3) 0.9037(2) 0.0825(3)
C8 C -0.6654(3) 0.8170(2) -0.0567(3)
C9 C -0.5983(4) 0.7580(2) -0.0985(3)
H5 H -0.5159 0.7541 -0.0766
C10 C -0.6524(4) 0.7050(2) -0.1717(4)
H6 H -0.6062 0.6658 -0.1988
C11 C -0.7735(4) 0.7096(3) -0.2050(4)
H7 H -0.8099 0.6733 -0.2539
C12 C -0.8410(4) 0.7681(2) -0.1657(4)
H8 H -0.9229 0.7717 -0.1900
C13 C -0.7899(3) 0.8221(2) -0.0905(3)
C14 C -0.8684(3) 0.8857(2) -0.0537(3)
H23 H 0.2430(18) 1.014(3) 0.264(4)
H24 H 0.141(4) 0.984(3) 0.302(3)
O2B O 0.1759(2) 1.08063(16) 0.0164(2)
O3_2 O 0.1616(2) 0.91547(16) 0.0383(2)
O4B O -0.0408(3) 1.09563(17) 0.1170(2)
Zn1B Zn -0.07980(4) 0.99278(2) -0.10573(3)
Zn1_2 Zn -0.92020(4) 1.00722(2) 0.10573(3)
Zn1B_2 Zn -1.07980(4) 0.99278(2) -0.10573(3)
O5 O 0.6026(4) 0.5253(4) 0.1808(5)
N1 N 0.4067(4) 0.5473(2) 0.1749(4)
C15 C 0.3857(9) 0.5905(5) 0.0815(7)
H9 H 0.4612 0.6011 0.0524
H10 H 0.3477 0.6384 0.0983
H11 H 0.3336 0.5624 0.0282
C16 C 0.3016(8) 0.5319(6) 0.2356(7)
H12 H 0.3285 0.5222 0.3113
H13 H 0.2588 0.4875 0.2048
H14 H 0.2487 0.5761 0.2303
C17 C 0.5092(7) 0.5223(4) 0.2174(6)
H15 H 0.5095 0.4987 0.2858
O6 O 1.0911(4) 0.9377(2) 0.4198(3)
N2 N 0.9378(4) 0.8761(3) 0.4929(3)
C18 C 0.8085(5) 0.8662(4) 0.4948(5)
H16 H 0.7666 0.8937 0.4343
H17 H 0.7844 0.8862 0.5625
H18 H 0.7887 0.8122 0.4889
C19 C 1.0156(7) 0.8415(5) 0.5798(5)
H19 H 1.0986 0.8505 0.5676
H20 H 1.0005 0.7868 0.5815
H21 H 0.9997 0.8641 0.6486
C20 C 0.9852(6) 0.9220(3) 0.4201(4)
H22 H 0.9319 0.9436 0.3651
loop_
_geom_bond_atom_site_label_1
_geom_bond_atom_site_label_2
_geom_bond_site_symmetry_1
_geom_bond_site_symmetry_2
Zn1 O1 1_555 1_555
S1 S2 1_555 1_555
S2 C8 1_555 1_555
O1 C7 1_555 1_555
O2 C7 1_555 1_555
O3 C14 1_555 1_555
O4 C14 1_555 1_555
O5 C17 1_555 1_555
O6 C20 1_555 1_555
O7 Zn1 1_555 1_555
N1 C15 1_555 1_555
N2 C18 1_555 1_555
C1 S1 1_555 1_555
C2 C1 1_555 1_555
H1 C2 1_555 1_555
C3 C2 1_555 1_555
H2 C3 1_555 1_555
C4 C3 1_555 1_555
H3 C4 1_555 1_555
C5 C4 1_555 1_555
H4 C5 1_555 1_555
C6 C1 1_555 1_555
C7 C6 1_555 1_555
C8 C9 1_555 1_555
C9 H5 1_555 1_555
C10 C9 1_555 1_555
H6 C10 1_555 1_555
C11 C10 1_555 1_555
H7 C11 1_555 1_555
C12 C11 1_555 1_555
H8 C12 1_555 1_555
C13 C8 1_555 1_555
C14 C13 1_555 1_555
C15 H9 1_555 1_555
H10 C15 1_555 1_555
H11 C15 1_555 1_555
C16 N1 1_555 1_555
H12 C16 1_555 1_555
H13 C16 1_555 1_555
H14 C16 1_555 1_555
C17 N1 1_555 1_555
H15 C17 1_555 1_555
C18 H16 1_555 1_555
H17 C18 1_555 1_555
H18 C18 1_555 1_555
C19 N2 1_555 1_555
H19 C19 1_555 1_555
H20 C19 1_555 1_555
H21 C19 1_555 1_555
C20 N2 1_555 1_555
H22 C20 1_555 1_555
H23 O7 1_555 1_555
H24 O7 1_555 1_555
O2B Zn1 1_555 1_555
O3_2 Zn1 1_555 1_555
O4B Zn1 1_555 1_555
Zn1B O2 1_555 1_555
Zn1_2 O3 1_555 1_555
Zn1B_2 O4 1_555 1_555
C5 C6 1_555 1_555
C12 C13 1_555 1_555

#END
