
#######################################################################
#
#                 Cambridge Crystallographic Data Centre
#                                CCDC 
#
#######################################################################
#
# If this CIF has been generated from an entry in the Cambridge 
# Structural Database, then it will include bibliographic, chemical, 
# crystal, experimental, refinement or atomic coordinate data resulting 
# from the CCDC's data processing and validation procedures.
#
#######################################################################

data_ASUBUL
_symmetry_cell_setting           monoclinic
_symmetry_space_group_name_H-M   'P 21'
_symmetry_Int_Tables_number      4
_space_group_name_Hall           'P 2yb'
loop_
_symmetry_equiv_pos_site_id
_symmetry_equiv_pos_as_xyz
1 x,y,z
2 -x,1/2+y,-z
_cell_length_a                   9.969(3)
_cell_length_b                   5.9346(16)
_cell_length_c                   20.823(6)
_cell_angle_alpha                90
_cell_angle_beta                 102.025(5)
_cell_angle_gamma                90
_cell_volume                     1204.9
loop_
_atom_site_label
_atom_site_type_symbol
_atom_site_fract_x
_atom_site_fract_y
_atom_site_fract_z
Na1 Na -0.10398(10) 0.48664(18) 0.00061(5)
Na2 Na -0.40560(10) 0.25104(19) -0.00854(5)
O1 O -0.33202(19) 0.5662(3) -0.05815(9)
O2 O -0.06803(19) 0.8436(3) 0.04241(9)
O3 O -0.43654(18) 0.8879(4) -0.04611(9)
C1 C -0.7203(3) 1.1676(5) -0.33536(13)
H1 H -0.7657 1.3092 -0.3332
C2 C 0.1576(3) 1.1591(6) 0.36098(14)
H2 H 0.1415 1.2942 0.3836
C3 C -0.6072(3) 1.1051(5) -0.28458(12)
C4 C 0.0641(3) 1.0937(5) 0.30248(13)
C5 C -0.5566(3) 1.2458(5) -0.23121(13)
H3 H -0.5955 1.3931 -0.2296
C6 C -0.0535(3) 1.2190(5) 0.27568(14)
H4 H -0.0733 1.3544 0.2971
C7 C -0.1408(3) 1.1498(6) 0.21891(13)
H5 H -0.2216 1.2368 0.2020
C8 C -0.4528(3) 1.1775(5) -0.18137(13)
H6 H -0.4186 1.2794 -0.1459
C9 C -0.3950(3) 0.9616(5) -0.18078(12)
C10 C -0.1147(3) 0.9551(5) 0.18498(13)
C11 C -0.0021(3) 0.8306(5) 0.21093(13)
H7 H 0.0160 0.6957 0.1888
C12 C -0.4387(3) 0.8258(5) -0.23407(13)
H8 H -0.3970 0.6805 -0.2354
C13 C -0.5436(3) 0.8935(5) -0.28734(13)
C14 C 0.0899(3) 0.8942(5) 0.27003(13)
C15 C 0.2085(3) 0.7654(7) 0.29674(15)
H9 H 0.2275 0.6296 0.2752
C16 C -0.5879(3) 0.7558(6) -0.34292(14)
H10 H -0.5418 0.6160 -0.3468
C17 C -0.6955(3) 0.8202(7) -0.39107(16)
H11 H -0.7254 0.7240 -0.4284
C18 C 0.2944(3) 0.8331(7) 0.35220(16)
H12 H 0.3741 0.7441 0.3696
C19 C 0.2705(3) 1.0296(7) 0.38501(15)
C20 C -0.7638(3) 1.0262(6) -0.38696(14)
C21 C -0.2102(3) 0.8931(5) 0.12103(13)
H13 H -0.2946 0.9733 0.1191
C22 C -0.2871(3) 0.8862(5) -0.12182(12)
H14 H -0.2446 1.0203 -0.1011
C23 C -0.3570(2) 0.7688(5) -0.07157(12)
C24 C -0.1486(2) 0.9747(5) 0.06357(12)
C25 C -0.2440(3) 0.6429(5) 0.11613(15)
H15 H -0.2860 0.6000 0.1518
H16 H -0.1612 0.5579 0.1183
H17 H -0.3060 0.6129 0.0752
C26 C -0.1741(3) 0.7452(6) -0.14027(14)
H18 H -0.1412 0.8179 -0.1752
H19 H -0.2094 0.5990 -0.1545
H20 H -0.1001 0.7296 -0.1028
C27 C -0.9586(4) 1.2517(8) -0.43119(19)
H21 H -0.9056 1.3876 -0.4291
H22 H -0.9938 1.2371 -0.3919
H23 H -1.0335 1.2577 -0.4685
C28 C 0.3550(5) 1.2839(9) 0.4724(2)
H24 H 0.2704 1.2867 0.4876
H25 H 0.3563 1.4062 0.4424
H26 H 0.4305 1.2991 0.5092
O4 O -0.8740(2) 1.0633(5) -0.43720(11)
O5 O 0.3664(3) 1.0764(6) 0.44008(12)
O6 O -0.17852(19) 1.1665(3) 0.04152(9)
O2A O 0.06803(19) 0.3436(3) -0.04241(9)
O6_2 O -0.17852(19) 0.1665(3) 0.04152(9)
O3_2 O -0.43654(18) -0.1121(4) -0.04611(9)
O3A O -0.56346(18) 0.3879(4) 0.04611(9)
Na1A Na 0.10398(10) 0.98664(18) -0.00061(5)
Na2_2 Na -0.40560(10) 1.25104(19) -0.00854(5)
Na2A Na -0.59440(10) 0.75104(19) 0.00854(5)
Na1_2 Na -0.10398(10) 1.48664(18) 0.00061(5)
loop_
_geom_bond_atom_site_label_1
_geom_bond_atom_site_label_2
_geom_bond_site_symmetry_1
_geom_bond_site_symmetry_2
Na1 O1 1_555 1_555
Na2 O1 1_555 1_555
O1 C23 1_555 1_555
O2 Na1 1_555 1_555
O3 C23 1_555 1_555
C1 H1 1_555 1_555
C2 H2 1_555 1_555
C3 C1 1_555 1_555
C4 C2 1_555 1_555
C5 C3 1_555 1_555
H3 C5 1_555 1_555
C6 C4 1_555 1_555
H4 C6 1_555 1_555
C7 C6 1_555 1_555
H5 C7 1_555 1_555
C8 C5 1_555 1_555
H6 C8 1_555 1_555
C9 C8 1_555 1_555
C10 C7 1_555 1_555
C11 C10 1_555 1_555
H7 C11 1_555 1_555
C12 C9 1_555 1_555
H8 C12 1_555 1_555
C13 C3 1_555 1_555
C14 C4 1_555 1_555
C15 C14 1_555 1_555
H9 C15 1_555 1_555
C16 C13 1_555 1_555
H10 C16 1_555 1_555
C17 C16 1_555 1_555
H11 C17 1_555 1_555
C18 C15 1_555 1_555
H12 C18 1_555 1_555
C19 C2 1_555 1_555
C20 C1 1_555 1_555
C21 C10 1_555 1_555
H13 C21 1_555 1_555
C22 C9 1_555 1_555
H14 C22 1_555 1_555
C23 C22 1_555 1_555
C24 O2 1_555 1_555
C25 C21 1_555 1_555
H15 C25 1_555 1_555
H16 C25 1_555 1_555
H17 C25 1_555 1_555
C26 C22 1_555 1_555
H18 C26 1_555 1_555
H19 C26 1_555 1_555
H20 C26 1_555 1_555
C27 H21 1_555 1_555
H22 C27 1_555 1_555
H23 C27 1_555 1_555
C28 H24 1_555 1_555
H25 C28 1_555 1_555
H26 C28 1_555 1_555
O4 C20 1_555 1_555
O5 C19 1_555 1_555
O6 C24 1_555 1_555
O2A Na1 1_555 1_555
O6_2 Na1 1_555 1_555
O3_2 Na2 1_555 1_555
O3A Na2 1_555 1_555
Na1A O2 1_555 1_555
Na2_2 O3 1_555 1_555
Na2A O3 1_555 1_555
Na1_2 O6 1_555 1_555
Na2 O6_2 1_555 1_555
C11 C14 1_555 1_555
C12 C13 1_555 1_555
C17 C20 1_555 1_555
C18 C19 1_555 1_555
C21 C24 1_555 1_555
C27 O4 1_555 1_555
C28 O5 1_555 1_555
O6 Na2_2 1_555 1_555
O3A Na2A 1_555 1_555

#END
