
#######################################################################
#
#                 Cambridge Crystallographic Data Centre
#                                CCDC 
#
#######################################################################
#
# If this CIF has been generated from an entry in the Cambridge 
# Structural Database, then it will include bibliographic, chemical, 
# crystal, experimental, refinement or atomic coordinate data resulting 
# from the CCDC's data processing and validation procedures.
#
#######################################################################

data_ASUCAS
_symmetry_cell_setting           triclinic
_symmetry_space_group_name_H-M   'P -1'
_symmetry_Int_Tables_number      2
_space_group_name_Hall           '-P 1'
loop_
_symmetry_equiv_pos_site_id
_symmetry_equiv_pos_as_xyz
1 x,y,z
2 -x,-y,-z
_cell_length_a                   7.6362(6)
_cell_length_b                   8.8697(9)
_cell_length_c                   10.3970(10)
_cell_angle_alpha                81.572(8)
_cell_angle_beta                 71.486(8)
_cell_angle_gamma                82.921(7)
_cell_volume                     658.329
loop_
_atom_site_label
_atom_site_type_symbol
_atom_site_fract_x
_atom_site_fract_y
_atom_site_fract_z
Li1 Li 0.4525(5) -0.1728(4) 0.8897(4)
Li2 Li 0.6333(5) -0.6739(5) 0.6222(4)
S1 S 0.60079(7) -0.30511(7) 0.58773(6)
O1 O 0.6690(2) -0.46386(19) 0.6004(2)
O2 O 0.5455(3) -0.2402(3) 0.71499(19)
O3 O 0.4588(2) -0.2755(2) 0.5206(2)
C1 C 0.7937(3) -0.2079(2) 0.4808(2)
C2 C 0.7704(3) -0.0658(3) 0.4112(2)
C3 C 0.9271(4) 0.0046(3) 0.3330(3)
C4 C 1.1000(3) -0.0696(3) 0.3236(2)
N1 N 1.1234(3) -0.2072(2) 0.3902(2)
C5 C 0.9713(3) -0.2739(2) 0.4676(2)
S2 S 0.33457(7) 0.18748(6) 0.90474(6)
O4 O 0.4717(2) 0.2681(3) 0.7986(2)
O5 O 0.3245(3) 0.0326(2) 0.8825(2)
O6 O 0.3489(2) 0.1966(2) 1.03882(18)
C6 C 0.1181(3) 0.2859(2) 0.9025(2)
C7 C 0.1087(3) 0.4251(3) 0.8247(2)
C8 C -0.0667(3) 0.4959(3) 0.8303(3)
C9 C -0.2201(3) 0.4241(3) 0.9101(3)
N2 N -0.2129(2) 0.2894(2) 0.9866(2)
C10 C -0.0436(3) 0.2226(3) 0.9812(2)
H1 H 0.6467 -0.0106 0.4071
H2 H 0.9188 0.1054 0.2754
H3 H 0.9905 -0.3666 0.5188
H4 H 0.2144 0.4775 0.7754
H5 H -0.0746 0.6023 0.7707
H6 H -0.3498 0.4654 0.9113
H7 H -0.0330 0.1184 1.0350
H8 H 1.2110 -0.0149 0.2743
O6A O 0.6511(2) -0.1966(2) 0.96118(18)
N2A N 0.2129(2) -0.2894(2) 1.0134(2)
O3A O 0.5412(2) -0.7245(2) 0.4794(2)
N1A N 0.8766(3) -0.7928(2) 0.6098(2)
O4_2 O 0.4717(2) -0.7319(3) 0.7986(2)
Li2A Li 0.3667(5) -0.3261(5) 0.3778(4)
Li2A_2 Li 1.3667(5) -0.3261(5) 0.3778(4)
Li2_2 Li 0.6333(5) 0.3261(5) 0.6222(4)
Li1A Li 0.5475(5) 0.1728(4) 1.1103(4)
Li1A_2 Li -0.4525(5) 0.1728(4) 1.1103(4)
loop_
_geom_bond_atom_site_label_1
_geom_bond_atom_site_label_2
_geom_bond_site_symmetry_1
_geom_bond_site_symmetry_2
Li1 O2 1_555 1_555
Li2 O1 1_555 1_555
S1 O1 1_555 1_555
O2 S1 1_555 1_555
O3 S1 1_555 1_555
C1 S1 1_555 1_555
C2 C1 1_555 1_555
C3 C2 1_555 1_555
C4 C3 1_555 1_555
N1 C4 1_555 1_555
C5 C1 1_555 1_555
S2 O4 1_555 1_555
O4 Li2_2 1_555 1_555
O5 Li1 1_555 1_555
O6 S2 1_555 1_555
C6 S2 1_555 1_555
C7 C6 1_555 1_555
C8 C7 1_555 1_555
C9 C8 1_555 1_555
N2 C9 1_555 1_555
C10 C6 1_555 1_555
H1 C2 1_555 1_555
H2 C3 1_555 1_555
H3 C5 1_555 1_555
H4 C7 1_555 1_555
H5 C8 1_555 1_555
H6 C9 1_555 1_555
H7 C10 1_555 1_555
H8 C4 1_555 1_555
O6A Li1 1_555 1_555
N2A Li1 1_555 1_555
O3A Li2 1_555 1_555
N1A Li2 1_555 1_555
O4_2 Li2 1_555 1_555
Li2A O3 1_555 1_555
Li2A_2 N1 1_555 1_555
Li1A O6 1_555 1_555
Li1A_2 N2 1_555 1_555
N1 C5 1_555 1_555
S2 O5 1_555 1_555
N2 C10 1_555 1_555

#END
