
#######################################################################
#
#                 Cambridge Crystallographic Data Centre
#                                CCDC 
#
#######################################################################
#
# If this CIF has been generated from an entry in the Cambridge 
# Structural Database, then it will include bibliographic, chemical, 
# crystal, experimental, refinement or atomic coordinate data resulting 
# from the CCDC's data processing and validation procedures.
#
#######################################################################

data_ASUGAW01
_symmetry_cell_setting           monoclinic
_symmetry_space_group_name_H-M   'P 2/n'
_symmetry_Int_Tables_number      13
_space_group_name_Hall           '-P 2yac'
loop_
_symmetry_equiv_pos_site_id
_symmetry_equiv_pos_as_xyz
1 x,y,z
2 1/2-x,y,1/2-z
3 -x,-y,-z
4 1/2+x,-y,1/2+z
_cell_length_a                   8.515(5)
_cell_length_b                   12.058(5)
_cell_length_c                   17.046(5)
_cell_angle_alpha                90
_cell_angle_beta                 101.675(5)
_cell_angle_gamma                90
_cell_volume                     1713.97
loop_
_atom_site_label
_atom_site_type_symbol
_atom_site_fract_x
_atom_site_fract_y
_atom_site_fract_z
Co1 Co 0.94499(6) 0.29237(4) 0.83603(3)
O1 O 0.7188(3) 0.3498(2) 0.83465(17)
O2 O 0.5146(3) 0.4154(2) 0.74369(17)
O3 O 0.9568(3) 0.6100(2) 1.05916(17)
O4 O 0.7984(3) 0.7298(2) 1.10058(17)
O5 O 0.2921(3) 0.7273(2) 0.88813(18)
H1 H 0.2303 0.7044 0.8481
N1 N 0.9866(4) 0.1561(3) 0.7650(2)
N2 N 0.8733(4) 0.1562(3) 0.8992(2)
C1 C 1.0518(5) 0.1584(3) 0.7011(3)
H2 H 1.0740 0.2269 0.6806
C2 C 1.0896(5) 0.0607(4) 0.6624(3)
H3 H 1.1357 0.0652 0.6175
C3 C 1.0570(5) -0.0404(3) 0.6921(3)
H4 H 1.0795 -0.1051 0.6669
C4 C 0.9895(5) -0.0465(3) 0.7611(3)
C5 C 0.9509(5) -0.1472(3) 0.7970(3)
H5 H 0.9709 -0.2146 0.7742
C6 C 0.8857(5) -0.1473(3) 0.8634(3)
H6 H 0.8616 -0.2143 0.8852
C7 C 0.8537(5) -0.0456(3) 0.9000(3)
C8 C 0.7910(5) -0.0375(3) 0.9702(3)
H7 H 0.7650 -0.1017 0.9951
C9 C 0.7679(5) 0.0643(3) 1.0021(3)
H8 H 0.7242 0.0699 1.0478
C10 C 0.8118(5) 0.1603(3) 0.9642(3)
H9 H 0.7967 0.2293 0.9860
C11 C 0.8924(4) 0.0555(3) 0.8674(2)
C12 C 0.9578(5) 0.0553(3) 0.7958(2)
C13 C 0.6086(5) 0.4195(3) 0.8117(3)
C14 C 0.5861(5) 0.5112(3) 0.8674(2)
C15 C 0.4468(5) 0.5748(3) 0.8518(3)
H10 H 0.3664 0.5589 0.8076
C16 C 0.4280(5) 0.6625(3) 0.9025(3)
C17 C 0.5473(5) 0.6874(3) 0.9676(3)
H11 H 0.5338 0.7458 1.0012
C18 C 0.6896(5) 0.6247(3) 0.9833(2)
C19 C 0.7071(5) 0.5355(3) 0.9338(2)
H12 H 0.7993 0.4921 0.9449
C20 C 0.8203(5) 0.6571(3) 1.0512(3)
Co1A Co 0.55501(6) 0.29237(4) 0.66397(3)
Co1B Co 1.05501(6) 0.70763(4) 1.16397(3)
O2A O 0.9854(3) 0.4154(2) 0.75631(17)
O3B O 1.0432(3) 0.3900(2) 0.94084(17)
O4B O 1.2016(3) 0.2702(2) 0.89942(17)
O6 O 0.0377(4) 0.5982(2) 0.85693(19)
loop_
_geom_bond_atom_site_label_1
_geom_bond_atom_site_label_2
_geom_bond_site_symmetry_1
_geom_bond_site_symmetry_2
Co1 O1 1_555 1_555
O1 C13 1_555 1_555
O2 C13 1_555 1_555
O3 C20 1_555 1_555
O4 C20 1_555 1_555
O5 H1 1_555 1_555
N1 Co1 1_555 1_555
N2 Co1 1_555 1_555
C1 N1 1_555 1_555
H2 C1 1_555 1_555
C2 C1 1_555 1_555
H3 C2 1_555 1_555
C3 C2 1_555 1_555
H4 C3 1_555 1_555
C4 C3 1_555 1_555
C5 C4 1_555 1_555
H5 C5 1_555 1_555
C6 C5 1_555 1_555
H6 C6 1_555 1_555
C7 C6 1_555 1_555
C8 C7 1_555 1_555
H7 C8 1_555 1_555
C9 C8 1_555 1_555
H8 C9 1_555 1_555
C10 N2 1_555 1_555
H9 C10 1_555 1_555
C11 N2 1_555 1_555
C12 N1 1_555 1_555
C13 C14 1_555 1_555
C14 C15 1_555 1_555
C15 H10 1_555 1_555
C16 O5 1_555 1_555
C17 C16 1_555 1_555
H11 C17 1_555 1_555
C18 C17 1_555 1_555
C19 C14 1_555 1_555
H12 C19 1_555 1_555
C20 C18 1_555 1_555
Co1A O2 1_555 1_555
Co1B O3 1_555 1_555
O2A Co1 1_555 1_555
O3B Co1 1_555 1_555
O4B Co1 1_555 1_555
O4 Co1B 1_555 1_555
C4 C12 1_555 1_555
C7 C11 1_555 1_555
C9 C10 1_555 1_555
C11 C12 1_555 1_555
C15 C16 1_555 1_555
C18 C19 1_555 1_555

#END
