
#######################################################################
#
#                 Cambridge Crystallographic Data Centre
#                                CCDC 
#
#######################################################################
#
# If this CIF has been generated from an entry in the Cambridge 
# Structural Database, then it will include bibliographic, chemical, 
# crystal, experimental, refinement or atomic coordinate data resulting 
# from the CCDC's data processing and validation procedures.
#
#######################################################################

data_ASUGOK
_symmetry_cell_setting           monoclinic
_symmetry_space_group_name_H-M   'P 21/c'
_symmetry_Int_Tables_number      14
_space_group_name_Hall           '-P 2ybc'
loop_
_symmetry_equiv_pos_site_id
_symmetry_equiv_pos_as_xyz
1 x,y,z
2 x,1/2-y,1/2+z
3 -x,-y,-z
4 -x,1/2+y,1/2-z
_cell_length_a                   6.9009(2)
_cell_length_b                   31.1833(9)
_cell_length_c                   10.7808(3)
_cell_angle_alpha                90
_cell_angle_beta                 98.3120(10)
_cell_angle_gamma                90
_cell_volume                     2295.58
loop_
_atom_site_label
_atom_site_type_symbol
_atom_site_fract_x
_atom_site_fract_y
_atom_site_fract_z
Cu1 Cu 0.17475(4) 0.620016(9) 0.08646(3)
O1 O 0.1552(3) 0.65439(6) 0.23691(19)
O2 O -0.1451(3) 0.62753(6) 0.2188(2)
O3 O 0.0544(3) 0.83322(6) 0.48437(19)
O4 O 0.3102(3) 0.78868(7) 0.4960(2)
O5 O 0.4928(3) 0.63671(7) 0.0615(2)
H1 H 0.4992 0.6621 0.0425
H2 H 0.5620 0.6366 0.1300
N1 N 0.2378(3) 0.56465(7) 0.1782(2)
N2 N 0.1606(3) 0.58028(7) -0.0637(2)
C1 C 0.2737(5) 0.55781(10) 0.3010(3)
H3 H 0.2666 0.5807 0.3553
C2 C 0.3218(5) 0.51730(12) 0.3510(3)
H4 H 0.3443 0.5135 0.4375
C3 C 0.3359(5) 0.48348(10) 0.2744(3)
H5 H 0.3699 0.4566 0.3079
C4 C 0.2989(4) 0.48918(8) 0.1442(3)
C5 C 0.3075(4) 0.45589(9) 0.0522(4)
H6 H 0.3415 0.4282 0.0790
C6 C 0.2676(4) 0.46394(9) -0.0708(4)
H7 H 0.2743 0.4417 -0.1275
C7 C 0.2147(4) 0.50609(9) -0.1173(3)
C8 C 0.1721(4) 0.51709(11) -0.2445(3)
H8 H 0.1753 0.4963 -0.3059
C9 C 0.1257(5) 0.55848(12) -0.2778(3)
H9 H 0.0975 0.5660 -0.3619
C10 C 0.1211(4) 0.58935(10) -0.1846(3)
H10 H 0.0890 0.6174 -0.2084
C11 C 0.2064(3) 0.53919(8) -0.0306(2)
C12 C 0.2489(3) 0.53049(8) 0.1009(3)
C13 C -0.0204(4) 0.65528(8) 0.2586(2)
C14 C -0.0804(4) 0.69192(8) 0.3353(2)
C15 C 0.0504(4) 0.72539(8) 0.3724(2)
H11 H 0.1774 0.7242 0.3532
C16 C -0.0081(4) 0.76028(8) 0.4374(2)
C17 C -0.1975(4) 0.76158(9) 0.4676(3)
H12 H -0.2375 0.7848 0.5116
C18 C -0.3263(4) 0.72828(10) 0.4322(3)
H13 H -0.4526 0.7292 0.4527
C19 C -0.2687(4) 0.69376(9) 0.3669(3)
H14 H -0.3561 0.6715 0.3437
C20 C 0.1335(4) 0.79641(8) 0.4763(2)
O3A O 0.0544(3) 0.66678(6) -0.01563(19)
Cu1A Cu 0.17475(4) 0.879984(9) 0.58646(3)
O6 O 0.4930(5) 0.60213(9) 0.5488(3)
N3 N 0.4726(6) 0.66380(10) 0.6575(3)
C21 C 0.4160(5) 0.63539(10) 0.5687(3)
H15 H 0.3021 0.6420 0.5149
C22 C 0.3270(5) 0.69863(10) 0.6817(3)
H16 H 0.2156 0.6977 0.6171
H17 H 0.3888 0.7262 0.6814
H18 H 0.2851 0.6938 0.7616
C23 C 0.6582(5) 0.65719(10) 0.7405(3)
H19 H 0.6961 0.6276 0.7377
H20 H 0.6423 0.6647 0.8248
H21 H 0.7578 0.6749 0.7134
O7 O 0.8216(6) 0.57293(11) 0.4354(3)
H22 H 0.818(14) 0.588(3) 0.374(7)
H23 H 0.749(13) 0.590(3) 0.465(9)
loop_
_geom_bond_atom_site_label_1
_geom_bond_atom_site_label_2
_geom_bond_site_symmetry_1
_geom_bond_site_symmetry_2
Cu1 O1 1_555 1_555
O1 C13 1_555 1_555
O2 C13 1_555 1_555
O3 C20 1_555 1_555
O4 C20 1_555 1_555
O5 Cu1 1_555 1_555
H1 O5 1_555 1_555
H2 O5 1_555 1_555
O6 C21 1_555 1_555
O7 H22 1_555 1_555
N1 Cu1 1_555 1_555
N2 Cu1 1_555 1_555
N3 C21 1_555 1_555
C1 N1 1_555 1_555
H3 C1 1_555 1_555
C2 C1 1_555 1_555
H4 C2 1_555 1_555
C3 C2 1_555 1_555
H5 C3 1_555 1_555
C4 C3 1_555 1_555
C5 C4 1_555 1_555
H6 C5 1_555 1_555
C6 C5 1_555 1_555
H7 C6 1_555 1_555
C7 C6 1_555 1_555
C8 C7 1_555 1_555
H8 C8 1_555 1_555
C9 C8 1_555 1_555
H9 C9 1_555 1_555
C10 N2 1_555 1_555
H10 C10 1_555 1_555
C11 N2 1_555 1_555
C12 N1 1_555 1_555
C13 C14 1_555 1_555
C14 C15 1_555 1_555
C15 H11 1_555 1_555
C16 C15 1_555 1_555
C17 C16 1_555 1_555
H12 C17 1_555 1_555
C18 C17 1_555 1_555
H13 C18 1_555 1_555
C19 C14 1_555 1_555
H14 C19 1_555 1_555
C20 C16 1_555 1_555
C21 H15 1_555 1_555
C22 N3 1_555 1_555
H16 C22 1_555 1_555
H17 C22 1_555 1_555
H18 C22 1_555 1_555
C23 N3 1_555 1_555
H19 C23 1_555 1_555
H20 C23 1_555 1_555
H21 C23 1_555 1_555
H23 O7 1_555 1_555
O3A Cu1 1_555 1_555
Cu1A O3 1_555 1_555
C4 C12 1_555 1_555
C7 C11 1_555 1_555
C9 C10 1_555 1_555
C11 C12 1_555 1_555
C18 C19 1_555 1_555

#END
