
#######################################################################
#
#                 Cambridge Crystallographic Data Centre
#                                CCDC 
#
#######################################################################
#
# If this CIF has been generated from an entry in the Cambridge 
# Structural Database, then it will include bibliographic, chemical, 
# crystal, experimental, refinement or atomic coordinate data resulting 
# from the CCDC's data processing and validation procedures.
#
#######################################################################

data_ASUGAW
_symmetry_cell_setting           monoclinic
_symmetry_space_group_name_H-M   'P 2/n'
_symmetry_Int_Tables_number      13
_space_group_name_Hall           '-P 2yac'
loop_
_symmetry_equiv_pos_site_id
_symmetry_equiv_pos_as_xyz
1 x,y,z
2 1/2-x,y,1/2-z
3 -x,-y,-z
4 1/2+x,-y,1/2+z
_cell_length_a                   8.5218(10)
_cell_length_b                   12.0440(10)
_cell_length_c                   17.028(2)
_cell_angle_alpha                90
_cell_angle_beta                 101.599(5)
_cell_angle_gamma                90
_cell_volume                     1712.01
loop_
_atom_site_label
_atom_site_type_symbol
_atom_site_fract_x
_atom_site_fract_y
_atom_site_fract_z
Co1 Co 0.94458(2) 0.707696(16) 0.836120(12)
O1 O 1.04286(14) 0.61031(10) 0.94143(7)
O2 O 1.20135(14) 0.72981(10) 0.89943(7)
O3 O 1.28121(14) 0.35010(9) 1.16517(7)
O4 O 1.48499(14) 0.41534(9) 1.25678(7)
O5 O 1.70698(14) 0.72769(10) 1.11247(7)
H1 H 1.7694 0.7047 1.1522
N1 N 0.87222(16) 0.84353(11) 0.89923(8)
N2 N 0.98605(16) 0.84364(11) 0.76536(8)
C1 C 0.8110(2) 0.83948(14) 0.96494(10)
H2 H 0.7962 0.7707 0.9871
C2 C 0.7678(2) 0.93565(14) 1.00198(10)
H3 H 0.7239 0.9300 1.0476
C3 C 0.7905(2) 1.03836(14) 0.97075(11)
H4 H 0.7643 1.1026 0.9956
C4 C 0.85406(19) 1.04505(13) 0.90044(10)
C5 C 0.89154(18) 0.94411(13) 0.86711(9)
C6 C 0.95709(18) 0.94439(13) 0.79567(9)
C7 C 1.0520(2) 0.84146(14) 0.70115(10)
H5 H 1.0743 0.7731 0.6805
C8 C 1.0894(2) 0.93823(15) 0.66328(10)
H6 H 1.1357 0.9334 0.6184
C9 C 1.0575(2) 1.04046(14) 0.69254(11)
H7 H 1.0810 1.1052 0.6674
C10 C 0.98880(19) 1.04567(13) 0.76109(10)
C11 C 0.8854(2) 1.14753(13) 0.86362(11)
H8 H 0.8611 1.2146 0.8855
C12 C 0.9505(2) 1.14755(13) 0.79687(10)
H9 H 0.9706 1.2148 0.7740
C13 C 1.31081(18) 0.62554(13) 1.01747(9)
C14 C 1.29223(18) 0.53605(13) 1.06673(9)
H10 H 1.1998 0.4930 1.0557
C15 C 1.41352(19) 0.51145(13) 1.13284(9)
C16 C 1.55351(18) 0.57484(14) 1.14841(10)
H11 H 1.6340 0.5583 1.1924
C17 C 1.57282(19) 0.66263(13) 1.09826(10)
C18 C 1.45144(19) 0.68846(13) 1.03276(10)
H12 H 1.4641 0.7474 0.9993
C19 C 1.17867(19) 0.65672(13) 0.94844(9)
C20 C 1.39047(18) 0.41902(13) 1.18856(9)
O3B O 0.71879(14) 0.64990(9) 0.83483(7)
O4C O 0.98499(14) 0.58466(9) 0.75678(7)
Co1B Co 1.05542(2) 0.292304(16) 1.163880(12)
Co1C Co 1.44458(2) 0.292304(16) 1.336120(12)
O6 O 1.03872(16) 0.40105(11) 0.85694(10)
H13 H 1.039(4) 0.431(2) 0.8957(19)
H14 H 1.031(4) 0.452(3) 0.820(2)
loop_
_geom_bond_atom_site_label_1
_geom_bond_atom_site_label_2
_geom_bond_site_symmetry_1
_geom_bond_site_symmetry_2
Co1 O1 1_555 1_555
O1 C19 1_555 1_555
O2 Co1 1_555 1_555
O3 C20 1_555 1_555
O4 C20 1_555 1_555
O5 H1 1_555 1_555
N1 Co1 1_555 1_555
N2 Co1 1_555 1_555
C1 N1 1_555 1_555
H2 C1 1_555 1_555
C2 C1 1_555 1_555
H3 C2 1_555 1_555
C3 C2 1_555 1_555
H4 C3 1_555 1_555
C4 C3 1_555 1_555
C5 N1 1_555 1_555
C6 N2 1_555 1_555
C7 N2 1_555 1_555
H5 C7 1_555 1_555
C8 C7 1_555 1_555
H6 C8 1_555 1_555
C9 C8 1_555 1_555
H7 C9 1_555 1_555
C10 C6 1_555 1_555
C11 C4 1_555 1_555
H8 C11 1_555 1_555
C12 C10 1_555 1_555
H9 C12 1_555 1_555
C13 C14 1_555 1_555
C14 H10 1_555 1_555
C15 C14 1_555 1_555
C16 C15 1_555 1_555
H11 C16 1_555 1_555
C17 O5 1_555 1_555
C18 C13 1_555 1_555
H12 C18 1_555 1_555
C19 O2 1_555 1_555
C20 C15 1_555 1_555
O6 H13 1_555 1_555
H14 O6 1_555 1_555
O3B Co1 1_555 1_555
O4C Co1 1_555 1_555
Co1B O3 1_555 1_555
Co1C O4 1_555 1_555
C4 C5 1_555 1_555
C5 C6 1_555 1_555
C9 C10 1_555 1_555
C11 C12 1_555 1_555
C13 C19 1_555 1_555
C16 C17 1_555 1_555
C17 C18 1_555 1_555

#END
