
#######################################################################
#
#                 Cambridge Crystallographic Data Centre
#                                CCDC 
#
#######################################################################
#
# If this CIF has been generated from an entry in the Cambridge 
# Structural Database, then it will include bibliographic, chemical, 
# crystal, experimental, refinement or atomic coordinate data resulting 
# from the CCDC's data processing and validation procedures.
#
#######################################################################

data_ASUKEE
_symmetry_cell_setting           orthorhombic
_symmetry_space_group_name_H-M   'F d d d'
_symmetry_Int_Tables_number      70
_space_group_name_Hall           '-F 2uv 2vw'
loop_
_symmetry_equiv_pos_site_id
_symmetry_equiv_pos_as_xyz
1 x,y,z
2 x,1/2+y,1/2+z
3 x,1/4-y,1/4-z
4 1/2+x,y,1/2+z
5 1/4-x,y,1/4-z
6 1/2+x,1/2+y,z
7 1/4-x,1/4-y,z
8 1/4+x,1/4+y,-z
9 1/4+x,-y,1/4+z
10 -x,1/4+y,1/4+z
11 1/4+x,3/4+y,1/2-z
12 1/4+x,1/2-y,3/4+z
13 3/4+x,1/4+y,1/2-z
14 1/2-x,1/4+y,3/4+z
15 3/4+x,1/2-y,1/4+z
16 1/2-x,3/4+y,1/4+z
17 -x,-y,-z
18 -x,1/2-y,1/2-z
19 -x,3/4+y,3/4+z
20 1/2-x,-y,1/2-z
21 3/4+x,-y,3/4+z
22 1/2-x,1/2-y,-z
23 3/4+x,3/4+y,-z
24 3/4-x,3/4-y,z
25 3/4-x,y,3/4-z
26 x,3/4-y,3/4-z
27 3/4-x,1/4-y,1/2+z
28 3/4-x,1/2+y,1/4-z
29 1/4-x,3/4-y,1/2+z
30 1/2+x,3/4-y,1/4-z
31 1/4-x,1/2+y,3/4-z
32 1/2+x,1/4-y,3/4-z
_cell_length_a                   18.7770(8)
_cell_length_b                   23.3593(13)
_cell_length_c                   30.4231(16)
_cell_angle_alpha                90
_cell_angle_beta                 90
_cell_angle_gamma                90
_cell_volume                     13344.1
loop_
_atom_site_label
_atom_site_type_symbol
_atom_site_fract_x
_atom_site_fract_y
_atom_site_fract_z
Cu1 Cu 0.23583(4) 0.36023(3) 0.12145(2)
N1 N 0.2878(2) 0.40542(18) 0.16730(14)
N2 N 0.4371(2) 0.58827(17) 0.32842(14)
N3 N 0.2292(2) 0.27642(18) 0.12170(13)
C1 C 0.3266(3) 0.4513(2) 0.15647(17)
H1 H 0.3336 0.4590 0.1268
C2 C 0.3564(3) 0.4875(2) 0.18631(18)
H2 H 0.3822 0.5191 0.1767
C3 C 0.2809(3) 0.3951(2) 0.21022(18)
H3 H 0.2555 0.3628 0.2187
C4 C 0.3090(3) 0.4291(2) 0.24246(17)
H4 H 0.3019 0.4200 0.2719
C5 C 0.3484(3) 0.4774(2) 0.23094(16)
C6 C 0.3795(2) 0.5151(2) 0.26475(17)
C7 C 0.4042(3) 0.4946(2) 0.30455(17)
H5 H 0.4020 0.4557 0.3107
C8 C 0.4321(3) 0.5315(2) 0.33479(17)
H6 H 0.4484 0.5166 0.3613
C9 C 0.3856(3) 0.5741(2) 0.25745(18)
H7 H 0.3709 0.5898 0.2309
C10 C 0.4136(3) 0.6085(2) 0.28969(18)
H8 H 0.4164 0.6477 0.2845
C11 C 0.2499(3) 0.2454(2) 0.08708(18)
H9 H 0.2644 0.2644 0.0618
C12 C 0.2506(3) 0.1863(2) 0.08723(18)
H10 H 0.2651 0.1664 0.0623
C13 C 0.2077(3) 0.2476(2) 0.15745(18)
H11 H 0.1918 0.2684 0.1816
C14 C 0.2079(3) 0.1889(2) 0.15999(17)
H12 H 0.1935 0.1709 0.1857
C15 C 0.2296(3) 0.1568(2) 0.12447(16)
C15B C 0.2296(3) 0.0932(2) 0.12553(16)
C12B C 0.2506(3) 0.0637(2) 0.16277(18)
C11B C 0.2499(3) 0.0046(2) 0.16292(18)
N3B N 0.2292(2) -0.02642(18) 0.12830(13)
C13B C 0.2077(3) 0.0024(2) 0.09255(18)
H11B H 0.1918 -0.0184 0.0684
C14B C 0.2079(3) 0.0611(2) 0.09001(17)
H12B H 0.1935 0.0791 0.0643
H9B H 0.2644 -0.0144 0.1882
H10B H 0.2651 0.0836 0.1877
N1T N 0.0378(2) 0.59458(18) -0.08270(14)
N2T N 0.1871(2) 0.41173(17) 0.07842(14)
C1T C 0.0766(3) 0.5487(2) -0.09353(17)
H1T H 0.0836 0.5410 -0.1232
C2T C 0.1064(3) 0.5125(2) -0.06369(18)
H2T H 0.1322 0.4809 -0.0733
C3T C 0.0309(3) 0.6049(2) -0.03978(18)
H3T H 0.0055 0.6372 -0.0313
C4T C 0.0590(3) 0.5709(2) -0.00754(17)
H4T H 0.0519 0.5800 0.0219
C5T C 0.0984(3) 0.5226(2) -0.01906(16)
C6T C 0.1295(2) 0.4849(2) 0.01475(17)
C7T C 0.1542(3) 0.5054(2) 0.05455(17)
H5T H 0.1520 0.5443 0.0607
C8T C 0.1821(3) 0.4685(2) 0.08479(17)
H6T H 0.1984 0.4834 0.1113
C9T C 0.1356(3) 0.4259(2) 0.00745(18)
H7T H 0.1209 0.4102 -0.0191
C10T C 0.1636(3) 0.3915(2) 0.03969(18)
H8T H 0.1664 0.3523 0.0345
Cu1T Cu -0.01417(4) 0.63977(3) -0.12855(2)
Cu1H Cu 0.48583(4) 0.63977(3) 0.37145(2)
Cu1B Cu 0.23583(4) -0.11023(3) 0.12855(2)
N2C N -0.0629(2) 0.58827(17) -0.17158(14)
N3T N -0.0208(2) 0.72358(18) -0.12830(13)
Cl1 Cl 0.3750 0.3750 0.02855(6)
O1 O 0.3227(7) 0.4218(5) 0.0195(4)
O2 O 0.3258(6) 0.3438(5) 0.0079(3)
O1W O 0.4273(7) 0.3282(5) 0.0195(4)
O2W O 0.4242(6) 0.4062(5) 0.0079(3)
Cl2 Cl 0.77566(13) 0.1250 0.1250
O4 O 0.7344(5) 0.1631(4) 0.1024(3)
O5 O 0.8155(6) 0.0955(5) 0.0973(3)
O4B O 0.7344(5) 0.0869(4) 0.1476(3)
O5B O 0.8155(6) 0.1545(5) 0.1527(3)
O6 O 0.3346(5) 0.5398(4) 0.0138(3)
H13 H 0.338(5) 0.549(4) 0.037(3)
H14 H 0.325(5) 0.506(4) 0.016(3)
O3? O 0.3750 0.3750 0.0733(2)
loop_
_geom_bond_atom_site_label_1
_geom_bond_atom_site_label_2
_geom_bond_site_symmetry_1
_geom_bond_site_symmetry_2
Cu1 N1 1_555 1_555
N1 C1 1_555 1_555
N2 C8 1_555 1_555
N3 Cu1 1_555 1_555
C1 H1 1_555 1_555
C2 C1 1_555 1_555
H2 C2 1_555 1_555
C3 N1 1_555 1_555
H3 C3 1_555 1_555
C4 C3 1_555 1_555
H4 C4 1_555 1_555
C5 C2 1_555 1_555
C6 C5 1_555 1_555
C7 C6 1_555 1_555
H5 C7 1_555 1_555
C8 C7 1_555 1_555
H6 C8 1_555 1_555
C9 C6 1_555 1_555
H7 C9 1_555 1_555
C10 N2 1_555 1_555
H8 C10 1_555 1_555
C11 N3 1_555 1_555
H9 C11 1_555 1_555
C12 C11 1_555 1_555
H10 C12 1_555 1_555
C13 N3 1_555 1_555
H11 C13 1_555 1_555
C14 C13 1_555 1_555
H12 C14 1_555 1_555
C15 C12 1_555 1_555
Cl1 O1 1_555 1_555
O2 Cl1 1_555 1_555
Cl2 O4 1_555 1_555
O5 Cl2 1_555 1_555
O6 H13 1_555 1_555
H14 O6 1_555 1_555
C15B C15 1_555 1_555
C12B C15B 1_555 1_555
C11B C12B 1_555 1_555
N3B C11B 1_555 1_555
C13B N3B 1_555 1_555
H11B C13B 1_555 1_555
C14B C15B 1_555 1_555
H12B C14B 1_555 1_555
H9B C11B 1_555 1_555
H10B C12B 1_555 1_555
O1W Cl1 1_555 1_555
O2W Cl1 1_555 1_555
O4B Cl2 1_555 1_555
O5B Cl2 1_555 1_555
N1T C1T 1_555 1_555
N2T Cu1 1_555 1_555
C1T H1T 1_555 1_555
C2T C1T 1_555 1_555
H2T C2T 1_555 1_555
C3T N1T 1_555 1_555
H3T C3T 1_555 1_555
C4T C3T 1_555 1_555
H4T C4T 1_555 1_555
C5T C2T 1_555 1_555
C6T C5T 1_555 1_555
C7T C6T 1_555 1_555
H5T C7T 1_555 1_555
C8T N2T 1_555 1_555
H6T C8T 1_555 1_555
C9T C6T 1_555 1_555
H7T C9T 1_555 1_555
C10T N2T 1_555 1_555
H8T C10T 1_555 1_555
Cu1T N1T 1_555 1_555
Cu1H N2 1_555 1_555
Cu1B N3B 1_555 1_555
N2C Cu1T 1_555 1_555
N3T Cu1T 1_555 1_555
C4 C5 1_555 1_555
C9 C10 1_555 1_555
C14 C15 1_555 1_555
C13B C14B 1_555 1_555
C4T C5T 1_555 1_555
C7T C8T 1_555 1_555
C9T C10T 1_555 1_555

#END
