
#######################################################################
#
#                 Cambridge Crystallographic Data Centre
#                                CCDC 
#
#######################################################################
#
# If this CIF has been generated from an entry in the Cambridge 
# Structural Database, then it will include bibliographic, chemical, 
# crystal, experimental, refinement or atomic coordinate data resulting 
# from the CCDC's data processing and validation procedures.
#
#######################################################################

data_ASUPOU
_symmetry_cell_setting           triclinic
_symmetry_space_group_name_H-M   'P -1'
_symmetry_Int_Tables_number      2
_space_group_name_Hall           '-P 1'
loop_
_symmetry_equiv_pos_site_id
_symmetry_equiv_pos_as_xyz
1 x,y,z
2 -x,-y,-z
_cell_length_a                   10.988(2)
_cell_length_b                   13.095(3)
_cell_length_c                   20.701(4)
_cell_angle_alpha                96.35(3)
_cell_angle_beta                 104.55(3)
_cell_angle_gamma                102.39(3)
_cell_volume                     2772.99
loop_
_atom_site_label
_atom_site_type_symbol
_atom_site_fract_x
_atom_site_fract_y
_atom_site_fract_z
La1 La 0.29916(6) 0.63846(5) 0.21104(3)
La2 La 0.64594(6) 0.97499(5) 0.23131(3)
La3 La 0.62034(6) 0.30665(5) 0.28295(3)
La4 La -0.04715(6) 0.63871(5) 0.29242(3)
O1 O 0.0467(7) 0.5992(6) 0.1907(4)
O2 O -0.1456(8) 0.4855(7) 0.1613(5)
O3 O 0.3865(9) 0.4214(9) 0.0496(5)
O4 O 0.3890(7) 0.5045(6) 0.1515(4)
O5 O 0.3260(7) 0.6844(7) 0.0946(4)
O6 O 0.4779(7) 0.7894(6) 0.1839(4)
O7 O 0.7520(8) 1.0835(6) 0.1577(4)
O8 O 0.7941(10) 1.1137(8) 0.0579(5)
O9 O 0.8000(8) 0.8594(6) 0.2092(4)
O10 O 0.9816(7) 0.8076(6) 0.2387(4)
O11 O 0.7408(7) 1.1597(6) 0.3110(4)
O12 O 0.9004(8) 1.3053(6) 0.3600(4)
O13 O 0.5262(7) 0.1239(5) 0.2058(4)
O14 O 0.3699(8) -0.0263(6) 0.1613(4)
O15 O 0.2736(7) 0.4709(6) 0.2704(4)
O16 O 0.4609(7) 0.4225(6) 0.2984(4)
O17 O 0.5122(8) 0.2066(6) 0.3597(4)
O18 O 0.4639(8) 0.1880(7) 0.4589(4)
O19 O 0.7869(7) 0.4887(5) 0.3263(4)
O20 O 0.9576(8) 0.5839(6) 0.4112(4)
O21 O -0.1367(7) 0.7577(6) 0.3643(4)
O22 O -0.1242(9) 0.8230(9) 0.4748(5)
O23 O 0.2047(7) 0.6778(6) 0.3121(4)
O24 O 0.3863(8) 0.8022(7) 0.3311(5)
O25 O 0.2051(9) 0.8029(7) 0.1880(5)
O26 O 0.5182(8) 0.6354(7) 0.2949(5)
O27 O 0.6892(8) 0.8731(7) 0.3296(4)
O28 O 0.5056(9) 0.9992(6) 0.3155(5)
O29 O 0.7746(9) 0.2892(6) 0.2065(4)
O30 O 0.5853(7) 0.4052(6) 0.1828(4)
O31 O 0.0292(7) 0.4648(6) 0.2966(4)
O32 O -0.2740(8) 0.6397(8) 0.2247(5)
N1 N 0.1353(8) 0.4785(7) 0.1119(4)
N2 N 0.5832(9) 0.9019(7) 0.0991(4)
N3 N 0.9033(8) 1.0454(7) 0.2937(5)
N4 N 0.3582(8) 0.2357(7) 0.2213(5)
N5 N 0.6838(8) 0.3866(7) 0.4137(5)
N6 N 0.1157(8) 0.7936(7) 0.3935(4)
C1 C -0.0384(11) 0.5175(9) 0.1532(5)
C2 C 0.0040(11) 0.4577(9) 0.1003(6)
C3 C -0.0763(12) 0.3814(11) 0.0464(7)
H1 H -0.1656 0.3646 0.0399
C4 C -0.0233(15) 0.3285(13) 0.0009(8)
H2 H -0.0767 0.2773 -0.0358
C5 C 0.1055(14) 0.3541(13) 0.0122(7)
H3 H 0.1428 0.3228 -0.0178
C6 C 0.1836(12) 0.4276(9) 0.0688(6)
C7 C 0.3298(11) 0.4516(9) 0.0905(6)
C8 C 0.4277(10) 0.7574(8) 0.1189(6)
C9 C 0.4952(10) 0.8095(9) 0.0705(6)
C10 C 0.4636(11) 0.7648(11) 0.0014(6)
H4 H 0.4006 0.7012 -0.0162
C11 C 0.5291(13) 0.8180(11) -0.0407(7)
H5 H 0.5130 0.7898 -0.0862
C12 C 0.6196(13) 0.9154(10) -0.0106(6)
H6 H 0.6642 0.9541 -0.0364
C13 C 0.6426(11) 0.9542(9) 0.0589(6)
C14 C 0.7400(10) 1.0602(9) 0.0932(6)
C15 C 0.9153(12) 0.8755(8) 0.2405(5)
C16 C 0.9823(10) 0.9832(9) 0.2837(5)
C17 C 1.1173(11) 1.0149(9) 0.3127(7)
H7 H 1.1696 0.9704 0.3049
C18 C 1.1704(10) 1.1130(10) 0.3526(7)
H8 H 1.2594 1.1355 0.3731
C19 C 1.0893(12) 1.1799(10) 0.3623(6)
H9 H 1.1233 1.2470 0.3889
C20 C 0.9554(10) 1.1417(8) 0.3306(5)
C21 C 0.8617(10) 1.2084(9) 0.3362(6)
C22 C 0.4063(9) 0.0729(9) 0.1831(5)
C23 C 0.3097(11) 0.1341(8) 0.1856(6)
C24 C 0.1753(12) 0.0915(10) 0.1547(7)
H10 H 0.1419 0.0222 0.1312
C25 C 0.0953(12) 0.1595(11) 0.1616(8)
H11 H 0.0066 0.1354 0.1403
C26 C 0.1424(11) 0.2596(10) 0.1984(7)
H12 H 0.0874 0.3028 0.2040
C27 C 0.2774(11) 0.2947(9) 0.2277(6)
C28 C 0.3424(11) 0.4054(8) 0.2695(6)
C29 C 0.5201(10) 0.2393(8) 0.4234(6)
C30 C 0.6206(11) 0.3420(9) 0.4560(6)
C31 C 0.6399(12) 0.3884(10) 0.5216(6)
H13 H 0.5883 0.3576 0.5472
C32 C 0.7391(14) 0.4838(11) 0.5506(7)
H14 H 0.7539 0.5172 0.5949
C33 C 0.8144(12) 0.5254(12) 0.5084(6)
H15 H 0.8858 0.5836 0.5255
C34 C 0.7785(11) 0.4771(9) 0.4413(6)
C35 C 0.8473(10) 0.5195(8) 0.3902(6)
C36 C -0.0750(12) 0.8026(10) 0.4275(6)
C37 C 0.0683(11) 0.8389(9) 0.4416(5)
C38 C 0.1474(12) 0.9168(10) 0.4954(6)
H16 H 0.1133 0.9464 0.5276
C39 C 0.2768(12) 0.9493(12) 0.5000(7)
H17 H 0.3318 1.0017 0.5355
C40 C 0.3251(12) 0.9040(10) 0.4519(6)
H18 H 0.4126 0.9270 0.4544
C41 C 0.2450(11) 0.8256(8) 0.4007(5)
C42 C 0.2822(10) 0.7673(7) 0.3455(5)
La2_2 La 0.64594(6) -0.02501(5) 0.23131(3)
La3_2 La 0.62034(6) 1.30665(5) 0.28295(3)
La4_2 La 0.95285(6) 0.63871(5) 0.29242(3)
O10_2 O -0.0184(7) 0.8076(6) 0.2387(4)
O11_2 O 0.7408(7) 0.1597(6) 0.3110(4)
O13_2 O 0.5262(7) 1.1239(5) 0.2058(4)
O19_2 O -0.2131(7) 0.4887(5) 0.3263(4)
O20_2 O -0.0424(8) 0.5839(6) 0.4112(4)
O33 O 0.6206(15) 1.5961(17) 0.0866(7)
O34 O 0.6151(9) 1.7568(10) 0.4276(5)
loop_
_geom_bond_atom_site_label_1
_geom_bond_atom_site_label_2
_geom_bond_site_symmetry_1
_geom_bond_site_symmetry_2
La1 O1 1_555 1_555
La2 O6 1_555 1_555
La3 O13 1_555 1_555
La4 O1 1_555 1_555
O1 C1 1_555 1_555
O2 C1 1_555 1_555
O3 C7 1_555 1_555
O4 La1 1_555 1_555
O5 La1 1_555 1_555
O6 La1 1_555 1_555
O7 La2 1_555 1_555
O8 C14 1_555 1_555
O9 La2 1_555 1_555
O10 C15 1_555 1_555
O11 La2 1_555 1_555
O12 C21 1_555 1_555
O13 C22 1_555 1_555
O14 C22 1_555 1_555
O15 La1 1_555 1_555
O16 La3 1_555 1_555
O17 La3 1_555 1_555
O18 C29 1_555 1_555
O19 La3 1_555 1_555
O20 C35 1_555 1_555
O21 La4 1_555 1_555
O22 C36 1_555 1_555
O23 La1 1_555 1_555
O24 C42 1_555 1_555
O25 La1 1_555 1_555
O26 La1 1_555 1_555
O27 La2 1_555 1_555
O28 La2 1_555 1_555
O29 La3 1_555 1_555
O30 La3 1_555 1_555
O31 La4 1_555 1_555
O32 La4 1_555 1_555
N1 La1 1_555 1_555
N2 La2 1_555 1_555
N3 La2 1_555 1_555
N4 La3 1_555 1_555
N5 La3 1_555 1_555
N6 La4 1_555 1_555
C1 C2 1_555 1_555
C2 N1 1_555 1_555
C3 C2 1_555 1_555
H1 C3 1_555 1_555
C4 C3 1_555 1_555
H2 C4 1_555 1_555
C5 C4 1_555 1_555
H3 C5 1_555 1_555
C6 N1 1_555 1_555
C7 O4 1_555 1_555
C8 O5 1_555 1_555
C9 N2 1_555 1_555
C10 C9 1_555 1_555
H4 C10 1_555 1_555
C11 C10 1_555 1_555
H5 C11 1_555 1_555
C12 C11 1_555 1_555
H6 C12 1_555 1_555
C13 N2 1_555 1_555
C14 O7 1_555 1_555
C15 O9 1_555 1_555
C16 N3 1_555 1_555
C17 C16 1_555 1_555
H7 C17 1_555 1_555
C18 C17 1_555 1_555
H8 C18 1_555 1_555
C19 C18 1_555 1_555
H9 C19 1_555 1_555
C20 N3 1_555 1_555
C21 O11 1_555 1_555
C22 C23 1_555 1_555
C23 N4 1_555 1_555
C24 C23 1_555 1_555
H10 C24 1_555 1_555
C25 C24 1_555 1_555
H11 C25 1_555 1_555
C26 C25 1_555 1_555
H12 C26 1_555 1_555
C27 N4 1_555 1_555
C28 O15 1_555 1_555
C29 O17 1_555 1_555
C30 N5 1_555 1_555
C31 C30 1_555 1_555
H13 C31 1_555 1_555
C32 C31 1_555 1_555
H14 C32 1_555 1_555
C33 C32 1_555 1_555
H15 C33 1_555 1_555
C34 N5 1_555 1_555
C35 O19 1_555 1_555
C36 O21 1_555 1_555
C37 N6 1_555 1_555
C38 C37 1_555 1_555
H16 C38 1_555 1_555
C39 C38 1_555 1_555
H17 C39 1_555 1_555
C40 C39 1_555 1_555
H18 C40 1_555 1_555
C41 N6 1_555 1_555
C42 O23 1_555 1_555
La2_2 O13 1_555 1_555
La3_2 O11 1_555 1_555
La4_2 O10 1_555 1_555
O10_2 La4 1_555 1_555
O11_2 La3 1_555 1_555
O13_2 La2 1_555 1_555
O19_2 La4 1_555 1_555
O20_2 La4 1_555 1_555
La4 O23 1_555 1_555
O6 C8 1_555 1_555
O16 C28 1_555 1_555
O19 La4_2 1_555 1_555
O20 La4_2 1_555 1_555
C5 C6 1_555 1_555
C6 C7 1_555 1_555
C8 C9 1_555 1_555
C12 C13 1_555 1_555
C13 C14 1_555 1_555
C15 C16 1_555 1_555
C19 C20 1_555 1_555
C20 C21 1_555 1_555
C26 C27 1_555 1_555
C27 C28 1_555 1_555
C29 C30 1_555 1_555
C33 C34 1_555 1_555
C34 C35 1_555 1_555
C36 C37 1_555 1_555
C40 C41 1_555 1_555
C41 C42 1_555 1_555
La2_2 O11_2 1_555 1_555
La3_2 O13_2 1_555 1_555

#END
