
#######################################################################
#
#                 Cambridge Crystallographic Data Centre
#                                CCDC 
#
#######################################################################
#
# If this CIF has been generated from an entry in the Cambridge 
# Structural Database, then it will include bibliographic, chemical, 
# crystal, experimental, refinement or atomic coordinate data resulting 
# from the CCDC's data processing and validation procedures.
#
#######################################################################

data_ASUTOY
_symmetry_cell_setting           monoclinic
_symmetry_space_group_name_H-M   'P 21/c'
_symmetry_Int_Tables_number      14
_space_group_name_Hall           '-P 2ybc'
loop_
_symmetry_equiv_pos_site_id
_symmetry_equiv_pos_as_xyz
1 x,y,z
2 -x,1/2+y,1/2-z
3 -x,-y,-z
4 x,1/2-y,1/2+z
_cell_length_a                   16.799(4)
_cell_length_b                   7.4053(16)
_cell_length_c                   18.298(4)
_cell_angle_alpha                90
_cell_angle_beta                 103.175(4)
_cell_angle_gamma                90
_cell_volume                     2216.39
loop_
_atom_site_label
_atom_site_type_symbol
_atom_site_fract_x
_atom_site_fract_y
_atom_site_fract_z
Co1 Co 0.61098(3) 0.70200(6) 0.32844(2)
O1 O 0.58956(15) 0.9758(3) 0.33279(11)
O2 O 0.58709(17) 1.2014(3) 0.41337(13)
O3 O 0.61060(16) 0.7732(3) 0.71577(12)
O4 O 0.61448(17) 1.0609(3) 0.68082(13)
O5 O 1.0452(2) 0.7287(6) 0.4947(2)
O6 O 0.99086(19) 1.0029(5) 0.26306(18)
O7 O 0.64252(16) 0.4351(3) 0.33001(12)
H1 H 0.6367 0.4071 0.2840
H2 H 0.6161 0.3584 0.3498
O8 O 0.48511(16) 0.6432(3) 0.30414(13)
H3 H 0.4677 0.5839 0.2639
H4 H 0.4525 0.7320 0.3011
N1 N 0.60536(18) 0.7315(4) 0.44277(14)
N2 N 0.74134(19) 0.7586(4) 0.35181(16)
N3 N 1.0550(2) 0.8020(5) 0.4342(2)
N4 N 1.0284(2) 0.9412(4) 0.3263(2)
C1 C 0.5913(2) 1.0408(5) 0.39768(19)
C2 C 0.5995(2) 0.9064(4) 0.46116(17)
C3 C 0.6092(2) 0.6088(5) 0.49726(18)
H5 H 0.6121 0.4872 0.4854
C4 C 0.6100(2) 0.8937(5) 0.66906(19)
C5 C 0.6066(2) 0.8343(4) 0.58920(17)
C6 C 0.6090(2) 0.6553(5) 0.57007(19)
H6 H 0.6105 0.5660 0.6061
C7 C 0.6007(2) 0.9613(4) 0.53332(17)
H7 H 0.5975 1.0835 0.5442
C8 C 0.7973(3) 0.6510(5) 0.3924(2)
H8 H 0.7793 0.5513 0.4150
C9 C 0.8805(3) 0.6769(5) 0.4035(2)
H9 H 0.9171 0.5985 0.4336
C10 C 0.9083(3) 0.8219(5) 0.3688(2)
C11 C 0.8504(3) 0.9346(6) 0.3261(2)
H10 H 0.8665 1.0336 0.3017
C12 C 0.7694(3) 0.8997(5) 0.3200(2)
H11 H 0.7315 0.9791 0.2920
C13 C 0.9941(3) 0.8544(5) 0.3763(2)
C14 C 1.1378(3) 0.8315(6) 0.4194(2)
C15 C 1.1184(3) 0.9713(6) 0.3551(2)
C16 C 1.1954(3) 0.8914(7) 0.4906(3)
H12 H 1.1775 1.0054 0.5062
H13 H 1.2494 0.9039 0.4821
H14 H 1.1960 0.8031 0.5292
C17 C 1.1631(4) 0.6477(6) 0.3952(3)
H15 H 1.1570 0.5583 0.4315
H16 H 1.2192 0.6522 0.3915
H17 H 1.1291 0.6166 0.3472
C18 C 1.1255(3) 1.1666(6) 0.3824(3)
H18 H 1.1046 1.2459 0.3410
H19 H 1.1818 1.1947 0.4035
H20 H 1.0944 1.1820 0.4200
C19 C 1.1611(3) 0.9433(8) 0.2926(3)
H21 H 1.1437 0.8310 0.2679
H22 H 1.2191 0.9406 0.3126
H23 H 1.1477 1.0406 0.2572
Co1C Co 0.61098(3) 0.79800(6) 0.82844(2)
O3C O 0.61060(16) 0.7268(3) 0.21577(12)
loop_
_geom_bond_atom_site_label_1
_geom_bond_atom_site_label_2
_geom_bond_site_symmetry_1
_geom_bond_site_symmetry_2
Co1 O1 1_555 1_555
O1 C1 1_555 1_555
O2 C1 1_555 1_555
O3 C4 1_555 1_555
O4 C4 1_555 1_555
O5 N3 1_555 1_555
O6 N4 1_555 1_555
O7 Co1 1_555 1_555
H1 O7 1_555 1_555
H2 O7 1_555 1_555
O8 Co1 1_555 1_555
H3 O8 1_555 1_555
H4 O8 1_555 1_555
N1 Co1 1_555 1_555
N2 Co1 1_555 1_555
N3 C13 1_555 1_555
N4 C13 1_555 1_555
C1 C2 1_555 1_555
C2 N1 1_555 1_555
C3 N1 1_555 1_555
H5 C3 1_555 1_555
C4 C5 1_555 1_555
C5 C6 1_555 1_555
C6 C3 1_555 1_555
H6 C6 1_555 1_555
C7 C2 1_555 1_555
H7 C7 1_555 1_555
C8 N2 1_555 1_555
H8 C8 1_555 1_555
C9 C8 1_555 1_555
H9 C9 1_555 1_555
C10 C9 1_555 1_555
C11 C10 1_555 1_555
H10 C11 1_555 1_555
C12 N2 1_555 1_555
H11 C12 1_555 1_555
C13 C10 1_555 1_555
C14 N3 1_555 1_555
C15 N4 1_555 1_555
C16 C14 1_555 1_555
H12 C16 1_555 1_555
H13 C16 1_555 1_555
H14 C16 1_555 1_555
C17 C14 1_555 1_555
H15 C17 1_555 1_555
H16 C17 1_555 1_555
H17 C17 1_555 1_555
C18 C15 1_555 1_555
H18 C18 1_555 1_555
H19 C18 1_555 1_555
H20 C18 1_555 1_555
C19 C15 1_555 1_555
H21 C19 1_555 1_555
H22 C19 1_555 1_555
H23 C19 1_555 1_555
Co1C O3 1_555 1_555
O3C Co1 1_555 1_555
C5 C7 1_555 1_555
C11 C12 1_555 1_555
C14 C15 1_555 1_555

#END
