
#######################################################################
#
#                 Cambridge Crystallographic Data Centre
#                                CCDC 
#
#######################################################################
#
# If this CIF has been generated from an entry in the Cambridge 
# Structural Database, then it will include bibliographic, chemical, 
# crystal, experimental, refinement or atomic coordinate data resulting 
# from the CCDC's data processing and validation procedures.
#
#######################################################################

data_ATADUU01
_symmetry_cell_setting           monoclinic
_symmetry_space_group_name_H-M   'C 2/c'
_symmetry_Int_Tables_number      15
_space_group_name_Hall           '-C 2yn'
loop_
_symmetry_equiv_pos_site_id
_symmetry_equiv_pos_as_xyz
1 x,y,z
2 -x,y,1/2-z
3 1/2+x,1/2+y,z
4 1/2-x,1/2+y,1/2-z
5 -x,-y,-z
6 x,-y,1/2+z
7 1/2-x,1/2-y,-z
8 1/2+x,1/2-y,1/2+z
_cell_length_a                   19.288(11)
_cell_length_b                   11.445(7)
_cell_length_c                   12.975(8)
_cell_angle_alpha                90
_cell_angle_beta                 106.317(9)
_cell_angle_gamma                90
_cell_volume                     2748.88
loop_
_atom_site_label
_atom_site_type_symbol
_atom_site_fract_x
_atom_site_fract_y
_atom_site_fract_z
C1 C 0.04019(8) 0.93565(13) -0.10891(12)
C2 C -0.02506(8) 0.87596(13) -0.13047(12)
H1 H -0.0252 0.7947 -0.1293
C3 C -0.09013(8) 0.93619(13) -0.15373(12)
C4 C -0.08984(8) 1.05736(13) -0.15850(12)
H2 H -0.1333 1.0980 -0.1781
C5 C -0.02495(8) 1.11811(13) -0.13416(12)
C6 C 0.03984(8) 1.05667(13) -0.10902(12)
H3 H 0.0834 1.0972 -0.0921
C7 C 0.11083(8) 0.87038(13) -0.07728(13)
C8 C -0.15943(8) 0.87079(13) -0.16577(12)
C9 C -0.02360(8) 1.24893(13) -0.12648(12)
Ca1 Ca 0.133750(16) 0.39609(3) 0.02447(3)
Ca2 Ca 0.2500 0.7500 0.0000
O1 O 0.11114(7) 0.76304(10) -0.06563(13)
O2 O 0.16890(6) 0.92452(11) -0.05909(13)
O3 O 0.03289(6) 1.29759(10) -0.07455(10)
O4 O -0.08137(6) 1.30364(9) -0.17257(9)
O5 O -0.15556(6) 0.76323(9) -0.14596(10)
O6 O -0.21837(6) 0.92581(9) -0.19431(9)
O7 O 0.25970(6) 0.39109(10) 0.09280(12)
H4 H 0.2806 0.3301 0.1041
H5 H 0.2851 0.4406 0.0836
O8 O 0.07411(7) 0.54432(11) -0.09897(12)
H6 H 0.0818 0.6177 -0.0873
H7 H 0.0308 0.5413 -0.1144
O9 O 0.17194(6) 0.32592(10) -0.12584(9)
H8 H 0.2059 0.3530 -0.1389
H9 H 0.1419 0.3106 -0.1816
O10 O 0.07844(7) 0.46516(10) 0.16109(11)
H10 H 0.0900 0.4443 0.2247
H11 H 0.0789 0.5354 0.1662
O11 O 0.19165(6) 0.60781(10) 0.09542(9)
H12 H 0.2214 0.5981 0.1559
H13 H 0.1599 0.6468 0.1106
O12 O 0.26911(8) 0.85326(12) 0.16260(11)
H14 H 0.2874(13) 0.824(2) 0.2209(15)
H15 H 0.2513(13) 0.9155(16) 0.172(2)
C1D C -0.04019(8) 0.06435(13) 0.10891(12)
C2D C 0.02506(8) 0.12404(13) 0.13047(12)
H1D H 0.0252 0.2053 0.1293
C3D C 0.09013(8) 0.06381(13) 0.15373(12)
C4D C 0.08984(8) -0.05736(13) 0.15850(12)
H2D H 0.1333 -0.0980 0.1781
C5D C 0.02495(8) -0.11811(13) 0.13416(12)
C6D C -0.03984(8) -0.05667(13) 0.10902(12)
H3D H -0.0834 -0.0972 0.0921
C7D C -0.11083(8) 0.12962(13) 0.07728(13)
C8D C 0.15943(8) 0.12921(13) 0.16577(12)
C9D C 0.02360(8) -0.24893(13) 0.12648(12)
Ca1D Ca -0.133750(16) 0.60391(3) -0.02447(3)
O1D O -0.11114(7) 0.23696(10) 0.06563(13)
O2D O -0.16890(6) 0.07548(11) 0.05909(13)
O3D O -0.03289(6) -0.29759(10) 0.07455(10)
O4D O 0.08137(6) -0.30364(9) 0.17257(9)
O5D O 0.15556(6) 0.23677(9) 0.14596(10)
O6D O 0.21837(6) 0.07419(9) 0.19431(9)
O7D O -0.25970(6) 0.60891(10) -0.09280(12)
H4D H -0.2806 0.6699 -0.1041
H5D H -0.2851 0.5594 -0.0836
O8D O -0.07411(7) 0.45568(11) 0.09897(12)
H6D H -0.0818 0.3823 0.0873
H7D H -0.0308 0.4587 0.1144
O9D O -0.17194(6) 0.67408(10) 0.12584(9)
H8D H -0.2059 0.6470 0.1389
H9D H -0.1419 0.6894 0.1816
O10D O -0.07844(7) 0.53484(10) -0.16109(11)
H10D H -0.0900 0.5557 -0.2247
H11D H -0.0789 0.4646 -0.1662
O11D O -0.19165(6) 0.39219(10) -0.09542(9)
H12D H -0.2214 0.4019 -0.1559
H13D H -0.1599 0.3532 -0.1106
O12F O 0.23089(8) 0.64674(12) -0.16260(11)
H14F H 0.2126(13) 0.676(2) -0.2209(15)
H15F H 0.2487(13) 0.5845(16) -0.172(2)
Ca1_2 Ca 0.133750(16) 1.39609(3) 0.02447(3)
Ca1D_2 Ca -0.133750(16) -0.39609(3) -0.02447(3)
Ca2B Ca -0.2500 0.2500 0.0000
O1F O 0.38886(7) 0.73696(10) 0.06563(13)
O2F O 0.33110(6) 0.57548(11) 0.05909(13)
O3_2 O 0.03289(6) 0.29759(10) -0.07455(10)
O3D_2 O -0.03289(6) 0.70241(10) 0.07455(10)
O11F O 0.30835(6) 0.89219(10) -0.09542(9)
loop_
_geom_bond_atom_site_label_1
_geom_bond_atom_site_label_2
_geom_bond_site_symmetry_1
_geom_bond_site_symmetry_2
C1 C2 1_555 1_555
C2 H1 1_555 1_555
C3 C2 1_555 1_555
C4 C3 1_555 1_555
H2 C4 1_555 1_555
C5 C4 1_555 1_555
C6 C1 1_555 1_555
H3 C6 1_555 1_555
C7 C1 1_555 1_555
C8 C3 1_555 1_555
C9 C5 1_555 1_555
Ca1 O7 1_555 1_555
Ca2 O1 1_555 1_555
O1 C7 1_555 1_555
O2 C7 1_555 1_555
O3 C9 1_555 1_555
O4 C9 1_555 1_555
O5 C8 1_555 1_555
O6 C8 1_555 1_555
O7 H4 1_555 1_555
H5 O7 1_555 1_555
O8 Ca1 1_555 1_555
H6 O8 1_555 1_555
H7 O8 1_555 1_555
O9 Ca1 1_555 1_555
H8 O9 1_555 1_555
H9 O9 1_555 1_555
O10 Ca1 1_555 1_555
H10 O10 1_555 1_555
H11 O10 1_555 1_555
O11 Ca1 1_555 1_555
H12 O11 1_555 1_555
H13 O11 1_555 1_555
O12 Ca2 1_555 1_555
H14 O12 1_555 1_555
H15 O12 1_555 1_555
C1D C2D 1_555 1_555
C2D H1D 1_555 1_555
C3D C2D 1_555 1_555
C4D C3D 1_555 1_555
H2D C4D 1_555 1_555
C5D C4D 1_555 1_555
C6D C1D 1_555 1_555
H3D C6D 1_555 1_555
C7D C1D 1_555 1_555
C8D C3D 1_555 1_555
C9D C5D 1_555 1_555
Ca1D O5 1_555 1_555
O1D C7D 1_555 1_555
O2D C7D 1_555 1_555
O3D C9D 1_555 1_555
O4D C9D 1_555 1_555
O5D Ca1 1_555 1_555
O6D C8D 1_555 1_555
O7D Ca1D 1_555 1_555
H4D O7D 1_555 1_555
H5D O7D 1_555 1_555
O8D Ca1D 1_555 1_555
H6D O8D 1_555 1_555
H7D O8D 1_555 1_555
O9D Ca1D 1_555 1_555
H8D O9D 1_555 1_555
H9D O9D 1_555 1_555
O10D Ca1D 1_555 1_555
H10D O10D 1_555 1_555
H11D O10D 1_555 1_555
O11D Ca1D 1_555 1_555
H12D O11D 1_555 1_555
H13D O11D 1_555 1_555
O12F Ca2 1_555 1_555
H14F O12F 1_555 1_555
H15F O12F 1_555 1_555
Ca1_2 O3 1_555 1_555
Ca1D_2 O3D 1_555 1_555
Ca2B O1D 1_555 1_555
O1F Ca2 1_555 1_555
O2F Ca2 1_555 1_555
O3_2 Ca1 1_555 1_555
O3D_2 Ca1D 1_555 1_555
O11F Ca2 1_555 1_555
C5 C6 1_555 1_555
Ca2 O2 1_555 1_555
Ca2 O11 1_555 1_555
C5D C6D 1_555 1_555
C8D O5D 1_555 1_555
O2D Ca2B 1_555 1_555
O11D Ca2B 1_555 1_555

#END
