
#######################################################################
#
#                 Cambridge Crystallographic Data Centre
#                                CCDC 
#
#######################################################################
#
# If this CIF has been generated from an entry in the Cambridge 
# Structural Database, then it will include bibliographic, chemical, 
# crystal, experimental, refinement or atomic coordinate data resulting 
# from the CCDC's data processing and validation procedures.
#
#######################################################################

data_ATAGIL
_symmetry_cell_setting           monoclinic
_symmetry_space_group_name_H-M   'P 21/c'
_symmetry_Int_Tables_number      14
_space_group_name_Hall           '-P 2ybc'
loop_
_symmetry_equiv_pos_site_id
_symmetry_equiv_pos_as_xyz
1 x,y,z
2 x,1/2-y,1/2+z
3 -x,-y,-z
4 -x,1/2+y,1/2-z
_cell_length_a                   10.5885(12)
_cell_length_b                   8.7459(10)
_cell_length_c                   26.607(3)
_cell_angle_alpha                90
_cell_angle_beta                 99.400(2)
_cell_angle_gamma                90
_cell_volume                     2430.88
loop_
_atom_site_label
_atom_site_type_symbol
_atom_site_fract_x
_atom_site_fract_y
_atom_site_fract_z
Ni1 Ni 0.93705(4) -0.07269(5) 0.045456(14)
V1 V 1.05266(5) 0.29441(6) 0.058924(19)
V2 V 0.80789(5) -0.43435(6) 0.02359(2)
O1 O 1.0282(2) 0.1237(3) 0.02690(8)
O2 O 1.0757(2) 0.2662(3) 0.11943(8)
O3 O 0.8584(3) -0.2786(3) 0.05556(9)
O4 O 1.1895(2) 0.3892(3) 0.04290(9)
O5 O 0.9138(3) 0.4071(3) 0.04177(9)
O6 O 0.6647(2) -0.4732(3) 0.03293(11)
N1 N 0.7562(3) 0.0205(3) 0.02292(10)
N2 N 0.8937(3) 0.0049(3) 0.11180(10)
N3 N 1.0905(3) -0.1552(3) 0.09824(10)
N4 N 1.1466(3) 0.1547(4) 0.24494(11)
N5 N 0.8364(3) 0.1097(4) 0.20073(11)
N6 N 0.5233(3) 0.0686(4) 0.14865(12)
C1 C 0.6940(3) 0.0287(4) -0.02474(12)
H1 H 0.7246 -0.0296 -0.0504
C2 C 0.5862(3) 0.1190(4) -0.03844(13)
H2 H 0.5424 0.1202 -0.0726
C3 C 0.5439(3) 0.2068(4) -0.00159(13)
H3 H 0.4735 0.2745 -0.0103
C4 C 0.6051(3) 0.1952(4) 0.04818(13)
H4 H 0.5762 0.2532 0.0743
C5 C 0.7085(3) 0.0991(4) 0.05967(12)
C6 C 0.7828(3) 0.0748(4) 0.11150(12)
C7 C 0.9777(3) -0.0169(4) 0.15412(12)
C8 C 1.0844(3) -0.1199(4) 0.14757(13)
C9 C 1.1627(4) -0.1906(4) 0.18748(13)
H5 H 1.1578 -0.1640 0.2217
C10 C 1.2487(4) -0.3011(5) 0.17680(15)
H6 H 1.3035 -0.3509 0.2037
C11 C 1.2540(4) -0.3380(5) 0.12688(15)
H7 H 1.3122 -0.4130 0.1187
C12 C 1.1727(4) -0.2634(4) 0.08927(13)
H8 H 1.1753 -0.2905 0.0549
C13 C 1.2265(4) 0.1818(5) 0.28860(13)
H9 H 1.2985 0.2458 0.2876
C14 C 1.2093(4) 0.1211(5) 0.33521(13)
H10 H 1.2675 0.1440 0.3654
C15 C 1.1051(4) 0.0263(5) 0.33654(13)
H11 H 1.0920 -0.0192 0.3677
C16 C 1.0206(4) -0.0013(4) 0.29242(12)
H12 H 0.9478 -0.0649 0.2925
C17 C 1.0450(3) 0.0668(4) 0.24760(12)
C18 C 0.9515(3) 0.0513(4) 0.19944(12)
C19 C 0.7490(3) 0.1164(4) 0.15878(12)
C20 C 0.6197(3) 0.1640(5) 0.16670(12)
C21 C 0.6025(4) 0.2976(5) 0.19311(14)
H13 H 0.6737 0.3600 0.2063
C22 C 0.4796(4) 0.3384(6) 0.19996(17)
H14 H 0.4646 0.4298 0.2173
C23 C 0.3802(4) 0.2422(6) 0.18076(16)
H15 H 0.2947 0.2668 0.1844
C24 C 0.4060(4) 0.1109(6) 0.15634(14)
H16 H 0.3363 0.0453 0.1440
O1B O 0.9718(2) -0.1237(3) -0.02690(8)
O4B O 0.8105(2) -0.3892(3) -0.04290(9)
O5_2 O 0.9138(3) -0.5929(3) 0.04177(9)
Ni1B Ni 1.06295(4) 0.07269(5) -0.045456(14)
V2B V 1.19211(5) 0.43435(6) -0.02359(2)
V2_2 V 0.80789(5) 0.56565(6) 0.02359(2)
O7 O 0.5370(9) 0.5281(12) 0.9135(4)
loop_
_geom_bond_atom_site_label_1
_geom_bond_atom_site_label_2
_geom_bond_site_symmetry_1
_geom_bond_site_symmetry_2
Ni1 O1 1_555 1_555
V1 O1 1_555 1_555
V2 O3 1_555 1_555
O1 Ni1B 1_555 1_555
O2 V1 1_555 1_555
O3 Ni1 1_555 1_555
O4 V1 1_555 1_555
O5 V1 1_555 1_555
O6 V2 1_555 1_555
N1 Ni1 1_555 1_555
N2 Ni1 1_555 1_555
N3 Ni1 1_555 1_555
N4 C13 1_555 1_555
N5 C18 1_555 1_555
N6 C20 1_555 1_555
C1 N1 1_555 1_555
H1 C1 1_555 1_555
C2 C1 1_555 1_555
H2 C2 1_555 1_555
C3 C2 1_555 1_555
H3 C3 1_555 1_555
C4 C3 1_555 1_555
H4 C4 1_555 1_555
C5 N1 1_555 1_555
C6 N2 1_555 1_555
C7 N2 1_555 1_555
C8 N3 1_555 1_555
C9 C8 1_555 1_555
H5 C9 1_555 1_555
C10 C9 1_555 1_555
H6 C10 1_555 1_555
C11 C10 1_555 1_555
H7 C11 1_555 1_555
C12 N3 1_555 1_555
H8 C12 1_555 1_555
C13 H9 1_555 1_555
C14 C13 1_555 1_555
H10 C14 1_555 1_555
C15 C14 1_555 1_555
H11 C15 1_555 1_555
C16 C15 1_555 1_555
H12 C16 1_555 1_555
C17 N4 1_555 1_555
C18 C7 1_555 1_555
C19 N5 1_555 1_555
C20 C19 1_555 1_555
C21 C20 1_555 1_555
H13 C21 1_555 1_555
C22 C21 1_555 1_555
H14 C22 1_555 1_555
C23 C22 1_555 1_555
H15 C23 1_555 1_555
C24 N6 1_555 1_555
H16 C24 1_555 1_555
O1B Ni1 1_555 1_555
O4B V2 1_555 1_555
O5_2 V2 1_555 1_555
Ni1B O1B 1_555 1_555
V2B O4 1_555 1_555
V2_2 O5 1_555 1_555
C4 C5 1_555 1_555
C5 C6 1_555 1_555
C6 C19 1_555 1_555
C7 C8 1_555 1_555
C11 C12 1_555 1_555
C16 C17 1_555 1_555
C17 C18 1_555 1_555
C23 C24 1_555 1_555

#END
