
#######################################################################
#
#                 Cambridge Crystallographic Data Centre
#                                CCDC 
#
#######################################################################
#
# If this CIF has been generated from an entry in the Cambridge 
# Structural Database, then it will include bibliographic, chemical, 
# crystal, experimental, refinement or atomic coordinate data resulting 
# from the CCDC's data processing and validation procedures.
#
#######################################################################

data_ATAGEH
_symmetry_cell_setting           monoclinic
_symmetry_space_group_name_H-M   'P 21/c'
_symmetry_Int_Tables_number      14
_space_group_name_Hall           '-P 2ybc'
loop_
_symmetry_equiv_pos_site_id
_symmetry_equiv_pos_as_xyz
1 x,y,z
2 x,1/2-y,1/2+z
3 -x,-y,-z
4 -x,1/2+y,1/2-z
_cell_length_a                   10.6045(5)
_cell_length_b                   8.7881(4)
_cell_length_c                   26.8715(13)
_cell_angle_alpha                90
_cell_angle_beta                 99.6100(10)
_cell_angle_gamma                90
_cell_volume                     2469.1
loop_
_atom_site_label
_atom_site_type_symbol
_atom_site_fract_x
_atom_site_fract_y
_atom_site_fract_z
Co1 Co 0.94059(2) 1.07401(3) 0.045723(8)
V1 V 1.05340(3) 0.70681(3) 0.058944(10)
V2 V 0.81012(3) 1.43949(3) 0.022450(11)
O1 O 0.86822(16) 1.28740(15) 0.05413(5)
O2 O 1.03522(12) 0.87985(14) 0.02824(4)
O3 O 1.07590(13) 0.73204(15) 0.11915(5)
O4 O 1.18799(12) 0.60568(15) 0.04348(5)
O5 O 0.90992(13) 0.60308(16) 0.04039(5)
O6 O 0.66601(13) 1.47036(17) 0.03236(6)
N1 N 1.09212(15) 1.15560(17) 0.10192(6)
N2 N 0.89493(14) 0.99490(17) 0.11365(5)
N3 N 0.75187(14) 0.98330(18) 0.02513(5)
N4 N 1.14503(16) 0.8437(2) 0.24666(6)
N5 N 0.83474(15) 0.89083(18) 0.20190(6)
N6 N 0.52203(16) 0.9354(2) 0.14838(6)
C1 C 1.1756(2) 1.2618(2) 0.09285(7)
C2 C 1.2578(2) 1.3351(3) 0.13112(8)
C3 C 1.2515(2) 1.2964(3) 0.18037(8)
C4 C 1.16412(19) 1.1872(2) 0.19039(7)
C5 C 1.08522(17) 1.1186(2) 0.15036(6)
C6 C 0.97788(16) 1.01597(19) 0.15620(6)
C7 C 0.78268(16) 0.92583(19) 0.11314(6)
C8 C 0.70842(16) 0.9014(2) 0.06166(6)
C9 C 0.60758(17) 0.8006(2) 0.05048(7)
C10 C 0.54551(18) 0.7873(2) 0.00067(7)
C11 C 0.58485(18) 0.8777(2) -0.03591(7)
C12 C 0.68939(18) 0.9724(2) -0.02212(7)
C13 C 1.22520(19) 0.8183(3) 0.29021(7)
C14 C 1.2088(2) 0.8799(3) 0.33620(7)
C15 C 1.1049(2) 0.9745(2) 0.33733(7)
C16 C 1.01976(19) 1.0015(2) 0.29309(7)
C17 C 1.04342(17) 0.9329(2) 0.24898(6)
C18 C 0.95083(17) 0.9484(2) 0.20090(6)
C19 C 0.74761(17) 0.8853(2) 0.15958(7)
C20 C 0.61711(17) 0.8390(2) 0.16675(7)
C21 C 0.5980(2) 0.7063(3) 0.19247(8)
C22 C 0.4744(2) 0.6690(3) 0.19894(9)
C23 C 0.3754(2) 0.7652(4) 0.17976(8)
C24 C 0.4040(2) 0.8953(3) 0.15545(8)
H1 H 1.177(2) 1.290(2) 0.0585(8)
H2 H 1.313(3) 1.411(3) 0.1229(10)
H3 H 1.307(3) 1.344(3) 0.2074(11)
H4 H 1.155(2) 1.168(3) 0.2228(9)
H5 H 0.583(2) 0.736(3) 0.0742(9)
H6 H 0.484(3) 0.713(3) -0.0076(9)
H7 H 0.543(2) 0.876(3) -0.0714(9)
H8 H 0.723(2) 1.033(3) -0.0455(9)
H9 H 1.295(2) 0.755(3) 0.2889(9)
H10 H 1.270(3) 0.853(3) 0.3666(10)
H11 H 1.089(2) 1.022(3) 0.3668(10)
H12 H 0.950(2) 1.062(3) 0.2928(9)
H13 H 0.667(2) 0.645(3) 0.2055(8)
H14 H 0.462(3) 0.580(3) 0.2160(10)
H15 H 0.292(3) 0.735(4) 0.1839(12)
H16 H 0.337(3) 0.973(3) 0.1419(10)
O2B O 0.96478(12) 1.12015(14) -0.02824(4)
O4B O 0.81201(12) 1.39432(15) -0.04348(5)
O5_2 O 0.90992(13) 1.60308(16) 0.04039(5)
Co1B Co 1.05941(2) 0.92599(3) -0.045723(8)
V2B V 1.18988(3) 0.56051(3) -0.022450(11)
V2_2 V 0.81012(3) 0.43949(3) 0.022450(11)
O7 O 0.5349(5) 0.4776(7) 0.9130(2)
loop_
_geom_bond_atom_site_label_1
_geom_bond_atom_site_label_2
_geom_bond_site_symmetry_1
_geom_bond_site_symmetry_2
Co1 O1 1_555 1_555
V1 O2 1_555 1_555
V2 O1 1_555 1_555
O2 Co1 1_555 1_555
O3 V1 1_555 1_555
O4 V1 1_555 1_555
O5 V1 1_555 1_555
O6 V2 1_555 1_555
N1 Co1 1_555 1_555
N2 Co1 1_555 1_555
N3 Co1 1_555 1_555
N4 C13 1_555 1_555
N5 C18 1_555 1_555
N6 C20 1_555 1_555
C1 N1 1_555 1_555
C2 C1 1_555 1_555
C3 C2 1_555 1_555
C4 C3 1_555 1_555
C5 N1 1_555 1_555
C6 N2 1_555 1_555
C7 N2 1_555 1_555
C8 N3 1_555 1_555
C9 C8 1_555 1_555
C10 C9 1_555 1_555
C11 C10 1_555 1_555
C12 N3 1_555 1_555
C13 C14 1_555 1_555
C14 C15 1_555 1_555
C15 C16 1_555 1_555
C16 C17 1_555 1_555
C17 N4 1_555 1_555
C18 C6 1_555 1_555
C19 N5 1_555 1_555
C20 C19 1_555 1_555
C21 C20 1_555 1_555
C22 C21 1_555 1_555
C23 C22 1_555 1_555
C24 N6 1_555 1_555
H1 C1 1_555 1_555
H2 C2 1_555 1_555
H3 C3 1_555 1_555
H4 C4 1_555 1_555
H5 C9 1_555 1_555
H6 C10 1_555 1_555
H7 C11 1_555 1_555
H8 C12 1_555 1_555
H9 C13 1_555 1_555
H10 C14 1_555 1_555
H11 C15 1_555 1_555
H12 C16 1_555 1_555
H13 C21 1_555 1_555
H14 C22 1_555 1_555
H15 C23 1_555 1_555
H16 C24 1_555 1_555
O2B Co1 1_555 1_555
O4B V2 1_555 1_555
O5_2 V2 1_555 1_555
Co1B O2 1_555 1_555
V2B O4 1_555 1_555
V2_2 O5 1_555 1_555
C4 C5 1_555 1_555
C5 C6 1_555 1_555
C7 C8 1_555 1_555
C7 C19 1_555 1_555
C11 C12 1_555 1_555
C17 C18 1_555 1_555
C23 C24 1_555 1_555
O2B Co1B 1_555 1_555

#END
