
#######################################################################
#
#                 Cambridge Crystallographic Data Centre
#                                CCDC 
#
#######################################################################
#
# If this CIF has been generated from an entry in the Cambridge 
# Structural Database, then it will include bibliographic, chemical, 
# crystal, experimental, refinement or atomic coordinate data resulting 
# from the CCDC's data processing and validation procedures.
#
#######################################################################

data_ATAGOR
_symmetry_cell_setting           monoclinic
_symmetry_space_group_name_H-M   'P 21/c'
_symmetry_Int_Tables_number      14
_space_group_name_Hall           '-P 2ybc'
loop_
_symmetry_equiv_pos_site_id
_symmetry_equiv_pos_as_xyz
1 x,y,z
2 x,1/2-y,1/2+z
3 -x,-y,-z
4 -x,1/2+y,1/2-z
_cell_length_a                   11.8346(14)
_cell_length_b                   18.292(2)
_cell_length_c                   12.5567(15)
_cell_angle_alpha                90
_cell_angle_beta                 108.881(2)
_cell_angle_gamma                90
_cell_volume                     2571.99
loop_
_atom_site_label
_atom_site_type_symbol
_atom_site_fract_x
_atom_site_fract_y
_atom_site_fract_z
Cu1 Cu 0.29486(2) 0.676266(16) 0.33662(2)
Cu2 Cu 0.29115(2) 0.859718(16) 0.35316(2)
V1 V 0.33591(3) 1.02713(2) 0.31888(3)
V2 V 0.35771(3) 0.97925(2) 0.57561(3)
O1 O 0.25359(13) 0.95463(9) 0.25711(12)
O2 O 0.28632(15) 1.10102(9) 0.24315(13)
O3 O 0.32365(14) 1.04032(9) 0.45550(13)
O4 O 0.48876(14) 1.01133(10) 0.33341(13)
O5 O 0.26824(14) 0.99869(10) 0.64643(13)
O6 O 0.33072(15) 0.89526(9) 0.52402(13)
N1 N 0.15089(16) 0.63022(11) 0.22712(15)
N2 N 0.29222(15) 0.72887(10) 0.19110(14)
N3 N 0.45164(16) 0.81741(10) 0.37270(14)
N4 N 0.12376(16) 0.68011(10) -0.18342(15)
N5 N 0.28020(16) 0.78629(10) -0.01449(14)
N6 N 0.44466(16) 0.86601(10) -0.05518(15)
C1 C 0.0845(2) 0.57834(14) 0.25387(19)
C2 C -0.0150(2) 0.54740(15) 0.1766(2)
C3 C -0.0472(2) 0.57044(15) 0.0657(2)
C4 C 0.0215(2) 0.62424(15) 0.03727(19)
C5 C 0.11888(18) 0.65385(12) 0.11928(17)
C6 C 0.20061(18) 0.71007(12) 0.09934(17)
C7 C 0.37808(18) 0.77414(12) 0.18145(16)
C8 C 0.37239(18) 0.80463(12) 0.07734(16)
C9 C 0.47890(19) 0.78267(12) 0.28882(17)
C10 C 0.5880(2) 0.75028(14) 0.30224(19)
C11 C 0.6765(2) 0.75550(15) 0.4065(2)
C12 C 0.6522(2) 0.79324(15) 0.49176(19)
C13 C 0.5393(2) 0.82230(13) 0.47264(18)
C14 C 0.0366(2) 0.66584(14) -0.28155(19)
C15 C -0.0737(2) 0.69965(16) -0.3120(2)
C16 C -0.0968(2) 0.75139(16) -0.2409(2)
C17 C -0.0088(2) 0.76514(14) -0.13892(18)
C18 C 0.09856(19) 0.72783(12) -0.11292(17)
C19 C 0.19475(18) 0.74151(12) -0.00482(17)
C20 C 0.5225(2) 0.90864(13) -0.08396(18)
C21 C 0.6170(2) 0.94387(13) -0.00580(19)
C22 C 0.6282(2) 0.93716(13) 0.10767(19)
C23 C 0.5479(2) 0.89357(13) 0.13815(18)
C24 C 0.45972(19) 0.85621(12) 0.05578(17)
H1 H 0.115(2) 0.5615(16) 0.330(2)
H2 H -0.063(3) 0.5083(17) 0.205(2)
H3 H -0.110(2) 0.5491(16) 0.009(2)
H4 H 0.001(2) 0.6396(15) -0.042(2)
H5 H 0.598(2) 0.7206(14) 0.236(2)
H6 H 0.746(3) 0.7289(15) 0.418(2)
H7 H 0.710(2) 0.8007(16) 0.565(2)
H8 H 0.517(2) 0.8512(13) 0.530(2)
H9 H 0.057(2) 0.6295(14) -0.333(2)
H10 H -0.132(3) 0.689(2) -0.383(3)
H11 H -0.166(2) 0.7785(14) -0.263(2)
H12 H -0.018(3) 0.8012(18) -0.082(2)
H13 H 0.510(2) 0.9112(15) -0.162(2)
H14 H 0.673(2) 0.9789(14) -0.030(2)
H15 H 0.681(2) 0.9628(15) 0.157(2)
H16 H 0.556(2) 0.8917(16) 0.215(2)
N5A N 0.28020(16) 0.71371(10) 0.48551(14)
N6A N 0.44466(16) 0.63399(10) 0.44482(15)
N4A N 0.12376(16) 0.81989(10) 0.31658(15)
O4B O 0.51124(14) 0.98867(10) 0.66659(13)
V2B V 0.64229(3) 1.02075(2) 0.42439(3)
Cu2A Cu 0.29115(2) 0.640282(16) -0.14684(2)
Cu1A Cu 0.29486(2) 0.823734(16) -0.16338(2)
O7 O 0.10220(17) 0.09083(11) 0.03652(15)
O8 O 0.14844(17) 0.94032(11) 0.02728(15)
loop_
_geom_bond_atom_site_label_1
_geom_bond_atom_site_label_2
_geom_bond_site_symmetry_1
_geom_bond_site_symmetry_2
Cu1 N1 1_555 1_555
Cu2 O1 1_555 1_555
V1 O1 1_555 1_555
V2 O3 1_555 1_555
O2 V1 1_555 1_555
O3 V1 1_555 1_555
O4 V1 1_555 1_555
O5 V2 1_555 1_555
O6 Cu2 1_555 1_555
N1 C1 1_555 1_555
N2 Cu1 1_555 1_555
N3 Cu2 1_555 1_555
N4 C14 1_555 1_555
N5 C8 1_555 1_555
N6 C20 1_555 1_555
C1 C2 1_555 1_555
C2 C3 1_555 1_555
C3 C4 1_555 1_555
C4 C5 1_555 1_555
C5 N1 1_555 1_555
C6 N2 1_555 1_555
C7 N2 1_555 1_555
C8 C7 1_555 1_555
C9 N3 1_555 1_555
C10 C9 1_555 1_555
C11 C10 1_555 1_555
C12 C11 1_555 1_555
C13 N3 1_555 1_555
C14 C15 1_555 1_555
C15 C16 1_555 1_555
C16 C17 1_555 1_555
C17 C18 1_555 1_555
C18 N4 1_555 1_555
C19 N5 1_555 1_555
C20 C21 1_555 1_555
C21 C22 1_555 1_555
C22 C23 1_555 1_555
C23 C24 1_555 1_555
C24 N6 1_555 1_555
H1 C1 1_555 1_555
H2 C2 1_555 1_555
H3 C3 1_555 1_555
H4 C4 1_555 1_555
H5 C10 1_555 1_555
H6 C11 1_555 1_555
H7 C12 1_555 1_555
H8 C13 1_555 1_555
H9 C14 1_555 1_555
H10 C15 1_555 1_555
H11 C16 1_555 1_555
H12 C17 1_555 1_555
H13 C20 1_555 1_555
H14 C21 1_555 1_555
H15 C22 1_555 1_555
H16 C23 1_555 1_555
N5A Cu1 1_555 1_555
N6A Cu1 1_555 1_555
N4A Cu2 1_555 1_555
O4B V2 1_555 1_555
V2B O4 1_555 1_555
Cu2A N4 1_555 1_555
Cu1A N5 1_555 1_555
V2 O6 1_555 1_555
N6 Cu1A 1_555 1_555
C5 C6 1_555 1_555
C6 C19 1_555 1_555
C7 C9 1_555 1_555
C8 C24 1_555 1_555
C12 C13 1_555 1_555
C18 C19 1_555 1_555

#END
