
#######################################################################
#
#                 Cambridge Crystallographic Data Centre
#                                CCDC 
#
#######################################################################
#
# If this CIF has been generated from an entry in the Cambridge 
# Structural Database, then it will include bibliographic, chemical, 
# crystal, experimental, refinement or atomic coordinate data resulting 
# from the CCDC's data processing and validation procedures.
#
#######################################################################

data_ATAGUX
_symmetry_cell_setting           triclinic
_symmetry_space_group_name_H-M   'P -1'
_symmetry_Int_Tables_number      2
_space_group_name_Hall           '-P 1'
loop_
_symmetry_equiv_pos_site_id
_symmetry_equiv_pos_as_xyz
1 x,y,z
2 -x,-y,-z
_cell_length_a                   8.0340(5)
_cell_length_b                   8.9558(5)
_cell_length_c                   11.0644(7)
_cell_angle_alpha                105.8260(10)
_cell_angle_beta                 102.0930(10)
_cell_angle_gamma                108.2390(10)
_cell_volume                     688.524
loop_
_atom_site_label
_atom_site_type_symbol
_atom_site_fract_x
_atom_site_fract_y
_atom_site_fract_z
Zn1 Zn 0.16419(4) 0.35508(4) 0.25050(3)
V1 V 0.47176(6) 0.27578(6) 0.07115(4)
V2 V -0.27212(6) 0.06902(6) 0.19397(4)
O1 O 0.6462(3) 0.4426(3) 0.0941(2)
O2 O 0.3253(3) 0.3298(3) 0.14480(19)
O3 O 0.5555(3) 0.1498(3) 0.14780(19)
O4 O 0.3667(3) 0.1535(2) -0.10467(18)
O5 O -0.0799(3) 0.1666(2) 0.16252(19)
O6 O -0.2208(3) 0.1045(3) 0.35192(19)
C1 C 0.1573(4) 0.6166(4) 0.1252(3)
C2 C 0.1422(4) 0.7617(4) 0.1128(3)
C3 C 0.0801(4) 0.8527(4) 0.2020(3)
C4 C 0.0338(4) 0.7958(4) 0.3000(3)
C5 C 0.0440(4) 0.6446(3) 0.3025(3)
C6 C 0.0054(4) 0.5717(3) 0.4047(3)
C7 C -0.1088(4) 0.5888(3) 0.4832(3)
C8 C -0.2442(4) 0.6712(3) 0.4791(3)
C9 C -0.3286(4) 0.6968(3) 0.3687(3)
C10 C -0.4566(4) 0.7718(3) 0.3772(3)
C11 C -0.5012(4) 0.8100(4) 0.4921(3)
C12 C -0.4148(4) 0.7760(4) 0.5979(3)
H1 H 0.203(4) 0.563(4) 0.077(3)
H2 H 0.171(4) 0.797(4) 0.048(3)
H3 H 0.073(4) 0.953(4) 0.198(3)
H4 H 0.000(4) 0.853(4) 0.360(3)
H5 H -0.307(4) 0.666(4) 0.296(3)
H6 H -0.515(4) 0.793(4) 0.306(3)
H7 H -0.584(4) 0.860(4) 0.499(3)
H8 H -0.433(4) 0.806(4) 0.674(3)
N1 N 0.1092(3) 0.5581(3) 0.2171(2)
N2 N 0.1071(3) 0.4825(3) 0.4254(2)
N3 N -0.2871(3) 0.7097(3) 0.5927(2)
N2A N -0.1071(3) 0.5175(3) 0.5746(2)
C6A C -0.0054(4) 0.4283(3) 0.5953(3)
C5A C -0.0440(4) 0.3554(3) 0.6975(3)
C4A C -0.0338(4) 0.2042(4) 0.7000(3)
C3A C -0.0801(4) 0.1473(4) 0.7980(3)
C2A C -0.1422(4) 0.2383(4) 0.8872(3)
C1A C -0.1573(4) 0.3834(4) 0.8748(3)
H1A H -0.203(4) 0.437(4) 0.923(3)
N1A N -0.1092(3) 0.4419(3) 0.7829(2)
H2A H -0.171(4) 0.203(4) 0.952(3)
H3A H -0.073(4) 0.047(4) 0.802(3)
H4A H 0.000(4) 0.147(4) 0.640(3)
C7A C 0.1088(4) 0.4112(3) 0.5168(3)
C8A C 0.2442(4) 0.3288(3) 0.5209(3)
C9A C 0.3286(4) 0.3032(3) 0.6313(3)
C10A C 0.4566(4) 0.2282(3) 0.6228(3)
C11A C 0.5012(4) 0.1900(4) 0.5079(3)
C12A C 0.4148(4) 0.2240(4) 0.4021(3)
H8A H 0.433(4) 0.194(4) 0.326(3)
N3A N 0.2871(3) 0.2903(3) 0.4073(2)
H7A H 0.584(4) 0.140(4) 0.501(3)
H6A H 0.515(4) 0.207(4) 0.694(3)
H5A H 0.307(4) 0.334(4) 0.704(3)
Zn1A Zn -0.16419(4) 0.64492(4) 0.74950(3)
O3_2 O -0.4445(3) 0.1498(3) 0.14780(19)
O4A O -0.3667(3) -0.1535(2) 0.10467(18)
O2A O -0.3253(3) 0.6702(3) 0.85520(19)
O5A O 0.0799(3) 0.8334(2) 0.83748(19)
V1A V -0.47176(6) 0.72422(6) 0.92885(4)
V2_2 V 0.72788(6) 0.06902(6) 0.19397(4)
O1A O -0.6462(3) 0.5574(3) 0.9059(2)
O6_2 O 0.7792(3) 0.1045(3) 0.35192(19)
V2A V 0.27212(6) -0.06902(6) -0.19397(4)
V1_2 V -0.52824(6) 0.27578(6) 0.07115(4)
V1A_2 V -0.47176(6) -0.27578(6) -0.07115(4)
V2A_2 V 0.27212(6) 0.93098(6) 0.80603(4)
O3A O -0.5555(3) 0.8502(3) 0.85220(19)
O4A_2 O -0.3667(3) 0.8465(2) 1.10467(18)
O4A_3 O 0.6333(3) -0.1535(2) 0.10467(18)
O5_2 O 0.9201(3) 0.1666(2) 0.16252(19)
loop_
_geom_bond_atom_site_label_1
_geom_bond_atom_site_label_2
_geom_bond_site_symmetry_1
_geom_bond_site_symmetry_2
Zn1 O2 1_555 1_555
V1 O1 1_555 1_555
V2 O5 1_555 1_555
O2 V1 1_555 1_555
O3 V1 1_555 1_555
O4 V1 1_555 1_555
O5 Zn1 1_555 1_555
O6 V2 1_555 1_555
C1 C2 1_555 1_555
C2 C3 1_555 1_555
C3 C4 1_555 1_555
C4 C5 1_555 1_555
C5 C6 1_555 1_555
C6 C7 1_555 1_555
C7 C8 1_555 1_555
C8 C9 1_555 1_555
C9 C10 1_555 1_555
C10 C11 1_555 1_555
C11 C12 1_555 1_555
C12 H8 1_555 1_555
H1 C1 1_555 1_555
H2 C2 1_555 1_555
H3 C3 1_555 1_555
H4 C4 1_555 1_555
H5 C9 1_555 1_555
H6 C10 1_555 1_555
H7 C11 1_555 1_555
N1 Zn1 1_555 1_555
N2 Zn1 1_555 1_555
N3 C8 1_555 1_555
N2A C7 1_555 1_555
C6A N2A 1_555 1_555
C5A C6A 1_555 1_555
C4A C5A 1_555 1_555
C3A C4A 1_555 1_555
C2A C3A 1_555 1_555
C1A C2A 1_555 1_555
H1A C1A 1_555 1_555
N1A C5A 1_555 1_555
H2A C2A 1_555 1_555
H3A C3A 1_555 1_555
H4A C4A 1_555 1_555
C7A N2 1_555 1_555
C8A C7A 1_555 1_555
C9A C8A 1_555 1_555
C10A C9A 1_555 1_555
C11A C10A 1_555 1_555
C12A C11A 1_555 1_555
H8A C12A 1_555 1_555
N3A Zn1 1_555 1_555
H7A C11A 1_555 1_555
H6A C10A 1_555 1_555
H5A C9A 1_555 1_555
Zn1A N3 1_555 1_555
O3_2 V2 1_555 1_555
O4A V2 1_555 1_555
O2A Zn1A 1_555 1_555
O5A Zn1A 1_555 1_555
V1A O2A 1_555 1_555
V2_2 O3 1_555 1_555
O1A V1A 1_555 1_555
O6_2 V2_2 1_555 1_555
V2A O4 1_555 1_555
V1_2 O3_2 1_555 1_555
V1A_2 O4A 1_555 1_555
V2A_2 O5A 1_555 1_555
O3A V1A 1_555 1_555
O4A_2 V1A 1_555 1_555
O4A_3 V2_2 1_555 1_555
O5_2 V2_2 1_555 1_555
C1 N1 1_555 1_555
C5 N1 1_555 1_555
C6 N2 1_555 1_555
C12 N3 1_555 1_555
N2A Zn1A 1_555 1_555
C6A C7A 1_555 1_555
C1A N1A 1_555 1_555
N1A Zn1A 1_555 1_555
C8A N3A 1_555 1_555
C12A N3A 1_555 1_555

#END
