
#######################################################################
#
#                 Cambridge Crystallographic Data Centre
#                                CCDC 
#
#######################################################################
#
# If this CIF has been generated from an entry in the Cambridge 
# Structural Database, then it will include bibliographic, chemical, 
# crystal, experimental, refinement or atomic coordinate data resulting 
# from the CCDC's data processing and validation procedures.
#
#######################################################################

data_ATAHAE
_symmetry_cell_setting           monoclinic
_symmetry_space_group_name_H-M   'P 21/c'
_symmetry_Int_Tables_number      14
_space_group_name_Hall           '-P 2ybc'
loop_
_symmetry_equiv_pos_site_id
_symmetry_equiv_pos_as_xyz
1 x,y,z
2 x,1/2-y,1/2+z
3 -x,-y,-z
4 -x,1/2+y,1/2-z
_cell_length_a                   9.7706(4)
_cell_length_b                   12.3549(5)
_cell_length_c                   6.8897(3)
_cell_angle_alpha                90
_cell_angle_beta                 91.640(2)
_cell_angle_gamma                90
_cell_volume                     831.348
loop_
_atom_site_label
_atom_site_type_symbol
_atom_site_fract_x
_atom_site_fract_y
_atom_site_fract_z
Zn1 Zn 0.59151(2) 0.932109(19) 0.17771(4)
Na1 Na 0.35297(9) 0.74021(7) -0.02761(13)
O1 O 0.57947(15) 0.77667(12) 0.0901(2)
O2 O 0.56200(15) 0.61425(12) -0.0396(2)
O3 O 0.58107(14) 0.51701(12) 0.3471(2)
O4 O 0.71610(15) 0.37705(12) 0.2800(2)
O5 O 1.21314(14) 0.46828(12) 0.3088(2)
O6 O 1.28340(14) 0.63336(12) 0.2316(2)
C1 C 0.7695(2) 0.65440(16) 0.1325(3)
C2 C 0.80049(19) 0.55364(15) 0.2171(3)
C3 C 0.9371(2) 0.52498(18) 0.2532(3)
H1 H 0.956(2) 0.4582(18) 0.315(3)
C4 C 1.0431(2) 0.59692(17) 0.2149(3)
C5 C 1.0113(2) 0.69841(18) 0.1390(3)
H2 H 1.082(2) 0.7482(18) 0.118(3)
C6 C 0.8762(2) 0.72660(17) 0.0963(3)
H3 H 0.857(2) 0.7956(17) 0.042(3)
C7 C 0.6281(2) 0.68377(17) 0.0588(3)
C8 C 0.6928(2) 0.47504(17) 0.2821(3)
C9 C 1.1905(2) 0.56541(17) 0.2532(3)
O2A O 0.56200(15) 0.88575(12) 0.4604(2)
O3A O 0.58107(14) 0.98299(12) -0.1529(2)
O3C O 0.41893(14) 1.01701(12) 0.1529(2)
O5C O 0.78686(14) 0.96828(12) 0.1912(2)
O4B O 0.28390(15) 0.62295(12) -0.2800(2)
O4C O 0.28390(15) 0.87705(12) 0.2200(2)
O6_2 O 0.28340(14) 0.63336(12) 0.2316(2)
O6A O 0.28340(14) 0.86664(12) -0.2684(2)
Zn1A Zn 0.59151(2) 0.567891(19) -0.32229(4)
Zn1A_2 Zn 0.59151(2) 0.567891(19) 0.67771(4)
Zn1C Zn 0.40849(2) 0.432109(19) 0.32229(4)
Na1B Na 0.64703(9) 0.25979(7) 0.02761(13)
Na1C Na 0.64703(9) 0.24021(7) 0.52761(13)
Zn1C_2 Zn 1.40849(2) 0.432109(19) 0.32229(4)
Na1_2 Na 1.35297(9) 0.74021(7) -0.02761(13)
Na1A Na 1.35297(9) 0.75979(7) 0.47239(13)
loop_
_geom_bond_atom_site_label_1
_geom_bond_atom_site_label_2
_geom_bond_site_symmetry_1
_geom_bond_site_symmetry_2
Zn1 O1 1_555 1_555
Na1 O1 1_555 1_555
O1 C7 1_555 1_555
O2 Na1 1_555 1_555
O3 C8 1_555 1_555
O4 C8 1_555 1_555
O5 C9 1_555 1_555
O6 C9 1_555 1_555
C1 C2 1_555 1_555
C2 C3 1_555 1_555
C3 H1 1_555 1_555
C4 C3 1_555 1_555
C5 C4 1_555 1_555
H2 C5 1_555 1_555
C6 C1 1_555 1_555
H3 C6 1_555 1_555
C7 O2 1_555 1_555
C8 C2 1_555 1_555
C9 C4 1_555 1_555
O2A Zn1 1_555 1_555
O3A Zn1 1_555 1_555
O3C Zn1 1_555 1_555
O5C Zn1 1_555 1_555
O4B Na1 1_555 1_555
O4C Na1 1_555 1_555
O6_2 Na1 1_555 1_555
O6A Na1 1_555 1_555
Zn1A O2 1_555 1_555
Zn1A_2 O3 1_555 1_555
Zn1C O3 1_555 1_555
Na1B O4 1_555 1_555
Na1C O4 1_555 1_555
Zn1C_2 O5 1_555 1_555
Na1_2 O6 1_555 1_555
Na1A O6 1_555 1_555
C1 C7 1_555 1_555
C5 C6 1_555 1_555

#END
