
#######################################################################
#
#                 Cambridge Crystallographic Data Centre
#                                CCDC 
#
#######################################################################
#
# If this CIF has been generated from an entry in the Cambridge 
# Structural Database, then it will include bibliographic, chemical, 
# crystal, experimental, refinement or atomic coordinate data resulting 
# from the CCDC's data processing and validation procedures.
#
#######################################################################

data_ATAPER
_symmetry_cell_setting           triclinic
_symmetry_space_group_name_H-M   'P 1'
_symmetry_Int_Tables_number      1
_space_group_name_Hall           'P 1'
loop_
_symmetry_equiv_pos_site_id
_symmetry_equiv_pos_as_xyz
1 x,y,z
_cell_length_a                   6.7649(2)
_cell_length_b                   7.7725(2)
_cell_length_c                   31.9377(7)
_cell_angle_alpha                84.8500(10)
_cell_angle_beta                 86.1410(10)
_cell_angle_gamma                89.1300(10)
_cell_volume                     1668.65
loop_
_atom_site_label
_atom_site_type_symbol
_atom_site_fract_x
_atom_site_fract_y
_atom_site_fract_z
Br1 Br 0.5697(6) 0.0462(5) 0.77985(13)
Br2 Br 0.0943(6) 0.3430(5) 0.74639(14)
Br3 Br 0.6155(6) 0.4361(6) 0.68809(15)
Cu1 Cu 0.3976(8) 0.1988(7) 0.71958(18)
Cu2 Cu 0.7958(8) 0.2045(7) 0.72542(18)
S1 S 0.2062(15) 0.2184(13) 0.4892(3)
S2 S -0.1379(16) 0.0232(15) 0.6033(4)
S3 S 0.1477(17) 0.4400(16) 0.4086(4)
S4 S -0.1133(16) -0.0574(15) 0.6948(4)
S5 S 0.3993(17) -0.0256(15) 0.6744(4)
S6 S -0.3432(17) 0.4418(16) 0.4430(4)
S7 S 0.2997(17) 0.0647(14) 0.5844(4)
S8 S -0.2201(16) 0.2158(14) 0.5155(4)
C1 C -0.146(5) 0.355(5) 0.4637(10)
C2 C 0.033(6) -0.001(5) 0.6470(12)
C3 C 0.046(5) 0.167(4) 0.5269(10)
C4 C 0.065(6) 0.088(5) 0.5692(13)
C5 C 0.063(5) -0.146(5) 0.7296(11)
H1 H 0.0809 -0.0653 0.7512
H2 H 0.0106 -0.2558 0.7443
C6 C -0.044(5) 0.479(5) 0.3782(12)
H3 H -0.0519 0.6059 0.3724
H4 H -0.0038 0.4327 0.3510
C7 C 0.219(5) 0.022(5) 0.6415(11)
C8 C 0.043(6) 0.325(5) 0.4564(12)
C9 C -0.236(6) 0.424(6) 0.3887(14)
H5 H -0.2418 0.3010 0.3830
H6 H -0.3228 0.4895 0.3692
C35 C 0.283(6) -0.185(5) 0.7046(13)
H23 H 0.3742 -0.2290 0.7262
H24 H 0.2649 -0.2804 0.6866
Br2_2 Br 1.0943(6) 0.3430(5) 0.74639(14)
Cu2_2 Cu -0.2042(8) 0.2045(7) 0.72542(18)
S4_2 S 0.8867(16) -0.0574(15) 0.6948(4)
Br4 Br 1.4348(6) 0.9611(5) 0.22011(14)
Br5 Br 1.9059(6) 0.6641(5) 0.25333(15)
Br6 Br 1.3843(6) 0.5668(6) 0.31252(15)
Cu3 Cu 1.6030(8) 0.7947(7) 0.28012(18)
Cu4 Cu 1.2012(7) 0.7976(7) 0.27442(18)
S9 S 1.8084(15) 0.7554(13) 0.5124(4)
S10 S 2.1302(16) 0.9617(15) 0.3954(4)
S11 S 1.8416(17) 0.5518(17) 0.5920(4)
S12 S 2.1008(17) 1.0516(15) 0.3041(4)
S13 S 1.6071(17) 1.0152(15) 0.3248(4)
S14 S 2.3558(17) 0.5453(16) 0.5589(4)
S15 S 1.7034(16) 0.9447(14) 0.4161(4)
S16 S 2.2286(15) 0.7667(13) 0.4845(4)
C10 C 2.170(5) 0.659(5) 0.5282(11)
C11 C 2.000(6) 0.998(5) 0.3530(12)
C12 C 2.010(5) 0.814(4) 0.4693(10)
C13 C 1.963(6) 0.897(5) 0.4319(13)
C14 C 1.901(5) 1.145(5) 0.2724(11)
H7 H 1.9618 1.2377 0.2525
H8 H 1.8601 1.0539 0.2552
C15 C 2.054(5) 0.455(5) 0.6240(12)
H9 H 2.0242 0.4688 0.6543
H10 H 2.0693 0.3305 0.6204
C16 C 1.787(5) 0.983(5) 0.3650(11)
C17 C 1.955(6) 0.638(5) 0.5453(12)
C18 C 1.720(6) 1.218(5) 0.2917(13)
H11 H 1.6307 1.2650 0.2702
H12 H 1.7502 1.3094 0.3099
C19 C 2.267(7) 0.560(6) 0.6066(14)
H13 H 2.2446 0.6847 0.6101
H14 H 2.3706 0.5193 0.6256
Br5_2 Br 0.9059(6) 0.6641(5) 0.25333(15)
Cu4_2 Cu 2.2012(7) 0.7976(7) 0.27442(18)
S12_2 S 1.1008(17) 1.0516(15) 0.3041(4)
S17 S 0.4922(16) 0.3390(14) 1.0534(3)
S18 S 0.6359(14) 0.3840(12) 1.1376(3)
S19 S 0.1273(14) 0.4437(12) 1.1653(3)
C20 C 0.441(6) 0.374(5) 1.1078(13)
S20 S -0.0373(14) 0.2597(12) 0.9876(3)
S21 S -0.1734(14) 0.0959(13) 0.9128(3)
S22 S 0.3321(14) 0.0723(12) 0.8836(3)
C21 C 0.218(5) 0.146(5) 0.9262(11)
C22 C 0.019(5) 0.155(5) 0.9428(12)
S23 S 0.0725(13) 0.3799(11) 1.0774(3)
S24 S 0.3857(14) 0.2220(12) 0.9633(3)
C23 C 0.127(5) 0.043(5) 0.8480(11)
H15 H 0.1762 0.0712 0.8183
H16 H 0.0842 -0.0786 0.8513
C24 C 0.277(5) 0.313(5) 1.0425(12)
C25 C -0.059(5) 0.166(4) 0.8589(10)
H17 H -0.1579 0.1602 0.8377
H18 H -0.0142 0.2874 0.8580
C26 C 0.257(5) 0.401(4) 1.1185(10)
C30 C 0.199(6) 0.261(5) 1.0021(12)
C37 C 0.337(6) 0.418(6) 1.1981(13)
H25 H 0.2983 0.4513 1.2268
H26 H 0.3825 0.2962 1.2005
C38 C 0.504(7) 0.534(6) 1.1778(15)
H27 H 0.5947 0.5657 1.1988
H28 H 0.4506 0.6410 1.1631
S25 S 0.5350(18) -0.3245(16) 0.9472(4)
S26 S 0.2501(14) -0.4267(12) 0.8334(3)
S27 S 0.7349(17) -0.3758(15) 0.8625(4)
S28 S 0.2564(14) -0.0650(12) 1.1172(3)
S29 S -0.2221(15) -0.0745(14) 1.0861(3)
S30 S 0.1363(13) -0.3713(12) 0.9221(3)
S31 S 0.3676(13) -0.2155(12) 1.0376(3)
C27 C 0.528(6) -0.362(5) 0.8967(13)
C28 C 0.173(5) -0.138(4) 1.0701(11)
S32 S -0.0346(15) -0.2323(12) 1.0118(3)
C29 C -0.129(4) -0.132(4) 1.1394(9)
H19 H -0.2345 -0.1042 1.1608
H20 H -0.1065 -0.2584 1.1428
C31 C 0.212(6) -0.254(5) 0.9981(12)
C32 C 0.286(5) -0.312(4) 0.9577(10)
C33 C 0.036(6) -0.056(6) 1.1479(13)
H21 H 0.0650 -0.1009 1.1768
H22 H 0.0026 0.0684 1.1491
C34 C -0.013(5) -0.127(5) 1.0606(11)
C36 C 0.344(5) -0.392(4) 0.8812(11)
C39 C 0.469(7) -0.493(6) 0.8124(15)
H29 H 0.4599 -0.6204 0.8178
H30 H 0.4540 -0.4694 0.7818
C40 C 0.667(6) -0.466(6) 0.8153(13)
H31 H 0.7148 -0.3868 0.7908
H32 H 0.7384 -0.5770 0.8133
loop_
_geom_bond_atom_site_label_1
_geom_bond_atom_site_label_2
_geom_bond_site_symmetry_1
_geom_bond_site_symmetry_2
Br1 Cu1 1_555 1_555
Br2 Cu1 1_555 1_555
Br3 Cu1 1_555 1_555
Cu1 S5 1_555 1_555
Cu2 Br1 1_555 1_555
S1 C3 1_555 1_555
S2 C2 1_555 1_555
S3 C6 1_555 1_555
S4 C2 1_555 1_555
S5 C7 1_555 1_555
S6 C1 1_555 1_555
S7 C4 1_555 1_555
S8 C1 1_555 1_555
C1 C8 1_555 1_555
C2 C7 1_555 1_555
C3 S8 1_555 1_555
C4 S2 1_555 1_555
C5 S4 1_555 1_555
H1 C5 1_555 1_555
H2 C5 1_555 1_555
C6 H3 1_555 1_555
H4 C6 1_555 1_555
C7 S7 1_555 1_555
C8 S1 1_555 1_555
C9 S6 1_555 1_555
H5 C9 1_555 1_555
H6 C9 1_555 1_555
Br4 Cu3 1_555 1_555
Br5 Cu3 1_555 1_555
Br6 Cu3 1_555 1_555
Cu3 S13 1_555 1_555
Cu4 Br4 1_555 1_555
S9 C12 1_555 1_555
S10 C11 1_555 1_555
S11 C15 1_555 1_555
S12 C11 1_555 1_555
S13 C16 1_555 1_555
S14 C10 1_555 1_555
S15 C13 1_555 1_555
S16 C10 1_555 1_555
C10 C17 1_555 1_555
C11 C16 1_555 1_555
C12 S16 1_555 1_555
C13 S10 1_555 1_555
C14 S12 1_555 1_555
H7 C14 1_555 1_555
H8 C14 1_555 1_555
C15 H9 1_555 1_555
H10 C15 1_555 1_555
C16 S15 1_555 1_555
C17 S9 1_555 1_555
C18 S13 1_555 1_555
H11 C18 1_555 1_555
H12 C18 1_555 1_555
C19 S14 1_555 1_555
H13 C19 1_555 1_555
H14 C19 1_555 1_555
S17 C20 1_555 1_555
S18 C20 1_555 1_555
S19 C26 1_555 1_555
C20 C26 1_555 1_555
S20 C22 1_555 1_555
S21 C22 1_555 1_555
S22 C21 1_555 1_555
C21 C22 1_555 1_555
S23 C24 1_555 1_555
S24 C21 1_555 1_555
C23 S22 1_555 1_555
H15 C23 1_555 1_555
H16 C23 1_555 1_555
C24 S17 1_555 1_555
C25 S21 1_555 1_555
H17 C25 1_555 1_555
H18 C25 1_555 1_555
S25 C27 1_555 1_555
S26 C36 1_555 1_555
S27 C27 1_555 1_555
S28 C28 1_555 1_555
S29 C29 1_555 1_555
S30 C32 1_555 1_555
S31 C28 1_555 1_555
C26 S23 1_555 1_555
C27 C36 1_555 1_555
C28 C34 1_555 1_555
S32 C31 1_555 1_555
C29 H19 1_555 1_555
H20 C29 1_555 1_555
C30 S20 1_555 1_555
C31 S31 1_555 1_555
C32 S25 1_555 1_555
C33 S28 1_555 1_555
H21 C33 1_555 1_555
H22 C33 1_555 1_555
C34 S29 1_555 1_555
C35 S5 1_555 1_555
H23 C35 1_555 1_555
H24 C35 1_555 1_555
C36 S30 1_555 1_555
C37 S19 1_555 1_555
H25 C37 1_555 1_555
H26 C37 1_555 1_555
C38 S18 1_555 1_555
H27 C38 1_555 1_555
H28 C38 1_555 1_555
C39 S26 1_555 1_555
H29 C39 1_555 1_555
H30 C39 1_555 1_555
C40 S27 1_555 1_555
H31 C40 1_555 1_555
H32 C40 1_555 1_555
Br2_2 Cu2 1_555 1_555
Cu2_2 Br2 1_555 1_555
S4_2 Cu2 1_555 1_555
Br5_2 Cu4 1_555 1_555
Cu4_2 Br5 1_555 1_555
S12_2 Cu4 1_555 1_555
Br3 Cu2 1_555 1_555
S3 C8 1_555 1_555
S4 Cu2_2 1_555 1_555
C3 C4 1_555 1_555
C5 C35 1_555 1_555
C6 C9 1_555 1_555
Br6 Cu4 1_555 1_555
S11 C17 1_555 1_555
S12 Cu4_2 1_555 1_555
C12 C13 1_555 1_555
C14 C18 1_555 1_555
C15 C19 1_555 1_555
S24 C30 1_555 1_555
C23 C25 1_555 1_555
C24 C30 1_555 1_555
S32 C34 1_555 1_555
C29 C33 1_555 1_555
C31 C32 1_555 1_555
C37 C38 1_555 1_555
C39 C40 1_555 1_555

#END
