
#######################################################################
#
#                 Cambridge Crystallographic Data Centre
#                                CCDC 
#
#######################################################################
#
# If this CIF has been generated from an entry in the Cambridge 
# Structural Database, then it will include bibliographic, chemical, 
# crystal, experimental, refinement or atomic coordinate data resulting 
# from the CCDC's data processing and validation procedures.
#
#######################################################################

data_ATEREX
_symmetry_cell_setting           triclinic
_symmetry_space_group_name_H-M   'P 1'
_symmetry_Int_Tables_number      1
_space_group_name_Hall           'P 1'
loop_
_symmetry_equiv_pos_site_id
_symmetry_equiv_pos_as_xyz
1 x,y,z
_cell_length_a                   4.78024(15)
_cell_length_b                   4.77979(11)
_cell_length_c                   29.1087(12)
_cell_angle_alpha                94.978(3)
_cell_angle_beta                 95.445(3)
_cell_angle_gamma                70.907(3)
_cell_volume                     624.569
loop_
_atom_site_label
_atom_site_type_symbol
_atom_site_fract_x
_atom_site_fract_y
_atom_site_fract_z
Zn1 Zn -1.3454(9) 2.3601(9) 0.00441(16)
O1 O -1.076(4) 2.264(11) -0.0477(4)
O2 O -0.776(2) 2.416(9) -0.0011(8)
O3 O -1.156(9) 2.090(6) 0.0556(10)
O4 O -1.359(10) 1.778(2) 0.0228(11)
C1 C -0.8222(13) 2.288(5) -0.0396(6)
C2 C -0.6341(20) 2.084(12) -0.0773(13)
C3 C -0.7496(7) 1.916(14) -0.1188(16)
C4 C -0.5171(9) 1.702(15) -0.1495(15)
C5 C -0.654(4) 1.575(17) -0.1930(12)
C6 C -0.445(6) 1.442(12) -0.2325(13)
C7 C -0.560(6) 1.234(15) -0.2681(19)
C8 C -0.328(5) 1.075(14) -0.3031(15)
C9 C -0.479(3) 0.906(12) -0.3369(15)
C10 C -0.269(11) 0.699(12) -0.3731(17)
C11 C -1.2111(19) 1.8454(10) 0.0579(4)
C12 C -0.954(10) 1.643(2) 0.0891(13)
C13 C -0.813(15) 1.7596(11) 0.1332(15)
C14 C -0.618(17) 1.5247(7) 0.1660(14)
C15 C -0.518(19) 1.6651(13) 0.2109(15)
C16 C -0.306(12) 1.4338(4) 0.2435(11)
C17 C -0.202(19) 1.5770(20) 0.2883(14)
C18 C -0.014(16) 1.3403(6) 0.3213(10)
C19 C 0.056(15) 1.49099(18) 0.3662(10)
C20 C 0.228(14) 1.256(2) 0.4004(13)
C21 C 0.365(13) 1.394(2) 0.4428(12)
C22 C 0.553(15) 1.1600(18) 0.4765(12)
C23 C 0.647(16) 1.3121(19) 0.5208(14)
C24 C 0.835(13) 1.073(10) 0.5537(17)
Zn1_2 Zn -0.3454(9) 2.3601(9) 0.00441(16)
Zn1_3 Zn -1.3454(9) 1.3601(9) 0.00441(16)
O2_2 O -1.776(2) 2.416(9) -0.0011(8)
O4_2 O -1.359(10) 2.778(2) 0.0228(11)
loop_
_geom_bond_atom_site_label_1
_geom_bond_atom_site_label_2
_geom_bond_site_symmetry_1
_geom_bond_site_symmetry_2
Zn1 O1 1_555 1_555
O1 C1 1_555 1_555
O2 C1 1_555 1_555
O3 Zn1 1_555 1_555
O4 C11 1_555 1_555
C1 C2 1_555 1_555
C2 C3 1_555 1_555
C3 C4 1_555 1_555
C4 C5 1_555 1_555
C5 C6 1_555 1_555
C6 C7 1_555 1_555
C7 C8 1_555 1_555
C8 C9 1_555 1_555
C9 C10 1_555 1_555
C11 O3 1_555 1_555
C12 C11 1_555 1_555
C13 C12 1_555 1_555
C14 C13 1_555 1_555
C15 C14 1_555 1_555
C16 C15 1_555 1_555
C17 C16 1_555 1_555
C18 C17 1_555 1_555
C19 C18 1_555 1_555
C20 C19 1_555 1_555
C21 C20 1_555 1_555
C22 C21 1_555 1_555
C23 C22 1_555 1_555
C24 C23 1_555 1_555
Zn1_2 O2 1_555 1_555
Zn1_3 O4 1_555 1_555
O2_2 Zn1 1_555 1_555
O4_2 Zn1 1_555 1_555

#END
