
#######################################################################
#
#                 Cambridge Crystallographic Data Centre
#                                CCDC 
#
#######################################################################
#
# If this CIF has been generated from an entry in the Cambridge 
# Structural Database, then it will include bibliographic, chemical, 
# crystal, experimental, refinement or atomic coordinate data resulting 
# from the CCDC's data processing and validation procedures.
#
#######################################################################

data_ATEVIE
_symmetry_cell_setting           orthorhombic
_symmetry_space_group_name_H-M   'P n m a'
_symmetry_Int_Tables_number      62
_space_group_name_Hall           '-P 2ac 2n'
loop_
_symmetry_equiv_pos_site_id
_symmetry_equiv_pos_as_xyz
1 x,y,z
2 1/2+x,y,1/2-z
3 x,1/2-y,z
4 1/2-x,1/2+y,1/2+z
5 -x,-y,-z
6 1/2-x,-y,1/2+z
7 -x,1/2+y,-z
8 1/2+x,1/2-y,1/2-z
_cell_length_a                   14.0337(10)
_cell_length_b                   11.9862(8)
_cell_length_c                   10.4162(7)
_cell_angle_alpha                90
_cell_angle_beta                 90
_cell_angle_gamma                90
_cell_volume                     1752.12
loop_
_atom_site_label
_atom_site_type_symbol
_atom_site_fract_x
_atom_site_fract_y
_atom_site_fract_z
Cu1 Cu 0.117341(17) 0.2500 -0.09021(2)
C1 C 0.37528(14) 0.2500 0.2237(2)
N1 N 0.19644(8) 0.13169(10) -0.01065(11)
N2 N 0.50952(13) 0.2500 0.42148(16)
C2 C 0.26856(10) 0.14596(13) 0.07989(13)
C3 C -0.05821(16) 0.2500 -0.2994(2)
H1 H -0.1139 0.2500 -0.3513
C4 C 0.29824(11) 0.03960(13) 0.12458(15)
H2 H 0.3466 0.0252 0.1862
C5 C 0.30120(14) 0.2500 0.12023(19)
C6 C -0.01988(11) 0.14730(14) -0.26366(14)
C7 C 0.41651(16) 0.2500 0.4457(2)
H3 H 0.3963 0.2500 0.5328
C8 C 0.18217(11) 0.02174(12) -0.01948(14)
H4 H 0.1361 -0.0120 -0.0739
C9 C 0.24416(12) -0.03799(14) 0.06218(15)
H5 H 0.2476 -0.1167 0.0718
C10 C 0.47161(16) 0.2500 0.1973(2)
H6 H 0.4937 0.2500 0.1110
C11 C 0.34769(16) 0.2500 0.3507(2)
H7 H 0.2820 0.2500 0.3728
C12 C -0.06365(12) 0.04195(15) -0.31415(17)
H8 H -0.0201 0.0071 -0.3757
H9 H -0.1240 0.0595 -0.3569
H10 H -0.0755 -0.0095 -0.2428
C13 C 0.53549(16) 0.2500 0.2981(2)
H11 H 0.6016 0.2500 0.2787
O1 O 0.05114(7) 0.13442(9) -0.18856(10)
C2B C 0.26856(10) 0.35404(13) 0.07989(13)
N1B N 0.19644(8) 0.36831(10) -0.01065(11)
C8B C 0.18217(11) 0.47826(12) -0.01948(14)
H4B H 0.1361 0.5120 -0.0739
C9B C 0.24416(12) 0.53799(14) 0.06218(15)
C4B C 0.29824(11) 0.46040(13) 0.12458(15)
H2B H 0.3466 0.4748 0.1862
H5B H 0.2476 0.6167 0.0718
C6B C -0.01988(11) 0.35270(14) -0.26366(14)
C12B C -0.06365(12) 0.45805(15) -0.31415(17)
H8B H -0.0201 0.4929 -0.3757
H9B H -0.1240 0.4405 -0.3569
H10B H -0.0755 0.5095 -0.2428
O1B O 0.05114(7) 0.36558(9) -0.18856(10)
N2A N 0.00952(13) 0.2500 0.07852(16)
Cu1A Cu 0.617341(17) 0.2500 0.59021(2)
loop_
_geom_bond_atom_site_label_1
_geom_bond_atom_site_label_2
_geom_bond_site_symmetry_1
_geom_bond_site_symmetry_2
Cu1 N1 1_555 1_555
C1 C5 1_555 1_555
N1 C2 1_555 1_555
N2 C7 1_555 1_555
C2 C4 1_555 1_555
C3 H1 1_555 1_555
C4 H2 1_555 1_555
C5 C2 1_555 1_555
C6 C3 1_555 1_555
C7 H3 1_555 1_555
C8 N1 1_555 1_555
H4 C8 1_555 1_555
C9 C4 1_555 1_555
H5 C9 1_555 1_555
C10 C1 1_555 1_555
H6 C10 1_555 1_555
C11 C1 1_555 1_555
H7 C11 1_555 1_555
C12 C6 1_555 1_555
H8 C12 1_555 1_555
H9 C12 1_555 1_555
H10 C12 1_555 1_555
C13 N2 1_555 1_555
H11 C13 1_555 1_555
O1 Cu1 1_555 1_555
C2B C5 1_555 1_555
N1B Cu1 1_555 1_555
C8B N1B 1_555 1_555
H4B C8B 1_555 1_555
C9B C8B 1_555 1_555
C4B C2B 1_555 1_555
H2B C4B 1_555 1_555
H5B C9B 1_555 1_555
C6B C3 1_555 1_555
C12B C6B 1_555 1_555
H8B C12B 1_555 1_555
H9B C12B 1_555 1_555
H10B C12B 1_555 1_555
O1B Cu1 1_555 1_555
N2A Cu1 1_555 1_555
Cu1A N2 1_555 1_555
C6 O1 1_555 1_555
C7 C11 1_555 1_555
C8 C9 1_555 1_555
C10 C13 1_555 1_555
C2B N1B 1_555 1_555
C9B C4B 1_555 1_555
C6B O1B 1_555 1_555

#END
