
#######################################################################
#
#                 Cambridge Crystallographic Data Centre
#                                CCDC 
#
#######################################################################
#
# If this CIF has been generated from an entry in the Cambridge 
# Structural Database, then it will include bibliographic, chemical, 
# crystal, experimental, refinement or atomic coordinate data resulting 
# from the CCDC's data processing and validation procedures.
#
#######################################################################

data_ATEYIH
_symmetry_cell_setting           orthorhombic
_symmetry_space_group_name_H-M   'P b c m'
_symmetry_Int_Tables_number      57
_space_group_name_Hall           '-P 2c 2b'
loop_
_symmetry_equiv_pos_site_id
_symmetry_equiv_pos_as_xyz
1 x,y,z
2 x,y,1/2-z
3 -x,1/2+y,z
4 x,1/2-y,1/2+z
5 -x,-y,-z
6 -x,-y,1/2+z
7 x,1/2-y,-z
8 -x,1/2+y,1/2-z
_cell_length_a                   9.270(3)
_cell_length_b                   11.819(4)
_cell_length_c                   20.639(8)
_cell_angle_alpha                90
_cell_angle_beta                 90
_cell_angle_gamma                90
_cell_volume                     2261.25
loop_
_atom_site_label
_atom_site_type_symbol
_atom_site_fract_x
_atom_site_fract_y
_atom_site_fract_z
S1 S 0.83355(17) 0.2500 0.5000
Co1 Co 1.0000 0.5000 0.5000
N1 N 1.3390(3) 0.3005(3) 0.58022(15)
O1 O 0.9272(3) 0.3392(2) 0.47235(17)
N2 N 1.1858(3) 0.4270(3) 0.54353(17)
C1 C 1.2014(4) 0.3228(3) 0.56479(18)
H1 H 1.1263 0.2710 0.5686
C2 C 1.3962(5) 0.1956(4) 0.60860(19)
H2 H 1.4944 0.1844 0.5937
H3 H 1.3390 0.1321 0.5935
C3 C 1.3222(4) 0.4737(4) 0.5455(2)
H4 H 1.3454 0.5472 0.5332
O2 O 0.8775(4) 0.4878(3) 0.59007(18)
H5 H 0.933(5) 0.495(3) 0.639(2)
H6 H 0.838(5) 0.422(4) 0.586(2)
C4 C 1.3946(5) 0.1976(3) 0.68194(19)
C5 C 1.4165(5) 0.3965(4) 0.5680(2)
H7 H 1.5151 0.4066 0.5740
O3 O 0.7437(4) 0.2034(3) 0.4483(3)
C6 C 1.3666(8) 0.2940(4) 0.7164(2)
H8 H 1.3472 0.3609 0.6943
C7 C 1.4091(9) 0.1015(4) 0.7160(3)
H9 H 1.4194 0.0333 0.6941
O1F O 0.9272(3) 0.1608(2) 0.52765(17)
O3F O 0.7437(4) 0.2966(3) 0.5517(3)
C6A C 1.3666(8) 0.2940(4) 0.7836(2)
C4A C 1.3946(5) 0.1976(3) 0.81806(19)
C2A C 1.3962(5) 0.1956(4) 0.89140(19)
N1A N 1.3390(3) 0.3005(3) 0.91978(15)
C1A C 1.2014(4) 0.3228(3) 0.93521(18)
N2A N 1.1858(3) 0.4270(3) 0.95647(17)
C3A C 1.3222(4) 0.4737(4) 0.9545(2)
H4A H 1.3454 0.5472 0.9668
C5A C 1.4165(5) 0.3965(4) 0.9320(2)
H7A H 1.5151 0.4066 0.9260
H1A H 1.1263 0.2710 0.9314
H2A H 1.4944 0.1844 0.9063
H3A H 1.3390 0.1321 0.9065
C7A C 1.4091(9) 0.1015(4) 0.7840(3)
H9A H 1.4194 0.0333 0.8059
H8A H 1.3472 0.3609 0.8057
O2D O 1.1225(4) 0.5122(3) 0.40993(18)
H5D H 1.067(5) 0.505(3) 0.361(2)
H6D H 1.162(5) 0.578(4) 0.414(2)
O1D O 1.0728(3) 0.6608(2) 0.52765(17)
N2D N 0.8142(3) 0.5730(3) 0.45647(17)
Co1B Co 1.0000 0.0000 0.5000
Co1A Co 1.0000 0.5000 1.0000
loop_
_geom_bond_atom_site_label_1
_geom_bond_atom_site_label_2
_geom_bond_site_symmetry_1
_geom_bond_site_symmetry_2
S1 O1 1_555 1_555
Co1 O1 1_555 1_555
N1 C1 1_555 1_555
N2 Co1 1_555 1_555
C1 N2 1_555 1_555
H1 C1 1_555 1_555
C2 N1 1_555 1_555
H2 C2 1_555 1_555
H3 C2 1_555 1_555
C3 N2 1_555 1_555
H4 C3 1_555 1_555
O2 Co1 1_555 1_555
H5 O2 1_555 1_555
H6 O2 1_555 1_555
C4 C2 1_555 1_555
C5 N1 1_555 1_555
H7 C5 1_555 1_555
O3 S1 1_555 1_555
C6 C4 1_555 1_555
H8 C6 1_555 1_555
C7 C4 1_555 1_555
H9 C7 1_555 1_555
O1F S1 1_555 1_555
O3F S1 1_555 1_555
C6A C6 1_555 1_555
C4A C6A 1_555 1_555
C2A C4A 1_555 1_555
N1A C2A 1_555 1_555
C1A N1A 1_555 1_555
N2A C1A 1_555 1_555
C3A N2A 1_555 1_555
H4A C3A 1_555 1_555
C5A N1A 1_555 1_555
H7A C5A 1_555 1_555
H1A C1A 1_555 1_555
H2A C2A 1_555 1_555
H3A C2A 1_555 1_555
C7A C7 1_555 1_555
H9A C7A 1_555 1_555
H8A C6A 1_555 1_555
O2D Co1 1_555 1_555
H5D O2D 1_555 1_555
H6D O2D 1_555 1_555
O1D Co1 1_555 1_555
N2D Co1 1_555 1_555
Co1B O1F 1_555 1_555
Co1A N2A 1_555 1_555
C3 C5 1_555 1_555
C4A C7A 1_555 1_555
C3A C5A 1_555 1_555

#END
