
#######################################################################
#
#                 Cambridge Crystallographic Data Centre
#                                CCDC 
#
#######################################################################
#
# If this CIF has been generated from an entry in the Cambridge 
# Structural Database, then it will include bibliographic, chemical, 
# crystal, experimental, refinement or atomic coordinate data resulting 
# from the CCDC's data processing and validation procedures.
#
#######################################################################

data_ATIBIP
_symmetry_cell_setting           orthorhombic
_symmetry_space_group_name_H-M   'P 21 21 21'
_symmetry_Int_Tables_number      19
_space_group_name_Hall           'P 2ac 2ab'
loop_
_symmetry_equiv_pos_site_id
_symmetry_equiv_pos_as_xyz
1 x,y,z
2 1/2+x,1/2-y,-z
3 -x,1/2+y,1/2-z
4 1/2-x,-y,1/2+z
_cell_length_a                   16.1277(6)
_cell_length_b                   18.8951(6)
_cell_length_c                   20.9790(15)
_cell_angle_alpha                90
_cell_angle_beta                 90
_cell_angle_gamma                90
_cell_volume                     6393.03
loop_
_atom_site_label
_atom_site_type_symbol
_atom_site_fract_x
_atom_site_fract_y
_atom_site_fract_z
Ru1 Ru 0.33153(2) 0.541288(19) 0.408114(17)
P1 P 0.44625(8) 0.61199(6) 0.41295(6)
P2 P 0.41257(8) 0.45266(6) 0.36993(5)
O1 O 0.3344(2) 0.50123(15) 0.50149(15)
O2 O 0.3054(2) 0.52539(18) 0.60335(14)
O3 O 0.2902(2) 0.58398(17) 0.32061(15)
O4 O 0.2099(2) 0.56710(17) 0.23575(16)
O8 O 0.1903(2) 0.4079(2) 0.5875(2)
O9 O 0.3749(3) 0.3612(2) 0.6143(2)
N1 N 0.2571(2) 0.6169(2) 0.46300(18)
N2 N 0.2192(2) 0.4814(2) 0.38791(17)
C1 C 0.4164(3) 0.7071(2) 0.4140(2)
C2 C 0.4500(3) 0.7559(2) 0.4570(2)
C3 C 0.4170(3) 0.8240(2) 0.4599(2)
C4 C 0.3510(3) 0.8437(2) 0.4210(2)
C5 C 0.3198(3) 0.7960(2) 0.3779(2)
C6 C 0.3502(3) 0.7277(2) 0.3741(2)
C7 C 0.5234(3) 0.6088(2) 0.4774(2)
C8 C 0.5943(3) 0.6504(2) 0.4733(2)
C9 C 0.6522(3) 0.6504(2) 0.5218(2)
C10 C 0.6399(3) 0.6072(2) 0.5749(2)
C11 C 0.5712(3) 0.5643(2) 0.5782(2)
C12 C 0.5122(3) 0.5643(2) 0.5303(2)
C13 C 0.5139(3) 0.6028(2) 0.3426(2)
C14 C 0.5053(3) 0.6510(2) 0.2904(2)
C15 C 0.5528(3) 0.6432(2) 0.2370(2)
C16 C 0.6088(3) 0.5865(2) 0.2301(2)
C17 C 0.6588(3) 0.5775(2) 0.1749(2)
C18 C 0.7139(3) 0.5231(2) 0.1700(2)
C19 C 0.7214(3) 0.4744(2) 0.2190(2)
C20 C 0.6744(3) 0.4799(2) 0.2732(2)
C21 C 0.6171(3) 0.5367(2) 0.2809(2)
C22 C 0.5675(2) 0.5452(2) 0.33742(19)
C23 C 0.5789(3) 0.4930(2) 0.3913(2)
C24 C 0.6576(3) 0.4907(2) 0.4227(2)
C25 C 0.7235(2) 0.5369(2) 0.4087(2)
C26 C 0.7983(3) 0.5323(2) 0.4381(2)
C27 C 0.8123(3) 0.4809(2) 0.4846(2)
C28 C 0.7492(3) 0.4360(2) 0.5022(2)
C29 C 0.6704(3) 0.4402(2) 0.4724(2)
C30 C 0.6034(3) 0.3951(2) 0.4903(2)
C31 C 0.5300(3) 0.3989(2) 0.4597(2)
C32 C 0.5155(3) 0.4476(2) 0.4080(2)
C33 C 0.3605(3) 0.3668(2) 0.3845(2)
C34 C 0.3348(3) 0.3235(2) 0.3340(2)
C35 C 0.2845(3) 0.2658(2) 0.3451(2)
C36 C 0.2589(3) 0.2498(2) 0.4061(2)
C37 C 0.2834(4) 0.2910(2) 0.4563(2)
C38 C 0.3322(3) 0.3506(2) 0.4457(2)
C39 C 0.4437(2) 0.4440(2) 0.2866(2)
C40 C 0.4190(3) 0.4931(2) 0.2411(2)
C41 C 0.4435(3) 0.4858(2) 0.1774(2)
C42 C 0.4951(3) 0.4319(2) 0.1600(2)
C43 C 0.5212(3) 0.3823(2) 0.2056(2)
C44 C 0.4956(3) 0.3888(2) 0.2675(2)
C45 C 0.2988(3) 0.6203(2) 0.5261(2)
C46 C 0.2629(3) 0.6698(2) 0.5752(2)
C47 C 0.3115(3) 0.7271(2) 0.5954(2)
C48 C 0.2823(4) 0.7745(3) 0.6402(2)
C49 C 0.2051(3) 0.7653(2) 0.6658(2)
C50 C 0.1558(3) 0.7091(2) 0.6456(2)
C51 C 0.1849(3) 0.6617(2) 0.6012(2)
C52 C 0.3120(2) 0.5436(2) 0.5473(2)
C53 C 0.2091(3) 0.4778(2) 0.3174(2)
C54 C 0.1272(3) 0.4487(2) 0.2945(2)
C55 C 0.0541(3) 0.4587(4) 0.3264(2)
C56 C -0.0212(4) 0.4326(4) 0.3033(3)
C57 C -0.0207(4) 0.3941(3) 0.2468(3)
C58 C 0.0513(4) 0.3857(3) 0.2138(2)
C59 C 0.1250(3) 0.4115(2) 0.2369(2)
C60 C 0.2354(3) 0.5479(2) 0.2887(2)
Li1 Li 0.2948(7) 0.4339(4) 0.6421(4)
H1 H 0.2568 0.6606 0.4436
H2 H 0.2034 0.6013 0.4672
H3 H 0.4948 0.7429 0.4838
H4 H 0.2235 0.4365 0.4046
H5 H 0.1741 0.5032 0.4061
H6 H 0.4398 0.8574 0.4888
H7 H 0.3278 0.8897 0.4242
H8 H 0.2764 0.8102 0.3501
H9 H 0.3267 0.6949 0.3449
H10 H 0.6030 0.6793 0.4368
H11 H 0.7000 0.6795 0.5190
H12 H 0.6790 0.6074 0.6088
H13 H 0.5641 0.5341 0.6141
H14 H 0.4648 0.5345 0.5332
H15 H 0.4663 0.6885 0.2930
H16 H 0.5480 0.6769 0.2036
H17 H 0.6537 0.6101 0.1407
H18 H 0.7472 0.5185 0.1329
H19 H 0.7598 0.4366 0.2150
H20 H 0.6801 0.4455 0.3059
H21 H 0.7153 0.5727 0.3775
H22 H 0.8414 0.5643 0.4270
H23 H 0.8652 0.4769 0.5041
H24 H 0.7584 0.4019 0.5347
H25 H 0.6106 0.3621 0.5241
H26 H 0.4863 0.3684 0.4727
H27 H 0.3522 0.3339 0.2918
H28 H 0.2673 0.2369 0.3105
H29 H 0.2242 0.2100 0.4133
H30 H 0.2670 0.2790 0.4985
H31 H 0.3464 0.3806 0.4804
H32 H 0.3851 0.5319 0.2533
H33 H 0.4242 0.5184 0.1462
H34 H 0.5135 0.4281 0.1171
H35 H 0.5564 0.3443 0.1935
H36 H 0.5134 0.3551 0.2981
H37 H 0.3556 0.6391 0.5171
H38 H 0.3654 0.7334 0.5780
H39 H 0.3156 0.8134 0.6531
H40 H 0.1851 0.7972 0.6973
H41 H 0.1016 0.7034 0.6627
H42 H 0.1511 0.6231 0.5884
H43 H 0.2516 0.4429 0.3027
H44 H 0.0545 0.4843 0.3654
H45 H -0.0715 0.4408 0.3257
H46 H -0.0705 0.3738 0.2312
H47 H 0.0505 0.3615 0.1742
H48 H 0.1748 0.4041 0.2136
O4C O 0.2901(2) 0.43290(17) 0.73575(16)
Li1C Li 0.2052(7) 0.5661(4) 0.1421(4)
Br1 Br 0.07366(4) 0.52775(3) 0.49527(3)
O5 O 0.0950(3) 0.3020(2) 0.5284(2)
C61 C 0.0673(4) 0.3213(4) 0.4648(3)
C62 C -0.0242(5) 0.3254(5) 0.4677(4)
C63 C -0.0425(5) 0.3428(4) 0.5376(4)
C64 C 0.0237(4) 0.3014(3) 0.5688(3)
H49 H 0.0849 0.2851 0.4334
H50 H 0.0910 0.3675 0.4521
H51 H -0.0496 0.2797 0.4553
H52 H -0.0454 0.3630 0.4392
H53 H -0.0372 0.3940 0.5464
H54 H -0.0984 0.3264 0.5505
H55 H 0.0375 0.3226 0.6107
H56 H 0.0049 0.2522 0.5759
O6 O 0.3279(4) 0.2305(2) 0.6667(2)
C65 C 0.2792(4) 0.1790(4) 0.6328(4)
C66 C 0.1911(5) 0.2025(3) 0.6383(3)
C67 C 0.1926(5) 0.2432(4) 0.7022(4)
C68 C 0.2810(5) 0.2487(4) 0.7210(3)
H57 H 0.2864 0.1315 0.6518
H58 H 0.2962 0.1770 0.5875
H59 H 0.1528 0.1616 0.6401
H60 H 0.1752 0.2337 0.6025
H61 H 0.1681 0.2909 0.6968
H62 H 0.1607 0.2173 0.7350
H63 H 0.2941 0.2976 0.7348
H64 H 0.2932 0.2160 0.7566
O7 O 0.5413(5) 0.3414(4) 0.6514(4)
C69 C 0.5607(13) 0.4001(6) 0.6892(7)
C70 C 0.5785(15) 0.3793(7) 0.7523(7)
C71 C 0.5265(9) 0.3077(5) 0.7579(5)
C72 C 0.5383(7) 0.2822(5) 0.6941(5)
H65 H 0.5134 0.4334 0.6892
H66 H 0.6093 0.4248 0.6709
H67 H 0.5594 0.4150 0.7835
H68 H 0.6386 0.3707 0.7584
H69 H 0.5501 0.2751 0.7901
H70 H 0.4674 0.3168 0.7675
H71 H 0.5906 0.2550 0.6914
H72 H 0.4919 0.2505 0.6822
loop_
_geom_bond_atom_site_label_1
_geom_bond_atom_site_label_2
_geom_bond_site_symmetry_1
_geom_bond_site_symmetry_2
Ru1 P1 1_555 1_555
P1 C1 1_555 1_555
P2 Ru1 1_555 1_555
O1 Ru1 1_555 1_555
O2 C52 1_555 1_555
O3 Ru1 1_555 1_555
O4 C60 1_555 1_555
O5 C61 1_555 1_555
O6 C65 1_555 1_555
O7 C69 1_555 1_555
O8 Li1 1_555 1_555
O9 Li1 1_555 1_555
N1 Ru1 1_555 1_555
N2 Ru1 1_555 1_555
C1 C2 1_555 1_555
C2 C3 1_555 1_555
C3 C4 1_555 1_555
C4 C5 1_555 1_555
C5 C6 1_555 1_555
C6 C1 1_555 1_555
C7 P1 1_555 1_555
C8 C7 1_555 1_555
C9 C8 1_555 1_555
C10 C9 1_555 1_555
C11 C10 1_555 1_555
C12 C7 1_555 1_555
C13 P1 1_555 1_555
C14 C13 1_555 1_555
C15 C14 1_555 1_555
C16 C15 1_555 1_555
C17 C16 1_555 1_555
C18 C17 1_555 1_555
C19 C18 1_555 1_555
C20 C19 1_555 1_555
C21 C16 1_555 1_555
C22 C13 1_555 1_555
C23 C22 1_555 1_555
C24 C23 1_555 1_555
C25 C24 1_555 1_555
C26 C25 1_555 1_555
C27 C26 1_555 1_555
C28 C27 1_555 1_555
C29 C24 1_555 1_555
C30 C29 1_555 1_555
C31 C30 1_555 1_555
C32 P2 1_555 1_555
C33 P2 1_555 1_555
C34 C33 1_555 1_555
C35 C34 1_555 1_555
C36 C35 1_555 1_555
C37 C36 1_555 1_555
C38 C33 1_555 1_555
C39 P2 1_555 1_555
C40 C39 1_555 1_555
C41 C40 1_555 1_555
C42 C41 1_555 1_555
C43 C42 1_555 1_555
C44 C39 1_555 1_555
C45 N1 1_555 1_555
C46 C45 1_555 1_555
C47 C46 1_555 1_555
C48 C47 1_555 1_555
C49 C48 1_555 1_555
C50 C49 1_555 1_555
C51 C46 1_555 1_555
C52 O1 1_555 1_555
C53 N2 1_555 1_555
C54 C53 1_555 1_555
C55 C54 1_555 1_555
C56 C55 1_555 1_555
C57 C56 1_555 1_555
C58 C57 1_555 1_555
C59 C54 1_555 1_555
C60 O3 1_555 1_555
C61 C62 1_555 1_555
C62 C63 1_555 1_555
C63 C64 1_555 1_555
C64 O5 1_555 1_555
C65 C66 1_555 1_555
C66 C67 1_555 1_555
C67 C68 1_555 1_555
C68 O6 1_555 1_555
C69 C70 1_555 1_555
C70 C71 1_555 1_555
C71 C72 1_555 1_555
C72 O7 1_555 1_555
Li1 O2 1_555 1_555
H1 N1 1_555 1_555
H2 N1 1_555 1_555
H3 C2 1_555 1_555
H4 N2 1_555 1_555
H5 N2 1_555 1_555
H6 C3 1_555 1_555
H7 C4 1_555 1_555
H8 C5 1_555 1_555
H9 C6 1_555 1_555
H10 C8 1_555 1_555
H11 C9 1_555 1_555
H12 C10 1_555 1_555
H13 C11 1_555 1_555
H14 C12 1_555 1_555
H15 C14 1_555 1_555
H16 C15 1_555 1_555
H17 C17 1_555 1_555
H18 C18 1_555 1_555
H19 C19 1_555 1_555
H20 C20 1_555 1_555
H21 C25 1_555 1_555
H22 C26 1_555 1_555
H23 C27 1_555 1_555
H24 C28 1_555 1_555
H25 C30 1_555 1_555
H26 C31 1_555 1_555
H27 C34 1_555 1_555
H28 C35 1_555 1_555
H29 C36 1_555 1_555
H30 C37 1_555 1_555
H31 C38 1_555 1_555
H32 C40 1_555 1_555
H33 C41 1_555 1_555
H34 C42 1_555 1_555
H35 C43 1_555 1_555
H36 C44 1_555 1_555
H37 C45 1_555 1_555
H38 C47 1_555 1_555
H39 C48 1_555 1_555
H40 C49 1_555 1_555
H41 C50 1_555 1_555
H42 C51 1_555 1_555
H43 C53 1_555 1_555
H44 C55 1_555 1_555
H45 C56 1_555 1_555
H46 C57 1_555 1_555
H47 C58 1_555 1_555
H48 C59 1_555 1_555
H49 C61 1_555 1_555
H50 C61 1_555 1_555
H51 C62 1_555 1_555
H52 C62 1_555 1_555
H53 C63 1_555 1_555
H54 C63 1_555 1_555
H55 C64 1_555 1_555
H56 C64 1_555 1_555
H57 C65 1_555 1_555
H58 C65 1_555 1_555
H59 C66 1_555 1_555
H60 C66 1_555 1_555
H61 C67 1_555 1_555
H62 C67 1_555 1_555
H63 C68 1_555 1_555
H64 C68 1_555 1_555
H65 C69 1_555 1_555
H66 C69 1_555 1_555
H67 C70 1_555 1_555
H68 C70 1_555 1_555
H69 C71 1_555 1_555
H70 C71 1_555 1_555
H71 C72 1_555 1_555
H72 C72 1_555 1_555
O4C Li1 1_555 1_555
Li1C O4 1_555 1_555
C11 C12 1_555 1_555
C20 C21 1_555 1_555
C21 C22 1_555 1_555
C23 C32 1_555 1_555
C28 C29 1_555 1_555
C31 C32 1_555 1_555
C37 C38 1_555 1_555
C43 C44 1_555 1_555
C45 C52 1_555 1_555
C50 C51 1_555 1_555
C53 C60 1_555 1_555
C58 C59 1_555 1_555

#END
