
#######################################################################
#
#                 Cambridge Crystallographic Data Centre
#                                CCDC 
#
#######################################################################
#
# If this CIF has been generated from an entry in the Cambridge 
# Structural Database, then it will include bibliographic, chemical, 
# crystal, experimental, refinement or atomic coordinate data resulting 
# from the CCDC's data processing and validation procedures.
#
#######################################################################

data_ATIJOC
_symmetry_cell_setting           triclinic
_symmetry_space_group_name_H-M   'P -1'
_symmetry_Int_Tables_number      2
_space_group_name_Hall           '-P 1'
loop_
_symmetry_equiv_pos_site_id
_symmetry_equiv_pos_as_xyz
1 x,y,z
2 -x,-y,-z
_cell_length_a                   6.2428(2)
_cell_length_b                   8.9794(2)
_cell_length_c                   25.3905(7)
_cell_angle_alpha                88.9540(10)
_cell_angle_beta                 86.8960(10)
_cell_angle_gamma                70.92
_cell_volume                     1343.14
loop_
_atom_site_label
_atom_site_type_symbol
_atom_site_fract_x
_atom_site_fract_y
_atom_site_fract_z
La1 La 0.42731(7) 0.84906(5) 0.199796(16)
La2 La 0.67836(7) 0.43267(5) 0.294708(16)
O1 O 0.4938(9) 0.5624(7) 0.1941(2)
O2 O 0.1110(9) 0.8237(6) 0.2620(2)
O3 O 0.6693(9) 1.0222(7) 0.1824(2)
O4 O 0.4221(10) 0.8690(7) 0.0991(2)
O5 O 0.8300(10) 0.6858(7) 0.1658(2)
O6 O 0.1649(10) 0.1302(7) 0.2048(2)
O7 O 0.1003(9) 0.8675(7) 0.13831(19)
O8 O -0.5208(10) 0.9681(6) 0.2908(2)
O9 O -0.3209(9) 0.7160(6) 0.28103(19)
O10 O 0.2902(10) 0.5996(7) 0.3032(2)
O11 O 0.6380(10) 0.5120(8) 0.3903(2)
O12 O 0.9133(11) 0.1457(7) 0.3018(3)
O13 O 0.4373(10) 0.2713(7) 0.3321(2)
O14 O -0.0014(9) 0.3834(6) 0.2251(2)
O15 O 0.9868(10) 0.4108(7) 0.3594(2)
O16 O 0.5342(9) 0.3173(6) 0.2174(2)
C1 C -0.3685(13) 0.8448(9) 0.3053(3)
C2 C -0.2375(14) 0.8547(9) 0.3525(3)
C3 C -0.3582(15) 0.9306(10) 0.3983(3)
H1 H -0.5150 0.9773 0.3989
C4 C -0.2391(17) 0.9346(12) 0.4425(3)
H2 H -0.3171 0.9844 0.4730
C5 C -0.0099(16) 0.8665(12) 0.4419(3)
H3 H 0.0667 0.8676 0.4723
C6 C 0.1121(15) 0.7948(11) 0.3961(3)
H4 H 0.2691 0.7497 0.3957
C7 C -0.0019(13) 0.7917(9) 0.3518(3)
C8 C 0.8459(15) 0.4684(10) 0.3975(3)
C9 C 0.9275(14) 0.4810(10) 0.4501(3)
C10 C 0.7723(15) 0.5518(11) 0.4914(3)
H5 H 0.6181 0.5890 0.4854
C11 C 1.1577(15) 0.4327(11) 0.4595(3)
H6 H 1.2646 0.3895 0.4323
C12 C 0.4629(13) 0.4332(10) 0.1865(3)
C13 C 0.3474(13) 0.4115(9) 0.1381(3)
C14 C 0.3916(16) 0.4699(11) 0.0902(3)
H7 H 0.4885 0.5297 0.0875
C15 C 0.2935(18) 0.4406(12) 0.0457(3)
H8 H 0.3243 0.4807 0.0132
C16 C 0.1504(18) 0.3524(12) 0.0496(4)
H9 H 0.0864 0.3310 0.0196
C17 C 0.1014(15) 0.2949(10) 0.0984(4)
H10 H 0.0028 0.2365 0.1011
C18 C 0.1985(14) 0.3243(9) 0.1429(3)
C19 C 0.2142(14) 0.8868(10) 0.0977(3)
C20 C 0.1025(13) 0.9398(9) 0.0468(3)
C21 C -0.1339(14) 0.9949(10) 0.0451(3)
H11 H -0.2240 0.9926 0.0753
C22 C 0.2334(14) 0.9472(10) 0.0018(3)
H12 H 0.3906 0.9127 0.0030
C23 C 0.1411(13) 0.7326(10) 0.3013(3)
C24 C 0.1185(13) 0.2747(8) 0.1947(3)
C22A C -0.2334(14) 1.0528(10) -0.0018(3)
C20A C -0.1025(13) 1.0602(9) -0.0468(3)
C19A C -0.2142(14) 1.1132(10) -0.0977(3)
O4A O -0.4221(10) 1.1310(7) -0.0991(2)
O7A O -0.1003(9) 1.1325(7) -0.13831(19)
C21A C 0.1339(14) 1.0051(10) -0.0451(3)
H11A H 0.2240 1.0074 -0.0753
H12A H -0.3906 1.0873 -0.0030
C11A C 0.8423(15) 0.5673(11) 0.5405(3)
C9A C 1.0725(14) 0.5190(10) 0.5499(3)
C8A C 1.1541(15) 0.5316(10) 0.6025(3)
O11A O 1.3620(10) 0.4880(8) 0.6097(2)
O15A O 1.0132(10) 0.5892(7) 0.6406(2)
C10A C 1.2277(15) 0.4482(11) 0.5086(3)
H5A H 1.3819 0.4110 0.5146
H6A H 0.7354 0.6105 0.5677
O1_2 O 0.4938(9) 1.5624(7) 0.1941(2)
O6_2 O 0.1649(10) 1.1302(7) 0.2048(2)
O14_2 O -0.0014(9) 1.3834(6) 0.2251(2)
O16_2 O 0.5342(9) 1.3173(6) 0.2174(2)
C12_2 C 0.4629(13) 1.4332(10) 0.1865(3)
C13_2 C 0.3474(13) 1.4115(9) 0.1381(3)
C14_2 C 0.3916(16) 1.4699(11) 0.0902(3)
H7_2 H 0.4885 1.5297 0.0875
C15_2 C 0.2935(18) 1.4406(12) 0.0457(3)
H8_2 H 0.3243 1.4807 0.0132
C16_2 C 0.1504(18) 1.3524(12) 0.0496(4)
H9_2 H 0.0864 1.3310 0.0196
C17_2 C 0.1014(15) 1.2949(10) 0.0984(4)
H10_2 H 0.0028 1.2365 0.1011
C18_2 C 0.1985(14) 1.3243(9) 0.1429(3)
C24_2 C 0.1185(13) 1.2747(8) 0.1947(3)
O2_2 O 1.1110(9) 0.8237(6) 0.2620(2)
O8_2 O 0.4792(10) 0.9681(6) 0.2908(2)
O9_2 O 0.6791(9) 0.7160(6) 0.28103(19)
O10_2 O 1.2902(10) 0.5996(7) 0.3032(2)
C1_2 C 0.6315(13) 0.8448(9) 0.3053(3)
C2_2 C 0.7625(14) 0.8547(9) 0.3525(3)
C3_2 C 0.6418(15) 0.9306(10) 0.3983(3)
H1_2 H 0.4850 0.9773 0.3989
C4_2 C 0.7609(17) 0.9346(12) 0.4425(3)
H2_2 H 0.6829 0.9844 0.4730
C5_2 C 0.9901(16) 0.8665(12) 0.4419(3)
H3_2 H 1.0667 0.8676 0.4723
C6_2 C 1.1121(15) 0.7948(11) 0.3961(3)
H4_2 H 1.2691 0.7497 0.3957
C7_2 C 0.9981(13) 0.7917(9) 0.3518(3)
C23_2 C 1.1411(13) 0.7326(10) 0.3013(3)
La1_2 La 0.42731(7) 1.84906(5) 0.199796(16)
La2_2 La 0.67836(7) 1.43267(5) 0.294708(16)
O3_2 O 0.6693(9) 2.0222(7) 0.1824(2)
O5_2 O 0.8300(10) 1.6858(7) 0.1658(2)
O12_2 O 0.9133(11) 1.1457(7) 0.3018(3)
O13_2 O 0.4373(10) 1.2713(7) 0.3321(2)
O14_3 O 0.9986(9) 0.3834(6) 0.2251(2)
La1_3 La 0.42731(7) -0.15094(5) 0.199796(16)
La1_4 La -0.57269(7) 0.84906(5) 0.199796(16)
La2_3 La -0.32164(7) 0.43267(5) 0.294708(16)
La1A La -0.42731(7) 1.15094(5) -0.199796(16)
La2A La 1.32164(7) 0.56733(5) 0.705292(16)
La2_4 La -0.32164(7) 1.43267(5) 0.294708(16)
La1_5 La 1.42731(7) 0.84906(5) 0.199796(16)
La2_5 La 1.67836(7) 0.43267(5) 0.294708(16)
O2_3 O 0.1110(9) 1.8237(6) 0.2620(2)
O4_2 O 0.4221(10) 1.8690(7) 0.0991(2)
O6_3 O 0.1649(10) 2.1302(7) 0.2048(2)
O7_2 O 0.1003(9) 1.8675(7) 0.13831(19)
O8_3 O 0.4792(10) 1.9681(6) 0.2908(2)
O9_3 O 0.6791(9) 1.7160(6) 0.28103(19)
O10_3 O 0.2902(10) 1.5996(7) 0.3032(2)
O11_2 O 0.6380(10) 1.5120(8) 0.3903(2)
O14_4 O 0.9986(9) 1.3834(6) 0.2251(2)
O15_2 O 0.9868(10) 1.4108(7) 0.3594(2)
loop_
_geom_bond_atom_site_label_1
_geom_bond_atom_site_label_2
_geom_bond_site_symmetry_1
_geom_bond_site_symmetry_2
La1 O1 1_555 1_555
La2 O1 1_555 1_555
O1 C12 1_555 1_555
O2 La1 1_555 1_555
O3 La1 1_555 1_555
O4 La1 1_555 1_555
O5 La1 1_555 1_555
O6 C24 1_555 1_555
O7 La1 1_555 1_555
O8 C1 1_555 1_555
O9 C1 1_555 1_555
O10 La2 1_555 1_555
O11 La2 1_555 1_555
O12 La2 1_555 1_555
O13 La2 1_555 1_555
O14 C24 1_555 1_555
O15 La2 1_555 1_555
O16 La2 1_555 1_555
C1 C2 1_555 1_555
C2 C3 1_555 1_555
C3 H1 1_555 1_555
C4 C3 1_555 1_555
H2 C4 1_555 1_555
C5 C4 1_555 1_555
H3 C5 1_555 1_555
C6 C5 1_555 1_555
H4 C6 1_555 1_555
C7 C2 1_555 1_555
C8 O11 1_555 1_555
C9 C8 1_555 1_555
C10 C9 1_555 1_555
H5 C10 1_555 1_555
C11 C9 1_555 1_555
H6 C11 1_555 1_555
C12 O16 1_555 1_555
C13 C12 1_555 1_555
C14 C13 1_555 1_555
H7 C14 1_555 1_555
C15 C14 1_555 1_555
H8 C15 1_555 1_555
C16 C15 1_555 1_555
H9 C16 1_555 1_555
C17 C16 1_555 1_555
H10 C17 1_555 1_555
C18 C13 1_555 1_555
C19 O4 1_555 1_555
C20 C19 1_555 1_555
C21 C20 1_555 1_555
H11 C21 1_555 1_555
C22 C20 1_555 1_555
H12 C22 1_555 1_555
C23 O2 1_555 1_555
C24 C18 1_555 1_555
C22A C21 1_555 1_555
C20A C22A 1_555 1_555
C19A C20A 1_555 1_555
O4A C19A 1_555 1_555
O7A C19A 1_555 1_555
C21A C22 1_555 1_555
H11A C21A 1_555 1_555
H12A C22A 1_555 1_555
C11A C10 1_555 1_555
C9A C11A 1_555 1_555
C8A C9A 1_555 1_555
O11A C8A 1_555 1_555
O15A C8A 1_555 1_555
C10A C11 1_555 1_555
H5A C10A 1_555 1_555
H6A C11A 1_555 1_555
O1_2 C12_2 1_555 1_555
O6_2 La1 1_555 1_555
O14_2 C24_2 1_555 1_555
O16_2 C12_2 1_555 1_555
C12_2 C13_2 1_555 1_555
C13_2 C14_2 1_555 1_555
C14_2 H7_2 1_555 1_555
C15_2 C14_2 1_555 1_555
H8_2 C15_2 1_555 1_555
C16_2 C15_2 1_555 1_555
H9_2 C16_2 1_555 1_555
C17_2 C16_2 1_555 1_555
H10_2 C17_2 1_555 1_555
C18_2 C13_2 1_555 1_555
C24_2 O6_2 1_555 1_555
O2_2 C23_2 1_555 1_555
O8_2 La1 1_555 1_555
O9_2 La1 1_555 1_555
O10_2 C23_2 1_555 1_555
C1_2 O8_2 1_555 1_555
C2_2 C1_2 1_555 1_555
C3_2 C2_2 1_555 1_555
H1_2 C3_2 1_555 1_555
C4_2 C3_2 1_555 1_555
H2_2 C4_2 1_555 1_555
C5_2 C4_2 1_555 1_555
H3_2 C5_2 1_555 1_555
C6_2 C5_2 1_555 1_555
H4_2 C6_2 1_555 1_555
C7_2 C2_2 1_555 1_555
C23_2 C7_2 1_555 1_555
La1_2 O1_2 1_555 1_555
La2_2 O1_2 1_555 1_555
O3_2 La1_2 1_555 1_555
O5_2 La1_2 1_555 1_555
O12_2 La2_2 1_555 1_555
O13_2 La2_2 1_555 1_555
O14_3 La2 1_555 1_555
La1_3 O6 1_555 1_555
La1_4 O8 1_555 1_555
La2_3 O9 1_555 1_555
La1A O4A 1_555 1_555
La2A O11A 1_555 1_555
La2_4 O14_2 1_555 1_555
La1_5 O2_2 1_555 1_555
La2_5 O10_2 1_555 1_555
O2_3 La1_2 1_555 1_555
O4_2 La1_2 1_555 1_555
O6_3 La1_2 1_555 1_555
O7_2 La1_2 1_555 1_555
O8_3 La1_2 1_555 1_555
O9_3 La1_2 1_555 1_555
O10_3 La2_2 1_555 1_555
O11_2 La2_2 1_555 1_555
O14_4 La2_2 1_555 1_555
O15_2 La2_2 1_555 1_555
La2 O9_2 1_555 1_555
O7 C19 1_555 1_555
O9 La1_4 1_555 1_555
O10 C23 1_555 1_555
O14 La2_3 1_555 1_555
O15 C8 1_555 1_555
C6 C7 1_555 1_555
C7 C23 1_555 1_555
C17 C18 1_555 1_555
C20A C21A 1_555 1_555
O7A La1A 1_555 1_555
C9A C10A 1_555 1_555
O15A La2A 1_555 1_555
O16_2 La2_2 1_555 1_555
C17_2 C18_2 1_555 1_555
C18_2 C24_2 1_555 1_555
O9_2 C1_2 1_555 1_555
C6_2 C7_2 1_555 1_555
La2_2 O9_3 1_555 1_555

#END
