
#######################################################################
#
#                 Cambridge Crystallographic Data Centre
#                                CCDC 
#
#######################################################################
#
# If this CIF has been generated from an entry in the Cambridge 
# Structural Database, then it will include bibliographic, chemical, 
# crystal, experimental, refinement or atomic coordinate data resulting 
# from the CCDC's data processing and validation procedures.
#
#######################################################################

data_ATIKET
_symmetry_cell_setting           triclinic
_symmetry_space_group_name_H-M   'P -1'
_symmetry_Int_Tables_number      2
_space_group_name_Hall           '-P 1'
loop_
_symmetry_equiv_pos_site_id
_symmetry_equiv_pos_as_xyz
1 x,y,z
2 -x,-y,-z
_cell_length_a                   6.1163(2)
_cell_length_b                   8.8254(3)
_cell_length_c                   12.9291(2)
_cell_angle_alpha                94.752(2)
_cell_angle_beta                 99.311(2)
_cell_angle_gamma                109.449(2)
_cell_volume                     642.356
loop_
_atom_site_label
_atom_site_type_symbol
_atom_site_fract_x
_atom_site_fract_y
_atom_site_fract_z
Dy1 Dy 0.13623(4) 0.77294(3) 0.599514(17)
O1 O -0.1077(7) 0.5070(4) 0.6040(3)
O2 O -0.8436(7) 0.0390(4) 0.5965(3)
O3 O 0.2127(7) 0.8149(5) 0.7920(3)
O4 O 0.3821(7) 0.6092(4) 0.6320(3)
O5 O 0.5484(6) 0.9498(4) 0.6406(3)
O6 O -0.2711(6) 0.2384(4) 0.5650(3)
O7 O -0.7871(6) 0.2774(4) 0.5388(3)
O8 O -0.1332(7) 0.8165(5) 0.7168(3)
C1 C -0.2321(9) 0.3734(6) 0.6237(4)
C2 C -0.3432(9) 0.3639(6) 0.7185(4)
C3 C -0.2027(10) 0.4400(7) 0.8177(5)
H1 H -0.0436 0.5013 0.8233
C4 C -0.2999(12) 0.4244(8) 0.9078(5)
H2 H -0.2058 0.4749 0.9738
C5 C -0.5361(12) 0.3340(8) 0.8995(5)
H3 H -0.5998 0.3234 0.9603
C6 C -0.6799(10) 0.2585(7) 0.8018(5)
H4 H -0.8396 0.1995 0.7969
C7 C -0.5843(9) 0.2715(6) 0.7116(4)
C8 C 0.0307(10) 0.8448(6) 0.7991(4)
C9 C 0.0074(10) 0.9205(6) 0.9039(4)
C10 C -0.1737(10) 0.9817(7) 0.9114(4)
H5 H -0.2905 0.9691 0.8522
C11 C 0.1779(10) 0.9390(7) 0.9928(4)
H6 H 0.2977 0.8974 0.9881
C12 C -0.7482(8) 0.1898(6) 0.6063(4)
C11A C -0.1779(10) 1.0610(7) 1.0072(4)
C9A C -0.0074(10) 1.0795(6) 1.0961(4)
C8A C -0.0307(10) 1.1552(6) 1.2009(4)
O3A O -0.2127(7) 1.1851(5) 1.2080(3)
O8A O 0.1332(7) 1.1835(5) 1.2832(3)
C10A C 0.1737(10) 1.0183(7) 1.0886(4)
H5A H 0.2905 1.0309 1.1478
H6A H -0.2977 1.1026 1.0119
O1_2 O 0.8923(7) 1.5070(4) 0.6040(3)
O2_2 O 0.1564(7) 1.0390(4) 0.5965(3)
O6_2 O 0.7289(6) 1.2384(4) 0.5650(3)
O7_2 O 0.2129(6) 1.2774(4) 0.5388(3)
C1_2 C 0.7679(9) 1.3734(6) 0.6237(4)
C2_2 C 0.6568(9) 1.3639(6) 0.7185(4)
C3_2 C 0.7973(10) 1.4400(7) 0.8177(5)
H1_2 H 0.9564 1.5013 0.8233
C4_2 C 0.7001(12) 1.4244(8) 0.9078(5)
H2_2 H 0.7942 1.4749 0.9738
C5_2 C 0.4639(12) 1.3340(8) 0.8995(5)
H3_2 H 0.4002 1.3234 0.9603
C6_2 C 0.3201(10) 1.2585(7) 0.8018(5)
H4_2 H 0.1604 1.1995 0.7969
C7_2 C 0.4157(9) 1.2715(6) 0.7116(4)
C12_2 C 0.2518(8) 1.1898(6) 0.6063(4)
Dy1_2 Dy 1.13623(4) 1.77294(3) 0.599514(17)
O4_2 O 1.3821(7) 1.6092(4) 0.6320(3)
O5_2 O 1.5484(6) 1.9498(4) 0.6406(3)
O6A O 0.2711(6) 0.7616(4) 0.4350(3)
O7A O -0.2129(6) 0.7226(4) 0.4612(3)
Dy1_3 Dy -0.86377(4) -0.22706(3) 0.599514(17)
Dy1A Dy -0.13623(4) 0.22706(3) 0.400486(17)
Dy1A_2 Dy -1.13623(4) 0.22706(3) 0.400486(17)
Dy1A_3 Dy -0.13623(4) 1.22706(3) 1.400486(17)
Dy1A_4 Dy 0.86377(4) 1.22706(3) 0.400486(17)
Dy1A_5 Dy -0.13623(4) 1.22706(3) 0.400486(17)
O2_3 O 1.1564(7) 2.0390(4) 0.5965(3)
O3_2 O 1.2127(7) 1.8149(5) 0.7920(3)
O6A_2 O 1.2711(6) 1.7616(4) 0.4350(3)
O7A_2 O 0.7871(6) 1.7226(4) 0.4612(3)
O8_2 O 0.8668(7) 1.8165(5) 0.7168(3)
loop_
_geom_bond_atom_site_label_1
_geom_bond_atom_site_label_2
_geom_bond_site_symmetry_1
_geom_bond_site_symmetry_2
Dy1 O1 1_555 1_555
O1 C1 1_555 1_555
O2 C12 1_555 1_555
O3 Dy1 1_555 1_555
O4 Dy1 1_555 1_555
O5 Dy1 1_555 1_555
O6 C1 1_555 1_555
O7 C12 1_555 1_555
O8 Dy1 1_555 1_555
C1 C2 1_555 1_555
C2 C3 1_555 1_555
C3 H1 1_555 1_555
C4 C3 1_555 1_555
H2 C4 1_555 1_555
C5 C4 1_555 1_555
H3 C5 1_555 1_555
C6 C5 1_555 1_555
H4 C6 1_555 1_555
C7 C2 1_555 1_555
C8 O3 1_555 1_555
C9 C8 1_555 1_555
C10 C9 1_555 1_555
H5 C10 1_555 1_555
C11 C9 1_555 1_555
H6 C11 1_555 1_555
C12 C7 1_555 1_555
C11A C10 1_555 1_555
C9A C11A 1_555 1_555
C8A C9A 1_555 1_555
O3A C8A 1_555 1_555
O8A C8A 1_555 1_555
C10A C11 1_555 1_555
H5A C10A 1_555 1_555
H6A C11A 1_555 1_555
O1_2 C1_2 1_555 1_555
O2_2 Dy1 1_555 1_555
O6_2 C1_2 1_555 1_555
O7_2 C12_2 1_555 1_555
C1_2 C2_2 1_555 1_555
C2_2 C3_2 1_555 1_555
C3_2 H1_2 1_555 1_555
C4_2 C3_2 1_555 1_555
H2_2 C4_2 1_555 1_555
C5_2 C4_2 1_555 1_555
H3_2 C5_2 1_555 1_555
C6_2 C5_2 1_555 1_555
H4_2 C6_2 1_555 1_555
C7_2 C2_2 1_555 1_555
C12_2 O2_2 1_555 1_555
Dy1_2 O1_2 1_555 1_555
O4_2 Dy1_2 1_555 1_555
O5_2 Dy1_2 1_555 1_555
O6A Dy1 1_555 1_555
O7A Dy1 1_555 1_555
Dy1_3 O2 1_555 1_555
Dy1A O6 1_555 1_555
Dy1A_2 O7 1_555 1_555
Dy1A_3 O3A 1_555 1_555
Dy1A_4 O6_2 1_555 1_555
Dy1A_5 O7_2 1_555 1_555
O2_3 Dy1_2 1_555 1_555
O3_2 Dy1_2 1_555 1_555
O6A_2 Dy1_2 1_555 1_555
O7A_2 Dy1_2 1_555 1_555
O8_2 Dy1_2 1_555 1_555
O8 C8 1_555 1_555
C6 C7 1_555 1_555
C9A C10A 1_555 1_555
O8A Dy1A_3 1_555 1_555
C6_2 C7_2 1_555 1_555
C7_2 C12_2 1_555 1_555

#END
