
#######################################################################
#
#                 Cambridge Crystallographic Data Centre
#                                CCDC 
#
#######################################################################
#
# If this CIF has been generated from an entry in the Cambridge 
# Structural Database, then it will include bibliographic, chemical, 
# crystal, experimental, refinement or atomic coordinate data resulting 
# from the CCDC's data processing and validation procedures.
#
#######################################################################

data_ATIKAP
_symmetry_cell_setting           triclinic
_symmetry_space_group_name_H-M   'P -1'
_symmetry_Int_Tables_number      2
_space_group_name_Hall           '-P 1'
loop_
_symmetry_equiv_pos_site_id
_symmetry_equiv_pos_as_xyz
1 x,y,z
2 -x,-y,-z
_cell_length_a                   6.1107(3)
_cell_length_b                   8.8045(4)
_cell_length_c                   12.8764(7)
_cell_angle_alpha                95.073(2)
_cell_angle_beta                 99.116(2)
_cell_angle_gamma                109.958(2)
_cell_volume                     635.317
loop_
_atom_site_label
_atom_site_type_symbol
_atom_site_fract_x
_atom_site_fract_y
_atom_site_fract_z
Gd1 Gd 0.14114(5) 0.77487(3) 0.600075(19)
O1 O -0.1026(8) 0.5109(5) 0.6048(3)
O2 O -0.8313(8) 0.0371(5) 0.5905(4)
O3 O 0.2187(7) 0.8183(5) 0.7915(3)
O4 O 0.3815(7) 0.6111(5) 0.6319(3)
O5 O 0.5519(7) 0.9498(5) 0.6403(3)
O6 O -0.2676(7) 0.2427(5) 0.5639(3)
O7 O -0.7912(7) 0.2774(4) 0.5364(3)
O8 O -0.1260(8) 0.8217(5) 0.7146(3)
C1 C -0.2287(10) 0.3756(7) 0.6227(4)
C2 C -0.3425(10) 0.3655(7) 0.7178(4)
C3 C -0.2049(12) 0.4409(8) 0.8172(5)
H1 H -0.0449 0.5036 0.8236
C4 C -0.3031(14) 0.4238(8) 0.9072(5)
H2 H -0.2085 0.4734 0.9738
C5 C -0.5411(14) 0.3333(9) 0.8982(5)
H3 H -0.6064 0.3224 0.9588
C6 C -0.6837(12) 0.2583(7) 0.7991(5)
H4 H -0.8448 0.1986 0.7928
C7 C -0.5823(10) 0.2738(6) 0.7097(4)
C8 C 0.0365(11) 0.8485(7) 0.7984(4)
C9 C 0.0078(10) 0.9219(7) 0.9026(4)
C10 C -0.1707(11) 0.9831(8) 0.9101(5)
H5 H -0.2859 0.9713 0.8502
C11 C 0.1783(11) 0.9380(8) 0.9931(4)
H6 H 0.2972 0.8957 0.9885
C12 C -0.7452(10) 0.1894(7) 0.6028(5)
C11A C -0.1783(11) 1.0620(8) 1.0069(4)
C9A C -0.0078(10) 1.0781(7) 1.0974(4)
C8A C -0.0365(11) 1.1515(7) 1.2016(4)
O3A O -0.2187(7) 1.1817(5) 1.2085(3)
O8A O 0.1260(8) 1.1783(5) 1.2854(3)
C10A C 0.1707(11) 1.0169(8) 1.0899(5)
H5A H 0.2859 1.0287 1.1498
H6A H -0.2972 1.1043 1.0115
O1_2 O 0.8974(8) 1.5109(5) 0.6048(3)
O2_2 O 0.1687(8) 1.0371(5) 0.5905(4)
O6_2 O 0.7324(7) 1.2427(5) 0.5639(3)
O7_2 O 0.2088(7) 1.2774(4) 0.5364(3)
C1_2 C 0.7713(10) 1.3756(7) 0.6227(4)
C2_2 C 0.6575(10) 1.3655(7) 0.7178(4)
C3_2 C 0.7951(12) 1.4409(8) 0.8172(5)
H1_2 H 0.9551 1.5036 0.8236
C4_2 C 0.6969(14) 1.4238(8) 0.9072(5)
H2_2 H 0.7915 1.4734 0.9738
C5_2 C 0.4589(14) 1.3333(9) 0.8982(5)
H3_2 H 0.3936 1.3224 0.9588
C6_2 C 0.3163(12) 1.2583(7) 0.7991(5)
H4_2 H 0.1552 1.1986 0.7928
C7_2 C 0.4177(10) 1.2738(6) 0.7097(4)
C12_2 C 0.2548(10) 1.1894(7) 0.6028(5)
Gd1_2 Gd 1.14114(5) 1.77487(3) 0.600075(19)
O4_2 O 1.3815(7) 1.6111(5) 0.6319(3)
O5_2 O 1.5519(7) 1.9498(5) 0.6403(3)
O6A O 0.2676(7) 0.7573(5) 0.4361(3)
O7A O -0.2088(7) 0.7226(4) 0.4636(3)
Gd1_3 Gd -0.85886(5) -0.22513(3) 0.600075(19)
Gd1A Gd -0.14114(5) 0.22513(3) 0.399925(19)
Gd1A_2 Gd -1.14114(5) 0.22513(3) 0.399925(19)
Gd1A_3 Gd -0.14114(5) 1.22513(3) 1.399925(19)
Gd1A_4 Gd 0.85886(5) 1.22513(3) 0.399925(19)
Gd1A_5 Gd -0.14114(5) 1.22513(3) 0.399925(19)
O2_3 O 1.1687(8) 2.0371(5) 0.5905(4)
O3_2 O 1.2187(7) 1.8183(5) 0.7915(3)
O6A_2 O 1.2676(7) 1.7573(5) 0.4361(3)
O7A_2 O 0.7912(7) 1.7226(4) 0.4636(3)
O8_2 O 0.8740(8) 1.8217(5) 0.7146(3)
loop_
_geom_bond_atom_site_label_1
_geom_bond_atom_site_label_2
_geom_bond_site_symmetry_1
_geom_bond_site_symmetry_2
Gd1 O1 1_555 1_555
O1 C1 1_555 1_555
O2 C12 1_555 1_555
O3 Gd1 1_555 1_555
O4 Gd1 1_555 1_555
O5 Gd1 1_555 1_555
O6 C1 1_555 1_555
O7 C12 1_555 1_555
O8 Gd1 1_555 1_555
C1 C2 1_555 1_555
C2 C3 1_555 1_555
C3 H1 1_555 1_555
C4 C3 1_555 1_555
H2 C4 1_555 1_555
C5 C4 1_555 1_555
H3 C5 1_555 1_555
C6 C5 1_555 1_555
H4 C6 1_555 1_555
C7 C2 1_555 1_555
C8 O3 1_555 1_555
C9 C8 1_555 1_555
C10 C9 1_555 1_555
H5 C10 1_555 1_555
C11 C9 1_555 1_555
H6 C11 1_555 1_555
C12 C7 1_555 1_555
C11A C10 1_555 1_555
C9A C11A 1_555 1_555
C8A C9A 1_555 1_555
O3A C8A 1_555 1_555
O8A C8A 1_555 1_555
C10A C11 1_555 1_555
H5A C10A 1_555 1_555
H6A C11A 1_555 1_555
O1_2 C1_2 1_555 1_555
O2_2 Gd1 1_555 1_555
O6_2 C1_2 1_555 1_555
O7_2 C12_2 1_555 1_555
C1_2 C2_2 1_555 1_555
C2_2 C3_2 1_555 1_555
C3_2 H1_2 1_555 1_555
C4_2 C3_2 1_555 1_555
H2_2 C4_2 1_555 1_555
C5_2 C4_2 1_555 1_555
H3_2 C5_2 1_555 1_555
C6_2 C5_2 1_555 1_555
H4_2 C6_2 1_555 1_555
C7_2 C2_2 1_555 1_555
C12_2 O2_2 1_555 1_555
Gd1_2 O1_2 1_555 1_555
O4_2 Gd1_2 1_555 1_555
O5_2 Gd1_2 1_555 1_555
O6A Gd1 1_555 1_555
O7A Gd1 1_555 1_555
Gd1_3 O2 1_555 1_555
Gd1A O6 1_555 1_555
Gd1A_2 O7 1_555 1_555
Gd1A_3 O3A 1_555 1_555
Gd1A_4 O6_2 1_555 1_555
Gd1A_5 O7_2 1_555 1_555
O2_3 Gd1_2 1_555 1_555
O3_2 Gd1_2 1_555 1_555
O6A_2 Gd1_2 1_555 1_555
O7A_2 Gd1_2 1_555 1_555
O8_2 Gd1_2 1_555 1_555
O8 C8 1_555 1_555
C6 C7 1_555 1_555
C9A C10A 1_555 1_555
O8A Gd1A_3 1_555 1_555
C6_2 C7_2 1_555 1_555
C7_2 C12_2 1_555 1_555

#END
