
#######################################################################
#
#                 Cambridge Crystallographic Data Centre
#                                CCDC 
#
#######################################################################
#
# If this CIF has been generated from an entry in the Cambridge 
# Structural Database, then it will include bibliographic, chemical, 
# crystal, experimental, refinement or atomic coordinate data resulting 
# from the CCDC's data processing and validation procedures.
#
#######################################################################

data_ATISUR
_symmetry_cell_setting           monoclinic
_symmetry_space_group_name_H-M   'P 21/c'
_symmetry_Int_Tables_number      14
_space_group_name_Hall           '-P 2ybc'
loop_
_symmetry_equiv_pos_site_id
_symmetry_equiv_pos_as_xyz
1 x,y,z
2 x,1/2-y,1/2+z
3 -x,-y,-z
4 -x,1/2+y,1/2-z
_cell_length_a                   18.010(2)
_cell_length_b                   15.576(2)
_cell_length_c                   17.720(2)
_cell_angle_alpha                90
_cell_angle_beta                 91.664(5)
_cell_angle_gamma                90
_cell_volume                     4968.78
loop_
_atom_site_label
_atom_site_type_symbol
_atom_site_fract_x
_atom_site_fract_y
_atom_site_fract_z
K1 K 0.47743(3) 0.59586(3) 0.12196(3)
Si1 Si 0.36520(3) 0.43858(4) 0.05169(4)
C1 C 0.31174(15) 0.37843(17) 0.13174(14)
C2 C 0.36958(19) 0.3572(2) 0.19426(16)
H1 H 0.3949 0.4099 0.2107
H2 H 0.4060 0.3166 0.1749
H3 H 0.3447 0.3313 0.2372
C3 C 0.25342(19) 0.4387(2) 0.1642(2)
H4 H 0.2770 0.4932 0.1788
H5 H 0.2319 0.4121 0.2087
H6 H 0.2141 0.4494 0.1260
C4 C 0.27379(15) 0.29386(17) 0.10952(16)
H7 H 0.3105 0.2544 0.0891
H8 H 0.2347 0.3049 0.0711
H9 H 0.2518 0.2681 0.1541
C5 C 0.29234(13) 0.47284(15) -0.02879(15)
C6 C 0.26470(18) 0.56324(19) -0.0082(2)
H10 H 0.3074 0.6006 0.0031
H11 H 0.2336 0.5596 0.0362
H12 H 0.2355 0.5870 -0.0508
C7 C 0.22358(14) 0.41689(18) -0.04534(17)
H13 H 0.1960 0.4094 0.0010
H14 H 0.2392 0.3606 -0.0639
H15 H 0.1917 0.4449 -0.0837
C8 C 0.33457(15) 0.48241(19) -0.10228(16)
H16 H 0.3790 0.5177 -0.0930
H17 H 0.3024 0.5101 -0.1406
H18 H 0.3493 0.4256 -0.1202
O1 O 0.39227(11) 0.70213(13) 0.20265(12)
C9 C 0.4235(2) 0.7629(3) 0.2530(2)
H19 H 0.4703 0.7858 0.2331
H20 H 0.4347 0.7360 0.3027
C10 C 0.3704(3) 0.8307(3) 0.2607(4)
H21 H 0.3595 0.8389 0.3147
H22 H 0.3908 0.8850 0.2411
C11 C 0.3056(3) 0.8090(4) 0.2202(3)
H23 H 0.2941 0.8530 0.1813
H24 H 0.2633 0.8054 0.2545
C12 C 0.31816(18) 0.7253(2) 0.1845(2)
H25 H 0.2834 0.6819 0.2040
H26 H 0.3104 0.7296 0.1291
O2 O 0.53269(12) 0.55935(16) 0.26136(11)
C13 C 0.4846(2) 0.5268(3) 0.31669(19)
H27 H 0.4768 0.4645 0.3092
H28 H 0.4358 0.5559 0.3126
C14 C 0.5198(2) 0.5432(2) 0.39150(18)
H29 H 0.5411 0.4897 0.4131
H30 H 0.4832 0.5665 0.4267
C15 C 0.57938(18) 0.6073(2) 0.37743(17)
H31 H 0.5609 0.6667 0.3838
H32 H 0.6229 0.5981 0.4120
C16 C 0.59842(17) 0.5906(2) 0.29830(17)
H33 H 0.6153 0.6440 0.2739
H34 H 0.6386 0.5473 0.2960
C17 C 0.41877(12) 0.34178(14) 0.01087(13)
C18 C 0.39480(13) 0.28364(15) -0.04518(14)
H35 H 0.3456 0.2888 -0.0654
C19 C 0.43982(15) 0.21886(16) -0.07246(16)
H36 H 0.4214 0.1816 -0.1111
C20 C 0.51107(15) 0.20870(17) -0.04349(16)
H37 H 0.5422 0.1649 -0.0624
C21 C 0.53692(14) 0.26252(17) 0.01303(16)
H38 H 0.5855 0.2549 0.0343
C22 C 0.49173(13) 0.32805(15) 0.03902(14)
H39 H 0.5110 0.3651 0.0774
C17B C 0.58123(12) 0.65822(14) -0.01087(13)
C18B C 0.60520(13) 0.71636(15) 0.04518(14)
C19B C 0.56018(15) 0.78114(16) 0.07246(16)
C20B C 0.48893(15) 0.79130(17) 0.04349(16)
C21B C 0.46308(14) 0.73748(17) -0.01303(16)
C22B C 0.50827(13) 0.67195(15) -0.03902(14)
K1B K 0.52257(3) 0.40414(3) -0.12196(3)
H35B H 0.6544 0.7112 0.0654
H36B H 0.5786 0.8184 0.1111
H37B H 0.4578 0.8351 0.0624
H38B H 0.4145 0.7451 -0.0343
H39B H 0.4890 0.6349 -0.0774
K2 K -0.00941(3) 0.59561(4) 0.37631(3)
Si2 Si 0.14863(3) 0.52129(4) 0.46585(4)
C23 C 0.16106(13) 0.40416(15) 0.42466(14)
C24 C 0.23873(15) 0.36346(19) 0.42429(17)
H40 H 0.2726 0.4014 0.3977
H41 H 0.2360 0.3078 0.3985
H42 H 0.2571 0.3552 0.4764
C25 C 0.13159(16) 0.40750(19) 0.34210(15)
H43 H 0.1627 0.4463 0.3130
H44 H 0.0803 0.4286 0.3407
H45 H 0.1331 0.3498 0.3201
C26 C 0.10977(15) 0.34291(17) 0.46615(16)
H46 H 0.1263 0.3385 0.5192
H47 H 0.1113 0.2860 0.4426
H48 H 0.0588 0.3650 0.4632
C27 C 0.24218(14) 0.58588(17) 0.45400(16)
C28 C 0.22861(18) 0.67635(19) 0.4849(2)
H49 H 0.2170 0.6727 0.5385
H50 H 0.1868 0.7028 0.4569
H51 H 0.2733 0.7114 0.4791
C29 C 0.31090(14) 0.5505(2) 0.49664(17)
H52 H 0.3002 0.5445 0.5503
H53 H 0.3526 0.5901 0.4909
H54 H 0.3238 0.4942 0.4760
C30 C 0.25972(18) 0.5933(3) 0.37017(19)
H55 H 0.2162 0.6157 0.3422
H56 H 0.2724 0.5365 0.3505
H57 H 0.3018 0.6324 0.3642
O3 O 0.00044(14) 0.76980(16) 0.37360(19)
C31 C 0.0634(2) 0.8193(3) 0.4003(3)
H58 H 0.1024 0.8202 0.3621
H59 H 0.0847 0.7943 0.4476
C32 C 0.0358(3) 0.9068(3) 0.4140(3)
H60 H 0.0441 0.9230 0.4676
H61 H 0.0614 0.9488 0.3819
C33 C -0.0388(3) 0.9044(4) 0.3958(5)
H62 H -0.0510 0.9505 0.3590
H63 H -0.0674 0.9151 0.4417
C34 C -0.0597(2) 0.8257(3) 0.3650(3)
H64 H -0.1032 0.8027 0.3914
H65 H -0.0735 0.8325 0.3109
O4 O 0.02614(13) 0.61036(19) 0.22815(14)
C35 C 0.1014(2) 0.6243(4) 0.2118(3)
H66 H 0.1273 0.5686 0.2074
H67 H 0.1259 0.6575 0.2531
C36 C 0.1055(2) 0.6702(4) 0.1431(3)
H68 H 0.1215 0.6322 0.1018
H69 H 0.1407 0.7188 0.1482
C37 C 0.0296(2) 0.7010(4) 0.1287(4)
H70 H 0.0268 0.7634 0.1389
H71 H 0.0146 0.6910 0.0752
C38 C -0.0169(2) 0.6576(3) 0.1749(2)
H72 H -0.0490 0.6182 0.1446
H73 H -0.0491 0.6987 0.2012
C39 C 0.15368(12) 0.50723(16) 0.57481(14)
C40 C 0.11457(15) 0.56721(17) 0.61761(15)
H74 H 0.0877 0.6115 0.5920
C41 C 0.11361(17) 0.5643(2) 0.69568(17)
H75 H 0.0874 0.6071 0.7224
C42 C 0.15018(17) 0.5002(2) 0.73480(17)
H76 H 0.1488 0.4977 0.7883
C43 C 0.18909(16) 0.4392(2) 0.69527(16)
H77 H 0.2145 0.3944 0.7217
C44 C 0.19121(13) 0.44326(18) 0.61678(15)
H78 H 0.2190 0.4013 0.5908
C39B C -0.15368(12) 0.49277(16) 0.42519(14)
C40B C -0.11457(15) 0.43279(17) 0.38239(15)
C41B C -0.11361(17) 0.4357(2) 0.30432(17)
C42B C -0.15018(17) 0.4998(2) 0.26520(17)
C43B C -0.18909(16) 0.5608(2) 0.30473(16)
C44B C -0.19121(13) 0.55674(18) 0.38322(15)
K2B K 0.00941(3) 0.40439(4) 0.62369(3)
H74B H -0.0877 0.3885 0.4080
H75B H -0.0874 0.3929 0.2776
H76B H -0.1488 0.5023 0.2117
H77B H -0.2145 0.6056 0.2783
H78B H -0.2190 0.5987 0.4092
loop_
_geom_bond_atom_site_label_1
_geom_bond_atom_site_label_2
_geom_bond_site_symmetry_1
_geom_bond_site_symmetry_2
K1 Si1 1_555 1_555
Si1 C1 1_555 1_555
C1 C2 1_555 1_555
C2 H1 1_555 1_555
H2 C2 1_555 1_555
H3 C2 1_555 1_555
C3 C1 1_555 1_555
H4 C3 1_555 1_555
H5 C3 1_555 1_555
H6 C3 1_555 1_555
C4 C1 1_555 1_555
H7 C4 1_555 1_555
H8 C4 1_555 1_555
H9 C4 1_555 1_555
C5 Si1 1_555 1_555
C6 C5 1_555 1_555
H10 C6 1_555 1_555
H11 C6 1_555 1_555
H12 C6 1_555 1_555
C7 C5 1_555 1_555
H13 C7 1_555 1_555
H14 C7 1_555 1_555
H15 C7 1_555 1_555
C8 C5 1_555 1_555
H16 C8 1_555 1_555
H17 C8 1_555 1_555
H18 C8 1_555 1_555
O1 K1 1_555 1_555
C9 O1 1_555 1_555
H19 C9 1_555 1_555
H20 C9 1_555 1_555
C10 C9 1_555 1_555
H21 C10 1_555 1_555
H22 C10 1_555 1_555
C11 C10 1_555 1_555
H23 C11 1_555 1_555
H24 C11 1_555 1_555
C12 O1 1_555 1_555
H25 C12 1_555 1_555
H26 C12 1_555 1_555
O2 K1 1_555 1_555
C13 O2 1_555 1_555
H27 C13 1_555 1_555
H28 C13 1_555 1_555
C14 C13 1_555 1_555
H29 C14 1_555 1_555
H30 C14 1_555 1_555
C15 C14 1_555 1_555
H31 C15 1_555 1_555
H32 C15 1_555 1_555
C16 O2 1_555 1_555
H33 C16 1_555 1_555
H34 C16 1_555 1_555
C17 Si1 1_555 1_555
C18 C17 1_555 1_555
H35 C18 1_555 1_555
C19 C18 1_555 1_555
H36 C19 1_555 1_555
C20 C19 1_555 1_555
H37 C20 1_555 1_555
C21 C20 1_555 1_555
H38 C21 1_555 1_555
C22 C17 1_555 1_555
H39 C22 1_555 1_555
K2 Si2 1_555 1_555
Si2 C23 1_555 1_555
C23 C24 1_555 1_555
C24 H40 1_555 1_555
H41 C24 1_555 1_555
H42 C24 1_555 1_555
C25 C23 1_555 1_555
H43 C25 1_555 1_555
H44 C25 1_555 1_555
H45 C25 1_555 1_555
C26 C23 1_555 1_555
H46 C26 1_555 1_555
H47 C26 1_555 1_555
H48 C26 1_555 1_555
C27 Si2 1_555 1_555
C28 C27 1_555 1_555
H49 C28 1_555 1_555
H50 C28 1_555 1_555
H51 C28 1_555 1_555
C29 C27 1_555 1_555
H52 C29 1_555 1_555
H53 C29 1_555 1_555
H54 C29 1_555 1_555
C30 C27 1_555 1_555
H55 C30 1_555 1_555
H56 C30 1_555 1_555
H57 C30 1_555 1_555
O3 K2 1_555 1_555
C31 O3 1_555 1_555
H58 C31 1_555 1_555
H59 C31 1_555 1_555
C32 C31 1_555 1_555
H60 C32 1_555 1_555
H61 C32 1_555 1_555
C33 C32 1_555 1_555
H62 C33 1_555 1_555
H63 C33 1_555 1_555
C34 O3 1_555 1_555
H64 C34 1_555 1_555
H65 C34 1_555 1_555
O4 K2 1_555 1_555
C35 O4 1_555 1_555
H66 C35 1_555 1_555
H67 C35 1_555 1_555
C36 C35 1_555 1_555
H68 C36 1_555 1_555
H69 C36 1_555 1_555
C37 C36 1_555 1_555
H70 C37 1_555 1_555
H71 C37 1_555 1_555
C38 O4 1_555 1_555
H72 C38 1_555 1_555
H73 C38 1_555 1_555
C39 Si2 1_555 1_555
C40 C39 1_555 1_555
H74 C40 1_555 1_555
C41 C40 1_555 1_555
H75 C41 1_555 1_555
C42 C41 1_555 1_555
H76 C42 1_555 1_555
C43 C42 1_555 1_555
H77 C43 1_555 1_555
C44 C39 1_555 1_555
H78 C44 1_555 1_555
C17B K1 1_555 1_555
C18B K1 1_555 1_555
C19B K1 1_555 1_555
C20B K1 1_555 1_555
C21B K1 1_555 1_555
C22B K1 1_555 1_555
K1B C17 1_555 1_555
C39B K2 1_555 1_555
C40B K2 1_555 1_555
C41B K2 1_555 1_555
C42B K2 1_555 1_555
C43B K2 1_555 1_555
C44B K2 1_555 1_555
K2B C39 1_555 1_555
H35B C18B 1_555 1_555
H36B C19B 1_555 1_555
H37B C20B 1_555 1_555
H38B C21B 1_555 1_555
H39B C22B 1_555 1_555
H74B C40B 1_555 1_555
H75B C41B 1_555 1_555
H76B C42B 1_555 1_555
H77B C43B 1_555 1_555
H78B C44B 1_555 1_555
C11 C12 1_555 1_555
C15 C16 1_555 1_555
C18 K1B 1_555 1_555
C19 K1B 1_555 1_555
C20 K1B 1_555 1_555
C21 C22 1_555 1_555
C21 K1B 1_555 1_555
C22 K1B 1_555 1_555
C33 C34 1_555 1_555
C37 C38 1_555 1_555
C40 K2B 1_555 1_555
C41 K2B 1_555 1_555
C42 K2B 1_555 1_555
C43 C44 1_555 1_555
C43 K2B 1_555 1_555
C44 K2B 1_555 1_555
C17B C18B 1_555 1_555
C17B C22B 1_555 1_555
C18B C19B 1_555 1_555
C19B C20B 1_555 1_555
C20B C21B 1_555 1_555
C21B C22B 1_555 1_555
C39B C40B 1_555 1_555
C39B C44B 1_555 1_555
C40B C41B 1_555 1_555
C41B C42B 1_555 1_555
C42B C43B 1_555 1_555
C43B C44B 1_555 1_555

#END
