
#######################################################################
#
#                 Cambridge Crystallographic Data Centre
#                                CCDC 
#
#######################################################################
#
# If this CIF has been generated from an entry in the Cambridge 
# Structural Database, then it will include bibliographic, chemical, 
# crystal, experimental, refinement or atomic coordinate data resulting 
# from the CCDC's data processing and validation procedures.
#
#######################################################################

data_ATITIG
_symmetry_cell_setting           triclinic
_symmetry_space_group_name_H-M   'P -1'
_symmetry_Int_Tables_number      2
_space_group_name_Hall           '-P 1'
loop_
_symmetry_equiv_pos_site_id
_symmetry_equiv_pos_as_xyz
1 x,y,z
2 -x,-y,-z
_cell_length_a                   9.487(2)
_cell_length_b                   9.951(3)
_cell_length_c                   11.836(3)
_cell_angle_alpha                74.94(2)
_cell_angle_beta                 75.53(2)
_cell_angle_gamma                67.60(2)
_cell_volume                     983.242
loop_
_atom_site_label
_atom_site_type_symbol
_atom_site_fract_x
_atom_site_fract_y
_atom_site_fract_z
Na1 Na 0.50808(19) 0.7233(2) 0.87813(14)
Si1 Si 0.53909(13) 0.66041(13) 1.13369(10)
C1 C 0.6749(5) 0.7400(5) 1.1795(4)
C2 C 0.3287(5) 0.7255(5) 1.2309(4)
C3 C 0.7086(6) 0.6808(6) 1.3097(4)
H1 H 0.6111 0.7061 1.3657
H2 H 0.7587 0.5731 1.3220
H3 H 0.7770 0.7262 1.3230
C4 C 0.6054(6) 0.9114(5) 1.1607(5)
H4 H 0.5051 0.9410 1.2128
H5 H 0.6758 0.9501 1.1796
H6 H 0.5915 0.9512 1.0777
C5 C 0.8316(5) 0.6999(6) 1.0962(4)
H7 H 0.8789 0.5921 1.1057
H8 H 0.8160 0.7417 1.0138
H9 H 0.9000 0.7404 1.1160
C6 C 0.2353(5) 0.8788(5) 1.1647(5)
H10 H 0.2838 0.9514 1.1608
H11 H 0.2344 0.8709 1.0840
H12 H 0.1289 0.9106 1.2075
C7 C 0.2466(5) 0.6170(5) 1.2315(4)
H13 H 0.3016 0.5182 1.2723
H14 H 0.1398 0.6513 1.2730
H15 H 0.2467 0.6131 1.1496
C8 C 0.3139(5) 0.7404(6) 1.3611(4)
H16 H 0.3706 0.6451 1.4057
H17 H 0.3572 0.8151 1.3620
H18 H 0.2045 0.7704 1.3979
C9 C 0.6354(4) 0.4504(4) 1.1947(3)
C10 C 0.7573(5) 0.3654(5) 1.1179(4)
H19 H 0.7879 0.4141 1.0405
C11 C 0.8351(5) 0.2144(5) 1.1494(4)
H20 H 0.9176 0.1635 1.0948
C12 C 0.7914(5) 0.1384(5) 1.2610(4)
H21 H 0.8418 0.0349 1.2826
C13 C 0.6717(5) 0.2166(5) 1.3414(4)
H22 H 0.6417 0.1661 1.4183
C14 C 0.5965(5) 0.3689(5) 1.3088(4)
H23 H 0.5164 0.4196 1.3649
O1 O 0.7030(3) 0.7683(3) 0.7248(2)
C15 C 0.7037(5) 0.8275(6) 0.5988(4)
H24 H 0.6281 0.9290 0.5863
H25 H 0.6767 0.7646 0.5611
C16 C 0.8661(6) 0.8279(6) 0.5472(4)
H26 H 0.8954 0.8119 0.4641
H27 H 0.8767 0.9222 0.5497
C17 C 0.9614(6) 0.7022(6) 0.6260(5)
H28 H 1.0609 0.7141 0.6245
H29 H 0.9825 0.6069 0.6026
C18 C 0.8618(5) 0.7110(6) 0.7457(4)
H30 H 0.8839 0.6119 0.7971
H31 H 0.8805 0.7779 0.7848
C9A C 0.3646(4) 0.5496(4) 0.8053(3)
C10A C 0.2427(5) 0.6346(5) 0.8821(4)
C11A C 0.1649(5) 0.7856(5) 0.8506(4)
C12A C 0.2086(5) 0.8616(5) 0.7390(4)
C13A C 0.3283(5) 0.7834(5) 0.6586(4)
C14A C 0.4035(5) 0.6311(5) 0.6912(4)
Na1A Na 0.49192(19) 0.2767(2) 1.12187(14)
H19A H 0.2121 0.5859 0.9595
H20A H 0.0824 0.8365 0.9052
H21A H 0.1582 0.9651 0.7174
H22A H 0.3583 0.8339 0.5817
H23A H 0.4836 0.5804 0.6351
loop_
_geom_bond_atom_site_label_1
_geom_bond_atom_site_label_2
_geom_bond_site_symmetry_1
_geom_bond_site_symmetry_2
Na1 Si1 1_555 1_555
Si1 C1 1_555 1_555
C1 C3 1_555 1_555
C2 Si1 1_555 1_555
C3 H1 1_555 1_555
H2 C3 1_555 1_555
H3 C3 1_555 1_555
C4 C1 1_555 1_555
H4 C4 1_555 1_555
H5 C4 1_555 1_555
H6 C4 1_555 1_555
C5 C1 1_555 1_555
H7 C5 1_555 1_555
H8 C5 1_555 1_555
H9 C5 1_555 1_555
C6 C2 1_555 1_555
H10 C6 1_555 1_555
H11 C6 1_555 1_555
H12 C6 1_555 1_555
C7 C2 1_555 1_555
H13 C7 1_555 1_555
H14 C7 1_555 1_555
H15 C7 1_555 1_555
C8 C2 1_555 1_555
H16 C8 1_555 1_555
H17 C8 1_555 1_555
H18 C8 1_555 1_555
C9 Si1 1_555 1_555
C10 C9 1_555 1_555
H19 C10 1_555 1_555
C11 C10 1_555 1_555
H20 C11 1_555 1_555
C12 C11 1_555 1_555
H21 C12 1_555 1_555
C13 C12 1_555 1_555
H22 C13 1_555 1_555
C14 C9 1_555 1_555
H23 C14 1_555 1_555
O1 Na1 1_555 1_555
C15 O1 1_555 1_555
H24 C15 1_555 1_555
H25 C15 1_555 1_555
C16 C15 1_555 1_555
H26 C16 1_555 1_555
H27 C16 1_555 1_555
C17 C16 1_555 1_555
H28 C17 1_555 1_555
H29 C17 1_555 1_555
C18 O1 1_555 1_555
H30 C18 1_555 1_555
H31 C18 1_555 1_555
C9A Na1 1_555 1_555
C10A Na1 1_555 1_555
C11A Na1 1_555 1_555
C12A Na1 1_555 1_555
C13A Na1 1_555 1_555
C14A Na1 1_555 1_555
Na1A C9 1_555 1_555
H19A C10A 1_555 1_555
H20A C11A 1_555 1_555
H21A C12A 1_555 1_555
H22A C13A 1_555 1_555
H23A C14A 1_555 1_555
C10 Na1A 1_555 1_555
C11 Na1A 1_555 1_555
C12 Na1A 1_555 1_555
C13 C14 1_555 1_555
C13 Na1A 1_555 1_555
C14 Na1A 1_555 1_555
C17 C18 1_555 1_555
C9A C10A 1_555 1_555
C9A C14A 1_555 1_555
C10A C11A 1_555 1_555
C11A C12A 1_555 1_555
C12A C13A 1_555 1_555
C13A C14A 1_555 1_555

#END
