
#######################################################################
#
#                 Cambridge Crystallographic Data Centre
#                                CCDC 
#
#######################################################################
#
# If this CIF has been generated from an entry in the Cambridge 
# Structural Database, then it will include bibliographic, chemical, 
# crystal, experimental, refinement or atomic coordinate data resulting 
# from the CCDC's data processing and validation procedures.
#
#######################################################################

data_ATITAY
_symmetry_cell_setting           monoclinic
_symmetry_space_group_name_H-M   'P 21/c'
_symmetry_Int_Tables_number      14
_space_group_name_Hall           '-P 2ybc'
loop_
_symmetry_equiv_pos_site_id
_symmetry_equiv_pos_as_xyz
1 x,y,z
2 x,1/2-y,1/2+z
3 -x,-y,-z
4 -x,1/2+y,1/2-z
_cell_length_a                   11.9274(9)
_cell_length_b                   10.7936(8)
_cell_length_c                   15.9980(10)
_cell_angle_alpha                90
_cell_angle_beta                 104.726(4)
_cell_angle_gamma                90
_cell_volume                     1991.92
loop_
_atom_site_label
_atom_site_type_symbol
_atom_site_fract_x
_atom_site_fract_y
_atom_site_fract_z
Si1 Si 0.36212(7) 0.47306(8) 0.61099(6)
K1 K 0.62294(6) 0.34649(7) 0.61876(5)
C1 C 0.3242(3) 0.4986(3) 0.7227(2)
C2 C 0.2462(3) 0.3605(3) 0.5389(2)
C3 C 0.2126(3) 0.5717(3) 0.7199(2)
H1 H 0.2151 0.6513 0.6909
H2 H 0.2062 0.5864 0.7789
H3 H 0.1453 0.5240 0.6880
C4 C 0.4258(3) 0.5720(4) 0.7800(2)
H4 H 0.4324 0.6524 0.7532
H5 H 0.4980 0.5253 0.7862
H6 H 0.4118 0.5850 0.8371
C5 C 0.3183(3) 0.3733(3) 0.7676(2)
H7 H 0.3892 0.3260 0.7698
H8 H 0.2509 0.3265 0.7350
H9 H 0.3111 0.3878 0.8265
C6 C 0.1205(3) 0.3616(3) 0.5479(3)
H10 H 0.1206 0.3468 0.6084
H11 H 0.0759 0.2964 0.5115
H12 H 0.0852 0.4424 0.5295
C7 C 0.2430(3) 0.3832(3) 0.4440(2)
H13 H 0.3223 0.3830 0.4369
H14 H 0.2068 0.4637 0.4259
H15 H 0.1979 0.3176 0.4083
C8 C 0.2925(3) 0.2276(3) 0.5597(2)
H16 H 0.2961 0.2084 0.6202
H17 H 0.3702 0.2211 0.5502
H18 H 0.2405 0.1688 0.5220
C9 C 0.3226(2) 0.6368(3) 0.56221(19)
C10 C 0.2146(3) 0.6788(3) 0.5129(2)
H19 H 0.1503 0.6240 0.5032
C11 C 0.1978(3) 0.7971(4) 0.4776(2)
H20 H 0.1234 0.8211 0.4438
C12 C 0.2892(3) 0.8802(3) 0.4915(2)
H21 H 0.2783 0.9607 0.4668
C13 C 0.3966(3) 0.8445(3) 0.5417(2)
H22 H 0.4594 0.9014 0.5535
C14 C 0.4121(3) 0.7250(3) 0.5749(2)
H23 H 0.4872 0.7016 0.6079
O1 O 0.81396(19) 0.3990(2) 0.73734(15)
C15 C 0.8001(4) 0.4818(5) 0.8028(3)
H24 H 0.7544 0.4422 0.8392
H25 H 0.7592 0.5577 0.7768
C16 C 0.9180(4) 0.5127(6) 0.8554(4)
H26 H 0.9439 0.5932 0.8373
H27 H 0.9194 0.5173 0.9175
C17 C 0.9906(4) 0.4144(5) 0.8401(3)
H28 H 0.9946 0.3467 0.8825
H29 H 1.0700 0.4448 0.8438
C18 C 0.9340(3) 0.3710(4) 0.7509(3)
H30 H 0.9667 0.4146 0.7080
H31 H 0.9455 0.2808 0.7456
C9B C 0.6774(2) 0.3632(3) 0.43779(19)
C10B C 0.7854(3) 0.3212(3) 0.4871(2)
C11B C 0.8022(3) 0.2029(4) 0.5224(2)
C12B C 0.7108(3) 0.1198(3) 0.5085(2)
C13B C 0.6034(3) 0.1555(3) 0.4583(2)
C14B C 0.5879(3) 0.2750(3) 0.4251(2)
K1B K 0.37706(6) 0.65351(7) 0.38124(5)
H19B H 0.8497 0.3760 0.4968
H20B H 0.8766 0.1789 0.5562
H21B H 0.7217 0.0393 0.5332
H22B H 0.5406 0.0986 0.4465
H23B H 0.5128 0.2984 0.3921
loop_
_geom_bond_atom_site_label_1
_geom_bond_atom_site_label_2
_geom_bond_site_symmetry_1
_geom_bond_site_symmetry_2
Si1 K1 1_555 1_555
K1 O1 1_555 1_555
C1 Si1 1_555 1_555
C2 Si1 1_555 1_555
C3 C1 1_555 1_555
H1 C3 1_555 1_555
H2 C3 1_555 1_555
H3 C3 1_555 1_555
C4 C1 1_555 1_555
H4 C4 1_555 1_555
H5 C4 1_555 1_555
H6 C4 1_555 1_555
C5 C1 1_555 1_555
H7 C5 1_555 1_555
H8 C5 1_555 1_555
H9 C5 1_555 1_555
C6 C2 1_555 1_555
H10 C6 1_555 1_555
H11 C6 1_555 1_555
H12 C6 1_555 1_555
C7 C2 1_555 1_555
H13 C7 1_555 1_555
H14 C7 1_555 1_555
H15 C7 1_555 1_555
C8 C2 1_555 1_555
H16 C8 1_555 1_555
H17 C8 1_555 1_555
H18 C8 1_555 1_555
C9 Si1 1_555 1_555
C10 C9 1_555 1_555
H19 C10 1_555 1_555
C11 C10 1_555 1_555
H20 C11 1_555 1_555
C12 C11 1_555 1_555
H21 C12 1_555 1_555
C13 C12 1_555 1_555
H22 C13 1_555 1_555
C14 C9 1_555 1_555
H23 C14 1_555 1_555
O1 C15 1_555 1_555
C15 H24 1_555 1_555
H25 C15 1_555 1_555
C16 C15 1_555 1_555
H26 C16 1_555 1_555
H27 C16 1_555 1_555
C17 C16 1_555 1_555
H28 C17 1_555 1_555
H29 C17 1_555 1_555
C18 O1 1_555 1_555
H30 C18 1_555 1_555
H31 C18 1_555 1_555
C9B K1 1_555 1_555
C10B K1 1_555 1_555
C11B K1 1_555 1_555
C12B K1 1_555 1_555
C13B K1 1_555 1_555
C14B K1 1_555 1_555
K1B C9 1_555 1_555
H19B C10B 1_555 1_555
H20B C11B 1_555 1_555
H21B C12B 1_555 1_555
H22B C13B 1_555 1_555
H23B C14B 1_555 1_555
C10 K1B 1_555 1_555
C11 K1B 1_555 1_555
C12 K1B 1_555 1_555
C13 C14 1_555 1_555
C13 K1B 1_555 1_555
C14 K1B 1_555 1_555
C17 C18 1_555 1_555
C9B C10B 1_555 1_555
C9B C14B 1_555 1_555
C10B C11B 1_555 1_555
C11B C12B 1_555 1_555
C12B C13B 1_555 1_555
C13B C14B 1_555 1_555

#END
