
#######################################################################
#
#                 Cambridge Crystallographic Data Centre
#                                CCDC 
#
#######################################################################
#
# If this CIF has been generated from an entry in the Cambridge 
# Structural Database, then it will include bibliographic, chemical, 
# crystal, experimental, refinement or atomic coordinate data resulting 
# from the CCDC's data processing and validation procedures.
#
#######################################################################

data_ATIYAE
_symmetry_cell_setting           triclinic
_symmetry_space_group_name_H-M   'P -1'
_symmetry_Int_Tables_number      2
_space_group_name_Hall           '-P 1'
loop_
_symmetry_equiv_pos_site_id
_symmetry_equiv_pos_as_xyz
1 x,y,z
2 -x,-y,-z
_cell_length_a                   10.264(2)
_cell_length_b                   10.699(2)
_cell_length_c                   14.033(3)
_cell_angle_alpha                87.409(2)
_cell_angle_beta                 70.574(2)
_cell_angle_gamma                64.437(2)
_cell_volume                     1302.26
loop_
_atom_site_label
_atom_site_type_symbol
_atom_site_fract_x
_atom_site_fract_y
_atom_site_fract_z
Tb1 Tb 0.20645(5) 0.43856(5) 0.04418(4)
Cu1 Cu 0.51104(14) 0.44802(12) 0.09796(9)
O1 O 0.2895(8) 0.2910(8) 0.1641(6)
O2 O 0.5084(9) 0.2867(8) 0.1652(6)
O3 O 0.7056(7) -0.4016(7) 0.1454(5)
O4 O 0.5355(9) -0.4872(8) 0.2154(5)
O5 O 0.1701(9) 0.6577(7) -0.0164(6)
O6 O -0.0141(9) 0.6236(8) -0.0418(6)
O7 O -0.2646(8) 1.2251(7) -0.1573(6)
O8 O -0.2424(8) 1.4246(7) -0.1602(5)
O9 O -0.0323(9) 0.5690(10) 0.1823(7)
O10 O 0.4635(8) 0.4035(6) -0.0174(5)
H1 H 0.5056 0.3187 -0.0325
O11 O 0.3427(10) 0.1943(8) -0.0278(7)
H2 H 0.4010 0.1464 -0.0852
C1 C 0.4073(12) 0.2425(11) 0.1851(7)
C2 C 0.4472(12) 0.1081(10) 0.2350(7)
C3 C 0.5552(13) 0.0710(11) 0.2838(9)
H3 H 0.5989 0.1300 0.2877
C4 C 0.5971(13) -0.0534(11) 0.3263(8)
H4 H 0.6697 -0.0771 0.3580
C5 C 0.5335(11) -0.1444(10) 0.3230(7)
C6 C 0.4209(12) -0.1032(10) 0.2755(8)
H5 H 0.3745 -0.1601 0.2727
C7 C 0.3810(12) 0.0190(10) 0.2342(8)
H6 H 0.3063 0.0442 0.2040
C8 C 0.5812(12) -0.2746(10) 0.3709(8)
C9 C 0.5908(14) -0.2675(12) 0.4683(9)
H7 H 0.5637 -0.1816 0.5011
C10 C 0.6399(15) -0.3864(12) 0.5156(10)
H8 H 0.6493 -0.3803 0.5787
C11 C 0.6749(14) -0.5138(12) 0.4707(9)
H9 H 0.7072 -0.5935 0.5031
C12 C 0.6614(12) -0.5217(11) 0.3769(9)
H10 H 0.6824 -0.6073 0.3470
C13 C 0.6170(12) -0.4044(10) 0.3260(8)
C14 C 0.6191(11) -0.4302(10) 0.2213(8)
C15 C 0.0722(11) 0.6860(10) -0.0576(8)
C16 C 0.0577(11) 0.7942(10) -0.1306(8)
C17 C 0.0910(12) 0.9022(11) -0.1147(8)
H11 H 0.1267 0.9036 -0.0621
C18 C 0.0709(14) 1.0095(12) -0.1777(9)
H12 H 0.0852 1.0859 -0.1639
C19 C 0.0291(11) 1.0008(10) -0.2619(7)
C20 C 0.0052(13) 0.8852(11) -0.2795(8)
H13 H -0.0163 0.8753 -0.3373
C21 C 0.0131(13) 0.7868(11) -0.2125(8)
H14 H -0.0114 0.7152 -0.2220
C22 C 0.0183(12) 1.1079(10) -0.3325(8)
C23 C 0.1178(13) 1.0686(12) -0.4339(8)
H15 H 0.1831 0.9747 -0.4566
C24 C 0.1204(15) 1.1680(13) -0.5010(8)
H16 H 0.1851 1.1399 -0.5686
C25 C 0.0287(15) 1.3058(13) -0.4685(9)
H17 H 0.0339 1.3720 -0.5129
C26 C -0.0723(13) 1.3474(12) -0.3689(9)
H18 H -0.1360 1.4418 -0.3473
C27 C -0.0798(11) 1.2494(10) -0.3006(8)
C28 C -0.2037(11) 1.3025(10) -0.1964(7)
C29 C 0.2524(17) 0.1178(12) 0.0316(12)
H19 H 0.1559 0.1561 0.0189
H20 H 0.2268 0.1439 0.1031
C30 C 0.3165(16) -0.0425(11) 0.0167(9)
H21 H 0.2468 -0.0706 0.0664
H22 H 0.4152 -0.0850 0.0250
H23 H 0.3273 -0.0716 -0.0503
H24 H -0.112(8) 0.583(14) 0.171(10)
H25 H -0.043(13) 0.622(12) 0.230(8)
Tb1A Tb 0.79355(5) -0.43856(5) -0.04418(4)
Tb1A_2 Tb -0.20645(5) 0.56144(5) -0.04418(4)
Tb1A_3 Tb -0.20645(5) 1.56144(5) -0.04418(4)
Cu1_2 Cu 0.51104(14) -0.55198(12) 0.09796(9)
Cu1A Cu -0.51104(14) 1.55198(12) -0.09796(9)
Cu1A_2 Cu 0.48896(14) 0.55198(12) -0.09796(9)
O3A O 0.2944(7) 0.4016(7) -0.1454(5)
O4_2 O 0.5355(9) 0.5128(8) 0.2154(5)
O6A O 0.0141(9) 0.3764(8) 0.0418(6)
O8A O 0.2424(8) 0.5754(7) 0.1602(5)
O10A O 0.5365(8) 0.5965(6) 0.0174(5)
H1A H 0.4944 0.6813 0.0325
loop_
_geom_bond_atom_site_label_1
_geom_bond_atom_site_label_2
_geom_bond_site_symmetry_1
_geom_bond_site_symmetry_2
Tb1 O1 1_555 1_555
Cu1 O2 1_555 1_555
O1 C1 1_555 1_555
O2 C1 1_555 1_555
O3 C14 1_555 1_555
O4 C14 1_555 1_555
O5 Tb1 1_555 1_555
O6 Tb1 1_555 1_555
O7 C28 1_555 1_555
O8 C28 1_555 1_555
O9 Tb1 1_555 1_555
O10 Tb1 1_555 1_555
H1 O10 1_555 1_555
O11 Tb1 1_555 1_555
H2 O11 1_555 1_555
C1 C2 1_555 1_555
C2 C3 1_555 1_555
C3 H3 1_555 1_555
C4 C3 1_555 1_555
H4 C4 1_555 1_555
C5 C4 1_555 1_555
C6 C5 1_555 1_555
H5 C6 1_555 1_555
C7 C2 1_555 1_555
H6 C7 1_555 1_555
C8 C5 1_555 1_555
C9 C8 1_555 1_555
H7 C9 1_555 1_555
C10 C9 1_555 1_555
H8 C10 1_555 1_555
C11 C10 1_555 1_555
H9 C11 1_555 1_555
C12 C11 1_555 1_555
H10 C12 1_555 1_555
C13 C8 1_555 1_555
C14 C13 1_555 1_555
C15 O5 1_555 1_555
C16 C15 1_555 1_555
C17 C16 1_555 1_555
H11 C17 1_555 1_555
C18 C17 1_555 1_555
H12 C18 1_555 1_555
C19 C18 1_555 1_555
C20 C19 1_555 1_555
H13 C20 1_555 1_555
C21 C16 1_555 1_555
H14 C21 1_555 1_555
C22 C19 1_555 1_555
C23 C22 1_555 1_555
H15 C23 1_555 1_555
C24 C23 1_555 1_555
H16 C24 1_555 1_555
C25 C24 1_555 1_555
H17 C25 1_555 1_555
C26 C25 1_555 1_555
H18 C26 1_555 1_555
C27 C22 1_555 1_555
C28 C27 1_555 1_555
C29 O11 1_555 1_555
H19 C29 1_555 1_555
H20 C29 1_555 1_555
C30 C29 1_555 1_555
H21 C30 1_555 1_555
H22 C30 1_555 1_555
H23 C30 1_555 1_555
H24 O9 1_555 1_555
H25 O9 1_555 1_555
Tb1A O3 1_555 1_555
Tb1A_2 O6 1_555 1_555
Tb1A_3 O8 1_555 1_555
Cu1_2 O4 1_555 1_555
Cu1A O8 1_555 1_555
Cu1A_2 O10 1_555 1_555
O3A Tb1 1_555 1_555
O4_2 Cu1 1_555 1_555
O6A Tb1 1_555 1_555
O8A Tb1 1_555 1_555
O10A Cu1 1_555 1_555
H1A O10A 1_555 1_555
Cu1 O10 1_555 1_555
Cu1 O8A 1_555 1_555
O6 C15 1_555 1_555
C6 C7 1_555 1_555
C12 C13 1_555 1_555
C20 C21 1_555 1_555
C26 C27 1_555 1_555
Tb1A_2 O6A 1_555 1_555
Cu1A_2 O10A 1_555 1_555

#END
