
#######################################################################
#
#                 Cambridge Crystallographic Data Centre
#                                CCDC 
#
#######################################################################
#
# If this CIF has been generated from an entry in the Cambridge 
# Structural Database, then it will include bibliographic, chemical, 
# crystal, experimental, refinement or atomic coordinate data resulting 
# from the CCDC's data processing and validation procedures.
#
#######################################################################

data_ATIYIM
_symmetry_cell_setting           triclinic
_symmetry_space_group_name_H-M   'P -1'
_symmetry_Int_Tables_number      2
_space_group_name_Hall           '-P 1'
loop_
_symmetry_equiv_pos_site_id
_symmetry_equiv_pos_as_xyz
1 x,y,z
2 -x,-y,-z
_cell_length_a                   9.2908(12)
_cell_length_b                   9.3929(12)
_cell_length_c                   15.664(2)
_cell_angle_alpha                84.246(2)
_cell_angle_beta                 74.941(2)
_cell_angle_gamma                74.627(2)
_cell_volume                     1272.06
loop_
_atom_site_label
_atom_site_type_symbol
_atom_site_fract_x
_atom_site_fract_y
_atom_site_fract_z
Sm1 Sm 0.70189(3) 0.46960(3) 0.03014(2)
O1 O 0.6131(8) 1.3570(6) 0.3466(4)
H1 H 0.5970 1.3929 0.2990
O2 O 0.8455(5) 0.5386(5) 0.1120(3)
O3 O 1.0785(5) 0.5721(5) 0.0803(3)
O4 O 0.4225(4) 0.4492(4) 0.0918(2)
O5 O 0.5474(4) 0.4586(4) 0.1907(3)
O6 O 0.7259(10) 1.1670(7) 0.2680(4)
O7 O 0.3275(4) -0.2506(4) 0.0266(3)
O8 O 0.5565(4) -0.2862(4) 0.0569(3)
O9 O 0.8219(5) 0.2299(6) 0.0956(3)
H2 H 0.9168(14) 0.208(4) 0.078(3)
H3 H 0.780(5) 0.219(4) 0.1489(15)
C1 C 0.6887(8) 1.2199(7) 0.3371(5)
C2 C 0.7177(7) 1.1374(7) 0.4193(4)
C3 C 0.6851(8) 1.2126(8) 0.4968(5)
H4 H 0.6479 1.3148 0.4962
C4 C 0.7067(10) 1.1398(9) 0.5727(5)
H5 H 0.6868 1.1930 0.6232
C5 C 0.7563(11) 0.9916(10) 0.5770(5)
H6 H 0.7659 0.9420 0.6305
C6 C 0.7933(10) 0.9134(9) 0.4995(5)
H7 H 0.8315 0.8114 0.5016
C7 C 0.7748(8) 0.9833(7) 0.4204(4)
C8 C 0.8139(7) 0.8910(6) 0.3409(4)
C9 C 0.7175(8) 0.8093(8) 0.3309(4)
H8 H 0.6245 0.8154 0.3725
C10 C 0.7554(7) 0.7179(7) 0.2601(4)
H9 H 0.6869 0.6658 0.2536
C11 C 0.8956(6) 0.7042(7) 0.1990(4)
C12 C 0.9421(7) 0.5993(7) 0.1253(4)
C13 C 0.9918(7) 0.7860(7) 0.2088(4)
H10 H 1.0856 0.7790 0.1676
C14 C 0.9521(8) 0.8789(8) 0.2789(4)
H11 H 1.0192 0.9336 0.2843
C15 C 0.4278(6) 0.4466(6) 0.1718(4)
C16 C 0.2906(6) 0.4367(6) 0.2436(4)
C17 C 0.2396(8) 0.5381(7) 0.3101(4)
H12 H 0.2985 0.6031 0.3123
C18 C 0.1034(8) 0.5444(8) 0.3729(4)
H13 H 0.0708 0.6137 0.4167
C19 C 0.0178(8) 0.4510(8) 0.3710(4)
H14 H -0.0760 0.4582 0.4121
C20 C 0.0680(7) 0.3440(7) 0.3084(4)
H15 H 0.0092 0.2776 0.3091
C21 C 0.2057(6) 0.3337(6) 0.2440(4)
C22 C 0.2671(6) 0.2041(6) 0.1864(4)
C23 C 0.4113(7) 0.1143(6) 0.1834(4)
H16 H 0.4752 0.1426 0.2118
C24 C 0.4640(6) -0.0168(6) 0.1396(4)
H17 H 0.5618 -0.0759 0.1393
C25 C 0.3714(6) -0.0607(6) 0.0960(4)
C26 C 0.2301(7) 0.0325(7) 0.0941(5)
H18 H 0.1695 0.0072 0.0621
C27 C 0.1765(7) 0.1637(7) 0.1392(5)
H19 H 0.0801 0.2246 0.1379
C28 C 0.4233(7) -0.2094(6) 0.0555(4)
Sm1A Sm 1.29811(3) 0.53040(3) -0.03014(2)
Sm1A_2 Sm 0.29811(3) 0.53040(3) -0.03014(2)
Sm1A_3 Sm 0.29811(3) -0.46960(3) -0.03014(2)
Sm1_2 Sm 0.70189(3) -0.53040(3) 0.03014(2)
O3A O 0.9215(5) 0.4279(5) -0.0803(3)
O4A O 0.5775(4) 0.5508(4) -0.0918(2)
O7A O 0.6725(4) 0.2506(4) -0.0266(3)
O8_2 O 0.5565(4) 0.7138(4) 0.0569(3)
loop_
_geom_bond_atom_site_label_1
_geom_bond_atom_site_label_2
_geom_bond_site_symmetry_1
_geom_bond_site_symmetry_2
Sm1 O2 1_555 1_555
O1 H1 1_555 1_555
O2 C12 1_555 1_555
O3 C12 1_555 1_555
O4 Sm1 1_555 1_555
O5 Sm1 1_555 1_555
O6 C1 1_555 1_555
O7 C28 1_555 1_555
O8 C28 1_555 1_555
O9 Sm1 1_555 1_555
H2 O9 1_555 1_555
H3 O9 1_555 1_555
C1 O1 1_555 1_555
C2 C1 1_555 1_555
C3 C2 1_555 1_555
H4 C3 1_555 1_555
C4 C3 1_555 1_555
H5 C4 1_555 1_555
C5 C4 1_555 1_555
H6 C5 1_555 1_555
C6 C5 1_555 1_555
H7 C6 1_555 1_555
C7 C2 1_555 1_555
C8 C7 1_555 1_555
C9 C8 1_555 1_555
H8 C9 1_555 1_555
C10 C9 1_555 1_555
H9 C10 1_555 1_555
C11 C10 1_555 1_555
C12 C11 1_555 1_555
C13 C11 1_555 1_555
H10 C13 1_555 1_555
C14 C8 1_555 1_555
H11 C14 1_555 1_555
C15 O4 1_555 1_555
C16 C15 1_555 1_555
C17 C16 1_555 1_555
H12 C17 1_555 1_555
C18 C17 1_555 1_555
H13 C18 1_555 1_555
C19 C18 1_555 1_555
H14 C19 1_555 1_555
C20 C19 1_555 1_555
H15 C20 1_555 1_555
C21 C16 1_555 1_555
C22 C21 1_555 1_555
C23 C22 1_555 1_555
H16 C23 1_555 1_555
C24 C23 1_555 1_555
H17 C24 1_555 1_555
C25 C24 1_555 1_555
C26 C25 1_555 1_555
H18 C26 1_555 1_555
C27 C22 1_555 1_555
H19 C27 1_555 1_555
C28 C25 1_555 1_555
Sm1A O3 1_555 1_555
Sm1A_2 O4 1_555 1_555
Sm1A_3 O7 1_555 1_555
Sm1_2 O8 1_555 1_555
O3A Sm1 1_555 1_555
O4A Sm1 1_555 1_555
O7A Sm1 1_555 1_555
O8_2 Sm1 1_555 1_555
O5 C15 1_555 1_555
C6 C7 1_555 1_555
C13 C14 1_555 1_555
C20 C21 1_555 1_555
C26 C27 1_555 1_555
Sm1A_2 O4A 1_555 1_555

#END
