
#######################################################################
#
#                 Cambridge Crystallographic Data Centre
#                                CCDC 
#
#######################################################################
#
# If this CIF has been generated from an entry in the Cambridge 
# Structural Database, then it will include bibliographic, chemical, 
# crystal, experimental, refinement or atomic coordinate data resulting 
# from the CCDC's data processing and validation procedures.
#
#######################################################################

data_ATIYEI
_symmetry_cell_setting           triclinic
_symmetry_space_group_name_H-M   'P -1'
_symmetry_Int_Tables_number      2
_space_group_name_Hall           '-P 1'
loop_
_symmetry_equiv_pos_site_id
_symmetry_equiv_pos_as_xyz
1 x,y,z
2 -x,-y,-z
_cell_length_a                   10.276(2)
_cell_length_b                   10.663(2)
_cell_length_c                   14.074(3)
_cell_angle_alpha                87.671(2)
_cell_angle_beta                 70.694(2)
_cell_angle_gamma                64.766(2)
_cell_volume                     1307.41
loop_
_atom_site_label
_atom_site_type_symbol
_atom_site_fract_x
_atom_site_fract_y
_atom_site_fract_z
Eu1 Eu 0.20402(7) 0.43952(6) 0.04323(5)
Cu1 Cu 0.51045(18) 0.44774(16) 0.09769(12)
O1 O 0.2886(11) 0.2882(10) 0.1633(8)
O2 O 0.5072(12) 0.2858(10) 0.1643(8)
O3 O 0.7051(9) -0.4017(9) 0.1464(6)
O4 O 0.5330(11) -0.4867(10) 0.2164(7)
O5 O 0.1766(12) 0.6613(10) -0.0181(8)
O6 O -0.0041(11) 0.6211(10) -0.0417(8)
O7 O -0.2647(11) 1.2251(10) -0.1586(7)
O8 O -0.2422(10) 1.4248(9) -0.1612(7)
O9 O -0.0334(11) 0.5704(13) 0.1826(8)
H1 H -0.122(7) 0.584(18) 0.188(12)
H2 H -0.025(16) 0.611(17) 0.228(9)
O10 O 0.4622(10) 0.4028(8) -0.0170(6)
H3 H 0.5021 0.3179 -0.0312
O11 O 0.3360(13) 0.1933(11) -0.0302(8)
H4 H 0.3943 0.1454 -0.0877
C1 C 0.4056(14) 0.2427(13) 0.1845(8)
C2 C 0.4468(15) 0.1070(13) 0.2347(9)
C3 C 0.5525(17) 0.0713(14) 0.2837(11)
H5 H 0.5956 0.1311 0.2877
C4 C 0.5943(18) -0.0512(15) 0.3262(11)
H6 H 0.6672 -0.0737 0.3573
C5 C 0.5313(15) -0.1429(13) 0.3243(9)
C6 C 0.4193(15) -0.1048(14) 0.2769(10)
H7 H 0.3733 -0.1625 0.2744
C7 C 0.3811(15) 0.0160(13) 0.2359(10)
H8 H 0.3061 0.0406 0.2063
C8 C 0.5806(16) -0.2745(14) 0.3722(11)
C9 C 0.592(2) -0.2669(16) 0.4678(12)
H9 H 0.5671 -0.1808 0.4995
C10 C 0.639(2) -0.3845(17) 0.5161(12)
H10 H 0.6457 -0.3774 0.5797
C11 C 0.6753(19) -0.5132(16) 0.4700(12)
H11 H 0.7100 -0.5931 0.5016
C12 C 0.6603(16) -0.5224(14) 0.3774(10)
H12 H 0.6816 -0.6084 0.3475
C13 C 0.6133(15) -0.4038(14) 0.3276(10)
C14 C 0.6161(15) -0.4288(12) 0.2225(10)
C15 C 0.0786(16) 0.6865(13) -0.0584(10)
C16 C 0.0603(14) 0.7954(13) -0.1300(10)
C17 C 0.0917(16) 0.9065(14) -0.1135(10)
H13 H 0.1252 0.9104 -0.0604
C18 C 0.0722(18) 1.0119(16) -0.1777(11)
H14 H 0.0874 1.0887 -0.1652
C19 C 0.0293(15) 1.0004(14) -0.2619(10)
C20 C 0.0064(16) 0.8844(14) -0.2782(10)
H15 H -0.0142 0.8732 -0.3360
C21 C 0.0137(15) 0.7861(14) -0.2113(10)
H16 H -0.0119 0.7146 -0.2199
C22 C 0.0174(15) 1.1090(13) -0.3330(10)
C23 C 0.1161(17) 1.0684(15) -0.4340(10)
H17 H 0.1802 0.9743 -0.4563
C24 C 0.1195(18) 1.1669(17) -0.5011(11)
H18 H 0.1857 1.1382 -0.5680
C25 C 0.026(2) 1.3068(17) -0.4696(12)
H19 H 0.0287 1.3728 -0.5144
C26 C -0.0732(17) 1.3475(15) -0.3694(11)
H20 H -0.1359 1.4420 -0.3475
C27 C -0.0810(15) 1.2505(14) -0.3010(10)
C28 C -0.2038(15) 1.3018(13) -0.1974(9)
C29 C 0.2524(19) 0.1141(14) 0.0337(12)
H21 H 0.1520 0.1520 0.0270
H22 H 0.2356 0.1389 0.1037
C30 C 0.316(2) -0.0460(13) 0.0180(12)
H23 H 0.2474 -0.0748 0.0673
H24 H 0.4149 -0.0882 0.0259
H25 H 0.3266 -0.0747 -0.0489
Eu1A Eu 0.79598(7) -0.43952(6) -0.04323(5)
Eu1A_2 Eu -0.20402(7) 0.56048(6) -0.04323(5)
Eu1A_3 Eu -0.20402(7) 1.56048(6) -0.04323(5)
Cu1_2 Cu 0.51045(18) -0.55226(16) 0.09769(12)
Cu1A Cu -0.51045(18) 1.55226(16) -0.09769(12)
Cu1A_2 Cu 0.48955(18) 0.55226(16) -0.09769(12)
O3A O 0.2949(9) 0.4017(9) -0.1464(6)
O4_2 O 0.5330(11) 0.5133(10) 0.2164(7)
O6A O 0.0041(11) 0.3789(10) 0.0417(8)
O8A O 0.2422(10) 0.5752(9) 0.1612(7)
O10A O 0.5378(10) 0.5972(8) 0.0170(6)
H3A H 0.4979 0.6821 0.0312
loop_
_geom_bond_atom_site_label_1
_geom_bond_atom_site_label_2
_geom_bond_site_symmetry_1
_geom_bond_site_symmetry_2
Eu1 O1 1_555 1_555
Cu1 O2 1_555 1_555
O1 C1 1_555 1_555
O2 C1 1_555 1_555
O3 C14 1_555 1_555
O4 C14 1_555 1_555
O5 Eu1 1_555 1_555
O6 Eu1 1_555 1_555
O7 C28 1_555 1_555
O8 C28 1_555 1_555
O9 Eu1 1_555 1_555
H1 O9 1_555 1_555
H2 O9 1_555 1_555
O10 Eu1 1_555 1_555
H3 O10 1_555 1_555
O11 Eu1 1_555 1_555
H4 O11 1_555 1_555
C1 C2 1_555 1_555
C2 C3 1_555 1_555
C3 H5 1_555 1_555
C4 C3 1_555 1_555
H6 C4 1_555 1_555
C5 C4 1_555 1_555
C6 C5 1_555 1_555
H7 C6 1_555 1_555
C7 C2 1_555 1_555
H8 C7 1_555 1_555
C8 C5 1_555 1_555
C9 C8 1_555 1_555
H9 C9 1_555 1_555
C10 C9 1_555 1_555
H10 C10 1_555 1_555
C11 C10 1_555 1_555
H11 C11 1_555 1_555
C12 C11 1_555 1_555
H12 C12 1_555 1_555
C13 C8 1_555 1_555
C14 C13 1_555 1_555
C15 O5 1_555 1_555
C16 C15 1_555 1_555
C17 C16 1_555 1_555
H13 C17 1_555 1_555
C18 C17 1_555 1_555
H14 C18 1_555 1_555
C19 C18 1_555 1_555
C20 C19 1_555 1_555
H15 C20 1_555 1_555
C21 C16 1_555 1_555
H16 C21 1_555 1_555
C22 C19 1_555 1_555
C23 C22 1_555 1_555
H17 C23 1_555 1_555
C24 C23 1_555 1_555
H18 C24 1_555 1_555
C25 C24 1_555 1_555
H19 C25 1_555 1_555
C26 C25 1_555 1_555
H20 C26 1_555 1_555
C27 C22 1_555 1_555
C28 C27 1_555 1_555
C29 O11 1_555 1_555
H21 C29 1_555 1_555
H22 C29 1_555 1_555
C30 C29 1_555 1_555
H23 C30 1_555 1_555
H24 C30 1_555 1_555
H25 C30 1_555 1_555
Eu1A O3 1_555 1_555
Eu1A_2 O6 1_555 1_555
Eu1A_3 O8 1_555 1_555
Cu1_2 O4 1_555 1_555
Cu1A O8 1_555 1_555
Cu1A_2 O10 1_555 1_555
O3A Eu1 1_555 1_555
O4_2 Cu1 1_555 1_555
O6A Eu1 1_555 1_555
O8A Eu1 1_555 1_555
O10A Cu1 1_555 1_555
H3A O10A 1_555 1_555
Cu1 O10 1_555 1_555
Cu1 O8A 1_555 1_555
O6 C15 1_555 1_555
C6 C7 1_555 1_555
C12 C13 1_555 1_555
C20 C21 1_555 1_555
C26 C27 1_555 1_555
Eu1A_2 O6A 1_555 1_555
Cu1A_2 O10A 1_555 1_555

#END
