
#######################################################################
#
#                 Cambridge Crystallographic Data Centre
#                                CCDC 
#
#######################################################################
#
# If this CIF has been generated from an entry in the Cambridge 
# Structural Database, then it will include bibliographic, chemical, 
# crystal, experimental, refinement or atomic coordinate data resulting 
# from the CCDC's data processing and validation procedures.
#
#######################################################################

data_ATIZIN
_symmetry_cell_setting           monoclinic
_symmetry_space_group_name_H-M   'C 2/c'
_symmetry_Int_Tables_number      15
_space_group_name_Hall           '-C 2yn'
loop_
_symmetry_equiv_pos_site_id
_symmetry_equiv_pos_as_xyz
1 x,y,z
2 -x,y,1/2-z
3 1/2+x,1/2+y,z
4 1/2-x,1/2+y,1/2-z
5 -x,-y,-z
6 x,-y,1/2+z
7 1/2-x,1/2-y,-z
8 1/2+x,1/2-y,1/2+z
_cell_length_a                   33.919(13)
_cell_length_b                   13.917(5)
_cell_length_c                   12.210(5)
_cell_angle_alpha                90
_cell_angle_beta                 108.856(5)
_cell_angle_gamma                90
_cell_volume                     5454.42
loop_
_atom_site_label
_atom_site_type_symbol
_atom_site_fract_x
_atom_site_fract_y
_atom_site_fract_z
Eu1 Eu 0.0000 0.262326(15) 0.2500
N1 N 0.19343(12) 0.3540(4) 1.1772(4)
N2 N 0.27614(10) 0.3992(2) 1.0602(3)
N3 N 0.33610(11) 0.4045(3) 0.8671(4)
N4 N 0.03461(9) 0.34293(19) 0.1189(3)
N5 N 0.0000 0.4459(3) 0.2500
O1 O 0.07325(9) 0.3072(3) 0.3489(3)
O2 O 0.04479(9) 0.2189(2) 0.4493(2)
O3 O -0.02537(8) 1.10697(17) 0.2881(2)
C1 C 0.18729(19) 0.3423(6) 1.2790(5)
H1 H 0.1603 0.3312 1.2797
C2 C 0.2195(2) 0.3458(5) 1.3839(5)
H2 H 0.2142 0.3347 1.4530
C3 C 0.25874(18) 0.3656(4) 1.3839(4)
H3 H 0.2806 0.3707 1.4532
C4 C 0.26570(15) 0.3780(3) 1.2795(4)
H4 H 0.2923 0.3914 1.2771
C5 C 0.23218(13) 0.3702(3) 1.1779(4)
C6 C 0.23812(12) 0.3757(3) 1.0622(3)
C7 C 0.20558(12) 0.3535(3) 0.9622(4)
H5 H 0.1793 0.3392 0.9663
C8 C 0.21251(11) 0.3531(3) 0.8564(3)
C9 C 0.25213(12) 0.3758(3) 0.8548(4)
H6 H 0.2581 0.3757 0.7856
C10 C 0.28281(11) 0.3987(3) 0.9584(4)
C11 C 0.32607(12) 0.4242(3) 0.9613(4)
C12 C 0.35343(15) 0.4677(4) 1.0580(5)
H7 H 0.3454 0.4805 1.1225
C13 C 0.39222(17) 0.4917(5) 1.0573(7)
H8 H 0.4107 0.5231 1.1202
C14 C 0.40356(17) 0.4691(5) 0.9639(7)
H9 H 0.4304 0.4825 0.9632
C15 C 0.37525(18) 0.4264(5) 0.8704(6)
H10 H 0.3833 0.4119 0.8063
C16 C 0.17810(11) 0.3284(3) 0.7479(3)
C17 C 0.14857(13) 0.2593(3) 0.7496(4)
H11 H 0.1508 0.2275 0.8183
C18 C 0.11609(13) 0.2373(3) 0.6507(4)
H12 H 0.0966 0.1912 0.6536
C19 C 0.11221(11) 0.2834(3) 0.5470(3)
C20 C 0.14211(11) 0.3506(3) 0.5443(3)
H13 H 0.1403 0.3809 0.4749
C21 C 0.17456(12) 0.3732(3) 0.6433(3)
H14 H 0.1942 0.4188 0.6400
C22 C 0.07469(11) 0.2677(3) 0.4424(3)
C23 C 0.05487(13) 0.2868(3) 0.0656(3)
H15 H 0.0491 0.2213 0.0603
C24 C 0.08342(14) 0.3211(3) 0.0190(4)
H16 H 0.0972 0.2797 -0.0162
C25 C 0.09146(17) 0.4172(3) 0.0248(5)
H17 H 0.1105 0.4426 -0.0076
C26 C 0.07096(16) 0.4763(3) 0.0794(5)
H18 H 0.0761 0.5421 0.0843
C27 C 0.04281(11) 0.4371(2) 0.1265(3)
C28 C 0.02081(11) 0.4959(2) 0.1911(3)
C29 C 0.02153(11) 0.5950(2) 0.1904(3)
H19 H 0.0365 0.6270 0.1498
C30 C 0.0000 0.6475(3) 0.2500
C31 C 0.0000 0.7546(3) 0.2500
C32 C -0.01303(12) 0.8058(3) 0.3297(3)
H20 H -0.0217 0.7730 0.3842
C33 C -0.01318(13) 0.9052(3) 0.3286(4)
H21 H -0.0223 0.9384 0.3819
C34 C 0.0000 0.9558(3) 0.2500
C35 C 0.0000 1.0635(3) 0.2500
Eu1_2 Eu 0.0000 1.262326(15) 0.2500
N1A N -0.19343(12) 0.3540(4) -0.6772(4)
N2A N -0.27614(10) 0.3992(2) -0.5602(3)
N3A N -0.33610(11) 0.4045(3) -0.3671(4)
N4A N -0.03461(9) 0.34293(19) 0.3811(3)
O1A O -0.07325(9) 0.3072(3) 0.1511(3)
O2A O -0.04479(9) 0.2189(2) 0.0507(2)
O3A O 0.02537(8) 1.10697(17) 0.2119(2)
O3_2 O -0.02537(8) 0.10697(17) 0.2881(2)
O3A_2 O 0.02537(8) 0.10697(17) 0.2119(2)
C1A C -0.18729(19) 0.3423(6) -0.7790(5)
H1A H -0.1603 0.3312 -0.7797
C2A C -0.2195(2) 0.3458(5) -0.8839(5)
H2A H -0.2142 0.3347 -0.9530
C3A C -0.25874(18) 0.3656(4) -0.8839(4)
H3A H -0.2806 0.3707 -0.9532
C4A C -0.26570(15) 0.3780(3) -0.7795(4)
H4A H -0.2923 0.3914 -0.7771
C5A C -0.23218(13) 0.3702(3) -0.6779(4)
C6A C -0.23812(12) 0.3757(3) -0.5622(3)
C7A C -0.20558(12) 0.3535(3) -0.4622(4)
H5A H -0.1793 0.3392 -0.4663
C8A C -0.21251(11) 0.3531(3) -0.3564(3)
C9A C -0.25213(12) 0.3758(3) -0.3548(4)
H6A H -0.2581 0.3757 -0.2856
C10A C -0.28281(11) 0.3987(3) -0.4584(4)
C11A C -0.32607(12) 0.4242(3) -0.4613(4)
C12A C -0.35343(15) 0.4677(4) -0.5580(5)
H7A H -0.3454 0.4805 -0.6225
C13A C -0.39222(17) 0.4917(5) -0.5573(7)
H8A H -0.4107 0.5231 -0.6202
C14A C -0.40356(17) 0.4691(5) -0.4639(7)
H9A H -0.4304 0.4825 -0.4632
C15A C -0.37525(18) 0.4264(5) -0.3704(6)
H10A H -0.3833 0.4119 -0.3063
C16A C -0.17810(11) 0.3284(3) -0.2479(3)
C17A C -0.14857(13) 0.2593(3) -0.2496(4)
H11A H -0.1508 0.2275 -0.3183
C18A C -0.11609(13) 0.2373(3) -0.1507(4)
H12A H -0.0966 0.1912 -0.1536
C19A C -0.11221(11) 0.2834(3) -0.0470(3)
C20A C -0.14211(11) 0.3506(3) -0.0443(3)
H13A H -0.1403 0.3809 0.0251
C21A C -0.17456(12) 0.3732(3) -0.1433(3)
H14A H -0.1942 0.4188 -0.1400
C22A C -0.07469(11) 0.2677(3) 0.0576(3)
C23A C -0.05487(13) 0.2868(3) 0.4344(3)
H15A H -0.0491 0.2213 0.4397
C24A C -0.08342(14) 0.3211(3) 0.4810(4)
H16A H -0.0972 0.2797 0.5162
C25A C -0.09146(17) 0.4172(3) 0.4752(5)
H17A H -0.1105 0.4426 0.5076
C26A C -0.07096(16) 0.4763(3) 0.4206(5)
H18A H -0.0761 0.5421 0.4157
C27A C -0.04281(11) 0.4371(2) 0.3735(3)
C28A C -0.02081(11) 0.4959(2) 0.3089(3)
C29A C -0.02153(11) 0.5950(2) 0.3096(3)
H19A H -0.0365 0.6270 0.3502
C32A C 0.01303(12) 0.8058(3) 0.1703(3)
H20A H 0.0217 0.7730 0.1158
C33A C 0.01318(13) 0.9052(3) 0.1714(4)
H21A H 0.0223 0.9384 0.1181
loop_
_geom_bond_atom_site_label_1
_geom_bond_atom_site_label_2
_geom_bond_site_symmetry_1
_geom_bond_site_symmetry_2
Eu1 N4 1_555 1_555
N1 C1 1_555 1_555
N2 C6 1_555 1_555
N3 C11 1_555 1_555
N4 C23 1_555 1_555
N5 Eu1 1_555 1_555
O1 Eu1 1_555 1_555
O2 Eu1 1_555 1_555
O3 C35 1_555 1_555
C1 H1 1_555 1_555
C2 C1 1_555 1_555
H2 C2 1_555 1_555
C3 C2 1_555 1_555
H3 C3 1_555 1_555
C4 C3 1_555 1_555
H4 C4 1_555 1_555
C5 N1 1_555 1_555
C6 C5 1_555 1_555
C7 C6 1_555 1_555
H5 C7 1_555 1_555
C8 C7 1_555 1_555
C9 C8 1_555 1_555
H6 C9 1_555 1_555
C10 N2 1_555 1_555
C11 C10 1_555 1_555
C12 C11 1_555 1_555
H7 C12 1_555 1_555
C13 C12 1_555 1_555
H8 C13 1_555 1_555
C14 C13 1_555 1_555
H9 C14 1_555 1_555
C15 N3 1_555 1_555
H10 C15 1_555 1_555
C16 C8 1_555 1_555
C17 C16 1_555 1_555
H11 C17 1_555 1_555
C18 C17 1_555 1_555
H12 C18 1_555 1_555
C19 C18 1_555 1_555
C20 C19 1_555 1_555
H13 C20 1_555 1_555
C21 C16 1_555 1_555
H14 C21 1_555 1_555
C22 O1 1_555 1_555
C23 H15 1_555 1_555
C24 C23 1_555 1_555
H16 C24 1_555 1_555
C25 C24 1_555 1_555
H17 C25 1_555 1_555
C26 C25 1_555 1_555
H18 C26 1_555 1_555
C27 N4 1_555 1_555
C28 N5 1_555 1_555
C29 C28 1_555 1_555
H19 C29 1_555 1_555
C30 C29 1_555 1_555
C31 C30 1_555 1_555
C32 C31 1_555 1_555
H20 C32 1_555 1_555
C33 C32 1_555 1_555
H21 C33 1_555 1_555
C34 C33 1_555 1_555
C35 C34 1_555 1_555
Eu1_2 O3 1_555 1_555
N1A C1A 1_555 1_555
N2A C6A 1_555 1_555
N3A C11A 1_555 1_555
N4A Eu1 1_555 1_555
O1A Eu1 1_555 1_555
O2A Eu1 1_555 1_555
O3A C35 1_555 1_555
O3_2 Eu1 1_555 1_555
O3A_2 Eu1 1_555 1_555
C1A H1A 1_555 1_555
C2A C1A 1_555 1_555
H2A C2A 1_555 1_555
C3A C2A 1_555 1_555
H3A C3A 1_555 1_555
C4A C3A 1_555 1_555
H4A C4A 1_555 1_555
C5A N1A 1_555 1_555
C6A C5A 1_555 1_555
C7A C6A 1_555 1_555
H5A C7A 1_555 1_555
C8A C7A 1_555 1_555
C9A C8A 1_555 1_555
H6A C9A 1_555 1_555
C10A N2A 1_555 1_555
C11A C10A 1_555 1_555
C12A C11A 1_555 1_555
H7A C12A 1_555 1_555
C13A C12A 1_555 1_555
H8A C13A 1_555 1_555
C14A C13A 1_555 1_555
H9A C14A 1_555 1_555
C15A N3A 1_555 1_555
H10A C15A 1_555 1_555
C16A C8A 1_555 1_555
C17A C16A 1_555 1_555
H11A C17A 1_555 1_555
C18A C17A 1_555 1_555
H12A C18A 1_555 1_555
C19A C18A 1_555 1_555
C20A C19A 1_555 1_555
H13A C20A 1_555 1_555
C21A C16A 1_555 1_555
H14A C21A 1_555 1_555
C22A O1A 1_555 1_555
C23A N4A 1_555 1_555
H15A C23A 1_555 1_555
C24A C23A 1_555 1_555
H16A C24A 1_555 1_555
C25A C24A 1_555 1_555
H17A C25A 1_555 1_555
C26A C25A 1_555 1_555
H18A C26A 1_555 1_555
C27A N4A 1_555 1_555
C28A N5 1_555 1_555
C29A C30 1_555 1_555
H19A C29A 1_555 1_555
C32A C31 1_555 1_555
H20A C32A 1_555 1_555
C33A C34 1_555 1_555
H21A C33A 1_555 1_555
O2 C22 1_555 1_555
C4 C5 1_555 1_555
C9 C10 1_555 1_555
C14 C15 1_555 1_555
C19 C22 1_555 1_555
C20 C21 1_555 1_555
C26 C27 1_555 1_555
C27 C28 1_555 1_555
Eu1_2 O3A 1_555 1_555
O2A C22A 1_555 1_555
C4A C5A 1_555 1_555
C9A C10A 1_555 1_555
C14A C15A 1_555 1_555
C19A C22A 1_555 1_555
C20A C21A 1_555 1_555
C26A C27A 1_555 1_555
C27A C28A 1_555 1_555
C28A C29A 1_555 1_555
C32A C33A 1_555 1_555

#END
