
#######################################################################
#
#                 Cambridge Crystallographic Data Centre
#                                CCDC 
#
#######################################################################
#
# If this CIF has been generated from an entry in the Cambridge 
# Structural Database, then it will include bibliographic, chemical, 
# crystal, experimental, refinement or atomic coordinate data resulting 
# from the CCDC's data processing and validation procedures.
#
#######################################################################

data_ATIZOT
_symmetry_cell_setting           monoclinic
_symmetry_space_group_name_H-M   'C 2/c'
_symmetry_Int_Tables_number      15
_space_group_name_Hall           '-C 2yn'
loop_
_symmetry_equiv_pos_site_id
_symmetry_equiv_pos_as_xyz
1 x,y,z
2 -x,y,1/2-z
3 1/2+x,1/2+y,z
4 1/2-x,1/2+y,1/2-z
5 -x,-y,-z
6 x,-y,1/2+z
7 1/2-x,1/2-y,-z
8 1/2+x,1/2-y,1/2+z
_cell_length_a                   33.791(12)
_cell_length_b                   13.803(5)
_cell_length_c                   12.247(4)
_cell_angle_alpha                90
_cell_angle_beta                 109.061(6)
_cell_angle_gamma                90
_cell_volume                     5399.02
loop_
_atom_site_label
_atom_site_type_symbol
_atom_site_fract_x
_atom_site_fract_y
_atom_site_fract_z
Tb1 Tb 0.0000 0.764537(19) -0.2500
N1 N 0.33589(13) 0.9058(4) 0.3691(4)
N2 N 0.27545(11) 0.8995(3) 0.5603(3)
N3 N 0.19256(14) 0.8547(4) 0.6761(4)
N4 N -0.03416(10) 0.8429(2) -0.1196(3)
N5 N 0.0000 0.9463(3) -0.2500
O1 O 0.07248(10) 0.8099(3) -0.1508(3)
O2 O 0.04431(10) 0.7193(2) -0.0525(3)
O3 O 0.02585(9) 1.6104(2) -0.2864(3)
C1 C 0.1861(2) 0.8434(6) 0.7766(6)
H1 H 0.1590 0.8330 0.7769
C2 C 0.2186(2) 0.8466(5) 0.8815(5)
H2 H 0.2134 0.8364 0.9506
C3 C 0.2580(2) 0.8649(4) 0.8809(5)
H3 H 0.2800 0.8689 0.9502
C4 C 0.26517(16) 0.8774(4) 0.7785(4)
H4 H 0.2920 0.8905 0.7769
C5 C 0.23109(15) 0.8700(3) 0.6752(4)
C6 C 0.23740(14) 0.8761(3) 0.5615(4)
C7 C 0.20479(13) 0.8532(3) 0.4612(4)
H5 H 0.1784 0.8380 0.4647
C8 C 0.21191(13) 0.8533(3) 0.3563(4)
C9 C 0.25142(13) 0.8762(3) 0.3551(4)
H6 H 0.2574 0.8766 0.2862
C10 C 0.28237(13) 0.8989(3) 0.4598(4)
C11 C 0.32572(14) 0.9251(4) 0.4623(5)
C12 C 0.35287(17) 0.9684(5) 0.5597(5)
H7 H 0.3447 0.9800 0.6241
C13 C 0.3919(2) 0.9937(6) 0.5594(7)
H8 H 0.4104 1.0260 0.6219
C14 C 0.40295(19) 0.9706(6) 0.4660(8)
H9 H 0.4298 0.9843 0.4656
C15 C 0.3749(2) 0.9274(5) 0.3725(6)
H10 H 0.3831 0.9125 0.3090
C16 C 0.17741(12) 0.8281(3) 0.2468(4)
C17 C 0.14808(14) 0.7590(3) 0.2480(4)
H11 H 0.1503 0.7271 0.3166
C18 C 0.11560(13) 0.7365(3) 0.1494(4)
H12 H 0.0962 0.6892 0.1513
C19 C 0.11181(12) 0.7849(3) 0.0464(3)
C20 C 0.14172(13) 0.8512(3) 0.0445(4)
H13 H 0.1401 0.8818 -0.0245
C21 C 0.17435(13) 0.8732(3) 0.1439(4)
H14 H 0.1943 0.9188 0.1413
C22 C 0.07394(13) 0.7684(3) -0.0587(4)
C23 C -0.05470(15) 0.7860(3) -0.0667(4)
H15 H -0.0494 0.7198 -0.0636
C24 C -0.08269(15) 0.8197(3) -0.0177(4)
H16 H -0.0964 0.7777 0.0173
C25 C -0.09010(17) 0.9162(4) -0.0211(5)
H17 H -0.1087 0.9421 0.0129
C26 C -0.06953(17) 0.9759(3) -0.0762(5)
H18 H -0.0740 1.0424 -0.0790
C27 C -0.04250(12) 0.9363(3) -0.1264(3)
C28 C -0.02066(12) 0.9965(3) -0.1905(3)
C29 C -0.02149(13) 1.0963(3) -0.1907(4)
H19 H -0.0366 1.1286 -0.1507
C30 C 0.0000 1.1491(4) -0.2500
C31 C 0.0000 1.2563(4) -0.2500
C32 C -0.01284(14) 1.3084(3) -0.1712(4)
H20 H -0.0215 1.2753 -0.1168
C33 C -0.01314(14) 1.4075(3) -0.1715(4)
H21 H -0.0223 1.4407 -0.1181
C34 C 0.0000 1.4587(4) -0.2500
C35 C 0.0000 1.5670(4) -0.2500
Tb1_2 Tb 0.0000 1.764537(19) -0.2500
N1A N -0.33589(13) 0.9058(4) -0.8691(4)
N2A N -0.27545(11) 0.8995(3) -1.0603(3)
N3A N -0.19256(14) 0.8547(4) -1.1761(4)
N4A N 0.03416(10) 0.8429(2) -0.3804(3)
O1A O -0.07248(10) 0.8099(3) -0.3492(3)
O2A O -0.04431(10) 0.7193(2) -0.4475(3)
O3A O -0.02585(9) 1.6104(2) -0.2136(3)
O3_2 O 0.02585(9) 0.6104(2) -0.2864(3)
O3A_2 O -0.02585(9) 0.6104(2) -0.2136(3)
C1A C -0.1861(2) 0.8434(6) -1.2766(6)
H1A H -0.1590 0.8330 -1.2769
C2A C -0.2186(2) 0.8466(5) -1.3815(5)
H2A H -0.2134 0.8364 -1.4506
C3A C -0.2580(2) 0.8649(4) -1.3809(5)
H3A H -0.2800 0.8689 -1.4502
C4A C -0.26517(16) 0.8774(4) -1.2785(4)
H4A H -0.2920 0.8905 -1.2769
C5A C -0.23109(15) 0.8700(3) -1.1752(4)
C6A C -0.23740(14) 0.8761(3) -1.0615(4)
C7A C -0.20479(13) 0.8532(3) -0.9612(4)
H5A H -0.1784 0.8380 -0.9647
C8A C -0.21191(13) 0.8533(3) -0.8563(4)
C9A C -0.25142(13) 0.8762(3) -0.8551(4)
H6A H -0.2574 0.8766 -0.7862
C10A C -0.28237(13) 0.8989(3) -0.9598(4)
C11A C -0.32572(14) 0.9251(4) -0.9623(5)
C12A C -0.35287(17) 0.9684(5) -1.0597(5)
H7A H -0.3447 0.9800 -1.1241
C13A C -0.3919(2) 0.9937(6) -1.0594(7)
H8A H -0.4104 1.0260 -1.1219
C14A C -0.40295(19) 0.9706(6) -0.9660(8)
H9A H -0.4298 0.9843 -0.9656
C15A C -0.3749(2) 0.9274(5) -0.8725(6)
H10A H -0.3831 0.9125 -0.8090
C16A C -0.17741(12) 0.8281(3) -0.7468(4)
C17A C -0.14808(14) 0.7590(3) -0.7480(4)
H11A H -0.1503 0.7271 -0.8166
C18A C -0.11560(13) 0.7365(3) -0.6494(4)
H12A H -0.0962 0.6892 -0.6513
C19A C -0.11181(12) 0.7849(3) -0.5464(3)
C20A C -0.14172(13) 0.8512(3) -0.5445(4)
H13A H -0.1401 0.8818 -0.4755
C21A C -0.17435(13) 0.8732(3) -0.6439(4)
H14A H -0.1943 0.9188 -0.6413
C22A C -0.07394(13) 0.7684(3) -0.4413(4)
C23A C 0.05470(15) 0.7860(3) -0.4333(4)
H15A H 0.0494 0.7198 -0.4364
C24A C 0.08269(15) 0.8197(3) -0.4823(4)
H16A H 0.0964 0.7777 -0.5173
C25A C 0.09010(17) 0.9162(4) -0.4789(5)
H17A H 0.1087 0.9421 -0.5129
C26A C 0.06953(17) 0.9759(3) -0.4238(5)
H18A H 0.0740 1.0424 -0.4210
C27A C 0.04250(12) 0.9363(3) -0.3736(3)
C28A C 0.02066(12) 0.9965(3) -0.3095(3)
C29A C 0.02149(13) 1.0963(3) -0.3093(4)
H19A H 0.0366 1.1286 -0.3493
C32A C 0.01284(14) 1.3084(3) -0.3288(4)
H20A H 0.0215 1.2753 -0.3832
C33A C 0.01314(14) 1.4075(3) -0.3285(4)
H21A H 0.0223 1.4407 -0.3819
loop_
_geom_bond_atom_site_label_1
_geom_bond_atom_site_label_2
_geom_bond_site_symmetry_1
_geom_bond_site_symmetry_2
Tb1 N4 1_555 1_555
N1 C11 1_555 1_555
N2 C6 1_555 1_555
N3 C1 1_555 1_555
N4 C23 1_555 1_555
N5 Tb1 1_555 1_555
O1 Tb1 1_555 1_555
O2 Tb1 1_555 1_555
O3 C35 1_555 1_555
C1 H1 1_555 1_555
C2 C1 1_555 1_555
H2 C2 1_555 1_555
C3 C2 1_555 1_555
H3 C3 1_555 1_555
C4 C3 1_555 1_555
H4 C4 1_555 1_555
C5 N3 1_555 1_555
C6 C5 1_555 1_555
C7 C6 1_555 1_555
H5 C7 1_555 1_555
C8 C7 1_555 1_555
C9 C8 1_555 1_555
H6 C9 1_555 1_555
C10 N2 1_555 1_555
C11 C10 1_555 1_555
C12 C11 1_555 1_555
H7 C12 1_555 1_555
C13 C12 1_555 1_555
H8 C13 1_555 1_555
C14 C13 1_555 1_555
H9 C14 1_555 1_555
C15 N1 1_555 1_555
H10 C15 1_555 1_555
C16 C8 1_555 1_555
C17 C16 1_555 1_555
H11 C17 1_555 1_555
C18 C17 1_555 1_555
H12 C18 1_555 1_555
C19 C18 1_555 1_555
C20 C19 1_555 1_555
H13 C20 1_555 1_555
C21 C16 1_555 1_555
H14 C21 1_555 1_555
C22 O1 1_555 1_555
C23 H15 1_555 1_555
C24 C23 1_555 1_555
H16 C24 1_555 1_555
C25 C24 1_555 1_555
H17 C25 1_555 1_555
C26 C25 1_555 1_555
H18 C26 1_555 1_555
C27 N4 1_555 1_555
C28 N5 1_555 1_555
C29 C28 1_555 1_555
H19 C29 1_555 1_555
C30 C29 1_555 1_555
C31 C30 1_555 1_555
C32 C31 1_555 1_555
H20 C32 1_555 1_555
C33 C32 1_555 1_555
H21 C33 1_555 1_555
C34 C33 1_555 1_555
C35 C34 1_555 1_555
Tb1_2 O3 1_555 1_555
N1A C11A 1_555 1_555
N2A C6A 1_555 1_555
N3A C1A 1_555 1_555
N4A Tb1 1_555 1_555
O1A Tb1 1_555 1_555
O2A Tb1 1_555 1_555
O3A C35 1_555 1_555
O3_2 Tb1 1_555 1_555
O3A_2 Tb1 1_555 1_555
C1A H1A 1_555 1_555
C2A C1A 1_555 1_555
H2A C2A 1_555 1_555
C3A C2A 1_555 1_555
H3A C3A 1_555 1_555
C4A C3A 1_555 1_555
H4A C4A 1_555 1_555
C5A N3A 1_555 1_555
C6A C5A 1_555 1_555
C7A C6A 1_555 1_555
H5A C7A 1_555 1_555
C8A C7A 1_555 1_555
C9A C8A 1_555 1_555
H6A C9A 1_555 1_555
C10A N2A 1_555 1_555
C11A C10A 1_555 1_555
C12A C11A 1_555 1_555
H7A C12A 1_555 1_555
C13A C12A 1_555 1_555
H8A C13A 1_555 1_555
C14A C13A 1_555 1_555
H9A C14A 1_555 1_555
C15A N1A 1_555 1_555
H10A C15A 1_555 1_555
C16A C8A 1_555 1_555
C17A C16A 1_555 1_555
H11A C17A 1_555 1_555
C18A C17A 1_555 1_555
H12A C18A 1_555 1_555
C19A C18A 1_555 1_555
C20A C19A 1_555 1_555
H13A C20A 1_555 1_555
C21A C16A 1_555 1_555
H14A C21A 1_555 1_555
C22A O1A 1_555 1_555
C23A N4A 1_555 1_555
H15A C23A 1_555 1_555
C24A C23A 1_555 1_555
H16A C24A 1_555 1_555
C25A C24A 1_555 1_555
H17A C25A 1_555 1_555
C26A C25A 1_555 1_555
H18A C26A 1_555 1_555
C27A N4A 1_555 1_555
C28A N5 1_555 1_555
C29A C30 1_555 1_555
H19A C29A 1_555 1_555
C32A C31 1_555 1_555
H20A C32A 1_555 1_555
C33A C34 1_555 1_555
H21A C33A 1_555 1_555
O2 C22 1_555 1_555
C4 C5 1_555 1_555
C9 C10 1_555 1_555
C14 C15 1_555 1_555
C19 C22 1_555 1_555
C20 C21 1_555 1_555
C26 C27 1_555 1_555
C27 C28 1_555 1_555
Tb1_2 O3A 1_555 1_555
O2A C22A 1_555 1_555
C4A C5A 1_555 1_555
C9A C10A 1_555 1_555
C14A C15A 1_555 1_555
C19A C22A 1_555 1_555
C20A C21A 1_555 1_555
C26A C27A 1_555 1_555
C27A C28A 1_555 1_555
C28A C29A 1_555 1_555
C32A C33A 1_555 1_555

#END
