
#######################################################################
#
#                 Cambridge Crystallographic Data Centre
#                                CCDC 
#
#######################################################################
#
# If this CIF has been generated from an entry in the Cambridge 
# Structural Database, then it will include bibliographic, chemical, 
# crystal, experimental, refinement or atomic coordinate data resulting 
# from the CCDC's data processing and validation procedures.
#
#######################################################################

data_ATOBAN
_symmetry_cell_setting           monoclinic
_symmetry_space_group_name_H-M   'C 2/c'
_symmetry_Int_Tables_number      15
_space_group_name_Hall           '-C 2yn'
loop_
_symmetry_equiv_pos_site_id
_symmetry_equiv_pos_as_xyz
1 x,y,z
2 -x,y,1/2-z
3 1/2+x,1/2+y,z
4 1/2-x,1/2+y,1/2-z
5 -x,-y,-z
6 x,-y,1/2+z
7 1/2-x,1/2-y,-z
8 1/2+x,1/2-y,1/2+z
_cell_length_a                   18.665(5)
_cell_length_b                   12.754(3)
_cell_length_c                   15.798(4)
_cell_angle_alpha                90
_cell_angle_beta                 112.512(4)
_cell_angle_gamma                90
_cell_volume                     3474.19
loop_
_atom_site_label
_atom_site_type_symbol
_atom_site_fract_x
_atom_site_fract_y
_atom_site_fract_z
Cu1 Cu 0.319362(17) 0.19083(3) 0.03271(2)
N1 N 0.42707(14) 0.18423(19) 0.03842(17)
N2 N 0.69310(15) 0.18638(18) 0.0170(2)
C1 C 0.70142(18) 0.2987(2) 0.0380(3)
H1 H 0.7375 0.3090 0.1007
H2 H 0.6517 0.3276 0.0320
C2 C 0.44815(18) 0.1699(3) -0.0326(2)
H3 H 0.4100 0.1707 -0.0915
C3 C 0.4835(2) 0.1845(4) 0.1214(2)
H4 H 0.4702 0.1949 0.1717
C4 C 0.5603(2) 0.1703(4) 0.1367(3)
H5 H 0.5975 0.1723 0.1961
C5 C 0.52375(19) 0.1540(4) -0.0221(2)
H6 H 0.5357 0.1437 -0.0734
C6 C 0.58239(17) 0.1533(3) 0.0642(2)
C7 C 0.66567(18) 0.1313(3) 0.0798(3)
H7 H 0.6980 0.1508 0.1421
H8 H 0.6718 0.0565 0.0737
C8 C 0.76920(17) 0.1449(2) 0.0265(3)
H9 H 0.7649 0.0705 0.0127
H10 H 0.8057 0.1540 0.0891
O1 O 0.32851(12) 0.05749(19) 0.15872(16)
O2 O 0.22989(11) 0.14155(16) 0.05713(13)
C9 C 0.25864(16) 0.0798(2) 0.12583(19)
O3 O 0.15600(11) -0.20449(15) 0.36722(13)
O4 O 0.27499(10) -0.13219(15) 0.40900(13)
C10 C 0.17730(15) -0.0760(2) 0.27182(18)
C11 C 0.22941(15) -0.0320(2) 0.23878(17)
H11 H 0.2820 -0.0470 0.2670
C12 C 0.20299(16) 0.0344(2) 0.16362(19)
C13 C 0.12433(18) 0.0576(3) 0.1220(2)
H12 H 0.1071 0.1028 0.0721
C14 C 0.07120(18) 0.0145(3) 0.1538(2)
C15 C 0.20438(15) -0.1435(2) 0.35550(17)
C16 C 0.09825(16) -0.0542(3) 0.2277(2)
H13 H 0.0631 -0.0862 0.2482
C17 C -0.0137(2) 0.0425(5) 0.1096(3)
H14 H -0.0244 0.0718 0.0500
H15 H -0.0262 0.0930 0.1469
H16 H -0.0445 -0.0194 0.1037
Cu1F Cu 1.180638(17) 0.30917(3) -0.03271(2)
Cu1F_2 Cu 0.180638(17) 0.30917(3) -0.03271(2)
Cu1C Cu 0.180638(17) -0.30917(3) 0.46729(2)
Cu1E Cu 0.319362(17) -0.19083(3) 0.53271(2)
Cu1C_2 Cu 0.180638(17) 0.69083(3) 0.46729(2)
Cu1E_2 Cu 0.319362(17) 0.80917(3) 0.53271(2)
Cu1_2 Cu 1.319362(17) 0.19083(3) 0.03271(2)
N1F N 1.07293(14) 0.31577(19) -0.03842(17)
N2F N 0.80690(15) 0.31362(18) -0.0170(2)
C1F C 0.79858(18) 0.2013(2) -0.0380(3)
H1F H 0.7625 0.1910 -0.1007
H2F H 0.8483 0.1724 -0.0320
C2F C 1.05185(18) 0.3301(3) 0.0326(2)
H3F H 1.0900 0.3293 0.0915
C3F C 1.0165(2) 0.3155(4) -0.1214(2)
H4F H 1.0298 0.3051 -0.1717
C4F C 0.9397(2) 0.3297(4) -0.1367(3)
H5F H 0.9025 0.3277 -0.1961
C5F C 0.97625(19) 0.3460(4) 0.0221(2)
H6F H 0.9643 0.3563 0.0734
C6F C 0.91761(17) 0.3467(3) -0.0642(2)
C7F C 0.83433(18) 0.3687(3) -0.0798(3)
H7F H 0.8020 0.3492 -0.1421
H8F H 0.8282 0.4435 -0.0737
C8F C 0.73080(17) 0.3551(2) -0.0265(3)
H9F H 0.7351 0.4295 -0.0127
H10F H 0.6943 0.3460 -0.0891
O1C O 0.17149(12) 0.55749(19) 0.34128(16)
O2C O 0.27011(11) 0.64155(16) 0.44287(13)
O2F O 0.27011(11) 0.35845(16) -0.05713(13)
O2F_2 O 1.27011(11) 0.35845(16) -0.05713(13)
O2_2 O 1.22989(11) 0.14155(16) 0.05713(13)
C9C C 0.24136(16) 0.5798(2) 0.37417(19)
O3C O 0.34400(11) 0.29551(15) 0.13278(13)
O3E O 1.15600(11) 0.20449(15) -0.13278(13)
O4C O 0.22501(10) 0.36781(15) 0.09100(13)
O4E O 0.27499(10) 0.13219(15) -0.09100(13)
O4C_2 O 1.22501(10) 0.36781(15) 0.09100(13)
C10C C 0.32270(15) 0.4240(2) 0.22818(18)
C11C C 0.27059(15) 0.4680(2) 0.26122(17)
H11C H 0.2180 0.4530 0.2330
C12C C 0.29701(16) 0.5344(2) 0.33638(19)
C13C C 0.37567(18) 0.5576(3) 0.3780(2)
H12C H 0.3929 0.6028 0.4279
C14C C 0.42880(18) 0.5145(3) 0.3462(2)
C15C C 0.29562(15) 0.3565(2) 0.14450(17)
C16C C 0.40175(16) 0.4458(3) 0.2723(2)
H13C H 0.4369 0.4138 0.2518
C17C C 0.5137(2) 0.5425(5) 0.3904(3)
H14C H 0.5244 0.5718 0.4500
H15C H 0.5262 0.5930 0.3531
H16C H 0.5445 0.4806 0.3963
O5 O 0.4114(4) -0.1349(6) 0.2168(5)
H17 H 0.4280 -0.1101 0.2708
H18 H 0.4160 -0.2012 0.2167
loop_
_geom_bond_atom_site_label_1
_geom_bond_atom_site_label_2
_geom_bond_site_symmetry_1
_geom_bond_site_symmetry_2
Cu1 N1 1_555 1_555
N1 C2 1_555 1_555
N2 C1 1_555 1_555
C1 H1 1_555 1_555
H2 C1 1_555 1_555
C2 H3 1_555 1_555
C3 N1 1_555 1_555
H4 C3 1_555 1_555
C4 C3 1_555 1_555
H5 C4 1_555 1_555
C5 C2 1_555 1_555
H6 C5 1_555 1_555
C6 C4 1_555 1_555
C7 N2 1_555 1_555
H7 C7 1_555 1_555
H8 C7 1_555 1_555
C8 N2 1_555 1_555
H9 C8 1_555 1_555
H10 C8 1_555 1_555
O1 C9 1_555 1_555
O2 Cu1 1_555 1_555
C9 O2 1_555 1_555
O3 C15 1_555 1_555
O4 C15 1_555 1_555
C10 C11 1_555 1_555
C11 H11 1_555 1_555
C12 C9 1_555 1_555
C13 C12 1_555 1_555
H12 C13 1_555 1_555
C14 C13 1_555 1_555
C15 C10 1_555 1_555
C16 C10 1_555 1_555
H13 C16 1_555 1_555
C17 C14 1_555 1_555
H14 C17 1_555 1_555
H15 C17 1_555 1_555
H16 C17 1_555 1_555
O5 H17 1_555 1_555
H18 O5 1_555 1_555
Cu1F Cu1_2 1_555 1_555
Cu1F_2 Cu1 1_555 1_555
Cu1C O3 1_555 1_555
Cu1E O4 1_555 1_555
Cu1C_2 Cu1E_2 1_555 1_555
Cu1E_2 O2C 1_555 1_555
Cu1_2 O2F_2 1_555 1_555
N1F Cu1F 1_555 1_555
N2F C1F 1_555 1_555
C1F C8 1_555 1_555
H1F C1F 1_555 1_555
H2F C1F 1_555 1_555
C2F N1F 1_555 1_555
H3F C2F 1_555 1_555
C3F N1F 1_555 1_555
H4F C3F 1_555 1_555
C4F C3F 1_555 1_555
H5F C4F 1_555 1_555
C5F C2F 1_555 1_555
H6F C5F 1_555 1_555
C6F C4F 1_555 1_555
C7F N2F 1_555 1_555
H7F C7F 1_555 1_555
H8F C7F 1_555 1_555
C8F C1 1_555 1_555
H9F C8F 1_555 1_555
H10F C8F 1_555 1_555
O1C C9C 1_555 1_555
O2C Cu1C_2 1_555 1_555
O2F Cu1 1_555 1_555
O2F_2 Cu1F 1_555 1_555
O2_2 Cu1F 1_555 1_555
C9C O2C 1_555 1_555
O3C Cu1 1_555 1_555
O3E Cu1F 1_555 1_555
O4C Cu1F_2 1_555 1_555
O4E Cu1 1_555 1_555
O4C_2 Cu1F 1_555 1_555
C10C C11C 1_555 1_555
C11C H11C 1_555 1_555
C12C C9C 1_555 1_555
C13C C12C 1_555 1_555
H12C C13C 1_555 1_555
C14C C13C 1_555 1_555
C15C O3C 1_555 1_555
C16C C10C 1_555 1_555
H13C C16C 1_555 1_555
C17C C14C 1_555 1_555
H14C C17C 1_555 1_555
H15C C17C 1_555 1_555
H16C C17C 1_555 1_555
C5 C6 1_555 1_555
C6 C7 1_555 1_555
O2 Cu1F_2 1_555 1_555
C11 C12 1_555 1_555
C14 C16 1_555 1_555
Cu1F_2 O2F 1_555 1_555
Cu1C Cu1E 1_555 1_555
Cu1_2 O2_2 1_555 1_555
N2F C8F 1_555 1_555
C5F C6F 1_555 1_555
C6F C7F 1_555 1_555
O4C C15C 1_555 1_555
C10C C15C 1_555 1_555
C11C C12C 1_555 1_555
C14C C16C 1_555 1_555

#END
