
#######################################################################
#
#                 Cambridge Crystallographic Data Centre
#                                CCDC 
#
#######################################################################
#
# If this CIF has been generated from an entry in the Cambridge 
# Structural Database, then it will include bibliographic, chemical, 
# crystal, experimental, refinement or atomic coordinate data resulting 
# from the CCDC's data processing and validation procedures.
#
#######################################################################

data_ATODAO
_symmetry_cell_setting           triclinic
_symmetry_space_group_name_H-M   'P -1'
_symmetry_Int_Tables_number      2
_space_group_name_Hall           '-P 1'
loop_
_symmetry_equiv_pos_site_id
_symmetry_equiv_pos_as_xyz
1 x,y,z
2 -x,-y,-z
_cell_length_a                   5.3632(11)
_cell_length_b                   5.9848(14)
_cell_length_c                   6.4997(16)
_cell_angle_alpha                70.584(8)
_cell_angle_beta                 85.498(9)
_cell_angle_gamma                78.176(12)
_cell_volume                     192.574
loop_
_atom_site_label
_atom_site_type_symbol
_atom_site_fract_x
_atom_site_fract_y
_atom_site_fract_z
Ni1 Ni 0.0000 0.0000 0.0000
O1 O 0.3348(6) -0.1375(6) -0.1306(6)
O2 O 0.7520(6) -0.1363(6) -0.1323(6)
N1 N 0.0504(8) -0.3317(8) 0.2793(7)
C1 C 0.5256(9) -0.0788(9) -0.0763(9)
C2 C -0.1559(10) -0.4732(10) 0.3229(10)
H1 H -0.1795 -0.5133 0.1938
H2 H -0.3135 -0.3739 0.3506
C3 C 0.1036(10) -0.2966(9) 0.4855(9)
H3 H -0.0412 -0.1888 0.5216
H4 H 0.2498 -0.2185 0.4625
H5 H 0.206(11) -0.447(11) 0.255(11)
C1A C 0.4744(9) 0.0788(9) 0.0763(9)
O1A O 0.6652(6) 0.1375(6) 0.1306(6)
O2A O 0.2480(6) 0.1363(6) 0.1323(6)
C3A C -0.1036(10) -0.7034(9) 0.5145(9)
N1A N -0.0504(8) -0.6683(8) 0.7207(7)
C2A C 0.1559(10) -0.5268(10) 0.6771(10)
H1A H 0.1795 -0.4867 0.8062
H2A H 0.3135 -0.6261 0.6494
H5A H -0.206(11) -0.553(11) 0.745(11)
H3A H 0.0412 -0.8112 0.4784
H4A H -0.2498 -0.7815 0.5375
O1A_2 O -0.3348(6) 0.1375(6) 0.1306(6)
O2_2 O -0.2480(6) -0.1363(6) -0.1323(6)
N1A_2 N -0.0504(8) 0.3317(8) -0.2793(7)
Ni1_2 Ni 1.0000 0.0000 0.0000
Ni1_3 Ni 0.0000 -1.0000 1.0000
H5A_2 H -0.206(11) 0.447(11) -0.255(11)
loop_
_geom_bond_atom_site_label_1
_geom_bond_atom_site_label_2
_geom_bond_site_symmetry_1
_geom_bond_site_symmetry_2
Ni1 O1 1_555 1_555
O1 C1 1_555 1_555
O2 C1 1_555 1_555
N1 Ni1 1_555 1_555
C1 C1A 1_555 1_555
C2 N1 1_555 1_555
H1 C2 1_555 1_555
H2 C2 1_555 1_555
C3 N1 1_555 1_555
H3 C3 1_555 1_555
H4 C3 1_555 1_555
H5 N1 1_555 1_555
C1A O1A 1_555 1_555
O1A Ni1_2 1_555 1_555
O2A Ni1 1_555 1_555
C3A C2 1_555 1_555
N1A C3A 1_555 1_555
C2A C3 1_555 1_555
H1A C2A 1_555 1_555
H2A C2A 1_555 1_555
H5A N1A 1_555 1_555
H3A C3A 1_555 1_555
H4A C3A 1_555 1_555
O1A_2 Ni1 1_555 1_555
O2_2 Ni1 1_555 1_555
N1A_2 Ni1 1_555 1_555
Ni1_2 O2 1_555 1_555
Ni1_3 N1A 1_555 1_555
H5A_2 N1A_2 1_555 1_555
C1A O2A 1_555 1_555
N1A C2A 1_555 1_555

#END
