
#######################################################################
#
#                 Cambridge Crystallographic Data Centre
#                                CCDC 
#
#######################################################################
#
# If this CIF has been generated from an entry in the Cambridge 
# Structural Database, then it will include bibliographic, chemical, 
# crystal, experimental, refinement or atomic coordinate data resulting 
# from the CCDC's data processing and validation procedures.
#
#######################################################################

data_ATOKIE
_symmetry_cell_setting           triclinic
_symmetry_space_group_name_H-M   'P -1'
_symmetry_Int_Tables_number      2
_space_group_name_Hall           '-P 1'
loop_
_symmetry_equiv_pos_site_id
_symmetry_equiv_pos_as_xyz
1 x,y,z
2 -x,-y,-z
_cell_length_a                   9.647(5)
_cell_length_b                   9.884(5)
_cell_length_c                   10.623(5)
_cell_angle_alpha                112.441(5)
_cell_angle_beta                 92.153(7)
_cell_angle_gamma                107.869(6)
_cell_volume                     877.16
loop_
_atom_site_label
_atom_site_type_symbol
_atom_site_fract_x
_atom_site_fract_y
_atom_site_fract_z
O1 O 0.8473(15) 0.6551(14) 0.3788(14)
Co1 Co 0.63232(6) 0.12982(6) 0.41074(5)
O2 O 0.7107(4) 0.2871(4) 0.3077(3)
O3 O 0.8668(4) 0.2342(4) 0.4152(3)
O4 O 0.5825(3) -0.0977(4) -0.3430(3)
O5 O 0.6626(6) 0.0024(4) -0.4898(3)
N1 N 0.6362(4) -0.6777(4) -0.4019(3)
N2 N 0.6237(3) -0.0645(3) 0.2209(3)
C1 C 0.8409(6) 0.2992(5) 0.3415(4)
C2 C 0.9647(8) 0.3934(8) 0.2948(6)
H1 H 0.9887 0.5028 0.3520
H2 H 1.0508 0.3665 0.3067
C3 C 0.9261(7) 0.3617(7) 0.1426(5)
H3 H 0.9996 0.4392 0.1225
H4 H 0.8311 0.3726 0.1274
C4 C 0.9211(6) 0.2017(7) 0.0452(5)
H5 H 1.0169 0.1921 0.0601
H6 H 0.8495 0.1249 0.0679
C5 C 0.8793(5) 0.1640(6) -0.1065(5)
H7 H 0.9489 0.2427 -0.1285
H8 H 0.7820 0.1698 -0.1221
C6 C 0.8779(6) 0.0063(7) -0.2036(5)
H9 H 0.9748 -0.0001 -0.1874
H10 H 0.8073 -0.0726 -0.1826
C7 C 0.8367(6) -0.0302(7) -0.3550(5)
H11 H 0.9055 0.0508 -0.3750
H12 H 0.8495 -0.1280 -0.4102
C8 C 0.6835(6) -0.0424(5) -0.3984(4)
C9 C 0.5434(4) -0.0972(4) 0.1005(4)
H13 H 0.4855 -0.0372 0.1008
C10 C 0.5420(4) -0.2140(4) -0.0233(4)
H14 H 0.4848 -0.2306 -0.1038
C11 C 0.6258(4) -0.3062(4) -0.0272(4)
C12 C 0.7085(5) -0.2727(5) 0.0979(4)
H15 H 0.7650 -0.3326 0.1011
C13 C 0.7049(5) -0.1526(5) 0.2166(4)
H16 H 0.7625 -0.1319 0.2984
C14 C 0.6284(4) -0.4347(4) -0.1571(4)
C15 C 0.6714(6) -0.5527(5) -0.1565(4)
H17 H 0.6996 -0.5548 -0.0732
C16 C 0.6744(5) -0.6695(5) -0.2789(4)
H18 H 0.7050 -0.7477 -0.2735
C17 C 0.6054(8) -0.5572(6) -0.4026(5)
H19 H 0.5429 -0.5783 -0.4817
C18 C 0.5969(7) -0.4366(6) -0.2858(4)
H20 H 0.5323 -0.3852 -0.2911
Co1A Co 0.36768(6) -0.12982(6) -0.41074(5)
Co1_2 Co 0.63232(6) -0.87018(6) -0.58926(5)
Co1_3 Co 0.63232(6) 0.12982(6) -0.58926(5)
Co1A_2 Co 0.36768(6) -0.12982(6) 0.58926(5)
Co1A_3 Co 0.36768(6) 0.87018(6) 0.58926(5)
O2A O 0.2893(4) -0.2871(4) -0.3077(3)
O3A O 0.1332(4) -0.2342(4) -0.4152(3)
O4A O 0.4175(3) 0.0977(4) 0.3430(3)
O5A O 0.3374(6) -0.0024(4) 0.4898(3)
O5_2 O 0.6626(6) 0.0024(4) 0.5102(3)
O5A_2 O 0.3374(6) -0.0024(4) -0.5102(3)
N1A N 0.3638(4) 0.6777(4) 0.4019(3)
N1_2 N 0.6362(4) 0.3223(4) 0.5981(3)
N1A_2 N 0.3638(4) -0.3223(4) -0.5981(3)
N2A N 0.3763(3) 0.0645(3) -0.2209(3)
C1A C 0.1591(6) -0.2992(5) -0.3415(4)
C2A C 0.0353(8) -0.3934(8) -0.2948(6)
H1A H 0.0113 -0.5028 -0.3520
H2A H -0.0508 -0.3665 -0.3067
C3A C 0.0739(7) -0.3617(7) -0.1426(5)
H3A H 0.0004 -0.4392 -0.1225
H4A H 0.1689 -0.3726 -0.1274
C4A C 0.0789(6) -0.2017(7) -0.0452(5)
H5A H -0.0169 -0.1921 -0.0601
H6A H 0.1505 -0.1249 -0.0679
C5A C 0.1207(5) -0.1640(6) 0.1065(5)
H7A H 0.0511 -0.2427 0.1285
H8A H 0.2180 -0.1698 0.1221
C6A C 0.1221(6) -0.0063(7) 0.2036(5)
H9A H 0.0252 0.0001 0.1874
H10A H 0.1927 0.0726 0.1826
C7A C 0.1633(6) 0.0302(7) 0.3550(5)
H11A H 0.0945 -0.0508 0.3750
H12A H 0.1505 0.1280 0.4102
C8A C 0.3165(6) 0.0424(5) 0.3984(4)
C9A C 0.4566(4) 0.0972(4) -0.1005(4)
H13A H 0.5145 0.0372 -0.1008
C10A C 0.4580(4) 0.2140(4) 0.0233(4)
H14A H 0.5152 0.2306 0.1038
C11A C 0.3742(4) 0.3062(4) 0.0272(4)
C12A C 0.2915(5) 0.2727(5) -0.0979(4)
H15A H 0.2350 0.3326 -0.1011
C13A C 0.2951(5) 0.1526(5) -0.2166(4)
H16A H 0.2375 0.1319 -0.2984
C14A C 0.3716(4) 0.4347(4) 0.1571(4)
C15A C 0.3286(6) 0.5527(5) 0.1565(4)
H17A H 0.3004 0.5548 0.0732
C16A C 0.3256(5) 0.6695(5) 0.2789(4)
H18A H 0.2950 0.7477 0.2735
C17A C 0.3946(8) 0.5572(6) 0.4026(5)
H19A H 0.4571 0.5783 0.4817
C18A C 0.4031(7) 0.4366(6) 0.2858(4)
H20A H 0.4677 0.3852 0.2911
loop_
_geom_bond_atom_site_label_1
_geom_bond_atom_site_label_2
_geom_bond_site_symmetry_1
_geom_bond_site_symmetry_2
Co1 O2 1_555 1_555
O2 C1 1_555 1_555
O3 Co1 1_555 1_555
O4 C8 1_555 1_555
O5 C8 1_555 1_555
N1 C16 1_555 1_555
N2 Co1 1_555 1_555
C1 O3 1_555 1_555
C2 C1 1_555 1_555
H1 C2 1_555 1_555
H2 C2 1_555 1_555
C3 C2 1_555 1_555
H3 C3 1_555 1_555
H4 C3 1_555 1_555
C4 C3 1_555 1_555
H5 C4 1_555 1_555
H6 C4 1_555 1_555
C5 C4 1_555 1_555
H7 C5 1_555 1_555
H8 C5 1_555 1_555
C6 C5 1_555 1_555
H9 C6 1_555 1_555
H10 C6 1_555 1_555
C7 C6 1_555 1_555
H11 C7 1_555 1_555
H12 C7 1_555 1_555
C8 C7 1_555 1_555
C9 N2 1_555 1_555
H13 C9 1_555 1_555
C10 C9 1_555 1_555
H14 C10 1_555 1_555
C11 C10 1_555 1_555
C12 C11 1_555 1_555
H15 C12 1_555 1_555
C13 N2 1_555 1_555
H16 C13 1_555 1_555
C14 C11 1_555 1_555
C15 C14 1_555 1_555
H17 C15 1_555 1_555
C16 C15 1_555 1_555
H18 C16 1_555 1_555
C17 N1 1_555 1_555
H19 C17 1_555 1_555
C18 C14 1_555 1_555
H20 C18 1_555 1_555
Co1A O4 1_555 1_555
Co1_2 N1 1_555 1_555
Co1_3 O5 1_555 1_555
Co1A_2 O5A 1_555 1_555
Co1A_3 N1A 1_555 1_555
O2A Co1A 1_555 1_555
O3A Co1A 1_555 1_555
O4A Co1 1_555 1_555
O5A C8A 1_555 1_555
O5_2 Co1 1_555 1_555
O5A_2 Co1A 1_555 1_555
N1A C16A 1_555 1_555
N1_2 Co1 1_555 1_555
N1A_2 Co1A 1_555 1_555
N2A Co1A 1_555 1_555
C1A O2A 1_555 1_555
C2A C1A 1_555 1_555
H1A C2A 1_555 1_555
H2A C2A 1_555 1_555
C3A C2A 1_555 1_555
H3A C3A 1_555 1_555
H4A C3A 1_555 1_555
C4A C3A 1_555 1_555
H5A C4A 1_555 1_555
H6A C4A 1_555 1_555
C5A C4A 1_555 1_555
H7A C5A 1_555 1_555
H8A C5A 1_555 1_555
C6A C5A 1_555 1_555
H9A C6A 1_555 1_555
H10A C6A 1_555 1_555
C7A C6A 1_555 1_555
H11A C7A 1_555 1_555
H12A C7A 1_555 1_555
C8A O4A 1_555 1_555
C9A N2A 1_555 1_555
H13A C9A 1_555 1_555
C10A C9A 1_555 1_555
H14A C10A 1_555 1_555
C11A C10A 1_555 1_555
C12A C11A 1_555 1_555
H15A C12A 1_555 1_555
C13A N2A 1_555 1_555
H16A C13A 1_555 1_555
C14A C11A 1_555 1_555
C15A C14A 1_555 1_555
H17A C15A 1_555 1_555
C16A C15A 1_555 1_555
H18A C16A 1_555 1_555
C17A N1A 1_555 1_555
H19A C17A 1_555 1_555
C18A C14A 1_555 1_555
H20A C18A 1_555 1_555
C12 C13 1_555 1_555
C17 C18 1_555 1_555
O3A C1A 1_555 1_555
C7A C8A 1_555 1_555
C12A C13A 1_555 1_555
C17A C18A 1_555 1_555

#END
