
#######################################################################
#
#                 Cambridge Crystallographic Data Centre
#                                CCDC 
#
#######################################################################
#
# If this CIF has been generated from an entry in the Cambridge 
# Structural Database, then it will include bibliographic, chemical, 
# crystal, experimental, refinement or atomic coordinate data resulting 
# from the CCDC's data processing and validation procedures.
#
#######################################################################

data_ATOMIF
_symmetry_cell_setting           orthorhombic
_symmetry_space_group_name_H-M   'P b c a'
_symmetry_Int_Tables_number      61
_space_group_name_Hall           '-P 2ac 2ab'
loop_
_symmetry_equiv_pos_site_id
_symmetry_equiv_pos_as_xyz
1 x,y,z
2 1/2-x,-y,1/2+z
3 1/2+x,1/2-y,-z
4 -x,1/2+y,1/2-z
5 -x,-y,-z
6 1/2+x,y,1/2-z
7 1/2-x,1/2+y,z
8 x,1/2-y,1/2+z
_cell_length_a                   7.9143(12)
_cell_length_b                   12.020(2)
_cell_length_c                   15.718(3)
_cell_angle_alpha                90
_cell_angle_beta                 90
_cell_angle_gamma                90
_cell_volume                     1495.25
loop_
_atom_site_label
_atom_site_type_symbol
_atom_site_fract_x
_atom_site_fract_y
_atom_site_fract_z
Ni1 Ni 0.0000 0.5000 0.0000
O1 O -0.23511(17) 0.57474(10) -0.01453(8)
O2 O 0.0840(2) 0.64830(11) 0.05499(9)
O3 O -0.61224(19) 0.67389(10) -0.01793(10)
N1 N -0.0687(2) 0.44376(12) 0.12190(10)
C1 C -0.1374(3) 0.51247(17) 0.17946(14)
H1 H -0.1599 0.5854 0.1634
C2 C -0.0392(3) 0.33801(17) 0.14666(13)
H2 H 0.0076 0.2885 0.1077
C3 C -0.1763(4) 0.4803(2) 0.26137(15)
H3 H -0.2240 0.5305 0.2994
C4 C -0.0758(4) 0.30065(19) 0.22748(15)
H4 H -0.0546 0.2270 0.2423
C5 C -0.1433(3) 0.3724(2) 0.28586(14)
H5 H -0.1665 0.3488 0.3410
C6 C -0.3791(3) 0.53274(14) -0.00620(11)
C7 C -0.5499(3) 0.57833(15) -0.00864(12)
H6 H 0.016(4) 0.697(2) 0.0496(19)
H7 H 0.175(4) 0.665(2) 0.0307(18)
C6D C -0.6209(3) 0.46726(14) 0.00620(11)
O1D O -0.76489(17) 0.42526(10) 0.01453(8)
C7D C -0.4501(3) 0.42167(15) 0.00864(12)
O3D O -0.38776(19) 0.32611(10) 0.01793(10)
O2D O -0.0840(2) 0.35170(11) -0.05499(9)
H6D H -0.016(4) 0.303(2) -0.0496(19)
H7D H -0.175(4) 0.335(2) -0.0307(18)
N1D N 0.0687(2) 0.55624(12) -0.12190(10)
C1D C 0.1374(3) 0.48753(17) -0.17946(14)
H1D H 0.1599 0.4146 -0.1634
C2D C 0.0392(3) 0.66199(17) -0.14666(13)
H2D H -0.0076 0.7115 -0.1077
C3D C 0.1763(4) 0.5197(2) -0.26137(15)
H3D H 0.2240 0.4695 -0.2994
C4D C 0.0758(4) 0.69935(19) -0.22748(15)
H4D H 0.0546 0.7730 -0.2423
C5D C 0.1433(3) 0.6276(2) -0.28586(14)
H5D H 0.1665 0.6512 -0.3410
O1D_2 O 0.23511(17) 0.42526(10) 0.01453(8)
Ni1_2 Ni -1.0000 0.5000 0.0000
loop_
_geom_bond_atom_site_label_1
_geom_bond_atom_site_label_2
_geom_bond_site_symmetry_1
_geom_bond_site_symmetry_2
Ni1 O1 1_555 1_555
O1 C6 1_555 1_555
O2 Ni1 1_555 1_555
O3 C7 1_555 1_555
N1 Ni1 1_555 1_555
C1 N1 1_555 1_555
H1 C1 1_555 1_555
C2 N1 1_555 1_555
H2 C2 1_555 1_555
C3 C1 1_555 1_555
H3 C3 1_555 1_555
C4 C2 1_555 1_555
H4 C4 1_555 1_555
C5 C3 1_555 1_555
H5 C5 1_555 1_555
C6 C7 1_555 1_555
C7 C6D 1_555 1_555
H6 O2 1_555 1_555
H7 O2 1_555 1_555
C6D O1D 1_555 1_555
O1D Ni1_2 1_555 1_555
C7D C6 1_555 1_555
O3D C7D 1_555 1_555
O2D Ni1 1_555 1_555
H6D O2D 1_555 1_555
H7D O2D 1_555 1_555
N1D Ni1 1_555 1_555
C1D N1D 1_555 1_555
H1D C1D 1_555 1_555
C2D N1D 1_555 1_555
H2D C2D 1_555 1_555
C3D C1D 1_555 1_555
H3D C3D 1_555 1_555
C4D C2D 1_555 1_555
H4D C4D 1_555 1_555
C5D C3D 1_555 1_555
H5D C5D 1_555 1_555
O1D_2 Ni1 1_555 1_555
C4 C5 1_555 1_555
C6D C7D 1_555 1_555
C4D C5D 1_555 1_555

#END
