
#######################################################################
#
#                 Cambridge Crystallographic Data Centre
#                                CCDC 
#
#######################################################################
#
# If this CIF has been generated from an entry in the Cambridge 
# Structural Database, then it will include bibliographic, chemical, 
# crystal, experimental, refinement or atomic coordinate data resulting 
# from the CCDC's data processing and validation procedures.
#
#######################################################################

data_ATOWOW
_symmetry_cell_setting           monoclinic
_symmetry_space_group_name_H-M   'C 2/m'
_symmetry_Int_Tables_number      12
_space_group_name_Hall           '-C 2y'
loop_
_symmetry_equiv_pos_site_id
_symmetry_equiv_pos_as_xyz
1 x,y,z
2 -x,y,-z
3 1/2+x,1/2+y,z
4 1/2-x,1/2+y,-z
5 -x,-y,-z
6 x,-y,z
7 1/2-x,1/2-y,-z
8 1/2+x,1/2-y,z
_cell_length_a                   20.915(7)
_cell_length_b                   18.796(6)
_cell_length_c                   14.350(9)
_cell_angle_alpha                90
_cell_angle_beta                 130.717(4)
_cell_angle_gamma                90
_cell_volume                     4275.73
loop_
_atom_site_label
_atom_site_type_symbol
_atom_site_fract_x
_atom_site_fract_y
_atom_site_fract_z
Zn1 Zn 0.51975(6) 0.5000 -0.08429(8)
Zn2 Zn 0.5000 0.40049(5) -0.5000
C1 C 0.6111(4) 0.4019(3) 0.1257(6)
C2 C 0.6730(5) 0.3424(4) 0.1987(7)
C3 C 0.7255(7) 0.3221(5) 0.1780(9)
H1 H 0.7209 0.3439 0.1157
C4 C 0.7865(7) 0.2687(5) 0.2496(9)
H2 H 0.8250 0.2583 0.2392
C5 C 0.7891(5) 0.2325(4) 0.3334(7)
C6 C 0.7346(6) 0.2525(5) 0.3525(9)
H3 H 0.7357 0.2281 0.4099
C7 C 0.6779(6) 0.3087(5) 0.2862(9)
H4 H 0.6435 0.3230 0.3025
C8 C 0.8540(6) 0.1746(4) 0.4101(8)
C9 C 0.5252(4) 0.4437(3) -0.2772(5)
C10 C 0.5322(6) 0.3687(3) -0.2387(7)
H5 H 0.5849 0.3491 -0.2095
H6 H 0.4865 0.3414 -0.3075
H7 H 0.5299 0.3672 -0.1741
N1 N 0.5302(5) 0.5000 -0.2158(6)
N2 N 0.5143(3) 0.4629(2) -0.3747(4)
O1 O 0.6027(3) 0.4241(3) 0.0350(4)
O2 O 0.5731(3) 0.4243(3) 0.1580(5)
O3 O 0.9071(4) 0.1650(3) 0.4015(5)
O4 O 0.8472(6) 0.1362(4) 0.4746(8)
H8 H 0.8281 0.1033 0.4928
Zn1A Zn 0.48025(6) 0.5000 0.08429(8)
Zn2F Zn 1.0000 0.09951(5) 0.5000
Zn2D Zn 0.5000 0.59951(5) -0.5000
Zn2B Zn 1.0000 0.90049(5) 0.5000
C1E C 0.6111(4) 0.5981(3) 0.1257(6)
C2E C 0.6730(5) 0.6576(4) 0.1987(7)
C3E C 0.7255(7) 0.6779(5) 0.1780(9)
H1E H 0.7209 0.6561 0.1157
C4E C 0.7865(7) 0.7313(5) 0.2496(9)
H2E H 0.8250 0.7417 0.2392
C5E C 0.7891(5) 0.7675(4) 0.3334(7)
C6E C 0.7346(6) 0.7475(5) 0.3525(9)
H3E H 0.7357 0.7719 0.4099
C7E C 0.6779(6) 0.6913(5) 0.2862(9)
H4E H 0.6435 0.6770 0.3025
C8E C 0.8540(6) 0.8254(4) 0.4101(8)
C9E C 0.5252(4) 0.5563(3) -0.2772(5)
C10E C 0.5322(6) 0.6313(3) -0.2387(7)
H5E H 0.5849 0.6509 -0.2095
H6E H 0.4865 0.6586 -0.3075
H7E H 0.5299 0.6328 -0.1741
N2E N 0.5143(3) 0.5371(2) -0.3747(4)
N2A N 0.4857(3) 0.4629(2) -0.6253(4)
O1E O 0.6027(3) 0.5759(3) 0.0350(4)
O2E O 0.5731(3) 0.5757(3) 0.1580(5)
O2A O 0.4269(3) 0.4243(3) -0.1580(5)
O2D O 0.4269(3) 0.5757(3) -0.1580(5)
O3E O 0.9071(4) 0.8350(3) 0.4015(5)
O3F O 0.5929(4) 0.3350(3) -0.4015(5)
O3G O 0.4071(4) 0.3350(3) -0.5985(5)
O4E O 0.8472(6) 0.8638(4) 0.4746(8)
H8E H 0.8281 0.8967 0.4928
C11 C 0.768(2) 1.0000 0.533(2)
C12 C 0.738(2) 1.0000 0.296(3)
N3 N 0.7784(19) 1.0000 0.434(3)
O5 O 0.0000 0.335(3) 1.0000
loop_
_geom_bond_atom_site_label_1
_geom_bond_atom_site_label_2
_geom_bond_site_symmetry_1
_geom_bond_site_symmetry_2
Zn1 N1 1_555 1_555
Zn2 N2 1_555 1_555
C1 C2 1_555 1_555
C2 C3 1_555 1_555
C3 H1 1_555 1_555
C4 C3 1_555 1_555
H2 C4 1_555 1_555
C5 C4 1_555 1_555
C6 C5 1_555 1_555
H3 C6 1_555 1_555
C7 C2 1_555 1_555
H4 C7 1_555 1_555
C8 C5 1_555 1_555
C9 C10 1_555 1_555
C10 H5 1_555 1_555
H6 C10 1_555 1_555
H7 C10 1_555 1_555
C11 N3 1_555 1_555
C12 N3 1_555 1_555
N1 C9 1_555 1_555
N2 C9 1_555 1_555
O1 Zn1 1_555 1_555
O2 C1 1_555 1_555
O3 C8 1_555 1_555
O4 C8 1_555 1_555
H8 O4 1_555 1_555
Zn1A O2 1_555 1_555
Zn2F O3 1_555 1_555
Zn2D N2E 1_555 1_555
Zn2B O3E 1_555 1_555
C1E C2E 1_555 1_555
C2E C3E 1_555 1_555
C3E H1E 1_555 1_555
C4E C3E 1_555 1_555
H2E C4E 1_555 1_555
C5E C4E 1_555 1_555
C6E C5E 1_555 1_555
H3E C6E 1_555 1_555
C7E C2E 1_555 1_555
H4E C7E 1_555 1_555
C8E C5E 1_555 1_555
C9E N1 1_555 1_555
C10E C9E 1_555 1_555
H5E C10E 1_555 1_555
H6E C10E 1_555 1_555
H7E C10E 1_555 1_555
N2E N2 1_555 1_555
N2A Zn2 1_555 1_555
O1E Zn1 1_555 1_555
O2E Zn1A 1_555 1_555
O2A Zn1 1_555 1_555
O2D Zn1 1_555 1_555
O3E C8E 1_555 1_555
O3F Zn2 1_555 1_555
O3G Zn2 1_555 1_555
O4E C8E 1_555 1_555
H8E O4E 1_555 1_555
C1 O1 1_555 1_555
C6 C7 1_555 1_555
C1E O1E 1_555 1_555
C1E O2E 1_555 1_555
C6E C7E 1_555 1_555
C9E N2E 1_555 1_555

#END
