
#######################################################################
#
#                 Cambridge Crystallographic Data Centre
#                                CCDC 
#
#######################################################################
#
# If this CIF has been generated from an entry in the Cambridge 
# Structural Database, then it will include bibliographic, chemical, 
# crystal, experimental, refinement or atomic coordinate data resulting 
# from the CCDC's data processing and validation procedures.
#
#######################################################################

data_ATOZEO
_symmetry_cell_setting           monoclinic
_symmetry_space_group_name_H-M   'C 2'
_symmetry_Int_Tables_number      5
_space_group_name_Hall           'C 2y'
loop_
_symmetry_equiv_pos_site_id
_symmetry_equiv_pos_as_xyz
1 x,y,z
2 -x,y,-z
3 1/2+x,1/2+y,z
4 1/2-x,1/2+y,-z
_cell_length_a                   13.0482(15)
_cell_length_b                   8.8833(7)
_cell_length_c                   12.0532(15)
_cell_angle_alpha                90
_cell_angle_beta                 103.121(14)
_cell_angle_gamma                90
_cell_volume                     1360.63
loop_
_atom_site_label
_atom_site_type_symbol
_atom_site_fract_x
_atom_site_fract_y
_atom_site_fract_z
S1 S -0.07575(12) -0.1467(2) -0.37629(16)
O1 O -0.1924(3) -0.3275(3) -0.1423(3)
O2 O -0.1788(3) 0.0189(4) -0.0438(3)
O3 O -0.4352(2) 0.0558(4) -0.2842(3)
O4 O -0.3952(3) 0.1940(4) -0.0835(3)
O5 O -0.2814(2) 0.3544(4) -0.1314(2)
O6 O -0.4074(2) -0.1314(4) -0.5356(2)
O7 O -0.3040(3) -0.0597(4) -0.6500(3)
O8 O -0.0326(3) -0.5867(6) -0.1151(4)
O9 O -0.4175(3) -0.3161(5) -0.2745(4)
N1 N -0.2617(3) -0.0529(4) -0.3445(3)
C1 C -0.1900(3) -0.1793(5) -0.3121(4)
C2 C -0.1635(4) -0.1838(5) -0.1808(4)
C3 C -0.2275(3) -0.0548(5) -0.1467(3)
C4 C -0.2468(3) 0.0523(4) -0.2476(3)
C5 C -0.1364(3) 0.0045(6) -0.4625(4)
C6 C -0.2521(3) 0.0096(5) -0.4543(4)
C7 C -0.3451(3) 0.1502(5) -0.2584(4)
C8 C -0.3402(3) 0.2399(5) -0.1478(4)
C9 C -0.3277(3) -0.0688(5) -0.5556(3)
Li1 Li -0.4403(5) -0.1299(10) -0.3806(6)
Li2 Li -0.1759(6) -0.5421(9) -0.1925(6)
H1 H -0.22610 -0.27480 -0.34280
H2 H -0.08660 -0.16530 -0.15050
H3 H -0.29680 -0.09560 -0.13850
H4 H -0.18350 0.11680 -0.24490
H5 H -0.10090 0.10050 -0.43530
H6 H -0.13170 -0.01130 -0.54250
H7 H -0.277(3) 0.120(5) -0.460(4)
H8 H -0.348(3) 0.219(5) -0.316(3)
H9 H -0.168(5) -0.315(8) -0.054(6)
H10 H -0.197(4) -0.056(6) 0.025(4)
H11 H -0.444(5) -0.369(7) -0.255(5)
Li2_2 Li -0.1759(6) 0.4579(9) -0.1925(6)
Li1A Li -0.5597(5) -0.1299(10) -0.6194(6)
Li2C Li -0.3241(6) -0.0421(9) -0.8075(6)
O6A O -0.5926(2) -0.1314(4) -0.4644(2)
O5_2 O -0.2814(2) -0.6456(4) -0.1314(2)
O7C O -0.1960(3) -0.5597(4) -0.3500(3)
Li3 Li -0.5120(5) -0.3585(8) -0.9107(6)
loop_
_geom_bond_atom_site_label_1
_geom_bond_atom_site_label_2
_geom_bond_site_symmetry_1
_geom_bond_site_symmetry_2
S1 C1 1_555 1_555
O1 C2 1_555 1_555
O2 C3 1_555 1_555
O3 C7 1_555 1_555
O4 C8 1_555 1_555
O5 C8 1_555 1_555
O6 C9 1_555 1_555
O7 C9 1_555 1_555
O8 Li2 1_555 1_555
O9 Li1 1_555 1_555
N1 C1 1_555 1_555
C1 C2 1_555 1_555
C2 C3 1_555 1_555
C3 C4 1_555 1_555
C4 N1 1_555 1_555
C5 S1 1_555 1_555
C6 N1 1_555 1_555
C7 C4 1_555 1_555
C8 C7 1_555 1_555
C9 C6 1_555 1_555
Li1 O3 1_555 1_555
Li2 O1 1_555 1_555
H1 C1 1_555 1_555
H2 C2 1_555 1_555
H3 C3 1_555 1_555
H4 C4 1_555 1_555
H5 C5 1_555 1_555
H6 C5 1_555 1_555
H7 C6 1_555 1_555
H8 C7 1_555 1_555
H9 O1 1_555 1_555
H10 O2 1_555 1_555
H11 O9 1_555 1_555
Li2_2 O5 1_555 1_555
Li1A O6 1_555 1_555
Li2C O7 1_555 1_555
O6A Li1 1_555 1_555
O5_2 Li2 1_555 1_555
O7C Li2 1_555 1_555
O6 Li1 1_555 1_555
C5 C6 1_555 1_555
Li1A O6A 1_555 1_555

#END
