
#######################################################################
#
#                 Cambridge Crystallographic Data Centre
#                                CCDC 
#
#######################################################################
#
# If this CIF has been generated from an entry in the Cambridge 
# Structural Database, then it will include bibliographic, chemical, 
# crystal, experimental, refinement or atomic coordinate data resulting 
# from the CCDC's data processing and validation procedures.
#
#######################################################################

data_ATUNUY
_symmetry_cell_setting           monoclinic
_symmetry_space_group_name_H-M   'P 21/n'
_symmetry_Int_Tables_number      14
_space_group_name_Hall           '-P 2yn'
loop_
_symmetry_equiv_pos_site_id
_symmetry_equiv_pos_as_xyz
1 x,y,z
2 1/2+x,1/2-y,1/2+z
3 -x,-y,-z
4 1/2-x,1/2+y,1/2-z
_cell_length_a                   9.4320(3)
_cell_length_b                   9.1810(4)
_cell_length_c                   14.9370(5)
_cell_angle_alpha                90
_cell_angle_beta                 94.369(2)
_cell_angle_gamma                90
_cell_volume                     1289.71
loop_
_atom_site_label
_atom_site_type_symbol
_atom_site_fract_x
_atom_site_fract_y
_atom_site_fract_z
Co1 Co 0.24978(2) 0.15117(3) -0.004522(16)
O1 O 0.06943(15) 0.14140(15) 0.06838(10)
O2 O 0.43149(15) 0.13499(16) -0.07360(10)
O3 O -0.13332(15) 0.01654(16) 0.07461(9)
O4 O 0.63704(15) 0.01383(16) -0.07210(9)
C1 C 0.5203(2) 0.0429(2) -0.04229(12)
C2 C -0.0189(2) 0.0461(2) 0.04156(12)
N1 N 0.16213(19) 0.3060(2) -0.10054(12)
C3 C 0.0459(2) 0.3829(2) -0.08569(14)
H1 H 0.0012 0.3653 -0.0318
C4 C -0.0129(2) 0.4867(3) -0.14447(14)
H2 H -0.0954 0.5392 -0.1309
C5 C 0.0509(2) 0.5127(2) -0.22363(14)
H3 H 0.0135 0.5838 -0.2652
C6 C 0.1697(2) 0.4331(3) -0.24061(14)
H4 H 0.2152 0.4477 -0.2945
C7 C 0.2220(2) 0.3316(3) -0.17801(14)
H5 H 0.3041 0.2775 -0.1903
N2 N 0.33091(18) 0.3130(2) 0.08869(11)
C8 C 0.3387(2) 0.2806(3) 0.17672(13)
H6 H 0.3152 0.1847 0.1943
C9 C 0.3797(3) 0.3812(3) 0.24277(15)
H7 H 0.3830 0.3546 0.3044
C10 C 0.4156(3) 0.5202(3) 0.21822(15)
H8 H 0.4456 0.5905 0.2623
C11 C 0.4068(3) 0.5554(3) 0.12776(15)
H9 H 0.4297 0.6506 0.1087
C12 C 0.3639(2) 0.4487(2) 0.06548(14)
H10 H 0.3578 0.4734 0.0035
C2B C 0.0189(2) -0.0461(2) -0.04156(12)
O1B O -0.06943(15) -0.14140(15) -0.06838(10)
O3B O 0.13332(15) -0.01654(16) -0.07461(9)
C1B C 0.4797(2) -0.0429(2) 0.04229(12)
O2B O 0.56851(15) -0.13499(16) 0.07360(10)
O4B O 0.36296(15) -0.01383(16) 0.07210(9)
Co1B Co -0.24978(2) -0.15117(3) 0.004522(16)
N1B N -0.16213(19) -0.3060(2) 0.10054(12)
C3B C -0.0459(2) -0.3829(2) 0.08569(14)
H1B H -0.0012 -0.3653 0.0318
C4B C 0.0129(2) -0.4867(3) 0.14447(14)
H2B H 0.0954 -0.5392 0.1309
C5B C -0.0509(2) -0.5127(2) 0.22363(14)
H3B H -0.0135 -0.5838 0.2652
C6B C -0.1697(2) -0.4331(3) 0.24061(14)
H4B H -0.2152 -0.4477 0.2945
C7B C -0.2220(2) -0.3316(3) 0.17801(14)
H5B H -0.3041 -0.2775 0.1903
N2B N -0.33091(18) -0.3130(2) -0.08869(11)
C8B C -0.3387(2) -0.2806(3) -0.17672(13)
H6B H -0.3152 -0.1847 -0.1943
C9B C -0.3797(3) -0.3812(3) -0.24277(15)
H7B H -0.3830 -0.3546 -0.3044
C10B C -0.4156(3) -0.5202(3) -0.21822(15)
H8B H -0.4456 -0.5905 -0.2623
C11B C -0.4068(3) -0.5554(3) -0.12776(15)
H9B H -0.4297 -0.6506 -0.1087
C12B C -0.3639(2) -0.4487(2) -0.06548(14)
H10B H -0.3578 -0.4734 -0.0035
Co1B_2 Co 0.75022(2) -0.15117(3) 0.004522(16)
O2B_2 O -0.43149(15) -0.13499(16) 0.07360(10)
O4_2 O -0.36296(15) 0.01383(16) -0.07210(9)
O5 O 0.3061(8) 0.7150(8) -0.0786(5)
loop_
_geom_bond_atom_site_label_1
_geom_bond_atom_site_label_2
_geom_bond_site_symmetry_1
_geom_bond_site_symmetry_2
Co1 O1 1_555 1_555
O1 C2 1_555 1_555
O2 Co1 1_555 1_555
O3 C2 1_555 1_555
O4 C1 1_555 1_555
C1 O2 1_555 1_555
C2 C2B 1_555 1_555
N1 Co1 1_555 1_555
C3 N1 1_555 1_555
H1 C3 1_555 1_555
C4 C3 1_555 1_555
H2 C4 1_555 1_555
C5 C4 1_555 1_555
H3 C5 1_555 1_555
C6 C5 1_555 1_555
H4 C6 1_555 1_555
C7 N1 1_555 1_555
H5 C7 1_555 1_555
N2 Co1 1_555 1_555
C8 N2 1_555 1_555
H6 C8 1_555 1_555
C9 C8 1_555 1_555
H7 C9 1_555 1_555
C10 C9 1_555 1_555
H8 C10 1_555 1_555
C11 C10 1_555 1_555
H9 C11 1_555 1_555
C12 N2 1_555 1_555
H10 C12 1_555 1_555
C2B O1B 1_555 1_555
O1B Co1B 1_555 1_555
O3B Co1 1_555 1_555
C1B C1 1_555 1_555
O2B C1B 1_555 1_555
O4B Co1 1_555 1_555
Co1B O3 1_555 1_555
N1B Co1B 1_555 1_555
C3B N1B 1_555 1_555
H1B C3B 1_555 1_555
C4B C3B 1_555 1_555
H2B C4B 1_555 1_555
C5B C4B 1_555 1_555
H3B C5B 1_555 1_555
C6B C5B 1_555 1_555
H4B C6B 1_555 1_555
C7B N1B 1_555 1_555
H5B C7B 1_555 1_555
N2B Co1B 1_555 1_555
C8B N2B 1_555 1_555
H6B C8B 1_555 1_555
C9B C8B 1_555 1_555
H7B C9B 1_555 1_555
C10B C9B 1_555 1_555
H8B C10B 1_555 1_555
C11B C10B 1_555 1_555
H9B C11B 1_555 1_555
C12B N2B 1_555 1_555
H10B C12B 1_555 1_555
Co1B_2 O4 1_555 1_555
O2B_2 Co1B 1_555 1_555
O4_2 Co1B 1_555 1_555
C6 C7 1_555 1_555
C11 C12 1_555 1_555
C2B O3B 1_555 1_555
C1B O4B 1_555 1_555
O2B Co1B_2 1_555 1_555
C6B C7B 1_555 1_555
C11B C12B 1_555 1_555

#END
