
#######################################################################
#
#                 Cambridge Crystallographic Data Centre
#                                CCDC 
#
#######################################################################
#
# If this CIF has been generated from an entry in the Cambridge 
# Structural Database, then it will include bibliographic, chemical, 
# crystal, experimental, refinement or atomic coordinate data resulting 
# from the CCDC's data processing and validation procedures.
#
#######################################################################

data_ATUQUB
_symmetry_cell_setting           monoclinic
_symmetry_space_group_name_H-M   'P 21/c'
_symmetry_Int_Tables_number      14
_space_group_name_Hall           '-P 2ybc'
loop_
_symmetry_equiv_pos_site_id
_symmetry_equiv_pos_as_xyz
1 x,y,z
2 x,1/2-y,1/2+z
3 -x,-y,-z
4 -x,1/2+y,1/2-z
_cell_length_a                   21.738(5)
_cell_length_b                   9.700(2)
_cell_length_c                   13.447(3)
_cell_angle_alpha                90
_cell_angle_beta                 102.442(13)
_cell_angle_gamma                90
_cell_volume                     2768.82
loop_
_atom_site_label
_atom_site_type_symbol
_atom_site_fract_x
_atom_site_fract_y
_atom_site_fract_z
Sn1 Sn 0.477587(11) 1.09138(3) 0.20148(2)
O1 O 0.40017(11) 0.9629(3) 0.1353(2)
O2 O 0.44006(11) 0.7749(3) 0.2216(2)
O3 O 0.31989(13) 0.9251(3) 0.2794(2)
O4 O 0.20732(13) 0.7736(3) -0.0259(3)
N1 N 0.28187(14) 0.8425(3) 0.1165(3)
C1 C 0.46890(18) 1.0801(4) 0.3552(3)
H1 H 0.5100 1.0589 0.3989
H2 H 0.4388 1.0075 0.3623
H3 H 0.4538 1.1688 0.3756
C2 C 0.54781(17) 0.9871(4) 0.1436(3)
H4 H 0.5278 0.9291 0.0860
H5 H 0.5728 0.9293 0.1971
H6 H 0.5753 1.0547 0.1208
C3 C 0.43501(17) 1.2571(4) 0.1090(3)
H7 H 0.4178 1.2234 0.0399
H8 H 0.4666 1.3284 0.1067
H9 H 0.4010 1.2960 0.1376
C4 C 0.39788(17) 0.8360(4) 0.1629(3)
C5 C 0.33779(17) 0.7603(4) 0.1066(3)
C6 C 0.33220(19) 0.6169(4) 0.1509(4)
H10 H 0.3278 0.6256 0.2216
H11 H 0.3701 0.5633 0.1487
H12 H 0.2951 0.5700 0.1108
C7 C 0.3432(2) 0.7531(5) -0.0049(3)
H13 H 0.3386 0.8458 -0.0345
H14 H 0.3099 0.6933 -0.0428
H15 H 0.3845 0.7155 -0.0088
C8 C 0.27819(18) 0.9166(4) 0.2049(3)
C9 C 0.21281(18) 0.9710(4) 0.1881(4)
H16 H 0.1969 1.0288 0.2337
C10 C 0.18064(19) 0.9258(4) 0.0997(4)
H17 H 0.1378 0.9465 0.0711
C11 C 0.2216(2) 0.8384(5) 0.0524(4)
O2C O 0.55994(11) 1.2749(3) 0.2784(2)
Sn1C Sn 0.522413(11) 0.59138(3) 0.29852(2)
Sn2 Sn 0.030662(11) 0.08059(3) 0.27622(2)
O5 O 0.10630(11) 0.2101(3) 0.2496(2)
O6 O 0.04816(11) 0.3988(2) 0.2055(2)
O7 O 0.28836(12) 0.2866(3) 0.1911(2)
O8 O 0.16758(12) 0.3893(3) 0.4203(2)
N2 N 0.21347(13) 0.3533(3) 0.2827(2)
C12 C 0.00419(17) 0.1993(4) 0.3936(3)
H18 H 0.0395 0.2581 0.4260
H19 H -0.0069 0.1373 0.4446
H20 H -0.0322 0.2570 0.3642
C13 C 0.09606(17) -0.0753(4) 0.3378(3)
H21 H 0.1361 -0.0327 0.3711
H22 H 0.1029 -0.1360 0.2829
H23 H 0.0794 -0.1292 0.3877
C14 C -0.01900(18) 0.0834(4) 0.1226(3)
H24 H -0.0410 0.1717 0.1078
H25 H -0.0498 0.0080 0.1110
H26 H 0.0107 0.0717 0.0778
C15 C 0.09923(17) 0.3367(4) 0.2247(3)
C16 C 0.15965(16) 0.4097(4) 0.2076(3)
C17 C 0.15709(17) 0.5653(4) 0.2204(3)
H27 H 0.1976 0.6057 0.2151
H28 H 0.1485 0.5868 0.2873
H29 H 0.1235 0.6036 0.1670
C18 C 0.16304(17) 0.3731(4) 0.0976(3)
H30 H 0.1681 0.2732 0.0918
H31 H 0.1991 0.4203 0.0798
H32 H 0.1241 0.4026 0.0510
C19 C 0.27049(17) 0.2961(4) 0.2692(3)
C20 C 0.30426(19) 0.2533(5) 0.3726(3)
H33 H 0.3443 0.2095 0.3878
C21 C 0.27103(18) 0.2844(5) 0.4397(3)
H34 H 0.2830 0.2683 0.5109
C22 C 0.21117(19) 0.3495(4) 0.3854(3)
O6C O -0.04816(11) -0.1012(2) 0.2945(2)
Sn2C Sn -0.030662(11) 0.58059(3) 0.22378(2)
loop_
_geom_bond_atom_site_label_1
_geom_bond_atom_site_label_2
_geom_bond_site_symmetry_1
_geom_bond_site_symmetry_2
Sn1 O1 1_555 1_555
O1 C4 1_555 1_555
O2 C4 1_555 1_555
O3 C8 1_555 1_555
O4 C11 1_555 1_555
N1 C5 1_555 1_555
C1 Sn1 1_555 1_555
H1 C1 1_555 1_555
H2 C1 1_555 1_555
H3 C1 1_555 1_555
C2 Sn1 1_555 1_555
H4 C2 1_555 1_555
H5 C2 1_555 1_555
H6 C2 1_555 1_555
C3 Sn1 1_555 1_555
H7 C3 1_555 1_555
H8 C3 1_555 1_555
H9 C3 1_555 1_555
C4 C5 1_555 1_555
C5 C6 1_555 1_555
C6 H10 1_555 1_555
H11 C6 1_555 1_555
H12 C6 1_555 1_555
C7 C5 1_555 1_555
H13 C7 1_555 1_555
H14 C7 1_555 1_555
H15 C7 1_555 1_555
C8 N1 1_555 1_555
C9 C8 1_555 1_555
H16 C9 1_555 1_555
C10 C9 1_555 1_555
H17 C10 1_555 1_555
C11 N1 1_555 1_555
Sn2 O5 1_555 1_555
O5 C15 1_555 1_555
O6 C15 1_555 1_555
O7 C19 1_555 1_555
O8 C22 1_555 1_555
N2 C16 1_555 1_555
C12 Sn2 1_555 1_555
H18 C12 1_555 1_555
H19 C12 1_555 1_555
H20 C12 1_555 1_555
C13 Sn2 1_555 1_555
H21 C13 1_555 1_555
H22 C13 1_555 1_555
H23 C13 1_555 1_555
C14 Sn2 1_555 1_555
H24 C14 1_555 1_555
H25 C14 1_555 1_555
H26 C14 1_555 1_555
C15 C16 1_555 1_555
C16 C17 1_555 1_555
C17 H27 1_555 1_555
H28 C17 1_555 1_555
H29 C17 1_555 1_555
C18 C16 1_555 1_555
H30 C18 1_555 1_555
H31 C18 1_555 1_555
H32 C18 1_555 1_555
C19 N2 1_555 1_555
C20 C19 1_555 1_555
H33 C20 1_555 1_555
C21 C20 1_555 1_555
H34 C21 1_555 1_555
C22 N2 1_555 1_555
O2C Sn1 1_555 1_555
Sn1C O2 1_555 1_555
O6C Sn2 1_555 1_555
Sn2C O6 1_555 1_555
C10 C11 1_555 1_555
C21 C22 1_555 1_555

#END
