
#######################################################################
#
#                 Cambridge Crystallographic Data Centre
#                                CCDC 
#
#######################################################################
#
# If this CIF has been generated from an entry in the Cambridge 
# Structural Database, then it will include bibliographic, chemical, 
# crystal, experimental, refinement or atomic coordinate data resulting 
# from the CCDC's data processing and validation procedures.
#
#######################################################################

data_ATUYOE
_symmetry_cell_setting           monoclinic
_symmetry_space_group_name_H-M   'C 2/c'
_symmetry_Int_Tables_number      15
_space_group_name_Hall           '-C 2yn'
loop_
_symmetry_equiv_pos_site_id
_symmetry_equiv_pos_as_xyz
1 x,y,z
2 -x,y,1/2-z
3 1/2+x,1/2+y,z
4 1/2-x,1/2+y,1/2-z
5 -x,-y,-z
6 x,-y,1/2+z
7 1/2-x,1/2-y,-z
8 1/2+x,1/2-y,1/2+z
_cell_length_a                   17.341(5)
_cell_length_b                   16.186(5)
_cell_length_c                   15.353(5)
_cell_angle_alpha                90
_cell_angle_beta                 107.148(4)
_cell_angle_gamma                90
_cell_volume                     4117.74
loop_
_atom_site_label
_atom_site_type_symbol
_atom_site_fract_x
_atom_site_fract_y
_atom_site_fract_z
O4 O 0.3024(14) 0.2282(17) 0.0588(15)
C21 C 0.2247(17) 0.2150(14) -0.004(2)
O4F O 0.1976(14) 0.2718(17) -0.0588(15)
C21F C 0.2753(17) 0.2850(14) 0.004(2)
Cd1 Cd 0.0000 0.0000 1.0000
N1 N -0.1183(5) -0.1359(5) 0.8626(8)
N2 N 0.0368(4) -0.0944(4) 1.1176(6)
N3 N 0.0641(3) -0.2180(4) 1.1747(4)
N4 N -0.3873(4) -0.5465(4) 0.9614(5)
N5 N -0.2603(3) -0.5763(3) 0.9796(4)
N6 N 0.0679(4) -0.5594(4) 1.1567(5)
O1 O -0.0661(7) -0.1060(8) 0.9143(10)
O2 O -0.1875(6) -0.1233(11) 0.8381(11)
O3 O -0.1011(13) -0.1878(13) 0.8080(13)
C1 C 0.0251(5) -0.1717(5) 1.1013(6)
H1 H -0.0062 -0.1934 1.0461
C2 C 0.0988(5) -0.1657(6) 1.2421(6)
H2 H 0.1289 -0.1795 1.3012
C3 C 0.0811(6) -0.0856(6) 1.2063(8)
H3 H 0.0966 -0.0362 1.2374
C4 C -0.3141(4) -0.5338(5) 1.0115(6)
H4 H -0.2999 -0.5000 1.0628
C5 C -0.3030(5) -0.6138(6) 0.9022(6)
H5 H -0.2822 -0.6445 0.8631
C6 C -0.3810(5) -0.5987(6) 0.8920(6)
H6 H -0.4241 -0.6198 0.8458
C7 C 0.0775(4) -0.4751(5) 1.1701(5)
C8 C 0.1460(5) -0.4292(5) 1.2162(6)
H7 H 0.1944 -0.4554 1.2452
C9 C 0.1400(4) -0.3455(5) 1.2177(5)
H8 H 0.1853 -0.3141 1.2461
C10 C 0.0655(4) -0.3056(4) 1.1764(4)
C11 C -0.0029(4) -0.3502(4) 1.1343(4)
H9 H -0.0518 -0.3236 1.1084
C12 C 0.0025(4) -0.4360(4) 1.1311(4)
C13 C -0.0541(4) -0.4999(4) 1.0934(5)
C14 C -0.1370(4) -0.5012(4) 1.0489(5)
H10 H -0.1663 -0.4522 1.0384
C15 C -0.1744(4) -0.5742(4) 1.0212(5)
C16 C -0.1310(5) -0.6480(4) 1.0340(6)
H11 H -0.1575 -0.6970 1.0117
C17 C -0.0499(5) -0.6494(5) 1.0791(6)
H12 H -0.0216 -0.6990 1.0898
C18 C -0.0115(4) -0.5758(5) 1.1081(5)
C19 C 0.1365(8) -0.6213(7) 1.1683(9)
H13 H 0.1799 -0.5967 1.1492
H14 H 0.1174 -0.6698 1.1311
C20 C 0.1652(10) -0.6441(13) 1.2638(11)
H15 H 0.1263 -0.6793 1.2785
H16 H 0.2156 -0.6729 1.2753
H17 H 0.1727 -0.5952 1.3007
Cd1B Cd -0.5000 -0.5000 1.0000
Cd1B_2 Cd 0.5000 0.5000 1.0000
N1D N 0.1183(5) 0.1359(5) 1.1374(8)
N2D N -0.0368(4) 0.0944(4) 0.8824(6)
N3D N -0.0641(3) 0.2180(4) 0.8253(4)
N4D N 0.3873(4) 0.5465(4) 1.0386(5)
N4B N 0.1127(4) -0.0465(4) 0.9614(5)
N4F N -0.1127(4) 0.0465(4) 1.0386(5)
N5D N 0.2603(3) 0.5763(3) 1.0204(4)
N6D N -0.0679(4) 0.5594(4) 0.8433(5)
O1D O 0.0661(7) 0.1060(8) 1.0857(10)
O2D O 0.1875(6) 0.1233(11) 1.1619(11)
O3D O 0.1011(13) 0.1878(13) 1.1920(13)
C1D C -0.0251(5) 0.1717(5) 0.8987(6)
H1D H 0.0062 0.1934 0.9539
C2D C -0.0988(5) 0.1657(6) 0.7579(6)
H2D H -0.1289 0.1795 0.6988
C3D C -0.0811(6) 0.0856(6) 0.7937(8)
H3D H -0.0966 0.0362 0.7626
C4D C 0.3141(4) 0.5338(5) 0.9885(6)
H4D H 0.2999 0.5000 0.9372
C5D C 0.3030(5) 0.6138(6) 1.0978(6)
H5D H 0.2822 0.6445 1.1369
C6D C 0.3810(5) 0.5987(6) 1.1080(6)
H6D H 0.4241 0.6198 1.1542
C7D C -0.0775(4) 0.4751(5) 0.8299(5)
C8D C -0.1460(5) 0.4292(5) 0.7838(6)
H7D H -0.1944 0.4554 0.7548
C9D C -0.1400(4) 0.3455(5) 0.7823(5)
H8D H -0.1853 0.3141 0.7539
C10D C -0.0655(4) 0.3056(4) 0.8236(4)
C11D C 0.0029(4) 0.3502(4) 0.8657(4)
H9D H 0.0518 0.3236 0.8916
C12D C -0.0025(4) 0.4360(4) 0.8689(4)
C13D C 0.0541(4) 0.4999(4) 0.9066(5)
C14D C 0.1370(4) 0.5012(4) 0.9511(5)
H10D H 0.1663 0.4522 0.9616
C15D C 0.1744(4) 0.5742(4) 0.9788(5)
C16D C 0.1310(5) 0.6480(4) 0.9660(6)
H11D H 0.1575 0.6970 0.9883
C17D C 0.0499(5) 0.6494(5) 0.9209(6)
H12D H 0.0216 0.6990 0.9102
C18D C 0.0115(4) 0.5758(5) 0.8919(5)
C19D C -0.1365(8) 0.6213(7) 0.8317(9)
H13D H -0.1799 0.5967 0.8508
H14D H -0.1174 0.6698 0.8689
C20D C -0.1652(10) 0.6441(13) 0.7362(11)
H15D H -0.1263 0.6793 0.7215
H16D H -0.2156 0.6729 0.7247
H17D H -0.1727 0.5952 0.6993
loop_
_geom_bond_atom_site_label_1
_geom_bond_atom_site_label_2
_geom_bond_site_symmetry_1
_geom_bond_site_symmetry_2
Cd1 N2 1_555 1_555
N1 O1 1_555 1_555
N2 C1 1_555 1_555
N3 C1 1_555 1_555
N4 C4 1_555 1_555
N5 C4 1_555 1_555
N6 C7 1_555 1_555
O1 Cd1 1_555 1_555
O2 N1 1_555 1_555
O3 N1 1_555 1_555
O4 C21 1_555 1_555
C1 H1 1_555 1_555
C2 N3 1_555 1_555
H2 C2 1_555 1_555
C3 N2 1_555 1_555
H3 C3 1_555 1_555
C4 H4 1_555 1_555
C5 N5 1_555 1_555
H5 C5 1_555 1_555
C6 N4 1_555 1_555
H6 C6 1_555 1_555
C7 C8 1_555 1_555
C8 H7 1_555 1_555
C9 C8 1_555 1_555
H8 C9 1_555 1_555
C10 N3 1_555 1_555
C11 C10 1_555 1_555
H9 C11 1_555 1_555
C12 C7 1_555 1_555
C13 C12 1_555 1_555
C14 C13 1_555 1_555
H10 C14 1_555 1_555
C15 N5 1_555 1_555
C16 C15 1_555 1_555
H11 C16 1_555 1_555
C17 C16 1_555 1_555
H12 C17 1_555 1_555
C18 N6 1_555 1_555
C19 N6 1_555 1_555
H13 C19 1_555 1_555
H14 C19 1_555 1_555
C20 C19 1_555 1_555
H15 C20 1_555 1_555
H16 C20 1_555 1_555
H17 C20 1_555 1_555
C21 O4F 1_555 1_555
Cd1B N4 1_555 1_555
Cd1B_2 N4D 1_555 1_555
N1D O1D 1_555 1_555
N2D Cd1 1_555 1_555
N3D C1D 1_555 1_555
N4D C4D 1_555 1_555
N4B Cd1 1_555 1_555
N4F Cd1 1_555 1_555
N5D C4D 1_555 1_555
N6D C7D 1_555 1_555
O1D Cd1 1_555 1_555
O2D N1D 1_555 1_555
O3D N1D 1_555 1_555
O4F C21F 1_555 1_555
C1D N2D 1_555 1_555
H1D C1D 1_555 1_555
C2D N3D 1_555 1_555
H2D C2D 1_555 1_555
C3D N2D 1_555 1_555
H3D C3D 1_555 1_555
C4D H4D 1_555 1_555
C5D N5D 1_555 1_555
H5D C5D 1_555 1_555
C6D N4D 1_555 1_555
H6D C6D 1_555 1_555
C7D C8D 1_555 1_555
C8D H7D 1_555 1_555
C9D C8D 1_555 1_555
H8D C9D 1_555 1_555
C10D N3D 1_555 1_555
C11D C10D 1_555 1_555
H9D C11D 1_555 1_555
C12D C7D 1_555 1_555
C13D C12D 1_555 1_555
C14D C13D 1_555 1_555
H10D C14D 1_555 1_555
C15D N5D 1_555 1_555
C16D C15D 1_555 1_555
H11D C16D 1_555 1_555
C17D C16D 1_555 1_555
H12D C17D 1_555 1_555
C18D N6D 1_555 1_555
C19D N6D 1_555 1_555
H13D C19D 1_555 1_555
H14D C19D 1_555 1_555
C20D C19D 1_555 1_555
H15D C20D 1_555 1_555
H16D C20D 1_555 1_555
H17D C20D 1_555 1_555
C21F O4 1_555 1_555
C2 C3 1_555 1_555
C5 C6 1_555 1_555
C9 C10 1_555 1_555
C11 C12 1_555 1_555
C13 C18 1_555 1_555
C14 C15 1_555 1_555
C17 C18 1_555 1_555
C21 C21F 1_555 1_555
C2D C3D 1_555 1_555
C5D C6D 1_555 1_555
C9D C10D 1_555 1_555
C11D C12D 1_555 1_555
C13D C18D 1_555 1_555
C14D C15D 1_555 1_555
C17D C18D 1_555 1_555

#END
