
#######################################################################
#
#                 Cambridge Crystallographic Data Centre
#                                CCDC 
#
#######################################################################
#
# If this CIF has been generated from an entry in the Cambridge 
# Structural Database, then it will include bibliographic, chemical, 
# crystal, experimental, refinement or atomic coordinate data resulting 
# from the CCDC's data processing and validation procedures.
#
#######################################################################

data_ATUYEU
_symmetry_cell_setting           monoclinic
_symmetry_space_group_name_H-M   'P 21/n'
_symmetry_Int_Tables_number      14
_space_group_name_Hall           '-P 2yn'
loop_
_symmetry_equiv_pos_site_id
_symmetry_equiv_pos_as_xyz
1 x,y,z
2 1/2-x,1/2+y,1/2-z
3 -x,-y,-z
4 1/2+x,1/2-y,1/2+z
_cell_length_a                   13.139(3)
_cell_length_b                   12.492(2)
_cell_length_c                   14.902(3)
_cell_angle_alpha                90
_cell_angle_beta                 95.838(3)
_cell_angle_gamma                90
_cell_volume                     2433.22
loop_
_atom_site_label
_atom_site_type_symbol
_atom_site_fract_x
_atom_site_fract_y
_atom_site_fract_z
Co1 Co 0.5000 0.5000 0.0000
N1 N 0.3414(3) 0.4998(3) 0.0180(2)
N2 N 0.5373(2) 0.5377(3) 0.14101(19)
N3 N 0.5232(2) 0.5810(2) 0.2829(2)
N4 N 0.0097(2) 0.1687(2) 0.5258(2)
N5 N 0.0692(2) 0.3327(2) 0.5479(2)
N6 N 0.3368(3) 0.6772(2) 0.5904(2)
S1 S 0.13043(10) 0.52468(13) -0.01966(12)
C1 C 0.2542(3) 0.5111(3) 0.0036(3)
C2 C 0.4741(3) 0.5485(3) 0.2036(2)
H1 H 0.4042 0.5353 0.1943
C3 C 0.6244(3) 0.5920(3) 0.2693(3)
H2 H 0.6775 0.6137 0.3114
C4 C 0.6313(3) 0.5652(3) 0.1828(3)
H3 H 0.6916 0.5653 0.1551
C5 C 0.0918(3) 0.2290(3) 0.5332(3)
H4 H 0.1576 0.2035 0.5288
C6 C -0.0353(3) 0.3376(3) 0.5491(3)
H5 H -0.0743 0.3983 0.5577
C7 C -0.0699(3) 0.2365(3) 0.5351(3)
H6 H -0.1382 0.2161 0.5323
C8 C 0.3935(3) 0.6620(3) 0.5185(2)
C9 C 0.4736(3) 0.7245(3) 0.4921(3)
H7 H 0.4979 0.7837 0.5255
C10 C 0.5149(3) 0.6946(3) 0.4142(2)
H8 H 0.5677 0.7350 0.3944
C11 C 0.4790(3) 0.6049(3) 0.3647(2)
C12 C 0.4033(3) 0.5406(3) 0.3923(2)
H9 H 0.3822 0.4792 0.3603
C13 C 0.3587(3) 0.5702(3) 0.4699(2)
C14 C 0.2770(3) 0.5261(3) 0.5172(2)
C15 C 0.2127(3) 0.4377(3) 0.5026(2)
H10 H 0.2189 0.3913 0.4547
C16 C 0.1392(3) 0.4211(3) 0.5615(3)
C17 C 0.1293(3) 0.4895(3) 0.6346(3)
H11 H 0.0799 0.4755 0.6735
C18 C 0.1923(3) 0.5776(3) 0.6492(3)
H12 H 0.1852 0.6238 0.6971
C19 C 0.2666(3) 0.5956(3) 0.5909(2)
C20 C 0.3603(3) 0.7572(3) 0.6609(3)
H13 H 0.3005 0.7681 0.6929
H14 H 0.3762 0.8247 0.6333
C21 C 0.4491(5) 0.7245(4) 0.7271(3)
H15 H 0.4315 0.6610 0.7584
H16 H 0.4647 0.7812 0.7698
H17 H 0.5077 0.7105 0.6954
Co1A Co 0.0000 0.0000 0.5000
Co1A_2 Co 1.0000 1.0000 -0.5000
N1B N 0.6586(3) 0.5002(3) -0.0180(2)
N2B N 0.4627(2) 0.4623(3) -0.14101(19)
N3B N 0.4768(2) 0.4190(2) -0.2829(2)
N4B N 0.9903(2) 0.8313(2) -0.5258(2)
N4A N 0.4903(2) 0.6687(2) -0.0258(2)
N4C N 0.5097(2) 0.3313(2) 0.0258(2)
N5B N 0.9308(2) 0.6673(2) -0.5479(2)
N6B N 0.6632(3) 0.3228(2) -0.5904(2)
S1B S 0.86957(10) 0.47532(13) 0.01966(12)
C1B C 0.7458(3) 0.4889(3) -0.0036(3)
C2B C 0.5259(3) 0.4515(3) -0.2036(2)
H1B H 0.5958 0.4647 -0.1943
C3B C 0.3756(3) 0.4080(3) -0.2693(3)
H2B H 0.3225 0.3863 -0.3114
C4B C 0.3687(3) 0.4348(3) -0.1828(3)
H3B H 0.3084 0.4347 -0.1551
C5B C 0.9082(3) 0.7710(3) -0.5332(3)
H4B H 0.8424 0.7965 -0.5288
C6B C 1.0353(3) 0.6624(3) -0.5491(3)
H5B H 1.0743 0.6017 -0.5577
C7B C 1.0699(3) 0.7635(3) -0.5351(3)
H6B H 1.1382 0.7839 -0.5323
C8B C 0.6065(3) 0.3380(3) -0.5185(2)
C9B C 0.5264(3) 0.2755(3) -0.4921(3)
H7B H 0.5021 0.2163 -0.5255
C10B C 0.4851(3) 0.3054(3) -0.4142(2)
H8B H 0.4323 0.2650 -0.3944
C11B C 0.5210(3) 0.3951(3) -0.3647(2)
C12B C 0.5967(3) 0.4594(3) -0.3923(2)
H9B H 0.6178 0.5208 -0.3603
C13B C 0.6413(3) 0.4298(3) -0.4699(2)
C14B C 0.7230(3) 0.4739(3) -0.5172(2)
C15B C 0.7873(3) 0.5623(3) -0.5026(2)
H10B H 0.7811 0.6087 -0.4547
C16B C 0.8608(3) 0.5789(3) -0.5615(3)
C17B C 0.8707(3) 0.5105(3) -0.6346(3)
H11B H 0.9201 0.5245 -0.6735
C18B C 0.8077(3) 0.4224(3) -0.6492(3)
H12B H 0.8148 0.3762 -0.6971
C19B C 0.7334(3) 0.4044(3) -0.5909(2)
C20B C 0.6397(3) 0.2428(3) -0.6609(3)
H13B H 0.6995 0.2319 -0.6929
H14B H 0.6238 0.1753 -0.6333
C21B C 0.5509(5) 0.2755(4) -0.7271(3)
H15B H 0.5685 0.3390 -0.7584
H16B H 0.5353 0.2188 -0.7698
H17B H 0.4923 0.2895 -0.6954
Cl1 Cl 0.44353(13) 0.83537(14) 0.21320(11)
Cl2 Cl 0.25389(15) 0.82706(16) 0.29238(16)
Cl3 Cl 0.33872(16) 1.02901(14) 0.25180(13)
C22 C 0.3664(4) 0.8976(5) 0.2871(4)
H18 H 0.4037 0.8996 0.3474
loop_
_geom_bond_atom_site_label_1
_geom_bond_atom_site_label_2
_geom_bond_site_symmetry_1
_geom_bond_site_symmetry_2
Co1 N1 1_555 1_555
Cl1 C22 1_555 1_555
Cl2 C22 1_555 1_555
Cl3 C22 1_555 1_555
N1 C1 1_555 1_555
N2 Co1 1_555 1_555
N3 C2 1_555 1_555
N4 C5 1_555 1_555
N5 C5 1_555 1_555
N6 C8 1_555 1_555
S1 C1 1_555 1_555
C2 N2 1_555 1_555
H1 C2 1_555 1_555
C3 N3 1_555 1_555
H2 C3 1_555 1_555
C4 N2 1_555 1_555
H3 C4 1_555 1_555
C5 H4 1_555 1_555
C6 N5 1_555 1_555
H5 C6 1_555 1_555
C7 N4 1_555 1_555
H6 C7 1_555 1_555
C8 C9 1_555 1_555
C9 H7 1_555 1_555
C10 C9 1_555 1_555
H8 C10 1_555 1_555
C11 N3 1_555 1_555
C12 C11 1_555 1_555
H9 C12 1_555 1_555
C13 C8 1_555 1_555
C14 C13 1_555 1_555
C15 C14 1_555 1_555
H10 C15 1_555 1_555
C16 N5 1_555 1_555
C17 C16 1_555 1_555
H11 C17 1_555 1_555
C18 C17 1_555 1_555
H12 C18 1_555 1_555
C19 N6 1_555 1_555
C20 N6 1_555 1_555
H13 C20 1_555 1_555
H14 C20 1_555 1_555
C21 C20 1_555 1_555
H15 C21 1_555 1_555
H16 C21 1_555 1_555
H17 C21 1_555 1_555
C22 H18 1_555 1_555
Co1A N4 1_555 1_555
Co1A_2 N4B 1_555 1_555
N1B Co1 1_555 1_555
N2B Co1 1_555 1_555
N3B C2B 1_555 1_555
N4B C5B 1_555 1_555
N4A Co1 1_555 1_555
N4C Co1 1_555 1_555
N5B C5B 1_555 1_555
N6B C8B 1_555 1_555
S1B C1B 1_555 1_555
C1B N1B 1_555 1_555
C2B N2B 1_555 1_555
H1B C2B 1_555 1_555
C3B N3B 1_555 1_555
H2B C3B 1_555 1_555
C4B N2B 1_555 1_555
H3B C4B 1_555 1_555
C5B H4B 1_555 1_555
C6B N5B 1_555 1_555
H5B C6B 1_555 1_555
C7B N4B 1_555 1_555
H6B C7B 1_555 1_555
C8B C9B 1_555 1_555
C9B H7B 1_555 1_555
C10B C9B 1_555 1_555
H8B C10B 1_555 1_555
C11B N3B 1_555 1_555
C12B C11B 1_555 1_555
H9B C12B 1_555 1_555
C13B C8B 1_555 1_555
C14B C13B 1_555 1_555
C15B C14B 1_555 1_555
H10B C15B 1_555 1_555
C16B N5B 1_555 1_555
C17B C16B 1_555 1_555
H11B C17B 1_555 1_555
C18B C17B 1_555 1_555
H12B C18B 1_555 1_555
C19B N6B 1_555 1_555
C20B N6B 1_555 1_555
H13B C20B 1_555 1_555
H14B C20B 1_555 1_555
C21B C20B 1_555 1_555
H15B C21B 1_555 1_555
H16B C21B 1_555 1_555
H17B C21B 1_555 1_555
C3 C4 1_555 1_555
C6 C7 1_555 1_555
C10 C11 1_555 1_555
C12 C13 1_555 1_555
C14 C19 1_555 1_555
C15 C16 1_555 1_555
C18 C19 1_555 1_555
C3B C4B 1_555 1_555
C6B C7B 1_555 1_555
C10B C11B 1_555 1_555
C12B C13B 1_555 1_555
C14B C19B 1_555 1_555
C15B C16B 1_555 1_555
C18B C19B 1_555 1_555

#END
