
#######################################################################
#
#                 Cambridge Crystallographic Data Centre
#                                CCDC 
#
#######################################################################
#
# If this CIF has been generated from an entry in the Cambridge 
# Structural Database, then it will include bibliographic, chemical, 
# crystal, experimental, refinement or atomic coordinate data resulting 
# from the CCDC's data processing and validation procedures.
#
#######################################################################

data_ATUYUK
_symmetry_cell_setting           monoclinic
_symmetry_space_group_name_H-M   'P 21/c'
_symmetry_Int_Tables_number      14
_space_group_name_Hall           '-P 2ybc'
loop_
_symmetry_equiv_pos_site_id
_symmetry_equiv_pos_as_xyz
1 x,y,z
2 -x,1/2+y,1/2-z
3 -x,-y,-z
4 x,1/2-y,1/2+z
_cell_length_a                   28.199(7)
_cell_length_b                   10.677(3)
_cell_length_c                   19.036(4)
_cell_angle_alpha                90
_cell_angle_beta                 102.798(13)
_cell_angle_gamma                90
_cell_volume                     5588.99
loop_
_atom_site_label
_atom_site_type_symbol
_atom_site_fract_x
_atom_site_fract_y
_atom_site_fract_z
Ag1 Ag 0.41075(6) 1.01539(16) 0.02980(8)
N1 N 0.5542(5) 1.047(2) 0.3309(13)
N2 N 0.3646(6) 1.032(2) 0.1701(10)
N3 N 0.3581(7) 1.0196(16) 0.0989(10)
N4 N 0.5198(7) 0.7001(17) 0.5303(11)
N5 N 0.5513(5) 0.5987(16) 0.5382(10)
O1 O 0.3850(4) 0.8149(14) -0.0312(8)
O2 O 0.3914(5) 0.7919(14) -0.1502(8)
O3 O 0.3282(4) 0.9226(10) -0.1259(5)
S1 S 0.3578(2) 0.8202(5) -0.1029(4)
C1 C 0.5183(5) 1.066(2) 0.2881(11)
C2 C 0.4912(4) 1.1401(18) 0.2264(9)
H4 H 0.5091 1.2013 0.2091
C3 C 0.4437(5) 1.131(2) 0.1918(12)
H5 H 0.4317 1.1820 0.1523
C4 C 0.4134(6) 1.0471(19) 0.2142(11)
C5 C 0.4369(6) 0.9858(16) 0.2789(10)
H6 H 0.4169 0.9354 0.2998
C6 C 0.4847(5) 0.990(2) 0.3151(12)
C7 C 0.5041(5) 0.9210(19) 0.3756(11)
C8 C 0.4930(6) 0.835(2) 0.4247(12)
H7 H 0.4611 0.8085 0.4209
C9 C 0.5301(5) 0.791(2) 0.4790(12)
C10 C 0.5779(5) 0.8350(17) 0.4864(10)
H8 H 0.6011 0.8154 0.5277
C11 C 0.5909(7) 0.9073(16) 0.4327(9)
H9 H 0.6231 0.9202 0.4302
C12 C 0.5522(5) 0.959(2) 0.3834(14)
C13 C 0.3130(6) 0.9977(12) 0.0753(9)
H10 H 0.2981 0.9853 0.0271
C14 C 0.2900(6) 0.9951(11) 0.1300(8)
H11 H 0.2568 0.9835 0.1263
C15 C 0.3233(6) 1.0120(13) 0.1898(9)
H12 H 0.3186 1.0101 0.2366
C16 C 0.5350(7) 0.5379(18) 0.5913(12)
H13 H 0.5437 0.4572 0.6076
C17 C 0.5036(5) 0.6151(18) 0.6169(10)
H14 H 0.4924 0.5964 0.6581
C18 C 0.4899(6) 0.7235(17) 0.5766(11)
H15 H 0.4683 0.7880 0.5799
C19 C 0.6006(8) 1.0926(18) 0.3104(10)
H16 H 0.6260 1.0302 0.3244
H17 H 0.5947 1.1031 0.2586
C20 C 0.6175(7) 1.2149(18) 0.3467(8)
H18 H 0.6465 1.2419 0.3324
H19 H 0.6244 1.2040 0.3980
H20 H 0.5925 1.2769 0.3327
C21 C 0.3206(2) 0.6880(7) -0.1235(4)
C22 C 0.3384(4) 0.5707(13) -0.0944(7)
H21 H 0.3705 0.5655 -0.0690
C23 C 0.3114(4) 0.4687(14) -0.1017(7)
H22 H 0.3228 0.3946 -0.0782
C24 C 0.2620(2) 0.4775(5) -0.1491(4)
C25 C 0.24619(19) 0.5895(6) -0.1778(4)
H23 H 0.2152 0.5952 -0.2075
C26 C 0.2744(2) 0.6954(5) -0.1647(3)
H24 H 0.2620 0.7720 -0.1837
C27 C 0.2303(3) 0.3600(7) -0.1612(6)
H25 H 0.2480 0.2909 -0.1356
H26 H 0.2217 0.3410 -0.2117
H27 H 0.2013 0.3742 -0.1438
Ag1A Ag 0.58925(6) 0.51539(16) 0.47020(8)
N5A N 0.4487(5) 1.0987(16) -0.0382(10)
Ag2 Ag 0.91096(9) 0.5144(2) 0.52946(13)
N6 N 1.0640(5) 0.548(2) 0.8287(12)
N7 N 0.8731(5) 0.5472(18) 0.6760(9)
N8 N 0.8622(7) 0.5436(16) 0.6018(10)
N9 N 1.0265(7) 0.2122(17) 1.0305(12)
N10 N 1.0421(5) 0.0886(14) 1.0443(9)
O4 O 0.8988(3) 0.3021(14) 0.4679(9)
O5 O 0.8297(3) 0.4229(8) 0.4098(4)
O6 O 0.8780(5) 0.3037(16) 0.3398(6)
S2 S 0.8595(2) 0.3101(4) 0.4017(3)
C28 C 1.0082(5) 0.5608(19) 0.7877(10)
C29 C 1.0032(4) 0.6423(17) 0.7297(9)
H28 H 1.0277 0.6895 0.7169
C30 C 0.9545(4) 0.6396(18) 0.6945(11)
H29 H 0.9435 0.6922 0.6553
C31 C 0.9217(6) 0.5587(19) 0.7170(11)
C32 C 0.9280(5) 0.4725(14) 0.7742(8)
H30 H 0.9047 0.4181 0.7844
C33 C 0.9759(5) 0.485(2) 0.8126(12)
C34 C 1.0130(5) 0.4269(19) 0.8779(11)
C35 C 1.0005(6) 0.339(2) 0.9260(13)
H31 H 0.9685 0.3134 0.9225
C36 C 1.0382(5) 0.294(2) 0.9787(13)
C37 C 1.0861(6) 0.3238(17) 0.9832(11)
H32 H 1.1108 0.2792 1.0133
C38 C 1.0967(7) 0.4224(15) 0.9416(8)
H33 H 1.1273 0.4595 0.9519
C39 C 1.0608(5) 0.465(2) 0.8843(13)
C40 C 0.8124(6) 0.5303(12) 0.5836(8)
H34 H 0.7946 0.5239 0.5364
C41 C 0.7916(5) 0.5276(12) 0.6432(7)
H35 H 0.7589 0.5198 0.6442
C42 C 0.8307(5) 0.5389(13) 0.7004(8)
H36 H 0.8288 0.5408 0.7486
C43 C 1.0268(7) 0.0455(16) 1.0989(10)
H37 H 1.0373 -0.0303 1.1211
C44 C 0.9933(5) 0.1224(15) 1.1214(9)
H38 H 0.9738 0.1116 1.1545
C45 C 0.9993(6) 0.2218(17) 1.0765(12)
H39 H 0.9832 0.2969 1.0798
C46 C 1.1077(7) 0.6053(17) 0.8211(8)
H40 H 1.1040 0.6304 0.7712
H41 H 1.1333 0.5431 0.8313
C47 C 1.1235(8) 0.7171(18) 0.8679(7)
H42 H 1.1539 0.7475 0.8598
H43 H 1.1275 0.6938 0.9176
H44 H 1.0994 0.7817 0.8564
C48 C 0.8204(3) 0.1797(8) 0.4141(5)
C49 C 0.8309(6) 0.0646(19) 0.3936(9)
H45 H 0.8601 0.0534 0.3793
C50 C 0.8010(6) -0.0386(17) 0.3927(10)
H46 H 0.8038 -0.1097 0.3657
C51 C 0.7665(3) -0.0295(8) 0.4346(5)
C52 C 0.7586(3) 0.0827(8) 0.4635(5)
H47 H 0.7341 0.0898 0.4889
C53 C 0.7859(3) 0.1854(8) 0.4559(5)
H48 H 0.7814 0.2598 0.4790
C54 C 0.7362(4) -0.1450(9) 0.4425(7)
H49 H 0.7470 -0.2145 0.4180
H50 H 0.7026 -0.1284 0.4218
H51 H 0.7401 -0.1649 0.4926
Ag2A Ag 1.08904(9) 0.0144(2) 0.97054(13)
N10A N 0.9579(5) 0.5886(14) 0.4557(9)
O7 O 0.1576(3) 0.1750(5) 0.1257(4)
H1 H 0.1576 0.0996 0.1174
C55 C 0.1308(3) 0.1991(8) 0.1830(5)
H52 H 0.1485 0.1643 0.2276
H53 H 0.0992 0.1609 0.1700
H54 H 0.1272 0.2877 0.1884
O8 O 0.3324(7) 0.1727(13) 0.8380(10)
H2 H 0.3268 0.1095 0.8089
H3 H 0.3360 0.1374 0.8796
loop_
_geom_bond_atom_site_label_1
_geom_bond_atom_site_label_2
_geom_bond_site_symmetry_1
_geom_bond_site_symmetry_2
Ag1 N3 1_555 1_555
Ag2 N8 1_555 1_555
N1 C1 1_555 1_555
N2 N3 1_555 1_555
N3 C13 1_555 1_555
N4 N5 1_555 1_555
N5 C16 1_555 1_555
N6 C28 1_555 1_555
N7 N8 1_555 1_555
N8 C40 1_555 1_555
N9 N10 1_555 1_555
N10 C43 1_555 1_555
O1 Ag1 1_555 1_555
O2 S1 1_555 1_555
O3 S1 1_555 1_555
O4 Ag2 1_555 1_555
O5 S2 1_555 1_555
O6 S2 1_555 1_555
O7 H1 1_555 1_555
O8 H2 1_555 1_555
H3 O8 1_555 1_555
S1 O1 1_555 1_555
S2 O4 1_555 1_555
C1 C2 1_555 1_555
C2 H4 1_555 1_555
C3 C2 1_555 1_555
H5 C3 1_555 1_555
C4 N2 1_555 1_555
C5 C4 1_555 1_555
H6 C5 1_555 1_555
C6 C1 1_555 1_555
C7 C6 1_555 1_555
C8 C7 1_555 1_555
H7 C8 1_555 1_555
C9 N4 1_555 1_555
C10 C9 1_555 1_555
H8 C10 1_555 1_555
C11 C10 1_555 1_555
H9 C11 1_555 1_555
C12 N1 1_555 1_555
C13 H10 1_555 1_555
C14 C13 1_555 1_555
H11 C14 1_555 1_555
C15 N2 1_555 1_555
H12 C15 1_555 1_555
C16 H13 1_555 1_555
C17 C16 1_555 1_555
H14 C17 1_555 1_555
C18 N4 1_555 1_555
H15 C18 1_555 1_555
C19 N1 1_555 1_555
H16 C19 1_555 1_555
H17 C19 1_555 1_555
C20 C19 1_555 1_555
H18 C20 1_555 1_555
H19 C20 1_555 1_555
H20 C20 1_555 1_555
C21 S1 1_555 1_555
C22 C21 1_555 1_555
H21 C22 1_555 1_555
C23 C22 1_555 1_555
H22 C23 1_555 1_555
C24 C23 1_555 1_555
C25 C24 1_555 1_555
H23 C25 1_555 1_555
C26 C21 1_555 1_555
H24 C26 1_555 1_555
C27 C24 1_555 1_555
H25 C27 1_555 1_555
H26 C27 1_555 1_555
H27 C27 1_555 1_555
C28 C29 1_555 1_555
C29 H28 1_555 1_555
C30 C29 1_555 1_555
H29 C30 1_555 1_555
C31 N7 1_555 1_555
C32 C31 1_555 1_555
H30 C32 1_555 1_555
C33 C28 1_555 1_555
C34 C33 1_555 1_555
C35 C34 1_555 1_555
H31 C35 1_555 1_555
C36 N9 1_555 1_555
C37 C36 1_555 1_555
H32 C37 1_555 1_555
C38 C37 1_555 1_555
H33 C38 1_555 1_555
C39 N6 1_555 1_555
C40 H34 1_555 1_555
C41 C40 1_555 1_555
H35 C41 1_555 1_555
C42 N7 1_555 1_555
H36 C42 1_555 1_555
C43 H37 1_555 1_555
C44 C43 1_555 1_555
H38 C44 1_555 1_555
C45 N9 1_555 1_555
H39 C45 1_555 1_555
C46 N6 1_555 1_555
H40 C46 1_555 1_555
H41 C46 1_555 1_555
C47 C46 1_555 1_555
H42 C47 1_555 1_555
H43 C47 1_555 1_555
H44 C47 1_555 1_555
C48 S2 1_555 1_555
C49 C48 1_555 1_555
H45 C49 1_555 1_555
C50 C49 1_555 1_555
H46 C50 1_555 1_555
C51 C50 1_555 1_555
C52 C51 1_555 1_555
H47 C52 1_555 1_555
C53 C48 1_555 1_555
H48 C53 1_555 1_555
C54 C51 1_555 1_555
H49 C54 1_555 1_555
H50 C54 1_555 1_555
H51 C54 1_555 1_555
C55 O7 1_555 1_555
H52 C55 1_555 1_555
H53 C55 1_555 1_555
H54 C55 1_555 1_555
Ag1A N5 1_555 1_555
Ag2A N10 1_555 1_555
N5A Ag1 1_555 1_555
N10A Ag2 1_555 1_555
C3 C4 1_555 1_555
C5 C6 1_555 1_555
C7 C12 1_555 1_555
C8 C9 1_555 1_555
C11 C12 1_555 1_555
C14 C15 1_555 1_555
C17 C18 1_555 1_555
C25 C26 1_555 1_555
C30 C31 1_555 1_555
C32 C33 1_555 1_555
C34 C39 1_555 1_555
C35 C36 1_555 1_555
C38 C39 1_555 1_555
C41 C42 1_555 1_555
C44 C45 1_555 1_555
C52 C53 1_555 1_555

#END
