
#######################################################################
#
#                 Cambridge Crystallographic Data Centre
#                                CCDC 
#
#######################################################################
#
# If this CIF has been generated from an entry in the Cambridge 
# Structural Database, then it will include bibliographic, chemical, 
# crystal, experimental, refinement or atomic coordinate data resulting 
# from the CCDC's data processing and validation procedures.
#
#######################################################################

data_ATUZUL
_symmetry_cell_setting           triclinic
_symmetry_space_group_name_H-M   'P -1'
_symmetry_Int_Tables_number      2
_space_group_name_Hall           '-P 1'
loop_
_symmetry_equiv_pos_site_id
_symmetry_equiv_pos_as_xyz
1 x,y,z
2 -x,-y,-z
_cell_length_a                   7.0462(2)
_cell_length_b                   9.8461(3)
_cell_length_c                   13.7673(5)
_cell_angle_alpha                105.834(2)
_cell_angle_beta                 94.917(2)
_cell_angle_gamma                108.076(2)
_cell_volume                     858.258
loop_
_atom_site_label
_atom_site_type_symbol
_atom_site_fract_x
_atom_site_fract_y
_atom_site_fract_z
Sn1 Sn -0.2927(9) 0.8229(7) 0.0724(4)
Cu1 Cu -0.6168(9) 0.5048(7) -0.3174(4)
Cu2 Cu 0.1724(9) 0.9960(7) 0.4363(4)
C1 C -0.1407(9) 0.6665(7) 0.0392(4)
N1 N -0.6752(9) 0.2958(7) -0.3949(4)
C2 C -0.7505(9) 0.5884(7) -0.5169(4)
C3 C -0.7963(9) 0.6898(7) -0.5645(4)
C4 C -0.8833(9) 0.6351(7) -0.6700(4)
N2 N -0.6630(9) 0.6383(7) -0.4143(4)
C5 C -0.5442(9) 0.7711(7) 0.1461(4)
C6 C -0.5375(9) 0.6317(7) -0.1783(4)
C7 C -0.2141(9) 1.0330(7) 0.0438(4)
C8 C -0.7919(9) 0.4383(7) -0.5757(4)
N3 N -0.7527(9) 0.8381(7) -0.5097(4)
C9 C -0.6216(9) 0.7819(7) -0.3650(4)
C10 C 0.0345(9) 0.9650(7) 0.3034(4)
C11 C -0.9251(9) 0.4900(7) -0.7248(4)
C12 C -0.8775(9) 0.3884(7) -0.6786(4)
C13 C -0.7213(9) 0.1754(7) -0.4493(4)
N4 N -0.0662(9) 0.9427(7) 0.2287(4)
C14 C -0.6631(9) 0.8820(7) -0.4129(4)
N5 N -0.4872(9) 0.7043(7) -0.0939(4)
H1 H -0.913110 0.702400 -0.702890
H2 H -0.760050 0.370240 -0.544310
H3 H -0.558820 0.821850 -0.293610
H4 H -0.986280 0.454020 -0.796270
H5 H -0.905990 0.285230 -0.718150
H6 H -0.622970 0.986370 -0.373210
H7 H -0.599500 0.850580 0.157640
H8 H -0.501400 0.760060 0.210750
H9 H -0.646160 0.678540 0.103310
H10 H -0.030170 0.703980 0.006210
H11 H -0.233480 0.571670 -0.006090
H12 H -0.088710 0.653180 0.101340
H13 H -0.308330 1.081430 0.067250
H14 H -0.220600 1.016620 -0.028640
H15 H -0.078940 1.095970 0.079750
Cu2_2 Cu -0.8276(9) 0.9960(7) -0.5637(4)
Cu2_3 Cu -0.8276(9) -0.0040(7) -0.5637(4)
N3_2 N 0.2473(9) 0.8381(7) 0.4903(4)
C13_2 C 0.2787(9) 1.1754(7) 0.5507(4)
loop_
_geom_bond_atom_site_label_1
_geom_bond_atom_site_label_2
_geom_bond_site_symmetry_1
_geom_bond_site_symmetry_2
Sn1 C1 1_555 1_555
Cu1 N1 1_555 1_555
Cu2 C10 1_555 1_555
C1 H10 1_555 1_555
N1 C13 1_555 1_555
C2 C3 1_555 1_555
C3 C4 1_555 1_555
C4 C11 1_555 1_555
N2 Cu1 1_555 1_555
C5 Sn1 1_555 1_555
C6 Cu1 1_555 1_555
C7 Sn1 1_555 1_555
C8 C2 1_555 1_555
N3 C3 1_555 1_555
C9 N2 1_555 1_555
C10 N4 1_555 1_555
C11 C12 1_555 1_555
C12 C8 1_555 1_555
C13 Cu2_3 1_555 1_555
N4 Sn1 1_555 1_555
C14 N3 1_555 1_555
N5 Sn1 1_555 1_555
H1 C4 1_555 1_555
H2 C8 1_555 1_555
H3 C9 1_555 1_555
H4 C11 1_555 1_555
H5 C12 1_555 1_555
H6 C14 1_555 1_555
H7 C5 1_555 1_555
H8 C5 1_555 1_555
H9 C5 1_555 1_555
H11 C1 1_555 1_555
H12 C1 1_555 1_555
H13 C7 1_555 1_555
H14 C7 1_555 1_555
H15 C7 1_555 1_555
Cu2_2 N3 1_555 1_555
N3_2 Cu2 1_555 1_555
C13_2 Cu2 1_555 1_555
C2 N2 1_555 1_555
C6 N5 1_555 1_555
C9 C14 1_555 1_555

#END
