
#######################################################################
#
#                 Cambridge Crystallographic Data Centre
#                                CCDC 
#
#######################################################################
#
# If this CIF has been generated from an entry in the Cambridge 
# Structural Database, then it will include bibliographic, chemical, 
# crystal, experimental, refinement or atomic coordinate data resulting 
# from the CCDC's data processing and validation procedures.
#
#######################################################################

data_ATUZAR
_symmetry_cell_setting           orthorhombic
_symmetry_space_group_name_H-M   'P 21 21 21'
_symmetry_Int_Tables_number      19
_space_group_name_Hall           'P 2ac 2ab'
loop_
_symmetry_equiv_pos_site_id
_symmetry_equiv_pos_as_xyz
1 x,y,z
2 1/2-x,-y,1/2+z
3 -x,1/2+y,1/2-z
4 1/2+x,1/2-y,-z
_cell_length_a                   7.6381(13)
_cell_length_b                   17.050(3)
_cell_length_c                   17.623(3)
_cell_angle_alpha                90
_cell_angle_beta                 90
_cell_angle_gamma                90
_cell_volume                     2295.04
loop_
_atom_site_label
_atom_site_type_symbol
_atom_site_fract_x
_atom_site_fract_y
_atom_site_fract_z
Cd1 Cd 0.67204(7) 0.72341(3) 0.24623(3)
I1 I 0.79090(7) 0.61336(3) 0.34495(3)
I2 I 0.50004(11) 0.67677(3) 0.11892(3)
N1 N 0.8161(9) 0.9656(3) 0.5014(3)
N2 N 0.9968(9) 0.8522(3) 0.2186(3)
N3 N 0.9012(9) 0.7913(4) 0.1916(3)
N4 N 0.9177(8) 0.6779(3) 0.6397(3)
N5 N 1.0109(8) 0.6753(3) 0.7051(3)
C1 C 0.8663(10) 0.9483(4) 0.4286(4)
C2 C 0.8837(11) 0.9975(4) 0.3658(4)
H1 H 0.8623 1.0511 0.3700
C3 C 0.9328(11) 0.9654(4) 0.2981(4)
H2 H 0.9479 0.9975 0.2559
C4 C 0.9606(10) 0.8842(4) 0.2917(4)
C5 C 0.9510(9) 0.8348(4) 0.3533(4)
H3 H 0.9762 0.7816 0.3489
C6 C 0.9023(9) 0.8674(4) 0.4224(4)
C7 C 0.8802(9) 0.8352(4) 0.4980(4)
C8 C 0.9125(9) 0.7612(4) 0.5284(4)
H4 H 0.9539 0.7202 0.4985
C9 C 0.8804(9) 0.7515(4) 0.6046(4)
C10 C 0.8156(9) 0.8126(4) 0.6500(4)
H5 H 0.7891 0.8032 0.7007
C11 C 0.7910(10) 0.8858(4) 0.6204(4)
H6 H 0.7522 0.9269 0.6507
C12 C 0.8252(9) 0.8972(4) 0.5445(4)
C13 C 0.9647(13) 0.7783(5) 0.1224(4)
H7 H 0.9263 0.7387 0.0901
C14 C 1.0955(12) 0.8316(6) 0.1050(5)
H8 H 1.1589 0.8351 0.0601
C15 C 1.1115(11) 0.8768(5) 0.1664(5)
H9 H 1.1891 0.9185 0.1719
C16 C 1.0175(12) 0.5991(4) 0.7226(4)
H10 H 1.0736 0.5791 0.7653
C17 C 0.9320(12) 0.5543(5) 0.6703(5)
H11 H 0.9193 0.5000 0.6703
C18 C 0.8688(10) 0.6062(4) 0.6179(5)
H12 H 0.8037 0.5938 0.5749
C19 C 0.7849(14) 1.0439(4) 0.5308(5)
H13 H 0.7121 1.0409 0.5758
H14 H 0.7236 1.0749 0.4931
C20 C 0.9607(17) 1.0833(5) 0.5506(6)
H15 H 0.9393 1.1352 0.5695
H16 H 1.0322 1.0863 0.5059
H17 H 1.0199 1.0530 0.5886
Cd1C Cd 1.17204(7) 0.77659(3) 0.75377(3)
N5C N 0.5109(8) 0.8247(3) 0.2949(3)
loop_
_geom_bond_atom_site_label_1
_geom_bond_atom_site_label_2
_geom_bond_site_symmetry_1
_geom_bond_site_symmetry_2
Cd1 I1 1_555 1_555
I2 Cd1 1_555 1_555
N1 C1 1_555 1_555
N2 N3 1_555 1_555
N3 Cd1 1_555 1_555
N4 N5 1_555 1_555
N5 C16 1_555 1_555
C1 C2 1_555 1_555
C2 H1 1_555 1_555
C3 C2 1_555 1_555
H2 C3 1_555 1_555
C4 N2 1_555 1_555
C5 C4 1_555 1_555
H3 C5 1_555 1_555
C6 C1 1_555 1_555
C7 C6 1_555 1_555
C8 C7 1_555 1_555
H4 C8 1_555 1_555
C9 N4 1_555 1_555
C10 C9 1_555 1_555
H5 C10 1_555 1_555
C11 C10 1_555 1_555
H6 C11 1_555 1_555
C12 N1 1_555 1_555
C13 N3 1_555 1_555
H7 C13 1_555 1_555
C14 C13 1_555 1_555
H8 C14 1_555 1_555
C15 N2 1_555 1_555
H9 C15 1_555 1_555
C16 H10 1_555 1_555
C17 C16 1_555 1_555
H11 C17 1_555 1_555
C18 N4 1_555 1_555
H12 C18 1_555 1_555
C19 N1 1_555 1_555
H13 C19 1_555 1_555
H14 C19 1_555 1_555
C20 C19 1_555 1_555
H15 C20 1_555 1_555
H16 C20 1_555 1_555
H17 C20 1_555 1_555
Cd1C N5 1_555 1_555
N5C Cd1 1_555 1_555
C3 C4 1_555 1_555
C5 C6 1_555 1_555
C7 C12 1_555 1_555
C8 C9 1_555 1_555
C11 C12 1_555 1_555
C14 C15 1_555 1_555
C17 C18 1_555 1_555

#END
