
#######################################################################
#
#                 Cambridge Crystallographic Data Centre
#                                CCDC 
#
#######################################################################
#
# If this CIF has been generated from an entry in the Cambridge 
# Structural Database, then it will include bibliographic, chemical, 
# crystal, experimental, refinement or atomic coordinate data resulting 
# from the CCDC's data processing and validation procedures.
#
#######################################################################

data_AVAJUD
_symmetry_cell_setting           triclinic
_symmetry_space_group_name_H-M   'P -1'
_symmetry_Int_Tables_number      2
_space_group_name_Hall           '-P 1'
loop_
_symmetry_equiv_pos_site_id
_symmetry_equiv_pos_as_xyz
1 x,y,z
2 -x,-y,-z
_cell_length_a                   6.978(5)
_cell_length_b                   8.689(6)
_cell_length_c                   13.950(10)
_cell_angle_alpha                100.995(8)
_cell_angle_beta                 100.164(8)
_cell_angle_gamma                101.649(8)
_cell_volume                     792.597
loop_
_atom_site_label
_atom_site_type_symbol
_atom_site_fract_x
_atom_site_fract_y
_atom_site_fract_z
Pb1 Pb 0.29329(10) 0.55394(8) 0.08464(5)
O1 O 0.073(2) 0.7298(19) 0.0074(12)
O2 O -0.055(3) 0.6383(18) -0.1554(14)
O3 O 0.454(2) 1.3068(18) 0.0331(13)
O4 O 0.425(3) 1.181(2) -0.1226(13)
N1 N 0.223(2) 0.717(2) 0.2425(13)
N2 N 0.529(2) 0.5634(19) 0.2498(13)
N3 N 0.690(3) 0.721(2) 0.6100(15)
N4 N 0.382(3) 0.890(2) 0.6026(15)
C1 C 0.071(3) 0.790(3) 0.2367(17)
H1 H -0.0056 0.7851 0.1740
C2 C 0.024(3) 0.874(3) 0.3227(16)
H2 H -0.0810 0.9252 0.3167
C3 C 0.132(3) 0.879(2) 0.4142(16)
H3 H 0.1016 0.9324 0.4716
C4 C 0.292(3) 0.802(3) 0.4220(16)
C5 C 0.331(3) 0.719(2) 0.3321(16)
C6 C 0.497(3) 0.640(2) 0.3363(16)
C7 C 0.615(3) 0.644(2) 0.4297(16)
C8 C 0.777(3) 0.566(3) 0.4284(17)
H4 H 0.8626 0.5678 0.4882
C9 C 0.805(3) 0.490(3) 0.3423(16)
H5 H 0.9088 0.4376 0.3418
C10 C 0.679(3) 0.490(3) 0.2507(17)
H6 H 0.7006 0.4371 0.1904
C11 C 0.417(3) 0.806(3) 0.5192(16)
C12 C 0.574(3) 0.725(3) 0.5209(17)
C13 C 0.496(3) 0.885(3) 0.6889(18)
H7 H 0.4751 0.9389 0.7489
C14 C 0.646(3) 0.800(3) 0.6910(18)
H8 H 0.7202 0.7995 0.7532
C15 C 0.055(3) 0.743(2) -0.0824(16)
C16 C 0.179(3) 0.890(2) -0.1033(16)
H9 H 0.0971 0.9219 -0.1563
H10 H 0.2909 0.8609 -0.1283
C17 C 0.261(3) 1.035(2) -0.0151(16)
H11 H 0.1484 1.0646 0.0096
H12 H 0.3417 1.0030 0.0380
C18 C 0.388(3) 1.186(2) -0.0369(17)
Pb1A Pb -0.29329(10) 0.44606(8) -0.08464(5)
Pb1_2 Pb 0.29329(10) 1.55394(8) 0.08464(5)
Pb1A_2 Pb 0.70671(10) 1.44606(8) -0.08464(5)
O2A O 0.055(3) 0.3617(18) 0.1554(14)
O3_2 O 0.454(2) 0.3068(18) 0.0331(13)
O4A O 0.575(3) 0.819(2) 0.1226(13)
loop_
_geom_bond_atom_site_label_1
_geom_bond_atom_site_label_2
_geom_bond_site_symmetry_1
_geom_bond_site_symmetry_2
Pb1 O1 1_555 1_555
O1 C15 1_555 1_555
O2 C15 1_555 1_555
O3 C18 1_555 1_555
O4 C18 1_555 1_555
N1 Pb1 1_555 1_555
N2 Pb1 1_555 1_555
N3 C12 1_555 1_555
N4 C11 1_555 1_555
C1 N1 1_555 1_555
H1 C1 1_555 1_555
C2 C1 1_555 1_555
H2 C2 1_555 1_555
C3 C2 1_555 1_555
H3 C3 1_555 1_555
C4 C3 1_555 1_555
C5 N1 1_555 1_555
C6 N2 1_555 1_555
C7 C6 1_555 1_555
C8 C7 1_555 1_555
H4 C8 1_555 1_555
C9 C8 1_555 1_555
H5 C9 1_555 1_555
C10 N2 1_555 1_555
H6 C10 1_555 1_555
C11 C4 1_555 1_555
C12 C7 1_555 1_555
C13 N4 1_555 1_555
H7 C13 1_555 1_555
C14 N3 1_555 1_555
H8 C14 1_555 1_555
C15 C16 1_555 1_555
C16 H9 1_555 1_555
H10 C16 1_555 1_555
C17 C16 1_555 1_555
H11 C17 1_555 1_555
H12 C17 1_555 1_555
C18 C17 1_555 1_555
Pb1A O2 1_555 1_555
Pb1_2 O3 1_555 1_555
Pb1A_2 O4 1_555 1_555
O2A Pb1 1_555 1_555
O3_2 Pb1 1_555 1_555
O4A Pb1 1_555 1_555
C4 C5 1_555 1_555
C5 C6 1_555 1_555
C9 C10 1_555 1_555
C11 C12 1_555 1_555
C13 C14 1_555 1_555

#END
