
#######################################################################
#
#                 Cambridge Crystallographic Data Centre
#                                CCDC 
#
#######################################################################
#
# If this CIF has been generated from an entry in the Cambridge 
# Structural Database, then it will include bibliographic, chemical, 
# crystal, experimental, refinement or atomic coordinate data resulting 
# from the CCDC's data processing and validation procedures.
#
#######################################################################

data_AVAJEN
_symmetry_cell_setting           monoclinic
_symmetry_space_group_name_H-M   'C c'
_symmetry_Int_Tables_number      9
_space_group_name_Hall           'C -2yc'
loop_
_symmetry_equiv_pos_site_id
_symmetry_equiv_pos_as_xyz
1 x,y,z
2 x,-y,1/2+z
3 1/2+x,1/2+y,z
4 1/2+x,1/2-y,1/2+z
_cell_length_a                   22.753(5)
_cell_length_b                   13.233(3)
_cell_length_c                   10.132(2)
_cell_angle_alpha                90
_cell_angle_beta                 101.96(3)
_cell_angle_gamma                90
_cell_volume                     2984.43
loop_
_atom_site_label
_atom_site_type_symbol
_atom_site_fract_x
_atom_site_fract_y
_atom_site_fract_z
Ni1 Ni 0.99794(8) 0.95503(3) 0.74843(18)
C1 C 0.8681(4) 0.9805(8) 0.5990(9)
C2 C 0.8159(4) 0.9291(8) 0.5031(10)
C3 C 0.7579(5) 0.9615(8) 0.5070(12)
H1 H 0.7514 1.0151 0.5616
C4 C 0.7099(4) 0.9104(10) 0.4257(12)
C5 C 0.7195(4) 0.8370(9) 0.3401(12)
H2 H 0.6871 0.8078 0.2815
C6 C 0.7768(4) 0.8051(8) 0.3388(10)
C7 C 0.8250(4) 0.8503(8) 0.4215(9)
H3 H 0.8637 0.8277 0.4222
C8 C 1.1278(4) 0.9794(8) 0.8988(10)
C9 C 1.1789(4) 0.9287(8) 0.9908(9)
C10 C 1.2380(6) 0.9591(8) 0.9979(13)
H4 H 1.2459 1.0113 0.9425
C11 C 1.2839(4) 0.9148(9) 1.0827(11)
C12 C 1.2780(4) 0.8332(10) 1.1653(11)
H5 H 1.3105 0.8008 1.2197
C13 C 1.2194(5) 0.8051(9) 1.1585(10)
C14 C 1.1702(4) 0.8479(8) 1.0730(9)
H6 H 1.1317 0.8229 1.0704
C15 C 1.0048(4) 0.7689(7) 0.5848(10)
H7 H 0.9652 0.7556 0.5906
C16 C 1.0908(4) 0.8400(7) 0.6082(8)
H8 H 1.1220 0.8858 0.6336
C17 C 1.0910(4) 0.7590(9) 0.5331(11)
H9 H 1.1229 0.7363 0.4966
C18 C 1.0123(4) 0.6406(5) 0.4144(9)
H10 H 0.9741 0.6169 0.4309
H11 H 1.0395 0.5833 0.4280
C19 C 1.0021(8) 0.6700(4) 0.2624(12)
H12 H 1.0403 0.6908 0.2432
H13 H 0.9756 0.7282 0.2475
C20 C 0.9770(3) 0.5923(5) 0.1667(6)
H14 H 0.9952 0.5285 0.2004
H15 H 0.9344 0.5873 0.1669
C21 C 0.9830(4) 0.6025(6) 0.0260(9)
H16 H 0.9584 0.5526 -0.0302
H17 H 1.0245 0.5929 0.0189
C22 C 0.9055(4) 0.7542(8) -0.0332(9)
H18 H 0.8737 0.7318 0.0037
C23 C 0.9073(4) 0.8376(8) -0.1141(9)
H19 H 0.8749 0.8807 -0.1421
C24 C 0.9940(4) 0.7693(7) -0.0901(7)
H20 H 1.0333 0.7550 -0.0970
N1 N 0.6479(5) 0.9414(11) 0.4196(15)
N2 N 0.7865(5) 0.7211(7) 0.2500(11)
N3 N 1.3453(4) 0.9455(8) 1.0703(14)
N4 N 1.2089(5) 0.7204(10) 1.2445(11)
N5 N 1.0352(3) 0.8437(6) 0.6420(7)
N6 N 1.0354(4) 0.7137(6) 0.5179(7)
N7 N 0.9615(3) 0.7119(6) -0.0198(9)
N8 N 0.9621(3) 0.8501(6) -0.1488(7)
O1 O 0.9210(3) 0.9489(4) 0.5949(6)
O2 O 0.8547(3) 1.0479(5) 0.6737(7)
O3 O 0.6427(4) 1.0045(12) 0.5090(17)
O4 O 0.6077(4) 0.8916(9) 0.3628(15)
O5 O 0.7454(4) 0.6901(10) 0.1692(12)
O6 O 0.8337(4) 0.6867(8) 0.2675(12)
O7 O 1.0765(3) 0.9492(4) 0.9053(7)
O8 O 1.1394(3) 1.0467(5) 0.8235(7)
O9 O 1.3527(4) 1.0145(10) 1.0008(15)
O10 O 1.3870(3) 0.9067(9) 1.1532(13)
O11 O 1.2493(5) 0.6989(12) 1.3400(13)
O12 O 1.1575(5) 0.6836(8) 1.2281(11)
O13 O 1.0376(3) 1.0736(5) 0.6516(6)
O14 O 0.9624(3) 1.0685(5) 0.8419(5)
Ni1_2 Ni 0.99794(8) 0.95503(3) -0.25157(18)
N8_2 N 0.9621(3) 0.8501(6) 0.8512(7)
loop_
_geom_bond_atom_site_label_1
_geom_bond_atom_site_label_2
_geom_bond_site_symmetry_1
_geom_bond_site_symmetry_2
Ni1 N5 1_555 1_555
C1 C2 1_555 1_555
C2 C3 1_555 1_555
C3 H1 1_555 1_555
C4 C3 1_555 1_555
C5 C4 1_555 1_555
H2 C5 1_555 1_555
C6 C5 1_555 1_555
C7 C2 1_555 1_555
H3 C7 1_555 1_555
C8 C9 1_555 1_555
C9 C10 1_555 1_555
C10 H4 1_555 1_555
C11 C10 1_555 1_555
C12 C11 1_555 1_555
H5 C12 1_555 1_555
C13 C12 1_555 1_555
C14 C9 1_555 1_555
H6 C14 1_555 1_555
C15 H7 1_555 1_555
C16 H8 1_555 1_555
C17 C16 1_555 1_555
H9 C17 1_555 1_555
C18 H10 1_555 1_555
H11 C18 1_555 1_555
C19 C18 1_555 1_555
H12 C19 1_555 1_555
H13 C19 1_555 1_555
C20 C19 1_555 1_555
H14 C20 1_555 1_555
H15 C20 1_555 1_555
C21 C20 1_555 1_555
H16 C21 1_555 1_555
H17 C21 1_555 1_555
C22 H18 1_555 1_555
C23 C22 1_555 1_555
H19 C23 1_555 1_555
C24 H20 1_555 1_555
N1 C4 1_555 1_555
N2 C6 1_555 1_555
N3 C11 1_555 1_555
N4 C13 1_555 1_555
N5 C15 1_555 1_555
N6 C15 1_555 1_555
N7 C21 1_555 1_555
N8 C23 1_555 1_555
O1 Ni1 1_555 1_555
O2 C1 1_555 1_555
O3 N1 1_555 1_555
O4 N1 1_555 1_555
O5 N2 1_555 1_555
O6 N2 1_555 1_555
O7 Ni1 1_555 1_555
O8 C8 1_555 1_555
O9 N3 1_555 1_555
O10 N3 1_555 1_555
O11 N4 1_555 1_555
O12 N4 1_555 1_555
O13 Ni1 1_555 1_555
O14 Ni1 1_555 1_555
Ni1_2 N8 1_555 1_555
N8_2 Ni1 1_555 1_555
C1 O1 1_555 1_555
C6 C7 1_555 1_555
C8 O7 1_555 1_555
C13 C14 1_555 1_555
C16 N5 1_555 1_555
C17 N6 1_555 1_555
C18 N6 1_555 1_555
C22 N7 1_555 1_555
C24 N7 1_555 1_555
C24 N8 1_555 1_555

#END
