
#######################################################################
#
#                 Cambridge Crystallographic Data Centre
#                                CCDC 
#
#######################################################################
#
# If this CIF has been generated from an entry in the Cambridge 
# Structural Database, then it will include bibliographic, chemical, 
# crystal, experimental, refinement or atomic coordinate data resulting 
# from the CCDC's data processing and validation procedures.
#
#######################################################################

data_AVAPAO
_symmetry_cell_setting           monoclinic
_symmetry_space_group_name_H-M   'C 2/c'
_symmetry_Int_Tables_number      15
_space_group_name_Hall           '-C 2yn'
loop_
_symmetry_equiv_pos_site_id
_symmetry_equiv_pos_as_xyz
1 x,y,z
2 1/2+x,1/2+y,z
3 x,-y,1/2+z
4 1/2+x,1/2-y,1/2+z
5 -x,-y,-z
6 1/2-x,1/2-y,-z
7 -x,y,1/2-z
8 1/2-x,1/2+y,1/2-z
_cell_length_a                   14.5025(6)
_cell_length_b                   22.2102(9)
_cell_length_c                   26.5655(10)
_cell_angle_alpha                90
_cell_angle_beta                 101.8130(10)
_cell_angle_gamma                90
_cell_volume                     8375.61
loop_
_atom_site_label
_atom_site_type_symbol
_atom_site_fract_x
_atom_site_fract_y
_atom_site_fract_z
O25 O 0.660(2) 0.2337(13) 0.0571(16)
O27 O 0.653(3) 0.4965(17) 0.2400(12)
O28 O 0.571(3) 0.441(2) 0.2524(11)
W1 W 0.37970(4) 0.36194(3) -0.00421(2)
W2 W 0.43789(4) 0.53231(3) 0.11929(2)
W3 W 0.67747(4) 0.53653(3) 0.10856(2)
W4 W 0.55908(4) 0.39610(3) 0.10246(2)
W5 W 0.61521(5) 0.36500(3) -0.01708(2)
W6 W 0.26052(4) 0.49916(4) 0.01079(2)
Cu1 Cu 0.87982(12) 0.36086(7) 0.25641(5)
Cu2 Cu 0.89922(10) 0.59354(6) 0.19822(5)
P1 P 0.5000 0.5000 0.0000
P2 P 1.0000 0.4774(2) 0.2500
O1 O 0.9299(8) 0.4385(4) 0.2696(4)
O2 O 0.9519(7) 0.5168(4) 0.2044(3)
O3 O 0.5094(11) 0.4384(7) 0.0132(5)
O4 O 0.5320(11) 0.4884(7) 0.0596(6)
O5 O 0.4030(10) 0.4652(6) -0.0169(6)
O6 O 0.5723(10) 0.4665(7) -0.0249(6)
O7 O 0.5679(8) 0.5539(5) 0.1321(8)
O8 O 0.3246(9) 0.5028(7) 0.0811(4)
O9 O 0.2921(13) 0.4156(8) 0.0156(4)
O10 O 0.4893(7) 0.3365(5) -0.0242(3)
O11 O 0.6553(8) 0.4546(5) 0.1201(8)
O12 O 0.7496(13) 0.5089(7) 0.0615(4)
O13 O 0.4093(9) 0.5463(5) 0.1774(4)
O14 O 0.5875(8) 0.3925(7) -0.0870(4)
O15 O 0.1480(7) 0.4985(5) 0.0162(5)
O16 O 0.3374(13) 0.3895(7) -0.0733(4)
O17 O 0.3202(10) 0.2966(7) -0.0063(5)
O18 O 0.6784(13) 0.3022(9) -0.0242(7)
O19 O 0.7170(10) 0.4187(7) -0.0052(5)
O20 O 0.6224(7) 0.3644(5) 0.0552(3)
O21 O 0.4455(7) 0.3618(5) 0.0645(3)
O22 O 0.5871(10) 0.3462(7) 0.1507(5)
O23 O 0.4791(8) 0.4516(6) 0.1289(7)
O24 O 0.7595(6) 0.5555(4) 0.1609(3)
O26 O 0.7335(8) 0.3951(6) 0.2339(4)
N1 N 0.8712(9) 0.3438(5) 0.3299(4)
N2 N 0.8753(6) 0.2735(5) 0.2563(4)
N3 N 0.8871(8) 0.3447(5) 0.1824(4)
N4 N 0.8602(7) 0.6096(6) 0.2663(4)
N5 N 0.8907(7) 0.6808(5) 0.1971(4)
N6 N 0.9340(7) 0.6114(5) 0.1302(3)
C1 C 0.8646(13) 0.3862(7) 0.3648(6)
H1 H 0.8711 0.4273 0.3564
C2 C 0.8485(15) 0.3717(9) 0.4125(7)
H2 H 0.8464 0.4020 0.4375
C3 C 0.8357(12) 0.3123(8) 0.4231(5)
H3 H 0.8219 0.3015 0.4554
C4 C 0.8426(11) 0.2670(7) 0.3870(5)
H4 H 0.8338 0.2257 0.3941
C5 C 0.8622(9) 0.2848(6) 0.3418(5)
C6 C 0.8712(9) 0.2443(5) 0.2993(4)
C7 C 0.8739(8) 0.1824(6) 0.3010(5)
H5 H 0.8690 0.1614 0.3315
C8 C 0.8838(10) 0.1515(6) 0.2573(5)
H6 H 0.8870 0.1088 0.2578
C9 C 0.8892(9) 0.1827(6) 0.2123(5)
H7 H 0.8950 0.1616 0.1820
C10 C 0.8859(8) 0.2443(6) 0.2130(4)
C11 C 0.8889(9) 0.2861(6) 0.1697(4)
C12 C 0.8914(11) 0.2676(7) 0.1201(5)
H8 H 0.8958 0.2262 0.1119
C13 C 0.8872(14) 0.3116(9) 0.0832(6)
H9 H 0.8877 0.3005 0.0488
C14 C 0.8822(13) 0.3709(8) 0.0955(5)
H10 H 0.8784 0.4009 0.0696
C15 C 0.8829(10) 0.3873(7) 0.1465(5)
H11 H 0.8803 0.4286 0.1555
C16 C 0.8384(10) 0.5667(9) 0.2983(5)
H12 H 0.8398 0.5255 0.2890
C17 C 0.8144(11) 0.5821(12) 0.3439(7)
H13 H 0.7952 0.5521 0.3650
C18 C 0.8185(11) 0.6421(13) 0.3587(6)
H14 H 0.8070 0.6534 0.3914
C19 C 0.8392(10) 0.6847(9) 0.3258(6)
H15 H 0.8399 0.7260 0.3350
C20 C 0.8590(8) 0.6681(7) 0.2798(5)
C21 C 0.8757(8) 0.7097(6) 0.2386(5)
C22 C 0.8752(10) 0.7715(7) 0.2395(6)
H16 H 0.8662 0.7922 0.2694
C23 C 0.8875(11) 0.8028(7) 0.1977(7)
H17 H 0.8856 0.8455 0.1980
C24 C 0.9028(10) 0.7730(6) 0.1549(6)
H18 H 0.9110 0.7946 0.1253
C25 C 0.9061(8) 0.7104(6) 0.1560(5)
C26 C 0.9312(8) 0.6703(5) 0.1161(5)
C27 C 0.9545(11) 0.6901(8) 0.0712(5)
H19 H 0.9514 0.7316 0.0622
C28 C 0.9826(12) 0.6471(10) 0.0398(5)
H20 H 0.9998 0.6595 0.0087
C29 C 0.9863(10) 0.5881(8) 0.0521(5)
H21 H 1.0060 0.5587 0.0305
C30 C 0.9601(9) 0.5720(7) 0.0977(5)
H22 H 0.9607 0.5305 0.1063
O6D O 0.4277(10) 0.5335(7) 0.0249(6)
O14D O 0.4125(8) 0.6075(7) 0.0870(4)
O5D O 0.5970(10) 0.5348(6) 0.0169(6)
O16D O 0.6626(13) 0.6105(7) 0.0733(4)
O12D O 0.2504(13) 0.4911(7) -0.0615(4)
O19D O 0.2830(10) 0.5813(7) 0.0052(5)
O3D O 0.4906(11) 0.5616(7) -0.0132(5)
O4D O 0.4680(11) 0.5116(7) -0.0596(6)
O1F O 1.0701(8) 0.4385(4) 0.2304(4)
O2F O 1.0481(7) 0.5168(4) 0.2956(3)
W3D W 0.32253(4) 0.46347(3) -0.10856(2)
W2D W 0.56211(4) 0.46769(3) -0.11929(2)
W6D W 0.73948(4) 0.50084(4) -0.01079(2)
loop_
_geom_bond_atom_site_label_1
_geom_bond_atom_site_label_2
_geom_bond_site_symmetry_1
_geom_bond_site_symmetry_2
W1 O3 1_555 1_555
W2 O4 1_555 1_555
W3 O4 1_555 1_555
W4 O3 1_555 1_555
W5 O3 1_555 1_555
W6 O5 1_555 1_555
Cu1 O1 1_555 1_555
Cu2 O2 1_555 1_555
P1 O3 1_555 1_555
P2 O1 1_555 1_555
O2 P2 1_555 1_555
O4 W4 1_555 1_555
O5 W1 1_555 1_555
O6 W5 1_555 1_555
O7 W2 1_555 1_555
O8 W2 1_555 1_555
O9 W1 1_555 1_555
O10 W1 1_555 1_555
O11 W3 1_555 1_555
O12 W3 1_555 1_555
O13 W2 1_555 1_555
O14 W5 1_555 1_555
O15 W6 1_555 1_555
O16 W1 1_555 1_555
O17 W1 1_555 1_555
O18 W5 1_555 1_555
O19 W5 1_555 1_555
O20 W4 1_555 1_555
O21 W1 1_555 1_555
O22 W4 1_555 1_555
O23 W2 1_555 1_555
O24 W3 1_555 1_555
O26 Cu1 1_555 1_555
N1 Cu1 1_555 1_555
N2 Cu1 1_555 1_555
N3 Cu1 1_555 1_555
N4 Cu2 1_555 1_555
N5 Cu2 1_555 1_555
N6 Cu2 1_555 1_555
C1 N1 1_555 1_555
H1 C1 1_555 1_555
C2 C1 1_555 1_555
H2 C2 1_555 1_555
C3 C2 1_555 1_555
H3 C3 1_555 1_555
C4 C3 1_555 1_555
H4 C4 1_555 1_555
C5 N1 1_555 1_555
C6 N2 1_555 1_555
C7 C6 1_555 1_555
H5 C7 1_555 1_555
C8 C7 1_555 1_555
H6 C8 1_555 1_555
C9 C8 1_555 1_555
H7 C9 1_555 1_555
C10 N2 1_555 1_555
C11 N3 1_555 1_555
C12 C11 1_555 1_555
H8 C12 1_555 1_555
C13 C12 1_555 1_555
H9 C13 1_555 1_555
C14 C13 1_555 1_555
H10 C14 1_555 1_555
C15 N3 1_555 1_555
H11 C15 1_555 1_555
C16 N4 1_555 1_555
H12 C16 1_555 1_555
C17 C16 1_555 1_555
H13 C17 1_555 1_555
C18 C17 1_555 1_555
H14 C18 1_555 1_555
C19 C18 1_555 1_555
H15 C19 1_555 1_555
C20 N4 1_555 1_555
C21 N5 1_555 1_555
C22 C21 1_555 1_555
H16 C22 1_555 1_555
C23 C22 1_555 1_555
H17 C23 1_555 1_555
C24 C23 1_555 1_555
H18 C24 1_555 1_555
C25 N5 1_555 1_555
C26 N6 1_555 1_555
C27 C26 1_555 1_555
H19 C27 1_555 1_555
C28 C27 1_555 1_555
H20 C28 1_555 1_555
C29 C28 1_555 1_555
H21 C29 1_555 1_555
C30 N6 1_555 1_555
H22 C30 1_555 1_555
O6D W2 1_555 1_555
O14D W2 1_555 1_555
O5D W3 1_555 1_555
O16D W3 1_555 1_555
O12D W6 1_555 1_555
O19D W6 1_555 1_555
O3D P1 1_555 1_555
O4D P1 1_555 1_555
O1F P2 1_555 1_555
O2F P2 1_555 1_555
W3D O5 1_555 1_555
W2D O6 1_555 1_555
W6D O6 1_555 1_555
W3 O7 1_555 1_555
W4 O11 1_555 1_555
W4 O21 1_555 1_555
W4 O23 1_555 1_555
W5 O10 1_555 1_555
W5 O20 1_555 1_555
W6 O6D 1_555 1_555
W6 O8 1_555 1_555
W6 O9 1_555 1_555
Cu2 O24 1_555 1_555
P1 O4 1_555 1_555
P1 O5D 1_555 1_555
P1 O5 1_555 1_555
P1 O6D 1_555 1_555
P1 O6 1_555 1_555
O12 W6D 1_555 1_555
O14 W2D 1_555 1_555
O16 W3D 1_555 1_555
O19 W6D 1_555 1_555
C4 C5 1_555 1_555
C5 C6 1_555 1_555
C9 C10 1_555 1_555
C10 C11 1_555 1_555
C14 C15 1_555 1_555
C19 C20 1_555 1_555
C20 C21 1_555 1_555
C24 C25 1_555 1_555
C25 C26 1_555 1_555
C29 C30 1_555 1_555
O5D W6D 1_555 1_555
O12D W3D 1_555 1_555
O4D W2D 1_555 1_555
O4D W3D 1_555 1_555

#END
