
#######################################################################
#
#                 Cambridge Crystallographic Data Centre
#                                CCDC 
#
#######################################################################
#
# If this CIF has been generated from an entry in the Cambridge 
# Structural Database, then it will include bibliographic, chemical, 
# crystal, experimental, refinement or atomic coordinate data resulting 
# from the CCDC's data processing and validation procedures.
#
#######################################################################

data_AVAPIW
_symmetry_cell_setting           monoclinic
_symmetry_space_group_name_H-M   'P 21/c'
_symmetry_Int_Tables_number      14
_space_group_name_Hall           '-P 2ybc'
loop_
_symmetry_equiv_pos_site_id
_symmetry_equiv_pos_as_xyz
1 x,y,z
2 x,1/2-y,1/2+z
3 -x,-y,-z
4 -x,1/2+y,1/2-z
_cell_length_a                   13.408(2)
_cell_length_b                   28.992(4)
_cell_length_c                   18.414(3)
_cell_angle_alpha                90
_cell_angle_beta                 124.041(2)
_cell_angle_gamma                90
_cell_volume                     5931.37
loop_
_atom_site_label
_atom_site_type_symbol
_atom_site_fract_x
_atom_site_fract_y
_atom_site_fract_z
Co1 Co 0.31757(5) 0.262613(19) 0.28971(3)
N1 N 0.1632(3) 0.25328(12) 0.1583(2)
N2 N -0.1219(3) 0.20027(14) -0.1591(2)
H1 H -0.0522 0.2084 -0.1494
N3 N -0.4151(4) -0.02833(14) -0.6350(3)
H2 H -0.3544 -0.0459 -0.5968
N4 N -0.3732(3) -0.17559(12) -0.7585(2)
N5 N 0.4686(3) 0.27256(12) 0.4241(2)
N6 N 0.7349(3) 0.30953(14) 0.7440(2)
H3 H 0.6572 0.3095 0.7214
N7 N 0.9095(4) 0.55125(14) 1.1463(2)
H4 H 0.9470 0.5592 1.2018
N8 N 0.7324(3) 0.70176(12) 1.1696(2)
N9 N 0.4521(3) 0.21034(15) 0.2188(3)
N10 N 0.1481(3) 0.30959(15) 0.3389(2)
O1 O -0.2300(3) 0.19751(16) -0.0986(2)
O2 O -0.4623(3) 0.13388(12) -0.4935(2)
O3 O -0.5704(3) -0.02452(13) -0.7792(3)
O4 O 0.8703(3) 0.29193(13) 0.7100(2)
O5 O 1.0040(3) 0.37144(13) 1.0900(2)
O6 O 0.7825(3) 0.57853(11) 1.0070(2)
O7 O 0.4160(3) 0.21306(13) 0.2688(2)
O8 O 0.4573(4) 0.24589(16) 0.1825(3)
O9 O 0.4855(4) 0.17344(16) 0.2070(3)
O10 O 0.2156(3) 0.31071(11) 0.3111(2)
O11 O 0.1394(4) 0.34419(17) 0.3731(3)
O12 O 0.0888(3) 0.27452(13) 0.3291(2)
C1 C 0.0554(4) 0.24357(16) 0.1430(3)
H5 H 0.0450 0.2470 0.1897
C2 C -0.0414(4) 0.22875(17) 0.0625(3)
H6 H -0.1161 0.2219 0.0549
C3 C -0.0289(4) 0.22391(15) -0.0069(3)
C4 C 0.0810(4) 0.23540(17) 0.0075(3)
H7 H 0.0929 0.2332 -0.0386
C5 C 0.1732(4) 0.25008(17) 0.0900(3)
H8 H 0.2477 0.2584 0.0987
C6 C -0.1370(4) 0.20607(17) -0.0927(3)
C7 C -0.2090(4) 0.18226(15) -0.2420(3)
C8 C -0.3317(4) 0.19037(15) -0.2834(3)
H9 H -0.3590 0.2085 -0.2548
C9 C -0.4141(4) 0.17251(15) -0.3653(3)
H10 H -0.4977 0.1778 -0.3923
C10 C -0.3749(4) 0.14687(15) -0.4082(3)
C11 C -0.2529(4) 0.13782(17) -0.3683(3)
H11 H -0.2261 0.1197 -0.3971
C12 C -0.1710(4) 0.15590(17) -0.2852(3)
H12 H -0.0875 0.1501 -0.2575
C13 C -0.4461(4) 0.09318(16) -0.5264(3)
C14 C -0.3985(5) 0.05395(18) -0.4760(3)
H13 H -0.3719 0.0541 -0.4161
C15 C -0.3901(5) 0.01410(17) -0.5142(3)
H14 H -0.3559 -0.0130 -0.4798
C16 C -0.4310(4) 0.01339(16) -0.6020(3)
C17 C -0.4809(4) 0.05314(17) -0.6523(3)
H15 H -0.5103 0.0528 -0.7127
C18 C -0.4877(4) 0.09323(17) -0.6142(3)
H16 H -0.5207 0.1205 -0.6481
C19 C -0.4825(4) -0.04397(17) -0.7180(3)
C20 C -0.4423(4) -0.09023(15) -0.7303(3)
C21 C -0.3218(4) -0.10150(16) -0.6908(3)
H17 H -0.2608 -0.0801 -0.6527
C22 C -0.2916(4) -0.14355(15) -0.7069(3)
H18 H -0.2088 -0.1504 -0.6803
C23 C -0.4905(4) -0.16482(15) -0.7968(3)
H19 H -0.5497 -0.1872 -0.8332
C24 C -0.5279(4) -0.12272(15) -0.7853(3)
H20 H -0.6112 -0.1160 -0.8146
C25 C 0.5676(4) 0.24606(14) 0.4632(3)
H21 H 0.5703 0.2210 0.4311
C26 C 0.6658(4) 0.25336(15) 0.5476(3)
H22 H 0.7351 0.2344 0.5717
C27 C 0.6623(4) 0.28872(15) 0.5969(3)
C28 C 0.5599(4) 0.31636(17) 0.5566(3)
H23 H 0.5538 0.3410 0.5878
C29 C 0.4677(4) 0.30763(16) 0.4713(3)
H24 H 0.3997 0.3275 0.4442
C30 C 0.7675(4) 0.29663(15) 0.6892(3)
C31 C 0.8102(4) 0.32293(17) 0.8330(3)
C32 C 0.9312(4) 0.33258(18) 0.8756(3)
H25 H 0.9708 0.3281 0.8467
C33 C 0.9946(4) 0.34882(17) 0.9612(3)
H26 H 1.0779 0.3557 0.9906
C34 C 0.9383(4) 0.35496(19) 1.0037(3)
C35 C 0.8212(5) 0.3430(4) 0.9646(4)
H27 H 0.7840 0.3457 0.9957
C36 C 0.7554(5) 0.3267(3) 0.8784(4)
H28 H 0.6733 0.3183 0.8509
C37 C 0.9825(4) 0.41746(19) 1.1002(3)
C38 C 1.0189(4) 0.43093(17) 1.1832(3)
H29 H 1.0592 0.4098 1.2308
C39 C 0.9961(5) 0.47559(17) 1.1967(3)
H30 H 1.0214 0.4850 1.2540
C40 C 0.9374(4) 0.50683(17) 1.1284(3)
C41 C 0.9063(7) 0.4933(2) 1.0462(4)
H31 H 0.8707 0.5147 0.9991
C42 C 0.9272(7) 0.4486(3) 1.0325(4)
H32 H 0.9029 0.4392 0.9754
C43 C 0.8314(4) 0.58234(15) 1.0865(3)
C44 C 0.8026(4) 0.62352(15) 1.1206(3)
C45 C 0.8119(4) 0.62498(16) 1.1995(3)
H33 H 0.8429 0.5994 1.2384
C46 C 0.7753(4) 0.66442(16) 1.2205(3)
H34 H 0.7809 0.6650 1.2743
C47 C 0.7224(4) 0.70014(16) 1.0931(3)
H35 H 0.6916 0.7264 1.0558
C48 C 0.7549(4) 0.66203(16) 1.0660(3)
H36 H 0.7448 0.6620 1.0107
N4C N 0.3732(3) 0.32441(12) 0.2585(2)
N8C N 0.2676(3) 0.20176(12) 0.3304(2)
Co1C Co -0.31757(5) -0.237387(19) -0.78971(3)
Co1C_2 Co 0.68243(5) 0.762613(19) 1.21029(3)
S1 S 0.1072(3) 0.57502(14) 0.4241(2)
O15 O 0.0502(6) 0.5620(2) 0.3306(3)
C57 C 0.1966(12) 0.6095(6) 0.4303(12)
H57 H 0.2174 0.6009 0.3888
H58 H 0.2695 0.6094 0.4899
H59 H 0.1608 0.6404 0.4160
C58 C 0.2283(14) 0.5352(6) 0.4878(10)
H60 H 0.2015 0.5104 0.5093
H61 H 0.2966 0.5513 0.5377
H62 H 0.2531 0.5220 0.4513
O13 O 0.5665(8) 0.4360(2) 0.5857(6)
C49 C 0.7275(11) 0.4486(7) 0.7445(14)
H37 H 0.7472 0.4377 0.8015
H38 H 0.7433 0.4818 0.7476
H39 H 0.7773 0.4322 0.7293
C50 C 0.6030(19) 0.4399(4) 0.6790(11)
H40 H 0.5553 0.4650 0.6819
H41 H 0.5802 0.4108 0.6945
C51 C 0.4338(12) 0.4318(4) 0.5143(9)
H42 H 0.4017 0.4022 0.5197
H43 H 0.3882 0.4574 0.5185
C52 C 0.4229(14) 0.4339(4) 0.4297(8)
H44 H 0.4620 0.4620 0.4278
H45 H 0.3376 0.4343 0.3814
H46 H 0.4619 0.4069 0.4241
O14 O 1.0599(11) 0.0624(4) 0.9891(8)
C53 C 1.2446(13) 0.0821(6) 1.1206(9)
H47 H 1.2080 0.0656 1.1466
H48 H 1.2980 0.1063 1.1607
H49 H 1.2912 0.0603 1.1101
C54 C 1.1578(17) 0.1011(5) 1.0443(12)
H50 H 1.1918 0.1125 1.0119
H51 H 1.1207 0.1274 1.0552
C55 C 0.9575(16) 0.0716(6) 0.8938(11)
H52 H 0.9193 0.1014 0.8909
H53 H 0.9920 0.0748 0.8585
C56 C 0.8734(15) 0.0393(11) 0.8581(12)
H54 H 0.8307 0.0406 0.7941
H55 H 0.8164 0.0445 0.8746
H56 H 0.9110 0.0089 0.8791
O16 O 0.7853(14) 0.0026(6) 0.7488(14)
loop_
_geom_bond_atom_site_label_1
_geom_bond_atom_site_label_2
_geom_bond_site_symmetry_1
_geom_bond_site_symmetry_2
Co1 N1 1_555 1_555
S1 O15 1_555 1_555
N1 C1 1_555 1_555
N2 H1 1_555 1_555
N3 H2 1_555 1_555
N4 C22 1_555 1_555
N5 Co1 1_555 1_555
N6 H3 1_555 1_555
N7 H4 1_555 1_555
N8 C46 1_555 1_555
N9 O7 1_555 1_555
N10 O10 1_555 1_555
O1 C6 1_555 1_555
O2 C10 1_555 1_555
O3 C19 1_555 1_555
O4 C30 1_555 1_555
O5 C34 1_555 1_555
O6 C43 1_555 1_555
O7 Co1 1_555 1_555
O8 N9 1_555 1_555
O9 N9 1_555 1_555
O10 Co1 1_555 1_555
O11 N10 1_555 1_555
O12 N10 1_555 1_555
O13 C50 1_555 1_555
O14 C54 1_555 1_555
C1 H5 1_555 1_555
C2 C1 1_555 1_555
H6 C2 1_555 1_555
C3 C2 1_555 1_555
C4 C3 1_555 1_555
H7 C4 1_555 1_555
C5 N1 1_555 1_555
H8 C5 1_555 1_555
C6 N2 1_555 1_555
C7 N2 1_555 1_555
C8 C7 1_555 1_555
H9 C8 1_555 1_555
C9 C8 1_555 1_555
H10 C9 1_555 1_555
C10 C9 1_555 1_555
C11 C10 1_555 1_555
H11 C11 1_555 1_555
C12 C7 1_555 1_555
H12 C12 1_555 1_555
C13 O2 1_555 1_555
C14 C13 1_555 1_555
H13 C14 1_555 1_555
C15 C14 1_555 1_555
H14 C15 1_555 1_555
C16 N3 1_555 1_555
C17 C16 1_555 1_555
H15 C17 1_555 1_555
C18 C13 1_555 1_555
H16 C18 1_555 1_555
C19 N3 1_555 1_555
C20 C19 1_555 1_555
C21 C20 1_555 1_555
H17 C21 1_555 1_555
C22 C21 1_555 1_555
H18 C22 1_555 1_555
C23 N4 1_555 1_555
H19 C23 1_555 1_555
C24 C20 1_555 1_555
H20 C24 1_555 1_555
C25 N5 1_555 1_555
H21 C25 1_555 1_555
C26 C25 1_555 1_555
H22 C26 1_555 1_555
C27 C26 1_555 1_555
C28 C27 1_555 1_555
H23 C28 1_555 1_555
C29 N5 1_555 1_555
H24 C29 1_555 1_555
C30 N6 1_555 1_555
C31 N6 1_555 1_555
C32 C31 1_555 1_555
H25 C32 1_555 1_555
C33 C32 1_555 1_555
H26 C33 1_555 1_555
C34 C33 1_555 1_555
C35 C34 1_555 1_555
H27 C35 1_555 1_555
C36 C31 1_555 1_555
H28 C36 1_555 1_555
C37 O5 1_555 1_555
C38 C37 1_555 1_555
H29 C38 1_555 1_555
C39 C38 1_555 1_555
H30 C39 1_555 1_555
C40 N7 1_555 1_555
C41 C40 1_555 1_555
H31 C41 1_555 1_555
C42 C37 1_555 1_555
H32 C42 1_555 1_555
C43 N7 1_555 1_555
C44 C43 1_555 1_555
C45 C44 1_555 1_555
H33 C45 1_555 1_555
C46 C45 1_555 1_555
H34 C46 1_555 1_555
C47 N8 1_555 1_555
H35 C47 1_555 1_555
C48 C44 1_555 1_555
H36 C48 1_555 1_555
C49 H37 1_555 1_555
H38 C49 1_555 1_555
H39 C49 1_555 1_555
C50 C49 1_555 1_555
H40 C50 1_555 1_555
H41 C50 1_555 1_555
C51 O13 1_555 1_555
H42 C51 1_555 1_555
H43 C51 1_555 1_555
C52 C51 1_555 1_555
H44 C52 1_555 1_555
H45 C52 1_555 1_555
H46 C52 1_555 1_555
C53 H47 1_555 1_555
H48 C53 1_555 1_555
H49 C53 1_555 1_555
C54 C53 1_555 1_555
H50 C54 1_555 1_555
H51 C54 1_555 1_555
C55 O14 1_555 1_555
H52 C55 1_555 1_555
H53 C55 1_555 1_555
C56 C55 1_555 1_555
H54 C56 1_555 1_555
H55 C56 1_555 1_555
H56 C56 1_555 1_555
C57 S1 1_555 1_555
H57 C57 1_555 1_555
H58 C57 1_555 1_555
H59 C57 1_555 1_555
C58 S1 1_555 1_555
H60 C58 1_555 1_555
H61 C58 1_555 1_555
H62 C58 1_555 1_555
N4C Co1 1_555 1_555
N8C Co1 1_555 1_555
Co1C N4 1_555 1_555
Co1C_2 N8 1_555 1_555
C3 C6 1_555 1_555
C4 C5 1_555 1_555
C11 C12 1_555 1_555
C15 C16 1_555 1_555
C17 C18 1_555 1_555
C23 C24 1_555 1_555
C27 C30 1_555 1_555
C28 C29 1_555 1_555
C35 C36 1_555 1_555
C39 C40 1_555 1_555
C41 C42 1_555 1_555
C47 C48 1_555 1_555

#END
