
#######################################################################
#
#                 Cambridge Crystallographic Data Centre
#                                CCDC 
#
#######################################################################
#
# If this CIF has been generated from an entry in the Cambridge 
# Structural Database, then it will include bibliographic, chemical, 
# crystal, experimental, refinement or atomic coordinate data resulting 
# from the CCDC's data processing and validation procedures.
#
#######################################################################

data_AVAQIX
_symmetry_cell_setting           orthorhombic
_symmetry_space_group_name_H-M   'P b c a'
_symmetry_Int_Tables_number      61
_space_group_name_Hall           '-P 2ac 2ab'
loop_
_symmetry_equiv_pos_site_id
_symmetry_equiv_pos_as_xyz
1 x,y,z
2 1/2-x,-y,1/2+z
3 -x,1/2+y,1/2-z
4 1/2+x,1/2-y,-z
5 -x,-y,-z
6 1/2+x,y,1/2-z
7 x,1/2-y,1/2+z
8 1/2-x,1/2+y,z
_cell_length_a                   12.3397(6)
_cell_length_b                   15.5050(8)
_cell_length_c                   18.9437(10)
_cell_angle_alpha                90
_cell_angle_beta                 90
_cell_angle_gamma                90
_cell_volume                     3624.44
loop_
_atom_site_label
_atom_site_type_symbol
_atom_site_fract_x
_atom_site_fract_y
_atom_site_fract_z
Cd1 Cd 0.311340(8) 0.216005(6) 0.682185(6)
O1 O 0.47841(11) 0.15007(7) 0.74117(8)
O2 O 0.35107(11) 0.06985(8) 0.69414(8)
O3 O 0.15422(11) 0.17189(9) 0.61663(7)
O4 O 0.19024(9) 0.31116(9) 0.61708(7)
O5 O 0.19832(13) 0.20297(9) 0.77944(8)
N1 N 0.61067(11) -0.15374(8) 0.77966(7)
N2 N -0.08715(13) 0.27958(9) 0.42551(8)
C1 C 0.63670(15) -0.07798(11) 0.80928(9)
H1 H 0.6930 -0.0768 0.8419
C2 C 0.58392(14) -0.00129(10) 0.79369(10)
H2 H 0.6043 0.0499 0.8156
C3 C 0.50051(13) -0.00244(9) 0.74509(9)
C4 C 0.47416(15) -0.08016(10) 0.71317(10)
H3 H 0.4193 -0.0828 0.6796
C5 C 0.53064(15) -0.15357(10) 0.73208(10)
H4 H 0.5121 -0.2055 0.7106
C6 C 0.43867(13) 0.07856(10) 0.72583(9)
C7 C -0.09815(17) 0.21581(12) 0.47191(12)
H5 H -0.1549 0.1771 0.4657
C8 C -0.02983(17) 0.20392(13) 0.52890(11)
H6 H -0.0403 0.1580 0.5597
C9 C 0.05386(13) 0.26105(11) 0.53936(8)
C10 C 0.06265(18) 0.32916(14) 0.49360(11)
H7 H 0.1159 0.3708 0.5004
C11 C -0.00783(19) 0.33567(14) 0.43742(12)
H8 H 0.0006 0.3816 0.4063
C12 C 0.13778(12) 0.24714(11) 0.59606(8)
H9 H 0.223(2) 0.171(2) 0.8086(14)
H10 H 0.143(2) 0.1862(17) 0.7683(15)
N1B N 0.38933(11) 0.34626(8) 0.72034(7)
N2C N 0.41285(13) 0.22042(9) 0.57449(8)
Cd1B Cd 0.688660(8) -0.283995(6) 0.817815(6)
Cd1C Cd -0.188660(8) 0.283995(6) 0.317815(6)
O6 O 0.25586(19) 0.40812(13) 0.38556(10)
N3 N 0.2826(2) 0.54770(14) 0.41362(12)
C13 C 0.2650(2) 0.48387(18) 0.36939(14)
C14 C 0.2943(4) 0.6366(2) 0.3903(2)
H11 H 0.2856 0.6394 0.3400
H12 H 0.3650 0.6575 0.4029
H13 H 0.2401 0.6717 0.4126
C15 C 0.2926(5) 0.5293(2) 0.4884(2)
H14 H 0.2832 0.4686 0.4962
H15 H 0.2380 0.5606 0.5139
H16 H 0.3630 0.5465 0.5045
H17 H 0.266(3) 0.498(3) 0.3205(16)
loop_
_geom_bond_atom_site_label_1
_geom_bond_atom_site_label_2
_geom_bond_site_symmetry_1
_geom_bond_site_symmetry_2
Cd1 O1 1_555 1_555
O1 C6 1_555 1_555
O2 Cd1 1_555 1_555
O3 Cd1 1_555 1_555
O4 Cd1 1_555 1_555
O5 Cd1 1_555 1_555
N1 C1 1_555 1_555
N2 C7 1_555 1_555
C1 H1 1_555 1_555
C2 C1 1_555 1_555
H2 C2 1_555 1_555
C3 C2 1_555 1_555
C4 C3 1_555 1_555
H3 C4 1_555 1_555
C5 N1 1_555 1_555
H4 C5 1_555 1_555
C6 O2 1_555 1_555
C7 H5 1_555 1_555
C8 C7 1_555 1_555
H6 C8 1_555 1_555
C9 C8 1_555 1_555
C10 C9 1_555 1_555
H7 C10 1_555 1_555
C11 N2 1_555 1_555
H8 C11 1_555 1_555
C12 O3 1_555 1_555
H9 O5 1_555 1_555
H10 O5 1_555 1_555
O6 C13 1_555 1_555
N3 C13 1_555 1_555
C13 H17 1_555 1_555
C14 N3 1_555 1_555
H11 C14 1_555 1_555
H12 C14 1_555 1_555
H13 C14 1_555 1_555
C15 N3 1_555 1_555
H14 C15 1_555 1_555
H15 C15 1_555 1_555
H16 C15 1_555 1_555
N1B Cd1 1_555 1_555
N2C Cd1 1_555 1_555
Cd1B N1 1_555 1_555
Cd1C N2 1_555 1_555
O4 C12 1_555 1_555
C3 C6 1_555 1_555
C4 C5 1_555 1_555
C9 C12 1_555 1_555
C10 C11 1_555 1_555

#END
