
#######################################################################
#
#                 Cambridge Crystallographic Data Centre
#                                CCDC 
#
#######################################################################
#
# If this CIF has been generated from an entry in the Cambridge 
# Structural Database, then it will include bibliographic, chemical, 
# crystal, experimental, refinement or atomic coordinate data resulting 
# from the CCDC's data processing and validation procedures.
#
#######################################################################

data_AVAQOD
_symmetry_cell_setting           monoclinic
_symmetry_space_group_name_H-M   'P 21/n'
_symmetry_Int_Tables_number      14
_space_group_name_Hall           '-P 2yn'
loop_
_symmetry_equiv_pos_site_id
_symmetry_equiv_pos_as_xyz
1 x,y,z
2 1/2+x,1/2-y,1/2+z
3 -x,-y,-z
4 1/2-x,1/2+y,1/2-z
_cell_length_a                   9.838(2)
_cell_length_b                   12.891(4)
_cell_length_c                   19.302(2)
_cell_angle_alpha                90.00
_cell_angle_beta                 90.57(2)
_cell_angle_gamma                90.00
_cell_volume                     2447.79
loop_
_atom_site_label
_atom_site_type_symbol
_atom_site_fract_x
_atom_site_fract_y
_atom_site_fract_z
Cd1 Cd 0.537539(18) 0.606634(15) 0.151442(9)
Cd2 Cd 1.5000 0.5000 0.5000
C1 C 0.7198(3) 0.5702(3) 0.28910(14)
H1 H 0.6350 0.5503 0.3053
C2 C 0.8298(3) 0.5541(3) 0.33019(15)
H2 H 0.8191 0.5259 0.3742
C3 C 0.9593(3) 0.5794(2) 0.30700(13)
C4 C 0.9682(3) 0.6211(3) 0.24055(17)
H3 H 1.0524 0.6371 0.2219
C5 C 0.8512(3) 0.6381(3) 0.20298(17)
H4 H 0.8581 0.6683 0.1594
C6 C 1.1951(3) 0.4694(2) 0.44005(14)
H5 H 1.1931 0.4196 0.4749
C7 C 1.0804(3) 0.4856(2) 0.40153(14)
H6 H 1.0024 0.4471 0.4100
C8 C 1.0806(3) 0.5598(2) 0.34952(13)
C9 C 1.2013(3) 0.6147(3) 0.33966(15)
H7 H 1.2063 0.6652 0.3054
C10 C 1.3116(3) 0.5937(3) 0.38046(15)
H8 H 1.3911 0.6312 0.3734
C11 C 1.2208(4) 0.0089(3) 0.53088(17)
H9 H 1.2085 -0.0532 0.5072
C12 C 1.3009(4) 0.0844(3) 0.50103(16)
H10 H 1.3419 0.0724 0.4586
C13 C 1.3195(3) 0.1771(2) 0.53453(14)
C14 C 1.2553(4) 0.1896(3) 0.59813(17)
H11 H 1.2645 0.2516 0.6224
C15 C 1.1784(4) 0.1105(3) 0.62500(18)
H12 H 1.1377 0.1201 0.6678
C16 C 1.3993(3) 0.2655(3) 0.50250(14)
C17 C 0.4561(3) 0.7955(3) 0.25876(15)
H13 H 0.5422 0.7822 0.2769
C18 C 0.3769(3) 0.8692(3) 0.29121(15)
H14 H 0.4096 0.9035 0.3304
C19 C 0.2496(3) 0.8915(2) 0.26522(14)
C20 C 0.2080(3) 0.8378(2) 0.20665(13)
H15 H 0.1233 0.8512 0.1868
C21 C 0.2927(3) 0.7640(2) 0.17762(13)
H16 H 0.2622 0.7278 0.1388
C22 C 0.1572(3) 0.9711(2) 0.29856(14)
N1 N 0.7269(2) 0.6134(2) 0.22621(13)
N2 N 1.3109(2) 0.5220(2) 0.43001(11)
N3 N 1.1597(3) 0.0207(2) 0.59234(13)
N4 N 0.4161(2) 0.7428(2) 0.20314(12)
N5 N 0.5755(3) 0.7522(2) 0.04077(13)
O1 O 0.4851(2) 0.6841(2) 0.04368(11)
O2 O 0.6599(3) 0.7540(3) 0.08925(15)
O3 O 0.5797(4) 0.8158(3) -0.00536(16)
O4 O 0.0446(2) 0.98516(19) 0.27023(11)
O5 O 0.1951(3) 1.0182(2) 0.35064(12)
O6 O 1.6119(3) 0.4029(2) 0.41222(13)
H17 H 1.692(7) 0.384(5) 0.422(3)
H18 H 1.573(5) 0.362(4) 0.422(3)
O7 O 1.4427(3) 0.2516(2) 0.44180(11)
O8 O 1.4127(2) 0.34527(17) 0.53846(10)
C1B C 2.2802(3) 0.4298(3) 0.71090(14)
H1B H 2.3650 0.4497 0.6947
C2B C 2.1702(3) 0.4459(3) 0.66981(15)
H2B H 2.1809 0.4741 0.6258
C3B C 2.0407(3) 0.4206(2) 0.69300(13)
C4B C 2.0318(3) 0.3789(3) 0.75945(17)
H3B H 1.9476 0.3629 0.7781
C5B C 2.1488(3) 0.3619(3) 0.79702(17)
H4B H 2.1419 0.3317 0.8406
C6B C 1.8049(3) 0.5306(2) 0.55995(14)
H5B H 1.8069 0.5804 0.5251
C7B C 1.9196(3) 0.5144(2) 0.59847(14)
H6B H 1.9976 0.5529 0.5900
C8B C 1.9194(3) 0.4402(2) 0.65048(13)
C9B C 1.7987(3) 0.3853(3) 0.66034(15)
H7B H 1.7937 0.3348 0.6946
C10B C 1.6884(3) 0.4063(3) 0.61954(15)
H8B H 1.6089 0.3688 0.6266
N1B N 2.2731(2) 0.3866(2) 0.77379(13)
N2B N 1.6891(2) 0.4780(2) 0.56999(11)
O6B O 1.3881(3) 0.5971(2) 0.58778(13)
H17B H 1.308(7) 0.616(5) 0.578(3)
H18B H 1.427(5) 0.638(4) 0.578(3)
C11B C 1.7792(4) 0.9911(3) 0.46912(17)
H9B H 1.7915 1.0532 0.4928
C12B C 1.6991(4) 0.9156(3) 0.49897(16)
H10B H 1.6581 0.9276 0.5414
C13B C 1.6805(3) 0.8229(2) 0.46547(14)
C14B C 1.7447(4) 0.8104(3) 0.40187(17)
H11B H 1.7355 0.7484 0.3776
C15B C 1.8216(4) 0.8895(3) 0.37500(18)
H12B H 1.8623 0.8799 0.3322
C16B C 1.6007(3) 0.7345(3) 0.49750(14)
N3B N 1.8403(3) 0.9793(2) 0.40766(13)
O7B O 1.5573(3) 0.7484(2) 0.55820(11)
O8B O 1.5873(2) 0.65473(17) 0.46154(10)
Cd1B Cd 2.462461(18) 0.393366(15) 0.848558(9)
C17C C 0.0439(3) 0.2955(3) 0.24124(15)
H13C H -0.0422 0.2822 0.2231
C18C C 0.1231(3) 0.3692(3) 0.20879(15)
H14C H 0.0904 0.4035 0.1696
C19C C 0.2504(3) 0.3915(2) 0.23478(14)
C20C C 0.2920(3) 0.3378(2) 0.29335(13)
H15C H 0.3767 0.3512 0.3132
C21C C 0.2073(3) 0.2640(2) 0.32238(13)
H16C H 0.2378 0.2278 0.3612
C22C C 0.3428(3) 0.4711(2) 0.20144(14)
N4C N 0.0839(2) 0.2428(2) 0.29686(12)
O4C O 0.4554(2) 0.48516(19) 0.22977(11)
O5C O 0.3049(3) 0.5182(2) 0.14936(12)
N5B N 2.4245(3) 0.2478(2) 0.95923(13)
O1B O 2.5149(2) 0.3159(2) 0.95632(11)
O2B O 2.3401(3) 0.2460(3) 0.91075(15)
O3B O 2.4203(4) 0.1842(3) 1.00536(16)
N3A N 0.6597(3) 0.4793(2) 0.09234(13)
Cd1A Cd 1.037539(18) -0.106634(15) 0.651442(9)
Cd1C Cd -0.037539(18) 1.106634(15) 0.348558(9)
Cd1C_2 Cd 1.962461(18) 1.106634(15) 0.348558(9)
N3C N 2.3403(3) 0.5207(2) 0.90766(13)
N4B N 2.5839(2) 0.2572(2) 0.79686(12)
O4A O 2.5446(2) 0.51484(19) 0.77023(11)
O5A O 2.6951(3) 0.4818(2) 0.85064(12)
Cd1C_3 Cd -0.037539(18) 0.106634(15) 0.348558(9)
loop_
_geom_bond_atom_site_label_1
_geom_bond_atom_site_label_2
_geom_bond_site_symmetry_1
_geom_bond_site_symmetry_2
Cd1 N1 1_555 1_555
Cd2 N2 1_555 1_555
C1 H1 1_555 1_555
C2 C1 1_555 1_555
H2 C2 1_555 1_555
C3 C2 1_555 1_555
C4 C3 1_555 1_555
H3 C4 1_555 1_555
C5 C4 1_555 1_555
H4 C5 1_555 1_555
C6 H5 1_555 1_555
C7 C6 1_555 1_555
H6 C7 1_555 1_555
C8 C3 1_555 1_555
C9 C8 1_555 1_555
H7 C9 1_555 1_555
C10 C9 1_555 1_555
H8 C10 1_555 1_555
C11 H9 1_555 1_555
C12 C11 1_555 1_555
H10 C12 1_555 1_555
C13 C12 1_555 1_555
C14 C13 1_555 1_555
H11 C14 1_555 1_555
C15 C14 1_555 1_555
H12 C15 1_555 1_555
C16 C13 1_555 1_555
C17 H13 1_555 1_555
C18 C17 1_555 1_555
H14 C18 1_555 1_555
C19 C18 1_555 1_555
C20 C19 1_555 1_555
H15 C20 1_555 1_555
C21 C20 1_555 1_555
H16 C21 1_555 1_555
C22 C19 1_555 1_555
N1 C1 1_555 1_555
N2 C6 1_555 1_555
N3 C11 1_555 1_555
N4 Cd1 1_555 1_555
N5 O1 1_555 1_555
O1 Cd1 1_555 1_555
O2 Cd1 1_555 1_555
O3 N5 1_555 1_555
O4 C22 1_555 1_555
O5 C22 1_555 1_555
O6 Cd2 1_555 1_555
H17 O6 1_555 1_555
H18 O6 1_555 1_555
O7 C16 1_555 1_555
O8 Cd2 1_555 1_555
C1B H1B 1_555 1_555
C2B C1B 1_555 1_555
H2B C2B 1_555 1_555
C3B C2B 1_555 1_555
C4B C3B 1_555 1_555
H3B C4B 1_555 1_555
C5B C4B 1_555 1_555
H4B C5B 1_555 1_555
C6B H5B 1_555 1_555
C7B C6B 1_555 1_555
H6B C7B 1_555 1_555
C8B C3B 1_555 1_555
C9B C8B 1_555 1_555
H7B C9B 1_555 1_555
C10B C9B 1_555 1_555
H8B C10B 1_555 1_555
N1B C1B 1_555 1_555
N2B Cd2 1_555 1_555
O6B Cd2 1_555 1_555
H17B O6B 1_555 1_555
H18B O6B 1_555 1_555
C11B H9B 1_555 1_555
C12B C11B 1_555 1_555
H10B C12B 1_555 1_555
C13B C12B 1_555 1_555
C14B C13B 1_555 1_555
H11B C14B 1_555 1_555
C15B C14B 1_555 1_555
H12B C15B 1_555 1_555
C16B C13B 1_555 1_555
N3B C11B 1_555 1_555
O7B C16B 1_555 1_555
O8B Cd2 1_555 1_555
Cd1B N1B 1_555 1_555
C17C H13C 1_555 1_555
C18C C17C 1_555 1_555
H14C C18C 1_555 1_555
C19C C18C 1_555 1_555
C20C C19C 1_555 1_555
H15C C20C 1_555 1_555
C21C C20C 1_555 1_555
H16C C21C 1_555 1_555
C22C C19C 1_555 1_555
N4C C17C 1_555 1_555
O4C Cd1 1_555 1_555
O5C Cd1 1_555 1_555
N5B O1B 1_555 1_555
O1B Cd1B 1_555 1_555
O2B Cd1B 1_555 1_555
O3B N5B 1_555 1_555
N3A Cd1 1_555 1_555
Cd1A N3 1_555 1_555
Cd1C O4 1_555 1_555
Cd1C_2 N3B 1_555 1_555
N3C Cd1B 1_555 1_555
N4B Cd1B 1_555 1_555
O4A Cd1B 1_555 1_555
O5A Cd1B 1_555 1_555
Cd1C_3 N4C 1_555 1_555
C5 N1 1_555 1_555
C7 C8 1_555 1_555
C10 N2 1_555 1_555
C15 N3 1_555 1_555
C16 O8 1_555 1_555
C17 N4 1_555 1_555
C21 N4 1_555 1_555
N5 O2 1_555 1_555
O5 Cd1C 1_555 1_555
C5B N1B 1_555 1_555
C6B N2B 1_555 1_555
C7B C8B 1_555 1_555
C10B N2B 1_555 1_555
C15B N3B 1_555 1_555
C16B O8B 1_555 1_555
C21C N4C 1_555 1_555
C22C O4C 1_555 1_555
C22C O5C 1_555 1_555
N5B O2B 1_555 1_555

#END
