
#######################################################################
#
#                 Cambridge Crystallographic Data Centre
#                                CCDC 
#
#######################################################################
#
# If this CIF has been generated from an entry in the Cambridge 
# Structural Database, then it will include bibliographic, chemical, 
# crystal, experimental, refinement or atomic coordinate data resulting 
# from the CCDC's data processing and validation procedures.
#
#######################################################################

data_AVAQET
_symmetry_cell_setting           triclinic
_symmetry_space_group_name_H-M   'P -1'
_symmetry_Int_Tables_number      2
_space_group_name_Hall           '-P 1'
loop_
_symmetry_equiv_pos_site_id
_symmetry_equiv_pos_as_xyz
1 x,y,z
2 -x,-y,-z
_cell_length_a                   6.1194(6)
_cell_length_b                   8.8398(8)
_cell_length_c                   12.9334(12)
_cell_angle_alpha                94.623(2)
_cell_angle_beta                 99.255(2)
_cell_angle_gamma                109.191(2)
_cell_volume                     645.423
loop_
_atom_site_label
_atom_site_type_symbol
_atom_site_fract_x
_atom_site_fract_y
_atom_site_fract_z
Sm1 Sm 0.13296(4) 0.77129(3) 0.599036(19)
O1 O -0.1105(7) 0.5021(4) 0.6034(3)
O2 O -0.8492(7) 0.0401(4) 0.5996(3)
O3 O 0.2095(7) 0.8114(5) 0.7931(3)
O4 O 0.3818(7) 0.6077(4) 0.6325(3)
O5 O 0.5471(7) 0.9480(5) 0.6407(3)
O6 O -0.2728(7) 0.2365(4) 0.5669(3)
O7 O -0.7827(6) 0.2786(4) 0.5409(3)
O8 O -0.1379(7) 0.8130(5) 0.7188(3)
C1 C -0.2350(9) 0.3692(6) 0.6231(4)
C2 C -0.3426(9) 0.3623(6) 0.7198(4)
C3 C -0.2053(12) 0.4382(7) 0.8176(5)
H1 H -0.0475 0.5005 0.8225
C4 C -0.2985(12) 0.4230(8) 0.9081(5)
H2 H -0.2030 0.4726 0.9736
C5 C -0.5338(13) 0.3339(8) 0.9010(5)
H3 H -0.5971 0.3256 0.9619
C6 C -0.6775(11) 0.2564(7) 0.8039(5)
H4 H -0.8355 0.1954 0.7998
C7 C -0.5831(9) 0.2707(6) 0.7128(4)
C8 C 0.0284(10) 0.8421(6) 0.8002(4)
C9 C 0.0059(10) 0.9193(7) 0.9047(4)
C10 C -0.1750(10) 0.9789(7) 0.9117(5)
H5 H -0.2926 0.9649 0.8527
C11 C 0.1787(10) 0.9402(7) 0.9925(4)
H6 H 0.2995 0.8996 0.9875
C12 C -0.7474(9) 0.1894(6) 0.6082(4)
C11A C -0.1787(10) 1.0598(7) 1.0075(4)
C9A C -0.0059(10) 1.0807(7) 1.0953(4)
C8A C -0.0284(10) 1.1579(6) 1.1998(4)
O3A O -0.2095(7) 1.1886(5) 1.2069(3)
O8A O 0.1379(7) 1.1870(5) 1.2812(3)
C10A C 0.1750(10) 1.0211(7) 1.0883(5)
H5A H 0.2926 1.0351 1.1473
H6A H -0.2995 1.1004 1.0125
O1_2 O 0.8895(7) 1.5021(4) 0.6034(3)
O2_2 O 0.1508(7) 1.0401(4) 0.5996(3)
O6_2 O 0.7272(7) 1.2365(4) 0.5669(3)
O7_2 O 0.2173(6) 1.2786(4) 0.5409(3)
C1_2 C 0.7650(9) 1.3692(6) 0.6231(4)
C2_2 C 0.6574(9) 1.3623(6) 0.7198(4)
C3_2 C 0.7947(12) 1.4382(7) 0.8176(5)
H1_2 H 0.9525 1.5005 0.8225
C4_2 C 0.7015(12) 1.4230(8) 0.9081(5)
H2_2 H 0.7970 1.4726 0.9736
C5_2 C 0.4662(13) 1.3339(8) 0.9010(5)
H3_2 H 0.4029 1.3256 0.9619
C6_2 C 0.3225(11) 1.2564(7) 0.8039(5)
H4_2 H 0.1645 1.1954 0.7998
C7_2 C 0.4169(9) 1.2707(6) 0.7128(4)
C12_2 C 0.2526(9) 1.1894(6) 0.6082(4)
Sm1_2 Sm 1.13296(4) 1.77129(3) 0.599036(19)
O4_2 O 1.3818(7) 1.6077(4) 0.6325(3)
O5_2 O 1.5471(7) 1.9480(5) 0.6407(3)
O6A O 0.2728(7) 0.7635(4) 0.4331(3)
O7A O -0.2173(6) 0.7214(4) 0.4591(3)
Sm1_3 Sm -0.86704(4) -0.22871(3) 0.599036(19)
Sm1A Sm -0.13296(4) 0.22871(3) 0.400964(19)
Sm1A_2 Sm -1.13296(4) 0.22871(3) 0.400964(19)
Sm1A_3 Sm -0.13296(4) 1.22871(3) 1.400964(19)
Sm1A_4 Sm 0.86704(4) 1.22871(3) 0.400964(19)
Sm1A_5 Sm -0.13296(4) 1.22871(3) 0.400964(19)
O2_3 O 1.1508(7) 2.0401(4) 0.5996(3)
O3_2 O 1.2095(7) 1.8114(5) 0.7931(3)
O6A_2 O 1.2728(7) 1.7635(4) 0.4331(3)
O7A_2 O 0.7827(6) 1.7214(4) 0.4591(3)
O8_2 O 0.8621(7) 1.8130(5) 0.7188(3)
loop_
_geom_bond_atom_site_label_1
_geom_bond_atom_site_label_2
_geom_bond_site_symmetry_1
_geom_bond_site_symmetry_2
Sm1 O1 1_555 1_555
O1 C1 1_555 1_555
O2 C12 1_555 1_555
O3 Sm1 1_555 1_555
O4 Sm1 1_555 1_555
O5 Sm1 1_555 1_555
O6 C1 1_555 1_555
O7 C12 1_555 1_555
O8 Sm1 1_555 1_555
C1 C2 1_555 1_555
C2 C3 1_555 1_555
C3 H1 1_555 1_555
C4 C3 1_555 1_555
H2 C4 1_555 1_555
C5 C4 1_555 1_555
H3 C5 1_555 1_555
C6 C5 1_555 1_555
H4 C6 1_555 1_555
C7 C2 1_555 1_555
C8 O3 1_555 1_555
C9 C8 1_555 1_555
C10 C9 1_555 1_555
H5 C10 1_555 1_555
C11 C9 1_555 1_555
H6 C11 1_555 1_555
C12 C7 1_555 1_555
C11A C10 1_555 1_555
C9A C11A 1_555 1_555
C8A C9A 1_555 1_555
O3A C8A 1_555 1_555
O8A C8A 1_555 1_555
C10A C11 1_555 1_555
H5A C10A 1_555 1_555
H6A C11A 1_555 1_555
O1_2 C1_2 1_555 1_555
O2_2 Sm1 1_555 1_555
O6_2 C1_2 1_555 1_555
O7_2 C12_2 1_555 1_555
C1_2 C2_2 1_555 1_555
C2_2 C3_2 1_555 1_555
C3_2 H1_2 1_555 1_555
C4_2 C3_2 1_555 1_555
H2_2 C4_2 1_555 1_555
C5_2 C4_2 1_555 1_555
H3_2 C5_2 1_555 1_555
C6_2 C5_2 1_555 1_555
H4_2 C6_2 1_555 1_555
C7_2 C2_2 1_555 1_555
C12_2 O2_2 1_555 1_555
Sm1_2 O1_2 1_555 1_555
O4_2 Sm1_2 1_555 1_555
O5_2 Sm1_2 1_555 1_555
O6A Sm1 1_555 1_555
O7A Sm1 1_555 1_555
Sm1_3 O2 1_555 1_555
Sm1A O6 1_555 1_555
Sm1A_2 O7 1_555 1_555
Sm1A_3 O3A 1_555 1_555
Sm1A_4 O6_2 1_555 1_555
Sm1A_5 O7_2 1_555 1_555
O2_3 Sm1_2 1_555 1_555
O3_2 Sm1_2 1_555 1_555
O6A_2 Sm1_2 1_555 1_555
O7A_2 Sm1_2 1_555 1_555
O8_2 Sm1_2 1_555 1_555
O8 C8 1_555 1_555
C6 C7 1_555 1_555
C9A C10A 1_555 1_555
O8A Sm1A_3 1_555 1_555
C6_2 C7_2 1_555 1_555
C7_2 C12_2 1_555 1_555

#END
