
#######################################################################
#
#                 Cambridge Crystallographic Data Centre
#                                CCDC 
#
#######################################################################
#
# If this CIF has been generated from an entry in the Cambridge 
# Structural Database, then it will include bibliographic, chemical, 
# crystal, experimental, refinement or atomic coordinate data resulting 
# from the CCDC's data processing and validation procedures.
#
#######################################################################

data_AVAQAP
_symmetry_cell_setting           triclinic
_symmetry_space_group_name_H-M   'P -1'
_symmetry_Int_Tables_number      2
_space_group_name_Hall           '-P 1'
loop_
_symmetry_equiv_pos_site_id
_symmetry_equiv_pos_as_xyz
1 x,y,z
2 -x,-y,-z
_cell_length_a                   6.2153(2)
_cell_length_b                   8.8946(2)
_cell_length_c                   25.2259(7)
_cell_angle_alpha                88.6690(10)
_cell_angle_beta                 87.0990(10)
_cell_angle_gamma                70.70
_cell_volume                     1314.46
loop_
_atom_site_label
_atom_site_type_symbol
_atom_site_fract_x
_atom_site_fract_y
_atom_site_fract_z
Nd1 Nd 0.42741(5) 0.85251(4) 0.200322(12)
Nd2 Nd 0.67861(5) 0.43456(4) 0.294914(12)
O1 O 0.4898(8) 0.5709(5) 0.19442(17)
O2 O 0.1183(7) 0.8257(5) 0.26181(17)
O3 O 0.6634(8) 1.0248(5) 0.18390(19)
O4 O 0.4230(8) 0.8761(6) 0.10152(17)
O5 O 0.8234(7) 0.6920(5) 0.16666(19)
O6 O 0.1608(7) 0.1302(5) 0.20676(17)
O7 O 0.1009(7) 0.8732(5) 0.14057(17)
O8 O -0.5232(8) 0.9679(5) 0.29006(18)
O9 O -0.3213(7) 0.7149(5) 0.28046(16)
O10 O 0.2958(8) 0.5979(5) 0.30388(18)
O11 O 0.6367(8) 0.5116(6) 0.38919(18)
O12 O 0.9109(8) 0.1498(5) 0.3027(2)
O13 O 0.4426(7) 0.2743(5) 0.33250(18)
O14 O -0.0086(7) 0.3866(5) 0.22659(17)
O15 O 0.9872(8) 0.4158(6) 0.35733(18)
O16 O 0.5330(8) 0.3242(5) 0.21926(17)
C1 C -0.3682(11) 0.8459(8) 0.3055(2)
C2 C -0.2379(10) 0.8551(7) 0.3522(2)
C3 C -0.3558(12) 0.9292(8) 0.3981(3)
H1 H -0.5138 0.9746 0.3987
C4 C -0.2390(13) 0.9358(9) 0.4428(3)
H2 H -0.3174 0.9873 0.4732
C5 C -0.0046(13) 0.8650(9) 0.4419(3)
H3 H 0.0734 0.8662 0.4723
C6 C 0.1140(12) 0.7937(8) 0.3974(3)
H4 H 0.2716 0.7466 0.3977
C7 C 0.0018(11) 0.7908(7) 0.3514(2)
C8 C 0.8458(12) 0.4692(8) 0.3961(3)
C9 C 0.9271(11) 0.4841(8) 0.4497(3)
C10 C 0.7702(12) 0.5528(9) 0.4905(3)
H5 H 0.6152 0.5889 0.4842
C11 C 1.1593(11) 0.4318(9) 0.4600(3)
H6 H 1.2668 0.3862 0.4329
C12 C 0.4622(11) 0.4380(8) 0.1874(2)
C13 C 0.3442(11) 0.4146(7) 0.1394(3)
C14 C 0.3895(12) 0.4732(9) 0.0902(3)
H7 H 0.4865 0.5335 0.0872
C15 C 0.2916(15) 0.4426(10) 0.0458(3)
H8 H 0.3227 0.4825 0.0129
C16 C 0.1491(14) 0.3540(10) 0.0496(3)
H9 H 0.0874 0.3314 0.0192
C17 C 0.0954(12) 0.2972(9) 0.0986(3)
H10 H -0.0061 0.2403 0.1011
C18 C 0.1934(11) 0.3258(7) 0.1434(2)
C19 C 0.2177(12) 0.8928(8) 0.0992(3)
C20 C 0.1006(11) 0.9445(8) 0.0474(2)
C21 C -0.1341(11) 0.9968(8) 0.0455(3)
H11 H -0.2238 0.9932 0.0758
C22 C 0.2354(12) 0.9454(8) 0.0019(3)
H12 H 0.3935 0.9072 0.0031
C23 C 0.1458(10) 0.7323(8) 0.3012(2)
C24 C 0.1136(10) 0.2749(7) 0.1963(2)
C22A C -0.2354(12) 1.0546(8) -0.0019(3)
C20A C -0.1006(11) 1.0555(8) -0.0474(2)
C19A C -0.2177(12) 1.1072(8) -0.0992(3)
O4A O -0.4230(8) 1.1239(6) -0.10152(17)
O7A O -0.1009(7) 1.1268(5) -0.14057(17)
C21A C 0.1341(11) 1.0032(8) -0.0455(3)
H11A H 0.2238 1.0068 -0.0758
H12A H -0.3935 1.0928 -0.0031
C11A C 0.8407(11) 0.5682(9) 0.5400(3)
C9A C 1.0729(11) 0.5159(8) 0.5503(3)
C8A C 1.1542(12) 0.5308(8) 0.6039(3)
O11A O 1.3633(8) 0.4884(6) 0.61081(18)
O15A O 1.0128(8) 0.5842(6) 0.64267(18)
C10A C 1.2298(12) 0.4472(9) 0.5095(3)
H5A H 1.3848 0.4111 0.5158
H6A H 0.7332 0.6138 0.5671
O1_2 O 0.4898(8) 1.5709(5) 0.19442(17)
O6_2 O 0.1608(7) 1.1302(5) 0.20676(17)
O14_2 O -0.0086(7) 1.3866(5) 0.22659(17)
O16_2 O 0.5330(8) 1.3242(5) 0.21926(17)
C12_2 C 0.4622(11) 1.4380(8) 0.1874(2)
C13_2 C 0.3442(11) 1.4146(7) 0.1394(3)
C14_2 C 0.3895(12) 1.4732(9) 0.0902(3)
H7_2 H 0.4865 1.5335 0.0872
C15_2 C 0.2916(15) 1.4426(10) 0.0458(3)
H8_2 H 0.3227 1.4825 0.0129
C16_2 C 0.1491(14) 1.3540(10) 0.0496(3)
H9_2 H 0.0874 1.3314 0.0192
C17_2 C 0.0954(12) 1.2972(9) 0.0986(3)
H10_2 H -0.0061 1.2403 0.1011
C18_2 C 0.1934(11) 1.3258(7) 0.1434(2)
C24_2 C 0.1136(10) 1.2749(7) 0.1963(2)
O2_2 O 1.1183(7) 0.8257(5) 0.26181(17)
O8_2 O 0.4768(8) 0.9679(5) 0.29006(18)
O9_2 O 0.6787(7) 0.7149(5) 0.28046(16)
O10_2 O 1.2958(8) 0.5979(5) 0.30388(18)
C1_2 C 0.6318(11) 0.8459(8) 0.3055(2)
C2_2 C 0.7621(10) 0.8551(7) 0.3522(2)
C3_2 C 0.6442(12) 0.9292(8) 0.3981(3)
H1_2 H 0.4862 0.9746 0.3987
C4_2 C 0.7610(13) 0.9358(9) 0.4428(3)
H2_2 H 0.6826 0.9873 0.4732
C5_2 C 0.9954(13) 0.8650(9) 0.4419(3)
H3_2 H 1.0734 0.8662 0.4723
C6_2 C 1.1140(12) 0.7937(8) 0.3974(3)
H4_2 H 1.2716 0.7466 0.3977
C7_2 C 1.0018(11) 0.7908(7) 0.3514(2)
C23_2 C 1.1458(10) 0.7323(8) 0.3012(2)
Nd1_2 Nd 0.42741(5) 1.85251(4) 0.200322(12)
Nd2_2 Nd 0.67861(5) 1.43456(4) 0.294914(12)
O3_2 O 0.6634(8) 2.0248(5) 0.18390(19)
O5_2 O 0.8234(7) 1.6920(5) 0.16666(19)
O12_2 O 0.9109(8) 1.1498(5) 0.3027(2)
O13_2 O 0.4426(7) 1.2743(5) 0.33250(18)
O14_3 O 0.9914(7) 0.3866(5) 0.22659(17)
Nd1_3 Nd 0.42741(5) -0.14749(4) 0.200322(12)
Nd1_4 Nd -0.57259(5) 0.85251(4) 0.200322(12)
Nd2_3 Nd -0.32139(5) 0.43456(4) 0.294914(12)
Nd1A Nd -0.42741(5) 1.14749(4) -0.200322(12)
Nd2A Nd 1.32139(5) 0.56544(4) 0.705086(12)
Nd2_4 Nd -0.32139(5) 1.43456(4) 0.294914(12)
Nd1_5 Nd 1.42741(5) 0.85251(4) 0.200322(12)
Nd2_5 Nd 1.67861(5) 0.43456(4) 0.294914(12)
O2_3 O 0.1183(7) 1.8257(5) 0.26181(17)
O4_2 O 0.4230(8) 1.8761(6) 0.10152(17)
O6_3 O 0.1608(7) 2.1302(5) 0.20676(17)
O7_2 O 0.1009(7) 1.8732(5) 0.14057(17)
O8_3 O 0.4768(8) 1.9679(5) 0.29006(18)
O9_3 O 0.6787(7) 1.7149(5) 0.28046(16)
O10_3 O 0.2958(8) 1.5979(5) 0.30388(18)
O11_2 O 0.6367(8) 1.5116(6) 0.38919(18)
O14_4 O 0.9914(7) 1.3866(5) 0.22659(17)
O15_2 O 0.9872(8) 1.4158(6) 0.35733(18)
loop_
_geom_bond_atom_site_label_1
_geom_bond_atom_site_label_2
_geom_bond_site_symmetry_1
_geom_bond_site_symmetry_2
Nd1 O1 1_555 1_555
Nd2 O1 1_555 1_555
O1 C12 1_555 1_555
O2 Nd1 1_555 1_555
O3 Nd1 1_555 1_555
O4 Nd1 1_555 1_555
O5 Nd1 1_555 1_555
O6 C24 1_555 1_555
O7 Nd1 1_555 1_555
O8 C1 1_555 1_555
O9 C1 1_555 1_555
O10 Nd2 1_555 1_555
O11 Nd2 1_555 1_555
O12 Nd2 1_555 1_555
O13 Nd2 1_555 1_555
O14 C24 1_555 1_555
O15 Nd2 1_555 1_555
O16 Nd2 1_555 1_555
C1 C2 1_555 1_555
C2 C3 1_555 1_555
C3 H1 1_555 1_555
C4 C3 1_555 1_555
H2 C4 1_555 1_555
C5 C4 1_555 1_555
H3 C5 1_555 1_555
C6 C5 1_555 1_555
H4 C6 1_555 1_555
C7 C2 1_555 1_555
C8 O11 1_555 1_555
C9 C8 1_555 1_555
C10 C9 1_555 1_555
H5 C10 1_555 1_555
C11 C9 1_555 1_555
H6 C11 1_555 1_555
C12 O16 1_555 1_555
C13 C12 1_555 1_555
C14 C13 1_555 1_555
H7 C14 1_555 1_555
C15 C14 1_555 1_555
H8 C15 1_555 1_555
C16 C15 1_555 1_555
H9 C16 1_555 1_555
C17 C16 1_555 1_555
H10 C17 1_555 1_555
C18 C13 1_555 1_555
C19 O4 1_555 1_555
C20 C19 1_555 1_555
C21 C20 1_555 1_555
H11 C21 1_555 1_555
C22 C20 1_555 1_555
H12 C22 1_555 1_555
C23 O2 1_555 1_555
C24 C18 1_555 1_555
C22A C21 1_555 1_555
C20A C22A 1_555 1_555
C19A C20A 1_555 1_555
O4A C19A 1_555 1_555
O7A C19A 1_555 1_555
C21A C22 1_555 1_555
H11A C21A 1_555 1_555
H12A C22A 1_555 1_555
C11A C10 1_555 1_555
C9A C11A 1_555 1_555
C8A C9A 1_555 1_555
O11A C8A 1_555 1_555
O15A C8A 1_555 1_555
C10A C11 1_555 1_555
H5A C10A 1_555 1_555
H6A C11A 1_555 1_555
O1_2 C12_2 1_555 1_555
O6_2 Nd1 1_555 1_555
O14_2 C24_2 1_555 1_555
O16_2 C12_2 1_555 1_555
C12_2 C13_2 1_555 1_555
C13_2 C14_2 1_555 1_555
C14_2 H7_2 1_555 1_555
C15_2 C14_2 1_555 1_555
H8_2 C15_2 1_555 1_555
C16_2 C15_2 1_555 1_555
H9_2 C16_2 1_555 1_555
C17_2 C16_2 1_555 1_555
H10_2 C17_2 1_555 1_555
C18_2 C13_2 1_555 1_555
C24_2 O6_2 1_555 1_555
O2_2 C23_2 1_555 1_555
O8_2 Nd1 1_555 1_555
O9_2 Nd1 1_555 1_555
O10_2 C23_2 1_555 1_555
C1_2 O8_2 1_555 1_555
C2_2 C1_2 1_555 1_555
C3_2 C2_2 1_555 1_555
H1_2 C3_2 1_555 1_555
C4_2 C3_2 1_555 1_555
H2_2 C4_2 1_555 1_555
C5_2 C4_2 1_555 1_555
H3_2 C5_2 1_555 1_555
C6_2 C5_2 1_555 1_555
H4_2 C6_2 1_555 1_555
C7_2 C2_2 1_555 1_555
C23_2 C7_2 1_555 1_555
Nd1_2 O1_2 1_555 1_555
Nd2_2 O1_2 1_555 1_555
O3_2 Nd1_2 1_555 1_555
O5_2 Nd1_2 1_555 1_555
O12_2 Nd2_2 1_555 1_555
O13_2 Nd2_2 1_555 1_555
O14_3 Nd2 1_555 1_555
Nd1_3 O6 1_555 1_555
Nd1_4 O8 1_555 1_555
Nd2_3 O9 1_555 1_555
Nd1A O4A 1_555 1_555
Nd2A O11A 1_555 1_555
Nd2_4 O14_2 1_555 1_555
Nd1_5 O2_2 1_555 1_555
Nd2_5 O10_2 1_555 1_555
O2_3 Nd1_2 1_555 1_555
O4_2 Nd1_2 1_555 1_555
O6_3 Nd1_2 1_555 1_555
O7_2 Nd1_2 1_555 1_555
O8_3 Nd1_2 1_555 1_555
O9_3 Nd1_2 1_555 1_555
O10_3 Nd2_2 1_555 1_555
O11_2 Nd2_2 1_555 1_555
O14_4 Nd2_2 1_555 1_555
O15_2 Nd2_2 1_555 1_555
Nd2 O9_2 1_555 1_555
O7 C19 1_555 1_555
O9 Nd1_4 1_555 1_555
O10 C23 1_555 1_555
O14 Nd2_3 1_555 1_555
O15 C8 1_555 1_555
C6 C7 1_555 1_555
C7 C23 1_555 1_555
C17 C18 1_555 1_555
C20A C21A 1_555 1_555
O7A Nd1A 1_555 1_555
C9A C10A 1_555 1_555
O15A Nd2A 1_555 1_555
O16_2 Nd2_2 1_555 1_555
C17_2 C18_2 1_555 1_555
C18_2 C24_2 1_555 1_555
O9_2 C1_2 1_555 1_555
C6_2 C7_2 1_555 1_555
Nd2_2 O9_3 1_555 1_555

#END
