
#######################################################################
#
#                 Cambridge Crystallographic Data Centre
#                                CCDC 
#
#######################################################################
#
# If this CIF has been generated from an entry in the Cambridge 
# Structural Database, then it will include bibliographic, chemical, 
# crystal, experimental, refinement or atomic coordinate data resulting 
# from the CCDC's data processing and validation procedures.
#
#######################################################################

data_AVASEV
_symmetry_cell_setting           monoclinic
_symmetry_space_group_name_H-M   'P 21/c'
_symmetry_Int_Tables_number      14
_space_group_name_Hall           '-P 2ybc'
loop_
_symmetry_equiv_pos_site_id
_symmetry_equiv_pos_as_xyz
1 x,y,z
2 x,1/2-y,1/2+z
3 -x,-y,-z
4 -x,1/2+y,1/2-z
_cell_length_a                   21.532(4)
_cell_length_b                   7.2660(10)
_cell_length_c                   18.353(3)
_cell_angle_alpha                90
_cell_angle_beta                 91.570(10)
_cell_angle_gamma                90
_cell_volume                     2870.28
loop_
_atom_site_label
_atom_site_type_symbol
_atom_site_fract_x
_atom_site_fract_y
_atom_site_fract_z
Ba1 Ba 0.413206(13) 0.48177(4) 0.412949(15)
Cu1 Cu 0.28563(3) 0.63223(7) 0.60477(3)
Cu2 Cu 0.29757(3) 0.07761(7) 0.68427(3)
C1 C 0.1774(3) 0.7250(7) 0.5223(3)
C2 C 0.1483(3) 0.7475(7) 0.4533(3)
H1 H 0.1729 0.7496 0.4124
C3 C 0.0875(3) 0.7658(8) 0.4442(4)
H2 H 0.0698 0.7767 0.3976
C4 C 0.0495(3) 0.7687(8) 0.5058(3)
H3 H 0.0068 0.7854 0.5003
C5 C 0.0756(3) 0.7473(8) 0.5717(3)
H4 H 0.0504 0.7480 0.6120
C6 C 0.1397(3) 0.7237(7) 0.5826(3)
C7 C 0.1612(2) 0.6980(7) 0.6580(3)
C8 C 0.1161(2) 0.7133(7) 0.7188(3)
H5 H 0.0901 0.6060 0.7192
H6 H 0.0908 0.8209 0.7117
H7 H 0.1386 0.7227 0.7646
C9 C 0.2420(2) 0.6210(6) 0.7482(2)
H8 H 0.2165 0.5259 0.7693
H9 H 0.2382 0.7312 0.7776
C10 C 0.3088(2) 0.5591(6) 0.7497(3)
C11 C 0.3979(2) 0.5145(6) 0.6733(2)
H10 H 0.4061 0.3900 0.6901
H11 H 0.4258 0.5973 0.6996
C12 C 0.4080(2) 0.5286(6) 0.5920(2)
C13 C 0.1767(2) 0.1504(7) 0.7349(3)
C14 C 0.1376(2) 0.1649(7) 0.7952(3)
H12 H 0.1545 0.1462 0.8418
C15 C 0.0760(3) 0.2054(7) 0.7876(3)
H13 H 0.0512 0.2112 0.8283
C16 C 0.0507(3) 0.2379(7) 0.7183(3)
H14 H 0.0086 0.2636 0.7122
C17 C 0.0883(2) 0.2321(7) 0.6587(3)
H15 H 0.0707 0.2574 0.6129
C18 C 0.1522(2) 0.1895(7) 0.6639(3)
C19 C 0.1895(2) 0.1899(6) 0.5977(3)
C20 C 0.1567(2) 0.2329(7) 0.5264(3)
H16 H 0.1862 0.2346 0.4882
H17 H 0.1258 0.1404 0.5161
H18 H 0.1370 0.3511 0.5295
C21 C 0.2845(2) 0.1608(6) 0.5348(3)
H19 H 0.2687 0.0716 0.4996
H20 H 0.2809 0.2821 0.5130
C22 C 0.3519(2) 0.1202(6) 0.5528(3)
C23 C 0.4230(2) 0.0076(6) 0.6482(2)
H21 H 0.4387 -0.1000 0.6235
H22 H 0.4521 0.1080 0.6424
C24 C 0.4144(2) -0.0338(6) 0.7294(3)
N1 N 0.21919(18) 0.6596(5) 0.6736(2)
N2 N 0.33440(18) 0.5635(5) 0.6862(2)
N3 N 0.24690(19) 0.1533(5) 0.6008(2)
N4 N 0.36199(18) 0.0579(5) 0.6184(2)
O1 O 0.23697(16) 0.7037(4) 0.52343(18)
O2 O 0.33471(15) 0.5114(4) 0.80851(16)
O3 O 0.36078(14) 0.5723(4) 0.55207(16)
O4 O 0.45948(14) 0.4987(4) 0.56761(16)
O5 O 0.23414(15) 0.1002(4) 0.75000(17)
O6 O 0.39202(15) 0.1420(4) 0.50495(17)
O7 O 0.36180(14) -0.0018(4) 0.75611(16)
O8 O 0.45898(15) -0.0926(4) 0.76537(17)
O9 O 0.44498(15) 0.1761(4) 0.33308(18)
H23 H 0.4150 0.1484 0.3040
H24 H 0.4770 0.2003 0.3088
O10 O 0.45601(18) 0.8284(4) 0.4522(2)
H25 H 0.4321 0.9213 0.4501
H26 H 0.4930 0.8637 0.4616
O11 O 0.31107(16) 0.7089(4) 0.40323(19)
H27 H 0.2974 0.7269 0.4457
H28 H 0.3215 0.8112 0.3848
O12 O 0.29691(14) 0.3084(4) 0.38296(16)
H29 H 0.2908 0.3060 0.3370
H30 H 0.2970 0.1981 0.3984
O4B O 0.54052(14) 0.5013(4) 0.43239(16)
O7A O 0.36180(14) 0.5018(4) 0.25611(16)
O8A O 0.45898(15) 0.5926(4) 0.26537(17)
Ba1B Ba 0.586794(13) 0.51823(4) 0.587051(15)
Ba1A Ba 0.413206(13) 0.01823(4) 0.912949(15)
loop_
_geom_bond_atom_site_label_1
_geom_bond_atom_site_label_2
_geom_bond_site_symmetry_1
_geom_bond_site_symmetry_2
Ba1 O3 1_555 1_555
Cu1 N1 1_555 1_555
Cu2 N3 1_555 1_555
C1 C2 1_555 1_555
C2 H1 1_555 1_555
C3 C2 1_555 1_555
H2 C3 1_555 1_555
C4 C3 1_555 1_555
H3 C4 1_555 1_555
C5 C4 1_555 1_555
H4 C5 1_555 1_555
C6 C1 1_555 1_555
C7 C6 1_555 1_555
C8 C7 1_555 1_555
H5 C8 1_555 1_555
H6 C8 1_555 1_555
H7 C8 1_555 1_555
C9 H8 1_555 1_555
H9 C9 1_555 1_555
C10 C9 1_555 1_555
C11 H10 1_555 1_555
H11 C11 1_555 1_555
C12 C11 1_555 1_555
C13 C14 1_555 1_555
C14 H12 1_555 1_555
C15 C14 1_555 1_555
H13 C15 1_555 1_555
C16 C15 1_555 1_555
H14 C16 1_555 1_555
C17 C16 1_555 1_555
H15 C17 1_555 1_555
C18 C13 1_555 1_555
C19 C18 1_555 1_555
C20 C19 1_555 1_555
H16 C20 1_555 1_555
H17 C20 1_555 1_555
H18 C20 1_555 1_555
C21 H19 1_555 1_555
H20 C21 1_555 1_555
C22 C21 1_555 1_555
C23 H21 1_555 1_555
H22 C23 1_555 1_555
C24 C23 1_555 1_555
N1 C7 1_555 1_555
N2 Cu1 1_555 1_555
N3 C19 1_555 1_555
N4 Cu2 1_555 1_555
O1 Cu1 1_555 1_555
O2 C10 1_555 1_555
O3 Cu1 1_555 1_555
O4 Ba1 1_555 1_555
O5 Cu2 1_555 1_555
O6 Ba1 1_555 1_555
O7 Cu2 1_555 1_555
O8 C24 1_555 1_555
O9 Ba1 1_555 1_555
H23 O9 1_555 1_555
H24 O9 1_555 1_555
O10 Ba1 1_555 1_555
H25 O10 1_555 1_555
H26 O10 1_555 1_555
O11 Ba1 1_555 1_555
H27 O11 1_555 1_555
H28 O11 1_555 1_555
O12 Ba1 1_555 1_555
H29 O12 1_555 1_555
H30 O12 1_555 1_555
O4B Ba1 1_555 1_555
O7A Ba1 1_555 1_555
O8A Ba1 1_555 1_555
Ba1B O4 1_555 1_555
Ba1A O7 1_555 1_555
C1 O1 1_555 1_555
C5 C6 1_555 1_555
C9 N1 1_555 1_555
C10 N2 1_555 1_555
C11 N2 1_555 1_555
C12 O3 1_555 1_555
C12 O4 1_555 1_555
C13 O5 1_555 1_555
C17 C18 1_555 1_555
C21 N3 1_555 1_555
C22 N4 1_555 1_555
C22 O6 1_555 1_555
C23 N4 1_555 1_555
C24 O7 1_555 1_555
O8 Ba1A 1_555 1_555
O4B Ba1B 1_555 1_555

#END
