
#######################################################################
#
#                 Cambridge Crystallographic Data Centre
#                                CCDC 
#
#######################################################################
#
# If this CIF has been generated from an entry in the Cambridge 
# Structural Database, then it will include bibliographic, chemical, 
# crystal, experimental, refinement or atomic coordinate data resulting 
# from the CCDC's data processing and validation procedures.
#
#######################################################################

data_AVAWEA01
_symmetry_cell_setting           triclinic
_symmetry_space_group_name_H-M   'P -1'
_symmetry_Int_Tables_number      2
_space_group_name_Hall           '-P 1'
loop_
_symmetry_equiv_pos_site_id
_symmetry_equiv_pos_as_xyz
1 x,y,z
2 -x,-y,-z
_cell_length_a                   8.735(2)
_cell_length_b                   10.735(3)
_cell_length_c                   10.910(4)
_cell_angle_alpha                60.643(4)
_cell_angle_beta                 69.102(7)
_cell_angle_gamma                85.261(5)
_cell_volume                     827.637
loop_
_atom_site_label
_atom_site_type_symbol
_atom_site_fract_x
_atom_site_fract_y
_atom_site_fract_z
Cd1 Cd 1.226507(19) 0.914989(18) -0.330858(17)
N1 N 1.1920(3) 0.7105(2) -0.1093(2)
N2 N 1.0569(3) 0.5445(2) 0.1224(2)
O1 O 1.0263(2) 1.0125(2) -0.2095(2)
O2 O 0.9396(2) 0.8972(2) -0.2957(2)
O3 O 0.5380(2) 0.98489(18) 0.35628(18)
O4 O 0.3588(2) 0.7973(2) 0.5458(2)
O5 O 1.2658(2) 1.1166(2) -0.5687(2)
C1 C 1.0646(3) 0.6786(3) 0.0135(3)
H1 H 0.9883 0.7418 0.0237
C2 C 1.2710(4) 0.5900(3) -0.0769(3)
H2 H 1.3674 0.5806 -0.1432
C3 C 1.1889(4) 0.4870(3) 0.0650(3)
H3 H 1.2167 0.3945 0.1145
C4 C 0.9290(4) 0.4734(4) 0.2731(3)
H4 H 0.9120 0.3719 0.3063
H5 H 0.8265 0.5135 0.2675
C5 C 0.9778(4) 0.3676(3) 0.5163(3)
H6 H 0.9629 0.2771 0.5279
C6 C 0.9695(3) 0.4885(3) 0.3893(3)
C7 C 0.9924(4) 0.6207(3) 0.3744(3)
H7 H 0.9877 0.7034 0.2892
C8 C 0.9138(3) 0.9701(3) -0.2298(3)
C9 C 0.7401(3) 1.0020(3) -0.1677(3)
H8 H 0.7441 1.0897 -0.1633
H9 H 0.6830 1.0170 -0.2348
C10 C 0.6467(3) 0.8804(3) -0.0125(3)
C11 C 0.5348(3) 0.7807(3) 0.0091(4)
H10 H 0.5181 0.7878 -0.0735
C12 C 0.4482(4) 0.6713(3) 0.1519(4)
H11 H 0.3743 0.6042 0.1651
C13 C 0.4702(3) 0.6604(3) 0.2757(4)
H12 H 0.4097 0.5872 0.3721
C14 C 0.5828(3) 0.7588(3) 0.2566(3)
C15 C 0.6700(3) 0.8674(3) 0.1121(3)
H13 H 0.7460 0.9332 0.0984
C16 C 0.6007(4) 0.7526(3) 0.3921(3)
H14 H 0.5704 0.6549 0.4761
H15 H 0.7148 0.7809 0.3684
C17 C 0.4918(3) 0.8517(3) 0.4360(3)
H16 H 1.360(3) 1.093(3) -0.604(4)
H17 H 1.195(4) 1.111(4) -0.604(4)
Cd1A Cd 0.773493(19) 0.085011(18) 1.330858(17)
Cd1A_2 Cd 0.773493(19) 1.085011(18) 0.330858(17)
Cd1_2 Cd 0.226507(19) 0.914989(18) 0.669142(17)
Cd1A_3 Cd 1.773493(19) 1.085011(18) -0.669142(17)
N1A N 0.8080(3) 0.2895(2) 1.1093(2)
N2A N 0.9431(3) 0.4555(2) 0.8776(2)
O1A O 0.9737(2) 0.9875(2) 0.2095(2)
O1A_2 O 0.9737(2) -0.0125(2) 1.2095(2)
O2A O 1.0604(2) 1.1028(2) 0.2957(2)
O2A_2 O 1.0604(2) 0.1028(2) 1.2957(2)
O3A O 1.4620(2) 1.01511(18) -0.35628(18)
O3_2 O 0.5380(2) -0.01511(18) 1.35628(18)
O4A O 1.6412(2) 1.2027(2) -0.5458(2)
O4_2 O 1.3588(2) 0.7973(2) -0.4542(2)
O4A_2 O 0.6412(2) 0.2027(2) 1.4542(2)
O5A O 0.7342(2) -0.1166(2) 1.5687(2)
C1A C 0.9354(3) 0.3214(3) 0.9865(3)
H1A H 1.0117 0.2582 0.9763
C2A C 0.7290(4) 0.4100(3) 1.0769(3)
H2A H 0.6326 0.4194 1.1432
C3A C 0.8111(4) 0.5130(3) 0.9350(3)
H3A H 0.7833 0.6055 0.8855
C4A C 1.0710(4) 0.5266(4) 0.7269(3)
H4A H 1.0880 0.6281 0.6937
H5A H 1.1735 0.4865 0.7325
C5A C 1.0222(4) 0.6324(3) 0.4837(3)
H6A H 1.0371 0.7229 0.4721
C6A C 1.0305(3) 0.5115(3) 0.6107(3)
C7A C 1.0076(4) 0.3793(3) 0.6256(3)
H7A H 1.0123 0.2966 0.7108
C8A C 1.0862(3) 1.0299(3) 0.2298(3)
C9A C 1.2599(3) 0.9980(3) 0.1677(3)
H8A H 1.2559 0.9103 0.1633
H9A H 1.3170 0.9830 0.2348
C10A C 1.3533(3) 1.1196(3) 0.0125(3)
C11A C 1.4652(3) 1.2193(3) -0.0091(4)
H10A H 1.4819 1.2122 0.0735
C12A C 1.5518(4) 1.3287(3) -0.1519(4)
H11A H 1.6257 1.3958 -0.1651
C13A C 1.5298(3) 1.3396(3) -0.2757(4)
H12A H 1.5903 1.4128 -0.3721
C14A C 1.4172(3) 1.2412(3) -0.2566(3)
C15A C 1.3300(3) 1.1326(3) -0.1121(3)
H13A H 1.2540 1.0668 -0.0984
C16A C 1.3993(4) 1.2474(3) -0.3921(3)
H14A H 1.4296 1.3451 -0.4761
H15A H 1.2852 1.2191 -0.3684
C17A C 1.5082(3) 1.1483(3) -0.4360(3)
H16A H 0.640(3) -0.093(3) 1.604(4)
H17A H 0.805(4) -0.111(4) 1.604(4)
loop_
_geom_bond_atom_site_label_1
_geom_bond_atom_site_label_2
_geom_bond_site_symmetry_1
_geom_bond_site_symmetry_2
Cd1 N1 1_555 1_555
N1 C1 1_555 1_555
N2 C1 1_555 1_555
O1 Cd1 1_555 1_555
O2 Cd1 1_555 1_555
O3 C17 1_555 1_555
O4 C17 1_555 1_555
O5 Cd1 1_555 1_555
C1 H1 1_555 1_555
C2 N1 1_555 1_555
H2 C2 1_555 1_555
C3 N2 1_555 1_555
H3 C3 1_555 1_555
C4 N2 1_555 1_555
H4 C4 1_555 1_555
H5 C4 1_555 1_555
C5 H6 1_555 1_555
C6 C4 1_555 1_555
C7 C6 1_555 1_555
H7 C7 1_555 1_555
C8 O1 1_555 1_555
C9 C8 1_555 1_555
H8 C9 1_555 1_555
H9 C9 1_555 1_555
C10 C9 1_555 1_555
C11 C10 1_555 1_555
H10 C11 1_555 1_555
C12 C11 1_555 1_555
H11 C12 1_555 1_555
C13 C12 1_555 1_555
H12 C13 1_555 1_555
C14 C13 1_555 1_555
C15 C10 1_555 1_555
H13 C15 1_555 1_555
C16 C14 1_555 1_555
H14 C16 1_555 1_555
H15 C16 1_555 1_555
C17 C16 1_555 1_555
H16 O5 1_555 1_555
H17 O5 1_555 1_555
Cd1A N1A 1_555 1_555
Cd1A_2 O3 1_555 1_555
Cd1_2 O4 1_555 1_555
Cd1A_3 O4A 1_555 1_555
N1A C1A 1_555 1_555
N2A C1A 1_555 1_555
O1A Cd1A_2 1_555 1_555
O1A_2 Cd1A 1_555 1_555
O2A Cd1A_2 1_555 1_555
O2A_2 Cd1A 1_555 1_555
O3A Cd1 1_555 1_555
O3_2 Cd1A 1_555 1_555
O4A C17A 1_555 1_555
O4_2 Cd1 1_555 1_555
O4A_2 Cd1A 1_555 1_555
O5A Cd1A 1_555 1_555
C1A H1A 1_555 1_555
C2A N1A 1_555 1_555
H2A C2A 1_555 1_555
C3A N2A 1_555 1_555
H3A C3A 1_555 1_555
C4A N2A 1_555 1_555
H4A C4A 1_555 1_555
H5A C4A 1_555 1_555
C5A C7 1_555 1_555
H6A C5A 1_555 1_555
C6A C4A 1_555 1_555
C7A C5 1_555 1_555
H7A C7A 1_555 1_555
C8A O1A 1_555 1_555
C9A C8A 1_555 1_555
H8A C9A 1_555 1_555
H9A C9A 1_555 1_555
C10A C9A 1_555 1_555
C11A C10A 1_555 1_555
H10A C11A 1_555 1_555
C12A C11A 1_555 1_555
H11A C12A 1_555 1_555
C13A C12A 1_555 1_555
H12A C13A 1_555 1_555
C14A C13A 1_555 1_555
C15A C10A 1_555 1_555
H13A C15A 1_555 1_555
C16A C14A 1_555 1_555
H14A C16A 1_555 1_555
H15A C16A 1_555 1_555
C17A O3A 1_555 1_555
H16A O5A 1_555 1_555
H17A O5A 1_555 1_555
O2 C8 1_555 1_555
C2 C3 1_555 1_555
C5 C6 1_555 1_555
C14 C15 1_555 1_555
O2A C8A 1_555 1_555
C2A C3A 1_555 1_555
C5A C6A 1_555 1_555
C6A C7A 1_555 1_555
C14A C15A 1_555 1_555
C16A C17A 1_555 1_555

#END
