
#######################################################################
#
#                 Cambridge Crystallographic Data Centre
#                                CCDC 
#
#######################################################################
#
# If this CIF has been generated from an entry in the Cambridge 
# Structural Database, then it will include bibliographic, chemical, 
# crystal, experimental, refinement or atomic coordinate data resulting 
# from the CCDC's data processing and validation procedures.
#
#######################################################################

data_AVAWEA
_symmetry_cell_setting           triclinic
_symmetry_space_group_name_H-M   'P -1'
_symmetry_Int_Tables_number      2
_space_group_name_Hall           '-P 1'
loop_
_symmetry_equiv_pos_site_id
_symmetry_equiv_pos_as_xyz
1 x,y,z
2 -x,-y,-z
_cell_length_a                   8.7463(17)
_cell_length_b                   10.740(2)
_cell_length_c                   10.911(2)
_cell_angle_alpha                60.59(3)
_cell_angle_beta                 69.11(3)
_cell_angle_gamma                85.35(3)
_cell_volume                     828.568
loop_
_atom_site_label
_atom_site_type_symbol
_atom_site_fract_x
_atom_site_fract_y
_atom_site_fract_z
Cd1 Cd 0.27368(2) 0.58484(2) 0.330982(19)
O1 O 0.1418(2) 0.7029(2) 0.4541(2)
O2 O -0.0380(2) 0.5151(2) 0.64331(19)
O3 O -0.5262(2) 0.4877(2) 1.2092(2)
O4 O -0.4398(2) 0.6025(2) 1.2962(2)
O5 O 0.2348(3) 0.3833(2) 0.5690(2)
H1 H 0.1398 0.3963 0.6177
H2 H 0.3085 0.3938 0.6048
N1 N 0.3076(3) 0.7892(3) 0.1098(2)
N2 N 0.4432(3) 0.9555(3) -0.1225(2)
C1 C 0.0081(3) 0.6479(3) 0.5639(3)
C2 C -0.1005(4) 0.7470(3) 0.6076(3)
H3 H -0.2167 0.7178 0.6325
H4 H -0.0698 0.8464 0.5217
C3 C -0.0817(3) 0.7410(3) 0.7430(3)
C4 C -0.1697(3) 0.6330(3) 0.8877(3)
H5 H -0.2483 0.5670 0.9014
C5 C -0.1460(3) 0.6199(3) 1.0114(3)
C6 C -0.0350(4) 0.7197(4) 0.9900(4)
H6 H -0.0187 0.7133 1.0743
C7 C 0.0507(4) 0.8287(4) 0.8470(4)
H7 H 0.1267 0.8966 0.8335
C8 C 0.0292(4) 0.8387(3) 0.7244(4)
H8 H 0.0888 0.9143 0.6262
C9 C -0.2398(3) 0.4984(3) 1.1677(3)
H9 H -0.1814 0.4842 1.2356
H10 H -0.2435 0.4084 1.1641
C10 C -0.4137(3) 0.5295(3) 1.2300(3)
C11 C 0.4359(4) 0.8213(3) -0.0141(3)
H11 H 0.5132 0.7570 -0.0245
C12 C 0.3114(4) 1.0128(3) -0.0656(3)
H12 H 0.2831 1.1070 -0.1164
C13 C 0.2296(4) 0.9095(3) 0.0773(3)
H13 H 0.1312 0.9188 0.1449
C14 C 0.5717(4) 1.0261(4) -0.2736(3)
H14 H 0.6749 0.9830 -0.2674
H15 H 0.5919 1.1292 -0.3073
C15 C 0.5305(3) 1.0118(3) -0.3893(3)
C16 C 0.5078(4) 0.8792(3) -0.3744(3)
H16 H 0.5141 0.7950 -0.2879
C17 C 0.5218(4) 1.1323(3) -0.5161(3)
H17 H 0.5375 1.2247 -0.5283
Cd1A Cd -0.27368(2) 0.41516(2) 0.669018(19)
Cd1_2 Cd -0.72632(2) 0.58484(2) 1.330982(19)
Cd1A_2 Cd 0.72632(2) 1.41516(2) -1.330982(19)
Cd1A_3 Cd 0.72632(2) 0.41516(2) -0.330982(19)
O1A O -0.1418(2) 0.2971(2) 0.5459(2)
O2A O 0.0380(2) 0.4849(2) 0.35669(19)
O3A O 0.5262(2) 0.5123(2) -0.2092(2)
O3_2 O 0.4738(2) 0.4877(2) 0.2092(2)
O3A_2 O -0.4738(2) 0.5123(2) 0.7908(2)
O4A O 0.4398(2) 0.3975(2) -0.2962(2)
O4_2 O 0.5602(2) 0.6025(2) 0.2962(2)
O4A_2 O -0.5602(2) 0.3975(2) 0.7038(2)
O5A O -0.2348(3) 0.6167(2) 0.4310(2)
H1A H -0.1398 0.6037 0.3823
H2A H -0.3085 0.6062 0.3952
N1A N 0.6924(3) 1.2108(3) -1.1098(2)
N1A_2 N -0.3076(3) 0.2108(3) 0.8902(2)
N2A N 0.5568(3) 1.0445(3) -0.8775(2)
C1A C -0.0081(3) 0.3521(3) 0.4361(3)
C2A C 0.1005(4) 0.2530(3) 0.3924(3)
H3A H 0.2167 0.2822 0.3675
H4A H 0.0698 0.1536 0.4783
C3A C 0.0817(3) 0.2590(3) 0.2570(3)
C4A C 0.1697(3) 0.3670(3) 0.1123(3)
H5A H 0.2483 0.4330 0.0986
C5A C 0.1460(3) 0.3801(3) -0.0114(3)
C6A C 0.0350(4) 0.2803(4) 0.0100(4)
H6A H 0.0187 0.2867 -0.0743
C7A C -0.0507(4) 0.1713(4) 0.1530(4)
H7A H -0.1267 0.1034 0.1665
C8A C -0.0292(4) 0.1613(3) 0.2756(4)
H8A H -0.0888 0.0857 0.3738
C9A C 0.2398(3) 0.5016(3) -0.1677(3)
H9A H 0.1814 0.5158 -0.2356
H10A H 0.2435 0.5916 -0.1641
C10A C 0.4137(3) 0.4705(3) -0.2300(3)
C11A C 0.5641(4) 1.1787(3) -0.9859(3)
H11A H 0.4868 1.2430 -0.9755
C12A C 0.6886(4) 0.9872(3) -0.9344(3)
H12A H 0.7169 0.8930 -0.8836
C13A C 0.7704(4) 1.0905(3) -1.0773(3)
H13A H 0.8688 1.0812 -1.1449
C14A C 0.4283(4) 0.9739(4) -0.7264(3)
H14A H 0.3251 1.0170 -0.7326
H15A H 0.4081 0.8708 -0.6927
C15A C 0.4695(3) 0.9882(3) -0.6107(3)
C16A C 0.4922(4) 1.1208(3) -0.6256(3)
H16A H 0.4859 1.2050 -0.7121
C17A C 0.4782(4) 0.8677(3) -0.4839(3)
H17A H 0.4625 0.7753 -0.4717
loop_
_geom_bond_atom_site_label_1
_geom_bond_atom_site_label_2
_geom_bond_site_symmetry_1
_geom_bond_site_symmetry_2
Cd1 O1 1_555 1_555
O1 C1 1_555 1_555
O2 C1 1_555 1_555
O3 C10 1_555 1_555
O4 C10 1_555 1_555
O5 Cd1 1_555 1_555
H1 O5 1_555 1_555
H2 O5 1_555 1_555
N1 Cd1 1_555 1_555
N2 C11 1_555 1_555
C1 C2 1_555 1_555
C2 H3 1_555 1_555
H4 C2 1_555 1_555
C3 C2 1_555 1_555
C4 C3 1_555 1_555
H5 C4 1_555 1_555
C5 C4 1_555 1_555
C6 C5 1_555 1_555
H6 C6 1_555 1_555
C7 C6 1_555 1_555
H7 C7 1_555 1_555
C8 C3 1_555 1_555
H8 C8 1_555 1_555
C9 C5 1_555 1_555
H9 C9 1_555 1_555
H10 C9 1_555 1_555
C10 C9 1_555 1_555
C11 N1 1_555 1_555
H11 C11 1_555 1_555
C12 N2 1_555 1_555
H12 C12 1_555 1_555
C13 N1 1_555 1_555
H13 C13 1_555 1_555
C14 N2 1_555 1_555
H14 C14 1_555 1_555
H15 C14 1_555 1_555
C15 C14 1_555 1_555
C16 C15 1_555 1_555
H16 C16 1_555 1_555
C17 C15 1_555 1_555
H17 C17 1_555 1_555
Cd1A O2 1_555 1_555
Cd1_2 O3 1_555 1_555
Cd1A_2 N1A 1_555 1_555
Cd1A_3 O3A 1_555 1_555
O1A Cd1A 1_555 1_555
O2A Cd1 1_555 1_555
O3A C10A 1_555 1_555
O3_2 Cd1 1_555 1_555
O3A_2 Cd1A 1_555 1_555
O4A Cd1A_3 1_555 1_555
O4_2 Cd1 1_555 1_555
O4A_2 Cd1A 1_555 1_555
O5A Cd1A 1_555 1_555
H1A O5A 1_555 1_555
H2A O5A 1_555 1_555
N1A C11A 1_555 1_555
N1A_2 Cd1A 1_555 1_555
N2A C11A 1_555 1_555
C1A O1A 1_555 1_555
C2A C1A 1_555 1_555
H3A C2A 1_555 1_555
H4A C2A 1_555 1_555
C3A C2A 1_555 1_555
C4A C3A 1_555 1_555
H5A C4A 1_555 1_555
C5A C4A 1_555 1_555
C6A C5A 1_555 1_555
H6A C6A 1_555 1_555
C7A C6A 1_555 1_555
H7A C7A 1_555 1_555
C8A C3A 1_555 1_555
H8A C8A 1_555 1_555
C9A C5A 1_555 1_555
H9A C9A 1_555 1_555
H10A C9A 1_555 1_555
C10A O4A 1_555 1_555
C11A H11A 1_555 1_555
C12A N2A 1_555 1_555
H12A C12A 1_555 1_555
C13A N1A 1_555 1_555
H13A C13A 1_555 1_555
C14A N2A 1_555 1_555
H14A C14A 1_555 1_555
H15A C14A 1_555 1_555
C15A C14A 1_555 1_555
C16A C17 1_555 1_555
H16A C16A 1_555 1_555
C17A C16 1_555 1_555
H17A C17A 1_555 1_555
O4 Cd1_2 1_555 1_555
C7 C8 1_555 1_555
C12 C13 1_555 1_555
O2A C1A 1_555 1_555
C7A C8A 1_555 1_555
C9A C10A 1_555 1_555
C12A C13A 1_555 1_555
C15A C16A 1_555 1_555
C15A C17A 1_555 1_555

#END
