
#######################################################################
#
#                 Cambridge Crystallographic Data Centre
#                                CCDC 
#
#######################################################################
#
# If this CIF has been generated from an entry in the Cambridge 
# Structural Database, then it will include bibliographic, chemical, 
# crystal, experimental, refinement or atomic coordinate data resulting 
# from the CCDC's data processing and validation procedures.
#
#######################################################################

data_AVAXOL
_symmetry_cell_setting           cubic
_symmetry_space_group_name_H-M   'F d -3'
_symmetry_Int_Tables_number      203
_space_group_name_Hall           '-F 2uv 2vw 3'
loop_
_symmetry_equiv_pos_site_id
_symmetry_equiv_pos_as_xyz
1 x,y,z
2 1/4-x,1/4-y,z
3 x,1/4-y,1/4-z
4 1/4-x,y,1/4-z
5 z,x,y
6 1/4-z,1/4-x,y
7 z,1/4-x,1/4-y
8 1/4-z,x,1/4-y
9 y,z,x
10 y,1/4-z,1/4-x
11 1/4-y,z,1/4-x
12 1/4-y,1/4-z,x
13 x,1/2+y,1/2+z
14 1/4-x,3/4-y,1/2+z
15 x,3/4-y,3/4-z
16 1/4-x,1/2+y,3/4-z
17 z,1/2+x,1/2+y
18 1/4-z,3/4-x,1/2+y
19 z,3/4-x,3/4-y
20 1/4-z,1/2+x,3/4-y
21 y,1/2+z,1/2+x
22 y,3/4-z,3/4-x
23 1/4-y,1/2+z,3/4-x
24 1/4-y,3/4-z,1/2+x
25 1/2+x,y,1/2+z
26 3/4-x,1/4-y,1/2+z
27 1/2+x,1/4-y,3/4-z
28 3/4-x,y,3/4-z
29 1/2+z,x,1/2+y
30 3/4-z,1/4-x,1/2+y
31 1/2+z,1/4-x,3/4-y
32 3/4-z,x,3/4-y
33 1/2+y,z,1/2+x
34 1/2+y,1/4-z,3/4-x
35 3/4-y,z,3/4-x
36 3/4-y,1/4-z,1/2+x
37 1/2+x,1/2+y,z
38 3/4-x,3/4-y,z
39 1/2+x,3/4-y,1/4-z
40 3/4-x,1/2+y,1/4-z
41 1/2+z,1/2+x,y
42 3/4-z,3/4-x,y
43 1/2+z,3/4-x,1/4-y
44 3/4-z,1/2+x,1/4-y
45 1/2+y,1/2+z,x
46 1/2+y,3/4-z,1/4-x
47 3/4-y,1/2+z,1/4-x
48 3/4-y,3/4-z,x
49 -x,-y,-z
50 3/4+x,3/4+y,-z
51 -x,3/4+y,3/4+z
52 3/4+x,-y,3/4+z
53 -z,-x,-y
54 3/4+z,3/4+x,-y
55 -z,3/4+x,3/4+y
56 3/4+z,-x,3/4+y
57 -y,-z,-x
58 -y,3/4+z,3/4+x
59 3/4+y,-z,3/4+x
60 3/4+y,3/4+z,-x
61 -x,1/2-y,1/2-z
62 3/4+x,1/4+y,1/2-z
63 -x,1/4+y,1/4+z
64 3/4+x,1/2-y,1/4+z
65 -z,1/2-x,1/2-y
66 3/4+z,1/4+x,1/2-y
67 -z,1/4+x,1/4+y
68 3/4+z,1/2-x,1/4+y
69 -y,1/2-z,1/2-x
70 -y,1/4+z,1/4+x
71 3/4+y,1/2-z,1/4+x
72 3/4+y,1/4+z,1/2-x
73 1/2-x,-y,1/2-z
74 1/4+x,3/4+y,1/2-z
75 1/2-x,3/4+y,1/4+z
76 1/4+x,-y,1/4+z
77 1/2-z,-x,1/2-y
78 1/4+z,3/4+x,1/2-y
79 1/2-z,3/4+x,1/4+y
80 1/4+z,-x,1/4+y
81 1/2-y,-z,1/2-x
82 1/2-y,3/4+z,1/4+x
83 1/4+y,-z,1/4+x
84 1/4+y,3/4+z,1/2-x
85 1/2-x,1/2-y,-z
86 1/4+x,1/4+y,-z
87 1/2-x,1/4+y,3/4+z
88 1/4+x,1/2-y,3/4+z
89 1/2-z,1/2-x,-y
90 1/4+z,1/4+x,-y
91 1/2-z,1/4+x,3/4+y
92 1/4+z,1/2-x,3/4+y
93 1/2-y,1/2-z,-x
94 1/2-y,1/4+z,3/4+x
95 1/4+y,1/2-z,3/4+x
96 1/4+y,1/4+z,-x
_cell_length_a                   25.7216(13)
_cell_length_b                   25.7216(13)
_cell_length_c                   25.7216(13)
_cell_angle_alpha                90
_cell_angle_beta                 90
_cell_angle_gamma                90
_cell_volume                     17017.4
loop_
_atom_site_label
_atom_site_type_symbol
_atom_site_fract_x
_atom_site_fract_y
_atom_site_fract_z
Zn1 Zn 0.32817(3) 0.32817(3) 0.42183(3)
Zn2 Zn 0.2500 0.2500 0.5000
C1 C 0.2441(3) 0.2727(4) 0.3844(3)
C2 C 0.1998(3) 0.2588(3) 0.3474(3)
C3 C 0.1912(3) 0.2886(4) 0.3038(4)
H1 H 0.2118 0.3177 0.2977
C4 C 0.1525(4) 0.2759(4) 0.2692(4)
H2 H 0.1473 0.2962 0.2397
C5 C 0.1217(3) 0.2333(3) 0.2780(3)
C6 C 0.1295(3) 0.2033(3) 0.3219(3)
H3 H 0.1086 0.1745 0.3284
C7 C 0.1692(3) 0.2168(3) 0.3565(3)
H4 H 0.1747 0.1968 0.3861
C8 C 0.0776(3) 0.2213(3) 0.2423(3)
N1 N 0.0701(3) 0.2533(3) 0.2018(3)
O1 O 0.2700(2) 0.3134(2) 0.3758(2)
O2 O 0.2529(2) 0.2424(2) 0.4200(2)
O3 O 0.3750 0.3750 0.3750
Zn1J Zn -0.07817(3) 0.42183(3) -0.07817(3)
Zn1E Zn -0.17183(3) -0.07817(3) 0.32817(3)
Zn1E_2 Zn 0.82817(3) -0.07817(3) 0.32817(3)
Zn1D Zn 0.42183(3) 0.32817(3) 0.32817(3)
Zn1H Zn 0.32817(3) 0.42183(3) 0.32817(3)
Zn1R Zn 0.42183(3) 0.42183(3) 0.42183(3)
Zn1P Zn 0.42183(3) -0.17183(3) 0.82817(3)
Zn1P_2 Zn 0.42183(3) 0.82817(3) 0.82817(3)
Zn1J_2 Zn -0.07817(3) 0.42183(3) 0.92183(3)
Zn1OB Zn 0.17183(3) 0.17183(3) 0.57817(3)
Zn1BB Zn 0.57817(3) 0.07817(3) 1.07817(3)
Zn1DB Zn 0.67183(3) 0.57817(3) 0.67183(3)
Zn2J Zn 0.0000 0.5000 0.0000
Zn2E Zn -0.2500 0.0000 0.2500
Zn2E_2 Zn 0.7500 0.0000 0.2500
Zn2P Zn 0.5000 -0.2500 0.7500
Zn2P_2 Zn 0.5000 0.7500 0.7500
Zn2J_2 Zn 0.0000 0.5000 1.0000
Zn2F Zn 0.5000 0.0000 1.0000
Zn2Q Zn 0.7500 0.5000 0.7500
C1J C -0.0227(4) 0.3844(3) 0.0059(3)
C1E C -0.1344(3) 0.0059(3) 0.2727(4)
C1EA C 0.3656(3) 0.2441(3) 0.4773(4)
C1Z C 0.7441(3) -0.0227(4) 0.3656(3)
C1IA C 0.4773(4) -0.1344(3) 0.7441(3)
C1U C 0.2727(4) 0.3656(3) 0.5059(3)
C1P C 0.3844(3) 0.7441(3) 0.7727(4)
C1M C 0.0059(3) 0.4773(4) 0.8844(3)
C1FC C 0.2559(3) 0.2273(4) 0.6156(3)
C1PC C 0.5227(4) 0.1156(3) 0.9941(3)
C1KC C 0.6344(3) 0.4941(3) 0.7273(4)
C2J C -0.0088(3) 0.3474(3) 0.0502(3)
C2E C -0.0974(3) 0.0502(3) 0.2588(3)
C2EA C 0.4026(3) 0.1998(3) 0.4912(3)
C2Z C 0.6998(3) -0.0088(3) 0.4026(3)
C2IA C 0.4912(3) -0.0974(3) 0.6998(3)
C2U C 0.2588(3) 0.4026(3) 0.5502(3)
C2P C 0.3474(3) 0.6998(3) 0.7588(3)
C2M C 0.0502(3) 0.4912(3) 0.8474(3)
C2FC C 0.3002(3) 0.2412(3) 0.6526(3)
C2PC C 0.5088(3) 0.1526(3) 0.9498(3)
C2KC C 0.5974(3) 0.4498(3) 0.7412(3)
C3J C -0.0386(4) 0.3038(4) 0.0588(3)
C3E C -0.0538(4) 0.0588(3) 0.2886(4)
C3EA C 0.4462(4) 0.1912(3) 0.4614(4)
C3Z C 0.6912(3) -0.0386(4) 0.4462(4)
C3IA C 0.4614(4) -0.0538(4) 0.6912(3)
C3U C 0.2886(4) 0.4462(4) 0.5588(3)
C3P C 0.3038(4) 0.6912(3) 0.7886(4)
C3M C 0.0588(3) 0.4614(4) 0.8038(4)
C3FC C 0.3088(3) 0.2114(4) 0.6962(4)
C3PC C 0.5386(4) 0.1962(4) 0.9412(3)
C3KC C 0.5538(4) 0.4412(3) 0.7114(4)
H1J H -0.0677 0.2977 0.0382
H1E H -0.0477 0.0382 0.3177
H1EA H 0.4523 0.2118 0.4323
H1Z H 0.7118 -0.0677 0.4523
H1IA H 0.4323 -0.0477 0.7118
H1U H 0.3177 0.4523 0.5382
H1P H 0.2977 0.7118 0.8177
H1M H 0.0382 0.4323 0.7977
H1FC H 0.2882 0.1823 0.7023
H1PC H 0.5677 0.2023 0.9618
H1KC H 0.5477 0.4618 0.6823
C4J C -0.0259(4) 0.2692(4) 0.0975(4)
C4E C -0.0192(4) 0.0975(4) 0.2759(4)
C4EA C 0.4808(4) 0.1525(4) 0.4741(4)
C4Z C 0.6525(4) -0.0259(4) 0.4808(4)
C4IA C 0.4741(4) -0.0192(4) 0.6525(4)
C4U C 0.2759(4) 0.4808(4) 0.5975(4)
C4P C 0.2692(4) 0.6525(4) 0.7759(4)
C4M C 0.0975(4) 0.4741(4) 0.7692(4)
C4FC C 0.3475(4) 0.2241(4) 0.7308(4)
C4PC C 0.5259(4) 0.2308(4) 0.9025(4)
C4KC C 0.5192(4) 0.4025(4) 0.7241(4)
H2J H -0.0462 0.2397 0.1027
H2E H 0.0103 0.1027 0.2962
H2EA H 0.5103 0.1473 0.4538
H2Z H 0.6473 -0.0462 0.5103
H2IA H 0.4538 0.0103 0.6473
H2U H 0.2962 0.5103 0.6027
H2P H 0.2397 0.6473 0.7962
H2M H 0.1027 0.4538 0.7397
H2FC H 0.3527 0.2038 0.7603
H2PC H 0.5462 0.2603 0.8973
H2KC H 0.4897 0.3973 0.7038
C5J C 0.0167(3) 0.2780(3) 0.1283(3)
C5E C -0.0280(3) 0.1283(3) 0.2333(3)
C5EA C 0.4720(3) 0.1217(3) 0.5167(3)
C5Z C 0.6217(3) 0.0167(3) 0.4720(3)
C5IA C 0.5167(3) -0.0280(3) 0.6217(3)
C5U C 0.2333(3) 0.4720(3) 0.6283(3)
C5P C 0.2780(3) 0.6217(3) 0.7333(3)
C5M C 0.1283(3) 0.5167(3) 0.7780(3)
C5FC C 0.3783(3) 0.2667(3) 0.7220(3)
C5PC C 0.4833(3) 0.2220(3) 0.8717(3)
C5KC C 0.5280(3) 0.3717(3) 0.7667(3)
C6J C 0.0467(3) 0.3219(3) 0.1205(3)
C6E C -0.0719(3) 0.1205(3) 0.2033(3)
C6EA C 0.4281(3) 0.1295(3) 0.5467(3)
C6Z C 0.6295(3) 0.0467(3) 0.4281(3)
C6IA C 0.5467(3) -0.0719(3) 0.6295(3)
C6U C 0.2033(3) 0.4281(3) 0.6205(3)
C6P C 0.3219(3) 0.6295(3) 0.7033(3)
C6M C 0.1205(3) 0.5467(3) 0.8219(3)
C6FC C 0.3705(3) 0.2967(3) 0.6781(3)
C6PC C 0.4533(3) 0.1781(3) 0.8795(3)
C6KC C 0.5719(3) 0.3795(3) 0.7967(3)
H3J H 0.0755 0.3284 0.1414
H3E H -0.0784 0.1414 0.1745
H3EA H 0.4216 0.1086 0.5755
H3Z H 0.6086 0.0755 0.4216
H3IA H 0.5755 -0.0784 0.6086
H3U H 0.1745 0.4216 0.6414
H3P H 0.3284 0.6086 0.6745
H3M H 0.1414 0.5755 0.8284
H3FC H 0.3914 0.3255 0.6716
H3PC H 0.4245 0.1716 0.8586
H3KC H 0.5784 0.3586 0.8255
C7J C 0.0332(3) 0.3565(3) 0.0808(3)
C7E C -0.1065(3) 0.0808(3) 0.2168(3)
C7EA C 0.3935(3) 0.1692(3) 0.5332(3)
C7Z C 0.6692(3) 0.0332(3) 0.3935(3)
C7IA C 0.5332(3) -0.1065(3) 0.6692(3)
C7U C 0.2168(3) 0.3935(3) 0.5808(3)
C7P C 0.3565(3) 0.6692(3) 0.7168(3)
C7M C 0.0808(3) 0.5332(3) 0.8565(3)
C7FC C 0.3308(3) 0.2832(3) 0.6435(3)
C7PC C 0.4668(3) 0.1435(3) 0.9192(3)
C7KC C 0.6065(3) 0.4192(3) 0.7832(3)
H4J H 0.0532 0.3861 0.0753
H4E H -0.1361 0.0753 0.1968
H4EA H 0.3639 0.1747 0.5532
H4Z H 0.6747 0.0532 0.3639
H4IA H 0.5532 -0.1361 0.6747
H4U H 0.1968 0.3639 0.5753
H4P H 0.3861 0.6747 0.6968
H4M H 0.0753 0.5532 0.8861
H4FC H 0.3253 0.3032 0.6139
H4PC H 0.4468 0.1139 0.9247
H4KC H 0.6361 0.4247 0.8032
C8J C 0.0287(3) 0.2423(3) 0.1724(3)
C8E C 0.0077(3) 0.1724(3) 0.2213(3)
C8EA C 0.5077(3) 0.0776(3) 0.5287(3)
C8Z C 0.5776(3) 0.0287(3) 0.5077(3)
C8IA C 0.5287(3) 0.0077(3) 0.5776(3)
C8U C 0.2213(3) 0.5077(3) 0.6724(3)
C8P C 0.2423(3) 0.5776(3) 0.7213(3)
C8M C 0.1724(3) 0.5287(3) 0.7423(3)
C8FC C 0.4224(3) 0.2787(3) 0.7577(3)
C8PC C 0.4713(3) 0.2577(3) 0.8276(3)
C8KC C 0.4923(3) 0.3276(3) 0.7787(3)
N1J N -0.0033(3) 0.2018(3) 0.1799(3)
N1E N 0.0482(3) 0.1799(3) 0.2533(3)
N1EA N 0.5482(3) 0.0701(3) 0.4967(3)
N1Z N 0.5701(3) -0.0033(3) 0.5482(3)
N1IA N 0.4967(3) 0.0482(3) 0.5701(3)
N1U N 0.2533(3) 0.5482(3) 0.6799(3)
N1P N 0.2018(3) 0.5701(3) 0.7533(3)
N1M N 0.1799(3) 0.4967(3) 0.7018(3)
N1FC N 0.4299(3) 0.2467(3) 0.7982(3)
N1PC N 0.5033(3) 0.2982(3) 0.8201(3)
N1KC N 0.4518(3) 0.3201(3) 0.7467(3)
O1J O -0.0634(2) 0.3758(2) -0.0200(2)
O1E O -0.1258(2) -0.0200(2) 0.3134(2)
O1EA O 0.3742(2) 0.2700(2) 0.4366(2)
O1Z O 0.7700(2) -0.0634(2) 0.3742(2)
O1IA O 0.4366(2) -0.1258(2) 0.7700(2)
O1U O 0.3134(2) 0.3742(2) 0.4800(2)
O1P O 0.3758(2) 0.7700(2) 0.8134(2)
O1M O -0.0200(2) 0.4366(2) 0.8758(2)
O1FC O 0.2300(2) 0.1866(2) 0.6242(2)
O1PC O 0.5634(2) 0.1242(2) 1.0200(2)
O1KC O 0.6258(2) 0.5200(2) 0.6866(2)
O1M_2 O -0.0200(2) 0.4366(2) -0.1242(2)
O1PA O -0.1242(2) 0.4800(2) -0.0634(2)
O1RA O -0.1866(2) -0.1242(2) 0.2700(2)
O1Z_2 O -0.2300(2) -0.0634(2) 0.3742(2)
O1E_2 O 0.8742(2) -0.0200(2) 0.3134(2)
O1RA_2 O 0.8134(2) -0.1242(2) 0.2700(2)
O2J O 0.0076(2) 0.4200(2) -0.0029(2)
O2E O -0.1700(2) -0.0029(2) 0.2424(2)
O2EA O 0.3300(2) 0.2529(2) 0.5076(2)
O2Z O 0.7529(2) 0.0076(2) 0.3300(2)
O2IA O 0.5076(2) -0.1700(2) 0.7529(2)
O2U O 0.2424(2) 0.3300(2) 0.4971(2)
O2P O 0.4200(2) 0.7529(2) 0.7424(2)
O2M O -0.0029(2) 0.5076(2) 0.9200(2)
O2FC O 0.2471(2) 0.2576(2) 0.5800(2)
O2PC O 0.4924(2) 0.0800(2) 1.0029(2)
O2KC O 0.6700(2) 0.5029(2) 0.7576(2)
O2OB O 0.1700(2) 0.2471(2) 0.4924(2)
O2CC O 0.2576(2) 0.1700(2) 0.5029(2)
O2M_2 O -0.0029(2) 0.5076(2) -0.0800(2)
O2PA O -0.0800(2) 0.4971(2) 0.0076(2)
O2FB O -0.0076(2) 0.5800(2) 0.0029(2)
O2IB O 0.0029(2) 0.4924(2) 0.0800(2)
O2LC O 0.0800(2) 0.5029(2) -0.0076(2)
O3C O -0.1250 0.3750 -0.1250
O3A O -0.1250 -0.1250 0.3750
O3A_2 O 0.8750 -0.1250 0.3750
loop_
_geom_bond_atom_site_label_1
_geom_bond_atom_site_label_2
_geom_bond_site_symmetry_1
_geom_bond_site_symmetry_2
Zn1 O1 1_555 1_555
Zn2 O2 1_555 1_555
C1 C2 1_555 1_555
C2 C3 1_555 1_555
C3 H1 1_555 1_555
C4 C3 1_555 1_555
H2 C4 1_555 1_555
C5 C4 1_555 1_555
C6 C5 1_555 1_555
H3 C6 1_555 1_555
C7 C2 1_555 1_555
H4 C7 1_555 1_555
C8 C5 1_555 1_555
N1 C8 1_555 1_555
O1 C1 1_555 1_555
O2 C1 1_555 1_555
O3 Zn1 1_555 1_555
Zn1J O1J 1_555 1_555
Zn1E O1E 1_555 1_555
Zn1E_2 O1Z 1_555 1_555
Zn1D O3 1_555 1_555
Zn1H O3 1_555 1_555
Zn1R O3 1_555 1_555
Zn1P O1IA 1_555 1_555
Zn1P_2 O1P 1_555 1_555
Zn1J_2 O1M 1_555 1_555
Zn1OB O1FC 1_555 1_555
Zn1BB O1PC 1_555 1_555
Zn1DB O1KC 1_555 1_555
Zn2J O2J 1_555 1_555
Zn2E O2E 1_555 1_555
Zn2E_2 O2Z 1_555 1_555
Zn2P O2IA 1_555 1_555
Zn2P_2 O2P 1_555 1_555
Zn2J_2 O2M 1_555 1_555
Zn2F O2PC 1_555 1_555
Zn2Q O2KC 1_555 1_555
C1J C2J 1_555 1_555
C1E C2E 1_555 1_555
C1EA C2EA 1_555 1_555
C1Z C2Z 1_555 1_555
C1IA C2IA 1_555 1_555
C1U C2U 1_555 1_555
C1P C2P 1_555 1_555
C1M C2M 1_555 1_555
C1FC C2FC 1_555 1_555
C1PC C2PC 1_555 1_555
C1KC C2KC 1_555 1_555
C2J C3J 1_555 1_555
C2E C3E 1_555 1_555
C2EA C3EA 1_555 1_555
C2Z C3Z 1_555 1_555
C2IA C3IA 1_555 1_555
C2U C3U 1_555 1_555
C2P C3P 1_555 1_555
C2M C3M 1_555 1_555
C2FC C3FC 1_555 1_555
C2PC C3PC 1_555 1_555
C2KC C3KC 1_555 1_555
C3J H1J 1_555 1_555
C3E H1E 1_555 1_555
C3EA H1EA 1_555 1_555
C3Z H1Z 1_555 1_555
C3IA H1IA 1_555 1_555
C3U H1U 1_555 1_555
C3P H1P 1_555 1_555
C3M H1M 1_555 1_555
C3FC H1FC 1_555 1_555
C3PC H1PC 1_555 1_555
C3KC H1KC 1_555 1_555
C4J C3J 1_555 1_555
C4E C3E 1_555 1_555
C4EA C3EA 1_555 1_555
C4Z C3Z 1_555 1_555
C4IA C3IA 1_555 1_555
C4U C3U 1_555 1_555
C4P C3P 1_555 1_555
C4M C3M 1_555 1_555
C4FC C3FC 1_555 1_555
C4PC C3PC 1_555 1_555
C4KC C3KC 1_555 1_555
H2J C4J 1_555 1_555
H2E C4E 1_555 1_555
H2EA C4EA 1_555 1_555
H2Z C4Z 1_555 1_555
H2IA C4IA 1_555 1_555
H2U C4U 1_555 1_555
H2P C4P 1_555 1_555
H2M C4M 1_555 1_555
H2FC C4FC 1_555 1_555
H2PC C4PC 1_555 1_555
H2KC C4KC 1_555 1_555
C5J C4J 1_555 1_555
C5E C4E 1_555 1_555
C5EA C4EA 1_555 1_555
C5Z C4Z 1_555 1_555
C5IA C4IA 1_555 1_555
C5U C4U 1_555 1_555
C5P C4P 1_555 1_555
C5M C4M 1_555 1_555
C5FC C4FC 1_555 1_555
C5PC C4PC 1_555 1_555
C5KC C4KC 1_555 1_555
C6J C5J 1_555 1_555
C6E C5E 1_555 1_555
C6EA C5EA 1_555 1_555
C6Z C5Z 1_555 1_555
C6IA C5IA 1_555 1_555
C6U C5U 1_555 1_555
C6P C5P 1_555 1_555
C6M C5M 1_555 1_555
C6FC C5FC 1_555 1_555
C6PC C5PC 1_555 1_555
C6KC C5KC 1_555 1_555
H3J C6J 1_555 1_555
H3E C6E 1_555 1_555
H3EA C6EA 1_555 1_555
H3Z C6Z 1_555 1_555
H3IA C6IA 1_555 1_555
H3U C6U 1_555 1_555
H3P C6P 1_555 1_555
H3M C6M 1_555 1_555
H3FC C6FC 1_555 1_555
H3PC C6PC 1_555 1_555
H3KC C6KC 1_555 1_555
C7J C2J 1_555 1_555
C7E C2E 1_555 1_555
C7EA C2EA 1_555 1_555
C7Z C2Z 1_555 1_555
C7IA C2IA 1_555 1_555
C7U C2U 1_555 1_555
C7P C2P 1_555 1_555
C7M C2M 1_555 1_555
C7FC C2FC 1_555 1_555
C7PC C2PC 1_555 1_555
C7KC C2KC 1_555 1_555
H4J C7J 1_555 1_555
H4E C7E 1_555 1_555
H4EA C7EA 1_555 1_555
H4Z C7Z 1_555 1_555
H4IA C7IA 1_555 1_555
H4U C7U 1_555 1_555
H4P C7P 1_555 1_555
H4M C7M 1_555 1_555
H4FC C7FC 1_555 1_555
H4PC C7PC 1_555 1_555
H4KC C7KC 1_555 1_555
C8J N1 1_555 1_555
C8E C5E 1_555 1_555
C8EA C5EA 1_555 1_555
C8Z C5Z 1_555 1_555
C8IA C5IA 1_555 1_555
C8U C5U 1_555 1_555
C8P C5P 1_555 1_555
C8M C5M 1_555 1_555
C8FC C5FC 1_555 1_555
C8PC C5PC 1_555 1_555
C8KC C5KC 1_555 1_555
N1J C8J 1_555 1_555
N1E C8 1_555 1_555
N1EA C8EA 1_555 1_555
N1Z C8Z 1_555 1_555
N1IA C8EA 1_555 1_555
N1U C8U 1_555 1_555
N1P C8P 1_555 1_555
N1M C8U 1_555 1_555
N1FC C8FC 1_555 1_555
N1PC C8PC 1_555 1_555
N1KC C8FC 1_555 1_555
O1J C1J 1_555 1_555
O1E C1E 1_555 1_555
O1EA Zn1 1_555 1_555
O1Z C1Z 1_555 1_555
O1IA C1IA 1_555 1_555
O1U Zn1 1_555 1_555
O1P C1P 1_555 1_555
O1M C1M 1_555 1_555
O1FC C1FC 1_555 1_555
O1PC C1PC 1_555 1_555
O1KC C1KC 1_555 1_555
O1M_2 Zn1J 1_555 1_555
O1PA Zn1J 1_555 1_555
O1RA Zn1E 1_555 1_555
O1Z_2 Zn1E 1_555 1_555
O1E_2 Zn1E_2 1_555 1_555
O1RA_2 Zn1E_2 1_555 1_555
O2J C1J 1_555 1_555
O2E C1E 1_555 1_555
O2EA Zn2 1_555 1_555
O2Z C1Z 1_555 1_555
O2IA C1IA 1_555 1_555
O2U Zn2 1_555 1_555
O2P C1P 1_555 1_555
O2M C1M 1_555 1_555
O2FC Zn2 1_555 1_555
O2PC C1PC 1_555 1_555
O2KC C1KC 1_555 1_555
O2OB Zn2 1_555 1_555
O2CC Zn2 1_555 1_555
O2M_2 Zn2J 1_555 1_555
O2PA Zn2J 1_555 1_555
O2FB Zn2J 1_555 1_555
O2IB Zn2J 1_555 1_555
O2LC Zn2J 1_555 1_555
O3C Zn1J 1_555 1_555
O3A Zn1E 1_555 1_555
O3A_2 Zn1E_2 1_555 1_555
C6 C7 1_555 1_555
C1EA O1EA 1_555 1_555
C1EA O2EA 1_555 1_555
C1U O1U 1_555 1_555
C1U O2U 1_555 1_555
C1FC O2FC 1_555 1_555
C5J C8J 1_555 1_555
C6J C7J 1_555 1_555
C6E C7E 1_555 1_555
C6EA C7EA 1_555 1_555
C6Z C7Z 1_555 1_555
C6IA C7IA 1_555 1_555
C6U C7U 1_555 1_555
C6P C7P 1_555 1_555
C6M C7M 1_555 1_555
C6FC C7FC 1_555 1_555
C6PC C7PC 1_555 1_555
C6KC C7KC 1_555 1_555
C8E N1J 1_555 1_555
C8E N1E 1_555 1_555
C8Z N1EA 1_555 1_555
C8IA N1Z 1_555 1_555
C8IA N1IA 1_555 1_555
C8P N1U 1_555 1_555
C8M N1P 1_555 1_555
C8M N1M 1_555 1_555
C8PC N1FC 1_555 1_555
C8KC N1PC 1_555 1_555
C8KC N1KC 1_555 1_555

#END
