
#######################################################################
#
#                 Cambridge Crystallographic Data Centre
#                                CCDC 
#
#######################################################################
#
# If this CIF has been generated from an entry in the Cambridge 
# Structural Database, then it will include bibliographic, chemical, 
# crystal, experimental, refinement or atomic coordinate data resulting 
# from the CCDC's data processing and validation procedures.
#
#######################################################################

data_AVAXUR
_symmetry_cell_setting           orthorhombic
_symmetry_space_group_name_H-M   'F d d d'
_symmetry_Int_Tables_number      70
_space_group_name_Hall           '-F 2uv 2vw'
loop_
_symmetry_equiv_pos_site_id
_symmetry_equiv_pos_as_xyz
1 x,y,z
2 3/4-x,3/4-y,z
3 3/4-x,y,3/4-z
4 x,3/4-y,3/4-z
5 x,1/2+y,1/2+z
6 3/4-x,1/4-y,1/2+z
7 3/4-x,1/2+y,1/4-z
8 x,1/4-y,1/4-z
9 1/2+x,y,1/2+z
10 1/4-x,3/4-y,1/2+z
11 1/4-x,y,1/4-z
12 1/2+x,3/4-y,1/4-z
13 1/2+x,1/2+y,z
14 1/4-x,1/4-y,z
15 1/4-x,1/2+y,3/4-z
16 1/2+x,1/4-y,3/4-z
17 -x,-y,-z
18 1/4+x,1/4+y,-z
19 1/4+x,-y,1/4+z
20 -x,1/4+y,1/4+z
21 -x,1/2-y,1/2-z
22 1/4+x,3/4+y,1/2-z
23 1/4+x,1/2-y,3/4+z
24 -x,3/4+y,3/4+z
25 1/2-x,-y,1/2-z
26 3/4+x,1/4+y,1/2-z
27 3/4+x,-y,3/4+z
28 1/2-x,1/4+y,3/4+z
29 1/2-x,1/2-y,-z
30 3/4+x,3/4+y,-z
31 3/4+x,1/2-y,1/4+z
32 1/2-x,3/4+y,1/4+z
_cell_length_a                   23.220(2)
_cell_length_b                   26.163(3)
_cell_length_c                   28.900(3)
_cell_angle_alpha                90
_cell_angle_beta                 90
_cell_angle_gamma                90
_cell_volume                     17556.9
loop_
_atom_site_label
_atom_site_type_symbol
_atom_site_fract_x
_atom_site_fract_y
_atom_site_fract_z
Cd1 Cd 0.5000 0.5000 0.0000
Cd2 Cd 0.614540(15) 0.553889(13) 0.063598(12)
C1 C 0.5261(2) 0.62127(18) 0.03985(18)
C2 C 0.4773(2) 0.65616(18) 0.02778(18)
C3 C 0.4420(2) 0.64573(19) -0.00989(18)
H1 H 0.4471 0.6158 -0.0268
C4 C 0.3992(2) 0.6802(2) -0.02224(18)
H2 H 0.3760 0.6735 -0.0477
C5 C 0.3908(2) 0.7246(2) 0.00321(18)
C6 C 0.4251(2) 0.7341(2) 0.0409(2)
H3 H 0.4194 0.7635 0.0584
C7 C 0.4683(2) 0.6999(2) 0.0530(2)
H4 H 0.4913 0.7067 0.0786
C8 C 0.3438(2) 0.76132(19) -0.00929(18)
C9 C 0.2749(2) 0.7879(2) -0.05856(18)
C10 C 0.2877(2) 0.8280(2) 0.01029(17)
C11 C 0.2412(2) 0.7814(2) -0.10185(17)
C12 C 0.2587(2) 0.7481(2) -0.1356(2)
H5 H 0.2940 0.7316 -0.1328
C13 C 0.2243(2) 0.7389(2) -0.1739(2)
H6 H 0.2369 0.7169 -0.1970
C14 C 0.1715(2) 0.7622(2) -0.17764(17)
C15 C 0.1544(2) 0.7963(2) -0.14418(19)
H7 H 0.1188 0.8124 -0.1467
C16 C 0.1894(2) 0.8067(2) -0.10696(19)
H8 H 0.1782 0.8310 -0.0852
C17 C 0.1318(2) 0.7486(2) -0.21705(18)
C18 C 0.2686(2) 0.86687(19) 0.04425(18)
C19 C 0.2913(2) 0.8694(2) 0.08854(19)
H9 H 0.3205 0.8470 0.0972
C20 C 0.2706(2) 0.9050(2) 0.12001(19)
H10 H 0.2864 0.9064 0.1496
C21 C 0.2275(2) 0.93827(19) 0.10828(17)
C22 C 0.2047(3) 0.9353(2) 0.06434(18)
H11 H 0.1753 0.9576 0.0559
C23 C 0.2243(2) 0.9001(2) 0.03261(19)
H12 H 0.2078 0.8986 0.0033
C24 C 0.2047(2) 0.9771(2) 0.14202(18)
N1 N 0.31766(18) 0.75479(16) -0.04985(15)
N2 N 0.25833(18) 0.82497(17) -0.02946(15)
N3 N 0.33110(17) 0.79713(16) 0.02193(14)
O1 O 0.53068(15) 0.57874(13) 0.02097(14)
O2 O 0.56400(14) 0.63500(12) 0.06902(12)
O3 O 0.15199(15) 0.72190(15) -0.24932(12)
O4 O 0.08146(17) 0.76485(17) -0.21424(15)
O5 O 0.18127(15) 1.01738(14) 0.12617(13)
O6 O 0.20745(19) 0.96834(15) 0.18382(13)
Cd1B Cd 1.2500 0.5000 -0.2500
Cd1F Cd 0.2500 1.0000 0.2500
Cd1K Cd 1.0000 0.2500 0.2500
Cd1O Cd 0.0000 0.7500 -0.2500
Cd1M Cd 0.7500 0.7500 0.0000
Cd2M Cd 0.635460(15) 0.696111(13) 0.063598(12)
Cd2A Cd 1.135460(15) 0.196111(13) 0.063598(12)
Cd2B Cd 1.135460(15) 0.553889(13) -0.313598(12)
Cd2F Cd 0.135460(15) 1.053889(13) 0.186402(12)
Cd2K Cd 1.114540(15) 0.196111(13) 0.186402(12)
Cd2L Cd 0.114540(15) 1.053889(13) 0.063598(12)
Cd2O Cd 0.114540(15) 0.696111(13) -0.313598(12)
C1M C 0.7239(2) 0.62873(18) 0.03985(18)
C2M C 0.7727(2) 0.59384(18) 0.02778(18)
C3M C 0.8080(2) 0.60427(19) -0.00989(18)
H1M H 0.8029 0.6342 -0.0268
C4M C 0.8508(2) 0.5698(2) -0.02224(18)
H2M H 0.8740 0.5765 -0.0477
C5M C 0.8592(2) 0.5254(2) 0.00321(18)
C6M C 0.8249(2) 0.5159(2) 0.0409(2)
H3M H 0.8306 0.4865 0.0584
C7M C 0.7817(2) 0.5501(2) 0.0530(2)
H4M H 0.7587 0.5433 0.0786
C8M C 0.9062(2) 0.48868(19) -0.00929(18)
C9M C 0.9751(2) 0.4621(2) -0.05856(18)
C10M C 0.9623(2) 0.4220(2) 0.01029(17)
C11M C 1.0088(2) 0.4686(2) -0.10185(17)
C12M C 0.9913(2) 0.5019(2) -0.1356(2)
H5M H 0.9560 0.5184 -0.1328
C13M C 1.0257(2) 0.5111(2) -0.1739(2)
H6M H 1.0131 0.5331 -0.1970
C14M C 1.0785(2) 0.4878(2) -0.17764(17)
C15M C 1.0956(2) 0.4537(2) -0.14418(19)
H7M H 1.1312 0.4376 -0.1467
C16M C 1.0606(2) 0.4433(2) -0.10696(19)
H8M H 1.0718 0.4190 -0.0852
C17M C 1.1182(2) 0.5014(2) -0.21705(18)
C18M C 0.9814(2) 0.38313(19) 0.04425(18)
C19M C 0.9587(2) 0.3806(2) 0.08854(19)
H9M H 0.9295 0.4030 0.0972
C20M C 0.9794(2) 0.3450(2) 0.12001(19)
H10M H 0.9636 0.3436 0.1496
C21M C 1.0225(2) 0.31173(19) 0.10828(17)
C22M C 1.0453(3) 0.3147(2) 0.06434(18)
H11M H 1.0747 0.2924 0.0559
C23M C 1.0257(2) 0.3499(2) 0.03261(19)
H12M H 1.0422 0.3514 0.0033
C24M C 1.0453(2) 0.2729(2) 0.14202(18)
N1M N 0.93234(18) 0.49521(16) -0.04985(15)
N2M N 0.99167(18) 0.42503(17) -0.02946(15)
N3M N 0.91890(17) 0.45287(16) 0.02193(14)
O1M O 0.71932(15) 0.67126(13) 0.02097(14)
O1P O 0.46932(15) 0.42126(13) -0.02097(14)
O2M O 0.68600(14) 0.61500(12) 0.06902(12)
O3M O 1.09801(15) 0.52810(15) -0.24932(12)
O3B O 0.59801(15) 0.72190(15) -0.00068(12)
O3O O 0.65199(15) 0.52810(15) -0.00068(12)
O4M O 1.16854(17) 0.48515(17) -0.21424(15)
O4O O 0.58146(17) 0.48515(17) -0.03576(15)
O4EA O 0.41854(17) 0.51485(17) 0.03576(15)
O5M O 1.06873(15) 0.23262(14) 0.12617(13)
O5A O 0.56873(15) 0.73262(14) 0.12617(13)
O5F O 0.56873(15) 0.51738(14) 0.12383(13)
O5K O 0.68127(15) 0.73262(14) 0.12383(13)
O5L O 0.68127(15) 0.51738(14) 0.12617(13)
O6M O 1.04255(19) 0.28166(15) 0.18382(13)
O6F O 0.54255(19) 0.46834(15) 0.06618(13)
O6K O 0.70745(19) 0.78166(15) 0.06618(13)
O6V O 0.45745(19) 0.53166(15) -0.06618(13)
loop_
_geom_bond_atom_site_label_1
_geom_bond_atom_site_label_2
_geom_bond_site_symmetry_1
_geom_bond_site_symmetry_2
Cd1 O1 1_555 1_555
Cd2 O1 1_555 1_555
C1 C2 1_555 1_555
C2 C3 1_555 1_555
C3 H1 1_555 1_555
C4 C3 1_555 1_555
H2 C4 1_555 1_555
C5 C4 1_555 1_555
C6 C5 1_555 1_555
H3 C6 1_555 1_555
C7 C2 1_555 1_555
H4 C7 1_555 1_555
C8 C5 1_555 1_555
C9 C11 1_555 1_555
C10 C18 1_555 1_555
C11 C12 1_555 1_555
C12 H5 1_555 1_555
C13 C12 1_555 1_555
H6 C13 1_555 1_555
C14 C13 1_555 1_555
C15 C14 1_555 1_555
H7 C15 1_555 1_555
C16 C11 1_555 1_555
H8 C16 1_555 1_555
C17 C14 1_555 1_555
C18 C19 1_555 1_555
C19 H9 1_555 1_555
C20 C19 1_555 1_555
H10 C20 1_555 1_555
C21 C20 1_555 1_555
C22 C21 1_555 1_555
H11 C22 1_555 1_555
C23 C18 1_555 1_555
H12 C23 1_555 1_555
C24 C21 1_555 1_555
N1 C8 1_555 1_555
N2 C9 1_555 1_555
N3 C8 1_555 1_555
O1 C1 1_555 1_555
O2 Cd2 1_555 1_555
O3 C17 1_555 1_555
O4 C17 1_555 1_555
O5 C24 1_555 1_555
O6 C24 1_555 1_555
Cd1B O4M 1_555 1_555
Cd1F O6 1_555 1_555
Cd1K O6M 1_555 1_555
Cd1O O4 1_555 1_555
Cd1M O1M 1_555 1_555
Cd2M O2 1_555 1_555
Cd2A O5M 1_555 1_555
Cd2B O3M 1_555 1_555
Cd2F O5 1_555 1_555
Cd2K O5M 1_555 1_555
Cd2L O5 1_555 1_555
Cd2O O3 1_555 1_555
C1M C2M 1_555 1_555
C2M C3M 1_555 1_555
C3M H1M 1_555 1_555
C4M C3M 1_555 1_555
H2M C4M 1_555 1_555
C5M C4M 1_555 1_555
C6M C5M 1_555 1_555
H3M C6M 1_555 1_555
C7M C2M 1_555 1_555
H4M C7M 1_555 1_555
C8M C5M 1_555 1_555
C9M C11M 1_555 1_555
C10M C18M 1_555 1_555
C11M C12M 1_555 1_555
C12M H5M 1_555 1_555
C13M C12M 1_555 1_555
H6M C13M 1_555 1_555
C14M C13M 1_555 1_555
C15M C14M 1_555 1_555
H7M C15M 1_555 1_555
C16M C11M 1_555 1_555
H8M C16M 1_555 1_555
C17M C14M 1_555 1_555
C18M C19M 1_555 1_555
C19M H9M 1_555 1_555
C20M C19M 1_555 1_555
H10M C20M 1_555 1_555
C21M C20M 1_555 1_555
C22M C21M 1_555 1_555
H11M C22M 1_555 1_555
C23M C18M 1_555 1_555
H12M C23M 1_555 1_555
C24M C21M 1_555 1_555
N1M C8M 1_555 1_555
N2M C9M 1_555 1_555
N3M C8M 1_555 1_555
O1M Cd2M 1_555 1_555
O1P Cd1 1_555 1_555
O2M Cd2 1_555 1_555
O3M C17M 1_555 1_555
O3B Cd2M 1_555 1_555
O3O Cd2 1_555 1_555
O4M C17M 1_555 1_555
O4O Cd1 1_555 1_555
O4EA Cd1 1_555 1_555
O5M C24M 1_555 1_555
O5A Cd2M 1_555 1_555
O5F Cd2 1_555 1_555
O5K Cd2M 1_555 1_555
O5L Cd2 1_555 1_555
O6M Cd2K 1_555 1_555
O6F Cd1 1_555 1_555
O6K Cd1M 1_555 1_555
O6V Cd1 1_555 1_555
Cd2 O6F 1_555 1_555
C1 O2 1_555 1_555
C6 C7 1_555 1_555
C9 N1 1_555 1_555
C10 N2 1_555 1_555
C10 N3 1_555 1_555
C15 C16 1_555 1_555
C22 C23 1_555 1_555
O6 Cd2F 1_555 1_555
Cd2M O2M 1_555 1_555
Cd2M O6K 1_555 1_555
C1M O1M 1_555 1_555
C1M O2M 1_555 1_555
C6M C7M 1_555 1_555
C9M N1M 1_555 1_555
C10M N2M 1_555 1_555
C10M N3M 1_555 1_555
C15M C16M 1_555 1_555
C22M C23M 1_555 1_555
C24M O6M 1_555 1_555

#END
