
#######################################################################
#
#                 Cambridge Crystallographic Data Centre
#                                CCDC 
#
#######################################################################
#
# If this CIF has been generated from an entry in the Cambridge 
# Structural Database, then it will include bibliographic, chemical, 
# crystal, experimental, refinement or atomic coordinate data resulting 
# from the CCDC's data processing and validation procedures.
#
#######################################################################

data_AVAYAY
_symmetry_cell_setting           orthorhombic
_symmetry_space_group_name_H-M   'F d d d'
_symmetry_Int_Tables_number      70
_space_group_name_Hall           '-F 2uv 2vw'
loop_
_symmetry_equiv_pos_site_id
_symmetry_equiv_pos_as_xyz
1 x,y,z
2 1/4-x,1/4-y,z
3 x,1/4-y,1/4-z
4 1/4-x,y,1/4-z
5 x,1/2+y,1/2+z
6 1/4-x,3/4-y,1/2+z
7 x,3/4-y,3/4-z
8 1/4-x,1/2+y,3/4-z
9 1/2+x,y,1/2+z
10 3/4-x,1/4-y,1/2+z
11 1/2+x,1/4-y,3/4-z
12 3/4-x,y,3/4-z
13 1/2+x,1/2+y,z
14 3/4-x,3/4-y,z
15 1/2+x,3/4-y,1/4-z
16 3/4-x,1/2+y,1/4-z
17 -x,-y,-z
18 3/4+x,3/4+y,-z
19 -x,3/4+y,3/4+z
20 3/4+x,-y,3/4+z
21 -x,1/2-y,1/2-z
22 3/4+x,1/4+y,1/2-z
23 -x,1/4+y,1/4+z
24 3/4+x,1/2-y,1/4+z
25 1/2-x,-y,1/2-z
26 1/4+x,3/4+y,1/2-z
27 1/2-x,3/4+y,1/4+z
28 1/4+x,-y,1/4+z
29 1/2-x,1/2-y,-z
30 1/4+x,1/4+y,-z
31 1/2-x,1/4+y,3/4+z
32 1/4+x,1/2-y,3/4+z
_cell_length_a                   25.813(3)
_cell_length_b                   28.521(6)
_cell_length_c                   23.112(3)
_cell_angle_alpha                90
_cell_angle_beta                 90
_cell_angle_gamma                90
_cell_volume                     17015.3
loop_
_atom_site_label
_atom_site_type_symbol
_atom_site_fract_x
_atom_site_fract_y
_atom_site_fract_z
Mn1 Mn -0.2500 0.0000 0.7500
Mn2 Mn -0.19374(3) -0.06402(2) 0.86549(3)
C1 C -0.13009(17) -0.04088(14) 0.77723(18)
C2 C -0.09542(16) -0.02843(14) 0.72847(17)
C3 C -0.05049(17) -0.05399(16) 0.71919(18)
H1 H -0.0435 -0.0799 0.7423
C4 C -0.01621(18) -0.04165(16) 0.67652(19)
H2 H 0.0138 -0.0592 0.6712
C5 C -0.02571(16) -0.00333(14) 0.64115(17)
C6 C -0.07117(17) 0.02209(15) 0.64994(18)
H3 H -0.0782 0.0480 0.6269
C7 C -0.10582(17) 0.00924(16) 0.69243(18)
H4 H -0.1365 0.0260 0.6970
C8 C 0.01098(17) 0.00970(15) 0.59496(18)
C9 C 0.03798(17) 0.05947(15) 0.52527(18)
C10 C 0.07815(16) -0.01017(15) 0.53763(18)
C11 C 0.11762(16) -0.04474(14) 0.51811(18)
C12 C 0.12055(18) -0.08935(15) 0.54237(19)
H5 H 0.0987 -0.0975 0.5727
C13 C 0.15605(17) -0.12152(15) 0.52130(19)
H6 H 0.1573 -0.1514 0.5373
C14 C 0.18964(16) -0.10995(14) 0.47694(18)
C15 C 0.18636(17) -0.06573(15) 0.4532(2)
H7 H 0.2085 -0.0575 0.4231
C16 C 0.15084(18) -0.03358(16) 0.4734(2)
H8 H 0.1492 -0.0040 0.4566
C17 C 0.22866(19) -0.14424(17) 0.45466(19)
C18 C 0.03112(17) 0.10306(15) 0.49097(18)
C19 C -0.0027(2) 0.13760(16) 0.50839(19)
H9 H -0.0193 0.1351 0.5439
C20 C -0.01191(19) 0.17601(16) 0.47322(19)
H10 H -0.0341 0.1996 0.4858
C21 C 0.01144(17) 0.17961(15) 0.41997(18)
C22 C 0.04632(18) 0.14570(16) 0.4032(2)
H11 H 0.0629 0.1482 0.3676
C23 C 0.05689(18) 0.10815(15) 0.43880(19)
H12 H 0.0815 0.0861 0.4277
C24 C -0.00231(17) 0.21864(15) 0.37894(19)
N1 N 0.04720(13) -0.02235(12) 0.58138(15)
N2 N 0.00465(14) 0.05080(12) 0.56798(15)
N3 N 0.07526(14) 0.03009(12) 0.50824(15)
O1 O -0.17447(11) -0.02365(10) 0.78139(12)
O2 O -0.11475(11) -0.06846(10) 0.81712(12)
O3 O 0.21978(12) -0.18703(11) 0.46053(15)
O4 O 0.26937(12) -0.12960(11) 0.42972(13)
O5 O 0.01297(13) 0.21501(11) 0.32815(13)
O6 O -0.02952(12) 0.25207(10) 0.39875(12)
Mn1B Mn -0.2500 0.2500 1.5000
Mn1E Mn -0.5000 -0.2500 1.2500
Mn1I Mn 0.0000 0.2500 0.2500
Mn1N Mn 0.2500 -0.2500 0.5000
Mn1K Mn 0.0000 0.0000 1.0000
Mn2K Mn -0.05626(3) -0.06402(2) 0.88451(3)
Mn2B Mn -0.19374(3) 0.31402(2) 1.38451(3)
Mn2E Mn -0.55626(3) -0.18598(2) 1.36549(3)
Mn2I Mn -0.05626(3) 0.31402(2) 0.36549(3)
Mn2N Mn 0.30626(3) -0.18598(2) 0.38451(3)
C1K C -0.11991(17) -0.04088(14) 0.97277(18)
C2K C -0.15458(16) -0.02843(14) 1.02153(17)
C3K C -0.19951(17) -0.05399(16) 1.03081(18)
H1K H -0.2065 -0.0799 1.0077
C4K C -0.23379(18) -0.04165(16) 1.07348(19)
H2K H -0.2638 -0.0592 1.0788
C5K C -0.22429(16) -0.00333(14) 1.10885(17)
C6K C -0.17883(17) 0.02209(15) 1.10006(18)
H3K H -0.1718 0.0480 1.1231
C7K C -0.14418(17) 0.00924(16) 1.05757(18)
H4K H -0.1135 0.0260 1.0530
C8K C -0.26098(17) 0.00970(15) 1.15504(18)
C9K C -0.28798(17) 0.05947(15) 1.22473(18)
C10K C -0.32815(16) -0.01017(15) 1.21237(18)
C11K C -0.36762(16) -0.04474(14) 1.23189(18)
C12K C -0.37055(18) -0.08935(15) 1.20763(19)
H5K H -0.3487 -0.0975 1.1773
C13K C -0.40605(17) -0.12152(15) 1.22870(19)
H6K H -0.4073 -0.1514 1.2127
C14K C -0.43964(16) -0.10995(14) 1.27306(18)
C15K C -0.43636(17) -0.06573(15) 1.2968(2)
H7K H -0.4585 -0.0575 1.3269
C16K C -0.40084(18) -0.03358(16) 1.2766(2)
H8K H -0.3992 -0.0040 1.2934
C17K C -0.47866(19) -0.14424(17) 1.29534(19)
C18K C -0.28112(17) 0.10306(15) 1.25903(18)
C19K C -0.2473(2) 0.13760(16) 1.24161(19)
H9K H -0.2307 0.1351 1.2061
C20K C -0.23809(19) 0.17601(16) 1.27678(19)
H10K H -0.2159 0.1996 1.2642
C21K C -0.26144(17) 0.17961(15) 1.33003(18)
C22K C -0.29632(18) 0.14570(16) 1.3468(2)
H11K H -0.3129 0.1482 1.3824
C23K C -0.30689(18) 0.10815(15) 1.31120(19)
H12K H -0.3315 0.0861 1.3223
C24K C -0.24769(17) 0.21864(15) 1.37106(19)
N1K N -0.29720(13) -0.02235(12) 1.16862(15)
N2K N -0.25465(14) 0.05080(12) 1.18202(15)
N3K N -0.32526(14) 0.03009(12) 1.24176(15)
O1K O -0.07553(11) -0.02365(10) 0.96861(12)
O1X O -0.32553(11) 0.02365(10) 0.71861(12)
O2K O -0.13525(11) -0.06846(10) 0.93288(12)
O3K O -0.46978(12) -0.18703(11) 1.28947(15)
O3N O -0.28022(12) -0.06297(11) 0.78947(15)
O3V O -0.21978(12) 0.06297(11) 0.71053(15)
O4K O -0.51937(12) -0.12960(11) 1.32028(13)
O4E O -0.01937(12) -0.12040(11) 0.92972(13)
O4N O -0.23063(12) -0.12040(11) 0.82028(13)
O5K O -0.26297(13) 0.21501(11) 1.42185(13)
O5I O -0.26297(13) 0.03499(11) 0.82815(13)
O5Q O -0.23703(13) -0.03499(11) 0.67185(13)
O6K O -0.22048(12) 0.25207(10) 1.35125(12)
O6B O -0.02952(12) -0.00207(10) 0.85125(12)
O6I O -0.22048(12) -0.00207(10) 0.89875(12)
loop_
_geom_bond_atom_site_label_1
_geom_bond_atom_site_label_2
_geom_bond_site_symmetry_1
_geom_bond_site_symmetry_2
Mn1 O1 1_555 1_555
Mn2 O1 1_555 1_555
C1 C2 1_555 1_555
C2 C3 1_555 1_555
C3 H1 1_555 1_555
C4 C3 1_555 1_555
H2 C4 1_555 1_555
C5 C4 1_555 1_555
C6 C5 1_555 1_555
H3 C6 1_555 1_555
C7 C2 1_555 1_555
H4 C7 1_555 1_555
C8 C5 1_555 1_555
C9 C18 1_555 1_555
C10 C11 1_555 1_555
C11 C12 1_555 1_555
C12 H5 1_555 1_555
C13 C12 1_555 1_555
H6 C13 1_555 1_555
C14 C13 1_555 1_555
C15 C14 1_555 1_555
H7 C15 1_555 1_555
C16 C11 1_555 1_555
H8 C16 1_555 1_555
C17 C14 1_555 1_555
C18 C19 1_555 1_555
C19 H9 1_555 1_555
C20 C19 1_555 1_555
H10 C20 1_555 1_555
C21 C20 1_555 1_555
C22 C21 1_555 1_555
H11 C22 1_555 1_555
C23 C18 1_555 1_555
H12 C23 1_555 1_555
C24 C21 1_555 1_555
N1 C8 1_555 1_555
N2 C8 1_555 1_555
N3 C9 1_555 1_555
O1 C1 1_555 1_555
O2 Mn2 1_555 1_555
O3 C17 1_555 1_555
O4 C17 1_555 1_555
O5 C24 1_555 1_555
O6 C24 1_555 1_555
Mn1B O5K 1_555 1_555
Mn1E O3K 1_555 1_555
Mn1I O5 1_555 1_555
Mn1N O3 1_555 1_555
Mn1K O1K 1_555 1_555
Mn2K O2 1_555 1_555
Mn2B O6K 1_555 1_555
Mn2E O4K 1_555 1_555
Mn2I O6 1_555 1_555
Mn2N O4 1_555 1_555
C1K C2K 1_555 1_555
C2K C3K 1_555 1_555
C3K H1K 1_555 1_555
C4K C3K 1_555 1_555
H2K C4K 1_555 1_555
C5K C4K 1_555 1_555
C6K C5K 1_555 1_555
H3K C6K 1_555 1_555
C7K C2K 1_555 1_555
H4K C7K 1_555 1_555
C8K C5K 1_555 1_555
C9K C18K 1_555 1_555
C10K C11K 1_555 1_555
C11K C12K 1_555 1_555
C12K H5K 1_555 1_555
C13K C12K 1_555 1_555
H6K C13K 1_555 1_555
C14K C13K 1_555 1_555
C15K C14K 1_555 1_555
H7K C15K 1_555 1_555
C16K C11K 1_555 1_555
H8K C16K 1_555 1_555
C17K C14K 1_555 1_555
C18K C19K 1_555 1_555
C19K H9K 1_555 1_555
C20K C19K 1_555 1_555
H10K C20K 1_555 1_555
C21K C20K 1_555 1_555
C22K C21K 1_555 1_555
H11K C22K 1_555 1_555
C23K C18K 1_555 1_555
H12K C23K 1_555 1_555
C24K C21K 1_555 1_555
N1K C8K 1_555 1_555
N2K C8K 1_555 1_555
N3K C9K 1_555 1_555
O1K Mn2K 1_555 1_555
O1X Mn1 1_555 1_555
O2K Mn2 1_555 1_555
O3K C17K 1_555 1_555
O3N Mn1 1_555 1_555
O3V Mn1 1_555 1_555
O4K C17K 1_555 1_555
O4E Mn2K 1_555 1_555
O4N Mn2 1_555 1_555
O5K C24K 1_555 1_555
O5I Mn1 1_555 1_555
O5Q Mn1 1_555 1_555
O6K C24K 1_555 1_555
O6B Mn2K 1_555 1_555
O6I Mn2 1_555 1_555
C1 O2 1_555 1_555
C6 C7 1_555 1_555
C9 N2 1_555 1_555
C10 N1 1_555 1_555
C10 N3 1_555 1_555
C15 C16 1_555 1_555
C22 C23 1_555 1_555
Mn2K O2K 1_555 1_555
C1K O1K 1_555 1_555
C1K O2K 1_555 1_555
C6K C7K 1_555 1_555
C9K N2K 1_555 1_555
C10K N1K 1_555 1_555
C10K N3K 1_555 1_555
C15K C16K 1_555 1_555
C22K C23K 1_555 1_555

#END
