
#######################################################################
#
#                 Cambridge Crystallographic Data Centre
#                                CCDC 
#
#######################################################################
#
# If this CIF has been generated from an entry in the Cambridge 
# Structural Database, then it will include bibliographic, chemical, 
# crystal, experimental, refinement or atomic coordinate data resulting 
# from the CCDC's data processing and validation procedures.
#
#######################################################################

data_AVAYUS
_symmetry_cell_setting           orthorhombic
_symmetry_space_group_name_H-M   'P 21 21 21'
_symmetry_Int_Tables_number      19
_space_group_name_Hall           'P 2ac 2ab'
loop_
_symmetry_equiv_pos_site_id
_symmetry_equiv_pos_as_xyz
1 x,y,z
2 1/2-x,-y,1/2+z
3 1/2+x,1/2-y,-z
4 -x,1/2+y,1/2-z
_cell_length_a                   14.7740(1)
_cell_length_b                   14.8070(2)
_cell_length_c                   15.5758(2)
_cell_angle_alpha                90
_cell_angle_beta                 90
_cell_angle_gamma                90
_cell_volume                     3407.34
loop_
_atom_site_label
_atom_site_type_symbol
_atom_site_fract_x
_atom_site_fract_y
_atom_site_fract_z
Cu1 Cu 0.38853(2) 0.61726(3) 0.37806(2)
Cu2 Cu 0.25691(2) 0.75007(3) 0.40156(2)
Cl1 Cl 0.38610(6) 0.77459(6) 0.32832(6)
Cl2 Cl 0.30734(5) 0.64407(6) 0.50364(5)
P1 P 0.38841(6) 0.50142(6) 0.28881(5)
P2 P 0.61410(5) 0.70930(5) 0.60178(5)
N1 N 0.53704(15) 0.58933(17) 0.39685(17)
C1 C 0.5684(2) 0.5274(2) 0.3404(2)
C2 C 0.6575(2) 0.5286(3) 0.3115(2)
H1 H 0.6785 0.4841 0.2723
C3 C 0.7150(2) 0.5957(3) 0.3406(2)
H2 H 0.7753 0.5994 0.3197
C4 C 0.6837(2) 0.6576(2) 0.4005(2)
H3 H 0.7226 0.7033 0.4221
C5 C 0.59421(19) 0.6516(2) 0.42855(19)
C6 C 0.5026(2) 0.4553(3) 0.3118(3)
H4 H 0.4976 0.4088 0.3573
H5 H 0.5264 0.4256 0.2595
C7 C 0.3142(3) 0.4014(3) 0.3133(3)
C8 C 0.3081(3) 0.3983(3) 0.4122(3)
H6 H 0.2697 0.3475 0.4296
H7 H 0.2818 0.4548 0.4333
H8 H 0.3688 0.3906 0.4363
C9 C 0.2182(3) 0.4182(4) 0.2774(4)
H9 H 0.2188 0.4104 0.2149
H10 H 0.1990 0.4798 0.2915
H11 H 0.1759 0.3749 0.3030
C10 C 0.3503(4) 0.3093(3) 0.2803(5)
H12 H 0.3092 0.2610 0.2983
H13 H 0.4107 0.2983 0.3043
H14 H 0.3540 0.3105 0.2175
C11 C 0.3924(3) 0.5295(3) 0.1715(2)
C12 C 0.4744(3) 0.5926(4) 0.1604(3)
H15 H 0.5301 0.5593 0.1731
H16 H 0.4689 0.6438 0.1999
H17 H 0.4764 0.6149 0.1012
C13 C 0.4035(3) 0.4491(4) 0.1104(3)
H18 H 0.4098 0.4712 0.0514
H19 H 0.3501 0.4100 0.1144
H20 H 0.4576 0.4148 0.1264
C14 C 0.3060(3) 0.5834(4) 0.1472(3)
H21 H 0.2999 0.6357 0.1853
H22 H 0.2527 0.5444 0.1533
H23 H 0.3107 0.6041 0.0876
C15 C 0.5567(2) 0.7147(2) 0.49556(19)
H24 H 0.4917 0.7007 0.5038
H25 H 0.5609 0.7773 0.4736
C16 C 0.5474(2) 0.7940(2) 0.6661(2)
C17 C 0.5448(3) 0.8824(2) 0.6136(2)
H26 H 0.5068 0.8738 0.5627
H27 H 0.6063 0.8985 0.5958
H28 H 0.5196 0.9310 0.6491
C18 C 0.6009(2) 0.8154(3) 0.7491(2)
H29 H 0.5732 0.8672 0.7783
H30 H 0.6638 0.8299 0.7343
H31 H 0.5997 0.7628 0.7872
C19 C 0.4501(2) 0.7657(3) 0.6885(2)
H32 H 0.4194 0.8155 0.7180
H33 H 0.4515 0.7127 0.7262
H34 H 0.4172 0.7509 0.6357
C20 C 0.5959(2) 0.5904(2) 0.6410(2)
C21 C 0.6108(3) 0.5869(3) 0.7392(2)
H35 H 0.5617 0.6193 0.7681
H36 H 0.6688 0.6154 0.7533
H37 H 0.6115 0.5239 0.7583
C22 C 0.5034(2) 0.5495(3) 0.6193(3)
H38 H 0.4951 0.5488 0.5568
H39 H 0.4555 0.5859 0.6457
H40 H 0.5003 0.4876 0.6413
C23 C 0.6709(2) 0.5321(2) 0.5995(3)
H41 H 0.6649 0.4695 0.6191
H42 H 0.7304 0.5556 0.6163
H43 H 0.6650 0.5343 0.5369
Cu2B Cu 0.75691(2) 0.74993(3) 0.59844(2)
P2B P 0.11410(5) 0.79070(5) 0.39822(5)
O1 O 0.7017(3) 0.3168(3) 0.5107(2)
C24 C 0.8456(5) 0.3780(7) 0.4884(6)
H44 H 0.8303 0.4227 0.5325
H45 H 0.8832 0.4064 0.4442
H46 H 0.8794 0.3281 0.5149
C25 C 0.7646(5) 0.3438(5) 0.4504(4)
H47 H 0.7376 0.3912 0.4136
H48 H 0.7800 0.2918 0.4132
C26 C 0.6139(5) 0.3064(5) 0.4844(4)
H49 H 0.6130 0.2644 0.4350
H50 H 0.5913 0.3655 0.4639
C27 C 0.5537(4) 0.2737(5) 0.5472(5)
H51 H 0.5609 0.2080 0.5526
H52 H 0.4913 0.2873 0.5300
H53 H 0.5667 0.3024 0.6024
loop_
_geom_bond_atom_site_label_1
_geom_bond_atom_site_label_2
_geom_bond_site_symmetry_1
_geom_bond_site_symmetry_2
Cu1 Cl1 1_555 1_555
Cu2 Cl1 1_555 1_555
Cl2 Cu1 1_555 1_555
P1 Cu1 1_555 1_555
P2 C15 1_555 1_555
N1 Cu1 1_555 1_555
C1 N1 1_555 1_555
C2 C1 1_555 1_555
H1 C2 1_555 1_555
C3 C2 1_555 1_555
H2 C3 1_555 1_555
C4 C3 1_555 1_555
H3 C4 1_555 1_555
C5 N1 1_555 1_555
C6 P1 1_555 1_555
H4 C6 1_555 1_555
H5 C6 1_555 1_555
C7 P1 1_555 1_555
C8 C7 1_555 1_555
H6 C8 1_555 1_555
H7 C8 1_555 1_555
H8 C8 1_555 1_555
C9 C7 1_555 1_555
H9 C9 1_555 1_555
H10 C9 1_555 1_555
H11 C9 1_555 1_555
C10 C7 1_555 1_555
H12 C10 1_555 1_555
H13 C10 1_555 1_555
H14 C10 1_555 1_555
C11 P1 1_555 1_555
C12 C11 1_555 1_555
H15 C12 1_555 1_555
H16 C12 1_555 1_555
H17 C12 1_555 1_555
C13 C11 1_555 1_555
H18 C13 1_555 1_555
H19 C13 1_555 1_555
H20 C13 1_555 1_555
C14 C11 1_555 1_555
H21 C14 1_555 1_555
H22 C14 1_555 1_555
H23 C14 1_555 1_555
C15 C5 1_555 1_555
H24 C15 1_555 1_555
H25 C15 1_555 1_555
C16 P2 1_555 1_555
C17 C16 1_555 1_555
H26 C17 1_555 1_555
H27 C17 1_555 1_555
H28 C17 1_555 1_555
C18 C16 1_555 1_555
H29 C18 1_555 1_555
H30 C18 1_555 1_555
H31 C18 1_555 1_555
C19 C16 1_555 1_555
H32 C19 1_555 1_555
H33 C19 1_555 1_555
H34 C19 1_555 1_555
C20 P2 1_555 1_555
C21 C20 1_555 1_555
H35 C21 1_555 1_555
H36 C21 1_555 1_555
H37 C21 1_555 1_555
C22 C20 1_555 1_555
H38 C22 1_555 1_555
H39 C22 1_555 1_555
H40 C22 1_555 1_555
C23 C20 1_555 1_555
H41 C23 1_555 1_555
H42 C23 1_555 1_555
H43 C23 1_555 1_555
O1 C25 1_555 1_555
C24 H44 1_555 1_555
H45 C24 1_555 1_555
H46 C24 1_555 1_555
C25 C24 1_555 1_555
H47 C25 1_555 1_555
H48 C25 1_555 1_555
C26 O1 1_555 1_555
H49 C26 1_555 1_555
H50 C26 1_555 1_555
C27 C26 1_555 1_555
H51 C27 1_555 1_555
H52 C27 1_555 1_555
H53 C27 1_555 1_555
Cu2B P2 1_555 1_555
P2B Cu2 1_555 1_555
Cu2 Cl2 1_555 1_555
C1 C6 1_555 1_555
C4 C5 1_555 1_555

#END
