
#######################################################################
#
#                 Cambridge Crystallographic Data Centre
#                                CCDC 
#
#######################################################################
#
# If this CIF has been generated from an entry in the Cambridge 
# Structural Database, then it will include bibliographic, chemical, 
# crystal, experimental, refinement or atomic coordinate data resulting 
# from the CCDC's data processing and validation procedures.
#
#######################################################################

data_AVEHUE
_symmetry_cell_setting           monoclinic
_symmetry_space_group_name_H-M   'P 21'
_symmetry_Int_Tables_number      4
_space_group_name_Hall           'P 2yb'
loop_
_symmetry_equiv_pos_site_id
_symmetry_equiv_pos_as_xyz
1 x,y,z
2 -x,1/2+y,-z
_cell_length_a                   9.782(2)
_cell_length_b                   12.487(7)
_cell_length_c                   20.017(6)
_cell_angle_alpha                90
_cell_angle_beta                 92.64(3)
_cell_angle_gamma                90
_cell_volume                     2442.44
loop_
_atom_site_label
_atom_site_type_symbol
_atom_site_fract_x
_atom_site_fract_y
_atom_site_fract_z
Re1 Re -0.17939(10) 0.67359(10) -0.32467(5)
Re2 Re -0.20169(11) 0.50417(10) -0.22974(5)
Re3 Re -0.16827(11) 0.72106(10) -0.18461(5)
Re4 Re 0.05631(11) 0.61109(12) -0.24298(6)
Te1 Te -0.0059(2) 0.81210(19) -0.26965(10)
Te2 Te -0.04124(19) 0.5577(2) -0.12655(9)
Te3 Te -0.05510(19) 0.48775(19) -0.33680(9)
Te4 Te -0.39208(17) 0.65141(16) -0.24921(8)
C1 C -0.291(3) 0.807(3) -0.3548(15)
C2 C -0.082(2) 0.712(2) -0.4113(12)
C3 C -0.313(2) 0.604(2) -0.3950(12)
C4 C -0.326(3) 0.453(3) -0.1524(15)
C5 C -0.342(3) 0.414(3) -0.2888(16)
C6 C -0.134(4) 0.351(4) -0.210(2)
C7 C -0.295(2) 0.710(2) -0.1023(13)
C8 C -0.273(3) 0.864(3) -0.1898(16)
C9 C -0.051(3) 0.813(3) -0.1126(14)
C10 C 0.180(3) 0.479(3) -0.2250(15)
C11 C 0.220(3) 0.684(3) -0.1823(13)
C12 C 0.201(3) 0.634(3) -0.3153(14)
N1 N -0.342(3) 0.884(2) -0.3783(13)
N2 N -0.032(2) 0.728(3) -0.4634(11)
N3 N -0.383(2) 0.570(2) -0.4364(12)
N4 N -0.395(3) 0.421(2) -0.1142(13)
N5 N -0.420(3) 0.363(3) -0.3171(13)
N6 N -0.092(4) 0.261(3) -0.2012(17)
N7 N -0.367(2) 0.718(2) -0.0595(10)
N8 N -0.326(3) 0.942(3) -0.1960(13)
N9 N 0.014(3) 0.855(3) -0.0718(14)
N10 N 0.247(3) 0.400(3) -0.2154(14)
N11 N 0.307(3) 0.717(4) -0.1511(16)
N12 N 0.288(2) 0.654(3) -0.3525(11)
Cu1 Cu -0.5181(3) 0.4812(3) -0.52320(17)
Cu2 Cu -0.4955(4) 0.3236(3) -0.02467(17)
C13 C -0.749(3) 0.614(3) -0.5364(14)
H1 H -0.7836 0.5763 -0.5760
H2 H -0.8243 0.6535 -0.5184
C14 C -0.644(3) 0.689(3) -0.5552(15)
H3 H -0.6806 0.7297 -0.5939
C15 C -0.594(2) 0.772(2) -0.5019(14)
H4 H -0.5562 0.7336 -0.4626
C16 C -0.708(3) 0.836(3) -0.4824(14)
H5 H -0.7728 0.7930 -0.4588
H6 H -0.7550 0.8680 -0.5212
C17 C -0.266(3) 0.194(3) -0.0464(15)
H7 H -0.1871 0.1548 -0.0286
H8 H -0.2391 0.2325 -0.0859
C18 C -0.379(2) 0.118(2) -0.0651(13)
H9 H -0.3564 0.0808 -0.1062
C19 C -0.287(3) -0.031(3) 0.0122(14)
H10 H -0.2463 -0.0631 -0.0263
H11 H -0.2187 0.0152 0.0341
C20 C -0.406(2) 0.034(2) -0.0105(12)
H12 H -0.4392 0.0720 0.0284
N13 N -0.6958(18) 0.5353(18) -0.4859(10)
H13 H -0.7555 0.4812 -0.4814
H14 H -0.6800 0.5668 -0.4459
N14 N -0.530(2) 0.616(2) -0.5801(11)
H15 H -0.4494 0.6504 -0.5776
H16 H -0.5489 0.5980 -0.6232
N15 N -0.487(2) 0.8448(19) -0.5266(11)
H17 H -0.5047 0.8581 -0.5704
H18 H -0.4050 0.8126 -0.5221
N16 N -0.647(2) 0.920(2) -0.4381(11)
H19 H -0.6245 0.8909 -0.3978
H20 H -0.7089 0.9717 -0.4323
N17 N -0.309(2) 0.271(2) 0.0035(12)
H21 H -0.2497 0.3267 0.0063
H22 H -0.3102 0.2400 0.0439
N18 N -0.501(2) 0.184(2) -0.0785(10)
H23 H -0.5755 0.1461 -0.0683
H24 H -0.5081 0.1995 -0.1224
N19 N -0.323(2) -0.1140(18) 0.0577(11)
H25 H -0.3303 -0.0868 0.0991
H26 H -0.2585 -0.1652 0.0595
N20 N -0.516(2) -0.041(2) -0.0354(11)
H27 H -0.5035 -0.0591 -0.0783
H28 H -0.5986 -0.0102 -0.0331
N16A N -0.353(2) 0.420(2) -0.5619(11)
Cu2A Cu -0.5045(4) 0.8236(3) 0.02467(17)
N19A N -0.677(2) 0.3860(18) -0.0577(11)
N7A N -0.633(2) 0.218(2) 0.0595(10)
Cu2A_2 Cu -0.5045(4) -0.1764(3) 0.02467(17)
N20A N -0.484(2) 0.459(2) 0.0354(11)
H27A H -0.4965 0.4409 0.0783
H28A H -0.4014 0.4898 0.0331
H25A H -0.6697 0.4132 -0.0991
H26A H -0.7415 0.3348 -0.0595
Cu1A Cu -0.4819(3) 0.9812(3) -0.47680(17)
N15A N -0.513(2) 0.3448(19) -0.4734(11)
H17A H -0.4953 0.3581 -0.4296
H18A H -0.5950 0.3126 -0.4779
H19A H -0.3755 0.3909 -0.6022
H20A H -0.2911 0.4717 -0.5677
O1 O -0.865(8) 0.081(7) -0.421(4)
O2 O -0.422(3) -0.279(3) -0.7732(13)
O3 O -1.189(4) 0.541(4) -0.964(2)
O4 O -0.716(5) 0.614(5) -0.718(3)
O5 O -1.086(3) 0.736(3) -0.9324(18)
O6 O -0.964(8) 0.108(9) -0.317(5)
O7 O -0.978(9) 0.445(7) -0.491(4)
O8 O -0.636(7) -0.110(7) -0.282(4)
O9? O -0.773(7) 0.183(7) -0.413(3)
loop_
_geom_bond_atom_site_label_1
_geom_bond_atom_site_label_2
_geom_bond_site_symmetry_1
_geom_bond_site_symmetry_2
Re1 Re2 1_555 1_555
Re2 Re3 1_555 1_555
Re3 Re1 1_555 1_555
Re4 Re1 1_555 1_555
Te1 Re1 1_555 1_555
Te2 Re2 1_555 1_555
Te3 Re1 1_555 1_555
Te4 Re1 1_555 1_555
C1 Re1 1_555 1_555
C2 Re1 1_555 1_555
C3 Re1 1_555 1_555
C4 Re2 1_555 1_555
C5 Re2 1_555 1_555
C6 Re2 1_555 1_555
C7 Re3 1_555 1_555
C8 Re3 1_555 1_555
C9 Re3 1_555 1_555
C10 Re4 1_555 1_555
C11 Re4 1_555 1_555
C12 Re4 1_555 1_555
N1 C1 1_555 1_555
N2 C2 1_555 1_555
N3 C3 1_555 1_555
N4 C4 1_555 1_555
N5 C5 1_555 1_555
N6 C6 1_555 1_555
N7 C7 1_555 1_555
N8 C8 1_555 1_555
N9 C9 1_555 1_555
N10 C10 1_555 1_555
N11 C11 1_555 1_555
N12 C12 1_555 1_555
Cu1 N3 1_555 1_555
Cu2 N4 1_555 1_555
C13 H1 1_555 1_555
H2 C13 1_555 1_555
C14 C13 1_555 1_555
H3 C14 1_555 1_555
C15 C14 1_555 1_555
H4 C15 1_555 1_555
C16 C15 1_555 1_555
H5 C16 1_555 1_555
H6 C16 1_555 1_555
C17 H7 1_555 1_555
H8 C17 1_555 1_555
C18 C17 1_555 1_555
H9 C18 1_555 1_555
C19 H10 1_555 1_555
H11 C19 1_555 1_555
C20 C18 1_555 1_555
H12 C20 1_555 1_555
N13 Cu1 1_555 1_555
H13 N13 1_555 1_555
H14 N13 1_555 1_555
N14 Cu1 1_555 1_555
H15 N14 1_555 1_555
H16 N14 1_555 1_555
N15 C15 1_555 1_555
H17 N15 1_555 1_555
H18 N15 1_555 1_555
N16 C16 1_555 1_555
H19 N16 1_555 1_555
H20 N16 1_555 1_555
N17 Cu2 1_555 1_555
H21 N17 1_555 1_555
H22 N17 1_555 1_555
N18 Cu2 1_555 1_555
H23 N18 1_555 1_555
H24 N18 1_555 1_555
N19 C19 1_555 1_555
H25 N19 1_555 1_555
H26 N19 1_555 1_555
N20 C20 1_555 1_555
H27 N20 1_555 1_555
H28 N20 1_555 1_555
N16A Cu1 1_555 1_555
Cu2A N7 1_555 1_555
N19A Cu2 1_555 1_555
N7A Cu2 1_555 1_555
Cu2A_2 N19 1_555 1_555
N20A Cu2 1_555 1_555
H27A N20A 1_555 1_555
H28A N20A 1_555 1_555
H25A N19A 1_555 1_555
H26A N19A 1_555 1_555
Cu1A N15 1_555 1_555
N15A Cu1 1_555 1_555
H17A N15A 1_555 1_555
H18A N15A 1_555 1_555
H19A N16A 1_555 1_555
H20A N16A 1_555 1_555
Re2 Re4 1_555 1_555
Re2 Te3 1_555 1_555
Re2 Te4 1_555 1_555
Re3 Re4 1_555 1_555
Re3 Te1 1_555 1_555
Re3 Te2 1_555 1_555
Re3 Te4 1_555 1_555
Re4 Te1 1_555 1_555
Re4 Te2 1_555 1_555
Re4 Te3 1_555 1_555
C13 N13 1_555 1_555
C14 N14 1_555 1_555
C17 N17 1_555 1_555
C18 N18 1_555 1_555
C19 C20 1_555 1_555
N16 Cu1A 1_555 1_555
N20 Cu2A_2 1_555 1_555

#END
