
#######################################################################
#
#                 Cambridge Crystallographic Data Centre
#                                CCDC 
#
#######################################################################
#
# If this CIF has been generated from an entry in the Cambridge 
# Structural Database, then it will include bibliographic, chemical, 
# crystal, experimental, refinement or atomic coordinate data resulting 
# from the CCDC's data processing and validation procedures.
#
#######################################################################

data_AVEJAM
_symmetry_cell_setting           orthorhombic
_symmetry_space_group_name_H-M   'P 21 21 21'
_symmetry_Int_Tables_number      19
_space_group_name_Hall           'P 2ac 2ab'
loop_
_symmetry_equiv_pos_site_id
_symmetry_equiv_pos_as_xyz
1 x,y,z
2 1/2-x,-y,1/2+z
3 -x,1/2+y,1/2-z
4 1/2+x,1/2-y,-z
_cell_length_a                   13.767(3)
_cell_length_b                   19.692(4)
_cell_length_c                   21.780(4)
_cell_angle_alpha                90
_cell_angle_beta                 90
_cell_angle_gamma                90
_cell_volume                     5904.55
loop_
_atom_site_label
_atom_site_type_symbol
_atom_site_fract_x
_atom_site_fract_y
_atom_site_fract_z
Re1 Re -0.25260(13) -0.08436(8) 0.18010(7)
Re2 Re -0.37541(14) -0.07979(8) 0.27621(8)
Re3 Re -0.37466(14) 0.05649(8) 0.27084(8)
Re4 Re -0.25272(13) 0.05161(8) 0.17577(8)
Re5 Re -0.42136(10) -0.01683(9) 0.17129(7)
Re6 Re -0.20652(10) -0.01165(9) 0.28033(7)
Te1 Te -0.4219(2) -0.15320(14) 0.17654(14)
Te2 Te -0.32917(18) -0.00584(14) 0.37655(10)
Te3 Te -0.54402(17) -0.01121(16) 0.26737(11)
Te4 Te -0.29945(18) -0.02017(15) 0.07465(10)
Te5 Te -0.08300(17) -0.01609(16) 0.18453(11)
Te6 Te -0.4221(2) 0.12012(15) 0.16560(13)
Te7 Te -0.2056(2) 0.12498(14) 0.27494(14)
Te8 Te -0.2056(2) -0.14830(14) 0.28529(13)
Cu1 Cu -0.1547(3) -0.2538(3) -0.0035(2)
Cu2 Cu -0.1569(3) 0.2417(3) 0.0152(2)
C1 C -0.186(3) -0.1606(18) 0.1271(15)
C2 C -0.445(3) -0.151(2) 0.3297(19)
C3 C -0.440(3) 0.134(2) 0.3247(19)
C4 C -0.185(3) 0.122(2) 0.127(2)
C5 C -0.544(3) -0.021(2) 0.1146(18)
C6 C -0.091(3) -0.008(3) 0.3424(18)
C7 C -0.013(3) -0.3567(19) 0.0166(17)
H1 H -0.0045 -0.3772 -0.0235
H2 H 0.0144 -0.3877 0.0467
C8 C 0.047(3) -0.2895(19) 0.0185(19)
H3 H 0.0432 -0.2742 0.0613
C9 C 0.201(3) -0.3378(19) 0.0524(16)
H4 H 0.1803 -0.3848 0.0507
H5 H 0.1865 -0.3205 0.0930
C10 C 0.147(3) -0.2981(18) 0.0062(16)
H6 H 0.1537 -0.3213 -0.0334
C11 C -0.299(2) 0.1489(16) -0.0315(15)
H7 H -0.3229 0.1236 -0.0667
H8 H -0.3104 0.1220 0.0052
C12 C -0.351(2) 0.2150(16) -0.0267(14)
H9 H -0.3433 0.2400 -0.0653
C13 C -0.509(3) 0.179(2) -0.0693(16)
H10 H -0.4886 0.2062 -0.1040
H11 H -0.4896 0.1324 -0.0769
C14 C -0.462(2) 0.2035(16) -0.0139(15)
H12 H -0.4704 0.1706 0.0195
N1 N -0.485(3) -0.1919(16) 0.3630(14)
N2 N -0.479(3) 0.1765(17) 0.3494(16)
N3 N -0.154(3) -0.2045(17) 0.0963(15)
N4 N -0.612(2) -0.027(2) 0.0823(13)
N5 N -0.028(2) 0.000(2) 0.3752(16)
N6 N -0.148(3) 0.1706(18) 0.1015(15)
N7 N -0.116(2) -0.3489(14) 0.0287(12)
H13 H -0.1276 -0.3521 0.0692
H14 H -0.1497 -0.3814 0.0092
N8 N -0.012(2) -0.2413(14) -0.0160(12)
H15 H 0.0021 -0.2457 -0.0562
H16 H 0.0049 -0.1989 -0.0045
N9 N 0.310(3) -0.3346(18) 0.0420(17)
H17 H 0.3286 -0.3689 0.0174
H18 H 0.3413 -0.3390 0.0781
N10 N 0.200(2) -0.2304(14) 0.0016(14)
H19 H 0.1825 -0.2036 0.0332
H20 H 0.1834 -0.2094 -0.0335
N11 N -0.193(2) 0.1641(13) -0.0385(12)
H21 H -0.1805 0.1744 -0.0779
H22 H -0.1584 0.1272 -0.0282
N12 N -0.302(2) 0.2518(16) 0.0224(13)
H23 H -0.3214 0.2357 0.0590
H24 H -0.3175 0.2961 0.0204
N13 N -0.614(3) 0.1820(18) -0.0641(16)
H25 H -0.6354 0.1433 -0.0469
H26 H -0.6398 0.1851 -0.1019
N14 N -0.512(2) 0.2683(15) 0.0018(14)
H27 H -0.4876 0.3025 -0.0208
H28 H -0.5026 0.2782 0.0417
N9C N -0.190(3) -0.1654(18) -0.0420(17)
Cu2C Cu -0.6569(3) 0.2583(3) -0.0152(2)
N13C N -0.114(3) 0.3180(18) 0.0641(16)
N14C N -0.012(2) 0.2317(15) -0.0018(14)
Cu1C Cu 0.3453(3) -0.2462(3) 0.0035(2)
N10C N -0.300(2) -0.2696(14) -0.0016(14)
H19C H -0.3175 -0.2964 -0.0332
H20C H -0.3166 -0.2906 0.0335
H17C H -0.1714 -0.1311 -0.0174
H18C H -0.1587 -0.1610 -0.0781
H25C H -0.1354 0.3567 0.0469
H26C H -0.1398 0.3149 0.1019
H27C H 0.0124 0.1975 0.0208
H28C H -0.0026 0.2218 -0.0417
O1 O -0.172(4) 0.328(3) -0.086(2)
O2 O -0.670(3) -0.197(2) 0.1225(18)
O3 O -0.625(2) 0.0238(18) -0.0394(14)
O4 O -0.654(5) -0.207(3) 0.254(3)
O5 O -0.490(3) -0.423(2) -0.0066(19)
O6 O -0.663(9) -0.158(6) -0.217(5)
O7 O -0.537(2) -0.5586(18) -0.0139(15)
O8 O -1.159(4) -0.546(3) 0.215(3)
O9 O -0.359(4) -0.601(3) 0.074(2)
O10 O -0.827(5) -0.150(3) -0.114(4)
O11 O -0.473(3) -0.278(2) -0.1981(19)
O12 O -0.410(7) -0.625(5) -0.091(4)
O13 O -0.391(5) -0.359(3) -0.110(3)
O14 O -0.317(7) -0.425(6) -0.054(5)
O15 O -0.287(5) -0.481(5) 0.085(3)
O16 O -1.206(6) -0.537(5) 0.355(4)
O17? O -0.566(5) -0.137(3) -0.164(3)
O18? O -0.798(6) -0.169(4) -0.164(5)
loop_
_geom_bond_atom_site_label_1
_geom_bond_atom_site_label_2
_geom_bond_site_symmetry_1
_geom_bond_site_symmetry_2
Re1 Re2 1_555 1_555
Re2 Re3 1_555 1_555
Re3 Re4 1_555 1_555
Re4 Re1 1_555 1_555
Re5 Re1 1_555 1_555
Re6 Re1 1_555 1_555
Te1 Re1 1_555 1_555
Te2 Re2 1_555 1_555
Te3 Re2 1_555 1_555
Te4 Re1 1_555 1_555
Te5 Re1 1_555 1_555
Te6 Re3 1_555 1_555
Te7 Re3 1_555 1_555
Te8 Re1 1_555 1_555
Cu1 N3 1_555 1_555
Cu2 N6 1_555 1_555
C1 Re1 1_555 1_555
C2 Re2 1_555 1_555
C3 Re3 1_555 1_555
C4 Re4 1_555 1_555
C5 Re5 1_555 1_555
C6 Re6 1_555 1_555
C7 H1 1_555 1_555
H2 C7 1_555 1_555
C8 C7 1_555 1_555
H3 C8 1_555 1_555
C9 H4 1_555 1_555
H5 C9 1_555 1_555
C10 C8 1_555 1_555
H6 C10 1_555 1_555
C11 H7 1_555 1_555
H8 C11 1_555 1_555
C12 C11 1_555 1_555
H9 C12 1_555 1_555
C13 H10 1_555 1_555
H11 C13 1_555 1_555
C14 C12 1_555 1_555
H12 C14 1_555 1_555
N1 C2 1_555 1_555
N2 C3 1_555 1_555
N3 C1 1_555 1_555
N4 C5 1_555 1_555
N5 C6 1_555 1_555
N6 C4 1_555 1_555
N7 Cu1 1_555 1_555
H13 N7 1_555 1_555
H14 N7 1_555 1_555
N8 Cu1 1_555 1_555
H15 N8 1_555 1_555
H16 N8 1_555 1_555
N9 C9 1_555 1_555
H17 N9 1_555 1_555
H18 N9 1_555 1_555
N10 C10 1_555 1_555
H19 N10 1_555 1_555
H20 N10 1_555 1_555
N11 Cu2 1_555 1_555
H21 N11 1_555 1_555
H22 N11 1_555 1_555
N12 Cu2 1_555 1_555
H23 N12 1_555 1_555
H24 N12 1_555 1_555
N13 C13 1_555 1_555
H25 N13 1_555 1_555
H26 N13 1_555 1_555
N14 C14 1_555 1_555
H27 N14 1_555 1_555
H28 N14 1_555 1_555
N9C Cu1 1_555 1_555
Cu2C N13 1_555 1_555
N13C Cu2 1_555 1_555
N14C Cu2 1_555 1_555
Cu1C N9 1_555 1_555
N10C Cu1 1_555 1_555
H19C N10C 1_555 1_555
H20C N10C 1_555 1_555
H17C N9C 1_555 1_555
H18C N9C 1_555 1_555
H25C N13C 1_555 1_555
H26C N13C 1_555 1_555
H27C N14C 1_555 1_555
H28C N14C 1_555 1_555
Re2 Re5 1_555 1_555
Re2 Re6 1_555 1_555
Re2 Te1 1_555 1_555
Re2 Te8 1_555 1_555
Re3 Re5 1_555 1_555
Re3 Re6 1_555 1_555
Re3 Te2 1_555 1_555
Re3 Te3 1_555 1_555
Re4 Re5 1_555 1_555
Re4 Re6 1_555 1_555
Re4 Te4 1_555 1_555
Re4 Te5 1_555 1_555
Re4 Te6 1_555 1_555
Re4 Te7 1_555 1_555
Re5 Te1 1_555 1_555
Re5 Te3 1_555 1_555
Re5 Te4 1_555 1_555
Re5 Te6 1_555 1_555
Re6 Te2 1_555 1_555
Re6 Te5 1_555 1_555
Re6 Te7 1_555 1_555
Re6 Te8 1_555 1_555
C7 N7 1_555 1_555
C8 N8 1_555 1_555
C9 C10 1_555 1_555
C11 N11 1_555 1_555
C12 N12 1_555 1_555
C13 C14 1_555 1_555
N10 Cu1C 1_555 1_555
N14 Cu2C 1_555 1_555

#END
