
#######################################################################
#
#                 Cambridge Crystallographic Data Centre
#                                CCDC 
#
#######################################################################
#
# If this CIF has been generated from an entry in the Cambridge 
# Structural Database, then it will include bibliographic, chemical, 
# crystal, experimental, refinement or atomic coordinate data resulting 
# from the CCDC's data processing and validation procedures.
#
#######################################################################

data_AVEJEQ
_symmetry_cell_setting           triclinic
_symmetry_space_group_name_H-M   'P 1'
_symmetry_Int_Tables_number      1
_space_group_name_Hall           'P 1'
loop_
_symmetry_equiv_pos_site_id
_symmetry_equiv_pos_as_xyz
1 x,y,z
_cell_length_a                   10.819(5)
_cell_length_b                   11.069(5)
_cell_length_c                   13.175(5)
_cell_angle_alpha                107.947(5)
_cell_angle_beta                 110.968(5)
_cell_angle_gamma                92.593(5)
_cell_volume                     1379.97
loop_
_atom_site_label
_atom_site_type_symbol
_atom_site_fract_x
_atom_site_fract_y
_atom_site_fract_z
Re1 Re -0.21851(4) 1.01231(4) 0.10810(4)
Re2 Re -0.28018(4) 1.23839(4) 0.19369(4)
Re3 Re -0.12075(4) 1.21663(4) 0.08064(4)
Re4 Re -0.36640(4) 1.26137(5) -0.01201(5)
Re5 Re -0.30555(4) 1.03495(4) -0.09873(4)
Re6 Re -0.46395(4) 1.05636(4) 0.01486(4)
Se1 Se -0.21007(15) 1.23592(17) -0.11833(16)
Se2 Se -0.53961(15) 1.08195(18) -0.18083(16)
Se3 Se -0.51669(15) 1.27547(17) 0.09888(17)
Se4 Se -0.39775(14) 0.84231(15) -0.06583(14)
Se5 Se -0.37355(15) 1.03952(17) 0.21516(16)
Se6 Se -0.07039(14) 0.99625(16) -0.00541(15)
Se7 Se -0.18592(15) 1.43046(16) 0.16163(16)
Se8 Se -0.04579(14) 1.19212(16) 0.27691(14)
C1 C -0.1288(18) 0.8841(18) 0.1847(15)
C2 C -0.2742(15) 1.3497(13) 0.3555(14)
C3 C 0.0768(14) 1.3083(16) 0.1300(16)
C4 C -0.4520(15) 1.4041(14) -0.0784(17)
C5 C -0.3286(13) 0.9166(16) -0.2659(13)
C6 C -0.6615(13) 0.9636(14) -0.0263(16)
N1 N -0.0764(16) 0.8077(15) 0.2301(16)
N2 N -0.2782(18) 1.4073(19) 0.4401(18)
N3 N 0.1839(12) 1.3676(15) 0.1629(15)
N4 N -0.5070(17) 1.4722(19) -0.1147(18)
N5 N -0.3437(14) 0.8533(14) -0.3593(12)
N6 N -0.7624(13) 0.9178(15) -0.0521(18)
Cu1 Cu -0.31770(14) 1.6324(2) 0.53719(18)
Cu2 Cu -0.81969(14) 1.6328(2) 0.03676(18)
C7 C -0.4602(9) 1.6812(10) 0.3259(9)
H1 H -0.4671 1.7708 0.3625
N7 N -0.4791(9) 1.6063(11) 0.3975(10)
H2 H -0.5019 1.5218 0.3542
H3 H -0.5474 1.6297 0.4185
C8 C -0.3157(10) 1.6779(13) 0.3348(10)
H4 H -0.3086 1.5925 0.2904
H5 H -0.29 1.739 0.3035
N8 N -0.2268(9) 1.7114(11) 0.4566(10)
H6 H -0.2073 1.7977 0.4914
H7 H -0.1494 1.6819 0.4619
C9 C -0.5582(11) 1.6351(10) 0.2045(9)
H8 H -0.5458 1.5477 0.1672
N9 N -0.6975(9) 1.6279(11) 0.1905(9)
H9 H -0.7043 1.6943 0.2472
H10 H -0.7246 1.5544 0.1983
C10 C -0.5358(11) 1.7191(13) 0.1344(12)
H11 H -0.5326 1.8091 0.1759
H12 H -0.4505 1.7106 0.1266
N10 N -0.6456(10) 1.6780(12) 0.0181(10)
H13 H -0.6302 1.6089 -0.0305
H14 H -0.6515 1.7421 -0.0111
C11 C -0.1067(11) 1.6087(12) 0.9656(10)
H15 H -0.1235 1.6957 0.9937
H16 H -0.1859 1.5485 0.9478
N11 N 0.0101(9) 1.5880(12) 1.0541(10)
H17 H -0.0008 1.5047 1.0484
H18 H 0.0158 1.6367 1.1248
C12 C -0.0772(9) 1.5882(11) 0.8575(9)
H19 H -0.0765 1.4963 0.8229
N12 N 0.0574(9) 1.6608(11) 0.8940(10)
H20 H 0.0542 1.7453 0.909
H21 H 0.0881 1.6335 0.8372
C13 C -0.3159(11) 1.5348(13) 0.7149(11)
H22 H -0.3006 1.4473 0.6866
H23 H -0.3528 1.5409 0.7731
N13 N -0.4103(10) 1.5676(13) 0.6186(9)
H24 H -0.4542 1.6279 0.6465
H25 H -0.4715 1.497 0.568
C14 C -0.1847(9) 1.6294(10) 0.7672(8)
H26 H -0.2007 1.7134 0.8084
N14 N -0.1540(10) 1.6424(12) 0.6765(10)
H27 H -0.1086 1.5798 0.6552
H28 H -0.0998 1.7188 0.7019
N15 N -0.8157(13) 1.3983(10) -0.0764(11)
H29 H -0.7358 1.4104 -0.0819
C15 C -0.8866(13) 1.2649(10) -0.1124(11)
H31 H -0.9705 1.2662 -0.1012
H32 H -0.8313 1.2185 -0.067
C16 C -0.9142(13) 1.1990(10) -0.2429(11)
H33 H -0.8301 1.1794 -0.2511
N16 N -0.9711(13) 1.2932(10) -0.3075(11)
H34 H -0.982 1.3677 -0.2698
H35 H -0.9916 1.2708 -0.3809
C17 C -0.9436(13) 0.9745(10) -0.2460(11)
H36 H -0.8615 0.9681 -0.2599
H37 H -0.9209 1.0008 -0.1632
N17 N -1.0391(13) 0.8472(10) -0.3089(11)
H38 H -1.1173 0.8421 -0.3603
H39 H -1.0154 0.7797 -0.2934
C18 C -1.0189(13) 1.0709(10) -0.2954(11)
H40 H -1.0912 1.0874 -0.2674
N18 N -1.0766(13) 1.0180(10) -0.4175(11)
H41 H -1.0663 0.9419 -0.4526
H42 H -1.122 1.0618 -0.457
Cu1_2 Cu -0.31770(14) 0.6324(2) -0.46281(18)
N5_2 N -0.3437(14) 1.8533(14) 0.6407(12)
N12_2 N -0.9426(9) 1.6608(11) -0.1060(10)
N11_2 N -0.9899(9) 1.5880(12) 0.0541(10)
Cu2_2 Cu 0.18031(14) 1.6328(2) 1.03676(18)
H20_2 H -0.9458 1.7453 -0.091
H21_2 H -0.9119 1.6335 -0.1628
H17_2 H -1.0008 1.5047 0.0484
H18_2 H -0.9842 1.6367 0.1248
O1 O -0.882(3) 1.516(3) 0.6894(19)
O2 O -0.937(3) 1.627(5) 0.510(6)
O3 O -0.757(6) 1.584(6) 0.470(3)
H30? H -0.8315 1.4624 -0.0234
C19? C -0.7763(13) 1.0616(10) -0.7655(11)
H43? H -0.7823 1.104 -0.8211
H44? H -0.8504 1.0773 -0.741
C20? C -0.6405(13) 1.1174(10) -0.6589(11)
H45? H -0.567 1.1208 -0.6854
N19? N -0.6184(13) 1.0276(10) -0.5857(11)
H46? H -0.6774 0.9602 -0.6076
H47? H -0.5473 1.0454 -0.5234
C21? C -0.6355(13) 1.3437(10) -0.6521(11)
H48? H -0.5584 1.3338 -0.6733
H49? H -0.7161 1.3226 -0.7222
N20? N -0.6208(13) 1.4795(10) -0.5723(11)
H50? H -0.6192 1.4929 -0.5039
H51? H -0.6141 1.5435 -0.5951
C22? C -0.6445(13) 1.2567(10) -0.5833(11)
H52? H -0.7316 1.2563 -0.5762
N21? N -0.5420(13) 1.3059(10) -0.4711(11)
H53? H -0.4865 1.3753 -0.4509
H54? H -0.535 1.2666 -0.4228
N22? N -0.786(2) 0.9107(19) -0.824(2)
H55? H -0.717 0.8952 -0.8479
H56? H -0.7808 0.8704 -0.773
loop_
_geom_bond_atom_site_label_1
_geom_bond_atom_site_label_2
_geom_bond_site_symmetry_1
_geom_bond_site_symmetry_2
Re1 Re2 1_555 1_555
Re2 Re3 1_555 1_555
Re3 Re1 1_555 1_555
Re4 Re2 1_555 1_555
Re5 Re1 1_555 1_555
Re6 Re1 1_555 1_555
Se1 Re3 1_555 1_555
Se2 Re4 1_555 1_555
Se3 Re2 1_555 1_555
Se4 Re1 1_555 1_555
Se5 Re1 1_555 1_555
Se6 Re1 1_555 1_555
Se7 Re2 1_555 1_555
Se8 Re1 1_555 1_555
C1 Re1 1_555 1_555
C2 Re2 1_555 1_555
C3 Re3 1_555 1_555
C4 Re4 1_555 1_555
C5 Re5 1_555 1_555
C6 Re6 1_555 1_555
N1 C1 1_555 1_555
N2 C2 1_555 1_555
N3 C3 1_555 1_555
N4 C4 1_555 1_555
N5 C5 1_555 1_555
N6 C6 1_555 1_555
Cu1 N2 1_555 1_555
Cu2 N9 1_555 1_555
C7 H1 1_555 1_555
N7 Cu1 1_555 1_555
H2 N7 1_555 1_555
H3 N7 1_555 1_555
C8 C7 1_555 1_555
H4 C8 1_555 1_555
H5 C8 1_555 1_555
N8 Cu1 1_555 1_555
H6 N8 1_555 1_555
H7 N8 1_555 1_555
C9 C7 1_555 1_555
H8 C9 1_555 1_555
N9 C9 1_555 1_555
H9 N9 1_555 1_555
H10 N9 1_555 1_555
C10 C9 1_555 1_555
H11 C10 1_555 1_555
H12 C10 1_555 1_555
N10 Cu2 1_555 1_555
H13 N10 1_555 1_555
H14 N10 1_555 1_555
C11 H15 1_555 1_555
H16 C11 1_555 1_555
N11 C11 1_555 1_555
H17 N11 1_555 1_555
H18 N11 1_555 1_555
C12 C11 1_555 1_555
H19 C12 1_555 1_555
N12 C12 1_555 1_555
H20 N12 1_555 1_555
H21 N12 1_555 1_555
C13 H22 1_555 1_555
H23 C13 1_555 1_555
N13 Cu1 1_555 1_555
H24 N13 1_555 1_555
H25 N13 1_555 1_555
C14 C12 1_555 1_555
H26 C14 1_555 1_555
N14 Cu1 1_555 1_555
H27 N14 1_555 1_555
H28 N14 1_555 1_555
N15 Cu2 1_555 1_555
H29 N15 1_555 1_555
C15 N15 1_555 1_555
H31 C15 1_555 1_555
H32 C15 1_555 1_555
C16 C15 1_555 1_555
H33 C16 1_555 1_555
N16 C16 1_555 1_555
H34 N16 1_555 1_555
H35 N16 1_555 1_555
C17 H36 1_555 1_555
H37 C17 1_555 1_555
N17 C17 1_555 1_555
H38 N17 1_555 1_555
H39 N17 1_555 1_555
C18 C16 1_555 1_555
H40 C18 1_555 1_555
N18 C18 1_555 1_555
H41 N18 1_555 1_555
H42 N18 1_555 1_555
Cu1_2 N5 1_555 1_555
N5_2 Cu1 1_555 1_555
N12_2 Cu2 1_555 1_555
N11_2 Cu2 1_555 1_555
Cu2_2 N11 1_555 1_555
H20_2 N12_2 1_555 1_555
H21_2 N12_2 1_555 1_555
H17_2 N11_2 1_555 1_555
H18_2 N11_2 1_555 1_555
Re2 Re6 1_555 1_555
Re2 Se8 1_555 1_555
Re2 Se5 1_555 1_555
Re3 Re4 1_555 1_555
Re3 Se6 1_555 1_555
Re3 Re5 1_555 1_555
Re3 Se7 1_555 1_555
Re3 Se8 1_555 1_555
Re4 Se7 1_555 1_555
Re4 Re5 1_555 1_555
Re4 Re6 1_555 1_555
Re4 Se3 1_555 1_555
Re4 Se1 1_555 1_555
Re5 Se1 1_555 1_555
Re5 Se4 1_555 1_555
Re5 Re6 1_555 1_555
Re5 Se2 1_555 1_555
Re5 Se6 1_555 1_555
Re6 Se2 1_555 1_555
Re6 Se3 1_555 1_555
Re6 Se4 1_555 1_555
Re6 Se5 1_555 1_555
C7 N7 1_555 1_555
C8 N8 1_555 1_555
C10 N10 1_555 1_555
N12 Cu2_2 1_555 1_555
C13 C14 1_555 1_555
C13 N13 1_555 1_555
C14 N14 1_555 1_555
C17 C18 1_555 1_555

#END
