
#######################################################################
#
#                 Cambridge Crystallographic Data Centre
#                                CCDC 
#
#######################################################################
#
# If this CIF has been generated from an entry in the Cambridge 
# Structural Database, then it will include bibliographic, chemical, 
# crystal, experimental, refinement or atomic coordinate data resulting 
# from the CCDC's data processing and validation procedures.
#
#######################################################################

data_AVELOD
_symmetry_cell_setting           tetragonal
_symmetry_space_group_name_H-M   'P -4 n 2'
_symmetry_Int_Tables_number      118
_space_group_name_Hall           'P -4 -2n'
loop_
_symmetry_equiv_pos_site_id
_symmetry_equiv_pos_as_xyz
1 x,y,z
2 y,-x,-z
3 -x,-y,z
4 -y,x,-z
5 1/2-x,1/2+y,1/2+z
6 1/2+y,1/2+x,1/2-z
7 1/2+x,1/2-y,1/2+z
8 1/2-y,1/2-x,1/2-z
_cell_length_a                   13.7561(3)
_cell_length_b                   13.7561(3)
_cell_length_c                   25.5306(12)
_cell_angle_alpha                90
_cell_angle_beta                 90
_cell_angle_gamma                90
_cell_volume                     4831.16
loop_
_atom_site_label
_atom_site_type_symbol
_atom_site_fract_x
_atom_site_fract_y
_atom_site_fract_z
Cu1 Cu 0.09339(8) 0.24926(11) 0.47627(6)
O1 O -0.0303(5) 0.2017(6) 0.5007(3)
O2 O -0.1094(5) 0.1361(7) 0.5682(3)
N1 N 0.0304(6) 0.3016(7) 0.4108(3)
N2 N 0.2191(7) 0.3127(7) 0.4595(4)
N3 N 0.1374(7) 0.2098(7) 0.5480(3)
H1 H 0.1971 0.2027 0.5571
C1 C -0.0395(8) 0.1711(8) 0.5487(5)
C2 C 0.0575(9) 0.1952(10) 0.5812(4)
H2 H 0.0461 0.2566 0.5997
C3 C 0.0730(12) 0.1184(15) 0.6221(6)
H3 H 0.0809 0.0563 0.6054
H4 H 0.0177 0.1162 0.6450
H5 H 0.1302 0.1334 0.6420
C4 C 0.0666(12) 0.2837(11) 0.3643(5)
H6 H 0.1214 0.2443 0.3621
C5 C 0.0280(10) 0.3199(12) 0.3186(5)
H7 H 0.0574 0.3068 0.2866
C6 C -0.0568(9) 0.3773(9) 0.3210(5)
C7 C -0.0931(12) 0.3945(10) 0.3691(7)
H8 H -0.1485 0.4327 0.3727
C8 C -0.0480(10) 0.3550(10) 0.4144(5)
H9 H -0.0747 0.3673 0.4473
C9 C -0.1042(10) 0.4170(11) 0.2745(5)
H10 H -0.1540 0.4615 0.2800
C10 C 0.3042(9) 0.2670(9) 0.4551(6)
H11 H 0.3026 0.1998 0.4586
C11 C 0.3897(10) 0.3055(12) 0.4466(7)
H12 H 0.4450 0.2666 0.4458
C12 C 0.3969(10) 0.4057(10) 0.4385(5)
C13 C 0.3086(11) 0.4596(11) 0.4421(5)
H13 H 0.3081 0.5268 0.4382
C14 C 0.2229(10) 0.4081(10) 0.4518(5)
H14 H 0.1649 0.4428 0.4529
C15 C 0.4926(9) 0.4538(10) 0.4328(6)
H15 H 0.5467 0.4139 0.4289
Cu1A Cu 0.24926(11) -0.09339(8) 0.52373(6)
Cu1C Cu -0.24926(11) 0.09339(8) 0.52373(6)
Cu1E Cu -0.25074(11) 0.59339(8) 0.02373(6)
Cu1B Cu 0.90661(8) 0.75074(11) 0.47627(6)
O1A O 0.2017(6) 0.0303(5) 0.4993(3)
O2A O 0.1361(7) 0.1094(5) 0.4318(3)
O2B O 0.1094(5) -0.1361(7) 0.5682(3)
N1E N -0.1984(7) 0.5304(6) 0.0892(3)
N1A N 0.3016(7) -0.0304(6) 0.5892(3)
N2B N 0.7809(7) 0.6873(7) 0.4595(4)
N2A N 0.3127(7) -0.2191(7) 0.5405(4)
N3A N 0.2098(7) -0.1374(7) 0.4520(3)
H1A H 0.2027 -0.1971 0.4429
C1A C 0.1711(8) 0.0395(8) 0.4513(5)
C2A C 0.1952(10) -0.0575(9) 0.4188(4)
H2A H 0.2566 -0.0461 0.4003
C3A C 0.1184(15) -0.0730(12) 0.3779(6)
H3A H 0.0563 -0.0809 0.3946
H4A H 0.1162 -0.0177 0.3550
H5A H 0.1334 -0.1302 0.3580
C4E C -0.2163(11) 0.5666(12) 0.1357(5)
H6E H -0.2557 0.6214 0.1379
C5E C -0.1801(12) 0.5280(10) 0.1814(5)
H7E H -0.1932 0.5574 0.2134
C6E C -0.1227(9) 0.4432(9) 0.1790(5)
C7E C -0.1055(10) 0.4069(12) 0.1309(7)
H8E H -0.0673 0.3515 0.1273
C8E C -0.1450(10) 0.4520(10) 0.0856(5)
H9E H -0.1327 0.4253 0.0527
C9E C -0.0830(11) 0.3958(10) 0.2255(5)
H10E H -0.0385 0.3460 0.2200
C10B C 0.6958(9) 0.7330(9) 0.4551(6)
H11B H 0.6974 0.8002 0.4586
C11B C 0.6103(10) 0.6945(12) 0.4466(7)
H12B H 0.5550 0.7334 0.4458
C12B C 0.6031(10) 0.5943(10) 0.4385(5)
C13B C 0.6914(11) 0.5404(11) 0.4421(5)
H13B H 0.6919 0.4732 0.4382
C14B C 0.7771(10) 0.5919(10) 0.4518(5)
H14B H 0.8351 0.5572 0.4529
C15B C 0.5074(9) 0.5462(10) 0.4328(6)
H15B H 0.4533 0.5861 0.4289
O3 O 0.235(4) 0.265(4) 0.7500
H17 H 0.2708 0.3194 0.7553
H17G H 0.1806 0.2292 0.7447
O4 O 0.6681(19) 0.2901(19) 0.3919(10)
H18 H 0.7226 0.3188 0.3894
H19 H 0.6726 0.2440 0.4140
O5 O 0.731(6) 0.648(6) 0.303(3)
H20 H 0.7527 0.6711 0.2745
H21 H 0.7664 0.6654 0.3283
O7 O 0.331(8) 0.206(9) 0.301(4)
H24 H 0.3434 0.2128 0.2687
H25 H 0.3289 0.1464 0.3089
O9 O 0.0000 0.5000 0.5397(11)
H28 H -0.0433 0.5381 0.5516
H28B H 0.0433 0.4619 0.5516
O12 O 0.523(19) 0.073(17) 0.204(9)
H34 H 0.4806 0.1096 0.2182
H35 H 0.5612 0.1076 0.1855
O13 O 0.659(4) 0.376(5) 0.334(2)
H36 H 0.6646 0.3440 0.3056
H37 H 0.6636 0.4365 0.3274
H16? H 0.2668 0.2187 0.7580
O6? O 0.545(7) 0.520(9) 0.278(3)
H22? H 0.5441 0.4678 0.2599
H23? H 0.4994 0.5571 0.2676
O8? O 0.667(6) 0.588(6) 0.293(3)
H26? H 0.6639 0.5269 0.2884
H27? H 0.6096 0.6117 0.2914
H29? H 0.0077 0.5105 0.5071
O10? O 0.471(5) 0.029(5) 0.2500
H30? H 0.4325 0.0594 0.2734
H31? H 0.4951 0.0847 0.2330
O11? O 0.028(3) 0.433(3) 0.5284(16)
H32? H 0.0463 0.3802 0.5139
H33? H 0.0464 0.4331 0.5602
loop_
_geom_bond_atom_site_label_1
_geom_bond_atom_site_label_2
_geom_bond_site_symmetry_1
_geom_bond_site_symmetry_2
Cu1 O1 1_555 1_555
O1 C1 1_555 1_555
O2 C1 1_555 1_555
N1 Cu1 1_555 1_555
N2 Cu1 1_555 1_555
N3 Cu1 1_555 1_555
H1 N3 1_555 1_555
C1 C2 1_555 1_555
C2 N3 1_555 1_555
H2 C2 1_555 1_555
C3 C2 1_555 1_555
H3 C3 1_555 1_555
H4 C3 1_555 1_555
H5 C3 1_555 1_555
C4 N1 1_555 1_555
H6 C4 1_555 1_555
C5 C4 1_555 1_555
H7 C5 1_555 1_555
C6 C5 1_555 1_555
C7 C6 1_555 1_555
H8 C7 1_555 1_555
C8 N1 1_555 1_555
H9 C8 1_555 1_555
C9 C6 1_555 1_555
H10 C9 1_555 1_555
C10 N2 1_555 1_555
H11 C10 1_555 1_555
C11 C10 1_555 1_555
H12 C11 1_555 1_555
C12 C11 1_555 1_555
C13 C12 1_555 1_555
H13 C13 1_555 1_555
C14 N2 1_555 1_555
H14 C14 1_555 1_555
C15 C12 1_555 1_555
H15 C15 1_555 1_555
O3 H17 1_555 1_555
O4 H18 1_555 1_555
H19 O4 1_555 1_555
O5 H20 1_555 1_555
H21 O5 1_555 1_555
O7 H24 1_555 1_555
H25 O7 1_555 1_555
O9 H28 1_555 1_555
O12 H34 1_555 1_555
H35 O12 1_555 1_555
O13 H36 1_555 1_555
H37 O13 1_555 1_555
Cu1A O1A 1_555 1_555
Cu1C O2 1_555 1_555
Cu1E N1E 1_555 1_555
Cu1B N2B 1_555 1_555
O1A C1A 1_555 1_555
O2A Cu1 1_555 1_555
O2B Cu1A 1_555 1_555
N1E C4E 1_555 1_555
N1A Cu1A 1_555 1_555
N2B C10B 1_555 1_555
N2A Cu1A 1_555 1_555
N3A Cu1A 1_555 1_555
H1A N3A 1_555 1_555
C1A O2A 1_555 1_555
C2A N3A 1_555 1_555
H2A C2A 1_555 1_555
C3A C2A 1_555 1_555
H3A C3A 1_555 1_555
H4A C3A 1_555 1_555
H5A C3A 1_555 1_555
C4E H6E 1_555 1_555
C5E C4E 1_555 1_555
H7E C5E 1_555 1_555
C6E C5E 1_555 1_555
C7E C6E 1_555 1_555
H8E C7E 1_555 1_555
C8E N1E 1_555 1_555
H9E C8E 1_555 1_555
C9E C9 1_555 1_555
H10E C9E 1_555 1_555
C10B H11B 1_555 1_555
C11B C10B 1_555 1_555
H12B C11B 1_555 1_555
C12B C11B 1_555 1_555
C13B C12B 1_555 1_555
H13B C13B 1_555 1_555
C14B N2B 1_555 1_555
H14B C14B 1_555 1_555
C15B C15 1_555 1_555
H15B C15B 1_555 1_555
H17G O3 1_555 1_555
H28B O9 1_555 1_555
C7 C8 1_555 1_555
C13 C14 1_555 1_555
C1A C2A 1_555 1_555
C6E C9E 1_555 1_555
C7E C8E 1_555 1_555
C12B C15B 1_555 1_555
C13B C14B 1_555 1_555

#END
