
#######################################################################
#
#                 Cambridge Crystallographic Data Centre
#                                CCDC 
#
#######################################################################
#
# If this CIF has been generated from an entry in the Cambridge 
# Structural Database, then it will include bibliographic, chemical, 
# crystal, experimental, refinement or atomic coordinate data resulting 
# from the CCDC's data processing and validation procedures.
#
#######################################################################

data_AVEMOE
_symmetry_cell_setting           orthorhombic
_symmetry_space_group_name_H-M   'P n a 21'
_symmetry_Int_Tables_number      33
_space_group_name_Hall           'P 2c -2n'
loop_
_symmetry_equiv_pos_site_id
_symmetry_equiv_pos_as_xyz
1 x,y,z
2 -x,-y,1/2+z
3 1/2-x,1/2+y,1/2+z
4 1/2+x,1/2-y,z
_cell_length_a                   16.6597(7)
_cell_length_b                   10.3551(4)
_cell_length_c                   6.9008(3)
_cell_angle_alpha                90
_cell_angle_beta                 90
_cell_angle_gamma                90
_cell_volume                     1190.48
loop_
_atom_site_label
_atom_site_type_symbol
_atom_site_fract_x
_atom_site_fract_y
_atom_site_fract_z
C1 C -0.2117(2) 0.9858(4) -0.2089(7)
H1 H -0.2678 0.9891 -0.1716
H2 H -0.1959 1.0712 -0.2527
C2 C -0.1809(3) 0.7729(4) 0.0300(6)
H3 H -0.1461 0.7325 0.1251
H4 H -0.2356 0.7690 0.0779
C3 C -0.0544(2) 0.9217(3) -0.1168(7)
H5 H -0.0352 1.0052 -0.1603
H6 H -0.0163 0.8875 -0.0239
C4 C -0.1164(2) 0.8850(4) -0.4331(5)
H7 H -0.1129 0.8321 -0.5488
H8 H -0.0988 0.9714 -0.4670
C5 C -0.0910(2) 0.7035(4) -0.2259(6)
H9 H -0.0568 0.6711 -0.1229
H10 H -0.0861 0.6449 -0.3349
C6 C -0.2268(3) 0.7606(4) -0.3072(7)
H11 H -0.2811 0.7662 -0.2571
H12 H -0.2279 0.7041 -0.4194
N1 N -0.20087(18) 0.8907(3) -0.3696(6)
N2 N -0.0614(2) 0.8320(3) -0.2854(5)
N3 N -0.17501(19) 0.7023(3) -0.1579(5)
O1 O -0.15552(19) 1.0247(3) 0.1707(4)
O2 O 0.0865(2) 0.5347(3) -0.2934(6)
O3 O -0.3562(2) 0.7822(3) -0.6674(5)
O4 O -0.3977(6) 0.9324(4) -0.9012(8)
O5 O -0.4905(3) 0.7822(8) -0.7717(8)
O6 O -0.3887(2) 0.7138(3) -0.9917(5)
P1 P -0.15152(6) 0.93939(10) -0.00389(15)
Ag1 Ag -0.28457(2) 0.98660(3) -0.61160(6)
Ag2 Ag 0.071604(19) 0.77161(3) -0.37773(6)
S1 S -0.40970(7) 0.80172(10) -0.83435(16)
H13 H 0.1028 0.5267 -0.1607
H14 H 0.0347 0.4927 -0.3088
N3B N -0.32499(19) 1.2023(3) -0.6579(5)
O1_2 O -0.15552(19) 1.0247(3) -0.8293(4)
O1A O 0.15552(19) 0.9753(3) -0.3293(4)
O3C O 0.1438(2) 0.7178(3) -0.6674(5)
Ag1B Ag -0.21543(2) 0.48660(3) -0.11160(6)
Ag1_2 Ag -0.28457(2) 0.98660(3) 0.38840(6)
Ag2A Ag -0.071604(19) 1.22839(3) 0.12227(6)
Ag2C Ag -0.428396(19) 0.72839(3) -0.37773(6)
loop_
_geom_bond_atom_site_label_1
_geom_bond_atom_site_label_2
_geom_bond_site_symmetry_1
_geom_bond_site_symmetry_2
C1 H1 1_555 1_555
H2 C1 1_555 1_555
C2 H3 1_555 1_555
H4 C2 1_555 1_555
C3 H5 1_555 1_555
H6 C3 1_555 1_555
C4 H7 1_555 1_555
H8 C4 1_555 1_555
C5 H9 1_555 1_555
H10 C5 1_555 1_555
C6 H11 1_555 1_555
H12 C6 1_555 1_555
N1 C1 1_555 1_555
N2 C3 1_555 1_555
N3 C2 1_555 1_555
O1 P1 1_555 1_555
O2 Ag2 1_555 1_555
O3 Ag1 1_555 1_555
O4 S1 1_555 1_555
O5 S1 1_555 1_555
O6 S1 1_555 1_555
P1 C1 1_555 1_555
Ag1 N1 1_555 1_555
Ag2 N2 1_555 1_555
S1 O3 1_555 1_555
H13 O2 1_555 1_555
H14 O2 1_555 1_555
N3B Ag1 1_555 1_555
O1_2 Ag1 1_555 1_555
O1A Ag2 1_555 1_555
O3C Ag2 1_555 1_555
Ag1B N3 1_555 1_555
Ag1_2 O1 1_555 1_555
Ag2A O1 1_555 1_555
Ag2C O3 1_555 1_555
C2 P1 1_555 1_555
C3 P1 1_555 1_555
C4 N1 1_555 1_555
C4 N2 1_555 1_555
C5 N2 1_555 1_555
C5 N3 1_555 1_555
C6 N1 1_555 1_555
C6 N3 1_555 1_555

#END
