
#######################################################################
#
#                 Cambridge Crystallographic Data Centre
#                                CCDC 
#
#######################################################################
#
# If this CIF has been generated from an entry in the Cambridge 
# Structural Database, then it will include bibliographic, chemical, 
# crystal, experimental, refinement or atomic coordinate data resulting 
# from the CCDC's data processing and validation procedures.
#
#######################################################################

data_AVEMAQ
_symmetry_cell_setting           tetragonal
_symmetry_space_group_name_H-M   'P -4 n 2'
_symmetry_Int_Tables_number      118
_space_group_name_Hall           'P -4 -2n'
loop_
_symmetry_equiv_pos_site_id
_symmetry_equiv_pos_as_xyz
1 x,y,z
2 y,-x,-z
3 -x,-y,z
4 -y,x,-z
5 1/2-x,1/2+y,1/2+z
6 1/2+y,1/2+x,1/2-z
7 1/2+x,1/2-y,1/2+z
8 1/2-y,1/2-x,1/2-z
_cell_length_a                   13.7327(15)
_cell_length_b                   13.7327(15)
_cell_length_c                   25.466(6)
_cell_angle_alpha                90
_cell_angle_beta                 90
_cell_angle_gamma                90
_cell_volume                     4802.56
loop_
_atom_site_label
_atom_site_type_symbol
_atom_site_fract_x
_atom_site_fract_y
_atom_site_fract_z
Ni1 Ni 0.74769(15) 0.59415(12) 0.47628(9)
O1 O 0.7048(8) 0.4670(8) 0.5024(4)
O2 O 0.6285(7) 0.3934(9) 0.5656(5)
N1 N 0.7060(13) 0.6391(10) 0.5472(5)
H1 H 0.7053 0.6990 0.5571
N2 N 0.7996(10) 0.5322(10) 0.4113(5)
N3 N 0.8112(8) 0.7176(9) 0.4581(4)
C1 C 0.6665(13) 0.4651(13) 0.5492(7)
C2 C 0.683(2) 0.560(2) 0.5799(11)
H2 H 0.7514 0.5449 0.5864
C3 C 0.662(4) 0.559(3) 0.6290(11)
H3 H 0.6723 0.4950 0.6428
H4 H 0.5955 0.5778 0.6339
H5 H 0.7038 0.6044 0.6471
C4 C 0.8621(11) 0.4529(11) 0.4156(5)
H6 H 0.8830 0.4317 0.4484
C5 C 0.8928(17) 0.4057(18) 0.3702(7)
H7 H 0.9257 0.3468 0.3734
C6 C 0.8765(11) 0.4426(13) 0.3211(8)
C7 C 0.8207(18) 0.5277(15) 0.3172(8)
H8 H 0.8064 0.5580 0.2854
C8 C 0.7881(11) 0.5631(11) 0.3664(5)
H9 H 0.7515 0.6200 0.3643
C9 C 0.9149(14) 0.3973(14) 0.2745(7)
H10 H 0.9594 0.3475 0.2806
C10 C 0.9091(14) 0.7236(13) 0.4545(7)
H11 H 0.9456 0.6681 0.4615
C11 C 0.9621(13) 0.8153(17) 0.4397(9)
H12 H 1.0284 0.8158 0.4324
C12 C 0.9080(11) 0.8962(12) 0.4377(7)
C13 C 0.8019(16) 0.8968(18) 0.4415(11)
H13 H 0.7649 0.9530 0.4376
C14 C 0.7611(10) 0.8058(11) 0.4515(5)
H14 H 0.6936 0.8033 0.4542
H15 H 0.9113 1.0534 0.4349
C15 C 0.9529(14) 0.9983(15) 0.4331(6)
Ni1C Ni 0.40585(12) 0.74769(15) 0.52372(9)
Ni1A Ni 0.59415(12) 0.25231(15) 0.52372(9)
Ni1E Ni 1.09415(12) 0.24769(15) 0.02372(9)
Ni1B Ni 1.25231(15) 1.40585(12) 0.47628(9)
O1C O 0.5330(8) 0.7048(8) 0.4976(4)
O2C O 0.6066(9) 0.6285(7) 0.4344(5)
O2B O 0.3715(7) 0.6066(9) 0.5656(5)
N1C N 0.3609(10) 0.7060(13) 0.4528(5)
H1C H 0.3010 0.7053 0.4429
N2E N 1.0322(10) 0.2996(10) 0.0887(5)
N2C N 0.4678(10) 0.7996(10) 0.5887(5)
N3B N 1.1888(8) 1.2824(9) 0.4581(4)
N3C N 0.2824(9) 0.8112(8) 0.5419(4)
C1C C 0.5349(13) 0.6665(13) 0.4508(7)
C2C C 0.440(2) 0.683(2) 0.4201(11)
H2C H 0.4551 0.7514 0.4136
C3C C 0.441(3) 0.662(4) 0.3710(11)
H3C H 0.5050 0.6723 0.3572
H4C H 0.4222 0.5955 0.3661
H5C H 0.3956 0.7038 0.3529
C4E C 0.9529(11) 0.3621(11) 0.0844(5)
H6E H 0.9317 0.3830 0.0516
C5E C 0.9057(18) 0.3928(17) 0.1298(7)
H7E H 0.8468 0.4257 0.1266
C6E C 0.9426(13) 0.3765(11) 0.1789(8)
C7E C 1.0277(15) 0.3207(18) 0.1828(8)
H8E H 1.0580 0.3064 0.2146
C8E C 1.0631(11) 0.2881(11) 0.1336(5)
H9E H 1.1200 0.2515 0.1357
C9E C 0.8973(14) 0.4149(14) 0.2255(7)
H10E H 0.8475 0.4594 0.2194
C10B C 1.0909(14) 1.2764(13) 0.4545(7)
H11B H 1.0544 1.3319 0.4615
C11B C 1.0379(13) 1.1847(17) 0.4397(9)
H12B H 0.9716 1.1842 0.4324
C12B C 1.0920(11) 1.1038(12) 0.4377(7)
C13B C 1.1981(16) 1.1032(18) 0.4415(11)
H13B H 1.2351 1.0470 0.4376
C14B C 1.2389(10) 1.1942(11) 0.4515(5)
H14B H 1.3064 1.1967 0.4542
H15B H 1.0887 0.9466 0.4349
C15B C 1.0471(14) 1.0017(15) 0.4331(6)
O3 O 0.652(4) 0.297(4) 0.156(2)
H16 H 0.6434 0.3501 0.1397
H17 H 0.7127 0.2897 0.1624
O4 O 0.5000 0.5000 0.242(12)
O5 O 0.167(8) 0.067(8) 0.213(4)
H20 H 0.1885 0.0084 0.2142
H21 H 0.1190 0.0693 0.1921
O6 O 0.867(6) 0.367(6) 0.7500
H22 H 0.8736 0.3855 0.7183
H22E H 0.8855 0.3736 0.7817
O10 O 0.326(10) 0.337(10) 0.216(5)
H30 H 0.3728 0.3600 0.1981
H31 H 0.2759 0.3717 0.2123
O11 O 0.934(8) 0.495(8) 0.788(4)
H33 H 0.8907 0.5316 0.8017
O12 O 0.5000 0.5000 0.0000
O13 O 1.0000 0.5000 0.445(6)
H37 H 0.9411 0.4974 0.4350
H37B H 1.0589 0.5026 0.4350
O14 O 0.216(8) 0.284(8) 0.2500
O15 O 1.0000 0.5000 0.9426(10)
H41 H 0.9489 0.5350 0.9426
H41B H 1.0511 0.4650 0.9426
O16 O 0.5000 0.5000 0.3378(10)
H42 H 0.4554 0.4608 0.3472
H42B H 0.5446 0.5392 0.3472
H18? H 0.5443 0.5247 0.2232
H19? H 0.4728 0.4534 0.2260
H23? H 0.8072 0.3513 0.7494
O7? O 0.616(18) 0.272(16) 0.159(9)
H24? H 0.6527 0.2249 0.1679
H25? H 0.5904 0.2963 0.1869
O8? O 0.673(8) 0.315(8) 0.192(5)
H26? H 0.7123 0.2734 0.2049
H27? H 0.6430 0.3432 0.2174
O9? O 0.658(2) 0.281(2) 0.1068(12)
H28? H 0.7194 0.2720 0.1091
H29? H 0.6348 0.2442 0.0833
H32? H 1.0116 0.4942 0.8031
H34? H 0.4459 0.4717 -0.0054
H35? H 0.5464 0.4932 0.0218
H36? H 0.9946 0.5290 0.4746
H38? H 0.2750 0.2228 0.2339
H39? H 0.2439 0.2539 0.2732
H40? H 1.0358 0.5157 0.9685
O17? O 1.0000 0.5000 0.405(5)
H43? H 0.9831 0.4412 0.4102
H44? H 0.9649 0.5249 0.3813
H45? H 0.4746 0.5534 0.3280
loop_
_geom_bond_atom_site_label_1
_geom_bond_atom_site_label_2
_geom_bond_site_symmetry_1
_geom_bond_site_symmetry_2
Ni1 O1 1_555 1_555
O1 C1 1_555 1_555
O2 C1 1_555 1_555
N1 Ni1 1_555 1_555
H1 N1 1_555 1_555
N2 Ni1 1_555 1_555
N3 Ni1 1_555 1_555
C1 C2 1_555 1_555
C2 N1 1_555 1_555
H2 C2 1_555 1_555
C3 C2 1_555 1_555
H3 C3 1_555 1_555
H4 C3 1_555 1_555
H5 C3 1_555 1_555
C4 N2 1_555 1_555
H6 C4 1_555 1_555
C5 C4 1_555 1_555
H7 C5 1_555 1_555
C6 C5 1_555 1_555
C7 C6 1_555 1_555
H8 C7 1_555 1_555
C8 N2 1_555 1_555
H9 C8 1_555 1_555
C9 C6 1_555 1_555
H10 C9 1_555 1_555
C10 N3 1_555 1_555
H11 C10 1_555 1_555
C11 C10 1_555 1_555
H12 C11 1_555 1_555
C12 C11 1_555 1_555
C13 C12 1_555 1_555
H13 C13 1_555 1_555
C14 N3 1_555 1_555
H14 C14 1_555 1_555
H15 C15 1_555 1_555
C15 C12 1_555 1_555
O3 H16 1_555 1_555
H17 O3 1_555 1_555
O5 H20 1_555 1_555
H21 O5 1_555 1_555
O6 H22 1_555 1_555
O10 H30 1_555 1_555
H31 O10 1_555 1_555
O11 H33 1_555 1_555
O13 H37 1_555 1_555
O15 H41 1_555 1_555
O16 H42 1_555 1_555
Ni1C O1C 1_555 1_555
Ni1A O2 1_555 1_555
Ni1E N2E 1_555 1_555
Ni1B N3B 1_555 1_555
O1C C1C 1_555 1_555
O2C Ni1 1_555 1_555
O2B Ni1C 1_555 1_555
N1C Ni1C 1_555 1_555
H1C N1C 1_555 1_555
N2E C4E 1_555 1_555
N2C Ni1C 1_555 1_555
N3B C10B 1_555 1_555
N3C Ni1C 1_555 1_555
C1C O2C 1_555 1_555
C2C N1C 1_555 1_555
H2C C2C 1_555 1_555
C3C C2C 1_555 1_555
H3C C3C 1_555 1_555
H4C C3C 1_555 1_555
H5C C3C 1_555 1_555
C4E H6E 1_555 1_555
C5E C4E 1_555 1_555
H7E C5E 1_555 1_555
C6E C5E 1_555 1_555
C7E C6E 1_555 1_555
H8E C7E 1_555 1_555
C8E N2E 1_555 1_555
H9E C8E 1_555 1_555
C9E C9 1_555 1_555
H10E C9E 1_555 1_555
C10B H11B 1_555 1_555
C11B C10B 1_555 1_555
H12B C11B 1_555 1_555
C12B C11B 1_555 1_555
C13B C12B 1_555 1_555
H13B C13B 1_555 1_555
C14B N3B 1_555 1_555
H14B C14B 1_555 1_555
H15B C15B 1_555 1_555
C15B C15 1_555 1_555
H22E O6 1_555 1_555
H37B O13 1_555 1_555
H41B O15 1_555 1_555
H42B O16 1_555 1_555
C7 C8 1_555 1_555
C13 C14 1_555 1_555
C1C C2C 1_555 1_555
C6E C9E 1_555 1_555
C7E C8E 1_555 1_555
C12B C15B 1_555 1_555
C13B C14B 1_555 1_555

#END
