
#######################################################################
#
#                 Cambridge Crystallographic Data Centre
#                                CCDC 
#
#######################################################################
#
# If this CIF has been generated from an entry in the Cambridge 
# Structural Database, then it will include bibliographic, chemical, 
# crystal, experimental, refinement or atomic coordinate data resulting 
# from the CCDC's data processing and validation procedures.
#
#######################################################################

data_AVENIZ
_symmetry_cell_setting           orthorhombic
_symmetry_space_group_name_H-M   'P b c a'
_symmetry_Int_Tables_number      61
_space_group_name_Hall           '-P 2ac 2ab'
loop_
_symmetry_equiv_pos_site_id
_symmetry_equiv_pos_as_xyz
1 x,y,z
2 1/2-x,-y,1/2+z
3 -x,1/2+y,1/2-z
4 1/2+x,1/2-y,-z
5 -x,-y,-z
6 1/2+x,y,1/2-z
7 x,1/2-y,1/2+z
8 1/2-x,1/2+y,z
_cell_length_a                   7.3847(17)
_cell_length_b                   15.339(4)
_cell_length_c                   23.110(5)
_cell_angle_alpha                90
_cell_angle_beta                 90
_cell_angle_gamma                90
_cell_volume                     2617.76
loop_
_atom_site_label
_atom_site_type_symbol
_atom_site_fract_x
_atom_site_fract_y
_atom_site_fract_z
Co1 Co -0.50373(6) 0.19723(4) -0.22398(2)
O1 O -0.9053(4) 0.59293(19) -0.16525(12)
O2 O -0.7088(3) 0.62539(17) -0.23253(11)
O3 O -0.3158(3) 0.25521(19) -0.16769(12)
O4 O -0.0253(3) 0.2574(2) -0.19270(12)
O5 O -0.6732(4) 0.2992(2) -0.18781(17)
H1 H -0.642(6) 0.332(3) -0.1594(17)
H2 H -0.7886(14) 0.293(3) -0.187(2)
C1 C -0.7505(5) 0.5840(2) -0.18643(16)
C2 C -0.6153(5) 0.5256(2) -0.15872(16)
C3 C -0.4485(6) 0.5125(3) -0.1842(2)
H3 H -0.4238 0.5376 -0.2200
C4 C -0.3163(5) 0.4621(3) -0.1569(2)
H4 H -0.2044 0.4543 -0.1746
C5 C -0.3494(5) 0.4238(2) -0.10427(16)
C6 C -0.5214(5) 0.4334(3) -0.08009(17)
H5 H -0.5482 0.4059 -0.0452
C7 C -0.6532(5) 0.4833(3) -0.10729(16)
H6 H -0.7676 0.4884 -0.0908
C8 C -0.2039(5) 0.3752(3) -0.07404(16)
C9 C -0.1050(5) 0.3078(2) -0.09970(15)
C10 C -0.1535(5) 0.2710(2) -0.15817(16)
C11 C 0.0368(5) 0.2693(3) -0.06900(18)
H7 H 0.1029 0.2245 -0.0860
C12 C 0.0800(6) 0.2966(3) -0.01414(19)
H8 H 0.1755 0.2706 0.0056
C13 C -0.0175(6) 0.3626(3) 0.01190(19)
H9 H 0.0106 0.3808 0.0492
C14 C -0.1575(6) 0.4012(3) -0.01833(18)
H10 H -0.2227 0.4459 -0.0009
Co1B Co -0.49627(6) 0.69723(4) -0.27602(2)
Co1G Co -0.99627(6) 0.69723(4) -0.22398(2)
Co1E Co -0.00373(6) 0.19723(4) -0.27602(2)
O1G O -0.5947(4) 0.09293(19) -0.16525(12)
O2B O -0.2912(3) 0.12539(17) -0.26747(11)
O2G O -0.7912(3) 0.12539(17) -0.23253(11)
O4E O -0.5253(3) 0.2574(2) -0.30730(12)
loop_
_geom_bond_atom_site_label_1
_geom_bond_atom_site_label_2
_geom_bond_site_symmetry_1
_geom_bond_site_symmetry_2
Co1 O3 1_555 1_555
O1 C1 1_555 1_555
O2 C1 1_555 1_555
O3 C10 1_555 1_555
O4 C10 1_555 1_555
O5 Co1 1_555 1_555
H1 O5 1_555 1_555
H2 O5 1_555 1_555
C1 C2 1_555 1_555
C2 C3 1_555 1_555
C3 H3 1_555 1_555
C4 C3 1_555 1_555
H4 C4 1_555 1_555
C5 C4 1_555 1_555
C6 C5 1_555 1_555
H5 C6 1_555 1_555
C7 C2 1_555 1_555
H6 C7 1_555 1_555
C8 C5 1_555 1_555
C9 C8 1_555 1_555
C10 C9 1_555 1_555
C11 C9 1_555 1_555
H7 C11 1_555 1_555
C12 C11 1_555 1_555
H8 C12 1_555 1_555
C13 C12 1_555 1_555
H9 C13 1_555 1_555
C14 C8 1_555 1_555
H10 C14 1_555 1_555
Co1B O2 1_555 1_555
Co1G O1 1_555 1_555
Co1E O4 1_555 1_555
O1G Co1 1_555 1_555
O2B Co1 1_555 1_555
O2G Co1 1_555 1_555
O4E Co1 1_555 1_555
O2 Co1G 1_555 1_555
C6 C7 1_555 1_555
C13 C14 1_555 1_555
Co1E O2B 1_555 1_555

#END
