
#######################################################################
#
#                 Cambridge Crystallographic Data Centre
#                                CCDC 
#
#######################################################################
#
# If this CIF has been generated from an entry in the Cambridge 
# Structural Database, then it will include bibliographic, chemical, 
# crystal, experimental, refinement or atomic coordinate data resulting 
# from the CCDC's data processing and validation procedures.
#
#######################################################################

data_AVENEV
_symmetry_cell_setting           orthorhombic
_symmetry_space_group_name_H-M   'C 2 2 21'
_symmetry_Int_Tables_number      20
_space_group_name_Hall           'C 2n 2'
loop_
_symmetry_equiv_pos_site_id
_symmetry_equiv_pos_as_xyz
1 x,y,z
2 -x,-y,1/2+z
3 -x,y,1/2-z
4 x,-y,-z
5 1/2+x,1/2+y,z
6 1/2-x,1/2-y,1/2+z
7 1/2-x,1/2+y,1/2-z
8 1/2+x,1/2-y,-z
_cell_length_a                   6.3985(9)
_cell_length_b                   19.848(3)
_cell_length_c                   21.634(3)
_cell_angle_alpha                90
_cell_angle_beta                 90
_cell_angle_gamma                90
_cell_volume                     2747.46
loop_
_atom_site_label
_atom_site_type_symbol
_atom_site_fract_x
_atom_site_fract_y
_atom_site_fract_z
Co1 Co 1.0000 0.769861(16) 0.7500
Co2 Co 0.5000 0.688111(17) 0.7500
Co3 Co 0.0000 0.337894(17) 0.7500
O1 O 0.6213(2) 0.68810(8) 0.83737(7)
O2 O 0.9644(3) 0.69670(7) 0.82020(7)
O3 O 0.1292(3) 0.39872(8) 0.80952(8)
O4 O 0.4362(3) 0.34616(9) 0.81410(9)
O5 O 0.6945(2) 0.76840(7) 0.71913(7)
H1 H 0.707(4) 0.7693(12) 0.6810(5)
O6 O 0.2875(3) 0.61353(9) 0.78116(8)
H2 H 0.327(4) 0.5830(11) 0.8051(10)
H3 H 0.185(3) 0.6343(13) 0.7963(11)
C1 C 0.8079(4) 0.68424(10) 0.85395(10)
C2 C 0.8466(3) 0.66634(11) 0.92060(10)
C3 C 0.9817(5) 0.70612(12) 0.95496(11)
H4 H 1.0600 0.7394 0.9354
C4 C 1.0008(6) 0.69669(12) 1.01817(11)
H5 H 1.0906 0.7238 1.0411
C5 C 0.8862(5) 0.64704(14) 1.04693(12)
H6 H 0.8968 0.6411 1.0895
C6 C 0.7556(4) 0.60604(13) 1.01278(11)
H7 H 0.6803 0.5723 1.0326
C7 C 0.7348(4) 0.61443(12) 0.94908(10)
C8 C 0.6142(4) 0.56354(12) 0.91381(10)
C9 C 0.7147(4) 0.52750(12) 0.86691(11)
H8 H 0.8481 0.5402 0.8545
C10 C 0.6189(4) 0.47347(12) 0.83887(11)
H9 H 0.6907 0.4489 0.8091
C11 C 0.4173(4) 0.45538(12) 0.85455(10)
C12 C 0.3114(4) 0.49268(12) 0.89911(11)
H10 H 0.1738 0.4820 0.9090
C13 C 0.4103(4) 0.54578(12) 0.92893(11)
H11 H 0.3394 0.5697 0.9593
C14 C 0.3216(4) 0.39526(11) 0.82395(10)
Co1D Co 0.5000 0.269861(16) 0.7500
Co1D_2 Co 1.5000 0.269861(16) 0.7500
Co2_2 Co 1.5000 0.688111(17) 0.7500
Co3D Co 0.5000 0.837894(17) 0.7500
Co3_2 Co 2.0000 0.337894(17) 0.7500
Co3D_2 Co 1.5000 0.837894(17) 0.7500
O1B O 1.3787(2) 0.68810(8) 0.66263(7)
O1B_2 O 0.3787(2) 0.68810(8) 0.66263(7)
O2B O 1.0356(3) 0.69670(7) 0.67980(7)
O3B O 1.8708(3) 0.39872(8) 0.69048(8)
O3B_2 O -0.1292(3) 0.39872(8) 0.69048(8)
O4B O 1.5638(3) 0.34616(9) 0.68590(9)
O4D O 0.9362(3) 0.84616(9) 0.81410(9)
O4F O 1.0638(3) 0.84616(9) 0.68590(9)
O5B O 1.3055(2) 0.76840(7) 0.78087(7)
O5B_2 O 0.3055(2) 0.76840(7) 0.78087(7)
O5D O 0.1945(2) 0.26840(7) 0.71913(7)
O5F O -0.1945(2) 0.26840(7) 0.78087(7)
H1B H 1.293(4) 0.7693(12) 0.8190(5)
H1B_2 H 0.293(4) 0.7693(12) 0.8190(5)
H1D H 0.207(4) 0.2693(12) 0.6810(5)
H1F H -0.207(4) 0.2693(12) 0.8190(5)
O6B O 0.7125(3) 0.61353(9) 0.71884(8)
H2B H 0.673(4) 0.5830(11) 0.6949(10)
H3B H 0.815(3) 0.6343(13) 0.7037(11)
C1B C 1.1921(4) 0.68424(10) 0.64605(10)
C2B C 1.1534(3) 0.66634(11) 0.57940(10)
C3B C 1.0183(5) 0.70612(12) 0.54504(11)
H4B H 0.9400 0.7394 0.5646
C4B C 0.9992(6) 0.69669(12) 0.48183(11)
H5B H 0.9094 0.7238 0.4589
C5B C 1.1138(5) 0.64704(14) 0.45307(12)
H6B H 1.1032 0.6411 0.4105
C6B C 1.2444(4) 0.60604(13) 0.48722(11)
H7B H 1.3197 0.5723 0.4674
C7B C 1.2652(4) 0.61443(12) 0.55092(10)
C8B C 1.3858(4) 0.56354(12) 0.58619(10)
C9B C 1.2853(4) 0.52750(12) 0.63309(11)
H8B H 1.1519 0.5402 0.6455
C10B C 1.3811(4) 0.47347(12) 0.66113(11)
H9B H 1.3093 0.4489 0.6909
C11B C 1.5827(4) 0.45538(12) 0.64545(10)
C12B C 1.6886(4) 0.49268(12) 0.60089(11)
H10B H 1.8262 0.4820 0.5910
C13B C 1.5897(4) 0.54578(12) 0.57107(11)
H11B H 1.6606 0.5697 0.5407
C14B C 1.6784(4) 0.39526(11) 0.67605(10)
loop_
_geom_bond_atom_site_label_1
_geom_bond_atom_site_label_2
_geom_bond_site_symmetry_1
_geom_bond_site_symmetry_2
Co1 O2 1_555 1_555
Co2 O1 1_555 1_555
Co3 O3 1_555 1_555
O1 C1 1_555 1_555
O2 C1 1_555 1_555
O3 C14 1_555 1_555
O4 C14 1_555 1_555
O5 Co1 1_555 1_555
H1 O5 1_555 1_555
O6 Co2 1_555 1_555
H2 O6 1_555 1_555
H3 O6 1_555 1_555
C1 C2 1_555 1_555
C2 C3 1_555 1_555
C3 H4 1_555 1_555
C4 C3 1_555 1_555
H5 C4 1_555 1_555
C5 C4 1_555 1_555
H6 C5 1_555 1_555
C6 C5 1_555 1_555
H7 C6 1_555 1_555
C7 C2 1_555 1_555
C8 C7 1_555 1_555
C9 C8 1_555 1_555
H8 C9 1_555 1_555
C10 C9 1_555 1_555
H9 C10 1_555 1_555
C11 C10 1_555 1_555
C12 C11 1_555 1_555
H10 C12 1_555 1_555
C13 C8 1_555 1_555
H11 C13 1_555 1_555
C14 C11 1_555 1_555
Co1D O4 1_555 1_555
Co1D_2 O4B 1_555 1_555
Co2_2 O1B 1_555 1_555
Co3D O5 1_555 1_555
Co3_2 O3B 1_555 1_555
Co3D_2 O5B 1_555 1_555
O1B C1B 1_555 1_555
O1B_2 Co2 1_555 1_555
O2B Co1 1_555 1_555
O3B C14B 1_555 1_555
O3B_2 Co3 1_555 1_555
O4B C14B 1_555 1_555
O4D Co1 1_555 1_555
O4F Co1 1_555 1_555
O5B Co1 1_555 1_555
O5B_2 Co2 1_555 1_555
O5D Co3 1_555 1_555
O5F Co3 1_555 1_555
H1B O5B 1_555 1_555
H1B_2 O5B_2 1_555 1_555
H1D O5D 1_555 1_555
H1F O5F 1_555 1_555
O6B Co2 1_555 1_555
H2B O6B 1_555 1_555
H3B O6B 1_555 1_555
C1B O2B 1_555 1_555
C2B C1B 1_555 1_555
C3B C2B 1_555 1_555
H4B C3B 1_555 1_555
C4B C3B 1_555 1_555
H5B C4B 1_555 1_555
C5B C4B 1_555 1_555
H6B C5B 1_555 1_555
C6B C5B 1_555 1_555
H7B C6B 1_555 1_555
C7B C2B 1_555 1_555
C8B C7B 1_555 1_555
C9B C8B 1_555 1_555
H8B C9B 1_555 1_555
C10B C9B 1_555 1_555
H9B C10B 1_555 1_555
C11B C10B 1_555 1_555
C12B C11B 1_555 1_555
H10B C12B 1_555 1_555
C13B C8B 1_555 1_555
H11B C13B 1_555 1_555
C14B C11B 1_555 1_555
Co2 O5 1_555 1_555
C6 C7 1_555 1_555
C12 C13 1_555 1_555
Co1D O5D 1_555 1_555
Co2_2 O5B 1_555 1_555
Co3D O5B_2 1_555 1_555
C6B C7B 1_555 1_555
C12B C13B 1_555 1_555

#END
