
#######################################################################
#
#                 Cambridge Crystallographic Data Centre
#                                CCDC 
#
#######################################################################
#
# If this CIF has been generated from an entry in the Cambridge 
# Structural Database, then it will include bibliographic, chemical, 
# crystal, experimental, refinement or atomic coordinate data resulting 
# from the CCDC's data processing and validation procedures.
#
#######################################################################

data_AVENAR
_symmetry_cell_setting           orthorhombic
_symmetry_space_group_name_H-M   'P 21 21 2'
_symmetry_Int_Tables_number      18
_space_group_name_Hall           'P 2 2ab'
loop_
_symmetry_equiv_pos_site_id
_symmetry_equiv_pos_as_xyz
1 x,y,z
2 -x,-y,z
3 1/2-x,1/2+y,-z
4 1/2+x,1/2-y,-z
_cell_length_a                   24.058(6)
_cell_length_b                   6.8774(16)
_cell_length_c                   7.7918(18)
_cell_angle_alpha                90
_cell_angle_beta                 90
_cell_angle_gamma                90
_cell_volume                     1289.2
loop_
_atom_site_label
_atom_site_type_symbol
_atom_site_fract_x
_atom_site_fract_y
_atom_site_fract_z
Co1 Co 0.5000 1.5000 0.10627(7)
Co2 Co 0.5000 1.0000 -0.02513(7)
O1 O 0.47292(9) 1.2075(3) 0.1582(3)
O2 O 0.43812(10) 1.4527(3) 0.2969(3)
O3 O 0.42284(9) 0.8632(3) 0.9518(3)
O4 O 0.44007(9) 0.5442(3) 0.9300(3)
O5 O 0.46934(11) 1.1847(4) -0.2180(4)
H1 H 0.4639(15) 1.299(3) -0.181(5)
H2 H 0.4449(12) 1.143(5) -0.284(5)
C1 C 0.44055(13) 1.2744(5) 0.2753(5)
C2 C 0.40904(13) 1.1403(5) 0.3896(5)
C3 C 0.36918(14) 1.2130(5) 0.4999(5)
H3 H 0.3608 1.3450 0.4984
C4 C 0.34153(14) 1.0906(5) 0.6130(5)
H4 H 0.3143 1.1402 0.6855
C5 C 0.35456(14) 0.8940(5) 0.6177(5)
C6 C 0.39508(15) 0.8240(5) 0.5099(5)
H5 H 0.4047 0.6931 0.5145
C7 C 0.42152(15) 0.9436(5) 0.3958(5)
H6 H 0.4481 0.8926 0.3217
C8 C 0.32380(13) 0.7541(4) 0.7308(5)
C9 C 0.26906(14) 0.7113(6) 0.6909(5)
H7 H 0.2514 0.7783 0.6028
C10 C 0.24037(14) 0.5695(6) 0.7809(5)
H8 H 0.2035 0.5426 0.7534
C11 C 0.26615(14) 0.4689(6) 0.9103(5)
H9 H 0.2469 0.3740 0.9711
C12 C 0.32107(12) 0.5095(6) 0.9500(4)
H10 H 0.3388 0.4398 1.0364
C13 C 0.34994(12) 0.6530(5) 0.8622(4)
C14 C 0.40898(13) 0.6921(5) 0.9167(4)
Co1_2 Co 0.5000 0.5000 1.10627(7)
Co1_3 Co 0.5000 2.5000 -0.89373(7)
Co2_2 Co 0.5000 1.0000 0.97487(7)
Co2_3 Co 0.5000 2.0000 -1.02513(7)
Co2_4 Co 0.5000 2.0000 -0.02513(7)
O1_2 O 0.47292(9) 2.2075(3) -0.8418(3)
O1A O 0.52708(9) 1.7925(3) 0.1582(3)
O1A_2 O 0.52708(9) 0.7925(3) 0.1582(3)
O2_2 O 0.43812(10) 2.4527(3) -0.7031(3)
O2A O 0.56188(10) 1.5473(3) 0.2969(3)
O3_2 O 0.42284(9) 1.8632(3) -0.0482(3)
O3_3 O 0.42284(9) 0.8632(3) -0.0482(3)
O3A O 0.57716(9) 1.1368(3) -0.0482(3)
O4_2 O 0.44007(9) 1.5442(3) -0.0700(3)
O4A O 0.55993(9) 1.4558(3) -0.0700(3)
O5A O 0.53066(11) 0.8153(4) -0.2180(4)
H1A H 0.5361(15) 0.701(3) -0.181(5)
H2A H 0.5551(12) 0.857(5) -0.284(5)
C1_2 C 0.44055(13) 2.2744(5) -0.7247(5)
C2_2 C 0.40904(13) 2.1403(5) -0.6104(5)
C3_2 C 0.36918(14) 2.2130(5) -0.5001(5)
H3_2 H 0.3608 2.3450 -0.5016
C4_2 C 0.34153(14) 2.0906(5) -0.3870(5)
H4_2 H 0.3143 2.1402 -0.3145
C5_2 C 0.35456(14) 1.8940(5) -0.3823(5)
C6_2 C 0.39508(15) 1.8240(5) -0.4901(5)
H5_2 H 0.4047 1.6931 -0.4855
C7_2 C 0.42152(15) 1.9436(5) -0.6042(5)
H6_2 H 0.4481 1.8926 -0.6783
C8_2 C 0.32380(13) 1.7541(4) -0.2692(5)
C9_2 C 0.26906(14) 1.7113(6) -0.3091(5)
H7_2 H 0.2514 1.7783 -0.3972
C10_2 C 0.24037(14) 1.5695(6) -0.2191(5)
H8_2 H 0.2035 1.5426 -0.2466
C11_2 C 0.26615(14) 1.4689(6) -0.0897(5)
H9_2 H 0.2469 1.3740 -0.0289
C12_2 C 0.32107(12) 1.5095(6) -0.0500(4)
H10_2 H 0.3388 1.4398 0.0364
C13_2 C 0.34994(12) 1.6530(5) -0.1378(4)
C14_2 C 0.40898(13) 1.6921(5) -0.0833(4)
loop_
_geom_bond_atom_site_label_1
_geom_bond_atom_site_label_2
_geom_bond_site_symmetry_1
_geom_bond_site_symmetry_2
Co1 O1 1_555 1_555
Co2 O1 1_555 1_555
O1 C1 1_555 1_555
O2 Co1 1_555 1_555
O3 C14 1_555 1_555
O4 C14 1_555 1_555
O5 Co2 1_555 1_555
H1 O5 1_555 1_555
H2 O5 1_555 1_555
C1 O2 1_555 1_555
C2 C1 1_555 1_555
C3 C2 1_555 1_555
H3 C3 1_555 1_555
C4 C3 1_555 1_555
H4 C4 1_555 1_555
C5 C4 1_555 1_555
C6 C5 1_555 1_555
H5 C6 1_555 1_555
C7 C2 1_555 1_555
H6 C7 1_555 1_555
C8 C5 1_555 1_555
C9 C8 1_555 1_555
H7 C9 1_555 1_555
C10 C9 1_555 1_555
H8 C10 1_555 1_555
C11 C10 1_555 1_555
H9 C11 1_555 1_555
C12 C11 1_555 1_555
H10 C12 1_555 1_555
C13 C8 1_555 1_555
C14 C13 1_555 1_555
Co1_2 O4 1_555 1_555
Co1_3 O1_2 1_555 1_555
Co2_2 O3 1_555 1_555
Co2_3 O1_2 1_555 1_555
Co2_4 O1A 1_555 1_555
O1_2 C1_2 1_555 1_555
O1A Co1 1_555 1_555
O1A_2 Co2 1_555 1_555
O2_2 Co1_3 1_555 1_555
O2A Co1 1_555 1_555
O3_2 Co2_4 1_555 1_555
O3_3 Co2 1_555 1_555
O3A Co2 1_555 1_555
O4_2 Co1 1_555 1_555
O4A Co1 1_555 1_555
O5A Co2 1_555 1_555
H1A O5A 1_555 1_555
H2A O5A 1_555 1_555
C1_2 O2_2 1_555 1_555
C2_2 C1_2 1_555 1_555
C3_2 C2_2 1_555 1_555
H3_2 C3_2 1_555 1_555
C4_2 C3_2 1_555 1_555
H4_2 C4_2 1_555 1_555
C5_2 C4_2 1_555 1_555
C6_2 C5_2 1_555 1_555
H5_2 C6_2 1_555 1_555
C7_2 C2_2 1_555 1_555
H6_2 C7_2 1_555 1_555
C8_2 C5_2 1_555 1_555
C9_2 C8_2 1_555 1_555
H7_2 C9_2 1_555 1_555
C10_2 C9_2 1_555 1_555
H8_2 C10_2 1_555 1_555
C11_2 C10_2 1_555 1_555
H9_2 C11_2 1_555 1_555
C12_2 C11_2 1_555 1_555
H10_2 C12_2 1_555 1_555
C13_2 C8_2 1_555 1_555
C14_2 O3_2 1_555 1_555
C6 C7 1_555 1_555
C12 C13 1_555 1_555
O4_2 C14_2 1_555 1_555
C6_2 C7_2 1_555 1_555
C12_2 C13_2 1_555 1_555
C13_2 C14_2 1_555 1_555

#END
