
#######################################################################
#
#                 Cambridge Crystallographic Data Centre
#                                CCDC 
#
#######################################################################
#
# If this CIF has been generated from an entry in the Cambridge 
# Structural Database, then it will include bibliographic, chemical, 
# crystal, experimental, refinement or atomic coordinate data resulting 
# from the CCDC's data processing and validation procedures.
#
#######################################################################

data_AVESEA
_symmetry_cell_setting           orthorhombic
_symmetry_space_group_name_H-M   'P n m a'
_symmetry_Int_Tables_number      62
_space_group_name_Hall           '-P 2ac 2n'
loop_
_symmetry_equiv_pos_site_id
_symmetry_equiv_pos_as_xyz
1 x,y,z
2 1/2-x,-y,1/2+z
3 -x,1/2+y,-z
4 1/2+x,1/2-y,1/2-z
5 -x,-y,-z
6 1/2+x,y,1/2-z
7 x,1/2-y,z
8 1/2-x,1/2+y,1/2+z
_cell_length_a                   16.9117(5)
_cell_length_b                   8.3292(3)
_cell_length_c                   13.0995(4)
_cell_angle_alpha                90
_cell_angle_beta                 90
_cell_angle_gamma                90
_cell_volume                     1845.21
loop_
_atom_site_label
_atom_site_type_symbol
_atom_site_fract_x
_atom_site_fract_y
_atom_site_fract_z
Cd1 Cd 0.252970(10) 0.997834(19) 0.560881(16)
Cd2 Cd 0.061874(15) 1.2500 0.683033(19)
Cl1 Cl 0.34560(5) 0.7500 0.60296(8)
Cl2 Cl 0.15566(5) 1.2500 0.51956(7)
N1 N 0.20378(14) 1.0002(3) 0.72561(18)
N2 N 0.13156(13) 1.0533(3) 0.75964(17)
N3 N 0.20308(15) 0.9857(3) 0.89489(18)
N4 N -0.04099(19) 1.2500 0.5768(3)
N5 N -0.14940(12) 1.3320(3) 0.49655(17)
N6 N -0.14509(12) 1.1680(3) 0.88535(17)
N7 N -0.0336(2) 1.2500 0.8140(2)
C1 C 0.13415(17) 1.0414(4) 0.8600(2)
H1 H 0.0921 1.0691 0.9023
C2 C 0.24351(17) 0.9622(5) 0.8087(2)
H2 H 0.2949 0.9227 0.8074
C3 C -0.08427(16) 1.3753(4) 0.5449(2)
H3 H -0.0699 1.4818 0.5557
C4 C -0.07761(16) 1.1252(4) 0.8419(2)
H4 H -0.0626 1.0190 0.8319
Cd1F Cd 0.252970(10) 1.502166(19) 0.560881(16)
Cd1F_2 Cd 0.252970(10) 0.502166(19) 0.560881(16)
Cd1A Cd 0.247030(10) 1.002166(19) 1.060881(16)
Cd1B Cd -0.252970(10) 1.497834(19) 0.439119(16)
Cd1E Cd -0.247030(10) 0.997834(19) 0.939119(16)
Cd1D Cd -0.252970(10) 1.002166(19) 0.439119(16)
Cd1C Cd -0.247030(10) 1.502166(19) 0.939119(16)
Cd1G Cd 0.247030(10) 1.497834(19) 1.060881(16)
Cl1_2 Cl 0.34560(5) 1.7500 0.60296(8)
N1F N 0.20378(14) 1.4998(3) 0.72561(18)
N2F N 0.13156(13) 1.4467(3) 0.75964(17)
N3F N 0.20308(15) 1.5143(3) 0.89489(18)
N3A N 0.29692(15) 1.0143(3) 0.39489(18)
N3G N 0.29692(15) 1.4857(3) 0.39489(18)
N5F N -0.14940(12) 1.1680(3) 0.49655(17)
N5B N 0.14940(12) 0.8320(3) 0.50345(17)
N5D N 0.14940(12) 1.6680(3) 0.50345(17)
N6F N -0.14509(12) 1.3320(3) 0.88535(17)
N6E N 0.35491(12) 1.1680(3) 0.61465(17)
N6C N 0.35491(12) 1.3320(3) 0.61465(17)
C1F C 0.13415(17) 1.4586(4) 0.8600(2)
H1F H 0.0921 1.4309 0.9023
C2F C 0.24351(17) 1.5378(5) 0.8087(2)
H2F H 0.2949 1.5773 0.8074
C3F C -0.08427(16) 1.1247(4) 0.5449(2)
H3F H -0.0699 1.0182 0.5557
C4F C -0.07761(16) 1.3748(4) 0.8419(2)
H4F H -0.0626 1.4810 0.8319
O1 O 0.482(3) 0.7500 0.801(3)
H5? H 0.4611 0.7785 0.8570
H6? H 0.5210 0.8124 0.7881
H7? H 0.5172 0.6539 0.8016
H8? H 0.4915 0.8013 0.7679
O2? O 0.508(3) 0.7500 0.820(4)
loop_
_geom_bond_atom_site_label_1
_geom_bond_atom_site_label_2
_geom_bond_site_symmetry_1
_geom_bond_site_symmetry_2
Cd1 Cl1 1_555 1_555
Cd2 Cl2 1_555 1_555
Cl1 Cd1F_2 1_555 1_555
Cl2 Cd1 1_555 1_555
N1 Cd1 1_555 1_555
N2 Cd2 1_555 1_555
N3 C1 1_555 1_555
N4 Cd2 1_555 1_555
N5 C3 1_555 1_555
N6 C4 1_555 1_555
N7 Cd2 1_555 1_555
C1 N2 1_555 1_555
H1 C1 1_555 1_555
C2 N1 1_555 1_555
H2 C2 1_555 1_555
C3 N4 1_555 1_555
H3 C3 1_555 1_555
C4 N7 1_555 1_555
H4 C4 1_555 1_555
Cd1F Cl2 1_555 1_555
Cd1A N3 1_555 1_555
Cd1B N5 1_555 1_555
Cd1E N6 1_555 1_555
Cd1D N5F 1_555 1_555
Cd1C N6F 1_555 1_555
Cd1G N3F 1_555 1_555
Cl1_2 Cd1F 1_555 1_555
N1F Cd1F 1_555 1_555
N2F Cd2 1_555 1_555
N3F C1F 1_555 1_555
N3A Cd1 1_555 1_555
N3G Cd1F 1_555 1_555
N5F N5 1_555 1_555
N5B Cd1 1_555 1_555
N5D Cd1F 1_555 1_555
N6F N6 1_555 1_555
N6E Cd1 1_555 1_555
N6C Cd1F 1_555 1_555
C1F N2F 1_555 1_555
H1F C1F 1_555 1_555
C2F N1F 1_555 1_555
H2F C2F 1_555 1_555
C3F N4 1_555 1_555
H3F C3F 1_555 1_555
C4F N7 1_555 1_555
H4F C4F 1_555 1_555
N1 N2 1_555 1_555
N3 C2 1_555 1_555
N1F N2F 1_555 1_555
N3F C2F 1_555 1_555
N5F C3F 1_555 1_555
N6F C4F 1_555 1_555
N6E N6C 1_555 1_555

#END
