
#######################################################################
#
#                 Cambridge Crystallographic Data Centre
#                                CCDC 
#
#######################################################################
#
# If this CIF has been generated from an entry in the Cambridge 
# Structural Database, then it will include bibliographic, chemical, 
# crystal, experimental, refinement or atomic coordinate data resulting 
# from the CCDC's data processing and validation procedures.
#
#######################################################################

data_AVILAT
_symmetry_cell_setting           monoclinic
_symmetry_space_group_name_H-M   'C 2/c'
_symmetry_Int_Tables_number      15
_space_group_name_Hall           '-C 2yn'
loop_
_symmetry_equiv_pos_site_id
_symmetry_equiv_pos_as_xyz
1 x,y,z
2 1/2+x,1/2+y,z
3 -x,y,1/2-z
4 1/2-x,1/2+y,1/2-z
5 -x,-y,-z
6 1/2-x,1/2-y,-z
7 x,-y,1/2+z
8 1/2+x,1/2-y,1/2+z
_cell_length_a                   20.159(3)
_cell_length_b                   18.840(3)
_cell_length_c                   21.336(3)
_cell_angle_alpha                90
_cell_angle_beta                 92.694(3)
_cell_angle_gamma                90
_cell_volume                     8094.36
loop_
_atom_site_label
_atom_site_type_symbol
_atom_site_fract_x
_atom_site_fract_y
_atom_site_fract_z
C1 C 0.04507(16) 0.88618(17) 0.82842(16)
C2 C 0.07251(16) 0.82893(16) 0.78844(15)
C3 C 0.10269(16) 0.84599(17) 0.73380(16)
H1 H 0.1045 0.8931 0.7210
C4 C 0.13045(16) 0.79337(17) 0.69761(16)
H2 H 0.1501 0.8056 0.6605
C5 C 0.12922(16) 0.72286(17) 0.71621(15)
C6 C 0.09636(17) 0.70619(17) 0.76982(16)
H3 H 0.0935 0.6590 0.7822
C7 C 0.06780(17) 0.75794(17) 0.80526(16)
H4 H 0.0453 0.7453 0.8406
C8 C 0.16736(17) 0.66381(17) 0.68191(16)
C9 C 0.20201(19) 0.6926(2) 0.62445(17)
C10 C 0.11606(19) 0.60680(19) 0.65904(18)
C11 C 0.22320(16) 0.63261(17) 0.72682(16)
C12 C 0.24584(18) 0.67206(19) 0.77825(18)
H5 H 0.2257 0.7152 0.7868
C13 C 0.29787(18) 0.6482(2) 0.81697(18)
H6 H 0.3112 0.6746 0.8522
C14 C 0.33066(16) 0.58555(17) 0.80412(16)
C15 C 0.30879(17) 0.54666(17) 0.75241(16)
H7 H 0.3304 0.5046 0.7430
C16 C 0.25516(17) 0.56903(18) 0.71416(16)
H8 H 0.2406 0.5415 0.6800
C17 C 0.38881(16) 0.56483(18) 0.84694(16)
C18 C -0.06100(16) 1.13340(17) 0.64969(17)
C19 C -0.08426(15) 1.20908(17) 0.64090(15)
C20 C -0.07457(18) 1.25724(18) 0.68913(17)
H9 H -0.0593 1.2413 0.7285
C21 C -0.08720(18) 1.32956(18) 0.68007(17)
H10 H -0.0784 1.3614 0.7127
C22 C -0.11291(16) 1.35402(17) 0.62231(16)
C23 C -0.12612(16) 1.30449(17) 0.57451(16)
H11 H -0.1451 1.3195 0.5362
C24 C -0.11115(16) 1.23321(17) 0.58368(16)
H12 H -0.1192 1.2012 0.5510
C25 C -0.12474(17) 1.43328(17) 0.60667(17)
C26 C -0.1218(2) 1.48073(19) 0.6657(2)
C27 C -0.06776(18) 1.4568(2) 0.5658(2)
C28 C -0.24822(17) 1.41356(18) 0.60245(17)
H13 H -0.2411 1.3838 0.6369
C29 C -0.19410(16) 1.44499(16) 0.57487(16)
C30 C -0.20621(17) 1.48689(18) 0.52235(17)
H14 H -0.1707 1.5073 0.5026
C31 C -0.27057(16) 1.49895(18) 0.49868(17)
H15 H -0.2777 1.5272 0.4632
C32 C -0.32416(16) 1.46947(17) 0.52724(15)
C33 C -0.31202(17) 1.42606(17) 0.57921(17)
H16 H -0.3475 1.4052 0.5986
C34 C -0.39409(17) 1.48504(17) 0.50425(16)
O1 O 0.01799(11) 0.87161(12) 0.87802(11)
O2 O 0.05155(11) 0.95085(11) 0.81087(10)
O3 O 0.43033(11) 0.51811(11) 0.82706(10)
O4 O -0.40304(11) 1.52696(11) 0.45851(10)
O5 O -0.44073(11) 1.45438(11) 0.53204(10)
O6 O -0.04762(11) 1.09948(12) 0.60136(11)
O7 O -0.05472(12) 1.11114(12) 0.70510(11)
O8 O 0.39501(12) 0.59170(12) 0.89953(11)
Mn1 Mn 0.00703(2) 0.99376(2) 0.90305(2)
Mn2 Mn 0.0000 1.02824(4) 0.7500
F1 F 0.24564(10) 0.74307(11) 0.64086(10)
F2 F 0.23607(12) 0.64286(12) 0.59454(10)
F3 F 0.15915(12) 0.72073(11) 0.58091(10)
F4 F 0.13979(11) 0.56003(11) 0.61843(10)
F5 F 0.06301(10) 0.63683(11) 0.62990(11)
F6 F 0.09415(11) 0.56909(11) 0.70650(10)
F7 F -0.07218(10) 1.42674(11) 0.50891(11)
F8 F -0.06559(10) 1.52722(11) 0.55672(12)
F9 F -0.00844(10) 1.43837(12) 0.59127(11)
F10 F -0.14222(12) 1.54693(11) 0.65299(11)
F11 F -0.16154(11) 1.45593(11) 0.70971(10)
F12 F -0.06059(11) 1.48579(11) 0.69291(11)
C1A C -0.45493(16) 1.38618(17) 0.82842(16)
C2A C -0.42749(16) 1.32893(16) 0.78844(15)
C3A C -0.39731(16) 1.34599(17) 0.73380(16)
H1A H -0.3955 1.3931 0.7210
C4A C -0.36955(16) 1.29337(17) 0.69761(16)
H2A H -0.3499 1.3056 0.6605
C5A C -0.37078(16) 1.22286(17) 0.71621(15)
C6A C -0.40364(17) 1.20619(17) 0.76982(16)
H3A H -0.4065 1.1590 0.7822
C7A C -0.43220(17) 1.25794(17) 0.80526(16)
H4A H -0.4547 1.2453 0.8406
C8A C -0.33264(17) 1.16381(17) 0.68191(16)
C9A C -0.29799(19) 1.1926(2) 0.62445(17)
C10A C -0.38394(19) 1.10680(19) 0.65904(18)
C11A C -0.27680(16) 1.13261(17) 0.72682(16)
C12A C -0.25416(18) 1.17206(19) 0.77825(18)
H5A H -0.2743 1.2152 0.7868
C13A C -0.20213(18) 1.1482(2) 0.81697(18)
H6A H -0.1888 1.1746 0.8522
C14A C -0.16934(16) 1.08555(17) 0.80412(16)
C15A C -0.19121(17) 1.04666(17) 0.75241(16)
H7A H -0.1696 1.0046 0.7430
C16A C -0.24484(17) 1.06903(18) 0.71416(16)
H8A H -0.2594 1.0415 0.6800
C17A C -0.11119(16) 1.06483(18) 0.84694(16)
C18B C 0.06100(16) 1.13340(17) 0.85031(17)
C19B C 0.08426(15) 1.20908(17) 0.85910(15)
C20B C 0.07457(18) 1.25724(18) 0.81087(17)
H9B H 0.0593 1.2413 0.7715
C21B C 0.08720(18) 1.32956(18) 0.81993(17)
H10B H 0.0784 1.3614 0.7873
C22B C 0.11291(16) 1.35402(17) 0.87769(16)
C23B C 0.12612(16) 1.30449(17) 0.92549(16)
H11B H 0.1451 1.3195 0.9638
C24B C 0.11115(16) 1.23321(17) 0.91632(16)
H12B H 0.1192 1.2012 0.9490
C25B C 0.12474(17) 1.43328(17) 0.89333(17)
C26B C 0.1218(2) 1.48073(19) 0.8343(2)
C27B C 0.06776(18) 1.4568(2) 0.9342(2)
C28B C 0.24822(17) 1.41356(18) 0.89755(17)
H13B H 0.2411 1.3838 0.8631
C29B C 0.19410(16) 1.44499(16) 0.92513(16)
C30B C 0.20621(17) 1.48689(18) 0.97765(17)
H14B H 0.1707 1.5073 0.9974
C31B C 0.27057(16) 1.49895(18) 1.00132(17)
H15B H 0.2777 1.5272 1.0368
C32B C 0.32416(16) 1.46947(17) 0.97276(15)
C33B C 0.31202(17) 1.42606(17) 0.92079(17)
H16B H 0.3475 1.4052 0.9014
C34B C 0.39409(17) 1.48504(17) 0.99575(16)
O1A O -0.48201(11) 1.37161(12) 0.87802(11)
O2A O -0.44845(11) 1.45085(11) 0.81087(10)
O2B O -0.05155(11) 0.95085(11) 0.68913(10)
O3A O -0.06967(11) 1.01811(11) 0.82706(10)
O3C O 0.06967(11) 1.01811(11) 0.67294(10)
O3_2 O -0.56967(11) 1.51811(11) 0.82706(10)
O4B O 0.40304(11) 1.52696(11) 1.04149(10)
O4G O 0.09696(11) 0.97304(11) 0.95851(10)
O4F O -0.40304(11) 1.47304(11) 0.95851(10)
O5B O 0.44073(11) 1.45438(11) 0.96796(10)
O5C O -0.05927(11) 0.95438(11) 0.96796(10)
O5B_2 O -0.55927(11) 1.45438(11) 0.96796(10)
O6B O 0.04762(11) 1.09948(12) 0.89864(11)
O6C O -0.45238(11) 1.59948(12) 0.89864(11)
O7B O 0.05472(12) 1.11114(12) 0.79490(11)
O8A O -0.10499(12) 1.09170(12) 0.89953(11)
Mn1A Mn -0.49297(2) 1.49376(2) 0.90305(2)
Mn1A_2 Mn 0.50703(2) 0.49376(2) 0.90305(2)
Mn1G Mn -0.49297(2) 1.50624(2) 0.40305(2)
Mn1C Mn -0.50703(2) 1.49376(2) 0.59695(2)
Mn1B Mn -0.00703(2) 0.99376(2) 0.59695(2)
Mn1E Mn 0.49297(2) 1.50624(2) 1.09695(2)
Mn1A_3 Mn 0.50703(2) 1.49376(2) 0.90305(2)
Mn2A Mn 0.5000 0.52824(4) 0.7500
Mn2A_2 Mn -0.5000 1.52824(4) 0.7500
F1A F -0.25436(10) 1.24307(11) 0.64086(10)
F2A F -0.26393(12) 1.14286(12) 0.59454(10)
F3A F -0.34085(12) 1.22073(11) 0.58091(10)
F4A F -0.36021(11) 1.06003(11) 0.61843(10)
F5A F -0.43699(10) 1.13683(11) 0.62990(11)
F6A F -0.40585(11) 1.06909(11) 0.70650(10)
F7B F 0.07218(10) 1.42674(11) 0.99109(11)
F8B F 0.06559(10) 1.52722(11) 0.94328(12)
F9B F 0.00844(10) 1.43837(12) 0.90873(11)
F10B F 0.14222(12) 1.54693(11) 0.84701(11)
F11B F 0.16154(11) 1.45593(11) 0.79029(10)
F12B F 0.06059(11) 1.48579(11) 0.80709(11)
N1 N 0.46660(14) 0.66596(14) 0.99313(13)
H17 H 0.4694 0.6476 1.0316
H18 H 0.5072 0.6707 0.9789
H19 H 0.4427 0.6373 0.9678
C35 C 0.43372(18) 0.73733(18) 0.99504(18)
H20 H 0.4610 0.7687 1.0223
C36 C 0.36684(19) 0.7284(2) 1.0229(2)
H21 H 0.3729 0.7116 1.0657
H22 H 0.3413 0.6931 0.9991
C37 C 0.3289(2) 0.7984(2) 1.0221(3)
H23 H 0.2853 0.7909 1.0385
H24 H 0.3525 0.8324 1.0490
C38 C 0.3213(2) 0.8277(2) 0.9563(3)
H25 H 0.2954 0.7950 0.9299
H26 H 0.2976 0.8726 0.9569
C39 C 0.3885(2) 0.8388(2) 0.9295(3)
H27 H 0.4130 0.8742 0.9542
H28 H 0.3827 0.8564 0.8869
C40 C 0.4283(2) 0.76907(19) 0.9297(2)
H29 H 0.4066 0.7355 0.9010
H30 H 0.4725 0.7782 0.9153
loop_
_geom_bond_atom_site_label_1
_geom_bond_atom_site_label_2
_geom_bond_site_symmetry_1
_geom_bond_site_symmetry_2
C1 C2 1_555 1_555
C2 C3 1_555 1_555
C3 H1 1_555 1_555
C4 C3 1_555 1_555
H2 C4 1_555 1_555
C5 C4 1_555 1_555
C6 C5 1_555 1_555
H3 C6 1_555 1_555
C7 C2 1_555 1_555
H4 C7 1_555 1_555
C8 C5 1_555 1_555
C9 C8 1_555 1_555
C10 C8 1_555 1_555
C11 C8 1_555 1_555
C12 C11 1_555 1_555
H5 C12 1_555 1_555
C13 C12 1_555 1_555
H6 C13 1_555 1_555
C14 C13 1_555 1_555
C15 C14 1_555 1_555
H7 C15 1_555 1_555
C16 C11 1_555 1_555
H8 C16 1_555 1_555
C17 C14 1_555 1_555
C18 C19 1_555 1_555
C19 C20 1_555 1_555
C20 H9 1_555 1_555
C21 C20 1_555 1_555
H10 C21 1_555 1_555
C22 C21 1_555 1_555
C23 C22 1_555 1_555
H11 C23 1_555 1_555
C24 C19 1_555 1_555
H12 C24 1_555 1_555
C25 C22 1_555 1_555
C26 C25 1_555 1_555
C27 C25 1_555 1_555
C28 H13 1_555 1_555
C29 C25 1_555 1_555
C30 C29 1_555 1_555
H14 C30 1_555 1_555
C31 C30 1_555 1_555
H15 C31 1_555 1_555
C32 C31 1_555 1_555
C33 C28 1_555 1_555
H16 C33 1_555 1_555
C34 C32 1_555 1_555
O1 C1 1_555 1_555
O2 C1 1_555 1_555
O3 C17 1_555 1_555
O4 C34 1_555 1_555
O5 C34 1_555 1_555
O6 C18 1_555 1_555
O7 C18 1_555 1_555
O8 C17 1_555 1_555
Mn1 O1 1_555 1_555
Mn2 O2 1_555 1_555
F1 C9 1_555 1_555
F2 C9 1_555 1_555
F3 C9 1_555 1_555
F4 C10 1_555 1_555
F5 C10 1_555 1_555
F6 C10 1_555 1_555
F7 C27 1_555 1_555
F8 C27 1_555 1_555
F9 C27 1_555 1_555
F10 C26 1_555 1_555
F11 C26 1_555 1_555
F12 C26 1_555 1_555
N1 H17 1_555 1_555
H18 N1 1_555 1_555
H19 N1 1_555 1_555
C35 N1 1_555 1_555
H20 C35 1_555 1_555
C36 C35 1_555 1_555
H21 C36 1_555 1_555
H22 C36 1_555 1_555
C37 C36 1_555 1_555
H23 C37 1_555 1_555
H24 C37 1_555 1_555
C38 C37 1_555 1_555
H25 C38 1_555 1_555
H26 C38 1_555 1_555
C39 C38 1_555 1_555
H27 C39 1_555 1_555
H28 C39 1_555 1_555
C40 C35 1_555 1_555
H29 C40 1_555 1_555
H30 C40 1_555 1_555
C1A C2A 1_555 1_555
C2A C3A 1_555 1_555
C3A H1A 1_555 1_555
C4A C3A 1_555 1_555
H2A C4A 1_555 1_555
C5A C4A 1_555 1_555
C6A C5A 1_555 1_555
H3A C6A 1_555 1_555
C7A C2A 1_555 1_555
H4A C7A 1_555 1_555
C8A C5A 1_555 1_555
C9A C8A 1_555 1_555
C10A C8A 1_555 1_555
C11A C8A 1_555 1_555
C12A C11A 1_555 1_555
H5A C12A 1_555 1_555
C13A C12A 1_555 1_555
H6A C13A 1_555 1_555
C14A C13A 1_555 1_555
C15A C14A 1_555 1_555
H7A C15A 1_555 1_555
C16A C11A 1_555 1_555
H8A C16A 1_555 1_555
C17A C14A 1_555 1_555
C18B C19B 1_555 1_555
C19B C20B 1_555 1_555
C20B H9B 1_555 1_555
C21B C20B 1_555 1_555
H10B C21B 1_555 1_555
C22B C21B 1_555 1_555
C23B C22B 1_555 1_555
H11B C23B 1_555 1_555
C24B C19B 1_555 1_555
H12B C24B 1_555 1_555
C25B C22B 1_555 1_555
C26B C25B 1_555 1_555
C27B C25B 1_555 1_555
C28B H13B 1_555 1_555
C29B C25B 1_555 1_555
C30B C29B 1_555 1_555
H14B C30B 1_555 1_555
C31B C30B 1_555 1_555
H15B C31B 1_555 1_555
C32B C31B 1_555 1_555
C33B C28B 1_555 1_555
H16B C33B 1_555 1_555
C34B C32B 1_555 1_555
O1A C1A 1_555 1_555
O2A C1A 1_555 1_555
O2B Mn2 1_555 1_555
O3A Mn1 1_555 1_555
O3C Mn2 1_555 1_555
O3_2 Mn1A 1_555 1_555
O4B C34B 1_555 1_555
O4G Mn1 1_555 1_555
O4F Mn1A 1_555 1_555
O5B C34B 1_555 1_555
O5C Mn1 1_555 1_555
O5B_2 Mn1A 1_555 1_555
O6B Mn1 1_555 1_555
O6C Mn1A 1_555 1_555
O7B Mn2 1_555 1_555
O8A C17A 1_555 1_555
Mn1A O1A 1_555 1_555
Mn1A_2 O3 1_555 1_555
Mn1G O4 1_555 1_555
Mn1C O5 1_555 1_555
Mn1B O6 1_555 1_555
Mn1E O4B 1_555 1_555
Mn1A_3 O5B 1_555 1_555
Mn2A O3 1_555 1_555
Mn2A_2 O2A 1_555 1_555
F1A C9A 1_555 1_555
F2A C9A 1_555 1_555
F3A C9A 1_555 1_555
F4A C10A 1_555 1_555
F5A C10A 1_555 1_555
F6A C10A 1_555 1_555
F7B C27B 1_555 1_555
F8B C27B 1_555 1_555
F9B C27B 1_555 1_555
F10B C26B 1_555 1_555
F11B C26B 1_555 1_555
F12B C26B 1_555 1_555
C6 C7 1_555 1_555
C15 C16 1_555 1_555
C23 C24 1_555 1_555
C28 C29 1_555 1_555
C32 C33 1_555 1_555
O2 Mn1 1_555 1_555
O7 Mn2 1_555 1_555
Mn2 O3A 1_555 1_555
C39 C40 1_555 1_555
C6A C7A 1_555 1_555
C15A C16A 1_555 1_555
C17A O3A 1_555 1_555
C18B O6B 1_555 1_555
C18B O7B 1_555 1_555
C23B C24B 1_555 1_555
C28B C29B 1_555 1_555
C32B C33B 1_555 1_555
O2A Mn1A 1_555 1_555
O2B Mn1B 1_555 1_555
O3C Mn1B 1_555 1_555
O3_2 Mn2A_2 1_555 1_555

#END
