
#######################################################################
#
#                 Cambridge Crystallographic Data Centre
#                                CCDC 
#
#######################################################################
#
# If this CIF has been generated from an entry in the Cambridge 
# Structural Database, then it will include bibliographic, chemical, 
# crystal, experimental, refinement or atomic coordinate data resulting 
# from the CCDC's data processing and validation procedures.
#
#######################################################################

data_AVILEX
_symmetry_cell_setting           monoclinic
_symmetry_space_group_name_H-M   'C 2/c'
_symmetry_Int_Tables_number      15
_space_group_name_Hall           '-C 2yn'
loop_
_symmetry_equiv_pos_site_id
_symmetry_equiv_pos_as_xyz
1 x,y,z
2 1/2+x,1/2+y,z
3 -x,y,1/2-z
4 1/2-x,1/2+y,1/2-z
5 -x,-y,-z
6 1/2-x,1/2-y,-z
7 x,-y,1/2+z
8 1/2+x,1/2-y,1/2+z
_cell_length_a                   19.9107(8)
_cell_length_b                   18.7741(8)
_cell_length_c                   25.0540(10)
_cell_angle_alpha                90
_cell_angle_beta                 108.4340(10)
_cell_angle_gamma                90
_cell_volume                     8884.77
loop_
_atom_site_label
_atom_site_type_symbol
_atom_site_fract_x
_atom_site_fract_y
_atom_site_fract_z
N1 N 0.5000 0.75861(11) 0.7500
H17 H 0.5103 0.7870 0.7805
C35 C 0.56459(11) 0.71653(11) 0.75265(10)
H18 H 0.5801 0.6913 0.7882
H19 H 0.6020 0.7493 0.7520
C36 C 0.55467(14) 0.66360(12) 0.70586(10)
H20 H 0.5203 0.6284 0.7089
H21 H 0.5992 0.6390 0.7116
C37 C 0.53023(13) 0.69345(12) 0.64589(10)
H22 H 0.5234 0.6541 0.6196
H23 H 0.4847 0.7165 0.6393
C38 C 0.58099(14) 0.74650(13) 0.63336(11)
H24 H 0.5619 0.7627 0.5952
H25 H 0.6258 0.7239 0.6385
H26 H 0.5873 0.7864 0.6585
H17B H 0.4897 0.7870 0.7195
C35B C 0.43541(11) 0.71653(11) 0.74735(10)
H18B H 0.4199 0.6913 0.7118
H19B H 0.3980 0.7493 0.7480
C36B C 0.44533(14) 0.66360(12) 0.79414(10)
H20B H 0.4797 0.6284 0.7911
H21B H 0.4008 0.6390 0.7884
C37B C 0.46977(13) 0.69345(12) 0.85411(10)
H22B H 0.4766 0.6541 0.8804
H23B H 0.5153 0.7165 0.8607
C38B C 0.41901(14) 0.74650(13) 0.86664(11)
H24B H 0.4381 0.7627 0.9048
H25B H 0.3742 0.7239 0.8615
H26B H 0.4127 0.7864 0.8415
N2 N 0.5000 1.0000 0.5000
C39 C 0.5594(2) 0.9532(2) 0.5008(4)
H27 H 0.5858 0.9726 0.4776
H28 H 0.5425 0.9061 0.4871
C40 C 0.6048(8) 0.9502(9) 0.5615(5)
H29 H 0.5790 0.9284 0.5843
H30 H 0.6191 0.9977 0.5758
C41 C 0.6691(5) 0.9056(5) 0.5631(5)
H31 H 0.6864 0.9193 0.5324
H32 H 0.6563 0.8556 0.5588
C42 C 0.7267(9) 0.9178(11) 0.6194(7)
H33 H 0.7510 0.9616 0.6180
H34 H 0.7597 0.8790 0.6269
H35 H 0.7054 0.9206 0.6488
C39D C 0.4406(2) 1.0468(2) 0.4992(4)
H27D H 0.4142 1.0274 0.5224
H28D H 0.4575 1.0939 0.5129
C40D C 0.3952(8) 1.0498(9) 0.4385(5)
H29D H 0.4210 1.0716 0.4157
H30D H 0.3809 1.0023 0.4242
C41D C 0.3309(5) 1.0944(5) 0.4369(5)
H31D H 0.3136 1.0807 0.4676
H32D H 0.3437 1.1444 0.4412
C42D C 0.2733(9) 1.0822(11) 0.3806(7)
H33D H 0.2490 1.0384 0.3820
H34D H 0.2403 1.1210 0.3731
H35D H 0.2946 1.0794 0.3512
C1 C 0.73360(10) 0.22007(9) 0.37350(7)
C2 C 0.75044(9) 0.26435(9) 0.32988(7)
C3 C 0.76470(10) 0.33646(10) 0.34074(8)
H1 H 0.7644 0.3557 0.3748
C4 C 0.77935(11) 0.37944(10) 0.30111(8)
H2 H 0.7876 0.4277 0.3086
C5 C 0.78196(10) 0.35221(10) 0.25042(7)
C6 C 0.76759(10) 0.27995(10) 0.23968(8)
H3 H 0.7690 0.2604 0.2059
C7 C 0.75130(10) 0.23704(10) 0.27873(7)
H4 H 0.7408 0.1892 0.2706
C8 C 0.79987(10) 0.40427(10) 0.20908(8)
C9 C 0.73210(11) 0.44683(12) 0.17965(9)
C10 C 0.82421(13) 0.36619(12) 0.16399(9)
C11 C 0.86126(10) 0.45347(10) 0.24223(7)
C12 C 0.91959(10) 0.42222(10) 0.28194(8)
H5 H 0.9209 0.3731 0.2867
C13 C 0.97518(10) 0.46281(10) 0.31417(8)
H6 H 1.0141 0.4409 0.3396
C14 C 0.97326(10) 0.53672(10) 0.30878(8)
C15 C 0.91567(10) 0.56775(10) 0.26909(8)
H7 H 0.9141 0.6170 0.2648
C16 C 0.86056(10) 0.52690(10) 0.23573(8)
H8 H 0.8229 0.5487 0.2088
C17 C 1.03308(10) 0.58096(10) 0.34430(8)
C18 C 0.71846(10) 0.41154(9) 0.49577(7)
C19 C 0.66239(10) 0.46470(9) 0.46732(7)
C20 C 0.66103(10) 0.53197(9) 0.48969(8)
H9 H 0.6948 0.5443 0.5236
C21 C 0.60980(10) 0.58100(9) 0.46197(7)
H10 H 0.6094 0.6259 0.4775
C22 C 0.55892(10) 0.56370(9) 0.41119(7)
C23 C 0.56000(11) 0.49531(10) 0.38972(8)
H11 H 0.5259 0.4823 0.3562
C24 C 0.61077(11) 0.44689(10) 0.41748(8)
H12 H 0.6104 0.4015 0.4026
C25 C 0.50968(11) 0.62220(10) 0.37717(8)
C26 C 0.55338(16) 0.66104(13) 0.34416(9)
C27 C 0.44240(14) 0.59158(14) 0.33565(10)
C28 C 0.48468(10) 0.67503(10) 0.41406(7)
C29 C 0.47873(12) 0.74778(10) 0.40279(9)
H13 H 0.4940 0.7663 0.3742
C30 C 0.45040(12) 0.79260(10) 0.43356(9)
H14 H 0.4474 0.8411 0.4257
C31 C 0.42630(10) 0.76681(10) 0.47596(8)
C32 C 0.43174(10) 0.69445(10) 0.48730(8)
H15 H 0.4155 0.6760 0.5154
C33 C 0.46117(10) 0.64938(10) 0.45694(8)
H16 H 0.4652 0.6010 0.4655
C34 C 0.39670(10) 0.81684(10) 0.50883(8)
O1 O 0.40917(9) 0.88167(7) 0.50852(7)
O2 O 0.35968(7) 0.79126(7) 0.53829(5)
O3 O 0.69038(7) 0.16901(7) 0.35690(5)
O4 O 0.76264(7) 0.23763(7) 0.42364(5)
O5 O 1.03354(7) 0.64711(7) 0.33842(6)
O6 O 1.08299(7) 0.54920(7) 0.38066(6)
O7 O 0.71267(7) 0.35031(6) 0.47478(5)
O8 O 0.76697(7) 0.43313(6) 0.53853(5)
Co1 Co 0.7500 0.2500 0.5000
Co2 Co 0.346410(13) 0.875460(12) 0.584880(10)
F1 F 0.71369(6) 0.48792(7) 0.21595(5)
F2 F 0.67712(7) 0.40308(7) 0.15633(5)
F3 F 0.73794(7) 0.48861(7) 0.13807(5)
F4 F 0.77268(8) 0.32866(7) 0.12737(5)
F5 F 0.84786(8) 0.41214(7) 0.13330(5)
F6 F 0.87682(8) 0.32084(7) 0.18722(5)
F7 F 0.58260(11) 0.61374(8) 0.31780(6)
F8 F 0.60522(8) 0.69892(7) 0.37823(6)
F9 F 0.51356(11) 0.70367(8) 0.30403(5)
F10 F 0.45240(9) 0.55599(8) 0.29249(5)
F11 F 0.41204(7) 0.54556(8) 0.36190(7)
F12 F 0.39439(9) 0.64181(9) 0.31318(7)
C1E C 0.76640(10) 0.27993(9) 0.62650(7)
C2E C 0.74956(9) 0.23565(9) 0.67012(7)
C3E C 0.73530(10) 0.16354(10) 0.65926(8)
H1E H 0.7356 0.1443 0.6252
C4E C 0.72065(11) 0.12056(10) 0.69889(8)
H2E H 0.7124 0.0723 0.6914
C5E C 0.71804(10) 0.14779(10) 0.74958(7)
C6E C 0.73241(10) 0.22005(10) 0.76032(8)
H3E H 0.7310 0.2396 0.7941
C7E C 0.74870(10) 0.26296(10) 0.72127(7)
H4E H 0.7592 0.3108 0.7294
C8E C 0.70013(10) 0.09573(10) 0.79092(8)
C9E C 0.76790(11) 0.05317(12) 0.82035(9)
C10E C 0.67579(13) 0.13381(12) 0.83601(9)
C11E C 0.63874(10) 0.04653(10) 0.75777(7)
C12E C 0.58041(10) 0.07778(10) 0.71806(8)
H5E H 0.5791 0.1269 0.7133
C13E C 0.52482(10) 0.03719(10) 0.68583(8)
H6E H 0.4859 0.0591 0.6604
C14E C 0.52674(10) -0.03672(10) 0.69122(8)
C15E C 0.58433(10) -0.06775(10) 0.73091(8)
H7E H 0.5859 -0.1170 0.7352
C16E C 0.63944(10) -0.02690(10) 0.76427(8)
H8E H 0.6771 -0.0487 0.7912
C17E C 0.46692(10) -0.08096(10) 0.65570(8)
C18A C 1.21846(10) -0.08846(9) 0.49577(7)
C19A C 1.16239(10) -0.03530(9) 0.46732(7)
C20A C 1.16103(10) 0.03197(9) 0.48969(8)
H9A H 1.1948 0.0443 0.5236
C21A C 1.10980(10) 0.08100(9) 0.46197(7)
H10A H 1.1094 0.1259 0.4775
C22A C 1.05892(10) 0.06370(9) 0.41119(7)
C23A C 1.06000(11) -0.00469(10) 0.38972(8)
H11A H 1.0259 -0.0177 0.3562
C24A C 1.11077(11) -0.05311(10) 0.41748(8)
H12A H 1.1104 -0.0985 0.4026
C25A C 1.00968(11) 0.12220(10) 0.37717(8)
C26A C 1.05338(16) 0.16104(13) 0.34416(9)
C27A C 0.94240(14) 0.09158(14) 0.33565(10)
C28A C 0.98468(10) 0.17503(10) 0.41406(7)
C29A C 0.97873(12) 0.24778(10) 0.40279(9)
H13A H 0.9940 0.2663 0.3742
C30A C 0.95040(12) 0.29260(10) 0.43356(9)
H14A H 0.9474 0.3411 0.4257
C31A C 0.92630(10) 0.26681(10) 0.47596(8)
C32A C 0.93174(10) 0.19445(10) 0.48730(8)
H15A H 0.9155 0.1760 0.5154
C33A C 0.96117(10) 0.14938(10) 0.45694(8)
H16A H 0.9652 0.1010 0.4655
C34A C 0.89670(10) 0.31684(10) 0.50883(8)
O1A O 0.90917(9) 0.38167(7) 0.50852(7)
O2A O 0.85968(7) 0.29126(7) 0.53829(5)
O2D O 0.64032(7) 0.20874(7) 0.46171(5)
O3E O 0.80962(7) 0.33099(7) 0.64310(5)
O3D O 0.30962(7) 0.83099(7) 0.64310(5)
O4E O 0.73736(7) 0.26237(7) 0.57636(5)
O5E O 0.46646(7) -0.14711(7) 0.66158(6)
O6E O 0.41701(7) -0.04920(7) 0.61934(6)
O6E_2 O 0.41701(7) 0.95080(7) 0.61934(6)
O6D O 0.91701(7) 0.45080(7) 0.61934(6)
O7A O 1.21267(7) -0.14969(6) 0.47478(5)
O7E O 0.78733(7) 0.14969(6) 0.52522(5)
O8A O 1.26697(7) -0.06687(6) 0.53853(5)
O8A_2 O 0.26697(7) 0.93313(6) 0.53853(5)
Co1A Co 0.2500 0.7500 0.5000
Co1A_2 Co 1.2500 -0.2500 0.5000
Co2A Co 0.846410(13) 0.375460(12) 0.584880(10)
Co2D Co 0.653590(13) 0.124540(12) 0.415120(10)
Co2E Co 1.153590(13) 0.624540(12) 0.415120(10)
Co2_2 Co 1.346410(13) -0.124540(12) 0.584880(10)
Co2_3 Co 0.346410(13) -0.124540(12) 0.584880(10)
F1E F 0.78631(6) 0.01208(7) 0.78405(5)
F2E F 0.82288(7) 0.09692(7) 0.84367(5)
F3E F 0.76206(7) 0.01139(7) 0.86193(5)
F4E F 0.72732(8) 0.17134(7) 0.87263(5)
F5E F 0.65214(8) 0.08786(7) 0.86670(5)
F6E F 0.62318(8) 0.17916(7) 0.81278(5)
F7A F 1.08260(11) 0.11374(8) 0.31780(6)
F8A F 1.10522(8) 0.19892(7) 0.37823(6)
F9A F 1.01356(11) 0.20367(8) 0.30403(5)
F10A F 0.95240(9) 0.05599(8) 0.29249(5)
F11A F 0.91204(7) 0.04556(8) 0.36190(7)
F12A F 0.89439(9) 0.14181(9) 0.31318(7)
C43? C 0.5577(2) 0.9853(3) 0.55217(17)
H36? H 0.5382 0.9625 0.5788
H37? H 0.5788 1.0300 0.5685
C44? C 0.6150(4) 0.9378(5) 0.5433(4)
H38? H 0.6309 0.9566 0.5132
H39? H 0.5968 0.8901 0.5331
C45? C 0.6760(9) 0.9362(11) 0.5982(8)
H40? H 0.6583 0.9280 0.6295
H41? H 0.7010 0.9814 0.6040
C46? C 0.7262(11) 0.8757(10) 0.5943(13)
H42? H 0.7662 0.8747 0.6279
H43? H 0.7422 0.8834 0.5624
H44? H 0.7016 0.8310 0.5901
H45? H 0.7071 0.8514 0.5590
H46? H 0.7311 0.8427 0.6245
H47? H 0.7717 0.8951 0.5968
loop_
_geom_bond_atom_site_label_1
_geom_bond_atom_site_label_2
_geom_bond_site_symmetry_1
_geom_bond_site_symmetry_2
C1 C2 1_555 1_555
C2 C3 1_555 1_555
C3 H1 1_555 1_555
C4 C3 1_555 1_555
H2 C4 1_555 1_555
C5 C4 1_555 1_555
C6 C5 1_555 1_555
H3 C6 1_555 1_555
C7 C2 1_555 1_555
H4 C7 1_555 1_555
C8 C5 1_555 1_555
C9 C8 1_555 1_555
C10 C8 1_555 1_555
C11 C8 1_555 1_555
C12 C11 1_555 1_555
H5 C12 1_555 1_555
C13 C12 1_555 1_555
H6 C13 1_555 1_555
C14 C13 1_555 1_555
C15 C14 1_555 1_555
H7 C15 1_555 1_555
C16 C11 1_555 1_555
H8 C16 1_555 1_555
C17 C14 1_555 1_555
C18 C19 1_555 1_555
C19 C20 1_555 1_555
C20 H9 1_555 1_555
C21 C20 1_555 1_555
H10 C21 1_555 1_555
C22 C21 1_555 1_555
C23 C22 1_555 1_555
H11 C23 1_555 1_555
C24 C19 1_555 1_555
H12 C24 1_555 1_555
C25 C22 1_555 1_555
C26 C25 1_555 1_555
C27 C25 1_555 1_555
C28 C25 1_555 1_555
C29 C28 1_555 1_555
H13 C29 1_555 1_555
C30 C29 1_555 1_555
H14 C30 1_555 1_555
C31 C30 1_555 1_555
C32 C31 1_555 1_555
H15 C32 1_555 1_555
C33 C28 1_555 1_555
H16 C33 1_555 1_555
C34 C31 1_555 1_555
O1 C34 1_555 1_555
O2 C34 1_555 1_555
O3 C1 1_555 1_555
O4 C1 1_555 1_555
O5 C17 1_555 1_555
O6 C17 1_555 1_555
O7 C18 1_555 1_555
O8 C18 1_555 1_555
Co1 O4 1_555 1_555
Co2 O2 1_555 1_555
F1 C9 1_555 1_555
F2 C9 1_555 1_555
F3 C9 1_555 1_555
F4 C10 1_555 1_555
F5 C10 1_555 1_555
F6 C10 1_555 1_555
F7 C26 1_555 1_555
F8 C26 1_555 1_555
F9 C26 1_555 1_555
F10 C27 1_555 1_555
F11 C27 1_555 1_555
F12 C27 1_555 1_555
N1 H17 1_555 1_555
C35 N1 1_555 1_555
H18 C35 1_555 1_555
H19 C35 1_555 1_555
C36 C35 1_555 1_555
H20 C36 1_555 1_555
H21 C36 1_555 1_555
C37 C36 1_555 1_555
H22 C37 1_555 1_555
H23 C37 1_555 1_555
C38 C37 1_555 1_555
H24 C38 1_555 1_555
H25 C38 1_555 1_555
H26 C38 1_555 1_555
N2 C39 1_555 1_555
C39 H27 1_555 1_555
H28 C39 1_555 1_555
C40 C39 1_555 1_555
H29 C40 1_555 1_555
H30 C40 1_555 1_555
C41 C40 1_555 1_555
H31 C41 1_555 1_555
H32 C41 1_555 1_555
C42 C41 1_555 1_555
H33 C42 1_555 1_555
H34 C42 1_555 1_555
H35 C42 1_555 1_555
C1E C2E 1_555 1_555
C2E C3E 1_555 1_555
C3E H1E 1_555 1_555
C4E C3E 1_555 1_555
H2E C4E 1_555 1_555
C5E C4E 1_555 1_555
C6E C5E 1_555 1_555
H3E C6E 1_555 1_555
C7E C2E 1_555 1_555
H4E C7E 1_555 1_555
C8E C5E 1_555 1_555
C9E C8E 1_555 1_555
C10E C8E 1_555 1_555
C11E C8E 1_555 1_555
C12E C11E 1_555 1_555
H5E C12E 1_555 1_555
C13E C12E 1_555 1_555
H6E C13E 1_555 1_555
C14E C13E 1_555 1_555
C15E C14E 1_555 1_555
H7E C15E 1_555 1_555
C16E C11E 1_555 1_555
H8E C16E 1_555 1_555
C17E C14E 1_555 1_555
C18A C19A 1_555 1_555
C19A C20A 1_555 1_555
C20A H9A 1_555 1_555
C21A C20A 1_555 1_555
H10A C21A 1_555 1_555
C22A C21A 1_555 1_555
C23A C22A 1_555 1_555
H11A C23A 1_555 1_555
C24A C19A 1_555 1_555
H12A C24A 1_555 1_555
C25A C22A 1_555 1_555
C26A C25A 1_555 1_555
C27A C25A 1_555 1_555
C28A C25A 1_555 1_555
C29A C28A 1_555 1_555
H13A C29A 1_555 1_555
C30A C29A 1_555 1_555
H14A C30A 1_555 1_555
C31A C30A 1_555 1_555
C32A C31A 1_555 1_555
H15A C32A 1_555 1_555
C33A C28A 1_555 1_555
H16A C33A 1_555 1_555
C34A C31A 1_555 1_555
O1A C34A 1_555 1_555
O2A Co1 1_555 1_555
O2D Co1 1_555 1_555
O3E C1E 1_555 1_555
O3D Co2 1_555 1_555
O4E Co1 1_555 1_555
O5E C17E 1_555 1_555
O6E C17E 1_555 1_555
O6E_2 Co2 1_555 1_555
O6D Co2A 1_555 1_555
O7A C18A 1_555 1_555
O7E Co1 1_555 1_555
O8A C18A 1_555 1_555
O8A_2 Co2 1_555 1_555
Co1A O2 1_555 1_555
Co1A_2 O7A 1_555 1_555
Co2A O8 1_555 1_555
Co2D O3 1_555 1_555
Co2E O6 1_555 1_555
Co2_2 O8A 1_555 1_555
Co2_3 O6E 1_555 1_555
F1E C9E 1_555 1_555
F2E C9E 1_555 1_555
F3E C9E 1_555 1_555
F4E C10E 1_555 1_555
F5E C10E 1_555 1_555
F6E C10E 1_555 1_555
F7A C26A 1_555 1_555
F8A C26A 1_555 1_555
F9A C26A 1_555 1_555
F10A C27A 1_555 1_555
F11A C27A 1_555 1_555
F12A C27A 1_555 1_555
H17B N1 1_555 1_555
C35B N1 1_555 1_555
H18B C35B 1_555 1_555
H19B C35B 1_555 1_555
C36B C35B 1_555 1_555
H20B C36B 1_555 1_555
H21B C36B 1_555 1_555
C37B C36B 1_555 1_555
H22B C37B 1_555 1_555
H23B C37B 1_555 1_555
C38B C37B 1_555 1_555
H24B C38B 1_555 1_555
H25B C38B 1_555 1_555
H26B C38B 1_555 1_555
C39D N2 1_555 1_555
H27D C39D 1_555 1_555
H28D C39D 1_555 1_555
C40D C39D 1_555 1_555
H29D C40D 1_555 1_555
H30D C40D 1_555 1_555
C41D C40D 1_555 1_555
H31D C41D 1_555 1_555
H32D C41D 1_555 1_555
C42D C41D 1_555 1_555
H33D C42D 1_555 1_555
H34D C42D 1_555 1_555
H35D C42D 1_555 1_555
C6 C7 1_555 1_555
C15 C16 1_555 1_555
C23 C24 1_555 1_555
C32 C33 1_555 1_555
O7 Co1 1_555 1_555
C1E O4E 1_555 1_555
C6E C7E 1_555 1_555
C15E C16E 1_555 1_555
C23A C24A 1_555 1_555
C32A C33A 1_555 1_555
C34A O2A 1_555 1_555
O2A Co2A 1_555 1_555
O2D Co2D 1_555 1_555
O3E Co2A 1_555 1_555

#END
