
#######################################################################
#
#                 Cambridge Crystallographic Data Centre
#                                CCDC 
#
#######################################################################
#
# If this CIF has been generated from an entry in the Cambridge 
# Structural Database, then it will include bibliographic, chemical, 
# crystal, experimental, refinement or atomic coordinate data resulting 
# from the CCDC's data processing and validation procedures.
#
#######################################################################

data_AVIPOL
_symmetry_cell_setting           monoclinic
_symmetry_space_group_name_H-M   'P 21/n'
_symmetry_Int_Tables_number      14
_space_group_name_Hall           '-P 2yn'
loop_
_symmetry_equiv_pos_site_id
_symmetry_equiv_pos_as_xyz
1 x,y,z
2 1/2-x,1/2+y,1/2-z
3 -x,-y,-z
4 1/2+x,1/2-y,1/2+z
_cell_length_a                   13.7442(14)
_cell_length_b                   14.2887(15)
_cell_length_c                   14.1178(14)
_cell_angle_alpha                90
_cell_angle_beta                 104.912(2)
_cell_angle_gamma                90
_cell_volume                     2679.18
loop_
_atom_site_label
_atom_site_type_symbol
_atom_site_fract_x
_atom_site_fract_y
_atom_site_fract_z
Mg1 Mg 0.12529(5) 0.20877(6) 0.51738(5)
Mg2 Mg 0.38341(5) 0.09888(5) 0.55142(5)
O1 O 0.19145(12) 0.22052(12) 0.40448(11)
O2 O 0.35618(13) 0.18963(13) 0.43698(12)
O3 O 0.13693(13) 0.49403(14) 0.04613(14)
O4 O 0.03124(12) 0.41132(13) 0.10807(13)
O5 O 0.38565(12) 0.20130(12) 0.65092(12)
O6 O 0.23710(12) 0.27378(12) 0.61779(12)
O7 O 0.31728(17) 0.57459(12) 0.95772(13)
O8 O 0.18032(14) 0.50920(13) 0.86580(13)
O9 O 0.05565(15) 0.1942(2) 0.62942(15)
H1 H -0.0021(15) 0.191(3) 0.641(3)
H2 H 0.094(3) 0.190(3) 0.6871(14)
N1 N 0.37116(16) 0.31887(19) 0.17735(17)
N2 N 0.48396(14) 0.34107(15) 0.91229(13)
C1 C 0.27576(17) 0.22438(16) 0.38628(16)
C2 C 0.27990(16) 0.27669(17) 0.29475(16)
C3 C 0.36424(18) 0.2739(2) 0.25820(18)
H3 H 0.4192 0.2387 0.2919
C4 C 0.29223(18) 0.3709(2) 0.13069(18)
H4 H 0.2972 0.4046 0.0758
C5 C 0.20354(16) 0.37721(17) 0.15988(16)
C6 C 0.11645(16) 0.43276(17) 0.09951(16)
C7 C 0.19757(16) 0.32831(16) 0.24281(16)
H5 H 0.1387 0.3300 0.2637
C8 C 0.32456(16) 0.25948(16) 0.66813(16)
C9 C 0.35959(16) 0.31742(16) 0.75953(15)
C10 C 0.45061(17) 0.29710(17) 0.82593(16)
H6 H 0.4907 0.2505 0.8098
C11 C 0.42648(16) 0.40988(16) 0.93231(16)
H7 H 0.4484 0.4412 0.9917
C12 C 0.33553(16) 0.43730(16) 0.86910(16)
C13 C 0.27400(19) 0.51340(16) 0.89882(16)
C14 C 0.30124(16) 0.38875(16) 0.78197(16)
H8 H 0.2397 0.4039 0.7391
O10 O 0.06375(15) 0.34176(15) 0.47477(15)
C15 C 0.1101(3) 0.4132(3) 0.4666(2)
H9 H 0.178(3) 0.418(2) 0.505(3)
N3 N 0.0746(3) 0.4838(2) 0.4084(2)
C16 C -0.0247(4) 0.4815(3) 0.3453(3)
H10 H -0.0375 0.5384 0.3081
H11 H -0.0725 0.4753 0.3840
H12 H -0.0310 0.4292 0.3015
C17 C 0.1341(5) 0.5667(4) 0.4026(6)
H13 H 0.0946 0.6097 0.3561
H14 H 0.1929 0.5491 0.3820
H15 H 0.1541 0.5959 0.4658
Mg1A Mg 0.37471(5) 0.70877(6) 0.98262(5)
Mg1C Mg 0.62529(5) 0.29123(6) 1.01738(5)
Mg2A Mg 0.11659(5) 0.59888(5) -0.05142(5)
Mg2C Mg -0.11659(5) 0.40112(5) 0.05142(5)
Mg2A_2 Mg 0.11659(5) 0.59888(5) 0.94858(5)
O3A O 0.36307(13) -0.00597(14) 0.45387(14)
O4C O 0.53124(12) 0.08868(13) 0.60807(13)
O7A O 0.18272(17) 0.07459(12) 0.54228(13)
O8A O 0.31968(14) 0.00920(13) 0.63420(13)
N2C N -0.01604(14) 0.15893(15) 0.41229(13)
O11 O 0.3538(4) 0.5074(4) 0.5773(5)
C18 C 0.4070(5) 0.4401(6) 0.5611(6)
H16 H 0.3791 0.3983 0.5111
N4 N 0.5023(8) 0.4268(8) 0.6135(9)
C19 C 0.5554(6) 0.3463(4) 0.5923(8)
H17 H 0.6205 0.3432 0.6380
H18 H 0.5632 0.3510 0.5269
H19 H 0.5179 0.2908 0.5980
C20 C 0.5460(6) 0.4843(6) 0.6941(5)
H20 H 0.6123 0.4618 0.7253
H21 H 0.5052 0.4830 0.7400
H22 H 0.5503 0.5473 0.6719
O14 O 0.6585(19) 0.2454(18) 0.3965(7)
O12? O 0.3586(14) 0.4581(19) 0.504(2)
C21? C 0.4425(17) 0.3963(16) 0.5277(14)
H23? H 0.4559 0.3465 0.4905
N5? N 0.500(2) 0.426(3) 0.618(2)
C22? C 0.5982(16) 0.400(3) 0.676(2)
H24? H 0.6242 0.4491 0.7220
H25? H 0.6423 0.3914 0.6337
H26? H 0.5938 0.3432 0.7102
C23? C 0.4512(16) 0.5051(11) 0.6471(15)
H27? H 0.4957 0.5337 0.7034
H28? H 0.3908 0.4853 0.6634
H29? H 0.4347 0.5496 0.5944
O13? O 0.3421(4) 0.6794(4) 0.6753(3)
O15? O 0.5668(10) 0.1570(10) 0.3836(14)
O16? O 0.6028(9) 0.1840(9) 0.3121(9)
loop_
_geom_bond_atom_site_label_1
_geom_bond_atom_site_label_2
_geom_bond_site_symmetry_1
_geom_bond_site_symmetry_2
Mg1 O1 1_555 1_555
Mg2 O2 1_555 1_555
O1 C1 1_555 1_555
O2 C1 1_555 1_555
O3 C6 1_555 1_555
O4 C6 1_555 1_555
O5 Mg2 1_555 1_555
O6 Mg1 1_555 1_555
O7 C13 1_555 1_555
O8 C13 1_555 1_555
O9 Mg1 1_555 1_555
H1 O9 1_555 1_555
H2 O9 1_555 1_555
N1 C3 1_555 1_555
N2 C10 1_555 1_555
C1 C2 1_555 1_555
C2 C3 1_555 1_555
C3 H3 1_555 1_555
C4 N1 1_555 1_555
H4 C4 1_555 1_555
C5 C4 1_555 1_555
C6 C5 1_555 1_555
C7 C2 1_555 1_555
H5 C7 1_555 1_555
C8 O5 1_555 1_555
C9 C8 1_555 1_555
C10 C9 1_555 1_555
H6 C10 1_555 1_555
C11 N2 1_555 1_555
H7 C11 1_555 1_555
C12 C11 1_555 1_555
C13 C12 1_555 1_555
C14 C9 1_555 1_555
H8 C14 1_555 1_555
O10 Mg1 1_555 1_555
C15 O10 1_555 1_555
H9 C15 1_555 1_555
N3 C15 1_555 1_555
C16 N3 1_555 1_555
H10 C16 1_555 1_555
H11 C16 1_555 1_555
H12 C16 1_555 1_555
C17 N3 1_555 1_555
H13 C17 1_555 1_555
H14 C17 1_555 1_555
H15 C17 1_555 1_555
O11 C18 1_555 1_555
C18 H16 1_555 1_555
N4 C18 1_555 1_555
C19 N4 1_555 1_555
H17 C19 1_555 1_555
H18 C19 1_555 1_555
H19 C19 1_555 1_555
C20 N4 1_555 1_555
H20 C20 1_555 1_555
H21 C20 1_555 1_555
H22 C20 1_555 1_555
Mg1A O7 1_555 1_555
Mg1C N2 1_555 1_555
Mg2A O3 1_555 1_555
Mg2C O4 1_555 1_555
Mg2A_2 O7 1_555 1_555
O3A Mg2 1_555 1_555
O4C Mg2 1_555 1_555
O7A Mg1 1_555 1_555
O8A Mg2 1_555 1_555
N2C Mg1 1_555 1_555
Mg2 O7A 1_555 1_555
O6 C8 1_555 1_555
O8 Mg2A_2 1_555 1_555
C5 C7 1_555 1_555
C12 C14 1_555 1_555

#END
