
#######################################################################
#
#                 Cambridge Crystallographic Data Centre
#                                CCDC 
#
#######################################################################
#
# If this CIF has been generated from an entry in the Cambridge 
# Structural Database, then it will include bibliographic, chemical, 
# crystal, experimental, refinement or atomic coordinate data resulting 
# from the CCDC's data processing and validation procedures.
#
#######################################################################

data_AVIRUT
_symmetry_cell_setting           monoclinic
_symmetry_space_group_name_H-M   'P 21'
_symmetry_Int_Tables_number      4
_space_group_name_Hall           'P 2yb'
loop_
_symmetry_equiv_pos_site_id
_symmetry_equiv_pos_as_xyz
1 x,y,z
2 -x,1/2+y,-z
_cell_length_a                   9.1167(3)
_cell_length_b                   17.5349(6)
_cell_length_c                   10.8110(4)
_cell_angle_alpha                90
_cell_angle_beta                 106.0100(10)
_cell_angle_gamma                90
_cell_volume                     1661.22
loop_
_atom_site_label
_atom_site_type_symbol
_atom_site_fract_x
_atom_site_fract_y
_atom_site_fract_z
Eu1 Eu -0.706280(8) 0.003760(8) -0.312749(7)
O1 O -0.52416(14) 0.00578(15) -0.43501(11)
O2 O -0.35450(18) 0.05733(10) -0.52354(15)
O3 O -0.86346(19) -0.14748(9) -1.04212(14)
O4 O -0.76665(19) -0.05387(9) -1.13391(14)
O5 O -0.82279(17) 0.06701(9) -0.50864(14)
O6 O -0.93844(18) -0.05956(9) -0.41576(14)
O7 O -0.57417(17) 0.11919(9) -0.24355(16)
O8 O -0.87251(17) 0.08813(9) -0.24149(16)
O9 O -0.47019(17) -0.02618(9) -0.15725(14)
O10 O -0.64394(19) -0.12560(9) -0.34305(16)
C1 C -0.6026(2) 0.0007(2) -0.89068(16)
H1 H -0.5804 0.0226 -0.9639
C2 C -0.7114(2) -0.05659(12) -0.90618(19)
C3 C -0.7475(2) -0.08836(12) -0.79959(19)
H2 H -0.8224 -0.1273 -0.8109
C4 C -0.6728(2) -0.06235(12) -0.6772(2)
H3 H -0.6971 -0.0832 -0.6041
C5 C -0.5621(2) -0.00559(15) -0.66165(18)
C6 C -0.5261(3) 0.02609(12) -0.7681(2)
H4 H -0.4502 0.0646 -0.7568
C7 C -0.4813(2) 0.01913(10) -0.5305(2)
C8 C -0.2675(3) 0.08263(16) -0.3957(2)
H5 H -0.1780 0.1115 -0.4024
H6 H -0.2342 0.0381 -0.3402
H7 H -0.3319 0.1152 -0.3587
C9 C -0.7830(2) -0.08525(12) -1.0377(2)
C10 C -0.9334(3) -0.17839(15) -1.1697(2)
H8 H -0.9926 -0.2240 -1.1623
H9 H -0.8536 -0.1920 -1.2107
H10 H -1.0011 -0.1401 -1.2221
C11 C -0.9606(3) 0.11824(16) -0.7070(3)
C12 C -0.9397(3) 0.05701(13) -0.6011(2)
C13 C -1.0463(2) -0.0015(2) -0.61818(18)
H11 H -1.1265 -0.0044 -0.6957
C14 C -1.0361(2) -0.05531(13) -0.5231(2)
C15 C -1.1565(3) -0.11932(15) -0.5459(2)
C16 C -0.4543(3) 0.22756(16) -0.1329(3)
C17 C -0.5934(2) 0.17453(12) -0.1764(2)
C18 C -0.7214(3) 0.19157(13) -0.1358(2)
H12 H -0.7196 0.2340 -0.0808
C19 C -0.8525(2) 0.14693(12) -0.1752(2)
C20 C -0.9929(3) 0.17574(14) -0.1360(3)
C21 C -0.2360(3) -0.06930(15) -0.0271(3)
C22 C -0.3840(2) -0.08286(13) -0.1352(2)
C23 C -0.4033(3) -0.15274(14) -0.1971(2)
H13 H -0.3265 -0.1906 -0.1712
C24 C -0.5333(3) -0.16847(13) -0.2966(2)
C25 C -0.5511(4) -0.24775(15) -0.3584(3)
F1 F -0.9289(5) 0.18584(13) -0.6566(3)
F2 F -0.8666(3) 0.1089(2) -0.7743(3)
F3 F -1.0984(2) 0.12249(13) -0.7822(2)
F4 F -1.0894(2) -0.18677(9) -0.5343(2)
F5 F -1.2564(2) -0.11617(11) -0.66115(17)
F6 F -1.2349(2) -0.11538(12) -0.45910(18)
F7 F -0.3442(2) 0.19339(14) -0.0436(3)
F8 F -0.3964(3) 0.24365(12) -0.2273(3)
F9 F -0.4869(2) 0.29298(10) -0.0833(2)
F10 F -1.07276(19) 0.22413(11) -0.2233(2)
F11 F -1.08590(18) 0.11927(9) -0.12684(17)
F12 F -0.95416(19) 0.21184(11) -0.02280(18)
F13 F -0.2587(2) -0.02443(15) 0.06357(18)
F14 F -0.13156(18) -0.03598(10) -0.07386(18)
F15 F -0.1726(2) -0.13381(11) 0.0290(2)
F16 F -0.4284(3) -0.29121(11) -0.3189(3)
F17 F -0.6645(3) -0.28514(11) -0.3328(3)
F18 F -0.5813(4) -0.24289(13) -0.4841(2)
Eu1_2 Eu -0.706280(8) 0.003760(8) -1.312749(7)
O4_2 O -0.76665(19) -0.05387(9) -0.13391(14)
loop_
_geom_bond_atom_site_label_1
_geom_bond_atom_site_label_2
_geom_bond_site_symmetry_1
_geom_bond_site_symmetry_2
Eu1 O1 1_555 1_555
O1 C7 1_555 1_555
O2 C7 1_555 1_555
O3 C9 1_555 1_555
O4 C9 1_555 1_555
O5 Eu1 1_555 1_555
O6 Eu1 1_555 1_555
O7 Eu1 1_555 1_555
O8 Eu1 1_555 1_555
O9 Eu1 1_555 1_555
O10 Eu1 1_555 1_555
C1 H1 1_555 1_555
C2 C1 1_555 1_555
C3 C2 1_555 1_555
H2 C3 1_555 1_555
C4 C3 1_555 1_555
H3 C4 1_555 1_555
C5 C4 1_555 1_555
C6 C1 1_555 1_555
H4 C6 1_555 1_555
C7 C5 1_555 1_555
C8 O2 1_555 1_555
H5 C8 1_555 1_555
H6 C8 1_555 1_555
H7 C8 1_555 1_555
C9 C2 1_555 1_555
C10 O3 1_555 1_555
H8 C10 1_555 1_555
H9 C10 1_555 1_555
H10 C10 1_555 1_555
C11 C12 1_555 1_555
C12 O5 1_555 1_555
C13 C12 1_555 1_555
H11 C13 1_555 1_555
C14 O6 1_555 1_555
C15 C14 1_555 1_555
C16 C17 1_555 1_555
C17 O7 1_555 1_555
C18 C17 1_555 1_555
H12 C18 1_555 1_555
C19 O8 1_555 1_555
C20 C19 1_555 1_555
C21 C22 1_555 1_555
C22 O9 1_555 1_555
C23 C22 1_555 1_555
H13 C23 1_555 1_555
C24 O10 1_555 1_555
C25 C24 1_555 1_555
F1 C11 1_555 1_555
F2 C11 1_555 1_555
F3 C11 1_555 1_555
F4 C15 1_555 1_555
F5 C15 1_555 1_555
F6 C15 1_555 1_555
F7 C16 1_555 1_555
F8 C16 1_555 1_555
F9 C16 1_555 1_555
F10 C20 1_555 1_555
F11 C20 1_555 1_555
F12 C20 1_555 1_555
F13 C21 1_555 1_555
F14 C21 1_555 1_555
F15 C21 1_555 1_555
F16 C25 1_555 1_555
F17 C25 1_555 1_555
F18 C25 1_555 1_555
Eu1_2 O4 1_555 1_555
O4_2 Eu1 1_555 1_555
C5 C6 1_555 1_555
C13 C14 1_555 1_555
C18 C19 1_555 1_555
C23 C24 1_555 1_555

#END
