
#######################################################################
#
#                 Cambridge Crystallographic Data Centre
#                                CCDC 
#
#######################################################################
#
# If this CIF has been generated from an entry in the Cambridge 
# Structural Database, then it will include bibliographic, chemical, 
# crystal, experimental, refinement or atomic coordinate data resulting 
# from the CCDC's data processing and validation procedures.
#
#######################################################################

data_AVIVUW
_symmetry_cell_setting           tetragonal
_symmetry_space_group_name_H-M   'I 41/a m d'
_symmetry_Int_Tables_number      141
_space_group_name_Hall           '-I 4bd 2'
loop_
_symmetry_equiv_pos_site_id
_symmetry_equiv_pos_as_xyz
1 x,y,z
2 1/4-y,3/4+x,1/4+z
3 1/4+y,1/4-x,3/4+z
4 1/4+y,3/4+x,1/4-z
5 1/2+x,1/2+y,1/2+z
6 3/4-y,1/4+x,3/4+z
7 3/4+y,3/4-x,1/4+z
8 3/4+y,1/4+x,3/4-z
9 1/2-x,-y,1/2+z
10 1/2-x,y,1/2-z
11 x,-y,-z
12 1/4-y,1/4-x,3/4-z
13 -x,1/2-y,z
14 -x,1/2+y,-z
15 1/2+x,1/2-y,1/2-z
16 3/4-y,3/4-x,1/4-z
17 -x,-y,-z
18 3/4+y,1/4-x,3/4-z
19 3/4-y,3/4+x,1/4-z
20 3/4-y,1/4-x,3/4+z
21 1/2-x,1/2-y,1/2-z
22 1/4+y,3/4-x,1/4-z
23 1/4-y,1/4+x,3/4-z
24 1/4-y,3/4-x,1/4+z
25 1/2+x,y,1/2-z
26 1/2+x,-y,1/2+z
27 -x,y,z
28 3/4+y,3/4+x,1/4+z
29 x,1/2+y,-z
30 x,1/2-y,z
31 1/2-x,1/2+y,1/2+z
32 1/4+y,1/4+x,3/4+z
_cell_length_a                   22.963(5)
_cell_length_b                   22.963(5)
_cell_length_c                   34.546(14)
_cell_angle_alpha                90
_cell_angle_beta                 90
_cell_angle_gamma                90
_cell_volume                     18216.1
loop_
_atom_site_label
_atom_site_type_symbol
_atom_site_fract_x
_atom_site_fract_y
_atom_site_fract_z
P2 P 0.0000 0.2500 0.8750
F4 F 0.0694(2) 0.2500 0.87491(15)
F5 F 0.0000 0.2500 0.9215(2)
F4G F 0.0000 0.3194(2) 0.87509(15)
F5G F 0.0000 0.2500 0.8285(2)
F4Z F -0.0694(2) 0.2500 0.87491(15)
F4Q F 0.0000 0.1806(2) 0.87509(15)
Ag1 Ag 0.333978(13) 0.083978(13) 0.6250
N1 N 0.23307(16) 0.08930(18) 0.63810(14)
C1 C 0.2155(2) 0.1227(3) 0.66703(17)
H1 H 0.2433 0.1448 0.6800
C2 C 0.1588(2) 0.1267(3) 0.67894(17)
H2 H 0.1491 0.1510 0.6995
C3 C 0.11565(18) 0.0943(2) 0.66027(14)
C4 C 0.1343(2) 0.0603(2) 0.62941(16)
H3 H 0.1078 0.0385 0.6152
C5 C 0.1926(2) 0.0593(3) 0.62018(17)
H4 H 0.2042 0.0356 0.5997
C6 C 0.05417(17) 0.09645(19) 0.67219(14)
S1 S 0.0000 0.09255(8) 0.63801(5)
C7 C 0.03119(17) 0.10155(18) 0.70862(13)
C8 C 0.06515(17) 0.10040(19) 0.74531(13)
C9 C 0.0880(3) 0.0501(2) 0.75954(19)
H5 H 0.0846 0.0160 0.7452
C10 C 0.1156(3) 0.0487(2) 0.79415(18)
H6 H 0.1300 0.0131 0.8027
N2 N 0.12341(16) 0.09535(16) 0.81701(11)
C11 C 0.1021(2) 0.1454(2) 0.80312(16)
H7 H 0.1071 0.1791 0.8177
C12 C 0.0733(2) 0.1495(2) 0.76832(17)
H8 H 0.0590 0.1853 0.7601
N1Z N -0.23307(16) 0.08930(18) 0.63810(14)
C1Z C -0.2155(2) 0.1227(3) 0.66703(17)
H1Z H -0.2433 0.1448 0.6800
C2Z C -0.1588(2) 0.1267(3) 0.67894(17)
H2Z H -0.1491 0.1510 0.6995
C3Z C -0.11565(18) 0.0943(2) 0.66027(14)
C4Z C -0.1343(2) 0.0603(2) 0.62941(16)
H3Z H -0.1078 0.0385 0.6152
C5Z C -0.1926(2) 0.0593(3) 0.62018(17)
H4Z H -0.2042 0.0356 0.5997
C6Z C -0.05417(17) 0.09645(19) 0.67219(14)
C7Z C -0.03119(17) 0.10155(18) 0.70862(13)
C8Z C -0.06515(17) 0.10040(19) 0.74531(13)
C9Z C -0.0880(3) 0.0501(2) 0.75954(19)
H5Z H -0.0846 0.0160 0.7452
C10Z C -0.1156(3) 0.0487(2) 0.79415(18)
H6Z H -0.1300 0.0131 0.8027
C12Z C -0.0733(2) 0.1495(2) 0.76832(17)
H8Z H -0.0590 0.1853 0.7601
N2Z N -0.12341(16) 0.09535(16) 0.81701(11)
C11Z C -0.1021(2) 0.1454(2) 0.80312(16)
H7Z H -0.1071 0.1791 0.8177
Ag1A Ag 0.166022(13) 0.083978(13) 0.8750
Ag1X Ag -0.166022(13) 0.083978(13) 0.8750
Ag1Z Ag -0.333978(13) 0.083978(13) 0.6250
N1C N 0.33930(18) -0.01693(16) 0.61190(14)
N2B N 0.34535(16) 0.12659(16) 0.56701(11)
N2I N 0.37659(16) 0.09535(16) 0.68299(11)
P1 P 0.2500 0.2500 0.7500
F1 F 0.2500 0.1819(2) 0.7500
F2 F 0.2163(5) 0.2500 0.7890(3)
F3 F 0.3014(4) 0.2500 0.7790(3)
F1CA F 0.2500 0.3181(2) 0.7500
F2T F 0.2837(5) 0.2500 0.7110(3)
F3T F 0.1986(4) 0.2500 0.7210(3)
loop_
_geom_bond_atom_site_label_1
_geom_bond_atom_site_label_2
_geom_bond_site_symmetry_1
_geom_bond_site_symmetry_2
P1 F1 1_555 1_555
F2 P1 1_555 1_555
F3 P1 1_555 1_555
P2 F4 1_555 1_555
F5 P2 1_555 1_555
Ag1 N1 1_555 1_555
N1 C1 1_555 1_555
C1 H1 1_555 1_555
C2 C1 1_555 1_555
H2 C2 1_555 1_555
C3 C2 1_555 1_555
C4 C3 1_555 1_555
H3 C4 1_555 1_555
C5 N1 1_555 1_555
H4 C5 1_555 1_555
C6 C3 1_555 1_555
S1 C6 1_555 1_555
C7 C6 1_555 1_555
C8 C7 1_555 1_555
C9 C8 1_555 1_555
H5 C9 1_555 1_555
C10 C9 1_555 1_555
H6 C10 1_555 1_555
N2 C10 1_555 1_555
C11 N2 1_555 1_555
H7 C11 1_555 1_555
C12 C8 1_555 1_555
H8 C12 1_555 1_555
F1CA P1 1_555 1_555
F2T P1 1_555 1_555
F3T P1 1_555 1_555
F4G P2 1_555 1_555
F5G P2 1_555 1_555
F4Z P2 1_555 1_555
F4Q P2 1_555 1_555
N1Z C1Z 1_555 1_555
C1Z H1Z 1_555 1_555
C2Z C1Z 1_555 1_555
H2Z C2Z 1_555 1_555
C3Z C2Z 1_555 1_555
C4Z C3Z 1_555 1_555
H3Z C4Z 1_555 1_555
C5Z N1Z 1_555 1_555
H4Z C5Z 1_555 1_555
C6Z S1 1_555 1_555
C7Z C7 1_555 1_555
C8Z C7Z 1_555 1_555
C9Z C8Z 1_555 1_555
H5Z C9Z 1_555 1_555
C10Z C9Z 1_555 1_555
H6Z C10Z 1_555 1_555
C12Z C8Z 1_555 1_555
H8Z C12Z 1_555 1_555
N2Z C10Z 1_555 1_555
C11Z C12Z 1_555 1_555
H7Z C11Z 1_555 1_555
Ag1A N2 1_555 1_555
Ag1X N2Z 1_555 1_555
Ag1Z N1Z 1_555 1_555
N1C Ag1 1_555 1_555
N2B Ag1 1_555 1_555
N2I Ag1 1_555 1_555
C4 C5 1_555 1_555
C11 C12 1_555 1_555
C3Z C6Z 1_555 1_555
C4Z C5Z 1_555 1_555
C6Z C7Z 1_555 1_555
N2Z C11Z 1_555 1_555

#END
