
#######################################################################
#
#                 Cambridge Crystallographic Data Centre
#                                CCDC 
#
#######################################################################
#
# If this CIF has been generated from an entry in the Cambridge 
# Structural Database, then it will include bibliographic, chemical, 
# crystal, experimental, refinement or atomic coordinate data resulting 
# from the CCDC's data processing and validation procedures.
#
#######################################################################

data_AVOFUM
_symmetry_cell_setting           monoclinic
_symmetry_space_group_name_H-M   'P 21/c'
_symmetry_Int_Tables_number      14
_space_group_name_Hall           '-P 2ybc'
loop_
_symmetry_equiv_pos_site_id
_symmetry_equiv_pos_as_xyz
1 x,y,z
2 -x,1/2+y,1/2-z
3 -x,-y,-z
4 x,1/2-y,1/2+z
_cell_length_a                   7.2575(12)
_cell_length_b                   8.9497(14)
_cell_length_c                   6.3465(10)
_cell_angle_alpha                90
_cell_angle_beta                 111.654(3)
_cell_angle_gamma                90
_cell_volume                     383.13
loop_
_atom_site_label
_atom_site_type_symbol
_atom_site_fract_x
_atom_site_fract_y
_atom_site_fract_z
Ag1 Ag 0.10044(9) 0.63398(6) 0.11417(9)
O1 O -0.1175(7) 0.6017(5) 0.2825(9)
O2 O -0.2181(8) 0.3693(4) 0.1608(9)
C1 C -0.2199(8) 0.4875(7) 0.2701(10)
C2 C -0.3625(8) 0.4920(6) 0.3934(10)
C3 C -0.5304(10) 0.4006(7) 0.3217(11)
H1 H -0.5509 0.3336 0.2031
C4 C -0.3333(9) 0.5901(8) 0.5720(11)
H2 H -0.2211 0.6504 0.6212
C4B C -0.6667(9) 0.4099(8) 0.4280(11)
C2B C -0.6375(8) 0.5080(6) 0.6066(10)
C1B C -0.7801(8) 0.5125(7) 0.7299(10)
O1B O -0.8825(7) 0.3983(5) 0.7175(9)
O2B O -0.7819(8) 0.6307(4) 0.8392(9)
C3B C -0.4696(10) 0.5994(7) 0.6783(11)
H1B H -0.4491 0.6664 0.7969
H2B H -0.7789 0.3496 0.3788
Ag1B Ag -1.10044(9) 0.36602(6) 0.88583(9)
Ag1B_2 Ag -0.10044(9) 0.36602(6) -0.11417(9)
O2B_2 O 0.2181(8) 0.6307(4) -0.1608(9)
O2A O 0.2181(8) 0.8693(4) 0.3392(9)
Ag1A Ag -0.10044(9) 0.13398(6) 0.38583(9)
Ag1_2 Ag -0.89956(9) 0.63398(6) 1.11417(9)
Ag1C Ag -0.89956(9) 0.86602(6) 0.61417(9)
O2_2 O -1.2181(8) 0.3693(4) 1.1608(9)
O2C O -1.2181(8) 0.1307(4) 0.6608(9)
loop_
_geom_bond_atom_site_label_1
_geom_bond_atom_site_label_2
_geom_bond_site_symmetry_1
_geom_bond_site_symmetry_2
Ag1 O1 1_555 1_555
O1 C1 1_555 1_555
O2 C1 1_555 1_555
C1 C2 1_555 1_555
C2 C3 1_555 1_555
C3 H1 1_555 1_555
C4 C2 1_555 1_555
H2 C4 1_555 1_555
C4B C3 1_555 1_555
C2B C4B 1_555 1_555
C1B C2B 1_555 1_555
O1B C1B 1_555 1_555
O2B C1B 1_555 1_555
C3B C4 1_555 1_555
H1B C3B 1_555 1_555
H2B C4B 1_555 1_555
Ag1B O1B 1_555 1_555
Ag1B_2 Ag1 1_555 1_555
O2B_2 Ag1 1_555 1_555
O2A Ag1 1_555 1_555
Ag1A O2 1_555 1_555
Ag1_2 O2B 1_555 1_555
Ag1C O2B 1_555 1_555
O2_2 Ag1B 1_555 1_555
O2C Ag1B 1_555 1_555
O2 Ag1B_2 1_555 1_555
C2B C3B 1_555 1_555
Ag1B Ag1_2 1_555 1_555

#END
