
#######################################################################
#
#                 Cambridge Crystallographic Data Centre
#                                CCDC 
#
#######################################################################
#
# If this CIF has been generated from an entry in the Cambridge 
# Structural Database, then it will include bibliographic, chemical, 
# crystal, experimental, refinement or atomic coordinate data resulting 
# from the CCDC's data processing and validation procedures.
#
#######################################################################

data_AVOGAT01
_symmetry_cell_setting           monoclinic
_symmetry_space_group_name_H-M   'P 21/c'
_symmetry_Int_Tables_number      14
_space_group_name_Hall           '-P 2ybc'
loop_
_symmetry_equiv_pos_site_id
_symmetry_equiv_pos_as_xyz
1 x,y,z
2 -x,1/2+y,1/2-z
3 -x,-y,-z
4 x,1/2-y,1/2+z
_cell_length_a                   8.3280(10)
_cell_length_b                   6.3170(10)
_cell_length_c                   10.945(2)
_cell_angle_alpha                90
_cell_angle_beta                 94.36(2)
_cell_angle_gamma                90
_cell_volume                     574.128
loop_
_atom_site_label
_atom_site_type_symbol
_atom_site_fract_x
_atom_site_fract_y
_atom_site_fract_z
Ag1 Ag 0.09967(6) 0.44769(6) 0.70351(4)
Ag2 Ag -0.15558(4) 0.16471(6) 0.44813(3)
O1 O 0.1054(4) 0.2412(6) 0.5218(3)
O2 O 0.1422(4) 0.3437(6) 0.3300(3)
O3 O 0.3520(4) 0.6473(6) 0.1913(3)
O4 O 0.2066(5) 0.8108(6) 0.3346(3)
C1 C 0.3498(5) 0.4182(8) 0.4710(4)
C2 C 0.4363(6) 0.3358(7) 0.5701(4)
C3 C 0.4135(5) 0.5821(8) 0.4012(4)
C4 C 0.1874(5) 0.3273(7) 0.4386(4)
C5 C 0.3167(5) 0.6850(8) 0.2996(4)
H1 H 0.39517 0.22806 0.61643
Ag1B Ag 0.90033(6) 0.55231(6) 0.29649(4)
Ag1B_2 Ag -0.09967(6) 0.55231(6) 0.29649(4)
Ag1C Ag 0.09967(6) 0.05231(6) 0.20351(4)
Ag1C_2 Ag 0.09967(6) 1.05231(6) 0.20351(4)
Ag1_2 Ag 1.09967(6) 0.44769(6) 0.70351(4)
Ag1A Ag 0.90033(6) 0.94769(6) 0.79649(4)
Ag1A_2 Ag 0.90033(6) -0.05231(6) 0.79649(4)
Ag2B Ag 1.15558(4) 0.83529(6) 0.55187(3)
Ag2B_2 Ag 0.15558(4) 0.83529(6) 0.55187(3)
Ag2B_3 Ag 0.15558(4) -0.16471(6) 0.55187(3)
Ag2A Ag 0.15558(4) 0.66471(6) 0.05187(3)
Ag2_2 Ag 0.84442(4) 1.16471(6) 0.44813(3)
Ag2C Ag 0.84442(4) 0.33529(6) 0.94813(3)
Ag2_3 Ag 0.84442(4) 0.16471(6) 0.44813(3)
O1B O 0.8946(4) 0.7588(6) 0.4782(3)
O1B_2 O -0.1054(4) -0.2412(6) 0.4782(3)
O1_2 O 1.1054(4) 1.2412(6) 0.5218(3)
O2B O 0.8578(4) 0.6563(6) 0.6700(3)
O2B_2 O -0.1422(4) 0.6563(6) 0.6700(3)
O2C O 0.1422(4) 0.1563(6) 0.8300(3)
O2_2 O 1.1422(4) 0.3437(6) 0.3300(3)
O2A O 0.8578(4) 0.8437(6) 0.1700(3)
O3B O 0.6480(4) 0.3527(6) 0.8087(3)
O3A O -0.3520(4) 0.1473(6) 0.3087(3)
O3C O 1.3520(4) 0.8527(6) 0.6913(3)
O4B O 0.7934(5) 0.1892(6) 0.6654(3)
O4C O 0.2066(5) 0.6892(6) 0.8346(3)
O4B_2 O -0.2066(5) 0.1892(6) 0.6654(3)
O4A O 0.7934(5) 0.3108(6) 0.1654(3)
O4_2 O 1.2066(5) 0.8108(6) 0.3346(3)
C1B C 0.6502(5) 0.5818(8) 0.5290(4)
C2B C 0.5637(6) 0.6642(7) 0.4299(4)
C3B C 0.5865(5) 0.4179(8) 0.5988(4)
C4B C 0.8126(5) 0.6727(7) 0.5614(4)
C5B C 0.6833(5) 0.3150(8) 0.7004(4)
H1B H 0.60483 0.77194 0.38357
loop_
_geom_bond_atom_site_label_1
_geom_bond_atom_site_label_2
_geom_bond_site_symmetry_1
_geom_bond_site_symmetry_2
Ag1 O1 1_555 1_555
Ag2 O1 1_555 1_555
O1 C4 1_555 1_555
O2 C4 1_555 1_555
O3 C5 1_555 1_555
O4 C5 1_555 1_555
C1 C2 1_555 1_555
C2 H1 1_555 1_555
C3 C1 1_555 1_555
C4 C1 1_555 1_555
C5 C3 1_555 1_555
Ag1B Ag2_3 1_555 1_555
Ag1B_2 Ag2 1_555 1_555
Ag1C O2 1_555 1_555
Ag1C_2 O4 1_555 1_555
Ag1_2 Ag2B 1_555 1_555
Ag1A O2B 1_555 1_555
Ag1A_2 Ag2C 1_555 1_555
Ag2B Ag2_2 1_555 1_555
Ag2B_2 Ag1 1_555 1_555
Ag2B_3 Ag2 1_555 1_555
Ag2A O3 1_555 1_555
Ag2_2 O1B 1_555 1_555
Ag2C O3B 1_555 1_555
Ag2_3 O4B 1_555 1_555
O1B Ag1B 1_555 1_555
O1B_2 Ag2 1_555 1_555
O1_2 Ag2B 1_555 1_555
O2B Ag1_2 1_555 1_555
O2B_2 Ag1 1_555 1_555
O2C Ag1 1_555 1_555
O2_2 Ag1B 1_555 1_555
O2A Ag1B 1_555 1_555
O3B C5B 1_555 1_555
O3A Ag2 1_555 1_555
O3C Ag2B 1_555 1_555
O4B Ag1A_2 1_555 1_555
O4C Ag1 1_555 1_555
O4B_2 Ag2 1_555 1_555
O4A Ag1B 1_555 1_555
O4_2 Ag2B 1_555 1_555
C1B C2B 1_555 1_555
C2B C3 1_555 1_555
C3B C2 1_555 1_555
C4B O1B 1_555 1_555
C5B O4B 1_555 1_555
H1B C2B 1_555 1_555
O1 Ag2B_3 1_555 1_555
O2 Ag1B_2 1_555 1_555
O4 Ag2B_2 1_555 1_555
Ag1C_2 Ag2A 1_555 1_555
Ag2B O1B 1_555 1_555
Ag2B_3 O1B_2 1_555 1_555
Ag2_2 O1_2 1_555 1_555
O2B C4B 1_555 1_555
C1B C3B 1_555 1_555
C1B C4B 1_555 1_555
C3B C5B 1_555 1_555

#END
