
#######################################################################
#
#                 Cambridge Crystallographic Data Centre
#                                CCDC 
#
#######################################################################
#
# If this CIF has been generated from an entry in the Cambridge 
# Structural Database, then it will include bibliographic, chemical, 
# crystal, experimental, refinement or atomic coordinate data resulting 
# from the CCDC's data processing and validation procedures.
#
#######################################################################

data_AVOGAT
_symmetry_cell_setting           monoclinic
_symmetry_space_group_name_H-M   'P 21/c'
_symmetry_Int_Tables_number      14
_space_group_name_Hall           '-P 2ybc'
loop_
_symmetry_equiv_pos_site_id
_symmetry_equiv_pos_as_xyz
1 x,y,z
2 x,1/2-y,1/2+z
3 -x,-y,-z
4 -x,1/2+y,1/2-z
_cell_length_a                   8.3338(3)
_cell_length_b                   6.33540(10)
_cell_length_c                   10.9649(4)
_cell_angle_alpha                90
_cell_angle_beta                 90.396(2)
_cell_angle_gamma                90
_cell_volume                     578.91
loop_
_atom_site_label
_atom_site_type_symbol
_atom_site_fract_x
_atom_site_fract_y
_atom_site_fract_z
Ag1 Ag 0.15557(7) 0.16467(10) 0.05192(5)
Ag2 Ag -0.09955(8) 0.44782(11) -0.20355(6)
O1 O -0.1046(6) 0.2409(9) -0.0225(5)
O2 O -0.2057(7) 0.8090(11) 0.1659(5)
O3 O -0.3521(6) 0.6480(10) 0.3086(5)
O4 O -0.1428(7) 0.3433(9) 0.1700(5)
C1 C -0.3164(8) 0.6843(12) 0.2011(7)
C2 C -0.4137(9) 0.5829(13) 0.0989(7)
C3 C -0.1881(9) 0.3271(11) 0.0613(7)
C4 C -0.4361(9) 0.3376(13) -0.0698(8)
H1 H -0.3929 0.2287 -0.1161
C5 C -0.3495(9) 0.4194(13) 0.0281(7)
C4B C -0.5639(9) 0.6624(13) 0.0698(8)
H1B H -0.6071 0.7713 0.1161
C5B C -0.6505(9) 0.5806(13) -0.0281(7)
C2B C -0.5863(9) 0.4171(13) -0.0989(7)
C1B C -0.6836(8) 0.3157(12) -0.2011(7)
O2B O -0.7943(7) 0.1910(11) -0.1659(5)
O3B O -0.6479(6) 0.3520(10) -0.3086(5)
C3B C -0.8119(9) 0.6729(11) -0.0613(7)
O1B O -0.8954(6) 0.7591(9) 0.0225(5)
O4B O -0.8572(7) 0.6567(9) -0.1700(5)
Ag1B Ag -1.15557(7) 0.83533(10) -0.05192(5)
Ag2B Ag -0.90045(8) 0.55218(11) 0.20355(6)
Ag2B_2 Ag 0.09955(8) 0.55218(11) 0.20355(6)
O1B_2 O 0.1046(6) -0.2409(9) 0.0225(5)
O2B_2 O 0.2057(7) 0.1910(11) -0.1659(5)
O3C O 0.3521(6) 0.1480(10) 0.1914(5)
Ag1B_2 Ag -0.15557(7) 0.83533(10) -0.05192(5)
O2A O -0.2057(7) 0.6910(11) -0.3341(5)
O4A O -0.1428(7) 0.1567(9) -0.3300(5)
O4B_2 O 0.1428(7) 0.6567(9) -0.1700(5)
Ag1B_3 Ag -0.15557(7) -0.16467(10) -0.05192(5)
Ag2A Ag -0.09955(8) 1.05218(11) 0.29645(6)
Ag1C Ag -0.15557(7) 0.66467(10) 0.44808(5)
Ag2A_2 Ag -0.09955(8) 0.05218(11) 0.29645(6)
Ag1_2 Ag -0.84443(7) 0.16467(10) 0.05192(5)
Ag2C Ag -0.90045(8) -0.05218(11) -0.29645(6)
Ag1A Ag -0.84443(7) 0.33533(10) -0.44808(5)
Ag1_3 Ag -0.84443(7) 1.16467(10) 0.05192(5)
Ag2_2 Ag -1.09955(8) 0.44782(11) -0.20355(6)
Ag2C_2 Ag -0.90045(8) 0.94782(11) -0.29645(6)
O1_2 O -1.1046(6) 1.2409(9) -0.0225(5)
O2_2 O -1.2057(7) 0.8090(11) 0.1659(5)
O3A O -1.3521(6) 0.8520(10) -0.1914(5)
O2C O -0.7943(7) 0.3090(11) 0.3341(5)
O4_2 O -1.1428(7) 0.3433(9) 0.1700(5)
O4C O -0.8572(7) 0.8433(9) 0.3300(5)
loop_
_geom_bond_atom_site_label_1
_geom_bond_atom_site_label_2
_geom_bond_site_symmetry_1
_geom_bond_site_symmetry_2
Ag1 O1 1_555 1_555
Ag2 O1 1_555 1_555
O1 C3 1_555 1_555
O2 C1 1_555 1_555
O3 C1 1_555 1_555
O4 C3 1_555 1_555
C1 C2 1_555 1_555
C2 C5 1_555 1_555
C3 C5 1_555 1_555
C4 H1 1_555 1_555
C5 C4 1_555 1_555
C4B C2 1_555 1_555
H1B C4B 1_555 1_555
C5B C4B 1_555 1_555
C2B C4 1_555 1_555
C1B C2B 1_555 1_555
O2B C1B 1_555 1_555
O3B C1B 1_555 1_555
C3B C5B 1_555 1_555
O1B C3B 1_555 1_555
O4B C3B 1_555 1_555
Ag1B O1B 1_555 1_555
Ag2B O1B 1_555 1_555
Ag2B_2 Ag1 1_555 1_555
O1B_2 Ag1 1_555 1_555
O2B_2 Ag1 1_555 1_555
O3C Ag1 1_555 1_555
Ag1B_2 Ag2 1_555 1_555
O2A Ag2 1_555 1_555
O4A Ag2 1_555 1_555
O4B_2 Ag2 1_555 1_555
Ag1B_3 O1 1_555 1_555
Ag2A O2 1_555 1_555
Ag1C O3 1_555 1_555
Ag2A_2 O4 1_555 1_555
Ag1_2 O2B 1_555 1_555
Ag2C O2B 1_555 1_555
Ag1A O3B 1_555 1_555
Ag1_3 O1B 1_555 1_555
Ag2_2 O4B 1_555 1_555
Ag2C_2 O4B 1_555 1_555
O1_2 Ag1B 1_555 1_555
O2_2 Ag1B 1_555 1_555
O3A Ag1B 1_555 1_555
O2C Ag2B 1_555 1_555
O4_2 Ag2B 1_555 1_555
O4C Ag2B 1_555 1_555
O2 Ag1B_2 1_555 1_555
O4 Ag2B_2 1_555 1_555
C5B C2B 1_555 1_555
Ag1B Ag2_2 1_555 1_555
Ag2B Ag1_2 1_555 1_555
O1B_2 Ag1B_3 1_555 1_555
Ag2A Ag1C 1_555 1_555
Ag2C Ag1A 1_555 1_555
Ag1_3 O1_2 1_555 1_555

#END
