
#######################################################################
#
#                 Cambridge Crystallographic Data Centre
#                                CCDC 
#
#######################################################################
#
# If this CIF has been generated from an entry in the Cambridge 
# Structural Database, then it will include bibliographic, chemical, 
# crystal, experimental, refinement or atomic coordinate data resulting 
# from the CCDC's data processing and validation procedures.
#
#######################################################################

data_AVOKUS
_symmetry_cell_setting           monoclinic
_symmetry_space_group_name_H-M   'C 2/c'
_symmetry_Int_Tables_number      15
_space_group_name_Hall           '-C 2yn'
loop_
_symmetry_equiv_pos_site_id
_symmetry_equiv_pos_as_xyz
1 x,y,z
2 -x,y,1/2-z
3 1/2+x,1/2+y,z
4 1/2-x,1/2+y,1/2-z
5 -x,-y,-z
6 x,-y,1/2+z
7 1/2-x,1/2-y,-z
8 1/2+x,1/2-y,1/2+z
_cell_length_a                   7.5112(15)
_cell_length_b                   19.151(4)
_cell_length_c                   21.213(4)
_cell_angle_alpha                90
_cell_angle_beta                 93.42(3)
_cell_angle_gamma                90
_cell_volume                     3045.99
loop_
_atom_site_label
_atom_site_type_symbol
_atom_site_fract_x
_atom_site_fract_y
_atom_site_fract_z
Zn1 Zn 0.0000 0.02344(5) 0.7500
Zn2 Zn 0.56990(11) -0.24834(3) 0.42198(4)
O1 O 0.1288(6) 0.0253(2) 0.6677(2)
O2 O 0.3700(7) -0.2778(2) 0.3589(2)
H1 H 0.2839 -0.2515 0.3554
H2 H 0.3353 -0.3178 0.3646
O3 O -0.1977(6) -0.0495(2) 0.7160(2)
H3 H -0.1830 -0.0763 0.6866
H4 H -0.2310 -0.0707 0.7467
O4 O -0.1652(6) 0.1077(2) 0.7147(2)
H5 H -0.1133 0.1405 0.6990
H6 H -0.2697 0.1082 0.7010
O5 O 0.7692(6) -0.2113(2) 0.3761(2)
O6 O 0.4545(7) -0.1757(2) 0.4699(2)
O7 O 0.1276(7) 0.1732(2) 0.4787(2)
O8 O 0.2060(7) -0.0869(2) 0.6637(2)
O9 O 0.4312(7) -0.1146(2) 0.3806(2)
O10 O 0.1873(7) 0.1281(2) 0.3873(2)
O11 O 1.0531(7) -0.2162(3) 0.3544(3)
C1 C 0.2204(9) -0.0186(3) 0.5709(3)
C2 C 0.2870(9) -0.0006(3) 0.4447(3)
H7 H 0.3082 0.0054 0.4023
C3 C 0.4076(8) -0.1213(3) 0.4381(3)
C4 C 0.3270(9) -0.0644(3) 0.4734(3)
C5 C 0.2166(8) 0.0544(3) 0.4775(3)
C6 C 0.1834(8) -0.0280(3) 0.6388(3)
C7 C 0.1742(8) 0.1226(3) 0.4451(3)
C8 C 0.2905(8) -0.0727(3) 0.5368(3)
H8 H 0.3139 -0.1153 0.5565
C9 C 0.1821(9) 0.0454(3) 0.5407(3)
H9 H 0.1334 0.0819 0.5630
C10 C 0.9250(10) -0.2353(4) 0.3837(3)
H10 H 0.9450 -0.2701 0.4138
Na1 Na 0.3350(4) 0.12058(13) 0.68969(12)
O12 O 0.5000 0.0318(3) 0.7500
H11 H 0.5592 0.0078 0.7270
O13 O 0.5000 0.2067(4) 0.7500
H12 H 0.5413 0.2310 0.7226
Zn2A Zn -0.56990(11) -0.24834(3) 1.07802(4)
Zn2B Zn 0.06990(11) 0.25166(3) 0.42198(4)
Zn2C Zn -0.06990(11) 0.25166(3) 1.07802(4)
Zn2D Zn 0.43010(11) 0.24834(3) 0.57802(4)
O1A O -0.1288(6) 0.0253(2) 0.8323(2)
O2A O -0.3700(7) -0.2778(2) 1.1411(2)
H1A H -0.2839 -0.2515 1.1446
H2A H -0.3353 -0.3178 1.1354
O3A O 0.1977(6) -0.0495(2) 0.7840(2)
H3A H 0.1830 -0.0763 0.8134
H4A H 0.2310 -0.0707 0.7533
O4A O 0.1652(6) 0.1077(2) 0.7853(2)
H5A H 0.1133 0.1405 0.8010
H6A H 0.2697 0.1082 0.7990
O5D O 0.2308(6) 0.2113(2) 0.6239(2)
O5A O -0.7692(6) -0.2113(2) 1.1239(2)
O5E O -0.2308(6) 0.2113(2) 0.8761(2)
O6A O -0.4545(7) -0.1757(2) 1.0301(2)
O7A O -0.1276(7) 0.1732(2) 1.0213(2)
O7B O 0.6276(7) -0.3268(2) 0.4787(2)
O7C O -0.6276(7) -0.3268(2) 1.0213(2)
O8A O -0.2060(7) -0.0869(2) 0.8363(2)
O9A O -0.4312(7) -0.1146(2) 1.1194(2)
O9D O 0.5688(7) 0.1146(2) 0.6194(2)
O9E O -0.5688(7) 0.1146(2) 0.8806(2)
O10A O -0.1873(7) 0.1281(2) 1.1127(2)
O11D O -0.0531(7) 0.2162(3) 0.6456(3)
C1A C -0.2204(9) -0.0186(3) 0.9291(3)
C2A C -0.2870(9) -0.0006(3) 1.0553(3)
H7A H -0.3082 0.0054 1.0977
C3A C -0.4076(8) -0.1213(3) 1.0619(3)
C4A C -0.3270(9) -0.0644(3) 1.0266(3)
C5A C -0.2166(8) 0.0544(3) 1.0225(3)
C6A C -0.1834(8) -0.0280(3) 0.8612(3)
C7A C -0.1742(8) 0.1226(3) 1.0549(3)
C8A C -0.2905(8) -0.0727(3) 0.9632(3)
H8A H -0.3139 -0.1153 0.9435
C9A C -0.1821(9) 0.0454(3) 0.9593(3)
H9A H -0.1334 0.0819 0.9370
C10D C 0.0750(10) 0.2353(4) 0.6163(3)
H10D H 0.0550 0.2701 0.5862
Na1A Na -0.3350(4) 0.12058(13) 0.81031(12)
Na1D Na 0.6650(4) -0.12058(13) 0.31031(12)
Na1A_2 Na 0.6650(4) 0.12058(13) 0.81031(12)
Na1E Na -0.6650(4) -0.12058(13) 1.18969(12)
O12_2 O -0.5000 0.0318(3) 0.7500
H11A H 0.4408 0.0078 0.7730
H11A_2 H -0.5592 0.0078 0.7730
H11_2 H -0.4408 0.0078 0.7270
O13_2 O -0.5000 0.2067(4) 0.7500
H12A H 0.4587 0.2310 0.7774
H12A_2 H -0.5413 0.2310 0.7774
H12_2 H -0.4587 0.2310 0.7226
loop_
_geom_bond_atom_site_label_1
_geom_bond_atom_site_label_2
_geom_bond_site_symmetry_1
_geom_bond_site_symmetry_2
Zn1 O1 1_555 1_555
Zn2 O2 1_555 1_555
O1 C6 1_555 1_555
O2 H1 1_555 1_555
H2 O2 1_555 1_555
O3 Zn1 1_555 1_555
H3 O3 1_555 1_555
H4 O3 1_555 1_555
O4 Zn1 1_555 1_555
H5 O4 1_555 1_555
H6 O4 1_555 1_555
O5 Zn2 1_555 1_555
O6 Zn2 1_555 1_555
O7 C7 1_555 1_555
O8 C6 1_555 1_555
O9 C3 1_555 1_555
O10 C7 1_555 1_555
O11 C10 1_555 1_555
C1 C6 1_555 1_555
C2 H7 1_555 1_555
C3 O6 1_555 1_555
C4 C2 1_555 1_555
C5 C2 1_555 1_555
C7 C5 1_555 1_555
C8 C1 1_555 1_555
H8 C8 1_555 1_555
C9 C1 1_555 1_555
H9 C9 1_555 1_555
C10 O5 1_555 1_555
H10 C10 1_555 1_555
Na1 O1 1_555 1_555
O12 Na1 1_555 1_555
H11 O12 1_555 1_555
O13 Na1 1_555 1_555
H12 O13 1_555 1_555
Zn2A O2A 1_555 1_555
Zn2B O7 1_555 1_555
Zn2C O7A 1_555 1_555
Zn2D O5D 1_555 1_555
O1A Zn1 1_555 1_555
O2A H1A 1_555 1_555
H2A O2A 1_555 1_555
O3A Zn1 1_555 1_555
H3A O3A 1_555 1_555
H4A O3A 1_555 1_555
O4A Zn1 1_555 1_555
H5A O4A 1_555 1_555
H6A O4A 1_555 1_555
O5D Na1 1_555 1_555
O5A Zn2A 1_555 1_555
O5E Na1A 1_555 1_555
O6A Zn2A 1_555 1_555
O7A C7A 1_555 1_555
O7B Zn2 1_555 1_555
O7C Zn2A 1_555 1_555
O8A C6A 1_555 1_555
O9A C3A 1_555 1_555
O9D Na1 1_555 1_555
O9E Na1A 1_555 1_555
O10A C7A 1_555 1_555
O11D C10D 1_555 1_555
C1A C6A 1_555 1_555
C2A H7A 1_555 1_555
C3A O6A 1_555 1_555
C4A C2A 1_555 1_555
C5A C2A 1_555 1_555
C6A O1A 1_555 1_555
C7A C5A 1_555 1_555
C8A C1A 1_555 1_555
H8A C8A 1_555 1_555
C9A C1A 1_555 1_555
H9A C9A 1_555 1_555
C10D O5D 1_555 1_555
H10D C10D 1_555 1_555
Na1A O4 1_555 1_555
Na1D O5 1_555 1_555
Na1A_2 O12 1_555 1_555
Na1E O5A 1_555 1_555
O12_2 Na1A 1_555 1_555
H11A O12 1_555 1_555
H11A_2 O12_2 1_555 1_555
H11_2 O12_2 1_555 1_555
O13_2 Na1A 1_555 1_555
H12A O13 1_555 1_555
H12A_2 O13_2 1_555 1_555
H12_2 O13_2 1_555 1_555
O9 Na1D 1_555 1_555
C3 C4 1_555 1_555
C4 C8 1_555 1_555
C5 C9 1_555 1_555
Na1 O4A 1_555 1_555
O13 Na1A_2 1_555 1_555
O1A Na1A 1_555 1_555
O9A Na1E 1_555 1_555
C3A C4A 1_555 1_555
C4A C8A 1_555 1_555
C5A C9A 1_555 1_555

#END
