
#######################################################################
#
#                 Cambridge Crystallographic Data Centre
#                                CCDC 
#
#######################################################################
#
# If this CIF has been generated from an entry in the Cambridge 
# Structural Database, then it will include bibliographic, chemical, 
# crystal, experimental, refinement or atomic coordinate data resulting 
# from the CCDC's data processing and validation procedures.
#
#######################################################################

data_AVOKOL
_symmetry_cell_setting           monoclinic
_symmetry_space_group_name_H-M   'P 21/c'
_symmetry_Int_Tables_number      14
_space_group_name_Hall           '-P 2ybc'
loop_
_symmetry_equiv_pos_site_id
_symmetry_equiv_pos_as_xyz
1 x,y,z
2 x,1/2-y,1/2+z
3 -x,-y,-z
4 -x,1/2+y,1/2-z
_cell_length_a                   13.8679(15)
_cell_length_b                   10.2584(13)
_cell_length_c                   11.6838(10)
_cell_angle_alpha                90
_cell_angle_beta                 97.151(8)
_cell_angle_gamma                90
_cell_volume                     1649.24
loop_
_atom_site_label
_atom_site_type_symbol
_atom_site_fract_x
_atom_site_fract_y
_atom_site_fract_z
Li1 Li 0.2350(3) 0.3232(4) 0.0704(4)
C1 C 0.2773(2) 0.1779(3) 0.2200(2)
H1 H 0.3333(19) 0.206(3) 0.193(2)
C2 C 0.23891(19) 0.2590(2) 0.2990(2)
C3 C 0.1723(2) 0.2287(3) 0.3710(3)
H2 H 0.141(2) 0.147(3) 0.371(2)
H3 H 0.141(2) 0.295(3) 0.409(2)
C4 C 0.2773(2) 0.3998(3) 0.3093(2)
H4 H 0.2405 0.4481 0.3618
H5 H 0.3454 0.3981 0.3438
N1 N 0.27063(16) 0.47069(19) 0.1979(2)
C5 C 0.1876(2) 0.5604(3) 0.1838(3)
H6 H 0.1895 0.6118 0.1134
H7 H 0.1926 0.6208 0.2492
C6 C 0.0927(2) 0.4893(3) 0.1765(3)
H8 H 0.0860 0.4469 0.2502
H9 H 0.0386 0.5503 0.1585
O1 O 0.09210(13) 0.39444(19) 0.08757(17)
C7 C 0.0101(2) 0.3115(3) 0.0838(3)
H10 H 0.0112 0.2667 0.1571
H11 H 0.0119 0.2479 0.0227
H12 H -0.0488 0.3630 0.0692
C8 C 0.3616(2) 0.5382(3) 0.1832(3)
H13 H 0.3865 0.5823 0.2552
H14 H 0.3490 0.6044 0.1228
C9 C 0.4364(2) 0.4439(3) 0.1510(3)
H15 H 0.4964 0.4901 0.1401
H16 H 0.4514 0.3789 0.2121
O2 O 0.39697(14) 0.38235(18) 0.04691(17)
C10 C 0.4611(2) 0.2888(3) 0.0081(3)
H17 H 0.5253 0.3269 0.0093
H18 H 0.4371 0.2623 -0.0699
H19 H 0.4648 0.2134 0.0585
Si1 Si 0.25445(6) 0.00410(7) 0.19988(7)
C11 C 0.1305(2) -0.0349(3) 0.1248(3)
H20 H 0.0818 0.0095 0.1633
H21 H 0.1197 -0.1283 0.1270
H22 H 0.1257 -0.0062 0.0452
C12 C 0.3444(2) -0.0659(3) 0.1097(3)
H23 H 0.3431 -0.0161 0.0390
H24 H 0.3278 -0.1559 0.0913
H25 H 0.4091 -0.0619 0.1523
C13 C 0.2663(2) -0.0915(3) 0.3392(3)
H26 H 0.3245 -0.0642 0.3880
H27 H 0.2706 -0.1838 0.3224
H28 H 0.2098 -0.0756 0.3786
C3A C 0.1723(2) 0.2713(3) -0.1290(3)
Li1A Li 0.2350(3) 0.1768(4) 0.5704(4)
H2A H 0.141(2) 0.353(3) -0.129(2)
H3A H 0.141(2) 0.205(3) -0.091(2)
loop_
_geom_bond_atom_site_label_1
_geom_bond_atom_site_label_2
_geom_bond_site_symmetry_1
_geom_bond_site_symmetry_2
Li1 C1 1_555 1_555
C1 H1 1_555 1_555
C2 C1 1_555 1_555
C3 C2 1_555 1_555
H2 C3 1_555 1_555
H3 C3 1_555 1_555
C4 C2 1_555 1_555
H4 C4 1_555 1_555
H5 C4 1_555 1_555
N1 Li1 1_555 1_555
C5 N1 1_555 1_555
H6 C5 1_555 1_555
H7 C5 1_555 1_555
C6 C5 1_555 1_555
H8 C6 1_555 1_555
H9 C6 1_555 1_555
O1 Li1 1_555 1_555
C7 O1 1_555 1_555
H10 C7 1_555 1_555
H11 C7 1_555 1_555
H12 C7 1_555 1_555
C8 N1 1_555 1_555
H13 C8 1_555 1_555
H14 C8 1_555 1_555
C9 C8 1_555 1_555
H15 C9 1_555 1_555
H16 C9 1_555 1_555
O2 Li1 1_555 1_555
C10 O2 1_555 1_555
H17 C10 1_555 1_555
H18 C10 1_555 1_555
H19 C10 1_555 1_555
Si1 C1 1_555 1_555
C11 Si1 1_555 1_555
H20 C11 1_555 1_555
H21 C11 1_555 1_555
H22 C11 1_555 1_555
C12 Si1 1_555 1_555
H23 C12 1_555 1_555
H24 C12 1_555 1_555
H25 C12 1_555 1_555
C13 Si1 1_555 1_555
H26 C13 1_555 1_555
H27 C13 1_555 1_555
H28 C13 1_555 1_555
C3A Li1 1_555 1_555
Li1A C3 1_555 1_555
H2A C3A 1_555 1_555
H3A C3A 1_555 1_555
C4 N1 1_555 1_555
C6 O1 1_555 1_555
C9 O2 1_555 1_555

#END
