
#######################################################################
#
#                 Cambridge Crystallographic Data Centre
#                                CCDC 
#
#######################################################################
#
# If this CIF has been generated from an entry in the Cambridge 
# Structural Database, then it will include bibliographic, chemical, 
# crystal, experimental, refinement or atomic coordinate data resulting 
# from the CCDC's data processing and validation procedures.
#
#######################################################################

data_AVOLAY
_symmetry_cell_setting           triclinic
_symmetry_space_group_name_H-M   'P -1'
_symmetry_Int_Tables_number      2
_space_group_name_Hall           '-P 1'
loop_
_symmetry_equiv_pos_site_id
_symmetry_equiv_pos_as_xyz
1 x,y,z
2 -x,-y,-z
_cell_length_a                   10.609(4)
_cell_length_b                   12.245(5)
_cell_length_c                   14.736(6)
_cell_angle_alpha                88.26(4)
_cell_angle_beta                 70.43(3)
_cell_angle_gamma                80.23(4)
_cell_volume                     1776.85
loop_
_atom_site_label
_atom_site_type_symbol
_atom_site_fract_x
_atom_site_fract_y
_atom_site_fract_z
Si1 Si -0.06147(15) -0.20272(13) -0.21433(11)
Li1 Li -0.3641(9) -0.0359(8) -0.2592(7)
C1 C -0.2392(5) -0.1976(4) -0.1971(4)
H1 H -0.301(5) -0.145(4) -0.146(4)
C2 C -0.2972(5) -0.2786(4) -0.2287(4)
C3 C -0.2317(7) -0.3740(5) -0.2787(5)
H2 H -0.276(6) -0.414(5) -0.297(4)
H3 H -0.134(6) -0.394(4) -0.306(4)
C4 C -0.4508(5) -0.2530(4) -0.2036(4)
H4 H -0.4832 -0.3191 -0.2187
H5 H -0.4936 -0.2361 -0.1336
N1 N -0.4925(4) -0.1580(3) -0.2575(3)
C5 C -0.6346(5) -0.1078(5) -0.2130(4)
H6 H -0.6919 -0.1671 -0.1935
C6 C -0.6660(6) -0.0429(5) -0.2950(4)
H7 H -0.7642 -0.0327 -0.2855
H8 H -0.6382 0.0308 -0.2992
C7 C -0.5845(6) -0.1130(6) -0.3843(4)
H9 H -0.5480 -0.0656 -0.4393
H10 H -0.6415 -0.1594 -0.4015
C8 C -0.4698(6) -0.1851(5) -0.3597(4)
H11 H -0.4791 -0.2644 -0.3646
C9 C -0.6516(6) -0.0379(5) -0.1263(4)
H12 H -0.7441 0.0063 -0.1029
H13 H -0.6385 -0.0858 -0.0738
O1 O -0.5527(4) 0.0339(3) -0.1538(2)
C10 C -0.5775(6) 0.1192(5) -0.0831(4)
H14 H -0.6707 0.1591 -0.0678
H15 H -0.5138 0.1710 -0.1084
H16 H -0.5651 0.0862 -0.0246
C11 C -0.3315(5) -0.1706(4) -0.4251(4)
H17 H -0.2613 -0.2257 -0.4107
H18 H -0.3239 -0.1819 -0.4931
O2 O -0.3120(4) -0.0606(3) -0.4098(2)
C12 C -0.1936(6) -0.0339(5) -0.4834(4)
H19 H -0.1123 -0.0812 -0.4778
H20 H -0.1877 0.0441 -0.4756
H21 H -0.2001 -0.0464 -0.5470
C13 C -0.0451(6) -0.1038(5) -0.1251(4)
H22 H -0.1017 -0.0319 -0.1261
H23 H 0.0499 -0.0942 -0.1425
H24 H -0.0750 -0.1337 -0.0604
C14 C 0.0318(6) -0.3405(5) -0.1963(5)
H25 H -0.0260 -0.3756 -0.1409
H26 H 0.1147 -0.3306 -0.1844
H27 H 0.0557 -0.3877 -0.2541
C15 C 0.0363(6) -0.1633(6) -0.3381(4)
H28 H 0.0264 -0.2124 -0.3857
H29 H 0.1325 -0.1705 -0.3448
H30 H 0.0014 -0.0864 -0.3488
Li2 Li -0.1962(9) -0.5609(8) -0.2079(7)
C16 C -0.3617(5) 0.3252(5) -0.2348(4)
H31 H -0.403(5) 0.374(4) -0.186(4)
C17 C -0.2893(5) 0.2243(5) -0.2183(4)
C18 C -0.2513(7) 0.1286(5) -0.2738(5)
H32 H -0.192(6) 0.065(5) -0.263(4)
H33 H -0.270(6) 0.127(5) -0.336(4)
C19 C -0.2451(6) 0.2213(5) -0.1293(4)
H34 H -0.3245 0.2501 -0.0724
H35 H -0.2117 0.1435 -0.1173
N2 N -0.1377(4) 0.2876(3) -0.1411(3)
C20 C -0.0031(6) 0.2345(5) -0.2052(4)
H36 H 0.0020 0.1522 -0.2029
C21 C 0.0991(7) 0.2663(7) -0.1635(5)
H37 H 0.1467 0.2000 -0.1412
H38 H 0.1672 0.3025 -0.2125
C22 C 0.0183(6) 0.3452(5) -0.0807(5)
H39 H 0.0166 0.4229 -0.1013
H40 H 0.0569 0.3351 -0.0278
C23 C -0.1232(6) 0.3155(5) -0.0488(4)
H41 H -0.1259 0.2484 -0.0083
C24 C 0.0227(6) 0.2695(5) -0.3078(4)
H42 H 0.1176 0.2400 -0.3474
H43 H -0.0385 0.2393 -0.3348
O3 O -0.0005(4) 0.3860(3) -0.3100(3)
C25 C 0.0576(8) 0.4234(6) -0.4042(5)
H44 H 0.1554 0.3955 -0.4276
H45 H 0.0417 0.5046 -0.4033
H46 H 0.0158 0.3959 -0.4471
C26 C -0.2351(6) 0.4066(5) 0.0040(4)
H47 H -0.3219 0.3782 0.0294
H48 H -0.2151 0.4352 0.0589
O4 O -0.2456(4) 0.4932(3) -0.0612(2)
C27 C -0.3325(6) 0.5904(5) -0.0140(4)
H49 H -0.4255 0.5755 0.0139
H50 H -0.3301 0.6496 -0.0605
H51 H -0.3023 0.6135 0.0373
Si2 Si -0.43442(17) 0.35494(14) -0.32953(12)
C28 C -0.5722(7) 0.4807(5) -0.2943(6)
H52 H -0.6514 0.4617 -0.2431
H53 H -0.5981 0.5055 -0.3505
H54 H -0.5387 0.5403 -0.2711
C29 C -0.5194(6) 0.2417(5) -0.3553(5)
H55 H -0.4501 0.1788 -0.3882
H56 H -0.5728 0.2701 -0.3965
H57 H -0.5794 0.2175 -0.2946
C30 C -0.3063(8) 0.3794(7) -0.4478(5)
H58 H -0.2664 0.4441 -0.4415
H59 H -0.3506 0.3929 -0.4967
H60 H -0.2347 0.3141 -0.4672
C16_2 C -0.3617(5) -0.6748(5) -0.2348(4)
N2_2 N -0.1377(4) -0.7124(3) -0.1411(3)
O3_2 O -0.0005(4) -0.6140(3) -0.3100(3)
O4_2 O -0.2456(4) -0.5068(3) -0.0612(2)
Li2_2 Li -0.1962(9) 0.4391(8) -0.2079(7)
H31_2 H -0.403(5) -0.626(4) -0.186(4)
loop_
_geom_bond_atom_site_label_1
_geom_bond_atom_site_label_2
_geom_bond_site_symmetry_1
_geom_bond_site_symmetry_2
Si1 C1 1_555 1_555
Li1 C1 1_555 1_555
C1 H1 1_555 1_555
C2 C1 1_555 1_555
C3 C2 1_555 1_555
H2 C3 1_555 1_555
H3 C3 1_555 1_555
C4 C2 1_555 1_555
H4 C4 1_555 1_555
H5 C4 1_555 1_555
N1 Li1 1_555 1_555
C5 N1 1_555 1_555
H6 C5 1_555 1_555
C6 C5 1_555 1_555
H7 C6 1_555 1_555
H8 C6 1_555 1_555
C7 C6 1_555 1_555
H9 C7 1_555 1_555
H10 C7 1_555 1_555
C8 N1 1_555 1_555
H11 C8 1_555 1_555
C9 C5 1_555 1_555
H12 C9 1_555 1_555
H13 C9 1_555 1_555
O1 Li1 1_555 1_555
C10 O1 1_555 1_555
H14 C10 1_555 1_555
H15 C10 1_555 1_555
H16 C10 1_555 1_555
C11 C8 1_555 1_555
H17 C11 1_555 1_555
H18 C11 1_555 1_555
O2 Li1 1_555 1_555
C12 O2 1_555 1_555
H19 C12 1_555 1_555
H20 C12 1_555 1_555
H21 C12 1_555 1_555
C13 Si1 1_555 1_555
H22 C13 1_555 1_555
H23 C13 1_555 1_555
H24 C13 1_555 1_555
C14 Si1 1_555 1_555
H25 C14 1_555 1_555
H26 C14 1_555 1_555
H27 C14 1_555 1_555
C15 Si1 1_555 1_555
H28 C15 1_555 1_555
H29 C15 1_555 1_555
H30 C15 1_555 1_555
Li2 C3 1_555 1_555
C16 H31 1_555 1_555
C17 C16 1_555 1_555
C18 Li1 1_555 1_555
H32 C18 1_555 1_555
H33 C18 1_555 1_555
C19 C17 1_555 1_555
H34 C19 1_555 1_555
H35 C19 1_555 1_555
N2 C19 1_555 1_555
C20 N2 1_555 1_555
H36 C20 1_555 1_555
C21 C20 1_555 1_555
H37 C21 1_555 1_555
H38 C21 1_555 1_555
C22 C21 1_555 1_555
H39 C22 1_555 1_555
H40 C22 1_555 1_555
C23 N2 1_555 1_555
H41 C23 1_555 1_555
C24 C20 1_555 1_555
H42 C24 1_555 1_555
H43 C24 1_555 1_555
O3 C24 1_555 1_555
C25 O3 1_555 1_555
H44 C25 1_555 1_555
H45 C25 1_555 1_555
H46 C25 1_555 1_555
C26 C23 1_555 1_555
H47 C26 1_555 1_555
H48 C26 1_555 1_555
O4 C26 1_555 1_555
C27 O4 1_555 1_555
H49 C27 1_555 1_555
H50 C27 1_555 1_555
H51 C27 1_555 1_555
Si2 C16 1_555 1_555
C28 Si2 1_555 1_555
H52 C28 1_555 1_555
H53 C28 1_555 1_555
H54 C28 1_555 1_555
C29 Si2 1_555 1_555
H55 C29 1_555 1_555
H56 C29 1_555 1_555
H57 C29 1_555 1_555
C30 Si2 1_555 1_555
H58 C30 1_555 1_555
H59 C30 1_555 1_555
H60 C30 1_555 1_555
C16_2 Li2 1_555 1_555
N2_2 Li2 1_555 1_555
O3_2 Li2 1_555 1_555
O4_2 Li2 1_555 1_555
Li2_2 C16 1_555 1_555
H31_2 C16_2 1_555 1_555
C4 N1 1_555 1_555
C7 C8 1_555 1_555
C9 O1 1_555 1_555
C11 O2 1_555 1_555
C17 C18 1_555 1_555
N2 Li2_2 1_555 1_555
C22 C23 1_555 1_555
O3 Li2_2 1_555 1_555
O4 Li2_2 1_555 1_555

#END
