
#######################################################################
#
#                 Cambridge Crystallographic Data Centre
#                                CCDC 
#
#######################################################################
#
# If this CIF has been generated from an entry in the Cambridge 
# Structural Database, then it will include bibliographic, chemical, 
# crystal, experimental, refinement or atomic coordinate data resulting 
# from the CCDC's data processing and validation procedures.
#
#######################################################################

data_AVOLAZ
_symmetry_cell_setting           triclinic
_symmetry_space_group_name_H-M   'P 1'
_symmetry_Int_Tables_number      1
_space_group_name_Hall           'P 1'
loop_
_symmetry_equiv_pos_site_id
_symmetry_equiv_pos_as_xyz
1 x,y,z
_cell_length_a                   7.9024(16)
_cell_length_b                   9.3784(19)
_cell_length_c                   9.7093(19)
_cell_angle_alpha                61.65(3)
_cell_angle_beta                 71.60(3)
_cell_angle_gamma                80.38(3)
_cell_volume                     600.768
loop_
_atom_site_label
_atom_site_type_symbol
_atom_site_fract_x
_atom_site_fract_y
_atom_site_fract_z
Zn1 Zn 0.03355(9) 0.45915(8) 0.67466(8)
Zn2 Zn -0.20972(4) 0.26934(4) 0.02850(4)
Zn3 Zn 0.28316(5) 1.65995(4) 0.30859(4)
Na1 Na 0.5508(3) 0.9532(3) 1.1755(3)
O1 O 0.1363(4) 0.6460(4) 0.6620(4)
O2 O -0.0996(4) 0.2974(3) 0.6713(3)
O3 O -0.4853(5) 0.2394(4) 0.1106(4)
H1 H -0.5410 0.2955 0.1548
H2 H -0.5123 0.2676 0.0263
O4 O 0.3711(5) 0.9616(4) 1.0245(4)
O5 O -0.1885(5) 0.1888(4) 0.2481(4)
O6 O 0.2577(4) 1.4354(3) 0.5070(4)
O7 O -0.2222(4) -0.5029(3) 0.8339(4)
O8 O 0.2588(5) 0.7291(4) 1.0924(4)
O9 O 0.2745(4) 0.8108(4) 0.4042(4)
O10 O -0.2087(5) 0.1192(4) 0.9316(4)
O11 O -0.0254(5) 0.6356(4) 0.4158(5)
H3 H 0.0187 0.5467 0.4260
H4 H -0.0439 0.6882 0.3260
O12 O 0.5623(5) 1.6634(4) 0.2601(4)
H5 H 0.6164 1.6359 0.1889
H6 H 0.5664 1.5911 0.3500
O13 O 0.3536(5) 1.3833(4) 0.2989(4)
O14 O 0.0647(4) 0.3103(4) 0.9045(4)
O15 O -0.2605(5) -0.4605(4) 1.0463(4)
O16 O -0.2343(5) -0.0646(4) 0.3057(4)
O17 O 0.3396(4) 0.3566(4) 0.8852(4)
C1 C 0.2969(6) 1.1562(5) 0.5587(5)
C2 C -0.1629(6) 0.1616(5) 0.7819(5)
C3 C 0.2199(6) 0.7714(5) 0.5551(5)
C4 C 0.3096(6) 0.8714(5) 0.9926(5)
C5 C -0.2444(6) -0.4070(5) 0.8979(5)
C6 C -0.2128(6) -0.1208(6) 0.8370(5)
H7 H -0.2087 -0.1573 0.9433
C7 C 0.3053(6) 1.3336(5) 0.4456(5)
C8 C 0.3130(6) 1.0976(5) 0.7164(5)
H8 H 0.3353 1.1683 0.7505
C9 C 0.2729(6) 1.0489(5) 0.5044(5)
H9 H 0.2693 1.0874 0.3977
C10 C -0.2474(6) -0.1749(5) 0.6307(5)
H10 H -0.2712 -0.2474 0.5995
C11 C -0.1894(6) 0.0971(5) 0.5670(5)
H11 H -0.1689 0.2053 0.4921
C12 C 0.2632(6) 0.8266(5) 0.7704(5)
H12 H 0.2475 0.7171 0.8422
C13 C -0.2402(6) -0.2288(5) 0.7885(5)
C14 C 0.2950(6) 0.9316(5) 0.8223(5)
C15 C -0.2192(6) -0.0137(5) 0.5194(5)
C16 C -0.1909(6) 0.0435(5) 0.7278(5)
C17 C 0.1917(5) 0.3030(5) 0.9630(5)
H13 H 0.1684 0.2517 1.0756
C18 C 0.2545(6) 0.8842(5) 0.6109(5)
C19 C -0.2143(6) 0.0374(5) 0.3471(5)
Zn1_2 Zn 0.03355(9) 1.45915(8) 0.67466(8)
Zn1_3 Zn 0.03355(9) -0.54085(8) 0.67466(8)
Zn2_2 Zn -0.20972(4) -0.73066(4) 1.02850(4)
Zn2_3 Zn -0.20972(4) 0.26934(4) 1.02850(4)
Zn3_2 Zn 0.28316(5) 0.65995(4) 1.30859(4)
Zn3_3 Zn 0.28316(5) 0.65995(4) 0.30859(4)
Na1_2 Na -0.4492(3) -0.0468(3) 0.1755(3)
Na1_3 Na 0.5508(3) 0.9532(3) 0.1755(3)
Na1_4 Na -0.4492(3) -0.0468(3) 1.1755(3)
Na1_5 Na 0.5508(3) 1.9532(3) 0.1755(3)
O3_2 O 0.5147(5) 1.2394(4) 1.1106(4)
H1_2 H 0.4590 1.2955 1.1548
H2_2 H 0.4877 1.2676 1.0263
O6_2 O 0.2577(4) 0.4354(3) 0.5070(4)
O7_2 O -0.2222(4) 0.4971(3) 0.8339(4)
O7_3 O -0.2222(4) 0.4971(3) -0.1661(4)
O8_2 O 0.2588(5) 1.7291(4) 0.0924(4)
O9_2 O 0.2745(4) 1.8108(4) 0.4042(4)
O9_3 O 0.2745(4) 0.8108(4) 1.4042(4)
O10_2 O -0.2087(5) 0.1192(4) -0.0684(4)
O10_3 O 0.7913(5) 1.1192(4) 0.9316(4)
O11_2 O -0.0254(5) 1.6356(4) 0.4158(5)
H3_2 H 0.0187 1.5467 0.4260
H4_2 H -0.0439 1.6882 0.3260
O12_2 O 0.5623(5) 0.6634(4) 1.2601(4)
H5_2 H 0.6164 0.6359 1.1889
H6_2 H 0.5664 0.5911 1.3500
O14_2 O 0.0647(4) 0.3103(4) -0.0955(4)
O16_2 O 0.7657(5) 0.9354(4) 1.3057(4)
O18 O -0.0195(6) 0.4862(5) 0.2356(5)
H14 H 0.0714 0.5382 0.2000
H15 H -0.1089 0.5452 0.2340
O19 O 0.5868(5) 0.5068(5) 0.5666(5)
H16 H 0.4870 0.4853 0.6305
H17 H 0.6614 0.4404 0.6054
loop_
_geom_bond_atom_site_label_1
_geom_bond_atom_site_label_2
_geom_bond_site_symmetry_1
_geom_bond_site_symmetry_2
Zn1 O1 1_555 1_555
Zn2 O3 1_555 1_555
Zn3 O6 1_555 1_555
Na1 O4 1_555 1_555
O1 C3 1_555 1_555
O2 Zn1 1_555 1_555
O3 H1 1_555 1_555
H2 O3 1_555 1_555
O4 C4 1_555 1_555
O5 Zn2 1_555 1_555
O6 C7 1_555 1_555
O7 C5 1_555 1_555
O8 C4 1_555 1_555
O9 C3 1_555 1_555
O10 C2 1_555 1_555
O11 Zn1 1_555 1_555
H3 O11 1_555 1_555
H4 O11 1_555 1_555
O12 Zn3 1_555 1_555
H5 O12 1_555 1_555
H6 O12 1_555 1_555
O13 C7 1_555 1_555
O14 Zn1 1_555 1_555
O15 C5 1_555 1_555
O16 C19 1_555 1_555
O17 C17 1_555 1_555
C1 C7 1_555 1_555
C2 O2 1_555 1_555
C3 C18 1_555 1_555
C4 C14 1_555 1_555
C5 C13 1_555 1_555
C6 H7 1_555 1_555
C8 C1 1_555 1_555
H8 C8 1_555 1_555
C9 C1 1_555 1_555
H9 C9 1_555 1_555
C10 H10 1_555 1_555
C11 H11 1_555 1_555
C12 H12 1_555 1_555
C13 C6 1_555 1_555
C14 C8 1_555 1_555
C15 C10 1_555 1_555
C16 C2 1_555 1_555
C17 O14 1_555 1_555
H13 C17 1_555 1_555
C18 C9 1_555 1_555
C19 O5 1_555 1_555
O18 H14 1_555 1_555
H15 O18 1_555 1_555
O19 H16 1_555 1_555
H17 O19 1_555 1_555
Zn1_2 O6 1_555 1_555
Zn1_3 O7 1_555 1_555
Zn2_2 O7 1_555 1_555
Zn2_3 O10 1_555 1_555
Zn3_2 O8 1_555 1_555
Zn3_3 O9 1_555 1_555
Na1_2 O3 1_555 1_555
Na1_3 O9 1_555 1_555
Na1_4 O10 1_555 1_555
Na1_5 O12 1_555 1_555
O3_2 Na1 1_555 1_555
H1_2 O3_2 1_555 1_555
H2_2 O3_2 1_555 1_555
O6_2 Zn1 1_555 1_555
O7_2 Zn1 1_555 1_555
O7_3 Zn2 1_555 1_555
O8_2 Zn3 1_555 1_555
O9_2 Zn3 1_555 1_555
O9_3 Na1 1_555 1_555
O10_2 Zn2 1_555 1_555
O10_3 Na1 1_555 1_555
O11_2 Zn3 1_555 1_555
H3_2 O11_2 1_555 1_555
H4_2 O11_2 1_555 1_555
O12_2 Na1 1_555 1_555
H5_2 O12_2 1_555 1_555
H6_2 O12_2 1_555 1_555
O14_2 Zn2 1_555 1_555
O16_2 Na1 1_555 1_555
O11 Zn3_3 1_555 1_555
O14 Zn2_3 1_555 1_555
O16 Na1_2 1_555 1_555
C6 C16 1_555 1_555
C10 C13 1_555 1_555
C11 C15 1_555 1_555
C11 C16 1_555 1_555
C12 C14 1_555 1_555
C12 C18 1_555 1_555
C15 C19 1_555 1_555
Zn1_2 O11_2 1_555 1_555
Zn2_3 O7_2 1_555 1_555
Zn3_2 O9_3 1_555 1_555
Zn3_2 O12_2 1_555 1_555
Zn3_3 O6_2 1_555 1_555
Na1_2 O10_2 1_555 1_555
Na1_5 O9_2 1_555 1_555

#END
