
#######################################################################
#
#                 Cambridge Crystallographic Data Centre
#                                CCDC 
#
#######################################################################
#
# If this CIF has been generated from an entry in the Cambridge 
# Structural Database, then it will include bibliographic, chemical, 
# crystal, experimental, refinement or atomic coordinate data resulting 
# from the CCDC's data processing and validation procedures.
#
#######################################################################

data_AVOMII
_symmetry_cell_setting           orthorhombic
_symmetry_space_group_name_H-M   'P b c a'
_symmetry_Int_Tables_number      61
_space_group_name_Hall           '-P 2ac 2ab'
loop_
_symmetry_equiv_pos_site_id
_symmetry_equiv_pos_as_xyz
1 x,y,z
2 1/2-x,-y,1/2+z
3 -x,1/2+y,1/2-z
4 1/2+x,1/2-y,-z
5 -x,-y,-z
6 1/2+x,y,1/2-z
7 x,1/2-y,1/2+z
8 1/2-x,1/2+y,z
_cell_length_a                   16.080(6)
_cell_length_b                   15.054(6)
_cell_length_c                   19.340(7)
_cell_angle_alpha                90
_cell_angle_beta                 90
_cell_angle_gamma                90
_cell_volume                     4681.6
loop_
_atom_site_label
_atom_site_type_symbol
_atom_site_fract_x
_atom_site_fract_y
_atom_site_fract_z
Zn1 Zn 0.09614(4) 0.72847(5) 0.45281(3)
N1 N 0.0667(3) 0.6155(3) 0.3962(2)
N2 N -0.0177(3) 0.6967(3) 0.4988(2)
O1 O 0.2024(3) 0.7002(3) 0.5020(2)
O2 O 0.1325(3) 0.7922(3) 0.5677(2)
O3 O 0.3324(4) 1.2221(4) 0.8396(3)
O4 O 0.4111(3) 1.1508(3) 0.9148(2)
C1 C 0.1958(4) 0.7484(4) 0.5555(3)
C2 C 0.2667(4) 0.7499(4) 0.6057(3)
C3 C 0.3283(4) 0.6860(4) 0.6066(3)
H1 H 0.3265 0.6391 0.5753
C4 C 0.3919(4) 0.6914(5) 0.6533(4)
H2 H 0.4323 0.6472 0.6549
C5 C 0.3963(4) 0.7632(5) 0.6986(3)
H3 H 0.4404 0.7669 0.7295
C6 C 0.3359(4) 0.8296(4) 0.6984(3)
C7 C 0.2711(4) 0.8199(4) 0.6520(3)
H4 H 0.2289 0.8621 0.6519
C8 C 0.3411(4) 0.9107(4) 0.7440(3)
C9 C 0.2927(4) 0.9859(5) 0.7299(3)
H5 H 0.2543 0.9839 0.6940
C10 C 0.3006(4) 1.0631(5) 0.7680(3)
H6 H 0.2675 1.1119 0.7575
C11 C 0.3569(4) 1.0683(5) 0.8209(3)
C12 C 0.4047(5) 0.9946(5) 0.8365(3)
H7 H 0.4424 0.9973 0.8729
C13 C 0.3971(5) 0.9158(5) 0.7982(3)
H8 H 0.4297 0.8668 0.8093
C14 C 0.3670(5) 1.1549(5) 0.8610(4)
C15 C 0.1078(4) 0.5765(4) 0.3449(3)
H9 H 0.1567 0.6027 0.3293
C16 C 0.0816(4) 0.4993(5) 0.3138(4)
H10 H 0.1129 0.4741 0.2785
C17 C 0.0100(4) 0.4599(4) 0.3347(3)
H11 H -0.0079 0.4076 0.3140
C18 C -0.0369(4) 0.4993(4) 0.3883(3)
C19 C -0.0056(3) 0.5771(3) 0.4179(3)
C20 C -0.0501(3) 0.6211(4) 0.4724(3)
C21 C -0.1126(4) 0.4632(4) 0.4148(3)
H12 H -0.1329 0.4103 0.3966
C22 C -0.1551(4) 0.5042(4) 0.4655(3)
H13 H -0.2049 0.4798 0.4809
C23 C -0.1253(4) 0.5847(4) 0.4962(3)
C24 C -0.1671(4) 0.6318(5) 0.5483(3)
H14 H -0.2175 0.6107 0.5651
C25 C -0.1348(4) 0.7077(5) 0.5741(3)
H15 H -0.1626 0.7387 0.6086
C26 C -0.0595(4) 0.7389(4) 0.5487(3)
H16 H -0.0374 0.7909 0.5669
Zn1A Zn 0.40386(4) 1.27153(5) 0.95281(3)
O4A O 0.0889(3) 0.8492(3) 0.4148(2)
O5 O 0.4064(8) 0.4816(9) 0.5402(6)
H17 H 0.3882 0.4381 0.5639
H18 H 0.4352 0.4618 0.5068
O6 O 0.4275(4) 0.2532(4) 0.7063(3)
H19 H 0.4010 0.2383 0.6700
H20 H 0.3918 0.2582 0.7401
loop_
_geom_bond_atom_site_label_1
_geom_bond_atom_site_label_2
_geom_bond_site_symmetry_1
_geom_bond_site_symmetry_2
Zn1 N1 1_555 1_555
N1 C15 1_555 1_555
N2 Zn1 1_555 1_555
O1 Zn1 1_555 1_555
O2 Zn1 1_555 1_555
O3 C14 1_555 1_555
O4 C14 1_555 1_555
C1 O1 1_555 1_555
C2 C1 1_555 1_555
C3 C2 1_555 1_555
H1 C3 1_555 1_555
C4 C3 1_555 1_555
H2 C4 1_555 1_555
C5 C4 1_555 1_555
H3 C5 1_555 1_555
C6 C5 1_555 1_555
C7 C2 1_555 1_555
H4 C7 1_555 1_555
C8 C6 1_555 1_555
C9 C8 1_555 1_555
H5 C9 1_555 1_555
C10 C9 1_555 1_555
H6 C10 1_555 1_555
C11 C10 1_555 1_555
C12 C11 1_555 1_555
H7 C12 1_555 1_555
C13 C8 1_555 1_555
H8 C13 1_555 1_555
C14 C11 1_555 1_555
C15 H9 1_555 1_555
C16 C15 1_555 1_555
H10 C16 1_555 1_555
C17 C16 1_555 1_555
H11 C17 1_555 1_555
C18 C17 1_555 1_555
C19 N1 1_555 1_555
C20 N2 1_555 1_555
C21 C18 1_555 1_555
H12 C21 1_555 1_555
C22 C21 1_555 1_555
H13 C22 1_555 1_555
C23 C20 1_555 1_555
C24 C23 1_555 1_555
H14 C24 1_555 1_555
C25 C24 1_555 1_555
H15 C25 1_555 1_555
C26 N2 1_555 1_555
H16 C26 1_555 1_555
O5 H17 1_555 1_555
H18 O5 1_555 1_555
O6 H19 1_555 1_555
H20 O6 1_555 1_555
Zn1A O4 1_555 1_555
O4A Zn1 1_555 1_555
O2 C1 1_555 1_555
C6 C7 1_555 1_555
C12 C13 1_555 1_555
C18 C19 1_555 1_555
C19 C20 1_555 1_555
C22 C23 1_555 1_555
C25 C26 1_555 1_555

#END
