
#######################################################################
#
#                 Cambridge Crystallographic Data Centre
#                                CCDC 
#
#######################################################################
#
# If this CIF has been generated from an entry in the Cambridge 
# Structural Database, then it will include bibliographic, chemical, 
# crystal, experimental, refinement or atomic coordinate data resulting 
# from the CCDC's data processing and validation procedures.
#
#######################################################################

data_AVOMUU
_symmetry_cell_setting           monoclinic
_symmetry_space_group_name_H-M   'P 21/c'
_symmetry_Int_Tables_number      14
_space_group_name_Hall           '-P 2ybc'
loop_
_symmetry_equiv_pos_site_id
_symmetry_equiv_pos_as_xyz
1 x,y,z
2 -x,1/2+y,1/2-z
3 -x,-y,-z
4 x,1/2-y,1/2+z
_cell_length_a                   13.682(4)
_cell_length_b                   14.692(5)
_cell_length_c                   6.0405(18)
_cell_angle_alpha                90
_cell_angle_beta                 97.086(5)
_cell_angle_gamma                90
_cell_volume                     1204.96
loop_
_atom_site_label
_atom_site_type_symbol
_atom_site_fract_x
_atom_site_fract_y
_atom_site_fract_z
Zn1 Zn 1.38918(2) 0.07511(2) 0.08011(5)
O1 O 1.25472(14) 0.07671(13) 0.1490(3)
O2 O 1.30679(14) 0.16381(14) 0.4383(3)
O3 O 0.60676(14) 0.02947(14) 0.1131(3)
O4 O 0.49764(14) 0.08774(14) 0.3137(3)
O5 O 1.39869(18) 0.17553(18) -0.1407(4)
C1 C 1.13749(18) 0.12154(16) 0.3836(4)
C2 C 1.0608(2) 0.08298(17) 0.2439(4)
H1 H 1.0735 0.0554 0.1118
C3 C 0.9655(2) 0.08495(17) 0.2982(4)
H2 H 0.9151 0.0590 0.2012
C4 C 0.94337(18) 0.12513(15) 0.4955(4)
C5 C 1.02139(19) 0.16349(18) 0.6340(4)
H3 H 1.0092 0.1910 0.7665
C6 C 1.11679(19) 0.16173(18) 0.5795(5)
H4 H 1.1674 0.1878 0.6756
C7 C 1.24005(19) 0.12051(17) 0.3228(4)
C8 C 0.84039(18) 0.12691(15) 0.5538(4)
C9 C 0.76221(19) 0.09429(16) 0.4064(4)
H5 H 0.7749 0.0680 0.2727
C10 C 0.66567(18) 0.09997(16) 0.4538(4)
C11 C 0.64490(19) 0.13741(17) 0.6546(4)
H6 H 0.5803 0.1418 0.6867
C12 C 0.72214(19) 0.16784(17) 0.8050(4)
H7 H 0.7095 0.1919 0.9410
C13 C 0.81800(19) 0.16310(17) 0.7562(4)
H8 H 0.8688 0.1844 0.8599
C14 C 0.5848(2) 0.06901(16) 0.2822(4)
H9 H 1.383(3) 0.226(3) -0.106(7)
H10 H 1.378(3) 0.165(3) -0.263(7)
Zn1B Zn 0.61082(2) -0.07511(2) -0.08011(5)
Zn1_2 Zn 0.38918(2) 0.07511(2) 0.08011(5)
O3B O 1.39324(14) -0.02947(14) -0.1131(3)
O4_2 O 1.49764(14) 0.08774(14) 0.3137(3)
loop_
_geom_bond_atom_site_label_1
_geom_bond_atom_site_label_2
_geom_bond_site_symmetry_1
_geom_bond_site_symmetry_2
Zn1 O1 1_555 1_555
O1 C7 1_555 1_555
O2 C7 1_555 1_555
O3 C14 1_555 1_555
O4 C14 1_555 1_555
O5 Zn1 1_555 1_555
C1 C2 1_555 1_555
C2 H1 1_555 1_555
C3 C2 1_555 1_555
H2 C3 1_555 1_555
C4 C3 1_555 1_555
C5 C4 1_555 1_555
H3 C5 1_555 1_555
C6 C1 1_555 1_555
H4 C6 1_555 1_555
C7 C1 1_555 1_555
C8 C4 1_555 1_555
C9 C8 1_555 1_555
H5 C9 1_555 1_555
C10 C9 1_555 1_555
C11 C10 1_555 1_555
H6 C11 1_555 1_555
C12 C11 1_555 1_555
H7 C12 1_555 1_555
C13 C8 1_555 1_555
H8 C13 1_555 1_555
C14 C10 1_555 1_555
H9 O5 1_555 1_555
H10 O5 1_555 1_555
Zn1B O3 1_555 1_555
Zn1_2 O4 1_555 1_555
O3B Zn1 1_555 1_555
O4_2 Zn1 1_555 1_555
C5 C6 1_555 1_555
C12 C13 1_555 1_555

#END
