
#######################################################################
#
#                 Cambridge Crystallographic Data Centre
#                                CCDC 
#
#######################################################################
#
# If this CIF has been generated from an entry in the Cambridge 
# Structural Database, then it will include bibliographic, chemical, 
# crystal, experimental, refinement or atomic coordinate data resulting 
# from the CCDC's data processing and validation procedures.
#
#######################################################################

data_AVOXAL01
_symmetry_cell_setting           monoclinic
_symmetry_space_group_name_H-M   'P 21/c'
_symmetry_Int_Tables_number      14
_space_group_name_Hall           '-P 2ybc'
loop_
_symmetry_equiv_pos_site_id
_symmetry_equiv_pos_as_xyz
1 x,y,z
2 -x,1/2+y,1/2-z
3 -x,-y,-z
4 x,1/2-y,1/2+z
_cell_length_a                   8.6750(15)
_cell_length_b                   15.167(3)
_cell_length_c                   15.735(3)
_cell_angle_alpha                90
_cell_angle_beta                 92.768(2)
_cell_angle_gamma                90
_cell_volume                     2067.9
loop_
_atom_site_label
_atom_site_type_symbol
_atom_site_fract_x
_atom_site_fract_y
_atom_site_fract_z
Cu1 Cu 0.0000 0.0000 0.0000
Cu2 Cu -0.25659(4) 0.24638(2) 0.10098(3)
Cu3 Cu 0.0000 0.5000 0.0000
C1 C 0.2435(4) 0.3056(2) -0.1186(2)
H1 H 0.3214 0.2635 -0.1170
C2 C 0.1641(5) 0.3359(2) -0.1893(3)
H2 H 0.1767 0.3188 -0.2453
C3 C 0.0608(4) 0.3974(2) -0.1608(2)
H3 H -0.0088 0.4291 -0.1957
C4 C 0.2364(4) 0.3429(2) 0.0372(2)
H4 H 0.3155 0.2981 0.0451
H5 H 0.1495 0.3263 0.0702
C5 C 0.4413(4) 0.4479(2) 0.0947(2)
H6 H 0.5249 0.4097 0.1009
C6 C 0.4422(4) 0.5355(3) 0.1128(2)
H7 H 0.5246 0.5691 0.1347
C7 C 0.2945(4) 0.5643(2) 0.0923(2)
H8 H 0.2624 0.6225 0.0965
C8 C 0.3008(3) 0.06049(19) 0.0876(2)
H9 H 0.3135 0.1092 0.0528
C9 C 0.3891(4) 0.0433(2) 0.1605(2)
H10 H 0.4710 0.0764 0.1836
C10 C 0.3307(3) -0.0332(2) 0.1919(2)
H11 H 0.3655 -0.0622 0.2412
C11 C 0.1162(3) -0.13448(18) 0.1443(2)
H12 H 0.1506 -0.1709 0.1922
H13 H 0.1207 -0.1695 0.0929
C12 C -0.1310(4) -0.1179(2) 0.2202(2)
H14 H -0.1060 -0.1496 0.2696
C13 C -0.2661(4) -0.0757(3) 0.2011(2)
H15 H -0.3523 -0.0735 0.2340
C14 C -0.2505(4) -0.0363(2) 0.1224(2)
H16 H -0.3250 -0.0019 0.0937
N1 N 0.0743(3) 0.40495(16) -0.07655(17)
N2 N 0.1887(3) 0.34813(16) -0.05153(17)
N3 N 0.2041(3) 0.49836(16) 0.06508(17)
N4 N 0.2975(3) 0.42665(16) 0.06668(16)
N5 N 0.2154(3) -0.05896(15) 0.13895(15)
N6 N 0.1934(3) -0.00189(15) 0.07322(15)
N7 N -0.0405(3) -0.10549(15) 0.15524(15)
N8 N -0.1118(3) -0.05464(16) 0.09424(15)
Cl1 Cl -0.41604(9) 0.20105(6) -0.00548(6)
Cl2 Cl -0.41488(14) 0.25127(6) 0.20831(7)
Cl3 Cl -0.14807(8) 0.38356(5) 0.11805(5)
Cl4 Cl -0.03855(10) 0.17326(5) 0.07641(6)
Cu2B Cu 0.25659(4) -0.24638(2) -0.10098(3)
Cu3_2 Cu 0.0000 -0.5000 0.0000
C1B C -0.2435(4) 0.6944(2) 0.1186(2)
H1B H -0.3214 0.7365 0.1170
C2B C -0.1641(5) 0.6641(2) 0.1893(3)
H2B H -0.1767 0.6812 0.2453
C3B C -0.0608(4) 0.6026(2) 0.1608(2)
H3B H 0.0088 0.5709 0.1957
C4B C -0.2364(4) 0.6571(2) -0.0372(2)
H4B H -0.3155 0.7019 -0.0451
H5B H -0.1495 0.6737 -0.0702
C5B C -0.4413(4) 0.5521(2) -0.0947(2)
H6B H -0.5249 0.5903 -0.1009
C6B C -0.4422(4) 0.4645(3) -0.1128(2)
H7B H -0.5246 0.4309 -0.1347
C7B C -0.2945(4) 0.4357(2) -0.0923(2)
H8B H -0.2624 0.3775 -0.0965
C8B C -0.3008(3) -0.06049(19) -0.0876(2)
H9B H -0.3135 -0.1092 -0.0528
C9B C -0.3891(4) -0.0433(2) -0.1605(2)
H10B H -0.4710 -0.0764 -0.1836
C10B C -0.3307(3) 0.0332(2) -0.1919(2)
H11B H -0.3655 0.0622 -0.2412
C11B C -0.1162(3) 0.13448(18) -0.1443(2)
H12B H -0.1506 0.1709 -0.1922
H13B H -0.1207 0.1695 -0.0929
C12B C 0.1310(4) 0.1179(2) -0.2202(2)
H14B H 0.1060 0.1496 -0.2696
C13B C 0.2661(4) 0.0757(3) -0.2011(2)
H15B H 0.3523 0.0735 -0.2340
C14B C 0.2505(4) 0.0363(2) -0.1224(2)
H16B H 0.3250 0.0019 -0.0937
N1B N -0.0743(3) 0.59505(16) 0.07655(17)
N2B N -0.1887(3) 0.65187(16) 0.05153(17)
N3B N -0.2041(3) 0.50164(16) -0.06508(17)
N4B N -0.2975(3) 0.57335(16) -0.06668(16)
N5B N -0.2154(3) 0.05896(15) -0.13895(15)
N6B N -0.1934(3) 0.00189(15) -0.07322(15)
N7B N 0.0405(3) 0.10549(15) -0.15524(15)
N8B N 0.1118(3) 0.05464(16) -0.09424(15)
Cl1B Cl 0.41604(9) -0.20105(6) 0.00548(6)
Cl2B Cl 0.41488(14) -0.25127(6) -0.20831(7)
Cl3B Cl 0.14807(8) -0.38356(5) -0.11805(5)
Cl3B_2 Cl 0.14807(8) 0.61644(5) -0.11805(5)
Cl4B Cl 0.03855(10) -0.17326(5) -0.07641(6)
loop_
_geom_bond_atom_site_label_1
_geom_bond_atom_site_label_2
_geom_bond_site_symmetry_1
_geom_bond_site_symmetry_2
Cu1 N6 1_555 1_555
Cu2 Cl1 1_555 1_555
Cu3 N1 1_555 1_555
C1 H1 1_555 1_555
C2 C1 1_555 1_555
H2 C2 1_555 1_555
C3 C2 1_555 1_555
H3 C3 1_555 1_555
C4 H4 1_555 1_555
H5 C4 1_555 1_555
C5 H6 1_555 1_555
C6 C5 1_555 1_555
H7 C6 1_555 1_555
C7 C6 1_555 1_555
H8 C7 1_555 1_555
C8 H9 1_555 1_555
C9 C8 1_555 1_555
H10 C9 1_555 1_555
C10 C9 1_555 1_555
H11 C10 1_555 1_555
C11 H12 1_555 1_555
H13 C11 1_555 1_555
C12 H14 1_555 1_555
C13 C12 1_555 1_555
H15 C13 1_555 1_555
C14 C13 1_555 1_555
H16 C14 1_555 1_555
N1 C3 1_555 1_555
N2 C1 1_555 1_555
N3 Cu3 1_555 1_555
N4 C4 1_555 1_555
N5 C10 1_555 1_555
N6 C8 1_555 1_555
N7 C11 1_555 1_555
N8 Cu1 1_555 1_555
Cl2 Cu2 1_555 1_555
Cl3 Cu2 1_555 1_555
Cl4 Cu1 1_555 1_555
Cu2B Cl1B 1_555 1_555
Cu3_2 Cl3B 1_555 1_555
C1B H1B 1_555 1_555
C2B C1B 1_555 1_555
H2B C2B 1_555 1_555
C3B C2B 1_555 1_555
H3B C3B 1_555 1_555
C4B H4B 1_555 1_555
H5B C4B 1_555 1_555
C5B H6B 1_555 1_555
C6B C5B 1_555 1_555
H7B C6B 1_555 1_555
C7B C6B 1_555 1_555
H8B C7B 1_555 1_555
C8B H9B 1_555 1_555
C9B C8B 1_555 1_555
H10B C9B 1_555 1_555
C10B C9B 1_555 1_555
H11B C10B 1_555 1_555
C11B H12B 1_555 1_555
H13B C11B 1_555 1_555
C12B H14B 1_555 1_555
C13B C12B 1_555 1_555
H15B C13B 1_555 1_555
C14B C13B 1_555 1_555
H16B C14B 1_555 1_555
N1B Cu3 1_555 1_555
N2B C1B 1_555 1_555
N3B Cu3 1_555 1_555
N4B C4B 1_555 1_555
N5B C10B 1_555 1_555
N6B Cu1 1_555 1_555
N7B C11B 1_555 1_555
N8B Cu1 1_555 1_555
Cl2B Cu2B 1_555 1_555
Cl3B Cu2B 1_555 1_555
Cl3B_2 Cu3 1_555 1_555
Cl4B Cu1 1_555 1_555
Cu2 Cl4 1_555 1_555
Cu3 Cl3 1_555 1_555
C4 N2 1_555 1_555
C5 N4 1_555 1_555
C7 N3 1_555 1_555
C11 N5 1_555 1_555
C12 N7 1_555 1_555
C14 N8 1_555 1_555
N1 N2 1_555 1_555
N3 N4 1_555 1_555
N5 N6 1_555 1_555
N7 N8 1_555 1_555
Cu2B Cl4B 1_555 1_555
C3B N1B 1_555 1_555
C4B N2B 1_555 1_555
C5B N4B 1_555 1_555
C7B N3B 1_555 1_555
C8B N6B 1_555 1_555
C11B N5B 1_555 1_555
C12B N7B 1_555 1_555
C14B N8B 1_555 1_555
N1B N2B 1_555 1_555
N3B N4B 1_555 1_555
N5B N6B 1_555 1_555
N7B N8B 1_555 1_555

#END
