
#######################################################################
#
#                 Cambridge Crystallographic Data Centre
#                                CCDC 
#
#######################################################################
#
# If this CIF has been generated from an entry in the Cambridge 
# Structural Database, then it will include bibliographic, chemical, 
# crystal, experimental, refinement or atomic coordinate data resulting 
# from the CCDC's data processing and validation procedures.
#
#######################################################################

data_AVUBIC
_symmetry_cell_setting           monoclinic
_symmetry_space_group_name_H-M   'P 21/c'
_symmetry_Int_Tables_number      14
_space_group_name_Hall           '-P 2ybc'
loop_
_symmetry_equiv_pos_site_id
_symmetry_equiv_pos_as_xyz
1 x,y,z
2 -x,1/2+y,1/2-z
3 -x,-y,-z
4 x,1/2-y,1/2+z
_cell_length_a                   11.115(3)
_cell_length_b                   22.046(7)
_cell_length_c                   9.717(3)
_cell_angle_alpha                90
_cell_angle_beta                 100.834(7)
_cell_angle_gamma                90
_cell_volume                     2338.63
loop_
_atom_site_label
_atom_site_type_symbol
_atom_site_fract_x
_atom_site_fract_y
_atom_site_fract_z
Co1 Co 0.0000 0.0000 0.0000
S1 S 0.2011(4) 0.0298(2) -0.3950(4)
O1 O 0.3634(6) 0.2295(3) 0.4061(5)
N1 N 0.1111(5) 0.0783(3) 0.0954(6)
N2 N 0.8564(5) 0.4356(3) 0.4105(6)
N3 N 0.3790(6) 0.2660(3) 0.1949(6)
N4 N 0.0752(5) 0.0073(3) -0.1801(6)
C1 C 0.1347(7) 0.0889(4) 0.2304(7)
C2 C 0.2080(7) 0.1368(4) 0.2917(7)
C3 C 0.2582(6) 0.1762(3) 0.2086(7)
C4 C 0.2346(9) 0.1654(4) 0.0671(8)
C5 C 0.1618(9) 0.1157(4) 0.0154(8)
C6 C 0.8083(10) 0.3994(5) 0.4899(10)
C7 C 0.718(1) 0.3559(6) 0.439(1)
C8 C 0.6813(8) 0.3477(4) 0.300(1)
C9 C 0.7315(9) 0.3862(5) 0.215(1)
C10 C 0.8168(8) 0.4274(5) 0.2738(9)
C11 C 0.3381(6) 0.2262(3) 0.2755(7)
C12 C 0.4617(8) 0.3150(4) 0.2480(9)
C13 C 0.593(1) 0.2981(5) 0.246(1)
C14 C 0.1257(7) 0.0157(4) -0.2711(9)
H1 H 0.1001 0.0625 0.2899
H2 H 0.2231 0.1421 0.3905
H3 H 0.2673 0.1913 0.0052
H4 H 0.1477 0.1082 -0.0826
H5 H 0.8353 0.4023 0.5884
H6 H 0.6828 0.3323 0.5027
H7 H 0.7068 0.3841 0.1160
H8 H 0.8512 0.4526 0.2119
H9 H 0.3530 0.2624 0.0963
H10 H 0.4407 0.3499 0.1912
H11 H 0.4537 0.3238 0.3416
H12 H 0.6001 0.2889 0.1525
H13 H 0.6134 0.2632 0.3032
O1B O -0.3634(6) -0.2295(3) -0.4061(5)
N1B N -0.1111(5) -0.0783(3) -0.0954(6)
N2B N -0.8564(5) -0.4356(3) -0.4105(6)
N3B N -0.3790(6) -0.2660(3) -0.1949(6)
C1B C -0.1347(7) -0.0889(4) -0.2304(7)
C2B C -0.2080(7) -0.1368(4) -0.2917(7)
C3B C -0.2582(6) -0.1762(3) -0.2086(7)
C4B C -0.2346(9) -0.1654(4) -0.0671(8)
C5B C -0.1618(9) -0.1157(4) -0.0154(8)
C6B C -0.8083(10) -0.3994(5) -0.4899(10)
C7B C -0.718(1) -0.3559(6) -0.439(1)
C8B C -0.6813(8) -0.3477(4) -0.300(1)
C9B C -0.7315(9) -0.3862(5) -0.215(1)
C10B C -0.8168(8) -0.4274(5) -0.2738(9)
C11B C -0.3381(6) -0.2262(3) -0.2755(7)
C12B C -0.4617(8) -0.3150(4) -0.2480(9)
C13B C -0.593(1) -0.2981(5) -0.246(1)
H1B H -0.1001 -0.0625 -0.2899
H2B H -0.2231 -0.1421 -0.3905
H3B H -0.2673 -0.1913 -0.0052
H4B H -0.1477 -0.1082 0.0826
H5B H -0.8353 -0.4023 -0.5884
H6B H -0.6828 -0.3323 -0.5027
H7B H -0.7068 -0.3841 -0.1160
H8B H -0.8512 -0.4526 -0.2119
H9B H -0.3530 -0.2624 -0.0963
H10B H -0.4407 -0.3499 -0.1912
H11B H -0.4537 -0.3238 -0.3416
H12B H -0.6001 -0.2889 -0.1525
H13B H -0.6134 -0.2632 -0.3032
S1B S -0.2011(4) -0.0298(2) 0.3950(4)
N4B N -0.0752(5) -0.0073(3) 0.1801(6)
C14B C -0.1257(7) -0.0157(4) 0.2711(9)
N2C N -0.1436(5) 0.0644(3) -0.0895(6)
N2A N 0.1436(5) -0.0644(3) 0.0895(6)
Co1C Co 1.0000 0.5000 0.5000
Co1C_2 Co -1.0000 -0.5000 -0.5000
O2 O 0.5691 0.1255 0.2983
C15 C 0.4767 0.0395 0.1253
C16 C 0.5195 0.0724 0.2698
C17 C 0.4737 0.0399 0.3948
O3 O 0.8091 0.2221 0.5336
C18 C 0.8845 0.1661 0.3960
C19 C 0.8946 0.2001 0.4996
C20 C 1.0254 0.1926 0.6058
loop_
_geom_bond_atom_site_label_1
_geom_bond_atom_site_label_2
_geom_bond_site_symmetry_1
_geom_bond_site_symmetry_2
Co1 N1 1_555 1_555
S1 C14 1_555 1_555
O1 C11 1_555 1_555
N1 C1 1_555 1_555
N2 C6 1_555 1_555
N3 C11 1_555 1_555
N4 Co1 1_555 1_555
C1 C2 1_555 1_555
C2 C3 1_555 1_555
C3 C4 1_555 1_555
C4 C5 1_555 1_555
C5 N1 1_555 1_555
C6 C7 1_555 1_555
C7 C8 1_555 1_555
C8 C9 1_555 1_555
C9 C10 1_555 1_555
C10 N2 1_555 1_555
C11 C3 1_555 1_555
C12 N3 1_555 1_555
C13 C8 1_555 1_555
C14 N4 1_555 1_555
H1 C1 1_555 1_555
H2 C2 1_555 1_555
H3 C4 1_555 1_555
H4 C5 1_555 1_555
H5 C6 1_555 1_555
H6 C7 1_555 1_555
H7 C9 1_555 1_555
H8 C10 1_555 1_555
H9 N3 1_555 1_555
H10 C12 1_555 1_555
H11 C12 1_555 1_555
H12 C13 1_555 1_555
H13 C13 1_555 1_555
O2 C16 1_555 1_555
C15 C16 1_555 1_555
C16 C17 1_555 1_555
O3 C19 1_555 1_555
C18 C19 1_555 1_555
C19 C20 1_555 1_555
O1B C11B 1_555 1_555
N1B Co1 1_555 1_555
N2B C6B 1_555 1_555
N3B C11B 1_555 1_555
C1B N1B 1_555 1_555
C2B C1B 1_555 1_555
C3B C2B 1_555 1_555
C4B C3B 1_555 1_555
C5B N1B 1_555 1_555
C6B C7B 1_555 1_555
C7B C8B 1_555 1_555
C8B C9B 1_555 1_555
C9B C10B 1_555 1_555
C10B N2B 1_555 1_555
C11B C3B 1_555 1_555
C12B N3B 1_555 1_555
C13B C8B 1_555 1_555
H1B C1B 1_555 1_555
H2B C2B 1_555 1_555
H3B C4B 1_555 1_555
H4B C5B 1_555 1_555
H5B C6B 1_555 1_555
H6B C7B 1_555 1_555
H7B C9B 1_555 1_555
H8B C10B 1_555 1_555
H9B N3B 1_555 1_555
H10B C12B 1_555 1_555
H11B C12B 1_555 1_555
H12B C13B 1_555 1_555
H13B C13B 1_555 1_555
S1B C14B 1_555 1_555
N4B Co1 1_555 1_555
C14B N4B 1_555 1_555
N2C Co1 1_555 1_555
N2A Co1 1_555 1_555
Co1C N2 1_555 1_555
Co1C_2 N2B 1_555 1_555
C12 C13 1_555 1_555
C4B C5B 1_555 1_555
C12B C13B 1_555 1_555

#END
