
#######################################################################
#
#                 Cambridge Crystallographic Data Centre
#                                CCDC 
#
#######################################################################
#
# If this CIF has been generated from an entry in the Cambridge 
# Structural Database, then it will include bibliographic, chemical, 
# crystal, experimental, refinement or atomic coordinate data resulting 
# from the CCDC's data processing and validation procedures.
#
#######################################################################

data_AVUBAU
_symmetry_cell_setting           orthorhombic
_symmetry_space_group_name_H-M   'P b c n'
_symmetry_Int_Tables_number      60
_space_group_name_Hall           '-P 2n 2ab'
loop_
_symmetry_equiv_pos_site_id
_symmetry_equiv_pos_as_xyz
1 x,y,z
2 1/2-x,1/2-y,1/2+z
3 1/2+x,1/2-y,-z
4 -x,y,1/2-z
5 -x,-y,-z
6 1/2+x,1/2+y,1/2-z
7 1/2-x,1/2+y,z
8 x,-y,1/2+z
_cell_length_a                   18.3004(6)
_cell_length_b                   10.759(3)
_cell_length_c                   11.458(2)
_cell_angle_alpha                90
_cell_angle_beta                 90
_cell_angle_gamma                90
_cell_volume                     2256.01
loop_
_atom_site_label
_atom_site_type_symbol
_atom_site_fract_x
_atom_site_fract_y
_atom_site_fract_z
Co1 Co 0.5000 0.2279(1) 0.2500
O1 O 0.2494(2) 0.3015(4) 0.5185(4)
O2 O 0.5001(4) 0.2019(4) 0.0693(4)
O3 O 0.4430(6) 0.3399(10) -0.0036(9)
O4 O 0.5268(4) 0.2599(9) -0.1021(6)
N1 N 0.4154(3) 0.3665(5) 0.2785(5)
N2 N 0.0842(3) 0.4135(4) 0.7445(6)
N3 N 0.2347(3) 0.5098(5) 0.5474(5)
N4 N 0.4985(5) 0.2734(8) -0.0166(6)
C1 C 0.3669(4) 0.3530(7) 0.3643(6)
C2 C 0.3170(4) 0.4436(7) 0.3963(6)
C3 C 0.3165(4) 0.5544(6) 0.3359(7)
C4 C 0.3665(4) 0.5692(5) 0.2436(8)
C5 C 0.4147(4) 0.4743(6) 0.2208(6)
C6 C 0.1346(4) 0.4096(6) 0.6592(6)
C7 C 0.1838(4) 0.5065(7) 0.6415(6)
C8 C 0.1802(4) 0.6070(6) 0.7128(7)
C9 C 0.1305(4) 0.6118(6) 0.8023(7)
C10 C 0.0826(3) 0.5123(6) 0.8152(6)
C11 C 0.2637(4) 0.4105(8) 0.4948(7)
H1 H 0.3665 0.2766 0.4060
H2 H 0.2835 0.6190 0.3562
H3 H 0.3669 0.6430 0.1982
H4 H 0.4495 0.4861 0.1603
H5 H 0.1367 0.3389 0.6096
H6 H 0.2124 0.6750 0.7003
H7 H 0.1290 0.6807 0.8540
H8 H 0.0476 0.5147 0.8764
H9 H 0.2493 0.5893 0.5198
O2C O 0.4999(4) 0.2019(4) 0.4307(4)
O3C O 0.5570(6) 0.3399(10) 0.5036(9)
O4C O 0.4732(4) 0.2599(9) 0.6021(6)
N4C N 0.5015(5) 0.2734(8) 0.5166(6)
O1C O 0.7506(2) 0.3015(4) -0.0185(4)
N1C N 0.5846(3) 0.3665(5) 0.2215(5)
N2C N 0.9158(3) 0.4135(4) -0.2445(6)
N3C N 0.7653(3) 0.5098(5) -0.0474(5)
C1C C 0.6331(4) 0.3530(7) 0.1357(6)
C2C C 0.6830(4) 0.4436(7) 0.1037(6)
C3C C 0.6835(4) 0.5544(6) 0.1641(7)
C4C C 0.6335(4) 0.5692(5) 0.2564(8)
C5C C 0.5853(4) 0.4743(6) 0.2792(6)
C6C C 0.8654(4) 0.4096(6) -0.1592(6)
C7C C 0.8162(4) 0.5065(7) -0.1415(6)
C8C C 0.8198(4) 0.6070(6) -0.2128(7)
C9C C 0.8695(4) 0.6118(6) -0.3023(7)
C10C C 0.9174(3) 0.5123(6) -0.3152(6)
C11C C 0.7363(4) 0.4105(8) 0.0052(7)
H1C H 0.6335 0.2766 0.0940
H2C H 0.7165 0.6190 0.1438
H3C H 0.6331 0.6430 0.3018
H4C H 0.5505 0.4861 0.3397
H5C H 0.8633 0.3389 -0.1096
H6C H 0.7876 0.6750 -0.2003
H7C H 0.8710 0.6807 -0.3540
H8C H 0.9524 0.5147 -0.3764
H9C H 0.7507 0.5893 -0.0198
N2A N 0.4158(3) 0.0865(4) 0.2445(6)
N2B N 0.5842(3) 0.0865(4) 0.2555(6)
Co1A Co 0.0000 0.2721(1) 0.7500
Co1A_2 Co 1.0000 0.2721(1) -0.2500
loop_
_geom_bond_atom_site_label_1
_geom_bond_atom_site_label_2
_geom_bond_site_symmetry_1
_geom_bond_site_symmetry_2
Co1 O2 1_555 1_555
O1 C11 1_555 1_555
O2 N4 1_555 1_555
O3 N4 1_555 1_555
O4 N4 1_555 1_555
N1 Co1 1_555 1_555
N2 C6 1_555 1_555
N3 C7 1_555 1_555
C1 N1 1_555 1_555
C2 C1 1_555 1_555
C3 C2 1_555 1_555
C4 C3 1_555 1_555
C5 N1 1_555 1_555
C6 C7 1_555 1_555
C7 C8 1_555 1_555
C8 C9 1_555 1_555
C9 C10 1_555 1_555
C10 N2 1_555 1_555
C11 N3 1_555 1_555
H1 C1 1_555 1_555
H2 C3 1_555 1_555
H3 C4 1_555 1_555
H4 C5 1_555 1_555
H5 C6 1_555 1_555
H6 C8 1_555 1_555
H7 C9 1_555 1_555
H8 C10 1_555 1_555
H9 N3 1_555 1_555
O2C Co1 1_555 1_555
O3C N4C 1_555 1_555
O4C N4C 1_555 1_555
N4C O2C 1_555 1_555
O1C C11C 1_555 1_555
N1C Co1 1_555 1_555
N2C C6C 1_555 1_555
N3C C7C 1_555 1_555
C1C N1C 1_555 1_555
C2C C1C 1_555 1_555
C3C C2C 1_555 1_555
C4C C3C 1_555 1_555
C5C N1C 1_555 1_555
C6C C7C 1_555 1_555
C7C C8C 1_555 1_555
C8C C9C 1_555 1_555
C9C C10C 1_555 1_555
C10C N2C 1_555 1_555
C11C N3C 1_555 1_555
H1C C1C 1_555 1_555
H2C C3C 1_555 1_555
H3C C4C 1_555 1_555
H4C C5C 1_555 1_555
H5C C6C 1_555 1_555
H6C C8C 1_555 1_555
H7C C9C 1_555 1_555
H8C C10C 1_555 1_555
H9C N3C 1_555 1_555
N2A Co1 1_555 1_555
N2B Co1 1_555 1_555
Co1A N2 1_555 1_555
Co1A_2 N2C 1_555 1_555
C2 C11 1_555 1_555
C4 C5 1_555 1_555
C2C C11C 1_555 1_555
C4C C5C 1_555 1_555

#END
