
#######################################################################
#
#                 Cambridge Crystallographic Data Centre
#                                CCDC 
#
#######################################################################
#
# If this CIF has been generated from an entry in the Cambridge 
# Structural Database, then it will include bibliographic, chemical, 
# crystal, experimental, refinement or atomic coordinate data resulting 
# from the CCDC's data processing and validation procedures.
#
#######################################################################

data_AVUCEA
_symmetry_cell_setting           rhombohedral
_symmetry_space_group_name_H-M   'R -3'
_symmetry_Int_Tables_number      148
_space_group_name_Hall           '-R 3'
loop_
_symmetry_equiv_pos_site_id
_symmetry_equiv_pos_as_xyz
1 x,y,z
2 -y,x-y,z
3 -x+y,-x,z
4 2/3+x,1/3+y,1/3+z
5 2/3-y,1/3+x-y,1/3+z
6 2/3-x+y,1/3-x,1/3+z
7 1/3+x,2/3+y,2/3+z
8 1/3-y,2/3+x-y,2/3+z
9 1/3-x+y,2/3-x,2/3+z
10 -x,-y,-z
11 y,-x+y,-z
12 x-y,x,-z
13 1/3-x,2/3-y,2/3-z
14 1/3+y,2/3-x+y,2/3-z
15 1/3+x-y,2/3+x,2/3-z
16 2/3-x,1/3-y,1/3-z
17 2/3+y,1/3-x+y,1/3-z
18 2/3+x-y,1/3+x,1/3-z
_cell_length_a                   32.8195(15)
_cell_length_b                   32.8195(15)
_cell_length_c                   19.0793(11)
_cell_angle_alpha                90
_cell_angle_beta                 90
_cell_angle_gamma                120
_cell_volume                     17797.4
loop_
_atom_site_label
_atom_site_type_symbol
_atom_site_fract_x
_atom_site_fract_y
_atom_site_fract_z
Co1 Co 0.518476(19) 0.048720(19) 0.19288(3)
Co2 Co 0.482620(17) 0.021700(18) -0.32575(2)
O1 O 0.51989(12) 0.07242(11) 0.09391(15)
O2 O 0.5441(3) 0.14782(18) 0.1113(2)
O3 O 0.51187(11) 0.01809(10) -0.15294(15)
O4 O 0.49325(12) 0.05620(11) -0.23340(14)
O5 O 0.5925(4) 0.25651(18) -0.0834(3)
O6 O 0.5705(2) 0.23037(16) -0.1909(2)
O7 O 0.58291(10) 0.05366(12) 0.19872(15)
O8 O 0.58650(9) 0.02792(11) 0.30629(14)
O9 O 0.79429(10) 0.13876(11) 0.10284(14)
O10 O 0.72730(10) 0.12047(11) 0.05309(14)
O11 O 0.54842(17) 0.11914(13) 0.23245(19)
O12 O 0.55159(12) 0.07171(14) -0.35609(18)
C1 C 0.53270(17) 0.12075(16) -0.0045(2)
C2 C 0.51966(15) 0.08399(15) -0.0514(2)
C3 C 0.52099(14) 0.09190(14) -0.1233(2)
C4 C 0.53666(17) 0.13729(16) -0.1481(2)
C5 C 0.55174(19) 0.17495(16) -0.1019(2)
C6 C 0.5490(2) 0.16630(17) -0.0303(2)
C7 C 0.5320(2) 0.11314(17) 0.0734(2)
C8 C 0.5732(2) 0.22474(18) -0.1273(3)
C9 C 0.50750(14) 0.05207(14) -0.1741(2)
C10 C 0.65729(13) 0.07728(14) 0.2481(2)
C11 C 0.67923(14) 0.09110(15) 0.1829(2)
C12 C 0.72810(14) 0.11330(14) 0.1777(2)
C13 C 0.75514(14) 0.12596(15) 0.2386(2)
C14 C 0.73350(13) 0.11440(14) 0.3041(2)
C15 C 0.68436(13) 0.08820(14) 0.30797(19)
C16 C 0.60425(14) 0.05087(14) 0.25166(19)
C17 C 0.75101(14) 0.12488(14) 0.10747(19)
C18 C 0.5920(2) 0.1057(3) -0.3164(4)
H1 H 0.5812 0.1156 -0.2759
H2 H 0.6107 0.1332 -0.3453
C19 C 0.6209(4) 0.0868(5) -0.2933(8)
H3 H 0.6442 0.0926 -0.3283
H4 H 0.6361 0.1016 -0.2501
H5 H 0.6016 0.0535 -0.2861
C20 C 0.5881(5) 0.1455(4) 0.2723(8)
H6 H 0.6156 0.1533 0.2441
H7 H 0.5879 0.1266 0.3115
C21 C 0.5917(10) 0.1883(8) 0.2986(16)
H8 H 0.6083 0.2132 0.2653
H9 H 0.6086 0.1966 0.3423
H10 H 0.5608 0.1838 0.3059
H11 H 0.5089(16) 0.0515(17) -0.028(3)
H12 H 0.5389(18) 0.1418(18) -0.191(3)
H13 H 0.558(2) 0.191(2) 0.005(4)
H14 H 0.6609(16) 0.0847(16) 0.142(3)
H15 H 0.7883(15) 0.1428(14) 0.235(2)
H16 H 0.6697(15) 0.0798(15) 0.353(2)
C22 C 0.76162(14) 0.13270(15) 0.3698(2)
O13 O 0.74264(11) 0.11965(13) 0.42803(15)
O14 O 0.80436(9) 0.16559(11) 0.36552(14)
Co1I Co 0.481524(19) -0.048720(19) -0.19288(3)
Co1N Co 0.803089(27) 0.185143(19) 0.47379(3)
Co2I Co 0.517380(17) -0.021700(18) 0.32575(2)
Co2N Co 0.794253(25) 0.149287(17) -0.00758(2)
Co2H Co 0.872413(25) 0.184047(17) 0.34092(2)
O3I O 0.48813(11) -0.01809(10) 0.15294(15)
O8I O 0.41350(9) -0.02792(11) -0.30629(14)
O9M O 0.47209(11) 0.01114(15) -0.43617(14)
O10M O 0.45380(11) 0.05984(15) -0.38642(14)
O13M O 0.45298(13) 0.04368(17) 0.23864(15)
O14M O 0.49892(11) 0.02790(14) 0.30115(14)
O14D O 0.50108(11) -0.02790(14) -0.30115(14)
O15 O 0.5734(2) 0.07470(19) 0.5092(3)
C23 C 0.6158(11) 0.0983(7) 0.4793(11)
H17 H 0.6382 0.0968 0.5109
H18 H 0.6150 0.0813 0.4372
C24 C 0.6286(13) 0.1319(13) 0.4662(17)
H19 H 0.6179 0.1337 0.4201
H20 H 0.6624 0.1478 0.4666
H21 H 0.6179 0.1466 0.4992
O16 O 0.1153(14) 0.1428(15) 0.7479(18)
O17 O 0.5847(5) 0.3310(5) 0.0133(7)
O18 O 0.3333 0.6667 0.0115(5)
O19 O 0.29074(6) 0.61736(6) 0.07971(9)
O20 O 0.3333 0.6667 0.1667
O21 O 0.6154(11) 0.2454(11) 0.1192(17)
N1 N 0.3917(3) 0.0819(2) 0.6860(4)
C25 C 0.3592(6) 0.0881(7) 0.6377(8)
H22 H 0.3401 0.0973 0.6648
H23 H 0.3776 0.1131 0.6047
C26 C 0.3282(5) 0.0446(9) 0.5988(10)
H24 H 0.3426 0.0448 0.5549
H25 H 0.2985 0.0429 0.5901
H26 H 0.3231 0.0179 0.6259
C27 C 0.3691(4) 0.0440(4) 0.7357(5)
H27 H 0.3931 0.0438 0.7654
H28 H 0.3538 0.0144 0.7103
C28 C 0.3326(7) 0.0466(7) 0.7825(7)
H29 H 0.3476 0.0641 0.8241
H30 H 0.3086 0.0154 0.7951
H31 H 0.3187 0.0620 0.7575
C29 C 0.4245(9) 0.1248(7) 0.7275(16)
H32 H 0.4096 0.1439 0.7307
H33 H 0.4250 0.1141 0.7747
C30 C 0.4645(7) 0.1509(7) 0.7118(16)
H34 H 0.4840 0.1396 0.7313
H35 H 0.4743 0.1817 0.7296
H36 H 0.4674 0.1522 0.6616
loop_
_geom_bond_atom_site_label_1
_geom_bond_atom_site_label_2
_geom_bond_site_symmetry_1
_geom_bond_site_symmetry_2
Co1 O1 1_555 1_555
Co2 O4 1_555 1_555
O1 C7 1_555 1_555
O2 C7 1_555 1_555
O3 C9 1_555 1_555
O4 C9 1_555 1_555
O5 C8 1_555 1_555
O6 C8 1_555 1_555
O7 Co1 1_555 1_555
O8 C16 1_555 1_555
O9 C17 1_555 1_555
O10 C17 1_555 1_555
O11 Co1 1_555 1_555
O12 Co2 1_555 1_555
C1 C2 1_555 1_555
C2 C3 1_555 1_555
C3 C4 1_555 1_555
C4 C5 1_555 1_555
C5 C6 1_555 1_555
C6 C1 1_555 1_555
C7 C1 1_555 1_555
C8 C5 1_555 1_555
C9 C3 1_555 1_555
C10 C11 1_555 1_555
C11 C12 1_555 1_555
C12 C13 1_555 1_555
C13 C14 1_555 1_555
C14 C15 1_555 1_555
C15 C10 1_555 1_555
C16 O7 1_555 1_555
C17 C12 1_555 1_555
C18 O12 1_555 1_555
H1 C18 1_555 1_555
H2 C18 1_555 1_555
C19 C18 1_555 1_555
H3 C19 1_555 1_555
H4 C19 1_555 1_555
H5 C19 1_555 1_555
C20 O11 1_555 1_555
H6 C20 1_555 1_555
H7 C20 1_555 1_555
C21 C20 1_555 1_555
H8 C21 1_555 1_555
H9 C21 1_555 1_555
H10 C21 1_555 1_555
H11 C2 1_555 1_555
H12 C4 1_555 1_555
H13 C6 1_555 1_555
H14 C11 1_555 1_555
H15 C13 1_555 1_555
H16 C15 1_555 1_555
C22 C14 1_555 1_555
O13 C22 1_555 1_555
O14 C22 1_555 1_555
O15 C23 1_555 1_555
C23 H17 1_555 1_555
H18 C23 1_555 1_555
C24 C23 1_555 1_555
H19 C24 1_555 1_555
H20 C24 1_555 1_555
H21 C24 1_555 1_555
N1 C25 1_555 1_555
C25 H22 1_555 1_555
H23 C25 1_555 1_555
C26 C25 1_555 1_555
H24 C26 1_555 1_555
H25 C26 1_555 1_555
H26 C26 1_555 1_555
C27 N1 1_555 1_555
H27 C27 1_555 1_555
H28 C27 1_555 1_555
C28 C27 1_555 1_555
H29 C28 1_555 1_555
H30 C28 1_555 1_555
H31 C28 1_555 1_555
C29 N1 1_555 1_555
H32 C29 1_555 1_555
H33 C29 1_555 1_555
C30 C29 1_555 1_555
H34 C30 1_555 1_555
H35 C30 1_555 1_555
H36 C30 1_555 1_555
Co1I O3 1_555 1_555
Co1N O13 1_555 1_555
Co2I O8 1_555 1_555
Co2N O9 1_555 1_555
Co2H O14 1_555 1_555
O3I Co1 1_555 1_555
O8I Co2 1_555 1_555
O9M Co2 1_555 1_555
O10M Co2 1_555 1_555
O13M Co1 1_555 1_555
O14M Co1 1_555 1_555
O14D Co2 1_555 1_555
O10 Co2N 1_555 1_555
C10 C16 1_555 1_555
O14 Co1N 1_555 1_555
Co1I O14D 1_555 1_555
Co2I O14M 1_555 1_555

#END
