
#######################################################################
#
#                 Cambridge Crystallographic Data Centre
#                                CCDC 
#
#######################################################################
#
# If this CIF has been generated from an entry in the Cambridge 
# Structural Database, then it will include bibliographic, chemical, 
# crystal, experimental, refinement or atomic coordinate data resulting 
# from the CCDC's data processing and validation procedures.
#
#######################################################################

data_AVUFED01
_symmetry_cell_setting           triclinic
_symmetry_space_group_name_H-M   'P 1'
_symmetry_Int_Tables_number      1
_space_group_name_Hall           'P 1'
loop_
_symmetry_equiv_pos_site_id
_symmetry_equiv_pos_as_xyz
1 x,y,z
_cell_length_a                   5.5049(11)
_cell_length_b                   5.5638(11)
_cell_length_c                   9.3830(19)
_cell_angle_alpha                106.46(1)
_cell_angle_beta                 91.86(1)
_cell_angle_gamma                105.09(1)
_cell_volume                     264.346
loop_
_atom_site_label
_atom_site_type_symbol
_atom_site_fract_x
_atom_site_fract_y
_atom_site_fract_z
Na1 Na 1.2822(3) -0.1693(3) -0.10345(17)
S1 S 0.88105(16) 0.23514(18) -0.05921(11)
O1 O 1.0659(6) 0.4062(6) -0.1176(3)
O2 O 0.9583(6) 0.0193(6) -0.0358(3)
O3 O 0.6305(5) 0.1551(5) -0.1414(3)
C1 C 0.8492(7) 0.4303(7) 0.1208(4)
C2 C 0.9841(8) 0.4321(8) 0.2479(5)
H1 H 1.0889 0.3232 0.2401
C3 C 0.9648(8) 0.5940(8) 0.3863(4)
C4 C 0.8100(7) 0.7611(8) 0.3971(4)
H2 H 0.7987 0.8735 0.4897
C5 C 0.6739(8) 0.7583(9) 0.2696(5)
C6 C 0.6942(7) 0.5944(8) 0.1314(4)
H3 H 0.6042 0.5942 0.0457
C7 C 1.1044(7) 0.6107(8) 0.5279(5)
O4 O 1.0803(6) 0.7400(6) 0.6483(3)
O5 O 1.2659(7) 0.4647(7) 0.5070(4)
H4 H 1.356(11) 0.519(11) 0.594(7)
C8 C 0.5107(8) 0.9345(7) 0.2746(4)
O6 O 0.3975(5) 0.9484(6) 0.1655(3)
O7 O 0.4942(7) 1.0715(7) 0.4121(4)
H5 H 0.419(10) 1.181(11) 0.420(6)
O8 O 1.5460(5) -0.4542(7) -0.2512(3)
H6 H 1.529(11) -0.588(6) -0.227(6)
H7 H 1.690(4) -0.368(8) -0.255(6)
Na1_2 Na 0.2822(3) -0.1693(3) -0.10345(17)
Na1_3 Na 0.2822(3) 0.8307(3) -0.10345(17)
Na1_4 Na 1.2822(3) 0.8307(3) -0.10345(17)
Na1_5 Na 1.2822(3) 0.8307(3) 0.89655(17)
O1_2 O 1.0659(6) -0.5938(6) -0.1176(3)
O3_2 O 1.6305(5) 0.1551(5) -0.1414(3)
O4_2 O 1.0803(6) -0.2600(6) -0.3517(3)
O6_2 O 1.3975(5) -0.0516(6) 0.1655(3)
loop_
_geom_bond_atom_site_label_1
_geom_bond_atom_site_label_2
_geom_bond_site_symmetry_1
_geom_bond_site_symmetry_2
Na1 O2 1_555 1_555
S1 O1 1_555 1_555
O1 Na1_4 1_555 1_555
O2 S1 1_555 1_555
O3 S1 1_555 1_555
C1 S1 1_555 1_555
C2 C1 1_555 1_555
H1 C2 1_555 1_555
C3 C2 1_555 1_555
C4 C3 1_555 1_555
H2 C4 1_555 1_555
C5 C4 1_555 1_555
C6 C1 1_555 1_555
H3 C6 1_555 1_555
C7 C3 1_555 1_555
O4 C7 1_555 1_555
O5 C7 1_555 1_555
H4 O5 1_555 1_555
C8 C5 1_555 1_555
O6 C8 1_555 1_555
O7 C8 1_555 1_555
H5 O7 1_555 1_555
O8 Na1 1_555 1_555
H6 O8 1_555 1_555
H7 O8 1_555 1_555
Na1_2 O3 1_555 1_555
Na1_3 O6 1_555 1_555
Na1_5 O4 1_555 1_555
O1_2 Na1 1_555 1_555
O3_2 Na1 1_555 1_555
O4_2 Na1 1_555 1_555
O6_2 Na1 1_555 1_555
C5 C6 1_555 1_555

#END
