
#######################################################################
#
#                 Cambridge Crystallographic Data Centre
#                                CCDC 
#
#######################################################################
#
# If this CIF has been generated from an entry in the Cambridge 
# Structural Database, then it will include bibliographic, chemical, 
# crystal, experimental, refinement or atomic coordinate data resulting 
# from the CCDC's data processing and validation procedures.
#
#######################################################################

data_AVUHEF
_symmetry_cell_setting           monoclinic
_symmetry_space_group_name_H-M   'P 21/c'
_symmetry_Int_Tables_number      14
_space_group_name_Hall           '-P 2ybc'
loop_
_symmetry_equiv_pos_site_id
_symmetry_equiv_pos_as_xyz
1 x,y,z
2 -x,1/2+y,1/2-z
3 -x,-y,-z
4 x,1/2-y,1/2+z
_cell_length_a                   12.581(3)
_cell_length_b                   12.583(3)
_cell_length_c                   17.046(3)
_cell_angle_alpha                90
_cell_angle_beta                 93.32(3)
_cell_angle_gamma                90
_cell_volume                     2693.97
loop_
_atom_site_label
_atom_site_type_symbol
_atom_site_fract_x
_atom_site_fract_y
_atom_site_fract_z
Co1 Co 0.44874(2) 0.47771(2) 0.873222(15)
N1 N 0.28058(15) 0.45394(16) 0.88153(12)
N2 N 0.1074(2) 0.4859(3) 0.8765(3)
N3 N 0.12713(16) 0.39968(18) 0.91911(14)
N4 N -0.23080(15) -0.44773(17) 0.82289(12)
N5 N -0.20790(18) -0.4926(2) 0.89450(15)
N6 N -0.38367(15) -0.49629(16) 0.86476(11)
O1 O 0.43733(12) 0.62110(12) 0.92667(9)
O2 O 0.54294(13) 0.86971(12) 0.72184(9)
O3 O 0.52971(14) 0.63253(13) 1.04193(9)
O4 O 0.58492(14) 1.03377(12) 0.75226(9)
O5 O 0.67171(18) 0.98237(15) 1.12692(10)
H1 H 0.6959 1.0304 1.1551
O6 O 0.69594(16) 1.10587(14) 1.03632(11)
C1 C 0.2012(3) 0.5178(3) 0.8569(3)
H6 H 0.2114 0.5795 0.8283
C2 C 0.23088(19) 0.3816(2) 0.92077(16)
H7 H 0.2644 0.3246 0.9466
C3 C 0.0429(2) 0.3447(2) 0.9598(2)
H8 H -0.0214 0.3873 0.9554
H9 H 0.0647 0.3389 1.0152
C4 C 0.0181(2) 0.2354(2) 0.92809(17)
C5 C 0.0835(2) 0.1496(3) 0.9478(2)
H10 H 0.1453 0.1604 0.9795
C6 C 0.0585(2) 0.0482(2) 0.92141(19)
H11 H 0.1039 -0.0078 0.9355
C7 C -0.0331(2) 0.0282(2) 0.87434(16)
C8 C -0.0982(2) 0.1142(2) 0.8554(2)
H12 H -0.1603 0.1036 0.8241
C9 C -0.0728(2) 0.2161(3) 0.8819(2)
H13 H -0.1183 0.2721 0.8681
C10 C -0.06099(19) -0.0817(2) 0.84719(16)
C11 C 0.0131(2) -0.1616(3) 0.8463(2)
H14 H 0.0839 -0.1466 0.8611
C12 C -0.0150(2) -0.2639(3) 0.8240(2)
H15 H 0.0374 -0.3161 0.8242
C13 C -0.11734(19) -0.2904(2) 0.80179(15)
C14 C -0.1904(2) -0.2103(3) 0.7986(3)
H16 H -0.2603 -0.2248 0.7812
C15 C -0.1624(2) -0.1079(3) 0.8209(3)
H17 H -0.2142 -0.0551 0.8179
C16 C -0.1471(2) -0.4026(2) 0.77693(16)
H18 H -0.1711 -0.4024 0.7218
H19 H -0.0844 -0.4474 0.7827
C17 C -0.33475(18) -0.4509(2) 0.80639(14)
H20 H -0.3688 -0.4251 0.7604
C18 C -0.3018(2) -0.5208(2) 0.91661(16)
H21 H -0.3114 -0.5548 0.9641
C19 C 0.49934(16) 0.66803(16) 0.97647(12)
C20 C 0.53994(16) 0.77568(15) 0.95565(11)
C21 C 0.58429(17) 0.84218(17) 1.01347(12)
H22 H 0.5896 0.8196 1.0655
C22 C 0.62099(17) 0.94276(17) 0.99406(12)
C23 C 0.66535(18) 1.01189(18) 1.05947(14)
C24 C 0.61324(18) 0.97659(16) 0.91612(13)
H23 H 0.6360 1.0443 0.9032
C25 C 0.57147(16) 0.90893(17) 0.85787(12)
C26 C 0.56594(16) 0.94001(17) 0.77284(12)
C27 C 0.53526(16) 0.80872(16) 0.87785(11)
H24 H 0.5076 0.7634 0.8387
Co1B Co 0.55126(2) 0.52229(2) 1.126778(15)
Co1_2 Co -0.55126(2) -0.52229(2) 0.873222(15)
Co1A Co 0.55126(2) 0.97771(2) 0.626778(15)
Co1B_2 Co 1.55126(2) 1.52229(2) 1.126778(15)
Co1C Co 0.44874(2) 0.02229(2) 1.373222(15)
N1B N 0.71942(15) 0.54606(16) 1.11847(12)
N2B N 0.8926(2) 0.5141(3) 1.1235(3)
N3B N 0.87287(16) 0.60032(18) 1.08089(14)
N4B N 1.23080(15) 1.44773(17) 1.17711(12)
N5B N 1.20790(18) 1.4926(2) 1.10550(15)
N6B N 1.38367(15) 1.49629(16) 1.13524(11)
N6_2 N 0.61633(15) 0.50371(16) 0.86476(11)
N6B_2 N 0.38367(15) 0.49629(16) 1.13524(11)
O1B O 0.56267(12) 0.37890(12) 1.07333(9)
O2B O 0.45706(13) 0.13029(12) 1.27816(9)
O2A O 0.45706(13) 0.36971(12) 0.77816(9)
O2C O 0.54294(13) 0.63029(12) 1.22184(9)
O3B O 0.47029(14) 0.36747(13) 0.95807(9)
O4B O 0.41508(14) -0.03377(12) 1.24774(9)
O4A O 0.41508(14) 0.53377(12) 0.74774(9)
O4C O 0.58492(14) 0.46623(12) 1.25226(9)
O5B O 0.32829(18) 0.01763(15) 0.87308(10)
H1B H 0.3041 -0.0304 0.8449
O6B O 0.30406(16) -0.10587(14) 0.96368(11)
C1B C 0.7988(3) 0.4822(3) 1.1431(3)
H6B H 0.7886 0.4205 1.1717
C2B C 0.76912(19) 0.6184(2) 1.07923(16)
H7B H 0.7356 0.6754 1.0534
C3B C 0.9571(2) 0.6553(2) 1.0402(2)
H8B H 1.0214 0.6127 1.0446
H9B H 0.9353 0.6611 0.9848
C4B C 0.9819(2) 0.7646(2) 1.07191(17)
C5B C 0.9165(2) 0.8504(3) 1.0522(2)
H10B H 0.8547 0.8396 1.0205
C6B C 0.9415(2) 0.9518(2) 1.07859(19)
H11B H 0.8961 1.0078 1.0645
C7B C 1.0331(2) 0.9718(2) 1.12566(16)
C8B C 1.0982(2) 0.8858(2) 1.1446(2)
H12B H 1.1603 0.8964 1.1759
C9B C 1.0728(2) 0.7839(3) 1.1181(2)
H13B H 1.1183 0.7279 1.1319
C10B C 1.06099(19) 1.0817(2) 1.15281(16)
C11B C 0.9869(2) 1.1616(3) 1.1537(2)
H14B H 0.9161 1.1466 1.1389
C12B C 1.0150(2) 1.2639(3) 1.1760(2)
H15B H 0.9626 1.3161 1.1758
C13B C 1.11734(19) 1.2904(2) 1.19821(15)
C14B C 1.1904(2) 1.2103(3) 1.2014(3)
H16B H 1.2603 1.2248 1.2188
C15B C 1.1624(2) 1.1079(3) 1.1791(3)
H17B H 1.2142 1.0551 1.1821
C16B C 1.1471(2) 1.4026(2) 1.22307(16)
H18B H 1.1711 1.4024 1.2782
H19B H 1.0844 1.4474 1.2173
C17B C 1.33475(18) 1.4509(2) 1.19361(14)
H20B H 1.3688 1.4251 1.2396
C18B C 1.3018(2) 1.5208(2) 1.08339(16)
H21B H 1.3114 1.5548 1.0359
C19B C 0.50066(16) 0.33197(16) 1.02353(12)
C20B C 0.46006(16) 0.22432(15) 1.04435(11)
C21B C 0.41571(17) 0.15782(17) 0.98653(12)
H22B H 0.4104 0.1804 0.9345
C22B C 0.37901(17) 0.05724(17) 1.00594(12)
C23B C 0.33465(18) -0.01189(18) 0.94053(14)
C24B C 0.38676(18) 0.02341(16) 1.08388(13)
H23B H 0.3640 -0.0443 1.0968
C25B C 0.42853(16) 0.09107(17) 1.14213(12)
C26B C 0.43406(16) 0.05999(17) 1.22716(12)
C27B C 0.46474(16) 0.19128(16) 1.12215(11)
H24B H 0.4924 0.2366 1.1613
O7 O 0.65034(19) 0.24239(17) 0.79691(15)
H2 H 0.6330 0.1773 0.7922
H3 H 0.5892 0.2700 0.8009
O8 O 0.73223(18) 0.24411(18) 0.14796(15)
H4 H 0.6878 0.2558 0.1827
H5 H 0.7171 0.1786 0.1426
loop_
_geom_bond_atom_site_label_1
_geom_bond_atom_site_label_2
_geom_bond_site_symmetry_1
_geom_bond_site_symmetry_2
Co1 N1 1_555 1_555
N1 C1 1_555 1_555
N2 N3 1_555 1_555
N3 C2 1_555 1_555
N4 N5 1_555 1_555
N5 C18 1_555 1_555
N6 C17 1_555 1_555
O1 Co1 1_555 1_555
O2 C26 1_555 1_555
O3 C19 1_555 1_555
O4 C26 1_555 1_555
O5 H1 1_555 1_555
O6 C23 1_555 1_555
O7 H2 1_555 1_555
H3 O7 1_555 1_555
O8 H4 1_555 1_555
H5 O8 1_555 1_555
C1 N2 1_555 1_555
H6 C1 1_555 1_555
C2 N1 1_555 1_555
H7 C2 1_555 1_555
C3 N3 1_555 1_555
H8 C3 1_555 1_555
H9 C3 1_555 1_555
C4 C3 1_555 1_555
C5 C4 1_555 1_555
H10 C5 1_555 1_555
C6 C5 1_555 1_555
H11 C6 1_555 1_555
C7 C6 1_555 1_555
C8 C7 1_555 1_555
H12 C8 1_555 1_555
C9 C4 1_555 1_555
H13 C9 1_555 1_555
C10 C7 1_555 1_555
C11 C10 1_555 1_555
H14 C11 1_555 1_555
C12 C11 1_555 1_555
H15 C12 1_555 1_555
C13 C12 1_555 1_555
C14 C13 1_555 1_555
H16 C14 1_555 1_555
C15 C10 1_555 1_555
H17 C15 1_555 1_555
C16 N4 1_555 1_555
H18 C16 1_555 1_555
H19 C16 1_555 1_555
C17 N4 1_555 1_555
H20 C17 1_555 1_555
C18 N6 1_555 1_555
H21 C18 1_555 1_555
C19 O1 1_555 1_555
C20 C19 1_555 1_555
C21 C20 1_555 1_555
H22 C21 1_555 1_555
C22 C21 1_555 1_555
C23 O5 1_555 1_555
C24 C22 1_555 1_555
H23 C24 1_555 1_555
C25 C24 1_555 1_555
C26 C25 1_555 1_555
C27 C20 1_555 1_555
H24 C27 1_555 1_555
Co1B O3 1_555 1_555
Co1_2 N6 1_555 1_555
Co1A O2 1_555 1_555
Co1B_2 N6B 1_555 1_555
Co1C O2B 1_555 1_555
N1B Co1B 1_555 1_555
N2B N3B 1_555 1_555
N3B C2B 1_555 1_555
N4B N5B 1_555 1_555
N5B C18B 1_555 1_555
N6B C17B 1_555 1_555
N6_2 Co1 1_555 1_555
N6B_2 Co1B 1_555 1_555
O1B Co1B 1_555 1_555
O2B C26B 1_555 1_555
O2A Co1 1_555 1_555
O2C Co1B 1_555 1_555
O3B Co1 1_555 1_555
O4B Co1C 1_555 1_555
O4A Co1 1_555 1_555
O4C Co1B 1_555 1_555
O5B H1B 1_555 1_555
O6B C23B 1_555 1_555
C1B N1B 1_555 1_555
H6B C1B 1_555 1_555
C2B N1B 1_555 1_555
H7B C2B 1_555 1_555
C3B N3B 1_555 1_555
H8B C3B 1_555 1_555
H9B C3B 1_555 1_555
C4B C3B 1_555 1_555
C5B C4B 1_555 1_555
H10B C5B 1_555 1_555
C6B C5B 1_555 1_555
H11B C6B 1_555 1_555
C7B C6B 1_555 1_555
C8B C7B 1_555 1_555
H12B C8B 1_555 1_555
C9B C4B 1_555 1_555
H13B C9B 1_555 1_555
C10B C7B 1_555 1_555
C11B C10B 1_555 1_555
H14B C11B 1_555 1_555
C12B C11B 1_555 1_555
H15B C12B 1_555 1_555
C13B C12B 1_555 1_555
C14B C13B 1_555 1_555
H16B C14B 1_555 1_555
C15B C10B 1_555 1_555
H17B C15B 1_555 1_555
C16B N4B 1_555 1_555
H18B C16B 1_555 1_555
H19B C16B 1_555 1_555
C17B N4B 1_555 1_555
H20B C17B 1_555 1_555
C18B N6B 1_555 1_555
H21B C18B 1_555 1_555
C19B O1B 1_555 1_555
C20B C19B 1_555 1_555
C21B C20B 1_555 1_555
H22B C21B 1_555 1_555
C22B C21B 1_555 1_555
C23B O5B 1_555 1_555
C24B C22B 1_555 1_555
H23B C24B 1_555 1_555
C25B C24B 1_555 1_555
C26B O4B 1_555 1_555
C27B C20B 1_555 1_555
H24B C27B 1_555 1_555
O4 Co1A 1_555 1_555
C8 C9 1_555 1_555
C13 C16 1_555 1_555
C14 C15 1_555 1_555
C22 C23 1_555 1_555
C25 C27 1_555 1_555
N2B C1B 1_555 1_555
O3B C19B 1_555 1_555
C8B C9B 1_555 1_555
C13B C16B 1_555 1_555
C14B C15B 1_555 1_555
C22B C23B 1_555 1_555
C25B C26B 1_555 1_555
C25B C27B 1_555 1_555

#END
