
#######################################################################
#
#                 Cambridge Crystallographic Data Centre
#                                CCDC 
#
#######################################################################
#
# If this CIF has been generated from an entry in the Cambridge 
# Structural Database, then it will include bibliographic, chemical, 
# crystal, experimental, refinement or atomic coordinate data resulting 
# from the CCDC's data processing and validation procedures.
#
#######################################################################

data_AVUHUV
_symmetry_cell_setting           monoclinic
_symmetry_space_group_name_H-M   'P 21/c'
_symmetry_Int_Tables_number      14
_space_group_name_Hall           '-P 2ybc'
loop_
_symmetry_equiv_pos_site_id
_symmetry_equiv_pos_as_xyz
1 x,y,z
2 -x,1/2+y,1/2-z
3 -x,-y,-z
4 x,1/2-y,1/2+z
_cell_length_a                   9.5275(19)
_cell_length_b                   14.861(3)
_cell_length_c                   25.048(5)
_cell_angle_alpha                90
_cell_angle_beta                 96.92(3)
_cell_angle_gamma                90
_cell_volume                     3520.67
loop_
_atom_site_label
_atom_site_type_symbol
_atom_site_fract_x
_atom_site_fract_y
_atom_site_fract_z
Ni1 Ni 0.99623(7) 0.32450(4) 0.17269(2)
Ni2 Ni 1.0000 1.0000 0.0000
N1 N 0.7975(5) 0.3772(3) 0.18230(17)
N2 N 0.6490(8) 0.4654(5) 0.2204(2)
N3 N 0.6010(5) 0.4517(4) 0.1680(2)
N4 N 0.4094(6) 1.2238(3) 0.1727(2)
N5 N 0.3921(6) 1.2609(4) 0.1227(2)
N6 N 0.1959(5) 1.2767(3) 0.16290(17)
N7 N 0.5992(5) 1.1103(3) 0.01039(18)
N8 N 0.6303(7) 1.0942(5) 0.0630(2)
N9 N 0.8053(5) 1.0453(3) 0.02013(17)
C1 C 0.6907(6) 0.4004(4) 0.1465(2)
H1 H 0.6805 0.3826 0.1107
C2 C 0.7642(8) 0.4182(6) 0.2274(2)
H2 H 0.8192 0.4130 0.2606
C3 C 0.4728(6) 0.4975(5) 0.1437(3)
H3 H 0.3924 0.4763 0.1606
H4 H 0.4562 0.4827 0.1058
C4 C 0.4852(6) 0.5982(4) 0.1501(2)
C5 C 0.6096(7) 0.6455(5) 0.1464(2)
H5 H 0.6896 0.6140 0.1392
C6 C 0.6181(7) 0.7366(5) 0.1530(3)
H6 H 0.7038 0.7653 0.1505
C7 C 0.5007(6) 0.7877(5) 0.1632(2)
C8 C 0.3759(6) 0.7409(5) 0.1663(3)
H7 H 0.2952 0.7724 0.1726
C9 C 0.3689(6) 0.6480(5) 0.1602(3)
H8 H 0.2838 0.6187 0.1629
C10 C 0.5097(6) 0.8863(4) 0.1701(2)
C11 C 0.6317(6) 0.9278(5) 0.1943(2)
H9 H 0.7103 0.8927 0.2059
C12 C 0.6393(6) 1.0201(5) 0.2015(2)
H10 H 0.7223 1.0456 0.2182
C13 C 0.5243(6) 1.0757(5) 0.1842(2)
C14 C 0.4027(7) 1.0336(5) 0.1599(2)
H11 H 0.3250 1.0686 0.1471
C15 C 0.3942(6) 0.9413(5) 0.1542(2)
H12 H 0.3096 0.9155 0.1393
C16 C 0.5393(7) 1.1745(5) 0.1918(3)
H13 H 0.5651 1.1872 0.2297
H14 H 0.6154 1.1959 0.1726
C17 C 0.2917(7) 1.2344(4) 0.1951(2)
H15 H 0.2790 1.2144 0.2294
C18 C 0.2626(7) 1.2920(4) 0.1192(2)
H16 H 0.2201 1.3223 0.0890
C19 C 0.7545(8) 1.0539(5) 0.0671(2)
H17 H 0.8018 1.0336 0.0995
C20 C 0.7053(7) 1.0803(4) -0.0135(2)
H18 H 0.7086 1.0836 -0.0504
C21 C 0.4713(6) 1.1588(4) -0.0115(3)
H19 H 0.3936 1.1400 0.0077
H20 H 0.4476 1.1421 -0.0490
C22 C 0.4856(6) 1.2597(4) -0.0077(2)
C23 C 0.6130(7) 1.3050(4) -0.0052(3)
H21 H 0.6964 1.2726 -0.0056
C24 C 0.6178(7) 1.3979(4) -0.0021(3)
H22 H 0.7053 1.4264 0.0002
C25 C 0.4969(6) 1.4506(4) -0.0022(2)
C26 C 0.3697(6) 1.4041(4) -0.0056(2)
H23 H 0.2858 1.4361 -0.0060
C27 C 0.3652(7) 1.3106(4) -0.0084(2)
H24 H 0.2780 1.2818 -0.0107
C28 C 0.9825(5) 0.8121(3) 0.0385(2)
C29 C 0.9896(5) 0.7477(3) 0.08551(18)
C30 C 0.9902(5) 0.7795(3) 0.1374(2)
H25 H 0.9855 0.8412 0.1433
C31 C 0.9977(5) 0.7203(3) 0.18100(18)
C32 C 0.9964(5) 0.7570(3) 0.23632(19)
C33 C 1.0056(5) 0.6290(3) 0.17198(18)
H26 H 1.0139 0.5896 0.2011
C34 C 1.0011(5) 0.5947(3) 0.12006(19)
C35 C 1.0011(6) 0.4945(3) 0.1120(2)
C36 C 0.9919(5) 0.6543(3) 0.07680(19)
H27 H 0.9871 0.6320 0.0419
O1 O 0.9917(4) 0.8943(2) 0.05090(13)
O2 O 0.9626(4) 0.7815(2) -0.00828(13)
O3 O 0.9532(4) 0.8357(2) 0.24334(13)
O4 O 1.0387(4) 0.7084(2) 0.27719(13)
O5 O 1.0537(4) 0.4495(2) 0.15228(13)
O6 O 0.9448(5) 0.4633(2) 0.06829(14)
O7 O 0.9153(4) 0.2952(2) 0.09408(14)
O8 O 1.1071(4) 1.0686(2) 0.06674(15)
H30 H 1.186(3) 1.048(4) 0.061(2)
H31 H 1.091(7) 1.1193(18) 0.052(2)
H32 H 0.959(7) 0.254(3) 0.0796(16)
H33 H 0.911(8) 0.3418(18) 0.0740(14)
Ni1_2 Ni 1.99623(7) -0.67550(4) 0.17269(2)
Ni1_3 Ni -0.00377(7) 1.32450(4) 0.17269(2)
Ni1A Ni 1.00377(7) 0.82450(4) 0.32731(2)
Ni1A_2 Ni 2.00377(7) -0.17550(4) 0.32731(2)
Ni2_2 Ni 0.0000 2.0000 0.0000
Ni2_3 Ni 2.0000 0.0000 0.0000
N1_2 N 1.7975(5) -0.6228(3) 0.18230(17)
N2_2 N 1.6490(8) -0.5346(5) 0.2204(2)
N3_2 N 1.6010(5) -0.5483(4) 0.1680(2)
N4_2 N 1.4094(6) 0.2238(3) 0.1727(2)
N5_2 N 1.3921(6) 0.2609(4) 0.1227(2)
N6_2 N 1.1959(5) 0.2767(3) 0.16290(17)
N6_3 N 2.1959(5) -0.7233(3) 0.16290(17)
N7B N 0.4008(5) 1.8897(3) -0.01039(18)
N8B N 0.3697(7) 1.9058(5) -0.0630(2)
N9B N 0.1947(5) 1.9547(3) -0.02013(17)
N9B_2 N 1.1947(5) 0.9547(3) -0.02013(17)
C1_2 C 1.6907(6) -0.5996(4) 0.1465(2)
H1_2 H 1.6805 -0.6174 0.1107
C2_2 C 1.7642(8) -0.5818(6) 0.2274(2)
H2_2 H 1.8192 -0.5870 0.2606
C3_2 C 1.4728(6) -0.5025(5) 0.1437(3)
H3_2 H 1.3924 -0.5237 0.1606
H4_2 H 1.4562 -0.5173 0.1058
C4_2 C 1.4852(6) -0.4018(4) 0.1501(2)
C5_2 C 1.6096(7) -0.3545(5) 0.1464(2)
H5_2 H 1.6896 -0.3860 0.1392
C6_2 C 1.6181(7) -0.2634(5) 0.1530(3)
H6_2 H 1.7038 -0.2347 0.1505
C7_2 C 1.5007(6) -0.2123(5) 0.1632(2)
C8_2 C 1.3759(6) -0.2591(5) 0.1663(3)
H7_2 H 1.2952 -0.2276 0.1726
C9_2 C 1.3689(6) -0.3520(5) 0.1602(3)
H8_2 H 1.2838 -0.3813 0.1629
C10_2 C 1.5097(6) -0.1137(4) 0.1701(2)
C11_2 C 1.6317(6) -0.0722(5) 0.1943(2)
H9_2 H 1.7103 -0.1073 0.2059
C12_2 C 1.6393(6) 0.0201(5) 0.2015(2)
H10_2 H 1.7223 0.0456 0.2182
C13_2 C 1.5243(6) 0.0757(5) 0.1842(2)
C14_2 C 1.4027(7) 0.0336(5) 0.1599(2)
H11_2 H 1.3250 0.0686 0.1471
C15_2 C 1.3942(6) -0.0587(5) 0.1542(2)
H12_2 H 1.3096 -0.0845 0.1393
C16_2 C 1.5393(7) 0.1745(5) 0.1918(3)
H13_2 H 1.5651 0.1872 0.2297
H14_2 H 1.6154 0.1959 0.1726
C17_2 C 1.2917(7) 0.2344(4) 0.1951(2)
H15_2 H 1.2790 0.2144 0.2294
C18_2 C 1.2626(7) 0.2920(4) 0.1192(2)
H16_2 H 1.2201 0.3223 0.0890
C19B C 0.2455(8) 1.9461(5) -0.0671(2)
H17B H 0.1982 1.9664 -0.0995
C20B C 0.2947(7) 1.9197(4) 0.0135(2)
H18B H 0.2914 1.9164 0.0504
C21B C 0.5287(6) 1.8412(4) 0.0115(3)
H19B H 0.6064 1.8600 -0.0077
H20B H 0.5524 1.8579 0.0490
C22B C 0.5144(6) 1.7403(4) 0.0077(2)
C23B C 0.3870(7) 1.6950(4) 0.0052(3)
H21B H 0.3036 1.7274 0.0056
C24B C 0.3822(7) 1.6021(4) 0.0021(3)
H22B H 0.2947 1.5736 -0.0002
C25B C 0.5031(6) 1.5494(4) 0.0022(2)
C26B C 0.6303(6) 1.5959(4) 0.0056(2)
H23B H 0.7142 1.5639 0.0060
C27B C 0.6348(7) 1.6894(4) 0.0084(2)
H24B H 0.7220 1.7182 0.0107
C28_2 C 1.9825(5) -0.1879(3) 0.0385(2)
C29_2 C 1.9896(5) -0.2523(3) 0.08551(18)
C30_2 C 1.9902(5) -0.2205(3) 0.1374(2)
H25_2 H 1.9855 -0.1588 0.1433
C31_2 C 1.9977(5) -0.2797(3) 0.18100(18)
C32_2 C 1.9964(5) -0.2430(3) 0.23632(19)
C32A C 1.0036(5) 0.2570(3) 0.26368(19)
C32A_2 C 2.0036(5) -0.7430(3) 0.26368(19)
C33_2 C 2.0056(5) -0.3710(3) 0.17198(18)
H26_2 H 2.0139 -0.4104 0.2011
C34_2 C 2.0011(5) -0.4053(3) 0.12006(19)
C35_2 C 2.0011(6) -0.5055(3) 0.1120(2)
C36_2 C 1.9919(5) -0.3457(3) 0.07680(19)
H27_2 H 1.9871 -0.3680 0.0419
O1_2 O 1.9917(4) -0.1057(2) 0.05090(13)
O1B O 1.0083(4) 1.1057(2) -0.05090(13)
O2_2 O 1.9626(4) -0.2185(2) -0.00828(13)
O3_2 O 1.9532(4) -0.1643(2) 0.24334(13)
O3A O 1.0468(4) 0.3357(2) 0.25666(13)
O3A_2 O 2.0468(4) -0.6643(2) 0.25666(13)
O4_2 O 2.0387(4) -0.2916(2) 0.27719(13)
O4A O 0.9613(4) 0.2084(2) 0.22281(13)
O4A_2 O 1.9613(4) -0.7916(2) 0.22281(13)
O5_2 O 2.0537(4) -0.5505(2) 0.15228(13)
O6_2 O 1.9448(5) -0.5367(2) 0.06829(14)
O7_2 O 1.9153(4) -0.7048(2) 0.09408(14)
O8B O 0.8929(4) 0.9314(2) -0.06674(15)
H30B H 0.814(3) 0.952(4) -0.061(2)
H31B H 0.909(7) 0.8807(18) -0.052(2)
H32_2 H 1.959(7) -0.746(3) 0.0796(16)
H33_2 H 1.911(8) -0.6582(18) 0.0740(14)
O9 O 0.9885(7) 0.5413(4) 0.3284(2)
H28 H 1.015(9) 0.588(3) 0.313(3)
H29 H 0.950(9) 0.555(5) 0.356(2)
loop_
_geom_bond_atom_site_label_1
_geom_bond_atom_site_label_2
_geom_bond_site_symmetry_1
_geom_bond_site_symmetry_2
Ni1 N1 1_555 1_555
Ni2 N9 1_555 1_555
N1 C1 1_555 1_555
N2 N3 1_555 1_555
N3 C1 1_555 1_555
N4 N5 1_555 1_555
N5 C18 1_555 1_555
N6 C17 1_555 1_555
N7 N8 1_555 1_555
N8 C19 1_555 1_555
N9 C19 1_555 1_555
C1 H1 1_555 1_555
C2 N1 1_555 1_555
H2 C2 1_555 1_555
C3 N3 1_555 1_555
H3 C3 1_555 1_555
H4 C3 1_555 1_555
C4 C3 1_555 1_555
C5 C4 1_555 1_555
H5 C5 1_555 1_555
C6 C5 1_555 1_555
H6 C6 1_555 1_555
C7 C6 1_555 1_555
C8 C7 1_555 1_555
H7 C8 1_555 1_555
C9 C4 1_555 1_555
H8 C9 1_555 1_555
C10 C7 1_555 1_555
C11 C10 1_555 1_555
H9 C11 1_555 1_555
C12 C11 1_555 1_555
H10 C12 1_555 1_555
C13 C12 1_555 1_555
C14 C13 1_555 1_555
H11 C14 1_555 1_555
C15 C10 1_555 1_555
H12 C15 1_555 1_555
C16 N4 1_555 1_555
H13 C16 1_555 1_555
H14 C16 1_555 1_555
C17 N4 1_555 1_555
H15 C17 1_555 1_555
C18 N6 1_555 1_555
H16 C18 1_555 1_555
C19 H17 1_555 1_555
C20 N7 1_555 1_555
H18 C20 1_555 1_555
C21 N7 1_555 1_555
H19 C21 1_555 1_555
H20 C21 1_555 1_555
C22 C21 1_555 1_555
C23 C22 1_555 1_555
H21 C23 1_555 1_555
C24 C23 1_555 1_555
H22 C24 1_555 1_555
C25 C24 1_555 1_555
C26 C25 1_555 1_555
H23 C26 1_555 1_555
C27 C22 1_555 1_555
H24 C27 1_555 1_555
C28 C29 1_555 1_555
C29 C30 1_555 1_555
C30 H25 1_555 1_555
C31 C30 1_555 1_555
C32 C31 1_555 1_555
C33 C31 1_555 1_555
H26 C33 1_555 1_555
C34 C33 1_555 1_555
C35 C34 1_555 1_555
C36 C29 1_555 1_555
H27 C36 1_555 1_555
O1 Ni2 1_555 1_555
O2 C28 1_555 1_555
O3 C32 1_555 1_555
O4 C32 1_555 1_555
O5 Ni1 1_555 1_555
O6 C35 1_555 1_555
O7 Ni1 1_555 1_555
O8 Ni2 1_555 1_555
O9 H28 1_555 1_555
H29 O9 1_555 1_555
H30 O8 1_555 1_555
H31 O8 1_555 1_555
H32 O7 1_555 1_555
H33 O7 1_555 1_555
Ni1_2 N1_2 1_555 1_555
Ni1_3 N6 1_555 1_555
Ni1A O3 1_555 1_555
Ni1A_2 O3_2 1_555 1_555
Ni2_2 N9B 1_555 1_555
Ni2_3 O1_2 1_555 1_555
N1_2 C1_2 1_555 1_555
N2_2 N3_2 1_555 1_555
N3_2 C1_2 1_555 1_555
N4_2 N5_2 1_555 1_555
N5_2 C18_2 1_555 1_555
N6_2 Ni1 1_555 1_555
N6_3 Ni1_2 1_555 1_555
N7B N8B 1_555 1_555
N8B C19B 1_555 1_555
N9B C19B 1_555 1_555
N9B_2 Ni2 1_555 1_555
C1_2 H1_2 1_555 1_555
C2_2 N1_2 1_555 1_555
H2_2 C2_2 1_555 1_555
C3_2 N3_2 1_555 1_555
H3_2 C3_2 1_555 1_555
H4_2 C3_2 1_555 1_555
C4_2 C3_2 1_555 1_555
C5_2 C4_2 1_555 1_555
H5_2 C5_2 1_555 1_555
C6_2 C5_2 1_555 1_555
H6_2 C6_2 1_555 1_555
C7_2 C6_2 1_555 1_555
C8_2 C7_2 1_555 1_555
H7_2 C8_2 1_555 1_555
C9_2 C4_2 1_555 1_555
H8_2 C9_2 1_555 1_555
C10_2 C7_2 1_555 1_555
C11_2 C10_2 1_555 1_555
H9_2 C11_2 1_555 1_555
C12_2 C11_2 1_555 1_555
H10_2 C12_2 1_555 1_555
C13_2 C12_2 1_555 1_555
C14_2 C13_2 1_555 1_555
H11_2 C14_2 1_555 1_555
C15_2 C10_2 1_555 1_555
H12_2 C15_2 1_555 1_555
C16_2 N4_2 1_555 1_555
H13_2 C16_2 1_555 1_555
H14_2 C16_2 1_555 1_555
C17_2 N4_2 1_555 1_555
H15_2 C17_2 1_555 1_555
C18_2 N6_2 1_555 1_555
H16_2 C18_2 1_555 1_555
C19B H17B 1_555 1_555
C20B N7B 1_555 1_555
H18B C20B 1_555 1_555
C21B N7B 1_555 1_555
H19B C21B 1_555 1_555
H20B C21B 1_555 1_555
C22B C21B 1_555 1_555
C23B C22B 1_555 1_555
H21B C23B 1_555 1_555
C24B C23B 1_555 1_555
H22B C24B 1_555 1_555
C25B C25 1_555 1_555
C26B C25B 1_555 1_555
H23B C26B 1_555 1_555
C27B C22B 1_555 1_555
H24B C27B 1_555 1_555
C28_2 C29_2 1_555 1_555
C29_2 C30_2 1_555 1_555
C30_2 H25_2 1_555 1_555
C31_2 C30_2 1_555 1_555
C32_2 C31_2 1_555 1_555
C32A O3A 1_555 1_555
C32A_2 O3A_2 1_555 1_555
C33_2 C31_2 1_555 1_555
H26_2 C33_2 1_555 1_555
C34_2 C33_2 1_555 1_555
C35_2 C34_2 1_555 1_555
C36_2 C29_2 1_555 1_555
H27_2 C36_2 1_555 1_555
O1_2 C28_2 1_555 1_555
O1B Ni2 1_555 1_555
O2_2 C28_2 1_555 1_555
O3_2 C32_2 1_555 1_555
O3A Ni1 1_555 1_555
O3A_2 Ni1_2 1_555 1_555
O4_2 Ni1A_2 1_555 1_555
O4A Ni1 1_555 1_555
O4A_2 Ni1_2 1_555 1_555
O5_2 Ni1_2 1_555 1_555
O6_2 C35_2 1_555 1_555
O7_2 Ni1_2 1_555 1_555
O8B Ni2 1_555 1_555
H30B O8B 1_555 1_555
H31B O8B 1_555 1_555
H32_2 O7_2 1_555 1_555
H33_2 O7_2 1_555 1_555
N2 C2 1_555 1_555
N9 C20 1_555 1_555
C8 C9 1_555 1_555
C13 C16 1_555 1_555
C14 C15 1_555 1_555
C26 C27 1_555 1_555
C28 O1 1_555 1_555
C34 C36 1_555 1_555
C35 O5 1_555 1_555
O4 Ni1A 1_555 1_555
N2_2 C2_2 1_555 1_555
N6_2 C17_2 1_555 1_555
N9B C20B 1_555 1_555
C8_2 C9_2 1_555 1_555
C13_2 C16_2 1_555 1_555
C14_2 C15_2 1_555 1_555
C24B C25B 1_555 1_555
C26B C27B 1_555 1_555
C32_2 O4_2 1_555 1_555
C32A O4A 1_555 1_555
C32A_2 O4A_2 1_555 1_555
C34_2 C36_2 1_555 1_555
C35_2 O5_2 1_555 1_555

#END
