
#######################################################################
#
#                 Cambridge Crystallographic Data Centre
#                                CCDC 
#
#######################################################################
#
# If this CIF has been generated from an entry in the Cambridge 
# Structural Database, then it will include bibliographic, chemical, 
# crystal, experimental, refinement or atomic coordinate data resulting 
# from the CCDC's data processing and validation procedures.
#
#######################################################################

data_AVUJAD
_symmetry_cell_setting           monoclinic
_symmetry_space_group_name_H-M   'P 21/c'
_symmetry_Int_Tables_number      14
_space_group_name_Hall           '-P 2ybc'
loop_
_symmetry_equiv_pos_site_id
_symmetry_equiv_pos_as_xyz
1 x,y,z
2 -x,1/2+y,1/2-z
3 -x,-y,-z
4 x,1/2-y,1/2+z
_cell_length_a                   10.169(2)
_cell_length_b                   16.396(3)
_cell_length_c                   17.484(5)
_cell_angle_alpha                90
_cell_angle_beta                 119.24(2)
_cell_angle_gamma                90
_cell_volume                     2543.68
loop_
_atom_site_label
_atom_site_type_symbol
_atom_site_fract_x
_atom_site_fract_y
_atom_site_fract_z
Cu1 Cu -0.23033(6) -0.17507(3) 0.27155(4)
O1 O -0.0385(3) -0.16248(17) 0.2708(2)
O2 O -0.0896(4) -0.03213(19) 0.2765(3)
O3 O 0.4053(4) 0.13211(19) 0.2004(2)
H1 H 0.4401 0.1784 0.2126
O4 O 0.5820(3) -0.13940(18) 0.2677(2)
O5 O 0.2376(3) 0.18082(18) 0.2370(2)
O6 O 0.4458(4) -0.23924(18) 0.2804(3)
N1 N -0.1232(4) -0.1786(2) 0.4010(2)
N2 N -0.0668(5) -0.1975(3) 0.5402(3)
N3 N 0.0463(4) -0.1573(2) 0.5363(3)
N4 N -0.3395(4) -0.1753(2) 0.1421(3)
N5 N -0.3879(5) -0.2033(3) 0.0062(3)
N6 N -0.5051(5) -0.1618(3) 0.0048(3)
C1 C 0.0107(5) -0.1466(3) 0.4538(3)
H2 H 0.0712 -0.1204 0.4353
C2 C -0.1654(6) -0.2090(3) 0.4573(3)
H3 H -0.2566 -0.2357 0.4391
C3 C 0.1820(6) -0.1303(4) 0.6167(4)
H4 H 0.1543 -0.0915 0.6484
H5 H 0.2312 -0.1765 0.6548
C4 C 0.2858(5) -0.0908(3) 0.5897(3)
C5 C 0.2753(7) -0.0093(4) 0.5702(5)
H6 H 0.2102 0.0231 0.5802
C6 C 0.3861(7) -0.1354(4) 0.5755(4)
H7 H 0.3982 -0.1907 0.5892
C7 C 0.4695(7) -0.1003(4) 0.5416(4)
H8 H 0.5371 -0.1325 0.5336
C8 C 0.4566(5) -0.0186(3) 0.5192(3)
C9 C 0.3578(7) 0.0261(4) 0.5361(5)
H9 H 0.3471 0.0817 0.5239
C10 C -0.2918(6) -0.2089(3) 0.0896(4)
H10 H -0.1981 -0.2336 0.1110
C11 C -0.4751(5) -0.1468(3) 0.0860(3)
H11 H -0.5398 -0.1206 0.1015
C12 C -0.6400(7) -0.1403(5) -0.0796(4)
H12 H -0.6117 -0.1045 -0.1134
H13 H -0.6838 -0.1894 -0.1135
C13 C -0.7530(7) -0.0987(4) -0.0614(4)
C14 C -0.7500(9) -0.0167(4) -0.0500(5)
H14 H -0.6822 0.0144 -0.0590
C15 C -0.8448(8) 0.0221(4) -0.0260(5)
H15 H -0.8381 0.0783 -0.0184
C16 C -0.9480(5) -0.0205(3) -0.0125(3)
C17 C -0.9525(8) -0.1032(4) -0.0260(6)
H16 H -1.0217 -0.1346 -0.0187
C18 C -0.8576(8) -0.1409(4) -0.0502(6)
H17 H -0.8651 -0.1970 -0.0589
C19 C -0.0116(5) -0.0862(3) 0.2699(3)
C20 C 0.1246(4) -0.0645(3) 0.2610(3)
C21 C 0.2255(4) -0.1245(3) 0.2659(3)
H18 H 0.2090 -0.1787 0.2746
C22 C 0.3514(4) -0.1038(2) 0.2579(3)
C23 C 0.3732(4) -0.0234(2) 0.2424(3)
H19 H 0.4552 -0.0097 0.2352
C24 C 0.2731(4) 0.0367(2) 0.2376(3)
C25 C 0.1502(5) 0.0161(3) 0.2482(3)
H20 H 0.0846 0.0566 0.2465
C26 C 0.3026(5) 0.1240(3) 0.2254(3)
C27 C 0.4673(5) -0.1671(3) 0.2693(3)
Cu1_2 Cu -1.23033(6) -0.17507(3) 0.27155(4)
Cu1_3 Cu 0.76967(6) -0.17507(3) 0.27155(4)
Cu1A Cu 0.23033(6) 0.32493(3) 0.22845(4)
Cu1B Cu 1.23033(6) 0.17507(3) 0.72845(4)
Cu1B_2 Cu -1.76967(6) 0.17507(3) -0.27155(4)
Cu1A_2 Cu -0.76967(6) 0.32493(3) 0.22845(4)
O1_2 O -1.0385(3) -0.16248(17) 0.2708(2)
O2_2 O -1.0896(4) -0.03213(19) 0.2765(3)
O3_2 O -0.5947(4) 0.13211(19) 0.2004(2)
H1_2 H -0.5599 0.1784 0.2126
O4_2 O -0.4180(3) -0.13940(18) 0.2677(2)
O4_3 O -1.4180(3) -0.13940(18) 0.2677(2)
O5_2 O -0.7624(3) 0.18082(18) 0.2370(2)
O5A O -0.2376(3) -0.31918(18) 0.2630(2)
O5A_2 O -1.2376(3) -0.31918(18) 0.2630(2)
O6_2 O -0.5542(4) -0.23924(18) 0.2804(3)
N1B N 1.1232(4) 0.1786(2) 0.5990(2)
N1_2 N -1.1232(4) -0.1786(2) 0.4010(2)
N2B N 1.0668(5) 0.1975(3) 0.4598(3)
N3B N 0.9537(4) 0.1573(2) 0.4637(3)
N4B N -1.6605(4) 0.1753(2) -0.1421(3)
N4_2 N -1.3395(4) -0.1753(2) 0.1421(3)
N5B N -1.6121(5) 0.2033(3) -0.0062(3)
N6B N -1.4949(5) 0.1618(3) -0.0048(3)
C1B C 0.9893(5) 0.1466(3) 0.5462(3)
H2B H 0.9288 0.1204 0.5647
C2B C 1.1654(6) 0.2090(3) 0.5427(3)
H3B H 1.2566 0.2357 0.5609
C3B C 0.8180(6) 0.1303(4) 0.3833(4)
H4B H 0.8457 0.0915 0.3516
H5B H 0.7688 0.1765 0.3452
C4B C 0.7142(5) 0.0908(3) 0.4103(3)
C5B C 0.7247(7) 0.0093(4) 0.4298(5)
H6B H 0.7898 -0.0231 0.4198
C6B C 0.6139(7) 0.1354(4) 0.4245(4)
H7B H 0.6018 0.1907 0.4108
C7B C 0.5305(7) 0.1003(4) 0.4584(4)
H8B H 0.4629 0.1325 0.4664
C8B C 0.5434(5) 0.0186(3) 0.4808(3)
C9B C 0.6422(7) -0.0261(4) 0.4639(5)
H9B H 0.6529 -0.0817 0.4761
C10B C -1.7082(6) 0.2089(3) -0.0896(4)
H10B H -1.8019 0.2336 -0.1110
C11B C -1.5249(5) 0.1468(3) -0.0860(3)
H11B H -1.4602 0.1206 -0.1015
C12B C -1.3600(7) 0.1403(5) 0.0796(4)
H12B H -1.3883 0.1045 0.1134
H13B H -1.3162 0.1894 0.1135
C13B C -1.2470(7) 0.0987(4) 0.0614(4)
C14B C -1.2500(9) 0.0167(4) 0.0500(5)
H14B H -1.3178 -0.0144 0.0590
C15B C -1.1552(8) -0.0221(4) 0.0260(5)
H15B H -1.1619 -0.0783 0.0184
C16B C -1.0520(5) 0.0205(3) 0.0125(3)
C17B C -1.0475(8) 0.1032(4) 0.0260(6)
H16B H -0.9783 0.1346 0.0187
C18B C -1.1424(8) 0.1409(4) 0.0502(6)
H17B H -1.1349 0.1970 0.0589
C19_2 C -1.0116(5) -0.0862(3) 0.2699(3)
C20_2 C -0.8754(4) -0.0645(3) 0.2610(3)
C21_2 C -0.7745(4) -0.1245(3) 0.2659(3)
H18_2 H -0.7910 -0.1787 0.2746
C22_2 C -0.6486(4) -0.1038(2) 0.2579(3)
C23_2 C -0.6268(4) -0.0234(2) 0.2424(3)
H19_2 H -0.5448 -0.0097 0.2352
C24_2 C -0.7269(4) 0.0367(2) 0.2376(3)
C25_2 C -0.8498(5) 0.0161(3) 0.2482(3)
H20_2 H -0.9154 0.0566 0.2465
C26_2 C -0.6974(5) 0.1240(3) 0.2254(3)
C27_2 C -0.5327(5) -0.1671(3) 0.2693(3)
loop_
_geom_bond_atom_site_label_1
_geom_bond_atom_site_label_2
_geom_bond_site_symmetry_1
_geom_bond_site_symmetry_2
Cu1 O1 1_555 1_555
O1 C19 1_555 1_555
O2 C19 1_555 1_555
O3 H1 1_555 1_555
O4 C27 1_555 1_555
O5 C26 1_555 1_555
O6 C27 1_555 1_555
N1 Cu1 1_555 1_555
N2 N3 1_555 1_555
N3 C1 1_555 1_555
N4 Cu1 1_555 1_555
N5 N6 1_555 1_555
N6 C11 1_555 1_555
C1 N1 1_555 1_555
H2 C1 1_555 1_555
C2 N1 1_555 1_555
H3 C2 1_555 1_555
C3 N3 1_555 1_555
H4 C3 1_555 1_555
H5 C3 1_555 1_555
C4 C3 1_555 1_555
C5 C4 1_555 1_555
H6 C5 1_555 1_555
C6 C4 1_555 1_555
H7 C6 1_555 1_555
C7 C6 1_555 1_555
H8 C7 1_555 1_555
C8 C7 1_555 1_555
C9 C5 1_555 1_555
H9 C9 1_555 1_555
C10 N4 1_555 1_555
H10 C10 1_555 1_555
C11 N4 1_555 1_555
H11 C11 1_555 1_555
C12 N6 1_555 1_555
H12 C12 1_555 1_555
H13 C12 1_555 1_555
C13 C12 1_555 1_555
C14 C13 1_555 1_555
H14 C14 1_555 1_555
C15 C14 1_555 1_555
H15 C15 1_555 1_555
C16 C15 1_555 1_555
C17 C16 1_555 1_555
H16 C17 1_555 1_555
C18 C13 1_555 1_555
H17 C18 1_555 1_555
C19 C20 1_555 1_555
C20 C21 1_555 1_555
C21 H18 1_555 1_555
C22 C21 1_555 1_555
C23 C22 1_555 1_555
H19 C23 1_555 1_555
C24 C23 1_555 1_555
C25 C20 1_555 1_555
H20 C25 1_555 1_555
C26 O3 1_555 1_555
C27 C22 1_555 1_555
Cu1_2 O1_2 1_555 1_555
Cu1_3 O4 1_555 1_555
Cu1A O5 1_555 1_555
Cu1B N1B 1_555 1_555
Cu1B_2 N4B 1_555 1_555
Cu1A_2 O5_2 1_555 1_555
O1_2 C19_2 1_555 1_555
O2_2 C19_2 1_555 1_555
O3_2 H1_2 1_555 1_555
O4_2 Cu1 1_555 1_555
O4_3 Cu1_2 1_555 1_555
O5_2 C26_2 1_555 1_555
O5A Cu1 1_555 1_555
O5A_2 Cu1_2 1_555 1_555
O6_2 C27_2 1_555 1_555
N1B C1B 1_555 1_555
N1_2 Cu1_2 1_555 1_555
N2B N3B 1_555 1_555
N3B C1B 1_555 1_555
N4B C10B 1_555 1_555
N4_2 Cu1_2 1_555 1_555
N5B N6B 1_555 1_555
N6B C11B 1_555 1_555
C1B H2B 1_555 1_555
C2B N1B 1_555 1_555
H3B C2B 1_555 1_555
C3B N3B 1_555 1_555
H4B C3B 1_555 1_555
H5B C3B 1_555 1_555
C4B C3B 1_555 1_555
C5B C4B 1_555 1_555
H6B C5B 1_555 1_555
C6B C4B 1_555 1_555
H7B C6B 1_555 1_555
C7B C6B 1_555 1_555
H8B C7B 1_555 1_555
C8B C8 1_555 1_555
C9B C5B 1_555 1_555
H9B C9B 1_555 1_555
C10B N5B 1_555 1_555
H10B C10B 1_555 1_555
C11B N4B 1_555 1_555
H11B C11B 1_555 1_555
C12B N6B 1_555 1_555
H12B C12B 1_555 1_555
H13B C12B 1_555 1_555
C13B C12B 1_555 1_555
C14B C13B 1_555 1_555
H14B C14B 1_555 1_555
C15B C14B 1_555 1_555
H15B C15B 1_555 1_555
C16B C16 1_555 1_555
C17B C16B 1_555 1_555
H16B C17B 1_555 1_555
C18B C13B 1_555 1_555
H17B C18B 1_555 1_555
C19_2 C20_2 1_555 1_555
C20_2 C21_2 1_555 1_555
C21_2 H18_2 1_555 1_555
C22_2 C21_2 1_555 1_555
C23_2 C22_2 1_555 1_555
H19_2 C23_2 1_555 1_555
C24_2 C23_2 1_555 1_555
C25_2 C20_2 1_555 1_555
H20_2 C25_2 1_555 1_555
C26_2 O3_2 1_555 1_555
C27_2 O4_2 1_555 1_555
N2 C2 1_555 1_555
N5 C10 1_555 1_555
C8 C9 1_555 1_555
C17 C18 1_555 1_555
C24 C25 1_555 1_555
C24 C26 1_555 1_555
N2B C2B 1_555 1_555
C7B C8B 1_555 1_555
C8B C9B 1_555 1_555
C15B C16B 1_555 1_555
C17B C18B 1_555 1_555
C22_2 C27_2 1_555 1_555
C24_2 C25_2 1_555 1_555
C24_2 C26_2 1_555 1_555

#END
