
#######################################################################
#
#                 Cambridge Crystallographic Data Centre
#                                CCDC 
#
#######################################################################
#
# If this CIF has been generated from an entry in the Cambridge 
# Structural Database, then it will include bibliographic, chemical, 
# crystal, experimental, refinement or atomic coordinate data resulting 
# from the CCDC's data processing and validation procedures.
#
#######################################################################

data_AVUJIL
_symmetry_cell_setting           monoclinic
_symmetry_space_group_name_H-M   'P 21/c'
_symmetry_Int_Tables_number      14
_space_group_name_Hall           '-P 2ybc'
loop_
_symmetry_equiv_pos_site_id
_symmetry_equiv_pos_as_xyz
1 x,y,z
2 -x,1/2+y,1/2-z
3 -x,-y,-z
4 x,1/2-y,1/2+z
_cell_length_a                   8.619(2)
_cell_length_b                   17.959(3)
_cell_length_c                   8.135(2)
_cell_angle_alpha                90
_cell_angle_beta                 110.828(14)
_cell_angle_gamma                90
_cell_volume                     1176.92
loop_
_atom_site_label
_atom_site_type_symbol
_atom_site_fract_x
_atom_site_fract_y
_atom_site_fract_z
Pr1 Pr 0.21346(3) 0.522309(17) 0.74888(4)
S1 S -0.19582(19) 0.76485(9) 0.6251(2)
O1 O -0.1145(5) 0.5613(2) 0.5049(5)
O2 O 0.0237(6) 0.6288(3) 0.7386(6)
O3 O -0.6011(6) 0.8818(3) 0.4062(6)
O4 O -0.3525(6) 0.9171(3) 0.5891(6)
O5 O 0.2007(6) 0.5352(3) 1.0540(6)
O6 O 0.0277(6) 0.5401(3) 1.2037(6)
O7 O 0.2325(6) 0.6063(3) 0.5066(5)
H1 H 0.3315 0.6022 0.5089
H2 H 0.1679 0.5921 0.4059
O8 O 0.4896(6) 0.5070(3) 0.6864(7)
H3 H 0.5823 0.4994 0.7684
H4 H 0.4732 0.5537 0.6778
C1 C -0.2329(8) 0.6751(4) 0.5448(7)
C2 C -0.3920(8) 0.6678(4) 0.4266(8)
H7 H -0.4347 0.6234 0.3695
C3 C -0.4839(8) 0.7341(4) 0.4009(9)
H8 H -0.5941 0.7382 0.3267
C4 C -0.3936(7) 0.7918(3) 0.4966(7)
C5 C -0.1019(7) 0.6185(3) 0.5986(7)
C6 C -0.4529(7) 0.8693(3) 0.4967(7)
C7 C 0.0660(8) 0.5215(3) 1.0748(7)
Pr1B Pr -0.21346(3) 0.477691(17) 0.25112(4)
Pr1A Pr -0.21346(3) 1.022309(17) 0.75112(4)
Pr1A_2 Pr 0.78654(3) 0.022309(17) 0.75112(4)
Pr1B_2 Pr -0.21346(3) 0.477691(17) 1.25112(4)
Pr1C Pr -0.78654(3) 0.977691(17) 0.24888(4)
Pr1C_2 Pr 0.21346(3) -0.022309(17) 0.24888(4)
S1B S 0.19582(19) 0.23515(9) 0.3749(2)
O1B O 0.1145(5) 0.4387(2) 0.4951(5)
O2B O -0.0237(6) 0.3712(3) 0.2614(6)
O3B O 0.6011(6) 0.1182(3) 0.5938(6)
O3A O -0.3989(6) 0.3818(3) 0.0938(6)
O3C O 0.3989(6) 0.6182(3) 0.9062(6)
O4B O 0.3525(6) 0.0829(3) 0.4109(6)
O4A O 0.3525(6) 0.4171(3) 0.9109(6)
O4C O -0.3525(6) 0.5829(3) 0.0891(6)
O5B O -0.2007(6) 0.4648(3) 0.9460(6)
O5B_2 O -0.2007(6) 0.4648(3) -0.0540(6)
O6B O -0.0277(6) 0.4599(3) 0.7963(6)
O6_2 O 0.0277(6) 0.5401(3) 0.2037(6)
O7B O -0.2325(6) 0.3937(3) 0.4934(5)
H1B H -0.3315 0.3978 0.4911
H2B H -0.1679 0.4079 0.5941
O8B O -0.4896(6) 0.4930(3) 0.3136(7)
H3B H -0.5823 0.5006 0.2316
H4B H -0.4732 0.4463 0.3222
C1B C 0.2329(8) 0.3249(4) 0.4552(7)
C2B C 0.3920(8) 0.3322(4) 0.5734(8)
H7B H 0.4347 0.3766 0.6305
C3B C 0.4839(8) 0.2659(4) 0.5991(9)
H8B H 0.5941 0.2618 0.6733
C4B C 0.3936(7) 0.2082(3) 0.5034(7)
C5B C 0.1019(7) 0.3815(3) 0.4014(7)
C6B C 0.4529(7) 0.1307(3) 0.5033(7)
C7B C -0.0660(8) 0.4785(3) 0.9252(7)
O9 O 0.1800(8) 0.7598(3) 0.5139(8)
H5 H 0.1684 0.7202 0.5656
H6 H 0.1284 0.7945 0.5439
loop_
_geom_bond_atom_site_label_1
_geom_bond_atom_site_label_2
_geom_bond_site_symmetry_1
_geom_bond_site_symmetry_2
Pr1 O1 1_555 1_555
S1 C1 1_555 1_555
O1 C5 1_555 1_555
O2 Pr1 1_555 1_555
O3 C6 1_555 1_555
O4 C6 1_555 1_555
O5 Pr1 1_555 1_555
O6 C7 1_555 1_555
O7 Pr1 1_555 1_555
H1 O7 1_555 1_555
H2 O7 1_555 1_555
O8 Pr1 1_555 1_555
H3 O8 1_555 1_555
H4 O8 1_555 1_555
O9 H5 1_555 1_555
H6 O9 1_555 1_555
C1 C2 1_555 1_555
C2 H7 1_555 1_555
C3 C2 1_555 1_555
H8 C3 1_555 1_555
C4 S1 1_555 1_555
C5 O2 1_555 1_555
C6 C4 1_555 1_555
C7 O5 1_555 1_555
Pr1B O1 1_555 1_555
Pr1A O4 1_555 1_555
Pr1A_2 O3B 1_555 1_555
Pr1B_2 O6 1_555 1_555
Pr1C O3 1_555 1_555
Pr1C_2 O4B 1_555 1_555
S1B C1B 1_555 1_555
O1B Pr1 1_555 1_555
O2B Pr1B 1_555 1_555
O3B C6B 1_555 1_555
O3A Pr1B 1_555 1_555
O3C Pr1 1_555 1_555
O4B C6B 1_555 1_555
O4A Pr1 1_555 1_555
O4C Pr1B 1_555 1_555
O5B Pr1B_2 1_555 1_555
O5B_2 Pr1B 1_555 1_555
O6B Pr1 1_555 1_555
O6_2 Pr1B 1_555 1_555
O7B Pr1B 1_555 1_555
H1B O7B 1_555 1_555
H2B O7B 1_555 1_555
O8B Pr1B 1_555 1_555
H3B O8B 1_555 1_555
H4B O8B 1_555 1_555
C1B C2B 1_555 1_555
C2B H7B 1_555 1_555
C3B C2B 1_555 1_555
H8B C3B 1_555 1_555
C4B S1B 1_555 1_555
C5B O1B 1_555 1_555
C6B C4B 1_555 1_555
C7B C7 1_555 1_555
C1 C5 1_555 1_555
C3 C4 1_555 1_555
Pr1B O1B 1_555 1_555
O2B C5B 1_555 1_555
O5B C7B 1_555 1_555
O6B C7B 1_555 1_555
C1B C5B 1_555 1_555
C3B C4B 1_555 1_555

#END
