
#######################################################################
#
#                 Cambridge Crystallographic Data Centre
#                                CCDC 
#
#######################################################################
#
# If this CIF has been generated from an entry in the Cambridge 
# Structural Database, then it will include bibliographic, chemical, 
# crystal, experimental, refinement or atomic coordinate data resulting 
# from the CCDC's data processing and validation procedures.
#
#######################################################################

data_AVUJUX
_symmetry_cell_setting           monoclinic
_symmetry_space_group_name_H-M   'P 21/c'
_symmetry_Int_Tables_number      14
_space_group_name_Hall           '-P 2ybc'
loop_
_symmetry_equiv_pos_site_id
_symmetry_equiv_pos_as_xyz
1 x,y,z
2 -x,1/2+y,1/2-z
3 -x,-y,-z
4 x,1/2-y,1/2+z
_cell_length_a                   8.591(2)
_cell_length_b                   17.914(3)
_cell_length_c                   8.1002(18)
_cell_angle_alpha                90
_cell_angle_beta                 110.854(14)
_cell_angle_gamma                90
_cell_volume                     1164.95
loop_
_atom_site_label
_atom_site_type_symbol
_atom_site_fract_x
_atom_site_fract_y
_atom_site_fract_z
Nd1 Nd 0.21340(3) 0.522272(11) 0.74975(3)
S1 S -0.19588(14) 0.76497(6) 0.62565(15)
O1 O -0.1163(4) 0.56056(17) 0.5034(4)
O2 O 0.0224(4) 0.62814(18) 0.7377(4)
O3 O -0.6024(4) 0.88172(18) 0.4068(4)
O4 O -0.3518(5) 0.91760(18) 0.5882(5)
O5 O 0.2005(4) 0.5355(2) 1.0550(4)
O6 O 0.0267(4) 0.5403(2) 1.2041(4)
O7 O 0.2324(4) 0.60587(19) 0.5081(4)
H1 H 0.3316 0.6031 0.5092
H2 H 0.1673 0.5923 0.4067
O8 O 0.4883(5) 0.5069(2) 0.6890(5)
H3 H 0.5847 0.4977 0.7637
H4 H 0.4942 0.5477 0.6376
C1 C -0.2348(6) 0.6750(2) 0.5457(6)
C2 C -0.3932(6) 0.6675(2) 0.4265(6)
H7 H -0.4357 0.6230 0.3692
C3 C -0.4852(6) 0.7341(2) 0.3995(6)
H8 H -0.5954 0.7384 0.3239
C4 C -0.3943(5) 0.7919(2) 0.4969(6)
C5 C -0.1025(5) 0.6183(2) 0.5986(6)
C6 C -0.4536(5) 0.8698(2) 0.4980(6)
C7 C 0.0664(6) 0.5220(2) 1.0754(6)
Nd1B Nd -0.21340(3) 0.477728(11) 0.25025(3)
Nd1A Nd -0.21340(3) 1.022272(11) 0.75025(3)
Nd1A_2 Nd 0.78660(3) 0.022272(11) 0.75025(3)
Nd1B_2 Nd -0.21340(3) 0.477728(11) 1.25025(3)
Nd1C Nd -0.78660(3) 0.977728(11) 0.24975(3)
Nd1C_2 Nd 0.21340(3) -0.022272(11) 0.24975(3)
S1B S 0.19588(14) 0.23503(6) 0.37435(15)
O1B O 0.1163(4) 0.43944(17) 0.4966(4)
O2B O -0.0224(4) 0.37186(18) 0.2623(4)
O3B O 0.6024(4) 0.11828(18) 0.5932(4)
O3A O -0.3976(4) 0.38172(18) 0.0932(4)
O3C O 0.3976(4) 0.61828(18) 0.9068(4)
O4B O 0.3518(5) 0.08240(18) 0.4118(5)
O4A O 0.3518(5) 0.41760(18) 0.9118(5)
O4C O -0.3518(5) 0.58240(18) 0.0882(5)
O5B O -0.2005(4) 0.4645(2) 0.9450(4)
O5B_2 O -0.2005(4) 0.4645(2) -0.0550(4)
O6B O -0.0267(4) 0.4597(2) 0.7959(4)
O6_2 O 0.0267(4) 0.5403(2) 0.2041(4)
O7B O -0.2324(4) 0.39413(19) 0.4919(4)
H1B H -0.3316 0.3969 0.4908
H2B H -0.1673 0.4077 0.5933
O8B O -0.4883(5) 0.4931(2) 0.3110(5)
H3B H -0.5847 0.5023 0.2363
H4B H -0.4942 0.4523 0.3624
C1B C 0.2348(6) 0.3250(2) 0.4543(6)
C2B C 0.3932(6) 0.3325(2) 0.5735(6)
H7B H 0.4357 0.3770 0.6308
C3B C 0.4852(6) 0.2659(2) 0.6005(6)
H8B H 0.5954 0.2616 0.6761
C4B C 0.3943(5) 0.2081(2) 0.5031(6)
C5B C 0.1025(5) 0.3817(2) 0.4014(6)
C6B C 0.4536(5) 0.1302(2) 0.5020(6)
C7B C -0.0664(6) 0.4780(2) 0.9246(6)
O9 O 0.1775(6) 0.7600(2) 0.5139(6)
H5 H 0.1653 0.7207 0.5668
H6 H 0.1263 0.7952 0.5439
loop_
_geom_bond_atom_site_label_1
_geom_bond_atom_site_label_2
_geom_bond_site_symmetry_1
_geom_bond_site_symmetry_2
Nd1 O1 1_555 1_555
S1 C1 1_555 1_555
O1 C5 1_555 1_555
O2 Nd1 1_555 1_555
O3 C6 1_555 1_555
O4 C6 1_555 1_555
O5 Nd1 1_555 1_555
O6 C7 1_555 1_555
O7 Nd1 1_555 1_555
H1 O7 1_555 1_555
H2 O7 1_555 1_555
O8 Nd1 1_555 1_555
H3 O8 1_555 1_555
H4 O8 1_555 1_555
O9 H5 1_555 1_555
H6 O9 1_555 1_555
C1 C2 1_555 1_555
C2 H7 1_555 1_555
C3 C2 1_555 1_555
H8 C3 1_555 1_555
C4 S1 1_555 1_555
C5 O2 1_555 1_555
C6 C4 1_555 1_555
C7 O5 1_555 1_555
Nd1B O1 1_555 1_555
Nd1A O4 1_555 1_555
Nd1A_2 O3B 1_555 1_555
Nd1B_2 O6 1_555 1_555
Nd1C O3 1_555 1_555
Nd1C_2 O4B 1_555 1_555
S1B C1B 1_555 1_555
O1B Nd1 1_555 1_555
O2B Nd1B 1_555 1_555
O3B C6B 1_555 1_555
O3A Nd1B 1_555 1_555
O3C Nd1 1_555 1_555
O4B C6B 1_555 1_555
O4A Nd1 1_555 1_555
O4C Nd1B 1_555 1_555
O5B Nd1B_2 1_555 1_555
O5B_2 Nd1B 1_555 1_555
O6B Nd1 1_555 1_555
O6_2 Nd1B 1_555 1_555
O7B Nd1B 1_555 1_555
H1B O7B 1_555 1_555
H2B O7B 1_555 1_555
O8B Nd1B 1_555 1_555
H3B O8B 1_555 1_555
H4B O8B 1_555 1_555
C1B C2B 1_555 1_555
C2B H7B 1_555 1_555
C3B C2B 1_555 1_555
H8B C3B 1_555 1_555
C4B S1B 1_555 1_555
C5B O1B 1_555 1_555
C6B C4B 1_555 1_555
C7B C7 1_555 1_555
C1 C5 1_555 1_555
C3 C4 1_555 1_555
Nd1B O1B 1_555 1_555
O2B C5B 1_555 1_555
O5B C7B 1_555 1_555
O6B C7B 1_555 1_555
C1B C5B 1_555 1_555
C3B C4B 1_555 1_555

#END
