
#######################################################################
#
#                 Cambridge Crystallographic Data Centre
#                                CCDC 
#
#######################################################################
#
# If this CIF has been generated from an entry in the Cambridge 
# Structural Database, then it will include bibliographic, chemical, 
# crystal, experimental, refinement or atomic coordinate data resulting 
# from the CCDC's data processing and validation procedures.
#
#######################################################################

data_AVUJOQ
_symmetry_cell_setting           tetragonal
_symmetry_space_group_name_H-M   'P -4 n 2'
_symmetry_Int_Tables_number      118
_space_group_name_Hall           'P -4 -2n'
loop_
_symmetry_equiv_pos_site_id
_symmetry_equiv_pos_as_xyz
1 x,y,z
2 -x,-y,z
3 y,-x,-z
4 -y,x,-z
5 1/2+x,1/2-y,1/2+z
6 1/2-x,1/2+y,1/2+z
7 1/2+y,1/2+x,1/2-z
8 1/2-y,1/2-x,1/2-z
_cell_length_a                   8.1791(6)
_cell_length_b                   8.1791(6)
_cell_length_c                   16.4200(10)
_cell_angle_alpha                90
_cell_angle_beta                 90
_cell_angle_gamma                90
_cell_volume                     1098.46
loop_
_atom_site_label
_atom_site_type_symbol
_atom_site_fract_x
_atom_site_fract_y
_atom_site_fract_z
Cd1 Cd 0.71465(2) 0.78535(2) 0.7500
N1 N 0.4751(3) 0.8065(2) 0.82440(10)
O1 O -0.1028(2) 0.8095(2) 0.86350(10)
O2 O -0.0047(3) 0.7960(2) 0.73870(10)
C1 C 0.3220(5) 0.8087(4) 0.79540(10)
C2 C 0.1858(3) 0.8106(3) 0.8475(2)
C3 C 0.2131(3) 0.8108(4) 0.9308(2)
C4 C 0.3711(3) 0.8066(3) 0.9603(2)
C5 C 0.4982(3) 0.8037(3) 0.9054(2)
C6 C 0.0142(3) 0.8048(3) 0.8144(2)
H1 H 0.1252 0.8138 0.9667
H2 H 0.3912 0.8058 1.0161
H3 H 0.6046 0.7996 0.9252
C1F C 0.3087(4) 0.8220(5) 0.70460(10)
N1F N 0.3065(2) 0.9751(3) 0.67560(10)
C5F C 0.3037(3) 0.9982(3) 0.5946(2)
C4F C 0.3066(3) 0.8711(3) 0.5397(2)
C3F C 0.3108(4) 0.7131(3) 0.5692(2)
C2F C 0.3106(3) 0.6858(3) 0.6525(2)
C6F C 0.3048(3) 0.5142(3) 0.6856(2)
O1F O 0.3095(2) 0.3972(2) 0.63650(10)
O2F O 0.2960(2) 0.4953(3) 0.76130(10)
H1F H 0.3138 0.6252 0.5333
H2F H 0.3058 0.8912 0.4839
H3F H 0.2996 1.1046 0.5748
N1G N 0.6935(2) 1.0249(3) 0.67560(10)
O1_2 O 0.8972(2) 0.8095(2) 0.86350(10)
O1G O 0.6905(2) 0.6028(2) 0.63650(10)
O2_2 O 0.9953(3) 0.7960(2) 0.73870(10)
O2G O 0.7040(2) 0.5047(3) 0.76130(10)
Cd1_2 Cd -0.28535(2) 0.78535(2) 0.7500
Cd1A Cd 0.28535(2) 1.21465(2) 0.7500
Cd1A_2 Cd 0.28535(2) 0.21465(2) 0.7500
loop_
_geom_bond_atom_site_label_1
_geom_bond_atom_site_label_2
_geom_bond_site_symmetry_1
_geom_bond_site_symmetry_2
Cd1 N1 1_555 1_555
N1 C1 1_555 1_555
O1 C6 1_555 1_555
O2 C6 1_555 1_555
C1 C2 1_555 1_555
C2 C3 1_555 1_555
C3 C4 1_555 1_555
C4 C5 1_555 1_555
C5 N1 1_555 1_555
C6 C2 1_555 1_555
H1 C3 1_555 1_555
H2 C4 1_555 1_555
H3 C5 1_555 1_555
C1F C1 1_555 1_555
N1F C1F 1_555 1_555
C5F N1F 1_555 1_555
C4F C5F 1_555 1_555
C3F C4F 1_555 1_555
C2F C1F 1_555 1_555
C6F C2F 1_555 1_555
O1F C6F 1_555 1_555
O2F C6F 1_555 1_555
H1F C3F 1_555 1_555
H2F C4F 1_555 1_555
H3F C5F 1_555 1_555
N1G Cd1 1_555 1_555
O1_2 Cd1 1_555 1_555
O1G Cd1 1_555 1_555
O2_2 Cd1 1_555 1_555
O2G Cd1 1_555 1_555
Cd1_2 O1 1_555 1_555
Cd1A N1F 1_555 1_555
Cd1A_2 O1F 1_555 1_555
O2 Cd1_2 1_555 1_555
C3F C2F 1_555 1_555
O2F Cd1A_2 1_555 1_555

#END
