
#######################################################################
#
#                 Cambridge Crystallographic Data Centre
#                                CCDC 
#
#######################################################################
#
# If this CIF has been generated from an entry in the Cambridge 
# Structural Database, then it will include bibliographic, chemical, 
# crystal, experimental, refinement or atomic coordinate data resulting 
# from the CCDC's data processing and validation procedures.
#
#######################################################################

data_AVUJOR
_symmetry_cell_setting           monoclinic
_symmetry_space_group_name_H-M   'P 21/c'
_symmetry_Int_Tables_number      14
_space_group_name_Hall           '-P 2ybc'
loop_
_symmetry_equiv_pos_site_id
_symmetry_equiv_pos_as_xyz
1 x,y,z
2 -x,1/2+y,1/2-z
3 -x,-y,-z
4 x,1/2-y,1/2+z
_cell_length_a                   8.531(2)
_cell_length_b                   17.790(4)
_cell_length_c                   7.979(2)
_cell_angle_alpha                90
_cell_angle_beta                 110.334(4)
_cell_angle_gamma                90
_cell_volume                     1135.48
loop_
_atom_site_label
_atom_site_type_symbol
_atom_site_fract_x
_atom_site_fract_y
_atom_site_fract_z
Gd1 Gd 0.21616(3) 0.477619(12) 0.25399(3)
S1 S -0.19641(16) 0.23567(7) 0.12508(17)
O1 O 0.0192(5) 0.3761(2) 0.2324(5)
O2 O -0.1250(5) 0.44159(19) -0.0051(5)
O3 O -0.6035(5) 0.1167(2) -0.0922(5)
O4 O -0.3501(5) 0.0809(2) 0.0860(5)
O5 O 0.1997(5) 0.4628(2) 0.5557(5)
O6 O 0.0213(5) 0.4589(2) 0.7048(5)
O7 O 0.2305(5) 0.3961(2) 0.0140(5)
H1 H 0.3216 0.3803 0.0057
H2 H 0.1544 0.3906 -0.0875
O8 O 0.4863(5) 0.4922(2) 0.1898(6)
H3 H 0.5836 0.5020 0.2629
H4 H 0.4914 0.4507 0.1394
C1 C -0.2379(7) 0.3261(3) 0.0441(6)
C2 C -0.3981(7) 0.3333(3) -0.0717(7)
H7 H -0.4427 0.3784 -0.1269
C3 C -0.4890(7) 0.2656(3) -0.0991(6)
H8 H -0.5997 0.2607 -0.1742
C4 C -0.3947(6) 0.2076(3) -0.0017(7)
C5 C -0.1070(6) 0.3847(3) 0.0940(6)
C6 C -0.4525(6) 0.1287(3) -0.0019(6)
C7 C 0.0649(7) 0.4772(2) 0.5754(7)
Gd1B Gd -0.21616(3) 0.522381(12) -0.25399(3)
Gd1A Gd -0.21616(3) -0.022381(12) 0.24601(3)
Gd1A_2 Gd 0.78384(3) 0.977619(12) 0.24601(3)
Gd1B_2 Gd -0.21616(3) 0.522381(12) 0.74601(3)
Gd1C Gd -0.78384(3) 0.022381(12) -0.24601(3)
Gd1C_2 Gd 0.21616(3) 1.022381(12) -0.24601(3)
S1B S 0.19641(16) 0.76433(7) -0.12508(17)
O1B O -0.0192(5) 0.6239(2) -0.2324(5)
O2B O 0.1250(5) 0.55841(19) 0.0051(5)
O3B O 0.6035(5) 0.8833(2) 0.0922(5)
O3A O -0.3965(5) 0.6167(2) -0.4078(5)
O3C O 0.3965(5) 0.3833(2) 0.4078(5)
O4B O 0.3501(5) 0.9191(2) -0.0860(5)
O4A O 0.3501(5) 0.5809(2) 0.4140(5)
O4C O -0.3501(5) 0.4191(2) -0.4140(5)
O5B O -0.1997(5) 0.5372(2) 0.4443(5)
O5B_2 O -0.1997(5) 0.5372(2) -0.5557(5)
O6B O -0.0213(5) 0.5411(2) 0.2952(5)
O6_2 O 0.0213(5) 0.4589(2) -0.2952(5)
O7B O -0.2305(5) 0.6039(2) -0.0140(5)
H1B H -0.3216 0.6197 -0.0057
H2B H -0.1544 0.6094 0.0875
O8B O -0.4863(5) 0.5078(2) -0.1898(6)
H3B H -0.5836 0.4980 -0.2629
H4B H -0.4914 0.5493 -0.1394
C1B C 0.2379(7) 0.6739(3) -0.0441(6)
C2B C 0.3981(7) 0.6667(3) 0.0717(7)
H7B H 0.4427 0.6216 0.1269
C3B C 0.4890(7) 0.7344(3) 0.0991(6)
H8B H 0.5997 0.7393 0.1742
C4B C 0.3947(6) 0.7924(3) 0.0017(7)
C5B C 0.1070(6) 0.6153(3) -0.0940(6)
C6B C 0.4525(6) 0.8713(3) 0.0019(6)
C7B C -0.0649(7) 0.5228(2) 0.4246(7)
O9 O 0.1744(6) 0.2400(3) 0.0129(6)
H5 H 0.1862 0.1927 0.0090
H6 H 0.1236 0.2489 0.0855
loop_
_geom_bond_atom_site_label_1
_geom_bond_atom_site_label_2
_geom_bond_site_symmetry_1
_geom_bond_site_symmetry_2
Gd1 O1 1_555 1_555
S1 C1 1_555 1_555
O1 C5 1_555 1_555
O2 C5 1_555 1_555
O3 C6 1_555 1_555
O4 C6 1_555 1_555
O5 Gd1 1_555 1_555
O6 C7 1_555 1_555
O7 Gd1 1_555 1_555
H1 O7 1_555 1_555
H2 O7 1_555 1_555
O8 Gd1 1_555 1_555
H3 O8 1_555 1_555
H4 O8 1_555 1_555
O9 H5 1_555 1_555
H6 O9 1_555 1_555
C1 C2 1_555 1_555
C2 H7 1_555 1_555
C3 C2 1_555 1_555
H8 C3 1_555 1_555
C4 S1 1_555 1_555
C5 C1 1_555 1_555
C6 C4 1_555 1_555
C7 O5 1_555 1_555
Gd1B O2 1_555 1_555
Gd1A O4 1_555 1_555
Gd1A_2 O3B 1_555 1_555
Gd1B_2 O6 1_555 1_555
Gd1C O3 1_555 1_555
Gd1C_2 O4B 1_555 1_555
S1B C1B 1_555 1_555
O1B Gd1B 1_555 1_555
O2B Gd1 1_555 1_555
O3B C6B 1_555 1_555
O3A Gd1B 1_555 1_555
O3C Gd1 1_555 1_555
O4B C6B 1_555 1_555
O4A Gd1 1_555 1_555
O4C Gd1B 1_555 1_555
O5B Gd1B_2 1_555 1_555
O5B_2 Gd1B 1_555 1_555
O6B Gd1 1_555 1_555
O6_2 Gd1B 1_555 1_555
O7B Gd1B 1_555 1_555
H1B O7B 1_555 1_555
H2B O7B 1_555 1_555
O8B Gd1B 1_555 1_555
H3B O8B 1_555 1_555
H4B O8B 1_555 1_555
C1B C2B 1_555 1_555
C2B H7B 1_555 1_555
C3B C2B 1_555 1_555
H8B C3B 1_555 1_555
C4B S1B 1_555 1_555
C5B O1B 1_555 1_555
C6B C4B 1_555 1_555
C7B C7 1_555 1_555
C3 C4 1_555 1_555
O2B C5B 1_555 1_555
O5B C7B 1_555 1_555
O6B C7B 1_555 1_555
C1B C5B 1_555 1_555
C3B C4B 1_555 1_555

#END
