
#######################################################################
#
#                 Cambridge Crystallographic Data Centre
#                                CCDC 
#
#######################################################################
#
# If this CIF has been generated from an entry in the Cambridge 
# Structural Database, then it will include bibliographic, chemical, 
# crystal, experimental, refinement or atomic coordinate data resulting 
# from the CCDC's data processing and validation procedures.
#
#######################################################################

data_AVUJEH
_symmetry_cell_setting           triclinic
_symmetry_space_group_name_H-M   'P -1'
_symmetry_Int_Tables_number      2
_space_group_name_Hall           '-P 1'
loop_
_symmetry_equiv_pos_site_id
_symmetry_equiv_pos_as_xyz
1 x,y,z
2 -x,-y,-z
_cell_length_a                   8.2582(17)
_cell_length_b                   11.067(2)
_cell_length_c                   14.080(3)
_cell_angle_alpha                93.68(3)
_cell_angle_beta                 105.18(3)
_cell_angle_gamma                92.97(3)
_cell_volume                     1236.21
loop_
_atom_site_label
_atom_site_type_symbol
_atom_site_fract_x
_atom_site_fract_y
_atom_site_fract_z
Cu1 Cu 0.5000 0.0000 1.0000
Cu2 Cu 0.5000 0.0000 0.5000
N1 N 0.4628(8) 0.1605(4) 0.9428(3)
N2 N 0.4556(12) 0.3606(6) 0.9334(6)
N3 N 0.3550(8) 0.3014(5) 0.8504(4)
N4 N 0.2953(7) -0.0096(6) 0.3884(4)
N5 N 0.0351(9) -0.0656(8) 0.2907(7)
N6 N 0.1430(7) -0.0374(6) 0.2355(5)
O1 O 0.2910(5) -0.0692(3) 0.9063(3)
O2 O 0.4833(5) -0.1047(4) 0.8268(3)
O3 O 0.3923(7) -0.1275(4) 0.5573(3)
O4 O 0.3141(6) 0.0229(4) 0.6444(3)
C1 C 0.5214(12) 0.2730(6) 0.9884(5)
H1 H 0.5978 0.2865 1.0503
C2 C 0.3603(9) 0.1821(5) 0.8568(5)
H2 H 0.3013 0.1230 0.8085
C3 C 0.2495(10) 0.3666(7) 0.7719(5)
H3 H 0.2129 0.4380 0.8017
H4 H 0.1501 0.3146 0.7385
C4 C 0.3393(8) 0.4059(6) 0.6956(5)
C5 C 0.3708(14) 0.5241(6) 0.6851(7)
H5 H 0.3501 0.5824 0.7301
C6 C 0.4341(14) 0.5611(6) 0.6080(6)
H6 H 0.4513 0.6435 0.6015
C7 C 0.4706(7) 0.4795(5) 0.5431(4)
C8 C 0.4522(11) 0.3613(6) 0.5589(5)
H7 H 0.4843 0.3030 0.5182
C9 C 0.3863(11) 0.3242(6) 0.6347(5)
H8 H 0.3746 0.2419 0.6434
C10 C 0.1343(11) -0.0446(9) 0.3831(8)
H9 H 0.0953 -0.0535 0.4387
C11 C 0.2934(10) -0.0041(6) 0.2931(6)
H10 H 0.3859 0.0200 0.2710
C12 C 0.0891(9) -0.0565(7) 0.1278(6)
H11 H 0.1746 -0.0192 0.1009
H12 H -0.0136 -0.0162 0.1037
C13 C 0.0588(10) -0.1873(7) 0.0909(8)
C14 C 0.1673(12) -0.2717(10) 0.1342(10)
H13 H 0.2566 -0.2473 0.1888
C15 C 0.1440(11) -0.3916(9) 0.0970(11)
H14 H 0.2216 -0.4452 0.1263
C16 C 0.0129(10) -0.4353(7) 0.0195(8)
C17 C -0.0957(12) -0.3510(8) -0.0215(6)
H15 H -0.1875 -0.3766 -0.0744
C18 C -0.0742(12) -0.2297(8) 0.0128(6)
H16 H -0.1510 -0.1762 -0.0175
C19 C 0.2001(8) -0.1781(6) 0.6508(4)
C20 C 0.0828(12) -0.2520(8) 0.5798(5)
H17 H 0.0801 -0.2488 0.5135
C21 C -0.0319(13) -0.3316(10) 0.6065(9)
H18 H -0.1061 -0.3847 0.5590
C22 C -0.0338(12) -0.3306(10) 0.7051(8)
H19 H -0.1131 -0.3802 0.7233
C23 C 0.0798(9) -0.2574(7) 0.7747(6)
H20 H 0.0774 -0.2574 0.8403
C24 C 0.2016(7) -0.1812(5) 0.7494(4)
C25 C 0.3352(7) -0.1140(5) 0.8307(4)
C26 C 0.3097(8) -0.0859(5) 0.6170(4)
Cu1_2 Cu 0.5000 1.0000 0.0000
Cu2_2 Cu -0.5000 -1.0000 -0.5000
Cu2_3 Cu 0.5000 0.0000 1.5000
N1A N 0.5372(8) 0.8395(4) 0.0572(3)
N1A_2 N 0.5372(8) -0.1605(4) 1.0572(3)
N2A N 0.5444(12) 0.6394(6) 0.0666(6)
N3A N 0.6450(8) 0.6986(5) 0.1496(4)
N4A N -0.2953(7) -0.9904(6) -0.3884(4)
N4A_2 N 0.7047(7) 0.0096(6) 0.6116(4)
N5A N -0.0351(9) -0.9344(8) -0.2907(7)
N6A N -0.1430(7) -0.9626(6) -0.2355(5)
O1A O 0.7090(5) 0.0692(3) 1.0937(3)
O2A O 0.5167(5) 0.1047(4) 1.1732(3)
O3A O 0.6077(7) 0.1275(4) 1.4427(3)
O3A_2 O 0.6077(7) 0.1275(4) 0.4427(3)
O4A O 0.6859(6) -0.0229(4) 1.3556(3)
C1A C 0.4786(12) 0.7270(6) 0.0116(5)
H1A H 0.4022 0.7135 -0.0503
C2A C 0.6397(9) 0.8179(5) 0.1432(5)
H2A H 0.6987 0.8770 0.1915
C3A C 0.7505(10) 0.6334(7) 0.2281(5)
H3A H 0.7871 0.5620 0.1983
H4A H 0.8499 0.6854 0.2615
C4A C 0.6607(8) 0.5941(6) 0.3044(5)
C5A C 0.6292(14) 0.4759(6) 0.3149(7)
H5A H 0.6499 0.4176 0.2699
C6A C 0.5659(14) 0.4389(6) 0.3920(6)
H6A H 0.5487 0.3565 0.3985
C7A C 0.5294(7) 0.5205(5) 0.4569(4)
C8A C 0.5478(11) 0.6387(6) 0.4411(5)
H7A H 0.5157 0.6970 0.4818
C9A C 0.6137(11) 0.6758(6) 0.3653(5)
H8A H 0.6254 0.7581 0.3566
C10A C -0.1343(11) -0.9554(9) -0.3831(8)
H9A H -0.0953 -0.9465 -0.4387
C11A C -0.2934(10) -0.9959(6) -0.2931(6)
H10A H -0.3859 -1.0200 -0.2710
C12A C -0.0891(9) -0.9435(7) -0.1278(6)
H11A H -0.1746 -0.9808 -0.1009
H12A H 0.0136 -0.9838 -0.1037
C13A C -0.0588(10) -0.8127(7) -0.0909(8)
C14A C -0.1673(12) -0.7283(10) -0.1342(10)
H13A H -0.2566 -0.7527 -0.1888
C15A C -0.1440(11) -0.6084(9) -0.0970(11)
H14A H -0.2216 -0.5548 -0.1263
C16A C -0.0129(10) -0.5647(7) -0.0195(8)
C17A C 0.0957(12) -0.6490(8) 0.0215(6)
H15A H 0.1875 -0.6234 0.0744
C18A C 0.0742(12) -0.7703(8) -0.0128(6)
H16A H 0.1510 -0.8238 0.0175
C19A C 0.7999(8) 0.1781(6) 1.3492(4)
C20A C 0.9172(12) 0.2520(8) 1.4202(5)
H17A H 0.9199 0.2488 1.4865
C21A C 1.0319(13) 0.3316(10) 1.3935(9)
H18A H 1.1061 0.3847 1.4410
C22A C 1.0338(12) 0.3306(10) 1.2949(8)
H19A H 1.1131 0.3802 1.2767
C23A C 0.9202(9) 0.2574(7) 1.2253(6)
H20A H 0.9226 0.2574 1.1597
C24A C 0.7984(7) 0.1812(5) 1.2506(4)
C25A C 0.6648(7) 0.1140(5) 1.1693(4)
C26A C 0.6903(8) 0.0859(5) 1.3830(4)
loop_
_geom_bond_atom_site_label_1
_geom_bond_atom_site_label_2
_geom_bond_site_symmetry_1
_geom_bond_site_symmetry_2
Cu1 N1 1_555 1_555
Cu2 N4 1_555 1_555
N1 C1 1_555 1_555
N2 N3 1_555 1_555
N3 C2 1_555 1_555
N4 C10 1_555 1_555
N5 N6 1_555 1_555
N6 C11 1_555 1_555
O1 Cu1 1_555 1_555
O2 Cu1 1_555 1_555
O3 Cu2 1_555 1_555
O4 C26 1_555 1_555
C1 N2 1_555 1_555
H1 C1 1_555 1_555
C2 N1 1_555 1_555
H2 C2 1_555 1_555
C3 N3 1_555 1_555
H3 C3 1_555 1_555
H4 C3 1_555 1_555
C4 C3 1_555 1_555
C5 C4 1_555 1_555
H5 C5 1_555 1_555
C6 C5 1_555 1_555
H6 C6 1_555 1_555
C7 C6 1_555 1_555
C8 C7 1_555 1_555
H7 C8 1_555 1_555
C9 C4 1_555 1_555
H8 C9 1_555 1_555
C10 N5 1_555 1_555
H9 C10 1_555 1_555
C11 N4 1_555 1_555
H10 C11 1_555 1_555
C12 N6 1_555 1_555
H11 C12 1_555 1_555
H12 C12 1_555 1_555
C13 C12 1_555 1_555
C14 C13 1_555 1_555
H13 C14 1_555 1_555
C15 C14 1_555 1_555
H14 C15 1_555 1_555
C16 C15 1_555 1_555
C17 C16 1_555 1_555
H15 C17 1_555 1_555
C18 C13 1_555 1_555
H16 C18 1_555 1_555
C19 C20 1_555 1_555
C20 H17 1_555 1_555
C21 C20 1_555 1_555
H18 C21 1_555 1_555
C22 C21 1_555 1_555
H19 C22 1_555 1_555
C23 C22 1_555 1_555
H20 C23 1_555 1_555
C24 C19 1_555 1_555
C25 O1 1_555 1_555
C26 O3 1_555 1_555
Cu1_2 N1A 1_555 1_555
Cu2_2 N4A 1_555 1_555
Cu2_3 O3A 1_555 1_555
N1A C1A 1_555 1_555
N1A_2 Cu1 1_555 1_555
N2A N3A 1_555 1_555
N3A C2A 1_555 1_555
N4A C10A 1_555 1_555
N4A_2 Cu2 1_555 1_555
N5A N6A 1_555 1_555
N6A C11A 1_555 1_555
O1A Cu1 1_555 1_555
O2A Cu1 1_555 1_555
O3A C26A 1_555 1_555
O3A_2 Cu2 1_555 1_555
O4A C26A 1_555 1_555
C1A N2A 1_555 1_555
H1A C1A 1_555 1_555
C2A N1A 1_555 1_555
H2A C2A 1_555 1_555
C3A N3A 1_555 1_555
H3A C3A 1_555 1_555
H4A C3A 1_555 1_555
C4A C3A 1_555 1_555
C5A C4A 1_555 1_555
H5A C5A 1_555 1_555
C6A C5A 1_555 1_555
H6A C6A 1_555 1_555
C7A C7 1_555 1_555
C8A C7A 1_555 1_555
H7A C8A 1_555 1_555
C9A C4A 1_555 1_555
H8A C9A 1_555 1_555
C10A N5A 1_555 1_555
H9A C10A 1_555 1_555
C11A N4A 1_555 1_555
H10A C11A 1_555 1_555
C12A N6A 1_555 1_555
H11A C12A 1_555 1_555
H12A C12A 1_555 1_555
C13A C12A 1_555 1_555
C14A C13A 1_555 1_555
H13A C14A 1_555 1_555
C15A C14A 1_555 1_555
H14A C15A 1_555 1_555
C16A C16 1_555 1_555
C17A C16A 1_555 1_555
H15A C17A 1_555 1_555
C18A C13A 1_555 1_555
H16A C18A 1_555 1_555
C19A C20A 1_555 1_555
C20A H17A 1_555 1_555
C21A C20A 1_555 1_555
H18A C21A 1_555 1_555
C22A C21A 1_555 1_555
H19A C22A 1_555 1_555
C23A C22A 1_555 1_555
H20A C23A 1_555 1_555
C24A C19A 1_555 1_555
C25A O1A 1_555 1_555
C26A C19A 1_555 1_555
O2 C25 1_555 1_555
C8 C9 1_555 1_555
C17 C18 1_555 1_555
C19 C26 1_555 1_555
C23 C24 1_555 1_555
C24 C25 1_555 1_555
O2A C25A 1_555 1_555
C6A C7A 1_555 1_555
C8A C9A 1_555 1_555
C15A C16A 1_555 1_555
C17A C18A 1_555 1_555
C23A C24A 1_555 1_555
C24A C25A 1_555 1_555

#END
