
#######################################################################
#
#                 Cambridge Crystallographic Data Centre
#                                CCDC 
#
#######################################################################
#
# If this CIF has been generated from an entry in the Cambridge 
# Structural Database, then it will include bibliographic, chemical, 
# crystal, experimental, refinement or atomic coordinate data resulting 
# from the CCDC's data processing and validation procedures.
#
#######################################################################

data_AVUKIM
_symmetry_cell_setting           monoclinic
_symmetry_space_group_name_H-M   'P 21/c'
_symmetry_Int_Tables_number      14
_space_group_name_Hall           '-P 2ybc'
loop_
_symmetry_equiv_pos_site_id
_symmetry_equiv_pos_as_xyz
1 x,y,z
2 -x,1/2+y,1/2-z
3 -x,-y,-z
4 x,1/2-y,1/2+z
_cell_length_a                   8.554(2)
_cell_length_b                   17.844(5)
_cell_length_c                   8.026(2)
_cell_angle_alpha                90
_cell_angle_beta                 110.587(3)
_cell_angle_gamma                90
_cell_volume                     1146.84
loop_
_atom_site_label
_atom_site_type_symbol
_atom_site_fract_x
_atom_site_fract_y
_atom_site_fract_z
Sm1 Sm 0.28524(3) 0.522311(13) 0.24813(3)
S1 S 0.69633(18) 0.76459(7) 0.37454(18)
O1 O 0.6213(5) 0.5594(2) 0.5011(5)
O2 O 0.4791(5) 0.6255(2) 0.2641(5)
O3 O 1.1023(5) 0.8825(2) 0.5925(5)
O4 O 0.8504(6) 0.9183(2) 0.4136(5)
O5 O 0.2991(5) 0.5366(2) -0.0562(5)
O6 O 0.4767(5) 0.5406(2) -0.2035(5)
O7 O 0.2678(5) 0.6052(2) 0.4892(5)
H1 H 0.1692 0.6016 0.4907
H2 H 0.3348 0.5911 0.5902
O8 O 0.0129(6) 0.5084(2) 0.3111(6)
H3 H -0.0821 0.4992 0.2329
H4 H 0.0399 0.4711 0.3812
C1 C 0.7375(7) 0.6741(3) 0.4544(7)
C2 C 0.8957(7) 0.6672(3) 0.5721(7)
H7 H 0.9390 0.6225 0.6291
C3 C 0.9873(7) 0.7338(3) 0.5993(7)
H8 H 1.0982 0.7380 0.6742
C4 C 0.8946(7) 0.7924(3) 0.5026(6)
C5 C 0.6047(7) 0.6171(3) 0.4041(7)
C6 C 0.9536(7) 0.8700(3) 0.5031(7)
C7 C 0.4352(8) 0.5225(2) -0.0755(7)
Sm1B Sm 0.71476(3) 0.477689(13) -0.24813(3)
Sm1_2 Sm 0.28524(3) 0.522311(13) -0.75187(3)
Sm1A Sm -0.28524(3) 0.022311(13) -0.74813(3)
Sm1A_2 Sm 0.71476(3) 1.022311(13) 0.25187(3)
Sm1B_2 Sm 0.71476(3) 0.477689(13) 0.75187(3)
Sm1C Sm 0.28524(3) -0.022311(13) -0.25187(3)
Sm1C_2 Sm 1.28524(3) 0.977689(13) 0.74813(3)
S1B S 0.30367(18) 0.23541(7) -0.37454(18)
O1B O 0.3787(5) 0.4406(2) -0.5011(5)
O1_2 O 0.6213(5) 0.5594(2) -0.4989(5)
O1B_2 O 0.3787(5) 0.4406(2) 0.4989(5)
O2B O 0.5209(5) 0.3745(2) -0.2641(5)
O3B O -0.1023(5) 0.1175(2) -0.5925(5)
O3A O 0.8977(5) 0.3825(2) -0.0925(5)
O3C O 0.1023(5) 0.6175(2) 0.0925(5)
O4B O 0.1496(6) 0.0817(2) -0.4136(5)
O4A O 0.1496(6) 0.4183(2) 0.0864(5)
O4C O 0.8504(6) 0.5817(2) -0.0864(5)
O5B O 0.7009(5) 0.4634(2) 0.0562(5)
O6B O 0.5233(5) 0.4594(2) 0.2035(5)
O7B O 0.7322(5) 0.3948(2) -0.4892(5)
H1B H 0.8308 0.3984 -0.4907
H2B H 0.6652 0.4089 -0.5902
O8B O 0.9871(6) 0.4916(2) -0.3111(6)
H3B H 1.0821 0.5008 -0.2329
H4B H 0.9601 0.5289 -0.3812
C1B C 0.2625(7) 0.3259(3) -0.4544(7)
C2B C 0.1043(7) 0.3328(3) -0.5721(7)
H7B H 0.0610 0.3775 -0.6291
C3B C 0.0127(7) 0.2662(3) -0.5993(7)
H8B H -0.0982 0.2620 -0.6742
C4B C 0.1054(7) 0.2076(3) -0.5026(6)
C5B C 0.3953(7) 0.3829(3) -0.4041(7)
C6B C 0.0464(7) 0.1300(3) -0.5031(7)
C7B C 0.5648(8) 0.4775(2) 0.0755(7)
O9 O 0.3230(7) 0.7603(3) 0.4871(7)
H5 H 0.3751 0.7915 0.4457
H6 H 0.3196 0.7188 0.4340
loop_
_geom_bond_atom_site_label_1
_geom_bond_atom_site_label_2
_geom_bond_site_symmetry_1
_geom_bond_site_symmetry_2
Sm1 O1 1_555 1_555
S1 C1 1_555 1_555
O1 C5 1_555 1_555
O2 Sm1 1_555 1_555
O3 C6 1_555 1_555
O4 C6 1_555 1_555
O5 Sm1 1_555 1_555
O6 C7 1_555 1_555
O7 Sm1 1_555 1_555
H1 O7 1_555 1_555
H2 O7 1_555 1_555
O8 Sm1 1_555 1_555
H3 O8 1_555 1_555
H4 O8 1_555 1_555
O9 H5 1_555 1_555
H6 O9 1_555 1_555
C1 C2 1_555 1_555
C2 H7 1_555 1_555
C3 C2 1_555 1_555
H8 C3 1_555 1_555
C4 S1 1_555 1_555
C5 O2 1_555 1_555
C6 C4 1_555 1_555
C7 O5 1_555 1_555
Sm1B O6 1_555 1_555
Sm1_2 O1B 1_555 1_555
Sm1A O3B 1_555 1_555
Sm1A_2 O4 1_555 1_555
Sm1B_2 O1 1_555 1_555
Sm1C O4B 1_555 1_555
Sm1C_2 O3 1_555 1_555
S1B C1B 1_555 1_555
O1B Sm1B 1_555 1_555
O1_2 Sm1B 1_555 1_555
O1B_2 Sm1 1_555 1_555
O2B Sm1B 1_555 1_555
O3B C6B 1_555 1_555
O3A Sm1B 1_555 1_555
O3C Sm1 1_555 1_555
O4B C6B 1_555 1_555
O4A Sm1 1_555 1_555
O4C Sm1B 1_555 1_555
O5B Sm1B 1_555 1_555
O6B Sm1 1_555 1_555
O7B Sm1B 1_555 1_555
H1B O7B 1_555 1_555
H2B O7B 1_555 1_555
O8B Sm1B 1_555 1_555
H3B O8B 1_555 1_555
H4B O8B 1_555 1_555
C1B C2B 1_555 1_555
C2B H7B 1_555 1_555
C3B C2B 1_555 1_555
H8B C3B 1_555 1_555
C4B S1B 1_555 1_555
C5B O1B 1_555 1_555
C6B C4B 1_555 1_555
C7B C7 1_555 1_555
C1 C5 1_555 1_555
C3 C4 1_555 1_555
Sm1_2 O1_2 1_555 1_555
Sm1B_2 O1B_2 1_555 1_555
O2B C5B 1_555 1_555
O5B C7B 1_555 1_555
O6B C7B 1_555 1_555
C1B C5B 1_555 1_555
C3B C4B 1_555 1_555

#END
