
#######################################################################
#
#                 Cambridge Crystallographic Data Centre
#                                CCDC 
#
#######################################################################
#
# If this CIF has been generated from an entry in the Cambridge 
# Structural Database, then it will include bibliographic, chemical, 
# crystal, experimental, refinement or atomic coordinate data resulting 
# from the CCDC's data processing and validation procedures.
#
#######################################################################

data_AVUNIP
_symmetry_cell_setting           orthorhombic
_symmetry_space_group_name_H-M   'P b c n'
_symmetry_Int_Tables_number      60
_space_group_name_Hall           '-P 2n 2ab'
loop_
_symmetry_equiv_pos_site_id
_symmetry_equiv_pos_as_xyz
1 x,y,z
2 1/2-x,1/2-y,1/2+z
3 -x,y,1/2-z
4 1/2+x,1/2-y,-z
5 -x,-y,-z
6 1/2+x,1/2+y,1/2-z
7 x,-y,1/2+z
8 1/2-x,1/2+y,z
_cell_length_a                   7.783(7)
_cell_length_b                   10.951(10)
_cell_length_c                   18.722(18)
_cell_angle_alpha                90
_cell_angle_beta                 90
_cell_angle_gamma                90
_cell_volume                     1595.71
loop_
_atom_site_label
_atom_site_type_symbol
_atom_site_fract_x
_atom_site_fract_y
_atom_site_fract_z
Cu1 Cu 0.23036(5) -0.23120(4) 0.409310(19)
C1 C 0.4251(4) -0.3734(3) 0.53083(17)
C2 C 0.4010(4) -0.4243(3) 0.60551(17)
H1 H 0.3330 -0.4994 0.6087
C3 C 0.4112(4) -0.2066(3) 0.66179(16)
C4 C 0.3939(4) -0.3445(3) 0.66864(17)
H2 H 0.3216 -0.3734 0.7080
O1 O 0.2997(3) -0.3855(2) 0.49036(12)
O3 O 0.5660(3) -0.3225(2) 0.51494(11)
O4 O 0.5409(3) -0.1637(2) 0.62988(13)
O5 O 0.2937(3) -0.1453(2) 0.68883(14)
O6 O 0.5445(3) -0.4165(2) 0.65394(11)
O7 O 0.3991(4) -0.1039(2) 0.44026(17)
H4 H 0.4674 -0.1183 0.4747
H5 H 0.4025 -0.0353 0.4190
O8 O 0.3840(4) -0.2931(3) 0.33198(16)
H6 H 0.4437 -0.3571 0.3386
H7 H 0.3898 -0.2554 0.2924
Cu1C Cu 0.73036(5) -0.26880(4) 0.590690(19)
O3C O 0.0660(3) -0.1775(2) 0.48506(11)
O4C O 0.0409(3) -0.3363(2) 0.37012(13)
O6C O 0.0445(3) -0.0835(2) 0.34606(11)
O2 O 0.0000 -0.5554(3) 0.2500
H3 H 0.0645 -0.5057 0.2277
H3B H -0.0645 -0.5057 0.2723
loop_
_geom_bond_atom_site_label_1
_geom_bond_atom_site_label_2
_geom_bond_site_symmetry_1
_geom_bond_site_symmetry_2
Cu1 O1 1_555 1_555
C1 C2 1_555 1_555
C2 H1 1_555 1_555
C3 C4 1_555 1_555
C4 C2 1_555 1_555
H2 C4 1_555 1_555
O1 C1 1_555 1_555
O2 H3 1_555 1_555
O3 C1 1_555 1_555
O4 C3 1_555 1_555
O5 C3 1_555 1_555
O6 C2 1_555 1_555
O7 Cu1 1_555 1_555
H4 O7 1_555 1_555
H5 O7 1_555 1_555
O8 Cu1 1_555 1_555
H6 O8 1_555 1_555
H7 O8 1_555 1_555
Cu1C O3 1_555 1_555
H3B O2 1_555 1_555
O3C Cu1 1_555 1_555
O4C Cu1 1_555 1_555
O6C Cu1 1_555 1_555
C4 O6 1_555 1_555
O4 Cu1C 1_555 1_555
O6 Cu1C 1_555 1_555

#END
