
#######################################################################
#
#                 Cambridge Crystallographic Data Centre
#                                CCDC 
#
#######################################################################
#
# If this CIF has been generated from an entry in the Cambridge 
# Structural Database, then it will include bibliographic, chemical, 
# crystal, experimental, refinement or atomic coordinate data resulting 
# from the CCDC's data processing and validation procedures.
#
#######################################################################

data_AVUPIR
_symmetry_cell_setting           rhombohedral
_symmetry_space_group_name_H-M   'R -3'
_symmetry_Int_Tables_number      148
_space_group_name_Hall           '-R 3'
loop_
_symmetry_equiv_pos_site_id
_symmetry_equiv_pos_as_xyz
1 x,y,z
2 -y,x-y,z
3 -x+y,-x,z
4 1/3+x,2/3+y,2/3+z
5 1/3-y,2/3+x-y,2/3+z
6 1/3-x+y,2/3-x,2/3+z
7 2/3+x,1/3+y,1/3+z
8 2/3-y,1/3+x-y,1/3+z
9 2/3-x+y,1/3-x,1/3+z
10 -x,-y,-z
11 y,-x+y,-z
12 x-y,x,-z
13 2/3-x,1/3-y,1/3-z
14 2/3+y,1/3-x+y,1/3-z
15 2/3+x-y,1/3+x,1/3-z
16 1/3-x,2/3-y,2/3-z
17 1/3+y,2/3-x+y,2/3-z
18 1/3+x-y,2/3+x,2/3-z
_cell_length_a                   19.9400(9)
_cell_length_b                   19.9400(9)
_cell_length_c                   9.5728(6)
_cell_angle_alpha                90
_cell_angle_beta                 90
_cell_angle_gamma                120
_cell_volume                     3296.25
loop_
_atom_site_label
_atom_site_type_symbol
_atom_site_fract_x
_atom_site_fract_y
_atom_site_fract_z
Zr1 Zr 0.0000 0.0000 0.0000
Zr2 Zr 0.0000 0.0000 0.5000
P1 P 0.1351(4) 0.1131(4) 0.2478(9)
O1 O 0.0807(4) 0.0712(4) 0.3746(5)
C1 C 0.1191(11) 0.1926(6) 0.1944(16)
N1 N 0.1526(12) 0.2663(6) 0.2655(15)
O2 O 0.2248(6) 0.1457(9) 0.2742(14)
C2 C 0.1791(14) 0.3325(10) 0.1633(11)
C3 C 0.1573(14) 0.2717(9) 0.4158(15)
O3 O 0.0897(4) 0.0530(4) 0.1235(5)
Zr1C Zr 0.3333 0.6667 0.6667
Zr1C_2 Zr -0.6667 -0.3333 0.6667
Zr1C_3 Zr 0.3333 -0.3333 0.6667
Zr2C Zr 0.3333 0.6667 0.1667
Zr2C_2 Zr -0.6667 -0.3333 0.1667
Zr2C_3 Zr 0.3333 -0.3333 0.1667
P1O P 0.1982(4) 0.5536(4) 0.4189(9)
P1A P -0.1131(4) 0.0220(6) 0.2478(9)
P1P P -0.5536(4) -0.3553(6) 0.4189(9)
P1B P -0.0220(6) -0.1351(4) 0.2478(9)
P1Q P 0.3553(6) -0.1982(4) 0.4189(9)
O1O O 0.2526(4) 0.5955(4) 0.2921(5)
O1A O -0.0712(4) 0.0095(6) 0.3746(5)
O1P O -0.5955(4) -0.3428(6) 0.2921(5)
O1B O -0.0095(6) -0.0807(4) 0.3746(5)
O1Q O 0.3428(6) -0.2526(4) 0.2921(5)
O1I O -0.0807(4) -0.0712(4) 0.6254(5)
O1J O 0.0712(4) -0.0095(6) 0.6254(5)
O1K O 0.0095(6) 0.0807(4) 0.6254(5)
C1O C 0.2142(11) 0.4741(6) 0.4723(16)
C1A C -0.1926(6) -0.0735(13) 0.1944(16)
C1P C -0.4741(6) -0.2598(13) 0.4723(16)
C1B C 0.0735(13) -0.1191(11) 0.1944(16)
C1Q C 0.2598(13) -0.2142(11) 0.4723(16)
N1O N 0.1807(12) 0.4004(6) 0.4012(15)
N1A N -0.2663(6) -0.1137(13) 0.2655(15)
N1P N -0.4004(6) -0.2196(13) 0.4012(15)
N1B N 0.1137(13) -0.1526(12) 0.2655(15)
N1Q N 0.2196(13) -0.1807(12) 0.4012(15)
O2O O 0.1085(6) 0.5210(9) 0.3925(14)
O2A O -0.1457(9) 0.0791(11) 0.2742(14)
O2P O -0.5210(9) -0.4124(11) 0.3925(14)
O2B O -0.0791(11) -0.2248(6) 0.2742(14)
O2Q O 0.4124(11) -0.1085(6) 0.3925(14)
C2O C 0.1542(14) 0.3342(10) 0.5034(11)
C2A C -0.3325(10) -0.1534(17) 0.1633(11)
C2P C -0.3342(10) -0.1799(17) 0.5034(11)
C2B C 0.1534(17) -0.1791(14) 0.1633(11)
C2Q C 0.1799(17) -0.1542(14) 0.5034(11)
C3O C 0.1760(14) 0.3950(9) 0.2509(15)
C3A C -0.2717(9) -0.1144(17) 0.4158(15)
C3P C -0.3950(9) -0.2189(17) 0.2509(15)
C3B C 0.1144(17) -0.1573(14) 0.4158(15)
C3Q C 0.2189(17) -0.1760(14) 0.2509(15)
O3O O 0.2436(4) 0.6137(4) 0.5432(5)
O3A O -0.0530(4) 0.0367(6) 0.1235(5)
O3P O -0.6137(4) -0.3700(6) 0.5432(5)
O3B O -0.0367(6) -0.0897(4) 0.1235(5)
O3Q O 0.3700(6) -0.2436(4) 0.5432(5)
O3I O -0.0897(4) -0.0530(4) -0.1235(5)
O3J O 0.0530(4) -0.0367(6) -0.1235(5)
O3K O 0.0367(6) 0.0897(4) -0.1235(5)
O4 O 0.2888(9) 0.0698(8) 0.1289(18)
O5 O 0.0097(10) 0.3433(9) -0.0155(24)
loop_
_geom_bond_atom_site_label_1
_geom_bond_atom_site_label_2
_geom_bond_site_symmetry_1
_geom_bond_site_symmetry_2
Zr1 O3 1_555 1_555
Zr2 O1 1_555 1_555
P1 O1 1_555 1_555
C1 P1 1_555 1_555
N1 C1 1_555 1_555
O2 P1 1_555 1_555
C2 N1 1_555 1_555
C3 N1 1_555 1_555
O3 P1 1_555 1_555
Zr1C O3O 1_555 1_555
Zr1C_2 O3P 1_555 1_555
Zr1C_3 O3Q 1_555 1_555
Zr2C O1O 1_555 1_555
Zr2C_2 O1P 1_555 1_555
Zr2C_3 O1Q 1_555 1_555
P1O O1O 1_555 1_555
P1A O1A 1_555 1_555
P1P O1P 1_555 1_555
P1B O1B 1_555 1_555
P1Q O1Q 1_555 1_555
O1A Zr2 1_555 1_555
O1B Zr2 1_555 1_555
O1I Zr2 1_555 1_555
O1J Zr2 1_555 1_555
O1K Zr2 1_555 1_555
C1O P1O 1_555 1_555
C1A P1A 1_555 1_555
C1P P1P 1_555 1_555
C1B P1B 1_555 1_555
C1Q P1Q 1_555 1_555
N1O C1O 1_555 1_555
N1A C1A 1_555 1_555
N1P C1P 1_555 1_555
N1B C1B 1_555 1_555
N1Q C1Q 1_555 1_555
O2O P1O 1_555 1_555
O2A P1A 1_555 1_555
O2P P1P 1_555 1_555
O2B P1B 1_555 1_555
O2Q P1Q 1_555 1_555
C2O C3 1_555 1_555
C2A N1A 1_555 1_555
C2P N1P 1_555 1_555
C2B N1B 1_555 1_555
C2Q N1Q 1_555 1_555
C3O C2 1_555 1_555
C3A N1A 1_555 1_555
C3P N1P 1_555 1_555
C3B N1B 1_555 1_555
C3Q N1Q 1_555 1_555
O3O P1O 1_555 1_555
O3A Zr1 1_555 1_555
O3P P1P 1_555 1_555
O3B Zr1 1_555 1_555
O3Q P1Q 1_555 1_555
O3I Zr1 1_555 1_555
O3J Zr1 1_555 1_555
O3K Zr1 1_555 1_555
P1A O3A 1_555 1_555
P1B O3B 1_555 1_555
N1O C2O 1_555 1_555
N1O C3O 1_555 1_555
C2A C3P 1_555 1_555
C2P C3A 1_555 1_555
C2B C3Q 1_555 1_555
C2Q C3B 1_555 1_555

#END
