
#######################################################################
#
#                 Cambridge Crystallographic Data Centre
#                                CCDC 
#
#######################################################################
#
# If this CIF has been generated from an entry in the Cambridge 
# Structural Database, then it will include bibliographic, chemical, 
# crystal, experimental, refinement or atomic coordinate data resulting 
# from the CCDC's data processing and validation procedures.
#
#######################################################################

data_AVUPUC
_symmetry_cell_setting           triclinic
_symmetry_space_group_name_H-M   'P -1'
_symmetry_Int_Tables_number      2
_space_group_name_Hall           '-P 1'
loop_
_symmetry_equiv_pos_site_id
_symmetry_equiv_pos_as_xyz
1 x,y,z
2 -x,-y,-z
_cell_length_a                   7.2808(7)
_cell_length_b                   7.3579(10)
_cell_length_c                   12.0107(11)
_cell_angle_alpha                103.890(8)
_cell_angle_beta                 92.257(7)
_cell_angle_gamma                112.480(7)
_cell_volume                     570.948
loop_
_atom_site_label
_atom_site_type_symbol
_atom_site_fract_x
_atom_site_fract_y
_atom_site_fract_z
Mn1 Mn 0.5000 0.5000 0.5000
N1 N 0.7596(2) 0.6803(2) 0.42645(12)
C1 C 0.9371(3) 0.7264(2) 0.48719(14)
C2 C 1.0931(3) 0.8081(3) 0.42610(14)
H1 H 1.226(4) 0.851(3) 0.4502(19)
C3 C 0.9991(3) 0.8080(3) 0.32409(15)
N2 N 0.8003(2) 0.7307(2) 0.32811(13)
H2 H 0.703(4) 0.720(3) 0.279(2)
C4 C 0.9342(3) 0.6831(3) 0.60314(14)
O1 O 0.76239(19) 0.5964(2) 0.62984(11)
O2 O 1.09683(18) 0.7344(2) 0.66502(10)
C5 C 1.0809(3) 0.8756(3) 0.22266(15)
O3 O 0.95493(18) 0.8538(2) 0.14003(10)
O4 O 1.26767(19) 0.9482(2) 0.22662(11)
O5 O 0.5467(2) 0.2263(2) 0.41222(14)
H3 H 0.649(4) 0.235(4) 0.386(2)
H4 H 0.464(4) 0.153(4) 0.364(2)
Mn2 Mn 1.0000 1.0000 0.0000
O6 O 0.6803(3) 0.8347(3) -0.06903(19)
H5 H 0.591(5) 0.760(5) -0.058(3)
H6 H 0.660(5) 0.878(5) -0.120(3)
O7 O 0.9452(3) 1.2549(3) 0.10585(15)
H7 H 0.871(5) 1.291(5) 0.079(3)
H8 H 0.925(5) 1.258(5) 0.174(3)
N1A N 0.2404(2) 0.3197(2) 0.57355(12)
C1A C 0.0629(3) 0.2736(2) 0.51281(14)
C2A C -0.0931(3) 0.1919(3) 0.57390(14)
H1A H -0.226(4) 0.149(3) 0.5498(19)
C3A C 0.0009(3) 0.1920(3) 0.67591(15)
N2A N 0.1997(2) 0.2693(2) 0.67189(13)
H2A H 0.297(4) 0.280(3) 0.721(2)
C4A C 0.0658(3) 0.3169(3) 0.39686(14)
O1A O 0.23761(19) 0.4036(2) 0.37016(11)
O2A O -0.09683(18) 0.2656(2) 0.33498(10)
C5A C -0.0809(3) 0.1244(3) 0.77734(15)
O3A O 0.04507(18) 0.1462(2) 0.85997(10)
O4A O -0.26767(19) 0.0518(2) 0.77338(11)
O5A O 0.4533(2) 0.7737(2) 0.58778(14)
H3A H 0.351(4) 0.765(4) 0.614(2)
H4A H 0.536(4) 0.847(4) 0.636(2)
O6A O 1.3197(3) 1.1653(3) 0.06903(19)
H5A H 1.409(5) 1.240(5) 0.058(3)
H6A H 1.340(5) 1.122(5) 0.120(3)
O7A O 1.0548(3) 0.7451(3) -0.10585(15)
H7A H 1.129(5) 0.709(5) -0.079(3)
H8A H 1.075(5) 0.742(5) -0.174(3)
O3A_2 O 1.04507(18) 1.1462(2) -0.14003(10)
Mn2_2 Mn 0.0000 0.0000 1.0000
O8 O 0.5822(2) 0.3561(3) 0.78374(14)
H9 H 0.612(5) 0.260(5) 0.762(3)
H10 H 0.656(4) 0.440(4) 0.753(3)
O9 O 0.6924(2) 0.4249(3) 0.02464(15)
H11 H 0.754(6) 0.558(6) 0.058(3)
H12 H 0.673(5) 0.413(5) -0.044(3)
loop_
_geom_bond_atom_site_label_1
_geom_bond_atom_site_label_2
_geom_bond_site_symmetry_1
_geom_bond_site_symmetry_2
Mn1 N1 1_555 1_555
N1 C1 1_555 1_555
C1 C2 1_555 1_555
C2 H1 1_555 1_555
C3 C2 1_555 1_555
N2 N1 1_555 1_555
H2 N2 1_555 1_555
C4 C1 1_555 1_555
O1 Mn1 1_555 1_555
O2 C4 1_555 1_555
C5 C3 1_555 1_555
O3 C5 1_555 1_555
O4 C5 1_555 1_555
O5 Mn1 1_555 1_555
H3 O5 1_555 1_555
H4 O5 1_555 1_555
Mn2 O3 1_555 1_555
O6 Mn2 1_555 1_555
H5 O6 1_555 1_555
H6 O6 1_555 1_555
O7 Mn2 1_555 1_555
H7 O7 1_555 1_555
H8 O7 1_555 1_555
O8 H9 1_555 1_555
H10 O8 1_555 1_555
O9 H11 1_555 1_555
H12 O9 1_555 1_555
N1A Mn1 1_555 1_555
C1A N1A 1_555 1_555
C2A C1A 1_555 1_555
H1A C2A 1_555 1_555
C3A C2A 1_555 1_555
N2A N1A 1_555 1_555
H2A N2A 1_555 1_555
C4A C1A 1_555 1_555
O1A Mn1 1_555 1_555
O2A C4A 1_555 1_555
C5A C3A 1_555 1_555
O3A C5A 1_555 1_555
O4A C5A 1_555 1_555
O5A Mn1 1_555 1_555
H3A O5A 1_555 1_555
H4A O5A 1_555 1_555
O6A Mn2 1_555 1_555
H5A O6A 1_555 1_555
H6A O6A 1_555 1_555
O7A Mn2 1_555 1_555
H7A O7A 1_555 1_555
H8A O7A 1_555 1_555
O3A_2 Mn2 1_555 1_555
Mn2_2 O3A 1_555 1_555
C3 N2 1_555 1_555
C4 O1 1_555 1_555
C3A N2A 1_555 1_555
C4A O1A 1_555 1_555

#END
