
#######################################################################
#
#                 Cambridge Crystallographic Data Centre
#                                CCDC 
#
#######################################################################
#
# If this CIF has been generated from an entry in the Cambridge 
# Structural Database, then it will include bibliographic, chemical, 
# crystal, experimental, refinement or atomic coordinate data resulting 
# from the CCDC's data processing and validation procedures.
#
#######################################################################

data_AVUQAJ
_symmetry_cell_setting           triclinic
_symmetry_space_group_name_H-M   'P -1'
_symmetry_Int_Tables_number      2
_space_group_name_Hall           '-P 1'
loop_
_symmetry_equiv_pos_site_id
_symmetry_equiv_pos_as_xyz
1 x,y,z
2 -x,-y,-z
_cell_length_a                   6.8212(7)
_cell_length_b                   7.3875(8)
_cell_length_c                   8.5066(9)
_cell_angle_alpha                105.248(2)
_cell_angle_beta                 90.594(2)
_cell_angle_gamma                111.650(2)
_cell_volume                     381.629
loop_
_atom_site_label
_atom_site_type_symbol
_atom_site_fract_x
_atom_site_fract_y
_atom_site_fract_z
Ni1 Ni 0.20400(5) 0.21545(5) 0.05605(4)
C1 C 0.4124(4) 0.2454(4) 0.3574(3)
C2 C 0.4147(5) 0.2382(4) 0.5194(3)
H1 H 0.5237 0.2358 0.5844
C3 C 0.2194(4) 0.2353(4) 0.5617(3)
N1 N 0.2264(4) 0.2434(4) 0.3029(3)
N2 N 0.1103(4) 0.2373(4) 0.4286(3)
H2 H -0.014(5) 0.234(6) 0.415(5)
C4 C 0.5738(4) 0.2588(4) 0.2395(3)
O1 O 0.5172(3) 0.2693(3) 0.1001(3)
O2 O 0.7497(3) 0.2578(4) 0.2786(3)
C5 C 0.1265(5) 0.2234(4) 0.7182(3)
O3 O -0.0519(3) 0.2348(3) 0.7334(3)
O4 O 0.2402(4) 0.1983(3) 0.8214(3)
O5 O -0.1234(3) 0.1060(3) 0.0011(3)
H3 H -0.153(6) 0.170(6) 0.081(4)
H4 H -0.136(6) 0.139(6) -0.093(4)
O6 O 0.2438(4) 0.5118(4) 0.1002(3)
H5 H 0.303(7) 0.578(7) 0.039(5)
H6 H 0.170(7) 0.563(7) 0.145(6)
O4_2 O 0.2402(4) 0.1983(3) -0.1786(3)
O5A O 0.1234(3) -0.1060(3) -0.0011(3)
Ni1_2 Ni 0.20400(5) 0.21545(5) 1.05605(4)
Ni1A Ni -0.20400(5) -0.21545(5) -0.05605(4)
H3A H 0.153(6) -0.170(6) -0.081(4)
H4A H 0.136(6) -0.139(6) 0.093(4)
loop_
_geom_bond_atom_site_label_1
_geom_bond_atom_site_label_2
_geom_bond_site_symmetry_1
_geom_bond_site_symmetry_2
Ni1 N1 1_555 1_555
C1 C2 1_555 1_555
C2 H1 1_555 1_555
C3 C2 1_555 1_555
N1 C1 1_555 1_555
N2 C3 1_555 1_555
H2 N2 1_555 1_555
C4 C1 1_555 1_555
O1 Ni1 1_555 1_555
O2 C4 1_555 1_555
C5 C3 1_555 1_555
O3 C5 1_555 1_555
O4 C5 1_555 1_555
O5 Ni1 1_555 1_555
H3 O5 1_555 1_555
H4 O5 1_555 1_555
O6 Ni1 1_555 1_555
H5 O6 1_555 1_555
H6 O6 1_555 1_555
O4_2 Ni1 1_555 1_555
O5A Ni1 1_555 1_555
Ni1_2 O4 1_555 1_555
Ni1A O5 1_555 1_555
H3A O5A 1_555 1_555
H4A O5A 1_555 1_555
N1 N2 1_555 1_555
C4 O1 1_555 1_555
O5A Ni1A 1_555 1_555

#END
