
#######################################################################
#
#                 Cambridge Crystallographic Data Centre
#                                CCDC 
#
#######################################################################
#
# If this CIF has been generated from an entry in the Cambridge 
# Structural Database, then it will include bibliographic, chemical, 
# crystal, experimental, refinement or atomic coordinate data resulting 
# from the CCDC's data processing and validation procedures.
#
#######################################################################

data_AVUXIY
_symmetry_cell_setting           triclinic
_symmetry_space_group_name_H-M   'P -1'
_symmetry_Int_Tables_number      2
_space_group_name_Hall           '-P 1'
loop_
_symmetry_equiv_pos_site_id
_symmetry_equiv_pos_as_xyz
1 x,y,z
2 -x,-y,-z
_cell_length_a                   11.170(3)
_cell_length_b                   11.720(3)
_cell_length_c                   12.562(4)
_cell_angle_alpha                110.454(5)
_cell_angle_beta                 99.217(5)
_cell_angle_gamma                111.514(5)
_cell_volume                     1352.79
loop_
_atom_site_label
_atom_site_type_symbol
_atom_site_fract_x
_atom_site_fract_y
_atom_site_fract_z
Nd1 Nd -0.09524(4) 0.61187(4) 0.56723(4)
N1 N 0.0332(6) 0.8848(6) 0.6955(5)
N2 N -0.0104(7) 0.7213(6) 0.8096(5)
O1 O -0.2915(5) 0.6377(5) 0.6209(5)
O2 O -0.2288(5) 0.7173(5) 0.4940(5)
O3 O -0.0275(5) 1.3100(5) 0.5535(4)
O4 O -0.1554(5) 1.4146(5) 0.6071(4)
O5 O 0.1203(5) 0.6106(5) 0.6242(4)
O6 O 0.2936(5) 0.5648(5) 0.6221(5)
O7 O 0.4973(8) 1.3902(7) 0.8217(8)
H1 H 0.5181 1.4603 0.8130
O8 O 0.6984(10) 1.5081(8) 0.9497(9)
C1 C -0.3083(7) 0.6917(7) 0.5523(7)
C2 C -0.4304(8) 0.7190(7) 0.5350(8)
H2 H -0.5095 0.6347 0.4764
H3 H -0.4485 0.7463 0.6106
C3 C -0.4123(8) 0.8280(7) 0.4935(7)
H4 H -0.4999 0.8259 0.4669
H5 H -0.3801 0.8086 0.4251
C4 C -0.3114(8) 0.9711(7) 0.5925(7)
H6 H -0.3517 0.9965 0.6542
H7 H -0.2300 0.9681 0.6292
C5 C -0.2706(8) 1.0806(8) 0.5487(7)
H8 H -0.3526 1.0780 0.5057
H9 H -0.2231 1.0594 0.4923
C6 C -0.1800(8) 1.2249(7) 0.6489(7)
H10 H -0.2339 1.2554 0.6942
H11 H -0.1087 1.2239 0.7034
C7 C -0.1156(8) 1.3243(7) 0.5998(6)
C8 C 0.2443(7) 0.6414(7) 0.6712(6)
C9 C 0.3324(8) 0.7744(7) 0.7839(6)
H12 H 0.4123 0.7713 0.8236
H13 H 0.2816 0.7872 0.8392
C10 C 0.3763(8) 0.8940(7) 0.7512(7)
H14 H 0.4268 0.8801 0.6959
H15 H 0.2956 0.8948 0.7100
C11 C 0.4638(8) 1.0313(7) 0.8597(7)
H16 H 0.5480 1.0336 0.8975
H17 H 0.4162 1.0429 0.9177
C12 C 0.4971(9) 1.1495(7) 0.8247(7)
H18 H 0.5557 1.1448 0.7758
H19 H 0.4132 1.1387 0.7761
C13 C 0.5673(10) 1.2901(8) 0.9336(8)
H20 H 0.5104 1.2925 0.9843
H21 H 0.6529 1.3019 0.9800
C14 C 0.5955(10) 1.4069(8) 0.9033(8)
C15 C 0.0503(8) 0.9650(7) 0.6408(7)
H22 H 0.0139 0.9240 0.5573
C16 C 0.1200(9) 1.1075(8) 0.7017(8)
H23 H 0.1279 1.1597 0.6596
C17 C 0.1759(9) 1.1687(8) 0.8232(8)
H24 H 0.2236 1.2637 0.8651
C18 C 0.1617(9) 1.0888(8) 0.8853(7)
C19 C 0.2170(10) 1.1471(9) 1.0124(8)
H25 H 0.2649 1.2417 1.0574
C20 C 0.2001(10) 1.0659(10) 1.0673(8)
H26 H 0.2392 1.1061 1.1506
C21 C 0.1251(9) 0.9207(9) 1.0041(7)
C22 C 0.1034(11) 0.8356(10) 1.0593(8)
H27 H 0.1421 0.8726 1.1424
C23 C 0.0263(12) 0.6986(11) 0.9941(9)
H28 H 0.0111 0.6410 1.0313
C24 C -0.0302(9) 0.6454(9) 0.8687(7)
H29 H -0.0848 0.5515 0.8244
C25 C 0.0667(8) 0.8591(7) 0.8778(7)
C26 C 0.0868(7) 0.9459(7) 0.8181(6)
O3A O 0.0275(5) 0.6900(5) 0.4465(4)
O4_2 O -0.1554(5) 0.4146(5) 0.6071(4)
O6A O -0.2936(5) 0.4352(5) 0.3779(5)
Nd1A Nd 0.09524(4) 1.38813(4) 0.43277(4)
Nd1_2 Nd -0.09524(4) 1.61187(4) 0.56723(4)
Nd1A_2 Nd 0.09524(4) 0.38813(4) 0.43277(4)
O9 O 0.4667(5) 0.4208(5) 0.2528(4)
O10 O 0.1491(19) 0.4637(18) 0.8287(15)
loop_
_geom_bond_atom_site_label_1
_geom_bond_atom_site_label_2
_geom_bond_site_symmetry_1
_geom_bond_site_symmetry_2
Nd1 N1 1_555 1_555
N1 C15 1_555 1_555
N2 Nd1 1_555 1_555
O1 Nd1 1_555 1_555
O2 Nd1 1_555 1_555
O3 C7 1_555 1_555
O4 C7 1_555 1_555
O5 Nd1 1_555 1_555
O6 C8 1_555 1_555
O7 H1 1_555 1_555
O8 C14 1_555 1_555
C1 O1 1_555 1_555
C2 C1 1_555 1_555
H2 C2 1_555 1_555
H3 C2 1_555 1_555
C3 C2 1_555 1_555
H4 C3 1_555 1_555
H5 C3 1_555 1_555
C4 C3 1_555 1_555
H6 C4 1_555 1_555
H7 C4 1_555 1_555
C5 C4 1_555 1_555
H8 C5 1_555 1_555
H9 C5 1_555 1_555
C6 C5 1_555 1_555
H10 C6 1_555 1_555
H11 C6 1_555 1_555
C7 C6 1_555 1_555
C8 O5 1_555 1_555
C9 C8 1_555 1_555
H12 C9 1_555 1_555
H13 C9 1_555 1_555
C10 C9 1_555 1_555
H14 C10 1_555 1_555
H15 C10 1_555 1_555
C11 C10 1_555 1_555
H16 C11 1_555 1_555
H17 C11 1_555 1_555
C12 C11 1_555 1_555
H18 C12 1_555 1_555
H19 C12 1_555 1_555
C13 C12 1_555 1_555
H20 C13 1_555 1_555
H21 C13 1_555 1_555
C14 O7 1_555 1_555
C15 H22 1_555 1_555
C16 C15 1_555 1_555
H23 C16 1_555 1_555
C17 C16 1_555 1_555
H24 C17 1_555 1_555
C18 C17 1_555 1_555
C19 C18 1_555 1_555
H25 C19 1_555 1_555
C20 C19 1_555 1_555
H26 C20 1_555 1_555
C21 C20 1_555 1_555
C22 C21 1_555 1_555
H27 C22 1_555 1_555
C23 C22 1_555 1_555
H28 C23 1_555 1_555
C24 N2 1_555 1_555
H29 C24 1_555 1_555
C25 N2 1_555 1_555
C26 N1 1_555 1_555
O3A Nd1 1_555 1_555
O4_2 Nd1 1_555 1_555
O6A Nd1 1_555 1_555
Nd1A O3 1_555 1_555
Nd1_2 O4 1_555 1_555
Nd1A_2 O6 1_555 1_555
O2 C1 1_555 1_555
C13 C14 1_555 1_555
C18 C26 1_555 1_555
C21 C25 1_555 1_555
C23 C24 1_555 1_555
C25 C26 1_555 1_555

#END
