
#######################################################################
#
#                 Cambridge Crystallographic Data Centre
#                                CCDC 
#
#######################################################################
#
# If this CIF has been generated from an entry in the Cambridge 
# Structural Database, then it will include bibliographic, chemical, 
# crystal, experimental, refinement or atomic coordinate data resulting 
# from the CCDC's data processing and validation procedures.
#
#######################################################################

data_AVUYUL
_symmetry_cell_setting           monoclinic
_symmetry_space_group_name_H-M   'C 2/c'
_symmetry_Int_Tables_number      15
_space_group_name_Hall           '-C 2yn'
loop_
_symmetry_equiv_pos_site_id
_symmetry_equiv_pos_as_xyz
1 x,y,z
2 1/2+x,1/2+y,z
3 x,-y,1/2+z
4 1/2+x,1/2-y,1/2+z
5 -x,-y,-z
6 1/2-x,1/2-y,-z
7 -x,y,1/2-z
8 1/2-x,1/2+y,1/2-z
_cell_length_a                   22.611(4)
_cell_length_b                   8.3018(14)
_cell_length_c                   21.086(4)
_cell_angle_alpha                90
_cell_angle_beta                 103.657(3)
_cell_angle_gamma                90
_cell_volume                     3846.19
loop_
_atom_site_label
_atom_site_type_symbol
_atom_site_fract_x
_atom_site_fract_y
_atom_site_fract_z
Cu1 Cu 0.0000 0.20128(3) 0.2500
N1 N -0.09157(7) 0.21007(17) 0.20565(7)
N2 N -0.19223(7) 0.0444(2) 0.05940(8)
N3 N -0.24756(7) 0.0570(2) 0.03246(8)
N4 N -0.35273(9) -0.1256(3) -0.10642(10)
N5 N 0.01927(6) 0.20993(17) 0.16070(7)
N6 N -0.01163(7) 0.48641(19) 0.02362(7)
O1 O 0.0000 -0.0662(2) 0.2500
H1 H -0.0116(12) -0.125(3) 0.2151(10)
O2 O 0.0000 0.5007(2) 0.2500
H2 H 0.0256(11) 0.557(3) 0.2364(14)
C1 C -0.17558(8) 0.1341(2) 0.11878(9)
C2 C -0.11452(8) 0.1274(2) 0.15047(8)
H5 H -0.0885 0.0636 0.1330
C3 C -0.13028(8) 0.2997(2) 0.23054(9)
H6 H -0.1148 0.3585 0.2684
C4 C -0.19202(9) 0.3081(3) 0.20235(10)
H7 H -0.2174 0.3694 0.2217
C5 C -0.21556(8) 0.2251(3) 0.14540(10)
H8 H -0.2568 0.2296 0.1254
C6 C -0.26569(9) -0.0319(3) -0.02687(10)
C7 C -0.32799(9) -0.0457(3) -0.05126(11)
H9 H -0.3538 0.0025 -0.0284
C8 C -0.31478(12) -0.1919(3) -0.13858(12)
H10 H -0.3314 -0.2461 -0.1773
C9 C -0.25213(13) -0.1847(3) -0.11757(13)
H11 H -0.2274 -0.2334 -0.1415
C10 C -0.22692(10) -0.1037(3) -0.06026(11)
H12 H -0.1849 -0.0977 -0.0446
C11 C 0.05255(8) 0.0945(2) 0.14105(8)
H13 H 0.0676 0.0104 0.1694
C12 C 0.06523(9) 0.0970(2) 0.07972(9)
H14 H 0.0871 0.0133 0.0668
C13 C 0.04520(10) 0.2238(2) 0.03805(9)
H15 H 0.0537 0.2283 -0.0030
C14 C 0.01191(8) 0.3452(2) 0.05920(8)
C15 C -0.00155(8) 0.3323(2) 0.11969(8)
H16 H -0.0258 0.4107 0.1324
N6D N 0.01163(7) 0.51359(19) -0.02362(7)
C14D C -0.01191(8) 0.6548(2) -0.05920(8)
C13D C -0.04520(10) 0.7762(2) -0.03805(9)
C12D C -0.06523(9) 0.9030(2) -0.07972(9)
C11D C -0.05255(8) 0.9055(2) -0.14105(8)
N5D N -0.01927(6) 0.79007(17) -0.16070(7)
C15D C 0.00155(8) 0.6677(2) -0.11969(8)
H16D H 0.0258 0.5893 -0.1324
H13D H -0.0676 0.9896 -0.1694
H14D H -0.0871 0.9867 -0.0668
H15D H -0.0537 0.7717 0.0030
H1F H 0.0116(12) -0.125(3) 0.2849(10)
H2F H -0.0256(11) 0.557(3) 0.2636(14)
N1F N 0.09157(7) 0.21007(17) 0.29435(7)
N2F N 0.19223(7) 0.0444(2) 0.44060(8)
N3F N 0.24756(7) 0.0570(2) 0.46754(8)
N4F N 0.35273(9) -0.1256(3) 0.60642(10)
C1F C 0.17558(8) 0.1341(2) 0.38122(9)
C2F C 0.11452(8) 0.1274(2) 0.34953(8)
H5F H 0.0885 0.0636 0.3670
C3F C 0.13028(8) 0.2997(2) 0.26946(9)
H6F H 0.1148 0.3585 0.2316
C4F C 0.19202(9) 0.3081(3) 0.29765(10)
H7F H 0.2174 0.3694 0.2783
C5F C 0.21556(8) 0.2251(3) 0.35460(10)
H8F H 0.2568 0.2296 0.3746
C6F C 0.26569(9) -0.0319(3) 0.52687(10)
C7F C 0.32799(9) -0.0457(3) 0.55126(11)
H9F H 0.3538 0.0025 0.5284
C8F C 0.31478(12) -0.1919(3) 0.63858(12)
H10F H 0.3314 -0.2461 0.6773
C9F C 0.25213(13) -0.1847(3) 0.61757(13)
H11F H 0.2274 -0.2334 0.6415
C10F C 0.22692(10) -0.1037(3) 0.56026(11)
H12F H 0.1849 -0.0977 0.5446
N5F N -0.01927(6) 0.20993(17) 0.33930(7)
Cu1B Cu 0.0000 0.79872(3) -0.2500
O3 O 0.03634(7) 0.78958(18) 0.36857(7)
H3 H 0.0660(10) 0.723(3) 0.3762(13)
H4 H 0.0073(11) 0.739(4) 0.3797(15)
B1 B 0.12460(12) 0.6791(3) 0.16153(16)
F1 F 0.15840(9) 0.5433(2) 0.16101(11)
F2 F 0.15905(7) 0.8131(2) 0.17726(13)
F3 F 0.0813(3) 0.6417(9) 0.1905(4)
F5 F 0.1000(5) 0.7134(10) 0.0967(4)
F4? F 0.0946(3) 0.6750(9) 0.2158(2)
F6? F 0.07736(19) 0.7021(8) 0.1070(3)
loop_
_geom_bond_atom_site_label_1
_geom_bond_atom_site_label_2
_geom_bond_site_symmetry_1
_geom_bond_site_symmetry_2
Cu1 N1 1_555 1_555
N1 C2 1_555 1_555
N2 N3 1_555 1_555
N3 C6 1_555 1_555
N4 C7 1_555 1_555
N5 Cu1 1_555 1_555
N6 C14 1_555 1_555
O1 Cu1 1_555 1_555
H1 O1 1_555 1_555
O2 Cu1 1_555 1_555
H2 O2 1_555 1_555
O3 H3 1_555 1_555
H4 O3 1_555 1_555
B1 F1 1_555 1_555
F2 B1 1_555 1_555
F3 B1 1_555 1_555
F5 B1 1_555 1_555
C1 N2 1_555 1_555
C2 C1 1_555 1_555
H5 C2 1_555 1_555
C3 N1 1_555 1_555
H6 C3 1_555 1_555
C4 C3 1_555 1_555
H7 C4 1_555 1_555
C5 C1 1_555 1_555
H8 C5 1_555 1_555
C6 C7 1_555 1_555
C7 H9 1_555 1_555
C8 N4 1_555 1_555
H10 C8 1_555 1_555
C9 C8 1_555 1_555
H11 C9 1_555 1_555
C10 C6 1_555 1_555
H12 C10 1_555 1_555
C11 N5 1_555 1_555
H13 C11 1_555 1_555
C12 C11 1_555 1_555
H14 C12 1_555 1_555
C13 C12 1_555 1_555
H15 C13 1_555 1_555
C14 C13 1_555 1_555
C15 N5 1_555 1_555
H16 C15 1_555 1_555
N6D N6 1_555 1_555
C14D N6D 1_555 1_555
C13D C14D 1_555 1_555
C12D C13D 1_555 1_555
C11D C12D 1_555 1_555
N5D C11D 1_555 1_555
C15D C14D 1_555 1_555
H16D C15D 1_555 1_555
H13D C11D 1_555 1_555
H14D C12D 1_555 1_555
H15D C13D 1_555 1_555
H1F O1 1_555 1_555
H2F O2 1_555 1_555
N1F Cu1 1_555 1_555
N2F N3F 1_555 1_555
N3F C6F 1_555 1_555
N4F C7F 1_555 1_555
C1F N2F 1_555 1_555
C2F N1F 1_555 1_555
H5F C2F 1_555 1_555
C3F N1F 1_555 1_555
H6F C3F 1_555 1_555
C4F C3F 1_555 1_555
H7F C4F 1_555 1_555
C5F C1F 1_555 1_555
H8F C5F 1_555 1_555
C6F C7F 1_555 1_555
C7F H9F 1_555 1_555
C8F N4F 1_555 1_555
H10F C8F 1_555 1_555
C9F C8F 1_555 1_555
H11F C9F 1_555 1_555
C10F C6F 1_555 1_555
H12F C10F 1_555 1_555
N5F Cu1 1_555 1_555
Cu1B N5D 1_555 1_555
C4 C5 1_555 1_555
C9 C10 1_555 1_555
C14 C15 1_555 1_555
N5D C15D 1_555 1_555
C1F C2F 1_555 1_555
C4F C5F 1_555 1_555
C9F C10F 1_555 1_555

#END
