
#######################################################################
#
#                 Cambridge Crystallographic Data Centre
#                                CCDC 
#
#######################################################################
#
# If this CIF has been generated from an entry in the Cambridge 
# Structural Database, then it will include bibliographic, chemical, 
# crystal, experimental, refinement or atomic coordinate data resulting 
# from the CCDC's data processing and validation procedures.
#
#######################################################################

data_AVUYAS
_symmetry_cell_setting           triclinic
_symmetry_space_group_name_H-M   'P -1'
_symmetry_Int_Tables_number      2
_space_group_name_Hall           '-P 1'
loop_
_symmetry_equiv_pos_site_id
_symmetry_equiv_pos_as_xyz
1 x,y,z
2 -x,-y,-z
_cell_length_a                   9.901(2)
_cell_length_b                   10.448(2)
_cell_length_c                   18.921(4)
_cell_angle_alpha                84.49(3)
_cell_angle_beta                 84.47(3)
_cell_angle_gamma                82.69(3)
_cell_volume                     1925.38
loop_
_atom_site_label
_atom_site_type_symbol
_atom_site_fract_x
_atom_site_fract_y
_atom_site_fract_z
Dy1 Dy 0.261518(19) 0.001777(18) -0.006116(10)
O1 O 0.3176(4) 0.1676(4) 0.0675(2)
O2 O 0.1896(4) 0.2422(4) -0.0167(2)
O3 O 0.2431(8) 0.3702(5) 0.0570(4)
O4 O 0.3964(4) -0.1646(4) -0.0677(2)
O5 O 0.1391(4) -0.1865(3) 0.0056(2)
O6 O 0.3416(3) -0.1162(4) 0.09334(18)
O7 O 0.0645(3) 0.0550(3) 0.06918(17)
O8 O -0.1251(3) -0.0369(4) 0.10014(17)
O9 O 0.5594(4) -0.0896(4) 0.06931(18)
O10 O 0.4945(4) -0.3049(5) 0.5170(2)
O11 O 0.2557(6) 0.0229(5) 0.4868(3)
N1 N 0.2486(5) 0.2642(5) 0.0367(3)
N2 N 0.5712(4) -0.3614(4) 0.3861(2)
H1 H 0.5068 -0.3363 0.4173
N3 N 0.6893(5) -0.4329(4) 0.4842(2)
H2 H 0.7567 -0.4820 0.5016
N4 N 0.1287(5) -0.0933(5) 0.4015(2)
H3 H 0.1590 -0.0269 0.4150
N5 N 0.1777(5) -0.1738(4) 0.5151(2)
H4 H 0.1705 -0.2341 0.5491
C1 C 0.1509(8) -0.3073(6) 0.0483(4)
H5 H 0.0826 -0.3582 0.0375
H6 H 0.1381 -0.2916 0.0978
H7 H 0.2400 -0.3531 0.0382
C2 C -0.0138(5) -0.0038(5) 0.1149(2)
C3 C 0.0263(4) -0.0319(5) 0.1896(2)
C4 C -0.0307(6) -0.1249(6) 0.2342(3)
H8 H -0.0922 -0.1719 0.2168
C5 C 0.0000(6) -0.1518(6) 0.3048(3)
H9 H -0.0385 -0.2168 0.3339
C6 C 0.0901(5) -0.0787(5) 0.3305(2)
C7 C 0.1477(5) 0.0172(5) 0.2861(3)
H10 H 0.2070 0.0663 0.3037
C8 C 0.1172(5) 0.0401(5) 0.2156(3)
H11 H 0.1573 0.1033 0.1857
C9 C 0.1255(5) -0.1941(5) 0.4504(3)
C10 C 0.2388(7) -0.0688(6) 0.5300(3)
C11 C 0.2854(6) -0.0762(5) 0.6037(3)
C12 C 0.2167(7) -0.1392(6) 0.6620(3)
H12 H 0.1414 -0.1809 0.6563
C13 C 0.2637(8) -0.1386(6) 0.7297(3)
H13 H 0.2192 -0.1806 0.7691
C14 C 0.3723(10) -0.0779(7) 0.7382(4)
H14 H 0.4005 -0.0760 0.7835
C15 C 0.4430(9) -0.0176(7) 0.6794(4)
H15 H 0.5210 0.0198 0.6854
C16 C 0.3971(8) -0.0134(6) 0.6123(4)
H16 H 0.4408 0.0310 0.5735
C17 C 0.4636(5) -0.1325(4) 0.1091(2)
C18 C 0.4931(4) -0.2032(4) 0.1797(2)
C19 C 0.6277(5) -0.2290(5) 0.1978(3)
H17 H 0.6989 -0.2074 0.1649
C20 C 0.6557(5) -0.2869(5) 0.2649(3)
H18 H 0.7454 -0.3034 0.2772
C21 C 0.5492(5) -0.3199(5) 0.3135(2)
C22 C 0.4154(5) -0.2987(5) 0.2947(3)
H19 H 0.3447 -0.3238 0.3269
C23 C 0.3873(5) -0.2402(5) 0.2279(2)
H20 H 0.2977 -0.2257 0.2154
C24 C 0.6801(5) -0.4349(5) 0.4114(3)
C25 C 0.6037(6) -0.3619(5) 0.5323(3)
C26 C 0.6532(6) -0.3626(5) 0.6040(3)
C27 C 0.7901(6) -0.3697(7) 0.6149(3)
H21 H 0.8559 -0.3743 0.5764
C28 C 0.8292(7) -0.3699(8) 0.6834(4)
H22 H 0.9214 -0.3749 0.6906
C29 C 0.7332(8) -0.3626(7) 0.7403(3)
H23 H 0.7600 -0.3636 0.7862
C30 C 0.5954(7) -0.3537(6) 0.7294(3)
H24 H 0.5297 -0.3481 0.7679
C31 C 0.5561(6) -0.3532(6) 0.6613(3)
H25 H 0.4638 -0.3465 0.6539
S1 S 0.0709(2) -0.33542(15) 0.44280(9)
S2 S 0.79978(16) -0.52778(15) 0.36511(7)
Dy1A Dy -0.261518(19) -0.001777(18) 0.006116(10)
Dy1A_2 Dy 0.738482(19) -0.001777(18) 0.006116(10)
O8A O 0.1251(3) 0.0369(4) -0.10014(17)
O9A O 0.4406(4) 0.0896(4) -0.06931(18)
O12 O 0.6385(9) 0.3906(7) 0.1074(5)
C32 C 0.5500(16) 0.5007(12) 0.0945(7)
O13 O 0.8319(12) 0.4312(10) 0.1928(5)
C33 C 0.9280(13) 0.4927(16) 0.1611(7)
loop_
_geom_bond_atom_site_label_1
_geom_bond_atom_site_label_2
_geom_bond_site_symmetry_1
_geom_bond_site_symmetry_2
Dy1 O1 1_555 1_555
O1 N1 1_555 1_555
O2 Dy1 1_555 1_555
O3 N1 1_555 1_555
O4 Dy1 1_555 1_555
O5 Dy1 1_555 1_555
O6 Dy1 1_555 1_555
O7 Dy1 1_555 1_555
O8 C2 1_555 1_555
O9 C17 1_555 1_555
O10 C25 1_555 1_555
O11 C10 1_555 1_555
O12 C32 1_555 1_555
O13 C33 1_555 1_555
N1 O2 1_555 1_555
N2 H1 1_555 1_555
N3 H2 1_555 1_555
N4 H3 1_555 1_555
N5 H4 1_555 1_555
C1 O5 1_555 1_555
H5 C1 1_555 1_555
H6 C1 1_555 1_555
H7 C1 1_555 1_555
C2 O7 1_555 1_555
C3 C2 1_555 1_555
C4 C3 1_555 1_555
H8 C4 1_555 1_555
C5 C4 1_555 1_555
H9 C5 1_555 1_555
C6 N4 1_555 1_555
C7 C6 1_555 1_555
H10 C7 1_555 1_555
C8 C3 1_555 1_555
H11 C8 1_555 1_555
C9 N4 1_555 1_555
C10 N5 1_555 1_555
C11 C10 1_555 1_555
C12 C11 1_555 1_555
H12 C12 1_555 1_555
C13 C12 1_555 1_555
H13 C13 1_555 1_555
C14 C13 1_555 1_555
H14 C14 1_555 1_555
C15 C14 1_555 1_555
H15 C15 1_555 1_555
C16 C11 1_555 1_555
H16 C16 1_555 1_555
C17 O6 1_555 1_555
C18 C17 1_555 1_555
C19 C18 1_555 1_555
H17 C19 1_555 1_555
C20 C19 1_555 1_555
H18 C20 1_555 1_555
C21 N2 1_555 1_555
C22 C21 1_555 1_555
H19 C22 1_555 1_555
C23 C18 1_555 1_555
H20 C23 1_555 1_555
C24 N2 1_555 1_555
C25 N3 1_555 1_555
C26 C25 1_555 1_555
C27 C26 1_555 1_555
H21 C27 1_555 1_555
C28 C27 1_555 1_555
H22 C28 1_555 1_555
C29 C28 1_555 1_555
H23 C29 1_555 1_555
C30 C29 1_555 1_555
H24 C30 1_555 1_555
C31 C26 1_555 1_555
H25 C31 1_555 1_555
S1 C9 1_555 1_555
S2 C24 1_555 1_555
Dy1A O8 1_555 1_555
Dy1A_2 O9 1_555 1_555
O8A Dy1 1_555 1_555
O9A Dy1 1_555 1_555
N3 C24 1_555 1_555
N5 C9 1_555 1_555
C5 C6 1_555 1_555
C7 C8 1_555 1_555
C15 C16 1_555 1_555
C20 C21 1_555 1_555
C22 C23 1_555 1_555
C30 C31 1_555 1_555

#END
