
#######################################################################
#
#                 Cambridge Crystallographic Data Centre
#                                CCDC 
#
#######################################################################
#
# If this CIF has been generated from an entry in the Cambridge 
# Structural Database, then it will include bibliographic, chemical, 
# crystal, experimental, refinement or atomic coordinate data resulting 
# from the CCDC's data processing and validation procedures.
#
#######################################################################

data_AVUYEW
_symmetry_cell_setting           triclinic
_symmetry_space_group_name_H-M   'P -1'
_symmetry_Int_Tables_number      2
_space_group_name_Hall           '-P 1'
loop_
_symmetry_equiv_pos_site_id
_symmetry_equiv_pos_as_xyz
1 x,y,z
2 -x,-y,-z
_cell_length_a                   9.5847(19)
_cell_length_b                   9.840(2)
_cell_length_c                   21.225(4)
_cell_angle_alpha                77.64(3)
_cell_angle_beta                 80.80(3)
_cell_angle_gamma                76.82(3)
_cell_volume                     1890.87
loop_
_atom_site_label
_atom_site_type_symbol
_atom_site_fract_x
_atom_site_fract_y
_atom_site_fract_z
Ce1 Ce 0.13336(3) 0.22003(2) 0.507132(11)
O1 O 0.3345(6) 0.0058(6) 0.5558(2)
O2 O 0.2523(5) 0.1671(5) 0.6135(2)
O3 O 0.4049(7) -0.0232(8) 0.6501(3)
O4 O 0.0461(5) 0.6290(4) 0.42977(17)
O5 O 0.0924(5) 0.4074(4) 0.41355(18)
O6 O 0.1647(4) 0.0367(4) 0.44024(17)
O7 O -0.0153(5) -0.0447(4) 0.41705(17)
O8 O -0.1179(5) 0.2309(5) 0.4721(2)
O9 O 0.3892(6) 0.2154(6) 0.4450(3)
O10 O 0.2385(6) 0.4374(5) 0.5192(2)
O11 O 0.4108(5) 0.1603(5) 0.03562(19)
O12 O 0.3320(5) 0.5841(5) 0.02540(19)
C1 C 0.0879(6) 0.0190(5) 0.4007(2)
C2 C 0.1193(6) 0.0785(5) 0.3298(2)
C3 C 0.0105(6) 0.1176(6) 0.2894(3)
H1 H -0.0826 0.1064 0.3066
C4 C 0.0374(6) 0.1719(6) 0.2249(3)
H2 H -0.0374 0.2001 0.1990
C5 C 0.1768(6) 0.1853(5) 0.1981(2)
C6 C 0.2865(6) 0.1448(6) 0.2378(2)
H3 H 0.3804 0.1520 0.2201
C7 C 0.2577(6) 0.0943(6) 0.3030(2)
H4 H 0.3316 0.0704 0.3294
C8 C 0.1373(6) 0.3163(6) 0.0864(2)
C9 C 0.3207(6) 0.2255(6) -0.0001(2)
C10 C 0.3412(6) 0.2156(6) -0.0698(2)
C11 C 0.2273(7) 0.2454(7) -0.1071(3)
H5 H 0.1334 0.2752 -0.0887
C12 C 0.2544(8) 0.2304(8) -0.1721(3)
H6 H 0.1783 0.2477 -0.1969
C13 C 0.3956(9) 0.1895(8) -0.1995(3)
H7 H 0.4139 0.1814 -0.2431
C14 C 0.5074(8) 0.1611(8) -0.1631(3)
H8 H 0.6014 0.1340 -0.1821
C15 C 0.4822(7) 0.1722(7) -0.0977(3)
H9 H 0.5586 0.1510 -0.0729
C16 C 0.0801(6) 0.5388(5) 0.3932(2)
C17 C 0.1087(6) 0.5896(5) 0.3222(2)
C18 C 0.1637(7) 0.4895(6) 0.2807(3)
H10 H 0.1831 0.3930 0.2982
C19 C 0.1883(7) 0.5342(6) 0.2149(2)
H11 H 0.2250 0.4676 0.1881
C20 C 0.1590(6) 0.6772(5) 0.1877(2)
C21 C 0.1073(7) 0.7780(6) 0.2281(2)
H12 H 0.0898 0.8745 0.2106
C22 C 0.0826(6) 0.7310(6) 0.2949(2)
H13 H 0.0474 0.7976 0.3218
C23 C 0.1549(6) 0.8256(6) 0.0761(2)
C24 C 0.2896(6) 0.6950(6) -0.0112(3)
C25 C 0.3264(6) 0.7098(6) -0.0827(2)
C26 C 0.3903(7) 0.5864(7) -0.1067(3)
H14 H 0.4153 0.5010 -0.0783
C27 C 0.4160(8) 0.5915(8) -0.1725(3)
H15 H 0.4566 0.5084 -0.1884
C28 C 0.3834(8) 0.7163(8) -0.2153(3)
H16 H 0.4003 0.7178 -0.2598
C29 C 0.3252(7) 0.8396(8) -0.1919(3)
H17 H 0.3053 0.9251 -0.2210
C30 C 0.2963(6) 0.8385(6) -0.1265(3)
H18 H 0.2569 0.9226 -0.1113
N1 N 0.3331(6) 0.0493(7) 0.6076(3)
N2 N 0.2161(5) 0.2292(5) 0.13015(19)
H19 H 0.3030 0.1942 0.1156
N3 N 0.1945(5) 0.3101(5) 0.0220(2)
H20 H 0.1452 0.3657 -0.0073
N4 N 0.1887(5) 0.7090(5) 0.11919(19)
H21 H 0.2386 0.6382 0.1025
N5 N 0.2024(5) 0.8102(5) 0.0117(2)
H22 H 0.1732 0.8822 -0.0174
S1 S -0.01955(17) 0.42518(17) 0.10076(7)
S2 S 0.06252(19) 0.98416(15) 0.08890(7)
Ce1A Ce -0.13336(3) 0.77997(2) 0.492868(11)
Ce1A_2 Ce -0.13336(3) -0.22003(2) 0.492868(11)
O4A O -0.0461(5) 0.3710(4) 0.57023(17)
O7A O 0.0153(5) 0.0447(4) 0.58295(17)
O13 O 0.4172(17) 0.704(3) 0.4089(12)
O14 O 0.7704(18) 0.453(2) 0.3425(19)
loop_
_geom_bond_atom_site_label_1
_geom_bond_atom_site_label_2
_geom_bond_site_symmetry_1
_geom_bond_site_symmetry_2
Ce1 O1 1_555 1_555
O1 N1 1_555 1_555
O2 Ce1 1_555 1_555
O3 N1 1_555 1_555
O4 C16 1_555 1_555
O5 Ce1 1_555 1_555
O6 Ce1 1_555 1_555
O7 C1 1_555 1_555
O8 Ce1 1_555 1_555
O9 Ce1 1_555 1_555
O10 Ce1 1_555 1_555
O11 C9 1_555 1_555
O12 C24 1_555 1_555
C1 O6 1_555 1_555
C2 C1 1_555 1_555
C3 C2 1_555 1_555
H1 C3 1_555 1_555
C4 C3 1_555 1_555
H2 C4 1_555 1_555
C5 C4 1_555 1_555
C6 C5 1_555 1_555
H3 C6 1_555 1_555
C7 C2 1_555 1_555
H4 C7 1_555 1_555
C8 N2 1_555 1_555
C9 C10 1_555 1_555
C10 C11 1_555 1_555
C11 H5 1_555 1_555
C12 C11 1_555 1_555
H6 C12 1_555 1_555
C13 C12 1_555 1_555
H7 C13 1_555 1_555
C14 C13 1_555 1_555
H8 C14 1_555 1_555
C15 C10 1_555 1_555
H9 C15 1_555 1_555
C16 O5 1_555 1_555
C17 C16 1_555 1_555
C18 C17 1_555 1_555
H10 C18 1_555 1_555
C19 C18 1_555 1_555
H11 C19 1_555 1_555
C20 C19 1_555 1_555
C21 C20 1_555 1_555
H12 C21 1_555 1_555
C22 C17 1_555 1_555
H13 C22 1_555 1_555
C23 N4 1_555 1_555
C24 C25 1_555 1_555
C25 C26 1_555 1_555
C26 H14 1_555 1_555
C27 C26 1_555 1_555
H15 C27 1_555 1_555
C28 C27 1_555 1_555
H16 C28 1_555 1_555
C29 C28 1_555 1_555
H17 C29 1_555 1_555
C30 C25 1_555 1_555
H18 C30 1_555 1_555
N1 O2 1_555 1_555
N2 C5 1_555 1_555
H19 N2 1_555 1_555
N3 C8 1_555 1_555
H20 N3 1_555 1_555
N4 C20 1_555 1_555
H21 N4 1_555 1_555
N5 C23 1_555 1_555
H22 N5 1_555 1_555
S1 C8 1_555 1_555
S2 C23 1_555 1_555
Ce1A O4 1_555 1_555
Ce1A_2 O7 1_555 1_555
O4A Ce1 1_555 1_555
O7A Ce1 1_555 1_555
C6 C7 1_555 1_555
C9 N3 1_555 1_555
C14 C15 1_555 1_555
C21 C22 1_555 1_555
C24 N5 1_555 1_555
C29 C30 1_555 1_555

#END
