
#######################################################################
#
#                 Cambridge Crystallographic Data Centre
#                                CCDC 
#
#######################################################################
#
# If this CIF has been generated from an entry in the Cambridge 
# Structural Database, then it will include bibliographic, chemical, 
# crystal, experimental, refinement or atomic coordinate data resulting 
# from the CCDC's data processing and validation procedures.
#
#######################################################################

data_AVUZAS
_symmetry_cell_setting           triclinic
_symmetry_space_group_name_H-M   'P -1'
_symmetry_Int_Tables_number      2
_space_group_name_Hall           '-P 1'
loop_
_symmetry_equiv_pos_site_id
_symmetry_equiv_pos_as_xyz
1 x,y,z
2 -x,-y,-z
_cell_length_a                   7.465(4)
_cell_length_b                   8.392(5)
_cell_length_c                   15.110(8)
_cell_angle_alpha                77.518(16)
_cell_angle_beta                 84.066(18)
_cell_angle_gamma                85.22(2)
_cell_volume                     917.445
loop_
_atom_site_label
_atom_site_type_symbol
_atom_site_fract_x
_atom_site_fract_y
_atom_site_fract_z
Cu1 Cu 0.5000 0.5000 0.5000
N1 N 0.4161(4) 0.3046(3) 0.46047(18)
N2 N 0.0420(4) 0.0389(3) 0.5214(2)
O1 O 0.7798(4) 0.3973(3) 0.48469(18)
O2 O 0.5111(4) 0.6355(3) 0.36600(18)
C1 C 0.2663(4) 0.2329(4) 0.4999(2)
H1 H 0.2007 0.2736 0.5469
C2 C 0.2049(4) 0.1004(4) 0.4735(2)
C3 C 0.3064(5) 0.0320(4) 0.4068(2)
H2 H 0.2700 -0.0593 0.3894
C4 C 0.4625(5) 0.1041(5) 0.3673(2)
H3 H 0.5344 0.0616 0.3229
C5 C 0.5114(5) 0.2409(4) 0.3947(2)
H4 H 0.6149 0.2907 0.3660
H9 H 0.855(5) 0.394(6) 0.441(2)
H10 H 0.834(6) 0.385(6) 0.531(2)
H11 H 0.439(5) 0.617(5) 0.333(2)
H12 H 0.603(4) 0.632(6) 0.332(3)
N2A N -0.0420(4) -0.0389(3) 0.4786(2)
C2A C -0.2049(4) -0.1004(4) 0.5265(2)
C1A C -0.2663(4) -0.2329(4) 0.5001(2)
N1A N -0.4161(4) -0.3046(3) 0.53953(18)
C5A C -0.5114(5) -0.2409(4) 0.6053(2)
C4A C -0.4625(5) -0.1041(5) 0.6327(2)
C3A C -0.3064(5) -0.0320(4) 0.5932(2)
H2A H -0.2700 0.0593 0.6106
H3A H -0.5344 -0.0616 0.6771
H4A H -0.6149 -0.2907 0.6340
H1A H -0.2007 -0.2736 0.4531
O1A O 0.2202(4) 0.6027(3) 0.51531(18)
H9A H 0.145(5) 0.606(6) 0.559(2)
H10A H 0.166(6) 0.615(6) 0.469(2)
O2A O 0.4889(4) 0.3645(3) 0.63400(18)
H11A H 0.561(5) 0.383(5) 0.667(2)
H12A H 0.397(4) 0.368(6) 0.668(3)
N1A_2 N 0.5839(4) 0.6954(3) 0.53953(18)
Cu1_2 Cu -0.5000 -0.5000 0.5000
Cu2 Cu 0.5000 0.5000 0.0000
N3 N 0.4193(4) 0.3021(3) -0.03703(19)
N4 N 0.0242(4) 0.0618(3) 0.0113(2)
O3 O 0.2136(4) 0.6013(3) 0.00551(19)
O4 O 0.5420(4) 0.6242(3) -0.13485(18)
C6 C 0.2606(4) 0.2417(4) -0.0033(2)
H5 H 0.1893 0.2905 0.0389
C7 C 0.1985(4) 0.1089(4) -0.0291(2)
C8 C 0.3048(5) 0.0341(4) -0.0919(2)
H6 H 0.2653 -0.0542 -0.1108
C9 C 0.4702(5) 0.0945(4) -0.1251(2)
H7 H 0.5461 0.0456 -0.1657
C10 C 0.5217(5) 0.2294(4) -0.0970(2)
H8 H 0.6322 0.2712 -0.1208
H13 H 0.144(6) 0.608(7) 0.051(2)
H14 H 0.183(7) 0.658(6) -0.042(2)
H15 H 0.448(4) 0.659(6) -0.158(3)
H16 H 0.620(6) 0.582(7) -0.167(3)
N4A N -0.0242(4) -0.0618(3) -0.0113(2)
C7A C -0.1985(4) -0.1089(4) 0.0291(2)
C6A C -0.2606(4) -0.2417(4) 0.0033(2)
N3A N -0.4193(4) -0.3021(3) 0.03703(19)
C10A C -0.5217(5) -0.2294(4) 0.0970(2)
C9A C -0.4702(5) -0.0945(4) 0.1251(2)
C8A C -0.3048(5) -0.0341(4) 0.0919(2)
H6A H -0.2653 0.0542 0.1108
H7A H -0.5461 -0.0456 0.1657
H8A H -0.6322 -0.2712 0.1208
H5A H -0.1893 -0.2905 -0.0389
O3A O 0.7864(4) 0.3987(3) -0.00551(19)
H13A H 0.856(6) 0.392(7) -0.051(2)
H14A H 0.817(7) 0.342(6) 0.042(2)
O4A O 0.4580(4) 0.3758(3) 0.13485(18)
H15A H 0.552(4) 0.341(6) 0.158(3)
H16A H 0.380(6) 0.418(7) 0.167(3)
N3A_2 N 0.5807(4) 0.6979(3) 0.03703(19)
Cu2_2 Cu -0.5000 -0.5000 0.0000
Si1 Si 1.04984(13) 0.58647(13) 0.26745(6)
F1 F 1.0065(4) 0.4028(3) 0.33202(17)
F2 F 0.8285(3) 0.6352(4) 0.26810(18)
F3 F 1.0921(3) 0.7688(3) 0.20190(17)
F4 F 1.2741(3) 0.5342(3) 0.26597(16)
F5 F 1.0463(3) 0.5101(4) 0.17270(16)
F6 F 1.0598(3) 0.6612(3) 0.36067(15)
O5 O 0.2089(4) 0.7080(4) -0.1830(2)
H17 H 0.134(6) 0.639(6) -0.185(4)
H18 H 0.174(7) 0.797(4) -0.217(3)
O6 O 0.0990(6) 0.9916(5) -0.2806(3)
H19 H -0.009(3) 0.976(5) -0.258(2)
H20 H 0.063(8) 1.011(7) -0.334(2)
loop_
_geom_bond_atom_site_label_1
_geom_bond_atom_site_label_2
_geom_bond_site_symmetry_1
_geom_bond_site_symmetry_2
Cu1 N1 1_555 1_555
Cu2 N3 1_555 1_555
N1 C1 1_555 1_555
N2 C2 1_555 1_555
N3 C6 1_555 1_555
N4 C7 1_555 1_555
O1 Cu1 1_555 1_555
O2 Cu1 1_555 1_555
O3 Cu2 1_555 1_555
O4 Cu2 1_555 1_555
Si1 F1 1_555 1_555
F2 Si1 1_555 1_555
F3 Si1 1_555 1_555
F4 Si1 1_555 1_555
F5 Si1 1_555 1_555
F6 Si1 1_555 1_555
C1 H1 1_555 1_555
C2 C1 1_555 1_555
C3 C2 1_555 1_555
H2 C3 1_555 1_555
C4 C3 1_555 1_555
H3 C4 1_555 1_555
C5 N1 1_555 1_555
H4 C5 1_555 1_555
C6 H5 1_555 1_555
C7 C6 1_555 1_555
C8 C7 1_555 1_555
H6 C8 1_555 1_555
C9 C8 1_555 1_555
H7 C9 1_555 1_555
C10 N3 1_555 1_555
H8 C10 1_555 1_555
H9 O1 1_555 1_555
H10 O1 1_555 1_555
H11 O2 1_555 1_555
H12 O2 1_555 1_555
H13 O3 1_555 1_555
H14 O3 1_555 1_555
H15 O4 1_555 1_555
H16 O4 1_555 1_555
O5 H17 1_555 1_555
H18 O5 1_555 1_555
O6 H19 1_555 1_555
H20 O6 1_555 1_555
N2A N2 1_555 1_555
C2A N2A 1_555 1_555
C1A C2A 1_555 1_555
N1A C1A 1_555 1_555
C5A N1A 1_555 1_555
C4A C5A 1_555 1_555
C3A C2A 1_555 1_555
H2A C3A 1_555 1_555
H3A C4A 1_555 1_555
H4A C5A 1_555 1_555
H1A C1A 1_555 1_555
N4A N4 1_555 1_555
C7A N4A 1_555 1_555
C6A C7A 1_555 1_555
N3A C6A 1_555 1_555
C10A N3A 1_555 1_555
C9A C10A 1_555 1_555
C8A C7A 1_555 1_555
H6A C8A 1_555 1_555
H7A C9A 1_555 1_555
H8A C10A 1_555 1_555
H5A C6A 1_555 1_555
O1A Cu1 1_555 1_555
H9A O1A 1_555 1_555
H10A O1A 1_555 1_555
O2A Cu1 1_555 1_555
H11A O2A 1_555 1_555
H12A O2A 1_555 1_555
O3A Cu2 1_555 1_555
H13A O3A 1_555 1_555
H14A O3A 1_555 1_555
O4A Cu2 1_555 1_555
H15A O4A 1_555 1_555
H16A O4A 1_555 1_555
N1A_2 Cu1 1_555 1_555
N3A_2 Cu2 1_555 1_555
Cu1_2 N1A 1_555 1_555
Cu2_2 N3A 1_555 1_555
C4 C5 1_555 1_555
C9 C10 1_555 1_555
C4A C3A 1_555 1_555
C9A C8A 1_555 1_555

#END
