
#######################################################################
#
#                 Cambridge Crystallographic Data Centre
#                                CCDC 
#
#######################################################################
#
# If this CIF has been generated from an entry in the Cambridge 
# Structural Database, then it will include bibliographic, chemical, 
# crystal, experimental, refinement or atomic coordinate data resulting 
# from the CCDC's data processing and validation procedures.
#
#######################################################################

data_AWAFOU
_symmetry_cell_setting           triclinic
_symmetry_space_group_name_H-M   'P -1'
_symmetry_Int_Tables_number      2
_space_group_name_Hall           '-P 1'
loop_
_symmetry_equiv_pos_site_id
_symmetry_equiv_pos_as_xyz
1 x,y,z
2 -x,-y,-z
_cell_length_a                   11.8990(6)
_cell_length_b                   12.7120(7)
_cell_length_c                   14.0190(7)
_cell_angle_alpha                67.000(5)
_cell_angle_beta                 72.669(4)
_cell_angle_gamma                79.114(4)
_cell_volume                     1856.98
loop_
_atom_site_label
_atom_site_type_symbol
_atom_site_fract_x
_atom_site_fract_y
_atom_site_fract_z
Cd1 Cd 0.83566(2) 0.20249(2) 0.74699(2)
C1 C 0.8161(4) 0.4690(3) 0.8683(3)
C2 C 0.7049(5) 0.5240(4) 0.8850(3)
H1 H 0.6430 0.4950 0.8778
C3 C 0.6816(7) 0.6208(5) 0.9123(4)
H2 H 0.6056 0.6564 0.9239
C4 C 0.7731(11) 0.6617(6) 0.9215(6)
H3 H 0.7591 0.7276 0.9384
C5 C 0.8844(9) 0.6107(7) 0.9071(5)
H4 H 0.9450 0.6409 0.9149
C6 C 0.9074(5) 0.5118(4) 0.8804(3)
H5 H 0.9833 0.4756 0.8709
C7 C 0.8371(4) 0.3691(3) 0.8332(3)
C8 C 0.6907(4) 0.1167(4) 0.6678(3)
C9 C 0.5820(3) 0.0921(3) 0.6480(3)
C10 C 0.4908(3) 0.1765(3) 0.6300(3)
H6 H 0.4981 0.2493 0.6270
C11 C 0.3893(4) 0.1540(3) 0.6163(3)
H7 H 0.3281 0.2114 0.6051
C12 C 0.3779(4) 0.0474(4) 0.6191(3)
H8 H 0.3090 0.0328 0.6097
C13 C 0.4672(4) -0.0373(4) 0.6357(3)
H9 H 0.4594 -0.1093 0.6371
C14 C 0.5690(4) -0.0156(3) 0.6503(3)
H10 H 0.6297 -0.0736 0.6619
C15 C 0.9534(3) 0.3144(3) 0.4872(3)
H11 H 0.8896 0.2986 0.4709
C16 C 1.0562(3) 0.3490(3) 0.4157(3)
H12 H 1.0759 0.3615 0.3430
C17 C 1.0610(3) 0.3350(3) 0.5736(3)
H13 H 1.0875 0.3367 0.6290
C18 C 1.2472(3) 0.3877(3) 0.4311(2)
C19 C 1.2868(3) 0.4672(3) 0.4561(3)
H14 H 1.2351 0.5048 0.4991
C20 C 1.4041(3) 0.4897(3) 0.4160(3)
H15 H 1.4316 0.5415 0.4340
C21 C 1.4813(3) 0.4371(2) 0.3497(2)
C22 C 1.4397(3) 0.3579(3) 0.3258(3)
H16 H 1.4904 0.3213 0.2814
C23 C 1.3232(3) 0.3335(3) 0.3679(3)
H17 H 1.2963 0.2791 0.3528
C24 C 1.6223(3) 0.5835(2) 0.2399(2)
C25 C 1.5346(3) 0.6612(3) 0.1990(2)
H18 H 1.4608 0.6373 0.2110
C26 C 1.5574(3) 0.7743(3) 0.1404(2)
H19 H 1.4977 0.8270 0.1148
C27 C 1.6670(3) 0.8097(2) 0.1195(2)
C28 C 1.7559(3) 0.7323(3) 0.1582(3)
H20 H 1.8305 0.7559 0.1439
C29 C 1.7330(3) 0.6201(3) 0.2181(3)
H21 H 1.7925 0.5679 0.2445
C30 C 1.6852(3) 0.3789(2) 0.2787(3)
C31 C 1.7145(3) 0.2825(3) 0.3613(3)
H22 H 1.6855 0.2797 0.4315
C32 C 1.7864(3) 0.1903(3) 0.3403(3)
H23 H 1.8053 0.1262 0.3962
C33 C 1.8293(3) 0.1946(3) 0.2366(3)
C34 C 1.8047(3) 0.2925(3) 0.1531(3)
H24 H 1.8365 0.2967 0.0827
C35 C 1.7333(3) 0.3834(3) 0.1745(3)
H25 H 1.7172 0.4486 0.1183
C36 C 1.8900(4) 0.0626(3) 0.1341(3)
H26 H 1.8464 0.0993 0.0831
C37 C 1.9694(3) 0.0186(3) 0.2656(3)
H27 H 1.9897 0.0218 0.3236
C38 C 1.9592(3) -0.0354(3) 0.1446(3)
H28 H 1.9710 -0.0783 0.1013
C39 C 1.7521(3) 0.9722(3) -0.0420(3)
H29 H 1.8002 0.9280 -0.0804
C40 C 1.6280(3) 1.0203(3) 0.0849(3)
H30 H 1.5740 1.0177 0.1491
C41 C 1.6643(3) 1.1153(3) 0.0008(3)
H31 H 1.6401 1.1901 -0.0017
O1 O 0.9333(3) 0.3108(2) 0.8310(2)
O2 O 0.7544(2) 0.34876(19) 0.80559(19)
O4 O 0.6932(2) 0.2148(2) 0.6664(2)
O5 O 0.7687(3) 0.0383(3) 0.6890(2)
N1 N 1.6012(2) 0.4664(2) 0.3040(2)
N2 N 1.1261(2) 0.3623(2) 0.4719(2)
N3 N 0.9560(2) 0.3058(2) 0.5864(2)
N4 N 1.6854(2) 0.9284(2) 0.0578(2)
N5 N 1.8957(2) 0.0982(2) 0.2126(2)
N6 N 2.0095(2) -0.0634(2) 0.2273(2)
N7 N 1.7414(3) 1.0857(2) -0.0794(2)
Cd1A Cd 2.16434(2) -0.20249(2) 0.25301(2)
Cd1_2 Cd 1.83566(2) 1.20249(2) -0.25301(2)
N6A N 0.9905(2) 0.0634(2) 0.7727(2)
N7_2 N 0.7414(3) 0.0857(2) 0.9206(2)
O3 O 0.8923(7) 0.9502(5) 0.5333(4)
H32 H 0.857(3) 0.907(3) 0.579(2)
loop_
_geom_bond_atom_site_label_1
_geom_bond_atom_site_label_2
_geom_bond_site_symmetry_1
_geom_bond_site_symmetry_2
Cd1 O1 1_555 1_555
C1 C2 1_555 1_555
C2 H1 1_555 1_555
C3 C2 1_555 1_555
H2 C3 1_555 1_555
C4 C3 1_555 1_555
H3 C4 1_555 1_555
C5 C4 1_555 1_555
H4 C5 1_555 1_555
C6 C1 1_555 1_555
H5 C6 1_555 1_555
C7 C1 1_555 1_555
C8 C9 1_555 1_555
C9 C10 1_555 1_555
C10 H6 1_555 1_555
C11 C10 1_555 1_555
H7 C11 1_555 1_555
C12 C11 1_555 1_555
H8 C12 1_555 1_555
C13 C12 1_555 1_555
H9 C13 1_555 1_555
C14 C9 1_555 1_555
H10 C14 1_555 1_555
C15 H11 1_555 1_555
C16 C15 1_555 1_555
H12 C16 1_555 1_555
C17 H13 1_555 1_555
C18 C19 1_555 1_555
C19 H14 1_555 1_555
C20 C19 1_555 1_555
H15 C20 1_555 1_555
C21 C20 1_555 1_555
C22 C21 1_555 1_555
H16 C22 1_555 1_555
C23 C18 1_555 1_555
H17 C23 1_555 1_555
C24 C25 1_555 1_555
C25 H18 1_555 1_555
C26 C25 1_555 1_555
H19 C26 1_555 1_555
C27 C26 1_555 1_555
C28 C27 1_555 1_555
H20 C28 1_555 1_555
C29 C24 1_555 1_555
H21 C29 1_555 1_555
C30 C31 1_555 1_555
C31 H22 1_555 1_555
C32 C31 1_555 1_555
H23 C32 1_555 1_555
C33 C32 1_555 1_555
C34 C33 1_555 1_555
H24 C34 1_555 1_555
C35 C30 1_555 1_555
H25 C35 1_555 1_555
C36 H26 1_555 1_555
C37 H27 1_555 1_555
C38 C36 1_555 1_555
H28 C38 1_555 1_555
C39 H29 1_555 1_555
C40 H30 1_555 1_555
C41 C40 1_555 1_555
H31 C41 1_555 1_555
O1 C7 1_555 1_555
O2 Cd1 1_555 1_555
O3 H32 1_555 1_555
O4 Cd1 1_555 1_555
O5 C8 1_555 1_555
N1 C21 1_555 1_555
N2 C16 1_555 1_555
N3 Cd1 1_555 1_555
N4 C27 1_555 1_555
N5 C33 1_555 1_555
N6 C37 1_555 1_555
N7 C39 1_555 1_555
Cd1A N6 1_555 1_555
Cd1_2 N7 1_555 1_555
N6A Cd1 1_555 1_555
N7_2 Cd1 1_555 1_555
C5 C6 1_555 1_555
C7 O2 1_555 1_555
C8 O4 1_555 1_555
C13 C14 1_555 1_555
C15 N3 1_555 1_555
C17 N2 1_555 1_555
C17 N3 1_555 1_555
C18 N2 1_555 1_555
C22 C23 1_555 1_555
C24 N1 1_555 1_555
C28 C29 1_555 1_555
C30 N1 1_555 1_555
C34 C35 1_555 1_555
C36 N5 1_555 1_555
C37 N5 1_555 1_555
C38 N6 1_555 1_555
C39 N4 1_555 1_555
C40 N4 1_555 1_555
C41 N7 1_555 1_555

#END
