
#######################################################################
#
#                 Cambridge Crystallographic Data Centre
#                                CCDC 
#
#######################################################################
#
# If this CIF has been generated from an entry in the Cambridge 
# Structural Database, then it will include bibliographic, chemical, 
# crystal, experimental, refinement or atomic coordinate data resulting 
# from the CCDC's data processing and validation procedures.
#
#######################################################################

data_AWAGEL
_symmetry_cell_setting           monoclinic
_symmetry_space_group_name_H-M   'P 2/n'
_symmetry_Int_Tables_number      13
_space_group_name_Hall           '-P 2yac'
loop_
_symmetry_equiv_pos_site_id
_symmetry_equiv_pos_as_xyz
1 x,y,z
2 1/2-x,y,1/2-z
3 -x,-y,-z
4 1/2+x,-y,1/2+z
_cell_length_a                   14.9127(2)
_cell_length_b                   9.2663(3)
_cell_length_c                   27.2481(4)
_cell_angle_alpha                90
_cell_angle_beta                 98.2530(10)
_cell_angle_gamma                90
_cell_volume                     3726.3
loop_
_atom_site_label
_atom_site_type_symbol
_atom_site_fract_x
_atom_site_fract_y
_atom_site_fract_z
Cd1 Cd 0.49315(2) 0.20880(6) 0.773909(13)
C1 C 1.0412(4) 0.7509(8) 0.9726(2)
C2 C 0.9674(4) 0.7661(9) 0.9985(2)
H1 H 0.9089 0.7602 0.9814
C3 C 0.9801(4) 0.7902(9) 1.0495(2)
H2 H 0.9304 0.7908 1.0666
C4 C 1.0660(4) 0.8129(8) 1.07489(19)
C5 C 1.1401(4) 0.8022(8) 1.0492(2)
H3 H 1.1983 0.8163 1.0660
C6 C 1.1279(4) 0.7708(9) 0.9994(2)
H4 H 1.1783 0.7625 0.9831
C7 C 1.1551(4) 0.8875(10) 1.1557(2)
H5 H 1.2094 0.9132 1.1450
C8 C 1.1370(4) 0.8923(10) 1.2023(2)
H6 H 1.1769 0.9242 1.2295
C9 C 1.0160(4) 0.8119(9) 1.15722(19)
H7 H 0.9576 0.7776 1.1470
C10 C 0.9453(4) 0.6773(9) 0.8955(2)
C11 C 0.8993(5) 0.5618(9) 0.9112(2)
H8 H 0.9250 0.5085 0.9386
C12 C 0.8140(4) 0.5239(10) 0.8863(2)
H9 H 0.7813 0.4496 0.8984
C13 C 0.7786(4) 0.5963(9) 0.8441(2)
C14 C 0.8252(5) 0.7115(10) 0.8278(3)
H10 H 0.8011 0.7615 0.7994
C15 C 0.9077(5) 0.7524(10) 0.8539(3)
H11 H 0.9382 0.8313 0.8432
C16 C 0.6229(5) 0.6443(11) 0.7984(3)
H12 H 0.6220 0.7447 0.7991
C17 C 0.5558(5) 0.5539(11) 0.7776(3)
H13 H 0.5004 0.5846 0.7607
C18 C 0.6631(5) 0.4188(11) 0.8096(3)
H14 H 0.6972 0.3376 0.8200
C19 C 1.0987(4) 0.7646(9) 0.8928(2)
C20 C 1.1346(5) 0.8993(9) 0.8964(2)
H15 H 1.1125 0.9664 0.9171
C21 C 1.2041(5) 0.9395(9) 0.8699(2)
H16 H 1.2296 1.0311 0.8732
C22 C 1.2337(4) 0.8386(8) 0.83848(19)
C23 C 1.1964(5) 0.7039(9) 0.8332(2)
H17 H 1.2163 0.6390 0.8110
C24 C 1.1287(4) 0.6629(9) 0.8607(2)
H18 H 1.1042 0.5705 0.8579
C25 C 1.3644(5) 0.7884(10) 0.7926(3)
H19 H 1.3663 0.6883 0.7946
C26 C 1.4201(5) 0.8753(10) 0.7706(3)
H20 H 1.4676 0.8428 0.7548
C27 C 1.3266(4) 1.0151(9) 0.7994(2)
H21 H 1.2960 1.0972 0.8075
C28 C 0.6201(4) 0.0388(9) 0.9114(2)
C29 C 0.6740(4) -0.0830(10) 0.9128(2)
H22 H 0.6844 -0.1236 0.8829
C30 C 0.7126(4) -0.1469(10) 0.9558(3)
H23 H 0.7481 -0.2292 0.9552
C31 C 0.6977(4) -0.0856(10) 1.0008(2)
H24 H 0.7240 -0.1268 1.0306
C32 C 0.6449(4) 0.0339(9) 1.0015(2)
H25 H 0.6367 0.0742 1.0318
C33 C 0.6020(4) 0.0988(9) 0.95693(19)
C34 C 0.5138(4) 0.2671(9) 1.0022(2)
H26 H 0.5026 0.1836 1.0220
H27 H 0.4562 0.3152 0.9926
C35 C 0.5760(4) 0.3691(9) 1.0346(2)
C36 C 0.5523(4) 0.4141(9) 1.0794(2)
H28 H 0.4984 0.3817 1.0889
C37 C 0.6070(4) 0.5063(9) 1.1101(2)
H29 H 0.5900 0.5335 1.1403
C38 C 0.6872(4) 0.5591(8) 1.0966(2)
C39 C 0.7098(4) 0.5156(9) 1.0512(2)
H30 H 0.7633 0.5488 1.0414
C40 C 0.6552(4) 0.4251(9) 1.0205(2)
H31 H 0.6711 0.4005 0.9898
C41 C 0.5804(4) 0.0989(10) 0.8623(2)
C42 C 0.7521(4) 0.6499(9) 1.1313(2)
N1 N 0.5801(4) 0.4146(8) 0.7845(2)
N2 N 0.6918(3) 0.5552(8) 0.81789(19)
N3 N 1.0294(3) 0.7220(7) 0.92176(18)
N4 N 1.0785(3) 0.8374(7) 1.12648(17)
N5 N 1.0498(3) 0.8427(7) 1.20379(17)
N6 N 1.3052(3) 0.8784(7) 0.81106(16)
N7 N 1.3971(3) 1.0159(7) 0.77466(18)
N8 N 0.5466(4) 0.2169(7) 0.95771(17)
O1 O 0.6134(3) 0.0603(8) 0.82341(15)
O2 O 0.5161(3) 0.1897(7) 0.85955(14)
O3 O 0.3723(3) 0.3640(8) 0.75480(19)
O4 O 0.8160(4) 0.7109(7) 1.1148(2)
O5 O 0.7392(3) 0.6580(7) 1.17629(16)
H32 H 0.335(4) 0.379(11) 0.775(2)
H33 H 0.345(3) 0.321(6) 0.730(2)
Cd1_2 Cd 1.49315(2) 1.20880(6) 0.773909(13)
Cd1C Cd 0.99315(2) 0.79120(6) 1.273909(13)
N5C N 0.5498(3) 0.1573(7) 0.70379(17)
N7_2 N 0.3971(3) 0.0159(7) 0.77466(18)
loop_
_geom_bond_atom_site_label_1
_geom_bond_atom_site_label_2
_geom_bond_site_symmetry_1
_geom_bond_site_symmetry_2
Cd1 N1 1_555 1_555
C1 C2 1_555 1_555
C2 H1 1_555 1_555
C3 C2 1_555 1_555
H2 C3 1_555 1_555
C4 C3 1_555 1_555
C5 C4 1_555 1_555
H3 C5 1_555 1_555
C6 C1 1_555 1_555
H4 C6 1_555 1_555
C7 H5 1_555 1_555
C8 C7 1_555 1_555
H6 C8 1_555 1_555
C9 H7 1_555 1_555
C10 C11 1_555 1_555
C11 H8 1_555 1_555
C12 C11 1_555 1_555
H9 C12 1_555 1_555
C13 C12 1_555 1_555
C14 C13 1_555 1_555
H10 C14 1_555 1_555
C15 C10 1_555 1_555
H11 C15 1_555 1_555
C16 H12 1_555 1_555
C17 C16 1_555 1_555
H13 C17 1_555 1_555
C18 H14 1_555 1_555
C19 C20 1_555 1_555
C20 H15 1_555 1_555
C21 C20 1_555 1_555
H16 C21 1_555 1_555
C22 C21 1_555 1_555
C23 C22 1_555 1_555
H17 C23 1_555 1_555
C24 C19 1_555 1_555
H18 C24 1_555 1_555
C25 H19 1_555 1_555
C26 C25 1_555 1_555
H20 C26 1_555 1_555
C27 H21 1_555 1_555
C28 C29 1_555 1_555
C29 H22 1_555 1_555
C30 C29 1_555 1_555
H23 C30 1_555 1_555
C31 C30 1_555 1_555
H24 C31 1_555 1_555
C32 C31 1_555 1_555
H25 C32 1_555 1_555
C33 C28 1_555 1_555
C34 H26 1_555 1_555
H27 C34 1_555 1_555
C35 C34 1_555 1_555
C36 C35 1_555 1_555
H28 C36 1_555 1_555
C37 C36 1_555 1_555
H29 C37 1_555 1_555
C38 C37 1_555 1_555
C39 C38 1_555 1_555
H30 C39 1_555 1_555
C40 C35 1_555 1_555
H31 C40 1_555 1_555
C41 C28 1_555 1_555
C42 C38 1_555 1_555
N1 C17 1_555 1_555
N2 C13 1_555 1_555
N3 C1 1_555 1_555
N4 C4 1_555 1_555
N5 C8 1_555 1_555
N6 C22 1_555 1_555
N7 C26 1_555 1_555
N8 C33 1_555 1_555
O1 Cd1 1_555 1_555
O2 Cd1 1_555 1_555
O3 Cd1 1_555 1_555
O4 C42 1_555 1_555
O5 C42 1_555 1_555
H32 O3 1_555 1_555
H33 O3 1_555 1_555
Cd1_2 N7 1_555 1_555
Cd1C N5 1_555 1_555
N5C Cd1 1_555 1_555
N7_2 Cd1 1_555 1_555
C5 C6 1_555 1_555
C7 N4 1_555 1_555
C9 N4 1_555 1_555
C9 N5 1_555 1_555
C10 N3 1_555 1_555
C14 C15 1_555 1_555
C16 N2 1_555 1_555
C18 N1 1_555 1_555
C18 N2 1_555 1_555
C19 N3 1_555 1_555
C23 C24 1_555 1_555
C25 N6 1_555 1_555
C27 N6 1_555 1_555
C27 N7 1_555 1_555
C32 C33 1_555 1_555
C34 N8 1_555 1_555
C39 C40 1_555 1_555
C41 O1 1_555 1_555
C41 O2 1_555 1_555

#END
