
#######################################################################
#
#                 Cambridge Crystallographic Data Centre
#                                CCDC 
#
#######################################################################
#
# If this CIF has been generated from an entry in the Cambridge 
# Structural Database, then it will include bibliographic, chemical, 
# crystal, experimental, refinement or atomic coordinate data resulting 
# from the CCDC's data processing and validation procedures.
#
#######################################################################

data_AWAGAH
_symmetry_cell_setting           monoclinic
_symmetry_space_group_name_H-M   'P 21/n'
_symmetry_Int_Tables_number      14
_space_group_name_Hall           '-P 2yn'
loop_
_symmetry_equiv_pos_site_id
_symmetry_equiv_pos_as_xyz
1 x,y,z
2 1/2-x,1/2+y,1/2-z
3 -x,-y,-z
4 1/2+x,1/2-y,1/2+z
_cell_length_a                   12.0550(3)
_cell_length_b                   9.9570(2)
_cell_length_c                   29.0930(6)
_cell_angle_alpha                90
_cell_angle_beta                 98.020(2)
_cell_angle_gamma                90
_cell_volume                     3457.93
loop_
_atom_site_label
_atom_site_type_symbol
_atom_site_fract_x
_atom_site_fract_y
_atom_site_fract_z
Cd1 Cd 0.819862(16) 0.202228(19) 0.436007(6)
C1 C 0.4402(2) -0.3280(3) 0.27211(9)
C2 C 0.4820(3) -0.2485(3) 0.23970(9)
H1 H 0.4688 -0.2727 0.2085
C3 C 0.5429(3) -0.1345(3) 0.25246(10)
H2 H 0.5722 -0.0837 0.2302
C4 C 0.5602(2) -0.0956(3) 0.29817(9)
C5 C 0.5168(3) -0.1713(3) 0.33077(10)
H3 H 0.5269 -0.1437 0.3616
C6 C 0.4585(3) -0.2874(3) 0.31836(10)
H4 H 0.4313 -0.3391 0.3410
C7 C 0.6216(3) 0.1449(4) 0.29400(13)
H5 H 0.5771 0.1725 0.2669
C8 C 0.6945(3) 0.2215(4) 0.32271(12)
H6 H 0.7084 0.3121 0.3183
C9 C 0.7006(3) 0.0261(3) 0.35118(10)
H7 H 0.7195 -0.0470 0.3706
C10 C 0.3160(3) -0.5096(3) 0.29093(9)
C11 C 0.2234(3) -0.4477(3) 0.30395(11)
H8 H 0.1991 -0.3660 0.2907
C12 C 0.1660(3) -0.5072(3) 0.33681(10)
H9 H 0.1048 -0.4641 0.3464
C13 C 0.2004(2) -0.6302(3) 0.35499(9)
C14 C 0.2915(3) -0.6940(3) 0.34128(11)
H10 H 0.3140 -0.7777 0.3533
C15 C 0.3490(3) -0.6321(4) 0.30940(11)
H11 H 0.4112 -0.6743 0.3003
C16 C 0.1849(3) -0.7674(4) 0.42614(11)
H12 H 0.2604 -0.7839 0.4361
C17 C 0.0971(3) -0.8107(3) 0.44627(11)
H13 H 0.1024 -0.8627 0.4730
C18 C 0.0286(2) -0.6963(3) 0.38718(9)
H14 H -0.0217 -0.6529 0.3649
C19 C 0.3886(3) -0.5127(3) 0.21624(9)
C20 C 0.4910(3) -0.5406(4) 0.20319(11)
H15 H 0.5561 -0.5183 0.2228
C21 C 0.4982(3) -0.6017(4) 0.16103(11)
H16 H 0.5680 -0.6180 0.1520
C22 C 0.4035(2) -0.6381(3) 0.13270(9)
C23 C 0.3008(2) -0.6147(3) 0.14590(9)
H17 H 0.2362 -0.6414 0.1269
C24 C 0.2932(3) -0.5511(3) 0.18763(10)
H18 H 0.2232 -0.5343 0.1964
C25 C 0.3553(3) -0.6641(3) 0.04781(10)
H19 H 0.3027 -0.5953 0.0440
C26 C 0.4808(3) -0.8010(3) 0.08063(10)
H20 H 0.5310 -0.8455 0.1026
C27 C 0.4624(3) -0.8254(3) 0.03459(10)
H21 H 0.4981 -0.8912 0.0193
C28 C 0.6613(2) -0.4111(3) 0.43845(9)
C29 C 0.7161(2) -0.2884(3) 0.44286(9)
H22 H 0.7900 -0.2820 0.4373
C30 C 0.6606(3) -0.1756(3) 0.45553(9)
C31 C 0.5503(3) -0.1858(3) 0.46292(10)
H23 H 0.5136 -0.1098 0.4717
C32 C 0.4930(3) -0.3069(3) 0.45757(10)
C33 C 0.5510(3) -0.4193(3) 0.44585(10)
H24 H 0.5147 -0.5019 0.4429
C34 C 0.7226(3) -0.5366(3) 0.42825(10)
C35 C 0.7188(3) -0.0406(3) 0.45886(11)
N1 N 0.3793(2) -0.4457(3) 0.25897(8)
N2 N 0.6270(2) 0.0207(3) 0.31280(8)
N3 N 0.7438(2) 0.1468(3) 0.35868(9)
N4 N 0.14022(18) -0.6939(2) 0.38799(7)
N5 N -0.00136(19) -0.7664(2) 0.42131(8)
N6 N 0.41255(19) -0.7002(2) 0.08847(7)
N7 N 0.3829(2) -0.7384(2) 0.01380(7)
N8 N 0.3795(3) -0.3125(4) 0.46270(14)
O1 O 0.8154(2) -0.0312(2) 0.44796(8)
O2 O 0.6665(2) 0.0588(2) 0.47002(11)
O3 O 0.8142(2) -0.5293(2) 0.41421(10)
O4 O 0.6792(2) -0.6464(2) 0.43583(8)
H28 H 0.365(6) -0.266(8) 0.480(3)
H29 H 0.355(6) -0.407(8) 0.461(2)
Cd1_2 Cd -0.180138(16) -0.797772(19) 0.436007(6)
Cd1C Cd 0.319862(16) -0.702228(19) -0.063993(6)
Cd1_3 Cd 0.819862(16) -0.797772(19) 0.436007(6)
N5_2 N 0.99864(19) 0.2336(2) 0.42131(8)
N7C N 0.8829(2) 0.2384(2) 0.51380(7)
O4_2 O 0.6792(2) 0.3536(2) 0.43583(8)
C36 C 0.7578(5) 0.6194(7) 0.3136(2)
H25 H 0.6921 0.5901 0.3260
H26 H 0.7457 0.6107 0.2804
H27 H 0.7726 0.7117 0.3218
O5 O 0.8416(3) 0.5471(4) 0.33037(11)
O6 O 0.4779(3) 0.1678(4) 0.41401(14)
loop_
_geom_bond_atom_site_label_1
_geom_bond_atom_site_label_2
_geom_bond_site_symmetry_1
_geom_bond_site_symmetry_2
Cd1 N3 1_555 1_555
C1 C2 1_555 1_555
C2 H1 1_555 1_555
C3 C2 1_555 1_555
H2 C3 1_555 1_555
C4 C3 1_555 1_555
C5 C4 1_555 1_555
H3 C5 1_555 1_555
C6 C1 1_555 1_555
H4 C6 1_555 1_555
C7 H5 1_555 1_555
C8 C7 1_555 1_555
H6 C8 1_555 1_555
C9 H7 1_555 1_555
C10 C11 1_555 1_555
C11 H8 1_555 1_555
C12 C11 1_555 1_555
H9 C12 1_555 1_555
C13 C12 1_555 1_555
C14 C13 1_555 1_555
H10 C14 1_555 1_555
C15 C10 1_555 1_555
H11 C15 1_555 1_555
C16 H12 1_555 1_555
C17 C16 1_555 1_555
H13 C17 1_555 1_555
C18 H14 1_555 1_555
C19 C20 1_555 1_555
C20 H15 1_555 1_555
C21 C20 1_555 1_555
H16 C21 1_555 1_555
C22 C21 1_555 1_555
C23 C22 1_555 1_555
H17 C23 1_555 1_555
C24 C19 1_555 1_555
H18 C24 1_555 1_555
C25 H19 1_555 1_555
C26 H20 1_555 1_555
C27 C26 1_555 1_555
H21 C27 1_555 1_555
C28 C29 1_555 1_555
C29 H22 1_555 1_555
C30 C29 1_555 1_555
C31 C30 1_555 1_555
H23 C31 1_555 1_555
C32 C31 1_555 1_555
C33 C28 1_555 1_555
H24 C33 1_555 1_555
C34 C28 1_555 1_555
C35 C30 1_555 1_555
C36 H25 1_555 1_555
H26 C36 1_555 1_555
H27 C36 1_555 1_555
N1 C1 1_555 1_555
N2 C4 1_555 1_555
N3 C8 1_555 1_555
N4 C13 1_555 1_555
N5 C17 1_555 1_555
N6 C22 1_555 1_555
N7 C25 1_555 1_555
N8 C32 1_555 1_555
O1 Cd1 1_555 1_555
O2 Cd1 1_555 1_555
O3 C34 1_555 1_555
O4 C34 1_555 1_555
O5 C36 1_555 1_555
H28 N8 1_555 1_555
H29 N8 1_555 1_555
Cd1_2 N5 1_555 1_555
Cd1C N7 1_555 1_555
Cd1_3 O4 1_555 1_555
N5_2 Cd1 1_555 1_555
N7C Cd1 1_555 1_555
O4_2 Cd1 1_555 1_555
C5 C6 1_555 1_555
C7 N2 1_555 1_555
C9 N2 1_555 1_555
C9 N3 1_555 1_555
C10 N1 1_555 1_555
C14 C15 1_555 1_555
C16 N4 1_555 1_555
C18 N4 1_555 1_555
C18 N5 1_555 1_555
C19 N1 1_555 1_555
C23 C24 1_555 1_555
C25 N6 1_555 1_555
C26 N6 1_555 1_555
C27 N7 1_555 1_555
C32 C33 1_555 1_555
C35 O1 1_555 1_555
C35 O2 1_555 1_555

#END
