
#######################################################################
#
#                 Cambridge Crystallographic Data Centre
#                                CCDC 
#
#######################################################################
#
# If this CIF has been generated from an entry in the Cambridge 
# Structural Database, then it will include bibliographic, chemical, 
# crystal, experimental, refinement or atomic coordinate data resulting 
# from the CCDC's data processing and validation procedures.
#
#######################################################################

data_AWATEX
_symmetry_cell_setting           monoclinic
_symmetry_space_group_name_H-M   'P 21/c'
_symmetry_Int_Tables_number      14
_space_group_name_Hall           '-P 2ybc'
loop_
_symmetry_equiv_pos_site_id
_symmetry_equiv_pos_as_xyz
1 x,y,z
2 x,1/2-y,1/2+z
3 -x,-y,-z
4 -x,1/2+y,1/2-z
_cell_length_a                   12.181(2)
_cell_length_b                   7.9392(16)
_cell_length_c                   14.835(3)
_cell_angle_alpha                90
_cell_angle_beta                 94.25(3)
_cell_angle_gamma                90
_cell_volume                     1430.71
loop_
_atom_site_label
_atom_site_type_symbol
_atom_site_fract_x
_atom_site_fract_y
_atom_site_fract_z
Ni1 Ni 0.5000 0.0000 0.5000
N1 N 0.1555(2) -0.4370(3) 0.19271(17)
N2 N 0.5169(2) -0.1000(4) 0.36652(18)
H1 H 0.5246 0.0068 0.3594
H2 H 0.5642 -0.1551 0.4009
O1 O 0.23926(19) -0.6952(3) 0.16937(18)
O3 O 0.0237(2) -0.2243(3) 0.18570(18)
O4 O -0.33374(18) -0.5230(3) 0.01071(15)
O5 O -0.31459(19) -0.7926(3) -0.02495(16)
O6 O 0.4742(2) 0.2284(3) 0.43452(16)
C1 C 0.0496(2) -0.6442(4) 0.1219(2)
C2 C -0.0153(2) -0.5026(4) 0.12349(19)
C3 C -0.1215(3) -0.5007(4) 0.08691(19)
H3 H -0.1645 -0.4039 0.0877
C4 C -0.1628(2) -0.6494(4) 0.0486(2)
C5 C -0.0975(3) -0.7946(4) 0.0493(2)
H4 H -0.1270 -0.8940 0.0247
C6 C 0.0098(3) -0.7923(4) 0.0861(2)
H5 H 0.0535 -0.8883 0.0865
C7 C 0.1591(3) -0.6042(4) 0.1632(2)
C8 C 0.0505(3) -0.3662(4) 0.1697(2)
C9 C -0.2795(2) -0.6567(4) 0.0080(2)
C10 C 0.2462(3) -0.3497(4) 0.2376(2)
C11 C 0.3203(3) -0.4385(4) 0.2948(2)
H6 H 0.3094 -0.5523 0.3059
C12 C 0.4105(3) -0.3557(4) 0.3349(2)
H7 H 0.4619 -0.4155 0.3717
C13 C 0.4260(3) -0.1854(4) 0.3215(2)
C14 C 0.3504(3) -0.0976(4) 0.2667(2)
H8 H 0.3589 0.0176 0.2583
C15 C 0.2616(3) -0.1810(4) 0.2239(2)
H9 H 0.2118 -0.1218 0.1854
N1B N 0.8445(2) 0.4370(3) 0.80729(17)
N2B N 0.4831(2) 0.1000(4) 0.63348(18)
H1B H 0.4754 -0.0068 0.6406
H2B H 0.4358 0.1551 0.5991
O1B O 0.76074(19) 0.6952(3) 0.83063(18)
O3B O 0.9763(2) 0.2243(3) 0.81430(18)
O4B O 1.33374(18) 0.5230(3) 0.98929(15)
O5B O 1.31459(19) 0.7926(3) 1.02495(16)
C1B C 0.9504(2) 0.6442(4) 0.8781(2)
C2B C 1.0153(2) 0.5026(4) 0.87651(19)
C3B C 1.1215(3) 0.5007(4) 0.91309(19)
H3B H 1.1645 0.4039 0.9123
C4B C 1.1628(2) 0.6494(4) 0.9514(2)
C5B C 1.0975(3) 0.7946(4) 0.9507(2)
H4B H 1.1270 0.8940 0.9753
C6B C 0.9902(3) 0.7923(4) 0.9139(2)
H5B H 0.9465 0.8883 0.9135
C7B C 0.8409(3) 0.6042(4) 0.8368(2)
C8B C 0.9495(3) 0.3662(4) 0.8303(2)
C9B C 1.2795(2) 0.6567(4) 0.9920(2)
C10B C 0.7538(3) 0.3497(4) 0.7624(2)
C11B C 0.6797(3) 0.4385(4) 0.7052(2)
H6B H 0.6906 0.5523 0.6941
C12B C 0.5895(3) 0.3557(4) 0.6651(2)
H7B H 0.5381 0.4155 0.6283
C13B C 0.5740(3) 0.1854(4) 0.6785(2)
C14B C 0.6496(3) 0.0976(4) 0.7333(2)
H8B H 0.6411 -0.0176 0.7417
C15B C 0.7384(3) 0.1810(4) 0.7761(2)
H9B H 0.7882 0.1218 0.8146
O6B O 0.5258(2) -0.2284(3) 0.56548(16)
O4A O 0.66626(18) 0.0230(3) 0.51071(15)
O4C O 0.33374(18) -0.0230(3) 0.48929(15)
Ni1A Ni -0.5000 -0.5000 0.0000
Ni1A_2 Ni 1.5000 0.5000 1.0000
O2 O 0.3049(3) 0.3742(4) 0.5109(2)
loop_
_geom_bond_atom_site_label_1
_geom_bond_atom_site_label_2
_geom_bond_site_symmetry_1
_geom_bond_site_symmetry_2
Ni1 N2 1_555 1_555
N1 C7 1_555 1_555
N2 H1 1_555 1_555
H2 N2 1_555 1_555
O1 C7 1_555 1_555
O3 C8 1_555 1_555
O4 C9 1_555 1_555
O5 C9 1_555 1_555
O6 Ni1 1_555 1_555
C1 C2 1_555 1_555
C2 C3 1_555 1_555
C3 H3 1_555 1_555
C4 C3 1_555 1_555
C5 C4 1_555 1_555
H4 C5 1_555 1_555
C6 C1 1_555 1_555
H5 C6 1_555 1_555
C7 C1 1_555 1_555
C8 N1 1_555 1_555
C9 C4 1_555 1_555
C10 N1 1_555 1_555
C11 C10 1_555 1_555
H6 C11 1_555 1_555
C12 C11 1_555 1_555
H7 C12 1_555 1_555
C13 N2 1_555 1_555
C14 C13 1_555 1_555
H8 C14 1_555 1_555
C15 C10 1_555 1_555
H9 C15 1_555 1_555
N1B C7B 1_555 1_555
N2B Ni1 1_555 1_555
H1B N2B 1_555 1_555
H2B N2B 1_555 1_555
O1B C7B 1_555 1_555
O3B C8B 1_555 1_555
O4B C9B 1_555 1_555
O5B C9B 1_555 1_555
C1B C2B 1_555 1_555
C2B C3B 1_555 1_555
C3B H3B 1_555 1_555
C4B C3B 1_555 1_555
C5B C4B 1_555 1_555
H4B C5B 1_555 1_555
C6B C1B 1_555 1_555
H5B C6B 1_555 1_555
C7B C1B 1_555 1_555
C8B N1B 1_555 1_555
C9B C4B 1_555 1_555
C10B N1B 1_555 1_555
C11B C10B 1_555 1_555
H6B C11B 1_555 1_555
C12B C11B 1_555 1_555
H7B C12B 1_555 1_555
C13B N2B 1_555 1_555
C14B C13B 1_555 1_555
H8B C14B 1_555 1_555
C15B C10B 1_555 1_555
H9B C15B 1_555 1_555
O6B Ni1 1_555 1_555
O4A Ni1 1_555 1_555
O4C Ni1 1_555 1_555
Ni1A O4 1_555 1_555
Ni1A_2 O4B 1_555 1_555
C2 C8 1_555 1_555
C5 C6 1_555 1_555
C12 C13 1_555 1_555
C14 C15 1_555 1_555
C2B C8B 1_555 1_555
C5B C6B 1_555 1_555
C12B C13B 1_555 1_555
C14B C15B 1_555 1_555

#END
