
#######################################################################
#
#                 Cambridge Crystallographic Data Centre
#                                CCDC 
#
#######################################################################
#
# If this CIF has been generated from an entry in the Cambridge 
# Structural Database, then it will include bibliographic, chemical, 
# crystal, experimental, refinement or atomic coordinate data resulting 
# from the CCDC's data processing and validation procedures.
#
#######################################################################

data_AWAWIF
_symmetry_cell_setting           monoclinic
_symmetry_space_group_name_H-M   'C 2/m'
_symmetry_Int_Tables_number      12
_space_group_name_Hall           '-C 2y'
loop_
_symmetry_equiv_pos_site_id
_symmetry_equiv_pos_as_xyz
1 x,y,z
2 -x,y,-z
3 1/2+x,1/2+y,z
4 1/2-x,1/2+y,-z
5 -x,-y,-z
6 x,-y,z
7 1/2-x,1/2-y,-z
8 1/2+x,1/2-y,z
_cell_length_a                   10.2182(14)
_cell_length_b                   10.3764(13)
_cell_length_c                   7.2801(9)
_cell_angle_alpha                90
_cell_angle_beta                 117.656(9)
_cell_angle_gamma                90
_cell_volume                     683.707
loop_
_atom_site_label
_atom_site_type_symbol
_atom_site_fract_x
_atom_site_fract_y
_atom_site_fract_z
Zn1 Zn 0.0000 0.5000 0.0000
N1 N 0.1033(9) 0.5000 0.3186(13)
C1 C 0.2008(8) 0.5000 0.4862(15)
Se1 Se 0.35966(12) 0.5000 0.73283(18)
N2 N 0.1560(5) 0.3459(4) 0.0068(9)
C2 C 0.2892(7) 0.3245(7) 0.1645(11)
H1 H 0.3209 0.3747 0.2833
C3 C 0.3821(8) 0.2297(7) 0.1569(11)
H2 H 0.4745 0.2187 0.2708
Zn1B Zn 0.5000 0.0000 0.0000
Zn1B_2 Zn 0.5000 1.0000 0.0000
N1A N -0.1033(9) 0.5000 -0.3186(13)
C1A C -0.2008(8) 0.5000 -0.4862(15)
Se1A Se -0.35966(12) 0.5000 -0.73283(18)
N2F N 0.3440(5) 0.1541(4) -0.0068(9)
N2E N 0.1560(5) 0.6541(4) 0.0068(9)
N2C N 0.3440(5) 0.8459(4) -0.0068(9)
N2D N -0.1560(5) 0.6541(4) -0.0068(9)
N2A N -0.1560(5) 0.3459(4) -0.0068(9)
C2F C 0.2108(7) 0.1755(7) -0.1645(11)
C2E C 0.2892(7) 0.6755(7) 0.1645(11)
C2C C 0.2108(7) 0.8245(7) -0.1645(11)
H1F H 0.1791 0.1253 -0.2833
H1E H 0.3209 0.6253 0.2833
H1C H 0.1791 0.8747 -0.2833
C3F C 0.1179(8) 0.2703(7) -0.1569(11)
C3E C 0.3821(8) 0.7703(7) 0.1569(11)
C3C C 0.1179(8) 0.7297(7) -0.1569(11)
H2F H 0.0255 0.2813 -0.2708
H2E H 0.4745 0.7813 0.2708
H2C H 0.0255 0.7187 -0.2708
loop_
_geom_bond_atom_site_label_1
_geom_bond_atom_site_label_2
_geom_bond_site_symmetry_1
_geom_bond_site_symmetry_2
Zn1 N1 1_555 1_555
N1 C1 1_555 1_555
C1 Se1 1_555 1_555
N2 Zn1 1_555 1_555
C2 N2 1_555 1_555
H1 C2 1_555 1_555
C3 C2 1_555 1_555
H2 C3 1_555 1_555
Zn1B N2F 1_555 1_555
Zn1B_2 N2C 1_555 1_555
N1A Zn1 1_555 1_555
C1A N1A 1_555 1_555
Se1A C1A 1_555 1_555
N2F C3 1_555 1_555
N2E Zn1 1_555 1_555
N2C C2C 1_555 1_555
N2D Zn1 1_555 1_555
N2A Zn1 1_555 1_555
C2F N2F 1_555 1_555
C2E N2E 1_555 1_555
C2C H1C 1_555 1_555
H1F C2F 1_555 1_555
H1E C2E 1_555 1_555
C3F N2 1_555 1_555
C3E N2C 1_555 1_555
C3C N2E 1_555 1_555
H2F C3F 1_555 1_555
H2E C3E 1_555 1_555
H2C C3C 1_555 1_555
C2F C3F 1_555 1_555
C2E C3E 1_555 1_555
C2C C3C 1_555 1_555

#END
