
#######################################################################
#
#                 Cambridge Crystallographic Data Centre
#                                CCDC 
#
#######################################################################
#
# If this CIF has been generated from an entry in the Cambridge 
# Structural Database, then it will include bibliographic, chemical, 
# crystal, experimental, refinement or atomic coordinate data resulting 
# from the CCDC's data processing and validation procedures.
#
#######################################################################

data_AWAWEB
_symmetry_cell_setting           monoclinic
_symmetry_space_group_name_H-M   'C 2/m'
_symmetry_Int_Tables_number      12
_space_group_name_Hall           '-C 2y'
loop_
_symmetry_equiv_pos_site_id
_symmetry_equiv_pos_as_xyz
1 x,y,z
2 -x,y,-z
3 1/2+x,1/2+y,z
4 1/2-x,1/2+y,-z
5 -x,-y,-z
6 x,-y,z
7 1/2-x,1/2-y,-z
8 1/2+x,1/2-y,z
_cell_length_a                   10.7637(8)
_cell_length_b                   10.5775(5)
_cell_length_c                   7.2123(5)
_cell_angle_alpha                90
_cell_angle_beta                 119.285(5)
_cell_angle_gamma                90
_cell_volume                     716.198
loop_
_atom_site_label
_atom_site_type_symbol
_atom_site_fract_x
_atom_site_fract_y
_atom_site_fract_z
Cd1 Cd 0.0000 0.5000 0.0000
N1 N 0.1151(3) 0.5000 0.3584(5)
C1 C 0.2194(4) 0.5000 0.5150(5)
S1 S 0.36893(14) 0.5000 0.7365(2)
N2 N 0.15956(18) 0.65901(17) 0.0062(3)
C2 C 0.2856(3) 0.6824(4) 0.1716(5)
H1 H 0.3149 0.6362 0.2958
C3 C 0.1251(3) 0.7263(3) -0.1648(5)
H2 H 0.0377 0.7120 -0.2855
Cd1B Cd 0.5000 0.0000 0.0000
Cd1B_2 Cd 0.5000 1.0000 0.0000
N1A N -0.1151(3) 0.5000 -0.3584(5)
C1A C -0.2194(4) 0.5000 -0.5150(5)
S1A S -0.36893(14) 0.5000 -0.7365(2)
N2F N 0.34044(18) 0.84099(17) -0.0062(3)
N2E N 0.15956(18) 0.34099(17) 0.0062(3)
N2C N 0.34044(18) 0.15901(17) -0.0062(3)
N2D N -0.15956(18) 0.34099(17) -0.0062(3)
N2A N -0.15956(18) 0.65901(17) -0.0062(3)
C2F C 0.2144(3) 0.8176(4) -0.1716(5)
C2E C 0.2856(3) 0.3176(4) 0.1716(5)
C2C C 0.2144(3) 0.1824(4) -0.1716(5)
H1F H 0.1851 0.8638 -0.2958
H1E H 0.3149 0.3638 0.2958
H1C H 0.1851 0.1362 -0.2958
C3F C 0.3749(3) 0.7737(3) 0.1648(5)
C3E C 0.1251(3) 0.2737(3) -0.1648(5)
C3C C 0.3749(3) 0.2263(3) 0.1648(5)
H2F H 0.4623 0.7880 0.2855
H2E H 0.0377 0.2880 -0.2855
H2C H 0.4623 0.2120 0.2855
loop_
_geom_bond_atom_site_label_1
_geom_bond_atom_site_label_2
_geom_bond_site_symmetry_1
_geom_bond_site_symmetry_2
Cd1 N1 1_555 1_555
N1 C1 1_555 1_555
C1 S1 1_555 1_555
N2 Cd1 1_555 1_555
C2 N2 1_555 1_555
H1 C2 1_555 1_555
C3 N2 1_555 1_555
H2 C3 1_555 1_555
Cd1B N2C 1_555 1_555
Cd1B_2 N2F 1_555 1_555
N1A Cd1 1_555 1_555
C1A N1A 1_555 1_555
S1A C1A 1_555 1_555
N2F C2F 1_555 1_555
N2E Cd1 1_555 1_555
N2C C2C 1_555 1_555
N2D Cd1 1_555 1_555
N2A Cd1 1_555 1_555
C2F C3 1_555 1_555
C2E N2E 1_555 1_555
C2C H1C 1_555 1_555
H1F C2F 1_555 1_555
H1E C2E 1_555 1_555
C3F C2 1_555 1_555
C3E N2E 1_555 1_555
C3C N2C 1_555 1_555
H2F C3F 1_555 1_555
H2E C3E 1_555 1_555
H2C C3C 1_555 1_555
N2F C3F 1_555 1_555
C2E C3C 1_555 1_555
C2C C3E 1_555 1_555

#END
