
#######################################################################
#
#                 Cambridge Crystallographic Data Centre
#                                CCDC 
#
#######################################################################
#
# If this CIF has been generated from an entry in the Cambridge 
# Structural Database, then it will include bibliographic, chemical, 
# crystal, experimental, refinement or atomic coordinate data resulting 
# from the CCDC's data processing and validation procedures.
#
#######################################################################

data_AWAWOL
_symmetry_cell_setting           monoclinic
_symmetry_space_group_name_H-M   'C 2/m'
_symmetry_Int_Tables_number      12
_space_group_name_Hall           '-C 2y'
loop_
_symmetry_equiv_pos_site_id
_symmetry_equiv_pos_as_xyz
1 x,y,z
2 -x,y,-z
3 1/2+x,1/2+y,z
4 1/2-x,1/2+y,-z
5 -x,-y,-z
6 x,-y,z
7 1/2-x,1/2-y,-z
8 1/2+x,1/2-y,z
_cell_length_a                   10.7092(2)
_cell_length_b                   10.6191(2)
_cell_length_c                   7.22013(14)
_cell_angle_alpha                90
_cell_angle_beta                 117.4281(11)
_cell_angle_gamma                90
_cell_volume                     728.789
loop_
_atom_site_label
_atom_site_type_symbol
_atom_site_fract_x
_atom_site_fract_y
_atom_site_fract_z
Cd1 Cd 0.00000 0.50000 0.00000
N1 N 0.1204(4) 0.50000 0.3700(6)
C1 C 0.2247(4) 0.50000 0.5266(6)
Se1 Se 0.3743(4) 0.50000 0.7480(6)
N2 N 0.1625(10) 0.6547(7) 0.0121(19)
C2 C 0.2885(10) 0.6781(7) 0.1775(19)
C3 C 0.1281(10) 0.7220(7) -0.1589(19)
Cd1B Cd 0.50000 0.00000 0.00000
Cd1B_2 Cd 0.50000 1.00000 0.00000
N1A N -0.1204(4) 0.50000 -0.3700(6)
C1A C -0.2247(4) 0.50000 -0.5266(6)
Se1A Se -0.3743(4) 0.50000 -0.7480(6)
N2F N 0.3375(10) 0.8453(7) -0.0121(19)
N2E N 0.1625(10) 0.3453(7) 0.0121(19)
N2C N 0.3375(10) 0.1547(7) -0.0121(19)
N2D N -0.1625(10) 0.3453(7) -0.0121(19)
N2A N -0.1625(10) 0.6547(7) -0.0121(19)
C2F C 0.2115(10) 0.8219(7) -0.1775(19)
C2E C 0.2885(10) 0.3219(7) 0.1775(19)
C2C C 0.2115(10) 0.1781(7) -0.1775(19)
C3F C 0.3719(10) 0.7780(7) 0.1589(19)
C3E C 0.1281(10) 0.2780(7) -0.1589(19)
C3C C 0.3719(10) 0.2220(7) 0.1589(19)
loop_
_geom_bond_atom_site_label_1
_geom_bond_atom_site_label_2
_geom_bond_site_symmetry_1
_geom_bond_site_symmetry_2
Cd1 N1 1_555 1_555
N1 C1 1_555 1_555
C1 Se1 1_555 1_555
N2 Cd1 1_555 1_555
C2 N2 1_555 1_555
C3 N2 1_555 1_555
Cd1B N2C 1_555 1_555
Cd1B_2 N2F 1_555 1_555
N1A Cd1 1_555 1_555
C1A N1A 1_555 1_555
Se1A C1A 1_555 1_555
N2F C2F 1_555 1_555
N2E Cd1 1_555 1_555
N2C C2C 1_555 1_555
N2D Cd1 1_555 1_555
N2A Cd1 1_555 1_555
C2F C3 1_555 1_555
C2E N2E 1_555 1_555
C2C C3E 1_555 1_555
C3F C2 1_555 1_555
C3E N2E 1_555 1_555
C3C N2C 1_555 1_555
N2F C3F 1_555 1_555
C2E C3C 1_555 1_555

#END
