
#######################################################################
#
#                 Cambridge Crystallographic Data Centre
#                                CCDC 
#
#######################################################################
#
# If this CIF has been generated from an entry in the Cambridge 
# Structural Database, then it will include bibliographic, chemical, 
# crystal, experimental, refinement or atomic coordinate data resulting 
# from the CCDC's data processing and validation procedures.
#
#######################################################################

data_AWAXUR
_symmetry_cell_setting           orthorhombic
_symmetry_space_group_name_H-M   'P b c a'
_symmetry_Int_Tables_number      61
_space_group_name_Hall           '-P 2ac 2ab'
loop_
_symmetry_equiv_pos_site_id
_symmetry_equiv_pos_as_xyz
1 x,y,z
2 1/2+x,y,1/2-z
3 1/2-x,1/2+y,z
4 x,1/2-y,1/2+z
5 -x,-y,-z
6 1/2-x,-y,1/2+z
7 1/2+x,1/2-y,-z
8 -x,1/2+y,1/2-z
_cell_length_a                   7.141(4)
_cell_length_b                   14.509(3)
_cell_length_c                   18.983(2)
_cell_angle_alpha                90
_cell_angle_beta                 90
_cell_angle_gamma                90
_cell_volume                     1966.81
loop_
_atom_site_label
_atom_site_type_symbol
_atom_site_fract_x
_atom_site_fract_y
_atom_site_fract_z
Cu1 Cu 0.15981(7) 0.25914(3) 0.13046(2)
O1 O 0.0256(5) 0.2097(3) 0.04700(17)
H1 H -0.091(5) 0.176(3) 0.057(3)
H2 H -0.015(7) 0.256(3) 0.013(3)
O2 O 0.2100(5) 0.3839(2) 0.08923(17)
H3 H 0.163(8) 0.432(3) 0.120(2)
H4 H 0.178(7) 0.404(4) 0.0422(12)
O3 O 0.2484(4) 0.3097(2) 0.22130(13)
O4 O 0.2617(4) 0.2830(2) 0.33715(14)
O5 O -0.0739(4) 0.1902(2) 0.41368(14)
O6 O 0.1691(4) 0.0961(2) 0.43270(14)
N1 N 0.0968(4) 0.1495(2) 0.19525(15)
N2 N -0.0122(4) 0.0276(2) 0.30056(16)
C1 C 0.0297(5) 0.0659(3) 0.17931(19)
H5 H 0.0176 0.0486 0.1324
C2 C -0.0223(5) 0.0047(3) 0.2322(2)
H6 H -0.0651 -0.0537 0.2199
C3 C 0.0548(5) 0.1114(3) 0.31646(17)
C4 C 0.1171(5) 0.1720(3) 0.26400(18)
C5 C 0.0512(5) 0.1357(3) 0.39443(19)
C6 C 0.2147(5) 0.2629(3) 0.2767(2)
O5A O 0.4261(4) 0.1902(2) 0.08632(14)
Cu1A Cu -0.34019(7) 0.25914(3) 0.36954(2)
O7 O 0.1572(5) 0.4208(2) 0.43298(18)
H7 H 0.195(8) 0.379(3) 0.400(2)
H8 H 0.237(6) 0.471(2) 0.437(3)
loop_
_geom_bond_atom_site_label_1
_geom_bond_atom_site_label_2
_geom_bond_site_symmetry_1
_geom_bond_site_symmetry_2
Cu1 O1 1_555 1_555
O1 H1 1_555 1_555
H2 O1 1_555 1_555
O2 Cu1 1_555 1_555
H3 O2 1_555 1_555
H4 O2 1_555 1_555
O3 Cu1 1_555 1_555
O4 C6 1_555 1_555
O5 C5 1_555 1_555
O6 C5 1_555 1_555
N1 Cu1 1_555 1_555
N2 C2 1_555 1_555
C1 N1 1_555 1_555
H5 C1 1_555 1_555
C2 C1 1_555 1_555
H6 C2 1_555 1_555
C3 N2 1_555 1_555
C4 N1 1_555 1_555
C5 C3 1_555 1_555
C6 O3 1_555 1_555
O7 H7 1_555 1_555
H8 O7 1_555 1_555
O5A Cu1 1_555 1_555
Cu1A O5 1_555 1_555
C3 C4 1_555 1_555
C4 C6 1_555 1_555

#END
