
#######################################################################
#
#                 Cambridge Crystallographic Data Centre
#                                CCDC 
#
#######################################################################
#
# If this CIF has been generated from an entry in the Cambridge 
# Structural Database, then it will include bibliographic, chemical, 
# crystal, experimental, refinement or atomic coordinate data resulting 
# from the CCDC's data processing and validation procedures.
#
#######################################################################

data_AWAYEC
_symmetry_cell_setting           monoclinic
_symmetry_space_group_name_H-M   'P 21/n'
_symmetry_Int_Tables_number      14
_space_group_name_Hall           '-P 2yn'
loop_
_symmetry_equiv_pos_site_id
_symmetry_equiv_pos_as_xyz
1 x,y,z
2 1/2+x,1/2-y,1/2+z
3 -x,-y,-z
4 1/2-x,1/2+y,1/2-z
_cell_length_a                   11.9794(9)
_cell_length_b                   12.2447(9)
_cell_length_c                   14.0287(10)
_cell_angle_alpha                90
_cell_angle_beta                 99.5910(10)
_cell_angle_gamma                90
_cell_volume                     2029.02
loop_
_atom_site_label
_atom_site_type_symbol
_atom_site_fract_x
_atom_site_fract_y
_atom_site_fract_z
N1 N 0.17383(15) 0.25786(15) 0.13556(13)
N2 N 0.41655(15) 0.27776(15) 0.17724(14)
N3 N 0.28913(15) 0.37594(15) 0.06177(13)
N4 N 0.03337(15) 0.24829(15) 0.22927(13)
C1 C 0.06211(18) 0.22472(18) 0.14381(16)
C2 C 0.39025(18) 0.36282(19) 0.12665(15)
C3 C 0.18715(18) 0.32888(19) 0.06969(15)
C4 C 0.1686(3) 0.4792(2) -0.0606(2)
H1 H 0.1542 0.4835 -0.1306
H2 H 0.1551 0.5504 -0.0345
C5 C 0.2875(2) 0.4434(3) -0.02543(19)
H3 H 0.3154 0.4014 -0.0752
H4 H 0.336 0.5066 -0.0103
S1 S 0.48587(6) 0.47299(6) 0.14095(6)
C6 C 0.5239(2) 0.2914(2) 0.24444(18)
H5 H 0.5691 0.2256 0.2447
H6 H 0.5086 0.3029 0.3094
C7 C -0.0712(2) 0.2216(2) 0.24511(19)
H7 H -0.0923 0.2409 0.3037
C8 C -0.0095(2) 0.1669(2) 0.07361(18)
H8 H 0.0133 0.1478 0.0156
C9 C -0.1470(2) 0.1675(2) 0.1783(2)
H9 H -0.2188 0.1506 0.1908
C10 C -0.1151(2) 0.1383(2) 0.0917(2)
H10 H -0.1647 0.0996 0.0459
C11 C 0.5885(2) 0.3874(3) 0.2144(2)
H11 H 0.6457 0.363 0.1777
H12 H 0.6255 0.4271 0.2707
Cd1 Cd 0.317066(13) 0.119230(14) 0.168725(12)
Cd2 Cd 0.50000 0.00000 0.00000
Cd3 Cd 0.672020(14) 0.192930(15) -0.154740(12)
Cl1 Cl 0.29982(5) 0.14122(5) 0.35288(4)
Cl2 Cl 0.49936(5) 0.00181(5) 0.18913(4)
Cl3 Cl 0.59636(5) 0.20140(5) -0.00110(4)
Cl4 Cl 0.18580(5) -0.04813(5) 0.16028(5)
Cl5 Cl 0.30818(5) 0.10186(5) -0.02299(4)
S2 S 0.07842(6) 0.37758(6) -0.01888(5)
Cl2B Cl 0.50064(5) -0.00181(5) -0.18913(4)
Cl3B Cl 0.40364(5) -0.20140(5) 0.00110(4)
Cl5B Cl 0.69182(5) -0.10186(5) 0.02299(4)
Cd1B Cd 0.682934(13) -0.119230(14) -0.168725(12)
Cd3B Cd 0.327980(14) -0.192930(15) 0.154740(12)
N1A N 0.67383(15) 0.24214(15) -0.36444(13)
N2A N 0.91655(15) 0.22224(15) -0.32276(14)
N3A N 0.78913(15) 0.12406(15) -0.43823(13)
N4A N 0.53337(15) 0.25171(15) -0.27073(13)
C1A C 0.56211(18) 0.27528(18) -0.35619(16)
C2A C 0.89025(18) 0.13718(19) -0.37335(15)
C3A C 0.68715(18) 0.17112(19) -0.43031(15)
C4A C 0.6686(3) 0.0208(2) -0.5606(2)
H1A H 0.6542 0.0165 -0.6306
H2A H 0.6551 -0.0504 -0.5345
C5A C 0.7875(2) 0.0566(3) -0.52543(19)
H3A H 0.8154 0.0986 -0.5752
H4A H 0.836 -0.0066 -0.5103
S1A S 0.98587(6) 0.02701(6) -0.35905(6)
C6A C 1.0239(2) 0.2086(2) -0.25556(18)
H5A H 1.0691 0.2744 -0.2553
H6A H 1.0086 0.1971 -0.1906
C7A C 0.4288(2) 0.2784(2) -0.25489(19)
H7A H 0.4077 0.2591 -0.1963
C8A C 0.4905(2) 0.3331(2) -0.42639(18)
H8A H 0.5133 0.3522 -0.4844
C9A C 0.3530(2) 0.3325(2) -0.3217(2)
H9A H 0.2812 0.3494 -0.3092
C10A C 0.3849(2) 0.3617(2) -0.4083(2)
H10A H 0.3353 0.4004 -0.4541
C11A C 1.0885(2) 0.1126(3) -0.2856(2)
H11A H 1.1457 0.137 -0.3223
H12A H 1.1255 0.0729 -0.2293
S2A S 0.57842(6) 0.12242(6) -0.51888(5)
Cl1A Cl 0.79982(5) 0.35878(5) -0.14712(4)
Cl4B Cl 0.81420(5) 0.04813(5) -0.16028(5)
Cd3A Cd 0.172020(14) 0.307070(15) 0.345260(12)
N1B N 0.82617(15) -0.25786(15) -0.13556(13)
N2B N 0.58345(15) -0.27776(15) -0.17724(14)
Cl1B Cl 0.70018(5) -0.14122(5) -0.35288(4)
N4C N 0.46663(15) -0.25171(15) 0.27073(13)
Cl1C Cl 0.20018(5) -0.35878(5) 0.14712(4)
Cd1A Cd 0.817066(13) 0.380770(14) -0.331275(12)
loop_
_geom_bond_atom_site_label_1
_geom_bond_atom_site_label_2
_geom_bond_site_symmetry_1
_geom_bond_site_symmetry_2
N1 C1 1_555 1_555
N2 C2 1_555 1_555
N3 C2 1_555 1_555
N4 C1 1_555 1_555
C1 C8 1_555 1_555
C2 S1 1_555 1_555
C3 N1 1_555 1_555
C4 H1 1_555 1_555
H2 C4 1_555 1_555
C5 N3 1_555 1_555
H3 C5 1_555 1_555
H4 C5 1_555 1_555
S1 C11 1_555 1_555
C6 N2 1_555 1_555
H5 C6 1_555 1_555
H6 C6 1_555 1_555
C7 N4 1_555 1_555
H7 C7 1_555 1_555
C8 H8 1_555 1_555
C9 C7 1_555 1_555
H9 C9 1_555 1_555
C10 C8 1_555 1_555
H10 C10 1_555 1_555
C11 C6 1_555 1_555
H11 C11 1_555 1_555
H12 C11 1_555 1_555
Cd1 N1 1_555 1_555
Cd2 Cl2 1_555 1_555
Cd3 Cl3 1_555 1_555
Cl1 Cd1 1_555 1_555
Cl2 Cd1 1_555 1_555
Cl3 Cd2 1_555 1_555
Cl4 Cd1 1_555 1_555
Cl5 Cd1 1_555 1_555
S2 C3 1_555 1_555
Cl2B Cd2 1_555 1_555
Cl3B Cd2 1_555 1_555
Cl5B Cd2 1_555 1_555
Cd1B Cl2B 1_555 1_555
Cd3B Cl4 1_555 1_555
N1A C1A 1_555 1_555
N2A C2A 1_555 1_555
N3A C2A 1_555 1_555
N4A Cd3 1_555 1_555
C1A N4A 1_555 1_555
C2A S1A 1_555 1_555
C3A N1A 1_555 1_555
C4A H1A 1_555 1_555
H2A C4A 1_555 1_555
C5A N3A 1_555 1_555
H3A C5A 1_555 1_555
H4A C5A 1_555 1_555
S1A C11A 1_555 1_555
C6A N2A 1_555 1_555
H5A C6A 1_555 1_555
H6A C6A 1_555 1_555
C7A N4A 1_555 1_555
H7A C7A 1_555 1_555
C8A C1A 1_555 1_555
H8A C8A 1_555 1_555
C9A C7A 1_555 1_555
H9A C9A 1_555 1_555
C10A C8A 1_555 1_555
H10A C10A 1_555 1_555
C11A C6A 1_555 1_555
H11A C11A 1_555 1_555
H12A C11A 1_555 1_555
S2A C3A 1_555 1_555
Cl1A Cd3 1_555 1_555
Cl4B Cd3 1_555 1_555
Cd3A N4 1_555 1_555
N1B Cd1B 1_555 1_555
N2B Cd1B 1_555 1_555
Cl1B Cd1B 1_555 1_555
N4C Cd3B 1_555 1_555
Cl1C Cd3B 1_555 1_555
Cd1A N1A 1_555 1_555
N2 Cd1 1_555 1_555
N3 C3 1_555 1_555
C4 C5 1_555 1_555
C4 S2 1_555 1_555
C9 C10 1_555 1_555
Cd2 Cl5 1_555 1_555
Cl1 Cd3A 1_555 1_555
Cl3B Cd3B 1_555 1_555
Cl5B Cd1B 1_555 1_555
Cd1B Cl4B 1_555 1_555
N2A Cd1A 1_555 1_555
N3A C3A 1_555 1_555
C4A C5A 1_555 1_555
C4A S2A 1_555 1_555
C9A C10A 1_555 1_555
Cl1A Cd1A 1_555 1_555

#END
