
#######################################################################
#
#                 Cambridge Crystallographic Data Centre
#                                CCDC 
#
#######################################################################
#
# If this CIF has been generated from an entry in the Cambridge 
# Structural Database, then it will include bibliographic, chemical, 
# crystal, experimental, refinement or atomic coordinate data resulting 
# from the CCDC's data processing and validation procedures.
#
#######################################################################

data_AWAYUS
_symmetry_cell_setting           monoclinic
_symmetry_space_group_name_H-M   'P 2/c'
_symmetry_Int_Tables_number      13
_space_group_name_Hall           '-P 2yc'
loop_
_symmetry_equiv_pos_site_id
_symmetry_equiv_pos_as_xyz
1 x,y,z
2 x,-y,1/2+z
3 -x,-y,-z
4 -x,y,1/2-z
_cell_length_a                   9.6083(19)
_cell_length_b                   9.5196(19)
_cell_length_c                   14.927(3)
_cell_angle_alpha                90
_cell_angle_beta                 99.58(3)
_cell_angle_gamma                90
_cell_volume                     1346.29
loop_
_atom_site_label
_atom_site_type_symbol
_atom_site_fract_x
_atom_site_fract_y
_atom_site_fract_z
V1 V 0.67736(13) 0.79665(14) 0.23013(8)
Ti1 Ti 0.77843(14) 0.87372(13) 0.01822(8)
V2 V 0.92803(13) 1.01881(13) 0.34211(8)
O1 O 0.7225(7) 1.0264(6) -0.0052(4)
O2 O 0.9550(7) 0.9020(7) 0.1059(4)
O3 O 0.7617(7) 0.6515(7) 0.2551(5)
O4 O 0.7694(6) 0.9366(7) 0.2985(4)
O5 O 0.5000 0.7795(10) 0.2500
O6 O 0.6783(6) 0.8406(7) 0.1221(4)
O7 O 1.0000 1.0984(9) 0.2500
O8 O 0.8936(6) 0.8592(6) -0.0853(4)
C1 C 0.9211(9) 0.5798(10) 0.0922(6)
H1 H 0.9823 0.6369 0.1312
C2 C 0.9385(10) 0.4360(10) 0.0964(7)
H2 H 1.0107 0.3962 0.1378
C3 C 0.8470(11) 0.3516(10) 0.0383(7)
H3 H 0.8586 0.2546 0.0391
C4 C 0.7385(10) 0.4129(9) -0.0209(7)
H4 H 0.6752 0.3575 -0.0596
C5 C 0.7248(8) 0.5569(8) -0.0222(5)
C6 C 0.6067(8) 0.6327(9) -0.0778(5)
C7 C 0.4963(10) 0.5660(10) -0.1330(6)
H5 H 0.4973 0.4688 -0.1392
C8 C 0.3841(10) 0.6430(12) -0.1790(6)
H6 H 0.3081 0.5992 -0.2150
C9 C 0.3896(10) 0.7875(11) -0.1692(6)
H7 H 0.3181 0.8432 -0.2004
C10 C 0.5014(9) 0.8484(11) -0.1130(6)
H8 H 0.5009 0.9454 -0.1056
N1 N 0.8165(7) 0.6393(7) 0.0324(4)
N2 N 0.6093(6) 0.7769(7) -0.0692(4)
V1C V 0.32264(13) 0.79665(14) 0.26987(8)
O2C O 1.0450(7) 0.9020(7) 0.3941(4)
O8A O 0.8936(6) 1.1408(6) 0.4147(4)
O3C O 0.2383(7) 0.6515(7) 0.2449(5)
O4C O 0.2306(6) 0.9366(7) 0.2015(4)
O6C O 0.3217(6) 0.8406(7) 0.3779(4)
Ti1C Ti 1.22157(14) 0.87372(13) 0.48178(8)
V2C V 1.07197(13) 1.01881(13) 0.15789(8)
O1C O 1.2775(7) 1.0264(6) 0.5052(4)
C1C C 1.0789(9) 0.5798(10) 0.4078(6)
H1C H 1.0177 0.6369 0.3688
C2C C 1.0615(10) 0.4360(10) 0.4036(7)
H2C H 0.9893 0.3962 0.3622
C3C C 1.1530(11) 0.3516(10) 0.4617(7)
H3C H 1.1414 0.2546 0.4609
C4C C 1.2615(10) 0.4129(9) 0.5209(7)
H4C H 1.3248 0.3575 0.5596
C5C C 1.2752(8) 0.5569(8) 0.5222(5)
C6C C 1.3933(8) 0.6327(9) 0.5778(5)
C7C C 1.5037(10) 0.5660(10) 0.6330(6)
H5C H 1.5027 0.4688 0.6392
C8C C 1.6159(10) 0.6430(12) 0.6790(6)
H6C H 1.6919 0.5992 0.7150
C9C C 1.6104(10) 0.7875(11) 0.6692(6)
H7C H 1.6819 0.8432 0.7004
C10C C 1.4986(9) 0.8484(11) 0.6130(6)
H8C H 1.4991 0.9454 0.6056
N1C N 1.1835(7) 0.6393(7) 0.4676(4)
N2C N 1.3907(6) 0.7769(7) 0.5692(4)
V2A V 0.92803(13) 0.98119(13) -0.15789(8)
Ti1A Ti 0.77843(14) 1.12628(13) 0.51822(8)
V2C_2 V 0.07197(13) 1.01881(13) 0.15789(8)
Ti1C_2 Ti 0.22157(14) 0.87372(13) 0.48178(8)
O6C_2 O 1.3217(6) 0.8406(7) 0.3779(4)
O8C O 1.1064(6) 0.8592(6) 0.5853(4)
O4C_2 O 1.2306(6) 0.9366(7) 0.2015(4)
O8B O 1.1064(6) 1.1408(6) 0.0853(4)
loop_
_geom_bond_atom_site_label_1
_geom_bond_atom_site_label_2
_geom_bond_site_symmetry_1
_geom_bond_site_symmetry_2
V1 O3 1_555 1_555
Ti1 O1 1_555 1_555
V2 O4 1_555 1_555
O2 Ti1 1_555 1_555
O4 V1 1_555 1_555
O5 V1 1_555 1_555
O6 V1 1_555 1_555
O7 V2 1_555 1_555
O8 Ti1 1_555 1_555
C1 H1 1_555 1_555
C2 C1 1_555 1_555
H2 C2 1_555 1_555
C3 C2 1_555 1_555
H3 C3 1_555 1_555
C4 C3 1_555 1_555
H4 C4 1_555 1_555
C5 C4 1_555 1_555
C6 C5 1_555 1_555
C7 C6 1_555 1_555
H5 C7 1_555 1_555
C8 C7 1_555 1_555
H6 C8 1_555 1_555
C9 C8 1_555 1_555
H7 C9 1_555 1_555
C10 C9 1_555 1_555
H8 C10 1_555 1_555
N1 Ti1 1_555 1_555
N2 Ti1 1_555 1_555
V1C O5 1_555 1_555
O2C V2 1_555 1_555
O8A V2 1_555 1_555
O3C V1C 1_555 1_555
O4C V1C 1_555 1_555
O6C V1C 1_555 1_555
Ti1C O2C 1_555 1_555
V2C O2 1_555 1_555
O1C Ti1C 1_555 1_555
C1C H1C 1_555 1_555
C2C C1C 1_555 1_555
H2C C2C 1_555 1_555
C3C C2C 1_555 1_555
H3C C3C 1_555 1_555
C4C C3C 1_555 1_555
H4C C4C 1_555 1_555
C5C C4C 1_555 1_555
C6C C5C 1_555 1_555
C7C C6C 1_555 1_555
H5C C7C 1_555 1_555
C8C C7C 1_555 1_555
H6C C8C 1_555 1_555
C9C C8C 1_555 1_555
H7C C9C 1_555 1_555
C10C C9C 1_555 1_555
H8C C10C 1_555 1_555
N1C Ti1C 1_555 1_555
N2C Ti1C 1_555 1_555
V2A O8 1_555 1_555
Ti1A O8A 1_555 1_555
V2C_2 O4C 1_555 1_555
Ti1C_2 O6C 1_555 1_555
O6C_2 Ti1C 1_555 1_555
O8C Ti1C 1_555 1_555
O4C_2 V2C 1_555 1_555
O8B V2C 1_555 1_555
Ti1 O6 1_555 1_555
O7 V2C 1_555 1_555
C1 N1 1_555 1_555
C5 N1 1_555 1_555
C6 N2 1_555 1_555
C10 N2 1_555 1_555
C1C N1C 1_555 1_555
C5C N1C 1_555 1_555
C6C N2C 1_555 1_555
C10C N2C 1_555 1_555

#END
