
#######################################################################
#
#                 Cambridge Crystallographic Data Centre
#                                CCDC 
#
#######################################################################
#
# If this CIF has been generated from an entry in the Cambridge 
# Structural Database, then it will include bibliographic, chemical, 
# crystal, experimental, refinement or atomic coordinate data resulting 
# from the CCDC's data processing and validation procedures.
#
#######################################################################

data_AWEBEK
_symmetry_cell_setting           triclinic
_symmetry_space_group_name_H-M   'P -1'
_symmetry_Int_Tables_number      2
_space_group_name_Hall           '-P 1'
loop_
_symmetry_equiv_pos_site_id
_symmetry_equiv_pos_as_xyz
1 x,y,z
2 -x,-y,-z
_cell_length_a                   10.8119(3)
_cell_length_b                   13.8031(3)
_cell_length_c                   15.1715(4)
_cell_angle_alpha                72.3740(10)
_cell_angle_beta                 86.5050(10)
_cell_angle_gamma                89.934(2)
_cell_volume                     2153.5
loop_
_atom_site_label
_atom_site_type_symbol
_atom_site_fract_x
_atom_site_fract_y
_atom_site_fract_z
O17 O -0.4638(7) 0.3488(7) 0.8075(5)
H34 H -0.3854 0.3411 0.8280
H35 H -0.4435 0.3442 0.7527
O18 O 0.334(2) 0.0230(17) 0.0786(13)
O19 O 0.390(2) 0.2011(16) -0.0514(13)
N13 N 0.1942(9) 0.3813(7) 0.3692(8)
H36 H 0.2045 0.3204 0.3955
H37 H 0.1433 0.3915 0.3244
C28 C 0.2983(10) 0.4420(8) 0.3272(8)
H38 H 0.2721 0.5036 0.2837
H39 H 0.3510 0.4057 0.2953
H40 H 0.3432 0.4581 0.3738
C29 C 0.1083(10) 0.4237(8) 0.4258(8)
H41 H 0.0900 0.4925 0.3918
H42 H 0.1456 0.4227 0.4819
H43 H 0.0331 0.3837 0.4408
U1 U 0.37425(3) 0.06885(2) 0.544325(19)
U2 U 0.40249(3) -0.84916(2) 1.284630(19)
O1 O 0.2561(6) -0.0223(5) 0.5436(4)
O2 O 0.4793(6) 0.1652(5) 0.5514(4)
O3 O 0.2862(7) -0.9415(5) 1.2813(5)
O4 O 0.5139(6) -0.7514(5) 1.2811(4)
O5 O 0.4794(6) 0.0517(5) 0.4126(4)
O6 O 0.2895(6) 0.1787(4) 0.4082(4)
H1 H 0.2011 0.1698 0.4182
O7 O 0.2516(7) -0.7163(5) 1.2167(4)
O8 O 0.3702(7) -0.7650(5) 1.1168(4)
O9 O 0.3195(6) 0.0213(6) 0.7073(4)
O10 O 0.4573(7) -0.0691(6) 0.7933(4)
O11 O 0.2072(5) 0.1829(4) 0.5799(4)
O12 O -0.1910(5) 0.3414(5) 0.7911(4)
O13 O 0.0278(6) 0.1963(5) 0.4045(4)
O14 O -0.3833(6) 0.3623(5) 0.6255(4)
O15 O 0.0202(5) 0.4524(5) 0.2145(4)
O16 O -0.3510(5) 0.5932(5) 0.4452(4)
N1 N 0.1668(6) 0.2068(5) 0.7225(5)
N2 N 0.0238(6) 0.1331(5) 0.6653(5)
N3 N -0.1394(6) 0.1966(5) 0.7525(5)
N4 N 0.0064(6) 0.2770(5) 0.8038(5)
N5 N -0.1063(6) 0.1580(5) 0.5356(5)
N6 N -0.1682(6) 0.2602(5) 0.4033(5)
N7 N -0.3269(6) 0.3251(5) 0.4899(5)
N8 N -0.2680(7) 0.2241(5) 0.6220(5)
N9 N -0.1812(6) 0.4183(5) 0.2776(5)
N10 N -0.1290(6) 0.5761(5) 0.1919(4)
N11 N -0.2747(6) 0.6343(6) 0.2928(5)
N12 N -0.3489(6) 0.4780(6) 0.3613(4)
C1 C 0.2877(10) -0.7064(7) 1.1351(7)
C2 C 0.2344(12) -0.6258(9) 1.0576(8)
H2 H 0.1448 -0.6264 1.0669
H3 H 0.2556 -0.6384 0.9991
C3 C 0.2869(12) -0.5241(8) 1.0560(7)
H4 H 0.3766 -0.5276 1.0520
H5 H 0.2624 -0.5127 1.1146
C4 C 0.2488(12) -0.4313(7) 0.9775(7)
H6 H 0.2829 -0.4370 0.9187
H7 H 0.1592 -0.4310 0.9763
C5 C 0.2922(11) -0.3343(8) 0.9887(6)
H8 H 0.3820 -0.3341 0.9864
H9 H 0.2633 -0.3323 1.0499
C6 C 0.2517(12) -0.2380(8) 0.9183(7)
H10 H 0.1628 -0.2415 0.9135
H11 H 0.2917 -0.2332 0.8581
C7 C 0.2839(12) -0.1428(7) 0.9445(6)
H12 H 0.3701 -0.1455 0.9594
H13 H 0.2336 -0.1428 0.9996
C8 C 0.2635(9) -0.0426(8) 0.8672(6)
H14 H 0.1795 -0.0419 0.8481
H15 H 0.2739 0.0144 0.8911
C9 C 0.3545(9) -0.0309(6) 0.7839(6)
C10 C 0.1379(7) 0.1750(6) 0.6495(5)
C11 C 0.0674(8) 0.1862(6) 0.7941(5)
H16 H 0.0944 0.1429 0.8535
C12 C -0.0333(8) 0.1316(6) 0.7555(6)
H17 H -0.0511 0.0622 0.7957
C13 C -0.1164(7) 0.2782(6) 0.7828(5)
C14 C -0.0290(8) 0.0884(6) 0.6000(6)
H18 H 0.0379 0.0665 0.5652
H19 H -0.0781 0.0286 0.6344
C15 C -0.2581(8) 0.1783(7) 0.7211(5)
H20 H -0.3226 0.2050 0.7541
H21 H -0.2723 0.1055 0.7366
C16 C -0.0712(8) 0.2039(7) 0.4441(6)
C17 C -0.2367(8) 0.1677(6) 0.5572(5)
H22 H -0.2798 0.1015 0.5756
C18 C -0.2809(7) 0.2381(6) 0.4642(6)
H23 H -0.3453 0.2054 0.4396
C19 C -0.3321(8) 0.3079(7) 0.5842(6)
C20 C -0.1731(8) 0.3070(6) 0.3047(6)
H24 H -0.2445 0.2798 0.2837
H25 H -0.0996 0.2891 0.2736
C21 C -0.4107(7) 0.3955(7) 0.4310(6)
H26 H -0.4608 0.3580 0.4010
H27 H -0.4662 0.4229 0.4697
C22 C -0.0844(7) 0.4801(6) 0.2268(6)
C23 C -0.2973(8) 0.4728(6) 0.2730(5)
H28 H -0.3582 0.4473 0.2397
C24 C -0.2579(8) 0.5840(7) 0.2217(6)
H29 H -0.3085 0.6143 0.1692
C25 C -0.3273(7) 0.5698(6) 0.3743(6)
C26 C 0.0513(8) 0.3379(6) 0.8595(5)
H30 H 0.0978 0.2944 0.9086
H31 H -0.0195 0.3624 0.8884
C27 C 0.2822(8) 0.2566(7) 0.7271(6)
H32 H 0.3114 0.2281 0.7887
H33 H 0.3431 0.2420 0.6834
U1A U 0.62575(3) -0.06885(2) 0.455675(19)
U1A_2 U -0.37425(3) 0.93115(2) 0.455675(19)
U1A_3 U 0.62575(3) -1.06885(2) 1.455675(19)
U1_2 U 0.37425(3) -0.93115(2) 1.544325(19)
U2A U 0.59751(3) -0.15084(2) 0.715370(19)
U2_2 U 0.40249(3) 0.15084(2) 0.284630(19)
O1A O 0.7439(6) 0.0223(5) 0.4564(4)
O2A O 0.5207(6) -0.1652(5) 0.4486(4)
O3A O 0.7138(7) -0.0585(5) 0.7187(5)
O4A O 0.4861(6) -0.2486(5) 0.7189(4)
O5A O 0.5206(6) -0.0517(5) 0.5874(4)
O5_2 O 0.4794(6) -0.9483(5) 1.4126(4)
O6_2 O 0.2895(6) -0.8213(4) 1.4082(4)
O6A O 0.7105(6) -0.1787(4) 0.5918(4)
H1_2 H 0.2011 -0.8302 1.4182
H1A H 0.7989 -0.1698 0.5818
O7A O 0.7484(7) -0.2837(5) 0.7833(4)
O8A O 0.6298(7) -0.2350(5) 0.8832(4)
O9A O 0.6805(6) -1.0213(6) 1.2927(4)
O9A_2 O 0.6805(6) -0.0213(6) 0.2927(4)
O10A O 0.5427(7) -0.9309(6) 1.2067(4)
O11A O -0.2072(5) 0.8171(4) 0.4201(4)
O11A_2 O 0.7928(5) -0.1829(4) 0.4201(4)
O12A O 0.1910(5) 0.6586(5) 0.2089(4)
O13A O -0.0278(6) 0.8037(5) 0.5955(4)
O14A O 0.3833(6) 0.6377(5) 0.3745(4)
O15A O -0.0202(5) 0.5476(5) 0.7855(4)
O16A O 0.3510(5) 0.4068(5) 0.5548(4)
N1A N -0.1668(6) 0.7932(5) 0.2775(5)
N2A N -0.0238(6) 0.8669(5) 0.3347(5)
N3A N 0.1394(6) 0.8034(5) 0.2475(5)
N4A N -0.0064(6) 0.7230(5) 0.1962(5)
N5A N 0.1063(6) 0.8420(5) 0.4644(5)
N6A N 0.1682(6) 0.7398(5) 0.5967(5)
N7A N 0.3269(6) 0.6749(5) 0.5101(5)
N8A N 0.2680(7) 0.7759(5) 0.3780(5)
N9A N 0.1812(6) 0.5817(5) 0.7224(5)
N10A N 0.1290(6) 0.4239(5) 0.8081(4)
N11A N 0.2747(6) 0.3657(6) 0.7072(5)
N12A N 0.3489(6) 0.5220(6) 0.6387(4)
C1A C 0.7123(10) -0.2936(7) 0.8649(7)
C2A C 0.7656(12) -0.3742(9) 0.9424(8)
H2A H 0.8552 -0.3736 0.9331
H3A H 0.7444 -0.3616 1.0009
C3A C 0.7131(12) -0.4759(8) 0.9440(7)
H4A H 0.6234 -0.4724 0.9480
H5A H 0.7376 -0.4873 0.8854
C4A C 0.7512(12) -0.5687(7) 1.0225(7)
H6A H 0.7171 -0.5630 1.0813
H7A H 0.8408 -0.5690 1.0237
C5A C 0.7078(11) -0.6657(8) 1.0113(6)
H8A H 0.6180 -0.6659 1.0136
H9A H 0.7367 -0.6677 0.9501
C6A C 0.7483(12) -0.7620(8) 1.0817(7)
H10A H 0.8372 -0.7585 1.0865
H11A H 0.7083 -0.7668 1.1419
C7A C 0.7161(12) -0.8572(7) 1.0555(6)
H12A H 0.6299 -0.8545 1.0406
H13A H 0.7664 -0.8572 1.0004
C8A C 0.7365(9) -0.9574(8) 1.1328(6)
H14A H 0.8205 -0.9581 1.1519
H15A H 0.7261 -1.0144 1.1089
C9A C 0.6455(9) -0.9691(6) 1.2161(6)
C10A C -0.1379(7) 0.8250(6) 0.3505(5)
C11A C -0.0674(8) 0.8138(6) 0.2059(5)
H16A H -0.0944 0.8571 0.1465
C12A C 0.0333(8) 0.8684(6) 0.2445(6)
H17A H 0.0511 0.9378 0.2043
C13A C 0.1164(7) 0.7218(6) 0.2172(5)
C14A C 0.0290(8) 0.9116(6) 0.4000(6)
H18A H -0.0379 0.9335 0.4348
H19A H 0.0781 0.9714 0.3656
C15A C 0.2581(8) 0.8217(7) 0.2789(5)
H20A H 0.3226 0.7950 0.2459
H21A H 0.2723 0.8945 0.2634
C16A C 0.0712(8) 0.7961(7) 0.5559(6)
C17A C 0.2367(8) 0.8323(6) 0.4428(5)
H22A H 0.2798 0.8985 0.4244
C18A C 0.2809(7) 0.7619(6) 0.5358(6)
H23A H 0.3453 0.7946 0.5604
C19A C 0.3321(8) 0.6921(7) 0.4158(6)
C20A C 0.1731(8) 0.6930(6) 0.6953(6)
H24A H 0.2445 0.7202 0.7163
H25A H 0.0996 0.7109 0.7264
C21A C 0.4107(7) 0.6045(7) 0.5690(6)
H26A H 0.4608 0.6420 0.5990
H27A H 0.4662 0.5771 0.5303
C22A C 0.0844(7) 0.5199(6) 0.7732(6)
C23A C 0.2973(8) 0.5272(6) 0.7270(5)
H28A H 0.3582 0.5527 0.7603
C24A C 0.2579(8) 0.4160(7) 0.7783(6)
H29A H 0.3085 0.3857 0.8308
C25A C 0.3273(7) 0.4302(6) 0.6257(6)
C26A C -0.0513(8) 0.6621(6) 0.1405(5)
H30A H -0.0978 0.7056 0.0914
H31A H 0.0195 0.6376 0.1116
C27A C -0.2822(8) 0.7434(7) 0.2729(6)
H32A H -0.3114 0.7719 0.2113
H33A H -0.3431 0.7580 0.3166
O20? O 0.4841(18) 0.1309(16) -0.1100(13)
loop_
_geom_bond_atom_site_label_1
_geom_bond_atom_site_label_2
_geom_bond_site_symmetry_1
_geom_bond_site_symmetry_2
U1 O1 1_555 1_555
U2 O3 1_555 1_555
O2 U1 1_555 1_555
O4 U2 1_555 1_555
O5 U1 1_555 1_555
O6 U1 1_555 1_555
H1 O6 1_555 1_555
O7 U2 1_555 1_555
O8 U2 1_555 1_555
O9 U1 1_555 1_555
O10 C9 1_555 1_555
O11 U1 1_555 1_555
O12 C13 1_555 1_555
O13 C16 1_555 1_555
O14 C19 1_555 1_555
O15 C22 1_555 1_555
O16 C25 1_555 1_555
N1 C10 1_555 1_555
N2 C10 1_555 1_555
N3 C12 1_555 1_555
N4 C11 1_555 1_555
N5 C14 1_555 1_555
N6 C16 1_555 1_555
N7 C18 1_555 1_555
N8 C15 1_555 1_555
N9 C20 1_555 1_555
N10 C22 1_555 1_555
N11 C24 1_555 1_555
N12 C21 1_555 1_555
C1 O7 1_555 1_555
C2 C1 1_555 1_555
H2 C2 1_555 1_555
H3 C2 1_555 1_555
C3 C2 1_555 1_555
H4 C3 1_555 1_555
H5 C3 1_555 1_555
C4 C3 1_555 1_555
H6 C4 1_555 1_555
H7 C4 1_555 1_555
C5 C4 1_555 1_555
H8 C5 1_555 1_555
H9 C5 1_555 1_555
C6 C5 1_555 1_555
H10 C6 1_555 1_555
H11 C6 1_555 1_555
C7 C6 1_555 1_555
H12 C7 1_555 1_555
H13 C7 1_555 1_555
C8 C7 1_555 1_555
H14 C8 1_555 1_555
H15 C8 1_555 1_555
C9 O9 1_555 1_555
C10 O11 1_555 1_555
C11 N1 1_555 1_555
H16 C11 1_555 1_555
C12 N2 1_555 1_555
H17 C12 1_555 1_555
C13 N3 1_555 1_555
C14 N2 1_555 1_555
H18 C14 1_555 1_555
H19 C14 1_555 1_555
C15 N3 1_555 1_555
H20 C15 1_555 1_555
H21 C15 1_555 1_555
C16 N5 1_555 1_555
C17 N5 1_555 1_555
H22 C17 1_555 1_555
C18 N6 1_555 1_555
H23 C18 1_555 1_555
C19 N7 1_555 1_555
C20 N6 1_555 1_555
H24 C20 1_555 1_555
H25 C20 1_555 1_555
C21 N7 1_555 1_555
H26 C21 1_555 1_555
H27 C21 1_555 1_555
C22 N9 1_555 1_555
C23 N9 1_555 1_555
H28 C23 1_555 1_555
C24 N10 1_555 1_555
H29 C24 1_555 1_555
C25 N11 1_555 1_555
C26 N4 1_555 1_555
H30 C26 1_555 1_555
H31 C26 1_555 1_555
C27 N1 1_555 1_555
H32 C27 1_555 1_555
H33 C27 1_555 1_555
O17 H34 1_555 1_555
H35 O17 1_555 1_555
N13 H36 1_555 1_555
H37 N13 1_555 1_555
C28 N13 1_555 1_555
H38 C28 1_555 1_555
H39 C28 1_555 1_555
H40 C28 1_555 1_555
C29 N13 1_555 1_555
H41 C29 1_555 1_555
H42 C29 1_555 1_555
H43 C29 1_555 1_555
U1A O5 1_555 1_555
U1A_2 O11A 1_555 1_555
U1A_3 O5_2 1_555 1_555
U1_2 O5_2 1_555 1_555
U2A O10 1_555 1_555
U2_2 O5 1_555 1_555
O1A U1A 1_555 1_555
O2A U1A 1_555 1_555
O3A U2A 1_555 1_555
O4A U2A 1_555 1_555
O5A U1 1_555 1_555
O5_2 U2 1_555 1_555
O6_2 U2 1_555 1_555
O6A U1A 1_555 1_555
H1_2 O6_2 1_555 1_555
H1A O6A 1_555 1_555
O7A U2A 1_555 1_555
O8A U2A 1_555 1_555
O9A U1A_3 1_555 1_555
O9A_2 U1A 1_555 1_555
O10A U2 1_555 1_555
O11A C10A 1_555 1_555
O11A_2 U1A 1_555 1_555
O12A C13A 1_555 1_555
O13A C16A 1_555 1_555
O14A C19A 1_555 1_555
O15A C22A 1_555 1_555
O16A C25A 1_555 1_555
N1A C10A 1_555 1_555
N2A C10A 1_555 1_555
N3A C12A 1_555 1_555
N4A C11A 1_555 1_555
N5A C14A 1_555 1_555
N6A C16A 1_555 1_555
N7A C18A 1_555 1_555
N8A C15A 1_555 1_555
N9A C20A 1_555 1_555
N10A C26 1_555 1_555
N11A C27 1_555 1_555
N12A C21A 1_555 1_555
C1A O7A 1_555 1_555
C2A C1A 1_555 1_555
H2A C2A 1_555 1_555
H3A C2A 1_555 1_555
C3A C2A 1_555 1_555
H4A C3A 1_555 1_555
H5A C3A 1_555 1_555
C4A C3A 1_555 1_555
H6A C4A 1_555 1_555
H7A C4A 1_555 1_555
C5A C4A 1_555 1_555
H8A C5A 1_555 1_555
H9A C5A 1_555 1_555
C6A C5A 1_555 1_555
H10A C6A 1_555 1_555
H11A C6A 1_555 1_555
C7A C6A 1_555 1_555
H12A C7A 1_555 1_555
H13A C7A 1_555 1_555
C8A C7A 1_555 1_555
H14A C8A 1_555 1_555
H15A C8A 1_555 1_555
C9A O9A 1_555 1_555
C11A N1A 1_555 1_555
H16A C11A 1_555 1_555
C12A N2A 1_555 1_555
H17A C12A 1_555 1_555
C13A N3A 1_555 1_555
C14A N2A 1_555 1_555
H18A C14A 1_555 1_555
H19A C14A 1_555 1_555
C15A N3A 1_555 1_555
H20A C15A 1_555 1_555
H21A C15A 1_555 1_555
C16A N5A 1_555 1_555
C17A N5A 1_555 1_555
H22A C17A 1_555 1_555
C18A N6A 1_555 1_555
H23A C18A 1_555 1_555
C19A N7A 1_555 1_555
C20A N6A 1_555 1_555
H24A C20A 1_555 1_555
H25A C20A 1_555 1_555
C21A N7A 1_555 1_555
H26A C21A 1_555 1_555
H27A C21A 1_555 1_555
C22A N9A 1_555 1_555
C23A N9A 1_555 1_555
H28A C23A 1_555 1_555
C24A N10A 1_555 1_555
H29A C24A 1_555 1_555
C25A N11A 1_555 1_555
C26A N10 1_555 1_555
H30A C26A 1_555 1_555
H31A C26A 1_555 1_555
C27A N11 1_555 1_555
H32A C27A 1_555 1_555
H33A C27A 1_555 1_555
O6 U2_2 1_555 1_555
O8 C1 1_555 1_555
N4 C13 1_555 1_555
N8 C17 1_555 1_555
N8 C19 1_555 1_555
N12 C23 1_555 1_555
N12 C25 1_555 1_555
C8 C9 1_555 1_555
C11 C12 1_555 1_555
C17 C18 1_555 1_555
C23 C24 1_555 1_555
U1A O5A 1_555 1_555
U1_2 O6_2 1_555 1_555
U2A O5A 1_555 1_555
U2A O6A 1_555 1_555
O8A C1A 1_555 1_555
O10A C9A 1_555 1_555
N1A C27A 1_555 1_555
N4A C13A 1_555 1_555
N4A C26A 1_555 1_555
N8A C17A 1_555 1_555
N8A C19A 1_555 1_555
N10A C22A 1_555 1_555
N11A C24A 1_555 1_555
N12A C23A 1_555 1_555
N12A C25A 1_555 1_555
C8A C9A 1_555 1_555
C11A C12A 1_555 1_555
C17A C18A 1_555 1_555
C23A C24A 1_555 1_555

#END
