
#######################################################################
#
#                 Cambridge Crystallographic Data Centre
#                                CCDC 
#
#######################################################################
#
# If this CIF has been generated from an entry in the Cambridge 
# Structural Database, then it will include bibliographic, chemical, 
# crystal, experimental, refinement or atomic coordinate data resulting 
# from the CCDC's data processing and validation procedures.
#
#######################################################################

data_AWEBAG
_symmetry_cell_setting           triclinic
_symmetry_space_group_name_H-M   'P -1'
_symmetry_Int_Tables_number      2
_space_group_name_Hall           '-P 1'
loop_
_symmetry_equiv_pos_site_id
_symmetry_equiv_pos_as_xyz
1 x,y,z
2 -x,-y,-z
_cell_length_a                   10.9737(6)
_cell_length_b                   13.7663(11)
_cell_length_c                   14.7029(11)
_cell_angle_alpha                110.812(3)
_cell_angle_beta                 98.887(5)
_cell_angle_gamma                90.371(4)
_cell_volume                     2046.74
loop_
_atom_site_label
_atom_site_type_symbol
_atom_site_fract_x
_atom_site_fract_y
_atom_site_fract_z
O17 O -0.5190(5) -0.0589(5) 0.1748(4)
H32 H -0.4475 -0.0724 0.1432
H33 H -0.4925 -0.0396 0.2299
O18 O -0.5904(8) 0.0790(7) 0.0608(6)
H34 H -0.5631 0.0425 0.0947
H35 H -0.5349 0.1065 0.0454
O19 O -0.7994(5) -0.0569(6) -0.0064(4)
H36 H -0.7577 -0.0026 0.0218
H37 H -0.7526 -0.1109 -0.0280
O20 O -0.4088(16) 0.2137(9) 0.0224(10)
N13 N 0.2182(5) 0.2198(4) 0.6451(4)
H38 H 0.2386 0.2456 0.5983
H39 H 0.1914 0.2669 0.6950
C27 C 0.3274(6) 0.1863(5) 0.6849(5)
H40 H 0.3096 0.1559 0.7313
H41 H 0.3865 0.2447 0.7178
H42 H 0.3608 0.1354 0.6327
C28 C 0.1269(6) 0.1347(5) 0.5803(5)
H43 H 0.1579 0.0972 0.5208
H44 H 0.0507 0.1634 0.5643
H45 H 0.1128 0.0882 0.6137
U1 U 0.371134(14) 0.396152(13) 0.453510(12)
U2 U -0.434120(15) 0.491120(13) 0.269390(12)
O1 O 0.2554(3) 0.4838(3) 0.4444(3)
O2 O 0.4740(3) 0.2979(3) 0.4560(3)
O3 O -0.3192(3) 0.3979(3) 0.2625(3)
O4 O -0.5456(3) 0.5848(3) 0.2683(3)
O5 O 0.4869(3) 0.5186(3) 0.5940(2)
O6 O 0.3031(3) 0.3903(3) 0.5991(2)
H1 H 0.2259 0.4012 0.5902
O7 O -0.3088(3) 0.5793(3) 0.1911(3)
O8 O -0.4264(3) 0.4438(3) 0.0888(3)
O9 O 0.3087(3) 0.3097(3) 0.2782(2)
O10 O 0.4115(4) 0.3574(3) 0.1819(3)
O11 O 0.1958(3) 0.2596(2) 0.4161(2)
O12 O -0.2366(3) -0.0556(3) 0.1859(3)
O13 O 0.0446(3) 0.3738(3) 0.5966(3)
O14 O -0.3958(3) 0.0490(3) 0.3670(3)
O15 O 0.0636(3) 0.2604(3) 0.7981(3)
O16 O -0.3476(3) -0.0481(3) 0.5582(2)
N1 N 0.1332(3) 0.1272(3) 0.2667(3)
N2 N 0.0030(4) 0.2478(3) 0.3231(3)
N3 N -0.1713(4) 0.1176(3) 0.2368(3)
N4 N -0.0386(3) -0.0025(3) 0.1817(3)
N5 N -0.1096(3) 0.3192(3) 0.4583(3)
N6 N -0.1519(4) 0.3165(3) 0.6003(3)
N7 N -0.3222(4) 0.1864(3) 0.5109(3)
N8 N -0.2859(4) 0.1928(3) 0.3688(3)
N9 N -0.1444(4) 0.2487(3) 0.7332(3)
N10 N -0.0795(3) 0.1533(3) 0.8237(3)
N11 N -0.2397(4) 0.0208(3) 0.7174(3)
N12 N -0.3269(4) 0.1293(3) 0.6479(3)
C1 C -0.3429(5) 0.5139(4) 0.1043(4)
C2 C -0.2795(5) 0.5154(5) 0.0208(4)
H2 H -0.3408 0.5069 -0.0371
H3 H -0.2334 0.5819 0.0394
C3 C -0.1909(5) 0.4266(4) -0.0036(4)
H4 H -0.1565 0.4245 -0.0612
H5 H -0.2375 0.3608 -0.0201
C4 C -0.0849(5) 0.4389(4) 0.0815(4)
H6 H -0.1193 0.4404 0.1389
H7 H -0.0388 0.5050 0.0984
C5 C 0.0028(4) 0.3528(4) 0.0579(4)
H8 H -0.0413 0.2875 0.0477
H9 H 0.0310 0.3465 -0.0032
C6 C 0.1140(5) 0.3714(4) 0.1387(4)
H10 H 0.1567 0.4374 0.1493
H11 H 0.0852 0.3772 0.1994
C7 C 0.2067(5) 0.2862(4) 0.1171(4)
H12 H 0.2318 0.2757 0.0541
H13 H 0.1678 0.2211 0.1134
C8 C 0.3173(4) 0.3170(4) 0.1967(3)
C9 C 0.1181(4) 0.2151(4) 0.3419(4)
C10 C 0.0245(4) 0.0938(4) 0.1903(3)
H14 H 0.0430 0.0917 0.1265
C11 C -0.0672(4) 0.1782(4) 0.2301(3)
H15 H -0.0911 0.2148 0.1845
C12 C -0.1580(4) 0.0129(4) 0.2000(3)
C13 C -0.0413(4) 0.3409(4) 0.3908(4)
H16 H 0.0288 0.3892 0.4283
H17 H -0.0938 0.3743 0.3529
C14 C -0.2858(4) 0.1600(4) 0.2637(4)
H18 H -0.3533 0.1079 0.2288
H19 H -0.2999 0.2192 0.2432
C15 C -0.0615(4) 0.3405(4) 0.5560(4)
C16 C -0.2433(4) 0.2963(4) 0.4375(3)
H20 H -0.2874 0.3501 0.4192
C17 C -0.2719(4) 0.2930(3) 0.5363(3)
H21 H -0.3311 0.3440 0.5633
C18 C -0.3405(4) 0.1340(4) 0.4107(4)
C19 C -0.1402(5) 0.3403(4) 0.7056(3)
H22 H -0.2063 0.3834 0.7298
H23 H -0.0625 0.3805 0.7379
C20 C -0.3975(4) 0.1607(4) 0.5725(4)
H24 H -0.4580 0.1047 0.5312
H25 H -0.4420 0.2208 0.6040
C21 C -0.0423(5) 0.2233(4) 0.7850(3)
C22 C -0.2594(4) 0.1989(4) 0.7395(4)
H26 H -0.3121 0.2497 0.7772
C23 C -0.2113(4) 0.1227(4) 0.7932(3)
H27 H -0.2524 0.1306 0.8498
C24 C -0.3095(4) 0.0258(4) 0.6324(3)
C25 C -0.0050(4) -0.1051(4) 0.1227(4)
H28 H 0.0320 -0.0991 0.0689
H29 H -0.0798 -0.1505 0.0938
C26 C 0.2471(4) 0.0737(4) 0.2619(4)
H30 H 0.3133 0.1203 0.3090
H31 H 0.2680 0.0571 0.1966
U1A U 0.628866(14) 0.603848(13) 0.546490(12)
U1A_2 U -0.371134(14) -0.396152(13) 0.546490(12)
U1_2 U -0.628866(14) 0.396152(13) 0.453510(12)
U1A_3 U -0.371134(14) 0.603848(13) 0.546490(12)
U2_2 U 0.565880(15) 0.491120(13) 0.269390(12)
U2A U 0.434120(15) 0.508880(13) 0.730610(12)
U2_3 U -1.434120(15) 0.491120(13) 0.269390(12)
O1A O 0.7446(3) 0.5162(3) 0.5556(3)
O2A O 0.5260(3) 0.7021(3) 0.5440(3)
O3_2 O 0.6808(3) 0.3979(3) 0.2625(3)
O4_2 O 0.4544(3) 0.5848(3) 0.2683(3)
O5A O 0.5131(3) 0.4814(3) 0.4060(2)
O5A_2 O -0.4869(3) 0.4814(3) 0.4060(2)
O6A O -0.3031(3) 0.6097(3) 0.4009(2)
O6A_2 O 0.6969(3) 0.6097(3) 0.4009(2)
H1A H -0.2259 0.5988 0.4098
H1A_2 H 0.7741 0.5988 0.4098
O7_2 O -1.3088(3) 0.5793(3) 0.1911(3)
O7_3 O 0.6912(3) 0.5793(3) 0.1911(3)
O8_2 O -1.4264(3) 0.4438(3) 0.0888(3)
O8_3 O 0.5736(3) 0.4438(3) 0.0888(3)
O9_2 O -0.6913(3) 0.3097(3) 0.2782(2)
O9A O 0.6913(3) 0.6903(3) 0.7218(2)
O10_2 O -0.5885(4) 0.3574(3) 0.1819(3)
O11A O -0.1958(3) -0.2596(2) 0.5839(2)
O11A_2 O 0.8042(3) 0.7404(2) 0.5839(2)
O12A O 0.2366(3) 0.0556(3) 0.8141(3)
O13A O -0.0446(3) -0.3738(3) 0.4034(3)
O14A O 0.3958(3) -0.0490(3) 0.6330(3)
O15A O -0.0636(3) -0.2604(3) 0.2019(3)
O16A O 0.3476(3) 0.0481(3) 0.4418(2)
N1A N -0.1332(3) -0.1272(3) 0.7333(3)
N2A N -0.0030(4) -0.2478(3) 0.6769(3)
N3A N 0.1713(4) -0.1176(3) 0.7632(3)
N4A N 0.0386(3) 0.0025(3) 0.8183(3)
N5A N 0.1096(3) -0.3192(3) 0.5417(3)
N6A N 0.1519(4) -0.3165(3) 0.3997(3)
N7A N 0.3222(4) -0.1864(3) 0.4891(3)
N8A N 0.2859(4) -0.1928(3) 0.6312(3)
N9A N 0.1444(4) -0.2487(3) 0.2668(3)
N10A N 0.0795(3) -0.1533(3) 0.1763(3)
N11A N 0.2397(4) -0.0208(3) 0.2826(3)
N12A N 0.3269(4) -0.1293(3) 0.3521(3)
C1_2 C -1.3429(5) 0.5139(4) 0.1043(4)
C2_2 C -1.2795(5) 0.5154(5) 0.0208(4)
H2_2 H -1.3408 0.5069 -0.0371
H3_2 H -1.2334 0.5819 0.0394
C3_2 C -1.1909(5) 0.4266(4) -0.0036(4)
H4_2 H -1.1565 0.4245 -0.0612
H5_2 H -1.2375 0.3608 -0.0201
C4_2 C -1.0849(5) 0.4389(4) 0.0815(4)
H6_2 H -1.1193 0.4404 0.1389
H7_2 H -1.0388 0.5050 0.0984
C5_2 C -0.9972(4) 0.3528(4) 0.0579(4)
H8_2 H -1.0413 0.2875 0.0477
H9_2 H -0.9690 0.3465 -0.0032
C6_2 C -0.8860(5) 0.3714(4) 0.1387(4)
H10_2 H -0.8433 0.4374 0.1493
H11_2 H -0.9148 0.3772 0.1994
C7_2 C -0.7933(5) 0.2862(4) 0.1171(4)
H12_2 H -0.7682 0.2757 0.0541
H13_2 H -0.8322 0.2211 0.1134
C8_2 C -0.6827(4) 0.3170(4) 0.1967(3)
C9A C -0.1181(4) -0.2151(4) 0.6581(4)
C10A C -0.0245(4) -0.0938(4) 0.8097(3)
H14A H -0.0430 -0.0917 0.8735
C11A C 0.0672(4) -0.1782(4) 0.7699(3)
H15A H 0.0911 -0.2148 0.8155
C12A C 0.1580(4) -0.0129(4) 0.8000(3)
C13A C 0.0413(4) -0.3409(4) 0.6092(4)
H16A H -0.0288 -0.3892 0.5717
H17A H 0.0938 -0.3743 0.6471
C14A C 0.2858(4) -0.1600(4) 0.7363(4)
H18A H 0.3533 -0.1079 0.7712
H19A H 0.2999 -0.2192 0.7568
C15A C 0.0615(4) -0.3405(4) 0.4440(4)
C16A C 0.2433(4) -0.2963(4) 0.5625(3)
H20A H 0.2874 -0.3501 0.5808
C17A C 0.2719(4) -0.2930(3) 0.4637(3)
H21A H 0.3311 -0.3440 0.4367
C18A C 0.3405(4) -0.1340(4) 0.5893(4)
C19A C 0.1402(5) -0.3403(4) 0.2944(3)
H22A H 0.2063 -0.3834 0.2702
H23A H 0.0625 -0.3805 0.2621
C20A C 0.3975(4) -0.1607(4) 0.4275(4)
H24A H 0.4580 -0.1047 0.4688
H25A H 0.4420 -0.2208 0.3960
C21A C 0.0423(5) -0.2233(4) 0.2150(3)
C22A C 0.2594(4) -0.1989(4) 0.2605(4)
H26A H 0.3121 -0.2497 0.2228
C23A C 0.2113(4) -0.1227(4) 0.2068(3)
H27A H 0.2524 -0.1306 0.1502
C24A C 0.3095(4) -0.0258(4) 0.3676(3)
C25A C 0.0050(4) 0.1051(4) 0.8773(4)
H28A H -0.0320 0.0991 0.9311
H29A H 0.0798 0.1505 0.9062
C26A C -0.2471(4) -0.0737(4) 0.7381(4)
H30A H -0.3133 -0.1203 0.6910
H31A H -0.2680 -0.0571 0.8034
O21? O -0.3046(19) 0.2235(11) 0.0593(11)
loop_
_geom_bond_atom_site_label_1
_geom_bond_atom_site_label_2
_geom_bond_site_symmetry_1
_geom_bond_site_symmetry_2
U1 O1 1_555 1_555
U2 O3 1_555 1_555
O2 U1 1_555 1_555
O4 U2 1_555 1_555
O5 U1 1_555 1_555
O6 U1 1_555 1_555
H1 O6 1_555 1_555
O7 U2 1_555 1_555
O8 U2 1_555 1_555
O9 U1 1_555 1_555
O10 C8 1_555 1_555
O11 U1 1_555 1_555
O12 C12 1_555 1_555
O13 C15 1_555 1_555
O14 C18 1_555 1_555
O15 C21 1_555 1_555
O16 C24 1_555 1_555
N1 C9 1_555 1_555
N2 C9 1_555 1_555
N3 C11 1_555 1_555
N4 C10 1_555 1_555
N5 C13 1_555 1_555
N6 C15 1_555 1_555
N7 C17 1_555 1_555
N8 C14 1_555 1_555
N9 C19 1_555 1_555
N10 C21 1_555 1_555
N11 C23 1_555 1_555
N12 C20 1_555 1_555
C1 O7 1_555 1_555
C2 C1 1_555 1_555
H2 C2 1_555 1_555
H3 C2 1_555 1_555
C3 C2 1_555 1_555
H4 C3 1_555 1_555
H5 C3 1_555 1_555
C4 C3 1_555 1_555
H6 C4 1_555 1_555
H7 C4 1_555 1_555
C5 C4 1_555 1_555
H8 C5 1_555 1_555
H9 C5 1_555 1_555
C6 C5 1_555 1_555
H10 C6 1_555 1_555
H11 C6 1_555 1_555
C7 C6 1_555 1_555
H12 C7 1_555 1_555
H13 C7 1_555 1_555
C8 O9 1_555 1_555
C9 O11 1_555 1_555
C10 N1 1_555 1_555
H14 C10 1_555 1_555
C11 N2 1_555 1_555
H15 C11 1_555 1_555
C12 N3 1_555 1_555
C13 N2 1_555 1_555
H16 C13 1_555 1_555
H17 C13 1_555 1_555
C14 N3 1_555 1_555
H18 C14 1_555 1_555
H19 C14 1_555 1_555
C15 N5 1_555 1_555
C16 N5 1_555 1_555
H20 C16 1_555 1_555
C17 N6 1_555 1_555
H21 C17 1_555 1_555
C18 N7 1_555 1_555
C19 N6 1_555 1_555
H22 C19 1_555 1_555
H23 C19 1_555 1_555
C20 N7 1_555 1_555
H24 C20 1_555 1_555
H25 C20 1_555 1_555
C21 N9 1_555 1_555
C22 N9 1_555 1_555
H26 C22 1_555 1_555
C23 N10 1_555 1_555
H27 C23 1_555 1_555
C24 N11 1_555 1_555
C25 N4 1_555 1_555
H28 C25 1_555 1_555
H29 C25 1_555 1_555
C26 N1 1_555 1_555
H30 C26 1_555 1_555
H31 C26 1_555 1_555
O17 H32 1_555 1_555
H33 O17 1_555 1_555
O18 H34 1_555 1_555
H35 O18 1_555 1_555
O19 H36 1_555 1_555
H37 O19 1_555 1_555
N13 H38 1_555 1_555
H39 N13 1_555 1_555
C27 N13 1_555 1_555
H40 C27 1_555 1_555
H41 C27 1_555 1_555
H42 C27 1_555 1_555
C28 N13 1_555 1_555
H43 C28 1_555 1_555
H44 C28 1_555 1_555
H45 C28 1_555 1_555
U1A O5 1_555 1_555
U1A_2 O11A 1_555 1_555
U1_2 O5A_2 1_555 1_555
U1A_3 O5A_2 1_555 1_555
U2_2 O10 1_555 1_555
U2A O5 1_555 1_555
U2_3 O7_2 1_555 1_555
O1A U1A 1_555 1_555
O2A U1A 1_555 1_555
O3_2 U2_2 1_555 1_555
O4_2 U2_2 1_555 1_555
O5A U1 1_555 1_555
O5A_2 U2 1_555 1_555
O6A U2 1_555 1_555
O6A_2 U1A 1_555 1_555
H1A O6A 1_555 1_555
H1A_2 O6A_2 1_555 1_555
O7_2 C1_2 1_555 1_555
O7_3 U2_2 1_555 1_555
O8_2 U2_3 1_555 1_555
O8_3 U2_2 1_555 1_555
O9_2 U1_2 1_555 1_555
O9A U1A 1_555 1_555
O10_2 U2 1_555 1_555
O11A C9A 1_555 1_555
O11A_2 U1A 1_555 1_555
O12A C12A 1_555 1_555
O13A C15A 1_555 1_555
O14A C18A 1_555 1_555
O15A C21A 1_555 1_555
O16A C24A 1_555 1_555
N1A C9A 1_555 1_555
N2A C9A 1_555 1_555
N3A C11A 1_555 1_555
N4A C10A 1_555 1_555
N5A C13A 1_555 1_555
N6A C15A 1_555 1_555
N7A C17A 1_555 1_555
N8A C14A 1_555 1_555
N9A C19A 1_555 1_555
N10A C25 1_555 1_555
N11A C26 1_555 1_555
N12A C20A 1_555 1_555
C1_2 O8_2 1_555 1_555
C2_2 C1_2 1_555 1_555
H2_2 C2_2 1_555 1_555
H3_2 C2_2 1_555 1_555
C3_2 C2_2 1_555 1_555
H4_2 C3_2 1_555 1_555
H5_2 C3_2 1_555 1_555
C4_2 C3_2 1_555 1_555
H6_2 C4_2 1_555 1_555
H7_2 C4_2 1_555 1_555
C5_2 C4_2 1_555 1_555
H8_2 C5_2 1_555 1_555
H9_2 C5_2 1_555 1_555
C6_2 C5_2 1_555 1_555
H10_2 C6_2 1_555 1_555
H11_2 C6_2 1_555 1_555
C7_2 C6_2 1_555 1_555
H12_2 C7_2 1_555 1_555
H13_2 C7_2 1_555 1_555
C8_2 O9_2 1_555 1_555
C10A N1A 1_555 1_555
H14A C10A 1_555 1_555
C11A N2A 1_555 1_555
H15A C11A 1_555 1_555
C12A N3A 1_555 1_555
C13A N2A 1_555 1_555
H16A C13A 1_555 1_555
H17A C13A 1_555 1_555
C14A N3A 1_555 1_555
H18A C14A 1_555 1_555
H19A C14A 1_555 1_555
C15A N5A 1_555 1_555
C16A N5A 1_555 1_555
H20A C16A 1_555 1_555
C17A N6A 1_555 1_555
H21A C17A 1_555 1_555
C18A N7A 1_555 1_555
C19A N6A 1_555 1_555
H22A C19A 1_555 1_555
H23A C19A 1_555 1_555
C20A N7A 1_555 1_555
H24A C20A 1_555 1_555
H25A C20A 1_555 1_555
C21A N9A 1_555 1_555
C22A N9A 1_555 1_555
H26A C22A 1_555 1_555
C23A N10A 1_555 1_555
H27A C23A 1_555 1_555
C24A N11A 1_555 1_555
C25A N10 1_555 1_555
H28A C25A 1_555 1_555
H29A C25A 1_555 1_555
C26A N11 1_555 1_555
H30A C26A 1_555 1_555
H31A C26A 1_555 1_555
O6 U2A 1_555 1_555
O8 C1 1_555 1_555
N4 C12 1_555 1_555
N8 C16 1_555 1_555
N8 C18 1_555 1_555
N12 C22 1_555 1_555
N12 C24 1_555 1_555
C7 C8 1_555 1_555
C10 C11 1_555 1_555
C16 C17 1_555 1_555
C22 C23 1_555 1_555
U1A O5A 1_555 1_555
U1A_3 O6A 1_555 1_555
U2_2 O5A 1_555 1_555
U2_2 O6A_2 1_555 1_555
O10_2 C8_2 1_555 1_555
N1A C26A 1_555 1_555
N4A C12A 1_555 1_555
N4A C25A 1_555 1_555
N8A C16A 1_555 1_555
N8A C18A 1_555 1_555
N10A C21A 1_555 1_555
N11A C23A 1_555 1_555
N12A C22A 1_555 1_555
N12A C24A 1_555 1_555
C7_2 C8_2 1_555 1_555
C10A C11A 1_555 1_555
C16A C17A 1_555 1_555
C22A C23A 1_555 1_555

#END
