
#######################################################################
#
#                 Cambridge Crystallographic Data Centre
#                                CCDC 
#
#######################################################################
#
# If this CIF has been generated from an entry in the Cambridge 
# Structural Database, then it will include bibliographic, chemical, 
# crystal, experimental, refinement or atomic coordinate data resulting 
# from the CCDC's data processing and validation procedures.
#
#######################################################################

data_AWEBOU
_symmetry_cell_setting           monoclinic
_symmetry_space_group_name_H-M   'P 21/c'
_symmetry_Int_Tables_number      14
_space_group_name_Hall           '-P 2ybc'
loop_
_symmetry_equiv_pos_site_id
_symmetry_equiv_pos_as_xyz
1 x,y,z
2 -x,1/2+y,1/2-z
3 -x,-y,-z
4 x,1/2-y,1/2+z
_cell_length_a                   19.8332(19)
_cell_length_b                   17.3585(13)
_cell_length_c                   16.4723(13)
_cell_angle_alpha                90
_cell_angle_beta                 110.505(5)
_cell_angle_gamma                90
_cell_volume                     5311.69
loop_
_atom_site_label
_atom_site_type_symbol
_atom_site_fract_x
_atom_site_fract_y
_atom_site_fract_z
O12 O 0.5981(4) 0.8319(4) 0.4880(4)
O13 O 0.6742(4) 0.5792(4) 0.2655(4)
O14 O 0.4077(4) 0.8149(4) 0.3636(4)
O15 O 0.4745(3) 0.5513(4) 0.1533(4)
O16 O 0.2518(3) 0.6680(3) 0.3981(4)
O17 O 0.2993(3) 0.4213(3) 0.1551(4)
O18 O 0.2124(3) 0.5156(3) 0.5357(4)
O19 O 0.2714(3) 0.2709(3) 0.3026(4)
N1 N 0.6888(4) 0.7693(4) 0.4566(5)
N2 N 0.5885(4) 0.7979(4) 0.3477(5)
N3 N 0.6170(4) 0.6958(4) 0.2627(4)
N4 N 0.7219(4) 0.6749(4) 0.3663(5)
N5 N 0.4615(4) 0.7883(4) 0.2639(5)
N6 N 0.3582(4) 0.7301(4) 0.2495(4)
N7 N 0.3819(4) 0.6292(4) 0.1612(5)
N8 N 0.4903(4) 0.6814(4) 0.1851(5)
N9 N 0.2612(4) 0.6519(4) 0.2632(4)
N10 N 0.1944(4) 0.5697(4) 0.3051(4)
N11 N 0.2189(4) 0.4685(4) 0.2153(4)
N12 N 0.2847(4) 0.5521(4) 0.1726(4)
N13 N 0.1744(4) 0.4674(4) 0.3952(4)
N14 N 0.1948(4) 0.3857(4) 0.5041(4)
N15 N 0.2280(4) 0.2916(4) 0.4146(5)
N16 N 0.1908(4) 0.3677(4) 0.2993(4)
C10 C 0.6215(5) 0.8020(5) 0.4357(6)
C11 C 0.7065(5) 0.7545(5) 0.3794(5)
H13 H 0.7453 0.7885 0.3770
C12 C 0.6355(5) 0.7710(5) 0.3034(5)
H14 H 0.6419 0.8097 0.2633
C13 C 0.6708(5) 0.6432(5) 0.2944(6)
C14 C 0.5214(5) 0.8398(5) 0.3006(6)
H15 H 0.5105 0.8750 0.3401
H16 H 0.5282 0.8701 0.2547
C15 C 0.5603(5) 0.6885(6) 0.1778(6)
H17 H 0.5610 0.7334 0.1430
H18 H 0.5696 0.6435 0.1485
C16 C 0.4081(5) 0.7805(5) 0.2978(6)
C17 C 0.4449(5) 0.7485(5) 0.1828(6)
H19 H 0.4423 0.7837 0.1352
C18 C 0.3700(5) 0.7104(5) 0.1703(6)
H20 H 0.3319 0.7309 0.1192
C19 C 0.4501(5) 0.6143(6) 0.1644(5)
C20 C 0.2857(5) 0.7290(5) 0.2528(6)
H21 H 0.2846 0.7609 0.3007
H22 H 0.2527 0.7513 0.1997
C21 C 0.3241(5) 0.5777(5) 0.1176(6)
H23 H 0.3435 0.5330 0.0978
H24 H 0.2910 0.6033 0.0669
C22 C 0.2380(4) 0.6329(5) 0.3293(5)
C23 C 0.2325(5) 0.6014(4) 0.1896(5)
H25 H 0.2041 0.6300 0.1376
C24 C 0.1843(5) 0.5430(5) 0.2176(5)
H26 H 0.1338 0.5444 0.1792
C25 C 0.2708(5) 0.4743(5) 0.1786(5)
C26 C 0.1507(5) 0.5414(5) 0.3515(5)
H27 H 0.1017 0.5359 0.3114
H28 H 0.1503 0.5794 0.3946
C27 C 0.1811(5) 0.3980(5) 0.2138(5)
H29 H 0.1975 0.3598 0.1819
H30 H 0.1302 0.4064 0.1830
C28 C 0.1966(5) 0.4630(5) 0.4852(6)
C29 C 0.1505(5) 0.3951(5) 0.3526(5)
H31 H 0.0985 0.3954 0.3201
C30 C 0.1707(5) 0.3361(5) 0.4286(5)
H32 H 0.1297 0.3038 0.4273
C31 C 0.2331(5) 0.3070(5) 0.3344(6)
C32 C 0.7933(5) 0.6406(5) 0.4078(5)
H33 H 0.8298 0.6784 0.4093
H34 H 0.7987 0.5973 0.3733
C33 C 0.7445(5) 0.7810(5) 0.5396(6)
H35 H 0.7841 0.8088 0.5314
H36 H 0.7257 0.8126 0.5754
O12B O 0.4019(4) 0.1681(4) 0.5120(4)
O13B O 0.3258(4) 0.4208(4) 0.7345(4)
O14B O 0.5923(4) 0.1851(4) 0.6364(4)
O15B O 0.5255(3) 0.4487(4) 0.8467(4)
O16B O 0.7482(3) 0.3320(3) 0.6019(4)
O17B O 0.7007(3) 0.5787(3) 0.8449(4)
O18B O 0.7876(3) 0.4844(3) 0.4643(4)
O19B O 0.7286(3) 0.7291(3) 0.6974(4)
N1B N 0.3112(4) 0.2307(4) 0.5434(5)
N2B N 0.4115(4) 0.2021(4) 0.6523(5)
N3B N 0.3830(4) 0.3042(4) 0.7373(4)
N4B N 0.2781(4) 0.3251(4) 0.6337(5)
N5B N 0.5385(4) 0.2117(4) 0.7361(5)
N6B N 0.6418(4) 0.2699(4) 0.7505(4)
N7B N 0.6181(4) 0.3708(4) 0.8388(5)
N8B N 0.5097(4) 0.3186(4) 0.8149(5)
N9B N 0.7388(4) 0.3481(4) 0.7368(4)
N10B N 0.8056(4) 0.4303(4) 0.6949(4)
N11B N 0.7811(4) 0.5315(4) 0.7847(4)
N12B N 0.7153(4) 0.4479(4) 0.8274(4)
N13B N 0.8256(4) 0.5326(4) 0.6048(4)
N14B N 0.8052(4) 0.6143(4) 0.4959(4)
N15B N 0.7720(4) 0.7084(4) 0.5854(5)
N16B N 0.8092(4) 0.6323(4) 0.7007(4)
C10B C 0.3785(5) 0.1980(5) 0.5643(6)
C11B C 0.2935(5) 0.2455(5) 0.6206(5)
H13B H 0.2547 0.2115 0.6230
C12B C 0.3645(5) 0.2290(5) 0.6966(5)
H14B H 0.3581 0.1903 0.7367
C13B C 0.3292(5) 0.3568(5) 0.7056(6)
C14B C 0.4786(5) 0.1602(5) 0.6994(6)
H15B H 0.4895 0.1250 0.6599
H16B H 0.4718 0.1299 0.7453
C15B C 0.4397(5) 0.3115(6) 0.8222(6)
H17B H 0.4390 0.2666 0.8570
H18B H 0.4304 0.3565 0.8515
C16B C 0.5919(5) 0.2195(5) 0.7022(6)
C17B C 0.5551(5) 0.2515(5) 0.8172(6)
H19B H 0.5577 0.2163 0.8648
C18B C 0.6300(5) 0.2896(5) 0.8297(6)
H20B H 0.6681 0.2691 0.8808
C19B C 0.5499(5) 0.3857(6) 0.8356(5)
C20B C 0.7143(5) 0.2710(5) 0.7472(6)
H21B H 0.7154 0.2391 0.6993
H22B H 0.7473 0.2487 0.8003
C21B C 0.6759(5) 0.4223(5) 0.8824(6)
H23B H 0.6565 0.4670 0.9022
H24B H 0.7090 0.3967 0.9331
C22B C 0.7620(4) 0.3671(5) 0.6707(5)
C23B C 0.7675(5) 0.3986(4) 0.8104(5)
H25B H 0.7959 0.3700 0.8624
C24B C 0.8157(5) 0.4570(5) 0.7824(5)
H26B H 0.8662 0.4556 0.8208
C25B C 0.7292(5) 0.5257(5) 0.8214(5)
C26B C 0.8493(5) 0.4586(5) 0.6485(5)
H27B H 0.8983 0.4641 0.6886
H28B H 0.8497 0.4206 0.6054
C27B C 0.8189(5) 0.6020(5) 0.7862(5)
H29B H 0.8025 0.6402 0.8181
H30B H 0.8698 0.5936 0.8170
C28B C 0.8034(5) 0.5370(5) 0.5148(6)
C29B C 0.8495(5) 0.6049(5) 0.6474(5)
H31B H 0.9015 0.6046 0.6799
C30B C 0.8293(5) 0.6639(5) 0.5714(5)
H32B H 0.8703 0.6962 0.5727
C31B C 0.7669(5) 0.6930(5) 0.6656(6)
C32B C 0.2067(5) 0.3594(5) 0.5922(5)
H33B H 0.1702 0.3216 0.5907
H34B H 0.2013 0.4027 0.6267
C33B C 0.2555(5) 0.2190(5) 0.4604(6)
H35B H 0.2159 0.1912 0.4686
H36B H 0.2743 0.1874 0.4246
O20 O 0.2146(4) 0.7012(4) 0.5486(4)
H37 H 0.1629 0.6919 0.5284
H38 H 0.2336 0.7035 0.5061
O21 O 0.6931(5) 0.4027(4) 0.3128(5)
H39 H 0.7237 0.4390 0.3505
H40 H 0.6513 0.4112 0.3291
O22 O 0.3340(19) 0.7994(17) 0.4758(16)
O23 O 0.5747(10) 0.9268(11) 0.0061(12)
N17 N 0.6533(5) 0.4673(5) 0.1403(5)
H41 H 0.6539 0.4951 0.1819
H42 H 0.6458 0.4158 0.1559
C34 C 0.7232(8) 0.4638(10) 0.1320(9)
H43 H 0.7232 0.4243 0.0912
H44 H 0.7589 0.4522 0.1874
H45 H 0.7340 0.5126 0.1119
C35 C 0.5974(7) 0.4838(6) 0.0612(7)
H46 H 0.6049 0.5340 0.0414
H47 H 0.5520 0.4826 0.0697
H48 H 0.5975 0.4460 0.0187
U1 U 0.056692(18) 0.982610(18) 0.433691(19)
U2 U 0.007476(18) 0.800255(17) 0.53903(2)
O1 O -0.0208(3) 0.9743(4) 0.3370(3)
O2 O 0.1377(3) 0.9894(3) 0.5238(4)
O3 O -0.0719(3) 0.7772(3) 0.4506(4)
O4 O 0.0855(3) 0.8167(3) 0.6309(4)
O5 O 0.0654(3) 0.8333(3) 0.4374(3)
O6 O 0.1171(3) 0.8970(3) 0.3604(4)
O7 O -0.1057(4) 0.5591(4) 0.1578(4)
O8 O -0.0665(4) 0.6636(4) 0.1143(4)
O9 O 0.0666(3) 0.6762(3) 0.5275(4)
O10 O -0.0044(3) 0.6696(3) 0.6011(4)
O11 O -0.0032(3) 0.9256(3) 0.5145(3)
C1 C 0.0937(5) 0.8337(5) 0.3773(5)
C2 C 0.0965(5) 0.7625(5) 0.3287(6)
H1 H 0.1421 0.7371 0.3583
H2 H 0.0961 0.7773 0.2718
C3 C 0.0371(5) 0.7047(5) 0.3169(6)
H3 H 0.0412 0.6844 0.3733
H4 H 0.0439 0.6621 0.2824
C4 C -0.0389(5) 0.7370(5) 0.2733(5)
H5 H -0.0510 0.7699 0.3139
H6 H -0.0403 0.7683 0.2239
C5 C -0.0940(5) 0.6733(5) 0.2433(5)
H7 H -0.0879 0.6384 0.2913
H8 H -0.1417 0.6956 0.2271
C6 C -0.0890(5) 0.6279(6) 0.1678(6)
C7 C 0.0432(4) 0.6427(3) 0.5768(5)
C8 C 0.0616(4) 0.5589(3) 0.6014(5)
H9 H 0.1065 0.5456 0.5939
H10 H 0.0674 0.5511 0.6618
C9 C 0.0016(6) 0.5073(3) 0.5446(7)
H11 H 0.0055 0.4580 0.5735
H12 H -0.0439 0.5300 0.5416
U1A U -0.056692(18) 1.482610(18) 0.066309(19)
U1A_2 U -0.056692(18) 0.482610(18) 0.066309(19)
U1B U -0.056692(18) 1.017390(18) 0.566309(19)
U2A U -0.007476(18) 1.300255(17) -0.03903(2)
U2C U 0.007476(18) 0.699745(17) 0.03903(2)
U2B U -0.007476(18) 0.199745(17) 0.46097(2)
U2B_2 U -0.007476(18) 1.199745(17) 0.46097(2)
O1A O 0.0208(3) 1.4743(4) 0.1630(3)
O2A O -0.1377(3) 1.4894(3) -0.0238(4)
O3A O 0.0719(3) 1.2772(3) 0.0494(4)
O4A O -0.0855(3) 1.3167(3) -0.1309(4)
O5A O -0.0654(3) 1.3333(3) 0.0626(3)
O6A O -0.1171(3) 1.3970(3) 0.1396(4)
O7A O 0.1057(4) 1.0591(4) 0.3422(4)
O7_2 O -0.1057(4) 1.5591(4) 0.1578(4)
O8A O 0.0665(4) 1.1636(4) 0.3857(4)
O8C O -0.0665(4) 0.8364(4) 0.6143(4)
O8B O 0.0665(4) 1.3364(4) -0.1143(4)
O9B O -0.0666(3) 0.3238(3) 0.4725(4)
O9A O -0.0666(3) 1.1762(3) -0.0275(4)
O10B O 0.0044(3) 0.3304(3) 0.3989(4)
O10A O 0.0044(3) 1.1696(3) -0.1011(4)
O11B O 0.0032(3) 1.0744(3) 0.4855(3)
O11A O 0.0032(3) 1.4256(3) -0.0145(3)
O11C O -0.0032(3) 1.5744(3) 0.0145(3)
C1A C -0.0937(5) 1.3337(5) 0.1227(5)
C2A C -0.0965(5) 1.2625(5) 0.1713(6)
H1A H -0.1421 1.2371 0.1417
H2A H -0.0961 1.2773 0.2282
C3A C -0.0371(5) 1.2047(5) 0.1831(6)
H3A H -0.0412 1.1844 0.1267
H4A H -0.0439 1.1621 0.2176
C4A C 0.0389(5) 1.2370(5) 0.2267(5)
H5A H 0.0510 1.2699 0.1861
H6A H 0.0403 1.2683 0.2761
C5A C 0.0940(5) 1.1733(5) 0.2567(5)
H7A H 0.0879 1.1384 0.2087
H8A H 0.1417 1.1956 0.2729
C6A C 0.0890(5) 1.1279(6) 0.3322(6)
C7B C -0.0432(4) 0.3573(3) 0.4232(5)
C8B C -0.0616(4) 0.4411(3) 0.3986(5)
H9B H -0.1065 0.4544 0.4061
H10B H -0.0674 0.4489 0.3382
C9B C -0.0016(6) 0.4927(3) 0.4554(7)
H11B H -0.0055 0.5420 0.4265
H12B H 0.0439 0.4700 0.4584
O24? O 0.363(3) 0.772(3) 0.4930(19)
O25? O 0.5333(8) 0.8829(9) 0.1048(9)
loop_
_geom_bond_atom_site_label_1
_geom_bond_atom_site_label_2
_geom_bond_site_symmetry_1
_geom_bond_site_symmetry_2
U1 O1 1_555 1_555
U2 O3 1_555 1_555
O2 U1 1_555 1_555
O4 U2 1_555 1_555
O5 U1 1_555 1_555
O6 U1 1_555 1_555
O7 C6 1_555 1_555
O8 C6 1_555 1_555
O9 U2 1_555 1_555
O10 U2 1_555 1_555
O11 U1 1_555 1_555
C1 O5 1_555 1_555
C2 C1 1_555 1_555
H1 C2 1_555 1_555
H2 C2 1_555 1_555
C3 C2 1_555 1_555
H3 C3 1_555 1_555
H4 C3 1_555 1_555
C4 C3 1_555 1_555
H5 C4 1_555 1_555
H6 C4 1_555 1_555
C5 C4 1_555 1_555
H7 C5 1_555 1_555
H8 C5 1_555 1_555
C6 C5 1_555 1_555
C7 O9 1_555 1_555
C8 C7 1_555 1_555
H9 C8 1_555 1_555
H10 C8 1_555 1_555
C9 C8 1_555 1_555
H11 C9 1_555 1_555
H12 C9 1_555 1_555
O12 C10 1_555 1_555
O13 C13 1_555 1_555
O14 C16 1_555 1_555
O15 C19 1_555 1_555
O16 C22 1_555 1_555
O17 C25 1_555 1_555
O18 C28 1_555 1_555
O19 C31 1_555 1_555
N1 C10 1_555 1_555
N2 C10 1_555 1_555
N3 C12 1_555 1_555
N4 C11 1_555 1_555
N5 C14 1_555 1_555
N6 C16 1_555 1_555
N7 C18 1_555 1_555
N8 C15 1_555 1_555
N9 C20 1_555 1_555
N10 C22 1_555 1_555
N11 C24 1_555 1_555
N12 C21 1_555 1_555
N13 C26 1_555 1_555
N14 C28 1_555 1_555
N15 C30 1_555 1_555
N16 C27 1_555 1_555
C11 N1 1_555 1_555
H13 C11 1_555 1_555
C12 N2 1_555 1_555
H14 C12 1_555 1_555
C13 N3 1_555 1_555
C14 N2 1_555 1_555
H15 C14 1_555 1_555
H16 C14 1_555 1_555
C15 N3 1_555 1_555
H17 C15 1_555 1_555
H18 C15 1_555 1_555
C16 N5 1_555 1_555
C17 N5 1_555 1_555
H19 C17 1_555 1_555
C18 N6 1_555 1_555
H20 C18 1_555 1_555
C19 N7 1_555 1_555
C20 N6 1_555 1_555
H21 C20 1_555 1_555
H22 C20 1_555 1_555
C21 N7 1_555 1_555
H23 C21 1_555 1_555
H24 C21 1_555 1_555
C22 N9 1_555 1_555
C23 N9 1_555 1_555
H25 C23 1_555 1_555
C24 N10 1_555 1_555
H26 C24 1_555 1_555
C25 N11 1_555 1_555
C26 N10 1_555 1_555
H27 C26 1_555 1_555
H28 C26 1_555 1_555
C27 N11 1_555 1_555
H29 C27 1_555 1_555
H30 C27 1_555 1_555
C28 N13 1_555 1_555
C29 N13 1_555 1_555
H31 C29 1_555 1_555
C30 N14 1_555 1_555
H32 C30 1_555 1_555
C31 N15 1_555 1_555
C32 N4 1_555 1_555
H33 C32 1_555 1_555
H34 C32 1_555 1_555
C33 N1 1_555 1_555
H35 C33 1_555 1_555
H36 C33 1_555 1_555
O20 H37 1_555 1_555
H38 O20 1_555 1_555
O21 H39 1_555 1_555
H40 O21 1_555 1_555
N17 H41 1_555 1_555
H42 N17 1_555 1_555
C34 N17 1_555 1_555
H43 C34 1_555 1_555
H44 C34 1_555 1_555
H45 C34 1_555 1_555
C35 N17 1_555 1_555
H46 C35 1_555 1_555
H47 C35 1_555 1_555
H48 C35 1_555 1_555
U1A O1A 1_555 1_555
U1A_2 O7 1_555 1_555
U1B O11 1_555 1_555
U2A O3A 1_555 1_555
U2C O8 1_555 1_555
U2B O9B 1_555 1_555
U2B_2 O8A 1_555 1_555
O2A U1A 1_555 1_555
O4A U2A 1_555 1_555
O5A U1A 1_555 1_555
O6A U1A 1_555 1_555
O7A U1 1_555 1_555
O7_2 U1A 1_555 1_555
O8A C6A 1_555 1_555
O8C U2 1_555 1_555
O8B U2A 1_555 1_555
O9B C7B 1_555 1_555
O9A U2A 1_555 1_555
O10B U2B 1_555 1_555
O10A U2A 1_555 1_555
O11B U1 1_555 1_555
O11A U1A 1_555 1_555
O11C U1A 1_555 1_555
C1A O5A 1_555 1_555
C2A C1A 1_555 1_555
H1A C2A 1_555 1_555
H2A C2A 1_555 1_555
C3A C2A 1_555 1_555
H3A C3A 1_555 1_555
H4A C3A 1_555 1_555
C4A C3A 1_555 1_555
H5A C4A 1_555 1_555
H6A C4A 1_555 1_555
C5A C4A 1_555 1_555
H7A C5A 1_555 1_555
H8A C5A 1_555 1_555
C6A O7A 1_555 1_555
C7B O10B 1_555 1_555
C8B C7B 1_555 1_555
H9B C8B 1_555 1_555
H10B C8B 1_555 1_555
C9B C9 1_555 1_555
H11B C9B 1_555 1_555
H12B C9B 1_555 1_555
O12B C10B 1_555 1_555
O13B C13B 1_555 1_555
O14B C16B 1_555 1_555
O15B C19B 1_555 1_555
O16B C22B 1_555 1_555
O17B C25B 1_555 1_555
O18B C28B 1_555 1_555
O19B C31B 1_555 1_555
N1B C10B 1_555 1_555
N2B C10B 1_555 1_555
N3B C12B 1_555 1_555
N4B C11B 1_555 1_555
N5B C14B 1_555 1_555
N6B C16B 1_555 1_555
N7B C18B 1_555 1_555
N8B C15B 1_555 1_555
N9B C20B 1_555 1_555
N10B C22B 1_555 1_555
N11B C24B 1_555 1_555
N12B C21B 1_555 1_555
N13B C26B 1_555 1_555
N14B C32 1_555 1_555
N15B C33 1_555 1_555
N16B C27B 1_555 1_555
C11B N1B 1_555 1_555
H13B C11B 1_555 1_555
C12B N2B 1_555 1_555
H14B C12B 1_555 1_555
C13B N3B 1_555 1_555
C14B N2B 1_555 1_555
H15B C14B 1_555 1_555
H16B C14B 1_555 1_555
C15B N3B 1_555 1_555
H17B C15B 1_555 1_555
H18B C15B 1_555 1_555
C16B N5B 1_555 1_555
C17B N5B 1_555 1_555
H19B C17B 1_555 1_555
C18B N6B 1_555 1_555
H20B C18B 1_555 1_555
C19B N7B 1_555 1_555
C20B N6B 1_555 1_555
H21B C20B 1_555 1_555
H22B C20B 1_555 1_555
C21B N7B 1_555 1_555
H23B C21B 1_555 1_555
H24B C21B 1_555 1_555
C22B N9B 1_555 1_555
C23B N9B 1_555 1_555
H25B C23B 1_555 1_555
C24B N10B 1_555 1_555
H26B C24B 1_555 1_555
C25B N11B 1_555 1_555
C26B N10B 1_555 1_555
H27B C26B 1_555 1_555
H28B C26B 1_555 1_555
C27B N11B 1_555 1_555
H29B C27B 1_555 1_555
H30B C27B 1_555 1_555
C28B N13B 1_555 1_555
C29B N13B 1_555 1_555
H31B C29B 1_555 1_555
C30B N14B 1_555 1_555
H32B C30B 1_555 1_555
C31B N15B 1_555 1_555
C32B N14 1_555 1_555
H33B C32B 1_555 1_555
H34B C32B 1_555 1_555
C33B N15 1_555 1_555
H35B C33B 1_555 1_555
H36B C33B 1_555 1_555
U2 O5 1_555 1_555
U2 O11 1_555 1_555
O6 C1 1_555 1_555
O10 C7 1_555 1_555
N4 C13 1_555 1_555
N8 C17 1_555 1_555
N8 C19 1_555 1_555
N12 C23 1_555 1_555
N12 C25 1_555 1_555
N16 C29 1_555 1_555
N16 C31 1_555 1_555
C11 C12 1_555 1_555
C17 C18 1_555 1_555
C23 C24 1_555 1_555
C29 C30 1_555 1_555
U1B O11B 1_555 1_555
U2A O5A 1_555 1_555
U2A O11A 1_555 1_555
U2B_2 O11B 1_555 1_555
O6A C1A 1_555 1_555
C5A C6A 1_555 1_555
C8B C9B 1_555 1_555
N1B C33B 1_555 1_555
N4B C13B 1_555 1_555
N4B C32B 1_555 1_555
N8B C17B 1_555 1_555
N8B C19B 1_555 1_555
N12B C23B 1_555 1_555
N12B C25B 1_555 1_555
N14B C28B 1_555 1_555
N15B C30B 1_555 1_555
N16B C29B 1_555 1_555
N16B C31B 1_555 1_555
C11B C12B 1_555 1_555
C17B C18B 1_555 1_555
C23B C24B 1_555 1_555
C29B C30B 1_555 1_555

#END
