
#######################################################################
#
#                 Cambridge Crystallographic Data Centre
#                                CCDC 
#
#######################################################################
#
# If this CIF has been generated from an entry in the Cambridge 
# Structural Database, then it will include bibliographic, chemical, 
# crystal, experimental, refinement or atomic coordinate data resulting 
# from the CCDC's data processing and validation procedures.
#
#######################################################################

data_AWEBIO
_symmetry_cell_setting           monoclinic
_symmetry_space_group_name_H-M   'P 21/n'
_symmetry_Int_Tables_number      14
_space_group_name_Hall           '-P 2yn'
loop_
_symmetry_equiv_pos_site_id
_symmetry_equiv_pos_as_xyz
1 x,y,z
2 1/2-x,1/2+y,1/2-z
3 -x,-y,-z
4 1/2+x,1/2-y,1/2+z
_cell_length_a                   13.8427(4)
_cell_length_b                   10.8346(6)
_cell_length_c                   27.9882(15)
_cell_angle_alpha                90
_cell_angle_beta                 97.554(3)
_cell_angle_gamma                90
_cell_volume                     4161.24
loop_
_atom_site_label
_atom_site_type_symbol
_atom_site_fract_x
_atom_site_fract_y
_atom_site_fract_z
U1 U 0.40939(3) 0.12083(4) 0.475954(14)
U2 U 0.44671(3) 0.11329(4) 0.611289(15)
O1 O 0.4995(6) 0.2374(8) 0.4744(3)
O2 O 0.3110(6) 0.0145(8) 0.4739(3)
O3 O 0.5396(6) 0.2304(8) 0.6147(3)
O4 O 0.3520(6) 0.0025(8) 0.6120(3)
O5 O 0.4926(6) 0.0287(8) 0.5464(3)
O6 O 0.3625(6) 0.2155(8) 0.5459(3)
H1 H 0.3941 0.2852 0.5475
O7 O 0.8413(7) 0.2339(9) 0.1436(3)
O8 O 0.9337(7) 0.3400(10) 0.1984(3)
O9 O 0.3739(7) 0.1521(9) 0.3899(3)
O10 O 0.4369(7) 0.0191(9) 0.3441(3)
O11 O 0.2773(6) 0.2844(8) 0.4568(3)
O12 O 0.0203(6) 0.6707(8) 0.3436(3)
O13 O 0.3483(7) 0.4721(8) 0.5437(3)
O14 O 0.0837(6) 0.8708(9) 0.4324(3)
O15 O 0.1835(7) 0.4972(8) 0.6433(3)
O16 O -0.0594(6) 0.8562(9) 0.5269(3)
N1 N 0.1789(7) 0.3149(9) 0.3851(4)
N2 N 0.2853(7) 0.4598(9) 0.4106(4)
N3 N 0.1813(7) 0.6147(10) 0.3660(4)
N4 N 0.0735(8) 0.4693(10) 0.3411(4)
N5 N 0.3292(7) 0.6013(10) 0.4767(4)
N6 N 0.2889(8) 0.6680(11) 0.5455(4)
N7 N 0.1837(7) 0.8257(10) 0.5021(4)
N8 N 0.2232(7) 0.7545(10) 0.4328(4)
N9 N 0.1893(8) 0.6935(10) 0.6117(4)
N10 N 0.0753(7) 0.6527(10) 0.6575(4)
N11 N -0.0284(7) 0.7917(10) 0.6060(3)
N12 N 0.0944(7) 0.8591(9) 0.5701(4)
C1 C 0.8622(9) 0.2647(12) 0.1865(4)
C2 C 0.8067(11) 0.2149(15) 0.2241(5)
H2 H 0.7715 0.1413 0.2123
H3 H 0.8511 0.1929 0.2526
C3 C 0.7342(10) 0.3144(15) 0.2370(5)
H4 H 0.7012 0.3499 0.2075
H5 H 0.7704 0.3799 0.2550
C4 C 0.6577(11) 0.2644(17) 0.2668(5)
H6 H 0.6199 0.2011 0.2484
H7 H 0.6907 0.2262 0.2958
C5 C 0.5883(10) 0.3638(15) 0.2812(5)
H8 H 0.5594 0.4065 0.2524
H9 H 0.6257 0.4237 0.3017
C6 C 0.5069(10) 0.3138(14) 0.3076(5)
H10 H 0.4708 0.3829 0.3183
H11 H 0.5360 0.2697 0.3360
C7 C 0.4362(11) 0.2284(14) 0.2779(5)
H12 H 0.4093 0.2700 0.2484
H13 H 0.4707 0.1557 0.2691
C8 C 0.3529(9) 0.1889(12) 0.3056(4)
H14 H 0.3076 0.1374 0.2850
H15 H 0.3179 0.2616 0.3141
C9 C 0.3884(9) 0.1215(11) 0.3491(4)
C10 C 0.2482(8) 0.3497(10) 0.4213(4)
C11 C 0.1655(9) 0.4049(12) 0.3462(4)
H16 H 0.1787 0.3690 0.3156
C12 C 0.2413(8) 0.5066(12) 0.3642(4)
H17 H 0.2897 0.5176 0.3420
C13 C 0.0843(9) 0.5921(11) 0.3502(4)
C14 C 0.3667(8) 0.5161(11) 0.4425(4)
H18 H 0.4051 0.4518 0.4601
H19 H 0.4086 0.5606 0.4233
C15 C 0.2177(8) 0.7361(11) 0.3816(4)
H20 H 0.2821 0.7472 0.3721
H21 H 0.1754 0.7985 0.3652
C16 C 0.3248(9) 0.5701(11) 0.5238(5)
C17 C 0.3100(10) 0.7309(11) 0.4668(4)
H22 H 0.3672 0.7737 0.4577
C18 C 0.2818(9) 0.7794(11) 0.5151(4)
H23 H 0.3263 0.8444 0.5289
C19 C 0.1562(8) 0.8230(11) 0.4534(4)
C20 C 0.2873(9) 0.6810(12) 0.5970(4)
H24 H 0.3254 0.7530 0.6082
H25 H 0.3188 0.6095 0.6131
C21 C 0.1446(9) 0.9149(11) 0.5325(4)
H26 H 0.0993 0.9679 0.5126
H27 H 0.1973 0.9663 0.5476
C22 C 0.1525(8) 0.6038(12) 0.6375(4)
C23 C 0.1417(9) 0.8119(11) 0.6143(4)
H28 H 0.1853 0.8731 0.6316
C24 C 0.0545(9) 0.7794(12) 0.6425(4)
H29 H 0.0508 0.8347 0.6699
C25 C -0.0039(9) 0.8377(11) 0.5635(4)
C26 C -0.0154(9) 0.4199(11) 0.3139(4)
H30 H 0.0024 0.3686 0.2881
H31 H -0.0540 0.4880 0.2994
C27 C 0.1299(9) 0.1989(12) 0.3837(4)
H32 H 0.1301 0.1626 0.3521
H33 H 0.1655 0.1440 0.4071
U1B U 0.59061(3) -0.12083(4) 0.524046(14)
U1B_2 U -0.40939(3) 0.87917(4) 0.524046(14)
U2B U 0.55329(3) -0.11329(4) 0.388711(15)
U2C U 0.94671(3) 0.38671(4) 0.111289(15)
U2A U 0.05329(3) -0.38671(4) 0.888711(15)
O1B O 0.5005(6) -0.2374(8) 0.5256(3)
O2B O 0.6890(6) -0.0145(8) 0.5261(3)
O3B O 0.4604(6) -0.2304(8) 0.3853(3)
O4B O 0.6480(6) -0.0025(8) 0.3880(3)
O5B O 0.5074(6) -0.0287(8) 0.4536(3)
O6B O 0.6375(6) -0.2155(8) 0.4541(3)
H1B H 0.6059 -0.2852 0.4525
O7B O 0.1587(7) -0.2339(9) 0.8564(3)
O7C O 0.3413(7) 0.2661(9) 0.6436(3)
O7A O 0.6587(7) -0.2661(9) 0.3564(3)
O8B O 0.0663(7) -0.3400(10) 0.8016(3)
O8C O 0.4337(7) 0.1600(10) 0.6984(3)
O8A O 0.5663(7) -0.1600(10) 0.3016(3)
O9B O 0.6261(7) -0.1521(9) 0.6101(3)
O10B O 0.5631(7) -0.0191(9) 0.6559(3)
O11B O -0.2773(6) 0.7156(8) 0.5432(3)
O11B_2 O 0.7227(6) -0.2844(8) 0.5432(3)
O12B O -0.0203(6) 0.3293(8) 0.6564(3)
O13B O -0.3483(7) 0.5279(8) 0.4563(3)
O14B O -0.0837(6) 0.1292(9) 0.5676(3)
O15B O -0.1835(7) 0.5028(8) 0.3567(3)
O16B O 0.0594(6) 0.1438(9) 0.4731(3)
N1B N -0.1789(7) 0.6851(9) 0.6149(4)
N2B N -0.2853(7) 0.5402(9) 0.5894(4)
N3B N -0.1813(7) 0.3853(10) 0.6340(4)
N4B N -0.0735(8) 0.5307(10) 0.6589(4)
N5B N -0.3292(7) 0.3987(10) 0.5233(4)
N6B N -0.2889(8) 0.3320(11) 0.4545(4)
N7B N -0.1837(7) 0.1743(10) 0.4979(4)
N8B N -0.2232(7) 0.2455(10) 0.5672(4)
N9B N -0.1893(8) 0.3065(10) 0.3883(4)
N10B N -0.0753(7) 0.3473(10) 0.3425(4)
N11B N 0.0284(7) 0.2083(10) 0.3940(3)
N12B N -0.0944(7) 0.1409(9) 0.4299(4)
C1B C 0.1378(9) -0.2647(12) 0.8135(4)
C2B C 0.1933(11) -0.2149(15) 0.7759(5)
H2B H 0.2285 -0.1413 0.7877
H3B H 0.1489 -0.1929 0.7474
C3B C 0.2658(10) -0.3144(15) 0.7630(5)
H4B H 0.2988 -0.3499 0.7925
H5B H 0.2296 -0.3799 0.7450
C4B C 0.3423(11) -0.2644(17) 0.7332(5)
H6B H 0.3801 -0.2011 0.7516
H7B H 0.3093 -0.2262 0.7042
C5B C 0.4117(10) -0.3638(15) 0.7188(5)
H8B H 0.4406 -0.4065 0.7476
H9B H 0.3743 -0.4237 0.6983
C6B C 0.4931(10) -0.3138(14) 0.6924(5)
H10B H 0.5292 -0.3829 0.6817
H11B H 0.4640 -0.2697 0.6640
C7B C 0.5638(11) -0.2284(14) 0.7221(5)
H12B H 0.5907 -0.2700 0.7516
H13B H 0.5293 -0.1557 0.7309
C8B C 0.6471(9) -0.1889(12) 0.6944(4)
H14B H 0.6924 -0.1374 0.7150
H15B H 0.6821 -0.2616 0.6859
C9B C 0.6116(9) -0.1215(11) 0.6509(4)
C10B C -0.2482(8) 0.6503(10) 0.5787(4)
C11B C -0.1655(9) 0.5951(12) 0.6538(4)
H16B H -0.1787 0.6310 0.6844
C12B C -0.2413(8) 0.4934(12) 0.6358(4)
H17B H -0.2897 0.4824 0.6580
C13B C -0.0843(9) 0.4079(11) 0.6498(4)
C14B C -0.3667(8) 0.4839(11) 0.5575(4)
H18B H -0.4051 0.5482 0.5399
H19B H -0.4086 0.4394 0.5767
C15B C -0.2177(8) 0.2639(11) 0.6184(4)
H20B H -0.2821 0.2528 0.6279
H21B H -0.1754 0.2015 0.6348
C16B C -0.3248(9) 0.4299(11) 0.4762(5)
C17B C -0.3100(10) 0.2691(11) 0.5332(4)
H22B H -0.3672 0.2263 0.5423
C18B C -0.2818(9) 0.2206(11) 0.4849(4)
H23B H -0.3263 0.1556 0.4711
C19B C -0.1562(8) 0.1770(11) 0.5466(4)
C20B C -0.2873(9) 0.3190(12) 0.4030(4)
H24B H -0.3254 0.2470 0.3918
H25B H -0.3188 0.3905 0.3869
C21B C -0.1446(9) 0.0851(11) 0.4675(4)
H26B H -0.0993 0.0321 0.4874
H27B H -0.1973 0.0337 0.4524
C22B C -0.1525(8) 0.3962(12) 0.3625(4)
C23B C -0.1417(9) 0.1881(11) 0.3857(4)
H28B H -0.1853 0.1269 0.3684
C24B C -0.0545(9) 0.2206(12) 0.3575(4)
H29B H -0.0508 0.1653 0.3301
C25B C 0.0039(9) 0.1623(11) 0.4365(4)
C26B C 0.0154(9) 0.5801(11) 0.6861(4)
H30B H -0.0024 0.6314 0.7119
H31B H 0.0540 0.5120 0.7006
C27B C -0.1299(9) 0.8011(12) 0.6163(4)
H32B H -0.1301 0.8374 0.6479
H33B H -0.1655 0.8560 0.5929
O17 O 0.6145(9) 0.3580(12) 0.7076(4)
H34 H 0.6257 0.3007 0.6810
H35 H 0.6344 0.3084 0.7325
O18 O -0.1768(9) 0.6242(12) 0.7688(4)
H36 H -0.1366 0.5790 0.7890
H37 H -0.2233 0.6293 0.7822
O19 O 0.0052(8) 0.9332(9) 0.3407(3)
H38 H 0.0379 0.9044 0.3635
H39 H 0.0325 0.9785 0.3228
O20 O 0.6561(8) 0.5065(10) 0.7880(4)
N13 N 0.1815(8) 0.3166(10) 0.5655(4)
H40 H 0.2237 0.2861 0.5467
H41 H 0.2158 0.3612 0.5890
C28 C 0.1122(11) 0.3987(15) 0.5364(6)
H42 H 0.0788 0.3534 0.5097
H43 H 0.1470 0.4664 0.5245
H44 H 0.0657 0.4299 0.5559
C29 C 0.1353(10) 0.2152(13) 0.5871(5)
H45 H 0.0878 0.2468 0.6060
H46 H 0.1835 0.1689 0.6073
H47 H 0.1037 0.1626 0.5622
loop_
_geom_bond_atom_site_label_1
_geom_bond_atom_site_label_2
_geom_bond_site_symmetry_1
_geom_bond_site_symmetry_2
U1 O1 1_555 1_555
U2 O3 1_555 1_555
O2 U1 1_555 1_555
O4 U2 1_555 1_555
O5 U1 1_555 1_555
O6 U1 1_555 1_555
H1 O6 1_555 1_555
O7 C1 1_555 1_555
O8 C1 1_555 1_555
O9 U1 1_555 1_555
O10 C9 1_555 1_555
O11 U1 1_555 1_555
O12 C13 1_555 1_555
O13 C16 1_555 1_555
O14 C19 1_555 1_555
O15 C22 1_555 1_555
O16 C25 1_555 1_555
N1 C10 1_555 1_555
N2 C10 1_555 1_555
N3 C12 1_555 1_555
N4 C11 1_555 1_555
N5 C14 1_555 1_555
N6 C16 1_555 1_555
N7 C18 1_555 1_555
N8 C15 1_555 1_555
N9 C20 1_555 1_555
N10 C22 1_555 1_555
N11 C24 1_555 1_555
N12 C21 1_555 1_555
C1 C2 1_555 1_555
C2 H2 1_555 1_555
H3 C2 1_555 1_555
C3 C2 1_555 1_555
H4 C3 1_555 1_555
H5 C3 1_555 1_555
C4 C3 1_555 1_555
H6 C4 1_555 1_555
H7 C4 1_555 1_555
C5 C4 1_555 1_555
H8 C5 1_555 1_555
H9 C5 1_555 1_555
C6 C5 1_555 1_555
H10 C6 1_555 1_555
H11 C6 1_555 1_555
C7 C6 1_555 1_555
H12 C7 1_555 1_555
H13 C7 1_555 1_555
C8 C7 1_555 1_555
H14 C8 1_555 1_555
H15 C8 1_555 1_555
C9 O9 1_555 1_555
C10 O11 1_555 1_555
C11 N1 1_555 1_555
H16 C11 1_555 1_555
C12 N2 1_555 1_555
H17 C12 1_555 1_555
C13 N3 1_555 1_555
C14 N2 1_555 1_555
H18 C14 1_555 1_555
H19 C14 1_555 1_555
C15 N3 1_555 1_555
H20 C15 1_555 1_555
H21 C15 1_555 1_555
C16 N5 1_555 1_555
C17 N5 1_555 1_555
H22 C17 1_555 1_555
C18 N6 1_555 1_555
H23 C18 1_555 1_555
C19 N7 1_555 1_555
C20 N6 1_555 1_555
H24 C20 1_555 1_555
H25 C20 1_555 1_555
C21 N7 1_555 1_555
H26 C21 1_555 1_555
H27 C21 1_555 1_555
C22 N9 1_555 1_555
C23 N9 1_555 1_555
H28 C23 1_555 1_555
C24 N10 1_555 1_555
H29 C24 1_555 1_555
C25 N11 1_555 1_555
C26 N4 1_555 1_555
H30 C26 1_555 1_555
H31 C26 1_555 1_555
C27 N1 1_555 1_555
H32 C27 1_555 1_555
H33 C27 1_555 1_555
O17 H34 1_555 1_555
H35 O17 1_555 1_555
O18 H36 1_555 1_555
H37 O18 1_555 1_555
O19 H38 1_555 1_555
H39 O19 1_555 1_555
N13 H40 1_555 1_555
H41 N13 1_555 1_555
C28 N13 1_555 1_555
H42 C28 1_555 1_555
H43 C28 1_555 1_555
H44 C28 1_555 1_555
C29 N13 1_555 1_555
H45 C29 1_555 1_555
H46 C29 1_555 1_555
H47 C29 1_555 1_555
U1B O5 1_555 1_555
U1B_2 O11B 1_555 1_555
U2B O10 1_555 1_555
U2C O7 1_555 1_555
U2A O7B 1_555 1_555
O1B U1B 1_555 1_555
O2B U1B 1_555 1_555
O3B U2B 1_555 1_555
O4B U2B 1_555 1_555
O5B U1 1_555 1_555
O6B U1B 1_555 1_555
H1B O6B 1_555 1_555
O7B C1B 1_555 1_555
O7C U2 1_555 1_555
O7A U2B 1_555 1_555
O8B U2A 1_555 1_555
O8C U2 1_555 1_555
O8A U2B 1_555 1_555
O9B U1B 1_555 1_555
O10B U2 1_555 1_555
O11B C10B 1_555 1_555
O11B_2 U1B 1_555 1_555
O12B C13B 1_555 1_555
O13B C16B 1_555 1_555
O14B C19B 1_555 1_555
O15B C22B 1_555 1_555
O16B C25B 1_555 1_555
N1B C10B 1_555 1_555
N2B C10B 1_555 1_555
N3B C12B 1_555 1_555
N4B C11B 1_555 1_555
N5B C14B 1_555 1_555
N6B C16B 1_555 1_555
N7B C18B 1_555 1_555
N8B C15B 1_555 1_555
N9B C20B 1_555 1_555
N10B C26 1_555 1_555
N11B C27 1_555 1_555
N12B C21B 1_555 1_555
C1B O8B 1_555 1_555
C2B C1B 1_555 1_555
H2B C2B 1_555 1_555
H3B C2B 1_555 1_555
C3B C2B 1_555 1_555
H4B C3B 1_555 1_555
H5B C3B 1_555 1_555
C4B C3B 1_555 1_555
H6B C4B 1_555 1_555
H7B C4B 1_555 1_555
C5B C4B 1_555 1_555
H8B C5B 1_555 1_555
H9B C5B 1_555 1_555
C6B C5B 1_555 1_555
H10B C6B 1_555 1_555
H11B C6B 1_555 1_555
C7B C6B 1_555 1_555
H12B C7B 1_555 1_555
H13B C7B 1_555 1_555
C8B C7B 1_555 1_555
H14B C8B 1_555 1_555
H15B C8B 1_555 1_555
C9B O9B 1_555 1_555
C11B N1B 1_555 1_555
H16B C11B 1_555 1_555
C12B N2B 1_555 1_555
H17B C12B 1_555 1_555
C13B N3B 1_555 1_555
C14B N2B 1_555 1_555
H18B C14B 1_555 1_555
H19B C14B 1_555 1_555
C15B N3B 1_555 1_555
H20B C15B 1_555 1_555
H21B C15B 1_555 1_555
C16B N5B 1_555 1_555
C17B N5B 1_555 1_555
H22B C17B 1_555 1_555
C18B N6B 1_555 1_555
H23B C18B 1_555 1_555
C19B N7B 1_555 1_555
C20B N6B 1_555 1_555
H24B C20B 1_555 1_555
H25B C20B 1_555 1_555
C21B N7B 1_555 1_555
H26B C21B 1_555 1_555
H27B C21B 1_555 1_555
C22B N9B 1_555 1_555
C23B N9B 1_555 1_555
H28B C23B 1_555 1_555
C24B N10B 1_555 1_555
H29B C24B 1_555 1_555
C25B N11B 1_555 1_555
C26B N10 1_555 1_555
H30B C26B 1_555 1_555
H31B C26B 1_555 1_555
C27B N11 1_555 1_555
H32B C27B 1_555 1_555
H33B C27B 1_555 1_555
U2 O5 1_555 1_555
U2 O6 1_555 1_555
O8 U2C 1_555 1_555
N4 C13 1_555 1_555
N8 C17 1_555 1_555
N8 C19 1_555 1_555
N12 C23 1_555 1_555
N12 C25 1_555 1_555
C8 C9 1_555 1_555
C11 C12 1_555 1_555
C17 C18 1_555 1_555
C23 C24 1_555 1_555
U1B O5B 1_555 1_555
U2B O5B 1_555 1_555
U2B O6B 1_555 1_555
O10B C9B 1_555 1_555
N1B C27B 1_555 1_555
N4B C13B 1_555 1_555
N4B C26B 1_555 1_555
N8B C17B 1_555 1_555
N8B C19B 1_555 1_555
N10B C22B 1_555 1_555
N11B C24B 1_555 1_555
N12B C23B 1_555 1_555
N12B C25B 1_555 1_555
C8B C9B 1_555 1_555
C11B C12B 1_555 1_555
C17B C18B 1_555 1_555
C23B C24B 1_555 1_555

#END
