
#######################################################################
#
#                 Cambridge Crystallographic Data Centre
#                                CCDC 
#
#######################################################################
#
# If this CIF has been generated from an entry in the Cambridge 
# Structural Database, then it will include bibliographic, chemical, 
# crystal, experimental, refinement or atomic coordinate data resulting 
# from the CCDC's data processing and validation procedures.
#
#######################################################################

data_AWECUB
_symmetry_cell_setting           orthorhombic
_symmetry_space_group_name_H-M   'P n a 21'
_symmetry_Int_Tables_number      33
_space_group_name_Hall           'P 2c -2n'
loop_
_symmetry_equiv_pos_site_id
_symmetry_equiv_pos_as_xyz
1 x,y,z
2 -x,-y,1/2+z
3 1/2-x,1/2+y,1/2+z
4 1/2+x,1/2-y,z
_cell_length_a                   8.0336(11)
_cell_length_b                   5.5785(7)
_cell_length_c                   51.750(8)
_cell_angle_alpha                90
_cell_angle_beta                 90
_cell_angle_gamma                90
_cell_volume                     2319.2
loop_
_atom_site_label
_atom_site_type_symbol
_atom_site_fract_x
_atom_site_fract_y
_atom_site_fract_z
Zn1 Zn 0.39361(10) 0.70432(14) 0.5000
O1 O 0.4065(8) 0.7731(11) 0.46316(11)
O2 O 0.6309(9) 0.7709(12) 0.58391(12)
O3 O 0.3047(7) 0.3696(9) 0.49916(15)
C1 C 0.8809(13) 0.6740(16) 0.71481(17)
H1 H 0.8076 0.7991 0.7097
C2 C 0.6339(11) 1.1639(16) 0.42016(18)
H2 H 0.6676 1.2854 0.4319
C3 C 0.8642(12) 1.1867(19) 0.31530(18)
H3 H 0.9360 1.3121 0.3098
C4 C 1.0878(13) 0.3096(18) 0.73024(17)
H4 H 1.1573 0.1804 0.7354
O4 O 0.5270(8) 1.1218(10) 0.47216(11)
C5 C 0.8932(14) 0.3334(16) 0.65136(17)
H5 H 0.9523 0.1942 0.6566
C6 C 0.4963(12) 0.7964(17) 0.41174(16)
H6 H 0.4327 0.6630 0.4175
C7 C 0.7201(13) 0.7312(17) 0.63554(17)
H7 H 0.6607 0.8696 0.6301
O5 O 0.8523(7) 0.6050(11) 0.53275(11)
C8 C 0.6834(12) 1.1787(16) 0.39457(17)
H8 H 0.7429 1.3161 0.3889
C9 C 0.8104(13) 1.179(2) 0.34043(17)
H9 H 0.8468 1.3001 0.3521
C10 C 0.8675(11) 0.5120(15) 0.66943(16)
C11 C 0.9393(12) 0.6645(18) 0.74026(18)
H10 H 0.9074 0.7854 0.7522
C12 C 0.5481(11) 0.8084(17) 0.38607(17)
H11 H 0.5146 0.6855 0.3745
C13 C 0.5976(12) 0.4143(16) 0.54737(16)
H12 H 0.5705 0.2594 0.5390
H13 H 0.4915 0.4984 0.5509
C14 C 0.7752(12) 0.7163(18) 0.66073(17)
H14 H 0.7516 0.8430 0.6724
O6 O 0.6354(7) 0.6399(10) 0.50825(10)
C15 C 0.5368(11) 0.9775(16) 0.42900(17)
C16 C 0.4874(11) 0.9589(15) 0.45659(17)
C17 C 1.0353(13) 0.3184(18) 0.70501(17)
H15 H 1.0710 0.1998 0.6931
C18 C 0.7041(11) 1.0006(17) 0.34935(17)
C19 C 0.8383(12) 0.3453(16) 0.62624(18)
H16 H 0.8601 0.2174 0.6146
C20 C 0.6476(11) 0.9948(16) 0.37681(16)
C21 C 0.6992(11) 0.5626(13) 0.52895(16)
C22 C 0.9292(11) 0.5021(16) 0.69692(17)
C23 C 0.6858(13) 0.3654(15) 0.57298(17)
H17 H 0.6303 0.2292 0.5817
H18 H 0.8023 0.3176 0.5694
C24 C 1.0451(11) 0.4775(19) 0.74835(19)
H19 H 1.0849 0.4682 0.7656
C25 C 0.6863(11) 0.5805(16) 0.59111(17)
C26 C 0.7497(11) 0.5482(16) 0.61791(16)
C27 C 0.6577(12) 0.8256(17) 0.33180(17)
H20 H 0.5872 0.6985 0.3372
C28 C 0.7122(13) 0.8329(18) 0.30655(18)
H21 H 0.6786 0.7112 0.2948
C29 C 0.8153(13) 1.0152(19) 0.29805(19)
H22 H 0.8514 1.0210 0.2806
H23 H 0.186(3) 0.368(15) 0.4933(13)
H24 H 0.378(7) 0.295(15) 0.4859(11)
Zn1C Zn 0.89361(10) 0.79568(14) 0.5000
O5C O 0.3523(7) 0.8950(11) 0.53275(11)
O6C O 0.1354(7) 0.8601(10) 0.50825(10)
C21C C 0.1992(11) 0.9374(13) 0.52895(16)
loop_
_geom_bond_atom_site_label_1
_geom_bond_atom_site_label_2
_geom_bond_site_symmetry_1
_geom_bond_site_symmetry_2
Zn1 O1 1_555 1_555
O1 C16 1_555 1_555
O2 C25 1_555 1_555
O3 Zn1 1_555 1_555
C1 H1 1_555 1_555
C2 H2 1_555 1_555
C3 H3 1_555 1_555
C4 H4 1_555 1_555
O4 C16 1_555 1_555
C5 H5 1_555 1_555
C6 H6 1_555 1_555
C7 H7 1_555 1_555
O5 C21 1_555 1_555
C8 C2 1_555 1_555
H8 C8 1_555 1_555
C9 C3 1_555 1_555
H9 C9 1_555 1_555
C10 C5 1_555 1_555
C11 C1 1_555 1_555
H10 C11 1_555 1_555
C12 C6 1_555 1_555
H11 C12 1_555 1_555
C13 H12 1_555 1_555
H13 C13 1_555 1_555
C14 C7 1_555 1_555
H14 C14 1_555 1_555
O6 Zn1 1_555 1_555
C15 C2 1_555 1_555
C16 C15 1_555 1_555
C17 C4 1_555 1_555
H15 C17 1_555 1_555
C18 C9 1_555 1_555
C19 C5 1_555 1_555
H16 C19 1_555 1_555
C20 C8 1_555 1_555
C21 C13 1_555 1_555
C22 C1 1_555 1_555
C23 C13 1_555 1_555
H17 C23 1_555 1_555
H18 C23 1_555 1_555
C24 C4 1_555 1_555
H19 C24 1_555 1_555
C25 C23 1_555 1_555
C26 C7 1_555 1_555
C27 C18 1_555 1_555
H20 C27 1_555 1_555
C28 C27 1_555 1_555
H21 C28 1_555 1_555
C29 C3 1_555 1_555
H22 C29 1_555 1_555
H23 O3 1_555 1_555
H24 O3 1_555 1_555
Zn1C O5 1_555 1_555
O5C Zn1 1_555 1_555
O6C Zn1 1_555 1_555
C21C O5C 1_555 1_555
C6 C15 1_555 1_555
C10 C14 1_555 1_555
C10 C22 1_555 1_555
C11 C24 1_555 1_555
C12 C20 1_555 1_555
O6 C21 1_555 1_555
O6 Zn1C 1_555 1_555
C17 C22 1_555 1_555
C18 C20 1_555 1_555
C19 C26 1_555 1_555
C25 C26 1_555 1_555
C28 C29 1_555 1_555
O6C C21C 1_555 1_555

#END
