
#######################################################################
#
#                 Cambridge Crystallographic Data Centre
#                                CCDC 
#
#######################################################################
#
# If this CIF has been generated from an entry in the Cambridge 
# Structural Database, then it will include bibliographic, chemical, 
# crystal, experimental, refinement or atomic coordinate data resulting 
# from the CCDC's data processing and validation procedures.
#
#######################################################################

data_AWECEL
_symmetry_cell_setting           triclinic
_symmetry_space_group_name_H-M   'P -1'
_symmetry_Int_Tables_number      2
_space_group_name_Hall           '-P 1'
loop_
_symmetry_equiv_pos_site_id
_symmetry_equiv_pos_as_xyz
1 x,y,z
2 -x,-y,-z
_cell_length_a                   11.4855(6)
_cell_length_b                   17.7608(9)
_cell_length_c                   17.8932(4)
_cell_angle_alpha                81.984(3)
_cell_angle_beta                 81.888(3)
_cell_angle_gamma                71.627(2)
_cell_volume                     3411.77
loop_
_atom_site_label
_atom_site_type_symbol
_atom_site_fract_x
_atom_site_fract_y
_atom_site_fract_z
O11 O 0.0181(5) 0.7828(3) 0.5346(4)
H29 H 0.0776 0.7371 0.5200
H30 H -0.0569 0.7770 0.5625
O12 O 0.256(2) 0.6992(11) 0.7261(14)
O13 O -0.0030(12) 0.1291(7) 1.1806(8)
O14 O -0.2163(12) 0.2447(9) 1.1241(9)
O15 O 0.0160(15) 0.2356(12) 0.2663(10)
U1 U 0.55281(3) 0.475515(16) 0.596822(18)
U2 U 0.19941(3) 0.53422(2) 0.58580(2)
U3 U 0.33199(2) 0.029710(17) 1.024060(17)
U4 U 0.52442(3) 0.195786(17) 0.990502(18)
O16 O 0.5768(5) 0.3726(3) 0.5953(4)
O17 O 0.5365(6) 0.5767(3) 0.6061(4)
O18 O 0.2015(7) 0.4355(4) 0.5822(5)
O19 O 0.1887(7) 0.6340(4) 0.5871(6)
O20 O 0.3501(5) -0.0001(3) 1.1213(3)
O21 O 0.2986(5) 0.0612(3) 0.9280(3)
O22 O 0.5157(7) 0.2014(4) 0.8919(4)
O23 O 0.5301(6) 0.1946(4) 1.0891(4)
O24 O 0.3874(5) 0.5087(3) 0.5294(3)
O25 O 0.5037(5) -0.0744(3) 0.9910(4)
O26 O 0.3430(7) 0.4876(6) 0.6776(5)
O27 O 0.5009(7) 0.4620(5) 0.7390(4)
O28 O 0.3129(6) 0.2378(4) 1.0146(5)
O29 O 0.2020(6) 0.1576(4) 1.0597(4)
O30 O 0.7315(10) 0.4356(7) 0.6779(6)
O31 O 0.7883(10) 0.4528(7) 0.5595(6)
O32 O 0.7234(5) 0.0963(3) 0.9783(3)
O33 O 0.8764(5) -0.0065(3) 0.9440(4)
O34 O 0.0636(5) 0.5373(5) 0.7021(4)
O35 O -0.1258(8) 0.5928(9) 0.6660(6)
O36 O -0.3210(7) 0.2664(4) 0.9726(6)
O37 O -0.5140(7) 0.3411(4) 0.9739(5)
O38 O -0.0061(12) 0.5612(9) 0.5349(7)
C21 C 0.3865(11) 0.4748(7) 0.7410(6)
C22 C 0.3058(11) 0.4721(8) 0.8130(6)
H31 H 0.2387 0.5216 0.8142
H32 H 0.3529 0.4678 0.8552
C23 C 0.2520(10) 0.4022(6) 0.8232(6)
H33 H 0.3191 0.3528 0.8208
H34 H 0.2033 0.4072 0.7816
C24 C 0.1702(10) 0.3979(7) 0.8990(6)
H35 H 0.2195 0.3902 0.9407
H36 H 0.1049 0.4481 0.9025
C25 C 0.1136(11) 0.3309(7) 0.9059(7)
H37 H 0.1796 0.2814 0.8998
H38 H 0.0632 0.3399 0.8645
C26 C 0.0345(10) 0.3204(7) 0.9804(8)
H39 H -0.0320 0.3696 0.9865
H40 H -0.0025 0.2789 0.9771
C27 C 0.1014(10) 0.2995(6) 1.0475(6)
H41 H 0.0465 0.2897 1.0916
H42 H 0.1282 0.3442 1.0556
C28 C 0.2132(9) 0.2261(5) 1.0400(5)
C29 C 0.8184(8) 0.4218(11) 0.6248(7)
C30 C 0.9517(7) 0.3734(6) 0.6359(6)
H43 H 0.9802 0.3293 0.6047
H44 H 1.0064 0.4062 0.6227
C31 C 0.9550(9) 0.3417(5) 0.7173(6)
H45 H 0.9050 0.3835 0.7480
H46 H 1.0392 0.3274 0.7299
C32 C 0.9085(9) 0.2687(6) 0.7375(6)
H47 H 0.8206 0.2848 0.7330
H48 H 0.9493 0.2299 0.7017
C33 C 0.9320(9) 0.2302(5) 0.8173(6)
H49 H 1.0203 0.2106 0.8206
H50 H 0.8968 0.2702 0.8527
C34 C 0.8779(9) 0.1617(6) 0.8406(6)
H51 H 0.9107 0.1222 0.8046
H52 H 0.7891 0.1813 0.8399
C35 C 0.9099(8) 0.1220(5) 0.9223(6)
H53 H 0.9974 0.0938 0.9210
H54 H 0.8906 0.1629 0.9567
C36 C 0.8387(8) 0.0659(5) 0.9499(5)
C37 C -0.0484(8) 0.5753(12) 0.7130(6)
C38 C -0.0956(10) 0.5987(10) 0.7930(6)
H55 H -0.0598 0.6380 0.8025
H56 H -0.0671 0.5526 0.8283
C39 C -0.2348(10) 0.6292(7) 0.8092(9)
H57 H -0.2649 0.6695 0.7690
H58 H -0.2532 0.6544 0.8553
C40 C -0.3014(16) 0.5661(10) 0.8167(9)
H59 H -0.2752 0.5359 0.7736
H60 H -0.3878 0.5939 0.8158
C41 C -0.283(2) 0.5096(10) 0.8887(10)
H61 H -0.3102 0.5399 0.9317
H62 H -0.1963 0.4827 0.8900
C42 C -0.352(2) 0.4481(10) 0.8992(10)
H63 H -0.3140 0.4114 0.8619
H64 H -0.4358 0.4741 0.8882
C43 C -0.3560(13) 0.4035(6) 0.9769(9)
H65 H -0.4089 0.4380 1.0127
H66 H -0.2743 0.3864 0.9925
C44 C -0.4026(9) 0.3309(5) 0.9829(12)
U1A U 0.44719(3) 0.524485(16) 0.403178(18)
U2A U 0.80059(3) 0.46578(2) 0.41420(2)
U2_2 U 1.19941(3) 0.53422(2) 0.58580(2)
U3A U 0.66801(2) -0.029710(17) 0.975940(17)
U3_2 U 0.33199(2) 1.029710(17) 0.024060(17)
U3A_2 U 0.66801(2) 0.970290(17) -0.024060(17)
U4A U 0.47558(3) -0.195786(17) 1.009498(18)
U4_2 U -0.47558(3) 0.195786(17) 0.990502(18)
U4A_2 U 0.47558(3) 0.804214(17) 0.009498(18)
O16A O 0.4232(5) 0.6274(3) 0.4047(4)
O17A O 0.4635(6) 0.4233(3) 0.3939(4)
O18A O 0.7985(7) 0.5645(4) 0.4178(5)
O19A O 0.8113(7) 0.3660(4) 0.4129(6)
O20A O 0.6499(5) 0.0001(3) 0.8787(3)
O21A O 0.7014(5) -0.0612(3) 1.0720(3)
O22A O 0.4843(7) -0.2014(4) 1.1081(4)
O23A O 0.4699(6) -0.1946(4) 0.9109(4)
O24A O 0.6126(5) 0.4913(3) 0.4706(3)
O25A O 0.4963(5) 0.0744(3) 1.0090(4)
O26A O 0.6570(7) 0.5124(6) 0.3224(5)
O27A O 0.4991(7) 0.5380(5) 0.2610(4)
O28A O 0.6871(6) 0.7622(4) -0.0146(5)
O28A_2 O 0.6871(6) -0.2378(4) 0.9854(5)
O29A O 0.7980(6) 0.8424(4) -0.0597(4)
O29A_2 O 0.7980(6) -0.1576(4) 0.9403(4)
O30A O 0.2685(10) 0.5644(7) 0.3221(6)
O31A O 0.2117(10) 0.5472(7) 0.4405(6)
O32A O 0.2766(5) 0.9037(3) 0.0217(3)
O32A_2 O 0.2766(5) -0.0963(3) 1.0217(3)
O33A O 0.1236(5) 1.0065(3) 0.0560(4)
O33A_2 O 0.1236(5) 0.0065(3) 1.0560(4)
O34_2 O 1.0636(5) 0.5373(5) 0.7021(4)
O34A O 0.9364(5) 0.4627(5) 0.2979(4)
O35_2 O 0.8742(8) 0.5928(9) 0.6660(6)
O36_2 O 0.6790(7) 0.2664(4) 0.9726(6)
O36A O 0.3210(7) -0.2664(4) 1.0274(6)
O37_2 O 0.4860(7) 0.3411(4) 0.9739(5)
O37A O 0.5140(7) -0.3411(4) 1.0261(5)
O38A O 1.0061(12) 0.4388(9) 0.4651(7)
C21A C 0.6135(11) 0.5252(7) 0.2590(6)
C22A C 0.6942(11) 0.5279(8) 0.1870(6)
H31A H 0.7613 0.4784 0.1858
H32A H 0.6471 0.5322 0.1448
C23A C 0.7480(10) 0.5978(6) 0.1768(6)
H33A H 0.6809 0.6472 0.1792
H34A H 0.7967 0.5928 0.2184
C24A C 0.8298(10) 0.6021(7) 0.1010(6)
H35A H 0.7805 0.6098 0.0593
H36A H 0.8951 0.5519 0.0975
C25A C 0.8864(11) 0.6691(7) 0.0941(7)
H37A H 0.8204 0.7186 0.1002
H38A H 0.9368 0.6601 0.1355
C26A C 0.9655(10) 0.6796(7) 0.0196(8)
H39A H 1.0320 0.6304 0.0135
H40A H 1.0025 0.7211 0.0229
C27A C 0.8986(10) 0.7005(6) -0.0475(6)
H41A H 0.9535 0.7103 -0.0916
H42A H 0.8718 0.6558 -0.0556
C28A C 0.7868(9) 0.7739(5) -0.0400(5)
C29A C 0.1816(8) 0.5782(11) 0.3752(7)
C30A C 0.0483(7) 0.6266(6) 0.3641(6)
H43A H 0.0198 0.6707 0.3953
H44A H -0.0064 0.5938 0.3773
C31A C 0.0450(9) 0.6583(5) 0.2827(6)
H45A H 0.0950 0.6165 0.2520
H46A H -0.0392 0.6726 0.2701
C32A C 0.0915(9) 0.7313(6) 0.2625(6)
H47A H 0.1794 0.7152 0.2670
H48A H 0.0507 0.7701 0.2983
C33A C 0.0680(9) 0.7698(5) 0.1827(6)
H49A H -0.0203 0.7894 0.1794
H50A H 0.1032 0.7298 0.1473
C34A C 0.1221(9) 0.8383(6) 0.1594(6)
H51A H 0.0893 0.8778 0.1954
H52A H 0.2109 0.8187 0.1601
C35A C 0.0901(8) 0.8780(5) 0.0777(6)
H53A H 0.0026 0.9062 0.0790
H54A H 0.1094 0.8371 0.0433
C36A C 0.1613(8) 0.9341(5) 0.0501(5)
C37_2 C 0.9516(8) 0.5753(12) 0.7130(6)
C38_2 C 0.9044(10) 0.5987(10) 0.7930(6)
H55_2 H 0.9402 0.6380 0.8025
H56_2 H 0.9329 0.5526 0.8283
C39_2 C 0.7652(10) 0.6292(7) 0.8092(9)
H57_2 H 0.7351 0.6695 0.7690
H58_2 H 0.7468 0.6544 0.8553
C40_2 C 0.6986(16) 0.5661(10) 0.8167(9)
H59_2 H 0.7248 0.5359 0.7736
H60_2 H 0.6122 0.5939 0.8158
C41_2 C 0.717(2) 0.5096(10) 0.8887(10)
H61_2 H 0.6898 0.5399 0.9317
H62_2 H 0.8037 0.4827 0.8900
C42_2 C 0.648(2) 0.4481(10) 0.8992(10)
H63_2 H 0.6860 0.4114 0.8619
H64_2 H 0.5642 0.4741 0.8882
C43_2 C 0.6440(13) 0.4035(6) 0.9769(9)
H65_2 H 0.5911 0.4380 1.0127
H66_2 H 0.7257 0.3864 0.9925
C44_2 C 0.5974(9) 0.3309(5) 0.9829(12)
Ca1 Ca 0.88583(13) 0.03146(9) 0.59355(9)
O1 O 0.7364(5) 0.0009(3) 0.6873(3)
O2 O 0.1765(4) 0.0650(3) 0.7105(3)
O3 O 0.7308(4) 0.1518(3) 0.5719(3)
O4 O 0.1823(5) 0.2093(3) 0.5735(4)
O5 O 0.7558(5) 0.1057(3) 0.3708(3)
O6 O 0.2064(5) 0.1897(3) 0.3752(3)
O7 O 1.0598(4) -0.0752(3) 0.5439(3)
H1 H 1.1221 -0.0830 0.5673
H2 H 1.0537 -0.1195 0.5475
O8 O 1.0125(5) 0.1133(4) 0.5964(4)
H3 H 1.0595 0.1134 0.6273
H4 H 1.0147 0.1524 0.5612
O9 O 0.9824(5) -0.0077(4) 0.7066(4)
H5 H 1.0562 -0.0005 0.7180
H6 H 0.9888 -0.0569 0.7339
O10 O 0.7804(6) -0.0296(4) 0.5295(4)
N1 N 0.5725(5) -0.0425(3) 0.7463(4)
N2 N 0.5518(5) 0.0871(4) 0.7326(4)
N3 N 0.3285(5) 0.1127(3) 0.7411(4)
N4 N 0.3518(5) -0.0173(3) 0.7634(4)
N5 N 0.5467(5) 0.2039(3) 0.6445(4)
N6 N 0.5591(5) 0.2356(3) 0.5193(3)
N7 N 0.3372(5) 0.2630(4) 0.5205(4)
N8 N 0.3269(5) 0.2223(3) 0.6436(4)
N9 N 0.5778(5) 0.2118(3) 0.3878(4)
N10 N 0.6055(5) 0.1421(3) 0.2884(4)
N11 N 0.3814(5) 0.1753(3) 0.2917(4)
N12 N 0.3552(5) 0.2492(4) 0.3862(4)
N13 N 0.5811(13) -0.0138(10) 0.4931(8)
C1 C 0.6315(6) 0.0141(4) 0.7189(4)
C2 C 0.4576(6) -0.0092(4) 0.7919(4)
H7 H 0.4620 -0.0297 0.8455
C3 C 0.4398(6) 0.0818(4) 0.7797(4)
H8 H 0.4303 0.1047 0.8278
C4 C 0.2755(7) 0.0535(4) 0.7363(4)
C5 C 0.5851(6) 0.1602(4) 0.7156(4)
H9 H 0.5479 0.1940 0.7562
H10 H 0.6739 0.1475 0.7141
C6 C 0.2739(7) 0.1949(4) 0.7164(5)
H11 H 0.2816 0.2268 0.7542
H12 H 0.1866 0.2042 0.7139
C7 C 0.6233(6) 0.1938(4) 0.5779(4)
C8 C 0.4279(6) 0.2580(4) 0.6324(4)
H13 H 0.4085 0.3037 0.6619
C9 C 0.4351(6) 0.2846(4) 0.5460(4)
H14 H 0.4251 0.3418 0.5351
C10 C 0.2726(7) 0.2291(4) 0.5780(5)
C11 C 0.6180(7) 0.2469(4) 0.4438(4)
H15 H 0.7065 0.2239 0.4445
H16 H 0.6012 0.3037 0.4289
C12 C 0.2902(7) 0.2949(4) 0.4484(5)
H17 H 0.2948 0.3489 0.4367
H18 H 0.2039 0.2975 0.4527
C13 C 0.6551(7) 0.1491(4) 0.3520(4)
C14 C 0.4723(7) 0.2532(4) 0.3467(4)
H19 H 0.4704 0.3084 0.3299
C15 C 0.4896(6) 0.2044(4) 0.2778(5)
H20 H 0.4924 0.2370 0.2291
C16 C 0.3048(6) 0.2028(4) 0.3540(5)
C17 C 0.3240(7) -0.0914(4) 0.7681(5)
H21 H 0.2370 -0.0800 0.7629
H22 H 0.3392 -0.1198 0.8179
C18 C 0.6434(7) -0.1262(4) 0.7583(4)
H23 H 0.6248 -0.1461 0.8105
H24 H 0.7306 -0.1308 0.7507
C19 C 0.7031(17) -0.0325(12) 0.4874(11)
H25 H 0.7415 -0.0502 0.4411
H26 H 0.4440 -0.0572 0.4241
H27 H 0.5419 -0.0121 0.4209
C20 C 0.518(2) -0.0353(17) 0.4380(11)
H28 H 0.5742 -0.0674 0.4014
Ca1A Ca 0.11417(13) -0.03146(9) 0.40645(9)
Ca1A_2 Ca 1.11417(13) -0.03146(9) 0.40645(9)
O1A O 0.2636(5) -0.0009(3) 0.3127(3)
O2A O 0.8235(4) -0.0650(3) 0.2895(3)
O3A O 0.2692(4) -0.1518(3) 0.4281(3)
O4A O 0.8177(5) -0.2093(3) 0.4265(4)
O5A O 0.2442(5) -0.1057(3) 0.6292(3)
O6A O 0.7936(5) -0.1897(3) 0.6248(3)
O7A O 0.9402(4) 0.0752(3) 0.4561(3)
O7A_2 O -0.0598(4) 0.0752(3) 0.4561(3)
O7_2 O 0.0598(4) -0.0752(3) 0.5439(3)
H1A H 0.8779 0.0830 0.4327
H1A_2 H -0.1221 0.0830 0.4327
H1_2 H 0.1221 -0.0830 0.5673
H2A H 0.9463 0.1195 0.4525
H2A_2 H -0.0537 0.1195 0.4525
H2_2 H 0.0537 -0.1195 0.5475
O8A O -0.0125(5) -0.1133(4) 0.4036(4)
H3A H -0.0595 -0.1134 0.3727
H4A H -0.0147 -0.1524 0.4388
O9A O 0.0176(5) 0.0077(4) 0.2934(4)
H5A H -0.0562 0.0005 0.2820
H6A H 0.0112 0.0569 0.2661
O10A O 0.2196(6) 0.0296(4) 0.4705(4)
N1A N 0.4275(5) 0.0425(3) 0.2537(4)
N2A N 0.4482(5) -0.0871(4) 0.2674(4)
N3A N 0.6715(5) -0.1127(3) 0.2589(4)
N4A N 0.6482(5) 0.0173(3) 0.2366(4)
N5A N 0.4533(5) -0.2039(3) 0.3555(4)
N6A N 0.4409(5) -0.2356(3) 0.4807(3)
N7A N 0.6628(5) -0.2630(4) 0.4795(4)
N8A N 0.6731(5) -0.2223(3) 0.3564(4)
N9A N 0.4222(5) -0.2118(3) 0.6122(4)
N10A N 0.3945(5) -0.1421(3) 0.7116(4)
N11A N 0.6186(5) -0.1753(3) 0.7083(4)
N12A N 0.6448(5) -0.2492(4) 0.6138(4)
N13A N 0.4189(13) 0.0138(10) 0.5069(8)
C1A C 0.3685(6) -0.0141(4) 0.2811(4)
C2A C 0.5424(6) 0.0092(4) 0.2081(4)
H7A H 0.5380 0.0297 0.1545
C3A C 0.5602(6) -0.0818(4) 0.2203(4)
H8A H 0.5697 -0.1047 0.1722
C4A C 0.7245(7) -0.0535(4) 0.2637(4)
C5A C 0.4149(6) -0.1602(4) 0.2844(4)
H9A H 0.4521 -0.1940 0.2438
H10A H 0.3261 -0.1475 0.2859
C6A C 0.7261(7) -0.1949(4) 0.2836(5)
H11A H 0.7184 -0.2268 0.2458
H12A H 0.8134 -0.2042 0.2861
C7A C 0.3767(6) -0.1938(4) 0.4221(4)
C8A C 0.5721(6) -0.2580(4) 0.3676(4)
H13A H 0.5915 -0.3037 0.3381
C9A C 0.5649(6) -0.2846(4) 0.4540(4)
H14A H 0.5749 -0.3418 0.4649
C10A C 0.7274(7) -0.2291(4) 0.4220(5)
C11A C 0.3820(7) -0.2469(4) 0.5562(4)
H15A H 0.2935 -0.2239 0.5555
H16A H 0.3988 -0.3037 0.5711
C12A C 0.7098(7) -0.2949(4) 0.5516(5)
H17A H 0.7052 -0.3489 0.5633
H18A H 0.7961 -0.2975 0.5473
C13A C 0.3449(7) -0.1491(4) 0.6480(4)
C14A C 0.5277(7) -0.2532(4) 0.6533(4)
H19A H 0.5296 -0.3084 0.6701
C15A C 0.5104(6) -0.2044(4) 0.7222(5)
H20A H 0.5076 -0.2370 0.7709
C16A C 0.6952(6) -0.2028(4) 0.6460(5)
C17A C 0.6760(7) 0.0914(4) 0.2319(5)
H21A H 0.7630 0.0800 0.2371
H22A H 0.6608 0.1198 0.1821
C18A C 0.3566(7) 0.1262(4) 0.2417(4)
H23A H 0.3752 0.1461 0.1895
H24A H 0.2694 0.1308 0.2493
C19A C 0.2969(17) 0.0325(12) 0.5126(11)
H25A H 0.2585 0.0502 0.5589
H26A H 0.5560 0.0572 0.5759
H27A H 0.4581 0.0121 0.5791
C20A C 0.482(2) 0.0353(17) 0.5620(11)
H28A H 0.4258 0.0674 0.5986
O39? O 0.7617(11) 0.4375(8) 0.6236(7)
O40? O 0.8589(11) 0.3865(8) 0.5223(7)
O41? O -0.0303(10) 0.5878(9) 0.6057(6)
C45? C 0.8598(10) 0.4190(9) 0.5801(6)
C46? C -0.0357(8) 0.5749(13) 0.6763(6)
C47? C -0.1559(9) 0.5937(11) 0.7266(8)
H67? H -0.2151 0.5849 0.6975
H68? H -0.1845 0.6535 0.7291
C48? C -0.1548(13) 0.5466(11) 0.8046(9)
H69? H -0.0937 0.5550 0.8312
H70? H -0.1305 0.4909 0.7976
C49? C -0.2777(15) 0.5691(9) 0.8538(10)
H71? H -0.3398 0.5646 0.8254
H72? H -0.2988 0.6238 0.8636
C50? C -0.281(2) 0.5192(9) 0.9298(9)
H73? H -0.3482 0.5473 0.9635
H74? H -0.2060 0.5111 0.9522
C51? C -0.284(2) 0.4350(9) 0.9237(13)
H75? H -0.2032 0.3980 0.9133
H76? H -0.3286 0.4399 0.8810
C52? C -0.3628(13) 0.4030(7) 0.9859(11)
H77? H -0.4342 0.4443 1.0033
H78? H -0.3089 0.3863 1.0255
C53? C -0.4008(9) 0.3335(6) 0.9644(15)
C54? C 0.5055(18) 0.0417(15) 0.5464(12)
H79? H 0.4508 0.0884 0.5221
H80? H 0.4713 -0.0660 0.4692
H81? H 0.4639 0.0103 0.4122
loop_
_geom_bond_atom_site_label_1
_geom_bond_atom_site_label_2
_geom_bond_site_symmetry_1
_geom_bond_site_symmetry_2
Ca1 O1 1_555 1_555
O1 C1 1_555 1_555
O2 C4 1_555 1_555
O3 Ca1 1_555 1_555
O4 C10 1_555 1_555
O5 C13 1_555 1_555
O6 C16 1_555 1_555
O7 Ca1 1_555 1_555
H1 O7 1_555 1_555
H2 O7 1_555 1_555
O8 Ca1 1_555 1_555
H3 O8 1_555 1_555
H4 O8 1_555 1_555
O9 Ca1 1_555 1_555
H5 O9 1_555 1_555
H6 O9 1_555 1_555
O10 Ca1 1_555 1_555
N1 C1 1_555 1_555
N2 C1 1_555 1_555
N3 C3 1_555 1_555
N4 C2 1_555 1_555
N5 C5 1_555 1_555
N6 C7 1_555 1_555
N7 C9 1_555 1_555
N8 C6 1_555 1_555
N9 C11 1_555 1_555
N10 C13 1_555 1_555
N11 C15 1_555 1_555
N12 C12 1_555 1_555
N13 C19 1_555 1_555
C2 N1 1_555 1_555
H7 C2 1_555 1_555
C3 N2 1_555 1_555
H8 C3 1_555 1_555
C4 N3 1_555 1_555
C5 N2 1_555 1_555
H9 C5 1_555 1_555
H10 C5 1_555 1_555
C6 N3 1_555 1_555
H11 C6 1_555 1_555
H12 C6 1_555 1_555
C7 O3 1_555 1_555
C8 N5 1_555 1_555
H13 C8 1_555 1_555
C9 N6 1_555 1_555
H14 C9 1_555 1_555
C10 N7 1_555 1_555
C11 N6 1_555 1_555
H15 C11 1_555 1_555
H16 C11 1_555 1_555
C12 N7 1_555 1_555
H17 C12 1_555 1_555
H18 C12 1_555 1_555
C13 N9 1_555 1_555
C14 N9 1_555 1_555
H19 C14 1_555 1_555
C15 N10 1_555 1_555
H20 C15 1_555 1_555
C16 N11 1_555 1_555
C17 N4 1_555 1_555
H21 C17 1_555 1_555
H22 C17 1_555 1_555
C18 N1 1_555 1_555
H23 C18 1_555 1_555
H24 C18 1_555 1_555
C19 O10 1_555 1_555
H25 C19 1_555 1_555
H26 C20 1_555 1_555
H27 C20 1_555 1_555
C20 N13 1_555 1_555
H28 C20 1_555 1_555
O11 H29 1_555 1_555
H30 O11 1_555 1_555
U1 O16 1_555 1_555
U2 O18 1_555 1_555
U3 O20 1_555 1_555
U4 O22 1_555 1_555
O17 U1 1_555 1_555
O19 U2 1_555 1_555
O21 U3 1_555 1_555
O23 U4 1_555 1_555
O24 U1 1_555 1_555
O25 U3 1_555 1_555
O26 U1 1_555 1_555
O27 U1 1_555 1_555
O28 U4 1_555 1_555
O29 U3 1_555 1_555
O30 U1 1_555 1_555
O31 U1 1_555 1_555
O32 U4 1_555 1_555
O33 C36 1_555 1_555
O34 U2 1_555 1_555
O35 C37 1_555 1_555
O36 C44 1_555 1_555
O37 C44 1_555 1_555
O38 U2 1_555 1_555
C21 O26 1_555 1_555
C22 C21 1_555 1_555
H31 C22 1_555 1_555
H32 C22 1_555 1_555
C23 C22 1_555 1_555
H33 C23 1_555 1_555
H34 C23 1_555 1_555
C24 C23 1_555 1_555
H35 C24 1_555 1_555
H36 C24 1_555 1_555
C25 C24 1_555 1_555
H37 C25 1_555 1_555
H38 C25 1_555 1_555
C26 C25 1_555 1_555
H39 C26 1_555 1_555
H40 C26 1_555 1_555
C27 C26 1_555 1_555
H41 C27 1_555 1_555
H42 C27 1_555 1_555
C28 O28 1_555 1_555
C29 O30 1_555 1_555
C30 C29 1_555 1_555
H43 C30 1_555 1_555
H44 C30 1_555 1_555
C31 C30 1_555 1_555
H45 C31 1_555 1_555
H46 C31 1_555 1_555
C32 C31 1_555 1_555
H47 C32 1_555 1_555
H48 C32 1_555 1_555
C33 C32 1_555 1_555
H49 C33 1_555 1_555
H50 C33 1_555 1_555
C34 C33 1_555 1_555
H51 C34 1_555 1_555
H52 C34 1_555 1_555
C35 C34 1_555 1_555
H53 C35 1_555 1_555
H54 C35 1_555 1_555
C36 O32 1_555 1_555
C37 O34 1_555 1_555
C38 C37 1_555 1_555
H55 C38 1_555 1_555
H56 C38 1_555 1_555
C39 C38 1_555 1_555
H57 C39 1_555 1_555
H58 C39 1_555 1_555
C40 C39 1_555 1_555
H59 C40 1_555 1_555
H60 C40 1_555 1_555
C41 C40 1_555 1_555
H61 C41 1_555 1_555
H62 C41 1_555 1_555
C42 C41 1_555 1_555
H63 C42 1_555 1_555
H64 C42 1_555 1_555
C43 C42 1_555 1_555
H65 C43 1_555 1_555
H66 C43 1_555 1_555
C44 C43 1_555 1_555
Ca1A O1A 1_555 1_555
Ca1A_2 O7 1_555 1_555
O1A C1A 1_555 1_555
O2A C4A 1_555 1_555
O3A Ca1A 1_555 1_555
O4A C10A 1_555 1_555
O5A C13A 1_555 1_555
O6A C16A 1_555 1_555
O7A Ca1 1_555 1_555
O7A_2 Ca1A 1_555 1_555
O7_2 Ca1A 1_555 1_555
H1A O7A 1_555 1_555
H1A_2 O7A_2 1_555 1_555
H1_2 O7_2 1_555 1_555
H2A O7A 1_555 1_555
H2A_2 O7A_2 1_555 1_555
H2_2 O7_2 1_555 1_555
O8A Ca1A 1_555 1_555
H3A O8A 1_555 1_555
H4A O8A 1_555 1_555
O9A Ca1A 1_555 1_555
H5A O9A 1_555 1_555
H6A O9A 1_555 1_555
O10A Ca1A 1_555 1_555
N1A C1A 1_555 1_555
N2A C1A 1_555 1_555
N3A C3A 1_555 1_555
N4A C2A 1_555 1_555
N5A C5A 1_555 1_555
N6A C7A 1_555 1_555
N7A C9A 1_555 1_555
N8A C6A 1_555 1_555
N9A C11A 1_555 1_555
N10A C17 1_555 1_555
N11A C18 1_555 1_555
N12A C12A 1_555 1_555
N13A N13 1_555 1_555
C2A N1A 1_555 1_555
H7A C2A 1_555 1_555
C3A N2A 1_555 1_555
H8A C3A 1_555 1_555
C4A N3A 1_555 1_555
C5A N2A 1_555 1_555
H9A C5A 1_555 1_555
H10A C5A 1_555 1_555
C6A N3A 1_555 1_555
H11A C6A 1_555 1_555
H12A C6A 1_555 1_555
C7A O3A 1_555 1_555
C8A N5A 1_555 1_555
H13A C8A 1_555 1_555
C9A N6A 1_555 1_555
H14A C9A 1_555 1_555
C10A N7A 1_555 1_555
C11A N6A 1_555 1_555
H15A C11A 1_555 1_555
H16A C11A 1_555 1_555
C12A N7A 1_555 1_555
H17A C12A 1_555 1_555
H18A C12A 1_555 1_555
C13A N9A 1_555 1_555
C14A N9A 1_555 1_555
H19A C14A 1_555 1_555
C15A N10A 1_555 1_555
H20A C15A 1_555 1_555
C16A N11A 1_555 1_555
C17A N10 1_555 1_555
H21A C17A 1_555 1_555
H22A C17A 1_555 1_555
C18A N11 1_555 1_555
H23A C18A 1_555 1_555
H24A C18A 1_555 1_555
C19A O10A 1_555 1_555
H25A C19A 1_555 1_555
H26A C20A 1_555 1_555
H27A C20A 1_555 1_555
C20A N13 1_555 1_555
H28A C20A 1_555 1_555
U1A O24 1_555 1_555
U2A O31 1_555 1_555
U2_2 O34_2 1_555 1_555
U3A O25 1_555 1_555
U3_2 O32A 1_555 1_555
U3A_2 O29A 1_555 1_555
U4A O25 1_555 1_555
U4_2 O36 1_555 1_555
U4A_2 O28A 1_555 1_555
O16A U1A 1_555 1_555
O17A U1A 1_555 1_555
O18A U2A 1_555 1_555
O19A U2A 1_555 1_555
O20A U3A 1_555 1_555
O21A U3A 1_555 1_555
O22A U4A 1_555 1_555
O23A U4A 1_555 1_555
O24A U1 1_555 1_555
O25A U3 1_555 1_555
O26A U1A 1_555 1_555
O27A U1A 1_555 1_555
O28A C28A 1_555 1_555
O28A_2 U4A 1_555 1_555
O29A C28A 1_555 1_555
O29A_2 U3A 1_555 1_555
O30A U1A 1_555 1_555
O31A U2 1_555 1_555
O32A U4A_2 1_555 1_555
O32A_2 U3 1_555 1_555
O33A U3_2 1_555 1_555
O33A_2 U3 1_555 1_555
O34_2 C37_2 1_555 1_555
O34A U2A 1_555 1_555
O35_2 C37_2 1_555 1_555
O36_2 U4 1_555 1_555
O36A U4A 1_555 1_555
O37_2 U4 1_555 1_555
O37A U4A 1_555 1_555
O38A U2A 1_555 1_555
C21A O26A 1_555 1_555
C22A C21A 1_555 1_555
H31A C22A 1_555 1_555
H32A C22A 1_555 1_555
C23A C22A 1_555 1_555
H33A C23A 1_555 1_555
H34A C23A 1_555 1_555
C24A C23A 1_555 1_555
H35A C24A 1_555 1_555
H36A C24A 1_555 1_555
C25A C24A 1_555 1_555
H37A C25A 1_555 1_555
H38A C25A 1_555 1_555
C26A C25A 1_555 1_555
H39A C26A 1_555 1_555
H40A C26A 1_555 1_555
C27A C26A 1_555 1_555
H41A C27A 1_555 1_555
H42A C27A 1_555 1_555
C28A C27A 1_555 1_555
C29A O30A 1_555 1_555
C30A C29A 1_555 1_555
H43A C30A 1_555 1_555
H44A C30A 1_555 1_555
C31A C30A 1_555 1_555
H45A C31A 1_555 1_555
H46A C31A 1_555 1_555
C32A C31A 1_555 1_555
H47A C32A 1_555 1_555
H48A C32A 1_555 1_555
C33A C32A 1_555 1_555
H49A C33A 1_555 1_555
H50A C33A 1_555 1_555
C34A C33A 1_555 1_555
H51A C34A 1_555 1_555
H52A C34A 1_555 1_555
C35A C34A 1_555 1_555
H53A C35A 1_555 1_555
H54A C35A 1_555 1_555
C36A O32A 1_555 1_555
C37_2 C38_2 1_555 1_555
C38_2 H55_2 1_555 1_555
H56_2 C38_2 1_555 1_555
C39_2 C38_2 1_555 1_555
H57_2 C39_2 1_555 1_555
H58_2 C39_2 1_555 1_555
C40_2 C39_2 1_555 1_555
H59_2 C40_2 1_555 1_555
H60_2 C40_2 1_555 1_555
C41_2 C40_2 1_555 1_555
H61_2 C41_2 1_555 1_555
H62_2 C41_2 1_555 1_555
C42_2 C41_2 1_555 1_555
H63_2 C42_2 1_555 1_555
H64_2 C42_2 1_555 1_555
C43_2 C42_2 1_555 1_555
H65_2 C43_2 1_555 1_555
H66_2 C43_2 1_555 1_555
C44_2 O36_2 1_555 1_555
N4 C4 1_555 1_555
N5 C7 1_555 1_555
N8 C8 1_555 1_555
N8 C10 1_555 1_555
N12 C14 1_555 1_555
N12 C16 1_555 1_555
C2 C3 1_555 1_555
C8 C9 1_555 1_555
C14 C15 1_555 1_555
C20 N13A 1_555 1_555
U2 O24 1_555 1_555
U2 O26 1_555 1_555
U4 O25A 1_555 1_555
O27 C21 1_555 1_555
O29 C28 1_555 1_555
O31 C29 1_555 1_555
O32 U3A 1_555 1_555
O33 U3A 1_555 1_555
O37 U4_2 1_555 1_555
C27 C28 1_555 1_555
C35 C36 1_555 1_555
Ca1A_2 O7A 1_555 1_555
N1A C18A 1_555 1_555
N4A C4A 1_555 1_555
N4A C17A 1_555 1_555
N5A C7A 1_555 1_555
N8A C8A 1_555 1_555
N8A C10A 1_555 1_555
N10A C13A 1_555 1_555
N11A C15A 1_555 1_555
N12A C14A 1_555 1_555
N12A C16A 1_555 1_555
N13A C19A 1_555 1_555
N13A C20A 1_555 1_555
C2A C3A 1_555 1_555
C8A C9A 1_555 1_555
C14A C15A 1_555 1_555
U1A O24A 1_555 1_555
U1A O31A 1_555 1_555
U2A O24A 1_555 1_555
U2A O26A 1_555 1_555
U3A O25A 1_555 1_555
U4A O32A_2 1_555 1_555
O27A C21A 1_555 1_555
O31A C29A 1_555 1_555
O33A C36A 1_555 1_555
O37_2 C44_2 1_555 1_555
C35A C36A 1_555 1_555
C43_2 C44_2 1_555 1_555

#END
