
#######################################################################
#
#                 Cambridge Crystallographic Data Centre
#                                CCDC 
#
#######################################################################
#
# If this CIF has been generated from an entry in the Cambridge 
# Structural Database, then it will include bibliographic, chemical, 
# crystal, experimental, refinement or atomic coordinate data resulting 
# from the CCDC's data processing and validation procedures.
#
#######################################################################

data_AWECOV
_symmetry_cell_setting           triclinic
_symmetry_space_group_name_H-M   'P -1'
_symmetry_Int_Tables_number      2
_space_group_name_Hall           '-P 1'
loop_
_symmetry_equiv_pos_site_id
_symmetry_equiv_pos_as_xyz
1 x,y,z
2 -x,-y,-z
_cell_length_a                   10.9467(4)
_cell_length_b                   17.8697(8)
_cell_length_c                   18.8015(8)
_cell_angle_alpha                95.149(2)
_cell_angle_beta                 99.457(3)
_cell_angle_gamma                90.872(3)
_cell_volume                     3611.54
loop_
_atom_site_label
_atom_site_type_symbol
_atom_site_fract_x
_atom_site_fract_y
_atom_site_fract_z
U1 U 0.66767(2) 0.512137(14) 0.527578(15)
U2 U 0.56365(2) 0.501478(14) 0.320973(16)
U3 U 0.60719(3) 0.923295(15) -0.002026(16)
U4 U 0.76732(3) 1.113115(15) 0.075073(18)
O1 O 0.6583(5) 0.6109(3) 0.5476(3)
O2 O 0.6920(5) 0.4143(3) 0.5092(3)
O3 O 0.5323(5) 0.5993(3) 0.3168(3)
O4 O 0.5979(5) 0.4044(3) 0.3229(3)
O5 O 0.5842(6) 0.9012(3) 0.0860(3)
O6 O 0.6377(5) 0.9397(3) -0.0897(3)
O7 O 0.7762(5) 1.0892(3) 0.1672(3)
O8 O 0.7656(6) 1.1418(3) -0.0124(4)
O9 O 0.5083(5) 0.5080(3) 0.4311(3)
O10 O 0.5913(5) 1.0481(3) 0.0353(3)
O11 O 0.7436(5) 0.5329(3) 0.4112(3)
O12 O 0.8842(5) 0.5442(3) 0.5075(3)
O13 O 0.8157(5) 0.9851(3) 0.0449(3)
O14 O 0.8115(5) 0.8626(3) 0.0255(3)
O15 O 0.7799(5) 0.5001(3) 0.6467(3)
O16 O 0.6434(5) 0.5317(3) 0.7174(3)
O17 O 0.4500(6) 0.2018(3) 1.0479(4)
O18 O 0.6397(6) 0.2108(3) 1.1080(4)
O19 O 0.7296(5) 0.5218(3) 0.2506(3)
O20 O 0.5454(5) 0.4904(3) 0.1893(3)
O21 O 1.0062(5) 0.8955(3) -0.0936(3)
O22 O 1.0799(5) 0.7851(3) -0.1209(4)
C1 C 0.8566(7) 0.5488(4) 0.4408(5)
C2 C 0.9443(7) 0.5743(4) 0.3950(5)
H1 H 0.9450 0.5372 0.3542
H2 H 1.0272 0.5788 0.4230
C3 C 0.9075(7) 0.6502(4) 0.3675(5)
H3 H 0.9233 0.6891 0.4075
H4 H 0.8195 0.6486 0.3486
C4 C 0.9804(7) 0.6702(4) 0.3072(5)
H5 H 1.0683 0.6731 0.3266
H6 H 0.9666 0.6304 0.2679
C5 C 0.9421(8) 0.7445(4) 0.2778(5)
H7 H 0.8534 0.7424 0.2610
H8 H 0.9599 0.7845 0.3167
C6 C 1.0072(7) 0.7628(4) 0.2165(5)
H9 H 0.9928 0.7212 0.1790
H10 H 1.0956 0.7668 0.2343
C7 C 0.9681(8) 0.8346(4) 0.1825(5)
H11 H 0.8799 0.8310 0.1641
H12 H 0.9831 0.8767 0.2194
C8 C 1.0361(7) 0.8493(4) 0.1220(5)
H13 H 1.0179 0.8081 0.0841
H14 H 1.1245 0.8501 0.1399
C9 C 1.0028(7) 0.9238(5) 0.0889(5)
H15 H 1.0155 0.9649 0.1270
H16 H 1.0573 0.9328 0.0546
C10 C 0.8709(7) 0.9219(4) 0.0513(4)
C11 C 0.7508(7) 0.5121(4) 0.7073(4)
C12 C 0.8469(7) 0.5053(4) 0.7731(4)
H17 H 0.8776 0.5552 0.7934
H18 H 0.9160 0.4779 0.7587
C13 C 0.7967(9) 0.4646(5) 0.8321(5)
H19 H 0.8614 0.4646 0.8741
H20 H 0.7281 0.4923 0.8469
C14 C 0.7529(9) 0.3836(5) 0.8065(5)
H21 H 0.6777 0.3841 0.7712
H22 H 0.8155 0.3589 0.7826
C15 C 0.7277(11) 0.3382(6) 0.8676(7)
H23 H 0.7107 0.2862 0.8482
H24 H 0.8024 0.3395 0.9036
C16 C 0.6222(11) 0.3641(6) 0.9049(8)
H25 H 0.5446 0.3506 0.8730
H26 H 0.6276 0.4184 0.9140
C17 C 0.6217(9) 0.3299(6) 0.9770(7)
H27 H 0.6189 0.2756 0.9677
H28 H 0.6990 0.3443 1.0089
C18 C 0.5153(10) 0.3529(5) 1.0159(6)
H29 H 0.5120 0.4073 1.0214
H30 H 0.4377 0.3333 0.9872
C19 C 0.5310(9) 0.3236(4) 1.0893(5)
H31 H 0.6050 0.3463 1.1195
H32 H 0.4604 0.3367 1.1125
C20 C 0.5415(8) 0.2408(4) 1.0809(5)
C21 C 0.6545(8) 0.5110(5) 0.1902(5)
C22 C 0.6924(9) 0.5232(7) 0.1194(6)
H33 H 0.6620 0.4795 0.0868
H34 H 0.6469 0.5655 0.1015
C23 C 0.7972(18) 0.5781(12) 0.1175(9)
H35 H 0.8409 0.5317 0.1222
H36 H 0.8358 0.6146 0.1560
C24 C 0.8287(18) 0.5798(14) 0.0418(10)
H37 H 0.8734 0.5431 0.0161
H38 H 0.7465 0.5814 0.0142
C25 C 0.9008(18) 0.6528(12) 0.0398(9)
H39 H 0.8448 0.6895 0.0558
H40 H 0.9722 0.6545 0.0776
C26 C 0.9251(14) 0.6720(10) -0.0334(8)
H41 H 0.9814 0.7146 -0.0175
H42 H 0.9688 0.6333 -0.0574
C27 C 0.8067(14) 0.6765(10) -0.0869(8)
H43 H 0.7745 0.7198 -0.0622
H44 H 0.7448 0.6365 -0.0907
C28 C 0.8381(8) 0.7146(5) -0.1493(5)
H45 H 0.7596 0.7001 -0.1794
H46 H 0.9028 0.6885 -0.1696
C29 C 0.8589(8) 0.7986(4) -0.1490(5)
H47 H 0.8382 0.8121 -0.1982
H48 H 0.8026 0.8241 -0.1208
C30 C 0.9878(8) 0.8263(4) -0.1189(5)
U1A U 0.33233(2) 0.487863(14) 0.472422(15)
U2A U 0.43635(2) 0.498522(14) 0.679027(16)
U2A_2 U 1.43635(2) 1.498522(14) -0.320973(16)
U3A U 0.39281(3) 0.076705(15) 1.002026(16)
U3A_2 U 0.39281(3) 1.076705(15) 0.002026(16)
U4_2 U 0.76732(3) 0.113115(15) 1.075073(18)
U4A U 1.23268(3) 0.886885(15) -0.075073(18)
U4A_2 U 0.23268(3) 0.886885(15) -0.075073(18)
U4A_3 U 0.23268(3) -0.113115(15) 0.924927(18)
O1A O 0.3417(5) 0.3891(3) 0.4524(3)
O2A O 0.3080(5) 0.5857(3) 0.4908(3)
O3A O 0.4677(5) 0.4007(3) 0.6832(3)
O4A O 0.4021(5) 0.5956(3) 0.6771(3)
O5A O 0.4158(6) 0.0988(3) 0.9140(3)
O6A O 0.3623(5) 0.0603(3) 1.0897(3)
O7_2 O 0.7762(5) 0.0892(3) 1.1672(3)
O8_2 O 0.7656(6) 0.1418(3) 0.9876(4)
O9A O 0.4917(5) 0.4920(3) 0.5689(3)
O10A O 0.4087(5) 0.9519(3) -0.0353(3)
O10A_2 O 0.4087(5) -0.0481(3) 0.9647(3)
O10_2 O 0.5913(5) 0.0481(3) 1.0353(3)
O11A O 0.2564(5) 0.4671(3) 0.5888(3)
O12A O 0.1158(5) 0.4558(3) 0.4925(3)
O13A O 0.1843(5) 0.0149(3) 0.9551(3)
O13_2 O 0.8157(5) -0.0149(3) 1.0449(3)
O14A O 0.1885(5) 0.1374(3) 0.9745(3)
O15A O 0.2201(5) 0.4999(3) 0.3533(3)
O16A O 0.3566(5) 0.4683(3) 0.2826(3)
O17A O 0.5500(6) 0.7982(3) -0.0479(4)
O18A O 0.3603(6) 0.7892(3) -0.1080(4)
O18_2 O 0.6397(6) 1.2108(3) 0.1080(4)
O19A O 1.2704(5) 1.4782(3) -0.2506(3)
O19A_2 O 0.2704(5) 0.4782(3) 0.7494(3)
O20A O 1.4546(5) 1.5096(3) -0.1893(3)
O20A_2 O 0.4546(5) 0.5096(3) 0.8107(3)
O21A O 0.9938(5) 1.1045(3) 0.0936(3)
O21A_2 O 0.9938(5) 0.1045(3) 1.0936(3)
O22A O 0.9201(5) 1.2149(3) 0.1209(4)
O22A_2 O 0.9201(5) 0.2149(3) 1.1209(4)
C1A C 0.1434(7) 0.4512(4) 0.5592(5)
C2A C 0.0557(7) 0.4257(4) 0.6050(5)
H1A H 0.0550 0.4628 0.6458
H2A H -0.0272 0.4212 0.5770
C3A C 0.0925(7) 0.3498(4) 0.6325(5)
H3A H 0.0767 0.3109 0.5925
H4A H 0.1805 0.3514 0.6514
C4A C 0.0196(7) 0.3298(4) 0.6928(5)
H5A H -0.0683 0.3269 0.6734
H6A H 0.0334 0.3696 0.7321
C5A C 0.0579(8) 0.2555(4) 0.7222(5)
H7A H 0.1466 0.2576 0.7390
H8A H 0.0401 0.2155 0.6833
C6A C -0.0072(7) 0.2372(4) 0.7835(5)
H9A H 0.0072 0.2788 0.8210
H10A H -0.0956 0.2332 0.7657
C7A C 0.0319(8) 0.1654(4) 0.8175(5)
H11A H 0.1201 0.1690 0.8359
H12A H 0.0169 0.1233 0.7806
C8A C -0.0361(7) 0.1507(4) 0.8780(5)
H13A H -0.0179 0.1919 0.9159
H14A H -0.1245 0.1499 0.8601
C9A C -0.0028(7) 0.0762(5) 0.9111(5)
H15A H -0.0155 0.0351 0.8730
H16A H -0.0573 0.0672 0.9454
C10A C 0.1291(7) 0.0781(4) 0.9487(4)
C11A C 0.2492(7) 0.4879(4) 0.2927(4)
C12A C 0.1531(7) 0.4947(4) 0.2269(4)
H17A H 0.1224 0.4448 0.2066
H18A H 0.0840 0.5221 0.2413
C13A C 0.2033(9) 0.5354(5) 0.1679(5)
H19A H 0.1386 0.5354 0.1259
H20A H 0.2719 0.5077 0.1531
C14A C 0.2471(9) 0.6164(5) 0.1935(5)
H21A H 0.3223 0.6159 0.2288
H22A H 0.1845 0.6411 0.2174
C15A C 0.2723(11) 0.6618(6) 0.1324(7)
H23A H 0.2893 0.7138 0.1518
H24A H 0.1976 0.6605 0.0964
C16A C 0.3778(11) 0.6359(6) 0.0951(8)
H25A H 0.4554 0.6494 0.1270
H26A H 0.3724 0.5816 0.0860
C17A C 0.3783(9) 0.6701(6) 0.0230(7)
H27A H 0.3811 0.7244 0.0323
H28A H 0.3010 0.6557 -0.0089
C18A C 0.4847(10) 0.6471(5) -0.0159(6)
H29A H 0.4880 0.5927 -0.0214
H30A H 0.5623 0.6667 0.0128
C19A C 0.4690(9) 0.6764(4) -0.0893(5)
H31A H 0.3950 0.6537 -0.1195
H32A H 0.5396 0.6633 -0.1125
C20A C 0.4585(8) 0.7592(4) -0.0809(5)
C21A C 1.3455(8) 1.4890(5) -0.1902(5)
C22A C 1.3076(9) 1.4768(7) -0.1194(6)
H33A H 1.3380 1.5205 -0.0868
H34A H 1.3531 1.4345 -0.1015
C23A C 1.2028(18) 1.4219(12) -0.1175(9)
H35A H 1.1591 1.4683 -0.1222
H36A H 1.1642 1.3854 -0.1560
C24A C 1.1713(18) 1.4202(14) -0.0418(10)
H37A H 1.1266 1.4569 -0.0161
H38A H 1.2535 1.4186 -0.0142
C25A C 1.0992(18) 1.3472(12) -0.0398(9)
H39A H 1.1552 1.3105 -0.0558
H40A H 1.0278 1.3455 -0.0776
C26A C 1.0749(14) 1.3280(10) 0.0334(8)
H41A H 1.0186 1.2854 0.0175
H42A H 1.0312 1.3667 0.0574
C27A C 1.1933(14) 1.3235(10) 0.0869(8)
H43A H 1.2255 1.2802 0.0622
H44A H 1.2552 1.3635 0.0907
C28A C 1.1619(8) 1.2854(5) 0.1493(5)
H45A H 1.2404 1.2999 0.1794
H46A H 1.0972 1.3115 0.1696
C29A C 1.1411(8) 1.2014(4) 0.1490(5)
H47A H 1.1618 1.1879 0.1982
H48A H 1.1974 1.1759 0.1208
C30A C 1.0122(8) 1.1737(4) 0.1189(5)
Sr1 Sr 0.92359(8) 0.91278(4) 0.62282(5)
O23 O 0.7454(5) 0.9226(3) 0.7096(3)
O24 O 0.1768(5) 0.9309(3) 0.6321(3)
O25 O 0.7567(5) 0.8158(3) 0.5643(3)
O26 O 0.1994(5) 0.8144(3) 0.4715(3)
O27 O 0.7973(5) 0.8840(3) 0.3880(3)
O28 O 0.2402(5) 0.8853(3) 0.3102(4)
O29 O 1.0035(7) 0.9532(5) 0.7551(5)
H49 H 1.0814 0.9522 0.7768
H50 H 0.9589 0.9402 0.7894
O30 O 0.9659(8) 1.0558(5) 0.6339(6)
O31 O 0.9854(11) 0.8789(8) 0.5042(7)
O32 O 0.9992(8) 0.7973(5) 0.6713(6)
N1 N 0.5690(6) 0.9691(3) 0.7485(4)
N2 N 0.5689(6) 0.8500(3) 0.7055(4)
N3 N 0.3428(6) 0.8558(3) 0.6667(4)
N4 N 0.3440(6) 0.9728(3) 0.7177(4)
N5 N 0.5751(6) 0.7708(3) 0.5949(4)
N6 N 0.5956(5) 0.7632(3) 0.4793(4)
N7 N 0.3720(5) 0.7566(3) 0.4425(3)
N8 N 0.3506(6) 0.7726(3) 0.5583(4)
N9 N 0.6238(6) 0.8052(3) 0.3629(4)
N10 N 0.6464(6) 0.8921(3) 0.2892(4)
N11 N 0.4199(6) 0.8959(4) 0.2623(4)
N12 N 0.3998(6) 0.8022(3) 0.3281(4)
N13 N 1.0695(12) 0.6872(6) 0.7041(6)
C31 C 0.6394(8) 0.9151(4) 0.7195(5)
C32 C 0.4505(8) 0.9405(4) 0.7603(4)
H51 H 0.4442 0.9434 0.8119
C33 C 0.4461(7) 0.8570(4) 0.7253(4)
H52 H 0.4323 0.8214 0.7601
C34 C 0.2799(7) 0.9213(4) 0.6696(5)
C35 C 0.6113(8) 0.7821(4) 0.6723(5)
H53 H 0.5799 0.7398 0.6935
H54 H 0.7010 0.7824 0.6837
C36 C 0.2939(7) 0.7884(4) 0.6211(4)
H55 H 0.3045 0.7458 0.6499
H56 H 0.2057 0.7936 0.6057
C37 C 0.6527(7) 0.7862(4) 0.5473(5)
C38 C 0.4636(7) 0.7291(4) 0.5593(4)
H57 H 0.4553 0.6803 0.5783
C39 C 0.4788(7) 0.7208(4) 0.4794(4)
H58 H 0.4828 0.6680 0.4608
C40 C 0.2967(7) 0.7841(4) 0.4886(5)
C41 C 0.6637(7) 0.7546(4) 0.4191(4)
H59 H 0.6533 0.7031 0.3975
H60 H 0.7511 0.7641 0.4375
C42 C 0.3362(7) 0.7496(4) 0.3650(5)
H61 H 0.2477 0.7569 0.3536
H62 H 0.3518 0.6989 0.3464
C43 C 0.6989(7) 0.8634(4) 0.3505(5)
C44 C 0.5171(7) 0.7906(4) 0.3055(4)
H63 H 0.5200 0.7409 0.2793
C45 C 0.5291(7) 0.8551(4) 0.2557(4)
H64 H 0.5305 0.8353 0.2055
C46 C 0.3424(8) 0.8640(4) 0.3017(4)
C47 C 0.2976(8) 1.0444(4) 0.7402(5)
H65 H 0.2085 1.0437 0.7247
H66 H 0.3136 1.0521 0.7927
C48 C 0.6228(8) 1.0420(4) 0.7823(5)
H67 H 0.5995 1.0517 0.8298
H68 H 0.7125 1.0404 0.7886
C49 C 1.0596(11) 0.7601(6) 0.7118(7)
H69 H 1.1048 0.7854 0.7535
C50 C 1.0368(15) 0.6403(7) 0.6359(7)
H70 H 1.0865 0.6556 0.6019
H71 H 0.9508 0.6458 0.6170
H72 H 1.0515 0.5887 0.6440
C51 C 1.1441(14) 0.6448(7) 0.7557(8)
H73 H 1.2153 0.6272 0.7362
H74 H 1.0961 0.6026 0.7654
H75 H 1.1705 0.6763 0.7998
O33 O 0.7287(14) 0.9723(9) 0.5513(9)
Sr1A Sr 0.07641(8) 1.08722(4) 0.37718(5)
Sr1_2 Sr -0.07641(8) 0.91278(4) 0.62282(5)
Sr1A_2 Sr 1.07641(8) 1.08722(4) 0.37718(5)
O23A O 0.2546(5) 1.0774(3) 0.2904(3)
O24A O 0.8232(5) 1.0691(3) 0.3679(3)
O24_2 O 1.1768(5) 0.9309(3) 0.6321(3)
O24A_2 O -0.1768(5) 1.0691(3) 0.3679(3)
O25A O 0.2433(5) 1.1842(3) 0.4357(3)
O26A O 0.8006(5) 1.1856(3) 0.5285(3)
O27A O 0.2027(5) 1.1160(3) 0.6120(3)
O28A O 0.7598(5) 1.1147(3) 0.6898(4)
O29A O -0.0035(7) 1.0468(5) 0.2449(5)
H49A H -0.0814 1.0478 0.2232
H50A H 0.0411 1.0598 0.2106
O30A O 0.0341(8) 0.9442(5) 0.3661(6)
O31A O 0.0146(11) 1.1211(8) 0.4958(7)
O32A O 0.0008(8) 1.2027(5) 0.3287(6)
N1A N 0.4310(6) 1.0309(3) 0.2515(4)
N2A N 0.4311(6) 1.1500(3) 0.2945(4)
N3A N 0.6572(6) 1.1442(3) 0.3333(4)
N4A N 0.6560(6) 1.0272(3) 0.2823(4)
N5A N 0.4249(6) 1.2292(3) 0.4051(4)
N6A N 0.4044(5) 1.2368(3) 0.5207(4)
N7A N 0.6280(5) 1.2434(3) 0.5575(3)
N8A N 0.6494(6) 1.2274(3) 0.4417(4)
N9A N 0.3762(6) 1.1948(3) 0.6371(4)
N10A N 0.3536(6) 1.1079(3) 0.7108(4)
N11A N 0.5801(6) 1.1041(4) 0.7377(4)
N12A N 0.6002(6) 1.1978(3) 0.6719(4)
N13A N -0.0695(12) 1.3128(6) 0.2959(6)
C31A C 0.3606(8) 1.0849(4) 0.2805(5)
C32A C 0.5495(8) 1.0595(4) 0.2397(4)
H51A H 0.5558 1.0566 0.1881
C33A C 0.5539(7) 1.1430(4) 0.2747(4)
H52A H 0.5677 1.1786 0.2399
C34A C 0.7201(7) 1.0787(4) 0.3304(5)
C35A C 0.3887(8) 1.2179(4) 0.3277(5)
H53A H 0.4201 1.2602 0.3065
H54A H 0.2990 1.2176 0.3163
C36A C 0.7061(7) 1.2116(4) 0.3789(4)
H55A H 0.6955 1.2542 0.3501
H56A H 0.7943 1.2064 0.3943
C37A C 0.3473(7) 1.2138(4) 0.4527(5)
C38A C 0.5364(7) 1.2709(4) 0.4407(4)
H57A H 0.5447 1.3197 0.4217
C39A C 0.5212(7) 1.2792(4) 0.5206(4)
H58A H 0.5172 1.3320 0.5392
C40A C 0.7033(7) 1.2159(4) 0.5114(5)
C41A C 0.3363(7) 1.2454(4) 0.5809(4)
H59A H 0.3467 1.2969 0.6025
H60A H 0.2489 1.2359 0.5625
C42A C 0.6638(7) 1.2504(4) 0.6350(5)
H61A H 0.7523 1.2431 0.6464
H62A H 0.6482 1.3011 0.6536
C43A C 0.3011(7) 1.1366(4) 0.6495(5)
C44A C 0.4829(7) 1.2094(4) 0.6945(4)
H63A H 0.4800 1.2591 0.7207
C45A C 0.4709(7) 1.1449(4) 0.7443(4)
H64A H 0.4695 1.1647 0.7945
C46A C 0.6576(8) 1.1360(4) 0.6983(4)
C47A C 0.7024(8) 0.9556(4) 0.2598(5)
H65A H 0.7915 0.9563 0.2753
H66A H 0.6864 0.9479 0.2073
C48A C 0.3772(8) 0.9580(4) 0.2177(5)
H67A H 0.4005 0.9483 0.1702
H68A H 0.2875 0.9596 0.2114
C49A C -0.0596(11) 1.2399(6) 0.2882(7)
H69A H -0.1048 1.2146 0.2465
C50A C -0.0368(15) 1.3597(7) 0.3641(7)
H70A H -0.0865 1.3444 0.3981
H71A H 0.0492 1.3542 0.3830
H72A H -0.0515 1.4113 0.3560
C51A C -0.1441(14) 1.3552(7) 0.2443(8)
H73A H -0.2153 1.3728 0.2638
H74A H -0.0961 1.3974 0.2346
H75A H -0.1705 1.3237 0.2002
O33A O 0.2713(14) 1.0277(9) 0.4487(9)
O34? O 0.9895(19) 0.8182(14) 0.5177(12)
C52? C 0.8209(12) 0.5040(9) 0.1092(7)
C53? C 0.8436(18) 0.5210(9) 0.0346(8)
C54? C 0.866(2) 0.6043(9) 0.0292(8)
C55? C 0.8538(16) 0.6187(8) -0.0501(8)
C56? C 0.8578(19) 0.6996(8) -0.0686(7)
H76? H 0.6946 0.5766 0.1143
H77? H 0.6298 0.5000 0.0813
H78? H 0.8160 0.4498 0.1081
H79? H 0.8824 0.5226 0.1501
H80? H 0.7924 0.4933 -0.0062
H81? H 0.9279 0.5060 0.0346
H82? H 0.7886 0.6231 0.0406
H83? H 0.9331 0.6320 0.0610
H84? H 0.9397 0.6248 -0.0550
H85? H 0.8201 0.5739 -0.0800
H86? H 0.8684 0.7393 -0.0295
H87? H 0.7707 0.6861 -0.0804
H88? H 0.7764 0.6996 -0.1913
H89? H 0.9138 0.6904 -0.1567
O35? O 0.1762(19) 1.0171(10) 0.4860(11)
loop_
_geom_bond_atom_site_label_1
_geom_bond_atom_site_label_2
_geom_bond_site_symmetry_1
_geom_bond_site_symmetry_2
U1 O1 1_555 1_555
U2 O3 1_555 1_555
U3 O5 1_555 1_555
U4 O7 1_555 1_555
O2 U1 1_555 1_555
O4 U2 1_555 1_555
O6 U3 1_555 1_555
O8 U4 1_555 1_555
O9 U1 1_555 1_555
O10 U3 1_555 1_555
O11 U1 1_555 1_555
O12 U1 1_555 1_555
O13 U3 1_555 1_555
O14 U3 1_555 1_555
O15 U1 1_555 1_555
O16 C11 1_555 1_555
O17 C20 1_555 1_555
O18 C20 1_555 1_555
O19 U2 1_555 1_555
O20 U2 1_555 1_555
O21 C30 1_555 1_555
O22 C30 1_555 1_555
C1 O11 1_555 1_555
C2 C1 1_555 1_555
H1 C2 1_555 1_555
H2 C2 1_555 1_555
C3 C2 1_555 1_555
H3 C3 1_555 1_555
H4 C3 1_555 1_555
C4 C3 1_555 1_555
H5 C4 1_555 1_555
H6 C4 1_555 1_555
C5 C4 1_555 1_555
H7 C5 1_555 1_555
H8 C5 1_555 1_555
C6 C5 1_555 1_555
H9 C6 1_555 1_555
H10 C6 1_555 1_555
C7 C6 1_555 1_555
H11 C7 1_555 1_555
H12 C7 1_555 1_555
C8 C7 1_555 1_555
H13 C8 1_555 1_555
H14 C8 1_555 1_555
C9 C8 1_555 1_555
H15 C9 1_555 1_555
H16 C9 1_555 1_555
C10 O13 1_555 1_555
C11 O15 1_555 1_555
C12 C11 1_555 1_555
H17 C12 1_555 1_555
H18 C12 1_555 1_555
C13 C12 1_555 1_555
H19 C13 1_555 1_555
H20 C13 1_555 1_555
C14 C13 1_555 1_555
H21 C14 1_555 1_555
H22 C14 1_555 1_555
C15 C14 1_555 1_555
H23 C15 1_555 1_555
H24 C15 1_555 1_555
C16 C15 1_555 1_555
H25 C16 1_555 1_555
H26 C16 1_555 1_555
C17 C16 1_555 1_555
H27 C17 1_555 1_555
H28 C17 1_555 1_555
C18 C17 1_555 1_555
H29 C18 1_555 1_555
H30 C18 1_555 1_555
C19 C18 1_555 1_555
H31 C19 1_555 1_555
H32 C19 1_555 1_555
C20 C19 1_555 1_555
C21 O19 1_555 1_555
C22 C21 1_555 1_555
H33 C22 1_555 1_555
H34 C22 1_555 1_555
C23 C22 1_555 1_555
H35 C23 1_555 1_555
H36 C23 1_555 1_555
C24 C23 1_555 1_555
H37 C24 1_555 1_555
H38 C24 1_555 1_555
C25 C24 1_555 1_555
H39 C25 1_555 1_555
H40 C25 1_555 1_555
C26 C25 1_555 1_555
H41 C26 1_555 1_555
H42 C26 1_555 1_555
C27 C26 1_555 1_555
H43 C27 1_555 1_555
H44 C27 1_555 1_555
C28 C27 1_555 1_555
H45 C28 1_555 1_555
H46 C28 1_555 1_555
C29 C28 1_555 1_555
H47 C29 1_555 1_555
H48 C29 1_555 1_555
C30 C29 1_555 1_555
Sr1 O23 1_555 1_555
O23 C31 1_555 1_555
O24 C34 1_555 1_555
O25 Sr1 1_555 1_555
O26 C40 1_555 1_555
O27 C43 1_555 1_555
O28 C46 1_555 1_555
O29 Sr1 1_555 1_555
H49 O29 1_555 1_555
H50 O29 1_555 1_555
O30 Sr1 1_555 1_555
O31 Sr1 1_555 1_555
O32 Sr1 1_555 1_555
N1 C31 1_555 1_555
N2 C31 1_555 1_555
N3 C33 1_555 1_555
N4 C32 1_555 1_555
N5 C35 1_555 1_555
N6 C37 1_555 1_555
N7 C39 1_555 1_555
N8 C36 1_555 1_555
N9 C41 1_555 1_555
N10 C43 1_555 1_555
N11 C45 1_555 1_555
N12 C42 1_555 1_555
N13 C49 1_555 1_555
C32 N1 1_555 1_555
H51 C32 1_555 1_555
C33 N2 1_555 1_555
H52 C33 1_555 1_555
C34 N3 1_555 1_555
C35 N2 1_555 1_555
H53 C35 1_555 1_555
H54 C35 1_555 1_555
C36 N3 1_555 1_555
H55 C36 1_555 1_555
H56 C36 1_555 1_555
C37 O25 1_555 1_555
C38 N5 1_555 1_555
H57 C38 1_555 1_555
C39 N6 1_555 1_555
H58 C39 1_555 1_555
C40 N7 1_555 1_555
C41 N6 1_555 1_555
H59 C41 1_555 1_555
H60 C41 1_555 1_555
C42 N7 1_555 1_555
H61 C42 1_555 1_555
H62 C42 1_555 1_555
C43 N9 1_555 1_555
C44 N9 1_555 1_555
H63 C44 1_555 1_555
C45 N10 1_555 1_555
H64 C45 1_555 1_555
C46 N11 1_555 1_555
C47 N4 1_555 1_555
H65 C47 1_555 1_555
H66 C47 1_555 1_555
C48 N1 1_555 1_555
H67 C48 1_555 1_555
H68 C48 1_555 1_555
C49 O32 1_555 1_555
H69 C49 1_555 1_555
C50 N13 1_555 1_555
H70 C50 1_555 1_555
H71 C50 1_555 1_555
H72 C50 1_555 1_555
C51 N13 1_555 1_555
H73 C51 1_555 1_555
H74 C51 1_555 1_555
H75 C51 1_555 1_555
O33 Sr1 1_555 1_555
U1A O9 1_555 1_555
U2A O16 1_555 1_555
U2A_2 O19A 1_555 1_555
U3A O17 1_555 1_555
U3A_2 O10 1_555 1_555
U4_2 O18 1_555 1_555
U4A O21 1_555 1_555
U4A_2 O10A 1_555 1_555
U4A_3 O10A_2 1_555 1_555
O1A U1A 1_555 1_555
O2A U1A 1_555 1_555
O3A U2A 1_555 1_555
O4A U2A 1_555 1_555
O5A U3A 1_555 1_555
O6A U3A 1_555 1_555
O7_2 U4_2 1_555 1_555
O8_2 U4_2 1_555 1_555
O9A U1 1_555 1_555
O10A U3 1_555 1_555
O10A_2 U3A 1_555 1_555
O10_2 U3A 1_555 1_555
O11A U1A 1_555 1_555
O12A U1A 1_555 1_555
O13A U3A 1_555 1_555
O13_2 U4_2 1_555 1_555
O14A U3A 1_555 1_555
O15A U1A 1_555 1_555
O16A U2 1_555 1_555
O17A U3 1_555 1_555
O18A U4A_2 1_555 1_555
O18_2 U4 1_555 1_555
O19A C21A 1_555 1_555
O19A_2 U2A 1_555 1_555
O20A U2A_2 1_555 1_555
O20A_2 U2A 1_555 1_555
O21A U4 1_555 1_555
O21A_2 U4_2 1_555 1_555
O22A U4 1_555 1_555
O22A_2 U4_2 1_555 1_555
C1A O11A 1_555 1_555
C2A C1A 1_555 1_555
H1A C2A 1_555 1_555
H2A C2A 1_555 1_555
C3A C2A 1_555 1_555
H3A C3A 1_555 1_555
H4A C3A 1_555 1_555
C4A C3A 1_555 1_555
H5A C4A 1_555 1_555
H6A C4A 1_555 1_555
C5A C4A 1_555 1_555
H7A C5A 1_555 1_555
H8A C5A 1_555 1_555
C6A C5A 1_555 1_555
H9A C6A 1_555 1_555
H10A C6A 1_555 1_555
C7A C6A 1_555 1_555
H11A C7A 1_555 1_555
H12A C7A 1_555 1_555
C8A C7A 1_555 1_555
H13A C8A 1_555 1_555
H14A C8A 1_555 1_555
C9A C8A 1_555 1_555
H15A C9A 1_555 1_555
H16A C9A 1_555 1_555
C10A O13A 1_555 1_555
C11A O15A 1_555 1_555
C12A C11A 1_555 1_555
H17A C12A 1_555 1_555
H18A C12A 1_555 1_555
C13A C12A 1_555 1_555
H19A C13A 1_555 1_555
H20A C13A 1_555 1_555
C14A C13A 1_555 1_555
H21A C14A 1_555 1_555
H22A C14A 1_555 1_555
C15A C14A 1_555 1_555
H23A C15A 1_555 1_555
H24A C15A 1_555 1_555
C16A C15A 1_555 1_555
H25A C16A 1_555 1_555
H26A C16A 1_555 1_555
C17A C16A 1_555 1_555
H27A C17A 1_555 1_555
H28A C17A 1_555 1_555
C18A C17A 1_555 1_555
H29A C18A 1_555 1_555
H30A C18A 1_555 1_555
C19A C18A 1_555 1_555
H31A C19A 1_555 1_555
H32A C19A 1_555 1_555
C20A O17A 1_555 1_555
C21A O20A 1_555 1_555
C22A C21A 1_555 1_555
H33A C22A 1_555 1_555
H34A C22A 1_555 1_555
C23A C22A 1_555 1_555
H35A C23A 1_555 1_555
H36A C23A 1_555 1_555
C24A C23A 1_555 1_555
H37A C24A 1_555 1_555
H38A C24A 1_555 1_555
C25A C24A 1_555 1_555
H39A C25A 1_555 1_555
H40A C25A 1_555 1_555
C26A C25A 1_555 1_555
H41A C26A 1_555 1_555
H42A C26A 1_555 1_555
C27A C26A 1_555 1_555
H43A C27A 1_555 1_555
H44A C27A 1_555 1_555
C28A C27A 1_555 1_555
H45A C28A 1_555 1_555
H46A C28A 1_555 1_555
C29A C28A 1_555 1_555
H47A C29A 1_555 1_555
H48A C29A 1_555 1_555
C30A O21A 1_555 1_555
Sr1A O23A 1_555 1_555
Sr1_2 O24 1_555 1_555
Sr1A_2 O24A 1_555 1_555
O23A C31A 1_555 1_555
O24A C34A 1_555 1_555
O24_2 Sr1 1_555 1_555
O24A_2 Sr1A 1_555 1_555
O25A Sr1A 1_555 1_555
O26A C40A 1_555 1_555
O27A C43A 1_555 1_555
O28A C46A 1_555 1_555
O29A Sr1A 1_555 1_555
H49A O29A 1_555 1_555
H50A O29A 1_555 1_555
O30A Sr1A 1_555 1_555
O31A Sr1A 1_555 1_555
O32A Sr1A 1_555 1_555
N1A C31A 1_555 1_555
N2A C31A 1_555 1_555
N3A C33A 1_555 1_555
N4A C32A 1_555 1_555
N5A C35A 1_555 1_555
N6A C37A 1_555 1_555
N7A C39A 1_555 1_555
N8A C36A 1_555 1_555
N9A C41A 1_555 1_555
N10A C47 1_555 1_555
N11A C48 1_555 1_555
N12A C42A 1_555 1_555
N13A C49A 1_555 1_555
C32A N1A 1_555 1_555
H51A C32A 1_555 1_555
C33A N2A 1_555 1_555
H52A C33A 1_555 1_555
C34A N3A 1_555 1_555
C35A N2A 1_555 1_555
H53A C35A 1_555 1_555
H54A C35A 1_555 1_555
C36A N3A 1_555 1_555
H55A C36A 1_555 1_555
H56A C36A 1_555 1_555
C37A O25A 1_555 1_555
C38A N5A 1_555 1_555
H57A C38A 1_555 1_555
C39A N6A 1_555 1_555
H58A C39A 1_555 1_555
C40A N7A 1_555 1_555
C41A N6A 1_555 1_555
H59A C41A 1_555 1_555
H60A C41A 1_555 1_555
C42A N7A 1_555 1_555
H61A C42A 1_555 1_555
H62A C42A 1_555 1_555
C43A N9A 1_555 1_555
C44A N9A 1_555 1_555
H63A C44A 1_555 1_555
C45A N10A 1_555 1_555
H64A C45A 1_555 1_555
C46A N11A 1_555 1_555
C47A N10 1_555 1_555
H65A C47A 1_555 1_555
H66A C47A 1_555 1_555
C48A N11 1_555 1_555
H67A C48A 1_555 1_555
H68A C48A 1_555 1_555
C49A O32A 1_555 1_555
H69A C49A 1_555 1_555
C50A N13A 1_555 1_555
H70A C50A 1_555 1_555
H71A C50A 1_555 1_555
H72A C50A 1_555 1_555
C51A N13A 1_555 1_555
H73A C51A 1_555 1_555
H74A C51A 1_555 1_555
H75A C51A 1_555 1_555
O33A Sr1A 1_555 1_555
U2 O9 1_555 1_555
U2 O11 1_555 1_555
U4 O10 1_555 1_555
U4 O13 1_555 1_555
O12 C1 1_555 1_555
O14 C10 1_555 1_555
O20 C21 1_555 1_555
O22 U4A 1_555 1_555
C9 C10 1_555 1_555
N4 C34 1_555 1_555
N5 C37 1_555 1_555
N8 C38 1_555 1_555
N8 C40 1_555 1_555
N12 C44 1_555 1_555
N12 C46 1_555 1_555
C32 C33 1_555 1_555
C38 C39 1_555 1_555
C44 C45 1_555 1_555
U1A O9A 1_555 1_555
U2A O9A 1_555 1_555
U2A O11A 1_555 1_555
U3A_2 O10A 1_555 1_555
U4_2 O10_2 1_555 1_555
U4A_3 O13A 1_555 1_555
O12A C1A 1_555 1_555
O14A C10A 1_555 1_555
O16A C11A 1_555 1_555
O18A C20A 1_555 1_555
O22A C30A 1_555 1_555
C9A C10A 1_555 1_555
C19A C20A 1_555 1_555
C29A C30A 1_555 1_555
N1A C48A 1_555 1_555
N4A C34A 1_555 1_555
N4A C47A 1_555 1_555
N5A C37A 1_555 1_555
N8A C38A 1_555 1_555
N8A C40A 1_555 1_555
N10A C43A 1_555 1_555
N11A C45A 1_555 1_555
N12A C44A 1_555 1_555
N12A C46A 1_555 1_555
C32A C33A 1_555 1_555
C38A C39A 1_555 1_555
C44A C45A 1_555 1_555

#END
