
#######################################################################
#
#                 Cambridge Crystallographic Data Centre
#                                CCDC 
#
#######################################################################
#
# If this CIF has been generated from an entry in the Cambridge 
# Structural Database, then it will include bibliographic, chemical, 
# crystal, experimental, refinement or atomic coordinate data resulting 
# from the CCDC's data processing and validation procedures.
#
#######################################################################

data_AWEDOW
_symmetry_cell_setting           orthorhombic
_symmetry_space_group_name_H-M   'P n n a'
_symmetry_Int_Tables_number      52
_space_group_name_Hall           '-P 2a 2bc'
loop_
_symmetry_equiv_pos_site_id
_symmetry_equiv_pos_as_xyz
1 x,y,z
2 1/2-x,-y,z
3 x,1/2-y,1/2-z
4 1/2-x,1/2+y,1/2-z
5 -x,-y,-z
6 1/2+x,y,-z
7 -x,1/2+y,1/2+z
8 1/2+x,1/2-y,1/2+z
_cell_length_a                   28.330(3)
_cell_length_b                   27.766(3)
_cell_length_c                   9.9055(11)
_cell_angle_alpha                90
_cell_angle_beta                 90
_cell_angle_gamma                90
_cell_volume                     7791.77
loop_
_atom_site_label
_atom_site_type_symbol
_atom_site_fract_x
_atom_site_fract_y
_atom_site_fract_z
C1 C 0.43354(10) 0.55505(10) 0.5412(3)
H1 H 0.4139 0.5562 0.6163
C2 C 0.47086(10) 0.58070(10) 0.5271(3)
H2 H 0.4832 0.6024 0.5895
C3 C 0.46028(9) 0.53744(10) 0.3493(3)
H3 H 0.4636 0.5243 0.2635
C4 C 0.57641(9) 0.90249(9) -0.2251(2)
H4 H 0.5581 0.9215 -0.2819
C5 C 0.57141(9) 0.85471(10) -0.2098(2)
H5 H 0.5493 0.8350 -0.2519
C6 C 0.62947(9) 0.88248(9) -0.0802(3)
H6 H 0.6539 0.8843 -0.0177
C7 C 0.80071(9) 0.53952(9) -0.2061(3)
H7 H 0.7805 0.5456 -0.2782
C8 C 0.85989(9) 0.51499(10) -0.0895(2)
H8 H 0.8884 0.5007 -0.0656
C9 C 0.83124(9) 0.53892(10) -0.0011(3)
H9 H 0.8361 0.5440 0.0907
C10 C 0.52884(5) 0.59142(5) 0.33492(16)
C11 C 0.53483(5) 0.64106(5) 0.34086(15)
H10 H 0.5145 0.6597 0.3928
C12 C 0.57121(6) 0.66283(4) 0.26915(16)
H11 H 0.5752 0.6960 0.2731
C13 C 0.60160(5) 0.63495(5) 0.19148(16)
C14 C 0.59561(5) 0.58531(5) 0.18554(16)
H12 H 0.6159 0.5667 0.1336
C15 C 0.55923(6) 0.56354(4) 0.25726(17)
H13 H 0.5552 0.5303 0.2533
C16 C 0.61370(9) 0.79315(9) -0.0648(2)
C17 C 0.57795(9) 0.76203(10) -0.0603(2)
H14 H 0.5488 0.7701 -0.0973
C18 C 0.58453(9) 0.71685(9) 0.0009(2)
H15 H 0.5594 0.6954 0.0064
C19 C 0.62796(9) 0.70400(10) 0.0528(2)
C20 C 0.66535(9) 0.73659(9) 0.0435(2)
H16 H 0.6952 0.7276 0.0730
C21 C 0.65818(9) 0.78227(9) -0.0092(2)
H17 H 0.6822 0.8051 -0.0079
C22 C 0.75286(9) 0.58057(10) -0.0329(3)
C23 C 0.72195(9) 0.59918(10) -0.1214(3)
H18 H 0.7260 0.5957 -0.2141
C24 C 0.68349(9) 0.62401(10) -0.0674(2)
H19 H 0.6613 0.6361 -0.1276
C25 C 0.67622(9) 0.63165(9) 0.0623(2)
C26 C 0.70681(10) 0.61218(10) 0.1444(3)
H20 H 0.7004 0.6136 0.2364
C27 C 0.74693(10) 0.59017(10) 0.1058(3)
H21 H 0.7699 0.5816 0.1684
C28 C 0.29047(11) 0.48706(11) 0.5294(3)
C29 C 0.2500 0.5000 0.6217(4)
H22 H 0.2583 0.5271 0.6787
N1 N 0.42626(8) 0.52565(8) 0.4311(2)
N2 N 0.48962(8) 0.56980(8) 0.3992(2)
N3 N 0.63695(8) 0.65863(8) 0.11201(19)
N4 N 0.61209(7) 0.91927(8) -0.1456(2)
N5 N 0.60656(7) 0.84053(8) -0.11664(19)
N6 N 0.84225(8) 0.51463(8) -0.2136(2)
N7 N 0.79366(8) 0.55381(8) -0.0784(2)
O1 O 0.28591(7) 0.45497(7) 0.44265(18)
O2 O 0.32531(8) 0.50334(7) 0.55069(19)
Zn1 Zn 0.368504(11) 0.487442(11) 0.38402(3)
C1F C 0.56646(10) 0.05505(10) 1.0412(3)
H1F H 0.5861 0.0562 1.1163
C2F C 0.52914(10) 0.08070(10) 1.0271(3)
H2F H 0.5168 0.1024 1.0895
C3F C 0.53972(9) 0.03744(10) 0.8493(3)
H3F H 0.5364 0.0243 0.7635
C4F C 0.42359(9) 0.40249(9) 0.2749(2)
H4F H 0.4419 0.4215 0.2181
C5F C 0.42859(9) 0.35471(10) 0.2902(2)
H5F H 0.4507 0.3350 0.2481
C6F C 0.37053(9) 0.38248(9) 0.4198(3)
H6F H 0.3461 0.3843 0.4823
C7F C 0.19929(9) 0.03952(9) 0.2939(3)
H7F H 0.2195 0.0456 0.2218
C8F C 0.14011(9) 0.01499(10) 0.4105(2)
H8F H 0.1116 0.0007 0.4344
C9F C 0.16876(9) 0.03892(10) 0.4989(3)
H9F H 0.1639 0.0440 0.5907
C10F C 0.47116(5) 0.09142(5) 0.83492(16)
C11F C 0.46517(5) 0.14106(5) 0.84086(15)
H10F H 0.4855 0.1597 0.8928
C12F C 0.42879(6) 0.16283(4) 0.76915(16)
H11F H 0.4248 0.1960 0.7731
C13F C 0.39840(5) 0.13495(5) 0.69148(16)
C14F C 0.40439(5) 0.08531(5) 0.68554(16)
H12F H 0.3841 0.0667 0.6336
C15F C 0.44077(6) 0.06354(4) 0.75726(17)
H13F H 0.4448 0.0303 0.7533
C16F C 0.38630(9) 0.29315(9) 0.4352(2)
C17F C 0.42205(9) 0.26203(10) 0.4397(2)
H14F H 0.4512 0.2701 0.4027
C18F C 0.41547(9) 0.21685(9) 0.5009(2)
H15F H 0.4406 0.1954 0.5064
C19F C 0.37204(9) 0.20400(10) 0.5528(2)
C20F C 0.33465(9) 0.23659(9) 0.5435(2)
H16F H 0.3048 0.2276 0.5730
C21F C 0.34182(9) 0.28227(9) 0.4908(2)
H17F H 0.3178 0.3051 0.4921
C22F C 0.24714(9) 0.08057(10) 0.4671(3)
C23F C 0.27805(9) 0.09918(10) 0.3786(3)
H18F H 0.2740 0.0957 0.2859
C24F C 0.31651(9) 0.12401(10) 0.4326(2)
H19F H 0.3387 0.1361 0.3724
C25F C 0.32378(9) 0.13165(9) 0.5623(2)
C26F C 0.29319(10) 0.11218(10) 0.6444(3)
H20F H 0.2996 0.1136 0.7364
C27F C 0.25307(10) 0.09017(10) 0.6058(3)
H21F H 0.2301 0.0816 0.6684
C28A C 0.20953(11) 0.51294(11) 0.5294(3)
H22A H 0.2417 0.4729 0.6787
N1F N 0.57374(8) 0.02565(8) 0.9311(2)
N2F N 0.51038(8) 0.06980(8) 0.8992(2)
N3F N 0.36305(8) 0.15863(8) 0.61201(19)
N4F N 0.38791(7) 0.41927(8) 0.3544(2)
N4_2 N 0.61209(7) -0.08073(8) 0.8544(2)
N5F N 0.39344(7) 0.34053(8) 0.38336(19)
N6F N 0.15775(8) 0.01463(8) 0.2864(2)
N6E N 0.34225(8) 0.51463(8) 0.2136(2)
N6C N 0.65775(8) 0.01463(8) 0.7136(2)
N7F N 0.20634(8) 0.05381(8) 0.4216(2)
O1A O 0.21409(7) 0.54503(7) 0.44265(18)
O2A O 0.17469(8) 0.49666(7) 0.55069(19)
O2F O 0.67469(8) 0.00334(7) 1.05069(19)
Zn1F Zn 0.631496(11) -0.012558(11) 0.88402(3)
Zn1F_2 Zn 0.631496(11) 0.987442(11) -0.11598(3)
Zn1E Zn 0.868504(11) 0.487442(11) -0.38402(3)
Zn1A Zn 0.131496(11) 0.512558(11) 0.38402(3)
Zn1C Zn 0.131496(11) -0.012558(11) 0.11598(3)
N8 N 0.55520(9) 0.33105(10) 0.1540(2)
O3 O 0.53632(8) 0.36502(8) 0.0936(2)
O4 O 0.59777(7) 0.32533(7) 0.14403(18)
O5 O 0.53118(7) 0.30125(7) 0.21143(19)
O6 O 0.52226(16) 0.98772(16) 0.5594(4)
H23 H 0.5249 1.0055 0.4900
H24 H 0.5161 0.9578 0.5581
O7 O 0.92226(19) 0.81324(18) 0.9778(5)
H25 H 0.9414 0.8362 0.9929
H26 H 0.9337 0.7947 0.9177
O8 O 0.23794(16) 0.28140(18) 0.6736(5)
H27 H 0.2155 0.2907 0.7243
H28 H 0.2291 0.2824 0.5916
O9 O 0.16289(18) 0.38863(19) 0.5650(5)
H29 H 0.1617 0.4092 0.6285
H30 H 0.1747 0.4016 0.4950
O10 O 0.27815(18) 0.79482(19) 0.2081(4)
H31 H 0.2955 0.7703 0.2216
H32 H 0.2924 0.8144 0.1562
O11 O 0.2890(2) 0.8136(3) 0.4420(7)
H33 H 0.2977 0.8426 0.4308
H34 H 0.2632 0.8130 0.4855
O12 O 0.5536(2) 0.2893(2) 0.8479(6)
H35 H 0.5630 0.2905 0.9293
H36 H 0.5770 0.2847 0.7960
O13 O 0.61234(18) 0.13913(18) 0.6645(4)
H37 H 0.5907 0.1180 0.6592
H38 H 0.6324 0.1346 0.6019
loop_
_geom_bond_atom_site_label_1
_geom_bond_atom_site_label_2
_geom_bond_site_symmetry_1
_geom_bond_site_symmetry_2
C1 H1 1_555 1_555
C2 C1 1_555 1_555
H2 C2 1_555 1_555
C3 H3 1_555 1_555
C4 H4 1_555 1_555
C5 C4 1_555 1_555
H5 C5 1_555 1_555
C6 H6 1_555 1_555
C7 H7 1_555 1_555
C8 H8 1_555 1_555
C9 C8 1_555 1_555
H9 C9 1_555 1_555
C10 C11 1_555 1_555
C11 H10 1_555 1_555
C12 C11 1_555 1_555
H11 C12 1_555 1_555
C13 C12 1_555 1_555
C14 C13 1_555 1_555
H12 C14 1_555 1_555
C15 C10 1_555 1_555
H13 C15 1_555 1_555
C16 C17 1_555 1_555
C17 H14 1_555 1_555
C18 C17 1_555 1_555
H15 C18 1_555 1_555
C19 C18 1_555 1_555
C20 C19 1_555 1_555
H16 C20 1_555 1_555
C21 C16 1_555 1_555
H17 C21 1_555 1_555
C22 C23 1_555 1_555
C23 H18 1_555 1_555
C24 C23 1_555 1_555
H19 C24 1_555 1_555
C25 C24 1_555 1_555
C26 C25 1_555 1_555
H20 C26 1_555 1_555
C27 C22 1_555 1_555
H21 C27 1_555 1_555
C28 C29 1_555 1_555
C29 H22 1_555 1_555
N1 C1 1_555 1_555
N2 C2 1_555 1_555
N3 C13 1_555 1_555
N4 C4 1_555 1_555
N5 C5 1_555 1_555
N6 C7 1_555 1_555
N7 C7 1_555 1_555
N8 O3 1_555 1_555
O1 C28 1_555 1_555
O2 C28 1_555 1_555
O4 N8 1_555 1_555
O5 N8 1_555 1_555
O6 H23 1_555 1_555
H24 O6 1_555 1_555
O7 H25 1_555 1_555
H26 O7 1_555 1_555
O8 H27 1_555 1_555
H28 O8 1_555 1_555
O9 H29 1_555 1_555
H30 O9 1_555 1_555
O10 H31 1_555 1_555
H32 O10 1_555 1_555
O11 H33 1_555 1_555
H34 O11 1_555 1_555
O12 H35 1_555 1_555
H36 O12 1_555 1_555
O13 H37 1_555 1_555
H38 O13 1_555 1_555
Zn1 N1 1_555 1_555
C1F H1F 1_555 1_555
C2F C1F 1_555 1_555
H2F C2F 1_555 1_555
C3F H3F 1_555 1_555
C4F H4F 1_555 1_555
C5F C4F 1_555 1_555
H5F C5F 1_555 1_555
C6F H6F 1_555 1_555
C7F H7F 1_555 1_555
C8F H8F 1_555 1_555
C9F C8F 1_555 1_555
H9F C9F 1_555 1_555
C10F C11F 1_555 1_555
C11F H10F 1_555 1_555
C12F C11F 1_555 1_555
H11F C12F 1_555 1_555
C13F C12F 1_555 1_555
C14F C13F 1_555 1_555
H12F C14F 1_555 1_555
C15F C10F 1_555 1_555
H13F C15F 1_555 1_555
C16F C17F 1_555 1_555
C17F H14F 1_555 1_555
C18F C17F 1_555 1_555
H15F C18F 1_555 1_555
C19F C18F 1_555 1_555
C20F C19F 1_555 1_555
H16F C20F 1_555 1_555
C21F C16F 1_555 1_555
H17F C21F 1_555 1_555
C22F C23F 1_555 1_555
C23F H18F 1_555 1_555
C24F C23F 1_555 1_555
H19F C24F 1_555 1_555
C25F C24F 1_555 1_555
C26F C25F 1_555 1_555
H20F C26F 1_555 1_555
C27F C22F 1_555 1_555
H21F C27F 1_555 1_555
C28A C29 1_555 1_555
H22A C29 1_555 1_555
N1F C1F 1_555 1_555
N2F C2F 1_555 1_555
N3F C13F 1_555 1_555
N4F Zn1 1_555 1_555
N4_2 Zn1F 1_555 1_555
N5F C5F 1_555 1_555
N6F C7F 1_555 1_555
N6E Zn1 1_555 1_555
N6C Zn1F 1_555 1_555
N7F C7F 1_555 1_555
O1A C28A 1_555 1_555
O2A C28A 1_555 1_555
O2F Zn1F 1_555 1_555
Zn1F N1F 1_555 1_555
Zn1F_2 N4 1_555 1_555
Zn1E N6 1_555 1_555
Zn1A O2A 1_555 1_555
Zn1C N6F 1_555 1_555
C3 N1 1_555 1_555
C3 N2 1_555 1_555
C6 N4 1_555 1_555
C6 N5 1_555 1_555
C8 N6 1_555 1_555
C9 N7 1_555 1_555
C10 N2 1_555 1_555
C14 C15 1_555 1_555
C16 N5 1_555 1_555
C19 N3 1_555 1_555
C20 C21 1_555 1_555
C22 N7 1_555 1_555
C25 N3 1_555 1_555
C26 C27 1_555 1_555
O2 Zn1 1_555 1_555
C3F N1F 1_555 1_555
C3F N2F 1_555 1_555
C4F N4F 1_555 1_555
C6F N4F 1_555 1_555
C6F N5F 1_555 1_555
C8F N6F 1_555 1_555
C9F N7F 1_555 1_555
C10F N2F 1_555 1_555
C14F C15F 1_555 1_555
C16F N5F 1_555 1_555
C19F N3F 1_555 1_555
C20F C21F 1_555 1_555
C22F N7F 1_555 1_555
C25F N3F 1_555 1_555
C26F C27F 1_555 1_555

#END
