
#######################################################################
#
#                 Cambridge Crystallographic Data Centre
#                                CCDC 
#
#######################################################################
#
# If this CIF has been generated from an entry in the Cambridge 
# Structural Database, then it will include bibliographic, chemical, 
# crystal, experimental, refinement or atomic coordinate data resulting 
# from the CCDC's data processing and validation procedures.
#
#######################################################################

data_AWEFUE
_symmetry_cell_setting           monoclinic
_symmetry_space_group_name_H-M   'P 21/n'
_symmetry_Int_Tables_number      14
_space_group_name_Hall           '-P 2yn'
loop_
_symmetry_equiv_pos_site_id
_symmetry_equiv_pos_as_xyz
1 x,y,z
2 1/2-x,1/2+y,1/2-z
3 -x,-y,-z
4 1/2+x,1/2-y,1/2+z
_cell_length_a                   9.9016(19)
_cell_length_b                   16.818(3)
_cell_length_c                   23.978(5)
_cell_angle_alpha                90
_cell_angle_beta                 95.093(2)
_cell_angle_gamma                90
_cell_volume                     3977.17
loop_
_atom_site_label
_atom_site_type_symbol
_atom_site_fract_x
_atom_site_fract_y
_atom_site_fract_z
U1 U 0.89790(3) 0.524040(18) 0.240027(12)
U2 U 1.32795(3) 0.550640(18) 0.250030(12)
Cs1 Cs 0.90113(7) 0.27152(4) 0.20937(3)
Cs2 Cs 1.09750(7) 0.74700(4) 0.32524(3)
P1 P 0.6090(2) 0.61703(12) 0.16715(9)
P2 P 1.0742(2) 0.67197(12) 0.16340(8)
P3 P 0.6184(2) 0.41977(12) 0.29188(9)
P4 P 1.1474(2) 0.40165(13) 0.32293(9)
F1 F 1.1058(4) 0.5726(2) 0.27298(17)
O1 O 0.9582(5) 0.4641(3) 0.1866(2)
O2 O 0.8312(5) 0.5878(3) 0.2902(2)
O3 O 1.3593(5) 0.6256(3) 0.3018(2)
O4 O 1.2989(5) 0.4734(3) 0.2004(2)
O5 O 0.4940(5) 0.6181(3) 0.2030(2)
O6 O 0.7064(5) 0.5481(3) 0.17628(19)
O7 O 0.6931(5) 0.6956(3) 0.1775(2)
O8 O 1.1996(5) 0.6240(3) 0.1804(2)
O9 O 1.0986(5) 0.7598(3) 0.1753(2)
O10 O 0.9494(5) 0.6428(3) 0.1908(2)
O11 O 0.7471(5) 0.4272(3) 0.2629(2)
O12 O 0.5502(5) 0.3412(3) 0.2699(2)
O13 O 0.5260(5) 0.4894(3) 0.2824(2)
O14 O 1.1690(5) 0.3186(3) 0.2944(2)
O15 O 1.0102(5) 0.4314(3) 0.3006(2)
O16 O 1.2637(5) 0.4570(3) 0.3157(2)
O17 O 0.2901(6) 0.5589(4) -0.0884(2)
O18 O 0.4763(7) 0.6163(4) -0.1153(3)
O19 O 0.8297(6) 0.5678(4) -0.0965(2)
O20 O 0.8998(7) 0.6891(4) -0.1190(2)
O21 O 0.6095(6) 0.3915(4) 0.5724(2)
O22 O 0.8084(7) 0.3344(4) 0.5649(2)
O23 O 1.1818(8) 0.2898(4) 0.5973(3)
O24 O 1.1622(8) 0.4188(5) 0.6007(3)
C1 C 0.5440(8) 0.6181(4) 0.0946(3)
C2 C 0.4172(8) 0.5854(5) 0.0781(3)
H1 H 0.3629 0.5672 0.1051
C3 C 0.3720(8) 0.5796(5) 0.0231(4)
H2 H 0.2873 0.5575 0.0130
C4 C 0.4506(9) 0.6062(5) -0.0181(3)
C5 C 0.5738(8) 0.6406(5) -0.0019(3)
H3 H 0.6265 0.6596 -0.0292
C6 C 0.6213(8) 0.6476(5) 0.0532(4)
H4 H 0.7044 0.6718 0.0631
C7 C 0.4085(10) 0.5955(5) -0.0781(4)
C8 C 1.0288(7) 0.6605(5) 0.0892(3)
C9 C 1.0426(8) 0.7217(5) 0.0516(3)
H5 H 1.0804 0.7696 0.0644
C10 C 1.0020(9) 0.7131(5) -0.0041(4)
H6 H 1.0149 0.7546 -0.0287
C11 C 0.9421(8) 0.6433(5) -0.0240(3)
C12 C 0.9252(8) 0.5822(5) 0.0133(3)
H7 H 0.8838 0.5351 0.0007
C13 C 0.9693(8) 0.5909(5) 0.0690(4)
H8 H 0.9589 0.5490 0.0935
C14 C 0.8895(9) 0.6365(6) -0.0845(4)
C15 C 0.6515(8) 0.4083(4) 0.3658(3)
C16 C 0.5526(8) 0.4297(5) 0.4010(3)
H9 H 0.4724 0.4526 0.3855
C17 C 0.5703(9) 0.4181(5) 0.4579(4)
H10 H 0.5041 0.4352 0.4804
C18 C 0.6864(9) 0.3809(5) 0.4820(3)
C19 C 0.7860(8) 0.3589(5) 0.4479(3)
H11 H 0.8658 0.3356 0.4635
C20 C 0.7675(8) 0.3715(4) 0.3904(3)
H12 H 0.8341 0.3550 0.3680
C21 C 0.7086(10) 0.3663(5) 0.5428(4)
C22 C 1.1461(7) 0.3838(5) 0.3965(3)
C23 C 1.1407(9) 0.4494(5) 0.4316(4)
H13 H 1.1346 0.5004 0.4165
C24 C 1.1445(10) 0.4387(6) 0.4885(4)
H14 H 1.1379 0.4827 0.5116
C25 C 1.1577(9) 0.3643(5) 0.5119(4)
C26 C 1.1578(8) 0.2996(5) 0.4779(4)
H15 H 1.1627 0.2489 0.4933
C27 C 1.1506(8) 0.3091(5) 0.4198(4)
H16 H 1.1488 0.2645 0.3967
C28 C 1.1690(11) 0.3515(6) 0.5737(4)
U2_2 U 0.32795(3) 0.550640(18) 0.250030(12)
Cs1A Cs 0.59887(7) 0.77152(4) 0.29063(3)
Cs1B Cs 1.09887(7) 0.72848(4) -0.20937(3)
Cs2A Cs 0.40250(7) 0.24700(4) 0.17476(3)
Cs2C Cs 0.59750(7) 0.75300(4) -0.17476(3)
Cs2B Cs 0.90250(7) 0.25300(4) 0.67476(3)
O5_2 O 1.4940(5) 0.6181(3) 0.2030(2)
O7A O 0.8069(5) 0.1956(3) 0.3225(2)
O12A O 0.9498(5) 0.8412(3) 0.2301(2)
O13_2 O 1.5260(5) 0.4894(3) 0.2824(2)
O18C O 0.9763(7) 0.8837(4) 0.3847(3)
O20B O 1.1002(7) 0.3109(4) 0.1190(2)
O20C O 1.3998(7) 0.8109(4) 0.3810(2)
O22B O 1.1916(7) 0.6656(4) 0.4351(2)
loop_
_geom_bond_atom_site_label_1
_geom_bond_atom_site_label_2
_geom_bond_site_symmetry_1
_geom_bond_site_symmetry_2
U1 F1 1_555 1_555
U2 F1 1_555 1_555
Cs1 O1 1_555 1_555
Cs2 F1 1_555 1_555
P1 O5 1_555 1_555
P2 O8 1_555 1_555
P3 O11 1_555 1_555
P4 O14 1_555 1_555
O1 U1 1_555 1_555
O2 U1 1_555 1_555
O3 U2 1_555 1_555
O4 U2 1_555 1_555
O5 U2_2 1_555 1_555
O6 U1 1_555 1_555
O7 P1 1_555 1_555
O8 U2 1_555 1_555
O9 P2 1_555 1_555
O10 U1 1_555 1_555
O11 U1 1_555 1_555
O12 P3 1_555 1_555
O13 P3 1_555 1_555
O14 Cs1 1_555 1_555
O15 U1 1_555 1_555
O16 U2 1_555 1_555
O17 C7 1_555 1_555
O18 C7 1_555 1_555
O19 C14 1_555 1_555
O20 C14 1_555 1_555
O21 C21 1_555 1_555
O22 C21 1_555 1_555
O23 C28 1_555 1_555
O24 C28 1_555 1_555
C1 P1 1_555 1_555
C2 C1 1_555 1_555
H1 C2 1_555 1_555
C3 C2 1_555 1_555
H2 C3 1_555 1_555
C4 C3 1_555 1_555
C5 C4 1_555 1_555
H3 C5 1_555 1_555
C6 C1 1_555 1_555
H4 C6 1_555 1_555
C7 C4 1_555 1_555
C8 P2 1_555 1_555
C9 C8 1_555 1_555
H5 C9 1_555 1_555
C10 C9 1_555 1_555
H6 C10 1_555 1_555
C11 C10 1_555 1_555
C12 C11 1_555 1_555
H7 C12 1_555 1_555
C13 C8 1_555 1_555
H8 C13 1_555 1_555
C14 C11 1_555 1_555
C15 P3 1_555 1_555
C16 C15 1_555 1_555
H9 C16 1_555 1_555
C17 C16 1_555 1_555
H10 C17 1_555 1_555
C18 C17 1_555 1_555
C19 C18 1_555 1_555
H11 C19 1_555 1_555
C20 C15 1_555 1_555
H12 C20 1_555 1_555
C21 C18 1_555 1_555
C22 P4 1_555 1_555
C23 C22 1_555 1_555
H13 C23 1_555 1_555
C24 C23 1_555 1_555
H14 C24 1_555 1_555
C25 C24 1_555 1_555
C26 C25 1_555 1_555
H15 C26 1_555 1_555
C27 C22 1_555 1_555
H16 C27 1_555 1_555
C28 C25 1_555 1_555
U2_2 O13 1_555 1_555
Cs1A O7 1_555 1_555
Cs1B O20 1_555 1_555
Cs2A O12 1_555 1_555
Cs2C O18 1_555 1_555
Cs2B O22 1_555 1_555
O5_2 U2 1_555 1_555
O7A Cs1 1_555 1_555
O12A Cs2 1_555 1_555
O13_2 U2 1_555 1_555
O18C Cs2 1_555 1_555
O20B Cs1 1_555 1_555
O20C Cs2 1_555 1_555
O22B Cs2 1_555 1_555
Cs1 O11 1_555 1_555
P1 O6 1_555 1_555
P2 O10 1_555 1_555
P4 O15 1_555 1_555
P4 O16 1_555 1_555
O20 Cs2C 1_555 1_555
C5 C6 1_555 1_555
C12 C13 1_555 1_555
C19 C20 1_555 1_555
C26 C27 1_555 1_555

#END
