
#######################################################################
#
#                 Cambridge Crystallographic Data Centre
#                                CCDC 
#
#######################################################################
#
# If this CIF has been generated from an entry in the Cambridge 
# Structural Database, then it will include bibliographic, chemical, 
# crystal, experimental, refinement or atomic coordinate data resulting 
# from the CCDC's data processing and validation procedures.
#
#######################################################################

data_AWEGUF
_symmetry_cell_setting           monoclinic
_symmetry_space_group_name_H-M   'P 21/c'
_symmetry_Int_Tables_number      14
_space_group_name_Hall           '-P 2ybc'
loop_
_symmetry_equiv_pos_site_id
_symmetry_equiv_pos_as_xyz
1 x,y,z
2 -x,1/2+y,1/2-z
3 -x,-y,-z
4 x,1/2-y,1/2+z
_cell_length_a                   11.734(2)
_cell_length_b                   11.878(2)
_cell_length_c                   6.2110(12)
_cell_angle_alpha                90
_cell_angle_beta                 91.18(3)
_cell_angle_gamma                90
_cell_volume                     865.484
loop_
_atom_site_label
_atom_site_type_symbol
_atom_site_fract_x
_atom_site_fract_y
_atom_site_fract_z
Ag1 Ag 0.64924(6) 0.35033(5) 0.11084(10)
Ag2 Ag 0.54493(6) 0.63097(5) 0.29857(10)
S1 S 0.36357(15) 0.40555(14) 0.2066(3)
O1 O 0.4791(5) 0.4223(5) 0.2958(9)
O2 O 0.3498(5) 0.4558(5) -0.0079(8)
O3 O 0.3318(5) 0.2875(4) 0.2077(8)
O4 O 0.3474(5) 0.6598(4) 0.2940(8)
C1 C 0.2722(6) 0.4774(6) 0.3818(10)
C2 C 0.2777(6) 0.5949(6) 0.4040(11)
C3 C 0.2037(7) 0.6423(6) 0.5540(14)
H1 H 0.2039 0.7199 0.5743
C4 C 0.1301(6) 0.5762(7) 0.6728(12)
H2 H 0.0817 0.6115 0.7685
C5 C 0.1255(6) 0.4588(7) 0.6549(12)
C6 C 0.1980(6) 0.4121(6) 0.5041(11)
H3 H 0.1971 0.3345 0.4838
C7 C 0.0534(8) 0.3853(8) 0.7955(15)
H4 H 0.0533 0.3097 0.7410
H5 H -0.0232 0.4136 0.7953
H6 H 0.0842 0.3858 0.9399
Ag1B Ag 0.35076(6) 0.64967(5) -0.11084(10)
Ag1A Ag 0.35076(6) 0.85033(5) 0.38916(10)
Ag2B Ag 0.45507(6) 0.36903(5) 0.70143(10)
Ag2B_2 Ag 0.45507(6) 0.36903(5) -0.29857(10)
Ag2A Ag 0.45507(6) 0.13097(5) 0.20143(10)
O1B O 0.5209(5) 0.5777(5) 0.7042(9)
O2B O 0.6502(5) 0.5442(5) 0.0079(8)
O3A O 0.6682(5) 0.7875(4) 0.2923(8)
O4A O 0.6526(5) 0.1598(4) 0.2060(8)
O4B O 0.6526(5) 0.3402(4) -0.2940(8)
loop_
_geom_bond_atom_site_label_1
_geom_bond_atom_site_label_2
_geom_bond_site_symmetry_1
_geom_bond_site_symmetry_2
Ag1 O1 1_555 1_555
Ag2 O1 1_555 1_555
S1 O1 1_555 1_555
O1 Ag2B 1_555 1_555
O2 S1 1_555 1_555
O3 S1 1_555 1_555
O4 Ag2 1_555 1_555
C1 S1 1_555 1_555
C2 O4 1_555 1_555
C3 C2 1_555 1_555
H1 C3 1_555 1_555
C4 C3 1_555 1_555
H2 C4 1_555 1_555
C5 C4 1_555 1_555
C6 C1 1_555 1_555
H3 C6 1_555 1_555
C7 C5 1_555 1_555
H4 C7 1_555 1_555
H5 C7 1_555 1_555
H6 C7 1_555 1_555
Ag1B O2 1_555 1_555
Ag1A O4 1_555 1_555
Ag2B O1B 1_555 1_555
Ag2B_2 O2 1_555 1_555
Ag2A O3 1_555 1_555
O1B Ag2 1_555 1_555
O2B Ag1 1_555 1_555
O3A Ag2 1_555 1_555
O4A Ag1 1_555 1_555
O4B Ag1 1_555 1_555
Ag2 O2B 1_555 1_555
O4 Ag1B 1_555 1_555
C1 C2 1_555 1_555
C5 C6 1_555 1_555
Ag2B_2 O4B 1_555 1_555
Ag2A O4A 1_555 1_555

#END
