
#######################################################################
#
#                 Cambridge Crystallographic Data Centre
#                                CCDC 
#
#######################################################################
#
# If this CIF has been generated from an entry in the Cambridge 
# Structural Database, then it will include bibliographic, chemical, 
# crystal, experimental, refinement or atomic coordinate data resulting 
# from the CCDC's data processing and validation procedures.
#
#######################################################################

data_AWEGAL
_symmetry_cell_setting           triclinic
_symmetry_space_group_name_H-M   'P -1'
_symmetry_Int_Tables_number      2
_space_group_name_Hall           '-P 1'
loop_
_symmetry_equiv_pos_site_id
_symmetry_equiv_pos_as_xyz
1 x,y,z
2 -x,-y,-z
_cell_length_a                   14.1905(12)
_cell_length_b                   15.1412(13)
_cell_length_c                   21.4178(18)
_cell_angle_alpha                85.0190(10)
_cell_angle_beta                 88.3030(10)
_cell_angle_gamma                88.2520(10)
_cell_volume                     4580.66
loop_
_atom_site_label
_atom_site_type_symbol
_atom_site_fract_x
_atom_site_fract_y
_atom_site_fract_z
U1 U 1.36497(3) 0.74278(3) 0.71604(2)
U2 U 1.76005(3) 0.86175(3) 0.68480(2)
U3 U 1.09470(3) 0.77307(3) 0.78852(2)
U4 U 1.08402(3) 0.98928(3) 0.57778(2)
U5 U 1.40005(3) 0.52789(3) 0.93090(2)
U6 U 1.69127(3) 0.63465(3) 0.79824(2)
Cs1 Cs 1.41635(8) 0.85932(9) 0.52784(5)
Cs2 Cs 0.93397(6) 0.53372(6) 0.91334(5)
Cs3 Cs 1.47959(7) 0.84051(6) 0.90742(4)
Cs4 Cs 1.93545(6) 0.60249(6) 0.64903(4)
P1 P 1.2656(2) 0.9276(2) 0.69694(16)
P2 P 1.8237(2) 1.0348(2) 0.55529(16)
P3 P 1.2049(2) 0.5907(2) 0.81878(16)
P4 P 1.9633(2) 0.9787(2) 0.73014(16)
P5 P 1.8400(2) 0.7627(2) 0.84371(16)
P6 P 1.6050(2) 0.7408(2) 0.64150(16)
P7 P 1.4853(2) 0.5267(2) 0.76594(15)
P8 P 1.6562(2) 0.4549(2) 0.92777(16)
O1 O 1.3075(6) 0.7105(6) 0.6496(4)
O2 O 1.4190(6) 0.7782(6) 0.7836(4)
O3 O 1.6674(6) 0.9280(6) 0.7175(4)
O4 O 1.8503(6) 0.7929(6) 0.6519(4)
O5 O 1.1332(6) 0.8123(6) 0.8591(4)
O6 O 1.0586(6) 0.7312(5) 0.7184(4)
O7 O 1.1085(6) 1.1060(6) 0.5673(4)
O8 O 1.0591(6) 0.8744(5) 0.5871(4)
O9 O 1.4290(6) 0.6414(5) 0.9258(4)
O10 O 1.3701(6) 0.4134(6) 0.9394(4)
O11 O 1.7897(6) 0.5848(6) 0.7614(4)
O12 O 1.5953(6) 0.6874(5) 0.8357(4)
O13 O 1.2034(6) 0.9694(6) 0.6452(4)
O14 O 1.2232(6) 0.8423(6) 0.7327(4)
O15 O 1.3604(6) 0.8957(5) 0.6752(4)
O16 O 1.2015(7) 1.2423(6) 0.9028(4)
O17 O 1.3337(6) 1.1701(6) 0.9402(4)
O18 O 1.7813(6) 0.9645(5) 0.6003(4)
O19 O 1.7791(6) 1.0404(5) 0.4899(4)
O20 O 1.9296(6) 1.0191(5) 0.5392(4)
O21 O 1.8128(7) 1.4473(6) 0.6597(5)
O22 O 1.6707(6) 1.3988(6) 0.6919(4)
O23 O 1.1076(6) 0.6229(5) 0.8413(4)
O24 O 1.2417(5) 0.6752(5) 0.7812(4)
O25 O 1.2664(6) 0.5547(6) 0.8723(4)
O26 O 1.1479(7) 0.2293(6) 0.6586(4)
O27 O 1.1063(6) 0.3339(6) 0.5855(4)
O28 O 1.8644(6) 0.9443(5) 0.7276(4)
O29 O 2.0317(6) 0.9073(6) 0.7604(4)
O30 O 1.9998(5) 1.0151(5) 0.6654(4)
O31 O 1.9343(7) 1.2500(7) 0.9623(5)
O32 O 1.9113(7) 1.3524(7) 0.8828(5)
O33 O 1.7936(6) 0.6807(5) 0.8771(4)
O34 O 1.7814(6) 0.7809(6) 0.7848(4)
O35 O 1.9441(6) 0.7477(5) 0.8317(4)
O36 O 1.7101(7) 1.0863(7) 1.0329(5)
O37 O 1.8595(7) 1.0589(6) 1.0596(5)
O38 O 1.5009(6) 0.7498(5) 0.6523(4)
O39 O 1.6962(6) 0.5179(5) 0.8769(4)
O40 O 1.6490(6) 0.8242(5) 0.6098(4)
O41 O 1.7851(8) 0.4217(8) 0.4715(6)
O42 O 1.6468(8) 0.3583(8) 0.4964(5)
O43 O 1.5910(6) 0.5415(6) 0.7525(4)
O44 O 1.4682(6) 0.5080(5) 0.8365(4)
O45 O 1.4238(5) 0.6030(5) 0.7375(4)
O46 O 1.3458(7) 0.2182(7) 0.5837(5)
O47 O 1.4214(7) 0.1266(7) 0.6564(5)
O48 O 1.5601(5) 0.4849(5) 0.9553(4)
O49 O 1.6609(6) 0.7243(6) 0.7027(4)
O50 O 1.7165(5) 0.4438(5) 0.9861(4)
O51 O 1.6614(7) 0.0875(7) 0.7693(5)
O52 O 1.5656(6) 0.0369(6) 0.8487(4)
O53 O 1.5284(7) 1.0014(7) 0.5957(5)
O54 O 1.6520(6) 0.9051(6) 0.4890(4)
O55 O 0.8691(6) 0.5956(6) 1.0390(4)
O56 O 1.1123(6) 0.6201(6) 0.9717(4)
O57 O 1.6566(6) 0.7255(6) 0.9699(4)
O58 O 2.1247(6) 0.6965(6) 0.5839(4)
O59 O 1.9401(6) 0.7312(6) 0.5293(4)
C1 C 1.2724(9) 1.0066(8) 0.7537(6)
C2 C 1.1943(9) 1.0641(9) 0.7631(6)
H1 H 1.1421 1.0640 0.7364
C3 C 1.1921(9) 1.1208(9) 0.8108(6)
H2 H 1.1382 1.1580 0.8174
C4 C 1.2682(10) 1.1226(9) 0.8480(6)
C5 C 1.3483(9) 1.0666(9) 0.8396(6)
H3 H 1.4008 1.0682 0.8660
C6 C 1.3496(9) 1.0088(9) 0.7921(6)
H4 H 1.4031 0.9710 0.7859
C7 C 1.2653(10) 1.1858(9) 0.8988(7)
C8 C 1.8061(9) 1.1399(8) 0.5870(6)
C9 C 1.7221(9) 1.1550(9) 0.6214(6)
H5 H 1.6773 1.1096 0.6282
C10 C 1.7049(9) 1.2362(9) 0.6454(6)
H6 H 1.6472 1.2473 0.6674
C11 C 1.7716(9) 1.3012(9) 0.6376(6)
C12 C 1.8552(9) 1.2877(9) 0.6054(6)
H7 H 1.9007 1.3327 0.6010
C13 C 1.8732(9) 1.2067(8) 0.5791(6)
H8 H 1.9303 1.1973 0.5561
C14 C 1.7553(10) 1.3906(9) 0.6636(6)
C15 C 1.1921(9) 0.5062(9) 0.7649(6)
C16 C 1.1703(9) 0.5323(9) 0.7021(6)
H9 H 1.1687 0.5932 0.6869
C17 C 1.1511(9) 0.4669(9) 0.6626(6)
H10 H 1.1349 0.4831 0.6204
C18 C 1.1555(9) 0.3801(9) 0.6846(6)
C19 C 1.1821(9) 0.3529(9) 0.7440(6)
H11 H 1.1895 0.2914 0.7567
C20 C 1.1984(9) 0.4161(9) 0.7860(6)
H12 H 1.2135 0.3982 0.8282
C21 C 1.1338(9) 0.3129(9) 0.6379(7)
C22 C 1.9563(9) 1.0704(9) 0.7787(6)
C23 C 1.9468(9) 1.1561(9) 0.7548(7)
H13 H 1.9458 1.1699 0.7107
C24 C 1.9385(9) 1.2222(9) 0.7939(6)
H14 H 1.9311 1.2820 0.7769
C25 C 1.9409(9) 1.2030(9) 0.8591(7)
C26 C 1.9463(9) 1.1158(9) 0.8847(7)
H15 H 1.9422 1.1026 0.9289
C27 C 1.9576(9) 1.0479(9) 0.8450(6)
H16 H 1.9660 0.9880 0.8615
C28 C 1.9289(10) 1.2782(10) 0.9018(7)
C29 C 1.8263(9) 0.8516(9) 0.8939(6)
C30 C 1.8853(9) 0.8547(9) 0.9420(6)
H17 H 1.9358 0.8122 0.9462
C31 C 1.8749(9) 0.9183(9) 0.9862(6)
H18 H 1.9190 0.9200 1.0186
C32 C 1.7996(9) 0.9781(9) 0.9815(6)
C33 C 1.7378(10) 0.9752(9) 0.9321(6)
H19 H 1.6867 1.0171 0.9278
C34 C 1.7507(9) 0.9108(9) 0.8885(6)
H20 H 1.7076 0.9083 0.8557
C35 C 1.7842(11) 1.0487(10) 1.0264(7)
C36 C 1.6287(9) 0.6511(9) 0.5936(6)
C37 C 1.5647(10) 0.5824(9) 0.5921(7)
H21 H 1.5053 0.5870 0.6133
C38 C 1.5860(10) 0.5096(10) 0.5610(7)
H22 H 1.5425 0.4631 0.5614
C39 C 1.6738(10) 0.5035(10) 0.5279(7)
C40 C 1.7346(10) 0.5730(10) 0.5265(7)
H23 H 1.7917 0.5709 0.5024
C41 C 1.7137(10) 0.6455(10) 0.5598(6)
H24 H 1.7575 0.6917 0.5596
C42 C 1.6986(12) 0.4194(11) 0.4955(8)
C43 C 1.4530(9) 0.4300(9) 0.7305(6)
C44 C 1.4722(9) 0.3456(9) 0.7585(6)
H25 H 1.4999 0.3386 0.7986
C45 C 1.4510(9) 0.2710(10) 0.7283(7)
H26 H 1.4657 0.2135 0.7475
C46 C 1.4089(10) 0.2799(10) 0.6708(7)
C47 C 1.3869(9) 0.3643(9) 0.6438(7)
H27 H 1.3578 0.3711 0.6043
C48 C 1.4069(9) 0.4392(9) 0.6738(6)
H28 H 1.3891 0.4965 0.6556
C49 C 1.3938(10) 0.2000(10) 0.6363(7)
C50 C 1.6451(9) 0.3489(9) 0.8968(6)
C51 C 1.5790(9) 0.2885(9) 0.9234(6)
H29 H 1.5399 0.3031 0.9579
C52 C 1.5711(9) 0.2066(9) 0.8985(6)
H30 H 1.5265 0.1659 0.9169
C53 C 1.6258(9) 0.1832(9) 0.8483(6)
C54 C 1.6912(9) 0.2449(9) 0.8217(6)
H31 H 1.7302 0.2301 0.7871
C55 C 1.6997(9) 0.3275(9) 0.8454(6)
H32 H 1.7430 0.3688 0.8261
C56 C 1.6108(10) 0.0951(9) 0.8229(7)
U3_2 U 2.09470(3) 0.77307(3) 0.78852(2)
U4A U 1.91598(3) 1.01072(3) 0.42222(2)
U4_2 U 2.08402(3) 0.98928(3) 0.57778(2)
U5A U 1.59995(3) 0.47211(3) 1.06910(2)
Cs1A Cs 1.58365(8) 1.14068(9) 0.47216(5)
Cs1A_2 Cs 1.58365(8) 0.14068(9) 0.47216(5)
Cs2_2 Cs 1.93397(6) 0.53372(6) 0.91334(5)
Cs2_3 Cs 1.93397(6) 1.53372(6) 0.91334(5)
Cs2A Cs 1.06603(6) 0.46628(6) 1.08666(5)
Cs3A Cs 1.52041(7) 1.15949(6) 1.09258(4)
Cs3_2 Cs 1.47959(7) -0.15949(6) 0.90742(4)
Cs4_2 Cs 0.93545(6) 0.60249(6) 0.64903(4)
Cs4_3 Cs 1.93545(6) 1.60249(6) 0.64903(4)
P5_2 P 0.8400(2) 0.7627(2) 0.84371(16)
O6_2 O 2.0586(6) 0.7312(5) 0.7184(4)
O19A O 1.2209(6) 0.9596(5) 0.5101(4)
O20A O 1.0704(6) 0.9809(5) 0.4608(4)
O20_2 O 0.9296(6) 1.0191(5) 0.5392(4)
O21_2 O 1.8128(7) 0.4473(6) 0.6597(5)
O29_2 O 1.0317(6) 0.9073(6) 0.7604(4)
O30_2 O 0.9998(5) 1.0151(5) 0.6654(4)
O32_2 O 0.9113(7) 0.3524(7) 0.8828(5)
O33_2 O 0.7936(6) 0.6807(5) 0.8771(4)
O35_2 O 0.9441(6) 0.7477(5) 0.8317(4)
O36A O 1.2899(7) 0.9137(7) 0.9671(5)
O39_2 O 0.6962(6) 0.5179(5) 0.8769(4)
O42A O 1.3532(8) 0.6417(8) 0.5036(5)
O48A O 1.4399(5) 0.5151(5) 1.0447(4)
O50A O 1.2835(5) 0.5562(5) 1.0139(4)
O50_2 O 0.7165(5) 0.4438(5) 0.9861(4)
O52_2 O 1.5656(6) 1.0369(6) 0.8487(4)
O53A O 1.4716(7) 0.9986(7) 0.4043(5)
O54A O 1.3480(6) 1.0949(6) 0.5110(4)
O55A O 1.1309(6) 0.4044(6) 0.9610(4)
O56A O 0.8877(6) 0.3799(6) 1.0283(4)
loop_
_geom_bond_atom_site_label_1
_geom_bond_atom_site_label_2
_geom_bond_site_symmetry_1
_geom_bond_site_symmetry_2
U1 O1 1_555 1_555
U2 O3 1_555 1_555
U3 O5 1_555 1_555
U4 O7 1_555 1_555
U5 O9 1_555 1_555
U6 O11 1_555 1_555
Cs1 O1 1_555 1_555
Cs2 O23 1_555 1_555
Cs3 O2 1_555 1_555
Cs4 O4 1_555 1_555
P1 O13 1_555 1_555
P2 O18 1_555 1_555
P3 O23 1_555 1_555
P4 O28 1_555 1_555
P5 O33 1_555 1_555
P6 O38 1_555 1_555
P7 O43 1_555 1_555
P8 O39 1_555 1_555
O2 U1 1_555 1_555
O4 U2 1_555 1_555
O6 U3 1_555 1_555
O8 U4 1_555 1_555
O9 Cs3 1_555 1_555
O10 U5 1_555 1_555
O11 Cs4 1_555 1_555
O12 U6 1_555 1_555
O13 U4 1_555 1_555
O14 U1 1_555 1_555
O15 U1 1_555 1_555
O16 C7 1_555 1_555
O17 C7 1_555 1_555
O18 U2 1_555 1_555
O19 P2 1_555 1_555
O20 P2 1_555 1_555
O21 C14 1_555 1_555
O22 C14 1_555 1_555
O23 U3 1_555 1_555
O24 U1 1_555 1_555
O25 U5 1_555 1_555
O26 C21 1_555 1_555
O27 C21 1_555 1_555
O28 U2 1_555 1_555
O29 P4 1_555 1_555
O30 P4 1_555 1_555
O31 C28 1_555 1_555
O32 C28 1_555 1_555
O33 U6 1_555 1_555
O34 U2 1_555 1_555
O35 P5 1_555 1_555
O36 C35 1_555 1_555
O37 C35 1_555 1_555
O38 U1 1_555 1_555
O39 U6 1_555 1_555
O40 U2 1_555 1_555
O41 C42 1_555 1_555
O42 C42 1_555 1_555
O43 U6 1_555 1_555
O44 U5 1_555 1_555
O45 U1 1_555 1_555
O46 C49 1_555 1_555
O47 C49 1_555 1_555
O48 U5 1_555 1_555
O49 U2 1_555 1_555
O50 P8 1_555 1_555
O51 C56 1_555 1_555
O52 C56 1_555 1_555
O53 Cs1 1_555 1_555
O54 Cs1 1_555 1_555
O55 Cs2 1_555 1_555
O56 Cs2 1_555 1_555
O57 Cs3 1_555 1_555
O58 Cs4 1_555 1_555
O59 Cs4 1_555 1_555
C1 P1 1_555 1_555
C2 C1 1_555 1_555
H1 C2 1_555 1_555
C3 C2 1_555 1_555
H2 C3 1_555 1_555
C4 C3 1_555 1_555
C5 C4 1_555 1_555
H3 C5 1_555 1_555
C6 C1 1_555 1_555
H4 C6 1_555 1_555
C7 C4 1_555 1_555
C8 P2 1_555 1_555
C9 C8 1_555 1_555
H5 C9 1_555 1_555
C10 C9 1_555 1_555
H6 C10 1_555 1_555
C11 C10 1_555 1_555
C12 C11 1_555 1_555
H7 C12 1_555 1_555
C13 C8 1_555 1_555
H8 C13 1_555 1_555
C14 C11 1_555 1_555
C15 P3 1_555 1_555
C16 C15 1_555 1_555
H9 C16 1_555 1_555
C17 C16 1_555 1_555
H10 C17 1_555 1_555
C18 C17 1_555 1_555
C19 C18 1_555 1_555
H11 C19 1_555 1_555
C20 C15 1_555 1_555
H12 C20 1_555 1_555
C21 C18 1_555 1_555
C22 P4 1_555 1_555
C23 C22 1_555 1_555
H13 C23 1_555 1_555
C24 C23 1_555 1_555
H14 C24 1_555 1_555
C25 C24 1_555 1_555
C26 C25 1_555 1_555
H15 C26 1_555 1_555
C27 C22 1_555 1_555
H16 C27 1_555 1_555
C28 C25 1_555 1_555
C29 P5 1_555 1_555
C30 C29 1_555 1_555
H17 C30 1_555 1_555
C31 C30 1_555 1_555
H18 C31 1_555 1_555
C32 C31 1_555 1_555
C33 C32 1_555 1_555
H19 C33 1_555 1_555
C34 C29 1_555 1_555
H20 C34 1_555 1_555
C35 C32 1_555 1_555
C36 P6 1_555 1_555
C37 C36 1_555 1_555
H21 C37 1_555 1_555
C38 C37 1_555 1_555
H22 C38 1_555 1_555
C39 C38 1_555 1_555
C40 C39 1_555 1_555
H23 C40 1_555 1_555
C41 C36 1_555 1_555
H24 C41 1_555 1_555
C42 C39 1_555 1_555
C43 P7 1_555 1_555
C44 C43 1_555 1_555
H25 C44 1_555 1_555
C45 C44 1_555 1_555
H26 C45 1_555 1_555
C46 C45 1_555 1_555
C47 C46 1_555 1_555
H27 C47 1_555 1_555
C48 C43 1_555 1_555
H28 C48 1_555 1_555
C49 C46 1_555 1_555
C50 P8 1_555 1_555
C51 C50 1_555 1_555
H29 C51 1_555 1_555
C52 C51 1_555 1_555
H30 C52 1_555 1_555
C53 C52 1_555 1_555
C54 C53 1_555 1_555
H31 C54 1_555 1_555
C55 C50 1_555 1_555
H32 C55 1_555 1_555
C56 C53 1_555 1_555
U3_2 O29 1_555 1_555
U4A O19 1_555 1_555
U4_2 O20 1_555 1_555
U5A O48 1_555 1_555
Cs1A O19 1_555 1_555
Cs1A_2 O42 1_555 1_555
Cs2_2 O33 1_555 1_555
Cs2_3 O32 1_555 1_555
Cs2A O55 1_555 1_555
Cs3A O36 1_555 1_555
Cs3_2 O52 1_555 1_555
Cs4_2 O6 1_555 1_555
Cs4_3 O21 1_555 1_555
P5_2 O33_2 1_555 1_555
O6_2 Cs4 1_555 1_555
O19A U4 1_555 1_555
O20A U4 1_555 1_555
O20_2 U4 1_555 1_555
O21_2 Cs4 1_555 1_555
O29_2 U3 1_555 1_555
O30_2 U4 1_555 1_555
O32_2 Cs2 1_555 1_555
O33_2 Cs2 1_555 1_555
O35_2 U3 1_555 1_555
O36A Cs3 1_555 1_555
O39_2 Cs2 1_555 1_555
O42A Cs1 1_555 1_555
O48A U5 1_555 1_555
O50A U5 1_555 1_555
O50_2 Cs2 1_555 1_555
O52_2 Cs3 1_555 1_555
O53A Cs1 1_555 1_555
O54A Cs1 1_555 1_555
O55A Cs2 1_555 1_555
O56A Cs2 1_555 1_555
U3 O14 1_555 1_555
U3 O24 1_555 1_555
U6 O34 1_555 1_555
U6 O49 1_555 1_555
Cs1 O15 1_555 1_555
Cs1 O38 1_555 1_555
Cs1 O40 1_555 1_555
Cs1 O19A 1_555 1_555
Cs2 O35_2 1_555 1_555
Cs3 O12 1_555 1_555
P1 O14 1_555 1_555
P1 O15 1_555 1_555
P3 O24 1_555 1_555
P3 O25 1_555 1_555
P5 O34 1_555 1_555
P6 O40 1_555 1_555
P6 O49 1_555 1_555
P7 O44 1_555 1_555
P7 O45 1_555 1_555
P8 O48 1_555 1_555
O20 U4A 1_555 1_555
O30 U4_2 1_555 1_555
O35 U3_2 1_555 1_555
O35 Cs2_2 1_555 1_555
O39 Cs2_2 1_555 1_555
O50 U5A 1_555 1_555
O50 Cs2_2 1_555 1_555
O53 Cs1A 1_555 1_555
O54 Cs1A 1_555 1_555
O56 Cs2A 1_555 1_555
C5 C6 1_555 1_555
C12 C13 1_555 1_555
C19 C20 1_555 1_555
C26 C27 1_555 1_555
C33 C34 1_555 1_555
C40 C41 1_555 1_555
C47 C48 1_555 1_555
C54 C55 1_555 1_555
U3_2 O6_2 1_555 1_555
U5A O48A 1_555 1_555
Cs1A O53A 1_555 1_555
Cs1A O54A 1_555 1_555
Cs2A O50A 1_555 1_555
Cs2A O55A 1_555 1_555
Cs2A O56A 1_555 1_555
P5_2 O35_2 1_555 1_555

#END
