
#######################################################################
#
#                 Cambridge Crystallographic Data Centre
#                                CCDC 
#
#######################################################################
#
# If this CIF has been generated from an entry in the Cambridge 
# Structural Database, then it will include bibliographic, chemical, 
# crystal, experimental, refinement or atomic coordinate data resulting 
# from the CCDC's data processing and validation procedures.
#
#######################################################################

data_AWEGIT
_symmetry_cell_setting           orthorhombic
_symmetry_space_group_name_H-M   'P c c n'
_symmetry_Int_Tables_number      56
_space_group_name_Hall           '-P 2ab 2ac'
loop_
_symmetry_equiv_pos_site_id
_symmetry_equiv_pos_as_xyz
1 x,y,z
2 1/2-x,1/2-y,z
3 -x,1/2+y,1/2-z
4 1/2+x,-y,1/2-z
5 -x,-y,-z
6 1/2+x,1/2+y,-z
7 x,1/2-y,1/2+z
8 1/2-x,y,1/2+z
_cell_length_a                   8.2956(8)
_cell_length_b                   12.9202(13)
_cell_length_c                   23.109(2)
_cell_angle_alpha                90
_cell_angle_beta                 90
_cell_angle_gamma                90
_cell_volume                     2476.84
loop_
_atom_site_label
_atom_site_type_symbol
_atom_site_fract_x
_atom_site_fract_y
_atom_site_fract_z
U1 U -0.37958(6) 0.55579(3) 0.26691(2)
Ba1 Ba -0.7500 0.7500 0.19682(5)
P1 P -0.4867(4) 0.8217(3) 0.31152(15)
F1 F -0.6402(8) 0.5503(5) 0.2274(3)
O1 O -0.5103(11) 0.7109(6) 0.2906(4)
O2 O -0.5843(9) 0.8905(6) 0.2710(4)
O3 O -0.3158(9) 0.8529(6) 0.3150(4)
O4 O -0.4490(10) 0.5024(6) 0.3336(4)
O5 O -0.3091(10) 0.6082(6) 0.2004(4)
O6 O -0.4577(11) 0.7899(7) 0.1421(4)
O7 O -0.6703(12) 0.8652(8) 0.5979(4)
O8 O -0.8398(14) 0.9758(9) 0.5574(5)
C1 C -0.739(2) 0.9283(11) 0.4487(6)
H1 H -0.8237 0.9770 0.4545
C2 C -0.5648(16) 0.8404(10) 0.3831(6)
C3 C -0.5392(19) 0.8176(11) 0.4870(6)
H2 H -0.4858 0.7879 0.5193
C4 C -0.4888(17) 0.7949(11) 0.4310(6)
H3 H -0.4019 0.7481 0.4252
C5 C -0.7188(17) 0.9059(11) 0.5549(7)
C6 C -0.6937(17) 0.9051(10) 0.3931(6)
H4 H -0.7512 0.9338 0.3614
C7 C -0.6696(16) 0.8846(10) 0.4951(6)
U1A U -1.12042(6) 0.94421(3) 0.26691(2)
U1C U -0.87958(6) 0.44421(3) 0.23309(2)
U1B U -0.62042(6) 1.05579(3) 0.23309(2)
U1A_2 U -0.12042(6) 0.94421(3) 0.26691(2)
U1_2 U -1.37958(6) 0.55579(3) 0.26691(2)
Ba1F Ba -0.7500 0.7500 0.69682(5)
P1A P -1.0133(4) 0.6783(3) 0.31152(15)
F1A F -0.8598(8) 0.9497(5) 0.2274(3)
F1C F -0.1402(8) 0.4497(5) 0.2726(3)
F1B F -1.3598(8) 1.0503(5) 0.2726(3)
O1A O -0.9897(11) 0.7891(6) 0.2906(4)
O2A O -0.9157(9) 0.6095(6) 0.2710(4)
O2B O -0.4157(9) 0.3905(6) 0.2290(4)
O2C O -1.0843(9) 1.1095(6) 0.2290(4)
O3A O -1.1842(9) 0.6471(6) 0.3150(4)
O3A_2 O -0.1842(9) 0.6471(6) 0.3150(4)
O3_2 O -1.3158(9) 0.8529(6) 0.3150(4)
O4A O -1.0510(10) 0.9976(6) 0.3336(4)
O5A O -1.1909(10) 0.8918(6) 0.2004(4)
O6A O -1.0423(11) 0.7101(7) 0.1421(4)
O7A O -0.8297(12) 0.6348(8) 0.5979(4)
O7F O -0.6703(12) 0.6348(8) 0.0979(4)
O7G O -0.8297(12) 0.8652(8) 0.0979(4)
O8A O -0.6602(14) 0.5242(9) 0.5574(5)
C1A C -0.761(2) 0.5717(11) 0.4487(6)
H1A H -0.6763 0.5230 0.4545
C2A C -0.9352(16) 0.6596(10) 0.3831(6)
C3A C -0.9608(19) 0.6824(11) 0.4870(6)
H2A H -1.0142 0.7121 0.5193
C4A C -1.0112(17) 0.7051(11) 0.4310(6)
H3A H -1.0981 0.7519 0.4252
C5A C -0.7812(17) 0.5941(11) 0.5549(7)
C6A C -0.8063(17) 0.5949(10) 0.3931(6)
H4A H -0.7488 0.5662 0.3614
C7A C -0.8304(16) 0.6154(10) 0.4951(6)
loop_
_geom_bond_atom_site_label_1
_geom_bond_atom_site_label_2
_geom_bond_site_symmetry_1
_geom_bond_site_symmetry_2
U1 F1 1_555 1_555
Ba1 F1 1_555 1_555
P1 O1 1_555 1_555
F1 U1C 1_555 1_555
O1 U1 1_555 1_555
O2 Ba1 1_555 1_555
O3 P1 1_555 1_555
O4 U1 1_555 1_555
O5 U1 1_555 1_555
O6 Ba1 1_555 1_555
O7 C5 1_555 1_555
O8 C5 1_555 1_555
C1 H1 1_555 1_555
C2 P1 1_555 1_555
C3 H2 1_555 1_555
C4 C2 1_555 1_555
H3 C4 1_555 1_555
C5 C7 1_555 1_555
C6 C1 1_555 1_555
H4 C6 1_555 1_555
C7 C1 1_555 1_555
U1A F1A 1_555 1_555
U1C O2A 1_555 1_555
U1B O2 1_555 1_555
U1A_2 O3 1_555 1_555
U1_2 O3A 1_555 1_555
Ba1F O7 1_555 1_555
P1A O1A 1_555 1_555
F1A Ba1 1_555 1_555
F1C U1 1_555 1_555
F1B U1A 1_555 1_555
O1A Ba1 1_555 1_555
O2A Ba1 1_555 1_555
O2B U1 1_555 1_555
O2C U1A 1_555 1_555
O3A P1A 1_555 1_555
O3A_2 U1 1_555 1_555
O3_2 U1A 1_555 1_555
O4A U1A 1_555 1_555
O5A U1A 1_555 1_555
O6A Ba1 1_555 1_555
O7A Ba1F 1_555 1_555
O7F Ba1 1_555 1_555
O7G Ba1 1_555 1_555
O8A C5A 1_555 1_555
C1A H1A 1_555 1_555
C2A P1A 1_555 1_555
C3A H2A 1_555 1_555
C4A C2A 1_555 1_555
H3A C4A 1_555 1_555
C5A O7A 1_555 1_555
C6A C1A 1_555 1_555
H4A C6A 1_555 1_555
C7A C1A 1_555 1_555
Ba1 O1 1_555 1_555
P1 O2 1_555 1_555
C2 C6 1_555 1_555
C3 C4 1_555 1_555
C3 C7 1_555 1_555
U1A O1A 1_555 1_555
U1B F1A 1_555 1_555
P1A O2A 1_555 1_555
C2A C6A 1_555 1_555
C3A C4A 1_555 1_555
C3A C7A 1_555 1_555
C5A C7A 1_555 1_555

#END
