
#######################################################################
#
#                 Cambridge Crystallographic Data Centre
#                                CCDC 
#
#######################################################################
#
# If this CIF has been generated from an entry in the Cambridge 
# Structural Database, then it will include bibliographic, chemical, 
# crystal, experimental, refinement or atomic coordinate data resulting 
# from the CCDC's data processing and validation procedures.
#
#######################################################################

data_AWEHIU
_symmetry_cell_setting           monoclinic
_symmetry_space_group_name_H-M   'P 21/c'
_symmetry_Int_Tables_number      14
_space_group_name_Hall           '-P 2ybc'
loop_
_symmetry_equiv_pos_site_id
_symmetry_equiv_pos_as_xyz
1 x,y,z
2 -x,1/2+y,1/2-z
3 -x,-y,-z
4 x,1/2-y,1/2+z
_cell_length_a                   15.549(3)
_cell_length_b                   5.6544(11)
_cell_length_c                   19.612(4)
_cell_angle_alpha                90
_cell_angle_beta                 94.58(3)
_cell_angle_gamma                90
_cell_volume                     1718.79
loop_
_atom_site_label
_atom_site_type_symbol
_atom_site_fract_x
_atom_site_fract_y
_atom_site_fract_z
Ag1 Ag 0.46498(4) 0.54534(12) 0.72841(3)
Ag2 Ag 0.49121(4) 0.73080(12) 0.55805(3)
Br1 Br 0.92713(5) -0.07065(16) 0.59157(5)
Br2 Br 0.07375(6) 0.39611(17) 0.63724(5)
S1 S 0.59080(12) 0.2359(3) 0.61527(9)
S2 S 0.34693(12) 1.0176(3) 0.65887(9)
O1 O 0.5663(4) 0.4660(9) 0.6417(3)
O2 O 0.6048(4) 0.0583(10) 0.6684(3)
O3 O 0.5298(4) 0.1557(11) 0.5595(3)
O4 O 0.6331(4) 0.5912(11) 0.5102(3)
H1 H 0.648(6) 0.670(15) 0.476(3)
O5 O 0.3962(4) 0.8060(10) 0.6460(3)
O6 O 0.3923(4) 1.1643(11) 0.7116(3)
O7 O 0.3209(4) 1.1450(12) 0.5972(3)
O8 O 0.2558(4) 1.2052(12) 0.7878(3)
H2 H 0.308(2) 1.21(2) 0.778(5)
C1 C 0.7022(5) 0.4531(14) 0.5317(4)
C2 C 0.6911(4) 0.2743(12) 0.5793(3)
C3 C 0.7580(5) 0.1193(14) 0.5976(4)
H3 H 0.7506 -0.0013 0.6289
C4 C 0.8356(5) 0.1458(14) 0.5690(4)
C5 C 0.8488(5) 0.3305(14) 0.5247(4)
H4 H 0.9023 0.3515 0.5075
C6 C 0.7820(5) 0.4826(14) 0.5066(4)
H5 H 0.7906 0.6071 0.4769
C7 C 0.2190(5) 1.0226(14) 0.7509(4)
C8 C 0.2523(5) 0.9183(13) 0.6946(4)
C9 C 0.2096(5) 0.7295(14) 0.6614(4)
H6 H 0.2332 0.6551 0.6250
C10 C 0.1328(5) 0.6544(14) 0.6828(4)
C11 C 0.0980(5) 0.7526(16) 0.7383(4)
H7 H 0.0464 0.6961 0.7530
C12 C 0.1416(5) 0.9381(16) 0.7723(4)
H8 H 0.1186 1.0068 0.8099
Ag1A Ag 0.53502(4) 0.04534(12) 0.77159(3)
Ag1_2 Ag 0.46498(4) 1.54534(12) 0.72841(3)
Ag1A_2 Ag 0.53502(4) 1.04534(12) 0.77159(3)
Ag2_2 Ag 0.49121(4) -0.26920(12) 0.55805(3)
Ag2B Ag 0.50879(4) 0.26920(12) 0.44195(3)
O2A O 0.3952(4) 0.5583(10) 0.8316(3)
O3_2 O 0.5298(4) 1.1557(11) 0.5595(3)
O3B O 0.4702(4) 0.8443(11) 0.4405(3)
O6_2 O 0.3923(4) 0.1643(11) 0.7116(3)
O6A O 0.6077(4) 0.6643(11) 0.7884(3)
loop_
_geom_bond_atom_site_label_1
_geom_bond_atom_site_label_2
_geom_bond_site_symmetry_1
_geom_bond_site_symmetry_2
Ag1 O1 1_555 1_555
Ag2 O1 1_555 1_555
Br1 C4 1_555 1_555
Br2 C10 1_555 1_555
S1 O1 1_555 1_555
S2 O5 1_555 1_555
O2 S1 1_555 1_555
O3 S1 1_555 1_555
O4 Ag2 1_555 1_555
H1 O4 1_555 1_555
O5 Ag1 1_555 1_555
O6 S2 1_555 1_555
O7 S2 1_555 1_555
O8 H2 1_555 1_555
C1 O4 1_555 1_555
C2 S1 1_555 1_555
C3 C2 1_555 1_555
H3 C3 1_555 1_555
C4 C3 1_555 1_555
C5 C4 1_555 1_555
H4 C5 1_555 1_555
C6 C1 1_555 1_555
H5 C6 1_555 1_555
C7 O8 1_555 1_555
C8 S2 1_555 1_555
C9 C8 1_555 1_555
H6 C9 1_555 1_555
C10 C9 1_555 1_555
C11 C10 1_555 1_555
H7 C11 1_555 1_555
C12 C7 1_555 1_555
H8 C12 1_555 1_555
Ag1A O2 1_555 1_555
Ag1_2 O6 1_555 1_555
Ag1A_2 O6 1_555 1_555
Ag2_2 O3 1_555 1_555
Ag2B O3 1_555 1_555
O2A Ag1 1_555 1_555
O3_2 Ag2 1_555 1_555
O3B Ag2 1_555 1_555
O6_2 Ag1 1_555 1_555
O6A Ag1 1_555 1_555
Ag2 O5 1_555 1_555
C1 C2 1_555 1_555
C5 C6 1_555 1_555
C7 C8 1_555 1_555
C11 C12 1_555 1_555
Ag1A O6_2 1_555 1_555
Ag1A_2 O6A 1_555 1_555

#END
