
#######################################################################
#
#                 Cambridge Crystallographic Data Centre
#                                CCDC 
#
#######################################################################
#
# If this CIF has been generated from an entry in the Cambridge 
# Structural Database, then it will include bibliographic, chemical, 
# crystal, experimental, refinement or atomic coordinate data resulting 
# from the CCDC's data processing and validation procedures.
#
#######################################################################

data_AWEHOA
_symmetry_cell_setting           triclinic
_symmetry_space_group_name_H-M   'P -1'
_symmetry_Int_Tables_number      2
_space_group_name_Hall           '-P 1'
loop_
_symmetry_equiv_pos_site_id
_symmetry_equiv_pos_as_xyz
1 x,y,z
2 -x,-y,-z
_cell_length_a                   7.6110(15)
_cell_length_b                   8.6653(17)
_cell_length_c                   11.137(2)
_cell_angle_alpha                103.60(3)
_cell_angle_beta                 104.98(3)
_cell_angle_gamma                92.47(3)
_cell_volume                     685.413
loop_
_atom_site_label
_atom_site_type_symbol
_atom_site_fract_x
_atom_site_fract_y
_atom_site_fract_z
Ag1 Ag 0.79369(5) 0.89189(5) 0.93989(5)
Ag2 Ag 0.51518(5) 0.21044(4) 0.78509(3)
Br1 Br 0.17969(6) 0.18132(5) 0.57321(4)
S1 S 0.38940(13) 0.83279(11) 0.70345(8)
S2 S 0.14523(13) 0.50461(11) 0.19387(8)
O1 O 0.7091(4) 1.1683(4) 0.9885(3)
H1 H 0.6467 1.1774 1.0425
H2 H 0.8142 1.2196 1.0265
O2 O 0.4825(4) 0.7910(4) 0.8218(3)
O3 O 0.2224(5) 0.9055(4) 0.7112(3)
O4 O 1.0170(6) 0.9544(5) 1.1586(4)
H3 H 0.948(8) 0.987(8) 1.207(6)
H4 H 1.061(9) 0.871(5) 1.176(6)
O5 O 0.5111(4) 0.9282(4) 0.6592(3)
O6 O 0.3366(5) 0.3294(7) 0.9261(4)
H5 H 0.2276 0.3314 0.8823
H6 H 0.3505 0.3874 1.0017
O7 O 0.0276(5) 0.6292(4) 0.1781(3)
O8 O 0.0536(4) 0.3445(4) 0.1276(3)
O9 O 0.3175(4) 0.5333(4) 0.1638(3)
O10 O 0.3192(5) 0.7823(4) 0.4118(3)
H7 H 0.345(8) 0.865(4) 0.474(4)
C1 C 0.3200(5) 0.6519(4) 0.5825(3)
C2 C 0.2831(5) 0.6522(4) 0.4528(3)
C3 C 0.2049(5) 0.5097(4) 0.3601(3)
C4 C 0.1710(5) 0.3706(5) 0.3961(4)
H8 H 0.1186 0.2766 0.3341
C5 C 0.2161(5) 0.3740(4) 0.5253(4)
C6 C 0.2874(5) 0.5133(5) 0.6195(4)
H9 H 0.3132 0.5145 0.7061
Ag1A Ag 1.20631(5) 1.10811(5) 1.06011(5)
Ag1A_2 Ag 0.20631(5) 0.10811(5) 0.06011(5)
Ag2_2 Ag 0.51518(5) 1.21044(4) 0.78509(3)
Ag2A Ag 0.48482(5) 0.78956(4) 0.21491(3)
O1_2 O 0.7091(4) 0.1683(4) 0.9885(3)
H1_2 H 0.6467 0.1774 1.0425
H2_2 H 0.8142 0.2196 1.0265
O4A O 0.9830(6) 1.0456(5) 0.8414(4)
H3A H 1.052(8) 1.013(8) 0.793(6)
H4A H 0.939(9) 1.129(5) 0.824(6)
O5_2 O 0.5111(4) -0.0718(4) 0.6592(3)
O8A O 0.9464(4) 0.6555(4) 0.8724(3)
O9A O 0.6825(4) 0.4667(4) 0.8362(3)
loop_
_geom_bond_atom_site_label_1
_geom_bond_atom_site_label_2
_geom_bond_site_symmetry_1
_geom_bond_site_symmetry_2
Ag1 O1 1_555 1_555
Ag2 Br1 1_555 1_555
Br1 C5 1_555 1_555
S1 O2 1_555 1_555
S2 O7 1_555 1_555
O1 H1 1_555 1_555
H2 O1 1_555 1_555
O2 Ag1 1_555 1_555
O3 S1 1_555 1_555
O4 Ag1 1_555 1_555
H3 O4 1_555 1_555
H4 O4 1_555 1_555
O5 S1 1_555 1_555
O6 Ag2 1_555 1_555
H5 O6 1_555 1_555
H6 O6 1_555 1_555
O8 S2 1_555 1_555
O9 S2 1_555 1_555
O10 H7 1_555 1_555
C1 S1 1_555 1_555
C2 O10 1_555 1_555
C3 S2 1_555 1_555
C4 C3 1_555 1_555
H8 C4 1_555 1_555
C5 C4 1_555 1_555
C6 C1 1_555 1_555
H9 C6 1_555 1_555
Ag1A O4 1_555 1_555
Ag1A_2 O8 1_555 1_555
Ag2_2 O1 1_555 1_555
Ag2A O9 1_555 1_555
O1_2 Ag2 1_555 1_555
H1_2 O1_2 1_555 1_555
H2_2 O1_2 1_555 1_555
O4A Ag1 1_555 1_555
H3A O4A 1_555 1_555
H4A O4A 1_555 1_555
O5_2 Ag2 1_555 1_555
O8A Ag1 1_555 1_555
O9A Ag2 1_555 1_555
O5 Ag2_2 1_555 1_555
C1 C2 1_555 1_555
C2 C3 1_555 1_555
C5 C6 1_555 1_555
Ag1A O4A 1_555 1_555

#END
