
#######################################################################
#
#                 Cambridge Crystallographic Data Centre
#                                CCDC 
#
#######################################################################
#
# If this CIF has been generated from an entry in the Cambridge 
# Structural Database, then it will include bibliographic, chemical, 
# crystal, experimental, refinement or atomic coordinate data resulting 
# from the CCDC's data processing and validation procedures.
#
#######################################################################

data_AWEHAM
_symmetry_cell_setting           triclinic
_symmetry_space_group_name_H-M   'P -1'
_symmetry_Int_Tables_number      2
_space_group_name_Hall           '-P 1'
loop_
_symmetry_equiv_pos_site_id
_symmetry_equiv_pos_as_xyz
1 x,y,z
2 -x,-y,-z
_cell_length_a                   7.6464(15)
_cell_length_b                   8.5086(17)
_cell_length_c                   11.210(2)
_cell_angle_alpha                105.37(3)
_cell_angle_beta                 102.62(3)
_cell_angle_gamma                91.43(3)
_cell_volume                     683.583
loop_
_atom_site_label
_atom_site_type_symbol
_atom_site_fract_x
_atom_site_fract_y
_atom_site_fract_z
Ag1 Ag 0.45515(5) 0.29893(4) 0.20334(3)
Ag2 Ag 0.21131(5) 0.60650(4) 0.06171(5)
S1 S 0.13799(12) 0.00742(10) 0.19352(8)
S2 S 0.39549(12) 0.33150(10) 0.69768(8)
O1 O 0.2893(4) 0.3241(4) -0.0042(3)
H1 H 0.354(6) 0.310(7) -0.058(4)
H2 H 0.193(4) 0.262(6) -0.033(4)
O2 O 0.3027(4) 0.0368(3) 0.1545(3)
O3 O 0.6622(5) 0.1767(7) 0.0798(4)
H3 H 0.706(12) 0.109(7) 0.120(6)
H4 H 0.621(11) 0.126(8) 0.002(2)
O4 O 0.0478(4) -0.1547(3) 0.1242(3)
O5 O -0.0114(5) 0.5474(4) -0.1511(4)
H5 H 0.058(7) 0.498(7) -0.196(5)
H6 H -0.045(9) 0.630(5) -0.176(6)
O6 O 0.0189(4) 0.1364(4) 0.1881(3)
O7 O 0.2337(4) 0.4093(4) 0.7164(3)
O8 O 0.4922(4) 0.2878(3) 0.8096(3)
O9 O 0.5115(4) 0.4299(3) 0.6513(3)
O10 O 0.3243(4) 0.2840(3) 0.4096(3)
H7 H 0.379(8) 0.348(7) 0.476(6)
C1 C 0.2017(5) 0.0069(4) 0.3548(3)
C2 C 0.2857(4) 0.1497(4) 0.4481(3)
C3 C 0.3252(4) 0.1481(4) 0.5750(3)
C4 C 0.2880(5) 0.0053(4) 0.6084(3)
H8 H 0.3169 0.0059 0.6935
C5 C 0.2078(5) -0.1382(4) 0.5153(3)
C6 C 0.1648(4) -0.1323(4) 0.3895(4)
H9 H 0.1092 -0.2256 0.3264
C7 C 0.1710(6) -0.2934(5) 0.5493(4)
H10 H 0.0629 -0.2880 0.5801
H11 H 0.2700 -0.3063 0.6143
H12 H 0.1565 -0.3851 0.4753
Ag1A Ag -0.45515(5) 0.70107(4) -0.20334(3)
Ag1_2 Ag -0.54485(5) 0.29893(4) -0.79666(3)
Ag1A_2 Ag 0.54485(5) 0.70107(4) 0.79666(3)
Ag2A Ag -0.21131(5) 0.39350(4) -0.06171(5)
Ag2_2 Ag -0.78869(5) 0.60650(4) -0.93829(5)
Ag2_3 Ag 0.21131(5) -0.39350(4) 0.06171(5)
Ag2A_2 Ag -0.21131(5) 1.39350(4) -0.06171(5)
Ag2A_3 Ag 0.78869(5) 0.39350(4) 0.93829(5)
S1A S -0.13799(12) 0.99258(10) -0.19352(8)
S2A S -0.39549(12) 0.66850(10) -0.69768(8)
O1A O -0.2893(4) 0.6759(4) 0.0042(3)
H1A H -0.354(6) 0.690(7) 0.058(4)
H2A H -0.193(4) 0.738(6) 0.033(4)
O2A O -0.3027(4) 0.9632(3) -0.1545(3)
O3A O -0.6622(5) 0.8233(7) -0.0798(4)
H3A H -0.706(12) 0.891(7) -0.120(6)
H4A H -0.621(11) 0.874(8) -0.002(2)
O4A O -0.0478(4) 1.1547(3) -0.1242(3)
O4_2 O 0.0478(4) 0.8453(3) 0.1242(3)
O4A_2 O -0.0478(4) 0.1547(3) -0.1242(3)
O5A O 0.0114(5) 0.4526(4) 0.1511(4)
H5A H -0.058(7) 0.502(7) 0.196(5)
H6A H 0.045(9) 0.370(5) 0.176(6)
O6A O -0.0189(4) 0.8636(4) -0.1881(3)
O7A O -0.2337(4) 0.5907(4) -0.7164(3)
O8A O -0.4922(4) 0.7122(3) -0.8096(3)
O8_2 O -0.5078(4) 0.2878(3) -0.1904(3)
O8A_2 O 0.5078(4) 0.7122(3) 0.1904(3)
O9A O -0.5115(4) 0.5701(3) -0.6513(3)
O9_2 O -0.4885(4) 0.4299(3) -0.3487(3)
O9A_2 O 0.4885(4) 0.5701(3) 0.3487(3)
O10A O -0.3243(4) 0.7160(3) -0.4096(3)
H7A H -0.379(8) 0.652(7) -0.476(6)
C1A C -0.2017(5) 0.9931(4) -0.3548(3)
C2A C -0.2857(4) 0.8503(4) -0.4481(3)
C3A C -0.3252(4) 0.8519(4) -0.5750(3)
C4A C -0.2880(5) 0.9947(4) -0.6084(3)
H8A H -0.3169 0.9941 -0.6935
C5A C -0.2078(5) 1.1382(4) -0.5153(3)
C6A C -0.1648(4) 1.1323(4) -0.3895(4)
H9A H -0.1092 1.2256 -0.3264
C7A C -0.1710(6) 1.2934(5) -0.5493(4)
H10A H -0.0629 1.2880 -0.5801
H11A H -0.2700 1.3063 -0.6143
H12A H -0.1565 1.3851 -0.4753
loop_
_geom_bond_atom_site_label_1
_geom_bond_atom_site_label_2
_geom_bond_site_symmetry_1
_geom_bond_site_symmetry_2
Ag1 O1 1_555 1_555
Ag2 O1 1_555 1_555
S1 O2 1_555 1_555
S2 O7 1_555 1_555
O1 H1 1_555 1_555
H2 O1 1_555 1_555
O2 Ag1 1_555 1_555
O3 Ag1 1_555 1_555
H3 O3 1_555 1_555
H4 O3 1_555 1_555
O4 S1 1_555 1_555
O5 Ag2 1_555 1_555
H5 O5 1_555 1_555
H6 O5 1_555 1_555
O6 S1 1_555 1_555
O8 S2 1_555 1_555
O9 S2 1_555 1_555
O10 H7 1_555 1_555
C1 S1 1_555 1_555
C2 O10 1_555 1_555
C3 S2 1_555 1_555
C4 C3 1_555 1_555
H8 C4 1_555 1_555
C5 C4 1_555 1_555
C6 C1 1_555 1_555
H9 C6 1_555 1_555
C7 C5 1_555 1_555
H10 C7 1_555 1_555
H11 C7 1_555 1_555
H12 C7 1_555 1_555
Ag1A O1A 1_555 1_555
Ag1_2 O9A 1_555 1_555
Ag1A_2 O9 1_555 1_555
Ag2A O5 1_555 1_555
Ag2_2 O8A 1_555 1_555
Ag2_3 O4 1_555 1_555
Ag2A_2 O4A 1_555 1_555
Ag2A_3 O8 1_555 1_555
S1A O2A 1_555 1_555
S2A O7A 1_555 1_555
O1A Ag2A 1_555 1_555
H1A O1A 1_555 1_555
H2A O1A 1_555 1_555
O2A Ag1A 1_555 1_555
O3A Ag1A 1_555 1_555
H3A O3A 1_555 1_555
H4A O3A 1_555 1_555
O4A S1A 1_555 1_555
O4_2 Ag2 1_555 1_555
O4A_2 Ag2A 1_555 1_555
O5A Ag2 1_555 1_555
H5A O5A 1_555 1_555
H6A O5A 1_555 1_555
O6A S1A 1_555 1_555
O8A S2A 1_555 1_555
O8_2 Ag2A 1_555 1_555
O8A_2 Ag2 1_555 1_555
O9A S2A 1_555 1_555
O9_2 Ag1A 1_555 1_555
O9A_2 Ag1 1_555 1_555
O10A H7A 1_555 1_555
C1A S1A 1_555 1_555
C2A O10A 1_555 1_555
C3A S2A 1_555 1_555
C4A C3A 1_555 1_555
H8A C4A 1_555 1_555
C5A C4A 1_555 1_555
C6A C1A 1_555 1_555
H9A C6A 1_555 1_555
C7A C5A 1_555 1_555
H10A C7A 1_555 1_555
H11A C7A 1_555 1_555
H12A C7A 1_555 1_555
C1 C2 1_555 1_555
C2 C3 1_555 1_555
C5 C6 1_555 1_555
Ag2A O5A 1_555 1_555
C1A C2A 1_555 1_555
C2A C3A 1_555 1_555
C5A C6A 1_555 1_555

#END
