
#######################################################################
#
#                 Cambridge Crystallographic Data Centre
#                                CCDC 
#
#######################################################################
#
# If this CIF has been generated from an entry in the Cambridge 
# Structural Database, then it will include bibliographic, chemical, 
# crystal, experimental, refinement or atomic coordinate data resulting 
# from the CCDC's data processing and validation procedures.
#
#######################################################################

data_AWEJOC
_symmetry_cell_setting           monoclinic
_symmetry_space_group_name_H-M   'C 2/c'
_symmetry_Int_Tables_number      15
_space_group_name_Hall           '-C 2yn'
loop_
_symmetry_equiv_pos_site_id
_symmetry_equiv_pos_as_xyz
1 x,y,z
2 -x,y,1/2-z
3 1/2+x,1/2+y,z
4 1/2-x,1/2+y,1/2-z
5 -x,-y,-z
6 x,-y,1/2+z
7 1/2-x,1/2-y,-z
8 1/2+x,1/2-y,1/2+z
_cell_length_a                   24.636(3)
_cell_length_b                   12.0873(16)
_cell_length_c                   24.464(3)
_cell_angle_alpha                90
_cell_angle_beta                 115.818(2)
_cell_angle_gamma                90
_cell_volume                     6557.79
loop_
_atom_site_label
_atom_site_type_symbol
_atom_site_fract_x
_atom_site_fract_y
_atom_site_fract_z
C1 C 0.95930(15) 0.2977(3) 0.15812(15)
O1 O 0.98959(10) 0.37148(18) 0.14694(11)
O2 O 0.96545(10) 0.19943(19) 0.15074(11)
C2 C 0.91330(13) 0.3377(3) 0.17817(14)
C3 C 0.88532(14) 0.2643(3) 0.20059(14)
H1 H 0.8972 0.1905 0.2058
C4 C 0.83979(13) 0.2984(3) 0.21559(14)
H2 H 0.8219 0.2472 0.2311
C5 C 0.82065(14) 0.4061(3) 0.20788(13)
C6 C 0.85042(14) 0.4804(3) 0.18772(15)
H3 H 0.8396 0.5547 0.1839
C7 C 0.89613(15) 0.4466(3) 0.17310(15)
H4 H 0.9155 0.4984 0.1596
C8 C 0.76903(14) 0.4418(2) 0.21949(14)
C9 C 0.75983(14) 0.4023(2) 0.26801(14)
H5 H 0.7865 0.3503 0.2938
C10 C 0.71189(14) 0.4382(2) 0.27934(14)
C11 C 0.67262(14) 0.5149(2) 0.23963(14)
H6 H 0.6402 0.5397 0.2462
C12 C 0.67994(13) 0.5559(2) 0.19055(13)
C13 C 0.72818(13) 0.5186(2) 0.18060(13)
H7 H 0.7334 0.5453 0.1475
C14 C 0.70181(14) 0.4010(3) 0.33202(14)
C15 C 0.70874(14) 0.2928(3) 0.35138(14)
H8 H 0.7226 0.2403 0.3327
C16 C 0.69530(15) 0.2618(3) 0.39838(15)
H9 H 0.6991 0.1878 0.4099
C17 C 0.67656(14) 0.3365(3) 0.42845(15)
C18 C 0.67097(16) 0.4453(3) 0.41024(16)
H10 H 0.6591 0.4982 0.4304
C19 C 0.68280(15) 0.4763(3) 0.36250(15)
H11 H 0.6779 0.5500 0.3504
C20 C 0.66239(15) 0.3001(3) 0.47881(16)
C21 C 0.63679(14) 0.6399(2) 0.14977(15)
C22 C 0.49932(16) 0.6517(3) -0.22000(14)
C23 C 0.48595(15) 0.5590(3) -0.19609(16)
H12 H 0.4794 0.4925 -0.2171
C24 C 0.48188(15) 0.5615(3) -0.14173(16)
H13 H 0.4728 0.4974 -0.1264
C25 C 0.49116(15) 0.6581(3) -0.11066(16)
C26 C 0.50755(16) 0.7511(3) -0.13154(16)
H14 H 0.5159 0.8163 -0.1092
C27 C 0.51165(16) 0.7478(3) -0.18580(16)
H15 H 0.5229 0.8112 -0.1998
C28 C 0.44134(17) 0.6126(3) -0.04290(18)
H16 H 0.4123 0.5627 -0.0677
C29 C 0.44943(17) 0.6479(3) 0.01199(18)
H17 H 0.4265 0.6258 0.0318
C30 C 0.51512(15) 0.7280(3) -0.00805(16)
H18 H 0.5469 0.7731 -0.0051
C31 C 0.73332(18) 1.2206(3) 0.01382(17)
C32 C 0.70153(17) 1.1260(3) -0.01058(17)
H19 H 0.7014 1.0977 -0.0460
C33 C 0.66959(19) 1.0710(3) 0.01551(19)
H20 H 0.6478 1.0078 -0.0030
C34 C 0.66972(16) 1.1077(3) 0.06744(17)
C35 C 0.70061(18) 1.2012(3) 0.09246(17)
H21 H 0.7010 1.2290 0.1281
C36 C 0.73160(18) 1.2556(3) 0.06495(18)
H22 H 0.7524 1.3199 0.0830
C37 C 0.61942(14) 0.9450(3) 0.08641(14)
H23 H 0.6293 0.8947 0.0634
C38 C 0.61426(17) 1.0965(3) 0.13111(18)
H24 H 0.6193 1.1690 0.1452
C39 C 0.58359(16) 1.0163(3) 0.14321(17)
H25 H 0.5631 1.0247 0.1671
Co1 Co 0.539413(19) 0.78477(3) 0.11830(2)
N1 N 0.49607(12) 0.7206(2) 0.03449(12)
N2 N 0.48396(13) 0.6640(2) -0.05542(13)
N3 N 0.58688(11) 0.9203(2) 0.11531(12)
N4 N 0.63659(13) 1.0511(2) 0.09405(13)
O3 O 0.59578(9) 0.66973(15) 0.16481(9)
O4 O 0.64262(10) 0.67806(17) 0.10572(10)
O5 O 0.66327(14) 0.38318(19) 0.51431(12)
H26 H 0.6563 0.3598 0.5421
O6 O 0.65133(11) 0.2063(2) 0.48624(10)
C1A C 0.04070(15) 0.2977(3) -0.65812(15)
O1A O 0.01041(10) 0.37148(18) -0.64694(11)
O1B O 0.48959(10) 0.87148(18) 0.14694(11)
O1C O 0.51041(10) 0.87148(18) -0.64694(11)
O2A O 0.03455(10) 0.19943(19) -0.65074(11)
C2A C 0.08670(13) 0.3377(3) -0.67817(14)
C3A C 0.11468(14) 0.2643(3) -0.70059(14)
H1A H 0.1028 0.1905 -0.7058
C4A C 0.16021(13) 0.2984(3) -0.71559(14)
H2A H 0.1781 0.2472 -0.7311
C5A C 0.17935(14) 0.4061(3) -0.70788(13)
C6A C 0.14958(14) 0.4804(3) -0.68772(15)
H3A H 0.1604 0.5547 -0.6839
C7A C 0.10387(15) 0.4466(3) -0.67310(15)
H4A H 0.0845 0.4984 -0.6596
C8A C 0.23097(14) 0.4418(2) -0.71949(14)
C9A C 0.24017(14) 0.4023(2) -0.76801(14)
H5A H 0.2135 0.3503 -0.7938
C10A C 0.28811(14) 0.4382(2) -0.77934(14)
C11A C 0.32738(14) 0.5149(2) -0.73963(14)
H6A H 0.3598 0.5397 -0.7462
C12A C 0.32006(13) 0.5559(2) -0.69055(13)
C13A C 0.27182(13) 0.5186(2) -0.68060(13)
H7A H 0.2666 0.5453 -0.6475
C14A C 0.29819(14) 0.4010(3) -0.83202(14)
C15A C 0.29126(14) 0.2928(3) -0.85138(14)
H8A H 0.2774 0.2403 -0.8327
C16A C 0.30470(15) 0.2618(3) -0.89838(15)
H9A H 0.3009 0.1878 -0.9099
C17A C 0.32344(14) 0.3365(3) -0.92845(15)
C18A C 0.32903(16) 0.4453(3) -0.91024(16)
H10A H 0.3409 0.4982 -0.9304
C19A C 0.31720(15) 0.4763(3) -0.86250(15)
H11A H 0.3221 0.5500 -0.8504
C20A C 0.33761(15) 0.3001(3) -0.97881(16)
C21A C 0.36321(14) 0.6399(2) -0.64977(15)
C22A C 0.50068(16) 0.6517(3) -0.28000(14)
C23A C 0.51405(15) 0.5590(3) -0.30391(16)
H12A H 0.5206 0.4925 -0.2829
C24A C 0.51812(15) 0.5615(3) -0.35827(16)
H13A H 0.5272 0.4974 -0.3736
C25A C 0.50884(15) 0.6581(3) -0.38934(16)
C26A C 0.49245(16) 0.7511(3) -0.36846(16)
H14A H 0.4841 0.8163 -0.3908
C27A C 0.48835(16) 0.7478(3) -0.31420(16)
H15A H 0.4771 0.8112 -0.3002
C28A C 0.55866(17) 0.6126(3) -0.45710(18)
H16A H 0.5877 0.5627 -0.4323
C29A C 0.55057(17) 0.6479(3) -0.51199(18)
H17A H 0.5735 0.6258 -0.5318
C30A C 0.48488(15) 0.7280(3) -0.49195(16)
H18A H 0.4531 0.7731 -0.4949
C31F C 0.76668(18) 1.2794(3) -0.01382(17)
C32F C 0.79847(17) 1.3740(3) 0.01058(17)
H19F H 0.7986 1.4023 0.0460
C33F C 0.83041(19) 1.4290(3) -0.01551(19)
H20F H 0.8522 1.4922 0.0030
C34F C 0.83028(16) 1.3923(3) -0.06744(17)
C35F C 0.79939(18) 1.2988(3) -0.09246(17)
H21F H 0.7990 1.2710 -0.1281
C36F C 0.76840(18) 1.2444(3) -0.06495(18)
H22F H 0.7476 1.1801 -0.0830
C37F C 0.88058(14) 1.5550(3) -0.08641(14)
H23F H 0.8707 1.6053 -0.0634
C38F C 0.88574(17) 1.4035(3) -0.13111(18)
H24F H 0.8807 1.3310 -0.1452
C39F C 0.91641(16) 1.4837(3) -0.14321(17)
H25F H 0.9369 1.4753 -0.1671
Co1A Co 0.460587(19) 0.78477(3) -0.61830(2)
Co1B Co 1.039413(19) 0.28477(3) 0.11830(2)
Co1C Co -0.039413(19) 0.28477(3) -0.61830(2)
Co1F Co 0.960587(19) 1.71523(3) -0.11830(2)
N1A N 0.50393(12) 0.7206(2) -0.53449(12)
N2A N 0.51604(13) 0.6640(2) -0.44458(13)
N3F N 0.91312(11) 1.5797(2) -0.11531(12)
N3A N 0.41312(11) 0.9203(2) -0.61531(12)
N4F N 0.86341(13) 1.4489(2) -0.09405(13)
O3A O 0.40422(9) 0.66973(15) -0.66481(9)
O4A O 0.35738(10) 0.67806(17) -0.60572(10)
O5A O 0.33673(14) 0.38318(19) -1.01431(12)
H26A H 0.3437 0.3598 -1.0421
O6A O 0.34867(11) 0.2063(2) -0.98624(10)
loop_
_geom_bond_atom_site_label_1
_geom_bond_atom_site_label_2
_geom_bond_site_symmetry_1
_geom_bond_site_symmetry_2
C1 O1 1_555 1_555
O1 Co1B 1_555 1_555
O2 C1 1_555 1_555
C2 C1 1_555 1_555
C3 C2 1_555 1_555
H1 C3 1_555 1_555
C4 C3 1_555 1_555
H2 C4 1_555 1_555
C5 C4 1_555 1_555
C6 C5 1_555 1_555
H3 C6 1_555 1_555
C7 C2 1_555 1_555
H4 C7 1_555 1_555
C8 C5 1_555 1_555
C9 C8 1_555 1_555
H5 C9 1_555 1_555
C10 C9 1_555 1_555
C11 C10 1_555 1_555
H6 C11 1_555 1_555
C12 C11 1_555 1_555
C13 C8 1_555 1_555
H7 C13 1_555 1_555
C14 C10 1_555 1_555
C15 C14 1_555 1_555
H8 C15 1_555 1_555
C16 C15 1_555 1_555
H9 C16 1_555 1_555
C17 C16 1_555 1_555
C18 C17 1_555 1_555
H10 C18 1_555 1_555
C19 C14 1_555 1_555
H11 C19 1_555 1_555
C20 C17 1_555 1_555
C21 C12 1_555 1_555
C22 C23 1_555 1_555
C23 H12 1_555 1_555
C24 C23 1_555 1_555
H13 C24 1_555 1_555
C25 C24 1_555 1_555
C26 C25 1_555 1_555
H14 C26 1_555 1_555
C27 C22 1_555 1_555
H15 C27 1_555 1_555
C28 H16 1_555 1_555
C29 C28 1_555 1_555
H17 C29 1_555 1_555
C30 H18 1_555 1_555
C31 C32 1_555 1_555
C32 H19 1_555 1_555
C33 C32 1_555 1_555
H20 C33 1_555 1_555
C34 C33 1_555 1_555
C35 C34 1_555 1_555
H21 C35 1_555 1_555
C36 C31 1_555 1_555
H22 C36 1_555 1_555
C37 H23 1_555 1_555
C38 H24 1_555 1_555
C39 C38 1_555 1_555
H25 C39 1_555 1_555
Co1 N1 1_555 1_555
N1 C29 1_555 1_555
N2 C25 1_555 1_555
N3 C37 1_555 1_555
N4 C34 1_555 1_555
O3 C21 1_555 1_555
O4 C21 1_555 1_555
O5 C20 1_555 1_555
H26 O5 1_555 1_555
O6 C20 1_555 1_555
C1A O1A 1_555 1_555
O1A Co1C 1_555 1_555
O1B Co1 1_555 1_555
O1C Co1A 1_555 1_555
O2A C1A 1_555 1_555
C2A C1A 1_555 1_555
C3A C2A 1_555 1_555
H1A C3A 1_555 1_555
C4A C3A 1_555 1_555
H2A C4A 1_555 1_555
C5A C4A 1_555 1_555
C6A C5A 1_555 1_555
H3A C6A 1_555 1_555
C7A C2A 1_555 1_555
H4A C7A 1_555 1_555
C8A C5A 1_555 1_555
C9A C8A 1_555 1_555
H5A C9A 1_555 1_555
C10A C9A 1_555 1_555
C11A C10A 1_555 1_555
H6A C11A 1_555 1_555
C12A C11A 1_555 1_555
C13A C8A 1_555 1_555
H7A C13A 1_555 1_555
C14A C10A 1_555 1_555
C15A C14A 1_555 1_555
H8A C15A 1_555 1_555
C16A C15A 1_555 1_555
H9A C16A 1_555 1_555
C17A C16A 1_555 1_555
C18A C17A 1_555 1_555
H10A C18A 1_555 1_555
C19A C14A 1_555 1_555
H11A C19A 1_555 1_555
C20A C17A 1_555 1_555
C21A C12A 1_555 1_555
C22A C22 1_555 1_555
C23A C22A 1_555 1_555
H12A C23A 1_555 1_555
C24A C23A 1_555 1_555
H13A C24A 1_555 1_555
C25A C24A 1_555 1_555
C26A C25A 1_555 1_555
H14A C26A 1_555 1_555
C27A C22A 1_555 1_555
H15A C27A 1_555 1_555
C28A H16A 1_555 1_555
C29A C28A 1_555 1_555
H17A C29A 1_555 1_555
C30A H18A 1_555 1_555
C31F C31 1_555 1_555
C32F C31F 1_555 1_555
H19F C32F 1_555 1_555
C33F C32F 1_555 1_555
H20F C33F 1_555 1_555
C34F C33F 1_555 1_555
C35F C34F 1_555 1_555
H21F C35F 1_555 1_555
C36F C31F 1_555 1_555
H22F C36F 1_555 1_555
C37F H23F 1_555 1_555
C38F H24F 1_555 1_555
C39F C38F 1_555 1_555
H25F C39F 1_555 1_555
Co1A N1A 1_555 1_555
Co1F N3F 1_555 1_555
N1A C29A 1_555 1_555
N2A C25A 1_555 1_555
N3F C37F 1_555 1_555
N3A Co1A 1_555 1_555
N4F C34F 1_555 1_555
O3A C21A 1_555 1_555
O4A C21A 1_555 1_555
O5A C20A 1_555 1_555
H26A O5A 1_555 1_555
O6A C20A 1_555 1_555
C6 C7 1_555 1_555
C12 C13 1_555 1_555
C18 C19 1_555 1_555
C26 C27 1_555 1_555
C28 N2 1_555 1_555
C30 N1 1_555 1_555
C30 N2 1_555 1_555
C35 C36 1_555 1_555
C37 N4 1_555 1_555
C38 N4 1_555 1_555
C39 N3 1_555 1_555
Co1 N3 1_555 1_555
Co1 O3 1_555 1_555
C6A C7A 1_555 1_555
C12A C13A 1_555 1_555
C18A C19A 1_555 1_555
C26A C27A 1_555 1_555
C28A N2A 1_555 1_555
C30A N1A 1_555 1_555
C30A N2A 1_555 1_555
C35F C36F 1_555 1_555
C37F N4F 1_555 1_555
C38F N4F 1_555 1_555
C39F N3F 1_555 1_555
Co1A O3A 1_555 1_555

#END
