
#######################################################################
#
#                 Cambridge Crystallographic Data Centre
#                                CCDC 
#
#######################################################################
#
# If this CIF has been generated from an entry in the Cambridge 
# Structural Database, then it will include bibliographic, chemical, 
# crystal, experimental, refinement or atomic coordinate data resulting 
# from the CCDC's data processing and validation procedures.
#
#######################################################################

data_AWELIX
_symmetry_cell_setting           triclinic
_symmetry_space_group_name_H-M   'P -1'
_symmetry_Int_Tables_number      2
_space_group_name_Hall           '-P 1'
loop_
_symmetry_equiv_pos_site_id
_symmetry_equiv_pos_as_xyz
1 x,y,z
2 -x,-y,-z
_cell_length_a                   6.2480(12)
_cell_length_b                   9.3820(19)
_cell_length_c                   17.046(3)
_cell_angle_alpha                76.59(3)
_cell_angle_beta                 80.21(3)
_cell_angle_gamma                87.42(3)
_cell_volume                     957.801
loop_
_atom_site_label
_atom_site_type_symbol
_atom_site_fract_x
_atom_site_fract_y
_atom_site_fract_z
Ca1 Ca 0.26493(17) 0.36344(12) 0.48546(7)
O1 O -0.3575(6) 0.3142(4) 0.6794(2)
N1 N 0.1692(6) 0.1800(4) 0.6191(3)
O2 O 0.3930(6) 0.4887(5) 0.5807(3)
O3 O 0.5511(5) 0.1788(4) 0.5220(2)
O4 O 0.6612(6) -0.0224(4) 0.6068(2)
O5 O 0.3550(7) 0.3178(5) 0.3460(3)
O6 O 0.0040(7) 0.1966(5) 0.4585(3)
N2 N 0.0437(7) -0.0448(5) 0.7555(3)
C1 C 0.5247(8) 0.0746(6) 0.5849(4)
C2 C -0.0259(8) 0.1819(6) 0.6653(3)
C3 C -0.0906(9) 0.0693(6) 0.7323(4)
C4 C 0.3034(8) 0.0685(6) 0.6404(3)
C5 C 0.2417(9) -0.0424(7) 0.7088(4)
H1 H 0.323(8) -0.122(5) 0.730(3)
H2 H 0.460(11) 0.421(8) 0.616(4)
H3 H -0.129(11) 0.192(7) 0.475(4)
H4 H 0.299(12) 0.526(7) 0.621(4)
H5 H 0.363(10) 0.209(8) 0.351(4)
H6 H -0.243(12) 0.080(7) 0.770(4)
H7 H 0.438(17) 0.357(11) 0.310(6)
C6 C -0.1711(9) 0.3130(6) 0.6372(3)
O7 O -0.0960(5) 0.4059(4) 0.5742(2)
H8 H 0.060(17) 0.101(11) 0.436(6)
Ca1A Ca 0.73507(17) 0.63656(12) 0.51454(7)
O2A O 0.6070(6) 0.5113(5) 0.4193(3)
Ca1A_2 Ca -0.26493(17) 0.63656(12) 0.51454(7)
O7A O 0.0960(5) 0.5941(4) 0.4258(2)
H2A H 0.540(11) 0.579(8) 0.384(4)
H4A H 0.701(12) 0.474(7) 0.379(4)
O8 O 0.1963(7) 0.5260(5) 0.9400(2)
O9 O 0.3690(6) 0.5971(5) 0.8113(3)
N3 N 0.4849(7) 0.3096(5) 0.9753(3)
C7 C 0.5917(11) 0.0938(8) 1.0690(4)
C8 C 0.5295(8) 0.4114(6) 0.9043(3)
C9 C 0.6417(9) 0.2102(7) 0.9909(4)
C10 C 0.3549(9) 0.5214(7) 0.8808(4)
O10 O 0.4389(9) 0.0959(7) 1.1180(4)
C11 C 0.8337(10) 0.2126(8) 0.9372(5)
N4 N 0.8806(8) 0.3120(6) 0.8677(3)
C12 C 0.7238(10) 0.4123(7) 0.8522(4)
H9 H 0.114(10) 0.611(7) 0.924(4)
H10 H 0.745(9) 0.490(6) 0.797(4)
H11 H 0.957(11) 0.113(7) 0.947(4)
O11 O 0.7398(9) -0.0069(6) 1.0747(4)
H12 H 0.694(19) -0.083(14) 1.126(8)
O12 O 0.9180(10) 0.7109(8) 0.8929(5)
H13 H 0.956(8) 0.773(6) 0.920(3)
H14 H 0.939(12) 0.802(9) 0.856(5)
O13 O 0.6953(9) 0.7741(6) 0.1959(3)
H15 H 0.606(17) 0.711(11) 0.241(7)
H16 H 0.782(16) 0.716(11) 0.198(6)
O14 O 0.0908(8) 0.5778(7) 0.6956(4)
H17 H 0.020(18) 0.654(12) 0.668(6)
H18 H 0.109(13) 0.611(8) 0.732(5)
loop_
_geom_bond_atom_site_label_1
_geom_bond_atom_site_label_2
_geom_bond_site_symmetry_1
_geom_bond_site_symmetry_2
Ca1 N1 1_555 1_555
O1 C6 1_555 1_555
N1 C2 1_555 1_555
O2 Ca1 1_555 1_555
O3 Ca1 1_555 1_555
O4 C1 1_555 1_555
O5 Ca1 1_555 1_555
O6 Ca1 1_555 1_555
N2 C3 1_555 1_555
C1 O3 1_555 1_555
C2 C3 1_555 1_555
C3 H6 1_555 1_555
C4 N1 1_555 1_555
C5 N2 1_555 1_555
H1 C5 1_555 1_555
H2 O2 1_555 1_555
H3 O6 1_555 1_555
H4 O2 1_555 1_555
H5 O5 1_555 1_555
H7 O5 1_555 1_555
C6 C2 1_555 1_555
O7 Ca1 1_555 1_555
H8 O6 1_555 1_555
O8 C10 1_555 1_555
O9 C10 1_555 1_555
N3 C8 1_555 1_555
C7 C9 1_555 1_555
C8 C10 1_555 1_555
C9 N3 1_555 1_555
O10 C7 1_555 1_555
C11 C9 1_555 1_555
N4 C11 1_555 1_555
C12 C8 1_555 1_555
H9 O8 1_555 1_555
H10 C12 1_555 1_555
H11 C11 1_555 1_555
O11 C7 1_555 1_555
H12 O11 1_555 1_555
O12 H13 1_555 1_555
H14 O12 1_555 1_555
O13 H15 1_555 1_555
H16 O13 1_555 1_555
O14 H17 1_555 1_555
H18 O14 1_555 1_555
Ca1A O2 1_555 1_555
O2A Ca1 1_555 1_555
Ca1A_2 O7 1_555 1_555
O7A Ca1 1_555 1_555
H2A O2A 1_555 1_555
H4A O2A 1_555 1_555
C1 C4 1_555 1_555
C4 C5 1_555 1_555
C6 O7 1_555 1_555
N4 C12 1_555 1_555
Ca1A O2A 1_555 1_555
Ca1A_2 O7A 1_555 1_555

#END
