
#######################################################################
#
#                 Cambridge Crystallographic Data Centre
#                                CCDC 
#
#######################################################################
#
# If this CIF has been generated from an entry in the Cambridge 
# Structural Database, then it will include bibliographic, chemical, 
# crystal, experimental, refinement or atomic coordinate data resulting 
# from the CCDC's data processing and validation procedures.
#
#######################################################################

data_AWELAP
_symmetry_cell_setting           triclinic
_symmetry_space_group_name_H-M   'P -1'
_symmetry_Int_Tables_number      2
_space_group_name_Hall           '-P 1'
loop_
_symmetry_equiv_pos_site_id
_symmetry_equiv_pos_as_xyz
1 x,y,z
2 -x,-y,-z
_cell_length_a                   6.993(1)
_cell_length_b                   9.474(2)
_cell_length_c                   9.791(1)
_cell_angle_alpha                115.28(1)
_cell_angle_beta                 107.86(1)
_cell_angle_gamma                95.94(1)
_cell_volume                     537.167
loop_
_atom_site_label
_atom_site_type_symbol
_atom_site_fract_x
_atom_site_fract_y
_atom_site_fract_z
K1 K 0.06898(8) 0.28508(6) 0.42702(6)
K2 K 0.46719(8) 0.09968(6) 0.21416(6)
O1 O 0.2101(2) 0.28651(17) 0.20659(17)
O2 O 0.1624(3) 0.02693(18) -0.09382(19)
O3 O -0.1102(2) 0.05596(18) -0.24560(18)
O4 O 0.1169(2) 0.28064(17) -0.29335(17)
O5 O 0.2217(3) 0.57491(19) -0.26853(18)
O6 O 0.3637(3) 0.78330(18) -0.02950(19)
O7 O 0.5143(3) 0.76106(19) 0.45672(18)
O8 O 0.2907(3) 0.58914(19) 0.45909(19)
O9 O -0.2302(3) 0.0250(2) 0.4024(2)
N1 N 0.0647(3) 0.1138(2) -0.1318(2)
N2 N 0.2817(3) 0.6348(2) -0.1181(2)
N3 N 0.3727(3) 0.6330(2) 0.3844(2)
C1 C 0.2199(3) 0.3620(2) 0.1301(2)
C2 C 0.1534(3) 0.2877(2) -0.0437(2)
C3 C 0.1681(3) 0.3626(2) -0.1411(2)
C4 C 0.2580(3) 0.5372(2) -0.0445(2)
C5 C 0.3249(3) 0.6176(2) 0.1251(2)
H1 H 0.3856 0.7291 0.1829
C6 C 0.3040(3) 0.5378(2) 0.2095(2)
H2 H -0.199(5) 0.076(3) 0.5011(14)
H3 H -0.207(5) -0.063(2) 0.382(3)
K1A K -0.06898(8) 0.71492(6) 0.57298(6)
K2_2 K -0.53281(8) 0.09968(6) 0.21416(6)
O2A O -0.1624(3) -0.02693(18) 0.09382(19)
O3A O 0.1102(2) -0.05596(18) 0.24560(18)
O4_2 O 0.1169(2) 0.28064(17) 0.70665(17)
O5_2 O 0.2217(3) 0.57491(19) 0.73147(18)
O5A O -0.2217(3) 0.42509(19) 0.26853(18)
O7A O 0.4857(3) 0.23894(19) 0.54328(18)
K2A K 0.53281(8) -0.09968(6) -0.21416(6)
O6_2 O 0.3637(3) -0.21670(18) -0.02950(19)
O6A O 0.6363(3) 0.21670(18) 0.02950(19)
O8A O 0.7093(3) 0.41086(19) 0.54091(19)
O9_2 O 0.7698(3) 0.0250(2) 0.4024(2)
K1A_2 K -0.06898(8) -0.28508(6) -0.42702(6)
K2A_2 K -0.46719(8) -0.09968(6) -0.21416(6)
K1_2 K 0.06898(8) 0.28508(6) -0.57298(6)
K1A_3 K -0.06898(8) 0.71492(6) -0.42702(6)
K2_3 K 0.46719(8) 1.09968(6) 0.21416(6)
K2A_3 K 0.53281(8) 0.90032(6) -0.21416(6)
K1A_4 K 0.93102(8) 0.71492(6) 0.57298(6)
K2A_4 K 0.53281(8) 0.90032(6) 0.78584(6)
H2_2 H 0.801(5) 0.076(3) 0.5011(14)
H3_2 H 0.793(5) -0.063(2) 0.382(3)
loop_
_geom_bond_atom_site_label_1
_geom_bond_atom_site_label_2
_geom_bond_site_symmetry_1
_geom_bond_site_symmetry_2
K1 O1 1_555 1_555
K2 O1 1_555 1_555
O1 C1 1_555 1_555
O2 K2 1_555 1_555
O3 N1 1_555 1_555
O4 C3 1_555 1_555
O5 N2 1_555 1_555
O6 N2 1_555 1_555
O7 N3 1_555 1_555
O8 K1 1_555 1_555
O9 K1 1_555 1_555
N1 O2 1_555 1_555
N2 C4 1_555 1_555
N3 O8 1_555 1_555
C1 C2 1_555 1_555
C2 N1 1_555 1_555
C3 C2 1_555 1_555
C4 C3 1_555 1_555
C5 C4 1_555 1_555
H1 C5 1_555 1_555
C6 N3 1_555 1_555
H2 O9 1_555 1_555
H3 O9 1_555 1_555
K1A O5_2 1_555 1_555
K2_2 O9 1_555 1_555
O2A K1 1_555 1_555
O3A K1 1_555 1_555
O4_2 K1 1_555 1_555
O5_2 K1 1_555 1_555
O5A K1 1_555 1_555
O7A K1 1_555 1_555
K2A O6_2 1_555 1_555
O6_2 K2 1_555 1_555
O6A K2 1_555 1_555
O8A K2 1_555 1_555
O9_2 K2 1_555 1_555
K1A_2 O2 1_555 1_555
K2A_2 O3 1_555 1_555
K1_2 O4 1_555 1_555
K1A_3 O5 1_555 1_555
K2_3 O6 1_555 1_555
K2A_3 O6 1_555 1_555
K1A_4 O7 1_555 1_555
K2A_4 O7 1_555 1_555
H2_2 O9_2 1_555 1_555
H3_2 O9_2 1_555 1_555
K2 O3A 1_555 1_555
K2 O7A 1_555 1_555
O3 K1A_2 1_555 1_555
O5 K1_2 1_555 1_555
O8 K2A_4 1_555 1_555
C1 C6 1_555 1_555
C5 C6 1_555 1_555
K1A O5A 1_555 1_555
O2A K2A_2 1_555 1_555
K2A O6A 1_555 1_555
O8A K1A_4 1_555 1_555

#END
