
#######################################################################
#
#                 Cambridge Crystallographic Data Centre
#                                CCDC 
#
#######################################################################
#
# If this CIF has been generated from an entry in the Cambridge 
# Structural Database, then it will include bibliographic, chemical, 
# crystal, experimental, refinement or atomic coordinate data resulting 
# from the CCDC's data processing and validation procedures.
#
#######################################################################

data_AWEMIY
_symmetry_cell_setting           orthorhombic
_symmetry_space_group_name_H-M   'P b c n'
_symmetry_Int_Tables_number      60
_space_group_name_Hall           '-P 2n 2ab'
loop_
_symmetry_equiv_pos_site_id
_symmetry_equiv_pos_as_xyz
1 x,y,z
2 1/2+x,1/2+y,1/2-z
3 x,-y,1/2+z
4 1/2-x,1/2+y,z
5 -x,-y,-z
6 1/2-x,1/2-y,1/2+z
7 -x,y,1/2-z
8 1/2+x,1/2-y,-z
_cell_length_a                   16.154(3)
_cell_length_b                   12.357(3)
_cell_length_c                   20.525(4)
_cell_angle_alpha                90
_cell_angle_beta                 90
_cell_angle_gamma                90
_cell_volume                     4097.1
loop_
_atom_site_label
_atom_site_type_symbol
_atom_site_fract_x
_atom_site_fract_y
_atom_site_fract_z
La1 La 0.825653(14) 0.452507(17) 0.556763(11)
N1 N 0.8195(3) 0.5395(3) 0.67882(19)
O1 O 0.7670(2) 0.2918(2) 0.50182(17)
O2 O 0.9133(2) 0.4877(3) 0.45521(17)
C1 C 0.7506(3) 0.1931(3) 0.5023(2)
N2 N 0.7740(2) 0.0170(3) 0.45393(19)
C2 C 0.7882(3) 0.1243(3) 0.4493(2)
O3 O 0.8464(2) 0.3329(3) 0.65057(16)
C3 C 0.8071(4) -0.0444(4) 0.4083(3)
N3 N 0.8695(3) 0.1045(4) 0.3534(2)
C4 C 0.8071(4) 0.6448(5) 0.6939(3)
C5 C 0.8525(4) 0.4783(4) 0.7249(3)
C6 C 0.8540(5) -0.0020(5) 0.3587(3)
C7 C 0.8353(3) 0.1661(4) 0.3999(2)
C8 C 0.8613(4) 0.3582(4) 0.7081(2)
N4 N 0.8661(6) 0.6247(5) 0.7986(3)
C9 C 0.8269(6) 0.6842(5) 0.7539(3)
O4 O 1.0359(2) 0.4712(3) 0.40539(16)
C10 C 0.9784(3) 0.4368(3) 0.4404(2)
O5 O 0.6771(3) 0.4594(4) 0.5963(2)
N5 N 0.9431(2) 0.3046(3) 0.5229(2)
C11 C 0.9871(3) 0.3254(4) 0.4692(2)
C12 C 0.9533(3) 0.2077(4) 0.5506(3)
O6 O 0.8812(4) 0.2944(3) 0.7517(2)
C13 C 0.8772(7) 0.5195(6) 0.7842(4)
O7 O 0.7053(2) 0.1474(3) 0.54283(16)
N6 N 1.0480(3) 0.1502(4) 0.4696(3)
C14 C 1.0393(3) 0.2475(4) 0.4425(3)
C15 C 1.0058(4) 0.1322(4) 0.5241(3)
H1 H 0.665(4) 0.492(6) 0.626(4)
H2 H 0.638(5) 0.440(6) 0.581(4)
H3 H 1.017(3) 0.076(4) 0.545(2)
H4 H 0.782(4) 0.689(5) 0.658(3)
H5 H 0.794(5) -0.120(6) 0.402(4)
H6 H 0.876(5) -0.041(6) 0.334(4)
H7 H 1.068(3) 0.258(4) 0.400(2)
H8 H 0.936(6) 0.218(8) 0.591(5)
H9 H 0.838(3) 0.245(5) 0.393(3)
H10 H 0.811(6) 0.774(8) 0.778(5)
H16 H 0.902(9) 0.504(11) 0.821(6)
O1C O 0.7330(2) 0.7918(2) 0.50182(17)
C1C C 0.7494(3) 0.6931(3) 0.5023(2)
N2C N 0.7260(2) 0.5170(3) 0.45393(19)
C2C C 0.7118(3) 0.6243(3) 0.4493(2)
C3C C 0.6929(4) 0.4556(4) 0.4083(3)
N3C N 0.6305(3) 0.6045(4) 0.3534(2)
C6C C 0.6460(5) 0.4980(5) 0.3587(3)
C7C C 0.6647(3) 0.6661(4) 0.3999(2)
O7C O 0.7947(2) 0.6474(3) 0.54283(16)
H5C H 0.706(5) 0.380(6) 0.402(4)
H6C H 0.624(5) 0.459(6) 0.334(4)
H9C H 0.662(3) 0.745(5) 0.393(3)
O2D O 1.0867(2) 0.5123(3) 0.54479(17)
O4D O 0.9641(2) 0.5288(3) 0.59461(16)
C10D C 1.0216(3) 0.5632(3) 0.5596(2)
N5D N 1.0569(2) 0.6954(3) 0.4771(2)
C11D C 1.0129(3) 0.6746(4) 0.5308(2)
C12D C 1.0467(3) 0.7923(4) 0.4494(3)
N6D N 0.9520(3) 0.8498(4) 0.5304(3)
C14D C 0.9607(3) 0.7525(4) 0.5575(3)
C15D C 0.9942(4) 0.8678(4) 0.4759(3)
H3D H 0.983(3) 0.924(4) 0.455(2)
H7D H 0.932(3) 0.742(4) 0.600(2)
H8D H 1.064(6) 0.782(8) 0.409(5)
La1C La 0.674347(14) 0.952507(17) 0.556763(11)
N1C N 0.6805(3) 1.0395(3) 0.67882(19)
O3C O 0.6536(2) 0.8329(3) 0.65057(16)
C4C C 0.6929(4) 1.1448(5) 0.6939(3)
C5C C 0.6475(4) 0.9783(4) 0.7249(3)
C8C C 0.6387(4) 0.8582(4) 0.7081(2)
N4C N 0.6339(6) 1.1247(5) 0.7986(3)
C9C C 0.6731(6) 1.1842(5) 0.7539(3)
O6C O 0.6188(4) 0.7944(3) 0.7517(2)
C13C C 0.6228(7) 1.0195(6) 0.7842(4)
H4C H 0.718(4) 1.189(5) 0.658(3)
H10C H 0.689(6) 1.274(8) 0.778(5)
H16C H 0.598(9) 1.004(11) 0.821(6)
O5C O 0.8229(3) 0.9594(4) 0.5963(2)
H1C H 0.835(4) 0.992(6) 0.626(4)
H2C H 0.862(5) 0.940(6) 0.581(4)
La1C_2 La 0.674347(14) -0.047493(17) 0.556763(11)
La1D La 1.174347(14) 0.547493(17) 0.443237(11)
O2C O 0.5867(2) 0.9877(3) 0.45521(17)
N2_2 N 0.7740(2) 1.0170(3) 0.45393(19)
O4G O 0.5359(2) 1.0288(3) 0.59461(16)
N5C N 0.5569(2) 0.8046(3) 0.5229(2)
O7_2 O 0.7053(2) 1.1474(3) 0.54283(16)
O8 O 0.8767(4) 0.2957(5) 0.8911(3)
H14 H 0.8790 0.2992 0.8422
H15 H 0.903(8) 0.327(11) 0.902(6)
O9 O 0.5000 0.5795(7) 0.2500
H11 H 0.5176 0.6735 0.2705
H11F H 0.4824 0.6735 0.2295
O10 O 0.6024(4) 0.5837(5) 0.6906(3)
H12 H 0.5954 0.5130 0.7042
H13 H 0.5311 0.6025 0.7185
loop_
_geom_bond_atom_site_label_1
_geom_bond_atom_site_label_2
_geom_bond_site_symmetry_1
_geom_bond_site_symmetry_2
La1 N1 1_555 1_555
N1 C4 1_555 1_555
O1 La1 1_555 1_555
O2 La1 1_555 1_555
C1 O1 1_555 1_555
N2 C2 1_555 1_555
C2 C1 1_555 1_555
O3 La1 1_555 1_555
C3 N2 1_555 1_555
N3 C6 1_555 1_555
C4 C9 1_555 1_555
C5 N1 1_555 1_555
C6 C3 1_555 1_555
C7 C2 1_555 1_555
C8 O3 1_555 1_555
N4 C9 1_555 1_555
C9 H10 1_555 1_555
O4 C10 1_555 1_555
C10 O2 1_555 1_555
O5 La1 1_555 1_555
N5 La1 1_555 1_555
C11 C10 1_555 1_555
C12 N5 1_555 1_555
O6 C8 1_555 1_555
C13 C5 1_555 1_555
O7 C1 1_555 1_555
N6 C14 1_555 1_555
C14 C11 1_555 1_555
C15 C12 1_555 1_555
O8 H14 1_555 1_555
O9 H11 1_555 1_555
O10 H12 1_555 1_555
H1 O5 1_555 1_555
H2 O5 1_555 1_555
H3 C15 1_555 1_555
H4 C4 1_555 1_555
H5 C3 1_555 1_555
H6 C6 1_555 1_555
H7 C14 1_555 1_555
H8 C12 1_555 1_555
H9 C7 1_555 1_555
H13 O10 1_555 1_555
H15 O8 1_555 1_555
H16 C13 1_555 1_555
H11F O9 1_555 1_555
O1C C1C 1_555 1_555
C1C C2C 1_555 1_555
N2C La1 1_555 1_555
C2C N2C 1_555 1_555
C3C N2C 1_555 1_555
N3C C6C 1_555 1_555
C6C C3C 1_555 1_555
C7C C2C 1_555 1_555
O7C La1 1_555 1_555
H5C C3C 1_555 1_555
H6C C6C 1_555 1_555
H9C C7C 1_555 1_555
O2D C10D 1_555 1_555
O4D La1 1_555 1_555
C10D O4D 1_555 1_555
N5D C11D 1_555 1_555
C11D C10D 1_555 1_555
C12D N5D 1_555 1_555
N6D C14D 1_555 1_555
C14D C11D 1_555 1_555
C15D C12D 1_555 1_555
H3D C15D 1_555 1_555
H7D C14D 1_555 1_555
H8D C12D 1_555 1_555
La1C O1C 1_555 1_555
N1C La1C 1_555 1_555
O3C La1C 1_555 1_555
C4C N1C 1_555 1_555
C5C N1C 1_555 1_555
C8C O3C 1_555 1_555
N4C C9C 1_555 1_555
C9C C4C 1_555 1_555
O6C C8C 1_555 1_555
C13C C5C 1_555 1_555
H4C C4C 1_555 1_555
H10C C9C 1_555 1_555
H16C C13C 1_555 1_555
O5C La1C 1_555 1_555
H1C O5C 1_555 1_555
H2C O5C 1_555 1_555
La1C_2 N2 1_555 1_555
La1D O4 1_555 1_555
O2C La1C 1_555 1_555
N2_2 La1C 1_555 1_555
O4G La1C 1_555 1_555
N5C La1C 1_555 1_555
O7_2 La1C 1_555 1_555
N3 C7 1_555 1_555
C5 C8 1_555 1_555
N4 C13 1_555 1_555
N5 C11 1_555 1_555
O7 La1C_2 1_555 1_555
N6 C15 1_555 1_555
C1C O7C 1_555 1_555
N3C C7C 1_555 1_555
O2D La1D 1_555 1_555
N5D La1D 1_555 1_555
N6D C15D 1_555 1_555
C5C C8C 1_555 1_555
N4C C13C 1_555 1_555

#END
