
#######################################################################
#
#                 Cambridge Crystallographic Data Centre
#                                CCDC 
#
#######################################################################
#
# If this CIF has been generated from an entry in the Cambridge 
# Structural Database, then it will include bibliographic, chemical, 
# crystal, experimental, refinement or atomic coordinate data resulting 
# from the CCDC's data processing and validation procedures.
#
#######################################################################

data_AWEMEU
_symmetry_cell_setting           monoclinic
_symmetry_space_group_name_H-M   'C 2/c'
_symmetry_Int_Tables_number      15
_space_group_name_Hall           '-C 2yn'
loop_
_symmetry_equiv_pos_site_id
_symmetry_equiv_pos_as_xyz
1 x,y,z
2 x,-y,1/2+z
3 1/2+x,1/2+y,z
4 1/2+x,1/2-y,1/2+z
5 -x,-y,-z
6 -x,y,1/2-z
7 1/2-x,1/2-y,-z
8 1/2-x,1/2+y,1/2-z
_cell_length_a                   17.7530(4)
_cell_length_b                   11.3440(2)
_cell_length_c                   13.0920(3)
_cell_angle_alpha                90
_cell_angle_beta                 118.7941(12)
_cell_angle_gamma                90
_cell_volume                     2310.6
loop_
_atom_site_label
_atom_site_type_symbol
_atom_site_fract_x
_atom_site_fract_y
_atom_site_fract_z
Zn1 Zn 0.0000 0.499080(16) -0.2500
N1 N -0.04773(8) 0.37092(10) -0.38700(10)
O1 O 0.18793(7) 0.65495(9) -0.13655(9)
O2 O 0.11291(8) 0.50755(7) -0.25608(11)
O3 O 0.05139(7) 0.36308(9) -0.61470(9)
C1 C 0.17800(8) 0.57445(11) -0.20728(11)
C2 C 0.24829(8) 0.55301(11) -0.23848(11)
C3 C 0.23622(10) 0.47347(14) -0.32611(14)
C4 C 0.30083(9) 0.45294(14) -0.35496(13)
C5 C 0.37847(12) 0.51180(13) -0.29516(17)
C6 C 0.39143(10) 0.59136(14) -0.20765(14)
C7 C 0.32647(9) 0.61258(13) -0.17991(13)
C8 C -0.01119(9) 0.35726(11) -0.45564(11)
C9 C -0.03959(8) 0.27554(11) -0.54508(11)
C10 C -0.10966(9) 0.20580(12) -0.56545(12)
C11 C -0.14743(10) 0.21880(13) -0.49489(13)
C12 C -0.11479(9) 0.30186(13) -0.40686(13)
C13 C 0.00556(9) 0.25940(12) -0.61676(12)
H1 H -0.0469(10) 0.1918(14) 0.0831(13)
H2 H -0.0335(11) 0.4073(15) -0.0588(13)
H3 H 0.0382(11) 0.2423(15) 0.1967(15)
H4 H 0.4216(15) 0.4998(12) -0.310(2)
H5 H 0.2891(12) 0.3993(17) -0.4172(17)
H6 H -0.1938(11) 0.1705(15) -0.5051(14)
H7 H -0.1415(12) 0.3158(16) -0.3580(16)
H8 H 0.1823(13) 0.4329(17) -0.3669(16)
H9 H 0.3348(12) 0.6657(17) -0.1194(16)
H10 H -0.1302(11) 0.1530(16) -0.6230(15)
H11 H 0.4468(13) 0.6310(18) -0.1643(16)
H12 H -0.0997(16) 0.347(2) 0.1183(19)
O3A O 0.05139(7) 0.63692(9) -0.11470(9)
Zn1A Zn 0.0000 0.500920(16) 0.2500
Zn1A_2 Zn 0.0000 0.500920(16) -0.7500
O3D O -0.05139(7) 0.63692(9) -0.38530(9)
N1E N 0.04773(8) 0.37092(10) -0.11300(10)
C8E C 0.01119(9) 0.35726(11) -0.04436(11)
C9E C 0.03959(8) 0.27554(11) 0.04508(11)
C10E C 0.10966(9) 0.20580(12) 0.06545(12)
C11E C 0.14743(10) 0.21880(13) -0.00511(13)
C12E C 0.11479(9) 0.30186(13) -0.09314(13)
H7E H 0.1415(12) 0.3158(16) -0.1420(16)
H6E H 0.1938(11) 0.1705(15) 0.0051(14)
H10E H 0.1302(11) 0.1530(16) 0.1230(15)
C13E C -0.00556(9) 0.25940(12) 0.11676(12)
O3E O -0.05139(7) 0.36308(9) 0.11470(9)
O2E O -0.11291(8) 0.50755(7) -0.24392(11)
C1E C -0.17800(8) 0.57445(11) -0.29272(11)
O1E O -0.18793(7) 0.65495(9) -0.36345(9)
C2E C -0.24829(8) 0.55301(11) -0.26152(11)
C3E C -0.23622(10) 0.47347(14) -0.17389(14)
C4E C -0.30083(9) 0.45294(14) -0.14504(13)
C5E C -0.37847(12) 0.51180(13) -0.20484(17)
C6E C -0.39143(10) 0.59136(14) -0.29235(14)
C7E C -0.32647(9) 0.61258(13) -0.32009(13)
H9E H -0.3348(12) 0.6657(17) -0.3806(16)
H11E H -0.4468(13) 0.6310(18) -0.3357(16)
H4E H -0.4216(15) 0.4998(12) -0.190(2)
H5E H -0.2891(12) 0.3993(17) -0.0828(17)
H8E H -0.1823(13) 0.4329(17) -0.1331(16)
H12A H -0.0997(16) 0.653(2) -0.3817(19)
H12E H 0.0997(16) 0.347(2) -0.6183(19)
H1E H 0.0469(10) 0.1918(14) -0.5831(13)
H3E H -0.0382(11) 0.2423(15) -0.6967(15)
H2E H 0.0335(11) 0.4073(15) -0.4412(13)
H12D H 0.0997(16) 0.653(2) -0.1183(19)
loop_
_geom_bond_atom_site_label_1
_geom_bond_atom_site_label_2
_geom_bond_site_symmetry_1
_geom_bond_site_symmetry_2
Zn1 N1 1_555 1_555
N1 C8 1_555 1_555
O1 C1 1_555 1_555
O2 Zn1 1_555 1_555
O3 C13 1_555 1_555
C1 O2 1_555 1_555
C2 C1 1_555 1_555
C3 C2 1_555 1_555
C4 C3 1_555 1_555
C5 C4 1_555 1_555
C6 C5 1_555 1_555
C7 C2 1_555 1_555
C8 C9 1_555 1_555
C9 C10 1_555 1_555
C10 C11 1_555 1_555
C11 C12 1_555 1_555
C12 N1 1_555 1_555
C13 C9 1_555 1_555
H1 C13E 1_555 1_555
H2 C8E 1_555 1_555
H3 C13E 1_555 1_555
H4 C5 1_555 1_555
H5 C4 1_555 1_555
H6 C11 1_555 1_555
H7 C12 1_555 1_555
H8 C3 1_555 1_555
H9 C7 1_555 1_555
H10 C10 1_555 1_555
H11 C6 1_555 1_555
H12 O3E 1_555 1_555
O3A Zn1 1_555 1_555
Zn1A O3E 1_555 1_555
Zn1A_2 O3 1_555 1_555
O3D Zn1 1_555 1_555
N1E Zn1 1_555 1_555
C8E N1E 1_555 1_555
C9E C8E 1_555 1_555
C10E C9E 1_555 1_555
C11E C10E 1_555 1_555
C12E N1E 1_555 1_555
H7E C12E 1_555 1_555
H6E C11E 1_555 1_555
H10E C10E 1_555 1_555
C13E C9E 1_555 1_555
O3E C13E 1_555 1_555
O2E Zn1 1_555 1_555
C1E O2E 1_555 1_555
O1E C1E 1_555 1_555
C2E C1E 1_555 1_555
C3E C2E 1_555 1_555
C4E C3E 1_555 1_555
C5E C4E 1_555 1_555
C6E C5E 1_555 1_555
C7E C2E 1_555 1_555
H9E C7E 1_555 1_555
H11E C6E 1_555 1_555
H4E C5E 1_555 1_555
H5E C4E 1_555 1_555
H8E C3E 1_555 1_555
H12A O3D 1_555 1_555
H12E O3 1_555 1_555
H1E C13 1_555 1_555
H3E C13 1_555 1_555
H2E C8 1_555 1_555
H12D O3A 1_555 1_555
C6 C7 1_555 1_555
C11E C12E 1_555 1_555
C6E C7E 1_555 1_555

#END
