
#######################################################################
#
#                 Cambridge Crystallographic Data Centre
#                                CCDC 
#
#######################################################################
#
# If this CIF has been generated from an entry in the Cambridge 
# Structural Database, then it will include bibliographic, chemical, 
# crystal, experimental, refinement or atomic coordinate data resulting 
# from the CCDC's data processing and validation procedures.
#
#######################################################################

data_AWEMUL
_symmetry_cell_setting           triclinic
_symmetry_space_group_name_H-M   'P -1'
_symmetry_Int_Tables_number      2
_space_group_name_Hall           '-P 1'
loop_
_symmetry_equiv_pos_site_id
_symmetry_equiv_pos_as_xyz
1 x,y,z
2 -x,-y,-z
_cell_length_a                   5.7500(3)
_cell_length_b                   7.9180(5)
_cell_length_c                   10.4420(6)
_cell_angle_alpha                80.398(3)
_cell_angle_beta                 76.844(4)
_cell_angle_gamma                81.389(4)
_cell_volume                     453.343
loop_
_atom_site_label
_atom_site_type_symbol
_atom_site_fract_x
_atom_site_fract_y
_atom_site_fract_z
Na1 Na -0.1931(4) 1.6880(3) 0.4897(2)
P1 P 0.2175(3) 1.6267(2) 0.69430(15)
P2 P -0.6612(3) 1.9227(2) 0.31625(15)
O1 O 0.4942(7) 1.5532(5) 0.6677(4)
H1 H 0.483(11) 1.430(2) 0.671(6)
O2 O 0.2223(7) 1.8213(5) 0.6803(4)
O3 O -0.5144(7) 1.7655(5) 0.3667(4)
O4 O -0.9357(7) 1.9054(5) 0.3525(4)
H2 H -1.025(10) 2.021(3) 0.348(6)
O5 O 0.0841(7) 1.5633(5) 0.6100(4)
O6 O -0.6351(7) 2.0880(5) 0.3711(4)
C1 C -0.1109(11) 1.4704(8) 0.9011(6)
H3 H -0.1866 1.4505 0.8340
C2 C 0.0966(11) 1.5534(8) 0.8668(6)
C3 C 0.2068(11) 1.5832(8) 0.9658(6)
H4 H 0.3476 1.6403 0.9423
C4 C -0.3393(12) 1.9119(8) 0.0761(6)
H5 H -0.2291 1.8510 0.1277
C5 C -0.5745(11) 1.9635(7) 0.1383(6)
C6 C -0.7357(10) 2.0514(8) 0.0606(6)
H6 H -0.8972 2.0860 0.1016
Na1A Na 0.1931(4) 1.3120(3) 1.5103(2)
Na1_2 Na 0.8069(4) 1.6880(3) 0.4897(2)
Na1_3 Na -1.1931(4) 1.6880(3) 0.4897(2)
Na1A_2 Na 0.1931(4) 1.3120(3) 0.5103(2)
Na1A_3 Na -0.8069(4) 2.3120(3) 0.5103(2)
Na1A_4 Na -0.8069(4) 1.3120(3) 1.5103(2)
Na1_4 Na -0.1931(4) 1.6880(3) 1.4897(2)
Na1A_5 Na -0.8069(4) 2.3120(3) -0.4897(2)
Na1A_6 Na 0.1931(4) 2.3120(3) -0.4897(2)
Na1_5 Na -0.1931(4) 1.6880(3) -0.5103(2)
P1A P -0.2175(3) 1.3733(2) 1.30570(15)
P2A P -0.3388(3) 2.0773(2) -0.31625(15)
O1A O -0.4942(7) 1.4468(5) 1.3323(4)
O1_2 O -0.5058(7) 1.5532(5) 0.6677(4)
O1A_2 O 0.5058(7) 1.4468(5) 1.3323(4)
H1A H -0.483(11) 1.570(2) 1.329(6)
H1_2 H -0.517(11) 1.430(2) 0.671(6)
H1A_2 H 0.517(11) 1.570(2) 1.329(6)
O2A O -0.2223(7) 1.1787(5) 1.3197(4)
O3A O -0.4856(7) 2.2345(5) -0.3667(4)
O3A_2 O 0.5144(7) 1.2345(5) 1.6333(4)
O4A O -0.0643(7) 2.0946(5) -0.3525(4)
O4_2 O 0.0643(7) 1.9054(5) 0.3525(4)
O4A_2 O -0.0643(7) 1.0946(5) 1.6475(4)
H2A H 0.025(10) 1.979(3) -0.348(6)
H2_2 H -0.025(10) 2.021(3) 0.348(6)
H2A_2 H 0.025(10) 0.979(3) 1.652(6)
O5A O -0.0841(7) 1.4367(5) 1.3900(4)
O5A_2 O -0.0841(7) 1.4367(5) 0.3900(4)
O5_2 O 0.0841(7) 1.5633(5) 1.6100(4)
O6A O -0.3649(7) 1.9120(5) -0.3711(4)
O6A_2 O -0.3649(7) 1.9120(5) 0.6289(4)
O6_2 O 0.3649(7) 1.0880(5) 1.3711(4)
C1A C 0.1109(11) 1.5296(8) 1.0989(6)
H3A H 0.1866 1.5495 1.1660
C2A C -0.0966(11) 1.4466(8) 1.1332(6)
C3A C -0.2068(11) 1.4168(8) 1.0342(6)
H4A H -0.3476 1.3597 1.0577
C4A C -0.6607(12) 2.0881(8) -0.0761(6)
H5A H -0.7709 2.1490 -0.1277
C5A C -0.4255(11) 2.0365(7) -0.1383(6)
C6A C -0.2643(10) 1.9486(8) -0.0606(6)
H6A H -0.1028 1.9140 -0.1016
loop_
_geom_bond_atom_site_label_1
_geom_bond_atom_site_label_2
_geom_bond_site_symmetry_1
_geom_bond_site_symmetry_2
Na1 O3 1_555 1_555
P1 O1 1_555 1_555
P2 O3 1_555 1_555
O1 H1 1_555 1_555
O2 P1 1_555 1_555
O4 P2 1_555 1_555
H2 O4 1_555 1_555
O5 Na1 1_555 1_555
O6 P2 1_555 1_555
C1 H3 1_555 1_555
C2 P1 1_555 1_555
C3 C2 1_555 1_555
H4 C3 1_555 1_555
C4 H5 1_555 1_555
C5 P2 1_555 1_555
C6 C5 1_555 1_555
H6 C6 1_555 1_555
Na1A O1A_2 1_555 1_555
Na1_2 O1 1_555 1_555
Na1_3 O4 1_555 1_555
Na1A_2 O5 1_555 1_555
Na1A_3 O6 1_555 1_555
Na1A_4 O1A 1_555 1_555
Na1_4 O5A 1_555 1_555
Na1A_5 O3A 1_555 1_555
Na1A_6 O4A 1_555 1_555
Na1_5 O6A 1_555 1_555
P1A O1A 1_555 1_555
P2A O3A 1_555 1_555
O1A H1A 1_555 1_555
O1_2 Na1 1_555 1_555
O1A_2 H1A_2 1_555 1_555
H1_2 O1_2 1_555 1_555
O2A P1A 1_555 1_555
O3A_2 Na1A 1_555 1_555
O4A P2A 1_555 1_555
O4_2 Na1 1_555 1_555
O4A_2 Na1A 1_555 1_555
H2A O4A 1_555 1_555
H2_2 O4_2 1_555 1_555
H2A_2 O4A_2 1_555 1_555
O5A Na1A 1_555 1_555
O5A_2 Na1 1_555 1_555
O5_2 Na1A 1_555 1_555
O6A P2A 1_555 1_555
O6A_2 Na1 1_555 1_555
O6_2 Na1A 1_555 1_555
C1A C3 1_555 1_555
H3A C1A 1_555 1_555
C2A P1A 1_555 1_555
C3A C1 1_555 1_555
H4A C3A 1_555 1_555
C4A C6 1_555 1_555
H5A C4A 1_555 1_555
C5A P2A 1_555 1_555
C6A C4 1_555 1_555
H6A C6A 1_555 1_555
P1 O5 1_555 1_555
C1 C2 1_555 1_555
C4 C5 1_555 1_555
Na1A_2 O5A_2 1_555 1_555
Na1_4 O5_2 1_555 1_555
P1A O5A 1_555 1_555
C1A C2A 1_555 1_555
C2A C3A 1_555 1_555
C4A C5A 1_555 1_555
C5A C6A 1_555 1_555

#END
