
#######################################################################
#
#                 Cambridge Crystallographic Data Centre
#                                CCDC 
#
#######################################################################
#
# If this CIF has been generated from an entry in the Cambridge 
# Structural Database, then it will include bibliographic, chemical, 
# crystal, experimental, refinement or atomic coordinate data resulting 
# from the CCDC's data processing and validation procedures.
#
#######################################################################

data_AWEPIC
_symmetry_cell_setting           monoclinic
_symmetry_space_group_name_H-M   'P 21/c'
_symmetry_Int_Tables_number      14
_space_group_name_Hall           '-P 2ybc'
loop_
_symmetry_equiv_pos_site_id
_symmetry_equiv_pos_as_xyz
1 x,y,z
2 -x,1/2+y,1/2-z
3 -x,-y,-z
4 x,1/2-y,1/2+z
_cell_length_a                   14.054(2)
_cell_length_b                   11.167(1)
_cell_length_c                   9.323(2)
_cell_angle_alpha                90
_cell_angle_beta                 92.053(2)
_cell_angle_gamma                90
_cell_volume                     1462.22
loop_
_atom_site_label
_atom_site_type_symbol
_atom_site_fract_x
_atom_site_fract_y
_atom_site_fract_z
Zn1 Zn 0.84505(2) 0.21487(3) 0.21782(3)
N1 N 0.5722(2) -0.3195(3) 0.2780(3)
N2 N 0.71112(17) 0.1775(3) 0.1287(3)
N3 N 0.8014(2) 0.3952(2) 0.1496(3)
O1 O 0.5035(2) -0.3094(4) 0.1931(4)
O2 O 0.58511(18) -0.4075(2) 0.3540(3)
O3 O 0.83611(15) 0.04892(18) 0.3170(2)
O4 O 0.88371(14) 0.27314(17) 0.41688(19)
O5 O 0.96287(15) 0.3216(2) 0.61434(19)
C1 C 0.7735(2) -0.0345(2) 0.3028(3)
C2 C 0.7864(2) -0.1424(3) 0.3816(3)
H1 H 0.8410 -0.1513 0.4400
C3 C 0.7218(2) -0.2334(3) 0.3748(4)
H2 H 0.7322 -0.3028 0.4281
C4 C 0.6401(2) -0.2214(3) 0.2875(3)
C5 C 0.6237(2) -0.1189(3) 0.2095(3)
H3 H 0.5684 -0.1125 0.1521
C6 C 0.6879(2) -0.0249(3) 0.2150(3)
C7 C 0.6620(2) 0.0816(3) 0.1350(3)
H4 H 0.6043 0.0803 0.0832
C8 C 0.6708(2) 0.2787(3) 0.0464(4)
H5 H 0.6021 0.2717 0.0379
H6 H 0.6958 0.2798 -0.0492
C9 C 0.6981(3) 0.3906(4) 0.1249(4)
H7 H 0.6772 0.4597 0.0691
H8 H 0.6670 0.3928 0.2161
C10 C 0.8305(5) 0.4982(3) 0.2395(5)
H9 H 0.7937 0.5672 0.2109
H10 H 0.8968 0.5144 0.2279
H11 H 0.8198 0.4803 0.3383
C11 C 1.0445(2) 0.3410(3) 0.4000(3)
H12 H 1.0539 0.2823 0.3266
H13 H 1.0992 0.3427 0.4646
H14 H 1.0358 0.4184 0.3567
C12 C 0.9585(2) 0.3093(2) 0.4809(3)
H15 H 0.831(3) 0.407(4) 0.067(3)
Zn1C Zn 0.84505(2) 0.28513(3) 0.71782(3)
O5C O 0.96287(15) 0.1784(2) 0.11434(19)
loop_
_geom_bond_atom_site_label_1
_geom_bond_atom_site_label_2
_geom_bond_site_symmetry_1
_geom_bond_site_symmetry_2
Zn1 N2 1_555 1_555
N1 O1 1_555 1_555
N2 C7 1_555 1_555
N3 Zn1 1_555 1_555
O2 N1 1_555 1_555
O3 Zn1 1_555 1_555
O4 Zn1 1_555 1_555
O5 C12 1_555 1_555
C1 O3 1_555 1_555
C2 C1 1_555 1_555
H1 C2 1_555 1_555
C3 C2 1_555 1_555
H2 C3 1_555 1_555
C4 N1 1_555 1_555
C5 C4 1_555 1_555
H3 C5 1_555 1_555
C6 C1 1_555 1_555
C7 C6 1_555 1_555
H4 C7 1_555 1_555
C8 N2 1_555 1_555
H5 C8 1_555 1_555
H6 C8 1_555 1_555
C9 N3 1_555 1_555
H7 C9 1_555 1_555
H8 C9 1_555 1_555
C10 N3 1_555 1_555
H9 C10 1_555 1_555
H10 C10 1_555 1_555
H11 C10 1_555 1_555
C11 H12 1_555 1_555
H13 C11 1_555 1_555
H14 C11 1_555 1_555
C12 O4 1_555 1_555
H15 N3 1_555 1_555
Zn1C O5 1_555 1_555
O5C Zn1 1_555 1_555
C3 C4 1_555 1_555
C5 C6 1_555 1_555
C8 C9 1_555 1_555
C11 C12 1_555 1_555

#END
