
#######################################################################
#
#                 Cambridge Crystallographic Data Centre
#                                CCDC 
#
#######################################################################
#
# If this CIF has been generated from an entry in the Cambridge 
# Structural Database, then it will include bibliographic, chemical, 
# crystal, experimental, refinement or atomic coordinate data resulting 
# from the CCDC's data processing and validation procedures.
#
#######################################################################

data_AWEROK
_symmetry_cell_setting           triclinic
_symmetry_space_group_name_H-M   'P -1'
_symmetry_Int_Tables_number      2
_space_group_name_Hall           '-P 1'
loop_
_symmetry_equiv_pos_site_id
_symmetry_equiv_pos_as_xyz
1 x,y,z
2 -x,-y,-z
_cell_length_a                   10.781(2)
_cell_length_b                   15.876(3)
_cell_length_c                   19.179(4)
_cell_angle_alpha                97.13(3)
_cell_angle_beta                 90.43(3)
_cell_angle_gamma                92.27(3)
_cell_volume                     3254.47
loop_
_atom_site_label
_atom_site_type_symbol
_atom_site_fract_x
_atom_site_fract_y
_atom_site_fract_z
W1 W 0.19459(4) 0.51031(3) 0.18523(3)
W2 W 0.66235(4) 0.00656(3) 0.30988(3)
Cu1 Cu 0.00823(14) 0.49865(11) 0.27492(9)
Cu2 Cu 0.22908(14) 0.41880(10) 0.29415(8)
Cu3 Cu 0.08453(13) 0.35425(10) 0.17180(9)
Cu4 Cu 0.48140(14) 0.02322(11) 0.21787(9)
Cu5 Cu 0.57477(14) 0.16412(10) 0.31541(9)
Cu6 Cu -0.27539(14) 0.09235(10) 0.19995(8)
S1 S -0.0107(3) 0.4741(2) 0.15809(17)
S2 S 0.1948(3) 0.5594(2) 0.30329(17)
S3 S 0.2888(3) 0.38232(19) 0.17961(16)
S4 S 0.4646(3) 0.0466(2) 0.33431(18)
S5 S 0.7771(3) 0.1329(2) 0.31529(16)
S6 S -0.3431(3) -0.0439(2) 0.19155(17)
Br1 Br -0.16110(13) 0.53187(11) 0.34490(8)
Br2 Br 0.02633(12) 0.32702(9) 0.31175(8)
Br3 Br 0.29794(13) 0.00620(12) 0.15413(10)
Br4 Br 0.53218(11) 0.19134(9) 0.17760(7)
B1 B 0.3442(13) 0.6457(9) 0.0866(8)
H1 H 0.3865 0.6852 0.0576
B2 B 0.7732(15) -0.1349(11) 0.4131(8)
H2 H 0.8058 -0.1755 0.4431
C1 C 0.6127(14) 0.7219(9) 0.1220(10)
H3 H 0.6947 0.7363 0.1422
H4 H 0.5640 0.7723 0.1260
H5 H 0.6201 0.6997 0.0728
C2 C 0.5497(11) 0.6558(8) 0.1606(7)
C3 C 0.5929(11) 0.6143(9) 0.2133(7)
H6 H 0.6713 0.6216 0.2355
C4 C 0.4939(11) 0.5578(8) 0.2272(7)
C5 C 0.5002(12) 0.5011(9) 0.2836(7)
H7 H 0.4460 0.5213 0.3217
H8 H 0.5848 0.5015 0.3011
H9 H 0.4738 0.4437 0.2645
C6 C 0.4173(16) 0.5896(10) -0.0712(9)
H10 H 0.3770 0.6387 -0.0850
H11 H 0.4401 0.5527 -0.1128
H12 H 0.4912 0.6083 -0.0435
C7 C 0.3265(13) 0.5403(9) -0.0266(8)
C8 C 0.2494(12) 0.4705(8) -0.0501(7)
H13 H 0.2393 0.4433 -0.0962
C9 C 0.1894(12) 0.4496(8) 0.0111(7)
C10 C 0.0897(16) 0.3803(11) 0.0076(9)
H14 H 0.1123 0.3389 0.0382
H15 H 0.0809 0.3528 -0.0403
H16 H 0.0117 0.4045 0.0228
C11 C 0.2179(15) 0.8051(10) 0.0458(9)
H17 H 0.2296 0.7680 0.0025
H18 H 0.2968 0.8327 0.0617
H19 H 0.1594 0.8479 0.0377
C12 C 0.1690(14) 0.7547(9) 0.1000(7)
C13 C 0.0646(13) 0.7633(9) 0.1386(9)
H20 H 0.0081 0.8068 0.1383
C14 C 0.0559(12) 0.6956(7) 0.1790(7)
C15 C -0.0467(11) 0.6807(9) 0.2277(9)
H21 H -0.0880 0.6260 0.2127
H22 H -0.1058 0.7251 0.2273
H23 H -0.0134 0.6813 0.2748
C16 C 1.0357(16) -0.2089(11) 0.3939(11)
H24 H 1.0343 -0.1887 0.4437
H25 H 1.1203 -0.2199 0.3798
H26 H 0.9847 -0.2609 0.3845
C17 C 0.9854(13) -0.1425(10) 0.3529(9)
C18 C 1.0415(13) -0.1019(11) 0.3015(8)
H27 H 1.1236 -0.1076 0.2860
C19 C 0.9553(12) -0.0518(9) 0.2771(8)
C20 C 0.9745(13) 0.0050(11) 0.2215(9)
H28 H 0.9051 -0.0029 0.1885
H29 H 1.0507 -0.0088 0.1968
H30 H 0.9803 0.0637 0.2429
C21 C 0.8280(19) -0.0844(11) 0.5753(9)
H31 H 0.7922 -0.1419 0.5679
H32 H 0.8177 -0.0609 0.6239
H33 H 0.9158 -0.0852 0.5645
C22 C 0.7620(13) -0.0293(10) 0.5269(8)
C23 C 0.7193(15) 0.0505(10) 0.5451(8)
H34 H 0.7223 0.0824 0.5898
C24 C 0.6709(13) 0.0741(9) 0.4838(7)
C25 C 0.6057(19) 0.1560(10) 0.4777(8)
H35 H 0.6387 0.1819 0.4381
H36 H 0.6195 0.1948 0.5205
H37 H 0.5174 0.1437 0.4706
C26 C 0.6264(17) -0.3030(10) 0.4347(11)
H38 H 0.6271 -0.2750 0.4826
H39 H 0.7091 -0.3210 0.4223
H40 H 0.5693 -0.3522 0.4307
C27 C 0.5852(17) -0.2420(10) 0.3855(9)
C28 C 0.4873(14) -0.2478(9) 0.3414(9)
H41 H 0.4270 -0.2926 0.3352
C29 C 0.4900(13) -0.1778(8) 0.3070(8)
C30 C 0.4007(13) -0.1591(9) 0.2535(8)
H42 H 0.3363 -0.2039 0.2470
H43 H 0.4432 -0.1557 0.2095
H44 H 0.3637 -0.1053 0.2687
C31 C 0.0728(11) 0.1798(8) 0.0940(7)
N1 N 0.1933(10) 0.1975(8) 0.0808(7)
H45 H 0.2347 0.1619 0.0528
H46 H 0.2294 0.2446 0.1004
C32 C -0.1075(11) 0.2189(7) 0.1478(6)
N2 N -0.1801(10) 0.2754(7) 0.1818(7)
H47 H -0.1514 0.3269 0.1951
H48 H -0.2564 0.2609 0.1908
C33 C -0.0924(11) 0.0894(7) 0.0831(7)
N3 N -0.1477(9) 0.0142(7) 0.0545(6)
H49 H -0.1079 -0.0200 0.0244
H50 H -0.2227 0.0003 0.0665
C34 C 0.4013(11) 0.4157(7) 0.4145(7)
N4 N 0.3476(10) 0.4799(7) 0.4523(6)
H51 H 0.2703 0.4899 0.4444
H52 H 0.3897 0.5119 0.4851
C35 C 0.3845(11) 0.2916(7) 0.3402(6)
N5 N 0.3120(10) 0.2338(7) 0.3019(6)
H53 H 0.2355 0.2448 0.2929
H54 H 0.3410 0.1849 0.2857
C36 C 0.5704(11) 0.3384(7) 0.3913(7)
N6 N 0.6955(10) 0.3345(7) 0.3930(7)
H55 H 0.7401 0.3744 0.4179
H56 H 0.7314 0.2922 0.3692
N7 N 0.4282(8) 0.6295(7) 0.1470(6)
N8 N 0.3950(9) 0.5678(6) 0.1881(6)
N9 N 0.3104(10) 0.5613(7) 0.0420(6)
N10 N 0.2252(9) 0.5044(7) 0.0658(5)
N11 N 0.2233(10) 0.6815(6) 0.1143(6)
N12 N 0.1540(9) 0.6454(7) 0.1633(6)
N13 N 0.8687(10) -0.1159(7) 0.3589(6)
N14 N 0.8509(9) -0.0569(6) 0.3142(6)
N15 N 0.7475(11) -0.0496(7) 0.4582(6)
N16 N 0.6902(11) 0.0142(7) 0.4286(6)
N17 N 0.6537(10) -0.1697(7) 0.3785(7)
N18 N 0.5924(9) -0.1269(7) 0.3293(6)
N19 N -0.1596(9) 0.1381(6) 0.1295(5)
N20 N 0.0229(9) 0.1068(6) 0.0625(5)
N21 N 0.0097(10) 0.2409(6) 0.1338(6)
N22 N 0.5070(9) 0.2741(6) 0.3508(5)
N23 N 0.5225(10) 0.4058(7) 0.4294(6)
N24 N 0.3347(9) 0.3672(6) 0.3643(5)
W2_2 W -0.33765(4) 0.00656(3) 0.30988(3)
Cu4_2 Cu -0.51860(14) 0.02322(11) 0.21787(9)
Cu6_2 Cu 0.72461(14) 0.09235(10) 0.19995(8)
S5_2 S -0.2229(3) 0.1329(2) 0.31529(16)
S6_2 S 0.6569(3) -0.0439(2) 0.19155(17)
Br4_2 Br -0.46782(11) 0.19134(9) 0.17760(7)
C37 C -0.5198(14) 0.1137(12) -0.0074(9)
H57 H -0.5234 0.1751 -0.0019
H58 H -0.4973 0.0935 -0.0553
H59 H -0.4580 0.0972 0.0248
O1 O -0.6374(9) 0.0775(7) 0.0074(6)
H63 H -0.6343 0.0591 0.0460
C38 C -0.938(2) 0.6275(15) 0.4934(12)
H60 H -0.9061 0.6796 0.5203
H61 H -1.0246 0.6176 0.5053
H62 H -0.9326 0.6325 0.4436
O2 O -0.8718(13) 0.5620(8) 0.5085(8)
H64 H -0.9144 0.5435 0.5464
loop_
_geom_bond_atom_site_label_1
_geom_bond_atom_site_label_2
_geom_bond_site_symmetry_1
_geom_bond_site_symmetry_2
W1 S1 1_555 1_555
W2 Cu4 1_555 1_555
Cu1 S1 1_555 1_555
Cu2 S2 1_555 1_555
Cu3 S1 1_555 1_555
Cu4 S4 1_555 1_555
Cu5 S4 1_555 1_555
Cu6 S6 1_555 1_555
S2 W1 1_555 1_555
S3 W1 1_555 1_555
S4 W2 1_555 1_555
S5 W2 1_555 1_555
S6 W2_2 1_555 1_555
Br1 Cu1 1_555 1_555
Br2 Cu1 1_555 1_555
Br3 Cu4 1_555 1_555
Br4 Cu4 1_555 1_555
B1 H1 1_555 1_555
B2 H2 1_555 1_555
C1 H3 1_555 1_555
H4 C1 1_555 1_555
H5 C1 1_555 1_555
C2 C1 1_555 1_555
C3 C2 1_555 1_555
H6 C3 1_555 1_555
C4 C3 1_555 1_555
C5 C4 1_555 1_555
H7 C5 1_555 1_555
H8 C5 1_555 1_555
H9 C5 1_555 1_555
C6 H10 1_555 1_555
H11 C6 1_555 1_555
H12 C6 1_555 1_555
C7 C6 1_555 1_555
C8 C7 1_555 1_555
H13 C8 1_555 1_555
C9 C8 1_555 1_555
C10 C9 1_555 1_555
H14 C10 1_555 1_555
H15 C10 1_555 1_555
H16 C10 1_555 1_555
C11 H17 1_555 1_555
H18 C11 1_555 1_555
H19 C11 1_555 1_555
C12 C11 1_555 1_555
C13 C12 1_555 1_555
H20 C13 1_555 1_555
C14 C13 1_555 1_555
C15 C14 1_555 1_555
H21 C15 1_555 1_555
H22 C15 1_555 1_555
H23 C15 1_555 1_555
C16 H24 1_555 1_555
H25 C16 1_555 1_555
H26 C16 1_555 1_555
C17 C16 1_555 1_555
C18 C17 1_555 1_555
H27 C18 1_555 1_555
C19 C18 1_555 1_555
C20 C19 1_555 1_555
H28 C20 1_555 1_555
H29 C20 1_555 1_555
H30 C20 1_555 1_555
C21 H31 1_555 1_555
H32 C21 1_555 1_555
H33 C21 1_555 1_555
C22 C21 1_555 1_555
C23 C22 1_555 1_555
H34 C23 1_555 1_555
C24 C23 1_555 1_555
C25 C24 1_555 1_555
H35 C25 1_555 1_555
H36 C25 1_555 1_555
H37 C25 1_555 1_555
C26 H38 1_555 1_555
H39 C26 1_555 1_555
H40 C26 1_555 1_555
C27 C26 1_555 1_555
C28 C27 1_555 1_555
H41 C28 1_555 1_555
C29 C28 1_555 1_555
C30 C29 1_555 1_555
H42 C30 1_555 1_555
H43 C30 1_555 1_555
H44 C30 1_555 1_555
C31 N1 1_555 1_555
N1 H45 1_555 1_555
H46 N1 1_555 1_555
C32 N2 1_555 1_555
N2 H47 1_555 1_555
H48 N2 1_555 1_555
C33 N3 1_555 1_555
N3 H49 1_555 1_555
H50 N3 1_555 1_555
C34 N4 1_555 1_555
N4 H51 1_555 1_555
H52 N4 1_555 1_555
C35 N5 1_555 1_555
N5 H53 1_555 1_555
H54 N5 1_555 1_555
C36 N6 1_555 1_555
N6 H55 1_555 1_555
H56 N6 1_555 1_555
C37 H57 1_555 1_555
H58 C37 1_555 1_555
H59 C37 1_555 1_555
C38 H60 1_555 1_555
H61 C38 1_555 1_555
H62 C38 1_555 1_555
O1 C37 1_555 1_555
H63 O1 1_555 1_555
O2 C38 1_555 1_555
H64 O2 1_555 1_555
N7 B1 1_555 1_555
N8 W1 1_555 1_555
N9 B1 1_555 1_555
N10 W1 1_555 1_555
N11 B1 1_555 1_555
N12 W1 1_555 1_555
N13 B2 1_555 1_555
N14 W2 1_555 1_555
N15 B2 1_555 1_555
N16 W2 1_555 1_555
N17 B2 1_555 1_555
N18 W2 1_555 1_555
N19 Cu6 1_555 1_555
N20 C31 1_555 1_555
N21 Cu3 1_555 1_555
N22 Cu5 1_555 1_555
N23 C34 1_555 1_555
N24 Cu2 1_555 1_555
W2_2 Cu4_2 1_555 1_555
Cu4_2 S6 1_555 1_555
Cu6_2 S5 1_555 1_555
S5_2 Cu6 1_555 1_555
S6_2 W2 1_555 1_555
Br4_2 Cu6 1_555 1_555
Cu1 S2 1_555 1_555
Cu2 S3 1_555 1_555
Cu2 Br2 1_555 1_555
Cu3 S3 1_555 1_555
Cu3 Br2 1_555 1_555
Cu4 S6_2 1_555 1_555
Cu5 S5 1_555 1_555
Cu5 Br4 1_555 1_555
Br4 Cu6_2 1_555 1_555
C2 N7 1_555 1_555
C4 N8 1_555 1_555
C7 N9 1_555 1_555
C9 N10 1_555 1_555
C12 N11 1_555 1_555
C14 N12 1_555 1_555
C17 N13 1_555 1_555
C19 N14 1_555 1_555
C22 N15 1_555 1_555
C24 N16 1_555 1_555
C27 N17 1_555 1_555
C29 N18 1_555 1_555
C31 N21 1_555 1_555
C32 N19 1_555 1_555
C32 N21 1_555 1_555
C33 N19 1_555 1_555
C33 N20 1_555 1_555
C34 N24 1_555 1_555
C35 N22 1_555 1_555
C35 N24 1_555 1_555
C36 N22 1_555 1_555
C36 N23 1_555 1_555
N7 N8 1_555 1_555
N9 N10 1_555 1_555
N11 N12 1_555 1_555
N13 N14 1_555 1_555
N15 N16 1_555 1_555
N17 N18 1_555 1_555
W2_2 S5_2 1_555 1_555
Cu4_2 Br4_2 1_555 1_555
Cu6_2 S6_2 1_555 1_555

#END
