
#######################################################################
#
#                 Cambridge Crystallographic Data Centre
#                                CCDC 
#
#######################################################################
#
# If this CIF has been generated from an entry in the Cambridge 
# Structural Database, then it will include bibliographic, chemical, 
# crystal, experimental, refinement or atomic coordinate data resulting 
# from the CCDC's data processing and validation procedures.
#
#######################################################################

data_AWESIF01
_symmetry_cell_setting           triclinic
_symmetry_space_group_name_H-M   'P -1'
_symmetry_Int_Tables_number      2
_space_group_name_Hall           '-P 1'
loop_
_symmetry_equiv_pos_site_id
_symmetry_equiv_pos_as_xyz
1 x,y,z
2 -x,-y,-z
_cell_length_a                   9.0395(10)
_cell_length_b                   9.3091(10)
_cell_length_c                   10.5172(12)
_cell_angle_alpha                80.840(9)
_cell_angle_beta                 76.092(10)
_cell_angle_gamma                61.651(11)
_cell_volume                     754.993
loop_
_atom_site_label
_atom_site_type_symbol
_atom_site_fract_x
_atom_site_fract_y
_atom_site_fract_z
Co1 Co 0.0000 -0.5000 0.5000
O1 O -0.0631(3) -0.4894(3) 0.3186(2)
H1 H 0.015(4) -0.492(5) 0.253(3)
H2 H -0.138(4) -0.502(5) 0.294(4)
N1 N 0.0619(3) -0.3038(3) 0.4259(3)
C1 C -0.0238(4) -0.1863(4) 0.3450(3)
H3 H -0.1146 -0.1811 0.3109
N2 N 0.0348(3) -0.0765(3) 0.3178(2)
N3 N 0.1645(4) -0.1192(4) 0.3818(3)
C2 C 0.1768(4) -0.2574(4) 0.4453(3)
H4 H 0.2586 -0.3194 0.4999
C3 C -0.0182(4) 0.0687(4) 0.2294(3)
H5 H -0.0463 0.1646 0.2771
H6 H -0.1234 0.0873 0.2016
C4 C 0.1172(4) 0.0554(4) 0.1093(3)
C5 C 0.2293(4) -0.0924(4) 0.0512(3)
H7 H 0.2243 -0.1899 0.0894
C6 C 0.3482(4) -0.0985(4) -0.0621(3)
H8 H 0.4245 -0.2006 -0.0999
C7 C 0.3572(4) 0.0414(4) -0.1205(3)
C8 C 0.2475(4) 0.1885(4) -0.0614(3)
H9 H 0.2532 0.2857 -0.0996
C9 C 0.1293(4) 0.1952(4) 0.0529(3)
H10 H 0.0563 0.2966 0.0927
C10 C 0.4821(4) 0.0466(4) -0.2441(3)
H11 H 0.4216 0.1440 -0.3000
H12 H 0.5743 0.0592 -0.2197
N4 N 0.5593(3) -0.0986(3) -0.3203(2)
N5 N 0.4647(4) -0.1407(4) -0.3756(3)
C11 C 0.5813(4) -0.2720(4) -0.4361(3)
H13 H 0.5542 -0.3316 -0.4843
N6 N 0.7450(3) -0.3167(3) -0.4243(2)
C12 C 0.7224(4) -0.2022(4) -0.3506(3)
H14 H 0.8119 -0.1959 -0.3233
Co1_2 Co -1.0000 -0.5000 1.5000
Co1_3 Co 1.0000 -0.5000 -0.5000
O1A O 0.0631(3) -0.5106(3) 0.6814(2)
H1A H -0.015(4) -0.508(5) 0.747(3)
H2A H 0.138(4) -0.498(5) 0.706(4)
N1A N -0.0619(3) -0.6962(3) 0.5741(3)
C1A C 0.0238(4) -0.8137(4) 0.6550(3)
H3A H 0.1146 -0.8189 0.6891
N2A N -0.0348(3) -0.9235(3) 0.6822(2)
N3A N -0.1645(4) -0.8808(4) 0.6182(3)
C2A C -0.1768(4) -0.7426(4) 0.5547(3)
H4A H -0.2586 -0.6806 0.5001
C3A C 0.0182(4) -1.0687(4) 0.7706(3)
H5A H 0.0463 -1.1646 0.7229
H6A H 0.1234 -1.0873 0.7984
C4A C -0.1172(4) -1.0554(4) 0.8907(3)
C5A C -0.2293(4) -0.9076(4) 0.9488(3)
H7A H -0.2243 -0.8101 0.9106
C6A C -0.3482(4) -0.9015(4) 1.0621(3)
H8A H -0.4245 -0.7994 1.0999
C7A C -0.3572(4) -1.0414(4) 1.1205(3)
C8A C -0.2475(4) -1.1885(4) 1.0614(3)
H9A H -0.2532 -1.2857 1.0996
C9A C -0.1293(4) -1.1952(4) 0.9471(3)
H10A H -0.0563 -1.2966 0.9073
C10A C -0.4821(4) -1.0466(4) 1.2441(3)
H11A H -0.4216 -1.1440 1.3000
H12A H -0.5743 -1.0592 1.2197
N4A N -0.5593(3) -0.9014(3) 1.3203(2)
N5A N -0.4647(4) -0.8593(4) 1.3756(3)
C11A C -0.5813(4) -0.7280(4) 1.4361(3)
H13A H -0.5542 -0.6684 1.4843
N6A N -0.7450(3) -0.6833(3) 1.4243(2)
N6_2 N -0.2550(3) -0.3167(3) 0.5757(2)
N6A_2 N 0.2550(3) -0.6833(3) 0.4243(2)
C12A C -0.7224(4) -0.7978(4) 1.3506(3)
H14A H -0.8119 -0.8041 1.3233
O2 O 0.1925(4) -0.4830(4) 0.1277(3)
H15 H 0.274(4) -0.494(6) 0.152(4)
H16 H 0.245(5) -0.508(6) 0.052(2)
N7 N 0.6035(3) -0.5051(3) 0.2236(3)
O3 O 0.5063(10) -0.5120(9) 0.1654(8)
O4 O 0.5645(12) -0.4771(7) 0.3412(6)
O5 O 0.7607(8) -0.5458(6) 0.1642(6)
O6? O 0.4541(10) -0.4686(9) 0.2105(8)
O7? O 0.6241(9) -0.4743(6) 0.3286(5)
O8? O 0.7285(8) -0.5646(7) 0.1328(6)
loop_
_geom_bond_atom_site_label_1
_geom_bond_atom_site_label_2
_geom_bond_site_symmetry_1
_geom_bond_site_symmetry_2
Co1 O1 1_555 1_555
O1 H1 1_555 1_555
H2 O1 1_555 1_555
N1 Co1 1_555 1_555
C1 N1 1_555 1_555
H3 C1 1_555 1_555
N2 C1 1_555 1_555
N3 N2 1_555 1_555
C2 N1 1_555 1_555
H4 C2 1_555 1_555
C3 N2 1_555 1_555
H5 C3 1_555 1_555
H6 C3 1_555 1_555
C4 C3 1_555 1_555
C5 C4 1_555 1_555
H7 C5 1_555 1_555
C6 C5 1_555 1_555
H8 C6 1_555 1_555
C7 C6 1_555 1_555
C8 C7 1_555 1_555
H9 C8 1_555 1_555
C9 C4 1_555 1_555
H10 C9 1_555 1_555
C10 C7 1_555 1_555
H11 C10 1_555 1_555
H12 C10 1_555 1_555
N4 C10 1_555 1_555
N5 N4 1_555 1_555
C11 N5 1_555 1_555
H13 C11 1_555 1_555
N6 C11 1_555 1_555
C12 N4 1_555 1_555
H14 C12 1_555 1_555
O2 H15 1_555 1_555
H16 O2 1_555 1_555
N7 O3 1_555 1_555
O4 N7 1_555 1_555
O5 N7 1_555 1_555
Co1_2 N6A 1_555 1_555
Co1_3 N6 1_555 1_555
O1A Co1 1_555 1_555
H1A O1A 1_555 1_555
H2A O1A 1_555 1_555
N1A Co1 1_555 1_555
C1A N1A 1_555 1_555
H3A C1A 1_555 1_555
N2A C1A 1_555 1_555
N3A N2A 1_555 1_555
C2A N1A 1_555 1_555
H4A C2A 1_555 1_555
C3A N2A 1_555 1_555
H5A C3A 1_555 1_555
H6A C3A 1_555 1_555
C4A C3A 1_555 1_555
C5A C4A 1_555 1_555
H7A C5A 1_555 1_555
C6A C5A 1_555 1_555
H8A C6A 1_555 1_555
C7A C6A 1_555 1_555
C8A C7A 1_555 1_555
H9A C8A 1_555 1_555
C9A C4A 1_555 1_555
H10A C9A 1_555 1_555
C10A C7A 1_555 1_555
H11A C10A 1_555 1_555
H12A C10A 1_555 1_555
N4A C10A 1_555 1_555
N5A N4A 1_555 1_555
C11A N5A 1_555 1_555
H13A C11A 1_555 1_555
N6A C11A 1_555 1_555
N6_2 Co1 1_555 1_555
N6A_2 Co1 1_555 1_555
C12A N4A 1_555 1_555
H14A C12A 1_555 1_555
N3 C2 1_555 1_555
C8 C9 1_555 1_555
N6 C12 1_555 1_555
N3A C2A 1_555 1_555
C8A C9A 1_555 1_555
N6A C12A 1_555 1_555

#END
