
#######################################################################
#
#                 Cambridge Crystallographic Data Centre
#                                CCDC 
#
#######################################################################
#
# If this CIF has been generated from an entry in the Cambridge 
# Structural Database, then it will include bibliographic, chemical, 
# crystal, experimental, refinement or atomic coordinate data resulting 
# from the CCDC's data processing and validation procedures.
#
#######################################################################

data_AWESOL
_symmetry_cell_setting           monoclinic
_symmetry_space_group_name_H-M   'P 21/c'
_symmetry_Int_Tables_number      14
_space_group_name_Hall           '-P 2ybc'
loop_
_symmetry_equiv_pos_site_id
_symmetry_equiv_pos_as_xyz
1 x,y,z
2 -x,1/2+y,1/2-z
3 -x,-y,-z
4 x,1/2-y,1/2+z
_cell_length_a                   7.4760(15)
_cell_length_b                   21.945(4)
_cell_length_c                   8.6629(17)
_cell_angle_alpha                90
_cell_angle_beta                 108.28(3)
_cell_angle_gamma                90
_cell_volume                     1349.52
loop_
_atom_site_label
_atom_site_type_symbol
_atom_site_fract_x
_atom_site_fract_y
_atom_site_fract_z
N1 N 0.9115(3) 0.08230(8) 0.5827(2)
C1 C 1.0066(3) 0.13518(11) 0.6214(3)
H1 H 1.1184 0.1425 0.5989
N2 N 0.9302(3) 0.17553(10) 0.6933(3)
N3 N 0.7732(3) 0.14601(9) 0.6991(2)
C2 C 0.6515(4) 0.17180(12) 0.7860(3)
H2 H 0.7240 0.1768 0.8997
H3 H 0.5499 0.1435 0.7800
Co1 Co 0.0000 0.5000 1.0000
Cl1 Cl 0.33781(8) 0.47792(3) 1.16060(7)
N4 N 0.1796(3) 0.42328(8) 0.6200(2)
N5 N 0.0438(3) 0.45489(9) 0.7933(2)
C3 C 0.4087(3) 0.34483(11) 0.6013(3)
C4 C 0.5687(3) 0.23258(11) 0.7179(3)
C5 C 0.7652(3) 0.09123(11) 0.6348(3)
H4 H 0.6702 0.0629 0.6271
C6 C 0.2067(3) 0.44281(11) 0.7700(3)
H5 H 0.3240 0.4474 0.8482
C7 C 0.5684(4) 0.34148(12) 0.7328(3)
H6 H 0.6240 0.3771 0.7839
C8 C 0.4107(4) 0.23595(12) 0.5833(3)
H7 H 0.3576 0.2004 0.5302
N6 N -0.0071(3) 0.42248(11) 0.5376(3)
C9 C 0.3302(4) 0.29143(11) 0.5263(3)
H8 H 0.2221 0.2928 0.4365
C10 C 0.3211(4) 0.40604(11) 0.5431(3)
H9 H 0.4192 0.4368 0.5670
H10 H 0.2625 0.4047 0.4262
C11 C 0.6478(4) 0.28586(13) 0.7906(3)
H11 H 0.7563 0.2845 0.8800
C12 C -0.0808(4) 0.44194(13) 0.6470(3)
H12 H -0.2100 0.4465 0.6253
N1B N -0.9115(3) 0.91770(8) 1.4173(2)
N1A N 0.0885(3) 0.58230(8) 0.9173(2)
N1C N -0.0885(3) 0.41770(8) 1.0827(2)
C1B C -1.0066(3) 0.86482(11) 1.3786(3)
H1B H -1.1184 0.8575 1.4011
N2B N -0.9302(3) 0.82447(10) 1.3067(3)
N3B N -0.7732(3) 0.85399(9) 1.3009(2)
C2B C -0.6515(4) 0.82820(12) 1.2140(3)
H2B H -0.7240 0.8232 1.1003
H3B H -0.5499 0.8565 1.2200
Co1A Co -1.0000 1.0000 1.5000
Co1A_2 Co 1.0000 0.0000 0.5000
Cl1B Cl -0.33781(8) 0.52208(3) 0.83940(7)
N4B N -0.1796(3) 0.57672(8) 1.3800(2)
N5B N -0.0438(3) 0.54511(9) 1.2067(2)
C3B C -0.4087(3) 0.65517(11) 1.3987(3)
C4B C -0.5687(3) 0.76742(11) 1.2821(3)
C5B C -0.7652(3) 0.90877(11) 1.3652(3)
H4B H -0.6702 0.9371 1.3729
C6B C -0.2067(3) 0.55719(11) 1.2300(3)
H5B H -0.3240 0.5526 1.1518
C7B C -0.5684(4) 0.65852(12) 1.2672(3)
H6B H -0.6240 0.6229 1.2161
C8B C -0.4107(4) 0.76405(12) 1.4167(3)
H7B H -0.3576 0.7996 1.4698
N6B N 0.0071(3) 0.57752(11) 1.4624(3)
C9B C -0.3302(4) 0.70857(11) 1.4737(3)
H8B H -0.2221 0.7072 1.5635
C10B C -0.3211(4) 0.59396(11) 1.4569(3)
H9B H -0.4192 0.5632 1.4330
H10B H -0.2625 0.5953 1.5738
C11B C -0.6478(4) 0.71414(13) 1.2094(3)
H11B H -0.7563 0.7155 1.1200
C12B C 0.0808(4) 0.55806(13) 1.3530(3)
H12B H 0.2100 0.5535 1.3747
loop_
_geom_bond_atom_site_label_1
_geom_bond_atom_site_label_2
_geom_bond_site_symmetry_1
_geom_bond_site_symmetry_2
N1 C1 1_555 1_555
C1 H1 1_555 1_555
N2 C1 1_555 1_555
N3 N2 1_555 1_555
C2 N3 1_555 1_555
H2 C2 1_555 1_555
H3 C2 1_555 1_555
Co1 Cl1 1_555 1_555
N4 C6 1_555 1_555
N5 Co1 1_555 1_555
C3 C7 1_555 1_555
C4 C2 1_555 1_555
C5 N1 1_555 1_555
H4 C5 1_555 1_555
C6 N5 1_555 1_555
H5 C6 1_555 1_555
C7 H6 1_555 1_555
C8 C4 1_555 1_555
H7 C8 1_555 1_555
N6 N4 1_555 1_555
C9 C3 1_555 1_555
H8 C9 1_555 1_555
C10 N4 1_555 1_555
H9 C10 1_555 1_555
H10 C10 1_555 1_555
C11 C4 1_555 1_555
H11 C11 1_555 1_555
C12 N5 1_555 1_555
H12 C12 1_555 1_555
N1B C1B 1_555 1_555
N1A Co1 1_555 1_555
N1C Co1 1_555 1_555
C1B H1B 1_555 1_555
N2B C1B 1_555 1_555
N3B N2B 1_555 1_555
C2B N3B 1_555 1_555
H2B C2B 1_555 1_555
H3B C2B 1_555 1_555
Co1A N1B 1_555 1_555
Co1A_2 N1 1_555 1_555
Cl1B Co1 1_555 1_555
N4B C6B 1_555 1_555
N5B Co1 1_555 1_555
C3B C7B 1_555 1_555
C4B C2B 1_555 1_555
C5B N1B 1_555 1_555
H4B C5B 1_555 1_555
C6B N5B 1_555 1_555
H5B C6B 1_555 1_555
C7B H6B 1_555 1_555
C8B C4B 1_555 1_555
H7B C8B 1_555 1_555
N6B N4B 1_555 1_555
C9B C3B 1_555 1_555
H8B C9B 1_555 1_555
C10B N4B 1_555 1_555
H9B C10B 1_555 1_555
H10B C10B 1_555 1_555
C11B C4B 1_555 1_555
H11B C11B 1_555 1_555
C12B N5B 1_555 1_555
H12B C12B 1_555 1_555
N3 C5 1_555 1_555
C3 C10 1_555 1_555
C7 C11 1_555 1_555
C8 C9 1_555 1_555
N6 C12 1_555 1_555
N3B C5B 1_555 1_555
C3B C10B 1_555 1_555
C7B C11B 1_555 1_555
C8B C9B 1_555 1_555
N6B C12B 1_555 1_555

#END
