
#######################################################################
#
#                 Cambridge Crystallographic Data Centre
#                                CCDC 
#
#######################################################################
#
# If this CIF has been generated from an entry in the Cambridge 
# Structural Database, then it will include bibliographic, chemical, 
# crystal, experimental, refinement or atomic coordinate data resulting 
# from the CCDC's data processing and validation procedures.
#
#######################################################################

data_AWESIF
_symmetry_cell_setting           triclinic
_symmetry_space_group_name_H-M   'P -1'
_symmetry_Int_Tables_number      2
_space_group_name_Hall           '-P 1'
loop_
_symmetry_equiv_pos_site_id
_symmetry_equiv_pos_as_xyz
1 x,y,z
2 -x,-y,-z
_cell_length_a                   9.0519(10)
_cell_length_b                   9.4026(9)
_cell_length_c                   10.5990(12)
_cell_angle_alpha                81.697(4)
_cell_angle_beta                 75.627(3)
_cell_angle_gamma                62.257(8)
_cell_volume                     772.967
loop_
_atom_site_label
_atom_site_type_symbol
_atom_site_fract_x
_atom_site_fract_y
_atom_site_fract_z
Co1 Co 1.0000 0.0000 0.0000
O1 O 1.0585(2) -0.0033(2) 0.18040(18)
H1 H 1.1497 -0.0031 0.1966
H2 H 0.9827 -0.0109 0.2643
N1 N 0.5593(3) 0.4004(3) 0.1781(2)
N2 N 0.0653(3) 0.1936(3) 0.9243(2)
N3 N 0.0381(3) 0.4159(3) 0.8161(2)
N4 N 0.7459(3) 0.1841(3) 0.0746(2)
N5 N 0.1663(3) 0.3768(3) 0.8793(2)
C1 C 0.3565(3) 0.5372(3) 0.3783(2)
C2 C 0.1206(3) 0.5451(3) 0.6083(2)
C3 C 0.1765(3) 0.2435(3) 0.9428(3)
H3 H 0.2542 0.1872 0.9966
C4 C 0.7219(3) 0.2985(3) 0.1482(3)
H4 H 0.8084 0.3057 0.1751
N6 N 0.4667(3) 0.3570(3) 0.1233(2)
C5 C -0.0191(3) 0.3071(3) 0.8438(3)
H5 H -0.1068 0.3096 0.8113
C6 C 0.5853(3) 0.2264(4) 0.0625(3)
H6 H 0.5604 0.1676 0.0148
C7 C 0.1240(4) 0.6846(3) 0.5494(3)
H7 H 0.0472 0.7827 0.5871
C8 C 0.3568(4) 0.3963(3) 0.4385(3)
H8 H 0.4367 0.2979 0.4028
C9 C 0.2396(4) 0.6809(3) 0.4357(3)
H9 H 0.2387 0.7766 0.3971
C10 C 0.4803(4) 0.5430(3) 0.2554(3)
H10 H 0.4207 0.6359 0.2023
H11 H 0.5693 0.5578 0.2785
C11 C -0.0154(4) 0.5573(3) 0.7291(3)
H12 H -0.1172 0.5722 0.7029
H13 H -0.0446 0.6512 0.7760
C12 C 0.2385(4) 0.4013(3) 0.5518(3)
H14 H 0.2387 0.3059 0.5903
Co1_2 Co 0.0000 0.0000 1.0000
O1A O 0.9415(2) 0.0033(2) -0.18040(18)
H1A H 0.8503 0.0031 -0.1966
H2A H 1.0173 0.0109 -0.2643
N1A N 0.4407(3) -0.4004(3) 0.8219(2)
N2A N 0.9347(3) -0.1936(3) 0.0757(2)
N2_2 N 1.0653(3) 0.1936(3) -0.0757(2)
N3A N 0.9619(3) -0.4159(3) 0.1839(2)
N4A N 0.2541(3) -0.1841(3) 0.9254(2)
N4A_2 N 1.2541(3) -0.1841(3) -0.0746(2)
N5A N 0.8337(3) -0.3768(3) 0.1207(2)
C1A C 0.6435(3) -0.5372(3) 0.6217(2)
C2A C 0.8794(3) -0.5451(3) 0.3917(2)
C3A C 0.8235(3) -0.2435(3) 0.0572(3)
H3A H 0.7458 -0.1872 0.0034
C4A C 0.2781(3) -0.2985(3) 0.8518(3)
H4A H 0.1916 -0.3057 0.8249
N6A N 0.5333(3) -0.3570(3) 0.8767(2)
C5A C 1.0191(3) -0.3071(3) 0.1562(3)
H5A H 1.1068 -0.3096 0.1887
C6A C 0.4147(3) -0.2264(4) 0.9375(3)
H6A H 0.4396 -0.1676 0.9852
C7A C 0.8760(4) -0.6846(3) 0.4506(3)
H7A H 0.9528 -0.7827 0.4129
C8A C 0.6432(4) -0.3963(3) 0.5615(3)
H8A H 0.5633 -0.2979 0.5972
C9A C 0.7604(4) -0.6809(3) 0.5643(3)
H9A H 0.7613 -0.7766 0.6029
C10A C 0.5197(4) -0.5430(3) 0.7446(3)
H10A H 0.5793 -0.6359 0.7977
H11A H 0.4307 -0.5578 0.7215
C11A C 1.0154(4) -0.5573(3) 0.2709(3)
H12A H 1.1172 -0.5722 0.2971
H13A H 1.0446 -0.6512 0.2240
C12A C 0.7615(4) -0.4013(3) 0.4482(3)
H14A H 0.7613 -0.3059 0.4097
N7 N 0.3936(3) 0.0031(3) 0.2769(2)
O2 O 0.3949(4) -0.0177(4) 0.1656(2)
O3 O 0.5148(4) -0.0120(4) 0.3118(4)
O4 O 0.2551(3) 0.0416(4) 0.3521(3)
O5 O 0.7991(3) 0.9931(3) 0.3714(2)
H15 H 0.7263 1.0090 0.3401
H16 H 0.7925 0.9727 0.4518
loop_
_geom_bond_atom_site_label_1
_geom_bond_atom_site_label_2
_geom_bond_site_symmetry_1
_geom_bond_site_symmetry_2
Co1 O1 1_555 1_555
O1 H1 1_555 1_555
H2 O1 1_555 1_555
N1 C4 1_555 1_555
N2 C3 1_555 1_555
N3 N5 1_555 1_555
N4 Co1 1_555 1_555
N5 C3 1_555 1_555
C1 C8 1_555 1_555
C2 C7 1_555 1_555
C3 H3 1_555 1_555
C4 N4 1_555 1_555
H4 C4 1_555 1_555
N6 N1 1_555 1_555
C5 N2 1_555 1_555
H5 C5 1_555 1_555
C6 N4 1_555 1_555
H6 C6 1_555 1_555
C7 H7 1_555 1_555
C8 H8 1_555 1_555
C9 C1 1_555 1_555
H9 C9 1_555 1_555
C10 N1 1_555 1_555
H10 C10 1_555 1_555
H11 C10 1_555 1_555
C11 N3 1_555 1_555
H12 C11 1_555 1_555
H13 C11 1_555 1_555
C12 C2 1_555 1_555
H14 C12 1_555 1_555
N7 O2 1_555 1_555
O3 N7 1_555 1_555
O4 N7 1_555 1_555
O5 H15 1_555 1_555
H16 O5 1_555 1_555
Co1_2 N2 1_555 1_555
O1A Co1 1_555 1_555
H1A O1A 1_555 1_555
H2A O1A 1_555 1_555
N1A C4A 1_555 1_555
N2A Co1 1_555 1_555
N2_2 Co1 1_555 1_555
N3A N5A 1_555 1_555
N4A Co1_2 1_555 1_555
N4A_2 Co1 1_555 1_555
N5A C3A 1_555 1_555
C1A C8A 1_555 1_555
C2A C7A 1_555 1_555
C3A N2A 1_555 1_555
H3A C3A 1_555 1_555
C4A N4A 1_555 1_555
H4A C4A 1_555 1_555
N6A N1A 1_555 1_555
C5A N2A 1_555 1_555
H5A C5A 1_555 1_555
C6A N4A 1_555 1_555
H6A C6A 1_555 1_555
C7A H7A 1_555 1_555
C8A H8A 1_555 1_555
C9A C1A 1_555 1_555
H9A C9A 1_555 1_555
C10A N1A 1_555 1_555
H10A C10A 1_555 1_555
H11A C10A 1_555 1_555
C11A N3A 1_555 1_555
H12A C11A 1_555 1_555
H13A C11A 1_555 1_555
C12A C2A 1_555 1_555
H14A C12A 1_555 1_555
N3 C5 1_555 1_555
C1 C10 1_555 1_555
C2 C11 1_555 1_555
N6 C6 1_555 1_555
C7 C9 1_555 1_555
C8 C12 1_555 1_555
N3A C5A 1_555 1_555
C1A C10A 1_555 1_555
C2A C11A 1_555 1_555
N6A C6A 1_555 1_555
C7A C9A 1_555 1_555
C8A C12A 1_555 1_555

#END
