
#######################################################################
#
#                 Cambridge Crystallographic Data Centre
#                                CCDC 
#
#######################################################################
#
# If this CIF has been generated from an entry in the Cambridge 
# Structural Database, then it will include bibliographic, chemical, 
# crystal, experimental, refinement or atomic coordinate data resulting 
# from the CCDC's data processing and validation procedures.
#
#######################################################################

data_AWESUR
_symmetry_cell_setting           monoclinic
_symmetry_space_group_name_H-M   'P 21/c'
_symmetry_Int_Tables_number      14
_space_group_name_Hall           '-P 2ybc'
loop_
_symmetry_equiv_pos_site_id
_symmetry_equiv_pos_as_xyz
1 x,y,z
2 -x,1/2+y,1/2-z
3 -x,-y,-z
4 x,1/2-y,1/2+z
_cell_length_a                   14.6365(13)
_cell_length_b                   5.4996(6)
_cell_length_c                   24.163(3)
_cell_angle_alpha                90
_cell_angle_beta                 98.089(7)
_cell_angle_gamma                90
_cell_volume                     1925.65
loop_
_atom_site_label
_atom_site_type_symbol
_atom_site_fract_x
_atom_site_fract_y
_atom_site_fract_z
Co1 Co 0.5000 0.5000 0.0000
O1 O 0.54566(16) 0.2899(4) 0.07138(10)
O2 O 0.65761(19) 0.5261(5) 0.11246(11)
O3 O 0.42672(16) 0.1870(4) -0.03182(10)
H1 H 0.3892 0.2488 -0.0584
H2 H 0.4508 0.0378 -0.0483
N1 N 0.62082(19) 0.4111(6) -0.03532(12)
C1 C 0.5495(3) 0.0018(7) 0.16606(17)
H3 H 0.5034 -0.0263 0.1361
N2 N 0.7573(2) 0.2920(6) -0.04741(14)
C2 C 0.6108(2) 0.1911(7) 0.16379(14)
C3 C 0.6050(2) 0.3474(6) 0.11271(14)
C4 C 0.6481(3) 0.5124(10) -0.0809(2)
H4 H 0.6114 0.6199 -0.1040
C5 C 1.0133(3) 0.2979(7) -0.03033(16)
H5 H 1.0229 0.1598 -0.0510
C6 C 0.9131(3) 0.5572(7) 0.01117(17)
H6 H 0.8546 0.5977 0.0191
C7 C 0.6913(2) 0.2753(7) -0.01558(17)
H7 H 0.6944 0.1802 0.0165
C8 C 0.9247(2) 0.3509(7) -0.01992(16)
C9 C 0.6770(3) 0.2327(8) 0.20962(17)
H8 H 0.7182 0.3612 0.2090
N3 N 0.7309(3) 0.4466(9) -0.09011(17)
C10 C 0.6824(3) 0.0860(10) 0.25596(19)
H9 H 0.7267 0.1173 0.2867
C11 C 0.5566(3) -0.1466(8) 0.21290(19)
H10 H 0.5157 -0.2752 0.2141
C12 C 0.6235(4) -0.1047(10) 0.25737(19)
H11 H 0.6287 -0.2061 0.2885
C13 C 0.8479(3) 0.1791(8) -0.0399(2)
H12 H 0.8590 0.1092 -0.0752
H13 H 0.8483 0.0474 -0.0132
Co1_2 Co 1.5000 0.5000 0.0000
O1B O 0.45434(16) 0.7101(4) -0.07138(10)
O2B O 0.34239(19) 0.4739(5) -0.11246(11)
O3B O 0.57328(16) 0.8130(4) 0.03182(10)
H1B H 0.6108 0.7512 0.0584
H2B H 0.5492 0.9622 0.0483
N1B N 1.37918(19) 0.5889(6) 0.03532(12)
N1B_2 N 0.37918(19) 0.5889(6) 0.03532(12)
C1B C 0.4505(3) 0.9982(7) -0.16606(17)
H3B H 0.4966 1.0263 -0.1361
N2B N 1.2427(2) 0.7080(6) 0.04741(14)
C2B C 0.3892(2) 0.8089(7) -0.16379(14)
C3B C 0.3950(2) 0.6526(6) -0.11271(14)
C4B C 1.3519(3) 0.4876(10) 0.0809(2)
H4B H 1.3886 0.3801 0.1040
C5B C 0.9867(3) 0.7021(7) 0.03033(16)
H5B H 0.9771 0.8402 0.0510
C6B C 1.0869(3) 0.4428(7) -0.01117(17)
H6B H 1.1454 0.4023 -0.0191
C7B C 1.3087(2) 0.7247(7) 0.01558(17)
H7B H 1.3056 0.8198 -0.0165
C8B C 1.0753(2) 0.6491(7) 0.01992(16)
C9B C 0.3230(3) 0.7673(8) -0.20962(17)
H8B H 0.2818 0.6388 -0.2090
N3B N 1.2691(3) 0.5534(9) 0.09011(17)
C10B C 0.3176(3) 0.9140(10) -0.25596(19)
H9B H 0.2733 0.8827 -0.2867
C11B C 0.4434(3) 1.1466(8) -0.21290(19)
H10B H 0.4843 1.2752 -0.2141
C12B C 0.3765(4) 1.1047(10) -0.25737(19)
H11B H 0.3713 1.2061 -0.2885
C13B C 1.1521(3) 0.8209(8) 0.0399(2)
H12B H 1.1410 0.8908 0.0752
H13B H 1.1517 0.9526 0.0132
O4 O 0.2047(2) 0.4851(6) 0.40683(14)
O5 O 0.1875(2) 0.2111(6) 0.33879(14)
H14 H 0.2365 0.1593 0.3553
C14 C 0.0640(3) 0.4736(7) 0.34435(16)
C15 C 0.0290(4) 0.6864(8) 0.36421(19)
H15 H 0.0668 0.7863 0.3887
C16 C -0.0620(4) 0.7491(9) 0.3475(2)
H16 H -0.0858 0.8901 0.3613
C17 C 0.0078(3) 0.3320(8) 0.30711(17)
H17 H 0.0312 0.1917 0.2928
C18 C -0.1177(4) 0.6036(11) 0.3106(2)
H18 H -0.1789 0.6467 0.2992
C19 C 0.1594(3) 0.3953(8) 0.36669(17)
C20 C -0.0828(3) 0.3960(10) 0.2908(2)
H19 H -0.1206 0.2972 0.2660
loop_
_geom_bond_atom_site_label_1
_geom_bond_atom_site_label_2
_geom_bond_site_symmetry_1
_geom_bond_site_symmetry_2
Co1 O1 1_555 1_555
O1 C3 1_555 1_555
O2 C3 1_555 1_555
O3 Co1 1_555 1_555
H1 O3 1_555 1_555
H2 O3 1_555 1_555
N1 Co1 1_555 1_555
C1 H3 1_555 1_555
N2 C7 1_555 1_555
C2 C1 1_555 1_555
C3 C2 1_555 1_555
C4 N1 1_555 1_555
H4 C4 1_555 1_555
C5 H5 1_555 1_555
C6 H6 1_555 1_555
C7 N1 1_555 1_555
H7 C7 1_555 1_555
C8 C5 1_555 1_555
C9 C2 1_555 1_555
H8 C9 1_555 1_555
N3 N2 1_555 1_555
C10 C9 1_555 1_555
H9 C10 1_555 1_555
C11 C1 1_555 1_555
H10 C11 1_555 1_555
C12 C10 1_555 1_555
H11 C12 1_555 1_555
C13 N2 1_555 1_555
H12 C13 1_555 1_555
H13 C13 1_555 1_555
O4 C19 1_555 1_555
O5 H14 1_555 1_555
C14 C15 1_555 1_555
C15 H15 1_555 1_555
C16 C15 1_555 1_555
H16 C16 1_555 1_555
C17 C14 1_555 1_555
H17 C17 1_555 1_555
C18 C16 1_555 1_555
H18 C18 1_555 1_555
C19 O5 1_555 1_555
C20 C17 1_555 1_555
H19 C20 1_555 1_555
Co1_2 N1B 1_555 1_555
O1B Co1 1_555 1_555
O2B C3B 1_555 1_555
O3B Co1 1_555 1_555
H1B O3B 1_555 1_555
H2B O3B 1_555 1_555
N1B C4B 1_555 1_555
N1B_2 Co1 1_555 1_555
C1B H3B 1_555 1_555
N2B C7B 1_555 1_555
C2B C1B 1_555 1_555
C3B O1B 1_555 1_555
C4B H4B 1_555 1_555
C5B C6 1_555 1_555
H5B C5B 1_555 1_555
C6B C5 1_555 1_555
H6B C6B 1_555 1_555
C7B N1B 1_555 1_555
H7B C7B 1_555 1_555
C8B C5B 1_555 1_555
C9B C2B 1_555 1_555
H8B C9B 1_555 1_555
N3B N2B 1_555 1_555
C10B C9B 1_555 1_555
H9B C10B 1_555 1_555
C11B C1B 1_555 1_555
H10B C11B 1_555 1_555
C12B C10B 1_555 1_555
H11B C12B 1_555 1_555
C13B N2B 1_555 1_555
H12B C13B 1_555 1_555
H13B C13B 1_555 1_555
C4 N3 1_555 1_555
C6 C8 1_555 1_555
C8 C13 1_555 1_555
C11 C12 1_555 1_555
C14 C19 1_555 1_555
C18 C20 1_555 1_555
C2B C3B 1_555 1_555
C4B N3B 1_555 1_555
C6B C8B 1_555 1_555
C8B C13B 1_555 1_555
C11B C12B 1_555 1_555

#END
