
#######################################################################
#
#                 Cambridge Crystallographic Data Centre
#                                CCDC 
#
#######################################################################
#
# If this CIF has been generated from an entry in the Cambridge 
# Structural Database, then it will include bibliographic, chemical, 
# crystal, experimental, refinement or atomic coordinate data resulting 
# from the CCDC's data processing and validation procedures.
#
#######################################################################

data_AWESEB
_symmetry_cell_setting           triclinic
_symmetry_space_group_name_H-M   'P -1'
_symmetry_Int_Tables_number      2
_space_group_name_Hall           '-P 1'
loop_
_symmetry_equiv_pos_site_id
_symmetry_equiv_pos_as_xyz
1 x,y,z
2 -x,-y,-z
_cell_length_a                   8.1660(18)
_cell_length_b                   11.812(3)
_cell_length_c                   15.559(4)
_cell_angle_alpha                72.592(4)
_cell_angle_beta                 78.814(4)
_cell_angle_gamma                82.024(5)
_cell_volume                     1399.6
loop_
_atom_site_label
_atom_site_type_symbol
_atom_site_fract_x
_atom_site_fract_y
_atom_site_fract_z
Co1 Co 0.5000 0.5000 0.0000
O1 O 0.4696(3) 0.5773(2) -0.13564(17)
N1 N 0.2406(4) 0.5491(3) 0.0436(2)
N2 N -0.0173(5) 0.6354(4) 0.0420(3)
N3 N 0.0043(4) 0.5772(3) 0.1268(2)
N4 N 0.3406(5) 0.8500(4) 0.3504(2)
N5 N 0.4674(5) 0.7992(4) 0.3011(3)
N6 N 0.4836(6) 0.9986(4) 0.2634(3)
N7 N 0.4405(4) 0.3318(3) -0.0060(2)
N8 N 0.4252(4) 0.1742(3) -0.0537(2)
N9 N 0.3365(4) 0.1621(3) 0.0313(2)
C1 C 0.5490(7) 0.8930(5) 0.2514(3)
H3 H 0.6464 0.8857 0.2103
C2 C 0.3524(7) 0.9654(5) 0.3263(3)
H4 H 0.2763 1.0181 0.3509
C3 C 0.2164(6) 0.7797(5) 0.4133(3)
H5 H 0.1421 0.8283 0.4474
H6 H 0.2702 0.7148 0.4562
C4 C 0.1164(6) 0.7301(5) 0.3635(3)
C5 C 0.0755(6) 0.6145(4) 0.3935(3)
H7 H 0.1040 0.5663 0.4487
C6 C -0.0047(6) 0.5687(4) 0.3456(3)
H8 H -0.0265 0.4890 0.3671
C7 C -0.0546(5) 0.6372(4) 0.2658(3)
C8 C -0.0252(6) 0.7535(4) 0.2357(3)
H9 H -0.0614 0.8018 0.1825
C9 C 0.0598(7) 0.8007(4) 0.2850(3)
H10 H 0.0786 0.8810 0.2646
C10 C -0.1236(5) 0.5841(4) 0.2064(3)
H11 H -0.1559 0.5050 0.2404
H12 H -0.2224 0.6327 0.1862
C11 C 0.1564(5) 0.5276(4) 0.1253(3)
H13 H 0.1999 0.4819 0.1771
C12 C 0.1270(6) 0.6146(5) -0.0051(3)
H14 H 0.1491 0.6435 -0.0683
C13 C 0.3504(5) 0.2572(3) 0.0576(3)
H15 H 0.3020 0.2684 0.1140
C14 C 0.4823(5) 0.2769(4) -0.0725(3)
H16 H 0.5477 0.3105 -0.1281
C15 C 0.2539(5) 0.0528(4) 0.0830(3)
H17 H 0.3383 -0.0142 0.0914
H18 H 0.2025 0.0602 0.1430
C16 C 0.1253(5) 0.0278(3) 0.0387(3)
C17 C 0.1654(5) -0.0369(4) -0.0237(3)
H19 H 0.2768 -0.0620 -0.0409
C18 C -0.0408(6) 0.0650(4) 0.0614(3)
H20 H -0.0701 0.1100 0.1029
Co1_2 Co -0.5000 -0.5000 0.0000
O1A O 0.5304(3) 0.4227(2) 0.13564(17)
N1A N 0.7594(4) 0.4509(3) -0.0436(2)
N2A N 1.0173(5) 0.3646(4) -0.0420(3)
N3A N 0.9957(4) 0.4228(3) -0.1268(2)
N4A N 0.6594(5) 0.1500(4) -0.3504(2)
N5A N 0.5326(5) 0.2008(4) -0.3011(3)
N6A N 0.5164(6) 0.0014(4) -0.2634(3)
N7A N -0.4405(4) -0.3318(3) 0.0060(2)
N7A_2 N 0.5595(4) 0.6682(3) 0.0060(2)
N8A N -0.4252(4) -0.1742(3) 0.0537(2)
N9A N -0.3365(4) -0.1621(3) -0.0313(2)
C1A C 0.4510(7) 0.1070(5) -0.2514(3)
H3A H 0.3536 0.1143 -0.2103
C2A C 0.6476(7) 0.0346(5) -0.3263(3)
H4A H 0.7237 -0.0181 -0.3509
C3A C 0.7836(6) 0.2203(5) -0.4133(3)
H5A H 0.8579 0.1717 -0.4474
H6A H 0.7298 0.2852 -0.4562
C4A C 0.8836(6) 0.2699(5) -0.3635(3)
C5A C 0.9245(6) 0.3855(4) -0.3935(3)
H7A H 0.8960 0.4337 -0.4487
C6A C 1.0047(6) 0.4313(4) -0.3456(3)
H8A H 1.0265 0.5110 -0.3671
C7A C 1.0546(5) 0.3628(4) -0.2658(3)
C8A C 1.0252(6) 0.2465(4) -0.2357(3)
H9A H 1.0614 0.1982 -0.1825
C9A C 0.9402(7) 0.1993(4) -0.2850(3)
H10A H 0.9214 0.1190 -0.2646
C10A C 1.1236(5) 0.4159(4) -0.2064(3)
H11A H 1.1559 0.4950 -0.2404
H12A H 1.2224 0.3673 -0.1862
C11A C 0.8436(5) 0.4724(4) -0.1253(3)
H13A H 0.8001 0.5181 -0.1771
C12A C 0.8730(6) 0.3854(5) 0.0051(3)
H14A H 0.8509 0.3565 0.0683
C13A C -0.3504(5) -0.2572(3) -0.0576(3)
H15A H -0.3020 -0.2684 -0.1140
C14A C -0.4823(5) -0.2769(4) 0.0725(3)
H16A H -0.5477 -0.3105 0.1281
C15A C -0.2539(5) -0.0528(4) -0.0830(3)
H17A H -0.3383 0.0142 -0.0914
H18A H -0.2025 -0.0602 -0.1430
C16A C -0.1253(5) -0.0278(3) -0.0387(3)
C17A C -0.1654(5) 0.0369(4) 0.0237(3)
H19A H -0.2768 0.0620 0.0409
C18A C 0.0408(6) -0.0650(4) -0.0614(3)
H20A H 0.0701 -0.1100 -0.1029
O2 O 0.3560(4) 0.7997(3) 0.8021(2)
H1 H 0.4014 0.8826 0.7827
H2 H 0.2756 0.7994 0.7658
N10 N 0.3724(4) 0.3259(3) 0.4375(2)
N11 N 0.4524(5) 0.4074(3) 0.4576(2)
N12 N 0.4517(5) 0.4555(3) 0.3072(2)
C19 C 0.4963(6) 0.4830(4) 0.3776(3)
H21 H 0.5529 0.5493 0.3699
C20 C 0.3713(6) 0.3559(4) 0.3484(3)
H22 H 0.3227 0.3147 0.3188
C21 C 0.3083(6) 0.2237(4) 0.5066(3)
H23 H 0.1938 0.2184 0.5006
H24 H 0.3068 0.2343 0.5662
C22 C 0.4103(5) 0.1092(4) 0.5007(3)
C23 C 0.3426(5) 0.0051(4) 0.5461(3)
H25 H 0.2340 0.0066 0.5781
C24 C 0.5690(6) 0.1031(4) 0.4543(3)
H26 H 0.6187 0.1731 0.4222
N10A N 0.6276(4) -0.3259(3) 0.5625(2)
N11A N 0.5476(5) -0.4074(3) 0.5424(2)
N12A N 0.5483(5) -0.4555(3) 0.6928(2)
C19A C 0.5037(6) -0.4830(4) 0.6224(3)
H21A H 0.4471 -0.5493 0.6301
C20A C 0.6287(6) -0.3559(4) 0.6516(3)
H22A H 0.6773 -0.3147 0.6812
C21A C 0.6917(6) -0.2237(4) 0.4934(3)
H23A H 0.8062 -0.2184 0.4994
H24A H 0.6932 -0.2343 0.4338
C22A C 0.5897(5) -0.1092(4) 0.4993(3)
C23A C 0.6574(5) -0.0051(4) 0.4539(3)
H25A H 0.7660 -0.0066 0.4219
C24A C 0.4310(6) -0.1031(4) 0.5457(3)
H26A H 0.3813 -0.1731 0.5778
F1 F 0.1413(5) 0.2560(4) 0.2538(2)
F2 F -0.0299(5) 0.1177(4) 0.2827(3)
F3 F -0.1342(6) 0.2847(4) 0.3030(4)
F4 F 0.0273(6) 0.1696(5) 0.3916(3)
B1 B 0.0016(8) 0.2089(7) 0.3057(4)
loop_
_geom_bond_atom_site_label_1
_geom_bond_atom_site_label_2
_geom_bond_site_symmetry_1
_geom_bond_site_symmetry_2
Co1 O1 1_555 1_555
O2 H1 1_555 1_555
H2 O2 1_555 1_555
N1 Co1 1_555 1_555
N2 N3 1_555 1_555
N3 C10 1_555 1_555
N4 N5 1_555 1_555
N5 C1 1_555 1_555
N6 C1 1_555 1_555
N7 Co1 1_555 1_555
N8 N9 1_555 1_555
N9 C13 1_555 1_555
C1 H3 1_555 1_555
C2 N4 1_555 1_555
H4 C2 1_555 1_555
C3 N4 1_555 1_555
H5 C3 1_555 1_555
H6 C3 1_555 1_555
C4 C3 1_555 1_555
C5 C4 1_555 1_555
H7 C5 1_555 1_555
C6 C5 1_555 1_555
H8 C6 1_555 1_555
C7 C6 1_555 1_555
C8 C7 1_555 1_555
H9 C8 1_555 1_555
C9 C4 1_555 1_555
H10 C9 1_555 1_555
C10 C7 1_555 1_555
H11 C10 1_555 1_555
H12 C10 1_555 1_555
C11 N1 1_555 1_555
H13 C11 1_555 1_555
C12 N1 1_555 1_555
H14 C12 1_555 1_555
C13 N7 1_555 1_555
H15 C13 1_555 1_555
C14 N7 1_555 1_555
H16 C14 1_555 1_555
C15 N9 1_555 1_555
H17 C15 1_555 1_555
H18 C15 1_555 1_555
C16 C15 1_555 1_555
C17 C16 1_555 1_555
H19 C17 1_555 1_555
C18 C16 1_555 1_555
H20 C18 1_555 1_555
N10 N11 1_555 1_555
N11 C19 1_555 1_555
N12 C19 1_555 1_555
C19 H21 1_555 1_555
C20 N10 1_555 1_555
H22 C20 1_555 1_555
C21 N10 1_555 1_555
H23 C21 1_555 1_555
H24 C21 1_555 1_555
C22 C21 1_555 1_555
C23 C22 1_555 1_555
H25 C23 1_555 1_555
C24 C22 1_555 1_555
H26 C24 1_555 1_555
F1 B1 1_555 1_555
F2 B1 1_555 1_555
F3 B1 1_555 1_555
F4 B1 1_555 1_555
Co1_2 N7A 1_555 1_555
O1A Co1 1_555 1_555
N1A Co1 1_555 1_555
N2A N3A 1_555 1_555
N3A C10A 1_555 1_555
N4A N5A 1_555 1_555
N5A C1A 1_555 1_555
N6A C1A 1_555 1_555
N7A C13A 1_555 1_555
N7A_2 Co1 1_555 1_555
N8A N9A 1_555 1_555
N9A C13A 1_555 1_555
C1A H3A 1_555 1_555
C2A N4A 1_555 1_555
H4A C2A 1_555 1_555
C3A N4A 1_555 1_555
H5A C3A 1_555 1_555
H6A C3A 1_555 1_555
C4A C3A 1_555 1_555
C5A C4A 1_555 1_555
H7A C5A 1_555 1_555
C6A C5A 1_555 1_555
H8A C6A 1_555 1_555
C7A C6A 1_555 1_555
C8A C7A 1_555 1_555
H9A C8A 1_555 1_555
C9A C4A 1_555 1_555
H10A C9A 1_555 1_555
C10A C7A 1_555 1_555
H11A C10A 1_555 1_555
H12A C10A 1_555 1_555
C11A N1A 1_555 1_555
H13A C11A 1_555 1_555
C12A N1A 1_555 1_555
H14A C12A 1_555 1_555
C13A H15A 1_555 1_555
C14A N7A 1_555 1_555
H16A C14A 1_555 1_555
C15A N9A 1_555 1_555
H17A C15A 1_555 1_555
H18A C15A 1_555 1_555
C16A C15A 1_555 1_555
C17A C18 1_555 1_555
H19A C17A 1_555 1_555
C18A C17 1_555 1_555
H20A C18A 1_555 1_555
N10A N11A 1_555 1_555
N11A C19A 1_555 1_555
N12A C19A 1_555 1_555
C19A H21A 1_555 1_555
C20A N10A 1_555 1_555
H22A C20A 1_555 1_555
C21A N10A 1_555 1_555
H23A C21A 1_555 1_555
H24A C21A 1_555 1_555
C22A C21A 1_555 1_555
C23A C24 1_555 1_555
H25A C23A 1_555 1_555
C24A C23 1_555 1_555
H26A C24A 1_555 1_555
N2 C12 1_555 1_555
N3 C11 1_555 1_555
N6 C2 1_555 1_555
N8 C14 1_555 1_555
C8 C9 1_555 1_555
N12 C20 1_555 1_555
N2A C12A 1_555 1_555
N3A C11A 1_555 1_555
N6A C2A 1_555 1_555
N8A C14A 1_555 1_555
C8A C9A 1_555 1_555
C16A C17A 1_555 1_555
C16A C18A 1_555 1_555
N12A C20A 1_555 1_555
C22A C23A 1_555 1_555
C22A C24A 1_555 1_555

#END
