
#######################################################################
#
#                 Cambridge Crystallographic Data Centre
#                                CCDC 
#
#######################################################################
#
# If this CIF has been generated from an entry in the Cambridge 
# Structural Database, then it will include bibliographic, chemical, 
# crystal, experimental, refinement or atomic coordinate data resulting 
# from the CCDC's data processing and validation procedures.
#
#######################################################################

data_AWETAY
_symmetry_cell_setting           triclinic
_symmetry_space_group_name_H-M   'P -1'
_symmetry_Int_Tables_number      2
_space_group_name_Hall           '-P 1'
loop_
_symmetry_equiv_pos_site_id
_symmetry_equiv_pos_as_xyz
1 x,y,z
2 -x,-y,-z
_cell_length_a                   8.8872(13)
_cell_length_b                   10.1085(14)
_cell_length_c                   11.8161(14)
_cell_angle_alpha                89.748(4)
_cell_angle_beta                 68.606(8)
_cell_angle_gamma                76.373(3)
_cell_volume                     956.639
loop_
_atom_site_label
_atom_site_type_symbol
_atom_site_fract_x
_atom_site_fract_y
_atom_site_fract_z
C1 C -0.0867(6) 1.5594(5) 0.9316(4)
H1 H -0.1454 1.6008 0.8845
C2 C 0.9328(5) 0.9619(4) -0.0790(3)
H2 H 0.8881 0.9362 -0.1329
Co1 Co 0.13962(5) 1.14047(4) 0.52637(4)
O1 O 0.2188(3) 0.9469(2) 0.5672(2)
N1 N 0.3438(3) 1.0969(2) 0.3534(2)
O2 O 0.2814(3) 0.2324(2) 0.6156(2)
O3 O 0.1465(3) 0.3497(2) 0.5103(2)
O4 O 0.0094(3) 0.8625(2) 0.5687(2)
N2 N -0.0733(4) 1.2077(3) 0.6943(3)
C3 C 0.2728(4) 0.4711(3) 0.6066(3)
C4 C 0.2339(3) 0.7156(3) 0.6052(2)
N3 N 0.5506(3) 1.0053(3) 0.1856(3)
C5 C 0.2323(4) 0.3436(3) 0.5750(3)
C6 C 0.1468(3) 0.8514(3) 0.5779(2)
C7 C 0.1906(4) 0.5969(3) 0.5831(3)
H3 H 0.1068 0.6019 0.5527
C8 C -0.0456(6) 1.3939(4) 1.0654(4)
H4 H -0.0752 1.3219 1.1103
C9 C 0.3604(4) 0.7061(3) 0.6503(3)
H5 H 0.3929 0.7842 0.6623
C10 C 0.4385(4) 0.5806(3) 0.6776(3)
H6 H 0.5204 0.5754 0.7101
N4 N -0.2220(5) 1.3220(4) 0.8701(3)
C11 C 0.4781(4) 0.9951(3) 0.3045(3)
H7 H 0.5165 0.9262 0.3470
C12 C 0.3940(4) 0.4638(3) 0.6561(3)
H8 H 0.4455 0.3801 0.6748
C13 C -0.1339(5) 1.4534(5) 0.9965(3)
N5 N 0.4628(4) 1.1189(3) 0.1532(3)
C14 C -0.2366(5) 1.2132(5) 0.7277(4)
H9 H -0.2780 1.1718 0.6793
C15 C 0.9179(5) 1.0002(4) 0.1241(3)
H10 H 0.8632 1.0006 0.2079
C16 C 0.8491(4) 0.9617(4) 0.0453(3)
C17 C 0.3412(4) 1.1693(4) 0.2573(3)
H11 H 0.2591 1.2489 0.2646
C18 C 0.6923(5) 0.9096(4) 0.0931(4)
H12 H 0.6611 0.8914 0.0253
H13 H 0.7167 0.8239 0.1280
N6 N -0.3333(4) 1.2815(5) 0.8339(4)
C19 C -0.0698(4) 1.2769(4) 0.7871(3)
H14 H 0.0263 1.2919 0.7934
C20 C -0.2733(6) 1.3987(5) 0.9887(4)
H15 H -0.3050 1.3393 1.0533
H16 H -0.3697 1.4739 1.0000
C1A C 0.0867(6) 1.4406(5) 1.0684(4)
H1A H 0.1454 1.3992 1.1155
C2A C 1.0672(5) 1.0381(4) 0.0790(3)
H2A H 1.1119 1.0638 0.1329
Co1A Co -0.13962(5) 0.85953(4) 0.47363(4)
Co1_2 Co 0.13962(5) 0.14047(4) 0.52637(4)
Co1A_2 Co -0.13962(5) 1.85953(4) 0.47363(4)
Co1A_3 Co -0.13962(5) 1.85953(4) 1.47363(4)
Co1A_4 Co 1.86038(5) 0.85953(4) -0.52637(4)
O1A O -0.2188(3) 1.0531(2) 0.4328(2)
N1A N 1.6562(3) 0.9031(2) -0.3534(2)
N1A_2 N -0.3438(3) 0.9031(2) 0.6466(2)
O2A O -0.2814(3) 1.7676(2) 0.3844(2)
O2_2 O 0.2814(3) 1.2324(2) 0.6156(2)
O2A_2 O -0.2814(3) 0.7676(2) 0.3844(2)
O3A O -0.1465(3) 1.6503(2) 0.4897(2)
O3_2 O 0.1465(3) 1.3497(2) 0.5103(2)
O3A_2 O -0.1465(3) 0.6503(2) 0.4897(2)
O4A O -0.0094(3) 1.1375(2) 0.4313(2)
N2A N 0.0733(4) 1.7923(3) 1.3057(3)
N2A_2 N 0.0733(4) 0.7923(3) 0.3057(3)
C3A C -0.2728(4) 1.5289(3) 0.3934(3)
C4A C -0.2339(3) 1.2844(3) 0.3948(2)
N3A N 1.4494(3) 0.9947(3) -0.1856(3)
C5A C -0.2323(4) 1.6564(3) 0.4250(3)
C6A C -0.1468(3) 1.1486(3) 0.4221(2)
C7A C -0.1906(4) 1.4031(3) 0.4169(3)
H3A H -0.1068 1.3981 0.4473
C8A C 0.0456(6) 1.6061(4) 0.9346(4)
H4A H 0.0752 1.6781 0.8897
C9A C -0.3604(4) 1.2939(3) 0.3497(3)
H5A H -0.3929 1.2158 0.3377
C10A C -0.4385(4) 1.4194(3) 0.3224(3)
H6A H -0.5204 1.4246 0.2899
N4A N 0.2220(5) 1.6780(4) 1.1299(3)
C11A C 1.5219(4) 1.0049(3) -0.3045(3)
H7A H 1.4835 1.0738 -0.3470
C12A C -0.3940(4) 1.5362(3) 0.3439(3)
H8A H -0.4455 1.6199 0.3252
C13A C 0.1339(5) 1.5466(5) 1.0035(3)
N5A N 1.5372(4) 0.8811(3) -0.1532(3)
C14A C 0.2366(5) 1.7868(5) 1.2723(4)
H9A H 0.2780 1.8282 1.3207
C15A C 1.0821(5) 0.9998(4) -0.1241(3)
H10A H 1.1368 0.9994 -0.2079
C16A C 1.1509(4) 1.0383(4) -0.0453(3)
C17A C 1.6588(4) 0.8307(4) -0.2573(3)
H11A H 1.7409 0.7511 -0.2646
C18A C 1.3077(5) 1.0904(4) -0.0931(4)
H12A H 1.3389 1.1086 -0.0253
H13A H 1.2833 1.1761 -0.1280
N6A N 0.3333(4) 1.7185(5) 1.1661(4)
C19A C 0.0698(4) 1.7231(4) 1.2129(3)
H14A H -0.0263 1.7081 1.2066
C20A C 0.2733(6) 1.6013(5) 1.0113(4)
H15A H 0.3050 1.6607 0.9467
H16A H 0.3697 1.5261 1.0000
loop_
_geom_bond_atom_site_label_1
_geom_bond_atom_site_label_2
_geom_bond_site_symmetry_1
_geom_bond_site_symmetry_2
C1 H1 1_555 1_555
C2 H2 1_555 1_555
Co1 O1 1_555 1_555
O1 C6 1_555 1_555
N1 Co1 1_555 1_555
O2 C5 1_555 1_555
O3 C5 1_555 1_555
O4 C6 1_555 1_555
N2 Co1 1_555 1_555
C3 C5 1_555 1_555
C4 C6 1_555 1_555
N3 C11 1_555 1_555
C7 C3 1_555 1_555
H3 C7 1_555 1_555
C8 H4 1_555 1_555
C9 C4 1_555 1_555
H5 C9 1_555 1_555
C10 C9 1_555 1_555
H6 C10 1_555 1_555
N4 N6 1_555 1_555
C11 N1 1_555 1_555
H7 C11 1_555 1_555
C12 C3 1_555 1_555
H8 C12 1_555 1_555
C13 C1 1_555 1_555
N5 N3 1_555 1_555
C14 N2 1_555 1_555
H9 C14 1_555 1_555
C15 H10 1_555 1_555
C16 C2 1_555 1_555
C17 N1 1_555 1_555
H11 C17 1_555 1_555
C18 N3 1_555 1_555
H12 C18 1_555 1_555
H13 C18 1_555 1_555
N6 C14 1_555 1_555
C19 N2 1_555 1_555
H14 C19 1_555 1_555
C20 N4 1_555 1_555
H15 C20 1_555 1_555
H16 C20 1_555 1_555
C1A C8 1_555 1_555
H1A C1A 1_555 1_555
C2A C15 1_555 1_555
H2A C2A 1_555 1_555
Co1A O4 1_555 1_555
Co1_2 O2 1_555 1_555
Co1A_2 O2A 1_555 1_555
Co1A_3 N2A 1_555 1_555
Co1A_4 N1A 1_555 1_555
O1A Co1A 1_555 1_555
N1A C11A 1_555 1_555
N1A_2 Co1A 1_555 1_555
O2A C5A 1_555 1_555
O2_2 Co1 1_555 1_555
O2A_2 Co1A 1_555 1_555
O3A Co1A_2 1_555 1_555
O3_2 Co1 1_555 1_555
O3A_2 Co1A 1_555 1_555
O4A Co1 1_555 1_555
N2A C14A 1_555 1_555
N2A_2 Co1A 1_555 1_555
C3A C5A 1_555 1_555
C4A C6A 1_555 1_555
N3A C11A 1_555 1_555
C5A O3A 1_555 1_555
C6A O1A 1_555 1_555
C7A C3A 1_555 1_555
H3A C7A 1_555 1_555
C8A C1 1_555 1_555
H4A C8A 1_555 1_555
C9A C4A 1_555 1_555
H5A C9A 1_555 1_555
C10A C9A 1_555 1_555
H6A C10A 1_555 1_555
N4A N6A 1_555 1_555
C11A H7A 1_555 1_555
C12A C3A 1_555 1_555
H8A C12A 1_555 1_555
C13A C1A 1_555 1_555
N5A N3A 1_555 1_555
C14A H9A 1_555 1_555
C15A C2 1_555 1_555
H10A C15A 1_555 1_555
C16A C2A 1_555 1_555
C17A N1A 1_555 1_555
H11A C17A 1_555 1_555
C18A N3A 1_555 1_555
H12A C18A 1_555 1_555
H13A C18A 1_555 1_555
N6A C14A 1_555 1_555
C19A N2A 1_555 1_555
H14A C19A 1_555 1_555
C20A N4A 1_555 1_555
H15A C20A 1_555 1_555
H16A C20A 1_555 1_555
O3 Co1_2 1_555 1_555
C4 C7 1_555 1_555
C8 C13 1_555 1_555
C10 C12 1_555 1_555
N4 C19 1_555 1_555
C13 C20 1_555 1_555
N5 C17 1_555 1_555
C15 C16 1_555 1_555
C16 C18 1_555 1_555
O4A C6A 1_555 1_555
C4A C7A 1_555 1_555
C8A C13A 1_555 1_555
C10A C12A 1_555 1_555
N4A C19A 1_555 1_555
C13A C20A 1_555 1_555
N5A C17A 1_555 1_555
C15A C16A 1_555 1_555
C16A C18A 1_555 1_555

#END
