
#######################################################################
#
#                 Cambridge Crystallographic Data Centre
#                                CCDC 
#
#######################################################################
#
# If this CIF has been generated from an entry in the Cambridge 
# Structural Database, then it will include bibliographic, chemical, 
# crystal, experimental, refinement or atomic coordinate data resulting 
# from the CCDC's data processing and validation procedures.
#
#######################################################################

data_AWEZIM
_symmetry_cell_setting           monoclinic
_symmetry_space_group_name_H-M   'C 2/c'
_symmetry_Int_Tables_number      15
_space_group_name_Hall           '-C 2yn'
loop_
_symmetry_equiv_pos_site_id
_symmetry_equiv_pos_as_xyz
1 x,y,z
2 -x,y,1/2-z
3 1/2+x,1/2+y,z
4 1/2-x,1/2+y,1/2-z
5 -x,-y,-z
6 x,-y,1/2+z
7 1/2-x,1/2-y,-z
8 1/2+x,1/2-y,1/2+z
_cell_length_a                   19.973(2)
_cell_length_b                   38.081(4)
_cell_length_c                   24.667(5)
_cell_angle_alpha                90
_cell_angle_beta                 109.3100(10)
_cell_angle_gamma                90
_cell_volume                     17706.1
loop_
_atom_site_label
_atom_site_type_symbol
_atom_site_fract_x
_atom_site_fract_y
_atom_site_fract_z
Cu2 Cu -0.46142(3) -0.127448(15) 0.16734(3)
Cu3 Cu 0.09384(3) -0.254860(16) 0.00276(3)
Cu4 Cu 0.00542(3) -0.328560(15) 0.06696(3)
Cu5 Cu -0.20469(3) -0.217542(16) 0.11741(3)
Cu6 Cu 0.31518(3) -0.205910(17) 0.11303(3)
Cu7 Cu 0.05182(3) -0.474150(15) 0.13167(3)
Cu8 Cu 0.15094(3) -0.330880(15) 0.08797(3)
Cu9 Cu -0.39044(3) -0.093686(15) 0.25358(3)
Cl1 Cl 0.12501(6) -0.31848(3) -0.00804(5)
C1 C -0.0236(3) -0.55554(13) 0.1184(2)
C2 C 0.0268(3) -0.54963(12) 0.1489(2)
C3 C -0.3182(3) -0.16611(14) 0.1328(2)
C5 C -0.4070(3) -0.26739(14) 0.2287(2)
C7 C -0.0728(3) -0.16423(15) 0.0735(3)
C8 C 0.2176(3) -0.26504(14) 0.1138(2)
C9 C -0.3323(3) -0.14650(13) 0.3131(2)
C10 C -0.3613(3) -0.30330(16) 0.2875(2)
C11 C -0.1069(3) -0.27564(13) 0.0954(2)
C13 C -0.0518(3) -0.22878(14) 0.0566(2)
C16 C 0.0128(3) -0.40712(13) 0.0901(2)
C17 C -0.0131(3) -0.58424(14) 0.0803(2)
C18 C 0.1414(4) -0.45445(16) 0.2761(3)
C21 C 0.3009(3) -0.35735(15) 0.0207(3)
C22 C 0.1085(3) -0.40495(13) 0.1124(2)
C23 C 0.3126(3) -0.32225(13) 0.0005(2)
C24 C -0.0370(3) -0.19219(13) 0.0389(2)
C25 C 0.1994(3) -0.51736(16) 0.2214(3)
C26 C -0.0441(3) -0.42132(14) 0.0727(2)
C27 C 0.1331(3) -0.50575(14) 0.2200(2)
C28 C 0.2815(3) -0.29390(13) 0.0405(2)
C30 C -0.5710(3) -0.17413(13) 0.1422(2)
C33 C 0.1731(3) -0.41557(13) 0.1242(2)
C34 C -0.0865(3) -0.53714(15) 0.1321(3)
C36 C -0.3510(3) -0.21072(13) 0.1898(2)
C37 C -0.1293(3) -0.57522(18) 0.0712(3)
C38 C -0.3516(3) -0.24338(13) 0.2208(2)
C40 C -0.1000(3) -0.40063(17) 0.0679(3)
C41 C -0.0660(4) -0.59407(15) 0.0584(3)
C42 C -0.4119(3) -0.29661(14) 0.2617(2)
C44 C 0.1993(3) -0.39479(18) 0.1607(3)
C48 C 0.1065(3) -0.47403(14) 0.2458(2)
C50 C -0.0573(3) -0.12977(15) 0.0568(3)
C51 C -0.2997(3) -0.25060(16) 0.2443(3)
C52 C -0.1408(4) -0.54718(18) 0.1086(3)
C55 C -0.0970(4) -0.47068(18) 0.0385(3)
C58 C 0.2347(4) -0.49787(17) 0.2504(3)
C61 C -0.3043(3) -0.28030(17) 0.2784(3)
C64 C -0.0437(4) -0.45662(17) 0.0561(3)
C65 C 0.3003(3) -0.4342(2) 0.1392(4)
C68 C 0.3361(3) -0.38490(16) -0.0127(3)
C69 C 0.2653(4) -0.40572(19) 0.1674(3)
C70 C 0.2102(3) -0.44453(16) 0.0971(3)
C73 C 0.2741(4) -0.45507(19) 0.1045(3)
C74 C 0.2055(4) -0.46701(18) 0.2792(3)
C76 C -0.1531(4) -0.4142(2) 0.0512(4)
C77 C -0.1524(4) -0.4512(2) 0.0373(4)
N1 N -0.0052(2) -0.25414(11) 0.04651(19)
N2 N 0.3159(2) -0.26354(11) 0.04173(19)
N3 N 0.2746(2) -0.24532(11) 0.08924(19)
N4 N 0.2191(2) -0.29542(11) 0.08466(18)
N5 N -0.0405(2) -0.28453(10) 0.07103(18)
N7 N 0.0314(2) -0.37328(11) 0.0885(2)
N8 N -0.5527(2) -0.14745(11) 0.16912(18)
N9 N -0.2935(2) -0.19694(11) 0.14799(19)
N10 N -0.4066(2) -0.18979(10) 0.19962(18)
N11 N -0.1189(2) -0.24099(11) 0.08698(19)
N12 N -0.3863(2) -0.16092(11) 0.16360(19)
N13 N 0.0594(2) -0.42770(11) 0.1064(2)
N14 N 0.0939(2) -0.37188(11) 0.1026(2)
N15 N 0.0522(2) -0.51915(11) 0.16153(19)
N16 N -0.4507(2) -0.07726(11) 0.1719(2)
N17 N -0.3849(2) -0.12972(11) 0.30306(19)
N18 N -0.6420(2) -0.17428(11) 0.15093(19)
N19 N 0.2413(5) -0.44751(18) 0.3105(4)
N22 N -0.3662(3) -0.33318(17) 0.3227(3)
N24 N -0.1807(4) -0.5845(2) 0.0465(3)
N27 N 0.3683(3) -0.4428(2) 0.1434(4)
N29 N -0.2104(7) -0.4661(3) 0.0263(6)
Cu6_2 Cu -0.68482(3) -0.205910(17) 0.11303(3)
C1B C -0.5236(3) -0.05554(13) 0.1184(2)
C2B C -0.4732(3) -0.04963(12) 0.1489(2)
C9A C -0.6677(3) -0.14650(13) 0.1869(2)
N8A N -0.4473(2) -0.14745(11) 0.33088(18)
N16B N 0.0493(2) -0.57726(11) 0.1719(2)
N17A N -0.6151(2) -0.12972(11) 0.19694(19)
N18_2 N 0.3580(2) -0.17428(11) 0.15093(19)
N18A N -0.3580(2) -0.17428(11) 0.34907(19)
Cl2 Cl -0.9758(4) 0.1220(3) 0.1603(3)
Cl3 Cl -0.1853(6) 0.0316(3) -0.0680(6)
O1 O -0.05542(17) -0.02406(8) 0.09866(16)
O2 O -0.0937(4) -0.0030(2) -0.0139(4)
O3 O -0.1392(9) 0.0103(5) 0.3276(10)
O4 O -1.0000 0.1078(10) 0.2500
C4 C -0.2606(3) -0.13382(14) 0.2890(2)
C54 C -0.2357(4) -0.12332(19) 0.2302(3)
C67 C -0.2189(4) -0.1266(2) 0.3221(4)
C71 C -0.1746(4) -0.1062(2) 0.2066(4)
C75 C -0.1529(5) -0.1095(3) 0.2966(4)
C78 C -0.1289(5) -0.0996(3) 0.2393(4)
N28 N -0.0643(4) -0.0808(3) 0.2154(5)
C12 C -0.5454(3) -0.18992(15) 0.4308(2)
C43 C -0.5975(3) -0.21458(17) 0.4549(3)
C66 C -0.5882(4) -0.24902(17) 0.4380(3)
N23 N -0.6433(4) -0.2738(2) 0.4599(3)
C14 C -0.4811(3) -0.20023(14) 0.3900(2)
C45 C -0.5235(4) -0.25971(16) 0.3974(3)
C62 C -0.4717(3) -0.23534(14) 0.3746(2)
C15 C -0.6559(3) 0.17303(15) 0.1599(2)
C20 C -0.7832(3) 0.17643(15) 0.1379(3)
C31 C -0.7303(3) 0.20115(14) 0.1146(2)
C39 C -0.6652(3) 0.19934(13) 0.1241(2)
C56 C -0.7081(3) 0.14880(15) 0.1833(3)
C57 C -0.7722(3) 0.14952(14) 0.1726(2)
N26 N -0.8257(3) 0.12440(14) 0.1949(3)
C19 C -0.4852(3) 0.31638(14) -0.0135(3)
C35 C -0.4703(3) 0.35098(14) -0.0305(3)
C60 C -0.5053(3) 0.37867(15) 0.0045(3)
N20 N -0.4885(3) 0.41347(14) -0.0114(3)
C29 C -0.2747(3) -0.14216(14) 0.0878(2)
C49 C -0.2680(3) -0.10708(15) 0.0983(3)
C32 C -0.1437(3) 0.18382(15) -0.0546(3)
C47 C -0.1071(4) 0.15548(18) -0.0888(3)
C53 C -0.1138(4) 0.12074(18) -0.0670(3)
N25 N -0.0766(3) 0.09285(15) -0.0977(3)
C46 C -0.1881(4) -0.09885(17) 0.0019(3)
C59 C -0.1946(4) -0.13383(17) -0.0090(3)
C63 C -0.2386(3) -0.15561(15) 0.0332(2)
N21 N -0.1445(3) -0.07606(17) -0.0423(3)
C72 C -0.2245(4) -0.08471(16) 0.0555(3)
C79 C -0.3378(3) 0.24525(16) 0.1683(2)
C80 C -0.3771(3) 0.22027(18) 0.2058(3)
C81 C -0.3454(3) 0.28023(17) 0.1851(3)
C82 C -0.4256(3) 0.2302(2) 0.2590(3)
C83 C -0.4324(3) 0.2653(2) 0.2758(3)
C84 C -0.3915(3) 0.2905(2) 0.2381(3)
N30 N -0.4804(3) 0.2742(2) 0.3295(2)
Cu1 Cu -0.5000 -0.19128(2) 0.2500
C6? C -0.4075(3) -0.02869(13) 0.1945(2)
N6? N -0.4079(2) -0.06289(11) 0.20112(18)
loop_
_geom_bond_atom_site_label_1
_geom_bond_atom_site_label_2
_geom_bond_site_symmetry_1
_geom_bond_site_symmetry_2
Cu2 Cu9 1_555 1_555
Cu3 Cl1 1_555 1_555
Cu4 N5 1_555 1_555
Cu5 N9 1_555 1_555
Cu6 N3 1_555 1_555
Cu7 N13 1_555 1_555
Cu8 Cl1 1_555 1_555
Cu9 N16 1_555 1_555
C1 C2 1_555 1_555
C2 N15 1_555 1_555
C3 N9 1_555 1_555
C4 C54 1_555 1_555
C5 C38 1_555 1_555
C7 C24 1_555 1_555
C8 N3 1_555 1_555
C9 N17 1_555 1_555
C10 C42 1_555 1_555
C11 N5 1_555 1_555
C12 C43 1_555 1_555
C13 C24 1_555 1_555
C14 C62 1_555 1_555
C15 C39 1_555 1_555
C16 C26 1_555 1_555
C17 C1 1_555 1_555
C18 C48 1_555 1_555
C19 C35 1_555 1_555
C20 C31 1_555 1_555
C21 C23 1_555 1_555
C22 C33 1_555 1_555
C23 C28 1_555 1_555
C25 C27 1_555 1_555
C26 C40 1_555 1_555
C27 C48 1_555 1_555
C28 N2 1_555 1_555
C29 C49 1_555 1_555
C30 N8 1_555 1_555
C31 C39 1_555 1_555
C32 C47 1_555 1_555
C33 C44 1_555 1_555
C34 C1 1_555 1_555
C35 C60 1_555 1_555
C36 C38 1_555 1_555
C37 C41 1_555 1_555
C38 C51 1_555 1_555
C40 C76 1_555 1_555
C41 C17 1_555 1_555
C42 C5 1_555 1_555
C43 C66 1_555 1_555
C44 C69 1_555 1_555
C45 C62 1_555 1_555
C46 C59 1_555 1_555
C47 C53 1_555 1_555
C50 C7 1_555 1_555
C51 C61 1_555 1_555
C52 C34 1_555 1_555
C53 N25 1_555 1_555
C54 C71 1_555 1_555
C55 C64 1_555 1_555
C56 C15 1_555 1_555
C57 C20 1_555 1_555
C58 C25 1_555 1_555
C59 C63 1_555 1_555
C60 N20 1_555 1_555
C61 C10 1_555 1_555
C64 C26 1_555 1_555
C65 C69 1_555 1_555
C66 N23 1_555 1_555
C67 C4 1_555 1_555
C68 C21 1_555 1_555
C70 C33 1_555 1_555
C71 C78 1_555 1_555
C73 C65 1_555 1_555
C74 C18 1_555 1_555
C75 C67 1_555 1_555
C76 C77 1_555 1_555
C77 C55 1_555 1_555
C78 C75 1_555 1_555
C79 C80 1_555 1_555
C81 C79 1_555 1_555
C82 C83 1_555 1_555
C83 C84 1_555 1_555
N1 C13 1_555 1_555
N2 N3 1_555 1_555
N4 Cu8 1_555 1_555
N5 N1 1_555 1_555
N7 Cu4 1_555 1_555
N8 Cu2 1_555 1_555
N9 C36 1_555 1_555
N10 C36 1_555 1_555
N11 Cu5 1_555 1_555
N12 Cu2 1_555 1_555
N13 C16 1_555 1_555
N14 Cu8 1_555 1_555
N15 Cu7 1_555 1_555
N16 Cu2 1_555 1_555
N17 Cu9 1_555 1_555
N18 C30 1_555 1_555
N19 C74 1_555 1_555
N21 C46 1_555 1_555
N22 C10 1_555 1_555
N24 C37 1_555 1_555
N26 C57 1_555 1_555
N27 C65 1_555 1_555
N28 C78 1_555 1_555
N29 C77 1_555 1_555
Cu6_2 N18 1_555 1_555
C1B N16 1_555 1_555
C2B N16 1_555 1_555
C9A N18 1_555 1_555
N8A N17 1_555 1_555
N16B C1 1_555 1_555
N17A N8 1_555 1_555
N18_2 Cu6 1_555 1_555
N18A C9 1_555 1_555
C2 N16B 1_555 1_555
C3 N12 1_555 1_555
C8 N4 1_555 1_555
C11 N11 1_555 1_555
C13 N11 1_555 1_555
C16 N7 1_555 1_555
C22 N13 1_555 1_555
C22 N14 1_555 1_555
C27 N15 1_555 1_555
C37 C52 1_555 1_555
C56 C57 1_555 1_555
C58 C74 1_555 1_555
C70 C73 1_555 1_555
N7 N14 1_555 1_555
N10 N12 1_555 1_555
C1B C2B 1_555 1_555
C9A N17A 1_555 1_555

#END
