
#######################################################################
#
#                 Cambridge Crystallographic Data Centre
#                                CCDC 
#
#######################################################################
#
# If this CIF has been generated from an entry in the Cambridge 
# Structural Database, then it will include bibliographic, chemical, 
# crystal, experimental, refinement or atomic coordinate data resulting 
# from the CCDC's data processing and validation procedures.
#
#######################################################################

data_AWIDIU
_symmetry_cell_setting           monoclinic
_symmetry_space_group_name_H-M   'P 21/c'
_symmetry_Int_Tables_number      14
_space_group_name_Hall           '-P 2ybc'
loop_
_symmetry_equiv_pos_site_id
_symmetry_equiv_pos_as_xyz
1 x,y,z
2 -x,1/2+y,1/2-z
3 -x,-y,-z
4 x,1/2-y,1/2+z
_cell_length_a                   10.292(2)
_cell_length_b                   11.250(3)
_cell_length_c                   13.339(3)
_cell_angle_alpha                90
_cell_angle_beta                 90.644(3)
_cell_angle_gamma                90
_cell_volume                     1544.36
loop_
_atom_site_label
_atom_site_type_symbol
_atom_site_fract_x
_atom_site_fract_y
_atom_site_fract_z
C1 C 0.6988(3) 0.3327(2) 0.79722(18)
C2 C 0.5665(3) 0.3816(2) 0.82080(18)
C3 C 0.4547(3) 0.3118(3) 0.81118(18)
H1 H 0.4614 0.2339 0.7885
C4 C 0.3332(3) 0.3581(2) 0.83545(18)
C5 C 0.3245(3) 0.4724(2) 0.87323(19)
H2 H 0.2446 0.5036 0.8916
C6 C 0.4364(3) 0.5394(2) 0.88330(18)
C7 C 0.5570(3) 0.4974(2) 0.85558(19)
H3 H 0.6301 0.5458 0.8601
C8 C 0.2117(3) 0.2854(3) 0.8158(2)
C9 C 0.9551(3) 0.2301(3) 1.01494(19)
H4 H 0.9976 0.3025 1.0077
C10 C 0.8673(3) 0.0817(3) 1.08156(19)
H5 H 0.8351 0.0275 1.1277
C11 C 0.7925(3) -0.0242(3) 0.9249(2)
H6 H 0.8052 -0.0998 0.9586
H7 H 0.8315 -0.0299 0.8592
C12 C 0.6489(3) -0.0015(3) 0.9123(2)
H8 H 0.6132 -0.0602 0.8664
H9 H 0.6368 0.0761 0.8820
C13 C 0.5726(3) -0.0060(3) 1.00951(19)
H10 H 0.5899 -0.0809 1.0433
H11 H 0.6016 0.0577 1.0533
Cd1 Cd 0.934937(19) 0.232936(17) 0.766421(13)
N1 N 0.8593(2) 0.0692(2) 0.98266(15)
N2 N 0.9162(2) 0.1647(2) 0.93785(15)
N3 N 0.9276(2) 0.1822(2) 1.10526(15)
N4 N 0.4279(3) 0.6597(2) 0.92699(16)
O1 O 0.79671(18) 0.39733(18) 0.81099(14)
O2 O 0.7075(2) 0.22703(17) 0.76492(15)
O3 O 0.2195(2) 0.1788(2) 0.7966(2)
O4 O 0.10397(19) 0.34196(18) 0.81974(15)
O5 O 0.3245(2) 0.6908(2) 0.96308(16)
O6 O 0.5260(3) 0.7215(2) 0.9266(2)
O7 O 0.9971(2) 0.06259(18) 0.69136(16)
H12 H 1.0768 0.0443 0.6986
H13 H 0.9523 -0.0003 0.6863
C1B C 0.3012(3) -0.3327(2) 1.20278(18)
C2B C 0.4335(3) -0.3816(2) 1.17920(18)
C3B C 0.5453(3) -0.3118(3) 1.18882(18)
H1B H 0.5386 -0.2339 1.2115
C4B C 0.6668(3) -0.3581(2) 1.16455(18)
C5B C 0.6755(3) -0.4724(2) 1.12677(19)
H2B H 0.7554 -0.5036 1.1084
C6B C 0.5636(3) -0.5394(2) 1.11670(18)
C7B C 0.4430(3) -0.4974(2) 1.14442(19)
H3B H 0.3699 -0.5458 1.1399
C8B C 0.7883(3) -0.2854(3) 1.1842(2)
C9B C 0.0449(3) -0.2301(3) 0.98506(19)
H4B H 0.0024 -0.3025 0.9923
C10B C 0.1327(3) -0.0817(3) 0.91844(19)
H5B H 0.1649 -0.0275 0.8723
C11B C 0.2075(3) 0.0242(3) 1.0751(2)
H6B H 0.1948 0.0998 1.0414
H7B H 0.1685 0.0299 1.1408
C12B C 0.3511(3) 0.0015(3) 1.0877(2)
H8B H 0.3868 0.0602 1.1336
H9B H 0.3632 -0.0761 1.1180
C13B C 0.4274(3) 0.0060(3) 0.99049(19)
H10B H 0.4101 0.0809 0.9567
H11B H 0.3984 -0.0577 0.9467
Cd1B Cd 0.065063(19) -0.232936(17) 1.233579(13)
Cd1_2 Cd -0.065063(19) 0.232936(17) 0.766421(13)
Cd1A Cd 0.065063(19) -0.267064(17) 0.733579(13)
Cd1B_2 Cd 1.065063(19) -0.232936(17) 1.233579(13)
Cd1C Cd 0.934937(19) 0.267064(17) 1.266421(13)
N1B N 0.1407(2) -0.0692(2) 1.01734(15)
N2B N 0.0838(2) -0.1647(2) 1.06215(15)
N3B N 0.0724(2) -0.1822(2) 0.89474(15)
N3A N 0.0724(2) -0.3178(2) 1.39474(15)
N3C N 0.9276(2) 0.3178(2) 0.60526(15)
N4B N 0.5721(3) -0.6597(2) 1.07301(16)
O1B O 0.20329(18) -0.39733(18) 1.18901(14)
O2B O 0.2925(2) -0.22703(17) 1.23508(15)
O3B O 0.7805(2) -0.1788(2) 1.2034(2)
O4B O 0.89603(19) -0.34196(18) 1.18026(15)
O4_2 O 1.10397(19) 0.34196(18) 0.81974(15)
O4B_2 O -0.10397(19) -0.34196(18) 1.18026(15)
O5B O 0.6755(2) -0.6908(2) 1.03692(16)
O6B O 0.4740(3) -0.7215(2) 1.0734(2)
O7B O 0.0029(2) -0.06259(18) 1.30864(16)
H12B H -0.0768 -0.0443 1.3014
H13B H 0.0477 0.0003 1.3137
loop_
_geom_bond_atom_site_label_1
_geom_bond_atom_site_label_2
_geom_bond_site_symmetry_1
_geom_bond_site_symmetry_2
C1 C2 1_555 1_555
C2 C3 1_555 1_555
C3 H1 1_555 1_555
C4 C3 1_555 1_555
C5 C4 1_555 1_555
H2 C5 1_555 1_555
C6 C5 1_555 1_555
C7 C2 1_555 1_555
H3 C7 1_555 1_555
C8 C4 1_555 1_555
C9 H4 1_555 1_555
C10 H5 1_555 1_555
C11 H6 1_555 1_555
H7 C11 1_555 1_555
C12 C11 1_555 1_555
H8 C12 1_555 1_555
H9 C12 1_555 1_555
C13 C12 1_555 1_555
H10 C13 1_555 1_555
H11 C13 1_555 1_555
Cd1 N2 1_555 1_555
N1 C10 1_555 1_555
N2 C9 1_555 1_555
N3 C9 1_555 1_555
N4 C6 1_555 1_555
O1 C1 1_555 1_555
O2 C1 1_555 1_555
O3 C8 1_555 1_555
O4 C8 1_555 1_555
O5 N4 1_555 1_555
O6 N4 1_555 1_555
O7 Cd1 1_555 1_555
H12 O7 1_555 1_555
H13 O7 1_555 1_555
C1B C2B 1_555 1_555
C2B C3B 1_555 1_555
C3B H1B 1_555 1_555
C4B C3B 1_555 1_555
C5B C4B 1_555 1_555
H2B C5B 1_555 1_555
C6B C5B 1_555 1_555
C7B C2B 1_555 1_555
H3B C7B 1_555 1_555
C8B C4B 1_555 1_555
C9B H4B 1_555 1_555
C10B H5B 1_555 1_555
C11B H6B 1_555 1_555
H7B C11B 1_555 1_555
C12B C11B 1_555 1_555
H8B C12B 1_555 1_555
H9B C12B 1_555 1_555
C13B C13 1_555 1_555
H10B C13B 1_555 1_555
H11B C13B 1_555 1_555
Cd1B N2B 1_555 1_555
Cd1_2 O4 1_555 1_555
Cd1A N3B 1_555 1_555
Cd1B_2 O4B 1_555 1_555
Cd1C N3 1_555 1_555
N1B C10B 1_555 1_555
N2B C9B 1_555 1_555
N3B C9B 1_555 1_555
N3A Cd1B 1_555 1_555
N3C Cd1 1_555 1_555
N4B C6B 1_555 1_555
O1B C1B 1_555 1_555
O2B C1B 1_555 1_555
O3B C8B 1_555 1_555
O4B C8B 1_555 1_555
O4_2 Cd1 1_555 1_555
O4B_2 Cd1B 1_555 1_555
O5B N4B 1_555 1_555
O6B N4B 1_555 1_555
O7B Cd1B 1_555 1_555
H12B O7B 1_555 1_555
H13B O7B 1_555 1_555
C6 C7 1_555 1_555
C10 N3 1_555 1_555
C11 N1 1_555 1_555
Cd1 O1 1_555 1_555
Cd1 O2 1_555 1_555
N1 N2 1_555 1_555
C6B C7B 1_555 1_555
C10B N3B 1_555 1_555
C11B N1B 1_555 1_555
C12B C13B 1_555 1_555
Cd1B O1B 1_555 1_555
Cd1B O2B 1_555 1_555
N1B N2B 1_555 1_555

#END
