
#######################################################################
#
#                 Cambridge Crystallographic Data Centre
#                                CCDC 
#
#######################################################################
#
# If this CIF has been generated from an entry in the Cambridge 
# Structural Database, then it will include bibliographic, chemical, 
# crystal, experimental, refinement or atomic coordinate data resulting 
# from the CCDC's data processing and validation procedures.
#
#######################################################################

data_AWIFUH
_symmetry_cell_setting           triclinic
_symmetry_space_group_name_H-M   'P -1'
_symmetry_Int_Tables_number      2
_space_group_name_Hall           '-P 1'
loop_
_symmetry_equiv_pos_site_id
_symmetry_equiv_pos_as_xyz
1 x,y,z
2 -x,-y,-z
_cell_length_a                   9.2950(11)
_cell_length_b                   10.6630(13)
_cell_length_c                   11.1282(13)
_cell_angle_alpha                62.730(2)
_cell_angle_beta                 88.252(2)
_cell_angle_gamma                70.912(2)
_cell_volume                     917.061
loop_
_atom_site_label
_atom_site_type_symbol
_atom_site_fract_x
_atom_site_fract_y
_atom_site_fract_z
O5 O 0.4525(6) 0.3280(6) 0.2211(5)
H9 H 0.538(7) 0.270(9) 0.202(10)
H10 H 0.486(7) 0.399(7) 0.202(6)
Cu1 Cu 0.62511(7) 0.84765(7) 0.99221(6)
Br1 Br 0.9789(3) 0.8580(4) 1.2998(3)
Br2 Br 0.8131(4) 0.5742(4) 1.4684(3)
O1 O 0.5977(4) 1.0562(4) 1.0277(4)
O2 O 0.6800(5) 1.1207(7) 1.1693(6)
O3 O 0.6281(4) 0.7312(4) 1.1890(4)
O4 O 0.5405(6) 0.5871(5) 1.1449(5)
N1 N 0.8510(5) 0.7344(5) 1.0089(4)
N2 N 0.6476(5) 0.9406(5) 0.7926(4)
C1 C 0.9499(6) 0.6344(6) 1.1217(6)
C2 C 1.1032(6) 0.5582(7) 1.1155(7)
C3 C 1.1527(6) 0.5885(7) 0.9922(7)
C4 C 1.0497(6) 0.6935(6) 0.8727(6)
C5 C 1.0870(7) 0.7303(8) 0.7379(7)
C6 C 0.9811(8) 0.8307(8) 0.6278(7)
C7 C 0.8285(7) 0.9111(7) 0.6369(6)
C8 C 0.7156(8) 1.0229(7) 0.5286(6)
C9 C 0.5756(8) 1.0935(7) 0.5527(6)
C10 C 0.5430(7) 1.0498(6) 0.6859(6)
C11 C 0.7874(6) 0.8735(6) 0.7695(5)
C12 C 0.8991(5) 0.7632(5) 0.8862(5)
C13 C 0.6998(6) 1.0754(6) 1.0844(6)
C14 C 0.8562(6) 1.0330(6) 1.0432(6)
C15 C 0.9886(6) 0.9427(6) 1.1391(6)
C16 C 0.8688(6) 1.0887(6) 0.9054(6)
C17 C 0.5724(7) 0.6296(6) 1.2223(6)
C18 C 0.5382(7) 0.5613(6) 1.3677(5)
C19 C 0.6321(7) 0.5377(7) 1.4768(6)
C20 C 0.4067(8) 0.5243(7) 1.3927(6)
H1 H 0.891(9) 0.617(9) 1.199(8)
H2 H 1.169(8) 0.481(8) 1.216(7)
H3 H 1.259(8) 0.540(7) 1.001(7)
H4 H 1.182(10) 0.660(9) 0.745(8)
H5 H 1.008(9) 0.869(9) 0.541(4)
H6 H 0.733(8) 1.056(7) 0.439(3)
H7 H 0.497(6) 1.161(7) 0.481(5)
H8 H 0.441(7) 1.097(7) 0.696(6)
H11 H 0.792(8) 1.154(8) 0.831(6)
H12 H 0.344(5) 0.520(6) 1.334(4)
O1A O 0.4023(4) 0.9438(4) 0.9723(4)
Cu1A Cu 0.37489(7) 1.15235(7) 1.00779(6)
C16A C 1.1312(6) 0.9113(6) 1.0946(6)
C15A C 1.0114(6) 1.0573(6) 0.8609(6)
C20A C 0.5933(8) 0.4757(7) 1.6073(6)
C19A C 0.3679(7) 0.4623(7) 1.5232(6)
loop_
_geom_bond_atom_site_label_1
_geom_bond_atom_site_label_2
_geom_bond_site_symmetry_1
_geom_bond_site_symmetry_2
Cu1 O1 1_555 1_555
Br1 C15 1_555 1_555
Br2 C19 1_555 1_555
O1 C13 1_555 1_555
O2 C13 1_555 1_555
O3 Cu1 1_555 1_555
O4 C17 1_555 1_555
O5 H9 1_555 1_555
N1 Cu1 1_555 1_555
N2 Cu1 1_555 1_555
C1 N1 1_555 1_555
C2 C1 1_555 1_555
C3 C2 1_555 1_555
C4 C3 1_555 1_555
C5 C4 1_555 1_555
C6 C5 1_555 1_555
C7 C6 1_555 1_555
C8 C7 1_555 1_555
C9 C8 1_555 1_555
C10 N2 1_555 1_555
C11 N2 1_555 1_555
C12 N1 1_555 1_555
C13 C14 1_555 1_555
C14 C15 1_555 1_555
C15 C16A 1_555 1_555
C16 C14 1_555 1_555
C17 O3 1_555 1_555
C18 C17 1_555 1_555
C19 C18 1_555 1_555
C20 C18 1_555 1_555
H1 C1 1_555 1_555
H2 C2 1_555 1_555
H3 C3 1_555 1_555
H4 C5 1_555 1_555
H5 C6 1_555 1_555
H6 C8 1_555 1_555
H7 C9 1_555 1_555
H8 C10 1_555 1_555
H10 O5 1_555 1_555
H11 C16 1_555 1_555
H12 C20 1_555 1_555
O1A Cu1 1_555 1_555
Cu1A O1 1_555 1_555
C15A C16 1_555 1_555
C20A C19 1_555 1_555
C19A C20 1_555 1_555
C4 C12 1_555 1_555
C7 C11 1_555 1_555
C9 C10 1_555 1_555
C11 C12 1_555 1_555
O1A Cu1A 1_555 1_555

#END
