
#######################################################################
#
#                 Cambridge Crystallographic Data Centre
#                                CCDC 
#
#######################################################################
#
# If this CIF has been generated from an entry in the Cambridge 
# Structural Database, then it will include bibliographic, chemical, 
# crystal, experimental, refinement or atomic coordinate data resulting 
# from the CCDC's data processing and validation procedures.
#
#######################################################################

data_AWIQIG
_symmetry_cell_setting           monoclinic
_symmetry_space_group_name_H-M   'C 2/c'
_symmetry_Int_Tables_number      15
_space_group_name_Hall           '-C 2yn'
loop_
_symmetry_equiv_pos_site_id
_symmetry_equiv_pos_as_xyz
1 x,y,z
2 1/2+x,1/2+y,z
3 x,-y,1/2+z
4 1/2+x,1/2-y,1/2+z
5 -x,-y,-z
6 1/2-x,1/2-y,-z
7 -x,y,1/2-z
8 1/2-x,1/2+y,1/2-z
_cell_length_a                   30.435(19)
_cell_length_b                   10.209(6)
_cell_length_c                   13.753(8)
_cell_angle_alpha                90.00
_cell_angle_beta                 107.603(13)
_cell_angle_gamma                90.00
_cell_volume                     4073.11
loop_
_atom_site_label
_atom_site_type_symbol
_atom_site_fract_x
_atom_site_fract_y
_atom_site_fract_z
Tb1 Tb 0.5000 0.08794(9) 0.7500
Fe1 Fe 0.37110(6) 0.11943(16) 0.93048(13)
N1 N 0.3159(3) 0.1000(8) 0.9755(7)
N2 N 0.3235(3) 0.1820(8) 0.8076(6)
N3 N 0.3886(5) 0.4002(13) 1.0110(10)
N4 N 0.3652(4) -0.1565(14) 0.8443(11)
N5 N 0.4521(6) 0.1278(18) 0.8505(16)
N6 N 0.4406(4) -0.0122(15) 0.6203(12)
O1 O 0.4618(4) 0.2757(13) 0.6646(12)
O2 O 0.5313(6) -0.1164(13) 0.6819(12)
C1 C 0.3340(6) 0.2361(12) 0.7250(10)
H1 H 0.3644 0.2401 0.7244
C2 C 0.2991(8) 0.2841(15) 0.6437(12)
H2 H 0.3055 0.3205 0.5874
C3 C 0.2525(8) 0.2762(15) 0.6483(11)
H3 H 0.2282 0.3055 0.5937
C4 C 0.2443(5) 0.2268(12) 0.7311(10)
H4 H 0.2142 0.2245 0.7343
C5 C 0.2796(4) 0.1792(10) 0.8121(8)
C6 C 0.2744(4) 0.1288(10) 0.9074(9)
C7 C 0.2343(4) 0.1086(11) 0.9262(11)
H5 H 0.2066 0.1177 0.8743
C8 C 0.2342(5) 0.0753(13) 1.0199(14)
H6 H 0.2066 0.0708 1.0358
C9 C 0.2754(8) 0.0475(12) 1.0928(11)
H7 H 0.2759 0.0198 1.1575
C10 C 0.3152(6) 0.0611(12) 1.0691(10)
H8 H 0.3430 0.0431 1.1187
C11 C 0.3824(4) 0.2934(14) 0.9821(9)
C12 C 0.3647(4) -0.0535(14) 0.8758(10)
C13 C 0.4191(7) 0.133(2) 0.8790(19)
C14 C 0.4120(6) -0.0513(16) 0.5459(12)
N5F N 0.5479(6) 0.1278(18) 0.6495(16)
C13F C 0.5809(7) 0.133(2) 0.6210(19)
N6F N 0.5594(4) -0.0122(15) 0.8797(12)
C14F C 0.5880(6) -0.0513(16) 0.9541(12)
O1F O 0.5382(4) 0.2757(13) 0.8354(12)
O2F O 0.4687(6) -0.1164(13) 0.8181(12)
Fe1F Fe 0.62890(6) 0.11943(16) 0.56952(13)
N1F N 0.6841(3) 0.1000(8) 0.5245(7)
N2F N 0.6765(3) 0.1820(8) 0.6924(6)
C1F C 0.6660(6) 0.2361(12) 0.7750(10)
H1F H 0.6356 0.2401 0.7756
C2F C 0.7009(8) 0.2841(15) 0.8563(12)
H2F H 0.6945 0.3205 0.9126
C3F C 0.7475(8) 0.2762(15) 0.8517(11)
H3F H 0.7718 0.3055 0.9063
C4F C 0.7557(5) 0.2268(12) 0.7689(10)
H4F H 0.7858 0.2245 0.7657
C5F C 0.7204(4) 0.1792(10) 0.6879(8)
C6F C 0.7256(4) 0.1288(10) 0.5926(9)
C7F C 0.7657(4) 0.1086(11) 0.5738(11)
H5F H 0.7934 0.1177 0.6257
C8F C 0.7658(5) 0.0753(13) 0.4801(14)
H6F H 0.7934 0.0708 0.4642
C9F C 0.7246(8) 0.0475(12) 0.4072(11)
H7F H 0.7241 0.0198 0.3425
C10F C 0.6848(6) 0.0611(12) 0.4309(10)
H8F H 0.6570 0.0431 0.3813
N3F N 0.6114(5) 0.4002(13) 0.4890(10)
C11F C 0.6176(4) 0.2934(14) 0.5179(9)
N4F N 0.6348(4) -0.1565(14) 0.6557(11)
C12F C 0.6353(4) -0.0535(14) 0.6242(10)
C14B C 0.4120(6) 0.0513(16) 1.0459(12)
Fe1B Fe 0.37110(6) -0.11943(16) 0.43048(13)
Fe1D Fe 0.62890(6) -0.11943(16) 1.06952(13)
C14D C 0.5880(6) 0.0513(16) 0.4541(12)
K1 K 0.3823(4) 0.6754(10) 0.0291(9)
O3 O 0.3819(7) 0.625(2) 0.7282(14)
O4 O 0.4455(8) 0.466(2) 0.8420(17)
O5 O 0.4995(8) 0.681(3) 0.561(2)
loop_
_geom_bond_atom_site_label_1
_geom_bond_atom_site_label_2
_geom_bond_site_symmetry_1
_geom_bond_site_symmetry_2
Tb1 N5 1_555 1_555
Fe1 N1 1_555 1_555
N1 C6 1_555 1_555
N2 Fe1 1_555 1_555
N3 C11 1_555 1_555
N4 C12 1_555 1_555
N5 C13 1_555 1_555
N6 Tb1 1_555 1_555
O1 Tb1 1_555 1_555
O2 Tb1 1_555 1_555
C1 N2 1_555 1_555
H1 C1 1_555 1_555
C2 C1 1_555 1_555
H2 C2 1_555 1_555
C3 C2 1_555 1_555
H3 C3 1_555 1_555
C4 C3 1_555 1_555
H4 C4 1_555 1_555
C5 N2 1_555 1_555
C6 C5 1_555 1_555
C7 C6 1_555 1_555
H5 C7 1_555 1_555
C8 C7 1_555 1_555
H6 C8 1_555 1_555
C9 C8 1_555 1_555
H7 C9 1_555 1_555
C10 N1 1_555 1_555
H8 C10 1_555 1_555
C11 Fe1 1_555 1_555
C12 Fe1 1_555 1_555
C13 Fe1 1_555 1_555
C14 N6 1_555 1_555
N5F Tb1 1_555 1_555
C13F N5F 1_555 1_555
N6F Tb1 1_555 1_555
C14F N6F 1_555 1_555
O1F Tb1 1_555 1_555
O2F Tb1 1_555 1_555
Fe1F C13F 1_555 1_555
N1F Fe1F 1_555 1_555
N2F Fe1F 1_555 1_555
C1F N2F 1_555 1_555
H1F C1F 1_555 1_555
C2F C1F 1_555 1_555
H2F C2F 1_555 1_555
C3F C2F 1_555 1_555
H3F C3F 1_555 1_555
C4F C3F 1_555 1_555
H4F C4F 1_555 1_555
C5F N2F 1_555 1_555
C6F N1F 1_555 1_555
C7F C6F 1_555 1_555
H5F C7F 1_555 1_555
C8F C7F 1_555 1_555
H6F C8F 1_555 1_555
C9F C8F 1_555 1_555
H7F C9F 1_555 1_555
C10F N1F 1_555 1_555
H8F C10F 1_555 1_555
N3F C11F 1_555 1_555
C11F Fe1F 1_555 1_555
N4F C12F 1_555 1_555
C12F Fe1F 1_555 1_555
C14B Fe1 1_555 1_555
Fe1B C14 1_555 1_555
Fe1D C14F 1_555 1_555
C14D Fe1F 1_555 1_555
C4 C5 1_555 1_555
C9 C10 1_555 1_555
C4F C5F 1_555 1_555
C5F C6F 1_555 1_555
C9F C10F 1_555 1_555

#END
