
#######################################################################
#
#                 Cambridge Crystallographic Data Centre
#                                CCDC 
#
#######################################################################
#
# If this CIF has been generated from an entry in the Cambridge 
# Structural Database, then it will include bibliographic, chemical, 
# crystal, experimental, refinement or atomic coordinate data resulting 
# from the CCDC's data processing and validation procedures.
#
#######################################################################

data_AWIWIM
_symmetry_cell_setting           triclinic
_symmetry_space_group_name_H-M   'P -1'
_symmetry_Int_Tables_number      2
_space_group_name_Hall           '-P 1'
loop_
_symmetry_equiv_pos_site_id
_symmetry_equiv_pos_as_xyz
1 x,y,z
2 -x,-y,-z
_cell_length_a                   13.043(3)
_cell_length_b                   13.872(3)
_cell_length_c                   15.061(3)
_cell_angle_alpha                104.87(3)
_cell_angle_beta                 107.02(3)
_cell_angle_gamma                107.14(3)
_cell_volume                     2307.98
loop_
_atom_site_label
_atom_site_type_symbol
_atom_site_fract_x
_atom_site_fract_y
_atom_site_fract_z
Cu1 Cu 0.5207 -0.26399(8) 0.2973
O1 O 0.4340(5) -0.2098(5) 0.3691(5)
C1 C 0.3795(13) -0.1413(12) 0.4979(11)
F1 F 0.2820(9) -0.2089(8) 0.4743(12)
F2 F 0.4228(11) -0.0963(11) 0.5956(8)
F3 F 0.3719(8) -0.0608(7) 0.4758(6)
C2 C 0.4583(10) -0.1877(7) 0.4610(9)
C3 C 0.5447(10) -0.1993(9) 0.5292(9)
H1 H 0.5571 -0.1753 0.5966
C4 C 0.6121(10) -0.2460(8) 0.4982(8)
C5 C 0.708(3) -0.260(2) 0.5788(15)
F4 F 0.8002(12) -0.240(2) 0.5742(10)
F5 F 0.7107(10) -0.2247(10) 0.6666(6)
F6 F 0.6689(19) -0.3671(14) 0.5553(9)
O2 O 0.6162(6) -0.2789(5) 0.4121(5)
O3 O 0.5964(5) -0.3312(5) 0.2231(5)
C6 C 0.6730(13) -0.3636(12) 0.1031(10)
F7 F 0.6395(7) -0.4044(7) 0.0048(6)
F8 F 0.7656(7) -0.2703(8) 0.1304(7)
F9 F 0.7088(9) -0.4274(9) 0.1375(7)
C7 C 0.5820(10) -0.3357(7) 0.1365(8)
C8 C 0.4945(12) -0.3182(9) 0.0707(9)
H2 H 0.498(5) -0.326(4) 0.016(4)
C9 C 0.4062(11) -0.3012(8) 0.0948(10)
C10 C 0.3043(19) -0.2904(17) 0.0157(13)
F10 F 0.2849(17) -0.2200(13) 0.0373(10)
F11 F 0.3153(12) -0.3126(14) -0.0711(8)
F12 F 0.2157(11) -0.3832(14) -0.0160(11)
O4 O 0.3944(6) -0.2881(6) 0.1755(6)
Cu2 Cu 1.0000 0.0000 0.0000
O5 O 0.9612(6) 0.0558(5) -0.1034(5)
C11 C 0.8571(18) 0.1002(14) -0.2273(13)
F13 F 0.8785(13) 0.0533(9) -0.2979(8)
F14 F 0.9228(13) 0.1981(9) -0.1926(7)
F15 F 0.7581(12) 0.1022(14) -0.2694(10)
C12 C 0.8653(13) 0.0505(8) -0.1476(7)
C13 C 0.7632(13) 0.0084(10) -0.1350(9)
H3 H 0.692(6) 0.002(5) -0.173(5)
C14 C 0.7602(10) -0.0371(8) -0.0636(8)
C15 C 0.6453(12) -0.0820(15) -0.0476(15)
F16 F 0.5547(7) -0.0868(10) -0.1191(8)
F17 F 0.6111(9) -0.1879(11) -0.0756(11)
F18 F 0.6466(9) -0.0461(14) 0.0313(8)
O6 O 0.8435(6) -0.0444(5) -0.0018(5)
Cu3 Cu 1.0000 0.5000 0.5000
O7 O 0.9850(5) 0.3628(4) 0.5153(4)
C16 C 1.0277(13) 0.2352(10) 0.5755(11)
F19 F 1.1104(7) 0.2112(6) 0.6193(9)
F20 F 0.9809(12) 0.2391(8) 0.6388(10)
F21 F 0.9558(11) 0.1601(6) 0.5009(7)
C17 C 1.0677(9) 0.3478(7) 0.5687(7)
C18 C 1.1872(9) 0.4169(8) 0.6181(7)
H4 H 1.241(6) 0.403(5) 0.661(5)
C19 C 1.2261(8) 0.5173(7) 0.6120(7)
C20 C 1.3548(10) 0.5850(10) 0.6627(12)
F22 F 1.4006(7) 0.6110(11) 0.6038(9)
F23 F 1.4170(6) 0.5482(7) 0.7103(9)
F24 F 1.3773(7) 0.6797(8) 0.7222(9)
O8 O 1.1685(5) 0.5601(5) 0.5659(5)
N1 N 0.6382(8) -0.1035(7) 0.3082(7)
C21 C 0.6982(9) -0.0369(7) 0.2934(7)
C22 C 0.7764(8) 0.0462(7) 0.2736(6)
C23 C 0.8712(9) 0.0344(8) 0.2577(7)
H5 H 0.896(7) -0.022(7) 0.261(6)
C24 C 0.9466(10) 0.1137(8) 0.2408(7)
H6 H 1.003(8) 0.095(7) 0.237(6)
C25 C 0.9284(9) 0.2065(7) 0.2404(6)
C26 C 0.8331(10) 0.2188(8) 0.2558(7)
H7 H 0.820(7) 0.285(7) 0.266(6)
C27 C 0.7568(10) 0.1376(9) 0.2712(9)
H8 H 0.707(6) 0.152(5) 0.289(5)
C28 C 1.0100(8) 0.2931(6) 0.2251(6)
N2 N 1.0761(7) 0.2802(6) 0.1750(6)
O9 O 1.0831(7) 0.1891(6) 0.1321(6)
C29 C 1.1406(9) 0.3805(7) 0.1610(7)
C30 C 1.2649(12) 0.3930(12) 0.1787(12)
H9 H 1.267(9) 0.328(9) 0.138(8)
H10 H 1.311(6) 0.414(5) 0.244(5)
H11 H 1.314(8) 0.463(8) 0.151(7)
C31 C 1.0771(17) 0.3623(13) 0.0507(11)
H12 H 1.093(7) 0.293(7) -0.001(7)
H13 H 1.112(12) 0.428(12) 0.039(10)
H14 H 1.007(7) 0.336(7) 0.041(6)
C32 C 1.1259(9) 0.4687(7) 0.2395(7)
C33 C 1.2307(10) 0.5273(9) 0.3414(9)
H15 H 1.2150 0.5790 0.3857
H16 H 1.2994 0.5645 0.3326
H17 H 1.2429 0.4750 0.3697
C34 C 1.0870(17) 0.5485(11) 0.2003(14)
H18 H 1.088(8) 0.595(8) 0.258(7)
H19 H 1.006(10) 0.494(9) 0.135(8)
H20 H 1.173(11) 0.585(11) 0.191(9)
N3 N 1.0295(7) 0.3986(6) 0.2613(6)
O10 O 0.9828(6) 0.4423(5) 0.3135(5)
O5A O 1.0388(6) -0.0558(5) 0.1034(5)
C12A C 1.1347(13) -0.0505(8) 0.1476(7)
C11A C 1.1429(18) -0.1002(14) 0.2273(13)
F13A F 1.1215(13) -0.0533(9) 0.2979(8)
F14A F 1.0772(13) -0.1981(9) 0.1926(7)
F15A F 1.2419(12) -0.1022(14) 0.2694(10)
C13A C 1.2368(13) -0.0084(10) 0.1350(9)
H3A H 1.308(6) -0.002(5) 0.173(5)
C14A C 1.2398(10) 0.0371(8) 0.0636(8)
C15A C 1.3547(12) 0.0820(15) 0.0476(15)
F16A F 1.4453(7) 0.0868(10) 0.1191(8)
F17A F 1.3889(9) 0.1879(11) 0.0756(11)
F18A F 1.3534(9) 0.0461(14) -0.0313(8)
O6A O 1.1565(6) 0.0444(5) 0.0018(5)
O9A O 0.9169(7) -0.1891(6) -0.1321(6)
N2A N 0.9239(7) -0.2802(6) -0.1750(6)
C28A C 0.9900(8) -0.2931(6) -0.2251(6)
C25A C 1.0716(9) -0.2065(7) -0.2404(6)
C24A C 1.0534(10) -0.1137(8) -0.2408(7)
C23A C 1.1288(9) -0.0344(8) -0.2577(7)
C22A C 1.2236(8) -0.0462(7) -0.2736(6)
C21A C 1.3018(9) 0.0369(7) -0.2934(7)
N1A N 1.3618(8) 0.1035(7) -0.3082(7)
Cu1A Cu 1.4793 0.26399(8) -0.2973
O1A O 1.5660(5) 0.2098(5) -0.3691(5)
C2A C 1.5417(10) 0.1877(7) -0.4610(9)
C1A C 1.6205(13) 0.1413(12) -0.4979(11)
F1A F 1.7180(9) 0.2089(8) -0.4743(12)
F2A F 1.5772(11) 0.0963(11) -0.5956(8)
F3A F 1.6281(8) 0.0608(7) -0.4758(6)
C3A C 1.4553(10) 0.1993(9) -0.5292(9)
H1A H 1.4429 0.1753 -0.5966
C4A C 1.3879(10) 0.2460(8) -0.4982(8)
C5A C 1.292(3) 0.260(2) -0.5788(15)
F4A F 1.1998(12) 0.240(2) -0.5742(10)
F5A F 1.2893(10) 0.2247(10) -0.6666(6)
F6A F 1.3311(19) 0.3671(14) -0.5553(9)
O2A O 1.3838(6) 0.2789(5) -0.4121(5)
O3A O 1.4036(5) 0.3312(5) -0.2231(5)
C7A C 1.4180(10) 0.3357(7) -0.1365(8)
C6A C 1.3270(13) 0.3636(12) -0.1031(10)
F7A F 1.3605(7) 0.4044(7) -0.0048(6)
F8A F 1.2344(7) 0.2703(8) -0.1304(7)
F9A F 1.2912(9) 0.4274(9) -0.1375(7)
C8A C 1.5055(12) 0.3182(9) -0.0707(9)
H2A H 1.502(5) 0.326(4) -0.016(4)
C9A C 1.5938(11) 0.3012(8) -0.0948(10)
C10A C 1.6957(19) 0.2904(17) -0.0157(13)
F10A F 1.7151(17) 0.2200(13) -0.0373(10)
F11A F 1.6847(12) 0.3126(14) 0.0711(8)
F12A F 1.7843(11) 0.3832(14) 0.0160(11)
O4A O 1.6056(6) 0.2881(6) -0.1755(6)
C27A C 1.2432(10) -0.1376(9) -0.2712(9)
C26A C 1.1669(10) -0.2188(8) -0.2558(7)
H7A H 1.180(7) -0.285(7) -0.266(6)
H8A H 1.293(6) -0.152(5) -0.289(5)
H5A H 1.104(7) 0.022(7) -0.261(6)
H6A H 0.997(8) -0.095(7) -0.237(6)
N3A N 0.9705(7) -0.3986(6) -0.2613(6)
C32A C 0.8741(9) -0.4687(7) -0.2395(7)
C29A C 0.8594(9) -0.3805(7) -0.1610(7)
C30A C 0.7351(12) -0.3930(12) -0.1787(12)
H9A H 0.733(9) -0.328(9) -0.138(8)
H10A H 0.689(6) -0.414(5) -0.244(5)
H11A H 0.686(8) -0.463(8) -0.151(7)
C31A C 0.9229(17) -0.3623(13) -0.0507(11)
H12A H 0.907(7) -0.293(7) 0.001(7)
H13A H 0.888(12) -0.428(12) -0.039(10)
H14A H 0.993(7) -0.336(7) -0.041(6)
C33A C 0.7693(10) -0.5273(9) -0.3414(9)
H15A H 0.7850 -0.5790 -0.3857
H16A H 0.7006 -0.5645 -0.3326
H17A H 0.7571 -0.4750 -0.3697
C34A C 0.9130(17) -0.5485(11) -0.2003(14)
H18A H 0.912(8) -0.595(8) -0.258(7)
H19A H 0.994(10) -0.494(9) -0.135(8)
H20A H 0.827(11) -0.585(11) -0.191(9)
O10A O 1.0172(6) -0.4423(5) -0.3135(5)
Cu3A Cu 1.0000 -0.5000 -0.5000
O7A O 1.0150(5) 0.6372(4) 0.4847(4)
O8A O 0.8315(5) 0.4399(5) 0.4341(5)
O10A_2 O 1.0172(6) 0.5577(5) 0.6865(5)
C17A C 0.9323(9) 0.6522(7) 0.4313(7)
C19A C 0.7739(8) 0.4827(7) 0.3880(7)
C16A C 0.9723(13) 0.7648(10) 0.4245(11)
C18A C 0.8128(9) 0.5831(8) 0.3819(7)
C20A C 0.6452(10) 0.4150(10) 0.3373(12)
F19A F 0.8896(7) 0.7888(6) 0.3807(9)
F20A F 1.0191(12) 0.7609(8) 0.3612(10)
F21A F 1.0442(11) 0.8399(6) 0.4991(7)
H4A H 0.759(6) 0.597(5) 0.339(5)
F22A F 0.5994(7) 0.3890(11) 0.3962(9)
F23A F 0.5830(6) 0.4518(7) 0.2897(9)
F24A F 0.6227(7) 0.3203(8) 0.2778(9)
loop_
_geom_bond_atom_site_label_1
_geom_bond_atom_site_label_2
_geom_bond_site_symmetry_1
_geom_bond_site_symmetry_2
Cu1 O1 1_555 1_555
O1 C2 1_555 1_555
C1 F1 1_555 1_555
F2 C1 1_555 1_555
F3 C1 1_555 1_555
C2 C1 1_555 1_555
C3 C2 1_555 1_555
H1 C3 1_555 1_555
C4 C3 1_555 1_555
C5 C4 1_555 1_555
F4 C5 1_555 1_555
F5 C5 1_555 1_555
F6 C5 1_555 1_555
O2 Cu1 1_555 1_555
O3 Cu1 1_555 1_555
C6 F7 1_555 1_555
F8 C6 1_555 1_555
F9 C6 1_555 1_555
C7 O3 1_555 1_555
C8 C7 1_555 1_555
H2 C8 1_555 1_555
C9 C8 1_555 1_555
C10 C9 1_555 1_555
F10 C10 1_555 1_555
F11 C10 1_555 1_555
F12 C10 1_555 1_555
O4 Cu1 1_555 1_555
Cu2 O5 1_555 1_555
O5 C12 1_555 1_555
C11 F13 1_555 1_555
F14 C11 1_555 1_555
F15 C11 1_555 1_555
C12 C11 1_555 1_555
C13 C12 1_555 1_555
H3 C13 1_555 1_555
C14 C13 1_555 1_555
C15 C14 1_555 1_555
F16 C15 1_555 1_555
F17 C15 1_555 1_555
F18 C15 1_555 1_555
O6 Cu2 1_555 1_555
Cu3 O7 1_555 1_555
O7 C17 1_555 1_555
C16 F19 1_555 1_555
F20 C16 1_555 1_555
F21 C16 1_555 1_555
C17 C16 1_555 1_555
C18 C17 1_555 1_555
H4 C18 1_555 1_555
C19 C18 1_555 1_555
C20 C19 1_555 1_555
F22 C20 1_555 1_555
F23 C20 1_555 1_555
F24 C20 1_555 1_555
O8 Cu3 1_555 1_555
N1 Cu1 1_555 1_555
C21 N1 1_555 1_555
C22 C21 1_555 1_555
C23 C22 1_555 1_555
H5 C23 1_555 1_555
C24 C23 1_555 1_555
H6 C24 1_555 1_555
C25 C24 1_555 1_555
C26 C25 1_555 1_555
H7 C26 1_555 1_555
C27 C22 1_555 1_555
H8 C27 1_555 1_555
C28 C25 1_555 1_555
N2 C28 1_555 1_555
O9 Cu2 1_555 1_555
C29 N2 1_555 1_555
C30 C29 1_555 1_555
H9 C30 1_555 1_555
H10 C30 1_555 1_555
H11 C30 1_555 1_555
C31 C29 1_555 1_555
H12 C31 1_555 1_555
H13 C31 1_555 1_555
H14 C31 1_555 1_555
C32 C29 1_555 1_555
C33 C32 1_555 1_555
H15 C33 1_555 1_555
H16 C33 1_555 1_555
H17 C33 1_555 1_555
C34 C32 1_555 1_555
H18 C34 1_555 1_555
H19 C34 1_555 1_555
H20 C34 1_555 1_555
N3 C28 1_555 1_555
O10 Cu3 1_555 1_555
O5A Cu2 1_555 1_555
C12A O5A 1_555 1_555
C11A C12A 1_555 1_555
F13A C11A 1_555 1_555
F14A C11A 1_555 1_555
F15A C11A 1_555 1_555
C13A C12A 1_555 1_555
H3A C13A 1_555 1_555
C14A C13A 1_555 1_555
C15A C14A 1_555 1_555
F16A C15A 1_555 1_555
F17A C15A 1_555 1_555
F18A C15A 1_555 1_555
O6A Cu2 1_555 1_555
O9A Cu2 1_555 1_555
N2A O9A 1_555 1_555
C28A N2A 1_555 1_555
C25A C28A 1_555 1_555
C24A C25A 1_555 1_555
C23A C24A 1_555 1_555
C22A C23A 1_555 1_555
C21A C22A 1_555 1_555
N1A C21A 1_555 1_555
Cu1A N1A 1_555 1_555
O1A Cu1A 1_555 1_555
C2A O1A 1_555 1_555
C1A C2A 1_555 1_555
F1A C1A 1_555 1_555
F2A C1A 1_555 1_555
F3A C1A 1_555 1_555
C3A C2A 1_555 1_555
H1A C3A 1_555 1_555
C4A C3A 1_555 1_555
C5A C4A 1_555 1_555
F4A C5A 1_555 1_555
F5A C5A 1_555 1_555
F6A C5A 1_555 1_555
O2A Cu1A 1_555 1_555
O3A Cu1A 1_555 1_555
C7A O3A 1_555 1_555
C6A C7A 1_555 1_555
F7A C6A 1_555 1_555
F8A C6A 1_555 1_555
F9A C6A 1_555 1_555
C8A C7A 1_555 1_555
H2A C8A 1_555 1_555
C9A C8A 1_555 1_555
C10A C9A 1_555 1_555
F10A C10A 1_555 1_555
F11A C10A 1_555 1_555
F12A C10A 1_555 1_555
O4A Cu1A 1_555 1_555
C27A C22A 1_555 1_555
C26A C25A 1_555 1_555
H7A C26A 1_555 1_555
H8A C27A 1_555 1_555
H5A C23A 1_555 1_555
H6A C24A 1_555 1_555
N3A C28A 1_555 1_555
C32A N3A 1_555 1_555
C29A N2A 1_555 1_555
C30A C29A 1_555 1_555
H9A C30A 1_555 1_555
H10A C30A 1_555 1_555
H11A C30A 1_555 1_555
C31A C29A 1_555 1_555
H12A C31A 1_555 1_555
H13A C31A 1_555 1_555
H14A C31A 1_555 1_555
C33A C32A 1_555 1_555
H15A C33A 1_555 1_555
H16A C33A 1_555 1_555
H17A C33A 1_555 1_555
C34A C32A 1_555 1_555
H18A C34A 1_555 1_555
H19A C34A 1_555 1_555
H20A C34A 1_555 1_555
O10A N3A 1_555 1_555
Cu3A O10A 1_555 1_555
O7A Cu3 1_555 1_555
O8A Cu3 1_555 1_555
O10A_2 Cu3 1_555 1_555
C17A O7A 1_555 1_555
C19A O8A 1_555 1_555
C16A C17A 1_555 1_555
C18A C17A 1_555 1_555
C20A C19A 1_555 1_555
F19A C16A 1_555 1_555
F20A C16A 1_555 1_555
F21A C16A 1_555 1_555
H4A C18A 1_555 1_555
F22A C20A 1_555 1_555
F23A C20A 1_555 1_555
F24A C20A 1_555 1_555
C4 O2 1_555 1_555
C6 C7 1_555 1_555
C9 O4 1_555 1_555
C14 O6 1_555 1_555
C19 O8 1_555 1_555
C26 C27 1_555 1_555
N2 O9 1_555 1_555
C32 N3 1_555 1_555
N3 O10 1_555 1_555
C14A O6A 1_555 1_555
C4A O2A 1_555 1_555
C9A O4A 1_555 1_555
C27A C26A 1_555 1_555
C32A C29A 1_555 1_555
C19A C18A 1_555 1_555

#END
