
#######################################################################
#
#                 Cambridge Crystallographic Data Centre
#                                CCDC 
#
#######################################################################
#
# If this CIF has been generated from an entry in the Cambridge 
# Structural Database, then it will include bibliographic, chemical, 
# crystal, experimental, refinement or atomic coordinate data resulting 
# from the CCDC's data processing and validation procedures.
#
#######################################################################

data_AWIXEJ01
_symmetry_cell_setting           monoclinic
_symmetry_space_group_name_H-M   'P 21/c'
_symmetry_Int_Tables_number      14
_space_group_name_Hall           '-P 2ybc'
loop_
_symmetry_equiv_pos_site_id
_symmetry_equiv_pos_as_xyz
1 x,y,z
2 x,1/2-y,1/2+z
3 -x,-y,-z
4 -x,1/2+y,1/2-z
_cell_length_a                   9.854(2)
_cell_length_b                   34.522(7)
_cell_length_c                   9.6070(19)
_cell_angle_alpha                90
_cell_angle_beta                 113.07(3)
_cell_angle_gamma                90
_cell_volume                     3006.75
loop_
_atom_site_label
_atom_site_type_symbol
_atom_site_fract_x
_atom_site_fract_y
_atom_site_fract_z
Cu1 Cu 0.00022(14) -0.12651(4) 0.09190(18)
O1 O 0.1667(8) -0.1606(2) 0.1652(9)
C1 C 0.408(2) -0.1817(6) 0.252(3)
F1 F 0.436(2) -0.1945(6) 0.3827(18)
F2 F 0.3671(12) -0.2117(4) 0.174(2)
F3 F 0.5341(11) -0.1749(3) 0.2548(16)
C2 C 0.3017(15) -0.1488(4) 0.2110(13)
C3 C 0.3527(16) -0.1127(4) 0.2285(16)
H1 H 0.467(19) -0.096(5) 0.29(2)
C4 C 0.2614(15) -0.0807(4) 0.1931(13)
C5 C 0.3215(19) -0.0393(5) 0.215(2)
F4 F 0.4053(12) -0.0350(2) 0.1413(13)
F5 F 0.4156(13) -0.0353(3) 0.3554(14)
F6 F 0.2287(10) -0.0121(2) 0.1853(15)
O2 O 0.1205(9) -0.08081(19) 0.1463(8)
O3 O -0.1190(8) -0.17290(19) 0.0458(9)
C6 C -0.3258(18) -0.2145(4) -0.036(2)
F7 F -0.2748(12) -0.2336(3) 0.0873(13)
F8 F -0.4634(9) -0.2152(2) -0.0813(14)
F9 F -0.2827(13) -0.2343(3) -0.1243(13)
C7 C -0.2572(14) -0.1739(4) -0.0138(14)
C8 C -0.3506(14) -0.1433(4) -0.0609(16)
H2 H -0.449(10) -0.156(2) -0.143(10)
C9 C -0.3022(16) -0.1050(4) -0.0518(17)
C10 C -0.4150(17) -0.0732(5) -0.120(4)
F10 F -0.3881(10) -0.0428(3) -0.0349(13)
F11 F -0.5472(10) -0.0846(3) -0.1255(16)
F12 F -0.4220(16) -0.0631(4) -0.2475(14)
O4 O -0.1710(9) -0.0936(2) 0.0076(10)
O5 O 0.0548(11) -0.1155(2) -0.1368(11)
N1 N 0.0516(10) -0.1265(3) -0.2626(12)
C11 C 0.0013(15) -0.1662(4) -0.3272(17)
C12 C 0.055(2) -0.1961(5) -0.204(2)
H3 H 0.202(15) -0.195(4) -0.151(15)
H4 H 0.051(14) -0.222(4) -0.236(15)
H5 H 0.08(2) -0.186(5) -0.11(2)
C13 C -0.1685(15) -0.1649(5) -0.385(2)
H6 H -0.1968 -0.1624 -0.3002
H7 H -0.2093 -0.1883 -0.4387
H8 H -0.2050 -0.1431 -0.4510
C14 C 0.0592(15) -0.1689(4) -0.4498(15)
C15 C -0.037(3) -0.1894(6) -0.594(2)
H9 H -0.17(2) -0.174(7) -0.63(3)
H10 H -0.024(12) -0.213(3) -0.568(13)
H11 H -0.005(12) -0.192(3) -0.673(14)
C16 C 0.221(2) -0.1835(6) -0.391(3)
H12 H 0.237(15) -0.180(4) -0.507(18)
H13 H 0.226(11) -0.212(3) -0.388(11)
H14 H 0.302(17) -0.171(4) -0.258(19)
N2 N 0.0694(9) -0.1269(3) -0.4838(13)
O6 O 0.0798(10) -0.1166(2) -0.6079(10)
C17 C 0.0775(12) -0.1048(4) -0.3674(17)
C18 C 0.1110(12) -0.0637(4) -0.3531(14)
C19 C 0.1897(13) -0.0478(4) -0.4329(15)
H15 H 0.225(9) -0.069(3) -0.503(10)
C20 C 0.2269(13) -0.0090(4) -0.4130(17)
H16 H 0.281(9) 0.002(2) -0.490(10)
C21 C 0.1848(14) 0.0145(4) -0.3232(17)
C22 C 0.1016(13) -0.0003(4) -0.2484(16)
H17 H 0.097(10) 0.015(3) -0.156(11)
C23 C 0.0686(14) -0.0398(4) -0.2616(17)
H18 H 0.010(13) -0.051(3) -0.210(14)
C24 C 0.2222(14) 0.0555(4) -0.3110(16)
N3 N 0.2542(13) 0.0868(3) -0.3135(16)
O6_2 O 0.0798(10) -0.1166(2) 0.3921(10)
Cu1_2 Cu 0.00022(14) -0.12651(4) -0.90810(18)
loop_
_geom_bond_atom_site_label_1
_geom_bond_atom_site_label_2
_geom_bond_site_symmetry_1
_geom_bond_site_symmetry_2
Cu1 O1 1_555 1_555
O1 C2 1_555 1_555
C1 F1 1_555 1_555
F2 C1 1_555 1_555
F3 C1 1_555 1_555
C2 C1 1_555 1_555
C3 C2 1_555 1_555
H1 C3 1_555 1_555
C4 C3 1_555 1_555
C5 C4 1_555 1_555
F4 C5 1_555 1_555
F5 C5 1_555 1_555
F6 C5 1_555 1_555
O2 Cu1 1_555 1_555
O3 Cu1 1_555 1_555
C6 F7 1_555 1_555
F8 C6 1_555 1_555
F9 C6 1_555 1_555
C7 O3 1_555 1_555
C8 C7 1_555 1_555
H2 C8 1_555 1_555
C9 C8 1_555 1_555
C10 C9 1_555 1_555
F10 C10 1_555 1_555
F11 C10 1_555 1_555
F12 C10 1_555 1_555
O4 Cu1 1_555 1_555
O5 Cu1 1_555 1_555
N1 O5 1_555 1_555
C11 N1 1_555 1_555
C12 C11 1_555 1_555
H3 C12 1_555 1_555
H4 C12 1_555 1_555
H5 C12 1_555 1_555
C13 C11 1_555 1_555
H6 C13 1_555 1_555
H7 C13 1_555 1_555
H8 C13 1_555 1_555
C14 C11 1_555 1_555
C15 C14 1_555 1_555
H9 C15 1_555 1_555
H10 C15 1_555 1_555
H11 C15 1_555 1_555
C16 C14 1_555 1_555
H12 C16 1_555 1_555
H13 C16 1_555 1_555
H14 C16 1_555 1_555
N2 C14 1_555 1_555
O6 N2 1_555 1_555
C17 N1 1_555 1_555
C18 C17 1_555 1_555
C19 C18 1_555 1_555
H15 C19 1_555 1_555
C20 C19 1_555 1_555
H16 C20 1_555 1_555
C21 C20 1_555 1_555
C22 C21 1_555 1_555
H17 C22 1_555 1_555
C23 C18 1_555 1_555
H18 C23 1_555 1_555
C24 C21 1_555 1_555
N3 C24 1_555 1_555
O6_2 Cu1 1_555 1_555
Cu1_2 O6 1_555 1_555
C4 O2 1_555 1_555
C6 C7 1_555 1_555
C9 O4 1_555 1_555
N2 C17 1_555 1_555
C22 C23 1_555 1_555

#END
