
#######################################################################
#
#                 Cambridge Crystallographic Data Centre
#                                CCDC 
#
#######################################################################
#
# If this CIF has been generated from an entry in the Cambridge 
# Structural Database, then it will include bibliographic, chemical, 
# crystal, experimental, refinement or atomic coordinate data resulting 
# from the CCDC's data processing and validation procedures.
#
#######################################################################

data_AWIZIP
_symmetry_cell_setting           triclinic
_symmetry_space_group_name_H-M   'P -1'
_symmetry_Int_Tables_number      2
_space_group_name_Hall           '-P 1'
loop_
_symmetry_equiv_pos_site_id
_symmetry_equiv_pos_as_xyz
1 x,y,z
2 -x,-y,-z
_cell_length_a                   7.338(3)
_cell_length_b                   8.224(3)
_cell_length_c                   8.347(3)
_cell_angle_alpha                107.718(6)
_cell_angle_beta                 105.094(5)
_cell_angle_gamma                95.014(6)
_cell_volume                     455.606
loop_
_atom_site_label
_atom_site_type_symbol
_atom_site_fract_x
_atom_site_fract_y
_atom_site_fract_z
Zn1 Zn 0.32453(4) 0.64079(4) 0.59396(4)
O1 O 0.2985(3) 0.8628(3) 0.7498(3)
O2 O 0.0163(4) 0.7896(3) 0.5526(3)
O3 O 0.3940(3) 1.3198(3) 1.3247(3)
O4 O 0.2043(3) 1.5174(2) 1.3423(2)
O5 O -0.4243(3) 1.3503(3) 0.8933(3)
O6 O -0.4612(3) 1.1634(3) 0.6377(3)
O7 O 0.2550(3) 0.4582(3) 0.6941(3)
H1 H 0.1872 0.3726 0.6141
H2 H 0.3414 0.4095 0.7534
N1 N -0.3665(3) 1.2402(3) 0.7906(3)
C1 C 0.0683(4) 1.0398(3) 0.8049(3)
C2 C 0.1885(4) 1.1412(3) 0.9697(3)
H3 H 0.3119 1.1200 1.0085
C3 C 0.1255(3) 1.2761(3) 1.0791(3)
C4 C -0.0566(3) 1.3099(3) 1.0193(3)
H4 H -0.0998 1.4004 1.0889
C5 C -0.1730(4) 1.2059(3) 0.8536(3)
C6 C -0.1158(4) 1.0711(3) 0.7438(3)
H5 H -0.1975 1.0036 0.6329
C7 C 0.1297(4) 0.8873(3) 0.6918(4)
C8 C 0.2526(3) 1.3790(3) 1.2609(3)
O3A O 0.6060(3) 0.6802(3) 0.6753(3)
O4_2 O 0.2043(3) 0.5174(2) 0.3423(2)
Zn1A Zn 0.67547(4) 1.35921(4) 1.40604(4)
Zn1_2 Zn 0.32453(4) 1.64079(4) 1.59396(4)
loop_
_geom_bond_atom_site_label_1
_geom_bond_atom_site_label_2
_geom_bond_site_symmetry_1
_geom_bond_site_symmetry_2
Zn1 O1 1_555 1_555
O1 C7 1_555 1_555
O2 C7 1_555 1_555
O3 C8 1_555 1_555
O4 C8 1_555 1_555
O5 N1 1_555 1_555
O6 N1 1_555 1_555
O7 Zn1 1_555 1_555
H1 O7 1_555 1_555
H2 O7 1_555 1_555
N1 C5 1_555 1_555
C1 C2 1_555 1_555
C2 H3 1_555 1_555
C3 C2 1_555 1_555
C4 C3 1_555 1_555
H4 C4 1_555 1_555
C5 C4 1_555 1_555
C6 C1 1_555 1_555
H5 C6 1_555 1_555
C7 C1 1_555 1_555
C8 C3 1_555 1_555
O3A Zn1 1_555 1_555
O4_2 Zn1 1_555 1_555
Zn1A O3 1_555 1_555
Zn1_2 O4 1_555 1_555
C5 C6 1_555 1_555

#END
