
#######################################################################
#
#                 Cambridge Crystallographic Data Centre
#                                CCDC 
#
#######################################################################
#
# If this CIF has been generated from an entry in the Cambridge 
# Structural Database, then it will include bibliographic, chemical, 
# crystal, experimental, refinement or atomic coordinate data resulting 
# from the CCDC's data processing and validation procedures.
#
#######################################################################

data_AWOBET
_symmetry_cell_setting           monoclinic
_symmetry_space_group_name_H-M   'P 21/n'
_symmetry_Int_Tables_number      14
_space_group_name_Hall           '-P 2yn'
loop_
_symmetry_equiv_pos_site_id
_symmetry_equiv_pos_as_xyz
1 x,y,z
2 1/2+x,1/2-y,1/2+z
3 -x,-y,-z
4 1/2-x,1/2+y,1/2-z
_cell_length_a                   9.0800(18)
_cell_length_b                   9.0310(18)
_cell_length_c                   17.168(3)
_cell_angle_alpha                90
_cell_angle_beta                 99.25(3)
_cell_angle_gamma                90
_cell_volume                     1389.49
loop_
_atom_site_label
_atom_site_type_symbol
_atom_site_fract_x
_atom_site_fract_y
_atom_site_fract_z
Cu1 Cu -0.13805(4) -0.38154(4) 0.45718(2)
O1 O -0.3420(2) -0.3109(3) 0.46940(12)
O2 O -0.3097(2) -0.1644(3) 0.36979(13)
C1 C -0.3854(3) -0.2118(4) 0.41863(19)
C2 C -0.5421(4) -0.1507(4) 0.4166(2)
C3 C -0.6401(4) -0.1743(5) 0.3369(2)
C4 C -0.6609(4) -0.3351(5) 0.31247(19)
C5 C -0.7327(3) -0.4318(4) 0.3678(2)
C6 C -0.8896(3) -0.3887(4) 0.37878(17)
O3 O -0.9675(2) -0.3122(3) 0.32919(14)
O4 O -0.9340(2) -0.4390(2) 0.44081(11)
N1 N -0.2384(3) -0.5319(3) 0.38281(14)
C7 C -0.3669(4) -0.6086(4) 0.3915(2)
C8 C -0.4091(4) -0.6965(4) 0.3289(2)
N2 N -0.3050(3) -0.6756(4) 0.28042(17)
C9 C -0.2053(4) -0.5777(4) 0.31420(19)
N3 N -0.0520(3) -0.2256(3) 0.53197(14)
C10 C 0.0777(4) -0.1594(4) 0.53706(19)
N4 N 0.0992(3) -0.0624(3) 0.59552(16)
C11 C -0.0234(4) -0.0651(4) 0.6315(2)
C12 C -0.1156(4) -0.1654(4) 0.5920(2)
H1 H -0.586(3) -0.196(4) 0.4583(19)
H2 H -0.534(4) -0.052(4) 0.4271(19)
H3 H -0.591(4) -0.121(4) 0.297(2)
H4 H -0.729(4) -0.129(4) 0.340(2)
H5 H -0.716(4) -0.341(4) 0.265(2)
H6 H -0.570(4) -0.379(4) 0.3043(19)
H7 H -0.737(4) -0.538(4) 0.3524(19)
H8 H -0.677(4) -0.434(4) 0.420(2)
H9 H -0.411(3) -0.597(3) 0.4342(19)
H10 H -0.495(5) -0.774(5) 0.314(2)
H11 H -0.307(4) -0.707(4) 0.237(2)
H12 H -0.128(4) -0.553(4) 0.290(2)
H13 H 0.167(4) -0.009(4) 0.604(2)
H14 H 0.129(4) -0.179(4) 0.5059(19)
H15 H -0.035(4) -0.006(4) 0.670(2)
H16 H -0.208(4) -0.197(4) 0.5982(19)
O4B O -0.0660(2) -0.5610(2) 0.55919(11)
O4_2 O 0.0660(2) -0.4390(2) 0.44081(11)
Cu1_2 Cu -1.13805(4) -0.38154(4) 0.45718(2)
Cu1B Cu -0.86195(4) -0.61846(4) 0.54282(2)
loop_
_geom_bond_atom_site_label_1
_geom_bond_atom_site_label_2
_geom_bond_site_symmetry_1
_geom_bond_site_symmetry_2
Cu1 O1 1_555 1_555
O1 C1 1_555 1_555
O2 C1 1_555 1_555
C1 C2 1_555 1_555
C2 C3 1_555 1_555
C3 C4 1_555 1_555
C4 C5 1_555 1_555
C5 C6 1_555 1_555
C6 O3 1_555 1_555
O4 C6 1_555 1_555
N1 Cu1 1_555 1_555
C7 N1 1_555 1_555
C8 C7 1_555 1_555
N2 C8 1_555 1_555
C9 N1 1_555 1_555
N3 Cu1 1_555 1_555
C10 N3 1_555 1_555
N4 C10 1_555 1_555
C11 N4 1_555 1_555
C12 N3 1_555 1_555
H1 C2 1_555 1_555
H2 C2 1_555 1_555
H3 C3 1_555 1_555
H4 C3 1_555 1_555
H5 C4 1_555 1_555
H6 C4 1_555 1_555
H7 C5 1_555 1_555
H8 C5 1_555 1_555
H9 C7 1_555 1_555
H10 C8 1_555 1_555
H11 N2 1_555 1_555
H12 C9 1_555 1_555
H13 N4 1_555 1_555
H14 C10 1_555 1_555
H15 C11 1_555 1_555
H16 C12 1_555 1_555
O4B Cu1 1_555 1_555
O4_2 Cu1 1_555 1_555
Cu1_2 O4 1_555 1_555
Cu1B O4 1_555 1_555
N2 C9 1_555 1_555
C11 C12 1_555 1_555

#END
