
#######################################################################
#
#                 Cambridge Crystallographic Data Centre
#                                CCDC 
#
#######################################################################
#
# If this CIF has been generated from an entry in the Cambridge 
# Structural Database, then it will include bibliographic, chemical, 
# crystal, experimental, refinement or atomic coordinate data resulting 
# from the CCDC's data processing and validation procedures.
#
#######################################################################

data_AWODOG
_symmetry_cell_setting           monoclinic
_symmetry_space_group_name_H-M   'C 2/c'
_symmetry_Int_Tables_number      15
_space_group_name_Hall           '-C 2yn'
loop_
_symmetry_equiv_pos_site_id
_symmetry_equiv_pos_as_xyz
1 x,y,z
2 -x,y,1/2-z
3 1/2+x,1/2+y,z
4 1/2-x,1/2+y,1/2-z
5 -x,-y,-z
6 x,-y,1/2+z
7 1/2-x,1/2-y,-z
8 1/2+x,1/2-y,1/2+z
_cell_length_a                   21.435(4)
_cell_length_b                   5.2740(11)
_cell_length_c                   14.164(3)
_cell_angle_alpha                90
_cell_angle_beta                 116.65(3)
_cell_angle_gamma                90
_cell_volume                     1431.11
loop_
_atom_site_label
_atom_site_type_symbol
_atom_site_fract_x
_atom_site_fract_y
_atom_site_fract_z
C1 C 0.37485(12) 0.7554(5) 0.82142(19)
H1 H 0.3432 0.8726 0.8240
C2 C 0.35883(15) 0.5594(5) 0.7531(2)
H2 H 0.3148 0.5180 0.7002
C3 C 0.47038(14) 0.5553(5) 0.8563(2)
H3 H 0.5170 0.5067 0.8866
C4 C 0.38692(10) 1.0497(4) 1.04391(18)
C5 C 0.31559(10) 1.1531(4) 1.02048(16)
C6 C 0.29077(11) 1.3731(4) 0.96075(18)
H4 H 0.3179 1.4565 0.9344
C7 C 0.27444(12) 1.0321(4) 1.05946(19)
H5 H 0.2908 0.8856 1.0997
N1 N 0.44579(9) 0.7532(3) 0.88681(14)
N2 N 0.41890(14) 0.4355(5) 0.77617(19)
O1 O 0.41430(8) 0.8830(3) 1.11055(14)
O2 O 0.41356(7) 1.1465(3) 0.98747(12)
Cu1 Cu 0.5000 1.0000 1.0000
H6 H 0.4238(19) 0.322(7) 0.744(3)
C1D C 0.62515(12) 1.2446(5) 1.17858(19)
H1D H 0.6568 1.1274 1.1760
C2D C 0.64117(15) 1.4406(5) 1.2469(2)
H2D H 0.6852 1.4820 1.2998
C3D C 0.52962(14) 1.4447(5) 1.1437(2)
H3D H 0.4830 1.4933 1.1134
C4F C 0.11308(10) 1.4503(4) 0.95609(18)
C5F C 0.18441(10) 1.3469(4) 0.97952(16)
C6F C 0.20923(11) 1.1269(4) 1.03925(18)
H4F H 0.1821 1.0435 1.0656
C7F C 0.22556(12) 1.4679(4) 0.94054(19)
H5F H 0.2092 1.6144 0.9003
N1D N 0.55421(9) 1.2468(3) 1.11319(14)
N2D N 0.58110(14) 1.5645(5) 1.22383(19)
O1F O 0.08570(8) 1.6170(3) 0.88945(14)
O2F O 0.08644(7) 1.3535(3) 1.01253(12)
O2D O 0.58644(7) 0.8535(3) 1.01253(12)
Cu1B Cu 0.0000 1.5000 1.0000
H6D H 0.5762(19) 1.678(7) 1.256(3)
loop_
_geom_bond_atom_site_label_1
_geom_bond_atom_site_label_2
_geom_bond_site_symmetry_1
_geom_bond_site_symmetry_2
C1 H1 1_555 1_555
C2 C1 1_555 1_555
H2 C2 1_555 1_555
C3 H3 1_555 1_555
C4 C5 1_555 1_555
C5 C6 1_555 1_555
C6 H4 1_555 1_555
C7 C5 1_555 1_555
H5 C7 1_555 1_555
N1 C1 1_555 1_555
N2 C2 1_555 1_555
O1 C4 1_555 1_555
O2 C4 1_555 1_555
Cu1 N1 1_555 1_555
H6 N2 1_555 1_555
C1D H1D 1_555 1_555
C2D C1D 1_555 1_555
H2D C2D 1_555 1_555
C3D H3D 1_555 1_555
C4F C5F 1_555 1_555
C5F C6F 1_555 1_555
C6F C7 1_555 1_555
H4F C6F 1_555 1_555
C7F C6 1_555 1_555
H5F C7F 1_555 1_555
N1D Cu1 1_555 1_555
N2D C2D 1_555 1_555
O1F C4F 1_555 1_555
O2F C4F 1_555 1_555
O2D Cu1 1_555 1_555
Cu1B O2F 1_555 1_555
H6D N2D 1_555 1_555
C3 N1 1_555 1_555
C3 N2 1_555 1_555
O2 Cu1 1_555 1_555
C1D N1D 1_555 1_555
C3D N1D 1_555 1_555
C3D N2D 1_555 1_555
C5F C7F 1_555 1_555

#END
