
#######################################################################
#
#                 Cambridge Crystallographic Data Centre
#                                CCDC 
#
#######################################################################
#
# If this CIF has been generated from an entry in the Cambridge 
# Structural Database, then it will include bibliographic, chemical, 
# crystal, experimental, refinement or atomic coordinate data resulting 
# from the CCDC's data processing and validation procedures.
#
#######################################################################

data_AWODUM
_symmetry_cell_setting           orthorhombic
_symmetry_space_group_name_H-M   'F d d 2'
_symmetry_Int_Tables_number      43
_space_group_name_Hall           'F 2 -2d'
loop_
_symmetry_equiv_pos_site_id
_symmetry_equiv_pos_as_xyz
1 x,y,z
2 -x,-y,z
3 1/4-x,1/4+y,1/4+z
4 3/4+x,3/4-y,1/4+z
5 x,1/2+y,1/2+z
6 -x,1/2-y,1/2+z
7 1/4-x,3/4+y,3/4+z
8 3/4+x,1/4-y,3/4+z
9 1/2+x,y,1/2+z
10 1/2-x,-y,1/2+z
11 3/4-x,1/4+y,3/4+z
12 1/4+x,3/4-y,3/4+z
13 1/2+x,1/2+y,z
14 1/2-x,1/2-y,z
15 3/4-x,3/4+y,1/4+z
16 1/4+x,1/4-y,1/4+z
_cell_length_a                   12.271(2)
_cell_length_b                   55.017(6)
_cell_length_c                   6.9040(10)
_cell_angle_alpha                90
_cell_angle_beta                 90
_cell_angle_gamma                90
_cell_volume                     4660.98
loop_
_atom_site_label
_atom_site_type_symbol
_atom_site_fract_x
_atom_site_fract_y
_atom_site_fract_z
Br1 Br -0.06968(5) 0.066623(13) 0.49885(10)
K1 K 0.15329(9) -0.00653(2) 1.01716(18)
S1 S 0.09151(10) 0.04335(2) 0.73436(19)
O1 O 0.0096(3) 0.03331(7) 0.8626(6)
O2 O 0.1906(3) 0.02885(7) 0.7241(7)
O3 O 0.2761(4) -0.03137(8) 0.7404(8)
H1 H 0.234(5) -0.0403(11) 0.683(9)
H2 H 0.314(5) -0.0400(11) 0.807(9)
O4 O 0.0000 0.0000 1.3142(9)
H3 H 0.031(6) 0.0087(12) 1.388(9)
N1 N 0.0555(3) 0.04649(9) 0.5166(7)
C1 C 0.1275(5) 0.07197(11) 0.8363(8)
C2 C 0.2037(4) 0.08730(11) 0.7475(11)
C3 C 0.2281(6) 0.10908(13) 0.8424(12)
H4 H 0.2786 0.1196 0.7877
C4 C 0.1789(6) 0.11525(14) 1.0151(14)
H5 H 0.1968 0.1298 1.0760
C5 C 0.1040(7) 0.10007(15) 1.0968(12)
H6 H 0.0700 0.1045 1.2120
C6 C 0.0784(5) 0.07831(11) 1.0103(10)
H7 H 0.0284 0.0679 1.0680
C7 C 0.2617(6) 0.08176(15) 0.5606(11)
H8 H 0.2225 0.0889 0.4546
H9 H 0.2656 0.0645 0.5428
H10 H 0.3341 0.0884 0.5651
Br1A Br 0.06968(5) -0.066623(13) 0.49885(10)
K1A K -0.15329(9) 0.00653(2) 1.01716(18)
K1I K 0.34671(9) 0.00653(2) 0.51716(18)
K1H K -0.34671(9) -0.00653(2) 0.51716(18)
K1I_2 K 0.34671(9) 0.00653(2) 1.51716(18)
S1A S -0.09151(10) -0.04335(2) 0.73436(19)
O1A O -0.0096(3) -0.03331(7) 0.8626(6)
O2A O -0.1906(3) -0.02885(7) 0.7241(7)
O2I O 0.3094(3) -0.02885(7) 1.2241(7)
O2H O -0.3094(3) 0.02885(7) 1.2241(7)
O3I O 0.2239(4) 0.03137(8) 1.2404(8)
O3A O -0.2761(4) 0.03137(8) 0.7404(8)
O3H O -0.2239(4) -0.03137(8) 1.2404(8)
H1I H 0.266(5) 0.0403(11) 1.183(9)
H1A H -0.234(5) 0.0403(11) 0.683(9)
H1H H -0.266(5) -0.0403(11) 1.183(9)
H2I H 0.186(5) 0.0400(11) 1.307(9)
H2A H -0.314(5) 0.0400(11) 0.807(9)
H2H H -0.186(5) -0.0400(11) 1.307(9)
H3A H -0.031(6) -0.0087(12) 1.388(9)
N1A N -0.0555(3) -0.04649(9) 0.5166(7)
C1A C -0.1275(5) -0.07197(11) 0.8363(8)
C2A C -0.2037(4) -0.08730(11) 0.7475(11)
C3A C -0.2281(6) -0.10908(13) 0.8424(12)
H4A H -0.2786 -0.1196 0.7877
C4A C -0.1789(6) -0.11525(14) 1.0151(14)
H5A H -0.1968 -0.1298 1.0760
C5A C -0.1040(7) -0.10007(15) 1.0968(12)
H6A H -0.0700 -0.1045 1.2120
C6A C -0.0784(5) -0.07831(11) 1.0103(10)
H7A H -0.0284 -0.0679 1.0680
C7A C -0.2617(6) -0.08176(15) 0.5606(11)
H8A H -0.2225 -0.0889 0.4546
H9A H -0.2656 -0.0645 0.5428
H10A H -0.3341 -0.0884 0.5651
loop_
_geom_bond_atom_site_label_1
_geom_bond_atom_site_label_2
_geom_bond_site_symmetry_1
_geom_bond_site_symmetry_2
Br1 N1 1_555 1_555
K1 O1 1_555 1_555
S1 O1 1_555 1_555
O1 K1A 1_555 1_555
O2 K1 1_555 1_555
O3 K1 1_555 1_555
H1 O3 1_555 1_555
H2 O3 1_555 1_555
O4 K1 1_555 1_555
H3 O4 1_555 1_555
N1 S1 1_555 1_555
C1 S1 1_555 1_555
C2 C1 1_555 1_555
C3 C2 1_555 1_555
H4 C3 1_555 1_555
C4 C3 1_555 1_555
H5 C4 1_555 1_555
C5 C4 1_555 1_555
H6 C5 1_555 1_555
C6 C1 1_555 1_555
H7 C6 1_555 1_555
C7 C2 1_555 1_555
H8 C7 1_555 1_555
H9 C7 1_555 1_555
H10 C7 1_555 1_555
Br1A N1A 1_555 1_555
K1A O4 1_555 1_555
K1I O2 1_555 1_555
K1H O2A 1_555 1_555
K1I_2 O2I 1_555 1_555
S1A O1A 1_555 1_555
O1A K1 1_555 1_555
O2A K1A 1_555 1_555
O2I K1 1_555 1_555
O2H K1A 1_555 1_555
O3I K1 1_555 1_555
O3A K1A 1_555 1_555
O3H K1A 1_555 1_555
H1I O3I 1_555 1_555
H1A O3A 1_555 1_555
H1H O3H 1_555 1_555
H2I O3I 1_555 1_555
H2A O3A 1_555 1_555
H2H O3H 1_555 1_555
H3A O4 1_555 1_555
N1A S1A 1_555 1_555
C1A S1A 1_555 1_555
C2A C1A 1_555 1_555
C3A C2A 1_555 1_555
H4A C3A 1_555 1_555
C4A C3A 1_555 1_555
H5A C4A 1_555 1_555
C5A C4A 1_555 1_555
H6A C5A 1_555 1_555
C6A C1A 1_555 1_555
H7A C6A 1_555 1_555
C7A C2A 1_555 1_555
H8A C7A 1_555 1_555
H9A C7A 1_555 1_555
H10A C7A 1_555 1_555
S1 O2 1_555 1_555
O3 K1I 1_555 1_555
C5 C6 1_555 1_555
K1A O1A 1_555 1_555
K1H O3A 1_555 1_555
K1I_2 O3I 1_555 1_555
S1A O2A 1_555 1_555
C5A C6A 1_555 1_555

#END
