
#######################################################################
#
#                 Cambridge Crystallographic Data Centre
#                                CCDC 
#
#######################################################################
#
# If this CIF has been generated from an entry in the Cambridge 
# Structural Database, then it will include bibliographic, chemical, 
# crystal, experimental, refinement or atomic coordinate data resulting 
# from the CCDC's data processing and validation procedures.
#
#######################################################################

data_AWOGAU
_symmetry_cell_setting           monoclinic
_symmetry_space_group_name_H-M   'P 21/c'
_symmetry_Int_Tables_number      14
_space_group_name_Hall           '-P 2ybc'
loop_
_symmetry_equiv_pos_site_id
_symmetry_equiv_pos_as_xyz
1 x,y,z
2 -x,1/2+y,1/2-z
3 -x,-y,-z
4 x,1/2-y,1/2+z
_cell_length_a                   3.8400(2)
_cell_length_b                   15.4075(7)
_cell_length_c                   11.5400(9)
_cell_angle_alpha                90
_cell_angle_beta                 92.600(4)
_cell_angle_gamma                90
_cell_volume                     682.059
loop_
_atom_site_label
_atom_site_type_symbol
_atom_site_fract_x
_atom_site_fract_y
_atom_site_fract_z
Cu1 Cu 0.0000 -0.5000 0.5000
Na1 Na -0.5000 -0.5000 0.0000
S1 S -0.2779(3) -0.51343(8) 0.33190(10)
S2 S 0.0176(3) -0.35880(7) 0.48543(10)
O1 O 0.0506(9) -0.5842(3) 0.0897(3)
H1 H -0.106(16) -0.3597(17) -0.085(7)
H2 H -0.02(3) -0.456(7) -0.144(9)
N1 N -0.4498(9) -0.3935(3) 0.1741(3)
N2 N -0.2463(9) -0.2562(3) 0.3211(3)
C1 C -0.3113(10) -0.4071(3) 0.2813(4)
C2 C -0.1989(11) -0.3378(3) 0.3534(4)
C3 C -0.3994(12) -0.2431(3) 0.2144(5)
H3 H -0.4430 -0.1860 0.1892
C4 C -0.4928(12) -0.3107(3) 0.1422(4)
H4 H -0.5903 -0.2984 0.0678
Na1_2 Na 0.5000 -0.5000 0.0000
O1B O -0.0506(9) -0.4158(3) -0.0897(3)
O1B_2 O -1.0506(9) -0.4158(3) -0.0897(3)
O1_2 O -0.9494(9) -0.5842(3) 0.0897(3)
S1B S 0.2779(3) -0.48657(8) 0.66810(10)
S2B S -0.0176(3) -0.64120(7) 0.51457(10)
C2B C 0.1989(11) -0.6622(3) 0.6466(4)
N2B N 0.2463(9) -0.7438(3) 0.6789(3)
C3B C 0.3994(12) -0.7569(3) 0.7856(5)
H3B H 0.4430 -0.8140 0.8108
C4B C 0.4928(12) -0.6893(3) 0.8578(4)
N1B N 0.4498(9) -0.6065(3) 0.8259(3)
Na1_3 Na 0.5000 -0.5000 1.0000
C1B C 0.3113(10) -0.5929(3) 0.7187(4)
H4B H 0.5903 -0.7016 0.9322
N1B_2 N -0.5502(9) -0.6065(3) -0.1741(3)
H1B H 0.106(16) -0.6403(17) 0.085(7)
H2B H 0.02(3) -0.544(7) 0.144(9)
H1_2 H -1.106(16) -0.3597(17) -0.085(7)
H2_2 H -1.02(3) -0.456(7) -0.144(9)
H1B_2 H -0.894(16) -0.6403(17) 0.085(7)
H2B_2 H -0.98(3) -0.544(7) 0.144(9)
loop_
_geom_bond_atom_site_label_1
_geom_bond_atom_site_label_2
_geom_bond_site_symmetry_1
_geom_bond_site_symmetry_2
Cu1 S1 1_555 1_555
Na1 O1 1_555 1_555
S1 C1 1_555 1_555
S2 Cu1 1_555 1_555
O1 Na1_2 1_555 1_555
H1 O1B 1_555 1_555
H2 O1B 1_555 1_555
N1 Na1 1_555 1_555
N2 C2 1_555 1_555
C1 N1 1_555 1_555
C2 S2 1_555 1_555
C3 N2 1_555 1_555
H3 C3 1_555 1_555
C4 N1 1_555 1_555
H4 C4 1_555 1_555
Na1_2 O1B 1_555 1_555
O1B Na1 1_555 1_555
O1B_2 Na1 1_555 1_555
O1_2 Na1 1_555 1_555
S1B Cu1 1_555 1_555
S2B Cu1 1_555 1_555
C2B S2B 1_555 1_555
N2B C2B 1_555 1_555
C3B N2B 1_555 1_555
H3B C3B 1_555 1_555
C4B C3B 1_555 1_555
N1B C4B 1_555 1_555
Na1_3 N1B 1_555 1_555
C1B S1B 1_555 1_555
H4B C4B 1_555 1_555
N1B_2 Na1 1_555 1_555
H1B O1 1_555 1_555
H2B O1 1_555 1_555
H1_2 O1B_2 1_555 1_555
H2_2 O1B_2 1_555 1_555
H1B_2 O1_2 1_555 1_555
H2B_2 O1_2 1_555 1_555
C1 C2 1_555 1_555
C3 C4 1_555 1_555
C2B C1B 1_555 1_555
N1B C1B 1_555 1_555

#END
