
#######################################################################
#
#                 Cambridge Crystallographic Data Centre
#                                CCDC 
#
#######################################################################
#
# If this CIF has been generated from an entry in the Cambridge 
# Structural Database, then it will include bibliographic, chemical, 
# crystal, experimental, refinement or atomic coordinate data resulting 
# from the CCDC's data processing and validation procedures.
#
#######################################################################

data_AWOHOK
_symmetry_cell_setting           monoclinic
_symmetry_space_group_name_H-M   'C 2/c'
_symmetry_Int_Tables_number      15
_space_group_name_Hall           '-C 2yn'
loop_
_symmetry_equiv_pos_site_id
_symmetry_equiv_pos_as_xyz
1 x,y,z
2 1/2+x,1/2+y,z
3 -x,y,1/2-z
4 1/2-x,1/2+y,1/2-z
5 -x,-y,-z
6 1/2-x,1/2-y,-z
7 x,-y,1/2+z
8 1/2+x,1/2-y,1/2+z
_cell_length_a                   22.118(8)
_cell_length_b                   6.840(2)
_cell_length_c                   17.057(6)
_cell_angle_alpha                90
_cell_angle_beta                 93.407(5)
_cell_angle_gamma                90
_cell_volume                     2575.94
loop_
_atom_site_label
_atom_site_type_symbol
_atom_site_fract_x
_atom_site_fract_y
_atom_site_fract_z
I1 I 0.53637(2) 0.41499(7) 0.12116(3)
Cd1 Cd 0.5000 0.60117(8) 0.2500
N1 N 0.43399(19) 0.8146(7) 0.1908(2)
N2 N 0.44190(19) 0.8589(6) 0.1144(2)
H1 H 0.4695 0.8045 0.0863
C1 C 0.3667(4) 0.9231(11) 0.2924(4)
H2 H 0.3239 0.8970 0.2889
H3 H 0.3741 1.0464 0.3181
H4 H 0.3873 0.8213 0.3220
C2 C 0.3894(2) 0.9304(8) 0.2115(3)
C3 C 0.3678(2) 1.0496(8) 0.1477(3)
C4 C 0.4023(2) 0.9968(8) 0.0868(3)
C5 C 0.4040(3) 1.0599(9) 0.0030(3)
H5 H 0.3636 1.0599 -0.0210
H6 H 0.4287 0.9710 -0.0246
H7 H 0.4206 1.1892 0.0009
C6 C 0.3180(3) 1.1960(10) 0.1503(3)
H8 H 0.3353 1.3203 0.1674
H9 H 0.2905 1.1547 0.1893
C7 C 0.2817(2) 1.2271(8) 0.0728(3)
C8 C 0.2379(2) 1.0890(7) 0.0473(4)
C9 C 0.2061(2) 1.1132(8) -0.0256(3)
C10 C 0.1571(3) 0.9684(10) -0.0503(5)
H10 H 0.1639 0.9195 -0.1018
H11 H 0.1183 1.0318 -0.0512
H12 H 0.1578 0.8617 -0.0137
C11 C 0.2249(3) 0.9125(9) 0.0990(5)
H13 H 0.2565 0.8998 0.1397
H14 H 0.2232 0.7962 0.0675
H15 H 0.1868 0.9310 0.1223
I1B I 0.46363(2) 0.41499(7) 0.37884(3)
Cd1E Cd 0.0000 1.89883(8) -0.2500
N1E N 0.06601(19) 1.6854(7) -0.1908(2)
N1B N 0.56601(19) 0.8146(7) 0.3092(2)
N2E N 0.05810(19) 1.6411(6) -0.1144(2)
H1E H 0.0305 1.6955 -0.0863
C1E C 0.1333(4) 1.5769(11) -0.2924(4)
H2E H 0.1761 1.6030 -0.2889
H3E H 0.1259 1.4536 -0.3181
H4E H 0.1127 1.6787 -0.3220
C2E C 0.1106(2) 1.5696(8) -0.2115(3)
C3E C 0.1322(2) 1.4504(8) -0.1477(3)
C4E C 0.0977(2) 1.5032(8) -0.0868(3)
C5E C 0.0960(3) 1.4401(9) -0.0030(3)
H5E H 0.1364 1.4401 0.0210
H6E H 0.0713 1.5290 0.0246
H7E H 0.0794 1.3108 -0.0009
C6E C 0.1820(3) 1.3040(10) -0.1503(3)
H8E H 0.1647 1.1797 -0.1674
H9E H 0.2095 1.3453 -0.1893
C7E C 0.2183(2) 1.2729(8) -0.0728(3)
C8E C 0.2621(2) 1.4110(7) -0.0473(4)
C9E C 0.2939(2) 1.3868(8) 0.0256(3)
C10E C 0.3429(3) 1.5316(10) 0.0503(5)
H10E H 0.3361 1.5805 0.1018
H11E H 0.3817 1.4682 0.0512
H12E H 0.3422 1.6383 0.0137
C11E C 0.2751(3) 1.5875(9) -0.0990(5)
H13E H 0.2435 1.6002 -0.1397
H14E H 0.2768 1.7038 -0.0675
H15E H 0.3132 1.5690 -0.1223
loop_
_geom_bond_atom_site_label_1
_geom_bond_atom_site_label_2
_geom_bond_site_symmetry_1
_geom_bond_site_symmetry_2
I1 Cd1 1_555 1_555
Cd1 N1 1_555 1_555
N1 N2 1_555 1_555
N2 H1 1_555 1_555
C1 H2 1_555 1_555
H3 C1 1_555 1_555
H4 C1 1_555 1_555
C2 N1 1_555 1_555
C3 C2 1_555 1_555
C4 N2 1_555 1_555
C5 C4 1_555 1_555
H5 C5 1_555 1_555
H6 C5 1_555 1_555
H7 C5 1_555 1_555
C6 C3 1_555 1_555
H8 C6 1_555 1_555
H9 C6 1_555 1_555
C7 C6 1_555 1_555
C8 C7 1_555 1_555
C9 C8 1_555 1_555
C10 C9 1_555 1_555
H10 C10 1_555 1_555
H11 C10 1_555 1_555
H12 C10 1_555 1_555
C11 C8 1_555 1_555
H13 C11 1_555 1_555
H14 C11 1_555 1_555
H15 C11 1_555 1_555
I1B Cd1 1_555 1_555
Cd1E N1E 1_555 1_555
N1E N2E 1_555 1_555
N1B Cd1 1_555 1_555
N2E H1E 1_555 1_555
C1E H2E 1_555 1_555
H3E C1E 1_555 1_555
H4E C1E 1_555 1_555
C2E N1E 1_555 1_555
C3E C2E 1_555 1_555
C4E N2E 1_555 1_555
C5E C4E 1_555 1_555
H5E C5E 1_555 1_555
H6E C5E 1_555 1_555
H7E C5E 1_555 1_555
C6E C3E 1_555 1_555
H8E C6E 1_555 1_555
H9E C6E 1_555 1_555
C7E C9 1_555 1_555
C8E C7E 1_555 1_555
C9E C7 1_555 1_555
C10E C9E 1_555 1_555
H10E C10E 1_555 1_555
H11E C10E 1_555 1_555
H12E C10E 1_555 1_555
C11E C8E 1_555 1_555
H13E C11E 1_555 1_555
H14E C11E 1_555 1_555
H15E C11E 1_555 1_555
C1 C2 1_555 1_555
C3 C4 1_555 1_555
C1E C2E 1_555 1_555
C3E C4E 1_555 1_555
C6E C7E 1_555 1_555
C8E C9E 1_555 1_555

#END
