
#######################################################################
#
#                 Cambridge Crystallographic Data Centre
#                                CCDC 
#
#######################################################################
#
# If this CIF has been generated from an entry in the Cambridge 
# Structural Database, then it will include bibliographic, chemical, 
# crystal, experimental, refinement or atomic coordinate data resulting 
# from the CCDC's data processing and validation procedures.
#
#######################################################################

data_AWOKAZ
_symmetry_cell_setting           monoclinic
_symmetry_space_group_name_H-M   'P 21/n'
_symmetry_Int_Tables_number      14
_space_group_name_Hall           '-P 2yn'
loop_
_symmetry_equiv_pos_site_id
_symmetry_equiv_pos_as_xyz
1 x,y,z
2 1/2-x,1/2+y,1/2-z
3 -x,-y,-z
4 1/2+x,1/2-y,1/2+z
_cell_length_a                   8.4851(9)
_cell_length_b                   15.1215(14)
_cell_length_c                   19.490(2)
_cell_angle_alpha                90
_cell_angle_beta                 103.826(2)
_cell_angle_gamma                90
_cell_volume                     2428.26
loop_
_atom_site_label
_atom_site_type_symbol
_atom_site_fract_x
_atom_site_fract_y
_atom_site_fract_z
Hg1 Hg 0.65054(5) 0.63785(2) 0.73300(2)
Cl1 Cl 0.3880(4) 0.5916(3) 0.7371(2)
Cl2 Cl 0.7868(4) 0.77413(15) 0.72364(19)
N1 N 0.7052(9) 0.5581(4) 0.6351(4)
N2 N 0.5616(9) 0.3645(4) 0.5347(5)
H1 H 0.4912 0.3482 0.5589
N3 N 1.2859(9) 0.1242(4) 0.5624(4)
H2 H 1.2888 0.1819 0.5685
N4 N 1.6587(8) 0.0700(4) 0.6783(3)
C1 C 0.6262(10) 0.4841(5) 0.6124(5)
H3 H 0.5528 0.4619 0.6366
C2 C 0.6491(10) 0.4383(5) 0.5535(5)
C3 C 0.7569(11) 0.4741(7) 0.5156(5)
H4 H 0.7720 0.4457 0.4753
C4 C 0.8377(13) 0.5496(7) 0.5381(6)
H5 H 0.9108 0.5734 0.5144
C5 C 0.8089(11) 0.5909(6) 0.5976(6)
H6 H 0.8631 0.6435 0.6127
C6 C 0.5810(12) 0.3099(7) 0.4743(5)
H7 H 0.5769 0.3485 0.4342
H8 H 0.4894 0.2698 0.4617
C7 C 0.7345(10) 0.2565(5) 0.4868(5)
C8 C 0.7897(12) 0.2164(6) 0.5502(6)
H9 H 0.7379 0.2257 0.5866
C9 C 0.9204(13) 0.1631(7) 0.5601(5)
H10 H 0.9559 0.1349 0.6035
C10 C 1.0050(10) 0.1482(5) 0.5074(5)
C11 C 0.9536(11) 0.1896(6) 0.4447(5)
H11 H 1.0070 0.1811 0.4087
C12 C 0.8207(12) 0.2447(6) 0.4349(5)
H12 H 0.7875 0.2749 0.3923
C13 C 1.1469(10) 0.0856(6) 0.5190(6)
H13 H 1.1204 0.0317 0.5408
H14 H 1.1685 0.0701 0.4738
C14 C 1.5277(9) 0.1115(5) 0.6468(4)
H15 H 1.5119 0.1688 0.6610
C15 C 1.4147(9) 0.0755(5) 0.5950(4)
C16 C 1.4362(11) -0.0123(5) 0.5778(5)
H16 H 1.3588 -0.0406 0.5429
C17 C 1.5701(12) -0.0560(6) 0.6123(5)
H17 H 1.5835 -0.1152 0.6020
C18 C 1.6827(11) -0.0152(5) 0.6607(5)
H18 H 1.7778 -0.0446 0.6825
Hg1A Hg 1.84946(5) 0.13785(2) 0.76700(2)
N4A N 0.8413(8) 0.5700(4) 0.8217(3)
O1 O 0.300(4) 0.314(2) 0.6094(14)
N5 N 0.181(3) 0.3560(13) 0.7007(11)
C19 C 0.303(3) 0.3275(14) 0.6732(14)
H19 H 0.4011 0.3163 0.7053
C20 C 0.025(3) 0.375(2) 0.6545(18)
H20 H 0.0333 0.4262 0.6267
H21 H -0.0525 0.3856 0.6823
H22 H -0.0096 0.3252 0.6239
C21 C 0.180(5) 0.380(2) 0.7725(13)
H23 H 0.1230 0.4349 0.7723
H24 H 0.2899 0.3868 0.7998
H25 H 0.1273 0.3346 0.7931
C22? C 0.200(3) 0.3494(13) 0.6242(13)
C23? C 0.052(4) 0.416(2) 0.712(2)
C24? C 0.308(3) 0.344(2) 0.7492(15)
H26? H 0.1203 0.3654 0.5844
H27? H -0.0339 0.3751 0.7128
H28? H 0.0113 0.4629 0.6793
H29? H 0.0940 0.4398 0.7580
H30? H 0.3351 0.2828 0.7443
H31? H 0.2704 0.3509 0.7917
H32? H 0.4020 0.3798 0.7517
N6? N 0.181(3) 0.3701(11) 0.6889(12)
O2? O 0.323(4) 0.309(2) 0.6172(14)
loop_
_geom_bond_atom_site_label_1
_geom_bond_atom_site_label_2
_geom_bond_site_symmetry_1
_geom_bond_site_symmetry_2
Hg1 Cl1 1_555 1_555
Cl2 Hg1 1_555 1_555
N1 Hg1 1_555 1_555
N2 H1 1_555 1_555
N3 H2 1_555 1_555
N4 C14 1_555 1_555
C1 N1 1_555 1_555
H3 C1 1_555 1_555
C2 N2 1_555 1_555
C3 C2 1_555 1_555
H4 C3 1_555 1_555
C4 C3 1_555 1_555
H5 C4 1_555 1_555
C5 N1 1_555 1_555
H6 C5 1_555 1_555
C6 N2 1_555 1_555
H7 C6 1_555 1_555
H8 C6 1_555 1_555
C7 C6 1_555 1_555
C8 C7 1_555 1_555
H9 C8 1_555 1_555
C9 C8 1_555 1_555
H10 C9 1_555 1_555
C10 C9 1_555 1_555
C11 C10 1_555 1_555
H11 C11 1_555 1_555
C12 C7 1_555 1_555
H12 C12 1_555 1_555
C13 N3 1_555 1_555
H13 C13 1_555 1_555
H14 C13 1_555 1_555
C14 H15 1_555 1_555
C15 N3 1_555 1_555
C16 C15 1_555 1_555
H16 C16 1_555 1_555
C17 C16 1_555 1_555
H17 C17 1_555 1_555
C18 N4 1_555 1_555
H18 C18 1_555 1_555
O1 C19 1_555 1_555
N5 C19 1_555 1_555
C19 H19 1_555 1_555
C20 N5 1_555 1_555
H20 C20 1_555 1_555
H21 C20 1_555 1_555
H22 C20 1_555 1_555
C21 N5 1_555 1_555
H23 C21 1_555 1_555
H24 C21 1_555 1_555
H25 C21 1_555 1_555
Hg1A N4 1_555 1_555
N4A Hg1 1_555 1_555
C1 C2 1_555 1_555
C4 C5 1_555 1_555
C10 C13 1_555 1_555
C11 C12 1_555 1_555
C14 C15 1_555 1_555
C17 C18 1_555 1_555

#END
