
#######################################################################
#
#                 Cambridge Crystallographic Data Centre
#                                CCDC 
#
#######################################################################
#
# If this CIF has been generated from an entry in the Cambridge 
# Structural Database, then it will include bibliographic, chemical, 
# crystal, experimental, refinement or atomic coordinate data resulting 
# from the CCDC's data processing and validation procedures.
#
#######################################################################

data_AWOLUU
_symmetry_cell_setting           orthorhombic
_symmetry_space_group_name_H-M   'C m c 21'
_symmetry_Int_Tables_number      36
_space_group_name_Hall           'C 2n -2'
loop_
_symmetry_equiv_pos_site_id
_symmetry_equiv_pos_as_xyz
1 x,y,z
2 -x,-y,1/2+z
3 x,-y,1/2+z
4 -x,y,z
5 1/2+x,1/2+y,z
6 1/2-x,1/2-y,1/2+z
7 1/2+x,1/2-y,1/2+z
8 1/2-x,1/2+y,z
_cell_length_a                   23.8174(4)
_cell_length_b                   10.9141(2)
_cell_length_c                   7.46450(10)
_cell_angle_alpha                90
_cell_angle_beta                 90
_cell_angle_gamma                90
_cell_volume                     1940.36
loop_
_atom_site_label
_atom_site_type_symbol
_atom_site_fract_x
_atom_site_fract_y
_atom_site_fract_z
K1 K 0.5000 0.39021(4) 0.59975(5)
K2 K 0.5000 0.05477(3) 0.26065(6)
S1 S 0.404982(11) 0.35192(2) 0.25404(4)
O1 O 0.42926(4) 0.47094(8) 0.30427(12)
O2 O 0.42708(4) 0.25122(8) 0.36386(12)
N1 N 0.41122(4) 0.31915(11) 0.05418(15)
H1 H 0.4057(7) 0.3869(13) -0.007(2)
N2 N 0.15806(5) 0.38097(11) 0.38621(15)
H2 H 0.1423(6) 0.3121(13) 0.430(2)
H3 H 0.1402(6) 0.4057(14) 0.285(2)
C1 C 0.33256(5) 0.36379(11) 0.30816(17)
C2 C 0.30175(5) 0.46150(10) 0.23864(18)
H4 H 0.3202 0.5243 0.1732
C3 C 0.24417(5) 0.46705(10) 0.26498(19)
H5 H 0.2234 0.5342 0.2183
C4 C 0.21636(5) 0.37450(11) 0.35982(16)
C5 C 0.24773(5) 0.27905(12) 0.43346(18)
H6 H 0.2295 0.2175 0.5023
C6 C 0.30546(5) 0.27342(11) 0.40674(17)
H7 H 0.3265 0.2075 0.4561
O3 O 0.58605(4) -0.04452(9) 0.07181(13)
H8 H 0.6103(6) 0.0020(18) 0.023(3)
H9 H 0.5880(8) -0.1110(15) 0.019(3)
O4 O 0.5000 0.18900(13) 0.8893(2)
H10 H 0.4747(6) 0.2267(16) 0.929(3)
K1A K 0.5000 0.60979(4) 0.09975(5)
K1A_2 K 0.5000 0.60979(4) 1.09975(5)
K2A K 0.5000 -0.05477(3) 0.76065(6)
K2A_2 K 0.5000 -0.05477(3) -0.23935(6)
K2_2 K 0.5000 0.05477(3) 1.26065(6)
K2A_3 K 0.5000 0.94523(3) 0.76065(6)
S1A S 0.595018(11) 0.64808(2) 0.75404(4)
O1A O 0.57074(4) 0.52906(8) 0.80427(12)
O1B O 0.42926(4) 0.52906(8) 0.80427(12)
O1C O 0.57074(4) 0.47094(8) 0.30427(12)
O2A O 0.57292(4) 0.74878(8) 0.86386(12)
O2C O 0.57292(4) 0.25122(8) 0.36386(12)
N1A N 0.58878(4) 0.68085(11) 0.55418(15)
H1A H 0.5943(7) 0.6131(13) 0.493(2)
N2A N 0.84194(5) 0.61903(11) 0.88621(15)
H2A H 0.8577(6) 0.6879(13) 0.930(2)
H3A H 0.8598(6) 0.5943(14) 0.785(2)
C1A C 0.66744(5) 0.63621(11) 0.80816(17)
C2A C 0.69825(5) 0.53850(10) 0.73864(18)
H4A H 0.6798 0.4757 0.6732
C3A C 0.75583(5) 0.53295(10) 0.76498(19)
H5A H 0.7766 0.4658 0.7183
C4A C 0.78364(5) 0.62550(11) 0.85982(16)
C5A C 0.75227(5) 0.72095(12) 0.93346(18)
H6A H 0.7705 0.7825 1.0023
C6A C 0.69454(5) 0.72658(11) 0.90674(17)
H7A H 0.6735 0.7925 0.9561
O3A O 0.41395(4) 0.04452(9) 0.57181(13)
O3B O 0.58605(4) 0.04452(9) 0.57181(13)
O3C O 0.41395(4) -0.04452(9) 0.07181(13)
H8A H 0.3897(6) -0.0020(18) 0.523(3)
H8B H 0.6103(6) -0.0020(18) 0.523(3)
H8C H 0.3897(6) 0.0020(18) 0.023(3)
H9A H 0.4120(8) 0.1110(15) 0.519(3)
H9B H 0.5880(8) 0.1110(15) 0.519(3)
H9C H 0.4120(8) -0.1110(15) 0.019(3)
O4_2 O 0.5000 0.18900(13) -0.1107(2)
O4A O 0.5000 -0.18900(13) 0.3893(2)
H10C H 0.5253(6) 0.2267(16) 0.929(3)
H10_2 H 0.4747(6) 0.2267(16) -0.071(3)
H10C_2 H 0.5253(6) 0.2267(16) -0.071(3)
H10A H 0.5253(6) -0.2267(16) 0.429(3)
H10B H 0.4747(6) -0.2267(16) 0.429(3)
loop_
_geom_bond_atom_site_label_1
_geom_bond_atom_site_label_2
_geom_bond_site_symmetry_1
_geom_bond_site_symmetry_2
K1 O1 1_555 1_555
K2 O2 1_555 1_555
S1 O1 1_555 1_555
O1 K1A 1_555 1_555
O2 K1 1_555 1_555
N1 S1 1_555 1_555
H1 N1 1_555 1_555
N2 H2 1_555 1_555
H3 N2 1_555 1_555
C1 S1 1_555 1_555
C2 C1 1_555 1_555
H4 C2 1_555 1_555
C3 C2 1_555 1_555
H5 C3 1_555 1_555
C4 N2 1_555 1_555
C5 C4 1_555 1_555
H6 C5 1_555 1_555
C6 C1 1_555 1_555
H7 C6 1_555 1_555
O3 K2 1_555 1_555
H8 O3 1_555 1_555
H9 O3 1_555 1_555
O4 K1 1_555 1_555
H10 O4 1_555 1_555
K1A O1C 1_555 1_555
K1A_2 O1A 1_555 1_555
K2A O4 1_555 1_555
K2A_2 O3 1_555 1_555
K2_2 O4 1_555 1_555
K2A_3 O2A 1_555 1_555
S1A O1A 1_555 1_555
O1A K1 1_555 1_555
O1B K1 1_555 1_555
O1C K1 1_555 1_555
O2A K1A_2 1_555 1_555
O2C K1 1_555 1_555
N1A S1A 1_555 1_555
H1A N1A 1_555 1_555
N2A H2A 1_555 1_555
H3A N2A 1_555 1_555
C1A S1A 1_555 1_555
C2A C1A 1_555 1_555
H4A C2A 1_555 1_555
C3A C2A 1_555 1_555
H5A C3A 1_555 1_555
C4A N2A 1_555 1_555
C5A C4A 1_555 1_555
H6A C5A 1_555 1_555
C6A C1A 1_555 1_555
H7A C6A 1_555 1_555
O3A K2 1_555 1_555
O3B K2 1_555 1_555
O3C K2 1_555 1_555
H8A O3A 1_555 1_555
H8B O3B 1_555 1_555
H8C O3C 1_555 1_555
H9A O3A 1_555 1_555
H9B O3B 1_555 1_555
H9C O3C 1_555 1_555
O4_2 K2 1_555 1_555
O4A K2 1_555 1_555
H10C O4 1_555 1_555
H10_2 O4_2 1_555 1_555
H10C_2 O4_2 1_555 1_555
H10A O4A 1_555 1_555
H10B O4A 1_555 1_555
K2 O2C 1_555 1_555
S1 O2 1_555 1_555
C3 C4 1_555 1_555
C5 C6 1_555 1_555
K1A_2 O1B 1_555 1_555
K2A O3A 1_555 1_555
K2A O3B 1_555 1_555
K2A O4A 1_555 1_555
K2A_2 O3C 1_555 1_555
K2A_2 O4_2 1_555 1_555
S1A O2A 1_555 1_555
C3A C4A 1_555 1_555
C5A C6A 1_555 1_555

#END
