
#######################################################################
#
#                 Cambridge Crystallographic Data Centre
#                                CCDC 
#
#######################################################################
#
# If this CIF has been generated from an entry in the Cambridge 
# Structural Database, then it will include bibliographic, chemical, 
# crystal, experimental, refinement or atomic coordinate data resulting 
# from the CCDC's data processing and validation procedures.
#
#######################################################################

data_AWOLII
_symmetry_cell_setting           orthorhombic
_symmetry_space_group_name_H-M   'P b c n'
_symmetry_Int_Tables_number      60
_space_group_name_Hall           '-P 2n 2ab'
loop_
_symmetry_equiv_pos_site_id
_symmetry_equiv_pos_as_xyz
1 x,y,z
2 1/2-x,1/2-y,1/2+z
3 -x,y,1/2-z
4 1/2+x,1/2-y,-z
5 -x,-y,-z
6 1/2+x,1/2+y,1/2-z
7 x,-y,1/2+z
8 1/2-x,1/2+y,z
_cell_length_a                   15.132(2)
_cell_length_b                   16.687(2)
_cell_length_c                   6.4503(9)
_cell_angle_alpha                90
_cell_angle_beta                 90
_cell_angle_gamma                90
_cell_volume                     1628.75
loop_
_atom_site_label
_atom_site_type_symbol
_atom_site_fract_x
_atom_site_fract_y
_atom_site_fract_z
C1 C 0.59471(10) 0.18494(8) 0.0429(2)
H1 H 0.5466 0.1895 -0.0509
C2 C 0.65854(10) 0.12686(8) 0.0035(2)
C3 C 0.72901(10) 0.12145(9) 0.1412(3)
H2 H 0.7745 0.0832 0.1193
C4 C 0.73227(10) 0.17218(9) 0.3100(3)
H3 H 0.7800 0.1691 0.4054
C5 C 0.66527(9) 0.22760(9) 0.3387(2)
H4 H 0.6675 0.2617 0.4564
C6 C 0.65160(13) 0.07315(11) -0.1835(3)
H5 H 0.6325 0.0196 -0.1399
H6 H 0.7094 0.0694 -0.2513
H7 H 0.6084 0.0955 -0.2808
Co1 Co 0.5000 0.325574(15) 0.2500
N1 N 0.59730(8) 0.23485(7) 0.20607(18)
O1 O 0.59964(7) 0.41307(6) 0.21413(16)
H8 H 0.5893(14) 0.4584(10) 0.263(3)
H9 H 0.6013(12) 0.4199(11) 0.088(2)
O2 O 0.52369(7) 0.32565(5) 0.57274(15)
O3 O 0.42370(6) 0.42849(6) 0.69346(15)
S1 S 0.5000 0.37749(3) 0.7500
C1B C 0.40529(10) 0.18494(8) 0.4571(2)
H1B H 0.4534 0.1895 0.5509
C2B C 0.34146(10) 0.12686(8) 0.4965(2)
C3B C 0.27099(10) 0.12145(9) 0.3588(3)
H2B H 0.2255 0.0832 0.3807
C4B C 0.26773(10) 0.17218(9) 0.1900(3)
H3B H 0.2200 0.1691 0.0946
C5B C 0.33473(9) 0.22760(9) 0.1613(2)
H4B H 0.3325 0.2617 0.0436
C6B C 0.34840(13) 0.07315(11) 0.6835(3)
H5B H 0.3675 0.0196 0.6399
H6B H 0.2906 0.0694 0.7513
H7B H 0.3916 0.0955 0.7808
Co1_2 Co 0.5000 0.325574(15) 1.2500
N1B N 0.40270(8) 0.23485(7) 0.29393(18)
O1B O 0.40036(7) 0.41307(6) 0.28587(16)
H8B H 0.4107(14) 0.4584(10) 0.237(3)
H9B H 0.3987(12) 0.4199(11) 0.412(2)
O2B O 0.47631(7) 0.32565(5) 0.92726(15)
O2B_2 O 0.47631(7) 0.32565(5) -0.07274(15)
O3B O 0.57630(6) 0.42849(6) 0.80654(15)
loop_
_geom_bond_atom_site_label_1
_geom_bond_atom_site_label_2
_geom_bond_site_symmetry_1
_geom_bond_site_symmetry_2
C1 H1 1_555 1_555
C2 C1 1_555 1_555
C3 C2 1_555 1_555
H2 C3 1_555 1_555
C4 C3 1_555 1_555
H3 C4 1_555 1_555
C5 C4 1_555 1_555
H4 C5 1_555 1_555
C6 C2 1_555 1_555
H5 C6 1_555 1_555
H6 C6 1_555 1_555
H7 C6 1_555 1_555
Co1 N1 1_555 1_555
N1 C1 1_555 1_555
O1 Co1 1_555 1_555
H8 O1 1_555 1_555
H9 O1 1_555 1_555
O2 Co1 1_555 1_555
O3 S1 1_555 1_555
S1 O2 1_555 1_555
C1B H1B 1_555 1_555
C2B C1B 1_555 1_555
C3B C2B 1_555 1_555
H2B C3B 1_555 1_555
C4B C3B 1_555 1_555
H3B C4B 1_555 1_555
C5B C4B 1_555 1_555
H4B C5B 1_555 1_555
C6B C2B 1_555 1_555
H5B C6B 1_555 1_555
H6B C6B 1_555 1_555
H7B C6B 1_555 1_555
Co1_2 O2B 1_555 1_555
N1B Co1 1_555 1_555
O1B Co1 1_555 1_555
H8B O1B 1_555 1_555
H9B O1B 1_555 1_555
O2B S1 1_555 1_555
O2B_2 Co1 1_555 1_555
O3B S1 1_555 1_555
C5 N1 1_555 1_555
C1B N1B 1_555 1_555
C5B N1B 1_555 1_555

#END
