
#######################################################################
#
#                 Cambridge Crystallographic Data Centre
#                                CCDC 
#
#######################################################################
#
# If this CIF has been generated from an entry in the Cambridge 
# Structural Database, then it will include bibliographic, chemical, 
# crystal, experimental, refinement or atomic coordinate data resulting 
# from the CCDC's data processing and validation procedures.
#
#######################################################################

data_AWONIK
_symmetry_cell_setting           monoclinic
_symmetry_space_group_name_H-M   'P 21/n'
_symmetry_Int_Tables_number      14
_space_group_name_Hall           '-P 2yn'
loop_
_symmetry_equiv_pos_site_id
_symmetry_equiv_pos_as_xyz
1 x,y,z
2 1/2-x,1/2+y,1/2-z
3 -x,-y,-z
4 1/2+x,1/2-y,1/2+z
_cell_length_a                   7.7264(6)
_cell_length_b                   7.2227(6)
_cell_length_c                   12.7608(11)
_cell_angle_alpha                90
_cell_angle_beta                 95.489(2)
_cell_angle_gamma                90
_cell_volume                     708.857
loop_
_atom_site_label
_atom_site_type_symbol
_atom_site_fract_x
_atom_site_fract_y
_atom_site_fract_z
Cd1 Cd 0.73571(3) 0.17322(3) 0.745512(14)
Cl1 Cl 0.51717(10) -0.08486(9) 0.79344(6)
Cl2 Cl 0.97270(10) -0.06290(9) 0.83088(6)
S1 S 0.70167(11) 0.40964(10) 1.09911(6)
N1 N 0.7182(3) 0.3292(3) 0.90672(19)
N2 N 0.7623(3) 0.5146(3) 0.91436(18)
N3 N 0.7988(4) 0.7503(4) 1.0408(2)
H1 H 0.8242 0.8302 0.9947
H2 H 0.7969 0.7827 1.1056
C1 C 0.6831(4) 0.2586(4) 0.9949(2)
H3 H 0.6504 0.1356 1.0016
C2 C 0.7623(4) 0.5757(4) 1.0118(2)
Cd1A Cd 0.76429(3) -0.32678(3) 0.754488(14)
Cd1A_2 Cd 0.76429(3) 0.67322(3) 0.754488(14)
Cl1A Cl 0.98283(10) 0.41514(9) 0.70656(6)
Cl2A Cl 0.52730(10) 0.43710(9) 0.66912(6)
N2A N 0.7377(3) 0.0146(3) 0.58564(18)
loop_
_geom_bond_atom_site_label_1
_geom_bond_atom_site_label_2
_geom_bond_site_symmetry_1
_geom_bond_site_symmetry_2
Cd1 Cl1 1_555 1_555
Cl1 Cd1A 1_555 1_555
Cl2 Cd1 1_555 1_555
S1 C1 1_555 1_555
N1 Cd1 1_555 1_555
N2 N1 1_555 1_555
N3 H1 1_555 1_555
H2 N3 1_555 1_555
C1 N1 1_555 1_555
H3 C1 1_555 1_555
C2 S1 1_555 1_555
Cd1A Cl2 1_555 1_555
Cd1A_2 N2 1_555 1_555
Cl1A Cd1 1_555 1_555
Cl2A Cd1 1_555 1_555
N2A Cd1 1_555 1_555
N2 C2 1_555 1_555
N3 C2 1_555 1_555
Cd1A_2 Cl1A 1_555 1_555
Cd1A_2 Cl2A 1_555 1_555

#END
