
#######################################################################
#
#                 Cambridge Crystallographic Data Centre
#                                CCDC 
#
#######################################################################
#
# If this CIF has been generated from an entry in the Cambridge 
# Structural Database, then it will include bibliographic, chemical, 
# crystal, experimental, refinement or atomic coordinate data resulting 
# from the CCDC's data processing and validation procedures.
#
#######################################################################

data_AWOPEH
_symmetry_cell_setting           triclinic
_symmetry_space_group_name_H-M   'P -1'
_symmetry_Int_Tables_number      2
_space_group_name_Hall           '-P 1'
loop_
_symmetry_equiv_pos_site_id
_symmetry_equiv_pos_as_xyz
1 x,y,z
2 -x,-y,-z
_cell_length_a                   11.533(7)
_cell_length_b                   12.031(7)
_cell_length_c                   12.187(4)
_cell_angle_alpha                72.470(10)
_cell_angle_beta                 73.16
_cell_angle_gamma                68.21
_cell_volume                     1466.72
loop_
_atom_site_label
_atom_site_type_symbol
_atom_site_fract_x
_atom_site_fract_y
_atom_site_fract_z
V1 V 0.31538(7) 0.88948(7) 1.09340(7)
V2 V 0.21379(7) 1.14490(7) 1.15849(7)
V3 V 0.51268(7) 0.85285(7) 0.86336(7)
V4 V 0.40288(7) 1.11426(7) 0.92257(6)
V5 V 0.39333(8) 0.92948(7) 1.30019(7)
Na1 Na 0.3452(2) 0.60285(18) 1.01123(18)
Na2 Na 0.0311(2) 0.4833(2) 1.1350(2)
Na3 Na 0.3854(2) 0.64188(19) 0.55572(18)
O1 O 0.4709(4) 0.4420(3) 0.9072(3)
H1 H 0.4670 0.3652 0.9193
H2 H 0.4778 0.4654 0.8307
O2 O 0.2324(4) 0.4781(3) 1.1587(3)
H3 H 0.2621 0.3913 1.1637
H4 H 0.2252 0.4826 1.2395
O3 O -0.0053(3) 0.6994(3) 1.0846(3)
H5 H 0.0631 0.7186 1.0313
H6 H -0.0648 0.7405 1.0448
O4 O -0.0877(4) 0.4296(4) 1.3157(4)
H7 H -0.1419 0.4861 1.3621
H8 H -0.1343 0.3846 1.3098
O5 O 0.1486(3) 0.4586(3) 0.9465(3)
H9 H 0.2150 0.3960 0.8897
H10 H 0.2046 0.5015 0.9232
O6 O 0.5192(4) 0.6116(4) 0.6827(4)
H11 H 0.5825 0.5323 0.7121
H12 H 0.4841 0.6774 0.7280
O7 O 0.4322(4) 0.4168(3) 0.6100(4)
H13 H 0.3567 0.4001 0.6017
H14 H 0.4535 0.3359 0.6665
O8 O 0.2415(4) 0.6743(4) 0.4335(3)
H15 H 0.2991 0.6251 0.3969
H16 H 0.2748 0.7303 0.3639
O9 O 0.2178(4) 0.7450(3) 0.6909(3)
O10 O 0.2039(3) 0.6698(3) 0.8847(3)
O11 O 0.1972(5) 1.4760(4) 0.3931(3)
O12 O 0.2310(4) 1.3718(4) 0.5720(4)
O13 O 0.2552(3) 0.7934(3) 1.0803(3)
O14 O 0.3548(3) 0.9755(3) 0.9257(3)
O15 O 0.1777(3) 1.0193(3) 1.1232(3)
O16 O 0.5032(3) 0.8039(3) 1.0400(3)
O17 O 0.3395(3) 0.8314(3) 1.2464(3)
O18 O 0.0736(3) 1.2419(3) 1.1831(3)
O19 O 0.2546(3) 1.2006(3) 0.9795(3)
O20 O 0.3164(3) 1.2341(3) 1.1559(3)
O21 O 0.5250(3) 0.9528(3) 0.7208(3)
O22 O 0.4154(3) 1.0155(3) 1.1005(3)
O23 O 0.4507(3) 0.7555(3) 0.8529(3)
O24 O 0.4276(3) 1.1691(3) 0.7761(3)
O25 O 0.3935(4) 0.8593(3) 1.4356(3)
O26 O 0.2386(3) 1.0498(3) 1.3038(3)
N1 N 0.1333(3) 0.9932(3) 0.7274(3)
N2 N 0.1310(4) 1.1903(4) 0.5694(3)
C1 C 0.1918(4) 0.7555(4) 0.7946(4)
C2 C 0.1341(5) 0.8811(4) 0.8267(4)
H17 H 0.0478 0.8890 0.8681
H18 H 0.1802 0.8816 0.8806
C3 C 0.2660(4) 0.9874(5) 0.6600(5)
H19 H 0.2973 0.9239 0.6165
H20 H 0.3214 0.9676 0.7134
C4 C 0.2660(5) 1.1102(5) 0.5762(5)
H21 H 0.3075 1.1502 0.6029
H22 H 0.3122 1.0972 0.4994
C5 C 0.0803(5) 1.1033(4) 0.7826(4)
H23 H 0.1391 1.1007 0.8258
H24 H 0.0011 1.1018 0.8363
C6 C 0.0604(5) 1.2220(5) 0.6868(4)
H25 H -0.0288 1.2593 0.6858
H26 H 0.0907 1.2793 0.7018
C7 C 0.0493(5) 1.0106(5) 0.6454(5)
H27 H -0.0380 1.0274 0.6861
H28 H 0.0734 0.9371 0.6173
C8 C 0.0645(5) 1.1174(5) 0.5417(4)
H29 H 0.1130 1.0867 0.4725
H30 H -0.0178 1.1702 0.5267
C9 C 0.1276(6) 1.3033(5) 0.4705(4)
H31 H 0.0403 1.3488 0.4659
H32 H 0.1689 1.2770 0.3979
C10 C 0.1908(5) 1.3892(5) 0.4815(5)
O20A O 0.6836(3) 0.7659(3) 0.8441(3)
O22A O 0.5846(3) 0.9845(3) 0.8995(3)
O16A O 0.4968(3) 1.1961(3) 0.9600(3)
O21A O 0.4750(3) 1.0472(3) 1.2792(3)
O24A O 0.5724(3) 0.8309(3) 1.2239(3)
O1A O 0.5291(4) 0.5580(3) 1.0928(3)
O5A O -0.1486(3) 0.5414(3) 1.0535(3)
O18_2 O 0.0736(3) 0.2419(3) 1.1831(3)
O7A O 0.5678(4) 0.5832(3) 0.3900(4)
O25_2 O 0.3935(4) 0.8593(3) 0.4356(3)
Na1A Na 0.6548(2) 0.39715(18) 0.98877(18)
Na2A Na -0.0311(2) 0.5167(2) 0.8650(2)
Na3A Na 0.6146(2) 0.35812(19) 0.44428(18)
V4A V 0.59712(7) 0.88574(7) 1.07743(6)
Na2_2 Na 0.0311(2) 1.4833(2) 1.1350(2)
V3A V 0.48732(7) 1.14715(7) 1.13664(7)
V5A V 0.60667(8) 1.07052(7) 0.69981(7)
Na3_2 Na 0.3854(2) 0.64188(19) 1.55572(18)
H1A H 0.5330 0.6348 1.0807
H2A H 0.5222 0.5346 1.1693
H9A H -0.2150 0.6040 1.1103
H10A H -0.2046 0.4985 1.0768
H13A H 0.6433 0.5999 0.3983
H14A H 0.5465 0.6641 0.3335
loop_
_geom_bond_atom_site_label_1
_geom_bond_atom_site_label_2
_geom_bond_site_symmetry_1
_geom_bond_site_symmetry_2
V1 O13 1_555 1_555
V2 O15 1_555 1_555
V3 O14 1_555 1_555
V4 O14 1_555 1_555
V5 O17 1_555 1_555
Na1 O1 1_555 1_555
Na2 O2 1_555 1_555
Na3 O6 1_555 1_555
O1 H1 1_555 1_555
H2 O1 1_555 1_555
O2 Na1 1_555 1_555
H3 O2 1_555 1_555
H4 O2 1_555 1_555
O3 Na2 1_555 1_555
H5 O3 1_555 1_555
H6 O3 1_555 1_555
O4 Na2 1_555 1_555
H7 O4 1_555 1_555
H8 O4 1_555 1_555
O5 Na2 1_555 1_555
H9 O5 1_555 1_555
H10 O5 1_555 1_555
O6 H11 1_555 1_555
H12 O6 1_555 1_555
O7 Na3 1_555 1_555
H13 O7 1_555 1_555
H14 O7 1_555 1_555
O8 Na3 1_555 1_555
H15 O8 1_555 1_555
H16 O8 1_555 1_555
O9 Na3 1_555 1_555
O10 Na1 1_555 1_555
O11 C10 1_555 1_555
O12 C10 1_555 1_555
O13 Na1 1_555 1_555
O14 V1 1_555 1_555
O15 V1 1_555 1_555
O16 V1 1_555 1_555
O17 V1 1_555 1_555
O18 V2 1_555 1_555
O19 V2 1_555 1_555
O20 V2 1_555 1_555
O21 V3 1_555 1_555
O22 V1 1_555 1_555
O23 V3 1_555 1_555
O24 V4 1_555 1_555
O25 V5 1_555 1_555
O26 V2 1_555 1_555
N1 C2 1_555 1_555
N2 C4 1_555 1_555
C1 O9 1_555 1_555
C2 C1 1_555 1_555
H17 C2 1_555 1_555
H18 C2 1_555 1_555
C3 N1 1_555 1_555
H19 C3 1_555 1_555
H20 C3 1_555 1_555
C4 C3 1_555 1_555
H21 C4 1_555 1_555
H22 C4 1_555 1_555
C5 N1 1_555 1_555
H23 C5 1_555 1_555
H24 C5 1_555 1_555
C6 N2 1_555 1_555
H25 C6 1_555 1_555
H26 C6 1_555 1_555
C7 N1 1_555 1_555
H27 C7 1_555 1_555
H28 C7 1_555 1_555
C8 N2 1_555 1_555
H29 C8 1_555 1_555
H30 C8 1_555 1_555
C9 N2 1_555 1_555
H31 C9 1_555 1_555
H32 C9 1_555 1_555
C10 C9 1_555 1_555
O20A V3 1_555 1_555
O22A V3 1_555 1_555
O16A V4 1_555 1_555
O21A V5 1_555 1_555
O24A V5 1_555 1_555
O1A Na1 1_555 1_555
O5A Na2 1_555 1_555
O18_2 Na2 1_555 1_555
O7A Na3 1_555 1_555
O25_2 Na3 1_555 1_555
Na1A O1 1_555 1_555
Na2A O5 1_555 1_555
Na3A O7 1_555 1_555
V4A O16 1_555 1_555
Na2_2 O18 1_555 1_555
V3A O20 1_555 1_555
V5A O21 1_555 1_555
Na3_2 O25 1_555 1_555
H1A O1A 1_555 1_555
H2A O1A 1_555 1_555
H9A O5A 1_555 1_555
H10A O5A 1_555 1_555
H13A O7A 1_555 1_555
H14A O7A 1_555 1_555
V2 O22 1_555 1_555
V3 O16 1_555 1_555
V4 O22 1_555 1_555
V4 O19 1_555 1_555
V4 O22A 1_555 1_555
V5 O22 1_555 1_555
V5 O26 1_555 1_555
Na1 O23 1_555 1_555
O10 C1 1_555 1_555
O22 V3A 1_555 1_555
O22 V4A 1_555 1_555
O24 V5A 1_555 1_555
C5 C6 1_555 1_555
C7 C8 1_555 1_555
O22A V4A 1_555 1_555
O22A V5A 1_555 1_555
O16A V3A 1_555 1_555
O21A V3A 1_555 1_555
O24A V4A 1_555 1_555
O1A Na1A 1_555 1_555
O5A Na2A 1_555 1_555
O7A Na3A 1_555 1_555

#END
