
#######################################################################
#
#                 Cambridge Crystallographic Data Centre
#                                CCDC 
#
#######################################################################
#
# If this CIF has been generated from an entry in the Cambridge 
# Structural Database, then it will include bibliographic, chemical, 
# crystal, experimental, refinement or atomic coordinate data resulting 
# from the CCDC's data processing and validation procedures.
#
#######################################################################

data_AWOPEI
_symmetry_cell_setting           triclinic
_symmetry_space_group_name_H-M   'P -1'
_symmetry_Int_Tables_number      2
_space_group_name_Hall           '-P 1'
loop_
_symmetry_equiv_pos_site_id
_symmetry_equiv_pos_as_xyz
1 x,y,z
2 -x,-y,-z
_cell_length_a                   8.7681(18)
_cell_length_b                   13.418(3)
_cell_length_c                   16.410(3)
_cell_angle_alpha                83.83(3)
_cell_angle_beta                 84.41(3)
_cell_angle_gamma                75.09(3)
_cell_volume                     1849.94
loop_
_atom_site_label
_atom_site_type_symbol
_atom_site_fract_x
_atom_site_fract_y
_atom_site_fract_z
Y1 Y 0.86495(3) 0.13918(2) 0.47569(2)
Y2 Y 1.08369(4) 0.36263(3) 0.95322(2)
O1 O 0.7633(3) 0.05407(18) 0.59003(15)
O2 O 0.9005(2) -0.11228(18) 0.60631(15)
C1 C 0.7761(4) -0.0409(3) 0.6113(2)
C2 C 0.6246(4) -0.0700(3) 0.6426(2)
H1 H 0.5754 -0.0274 0.6868
H2 H 0.5535 -0.0527 0.5986
C3 C 0.6390(4) -0.1817(3) 0.6736(2)
H3 H 0.6855 -0.2255 0.6297
H4 H 0.7090 -0.2002 0.7181
C4 C 0.4785(4) -0.2014(3) 0.7042(2)
H5 H 0.4363 -0.1603 0.7502
H6 H 0.4946 -0.2736 0.7246
C5 C 0.3562(4) -0.1773(3) 0.6415(2)
O3 O 0.3986(3) -0.1760(2) 0.56577(16)
O4 O 0.2128(3) -0.1615(2) 0.66616(16)
C6 C 0.9464(5) 0.3403(3) 0.3483(3)
H7 H 0.9873 0.2855 0.3158
C7 C 0.9710(5) 0.4368(4) 0.3198(3)
H8 H 1.0257 0.4459 0.2692
C8 C 0.9139(5) 0.5172(4) 0.3667(4)
H9 H 0.9322 0.5816 0.3492
C9 C 0.8272(5) 0.5034(3) 0.4419(3)
C10 C 0.7514(6) 0.5851(3) 0.4922(4)
H10 H 0.7674 0.6508 0.4780
C11 C 0.6573(6) 0.5693(3) 0.5594(3)
H11 H 0.6075 0.6245 0.5901
C12 C 0.6328(5) 0.4693(3) 0.5841(3)
C13 C 0.5314(5) 0.4493(3) 0.6519(3)
H12 H 0.4770 0.5028 0.6833
C14 C 0.5121(5) 0.3519(3) 0.6718(3)
H13 H 0.4435 0.3385 0.7160
C15 C 0.5979(4) 0.2725(3) 0.6243(2)
H14 H 0.5863 0.2058 0.6391
C16 C 0.7104(4) 0.3848(3) 0.5381(2)
C17 C 0.8068(4) 0.4031(3) 0.4656(3)
N1 N 0.6947(3) 0.2871(2) 0.55945(19)
N2 N 0.8689(3) 0.3220(2) 0.41867(19)
O5 O 1.0269(3) 0.19778(18) 0.56407(17)
O6 O 1.0951(3) 0.03082(18) 0.55413(15)
C18 C 1.1170(4) 0.1111(3) 0.5808(2)
C19 C 1.2573(4) 0.0989(3) 0.6293(2)
H15 H 1.3475 0.1038 0.5913
H16 H 1.2809 0.0300 0.6575
C20 C 1.2400(4) 0.1761(3) 0.6919(2)
H17 H 1.2121 0.2453 0.6645
H18 H 1.3413 0.1667 0.7146
C21 C 1.1166(4) 0.1671(3) 0.7617(2)
H19 H 1.0130 0.1869 0.7400
H20 H 1.1351 0.0953 0.7836
C22 C 1.1154(4) 0.2328(3) 0.8310(2)
O7 O 1.0446(3) 0.2144(2) 0.89935(16)
O8 O 1.1848(3) 0.30470(19) 0.81974(16)
N3 N 1.1495(3) 0.2053(2) 1.06709(19)
N4 N 1.3751(3) 0.2628(2) 0.96125(19)
C23 C 1.4860(4) 0.2898(3) 0.9096(3)
H21 H 1.4543 0.3431 0.8689
C24 C 1.6475(4) 0.2434(3) 0.9121(3)
H22 H 1.7211 0.2678 0.8762
C25 C 1.6946(4) 0.1624(3) 0.9681(3)
H23 H 1.8018 0.1304 0.9706
C26 C 1.5831(4) 0.1261(3) 1.0222(3)
C27 C 1.6204(5) 0.0371(3) 1.0784(3)
H24 H 1.7254 -0.0002 1.0809
C28 C 1.5091(5) 0.0050(3) 1.1281(3)
H25 H 1.5382 -0.0539 1.1641
C29 C 1.3447(5) 0.0601(3) 1.1268(3)
C30 C 1.2247(5) 0.0300(3) 1.1789(3)
H26 H 1.2485 -0.0291 1.2152
C31 C 1.0733(5) 0.0883(3) 1.1757(3)
H27 H 0.9926 0.0709 1.2109
C32 C 1.0410(5) 0.1744(3) 1.1188(3)
H28 H 0.9366 0.2129 1.1169
C33 C 1.3023(4) 0.1483(3) 1.0723(2)
C34 C 1.4212(4) 0.1816(3) 1.0173(2)
O9 O 0.8805(3) 0.4364(2) 0.86084(17)
O10 O 0.8741(3) 0.5612(2) 0.93698(16)
C35 C 0.8169(4) 0.5247(3) 0.8827(2)
C36 C 0.6670(4) 0.5873(3) 0.8467(2)
H29 H 0.6680 0.5733 0.7899
H30 H 0.6593 0.6605 0.8482
C37 C 0.5252(4) 0.5590(3) 0.8961(2)
H31 H 0.5392 0.4847 0.8975
H32 H 0.5243 0.5758 0.9522
C38 C 0.3649(4) 0.6125(3) 0.8636(2)
H33 H 0.3441 0.6865 0.8675
H34 H 0.3668 0.6009 0.8062
C39 C 0.2333(4) 0.5717(3) 0.9121(2)
O11 O 0.2193(3) 0.48505(19) 0.89713(16)
O12 O 0.1485(3) 0.62867(18) 0.96418(15)
Y1A Y 1.13505(3) -0.13918(2) 0.52431(2)
Y1A_2 Y 0.13505(3) -0.13918(2) 0.52431(2)
Y2A Y 0.91631(4) 0.63737(3) 1.04678(2)
Y2_2 Y 0.08369(4) 0.36263(3) 0.95322(2)
Y2A_2 Y -0.08369(4) 0.63737(3) 1.04678(2)
O2A O 1.0995(2) 0.11228(18) 0.39369(15)
O3A O 0.6014(3) 0.1760(2) 0.43423(16)
O4A O 0.7872(3) 0.1615(2) 0.33384(16)
O6A O 0.9049(3) -0.03082(18) 0.44587(15)
O10A O 1.1259(3) 0.4388(2) 1.06302(16)
O11_2 O 1.2193(3) 0.48505(19) 0.89713(16)
O12A O 0.8515(3) 0.37133(18) 1.03582(15)
loop_
_geom_bond_atom_site_label_1
_geom_bond_atom_site_label_2
_geom_bond_site_symmetry_1
_geom_bond_site_symmetry_2
Y1 O1 1_555 1_555
Y2 O7 1_555 1_555
O1 C1 1_555 1_555
O2 C1 1_555 1_555
C1 C2 1_555 1_555
C2 H1 1_555 1_555
H2 C2 1_555 1_555
C3 C2 1_555 1_555
H3 C3 1_555 1_555
H4 C3 1_555 1_555
C4 C3 1_555 1_555
H5 C4 1_555 1_555
H6 C4 1_555 1_555
C5 C4 1_555 1_555
O3 C5 1_555 1_555
O4 C5 1_555 1_555
C6 H7 1_555 1_555
C7 C6 1_555 1_555
H8 C7 1_555 1_555
C8 C7 1_555 1_555
H9 C8 1_555 1_555
C9 C8 1_555 1_555
C10 C9 1_555 1_555
H10 C10 1_555 1_555
C11 C10 1_555 1_555
H11 C11 1_555 1_555
C12 C11 1_555 1_555
C13 C12 1_555 1_555
H12 C13 1_555 1_555
C14 C13 1_555 1_555
H13 C14 1_555 1_555
C15 C14 1_555 1_555
H14 C15 1_555 1_555
C16 C12 1_555 1_555
C17 C9 1_555 1_555
N1 Y1 1_555 1_555
N2 Y1 1_555 1_555
O5 Y1 1_555 1_555
O6 Y1 1_555 1_555
C18 O5 1_555 1_555
C19 C18 1_555 1_555
H15 C19 1_555 1_555
H16 C19 1_555 1_555
C20 C19 1_555 1_555
H17 C20 1_555 1_555
H18 C20 1_555 1_555
C21 C20 1_555 1_555
H19 C21 1_555 1_555
H20 C21 1_555 1_555
C22 C21 1_555 1_555
O7 C22 1_555 1_555
O8 Y2 1_555 1_555
N3 Y2 1_555 1_555
N4 Y2 1_555 1_555
C23 N4 1_555 1_555
H21 C23 1_555 1_555
C24 C23 1_555 1_555
H22 C24 1_555 1_555
C25 C24 1_555 1_555
H23 C25 1_555 1_555
C26 C25 1_555 1_555
C27 C26 1_555 1_555
H24 C27 1_555 1_555
C28 C27 1_555 1_555
H25 C28 1_555 1_555
C29 C28 1_555 1_555
C30 C29 1_555 1_555
H26 C30 1_555 1_555
C31 C30 1_555 1_555
H27 C31 1_555 1_555
C32 N3 1_555 1_555
H28 C32 1_555 1_555
C33 N3 1_555 1_555
C34 N4 1_555 1_555
O9 Y2 1_555 1_555
O10 Y2 1_555 1_555
C35 O9 1_555 1_555
C36 C35 1_555 1_555
H29 C36 1_555 1_555
H30 C36 1_555 1_555
C37 C36 1_555 1_555
H31 C37 1_555 1_555
H32 C37 1_555 1_555
C38 C37 1_555 1_555
H33 C38 1_555 1_555
H34 C38 1_555 1_555
C39 C38 1_555 1_555
O11 C39 1_555 1_555
O12 C39 1_555 1_555
Y1A O2 1_555 1_555
Y1A_2 O3 1_555 1_555
Y2A O10 1_555 1_555
Y2_2 O11 1_555 1_555
Y2A_2 O12 1_555 1_555
O2A Y1 1_555 1_555
O3A Y1 1_555 1_555
O4A Y1 1_555 1_555
O6A Y1 1_555 1_555
O10A Y2 1_555 1_555
O11_2 Y2 1_555 1_555
O12A Y2 1_555 1_555
O4 Y1A_2 1_555 1_555
C6 N2 1_555 1_555
C15 N1 1_555 1_555
C16 C17 1_555 1_555
C16 N1 1_555 1_555
C17 N2 1_555 1_555
O6 C18 1_555 1_555
O6 Y1A 1_555 1_555
C22 O8 1_555 1_555
C26 C34 1_555 1_555
C29 C33 1_555 1_555
C31 C32 1_555 1_555
C33 C34 1_555 1_555
O10 C35 1_555 1_555
Y1A O6A 1_555 1_555
Y2A O10A 1_555 1_555

#END
