
#######################################################################
#
#                 Cambridge Crystallographic Data Centre
#                                CCDC 
#
#######################################################################
#
# If this CIF has been generated from an entry in the Cambridge 
# Structural Database, then it will include bibliographic, chemical, 
# crystal, experimental, refinement or atomic coordinate data resulting 
# from the CCDC's data processing and validation procedures.
#
#######################################################################

data_AWORUA
_symmetry_cell_setting           monoclinic
_symmetry_space_group_name_H-M   'P 21/c'
_symmetry_Int_Tables_number      14
_space_group_name_Hall           '-P 2ybc'
loop_
_symmetry_equiv_pos_site_id
_symmetry_equiv_pos_as_xyz
1 x,y,z
2 -x,1/2+y,1/2-z
3 -x,-y,-z
4 x,1/2-y,1/2+z
_cell_length_a                   18.006(4)
_cell_length_b                   18.255(4)
_cell_length_c                   13.166(3)
_cell_angle_alpha                90
_cell_angle_beta                 104.017(4)
_cell_angle_gamma                90
_cell_volume                     4198.8
loop_
_atom_site_label
_atom_site_type_symbol
_atom_site_fract_x
_atom_site_fract_y
_atom_site_fract_z
Ag1 Ag -0.23558(3) -0.90888(2) -0.62981(4)
Ag2 Ag -0.47796(4) -0.48936(3) -0.70526(6)
Ag3 Ag -0.30486(3) -0.40908(2) -0.63555(5)
Ag4 Ag -0.14384(3) -0.41070(2) -0.56313(5)
Ag5 Ag -0.26585(3) 0.14657(2) -0.39866(4)
Ag6 Ag -0.34981(3) -0.35107(2) -0.41896(5)
Ag7 Ag -0.18974(3) -0.35197(2) -0.34994(5)
Ag8 Ag -0.03133(3) -0.28173(3) -0.25650(4)
C1 C -0.1654(3) -0.7540(3) -0.6308(4)
H1 H -0.1205 -0.7807 -0.6239
C2 C -0.1603(3) -0.6790(3) -0.6286(4)
H2 H -0.1132 -0.6558 -0.6209
C3 C -0.2272(3) -0.6383(3) -0.6381(4)
C4 C -0.2954(3) -0.6759(3) -0.6544(4)
H3 H -0.3413 -0.6503 -0.6645
C5 C -0.2960(3) -0.7517(3) -0.6559(4)
H4 H -0.3426 -0.7761 -0.6665
C6 C -0.2250(3) -0.5565(3) -0.6259(4)
C7 C -0.2207(3) -0.2619(3) -0.5982(4)
C8 C -0.2235(3) -0.1798(3) -0.6090(4)
C9 C -0.1570(3) -0.1369(3) -0.5884(5)
H5 H -0.1091 -0.1590 -0.5696
C10 C -0.1630(3) -0.0629(3) -0.5960(5)
H6 H -0.1181 -0.0355 -0.5818
C11 C -0.2935(3) -0.0684(3) -0.6442(5)
H7 H -0.3408 -0.0451 -0.6646
C12 C -0.2924(3) -0.1428(3) -0.6375(5)
H8 H -0.3382 -0.1688 -0.6522
C13 C -0.4622(3) -0.3284(3) -0.6442(5)
C14 C -0.4775(3) -0.2506(3) -0.6846(4)
C15 C -0.4841(3) -0.1946(3) -0.6143(5)
H9 H -0.4802 -0.2052 -0.5441
C16 C -0.4962(3) -0.1241(3) -0.6501(5)
H10 H -0.4995 -0.0874 -0.6023
C17 C -0.4971(3) -0.1595(3) -0.8172(5)
H11 H -0.5020 -0.1481 -0.8873
C18 C -0.4828(3) -0.2336(3) -0.7838(4)
H12 H -0.4773 -0.2697 -0.8313
C19 C -0.2048(3) -0.6957(3) -0.3809(4)
H13 H -0.1581 -0.7198 -0.3710
C20 C -0.2054(3) -0.6206(3) -0.3772(4)
H14 H -0.1595 -0.5949 -0.3648
C21 C -0.2739(3) -0.5822(3) -0.3918(4)
C22 C -0.3407(3) -0.6241(3) -0.4095(5)
H15 H -0.3881 -0.6014 -0.4190
C23 C -0.3357(3) -0.6986(3) -0.4127(5)
H16 H -0.3810 -0.7254 -0.4256
C24 C -0.2742(3) -0.5003(3) -0.3916(4)
C25 C -0.2714(3) -0.2048(3) -0.3656(4)
C26 C -0.2713(3) -0.1222(3) -0.3638(4)
C27 C -0.2031(3) -0.0835(3) -0.3469(5)
H17 H -0.1567 -0.1084 -0.3294
C28 C -0.2042(3) -0.0089(3) -0.3558(5)
H18 H -0.1578 0.0159 -0.3451
C29 C -0.3351(3) -0.0074(3) -0.3904(4)
H19 H -0.3805 0.0190 -0.4035
C30 C -0.3389(3) -0.0817(3) -0.3836(4)
H20 H -0.3859 -0.1050 -0.3919
C31 C -0.0359(3) -0.4353(3) -0.3228(5)
C32 C -0.0188(3) -0.5161(3) -0.2997(4)
C33 C -0.0138(3) -0.5636(3) -0.3799(4)
H21 H -0.0198 -0.5462 -0.4478
C34 C 0.0004(3) -0.6372(3) -0.3581(5)
H22 H 0.0040 -0.6686 -0.4124
C35 C 0.0030(3) -0.6195(3) -0.1838(5)
H23 H 0.0074 -0.6383 -0.1170
C36 C -0.0094(3) -0.5448(3) -0.1998(5)
H24 H -0.0114 -0.5142 -0.1440
N1 N -0.2315(3) -0.7911(2) -0.6424(4)
N2 N -0.2302(2) -0.0267(2) -0.6229(4)
N3 N -0.5037(3) -0.1052(2) -0.7499(4)
N4 N -0.2694(2) -0.7355(2) -0.3984(3)
N5 N -0.2691(3) 0.0298(3) -0.3794(4)
N6 N 0.0091(3) -0.6653(2) -0.2608(4)
N7 N -0.4240(3) 0.0945(2) -0.6017(4)
N8 N 0.0749(3) -0.3578(3) -0.0644(4)
O1 O -0.2892(2) -0.5253(2) -0.6375(3)
O2 O -0.1610(2) -0.5262(2) -0.6039(4)
O3 O -0.2838(2) -0.2929(2) -0.6133(4)
O4 O -0.1566(2) -0.2914(2) -0.5740(4)
O5 O -0.4417(2) -0.3726(2) -0.7066(4)
O6 O -0.4704(2) -0.3434(2) -0.5559(4)
O7 O -0.3386(2) -0.4695(2) -0.4081(4)
O8 O -0.2112(2) -0.4689(2) -0.3752(4)
O9 O -0.3362(2) -0.2356(2) -0.3888(4)
O10 O -0.2074(2) -0.2352(2) -0.3453(4)
O11 O -0.0335(3) -0.4106(2) -0.4089(3)
O12 O -0.0529(2) -0.3990(2) -0.2498(3)
O13 O -0.3939(3) 0.0843(3) -0.6764(4)
O14 O -0.4752(3) 0.0534(3) -0.5880(4)
O15 O -0.4022(3) 0.1465(2) -0.5407(4)
O16 O 0.1085(3) -0.3490(3) -0.1359(5)
O17 O 0.0887(3) -0.4115(3) -0.0061(4)
O18 O 0.0269(2) -0.3110(2) -0.0522(4)
Ag1_2 Ag -0.23558(3) 0.09112(2) -0.62981(4)
Ag2A Ag -0.52204(4) 0.01064(3) -0.79474(6)
Ag5_2 Ag -0.26585(3) -0.85343(2) -0.39866(4)
Ag8A Ag 0.03133(3) -0.78173(3) -0.24350(4)
N2_2 N -0.2302(2) -1.0267(2) -0.6229(4)
N3A N -0.4963(3) -0.6052(2) -0.7501(4)
N4_2 N -0.2694(2) 0.2645(2) -0.3984(3)
N6A N -0.0091(3) -0.1653(2) -0.2392(4)
O19 O -0.5000 -0.5000 -0.5000
loop_
_geom_bond_atom_site_label_1
_geom_bond_atom_site_label_2
_geom_bond_site_symmetry_1
_geom_bond_site_symmetry_2
Ag1 N1 1_555 1_555
Ag2 O5 1_555 1_555
Ag3 O1 1_555 1_555
Ag4 O2 1_555 1_555
Ag5 N5 1_555 1_555
Ag6 O6 1_555 1_555
Ag7 O8 1_555 1_555
Ag8 O12 1_555 1_555
C1 H1 1_555 1_555
C2 C1 1_555 1_555
H2 C2 1_555 1_555
C3 C2 1_555 1_555
C4 C3 1_555 1_555
H3 C4 1_555 1_555
C5 C4 1_555 1_555
H4 C5 1_555 1_555
C6 C3 1_555 1_555
C7 C8 1_555 1_555
C8 C9 1_555 1_555
C9 H5 1_555 1_555
C10 C9 1_555 1_555
H6 C10 1_555 1_555
C11 H7 1_555 1_555
C12 C8 1_555 1_555
H8 C12 1_555 1_555
C13 C14 1_555 1_555
C14 C15 1_555 1_555
C15 H9 1_555 1_555
C16 C15 1_555 1_555
H10 C16 1_555 1_555
C17 H11 1_555 1_555
C18 C14 1_555 1_555
H12 C18 1_555 1_555
C19 H13 1_555 1_555
C20 C19 1_555 1_555
H14 C20 1_555 1_555
C21 C20 1_555 1_555
C22 C21 1_555 1_555
H15 C22 1_555 1_555
C23 C22 1_555 1_555
H16 C23 1_555 1_555
C24 C21 1_555 1_555
C25 C26 1_555 1_555
C26 C27 1_555 1_555
C27 H17 1_555 1_555
C28 C27 1_555 1_555
H18 C28 1_555 1_555
C29 H19 1_555 1_555
C30 C26 1_555 1_555
H20 C30 1_555 1_555
C31 C32 1_555 1_555
C32 C33 1_555 1_555
C33 H21 1_555 1_555
C34 C33 1_555 1_555
H22 C34 1_555 1_555
C35 H23 1_555 1_555
C36 C32 1_555 1_555
H24 C36 1_555 1_555
N1 C1 1_555 1_555
N2 C10 1_555 1_555
N3 C16 1_555 1_555
N4 C19 1_555 1_555
N5 C28 1_555 1_555
N6 C34 1_555 1_555
N7 O13 1_555 1_555
N8 O16 1_555 1_555
O1 C6 1_555 1_555
O2 C6 1_555 1_555
O3 Ag3 1_555 1_555
O4 Ag4 1_555 1_555
O5 Ag3 1_555 1_555
O6 C13 1_555 1_555
O7 Ag6 1_555 1_555
O8 C24 1_555 1_555
O9 Ag6 1_555 1_555
O10 Ag7 1_555 1_555
O11 Ag4 1_555 1_555
O12 Ag7 1_555 1_555
O14 N7 1_555 1_555
O15 Ag5 1_555 1_555
O17 N8 1_555 1_555
O18 Ag8 1_555 1_555
Ag1_2 N2 1_555 1_555
Ag2A N3 1_555 1_555
Ag5_2 N4 1_555 1_555
Ag8A N6 1_555 1_555
N2_2 Ag1 1_555 1_555
N3A Ag2 1_555 1_555
N4_2 Ag5 1_555 1_555
N6A Ag8 1_555 1_555
C5 N1 1_555 1_555
C7 O3 1_555 1_555
C7 O4 1_555 1_555
C11 C12 1_555 1_555
C11 N2 1_555 1_555
C13 O5 1_555 1_555
C17 C18 1_555 1_555
C17 N3 1_555 1_555
C23 N4 1_555 1_555
C24 O7 1_555 1_555
C25 O9 1_555 1_555
C25 O10 1_555 1_555
C29 C30 1_555 1_555
C29 N5 1_555 1_555
C31 O11 1_555 1_555
C31 O12 1_555 1_555
C35 C36 1_555 1_555
C35 N6 1_555 1_555
N7 O15 1_555 1_555
N8 O18 1_555 1_555

#END
