
#######################################################################
#
#                 Cambridge Crystallographic Data Centre
#                                CCDC 
#
#######################################################################
#
# If this CIF has been generated from an entry in the Cambridge 
# Structural Database, then it will include bibliographic, chemical, 
# crystal, experimental, refinement or atomic coordinate data resulting 
# from the CCDC's data processing and validation procedures.
#
#######################################################################

data_AWOTEM
_symmetry_cell_setting           triclinic
_symmetry_space_group_name_H-M   'P -1'
_symmetry_Int_Tables_number      2
_space_group_name_Hall           '-P 1'
loop_
_symmetry_equiv_pos_site_id
_symmetry_equiv_pos_as_xyz
1 x,y,z
2 -x,-y,-z
_cell_length_a                   7.0413(4)
_cell_length_b                   8.3538(5)
_cell_length_c                   17.8755(10)
_cell_angle_alpha                95.546(1)
_cell_angle_beta                 96.886(1)
_cell_angle_gamma                97.177(1)
_cell_volume                     1029.03
loop_
_atom_site_label
_atom_site_type_symbol
_atom_site_fract_x
_atom_site_fract_y
_atom_site_fract_z
Yb1 Yb 0.29829(3) 0.41070(2) 0.243626(10)
Co1 Co 0.5000 0.0000 0.5000
Co2 Co 0.61668(8) -0.06484(6) 0.07597(3)
C1 C 0.4567(6) 0.1646(5) 0.3642(2)
C2 C 0.5695(6) 0.2898(5) 0.4232(2)
C3 C 0.7118(6) 0.3644(5) 0.5375(2)
H1 H 0.7531 0.3657 0.5890
C4 C 0.6687(6) 0.4428(5) 0.4231(2)
C5 C 0.7011(6) 0.5510(5) 0.3626(2)
C6 C 0.3753(6) 0.2247(5) 0.0775(2)
C7 C 0.2950(6) 0.3342(5) 0.0250(2)
C8 C 0.1892(6) 0.3962(5) -0.0851(2)
H2 H 0.1429 0.3890 -0.1365
C9 C 0.2778(6) 0.4982(5) 0.0341(2)
C10 C 0.3400(6) 0.6297(5) 0.0970(2)
C11 C -0.1045(6) 0.2012(5) 0.1572(2)
C12 C -0.1598(6) 0.1020(5) 0.2173(2)
C13 C -0.3093(6) -0.1156(5) 0.2507(2)
H3 H -0.3865 -0.2149 0.2494
C14 C -0.1078(6) 0.1069(5) 0.2941(2)
C15 C 0.0131(6) 0.2253(5) 0.3539(2)
O1 O 0.4104(4) 0.0283(3) 0.38480(16)
O2 O 0.4150(4) 0.1990(3) 0.29715(16)
O3 O 0.8522(4) 0.6467(4) 0.37243(18)
O4 O 0.5683(5) 0.5394(4) 0.30733(18)
O5 O 0.4029(5) 0.2590(3) 0.14763(16)
O6 O 0.4133(4) 0.0941(3) 0.04421(15)
O7 O 0.3723(4) 0.5930(3) 0.16348(16)
O8 O 0.3603(4) 0.7716(3) 0.07878(15)
O9 O -0.1851(4) 0.1523(3) 0.09059(15)
O10 O 0.0184(4) 0.3279(3) 0.17219(16)
O11 O 0.1107(4) 0.3474(3) 0.33394(16)
O12 O 0.0107(4) 0.2009(3) 0.42250(16)
N1 N 0.5995(5) 0.2438(4) 0.49534(19)
N2 N 0.7592(5) 0.4862(4) 0.4960(2)
N3 N 0.2427(5) 0.2739(4) -0.05004(19)
N4 N 0.2106(5) 0.5326(4) -0.0366(2)
N5 N -0.2875(5) -0.0362(4) 0.19128(19)
N6 N -0.2053(5) -0.0336(4) 0.3127(2)
H4 H 0.824(6) 0.579(3) 0.515(2)
H5 H 0.190(7) 0.628(3) -0.047(3)
H6 H -0.199(7) -0.063(5) 0.3580(15)
O13 O 0.7736(4) -0.0471(4) 0.47573(18)
H7 H 0.830(6) -0.099(5) 0.506(2)
H8 H 0.842(6) 0.037(3) 0.475(3)
O14 O 0.1488(5) 0.6362(4) 0.2758(2)
H9 H 0.055(5) 0.640(5) 0.297(3)
H10 H 0.181(7) 0.728(3) 0.266(3)
Yb1A Yb 0.70171(3) -0.41070(2) 0.756374(10)
Co2A Co 0.38332(8) 0.06484(6) 0.92403(3)
Co2A_2 Co 0.38332(8) 0.06484(6) -0.07597(3)
Co2_2 Co 0.61668(8) 0.93516(6) 0.07597(3)
Co2_3 Co -0.38332(8) -0.06484(6) 0.07597(3)
Co2_4 Co 0.61668(8) -0.06484(6) 1.07597(3)
Co2A_3 Co 0.38332(8) -0.93516(6) 0.92403(3)
Co2A_4 Co 1.38332(8) 0.06484(6) 0.92403(3)
C1A C 0.5433(6) -0.1646(5) 0.6358(2)
C2A C 0.4305(6) -0.2898(5) 0.5768(2)
C3A C 0.2882(6) -0.3644(5) 0.4625(2)
H1A H 0.2469 -0.3657 0.4110
C4A C 0.3313(6) -0.4428(5) 0.5769(2)
C5A C 0.2989(6) -0.5510(5) 0.6374(2)
C6A C 0.6247(6) -0.2247(5) 0.9225(2)
C7A C 0.7050(6) -0.3342(5) 0.9750(2)
C8A C 0.8108(6) -0.3962(5) 1.0851(2)
H2A H 0.8571 -0.3890 1.1365
C9A C 0.7222(6) -0.4982(5) 0.9659(2)
C10A C 0.6600(6) -0.6297(5) 0.9030(2)
C11A C 1.1045(6) -0.2012(5) 0.8428(2)
C12A C 1.1598(6) -0.1020(5) 0.7827(2)
C13A C 1.3093(6) 0.1156(5) 0.7493(2)
H3A H 1.3865 0.2149 0.7506
C14A C 1.1078(6) -0.1069(5) 0.7059(2)
C15A C 0.9869(6) -0.2253(5) 0.6461(2)
O1A O 0.5896(4) -0.0283(3) 0.61520(16)
O2A O 0.5850(4) -0.1990(3) 0.70285(16)
O3A O 0.1478(4) -0.6467(4) 0.62757(18)
O4A O 0.4317(5) -0.5394(4) 0.69267(18)
O5A O 0.5971(5) -0.2590(3) 0.85237(16)
O6A O 0.5867(4) -0.0941(3) 0.95579(15)
O6A_2 O 0.5867(4) -0.0941(3) -0.04421(15)
O6_2 O 0.4133(4) 0.0941(3) 1.04421(15)
O7A O 0.6277(4) -0.5930(3) 0.83652(16)
O8A O 0.6397(4) -0.7716(3) 0.92122(15)
O8_2 O 0.3603(4) -0.2284(3) 0.07878(15)
O8A_2 O 0.6397(4) 0.2284(3) 0.92122(15)
O9A O 1.1851(4) -0.1523(3) 0.90941(15)
O9_2 O 0.8149(4) 0.1523(3) 0.09059(15)
O9A_2 O 0.1851(4) -0.1523(3) 0.90941(15)
O10A O 0.9816(4) -0.3279(3) 0.82781(16)
O11A O 0.8893(4) -0.3474(3) 0.66606(16)
O12A O 0.9893(4) -0.2009(3) 0.57750(16)
N1A N 0.4005(5) -0.2438(4) 0.50466(19)
N2A N 0.2408(5) -0.4862(4) 0.5040(2)
N3A N 0.7573(5) -0.2739(4) 1.05004(19)
N3A_2 N 0.7573(5) -0.2739(4) 0.05004(19)
N3_2 N 0.2427(5) 0.2739(4) 0.94996(19)
N4A N 0.7894(5) -0.5326(4) 1.0366(2)
N5A N 1.2875(5) 0.0362(4) 0.80872(19)
N5_2 N 0.7125(5) -0.0362(4) 0.19128(19)
N5A_2 N 0.2875(5) 0.0362(4) 0.80872(19)
N6A N 1.2053(5) 0.0336(4) 0.6873(2)
H4A H 0.176(6) -0.579(3) 0.485(2)
H5A H 0.810(7) -0.628(3) 1.047(3)
H6A H 1.199(7) 0.063(5) 0.6420(15)
O13A O 0.2264(4) 0.0471(4) 0.52427(18)
H7A H 0.170(6) 0.099(5) 0.494(2)
H8A H 0.158(6) -0.037(3) 0.525(3)
O14A O 0.8512(5) -0.6362(4) 0.7242(2)
H9A H 0.945(5) -0.640(5) 0.703(3)
H10A H 0.819(7) -0.728(3) 0.734(3)
O15 O 0.1955(5) 0.9104(4) 0.2090(2)
H11 H 0.250(7) 0.888(6) 0.1694(19)
H12 H 0.281(6) 0.978(6) 0.240(2)
loop_
_geom_bond_atom_site_label_1
_geom_bond_atom_site_label_2
_geom_bond_site_symmetry_1
_geom_bond_site_symmetry_2
Yb1 O2 1_555 1_555
Co1 O1 1_555 1_555
Co2 O6 1_555 1_555
C1 C2 1_555 1_555
C2 C4 1_555 1_555
C3 H1 1_555 1_555
C4 C5 1_555 1_555
C5 O3 1_555 1_555
C6 C7 1_555 1_555
C7 C9 1_555 1_555
C8 H2 1_555 1_555
C9 C10 1_555 1_555
C10 O7 1_555 1_555
C11 C12 1_555 1_555
C12 C14 1_555 1_555
C13 H3 1_555 1_555
C14 C15 1_555 1_555
C15 O11 1_555 1_555
O1 C1 1_555 1_555
O2 C1 1_555 1_555
O4 Yb1 1_555 1_555
O5 Yb1 1_555 1_555
O6 C6 1_555 1_555
O7 Yb1 1_555 1_555
O8 C10 1_555 1_555
O9 C11 1_555 1_555
O10 Yb1 1_555 1_555
O11 Yb1 1_555 1_555
O12 C15 1_555 1_555
N1 Co1 1_555 1_555
N2 C3 1_555 1_555
N3 C7 1_555 1_555
N4 C8 1_555 1_555
N5 C12 1_555 1_555
N6 C13 1_555 1_555
H4 N2 1_555 1_555
H5 N4 1_555 1_555
H6 N6 1_555 1_555
O13 Co1 1_555 1_555
H7 O13 1_555 1_555
H8 O13 1_555 1_555
O14 Yb1 1_555 1_555
H9 O14 1_555 1_555
H10 O14 1_555 1_555
O15 H11 1_555 1_555
H12 O15 1_555 1_555
Yb1A O2A 1_555 1_555
Co2A O6A 1_555 1_555
Co2A_2 O6 1_555 1_555
Co2_2 O8 1_555 1_555
Co2_3 O9 1_555 1_555
Co2_4 O6A 1_555 1_555
Co2A_3 O8A 1_555 1_555
Co2A_4 O9A 1_555 1_555
C1A C2A 1_555 1_555
C2A C4A 1_555 1_555
C3A H1A 1_555 1_555
C4A C5A 1_555 1_555
C5A O3A 1_555 1_555
C6A C7A 1_555 1_555
C7A C9A 1_555 1_555
C8A H2A 1_555 1_555
C9A C10A 1_555 1_555
C10A O7A 1_555 1_555
C11A C12A 1_555 1_555
C12A C14A 1_555 1_555
C13A H3A 1_555 1_555
C14A C15A 1_555 1_555
C15A O11A 1_555 1_555
O1A Co1 1_555 1_555
O2A C1A 1_555 1_555
O4A Yb1A 1_555 1_555
O5A Yb1A 1_555 1_555
O6A C6A 1_555 1_555
O6A_2 Co2 1_555 1_555
O6_2 Co2A 1_555 1_555
O7A Yb1A 1_555 1_555
O8A C10A 1_555 1_555
O8_2 Co2 1_555 1_555
O8A_2 Co2A 1_555 1_555
O9A C11A 1_555 1_555
O9_2 Co2 1_555 1_555
O9A_2 Co2A 1_555 1_555
O10A Yb1A 1_555 1_555
O11A Yb1A 1_555 1_555
O12A C15A 1_555 1_555
N1A Co1 1_555 1_555
N2A C3A 1_555 1_555
N3A Co2_4 1_555 1_555
N3A_2 Co2 1_555 1_555
N3_2 Co2A 1_555 1_555
N4A C8A 1_555 1_555
N5A Co2A_4 1_555 1_555
N5_2 Co2 1_555 1_555
N5A_2 Co2A 1_555 1_555
N6A C13A 1_555 1_555
H4A N2A 1_555 1_555
H5A N4A 1_555 1_555
H6A N6A 1_555 1_555
O13A Co1 1_555 1_555
H7A O13A 1_555 1_555
H8A O13A 1_555 1_555
O14A Yb1A 1_555 1_555
H9A O14A 1_555 1_555
H10A O14A 1_555 1_555
C2 N1 1_555 1_555
C3 N1 1_555 1_555
C4 N2 1_555 1_555
C5 O4 1_555 1_555
C6 O5 1_555 1_555
C8 N3 1_555 1_555
C9 N4 1_555 1_555
C11 O10 1_555 1_555
C13 N5 1_555 1_555
C14 N6 1_555 1_555
N3 Co2A_2 1_555 1_555
N5 Co2_3 1_555 1_555
Co2A_2 O6A_2 1_555 1_555
Co2_4 O6_2 1_555 1_555
C1A O1A 1_555 1_555
C2A N1A 1_555 1_555
C3A N1A 1_555 1_555
C4A N2A 1_555 1_555
C5A O4A 1_555 1_555
C6A O5A 1_555 1_555
C7A N3A 1_555 1_555
C8A N3A 1_555 1_555
C9A N4A 1_555 1_555
C11A O10A 1_555 1_555
C12A N5A 1_555 1_555
C13A N5A 1_555 1_555
C14A N6A 1_555 1_555

#END
