
#######################################################################
#
#                 Cambridge Crystallographic Data Centre
#                                CCDC 
#
#######################################################################
#
# If this CIF has been generated from an entry in the Cambridge 
# Structural Database, then it will include bibliographic, chemical, 
# crystal, experimental, refinement or atomic coordinate data resulting 
# from the CCDC's data processing and validation procedures.
#
#######################################################################

data_AWOTAI
_symmetry_cell_setting           triclinic
_symmetry_space_group_name_H-M   'P -1'
_symmetry_Int_Tables_number      2
_space_group_name_Hall           '-P 1'
loop_
_symmetry_equiv_pos_site_id
_symmetry_equiv_pos_as_xyz
1 x,y,z
2 -x,-y,-z
_cell_length_a                   9.793(3)
_cell_length_b                   10.885(3)
_cell_length_c                   12.453(3)
_cell_angle_alpha                97.567(4)
_cell_angle_beta                 102.608(4)
_cell_angle_gamma                95.653(4)
_cell_volume                     1273
loop_
_atom_site_label
_atom_site_type_symbol
_atom_site_fract_x
_atom_site_fract_y
_atom_site_fract_z
C1 C -0.1205(5) 0.5902(4) 0.6684(4)
C2 C -0.0391(5) 0.6133(4) 0.7872(3)
C3 C -0.0950(5) 0.6775(4) 0.8670(4)
H1 H -0.1796 0.7094 0.8450
C4 C -0.0286(5) 0.6957(4) 0.9786(4)
H2 H -0.0699 0.7388 1.0300
C5 C 0.0979(5) 0.6512(4) 1.0160(3)
C6 C 0.1527(5) 0.5852(4) 0.9355(3)
H3 H 0.2372 0.5535 0.9583
C7 C 0.0872(5) 0.5642(4) 0.8227(3)
C8 C 0.1543(5) 0.4826(5) 0.7467(3)
C9 C 0.1711(4) 0.6716(4) 1.1364(3)
C10 C 0.1249(5) 0.7513(4) 1.2133(4)
H4 H 0.0491 0.7939 1.1891
C11 C 0.1904(5) 0.7684(5) 1.3263(4)
H5 H 0.1585 0.8230 1.3765
C12 C 0.3014(5) 0.7054(4) 1.3644(4)
C13 C 0.3634(5) 0.7284(5) 1.4884(4)
C14 C 0.3493(5) 0.6257(4) 1.2883(3)
C15 C 0.4728(5) 0.5573(4) 1.3218(4)
C16 C 0.2826(5) 0.6097(4) 1.1761(3)
H6 H 0.3144 0.5550 1.1260
C17 C 0.5542(5) 0.7004(5) 0.9733(4)
H7 H 0.6056 0.6388 0.9503
C18 C 0.5861(6) 0.7519(5) 1.0863(4)
H8 H 0.6582 0.7257 1.1365
C19 C 0.5106(6) 0.8406(5) 1.1219(4)
H9 H 0.5308 0.8756 1.1968
C20 C 0.4023(6) 0.8790(5) 1.0452(4)
C21 C 0.3795(5) 0.8238(4) 0.9332(4)
C22 C 0.2701(5) 0.8587(4) 0.8500(4)
C23 C 0.1811(6) 0.9417(5) 0.8828(4)
C24 C 0.2065(6) 0.9964(5) 0.9968(5)
H10 H 0.1481 1.0524 1.0184
C25 C 0.3128(7) 0.9689(5) 1.0736(5)
H11 H 0.3290 1.0088 1.1469
C26 C 0.0685(7) 0.9626(5) 0.7995(5)
H12 H 0.0046 1.0151 0.8173
C27 C 0.0522(6) 0.9065(6) 0.6930(5)
H13 H -0.0217 0.9215 0.6373
C28 C 0.1466(6) 0.8265(5) 0.6673(4)
H14 H 0.1328 0.7869 0.5941
Co1 Co 0.39769(6) 0.67515(6) 0.72127(5)
Co2 Co -0.24578(6) 0.55340(6) 0.47006(5)
N1 N 0.2553(4) 0.8043(4) 0.7428(3)
N2 N 0.4548(4) 0.7350(4) 0.8980(3)
O1 O -0.0796(3) 0.5208(3) 0.5955(2)
O2 O -0.2316(3) 0.6395(3) 0.6414(2)
O3 O 0.1484(4) 0.3712(3) 0.7556(3)
O4 O 0.2165(3) 0.5344(3) 0.6805(2)
O5 O 0.4838(3) 0.4631(3) 1.2562(2)
O6 O 0.5598(3) 0.6015(3) 1.4135(2)
O7 O 0.4224(4) 0.8357(3) 1.5296(2)
O8 O 0.3428(3) 0.6420(3) 1.5449(2)
O9 O -0.1558(4) 0.7319(3) 0.4487(2)
H15 H -0.1290 0.7520 0.3922
H16 H -0.1354 0.7958 0.4993
O10 O 0.5871(3) 0.7894(3) 0.7169(2)
H17 H 0.6525 0.7612 0.6901
H18 H 0.5721 0.8574 0.6925
Co1A Co 0.60231(6) 0.32485(6) 1.27873(5)
Co1_2 Co 0.39769(6) 0.67515(6) 1.72127(5)
Co2A Co 0.24578(6) 0.44660(6) 0.52994(5)
Co2_2 Co 0.75422(6) 0.55340(6) 1.47006(5)
Co2A_2 Co 0.24578(6) 0.44660(6) 1.52994(5)
O4A O -0.2165(3) 0.4656(3) 0.3195(2)
O5A O 0.5162(3) 0.5369(3) 0.7438(2)
O6_2 O -0.4402(3) 0.6015(3) 0.4135(2)
O8_2 O 0.3428(3) 0.6420(3) 0.5449(2)
O8A O -0.3428(3) 0.3580(3) 0.4551(2)
O11 O 0.3441(5) 0.0884(4) 0.5642(4)
H19 H 0.3480 0.0115 0.5697
H20 H 0.4080 0.1111 0.5312
loop_
_geom_bond_atom_site_label_1
_geom_bond_atom_site_label_2
_geom_bond_site_symmetry_1
_geom_bond_site_symmetry_2
C1 C2 1_555 1_555
C2 C3 1_555 1_555
C3 H1 1_555 1_555
C4 C3 1_555 1_555
H2 C4 1_555 1_555
C5 C4 1_555 1_555
C6 C5 1_555 1_555
H3 C6 1_555 1_555
C7 C2 1_555 1_555
C8 C7 1_555 1_555
C9 C5 1_555 1_555
C10 C9 1_555 1_555
H4 C10 1_555 1_555
C11 C10 1_555 1_555
H5 C11 1_555 1_555
C12 C11 1_555 1_555
C13 C12 1_555 1_555
C14 C12 1_555 1_555
C15 C14 1_555 1_555
C16 C9 1_555 1_555
H6 C16 1_555 1_555
C17 H7 1_555 1_555
C18 C17 1_555 1_555
H8 C18 1_555 1_555
C19 C18 1_555 1_555
H9 C19 1_555 1_555
C20 C19 1_555 1_555
C21 C20 1_555 1_555
C22 C21 1_555 1_555
C23 C22 1_555 1_555
C24 C23 1_555 1_555
H10 C24 1_555 1_555
C25 C20 1_555 1_555
H11 C25 1_555 1_555
C26 C23 1_555 1_555
H12 C26 1_555 1_555
C27 C26 1_555 1_555
H13 C27 1_555 1_555
C28 C27 1_555 1_555
H14 C28 1_555 1_555
Co1 N1 1_555 1_555
Co2 O1 1_555 1_555
N1 C22 1_555 1_555
N2 C17 1_555 1_555
O1 C1 1_555 1_555
O2 C1 1_555 1_555
O3 C8 1_555 1_555
O4 C8 1_555 1_555
O5 C15 1_555 1_555
O6 C15 1_555 1_555
O7 C13 1_555 1_555
O8 C13 1_555 1_555
O9 Co2 1_555 1_555
H15 O9 1_555 1_555
H16 O9 1_555 1_555
O10 Co1 1_555 1_555
H17 O10 1_555 1_555
H18 O10 1_555 1_555
O11 H19 1_555 1_555
H20 O11 1_555 1_555
Co1A O5 1_555 1_555
Co1_2 O8 1_555 1_555
Co2A O4 1_555 1_555
Co2_2 O6 1_555 1_555
Co2A_2 O8 1_555 1_555
O4A Co2 1_555 1_555
O5A Co1 1_555 1_555
O6_2 Co2 1_555 1_555
O8_2 Co1 1_555 1_555
O8A Co2 1_555 1_555
C6 C7 1_555 1_555
C14 C16 1_555 1_555
C21 N2 1_555 1_555
C24 C25 1_555 1_555
C28 N1 1_555 1_555
Co1 N2 1_555 1_555
Co1 O4 1_555 1_555
Co2 O2 1_555 1_555
Co2A O8_2 1_555 1_555

#END
