
#######################################################################
#
#                 Cambridge Crystallographic Data Centre
#                                CCDC 
#
#######################################################################
#
# If this CIF has been generated from an entry in the Cambridge 
# Structural Database, then it will include bibliographic, chemical, 
# crystal, experimental, refinement or atomic coordinate data resulting 
# from the CCDC's data processing and validation procedures.
#
#######################################################################

data_AWOVIS
_symmetry_cell_setting           monoclinic
_symmetry_space_group_name_H-M   'P 21/c'
_symmetry_Int_Tables_number      14
_space_group_name_Hall           '-P 2ybc'
loop_
_symmetry_equiv_pos_site_id
_symmetry_equiv_pos_as_xyz
1 x,y,z
2 -x,1/2+y,1/2-z
3 -x,-y,-z
4 x,1/2-y,1/2+z
_cell_length_a                   12.673(3)
_cell_length_b                   13.816(3)
_cell_length_c                   10.956(2)
_cell_angle_alpha                90
_cell_angle_beta                 114.04(3)
_cell_angle_gamma                90
_cell_volume                     1751.9
loop_
_atom_site_label
_atom_site_type_symbol
_atom_site_fract_x
_atom_site_fract_y
_atom_site_fract_z
N1 N -0.01503(17) 0.17705(13) -0.2396(2)
N2 N 0.00129(18) -0.02194(13) -0.2248(2)
O1 O 0.1043(2) -0.12689(12) -0.3396(2)
C1 C 0.0533(2) 0.02779(15) -0.2901(2)
O2 O 0.17126(19) -0.00377(13) -0.4122(2)
O3 O 0.07742(16) 0.28612(11) -0.3587(2)
O4 O 0.1688(2) 0.16941(14) -0.4106(2)
C2 C 0.1009(2) 0.19946(16) -0.3602(3)
C3 C 0.0454(2) 0.12986(15) -0.2964(2)
C4 C 0.1147(2) -0.03926(17) -0.3516(3)
C5 C -0.0584(2) 0.02637(18) -0.1700(3)
H1 H -0.0953 -0.0075 -0.1253
C6 C -0.0671(2) 0.12673(18) -0.1776(3)
H2 H -0.1101 0.1588 -0.1386
O11 O -0.1887(2) 0.31162(16) -0.4527(2)
Li2 Li -0.0422(4) 0.3254(3) -0.2911(5)
H9 H -0.252(3) 0.355(3) -0.462(4)
H10 H -0.223(5) 0.268(5) -0.466(7)
H11 H 0.183(5) 0.115(4) -0.410(6)
N2A N -0.00129(18) 0.47806(13) -0.2752(2)
O1A O -0.1043(2) 0.37311(12) -0.1604(2)
Li2A Li 0.0422(4) -0.1746(3) -0.2089(5)
O5 O 0.58629(16) -0.39899(11) -0.3670(2)
N3 N 0.48239(17) -0.09665(13) -0.2446(2)
O6 O 0.60978(18) 0.01517(11) -0.3178(2)
O7 O 0.66782(18) -0.27400(12) -0.4203(2)
N4 N 0.46637(18) -0.29421(13) -0.2753(2)
O8 O 0.6762(2) -0.09959(15) -0.4029(3)
C7 C 0.6150(2) -0.07129(16) -0.3427(3)
C8 C 0.5376(2) -0.24425(15) -0.3148(2)
C9 C 0.5444(2) -0.14238(14) -0.3001(2)
C10 C 0.6034(2) -0.31008(16) -0.3712(3)
C11 C 0.4026(2) -0.24663(17) -0.2252(3)
H3 H 0.3506 -0.2804 -0.2009
C12 C 0.4122(2) -0.14702(17) -0.2085(3)
H4 H 0.3679 -0.1153 -0.1708
Li1 Li 0.5322(4) 0.0529(3) -0.1958(4)
O9 O 0.66173(18) 0.02579(12) -0.0166(2)
H7 H 0.707(3) -0.009(2) -0.039(3)
H8 H 0.633(3) -0.004(3) 0.033(3)
H12 H 0.671(5) -0.147(4) -0.416(5)
O5A O 0.41371(16) 0.10101(11) -0.1330(2)
N4A N 0.53363(18) 0.20579(13) -0.2247(2)
Li1A Li 0.4678(4) -0.4471(3) -0.3042(4)
O10 O 0.2117(2) 0.38123(13) -0.4598(2)
H13 H 0.169(2) 0.354(2) -0.432(3)
H14 H 0.248(3) 0.342(3) -0.499(4)
O12 O 0.71760(19) 0.12508(13) -0.4669(2)
H5 H 0.695(3) 0.092(2) -0.419(3)
H6 H 0.754(3) 0.092(3) -0.512(4)
loop_
_geom_bond_atom_site_label_1
_geom_bond_atom_site_label_2
_geom_bond_site_symmetry_1
_geom_bond_site_symmetry_2
N1 C3 1_555 1_555
N2 C1 1_555 1_555
O1 C4 1_555 1_555
C1 C3 1_555 1_555
O2 C4 1_555 1_555
O3 C2 1_555 1_555
O4 C2 1_555 1_555
C2 C3 1_555 1_555
C4 C1 1_555 1_555
C5 N2 1_555 1_555
H1 C5 1_555 1_555
C6 N1 1_555 1_555
H2 C6 1_555 1_555
O5 C10 1_555 1_555
N3 C9 1_555 1_555
O6 C7 1_555 1_555
O7 C10 1_555 1_555
N4 C8 1_555 1_555
O8 C7 1_555 1_555
C7 C9 1_555 1_555
C8 C9 1_555 1_555
C10 C8 1_555 1_555
C11 N4 1_555 1_555
H3 C11 1_555 1_555
C12 N3 1_555 1_555
H4 C12 1_555 1_555
Li1 N3 1_555 1_555
O9 Li1 1_555 1_555
O10 H13 1_555 1_555
O11 Li2 1_555 1_555
Li2 N1 1_555 1_555
O12 H5 1_555 1_555
H6 O12 1_555 1_555
H7 O9 1_555 1_555
H8 O9 1_555 1_555
H9 O11 1_555 1_555
H10 O11 1_555 1_555
H11 O4 1_555 1_555
H12 O8 1_555 1_555
H14 O10 1_555 1_555
N2A Li2 1_555 1_555
O1A Li2 1_555 1_555
O5A Li1 1_555 1_555
N4A Li1 1_555 1_555
Li1A O5 1_555 1_555
Li2A N2 1_555 1_555
O1 Li2A 1_555 1_555
O3 Li2 1_555 1_555
C5 C6 1_555 1_555
O6 Li1 1_555 1_555
N4 Li1A 1_555 1_555
C11 C12 1_555 1_555

#END
