
#######################################################################
#
#                 Cambridge Crystallographic Data Centre
#                                CCDC 
#
#######################################################################
#
# If this CIF has been generated from an entry in the Cambridge 
# Structural Database, then it will include bibliographic, chemical, 
# crystal, experimental, refinement or atomic coordinate data resulting 
# from the CCDC's data processing and validation procedures.
#
#######################################################################

data_AWOWUF
_symmetry_cell_setting           orthorhombic
_symmetry_space_group_name_H-M   'P 21 21 21'
_symmetry_Int_Tables_number      19
_space_group_name_Hall           'P 2ac 2ab'
loop_
_symmetry_equiv_pos_site_id
_symmetry_equiv_pos_as_xyz
1 x,y,z
2 1/2-x,-y,1/2+z
3 -x,1/2+y,1/2-z
4 1/2+x,1/2-y,-z
_cell_length_a                   7.0496(14)
_cell_length_b                   14.404(3)
_cell_length_c                   17.583(4)
_cell_angle_alpha                90
_cell_angle_beta                 90
_cell_angle_gamma                90
_cell_volume                     1785.42
loop_
_atom_site_label
_atom_site_type_symbol
_atom_site_fract_x
_atom_site_fract_y
_atom_site_fract_z
Cd1 Cd 0.72480(3) 0.507712(15) 0.684293(13)
Cd2 Cd 0.23018(3) 0.497301(15) 0.589235(12)
Cl1 Cl 0.41966(11) 0.59933(5) 0.69463(4)
Cl2 Cl 0.90345(12) 0.60740(6) 0.58524(5)
Cl3 Cl 1.03220(11) 0.42036(6) 0.70226(5)
Cl4 Cl 0.37109(12) 0.60596(6) 0.49228(5)
Cl5 Cl 0.53066(12) 0.38288(6) 0.61612(5)
O1 O 0.8396(3) 0.61772(16) 0.78576(12)
N1 N 1.0415(4) 0.7015(2) 0.90750(17)
H1 H 1.0127 0.7623 0.9054
H2 H 1.1214 0.6928 0.9468
C1 C 0.7403(5) 0.6518(2) 0.85098(19)
H3 H 0.6266 0.6151 0.8590
H4 H 0.7023 0.7156 0.8423
C2 C 0.8640(6) 0.6466(3) 0.9206(2)
H5 H 0.7963 0.6714 0.9641
H6 H 0.8960 0.5824 0.9313
C3 C 1.1364(5) 0.6735(3) 0.8358(2)
H7 H 1.1879 0.6114 0.8414
H8 H 1.2408 0.7155 0.8254
C4 C 0.9997(5) 0.6753(3) 0.77094(18)
H9 H 0.9576 0.7385 0.7624
H10 H 1.0629 0.6539 0.7252
Cl6 Cl 0.10021(12) 0.37744(6) 0.49674(5)
O2 O 0.6243(3) 0.43396(16) 0.80860(13)
C5 C 0.3919(5) 0.3182(2) 0.8424(2)
H11 H 0.2587 0.3089 0.8541
H12 H 0.4234 0.2804 0.7985
C6 C 0.4274(4) 0.4181(2) 0.8249(2)
H13 H 0.3514 0.4365 0.7815
H14 H 0.3895 0.4559 0.8680
C7 C 0.7363(5) 0.4118(2) 0.87368(17)
H15 H 0.6979 0.4506 0.9161
H16 H 0.8687 0.4246 0.8629
N2 N 0.5099(4) 0.28953(19) 0.90858(16)
H17 H 0.4962 0.2282 0.9165
H18 H 0.4699 0.3194 0.9505
C8 C 0.7142(5) 0.3111(2) 0.8952(2)
H19 H 0.7629 0.2720 0.8547
H20 H 0.7865 0.2982 0.9410
Cd2_2 Cd 1.23018(3) 0.497301(15) 0.589235(12)
Cl2_2 Cl -0.09655(12) 0.60740(6) 0.58524(5)
Cl3_2 Cl 0.03220(11) 0.42036(6) 0.70226(5)
loop_
_geom_bond_atom_site_label_1
_geom_bond_atom_site_label_2
_geom_bond_site_symmetry_1
_geom_bond_site_symmetry_2
Cd1 Cl1 1_555 1_555
Cd2 Cl1 1_555 1_555
Cl2 Cd1 1_555 1_555
Cl3 Cd1 1_555 1_555
Cl4 Cd2 1_555 1_555
Cl5 Cd1 1_555 1_555
O1 Cd1 1_555 1_555
N1 H1 1_555 1_555
H2 N1 1_555 1_555
C1 O1 1_555 1_555
H3 C1 1_555 1_555
H4 C1 1_555 1_555
C2 N1 1_555 1_555
H5 C2 1_555 1_555
H6 C2 1_555 1_555
C3 N1 1_555 1_555
H7 C3 1_555 1_555
H8 C3 1_555 1_555
C4 O1 1_555 1_555
H9 C4 1_555 1_555
H10 C4 1_555 1_555
Cl6 Cd2 1_555 1_555
O2 Cd1 1_555 1_555
C5 H11 1_555 1_555
H12 C5 1_555 1_555
C6 O2 1_555 1_555
H13 C6 1_555 1_555
H14 C6 1_555 1_555
C7 O2 1_555 1_555
H15 C7 1_555 1_555
H16 C7 1_555 1_555
N2 C5 1_555 1_555
H17 N2 1_555 1_555
H18 N2 1_555 1_555
C8 C7 1_555 1_555
H19 C8 1_555 1_555
H20 C8 1_555 1_555
Cd2_2 Cl2 1_555 1_555
Cl2_2 Cd2 1_555 1_555
Cl3_2 Cd2 1_555 1_555
Cd2 Cl5 1_555 1_555
Cl3 Cd2_2 1_555 1_555
C1 C2 1_555 1_555
C3 C4 1_555 1_555
C5 C6 1_555 1_555
N2 C8 1_555 1_555

#END
