
#######################################################################
#
#                 Cambridge Crystallographic Data Centre
#                                CCDC 
#
#######################################################################
#
# If this CIF has been generated from an entry in the Cambridge 
# Structural Database, then it will include bibliographic, chemical, 
# crystal, experimental, refinement or atomic coordinate data resulting 
# from the CCDC's data processing and validation procedures.
#
#######################################################################

data_AWOWAK
_symmetry_cell_setting           monoclinic
_symmetry_space_group_name_H-M   'P 21/c'
_symmetry_Int_Tables_number      14
_space_group_name_Hall           '-P 2ybc'
loop_
_symmetry_equiv_pos_site_id
_symmetry_equiv_pos_as_xyz
1 x,y,z
2 -x,1/2+y,1/2-z
3 -x,-y,-z
4 x,1/2-y,1/2+z
_cell_length_a                   9.5464(10)
_cell_length_b                   12.4501(12)
_cell_length_c                   14.3627(14)
_cell_angle_alpha                90
_cell_angle_beta                 95.200(2)
_cell_angle_gamma                90
_cell_volume                     1700.03
loop_
_atom_site_label
_atom_site_type_symbol
_atom_site_fract_x
_atom_site_fract_y
_atom_site_fract_z
Cu1 Cu 0.88177(5) 0.90083(4) 0.98082(3)
Cl1 Cl 0.99273(13) 1.01723(10) 0.89281(7)
Cl2 Cl 0.71280(10) 0.84680(7) 1.06852(6)
O1 O 0.7964(3) 0.83900(18) 0.86412(16)
N1 N 0.6693(3) 0.8022(2) 0.85349(19)
C1 C 0.5489(4) 0.8678(3) 0.8100(3)
C2 C 0.4216(4) 0.8015(3) 0.8413(3)
N2 N 0.4909(3) 0.6941(2) 0.8626(2)
O2 O 0.4203(3) 0.61000(19) 0.87207(18)
C3 C 0.6323(4) 0.7014(3) 0.8732(2)
C4 C 0.7274(4) 0.6112(3) 0.8925(2)
C5 C 0.7042(4) 0.5368(3) 0.9610(2)
C6 C 0.7918(4) 0.4474(3) 0.9738(3)
C7 C 0.8984(4) 0.4317(3) 0.9170(2)
C8 C 0.9221(4) 0.5059(3) 0.8488(2)
C9 C 0.8378(4) 0.5960(3) 0.8375(3)
C10 C 0.9862(4) 0.3326(3) 0.9300(3)
O3 O 0.9763(3) 0.26709(19) 0.99095(18)
O4 O 1.0782(4) 0.3258(3) 0.8667(2)
C11 C 0.5637(7) 0.8645(4) 0.7061(3)
C12 C 0.5593(6) 0.9820(3) 0.8464(4)
C13 C 0.3657(6) 0.8398(4) 0.9316(4)
C14 C 0.3011(7) 0.7854(6) 0.7663(5)
H1 H 1.127(4) 0.278(3) 0.875(3)
H2 H 0.776(4) 0.400(3) 1.020(2)
H3 H 0.633(3) 0.544(2) 0.998(2)
H4 H 0.993(3) 0.495(2) 0.809(2)
H5 H 0.856(4) 0.642(3) 0.799(2)
H6 H 0.495(4) 0.903(3) 0.680(3)
H7 H 0.650(5) 0.897(4) 0.693(3)
H8 H 0.555(4) 0.787(3) 0.682(3)
H9 H 0.648(5) 1.010(3) 0.826(3)
H10 H 0.564(3) 0.988(3) 0.912(3)
H11 H 0.481(4) 1.020(3) 0.820(2)
H12 H 0.433(5) 0.844(3) 0.984(3)
H13 H 0.291(6) 0.800(4) 0.953(4)
H14 H 0.314(5) 0.906(3) 0.920(3)
H15 H 0.333(5) 0.751(4) 0.711(4)
H16 H 0.258(5) 0.844(4) 0.757(3)
H17 H 0.233(6) 0.746(4) 0.791(4)
Cl1B Cl 1.00727(13) 0.98277(10) 1.10719(7)
O3B O 1.0237(3) 0.73291(19) 1.00905(18)
Cu1B Cu 1.11823(5) 1.09917(4) 1.01918(3)
Cu1B_2 Cu 1.11823(5) 0.09917(4) 1.01918(3)
loop_
_geom_bond_atom_site_label_1
_geom_bond_atom_site_label_2
_geom_bond_site_symmetry_1
_geom_bond_site_symmetry_2
Cu1 Cl1 1_555 1_555
Cl1 Cu1B 1_555 1_555
Cl2 Cu1 1_555 1_555
O1 Cu1 1_555 1_555
N1 O1 1_555 1_555
C1 N1 1_555 1_555
C2 C1 1_555 1_555
N2 C2 1_555 1_555
O2 N2 1_555 1_555
C3 N1 1_555 1_555
C4 C3 1_555 1_555
C5 C4 1_555 1_555
C6 C5 1_555 1_555
C7 C6 1_555 1_555
C8 C7 1_555 1_555
C9 C4 1_555 1_555
C10 C7 1_555 1_555
O3 C10 1_555 1_555
O4 C10 1_555 1_555
C11 C1 1_555 1_555
C12 C1 1_555 1_555
C13 C2 1_555 1_555
C14 C2 1_555 1_555
H1 O4 1_555 1_555
H2 C6 1_555 1_555
H3 C5 1_555 1_555
H4 C8 1_555 1_555
H5 C9 1_555 1_555
H6 C11 1_555 1_555
H7 C11 1_555 1_555
H8 C11 1_555 1_555
H9 C12 1_555 1_555
H10 C12 1_555 1_555
H11 C12 1_555 1_555
H12 C13 1_555 1_555
H13 C13 1_555 1_555
H14 C13 1_555 1_555
H15 C14 1_555 1_555
H16 C14 1_555 1_555
H17 C14 1_555 1_555
Cl1B Cu1 1_555 1_555
O3B Cu1 1_555 1_555
Cu1B Cl1B 1_555 1_555
Cu1B_2 O3 1_555 1_555
N2 C3 1_555 1_555
C8 C9 1_555 1_555

#END
