
#######################################################################
#
#                 Cambridge Crystallographic Data Centre
#                                CCDC 
#
#######################################################################
#
# If this CIF has been generated from an entry in the Cambridge 
# Structural Database, then it will include bibliographic, chemical, 
# crystal, experimental, refinement or atomic coordinate data resulting 
# from the CCDC's data processing and validation procedures.
#
#######################################################################

data_AWOYAN
_symmetry_cell_setting           triclinic
_symmetry_space_group_name_H-M   'P -1'
_symmetry_Int_Tables_number      2
_space_group_name_Hall           '-P 1'
loop_
_symmetry_equiv_pos_site_id
_symmetry_equiv_pos_as_xyz
1 x,y,z
2 -x,-y,-z
_cell_length_a                   6.1851(9)
_cell_length_b                   10.1359(17)
_cell_length_c                   15.453(2)
_cell_angle_alpha                100.308(7)
_cell_angle_beta                 98.700(8)
_cell_angle_gamma                100.667(7)
_cell_volume                     919.476
loop_
_atom_site_label
_atom_site_type_symbol
_atom_site_fract_x
_atom_site_fract_y
_atom_site_fract_z
Hg1 Hg 0.89515(4) 0.65817(2) 0.467447(16)
O1 O 0.8495(8) 0.5346(4) 0.3440(3)
O2 O 0.4800(8) 0.5246(5) 0.3271(3)
O3 O 0.2895(7) 0.4772(4) 0.1441(3)
O4 O 0.5203(8) 0.6855(4) 0.1796(4)
O5 O 0.6204(8) 0.7673(5) 0.5843(3)
O6 O 0.9879(7) 0.7872(4) 0.5911(3)
O7 O 1.2498(7) 1.0048(4) 0.7117(3)
O8 O 1.0778(8) 1.1274(5) 0.6272(3)
O9 O 1.2672(7) 0.5721(4) 0.4763(3)
C1 C 0.6439(11) 0.4964(6) 0.2984(4)
C2 C 0.6323(10) 0.4156(6) 0.2068(4)
C3 C 0.7982(11) 0.3423(6) 0.1913(4)
C4 C 0.7977(11) 0.2696(6) 0.1066(5)
C5 C 0.6320(11) 0.2710(6) 0.0339(5)
C6 C 0.4648(11) 0.3435(6) 0.0472(4)
C7 C 0.4668(10) 0.4133(6) 0.1336(4)
C8 C 0.3385(11) 0.6172(6) 0.1734(4)
C9 C 0.1367(13) 0.6643(7) 0.1952(6)
C10 C 0.8163(11) 0.8122(6) 0.6245(4)
C11 C 0.8677(10) 0.8985(5) 0.7175(4)
C12 C 0.7009(11) 0.8886(6) 0.7696(5)
C13 C 0.7399(12) 0.9606(6) 0.8567(4)
C14 C 0.9507(11) 1.0455(6) 0.8963(4)
C15 C 1.1151(11) 1.0597(6) 0.8456(4)
C16 C 1.0744(10) 0.9876(6) 0.7573(4)
C17 C 1.2367(11) 1.0780(6) 0.6470(4)
C18 C 1.4387(13) 1.0861(8) 0.6063(5)
H1 H 0.9129 0.3424 0.2398
H2 H 0.9097 0.2185 0.0975
H3 H 0.6341 0.2225 -0.0244
H4 H 0.3524 0.3452 -0.0016
H5 H 0.1725 0.7613 0.2154
H6 H 0.0862 0.6224 0.2410
H7 H 0.0218 0.6394 0.1432
H8 H 0.5576 0.8309 0.7441
H9 H 0.6235 0.9526 0.8904
H10 H 0.9795 1.0926 0.9572
H11 H 1.2569 1.1192 0.8710
H12 H 1.4269 1.1379 0.5610
H13 H 1.5677 1.1294 0.6511
H14 H 1.4512 0.9960 0.5807
H15 H 1.3284 0.5582 0.4330
H16 H 1.3720 0.6302 0.5086
Hg1A Hg 1.10485(4) 1.34183(2) 0.532553(16)
Hg1A_2 Hg 1.10485(4) 0.34183(2) 0.532553(16)
O8A O 0.9222(8) 0.8726(5) 0.3728(3)
O9A O 0.7328(7) 0.4279(4) 0.5237(3)
H15A H 0.6716 0.4418 0.5670
H16A H 0.6280 0.3698 0.4914
loop_
_geom_bond_atom_site_label_1
_geom_bond_atom_site_label_2
_geom_bond_site_symmetry_1
_geom_bond_site_symmetry_2
Hg1 O1 1_555 1_555
O1 C1 1_555 1_555
O2 C1 1_555 1_555
O3 C7 1_555 1_555
O4 C8 1_555 1_555
O5 C10 1_555 1_555
O6 Hg1 1_555 1_555
O7 C16 1_555 1_555
O8 C17 1_555 1_555
O9 Hg1 1_555 1_555
C1 C2 1_555 1_555
C2 C3 1_555 1_555
C3 C4 1_555 1_555
C4 C5 1_555 1_555
C5 C6 1_555 1_555
C6 C7 1_555 1_555
C7 C2 1_555 1_555
C8 O3 1_555 1_555
C9 C8 1_555 1_555
C10 O6 1_555 1_555
C11 C10 1_555 1_555
C12 C11 1_555 1_555
C13 C12 1_555 1_555
C14 C13 1_555 1_555
C15 C14 1_555 1_555
C16 C11 1_555 1_555
C17 O7 1_555 1_555
C18 C17 1_555 1_555
H1 C3 1_555 1_555
H2 C4 1_555 1_555
H3 C5 1_555 1_555
H4 C6 1_555 1_555
H5 C9 1_555 1_555
H6 C9 1_555 1_555
H7 C9 1_555 1_555
H8 C12 1_555 1_555
H9 C13 1_555 1_555
H10 C14 1_555 1_555
H11 C15 1_555 1_555
H12 C18 1_555 1_555
H13 C18 1_555 1_555
H14 C18 1_555 1_555
H15 O9 1_555 1_555
H16 O9 1_555 1_555
Hg1A O8 1_555 1_555
Hg1A_2 O9 1_555 1_555
O8A Hg1 1_555 1_555
O9A Hg1 1_555 1_555
H15A O9A 1_555 1_555
H16A O9A 1_555 1_555
C15 C16 1_555 1_555
Hg1A_2 O9A 1_555 1_555

#END
