
#######################################################################
#
#                 Cambridge Crystallographic Data Centre
#                                CCDC 
#
#######################################################################
#
# If this CIF has been generated from an entry in the Cambridge 
# Structural Database, then it will include bibliographic, chemical, 
# crystal, experimental, refinement or atomic coordinate data resulting 
# from the CCDC's data processing and validation procedures.
#
#######################################################################

data_AWOYOB
_symmetry_cell_setting           monoclinic
_symmetry_space_group_name_H-M   'P 21/c'
_symmetry_Int_Tables_number      14
_space_group_name_Hall           '-P 2ybc'
loop_
_symmetry_equiv_pos_site_id
_symmetry_equiv_pos_as_xyz
1 x,y,z
2 -x,1/2+y,1/2-z
3 -x,-y,-z
4 x,1/2-y,1/2+z
_cell_length_a                   7.7812(2)
_cell_length_b                   12.7910(3)
_cell_length_c                   14.2575(4)
_cell_angle_alpha                90
_cell_angle_beta                 105.539(3)
_cell_angle_gamma                90
_cell_volume                     1367.17
loop_
_atom_site_label
_atom_site_type_symbol
_atom_site_fract_x
_atom_site_fract_y
_atom_site_fract_z
Mn1 Mn 0.0000 0.0000 0.0000
N1 N -0.0491(2) -0.09844(11) 0.12272(9)
N2 N -0.1216(2) -0.12917(11) 0.25951(10)
N3 N 0.21756(19) 0.07932(11) 0.11619(9)
N4 N 0.3569(2) 0.14248(11) 0.26047(10)
Cl1 Cl -0.22693(6) 0.13438(3) 0.02653(3)
C1 C 0.0739(2) -0.16467(14) 0.18007(12)
H1 H 0.1721 -0.1924 0.1632
C2 C 0.0323(3) -0.18392(14) 0.26455(12)
H2 H 0.0952 -0.2257 0.3157
C3 C -0.1654(2) -0.07860(14) 0.17360(11)
H3 H -0.2644 -0.0354 0.1526
C4 C -0.2131(3) -0.11906(15) 0.33668(13)
H4 H -0.2361 -0.1881 0.3587
H5 H -0.3269 -0.0846 0.3107
C5 C -0.1034(2) -0.05720(14) 0.42203(12)
C6 C -0.0835(3) 0.04960(15) 0.41478(12)
H6 H -0.1397 0.0835 0.3570
C7 C -0.0182(3) -0.10667(15) 0.50824(12)
H7 H -0.0296 -0.1786 0.5142
C8 C 0.3906(3) 0.10316(15) 0.11778(13)
H8 H 0.4403 0.0942 0.0658
C9 C 0.4773(3) 0.14128(15) 0.20553(13)
H9 H 0.5958 0.1627 0.2252
C10 C 0.2038(2) 0.10424(13) 0.20375(12)
H10 H 0.1002 0.0962 0.2237
C11 C 0.3886(3) 0.17165(15) 0.36308(12)
H11 H 0.2796 0.2005 0.3731
H12 H 0.4790 0.2259 0.3784
C12 C 0.4485(2) 0.08073(13) 0.43225(11)
C13 C 0.5545(3) 0.10091(14) 0.52584(12)
H13 H 0.5921 0.1688 0.5437
C14 C 0.3964(3) -0.02103(14) 0.40819(12)
H14 H 0.3263 -0.0358 0.3458
Mn1_2 Mn 0.0000 0.0000 1.0000
Mn1_3 Mn 1.0000 0.0000 1.0000
N1B N 0.0491(2) 0.09844(11) 0.87728(9)
N1B_2 N 0.0491(2) 0.09844(11) -0.12272(9)
N2B N 0.1216(2) 0.12917(11) 0.74049(10)
N3B N 0.78244(19) -0.07932(11) 0.88381(9)
N3B_2 N -0.21756(19) -0.07932(11) -0.11619(9)
N4B N 0.6431(2) -0.14248(11) 0.73953(10)
Cl1B Cl 0.22693(6) -0.13438(3) -0.02653(3)
C1B C -0.0739(2) 0.16467(14) 0.81993(12)
H1B H -0.1721 0.1924 0.8368
C2B C -0.0323(3) 0.18392(14) 0.73545(12)
H2B H -0.0952 0.2257 0.6843
C3B C 0.1654(2) 0.07860(14) 0.82640(11)
H3B H 0.2644 0.0354 0.8474
C4B C 0.2131(3) 0.11906(15) 0.66332(13)
H4B H 0.2361 0.1881 0.6413
H5B H 0.3269 0.0846 0.6893
C5B C 0.1034(2) 0.05720(14) 0.57797(12)
C6B C 0.0835(3) -0.04960(15) 0.58522(12)
H6B H 0.1397 -0.0835 0.6430
C7B C 0.0182(3) 0.10667(15) 0.49176(12)
H7B H 0.0296 0.1786 0.4858
C8B C 0.6094(3) -0.10316(15) 0.88222(13)
H8B H 0.5597 -0.0942 0.9342
C9B C 0.5227(3) -0.14128(15) 0.79447(13)
H9B H 0.4042 -0.1627 0.7748
C10B C 0.7962(2) -0.10424(13) 0.79625(12)
H10B H 0.8998 -0.0962 0.7763
C11B C 0.6114(3) -0.17165(15) 0.63692(12)
H11B H 0.7204 -0.2005 0.6269
H12B H 0.5210 -0.2259 0.6216
C12B C 0.5515(2) -0.08073(13) 0.56775(11)
C13B C 0.4455(3) -0.10091(14) 0.47416(12)
H13B H 0.4079 -0.1688 0.4563
C14B C 0.6036(3) 0.02103(14) 0.59181(12)
H14B H 0.6737 0.0358 0.6542
loop_
_geom_bond_atom_site_label_1
_geom_bond_atom_site_label_2
_geom_bond_site_symmetry_1
_geom_bond_site_symmetry_2
Mn1 N1 1_555 1_555
N1 C1 1_555 1_555
N2 C2 1_555 1_555
N3 Mn1 1_555 1_555
N4 C9 1_555 1_555
Cl1 Mn1 1_555 1_555
C1 H1 1_555 1_555
C2 C1 1_555 1_555
H2 C2 1_555 1_555
C3 N1 1_555 1_555
H3 C3 1_555 1_555
C4 N2 1_555 1_555
H4 C4 1_555 1_555
H5 C4 1_555 1_555
C5 C4 1_555 1_555
C6 C5 1_555 1_555
H6 C6 1_555 1_555
C7 C5 1_555 1_555
H7 C7 1_555 1_555
C8 N3 1_555 1_555
H8 C8 1_555 1_555
C9 C8 1_555 1_555
H9 C9 1_555 1_555
C10 N3 1_555 1_555
H10 C10 1_555 1_555
C11 N4 1_555 1_555
H11 C11 1_555 1_555
H12 C11 1_555 1_555
C12 C11 1_555 1_555
C13 C12 1_555 1_555
H13 C13 1_555 1_555
C14 C12 1_555 1_555
H14 C14 1_555 1_555
Mn1_2 N1B 1_555 1_555
Mn1_3 N3B 1_555 1_555
N1B C1B 1_555 1_555
N1B_2 Mn1 1_555 1_555
N2B C2B 1_555 1_555
N3B C8B 1_555 1_555
N3B_2 Mn1 1_555 1_555
N4B C9B 1_555 1_555
Cl1B Mn1 1_555 1_555
C1B H1B 1_555 1_555
C2B C1B 1_555 1_555
H2B C2B 1_555 1_555
C3B N1B 1_555 1_555
H3B C3B 1_555 1_555
C4B N2B 1_555 1_555
H4B C4B 1_555 1_555
H5B C4B 1_555 1_555
C5B C4B 1_555 1_555
C6B C7 1_555 1_555
H6B C6B 1_555 1_555
C7B C6 1_555 1_555
H7B C7B 1_555 1_555
C8B H8B 1_555 1_555
C9B C8B 1_555 1_555
H9B C9B 1_555 1_555
C10B N3B 1_555 1_555
H10B C10B 1_555 1_555
C11B N4B 1_555 1_555
H11B C11B 1_555 1_555
H12B C11B 1_555 1_555
C12B C11B 1_555 1_555
C13B C14 1_555 1_555
H13B C13B 1_555 1_555
C14B C13 1_555 1_555
H14B C14B 1_555 1_555
N2 C3 1_555 1_555
N4 C10 1_555 1_555
N2B C3B 1_555 1_555
N4B C10B 1_555 1_555
C5B C6B 1_555 1_555
C5B C7B 1_555 1_555
C12B C13B 1_555 1_555
C12B C14B 1_555 1_555

#END
