
#######################################################################
#
#                 Cambridge Crystallographic Data Centre
#                                CCDC 
#
#######################################################################
#
# If this CIF has been generated from an entry in the Cambridge 
# Structural Database, then it will include bibliographic, chemical, 
# crystal, experimental, refinement or atomic coordinate data resulting 
# from the CCDC's data processing and validation procedures.
#
#######################################################################

data_AWOZER
_symmetry_cell_setting           triclinic
_symmetry_space_group_name_H-M   'P -1'
_symmetry_Int_Tables_number      2
_space_group_name_Hall           '-P 1'
loop_
_symmetry_equiv_pos_site_id
_symmetry_equiv_pos_as_xyz
1 x,y,z
2 -x,-y,-z
_cell_length_a                   8.9400(18)
_cell_length_b                   11.950(2)
_cell_length_c                   13.060(3)
_cell_angle_alpha                97.05(3)
_cell_angle_beta                 96.29(3)
_cell_angle_gamma                103.01(3)
_cell_volume                     1335.5
loop_
_atom_site_label
_atom_site_type_symbol
_atom_site_fract_x
_atom_site_fract_y
_atom_site_fract_z
Co1 Co 0.23479(7) 0.74820(5) 0.24125(5)
V1 V 0.38825(10) 0.59910(7) -0.13195(6)
V2 V 0.52982(9) 0.66638(7) 0.13037(6)
V3 V 0.39407(10) 0.85513(7) 0.49044(6)
V4 V 0.57806(10) 0.71166(8) 0.66950(7)
N1 N 0.0907(5) 0.7133(3) 0.1114(3)
N2 N 0.3311(5) 0.8838(3) 0.1835(3)
N3 N 0.0909(5) 0.8264(3) 0.3021(3)
N4 N 0.1227(4) 0.6155(3) 0.2948(3)
C1 C -0.0278(6) 0.6227(5) 0.0766(4)
H1 H -0.0460 0.5611 0.1143
C2 C -0.1265(6) 0.6180(5) -0.0163(4)
H2 H -0.2089 0.5534 -0.0389
C3 C -0.1031(6) 0.7068(5) -0.0737(4)
H3 H -0.1701 0.7039 -0.1343
C4 C 0.0240(6) 0.8028(5) -0.0399(4)
C5 C 0.1173(6) 0.8015(4) 0.0535(4)
C6 C 0.2481(6) 0.8946(4) 0.0930(4)
C7 C 0.2874(7) 0.9889(5) 0.0401(4)
C8 C 0.4209(7) 1.0742(5) 0.0838(5)
H4 H 0.4513 1.1399 0.0524
C9 C 0.5075(7) 1.0610(4) 0.1734(5)
H5 H 0.5986 1.1164 0.2009
C10 C 0.4594(6) 0.9649(4) 0.2233(4)
H6 H 0.5174 0.9576 0.2846
C11 C 0.0863(7) 0.9388(5) 0.3112(4)
H7 H 0.1633 0.9917 0.2878
C12 C -0.0320(7) 0.9775(5) 0.3554(5)
H8 H -0.0317 1.0560 0.3618
C13 C -0.1470(7) 0.9023(5) 0.3890(5)
H9 H -0.2272 0.9286 0.4159
C14 C -0.1447(6) 0.7830(5) 0.3830(4)
C15 C -0.0220(6) 0.7511(4) 0.3389(4)
C16 C -0.0022(5) 0.6364(4) 0.3355(4)
O1 O 0.2273(6) 0.8547(6) 0.5221(4)
O2 O 0.4590(5) 0.6768(3) -0.2259(3)
O3 O 0.4870(6) 0.7854(4) 0.5774(3)
O4 O 0.5967(5) 0.5906(4) 0.6108(4)
O5 O 0.2165(5) 0.6124(4) -0.1237(4)
O6 O 0.7487(5) 0.7914(4) 0.7188(4)
O7 O 0.6475(4) 0.7896(3) 0.1751(3)
O8 O 0.5013(5) 0.6572(3) -0.0102(3)
O9 O 0.6157(5) 0.5498(3) 0.1606(3)
O10 O 0.3591(4) 0.6592(3) 0.1763(3)
O11 O 0.3782(4) 0.7927(3) 0.3647(3)
O12 O 0.5000 1.0000 0.5000
C17 C -0.1091(6) 0.5519(5) 0.3745(4)
C18 C -0.0753(6) 0.4416(5) 0.3727(4)
H10 H -0.1414 0.3821 0.3972
C19 C 0.0543(6) 0.4231(5) 0.3348(4)
H11 H 0.0774 0.3510 0.3342
C20 C 0.1534(6) 0.5121(4) 0.2966(4)
H12 H 0.2425 0.4984 0.2721
C21 C -0.2382(7) 0.5856(6) 0.4138(5)
H13 H -0.3124 0.5306 0.4374
C22 C -0.2546(7) 0.6950(6) 0.4174(4)
H14 H -0.3403 0.7137 0.4432
C23 C 0.1895(7) 0.9882(5) -0.0557(4)
H15 H 0.2131 1.0504 -0.0923
C24 C 0.0653(7) 0.9004(5) -0.0937(5)
H16 H 0.0053 0.9031 -0.1558
V1A V 0.61175(10) 0.40090(7) 0.13195(6)
V3A V 0.60593(10) 1.14487(7) 0.50956(6)
O9A O 0.3843(5) 0.4502(3) -0.1606(3)
O2_2 O 0.4590(5) 0.6768(3) 0.7741(3)
O5A O 0.7835(5) 0.3876(4) 0.1237(4)
O8A O 0.4987(5) 0.3428(3) 0.0102(3)
O1A O 0.7727(6) 1.1453(6) 0.4779(4)
O3A O 0.5130(6) 1.2146(4) 0.4226(3)
O11A O 0.6218(4) 1.2073(3) 0.6353(3)
Co1A Co 0.76521(7) 1.25180(5) 0.75875(5)
V2A V 0.47018(9) 0.33362(7) -0.13037(6)
V4_2 V 0.57806(10) 0.71166(8) -0.33050(7)
N1A N 0.9093(5) 1.2867(3) 0.8886(3)
N2A N 0.6689(5) 1.1162(3) 0.8165(3)
C1A C 1.0278(6) 1.3773(5) 0.9234(4)
H1A H 1.0460 1.4389 0.8857
C2A C 1.1265(6) 1.3820(5) 1.0163(4)
H2A H 1.2089 1.4466 1.0389
C3A C 1.1031(6) 1.2932(5) 1.0737(4)
H3A H 1.1701 1.2961 1.1343
C4A C 0.9760(6) 1.1972(5) 1.0399(4)
C5A C 0.8827(6) 1.1985(4) 0.9465(4)
C6A C 0.7519(6) 1.1054(4) 0.9070(4)
C7A C 0.7126(7) 1.0111(5) 0.9599(4)
C8A C 0.5791(7) 0.9258(5) 0.9162(5)
H4A H 0.5487 0.8601 0.9476
C9A C 0.4925(7) 0.9390(4) 0.8266(5)
H5A H 0.4014 0.8836 0.7991
C10A C 0.5406(6) 1.0351(4) 0.7767(4)
H6A H 0.4826 1.0424 0.7154
C23A C 0.8105(7) 1.0118(5) 1.0557(4)
H15A H 0.7869 0.9496 1.0923
C24A C 0.9347(7) 1.0996(5) 1.0937(5)
H16A H 0.9947 1.0969 1.1558
N3A N 0.9091(5) 1.1736(3) 0.6979(3)
N4A N 0.8773(4) 1.3845(3) 0.7052(3)
C11A C 0.9137(7) 1.0612(5) 0.6888(4)
H7A H 0.8367 1.0083 0.7122
C12A C 1.0320(7) 1.0225(5) 0.6446(5)
H8A H 1.0317 0.9440 0.6382
C13A C 1.1470(7) 1.0977(5) 0.6110(5)
H9A H 1.2272 1.0714 0.5841
C14A C 1.1447(6) 1.2170(5) 0.6170(4)
C15A C 1.0220(6) 1.2489(4) 0.6611(4)
C16A C 1.0022(5) 1.3636(4) 0.6645(4)
C17A C 1.1091(6) 1.4481(5) 0.6255(4)
C18A C 1.0753(6) 1.5584(5) 0.6273(4)
H10A H 1.1414 1.6179 0.6028
C19A C 0.9457(6) 1.5769(5) 0.6652(4)
H11A H 0.9226 1.6490 0.6658
C20A C 0.8466(6) 1.4879(4) 0.7034(4)
H12A H 0.7575 1.5016 0.7279
C21A C 1.2382(7) 1.4144(6) 0.5862(5)
H13A H 1.3124 1.4694 0.5626
C22A C 1.2546(7) 1.3050(6) 0.5826(4)
H14A H 1.3403 1.2863 0.5568
O10A O 0.6409(4) 1.3408(3) 0.8237(3)
O7A O 0.3525(4) 0.2104(3) -0.1751(3)
O4_2 O 0.5967(5) 0.5906(4) -0.3892(4)
O6_2 O 0.7487(5) 0.7914(4) -0.2812(4)
O2A O 0.5410(5) 0.3232(3) 0.2259(3)
V1_2 V 0.38825(10) 0.59910(7) 0.86805(6)
V4A V 0.42194(10) 1.28834(8) 0.33050(7)
O10A_2 O 0.6409(4) 0.3408(3) -0.1763(3)
O3_2 O 0.4870(6) 0.7854(4) -0.4226(3)
V2A_2 V 0.47018(9) 1.33362(7) 0.86963(6)
loop_
_geom_bond_atom_site_label_1
_geom_bond_atom_site_label_2
_geom_bond_site_symmetry_1
_geom_bond_site_symmetry_2
Co1 N1 1_555 1_555
V1 O2 1_555 1_555
V2 O7 1_555 1_555
V3 O1 1_555 1_555
V4 O3 1_555 1_555
N1 C1 1_555 1_555
N2 Co1 1_555 1_555
N3 Co1 1_555 1_555
N4 Co1 1_555 1_555
C1 H1 1_555 1_555
C2 C1 1_555 1_555
H2 C2 1_555 1_555
C3 C2 1_555 1_555
H3 C3 1_555 1_555
C4 C3 1_555 1_555
C5 N1 1_555 1_555
C6 N2 1_555 1_555
C7 C6 1_555 1_555
C8 C7 1_555 1_555
H4 C8 1_555 1_555
C9 C8 1_555 1_555
H5 C9 1_555 1_555
C10 N2 1_555 1_555
H6 C10 1_555 1_555
C11 N3 1_555 1_555
H7 C11 1_555 1_555
C12 C11 1_555 1_555
H8 C12 1_555 1_555
C13 C12 1_555 1_555
H9 C13 1_555 1_555
C14 C13 1_555 1_555
C15 N3 1_555 1_555
C16 N4 1_555 1_555
O2 V4_2 1_555 1_555
O3 V3 1_555 1_555
O4 V4 1_555 1_555
O5 V1 1_555 1_555
O6 V4 1_555 1_555
O8 V1 1_555 1_555
O9 V2 1_555 1_555
O10 Co1 1_555 1_555
O11 Co1 1_555 1_555
O12 V3 1_555 1_555
C17 C16 1_555 1_555
C18 C17 1_555 1_555
H10 C18 1_555 1_555
C19 C18 1_555 1_555
H11 C19 1_555 1_555
C20 N4 1_555 1_555
H12 C20 1_555 1_555
C21 C17 1_555 1_555
H13 C21 1_555 1_555
C22 C14 1_555 1_555
H14 C22 1_555 1_555
C23 C7 1_555 1_555
H15 C23 1_555 1_555
C24 C4 1_555 1_555
H16 C24 1_555 1_555
V1A O9 1_555 1_555
V3A O12 1_555 1_555
O9A V1 1_555 1_555
O2_2 V4 1_555 1_555
O5A V1A 1_555 1_555
O8A V1A 1_555 1_555
O1A V3A 1_555 1_555
O3A V3A 1_555 1_555
O11A V3A 1_555 1_555
Co1A O11A 1_555 1_555
V2A O9A 1_555 1_555
V4_2 O4_2 1_555 1_555
N1A Co1A 1_555 1_555
N2A Co1A 1_555 1_555
C1A N1A 1_555 1_555
H1A C1A 1_555 1_555
C2A C1A 1_555 1_555
H2A C2A 1_555 1_555
C3A C2A 1_555 1_555
H3A C3A 1_555 1_555
C4A C3A 1_555 1_555
C5A N1A 1_555 1_555
C6A N2A 1_555 1_555
C7A C6A 1_555 1_555
C8A C7A 1_555 1_555
H4A C8A 1_555 1_555
C9A C8A 1_555 1_555
H5A C9A 1_555 1_555
C10A N2A 1_555 1_555
H6A C10A 1_555 1_555
C23A C7A 1_555 1_555
H15A C23A 1_555 1_555
C24A C4A 1_555 1_555
H16A C24A 1_555 1_555
N3A Co1A 1_555 1_555
N4A Co1A 1_555 1_555
C11A N3A 1_555 1_555
H7A C11A 1_555 1_555
C12A C11A 1_555 1_555
H8A C12A 1_555 1_555
C13A C12A 1_555 1_555
H9A C13A 1_555 1_555
C14A C13A 1_555 1_555
C15A N3A 1_555 1_555
C16A N4A 1_555 1_555
C17A C16A 1_555 1_555
C18A C17A 1_555 1_555
H10A C18A 1_555 1_555
C19A C18A 1_555 1_555
H11A C19A 1_555 1_555
C20A N4A 1_555 1_555
H12A C20A 1_555 1_555
C21A C17A 1_555 1_555
H13A C21A 1_555 1_555
C22A C14A 1_555 1_555
H14A C22A 1_555 1_555
O10A Co1A 1_555 1_555
O7A V2A 1_555 1_555
O6_2 V4_2 1_555 1_555
O2A V1A 1_555 1_555
V1_2 O2_2 1_555 1_555
V4A O3A 1_555 1_555
O10A_2 V2A 1_555 1_555
O3_2 V4_2 1_555 1_555
V2A_2 O10A 1_555 1_555
V2 O10 1_555 1_555
V2 O8 1_555 1_555
V3 O11 1_555 1_555
C4 C5 1_555 1_555
C5 C6 1_555 1_555
C9 C10 1_555 1_555
C14 C15 1_555 1_555
C15 C16 1_555 1_555
C19 C20 1_555 1_555
C21 C22 1_555 1_555
C23 C24 1_555 1_555
O8A V2A 1_555 1_555
C4A C5A 1_555 1_555
C5A C6A 1_555 1_555
C9A C10A 1_555 1_555
C23A C24A 1_555 1_555
C14A C15A 1_555 1_555
C15A C16A 1_555 1_555
C19A C20A 1_555 1_555
C21A C22A 1_555 1_555

#END
