
#######################################################################
#
#                 Cambridge Crystallographic Data Centre
#                                CCDC 
#
#######################################################################
#
# If this CIF has been generated from an entry in the Cambridge 
# Structural Database, then it will include bibliographic, chemical, 
# crystal, experimental, refinement or atomic coordinate data resulting 
# from the CCDC's data processing and validation procedures.
#
#######################################################################

data_AWOZOC
_symmetry_cell_setting           triclinic
_symmetry_space_group_name_H-M   'P -1'
_symmetry_Int_Tables_number      2
_space_group_name_Hall           '-P 1'
loop_
_symmetry_equiv_pos_site_id
_symmetry_equiv_pos_as_xyz
1 x,y,z
2 -x,-y,-z
_cell_length_a                   6.6395(10)
_cell_length_b                   9.5090(14)
_cell_length_c                   21.619(3)
_cell_angle_alpha                97.068(2)
_cell_angle_beta                 94.391(2)
_cell_angle_gamma                98.006(2)
_cell_volume                     1335.23
loop_
_atom_site_label
_atom_site_type_symbol
_atom_site_fract_x
_atom_site_fract_y
_atom_site_fract_z
Sm1 Sm 0.33206(6) 0.01643(4) 0.860687(16)
Sm2 Sm 0.06536(5) -0.11526(4) 0.677756(16)
Sm3 Sm 0.34787(5) 0.29252(4) 0.577813(16)
Co1 Co 0.0000 -0.5000 1.0000
S1 S -0.3305(3) -0.35636(18) 0.56432(8)
S2 S -0.1527(3) 0.18219(18) 0.62306(8)
S3 S 0.7700(3) -0.05896(19) 0.81404(8)
N1 N 0.4459(9) 0.4015(6) 0.6919(3)
N2 N 0.5267(9) 0.5408(6) 0.7811(3)
N3 N -0.0134(9) -0.5242(6) 0.8997(3)
N4 N -0.0377(9) -0.5503(6) 0.7965(2)
C1 C 0.3005(10) 0.1744(7) 0.7196(3)
C2 C 0.4007(10) 0.3228(7) 0.7395(3)
C3 C 0.4487(10) 0.4087(7) 0.7958(3)
C4 C 0.4360(10) 0.3875(7) 0.8624(3)
C5 C 0.5213(11) 0.5311(8) 0.7190(3)
H1 H 0.5655 0.6069 0.6975
C6 C 0.1796(11) -0.2840(7) 0.9305(3)
C7 C 0.0741(10) -0.3984(7) 0.8801(3)
C8 C 0.0601(10) -0.4121(7) 0.8155(3)
C9 C 0.1121(11) -0.3170(7) 0.7687(3)
C10 C -0.0769(10) -0.6128(7) 0.8472(3)
H2 H -0.1408 -0.7067 0.8459
O1 O -0.1806(7) -0.3703(5) 0.5173(2)
O2 O -0.4117(8) -0.4971(5) 0.5791(2)
O3 O -0.2273(7) -0.2689(5) 0.6216(2)
O4 O -0.4904(7) -0.2855(5) 0.5360(2)
O5 O -0.0086(8) 0.2036(6) 0.5754(2)
O6 O -0.1534(8) 0.0358(5) 0.6398(3)
O7 O -0.0966(9) 0.2882(6) 0.6773(3)
O8 O -0.3591(7) 0.1881(5) 0.5942(2)
O9 O 0.2794(7) 0.1296(5) 0.6617(2)
O10 O 0.2340(7) 0.0918(5) 0.7580(2)
O11 O 0.3918(8) 0.2647(5) 0.8764(2)
O12 O 0.4709(8) 0.4987(5) 0.9016(2)
O13 O 0.2724(8) -0.1722(5) 0.9173(2)
O14 O 0.1701(8) -0.3116(5) 0.9862(2)
O15 O 0.2062(7) -0.1901(5) 0.7844(2)
O16 O 0.0501(8) -0.3614(5) 0.7124(2)
O17 O 0.6400(8) 0.0535(6) 0.8074(3)
O18 O 0.6559(11) -0.1679(6) 0.8443(3)
O19 O 0.8096(7) -0.1215(5) 0.7507(2)
O20 O 0.9627(7) 0.0049(5) 0.8501(2)
H3 H 0.563(12) 0.623(5) 0.804(3)
H4 H -0.042(12) -0.598(7) 0.7595(18)
O21 O 0.1566(8) 0.5002(6) 0.6016(2)
H5 H 0.096(10) 0.495(9) 0.6332(19)
H6 H 0.065(8) 0.500(9) 0.574(2)
O22 O 0.2776(10) 0.0581(6) 0.5120(3)
H7 H 0.218(13) -0.017(5) 0.522(3)
H8 H 0.292(14) 0.032(8) 0.4750(16)
O23 O 0.1551(8) -0.1832(5) 0.5707(2)
H9 H 0.266(5) -0.213(7) 0.567(4)
H10 H 0.073(7) -0.249(6) 0.550(3)
O24 O 0.4309(8) -0.1323(6) 0.6751(2)
H11 H 0.496(10) -0.127(9) 0.7089(18)
H12 H 0.504(10) -0.087(8) 0.654(3)
O25 O 0.1776(9) 0.0980(6) 0.9654(3)
H13 H 0.060(6) 0.083(9) 0.949(4)
H14 H 0.184(12) 0.170(6) 0.991(3)
O26 O 0.6080(9) 0.0697(5) 0.9447(2)
H15 H 0.651(12) 0.152(3) 0.959(3)
H16 H 0.639(12) 0.021(6) 0.971(3)
O27 O -0.2592(8) -0.3945(6) 0.9992(2)
H17 H -0.311(10) -0.413(8) 1.0306(17)
H18 H -0.348(8) -0.425(8) 0.971(2)
Sm1A Sm -0.33206(6) -1.01643(4) 1.139313(16)
Sm1_2 Sm 1.33206(6) 0.01643(4) 0.860687(16)
Sm1_3 Sm -0.66794(6) 0.01643(4) 0.860687(16)
Sm2A Sm -0.06536(5) -0.88474(4) 1.322244(16)
Sm2_2 Sm 1.06536(5) -0.11526(4) 0.677756(16)
Sm3A Sm -0.34787(5) -1.29252(4) 1.422187(16)
Sm3A_2 Sm -0.34787(5) -0.29252(4) 0.422187(16)
Sm3_2 Sm -0.65213(5) -0.70748(4) 0.577813(16)
Sm3_3 Sm -0.65213(5) 0.29252(4) 0.577813(16)
Sm3_4 Sm 0.34787(5) -0.70748(4) 1.577813(16)
Sm3A_3 Sm 0.65213(5) -0.29252(4) 1.422187(16)
Sm3A_4 Sm 0.65213(5) -1.29252(4) 1.422187(16)
S1A S 0.3305(3) -0.64364(18) 1.43568(8)
S2A S 0.1527(3) -1.18219(18) 1.37694(8)
S3_2 S -0.2300(3) -0.05896(19) 0.81404(8)
N1A N -0.4459(9) -1.4015(6) 1.3081(3)
N2A N -0.5267(9) -1.5408(6) 1.2189(3)
N3A N 0.0134(9) -0.4758(6) 1.1003(3)
N4A N 0.0377(9) -0.4497(6) 1.2035(2)
C1A C -0.3005(10) -1.1744(7) 1.2804(3)
C2A C -0.4007(10) -1.3228(7) 1.2605(3)
C3A C -0.4487(10) -1.4087(7) 1.2042(3)
C4A C -0.4360(10) -1.3875(7) 1.1376(3)
C5A C -0.5213(11) -1.5311(8) 1.2810(3)
H1A H -0.5655 -1.6069 1.3025
C6A C -0.1796(11) -0.7160(7) 1.0695(3)
C7A C -0.0741(10) -0.6016(7) 1.1199(3)
C8A C -0.0601(10) -0.5879(7) 1.1845(3)
C9A C -0.1121(11) -0.6830(7) 1.2313(3)
C10A C 0.0769(10) -0.3872(7) 1.1528(3)
H2A H 0.1408 -0.2933 1.1541
O1A O 0.1806(7) -0.6297(5) 1.4827(2)
O1A_2 O 0.1806(7) 0.3703(5) 0.4827(2)
O1_2 O -0.1806(7) -1.3703(5) 1.5173(2)
O2A O 0.4117(8) -0.5029(5) 1.4209(2)
O2_2 O 0.5883(8) 0.5029(5) 0.5791(2)
O2A_2 O -0.5883(8) -1.5029(5) 1.4209(2)
O3A O 0.2273(7) -0.7311(5) 1.3784(2)
O4A O 0.4904(7) -0.7145(5) 1.4640(2)
O4A_2 O 0.4904(7) 0.2855(5) 0.4640(2)
O4_2 O -0.4904(7) -1.2855(5) 1.5360(2)
O5A O 0.0086(8) -1.2036(6) 1.4246(2)
O6A O 0.1534(8) -1.0358(5) 1.3602(3)
O7A O 0.0966(9) -1.2882(6) 1.3227(3)
O8A O 0.3591(7) -1.1881(5) 1.4058(2)
O8_2 O 0.6409(7) 0.1881(5) 0.5942(2)
O8A_2 O -0.6409(7) -1.1881(5) 1.4058(2)
O9A O -0.2794(7) -1.1296(5) 1.3383(2)
O10A O -0.2340(7) -1.0918(5) 1.2420(2)
O11A O -0.3918(8) -1.2647(5) 1.1236(2)
O12A O -0.4709(8) -1.4987(5) 1.0984(2)
O13A O -0.2724(8) -0.8278(5) 1.0827(2)
O14A O -0.1701(8) -0.6884(5) 1.0138(2)
O15A O -0.2062(7) -0.8099(5) 1.2156(2)
O16A O -0.0501(8) -0.6386(5) 1.2876(2)
O17_2 O -0.3600(8) 0.0535(6) 0.8074(3)
O17A O -0.6400(8) -1.0535(6) 1.1926(3)
O18_2 O -0.3441(11) -0.1679(6) 0.8443(3)
O19_2 O -0.1904(7) -0.1215(5) 0.7507(2)
O19A O 0.1904(7) -0.8785(5) 1.2493(2)
O20_2 O -0.0373(7) 0.0049(5) 0.8501(2)
O20A O 0.0373(7) -1.0049(5) 1.1499(2)
H3A H -0.563(12) -1.623(5) 1.196(3)
H4A H 0.042(12) -0.402(7) 1.2405(18)
O21A O -0.1566(8) -1.5002(6) 1.3984(2)
H5A H -0.096(10) -1.495(9) 1.3668(19)
H6A H -0.065(8) -1.500(9) 1.426(2)
O22A O -0.2776(10) -1.0581(6) 1.4880(3)
H7A H -0.218(13) -0.983(5) 1.478(3)
H8A H -0.292(14) -1.032(8) 1.5250(16)
O23A O -0.1551(8) -0.8168(5) 1.4293(2)
H9A H -0.266(5) -0.787(7) 1.433(4)
H10A H -0.073(7) -0.751(6) 1.450(3)
O24A O -0.4309(8) -0.8677(6) 1.3249(2)
H11A H -0.496(10) -0.873(9) 1.2911(18)
H12A H -0.504(10) -0.913(8) 1.346(3)
O25A O -0.1776(9) -1.0980(6) 1.0346(3)
H13A H -0.060(6) -1.083(9) 1.051(4)
H14A H -0.184(12) -1.170(6) 1.009(3)
O26A O -0.6080(9) -1.0697(5) 1.0553(2)
H15A H -0.651(12) -1.152(3) 1.041(3)
H16A H -0.639(12) -1.021(6) 1.029(3)
O27A O 0.2592(8) -0.6055(6) 1.0008(2)
H17A H 0.311(10) -0.587(8) 0.9694(17)
H18A H 0.348(8) -0.575(8) 1.029(2)
loop_
_geom_bond_atom_site_label_1
_geom_bond_atom_site_label_2
_geom_bond_site_symmetry_1
_geom_bond_site_symmetry_2
Sm1 O10 1_555 1_555
Sm2 O3 1_555 1_555
Sm3 N1 1_555 1_555
Co1 N3 1_555 1_555
S1 O1 1_555 1_555
S2 O5 1_555 1_555
S3 O17 1_555 1_555
N1 C2 1_555 1_555
N2 C3 1_555 1_555
N3 C7 1_555 1_555
N4 C8 1_555 1_555
C1 C2 1_555 1_555
C2 C3 1_555 1_555
C3 C4 1_555 1_555
C4 O11 1_555 1_555
C5 N1 1_555 1_555
H1 C5 1_555 1_555
C6 C7 1_555 1_555
C7 C8 1_555 1_555
C8 C9 1_555 1_555
C9 O15 1_555 1_555
C10 N3 1_555 1_555
H2 C10 1_555 1_555
O1 Sm3A_2 1_555 1_555
O2 S1 1_555 1_555
O3 S1 1_555 1_555
O4 S1 1_555 1_555
O5 Sm3 1_555 1_555
O6 Sm2 1_555 1_555
O7 S2 1_555 1_555
O8 S2 1_555 1_555
O9 Sm2 1_555 1_555
O10 Sm2 1_555 1_555
O11 Sm1 1_555 1_555
O12 C4 1_555 1_555
O13 Sm1 1_555 1_555
O14 Co1 1_555 1_555
O15 Sm1 1_555 1_555
O16 Sm2 1_555 1_555
O17 Sm1 1_555 1_555
O18 S3 1_555 1_555
O19 S3 1_555 1_555
O20 S3 1_555 1_555
H3 N2 1_555 1_555
H4 N4 1_555 1_555
O21 Sm3 1_555 1_555
H5 O21 1_555 1_555
H6 O21 1_555 1_555
O22 Sm3 1_555 1_555
H7 O22 1_555 1_555
H8 O22 1_555 1_555
O23 Sm2 1_555 1_555
H9 O23 1_555 1_555
H10 O23 1_555 1_555
O24 Sm2 1_555 1_555
H11 O24 1_555 1_555
H12 O24 1_555 1_555
O25 Sm1 1_555 1_555
H13 O25 1_555 1_555
H14 O25 1_555 1_555
O26 Sm1 1_555 1_555
H15 O26 1_555 1_555
H16 O26 1_555 1_555
O27 Co1 1_555 1_555
H17 O27 1_555 1_555
H18 O27 1_555 1_555
Sm1A O10A 1_555 1_555
Sm1_2 O20 1_555 1_555
Sm1_3 O17_2 1_555 1_555
Sm2A O3A 1_555 1_555
Sm2_2 O19 1_555 1_555
Sm3A N1A 1_555 1_555
Sm3A_2 O4 1_555 1_555
Sm3_2 O2 1_555 1_555
Sm3_3 O8 1_555 1_555
Sm3_4 O1A 1_555 1_555
Sm3A_3 O2A 1_555 1_555
Sm3A_4 O8A 1_555 1_555
S1A O1A 1_555 1_555
S2A O5A 1_555 1_555
S3_2 O17_2 1_555 1_555
N1A C2A 1_555 1_555
N2A C3A 1_555 1_555
N3A Co1 1_555 1_555
N4A C8A 1_555 1_555
C1A C2A 1_555 1_555
C2A C3A 1_555 1_555
C3A C4A 1_555 1_555
C4A O11A 1_555 1_555
C5A N1A 1_555 1_555
H1A C5A 1_555 1_555
C6A C7A 1_555 1_555
C7A N3A 1_555 1_555
C8A C7A 1_555 1_555
C9A C8A 1_555 1_555
C10A N3A 1_555 1_555
H2A C10A 1_555 1_555
O1A_2 Sm3 1_555 1_555
O1_2 Sm3A 1_555 1_555
O2A S1A 1_555 1_555
O2_2 Sm3 1_555 1_555
O2A_2 Sm3A 1_555 1_555
O3A S1A 1_555 1_555
O4A Sm3_4 1_555 1_555
O4A_2 Sm3 1_555 1_555
O4_2 Sm3A 1_555 1_555
O5A Sm3A 1_555 1_555
O6A Sm2A 1_555 1_555
O7A S2A 1_555 1_555
O8A S2A 1_555 1_555
O8_2 Sm3 1_555 1_555
O8A_2 Sm3A 1_555 1_555
O9A Sm2A 1_555 1_555
O10A Sm2A 1_555 1_555
O11A Sm1A 1_555 1_555
O12A C4A 1_555 1_555
O13A Sm1A 1_555 1_555
O14A Co1 1_555 1_555
O15A Sm1A 1_555 1_555
O16A Sm2A 1_555 1_555
O17A Sm1A 1_555 1_555
O18_2 S3_2 1_555 1_555
O19_2 Sm2 1_555 1_555
O19A Sm2A 1_555 1_555
O20_2 Sm1 1_555 1_555
O20A Sm1A 1_555 1_555
H3A N2A 1_555 1_555
H4A N4A 1_555 1_555
O21A Sm3A 1_555 1_555
H5A O21A 1_555 1_555
H6A O21A 1_555 1_555
O22A Sm3A 1_555 1_555
H7A O22A 1_555 1_555
H8A O22A 1_555 1_555
O23A Sm2A 1_555 1_555
H9A O23A 1_555 1_555
H10A O23A 1_555 1_555
O24A Sm2A 1_555 1_555
H11A O24A 1_555 1_555
H12A O24A 1_555 1_555
O25A Sm1A 1_555 1_555
H13A O25A 1_555 1_555
H14A O25A 1_555 1_555
O26A Sm1A 1_555 1_555
H15A O26A 1_555 1_555
H16A O26A 1_555 1_555
O27A Co1 1_555 1_555
H17A O27A 1_555 1_555
H18A O27A 1_555 1_555
Sm2 O15 1_555 1_555
Sm3 O9 1_555 1_555
S2 O6 1_555 1_555
N2 C5 1_555 1_555
N4 C10 1_555 1_555
C1 O9 1_555 1_555
C1 O10 1_555 1_555
C6 O13 1_555 1_555
C6 O14 1_555 1_555
C9 O16 1_555 1_555
Sm2A O15A 1_555 1_555
Sm3A O9A 1_555 1_555
S1A O4A 1_555 1_555
S2A O6A 1_555 1_555
S3_2 O19_2 1_555 1_555
S3_2 O20_2 1_555 1_555
N2A C5A 1_555 1_555
N4A C10A 1_555 1_555
C1A O9A 1_555 1_555
C1A O10A 1_555 1_555
C6A O13A 1_555 1_555
C6A O14A 1_555 1_555
C9A O15A 1_555 1_555
C9A O16A 1_555 1_555

#END
