
#######################################################################
#
#                 Cambridge Crystallographic Data Centre
#                                CCDC 
#
#######################################################################
#
# If this CIF has been generated from an entry in the Cambridge 
# Structural Database, then it will include bibliographic, chemical, 
# crystal, experimental, refinement or atomic coordinate data resulting 
# from the CCDC's data processing and validation procedures.
#
#######################################################################

data_AWUBOK
_symmetry_cell_setting           triclinic
_symmetry_space_group_name_H-M   'P -1'
_symmetry_Int_Tables_number      2
_space_group_name_Hall           '-P 1'
loop_
_symmetry_equiv_pos_site_id
_symmetry_equiv_pos_as_xyz
1 x,y,z
2 -x,-y,-z
_cell_length_a                   9.4823(8)
_cell_length_b                   9.8136(8)
_cell_length_c                   11.4929(11)
_cell_angle_alpha                68.4250(10)
_cell_angle_beta                 83.8210(10)
_cell_angle_gamma                67.5380(10)
_cell_volume                     918.422
loop_
_atom_site_label
_atom_site_type_symbol
_atom_site_fract_x
_atom_site_fract_y
_atom_site_fract_z
Rb1 Rb 0.60363(3) 0.23726(3) 0.63137(2)
O1 O 0.6222(2) 0.5041(3) 0.74637(18)
O2 O 0.4151(2) 0.5791(2) 0.62901(18)
O3 O -0.0505(2) 0.9948(3) 0.6899(2)
O4 O -0.0484(3) 1.1013(3) 0.8223(2)
O5 O 0.3968(3) 0.9004(3) 1.0902(2)
O6 O 0.5892(3) 0.6992(3) 1.0817(2)
O7 O 0.7938(2) 0.4276(2) 0.58487(18)
H1 H 0.717(5) 0.463(5) 0.640(4)
O8 O 0.6987(2) 0.6736(2) 0.44553(19)
O9 O 0.9040(3) 0.7679(3) 0.0193(2)
O10 O 1.1097(3) 0.5933(3) -0.0103(2)
O11 O 1.3434(3) 0.1010(3) 0.3122(2)
O12 O 1.2396(3) 0.0396(3) 0.4887(2)
C1 C 0.3944(3) 0.6901(3) 0.7846(2)
C2 C 0.2455(3) 0.7921(3) 0.7486(2)
H2 H 0.1956 0.7907 0.6839
C3 C 0.1717(3) 0.8963(3) 0.8101(2)
C4 C 0.2396(3) 0.9027(3) 0.9064(2)
H3 H 0.1888 0.9745 0.9461
C5 C 0.3874(3) 0.7969(3) 0.9414(2)
C6 C 0.4654(3) 0.6916(3) 0.8829(2)
H4 H 0.5650 0.6222 0.9091
C7 C 0.4807(3) 0.5831(3) 0.7125(2)
C8 C 0.9000(3) 0.4805(3) 0.3865(2)
C9 C 0.8963(3) 0.5842(3) 0.2643(2)
H5 H 0.8216 0.6852 0.2370
C10 C 1.0068(3) 0.5329(3) 0.1847(2)
C11 C 1.1200(3) 0.3858(3) 0.2214(2)
H6 H 1.1936 0.3540 0.1666
C12 C 1.1197(3) 0.2878(3) 0.3423(2)
C13 C 1.0115(3) 0.3310(3) 0.4255(2)
H7 H 1.0136 0.2606 0.5066
C14 C 0.7854(3) 0.5361(3) 0.4767(3)
N1 N 0.0124(3) 1.0057(3) 0.7712(2)
N2 N 0.4643(3) 0.7987(3) 1.0451(2)
N3 N 1.0066(3) 0.6400(3) 0.0554(2)
N4 N 1.2440(3) 0.1311(3) 0.3850(2)
Rb1A Rb 0.39637(3) 0.76274(3) 0.36863(2)
Rb1_2 Rb -0.39637(3) 1.23726(3) 0.63137(2)
Rb1A_2 Rb 0.39637(3) 0.76274(3) 1.36863(2)
Rb1A_3 Rb 1.39637(3) -0.23726(3) 0.36863(2)
O2A O 0.5849(2) 0.4209(2) 0.37099(18)
O3_2 O 0.9495(2) -0.0052(3) 0.6899(2)
O5A O 0.6032(3) 0.0996(3) 0.9098(2)
O8A O 0.3013(2) 0.3264(2) 0.55447(19)
O11A O 0.6566(3) -0.1010(3) 0.6878(2)
O12A O 0.7604(3) -0.0396(3) 0.5113(2)
loop_
_geom_bond_atom_site_label_1
_geom_bond_atom_site_label_2
_geom_bond_site_symmetry_1
_geom_bond_site_symmetry_2
Rb1 O1 1_555 1_555
O1 C7 1_555 1_555
O2 Rb1 1_555 1_555
O3 N1 1_555 1_555
O4 N1 1_555 1_555
O5 N2 1_555 1_555
O6 N2 1_555 1_555
O7 Rb1 1_555 1_555
H1 O7 1_555 1_555
O8 C14 1_555 1_555
O9 N3 1_555 1_555
O10 N3 1_555 1_555
O11 N4 1_555 1_555
O12 N4 1_555 1_555
C1 C2 1_555 1_555
C2 H2 1_555 1_555
C3 C2 1_555 1_555
C4 C3 1_555 1_555
H3 C4 1_555 1_555
C5 C4 1_555 1_555
C6 C1 1_555 1_555
H4 C6 1_555 1_555
C7 O2 1_555 1_555
C8 C9 1_555 1_555
C9 H5 1_555 1_555
C10 C9 1_555 1_555
C11 C10 1_555 1_555
H6 C11 1_555 1_555
C12 C11 1_555 1_555
C13 C8 1_555 1_555
H7 C13 1_555 1_555
C14 O7 1_555 1_555
N1 C3 1_555 1_555
N2 C5 1_555 1_555
N3 C10 1_555 1_555
N4 C12 1_555 1_555
Rb1A O2 1_555 1_555
Rb1_2 O3 1_555 1_555
Rb1A_2 O5 1_555 1_555
Rb1A_3 O11 1_555 1_555
O2A Rb1 1_555 1_555
O3_2 Rb1 1_555 1_555
O5A Rb1 1_555 1_555
O8A Rb1 1_555 1_555
O11A Rb1 1_555 1_555
O12A Rb1 1_555 1_555
O8 Rb1A 1_555 1_555
O12 Rb1A_3 1_555 1_555
C1 C7 1_555 1_555
C5 C6 1_555 1_555
C8 C14 1_555 1_555
C12 C13 1_555 1_555
Rb1A O2A 1_555 1_555

#END
