
#######################################################################
#
#                 Cambridge Crystallographic Data Centre
#                                CCDC 
#
#######################################################################
#
# If this CIF has been generated from an entry in the Cambridge 
# Structural Database, then it will include bibliographic, chemical, 
# crystal, experimental, refinement or atomic coordinate data resulting 
# from the CCDC's data processing and validation procedures.
#
#######################################################################

data_AWUBIE
_symmetry_cell_setting           monoclinic
_symmetry_space_group_name_H-M   'P 21/n'
_symmetry_Int_Tables_number      14
_space_group_name_Hall           '-P 2yn'
loop_
_symmetry_equiv_pos_site_id
_symmetry_equiv_pos_as_xyz
1 x,y,z
2 1/2-x,1/2+y,1/2-z
3 -x,-y,-z
4 1/2+x,1/2-y,1/2+z
_cell_length_a                   5.1537(2)
_cell_length_b                   21.2008(9)
_cell_length_c                   10.9727(4)
_cell_angle_alpha                90
_cell_angle_beta                 99.182(2)
_cell_angle_gamma                90
_cell_volume                     1183.54
loop_
_atom_site_label
_atom_site_type_symbol
_atom_site_fract_x
_atom_site_fract_y
_atom_site_fract_z
Mn1 Mn 0.82965(5) 0.166986(13) 0.24426(2)
O1 O 0.9758(3) 0.21539(7) 0.08980(12)
H1 H 1.082(4) 0.1969(8) 0.0482(18)
H2 H 1.035(4) 0.2513(6) 0.1101(19)
O2 O 0.5110(2) 0.12706(7) 1.11849(10)
O3 O 0.2636(3) 0.15549(6) 0.94224(11)
O4 O 1.0809(3) 0.08634(6) 0.22875(13)
H3 H 1.016(4) 0.0515(7) 0.2020(19)
H4 H 1.223(3) 0.0930(9) 0.2031(19)
O5 O 0.2033(3) 0.01801(6) 0.84321(11)
O6 O 0.6083(3) 0.25579(6) 0.26185(11)
H5 H 0.541(4) 0.2760(8) 0.1977(11)
H6 H 0.695(4) 0.2819(7) 0.3121(13)
O7 O 1.1443(3) 0.21688(8) 0.36280(12)
H7 H 1.298(2) 0.2228(12) 0.3515(18)
H8 H 1.130(4) 0.2130(12) 0.4374(11)
O8 O 0.6810(3) 0.12960(7) 0.39922(10)
O9 O 0.8922(3) 0.18553(7) 0.55471(11)
N1 N 0.5354(3) 0.08088(7) 0.80195(11)
C1 C 0.6287(4) 0.08637(9) 0.93507(14)
H9 H 0.8038 0.1044 0.9478
H10 H 0.6408 0.0445 0.9712
C2 C 0.4524(3) 0.12667(8) 1.00127(14)
C3 C 0.3169(4) 0.04332(8) 0.76408(15)
C4 C 0.2408(4) 0.03795(9) 0.63301(16)
H11 H 0.0989 0.0124 0.6020
C5 C 0.3701(4) 0.06907(9) 0.55330(15)
H12 H 0.3164 0.0644 0.4688
C6 C 0.5855(3) 0.10852(8) 0.59683(14)
C7 C 0.6617(3) 0.11259(8) 0.72141(14)
H13 H 0.8047 0.1379 0.7521
C8 C 0.7325(4) 0.14390(8) 0.51148(14)
Mn1_2 Mn 0.82965(5) 0.166986(13) 1.24426(2)
O2_2 O 0.5110(2) 0.12706(7) 0.11849(10)
loop_
_geom_bond_atom_site_label_1
_geom_bond_atom_site_label_2
_geom_bond_site_symmetry_1
_geom_bond_site_symmetry_2
Mn1 O1 1_555 1_555
O1 H1 1_555 1_555
H2 O1 1_555 1_555
O2 C2 1_555 1_555
O3 C2 1_555 1_555
O4 Mn1 1_555 1_555
H3 O4 1_555 1_555
H4 O4 1_555 1_555
O5 C3 1_555 1_555
O6 Mn1 1_555 1_555
H5 O6 1_555 1_555
H6 O6 1_555 1_555
O7 Mn1 1_555 1_555
H7 O7 1_555 1_555
H8 O7 1_555 1_555
O8 Mn1 1_555 1_555
O9 C8 1_555 1_555
N1 C1 1_555 1_555
C1 H9 1_555 1_555
H10 C1 1_555 1_555
C2 C1 1_555 1_555
C3 N1 1_555 1_555
C4 C3 1_555 1_555
H11 C4 1_555 1_555
C5 C4 1_555 1_555
H12 C5 1_555 1_555
C6 C5 1_555 1_555
C7 N1 1_555 1_555
H13 C7 1_555 1_555
C8 O8 1_555 1_555
Mn1_2 O2 1_555 1_555
O2_2 Mn1 1_555 1_555
C6 C7 1_555 1_555
C6 C8 1_555 1_555

#END
