
#######################################################################
#
#                 Cambridge Crystallographic Data Centre
#                                CCDC 
#
#######################################################################
#
# If this CIF has been generated from an entry in the Cambridge 
# Structural Database, then it will include bibliographic, chemical, 
# crystal, experimental, refinement or atomic coordinate data resulting 
# from the CCDC's data processing and validation procedures.
#
#######################################################################

data_AWUCEB
_symmetry_cell_setting           triclinic
_symmetry_space_group_name_H-M   'P -1'
_symmetry_Int_Tables_number      2
_space_group_name_Hall           '-P 1'
loop_
_symmetry_equiv_pos_site_id
_symmetry_equiv_pos_as_xyz
1 x,y,z
2 -x,-y,-z
_cell_length_a                   4.0595(2)
_cell_length_b                   8.1114(3)
_cell_length_c                   10.1132(4)
_cell_angle_alpha                84.503(2)
_cell_angle_beta                 81.963(2)
_cell_angle_gamma                84.898(2)
_cell_volume                     327.257
loop_
_atom_site_label
_atom_site_type_symbol
_atom_site_fract_x
_atom_site_fract_y
_atom_site_fract_z
Cd1 Cd 0.5000 0.0000 0.0000
N1 N 0.4635(3) -0.21212(15) 0.19936(11)
O1 O 0.2887(3) -0.39410(14) 0.37175(11)
C1 C 0.5970(4) -0.37792(18) 0.15877(14)
H1 H 0.8389 -0.3851 0.1436
H2 H 0.5149 -0.4007 0.0773
C2 C 0.4731(5) -0.4991(2) 0.27480(16)
H3 H 0.3300 -0.5751 0.2468
H4 H 0.6583 -0.5627 0.3115
C3 C 0.3062(4) -0.23541(17) 0.31777(13)
C4 C 0.1447(3) -0.11180(17) 0.40873(12)
C5 C 0.2347(4) 0.05114(18) 0.39301(13)
H5 H 0.3917 0.0853 0.3219
C6 C -0.0891(4) -0.16227(18) 0.51607(13)
H6 H -0.1479 -0.2714 0.5267
Br1 Br 0.91841(3) 0.179762(17) 0.103470(13)
Cd1_2 Cd 1.5000 0.0000 0.0000
Cd1_3 Cd -0.5000 0.0000 1.0000
N1A N -0.4635(3) 0.21212(15) 0.80064(11)
N1A_2 N 0.5365(3) 0.21212(15) -0.19936(11)
O1A O -0.2887(3) 0.39410(14) 0.62825(11)
C1A C -0.5970(4) 0.37792(18) 0.84123(14)
H1A H -0.8389 0.3851 0.8564
H2A H -0.5149 0.4007 0.9227
C2A C -0.4731(5) 0.4991(2) 0.72520(16)
H3A H -0.3300 0.5751 0.7532
H4A H -0.6583 0.5627 0.6885
C3A C -0.3062(4) 0.23541(17) 0.68223(13)
C4A C -0.1447(3) 0.11180(17) 0.59127(12)
C5A C -0.2347(4) -0.05114(18) 0.60699(13)
H5A H -0.3917 -0.0853 0.6781
C6A C 0.0891(4) 0.16227(18) 0.48393(13)
H6A H 0.1479 0.2714 0.4733
Br1A Br 1.08159(3) -0.179762(17) -0.103470(13)
Br1_2 Br -0.08159(3) 0.179762(17) 0.103470(13)
Br1A_2 Br 0.08159(3) -0.179762(17) -0.103470(13)
loop_
_geom_bond_atom_site_label_1
_geom_bond_atom_site_label_2
_geom_bond_site_symmetry_1
_geom_bond_site_symmetry_2
Cd1 N1 1_555 1_555
N1 C1 1_555 1_555
O1 C2 1_555 1_555
C1 H1 1_555 1_555
H2 C1 1_555 1_555
C2 C1 1_555 1_555
H3 C2 1_555 1_555
H4 C2 1_555 1_555
C3 N1 1_555 1_555
C4 C3 1_555 1_555
C5 C4 1_555 1_555
H5 C5 1_555 1_555
C6 C4 1_555 1_555
H6 C6 1_555 1_555
Br1 Cd1 1_555 1_555
Cd1_2 Br1 1_555 1_555
Cd1_3 N1A 1_555 1_555
N1A C1A 1_555 1_555
N1A_2 Cd1 1_555 1_555
O1A C2A 1_555 1_555
C1A H1A 1_555 1_555
H2A C1A 1_555 1_555
C2A C1A 1_555 1_555
H3A C2A 1_555 1_555
H4A C2A 1_555 1_555
C3A N1A 1_555 1_555
C4A C3A 1_555 1_555
C5A C6 1_555 1_555
H5A C5A 1_555 1_555
C6A C5 1_555 1_555
H6A C6A 1_555 1_555
Br1A Cd1 1_555 1_555
Br1_2 Cd1 1_555 1_555
Br1A_2 Cd1 1_555 1_555
O1 C3 1_555 1_555
Cd1_2 Br1A 1_555 1_555
O1A C3A 1_555 1_555
C4A C5A 1_555 1_555
C4A C6A 1_555 1_555

#END
