
#######################################################################
#
#                 Cambridge Crystallographic Data Centre
#                                CCDC 
#
#######################################################################
#
# If this CIF has been generated from an entry in the Cambridge 
# Structural Database, then it will include bibliographic, chemical, 
# crystal, experimental, refinement or atomic coordinate data resulting 
# from the CCDC's data processing and validation procedures.
#
#######################################################################

data_AWUCOL
_symmetry_cell_setting           monoclinic
_symmetry_space_group_name_H-M   'C 2/c'
_symmetry_Int_Tables_number      15
_space_group_name_Hall           '-C 2yn'
loop_
_symmetry_equiv_pos_site_id
_symmetry_equiv_pos_as_xyz
1 x,y,z
2 -x,y,1/2-z
3 1/2+x,1/2+y,z
4 1/2-x,1/2+y,1/2-z
5 -x,-y,-z
6 x,-y,1/2+z
7 1/2-x,1/2-y,-z
8 1/2+x,1/2-y,1/2+z
_cell_length_a                   16.393(3)
_cell_length_b                   12.4954(19)
_cell_length_c                   9.7648(16)
_cell_angle_alpha                90
_cell_angle_beta                 117.444(3)
_cell_angle_gamma                90
_cell_volume                     1775.09
loop_
_atom_site_label
_atom_site_type_symbol
_atom_site_fract_x
_atom_site_fract_y
_atom_site_fract_z
Hg1 Hg 0.5000 0.24799(3) 0.2500
Br1 Br 0.37219(4) 0.18078(6) 0.00215(7)
S1 S 0.63765(10) 0.19500(16) 0.09685(16)
N1 N 0.5935(3) 0.3774(4) 0.1882(5)
N2 N 0.5304(3) 0.2847(4) -0.1745(5)
C1 C 0.6470(3) 0.3344(5) 0.1311(6)
C2 C 0.7060(4) 0.3982(7) 0.0995(7)
H1 H 0.7442 0.3669 0.0625
C3 C 0.7083(4) 0.5050(8) 0.1218(7)
H2 H 0.7469 0.5486 0.0984
C4 C 0.6537(4) 0.5493(6) 0.1790(7)
H3 H 0.6530 0.6236 0.1937
C5 C 0.6000(4) 0.4815(6) 0.2142(8)
H4 H 0.5657 0.5113 0.2598
C6 C 0.5593(3) 0.1942(5) -0.1028(6)
C7 C 0.5306(4) 0.0926(6) -0.1734(7)
H5 H 0.5525 0.0287 -0.1176
Hg1_2 Hg 0.5000 0.24799(3) -0.7500
Br1A Br 0.62781(4) 0.18078(6) 0.49785(7)
S1A S 0.36235(10) 0.19500(16) -0.59685(16)
N1A N 0.4065(3) 0.3774(4) -0.6882(5)
N1A_2 N 0.4065(3) 0.3774(4) 0.3118(5)
N2A N 0.4696(3) 0.2847(4) -0.3255(5)
C1A C 0.3530(3) 0.3344(5) -0.6311(6)
C2A C 0.2940(4) 0.3982(7) -0.5995(7)
H1A H 0.2558 0.3669 -0.5625
C3A C 0.2917(4) 0.5050(8) -0.6218(7)
H2A H 0.2531 0.5486 -0.5984
C4A C 0.3463(4) 0.5493(6) -0.6790(7)
H3A H 0.3470 0.6236 -0.6937
C5A C 0.4000(4) 0.4815(6) -0.7142(8)
H4A H 0.4343 0.5113 -0.7598
C6A C 0.4407(3) 0.1942(5) -0.3972(6)
C7A C 0.4694(4) 0.0926(6) -0.3266(7)
H5A H 0.4475 0.0287 -0.3824
loop_
_geom_bond_atom_site_label_1
_geom_bond_atom_site_label_2
_geom_bond_site_symmetry_1
_geom_bond_site_symmetry_2
Hg1 Br1 1_555 1_555
S1 C1 1_555 1_555
N1 Hg1 1_555 1_555
N2 C6 1_555 1_555
C1 N1 1_555 1_555
C2 C1 1_555 1_555
H1 C2 1_555 1_555
C3 C2 1_555 1_555
H2 C3 1_555 1_555
C4 C3 1_555 1_555
H3 C4 1_555 1_555
C5 N1 1_555 1_555
H4 C5 1_555 1_555
C6 S1 1_555 1_555
C7 C6 1_555 1_555
H5 C7 1_555 1_555
Hg1_2 N1A 1_555 1_555
Br1A Hg1 1_555 1_555
S1A C1A 1_555 1_555
N1A C1A 1_555 1_555
N1A_2 Hg1 1_555 1_555
N2A N2 1_555 1_555
C1A C2A 1_555 1_555
C2A H1A 1_555 1_555
C3A C2A 1_555 1_555
H2A C3A 1_555 1_555
C4A C3A 1_555 1_555
H3A C4A 1_555 1_555
C5A N1A 1_555 1_555
H4A C5A 1_555 1_555
C6A S1A 1_555 1_555
C7A C7 1_555 1_555
H5A C7A 1_555 1_555
C4 C5 1_555 1_555
N2A C6A 1_555 1_555
C4A C5A 1_555 1_555
C6A C7A 1_555 1_555

#END
