
#######################################################################
#
#                 Cambridge Crystallographic Data Centre
#                                CCDC 
#
#######################################################################
#
# If this CIF has been generated from an entry in the Cambridge 
# Structural Database, then it will include bibliographic, chemical, 
# crystal, experimental, refinement or atomic coordinate data resulting 
# from the CCDC's data processing and validation procedures.
#
#######################################################################

data_AWUCIF
_symmetry_cell_setting           triclinic
_symmetry_space_group_name_H-M   'P -1'
_symmetry_Int_Tables_number      2
_space_group_name_Hall           '-P 1'
loop_
_symmetry_equiv_pos_site_id
_symmetry_equiv_pos_as_xyz
1 x,y,z
2 -x,-y,-z
_cell_length_a                   10.4869(14)
_cell_length_b                   11.1540(15)
_cell_length_c                   13.7276(18)
_cell_angle_alpha                107.8530(10)
_cell_angle_beta                 106.778(2)
_cell_angle_gamma                102.885(2)
_cell_volume                     1375.21
loop_
_atom_site_label
_atom_site_type_symbol
_atom_site_fract_x
_atom_site_fract_y
_atom_site_fract_z
Ag1 Ag 0.88225(5) 0.23184(7) 0.55049(4)
Ce1 Ce 1.36397(3) 0.54712(2) 1.38715(2)
C1 C 1.6740(5) 0.4317(4) 1.4039(4)
C2 C 1.7019(5) 0.4157(4) 1.3000(4)
C3 C 1.8400(5) 0.4447(4) 1.3039(4)
H1 H 1.9163 0.4760 1.3712
C4 C 1.8624(5) 0.4265(5) 1.2067(4)
C5 C 1.7470(5) 0.3805(5) 1.1068(4)
H2 H 1.7622 0.3688 1.0416
C6 C 1.6121(5) 0.3524(4) 1.1036(4)
C7 C 1.5884(5) 0.3688(4) 1.2000(4)
H3 H 1.4963 0.3483 1.1977
C8 C 2.0077(5) 0.4420(5) 1.2058(4)
C9 C 1.4777(5) 0.3458(5) 0.9231(4)
C10 C 1.3312(5) 0.2904(5) 0.8344(4)
C11 C 1.3160(6) 0.2681(6) 0.7265(4)
H4 H 1.3948 0.2801 0.7075
C12 C 1.1824(6) 0.2277(7) 0.6479(4)
H5 H 1.1728 0.2096 0.5748
C13 C 1.0815(6) 0.2309(7) 0.7724(5)
H6 H 1.0007 0.2172 0.7888
C14 C 1.2105(6) 0.2687(6) 0.8567(4)
H7 H 1.2160 0.2795 0.9279
C15 C 0.6561(5) 0.2158(5) -0.3430(4)
C16 C 0.6919(5) 0.1164(4) -0.2964(4)
C17 C 0.7361(5) 0.1512(5) -0.1825(4)
H8 H 0.7431 0.2353 -0.1362
C18 C 0.7693(5) 0.0620(5) -0.1381(4)
C19 C 0.7550(5) -0.0648(5) -0.2079(4)
H9 H 0.7773 -0.1255 -0.1781
C20 C 0.7076(5) -0.1014(4) -0.3216(4)
C21 C 0.6768(5) -0.0101(4) -0.3656(4)
H10 H 0.6460 -0.0340 -0.4418
C22 C 0.6810(5) -0.2419(5) -0.3969(4)
C23 C 0.7450(6) 0.0246(5) 0.0210(4)
C24 C 0.7834(6) 0.0781(5) 0.1428(4)
C25 C 0.6756(6) 0.0579(6) 0.1812(5)
H11 H 0.5819 0.0151 0.1312
C26 C 0.7064(7) 0.1008(6) 0.2925(5)
H12 H 0.6321 0.0865 0.3165
C27 C 0.9447(6) 0.1839(6) 0.3330(5)
H13 H 1.0375 0.2270 0.3846
C28 C 0.9196(6) 0.1435(6) 0.2209(4)
H14 H 0.9950 0.1608 0.1985
N1 N 1.0662(5) 0.2129(5) 0.6697(4)
N2 N 1.4915(4) 0.3010(4) 1.0035(3)
H15 H 1.4213 0.2353 0.9939
N3 N 0.8395(5) 0.1627(5) 0.3687(4)
N4 N 0.8112(5) 0.0994(4) -0.0217(3)
H16 H 0.8810 0.1721 0.0226
O1 O 1.5542(3) 0.4379(3) 1.4040(2)
O2 O 1.7676(4) 0.4384(4) 1.4865(3)
O3 O 2.1121(3) 0.5223(3) 1.2926(3)
O4 O 2.0163(4) 0.3691(4) 1.1191(3)
O5 O 1.5740(4) 0.4290(3) 0.9209(3)
O6 O 0.6166(4) 0.3009(3) -0.2882(3)
O7 O 0.6661(4) 0.2109(3) -0.4336(2)
O8 O 0.6024(4) -0.2802(3) -0.4977(3)
O9 O 0.7369(3) -0.3125(3) -0.3552(3)
O10 O 0.6548(5) -0.0862(4) -0.0375(3)
O11 O 1.2968(3) 0.4185(3) 1.1783(3)
H17 H 1.2222 0.4296 1.1432
H18 H 1.3628 0.4554 1.1617
Ag1_2 Ag 0.88225(5) 0.23184(7) -0.44951(4)
Ce1A Ce 1.63603(3) 0.45288(2) 1.61285(2)
Ce1_2 Ce 2.36397(3) 0.54712(2) 1.38715(2)
Ce1A_2 Ce 0.63603(3) 0.45288(2) -0.38715(2)
Ce1_3 Ce 0.36397(3) -0.45288(2) -0.61285(2)
Ce1A_3 Ce 0.63603(3) -0.54712(2) -0.38715(2)
O1A O 1.4458(3) 0.5621(3) 1.5960(2)
O2A O 1.2324(4) 0.5616(4) 1.5135(3)
O3_2 O 1.1121(3) 0.5223(3) 1.2926(3)
O6A O 1.3834(4) 0.6991(3) 1.2882(3)
O7_2 O 0.6661(4) 0.2109(3) 0.5664(2)
O7A O 1.3339(4) 0.7891(3) 1.4336(2)
O8_2 O 1.6024(4) 0.7198(3) 1.5023(3)
O9A O 1.2631(3) 0.3125(3) 1.3552(3)
loop_
_geom_bond_atom_site_label_1
_geom_bond_atom_site_label_2
_geom_bond_site_symmetry_1
_geom_bond_site_symmetry_2
Ag1 N1 1_555 1_555
Ce1 O1 1_555 1_555
C1 C2 1_555 1_555
C2 C3 1_555 1_555
C3 H1 1_555 1_555
C4 C3 1_555 1_555
C5 C4 1_555 1_555
H2 C5 1_555 1_555
C6 C5 1_555 1_555
C7 C2 1_555 1_555
H3 C7 1_555 1_555
C8 C4 1_555 1_555
C9 C10 1_555 1_555
C10 C11 1_555 1_555
C11 H4 1_555 1_555
C12 C11 1_555 1_555
H5 C12 1_555 1_555
C13 H6 1_555 1_555
C14 C10 1_555 1_555
H7 C14 1_555 1_555
C15 C16 1_555 1_555
C16 C17 1_555 1_555
C17 H8 1_555 1_555
C18 C17 1_555 1_555
C19 C18 1_555 1_555
H9 C19 1_555 1_555
C20 C19 1_555 1_555
C21 C16 1_555 1_555
H10 C21 1_555 1_555
C22 C20 1_555 1_555
C23 C24 1_555 1_555
C24 C25 1_555 1_555
C25 H11 1_555 1_555
C26 C25 1_555 1_555
H12 C26 1_555 1_555
C27 H13 1_555 1_555
C28 C24 1_555 1_555
H14 C28 1_555 1_555
N1 C12 1_555 1_555
N2 C6 1_555 1_555
H15 N2 1_555 1_555
N3 Ag1 1_555 1_555
N4 C18 1_555 1_555
H16 N4 1_555 1_555
O1 C1 1_555 1_555
O2 C1 1_555 1_555
O3 C8 1_555 1_555
O4 C8 1_555 1_555
O5 C9 1_555 1_555
O6 C15 1_555 1_555
O7 C15 1_555 1_555
O8 C22 1_555 1_555
O9 C22 1_555 1_555
O10 C23 1_555 1_555
O11 Ce1 1_555 1_555
H17 O11 1_555 1_555
H18 O11 1_555 1_555
Ag1_2 O7 1_555 1_555
Ce1A O1 1_555 1_555
Ce1_2 O3 1_555 1_555
Ce1A_2 O6 1_555 1_555
Ce1_3 O8 1_555 1_555
Ce1A_3 O9 1_555 1_555
O1A Ce1 1_555 1_555
O2A Ce1 1_555 1_555
O3_2 Ce1 1_555 1_555
O6A Ce1 1_555 1_555
O7_2 Ag1 1_555 1_555
O7A Ce1 1_555 1_555
O8_2 Ce1 1_555 1_555
O9A Ce1 1_555 1_555
C6 C7 1_555 1_555
C9 N2 1_555 1_555
C13 C14 1_555 1_555
C13 N1 1_555 1_555
C20 C21 1_555 1_555
C23 N4 1_555 1_555
C26 N3 1_555 1_555
C27 C28 1_555 1_555
C27 N3 1_555 1_555
O2 Ce1A 1_555 1_555
O7 Ce1A_2 1_555 1_555
Ce1A O1A 1_555 1_555

#END
