
#######################################################################
#
#                 Cambridge Crystallographic Data Centre
#                                CCDC 
#
#######################################################################
#
# If this CIF has been generated from an entry in the Cambridge 
# Structural Database, then it will include bibliographic, chemical, 
# crystal, experimental, refinement or atomic coordinate data resulting 
# from the CCDC's data processing and validation procedures.
#
#######################################################################

data_AWUDIG
_symmetry_cell_setting           orthorhombic
_symmetry_space_group_name_H-M   'P n m a'
_symmetry_Int_Tables_number      62
_space_group_name_Hall           '-P 2ac 2n'
loop_
_symmetry_equiv_pos_site_id
_symmetry_equiv_pos_as_xyz
1 x,y,z
2 1/2-x,-y,1/2+z
3 -x,1/2+y,-z
4 1/2+x,1/2-y,1/2-z
5 -x,-y,-z
6 1/2+x,y,1/2-z
7 x,1/2-y,z
8 1/2-x,1/2+y,1/2+z
_cell_length_a                   19.0738(16)
_cell_length_b                   19.9598(17)
_cell_length_c                   8.6372(7)
_cell_angle_alpha                90
_cell_angle_beta                 90
_cell_angle_gamma                90
_cell_volume                     3288.26
loop_
_atom_site_label
_atom_site_type_symbol
_atom_site_fract_x
_atom_site_fract_y
_atom_site_fract_z
Ag1 Ag 0.63631(3) 0.08975(2) 0.55260(6)
Ag2 Ag 0.67483(3) 0.2500 0.67838(8)
C1 C 0.7943(4) 0.0564(3) 0.6434(7)
H1 H 0.7986 0.0456 0.5391
C2 C 0.8536(4) 0.0564(3) 0.7390(7)
H2 H 0.8972 0.0454 0.6982
C3 C 0.8474(4) 0.0728(3) 0.8935(8)
C4 C 0.7242(3) 0.0892(3) 0.8597(7)
C5 C 0.9053(4) 0.0759(3) 1.0013(8)
C6 C 0.8956(3) 0.0739(3) 1.1615(8)
H3 H 0.8507 0.0707 1.2029
C7 C 0.9540(3) 0.0766(3) 1.2589(7)
H4 H 0.9479 0.0748 1.3656
C8 C 1.0201(3) 0.0819(3) 1.1986(7)
H5 H 1.0587 0.0838 1.2643
C9 C 0.9730(3) 0.0817(3) 0.9408(7)
H6 H 0.9795 0.0837 0.8342
C10 C 0.7727(5) 0.2500 0.9738(11)
H7 H 0.7316 0.2500 1.0317
C11 C 0.8369(4) 0.2500 1.0468(10)
H8 H 0.8390 0.2500 1.1544
C12 C 0.8972(4) 0.2500 0.9625(10)
C13 C 0.8317(5) 0.2500 0.7285(10)
C14 C 0.9694(4) 0.2500 1.0335(9)
C15 C 0.9792(5) 0.2500 1.1928(11)
H9 H 0.9407 0.2500 1.2590
C16 C 1.0466(5) 0.2500 1.2526(11)
H10 H 1.0530 0.2500 1.3594
C17 C 1.1043(5) 0.2500 1.1568(9)
H11 H 1.1493 0.2500 1.1978
C18 C 1.0278(5) 0.2500 0.9357(11)
H12 H 1.0216 0.2500 0.8288
N1 N 0.7295(3) 0.0722(3) 0.7038(6)
N2 N 0.7817(3) 0.0899(3) 0.9538(6)
N3 N 1.0297(3) 0.0845(2) 1.0381(6)
N4 N 0.7698(4) 0.2500 0.8105(8)
N5 N 0.8958(4) 0.2500 0.8021(9)
N6 N 1.0937(4) 0.2500 0.9964(9)
O1 O 0.6096(2) 0.0446(2) 0.9564(5)
O2 O 0.6566(3) 0.1436(2) 1.0773(5)
O3 O 0.6103(2) 0.1495(2) 0.8189(5)
O4 O 0.7270(2) 0.1066(2) 0.3464(5)
H13 H 0.7560 0.1440 0.3734
H14 H 0.7041 0.1152 0.2494
O5 O 0.7702(5) 0.2266(5) 0.4858(10)
O6 O 0.8935(6) 0.2034(6) 0.4991(12)
O7 O 0.8524(6) 0.1854(5) 0.4773(10)
S1 S 0.64301(9) 0.10786(9) 0.9360(2)
S2 S 0.83833(12) 0.2500 0.5287(3)
Ag1F Ag 0.63631(3) 0.41025(2) 0.55260(6)
Ag1E Ag 1.13631(3) 0.08975(2) 0.94740(6)
Ag1C Ag 1.13631(3) 0.41025(2) 0.94740(6)
Ag2C Ag 1.17483(3) 0.2500 0.82162(8)
C1F C 0.7943(4) 0.4436(3) 0.6434(7)
H1F H 0.7986 0.4544 0.5391
C2F C 0.8536(4) 0.4436(3) 0.7390(7)
H2F H 0.8972 0.4546 0.6982
C3F C 0.8474(4) 0.4272(3) 0.8935(8)
C4F C 0.7242(3) 0.4108(3) 0.8597(7)
C5F C 0.9053(4) 0.4241(3) 1.0013(8)
C6F C 0.8956(3) 0.4261(3) 1.1615(8)
H3F H 0.8507 0.4293 1.2029
C7F C 0.9540(3) 0.4234(3) 1.2589(7)
H4F H 0.9479 0.4252 1.3656
C8F C 1.0201(3) 0.4181(3) 1.1986(7)
H5F H 1.0587 0.4162 1.2643
C9F C 0.9730(3) 0.4183(3) 0.9408(7)
H6F H 0.9795 0.4163 0.8342
N1F N 0.7295(3) 0.4278(3) 0.7038(6)
N2F N 0.7817(3) 0.4101(3) 0.9538(6)
N3F N 1.0297(3) 0.4155(2) 1.0381(6)
N3E N 0.5297(3) 0.0845(2) 0.4619(6)
N3C N 0.5297(3) 0.4155(2) 0.4619(6)
N6C N 0.5937(4) 0.2500 0.5036(9)
O1F O 0.6096(2) 0.4554(2) 0.9564(5)
O2F O 0.6566(3) 0.3564(2) 1.0773(5)
O3F O 0.6103(2) 0.3505(2) 0.8189(5)
O4F O 0.7270(2) 0.3934(2) 0.3464(5)
H13F H 0.7560 0.3560 0.3734
H14F H 0.7041 0.3848 0.2494
O5F O 0.7702(5) 0.2734(5) 0.4858(10)
O6F O 0.8935(6) 0.2966(6) 0.4991(12)
O7F O 0.8524(6) 0.3146(5) 0.4773(10)
S1F S 0.64301(9) 0.39214(9) 0.9360(2)
loop_
_geom_bond_atom_site_label_1
_geom_bond_atom_site_label_2
_geom_bond_site_symmetry_1
_geom_bond_site_symmetry_2
Ag1 N1 1_555 1_555
Ag2 N4 1_555 1_555
C1 H1 1_555 1_555
C2 C1 1_555 1_555
H2 C2 1_555 1_555
C3 C2 1_555 1_555
C4 N1 1_555 1_555
C5 C3 1_555 1_555
C6 C5 1_555 1_555
H3 C6 1_555 1_555
C7 C6 1_555 1_555
H4 C7 1_555 1_555
C8 C7 1_555 1_555
H5 C8 1_555 1_555
C9 C5 1_555 1_555
H6 C9 1_555 1_555
C10 H7 1_555 1_555
C11 C10 1_555 1_555
H8 C11 1_555 1_555
C12 C11 1_555 1_555
C13 N4 1_555 1_555
C14 C12 1_555 1_555
C15 C14 1_555 1_555
H9 C15 1_555 1_555
C16 C15 1_555 1_555
H10 C16 1_555 1_555
C17 C16 1_555 1_555
H11 C17 1_555 1_555
C18 C14 1_555 1_555
H12 C18 1_555 1_555
N1 C1 1_555 1_555
N2 C3 1_555 1_555
N3 C8 1_555 1_555
N4 C10 1_555 1_555
N5 C12 1_555 1_555
N6 C17 1_555 1_555
O1 S1 1_555 1_555
O2 S1 1_555 1_555
O3 Ag1 1_555 1_555
O4 Ag1 1_555 1_555
H13 O4 1_555 1_555
H14 O4 1_555 1_555
O5 Ag2 1_555 1_555
O6 O7 1_555 1_555
O7 O5 1_555 1_555
S1 C4 1_555 1_555
S2 C13 1_555 1_555
Ag1F N1F 1_555 1_555
Ag1E N3 1_555 1_555
Ag1C N3F 1_555 1_555
Ag2C N6 1_555 1_555
C1F H1F 1_555 1_555
C2F C1F 1_555 1_555
H2F C2F 1_555 1_555
C3F C2F 1_555 1_555
C4F N1F 1_555 1_555
C5F C3F 1_555 1_555
C6F C5F 1_555 1_555
H3F C6F 1_555 1_555
C7F C6F 1_555 1_555
H4F C7F 1_555 1_555
C8F C7F 1_555 1_555
H5F C8F 1_555 1_555
C9F C5F 1_555 1_555
H6F C9F 1_555 1_555
N1F C1F 1_555 1_555
N2F C3F 1_555 1_555
N3F C8F 1_555 1_555
N3E Ag1 1_555 1_555
N3C Ag1F 1_555 1_555
N6C Ag2 1_555 1_555
O1F S1F 1_555 1_555
O2F S1F 1_555 1_555
O3F Ag2 1_555 1_555
O4F Ag1F 1_555 1_555
H13F O4F 1_555 1_555
H14F O4F 1_555 1_555
O5F Ag2 1_555 1_555
O6F O6 1_555 1_555
O7F S2 1_555 1_555
S1F C4F 1_555 1_555
Ag2 O3 1_555 1_555
C4 N2 1_555 1_555
C9 N3 1_555 1_555
C13 N5 1_555 1_555
C18 N6 1_555 1_555
O3 S1 1_555 1_555
O5 S2 1_555 1_555
O5 O5F 1_555 1_555
O6 S2 1_555 1_555
O7 S2 1_555 1_555
S2 O5F 1_555 1_555
S2 O6F 1_555 1_555
Ag1F O3F 1_555 1_555
C4F N2F 1_555 1_555
C9F N3F 1_555 1_555
O3F S1F 1_555 1_555
O5F O7F 1_555 1_555
O6F O7F 1_555 1_555

#END
