
#######################################################################
#
#                 Cambridge Crystallographic Data Centre
#                                CCDC 
#
#######################################################################
#
# If this CIF has been generated from an entry in the Cambridge 
# Structural Database, then it will include bibliographic, chemical, 
# crystal, experimental, refinement or atomic coordinate data resulting 
# from the CCDC's data processing and validation procedures.
#
#######################################################################

data_AWUDOM
_symmetry_cell_setting           triclinic
_symmetry_space_group_name_H-M   'P -1'
_symmetry_Int_Tables_number      2
_space_group_name_Hall           '-P 1'
loop_
_symmetry_equiv_pos_site_id
_symmetry_equiv_pos_as_xyz
1 x,y,z
2 -x,-y,-z
_cell_length_a                   3.9242(4)
_cell_length_b                   8.0290(8)
_cell_length_c                   10.0778(10)
_cell_angle_alpha                84.632(2)
_cell_angle_beta                 81.458(2)
_cell_angle_gamma                84.002(2)
_cell_volume                     311.3
loop_
_atom_site_label
_atom_site_type_symbol
_atom_site_fract_x
_atom_site_fract_y
_atom_site_fract_z
Cd1 Cd 0.5000 0.5000 0.5000
Cl1 Cl 0.9164(2) 0.67051(12) 0.60009(9)
O1 O 0.2884(9) 0.1013(4) 0.8636(3)
N1 N 0.4705(9) 0.2869(4) 0.6933(3)
C1 C 0.6062(11) 0.1199(4) 0.6473(4)
H1 H 0.8569 0.1106 0.6290
H2 H 0.5150 0.1001 0.5663
C2 C 0.4811(12) -0.0049(5) 0.7647(4)
H3 H 0.3342 -0.0813 0.7368
H4 H 0.6751 -0.0698 0.8001
C3 C 0.3089(9) 0.2623(4) 0.8112(4)
C4 C 0.1447(9) 0.3868(4) 0.9047(3)
C5 C 0.2302(9) 0.5530(4) 0.8878(3)
H5 H 0.3857 0.5879 0.8141
C6 C -0.0839(9) 0.3348(4) 1.0195(3)
H6 H -0.1363 0.2236 1.0327
Cd1_2 Cd 1.5000 0.5000 0.5000
Cd1_3 Cd -0.5000 0.5000 1.5000
Cl1_2 Cl -0.0836(2) 0.67051(12) 0.60009(9)
Cl1A Cl 1.0836(2) 0.32949(12) 0.39991(9)
Cl1A_2 Cl 0.0836(2) 0.32949(12) 0.39991(9)
O1A O -0.2884(9) 0.8987(4) 1.1364(3)
N1A N -0.4705(9) 0.7131(4) 1.3067(3)
N1A_2 N 0.5295(9) 0.7131(4) 0.3067(3)
C1A C -0.6062(11) 0.8801(4) 1.3527(4)
H1A H -0.8569 0.8894 1.3710
H2A H -0.5150 0.8999 1.4337
C2A C -0.4811(12) 1.0049(5) 1.2353(4)
H3A H -0.3342 1.0813 1.2632
H4A H -0.6751 1.0698 1.1999
C3A C -0.3089(9) 0.7377(4) 1.1888(4)
C4A C -0.1447(9) 0.6132(4) 1.0953(3)
C5A C -0.2302(9) 0.4470(4) 1.1122(3)
H5A H -0.3857 0.4121 1.1859
C6A C 0.0839(9) 0.6652(4) 0.9805(3)
H6A H 0.1363 0.7764 0.9673
loop_
_geom_bond_atom_site_label_1
_geom_bond_atom_site_label_2
_geom_bond_site_symmetry_1
_geom_bond_site_symmetry_2
Cd1 Cl1 1_555 1_555
Cl1 Cd1_2 1_555 1_555
O1 C2 1_555 1_555
N1 Cd1 1_555 1_555
C1 N1 1_555 1_555
H1 C1 1_555 1_555
H2 C1 1_555 1_555
C2 C1 1_555 1_555
H3 C2 1_555 1_555
H4 C2 1_555 1_555
C3 O1 1_555 1_555
C4 C3 1_555 1_555
C5 C4 1_555 1_555
H5 C5 1_555 1_555
C6 C4 1_555 1_555
H6 C6 1_555 1_555
Cd1_2 Cl1A 1_555 1_555
Cd1_3 N1A 1_555 1_555
Cl1_2 Cd1 1_555 1_555
Cl1A Cd1 1_555 1_555
Cl1A_2 Cd1 1_555 1_555
O1A C2A 1_555 1_555
N1A C1A 1_555 1_555
N1A_2 Cd1 1_555 1_555
C1A H1A 1_555 1_555
H2A C1A 1_555 1_555
C2A C1A 1_555 1_555
H3A C2A 1_555 1_555
H4A C2A 1_555 1_555
C3A O1A 1_555 1_555
C4A C3A 1_555 1_555
C5A C6 1_555 1_555
H5A C5A 1_555 1_555
C6A C5 1_555 1_555
H6A C6A 1_555 1_555
N1 C3 1_555 1_555
N1A C3A 1_555 1_555
C4A C5A 1_555 1_555
C4A C6A 1_555 1_555

#END
