
#######################################################################
#
#                 Cambridge Crystallographic Data Centre
#                                CCDC 
#
#######################################################################
#
# If this CIF has been generated from an entry in the Cambridge 
# Structural Database, then it will include bibliographic, chemical, 
# crystal, experimental, refinement or atomic coordinate data resulting 
# from the CCDC's data processing and validation procedures.
#
#######################################################################

data_AWUNUB
_symmetry_cell_setting           monoclinic
_symmetry_space_group_name_H-M   'P 21/n'
_symmetry_Int_Tables_number      14
_space_group_name_Hall           '-P 2yn'
loop_
_symmetry_equiv_pos_site_id
_symmetry_equiv_pos_as_xyz
1 x,y,z
2 1/2+x,1/2-y,1/2+z
3 -x,-y,-z
4 1/2-x,1/2+y,1/2-z
_cell_length_a                   10.5785(9)
_cell_length_b                   9.2373(10)
_cell_length_c                   14.7053(11)
_cell_angle_alpha                90.00
_cell_angle_beta                 104.915(5)
_cell_angle_gamma                90.00
_cell_volume                     1388.54
loop_
_atom_site_label
_atom_site_type_symbol
_atom_site_fract_x
_atom_site_fract_y
_atom_site_fract_z
Ag1 Ag 0.73685(4) 0.89158(4) 0.50919(2)
O4 O 0.7222(3) 0.4813(4) 0.2729(2)
O5 O 0.5072(3) 0.7590(5) 0.1800(2)
N2 N 0.6958(3) 0.6605(4) 0.5136(2)
N3 N 0.6272(4) 0.6435(5) 0.3504(3)
N4 N 0.6402(4) 0.6275(4) 0.1106(2)
N5 N 0.6417(3) 0.5872(4) -0.0433(2)
C1 C 0.7166(5) 0.5982(6) 0.5993(3)
C2 C 0.6958(4) 0.4537(6) 0.6114(4)
C3 C 0.6528(5) 0.3687(5) 0.5329(4)
C4 C 0.6335(4) 0.4283(5) 0.4457(4)
C5 C 0.6538(4) 0.5752(5) 0.4384(3)
C6 C 0.6554(4) 0.5880(5) 0.2737(3)
C7 C 0.5927(4) 0.6706(5) 0.1834(3)
C8 C 0.5991(4) 0.6702(5) 0.0166(3)
C9 C 0.5193(4) 0.7911(5) -0.0125(4)
C10 C 0.4853(5) 0.8242(6) -0.1068(4)
C11 C 0.5290(5) 0.7407(6) -0.1692(4)
C12 C 0.6071(5) 0.6237(6) -0.1352(3)
H1 H 0.594(4) 0.708(5) 0.349(3)
H2 H 0.702(5) 0.572(5) 0.124(3)
H3 H 0.737(5) 0.660(5) 0.645(3)
H4 H 0.707(5) 0.418(5) 0.676(4)
H5 H 0.636(5) 0.272(6) 0.534(4)
H6 H 0.605(5) 0.376(5) 0.392(3)
H7 H 0.504(5) 0.846(5) 0.029(3)
H8 H 0.436(5) 0.914(5) -0.126(3)
H9 H 0.513(4) 0.760(4) -0.238(3)
H10 H 0.636(5) 0.559(5) -0.171(3)
N5C N 0.8583(3) 1.0872(4) 0.5433(2)
Ag1C Ag 0.76315(4) 0.39158(4) -0.00919(2)
O1 O 0.4194(4) 0.9345(7) 0.6302(4)
O2 O 0.5346(8) 1.1094(6) 0.6172(7)
O3 O 0.6264(4) 0.9120(5) 0.6547(3)
N1 N 0.5252(4) 0.9849(4) 0.6325(3)
loop_
_geom_bond_atom_site_label_1
_geom_bond_atom_site_label_2
_geom_bond_site_symmetry_1
_geom_bond_site_symmetry_2
Ag1 N2 1_555 1_555
O1 N1 1_555 1_555
O2 N1 1_555 1_555
O3 N1 1_555 1_555
O4 C6 1_555 1_555
O5 C7 1_555 1_555
N2 C1 1_555 1_555
N3 C5 1_555 1_555
N4 C7 1_555 1_555
N5 C8 1_555 1_555
C1 C2 1_555 1_555
C2 C3 1_555 1_555
C3 C4 1_555 1_555
C4 C5 1_555 1_555
C5 N2 1_555 1_555
C6 N3 1_555 1_555
C7 C6 1_555 1_555
C8 N4 1_555 1_555
C9 C8 1_555 1_555
C10 C9 1_555 1_555
C11 C10 1_555 1_555
C12 N5 1_555 1_555
H1 N3 1_555 1_555
H2 N4 1_555 1_555
H3 C1 1_555 1_555
H4 C2 1_555 1_555
H5 C3 1_555 1_555
H6 C4 1_555 1_555
H7 C9 1_555 1_555
H8 C10 1_555 1_555
H9 C11 1_555 1_555
H10 C12 1_555 1_555
N5C Ag1 1_555 1_555
Ag1C N5 1_555 1_555
C11 C12 1_555 1_555

#END
