
#######################################################################
#
#                 Cambridge Crystallographic Data Centre
#                                CCDC 
#
#######################################################################
#
# If this CIF has been generated from an entry in the Cambridge 
# Structural Database, then it will include bibliographic, chemical, 
# crystal, experimental, refinement or atomic coordinate data resulting 
# from the CCDC's data processing and validation procedures.
#
#######################################################################

data_AWUPAJ
_symmetry_cell_setting           triclinic
_symmetry_space_group_name_H-M   'P -1'
_symmetry_Int_Tables_number      2
_space_group_name_Hall           '-P 1'
loop_
_symmetry_equiv_pos_site_id
_symmetry_equiv_pos_as_xyz
1 x,y,z
2 -x,-y,-z
_cell_length_a                   8.3544(17)
_cell_length_b                   13.583(3)
_cell_length_c                   15.951(6)
_cell_angle_alpha                104.49(3)
_cell_angle_beta                 95.21(3)
_cell_angle_gamma                95.958(18)
_cell_volume                     1730.18
loop_
_atom_site_label
_atom_site_type_symbol
_atom_site_fract_x
_atom_site_fract_y
_atom_site_fract_z
Ag1 Ag 0.38504(5) -0.28293(3) -0.96634(2)
Ag2 Ag 0.33849(5) 0.22245(3) -0.47869(2)
O1 O 0.4267(5) -0.6693(2) -1.1883(2)
O2 O 0.5134(4) 0.0602(2) -0.7016(2)
O3 O 0.4025(5) -0.1764(2) -0.6619(2)
O4 O 0.5495(5) -0.4372(3) -1.2327(3)
N1 N 0.3815(5) -0.5075(3) -1.1175(2)
N2 N 0.2764(4) -0.4424(3) -0.9887(2)
N3 N 0.5527(5) -0.1424(3) -0.9364(2)
N4 N 0.5300(5) -0.0994(3) -0.7876(2)
N5 N 0.3559(5) -0.0144(3) -0.5914(2)
N6 N 0.2493(5) 0.0606(3) -0.4670(2)
N7 N 0.5613(5) -0.6572(3) -1.4641(2)
N8 N 0.5469(5) -0.6004(3) -1.3159(3)
N9 N 0.2399(7) 0.2165(4) -0.6235(3)
N10 N 0.1543(7) 0.3148(4) -0.3958(4)
C1 C 0.4350(5) -0.5769(3) -1.1805(3)
C2 C 0.2962(5) -0.5261(3) -1.0502(3)
C3 C 0.2369(6) -0.6244(4) -1.0464(3)
C4 C 0.1546(7) -0.6358(4) -0.9785(3)
C5 C 0.1315(7) -0.5497(4) -0.9159(3)
C6 C 0.1928(6) -0.4552(4) -0.9233(3)
C7 C 0.6132(7) -0.1213(4) -1.0056(3)
C8 C 0.7123(8) -0.0322(4) -1.0015(4)
C9 C 0.7523(7) 0.0385(4) -0.9225(4)
C10 C 0.6914(6) 0.0192(4) -0.8497(3)
C11 C 0.5939(5) -0.0730(3) -0.8592(3)
C12 C 0.4906(5) -0.0321(3) -0.7176(3)
C13 C 0.4103(5) -0.0851(3) -0.6543(3)
C14 C 0.2729(5) -0.0277(3) -0.5215(3)
C15 C 0.2232(6) -0.1226(4) -0.5094(3)
C16 C 0.1388(7) -0.1264(4) -0.4390(4)
C17 C 0.1065(6) -0.0372(4) -0.3845(3)
C18 C 0.1660(6) 0.0541(4) -0.3995(3)
C19 C 0.2578(7) 0.2099(4) -0.6935(3)
C20 C 0.2907(9) 0.2018(5) -0.7820(4)
H1 H 0.3037 0.1322 -0.8096
H2 H 0.3884 0.2460 -0.7817
H3 H 0.2020 0.2220 -0.8136
C21 C 0.6235(8) -0.6451(5) -1.5366(4)
C22 C 0.7300(8) -0.5611(5) -1.5378(4)
C23 C 0.7774(8) -0.4872(5) -1.4621(5)
C24 C 0.7164(8) -0.4976(4) -1.3865(4)
C25 C 0.6095(6) -0.5828(3) -1.3907(3)
C26 C 0.5168(5) -0.5289(3) -1.2463(3)
C27 C 0.0746(6) 0.3332(4) -0.3435(3)
C28 C -0.0290(7) 0.3561(5) -0.2745(4)
H4 H -0.1401 0.3328 -0.2985
H5 H -0.0158 0.4287 -0.2488
H6 H 0.0005 0.3217 -0.2307
H7 H 0.384(5) -0.448(3) -1.123(3)
H8 H 0.491(5) -0.161(4) -0.794(3)
H9 H 0.364(6) 0.040(4) -0.603(3)
H10 H 0.503(6) -0.654(4) -1.319(3)
H11 H 0.238(6) -0.681(4) -1.086(3)
H12 H 0.103(8) -0.705(5) -0.977(4)
H13 H 0.074(8) -0.558(5) -0.873(4)
H14 H 0.182(7) -0.386(4) -0.884(4)
H15 H 0.573(7) -0.169(5) -1.052(4)
H16 H 0.725(8) -0.020(5) -1.045(4)
H17 H 0.829(7) 0.091(4) -0.913(3)
H18 H 0.709(7) 0.070(4) -0.793(4)
H19 H 0.250(7) -0.187(5) -0.542(4)
H20 H 0.095(6) -0.183(4) -0.434(3)
H21 H 0.059(7) -0.031(4) -0.338(4)
H22 H 0.142(7) 0.115(5) -0.364(4)
H23 H 0.597(8) -0.690(5) -1.580(5)
H24 H 0.762(8) -0.566(5) -1.595(4)
H25 H 0.833(8) -0.428(5) -1.460(4)
H26 H 0.738(7) -0.453(4) -1.338(4)
N7_2 N 0.5613(5) 0.3428(3) -0.4641(2)
Ag2_2 Ag 0.33849(5) -0.77755(3) -1.47869(2)
Cl1 Cl 0.18372(16) 0.68189(9) -0.21180(8)
O5 O 0.0436(7) 0.7198(5) -0.1814(5)
O6 O 0.2412(8) 0.7328(4) -0.2712(3)
O7 O 0.1505(7) 0.5742(3) -0.2506(3)
O8 O 0.3053(7) 0.7004(4) -0.1396(3)
Cl2 Cl 0.07508(15) 0.86477(9) 0.15592(8)
O9 O 0.0279(9) 0.8710(5) 0.0702(4)
O10 O -0.0674(5) 0.8382(4) 0.1907(4)
O11 O 0.1757(5) 0.7858(3) 0.1512(3)
O12 O 0.1596(6) 0.9599(3) 0.2037(3)
loop_
_geom_bond_atom_site_label_1
_geom_bond_atom_site_label_2
_geom_bond_site_symmetry_1
_geom_bond_site_symmetry_2
Ag1 N2 1_555 1_555
Ag2 N6 1_555 1_555
Cl1 O5 1_555 1_555
Cl2 O9 1_555 1_555
O1 C1 1_555 1_555
O2 C12 1_555 1_555
O3 C13 1_555 1_555
O4 C26 1_555 1_555
O6 Cl1 1_555 1_555
O7 Cl1 1_555 1_555
O8 Cl1 1_555 1_555
O10 Cl2 1_555 1_555
O11 Cl2 1_555 1_555
O12 Cl2 1_555 1_555
N1 C1 1_555 1_555
N2 C2 1_555 1_555
N3 Ag1 1_555 1_555
N4 C11 1_555 1_555
N5 C13 1_555 1_555
N6 C14 1_555 1_555
N7 C21 1_555 1_555
N8 C25 1_555 1_555
N9 Ag2 1_555 1_555
N10 Ag2 1_555 1_555
C1 C26 1_555 1_555
C2 N1 1_555 1_555
C3 C2 1_555 1_555
C4 C3 1_555 1_555
C5 C4 1_555 1_555
C6 N2 1_555 1_555
C7 N3 1_555 1_555
C8 C7 1_555 1_555
C9 C8 1_555 1_555
C10 C9 1_555 1_555
C11 N3 1_555 1_555
C12 N4 1_555 1_555
C13 C12 1_555 1_555
C14 N5 1_555 1_555
C15 C14 1_555 1_555
C16 C15 1_555 1_555
C17 C16 1_555 1_555
C18 N6 1_555 1_555
C19 N9 1_555 1_555
C20 C19 1_555 1_555
H1 C20 1_555 1_555
H2 C20 1_555 1_555
H3 C20 1_555 1_555
C21 C22 1_555 1_555
C22 C23 1_555 1_555
C23 C24 1_555 1_555
C24 C25 1_555 1_555
C25 N7 1_555 1_555
C26 N8 1_555 1_555
C27 N10 1_555 1_555
C28 C27 1_555 1_555
H4 C28 1_555 1_555
H5 C28 1_555 1_555
H6 C28 1_555 1_555
H7 N1 1_555 1_555
H8 N4 1_555 1_555
H9 N5 1_555 1_555
H10 N8 1_555 1_555
H11 C3 1_555 1_555
H12 C4 1_555 1_555
H13 C5 1_555 1_555
H14 C6 1_555 1_555
H15 C7 1_555 1_555
H16 C8 1_555 1_555
H17 C9 1_555 1_555
H18 C10 1_555 1_555
H19 C15 1_555 1_555
H20 C16 1_555 1_555
H21 C17 1_555 1_555
H22 C18 1_555 1_555
H23 C21 1_555 1_555
H24 C22 1_555 1_555
H25 C23 1_555 1_555
H26 C24 1_555 1_555
N7_2 Ag2 1_555 1_555
Ag2_2 N7 1_555 1_555
C5 C6 1_555 1_555
C10 C11 1_555 1_555
C17 C18 1_555 1_555

#END
