
#######################################################################
#
#                 Cambridge Crystallographic Data Centre
#                                CCDC 
#
#######################################################################
#
# If this CIF has been generated from an entry in the Cambridge 
# Structural Database, then it will include bibliographic, chemical, 
# crystal, experimental, refinement or atomic coordinate data resulting 
# from the CCDC's data processing and validation procedures.
#
#######################################################################

data_AWUPEN
_symmetry_cell_setting           triclinic
_symmetry_space_group_name_H-M   'P -1'
_symmetry_Int_Tables_number      2
_space_group_name_Hall           '-P 1'
loop_
_symmetry_equiv_pos_site_id
_symmetry_equiv_pos_as_xyz
1 x,y,z
2 -x,-y,-z
_cell_length_a                   9.1210(10)
_cell_length_b                   12.456(2)
_cell_length_c                   13.4431(17)
_cell_angle_alpha                108.012(10)
_cell_angle_beta                 103.289(9)
_cell_angle_gamma                105.532(12)
_cell_volume                     1315.4
loop_
_atom_site_label
_atom_site_type_symbol
_atom_site_fract_x
_atom_site_fract_y
_atom_site_fract_z
Ag1 Ag 0.40088(3) 0.139019(19) 0.19601(2)
O1 O -0.0708(3) 0.26690(19) 0.2324(2)
O2 O -0.1515(2) -0.02217(18) 0.04172(18)
O3 O 0.3249(3) 0.48884(19) 0.5327(2)
N1 N 0.3532(3) 0.3035(2) 0.17734(19)
N2 N 0.0781(3) 0.2014(2) 0.1293(2)
N3 N -0.5716(3) -0.04139(19) 0.12113(18)
N4 N -0.3026(3) 0.0466(2) 0.1426(2)
N5 N 0.2537(3) 0.1374(2) 0.3319(2)
N6 N 0.4043(3) 0.3392(2) 0.4427(2)
N7 N 0.6727(4) 0.2375(3) 0.3540(3)
C1 C 0.4795(4) 0.4064(3) 0.2044(3)
C2 C 0.4629(4) 0.5160(3) 0.2201(3)
C3 C 0.3124(4) 0.5225(3) 0.2081(3)
C4 C 0.1813(4) 0.4189(3) 0.1792(3)
C5 C 0.2076(3) 0.3117(2) 0.1640(2)
C6 C -0.0498(3) 0.1885(2) 0.1649(2)
C7 C -0.7036(3) -0.1410(3) 0.0912(3)
C8 C -0.7069(4) -0.2573(3) 0.0493(3)
C9 C -0.5675(4) -0.2740(3) 0.0375(3)
C10 C -0.4301(4) -0.1739(3) 0.0677(3)
C11 C -0.4376(3) -0.0596(2) 0.1085(2)
C12 C -0.1727(3) 0.0573(2) 0.1089(2)
C13 C 0.1282(4) 0.0356(3) 0.3055(3)
C14 C 0.0186(4) 0.0281(3) 0.3602(3)
C15 C 0.0407(5) 0.1281(3) 0.4489(3)
C16 C 0.1696(4) 0.2341(3) 0.4803(3)
C17 C 0.2708(3) 0.2345(2) 0.4179(2)
C18 C 0.4205(3) 0.4547(2) 0.4952(2)
C19 C 0.7670(5) 0.2962(4) 0.4369(4)
C20 C 0.8911(9) 0.3749(7) 0.5464(5)
H1 H 0.9239 0.4575 0.5531
H2 H 0.9829 0.3505 0.5540
H3 H 0.8474 0.3682 0.6037
H4 H 0.081(4) 0.146(3) 0.089(3)
H5 H -0.303(4) 0.107(3) 0.184(2)
H6 H 0.475(4) 0.331(3) 0.413(3)
H7 H 0.587(5) 0.394(3) 0.212(3)
H8 H 0.550(5) 0.578(4) 0.241(3)
H9 H 0.296(4) 0.596(4) 0.218(3)
H10 H 0.073(5) 0.416(3) 0.165(3)
H11 H -0.797(4) -0.124(3) 0.097(3)
H12 H -0.801(4) -0.318(3) 0.031(3)
H13 H -0.560(4) -0.352(3) 0.012(3)
H14 H -0.342(4) -0.180(3) 0.061(3)
H15 H 0.114(4) -0.032(4) 0.243(3)
H16 H -0.058(5) -0.041(4) 0.339(4)
H17 H -0.032(5) 0.130(3) 0.490(3)
H18 H 0.187(4) 0.302(3) 0.540(3)
C18A C 0.5795(3) 0.5453(2) 0.5048(2)
O3A O 0.6751(3) 0.51116(19) 0.4673(2)
N6A N 0.5957(3) 0.6608(2) 0.5573(2)
C17A C 0.7292(3) 0.7655(2) 0.5821(2)
N5A N 0.7463(3) 0.8626(2) 0.6681(2)
C13A C 0.8718(4) 0.9644(3) 0.6945(3)
C14A C 0.9814(4) 0.9719(3) 0.6398(3)
C15A C 0.9593(5) 0.8719(3) 0.5511(3)
C16A C 0.8304(4) 0.7659(3) 0.5197(3)
H18A H 0.813(4) 0.698(3) 0.460(3)
H17A H 1.032(5) 0.870(3) 0.510(3)
H16A H 1.058(5) 1.041(4) 0.661(4)
H15A H 0.886(4) 1.032(4) 0.757(3)
H6A H 0.525(4) 0.669(3) 0.587(3)
O1_2 O 0.9292(3) 0.26690(19) 0.2324(2)
O2_2 O 0.8485(2) -0.02217(18) 0.04172(18)
N1_2 N 1.3532(3) 0.3035(2) 0.17734(19)
N2_2 N 1.0781(3) 0.2014(2) 0.1293(2)
N3_2 N 0.4284(3) -0.04139(19) 0.12113(18)
N4_2 N 0.6974(3) 0.0466(2) 0.1426(2)
C1_2 C 1.4795(4) 0.4064(3) 0.2044(3)
C2_2 C 1.4629(4) 0.5160(3) 0.2201(3)
C3_2 C 1.3124(4) 0.5225(3) 0.2081(3)
C4_2 C 1.1813(4) 0.4189(3) 0.1792(3)
C5_2 C 1.2076(3) 0.3117(2) 0.1640(2)
C6_2 C 0.9502(3) 0.1885(2) 0.1649(2)
C7_2 C 0.2964(3) -0.1410(3) 0.0912(3)
C8_2 C 0.2931(4) -0.2573(3) 0.0493(3)
C9_2 C 0.4325(4) -0.2740(3) 0.0375(3)
C10_2 C 0.5699(4) -0.1739(3) 0.0677(3)
C11_2 C 0.5624(3) -0.0596(2) 0.1085(2)
C12_2 C 0.8273(3) 0.0573(2) 0.1089(2)
H4_2 H 1.081(4) 0.146(3) 0.089(3)
H5_2 H 0.697(4) 0.107(3) 0.184(2)
H7_2 H 1.587(5) 0.394(3) 0.212(3)
H8_2 H 1.550(5) 0.578(4) 0.241(3)
H9_2 H 1.296(4) 0.596(4) 0.218(3)
H10_2 H 1.073(5) 0.416(3) 0.165(3)
H11_2 H 0.203(4) -0.124(3) 0.097(3)
H12_2 H 0.199(4) -0.318(3) 0.031(3)
H13_2 H 0.440(4) -0.352(3) 0.012(3)
H14_2 H 0.658(4) -0.180(3) 0.061(3)
Ag1_2 Ag 1.40088(3) 0.139019(19) 0.19601(2)
N7_2 N 1.6727(4) 0.2375(3) 0.3540(3)
C19_2 C 1.7670(5) 0.2962(4) 0.4369(4)
C20_2 C 1.8911(9) 0.3749(7) 0.5464(5)
H1_2 H 1.9239 0.4575 0.5531
H2_2 H 1.9829 0.3505 0.5540
H3_2 H 1.8474 0.3682 0.6037
Ag1_3 Ag -0.59912(3) 0.139019(19) 0.19601(2)
Ag1A Ag 0.59912(3) 0.860981(19) 0.80399(2)
N3_3 N 1.4284(3) -0.04139(19) 0.12113(18)
N5_2 N 1.2537(3) 0.1374(2) 0.3319(2)
P1 P 0.88784(9) 0.65374(7) 0.16294(8)
F1 F 0.7114(3) 0.5866(2) 0.0765(2)
F2 F 0.8539(3) 0.5553(3) 0.2149(3)
F3 F 0.9222(3) 0.7538(2) 0.1121(2)
F4 F 1.0643(3) 0.7229(3) 0.2483(3)
F5 F 0.9505(4) 0.5749(3) 0.0797(3)
F6 F 0.8218(4) 0.7319(2) 0.2446(3)
O4 O 0.5000 1.0000 0.5000
C21 C 0.5570(13) 0.8762(10) 0.3615(6)
C23 C 0.567(3) 0.9690(15) 0.4242(15)
C23A C 0.433(3) 1.0310(15) 0.5758(15)
C21A C 0.4430(13) 1.1238(10) 0.6385(6)
C22? C 0.4609(16) 0.9028(19) 0.4106(13)
loop_
_geom_bond_atom_site_label_1
_geom_bond_atom_site_label_2
_geom_bond_site_symmetry_1
_geom_bond_site_symmetry_2
Ag1 N1 1_555 1_555
O1 C6 1_555 1_555
O2 C12 1_555 1_555
O3 C18 1_555 1_555
N1 C1 1_555 1_555
N2 C5 1_555 1_555
N3 C7 1_555 1_555
N4 C11 1_555 1_555
N5 Ag1 1_555 1_555
N6 C17 1_555 1_555
N7 Ag1 1_555 1_555
C1 C2 1_555 1_555
C2 C3 1_555 1_555
C3 C4 1_555 1_555
C4 C5 1_555 1_555
C5 N1 1_555 1_555
C6 N2 1_555 1_555
C7 C8 1_555 1_555
C8 C9 1_555 1_555
C9 C10 1_555 1_555
C10 C11 1_555 1_555
C11 N3 1_555 1_555
C12 N4 1_555 1_555
C13 N5 1_555 1_555
C14 C13 1_555 1_555
C15 C14 1_555 1_555
C16 C15 1_555 1_555
C17 N5 1_555 1_555
C18 N6 1_555 1_555
C19 N7 1_555 1_555
C20 C19 1_555 1_555
H1 C20 1_555 1_555
H2 C20 1_555 1_555
H3 C20 1_555 1_555
P1 F1 1_555 1_555
F2 P1 1_555 1_555
F3 P1 1_555 1_555
F4 P1 1_555 1_555
F5 P1 1_555 1_555
F6 P1 1_555 1_555
O4 C23 1_555 1_555
C21 C23 1_555 1_555
H4 N2 1_555 1_555
H5 N4 1_555 1_555
H6 N6 1_555 1_555
H7 C1 1_555 1_555
H8 C2 1_555 1_555
H9 C3 1_555 1_555
H10 C4 1_555 1_555
H11 C7 1_555 1_555
H12 C8 1_555 1_555
H13 C9 1_555 1_555
H14 C10 1_555 1_555
H15 C13 1_555 1_555
H16 C14 1_555 1_555
H17 C15 1_555 1_555
H18 C16 1_555 1_555
C18A C18 1_555 1_555
O3A C18A 1_555 1_555
N6A C18A 1_555 1_555
C17A N6A 1_555 1_555
N5A C17A 1_555 1_555
C13A N5A 1_555 1_555
C14A C13A 1_555 1_555
C15A C14A 1_555 1_555
C16A C17A 1_555 1_555
H18A C16A 1_555 1_555
H17A C15A 1_555 1_555
H16A C14A 1_555 1_555
H15A C13A 1_555 1_555
H6A N6A 1_555 1_555
C23A O4 1_555 1_555
C21A C23A 1_555 1_555
O1_2 C6_2 1_555 1_555
O2_2 C12_2 1_555 1_555
N1_2 C1_2 1_555 1_555
N2_2 C5_2 1_555 1_555
N3_2 Ag1 1_555 1_555
N4_2 C11_2 1_555 1_555
C1_2 C2_2 1_555 1_555
C2_2 C3_2 1_555 1_555
C3_2 C4_2 1_555 1_555
C4_2 C5_2 1_555 1_555
C5_2 N1_2 1_555 1_555
C6_2 N2_2 1_555 1_555
C7_2 N3_2 1_555 1_555
C8_2 C7_2 1_555 1_555
C9_2 C8_2 1_555 1_555
C10_2 C9_2 1_555 1_555
C11_2 N3_2 1_555 1_555
C12_2 N4_2 1_555 1_555
H4_2 N2_2 1_555 1_555
H5_2 N4_2 1_555 1_555
H7_2 C1_2 1_555 1_555
H8_2 C2_2 1_555 1_555
H9_2 C3_2 1_555 1_555
H10_2 C4_2 1_555 1_555
H11_2 C7_2 1_555 1_555
H12_2 C8_2 1_555 1_555
H13_2 C9_2 1_555 1_555
H14_2 C10_2 1_555 1_555
Ag1_2 N1_2 1_555 1_555
N7_2 Ag1_2 1_555 1_555
C19_2 N7_2 1_555 1_555
C20_2 C19_2 1_555 1_555
H1_2 C20_2 1_555 1_555
H2_2 C20_2 1_555 1_555
H3_2 C20_2 1_555 1_555
Ag1_3 N3 1_555 1_555
Ag1A N5A 1_555 1_555
N3_3 Ag1_2 1_555 1_555
N5_2 Ag1_2 1_555 1_555
C6 C12 1_555 1_555
C16 C17 1_555 1_555
C15A C16A 1_555 1_555
C6_2 C12_2 1_555 1_555
C10_2 C11_2 1_555 1_555

#END
