
#######################################################################
#
#                 Cambridge Crystallographic Data Centre
#                                CCDC 
#
#######################################################################
#
# If this CIF has been generated from an entry in the Cambridge 
# Structural Database, then it will include bibliographic, chemical, 
# crystal, experimental, refinement or atomic coordinate data resulting 
# from the CCDC's data processing and validation procedures.
#
#######################################################################

data_AWUROZ
_symmetry_cell_setting           monoclinic
_symmetry_space_group_name_H-M   'P 21/c'
_symmetry_Int_Tables_number      14
_space_group_name_Hall           '-P 2ybc'
loop_
_symmetry_equiv_pos_site_id
_symmetry_equiv_pos_as_xyz
1 x,y,z
2 x,1/2-y,1/2+z
3 -x,-y,-z
4 -x,1/2+y,1/2-z
_cell_length_a                   6.8687(5)
_cell_length_b                   7.5943(6)
_cell_length_c                   10.0401(6)
_cell_angle_alpha                90
_cell_angle_beta                 95.250(4)
_cell_angle_gamma                90
_cell_volume                     521.524
loop_
_atom_site_label
_atom_site_type_symbol
_atom_site_fract_x
_atom_site_fract_y
_atom_site_fract_z
Co1 Co 0.5000 0.0000 0.0000
C1 C 0.6234(5) 0.3624(4) -0.0844(3)
C2 C 0.8166(5) 0.4342(4) -0.0397(3)
C3 C 0.9175(5) 0.5293(4) -0.1301(3)
C4 C 0.8292(5) 0.5576(4) -0.2685(3)
C5 C 0.8973(5) 0.4044(4) 0.0902(3)
H1 H 0.829(5) 0.337(4) 0.151(3)
O1 O 0.9241(3) 0.6415(3) -0.3516(2)
O2 O 0.5219(3) 0.2739(3) -0.0099(2)
O3 O 0.7618(3) -0.0601(3) -0.0921(2)
N1 N 0.6516(4) 0.4937(3) -0.3055(3)
N2 N 0.5595(4) 0.3969(4) -0.2110(3)
H2 H 0.451(6) 0.355(5) -0.243(4)
C5B C 1.1027(5) 0.5956(4) -0.0902(3)
C2B C 1.1834(5) 0.5658(4) 0.0397(3)
C1B C 1.3766(5) 0.6376(4) 0.0844(3)
O2B O 1.4781(3) 0.7261(3) 0.0099(2)
N2B N 1.4405(4) 0.6031(4) 0.2110(3)
N1B N 1.3484(4) 0.5063(3) 0.3055(3)
C4B C 1.1708(5) 0.4424(4) 0.2685(3)
C3B C 1.0825(5) 0.4707(4) 0.1301(3)
O1B O 1.0759(3) 0.3585(3) 0.3516(2)
H2B H 1.549(6) 0.645(5) 0.243(4)
H1B H 1.171(5) 0.663(4) -0.151(3)
O3B O 0.2382(3) 0.0601(3) 0.0921(2)
O2B_2 O 0.4781(3) -0.2739(3) 0.0099(2)
N1A N 0.6516(4) 0.0063(3) 0.1945(3)
N1C N 0.3484(4) -0.0063(3) -0.1945(3)
Co1A Co 0.5000 0.5000 -0.5000
Co1_2 Co 1.5000 1.0000 0.0000
Co1A_2 Co 1.5000 0.5000 0.5000
loop_
_geom_bond_atom_site_label_1
_geom_bond_atom_site_label_2
_geom_bond_site_symmetry_1
_geom_bond_site_symmetry_2
Co1 O2 1_555 1_555
C1 C2 1_555 1_555
C2 C3 1_555 1_555
C3 C4 1_555 1_555
C4 O1 1_555 1_555
C5 C2 1_555 1_555
H1 C5 1_555 1_555
O2 C1 1_555 1_555
O3 Co1 1_555 1_555
N1 C4 1_555 1_555
N2 C1 1_555 1_555
H2 N2 1_555 1_555
C5B C3 1_555 1_555
C2B C5B 1_555 1_555
C1B C2B 1_555 1_555
O2B C1B 1_555 1_555
N2B C1B 1_555 1_555
N1B N2B 1_555 1_555
C4B N1B 1_555 1_555
C3B C5 1_555 1_555
O1B C4B 1_555 1_555
H2B N2B 1_555 1_555
H1B C5B 1_555 1_555
O3B Co1 1_555 1_555
O2B_2 Co1 1_555 1_555
N1A Co1 1_555 1_555
N1C Co1 1_555 1_555
Co1A N1 1_555 1_555
Co1_2 O2B 1_555 1_555
Co1A_2 N1B 1_555 1_555
N1 N2 1_555 1_555
C2B C3B 1_555 1_555
C4B C3B 1_555 1_555

#END
