
#######################################################################
#
#                 Cambridge Crystallographic Data Centre
#                                CCDC 
#
#######################################################################
#
# If this CIF has been generated from an entry in the Cambridge 
# Structural Database, then it will include bibliographic, chemical, 
# crystal, experimental, refinement or atomic coordinate data resulting 
# from the CCDC's data processing and validation procedures.
#
#######################################################################

data_AWURIT
_symmetry_cell_setting           triclinic
_symmetry_space_group_name_H-M   'P -1'
_symmetry_Int_Tables_number      2
_space_group_name_Hall           '-P 1'
loop_
_symmetry_equiv_pos_site_id
_symmetry_equiv_pos_as_xyz
1 x,y,z
2 -x,-y,-z
_cell_length_a                   9.762(4)
_cell_length_b                   10.169(4)
_cell_length_c                   11.143(4)
_cell_angle_alpha                80.96(3)
_cell_angle_beta                 64.49(3)
_cell_angle_gamma                71.88(3)
_cell_volume                     948.467
loop_
_atom_site_label
_atom_site_type_symbol
_atom_site_fract_x
_atom_site_fract_y
_atom_site_fract_z
Co1 Co 0.02781(4) 0.56199(3) 0.84794(4)
C1 C 0.3296(4) 0.4109(3) 0.6100(3)
C2 C 0.4158(4) 0.3132(4) 0.5112(4)
H1 H 0.535(5) 0.295(4) 0.465(4)
H2 H 0.380(4) 0.455(4) 0.640(4)
C3 C 0.3371(5) 0.2519(4) 0.4706(4)
H3 H 0.391(4) 0.189(4) 0.401(4)
C4 C 0.1708(4) 0.2902(3) 0.5273(3)
C5 C 0.0777(5) 0.2356(4) 0.4887(4)
H4 H 0.134(4) 0.170(4) 0.422(4)
C6 C -0.0806(5) 0.2775(4) 0.5466(4)
H5 H -0.142(4) 0.255(4) 0.522(4)
C7 C -0.1636(4) 0.3779(3) 0.6507(3)
C8 C -0.3283(4) 0.4238(4) 0.7158(4)
H6 H -0.396(5) 0.394(4) 0.694(4)
C9 C -0.3953(4) 0.5170(4) 0.8135(4)
H7 H -0.501(4) 0.555(4) 0.860(4)
C10 C -0.2981(4) 0.5641(3) 0.8511(3)
H8 H -0.343(3) 0.630(3) 0.915(3)
C11 C -0.0746(4) 0.4319(3) 0.6918(3)
C12 C 0.0944(3) 0.3898(3) 0.6274(3)
C13 C 0.0200(3) 1.0391(3) 0.8389(3)
C14 C 0.0408(3) 1.1573(3) 0.8707(3)
H9 H -0.043(3) 1.234(3) 0.901(3)
C15 C 0.1860(3) 1.1540(2) 0.8677(2)
C16 C 0.3105(3) 1.0309(3) 0.8329(3)
C17 C 0.2868(3) 0.9118(3) 0.8069(3)
H10 H 0.361(4) 0.834(3) 0.792(3)
C18 C 0.4636(3) 1.0280(3) 0.8287(3)
C19 C 0.2129(3) 1.2720(2) 0.9064(3)
C20 C 0.1080(3) 0.7876(3) 0.7975(3)
C21 C 0.1429(3) 0.9146(3) 0.8102(3)
C22 C -0.1339(3) 1.0422(3) 0.8420(3)
N1 N -0.1410(3) 0.5227(2) 0.7926(2)
N2 N 0.1735(3) 0.4492(2) 0.6676(2)
N3 N 0.4701(3) 1.1470(2) 0.8611(3)
H11 H 0.557(4) 1.149(3) 0.868(3)
N4 N 0.3498(3) 1.2686(2) 0.9009(3)
N5 N -0.0285(3) 0.7918(2) 0.8002(2)
N6 N -0.1431(3) 0.9195(2) 0.8177(3)
H12 H -0.238(4) 0.914(3) 0.813(3)
O1 O -0.2479(2) 1.1463(2) 0.8693(2)
O2 O 0.2041(2) 0.66742(19) 0.7924(2)
O3 O 0.0946(2) 1.38414(17) 0.95136(19)
O4 O 0.5802(2) 0.9248(2) 0.7956(2)
O3_2 O 0.0946(2) 0.38414(17) 0.95136(19)
O3A O -0.0946(2) 0.61586(17) 1.04864(19)
Co1_2 Co 0.02781(4) 1.56199(3) 0.84794(4)
Co1A Co -0.02781(4) 1.43801(3) 1.15206(4)
loop_
_geom_bond_atom_site_label_1
_geom_bond_atom_site_label_2
_geom_bond_site_symmetry_1
_geom_bond_site_symmetry_2
Co1 N1 1_555 1_555
C1 C2 1_555 1_555
C2 H1 1_555 1_555
H2 C1 1_555 1_555
C3 C2 1_555 1_555
H3 C3 1_555 1_555
C4 C3 1_555 1_555
C5 C4 1_555 1_555
H4 C5 1_555 1_555
C6 C5 1_555 1_555
H5 C6 1_555 1_555
C7 C6 1_555 1_555
C8 C7 1_555 1_555
H6 C8 1_555 1_555
C9 C8 1_555 1_555
H7 C9 1_555 1_555
C10 C9 1_555 1_555
H8 C10 1_555 1_555
C11 C7 1_555 1_555
C12 C4 1_555 1_555
C13 C14 1_555 1_555
C14 H9 1_555 1_555
C15 C14 1_555 1_555
C16 C15 1_555 1_555
C17 C16 1_555 1_555
H10 C17 1_555 1_555
C18 C16 1_555 1_555
C19 C15 1_555 1_555
C20 C21 1_555 1_555
C21 C13 1_555 1_555
C22 C13 1_555 1_555
N1 C10 1_555 1_555
N2 Co1 1_555 1_555
N3 C18 1_555 1_555
H11 N3 1_555 1_555
N4 C19 1_555 1_555
N5 Co1 1_555 1_555
N6 C22 1_555 1_555
H12 N6 1_555 1_555
O1 C22 1_555 1_555
O2 Co1 1_555 1_555
O3 C19 1_555 1_555
O4 C18 1_555 1_555
O3_2 Co1 1_555 1_555
O3A Co1 1_555 1_555
Co1_2 O3 1_555 1_555
Co1A O3 1_555 1_555
C1 N2 1_555 1_555
C11 N1 1_555 1_555
C11 C12 1_555 1_555
C12 N2 1_555 1_555
C17 C21 1_555 1_555
C20 N5 1_555 1_555
C20 O2 1_555 1_555
N3 N4 1_555 1_555
N5 N6 1_555 1_555

#END
