
#######################################################################
#
#                 Cambridge Crystallographic Data Centre
#                                CCDC 
#
#######################################################################
#
# If this CIF has been generated from an entry in the Cambridge 
# Structural Database, then it will include bibliographic, chemical, 
# crystal, experimental, refinement or atomic coordinate data resulting 
# from the CCDC's data processing and validation procedures.
#
#######################################################################

data_AWUZOH
_symmetry_cell_setting           triclinic
_symmetry_space_group_name_H-M   'P -1'
_symmetry_Int_Tables_number      2
_space_group_name_Hall           '-P 1'
loop_
_symmetry_equiv_pos_site_id
_symmetry_equiv_pos_as_xyz
1 x,y,z
2 -x,-y,-z
_cell_length_a                   8.5514(4)
_cell_length_b                   9.9091(4)
_cell_length_c                   12.7475(6)
_cell_angle_alpha                86.250(1)
_cell_angle_beta                 83.849(1)
_cell_angle_gamma                68.283(1)
_cell_volume                     997.347
loop_
_atom_site_label
_atom_site_type_symbol
_atom_site_fract_x
_atom_site_fract_y
_atom_site_fract_z
Mo1 Mo -0.23574(4) -0.18862(3) -0.38859(3)
O1 O -0.2519(3) -0.4103(3) -0.4594(2)
O2 O -0.2428(3) -0.1556(3) -0.5374(2)
O3 O -0.1675(3) -0.3299(3) -0.2771(2)
O4 O 0.0400(3) -0.3330(3) -0.4429(2)
O5 O -0.1631(4) -0.0593(3) -0.3582(2)
O6 O -0.4468(3) -0.1245(3) -0.3482(2)
Mo2 Mo -0.32029(4) -0.27095(3) -0.61866(3)
Mo3 Mo 0.06428(4) -0.43235(3) -0.26187(3)
As1 As 0.12203(5) -0.41309(4) -0.55902(3)
Cu1 Cu -0.68620(6) -0.18430(5) -0.26403(4)
O7 O -0.0280(3) -0.3995(3) -0.6410(2)
O8 O -0.3260(4) -0.1773(3) -0.7348(2)
O9 O -0.5262(4) -0.2274(3) -0.5701(2)
O10 O -0.2846(3) -0.4573(3) -0.6724(2)
O11 O 0.2340(4) -0.3215(3) -0.6300(2)
N1 N -0.5617(4) -0.2477(4) -0.1346(3)
O12 O -0.5476(4) -0.3684(3) -0.3326(2)
N2 N -0.8295(4) -0.0181(4) -0.1751(3)
O13 O -0.8011(4) -0.0994(3) -0.3937(2)
O14 O -0.8808(3) -0.2924(3) -0.2274(2)
C1 C -0.6250(5) -0.1497(4) -0.0572(3)
C2 C -0.4269(5) -0.3656(5) -0.1175(3)
C3 C -0.9673(5) 0.0954(4) -0.1967(3)
C4 C -0.7703(5) -0.0237(4) -0.0798(3)
O15 O -0.0527(3) -0.4750(3) -0.8536(2)
C5 C -0.5579(5) -0.1650(4) 0.0398(3)
C6 C -0.3495(5) -0.3912(5) -0.0241(4)
C7 C -1.0479(5) 0.2075(4) -0.1258(3)
C8 C -0.8429(5) 0.0823(4) -0.0046(3)
C9 C -0.6343(5) -0.0543(5) 0.1152(3)
C10 C -0.4145(5) -0.2917(5) 0.0552(3)
C11 C -0.9874(5) 0.2029(5) -0.0310(4)
C12 C -0.7711(5) 0.0640(5) 0.0947(3)
O4A O -0.0400(3) -0.6670(3) -0.5571(2)
O1A O 0.2519(3) -0.5897(3) -0.5406(2)
Mo3A Mo -0.06428(4) -0.56765(3) -0.73813(3)
Mo2A Mo 0.32029(4) -0.72905(3) -0.38134(3)
Mo1A Mo 0.23574(4) -0.81138(3) -0.61141(3)
O14A O -0.1192(3) -0.7076(3) -0.7726(2)
O3A O 0.1675(3) -0.6701(3) -0.7229(2)
Cu1A Cu -0.31380(6) -0.81570(5) -0.73597(4)
loop_
_geom_bond_atom_site_label_1
_geom_bond_atom_site_label_2
_geom_bond_site_symmetry_1
_geom_bond_site_symmetry_2
Mo1 O1 1_555 1_555
O1 Mo2 1_555 1_555
O2 Mo1 1_555 1_555
O3 Mo1 1_555 1_555
O4 Mo1 1_555 1_555
O5 Mo1 1_555 1_555
O6 Mo1 1_555 1_555
Mo2 O2 1_555 1_555
Mo3 O3 1_555 1_555
As1 O4 1_555 1_555
Cu1 O6 1_555 1_555
O7 Mo2 1_555 1_555
O8 Mo2 1_555 1_555
O9 Mo2 1_555 1_555
O10 Mo2 1_555 1_555
O11 As1 1_555 1_555
N1 Cu1 1_555 1_555
O12 Cu1 1_555 1_555
N2 Cu1 1_555 1_555
O13 Cu1 1_555 1_555
O14 Cu1 1_555 1_555
C1 N1 1_555 1_555
C2 N1 1_555 1_555
C3 N2 1_555 1_555
C4 N2 1_555 1_555
O15 Mo3A 1_555 1_555
C5 C1 1_555 1_555
C6 C2 1_555 1_555
C7 C3 1_555 1_555
C8 C4 1_555 1_555
C9 C5 1_555 1_555
C10 C5 1_555 1_555
C11 C7 1_555 1_555
C12 C8 1_555 1_555
O4A Mo3A 1_555 1_555
O1A As1 1_555 1_555
Mo3A O7 1_555 1_555
Mo2A O1A 1_555 1_555
Mo1A O4A 1_555 1_555
O14A Mo3A 1_555 1_555
O3A Mo3A 1_555 1_555
Cu1A O14A 1_555 1_555
O4 Mo3 1_555 1_555
As1 O7 1_555 1_555
O10 Mo3A 1_555 1_555
C1 C4 1_555 1_555
C6 C10 1_555 1_555
C8 C11 1_555 1_555
C9 C12 1_555 1_555
O1A Mo1A 1_555 1_555
Mo1A O3A 1_555 1_555

#END
