
#######################################################################
#
#                 Cambridge Crystallographic Data Centre
#                                CCDC 
#
#######################################################################
#
# If this CIF has been generated from an entry in the Cambridge 
# Structural Database, then it will include bibliographic, chemical, 
# crystal, experimental, refinement or atomic coordinate data resulting 
# from the CCDC's data processing and validation procedures.
#
#######################################################################

data_AXAFIO
_symmetry_cell_setting           cubic
_symmetry_space_group_name_H-M   'P 41 3 2'
_symmetry_Int_Tables_number      213
_space_group_name_Hall           'P 4bd 2ab 3'
loop_
_symmetry_equiv_pos_site_id
_symmetry_equiv_pos_as_xyz
1 x,y,z
2 1/2-x,-y,1/2+z
3 -x,1/2+y,1/2-z
4 1/2+x,1/2-y,-z
5 z,x,y
6 1/2+z,1/2-x,-y
7 1/2-z,-x,1/2+y
8 -z,1/2+x,1/2-y
9 y,z,x
10 -y,1/2+z,1/2-x
11 1/2+y,1/2-z,-x
12 1/2-y,-z,1/2+x
13 3/4+y,1/4+x,1/4-z
14 3/4-y,3/4-x,3/4-z
15 1/4+y,1/4-x,3/4+z
16 1/4-y,3/4+x,1/4+z
17 3/4+x,1/4+z,1/4-y
18 1/4-x,3/4+z,1/4+y
19 3/4-x,3/4-z,3/4-y
20 1/4+x,1/4-z,3/4+y
21 3/4+z,1/4+y,1/4-x
22 1/4+z,1/4-y,3/4+x
23 1/4-z,3/4+y,1/4+x
24 3/4-z,3/4-y,3/4-x
_cell_length_a                   15.2966(7)
_cell_length_b                   15.2966(7)
_cell_length_c                   15.2966(7)
_cell_angle_alpha                90
_cell_angle_beta                 90
_cell_angle_gamma                90
_cell_volume                     3579.19
loop_
_atom_site_label
_atom_site_type_symbol
_atom_site_fract_x
_atom_site_fract_y
_atom_site_fract_z
Ru1 Ru 0.8750 0.8750 0.8750
N1 N 0.87499(14) 0.74151(11) 0.88740(13)
C1 C 0.87467(16) 0.71082(15) 0.97103(16)
C2 C 0.87230(18) 0.62135(18) 0.98804(18)
H1 H 0.8725 0.6007 1.0466
C3 C 0.8696(2) 0.56259(17) 0.9192(2)
H2 H 0.8683 0.5014 0.9300
C4 C 0.8688(2) 0.59431(18) 0.8350(2)
H3 H 0.8660 0.5553 0.7868
C5 C 0.87204(19) 0.68386(17) 0.82153(19)
H4 H 0.8722 0.7052 0.7632
C1R C 0.87533(16) 0.77897(16) 1.03918(15)
N1R N 0.87501(14) 0.86260(13) 1.00849(11)
C5R C 0.87796(19) 0.92847(19) 1.06614(17)
C4R C 0.8812(2) 0.9150(2) 1.15569(18)
C3R C 0.8804(2) 0.8308(2) 1.18741(17)
C2R C 0.87770(18) 0.76196(18) 1.12865(18)
H1R H 0.8775 0.7034 1.1493
H2R H 0.8817 0.8200 1.2486
H3R H 0.8840 0.9632 1.1947
H4R H 0.8778 0.9868 1.0448
N1D N 0.88740(13) 0.87499(14) 0.74151(11)
C1D C 0.97103(16) 0.87467(16) 0.71082(15)
C2D C 0.98804(18) 0.87230(18) 0.62135(18)
H1D H 1.0466 0.8725 0.6007
C3D C 0.9192(2) 0.8696(2) 0.56259(17)
H2D H 0.9300 0.8683 0.5014
C4D C 0.8350(2) 0.8688(2) 0.59431(18)
H3D H 0.7868 0.8660 0.5553
C5D C 0.82153(19) 0.87204(19) 0.68386(17)
H4D H 0.7632 0.8722 0.7052
C1M C 1.03918(15) 0.87533(16) 0.77897(16)
N1M N 1.00849(11) 0.87501(14) 0.86260(13)
C5M C 1.06614(17) 0.87796(19) 0.92847(19)
C4M C 1.15569(18) 0.8812(2) 0.9150(2)
C3M C 1.18741(17) 0.8804(2) 0.8308(2)
C2M C 1.12865(18) 0.87770(18) 0.76196(18)
H1M H 1.1493 0.8775 0.7034
H2M H 1.2486 0.8817 0.8200
H3M H 1.1947 0.8840 0.9632
H4M H 1.0448 0.8778 0.9868
N1H N 0.74151(11) 0.88740(13) 0.87499(14)
C1H C 0.71082(15) 0.97103(16) 0.87467(16)
C2H C 0.62135(18) 0.98804(18) 0.87230(18)
H1H H 0.6007 1.0466 0.8725
C3H C 0.56259(17) 0.9192(2) 0.8696(2)
H2H H 0.5014 0.9300 0.8683
C4H C 0.59431(18) 0.8350(2) 0.8688(2)
H3H H 0.5553 0.7868 0.8660
C5H C 0.68386(17) 0.82153(19) 0.87204(19)
H4H H 0.7052 0.7632 0.8722
C1W C 0.77897(16) 1.03918(15) 0.87533(16)
N1W N 0.86260(13) 1.00849(11) 0.87501(14)
C5W C 0.92847(19) 1.06614(17) 0.87796(19)
C4W C 0.9150(2) 1.15569(18) 0.8812(2)
C3W C 0.8308(2) 1.18741(17) 0.8804(2)
C2W C 0.76196(18) 1.12865(18) 0.87770(18)
H1W H 0.7034 1.1493 0.8775
H2W H 0.8200 1.2486 0.8817
H3W H 0.9632 1.1947 0.8840
H4W H 0.9868 1.0448 0.8778
Cu1 Cu 0.649232(19) 0.649232(19) 0.649232(19)
O1 O 0.66273(12) 0.63686(14) 0.51406(13)
O2 O 0.78632(16) 0.63997(15) 0.63814(13)
C6 C 0.73989(15) 0.6250 0.48989(15)
C7 C 0.81159(16) 0.6250 0.56159(16)
O1U O 0.76406(13) 0.61314(14) 0.41273(12)
O2U O 0.88814(13) 0.61003(15) 0.53632(16)
O1D O 0.51406(13) 0.66273(12) 0.63686(14)
O2D O 0.63814(13) 0.78632(16) 0.63997(15)
C6D C 0.48989(15) 0.73989(15) 0.6250
C7D C 0.56159(16) 0.81159(16) 0.6250
O1P O 0.41273(12) 0.76406(13) 0.61314(14)
O2P O 0.53632(16) 0.88814(13) 0.61003(15)
O1H O 0.63686(14) 0.51406(13) 0.66273(12)
O2H O 0.63997(15) 0.63814(13) 0.78632(16)
C6H C 0.6250 0.48989(15) 0.73989(15)
C7H C 0.6250 0.56159(16) 0.81159(16)
O1O O 0.61314(14) 0.41273(12) 0.76406(13)
O2O O 0.61003(15) 0.53632(16) 0.88814(13)
Cu1U Cu 0.899232(19) 0.600768(19) 0.399232(19)
Cu1L Cu 0.399232(19) 0.899232(19) 0.600768(19)
Cu1O Cu 0.600768(19) 0.399232(19) 0.899232(19)
O1N O 0.88686(14) 0.58727(12) 0.26406(13)
O1S O 0.91273(12) 0.73594(13) 0.38686(14)
O2N O 0.88997(15) 0.46368(16) 0.38814(13)
O2S O 1.03632(16) 0.61186(13) 0.38997(15)
loop_
_geom_bond_atom_site_label_1
_geom_bond_atom_site_label_2
_geom_bond_site_symmetry_1
_geom_bond_site_symmetry_2
Ru1 N1 1_555 1_555
N1 C1 1_555 1_555
C1 C2 1_555 1_555
C2 H1 1_555 1_555
C3 C2 1_555 1_555
H2 C3 1_555 1_555
C4 C3 1_555 1_555
H3 C4 1_555 1_555
C5 N1 1_555 1_555
H4 C5 1_555 1_555
Cu1 O1 1_555 1_555
O1 C6 1_555 1_555
O2 Cu1 1_555 1_555
C6 C7 1_555 1_555
C7 O2 1_555 1_555
C1R C1 1_555 1_555
N1R Ru1 1_555 1_555
C5R N1R 1_555 1_555
C4R C5R 1_555 1_555
C3R C4R 1_555 1_555
C2R C1R 1_555 1_555
H1R C2R 1_555 1_555
H2R C3R 1_555 1_555
H3R C4R 1_555 1_555
H4R C5R 1_555 1_555
O1U C6 1_555 1_555
O2U C7 1_555 1_555
N1D Ru1 1_555 1_555
C1D N1D 1_555 1_555
C2D C1D 1_555 1_555
H1D C2D 1_555 1_555
C3D C2D 1_555 1_555
H2D C3D 1_555 1_555
C4D C3D 1_555 1_555
H3D C4D 1_555 1_555
C5D N1D 1_555 1_555
H4D C5D 1_555 1_555
C1M C1D 1_555 1_555
N1M Ru1 1_555 1_555
C5M N1M 1_555 1_555
C4M C5M 1_555 1_555
C3M C4M 1_555 1_555
C2M C1M 1_555 1_555
H1M C2M 1_555 1_555
H2M C3M 1_555 1_555
H3M C4M 1_555 1_555
H4M C5M 1_555 1_555
N1H Ru1 1_555 1_555
C1H N1H 1_555 1_555
C2H C1H 1_555 1_555
H1H C2H 1_555 1_555
C3H C2H 1_555 1_555
H2H C3H 1_555 1_555
C4H C3H 1_555 1_555
H3H C4H 1_555 1_555
C5H N1H 1_555 1_555
H4H C5H 1_555 1_555
C1W C1H 1_555 1_555
N1W Ru1 1_555 1_555
C5W N1W 1_555 1_555
C4W C5W 1_555 1_555
C3W C4W 1_555 1_555
C2W C1W 1_555 1_555
H1W C2W 1_555 1_555
H2W C3W 1_555 1_555
H3W C4W 1_555 1_555
H4W C5W 1_555 1_555
O1D Cu1 1_555 1_555
O2D Cu1 1_555 1_555
C6D O1D 1_555 1_555
C7D O2D 1_555 1_555
O1P C6D 1_555 1_555
O2P C7D 1_555 1_555
O1H Cu1 1_555 1_555
O2H Cu1 1_555 1_555
C6H O1H 1_555 1_555
C7H O2H 1_555 1_555
O1O C6H 1_555 1_555
O2O C7H 1_555 1_555
Cu1U O1U 1_555 1_555
Cu1L O1P 1_555 1_555
Cu1O O1O 1_555 1_555
O1N Cu1U 1_555 1_555
O1S Cu1U 1_555 1_555
O2N Cu1U 1_555 1_555
O2S Cu1U 1_555 1_555
C4 C5 1_555 1_555
C1R N1R 1_555 1_555
C3R C2R 1_555 1_555
O2U Cu1U 1_555 1_555
C4D C5D 1_555 1_555
C1M N1M 1_555 1_555
C3M C2M 1_555 1_555
C4H C5H 1_555 1_555
C1W N1W 1_555 1_555
C3W C2W 1_555 1_555
C6D C7D 1_555 1_555
O2P Cu1L 1_555 1_555
C6H C7H 1_555 1_555
O2O Cu1O 1_555 1_555

#END
