
#######################################################################
#
#                 Cambridge Crystallographic Data Centre
#                                CCDC 
#
#######################################################################
#
# If this CIF has been generated from an entry in the Cambridge 
# Structural Database, then it will include bibliographic, chemical, 
# crystal, experimental, refinement or atomic coordinate data resulting 
# from the CCDC's data processing and validation procedures.
#
#######################################################################

data_AXALUG
_symmetry_cell_setting           triclinic
_symmetry_space_group_name_H-M   'P -1'
_symmetry_Int_Tables_number      2
_space_group_name_Hall           '-P 1'
loop_
_symmetry_equiv_pos_site_id
_symmetry_equiv_pos_as_xyz
1 x,y,z
2 -x,-y,-z
_cell_length_a                   9.9650(14)
_cell_length_b                   14.184(2)
_cell_length_c                   15.048(2)
_cell_angle_alpha                102.058(3)
_cell_angle_beta                 106.791(3)
_cell_angle_gamma                109.783(3)
_cell_volume                     1801.63
loop_
_atom_site_label
_atom_site_type_symbol
_atom_site_fract_x
_atom_site_fract_y
_atom_site_fract_z
Co1 Co 0.19799(9) 0.70597(6) 0.20562(5)
Co2 Co 0.60342(9) 0.70464(6) 0.42035(5)
O1 O 0.3036(4) 0.6150(3) 0.1600(3)
O2 O 0.5341(4) 0.7200(3) 0.2833(2)
O3 O 0.9845(4) 0.7158(3) 0.2061(3)
O4 O 0.9849(4) 0.5612(3) 0.1492(3)
O5 O 0.2783(6) 0.2542(4) 0.0056(4)
O6 O 0.4766(6) 0.2460(4) -0.0148(4)
O7 O 0.3816(4) 0.6139(3) 0.4053(3)
O8 O 0.2812(4) 0.7209(3) 0.3541(3)
O9 O -0.1784(4) 0.7067(3) 0.4220(3)
O10 O -0.3655(4) 0.5528(3) 0.3885(3)
O11 O -0.2092(6) 0.2508(4) 0.3875(4)
O12 O -0.0206(6) 0.2546(4) 0.3467(4)
N1 N 0.4129(7) 0.2954(4) 0.0177(4)
N2 N -0.1009(6) 0.2971(4) 0.3666(4)
N3 N 0.3271(5) 0.8699(4) 0.2446(4)
N4 N 0.1530(7) 0.7279(5) 0.0659(4)
N5 N 0.7263(5) 0.8724(3) 0.4876(3)
N6 N 0.6620(5) 0.7259(4) 0.5731(3)
C1 C 0.4457(6) 0.6407(5) 0.2056(4)
C2 C 0.5159(6) 0.5743(4) 0.1626(4)
C3 C 0.6737(6) 0.6214(4) 0.1819(4)
H1 H 0.7322 0.6934 0.2189
C4 C 0.7441(6) 0.5619(4) 0.1463(4)
C5 C 0.6599(6) 0.4558(4) 0.0928(4)
H2 H 0.7072 0.4153 0.0697
C6 C 0.5043(7) 0.4098(4) 0.0734(4)
C7 C 0.4276(7) 0.4673(4) 0.1067(4)
H3 H 0.3218 0.4348 0.0918
C8 C 0.9149(7) 0.6175(5) 0.1681(4)
C9 C 0.2722(6) 0.6408(5) 0.3789(4)
C10 C 0.1209(6) 0.5723(4) 0.3798(4)
C11 C 0.0161(6) 0.6150(4) 0.3867(4)
H4 H 0.0415 0.6855 0.3904
C12 C -0.1247(6) 0.5556(4) 0.3883(4)
C13 C -0.1642(6) 0.4500(5) 0.3794(4)
H5 H -0.2604 0.4078 0.3773
C14 C -0.0607(6) 0.4078(4) 0.3736(4)
C15 C 0.0817(6) 0.4675(4) 0.3738(3)
H6 H 0.1502 0.4373 0.3699
C16 C -0.2318(6) 0.6070(5) 0.3993(4)
C17 C 0.4078(7) 0.9397(5) 0.3354(5)
H7 H 0.4140 0.9149 0.3883
C18 C 0.4837(8) 1.0484(6) 0.3546(7)
H8 H 0.5375 1.0958 0.4191
C19 C 0.4775(9) 1.0840(7) 0.2764(9)
H9 H 0.5303 1.1561 0.2874
C20 C 0.3921(9) 1.0123(7) 0.1805(8)
C21 C 0.3828(12) 1.0460(10) 0.0961(10)
H10 H 0.4346 1.1174 0.1044
C22 C 0.2987(14) 0.9735(11) 0.0051(9)
H11 H 0.2925 0.9956 -0.0494
C23 C 0.2191(12) 0.8639(10) -0.0098(8)
C24 C 0.1263(15) 0.7844(11) -0.1015(8)
H12 H 0.1150 0.8025 -0.1583
C25 C 0.0530(14) 0.6829(9) -0.1098(6)
H13 H -0.0053 0.6302 -0.1716
C26 C 0.0661(10) 0.6564(7) -0.0214(5)
H14 H 0.0110 0.5865 -0.0268
C27 C 0.2288(9) 0.8302(7) 0.0730(6)
C28 C 0.3201(8) 0.9056(6) 0.1681(6)
C29 C 0.7594(7) 0.9448(4) 0.4448(5)
H15 H 0.7110 0.9233 0.3765
C30 C 0.8627(8) 1.0519(5) 0.4962(5)
H16 H 0.8829 1.1001 0.4631
C31 C 0.9333(8) 1.0835(5) 0.5968(5)
H17 H 1.0011 1.1545 0.6329
C32 C 0.9049(7) 1.0111(5) 0.6451(5)
C33 C 0.9699(8) 1.0387(5) 0.7519(5)
H18 H 1.0391 1.1085 0.7915
C34 C 0.9309(8) 0.9646(5) 0.7933(5)
H19 H 0.9745 0.9842 0.8617
C35 C 0.8254(8) 0.8573(5) 0.7369(4)
C36 C 0.7747(8) 0.7781(6) 0.7771(5)
H20 H 0.8117 0.7943 0.8452
C37 C 0.6708(8) 0.6768(5) 0.7161(5)
H21 H 0.6357 0.6241 0.7424
C38 C 0.6181(7) 0.6537(5) 0.6145(4)
H22 H 0.5489 0.5843 0.5737
C39 C 0.7631(7) 0.8274(4) 0.6333(4)
C40 C 0.7993(7) 0.9047(4) 0.5879(4)
O3_2 O -0.0155(4) 0.7158(3) 0.2061(3)
O4_2 O -0.0151(4) 0.5612(3) 0.1492(3)
O9_2 O 0.8216(4) 0.7067(3) 0.4220(3)
O10_2 O 0.6345(4) 0.5528(3) 0.3885(3)
Co1_2 Co 1.19799(9) 0.70597(6) 0.20562(5)
Co2_2 Co -0.39658(9) 0.70464(6) 0.42035(5)
loop_
_geom_bond_atom_site_label_1
_geom_bond_atom_site_label_2
_geom_bond_site_symmetry_1
_geom_bond_site_symmetry_2
Co1 O1 1_555 1_555
Co2 O2 1_555 1_555
O1 C1 1_555 1_555
O2 C1 1_555 1_555
O3 C8 1_555 1_555
O4 C8 1_555 1_555
O5 N1 1_555 1_555
O6 N1 1_555 1_555
O7 Co2 1_555 1_555
O8 Co1 1_555 1_555
O9 C16 1_555 1_555
O10 C16 1_555 1_555
O11 N2 1_555 1_555
O12 N2 1_555 1_555
N1 C6 1_555 1_555
N2 C14 1_555 1_555
N3 Co1 1_555 1_555
N4 Co1 1_555 1_555
N5 Co2 1_555 1_555
N6 Co2 1_555 1_555
C1 C2 1_555 1_555
C2 C3 1_555 1_555
C3 H1 1_555 1_555
C4 C3 1_555 1_555
C5 C4 1_555 1_555
H2 C5 1_555 1_555
C6 C5 1_555 1_555
C7 C2 1_555 1_555
H3 C7 1_555 1_555
C8 C4 1_555 1_555
C9 O7 1_555 1_555
C10 C9 1_555 1_555
C11 C10 1_555 1_555
H4 C11 1_555 1_555
C12 C11 1_555 1_555
C13 C12 1_555 1_555
H5 C13 1_555 1_555
C14 C13 1_555 1_555
C15 C10 1_555 1_555
H6 C15 1_555 1_555
C16 C12 1_555 1_555
C17 N3 1_555 1_555
H7 C17 1_555 1_555
C18 C17 1_555 1_555
H8 C18 1_555 1_555
C19 C18 1_555 1_555
H9 C19 1_555 1_555
C20 C19 1_555 1_555
C21 C20 1_555 1_555
H10 C21 1_555 1_555
C22 C21 1_555 1_555
H11 C22 1_555 1_555
C23 C22 1_555 1_555
C24 C23 1_555 1_555
H12 C24 1_555 1_555
C25 C24 1_555 1_555
H13 C25 1_555 1_555
C26 N4 1_555 1_555
H14 C26 1_555 1_555
C27 N4 1_555 1_555
C28 N3 1_555 1_555
C29 N5 1_555 1_555
H15 C29 1_555 1_555
C30 C29 1_555 1_555
H16 C30 1_555 1_555
C31 C30 1_555 1_555
H17 C31 1_555 1_555
C32 C31 1_555 1_555
C33 C32 1_555 1_555
H18 C33 1_555 1_555
C34 C33 1_555 1_555
H19 C34 1_555 1_555
C35 C34 1_555 1_555
C36 C35 1_555 1_555
H20 C36 1_555 1_555
C37 C36 1_555 1_555
H21 C37 1_555 1_555
C38 N6 1_555 1_555
H22 C38 1_555 1_555
C39 N6 1_555 1_555
C40 N5 1_555 1_555
O3_2 Co1 1_555 1_555
O4_2 Co1 1_555 1_555
O9_2 Co2 1_555 1_555
O10_2 Co2 1_555 1_555
Co1_2 O3 1_555 1_555
Co2_2 O9 1_555 1_555
O4 Co1_2 1_555 1_555
O8 C9 1_555 1_555
O10 Co2_2 1_555 1_555
C6 C7 1_555 1_555
C14 C15 1_555 1_555
C20 C28 1_555 1_555
C23 C27 1_555 1_555
C25 C26 1_555 1_555
C27 C28 1_555 1_555
C32 C40 1_555 1_555
C35 C39 1_555 1_555
C37 C38 1_555 1_555
C39 C40 1_555 1_555

#END
