
#######################################################################
#
#                 Cambridge Crystallographic Data Centre
#                                CCDC 
#
#######################################################################
#
# If this CIF has been generated from an entry in the Cambridge 
# Structural Database, then it will include bibliographic, chemical, 
# crystal, experimental, refinement or atomic coordinate data resulting 
# from the CCDC's data processing and validation procedures.
#
#######################################################################

data_AXAMOB
_symmetry_cell_setting           monoclinic
_symmetry_space_group_name_H-M   'P 21/n'
_symmetry_Int_Tables_number      14
_space_group_name_Hall           '-P 2yn'
loop_
_symmetry_equiv_pos_site_id
_symmetry_equiv_pos_as_xyz
1 x,y,z
2 1/2+x,1/2-y,1/2+z
3 -x,-y,-z
4 1/2-x,1/2+y,1/2-z
_cell_length_a                   9.401(7)
_cell_length_b                   10.841(8)
_cell_length_c                   10.035(8)
_cell_angle_alpha                90
_cell_angle_beta                 98.48(1)
_cell_angle_gamma                90
_cell_volume                     1011.55
loop_
_atom_site_label
_atom_site_type_symbol
_atom_site_fract_x
_atom_site_fract_y
_atom_site_fract_z
Br1 Br 0.86137(7) -0.14504(5) -0.02494(6)
Br2 Br 0.76929(6) 0.15846(6) 0.21914(6)
Cu1 Cu 0.89227(9) 0.07115(7) 0.05096(7)
S1 S 0.7805(2) 0.1861(1) -0.1385(1)
S2 S 0.5407(2) -0.0196(1) -0.3325(1)
S3 S 0.9784(2) 0.1115(1) -0.3245(1)
S4 S 0.7780(2) -0.0450(1) -0.4901(1)
C1 C 0.5879(7) 0.1744(6) -0.1469(6)
C2 C 0.5304(6) 0.0446(6) -0.1662(6)
C3 C 0.8082(6) 0.1004(5) -0.2793(5)
C4 C 0.7128(6) 0.0235(5) -0.3540(5)
C5 C 0.9464(6) 0.0144(5) -0.4595(5)
H1 H 0.5624 0.2058 -0.0653
H2 H 0.5441 0.2231 -0.2203
H3 H 0.5844 -0.0069 -0.1007
H4 H 0.4325 0.0449 -0.1527
C5B C 1.0536(6) -0.0144(5) -0.5405(5)
S3B S 1.0216(2) -0.1115(1) -0.6755(1)
C3B C 1.1918(6) -0.1004(5) -0.7207(5)
S1B S 1.2195(2) -0.1861(1) -0.8615(1)
C1B C 1.4121(7) -0.1744(6) -0.8531(6)
C2B C 1.4696(6) -0.0446(6) -0.8338(6)
S2B S 1.4593(2) 0.0196(1) -0.6675(1)
C4B C 1.2872(6) -0.0235(5) -0.6460(5)
S4B S 1.2220(2) 0.0450(1) -0.5099(1)
H3B H 1.4156 0.0069 -0.8993
H4B H 1.5675 -0.0449 -0.8473
H1B H 1.4376 -0.2058 -0.9347
H2B H 1.4559 -0.2231 -0.7797
Br1B Br 1.13863(7) 0.14504(5) 0.02494(6)
Cu1B Cu 1.10773(9) -0.07115(7) -0.05096(7)
Br2B Br 1.23071(6) -0.15846(6) -0.21914(6)
Cu1B_2 Cu 1.10773(9) -0.07115(7) -1.05096(7)
S1B_2 S 1.2195(2) -0.1861(1) 0.1385(1)
loop_
_geom_bond_atom_site_label_1
_geom_bond_atom_site_label_2
_geom_bond_site_symmetry_1
_geom_bond_site_symmetry_2
Br1 Cu1 1_555 1_555
Br2 Cu1 1_555 1_555
Cu1 S1 1_555 1_555
S1 C1 1_555 1_555
S2 C2 1_555 1_555
S3 C3 1_555 1_555
S4 C4 1_555 1_555
C1 C2 1_555 1_555
C2 H3 1_555 1_555
C3 S1 1_555 1_555
C4 S2 1_555 1_555
C5 S3 1_555 1_555
H1 C1 1_555 1_555
H2 C1 1_555 1_555
H4 C2 1_555 1_555
C5B C5 1_555 1_555
S3B C5B 1_555 1_555
C3B S3B 1_555 1_555
S1B C3B 1_555 1_555
C1B S1B 1_555 1_555
C2B C1B 1_555 1_555
S2B C2B 1_555 1_555
C4B C3B 1_555 1_555
S4B C5B 1_555 1_555
H3B C2B 1_555 1_555
H4B C2B 1_555 1_555
H1B C1B 1_555 1_555
H2B C1B 1_555 1_555
Br1B Cu1 1_555 1_555
Cu1B Br1 1_555 1_555
Br2B Cu1B 1_555 1_555
Cu1B_2 S1B 1_555 1_555
S1B_2 Cu1B 1_555 1_555
S4 C5 1_555 1_555
C3 C4 1_555 1_555
S2B C4B 1_555 1_555
C4B S4B 1_555 1_555
Br1B Cu1B 1_555 1_555

#END
