
#######################################################################
#
#                 Cambridge Crystallographic Data Centre
#                                CCDC 
#
#######################################################################
#
# If this CIF has been generated from an entry in the Cambridge 
# Structural Database, then it will include bibliographic, chemical, 
# crystal, experimental, refinement or atomic coordinate data resulting 
# from the CCDC's data processing and validation procedures.
#
#######################################################################

data_AXEBEL
_symmetry_cell_setting           monoclinic
_symmetry_space_group_name_H-M   'C 2/c'
_symmetry_Int_Tables_number      15
_space_group_name_Hall           '-C 2yn'
loop_
_symmetry_equiv_pos_site_id
_symmetry_equiv_pos_as_xyz
1 x,y,z
2 -x,y,1/2-z
3 1/2+x,1/2+y,z
4 1/2-x,1/2+y,1/2-z
5 -x,-y,-z
6 x,-y,1/2+z
7 1/2-x,1/2-y,-z
8 1/2+x,1/2-y,1/2+z
_cell_length_a                   61.085(12)
_cell_length_b                   16.012(3)
_cell_length_c                   29.312(6)
_cell_angle_alpha                90
_cell_angle_beta                 112.89(3)
_cell_angle_gamma                90
_cell_volume                     26412.2
loop_
_atom_site_label
_atom_site_type_symbol
_atom_site_fract_x
_atom_site_fract_y
_atom_site_fract_z
Na4 Na 0.42559(5) -0.25556(19) 0.51795(14)
O49 O 0.40379(10) -0.1694(4) 0.5524(3)
C71 C 0.41291(17) -0.1341(8) 0.5989(4)
H84 H 0.4276 -0.1028 0.6035
H85 H 0.4170 -0.1784 0.6244
C72 C 0.3958(2) -0.0793(8) 0.6042(4)
H86 H 0.3880 -0.1053 0.6247
H87 H 0.4033 -0.0262 0.6198
C73 C 0.3791(2) -0.0654(6) 0.5554(4)
H88 H 0.3834 -0.0155 0.5407
H89 H 0.3629 -0.0580 0.5548
C74 C 0.38067(17) -0.1405(7) 0.5294(4)
H90 H 0.3693 -0.1829 0.5314
H91 H 0.3770 -0.1280 0.4941
O50 O 0.45767(10) -0.2589(4) 0.6007(2)
C75 C 0.47587(17) -0.2026(6) 0.6241(4)
H92 H 0.4692 -0.1502 0.6313
H93 H 0.4843 -0.1891 0.6022
C76 C 0.49257(16) -0.2390(6) 0.6703(4)
H94 H 0.5056 -0.2691 0.6651
H95 H 0.4994 -0.1959 0.6961
C77 C 0.47776(18) -0.2947(6) 0.6827(3)
H96 H 0.4693 -0.2656 0.7009
H97 H 0.4870 -0.3417 0.7031
C78 C 0.46109(19) -0.3238(6) 0.6343(4)
H98 H 0.4676 -0.3733 0.6237
H99 H 0.4458 -0.3397 0.6361
O51 O 0.44409(12) -0.1376(4) 0.4972(3)
C79 C 0.4558(3) -0.1381(6) 0.4652(5)
H100 H 0.4449 -0.1573 0.4320
H101 H 0.4694 -0.1774 0.4775
C80 C 0.4641(2) -0.0576(7) 0.4614(5)
H102 H 0.4543 -0.0322 0.4291
H103 H 0.4808 -0.0599 0.4644
C81 C 0.4624(2) -0.0108(7) 0.5007(5)
H104 H 0.4554 0.0449 0.4888
H105 H 0.4782 -0.0031 0.5275
C82 C 0.4473(2) -0.0576(6) 0.5181(4)
H106 H 0.4546 -0.0618 0.5547
H107 H 0.4317 -0.0293 0.5087
O52 O 0.39279(11) -0.2539(5) 0.4357(3)
C83 C 0.3950(2) -0.2349(9) 0.3916(4)
H108 H 0.4108 -0.2532 0.3933
H109 H 0.3938 -0.1738 0.3862
C84 C 0.3768(3) -0.2760(14) 0.3516(4)
H110 H 0.3695 -0.2373 0.3234
H111 H 0.3834 -0.3246 0.3402
C85 C 0.3602(2) -0.3017(10) 0.3701(4)
H112 H 0.3558 -0.3608 0.3612
H113 H 0.3457 -0.2669 0.3564
C86 C 0.37122(19) -0.2925(10) 0.4224(4)
H114 H 0.3608 -0.2590 0.4342
H115 H 0.3734 -0.3481 0.4383
O53 O 0.40912(12) -0.3820(4) 0.5375(3)
C87 C 0.39255(19) -0.3909(7) 0.5581(6)
H116 H 0.3800 -0.3479 0.5448
H117 H 0.4002 -0.3841 0.5945
C88 C 0.38242(19) -0.4724(7) 0.5462(7)
H118 H 0.3787 -0.4952 0.5737
H119 H 0.3676 -0.4707 0.5159
C89 C 0.3996(2) -0.5206(6) 0.5385(6)
H120 H 0.3924 -0.5529 0.5074
H121 H 0.4069 -0.5601 0.5663
C90 C 0.4167(2) -0.4639(6) 0.5356(7)
H122 H 0.4321 -0.4736 0.5635
H123 H 0.4190 -0.4727 0.5043
O54 O 0.44684(10) -0.3411(4) 0.4835(3)
C91 C 0.44011(17) -0.3961(6) 0.4437(4)
H124 H 0.4395 -0.3671 0.4134
H125 H 0.4242 -0.4200 0.4374
C92 C 0.4582(2) -0.4620(6) 0.4577(6)
H126 H 0.4532 -0.5106 0.4721
H127 H 0.4614 -0.4810 0.4286
C93 C 0.4787(2) -0.4229(8) 0.4936(7)
H128 H 0.4856 -0.4586 0.5233
H129 H 0.4910 -0.4143 0.4797
C94 C 0.47170(16) -0.3460(8) 0.5062(6)
H130 H 0.4790 -0.2998 0.4946
H131 H 0.4769 -0.3416 0.5426
Ga1 Ga 0.474285(14) -0.12664(5) 0.26459(3)
Ga2 Ga 0.476151(15) -0.23920(5) 0.16629(4)
Ga3 Ga 0.478055(15) -0.33168(5) 0.26225(4)
Ga4 Ga 0.225410(15) 0.16169(5) 0.02151(4)
Ga5 Ga 0.280083(16) 0.22709(7) 0.07755(4)
Ga6 Ga 0.26389(2) 0.13745(6) -0.03108(5)
O1 O 0.5000 -0.0802(4) 0.2500
H1 H 0.5000 -0.0208 0.2500
O2 O 0.46514(11) -0.1984(5) 0.2124(3)
H2 H 0.4501 -0.2221 0.2074
O3 O 0.49305(11) -0.1990(5) 0.3119(4)
H3 H 0.4847 -0.2224 0.3303
O4 O 0.48672(11) -0.3409(4) 0.2035(3)
O5 O 0.25384(17) 0.1292(7) 0.0220(5)
O6 O 0.2746(2) 0.3595(9) 0.0491(5)
O7 O 0.25079(14) 0.2687(6) 0.0674(4)
O8 O 0.28520(15) 0.2503(6) 0.0230(5)
Cr1 Cr 0.44620(2) -0.03103(7) 0.27931(6)
Cr2 Cr 0.45123(5) -0.20657(18) 0.08516(12)
Cr3 Cr 0.45007(2) -0.41304(8) 0.28331(6)
Cr4 Cr 0.20036(3) 0.08680(10) 0.05487(7)
Cr5 Cr 0.30909(3) 0.19141(10) 0.15929(7)
Cr6 Cr 0.21698(4) 0.46739(10) 0.06249(8)
Na1 Na 0.38596(6) -0.2379(2) 0.15231(17)
Na2 Na 0.39114(6) 0.19894(19) 0.31955(15)
Na3 Na 0.23866(9) 0.2690(3) 0.2114(2)
O9 O 0.48920(13) 0.0194(4) 0.3692(3)
O10 O 0.46130(13) 0.0975(4) 0.2209(3)
O11 O 0.41291(10) -0.1078(3) 0.1824(2)
O12 O 0.43530(14) -0.1697(4) 0.3372(3)
O13 O 0.41099(11) 0.0800(4) 0.2974(3)
C1 C 0.47271(17) 0.0005(5) 0.3366(4)
C2 C 0.45482(16) 0.0471(5) 0.2437(4)
C3 C 0.42498(14) -0.0788(4) 0.2189(4)
C4 C 0.43984(16) -0.1183(6) 0.3157(4)
C5 C 0.42481(16) 0.0370(5) 0.2903(4)
O14 O 0.4488(3) -0.0338(8) 0.1258(6)
C6 C 0.4478(3) -0.0981(11) 0.1078(8)
O15 O 0.4191(2) -0.2816(9) 0.1301(6)
C7 C 0.4295(4) -0.2463(13) 0.1074(9)
O16 O 0.4957(3) -0.1569(9) 0.0684(8)
C8 C 0.4785(3) -0.1730(12) 0.0759(7)
O17 O 0.4625(3) -0.3855(11) 0.0632(10)
C9 C 0.4584(4) -0.3205(18) 0.0673(11)
O18 O 0.4142(3) -0.1670(14) -0.0140(8)
C10 C 0.4288(4) -0.1864(16) 0.0238(9)
O19 O 0.41465(10) -0.2742(4) 0.2349(3)
O20 O 0.41411(13) -0.4982(5) 0.3142(4)
O21 O 0.43864(15) -0.4930(4) 0.1831(4)
O22 O 0.48720(17) -0.5482(5) 0.3258(5)
O23 O 0.47405(14) -0.3178(5) 0.3787(3)
C11 C 0.42855(15) -0.3270(5) 0.2543(4)
C12 C 0.42811(17) -0.4665(6) 0.3019(4)
C13 C 0.44164(19) -0.4631(6) 0.2219(6)
C14 C 0.47276(19) -0.4974(6) 0.3106(5)
C15 C 0.46455(17) -0.3538(6) 0.3414(5)
O24 O 0.16259(14) 0.1761(7) -0.0283(5)
O25 O 0.16721(14) -0.0030(6) 0.0906(4)
O26 O 0.24495(15) 0.0096(5) 0.1288(4)
O27 O 0.19950(19) -0.0482(6) -0.0154(4)
O28 O 0.21062(15) 0.2277(5) 0.1297(3)
O29 O 0.34786(12) 0.1644(4) 0.2580(3)
O30 O 0.26678(13) 0.1949(4) 0.1875(3)
O31 O 0.31283(15) 0.3764(5) 0.1710(4)
O32 O 0.34177(13) 0.1815(6) 0.1044(4)
O33 O 0.29753(15) 0.0060(5) 0.1375(5)
O34 O 0.17686(15) 0.3491(6) 0.0474(5)
O35 O 0.2613(2) 0.5633(6) 0.0750(5)
O36 O 0.1954(2) 0.5985(6) 0.1048(6)
O37 O 0.1907(2) 0.5142(8) -0.0439(5)
O38 O 0.24506(17) 0.3852(5) 0.1591(3)
C16 C 0.17623(19) 0.1417(9) 0.0063(6)
C17 C 0.18006(18) 0.0321(7) 0.0781(5)
C18 C 0.22793(16) 0.0393(6) 0.1016(4)
C19 C 0.1989(2) 0.0051(8) 0.0110(5)
C20 C 0.20668(19) 0.1745(7) 0.1000(5)
C21 C 0.33238(17) 0.1731(6) 0.2197(4)
C22 C 0.28366(18) 0.1906(6) 0.1782(4)
C23 C 0.31232(19) 0.2962(9) 0.1671(5)
C24 C 0.32971(18) 0.1847(9) 0.1265(4)
C25 C 0.30179(17) 0.0764(7) 0.1465(5)
C26 C 0.1917(2) 0.3967(8) 0.0518(8)
C27 C 0.2422(3) 0.5305(9) 0.0665(7)
C28 C 0.2033(3) 0.5449(8) 0.0831(9)
C29 C 0.2007(3) 0.4994(8) -0.0042(6)
C30 C 0.2341(2) 0.4193(8) 0.1218(6)
O39 O 0.36597(12) -0.3579(4) 0.1596(5)
C31 C 0.34161(19) -0.3648(8) 0.1360(11)
H4 H 0.3367 -0.3494 0.1007
H5 H 0.3339 -0.3257 0.1512
C32 C 0.3343(2) -0.4456(8) 0.1394(8)
H6 H 0.3218 -0.4454 0.1530
H7 H 0.3278 -0.4721 0.1063
C33 C 0.35387(19) -0.4885(8) 0.1703(9)
H8 H 0.3557 -0.5417 0.1549
H9 H 0.3525 -0.5009 0.2022
C34 C 0.37311(19) -0.4357(7) 0.1775(8)
H10 H 0.3831 -0.4322 0.2133
H11 H 0.3829 -0.4596 0.1607
O40 O 0.36113(13) -0.1543(4) 0.1756(3)
C35 C 0.3617(3) -0.1522(7) 0.2235(4)
H12 H 0.3752 -0.1861 0.2457
H13 H 0.3468 -0.1764 0.2238
C36 C 0.3642(4) -0.0679(8) 0.2412(5)
H14 H 0.3514 -0.0538 0.2526
H15 H 0.3797 -0.0601 0.2690
C37 C 0.3626(2) -0.0180(6) 0.2011(4)
H16 H 0.3783 0.0068 0.2063
H17 H 0.3510 0.0277 0.1963
C38 C 0.3549(2) -0.0729(6) 0.1592(4)
H18 H 0.3375 -0.0686 0.1412
H19 H 0.3626 -0.0569 0.1362
O41 O 0.36361(11) -0.2203(5) 0.0670(3)
C39 C 0.3408(2) -0.1897(8) 0.0436(6)
H20 H 0.3411 -0.1348 0.0284
H21 H 0.3332 -0.1828 0.0677
C40 C 0.32796(18) -0.2494(10) 0.0062(6)
H22 H 0.3211 -0.2937 0.0202
H23 H 0.3149 -0.2218 -0.0213
C41 C 0.3448(2) -0.2830(11) -0.0103(5)
H24 H 0.3449 -0.2527 -0.0397
H25 H 0.3418 -0.3431 -0.0185
C42 C 0.3663(2) -0.2709(13) 0.0312(5)
H26 H 0.3726 -0.3259 0.0460
H27 H 0.3782 -0.2454 0.0201
O42 O 0.27130(13) 0.3005(7) 0.2855(3)
C43 C 0.2940(2) 0.2663(13) 0.3030(5)
H28 H 0.2933 0.2046 0.3009
H29 H 0.3031 0.2874 0.2839
C44 C 0.3045(2) 0.2931(13) 0.3533(5)
H30 H 0.3133 0.3460 0.3557
H31 H 0.3158 0.2504 0.3737
C45 C 0.2861(3) 0.3048(13) 0.3699(5)
H32 H 0.2805 0.2513 0.3785
H33 H 0.2906 0.3436 0.3983
C46 C 0.2691(3) 0.3403(13) 0.3262(5)
H34 H 0.2720 0.4010 0.3253
H35 H 0.2529 0.3322 0.3254
O43 O 0.22549(19) 0.1602(6) 0.2418(4)
C47 C 0.2135(3) 0.0900(10) 0.2170(5)
H36 H 0.2014 0.1050 0.1841
H37 H 0.2247 0.0492 0.2124
C48 C 0.2027(3) 0.0568(14) 0.2485(5)
H38 H 0.1985 -0.0028 0.2412
H39 H 0.1883 0.0886 0.2453
C49 C 0.2204(3) 0.0668(10) 0.2944(5)
H40 H 0.2137 0.0740 0.3198
H41 H 0.2311 0.0177 0.3032
C50 C 0.2329(5) 0.1396(16) 0.2908(5)
H42 H 0.2502 0.1288 0.3049
H43 H 0.2296 0.1860 0.3095
O44 O 0.21356(15) 0.3656(5) 0.2289(5)
C51 C 0.1906(2) 0.3752(8) 0.1973(8)
H44 H 0.1878 0.3464 0.1657
H45 H 0.1799 0.3507 0.2119
C52 C 0.1861(4) 0.4612(9) 0.1891(7)
H46 H 0.1693 0.4739 0.1831
H47 H 0.1893 0.4799 0.1601
C53 C 0.2012(3) 0.4992(7) 0.2313(7)
H48 H 0.2083 0.5499 0.2233
H49 H 0.1927 0.5152 0.2527
C54 C 0.2188(3) 0.4389(9) 0.2549(6)
H50 H 0.2197 0.4292 0.2889
H51 H 0.2344 0.4597 0.2571
O45 O 0.37299(14) 0.3183(4) 0.3385(3)
C55 C 0.3628(3) 0.3802(6) 0.3036(4)
H52 H 0.3463 0.3642 0.2822
H53 H 0.3719 0.3869 0.2824
C56 C 0.3626(2) 0.4585(6) 0.3286(4)
H54 H 0.3669 0.5061 0.3122
H55 H 0.3468 0.4693 0.3296
C57 C 0.3801(2) 0.4451(5) 0.3768(4)
H56 H 0.3765 0.4776 0.4019
H57 H 0.3961 0.4602 0.3786
C58 C 0.3782(2) 0.3559(6) 0.3837(4)
H58 H 0.3934 0.3340 0.4082
H59 H 0.3655 0.3445 0.3958
O46 O 0.39891(12) 0.2606(5) 0.2569(3)
C59 C 0.42234(19) 0.2738(14) 0.2610(5)
H60 H 0.4314 0.2209 0.2705
H61 H 0.4302 0.3155 0.2872
C60 C 0.4225(2) 0.3024(11) 0.2156(6)
H62 H 0.4343 0.3477 0.2210
H63 H 0.4262 0.2564 0.1972
C61 C 0.3993(2) 0.3319(11) 0.1903(7)
H64 H 0.3943 0.3251 0.1541
H65 H 0.3980 0.3915 0.1978
C62 C 0.3853(2) 0.2807(13) 0.2087(5)
H66 H 0.3709 0.3112 0.2067
H67 H 0.3803 0.2292 0.1885
O47 O 0.42953(11) 0.2345(4) 0.3771(3)
C63 C 0.44753(19) 0.1791(6) 0.4022(6)
H68 H 0.4492 0.1382 0.3785
H69 H 0.4433 0.1480 0.4268
C64 C 0.46900(16) 0.2197(6) 0.4262(6)
H70 H 0.4805 0.2037 0.4114
H71 H 0.4758 0.2046 0.4617
C65 C 0.46439(17) 0.3057(6) 0.4206(8)
H72 H 0.4732 0.3317 0.4021
H73 H 0.4692 0.3331 0.4533
C66 C 0.43942(18) 0.3134(6) 0.3936(7)
H74 H 0.4320 0.3382 0.4150
H75 H 0.4363 0.3508 0.3648
O48 O 0.38220(12) 0.1065(4) 0.3689(3)
C67 C 0.3900(2) 0.0258(6) 0.3816(5)
H76 H 0.4074 0.0259 0.4005
H77 H 0.3866 -0.0076 0.3512
C68 C 0.3787(3) -0.0114(7) 0.4107(6)
H78 H 0.3663 -0.0513 0.3906
H79 H 0.3904 -0.0418 0.4392
C69 C 0.3688(3) 0.0529(8) 0.4269(5)
H80 H 0.3794 0.0717 0.4603
H81 H 0.3533 0.0363 0.4276
C70 C 0.3657(3) 0.1182(9) 0.3899(6)
H82 H 0.3495 0.1156 0.3639
H83 H 0.3680 0.1738 0.4058
Ga1A Ga 0.525715(14) -0.12664(5) 0.23541(3)
Ga2A Ga 0.523849(15) -0.23920(5) 0.33371(4)
Ga3A Ga 0.521945(15) -0.33168(5) 0.23775(4)
Ga4F Ga 0.274590(15) 0.33831(5) -0.02151(4)
Ga4A Ga 0.774590(15) 0.16169(5) 0.47849(4)
Ga5A Ga 0.719917(16) 0.22709(7) 0.42245(4)
Ga5F Ga 0.219917(16) 0.27291(7) -0.07755(4)
Ga6F Ga 0.23611(2) 0.36255(6) 0.03108(5)
Ga6G Ga 0.76389(2) 0.36255(6) 0.46892(5)
O2A O 0.53486(11) -0.1984(5) 0.2876(3)
H2A H 0.5499 -0.2221 0.2926
O3A O 0.50695(11) -0.1990(5) 0.1881(4)
H3A H 0.5153 -0.2224 0.1697
O4A O 0.51328(11) -0.3409(4) 0.2965(3)
O5F O 0.24616(17) 0.3708(7) -0.0220(5)
O5A O 0.74616(17) 0.1292(7) 0.4780(5)
O6F O 0.2254(2) 0.1405(9) -0.0491(5)
O6A O 0.7254(2) 0.3595(9) 0.4509(5)
O7F O 0.24921(14) 0.2313(6) -0.0674(4)
O7A O 0.74921(14) 0.2687(6) 0.4326(4)
O8F O 0.21480(15) 0.2497(6) -0.0230(5)
O8A O 0.71480(15) 0.2503(6) 0.4770(5)
Cr1A Cr 0.55380(2) -0.03103(7) 0.22069(6)
Cr2A Cr 0.54877(5) -0.20657(18) 0.41484(12)
Cr3A Cr 0.54993(2) -0.41304(8) 0.21669(6)
Cr4A Cr 0.79964(3) 0.08680(10) 0.44513(7)
Cr4F Cr 0.29964(3) 0.41320(10) -0.05487(7)
Cr5A Cr 0.69091(3) 0.19141(10) 0.34071(7)
Cr6A Cr 0.78302(4) 0.46739(10) 0.43751(8)
Cr6F Cr 0.28302(4) 0.03261(10) -0.06249(8)
Na1A Na 0.61404(6) -0.2379(2) 0.34769(17)
Na2A Na 0.60886(6) 0.19894(19) 0.18045(15)
Na3A Na 0.76134(9) 0.2690(3) 0.2886(2)
O9A O 0.51080(13) 0.0194(4) 0.1308(3)
O10A O 0.53870(13) 0.0975(4) 0.2791(3)
O11A O 0.58709(10) -0.1078(3) 0.3176(2)
O12A O 0.56470(14) -0.1697(4) 0.1628(3)
O13A O 0.58901(11) 0.0800(4) 0.2026(3)
C1A C 0.52729(17) 0.0005(5) 0.1634(4)
C2A C 0.54518(16) 0.0471(5) 0.2563(4)
C3A C 0.57502(14) -0.0788(4) 0.2811(4)
C4A C 0.56016(16) -0.1183(6) 0.1843(4)
C5A C 0.57519(16) 0.0370(5) 0.2097(4)
O14A O 0.5512(3) -0.0338(8) 0.3742(6)
C6A C 0.5522(3) -0.0981(11) 0.3922(8)
O15A O 0.5809(2) -0.2816(9) 0.3699(6)
C7A C 0.5705(4) -0.2463(13) 0.3926(9)
O16A O 0.5043(3) -0.1569(9) 0.4316(8)
C8A C 0.5215(3) -0.1730(12) 0.4241(7)
O17A O 0.5375(3) -0.3855(11) 0.4368(10)
C9A C 0.5416(4) -0.3205(18) 0.4327(11)
O18A O 0.5858(3) -0.1670(14) 0.5140(8)
C10A C 0.5712(4) -0.1864(16) 0.4762(9)
O19A O 0.58535(10) -0.2742(4) 0.2651(3)
O20A O 0.58589(13) -0.4982(5) 0.1858(4)
O21A O 0.56136(15) -0.4930(4) 0.3169(4)
O22A O 0.51280(17) -0.5482(5) 0.1742(5)
O23A O 0.52595(14) -0.3178(5) 0.1213(3)
C11A C 0.57145(15) -0.3270(5) 0.2457(4)
C12A C 0.57189(17) -0.4665(6) 0.1981(4)
C13A C 0.55836(19) -0.4631(6) 0.2781(6)
C14A C 0.52724(19) -0.4974(6) 0.1894(5)
C15A C 0.53545(17) -0.3538(6) 0.1586(5)
O24A O 0.83741(14) 0.1761(7) 0.5283(5)
O25A O 0.83279(14) -0.0030(6) 0.4094(4)
O26A O 0.75505(15) 0.0096(5) 0.3712(4)
O27A O 0.80050(19) -0.0482(6) 0.5154(4)
O28A O 0.78938(15) 0.2277(5) 0.3703(3)
O29A O 0.65214(12) 0.1644(4) 0.2420(3)
O30A O 0.73322(13) 0.1949(4) 0.3125(3)
O31A O 0.68717(15) 0.3764(5) 0.3290(4)
O32A O 0.65823(13) 0.1815(6) 0.3956(4)
O33A O 0.70247(15) 0.0060(5) 0.3625(5)
O34A O 0.82314(15) 0.3491(6) 0.4526(5)
O35A O 0.7387(2) 0.5633(6) 0.4250(5)
O36A O 0.8046(2) 0.5985(6) 0.3952(6)
O37A O 0.8093(2) 0.5142(8) 0.5439(5)
O38A O 0.75494(17) 0.3852(5) 0.3409(3)
C16A C 0.82377(19) 0.1417(9) 0.4937(6)
C17A C 0.81994(18) 0.0321(7) 0.4219(5)
C18A C 0.77207(16) 0.0393(6) 0.3984(4)
C19A C 0.8011(2) 0.0051(8) 0.4890(5)
C20A C 0.79332(19) 0.1745(7) 0.4000(5)
C21A C 0.66762(17) 0.1731(6) 0.2803(4)
C22A C 0.71634(18) 0.1906(6) 0.3218(4)
C23A C 0.68768(19) 0.2962(9) 0.3329(5)
C24A C 0.67029(18) 0.1847(9) 0.3735(4)
C25A C 0.69821(17) 0.0764(7) 0.3535(5)
C26A C 0.8083(2) 0.3967(8) 0.4482(8)
C27A C 0.7578(3) 0.5305(9) 0.4335(7)
C28A C 0.7967(3) 0.5449(8) 0.4169(9)
C29A C 0.7993(3) 0.4994(8) 0.5042(6)
C30A C 0.7659(2) 0.4193(8) 0.3782(6)
O39A O 0.63403(12) -0.3579(4) 0.3404(5)
C31A C 0.65839(19) -0.3648(8) 0.3640(11)
H4A H 0.6633 -0.3494 0.3993
H5A H 0.6661 -0.3257 0.3488
C32A C 0.6657(2) -0.4456(8) 0.3606(8)
H6A H 0.6782 -0.4454 0.3470
H7A H 0.6722 -0.4721 0.3937
C33A C 0.64613(19) -0.4885(8) 0.3297(9)
H8A H 0.6443 -0.5417 0.3451
H9A H 0.6475 -0.5009 0.2978
C34A C 0.62689(19) -0.4357(7) 0.3225(8)
H10A H 0.6169 -0.4322 0.2867
H11A H 0.6171 -0.4596 0.3393
O40A O 0.63887(13) -0.1543(4) 0.3244(3)
C35A C 0.6383(3) -0.1522(7) 0.2765(4)
H12A H 0.6248 -0.1861 0.2543
H13A H 0.6532 -0.1764 0.2762
C36A C 0.6358(4) -0.0679(8) 0.2588(5)
H14A H 0.6486 -0.0538 0.2474
H15A H 0.6203 -0.0601 0.2310
C37A C 0.6374(2) -0.0180(6) 0.2989(4)
H16A H 0.6217 0.0068 0.2937
H17A H 0.6490 0.0277 0.3037
C38A C 0.6451(2) -0.0729(6) 0.3408(4)
H18A H 0.6625 -0.0686 0.3588
H19A H 0.6374 -0.0569 0.3638
O41A O 0.63639(11) -0.2203(5) 0.4330(3)
C39A C 0.6592(2) -0.1897(8) 0.4564(6)
H20A H 0.6589 -0.1348 0.4716
H21A H 0.6668 -0.1828 0.4323
C40A C 0.67204(18) -0.2494(10) 0.4938(6)
H22A H 0.6789 -0.2937 0.4798
H23A H 0.6851 -0.2218 0.5213
C41A C 0.6552(2) -0.2830(11) 0.5103(5)
H24A H 0.6551 -0.2527 0.5397
H25A H 0.6582 -0.3431 0.5185
C42A C 0.6337(2) -0.2709(13) 0.4688(5)
H26A H 0.6274 -0.3259 0.4540
H27A H 0.6218 -0.2454 0.4799
O42A O 0.72870(13) 0.3005(7) 0.2145(3)
C43A C 0.7060(2) 0.2663(13) 0.1970(5)
H28A H 0.7067 0.2046 0.1991
H29A H 0.6969 0.2874 0.2161
C44A C 0.6955(2) 0.2931(13) 0.1467(5)
H30A H 0.6867 0.3460 0.1443
H31A H 0.6842 0.2504 0.1263
C45A C 0.7139(3) 0.3048(13) 0.1301(5)
H32A H 0.7195 0.2513 0.1215
H33A H 0.7094 0.3436 0.1017
C46A C 0.7309(3) 0.3403(13) 0.1738(5)
H34A H 0.7280 0.4010 0.1747
H35A H 0.7471 0.3322 0.1746
O43A O 0.77451(19) 0.1602(6) 0.2582(4)
C47A C 0.7865(3) 0.0900(10) 0.2830(5)
H36A H 0.7986 0.1050 0.3159
H37A H 0.7753 0.0492 0.2876
C48A C 0.7973(3) 0.0568(14) 0.2515(5)
H38A H 0.8015 -0.0028 0.2588
H39A H 0.8117 0.0886 0.2547
C49A C 0.7796(3) 0.0668(10) 0.2056(5)
H40A H 0.7863 0.0740 0.1802
H41A H 0.7689 0.0177 0.1968
C50A C 0.7671(5) 0.1396(16) 0.2092(5)
H42A H 0.7498 0.1288 0.1951
H43A H 0.7704 0.1860 0.1905
O44A O 0.78644(15) 0.3656(5) 0.2711(5)
C51A C 0.8094(2) 0.3752(8) 0.3027(8)
H44A H 0.8122 0.3464 0.3343
H45A H 0.8201 0.3507 0.2881
C52A C 0.8139(4) 0.4612(9) 0.3109(7)
H46A H 0.8307 0.4739 0.3169
H47A H 0.8107 0.4799 0.3399
C53A C 0.7988(3) 0.4992(7) 0.2687(7)
H48A H 0.7917 0.5499 0.2767
H49A H 0.8073 0.5152 0.2473
C54A C 0.7812(3) 0.4389(9) 0.2451(6)
H50A H 0.7803 0.4292 0.2111
H51A H 0.7656 0.4597 0.2429
O45A O 0.62701(14) 0.3183(4) 0.1615(3)
C55A C 0.6372(3) 0.3802(6) 0.1964(4)
H52A H 0.6537 0.3642 0.2178
H53A H 0.6281 0.3869 0.2176
C56A C 0.6374(2) 0.4585(6) 0.1714(4)
H54A H 0.6331 0.5061 0.1878
H55A H 0.6532 0.4693 0.1704
C57A C 0.6199(2) 0.4451(5) 0.1232(4)
H56A H 0.6235 0.4776 0.0981
H57A H 0.6039 0.4602 0.1214
C58A C 0.6218(2) 0.3559(6) 0.1163(4)
H58A H 0.6066 0.3340 0.0918
H59A H 0.6345 0.3445 0.1042
O46A O 0.60109(12) 0.2606(5) 0.2431(3)
C59A C 0.57766(19) 0.2738(14) 0.2390(5)
H60A H 0.5686 0.2209 0.2295
H61A H 0.5698 0.3155 0.2128
C60A C 0.5775(2) 0.3024(11) 0.2844(6)
H62A H 0.5657 0.3477 0.2790
H63A H 0.5738 0.2564 0.3028
C61A C 0.6007(2) 0.3319(11) 0.3097(7)
H64A H 0.6057 0.3251 0.3459
H65A H 0.6020 0.3915 0.3022
C62A C 0.6147(2) 0.2807(13) 0.2913(5)
H66A H 0.6291 0.3112 0.2933
H67A H 0.6197 0.2292 0.3115
O47A O 0.57047(11) 0.2345(4) 0.1229(3)
C63A C 0.55247(19) 0.1791(6) 0.0978(6)
H68A H 0.5508 0.1382 0.1215
H69A H 0.5567 0.1480 0.0732
C64A C 0.53100(16) 0.2197(6) 0.0738(6)
H70A H 0.5195 0.2037 0.0886
H71A H 0.5242 0.2046 0.0383
C65A C 0.53561(17) 0.3057(6) 0.0794(8)
H72A H 0.5268 0.3317 0.0979
H73A H 0.5308 0.3331 0.0467
C66A C 0.56058(18) 0.3134(6) 0.1064(7)
H74A H 0.5680 0.3382 0.0850
H75A H 0.5637 0.3508 0.1352
O48A O 0.61780(12) 0.1065(4) 0.1311(3)
C67A C 0.6100(2) 0.0258(6) 0.1184(5)
H76A H 0.5926 0.0259 0.0995
H77A H 0.6134 -0.0076 0.1488
C68A C 0.6213(3) -0.0114(7) 0.0893(6)
H78A H 0.6337 -0.0513 0.1094
H79A H 0.6096 -0.0418 0.0608
C69A C 0.6312(3) 0.0529(8) 0.0731(5)
H80A H 0.6206 0.0717 0.0397
H81A H 0.6467 0.0363 0.0724
C70A C 0.6343(3) 0.1182(9) 0.1101(6)
H82A H 0.6505 0.1156 0.1361
H83A H 0.6320 0.1738 0.0942
C95? C 0.4723(3) -0.2309(13) 0.0603(8)
C96? C 0.4356(3) -0.1659(14) 0.0758(11)
C97? C 0.4663(5) -0.3882(17) 0.0896(9)
C98? C 0.4287(4) -0.2974(17) 0.1115(10)
C99? C 0.4277(4) -0.3183(18) 0.0174(10)
Cr7? Cr 0.44846(5) -0.2791(2) 0.07857(12)
O55? O 0.4874(3) -0.1990(12) 0.0510(8)
O56? O 0.4277(3) -0.1075(11) 0.0714(8)
O57? O 0.4733(3) -0.4491(9) 0.0983(8)
O58? O 0.4140(2) -0.3142(9) 0.1250(6)
O59? O 0.4143(3) -0.3372(13) -0.0220(7)
loop_
_geom_bond_atom_site_label_1
_geom_bond_atom_site_label_2
_geom_bond_site_symmetry_1
_geom_bond_site_symmetry_2
Ga1 O1 1_555 1_555
Ga2 O2 1_555 1_555
Ga3 O4 1_555 1_555
Ga4 O5 1_555 1_555
Ga5 O5 1_555 1_555
Ga6 O5 1_555 1_555
O1 H1 1_555 1_555
O2 Ga1 1_555 1_555
H2 O2 1_555 1_555
O3 Ga1 1_555 1_555
H3 O3 1_555 1_555
O4 Ga2 1_555 1_555
O6 Ga5 1_555 1_555
O7 Ga4 1_555 1_555
O8 Ga5 1_555 1_555
Cr1 Ga1 1_555 1_555
Cr2 Ga2 1_555 1_555
Cr3 Ga3 1_555 1_555
Cr4 Ga4 1_555 1_555
Cr5 Ga5 1_555 1_555
Cr6 C26 1_555 1_555
Na1 O11 1_555 1_555
Na2 O13 1_555 1_555
Na3 O28 1_555 1_555
Na4 O49 1_555 1_555
O9 C1 1_555 1_555
O10 C2 1_555 1_555
O11 C3 1_555 1_555
O12 C4 1_555 1_555
O13 C5 1_555 1_555
C1 Cr1 1_555 1_555
C2 Cr1 1_555 1_555
C3 Cr1 1_555 1_555
C4 Cr1 1_555 1_555
C5 Cr1 1_555 1_555
O14 C6 1_555 1_555
C6 Cr2 1_555 1_555
O15 Na1 1_555 1_555
C7 Cr2 1_555 1_555
O16 C8 1_555 1_555
C8 Cr2 1_555 1_555
O17 C9 1_555 1_555
C9 Cr2 1_555 1_555
O18 C10 1_555 1_555
C10 Cr2 1_555 1_555
O19 Na1 1_555 1_555
O20 C12 1_555 1_555
O21 C13 1_555 1_555
O22 C14 1_555 1_555
O23 C15 1_555 1_555
C11 Cr3 1_555 1_555
C12 Cr3 1_555 1_555
C13 Cr3 1_555 1_555
C14 Cr3 1_555 1_555
C15 Cr3 1_555 1_555
O24 C16 1_555 1_555
O25 C17 1_555 1_555
O26 C18 1_555 1_555
O27 C19 1_555 1_555
O28 C20 1_555 1_555
O29 Na2 1_555 1_555
O30 Na3 1_555 1_555
O31 C23 1_555 1_555
O32 C24 1_555 1_555
O33 C25 1_555 1_555
O34 C26 1_555 1_555
O35 C27 1_555 1_555
O36 C28 1_555 1_555
O37 C29 1_555 1_555
O38 Na3 1_555 1_555
C16 Cr4 1_555 1_555
C17 Cr4 1_555 1_555
C18 Cr4 1_555 1_555
C19 Cr4 1_555 1_555
C20 Cr4 1_555 1_555
C21 Cr5 1_555 1_555
C22 Cr5 1_555 1_555
C23 Cr5 1_555 1_555
C24 Cr5 1_555 1_555
C25 Cr5 1_555 1_555
C27 Cr6 1_555 1_555
C28 Cr6 1_555 1_555
C29 Cr6 1_555 1_555
C30 Cr6 1_555 1_555
O39 Na1 1_555 1_555
C31 O39 1_555 1_555
H4 C31 1_555 1_555
H5 C31 1_555 1_555
C32 C31 1_555 1_555
H6 C32 1_555 1_555
H7 C32 1_555 1_555
C33 C32 1_555 1_555
H8 C33 1_555 1_555
H9 C33 1_555 1_555
C34 O39 1_555 1_555
H10 C34 1_555 1_555
H11 C34 1_555 1_555
O40 Na1 1_555 1_555
C35 O40 1_555 1_555
H12 C35 1_555 1_555
H13 C35 1_555 1_555
C36 C35 1_555 1_555
H14 C36 1_555 1_555
H15 C36 1_555 1_555
C37 C36 1_555 1_555
H16 C37 1_555 1_555
H17 C37 1_555 1_555
C38 O40 1_555 1_555
H18 C38 1_555 1_555
H19 C38 1_555 1_555
O41 Na1 1_555 1_555
C39 O41 1_555 1_555
H20 C39 1_555 1_555
H21 C39 1_555 1_555
C40 C39 1_555 1_555
H22 C40 1_555 1_555
H23 C40 1_555 1_555
C41 C40 1_555 1_555
H24 C41 1_555 1_555
H25 C41 1_555 1_555
C42 O41 1_555 1_555
H26 C42 1_555 1_555
H27 C42 1_555 1_555
O42 Na3 1_555 1_555
C43 O42 1_555 1_555
H28 C43 1_555 1_555
H29 C43 1_555 1_555
C44 C43 1_555 1_555
H30 C44 1_555 1_555
H31 C44 1_555 1_555
C45 C44 1_555 1_555
H32 C45 1_555 1_555
H33 C45 1_555 1_555
C46 O42 1_555 1_555
H34 C46 1_555 1_555
H35 C46 1_555 1_555
O43 Na3 1_555 1_555
C47 O43 1_555 1_555
H36 C47 1_555 1_555
H37 C47 1_555 1_555
C48 C47 1_555 1_555
H38 C48 1_555 1_555
H39 C48 1_555 1_555
C49 C48 1_555 1_555
H40 C49 1_555 1_555
H41 C49 1_555 1_555
C50 O43 1_555 1_555
H42 C50 1_555 1_555
H43 C50 1_555 1_555
O44 Na3 1_555 1_555
C51 O44 1_555 1_555
H44 C51 1_555 1_555
H45 C51 1_555 1_555
C52 C51 1_555 1_555
H46 C52 1_555 1_555
H47 C52 1_555 1_555
C53 C52 1_555 1_555
H48 C53 1_555 1_555
H49 C53 1_555 1_555
C54 O44 1_555 1_555
H50 C54 1_555 1_555
H51 C54 1_555 1_555
O45 Na2 1_555 1_555
C55 O45 1_555 1_555
H52 C55 1_555 1_555
H53 C55 1_555 1_555
C56 C55 1_555 1_555
H54 C56 1_555 1_555
H55 C56 1_555 1_555
C57 C56 1_555 1_555
H56 C57 1_555 1_555
H57 C57 1_555 1_555
C58 O45 1_555 1_555
H58 C58 1_555 1_555
H59 C58 1_555 1_555
O46 Na2 1_555 1_555
C59 O46 1_555 1_555
H60 C59 1_555 1_555
H61 C59 1_555 1_555
C60 C59 1_555 1_555
H62 C60 1_555 1_555
H63 C60 1_555 1_555
C61 C60 1_555 1_555
H64 C61 1_555 1_555
H65 C61 1_555 1_555
C62 O46 1_555 1_555
H66 C62 1_555 1_555
H67 C62 1_555 1_555
O47 Na2 1_555 1_555
C63 O47 1_555 1_555
H68 C63 1_555 1_555
H69 C63 1_555 1_555
C64 C63 1_555 1_555
H70 C64 1_555 1_555
H71 C64 1_555 1_555
C65 C64 1_555 1_555
H72 C65 1_555 1_555
H73 C65 1_555 1_555
C66 O47 1_555 1_555
H74 C66 1_555 1_555
H75 C66 1_555 1_555
O48 Na2 1_555 1_555
C67 O48 1_555 1_555
H76 C67 1_555 1_555
H77 C67 1_555 1_555
C68 C67 1_555 1_555
H78 C68 1_555 1_555
H79 C68 1_555 1_555
C69 C68 1_555 1_555
H80 C69 1_555 1_555
H81 C69 1_555 1_555
C70 O48 1_555 1_555
H82 C70 1_555 1_555
H83 C70 1_555 1_555
O49 C71 1_555 1_555
C71 H84 1_555 1_555
H85 C71 1_555 1_555
C72 C71 1_555 1_555
H86 C72 1_555 1_555
H87 C72 1_555 1_555
C73 C72 1_555 1_555
H88 C73 1_555 1_555
H89 C73 1_555 1_555
C74 O49 1_555 1_555
H90 C74 1_555 1_555
H91 C74 1_555 1_555
O50 Na4 1_555 1_555
C75 O50 1_555 1_555
H92 C75 1_555 1_555
H93 C75 1_555 1_555
C76 C75 1_555 1_555
H94 C76 1_555 1_555
H95 C76 1_555 1_555
C77 C76 1_555 1_555
H96 C77 1_555 1_555
H97 C77 1_555 1_555
C78 O50 1_555 1_555
H98 C78 1_555 1_555
H99 C78 1_555 1_555
O51 Na4 1_555 1_555
C79 O51 1_555 1_555
H100 C79 1_555 1_555
H101 C79 1_555 1_555
C80 C79 1_555 1_555
H102 C80 1_555 1_555
H103 C80 1_555 1_555
C81 C80 1_555 1_555
H104 C81 1_555 1_555
H105 C81 1_555 1_555
C82 O51 1_555 1_555
H106 C82 1_555 1_555
H107 C82 1_555 1_555
O52 Na4 1_555 1_555
C83 O52 1_555 1_555
H108 C83 1_555 1_555
H109 C83 1_555 1_555
C84 C83 1_555 1_555
H110 C84 1_555 1_555
H111 C84 1_555 1_555
C85 C84 1_555 1_555
H112 C85 1_555 1_555
H113 C85 1_555 1_555
C86 O52 1_555 1_555
H114 C86 1_555 1_555
H115 C86 1_555 1_555
O53 Na4 1_555 1_555
C87 O53 1_555 1_555
H116 C87 1_555 1_555
H117 C87 1_555 1_555
C88 C87 1_555 1_555
H118 C88 1_555 1_555
H119 C88 1_555 1_555
C89 C88 1_555 1_555
H120 C89 1_555 1_555
H121 C89 1_555 1_555
C90 O53 1_555 1_555
H122 C90 1_555 1_555
H123 C90 1_555 1_555
O54 Na4 1_555 1_555
C91 O54 1_555 1_555
H124 C91 1_555 1_555
H125 C91 1_555 1_555
C92 C91 1_555 1_555
H126 C92 1_555 1_555
H127 C92 1_555 1_555
C93 C92 1_555 1_555
H128 C93 1_555 1_555
H129 C93 1_555 1_555
C94 O54 1_555 1_555
H130 C94 1_555 1_555
H131 C94 1_555 1_555
Ga1A O1 1_555 1_555
Ga2A O3 1_555 1_555
Ga3A O4 1_555 1_555
Ga4F O6 1_555 1_555
Ga4A O5A 1_555 1_555
Ga5A O5A 1_555 1_555
Ga5F O5F 1_555 1_555
Ga6F O6 1_555 1_555
Ga6G O6A 1_555 1_555
O2A Ga1A 1_555 1_555
H2A O2A 1_555 1_555
O3A Ga2 1_555 1_555
H3A O3A 1_555 1_555
O4A Ga3 1_555 1_555
O5F Ga4F 1_555 1_555
O6F Ga4 1_555 1_555
O6A Ga5A 1_555 1_555
O7F Ga6 1_555 1_555
O7A Ga4A 1_555 1_555
O8F Ga4 1_555 1_555
O8A Ga5A 1_555 1_555
Cr1A Ga1A 1_555 1_555
Cr2A Ga2A 1_555 1_555
Cr3A Ga3A 1_555 1_555
Cr4A Ga4A 1_555 1_555
Cr4F Ga4F 1_555 1_555
Cr5A Ga5A 1_555 1_555
Cr6A Ga6G 1_555 1_555
Cr6F Ga6 1_555 1_555
Na1A O11A 1_555 1_555
Na2A O13A 1_555 1_555
Na3A O28A 1_555 1_555
O9A C1A 1_555 1_555
O10A C2A 1_555 1_555
O11A C3A 1_555 1_555
O12A C4A 1_555 1_555
O13A C5A 1_555 1_555
C1A Cr1A 1_555 1_555
C2A Cr1A 1_555 1_555
C3A Cr1A 1_555 1_555
C4A Cr1A 1_555 1_555
C5A Cr1A 1_555 1_555
O14A C6A 1_555 1_555
C6A Cr2A 1_555 1_555
O15A Na1A 1_555 1_555
C7A Cr2A 1_555 1_555
O16A C8A 1_555 1_555
C8A Cr2A 1_555 1_555
O17A C9A 1_555 1_555
C9A Cr2A 1_555 1_555
O18A C10A 1_555 1_555
C10A Cr2A 1_555 1_555
O19A Na1A 1_555 1_555
O20A C12A 1_555 1_555
O21A C13A 1_555 1_555
O22A C14A 1_555 1_555
O23A C15A 1_555 1_555
C11A Cr3A 1_555 1_555
C12A Cr3A 1_555 1_555
C13A Cr3A 1_555 1_555
C14A Cr3A 1_555 1_555
C15A Cr3A 1_555 1_555
O24A C16A 1_555 1_555
O25A C17A 1_555 1_555
O26A C18A 1_555 1_555
O27A C19A 1_555 1_555
O28A C20A 1_555 1_555
O29A Na2A 1_555 1_555
O30A Na3A 1_555 1_555
O31A C23A 1_555 1_555
O32A C24A 1_555 1_555
O33A C25A 1_555 1_555
O34A C26A 1_555 1_555
O35A C27A 1_555 1_555
O36A C28A 1_555 1_555
O37A C29A 1_555 1_555
O38A Na3A 1_555 1_555
C16A Cr4A 1_555 1_555
C17A Cr4A 1_555 1_555
C18A Cr4A 1_555 1_555
C19A Cr4A 1_555 1_555
C20A Cr4A 1_555 1_555
C21A Cr5A 1_555 1_555
C22A Cr5A 1_555 1_555
C23A Cr5A 1_555 1_555
C24A Cr5A 1_555 1_555
C25A Cr5A 1_555 1_555
C26A Cr6A 1_555 1_555
C27A Cr6A 1_555 1_555
C28A Cr6A 1_555 1_555
C29A Cr6A 1_555 1_555
C30A Cr6A 1_555 1_555
O39A Na1A 1_555 1_555
C31A O39A 1_555 1_555
H4A C31A 1_555 1_555
H5A C31A 1_555 1_555
C32A C31A 1_555 1_555
H6A C32A 1_555 1_555
H7A C32A 1_555 1_555
C33A C32A 1_555 1_555
H8A C33A 1_555 1_555
H9A C33A 1_555 1_555
C34A O39A 1_555 1_555
H10A C34A 1_555 1_555
H11A C34A 1_555 1_555
O40A Na1A 1_555 1_555
C35A O40A 1_555 1_555
H12A C35A 1_555 1_555
H13A C35A 1_555 1_555
C36A C35A 1_555 1_555
H14A C36A 1_555 1_555
H15A C36A 1_555 1_555
C37A C36A 1_555 1_555
H16A C37A 1_555 1_555
H17A C37A 1_555 1_555
C38A O40A 1_555 1_555
H18A C38A 1_555 1_555
H19A C38A 1_555 1_555
O41A Na1A 1_555 1_555
C39A O41A 1_555 1_555
H20A C39A 1_555 1_555
H21A C39A 1_555 1_555
C40A C39A 1_555 1_555
H22A C40A 1_555 1_555
H23A C40A 1_555 1_555
C41A C40A 1_555 1_555
H24A C41A 1_555 1_555
H25A C41A 1_555 1_555
C42A O41A 1_555 1_555
H26A C42A 1_555 1_555
H27A C42A 1_555 1_555
O42A Na3A 1_555 1_555
C43A O42A 1_555 1_555
H28A C43A 1_555 1_555
H29A C43A 1_555 1_555
C44A C43A 1_555 1_555
H30A C44A 1_555 1_555
H31A C44A 1_555 1_555
C45A C44A 1_555 1_555
H32A C45A 1_555 1_555
H33A C45A 1_555 1_555
C46A O42A 1_555 1_555
H34A C46A 1_555 1_555
H35A C46A 1_555 1_555
O43A Na3A 1_555 1_555
C47A O43A 1_555 1_555
H36A C47A 1_555 1_555
H37A C47A 1_555 1_555
C48A C47A 1_555 1_555
H38A C48A 1_555 1_555
H39A C48A 1_555 1_555
C49A C48A 1_555 1_555
H40A C49A 1_555 1_555
H41A C49A 1_555 1_555
C50A O43A 1_555 1_555
H42A C50A 1_555 1_555
H43A C50A 1_555 1_555
O44A Na3A 1_555 1_555
C51A O44A 1_555 1_555
H44A C51A 1_555 1_555
H45A C51A 1_555 1_555
C52A C51A 1_555 1_555
H46A C52A 1_555 1_555
H47A C52A 1_555 1_555
C53A C52A 1_555 1_555
H48A C53A 1_555 1_555
H49A C53A 1_555 1_555
C54A O44A 1_555 1_555
H50A C54A 1_555 1_555
H51A C54A 1_555 1_555
O45A Na2A 1_555 1_555
C55A O45A 1_555 1_555
H52A C55A 1_555 1_555
H53A C55A 1_555 1_555
C56A C55A 1_555 1_555
H54A C56A 1_555 1_555
H55A C56A 1_555 1_555
C57A C56A 1_555 1_555
H56A C57A 1_555 1_555
H57A C57A 1_555 1_555
C58A O45A 1_555 1_555
H58A C58A 1_555 1_555
H59A C58A 1_555 1_555
O46A Na2A 1_555 1_555
C59A O46A 1_555 1_555
H60A C59A 1_555 1_555
H61A C59A 1_555 1_555
C60A C59A 1_555 1_555
H62A C60A 1_555 1_555
H63A C60A 1_555 1_555
C61A C60A 1_555 1_555
H64A C61A 1_555 1_555
H65A C61A 1_555 1_555
C62A O46A 1_555 1_555
H66A C62A 1_555 1_555
H67A C62A 1_555 1_555
O47A Na2A 1_555 1_555
C63A O47A 1_555 1_555
H68A C63A 1_555 1_555
H69A C63A 1_555 1_555
C64A C63A 1_555 1_555
H70A C64A 1_555 1_555
H71A C64A 1_555 1_555
C65A C64A 1_555 1_555
H72A C65A 1_555 1_555
H73A C65A 1_555 1_555
C66A O47A 1_555 1_555
H74A C66A 1_555 1_555
H75A C66A 1_555 1_555
O48A Na2A 1_555 1_555
C67A O48A 1_555 1_555
H76A C67A 1_555 1_555
H77A C67A 1_555 1_555
C68A C67A 1_555 1_555
H78A C68A 1_555 1_555
H79A C68A 1_555 1_555
C69A C68A 1_555 1_555
H80A C69A 1_555 1_555
H81A C69A 1_555 1_555
C70A O48A 1_555 1_555
H82A C70A 1_555 1_555
H83A C70A 1_555 1_555
Ga5 O7 1_555 1_555
Ga6 O6F 1_555 1_555
O7 Ga6F 1_555 1_555
O8 Ga4F 1_555 1_555
Cr6 Ga6F 1_555 1_555
O15 C7 1_555 1_555
O19 C11 1_555 1_555
O29 C21 1_555 1_555
O30 C22 1_555 1_555
O38 C30 1_555 1_555
C33 C34 1_555 1_555
C37 C38 1_555 1_555
C41 C42 1_555 1_555
C45 C46 1_555 1_555
C49 C50 1_555 1_555
C53 C54 1_555 1_555
C57 C58 1_555 1_555
C61 C62 1_555 1_555
C65 C66 1_555 1_555
C69 C70 1_555 1_555
C73 C74 1_555 1_555
C77 C78 1_555 1_555
C81 C82 1_555 1_555
C85 C86 1_555 1_555
C89 C90 1_555 1_555
C93 C94 1_555 1_555
Ga1A O3A 1_555 1_555
Ga2A O2A 1_555 1_555
Ga2A O4A 1_555 1_555
Ga3A O4A 1_555 1_555
Ga4F O7F 1_555 1_555
Ga5A O7A 1_555 1_555
Ga5F O6F 1_555 1_555
Ga5F O7F 1_555 1_555
Ga5F O8F 1_555 1_555
Ga6F O5F 1_555 1_555
Ga6G O7A 1_555 1_555
O15A C7A 1_555 1_555
O19A C11A 1_555 1_555
O29A C21A 1_555 1_555
O30A C22A 1_555 1_555
O38A C30A 1_555 1_555
C33A C34A 1_555 1_555
C37A C38A 1_555 1_555
C41A C42A 1_555 1_555
C45A C46A 1_555 1_555
C49A C50A 1_555 1_555
C53A C54A 1_555 1_555
C57A C58A 1_555 1_555
C61A C62A 1_555 1_555
C65A C66A 1_555 1_555
C69A C70A 1_555 1_555

#END
