
#######################################################################
#
#                 Cambridge Crystallographic Data Centre
#                                CCDC 
#
#######################################################################
#
# If this CIF has been generated from an entry in the Cambridge 
# Structural Database, then it will include bibliographic, chemical, 
# crystal, experimental, refinement or atomic coordinate data resulting 
# from the CCDC's data processing and validation procedures.
#
#######################################################################

data_AXEBUB
_symmetry_cell_setting           rhombohedral
_symmetry_space_group_name_H-M   'R -3'
_symmetry_Int_Tables_number      148
_space_group_name_Hall           '-R 3'
loop_
_symmetry_equiv_pos_site_id
_symmetry_equiv_pos_as_xyz
1 x,y,z
2 -y,x-y,z
3 -x+y,-x,z
4 2/3+x,1/3+y,1/3+z
5 2/3-y,1/3+x-y,1/3+z
6 2/3-x+y,1/3-x,1/3+z
7 1/3+x,2/3+y,2/3+z
8 1/3-y,2/3+x-y,2/3+z
9 1/3-x+y,2/3-x,2/3+z
10 -x,-y,-z
11 y,-x+y,-z
12 x-y,x,-z
13 1/3-x,2/3-y,2/3-z
14 1/3+y,2/3-x+y,2/3-z
15 1/3+x-y,2/3+x,2/3-z
16 2/3-x,1/3-y,1/3-z
17 2/3+y,1/3-x+y,1/3-z
18 2/3+x-y,1/3+x,1/3-z
_cell_length_a                   36.990(5)
_cell_length_b                   36.990(5)
_cell_length_c                   10.677(2)
_cell_angle_alpha                90
_cell_angle_beta                 90
_cell_angle_gamma                120
_cell_volume                     12651.7
loop_
_atom_site_label
_atom_site_type_symbol
_atom_site_fract_x
_atom_site_fract_y
_atom_site_fract_z
C19 C -0.0023(2) 1.0359(2) 0.9995(6)
H9 H -0.0039 1.0602 0.9981
C19K C -0.0382(3) 0.9977(2) 1.0005(6)
C19A C -0.0359(2) 0.9618(3) 0.9995(6)
C19I C 0.0023(2) 0.9641(2) 1.0005(6)
C19B C 0.0382(3) 1.0023(2) 0.9995(6)
C19J C 0.0359(2) 1.0382(3) 1.0005(6)
H9J H 0.0602 1.0641 1.0019
H9B H 0.0641 1.0039 0.9981
H9I H 0.0039 0.9398 1.0019
H9A H -0.0602 0.9359 0.9981
H9K H -0.0641 0.9961 1.0019
Ga1 Ga 0.207165(15) 1.166752(16) 1.26755(4)
Co1 Co 0.131686(19) 1.13783(2) 1.26284(5)
Co2 Co 0.252475(19) 1.148889(19) 1.15054(5)
Co3 Co 0.255015(19) 1.15661(2) 1.39071(5)
Co4 Co 0.18448(2) 1.21615(2) 1.24761(5)
K1 K 0.16057(4) 0.99807(3) 1.22047(9)
C1 C 0.23309(15) 1.10880(15) 1.2813(4)
C2 C 0.12830(16) 1.13858(17) 1.4296(5)
C3 C 0.07946(16) 1.12555(16) 1.2326(4)
O1 O 0.21599(12) 1.07284(11) 1.2934(3)
C4 C 0.13252(15) 1.09249(17) 1.2164(4)
O2 O 0.12983(13) 1.06129(12) 1.1915(4)
C5 C 0.15073(15) 1.17547(16) 1.1242(4)
C6 C 0.29116(16) 1.20267(18) 1.1206(4)
C7 C 0.27915(16) 1.12405(17) 1.0847(4)
C8 C 0.19949(18) 1.22731(18) 1.4086(5)
O3 O 0.29333(14) 1.10690(15) 1.0387(4)
O4 O 0.31639(14) 1.23538(13) 1.0998(4)
C9 C 0.29383(17) 1.14512(18) 1.4477(5)
O5 O 0.30316(14) 1.24779(13) 1.4076(4)
C10 C 0.28459(16) 1.21263(17) 1.4011(4)
O6 O 0.20896(16) 1.23414(16) 1.5104(4)
O7 O 0.13837(15) 1.26067(15) 1.2275(4)
C11 C 0.15534(18) 1.24291(18) 1.2354(4)
O8 O 0.18954(12) 1.12422(12) 0.9592(3)
O9 O 0.14518(12) 1.17460(12) 1.0161(3)
O10 O 0.04602(12) 1.11713(12) 1.2170(4)
O11 O 0.19452(13) 1.12592(14) 1.5910(3)
O12 O 0.12412(14) 1.13882(15) 1.5350(3)
O13 O 0.22283(14) 0.98114(13) 1.2160(4)
C12 C 0.21231(15) 1.13366(15) 1.0400(4)
O14 O 0.25871(15) 1.27040(16) 1.1046(5)
C13 C 0.21676(16) 1.13733(17) 1.5090(4)
O15 O 0.31687(15) 1.13642(17) 1.4853(5)
C14 C 0.2196(2) 0.94165(19) 1.2306(6)
H1 H 0.2048 0.9286 1.3074
H2 H 0.2043 0.9236 1.1608
C15 C 0.22969(19) 1.24779(19) 1.1578(5)
C16 C 0.2658(2) 1.0126(2) 1.2177(6)
H3 H 0.2753 1.0236 1.1342
H4 H 0.2703 1.0355 1.2725
C17 C 0.2626(2) 0.9484(2) 1.2350(8)
H5 H 0.2704 0.9420 1.1549
H6 H 0.2650 0.9311 1.2991
C18 C 0.2880(3) 0.9919(3) 1.2646(12)
H7 H 0.2922 0.9958 1.3544
H8 H 0.3151 1.0033 1.2246
Ga1J Ga 0.166752(16) 0.959587(22) 1.73245(4)
Ga1_2 Ga 0.207165(15) 1.166752(16) 0.26755(4)
Ga1K Ga 0.040413(22) 1.207165(15) 1.73245(4)
Ga1B Ga -0.040413(22) 0.792835(15) 1.26755(4)
Ga1J_2 Ga 0.166752(16) 0.959587(22) 0.73245(4)
Ga1K_2 Ga 0.040413(22) 1.207165(15) 0.73245(4)
Ga1A Ga -0.166752(16) 1.040413(22) 1.26755(4)
Ga1_3 Ga 0.207165(15) 1.166752(16) 2.26755(4)
Co1J Co 0.13783(2) 1.006144(28) 1.73716(5)
Co1_2 Co 0.131686(19) 1.13783(2) 0.26284(5)
Co1K Co -0.006144(28) 1.131686(19) 1.73716(5)
Co1B Co 0.006144(28) 0.868314(19) 1.26284(5)
Co1J_2 Co 0.13783(2) 1.006144(28) 0.73716(5)
Co1K_2 Co -0.006144(28) 1.131686(19) 0.73716(5)
Co1_3 Co 0.131686(19) 1.13783(2) 2.26284(5)
Co1A Co -0.13783(2) 0.993856(28) 1.26284(5)
Co2K Co 0.103586(27) 1.252475(19) 0.84946(5)
Co2K_2 Co 0.103586(27) 1.252475(19) 1.84946(5)
Co2A Co -0.148889(19) 1.103586(27) 1.15054(5)
Co2J Co 0.148889(19) 0.896414(27) 0.84946(5)
Co2_2 Co 0.252475(19) 1.148889(19) 2.15054(5)
Co2J_2 Co 0.148889(19) 0.896414(27) 1.84946(5)
Co2_3 Co 0.252475(19) 1.148889(19) 0.15054(5)
Co2B Co -0.103586(27) 0.747525(19) 1.15054(5)
Co3J Co 0.15661(2) 0.901595(28) 1.60929(5)
Co3_2 Co 0.255015(19) 1.15661(2) 0.39071(5)
Co3K Co 0.098405(28) 1.255015(19) 1.60929(5)
Co3K_2 Co 0.098405(28) 1.255015(19) 0.60929(5)
Co3A Co -0.15661(2) 1.098405(28) 1.39071(5)
Co3J_2 Co 0.15661(2) 0.901595(28) 0.60929(5)
Co3_3 Co 0.255015(19) 1.15661(2) 2.39071(5)
Co3B Co -0.098405(28) 0.744985(19) 1.39071(5)
Co4J Co 0.21615(2) 1.03167(3) 0.75239(5)
Co4_2 Co 0.18448(2) 1.21615(2) 2.24761(5)
Co4K Co -0.03167(3) 1.18448(2) 0.75239(5)
Co4J_2 Co 0.21615(2) 1.03167(3) 1.75239(5)
Co4_3 Co 0.18448(2) 1.21615(2) 0.24761(5)
Co4K_2 Co -0.03167(3) 1.18448(2) 1.75239(5)
Co4B Co 0.03167(3) 0.81552(2) 1.24761(5)
K1K K 0.16250(5) 1.16057(4) 0.77953(9)
K1K_2 K 0.16250(5) 1.16057(4) 1.77953(9)
K1A K 0.00193(3) 1.16250(5) 1.22047(9)
K1J K -0.00193(3) 0.83750(5) 0.77953(9)
K1_2 K 0.16057(4) 0.99807(3) 2.22047(9)
K1J_2 K -0.00193(3) 0.83750(5) 1.77953(9)
K1A_2 K 0.00193(3) 1.16250(5) 0.22047(9)
K1_3 K 0.16057(4) 0.99807(3) 0.22047(9)
K1K_3 K 0.16250(5) 1.16057(4) -0.22047(9)
K1I K -0.16057(4) 1.00193(3) 1.77953(9)
K1A_3 K 0.00193(3) 1.16250(5) 2.22047(9)
K1I_2 K -0.16057(4) 1.00193(3) 0.77953(9)
C1K C 0.12429(21) 1.23309(15) 0.7187(4)
C1K_2 C 0.12429(21) 1.23309(15) 1.7187(4)
C1A C -0.10880(15) 1.12429(21) 1.2813(4)
C1J C 0.10880(15) 0.87571(21) 0.7187(4)
C1_2 C 0.23309(15) 1.10880(15) 2.2813(4)
C1J_2 C 0.10880(15) 0.87571(21) 1.7187(4)
C1_3 C 0.23309(15) 1.10880(15) 0.2813(4)
C2J C 0.13858(17) 1.01028(23) 1.5704(5)
C2_2 C 0.12830(16) 1.13858(17) 0.4296(5)
C2K C -0.01028(23) 1.12830(16) 1.5704(5)
C2B C 0.01028(23) 0.87170(16) 1.4296(5)
C2J_2 C 0.13858(17) 1.01028(23) 0.5704(5)
C3B C 0.04609(23) 0.92054(16) 1.2326(4)
C3J C 0.12555(16) 1.04609(23) 0.7674(4)
C3J_2 C 0.12555(16) 1.04609(23) 1.7674(4)
C3_2 C 0.07946(16) 1.12555(16) 0.2326(4)
C3K C -0.04609(23) 1.07946(16) 1.7674(4)
O1K O 0.14315(16) 1.21599(12) 0.7066(3)
O1K_2 O 0.14315(16) 1.21599(12) 1.7066(3)
O1A O -0.07284(11) 1.14315(16) 1.2934(3)
O1J O 0.07284(11) 0.85685(16) 0.7066(3)
O1_2 O 0.21599(12) 1.07284(11) 2.2934(3)
C4K C 0.04003(23) 1.13252(15) 0.7836(4)
C4K_2 C 0.04003(23) 1.13252(15) 1.7836(4)
C4A C -0.09249(17) 1.04003(23) 1.2164(4)
C4J C 0.09249(17) 0.95997(23) 1.7836(4)
C4_2 C 0.13252(15) 1.09249(17) 0.2164(4)
C4B C -0.04003(23) 0.86748(15) 1.2164(4)
C4J_2 C 0.09249(17) 0.95997(23) 0.7836(4)
O2K O 0.06854(18) 1.12983(13) 0.8085(4)
O2K_2 O 0.06854(18) 1.12983(13) 1.8085(4)
O2A O -0.06129(12) 1.06854(18) 1.1915(4)
O2J O 0.06129(12) 0.93146(18) 1.8085(4)
O2_2 O 0.12983(13) 1.06129(12) 0.1915(4)
O2J_2 O 0.06129(12) 0.93146(18) 0.8085(4)
O2_3 O 0.12983(13) 1.06129(12) 2.1915(4)
C5J C 0.17547(16) 1.02474(22) 0.8758(4)
C5_2 C 0.15073(15) 1.17547(16) 2.1242(4)
C5K C -0.02474(22) 1.15073(15) 0.8758(4)
C5J_2 C 0.17547(16) 1.02474(22) 1.8758(4)
C5_3 C 0.15073(15) 1.17547(16) 0.1242(4)
C5K_2 C -0.02474(22) 1.15073(15) 1.8758(4)
C5B C 0.02474(22) 0.84927(15) 1.1242(4)
C6K C 0.08849(24) 1.29116(16) 0.8794(4)
C6K_2 C 0.08849(24) 1.29116(16) 1.8794(4)
C6A C -0.20267(18) 1.08849(24) 1.1206(4)
C6J C 0.20267(18) 0.91151(24) 0.8794(4)
C6_2 C 0.29116(16) 1.20267(18) 2.1206(4)
C7K C 0.15510(23) 1.27915(16) 0.9153(4)
C7K_2 C 0.15510(23) 1.27915(16) 1.9153(4)
C7A C -0.12405(17) 1.15510(23) 1.0847(4)
C7J C 0.12405(17) 0.84490(23) 0.9153(4)
C7_2 C 0.27915(16) 1.12405(17) 2.0847(4)
C8J C 0.22731(18) 1.02782(25) 0.5914(5)
C8_2 C 0.19949(18) 1.22731(18) 2.4086(5)
C8K C -0.02782(25) 1.19949(18) 0.5914(5)
C8J_2 C 0.22731(18) 1.02782(25) 1.5914(5)
C8_3 C 0.19949(18) 1.22731(18) 0.4086(5)
O3K O 0.18643(21) 1.29333(14) 0.9613(4)
O3K_2 O 0.18643(21) 1.29333(14) 1.9613(4)
O3A O -0.10690(15) 1.18643(21) 1.0387(4)
O3J O 0.10690(15) 0.81357(21) 0.9613(4)
O3_2 O 0.29333(14) 1.10690(15) 2.0387(4)
O4K O 0.08101(19) 1.31639(14) 0.9002(4)
O4K_2 O 0.08101(19) 1.31639(14) 1.9002(4)
O4A O -0.23538(13) 1.08101(19) 1.0998(4)
O4J O 0.23538(13) 0.91899(19) 0.9002(4)
O4_2 O 0.31639(14) 1.23538(13) 2.0998(4)
C9J C 0.14512(18) 0.85129(25) 1.5523(5)
C9_2 C 0.29383(17) 1.14512(18) 0.4477(5)
C9K C 0.14871(25) 1.29383(17) 1.5523(5)
C9K_2 C 0.14871(25) 1.29383(17) 0.5523(5)
C9A C -0.14512(18) 1.14871(25) 1.4477(5)
O5J O 0.24779(13) 0.94463(19) 1.5924(4)
O5_2 O 0.30316(14) 1.24779(13) 0.4076(4)
O5K O 0.05537(19) 1.30316(14) 1.5924(4)
O5K_2 O 0.05537(19) 1.30316(14) 0.5924(4)
O5A O -0.24779(13) 1.05537(19) 1.4076(4)
C10J C 0.21263(17) 0.92804(23) 1.5989(4)
C10_2 C 0.28459(16) 1.21263(17) 0.4011(4)
C10K C 0.07196(23) 1.28459(16) 1.5989(4)
C10K_2 C 0.07196(23) 1.28459(16) 0.5989(4)
C10A C -0.21263(17) 1.07196(23) 1.4011(4)
O6J O 0.23414(16) 1.02518(23) 0.4896(4)
O6_2 O 0.20896(16) 1.23414(16) 2.5104(4)
O6K O -0.02518(23) 1.20896(16) 0.4896(4)
O6J_2 O 0.23414(16) 1.02518(23) 1.4896(4)
O6_3 O 0.20896(16) 1.23414(16) 0.5104(4)
O7J O 0.26067(15) 1.12230(21) 0.7725(4)
O7_2 O 0.13837(15) 1.26067(15) 2.2275(4)
O7K O -0.12230(21) 1.13837(15) 0.7725(4)
O7J_2 O 0.26067(15) 1.12230(21) 1.7725(4)
O7_3 O 0.13837(15) 1.26067(15) 0.2275(4)
C11J C 0.24291(18) 1.08757(25) 0.7646(4)
C11_2 C 0.15534(18) 1.24291(18) 2.2354(4)
C11K C -0.08757(25) 1.15534(18) 0.7646(4)
C11J_2 C 0.24291(18) 1.08757(25) 1.7646(4)
C11_3 C 0.15534(18) 1.24291(18) 0.2354(4)
O8J O 0.12422(12) 0.93468(17) 1.0408(3)
O8_2 O 0.18954(12) 1.12422(12) 1.9592(3)
O8K O 0.06532(17) 1.18954(12) 1.0408(3)
O8K_2 O 0.06532(17) 1.18954(12) 2.0408(3)
O8A O -0.12422(12) 1.06532(17) 0.9592(3)
O8B O -0.06532(17) 0.81046(12) 0.9592(3)
O8J_2 O 0.12422(12) 0.93468(17) 2.0408(3)
O9J O 0.17460(12) 1.02942(17) 0.9839(3)
O9_2 O 0.14518(12) 1.17460(12) 2.0161(3)
O9K O -0.02942(17) 1.14518(12) 0.9839(3)
O9J_2 O 0.17460(12) 1.02942(17) 1.9839(3)
O9_3 O 0.14518(12) 1.17460(12) 0.0161(3)
O9B O 0.02942(17) 0.85482(12) 1.0161(3)
O10B O 0.07111(17) 0.95398(12) 1.2170(4)
O10J O 0.11713(12) 1.07111(17) 0.7830(4)
O10J_2 O 0.11713(12) 1.07111(17) 1.7830(4)
O10_2 O 0.04602(12) 1.11713(12) 0.2170(4)
O10K O -0.07111(17) 1.04602(12) 1.7830(4)
O10I O -0.04602(12) 0.88287(12) 0.7830(4)
O10B_2 O 0.07111(17) 0.95398(12) 2.2170(4)
O11J O 0.12592(14) 0.93140(19) 1.4090(3)
O11_2 O 0.19452(13) 1.12592(14) 0.5910(3)
O11K O 0.06860(19) 1.19452(13) 1.4090(3)
O11K_2 O 0.06860(19) 1.19452(13) 0.4090(3)
O11A O -0.12592(14) 1.06860(19) 1.5910(3)
O11B O -0.06860(19) 0.80548(13) 0.5910(3)
O11J_2 O 0.12592(14) 0.93140(19) 2.4090(3)
O12J O 0.13882(15) 1.01470(21) 1.4650(3)
O12_2 O 0.12412(14) 1.13882(15) 0.5350(3)
O12K O -0.01470(21) 1.12412(14) 1.4650(3)
O12B O 0.01470(21) 0.87588(14) 1.5350(3)
O12J_2 O 0.13882(15) 1.01470(21) 0.4650(3)
O12B_2 O 0.01470(21) 0.87588(14) 0.5350(3)
O12J_3 O 0.13882(15) 1.01470(21) 2.4650(3)
O13K O 0.24169(19) 1.22283(14) 0.7840(4)
O13K_2 O 0.24169(19) 1.22283(14) 1.7840(4)
O13A O 0.01886(13) 1.24169(19) 1.2160(4)
O13J O -0.01886(13) 0.75831(19) 0.7840(4)
O13_2 O 0.22283(14) 0.98114(13) 2.2160(4)
C12J C 0.13366(15) 0.92135(21) 0.9600(4)
C12_2 C 0.21231(15) 1.13366(15) 2.0400(4)
C12K C 0.07865(21) 1.21231(15) 0.9600(4)
C12K_2 C 0.07865(21) 1.21231(15) 1.9600(4)
C12A C -0.13366(15) 1.07865(21) 1.0400(4)
O14J O 0.27040(16) 1.01169(22) 0.8954(5)
O14_2 O 0.25871(15) 1.27040(16) 2.1046(5)
O14K O -0.01169(22) 1.25871(15) 0.8954(5)
O14J_2 O 0.27040(16) 1.01169(22) 1.8954(5)
O14_3 O 0.25871(15) 1.27040(16) 0.1046(5)
C13J C 0.13733(17) 0.92057(23) 1.4910(4)
C13_2 C 0.21676(16) 1.13733(17) 0.5090(4)
C13K C 0.07943(23) 1.21676(16) 1.4910(4)
C13K_2 C 0.07943(23) 1.21676(16) 0.4910(4)
C13A C -0.13733(17) 1.07943(23) 1.5090(4)
O15J O 0.13642(17) 0.81955(23) 1.5147(5)
O15_2 O 0.31687(15) 1.13642(17) 0.4853(5)
O15K O 0.18045(23) 1.31687(15) 1.5147(5)
O15K_2 O 0.18045(23) 1.31687(15) 0.5147(5)
O15A O -0.13642(17) 1.18045(23) 1.4853(5)
C14K C 0.27795(28) 1.2196(2) 0.7694(6)
C14K_2 C 0.27795(28) 1.2196(2) 1.7694(6)
C14A C 0.05835(19) 1.27795(28) 1.2306(6)
C14J C -0.05835(19) 0.72205(28) 0.7694(6)
C14_2 C 0.2196(2) 0.94165(19) 2.2306(6)
H1K H 0.2762 1.2048 0.6926
H1K_2 H 0.2762 1.2048 1.6926
H1A H 0.0714 1.2762 1.3074
H1J H -0.0714 0.7238 0.6926
H1_2 H 0.2048 0.9286 2.3074
H2K H 0.2807 1.2043 0.8392
H2K_2 H 0.2807 1.2043 1.8392
H2A H 0.0764 1.2807 1.1608
H2J H -0.0764 0.7193 0.8392
H2_2 H 0.2043 0.9236 2.1608
C15J C 0.24779(19) 1.01810(27) 0.8422(5)
C15_2 C 0.22969(19) 1.24779(19) 2.1578(5)
C15K C -0.01810(27) 1.22969(19) 0.8422(5)
C15J_2 C 0.24779(19) 1.01810(27) 1.8422(5)
C15_3 C 0.22969(19) 1.24779(19) 0.1578(5)
C16K C 0.2532(3) 1.2658(2) 0.7823(6)
C16K_2 C 0.2532(3) 1.2658(2) 1.7823(6)
C16A C -0.0126(2) 1.2532(3) 1.2177(6)
C16J C 0.0126(2) 0.7468(3) 0.7823(6)
C16_2 C 0.2658(2) 1.0126(2) 2.2177(6)
H3K H 0.2517 1.2753 0.8658
H3K_2 H 0.2517 1.2753 1.8658
H3A H -0.0236 1.2517 1.1342
H3J H 0.0236 0.7483 0.8658
H3_2 H 0.2753 1.0236 2.1342
H4K H 0.2348 1.2703 0.7275
H4K_2 H 0.2348 1.2703 1.7275
H4A H -0.0355 1.2348 1.2725
H4J H 0.0355 0.7652 0.7275
H4_2 H 0.2703 1.0355 2.2725
C17K C 0.3142(3) 1.2626(2) 0.7650(8)
C17K_2 C 0.3142(3) 1.2626(2) 1.7650(8)
C17A C 0.0516(2) 1.3142(3) 1.2350(8)
C17J C -0.0516(2) 0.6858(3) 0.7650(8)
C17_2 C 0.2626(2) 0.9484(2) 2.2350(8)
H5K H 0.3284 1.2704 0.8451
H5K_2 H 0.3284 1.2704 1.8451
H5A H 0.0580 1.3284 1.1549
H5J H -0.0580 0.6716 0.8451
H5_2 H 0.2704 0.9420 2.1549
H6K H 0.3339 1.2650 0.7009
H6K_2 H 0.3339 1.2650 1.7009
H6A H 0.0689 1.3339 1.2991
H6J H -0.0689 0.6661 0.7009
H6_2 H 0.2650 0.9311 2.2991
C18K C 0.2961(4) 1.2880(3) 0.7354(12)
C18K_2 C 0.2961(4) 1.2880(3) 1.7354(12)
C18A C 0.0081(3) 1.2961(4) 1.2646(12)
C18J C -0.0081(3) 0.7039(4) 0.7354(12)
C18_2 C 0.2880(3) 0.9919(3) 2.2646(12)
H7K H 0.2964 1.2922 0.6456
H7K_2 H 0.2964 1.2922 1.6456
H7A H 0.0042 1.2964 1.3544
H7J H -0.0042 0.7036 0.6456
H7_2 H 0.2922 0.9958 2.3544
H8K H 0.3118 1.3151 0.7754
H8K_2 H 0.3118 1.3151 1.7754
H8A H -0.0033 1.3118 1.2246
H8J H 0.0033 0.6882 0.7754
H8_2 H 0.3151 1.0033 2.2246
loop_
_geom_bond_atom_site_label_1
_geom_bond_atom_site_label_2
_geom_bond_site_symmetry_1
_geom_bond_site_symmetry_2
Ga1 Co1 1_555 1_555
Co1 C2 1_555 1_555
Co2 Ga1 1_555 1_555
Co3 Ga1 1_555 1_555
Co4 Ga1 1_555 1_555
K1 O1 1_555 1_555
C1 Co2 1_555 1_555
C2 O12 1_555 1_555
C3 Co1 1_555 1_555
O1 C1 1_555 1_555
C4 Co1 1_555 1_555
O2 K1 1_555 1_555
C5 Co1 1_555 1_555
C6 Co2 1_555 1_555
C7 Co2 1_555 1_555
C8 Co4 1_555 1_555
O3 C7 1_555 1_555
O4 C6 1_555 1_555
C9 Co3 1_555 1_555
O5 C10 1_555 1_555
C10 Co3 1_555 1_555
O6 C8 1_555 1_555
O7 C11 1_555 1_555
C11 Co4 1_555 1_555
O8 C12 1_555 1_555
O9 C5 1_555 1_555
O10 C3 1_555 1_555
O11 C13 1_555 1_555
O12 K1K_2 1_555 1_555
O13 K1 1_555 1_555
C12 Co2 1_555 1_555
O14 C15 1_555 1_555
C13 Co3 1_555 1_555
O15 C9 1_555 1_555
C14 O13 1_555 1_555
H1 C14 1_555 1_555
H2 C14 1_555 1_555
C15 Co4 1_555 1_555
C16 O13 1_555 1_555
H3 C16 1_555 1_555
H4 C16 1_555 1_555
C17 C14 1_555 1_555
H5 C17 1_555 1_555
H6 C17 1_555 1_555
C18 C16 1_555 1_555
H7 C18 1_555 1_555
H8 C18 1_555 1_555
C19 H9 1_555 1_555
Ga1J Co1J 1_555 1_555
Ga1_2 Co1_2 1_555 1_555
Ga1K Co1K 1_555 1_555
Ga1B Co1B 1_555 1_555
Ga1J_2 Co1J_2 1_555 1_555
Ga1K_2 Co1K_2 1_555 1_555
Ga1A Co1A 1_555 1_555
Ga1_3 Co1_3 1_555 1_555
Co1J C2J 1_555 1_555
Co1_2 C2_2 1_555 1_555
Co1K C2K 1_555 1_555
Co1B C2B 1_555 1_555
Co1J_2 C2J_2 1_555 1_555
Co1K_2 C4K 1_555 1_555
Co1_3 C5_2 1_555 1_555
Co1A C4A 1_555 1_555
Co2K Ga1K_2 1_555 1_555
Co2K_2 Ga1K 1_555 1_555
Co2A Ga1A 1_555 1_555
Co2J Ga1J_2 1_555 1_555
Co2_2 Ga1_3 1_555 1_555
Co2J_2 Ga1J 1_555 1_555
Co2_3 Ga1_2 1_555 1_555
Co2B Ga1B 1_555 1_555
Co3J Ga1J 1_555 1_555
Co3_2 Ga1_2 1_555 1_555
Co3K Ga1K 1_555 1_555
Co3K_2 Ga1K_2 1_555 1_555
Co3A Ga1A 1_555 1_555
Co3J_2 Ga1J_2 1_555 1_555
Co3_3 Ga1_3 1_555 1_555
Co3B Ga1B 1_555 1_555
Co4J Ga1J_2 1_555 1_555
Co4_2 Ga1_3 1_555 1_555
Co4K Ga1K_2 1_555 1_555
Co4J_2 Ga1J 1_555 1_555
Co4_3 Ga1_2 1_555 1_555
Co4K_2 Ga1K 1_555 1_555
Co4B Ga1B 1_555 1_555
K1K O8 1_555 1_555
K1K_2 O11 1_555 1_555
K1A O10 1_555 1_555
K1J O1J 1_555 1_555
K1_2 O1_2 1_555 1_555
K1J_2 O2J 1_555 1_555
K1A_2 O10_2 1_555 1_555
K1_3 O2_2 1_555 1_555
K1K_3 O9_3 1_555 1_555
K1I O10K 1_555 1_555
K1A_3 O8K_2 1_555 1_555
K1I_2 O8A 1_555 1_555
C1K Co2K 1_555 1_555
C1K_2 Co2K_2 1_555 1_555
C1A Co2A 1_555 1_555
C1J Co2J 1_555 1_555
C1_2 Co2_2 1_555 1_555
C1J_2 Co2J_2 1_555 1_555
C1_3 Co2_3 1_555 1_555
C2J O12J 1_555 1_555
C2_2 O12_2 1_555 1_555
C2K O12K 1_555 1_555
C2B O12B 1_555 1_555
C2J_2 O12J_2 1_555 1_555
C3B Co1B 1_555 1_555
C3J Co1J_2 1_555 1_555
C3J_2 Co1J 1_555 1_555
C3_2 Co1_2 1_555 1_555
C3K Co1K 1_555 1_555
O1K K1K 1_555 1_555
O1K_2 K1K_2 1_555 1_555
O1A K1A 1_555 1_555
O1J C1J 1_555 1_555
O1_2 C1_2 1_555 1_555
C4K O2K 1_555 1_555
C4K_2 Co1K 1_555 1_555
C4A O2A 1_555 1_555
C4J Co1J 1_555 1_555
C4_2 Co1_2 1_555 1_555
C4B Co1B 1_555 1_555
C4J_2 Co1J_2 1_555 1_555
O2K K1K 1_555 1_555
O2K_2 K1K_2 1_555 1_555
O2A K1A 1_555 1_555
O2J C4J 1_555 1_555
O2_2 C4_2 1_555 1_555
O2J_2 K1J 1_555 1_555
O2_3 K1_2 1_555 1_555
C5J Co1J_2 1_555 1_555
C5_2 Co4_2 1_555 1_555
C5K Co1K_2 1_555 1_555
C5J_2 Co1J 1_555 1_555
C5_3 Co1_2 1_555 1_555
C5K_2 Co1K 1_555 1_555
C5B Co1B 1_555 1_555
C6K Co2K 1_555 1_555
C6K_2 Co2K_2 1_555 1_555
C6A Co2A 1_555 1_555
C6J Co2J 1_555 1_555
C6_2 Co2_2 1_555 1_555
C7K Co2K 1_555 1_555
C7K_2 Co2K_2 1_555 1_555
C7A Co2A 1_555 1_555
C7J Co2J 1_555 1_555
C7_2 Co2_2 1_555 1_555
C8J Co4J 1_555 1_555
C8_2 Co4_2 1_555 1_555
C8K Co4K 1_555 1_555
C8J_2 Co4J_2 1_555 1_555
C8_3 Co4_3 1_555 1_555
O3K C7K 1_555 1_555
O3K_2 C7K_2 1_555 1_555
O3A C7A 1_555 1_555
O3J C7J 1_555 1_555
O3_2 C7_2 1_555 1_555
O4K C6K 1_555 1_555
O4K_2 C6K_2 1_555 1_555
O4A C6A 1_555 1_555
O4J C6J 1_555 1_555
O4_2 C6_2 1_555 1_555
C9J Co3J 1_555 1_555
C9_2 Co3_2 1_555 1_555
C9K Co3K 1_555 1_555
C9K_2 Co3K_2 1_555 1_555
C9A Co3A 1_555 1_555
O5J C10J 1_555 1_555
O5_2 C10_2 1_555 1_555
O5K C10K 1_555 1_555
O5K_2 C10K_2 1_555 1_555
O5A C10A 1_555 1_555
C10J Co3J 1_555 1_555
C10_2 Co3_2 1_555 1_555
C10K Co3K 1_555 1_555
C10K_2 Co3K_2 1_555 1_555
C10A Co3A 1_555 1_555
O6J C8J 1_555 1_555
O6_2 C8_2 1_555 1_555
O6K C8K 1_555 1_555
O6J_2 C8J_2 1_555 1_555
O6_3 C8_3 1_555 1_555
O7J C11J 1_555 1_555
O7_2 C11_2 1_555 1_555
O7K C11K 1_555 1_555
O7J_2 C11J_2 1_555 1_555
O7_3 C11_3 1_555 1_555
C11J Co4J 1_555 1_555
C11_2 Co4_2 1_555 1_555
C11K Co4K 1_555 1_555
C11J_2 Co4J_2 1_555 1_555
C11_3 Co4_3 1_555 1_555
O8J K1 1_555 1_555
O8_2 K1K_2 1_555 1_555
O8K K1A 1_555 1_555
O8K_2 C12K_2 1_555 1_555
O8A C12A 1_555 1_555
O8B K1J 1_555 1_555
O8J_2 K1_2 1_555 1_555
O9J K1 1_555 1_555
O9_2 K1K_2 1_555 1_555
O9K K1A 1_555 1_555
O9J_2 K1_2 1_555 1_555
O9_3 C5_3 1_555 1_555
O9B K1J 1_555 1_555
O10B K1 1_555 1_555
O10J K1K 1_555 1_555
O10J_2 K1K_2 1_555 1_555
O10_2 C3_2 1_555 1_555
O10K C3K 1_555 1_555
O10I K1J 1_555 1_555
O10B_2 K1_2 1_555 1_555
O11J K1 1_555 1_555
O11_2 K1K 1_555 1_555
O11K K1A 1_555 1_555
O11K_2 K1A_2 1_555 1_555
O11A K1I 1_555 1_555
O11B K1J 1_555 1_555
O11J_2 K1_2 1_555 1_555
O12J K1 1_555 1_555
O12_2 K1K 1_555 1_555
O12K K1A 1_555 1_555
O12B K1J_2 1_555 1_555
O12J_2 K1_3 1_555 1_555
O12B_2 K1J 1_555 1_555
O12J_3 K1_2 1_555 1_555
O13K K1K 1_555 1_555
O13K_2 K1K_2 1_555 1_555
O13A K1A 1_555 1_555
O13J K1J 1_555 1_555
O13_2 K1_2 1_555 1_555
C12J Co2J 1_555 1_555
C12_2 Co2_2 1_555 1_555
C12K Co2K 1_555 1_555
C12K_2 Co2K_2 1_555 1_555
C12A Co2A 1_555 1_555
O14J C15J 1_555 1_555
O14_2 C15_2 1_555 1_555
O14K C15K 1_555 1_555
O14J_2 C15J_2 1_555 1_555
O14_3 C15_3 1_555 1_555
C13J Co3J 1_555 1_555
C13_2 Co3_2 1_555 1_555
C13K Co3K 1_555 1_555
C13K_2 Co3K_2 1_555 1_555
C13A Co3A 1_555 1_555
O15J C9J 1_555 1_555
O15_2 C9_2 1_555 1_555
O15K C9K 1_555 1_555
O15K_2 C9K_2 1_555 1_555
O15A C9A 1_555 1_555
C14K O13K 1_555 1_555
C14K_2 O13K_2 1_555 1_555
C14A O13A 1_555 1_555
C14J O13J 1_555 1_555
C14_2 O13_2 1_555 1_555
H1K C14K 1_555 1_555
H1K_2 C14K_2 1_555 1_555
H1A C14A 1_555 1_555
H1J C14J 1_555 1_555
H1_2 C14_2 1_555 1_555
H2K C14K 1_555 1_555
H2K_2 C14K_2 1_555 1_555
H2A C14A 1_555 1_555
H2J C14J 1_555 1_555
H2_2 C14_2 1_555 1_555
C15J Co4J 1_555 1_555
C15_2 Co4_2 1_555 1_555
C15K Co4K 1_555 1_555
C15J_2 Co4J_2 1_555 1_555
C15_3 Co4_3 1_555 1_555
C16K O13K 1_555 1_555
C16K_2 O13K_2 1_555 1_555
C16A O13A 1_555 1_555
C16J O13J 1_555 1_555
C16_2 O13_2 1_555 1_555
H3K C16K 1_555 1_555
H3K_2 C16K_2 1_555 1_555
H3A C16A 1_555 1_555
H3J C16J 1_555 1_555
H3_2 C16_2 1_555 1_555
H4K C16K 1_555 1_555
H4K_2 C16K_2 1_555 1_555
H4A C16A 1_555 1_555
H4J C16J 1_555 1_555
H4_2 C16_2 1_555 1_555
C17K C14K 1_555 1_555
C17K_2 C14K_2 1_555 1_555
C17A C14A 1_555 1_555
C17J C14J 1_555 1_555
C17_2 C14_2 1_555 1_555
H5K C17K 1_555 1_555
H5K_2 C17K_2 1_555 1_555
H5A C17A 1_555 1_555
H5J C17J 1_555 1_555
H5_2 C17_2 1_555 1_555
H6K C17K 1_555 1_555
H6K_2 C17K_2 1_555 1_555
H6A C17A 1_555 1_555
H6J C17J 1_555 1_555
H6_2 C17_2 1_555 1_555
C18K C16K 1_555 1_555
C18K_2 C16K_2 1_555 1_555
C18A C16A 1_555 1_555
C18J C16J 1_555 1_555
C18_2 C16_2 1_555 1_555
H7K C18K 1_555 1_555
H7K_2 C18K_2 1_555 1_555
H7A C18A 1_555 1_555
H7J C18J 1_555 1_555
H7_2 C18_2 1_555 1_555
H8K C18K 1_555 1_555
H8K_2 C18K_2 1_555 1_555
H8A C18A 1_555 1_555
H8J C18J 1_555 1_555
H8_2 C18_2 1_555 1_555
C19K C19 1_555 1_555
C19A C19K 1_555 1_555
C19I C19A 1_555 1_555
C19B C19I 1_555 1_555
C19J C19 1_555 1_555
H9J C19J 1_555 1_555
H9B C19B 1_555 1_555
H9I C19I 1_555 1_555
H9A C19A 1_555 1_555
H9K C19K 1_555 1_555
Co3 C1 1_555 1_555
Co4 C5 1_555 1_555
C4 O2 1_555 1_555
O9 K1K 1_555 1_555
C17 C18 1_555 1_555
Co3J C1J_2 1_555 1_555
Co3_2 C1_3 1_555 1_555
Co3K C1K_2 1_555 1_555
Co3K_2 C1K 1_555 1_555
Co3A C1A 1_555 1_555
Co3J_2 C1J 1_555 1_555
Co3_3 C1_2 1_555 1_555
Co4J C5J 1_555 1_555
Co4K C5K 1_555 1_555
Co4J_2 C5J_2 1_555 1_555
Co4_3 C5_3 1_555 1_555
Co4K_2 C5K_2 1_555 1_555
Co4B C5B 1_555 1_555
C1K O1K 1_555 1_555
C1K_2 O1K_2 1_555 1_555
C1A O1A 1_555 1_555
C3B O10B 1_555 1_555
C3J O10J 1_555 1_555
C3J_2 O10J_2 1_555 1_555
C4K_2 O2K_2 1_555 1_555
C4J_2 O2J_2 1_555 1_555
C5J O9J 1_555 1_555
C5_2 O9_2 1_555 1_555
C5K O9K 1_555 1_555
C5J_2 O9J_2 1_555 1_555
C5B O9B 1_555 1_555
O8J C12J 1_555 1_555
O8_2 C12_2 1_555 1_555
O8K C12K 1_555 1_555
O11J C13J 1_555 1_555
O11_2 C13_2 1_555 1_555
O11K C13K 1_555 1_555
O11K_2 C13K_2 1_555 1_555
O11A C13A 1_555 1_555
C17K C18K 1_555 1_555
C17K_2 C18K_2 1_555 1_555
C17A C18A 1_555 1_555
C17J C18J 1_555 1_555
C17_2 C18_2 1_555 1_555
C19B C19J 1_555 1_555

#END
