
#######################################################################
#
#                 Cambridge Crystallographic Data Centre
#                                CCDC 
#
#######################################################################
#
# If this CIF has been generated from an entry in the Cambridge 
# Structural Database, then it will include bibliographic, chemical, 
# crystal, experimental, refinement or atomic coordinate data resulting 
# from the CCDC's data processing and validation procedures.
#
#######################################################################

data_AXECUB
_symmetry_cell_setting           monoclinic
_symmetry_space_group_name_H-M   'C 2/c'
_symmetry_Int_Tables_number      15
_space_group_name_Hall           '-C 2yn'
loop_
_symmetry_equiv_pos_site_id
_symmetry_equiv_pos_as_xyz
1 x,y,z
2 1/2+x,1/2+y,z
3 x,-y,1/2+z
4 1/2+x,1/2-y,1/2+z
5 -x,-y,-z
6 1/2-x,1/2-y,-z
7 -x,y,1/2-z
8 1/2-x,1/2+y,1/2-z
_cell_length_a                   20.9526(4)
_cell_length_b                   21.4295(3)
_cell_length_c                   8.2384(2)
_cell_angle_alpha                90
_cell_angle_beta                 104.0060(10)
_cell_angle_gamma                90
_cell_volume                     3589.1
loop_
_atom_site_label
_atom_site_type_symbol
_atom_site_fract_x
_atom_site_fract_y
_atom_site_fract_z
Gd1 Gd 0.0000 0.286622(9) 0.2500
Gd2 Gd 0.0000 0.206980(9) 0.7500
O1 O 0.06918(10) 0.20909(8) 0.3783(3)
O2 O 0.03353(11) 0.35394(9) 0.4985(3)
O3 O 0.05842(9) 0.24619(9) 0.0473(2)
O4 O 0.09157(13) 0.35904(12) 0.2364(3)
O5 O 0.04942(11) 0.14809(10) 0.5787(3)
O6 O 0.09629(10) 0.16468(10) -0.0610(3)
O7 O 0.06628(11) 0.28893(8) 0.7128(3)
C1 C 0.10314(16) 0.20567(13) 0.0504(4)
C2 C 0.16798(17) 0.20910(14) 0.1778(4)
C3 C 0.20853(17) 0.25957(18) 0.1639(5)
H1 H 0.1931 0.2911 0.0867
C4 C 0.2725(2) 0.2628(2) 0.2663(5)
H2 H 0.3002 0.2955 0.2545
C5 C 0.29383(19) 0.21763(19) 0.3833(5)
H3 H 0.3356 0.2205 0.4543
C6 C 0.25410(16) 0.16794(17) 0.3970(4)
H4 H 0.2697 0.1374 0.4770
C7 C 0.19099(15) 0.16210(14) 0.2942(4)
C8 C 0.15308(16) 0.10428(15) 0.3104(4)
C9 C 0.17746(19) 0.04766(17) 0.2636(5)
H5 H 0.2145 0.0483 0.2200
C10 C 0.1480(2) -0.00877(17) 0.2806(5)
H6 H 0.1648 -0.0454 0.2467
C11 C 0.0941(2) -0.01107(17) 0.3473(5)
H7 H 0.0736 -0.0489 0.3570
C12 C 0.0708(2) 0.04361(14) 0.3998(5)
H8 H 0.0352 0.0419 0.4486
C13 C 0.09864(16) 0.10099(14) 0.3823(4)
C14 C 0.07074(14) 0.15702(14) 0.4505(4)
C15 C 0.05662(14) 0.34265(13) 0.6507(4)
C16 C 0.07800(15) 0.39668(13) 0.7692(4)
C17 C 0.03560(16) 0.44522(13) 0.7910(4)
C18 C 0.06258(18) 0.49520(15) 0.8965(4)
H9 H 0.0355 0.5281 0.9105
C19 C 0.12836(18) 0.49643(17) 0.9798(5)
H10 H 0.1452 0.5300 1.0485
C20 C 0.16893(18) 0.44758(16) 0.9603(5)
H11 H 0.2131 0.4481 1.0167
C21 C 0.14408(17) 0.39812(16) 0.8578(4)
H12 H 0.1716 0.3651 0.8472
H13 H 0.101(3) 0.362(3) 0.130(4)
H14 H 0.101(3) 0.3977(14) 0.292(7)
C17F C -0.03560(16) 0.44522(13) 0.7090(4)
C16F C -0.07800(15) 0.39668(13) 0.7308(4)
C15F C -0.05662(14) 0.34265(13) 0.8493(4)
O2F O -0.03353(11) 0.35394(9) 1.0015(3)
O7F O -0.06628(11) 0.28893(8) 0.7872(3)
C21F C -0.14408(17) 0.39812(16) 0.6422(4)
C20F C -0.16893(18) 0.44758(16) 0.5397(5)
C19F C -0.12836(18) 0.49643(17) 0.5202(5)
C18F C -0.06258(18) 0.49520(15) 0.6035(4)
H9F H -0.0355 0.5281 0.5895
H10F H -0.1452 0.5300 0.4515
H11F H -0.2131 0.4481 0.4833
H12F H -0.1716 0.3651 0.6528
O1F O -0.06918(10) 0.20909(8) 0.1217(3)
O3F O -0.05842(9) 0.24619(9) 0.4527(2)
O5F O -0.04942(11) 0.14809(10) -0.0787(3)
O6F O -0.09629(10) 0.16468(10) 0.5610(3)
C1F C -0.10314(16) 0.20567(13) 0.4496(4)
C2F C -0.16798(17) 0.20910(14) 0.3222(4)
C3F C -0.20853(17) 0.25957(18) 0.3361(5)
H1F H -0.1931 0.2911 0.4133
C4F C -0.2725(2) 0.2628(2) 0.2337(5)
H2F H -0.3002 0.2955 0.2455
C5F C -0.29383(19) 0.21763(19) 0.1167(5)
H3F H -0.3356 0.2205 0.0457
C6F C -0.25410(16) 0.16794(17) 0.1030(4)
H4F H -0.2697 0.1374 0.0230
C7F C -0.19099(15) 0.16210(14) 0.2058(4)
C8F C -0.15308(16) 0.10428(15) 0.1896(4)
C9F C -0.17746(19) 0.04766(17) 0.2364(5)
H5F H -0.2145 0.0483 0.2800
C10F C -0.1480(2) -0.00877(17) 0.2194(5)
H6F H -0.1648 -0.0454 0.2533
C11F C -0.0941(2) -0.01107(17) 0.1527(5)
H7F H -0.0736 -0.0489 0.1430
C12F C -0.0708(2) 0.04361(14) 0.1002(5)
H8F H -0.0352 0.0419 0.0514
C13F C -0.09864(16) 0.10099(14) 0.1177(4)
C14F C -0.07074(14) 0.15702(14) 0.0495(4)
O4F O -0.09157(13) 0.35904(12) 0.2636(3)
H13F H -0.101(3) 0.362(3) 0.370(4)
H14F H -0.101(3) 0.3977(14) 0.208(7)
O2F_2 O -0.03353(11) 0.35394(9) 0.0015(3)
Gd2_2 Gd 0.0000 0.206980(9) -0.2500
Gd1_2 Gd 0.0000 0.286622(9) 1.2500
O3_2 O 0.05842(9) 0.24619(9) 1.0473(2)
O5F_2 O -0.04942(11) 0.14809(10) 0.9213(3)
O6_2 O 0.09629(10) 0.16468(10) 0.9390(3)
loop_
_geom_bond_atom_site_label_1
_geom_bond_atom_site_label_2
_geom_bond_site_symmetry_1
_geom_bond_site_symmetry_2
Gd1 O1 1_555 1_555
Gd2 O5 1_555 1_555
O1 C14 1_555 1_555
O2 Gd1 1_555 1_555
O3 Gd1 1_555 1_555
O4 Gd1 1_555 1_555
O5 C14 1_555 1_555
O6 C1 1_555 1_555
O7 Gd2 1_555 1_555
C1 O3 1_555 1_555
C2 C1 1_555 1_555
C3 C2 1_555 1_555
H1 C3 1_555 1_555
C4 C3 1_555 1_555
H2 C4 1_555 1_555
C5 C4 1_555 1_555
H3 C5 1_555 1_555
C6 C5 1_555 1_555
H4 C6 1_555 1_555
C7 C2 1_555 1_555
C8 C7 1_555 1_555
C9 C8 1_555 1_555
H5 C9 1_555 1_555
C10 C9 1_555 1_555
H6 C10 1_555 1_555
C11 C10 1_555 1_555
H7 C11 1_555 1_555
C12 C11 1_555 1_555
H8 C12 1_555 1_555
C13 C8 1_555 1_555
C14 C13 1_555 1_555
C15 O2 1_555 1_555
C16 C15 1_555 1_555
C17 C16 1_555 1_555
C18 C17 1_555 1_555
H9 C18 1_555 1_555
C19 C18 1_555 1_555
H10 C19 1_555 1_555
C20 C19 1_555 1_555
H11 C20 1_555 1_555
C21 C16 1_555 1_555
H12 C21 1_555 1_555
H13 O4 1_555 1_555
H14 O4 1_555 1_555
C17F C17 1_555 1_555
C16F C17F 1_555 1_555
C15F C16F 1_555 1_555
O2F C15F 1_555 1_555
O7F Gd2 1_555 1_555
C21F C16F 1_555 1_555
C20F C21F 1_555 1_555
C19F C20F 1_555 1_555
C18F C17F 1_555 1_555
H9F C18F 1_555 1_555
H10F C19F 1_555 1_555
H11F C20F 1_555 1_555
H12F C21F 1_555 1_555
O1F Gd1 1_555 1_555
O3F Gd1 1_555 1_555
O5F C14F 1_555 1_555
O6F Gd2 1_555 1_555
C1F O3F 1_555 1_555
C2F C1F 1_555 1_555
C3F C2F 1_555 1_555
H1F C3F 1_555 1_555
C4F C3F 1_555 1_555
H2F C4F 1_555 1_555
C5F C4F 1_555 1_555
H3F C5F 1_555 1_555
C6F C5F 1_555 1_555
H4F C6F 1_555 1_555
C7F C2F 1_555 1_555
C8F C7F 1_555 1_555
C9F C8F 1_555 1_555
H5F C9F 1_555 1_555
C10F C9F 1_555 1_555
H6F C10F 1_555 1_555
C11F C10F 1_555 1_555
H7F C11F 1_555 1_555
C12F C11F 1_555 1_555
H8F C12F 1_555 1_555
C13F C8F 1_555 1_555
C14F O1F 1_555 1_555
O4F Gd1 1_555 1_555
H13F O4F 1_555 1_555
H14F O4F 1_555 1_555
O2F_2 Gd1 1_555 1_555
Gd2_2 O3 1_555 1_555
Gd1_2 O2F 1_555 1_555
O3_2 Gd2 1_555 1_555
O5F_2 Gd2 1_555 1_555
O6_2 Gd2 1_555 1_555
Gd2 O3F 1_555 1_555
O6 Gd2_2 1_555 1_555
O7 C15 1_555 1_555
C6 C7 1_555 1_555
C12 C13 1_555 1_555
C20 C21 1_555 1_555
C15F O7F 1_555 1_555
C19F C18F 1_555 1_555
O5F Gd2_2 1_555 1_555
O6F C1F 1_555 1_555
C6F C7F 1_555 1_555
C12F C13F 1_555 1_555
C13F C14F 1_555 1_555
Gd1_2 O3_2 1_555 1_555

#END
