
#######################################################################
#
#                 Cambridge Crystallographic Data Centre
#                                CCDC 
#
#######################################################################
#
# If this CIF has been generated from an entry in the Cambridge 
# Structural Database, then it will include bibliographic, chemical, 
# crystal, experimental, refinement or atomic coordinate data resulting 
# from the CCDC's data processing and validation procedures.
#
#######################################################################

data_AXENEW
_symmetry_cell_setting           monoclinic
_symmetry_space_group_name_H-M   'C 2'
_symmetry_Int_Tables_number      5
_space_group_name_Hall           'C 2y'
loop_
_symmetry_equiv_pos_site_id
_symmetry_equiv_pos_as_xyz
1 x,y,z
2 -x,y,-z
3 1/2+x,1/2+y,z
4 1/2-x,1/2+y,-z
_cell_length_a                   25.225(5)
_cell_length_b                   7.2575(12)
_cell_length_c                   16.881(3)
_cell_angle_alpha                90
_cell_angle_beta                 105.781(3)
_cell_angle_gamma                90
_cell_volume                     2973.93
loop_
_atom_site_label
_atom_site_type_symbol
_atom_site_fract_x
_atom_site_fract_y
_atom_site_fract_z
Ag1 Ag -0.30337(3) -0.74282(11) -0.53577(3)
N1 N -0.3341(2) -0.7253(11) -0.4262(3)
N2 N -0.2062(2) -0.2335(10) -0.3395(3)
O1 O -0.36547(16) -0.5444(5) -0.1525(2)
O2 O -0.28443(13) -0.2220(7) -0.10023(18)
C1 C -0.3797(2) -0.7063(8) -0.1996(3)
H1 H -0.4191 -0.7247 -0.2111
H2 H -0.3618 -0.8100 -0.1668
C2 C -0.3645(2) -0.7076(8) -0.2807(3)
C3 C -0.3817(3) -0.8481(8) -0.3356(4)
H3 H -0.4038 -0.9412 -0.3240
C4 C -0.3667(3) -0.8524(10) -0.4074(4)
H4 H -0.3797 -0.9476 -0.4444
C5 C -0.3181(3) -0.5870(10) -0.3740(4)
H5 H -0.2961 -0.4957 -0.3872
C6 C -0.3323(3) -0.5713(9) -0.3011(4)
H6 H -0.3206 -0.4712 -0.2663
C7 C -0.39565(18) -0.2625(9) -0.1102(2)
C8 C -0.4022(2) -0.3994(8) -0.1696(3)
C9 C -0.4442(2) -0.3861(9) -0.2450(3)
H7 H -0.4473 -0.4777 -0.2845
C10 C -0.4795(2) -0.2436(12) -0.2602(3)
H8 H -0.5068 -0.2385 -0.3099
C11 C -0.4759(2) -0.1029(9) -0.2025(4)
C12 C -0.5134(3) 0.0466(9) -0.2155(4)
H9 H -0.5412 0.0524 -0.2647
C13 C -0.5105(3) 0.1797(9) -0.1596(5)
H10 H -0.5361 0.2751 -0.1699
C14 C -0.4684(3) 0.1740(8) -0.0852(4)
H11 H -0.4663 0.2657 -0.0460
C15 C -0.4307(3) 0.0350(8) -0.0704(4)
H12 H -0.4026 0.0365 -0.0215
C16 C -0.4328(2) -0.1093(8) -0.1255(3)
C17 C -0.2270(2) -0.2331(11) -0.0968(3)
H13 H -0.2112 -0.3446 -0.0683
H14 H -0.2075 -0.1283 -0.0669
C18 C -0.22130(19) -0.2345(9) -0.1817(3)
C19 C -0.2584(3) -0.1480(9) -0.2465(4)
H15 H -0.2894 -0.0898 -0.2386
C20 C -0.2486(3) -0.1497(9) -0.3235(4)
H16 H -0.2733 -0.0882 -0.3663
C21 C -0.1716(3) -0.3168(9) -0.2783(4)
H17 H -0.1416 -0.3771 -0.2885
C22 C -0.1772(3) -0.3200(8) -0.1994(4)
H18 H -0.1511 -0.3802 -0.1580
C23 C -0.35214(19) -0.2727(8) -0.0309(3)
C24 C -0.29792(18) -0.2422(11) -0.0263(2)
C25 C -0.2573(2) -0.2272(10) 0.0496(3)
H19 H -0.2209 -0.2025 0.0509
C26 C -0.2718(2) -0.2494(10) 0.1210(3)
H20 H -0.2447 -0.2420 0.1708
C27 C -0.3271(2) -0.2834(7) 0.1218(3)
C28 C -0.3427(2) -0.3052(7) 0.1952(3)
H21 H -0.3161 -0.2934 0.2454
C29 C -0.3946(3) -0.3423(9) 0.1944(3)
H22 H -0.4040 -0.3577 0.2436
C30 C -0.4349(3) -0.3579(8) 0.1189(4)
H23 H -0.4713 -0.3818 0.1184
C31 C -0.4217(2) -0.3386(8) 0.0464(3)
H24 H -0.4491 -0.3517 -0.0029
C32 C -0.3674(2) -0.2991(6) 0.0440(3)
N2C N -0.2938(2) -0.7335(10) -0.6605(3)
Ag1C Ag -0.19663(3) -0.24282(11) -0.46423(3)
N3 N -0.1657(4) -0.6997(10) -0.4324(5)
O3 O -0.1207(3) -0.6221(13) -0.4008(4)
O4 O -0.2045(3) -0.6059(14) -0.4734(6)
O5 O -0.1723(6) -0.8638(12) -0.4242(11)
loop_
_geom_bond_atom_site_label_1
_geom_bond_atom_site_label_2
_geom_bond_site_symmetry_1
_geom_bond_site_symmetry_2
Ag1 N1 1_555 1_555
N1 C4 1_555 1_555
N2 C20 1_555 1_555
O1 C1 1_555 1_555
O2 C17 1_555 1_555
C1 H1 1_555 1_555
H2 C1 1_555 1_555
C2 C1 1_555 1_555
C3 C2 1_555 1_555
H3 C3 1_555 1_555
C4 C3 1_555 1_555
H4 C4 1_555 1_555
C5 N1 1_555 1_555
H5 C5 1_555 1_555
C6 C2 1_555 1_555
H6 C6 1_555 1_555
C7 C8 1_555 1_555
C8 O1 1_555 1_555
C9 C8 1_555 1_555
H7 C9 1_555 1_555
C10 C9 1_555 1_555
H8 C10 1_555 1_555
C11 C10 1_555 1_555
C12 C11 1_555 1_555
H9 C12 1_555 1_555
C13 C12 1_555 1_555
H10 C13 1_555 1_555
C14 C13 1_555 1_555
H11 C14 1_555 1_555
C15 C14 1_555 1_555
H12 C15 1_555 1_555
C16 C7 1_555 1_555
C17 H13 1_555 1_555
H14 C17 1_555 1_555
C18 C17 1_555 1_555
C19 C18 1_555 1_555
H15 C19 1_555 1_555
C20 C19 1_555 1_555
H16 C20 1_555 1_555
C21 N2 1_555 1_555
H17 C21 1_555 1_555
C22 C18 1_555 1_555
H18 C22 1_555 1_555
C23 C7 1_555 1_555
C24 O2 1_555 1_555
C25 C24 1_555 1_555
H19 C25 1_555 1_555
C26 C25 1_555 1_555
H20 C26 1_555 1_555
C27 C26 1_555 1_555
C28 C27 1_555 1_555
H21 C28 1_555 1_555
C29 C28 1_555 1_555
H22 C29 1_555 1_555
C30 C29 1_555 1_555
H23 C30 1_555 1_555
C31 C30 1_555 1_555
H24 C31 1_555 1_555
C32 C23 1_555 1_555
N3 O3 1_555 1_555
O4 N3 1_555 1_555
O5 N3 1_555 1_555
N2C Ag1 1_555 1_555
Ag1C N2 1_555 1_555
C5 C6 1_555 1_555
C11 C16 1_555 1_555
C15 C16 1_555 1_555
C21 C22 1_555 1_555
C23 C24 1_555 1_555
C27 C32 1_555 1_555
C31 C32 1_555 1_555

#END
