
#######################################################################
#
#                 Cambridge Crystallographic Data Centre
#                                CCDC 
#
#######################################################################
#
# If this CIF has been generated from an entry in the Cambridge 
# Structural Database, then it will include bibliographic, chemical, 
# crystal, experimental, refinement or atomic coordinate data resulting 
# from the CCDC's data processing and validation procedures.
#
#######################################################################

data_AXENAS
_symmetry_cell_setting           orthorhombic
_symmetry_space_group_name_H-M   'P 21 21 2'
_symmetry_Int_Tables_number      18
_space_group_name_Hall           'P 2 2ab'
loop_
_symmetry_equiv_pos_site_id
_symmetry_equiv_pos_as_xyz
1 x,y,z
2 -x,-y,z
3 1/2-x,1/2+y,-z
4 1/2+x,1/2-y,-z
_cell_length_a                   11.3714(14)
_cell_length_b                   30.770(4)
_cell_length_c                   9.0605(11)
_cell_angle_alpha                90
_cell_angle_beta                 90
_cell_angle_gamma                90
_cell_volume                     3170.25
loop_
_atom_site_label
_atom_site_type_symbol
_atom_site_fract_x
_atom_site_fract_y
_atom_site_fract_z
Ag1 Ag -0.67921(5) 0.478260(15) -0.67844(6)
N1 N -0.7266(4) 0.41477(16) -0.6031(6)
N2 N -0.3609(4) 0.46505(14) 0.1879(5)
O1 O -0.4913(3) 0.32945(11) -0.4078(4)
O2 O -0.2656(3) 0.39257(11) -0.2467(4)
C1 C -0.6075(5) 0.31643(19) -0.3973(7)
H1 H -0.6333 0.3180 -0.2954
H2 H -0.6152 0.2866 -0.4302
C2 C -0.6835(4) 0.34590(16) -0.4926(5)
C3 C -0.6588(5) 0.38697(18) -0.5233(6)
H3 H -0.5883 0.3979 -0.4867
C4 C -0.8269(5) 0.39738(19) -0.6549(7)
H4 H -0.8763 0.4141 -0.7140
C5 C -0.8584(6) 0.3540(2) -0.6206(8)
H5 H -0.9288 0.3426 -0.6558
C6 C -0.7889(5) 0.3299(2) -0.5395(7)
H6 H -0.8115 0.3019 -0.5138
C7 C -0.2923(4) 0.31088(14) -0.3646(5)
C8 C -0.4098(4) 0.30302(15) -0.3352(6)
C9 C -0.4431(5) 0.26877(18) -0.2420(6)
H7 H -0.5223 0.2633 -0.2241
C10 C -0.3585(5) 0.24330(16) -0.1773(6)
H8 H -0.3819 0.2208 -0.1156
C11 C -0.2400(4) 0.24993(16) -0.2006(6)
C12 C -0.1546(5) 0.22238(18) -0.1373(5)
H9 H -0.1792 0.1988 -0.0810
C13 C -0.0374(5) 0.22922(18) -0.1563(6)
H10 H 0.0179 0.2110 -0.1128
C14 C -0.0010(5) 0.2666(2) -0.2483(7)
H11 H 0.0783 0.2736 -0.2567
C15 C -0.0829(4) 0.29105(16) -0.3212(7)
H12 H -0.0585 0.3126 -0.3862
C16 C -0.2084(4) 0.28363(15) -0.2981(5)
C17 C -0.2527(4) 0.34904(15) -0.4543(5)
C18 C -0.2370(4) 0.38928(16) -0.3949(6)
C19 C -0.1872(5) 0.42351(16) -0.4701(6)
H13 H -0.1784 0.4504 -0.4249
C20 C -0.1512(5) 0.41736(17) -0.6110(6)
H14 H -0.1150 0.4403 -0.6603
C21 C -0.1663(4) 0.37781(16) -0.6854(6)
C22 C -0.1364(5) 0.3702(2) -0.8337(6)
H15 H -0.1033 0.3930 -0.8870
C23 C -0.1520(5) 0.3332(2) -0.9014(6)
H16 H -0.1271 0.3298 -0.9985
C24 C -0.2092(5) 0.2969(2) -0.8239(6)
H17 H -0.2240 0.2709 -0.8725
C25 C -0.2393(4) 0.30196(16) -0.6829(6)
H18 H -0.2735 0.2789 -0.6322
C26 C -0.2196(4) 0.34283(17) -0.6071(5)
C27 C -0.2723(7) 0.4342(2) -0.1886(8)
H19 H -0.3160 0.4532 -0.2539
H20 H -0.1943 0.4462 -0.1739
C28 C -0.3363(7) 0.42882(19) -0.0407(7)
C29 C -0.3248(6) 0.46312(18) 0.0526(6)
H21 H -0.2872 0.4876 0.0155
C30 C -0.4223(5) 0.43144(19) 0.2422(7)
H22 H -0.4477 0.4323 0.3398
C31 C -0.4488(5) 0.3956(2) 0.1573(8)
H23 H -0.4943 0.3728 0.1929
C32 C -0.4029(7) 0.3957(2) 0.0146(8)
H24 H -0.4186 0.3720 -0.0460
N2A N -0.6391(4) 0.53495(14) -0.8121(5)
Ag1A Ag -0.32079(5) 0.521740(15) 0.32156(6)
N3 N -0.8242(4) 0.40763(14) -0.1741(6)
O3 O -0.8599(11) 0.4456(3) -0.2496(13)
O4 O -0.7221(8) 0.4159(5) -0.0907(16)
O5 O -0.8527(9) 0.3630(3) -0.1546(11)
O6 O -0.5000 0.5000 -0.376(2)
H25 H -0.4612 0.5142 -0.3149
H25A H -0.5388 0.4858 -0.3149
O7 O -1.0000 0.5000 -0.8474(12)
H26 H -0.9400 0.4860 -0.8264
H26A H -1.0600 0.5140 -0.8264
loop_
_geom_bond_atom_site_label_1
_geom_bond_atom_site_label_2
_geom_bond_site_symmetry_1
_geom_bond_site_symmetry_2
Ag1 N1 1_555 1_555
N1 C3 1_555 1_555
N2 C29 1_555 1_555
O1 C1 1_555 1_555
O2 C18 1_555 1_555
C1 H1 1_555 1_555
H2 C1 1_555 1_555
C2 C1 1_555 1_555
C3 C2 1_555 1_555
H3 C3 1_555 1_555
C4 N1 1_555 1_555
H4 C4 1_555 1_555
C5 C4 1_555 1_555
H5 C5 1_555 1_555
C6 C2 1_555 1_555
H6 C6 1_555 1_555
C7 C8 1_555 1_555
C8 O1 1_555 1_555
C9 C8 1_555 1_555
H7 C9 1_555 1_555
C10 C9 1_555 1_555
H8 C10 1_555 1_555
C11 C10 1_555 1_555
C12 C11 1_555 1_555
H9 C12 1_555 1_555
C13 C12 1_555 1_555
H10 C13 1_555 1_555
C14 C13 1_555 1_555
H11 C14 1_555 1_555
C15 C14 1_555 1_555
H12 C15 1_555 1_555
C16 C7 1_555 1_555
C17 C7 1_555 1_555
C18 C17 1_555 1_555
C19 C18 1_555 1_555
H13 C19 1_555 1_555
C20 C19 1_555 1_555
H14 C20 1_555 1_555
C21 C20 1_555 1_555
C22 C21 1_555 1_555
H15 C22 1_555 1_555
C23 C22 1_555 1_555
H16 C23 1_555 1_555
C24 C23 1_555 1_555
H17 C24 1_555 1_555
C25 C24 1_555 1_555
H18 C25 1_555 1_555
C26 C17 1_555 1_555
C27 O2 1_555 1_555
H19 C27 1_555 1_555
H20 C27 1_555 1_555
C28 C27 1_555 1_555
C29 C28 1_555 1_555
H21 C29 1_555 1_555
C30 N2 1_555 1_555
H22 C30 1_555 1_555
C31 C30 1_555 1_555
H23 C31 1_555 1_555
C32 C28 1_555 1_555
H24 C32 1_555 1_555
N3 O3 1_555 1_555
O4 N3 1_555 1_555
O5 N3 1_555 1_555
O6 H25 1_555 1_555
O7 H26 1_555 1_555
N2A Ag1 1_555 1_555
Ag1A N2 1_555 1_555
H25A O6 1_555 1_555
H26A O7 1_555 1_555
C5 C6 1_555 1_555
C11 C16 1_555 1_555
C15 C16 1_555 1_555
C21 C26 1_555 1_555
C25 C26 1_555 1_555
C31 C32 1_555 1_555

#END
