
#######################################################################
#
#                 Cambridge Crystallographic Data Centre
#                                CCDC 
#
#######################################################################
#
# If this CIF has been generated from an entry in the Cambridge 
# Structural Database, then it will include bibliographic, chemical, 
# crystal, experimental, refinement or atomic coordinate data resulting 
# from the CCDC's data processing and validation procedures.
#
#######################################################################

data_AXEWAB
_symmetry_cell_setting           triclinic
_symmetry_space_group_name_H-M   'P -1'
_symmetry_Int_Tables_number      2
_space_group_name_Hall           '-P 1'
loop_
_symmetry_equiv_pos_site_id
_symmetry_equiv_pos_as_xyz
1 x,y,z
2 -x,-y,-z
_cell_length_a                   8.461(6)
_cell_length_b                   14.411(11)
_cell_length_c                   15.377(12)
_cell_angle_alpha                112.881(13)
_cell_angle_beta                 104.136(13)
_cell_angle_gamma                94.429(14)
_cell_volume                     1643.7
loop_
_atom_site_label
_atom_site_type_symbol
_atom_site_fract_x
_atom_site_fract_y
_atom_site_fract_z
Fe1 Fe 0.27226(16) 0.26716(10) 0.14953(11)
Ni1 Ni -0.5000 0.5000 -0.5000
Ni2 Ni 0.0000 0.5000 0.0000
N1 N 0.1128(9) 0.4129(6) 0.0704(6)
N2 N 0.4156(11) 0.1152(6) 0.2261(7)
N3 N 0.3250(8) 0.4137(5) 0.3611(6)
N4 N 0.6222(10) 0.3737(6) 0.1880(7)
N5 N 0.2245(12) 0.1718(6) 0.0075(7)
N6 N 0.0431(9) 0.1979(5) 0.1227(7)
N7 N -0.2086(9) 0.3861(6) -0.0817(7)
H1 H -0.2713 0.4046 -0.1272
N8 N -0.1186(9) 0.5568(6) 0.1099(6)
H2 H -0.0775 0.5340 0.1568
N9 N 0.0774(13) 0.7160(6) 0.1986(8)
N10 N -0.4347(10) 0.3680(6) -0.4897(6)
H3 H -0.3683 0.3884 -0.4267
N11 N -0.6803(9) 0.5021(6) -0.4312(6)
H4 H -0.3708 0.4695 -0.6351
N12 N -0.6724(13) 0.3315(7) -0.4432(8)
C1 C 0.1793(11) 0.3636(7) 0.1046(7)
C2 C 0.3653(14) 0.1716(8) 0.1950(8)
C3 C 0.3012(11) 0.3583(7) 0.2806(8)
C4 C 0.4933(13) 0.3312(8) 0.1706(7)
C5 C 0.3287(16) 0.1613(8) -0.0435(10)
H5 H 0.4375 0.1974 -0.0124
C6 C 0.281(2) 0.0970(9) -0.1442(12)
H6 H 0.3566 0.0894 -0.1799
C7 C 0.1176(18) 0.0444(9) -0.1903(10)
H7 H 0.0816 0.0016 -0.2576
C8 C 0.0130(15) 0.0570(8) -0.1353(10)
H8 H -0.0973 0.0235 -0.1657
C9 C 0.0642(16) 0.1177(7) -0.0359(9)
C10 C -0.0323(14) 0.1342(7) 0.0304(9)
C11 C -0.2021(16) 0.0868(7) -0.0016(10)
H9 H -0.2564 0.0441 -0.0677
C12 C -0.2840(15) 0.1073(10) 0.0707(13)
H10 H -0.3957 0.0780 0.0520
C13 C -0.2056(14) 0.1681(9) 0.1666(11)
H11 H -0.2602 0.1794 0.2144
C14 C -0.0409(14) 0.2134(7) 0.1917(9)
H12 H 0.0150 0.2557 0.2577
C15 C -0.3004(13) 0.3936(8) -0.0071(9)
H13 H -0.4159 0.3604 -0.0413
H14 H -0.2522 0.3585 0.0324
C16 C -0.2904(12) 0.5033(8) 0.0587(8)
H15 H -0.3455 0.5370 0.0195
H16 H -0.3479 0.5069 0.1070
C17 C -0.0911(13) 0.6690(8) 0.1594(7)
H17 H -0.1459 0.6945 0.1124
H18 H -0.1419 0.6884 0.2125
C18 C -0.1762(14) 0.2838(8) -0.1353(9)
H19 H -0.2812 0.2367 -0.1747
H20 H -0.1195 0.2592 -0.0880
C19 C 0.1571(16) 0.7004(9) 0.2825(9)
H21 H 0.2714 0.7342 0.3076
H22 H 0.1508 0.6282 0.2644
H23 H 0.1031 0.7280 0.3326
C20 C -0.5702(16) 0.2936(8) -0.5027(9)
H24 H -0.4739 0.7611 -0.5110
H25 H -0.3625 0.7361 -0.4286
C21 C -0.3261(13) 0.3363(8) -0.5536(8)
H26 H -0.2579 0.2924 -0.5342
H27 H -0.3940 0.2970 -0.6217
C22 C -0.2172(12) 0.4264(7) -0.5467(8)
H28 H -0.1539 0.4038 -0.5933
H29 H -0.1397 0.4613 -0.4806
C23 C -0.7721(13) 0.4021(9) -0.4579(8)
H30 H -0.1507 0.5907 -0.5807
H31 H -0.1631 0.6261 -0.4730
C24 C -0.420(3) 0.6310(18) -0.682(3)
H32 H -0.4918 0.6772 -0.6909
H33 H -0.3361 0.6323 -0.7137
H34 H -0.4844 0.5626 -0.7105
N1A N -0.1128(9) 0.5871(6) -0.0704(6)
C1A C -0.1793(11) 0.6364(7) -0.1046(7)
Fe1A Fe -0.27226(16) 0.73284(10) -0.14953(11)
N5A N -0.2245(12) 0.8282(6) -0.0075(7)
C5A C -0.3287(16) 0.8387(8) 0.0435(10)
H5A H -0.4375 0.8026 0.0124
C6A C -0.281(2) 0.9030(9) 0.1442(12)
H6A H -0.3566 0.9106 0.1799
C7A C -0.1176(18) 0.9556(9) 0.1903(10)
H7A H -0.0816 0.9984 0.2576
C8A C -0.0130(15) 0.9430(8) 0.1353(10)
H8A H 0.0973 0.9765 0.1657
C9A C -0.0642(16) 0.8823(7) 0.0359(9)
C10A C 0.0323(14) 0.8658(7) -0.0304(9)
N6A N -0.0431(9) 0.8021(5) -0.1227(7)
C2A C -0.3653(14) 0.8284(8) -0.1950(8)
N2A N -0.4156(11) 0.8848(6) -0.2261(7)
C3A C -0.3012(11) 0.6417(7) -0.2806(8)
N3A N -0.3250(8) 0.5863(5) -0.3611(6)
Ni1_2 Ni 0.5000 0.5000 0.5000
N3_2 N -0.6750(8) 0.4137(5) -0.6389(6)
N10A N -0.5653(10) 0.6320(6) -0.5103(6)
H3A H -0.6317 0.6116 -0.5733
C20A C -0.4298(16) 0.7064(8) -0.4973(9)
N12A N -0.3276(13) 0.6685(7) -0.5568(8)
C23A C -0.2279(13) 0.5979(9) -0.5421(8)
N11A N -0.3197(9) 0.4979(6) -0.5688(6)
C21A C -0.6739(13) 0.6637(8) -0.4464(8)
H26A H -0.7421 0.7076 -0.4658
H27A H -0.6060 0.7030 -0.3783
C22A C -0.7828(12) 0.5736(7) -0.4533(8)
H4A H -0.6292 0.5305 -0.3649
H28A H -0.8461 0.5962 -0.4067
H29A H -0.8603 0.5387 -0.5194
H30A H -0.8493 0.4093 -0.4193
H31A H -0.8369 0.3739 -0.5270
C24A C -0.580(3) 0.3690(18) -0.318(3)
H32A H -0.5082 0.3228 -0.3091
H33A H -0.6639 0.3677 -0.2863
H34A H -0.5156 0.4374 -0.2895
H24A H -0.5261 0.2389 -0.4890
H25A H -0.6375 0.2639 -0.5714
C4A C -0.4933(13) 0.6688(8) -0.1706(7)
N4A N -0.6222(10) 0.6263(6) -0.1880(7)
C14A C 0.0409(14) 0.7866(7) -0.1917(9)
C13A C 0.2056(14) 0.8319(9) -0.1666(11)
C12A C 0.2840(15) 0.8927(10) -0.0707(13)
C11A C 0.2021(16) 0.9132(7) 0.0016(10)
H9A H 0.2564 0.9559 0.0677
H10A H 0.3957 0.9220 -0.0520
H11A H 0.2602 0.8206 -0.2144
H12A H -0.0150 0.7443 -0.2577
N7A N 0.2086(9) 0.6139(6) 0.0817(7)
H1A H 0.2713 0.5954 0.1272
C15A C 0.3004(13) 0.6064(8) 0.0071(9)
H13A H 0.4159 0.6396 0.0413
H14A H 0.2522 0.6415 -0.0324
C16A C 0.2904(12) 0.4967(8) -0.0587(8)
N8A N 0.1186(9) 0.4432(6) -0.1099(6)
H2A H 0.0775 0.4660 -0.1568
C17A C 0.0911(13) 0.3310(8) -0.1594(7)
N9A N -0.0774(13) 0.2840(6) -0.1986(8)
C19A C -0.1571(16) 0.2996(9) -0.2825(9)
H21A H -0.2714 0.2658 -0.3076
H22A H -0.1508 0.3718 -0.2644
H23A H -0.1031 0.2720 -0.3326
H17A H 0.1459 0.3055 -0.1124
H18A H 0.1419 0.3116 -0.2125
H15A H 0.3455 0.4630 -0.0195
H16A H 0.3479 0.4931 -0.1070
C18A C 0.1762(14) 0.7162(8) 0.1353(9)
H19A H 0.2812 0.7633 0.1747
H20A H 0.1195 0.7408 0.0880
O1 O 0.9560(8) 0.4779(5) 0.2719(5)
O2 O 0.5174(16) 0.0079(8) 0.6755(9)
O3 O 0.820(2) 0.0546(14) 0.6404(15)
O4 O 0.931(3) 0.8648(16) 0.545(3)
O5 O 0.205(3) 0.958(3) 0.553(2)
loop_
_geom_bond_atom_site_label_1
_geom_bond_atom_site_label_2
_geom_bond_site_symmetry_1
_geom_bond_site_symmetry_2
Fe1 N5 1_555 1_555
Ni1 N10 1_555 1_555
Ni2 N1 1_555 1_555
N1 C1 1_555 1_555
N2 C2 1_555 1_555
N3 C3 1_555 1_555
N4 C4 1_555 1_555
N5 C5 1_555 1_555
N6 Fe1 1_555 1_555
N7 Ni2 1_555 1_555
H1 N7 1_555 1_555
N8 Ni2 1_555 1_555
H2 N8 1_555 1_555
N9 C17 1_555 1_555
N10 H3 1_555 1_555
N11 Ni1 1_555 1_555
H4 N11A 1_555 1_555
N12 C20 1_555 1_555
C1 Fe1 1_555 1_555
C2 Fe1 1_555 1_555
C3 Fe1 1_555 1_555
C4 Fe1 1_555 1_555
C5 H5 1_555 1_555
C6 C5 1_555 1_555
H6 C6 1_555 1_555
C7 C6 1_555 1_555
H7 C7 1_555 1_555
C8 C7 1_555 1_555
H8 C8 1_555 1_555
C9 N5 1_555 1_555
C10 N6 1_555 1_555
C11 C10 1_555 1_555
H9 C11 1_555 1_555
C12 C11 1_555 1_555
H10 C12 1_555 1_555
C13 C12 1_555 1_555
H11 C13 1_555 1_555
C14 N6 1_555 1_555
H12 C14 1_555 1_555
C15 N7 1_555 1_555
H13 C15 1_555 1_555
H14 C15 1_555 1_555
C16 N8 1_555 1_555
H15 C16 1_555 1_555
H16 C16 1_555 1_555
C17 N8 1_555 1_555
H17 C17 1_555 1_555
H18 C17 1_555 1_555
C18 N7 1_555 1_555
H19 C18 1_555 1_555
H20 C18 1_555 1_555
C19 N9 1_555 1_555
H21 C19 1_555 1_555
H22 C19 1_555 1_555
H23 C19 1_555 1_555
C20 N10 1_555 1_555
H24 C20A 1_555 1_555
H25 C20A 1_555 1_555
C21 N10 1_555 1_555
H26 C21 1_555 1_555
H27 C21 1_555 1_555
C22 C21 1_555 1_555
H28 C22 1_555 1_555
H29 C22 1_555 1_555
C23 N11 1_555 1_555
H30 C23A 1_555 1_555
H31 C23A 1_555 1_555
C24 H32 1_555 1_555
H33 C24 1_555 1_555
H34 C24 1_555 1_555
N1A Ni2 1_555 1_555
C1A N1A 1_555 1_555
Fe1A C1A 1_555 1_555
N5A Fe1A 1_555 1_555
C5A N5A 1_555 1_555
H5A C5A 1_555 1_555
C6A C5A 1_555 1_555
H6A C6A 1_555 1_555
C7A C6A 1_555 1_555
H7A C7A 1_555 1_555
C8A C7A 1_555 1_555
H8A C8A 1_555 1_555
C9A N5A 1_555 1_555
C10A C9A 1_555 1_555
N6A Fe1A 1_555 1_555
C2A Fe1A 1_555 1_555
N2A C2A 1_555 1_555
C3A Fe1A 1_555 1_555
N3A Ni1 1_555 1_555
Ni1_2 N3 1_555 1_555
N3_2 Ni1 1_555 1_555
N10A Ni1 1_555 1_555
H3A N10A 1_555 1_555
C20A N10A 1_555 1_555
N12A C24 1_555 1_555
C23A N12A 1_555 1_555
N11A Ni1 1_555 1_555
C21A N10A 1_555 1_555
H26A C21A 1_555 1_555
H27A C21A 1_555 1_555
C22A N11 1_555 1_555
H4A N11 1_555 1_555
H28A C22A 1_555 1_555
H29A C22A 1_555 1_555
H30A C23 1_555 1_555
H31A C23 1_555 1_555
C24A N12 1_555 1_555
H32A C24A 1_555 1_555
H33A C24A 1_555 1_555
H34A C24A 1_555 1_555
H24A C20 1_555 1_555
H25A C20 1_555 1_555
C4A Fe1A 1_555 1_555
N4A C4A 1_555 1_555
C14A N6A 1_555 1_555
C13A C14A 1_555 1_555
C12A C13A 1_555 1_555
C11A C10A 1_555 1_555
H9A C11A 1_555 1_555
H10A C12A 1_555 1_555
H11A C13A 1_555 1_555
H12A C14A 1_555 1_555
N7A Ni2 1_555 1_555
H1A N7A 1_555 1_555
C15A N7A 1_555 1_555
H13A C15A 1_555 1_555
H14A C15A 1_555 1_555
C16A C15A 1_555 1_555
N8A Ni2 1_555 1_555
H2A N8A 1_555 1_555
C17A N8A 1_555 1_555
N9A C18 1_555 1_555
C19A N9A 1_555 1_555
H21A C19A 1_555 1_555
H22A C19A 1_555 1_555
H23A C19A 1_555 1_555
H17A C17A 1_555 1_555
H18A C17A 1_555 1_555
H15A C16A 1_555 1_555
H16A C16A 1_555 1_555
C18A N9 1_555 1_555
H19A C18A 1_555 1_555
H20A C18A 1_555 1_555
N12 C23 1_555 1_555
C8 C9 1_555 1_555
C9 C10 1_555 1_555
C13 C14 1_555 1_555
C15 C16 1_555 1_555
C22 N11A 1_555 1_555
C8A C9A 1_555 1_555
C10A N6A 1_555 1_555
C3A N3A 1_555 1_555
C20A N12A 1_555 1_555
C23A N11A 1_555 1_555
C21A C22A 1_555 1_555
C12A C11A 1_555 1_555
N7A C18A 1_555 1_555
C16A N8A 1_555 1_555
C17A N9A 1_555 1_555

#END
