
#######################################################################
#
#                 Cambridge Crystallographic Data Centre
#                                CCDC 
#
#######################################################################
#
# If this CIF has been generated from an entry in the Cambridge 
# Structural Database, then it will include bibliographic, chemical, 
# crystal, experimental, refinement or atomic coordinate data resulting 
# from the CCDC's data processing and validation procedures.
#
#######################################################################

data_AXILEY
_symmetry_cell_setting           orthorhombic
_symmetry_space_group_name_H-M   'P b c n'
_symmetry_Int_Tables_number      60
_space_group_name_Hall           '-P 2n 2ab'
loop_
_symmetry_equiv_pos_site_id
_symmetry_equiv_pos_as_xyz
1 x,y,z
2 1/2-x,1/2-y,1/2+z
3 -x,y,1/2-z
4 1/2+x,1/2-y,-z
5 -x,-y,-z
6 1/2+x,1/2+y,1/2-z
7 x,-y,1/2+z
8 1/2-x,1/2+y,z
_cell_length_a                   15.6630(8)
_cell_length_b                   11.4851(6)
_cell_length_c                   22.9896(11)
_cell_angle_alpha                90
_cell_angle_beta                 90
_cell_angle_gamma                90
_cell_volume                     4135.62
loop_
_atom_site_label
_atom_site_type_symbol
_atom_site_fract_x
_atom_site_fract_y
_atom_site_fract_z
Co1 Co 0.5000 0.48183(2) 0.7500
O1 O 0.63067(6) 0.48168(9) 0.75369(4)
H1 H 0.6652(9) 0.4962(14) 0.7283(6)
H2 H 0.6535(10) 0.4408(13) 0.7782(6)
N1 N 0.49877(8) 0.48668(10) 0.84488(5)
C1 C 0.55754(10) 0.54857(13) 0.87430(7)
H3 H 0.5991 0.5903 0.8526
C2 C 0.56080(10) 0.55489(13) 0.93417(6)
H4 H 0.6046 0.5986 0.9526
C3 C 0.49976(9) 0.49715(11) 0.96780(6)
C4 C 0.43856(10) 0.43423(13) 0.93718(6)
H5 H 0.3951 0.3936 0.9577
C5 C 0.44063(9) 0.43061(12) 0.87725(6)
H6 H 0.3984 0.3858 0.8578
N2 N 0.5000 0.29049(13) 0.7500
C6 C 0.42898(9) 0.22868(12) 0.76119(6)
H7 H 0.3777 0.2700 0.7689
C7 C 0.42634(9) 0.10833(12) 0.76205(6)
H8 H 0.3745 0.0692 0.7708
C8 C 0.5000 0.04470(16) 0.7500
N3 N 0.5000 -0.32881(14) 0.7500
C9 C 0.44482(10) -0.26776(12) 0.78277(6)
H9 H 0.4054 -0.3093 0.8063
C10 C 0.44255(9) -0.14749(12) 0.78389(7)
H10 H 0.4021 -0.1082 0.8076
C11 C 0.5000 -0.08418(16) 0.7500
C3D C 0.50024(9) 0.50285(11) 1.03220(6)
C2D C 0.43920(10) 0.44511(13) 1.06583(6)
C1D C 0.44246(10) 0.45143(13) 1.12570(7)
N1D N 0.50123(8) 0.51332(10) 1.15512(5)
C5D C 0.55937(9) 0.56939(12) 1.12275(6)
C4D C 0.56144(10) 0.56577(13) 1.06282(6)
H5D H 0.6049 0.6064 1.0423
H6D H 0.6016 0.6142 1.1422
H3D H 0.4009 0.4097 1.1474
H4D H 0.3954 0.4014 1.0474
C7B C 0.57366(9) 0.10833(12) 0.73795(6)
C6B C 0.57102(9) 0.22868(12) 0.73881(6)
H7B H 0.6223 0.2700 0.7311
H8B H 0.6255 0.0692 0.7292
C9B C 0.55518(10) -0.26776(12) 0.71723(6)
H9B H 0.5946 -0.3093 0.6937
C10B C 0.55745(9) -0.14749(12) 0.71611(7)
H10B H 0.5979 -0.1082 0.6924
O1B O 0.36933(6) 0.48168(9) 0.74631(4)
H1B H 0.3348(9) 0.4962(14) 0.7717(6)
H2B H 0.3465(10) 0.4408(13) 0.7218(6)
N1B N 0.50123(8) 0.48668(10) 0.65512(5)
N3_2 N 0.5000 0.67119(14) 0.7500
Co1_2 Co 0.5000 -0.51817(2) 0.7500
Co1F Co 0.5000 0.51817(2) 1.2500
N4 N 0.72022(9) 0.37029(13) 0.83867(6)
C12 C 0.79664(11) 0.42065(19) 0.83583(8)
H11 H 0.8109 0.4612 0.8011
C13 C 0.85657(11) 0.41812(17) 0.87971(7)
H12 H 0.9102 0.4555 0.8750
C14 C 0.83702(9) 0.36005(13) 0.93085(7)
C15 C 0.75812(11) 0.30603(16) 0.93422(8)
H13 H 0.7423 0.2647 0.9684
C16 C 0.70226(11) 0.31246(16) 0.88753(7)
H14 H 0.6488 0.2739 0.8904
C17 C 0.89799(10) 0.35866(13) 0.98009(7)
C18 C 0.98541(10) 0.34375(14) 0.97161(7)
H15 H 1.0077 0.3330 0.9336
C19 C 1.03919(11) 0.34478(14) 1.01919(8)
H16 H 1.0986 0.3348 1.0126
N5 N 1.01277(9) 0.35897(12) 1.07404(6)
C20 C 0.92916(11) 0.37381(15) 1.08152(7)
H17 H 0.9088 0.3849 1.1201
C21 C 0.86995(10) 0.37419(13) 1.03690(7)
H18 H 0.8110 0.3849 1.0450
N6 N 0.78642(9) 0.28437(12) 0.60219(6)
O2 O 0.83176(8) 0.20714(11) 0.58071(6)
O3 O 0.77683(10) 0.37998(12) 0.57720(7)
O4 O 0.74810(8) 0.26704(11) 0.64958(6)
O5 O 0.74765(8) 0.53061(10) 0.67489(5)
H19 H 0.7478(14) 0.4843(13) 0.6484(7)
H20 H 0.7407(13) 0.5967(9) 0.6622(8)
loop_
_geom_bond_atom_site_label_1
_geom_bond_atom_site_label_2
_geom_bond_site_symmetry_1
_geom_bond_site_symmetry_2
Co1 O1 1_555 1_555
O1 H1 1_555 1_555
H2 O1 1_555 1_555
N1 Co1 1_555 1_555
C1 N1 1_555 1_555
H3 C1 1_555 1_555
C2 C1 1_555 1_555
H4 C2 1_555 1_555
C3 C2 1_555 1_555
C4 C3 1_555 1_555
H5 C4 1_555 1_555
C5 N1 1_555 1_555
H6 C5 1_555 1_555
N2 Co1 1_555 1_555
C6 N2 1_555 1_555
H7 C6 1_555 1_555
C7 C6 1_555 1_555
H8 C7 1_555 1_555
C8 C7 1_555 1_555
N3 C9 1_555 1_555
C9 H9 1_555 1_555
C10 C9 1_555 1_555
H10 C10 1_555 1_555
C11 C8 1_555 1_555
N4 C12 1_555 1_555
C12 H11 1_555 1_555
C13 C12 1_555 1_555
H12 C13 1_555 1_555
C14 C13 1_555 1_555
C15 C14 1_555 1_555
H13 C15 1_555 1_555
C16 N4 1_555 1_555
H14 C16 1_555 1_555
C17 C14 1_555 1_555
C18 C17 1_555 1_555
H15 C18 1_555 1_555
C19 C18 1_555 1_555
H16 C19 1_555 1_555
N5 C19 1_555 1_555
C20 N5 1_555 1_555
H17 C20 1_555 1_555
C21 C17 1_555 1_555
H18 C21 1_555 1_555
N6 O2 1_555 1_555
O3 N6 1_555 1_555
O4 N6 1_555 1_555
O5 H19 1_555 1_555
H20 O5 1_555 1_555
C3D C3 1_555 1_555
C2D C3D 1_555 1_555
C1D C2D 1_555 1_555
N1D C1D 1_555 1_555
C5D N1D 1_555 1_555
C4D C3D 1_555 1_555
H5D C4D 1_555 1_555
H6D C5D 1_555 1_555
H3D C1D 1_555 1_555
H4D C2D 1_555 1_555
C7B C8 1_555 1_555
C6B N2 1_555 1_555
H7B C6B 1_555 1_555
H8B C7B 1_555 1_555
C9B N3 1_555 1_555
H9B C9B 1_555 1_555
C10B C11 1_555 1_555
H10B C10B 1_555 1_555
O1B Co1 1_555 1_555
H1B O1B 1_555 1_555
H2B O1B 1_555 1_555
N1B Co1 1_555 1_555
N3_2 Co1 1_555 1_555
Co1_2 N3 1_555 1_555
Co1F N1D 1_555 1_555
C4 C5 1_555 1_555
C10 C11 1_555 1_555
C15 C16 1_555 1_555
C20 C21 1_555 1_555
C5D C4D 1_555 1_555
C7B C6B 1_555 1_555
C9B C10B 1_555 1_555

#END
