
#######################################################################
#
#                 Cambridge Crystallographic Data Centre
#                                CCDC 
#
#######################################################################
#
# If this CIF has been generated from an entry in the Cambridge 
# Structural Database, then it will include bibliographic, chemical, 
# crystal, experimental, refinement or atomic coordinate data resulting 
# from the CCDC's data processing and validation procedures.
#
#######################################################################

data_AXILOJ
_symmetry_cell_setting           triclinic
_symmetry_space_group_name_H-M   'P -1'
_symmetry_Int_Tables_number      2
_space_group_name_Hall           '-P 1'
loop_
_symmetry_equiv_pos_site_id
_symmetry_equiv_pos_as_xyz
1 x,y,z
2 -x,-y,-z
_cell_length_a                   8.9568(18)
_cell_length_b                   10.087(2)
_cell_length_c                   10.1225(19)
_cell_angle_alpha                78.209(9)
_cell_angle_beta                 73.265(8)
_cell_angle_gamma                79.154(9)
_cell_volume                     849.128
loop_
_atom_site_label
_atom_site_type_symbol
_atom_site_fract_x
_atom_site_fract_y
_atom_site_fract_z
Zn1 Zn 0.56803(3) 0.12933(2) 0.10303(2)
O1 O 0.63868(18) -0.06861(14) 0.17860(14)
O2 O 0.55769(19) -0.65823(15) 0.09987(16)
O3 O 0.58966(18) -0.15961(15) 0.01610(15)
N1 N 0.3618(2) 0.12513(18) 0.28184(18)
C1 C 0.6220(2) -0.16890(19) 0.1290(2)
O4 O 0.6918(2) -0.79335(15) 0.23764(18)
N2 N -0.2398(2) 0.13484(18) 0.91652(18)
C2 C 0.6324(2) -0.4237(2) 0.1640(2)
H1 H 0.6050 -0.4136 0.0792
C3 C 0.1145(2) 0.1297(2) 0.5271(2)
C4 C 0.6354(3) -0.6764(2) 0.1897(2)
C5 C 0.3617(3) 0.0298(2) 0.3945(2)
H2 H 0.4477 -0.0403 0.3905
C6 C -0.0096(2) 0.1327(2) 0.6605(2)
C7 C 0.1130(3) 0.2283(3) 0.4085(3)
H3 H 0.0279 0.2989 0.4092
C8 C -0.1305(3) 0.0271(2) 0.8919(2)
H4 H -0.1315 -0.0493 0.9628
C9 C 0.6486(2) -0.3089(2) 0.2123(2)
C10 C 0.6567(3) -0.5538(2) 0.2410(2)
C11 C 0.2434(3) 0.0280(2) 0.5160(2)
H5 H 0.2497 -0.0423 0.5918
C12 C -0.1225(3) 0.2455(2) 0.6878(3)
H6 H -0.1234 0.3239 0.6192
C13 C 0.6858(3) -0.3249(2) 0.3396(3)
H7 H 0.6950 -0.2476 0.3736
C14 C 0.6964(3) -0.5685(2) 0.3668(3)
H8 H 0.7144 -0.6561 0.4182
C15 C 0.2361(3) 0.2221(2) 0.2905(2)
H9 H 0.2319 0.2894 0.2118
C16 C -0.2333(3) 0.2433(2) 0.8151(3)
H10 H -0.3074 0.3216 0.8311
C17 C -0.0157(3) 0.0218(2) 0.7675(2)
H11 H 0.0584 -0.0571 0.7553
C18 C 0.7094(4) -0.4537(3) 0.4165(3)
H12 H 0.7343 -0.4635 0.5024
Zn1_2 Zn 0.56803(3) -0.87067(2) 0.10303(2)
Zn1A Zn 0.43197(3) -0.12933(2) -0.10303(2)
Zn1_3 Zn -0.43197(3) 0.12933(2) 1.10303(2)
O2_2 O 0.55769(19) 0.34177(15) 0.09987(16)
O3A O 0.41034(18) 0.15961(15) -0.01610(15)
O4_2 O 0.6918(2) 0.20665(15) 0.23764(18)
N2_2 N 0.7602(2) 0.13484(18) -0.08348(18)
loop_
_geom_bond_atom_site_label_1
_geom_bond_atom_site_label_2
_geom_bond_site_symmetry_1
_geom_bond_site_symmetry_2
Zn1 O1 1_555 1_555
O1 C1 1_555 1_555
O2 C4 1_555 1_555
O3 C1 1_555 1_555
N1 Zn1 1_555 1_555
C1 C9 1_555 1_555
O4 C4 1_555 1_555
N2 C8 1_555 1_555
C2 H1 1_555 1_555
C3 C6 1_555 1_555
C4 C10 1_555 1_555
C5 N1 1_555 1_555
H2 C5 1_555 1_555
C6 C12 1_555 1_555
C7 C3 1_555 1_555
H3 C7 1_555 1_555
C8 H4 1_555 1_555
C9 C2 1_555 1_555
C10 C2 1_555 1_555
C11 C3 1_555 1_555
H5 C11 1_555 1_555
C12 H6 1_555 1_555
C13 C9 1_555 1_555
H7 C13 1_555 1_555
C14 C10 1_555 1_555
H8 C14 1_555 1_555
C15 N1 1_555 1_555
H9 C15 1_555 1_555
C16 N2 1_555 1_555
H10 C16 1_555 1_555
C17 C6 1_555 1_555
H11 C17 1_555 1_555
C18 C13 1_555 1_555
H12 C18 1_555 1_555
Zn1_2 O2 1_555 1_555
Zn1A O3 1_555 1_555
Zn1_3 N2 1_555 1_555
O2_2 Zn1 1_555 1_555
O3A Zn1 1_555 1_555
O4_2 Zn1 1_555 1_555
N2_2 Zn1 1_555 1_555
O4 Zn1_2 1_555 1_555
C5 C11 1_555 1_555
C7 C15 1_555 1_555
C8 C17 1_555 1_555
C12 C16 1_555 1_555
C14 C18 1_555 1_555

#END
