
#######################################################################
#
#                 Cambridge Crystallographic Data Centre
#                                CCDC 
#
#######################################################################
#
# If this CIF has been generated from an entry in the Cambridge 
# Structural Database, then it will include bibliographic, chemical, 
# crystal, experimental, refinement or atomic coordinate data resulting 
# from the CCDC's data processing and validation procedures.
#
#######################################################################

data_AXINEA
_symmetry_cell_setting           orthorhombic
_symmetry_space_group_name_H-M   'F d d d'
_symmetry_Int_Tables_number      70
_space_group_name_Hall           '-F 2uv 2vw'
loop_
_symmetry_equiv_pos_site_id
_symmetry_equiv_pos_as_xyz
1 x,y,z
2 x,1/2+y,1/2+z
3 x,1/4-y,1/4-z
4 1/2+x,y,1/2+z
5 1/4-x,y,1/4-z
6 1/2+x,1/2+y,z
7 1/4-x,1/4-y,z
8 1/4+x,1/4+y,-z
9 1/4+x,-y,1/4+z
10 -x,1/4+y,1/4+z
11 1/4+x,3/4+y,1/2-z
12 1/4+x,1/2-y,3/4+z
13 3/4+x,1/4+y,1/2-z
14 1/2-x,1/4+y,3/4+z
15 3/4+x,1/2-y,1/4+z
16 1/2-x,3/4+y,1/4+z
17 -x,-y,-z
18 -x,1/2-y,1/2-z
19 -x,3/4+y,3/4+z
20 1/2-x,-y,1/2-z
21 3/4+x,-y,3/4+z
22 1/2-x,1/2-y,-z
23 3/4+x,3/4+y,-z
24 3/4-x,3/4-y,z
25 3/4-x,y,3/4-z
26 x,3/4-y,3/4-z
27 3/4-x,1/4-y,1/2+z
28 3/4-x,1/2+y,1/4-z
29 1/4-x,3/4-y,1/2+z
30 1/2+x,3/4-y,1/4-z
31 1/4-x,1/2+y,3/4-z
32 1/2+x,1/4-y,3/4-z
_cell_length_a                   15.4237(9)
_cell_length_b                   25.4287(14)
_cell_length_c                   30.7870(16)
_cell_angle_alpha                90
_cell_angle_beta                 90
_cell_angle_gamma                90
_cell_volume                     12074.8
loop_
_atom_site_label
_atom_site_type_symbol
_atom_site_fract_x
_atom_site_fract_y
_atom_site_fract_z
S1 S 0.6483(2) 0.90824(14) 0.60463(8)
O5 O 0.6250 0.86026(15) 0.6250
O6 O 0.6129(4) 0.9181(3) 0.56579(12)
O7 O 0.7403(2) 0.9069(3) 0.6028(2)
F1 F 0.6685(4) 0.99864(17) 0.6199(2)
F2 F 0.7075(3) 0.9517(3) 0.6070(3)
F3 F 0.5714(4) 0.9367(2) 0.57222(14)
C13 C 0.6348(3) 0.9549(2) 0.64195(18)
S1D S 0.6017(2) 0.90824(14) 0.64537(8)
O6D O 0.6371(4) 0.9181(3) 0.68421(12)
F3D F 0.6786(4) 0.9367(2) 0.67778(14)
O7D O 0.5097(2) 0.9069(3) 0.6472(2)
F2D F 0.5425(3) 0.9517(3) 0.6430(3)
C13D C 0.6152(3) 0.9549(2) 0.60805(18)
F1D F 0.5815(4) 0.99864(17) 0.6301(2)
O9 O 0.6995(8) 1.0851(4) 0.6347(4)
La1 La 0.474656(9) 0.6250 0.6250
O1 O 0.38027(10) 0.64080(5) 0.68957(4)
O2 O 0.38754(11) 0.70625(6) 0.61231(5)
N1 N 0.38227(11) 0.68044(6) 0.71748(5)
O3 O 0.30568(11) 0.82715(5) 0.81561(4)
C1 C 0.37862(13) 0.75942(7) 0.77859(6)
C2 C 0.37422(14) 0.80155(7) 0.81288(5)
O4 O 0.44057(11) 0.80683(6) 0.83595(4)
N2 N 0.39409(13) 0.74127(7) 0.58099(6)
C3 C 0.33314(15) 0.76404(8) 0.74014(6)
H1 H 0.3000 0.7939 0.7348
C4 C 0.33701(15) 0.72416(8) 0.70965(6)
H2 H 0.3078 0.7278 0.6834
C5 C 0.36426(18) 0.76856(10) 0.50967(8)
H3 H 0.3387 0.7615 0.4829
C6 C 0.35863(18) 0.73200(9) 0.54194(8)
H4 H 0.3300 0.7004 0.5369
C7 C 0.42906(16) 0.67544(8) 0.75394(6)
H5 H 0.4618 0.6452 0.7585
C8 C 0.42895(16) 0.71502(8) 0.78472(6)
H6 H 0.4628 0.7118 0.8096
C9 C 0.4460(2) 0.82350(10) 0.55592(8)
H7 H 0.4777 0.8540 0.5612
C10 C 0.40689(17) 0.81581(9) 0.51557(7)
C11 C 0.41154(19) 0.85525(9) 0.47929(8)
H8 H 0.4112 0.8366 0.4518
H9 H 0.4661 0.8740 0.4813
C12 C 0.43796(19) 0.78634(10) 0.58779(8)
H10 H 0.4633 0.7923 0.6147
C11W C 0.33846(19) 0.89475(9) 0.47929(8)
C10W C 0.34311(17) 0.93419(9) 0.51557(7)
C5W C 0.38574(18) 0.98144(10) 0.50967(8)
H3W H 0.4113 0.9885 0.4829
C6W C 0.39137(18) 1.01800(9) 0.54194(8)
N2W N 0.35591(13) 1.00873(7) 0.58099(6)
O2W O 0.36246(11) 1.04375(6) 0.61231(5)
C12W C 0.31204(19) 0.96366(10) 0.58779(8)
C9W C 0.3040(2) 0.92650(10) 0.55592(8)
H7W H 0.2723 0.8960 0.5612
H10W H 0.2867 0.9577 0.6147
H4W H 0.4200 1.0496 0.5369
H8W H 0.3388 0.9134 0.4518
H9W H 0.2839 0.8760 0.4813
O1B O 0.38027(10) 0.60920(5) 0.56043(4)
N1B N 0.38227(11) 0.56956(6) 0.53252(5)
O3B O 0.30568(11) 0.42285(5) 0.43439(4)
C1B C 0.37862(13) 0.49058(7) 0.47141(6)
C2B C 0.37422(14) 0.44845(7) 0.43712(5)
O4B O 0.44057(11) 0.44317(6) 0.41405(4)
C3B C 0.33314(15) 0.48596(8) 0.50986(6)
H1B H 0.3000 0.4561 0.5152
C4B C 0.33701(15) 0.52584(8) 0.54035(6)
H2B H 0.3078 0.5222 0.5666
C7B C 0.42906(16) 0.57456(8) 0.49606(6)
H5B H 0.4618 0.6048 0.4915
C8B C 0.42895(16) 0.53498(8) 0.46528(6)
H6B H 0.4628 0.5382 0.4404
O2B O 0.38754(11) 0.54375(6) 0.63769(5)
O3J O 0.55568(11) 0.57715(5) 0.68439(4)
O3K O 0.55568(11) 0.67285(5) 0.56561(4)
O4Q O 0.55943(11) 0.69317(6) 0.66405(4)
O4R O 0.55943(11) 0.55683(6) 0.58595(4)
La1L La 0.224656(9) 0.8750 0.8750
La1I La 0.525344(9) 0.8750 0.8750
La1W La 0.275344(9) 1.1250 0.6250
La1T La 0.224656(9) 0.3750 0.3750
La1P La 0.525344(9) 0.3750 0.3750
O8? O 0.8387(8) 0.8730(5) 0.5704(3)
loop_
_geom_bond_atom_site_label_1
_geom_bond_atom_site_label_2
_geom_bond_site_symmetry_1
_geom_bond_site_symmetry_2
La1 O1 1_555 1_555
O1 N1 1_555 1_555
O2 La1 1_555 1_555
N1 C4 1_555 1_555
O3 C2 1_555 1_555
C1 C2 1_555 1_555
C2 O4 1_555 1_555
O4 La1I 1_555 1_555
N2 O2 1_555 1_555
C3 C1 1_555 1_555
H1 C3 1_555 1_555
C4 C3 1_555 1_555
H2 C4 1_555 1_555
C5 H3 1_555 1_555
C6 N2 1_555 1_555
H4 C6 1_555 1_555
C7 N1 1_555 1_555
H5 C7 1_555 1_555
C8 C1 1_555 1_555
H6 C8 1_555 1_555
C9 H7 1_555 1_555
C10 C5 1_555 1_555
C11 C10 1_555 1_555
H8 C11 1_555 1_555
H9 C11 1_555 1_555
C12 N2 1_555 1_555
H10 C12 1_555 1_555
S1 O5 1_555 1_555
O5 S1D 1_555 1_555
O6 S1 1_555 1_555
O7 S1 1_555 1_555
F1 F2 1_555 1_555
F2 S1 1_555 1_555
F3 S1 1_555 1_555
C13 S1 1_555 1_555
C11W C11 1_555 1_555
C10W C11W 1_555 1_555
C5W C10W 1_555 1_555
H3W C5W 1_555 1_555
C6W C5W 1_555 1_555
N2W C6W 1_555 1_555
O2W N2W 1_555 1_555
C12W N2W 1_555 1_555
C9W C10W 1_555 1_555
H7W C9W 1_555 1_555
H10W C12W 1_555 1_555
H4W C6W 1_555 1_555
H8W C11W 1_555 1_555
H9W C11W 1_555 1_555
S1D S1 1_555 1_555
O6D C13 1_555 1_555
F3D C13 1_555 1_555
O7D S1D 1_555 1_555
F2D C13 1_555 1_555
C13D S1 1_555 1_555
F1D F1 1_555 1_555
O1B La1 1_555 1_555
N1B O1B 1_555 1_555
O3B C2B 1_555 1_555
C1B C2B 1_555 1_555
C2B O4B 1_555 1_555
O4B La1P 1_555 1_555
C3B C1B 1_555 1_555
H1B C3B 1_555 1_555
C4B N1B 1_555 1_555
H2B C4B 1_555 1_555
C7B N1B 1_555 1_555
H5B C7B 1_555 1_555
C8B C1B 1_555 1_555
H6B C8B 1_555 1_555
O2B La1 1_555 1_555
O3J La1 1_555 1_555
O3K La1 1_555 1_555
O4Q La1 1_555 1_555
O4R La1 1_555 1_555
La1L O3 1_555 1_555
La1W O2W 1_555 1_555
La1T O3B 1_555 1_555
C5 C6 1_555 1_555
C7 C8 1_555 1_555
C9 C10 1_555 1_555
C9 C12 1_555 1_555
O6 F3 1_555 1_555
O6 C13D 1_555 1_555
O7 F2 1_555 1_555
F1 C13D 1_555 1_555
F1 C13 1_555 1_555
F2 C13D 1_555 1_555
F2 C13 1_555 1_555
F3 C13D 1_555 1_555
C13 S1D 1_555 1_555
C13 F1D 1_555 1_555
C13 C13D 1_555 1_555
C12W C9W 1_555 1_555
S1D O6D 1_555 1_555
S1D C13D 1_555 1_555
S1D F3D 1_555 1_555
S1D F2D 1_555 1_555
O6D F3D 1_555 1_555
O7D F2D 1_555 1_555
F2D F1D 1_555 1_555
F2D C13D 1_555 1_555
C13D F1D 1_555 1_555
C3B C4B 1_555 1_555
C7B C8B 1_555 1_555

#END
