
#######################################################################
#
#                 Cambridge Crystallographic Data Centre
#                                CCDC 
#
#######################################################################
#
# If this CIF has been generated from an entry in the Cambridge 
# Structural Database, then it will include bibliographic, chemical, 
# crystal, experimental, refinement or atomic coordinate data resulting 
# from the CCDC's data processing and validation procedures.
#
#######################################################################

data_AXINAW
_symmetry_cell_setting           triclinic
_symmetry_space_group_name_H-M   'P -1'
_symmetry_Int_Tables_number      2
_space_group_name_Hall           '-P 1'
loop_
_symmetry_equiv_pos_site_id
_symmetry_equiv_pos_as_xyz
1 x,y,z
2 -x,-y,-z
_cell_length_a                   10.5878(9)
_cell_length_b                   12.6587(11)
_cell_length_c                   14.5687(12)
_cell_angle_alpha                98.778(2)
_cell_angle_beta                 96.343(2)
_cell_angle_gamma                103.102(2)
_cell_volume                     1858.04
loop_
_atom_site_label
_atom_site_type_symbol
_atom_site_fract_x
_atom_site_fract_y
_atom_site_fract_z
La1 La 0.41761(3) 0.31601(3) -0.02884(2)
S1 S 0.24886(19) 0.13561(16) -0.26717(13)
O1 O 0.3301(5) 0.2360(4) -0.2077(3)
O2 O 0.1282(6) 0.0913(6) -0.2339(4)
O3 O 0.3165(7) 0.0574(5) -0.3019(5)
C1 C 0.1935(9) 0.1843(8) -0.3723(5)
F1 F 0.2957(6) 0.2270(5) -0.4124(4)
F2 F 0.1324(6) 0.2613(5) -0.3528(4)
F3 F 0.1140(6) 0.1024(5) -0.4344(4)
O7 O 0.4962(4) 0.4976(3) -0.0894(2)
N1 N 0.4826(5) 0.4946(4) -0.1829(3)
C3 C 0.5817(6) 0.4799(5) -0.2294(4)
H1 H 0.6578 0.4701 -0.1972
C4 C 0.5715(6) 0.4793(6) -0.3237(4)
H2 H 0.6417 0.4710 -0.3548
C5 C 0.4576(6) 0.4907(5) -0.3737(4)
C6 C 0.3579(6) 0.5071(6) -0.3225(4)
H3 H 0.2814 0.5179 -0.3533
C7 C 0.3703(6) 0.5076(5) -0.2275(4)
H4 H 0.3020 0.5168 -0.1944
C8 C 0.4392(7) 0.4868(7) -0.4786(4)
H5 H 0.3889 0.4133 -0.5089
H6 H 0.3872 0.5379 -0.4926
O8 O 0.6600(4) 0.3280(3) 0.0429(3)
O9 O 0.6180(4) 0.3099(3) -0.1126(3)
O10 O 1.2325(4) 0.4047(4) -0.0537(4)
N2 N 1.1056(5) 0.3790(4) -0.0499(4)
C9 C 0.6959(5) 0.3244(5) -0.0367(4)
C10 C 0.8409(5) 0.3405(5) -0.0425(4)
C11 C 0.9289(6) 0.3501(5) 0.0366(4)
H7 H 0.8993 0.3443 0.0938
C12 C 1.0619(6) 0.3683(6) 0.0316(5)
H8 H 1.1209 0.3732 0.0853
C13 C 1.0223(6) 0.3676(5) -0.1303(5)
H9 H 1.0544 0.3732 -0.1867
C14 C 0.8882(6) 0.3474(5) -0.1275(4)
H10 H 0.8301 0.3385 -0.1825
O11 O 0.3792(4) 0.2809(4) 0.1252(3)
O12 O 0.7806(7) 0.0277(6) 0.8266(4)
N3 N 0.4203(5) 0.2421(4) 0.1998(3)
N4 N 0.7507(7) 0.0728(5) 0.7529(4)
C15 C 0.5342(7) 0.2115(6) 0.2065(5)
H11 H 0.5852 0.2167 0.1585
C16 C 0.5742(8) 0.1727(6) 0.2847(5)
H12 H 0.6521 0.1504 0.2891
C17 C 0.4998(8) 0.1661(5) 0.3577(5)
C18 C 0.3851(7) 0.1982(6) 0.3472(5)
H13 H 0.3331 0.1946 0.3946
C19 C 0.3457(7) 0.2351(6) 0.2689(4)
H14 H 0.2667 0.2557 0.2628
C20 C 0.5478(8) 0.1249(6) 0.4439(5)
H15 H 0.4734 0.0978 0.4746
H16 H 0.5847 0.0631 0.4241
C21 C 0.6484(9) 0.2098(7) 0.5135(6)
H17 H 0.6135 0.2731 0.5319
H18 H 0.7253 0.2343 0.4844
C22 C 0.6879(8) 0.1645(7) 0.6003(6)
C23 C 0.6142(8) 0.1602(6) 0.6718(6)
H19 H 0.5406 0.1887 0.6688
C24 C 0.6468(9) 0.1148(6) 0.7476(5)
H20 H 0.5958 0.1134 0.7957
C25 C 0.7927(9) 0.1203(10) 0.6080(7)
H21 H 0.8443 0.1208 0.5603
C26 C 0.8252(9) 0.0744(9) 0.6847(7)
H22 H 0.8980 0.0449 0.6888
O13 O 0.4533(5) 0.1236(4) -0.0410(3)
H23 H 0.4019 0.0615 -0.0228
H24 H 0.5057 0.1130 -0.0404
O14 O 0.1970(4) 0.1723(4) -0.0390(3)
H25 H 0.1704 0.1413 -0.0878
H26 H 0.1764 0.1651 0.0234
C8A C 0.5608(7) 0.5132(7) -0.5214(4)
C5A C 0.5424(6) 0.5093(5) -0.6263(4)
C4A C 0.4285(6) 0.5207(6) -0.6763(4)
C3A C 0.4183(6) 0.5201(5) -0.7706(4)
N1A N 0.5174(5) 0.5054(4) -0.8171(3)
O7A O 0.5038(4) 0.5024(3) -0.9106(2)
C7A C 0.6297(6) 0.4924(5) -0.7725(4)
C6A C 0.6421(6) 0.4929(6) -0.6775(4)
H3A H 0.7186 0.4821 -0.6467
H4A H 0.6980 0.4832 -0.8056
H1A H 0.3422 0.5299 -0.8028
H2A H 0.3583 0.5290 -0.6452
H5A H 0.6111 0.5867 -0.4911
H6A H 0.6128 0.4621 -0.5074
O8_2 O -0.3400(4) 0.3280(3) 0.0429(3)
O9_2 O -0.3820(4) 0.3099(3) -0.1126(3)
O10_2 O 0.2325(4) 0.4047(4) -0.0537(4)
N2_2 N 0.1056(5) 0.3790(4) -0.0499(4)
C9_2 C -0.3041(5) 0.3244(5) -0.0367(4)
C10_2 C -0.1591(5) 0.3405(5) -0.0425(4)
C11_2 C -0.0711(6) 0.3501(5) 0.0366(4)
H7_2 H -0.1007 0.3443 0.0938
C12_2 C 0.0619(6) 0.3683(6) 0.0316(5)
H8_2 H 0.1209 0.3732 0.0853
C13_2 C 0.0223(6) 0.3676(5) -0.1303(5)
H9_2 H 0.0544 0.3732 -0.1867
C14_2 C -0.1118(6) 0.3474(5) -0.1275(4)
H10_2 H -0.1699 0.3385 -0.1825
La1A La 0.58239(3) 0.68399(3) -0.97116(2)
S1A S 0.75114(19) 0.86439(16) -0.73283(13)
O1A O 0.6699(5) 0.7640(4) -0.7923(3)
O2A O 0.8718(6) 0.9087(6) -0.7661(4)
O3A O 0.6835(7) 0.9426(5) -0.6981(5)
C1A C 0.8065(9) 0.8157(8) -0.6277(5)
F1A F 0.7043(6) 0.7730(5) -0.5876(4)
F2A F 0.8676(6) 0.7387(5) -0.6472(4)
F3A F 0.8860(6) 0.8976(5) -0.5656(4)
O11A O 0.6208(4) 0.7191(4) -1.1252(3)
O12A O 0.2194(7) 0.9723(6) -1.8266(4)
N3A N 0.5797(5) 0.7579(4) -1.1998(3)
N4A N 0.2493(7) 0.9272(5) -1.7529(4)
C15A C 0.4658(7) 0.7885(6) -1.2065(5)
H11A H 0.4148 0.7833 -1.1585
C16A C 0.4258(8) 0.8273(6) -1.2847(5)
H12A H 0.3479 0.8496 -1.2891
C17A C 0.5002(8) 0.8339(5) -1.3577(5)
C18A C 0.6149(7) 0.8018(6) -1.3472(5)
H13A H 0.6669 0.8054 -1.3946
C19A C 0.6543(7) 0.7649(6) -1.2689(4)
H14A H 0.7333 0.7443 -1.2628
C20A C 0.4522(8) 0.8751(6) -1.4439(5)
H15A H 0.5266 0.9022 -1.4746
H16A H 0.4153 0.9369 -1.4241
C21A C 0.3516(9) 0.7902(7) -1.5135(6)
H17A H 0.3865 0.7269 -1.5319
H18A H 0.2747 0.7657 -1.4844
C22A C 0.3121(8) 0.8355(7) -1.6003(6)
C23A C 0.3858(8) 0.8398(6) -1.6718(6)
H19A H 0.4594 0.8113 -1.6688
C24A C 0.3532(9) 0.8852(6) -1.7476(5)
H20A H 0.4042 0.8866 -1.7957
C25A C 0.2073(9) 0.8797(10) -1.6080(7)
H21A H 0.1557 0.8792 -1.5603
C26A C 0.1748(9) 0.9256(9) -1.6847(7)
H22A H 0.1020 0.9551 -1.6888
O13A O 0.5467(5) 0.8764(4) -0.9590(3)
H23A H 0.5981 0.9385 -0.9772
H24A H 0.4943 0.8870 -0.9596
O14A O 0.8030(4) 0.8277(4) -0.9610(3)
H25A H 0.8296 0.8587 -0.9122
H26A H 0.8236 0.8349 -1.0234
O7A_2 O 0.5038(4) 0.5024(3) 0.0894(2)
La1A_2 La 0.58239(3) 0.68399(3) 0.02884(2)
La1_2 La 1.41761(3) 0.31601(3) -0.02884(2)
La1_3 La 0.41761(3) 0.31601(3) -1.02884(2)
La1_4 La -0.58239(3) 0.31601(3) -0.02884(2)
O7_2 O 0.4962(4) 0.4976(3) -1.0894(2)
O8A O 0.3400(4) 0.6720(3) -1.0429(3)
O9A O 0.3820(4) 0.6901(3) -0.8874(3)
O10A O 0.7675(4) 0.5953(4) -0.9463(4)
S2 S 1.0251(3) 0.4085(3) 1.3070(2)
O4 O 1.0955(9) 0.3560(10) 1.2494(6)
O5 O 1.099(2) 0.5238(12) 1.3476(10)
O6 O 0.8954(10) 0.3862(15) 1.2737(7)
C2 C 1.0328(18) 0.339(2) 1.4037(12)
F4 F 0.9731(19) 0.2333(12) 1.3794(10)
F5 F 0.9529(14) 0.3721(12) 1.4642(8)
F6 F 1.1334(11) 0.3519(18) 1.4476(9)
O15 O 0.6873(5) 0.0652(4) 0.9905(4)
H27 H 0.7068 0.0557 0.9536
H28 H 0.6371 0.1519 1.0168
O16 O 0.9361(7) -0.0813(7) 0.9090(5)
H29 H 0.9838 -0.1409 0.8895
H30 H 0.9156 -0.0023 0.8828
O17 O 0.8451(9) 0.1334(7) 1.1627(6)
H31 H 0.8271 0.1006 1.0902
H32 H 0.9075 0.2243 1.2065
loop_
_geom_bond_atom_site_label_1
_geom_bond_atom_site_label_2
_geom_bond_site_symmetry_1
_geom_bond_site_symmetry_2
La1 O1 1_555 1_555
S1 O1 1_555 1_555
O2 S1 1_555 1_555
O3 S1 1_555 1_555
C1 S1 1_555 1_555
F1 C1 1_555 1_555
F2 C1 1_555 1_555
F3 C1 1_555 1_555
S2 O4 1_555 1_555
O5 S2 1_555 1_555
O6 S2 1_555 1_555
C2 S2 1_555 1_555
F4 C2 1_555 1_555
F5 C2 1_555 1_555
F6 C2 1_555 1_555
O7 La1 1_555 1_555
N1 O7 1_555 1_555
C3 N1 1_555 1_555
H1 C3 1_555 1_555
C4 C3 1_555 1_555
H2 C4 1_555 1_555
C5 C4 1_555 1_555
C6 C5 1_555 1_555
H3 C6 1_555 1_555
C7 N1 1_555 1_555
H4 C7 1_555 1_555
C8 C5 1_555 1_555
H5 C8 1_555 1_555
H6 C8 1_555 1_555
O8 La1 1_555 1_555
O9 La1 1_555 1_555
O10 N2 1_555 1_555
N2 C12 1_555 1_555
C9 O8 1_555 1_555
C10 C9 1_555 1_555
C11 C10 1_555 1_555
H7 C11 1_555 1_555
C12 C11 1_555 1_555
H8 C12 1_555 1_555
C13 N2 1_555 1_555
H9 C13 1_555 1_555
C14 C10 1_555 1_555
H10 C14 1_555 1_555
O11 La1 1_555 1_555
O12 N4 1_555 1_555
N3 O11 1_555 1_555
N4 C24 1_555 1_555
C15 N3 1_555 1_555
H11 C15 1_555 1_555
C16 C15 1_555 1_555
H12 C16 1_555 1_555
C17 C16 1_555 1_555
C18 C17 1_555 1_555
H13 C18 1_555 1_555
C19 N3 1_555 1_555
H14 C19 1_555 1_555
C20 C17 1_555 1_555
H15 C20 1_555 1_555
H16 C20 1_555 1_555
C21 C20 1_555 1_555
H17 C21 1_555 1_555
H18 C21 1_555 1_555
C22 C21 1_555 1_555
C23 C22 1_555 1_555
H19 C23 1_555 1_555
C24 C23 1_555 1_555
H20 C24 1_555 1_555
C25 C22 1_555 1_555
H21 C25 1_555 1_555
C26 N4 1_555 1_555
H22 C26 1_555 1_555
O13 La1 1_555 1_555
H23 O13 1_555 1_555
H24 O13 1_555 1_555
O14 La1 1_555 1_555
H25 O14 1_555 1_555
H26 O14 1_555 1_555
O15 H27 1_555 1_555
H28 O15 1_555 1_555
O16 H29 1_555 1_555
H30 O16 1_555 1_555
O17 H31 1_555 1_555
H32 O17 1_555 1_555
C8A C8 1_555 1_555
C5A C8A 1_555 1_555
C4A C5A 1_555 1_555
C3A C4A 1_555 1_555
N1A C3A 1_555 1_555
O7A N1A 1_555 1_555
C7A N1A 1_555 1_555
C6A C5A 1_555 1_555
H3A C6A 1_555 1_555
H4A C7A 1_555 1_555
H1A C3A 1_555 1_555
H2A C4A 1_555 1_555
H5A C8A 1_555 1_555
H6A C8A 1_555 1_555
O8_2 C9_2 1_555 1_555
O9_2 C9_2 1_555 1_555
O10_2 La1 1_555 1_555
N2_2 O10_2 1_555 1_555
C9_2 C10_2 1_555 1_555
C10_2 C11_2 1_555 1_555
C11_2 H7_2 1_555 1_555
C12_2 N2_2 1_555 1_555
H8_2 C12_2 1_555 1_555
C13_2 N2_2 1_555 1_555
H9_2 C13_2 1_555 1_555
C14_2 C10_2 1_555 1_555
H10_2 C14_2 1_555 1_555
La1A O7A 1_555 1_555
S1A O1A 1_555 1_555
O1A La1A 1_555 1_555
O2A S1A 1_555 1_555
O3A S1A 1_555 1_555
C1A S1A 1_555 1_555
F1A C1A 1_555 1_555
F2A C1A 1_555 1_555
F3A C1A 1_555 1_555
O11A La1A 1_555 1_555
O12A N4A 1_555 1_555
N3A O11A 1_555 1_555
N4A C24A 1_555 1_555
C15A N3A 1_555 1_555
H11A C15A 1_555 1_555
C16A C15A 1_555 1_555
H12A C16A 1_555 1_555
C17A C16A 1_555 1_555
C18A C17A 1_555 1_555
H13A C18A 1_555 1_555
C19A N3A 1_555 1_555
H14A C19A 1_555 1_555
C20A C17A 1_555 1_555
H15A C20A 1_555 1_555
H16A C20A 1_555 1_555
C21A C20A 1_555 1_555
H17A C21A 1_555 1_555
H18A C21A 1_555 1_555
C22A C21A 1_555 1_555
C23A C22A 1_555 1_555
H19A C23A 1_555 1_555
C24A C23A 1_555 1_555
H20A C24A 1_555 1_555
C25A C22A 1_555 1_555
H21A C25A 1_555 1_555
C26A N4A 1_555 1_555
H22A C26A 1_555 1_555
O13A La1A 1_555 1_555
H23A O13A 1_555 1_555
H24A O13A 1_555 1_555
O14A La1A 1_555 1_555
H25A O14A 1_555 1_555
H26A O14A 1_555 1_555
O7A_2 La1 1_555 1_555
La1A_2 O7 1_555 1_555
La1_2 O10 1_555 1_555
La1_3 O7A 1_555 1_555
La1_4 O8_2 1_555 1_555
O7_2 La1A 1_555 1_555
O8A La1A 1_555 1_555
O9A La1A 1_555 1_555
O10A La1A 1_555 1_555
C6 C7 1_555 1_555
O9 C9 1_555 1_555
C13 C14 1_555 1_555
C18 C19 1_555 1_555
C25 C26 1_555 1_555
C7A C6A 1_555 1_555
O9_2 La1_4 1_555 1_555
C11_2 C12_2 1_555 1_555
C13_2 C14_2 1_555 1_555
C18A C19A 1_555 1_555
C25A C26A 1_555 1_555
O7A_2 La1A_2 1_555 1_555
La1_3 O7_2 1_555 1_555

#END
