
#######################################################################
#
#                 Cambridge Crystallographic Data Centre
#                                CCDC 
#
#######################################################################
#
# If this CIF has been generated from an entry in the Cambridge 
# Structural Database, then it will include bibliographic, chemical, 
# crystal, experimental, refinement or atomic coordinate data resulting 
# from the CCDC's data processing and validation procedures.
#
#######################################################################

data_AXINAX01
_symmetry_cell_setting           monoclinic
_symmetry_space_group_name_H-M   'C 2/c'
_symmetry_Int_Tables_number      15
_space_group_name_Hall           '-C 2yn'
loop_
_symmetry_equiv_pos_site_id
_symmetry_equiv_pos_as_xyz
1 x,y,z
2 -x,y,1/2-z
3 1/2+x,1/2+y,z
4 1/2-x,1/2+y,1/2-z
5 -x,-y,-z
6 x,-y,1/2+z
7 1/2-x,1/2-y,-z
8 1/2+x,1/2-y,1/2+z
_cell_length_a                   45.386(9)
_cell_length_b                   35.904(7)
_cell_length_c                   33.184(7)
_cell_angle_alpha                90
_cell_angle_beta                 94.91(3)
_cell_angle_gamma                90
_cell_volume                     53876.2
loop_
_atom_site_label
_atom_site_type_symbol
_atom_site_fract_x
_atom_site_fract_y
_atom_site_fract_z
C1 C 0.97644(9) 0.21533(13) 0.18217(16)
C2 C 0.79102(9) 0.49206(13) 0.01449(14)
C3 C 0.95676(9) 0.16523(13) 0.13427(12)
H1 H 0.9705 0.1726 0.1165
C4 C 0.78211(13) 0.50882(14) -0.02825(16)
C5 C 0.95528(8) 0.18363(12) 0.17153(13)
C6 C 0.93435(9) 0.17377(12) 0.19786(13)
H2 H 0.9332 0.1865 0.2221
C7 C 0.91490(8) 0.14390(12) 0.18682(13)
H3 H 0.9009 0.1368 0.2042
C8 C 0.93771(9) 0.13625(14) 0.12444(14)
H4 H 0.9387 0.1236 0.1001
C9 C 0.91628(8) 0.12539(12) 0.15139(13)
C10 C 0.89671(8) 0.09296(13) 0.14067(13)
C11 C 0.88587(8) 0.08703(12) 0.09969(12)
H5 H 0.8914 0.1027 0.0794
C12 C 0.86638(8) 0.05661(12) 0.09031(13)
C13 C 0.85917(8) 0.03375(13) 0.12100(13)
H6 H 0.8465 0.0138 0.1149
C14 C 0.87025(8) 0.03952(12) 0.16166(13)
C15 C 0.88875(8) 0.06896(12) 0.17062(12)
H7 H 0.8961 0.0730 0.1973
C16 C 0.86084(8) 0.01447(12) 0.19408(13)
C17 C 0.83309(9) 0.00195(14) 0.19387(14)
H8 H 0.8197 0.0072 0.1718
C18 C 0.88149(9) 0.00432(14) 0.22622(14)
H9 H 0.9012 0.0112 0.2257
C19 C 0.82379(9) -0.01849(15) 0.22557(14)
H10 H 0.8042 -0.0263 0.2250
C20 C 0.87270(9) -0.01570(14) 0.25849(14)
H11 H 0.8864 -0.0213 0.2801
C21 C 0.84410(9) -0.02753(14) 0.25907(13)
C22 C 0.83347(12) -0.04660(16) 0.29453(15)
C23 C 0.85359(9) 0.05129(13) 0.04883(14)
C24 C 0.86995(10) 0.05937(14) 0.01661(16)
H12 H 0.8892 0.0680 0.0222
C25 C 0.85905(9) 0.05529(14) -0.02407(13)
H13 H 0.8705 0.0608 -0.0452
C26 C 0.82569(9) 0.03827(12) 0.04078(14)
H14 H 0.8143 0.0325 0.0619
C27 C 0.82932(9) 0.04211(13) -0.03113(15)
C28 C 0.81372(10) 0.03336(13) -0.00001(15)
H15 H 0.7947 0.0239 -0.0051
C29 C 0.81648(11) 0.03927(14) -0.07439(16)
C30 C 1.05549(10) 0.25339(14) 0.19730(14)
C31 C 1.08159(8) 0.24415(13) 0.22646(14)
C32 C 1.10175(8) 0.21707(13) 0.21711(14)
H16 H 1.0985 0.2032 0.1935
C33 C 1.12715(9) 0.21087(13) 0.24362(15)
H17 H 1.1401 0.1916 0.2388
C34 C 1.08641(8) 0.26555(13) 0.25998(13)
H18 H 1.0725 0.2832 0.2662
C35 C 1.11300(9) 0.26064(13) 0.28557(14)
H19 H 1.1169 0.2758 0.3081
C36 C 1.13277(8) 0.23384(13) 0.27714(14)
C37 C 1.16182(8) 0.22916(13) 0.30268(13)
C38 C 1.17836(9) 0.26099(13) 0.31317(16)
H20 H 1.1709 0.2844 0.3059
C39 C 1.20644(8) 0.25754(14) 0.33486(16)
C40 C 1.17199(8) 0.19447(13) 0.31447(14)
H21 H 1.1605 0.1735 0.3079
C41 C 1.21479(9) 0.32540(14) 0.34990(14)
H22 H 1.1946 0.3281 0.3520
C42 C 1.25600(9) 0.28773(13) 0.33858(17)
H23 H 1.2638 0.2645 0.3331
C43 C 1.22554(9) 0.29166(14) 0.34205(15)
C44 C 1.23296(9) 0.35634(13) 0.35492(14)
H24 H 1.2249 0.3794 0.3605
C45 C 1.27425(10) 0.31842(14) 0.34339(16)
H25 H 1.2944 0.3159 0.3411
C46 C 1.19994(9) 0.19061(13) 0.33671(15)
C47 C 1.21612(9) 0.22291(12) 0.34678(15)
H26 H 1.2342 0.2207 0.3622
C48 C 1.21112(9) 0.15381(13) 0.34939(16)
C49 C 1.24211(9) 0.14720(14) 0.35363(16)
H27 H 1.2551 0.1662 0.3483
C50 C 1.19301(9) 0.12383(14) 0.35702(15)
H28 H 1.1726 0.1271 0.3543
C51 C 1.20423(9) 0.08985(13) 0.36840(15)
H29 H 1.1913 0.0704 0.3727
C52 C 1.23455(9) 0.08369(13) 0.37378(15)
C53 C 1.25307(9) 0.11253(13) 0.36568(17)
H30 H 1.2734 0.1087 0.3683
C54 C 1.24706(9) 0.04635(13) 0.38632(13)
C55 C 0.93924(8) 0.33715(13) 0.17404(15)
C56 C 0.96758(9) 0.31506(14) 0.17910(16)
C57 C 0.92122(9) 0.33586(15) 0.13769(14)
H31 H 0.9267 0.3217 0.1161
C58 C 0.89497(9) 0.35606(15) 0.13415(15)
H32 H 0.8837 0.3562 0.1094
C59 C 0.90331(9) 0.37709(14) 0.20332(14)
H33 H 0.8977 0.3915 0.2247
C60 C 0.88509(8) 0.37568(13) 0.16566(13)
C61 C 0.85750(9) 0.39808(13) 0.16284(14)
C62 C 0.84713(9) 0.41593(14) 0.12652(14)
H34 H 0.8572 0.4130 0.1035
C63 C 0.82199(10) 0.43769(13) 0.12509(14)
C64 C 0.81116(10) 0.45750(13) 0.08646(14)
C65 C 0.83014(11) 0.46646(15) 0.05826(16)
H35 H 0.8501 0.4613 0.0643
C66 C 0.78139(9) 0.46613(12) 0.07825(13)
H36 H 0.7678 0.4603 0.0967
C67 C 0.77228(9) 0.48386(13) 0.04167(13)
H37 H 0.7524 0.4901 0.0363
C68 C 0.82158(9) 0.48288(14) 0.02072(14)
H38 H 0.8348 0.4874 0.0014
C69 C 0.84184(9) 0.40205(13) 0.19582(14)
H39 H 0.8481 0.3893 0.2194
C70 C 0.80719(10) 0.44227(13) 0.15885(15)
H40 H 0.7905 0.4574 0.1574
C71 C 0.81639(9) 0.42488(12) 0.19558(12)
C72 C 0.80138(9) 0.42956(13) 0.23231(13)
C73 C 0.77070(9) 0.43224(13) 0.23207(14)
H41 H 0.7590 0.4297 0.2078
C74 C 0.75767(9) 0.43854(13) 0.26702(14)
H42 H 0.7372 0.4397 0.2663
C75 C 0.77433(9) 0.44330(13) 0.30342(13)
C76 C 0.80416(9) 0.44060(13) 0.30387(13)
H43 H 0.8155 0.4433 0.3284
C77 C 0.81813(10) 0.43407(14) 0.26992(15)
H44 H 0.8386 0.4326 0.2714
C78 C 0.92927(9) 0.35670(13) 0.20726(15)
H45 H 0.9403 0.3558 0.2322
C79 C 1.28278(10) 0.38678(16) 0.35541(14)
C80 C 1.26244(9) 0.35328(13) 0.35169(14)
C81 C 0.76005(11) 0.45261(14) 0.34013(14)
O1 O 0.99165(7) 0.22536(9) 0.15449(10)
O2 O 0.97664(5) 0.22923(8) 0.21705(9)
O3 O 0.97750(6) 0.30366(10) 0.14817(10)
O4 O 0.97840(5) 0.31110(8) 0.21569(8)
O5 O 1.03377(5) 0.27192(8) 0.20863(8)
O6 O 1.05604(5) 0.24376(9) 0.16070(10)
O7 O 1.27408(6) 0.04394(8) 0.39409(10)
O8 O 1.22906(6) 0.01991(8) 0.38881(8)
O9 O 0.79161(7) 0.02330(9) -0.08076(8)
O10 O 0.82968(7) 0.05015(10) -0.10323(10)
O11 O 0.85321(6) -0.06239(9) 0.31925(9)
O12 O 0.80640(6) -0.04585(11) 0.30006(9)
O13 O 1.27108(6) 0.41802(9) 0.36006(8)
O14 O 1.30963(7) 0.38028(9) 0.35405(9)
O15 O 0.73266(6) 0.44865(8) 0.34276(8)
O16 O 0.80159(8) 0.51588(11) -0.05115(10)
O17 O 0.75595(7) 0.00353(9) -0.16794(12)
O18 O 1.34186(7) -0.03425(11) 0.39152(11)
O19 O 0.75437(6) 0.51446(9) -0.03565(9)
O20 O 0.89276(7) 0.07335(11) -0.11119(10)
O21 O 1.19717(6) -0.04297(9) 0.42278(11)
O22 O 0.85210(8) 0.12874(12) -0.07854(11)
O23 O 1.33671(7) 0.04695(15) 0.42029(14)
O24 O 0.77646(6) 0.46414(8) 0.37227(8)
O25 O 1.24853(8) -0.08846(9) 0.42422(10)
O26 O 1.00954(7) 0.26602(12) 0.08397(10)
O27 O 1.04003(8) 0.32143(12) 0.13603(12)
O28 O 0.87067(7) 0.13831(11) -0.16204(12)
O29 O 1.31471(8) 0.02311(12) 0.33606(12)
O30 O 0.81408(18) -0.01789(16) -0.15133(15)
Co1 Co 1.0000 0.26941(2) 0.2500
Co2 Co 0.792816(13) 0.033222(17) -0.144361(18)
Co3 Co 1.238967(12) -0.032935(16) 0.407452(17)
Co4 Co 0.850420(12) 0.095376(19) -0.130918(18)
Co5 Co 1.015023(11) 0.273346(18) 0.146606(17)
Co6 Co 1.307235(12) 0.003971(18) 0.393168(19)
C1A C 1.02356(9) 0.21533(13) 0.31783(16)
C2A C 1.20898(9) 0.49206(13) 0.48551(14)
C3A C 1.04324(9) 0.16523(13) 0.36573(12)
H1A H 1.0295 0.1726 0.3835
C4A C 1.21789(13) 0.50882(14) 0.52825(16)
C5A C 1.04472(8) 0.18363(12) 0.32847(13)
C6A C 1.06565(9) 0.17377(12) 0.30214(13)
H2A H 1.0668 0.1865 0.2779
C7A C 1.08510(8) 0.14390(12) 0.31318(13)
H3A H 1.0991 0.1368 0.2958
C8A C 1.06229(9) 0.13625(14) 0.37556(14)
H4A H 1.0613 0.1236 0.3999
C9A C 1.08372(8) 0.12539(12) 0.34861(13)
C10A C 1.10329(8) 0.09296(13) 0.35933(13)
C11A C 1.11413(8) 0.08703(12) 0.40031(12)
H5A H 1.1086 0.1027 0.4206
C12A C 1.13362(8) 0.05661(12) 0.40969(13)
C13A C 1.14083(8) 0.03375(13) 0.37900(13)
H6A H 1.1535 0.0138 0.3851
C14A C 1.12975(8) 0.03952(12) 0.33834(13)
C15A C 1.11125(8) 0.06896(12) 0.32938(12)
H7A H 1.1039 0.0730 0.3027
C16A C 1.13916(8) 0.01447(12) 0.30592(13)
C17A C 1.16691(9) 0.00195(14) 0.30613(14)
H8A H 1.1803 0.0072 0.3282
C18A C 1.11851(9) 0.00432(14) 0.27378(14)
H9A H 1.0988 0.0112 0.2743
C19A C 1.17621(9) -0.01849(15) 0.27443(14)
H10A H 1.1958 -0.0263 0.2750
C20A C 1.12730(9) -0.01570(14) 0.24151(14)
H11A H 1.1136 -0.0213 0.2199
C21A C 1.15590(9) -0.02753(14) 0.24093(13)
C22A C 1.16653(12) -0.04660(16) 0.20547(15)
C23A C 1.14641(9) 0.05129(13) 0.45117(14)
C24A C 1.13005(10) 0.05937(14) 0.48339(16)
H12A H 1.1108 0.0680 0.4778
C25A C 1.14095(9) 0.05529(14) 0.52407(13)
H13A H 1.1295 0.0608 0.5452
C26A C 1.17431(9) 0.03827(12) 0.45922(14)
H14A H 1.1857 0.0325 0.4381
C27A C 1.17068(9) 0.04211(13) 0.53113(15)
C28A C 1.18628(10) 0.03336(13) 0.50001(15)
H15A H 1.2053 0.0239 0.5051
C29A C 1.18352(11) 0.03927(14) 0.57439(16)
C30A C 0.94451(10) 0.25339(14) 0.30270(14)
C31A C 0.91841(8) 0.24415(13) 0.27354(14)
C32A C 0.89825(8) 0.21707(13) 0.28289(14)
H16A H 0.9015 0.2032 0.3065
C33A C 0.87285(9) 0.21087(13) 0.25638(15)
H17A H 0.8599 0.1916 0.2612
C34A C 0.91359(8) 0.26555(13) 0.24002(13)
H18A H 0.9275 0.2832 0.2338
C35A C 0.88700(9) 0.26064(13) 0.21443(14)
H19A H 0.8831 0.2758 0.1919
C36A C 0.86723(8) 0.23384(13) 0.22286(14)
C37A C 0.83818(8) 0.22916(13) 0.19732(13)
C38A C 0.82164(9) 0.26099(13) 0.18683(16)
H20A H 0.8291 0.2844 0.1941
C39A C 0.79356(8) 0.25754(14) 0.16514(16)
C40A C 0.82801(8) 0.19447(13) 0.18553(14)
H21A H 0.8395 0.1735 0.1921
C41A C 0.78521(9) 0.32540(14) 0.15010(14)
H22A H 0.8054 0.3281 0.1480
C42A C 0.74400(9) 0.28773(13) 0.16142(17)
H23A H 0.7362 0.2645 0.1669
C43A C 0.77446(9) 0.29166(14) 0.15795(15)
C44A C 0.76704(9) 0.35634(13) 0.14508(14)
H24A H 0.7751 0.3794 0.1395
C45A C 0.72575(10) 0.31842(14) 0.15661(16)
H25A H 0.7056 0.3159 0.1589
C46A C 0.80006(9) 0.19061(13) 0.16329(15)
C47A C 0.78388(9) 0.22291(12) 0.15322(15)
H26A H 0.7658 0.2207 0.1378
C48A C 0.78888(9) 0.15381(13) 0.15061(16)
C49A C 0.75789(9) 0.14720(14) 0.14637(16)
H27A H 0.7449 0.1662 0.1517
C50A C 0.80699(9) 0.12383(14) 0.14298(15)
H28A H 0.8274 0.1271 0.1457
C51A C 0.79577(9) 0.08985(13) 0.13160(15)
H29A H 0.8087 0.0704 0.1273
C52A C 0.76545(9) 0.08369(13) 0.12622(15)
C53A C 0.74693(9) 0.11253(13) 0.13432(17)
H30A H 0.7266 0.1087 0.1317
C54A C 0.75294(9) 0.04635(13) 0.11368(13)
C55A C 1.06076(8) 0.33715(13) 0.32596(15)
C56A C 1.03242(9) 0.31506(14) 0.32090(16)
C57A C 1.07878(9) 0.33586(15) 0.36231(14)
H31A H 1.0733 0.3217 0.3839
C58A C 1.10503(9) 0.35606(15) 0.36585(15)
H32A H 1.1163 0.3562 0.3906
C59A C 1.09669(9) 0.37709(14) 0.29668(14)
H33A H 1.1023 0.3915 0.2753
C60A C 1.11491(8) 0.37568(13) 0.33434(13)
C61A C 1.14250(9) 0.39808(13) 0.33716(14)
C62A C 1.15287(9) 0.41593(14) 0.37348(14)
H34A H 1.1428 0.4130 0.3965
C63A C 1.17801(10) 0.43769(13) 0.37491(14)
C64A C 1.18884(10) 0.45750(13) 0.41354(14)
C65A C 1.16986(11) 0.46646(15) 0.44174(16)
H35A H 1.1499 0.4613 0.4357
C66A C 1.21861(9) 0.46613(12) 0.42175(13)
H36A H 1.2322 0.4603 0.4033
C67A C 1.22772(9) 0.48386(13) 0.45833(13)
H37A H 1.2476 0.4901 0.4637
C68A C 1.17842(9) 0.48288(14) 0.47928(14)
H38A H 1.1652 0.4874 0.4986
C69A C 1.15816(9) 0.40205(13) 0.30418(14)
H39A H 1.1519 0.3893 0.2806
C70A C 1.19281(10) 0.44227(13) 0.34115(15)
H40A H 1.2095 0.4574 0.3426
C71A C 1.18361(9) 0.42488(12) 0.30442(12)
C72A C 1.19862(9) 0.42956(13) 0.26769(13)
C73A C 1.22930(9) 0.43224(13) 0.26793(14)
H41A H 1.2410 0.4297 0.2922
C74A C 1.24233(9) 0.43854(13) 0.23298(14)
H42A H 1.2628 0.4397 0.2337
C75A C 1.22567(9) 0.44330(13) 0.19658(13)
C76A C 1.19584(9) 0.44060(13) 0.19613(13)
H43A H 1.1845 0.4433 0.1716
C77A C 1.18187(10) 0.43407(14) 0.23008(15)
H44A H 1.1614 0.4326 0.2286
C78A C 1.07073(9) 0.35670(13) 0.29274(15)
H45A H 1.0597 0.3558 0.2678
C79A C 0.71722(10) 0.38678(16) 0.14459(14)
C80A C 0.73756(9) 0.35328(13) 0.14831(14)
C81A C 1.23995(11) 0.45261(14) 0.15987(14)
O1A O 1.00835(7) 0.22536(9) 0.34551(10)
O2A O 1.02336(5) 0.22923(8) 0.28295(9)
O3A O 1.02250(6) 0.30366(10) 0.35183(10)
O4A O 1.02160(5) 0.31110(8) 0.28431(8)
O5A O 0.96623(5) 0.27192(8) 0.29137(8)
O6A O 0.94396(5) 0.24376(9) 0.33930(10)
O7A O 0.72592(6) 0.04394(8) 0.10591(10)
O8A O 0.77094(6) 0.01991(8) 0.11119(8)
O9A O 1.20839(7) 0.02330(9) 0.58076(8)
O10A O 1.17032(7) 0.05015(10) 0.60323(10)
O11A O 1.14679(6) -0.06239(9) 0.18075(9)
O11E O 0.85321(6) 0.06239(9) -0.18075(9)
O11D O 1.14679(6) 0.06239(9) 0.68075(9)
O12A O 1.19360(6) -0.04585(11) 0.19994(9)
O12E O 0.80640(6) 0.04585(11) -0.19994(9)
O12D O 1.19360(6) 0.04585(11) 0.69994(9)
O13A O 0.72892(6) 0.41802(9) 0.13994(8)
O13G O 0.77108(6) 0.08198(9) -0.13994(8)
O13F O 1.22892(6) 0.08198(9) 0.63994(8)
O14A O 0.69037(7) 0.38028(9) 0.14595(9)
O14G O 0.80963(7) 0.11972(9) -0.14595(9)
O14F O 1.19037(7) 0.11972(9) 0.64595(9)
O15A O 1.26734(6) 0.44865(8) 0.15724(8)
O15B O 1.23266(6) -0.05135(8) 0.34276(8)
O15C O 0.76734(6) -0.05135(8) 0.15724(8)
O16A O 1.19841(8) 0.51588(11) 0.55115(10)
O16G O 1.30159(8) -0.01588(11) 0.44885(10)
O16F O 0.69841(8) -0.01588(11) 0.05115(10)
O17A O 1.24405(7) 0.00353(9) 0.66794(12)
O18A O 0.65814(7) -0.03425(11) 0.10848(11)
O19A O 1.24563(6) 0.51446(9) 0.53565(9)
O19G O 1.25437(6) -0.01446(9) 0.46435(9)
O19F O 0.74563(6) -0.01446(9) 0.03565(9)
O20A O 1.10724(7) 0.07335(11) 0.61119(10)
O21A O 0.80283(6) -0.04297(9) 0.07722(11)
O22A O 1.14790(8) 0.12874(12) 0.57854(11)
O23A O 0.66329(7) 0.04695(15) 0.07971(14)
O24A O 1.22354(6) 0.46414(8) 0.12773(8)
O24B O 1.27646(6) -0.03586(8) 0.37227(8)
O24C O 0.72354(6) -0.03586(8) 0.12773(8)
O25A O 0.75147(8) -0.08846(9) 0.07578(10)
O26A O 0.99046(7) 0.26602(12) 0.41603(10)
O27A O 0.95997(8) 0.32143(12) 0.36397(12)
O28A O 1.12933(7) 0.13831(11) 0.66204(12)
O29A O 0.68529(8) 0.02311(12) 0.16394(12)
O30A O 1.18592(18) -0.01789(16) 0.65133(15)
Co2A Co 1.207184(13) 0.033222(17) 0.644361(18)
Co2E Co 0.792816(13) -0.033222(17) 0.355639(18)
Co2G Co 1.292816(13) 0.466778(17) 0.355639(18)
Co2D Co 1.207184(13) -0.033222(17) 0.144361(18)
Co2F Co 0.707184(13) 0.466778(17) 0.144361(18)
Co3A Co 0.761033(12) -0.032935(16) 0.092548(17)
Co3B Co 0.738967(12) 0.467065(16) 0.407452(17)
Co3G Co 0.738967(12) 0.532935(16) -0.092548(17)
Co3C Co 1.261033(12) 0.467065(16) 0.092548(17)
Co3F Co 1.261033(12) 0.532935(16) 0.592548(17)
Co4A Co 1.149580(12) 0.095376(19) 0.630918(18)
Co4E Co 0.850420(12) -0.095376(19) 0.369082(18)
Co4G Co 1.350420(12) 0.404624(19) 0.369082(18)
Co4D Co 1.149580(12) -0.095376(19) 0.130918(18)
Co4F Co 0.649580(12) 0.404624(19) 0.130918(18)
Co5A Co 0.984977(11) 0.273346(18) 0.353394(17)
Co6A Co 0.692765(12) 0.003971(18) 0.106832(19)
Co6G Co 0.807235(12) 0.496029(18) -0.106832(19)
Co6B Co 0.807235(12) 0.503971(18) 0.393168(19)
Co6F Co 1.192765(12) 0.496029(18) 0.606832(19)
Co6C Co 1.192765(12) 0.503971(18) 0.106832(19)
loop_
_geom_bond_atom_site_label_1
_geom_bond_atom_site_label_2
_geom_bond_site_symmetry_1
_geom_bond_site_symmetry_2
C1 C5 1_555 1_555
C2 C4 1_555 1_555
C3 H1 1_555 1_555
C4 O16 1_555 1_555
C5 C3 1_555 1_555
C6 C5 1_555 1_555
H2 C6 1_555 1_555
C7 C6 1_555 1_555
H3 C7 1_555 1_555
C8 C3 1_555 1_555
H4 C8 1_555 1_555
C9 C7 1_555 1_555
C10 C9 1_555 1_555
C11 C10 1_555 1_555
H5 C11 1_555 1_555
C12 C11 1_555 1_555
C13 C12 1_555 1_555
H6 C13 1_555 1_555
C14 C13 1_555 1_555
C15 C10 1_555 1_555
H7 C15 1_555 1_555
C16 C14 1_555 1_555
C17 C16 1_555 1_555
H8 C17 1_555 1_555
C18 C16 1_555 1_555
H9 C18 1_555 1_555
C19 C17 1_555 1_555
H10 C19 1_555 1_555
C20 C18 1_555 1_555
H11 C20 1_555 1_555
C21 C19 1_555 1_555
C22 C21 1_555 1_555
C23 C12 1_555 1_555
C24 C23 1_555 1_555
H12 C24 1_555 1_555
C25 C24 1_555 1_555
H13 C25 1_555 1_555
C26 C23 1_555 1_555
H14 C26 1_555 1_555
C27 C25 1_555 1_555
C28 C26 1_555 1_555
H15 C28 1_555 1_555
C29 C27 1_555 1_555
C30 C31 1_555 1_555
C31 C32 1_555 1_555
C32 H16 1_555 1_555
C33 C32 1_555 1_555
H17 C33 1_555 1_555
C34 C31 1_555 1_555
H18 C34 1_555 1_555
C35 C34 1_555 1_555
H19 C35 1_555 1_555
C36 C33 1_555 1_555
C37 C36 1_555 1_555
C38 C37 1_555 1_555
H20 C38 1_555 1_555
C39 C38 1_555 1_555
C40 C37 1_555 1_555
H21 C40 1_555 1_555
C41 H22 1_555 1_555
C42 H23 1_555 1_555
C43 C39 1_555 1_555
C44 C41 1_555 1_555
H24 C44 1_555 1_555
C45 C42 1_555 1_555
H25 C45 1_555 1_555
C46 C40 1_555 1_555
C47 C39 1_555 1_555
H26 C47 1_555 1_555
C48 C46 1_555 1_555
C49 C48 1_555 1_555
H27 C49 1_555 1_555
C50 C48 1_555 1_555
H28 C50 1_555 1_555
C51 C50 1_555 1_555
H29 C51 1_555 1_555
C52 C51 1_555 1_555
C53 C49 1_555 1_555
H30 C53 1_555 1_555
C54 C52 1_555 1_555
C55 C56 1_555 1_555
C56 O3 1_555 1_555
C57 C55 1_555 1_555
H31 C57 1_555 1_555
C58 C57 1_555 1_555
H32 C58 1_555 1_555
C59 H33 1_555 1_555
C60 C58 1_555 1_555
C61 C60 1_555 1_555
C62 C61 1_555 1_555
H34 C62 1_555 1_555
C63 C62 1_555 1_555
C64 C63 1_555 1_555
C65 C64 1_555 1_555
H35 C65 1_555 1_555
C66 C64 1_555 1_555
H36 C66 1_555 1_555
C67 C2 1_555 1_555
H37 C67 1_555 1_555
C68 C2 1_555 1_555
H38 C68 1_555 1_555
C69 C61 1_555 1_555
H39 C69 1_555 1_555
C70 C63 1_555 1_555
H40 C70 1_555 1_555
C71 C69 1_555 1_555
C72 C71 1_555 1_555
C73 C72 1_555 1_555
H41 C73 1_555 1_555
C74 C73 1_555 1_555
H42 C74 1_555 1_555
C75 C74 1_555 1_555
C76 C75 1_555 1_555
H43 C76 1_555 1_555
C77 C72 1_555 1_555
H44 C77 1_555 1_555
C78 C55 1_555 1_555
H45 C78 1_555 1_555
C79 C80 1_555 1_555
C80 C44 1_555 1_555
C81 C75 1_555 1_555
O1 C1 1_555 1_555
O2 C1 1_555 1_555
O3 Co5 1_555 1_555
O4 C56 1_555 1_555
O5 C30 1_555 1_555
O6 C30 1_555 1_555
O7 C54 1_555 1_555
O8 C54 1_555 1_555
O9 C29 1_555 1_555
O10 C29 1_555 1_555
O11 C22 1_555 1_555
O12 C22 1_555 1_555
O13 C79 1_555 1_555
O14 C79 1_555 1_555
O15 C81 1_555 1_555
O16 Co6G 1_555 1_555
O17 Co2 1_555 1_555
O18 Co6 1_555 1_555
O19 C4 1_555 1_555
O20 Co4 1_555 1_555
O21 Co3 1_555 1_555
O22 Co4 1_555 1_555
O23 Co6 1_555 1_555
O24 C81 1_555 1_555
O25 Co3 1_555 1_555
O26 Co5 1_555 1_555
O27 Co5 1_555 1_555
O28 Co4 1_555 1_555
O29 Co6 1_555 1_555
O30 Co2 1_555 1_555
Co1 O2 1_555 1_555
Co2 O9 1_555 1_555
Co3 O8 1_555 1_555
Co4 O10 1_555 1_555
Co5 O1 1_555 1_555
Co6 O7 1_555 1_555
C1A C5A 1_555 1_555
C2A C4A 1_555 1_555
C3A H1A 1_555 1_555
C4A O16A 1_555 1_555
C5A C3A 1_555 1_555
C6A C5A 1_555 1_555
H2A C6A 1_555 1_555
C7A C6A 1_555 1_555
H3A C7A 1_555 1_555
C8A C3A 1_555 1_555
H4A C8A 1_555 1_555
C9A C7A 1_555 1_555
C10A C9A 1_555 1_555
C11A C10A 1_555 1_555
H5A C11A 1_555 1_555
C12A C11A 1_555 1_555
C13A C12A 1_555 1_555
H6A C13A 1_555 1_555
C14A C13A 1_555 1_555
C15A C10A 1_555 1_555
H7A C15A 1_555 1_555
C16A C14A 1_555 1_555
C17A C16A 1_555 1_555
H8A C17A 1_555 1_555
C18A C16A 1_555 1_555
H9A C18A 1_555 1_555
C19A C17A 1_555 1_555
H10A C19A 1_555 1_555
C20A C18A 1_555 1_555
H11A C20A 1_555 1_555
C21A C19A 1_555 1_555
C22A C21A 1_555 1_555
C23A C12A 1_555 1_555
C24A C23A 1_555 1_555
H12A C24A 1_555 1_555
C25A C24A 1_555 1_555
H13A C25A 1_555 1_555
C26A C23A 1_555 1_555
H14A C26A 1_555 1_555
C27A C25A 1_555 1_555
C28A C26A 1_555 1_555
H15A C28A 1_555 1_555
C29A C27A 1_555 1_555
C30A C31A 1_555 1_555
C31A C32A 1_555 1_555
C32A H16A 1_555 1_555
C33A C32A 1_555 1_555
H17A C33A 1_555 1_555
C34A C31A 1_555 1_555
H18A C34A 1_555 1_555
C35A C34A 1_555 1_555
H19A C35A 1_555 1_555
C36A C33A 1_555 1_555
C37A C36A 1_555 1_555
C38A C37A 1_555 1_555
H20A C38A 1_555 1_555
C39A C38A 1_555 1_555
C40A C37A 1_555 1_555
H21A C40A 1_555 1_555
C41A H22A 1_555 1_555
C42A H23A 1_555 1_555
C43A C39A 1_555 1_555
C44A C41A 1_555 1_555
H24A C44A 1_555 1_555
C45A C42A 1_555 1_555
H25A C45A 1_555 1_555
C46A C40A 1_555 1_555
C47A C39A 1_555 1_555
H26A C47A 1_555 1_555
C48A C46A 1_555 1_555
C49A C48A 1_555 1_555
H27A C49A 1_555 1_555
C50A C48A 1_555 1_555
H28A C50A 1_555 1_555
C51A C50A 1_555 1_555
H29A C51A 1_555 1_555
C52A C51A 1_555 1_555
C53A C49A 1_555 1_555
H30A C53A 1_555 1_555
C54A C52A 1_555 1_555
C55A C56A 1_555 1_555
C56A O3A 1_555 1_555
C57A C55A 1_555 1_555
H31A C57A 1_555 1_555
C58A C57A 1_555 1_555
H32A C58A 1_555 1_555
C59A H33A 1_555 1_555
C60A C58A 1_555 1_555
C61A C60A 1_555 1_555
C62A C61A 1_555 1_555
H34A C62A 1_555 1_555
C63A C62A 1_555 1_555
C64A C63A 1_555 1_555
C65A C64A 1_555 1_555
H35A C65A 1_555 1_555
C66A C64A 1_555 1_555
H36A C66A 1_555 1_555
C67A C2A 1_555 1_555
H37A C67A 1_555 1_555
C68A C2A 1_555 1_555
H38A C68A 1_555 1_555
C69A C61A 1_555 1_555
H39A C69A 1_555 1_555
C70A C63A 1_555 1_555
H40A C70A 1_555 1_555
C71A C69A 1_555 1_555
C72A C71A 1_555 1_555
C73A C72A 1_555 1_555
H41A C73A 1_555 1_555
C74A C73A 1_555 1_555
H42A C74A 1_555 1_555
C75A C74A 1_555 1_555
C76A C75A 1_555 1_555
H43A C76A 1_555 1_555
C77A C72A 1_555 1_555
H44A C77A 1_555 1_555
C78A C55A 1_555 1_555
H45A C78A 1_555 1_555
C79A C80A 1_555 1_555
C80A C44A 1_555 1_555
C81A C75A 1_555 1_555
O1A C1A 1_555 1_555
O2A Co1 1_555 1_555
O3A Co5A 1_555 1_555
O4A Co1 1_555 1_555
O5A Co1 1_555 1_555
O6A C30A 1_555 1_555
O7A C54A 1_555 1_555
O8A C54A 1_555 1_555
O9A C29A 1_555 1_555
O10A C29A 1_555 1_555
O11A C22A 1_555 1_555
O11E Co4 1_555 1_555
O11D Co4A 1_555 1_555
O12A C22A 1_555 1_555
O12E Co2 1_555 1_555
O12D Co2A 1_555 1_555
O13A C79A 1_555 1_555
O13G Co2 1_555 1_555
O13F Co2A 1_555 1_555
O14A C79A 1_555 1_555
O14G Co4 1_555 1_555
O14F Co4A 1_555 1_555
O15A C81A 1_555 1_555
O15B Co3 1_555 1_555
O15C Co3A 1_555 1_555
O16A Co6F 1_555 1_555
O16G Co6 1_555 1_555
O16F Co6A 1_555 1_555
O17A Co2A 1_555 1_555
O18A Co6A 1_555 1_555
O19A C4A 1_555 1_555
O19G Co3 1_555 1_555
O19F Co3A 1_555 1_555
O20A Co4A 1_555 1_555
O21A Co3A 1_555 1_555
O22A Co4A 1_555 1_555
O23A Co6A 1_555 1_555
O24A C81A 1_555 1_555
O24B Co3 1_555 1_555
O24C Co3A 1_555 1_555
O25A Co3A 1_555 1_555
O26A Co5A 1_555 1_555
O27A Co5A 1_555 1_555
O28A Co4A 1_555 1_555
O29A Co6A 1_555 1_555
O30A Co2A 1_555 1_555
Co2A O9A 1_555 1_555
Co2E O12 1_555 1_555
Co2G O13 1_555 1_555
Co2D O12A 1_555 1_555
Co2F O13A 1_555 1_555
Co3A O8A 1_555 1_555
Co3B O15 1_555 1_555
Co3G O19 1_555 1_555
Co3C O15A 1_555 1_555
Co3F O19A 1_555 1_555
Co4A O10A 1_555 1_555
Co4E O11 1_555 1_555
Co4G O14 1_555 1_555
Co4D O11A 1_555 1_555
Co4F O14A 1_555 1_555
Co5A O1A 1_555 1_555
Co6A O7A 1_555 1_555
Co6B O24 1_555 1_555
Co6C O24A 1_555 1_555
C8 C9 1_555 1_555
C14 C15 1_555 1_555
C20 C21 1_555 1_555
C27 C28 1_555 1_555
C35 C36 1_555 1_555
C41 C43 1_555 1_555
C42 C43 1_555 1_555
C45 C80 1_555 1_555
C46 C47 1_555 1_555
C52 C53 1_555 1_555
C59 C60 1_555 1_555
C59 C78 1_555 1_555
C65 C68 1_555 1_555
C66 C67 1_555 1_555
C70 C71 1_555 1_555
C76 C77 1_555 1_555
O4 Co1 1_555 1_555
O5 Co1 1_555 1_555
O5 Co5 1_555 1_555
O6 Co5 1_555 1_555
O10 Co2 1_555 1_555
O24 Co3B 1_555 1_555
Co6 O24B 1_555 1_555
C1A O2A 1_555 1_555
C8A C9A 1_555 1_555
C14A C15A 1_555 1_555
C20A C21A 1_555 1_555
C27A C28A 1_555 1_555
C30A O5A 1_555 1_555
C35A C36A 1_555 1_555
C41A C43A 1_555 1_555
C42A C43A 1_555 1_555
C45A C80A 1_555 1_555
C46A C47A 1_555 1_555
C52A C53A 1_555 1_555
C56A O4A 1_555 1_555
C59A C60A 1_555 1_555
C59A C78A 1_555 1_555
C65A C68A 1_555 1_555
C66A C67A 1_555 1_555
C70A C71A 1_555 1_555
C76A C77A 1_555 1_555
O5A Co5A 1_555 1_555
O6A Co5A 1_555 1_555
O10A Co2A 1_555 1_555
O24A Co3C 1_555 1_555
O24C Co6A 1_555 1_555

#END
