
#######################################################################
#
#                 Cambridge Crystallographic Data Centre
#                                CCDC 
#
#######################################################################
#
# If this CIF has been generated from an entry in the Cambridge 
# Structural Database, then it will include bibliographic, chemical, 
# crystal, experimental, refinement or atomic coordinate data resulting 
# from the CCDC's data processing and validation procedures.
#
#######################################################################

data_AXIPUS
_symmetry_cell_setting           orthorhombic
_symmetry_space_group_name_H-M   'P 21 21 21'
_symmetry_Int_Tables_number      19
_space_group_name_Hall           'P 2ac 2ab'
loop_
_symmetry_equiv_pos_site_id
_symmetry_equiv_pos_as_xyz
1 x,y,z
2 1/2-x,-y,1/2+z
3 -x,1/2+y,1/2-z
4 1/2+x,1/2-y,-z
_cell_length_a                   6.4582(5)
_cell_length_b                   14.0054(11)
_cell_length_c                   19.6232(16)
_cell_angle_alpha                90
_cell_angle_beta                 90
_cell_angle_gamma                90
_cell_volume                     1774.91
loop_
_atom_site_label
_atom_site_type_symbol
_atom_site_fract_x
_atom_site_fract_y
_atom_site_fract_z
Cu1 Cu 0.98377(10) 0.30762(4) 0.94861(3)
Cl1 Cl 1.06155(18) 0.22214(9) 1.04438(6)
N1 N 0.9785(7) 0.4352(3) 0.99501(19)
H1 H 0.9473 0.4206 1.0417
N2 N 0.9720(7) 0.3980(3) 0.86810(18)
N3 N 1.0069(8) 0.2032(3) 0.87832(18)
H2 H 0.8881 0.1688 0.8774
H3 H 1.0878 0.1481 0.8811
C1 C 1.1895(9) 0.4791(4) 0.9873(3)
H4 H 1.2940 0.4320 0.9989
H5 H 1.2030 0.5321 1.0188
C2 C 1.2266(9) 0.5142(4) 0.9160(3)
H6 H 1.3705 0.5333 0.9120
H7 H 1.1422 0.5704 0.9084
C3 C 1.1799(8) 0.4426(4) 0.8609(3)
H8 H 1.1881 0.4741 0.8170
H9 H 1.2844 0.3929 0.8619
C4 C 0.8177(8) 0.4936(4) 0.9615(3)
H10 H 0.8490 0.5608 0.9675
H11 H 0.6842 0.4809 0.9822
C5 C 0.8086(8) 0.4697(4) 0.8844(3)
H12 H 0.6733 0.4442 0.8729
H13 H 0.8307 0.5272 0.8578
C6 C 0.9202(8) 0.3390(4) 0.8072(2)
H14 H 0.9545 0.3739 0.7660
H15 H 0.7729 0.3256 0.8066
C7 C 1.0404(8) 0.2462(3) 0.8091(2)
H16 H 1.1881 0.2603 0.8035
C8 C 0.9726(9) 0.1781(3) 0.7529(2)
H17 H 1.0536 0.1199 0.7557
H18 H 0.8283 0.1614 0.7595
C9 C 0.9996(10) 0.2220(3) 0.6825(2)
C10 C 1.1918(10) 0.2270(4) 0.6520(3)
H19 H 1.3081 0.2020 0.6735
C11 C 1.2077(10) 0.2709(5) 0.5875(3)
H20 H 1.3362 0.2753 0.5664
C12 C 1.0359(10) 0.3072(4) 0.5558(3)
H21 H 1.0483 0.3356 0.5132
C13 C 0.8465(11) 0.3017(5) 0.5866(3)
H22 H 0.7303 0.3261 0.5646
C14 C 0.8266(9) 0.2607(4) 0.6493(3)
H23 H 0.6974 0.2583 0.6701
Cl1C Cl 0.56155(18) 0.27786(9) 0.95562(6)
Cu1C Cu 1.48377(10) 0.19238(4) 1.05139(3)
Cl2 Cl 0.9853(2) 0.47196(10) 1.18484(6)
O1 O 0.8120(7) 0.4647(4) 1.1372(2)
O2 O 1.1734(7) 0.4621(4) 1.1483(2)
O3 O 0.9769(10) 0.5596(4) 1.2190(3)
O4 O 0.9710(10) 0.3986(5) 1.2351(3)
loop_
_geom_bond_atom_site_label_1
_geom_bond_atom_site_label_2
_geom_bond_site_symmetry_1
_geom_bond_site_symmetry_2
Cu1 Cl1 1_555 1_555
Cl1 Cu1C 1_555 1_555
Cl2 O1 1_555 1_555
N1 Cu1 1_555 1_555
H1 N1 1_555 1_555
N2 Cu1 1_555 1_555
N3 Cu1 1_555 1_555
H2 N3 1_555 1_555
H3 N3 1_555 1_555
O2 Cl2 1_555 1_555
O3 Cl2 1_555 1_555
O4 Cl2 1_555 1_555
C1 N1 1_555 1_555
H4 C1 1_555 1_555
H5 C1 1_555 1_555
C2 C1 1_555 1_555
H6 C2 1_555 1_555
H7 C2 1_555 1_555
C3 N2 1_555 1_555
H8 C3 1_555 1_555
H9 C3 1_555 1_555
C4 N1 1_555 1_555
H10 C4 1_555 1_555
H11 C4 1_555 1_555
C5 N2 1_555 1_555
H12 C5 1_555 1_555
H13 C5 1_555 1_555
C6 N2 1_555 1_555
H14 C6 1_555 1_555
H15 C6 1_555 1_555
C7 N3 1_555 1_555
H16 C7 1_555 1_555
C8 C7 1_555 1_555
H17 C8 1_555 1_555
H18 C8 1_555 1_555
C9 C8 1_555 1_555
C10 C9 1_555 1_555
H19 C10 1_555 1_555
C11 C10 1_555 1_555
H20 C11 1_555 1_555
C12 C11 1_555 1_555
H21 C12 1_555 1_555
C13 C12 1_555 1_555
H22 C13 1_555 1_555
C14 C9 1_555 1_555
H23 C14 1_555 1_555
Cl1C Cu1 1_555 1_555
C2 C3 1_555 1_555
C4 C5 1_555 1_555
C6 C7 1_555 1_555
C13 C14 1_555 1_555

#END
