
#######################################################################
#
#                 Cambridge Crystallographic Data Centre
#                                CCDC 
#
#######################################################################
#
# If this CIF has been generated from an entry in the Cambridge 
# Structural Database, then it will include bibliographic, chemical, 
# crystal, experimental, refinement or atomic coordinate data resulting 
# from the CCDC's data processing and validation procedures.
#
#######################################################################

data_AXITOR
_symmetry_cell_setting           monoclinic
_symmetry_space_group_name_H-M   'C 2/c'
_symmetry_Int_Tables_number      15
_space_group_name_Hall           '-C 2yn'
loop_
_symmetry_equiv_pos_site_id
_symmetry_equiv_pos_as_xyz
1 x,y,z
2 -x,y,1/2-z
3 1/2+x,1/2+y,z
4 1/2-x,1/2+y,1/2-z
5 -x,-y,-z
6 x,-y,1/2+z
7 1/2-x,1/2-y,-z
8 1/2+x,1/2-y,1/2+z
_cell_length_a                   17.910(3)
_cell_length_b                   16.295(3)
_cell_length_c                   10.2009(18)
_cell_angle_alpha                90
_cell_angle_beta                 123.401(2)
_cell_angle_gamma                90
_cell_volume                     2485.37
loop_
_atom_site_label
_atom_site_type_symbol
_atom_site_fract_x
_atom_site_fract_y
_atom_site_fract_z
Zn1 Zn 0.24267(2) 0.10344(2) 0.15805(4)
N1 N 0.35232(16) 0.17963(16) 0.2730(3)
C1 C 0.4979(2) 0.2848(2) 0.4211(4)
C2 C 0.4122(2) 0.3141(2) 0.3193(4)
H1 H 0.4022 0.3700 0.2993
C3 C 0.3425(2) 0.2602(2) 0.2484(4)
H2 H 0.2853 0.2808 0.1793
C4 C 0.4349(2) 0.1514(2) 0.3709(5)
H3 H 0.4431 0.0952 0.3893
C5 C 0.5087(2) 0.2017(2) 0.4461(5)
H4 H 0.5654 0.1796 0.5133
C6 C 0.5760(2) 0.3439(2) 0.4972(4)
O1 O 0.56357(18) 0.41717(17) 0.4787(4)
O2 O 0.65291(14) 0.31078(15) 0.5809(3)
N2 N 0.25763(16) 0.04678(16) -0.0002(3)
C7 C 0.2213(2) -0.0172(2) -0.0951(4)
N3 N 0.3166(2) 0.0787(2) -0.0283(4)
N4 N 0.25668(16) -0.02554(16) -0.1791(3)
N5 N 0.3162(2) 0.0359(2) -0.1346(4)
C8 C 0.1493(4) -0.0706(3) -0.1097(7)
H5 H 0.1276 -0.0469 -0.0494
H6 H 0.0997 -0.0726 -0.2189
C9 C 0.1806(6) -0.1527(4) -0.0548(9)
H7 H 0.2008 -0.1768 -0.1159
H8 H 0.1328 -0.1850 -0.0654
H9 H 0.2292 -0.1510 0.0536
Zn1E Zn 0.24267(2) -0.10344(2) -0.34195(4)
Zn1G Zn 0.74267(2) 0.39656(2) 0.65805(4)
O2G O 0.15291(14) 0.18922(15) 0.0809(3)
N4E N 0.25668(16) 0.02554(16) 0.3209(3)
loop_
_geom_bond_atom_site_label_1
_geom_bond_atom_site_label_2
_geom_bond_site_symmetry_1
_geom_bond_site_symmetry_2
Zn1 N1 1_555 1_555
N1 C3 1_555 1_555
C1 C2 1_555 1_555
C2 H1 1_555 1_555
C3 C2 1_555 1_555
H2 C3 1_555 1_555
C4 N1 1_555 1_555
H3 C4 1_555 1_555
C5 C1 1_555 1_555
H4 C5 1_555 1_555
C6 C1 1_555 1_555
O1 C6 1_555 1_555
O2 C6 1_555 1_555
N2 Zn1 1_555 1_555
C7 N2 1_555 1_555
N3 N2 1_555 1_555
N4 C7 1_555 1_555
N5 N3 1_555 1_555
C8 C7 1_555 1_555
H5 C8 1_555 1_555
H6 C8 1_555 1_555
C9 C8 1_555 1_555
H7 C9 1_555 1_555
H8 C9 1_555 1_555
H9 C9 1_555 1_555
Zn1E N4 1_555 1_555
Zn1G O2 1_555 1_555
O2G Zn1 1_555 1_555
N4E Zn1 1_555 1_555
C4 C5 1_555 1_555
N4 N5 1_555 1_555

#END
