
#######################################################################
#
#                 Cambridge Crystallographic Data Centre
#                                CCDC 
#
#######################################################################
#
# If this CIF has been generated from an entry in the Cambridge 
# Structural Database, then it will include bibliographic, chemical, 
# crystal, experimental, refinement or atomic coordinate data resulting 
# from the CCDC's data processing and validation procedures.
#
#######################################################################

data_AXITIL
_symmetry_cell_setting           monoclinic
_symmetry_space_group_name_H-M   'P 21/c'
_symmetry_Int_Tables_number      14
_space_group_name_Hall           '-P 2ybc'
loop_
_symmetry_equiv_pos_site_id
_symmetry_equiv_pos_as_xyz
1 x,y,z
2 -x,1/2+y,1/2-z
3 -x,-y,-z
4 x,1/2-y,1/2+z
_cell_length_a                   12.396(2)
_cell_length_b                   10.3373(17)
_cell_length_c                   15.128(3)
_cell_angle_alpha                90
_cell_angle_beta                 106.259(2)
_cell_angle_gamma                90
_cell_volume                     1860.99
loop_
_atom_site_label
_atom_site_type_symbol
_atom_site_fract_x
_atom_site_fract_y
_atom_site_fract_z
C1 C 1.0321(3) 0.4538(3) 1.2347(2)
C2 C 1.1058(4) 0.4020(4) 1.1809(3)
H1 H 1.0676 0.4074 1.1163
H2 H 1.1237 0.3133 1.1975
H3 H 1.1738 0.4518 1.1940
C3 C 1.1668(3) 0.7130(3) 1.0890(3)
C4 C 1.2448(3) 0.7247(3) 1.0294(2)
C5 C 1.3581(3) 0.7130(4) 1.0690(2)
H4 H 1.3857 0.6967 1.1318
C6 C 1.4307(3) 0.7254(4) 1.0161(3)
H5 H 1.5073 0.7167 1.0443
C7 C 1.2858(3) 0.7604(3) 0.8866(3)
H6 H 1.2601 0.7771 0.8238
C8 C 1.2088(3) 0.7479(3) 0.9361(2)
H7 H 1.1324 0.7551 0.9066
C9 C 0.7515(3) 0.7910(3) 0.9981(2)
C10 C 0.7731(4) 0.9310(4) 0.9938(3)
H8 H 0.7053 0.9738 0.9601
H9 H 0.8305 0.9447 0.9634
H10 H 0.7974 0.9654 1.0551
C11 C 0.5431(3) 1.0156(3) 0.7517(2)
C12 C 0.6358(3) 0.9706(4) 0.7153(3)
H11 H 0.6510 0.8810 0.7306
H12 H 0.7020 1.0209 0.7420
H13 H 0.6144 0.9807 0.6496
N1 N 0.9871(2) 0.5711(3) 1.22519(19)
N2 N 0.9273(3) 0.5812(3) 1.2871(2)
N3 N 0.9358(3) 0.4745(3) 1.3321(2)
N4 N 1.0015(2) 0.3912(3) 1.30107(19)
N5 N 1.3968(2) 0.7494(3) 0.92599(19)
N6 N 0.8195(2) 0.7073(3) 1.0526(2)
N7 N 0.7683(3) 0.5913(3) 1.0363(2)
N8 N 0.6732(3) 0.6045(3) 0.9743(2)
N9 N 0.6603(2) 0.7302(3) 0.9494(2)
N10 N 0.4974(2) 0.9483(3) 0.80681(19)
N11 N 0.4175(3) 1.0247(3) 0.8252(2)
N12 N 0.4152(3) 1.1327(3) 0.7822(2)
N13 N 0.4940(2) 1.1298(3) 0.73527(19)
O1 O 1.2060(2) 0.7066(3) 1.17221(18)
O2 O 1.0623(2) 0.7116(2) 1.04720(17)
Zn1 Zn 0.97737(3) 0.71772(4) 1.13784(3)
Zn2 Zn 0.51330(3) 0.76982(4) 0.85746(3)
N4A N 0.9985(2) 0.8912(3) 1.19893(19)
N5_2 N 0.3968(2) 0.7494(3) 0.92599(19)
N13A N 0.5060(2) 0.6298(3) 0.76473(19)
Zn1A Zn 1.02263(3) 0.21772(4) 1.36216(3)
Zn2_2 Zn 1.51330(3) 0.76982(4) 0.85746(3)
Zn2A Zn 0.48670(3) 1.26982(4) 0.64254(3)
loop_
_geom_bond_atom_site_label_1
_geom_bond_atom_site_label_2
_geom_bond_site_symmetry_1
_geom_bond_site_symmetry_2
C1 C2 1_555 1_555
C2 H1 1_555 1_555
H2 C2 1_555 1_555
H3 C2 1_555 1_555
C3 C4 1_555 1_555
C4 C5 1_555 1_555
C5 H4 1_555 1_555
C6 C5 1_555 1_555
H5 C6 1_555 1_555
C7 H6 1_555 1_555
C8 C4 1_555 1_555
H7 C8 1_555 1_555
C9 C10 1_555 1_555
C10 H8 1_555 1_555
H9 C10 1_555 1_555
H10 C10 1_555 1_555
C11 C12 1_555 1_555
C12 H11 1_555 1_555
H12 C12 1_555 1_555
H13 C12 1_555 1_555
N1 C1 1_555 1_555
N2 N1 1_555 1_555
N3 N2 1_555 1_555
N4 C1 1_555 1_555
N5 C6 1_555 1_555
N6 C9 1_555 1_555
N7 N6 1_555 1_555
N8 N7 1_555 1_555
N9 C9 1_555 1_555
N10 C11 1_555 1_555
N11 N10 1_555 1_555
N12 N11 1_555 1_555
N13 C11 1_555 1_555
O1 C3 1_555 1_555
O2 C3 1_555 1_555
Zn1 N1 1_555 1_555
Zn2 N9 1_555 1_555
N4A Zn1 1_555 1_555
N5_2 Zn2 1_555 1_555
N13A Zn2 1_555 1_555
Zn1A N4 1_555 1_555
Zn2_2 N5 1_555 1_555
Zn2A N13 1_555 1_555
C7 C8 1_555 1_555
C7 N5 1_555 1_555
N3 N4 1_555 1_555
N6 Zn1 1_555 1_555
N8 N9 1_555 1_555
N10 Zn2 1_555 1_555
N12 N13 1_555 1_555
O2 Zn1 1_555 1_555

#END
