
#######################################################################
#
#                 Cambridge Crystallographic Data Centre
#                                CCDC 
#
#######################################################################
#
# If this CIF has been generated from an entry in the Cambridge 
# Structural Database, then it will include bibliographic, chemical, 
# crystal, experimental, refinement or atomic coordinate data resulting 
# from the CCDC's data processing and validation procedures.
#
#######################################################################

data_AXITAD
_symmetry_cell_setting           monoclinic
_symmetry_space_group_name_H-M   'P 21/c'
_symmetry_Int_Tables_number      14
_space_group_name_Hall           '-P 2ybc'
loop_
_symmetry_equiv_pos_site_id
_symmetry_equiv_pos_as_xyz
1 x,y,z
2 -x,1/2+y,1/2-z
3 -x,-y,-z
4 x,1/2-y,1/2+z
_cell_length_a                   8.2903(12)
_cell_length_b                   13.2778(19)
_cell_length_c                   9.1327(14)
_cell_angle_alpha                90
_cell_angle_beta                 99.633(2)
_cell_angle_gamma                90
_cell_volume                     991.125
loop_
_atom_site_label
_atom_site_type_symbol
_atom_site_fract_x
_atom_site_fract_y
_atom_site_fract_z
Mn1 Mn 0.02313(4) 0.87794(2) 1.06012(4)
C1 C 0.7440(3) 0.70312(19) 1.0520(3)
C2 C 0.5901(3) 0.65970(19) 1.0139(3)
C3 C 0.4666(3) 0.71354(18) 0.9347(3)
C4 C 0.4955(3) 0.81339(17) 0.8899(2)
C5 C 0.3772(3) 0.87732(16) 0.8063(3)
C6 C 0.4169(3) 0.97519(18) 0.7781(3)
C7 C 0.6951(3) 0.95433(16) 0.9054(2)
C8 C 0.6548(3) 0.85178(17) 0.9363(2)
N1 N 0.7785(2) 0.79577(14) 1.0153(2)
O1 O 0.0051(4) 0.9075(2) 1.2914(3)
O2 O 0.84437(17) 0.98640(11) 0.95511(18)
O3 O 0.08757(19) 0.81824(13) 0.85269(18)
O4 O 0.1067(2) 0.90971(13) 0.6273(2)
O5 O 0.1993(2) 0.73779(12) 0.65824(19)
S1 S 0.17959(7) 0.83384(4) 0.73152(6)
H1 H 0.028(4) 0.878(3) 1.352(4)
H2 H -0.010(5) 0.965(3) 1.315(4)
C9 C 0.5736(3) 1.01412(18) 0.8281(3)
H3 H 0.361(3) 0.6852(15) 0.912(2)
H4 H 0.595(3) 1.084(2) 0.804(3)
H5 H 0.339(3) 1.0164(19) 0.718(3)
H6 H 0.828(3) 0.6663(18) 1.108(3)
H7 H 0.580(3) 0.5993(18) 1.050(3)
Mn1_2 Mn 1.02313(4) 0.87794(2) 1.06012(4)
Mn1B Mn 0.97687(4) 1.12206(2) 0.93988(4)
Mn1C Mn 0.02313(4) 0.62206(2) 0.56012(4)
N1_2 N -0.2215(2) 0.79577(14) 1.0153(2)
O2B O 0.15563(17) 1.01360(11) 1.04489(18)
O2_2 O -0.15563(17) 0.98640(11) 0.95511(18)
O5C O 0.1993(2) 0.76221(12) 1.15824(19)
loop_
_geom_bond_atom_site_label_1
_geom_bond_atom_site_label_2
_geom_bond_site_symmetry_1
_geom_bond_site_symmetry_2
Mn1 O1 1_555 1_555
C1 C2 1_555 1_555
C2 C3 1_555 1_555
C3 C4 1_555 1_555
C4 C5 1_555 1_555
C5 C6 1_555 1_555
C6 C9 1_555 1_555
C7 C8 1_555 1_555
C8 C4 1_555 1_555
N1 C1 1_555 1_555
O1 H1 1_555 1_555
O2 C7 1_555 1_555
O3 Mn1 1_555 1_555
O4 S1 1_555 1_555
O5 S1 1_555 1_555
S1 C5 1_555 1_555
H2 O1 1_555 1_555
C9 C7 1_555 1_555
H3 C3 1_555 1_555
H4 C9 1_555 1_555
H5 C6 1_555 1_555
H6 C1 1_555 1_555
H7 C2 1_555 1_555
Mn1_2 N1 1_555 1_555
Mn1B O2 1_555 1_555
Mn1C O5 1_555 1_555
N1_2 Mn1 1_555 1_555
O2B Mn1 1_555 1_555
O2_2 Mn1 1_555 1_555
O5C Mn1 1_555 1_555
C8 N1 1_555 1_555
O2 Mn1_2 1_555 1_555
O3 S1 1_555 1_555

#END
