
#######################################################################
#
#                 Cambridge Crystallographic Data Centre
#                                CCDC 
#
#######################################################################
#
# If this CIF has been generated from an entry in the Cambridge 
# Structural Database, then it will include bibliographic, chemical, 
# crystal, experimental, refinement or atomic coordinate data resulting 
# from the CCDC's data processing and validation procedures.
#
#######################################################################

data_AXOCEW
_symmetry_cell_setting           monoclinic
_symmetry_space_group_name_H-M   'P 2/c'
_symmetry_Int_Tables_number      13
_space_group_name_Hall           '-P 2yc'
loop_
_symmetry_equiv_pos_site_id
_symmetry_equiv_pos_as_xyz
1 x,y,z
2 -x,y,1/2-z
3 -x,-y,-z
4 x,-y,1/2+z
_cell_length_a                   18.820(16)
_cell_length_b                   7.292(6)
_cell_length_c                   23.444(15)
_cell_angle_alpha                90
_cell_angle_beta                 123.17(5)
_cell_angle_gamma                90
_cell_volume                     2693.08
loop_
_atom_site_label
_atom_site_type_symbol
_atom_site_fract_x
_atom_site_fract_y
_atom_site_fract_z
Zn1 Zn 0.45011(6) 0.35379(13) -0.02224(5)
F1 F 0.0552(5) -0.5425(10) -0.1550(5)
F2 F -0.0499(5) -0.3701(10) -0.1760(4)
F3 F -0.0707(5) -0.6013(9) -0.2391(5)
F4 F 0.9177(4) 0.2327(10) 0.4330(3)
F5 F 0.9023(4) 0.0722(10) 0.5028(3)
F6 F 0.8175(4) 0.2943(9) 0.4484(3)
F7 F 0.9179(4) -0.1820(10) 0.4292(4)
F8 F 0.8071(4) -0.2483(9) 0.3312(3)
F9 F 0.8867(4) -0.0251(10) 0.3408(4)
O1 O 0.3479(4) 0.1438(8) -0.0651(3)
O2 O 0.2512(5) 0.3031(12) -0.0579(5)
H1 H 0.2901 0.3772 -0.0380
O3 O 0.5179(4) 0.2719(10) 0.0720(3)
C1 C 0.2769(6) 0.1595(13) -0.0769(5)
C2 C 0.2080(6) 0.0221(13) -0.1163(4)
C3 C 0.1280(5) 0.0500(13) -0.1288(5)
H2 H 0.1180 0.1485 -0.1089
C4 C 0.0620(6) -0.0718(13) -0.1718(5)
H3 H 0.0080 -0.0530 -0.1804
C5 C 0.0762(5) -0.2182(12) -0.2012(5)
C6 C 0.1601(6) -0.2529(13) -0.1829(6)
H4 H 0.1718 -0.3573 -0.1992
C7 C 0.2243(6) -0.1341(13) -0.1415(5)
H5 H 0.2791 -0.1577 -0.1301
C8 C 0.0000 -0.3415(17) -0.2500
C9 C -0.0173(7) -0.4655(14) -0.2048(7)
C10 C 0.5791(5) 0.3616(12) 0.1162(4)
C11 C 0.6328(6) 0.2805(13) 0.1869(4)
C12 C 0.6187(6) 0.1007(14) 0.1977(5)
H6 H 0.5749 0.0318 0.1627
C13 C 0.6724(6) 0.0261(13) 0.2629(4)
H7 H 0.6627 -0.0928 0.2714
C14 C 0.7398(5) 0.1252(12) 0.3153(4)
C15 C 0.7530(6) 0.3061(13) 0.3038(5)
H8 H 0.7971 0.3750 0.3386
C16 C 0.6984(6) 0.3824(12) 0.2388(4)
H9 H 0.7064 0.5029 0.2306
C17 C 0.7997(5) 0.0274(12) 0.3840(4)
C18 C 0.8596(6) 0.1560(15) 0.4425(5)
C19 C 0.8531(6) -0.1078(15) 0.3721(5)
C20 C 0.7469(5) -0.0719(12) 0.4076(4)
C21 C 0.6771(6) 0.0192(13) 0.4008(5)
H10 H 0.6627 0.1359 0.3817
C22 C 0.6297(5) -0.0636(13) 0.4225(5)
H11 H 0.5842 -0.0007 0.4186
C23 C 0.6486(5) -0.2375(12) 0.4496(4)
C24 C 0.7177(7) -0.3261(14) 0.4573(6)
H12 H 0.7313 -0.4434 0.4759
C25 C 0.7675(6) -0.2427(15) 0.4376(6)
H13 H 0.8154 -0.3029 0.4448
O4 O 0.6030(4) 0.5161(9) 0.1087(3)
C26 C 0.5939(5) -0.3276(12) 0.4705(4)
O5 O 0.6153(4) -0.4847(9) 0.4968(3)
O6 O 0.5286(4) -0.2425(9) 0.4581(3)
Zn1A Zn -0.45011(6) 0.35379(13) -0.47776(5)
Zn1B Zn 0.54989(6) 0.64621(13) 0.02224(5)
Zn1A_2 Zn 0.54989(6) -0.64621(13) 0.52224(5)
Zn1C Zn 0.45011(6) -0.35379(13) 0.47776(5)
Zn1C_2 Zn 0.45011(6) 1.64621(13) -0.52224(5)
Zn1A_3 Zn 0.54989(6) 1.35379(13) -0.47776(5)
F1A F -0.0552(5) -0.5425(10) -0.3450(5)
F2A F 0.0499(5) -0.3701(10) -0.3240(4)
F3A F 0.0707(5) -0.6013(9) -0.2609(5)
F4B F 0.0823(4) 0.7673(10) -0.4330(3)
F5B F 0.0977(4) 0.9278(10) -0.5028(3)
F6B F 0.1825(4) 0.7057(9) -0.4484(3)
F7B F 0.0821(4) 1.1820(10) -0.4292(4)
F8B F 0.1929(4) 1.2483(9) -0.3312(3)
F9B F 0.1133(4) 1.0251(10) -0.3408(4)
O1A O -0.3479(4) 0.1438(8) -0.4349(3)
O2A O -0.2512(5) 0.3031(12) -0.4421(5)
H1A H -0.2901 0.3772 -0.4620
O3B O 0.4821(4) 0.7281(10) -0.0720(3)
O3A O -0.5179(4) 0.2719(10) -0.5720(3)
C1A C -0.2769(6) 0.1595(13) -0.4231(5)
C2A C -0.2080(6) 0.0221(13) -0.3837(4)
C3A C -0.1280(5) 0.0500(13) -0.3712(5)
H2A H -0.1180 0.1485 -0.3911
C4A C -0.0620(6) -0.0718(13) -0.3282(5)
H3A H -0.0080 -0.0530 -0.3196
C5A C -0.0762(5) -0.2182(12) -0.2988(5)
C6A C -0.1601(6) -0.2529(13) -0.3171(6)
H4A H -0.1718 -0.3573 -0.3008
C7A C -0.2243(6) -0.1341(13) -0.3585(5)
H5A H -0.2791 -0.1577 -0.3699
C9A C 0.0173(7) -0.4655(14) -0.2952(7)
C10B C 0.4209(5) 0.6384(12) -0.1162(4)
C11B C 0.3672(6) 0.7195(13) -0.1869(4)
C12B C 0.3813(6) 0.8993(14) -0.1977(5)
H6B H 0.4251 0.9682 -0.1627
C13B C 0.3276(6) 0.9739(13) -0.2629(4)
H7B H 0.3373 1.0928 -0.2714
C14B C 0.2602(5) 0.8748(12) -0.3153(4)
C15B C 0.2470(6) 0.6939(13) -0.3038(5)
H8B H 0.2029 0.6250 -0.3386
C16B C 0.3016(6) 0.6176(12) -0.2388(4)
H9B H 0.2936 0.4971 -0.2306
C17B C 0.2003(5) 0.9726(12) -0.3840(4)
C18B C 0.1404(6) 0.8440(15) -0.4425(5)
C19B C 0.1469(6) 1.1078(15) -0.3721(5)
C20B C 0.2531(5) 1.0719(12) -0.4076(4)
C21B C 0.3229(6) 0.9808(13) -0.4008(5)
H10B H 0.3373 0.8641 -0.3817
C22B C 0.3703(5) 1.0636(13) -0.4225(5)
H11B H 0.4158 1.0007 -0.4186
C23B C 0.3514(5) 1.2375(12) -0.4496(4)
C24B C 0.2823(7) 1.3261(14) -0.4573(6)
H12B H 0.2687 1.4434 -0.4759
C25B C 0.2325(6) 1.2427(15) -0.4376(6)
H13B H 0.1846 1.3029 -0.4448
O4B O 0.3970(4) 0.4839(9) -0.1087(3)
O4C O -0.3970(4) 0.4839(9) -0.3913(3)
C26B C 0.4061(5) 1.3276(12) -0.4705(4)
O5B O 0.3847(4) 1.4847(9) -0.4968(3)
O5A O 0.3847(4) 0.5153(9) 0.0032(3)
O5_2 O -0.3847(4) 0.5153(9) -0.5032(3)
O6B O 0.4714(4) 1.2425(9) -0.4581(3)
O6C O 0.5286(4) 0.2425(9) -0.0419(3)
O6B_2 O -0.5286(4) 0.2425(9) -0.4581(3)
loop_
_geom_bond_atom_site_label_1
_geom_bond_atom_site_label_2
_geom_bond_site_symmetry_1
_geom_bond_site_symmetry_2
Zn1 O1 1_555 1_555
F1 C9 1_555 1_555
F2 C9 1_555 1_555
F3 C9 1_555 1_555
F4 C18 1_555 1_555
F5 C18 1_555 1_555
F6 C18 1_555 1_555
F7 C19 1_555 1_555
F8 C19 1_555 1_555
F9 C19 1_555 1_555
O1 C1 1_555 1_555
O2 H1 1_555 1_555
O3 Zn1 1_555 1_555
C1 O2 1_555 1_555
C2 C1 1_555 1_555
C3 C2 1_555 1_555
H2 C3 1_555 1_555
C4 C3 1_555 1_555
H3 C4 1_555 1_555
C5 C4 1_555 1_555
C6 C5 1_555 1_555
H4 C6 1_555 1_555
C7 C2 1_555 1_555
H5 C7 1_555 1_555
C8 C5 1_555 1_555
C9 C8 1_555 1_555
C10 O3 1_555 1_555
C11 C10 1_555 1_555
C12 C11 1_555 1_555
H6 C12 1_555 1_555
C13 C12 1_555 1_555
H7 C13 1_555 1_555
C14 C13 1_555 1_555
C15 C14 1_555 1_555
H8 C15 1_555 1_555
C16 C11 1_555 1_555
H9 C16 1_555 1_555
C17 C14 1_555 1_555
C18 C17 1_555 1_555
C19 C17 1_555 1_555
C20 C17 1_555 1_555
C21 C20 1_555 1_555
H10 C21 1_555 1_555
C22 C21 1_555 1_555
H11 C22 1_555 1_555
C23 C22 1_555 1_555
C24 C23 1_555 1_555
H12 C24 1_555 1_555
C25 C20 1_555 1_555
H13 C25 1_555 1_555
O4 C10 1_555 1_555
C26 C23 1_555 1_555
O5 C26 1_555 1_555
O6 C26 1_555 1_555
Zn1A O1A 1_555 1_555
Zn1B O4 1_555 1_555
Zn1A_2 O5 1_555 1_555
Zn1C O6 1_555 1_555
Zn1C_2 O5B 1_555 1_555
Zn1A_3 O6B 1_555 1_555
F1A C9A 1_555 1_555
F2A C9A 1_555 1_555
F3A C9A 1_555 1_555
F4B C18B 1_555 1_555
F5B C18B 1_555 1_555
F6B C18B 1_555 1_555
F7B C19B 1_555 1_555
F8B C19B 1_555 1_555
F9B C19B 1_555 1_555
O1A C1A 1_555 1_555
O2A H1A 1_555 1_555
O3B Zn1B 1_555 1_555
O3A Zn1A 1_555 1_555
C1A O2A 1_555 1_555
C2A C1A 1_555 1_555
C3A C2A 1_555 1_555
H2A C3A 1_555 1_555
C4A C3A 1_555 1_555
H3A C4A 1_555 1_555
C5A C8 1_555 1_555
C6A C5A 1_555 1_555
H4A C6A 1_555 1_555
C7A C2A 1_555 1_555
H5A C7A 1_555 1_555
C9A C8 1_555 1_555
C10B O3B 1_555 1_555
C11B C10B 1_555 1_555
C12B C11B 1_555 1_555
H6B C12B 1_555 1_555
C13B C12B 1_555 1_555
H7B C13B 1_555 1_555
C14B C13B 1_555 1_555
C15B C14B 1_555 1_555
H8B C15B 1_555 1_555
C16B C11B 1_555 1_555
H9B C16B 1_555 1_555
C17B C14B 1_555 1_555
C18B C17B 1_555 1_555
C19B C17B 1_555 1_555
C20B C17B 1_555 1_555
C21B C20B 1_555 1_555
H10B C21B 1_555 1_555
C22B C21B 1_555 1_555
H11B C22B 1_555 1_555
C23B C22B 1_555 1_555
C24B C23B 1_555 1_555
H12B C24B 1_555 1_555
C25B C20B 1_555 1_555
H13B C25B 1_555 1_555
O4B Zn1 1_555 1_555
O4C Zn1A 1_555 1_555
C26B C23B 1_555 1_555
O5B C26B 1_555 1_555
O5A Zn1 1_555 1_555
O5_2 Zn1A 1_555 1_555
O6B C26B 1_555 1_555
O6C Zn1 1_555 1_555
O6B_2 Zn1A 1_555 1_555
C6 C7 1_555 1_555
C15 C16 1_555 1_555
C24 C25 1_555 1_555
C4A C5A 1_555 1_555
C6A C7A 1_555 1_555
C10B O4B 1_555 1_555
C15B C16B 1_555 1_555
C24B C25B 1_555 1_555

#END
