
#######################################################################
#
#                 Cambridge Crystallographic Data Centre
#                                CCDC 
#
#######################################################################
#
# If this CIF has been generated from an entry in the Cambridge 
# Structural Database, then it will include bibliographic, chemical, 
# crystal, experimental, refinement or atomic coordinate data resulting 
# from the CCDC's data processing and validation procedures.
#
#######################################################################

data_AXOCAS
_symmetry_cell_setting           triclinic
_symmetry_space_group_name_H-M   'P -1'
_symmetry_Int_Tables_number      2
_space_group_name_Hall           '-P 1'
loop_
_symmetry_equiv_pos_site_id
_symmetry_equiv_pos_as_xyz
1 x,y,z
2 -x,-y,-z
_cell_length_a                   11.402(5)
_cell_length_b                   13.866(5)
_cell_length_c                   21.902(9)
_cell_angle_alpha                75.871(13)
_cell_angle_beta                 77.874(12)
_cell_angle_gamma                72.202(12)
_cell_volume                     3162.66
loop_
_atom_site_label
_atom_site_type_symbol
_atom_site_fract_x
_atom_site_fract_y
_atom_site_fract_z
Cd1 Cd 0.61324(5) 0.18360(5) 0.50208(3)
Cd2 Cd -0.22115(5) 0.28341(3) 0.84896(3)
Cd3 Cd -0.01126(4) 0.47076(3) 0.81010(3)
O1 O 0.5010(5) 0.0895(4) 0.5880(3)
O2 O 0.4108(5) 0.2529(4) 0.5580(3)
O3 O 0.0507(5) 0.4043(4) 0.7201(3)
O4 O -0.0343(5) 0.2944(4) 0.7904(3)
O5 O -0.0513(5) -0.3550(4) 0.7979(3)
O6 O 0.1451(6) -0.4288(4) 0.7682(3)
O7 O 0.5298(5) 0.1733(4) 0.4203(3)
O8 O 0.5353(6) 0.3348(4) 0.4021(3)
O9 O 0.3546(5) 0.5739(3) 0.2052(3)
O10 O 0.2224(4) 0.5235(3) 0.1698(2)
O11 O 0.2850(6) -0.1098(5) 0.1132(3)
O12 O 0.2621(7) -0.1899(4) 0.2117(3)
O13 O 0.6608(7) 0.2721(7) 0.5680(5)
H1 H 0.6133 0.2818 0.6027
H2 H 0.7249 0.2949 0.5571
N1 N 0.7391(6) 0.0155(6) 0.4938(3)
N2 N 0.8125(7) 0.1901(7) 0.4463(4)
N3 N -0.3284(6) 0.3050(5) 0.9490(3)
N4 N -0.0835(6) 0.1965(4) 0.9247(4)
N5 N -0.0434(5) 0.4277(4) 0.9223(3)
N6 N 0.1725(5) 0.3552(4) 0.8469(3)
C1 C 0.3066(6) 0.5054(5) 0.2037(3)
C2 C 0.0563(7) -0.3494(5) 0.7761(4)
C3 C 0.0552(6) 0.3703(5) 0.9501(4)
C4 C 0.1636(6) 0.0485(5) 0.7012(3)
C5 C 0.2186(7) 0.2408(5) 0.6626(4)
H15 H 0.2335 0.3055 0.6481
C6 C 0.3630(6) 0.0313(5) 0.2744(4)
H16 H 0.3751 0.0217 0.3164
C7 C 0.3799(6) 0.2131(5) 0.2556(3)
C8 C 0.5064(6) 0.2623(5) 0.3880(3)
C9 C 0.3668(6) 0.1238(5) 0.2330(3)
C10 C 0.1360(6) -0.0527(5) 0.7212(3)
C11 C 0.0148(6) -0.0612(5) 0.7458(4)
H17 H -0.0499 -0.0019 0.7495
C12 C 0.4329(6) 0.2006(5) 0.3088(3)
H18 H 0.4591 0.1343 0.3324
C13 C 0.0859(6) -0.2465(5) 0.7581(3)
C14 C 0.3413(7) -0.0465(5) 0.2531(4)
H19 H 0.3399 -0.1085 0.2813
C15 C 0.1710(6) 0.3308(5) 0.9102(4)
C16 C 0.4104(7) 0.1670(5) 0.5922(4)
C17 C 0.3349(6) 0.3154(4) 0.2234(3)
H20 H 0.2926 0.3274 0.1892
C18 C 0.4493(6) 0.2844(5) 0.3295(3)
C19 C 0.3543(7) 0.1321(5) 0.1696(4)
H21 H 0.3607 0.1921 0.1404
C20 C 0.2707(6) 0.0619(5) 0.6590(4)
H22 H 0.3253 0.0053 0.6432
C21 C 0.3522(6) 0.3979(5) 0.2416(4)
C22 C 0.1151(7) 0.2299(5) 0.7073(4)
C23 C 0.4092(6) 0.3830(5) 0.2938(3)
H23 H 0.4211 0.4392 0.3053
C24 C 0.2987(6) 0.1578(5) 0.6396(4)
C25 C 0.0370(7) 0.3158(6) 0.7399(4)
C26 C 0.2027(7) -0.2397(5) 0.7322(4)
H24 H 0.2656 -0.2991 0.7260
C27 C 0.2755(7) 0.2716(6) 0.9399(4)
C28 C 0.2294(7) -0.1431(5) 0.7147(4)
H25 H 0.3106 -0.1397 0.6986
C29 C -0.0090(7) -0.1556(5) 0.7644(4)
H26 H -0.0896 -0.1597 0.7815
C30 C 0.0515(8) 0.3455(6) 1.0155(4)
C31 C 0.3331(8) 0.0539(5) 0.1501(4)
H27 H 0.3259 0.0610 0.1076
C32 C 0.0876(7) 0.1335(5) 0.7250(4)
H28 H 0.0162 0.1271 0.7536
C33 C 0.1591(9) 0.2848(6) 1.0432(5)
H29 H 0.1542 0.2683 1.0873
C34 C 0.2752(7) 0.3194(6) 0.8103(4)
H30 H 0.2778 0.3363 0.7663
C35 C -0.1498(7) 0.4615(5) 0.9584(4)
H31 H -0.2187 0.5003 0.9386
C36 C -0.2675(9) 0.2522(6) 0.9986(4)
C37 C -0.1633(8) 0.4422(6) 1.0236(5)
H32 H -0.2391 0.4695 1.0472
C38 C -0.1390(8) 0.1953(5) 0.9856(4)
C39 C -0.0626(9) 0.3815(6) 1.0539(4)
H33 H -0.0700 0.3650 1.0981
C40 C 0.8542(8) 0.0104(9) 0.4602(4)
C41 C 0.1074(10) 0.0910(7) 0.9610(9)
H34 H 0.1908 0.0559 0.9521
C42 C 0.2692(8) 0.2504(6) 1.0065(5)
H35 H 0.3398 0.2131 1.0252
C43 C 0.9355(8) -0.0854(10) 0.4482(5)
C44 C 1.0901(10) -0.0064(14) 0.3918(5)
H36 H 1.1699 -0.0115 0.3692
C45 C 0.0347(8) 0.1460(6) 0.9119(6)
H37 H 0.0712 0.1466 0.8697
C46 C -0.3236(13) 0.2546(8) 1.0615(6)
C47 C 0.8926(7) 0.0991(9) 0.4355(4)
C48 C 0.3835(8) 0.2366(7) 0.9002(6)
H38 H 0.4565 0.2003 0.9171
C49 C -0.134(2) 0.1436(13) 1.1002(8)
H39 H -0.0919 0.1056 1.1341
C50 C 0.8896(12) -0.1750(11) 0.4737(6)
H40 H 0.9380 -0.2396 0.4663
C51 C 0.7024(9) -0.0699(7) 0.5170(5)
H41 H 0.6231 -0.0652 0.5402
C52 C 1.0116(10) 0.0955(11) 0.4010(5)
C53 C 0.8459(10) 0.2775(10) 0.4242(6)
H42 H 0.7920 0.3398 0.4328
C54 C 1.0463(12) 0.1842(13) 0.3776(6)
H43 H 1.1259 0.1815 0.3553
C55 C -0.247(2) 0.1955(14) 1.1113(7)
H44 H -0.2824 0.1961 1.1535
C56 C 0.7770(11) -0.1642(9) 0.5080(5)
H45 H 0.7487 -0.2224 0.5262
C57 C -0.0718(11) 0.1427(7) 1.0369(6)
C58 C 0.3828(9) 0.2552(8) 0.8367(6)
H46 H 0.4531 0.2257 0.8102
C59 C 0.9694(12) 0.2744(12) 0.3860(5)
H47 H 0.9928 0.3351 0.3681
C60 C 1.0544(10) -0.0899(14) 0.4133(7)
H48 H 1.1077 -0.1529 0.4057
C61 C 0.0466(16) 0.0924(8) 1.0237(8)
H49 H 0.0910 0.0566 1.0572
C62 C -0.5005(13) 0.3662(12) 1.0218(9)
H50 H -0.5817 0.4073 1.0281
C63 C -0.4449(16) 0.3154(13) 1.0715(7)
H51 H -0.4860 0.3201 1.1126
C64 C -0.4423(8) 0.3603(7) 0.9611(6)
H52 H -0.4856 0.3969 0.9273
C65 C 0.2878(6) -0.1172(5) 0.1715(4)
C66 C 0.3220(6) -0.0360(5) 0.1923(4)
Cd2A Cd 0.22115(5) 0.71659(3) 0.15104(3)
Cd2A_2 Cd 0.22115(5) -0.28341(3) 0.15104(3)
Cd3_2 Cd -0.01126(4) -0.52924(3) 0.81010(3)
Cd3A Cd 0.01126(4) 0.52924(3) 0.18990(3)
O5_2 O -0.0513(5) 0.6450(4) 0.7979(3)
O6_2 O 0.1451(6) 0.5712(4) 0.7682(3)
O9A O -0.3546(5) 0.4261(3) 0.7948(3)
O10A O -0.2224(4) 0.4765(3) 0.8302(2)
O11A O -0.2850(6) 0.1098(5) 0.8868(3)
O12A O -0.2621(7) 0.1899(4) 0.7883(3)
O14 O 0.5487(12) 0.3176(8) 0.6854(5)
H3 H 0.4855 0.3123 0.7133
H4 H 0.5996 0.3473 0.6909
O15 O 0.6373(9) 0.4917(6) 0.3261(5)
H5 H 0.5746 0.5441 0.3227
H6 H 0.7038 0.4912 0.2998
O16 O 0.4121(8) 0.9427(7) -0.0068(5)
H7 H 0.4607 0.9212 -0.0387
H8 H 0.3980 1.0051 -0.0032
O17 O 0.3693(7) -0.4805(6) 0.8385(4)
H9 H 0.3009 -0.4718 0.8638
H10 H 0.4188 -0.5406 0.8392
O18 O 0.012(3) 0.482(2) 0.5860(15)
H11 H -0.0355 0.4584 0.6177
H12 H -0.0138 0.5421 0.5643
O19 O 0.307(3) 0.4555(15) 0.5451(19)
H13 H 0.2459 0.4470 0.5735
H14 H 0.3100 0.5160 0.5254
loop_
_geom_bond_atom_site_label_1
_geom_bond_atom_site_label_2
_geom_bond_site_symmetry_1
_geom_bond_site_symmetry_2
Cd1 O1 1_555 1_555
Cd2 O4 1_555 1_555
Cd3 O3 1_555 1_555
O1 C16 1_555 1_555
O2 Cd1 1_555 1_555
O3 C25 1_555 1_555
O4 C25 1_555 1_555
O5 C2 1_555 1_555
O6 C2 1_555 1_555
O7 Cd1 1_555 1_555
O8 C8 1_555 1_555
O9 C1 1_555 1_555
O10 C1 1_555 1_555
O11 C65 1_555 1_555
O12 C65 1_555 1_555
O13 Cd1 1_555 1_555
H1 O13 1_555 1_555
H2 O13 1_555 1_555
O14 H3 1_555 1_555
H4 O14 1_555 1_555
O15 H5 1_555 1_555
H6 O15 1_555 1_555
O16 H7 1_555 1_555
H8 O16 1_555 1_555
O17 H9 1_555 1_555
H10 O17 1_555 1_555
O18 H11 1_555 1_555
H12 O18 1_555 1_555
O19 H13 1_555 1_555
H14 O19 1_555 1_555
N1 Cd1 1_555 1_555
N2 Cd1 1_555 1_555
N3 Cd2 1_555 1_555
N4 Cd2 1_555 1_555
N5 Cd3 1_555 1_555
N6 Cd3 1_555 1_555
C1 C21 1_555 1_555
C2 C13 1_555 1_555
C3 N5 1_555 1_555
C4 C10 1_555 1_555
C5 H15 1_555 1_555
C6 H16 1_555 1_555
C7 C9 1_555 1_555
C8 O7 1_555 1_555
C9 C6 1_555 1_555
C10 C11 1_555 1_555
C11 H17 1_555 1_555
C12 C7 1_555 1_555
H18 C12 1_555 1_555
C13 C26 1_555 1_555
C14 C6 1_555 1_555
H19 C14 1_555 1_555
C15 N6 1_555 1_555
C16 O2 1_555 1_555
C17 C7 1_555 1_555
H20 C17 1_555 1_555
C18 C8 1_555 1_555
C19 C9 1_555 1_555
H21 C19 1_555 1_555
C20 C4 1_555 1_555
H22 C20 1_555 1_555
C21 C17 1_555 1_555
C22 C5 1_555 1_555
C23 C18 1_555 1_555
H23 C23 1_555 1_555
C24 C5 1_555 1_555
C25 C22 1_555 1_555
C26 H24 1_555 1_555
C27 C15 1_555 1_555
C28 C10 1_555 1_555
H25 C28 1_555 1_555
C29 C11 1_555 1_555
H26 C29 1_555 1_555
C30 C3 1_555 1_555
C31 C19 1_555 1_555
H27 C31 1_555 1_555
C32 C4 1_555 1_555
H28 C32 1_555 1_555
C33 C30 1_555 1_555
H29 C33 1_555 1_555
C34 N6 1_555 1_555
H30 C34 1_555 1_555
C35 N5 1_555 1_555
H31 C35 1_555 1_555
C36 N3 1_555 1_555
C37 C35 1_555 1_555
H32 C37 1_555 1_555
C38 N4 1_555 1_555
C39 C30 1_555 1_555
H33 C39 1_555 1_555
C40 N1 1_555 1_555
C41 H34 1_555 1_555
C42 C27 1_555 1_555
H35 C42 1_555 1_555
C43 C40 1_555 1_555
C44 H36 1_555 1_555
C45 N4 1_555 1_555
H37 C45 1_555 1_555
C46 C36 1_555 1_555
C47 N2 1_555 1_555
C48 C27 1_555 1_555
H38 C48 1_555 1_555
C49 H39 1_555 1_555
C50 C43 1_555 1_555
H40 C50 1_555 1_555
C51 N1 1_555 1_555
H41 C51 1_555 1_555
C52 C44 1_555 1_555
C53 N2 1_555 1_555
H42 C53 1_555 1_555
C54 C52 1_555 1_555
H43 C54 1_555 1_555
C55 C46 1_555 1_555
H44 C55 1_555 1_555
C56 C50 1_555 1_555
H45 C56 1_555 1_555
C57 C38 1_555 1_555
C58 C34 1_555 1_555
H46 C58 1_555 1_555
C59 C53 1_555 1_555
H47 C59 1_555 1_555
C60 C43 1_555 1_555
H48 C60 1_555 1_555
C61 C41 1_555 1_555
H49 C61 1_555 1_555
C62 H50 1_555 1_555
C63 C46 1_555 1_555
H51 C63 1_555 1_555
C64 N3 1_555 1_555
H52 C64 1_555 1_555
C65 C66 1_555 1_555
C66 C14 1_555 1_555
Cd2A O9 1_555 1_555
Cd2A_2 O11 1_555 1_555
Cd3_2 O5 1_555 1_555
Cd3A O10 1_555 1_555
O5_2 Cd3 1_555 1_555
O6_2 Cd3 1_555 1_555
O9A Cd2 1_555 1_555
O10A Cd2 1_555 1_555
O11A Cd2 1_555 1_555
O12A Cd2 1_555 1_555
Cd3 O10A 1_555 1_555
O6 Cd3_2 1_555 1_555
O10 Cd2A 1_555 1_555
O12 Cd2A_2 1_555 1_555
C3 C15 1_555 1_555
C12 C18 1_555 1_555
C13 C29 1_555 1_555
C16 C24 1_555 1_555
C20 C24 1_555 1_555
C21 C23 1_555 1_555
C22 C32 1_555 1_555
C26 C28 1_555 1_555
C31 C66 1_555 1_555
C33 C42 1_555 1_555
C36 C38 1_555 1_555
C37 C39 1_555 1_555
C40 C47 1_555 1_555
C41 C45 1_555 1_555
C44 C60 1_555 1_555
C47 C52 1_555 1_555
C48 C58 1_555 1_555
C49 C55 1_555 1_555
C49 C57 1_555 1_555
C51 C56 1_555 1_555
C54 C59 1_555 1_555
C57 C61 1_555 1_555
C62 C63 1_555 1_555
C62 C64 1_555 1_555

#END
