
#######################################################################
#
#                 Cambridge Crystallographic Data Centre
#                                CCDC 
#
#######################################################################
#
# If this CIF has been generated from an entry in the Cambridge 
# Structural Database, then it will include bibliographic, chemical, 
# crystal, experimental, refinement or atomic coordinate data resulting 
# from the CCDC's data processing and validation procedures.
#
#######################################################################

data_AXODIB
_symmetry_cell_setting           monoclinic
_symmetry_space_group_name_H-M   'C 2/c'
_symmetry_Int_Tables_number      15
_space_group_name_Hall           '-C 2yn'
loop_
_symmetry_equiv_pos_site_id
_symmetry_equiv_pos_as_xyz
1 x,y,z
2 -x,y,1/2-z
3 1/2+x,1/2+y,z
4 1/2-x,1/2+y,1/2-z
5 -x,-y,-z
6 x,-y,1/2+z
7 1/2-x,1/2-y,-z
8 1/2+x,1/2-y,1/2+z
_cell_length_a                   18.903(7)
_cell_length_b                   19.534(6)
_cell_length_c                   12.847(3)
_cell_angle_alpha                90
_cell_angle_beta                 129.327(11)
_cell_angle_gamma                90
_cell_volume                     3669.5
loop_
_atom_site_label
_atom_site_type_symbol
_atom_site_fract_x
_atom_site_fract_y
_atom_site_fract_z
Co1 Co -0.2500 0.2500 -0.5000
Co2 Co -0.5000 0.13935(2) -0.7500
O1 O 0.0000 -0.05528(11) -0.2500
O2 O -0.14006(15) 0.13897(9) -0.62570(19)
O3 O -0.14597(10) 0.19993(7) -0.48489(15)
O4 O -0.33179(10) 0.16062(8) -0.60799(14)
O5 O -0.40004(10) 0.06060(8) -0.67721(14)
O6 O -0.5000 0.24325(12) -0.7500
H1 H -0.538(2) 0.2628(15) -0.815(3)
N1 N -0.41564(13) 0.14865(10) -0.34905(18)
N2 N -0.46628(13) 0.13437(9) -0.55692(17)
N3 N -0.34890(13) 0.27460(10) 0.10000(18)
N4 N -0.30360(13) 0.28720(10) 0.30503(17)
C1 C -0.39446(15) 0.18102(12) -0.2321(2)
C2 C -0.3843(2) 0.14096(13) -0.1338(2)
H2 H -0.3881 0.0925 -0.1422
C3 C -0.36856(19) 0.17191(13) -0.0236(2)
H3 H -0.3619 0.1448 0.0435
C4 C -0.36262(15) 0.24262(12) -0.0118(2)
C5 C -0.37244(19) 0.28203(13) -0.1089(2)
H4 H -0.3685 0.3305 -0.1004
C6 C -0.38812(19) 0.25121(12) -0.2194(2)
H5 H -0.3944 0.2785 -0.2860
C7 C -0.44447(15) 0.17950(12) -0.4649(2)
H6 H -0.4484 0.2277 -0.4778
C8 C -0.44947(18) 0.07144(12) -0.4970(2)
H7 H -0.4582 0.0287 -0.5391
C9 C -0.41864(19) 0.07893(13) -0.3694(2)
H8 H -0.4025 0.0436 -0.3069
C10 C -0.07950(14) -0.01667(10) -0.3362(2)
C11 C -0.08096(14) 0.03911(11) -0.4040(2)
H9 H -0.0281 0.0503 -0.3941
C12 C -0.15944(14) 0.07895(10) -0.48649(19)
C13 C -0.23933(14) 0.05837(11) -0.5101(2)
C14 C -0.23694(15) 0.00054(11) -0.4442(2)
H10 H -0.2916 -0.0142 -0.4621
C15 C -0.15652(15) -0.03623(11) -0.3529(2)
H11 H -0.1546 -0.0735 -0.3037
C16 C -0.14982(14) 0.14377(11) -0.5401(2)
C17 C -0.32850(14) 0.09610(11) -0.60415(19)
C18 C -0.30372(18) 0.24768(12) 0.2225(2)
H12 H -0.2746 0.2042 0.2474
C19 C -0.3561(2) 0.34204(14) 0.2283(3)
H13 H -0.3701 0.3796 0.2595
C20 C -0.3854(3) 0.33539(15) 0.1009(3)
H14 H -0.4232 0.3662 0.0279
Co1_2 Co -0.2500 0.2500 0.5000
Co1A Co 0.2500 0.2500 0.0000
Co1A_2 Co -0.7500 0.2500 -2.0000
Co2_2 Co 0.5000 0.13935(2) 0.2500
O2A O 0.14006(15) 0.13897(9) 0.12570(19)
O3F O -0.35403(10) 0.30007(7) -0.51511(15)
O3A O 0.14597(10) 0.19993(7) -0.01511(15)
O4F O -0.16821(10) 0.33938(8) -0.39201(14)
O4A O 0.33179(10) 0.16062(8) 0.10799(14)
O5A O -0.59996(10) 0.06060(8) -0.82279(14)
O5A_2 O 0.40004(10) 0.06060(8) 0.17721(14)
H1A H -0.462(2) 0.2628(15) -0.685(3)
N1A N -0.58436(13) 0.14865(10) -1.15095(18)
N2A N -0.53372(13) 0.13437(9) -0.94308(17)
N3A N -0.65110(13) 0.27460(10) -1.60000(18)
N4F N -0.19640(13) 0.21280(10) -0.30503(17)
N4_2 N -0.30360(13) 0.28720(10) -0.69497(17)
N4A N -0.69640(13) 0.28720(10) -1.80503(17)
C1A C -0.60554(15) 0.18102(12) -1.2679(2)
C2A C -0.6157(2) 0.14096(13) -1.3662(2)
H2A H -0.6119 0.0925 -1.3578
C3A C -0.63144(19) 0.17191(13) -1.4764(2)
H3A H -0.6381 0.1448 -1.5435
C4A C -0.63738(15) 0.24262(12) -1.4882(2)
C5A C -0.62756(19) 0.28203(13) -1.3911(2)
H4A H -0.6315 0.3305 -1.3996
C6A C -0.61188(19) 0.25121(12) -1.2806(2)
H5A H -0.6056 0.2785 -1.2140
C7A C -0.55553(15) 0.17950(12) -1.0351(2)
H6A H -0.5516 0.2277 -1.0222
C8A C -0.55053(18) 0.07144(12) -1.0030(2)
H7A H -0.5418 0.0287 -0.9609
C9A C -0.58136(19) 0.07893(13) -1.1306(2)
H8A H -0.5975 0.0436 -1.1931
C10A C 0.07950(14) -0.01667(10) -0.1638(2)
C11A C 0.08096(14) 0.03911(11) -0.0960(2)
H9A H 0.0281 0.0503 -0.1059
C12A C 0.15944(14) 0.07895(10) -0.01351(19)
C13A C 0.23933(14) 0.05837(11) 0.0101(2)
C14A C 0.23694(15) 0.00054(11) -0.0558(2)
H10A H 0.2916 -0.0142 -0.0379
C15A C 0.15652(15) -0.03623(11) -0.1471(2)
H11A H 0.1546 -0.0735 -0.1963
C16A C 0.14982(14) 0.14377(11) 0.0401(2)
C17A C 0.32850(14) 0.09610(11) 0.10415(19)
C18A C -0.69628(18) 0.24768(12) -1.7225(2)
H12A H -0.7254 0.2042 -1.7474
C19A C -0.6439(2) 0.34204(14) -1.7283(3)
H13A H -0.6299 0.3796 -1.7595
C20A C -0.6146(3) 0.33539(15) -1.6009(3)
H14A H -0.5768 0.3662 -1.5279
loop_
_geom_bond_atom_site_label_1
_geom_bond_atom_site_label_2
_geom_bond_site_symmetry_1
_geom_bond_site_symmetry_2
Co1 O3 1_555 1_555
Co2 O5 1_555 1_555
O1 C10 1_555 1_555
O2 C16 1_555 1_555
O3 C16 1_555 1_555
O4 Co1 1_555 1_555
O5 C17 1_555 1_555
O6 Co2 1_555 1_555
H1 O6 1_555 1_555
N1 C1 1_555 1_555
N2 Co2 1_555 1_555
N3 C4 1_555 1_555
N4 C18 1_555 1_555
C1 C2 1_555 1_555
C2 H2 1_555 1_555
C3 C2 1_555 1_555
H3 C3 1_555 1_555
C4 C3 1_555 1_555
C5 C4 1_555 1_555
H4 C5 1_555 1_555
C6 C1 1_555 1_555
H5 C6 1_555 1_555
C7 N1 1_555 1_555
H6 C7 1_555 1_555
C8 N2 1_555 1_555
H7 C8 1_555 1_555
C9 N1 1_555 1_555
H8 C9 1_555 1_555
C10 C11 1_555 1_555
C11 H9 1_555 1_555
C12 C11 1_555 1_555
C13 C12 1_555 1_555
C14 C13 1_555 1_555
H10 C14 1_555 1_555
C15 C10 1_555 1_555
H11 C15 1_555 1_555
C16 C12 1_555 1_555
C17 O4 1_555 1_555
C18 N3 1_555 1_555
H12 C18 1_555 1_555
C19 N4 1_555 1_555
H13 C19 1_555 1_555
C20 N3 1_555 1_555
H14 C20 1_555 1_555
Co1_2 N4 1_555 1_555
Co1A O3A 1_555 1_555
Co1A_2 N4A 1_555 1_555
Co2_2 O5A_2 1_555 1_555
O2A C16A 1_555 1_555
O3F Co1 1_555 1_555
O3A C16A 1_555 1_555
O4F Co1 1_555 1_555
O4A Co1A 1_555 1_555
O5A Co2 1_555 1_555
O5A_2 C17A 1_555 1_555
H1A O6 1_555 1_555
N1A C1A 1_555 1_555
N2A Co2 1_555 1_555
N3A C4A 1_555 1_555
N4F Co1 1_555 1_555
N4_2 Co1 1_555 1_555
N4A C18A 1_555 1_555
C1A C2A 1_555 1_555
C2A H2A 1_555 1_555
C3A C2A 1_555 1_555
H3A C3A 1_555 1_555
C4A C3A 1_555 1_555
C5A C4A 1_555 1_555
H4A C5A 1_555 1_555
C6A C1A 1_555 1_555
H5A C6A 1_555 1_555
C7A N1A 1_555 1_555
H6A C7A 1_555 1_555
C8A N2A 1_555 1_555
H7A C8A 1_555 1_555
C9A N1A 1_555 1_555
H8A C9A 1_555 1_555
C10A O1 1_555 1_555
C11A C10A 1_555 1_555
H9A C11A 1_555 1_555
C12A C11A 1_555 1_555
C13A C12A 1_555 1_555
C14A C13A 1_555 1_555
H10A C14A 1_555 1_555
C15A C10A 1_555 1_555
H11A C15A 1_555 1_555
C16A C12A 1_555 1_555
C17A O4A 1_555 1_555
C18A N3A 1_555 1_555
H12A C18A 1_555 1_555
C19A N4A 1_555 1_555
H13A C19A 1_555 1_555
C20A N3A 1_555 1_555
H14A C20A 1_555 1_555
N2 C7 1_555 1_555
C5 C6 1_555 1_555
C8 C9 1_555 1_555
C13 C17 1_555 1_555
C14 C15 1_555 1_555
C19 C20 1_555 1_555
N2A C7A 1_555 1_555
C5A C6A 1_555 1_555
C8A C9A 1_555 1_555
C13A C17A 1_555 1_555
C14A C15A 1_555 1_555
C19A C20A 1_555 1_555

#END
