
#######################################################################
#
#                 Cambridge Crystallographic Data Centre
#                                CCDC 
#
#######################################################################
#
# If this CIF has been generated from an entry in the Cambridge 
# Structural Database, then it will include bibliographic, chemical, 
# crystal, experimental, refinement or atomic coordinate data resulting 
# from the CCDC's data processing and validation procedures.
#
#######################################################################

data_AXODUN
_symmetry_cell_setting           monoclinic
_symmetry_space_group_name_H-M   'P 21/c'
_symmetry_Int_Tables_number      14
_space_group_name_Hall           '-P 2ybc'
loop_
_symmetry_equiv_pos_site_id
_symmetry_equiv_pos_as_xyz
1 x,y,z
2 -x,1/2+y,1/2-z
3 -x,-y,-z
4 x,1/2-y,1/2+z
_cell_length_a                   13.503(2)
_cell_length_b                   8.3507(12)
_cell_length_c                   25.517(4)
_cell_angle_alpha                90
_cell_angle_beta                 101.973(3)
_cell_angle_gamma                90
_cell_volume                     2814.69
loop_
_atom_site_label
_atom_site_type_symbol
_atom_site_fract_x
_atom_site_fract_y
_atom_site_fract_z
Co1 Co -1.49363(4) 1.73029(7) 0.31056(2)
Co2 Co -0.5000 1.0000 0.5000
C1 C -1.4326(3) 1.3705(5) 0.29998(16)
C2 C -1.4287(3) 1.5270(6) 0.40618(16)
C3 C -1.3371(3) 1.3825(5) 0.34365(16)
C4 C -1.3342(3) 1.4630(5) 0.39091(17)
C5 C -1.2432(3) 1.4837(6) 0.42616(19)
H1 H -1.2415 1.5370 0.4583
C6 C -1.1545(4) 1.4264(7) 0.4144(2)
C7 C -1.1574(4) 1.3453(6) 0.3677(2)
C8 C -1.2479(3) 1.3212(6) 0.33249(18)
H2 H -1.2496 1.2638 0.3011
C9 C -0.9954(5) 1.1581(11) 0.4326(3)
H3 H -1.0588 1.1318 0.4390
C10 C -0.9082(6) 1.1023(11) 0.4664(3)
H4 H -0.9137 1.0352 0.4947
C11 C -0.8132(10) 1.1444(16) 0.4587(3)
C12 C -0.8065(5) 1.2466(9) 0.4163(3)
C13 C -0.8946(5) 1.2978(8) 0.3821(3)
H5 H -0.8903 1.3643 0.3535
C14 C -0.7200(4) 1.0713(6) 0.4952(2)
C15 C -0.7072(10) 1.300(2) 0.4041(6)
C16 C -1.3074(3) 1.7001(6) 0.25981(18)
H6 H -1.3532 1.6524 0.2319
C17 C -1.2078(4) 1.7127(6) 0.2558(2)
H7 H -1.1871 1.6702 0.2262
C18 C -1.1386(4) 1.7876(8) 0.2953(2)
C19 C -1.1736(4) 1.8425(8) 0.3390(2)
H8 H -1.1298 1.8925 0.3672
C20 C -1.2739(4) 1.8226(6) 0.3407(2)
H9 H -1.2960 1.8599 0.3707
C21 C -1.0280(4) 1.8078(9) 0.2921(2)
H10 H -1.0189 1.7731 0.2571
H11 H -1.0100 1.9202 0.2960
C22 C -0.9624(4) 1.7180(8) 0.3325(3)
H12 H -0.9847 1.6073 0.3304
H13 H -0.9678 1.7590 0.3673
C23 C -0.8513(4) 1.7235(7) 0.3278(2)
C24 C -0.8098(4) 1.6066(7) 0.3018(2)
H14 H -0.8501 1.5230 0.2854
C25 C -0.7089(4) 1.6112(6) 0.2998(2)
H15 H -0.6827 1.5285 0.2824
C26 C -0.7881(4) 1.8457(8) 0.3496(2)
H16 H -0.8128 1.9298 0.3670
C27 C -0.6884(4) 1.8431(7) 0.3455(2)
H17 H -0.6471 1.9275 0.3605
N1 N -1.3408(3) 1.7534(4) 0.30208(14)
N2 N -0.6474(3) 1.7276(5) 0.32147(14)
O1 O -1.4942(2) 1.4832(3) 0.29467(11)
O2 O -1.4911(2) 1.9769(4) 0.32603(12)
H18 H -1.468(3) 2.042(4) 0.3073(12)
H19 H -1.483(3) 2.013(5) 0.3566(7)
O3 O -0.4579(2) 1.0956(4) 0.42755(13)
H20 H -0.4001(14) 1.060(4) 0.4337(19)
H21 H -0.455(3) 1.1938(13) 0.425(2)
O4 O -1.4426(2) 1.2478(3) 0.27112(11)
O5 O -1.4533(2) 1.6699(4) 0.39394(11)
O6 O -0.5555(3) 0.7841(4) 0.46505(14)
H22 H -0.522(3) 0.749(5) 0.4441(14)
H23 H -0.556(4) 0.720(4) 0.4890(14)
O7 O -1.4742(2) 1.4376(4) 0.43160(13)
O8 O -1.0708(4) 1.3017(8) 0.3524(2)
H24 H -1.0902(10) 1.441(6) 0.439(4)
C28 C -0.9873(5) 1.2521(9) 0.3900(3)
O9 O -0.6409(2) 1.0964(4) 0.47931(12)
O10 O -0.7291(3) 0.9887(5) 0.53394(15)
O11 O -0.6642(17) 1.415(2) 0.4426(9)
O12 O -0.6733(7) 1.2533(17) 0.3675(4)
H25 H -0.617(5) 1.442(8) 0.437(3)
Co1B Co 0.49363(4) 0.26971(7) 0.68944(2)
Co1C Co 0.50637(4) 0.76971(7) 0.81056(2)
Co1B_2 Co -0.50637(4) 0.26971(7) 0.68944(2)
Co1_2 Co -0.49363(4) 1.73029(7) 0.31056(2)
Co1A Co -1.50637(4) 1.23029(7) 0.18944(2)
C1B C 0.4326(3) 0.6295(5) 0.70002(16)
C2B C 0.4287(3) 0.4730(6) 0.59382(16)
C3B C 0.3371(3) 0.6175(5) 0.65635(16)
C4B C 0.3342(3) 0.5370(5) 0.60909(17)
C5B C 0.2432(3) 0.5163(6) 0.57384(19)
H1B H 0.2415 0.4630 0.5417
C6B C 0.1545(4) 0.5736(7) 0.5856(2)
C7B C 0.1574(4) 0.6547(6) 0.6323(2)
C8B C 0.2479(3) 0.6788(6) 0.66751(18)
H2B H 0.2496 0.7362 0.6989
C9B C -0.0046(5) 0.8419(11) 0.5674(3)
H3B H 0.0588 0.8682 0.5610
C10B C -0.0918(6) 0.8977(11) 0.5336(3)
H4B H -0.0863 0.9648 0.5053
C11B C -0.1868(10) 0.8556(16) 0.5413(3)
C12B C -0.1935(5) 0.7534(9) 0.5837(3)
C13B C -0.1054(5) 0.7022(8) 0.6179(3)
H5B H -0.1097 0.6357 0.6465
C14B C -0.2800(4) 0.9287(6) 0.5048(2)
C15B C -0.2928(10) 0.700(2) 0.5959(6)
C16B C 0.3074(3) 0.2999(6) 0.74019(18)
H6B H 0.3532 0.3476 0.7681
C17B C 0.2078(4) 0.2873(6) 0.7442(2)
H7B H 0.1871 0.3298 0.7738
C18B C 0.1386(4) 0.2124(8) 0.7047(2)
C19B C 0.1736(4) 0.1575(8) 0.6610(2)
H8B H 0.1298 0.1075 0.6328
C20B C 0.2739(4) 0.1774(6) 0.6593(2)
H9B H 0.2960 0.1401 0.6293
C21B C 0.0280(4) 0.1922(9) 0.7079(2)
H10B H 0.0189 0.2269 0.7429
H11B H 0.0100 0.0798 0.7040
C22B C -0.0376(4) 0.2820(8) 0.6675(3)
H12B H -0.0153 0.3927 0.6696
H13B H -0.0322 0.2410 0.6327
C23B C -0.1487(4) 0.2765(7) 0.6722(2)
C24B C -0.1902(4) 0.3934(7) 0.6982(2)
H14B H -0.1499 0.4770 0.7146
C25B C -0.2911(4) 0.3888(6) 0.7002(2)
H15B H -0.3173 0.4715 0.7176
C26B C -0.2119(4) 0.1543(8) 0.6504(2)
H16B H -0.1872 0.0702 0.6330
C27B C -0.3116(4) 0.1569(7) 0.6545(2)
H17B H -0.3529 0.0725 0.6395
N1B N 0.3408(3) 0.2466(4) 0.69792(14)
N2_2 N -1.6474(3) 1.7276(5) 0.32147(14)
N2B N 0.6474(3) 0.2724(5) 0.67853(14)
N2B_2 N -0.3526(3) 0.2724(5) 0.67853(14)
O1B O 0.4942(2) 0.5168(3) 0.70533(11)
O2B O 0.4911(2) 0.0231(4) 0.67397(12)
H18B H 0.468(3) -0.042(4) 0.6927(12)
H19B H 0.483(3) -0.013(5) 0.6434(7)
O3B O -0.5421(2) 0.9044(4) 0.57245(13)
H20B H -0.5999(14) 0.940(4) 0.5663(19)
H21B H -0.545(3) 0.8062(13) 0.575(2)
O4A O -1.5574(2) 1.7478(3) 0.22888(11)
O4B O 0.4426(2) 0.7522(3) 0.72888(11)
O4C O 0.5574(2) 0.2522(3) 0.77112(11)
O5B O 0.4533(2) 0.3301(4) 0.60606(11)
O6B O -0.4445(3) 1.2159(4) 0.53495(14)
H22B H -0.478(3) 1.251(5) 0.5559(14)
H23B H -0.444(4) 1.280(4) 0.5110(14)
O7B O 0.4742(2) 0.5624(4) 0.56840(13)
O8B O 0.0708(4) 0.6983(8) 0.6476(2)
H24B H 0.0902(10) 0.559(6) 0.561(4)
C28B C -0.0127(5) 0.7479(9) 0.6100(3)
O9B O -0.3591(2) 0.9036(4) 0.52069(12)
O10B O -0.2709(3) 1.0113(5) 0.46606(15)
O11B O -0.3358(17) 0.585(2) 0.5574(9)
O12B O -0.3267(7) 0.7467(17) 0.6325(4)
H25B H -0.383(5) 0.558(8) 0.563(3)
O13 O -0.806(3) 1.697(3) 0.4613(8)
C29? C -0.9842(13) 1.244(2) 0.4838(9)
C30? C -0.8996(16) 1.148(3) 0.5010(10)
C31? C -0.812(3) 1.170(4) 0.4786(11)
C32? C -0.8120(14) 1.288(3) 0.4455(9)
C33? C -0.8953(12) 1.393(2) 0.4284(7)
C34? C -0.726(3) 1.320(6) 0.4171(17)
C35? C -0.9804(12) 1.363(2) 0.4495(8)
H26? H -1.0433 1.2247 0.4961
H27? H -0.8999 1.0696 0.5269
H28? H -0.8931 1.4765 0.4045
H29? H -1.090(5) 1.32(2) 0.362(12)
O14? O -1.0595(9) 1.4799(16) 0.4409(8)
O15? O -0.675(4) 1.447(6) 0.431(2)
O16? O -0.705(3) 1.257(5) 0.3788(13)
loop_
_geom_bond_atom_site_label_1
_geom_bond_atom_site_label_2
_geom_bond_site_symmetry_1
_geom_bond_site_symmetry_2
Co1 N1 1_555 1_555
Co2 O3 1_555 1_555
C1 C3 1_555 1_555
C2 C4 1_555 1_555
C3 C4 1_555 1_555
C4 C5 1_555 1_555
C5 H1 1_555 1_555
C6 C5 1_555 1_555
C7 C6 1_555 1_555
C8 C3 1_555 1_555
H2 C8 1_555 1_555
C9 H3 1_555 1_555
C10 C9 1_555 1_555
H4 C10 1_555 1_555
C11 C10 1_555 1_555
C12 C11 1_555 1_555
C13 C12 1_555 1_555
H5 C13 1_555 1_555
C14 C11 1_555 1_555
C15 C12 1_555 1_555
C16 H6 1_555 1_555
C17 C16 1_555 1_555
H7 C17 1_555 1_555
C18 C17 1_555 1_555
C19 C18 1_555 1_555
H8 C19 1_555 1_555
C20 C19 1_555 1_555
H9 C20 1_555 1_555
C21 C18 1_555 1_555
H10 C21 1_555 1_555
H11 C21 1_555 1_555
C22 C21 1_555 1_555
H12 C22 1_555 1_555
H13 C22 1_555 1_555
C23 C22 1_555 1_555
C24 C23 1_555 1_555
H14 C24 1_555 1_555
C25 C24 1_555 1_555
H15 C25 1_555 1_555
C26 C23 1_555 1_555
H16 C26 1_555 1_555
C27 C26 1_555 1_555
H17 C27 1_555 1_555
N1 C16 1_555 1_555
N2 C25 1_555 1_555
O1 Co1 1_555 1_555
O2 Co1 1_555 1_555
H18 O2 1_555 1_555
H19 O2 1_555 1_555
O3 H20 1_555 1_555
H21 O3 1_555 1_555
O4 C1 1_555 1_555
O5 Co1 1_555 1_555
O6 Co2 1_555 1_555
H22 O6 1_555 1_555
H23 O6 1_555 1_555
O7 C2 1_555 1_555
O8 C7 1_555 1_555
H24 C6 1_555 1_555
C28 C9 1_555 1_555
O9 Co2 1_555 1_555
O10 C14 1_555 1_555
O11 C15 1_555 1_555
O12 C15 1_555 1_555
H25 O11 1_555 1_555
Co1B N1B 1_555 1_555
Co1C O4B 1_555 1_555
Co1B_2 N2B_2 1_555 1_555
Co1_2 N2 1_555 1_555
Co1A O4 1_555 1_555
C1B C3B 1_555 1_555
C2B C4B 1_555 1_555
C3B C4B 1_555 1_555
C4B C5B 1_555 1_555
C5B H1B 1_555 1_555
C6B C5B 1_555 1_555
C7B C6B 1_555 1_555
C8B C3B 1_555 1_555
H2B C8B 1_555 1_555
C9B H3B 1_555 1_555
C10B C9B 1_555 1_555
H4B C10B 1_555 1_555
C11B C10B 1_555 1_555
C12B C11B 1_555 1_555
C13B C12B 1_555 1_555
H5B C13B 1_555 1_555
C14B C11B 1_555 1_555
C15B C12B 1_555 1_555
C16B H6B 1_555 1_555
C17B C16B 1_555 1_555
H7B C17B 1_555 1_555
C18B C17B 1_555 1_555
C19B C18B 1_555 1_555
H8B C19B 1_555 1_555
C20B C19B 1_555 1_555
H9B C20B 1_555 1_555
C21B C18B 1_555 1_555
H10B C21B 1_555 1_555
H11B C21B 1_555 1_555
C22B C21B 1_555 1_555
H12B C22B 1_555 1_555
H13B C22B 1_555 1_555
C23B C22B 1_555 1_555
C24B C23B 1_555 1_555
H14B C24B 1_555 1_555
C25B C24B 1_555 1_555
H15B C25B 1_555 1_555
C26B C23B 1_555 1_555
H16B C26B 1_555 1_555
C27B C26B 1_555 1_555
H17B C27B 1_555 1_555
N1B C16B 1_555 1_555
N2_2 Co1 1_555 1_555
N2B Co1B 1_555 1_555
N2B_2 C25B 1_555 1_555
O1B Co1B 1_555 1_555
O2B Co1B 1_555 1_555
H18B O2B 1_555 1_555
H19B O2B 1_555 1_555
O3B Co2 1_555 1_555
H20B O3B 1_555 1_555
H21B O3B 1_555 1_555
O4A Co1 1_555 1_555
O4B C1B 1_555 1_555
O4C Co1B 1_555 1_555
O5B Co1B 1_555 1_555
O6B Co2 1_555 1_555
H22B O6B 1_555 1_555
H23B O6B 1_555 1_555
O7B C2B 1_555 1_555
O8B C7B 1_555 1_555
H24B C6B 1_555 1_555
C28B C9B 1_555 1_555
O9B Co2 1_555 1_555
O10B C14B 1_555 1_555
O11B C15B 1_555 1_555
O12B C15B 1_555 1_555
H25B O11B 1_555 1_555
C1 O1 1_555 1_555
C2 O5 1_555 1_555
C7 C8 1_555 1_555
C13 C28 1_555 1_555
C14 O9 1_555 1_555
C20 N1 1_555 1_555
C27 N2 1_555 1_555
O8 C28 1_555 1_555
C1B O1B 1_555 1_555
C2B O5B 1_555 1_555
C7B C8B 1_555 1_555
C13B C28B 1_555 1_555
C14B O9B 1_555 1_555
C20B N1B 1_555 1_555
C27B N2B_2 1_555 1_555
O8B C28B 1_555 1_555

#END
