
#######################################################################
#
#                 Cambridge Crystallographic Data Centre
#                                CCDC 
#
#######################################################################
#
# If this CIF has been generated from an entry in the Cambridge 
# Structural Database, then it will include bibliographic, chemical, 
# crystal, experimental, refinement or atomic coordinate data resulting 
# from the CCDC's data processing and validation procedures.
#
#######################################################################

data_AXOFEZ
_symmetry_cell_setting           monoclinic
_symmetry_space_group_name_H-M   'P 21/n'
_symmetry_Int_Tables_number      14
_space_group_name_Hall           '-P 2yn'
loop_
_symmetry_equiv_pos_site_id
_symmetry_equiv_pos_as_xyz
1 x,y,z
2 1/2-x,1/2+y,1/2-z
3 -x,-y,-z
4 1/2+x,1/2-y,1/2+z
_cell_length_a                   13.641(3)
_cell_length_b                   25.222(5)
_cell_length_c                   17.000(3)
_cell_angle_alpha                90
_cell_angle_beta                 103.37(3)
_cell_angle_gamma                90
_cell_volume                     5690.38
loop_
_atom_site_label
_atom_site_type_symbol
_atom_site_fract_x
_atom_site_fract_y
_atom_site_fract_z
O1 O -0.1691(4) 0.3255(2) 0.7071(4)
C1 C -0.1233(8) 0.6411(4) 0.6335(6)
H1 H -0.1032 0.6779 0.6467
H2 H -0.1914 0.6353 0.6417
H3 H -0.0761 0.6172 0.6688
C2 C -0.5242(8) 0.2381(4) 0.5798(6)
H4 H -0.5769 0.2134 0.5867
H5 H -0.5339 0.2723 0.6045
H6 H -0.5279 0.2433 0.5221
C3 C -0.1259(9) 0.4539(4) 0.8344(6)
H7 H -0.1535 0.4341 0.8740
H8 H -0.1083 0.4899 0.8546
H9 H -0.0655 0.4359 0.8260
C4 C -0.6967(8) 0.3927(4) 0.2294(7)
H10 H -0.7632 0.3758 0.2156
H11 H -0.6975 0.4220 0.2672
H12 H -0.6801 0.4064 0.1801
C5 C -0.4472(9) 0.6599(4) 0.1938(7)
H13 H -0.5131 0.6529 0.1578
H14 H -0.3941 0.6532 0.1648
H15 H -0.4375 0.6366 0.2411
C6 C -0.0722(10) 0.1575(4) 0.5405(8)
H16 H -0.0826 0.1240 0.5104
H17 H -0.0741 0.1510 0.5969
H18 H -0.1256 0.1825 0.5163
C7 C -0.5971(9) 0.5490(5) 0.0630(8)
H19 H -0.5948 0.5574 0.0072
H20 H -0.6464 0.5207 0.0630
H21 H -0.6168 0.5807 0.0890
C8 C -0.0875(9) 0.5729(5) -0.0128(7)
H22 H -0.0927 0.5807 -0.0701
H23 H -0.0633 0.6045 0.0196
H24 H -0.0401 0.5436 0.0042
C9 C -0.5764(9) 0.3770(7) 0.5011(8)
H25 H -0.6233 0.3481 0.5043
H26 H -0.6116 0.4046 0.4647
H27 H -0.5200 0.3633 0.4804
H28 H -0.1002(6) 0.3997(6) 0.4738(9)
Mn1 Mn -0.27974(10) 0.43714(5) 0.40028(8)
Mn2 Mn -0.17943(9) 0.35834(5) 0.58863(8)
Mn3 Mn -0.06413(9) 0.63860(5) 0.31388(8)
Mn4 Mn -0.19713(9) 0.31418(5) 0.40535(8)
Mn5 Mn -0.38227(9) 0.21433(5) 0.35259(8)
Mn6 Mn -0.16351(10) 0.51562(5) 0.29002(8)
O2 O -0.3432(4) 0.3557(2) 0.3591(4)
O3 O -0.1690(4) 0.3881(2) 0.4731(3)
O4 O -0.0087(4) 0.3237(2) 0.7749(4)
O5 O -0.1421(5) 0.3457(2) 0.3066(4)
O6 O -0.1775(4) 0.6982(2) 0.2701(4)
O7 O -0.2624(4) 0.7422(2) 0.1662(4)
O8 O -0.4479(5) 0.2889(2) 0.3150(4)
O9 O -0.2536(4) 0.2902(2) 0.5145(3)
O10 O 0.0065(5) 0.4955(2) 0.6895(4)
O11 O -0.1356(5) 0.5837(2) 0.2184(4)
O12 O -0.0616(5) 0.2761(2) 0.4713(4)
O13 O -0.1780(5) 0.6376(2) 0.1130(4)
O14 O -0.1448(5) 0.5918(2) 0.3852(4)
O15 O -0.1788(5) 0.5106(2) 0.4152(4)
O16 O -0.3714(5) 0.2285(2) 0.4737(4)
O17 O -0.1838(5) 0.4310(2) 0.3031(4)
O18 O -0.0652(4) 0.4171(2) 0.6544(4)
O19 O -0.3597(5) 0.4521(3) 0.4895(4)
O20 O -0.3859(5) 0.4805(2) 0.3134(4)
O21 O -0.0298(4) 0.3177(2) 0.5895(4)
O22 O -0.3127(5) 0.5214(3) 0.2259(4)
O23 O -0.3194(5) 0.3917(2) 0.5886(4)
C10 C -0.2552(6) 0.7229(3) 0.2364(5)
C11 C -0.1027(6) 0.3168(3) 0.7698(5)
C12 C -0.3404(7) 0.7300(3) 0.2770(5)
H29 H -0.3297 0.7067 0.3251
H30 H -0.3409 0.7671 0.2959
C13 C -0.1081(7) 0.3965(3) 0.2004(6)
H31 H -0.0732 0.4310 0.2012
H32 H -0.0588 0.3680 0.1984
C14 C -0.0168(6) 0.2781(3) 0.5442(5)
C15 C -0.0685(6) 0.4654(3) 0.6766(5)
C16 C -0.1595(6) 0.5583(3) 0.4361(5)
C17 C -0.3201(6) 0.2571(3) 0.5276(5)
C18 C -0.5124(7) 0.3755(3) 0.2917(6)
H33 H -0.5119 0.4039 0.3320
H34 H -0.4977 0.3923 0.2430
C19 C -0.1542(7) 0.5733(4) 0.5219(6)
H35 H -0.2213 0.5672 0.5331
H36 H -0.1063 0.5490 0.5572
C20 C -0.4307(7) 0.3375(4) 0.3251(5)
C21 C -0.4422(7) 0.7173(4) 0.2212(6)
H37 H -0.4534 0.7408 0.1733
H38 H -0.4963 0.7241 0.2499
C22 C -0.4216(7) 0.2158(4) 0.6204(6)
H39 H -0.4185 0.2103 0.6786
H40 H -0.4129 0.1808 0.5964
C23 C -0.3749(7) 0.4291(3) 0.5510(6)
C24 C -0.6175(7) 0.3518(4) 0.2689(6)
H41 H -0.6179 0.3220 0.2310
H42 H -0.6352 0.3376 0.3180
C25 C -0.1225(8) 0.6299(4) 0.5455(6)
H43 H -0.0539 0.6361 0.5373
H44 H -0.1690 0.6548 0.5101
C26 C 0.0299(8) 0.1807(4) 0.5370(7)
H45 H 0.0833 0.1548 0.5605
H46 H 0.0319 0.1863 0.4798
C27 C -0.1667(7) 0.4868(3) 0.6890(6)
H47 H -0.2180 0.4848 0.6374
H48 H -0.1578 0.5246 0.7047
C28 C -0.1671(7) 0.5923(4) 0.1427(5)
C29 C -0.1602(8) 0.4001(4) 0.0470(6)
H49 H -0.2186 0.3976 0.0011
H50 H -0.1282 0.4349 0.0467
H51 H -0.1117 0.3722 0.0428
C30 C -0.1457(6) 0.3909(3) 0.2757(5)
C31 C -0.4938(9) 0.5307(5) 0.1092(7)
H52 H -0.4740 0.4989 0.0823
H53 H -0.4440 0.5590 0.1076
C32 C -0.1942(8) 0.3934(4) 0.1250(6)
H54 H -0.2443 0.4213 0.1282
H55 H -0.2281 0.3586 0.1242
C33 C -0.1324(7) 0.2976(4) 0.8444(5)
H56 H -0.1055 0.3228 0.8888
H57 H -0.0995 0.2630 0.8599
C34 C -0.4630(7) 0.4454(4) 0.5851(6)
H58 H -0.4378 0.4577 0.6414
H59 H -0.4984 0.4754 0.5531
C35 C -0.3355(7) 0.2524(4) 0.6114(6)
H60 H -0.2722 0.2394 0.6471
H61 H -0.3486 0.2883 0.6304
C36 C -0.1902(8) 0.5451(4) 0.0868(6)
H62 H -0.2569 0.5307 0.0894
H63 H -0.1394 0.5172 0.1065
C37 C -0.2049(7) 0.4567(4) 0.7539(6)
H64 H -0.2239 0.4203 0.7346
H65 H -0.2662 0.4745 0.7629
C38 C -0.3886(7) 0.5048(3) 0.2491(6)
C39 C -0.1908(8) 0.5574(4) -0.0003(6)
H66 H -0.2151 0.5258 -0.0338
H67 H -0.2387 0.5867 -0.0192
C40 C -0.5370(8) 0.4001(5) 0.5840(7)
H68 H -0.5946 0.4132 0.6049
H69 H -0.5034 0.3718 0.6208
C41 C 0.0524(8) 0.2339(4) 0.5829(7)
H70 H 0.1230 0.2443 0.5851
H71 H 0.0456 0.2289 0.6392
C42 C -0.2700(8) 0.2733(4) 0.9158(6)
H72 H -0.3432 0.2698 0.9075
H73 H -0.2452 0.2995 0.9583
H74 H -0.2380 0.2390 0.9320
C43 C -0.4917(7) 0.5174(4) 0.1964(7)
H75 H -0.5363 0.4866 0.1973
H76 H -0.5201 0.5478 0.2206
C44 C -0.2444(7) 0.2913(4) 0.8377(6)
H77 H -0.2714 0.2651 0.7947
H78 H -0.2782 0.3256 0.8211
Mn3B Mn 0.06413(9) 0.36140(5) 0.68612(8)
Mn4A Mn -0.30287(9) 0.81418(5) 0.09465(8)
Mn5C Mn 0.11773(9) 0.28567(5) 0.85259(8)
Mn5A Mn -0.11773(9) 0.71433(5) 0.14741(8)
Mn6B Mn 0.16351(10) 0.48438(5) 0.70998(8)
O4B O 0.0087(4) 0.6763(2) 0.2251(4)
O4C O -0.5087(4) 0.1763(2) 0.2749(4)
O6A O -0.3225(4) 0.1982(2) 0.2299(4)
O7A O -0.2376(4) 0.2422(2) 0.3338(4)
O10B O -0.0065(5) 0.5045(2) 0.3105(4)
O13A O -0.3220(5) 0.1376(2) 0.3870(4)
O18B O 0.0652(4) 0.5829(2) 0.3456(4)
O21B O 0.0298(4) 0.6823(2) 0.4105(4)
loop_
_geom_bond_atom_site_label_1
_geom_bond_atom_site_label_2
_geom_bond_site_symmetry_1
_geom_bond_site_symmetry_2
O1 Mn2 1_555 1_555
C1 H1 1_555 1_555
H2 C1 1_555 1_555
H3 C1 1_555 1_555
C2 H4 1_555 1_555
H5 C2 1_555 1_555
H6 C2 1_555 1_555
C3 H7 1_555 1_555
H8 C3 1_555 1_555
H9 C3 1_555 1_555
C4 H10 1_555 1_555
H11 C4 1_555 1_555
H12 C4 1_555 1_555
C5 H13 1_555 1_555
H14 C5 1_555 1_555
H15 C5 1_555 1_555
C6 H16 1_555 1_555
H17 C6 1_555 1_555
H18 C6 1_555 1_555
C7 H19 1_555 1_555
H20 C7 1_555 1_555
H21 C7 1_555 1_555
C8 H22 1_555 1_555
H23 C8 1_555 1_555
H24 C8 1_555 1_555
C9 H25 1_555 1_555
H26 C9 1_555 1_555
H27 C9 1_555 1_555
H28 O3 1_555 1_555
Mn1 O2 1_555 1_555
Mn2 O3 1_555 1_555
Mn3 O6 1_555 1_555
Mn4 O2 1_555 1_555
Mn5 O8 1_555 1_555
Mn6 O11 1_555 1_555
O2 C20 1_555 1_555
O3 Mn1 1_555 1_555
O4 C11 1_555 1_555
O5 Mn4 1_555 1_555
O6 C10 1_555 1_555
O7 C10 1_555 1_555
O8 C20 1_555 1_555
O9 Mn2 1_555 1_555
O10 C15 1_555 1_555
O11 Mn3 1_555 1_555
O12 Mn4 1_555 1_555
O13 C28 1_555 1_555
O14 Mn3 1_555 1_555
O15 Mn1 1_555 1_555
O16 Mn5 1_555 1_555
O17 Mn1 1_555 1_555
O18 Mn2 1_555 1_555
O19 Mn1 1_555 1_555
O20 Mn1 1_555 1_555
O21 Mn2 1_555 1_555
O22 Mn6 1_555 1_555
O23 Mn2 1_555 1_555
C10 C12 1_555 1_555
C11 O1 1_555 1_555
C12 H29 1_555 1_555
H30 C12 1_555 1_555
C13 H31 1_555 1_555
H32 C13 1_555 1_555
C14 O12 1_555 1_555
C15 O18 1_555 1_555
C16 O14 1_555 1_555
C17 O9 1_555 1_555
C18 H33 1_555 1_555
H34 C18 1_555 1_555
C19 C16 1_555 1_555
H35 C19 1_555 1_555
H36 C19 1_555 1_555
C20 C18 1_555 1_555
C21 C5 1_555 1_555
H37 C21 1_555 1_555
H38 C21 1_555 1_555
C22 C2 1_555 1_555
H39 C22 1_555 1_555
H40 C22 1_555 1_555
C23 O19 1_555 1_555
C24 C4 1_555 1_555
H41 C24 1_555 1_555
H42 C24 1_555 1_555
C25 C1 1_555 1_555
H43 C25 1_555 1_555
H44 C25 1_555 1_555
C26 C6 1_555 1_555
H45 C26 1_555 1_555
H46 C26 1_555 1_555
C27 C15 1_555 1_555
H47 C27 1_555 1_555
H48 C27 1_555 1_555
C28 O11 1_555 1_555
C29 H49 1_555 1_555
H50 C29 1_555 1_555
H51 C29 1_555 1_555
C30 O5 1_555 1_555
C31 C7 1_555 1_555
H52 C31 1_555 1_555
H53 C31 1_555 1_555
C32 C13 1_555 1_555
H54 C32 1_555 1_555
H55 C32 1_555 1_555
C33 C11 1_555 1_555
H56 C33 1_555 1_555
H57 C33 1_555 1_555
C34 C23 1_555 1_555
H58 C34 1_555 1_555
H59 C34 1_555 1_555
C35 C17 1_555 1_555
H60 C35 1_555 1_555
H61 C35 1_555 1_555
C36 C28 1_555 1_555
H62 C36 1_555 1_555
H63 C36 1_555 1_555
C37 C3 1_555 1_555
H64 C37 1_555 1_555
H65 C37 1_555 1_555
C38 O20 1_555 1_555
C39 C8 1_555 1_555
H66 C39 1_555 1_555
H67 C39 1_555 1_555
C40 C9 1_555 1_555
H68 C40 1_555 1_555
H69 C40 1_555 1_555
C41 C14 1_555 1_555
H70 C41 1_555 1_555
H71 C41 1_555 1_555
C42 H72 1_555 1_555
H73 C42 1_555 1_555
H74 C42 1_555 1_555
C43 C31 1_555 1_555
H75 C43 1_555 1_555
H76 C43 1_555 1_555
C44 C33 1_555 1_555
H77 C44 1_555 1_555
H78 C44 1_555 1_555
Mn3B O4 1_555 1_555
Mn4A O7 1_555 1_555
Mn5C O4 1_555 1_555
Mn5A O6 1_555 1_555
Mn6B O10 1_555 1_555
O4B Mn3 1_555 1_555
O4C Mn5 1_555 1_555
O6A Mn5 1_555 1_555
O7A Mn4 1_555 1_555
O10B Mn6 1_555 1_555
O13A Mn5 1_555 1_555
O18B Mn3 1_555 1_555
O21B Mn3 1_555 1_555
Mn4 O3 1_555 1_555
Mn4 O9 1_555 1_555
Mn5 O7A 1_555 1_555
Mn6 O14 1_555 1_555
Mn6 O15 1_555 1_555
Mn6 O17 1_555 1_555
O7 Mn5A 1_555 1_555
O13 Mn5A 1_555 1_555
O15 C16 1_555 1_555
O16 C17 1_555 1_555
O17 C30 1_555 1_555
O18 Mn3B 1_555 1_555
O21 C14 1_555 1_555
O21 Mn3B 1_555 1_555
O22 C38 1_555 1_555
O23 C23 1_555 1_555
C12 C21 1_555 1_555
C13 C30 1_555 1_555
C18 C24 1_555 1_555
C19 C25 1_555 1_555
C22 C35 1_555 1_555
C26 C41 1_555 1_555
C27 C37 1_555 1_555
C29 C32 1_555 1_555
C34 C40 1_555 1_555
C36 C39 1_555 1_555
C38 C43 1_555 1_555
C42 C44 1_555 1_555
Mn5A O4B 1_555 1_555

#END
