
#######################################################################
#
#                 Cambridge Crystallographic Data Centre
#                                CCDC 
#
#######################################################################
#
# If this CIF has been generated from an entry in the Cambridge 
# Structural Database, then it will include bibliographic, chemical, 
# crystal, experimental, refinement or atomic coordinate data resulting 
# from the CCDC's data processing and validation procedures.
#
#######################################################################

data_AXOHAW
_symmetry_cell_setting           orthorhombic
_symmetry_space_group_name_H-M   'P b c a'
_symmetry_Int_Tables_number      61
_space_group_name_Hall           '-P 2ac 2ab'
loop_
_symmetry_equiv_pos_site_id
_symmetry_equiv_pos_as_xyz
1 x,y,z
2 1/2+x,y,1/2-z
3 x,1/2-y,1/2+z
4 1/2-x,1/2+y,z
5 -x,-y,-z
6 1/2-x,-y,1/2+z
7 -x,1/2+y,1/2-z
8 1/2+x,1/2-y,-z
_cell_length_a                   11.940
_cell_length_b                   16.8148(3)
_cell_length_c                   20.2743(3)
_cell_angle_alpha                90
_cell_angle_beta                 90
_cell_angle_gamma                90
_cell_volume                     4070.45
loop_
_atom_site_label
_atom_site_type_symbol
_atom_site_fract_x
_atom_site_fract_y
_atom_site_fract_z
Cd1 Cd 0.54155(2) 0.117430(15) 0.628310(12)
O1 O 0.6227(3) 0.22053(15) 0.55806(13)
O2 O 0.4679(3) 0.15842(19) 0.53078(14)
O3 O 0.6304(4) 0.3751(3) 0.23384(18)
O4 O 0.4766(3) 0.31369(19) 0.21565(15)
N1 N 0.6934(3) 0.04027(18) 0.60145(17)
N2 N 1.4103(3) 0.0184(2) 0.63776(16)
C1 C 0.5457(3) 0.2454(2) 0.45099(18)
C2 C 0.4563(4) 0.2336(2) 0.4086(2)
H1 H 0.3931 0.2066 0.4235
C3 C 0.4600(4) 0.2615(2) 0.3443(2)
H2 H 0.4001 0.2521 0.3159
C4 C 0.5520(3) 0.3029(2) 0.32225(19)
C5 C 0.6401(4) 0.3164(2) 0.3645(2)
H3 H 0.7021 0.3448 0.3498
C6 C 0.6376(4) 0.2880(2) 0.4287(2)
H4 H 0.6976 0.2976 0.4568
C7 C 0.5459(4) 0.2065(2) 0.5180(2)
C8 C 0.5546(4) 0.3317(3) 0.2526(2)
C9 C 0.7911(4) 0.0774(2) 0.6007(3)
H5 H 0.7909 0.1326 0.6037
C10 C 0.8915(4) 0.0400(3) 0.5956(3)
H6 H 0.9573 0.0696 0.5955
C11 C 0.8964(3) -0.0414(2) 0.5907(2)
C12 C 0.7958(4) -0.0804(2) 0.5911(3)
H7 H 0.7939 -0.1355 0.5873
C13 C 0.6977(4) -0.0385(2) 0.5969(3)
H8 H 0.6307 -0.0667 0.5977
C14 C 1.0064(4) -0.0851(3) 0.5888(3)
H9 H 1.0649 -0.0488 0.5749
H10 H 1.0019 -0.1275 0.5564
C15 C 1.0367(4) -0.1199(3) 0.6549(3)
H11 H 0.9809 -0.1592 0.6671
H12 H 1.0353 -0.0781 0.6878
C16 C 1.1523(4) -0.1591(3) 0.6551(3)
H13 H 1.1622 -0.1884 0.6959
H14 H 1.1571 -0.1966 0.6188
C17 C 1.3608(4) 0.0019(3) 0.6951(2)
H15 H 1.3822 0.0306 0.7322
C18 C 1.2794(5) -0.0554(3) 0.7019(3)
H16 H 1.2480 -0.0650 0.7431
C19 C 1.2442(4) -0.0985(3) 0.6486(3)
C20 C 1.2937(4) -0.0809(3) 0.5899(3)
H17 H 1.2719 -0.1078 0.5519
C21 C 1.3757(4) -0.0235(3) 0.5863(2)
H18 H 1.4086 -0.0135 0.5455
O3B O 0.6304(4) 0.1249(3) 0.73384(18)
O4B O 0.4766(3) 0.18631(19) 0.71565(15)
N2_2 N 0.4103(3) 0.0184(2) 0.63776(16)
Cd1B Cd 0.54155(2) 0.382570(15) 0.128310(12)
Cd1_2 Cd 1.54155(2) 0.117430(15) 0.628310(12)
loop_
_geom_bond_atom_site_label_1
_geom_bond_atom_site_label_2
_geom_bond_site_symmetry_1
_geom_bond_site_symmetry_2
Cd1 O1 1_555 1_555
O1 C7 1_555 1_555
O2 Cd1 1_555 1_555
O3 C8 1_555 1_555
O4 C8 1_555 1_555
N1 Cd1 1_555 1_555
N2 C17 1_555 1_555
C1 C2 1_555 1_555
C2 H1 1_555 1_555
C3 C2 1_555 1_555
H2 C3 1_555 1_555
C4 C3 1_555 1_555
C5 C4 1_555 1_555
H3 C5 1_555 1_555
C6 C1 1_555 1_555
H4 C6 1_555 1_555
C7 O2 1_555 1_555
C8 C4 1_555 1_555
C9 N1 1_555 1_555
H5 C9 1_555 1_555
C10 C9 1_555 1_555
H6 C10 1_555 1_555
C11 C10 1_555 1_555
C12 C11 1_555 1_555
H7 C12 1_555 1_555
C13 N1 1_555 1_555
H8 C13 1_555 1_555
C14 C11 1_555 1_555
H9 C14 1_555 1_555
H10 C14 1_555 1_555
C15 C14 1_555 1_555
H11 C15 1_555 1_555
H12 C15 1_555 1_555
C16 C15 1_555 1_555
H13 C16 1_555 1_555
H14 C16 1_555 1_555
C17 H15 1_555 1_555
C18 C17 1_555 1_555
H16 C18 1_555 1_555
C19 C16 1_555 1_555
C20 C19 1_555 1_555
H17 C20 1_555 1_555
C21 N2 1_555 1_555
H18 C21 1_555 1_555
O3B Cd1 1_555 1_555
O4B Cd1 1_555 1_555
N2_2 Cd1 1_555 1_555
Cd1B O3 1_555 1_555
Cd1_2 N2 1_555 1_555
O4 Cd1B 1_555 1_555
C1 C7 1_555 1_555
C5 C6 1_555 1_555
C12 C13 1_555 1_555
C18 C19 1_555 1_555
C20 C21 1_555 1_555

#END
