
#######################################################################
#
#                 Cambridge Crystallographic Data Centre
#                                CCDC 
#
#######################################################################
#
# If this CIF has been generated from an entry in the Cambridge 
# Structural Database, then it will include bibliographic, chemical, 
# crystal, experimental, refinement or atomic coordinate data resulting 
# from the CCDC's data processing and validation procedures.
#
#######################################################################

data_AXOJUS
_symmetry_cell_setting           triclinic
_symmetry_space_group_name_H-M   'P -1'
_symmetry_Int_Tables_number      2
_space_group_name_Hall           '-P 1'
loop_
_symmetry_equiv_pos_site_id
_symmetry_equiv_pos_as_xyz
1 x,y,z
2 -x,-y,-z
_cell_length_a                   9.0413(17)
_cell_length_b                   11.021(2)
_cell_length_c                   14.667(3)
_cell_angle_alpha                96.548(4)
_cell_angle_beta                 101.866(4)
_cell_angle_gamma                96.730(4)
_cell_volume                     1405.98
loop_
_atom_site_label
_atom_site_type_symbol
_atom_site_fract_x
_atom_site_fract_y
_atom_site_fract_z
Ag1 Ag 0.46217(4) 0.12926(3) 0.70763(3)
Ag2 Ag 0.65359(5) -0.33961(4) 0.72634(3)
S1 S 0.77411(14) -0.12094(11) 0.71840(9)
S2 S 0.74629(14) 0.45708(11) 0.73162(9)
S3 S 0.18594(14) 0.06696(13) 0.71551(9)
N1 N 0.6358(4) 0.1414(4) 0.6214(3)
N2 N 0.4121(5) 0.3110(4) 0.7887(3)
N3 N 0.4885(5) -0.0022(4) 0.8265(3)
C1 C 0.6881(6) 0.0372(4) 0.5915(3)
C2 C 0.7917(6) 0.0385(5) 0.5344(4)
H1 H 0.8256 -0.0349 0.5134
C3 C 0.8453(6) 0.1498(5) 0.5082(4)
H2 H 0.9165 0.1528 0.4696
C4 C 0.7930(6) 0.2553(5) 0.5395(4)
H3 H 0.8285 0.3313 0.5227
C5 C 0.6870(6) 0.2495(5) 0.5964(3)
C6 C 0.6243(6) 0.3632(5) 0.6269(3)
H4 H 0.5235 0.3390 0.6396
H5 H 0.6109 0.4130 0.5754
C7 C 0.6829(6) 0.3881(4) 0.8269(3)
H6 H 0.6913 0.2999 0.8184
H7 H 0.7519 0.4256 0.8866
C8 C 0.5233(6) 0.4025(5) 0.8333(3)
C9 C 0.4905(7) 0.5063(5) 0.8837(4)
H8 H 0.5686 0.5713 0.9130
C10 C 0.3436(7) 0.5128(6) 0.8904(4)
H9 H 0.3203 0.5816 0.9259
C11 C 0.2303(7) 0.4195(6) 0.8457(4)
H10 H 0.1288 0.4229 0.8506
C12 C 0.2676(6) 0.3193(5) 0.7929(3)
C13 C 0.1408(6) 0.2206(6) 0.7367(4)
H11 H 0.1030 0.2469 0.6756
H12 H 0.0565 0.2172 0.7695
C14 C 0.2276(7) 0.0303(6) 0.8338(5)
H13 H 0.2435 0.1073 0.8774
H14 H 0.1375 -0.0211 0.8434
C15 C 0.3639(6) -0.0356(5) 0.8600(4)
C16 C 0.3620(7) -0.1199(5) 0.9221(4)
H15 H 0.2730 -0.1418 0.9438
C17 C 0.4900(7) -0.1716(5) 0.9522(4)
H16 H 0.4906 -0.2280 0.9957
C18 C 0.6185(7) -0.1406(5) 0.9182(4)
H17 H 0.7071 -0.1766 0.9369
C19 C 0.6140(6) -0.0552(4) 0.8558(4)
C20 C 0.7523(6) -0.0163(5) 0.8184(4)
H18 H 0.8436 -0.0097 0.8691
H19 H 0.7461 0.0659 0.7998
C21 C 0.6329(6) -0.0811(4) 0.6227(4)
H20 H 0.6107 -0.1476 0.5694
H21 H 0.5379 -0.0732 0.6437
N4 N 0.4034(7) -0.3105(6) 0.7063(4)
C22 C 0.2801(8) -0.3215(7) 0.7079(4)
C23 C 0.1207(9) -0.3352(10) 0.7113(7)
H22 H 0.1114 -0.3309 0.7763
H23 H 0.0697 -0.4143 0.6766
H24 H 0.0740 -0.2695 0.6832
S2_2 S 0.74629(14) -0.54292(11) 0.73162(9)
Ag2_2 Ag 0.65359(5) 0.66039(4) 0.72634(3)
B1 B 0.9905(7) 0.7254(6) 0.9752(4)
F1 F 0.9920(5) 0.8184(5) 0.9227(5)
F2 F 1.1087(7) 0.6646(6) 0.9697(5)
F3 F 1.0052(10) 0.7722(7) 1.0670(5)
F4 F 0.8544(5) 0.6522(5) 0.9499(5)
B2 B -0.2323(7) 0.6350(6) 0.4949(4)
F5 F -0.1404(11) 0.7435(8) 0.5401(9)
F6 F -0.2675(15) 0.633(2) 0.4076(7)
F7 F -0.1513(13) 0.5466(8) 0.5281(9)
F11 F -0.3554(5) 0.6269(4) 0.5363(3)
F8? F -0.2212(16) 0.7482(7) 0.4668(10)
F9? F -0.2794(13) 0.5631(9) 0.4086(7)
F10? F -0.1151(13) 0.605(2) 0.5428(10)
loop_
_geom_bond_atom_site_label_1
_geom_bond_atom_site_label_2
_geom_bond_site_symmetry_1
_geom_bond_site_symmetry_2
Ag1 S3 1_555 1_555
Ag2 S1 1_555 1_555
S1 C20 1_555 1_555
S2 C6 1_555 1_555
S3 C13 1_555 1_555
N1 Ag1 1_555 1_555
N2 Ag1 1_555 1_555
N3 Ag1 1_555 1_555
C1 N1 1_555 1_555
C2 C1 1_555 1_555
H1 C2 1_555 1_555
C3 C2 1_555 1_555
H2 C3 1_555 1_555
C4 C3 1_555 1_555
H3 C4 1_555 1_555
C5 N1 1_555 1_555
C6 C5 1_555 1_555
H4 C6 1_555 1_555
H5 C6 1_555 1_555
C7 S2 1_555 1_555
H6 C7 1_555 1_555
H7 C7 1_555 1_555
C8 N2 1_555 1_555
C9 C8 1_555 1_555
H8 C9 1_555 1_555
C10 C9 1_555 1_555
H9 C10 1_555 1_555
C11 C10 1_555 1_555
H10 C11 1_555 1_555
C12 N2 1_555 1_555
C13 C12 1_555 1_555
H11 C13 1_555 1_555
H12 C13 1_555 1_555
C14 S3 1_555 1_555
H13 C14 1_555 1_555
H14 C14 1_555 1_555
C15 N3 1_555 1_555
C16 C15 1_555 1_555
H15 C16 1_555 1_555
C17 C16 1_555 1_555
H16 C17 1_555 1_555
C18 C17 1_555 1_555
H17 C18 1_555 1_555
C19 N3 1_555 1_555
C20 C19 1_555 1_555
H18 C20 1_555 1_555
H19 C20 1_555 1_555
C21 S1 1_555 1_555
H20 C21 1_555 1_555
H21 C21 1_555 1_555
N4 Ag2 1_555 1_555
C22 N4 1_555 1_555
C23 C22 1_555 1_555
H22 C23 1_555 1_555
H23 C23 1_555 1_555
H24 C23 1_555 1_555
B1 F1 1_555 1_555
F2 B1 1_555 1_555
F3 B1 1_555 1_555
F4 B1 1_555 1_555
B2 F5 1_555 1_555
F6 B2 1_555 1_555
F7 B2 1_555 1_555
F11 B2 1_555 1_555
S2_2 Ag2 1_555 1_555
Ag2_2 S2 1_555 1_555
C1 C21 1_555 1_555
C4 C5 1_555 1_555
C7 C8 1_555 1_555
C11 C12 1_555 1_555
C14 C15 1_555 1_555
C18 C19 1_555 1_555

#END
