
#######################################################################
#
#                 Cambridge Crystallographic Data Centre
#                                CCDC 
#
#######################################################################
#
# If this CIF has been generated from an entry in the Cambridge 
# Structural Database, then it will include bibliographic, chemical, 
# crystal, experimental, refinement or atomic coordinate data resulting 
# from the CCDC's data processing and validation procedures.
#
#######################################################################

data_AXOJOM
_symmetry_cell_setting           triclinic
_symmetry_space_group_name_H-M   'P -1'
_symmetry_Int_Tables_number      2
_space_group_name_Hall           '-P 1'
loop_
_symmetry_equiv_pos_site_id
_symmetry_equiv_pos_as_xyz
1 x,y,z
2 -x,-y,-z
_cell_length_a                   9.2186(1)
_cell_length_b                   11.2790(2)
_cell_length_c                   16.9920(2)
_cell_angle_alpha                108.726(1)
_cell_angle_beta                 94.227(1)
_cell_angle_gamma                92.723(1)
_cell_volume                     1663.95
loop_
_atom_site_label
_atom_site_type_symbol
_atom_site_fract_x
_atom_site_fract_y
_atom_site_fract_z
Ag1 Ag 0.12811(3) 0.86184(3) 0.26826(2)
Ag2 Ag 0.28221(4) 1.37021(3) 0.25824(2)
C1 C 0.3275(4) 1.1289(3) 0.3422(3)
H1 H 0.3400(4) 1.2044(3) 0.3905(3)
H2 H 0.2245(4) 1.1015(3) 0.3318(3)
S1 S 0.38721(10) 1.16550(9) 0.25141(7)
C2 C 0.2886(5) 1.0411(4) 0.1641(3)
H3 H 0.3290(5) 1.0411(4) 0.1130(3)
H4 H 0.3049(5) 0.9610(4) 0.1717(3)
C3 C 0.1267(5) 1.0524(4) 0.1541(3)
C4 C 0.0664(6) 1.1129(6) 0.1023(4)
H5 H 0.1254(6) 1.1513(6) 0.0740(4)
C5 C -0.0824(7) 1.1153(7) 0.0931(5)
H6 H -0.1251(7) 1.1526(7) 0.0566(5)
C6 C -0.1674(6) 1.0636(5) 0.1370(4)
H7 H -0.2684(6) 1.0647(5) 0.1306(4)
C7 C -0.1029(5) 1.0101(4) 0.1905(3)
N1 N 0.0425(4) 1.0023(3) 0.1980(2)
C8 C -0.1956(5) 0.9627(6) 0.2454(4)
H8 H -0.2957(5) 0.9492(6) 0.2206(4)
H9 H -0.1929(5) 1.0282(6) 0.2991(4)
S2 S -0.14558(13) 0.82151(14) 0.26300(9)
C9 C -0.1666(6) 0.7151(6) 0.1554(4)
H10 H -0.2643(6) 0.6739(6) 0.1432(4)
H11 H -0.1554(6) 0.7635(6) 0.1180(4)
C10 C -0.0578(5) 0.6168(5) 0.1392(4)
C11 C -0.1033(6) 0.4945(5) 0.0937(4)
H12 H -0.2023(6) 0.4703(5) 0.0807(4)
C12 C -0.0034(7) 0.4095(5) 0.0679(4)
H13 H -0.0327(7) 0.3275(5) 0.0348(4)
C13 C 0.1423(6) 0.4462(5) 0.0916(3)
H14 H 0.2126(6) 0.3892(5) 0.0747(3)
C14 C 0.1827(5) 0.5689(4) 0.1407(3)
N2 N 0.0850(4) 0.6538(3) 0.1642(2)
C15 C 0.3399(5) 0.6110(4) 0.1675(3)
H15 H 0.3523(5) 0.7011(4) 0.1791(3)
H16 H 0.3968(5) 0.5718(4) 0.1215(3)
S3 S 0.41226(10) 0.57483(9) 0.25905(6)
C16 C 0.3366(4) 0.6950(3) 0.3430(2)
H17 H 0.2343(4) 0.6995(3) 0.3272(2)
H18 H 0.3432(4) 0.6711(3) 0.3931(2)
C17 C 0.4155(4) 0.8221(3) 0.3616(2)
C18 C 0.5556(4) 0.8461(4) 0.4010(2)
H19 H 0.6031(4) 0.7828(4) 0.4139(2)
C19 C 0.6241(4) 0.9649(4) 0.4209(3)
H20 H 0.7181(4) 0.9826(4) 0.4477(3)
C20 C 0.5517(4) 1.0570(4) 0.4007(2)
H21 H 0.5964(4) 1.1374(4) 0.4134(2)
C21 C 0.4112(4) 1.0280(3) 0.3612(2)
N3 N 0.3438(3) 0.9115(3) 0.3414(2)
C22 C -0.2284(12) 1.3987(20) 0.2918(8)
H22 H -0.263(16) 1.3398 0.2955
H23 H -0.264(15) 1.4451 0.2696
H24 H -0.205(15) 1.4454 0.3379
C23 C -0.0723(8) 1.3953(10) 0.2844(5)
N4 N 0.0456(6) 1.3918(6) 0.2784(3)
Ag2_2 Ag 0.28221(4) 0.37021(3) 0.25824(2)
C1_2 C 0.3275(4) 2.1289(3) 0.3422(3)
H1_2 H 0.3400(4) 2.2044(3) 0.3905(3)
H2_2 H 0.2245(4) 2.1015(3) 0.3318(3)
S1_2 S 0.38721(10) 2.16550(9) 0.25141(7)
C2_2 C 0.2886(5) 2.0411(4) 0.1641(3)
H3_2 H 0.3290(5) 2.0411(4) 0.1130(3)
H4_2 H 0.3049(5) 1.9610(4) 0.1717(3)
C3_2 C 0.1267(5) 2.0524(4) 0.1541(3)
C4_2 C 0.0664(6) 2.1129(6) 0.1023(4)
H5_2 H 0.1254(6) 2.1513(6) 0.0740(4)
C5_2 C -0.0824(7) 2.1153(7) 0.0931(5)
H6_2 H -0.1251(7) 2.1526(7) 0.0566(5)
C6_2 C -0.1674(6) 2.0636(5) 0.1370(4)
H7_2 H -0.2684(6) 2.0647(5) 0.1306(4)
C7_2 C -0.1029(5) 2.0101(4) 0.1905(3)
N1_2 N 0.0425(4) 2.0023(3) 0.1980(2)
C8_2 C -0.1956(5) 1.9627(6) 0.2454(4)
H8_2 H -0.2957(5) 1.9492(6) 0.2206(4)
H9_2 H -0.1929(5) 2.0282(6) 0.2991(4)
S2_2 S -0.14558(13) 1.82151(14) 0.26300(9)
C9_2 C -0.1666(6) 1.7151(6) 0.1554(4)
H10_2 H -0.2643(6) 1.6739(6) 0.1432(4)
H11_2 H -0.1554(6) 1.7635(6) 0.1180(4)
C10_2 C -0.0578(5) 1.6168(5) 0.1392(4)
C11_2 C -0.1033(6) 1.4945(5) 0.0937(4)
H12_2 H -0.2023(6) 1.4703(5) 0.0807(4)
C12_2 C -0.0034(7) 1.4095(5) 0.0679(4)
H13_2 H -0.0327(7) 1.3275(5) 0.0348(4)
C13_2 C 0.1423(6) 1.4462(5) 0.0916(3)
H14_2 H 0.2126(6) 1.3892(5) 0.0747(3)
C14_2 C 0.1827(5) 1.5689(4) 0.1407(3)
N2_2 N 0.0850(4) 1.6538(3) 0.1642(2)
C15_2 C 0.3399(5) 1.6110(4) 0.1675(3)
H15_2 H 0.3523(5) 1.7011(4) 0.1791(3)
H16_2 H 0.3968(5) 1.5718(4) 0.1215(3)
S3_2 S 0.41226(10) 1.57483(9) 0.25905(6)
C16_2 C 0.3366(4) 1.6950(3) 0.3430(2)
H17_2 H 0.2343(4) 1.6995(3) 0.3272(2)
H18_2 H 0.3432(4) 1.6711(3) 0.3931(2)
C17_2 C 0.4155(4) 1.8221(3) 0.3616(2)
C18_2 C 0.5556(4) 1.8461(4) 0.4010(2)
H19_2 H 0.6031(4) 1.7828(4) 0.4139(2)
C19_2 C 0.6241(4) 1.9649(4) 0.4209(3)
H20_2 H 0.7181(4) 1.9826(4) 0.4477(3)
C20_2 C 0.5517(4) 2.0570(4) 0.4007(2)
H21_2 H 0.5964(4) 2.1374(4) 0.4134(2)
C21_2 C 0.4112(4) 2.0280(3) 0.3612(2)
N3_2 N 0.3438(3) 1.9115(3) 0.3414(2)
C22_2 C -0.2284(12) 0.3987(20) 0.2918(8)
H22_2 H -0.263(16) 0.3398 0.2955
H23_2 H -0.264(15) 0.4451 0.2696
H24_2 H -0.205(15) 0.4454 0.3379
C23_2 C -0.0723(8) 0.3953(10) 0.2844(5)
N4_2 N 0.0456(6) 0.3918(6) 0.2784(3)
Ag1_2 Ag 0.12811(3) 1.86184(3) 0.26826(2)
S1_3 S 0.38721(10) 0.16550(9) 0.25141(7)
Ag2_3 Ag 0.28221(4) 2.37021(3) 0.25824(2)
P1 P 0.51605(13) 0.24386(12) 0.00946(8)
F1 F 0.5629(8) 0.3258(7) 0.1010(3)
F2 F 0.4620(6) 0.3618(4) -0.0112(3)
F3 F 0.5666(5) 0.1233(5) 0.0265(4)
F4 F 0.6736(3) 0.2664(4) -0.0179(2)
F5 F 0.4716(4) 0.1632(5) -0.0858(3)
F6 F 0.3583(5) 0.2170(5) 0.0325(4)
P2 P 0.5000 0.5000 0.5000
F7 F 0.3594(5) 0.4654(5) 0.4360(3)
F8 F 0.5751(5) 0.5765(5) 0.4504(3)
F9 F 0.5685(6) 0.3772(4) 0.4532(4)
F7A F 0.6406(5) 0.5346(5) 0.5640(3)
F8A F 0.4249(5) 0.4235(5) 0.5496(3)
F9A F 0.4315(6) 0.6228(4) 0.5468(4)
P3 P -0.0058(3) 0.2245(3) 0.4935(2)
F10 F 0.0456(20) 0.2914(15) 0.4472(10)
F11 F -0.0071(16) 0.1193(17) 0.4207(8)
F12 F 0.1393(14) 0.2115(19) 0.5230(13)
F13 F -0.0892(24) 0.1606(16) 0.5407(10)
F14 F -0.0132(16) 0.3530(14) 0.5519(11)
F15 F -0.1463(16) 0.2274(16) 0.4529(13)
loop_
_geom_bond_atom_site_label_1
_geom_bond_atom_site_label_2
_geom_bond_site_symmetry_1
_geom_bond_site_symmetry_2
Ag1 N1 1_555 1_555
Ag2 S1 1_555 1_555
C1 H1 1_555 1_555
H2 C1 1_555 1_555
S1 C1 1_555 1_555
C2 S1 1_555 1_555
H3 C2 1_555 1_555
H4 C2 1_555 1_555
C3 C2 1_555 1_555
C4 C3 1_555 1_555
H5 C4 1_555 1_555
C5 C4 1_555 1_555
H6 C5 1_555 1_555
C6 C5 1_555 1_555
H7 C6 1_555 1_555
C7 C6 1_555 1_555
N1 C3 1_555 1_555
C8 C7 1_555 1_555
H8 C8 1_555 1_555
H9 C8 1_555 1_555
S2 Ag1 1_555 1_555
C9 S2 1_555 1_555
H10 C9 1_555 1_555
H11 C9 1_555 1_555
C10 C9 1_555 1_555
C11 C10 1_555 1_555
H12 C11 1_555 1_555
C12 C11 1_555 1_555
H13 C12 1_555 1_555
C13 C12 1_555 1_555
H14 C13 1_555 1_555
C14 C13 1_555 1_555
N2 Ag1 1_555 1_555
C15 C14 1_555 1_555
H15 C15 1_555 1_555
H16 C15 1_555 1_555
S3 C15 1_555 1_555
C16 S3 1_555 1_555
H17 C16 1_555 1_555
H18 C16 1_555 1_555
C17 C16 1_555 1_555
C18 C17 1_555 1_555
H19 C18 1_555 1_555
C19 C18 1_555 1_555
H20 C19 1_555 1_555
C20 C19 1_555 1_555
H21 C20 1_555 1_555
C21 C1 1_555 1_555
N3 Ag1 1_555 1_555
C22 H22 1_555 1_555
H23 C22 1_555 1_555
H24 C22 1_555 1_555
C23 C22 1_555 1_555
N4 Ag2 1_555 1_555
P1 F1 1_555 1_555
F2 P1 1_555 1_555
F3 P1 1_555 1_555
F4 P1 1_555 1_555
F5 P1 1_555 1_555
F6 P1 1_555 1_555
P2 F7 1_555 1_555
F8 P2 1_555 1_555
F9 P2 1_555 1_555
P3 F10 1_555 1_555
F11 P3 1_555 1_555
F12 P3 1_555 1_555
F13 P3 1_555 1_555
F14 P3 1_555 1_555
F15 P3 1_555 1_555
F7A P2 1_555 1_555
F8A P2 1_555 1_555
F9A P2 1_555 1_555
Ag2_2 S3 1_555 1_555
C1_2 H1_2 1_555 1_555
H2_2 C1_2 1_555 1_555
S1_2 C1_2 1_555 1_555
C2_2 S1_2 1_555 1_555
H3_2 C2_2 1_555 1_555
H4_2 C2_2 1_555 1_555
C3_2 C2_2 1_555 1_555
C4_2 C3_2 1_555 1_555
H5_2 C4_2 1_555 1_555
C5_2 C4_2 1_555 1_555
H6_2 C5_2 1_555 1_555
C6_2 C5_2 1_555 1_555
H7_2 C6_2 1_555 1_555
C7_2 C6_2 1_555 1_555
N1_2 C3_2 1_555 1_555
C8_2 C7_2 1_555 1_555
H8_2 C8_2 1_555 1_555
H9_2 C8_2 1_555 1_555
S2_2 C8_2 1_555 1_555
C9_2 S2_2 1_555 1_555
H10_2 C9_2 1_555 1_555
H11_2 C9_2 1_555 1_555
C10_2 C9_2 1_555 1_555
C11_2 C10_2 1_555 1_555
H12_2 C11_2 1_555 1_555
C12_2 C11_2 1_555 1_555
H13_2 C12_2 1_555 1_555
C13_2 C12_2 1_555 1_555
H14_2 C13_2 1_555 1_555
C14_2 C13_2 1_555 1_555
N2_2 C10_2 1_555 1_555
C15_2 C14_2 1_555 1_555
H15_2 C15_2 1_555 1_555
H16_2 C15_2 1_555 1_555
S3_2 Ag2 1_555 1_555
C16_2 S3_2 1_555 1_555
H17_2 C16_2 1_555 1_555
H18_2 C16_2 1_555 1_555
C17_2 C16_2 1_555 1_555
C18_2 C17_2 1_555 1_555
H19_2 C18_2 1_555 1_555
C19_2 C18_2 1_555 1_555
H20_2 C19_2 1_555 1_555
C20_2 C19_2 1_555 1_555
H21_2 C20_2 1_555 1_555
C21_2 C1_2 1_555 1_555
N3_2 C17_2 1_555 1_555
C22_2 H22_2 1_555 1_555
H23_2 C22_2 1_555 1_555
H24_2 C22_2 1_555 1_555
C23_2 C22_2 1_555 1_555
N4_2 Ag2_2 1_555 1_555
Ag1_2 N1_2 1_555 1_555
S1_3 Ag2_2 1_555 1_555
Ag2_3 S1_2 1_555 1_555
C7 N1 1_555 1_555
C8 S2 1_555 1_555
C10 N2 1_555 1_555
C14 N2 1_555 1_555
C17 N3 1_555 1_555
C20 C21 1_555 1_555
C21 N3 1_555 1_555
C23 N4 1_555 1_555
C7_2 N1_2 1_555 1_555
S2_2 Ag1_2 1_555 1_555
C14_2 N2_2 1_555 1_555
N2_2 Ag1_2 1_555 1_555
C15_2 S3_2 1_555 1_555
C20_2 C21_2 1_555 1_555
C21_2 N3_2 1_555 1_555
N3_2 Ag1_2 1_555 1_555
C23_2 N4_2 1_555 1_555

#END
