
#######################################################################
#
#                 Cambridge Crystallographic Data Centre
#                                CCDC 
#
#######################################################################
#
# If this CIF has been generated from an entry in the Cambridge 
# Structural Database, then it will include bibliographic, chemical, 
# crystal, experimental, refinement or atomic coordinate data resulting 
# from the CCDC's data processing and validation procedures.
#
#######################################################################

data_AXOLOO
_symmetry_cell_setting           triclinic
_symmetry_space_group_name_H-M   'P -1'
_symmetry_Int_Tables_number      2
_space_group_name_Hall           '-P 1'
loop_
_symmetry_equiv_pos_site_id
_symmetry_equiv_pos_as_xyz
1 x,y,z
2 -x,-y,-z
_cell_length_a                   8.785(4)
_cell_length_b                   11.075(5)
_cell_length_c                   12.090(5)
_cell_angle_alpha                97.10(3)
_cell_angle_beta                 102.87(3)
_cell_angle_gamma                112.28(3)
_cell_volume                     1032.51
loop_
_atom_site_label
_atom_site_type_symbol
_atom_site_fract_x
_atom_site_fract_y
_atom_site_fract_z
Cu1 Cu 0.5000 0.0000 0.5000
Cu2 Cu -0.5000 -0.5000 0.0000
Cl1 Cl 0.4511(2) 0.13367(19) 0.6264(2)
Cl2 Cl -0.2847(2) -0.29730(19) 0.0288(2)
C1 C -0.1836(8) -0.3560(8) 0.4605(7)
C2 C -0.1981(8) -0.4853(8) 0.4343(7)
C3 C -0.2621(8) -0.5730(8) 0.5002(8)
H1 H -0.2757 -0.6630 0.4804
C4 C -0.3073(9) -0.5305(9) 0.5961(7)
H2 H -0.3541 -0.5922 0.6407
C5 C -0.2851(9) -0.4019(9) 0.6263(8)
H3 H -0.3113 -0.3719 0.6937
C6 C -0.2249(9) -0.3165(8) 0.5592(8)
H4 H -0.2103 -0.2264 0.5803
C7 C -0.1218(9) -0.2550(7) 0.3894(7)
H5 H -0.1835 -0.1965 0.3886
H6 H -0.1467 -0.3021 0.3079
S1 S 0.1038(3) -0.1557(2) 0.4499(2)
N1 N 0.3254(8) 0.0105(6) 0.3688(6)
C8 C 0.1551(9) -0.0583(7) 0.3501(7)
C9 C 0.0375(9) -0.0472(8) 0.2580(8)
H7 H -0.0824 -0.0940 0.2471
C10 C 0.0928(10) 0.0300(7) 0.1836(8)
H8 H 0.0131 0.0371 0.1202
C11 C 0.2659(10) 0.0970(8) 0.2026(8)
H9 H 0.3094 0.1510 0.1519
C12 C 0.3767(10) 0.0850(8) 0.2969(8)
H10 H 0.4969 0.1336 0.3102
C13 C -0.1578(9) -0.5370(8) 0.3284(7)
H11 H -0.1289 -0.6137 0.3391
H12 H -0.0584 -0.4656 0.3154
S2 S -0.3457(2) -0.5889(2) 0.20579(19)
N2 N -0.3406(7) -0.5865(6) -0.0080(6)
C14 C -0.2708(9) -0.6181(7) 0.0859(8)
C15 C -0.1526(10) -0.6704(8) 0.0862(8)
H13 H -0.1015 -0.6906 0.1552
C16 C -0.1081(10) -0.6936(9) -0.0131(10)
H14 H -0.0237 -0.7275 -0.0137
C17 C -0.1877(10) -0.6670(8) -0.1113(8)
H15 H -0.1654 -0.6869 -0.1832
C18 C -0.3006(9) -0.6109(8) -0.1036(8)
H16 H -0.3524 -0.5886 -0.1710
Cl1A Cl 0.5489(2) -0.13367(19) 0.3736(2)
C1A C 1.1836(8) 0.3560(8) 0.5395(7)
C2A C 1.1981(8) 0.4853(8) 0.5657(7)
C3A C 1.2621(8) 0.5730(8) 0.4998(8)
H1A H 1.2757 0.6630 0.5196
C4A C 1.3073(9) 0.5305(9) 0.4039(7)
H2A H 1.3541 0.5922 0.3593
C5A C 1.2851(9) 0.4019(9) 0.3737(8)
H3A H 1.3113 0.3719 0.3063
C6A C 1.2249(9) 0.3165(8) 0.4408(8)
H4A H 1.2103 0.2264 0.4197
C7A C 1.1218(9) 0.2550(7) 0.6106(7)
H5A H 1.1835 0.1965 0.6114
H6A H 1.1467 0.3021 0.6921
S1A S 0.8962(3) 0.1557(2) 0.5501(2)
N1A N 0.6746(8) -0.0105(6) 0.6312(6)
C8A C 0.8449(9) 0.0583(7) 0.6499(7)
C9A C 0.9625(9) 0.0472(8) 0.7420(8)
H7A H 1.0824 0.0940 0.7529
C10A C 0.9072(10) -0.0300(7) 0.8164(8)
H8A H 0.9869 -0.0371 0.8798
C11A C 0.7341(10) -0.0970(8) 0.7974(8)
H9A H 0.6906 -0.1510 0.8481
C12A C 0.6233(10) -0.0850(8) 0.7031(8)
H10A H 0.5031 -0.1336 0.6898
C13A C 1.1578(9) 0.5370(8) 0.6716(7)
H11A H 1.1289 0.6137 0.6609
H12A H 1.0584 0.4656 0.6846
S2A S 1.3457(2) 0.5889(2) 0.79421(19)
N2A N 1.3406(7) 0.5865(6) 1.0080(6)
C14A C 1.2708(9) 0.6181(7) 0.9141(8)
C15A C 1.1526(10) 0.6704(8) 0.9138(8)
H13A H 1.1015 0.6906 0.8448
C16A C 1.1081(10) 0.6936(9) 1.0131(10)
H14A H 1.0237 0.7275 1.0137
C17A C 1.1877(10) 0.6670(8) 1.1113(8)
H15A H 1.1654 0.6869 1.1832
C18A C 1.3006(9) 0.6109(8) 1.1036(8)
H16A H 1.3524 0.5886 1.1710
Cl2A Cl -0.7153(2) -0.70270(19) -0.0288(2)
N2A_2 N -0.6594(7) -0.4135(6) 0.0080(6)
Cu2_2 Cu 1.5000 0.5000 1.0000
O1 O 0.2516(8) -0.0991(7) 0.7544(7)
H17 H 0.2659 -0.0555 0.7025
C19 C 0.3669(12) -0.0157(11) 0.8651(11)
H18 H 0.3538 -0.0677 0.9251
H19 H 0.3401 0.0610 0.8847
H20 H 0.4856 0.0165 0.8614
loop_
_geom_bond_atom_site_label_1
_geom_bond_atom_site_label_2
_geom_bond_site_symmetry_1
_geom_bond_site_symmetry_2
Cu1 Cl1 1_555 1_555
Cu2 Cl2 1_555 1_555
C1 C2 1_555 1_555
C2 C3 1_555 1_555
C3 H1 1_555 1_555
C4 C3 1_555 1_555
H2 C4 1_555 1_555
C5 C4 1_555 1_555
H3 C5 1_555 1_555
C6 C1 1_555 1_555
H4 C6 1_555 1_555
C7 C1 1_555 1_555
H5 C7 1_555 1_555
H6 C7 1_555 1_555
S1 C7 1_555 1_555
N1 Cu1 1_555 1_555
C8 S1 1_555 1_555
C9 C8 1_555 1_555
H7 C9 1_555 1_555
C10 C9 1_555 1_555
H8 C10 1_555 1_555
C11 C10 1_555 1_555
H9 C11 1_555 1_555
C12 N1 1_555 1_555
H10 C12 1_555 1_555
C13 C2 1_555 1_555
H11 C13 1_555 1_555
H12 C13 1_555 1_555
S2 C13 1_555 1_555
N2 Cu2 1_555 1_555
C14 S2 1_555 1_555
C15 C14 1_555 1_555
H13 C15 1_555 1_555
C16 C15 1_555 1_555
H14 C16 1_555 1_555
C17 C16 1_555 1_555
H15 C17 1_555 1_555
C18 N2 1_555 1_555
H16 C18 1_555 1_555
O1 H17 1_555 1_555
C19 O1 1_555 1_555
H18 C19 1_555 1_555
H19 C19 1_555 1_555
H20 C19 1_555 1_555
Cl1A Cu1 1_555 1_555
C1A C2A 1_555 1_555
C2A C3A 1_555 1_555
C3A H1A 1_555 1_555
C4A C3A 1_555 1_555
H2A C4A 1_555 1_555
C5A C4A 1_555 1_555
H3A C5A 1_555 1_555
C6A C1A 1_555 1_555
H4A C6A 1_555 1_555
C7A C1A 1_555 1_555
H5A C7A 1_555 1_555
H6A C7A 1_555 1_555
S1A C7A 1_555 1_555
N1A Cu1 1_555 1_555
C8A S1A 1_555 1_555
C9A C8A 1_555 1_555
H7A C9A 1_555 1_555
C10A C9A 1_555 1_555
H8A C10A 1_555 1_555
C11A C10A 1_555 1_555
H9A C11A 1_555 1_555
C12A N1A 1_555 1_555
H10A C12A 1_555 1_555
C13A C2A 1_555 1_555
H11A C13A 1_555 1_555
H12A C13A 1_555 1_555
S2A C13A 1_555 1_555
N2A C14A 1_555 1_555
C14A S2A 1_555 1_555
C15A C14A 1_555 1_555
H13A C15A 1_555 1_555
C16A C15A 1_555 1_555
H14A C16A 1_555 1_555
C17A C16A 1_555 1_555
H15A C17A 1_555 1_555
C18A N2A 1_555 1_555
H16A C18A 1_555 1_555
Cl2A Cu2 1_555 1_555
N2A_2 Cu2 1_555 1_555
Cu2_2 N2A 1_555 1_555
C5 C6 1_555 1_555
N1 C8 1_555 1_555
C11 C12 1_555 1_555
N2 C14 1_555 1_555
C17 C18 1_555 1_555
C5A C6A 1_555 1_555
N1A C8A 1_555 1_555
C11A C12A 1_555 1_555
C17A C18A 1_555 1_555

#END
