
#######################################################################
#
#                 Cambridge Crystallographic Data Centre
#                                CCDC 
#
#######################################################################
#
# If this CIF has been generated from an entry in the Cambridge 
# Structural Database, then it will include bibliographic, chemical, 
# crystal, experimental, refinement or atomic coordinate data resulting 
# from the CCDC's data processing and validation procedures.
#
#######################################################################

data_AXOVEP
_symmetry_cell_setting           monoclinic
_symmetry_space_group_name_H-M   'P 21/c'
_symmetry_Int_Tables_number      14
_space_group_name_Hall           '-P 2ybc'
loop_
_symmetry_equiv_pos_site_id
_symmetry_equiv_pos_as_xyz
1 x,y,z
2 -x,1/2+y,1/2-z
3 -x,-y,-z
4 x,1/2-y,1/2+z
_cell_length_a                   7.7123(2)
_cell_length_b                   28.5057(8)
_cell_length_c                   6.6459(2)
_cell_angle_alpha                90
_cell_angle_beta                 105.050(2)
_cell_angle_gamma                90
_cell_volume                     1410.95
loop_
_atom_site_label
_atom_site_type_symbol
_atom_site_fract_x
_atom_site_fract_y
_atom_site_fract_z
Cd1 Cd 0.783610(16) 0.523252(4) 0.330768(19)
C1 C 0.4144(2) 0.18545(6) 0.3702(3)
H1 H 0.2871 0.1837 0.3295
C2 C 0.5192(2) 0.14461(6) 0.3966(3)
C3 C 0.7070(2) 0.14768(6) 0.4595(3)
H2 H 0.7765 0.1197 0.4770
C4 C 0.7940(2) 0.19101(6) 0.4970(3)
H3 H 0.9212 0.1928 0.5421
C5 C 0.6901(2) 0.23129(6) 0.4669(3)
C6 C 0.7429(2) 0.28140(6) 0.4818(3)
C7 C 0.9104(2) 0.30256(6) 0.5306(3)
H4 H 1.0169 0.2843 0.5681
C8 C 0.9189(2) 0.35164(6) 0.5234(3)
H5 H 1.0327 0.3667 0.5566
C9 C 0.7631(2) 0.37889(6) 0.4683(3)
C10 C 0.5935(2) 0.35724(6) 0.4205(3)
H6 H 0.4868 0.3755 0.3837
C11 C 0.5853(2) 0.30889(6) 0.4282(3)
C12 C 0.4259(2) 0.27692(6) 0.3771(3)
O1 O 0.26768(18) 0.28792(5) 0.3192(2)
C13 C 0.5016(2) 0.22843(6) 0.4049(3)
C14 C 0.4301(3) 0.09775(6) 0.3430(3)
O2 O 0.51881(19) 0.06241(5) 0.3188(2)
O3 O 0.25901(18) 0.09631(5) 0.3130(2)
C15 C 0.7735(2) 0.43118(6) 0.4434(3)
O4 O 0.92334(18) 0.45208(5) 0.4995(2)
O5 O 0.63122(18) 0.45317(4) 0.3552(2)
O6 O 0.72896(18) 0.54311(5) 0.6454(2)
H7 H 0.6174(19) 0.5440(10) 0.633(4)
H8 H 0.780(4) 0.5679(7) 0.700(4)
O7 O 0.8136(2) 0.48861(5) 0.0282(2)
H9 H 0.729(3) 0.4705(8) -0.029(4)
H10 H 0.819(4) 0.5063(9) -0.071(4)
Cd1A Cd 0.216390(16) 0.023252(4) 0.169232(19)
Cd1B Cd 1.216390(16) 0.476748(4) 0.669232(19)
O2A O 0.48119(19) 0.56241(5) 0.1812(2)
O3A O 0.74099(18) 0.59631(5) 0.1870(2)
O4B O 1.07666(18) 0.54792(5) 0.5005(2)
O8 O 0.8619(2) 0.62203(5) 0.8435(2)
H11 H 0.831(4) 0.6181(10) 0.956(3)
H12 H 0.819(4) 0.6485(6) 0.798(4)
loop_
_geom_bond_atom_site_label_1
_geom_bond_atom_site_label_2
_geom_bond_site_symmetry_1
_geom_bond_site_symmetry_2
Cd1 O4 1_555 1_555
C1 H1 1_555 1_555
C2 C1 1_555 1_555
C3 C2 1_555 1_555
H2 C3 1_555 1_555
C4 C3 1_555 1_555
H3 C4 1_555 1_555
C5 C4 1_555 1_555
C6 C5 1_555 1_555
C7 C6 1_555 1_555
H4 C7 1_555 1_555
C8 C7 1_555 1_555
H5 C8 1_555 1_555
C9 C8 1_555 1_555
C10 C9 1_555 1_555
H6 C10 1_555 1_555
C11 C6 1_555 1_555
C12 C11 1_555 1_555
O1 C12 1_555 1_555
C13 C1 1_555 1_555
C14 C2 1_555 1_555
O2 C14 1_555 1_555
O3 C14 1_555 1_555
C15 C9 1_555 1_555
O4 C15 1_555 1_555
O5 Cd1 1_555 1_555
O6 Cd1 1_555 1_555
H7 O6 1_555 1_555
H8 O6 1_555 1_555
O7 Cd1 1_555 1_555
H9 O7 1_555 1_555
H10 O7 1_555 1_555
O8 H11 1_555 1_555
H12 O8 1_555 1_555
Cd1A O2 1_555 1_555
Cd1B O4 1_555 1_555
O2A Cd1 1_555 1_555
O3A Cd1 1_555 1_555
O4B Cd1 1_555 1_555
C5 C13 1_555 1_555
C10 C11 1_555 1_555
C12 C13 1_555 1_555
O3 Cd1A 1_555 1_555
C15 O5 1_555 1_555
Cd1B O4B 1_555 1_555

#END
