
#######################################################################
#
#                 Cambridge Crystallographic Data Centre
#                                CCDC 
#
#######################################################################
#
# If this CIF has been generated from an entry in the Cambridge 
# Structural Database, then it will include bibliographic, chemical, 
# crystal, experimental, refinement or atomic coordinate data resulting 
# from the CCDC's data processing and validation procedures.
#
#######################################################################

data_AXOVAL
_symmetry_cell_setting           triclinic
_symmetry_space_group_name_H-M   'P 1'
_symmetry_Int_Tables_number      1
_space_group_name_Hall           'P 1'
loop_
_symmetry_equiv_pos_site_id
_symmetry_equiv_pos_as_xyz
1 x,y,z
_cell_length_a                   6.7676(6)
_cell_length_b                   7.2311(7)
_cell_length_c                   14.1591(13)
_cell_angle_alpha                82.763(2)
_cell_angle_beta                 84.102(2)
_cell_angle_gamma                66.047(2)
_cell_volume                     627.169
loop_
_atom_site_label
_atom_site_type_symbol
_atom_site_fract_x
_atom_site_fract_y
_atom_site_fract_z
Ba1 Ba -0.44486(4) 0.07350(4) 0.48042(2)
Ba2 Ba -0.10027(3) 0.43895(3) 0.39963(2)
O1 O -0.5167(8) 0.1399(7) 0.9452(4)
O2 O -0.6844(8) 0.3214(9) 1.3227(4)
O3 O -0.5113(8) 0.5070(8) 1.3557(4)
O4 O -0.3656(10) 0.3671(9) 0.5651(4)
O5 O -0.3650(12) 0.6748(11) 0.5374(5)
O6 O -0.0201(8) -0.3639(7) 0.9459(4)
O7 O -0.1618(13) -0.1851(11) 1.3246(5)
O8 O -0.1378(10) 0.1079(9) 1.3438(4)
O9 O -0.0552(7) -0.0691(7) 0.5686(4)
O10 O 0.1330(8) 0.1247(8) 0.5301(4)
C1 C -0.5581(9) 0.3631(9) 1.1264(4)
H1 H -0.5862 0.2452 1.1464
C2 C -0.5519(12) 0.4881(12) 1.1928(6)
C3 C -0.5089(10) 0.6625(9) 1.1614(4)
H2 H -0.4985 0.7428 1.2074
C4 C -0.4809(9) 0.7203(9) 1.0634(4)
H3 H -0.4571 0.8402 1.0427
C5 C -0.4896(11) 0.5946(10) 0.9985(5)
C6 C -0.4653(10) 0.6111(10) 0.8928(5)
C7 C -0.4284(10) 0.7554(9) 0.8283(4)
H4 H -0.4183 0.8709 0.8492
C8 C -0.4065(10) 0.7265(10) 0.7318(4)
H5 H -0.3784 0.8233 0.6869
C9 C -0.4245(11) 0.5601(9) 0.6985(4)
C10 C -0.4623(10) 0.4141(9) 0.7644(4)
H6 H -0.4736 0.2991 0.7436
C11 C -0.4825(11) 0.4425(9) 0.8603(5)
C12 C -0.5114(10) 0.3060(10) 0.9450(4)
C13 C -0.5223(10) 0.4155(9) 1.0309(5)
C14 C -0.5850(13) 0.4366(12) 1.2959(6)
C15 C -0.3871(17) 0.5347(15) 0.5937(7)
C16 C -0.0591(10) -0.1337(9) 1.1242(4)
H7 H -0.0883 -0.2503 1.1461
C17 C -0.0561(11) -0.0012(10) 1.1884(5)
C18 C -0.0086(10) 0.1687(9) 1.1541(4)
H8 H -0.0037 0.2549 1.1984
C19 C 0.0314(10) 0.2142(9) 1.0576(4)
H9 H 0.0646 0.3287 1.0360
C20 C 0.0216(10) 0.0875(9) 0.9934(5)
C21 C 0.0443(11) 0.0979(9) 0.8877(5)
C22 C 0.0796(9) 0.2397(9) 0.8200(4)
H10 H 0.0972 0.3535 0.8387
C23 C 0.0884(10) 0.2105(9) 0.7234(4)
H11 H 0.1183 0.3030 0.6764
C24 C 0.0545(13) 0.0486(12) 0.6950(6)
C25 C 0.0198(10) -0.0950(10) 0.7631(4)
H12 H -0.0022 -0.2067 0.7446
C26 C 0.0188(12) -0.0685(10) 0.8580(5)
C27 C -0.0111(10) -0.1994(10) 0.9443(4)
C28 C -0.0177(10) -0.0882(9) 1.0278(5)
C29 C -0.1225(17) -0.0266(16) 1.2923(7)
C30 C 0.0461(17) 0.0281(13) 0.5896(7)
O11 O -0.6430(14) -0.0849(14) 0.3730(8)
O12 O 0.1572(10) 0.5536(10) 0.5033(5)
Ba1_2 Ba -0.44486(4) 0.07350(4) 1.48042(2)
Ba1_3 Ba -0.44486(4) 1.07350(4) 0.48042(2)
Ba1_4 Ba 0.55514(4) 0.07350(4) 0.48042(2)
Ba2_2 Ba -1.10027(3) 0.43895(3) 1.39963(2)
Ba2_3 Ba -0.10027(3) 0.43895(3) 1.39963(2)
Ba2_4 Ba -0.10027(3) -0.56105(3) 1.39963(2)
O2_2 O -0.6844(8) 0.3214(9) 0.3227(4)
O2_3 O 0.3156(8) 0.3214(9) 0.3227(4)
O3_2 O -0.5113(8) 0.5070(8) 0.3557(4)
O5_2 O -0.3650(12) -0.3252(11) 0.5374(5)
O7_2 O -0.1618(13) -0.1851(11) 0.3246(5)
O7_3 O -0.1618(13) 0.8149(11) 0.3246(5)
O8_2 O -0.1378(10) 0.1079(9) 0.3438(4)
O10_2 O -0.8670(8) 0.1247(8) 0.5301(4)
loop_
_geom_bond_atom_site_label_1
_geom_bond_atom_site_label_2
_geom_bond_site_symmetry_1
_geom_bond_site_symmetry_2
Ba1 O4 1_555 1_555
Ba2 O4 1_555 1_555
O1 C12 1_555 1_555
O2 C14 1_555 1_555
O3 C14 1_555 1_555
O4 C15 1_555 1_555
O5 Ba2 1_555 1_555
O6 C27 1_555 1_555
O7 C29 1_555 1_555
O8 C29 1_555 1_555
O9 Ba1 1_555 1_555
O10 Ba2 1_555 1_555
C1 H1 1_555 1_555
C2 C1 1_555 1_555
C3 C2 1_555 1_555
H2 C3 1_555 1_555
C4 C3 1_555 1_555
H3 C4 1_555 1_555
C5 C4 1_555 1_555
C6 C5 1_555 1_555
C7 C6 1_555 1_555
H4 C7 1_555 1_555
C8 C7 1_555 1_555
H5 C8 1_555 1_555
C9 C8 1_555 1_555
C10 C9 1_555 1_555
H6 C10 1_555 1_555
C11 C6 1_555 1_555
C12 C11 1_555 1_555
C13 C1 1_555 1_555
C14 C2 1_555 1_555
C15 O5 1_555 1_555
C16 H7 1_555 1_555
C17 C16 1_555 1_555
C18 C17 1_555 1_555
H8 C18 1_555 1_555
C19 C18 1_555 1_555
H9 C19 1_555 1_555
C20 C19 1_555 1_555
C21 C20 1_555 1_555
C22 C21 1_555 1_555
H10 C22 1_555 1_555
C23 C22 1_555 1_555
H11 C23 1_555 1_555
C24 C23 1_555 1_555
C25 C24 1_555 1_555
H12 C25 1_555 1_555
C26 C21 1_555 1_555
C27 C26 1_555 1_555
C28 C16 1_555 1_555
C29 C17 1_555 1_555
C30 O9 1_555 1_555
O11 Ba1 1_555 1_555
O12 Ba2 1_555 1_555
Ba1_2 O2 1_555 1_555
Ba1_3 O5 1_555 1_555
Ba1_4 O10 1_555 1_555
Ba2_2 O2 1_555 1_555
Ba2_3 O3 1_555 1_555
Ba2_4 O7 1_555 1_555
O2_2 Ba1 1_555 1_555
O2_3 Ba2 1_555 1_555
O3_2 Ba2 1_555 1_555
O5_2 Ba1 1_555 1_555
O7_2 Ba1 1_555 1_555
O7_3 Ba2 1_555 1_555
O8_2 Ba1 1_555 1_555
O10_2 Ba1 1_555 1_555
Ba2 O8_2 1_555 1_555
O7 Ba1_2 1_555 1_555
O8 Ba1_2 1_555 1_555
O8 Ba2_3 1_555 1_555
O10 C30 1_555 1_555
C5 C13 1_555 1_555
C9 C15 1_555 1_555
C10 C11 1_555 1_555
C12 C13 1_555 1_555
C20 C28 1_555 1_555
C24 C30 1_555 1_555
C25 C26 1_555 1_555
C27 C28 1_555 1_555
Ba1_3 O7_3 1_555 1_555
Ba1_4 O2_3 1_555 1_555

#END
