
#######################################################################
#
#                 Cambridge Crystallographic Data Centre
#                                CCDC 
#
#######################################################################
#
# If this CIF has been generated from an entry in the Cambridge 
# Structural Database, then it will include bibliographic, chemical, 
# crystal, experimental, refinement or atomic coordinate data resulting 
# from the CCDC's data processing and validation procedures.
#
#######################################################################

data_AXOWEQ
_symmetry_cell_setting           monoclinic
_symmetry_space_group_name_H-M   'P 2/c'
_symmetry_Int_Tables_number      13
_space_group_name_Hall           '-P 2yc'
loop_
_symmetry_equiv_pos_site_id
_symmetry_equiv_pos_as_xyz
1 x,y,z
2 -x,y,1/2-z
3 -x,-y,-z
4 x,-y,1/2+z
_cell_length_a                   9.3516(7)
_cell_length_b                   17.7586(14)
_cell_length_c                   8.2539(7)
_cell_angle_alpha                90
_cell_angle_beta                 92.802(5)
_cell_angle_gamma                90
_cell_volume                     1369.1
loop_
_atom_site_label
_atom_site_type_symbol
_atom_site_fract_x
_atom_site_fract_y
_atom_site_fract_z
C1 C 0.7539(2) 0.20285(12) 0.5145(3)
C2 C 0.8870(3) 0.16578(14) 0.5383(3)
C3 C 0.8863(3) 0.09004(15) 0.5799(3)
H1 H 0.9733 0.0648 0.5929
C4 C 0.7610(3) 0.05055(14) 0.6029(3)
C5 C 0.6333(3) 0.08885(16) 0.5811(4)
H2 H 0.5488 0.0629 0.5971
C6 C 0.6242(3) 0.16473(14) 0.5361(3)
C7 C 1.0307(3) 0.20310(16) 0.5247(4)
H3 H 1.1048 0.1699 0.5665
H4 H 1.0333 0.2490 0.5861
H5 H 1.0457 0.2141 0.4130
C8 C 0.7646(4) -0.03132(15) 0.6493(4)
H6 H 0.7644 -0.0617 0.5530
H7 H 0.6821 -0.0431 0.7091
H8 H 0.8498 -0.0414 0.7153
C9 C 0.4763(3) 0.19816(17) 0.5180(5)
H9 H 0.4548 0.2105 0.4062
H10 H 0.4723 0.2430 0.5827
H11 H 0.4077 0.1624 0.5537
C10 C 0.7214(3) 0.35093(13) 0.7585(3)
H12 H 0.7314 0.3042 0.8188
H13 H 0.6215 0.3562 0.7229
N1 N 0.8083(2) 0.34678(12) 0.6161(3)
H14 H 0.8889 0.3701 0.6170
O1 O 0.6123(2) 0.32060(12) 0.4131(3)
O2 O 0.8625(2) 0.31042(11) 0.3413(2)
B1 B 0.7655(3) 0.41971(15) 0.8764(3)
F1 F 0.6863(4) 0.41914(18) 1.0113(4)
F2 F 0.7465(2) 0.48946(9) 0.8008(3)
F3 F 0.91401(19) 0.41968(12) 0.9234(2)
S1 S 0.75628(6) 0.29959(3) 0.45823(7)
K1 K 0.5000 0.43705(4) 0.2500
K2 K 1.0000 0.43740(4) 0.2500
C1A C 0.2461(2) 0.20285(12) -0.0145(3)
C2A C 0.1130(3) 0.16578(14) -0.0383(3)
C3A C 0.1137(3) 0.09004(15) -0.0799(3)
H1A H 0.0267 0.0648 -0.0929
C4A C 0.2390(3) 0.05055(14) -0.1029(3)
C5A C 0.3667(3) 0.08885(16) -0.0811(4)
H2A H 0.4512 0.0629 -0.0971
C6A C 0.3758(3) 0.16473(14) -0.0361(3)
C7A C -0.0307(3) 0.20310(16) -0.0247(4)
H3A H -0.1048 0.1699 -0.0665
H4A H -0.0333 0.2490 -0.0861
H5A H -0.0457 0.2141 0.0870
C8A C 0.2354(4) -0.03132(15) -0.1493(4)
H6A H 0.2356 -0.0617 -0.0530
H7A H 0.3179 -0.0431 -0.2091
H8A H 0.1502 -0.0414 -0.2153
C9A C 0.5237(3) 0.19816(17) -0.0180(5)
H9A H 0.5452 0.2105 0.0938
H10A H 0.5277 0.2430 -0.0827
H11A H 0.5923 0.1624 -0.0537
C10A C 0.2786(3) 0.35093(13) -0.2585(3)
H12A H 0.2686 0.3042 -0.3188
H13A H 0.3785 0.3562 -0.2229
N1A N 0.1917(2) 0.34678(12) -0.1161(3)
H14A H 0.1111 0.3701 -0.1170
O1A O 0.3877(2) 0.32060(12) 0.0869(3)
O2A O 0.1375(2) 0.31042(11) 0.1587(2)
O2A_2 O 1.1375(2) 0.31042(11) 0.1587(2)
B1A B 0.2345(3) 0.41971(15) -0.3764(3)
F1A F 0.3137(4) 0.41914(18) -0.5113(4)
F1_2 F 0.6863(4) 0.41914(18) 0.0113(4)
F1A_2 F 0.3137(4) 0.41914(18) 0.4887(4)
F2A F 0.2535(2) 0.48946(9) -0.3008(3)
F2B F 0.2535(2) 0.51054(9) 0.1992(3)
F2C F 0.7465(2) 0.51054(9) 0.3008(3)
F2B_2 F 1.2535(2) 0.51054(9) 0.1992(3)
F3A F 0.08599(19) 0.41968(12) -0.4234(2)
F3_2 F 0.91401(19) 0.41968(12) -0.0766(2)
F3A_2 F 1.08599(19) 0.41968(12) 0.5766(2)
F3B F 1.08599(19) 0.58032(12) 0.0766(2)
F3C F 0.91401(19) 0.58032(12) 0.4234(2)
S1A S 0.24372(6) 0.29959(3) 0.04177(7)
K1_2 K 0.5000 0.43705(4) 1.2500
K1B K 0.5000 0.56295(4) 0.7500
K1_3 K 0.5000 0.43705(4) -0.7500
K1B_2 K 0.5000 0.56295(4) -0.2500
K2B K 1.0000 0.56260(4) 0.7500
K2_2 K 1.0000 0.43740(4) 1.2500
K2_3 K 0.0000 0.43740(4) 0.2500
K2B_2 K 0.0000 0.56260(4) -0.2500
K2_4 K 0.0000 0.43740(4) -0.7500
loop_
_geom_bond_atom_site_label_1
_geom_bond_atom_site_label_2
_geom_bond_site_symmetry_1
_geom_bond_site_symmetry_2
C1 C2 1_555 1_555
C2 C3 1_555 1_555
C3 H1 1_555 1_555
C4 C3 1_555 1_555
C5 C4 1_555 1_555
H2 C5 1_555 1_555
C6 C1 1_555 1_555
C7 C2 1_555 1_555
H3 C7 1_555 1_555
H4 C7 1_555 1_555
H5 C7 1_555 1_555
C8 C4 1_555 1_555
H6 C8 1_555 1_555
H7 C8 1_555 1_555
H8 C8 1_555 1_555
C9 C6 1_555 1_555
H9 C9 1_555 1_555
H10 C9 1_555 1_555
H11 C9 1_555 1_555
C10 H12 1_555 1_555
H13 C10 1_555 1_555
N1 C10 1_555 1_555
H14 N1 1_555 1_555
O1 S1 1_555 1_555
O2 S1 1_555 1_555
B1 C10 1_555 1_555
F1 B1 1_555 1_555
F2 B1 1_555 1_555
F3 B1 1_555 1_555
S1 C1 1_555 1_555
K1 O1 1_555 1_555
K2 O2 1_555 1_555
C1A C2A 1_555 1_555
C2A C3A 1_555 1_555
C3A H1A 1_555 1_555
C4A C3A 1_555 1_555
C5A C4A 1_555 1_555
H2A C5A 1_555 1_555
C6A C1A 1_555 1_555
C7A C2A 1_555 1_555
H3A C7A 1_555 1_555
H4A C7A 1_555 1_555
H5A C7A 1_555 1_555
C8A C4A 1_555 1_555
H6A C8A 1_555 1_555
H7A C8A 1_555 1_555
H8A C8A 1_555 1_555
C9A C6A 1_555 1_555
H9A C9A 1_555 1_555
H10A C9A 1_555 1_555
H11A C9A 1_555 1_555
C10A H12A 1_555 1_555
H13A C10A 1_555 1_555
N1A C10A 1_555 1_555
H14A N1A 1_555 1_555
O1A K1 1_555 1_555
O2A S1A 1_555 1_555
O2A_2 K2 1_555 1_555
B1A C10A 1_555 1_555
F1A B1A 1_555 1_555
F1_2 K1 1_555 1_555
F1A_2 K1 1_555 1_555
F2A B1A 1_555 1_555
F2B K1 1_555 1_555
F2C K1 1_555 1_555
F2B_2 K2 1_555 1_555
F3A B1A 1_555 1_555
F3_2 K2 1_555 1_555
F3A_2 K2 1_555 1_555
F3B K2 1_555 1_555
F3C K2 1_555 1_555
S1A C1A 1_555 1_555
K1_2 F1 1_555 1_555
K1B F2 1_555 1_555
K1_3 F1A 1_555 1_555
K1B_2 F2A 1_555 1_555
K2B F2 1_555 1_555
K2_2 F3 1_555 1_555
K2_3 O2A 1_555 1_555
K2B_2 F2A 1_555 1_555
K2_4 F3A 1_555 1_555
C5 C6 1_555 1_555
N1 S1 1_555 1_555
F3 K2B 1_555 1_555
K2 F2C 1_555 1_555
C5A C6A 1_555 1_555
N1A S1A 1_555 1_555
O1A S1A 1_555 1_555
F2B K2_3 1_555 1_555
F3A K2B_2 1_555 1_555
F3A_2 K2B 1_555 1_555
F3C K2B 1_555 1_555

#END
