
#######################################################################
#
#                 Cambridge Crystallographic Data Centre
#                                CCDC 
#
#######################################################################
#
# If this CIF has been generated from an entry in the Cambridge 
# Structural Database, then it will include bibliographic, chemical, 
# crystal, experimental, refinement or atomic coordinate data resulting 
# from the CCDC's data processing and validation procedures.
#
#######################################################################

data_AXUDUS
_symmetry_cell_setting           monoclinic
_symmetry_space_group_name_H-M   'P 21/n'
_symmetry_Int_Tables_number      14
_space_group_name_Hall           '-P 2yn'
loop_
_symmetry_equiv_pos_site_id
_symmetry_equiv_pos_as_xyz
1 x,y,z
2 1/2+x,1/2-y,1/2+z
3 -x,-y,-z
4 1/2-x,1/2+y,1/2-z
_cell_length_a                   17.0054(5)
_cell_length_b                   15.3742(6)
_cell_length_c                   21.6828(5)
_cell_angle_alpha                90
_cell_angle_beta                 101.0095(5)
_cell_angle_gamma                90
_cell_volume                     5564.51
loop_
_atom_site_label
_atom_site_type_symbol
_atom_site_fract_x
_atom_site_fract_y
_atom_site_fract_z
Ag1 Ag -0.03021(2) 0.03070(2) 0.607149(17)
Ag2 Ag 0.35970(3) 0.01046(3) 0.530346(18)
N1 N 0.02870(19) 0.2975(2) 0.61495(15)
N2 N -0.0197(2) 0.1663(2) 0.59707(16)
N3 N 0.3862(2) 0.2842(2) 0.58622(15)
N4 N 0.3891(3) 0.1487(3) 0.55528(16)
N5 N 0.3144(2) 0.3819(2) 0.86452(15)
N6 N 0.3623(3) 0.5089(3) 0.8988(2)
N7 N -0.09082(18) -0.2347(2) 0.63205(14)
N8 N -0.0542(2) -0.1042(2) 0.60775(15)
N9 N -0.24803(19) -0.3383(2) 0.87879(13)
N10 N -0.2066(2) -0.4390(2) 0.94941(15)
N11 N -0.45334(18) -0.1788(2) 0.61691(14)
N12 N -0.5382(2) -0.0729(3) 0.58606(16)
C1 C 0.1620(2) 0.3531(2) 0.66997(18)
C2 C 0.2174(2) 0.3597(2) 0.62951(17)
C3 C 0.2988(2) 0.3508(2) 0.65276(19)
C4 C 0.3268(2) 0.3309(3) 0.7156(2)
C5 C 0.2722(2) 0.3229(2) 0.75684(18)
C6 C 0.1898(2) 0.3348(3) 0.73417(18)
C7 C 0.0752(3) 0.3719(3) 0.6457(2)
H1 H 0.0507 0.3916 0.6812
H2 H 0.0711 0.4205 0.6153
C8 C 0.0387(2) 0.2130(3) 0.62941(19)
H3 H 0.0821 0.1899 0.6590
C9 C -0.0695(3) 0.2233(3) 0.55996(18)
H4 H -0.1171 0.2080 0.5314
C10 C -0.0403(2) 0.3043(3) 0.57029(18)
H5 H -0.0629 0.3561 0.5506
C11 C 0.1859(3) 0.3749(3) 0.55932(19)
H6 H 0.1936 0.4361 0.5492
H7 H 0.1287 0.3606 0.5491
H8 H 0.2153 0.3378 0.5348
C12 C 0.3582(3) 0.3670(3) 0.6099(2)
H9 H 0.3325 0.4033 0.5739
H10 H 0.4047 0.3995 0.6333
C13 C 0.3474(3) 0.2072(3) 0.58002(18)
H11 H 0.2973 0.1966 0.5918
C14 C 0.4546(3) 0.1900(4) 0.5444(2)
H12 H 0.4953 0.1639 0.5260
C15 C 0.4548(3) 0.2742(4) 0.5632(2)
H13 H 0.4944 0.3171 0.5609
C16 C 0.4155(3) 0.3155(3) 0.7397(2)
H14 H 0.4391 0.2884 0.7066
H15 H 0.4226 0.2770 0.7764
H16 H 0.4421 0.3712 0.7517
C17 C 0.3014(3) 0.3031(3) 0.8253(2)
H17 H 0.2616 0.2656 0.8404
H18 H 0.3523 0.2703 0.8302
C18 C 0.3540(3) 0.4534(3) 0.8534(2)
H19 H 0.3740 0.4625 0.8158
C19 C 0.3257(4) 0.4724(5) 0.9413(3)
H20 H 0.3227 0.4979 0.9807
C20 C 0.2939(3) 0.3961(4) 0.9219(2)
H21 H 0.2633 0.3591 0.9433
C21 C 0.1311(3) 0.3267(3) 0.7784(2)
H22 H 0.0764 0.3349 0.7549
H23 H 0.1431 0.3710 0.8113
H24 H 0.1359 0.2687 0.7977
C22 C -0.1984(2) -0.2843(2) 0.68860(17)
C23 C -0.1932(2) -0.2743(3) 0.75321(17)
C24 C -0.2638(2) -0.2616(2) 0.77718(17)
C25 C -0.3379(2) -0.2610(2) 0.73696(18)
C26 C -0.3420(2) -0.2694(2) 0.67231(17)
C27 C -0.2729(2) -0.2795(2) 0.64764(17)
C28 C -0.1245(2) -0.3074(3) 0.6623(2)
H25 H -0.0828 -0.3298 0.6969
H26 H -0.1384 -0.3548 0.6312
C29 C -0.0926(2) -0.1499(3) 0.64436(17)
H27 H -0.1183 -0.1253 0.6755
C30 C -0.0273(3) -0.1632(3) 0.5701(2)
H28 H 0.0023 -0.1493 0.5384
C31 C -0.0485(2) -0.2443(3) 0.5842(2)
H29 H -0.0367 -0.2971 0.5651
C32 C -0.1124(3) -0.2762(4) 0.7983(2)
H30 H -0.1056 -0.3323 0.8200
H31 H -0.1103 -0.2293 0.8291
H32 H -0.0693 -0.2682 0.7745
C33 C -0.2580(3) -0.2531(3) 0.84757(18)
H33 H -0.2118 -0.2154 0.8651
H34 H -0.3071 -0.2249 0.8561
C34 C -0.2002(3) -0.3565(3) 0.93363(17)
H35 H -0.1660 -0.3155 0.9582
C35 C -0.2611(3) -0.4748(3) 0.90149(19)
H36 H -0.2780 -0.5338 0.8993
C36 C -0.2872(3) -0.4132(3) 0.85760(19)
H37 H -0.3251 -0.4207 0.8197
C37 C -0.4147(3) -0.2504(3) 0.7620(2)
H38 H -0.4453 -0.3048 0.7561
H39 H -0.4467 -0.2034 0.7393
H40 H -0.4017 -0.2362 0.8069
C38 C -0.4231(2) -0.2683(3) 0.6293(2)
H41 H -0.4190 -0.2967 0.5891
H42 H -0.4615 -0.3021 0.6488
C39 C -0.5300(2) -0.1567(3) 0.59430(17)
H43 H -0.5729 -0.1972 0.5854
C40 C -0.4625(4) -0.0402(3) 0.6030(2)
H44 H -0.4490 0.0196 0.6015
C41 C -0.4101(3) -0.1040(3) 0.6219(2)
H45 H -0.3539 -0.0982 0.6359
C42 C -0.2761(3) -0.2852(3) 0.57744(19)
H46 H -0.2926 -0.3439 0.5627
H47 H -0.2230 -0.2726 0.5683
H48 H -0.3148 -0.2428 0.5559
N10A N 0.2934(2) -0.0610(2) 0.44941(15)
N12_2 N 0.4618(2) -0.0729(3) 0.58606(16)
Ag2A Ag -0.14030(3) -0.51046(3) 1.030346(18)
Ag2_2 Ag -0.64030(3) 0.01046(3) 0.530346(18)
O1 O 0.1045(4) 0.0203(3) 0.2377(2)
O2 O 0.0501(4) 0.0155(4) 0.1364(3)
O3 O 0.1410(7) 0.0108(6) 0.0599(3)
C43 C 0.1889(5) 0.0243(4) 0.1630(4)
C44 C 0.2061(7) 0.0226(5) 0.1023(4)
C45 C 0.2853(8) 0.0271(4) 0.0922(5)
H49 H 0.2986 0.0275 0.0516
C46 C 0.3411(6) 0.0307(4) 0.1468(7)
H50 H 0.3967 0.0316 0.1456
C47 C 0.3152(13) 0.0331(5) 0.2050(5)
H51 H 0.3587 0.0432 0.2388
C48 C 0.2573(6) 0.0264(6) 0.2219(9)
H52 H 0.2511 0.0228 0.2644
C49 C 0.1054(5) 0.0192(5) 0.1819(4)
O4 O 0.4487(11) 0.0701(6) 0.9337(5)
O5 O 0.3300(10) 0.1012(7) 0.9340(6)
O6 O 0.2243(6) 0.0971(5) 0.8460(5)
C50 C 0.3602(6) 0.0845(4) 0.8366(4)
C51 C 0.2855(6) 0.0880(5) 0.7995(8)
C52 C 0.2727(13) 0.0777(9) 0.7373(9)
H53 H 0.2202 0.0737 0.7128
C53 C 0.338(2) 0.0734(10) 0.7113(7)
H54 H 0.3309 0.0765 0.6668
C54 C 0.4201(11) 0.0640(6) 0.7474(9)
H55 H 0.4654 0.0520 0.7290
C55 C 0.4234(7) 0.0747(4) 0.8102(4)
H56 H 0.4747 0.0750 0.8368
C56 C 0.3801(10) 0.0917(9) 0.9006(7)
O7 O 0.0390(4) 0.0484(4) 0.7391(3)
O8 O 0.0739(7) 0.1056(9) 0.8737(12)
O9 O 0.1370(11) 0.1853(8) 0.9850(7)
loop_
_geom_bond_atom_site_label_1
_geom_bond_atom_site_label_2
_geom_bond_site_symmetry_1
_geom_bond_site_symmetry_2
Ag1 N2 1_555 1_555
Ag2 N4 1_555 1_555
O1 C49 1_555 1_555
O2 C49 1_555 1_555
O3 C44 1_555 1_555
O4 C56 1_555 1_555
O5 C56 1_555 1_555
O6 C51 1_555 1_555
N1 C7 1_555 1_555
N2 C8 1_555 1_555
N3 C12 1_555 1_555
N4 C13 1_555 1_555
N5 C17 1_555 1_555
N6 C18 1_555 1_555
N7 C28 1_555 1_555
N8 Ag1 1_555 1_555
N9 C33 1_555 1_555
N10 C34 1_555 1_555
N11 C38 1_555 1_555
N12 C39 1_555 1_555
C1 C2 1_555 1_555
C2 C3 1_555 1_555
C3 C4 1_555 1_555
C4 C5 1_555 1_555
C5 C6 1_555 1_555
C6 C1 1_555 1_555
C7 C1 1_555 1_555
H1 C7 1_555 1_555
H2 C7 1_555 1_555
C8 N1 1_555 1_555
H3 C8 1_555 1_555
C9 N2 1_555 1_555
H4 C9 1_555 1_555
C10 N1 1_555 1_555
H5 C10 1_555 1_555
C11 C2 1_555 1_555
H6 C11 1_555 1_555
H7 C11 1_555 1_555
H8 C11 1_555 1_555
C12 C3 1_555 1_555
H9 C12 1_555 1_555
H10 C12 1_555 1_555
C13 N3 1_555 1_555
H11 C13 1_555 1_555
C14 N4 1_555 1_555
H12 C14 1_555 1_555
C15 N3 1_555 1_555
H13 C15 1_555 1_555
C16 C4 1_555 1_555
H14 C16 1_555 1_555
H15 C16 1_555 1_555
H16 C16 1_555 1_555
C17 C5 1_555 1_555
H17 C17 1_555 1_555
H18 C17 1_555 1_555
C18 N5 1_555 1_555
H19 C18 1_555 1_555
C19 N6 1_555 1_555
H20 C19 1_555 1_555
C20 N5 1_555 1_555
H21 C20 1_555 1_555
C21 C6 1_555 1_555
H22 C21 1_555 1_555
H23 C21 1_555 1_555
H24 C21 1_555 1_555
C22 C23 1_555 1_555
C23 C24 1_555 1_555
C24 C25 1_555 1_555
C25 C26 1_555 1_555
C26 C27 1_555 1_555
C27 C22 1_555 1_555
C28 C22 1_555 1_555
H25 C28 1_555 1_555
H26 C28 1_555 1_555
C29 N7 1_555 1_555
H27 C29 1_555 1_555
C30 N8 1_555 1_555
H28 C30 1_555 1_555
C31 N7 1_555 1_555
H29 C31 1_555 1_555
C32 C23 1_555 1_555
H30 C32 1_555 1_555
H31 C32 1_555 1_555
H32 C32 1_555 1_555
C33 C24 1_555 1_555
H33 C33 1_555 1_555
H34 C33 1_555 1_555
C34 N9 1_555 1_555
H35 C34 1_555 1_555
C35 N10 1_555 1_555
H36 C35 1_555 1_555
C36 N9 1_555 1_555
H37 C36 1_555 1_555
C37 C25 1_555 1_555
H38 C37 1_555 1_555
H39 C37 1_555 1_555
H40 C37 1_555 1_555
C38 C26 1_555 1_555
H41 C38 1_555 1_555
H42 C38 1_555 1_555
C39 N11 1_555 1_555
H43 C39 1_555 1_555
C40 N12 1_555 1_555
H44 C40 1_555 1_555
C41 N11 1_555 1_555
H45 C41 1_555 1_555
C42 C27 1_555 1_555
H46 C42 1_555 1_555
H47 C42 1_555 1_555
H48 C42 1_555 1_555
C43 C44 1_555 1_555
C44 C45 1_555 1_555
C45 H49 1_555 1_555
C46 C45 1_555 1_555
H50 C46 1_555 1_555
C47 C46 1_555 1_555
H51 C47 1_555 1_555
C48 C43 1_555 1_555
H52 C48 1_555 1_555
C49 C43 1_555 1_555
C50 C51 1_555 1_555
C51 C52 1_555 1_555
C52 H53 1_555 1_555
C53 C52 1_555 1_555
H54 C53 1_555 1_555
C54 C53 1_555 1_555
H55 C54 1_555 1_555
C55 C50 1_555 1_555
H56 C55 1_555 1_555
C56 C50 1_555 1_555
N10A Ag2 1_555 1_555
N12_2 Ag2 1_555 1_555
Ag2A N10 1_555 1_555
Ag2_2 N12 1_555 1_555
N8 C29 1_555 1_555
C9 C10 1_555 1_555
C14 C15 1_555 1_555
C19 C20 1_555 1_555
C30 C31 1_555 1_555
C35 C36 1_555 1_555
C40 C41 1_555 1_555
C47 C48 1_555 1_555
C54 C55 1_555 1_555

#END
