
#######################################################################
#
#                 Cambridge Crystallographic Data Centre
#                                CCDC 
#
#######################################################################
#
# If this CIF has been generated from an entry in the Cambridge 
# Structural Database, then it will include bibliographic, chemical, 
# crystal, experimental, refinement or atomic coordinate data resulting 
# from the CCDC's data processing and validation procedures.
#
#######################################################################

data_AXUFAB
_symmetry_cell_setting           monoclinic
_symmetry_space_group_name_H-M   'C c'
_symmetry_Int_Tables_number      9
_space_group_name_Hall           'C -2yc'
loop_
_symmetry_equiv_pos_site_id
_symmetry_equiv_pos_as_xyz
1 x,y,z
2 x,-y,1/2+z
3 1/2+x,1/2+y,z
4 1/2+x,1/2-y,1/2+z
_cell_length_a                   16.4902(18)
_cell_length_b                   15.8412(17)
_cell_length_c                   6.7903(7)
_cell_angle_alpha                90
_cell_angle_beta                 111.6420(10)
_cell_angle_gamma                90
_cell_volume                     1648.75
loop_
_atom_site_label
_atom_site_type_symbol
_atom_site_fract_x
_atom_site_fract_y
_atom_site_fract_z
Hg1 Hg 0.060781(19) -0.648038(18) -1.95111(3)
Hg2 Hg -0.06226(2) -0.577945(17) -2.50160(3)
Cl1 Cl 0.09445(12) -0.54613(13) -1.6861(3)
Cl2 Cl -0.12116(12) -0.44494(13) -2.6151(3)
F1 F -0.0886(3) -0.7325(3) -2.7826(7)
F2 F -0.0622(3) -0.8997(3) -2.7045(7)
F3 F 0.0195(4) -0.9560(3) -2.3007(8)
F4 F 0.0729(3) -0.8462(3) -1.9761(7)
C1 C 0.0206(5) -0.7302(5) -2.2071(11)
C2 C -0.0241(5) -0.6995(5) -2.4138(12)
C3 C -0.0480(5) -0.7581(5) -2.5798(11)
C4 C -0.0345(5) -0.8441(5) -2.5444(13)
C5 C 0.0056(5) -0.8735(5) -2.3400(13)
C6 C 0.0338(5) -0.8142(5) -2.1717(12)
Hg2A Hg -0.06226(2) -0.422055(17) -3.00160(3)
Cl2A Cl -0.12116(12) -0.55506(13) -2.1151(3)
O1 O 0.1606(4) -0.7602(5) -1.5375(10)
O2 O 0.2137(4) -0.8704(5) -1.3208(10)
C7 C 0.2349(5) -0.7371(6) -1.1601(14)
C8 C 0.2617(6) -0.7735(8) -0.9601(15)
H1 H 0.2590 -0.8330 -0.9457
C9 C 0.2910(6) -0.7247(7) -0.7893(16)
H2 H 0.3088 -0.7496 -0.6526
C10 C 0.2958(7) -0.6404(8) -0.8072(16)
H3 H 0.3195 -0.6078 -0.6815
C11 C 0.2678(6) -0.5993(7) -0.9995(18)
H4 H 0.2692 -0.5395 -1.0079
C12 C 0.2363(6) -0.6507(7) -1.1868(16)
H5 H 0.2171 -0.6262 -1.3241
C13 C 0.1978(6) -0.7914(7) -1.3648(13)
C14 C 0.1807(7) -0.9250(6) -1.5083(15)
H6 H 0.2010 -0.9829 -1.4687
H7 H 0.2023 -0.9045 -1.6162
H8 H 0.1168 -0.9239 -1.5653
loop_
_geom_bond_atom_site_label_1
_geom_bond_atom_site_label_2
_geom_bond_site_symmetry_1
_geom_bond_site_symmetry_2
Hg1 Cl1 1_555 1_555
Hg2 Cl2 1_555 1_555
Cl2 Hg2A 1_555 1_555
F1 C3 1_555 1_555
F2 C4 1_555 1_555
F3 C5 1_555 1_555
F4 C6 1_555 1_555
O1 C13 1_555 1_555
O2 C13 1_555 1_555
C1 Hg1 1_555 1_555
C2 Hg2 1_555 1_555
C3 C2 1_555 1_555
C4 C3 1_555 1_555
C5 C4 1_555 1_555
C6 C1 1_555 1_555
C7 C8 1_555 1_555
C8 H1 1_555 1_555
C9 C8 1_555 1_555
H2 C9 1_555 1_555
C10 C9 1_555 1_555
H3 C10 1_555 1_555
C11 C10 1_555 1_555
H4 C11 1_555 1_555
C12 C7 1_555 1_555
H5 C12 1_555 1_555
C13 C7 1_555 1_555
C14 O2 1_555 1_555
H6 C14 1_555 1_555
H7 C14 1_555 1_555
H8 C14 1_555 1_555
Cl2A Hg2 1_555 1_555
C1 C2 1_555 1_555
C5 C6 1_555 1_555
C11 C12 1_555 1_555

#END
