
#######################################################################
#
#                 Cambridge Crystallographic Data Centre
#                                CCDC 
#
#######################################################################
#
# If this CIF has been generated from an entry in the Cambridge 
# Structural Database, then it will include bibliographic, chemical, 
# crystal, experimental, refinement or atomic coordinate data resulting 
# from the CCDC's data processing and validation procedures.
#
#######################################################################

data_AXUJOT
_symmetry_cell_setting           triclinic
_symmetry_space_group_name_H-M   'P -1'
_symmetry_Int_Tables_number      2
_space_group_name_Hall           '-P 1'
loop_
_symmetry_equiv_pos_site_id
_symmetry_equiv_pos_as_xyz
1 x,y,z
2 -x,-y,-z
_cell_length_a                   13.9971(17)
_cell_length_b                   14.5785(18)
_cell_length_c                   14.7621(19)
_cell_angle_alpha                97.325(5)
_cell_angle_beta                 98.477(5)
_cell_angle_gamma                100.960(5)
_cell_volume                     2887.29
loop_
_atom_site_label
_atom_site_type_symbol
_atom_site_fract_x
_atom_site_fract_y
_atom_site_fract_z
K2 K 0.4515(13) -0.3835(10) 0.2847(11)
O1 O -0.0530(6) -0.4595(7) -0.0917(7)
O2 O 0.1956(11) 0.1387(13) 0.2136(12)
O3 O 0.861(2) 0.1376(12) 0.5688(13)
O4 O 0.075(2) -0.3038(12) 0.2953(13)
O5 O 0.6392(16) 0.0845(17) 0.7055(18)
O6 O 0.2930(18) -0.311(2) 0.3081(17)
O7 O 0.806(3) 0.052(2) 0.8172(17)
O8 O -0.1103(16) -0.2409(17) 0.2226(18)
O9 O 0.0734(14) 0.0402(12) 0.942(3)
O10 O 0.9528(18) -0.087(2) -0.357(2)
O11 O 0.399(2) -0.202(4) 0.398(3)
O12 O -0.002(4) -0.055(3) 0.227(5)
W1 W 0.32531(3) -0.51587(3) -0.30959(3)
W2 W 0.24966(3) -0.50617(3) -0.10329(3)
W3 W 0.10764(3) -0.45539(3) -0.28881(3)
W4 W 0.24895(3) -0.28134(3) 0.03445(3)
W5 W 0.10296(3) -0.22370(3) -0.14483(3)
W6 W 0.32131(3) -0.07921(3) -0.04549(3)
W7 W 0.25529(3) -0.11338(3) -0.29953(3)
W8 W 0.26376(3) -0.31925(3) -0.42534(3)
W9 W 0.48034(3) -0.16735(3) -0.31452(3)
Co1 Co 0.48130(9) -0.34281(9) 0.00064(9)
Co2 Co 0.55532(9) -0.34495(8) -0.19252(8)
Co3 Co 0.55445(9) -0.15573(9) -0.07610(9)
Co4 Co 0.26917(10) -0.69125(10) 0.03876(10)
Si1 Si 0.33383(19) -0.29155(18) -0.17793(18)
O13 O 0.3394(6) -0.6113(6) -0.3854(6)
O14 O 0.4489(5) -0.4614(5) -0.2555(5)
O15 O 0.2892(6) -0.5778(5) -0.2085(5)
O16 O 0.3200(6) -0.4205(5) -0.3930(5)
O17 O 0.1780(5) -0.5374(5) -0.3500(5)
O18 O 0.2748(5) -0.4032(5) -0.2105(5)
O19 O 0.2106(5) -0.6001(5) -0.0455(5)
O20 O 0.3750(6) -0.4629(5) -0.0504(5)
O21 O 0.2076(5) -0.4065(5) -0.0352(5)
O22 O 0.1185(5) -0.5227(5) -0.1890(5)
O23 O -0.0108(5) -0.5078(5) -0.3473(5)
O24 O 0.0818(5) -0.3515(5) -0.2099(5)
O25 O 0.1547(5) -0.3686(5) -0.3668(5)
O26 O 0.2087(6) -0.2980(6) 0.1375(6)
O27 O 0.3740(5) -0.2921(5) 0.0561(5)
O28 O 0.2828(5) -0.1444(5) 0.0536(5)
O29 O 0.1133(5) -0.2672(5) -0.0319(5)
O30 O 0.2721(5) -0.2378(5) -0.1086(5)
O31 O -0.0180(5) -0.2075(6) -0.1617(6)
O32 O 0.1715(5) -0.1024(5) -0.0842(5)
O33 O 0.1503(6) -0.1838(5) -0.2530(5)
O34 O 0.3376(5) 0.0365(5) 0.0110(6)
O35 O 0.4427(5) -0.0989(5) -0.0315(5)
O36 O 0.3161(5) -0.0614(5) -0.1726(5)
O37 O 0.2050(6) -0.0220(6) -0.3353(6)
O38 O 0.3821(5) -0.0820(5) -0.3323(5)
O39 O 0.2130(6) -0.2031(5) -0.4112(5)
O40 O 0.3361(5) -0.2405(5) -0.2717(5)
O41 O 0.2146(6) -0.3596(6) -0.5406(5)
O42 O 0.3849(6) -0.2463(5) -0.4336(5)
O43 O 0.5625(6) -0.1096(6) -0.3793(5)
O44 O 0.5260(6) -0.1067(5) -0.1997(6)
O45 O 0.5243(6) -0.2744(5) -0.3019(5)
O46 O 0.5192(7) -0.3914(7) 0.1213(6)
O47 O 0.4139(6) -0.6106(5) 0.0650(6)
O48 O 0.4289(6) -0.7890(6) -0.0496(5)
O49 O 0.4469(5) -0.2855(5) -0.1262(5)
O50 O 0.3447(5) -0.7714(5) 0.1191(5)
O51 O 0.3455(6) -0.6041(7) 0.2684(6)
O52 O 0.2746(6) -0.7675(6) -0.0892(6)
O53 O 0.2218(6) -0.6196(6) 0.1490(6)
O54 O 0.1243(7) -0.7757(7) 0.0167(7)
C1 C 0.2584(9) -0.6057(8) 0.2349(8)
C2 C 0.1855(9) -0.5886(11) 0.3001(8)
H1 H 0.1592 -0.5327 0.2859
H2 H 0.1292 -0.6439 0.2865
C3 C 0.2267(8) -0.5732(8) 0.4002(8)
H3 H 0.2774 -0.5136 0.4168
H4 H 0.2586 -0.6259 0.4150
N1 N 0.1453(7) -0.5680(7) 0.4553(7)
H5 H 0.1073 -0.5292 0.4324
H6 H 0.1720 -0.5448 0.5158
H7 H 0.1073 -0.6270 0.4511
C4 C 0.3500(8) -0.7933(8) -0.1088(8)
C5 C 0.3513(10) -0.8309(10) -0.2076(9)
H8 H 0.3258 -0.7877 -0.2470
H9 H 0.3045 -0.8930 -0.2245
C6 C 0.4510(11) -0.8438(10) -0.2322(10)
H10 H 0.4976 -0.7816 -0.2200
H11 H 0.4421 -0.8689 -0.2991
N2 N 0.4950(6) -0.9124(5) -0.1750(6)
H12 H 0.5083 -0.8869 -0.1137
H13 H 0.5518 -0.9221 -0.1939
H14 H 0.4508 -0.9686 -0.1836
Co1A Co 0.51870(9) -0.65719(9) -0.00064(9)
Co2A Co 0.44468(9) -0.65505(8) 0.19252(8)
Co3A Co 0.44555(9) 0.15573(9) 0.07610(9)
Co3A_2 Co 0.44555(9) -0.84427(9) 0.07610(9)
O34A O 0.6624(5) -0.0365(5) -0.0110(6)
O47A O 0.5861(6) -0.3894(5) -0.0650(6)
O48A O 0.5711(6) -0.2110(6) 0.0496(5)
O50A O 0.6553(5) -0.2286(5) -0.1191(5)
O51A O 0.6545(6) -0.3959(7) -0.2684(6)
K1 K 0.0003(2) -0.3638(3) 0.0890(3)
Co5? Co 0.6544(2) -0.1269(2) -0.46968(17)
O55? O 0.5859(11) -0.0335(11) -0.5401(10)
O56? O 0.7082(15) -0.2181(13) -0.3830(12)
O57? O 0.245(3) -0.004(3) 0.377(2)
O58? O 0.226(2) 0.040(2) 0.408(3)
O59? O 0.231(5) 0.119(3) 0.551(2)
O60? O 0.284(2) 0.1939(17) 0.5730(18)
O61? O 0.556(2) -0.2492(15) -0.5432(12)
K3? K 0.5170(6) -0.4073(6) -0.4457(5)
K4? K 0.9901(8) -0.2583(8) -0.4225(10)
O62? O 0.127(3) 0.255(3) 0.606(2)
loop_
_geom_bond_atom_site_label_1
_geom_bond_atom_site_label_2
_geom_bond_site_symmetry_1
_geom_bond_site_symmetry_2
W1 O13 1_555 1_555
W2 O15 1_555 1_555
W3 O17 1_555 1_555
W4 O21 1_555 1_555
W5 O24 1_555 1_555
W6 O28 1_555 1_555
W7 O33 1_555 1_555
W8 O16 1_555 1_555
W9 O38 1_555 1_555
Co1 O20 1_555 1_555
Co2 O14 1_555 1_555
Co3 O35 1_555 1_555
Co4 O19 1_555 1_555
Si1 O18 1_555 1_555
O14 W1 1_555 1_555
O15 W1 1_555 1_555
O16 W1 1_555 1_555
O17 W1 1_555 1_555
O18 W1 1_555 1_555
O19 W2 1_555 1_555
O20 W2 1_555 1_555
O21 W2 1_555 1_555
O22 W2 1_555 1_555
O23 W3 1_555 1_555
O24 W3 1_555 1_555
O25 W3 1_555 1_555
O26 W4 1_555 1_555
O27 W4 1_555 1_555
O28 W4 1_555 1_555
O29 W4 1_555 1_555
O30 W4 1_555 1_555
O31 W5 1_555 1_555
O32 W5 1_555 1_555
O33 W5 1_555 1_555
O34 W6 1_555 1_555
O35 W6 1_555 1_555
O36 W6 1_555 1_555
O37 W7 1_555 1_555
O38 W7 1_555 1_555
O39 W7 1_555 1_555
O40 W7 1_555 1_555
O41 W8 1_555 1_555
O42 W8 1_555 1_555
O43 W9 1_555 1_555
O44 W9 1_555 1_555
O45 W9 1_555 1_555
O46 Co1 1_555 1_555
O47 Co4 1_555 1_555
O48 C4 1_555 1_555
O49 Co1 1_555 1_555
O50 Co4 1_555 1_555
O51 C1 1_555 1_555
O52 Co4 1_555 1_555
O53 Co4 1_555 1_555
O54 Co4 1_555 1_555
C1 O53 1_555 1_555
C2 C1 1_555 1_555
H1 C2 1_555 1_555
H2 C2 1_555 1_555
C3 C2 1_555 1_555
H3 C3 1_555 1_555
H4 C3 1_555 1_555
N1 C3 1_555 1_555
H5 N1 1_555 1_555
H6 N1 1_555 1_555
H7 N1 1_555 1_555
C4 O52 1_555 1_555
C5 C4 1_555 1_555
H8 C5 1_555 1_555
H9 C5 1_555 1_555
C6 C5 1_555 1_555
H10 C6 1_555 1_555
H11 C6 1_555 1_555
N2 C6 1_555 1_555
H12 N2 1_555 1_555
H13 N2 1_555 1_555
H14 N2 1_555 1_555
Co1A O47 1_555 1_555
Co2A O47 1_555 1_555
Co3A O34 1_555 1_555
Co3A_2 O48 1_555 1_555
O34A Co3 1_555 1_555
O47A Co1 1_555 1_555
O48A Co1 1_555 1_555
O50A Co2 1_555 1_555
O51A Co2 1_555 1_555
W2 O18 1_555 1_555
W3 O18 1_555 1_555
W3 O22 1_555 1_555
W5 O29 1_555 1_555
W5 O30 1_555 1_555
W6 O30 1_555 1_555
W6 O32 1_555 1_555
W7 O36 1_555 1_555
W8 O25 1_555 1_555
W8 O39 1_555 1_555
W8 O40 1_555 1_555
W9 O40 1_555 1_555
W9 O42 1_555 1_555
Co1 O27 1_555 1_555
Co2 O45 1_555 1_555
Co2 O49 1_555 1_555
Co2 O47A 1_555 1_555
Co3 O44 1_555 1_555
Co3 O49 1_555 1_555
Co3 O48A 1_555 1_555
Co3 O50A 1_555 1_555
Si1 O30 1_555 1_555
Si1 O40 1_555 1_555
Si1 O49 1_555 1_555
O48 Co1A 1_555 1_555
O50 Co2A 1_555 1_555
O50 Co3A_2 1_555 1_555
O51 Co2A 1_555 1_555

#END
