
#######################################################################
#
#                 Cambridge Crystallographic Data Centre
#                                CCDC 
#
#######################################################################
#
# If this CIF has been generated from an entry in the Cambridge 
# Structural Database, then it will include bibliographic, chemical, 
# crystal, experimental, refinement or atomic coordinate data resulting 
# from the CCDC's data processing and validation procedures.
#
#######################################################################

data_AXUVUL
_symmetry_cell_setting           orthorhombic
_symmetry_space_group_name_H-M   'P 21 21 21'
_symmetry_Int_Tables_number      19
_space_group_name_Hall           'P 2ac 2ab'
loop_
_symmetry_equiv_pos_site_id
_symmetry_equiv_pos_as_xyz
1 x,y,z
2 1/2-x,-y,1/2+z
3 -x,1/2+y,1/2-z
4 1/2+x,1/2-y,-z
_cell_length_a                   5.7948(8)
_cell_length_b                   6.2433(9)
_cell_length_c                   28.594(4)
_cell_angle_alpha                90
_cell_angle_beta                 90
_cell_angle_gamma                90
_cell_volume                     1034.49
loop_
_atom_site_label
_atom_site_type_symbol
_atom_site_fract_x
_atom_site_fract_y
_atom_site_fract_z
Sb1 Sb 0.567687(9) 0.231138(8) 0.702214(2)
F1 F 0.71093(10) 0.00580(9) 0.74095(2)
F2 F 0.76717(10) 0.41674(10) 0.73927(2)
F3 F 0.82605(9) 0.19531(9) 0.660620(18)
C1 C 0.07799(17) -0.35943(16) 0.59798(3)
H1 H -0.0791 -0.4118 0.5954
H2 H 0.0770 -0.2095 0.5891
C2 C 0.15361(15) -0.37572(14) 0.64954(3)
H3 H 0.1472 -0.5253 0.6598
C3 C 0.2277(2) -0.4819(2) 0.56322(4)
H4 H 0.3878 -0.4341 0.5667
C4 C 0.2176(3) -0.7213(2) 0.57210(5)
H5 H 0.2815 -0.7521 0.6023
H6 H 0.3050 -0.7948 0.5485
H7 H 0.0600 -0.7684 0.5711
C5 C 0.1478(3) -0.4322(3) 0.51329(4)
H8 H -0.0078 -0.4814 0.5092
H9 H 0.2469 -0.5037 0.4914
H10 H 0.1543 -0.2804 0.5080
O1 O 0.42179(13) -0.08965(10) 0.65482(2)
C6 C 0.39911(13) -0.28785(13) 0.65597(3)
N1 N -0.00586(11) -0.24383(13) 0.67821(3)
H11 H 0.0006 -0.1082 0.6687
H12 H 0.0355 -0.2515 0.7081
H13 H -0.1492 -0.2927 0.6750
O2 O 0.56134(12) -0.42217(10) 0.66030(2)
Sb1_2 Sb 0.567687(9) -0.768862(8) 0.702214(2)
O2_2 O 0.56134(12) 0.57783(10) 0.66030(2)
loop_
_geom_bond_atom_site_label_1
_geom_bond_atom_site_label_2
_geom_bond_site_symmetry_1
_geom_bond_site_symmetry_2
Sb1 F1 1_555 1_555
F2 Sb1 1_555 1_555
F3 Sb1 1_555 1_555
C1 H1 1_555 1_555
H2 C1 1_555 1_555
C2 C1 1_555 1_555
H3 C2 1_555 1_555
C3 C1 1_555 1_555
H4 C3 1_555 1_555
C4 C3 1_555 1_555
H5 C4 1_555 1_555
H6 C4 1_555 1_555
H7 C4 1_555 1_555
C5 C3 1_555 1_555
H8 C5 1_555 1_555
H9 C5 1_555 1_555
H10 C5 1_555 1_555
O1 Sb1 1_555 1_555
C6 C2 1_555 1_555
N1 C2 1_555 1_555
H11 N1 1_555 1_555
H12 N1 1_555 1_555
H13 N1 1_555 1_555
O2 C6 1_555 1_555
Sb1_2 O2 1_555 1_555
O2_2 Sb1 1_555 1_555
O1 C6 1_555 1_555

#END
