
#######################################################################
#
#                 Cambridge Crystallographic Data Centre
#                                CCDC 
#
#######################################################################
#
# If this CIF has been generated from an entry in the Cambridge 
# Structural Database, then it will include bibliographic, chemical, 
# crystal, experimental, refinement or atomic coordinate data resulting 
# from the CCDC's data processing and validation procedures.
#
#######################################################################

data_AYABEH
_symmetry_cell_setting           monoclinic
_symmetry_space_group_name_H-M   'P 21/c'
_symmetry_Int_Tables_number      14
_space_group_name_Hall           '-P 2ybc'
loop_
_symmetry_equiv_pos_site_id
_symmetry_equiv_pos_as_xyz
1 x,y,z
2 -x,1/2+y,1/2-z
3 -x,-y,-z
4 x,1/2-y,1/2+z
_cell_length_a                   10.944(3)
_cell_length_b                   17.448(5)
_cell_length_c                   13.397(2)
_cell_angle_alpha                90
_cell_angle_beta                 101.19(3)
_cell_angle_gamma                90
_cell_volume                     2509.54
loop_
_atom_site_label
_atom_site_type_symbol
_atom_site_fract_x
_atom_site_fract_y
_atom_site_fract_z
Nd1 Nd 0.32809(9) 0.04238(6) 0.40951(7)
Nd2 Nd 0.84318(9) 0.25859(6) 0.40667(6)
O1 O 0.2079(13) 0.0121(8) 0.2403(10)
O2 O 0.1444(16) 0.0327(9) 0.0753(11)
O3 O 0.4844(11) 0.1495(7) 0.4441(10)
O4 O 0.6353(15) 0.2136(9) 0.3948(12)
O5 O 0.5476(12) -0.0103(7) 0.4142(9)
O6 O 0.4949(15) -0.0270(10) 0.2488(12)
O7 O 0.8260(14) -0.1480(8) 0.6210(10)
O8 O 0.9437(13) -0.2400(8) 0.5751(12)
O9 O 0.1523(12) -0.0123(8) 0.4742(10)
O10 O 0.1296(15) -0.1391(8) 0.4861(9)
O11 O 0.1690(15) -0.2625(7) 0.7802(10)
O12 O 0.1728(15) -0.2059(8) 0.9283(10)
O13 O 0.3354(14) -0.1033(8) 0.3922(10)
O14 O 0.7006(15) 0.3660(9) 0.3369(13)
O15 O 0.9574(16) 0.3874(7) 0.4278(10)
N1 N 0.3730(13) 0.1205(8) 0.2578(11)
N2 N 0.1424(13) -0.1301(8) 0.6823(11)
N3 N 0.7107(13) -0.1203(8) 0.4331(11)
C1 C 0.2079(18) 0.0459(11) 0.1595(14)
C2 C 0.3088(19) 0.1061(11) 0.1631(13)
C3 C 0.340(2) 0.1402(12) 0.0797(15)
H1 H 0.2937 0.1304 0.0152
C4 C 0.443(2) 0.1902(13) 0.0919(16)
H2 H 0.4661 0.2141 0.0365
C5 C 0.504(2) 0.2019(12) 0.1865(16)
H3 H 0.5727 0.2346 0.1960
C6 C 0.4736(18) 0.1691(12) 0.2697(14)
C7 C 0.5388(18) 0.1780(11) 0.3776(14)
C8 C 0.5576(17) -0.0416(11) 0.3318(14)
C9 C 0.6509(16) -0.1050(12) 0.3370(14)
C10 C 0.677(2) -0.1409(12) 0.2548(16)
H4 H 0.6311 -0.1309 0.1902
C11 C 0.775(2) -0.1933(13) 0.2679(17)
H5 H 0.7983 -0.2154 0.2112
C12 C 0.837(2) -0.2127(13) 0.3631(17)
H6 H 0.9000 -0.2492 0.3733
C13 C 0.800(2) -0.1739(11) 0.4456(15)
C14 C 0.861(2) -0.1864(12) 0.5575(16)
C15 C 0.1354(17) -0.0737(11) 0.5223(14)
C16 C 0.1216(16) -0.0621(10) 0.6295(13)
C17 C 0.0991(17) 0.0020(11) 0.6730(14)
H7 H 0.0843 0.0464 0.6342
C18 C 0.097(2) 0.0048(11) 0.7758(15)
H8 H 0.0812 0.0506 0.8066
C19 C 0.119(2) -0.0632(12) 0.8325(15)
H9 H 0.1172 -0.0639 0.9016
C20 C 0.1422(18) -0.1280(11) 0.7829(12)
C21 C 0.1607(19) -0.2050(12) 0.8338(14)
O5B O 0.4524(12) 0.0103(7) 0.5858(9)
O7B O 0.1740(14) 0.1480(8) 0.3790(10)
N3B N 0.2893(13) 0.1203(8) 0.5669(11)
O8B O 1.0563(13) 0.2400(8) 0.4249(12)
O10B O 0.8704(15) 0.1391(8) 0.5139(9)
O11B O 0.8310(15) 0.2625(7) 0.2198(10)
O12A O 0.8272(15) 0.2941(8) 0.5717(10)
N2B N 0.8576(13) 0.1301(8) 0.3177(11)
Nd1B Nd 0.67191(9) -0.04238(6) 0.59049(7)
Nd2B Nd 1.15682(9) -0.25859(6) 0.59333(6)
Nd2B_2 Nd 0.15682(9) -0.25859(6) 0.59333(6)
Nd2A Nd 0.15682(9) -0.24141(6) 1.09333(6)
loop_
_geom_bond_atom_site_label_1
_geom_bond_atom_site_label_2
_geom_bond_site_symmetry_1
_geom_bond_site_symmetry_2
Nd1 O1 1_555 1_555
Nd2 O4 1_555 1_555
O1 C1 1_555 1_555
O2 C1 1_555 1_555
O3 Nd1 1_555 1_555
O4 C7 1_555 1_555
O5 Nd1 1_555 1_555
O6 C8 1_555 1_555
O7 C14 1_555 1_555
O8 C14 1_555 1_555
O9 Nd1 1_555 1_555
O10 C15 1_555 1_555
O11 C21 1_555 1_555
O12 C21 1_555 1_555
O13 Nd1 1_555 1_555
O14 Nd2 1_555 1_555
O15 Nd2 1_555 1_555
N1 Nd1 1_555 1_555
N2 C16 1_555 1_555
N3 C9 1_555 1_555
C1 C2 1_555 1_555
C2 N1 1_555 1_555
C3 C2 1_555 1_555
H1 C3 1_555 1_555
C4 C3 1_555 1_555
H2 C4 1_555 1_555
C5 C4 1_555 1_555
H3 C5 1_555 1_555
C6 N1 1_555 1_555
C7 O3 1_555 1_555
C8 O5 1_555 1_555
C9 C8 1_555 1_555
C10 C9 1_555 1_555
H4 C10 1_555 1_555
C11 C10 1_555 1_555
H5 C11 1_555 1_555
C12 C11 1_555 1_555
H6 C12 1_555 1_555
C13 N3 1_555 1_555
C14 C13 1_555 1_555
C15 O9 1_555 1_555
C16 C15 1_555 1_555
C17 C16 1_555 1_555
H7 C17 1_555 1_555
C18 C17 1_555 1_555
H8 C18 1_555 1_555
C19 C18 1_555 1_555
H9 C19 1_555 1_555
C20 N2 1_555 1_555
C21 C20 1_555 1_555
O5B Nd1 1_555 1_555
O7B Nd1 1_555 1_555
N3B Nd1 1_555 1_555
O8B Nd2 1_555 1_555
O10B Nd2 1_555 1_555
O11B Nd2 1_555 1_555
O12A Nd2 1_555 1_555
N2B Nd2 1_555 1_555
Nd1B O5 1_555 1_555
Nd2B O8 1_555 1_555
Nd2B_2 O10 1_555 1_555
Nd2A O12 1_555 1_555
O7 Nd1B 1_555 1_555
O11 Nd2B_2 1_555 1_555
N2 Nd2B_2 1_555 1_555
N3 Nd1B 1_555 1_555
C5 C6 1_555 1_555
C6 C7 1_555 1_555
C12 C13 1_555 1_555
C19 C20 1_555 1_555
O5B Nd1B 1_555 1_555

#END
