
#######################################################################
#
#                 Cambridge Crystallographic Data Centre
#                                CCDC 
#
#######################################################################
#
# If this CIF has been generated from an entry in the Cambridge 
# Structural Database, then it will include bibliographic, chemical, 
# crystal, experimental, refinement or atomic coordinate data resulting 
# from the CCDC's data processing and validation procedures.
#
#######################################################################

data_AYALIV
_symmetry_cell_setting           monoclinic
_symmetry_space_group_name_H-M   'P 21/c'
_symmetry_Int_Tables_number      14
_space_group_name_Hall           '-P 2ybc'
loop_
_symmetry_equiv_pos_site_id
_symmetry_equiv_pos_as_xyz
1 x,y,z
2 x,1/2-y,1/2+z
3 -x,-y,-z
4 -x,1/2+y,1/2-z
_cell_length_a                   11.7443(14)
_cell_length_b                   7.5996(10)
_cell_length_c                   18.029(2)
_cell_angle_alpha                90
_cell_angle_beta                 100.604(10)
_cell_angle_gamma                90
_cell_volume                     1581.64
loop_
_atom_site_label
_atom_site_type_symbol
_atom_site_fract_x
_atom_site_fract_y
_atom_site_fract_z
Mn1 Mn 0.439409(17) 0.58191(3) 0.126484(11)
O1 O 0.59283(8) 0.62076(14) 0.11883(5)
O2 O 0.38235(8) 0.67457(14) 0.02771(5)
O3 O 0.59558(9) 0.34113(13) 0.32565(5)
O4 O 0.46584(10) 0.31222(14) 0.07228(6)
H1 H 0.5437 0.2892 0.0677
N1 N 0.48085(10) 0.48160(16) 0.22773(6)
N2 N 0.28036(10) 0.50712(16) 0.13600(6)
C1 C 0.68749(11) 0.56137(18) 0.16359(7)
C2 C 0.79395(13) 0.6025(2) 0.14361(9)
H2 H 0.7951 0.6693 0.0992
C3 C 0.89731(13) 0.5483(2) 0.18697(9)
H3 H 0.9684 0.5796 0.1725
C4 C 0.89813(14) 0.4487(2) 0.25143(10)
H4 H 0.9691 0.4082 0.2805
C5 C 0.79389(13) 0.4093(2) 0.27269(9)
H5 H 0.7947 0.3434 0.3176
C6 C 0.68685(12) 0.46286(18) 0.23063(7)
C7 C 0.58210(11) 0.42327(17) 0.26315(7)
C8 C 0.37774(13) 0.4604(2) 0.26324(8)
H6 H 0.3572 0.5742 0.2841
H7 H 0.3938 0.3740 0.3049
C9 C 0.27908(13) 0.3964(2) 0.20313(9)
H8 H 0.2902 0.2711 0.1913
H9 H 0.2043 0.4088 0.2205
C10 C 0.27496(12) 0.72170(18) -0.00146(7)
C11 C 0.25639(14) 0.8285(2) -0.06634(8)
H10 H 0.3206 0.8642 -0.0880
C12 C 0.14663(16) 0.8821(2) -0.09877(9)
H11 H 0.1365 0.9554 -0.1422
C13 C 0.04907(15) 0.8308(3) -0.06911(10)
H12 H -0.0263 0.8683 -0.0921
C14 C 0.06504(14) 0.7256(2) -0.00651(9)
H13 H -0.0003 0.6899 0.0139
C15 C 0.17689(12) 0.6688(2) 0.02855(8)
C16 C 0.18537(12) 0.55629(19) 0.09347(8)
H14 H 0.1150 0.5148 0.1060
C17 C 0.38674(16) 0.1733(2) 0.04436(9)
H15 H 0.4290 0.0776 0.0251
H16 H 0.3270 0.2185 0.0036
H17 H 0.3502 0.1290 0.0853
O3C O 0.40442(9) 0.84113(13) 0.17435(5)
Mn1C Mn 0.560591(17) 0.08191(3) 0.373516(11)
loop_
_geom_bond_atom_site_label_1
_geom_bond_atom_site_label_2
_geom_bond_site_symmetry_1
_geom_bond_site_symmetry_2
Mn1 O1 1_555 1_555
O1 C1 1_555 1_555
O2 Mn1 1_555 1_555
O3 C7 1_555 1_555
O4 Mn1 1_555 1_555
H1 O4 1_555 1_555
N1 Mn1 1_555 1_555
N2 Mn1 1_555 1_555
C1 C2 1_555 1_555
C2 H2 1_555 1_555
C3 C2 1_555 1_555
H3 C3 1_555 1_555
C4 C3 1_555 1_555
H4 C4 1_555 1_555
C5 C4 1_555 1_555
H5 C5 1_555 1_555
C6 C1 1_555 1_555
C7 N1 1_555 1_555
C8 N1 1_555 1_555
H6 C8 1_555 1_555
H7 C8 1_555 1_555
C9 N2 1_555 1_555
H8 C9 1_555 1_555
H9 C9 1_555 1_555
C10 O2 1_555 1_555
C11 C10 1_555 1_555
H10 C11 1_555 1_555
C12 C11 1_555 1_555
H11 C12 1_555 1_555
C13 C12 1_555 1_555
H12 C13 1_555 1_555
C14 C13 1_555 1_555
H13 C14 1_555 1_555
C15 C10 1_555 1_555
C16 N2 1_555 1_555
H14 C16 1_555 1_555
C17 O4 1_555 1_555
H15 C17 1_555 1_555
H16 C17 1_555 1_555
H17 C17 1_555 1_555
O3C Mn1 1_555 1_555
Mn1C O3 1_555 1_555
C5 C6 1_555 1_555
C6 C7 1_555 1_555
C8 C9 1_555 1_555
C14 C15 1_555 1_555
C15 C16 1_555 1_555

#END
