
#######################################################################
#
#                 Cambridge Crystallographic Data Centre
#                                CCDC 
#
#######################################################################
#
# If this CIF has been generated from an entry in the Cambridge 
# Structural Database, then it will include bibliographic, chemical, 
# crystal, experimental, refinement or atomic coordinate data resulting 
# from the CCDC's data processing and validation procedures.
#
#######################################################################

data_AYANUK
_symmetry_cell_setting           tetragonal
_symmetry_space_group_name_H-M   'P -4 21 c'
_symmetry_Int_Tables_number      114
_space_group_name_Hall           'P -4 2n'
loop_
_symmetry_equiv_pos_site_id
_symmetry_equiv_pos_as_xyz
1 x,y,z
2 -x,-y,z
3 y,-x,-z
4 -y,x,-z
5 1/2-x,1/2+y,1/2-z
6 1/2+x,1/2-y,1/2-z
7 1/2-y,1/2-x,1/2+z
8 1/2+y,1/2+x,1/2+z
_cell_length_a                   10.6407(7)
_cell_length_b                   10.6407(7)
_cell_length_c                   18.942(1)
_cell_angle_alpha                90
_cell_angle_beta                 90
_cell_angle_gamma                90
_cell_volume                     2144.7
loop_
_atom_site_label
_atom_site_type_symbol
_atom_site_fract_x
_atom_site_fract_y
_atom_site_fract_z
Ag1 Ag 0.5000 0.0000 0.00950(8)
N1 N 0.3383(14) 0.1693(13) -0.0240(10)
N2 N 0.1630(11) 0.3599(12) -0.0270(7)
C1 C 0.3366(14) 0.2631(13) 0.0264(10)
H1 H 0.3976 0.2639 0.0615
C2 C 0.1604(15) 0.2711(14) -0.0767(10)
C3 C 0.2476(12) 0.3541(13) 0.0253(9)
H2 H 0.2452 0.4134 0.0614
C4 C 0.2590(15) 0.1742(18) -0.0761(11)
C5 C 0.096(4) 0.337(3) -0.1947(13)
H3 H 0.0302 0.3322 -0.2296
H4 H 0.1720 0.3033 -0.2140
H5 H 0.1085 0.4229 -0.1814
C6 C 0.060(2) 0.265(2) -0.1334(10)
H6 H 0.0463 0.1778 -0.1469
H7 H -0.0188 0.2971 -0.1147
C7 C 0.329(4) 0.082(6) -0.177(4)
H8 H 0.3302 0.0127 -0.2099
H9 H 0.4102 0.0903 -0.1557
H10 H 0.3081 0.1577 -0.2018
C8 C 0.242(2) 0.059(2) -0.1266(9)
H11 H 0.2583 -0.0191 -0.1023
H12 H 0.1578 0.0572 -0.1463
Ag1B Ag 0.0000 0.5000 -0.00950(8)
Ag1B_2 Ag 0.0000 -0.5000 -0.00950(8)
N1B N 0.1693(13) -0.3383(14) 0.0240(10)
N1A N 0.6617(14) -0.1693(13) -0.0240(10)
N2B N 0.3599(12) -0.1630(11) 0.0270(7)
N2C N 0.6401(12) 0.1630(11) 0.0270(7)
C1B C 0.2631(13) -0.3366(14) -0.0264(10)
H1B H 0.2639 -0.3976 -0.0615
C2B C 0.2711(14) -0.1604(15) 0.0767(10)
C3B C 0.3541(13) -0.2476(12) -0.0253(9)
H2B H 0.4134 -0.2452 -0.0614
C4B C 0.1742(18) -0.2590(15) 0.0761(11)
C5B C 0.337(3) -0.096(4) 0.1947(13)
H3B H 0.3322 -0.0302 0.2296
H4B H 0.3033 -0.1720 0.2140
H5B H 0.4229 -0.1085 0.1814
C6B C 0.265(2) -0.060(2) 0.1334(10)
H6B H 0.1778 -0.0463 0.1469
H7B H 0.2971 0.0188 0.1147
C7B C 0.082(6) -0.329(4) 0.177(4)
H8B H 0.0127 -0.3302 0.2099
H9B H 0.0903 -0.4102 0.1557
H10B H 0.1577 -0.3081 0.2018
C8B C 0.059(2) -0.242(2) 0.1266(9)
H11B H -0.0191 -0.2583 0.1023
H12B H 0.0572 -0.1578 0.1463
P1 P 1.0000 0.0000 -0.3224(2)
F1 F 1.1089(13) 0.0999(13) -0.3236(8)
F2 F 1.0641(16) -0.0741(16) -0.3845(10)
F3 F 1.059(2) -0.071(3) -0.2532(11)
F1A F 0.8911(13) -0.0999(13) -0.3236(8)
F2A F 0.9359(16) 0.0741(16) -0.3845(10)
F3A F 0.941(2) 0.071(3) -0.2532(11)
loop_
_geom_bond_atom_site_label_1
_geom_bond_atom_site_label_2
_geom_bond_site_symmetry_1
_geom_bond_site_symmetry_2
Ag1 N1 1_555 1_555
P1 F1 1_555 1_555
F2 P1 1_555 1_555
F3 P1 1_555 1_555
N1 C1 1_555 1_555
N2 C2 1_555 1_555
C1 H1 1_555 1_555
C2 C4 1_555 1_555
C3 N2 1_555 1_555
H2 C3 1_555 1_555
C4 N1 1_555 1_555
C5 H3 1_555 1_555
H4 C5 1_555 1_555
H5 C5 1_555 1_555
C6 C2 1_555 1_555
H6 C6 1_555 1_555
H7 C6 1_555 1_555
C7 H8 1_555 1_555
H9 C7 1_555 1_555
H10 C7 1_555 1_555
C8 C4 1_555 1_555
H11 C8 1_555 1_555
H12 C8 1_555 1_555
Ag1B N2 1_555 1_555
Ag1B_2 N1B 1_555 1_555
F1A P1 1_555 1_555
F2A P1 1_555 1_555
F3A P1 1_555 1_555
N1B C1B 1_555 1_555
N1A Ag1 1_555 1_555
N2B Ag1 1_555 1_555
N2C Ag1 1_555 1_555
C1B H1B 1_555 1_555
C2B N2B 1_555 1_555
C3B N2B 1_555 1_555
H2B C3B 1_555 1_555
C4B N1B 1_555 1_555
C5B H3B 1_555 1_555
H4B C5B 1_555 1_555
H5B C5B 1_555 1_555
C6B C2B 1_555 1_555
H6B C6B 1_555 1_555
H7B C6B 1_555 1_555
C7B H8B 1_555 1_555
H9B C7B 1_555 1_555
H10B C7B 1_555 1_555
C8B C4B 1_555 1_555
H11B C8B 1_555 1_555
H12B C8B 1_555 1_555
C1 C3 1_555 1_555
C5 C6 1_555 1_555
C7 C8 1_555 1_555
C1B C3B 1_555 1_555
C2B C4B 1_555 1_555
C5B C6B 1_555 1_555
C7B C8B 1_555 1_555

#END
