
#######################################################################
#
#                 Cambridge Crystallographic Data Centre
#                                CCDC 
#
#######################################################################
#
# If this CIF has been generated from an entry in the Cambridge 
# Structural Database, then it will include bibliographic, chemical, 
# crystal, experimental, refinement or atomic coordinate data resulting 
# from the CCDC's data processing and validation procedures.
#
#######################################################################

data_AYANOE
_symmetry_cell_setting           monoclinic
_symmetry_space_group_name_H-M   'C 2/c'
_symmetry_Int_Tables_number      15
_space_group_name_Hall           '-C 2yn'
loop_
_symmetry_equiv_pos_site_id
_symmetry_equiv_pos_as_xyz
1 x,y,z
2 -x,y,1/2-z
3 1/2+x,1/2+y,z
4 1/2-x,1/2+y,1/2-z
5 -x,-y,-z
6 x,-y,1/2+z
7 1/2-x,1/2-y,-z
8 1/2+x,1/2-y,1/2+z
_cell_length_a                   10.213(2)
_cell_length_b                   16.267(3)
_cell_length_c                   12.663(3)
_cell_angle_alpha                90
_cell_angle_beta                 92.26(3)
_cell_angle_gamma                90
_cell_volume                     2102.13
loop_
_atom_site_label
_atom_site_type_symbol
_atom_site_fract_x
_atom_site_fract_y
_atom_site_fract_z
Ag1 Ag 0.0000 0.11581(6) 0.2500
N1 N 0.0022(7) 0.0431(4) 0.4080(4)
N2 N 0.0000 0.2546(5) 0.2500
N3 N 0.0000 0.4225(7) 0.2500
C1 C -0.0887(8) -0.0145(5) 0.4213(5)
C2 C 0.0897(8) 0.0593(4) 0.4849(5)
C3 C 0.1208(13) 0.4292(8) 0.0894(9)
H1 H 0.1117 0.4868 0.1036
H2 H 0.0786 0.4164 0.0224
H3 H 0.2121 0.4154 0.0878
C4 C 0.0584(9) 0.3806(7) 0.1745(7)
C5 C 0.0582(7) 0.2960(5) 0.1744(5)
C6 C 0.1281(10) 0.2482(7) 0.0925(6)
H4 H 0.1168 0.1904 0.1046
H5 H 0.2198 0.2614 0.0969
H6 H 0.0926 0.2622 0.0235
C7 C -0.1899(10) -0.0285(6) 0.3325(6)
H7 H -0.2491 -0.0711 0.3523
H8 H -0.1469 -0.0445 0.2697
H9 H -0.2381 0.0214 0.3192
C8 C 0.1891(9) 0.1247(5) 0.4668(6)
H10 H 0.2453 0.1306 0.5289
H11 H 0.1454 0.1759 0.4518
H12 H 0.2406 0.1096 0.4080
Ag1D Ag 0.0000 -0.11581(6) 0.7500
N1D N -0.0022(7) -0.0431(4) 0.5920(4)
N1A N -0.0022(7) 0.0431(4) 0.0920(4)
C1D C 0.0887(8) 0.0145(5) 0.5787(5)
C2D C -0.0897(8) -0.0593(4) 0.5151(5)
C3A C -0.1208(13) 0.4292(8) 0.4106(9)
H1A H -0.1117 0.4868 0.3964
H2A H -0.0786 0.4164 0.4776
H3A H -0.2121 0.4154 0.4122
C4A C -0.0584(9) 0.3806(7) 0.3255(7)
C5A C -0.0582(7) 0.2960(5) 0.3256(5)
C6A C -0.1281(10) 0.2482(7) 0.4075(6)
H4A H -0.1168 0.1904 0.3954
H5A H -0.2198 0.2614 0.4031
H6A H -0.0926 0.2622 0.4765
C7D C 0.1899(10) 0.0285(6) 0.6675(6)
H7D H 0.2491 0.0711 0.6477
H8D H 0.1469 0.0445 0.7303
H9D H 0.2381 -0.0214 0.6808
C8D C -0.1891(9) -0.1247(5) 0.5332(6)
H10D H -0.2453 -0.1306 0.4711
H11D H -0.1454 -0.1759 0.5482
H12D H -0.2406 -0.1096 0.5920
P1 P 0.0000 0.2622(3) 0.7500
F1 F 0.0478(8) 0.1915(4) 0.8307(5)
F2 F 0.0487(11) 0.3275(5) 0.8297(7)
F3 F 0.1396(10) 0.2536(8) 0.7051(8)
F1A F -0.0478(8) 0.1915(4) 0.6693(5)
F2A F -0.0487(11) 0.3275(5) 0.6703(7)
F3A F -0.1396(10) 0.2536(8) 0.7949(8)
loop_
_geom_bond_atom_site_label_1
_geom_bond_atom_site_label_2
_geom_bond_site_symmetry_1
_geom_bond_site_symmetry_2
Ag1 N1 1_555 1_555
P1 F1 1_555 1_555
N1 C1 1_555 1_555
N2 Ag1 1_555 1_555
N3 C4 1_555 1_555
C1 C7 1_555 1_555
C2 N1 1_555 1_555
C3 H1 1_555 1_555
H2 C3 1_555 1_555
H3 C3 1_555 1_555
C4 C3 1_555 1_555
C5 N2 1_555 1_555
C6 C5 1_555 1_555
H4 C6 1_555 1_555
H5 C6 1_555 1_555
H6 C6 1_555 1_555
C7 H7 1_555 1_555
H8 C7 1_555 1_555
H9 C7 1_555 1_555
C8 C2 1_555 1_555
H10 C8 1_555 1_555
H11 C8 1_555 1_555
H12 C8 1_555 1_555
F2 P1 1_555 1_555
F3 P1 1_555 1_555
Ag1D N1D 1_555 1_555
N1D C1D 1_555 1_555
N1A Ag1 1_555 1_555
C1D C2 1_555 1_555
C2D C1 1_555 1_555
C3A H1A 1_555 1_555
H2A C3A 1_555 1_555
H3A C3A 1_555 1_555
C4A N3 1_555 1_555
C5A N2 1_555 1_555
C6A C5A 1_555 1_555
H4A C6A 1_555 1_555
H5A C6A 1_555 1_555
H6A C6A 1_555 1_555
C7D C1D 1_555 1_555
H7D C7D 1_555 1_555
H8D C7D 1_555 1_555
H9D C7D 1_555 1_555
C8D C2D 1_555 1_555
H10D C8D 1_555 1_555
H11D C8D 1_555 1_555
H12D C8D 1_555 1_555
F1A P1 1_555 1_555
F2A P1 1_555 1_555
F3A P1 1_555 1_555
C4 C5 1_555 1_555
N1D C2D 1_555 1_555
C3A C4A 1_555 1_555
C4A C5A 1_555 1_555

#END
