
#######################################################################
#
#                 Cambridge Crystallographic Data Centre
#                                CCDC 
#
#######################################################################
#
# If this CIF has been generated from an entry in the Cambridge 
# Structural Database, then it will include bibliographic, chemical, 
# crystal, experimental, refinement or atomic coordinate data resulting 
# from the CCDC's data processing and validation procedures.
#
#######################################################################

data_AYECUD
_symmetry_cell_setting           monoclinic
_symmetry_space_group_name_H-M   'P 21/n'
_symmetry_Int_Tables_number      14
_space_group_name_Hall           '-P 2yn'
loop_
_symmetry_equiv_pos_site_id
_symmetry_equiv_pos_as_xyz
1 x,y,z
2 1/2-x,1/2+y,1/2-z
3 -x,-y,-z
4 1/2+x,1/2-y,1/2+z
_cell_length_a                   9.3017(8)
_cell_length_b                   12.4273(13)
_cell_length_c                   16.0505(15)
_cell_angle_alpha                90
_cell_angle_beta                 91.688(6)
_cell_angle_gamma                90
_cell_volume                     1854.55
loop_
_atom_site_label
_atom_site_type_symbol
_atom_site_fract_x
_atom_site_fract_y
_atom_site_fract_z
Cu1 Cu 0.33474(3) 0.42493(2) 0.074943(17)
Cu2 Cu 0.83502(3) 0.52533(3) 0.10848(2)
N1 N 0.5166(2) 0.49805(16) 0.10149(11)
N2 N 0.0316(2) 0.50576(19) 0.10622(14)
P1 P 0.38039(6) 0.25044(4) 0.04376(3)
C1 C 0.5692(2) 0.21204(17) 0.05600(13)
C2 C 0.8614(3) 0.1711(2) 0.07706(18)
H1 H 0.9593 0.1571 0.0838
C3 C 0.6170(2) 0.1285(2) 0.10737(15)
H2 H 0.5512 0.0857 0.1347
C4 C 0.6695(2) 0.2747(2) 0.01589(14)
H3 H 0.6387 0.3312 -0.0182
C5 C 0.8147(3) 0.2537(2) 0.02640(17)
H4 H 0.8811 0.2958 -0.0010
C6 C 0.7638(3) 0.1092(2) 0.11767(17)
H5 H 0.7959 0.0537 0.1524
C7 C 0.2841(2) 0.15443(18) 0.10702(13)
C8 C 0.1825(3) -0.0200(2) 0.13129(17)
H6 H 0.1639 -0.0899 0.1132
C9 C 0.1643(3) 0.1159(2) 0.23440(14)
H7 H 0.1340 0.1381 0.2864
C10 C 0.2373(3) 0.1868(2) 0.18405(14)
H8 H 0.2549 0.2568 0.2022
C11 C 0.1371(3) 0.0132(2) 0.20745(15)
H9 H 0.0876 -0.0342 0.2410
C12 C 0.2562(3) 0.0506(2) 0.08117(15)
H10 H 0.2872 0.0276 0.0296
C13 C 0.3274(2) 0.21430(17) -0.06314(13)
C14 C 0.1859(3) 0.2350(2) -0.08799(16)
H11 H 0.1218 0.2602 -0.0491
C15 C 0.1387(3) 0.2189(2) -0.16893(19)
H12 H 0.0433 0.2324 -0.1845
C16 C 0.2332(4) 0.1828(2) -0.22655(18)
H13 H 0.2024 0.1738 -0.2818
C17 C 0.3732(4) 0.1598(3) -0.20319(16)
H14 H 0.4361 0.1332 -0.2422
C18 C 0.4211(3) 0.1763(2) -0.12119(14)
H15 H 0.5162 0.1616 -0.1056
C19 C 0.6367(2) 0.51618(19) 0.10742(14)
C20 C 0.1477(2) 0.47983(19) 0.09471(14)
Cu2_2 Cu -0.16498(3) 0.52533(3) 0.10848(2)
N2_2 N 1.0316(2) 0.50576(19) 0.10622(14)
loop_
_geom_bond_atom_site_label_1
_geom_bond_atom_site_label_2
_geom_bond_site_symmetry_1
_geom_bond_site_symmetry_2
Cu1 N1 1_555 1_555
Cu2 C19 1_555 1_555
N1 C19 1_555 1_555
N2 C20 1_555 1_555
P1 Cu1 1_555 1_555
C1 P1 1_555 1_555
C2 H1 1_555 1_555
C3 C1 1_555 1_555
H2 C3 1_555 1_555
C4 C1 1_555 1_555
H3 C4 1_555 1_555
C5 C2 1_555 1_555
H4 C5 1_555 1_555
C6 C2 1_555 1_555
H5 C6 1_555 1_555
C7 P1 1_555 1_555
C8 H6 1_555 1_555
C9 H7 1_555 1_555
C10 C7 1_555 1_555
H8 C10 1_555 1_555
C11 C8 1_555 1_555
H9 C11 1_555 1_555
C12 C7 1_555 1_555
H10 C12 1_555 1_555
C13 P1 1_555 1_555
C14 C13 1_555 1_555
H11 C14 1_555 1_555
C15 C14 1_555 1_555
H12 C15 1_555 1_555
C16 C15 1_555 1_555
H13 C16 1_555 1_555
C17 C16 1_555 1_555
H14 C17 1_555 1_555
C18 C13 1_555 1_555
H15 C18 1_555 1_555
C20 Cu1 1_555 1_555
Cu2_2 N2 1_555 1_555
N2_2 Cu2 1_555 1_555
C3 C6 1_555 1_555
C4 C5 1_555 1_555
C8 C12 1_555 1_555
C9 C10 1_555 1_555
C9 C11 1_555 1_555
C17 C18 1_555 1_555

#END
