
#######################################################################
#
#                 Cambridge Crystallographic Data Centre
#                                CCDC 
#
#######################################################################
#
# If this CIF has been generated from an entry in the Cambridge 
# Structural Database, then it will include bibliographic, chemical, 
# crystal, experimental, refinement or atomic coordinate data resulting 
# from the CCDC's data processing and validation procedures.
#
#######################################################################

data_AYECOX
_symmetry_cell_setting           monoclinic
_symmetry_space_group_name_H-M   'P 21/n'
_symmetry_Int_Tables_number      14
_space_group_name_Hall           '-P 2yn'
loop_
_symmetry_equiv_pos_site_id
_symmetry_equiv_pos_as_xyz
1 x,y,z
2 1/2-x,1/2+y,1/2-z
3 -x,-y,-z
4 1/2+x,1/2-y,1/2+z
_cell_length_a                   7.6778(6)
_cell_length_b                   18.2237(8)
_cell_length_c                   8.7655(5)
_cell_angle_alpha                90
_cell_angle_beta                 113.453(2)
_cell_angle_gamma                90
_cell_volume                     1125.13
loop_
_atom_site_label
_atom_site_type_symbol
_atom_site_fract_x
_atom_site_fract_y
_atom_site_fract_z
Cd1 Cd 1.0000 0.5000 1.0000
Br1 Br 0.80040(9) 0.46300(4) 1.18845(8)
N1 N 0.7555(6) 0.4507(2) 0.7620(5)
N2 N 0.5849(8) 0.4109(3) 0.5063(6)
N3 N 0.4862(7) 0.4034(3) 0.6026(5)
N4 N -0.1339(8) 0.1985(3) 0.6565(6)
N5 N -0.2929(9) 0.2309(3) 0.6545(8)
N6 N -0.3474(7) 0.1143(2) 0.5679(6)
C1 C 0.5871(8) 0.4277(4) 0.7523(7)
C2 C 0.7431(8) 0.4394(3) 0.6040(7)
C3 C 0.2992(9) 0.3693(4) 0.5371(8)
C4 C 0.2593(8) 0.3272(3) 0.6609(7)
C5 C 0.0783(8) 0.2832(3) 0.5881(7)
C6 C 0.053(1) 0.2352(5) 0.7189(9)
C7 C -0.1650(8) 0.1283(3) 0.6093(7)
C8 C -0.4170(9) 0.1779(3) 0.5983(9)
H1 H 0.5453 0.4285 0.8444
H2 H 0.8472 0.4513 0.5704
H3 H 0.2053 0.4081 0.4969
H4 H 0.2883 0.3371 0.4456
H5 H 0.2514 0.3605 0.7442
H6 H 0.3638 0.2934 0.7128
H7 H -0.0280 0.3168 0.5432
H8 H 0.0819 0.2520 0.4998
H9 H 0.1548 0.1996 0.7575
H10 H 0.0600 0.2666 0.8107
H11 H -0.0706 0.0933 0.6041
H12 H -0.5507 0.1839 0.5800
Cd1A Cd -0.5000 0.0000 0.5000
Cd1A_2 Cd 2.5000 1.0000 1.5000
Br1B Br 1.19960(9) 0.53700(4) 0.81155(8)
N1B N 1.2445(6) 0.5493(2) 1.2380(5)
N2B N 1.4151(8) 0.5891(3) 1.4937(6)
N3B N 1.5138(7) 0.5966(3) 1.3974(5)
N4B N 2.1339(8) 0.8015(3) 1.3435(6)
N5B N 2.2929(9) 0.7691(3) 1.3455(8)
N6B N 2.3474(7) 0.8857(2) 1.4321(6)
N6A N 0.8474(7) 0.6143(2) 0.9321(6)
N6C N 1.1526(7) 0.3857(2) 1.0679(6)
C1B C 1.4129(8) 0.5723(4) 1.2477(7)
C2B C 1.2569(8) 0.5606(3) 1.3960(7)
C3B C 1.7008(9) 0.6307(4) 1.4629(8)
C4B C 1.7407(8) 0.6728(3) 1.3391(7)
C5B C 1.9217(8) 0.7168(3) 1.4119(7)
C6B C 1.947(1) 0.7648(5) 1.2811(9)
C7B C 2.1650(8) 0.8717(3) 1.3907(7)
C8B C 2.4170(9) 0.8221(3) 1.4017(9)
H1B H 1.4547 0.5715 1.1556
H2B H 1.1528 0.5487 1.4296
H3B H 1.7947 0.5919 1.5031
H4B H 1.7117 0.6629 1.5544
H5B H 1.7486 0.6395 1.2558
H6B H 1.6362 0.7066 1.2872
H7B H 2.0280 0.6832 1.4568
H8B H 1.9181 0.7480 1.5002
H9B H 1.8452 0.8004 1.2425
H10B H 1.9400 0.7334 1.1893
H11B H 2.0706 0.9067 1.3959
H12B H 2.5507 0.8161 1.4200
loop_
_geom_bond_atom_site_label_1
_geom_bond_atom_site_label_2
_geom_bond_site_symmetry_1
_geom_bond_site_symmetry_2
Cd1 Br1 1_555 1_555
N1 Cd1 1_555 1_555
N2 N3 1_555 1_555
N3 C1 1_555 1_555
N4 N5 1_555 1_555
N5 C8 1_555 1_555
N6 C7 1_555 1_555
C1 N1 1_555 1_555
C2 N1 1_555 1_555
C3 N3 1_555 1_555
C4 C3 1_555 1_555
C5 C4 1_555 1_555
C6 N4 1_555 1_555
C7 N4 1_555 1_555
C8 N6 1_555 1_555
H1 C1 1_555 1_555
H2 C2 1_555 1_555
H3 C3 1_555 1_555
H4 C3 1_555 1_555
H5 C4 1_555 1_555
H6 C4 1_555 1_555
H7 C5 1_555 1_555
H8 C5 1_555 1_555
H9 C6 1_555 1_555
H10 C6 1_555 1_555
H11 C7 1_555 1_555
H12 C8 1_555 1_555
Cd1A N6 1_555 1_555
Cd1A_2 N6B 1_555 1_555
Br1B Cd1 1_555 1_555
N1B Cd1 1_555 1_555
N2B N3B 1_555 1_555
N3B C1B 1_555 1_555
N4B N5B 1_555 1_555
N5B C8B 1_555 1_555
N6B C7B 1_555 1_555
N6A Cd1 1_555 1_555
N6C Cd1 1_555 1_555
C1B N1B 1_555 1_555
C2B N1B 1_555 1_555
C3B N3B 1_555 1_555
C4B C3B 1_555 1_555
C5B C4B 1_555 1_555
C6B N4B 1_555 1_555
C7B N4B 1_555 1_555
C8B N6B 1_555 1_555
H1B C1B 1_555 1_555
H2B C2B 1_555 1_555
H3B C3B 1_555 1_555
H4B C3B 1_555 1_555
H5B C4B 1_555 1_555
H6B C4B 1_555 1_555
H7B C5B 1_555 1_555
H8B C5B 1_555 1_555
H9B C6B 1_555 1_555
H10B C6B 1_555 1_555
H11B C7B 1_555 1_555
H12B C8B 1_555 1_555
N2 C2 1_555 1_555
C5 C6 1_555 1_555
N2B C2B 1_555 1_555
C5B C6B 1_555 1_555

#END
