
#######################################################################
#
#                 Cambridge Crystallographic Data Centre
#                                CCDC 
#
#######################################################################
#
# If this CIF has been generated from an entry in the Cambridge 
# Structural Database, then it will include bibliographic, chemical, 
# crystal, experimental, refinement or atomic coordinate data resulting 
# from the CCDC's data processing and validation procedures.
#
#######################################################################

data_AYECIR
_symmetry_cell_setting           triclinic
_symmetry_space_group_name_H-M   'P -1'
_symmetry_Int_Tables_number      2
_space_group_name_Hall           '-P 1'
loop_
_symmetry_equiv_pos_site_id
_symmetry_equiv_pos_as_xyz
1 x,y,z
2 -x,-y,-z
_cell_length_a                   8.6286(10)
_cell_length_b                   9.8017(18)
_cell_length_c                   10.227(2)
_cell_angle_alpha                79.200(16)
_cell_angle_beta                 76.079(13)
_cell_angle_gamma                71.444(11)
_cell_volume                     790.105
loop_
_atom_site_label
_atom_site_type_symbol
_atom_site_fract_x
_atom_site_fract_y
_atom_site_fract_z
In1 In 0.388224(19) 1.455326(17) 1.154252(15)
C1 C 0.7422(5) 0.9876(3) 1.4539(3)
H1 H 0.7514 0.9329 1.3857
C2 C 0.6553(3) 1.1339(3) 1.4386(3)
C3 C 0.6456(3) 1.2154(3) 1.5387(2)
H2 H 0.5892 1.3139 1.5318
C4 C 0.7202(3) 1.1499(3) 1.6490(2)
C5 C 0.8027(5) 1.0023(3) 1.6543(3)
H3 H 0.8536 0.9579 1.7280
C6 C 0.5766(3) 1.2008(3) 1.3171(3)
C7 C 0.7121(3) 1.2361(3) 1.7589(2)
C8 C 0.3906(3) 1.2058(3) 0.9917(3)
H4 H 0.5054 1.1887 0.9779
C9 C 0.3279(4) 1.1304(3) 0.9261(3)
H5 H 0.3994 1.0644 0.8681
C10 C 0.1589(4) 1.1539(3) 0.9474(3)
H6 H 0.1141 1.1046 0.9038
C11 C 0.0562(4) 1.2524(3) 1.0350(3)
H7 H -0.0588 1.2691 1.0518
C12 C 0.1259(3) 1.3259(3) 1.0974(3)
C13 C 0.0246(3) 1.4289(3) 1.1961(3)
C14 C -0.1464(4) 1.4528(4) 1.2358(3)
H8 H -0.2016 1.4077 1.1976
C15 C -0.2334(4) 1.5446(4) 1.3329(4)
H9 H -0.3480 1.5615 1.3611
C16 C -0.1494(4) 1.6110(3) 1.3879(3)
H10 H -0.2054 1.6714 1.4549
C17 C 0.0210(4) 1.5853(3) 1.3406(3)
H11 H 0.0780 1.6314 1.3759
N1 N 0.8132(5) 0.9205(3) 1.5599(3)
N2 N 0.2911(3) 1.3032(2) 1.0748(2)
N3 N 0.1066(3) 1.4969(2) 1.2464(2)
O1 O 0.6158(4) 1.1370(2) 1.2169(2)
O2 O 0.4736(2) 1.3278(2) 1.32806(18)
O3 O 0.6204(2) 1.36858(19) 1.74421(19)
O4 O 0.7882(3) 1.1795(2) 1.8514(2)
O5 O 0.3640(2) 1.59598(19) 0.96818(17)
H12 H 0.3176 1.6829 0.9855
In1A In 0.611776(19) 1.544674(17) 1.845748(15)
In1A_2 In 0.611776(19) 1.544674(17) 0.845748(15)
O3A O 0.3796(2) 1.63142(19) 1.25579(19)
O5A O 0.6360(2) 1.40402(19) 1.03182(17)
H12A H 0.6824 1.3171 1.0145
loop_
_geom_bond_atom_site_label_1
_geom_bond_atom_site_label_2
_geom_bond_site_symmetry_1
_geom_bond_site_symmetry_2
In1 N2 1_555 1_555
C1 H1 1_555 1_555
C2 C1 1_555 1_555
C3 C2 1_555 1_555
H2 C3 1_555 1_555
C4 C3 1_555 1_555
C5 C4 1_555 1_555
H3 C5 1_555 1_555
C6 C2 1_555 1_555
C7 C4 1_555 1_555
C8 H4 1_555 1_555
C9 C8 1_555 1_555
H5 C9 1_555 1_555
C10 C9 1_555 1_555
H6 C10 1_555 1_555
C11 C10 1_555 1_555
H7 C11 1_555 1_555
C12 C11 1_555 1_555
C13 C12 1_555 1_555
C14 C13 1_555 1_555
H8 C14 1_555 1_555
C15 C14 1_555 1_555
H9 C15 1_555 1_555
C16 C15 1_555 1_555
H10 C16 1_555 1_555
C17 C16 1_555 1_555
H11 C17 1_555 1_555
N1 C1 1_555 1_555
N2 C8 1_555 1_555
N3 In1 1_555 1_555
O1 C6 1_555 1_555
O2 In1 1_555 1_555
O3 C7 1_555 1_555
O4 C7 1_555 1_555
O5 In1 1_555 1_555
H12 O5 1_555 1_555
In1A O3 1_555 1_555
In1A_2 O5 1_555 1_555
O3A In1 1_555 1_555
O5A In1 1_555 1_555
H12A O5A 1_555 1_555
C5 N1 1_555 1_555
C6 O2 1_555 1_555
C12 N2 1_555 1_555
C13 N3 1_555 1_555
C17 N3 1_555 1_555
In1A_2 O5A 1_555 1_555

#END
