
#######################################################################
#
#                 Cambridge Crystallographic Data Centre
#                                CCDC 
#
#######################################################################
#
# If this CIF has been generated from an entry in the Cambridge 
# Structural Database, then it will include bibliographic, chemical, 
# crystal, experimental, refinement or atomic coordinate data resulting 
# from the CCDC's data processing and validation procedures.
#
#######################################################################

data_AYEDUE
_symmetry_cell_setting           monoclinic
_symmetry_space_group_name_H-M   'P n'
_symmetry_Int_Tables_number      7
_space_group_name_Hall           'P -2yac'
loop_
_symmetry_equiv_pos_site_id
_symmetry_equiv_pos_as_xyz
1 x,y,z
2 1/2+x,-y,1/2+z
_cell_length_a                   19.637(4)
_cell_length_b                   12.787(3)
_cell_length_c                   19.672(4)
_cell_angle_alpha                90
_cell_angle_beta                 90.008(4)
_cell_angle_gamma                90
_cell_volume                     4939.61
loop_
_atom_site_label
_atom_site_type_symbol
_atom_site_fract_x
_atom_site_fract_y
_atom_site_fract_z
Np1 Np 0.6942(4) 0.87730(9) 0.6266(4)
O1 O 0.6839(10) 0.7391(9) 0.6210(11)
O2 O 0.6808(14) 1.0186(13) 0.6194(15)
O3 O 0.7571(15) 0.878(2) 0.7225(14)
O4 O 0.7910(12) 0.8704(17) 0.5563(13)
O5 O 1.1052(17) 0.112(2) 0.1881(18)
O6 O 1.122(2) 0.129(3) 1.0347(19)
P1 P 0.8154(9) 0.8374(15) 0.7626(9)
C1 C 0.7908(12) 0.8054(18) 0.8534(11)
C2 C 0.7434(12) 0.8764(15) 0.8785(13)
H1 H 0.7318 0.9351 0.8531
C3 C 0.7135(12) 0.8597(18) 0.9416(13)
H2 H 0.6818 0.9072 0.9584
C4 C 0.7309(15) 0.772(2) 0.9796(11)
H3 H 0.7108 0.7608 1.0218
C5 C 0.7782(15) 0.7010(17) 0.9545(14)
H4 H 0.7898 0.6424 0.9799
C6 C 0.8081(13) 0.7177(16) 0.8914(14)
H5 H 0.8398 0.6702 0.8746
C7 C 0.8441(16) 0.6994(17) 0.7321(17)
C8 C 0.9080(14) 0.6730(19) 0.7069(17)
H6 H 0.9432 0.7216 0.7080
C9 C 0.9192(12) 0.574(2) 0.6801(15)
H7 H 0.9619 0.5562 0.6632
C10 C 0.8665(15) 0.5012(17) 0.6785(15)
H8 H 0.8741 0.4349 0.6605
C11 C 0.8027(13) 0.528(2) 0.7037(16)
H9 H 0.7675 0.4790 0.7026
C12 C 0.7915(13) 0.627(2) 0.7305(16)
H10 H 0.7488 0.6444 0.7474
C13 C 0.8746(14) 0.9484(18) 0.7537(14)
C14 C 0.8627(13) 1.023(2) 0.7040(14)
H11 H 0.8211 1.0251 0.6814
C15 C 0.9130(18) 1.0959(19) 0.6880(12)
H12 H 0.9050 1.1461 0.6548
C16 C 0.9751(15) 1.0934(19) 0.7218(16)
H13 H 1.0088 1.1419 0.7111
C17 C 0.9871(13) 1.018(2) 0.7715(15)
H14 H 1.0287 1.0167 0.7941
C18 C 0.9368(16) 0.9459(16) 0.7875(12)
P2 P 0.8318(7) 0.8350(14) 0.5036(7)
C19 C 0.9159(12) 0.8373(18) 0.5360(13)
C20 C 0.9416(14) 0.9120(16) 0.5805(14)
H15 H 0.9148 0.9686 0.5933
C21 C 1.0073(15) 0.902(2) 0.6059(14)
H16 H 1.0245 0.9520 0.6356
C22 C 1.0474(13) 0.817(3) 0.5868(18)
H17 H 1.0913 0.8106 0.6038
C23 C 1.0217(16) 0.743(2) 0.5423(19)
H18 H 1.0484 0.6859 0.5296
C24 C 0.9559(17) 0.7526(17) 0.5170(14)
H19 H 0.9387 0.7026 0.4872
C25 C 0.8042(15) 0.7133(18) 0.4817(15)
C26 C 0.7991(16) 0.629(2) 0.5260(13)
H20 H 0.8162 0.6344 0.5699
C27 C 0.7684(18) 0.537(2) 0.5047(16)
H21 H 0.7650 0.4803 0.5343
C28 C 0.7428(17) 0.5288(17) 0.4390(17)
H22 H 0.7222 0.4670 0.4247
C29 C 0.7478(15) 0.613(2) 0.3947(13)
H23 H 0.7307 0.6078 0.3507
C30 C 0.7785(15) 0.7054(17) 0.4160(14)
H24 H 0.7819 0.7618 0.3864
C31 C 0.8354(14) 0.9208(17) 0.4317(13)
C32 C 0.8045(14) 1.018(2) 0.4406(12)
H25 H 0.7864 1.0357 0.4826
C33 C 0.8005(15) 1.0874(14) 0.3865(16)
H26 H 0.7798 1.1521 0.3924
C34 C 0.8275(17) 1.060(2) 0.3236(13)
H27 H 0.8249 1.1070 0.2875
C35 C 0.8585(15) 0.964(2) 0.3148(12)
H28 H 0.8766 0.9455 0.2727
C36 C 0.8625(13) 0.8938(17) 0.3688(16)
P3 P 1.0563(10) 0.1661(15) 0.2499(10)
C37 C 0.9708(12) 0.204(2) 0.2226(14)
C38 C 0.9422(15) 0.1324(17) 0.1781(14)
H29 H 0.9668 0.0737 0.1650
C39 C 0.8767(15) 0.148(2) 0.1533(14)
H30 H 0.8575 0.0999 0.1235
C40 C 0.8399(12) 0.236(2) 0.1729(16)
H31 H 0.7961 0.2464 0.1562
C41 C 0.8685(15) 0.3080(18) 0.2174(15)
H32 H 0.8439 0.3667 0.2305
C42 C 0.9340(15) 0.2923(18) 0.2423(13)
H33 H 0.9531 0.3405 0.2720
C43 C 1.092(2) 0.299(2) 0.278(2)
C44 C 1.118(2) 0.324(2) 0.3416(18)
H34 H 1.1172 0.2746 0.3765
C45 C 1.1459(18) 0.422(2) 0.3530(14)
H35 H 1.1635 0.4389 0.3956
C46 C 1.1473(16) 0.4955(18) 0.3009(16)
H36 H 1.1659 0.5614 0.3086
C47 C 1.1210(16) 0.470(2) 0.2374(14)
H37 H 1.1219 0.5196 0.2025
C48 C 1.0932(18) 0.372(3) 0.2260(16)
H38 H 1.0756 0.3553 0.1835
C49 C 1.0840(12) 0.0471(17) 0.3062(12)
C50 C 1.1353(11) -0.0278(19) 0.3048(13)
H39 H 1.1663 -0.0290 0.2691
C51 C 1.1401(11) -0.1010(16) 0.3568(15)
H40 H 1.1744 -0.1512 0.3559
C52 C 1.0938(14) -0.0993(18) 0.4102(13)
H41 H 1.0970 -0.1482 0.4450
C53 C 1.0425(13) -0.024(2) 0.4115(12)
H42 H 1.0115 -0.0232 0.4473
C54 C 1.0376(11) 0.0489(17) 0.3595(13)
P4 P 1.0706(9) 0.1693(15) 0.9885(9)
C55 C 1.104(2) 0.158(3) 0.9055(17)
C56 C 1.0847(17) 0.245(2) 0.868(2)
H43 H 1.0564 0.2949 0.8867
C57 C 1.1076(19) 0.256(2) 0.8012(19)
H44 H 1.0947 0.3142 0.7759
C58 C 1.150(2) 0.181(3) 0.7726(16)
H45 H 1.1653 0.1886 0.7282
C59 C 1.1694(18) 0.094(2) 0.810(2)
H46 H 1.1977 0.0437 0.7914
C60 C 1.146(2) 0.083(2) 0.877(2)
H47 H 1.1594 0.0244 0.9022
C61 C 1.0471(13) 0.2845(17) 1.0195(14)
C62 C 1.0890(11) 0.372(2) 1.0231(17)
H48 H 1.1330 0.3692 1.0059
C63 C 1.0649(14) 0.4637(18) 1.0525(17)
H49 H 1.0929 0.5222 1.0550
C64 C 0.9991(15) 0.4678(15) 1.0782(15)
H50 H 0.9830 0.5292 1.0979
C65 C 0.9572(11) 0.3803(18) 1.0746(13)
H51 H 0.9132 0.3831 1.0918
C66 C 0.9813(12) 0.2886(14) 1.0452(13)
H52 H 0.9533 0.2301 1.0427
C67 C 0.9899(13) 0.0965(18) 0.9908(15)
C68 C 0.9997(13) 0.001(2) 1.0226(14)
H53 H 1.0393 -0.0117 1.0473
C69 C 0.9503(16) -0.0768(15) 1.0176(15)
H54 H 0.9568 -0.1409 1.0389
C70 C 0.8911(14) -0.0583(17) 0.9807(15)
H55 H 0.8580 -0.1101 0.9774
C71 C 0.8813(13) 0.038(2) 0.9489(13)
H56 H 0.8417 0.0499 0.9242
C72 C 0.9307(15) 0.1150(17) 0.9539(14)
O7 O 0.9449 0.8616 0.8246
O8 O 0.9024 0.8170 0.3725
O9 O 0.9938 0.1310 0.3689
O10 O 0.9488 0.1911 0.9156
O11 O 0.9982 0.6625 0.8651
O12 O 0.9350 0.6277 0.3394
O13 O 0.9037 0.3594 0.3935
O14 O 0.9291 0.4116 0.8827
C73 C 1.0090 0.8503 0.8609
H57 H 1.0460 0.8610 0.8290
H58 H 1.0118 0.9051 0.8949
C74 C 0.9491 0.8109 0.3133
H59 H 0.9816 0.8679 0.3143
H60 H 0.9236 0.8147 0.2711
C75 C 0.9755 0.2305 0.3627
H61 H 1.0158 0.2744 0.3622
H62 H 0.9517 0.2403 0.3200
C76 C 0.8991 0.2325 0.8704
H63 H 0.8899 0.1804 0.8357
H64 H 0.8573 0.2431 0.8957
C77 C 1.0185 0.7565 0.8923
H65 H 0.9966 0.7619 0.9364
H66 H 1.0670 0.7505 0.9009
C78 C 0.9867 0.7029 0.3193
H67 H 1.0067 0.6833 0.2760
H68 H 1.0226 0.7065 0.3531
C79 C 0.9306 0.2622 0.4201
H69 H 0.9562 0.2731 0.4616
H70 H 0.8948 0.2114 0.4281
C80 C 0.9167 0.3331 0.8355
H71 H 0.8794 0.3538 0.8060
H72 H 0.9568 0.3230 0.8074
C81 C 0.9668 0.5888 0.9121
H73 H 1.0042 0.5560 0.9362
H74 H 0.9430 0.6314 0.9453
C82 C 0.9625 0.5476 0.3875
H75 H 1.0107 0.5425 0.3775
H76 H 0.9591 0.5786 0.4323
C83 C 0.9401 0.4467 0.3947
H77 H 0.9501 0.4429 0.4429
H78 H 0.9801 0.4156 0.3739
C84 C 0.9229 0.5093 0.8960
H79 H 0.8984 0.5363 0.8569
H80 H 0.8902 0.5105 0.9330
Np1A Np 1.1942(4) 0.12270(9) 0.1266(4)
Np1A_2 Np 1.1942(4) 0.12270(9) 1.1266(4)
O5A O 0.6052(17) 0.888(2) 0.6881(18)
O6A O 0.622(2) 0.871(3) 0.5347(19)
O15 O 0.6781(17) 0.240(2) 0.4712(16)
O16 O 0.714(3) 0.339(4) 0.998(3)
O17 O 1.204(3) 1.009(3) 0.630(3)
O18 O 0.847(2) 1.236(3) 0.611(2)
loop_
_geom_bond_atom_site_label_1
_geom_bond_atom_site_label_2
_geom_bond_site_symmetry_1
_geom_bond_site_symmetry_2
Np1 O1 1_555 1_555
O2 Np1 1_555 1_555
O3 Np1 1_555 1_555
O4 Np1 1_555 1_555
O5 P3 1_555 1_555
O6 P4 1_555 1_555
P1 O3 1_555 1_555
C1 P1 1_555 1_555
C2 C1 1_555 1_555
H1 C2 1_555 1_555
C3 C2 1_555 1_555
H2 C3 1_555 1_555
C4 C3 1_555 1_555
H3 C4 1_555 1_555
C5 C4 1_555 1_555
H4 C5 1_555 1_555
C6 C1 1_555 1_555
H5 C6 1_555 1_555
C7 P1 1_555 1_555
C8 C7 1_555 1_555
H6 C8 1_555 1_555
C9 C8 1_555 1_555
H7 C9 1_555 1_555
C10 C9 1_555 1_555
H8 C10 1_555 1_555
C11 C10 1_555 1_555
H9 C11 1_555 1_555
C12 C7 1_555 1_555
H10 C12 1_555 1_555
C13 P1 1_555 1_555
C14 C13 1_555 1_555
H11 C14 1_555 1_555
C15 C14 1_555 1_555
H12 C15 1_555 1_555
C16 C15 1_555 1_555
H13 C16 1_555 1_555
C17 C16 1_555 1_555
H14 C17 1_555 1_555
C18 C13 1_555 1_555
P2 O4 1_555 1_555
C19 P2 1_555 1_555
C20 C19 1_555 1_555
H15 C20 1_555 1_555
C21 C20 1_555 1_555
H16 C21 1_555 1_555
C22 C21 1_555 1_555
H17 C22 1_555 1_555
C23 C22 1_555 1_555
H18 C23 1_555 1_555
C24 C19 1_555 1_555
H19 C24 1_555 1_555
C25 P2 1_555 1_555
C26 C25 1_555 1_555
H20 C26 1_555 1_555
C27 C26 1_555 1_555
H21 C27 1_555 1_555
C28 C27 1_555 1_555
H22 C28 1_555 1_555
C29 C28 1_555 1_555
H23 C29 1_555 1_555
C30 C25 1_555 1_555
H24 C30 1_555 1_555
C31 P2 1_555 1_555
C32 C31 1_555 1_555
H25 C32 1_555 1_555
C33 C32 1_555 1_555
H26 C33 1_555 1_555
C34 C33 1_555 1_555
H27 C34 1_555 1_555
C35 C34 1_555 1_555
H28 C35 1_555 1_555
C36 C31 1_555 1_555
P3 C37 1_555 1_555
C37 C38 1_555 1_555
C38 H29 1_555 1_555
C39 C38 1_555 1_555
H30 C39 1_555 1_555
C40 C39 1_555 1_555
H31 C40 1_555 1_555
C41 C40 1_555 1_555
H32 C41 1_555 1_555
C42 C37 1_555 1_555
H33 C42 1_555 1_555
C43 P3 1_555 1_555
C44 C43 1_555 1_555
H34 C44 1_555 1_555
C45 C44 1_555 1_555
H35 C45 1_555 1_555
C46 C45 1_555 1_555
H36 C46 1_555 1_555
C47 C46 1_555 1_555
H37 C47 1_555 1_555
C48 C43 1_555 1_555
H38 C48 1_555 1_555
C49 P3 1_555 1_555
C50 C49 1_555 1_555
H39 C50 1_555 1_555
C51 C50 1_555 1_555
H40 C51 1_555 1_555
C52 C51 1_555 1_555
H41 C52 1_555 1_555
C53 C52 1_555 1_555
H42 C53 1_555 1_555
C54 C49 1_555 1_555
P4 C55 1_555 1_555
C55 C56 1_555 1_555
C56 H43 1_555 1_555
C57 C56 1_555 1_555
H44 C57 1_555 1_555
C58 C57 1_555 1_555
H45 C58 1_555 1_555
C59 C58 1_555 1_555
H46 C59 1_555 1_555
C60 C55 1_555 1_555
H47 C60 1_555 1_555
C61 P4 1_555 1_555
C62 C61 1_555 1_555
H48 C62 1_555 1_555
C63 C62 1_555 1_555
H49 C63 1_555 1_555
C64 C63 1_555 1_555
H50 C64 1_555 1_555
C65 C64 1_555 1_555
H51 C65 1_555 1_555
C66 C61 1_555 1_555
H52 C66 1_555 1_555
C67 P4 1_555 1_555
C68 C67 1_555 1_555
H53 C68 1_555 1_555
C69 C68 1_555 1_555
H54 C69 1_555 1_555
C70 C69 1_555 1_555
H55 C70 1_555 1_555
C71 C70 1_555 1_555
H56 C71 1_555 1_555
C72 C67 1_555 1_555
O7 C18 1_555 1_555
O8 C36 1_555 1_555
O9 C54 1_555 1_555
O10 C72 1_555 1_555
O11 C77 1_555 1_555
O12 C78 1_555 1_555
O13 C79 1_555 1_555
O14 C80 1_555 1_555
C73 O7 1_555 1_555
H57 C73 1_555 1_555
H58 C73 1_555 1_555
C74 O8 1_555 1_555
H59 C74 1_555 1_555
H60 C74 1_555 1_555
C75 O9 1_555 1_555
H61 C75 1_555 1_555
H62 C75 1_555 1_555
C76 O10 1_555 1_555
H63 C76 1_555 1_555
H64 C76 1_555 1_555
C77 C73 1_555 1_555
H65 C77 1_555 1_555
H66 C77 1_555 1_555
C78 C74 1_555 1_555
H67 C78 1_555 1_555
H68 C78 1_555 1_555
C79 C75 1_555 1_555
H69 C79 1_555 1_555
H70 C79 1_555 1_555
C80 C76 1_555 1_555
H71 C80 1_555 1_555
H72 C80 1_555 1_555
C81 O11 1_555 1_555
H73 C81 1_555 1_555
H74 C81 1_555 1_555
C82 O12 1_555 1_555
H75 C82 1_555 1_555
H76 C82 1_555 1_555
C83 O13 1_555 1_555
H77 C83 1_555 1_555
H78 C83 1_555 1_555
C84 O14 1_555 1_555
H79 C84 1_555 1_555
H80 C84 1_555 1_555
Np1A O5 1_555 1_555
Np1A_2 O6 1_555 1_555
O5A Np1 1_555 1_555
O6A Np1 1_555 1_555
C5 C6 1_555 1_555
C11 C12 1_555 1_555
C17 C18 1_555 1_555
C23 C24 1_555 1_555
C29 C30 1_555 1_555
C35 C36 1_555 1_555
C41 C42 1_555 1_555
C47 C48 1_555 1_555
C53 C54 1_555 1_555
C59 C60 1_555 1_555
C65 C66 1_555 1_555
C71 C72 1_555 1_555
C81 C84 1_555 1_555
C82 C83 1_555 1_555

#END
