
#######################################################################
#
#                 Cambridge Crystallographic Data Centre
#                                CCDC 
#
#######################################################################
#
# If this CIF has been generated from an entry in the Cambridge 
# Structural Database, then it will include bibliographic, chemical, 
# crystal, experimental, refinement or atomic coordinate data resulting 
# from the CCDC's data processing and validation procedures.
#
#######################################################################

data_AYEDIS
_symmetry_cell_setting           monoclinic
_symmetry_space_group_name_H-M   'P 21/n'
_symmetry_Int_Tables_number      14
_space_group_name_Hall           '-P 2yn'
loop_
_symmetry_equiv_pos_site_id
_symmetry_equiv_pos_as_xyz
1 x,y,z
2 1/2-x,1/2+y,1/2-z
3 -x,-y,-z
4 1/2+x,1/2-y,1/2+z
_cell_length_a                   13.318(3)
_cell_length_b                   25.777(5)
_cell_length_c                   14.901(3)
_cell_angle_alpha                90
_cell_angle_beta                 112.50(3)
_cell_angle_gamma                90
_cell_volume                     4726.09
loop_
_atom_site_label
_atom_site_type_symbol
_atom_site_fract_x
_atom_site_fract_y
_atom_site_fract_z
Np1 Np 0.41711(2) 0.906646(10) 0.023809(19)
P1 P 0.72362(14) 0.90117(8) 0.18472(13)
P2 P 1.32936(15) 0.86693(8) 0.22638(14)
O1 O 0.4063(4) 0.97478(18) 0.0519(4)
O2 O 0.4278(4) 0.8398(2) -0.0060(4)
O3 O 0.6075(4) 0.9083(2) 0.1215(4)
O4 O 1.3980(4) 0.8831(2) 0.1727(4)
O5 O 0.2097(5) 0.8971(3) -0.0238(5)
O6 O 0.2576(5) 0.9219(3) -0.1396(4)
O7 O 0.0887(5) 0.9184(4) -0.1626(6)
O8 O 0.8955(5) 0.9420(2) 0.4628(4)
O9 O 1.0745(5) 0.8715(3) 0.5424(5)
O10 O 1.1249(7) 0.7962(3) 0.4231(7)
O11 O 1.2132(6) 0.7499(3) 0.2960(5)
O12 O 0.4942(5) 0.9359(2) -0.0926(4)
H1 H 0.531(6) 0.962(2) -0.081(6)
N1 N 0.1823(5) 0.9126(3) -0.1106(6)
C1 C 0.9644(7) 0.9379(4) 0.5623(6)
H2 H 0.9360 0.9120 0.5935
H3 H 0.9669 0.9709 0.5945
C2 C 1.0764(8) 0.9229(4) 0.5712(7)
H4 H 1.0999 0.9451 0.5304
H5 H 1.1270 0.9269 0.6379
C3 C 1.1796(9) 0.8530(6) 0.5575(9)
H6 H 1.2260 0.8556 0.6257
H7 H 1.2111 0.8739 0.5207
C4 C 1.1724(11) 0.7962(6) 0.5247(10)
H8 H 1.2443 0.7809 0.5470
H9 H 1.1283 0.7764 0.5513
C5 C 1.1035(14) 0.7446(5) 0.3850(12)
H10 H 1.0414 0.7454 0.3237
H11 H 1.0846 0.7231 0.4296
C6 C 1.1969(13) 0.7207(5) 0.3693(10)
H12 H 1.2614 0.7217 0.4287
H13 H 1.1810 0.6849 0.3491
C7 C 0.7444(6) 0.8413(3) 0.2513(5)
C8 C 0.6675(7) 0.8028(3) 0.2165(6)
H14 H 0.6054 0.8085 0.1612
C9 C 0.6828(8) 0.7559(4) 0.2638(8)
H15 H 0.6307 0.7299 0.2402
C10 C 0.7735(10) 0.7470(4) 0.3448(8)
H16 H 0.7837 0.7150 0.3758
C11 C 0.8488(9) 0.7848(4) 0.3801(7)
H17 H 0.9097 0.7789 0.4365
C12 C 0.8369(7) 0.8317(3) 0.3341(6)
H18 H 0.8903 0.8571 0.3581
C13 C 0.8081(6) 0.9001(3) 0.1155(5)
C14 C 0.8174(8) 0.9442(4) 0.0677(6)
H19 H 0.7767 0.9734 0.0684
C15 C 0.8859(10) 0.9456(6) 0.0190(7)
H20 H 0.8940 0.9761 -0.0107
C16 C 0.9421(9) 0.9028(7) 0.0138(7)
H21 H 0.9867 0.9040 -0.0212
C17 C 0.9345(8) 0.8577(6) 0.0593(8)
H22 H 0.9734 0.8284 0.0554
C18 C 0.8673(7) 0.8565(4) 0.1115(6)
H23 H 0.8621 0.8264 0.1438
C19 C 0.7751(6) 0.9547(3) 0.2681(5)
H24 H 0.8529 0.9503 0.3018
H25 H 0.7635 0.9865 0.2308
C20 C 0.7256(6) 0.9607(3) 0.3419(6)
C21 C 0.6170(8) 0.9733(5) 0.3154(8)
H26 H 0.5734 0.9777 0.2501
C22 C 0.5732(9) 0.9793(6) 0.3835(9)
H27 H 0.4996 0.9870 0.3641
C23 C 0.6344(10) 0.9744(6) 0.4779(9)
H28 H 0.6040 0.9800 0.5238
C24 C 0.7432(9) 0.9608(5) 0.5078(7)
H29 H 0.7856 0.9563 0.5734
C25 C 0.7872(7) 0.9539(4) 0.4391(6)
C26 C 1.2418(7) 0.9171(4) 0.2359(6)
C27 C 1.1581(7) 0.9074(5) 0.2672(8)
H30 H 1.1474 0.8737 0.2843
C28 C 1.0908(9) 0.9462(8) 0.2736(10)
H31 H 1.0361 0.9396 0.2963
C29 C 1.1071(15) 0.9957(8) 0.2449(10)
H32 H 1.0607 1.0224 0.2464
C30 C 1.1888(15) 1.0060(6) 0.2149(8)
H33 H 1.1999 1.0396 0.1981
C31 C 1.2560(10) 0.9661(4) 0.2094(7)
H34 H 1.3113 0.9730 0.1875
C32 C 1.4142(7) 0.8490(6) 0.3449(6)
C33 C 1.3831(8) 0.8469(6) 0.4228(5)
H35 H 1.3119 0.8556 0.4131
C34 C 1.4530(7) 0.8324(6) 0.5150(6)
H36 H 1.4275 0.8312 0.5650
C35 C 1.5596(8) 0.8196(7) 0.5339(7)
H37 H 1.6085 0.8122 0.5965
C36 C 1.5903(10) 0.8185(8) 0.4555(7)
H38 H 1.6604 0.8081 0.4644
C37 C 1.5188(8) 0.8325(7) 0.3636(7)
H39 H 1.5422 0.8307 0.3124
C38 C 1.2391(6) 0.8141(3) 0.1638(6)
H40 H 1.1773 0.8136 0.1829
H41 H 1.2121 0.8203 0.0943
C39 C 1.2937(6) 0.7625(3) 0.1851(6)
C40 C 1.3564(8) 0.7449(4) 0.1356(7)
H42 H 1.3630 0.7654 0.0868
C41 C 1.4089(9) 0.6980(5) 0.1570(9)
H43 H 1.4502 0.6865 0.1229
C42 C 1.3992(9) 0.6688(4) 0.2291(8)
H44 H 1.4370 0.6377 0.2458
C43 C 1.3347(9) 0.6839(4) 0.2786(7)
H45 H 1.3275 0.6627 0.3263
C44 C 1.2810(7) 0.7311(3) 0.2560(6)
C45 C 0.5409(12) 0.9076(4) -0.1487(10)
H46 H 0.5832 0.9310 -0.1713
H47 H 0.5899 0.8816 -0.1079
C46 C 0.4640(17) 0.8838(7) -0.2269(12)
H48 H 0.4935 0.8771 -0.2753
H49 H 0.4017 0.9060 -0.2536
H50 H 0.4429 0.8517 -0.2066
Np1_2 Np 1.41711(2) 0.906646(10) 0.023809(19)
O4_2 O 0.3980(4) 0.8831(2) 0.1727(4)
loop_
_geom_bond_atom_site_label_1
_geom_bond_atom_site_label_2
_geom_bond_site_symmetry_1
_geom_bond_site_symmetry_2
Np1 O1 1_555 1_555
P1 O3 1_555 1_555
P2 O4 1_555 1_555
O2 Np1 1_555 1_555
O3 Np1 1_555 1_555
O4 Np1_2 1_555 1_555
O5 Np1 1_555 1_555
O6 Np1 1_555 1_555
O7 N1 1_555 1_555
O8 C1 1_555 1_555
O9 C2 1_555 1_555
O10 C4 1_555 1_555
O11 C6 1_555 1_555
O12 Np1 1_555 1_555
H1 O12 1_555 1_555
N1 O5 1_555 1_555
C1 H2 1_555 1_555
H3 C1 1_555 1_555
C2 C1 1_555 1_555
H4 C2 1_555 1_555
H5 C2 1_555 1_555
C3 O9 1_555 1_555
H6 C3 1_555 1_555
H7 C3 1_555 1_555
C4 C3 1_555 1_555
H8 C4 1_555 1_555
H9 C4 1_555 1_555
C5 O10 1_555 1_555
H10 C5 1_555 1_555
H11 C5 1_555 1_555
C6 C5 1_555 1_555
H12 C6 1_555 1_555
H13 C6 1_555 1_555
C7 P1 1_555 1_555
C8 C7 1_555 1_555
H14 C8 1_555 1_555
C9 C8 1_555 1_555
H15 C9 1_555 1_555
C10 C9 1_555 1_555
H16 C10 1_555 1_555
C11 C10 1_555 1_555
H17 C11 1_555 1_555
C12 C7 1_555 1_555
H18 C12 1_555 1_555
C13 P1 1_555 1_555
C14 C13 1_555 1_555
H19 C14 1_555 1_555
C15 C14 1_555 1_555
H20 C15 1_555 1_555
C16 C15 1_555 1_555
H21 C16 1_555 1_555
C17 C16 1_555 1_555
H22 C17 1_555 1_555
C18 C13 1_555 1_555
H23 C18 1_555 1_555
C19 P1 1_555 1_555
H24 C19 1_555 1_555
H25 C19 1_555 1_555
C20 C19 1_555 1_555
C21 C20 1_555 1_555
H26 C21 1_555 1_555
C22 C21 1_555 1_555
H27 C22 1_555 1_555
C23 C22 1_555 1_555
H28 C23 1_555 1_555
C24 C23 1_555 1_555
H29 C24 1_555 1_555
C25 O8 1_555 1_555
C26 P2 1_555 1_555
C27 C26 1_555 1_555
H30 C27 1_555 1_555
C28 C27 1_555 1_555
H31 C28 1_555 1_555
C29 C28 1_555 1_555
H32 C29 1_555 1_555
C30 C29 1_555 1_555
H33 C30 1_555 1_555
C31 C26 1_555 1_555
H34 C31 1_555 1_555
C32 P2 1_555 1_555
C33 C32 1_555 1_555
H35 C33 1_555 1_555
C34 C33 1_555 1_555
H36 C34 1_555 1_555
C35 C34 1_555 1_555
H37 C35 1_555 1_555
C36 C35 1_555 1_555
H38 C36 1_555 1_555
C37 C32 1_555 1_555
H39 C37 1_555 1_555
C38 P2 1_555 1_555
H40 C38 1_555 1_555
H41 C38 1_555 1_555
C39 C38 1_555 1_555
C40 C39 1_555 1_555
H42 C40 1_555 1_555
C41 C40 1_555 1_555
H43 C41 1_555 1_555
C42 C41 1_555 1_555
H44 C42 1_555 1_555
C43 C42 1_555 1_555
H45 C43 1_555 1_555
C44 O11 1_555 1_555
C45 O12 1_555 1_555
H46 C45 1_555 1_555
H47 C45 1_555 1_555
C46 C45 1_555 1_555
H48 C46 1_555 1_555
H49 C46 1_555 1_555
H50 C46 1_555 1_555
O4_2 Np1 1_555 1_555
O6 N1 1_555 1_555
C11 C12 1_555 1_555
C17 C18 1_555 1_555
C20 C25 1_555 1_555
C24 C25 1_555 1_555
C30 C31 1_555 1_555
C36 C37 1_555 1_555
C39 C44 1_555 1_555
C43 C44 1_555 1_555

#END
