
#######################################################################
#
#                 Cambridge Crystallographic Data Centre
#                                CCDC 
#
#######################################################################
#
# If this CIF has been generated from an entry in the Cambridge 
# Structural Database, then it will include bibliographic, chemical, 
# crystal, experimental, refinement or atomic coordinate data resulting 
# from the CCDC's data processing and validation procedures.
#
#######################################################################

data_AYEFAM
_symmetry_cell_setting           monoclinic
_symmetry_space_group_name_H-M   'P n'
_symmetry_Int_Tables_number      7
_space_group_name_Hall           'P -2yac'
loop_
_symmetry_equiv_pos_site_id
_symmetry_equiv_pos_as_xyz
1 x,y,z
2 1/2+x,-y,1/2+z
_cell_length_a                   19.655(8)
_cell_length_b                   12.597(6)
_cell_length_c                   19.655(8)
_cell_angle_alpha                90
_cell_angle_beta                 90.00(3)
_cell_angle_gamma                90
_cell_volume                     4866.46
loop_
_atom_site_label
_atom_site_type_symbol
_atom_site_fract_x
_atom_site_fract_y
_atom_site_fract_z
Pu1 Pu 0.69031(15) 0.87504(7) 0.62165(14)
O1 O 0.6950(10) 1.0128(3) 0.6306(8)
O2 O 0.6894(15) 0.7360(3) 0.6211(14)
O3 O 0.7536(6) 0.8752(12) 0.7195(6)
O4 O 0.7879(6) 0.8756(11) 0.5543(6)
O5 O 1.0919(6) 0.1230(11) 0.1854(6)
O6 O 1.1249(6) 0.1253(12) 1.0235(6)
P1 P 0.8127(3) 0.8386(5) 0.7599(3)
C1 C 0.7799(8) 0.8564(13) 0.8454(6)
C2 C 0.7358(9) 0.9326(12) 0.8714(8)
H1 H 0.7258 0.9944 0.8456
C3 C 0.7065(10) 0.9184(16) 0.9351(9)
H2 H 0.6763 0.9705 0.9528
C4 C 0.7211(11) 0.8280(17) 0.9728(7)
H3 H 0.7010 0.8183 1.0163
C5 C 0.7652(12) 0.7517(14) 0.9469(8)
H4 H 0.7752 0.6899 0.9727
C6 C 0.7946(9) 0.7659(12) 0.8832(8)
H5 H 0.8247 0.7138 0.8655
C7 C 0.8305(7) 0.7144(8) 0.7220(6)
C8 C 0.8954(7) 0.7088(10) 0.6942(7)
H6 H 0.9224 0.7712 0.6905
C9 C 0.9210(7) 0.6120(12) 0.6719(8)
H7 H 0.9654 0.6082 0.6529
C10 C 0.8816(9) 0.5208(9) 0.6774(8)
H8 H 0.8990 0.4546 0.6621
C11 C 0.8167(9) 0.5263(8) 0.7052(8)
H9 H 0.7897 0.4640 0.7089
C12 C 0.7911(7) 0.6232(10) 0.7275(7)
H10 H 0.7467 0.6270 0.7464
C13 C 0.8714(4) 0.9486(5) 0.7514(3)
C14 C 0.8519(5) 1.0369(5) 0.7138(3)
H11 H 0.8063 1.0434 0.6983
C15 C 0.8991(7) 1.1158(6) 0.6989(3)
H12 H 0.8857 1.1761 0.6732
C16 C 0.9658(6) 1.1063(8) 0.7216(3)
H13 H 0.9980 1.1602 0.7114
C17 C 0.9853(5) 1.0180(10) 0.7592(3)
H14 H 1.0309 1.0115 0.7747
C18 C 0.9381(4) 0.9391(7) 0.7741(3)
P2 P 0.8343(4) 0.8318(6) 0.4992(3)
C19 C 0.9184(5) 0.8245(11) 0.5330(5)
C20 C 0.9433(8) 0.9058(11) 0.5737(8)
H15 H 0.9157 0.9660 0.5833
C21 C 1.0087(8) 0.8993(16) 0.6005(9)
H16 H 1.0257 0.9549 0.6284
C22 C 1.0490(6) 0.8113(18) 0.5866(9)
H17 H 1.0937 0.8068 0.6049
C23 C 1.0241(7) 0.7300(14) 0.5458(10)
H18 H 1.0517 0.6699 0.5363
C24 C 0.9588(7) 0.7365(11) 0.5191(8)
H19 H 0.9417 0.6809 0.4912
C25 C 0.7972(8) 0.7081(9) 0.4748(9)
C26 C 0.7938(10) 0.6217(11) 0.5186(8)
H20 H 0.8108 0.6275 0.5637
C27 C 0.7653(10) 0.5267(10) 0.4966(10)
H21 H 0.7630 0.4677 0.5265
C28 C 0.7403(10) 0.5181(11) 0.4306(11)
H22 H 0.7209 0.4532 0.4155
C29 C 0.7438(11) 0.6045(14) 0.3868(9)
H23 H 0.7267 0.5987 0.3417
C30 C 0.7722(10) 0.6995(11) 0.4089(8)
H24 H 0.7746 0.7586 0.3789
C31 C 0.8251(3) 0.9143(5) 0.4281(3)
C32 C 0.7857(3) 1.0059(5) 0.4285(3)
H25 H 0.7581 1.0220 0.4669
C33 C 0.7866(4) 1.0740(6) 0.3729(3)
H26 H 0.7596 1.1366 0.3732
C34 C 0.8269(4) 1.0505(6) 0.3168(3)
H27 H 0.8276 1.0970 0.2788
C35 C 0.8664(3) 0.9589(6) 0.3164(3)
H28 H 0.8939 0.9428 0.2780
C36 C 0.8654(3) 0.8908(6) 0.3720(3)
P3 P 1.0529(4) 0.1671(7) 0.2425(3)
C37 C 0.9644(6) 0.1901(14) 0.2178(8)
C38 C 0.9362(8) 0.1178(13) 0.1724(10)
H29 H 0.9598 0.0543 0.1616
C39 C 0.8733(9) 0.1385(17) 0.1429(10)
H30 H 0.8540 0.0891 0.1119
C40 C 0.8387(7) 0.2315(19) 0.1588(11)
H31 H 0.7957 0.2457 0.1386
C41 C 0.8669(9) 0.3038(15) 0.2041(12)
H32 H 0.8433 0.3673 0.2150
C42 C 0.9298(8) 0.2831(14) 0.2336(10)
H33 H 0.9491 0.3324 0.2646
C43 C 1.0846(9) 0.2924(10) 0.2707(10)
C44 C 1.1113(11) 0.3182(13) 0.3340(10)
H34 H 1.1119 0.2667 0.3694
C45 C 1.1372(13) 0.4192(16) 0.3457(12)
H35 H 1.1554 0.4368 0.3890
C46 C 1.1363(12) 0.4946(11) 0.2940(14)
H36 H 1.1540 0.5636 0.3020
C47 C 1.1096(12) 0.4688(12) 0.2307(12)
H37 H 1.1090 0.5203 0.1954
C48 C 1.0837(11) 0.3677(13) 0.2190(10)
H38 H 1.0655 0.3501 0.1757
C49 C 1.0619(4) 0.0512(5) 0.2981(3)
C50 C 1.1026(5) -0.0377(6) 0.2880(3)
H39 H 1.1259 -0.0469 0.2461
C51 C 1.1092(7) -0.1130(6) 0.3392(3)
H40 H 1.1370 -0.1738 0.3323
C52 C 1.0751(6) -0.0995(6) 0.4006(3)
H41 H 1.0796 -0.1510 0.4356
C53 C 1.0344(5) -0.0106(7) 0.4107(3)
H42 H 1.0111 -0.0013 0.4526
C54 C 1.0279(4) 0.0648(6) 0.3595(3)
P4 P 1.0682(4) 0.1734(7) 0.9804(3)
C55 C 1.0979(4) 0.1936(8) 0.8930(4)
C56 C 1.0814(6) 0.2843(8) 0.8563(5)
H43 H 1.0517 0.3358 0.8753
C57 C 1.1086(7) 0.2997(9) 0.7917(5)
H44 H 1.0973 0.3617 0.7666
C58 C 1.1521(7) 0.2244(12) 0.7639(5)
H45 H 1.1707 0.2350 0.7198
C59 C 1.1686(6) 0.1337(10) 0.8007(6)
H46 H 1.1984 0.0823 0.7817
C60 C 1.1415(5) 0.1183(8) 0.8652(5)
H47 H 1.1527 0.0563 0.8904
C61 C 1.0386(6) 0.2990(7) 1.0083(5)
C62 C 1.0914(6) 0.3721(9) 1.0118(7)
H48 H 1.1346 0.3552 0.9930
C63 C 1.0811(7) 0.4700(9) 1.0427(7)
H49 H 1.1173 0.5200 1.0451
C64 C 1.0179(8) 0.4948(8) 1.0702(7)
H50 H 1.0109 0.5617 1.0914
C65 C 0.9651(7) 0.4218(10) 1.0668(7)
H51 H 0.9219 0.4387 1.0856
C66 C 0.9754(5) 0.3239(9) 1.0358(6)
H52 H 0.9392 0.2739 1.0335
C67 C 0.9934(5) 0.0921(8) 0.9803(6)
C68 C 1.0008(6) -0.0006(9) 1.0180(6)
H53 H 1.0416 -0.0132 1.0426
C69 C 0.9485(7) -0.0748(8) 1.0196(7)
H54 H 0.9536 -0.1382 1.0453
C70 C 0.8888(6) -0.0563(9) 0.9835(8)
H55 H 0.8531 -0.1071 0.9847
C71 C 0.8814(5) 0.0364(11) 0.9459(7)
H56 H 0.8406 0.0490 0.9213
C72 C 0.9337(5) 0.1106(9) 0.9443(6)
O7 O 0.9387 0.8673 0.8247
O8 O 0.9001 0.8252 0.3721
O9 O 0.9872 0.1370 0.3655
O10 O 0.9463 0.1946 0.9117
O11 O 0.9937 0.6693 0.8650
O12 O 0.9349 0.6370 0.3387
O13 O 0.8993 0.3678 0.3887
O14 O 0.9292 0.4154 0.8780
C73 C 1.0026 0.8573 0.8615
H57 H 1.0405 0.8644 0.8287
H58 H 1.0061 0.9168 0.8942
C74 C 0.9462 0.8235 0.3134
H59 H 0.9779 0.8846 0.3144
H60 H 0.9204 0.8248 0.2701
C75 C 0.9769 0.2391 0.3674
H61 H 1.0217 0.2750 0.3685
H62 H 0.9540 0.2603 0.3246
C76 C 0.8981 0.2327 0.8663
H63 H 0.8911 0.1800 0.8296
H64 H 0.8542 0.2423 0.8903
C77 C 1.0103 0.7630 0.8965
H65 H 1.0585 0.7581 0.9108
H66 H 0.9827 0.7680 0.9385
C78 C 0.9843 0.7189 0.3220
H67 H 1.0083 0.7004 0.2793
H68 H 1.0183 0.7253 0.3588
C79 C 0.9350 0.2798 0.4264
H69 H 0.9637 0.3068 0.4640
H70 H 0.9029 0.2257 0.4438
C80 C 0.9199 0.3371 0.8356
H71 H 0.8851 0.3590 0.8020
H72 H 0.9629 0.3254 0.8104
C81 C 0.9887 0.5781 0.9067
H73 H 1.0311 0.5365 0.9014
H74 H 0.9865 0.6018 0.9547
C82 C 0.9630 0.5392 0.3475
H75 H 0.9811 0.5218 0.3018
H76 H 1.0035 0.5537 0.3759
C83 C 0.9406 0.4443 0.3711
H77 H 0.9657 0.4469 0.4147
H78 H 0.9702 0.4002 0.3417
C84 C 0.9357 0.5131 0.8952
H79 H 0.9089 0.5514 0.8603
H80 H 0.9087 0.5184 0.9375
Pu1A Pu 1.19031(15) 0.12496(7) 0.12165(14)
Pu1A_2 Pu 1.19031(15) 0.12496(7) 1.12165(14)
O5A O 0.5919(6) 0.8770(11) 0.6854(6)
O6A O 0.6249(6) 0.8747(12) 0.5235(6)
O15 O 0.6934(11) 0.3475(11) 0.6449(9)
O16 O 1.2019(15) 1.0040(12) 0.6226(17)
O17 O 0.8336(11) 1.2394(14) 0.6034(10)
O18 O 0.6698(12) 0.2362(14) 0.4797(11)
loop_
_geom_bond_atom_site_label_1
_geom_bond_atom_site_label_2
_geom_bond_site_symmetry_1
_geom_bond_site_symmetry_2
Pu1 O1 1_555 1_555
O2 Pu1 1_555 1_555
O3 Pu1 1_555 1_555
O4 Pu1 1_555 1_555
O5 P3 1_555 1_555
O6 P4 1_555 1_555
P1 O3 1_555 1_555
C1 P1 1_555 1_555
C2 C1 1_555 1_555
H1 C2 1_555 1_555
C3 C2 1_555 1_555
H2 C3 1_555 1_555
C4 C3 1_555 1_555
H3 C4 1_555 1_555
C5 C4 1_555 1_555
H4 C5 1_555 1_555
C6 C1 1_555 1_555
H5 C6 1_555 1_555
C7 P1 1_555 1_555
C8 C7 1_555 1_555
H6 C8 1_555 1_555
C9 C8 1_555 1_555
H7 C9 1_555 1_555
C10 C9 1_555 1_555
H8 C10 1_555 1_555
C11 C10 1_555 1_555
H9 C11 1_555 1_555
C12 C7 1_555 1_555
H10 C12 1_555 1_555
C13 P1 1_555 1_555
C14 C13 1_555 1_555
H11 C14 1_555 1_555
C15 C14 1_555 1_555
H12 C15 1_555 1_555
C16 C15 1_555 1_555
H13 C16 1_555 1_555
C17 C16 1_555 1_555
H14 C17 1_555 1_555
C18 C13 1_555 1_555
P2 O4 1_555 1_555
C19 P2 1_555 1_555
C20 C19 1_555 1_555
H15 C20 1_555 1_555
C21 C20 1_555 1_555
H16 C21 1_555 1_555
C22 C21 1_555 1_555
H17 C22 1_555 1_555
C23 C22 1_555 1_555
H18 C23 1_555 1_555
C24 C19 1_555 1_555
H19 C24 1_555 1_555
C25 P2 1_555 1_555
C26 C25 1_555 1_555
H20 C26 1_555 1_555
C27 C26 1_555 1_555
H21 C27 1_555 1_555
C28 C27 1_555 1_555
H22 C28 1_555 1_555
C29 C28 1_555 1_555
H23 C29 1_555 1_555
C30 C25 1_555 1_555
H24 C30 1_555 1_555
C31 P2 1_555 1_555
C32 C31 1_555 1_555
H25 C32 1_555 1_555
C33 C32 1_555 1_555
H26 C33 1_555 1_555
C34 C33 1_555 1_555
H27 C34 1_555 1_555
C35 C34 1_555 1_555
H28 C35 1_555 1_555
C36 C31 1_555 1_555
P3 C37 1_555 1_555
C37 C38 1_555 1_555
C38 H29 1_555 1_555
C39 C38 1_555 1_555
H30 C39 1_555 1_555
C40 C39 1_555 1_555
H31 C40 1_555 1_555
C41 C40 1_555 1_555
H32 C41 1_555 1_555
C42 C37 1_555 1_555
H33 C42 1_555 1_555
C43 P3 1_555 1_555
C44 C43 1_555 1_555
H34 C44 1_555 1_555
C45 C44 1_555 1_555
H35 C45 1_555 1_555
C46 C45 1_555 1_555
H36 C46 1_555 1_555
C47 C46 1_555 1_555
H37 C47 1_555 1_555
C48 C43 1_555 1_555
H38 C48 1_555 1_555
C49 P3 1_555 1_555
C50 C49 1_555 1_555
H39 C50 1_555 1_555
C51 C50 1_555 1_555
H40 C51 1_555 1_555
C52 C51 1_555 1_555
H41 C52 1_555 1_555
C53 C52 1_555 1_555
H42 C53 1_555 1_555
C54 C49 1_555 1_555
P4 C55 1_555 1_555
C55 C56 1_555 1_555
C56 H43 1_555 1_555
C57 C56 1_555 1_555
H44 C57 1_555 1_555
C58 C57 1_555 1_555
H45 C58 1_555 1_555
C59 C58 1_555 1_555
H46 C59 1_555 1_555
C60 C55 1_555 1_555
H47 C60 1_555 1_555
C61 P4 1_555 1_555
C62 C61 1_555 1_555
H48 C62 1_555 1_555
C63 C62 1_555 1_555
H49 C63 1_555 1_555
C64 C63 1_555 1_555
H50 C64 1_555 1_555
C65 C64 1_555 1_555
H51 C65 1_555 1_555
C66 C61 1_555 1_555
H52 C66 1_555 1_555
C67 P4 1_555 1_555
C68 C67 1_555 1_555
H53 C68 1_555 1_555
C69 C68 1_555 1_555
H54 C69 1_555 1_555
C70 C69 1_555 1_555
H55 C70 1_555 1_555
C71 C70 1_555 1_555
H56 C71 1_555 1_555
C72 C67 1_555 1_555
O7 C18 1_555 1_555
O8 C36 1_555 1_555
O9 C54 1_555 1_555
O10 C72 1_555 1_555
O11 C77 1_555 1_555
O12 C78 1_555 1_555
O13 C79 1_555 1_555
O14 C80 1_555 1_555
C73 O7 1_555 1_555
H57 C73 1_555 1_555
H58 C73 1_555 1_555
C74 O8 1_555 1_555
H59 C74 1_555 1_555
H60 C74 1_555 1_555
C75 O9 1_555 1_555
H61 C75 1_555 1_555
H62 C75 1_555 1_555
C76 O10 1_555 1_555
H63 C76 1_555 1_555
H64 C76 1_555 1_555
C77 C73 1_555 1_555
H65 C77 1_555 1_555
H66 C77 1_555 1_555
C78 C74 1_555 1_555
H67 C78 1_555 1_555
H68 C78 1_555 1_555
C79 C75 1_555 1_555
H69 C79 1_555 1_555
H70 C79 1_555 1_555
C80 C76 1_555 1_555
H71 C80 1_555 1_555
H72 C80 1_555 1_555
C81 O11 1_555 1_555
H73 C81 1_555 1_555
H74 C81 1_555 1_555
C82 O12 1_555 1_555
H75 C82 1_555 1_555
H76 C82 1_555 1_555
C83 O13 1_555 1_555
H77 C83 1_555 1_555
H78 C83 1_555 1_555
C84 O14 1_555 1_555
H79 C84 1_555 1_555
H80 C84 1_555 1_555
Pu1A O5 1_555 1_555
Pu1A_2 O6 1_555 1_555
O5A Pu1 1_555 1_555
O6A Pu1 1_555 1_555
C5 C6 1_555 1_555
C11 C12 1_555 1_555
C17 C18 1_555 1_555
C23 C24 1_555 1_555
C29 C30 1_555 1_555
C35 C36 1_555 1_555
C41 C42 1_555 1_555
C47 C48 1_555 1_555
C53 C54 1_555 1_555
C59 C60 1_555 1_555
C65 C66 1_555 1_555
C71 C72 1_555 1_555
C81 C84 1_555 1_555
C82 C83 1_555 1_555

#END
