
#######################################################################
#
#                 Cambridge Crystallographic Data Centre
#                                CCDC 
#
#######################################################################
#
# If this CIF has been generated from an entry in the Cambridge 
# Structural Database, then it will include bibliographic, chemical, 
# crystal, experimental, refinement or atomic coordinate data resulting 
# from the CCDC's data processing and validation procedures.
#
#######################################################################

data_AYERAX
_symmetry_cell_setting           triclinic
_symmetry_space_group_name_H-M   'P -1'
_symmetry_Int_Tables_number      2
_space_group_name_Hall           '-P 1'
loop_
_symmetry_equiv_pos_site_id
_symmetry_equiv_pos_as_xyz
1 x,y,z
2 -x,-y,-z
_cell_length_a                   7.157(5)
_cell_length_b                   12.363(9)
_cell_length_c                   14.690(10)
_cell_angle_alpha                109.050(11)
_cell_angle_beta                 90.524(12)
_cell_angle_gamma                90.620(13)
_cell_volume                     1228.43
loop_
_atom_site_label
_atom_site_type_symbol
_atom_site_fract_x
_atom_site_fract_y
_atom_site_fract_z
Cs1 Cs 0.27226(8) 0.06875(4) -0.10511(4)
P1 P -0.2454(3) 0.20494(17) 0.04702(15)
O1 O -0.0883(9) 0.1240(5) 0.0073(4)
C1 C -0.2824(12) 0.2989(7) -0.0237(6)
Cs2 Cs 0.21386(8) 0.11797(5) 0.16319(4)
C2 C -0.3320(12) 0.2638(7) -0.1188(6)
H1 H -0.3482 0.1846 -0.1536
O2 O -0.4268(9) 0.1507(5) 0.0614(4)
O3 O -0.4911(9) 0.1303(5) 0.3093(4)
C3 C -0.3589(13) 0.3456(8) -0.1648(6)
H2 H -0.4016 0.3210 -0.2299
O4 O -0.1507(9) 0.1481(4) 0.2638(4)
C4 C -0.3252(14) 0.4607(8) -0.1183(6)
H3 H -0.3431 0.5139 -0.1518
C5 C -0.2651(13) 0.4988(7) -0.0229(6)
C6 C -0.2176(14) 0.6152(7) 0.0290(6)
H4 H -0.2288 0.6710 -0.0023
C7 C -0.1570(14) 0.6482(7) 0.1218(6)
H5 H -0.1261 0.7263 0.1542
C8 C -0.1393(13) 0.5677(7) 0.1706(6)
H6 H -0.0971 0.5921 0.2358
P2 P -0.1432(3) 0.34267(18) 0.17959(15)
C9 C -0.1831(13) 0.4535(7) 0.1243(6)
C10 C -0.2447(12) 0.4174(7) 0.0264(6)
P3 P -0.4013(3) 0.35379(18) 0.26446(15)
C11 C -0.3224(12) 0.4571(7) 0.3810(6)
C12 C -0.3300(13) 0.5731(7) 0.4002(6)
H7 H -0.3733 0.6026 0.3518
C13 C -0.2741(14) 0.6491(7) 0.4912(6)
H8 H -0.2751 0.7294 0.5029
C14 C -0.2183(13) 0.6075(8) 0.5628(6)
H9 H -0.1794 0.6592 0.6236
C15 C -0.2182(13) 0.4894(7) 0.5472(6)
C16 C -0.1662(15) 0.4383(9) 0.6184(6)
H10 H -0.1260 0.4868 0.6802
C17 C -0.1719(13) 0.3251(7) 0.6015(6)
H11 H -0.1455 0.2956 0.6523
C18 C -0.2173(14) 0.2485(8) 0.5077(6)
H12 H -0.2160 0.1682 0.4953
P4 P -0.3226(3) 0.20655(18) 0.31370(15)
C19 C -0.2629(13) 0.2917(7) 0.4353(6)
C20 C -0.2674(12) 0.4136(6) 0.4542(5)
O5 O 0.4265(19) 0.0876(7) -0.2982(6)
H13 H 0.4771 0.0233 -0.3134
C21 C 0.377(2) 0.1108(10) -0.3792(8)
H14 H 0.3789 0.0402 -0.4346
H15 H 0.4649 0.1667 -0.3895
H16 H 0.2505 0.1421 -0.3721
O6 O -0.0360(14) 0.0411(7) -0.2753(6)
H17 H 0.0187 -0.0188 -0.2757
C22 C -0.118(3) 0.0246(15) -0.3656(11)
H18 H -0.2530 0.0348 -0.3587
H19 H -0.0652 0.0804 -0.3931
H20 H -0.0920 -0.0530 -0.4082
Cs2A Cs -0.21386(8) -0.11797(5) -0.16319(4)
Cs2A_2 Cs 0.78614(8) -0.11797(5) -0.16319(4)
O2_2 O 0.5732(9) 0.1507(5) 0.0614(4)
O2A O 0.4268(9) -0.1507(5) -0.0614(4)
O4A O 0.1507(9) -0.1481(4) -0.2638(4)
Cs1A Cs -0.27226(8) -0.06875(4) 0.10511(4)
Cs1A_2 Cs 0.72774(8) -0.06875(4) 0.10511(4)
O3_2 O 0.5089(9) 0.1303(5) 0.3093(4)
O6A O 0.0360(14) -0.0411(7) 0.2753(6)
Cs1_2 Cs -0.72774(8) 0.06875(4) -0.10511(4)
Cs2_2 Cs -0.78614(8) 0.11797(5) 0.16319(4)
H17A H -0.0187 0.0188 0.2757
loop_
_geom_bond_atom_site_label_1
_geom_bond_atom_site_label_2
_geom_bond_site_symmetry_1
_geom_bond_site_symmetry_2
Cs1 O1 1_555 1_555
P1 O1 1_555 1_555
O1 Cs2 1_555 1_555
C1 P1 1_555 1_555
Cs2 O4 1_555 1_555
C2 C1 1_555 1_555
H1 C2 1_555 1_555
O2 P1 1_555 1_555
O3 P4 1_555 1_555
C3 C2 1_555 1_555
H2 C3 1_555 1_555
O4 P4 1_555 1_555
C4 C3 1_555 1_555
H3 C4 1_555 1_555
C5 C4 1_555 1_555
C6 C5 1_555 1_555
H4 C6 1_555 1_555
C7 C6 1_555 1_555
H5 C7 1_555 1_555
C8 C7 1_555 1_555
H6 C8 1_555 1_555
P2 P1 1_555 1_555
C9 C8 1_555 1_555
C10 C1 1_555 1_555
P3 P2 1_555 1_555
C11 P3 1_555 1_555
C12 C11 1_555 1_555
H7 C12 1_555 1_555
C13 C12 1_555 1_555
H8 C13 1_555 1_555
C14 C13 1_555 1_555
H9 C14 1_555 1_555
C15 C14 1_555 1_555
C16 C15 1_555 1_555
H10 C16 1_555 1_555
C17 C16 1_555 1_555
H11 C17 1_555 1_555
C18 C17 1_555 1_555
H12 C18 1_555 1_555
P4 P3 1_555 1_555
C19 C18 1_555 1_555
C20 C11 1_555 1_555
O5 Cs1 1_555 1_555
H13 O5 1_555 1_555
C21 O5 1_555 1_555
H14 C21 1_555 1_555
H15 C21 1_555 1_555
H16 C21 1_555 1_555
O6 Cs1 1_555 1_555
H17 O6 1_555 1_555
C22 O6 1_555 1_555
H18 C22 1_555 1_555
H19 C22 1_555 1_555
H20 C22 1_555 1_555
Cs2A O6 1_555 1_555
Cs2A_2 O2A 1_555 1_555
O2_2 Cs1 1_555 1_555
O2A Cs1 1_555 1_555
O4A Cs1 1_555 1_555
Cs1A O2 1_555 1_555
Cs1A_2 O2_2 1_555 1_555
O3_2 Cs2 1_555 1_555
O6A Cs2 1_555 1_555
Cs1_2 O2 1_555 1_555
Cs2_2 O2 1_555 1_555
H17A O6A 1_555 1_555
Cs2 O2_2 1_555 1_555
O3 Cs2_2 1_555 1_555
O4 Cs1A 1_555 1_555
C5 C10 1_555 1_555
P2 C9 1_555 1_555
C9 C10 1_555 1_555
C15 C20 1_555 1_555
P4 C19 1_555 1_555
C19 C20 1_555 1_555
Cs2A O4A 1_555 1_555
O2A Cs1A_2 1_555 1_555
Cs1A O6A 1_555 1_555

#END
