
#######################################################################
#
#                 Cambridge Crystallographic Data Centre
#                                CCDC 
#
#######################################################################
#
# If this CIF has been generated from an entry in the Cambridge 
# Structural Database, then it will include bibliographic, chemical, 
# crystal, experimental, refinement or atomic coordinate data resulting 
# from the CCDC's data processing and validation procedures.
#
#######################################################################

data_AYEZUZ
_symmetry_cell_setting           monoclinic
_symmetry_space_group_name_H-M   'P 21/n'
_symmetry_Int_Tables_number      14
_space_group_name_Hall           '-P 2yn'
loop_
_symmetry_equiv_pos_site_id
_symmetry_equiv_pos_as_xyz
1 x,y,z
2 1/2+x,1/2-y,1/2+z
3 -x,-y,-z
4 1/2-x,1/2+y,1/2-z
_cell_length_a                   13.022(2)
_cell_length_b                   19.989(4)
_cell_length_c                   16.747(4)
_cell_angle_alpha                90
_cell_angle_beta                 108.376(18)
_cell_angle_gamma                90
_cell_volume                     4136.91
loop_
_atom_site_label
_atom_site_type_symbol
_atom_site_fract_x
_atom_site_fract_y
_atom_site_fract_z
Pr1 Pr 0.956216(13) 0.175626(8) 0.685688(10)
P1 P 0.98779(7) -0.01107(4) 0.62799(5)
P2 P 1.18119(6) 0.13700(4) 0.89522(5)
O1 O 0.8579(2) 0.11470(11) 0.77893(15)
C1 C 1.1180(3) -0.04665(17) 0.6834(2)
O2 O 1.01818(18) 0.29613(12) 0.74581(14)
O3 O 0.9772(2) 0.18281(12) 0.53680(15)
O4 O 0.98322(18) 0.06115(11) 0.65195(13)
N1 N 0.8262(2) 0.16756(13) 0.80510(17)
O5 O 1.1144(2) 0.21562(13) 0.64027(15)
O6 O 1.10166(18) 0.15209(11) 0.81010(13)
O7 O 1.1130(2) 0.23176(15) 0.51166(17)
C2 C 1.4362(4) 0.1469(2) 0.8053(3)
H1 H 1.4469 0.1567 0.7530
C3 C 1.3171(3) 0.13552(16) 0.8892(2)
O8 O 0.7648(2) 0.16631(13) 0.84691(18)
O9 O 1.27470(19) 0.33415(11) 1.09742(14)
O10 O 0.8925(2) 0.29132(12) 0.62561(15)
C4 C 1.3327(3) 0.1508(2) 0.8127(2)
H2 H 1.2732 0.1637 0.7657
C5 C 1.4050(3) 0.1168(2) 0.9577(2)
H3 H 1.3948 0.1061 1.0099
C6 C 1.3045(3) -0.1027(2) 0.7925(3)
H4 H 1.3665 -0.1221 0.8320
C7 C 1.2060(3) 0.03779(18) 1.0185(2)
H5 H 1.2572 0.0666 1.0557
C8 C 1.0763(3) 0.01604(17) 0.8828(2)
H6 H 1.0382 0.0300 0.8271
O11 O 0.9394(2) 0.38763(12) 0.68545(16)
C9 C 0.9616(3) -0.02135(16) 0.51627(19)
H7 H 0.9704 -0.0691 0.5039
H8 H 0.8858 -0.0084 0.4862
N2 N 0.9502(2) 0.32664(13) 0.68570(16)
O12 O 0.8607(2) 0.22243(12) 0.78559(16)
C10 C 1.5230(3) 0.1289(3) 0.8735(3)
H9 H 1.5935 0.1269 0.8683
N3 N 1.0695(2) 0.21073(14) 0.56119(18)
C11 C 1.1740(3) 0.19814(16) 0.9720(2)
H10 H 1.1040 0.1931 0.9830
H11 H 1.2324 0.1891 1.0253
C12 C 1.1946(3) -0.0060(2) 0.7380(2)
H12 H 1.1834 0.0409 0.7384
C13 C 1.2311(3) -0.1428(2) 0.7355(3)
H13 H 1.2442 -0.1894 0.7336
C14 C 1.2883(3) -0.0347(3) 0.7925(3)
H14 H 1.3414 -0.0070 0.8298
C15 C 1.1384(3) -0.11509(18) 0.6810(2)
H15 H 1.0879 -0.1428 0.6415
C16 C 1.5076(3) 0.1137(3) 0.9494(3)
H16 H 1.5676 0.1011 0.9962
C17 C 1.1838(3) -0.02411(19) 1.0460(2)
H17 H 1.2196 -0.0376 1.1024
C18 C 1.1532(3) 0.05798(16) 0.9357(2)
C19 C 0.7979(3) -0.16467(17) 0.6615(2)
H18 H 0.7854 -0.2105 0.6464
C20 C 0.7447(3) -0.13507(18) 0.7122(2)
H19 H 0.6950 -0.1605 0.7308
C21 C 0.8365(3) -0.03185(17) 0.7089(2)
H20 H 0.8504 0.0135 0.7260
C22 C 0.8695(3) -0.12763(16) 0.6327(2)
H21 H 0.9045 -0.1475 0.5967
C23 C 0.7633(3) -0.06882(18) 0.7358(2)
H22 H 0.7263 -0.0487 0.7702
C24 C 0.8896(3) -0.06055(16) 0.65742(19)
C25 C 1.1098(3) -0.06655(19) 0.9923(2)
H23 H 1.0965 -0.1096 1.0110
C26 C 1.0551(3) -0.04565(18) 0.9107(2)
H24 H 1.0027 -0.0741 0.8740
P3 P 1.17252(7) 0.32920(4) 1.02374(5)
C27 C 1.0866(3) 0.26820(19) 1.1368(2)
H25 H 1.1588 0.2679 1.1740
C28 C 1.1845(3) 0.27038(16) 0.9452(2)
H26 H 1.2555 0.2763 0.9362
H27 H 1.1273 0.2795 0.8912
C29 C 1.0634(3) 0.29805(16) 1.0578(2)
C30 C 0.8991(3) 0.23970(19) 1.1078(2)
H28 H 0.8429 0.2204 1.1251
C31 C 1.1360(3) 0.40978(16) 0.9755(2)
C32 C 1.1586(3) 0.46472(18) 1.0295(2)
H29 H 1.1913 0.4581 1.0882
C33 C 1.0049(3) 0.2390(2) 1.1613(2)
H30 H 1.0213 0.2184 1.2150
C34 C 1.1339(3) 0.52879(18) 0.9982(2)
H31 H 1.1491 0.5659 1.0356
C35 C 1.0873(3) 0.53891(18) 0.9131(2)
H32 H 1.0714 0.5830 0.8914
C36 C 0.8757(3) 0.2687(2) 1.0289(2)
H33 H 0.8034 0.2687 0.9919
C37 C 0.9567(3) 0.29741(18) 1.0036(2)
H34 H 0.9400 0.3168 0.9492
C38 C 1.0879(3) 0.42007(18) 0.8901(2)
H35 H 1.0717 0.3830 0.8527
C39 C 1.0635(4) 0.48421(19) 0.8590(2)
H36 H 1.0302 0.4910 0.8003
C9B C 1.0384(3) 0.02135(16) 0.48373(19)
P1B P 1.01221(7) 0.01107(4) 0.37201(5)
C1B C 0.8820(3) 0.04665(17) 0.3166(2)
C12B C 0.8054(3) 0.0060(2) 0.2620(2)
H12B H 0.8166 -0.0409 0.2616
C14B C 0.7117(3) 0.0347(3) 0.2075(3)
C6B C 0.6955(3) 0.1027(2) 0.2075(3)
H4B H 0.6335 0.1221 0.1680
C13B C 0.7689(3) 0.1428(2) 0.2645(3)
H13B H 0.7558 0.1894 0.2664
C15B C 0.8616(3) 0.11509(18) 0.3190(2)
H15B H 0.9121 0.1428 0.3585
H14B H 0.6586 0.0070 0.1702
O4B O 1.01678(18) -0.06115(11) 0.34805(13)
C24B C 1.1104(3) 0.06055(16) 0.34258(19)
C21B C 1.1635(3) 0.03185(17) 0.2911(2)
H20B H 1.1496 -0.0135 0.2740
C23B C 1.2367(3) 0.06882(18) 0.2642(2)
C20B C 1.2553(3) 0.13507(18) 0.2878(2)
C19B C 1.2021(3) 0.16467(17) 0.3385(2)
H18B H 1.2146 0.2105 0.3536
C22B C 1.1305(3) 0.12763(16) 0.3673(2)
H21B H 1.0955 0.1475 0.4033
H19B H 1.3050 0.1605 0.2692
H22B H 1.2737 0.0487 0.2298
H7B H 1.0296 0.0691 0.4961
H8B H 1.1142 0.0084 0.5138
P2A P 0.68119(6) 0.36300(4) 0.39522(5)
O6A O 0.60166(18) 0.34791(11) 0.31010(13)
C2A C 0.9362(4) 0.3531(2) 0.3053(3)
H1A H 0.9469 0.3433 0.2530
C3A C 0.8171(3) 0.36448(16) 0.3892(2)
O9A O 0.77470(19) 0.16585(11) 0.59742(14)
C4A C 0.8327(3) 0.3492(2) 0.3127(2)
H2A H 0.7732 0.3363 0.2657
C5A C 0.9050(3) 0.3832(2) 0.4577(2)
H3A H 0.8948 0.3939 0.5099
C7A C 0.7060(3) 0.46221(18) 0.5185(2)
H5A H 0.7572 0.4334 0.5557
C8A C 0.5763(3) 0.48396(17) 0.3828(2)
H6A H 0.5382 0.4700 0.3271
C10A C 1.0230(3) 0.3711(3) 0.3735(3)
H9A H 1.0935 0.3731 0.3683
C11A C 0.6740(3) 0.30186(16) 0.4720(2)
H10A H 0.6040 0.3069 0.4830
H11A H 0.7324 0.3109 0.5253
C16A C 1.0076(3) 0.3863(3) 0.4494(3)
H16A H 1.0676 0.3989 0.4962
C17A C 0.6838(3) 0.52411(19) 0.5460(2)
H17A H 0.7196 0.5376 0.6024
C18A C 0.6532(3) 0.44202(16) 0.4357(2)
C25A C 0.6098(3) 0.56655(19) 0.4923(2)
H23A H 0.5965 0.6096 0.5110
C26A C 0.5551(3) 0.54565(18) 0.4107(2)
H24A H 0.5027 0.5741 0.3740
P3A P 0.67252(7) 0.17080(4) 0.52374(5)
C27A C 0.5866(3) 0.23180(19) 0.6368(2)
H25A H 0.6588 0.2321 0.6740
C28A C 0.6845(3) 0.22962(16) 0.4452(2)
H26A H 0.7555 0.2237 0.4362
H27A H 0.6273 0.2205 0.3912
C29A C 0.5634(3) 0.20195(16) 0.5578(2)
C30A C 0.3991(3) 0.26030(19) 0.6078(2)
H28A H 0.3429 0.2796 0.6251
C31A C 0.6360(3) 0.09022(16) 0.4755(2)
C32A C 0.6586(3) 0.03528(18) 0.5295(2)
H29A H 0.6913 0.0419 0.5882
C33A C 0.5049(3) 0.2610(2) 0.6613(2)
H30A H 0.5213 0.2816 0.7150
C34A C 0.6339(3) -0.02879(18) 0.4982(2)
H31A H 0.6491 -0.0659 0.5356
C35A C 0.5873(3) -0.03891(18) 0.4131(2)
H32A H 0.5714 -0.0830 0.3914
C36A C 0.3757(3) 0.2313(2) 0.5289(2)
H33A H 0.3034 0.2313 0.4919
C37A C 0.4567(3) 0.20259(18) 0.5036(2)
H34A H 0.4400 0.1832 0.4492
C38A C 0.5879(3) 0.07993(18) 0.3901(2)
H35A H 0.5717 0.1170 0.3527
C39A C 0.5635(4) 0.01579(19) 0.3590(2)
H36A H 0.5302 0.0090 0.3003
Pr1B Pr 1.043784(13) -0.175626(8) 0.314312(10)
O1B O 1.1421(2) -0.11470(11) 0.22107(15)
N1B N 1.1738(2) -0.16756(13) 0.19490(17)
O8B O 1.2352(2) -0.16631(13) 0.15309(18)
O12B O 1.1393(2) -0.22243(12) 0.21441(16)
O2B O 0.98182(18) -0.29613(12) 0.25419(14)
O10B O 1.1075(2) -0.29132(12) 0.37439(15)
O11B O 1.0606(2) -0.38763(12) 0.31455(16)
N2B N 1.0498(2) -0.32664(13) 0.31430(16)
O3B O 1.0228(2) -0.18281(12) 0.46320(15)
O5B O 0.8856(2) -0.21562(13) 0.35973(15)
O7B O 0.8870(2) -0.23176(15) 0.48834(17)
N3B N 0.9305(2) -0.21073(14) 0.43881(18)
Pr1A Pr 1.456216(13) 0.324374(8) 1.185688(10)
Pr1A_2 Pr 0.456216(13) 0.324374(8) 0.185688(10)
O6B O 0.89834(18) -0.15209(11) 0.18990(13)
O9C O 1.22530(19) -0.16585(11) 0.40258(14)
loop_
_geom_bond_atom_site_label_1
_geom_bond_atom_site_label_2
_geom_bond_site_symmetry_1
_geom_bond_site_symmetry_2
Pr1 O1 1_555 1_555
P1 C1 1_555 1_555
P2 O6 1_555 1_555
O1 N1 1_555 1_555
C1 C12 1_555 1_555
O2 Pr1 1_555 1_555
O3 Pr1 1_555 1_555
O4 Pr1 1_555 1_555
N1 O8 1_555 1_555
O5 Pr1 1_555 1_555
O6 Pr1 1_555 1_555
O7 N3 1_555 1_555
C2 H1 1_555 1_555
C3 P2 1_555 1_555
O9 P3 1_555 1_555
O10 Pr1 1_555 1_555
C4 C2 1_555 1_555
H2 C4 1_555 1_555
C5 C3 1_555 1_555
H3 C5 1_555 1_555
C6 H4 1_555 1_555
C7 H5 1_555 1_555
C8 H6 1_555 1_555
O11 N2 1_555 1_555
C9 P1 1_555 1_555
H7 C9 1_555 1_555
H8 C9 1_555 1_555
N2 O2 1_555 1_555
O12 Pr1 1_555 1_555
C10 C2 1_555 1_555
H9 C10 1_555 1_555
N3 O3 1_555 1_555
C11 P2 1_555 1_555
H10 C11 1_555 1_555
H11 C11 1_555 1_555
C12 H12 1_555 1_555
C13 C6 1_555 1_555
H13 C13 1_555 1_555
C14 C6 1_555 1_555
H14 C14 1_555 1_555
C15 C1 1_555 1_555
H15 C15 1_555 1_555
C16 C5 1_555 1_555
H16 C16 1_555 1_555
C17 C7 1_555 1_555
H17 C17 1_555 1_555
C18 P2 1_555 1_555
C19 H18 1_555 1_555
C20 C19 1_555 1_555
H19 C20 1_555 1_555
C21 H20 1_555 1_555
C22 C19 1_555 1_555
H21 C22 1_555 1_555
C23 C20 1_555 1_555
H22 C23 1_555 1_555
C24 P1 1_555 1_555
C25 C17 1_555 1_555
H23 C25 1_555 1_555
C26 C8 1_555 1_555
H24 C26 1_555 1_555
P3 C28 1_555 1_555
C27 H25 1_555 1_555
C28 C11 1_555 1_555
H26 C28 1_555 1_555
H27 C28 1_555 1_555
C29 P3 1_555 1_555
C30 H28 1_555 1_555
C31 P3 1_555 1_555
C32 C31 1_555 1_555
H29 C32 1_555 1_555
C33 C27 1_555 1_555
H30 C33 1_555 1_555
C34 C32 1_555 1_555
H31 C34 1_555 1_555
C35 C34 1_555 1_555
H32 C35 1_555 1_555
C36 C30 1_555 1_555
H33 C36 1_555 1_555
C37 C29 1_555 1_555
H34 C37 1_555 1_555
C38 C31 1_555 1_555
H35 C38 1_555 1_555
C39 C35 1_555 1_555
H36 C39 1_555 1_555
C9B C9 1_555 1_555
P1B C9B 1_555 1_555
C1B P1B 1_555 1_555
C12B C1B 1_555 1_555
H12B C12B 1_555 1_555
C14B C12B 1_555 1_555
C6B C14B 1_555 1_555
H4B C6B 1_555 1_555
C13B C6B 1_555 1_555
H13B C13B 1_555 1_555
C15B C1B 1_555 1_555
H15B C15B 1_555 1_555
H14B C14B 1_555 1_555
O4B P1B 1_555 1_555
C24B P1B 1_555 1_555
C21B C24B 1_555 1_555
H20B C21B 1_555 1_555
C23B C21B 1_555 1_555
C20B C23B 1_555 1_555
C19B C20B 1_555 1_555
H18B C19B 1_555 1_555
C22B C24B 1_555 1_555
H21B C22B 1_555 1_555
H19B C20B 1_555 1_555
H22B C23B 1_555 1_555
H7B C9B 1_555 1_555
H8B C9B 1_555 1_555
P2A O6A 1_555 1_555
O6A Pr1A_2 1_555 1_555
C2A H1A 1_555 1_555
C3A P2A 1_555 1_555
O9A Pr1 1_555 1_555
C4A C2A 1_555 1_555
H2A C4A 1_555 1_555
C5A C3A 1_555 1_555
H3A C5A 1_555 1_555
C7A H5A 1_555 1_555
C8A H6A 1_555 1_555
C10A C2A 1_555 1_555
H9A C10A 1_555 1_555
C11A P2A 1_555 1_555
H10A C11A 1_555 1_555
H11A C11A 1_555 1_555
C16A C5A 1_555 1_555
H16A C16A 1_555 1_555
C17A C7A 1_555 1_555
H17A C17A 1_555 1_555
C18A P2A 1_555 1_555
C25A C17A 1_555 1_555
H23A C25A 1_555 1_555
C26A C8A 1_555 1_555
H24A C26A 1_555 1_555
P3A O9A 1_555 1_555
C27A H25A 1_555 1_555
C28A C11A 1_555 1_555
H26A C28A 1_555 1_555
H27A C28A 1_555 1_555
C29A P3A 1_555 1_555
C30A H28A 1_555 1_555
C31A P3A 1_555 1_555
C32A C31A 1_555 1_555
H29A C32A 1_555 1_555
C33A C27A 1_555 1_555
H30A C33A 1_555 1_555
C34A C32A 1_555 1_555
H31A C34A 1_555 1_555
C35A C34A 1_555 1_555
H32A C35A 1_555 1_555
C36A C30A 1_555 1_555
H33A C36A 1_555 1_555
C37A C29A 1_555 1_555
H34A C37A 1_555 1_555
C38A C31A 1_555 1_555
H35A C38A 1_555 1_555
C39A C35A 1_555 1_555
H36A C39A 1_555 1_555
Pr1B O4B 1_555 1_555
O1B Pr1B 1_555 1_555
N1B O1B 1_555 1_555
O8B N1B 1_555 1_555
O12B Pr1B 1_555 1_555
O2B Pr1B 1_555 1_555
O10B Pr1B 1_555 1_555
O11B N2B 1_555 1_555
N2B O2B 1_555 1_555
O3B Pr1B 1_555 1_555
O5B Pr1B 1_555 1_555
O7B N3B 1_555 1_555
N3B O3B 1_555 1_555
Pr1A O9 1_555 1_555
O6B Pr1B 1_555 1_555
O9C Pr1B 1_555 1_555
P1 O4 1_555 1_555
N1 O12 1_555 1_555
O5 N3 1_555 1_555
C3 C4 1_555 1_555
O10 N2 1_555 1_555
C7 C18 1_555 1_555
C8 C18 1_555 1_555
C10 C16 1_555 1_555
C12 C14 1_555 1_555
C13 C15 1_555 1_555
C21 C24 1_555 1_555
C21 C23 1_555 1_555
C22 C24 1_555 1_555
C25 C26 1_555 1_555
C27 C29 1_555 1_555
C30 C33 1_555 1_555
C36 C37 1_555 1_555
C38 C39 1_555 1_555
C13B C15B 1_555 1_555
C19B C22B 1_555 1_555
C3A C4A 1_555 1_555
C7A C18A 1_555 1_555
C8A C18A 1_555 1_555
C10A C16A 1_555 1_555
C25A C26A 1_555 1_555
P3A C28A 1_555 1_555
C27A C29A 1_555 1_555
C30A C33A 1_555 1_555
C36A C37A 1_555 1_555
C38A C39A 1_555 1_555
N1B O12B 1_555 1_555
O10B N2B 1_555 1_555
O5B N3B 1_555 1_555

#END
