
#######################################################################
#
#                 Cambridge Crystallographic Data Centre
#                                CCDC 
#
#######################################################################
#
# If this CIF has been generated from an entry in the Cambridge 
# Structural Database, then it will include bibliographic, chemical, 
# crystal, experimental, refinement or atomic coordinate data resulting 
# from the CCDC's data processing and validation procedures.
#
#######################################################################

data_AYEZOT
_symmetry_cell_setting           orthorhombic
_symmetry_space_group_name_H-M   'P c a 21'
_symmetry_Int_Tables_number      29
_space_group_name_Hall           'P 2c -2ac'
loop_
_symmetry_equiv_pos_site_id
_symmetry_equiv_pos_as_xyz
1 x,y,z
2 -x,-y,1/2+z
3 1/2+x,-y,z
4 1/2-x,y,1/2+z
_cell_length_a                   15.197(14)
_cell_length_b                   16.435(14)
_cell_length_c                   24.33(2)
_cell_angle_alpha                90
_cell_angle_beta                 90
_cell_angle_gamma                90
_cell_volume                     6076.73
loop_
_atom_site_label
_atom_site_type_symbol
_atom_site_fract_x
_atom_site_fract_y
_atom_site_fract_z
Pr1 Pr 0.119530(15) 0.24688(2) 0.08876(4)
P1 P 0.32934(11) 0.30591(10) 0.17704(8)
P2 P 0.33021(11) 0.19778(10) -0.00146(8)
P3 P 0.53266(10) 0.57311(10) 0.18216(8)
P4 P 0.55284(11) -0.05865(10) -0.00365(8)
O1 O 0.2510(3) 0.2296(3) 0.0293(2)
O2 O 0.2532(3) 0.2720(3) 0.1463(2)
C1 C 0.4238(6) 0.2385(4) 0.1778(4)
O3 O 0.1456(3) 0.3902(3) 0.0487(2)
N1 N -0.0812(3) 0.2511(4) 0.0954(5)
O4 O 0.1397(3) 0.1036(3) 0.1306(2)
C2 C 0.3053(5) 0.3305(4) 0.2479(3)
O5 O 0.1249(4) 0.4361(3) -0.0343(2)
N2 N 0.1260(4) 0.1138(3) 0.1815(3)
O6 O 0.1302(5) 0.0576(3) 0.2124(3)
N3 N 0.1231(4) 0.3795(3) -0.0009(3)
O7 O 0.5644(3) 0.6437(3) 0.1499(2)
C3 C 0.3075(5) 0.1808(4) -0.0718(3)
C4 C 0.3679(4) 0.3985(4) 0.1438(3)
N4 N 0.4231(3) 0.4466(3) 0.1708(2)
C5 C 0.4507(4) 0.5127(4) 0.1445(3)
C6 C 0.4252(4) 0.5347(3) 0.0915(4)
H1 H 0.4469 0.5828 0.0746
C7 C 0.3681(4) 0.4847(4) 0.0650(3)
H2 H 0.3483 0.4979 0.0291
C8 C 0.3388(4) 0.4141(3) 0.0906(3)
H3 H 0.3001 0.3776 0.0724
C9 C 0.3637(4) 0.1009(4) 0.0280(3)
N5 N 0.4360(3) 0.0635(3) 0.0057(2)
C10 C 0.4815(4) 0.6053(4) 0.2449(3)
C11 C 0.2632(4) 0.3749(4) 0.3539(3)
H4 H 0.2484 0.3943 0.3895
O8 O 0.5768(3) -0.1346(3) 0.02726(19)
O9 O 0.1103(3) 0.1840(3) 0.1958(2)
C12 C 0.6170(4) 0.4997(4) 0.1946(3)
C13 C 0.4799(5) 0.1017(4) 0.1802(3)
H5 H 0.4698 0.0447 0.1816
O10 O -0.0403(4) 0.2787(3) 0.0550(2)
C14 C 0.4921(4) -0.1642(4) -0.0820(3)
H6 H 0.4986 -0.2030 -0.0533
C15 C 0.3501(5) 0.3662(4) 0.3399(3)
H7 H 0.3951 0.3742 0.3665
C16 C 0.3714(5) 0.3453(4) 0.2853(3)
H8 H 0.4312 0.3414 0.2743
C17 C 0.4779(4) 0.6903(4) 0.2545(3)
H9 H 0.5006 0.7280 0.2285
C18 C 0.4497(5) -0.1311(6) -0.1714(3)
H10 H 0.4273 -0.1466 -0.2063
C19 C 0.3597(5) 0.1458(4) -0.1622(3)
H11 H 0.4062 0.1320 -0.1866
C20 C 0.1977(5) 0.3563(4) 0.3179(3)
H12 H 0.1383 0.3573 0.3300
C21 C 0.2221(4) 0.1827(4) -0.0905(3)
H13 H 0.1758 0.1963 -0.0660
O11 O -0.1602(3) 0.2585(3) 0.1002(4)
C22 C 0.2030(6) 0.1648(4) -0.1449(3)
H14 H 0.1436 0.1642 -0.1571
O12 O -0.0356(3) 0.2103(3) 0.1289(2)
C23 C 0.3777(5) 0.1636(4) -0.1087(3)
H15 H 0.4369 0.1645 -0.0961
C24 C 0.4084(5) 0.5807(4) 0.3310(3)
H16 H 0.3828 0.5438 0.3565
O13 O 0.0960(4) 0.3097(3) -0.0142(2)
C25 C 0.4085(4) 0.1550(4) 0.1798(3)
H17 H 0.3501 0.1346 0.1809
C26 C 0.2159(5) 0.3360(4) 0.2640(3)
H18 H 0.1698 0.3261 0.2385
C27 C 0.4610(5) -0.1903(5) -0.1322(3)
H19 H 0.4481 -0.2459 -0.1392
C28 C 0.4395(5) 0.7166(4) 0.3041(3)
H20 H 0.4357 0.7733 0.3114
C29 C 0.6390(4) 0.4686(4) 0.2462(3)
H21 H 0.6108 0.4892 0.2782
C30 C 0.7023(5) 0.4072(4) 0.2512(3)
H22 H 0.7154 0.3862 0.2866
C31 C 0.6611(4) 0.4677(4) 0.1491(3)
H23 H 0.6477 0.4884 0.1137
C32 C 0.4458(4) 0.5509(4) 0.2833(3)
H24 H 0.4475 0.4940 0.2766
C33 C 0.7464(5) 0.3761(4) 0.2059(4)
H25 H 0.7903 0.3354 0.2096
C34 C 0.5106(4) 0.2661(4) 0.1787(3)
H26 H 0.5224 0.3229 0.1795
C35 C 0.5642(5) 0.1303(4) 0.1786(3)
H27 H 0.6119 0.0929 0.1774
C36 C 0.4268(4) 0.3310(4) -0.0334(3)
H28 H 0.3820 0.3381 -0.0602
C37 C 0.7655(6) 0.1369(5) -0.0115(5)
H29 H 0.8083 0.1789 -0.0134
C38 C 0.4890(4) 0.2567(4) 0.0414(3)
H30 H 0.4865 0.2120 0.0660
C39 C 0.4605(4) -0.0080(4) 0.0286(3)
C40 C 0.6364(4) 0.0170(4) -0.0083(3)
C41 C 0.7630(5) 0.0798(4) -0.0515(4)
H31 H 0.8050 0.0807 -0.0804
C42 C 0.6980(4) 0.0195(4) -0.0501(3)
H32 H 0.6963 -0.0204 -0.0783
C43 C 0.6435(4) 0.0752(4) 0.0327(3)
H33 H 0.6033 0.0741 0.0626
C44 C 0.4239(5) 0.2661(4) 0.0006(4)
C45 C 0.5806(4) 0.2106(4) 0.1785(3)
H34 H 0.6395 0.2297 0.1784
C46 C 0.7228(4) 0.4079(4) 0.1539(3)
H35 H 0.7504 0.3872 0.1218
C47 C 0.2712(5) 0.1477(4) -0.1816(3)
H36 H 0.2587 0.1375 -0.2192
C48 C 0.4075(4) 0.6628(4) 0.3422(3)
H37 H 0.3848 0.6821 0.3761
C49 C 0.5139(4) -0.0859(4) -0.0718(3)
C50 C 0.7081(5) 0.1354(5) 0.0313(4)
H38 H 0.7119 0.1747 0.0598
C51 C 0.5024(5) -0.0274(4) -0.1134(3)
H39 H 0.5177 0.0279 -0.1072
C52 C 0.4690(6) -0.0515(5) -0.1625(3)
H40 H 0.4592 -0.0127 -0.1908
C53 C 0.5573(5) 0.3136(4) 0.0455(3)
H41 H 0.6024 0.3070 0.0721
C54 C 0.3154(4) 0.0673(4) 0.0697(3)
H42 H 0.2642 0.0940 0.0829
C55 C 0.3417(4) -0.0049(3) 0.0922(3)
H43 H 0.3086 -0.0292 0.1210
C56 C 0.4174(5) -0.0427(4) 0.0725(3)
H44 H 0.4388 -0.0913 0.0889
C57 C 0.4944(5) 0.3876(4) -0.0297(3)
H45 H 0.4964 0.4319 -0.0547
C58 C 0.5582(5) 0.3803(4) 0.0097(4)
H46 H 0.6030 0.4204 0.0127
O7B O 0.0644(3) 0.3563(3) 0.1499(2)
O8B O 0.0768(3) 0.1346(3) 0.02726(19)
Pr1B Pr 0.619530(15) 0.75312(2) 0.08876(4)
Pr1B_2 Pr 0.619530(15) -0.24688(2) 0.08876(4)
C59 C 0.3796(14) 0.6286(9) -0.0614(5)
H47 H 0.3917 0.6864 -0.0699
H48 H 0.4174 0.6137 -0.0298
Cl1 Cl 0.2756(3) 0.6229(3) -0.04014(16)
Cl2 Cl 0.41237(18) 0.57643(17) -0.11283(12)
C61 C 0.2263(11) -0.0835(10) -0.2374(7)
H51 H 0.2673 -0.0414 -0.2513
H52 H 0.2567 -0.1153 -0.2086
Cl5 Cl 0.1342(4) -0.0387(3) -0.2109(3)
Cl6 Cl 0.1946(4) -0.1457(3) -0.2897(2)
C60? C 0.1843(14) -0.0419(11) -0.2449(8)
H49? H 0.1479 0.0073 -0.2390
H50? H 0.2395 -0.0254 -0.2635
Cl3? Cl 0.1292(6) -0.1099(4) -0.2839(3)
Cl4? Cl 0.2096(4) -0.0909(4) -0.1781(2)
loop_
_geom_bond_atom_site_label_1
_geom_bond_atom_site_label_2
_geom_bond_site_symmetry_1
_geom_bond_site_symmetry_2
Pr1 O1 1_555 1_555
P1 O2 1_555 1_555
P2 O1 1_555 1_555
P3 O7 1_555 1_555
P4 O8 1_555 1_555
O2 Pr1 1_555 1_555
C1 P1 1_555 1_555
O3 Pr1 1_555 1_555
N1 O10 1_555 1_555
O4 Pr1 1_555 1_555
C2 P1 1_555 1_555
O5 N3 1_555 1_555
N2 O4 1_555 1_555
O6 N2 1_555 1_555
N3 O3 1_555 1_555
O7 Pr1B 1_555 1_555
C3 P2 1_555 1_555
C4 P1 1_555 1_555
N4 C4 1_555 1_555
C5 P3 1_555 1_555
C6 C5 1_555 1_555
H1 C6 1_555 1_555
C7 C6 1_555 1_555
H2 C7 1_555 1_555
C8 C4 1_555 1_555
H3 C8 1_555 1_555
C9 P2 1_555 1_555
N5 C9 1_555 1_555
C10 P3 1_555 1_555
C11 H4 1_555 1_555
O8 Pr1B_2 1_555 1_555
O9 Pr1 1_555 1_555
C12 P3 1_555 1_555
C13 H5 1_555 1_555
O10 Pr1 1_555 1_555
C14 H6 1_555 1_555
C15 C11 1_555 1_555
H7 C15 1_555 1_555
C16 C2 1_555 1_555
H8 C16 1_555 1_555
C17 C10 1_555 1_555
H9 C17 1_555 1_555
C18 H10 1_555 1_555
C19 H11 1_555 1_555
C20 C11 1_555 1_555
H12 C20 1_555 1_555
C21 C3 1_555 1_555
H13 C21 1_555 1_555
O11 N1 1_555 1_555
C22 C21 1_555 1_555
H14 C22 1_555 1_555
O12 Pr1 1_555 1_555
C23 C3 1_555 1_555
H15 C23 1_555 1_555
C24 H16 1_555 1_555
O13 Pr1 1_555 1_555
C25 C1 1_555 1_555
H17 C25 1_555 1_555
C26 C2 1_555 1_555
H18 C26 1_555 1_555
C27 C14 1_555 1_555
H19 C27 1_555 1_555
C28 C17 1_555 1_555
H20 C28 1_555 1_555
C29 C12 1_555 1_555
H21 C29 1_555 1_555
C30 C29 1_555 1_555
H22 C30 1_555 1_555
C31 C12 1_555 1_555
H23 C31 1_555 1_555
C32 C10 1_555 1_555
H24 C32 1_555 1_555
C33 C30 1_555 1_555
H25 C33 1_555 1_555
C34 C1 1_555 1_555
H26 C34 1_555 1_555
C35 C13 1_555 1_555
H27 C35 1_555 1_555
C36 H28 1_555 1_555
C37 H29 1_555 1_555
C38 H30 1_555 1_555
C39 P4 1_555 1_555
C40 P4 1_555 1_555
C41 C37 1_555 1_555
H31 C41 1_555 1_555
C42 C40 1_555 1_555
H32 C42 1_555 1_555
C43 C40 1_555 1_555
H33 C43 1_555 1_555
C44 P2 1_555 1_555
C45 C34 1_555 1_555
H34 C45 1_555 1_555
C46 C31 1_555 1_555
H35 C46 1_555 1_555
C47 C19 1_555 1_555
H36 C47 1_555 1_555
C48 C24 1_555 1_555
H37 C48 1_555 1_555
C49 P4 1_555 1_555
C50 C37 1_555 1_555
H38 C50 1_555 1_555
C51 C49 1_555 1_555
H39 C51 1_555 1_555
C52 C18 1_555 1_555
H40 C52 1_555 1_555
C53 C38 1_555 1_555
H41 C53 1_555 1_555
C54 C9 1_555 1_555
H42 C54 1_555 1_555
C55 C54 1_555 1_555
H43 C55 1_555 1_555
C56 C39 1_555 1_555
H44 C56 1_555 1_555
C57 C36 1_555 1_555
H45 C57 1_555 1_555
C58 C53 1_555 1_555
H46 C58 1_555 1_555
C59 H47 1_555 1_555
H48 C59 1_555 1_555
Cl1 C59 1_555 1_555
Cl2 C59 1_555 1_555
C61 H51 1_555 1_555
H52 C61 1_555 1_555
Cl5 C61 1_555 1_555
Cl6 C61 1_555 1_555
O7B Pr1 1_555 1_555
O8B Pr1 1_555 1_555
N1 O12 1_555 1_555
N2 O9 1_555 1_555
N3 O13 1_555 1_555
N4 C5 1_555 1_555
C7 C8 1_555 1_555
N5 C39 1_555 1_555
C13 C25 1_555 1_555
C14 C49 1_555 1_555
C15 C16 1_555 1_555
C18 C27 1_555 1_555
C19 C23 1_555 1_555
C20 C26 1_555 1_555
C22 C47 1_555 1_555
C24 C32 1_555 1_555
C28 C48 1_555 1_555
C33 C46 1_555 1_555
C35 C45 1_555 1_555
C36 C44 1_555 1_555
C38 C44 1_555 1_555
C41 C42 1_555 1_555
C43 C50 1_555 1_555
C51 C52 1_555 1_555
C55 C56 1_555 1_555
C57 C58 1_555 1_555

#END
