
#######################################################################
#
#                 Cambridge Crystallographic Data Centre
#                                CCDC 
#
#######################################################################
#
# If this CIF has been generated from an entry in the Cambridge 
# Structural Database, then it will include bibliographic, chemical, 
# crystal, experimental, refinement or atomic coordinate data resulting 
# from the CCDC's data processing and validation procedures.
#
#######################################################################

data_AYICOA
_symmetry_cell_setting           monoclinic
_symmetry_space_group_name_H-M   'P 21/n'
_symmetry_Int_Tables_number      14
_space_group_name_Hall           '-P 2yn'
loop_
_symmetry_equiv_pos_site_id
_symmetry_equiv_pos_as_xyz
1 x,y,z
2 1/2+x,1/2-y,1/2+z
3 -x,-y,-z
4 1/2-x,1/2+y,1/2-z
_cell_length_a                   12.610(3)
_cell_length_b                   19.257(5)
_cell_length_c                   19.014(5)
_cell_angle_alpha                90
_cell_angle_beta                 108.153(5)
_cell_angle_gamma                90
_cell_volume                     4387.38
loop_
_atom_site_label
_atom_site_type_symbol
_atom_site_fract_x
_atom_site_fract_y
_atom_site_fract_z
Ag1 Ag 0.5000 0.0000 1.0000
Ag2 Ag 1.0000 0.0000 1.0000
P1 P 0.74306(18) 0.01172(10) 0.99296(12)
P2 P 0.59453(17) 0.11118(12) 0.89733(12)
P3 P 0.80761(17) 0.08771(12) 0.88021(12)
N1 N 0.6208(5) 0.0436(4) 0.9546(3)
N2 N 0.8321(5) 0.0355(3) 0.9513(3)
N3 N 0.6882(5) 0.1221(3) 0.8596(3)
N4 N 0.7324(5) -0.0719(3) 0.9960(3)
H1 H 0.7517 -0.0925 1.0394
N5 N 0.4780(5) 0.1060(4) 0.8315(4)
H2 H 0.4215 0.1317 0.8338
N6 N 0.8352(5) 0.0384(3) 0.8182(3)
H3 H 0.8522 -0.0051 0.8311
N7 N 0.7898(5) 0.0312(4) 1.0812(3)
H4 H 0.7980 -0.0017 1.1145
N8 N 0.5793(5) 0.1751(3) 0.9515(4)
H5 H 0.5778 0.1618 0.9954
N9 N 0.8978(5) 0.1497(3) 0.8903(4)
H6 H 0.9630 0.1396 0.8851
C1 C 0.6916(6) -0.1148(4) 0.9290(4)
H7 H 0.6855 -0.0842 0.8855
C2 C 0.5764(7) -0.1448(4) 0.9197(5)
H8 H 0.5785 -0.1713 0.9647
H9 H 0.5225 -0.1063 0.9144
C3 C 0.5364(8) -0.1921(5) 0.8529(5)
H10 H 0.4642 -0.2132 0.8514
H11 H 0.5245 -0.1645 0.8072
C4 C 0.6200(7) -0.2485(4) 0.8558(5)
H12 H 0.6263 -0.2787 0.8990
H13 H 0.5936 -0.2773 0.8106
C5 C 0.7327(7) -0.2190(5) 0.8617(5)
H14 H 0.7282 -0.1927 0.8162
H15 H 0.7867 -0.2574 0.8663
C6 C 0.7739(7) -0.1707(5) 0.9295(5)
H16 H 0.7879 -0.1985 0.9752
H17 H 0.8454 -0.1492 0.9299
C7 C 0.4626(7) 0.0594(4) 0.7672(4)
H18 H 0.5380 0.0419 0.7689
C8 C 0.3920(7) -0.0031(5) 0.7722(4)
H19 H 0.3174 0.0129 0.7724
H20 H 0.4274 -0.0279 0.8193
C9 C 0.3782(8) -0.0530(5) 0.7079(5)
H21 H 0.3296 -0.0922 0.7119
H22 H 0.4519 -0.0721 0.7096
C10 C 0.3263(8) -0.0148(5) 0.6342(5)
H23 H 0.3199 -0.0471 0.5926
H24 H 0.2503 0.0011 0.6311
C11 C 0.3957(7) 0.0468(5) 0.6273(5)
H25 H 0.3578 0.0721 0.5810
H26 H 0.4689 0.0306 0.6248
C12 C 0.4134(7) 0.0960(5) 0.6940(5)
H27 H 0.4638 0.1342 0.6901
H28 H 0.3409 0.1168 0.6924
C13 C 0.8350(6) 0.0576(4) 0.7435(4)
H29 H 0.8624 0.1065 0.7456
C14 C 0.7196(7) 0.0550(5) 0.6873(5)
H30 H 0.6711 0.0891 0.7014
H31 H 0.6874 0.0083 0.6884
C15 C 0.7201(7) 0.0707(5) 0.6081(4)
H32 H 0.6447 0.0623 0.5730
H33 H 0.7388 0.1202 0.6045
C16 C 0.8036(7) 0.0260(5) 0.5869(4)
H34 H 0.8068 0.0404 0.5377
H35 H 0.7786 -0.0230 0.5833
C17 C 0.9195(8) 0.0314(5) 0.6430(5)
H36 H 0.9714 -0.0001 0.6288
H37 H 0.9478 0.0794 0.6440
C18 C 0.9140(7) 0.0121(5) 0.7177(4)
H38 H 0.9897 0.0156 0.7539
H39 H 0.8896 -0.0368 0.7166
C19 C 0.8181(7) 0.1035(5) 1.1050(4)
H40 H 0.7754 0.1351 1.0643
C20 C 0.7813(8) 0.1177(5) 1.1733(5)
H41 H 0.8154 0.0826 1.2117
H42 H 0.6992 0.1127 1.1595
C21 C 0.8146(8) 0.1914(5) 1.2060(5)
H43 H 0.7718 0.2267 1.1707
H44 H 0.7957 0.1962 1.2526
C22 C 0.9370(7) 0.2037(5) 1.2212(4)
H45 H 0.9796 0.1716 1.2607
H46 H 0.9554 0.2518 1.2393
C23 C 0.9717(8) 0.1927(5) 1.1532(5)
H47 H 1.0532 0.2001 1.1656
H48 H 0.9335 0.2270 1.1149
C24 C 0.9428(7) 0.1197(5) 1.1229(4)
H49 H 0.9864 0.0858 1.1597
H50 H 0.9644 0.1144 1.0774
C25 C 0.5679(7) 0.2502(4) 0.9387(5)
H51 H 0.6022 0.2624 0.8994
C26 C 0.4478(7) 0.2744(5) 0.9133(5)
H52 H 0.4096 0.2560 0.9476
H53 H 0.4101 0.2549 0.8636
C27 C 0.4360(9) 0.3527(5) 0.9097(5)
H54 H 0.4661 0.3709 0.8711
H55 H 0.3560 0.3652 0.8958
C28 C 0.4976(9) 0.3855(5) 0.9831(5)
H56 H 0.4911 0.4367 0.9788
H57 H 0.4636 0.3703 1.0210
C29 C 0.6185(9) 0.3651(5) 1.0066(6)
H58 H 0.6565 0.3849 1.0561
H59 H 0.6540 0.3850 0.9714
C30 C 0.6344(8) 0.2861(4) 1.0097(5)
H60 H 0.7146 0.2755 1.0197
H61 H 0.6115 0.2673 1.0512
C31 C 0.8773(7) 0.2225(4) 0.9079(4)
H62 H 0.8147 0.2227 0.9297
C32 C 0.8425(8) 0.2658(5) 0.8376(5)
H63 H 0.7736 0.2462 0.8027
H64 H 0.9019 0.2640 0.8137
C33 C 0.8217(9) 0.3419(5) 0.8547(6)
H65 H 0.8052 0.3698 0.8088
H66 H 0.7561 0.3443 0.8727
C34 C 0.9238(9) 0.3720(5) 0.9133(6)
H67 H 0.9870 0.3745 0.8929
H68 H 0.9068 0.4197 0.9258
C35 C 0.9567(9) 0.3284(5) 0.9823(5)
H69 H 0.8965 0.3293 1.0054
H70 H 1.0251 0.3477 1.0181
C36 C 0.9784(7) 0.2525(4) 0.9635(5)
H71 H 1.0420 0.2513 0.9434
H72 H 0.9983 0.2241 1.0091
P1B P 0.25694(18) -0.01172(10) 1.00704(12)
P2B P 0.40547(17) -0.11118(12) 1.10267(12)
P3B P 0.19239(17) -0.08771(12) 1.11979(12)
N1B N 0.3792(5) -0.0436(4) 1.0454(3)
N2B N 0.1679(5) -0.0355(3) 1.0487(3)
N3B N 0.3118(5) -0.1221(3) 1.1404(3)
N4B N 0.2676(5) 0.0719(3) 1.0040(3)
H1B H 0.2483 0.0925 0.9606
N5B N 0.5220(5) -0.1060(4) 1.1685(4)
H2B H 0.5785 -0.1317 1.1662
N6B N 0.1648(5) -0.0384(3) 1.1818(3)
H3B H 0.1478 0.0051 1.1689
N7B N 0.2102(5) -0.0312(4) 0.9188(3)
H4B H 0.2020 0.0017 0.8855
N8B N 0.4207(5) -0.1751(3) 1.0485(4)
H5B H 0.4222 -0.1618 1.0046
N9B N 0.1022(5) -0.1497(3) 1.1097(4)
H6B H 0.0370 -0.1396 1.1149
C1B C 0.3084(6) 0.1148(4) 1.0710(4)
H7B H 0.3145 0.0842 1.1145
C2B C 0.4236(7) 0.1448(4) 1.0803(5)
H8B H 0.4215 0.1713 1.0353
H9B H 0.4775 0.1063 1.0856
C3B C 0.4636(8) 0.1921(5) 1.1471(5)
H10B H 0.5358 0.2132 1.1486
H11B H 0.4755 0.1645 1.1928
C4B C 0.3800(7) 0.2485(4) 1.1442(5)
H12B H 0.3737 0.2787 1.1010
H13B H 0.4064 0.2773 1.1894
C5B C 0.2673(7) 0.2190(5) 1.1383(5)
H14B H 0.2718 0.1927 1.1838
H15B H 0.2133 0.2574 1.1337
C6B C 0.2261(7) 0.1707(5) 1.0705(5)
H16B H 0.2121 0.1985 1.0248
H17B H 0.1546 0.1492 1.0701
C7B C 0.5374(7) -0.0594(4) 1.2328(4)
H18B H 0.4620 -0.0419 1.2311
C8B C 0.6080(7) 0.0031(5) 1.2278(4)
H19B H 0.6826 -0.0129 1.2276
H20B H 0.5726 0.0279 1.1807
C9B C 0.6218(8) 0.0530(5) 1.2921(5)
H21B H 0.6704 0.0922 1.2881
H22B H 0.5481 0.0721 1.2904
C10B C 0.6737(8) 0.0148(5) 1.3658(5)
H23B H 0.6801 0.0471 1.4074
H24B H 0.7497 -0.0011 1.3689
C11B C 0.6043(7) -0.0468(5) 1.3727(5)
H25B H 0.6422 -0.0721 1.4190
H26B H 0.5311 -0.0306 1.3752
C12B C 0.5866(7) -0.0960(5) 1.3060(5)
H27B H 0.5362 -0.1342 1.3099
H28B H 0.6591 -0.1168 1.3076
C13B C 0.1650(6) -0.0576(4) 1.2565(4)
H29B H 0.1376 -0.1065 1.2544
C14B C 0.2804(7) -0.0550(5) 1.3127(5)
H30B H 0.3289 -0.0891 1.2986
H31B H 0.3126 -0.0083 1.3116
C15B C 0.2799(7) -0.0707(5) 1.3919(4)
H32B H 0.3553 -0.0623 1.4270
H33B H 0.2612 -0.1202 1.3955
C16B C 0.1964(7) -0.0260(5) 1.4131(4)
H34B H 0.1932 -0.0404 1.4623
H35B H 0.2214 0.0230 1.4167
C17B C 0.0805(8) -0.0314(5) 1.3570(5)
H36B H 0.0286 0.0001 1.3712
H37B H 0.0522 -0.0794 1.3560
C18B C 0.0860(7) -0.0121(5) 1.2823(4)
H38B H 0.0103 -0.0156 1.2461
H39B H 0.1104 0.0368 1.2834
C19B C 0.1819(7) -0.1035(5) 0.8950(4)
H40B H 0.2246 -0.1351 0.9357
C20B C 0.2187(8) -0.1177(5) 0.8267(5)
H41B H 0.1846 -0.0826 0.7883
H42B H 0.3008 -0.1127 0.8405
C21B C 0.1854(8) -0.1914(5) 0.7940(5)
H43B H 0.2282 -0.2267 0.8293
H44B H 0.2043 -0.1962 0.7474
C22B C 0.0630(7) -0.2037(5) 0.7788(4)
H45B H 0.0204 -0.1716 0.7393
H46B H 0.0446 -0.2518 0.7607
C23B C 0.0283(8) -0.1927(5) 0.8468(5)
H47B H -0.0532 -0.2001 0.8344
H48B H 0.0665 -0.2270 0.8851
C24B C 0.0572(7) -0.1197(5) 0.8771(4)
H49B H 0.0136 -0.0858 0.8403
H50B H 0.0356 -0.1144 0.9226
C25B C 0.4321(7) -0.2502(4) 1.0613(5)
H51B H 0.3978 -0.2624 1.1006
C26B C 0.5522(7) -0.2744(5) 1.0867(5)
H52B H 0.5904 -0.2560 1.0524
H53B H 0.5899 -0.2549 1.1364
C27B C 0.5640(9) -0.3527(5) 1.0903(5)
H54B H 0.5339 -0.3709 1.1289
H55B H 0.6440 -0.3652 1.1042
C28B C 0.5024(9) -0.3855(5) 1.0169(5)
H56B H 0.5089 -0.4367 1.0212
H57B H 0.5364 -0.3703 0.9790
C29B C 0.3815(9) -0.3651(5) 0.9934(6)
H58B H 0.3435 -0.3849 0.9439
H59B H 0.3460 -0.3850 1.0286
C30B C 0.3656(8) -0.2861(4) 0.9903(5)
H60B H 0.2854 -0.2755 0.9803
H61B H 0.3885 -0.2673 0.9488
C31B C 0.1227(7) -0.2225(4) 1.0921(4)
H62B H 0.1853 -0.2227 1.0703
C32B C 0.1575(8) -0.2658(5) 1.1624(5)
H63B H 0.2264 -0.2462 1.1973
H64B H 0.0981 -0.2640 1.1863
C33B C 0.1783(9) -0.3419(5) 1.1453(6)
H65B H 0.1948 -0.3698 1.1912
H66B H 0.2439 -0.3443 1.1273
C34B C 0.0762(9) -0.3720(5) 1.0867(6)
H67B H 0.0130 -0.3745 1.1071
H68B H 0.0932 -0.4197 1.0742
C35B C 0.0433(9) -0.3284(5) 1.0177(5)
H69B H 0.1035 -0.3293 0.9946
H70B H -0.0251 -0.3477 0.9819
C36B C 0.0216(7) -0.2525(4) 1.0365(5)
H71B H -0.0420 -0.2513 1.0566
H72B H 0.0017 -0.2241 0.9909
N2B_2 N 1.1679(5) -0.0355(3) 1.0487(3)
Ag2_2 Ag 0.0000 0.0000 1.0000
Cl1 Cl 0.16028(19) 0.15694(14) 0.81587(13)
O1 O 0.2720(5) 0.1451(4) 0.8657(4)
O2 O 0.1602(7) 0.1419(6) 0.7429(4)
O3 O 0.1260(8) 0.2259(5) 0.8232(6)
O4 O 0.0904(6) 0.1100(4) 0.8409(4)
loop_
_geom_bond_atom_site_label_1
_geom_bond_atom_site_label_2
_geom_bond_site_symmetry_1
_geom_bond_site_symmetry_2
Ag1 N1 1_555 1_555
Ag2 N2 1_555 1_555
P1 N1 1_555 1_555
P2 N1 1_555 1_555
P3 N2 1_555 1_555
N2 P1 1_555 1_555
N3 P2 1_555 1_555
N4 P1 1_555 1_555
H1 N4 1_555 1_555
N5 P2 1_555 1_555
H2 N5 1_555 1_555
N6 P3 1_555 1_555
H3 N6 1_555 1_555
N7 P1 1_555 1_555
H4 N7 1_555 1_555
N8 P2 1_555 1_555
H5 N8 1_555 1_555
N9 P3 1_555 1_555
H6 N9 1_555 1_555
C1 N4 1_555 1_555
H7 C1 1_555 1_555
C2 C1 1_555 1_555
H8 C2 1_555 1_555
H9 C2 1_555 1_555
C3 C2 1_555 1_555
H10 C3 1_555 1_555
H11 C3 1_555 1_555
C4 C3 1_555 1_555
H12 C4 1_555 1_555
H13 C4 1_555 1_555
C5 C4 1_555 1_555
H14 C5 1_555 1_555
H15 C5 1_555 1_555
C6 C1 1_555 1_555
H16 C6 1_555 1_555
H17 C6 1_555 1_555
C7 N5 1_555 1_555
H18 C7 1_555 1_555
C8 C7 1_555 1_555
H19 C8 1_555 1_555
H20 C8 1_555 1_555
C9 C8 1_555 1_555
H21 C9 1_555 1_555
H22 C9 1_555 1_555
C10 C9 1_555 1_555
H23 C10 1_555 1_555
H24 C10 1_555 1_555
C11 C10 1_555 1_555
H25 C11 1_555 1_555
H26 C11 1_555 1_555
C12 C7 1_555 1_555
H27 C12 1_555 1_555
H28 C12 1_555 1_555
C13 N6 1_555 1_555
H29 C13 1_555 1_555
C14 C13 1_555 1_555
H30 C14 1_555 1_555
H31 C14 1_555 1_555
C15 C14 1_555 1_555
H32 C15 1_555 1_555
H33 C15 1_555 1_555
C16 C15 1_555 1_555
H34 C16 1_555 1_555
H35 C16 1_555 1_555
C17 C16 1_555 1_555
H36 C17 1_555 1_555
H37 C17 1_555 1_555
C18 C13 1_555 1_555
H38 C18 1_555 1_555
H39 C18 1_555 1_555
C19 N7 1_555 1_555
H40 C19 1_555 1_555
C20 C19 1_555 1_555
H41 C20 1_555 1_555
H42 C20 1_555 1_555
C21 C20 1_555 1_555
H43 C21 1_555 1_555
H44 C21 1_555 1_555
C22 C21 1_555 1_555
H45 C22 1_555 1_555
H46 C22 1_555 1_555
C23 C22 1_555 1_555
H47 C23 1_555 1_555
H48 C23 1_555 1_555
C24 C19 1_555 1_555
H49 C24 1_555 1_555
H50 C24 1_555 1_555
C25 N8 1_555 1_555
H51 C25 1_555 1_555
C26 C25 1_555 1_555
H52 C26 1_555 1_555
H53 C26 1_555 1_555
C27 C26 1_555 1_555
H54 C27 1_555 1_555
H55 C27 1_555 1_555
C28 C27 1_555 1_555
H56 C28 1_555 1_555
H57 C28 1_555 1_555
C29 C28 1_555 1_555
H58 C29 1_555 1_555
H59 C29 1_555 1_555
C30 C25 1_555 1_555
H60 C30 1_555 1_555
H61 C30 1_555 1_555
C31 N9 1_555 1_555
H62 C31 1_555 1_555
C32 C31 1_555 1_555
H63 C32 1_555 1_555
H64 C32 1_555 1_555
C33 C32 1_555 1_555
H65 C33 1_555 1_555
H66 C33 1_555 1_555
C34 C33 1_555 1_555
H67 C34 1_555 1_555
H68 C34 1_555 1_555
C35 C34 1_555 1_555
H69 C35 1_555 1_555
H70 C35 1_555 1_555
C36 C31 1_555 1_555
H71 C36 1_555 1_555
H72 C36 1_555 1_555
Cl1 O1 1_555 1_555
O2 Cl1 1_555 1_555
O3 Cl1 1_555 1_555
O4 Cl1 1_555 1_555
P1B N1B 1_555 1_555
P2B N1B 1_555 1_555
P3B N2B 1_555 1_555
N1B Ag1 1_555 1_555
N2B P1B 1_555 1_555
N3B P2B 1_555 1_555
N4B P1B 1_555 1_555
H1B N4B 1_555 1_555
N5B P2B 1_555 1_555
H2B N5B 1_555 1_555
N6B P3B 1_555 1_555
H3B N6B 1_555 1_555
N7B P1B 1_555 1_555
H4B N7B 1_555 1_555
N8B P2B 1_555 1_555
H5B N8B 1_555 1_555
N9B P3B 1_555 1_555
H6B N9B 1_555 1_555
C1B N4B 1_555 1_555
H7B C1B 1_555 1_555
C2B C1B 1_555 1_555
H8B C2B 1_555 1_555
H9B C2B 1_555 1_555
C3B C2B 1_555 1_555
H10B C3B 1_555 1_555
H11B C3B 1_555 1_555
C4B C3B 1_555 1_555
H12B C4B 1_555 1_555
H13B C4B 1_555 1_555
C5B C4B 1_555 1_555
H14B C5B 1_555 1_555
H15B C5B 1_555 1_555
C6B C1B 1_555 1_555
H16B C6B 1_555 1_555
H17B C6B 1_555 1_555
C7B N5B 1_555 1_555
H18B C7B 1_555 1_555
C8B C7B 1_555 1_555
H19B C8B 1_555 1_555
H20B C8B 1_555 1_555
C9B C8B 1_555 1_555
H21B C9B 1_555 1_555
H22B C9B 1_555 1_555
C10B C9B 1_555 1_555
H23B C10B 1_555 1_555
H24B C10B 1_555 1_555
C11B C10B 1_555 1_555
H25B C11B 1_555 1_555
H26B C11B 1_555 1_555
C12B C7B 1_555 1_555
H27B C12B 1_555 1_555
H28B C12B 1_555 1_555
C13B N6B 1_555 1_555
H29B C13B 1_555 1_555
C14B C13B 1_555 1_555
H30B C14B 1_555 1_555
H31B C14B 1_555 1_555
C15B C14B 1_555 1_555
H32B C15B 1_555 1_555
H33B C15B 1_555 1_555
C16B C15B 1_555 1_555
H34B C16B 1_555 1_555
H35B C16B 1_555 1_555
C17B C16B 1_555 1_555
H36B C17B 1_555 1_555
H37B C17B 1_555 1_555
C18B C13B 1_555 1_555
H38B C18B 1_555 1_555
H39B C18B 1_555 1_555
C19B N7B 1_555 1_555
H40B C19B 1_555 1_555
C20B C19B 1_555 1_555
H41B C20B 1_555 1_555
H42B C20B 1_555 1_555
C21B C20B 1_555 1_555
H43B C21B 1_555 1_555
H44B C21B 1_555 1_555
C22B C21B 1_555 1_555
H45B C22B 1_555 1_555
H46B C22B 1_555 1_555
C23B C22B 1_555 1_555
H47B C23B 1_555 1_555
H48B C23B 1_555 1_555
C24B C19B 1_555 1_555
H49B C24B 1_555 1_555
H50B C24B 1_555 1_555
C25B N8B 1_555 1_555
H51B C25B 1_555 1_555
C26B C25B 1_555 1_555
H52B C26B 1_555 1_555
H53B C26B 1_555 1_555
C27B C26B 1_555 1_555
H54B C27B 1_555 1_555
H55B C27B 1_555 1_555
C28B C27B 1_555 1_555
H56B C28B 1_555 1_555
H57B C28B 1_555 1_555
C29B C28B 1_555 1_555
H58B C29B 1_555 1_555
H59B C29B 1_555 1_555
C30B C25B 1_555 1_555
H60B C30B 1_555 1_555
H61B C30B 1_555 1_555
C31B N9B 1_555 1_555
H62B C31B 1_555 1_555
C32B C31B 1_555 1_555
H63B C32B 1_555 1_555
H64B C32B 1_555 1_555
C33B C32B 1_555 1_555
H65B C33B 1_555 1_555
H66B C33B 1_555 1_555
C34B C33B 1_555 1_555
H67B C34B 1_555 1_555
H68B C34B 1_555 1_555
C35B C34B 1_555 1_555
H69B C35B 1_555 1_555
H70B C35B 1_555 1_555
C36B C31B 1_555 1_555
H71B C36B 1_555 1_555
H72B C36B 1_555 1_555
N2B_2 Ag2 1_555 1_555
Ag2_2 N2B 1_555 1_555
P3 N3 1_555 1_555
C5 C6 1_555 1_555
C11 C12 1_555 1_555
C17 C18 1_555 1_555
C23 C24 1_555 1_555
C29 C30 1_555 1_555
C35 C36 1_555 1_555
P3B N3B 1_555 1_555
C5B C6B 1_555 1_555
C11B C12B 1_555 1_555
C17B C18B 1_555 1_555
C23B C24B 1_555 1_555
C29B C30B 1_555 1_555
C35B C36B 1_555 1_555

#END
