
#######################################################################
#
#                 Cambridge Crystallographic Data Centre
#                                CCDC 
#
#######################################################################
#
# If this CIF has been generated from an entry in the Cambridge 
# Structural Database, then it will include bibliographic, chemical, 
# crystal, experimental, refinement or atomic coordinate data resulting 
# from the CCDC's data processing and validation procedures.
#
#######################################################################

data_AYILUQ
_symmetry_cell_setting           orthorhombic
_symmetry_space_group_name_H-M   'P b n a'
_symmetry_Int_Tables_number      60
_space_group_name_Hall           '-P 2ac 2b'
loop_
_symmetry_equiv_pos_site_id
_symmetry_equiv_pos_as_xyz
1 x,y,z
2 1/2-x,-y,1/2+z
3 x,1/2-y,-z
4 1/2-x,1/2+y,1/2-z
5 -x,-y,-z
6 1/2+x,y,1/2-z
7 -x,1/2+y,z
8 1/2+x,1/2-y,1/2+z
_cell_length_a                   7.7950(10)
_cell_length_b                   9.8090(10)
_cell_length_c                   15.4210(10)
_cell_angle_alpha                90
_cell_angle_beta                 90
_cell_angle_gamma                90
_cell_volume                     1179.11
loop_
_atom_site_label
_atom_site_type_symbol
_atom_site_fract_x
_atom_site_fract_y
_atom_site_fract_z
Zn1 Zn 0.15869(6) 0.7500 0.0000
O1 O -0.1498(3) 0.4322(2) -0.07184(15)
O2 O -0.0220(3) 0.6367(2) -0.07091(14)
O3 O 0.3580(3) 0.6927(3) -0.08757(15)
N1 N 0.5920(4) 0.7617(2) -0.1613(2)
C1 C -0.0497(4) 0.5204(3) -0.0417(2)
C2 C 0.4708(5) 0.7774(4) -0.1043(3)
H1 H 0.4686 0.8590 -0.0737
C3 C 0.6058(5) 0.6357(4) -0.2119(2)
H2 H 0.6896 0.5769 -0.1858
H3 H 0.6403 0.6571 -0.2701
H4 H 0.4966 0.5905 -0.2130
C4 C 0.7261(5) 0.8631(4) -0.1751(3)
H5 H 0.7063 0.9400 -0.1379
H6 H 0.7244 0.8924 -0.2345
H7 H 0.8358 0.8237 -0.1620
Zn1D Zn -0.15869(6) 0.2500 0.0000
O1D O 0.1498(3) 0.5678(2) 0.07184(15)
O1F O 0.1498(3) 0.9322(2) -0.07184(15)
O2D O 0.0220(3) 0.3633(2) 0.07091(14)
O2B O -0.0220(3) 0.8633(2) 0.07091(14)
O3B O 0.3580(3) 0.8073(3) 0.08757(15)
N1B N 0.5920(4) 0.7383(2) 0.1613(2)
C1D C 0.0497(4) 0.4796(3) 0.0417(2)
C2B C 0.4708(5) 0.7226(4) 0.1043(3)
H1B H 0.4686 0.6410 0.0737
C3B C 0.6058(5) 0.8643(4) 0.2119(2)
H2B H 0.6896 0.9231 0.1858
H3B H 0.6403 0.8429 0.2701
H4B H 0.4966 0.9095 0.2130
C4B C 0.7261(5) 0.6369(4) 0.1751(3)
H5B H 0.7063 0.5600 0.1379
H6B H 0.7244 0.6076 0.2345
H7B H 0.8358 0.6763 0.1620
loop_
_geom_bond_atom_site_label_1
_geom_bond_atom_site_label_2
_geom_bond_site_symmetry_1
_geom_bond_site_symmetry_2
Zn1 O2 1_555 1_555
O1 C1 1_555 1_555
O2 C1 1_555 1_555
O3 Zn1 1_555 1_555
N1 C2 1_555 1_555
C1 C1D 1_555 1_555
C2 O3 1_555 1_555
H1 C2 1_555 1_555
C3 N1 1_555 1_555
H2 C3 1_555 1_555
H3 C3 1_555 1_555
H4 C3 1_555 1_555
C4 N1 1_555 1_555
H5 C4 1_555 1_555
H6 C4 1_555 1_555
H7 C4 1_555 1_555
Zn1D O1 1_555 1_555
O1D Zn1 1_555 1_555
O1F Zn1 1_555 1_555
O2D Zn1D 1_555 1_555
O2B Zn1 1_555 1_555
O3B Zn1 1_555 1_555
N1B C2B 1_555 1_555
C1D O1D 1_555 1_555
C2B O3B 1_555 1_555
H1B C2B 1_555 1_555
C3B N1B 1_555 1_555
H2B C3B 1_555 1_555
H3B C3B 1_555 1_555
H4B C3B 1_555 1_555
C4B N1B 1_555 1_555
H5B C4B 1_555 1_555
H6B C4B 1_555 1_555
H7B C4B 1_555 1_555
O2D C1D 1_555 1_555

#END
