
#######################################################################
#
#                 Cambridge Crystallographic Data Centre
#                                CCDC 
#
#######################################################################
#
# If this CIF has been generated from an entry in the Cambridge 
# Structural Database, then it will include bibliographic, chemical, 
# crystal, experimental, refinement or atomic coordinate data resulting 
# from the CCDC's data processing and validation procedures.
#
#######################################################################

data_AYIMEB
_symmetry_cell_setting           triclinic
_symmetry_space_group_name_H-M   'P -1'
_symmetry_Int_Tables_number      2
_space_group_name_Hall           '-P 1'
loop_
_symmetry_equiv_pos_site_id
_symmetry_equiv_pos_as_xyz
1 x,y,z
2 -x,-y,-z
_cell_length_a                   6.9407(9)
_cell_length_b                   9.8231(13)
_cell_length_c                   15.506(2)
_cell_angle_alpha                74.091(2)
_cell_angle_beta                 85.963(2)
_cell_angle_gamma                70.707(2)
_cell_volume                     959.361
loop_
_atom_site_label
_atom_site_type_symbol
_atom_site_fract_x
_atom_site_fract_y
_atom_site_fract_z
Cd1 Cd 0.70159(3) -0.20380(2) 1.035182(12)
C1 C 0.9950(5) 0.1669(4) 0.5262(2)
H1 H 1.0841 0.1400 0.4815
C2 C 0.9908(5) 0.0593(4) 0.6057(2)
H2 H 1.0746 -0.0391 0.6127
C3 C 0.8630(5) 0.0969(3) 0.6747(2)
C4 C 0.7404(5) 0.2448(4) 0.6627(2)
H3 H 0.6565 0.2726 0.7087
C5 C 0.7415(6) 0.3520(4) 0.5827(2)
H4 H 0.6569 0.4503 0.5756
C6 C 0.8676(5) 0.3143(3) 0.5130(2)
C7 C 0.8556(4) -0.0187(3) 0.7570(2)
C8 C 0.7980(5) -0.0084(3) 0.8415(2)
H5 H 0.7546 0.0796 0.8597
C9 C 0.8833(5) -0.2419(3) 0.8451(2)
H6 H 0.9102 -0.3448 0.8648
C10 C 0.8657(5) 0.4250(3) 0.4273(2)
C11 C 0.7830(6) 0.5769(4) 0.4057(2)
H7 H 0.7115 0.6347 0.4433
C12 C 0.9308(6) 0.5092(4) 0.2888(2)
H8 H 0.9784 0.5146 0.2308
C13 C 0.6358(4) -0.8676(3) 1.16693(19)
C14 C 0.6392(4) -0.7281(3) 1.11614(19)
H9 H 0.6709 -0.7136 1.0557
C15 C 0.5955(4) -0.6105(3) 1.1551(2)
C16 C 0.5399(5) -0.6326(3) 1.2456(2)
H10 H 0.5028 -0.5523 1.2710
C17 C 0.5393(5) -0.7721(3) 1.2979(2)
C18 C 0.5882(4) -0.8905(3) 1.2579(2)
H11 H 0.5890 -0.9848 1.2919
C19 C 0.6756(4) -0.9898(3) 1.1212(2)
C20 C 0.6178(5) -0.4636(3) 1.1022(2)
C21 C 0.4868(6) -0.7961(4) 1.3959(2)
H12 H 0.4745 -0.8940 1.4190
H13 H 0.5927 -0.7875 1.4286
H14 H 0.3597 -0.7220 1.4023
N1 N 0.8142(4) -0.1499(3) 0.89632(18)
N2 N 0.9098(4) -0.1684(3) 0.76096(17)
H15 H 0.9531 -0.2078 0.7172
N3 N 0.8263(5) 0.6276(3) 0.3174(2)
H16 H 0.7919 0.7195 0.2862
N4 N 0.9599(5) 0.3820(3) 0.35234(18)
O1 O 0.5246(5) -0.3481(3) 1.12762(19)
O2 O 0.7289(4) -0.4616(3) 1.0359(2)
O3 O 0.6469(4) -0.9524(3) 1.03708(17)
O4 O 0.7297(4) -1.1241(3) 1.16580(17)
O5 O 1.0670(4) -0.3593(3) 1.07976(18)
Cd1A Cd 0.29841(3) -0.79620(2) 0.964818(12)
Cd1_2 Cd 0.70159(3) -1.20380(2) 1.035182(12)
O3A O 0.3531(4) -0.0476(3) 0.96292(17)
O3_2 O 0.6469(4) 0.0476(3) 1.03708(17)
O4_2 O 0.7297(4) -0.1241(3) 1.16580(17)
loop_
_geom_bond_atom_site_label_1
_geom_bond_atom_site_label_2
_geom_bond_site_symmetry_1
_geom_bond_site_symmetry_2
Cd1 N1 1_555 1_555
C1 H1 1_555 1_555
C2 C1 1_555 1_555
H2 C2 1_555 1_555
C3 C2 1_555 1_555
C4 C3 1_555 1_555
H3 C4 1_555 1_555
C5 C4 1_555 1_555
H4 C5 1_555 1_555
C6 C1 1_555 1_555
C7 C3 1_555 1_555
C8 C7 1_555 1_555
H5 C8 1_555 1_555
C9 H6 1_555 1_555
C10 C6 1_555 1_555
C11 C10 1_555 1_555
H7 C11 1_555 1_555
C12 H8 1_555 1_555
C13 C14 1_555 1_555
C14 H9 1_555 1_555
C15 C14 1_555 1_555
C16 C15 1_555 1_555
H10 C16 1_555 1_555
C17 C16 1_555 1_555
C18 C13 1_555 1_555
H11 C18 1_555 1_555
C19 C13 1_555 1_555
C20 C15 1_555 1_555
C21 C17 1_555 1_555
H12 C21 1_555 1_555
H13 C21 1_555 1_555
H14 C21 1_555 1_555
N1 C8 1_555 1_555
N2 C7 1_555 1_555
H15 N2 1_555 1_555
N3 C11 1_555 1_555
H16 N3 1_555 1_555
N4 C10 1_555 1_555
O1 Cd1 1_555 1_555
O2 Cd1 1_555 1_555
O3 C19 1_555 1_555
O4 C19 1_555 1_555
O5 Cd1 1_555 1_555
Cd1A O3 1_555 1_555
Cd1_2 O3 1_555 1_555
O3A Cd1 1_555 1_555
O3_2 Cd1 1_555 1_555
O4_2 Cd1 1_555 1_555
C5 C6 1_555 1_555
C9 N1 1_555 1_555
C9 N2 1_555 1_555
C12 N3 1_555 1_555
C12 N4 1_555 1_555
C17 C18 1_555 1_555
C20 O1 1_555 1_555
C20 O2 1_555 1_555
O4 Cd1_2 1_555 1_555

#END
