
#######################################################################
#
#                 Cambridge Crystallographic Data Centre
#                                CCDC 
#
#######################################################################
#
# If this CIF has been generated from an entry in the Cambridge 
# Structural Database, then it will include bibliographic, chemical, 
# crystal, experimental, refinement or atomic coordinate data resulting 
# from the CCDC's data processing and validation procedures.
#
#######################################################################

data_AYIMOK
_symmetry_cell_setting           orthorhombic
_symmetry_space_group_name_H-M   'P b c a'
_symmetry_Int_Tables_number      61
_space_group_name_Hall           '-P 2ac 2ab'
loop_
_symmetry_equiv_pos_site_id
_symmetry_equiv_pos_as_xyz
1 x,y,z
2 1/2-x,-y,1/2+z
3 1/2+x,1/2-y,-z
4 -x,1/2+y,1/2-z
5 -x,-y,-z
6 1/2+x,y,1/2-z
7 1/2-x,1/2+y,z
8 x,1/2-y,1/2+z
_cell_length_a                   11.3252(18)
_cell_length_b                   7.9588(11)
_cell_length_c                   16.664(3)
_cell_angle_alpha                90
_cell_angle_beta                 90
_cell_angle_gamma                90
_cell_volume                     1502.01
loop_
_atom_site_label
_atom_site_type_symbol
_atom_site_fract_x
_atom_site_fract_y
_atom_site_fract_z
H1 H 0.1659(19) 0.184(3) 0.4389(12)
H2 H 0.214(2) 0.016(3) 0.4398(13)
Co1 Co 0.0000 0.0000 0.5000
O1 O 0.14623(9) 0.39634(14) 0.41887(6)
O2 O 0.16108(10) 0.07931(17) 0.45843(8)
O3 O -0.03906(9) 0.23773(13) 0.55007(6)
N1 N -0.07953(11) 0.08842(17) 0.38967(7)
C1 C 0.06536(12) 0.4528(2) 0.46320(8)
C2 C -0.01695(12) 0.3800(2) 0.52189(8)
C3 C -0.18298(16) 0.1689(2) 0.38949(11)
H3 H -0.2205 0.1881 0.4383
C4 C -0.0753(2) 0.1147(3) 0.24735(11)
H4 H -0.0360 0.0943 0.1993
C5 C -0.02729(17) 0.0622(3) 0.31886(10)
H5 H 0.0447 0.0058 0.3179
C6 C -0.2366(2) 0.2248(3) 0.32003(14)
H6 H -0.3089 0.2800 0.3221
C7 C -0.1812(3) 0.1974(3) 0.24745(14)
H7 H -0.2150 0.2342 0.1997
C1D C -0.06536(12) 0.5472(2) 0.53680(8)
O1D O -0.14623(9) 0.60366(14) 0.58113(6)
C2D C 0.01695(12) 0.6200(2) 0.47811(8)
O3D O 0.03906(9) 0.76227(13) 0.44993(6)
H1D H -0.1659(19) -0.184(3) 0.5611(12)
H2D H -0.214(2) -0.016(3) 0.5602(13)
O2D O -0.16108(10) -0.07931(17) 0.54157(8)
N1D N 0.07953(11) -0.08842(17) 0.61033(7)
C3D C 0.18298(16) -0.1689(2) 0.61051(11)
H3D H 0.2205 -0.1881 0.5617
C4D C 0.0753(2) -0.1147(3) 0.75265(11)
H4D H 0.0360 -0.0943 0.8007
C5D C 0.02729(17) -0.0622(3) 0.68114(10)
H5D H -0.0447 -0.0058 0.6821
C6D C 0.2366(2) -0.2248(3) 0.67997(14)
H6D H 0.3089 -0.2800 0.6779
C7D C 0.1812(3) -0.1974(3) 0.75255(14)
H7D H 0.2150 -0.2342 0.8003
O3D_2 O 0.03906(9) -0.23773(13) 0.44993(6)
Co1_2 Co 0.0000 1.0000 0.5000
loop_
_geom_bond_atom_site_label_1
_geom_bond_atom_site_label_2
_geom_bond_site_symmetry_1
_geom_bond_site_symmetry_2
H1 O2 1_555 1_555
H2 O2 1_555 1_555
Co1 O2 1_555 1_555
O1 C1 1_555 1_555
O3 Co1 1_555 1_555
N1 Co1 1_555 1_555
C1 C2 1_555 1_555
C2 O3 1_555 1_555
C3 N1 1_555 1_555
H3 C3 1_555 1_555
C4 H4 1_555 1_555
C5 N1 1_555 1_555
H5 C5 1_555 1_555
C6 C3 1_555 1_555
H6 C6 1_555 1_555
C7 C4 1_555 1_555
H7 C7 1_555 1_555
C1D C2 1_555 1_555
O1D C1D 1_555 1_555
C2D C1 1_555 1_555
O3D C2D 1_555 1_555
H1D O2D 1_555 1_555
H2D O2D 1_555 1_555
O2D Co1 1_555 1_555
N1D Co1 1_555 1_555
C3D N1D 1_555 1_555
H3D C3D 1_555 1_555
C4D H4D 1_555 1_555
C5D N1D 1_555 1_555
H5D C5D 1_555 1_555
C6D C3D 1_555 1_555
H6D C6D 1_555 1_555
C7D C4D 1_555 1_555
H7D C7D 1_555 1_555
O3D_2 Co1 1_555 1_555
Co1_2 O3D 1_555 1_555
C4 C5 1_555 1_555
C6 C7 1_555 1_555
C1D C2D 1_555 1_555
C4D C5D 1_555 1_555
C6D C7D 1_555 1_555

#END
