
#######################################################################
#
#                 Cambridge Crystallographic Data Centre
#                                CCDC 
#
#######################################################################
#
# If this CIF has been generated from an entry in the Cambridge 
# Structural Database, then it will include bibliographic, chemical, 
# crystal, experimental, refinement or atomic coordinate data resulting 
# from the CCDC's data processing and validation procedures.
#
#######################################################################

data_AYIMOL
_symmetry_cell_setting           monoclinic
_symmetry_space_group_name_H-M   'P 21/n'
_symmetry_Int_Tables_number      14
_space_group_name_Hall           '-P 2yn'
loop_
_symmetry_equiv_pos_site_id
_symmetry_equiv_pos_as_xyz
1 x,y,z
2 1/2-x,1/2+y,1/2-z
3 -x,-y,-z
4 1/2+x,1/2-y,1/2+z
_cell_length_a                   11.2811(19)
_cell_length_b                   10.0973(17)
_cell_length_c                   12.875(2)
_cell_angle_alpha                90
_cell_angle_beta                 90.910(3)
_cell_angle_gamma                90
_cell_volume                     1466.39
loop_
_atom_site_label
_atom_site_type_symbol
_atom_site_fract_x
_atom_site_fract_y
_atom_site_fract_z
Ag1 Ag 0.38547(2) 0.14705(2) 0.29401(2)
S1 S 0.31347(8) 0.16901(8) 0.58573(7)
O1 O 0.3206(2) 0.3109(2) 0.60911(19)
O2 O 0.2810(2) 0.1418(2) 0.47829(19)
O3 O 0.2393(2) 0.1011(3) 0.6609(2)
O4 O 1.0744(2) 0.2726(2) 0.89058(19)
H1 H 1.1437 0.2899 0.8717
N1 N 0.6305(2) 0.0753(3) 0.7258(2)
N2 N 0.8799(3) 0.1279(3) 0.7809(2)
C1 C 0.7158(3) 0.1321(3) 0.6510(3)
H8 H 0.6929 0.1046 0.5797
H9 H 0.7121 0.2300 0.6542
C2 C 0.6704(3) 0.1120(4) 0.8325(3)
H10 H 0.6655 0.2093 0.8407
H11 H 0.6168 0.0711 0.8834
C3 C 0.7954(3) 0.0677(3) 0.8552(3)
H12 H 0.7998 -0.0300 0.8503
H13 H 0.8182 0.0936 0.9269
C4 C 0.8408(3) 0.0875(3) 0.6743(3)
H14 H 0.8948 0.1265 0.6228
H15 H 0.8454 -0.0101 0.6681
C5 C 0.5114(3) 0.1349(3) 0.7088(3)
H16 H 0.4571 0.1006 0.7621
H17 H 0.5174 0.2321 0.7180
C6 C 0.4592(3) 0.1060(4) 0.6020(3)
H18 H 0.5107 0.1455 0.5488
H19 H 0.4579 0.0090 0.5909
C7 C 1.0006(3) 0.0764(3) 0.8009(3)
H20 H 0.9966 -0.0212 0.8076
H21 H 1.0504 0.0969 0.7404
C8 C 1.0599(3) 0.1328(3) 0.8982(3)
H22 H 1.1384 0.0906 0.9086
H23 H 1.0111 0.1119 0.9593
Ag1C Ag 0.88547(2) 0.35295(2) 0.79401(2)
Ag1B Ag 0.61453(2) -0.14705(2) 0.70599(2)
O4C O 0.5744(2) 0.2274(2) 0.39058(19)
H1C H 0.6437 0.2101 0.3717
N1B N 0.3695(2) -0.0753(3) 0.2742(2)
N2C N 0.3799(3) 0.3721(3) 0.2809(2)
O5 O 0.8863(3) 0.3405(3) 0.4864(2)
H2 H 0.883(5) 0.412(3) 0.452(3)
H3 H 0.862(4) 0.281(3) 0.444(3)
O6 O 0.7024(3) 0.6635(2) 0.1703(2)
H4 H 0.707(4) 0.582(2) 0.158(3)
H5 H 0.704(4) 0.666(4) 0.2369(15)
O7 O 0.0771(3) 0.4128(3) 0.6131(2)
H6 H 0.027(3) 0.374(4) 0.574(3)
H7 H 0.143(2) 0.375(4) 0.617(4)
loop_
_geom_bond_atom_site_label_1
_geom_bond_atom_site_label_2
_geom_bond_site_symmetry_1
_geom_bond_site_symmetry_2
Ag1 O2 1_555 1_555
S1 O1 1_555 1_555
O2 S1 1_555 1_555
O3 S1 1_555 1_555
O4 H1 1_555 1_555
O5 H2 1_555 1_555
H3 O5 1_555 1_555
O6 H4 1_555 1_555
H5 O6 1_555 1_555
O7 H6 1_555 1_555
H7 O7 1_555 1_555
N1 C1 1_555 1_555
N2 C3 1_555 1_555
C1 H8 1_555 1_555
H9 C1 1_555 1_555
C2 N1 1_555 1_555
H10 C2 1_555 1_555
H11 C2 1_555 1_555
C3 C2 1_555 1_555
H12 C3 1_555 1_555
H13 C3 1_555 1_555
C4 N2 1_555 1_555
H14 C4 1_555 1_555
H15 C4 1_555 1_555
C5 N1 1_555 1_555
H16 C5 1_555 1_555
H17 C5 1_555 1_555
C6 S1 1_555 1_555
H18 C6 1_555 1_555
H19 C6 1_555 1_555
C7 N2 1_555 1_555
H20 C7 1_555 1_555
H21 C7 1_555 1_555
C8 O4 1_555 1_555
H22 C8 1_555 1_555
H23 C8 1_555 1_555
Ag1C O4 1_555 1_555
Ag1B N1 1_555 1_555
O4C Ag1 1_555 1_555
H1C O4C 1_555 1_555
N1B Ag1 1_555 1_555
N2C Ag1 1_555 1_555
N2 Ag1C 1_555 1_555
C1 C4 1_555 1_555
C5 C6 1_555 1_555
C7 C8 1_555 1_555

#END
