
#######################################################################
#
#                 Cambridge Crystallographic Data Centre
#                                CCDC 
#
#######################################################################
#
# If this CIF has been generated from an entry in the Cambridge 
# Structural Database, then it will include bibliographic, chemical, 
# crystal, experimental, refinement or atomic coordinate data resulting 
# from the CCDC's data processing and validation procedures.
#
#######################################################################

data_AYINIF
_symmetry_cell_setting           orthorhombic
_symmetry_space_group_name_H-M   'P b c a'
_symmetry_Int_Tables_number      61
_space_group_name_Hall           '-P 2ac 2ab'
loop_
_symmetry_equiv_pos_site_id
_symmetry_equiv_pos_as_xyz
1 x,y,z
2 1/2-x,-y,1/2+z
3 1/2+x,1/2-y,-z
4 -x,1/2+y,1/2-z
5 -x,-y,-z
6 1/2+x,y,1/2-z
7 1/2-x,1/2+y,z
8 x,1/2-y,1/2+z
_cell_length_a                   7.9823(11)
_cell_length_b                   12.0284(15)
_cell_length_c                   15.7210(17)
_cell_angle_alpha                90
_cell_angle_beta                 90
_cell_angle_gamma                90
_cell_volume                     1509.44
loop_
_atom_site_label
_atom_site_type_symbol
_atom_site_fract_x
_atom_site_fract_y
_atom_site_fract_z
H1 H -0.170(5) 0.332(3) 0.463(2)
H2 H -0.021(4) 0.295(3) 0.453(3)
Zn1 Zn 0.0000 0.5000 0.5000
O1 O -0.0825(2) 0.34888(15) 0.44396(12)
O2 O 0.6126(2) 0.32629(13) 0.51479(12)
O3 O 0.2378(2) 0.42411(13) 0.51480(10)
N1 N 0.0714(2) 0.55820(16) 0.37548(13)
C1 C 0.5509(3) 0.4213(2) 0.50731(15)
C2 C 0.3807(3) 0.46650(19) 0.50645(15)
C3 C 0.0809(4) 0.7021(2) 0.27065(19)
H3 H 0.0604 0.7757 0.2559
C4 C 0.1787(4) 0.5217(2) 0.2363(2)
H4 H 0.2252 0.4716 0.1980
C5 C 0.0440(3) 0.6640(2) 0.35148(18)
H5 H -0.0015 0.7134 0.3907
C6 C 0.1391(3) 0.4887(2) 0.31807(19)
H6 H 0.1602 0.4155 0.3340
C7 C 0.1483(4) 0.6297(3) 0.2123(2)
H7 H 0.1731 0.6534 0.1575
C1D C 0.4491(3) 0.5787(2) 0.49269(15)
O2D O 0.3874(2) 0.67371(13) 0.48521(12)
C2D C 0.6193(3) 0.53350(19) 0.49355(15)
O3D O 0.7622(2) 0.57589(13) 0.48520(10)
H1D H 0.170(5) 0.668(3) 0.537(2)
H2D H 0.021(4) 0.705(3) 0.547(3)
O1D O 0.0825(2) 0.65112(15) 0.55604(12)
N1D N -0.0714(2) 0.44180(16) 0.62452(13)
C3D C -0.0809(4) 0.2979(2) 0.72935(19)
H3D H -0.0604 0.2243 0.7441
C4D C -0.1787(4) 0.4783(2) 0.7637(2)
H4D H -0.2252 0.5284 0.8020
C5D C -0.0440(3) 0.3360(2) 0.64852(18)
H5D H 0.0015 0.2866 0.6093
C6D C -0.1391(3) 0.5113(2) 0.68193(19)
H6D H -0.1602 0.5845 0.6660
C7D C -0.1483(4) 0.3703(3) 0.7877(2)
H7D H -0.1731 0.3466 0.8425
O3D_2 O -0.2378(2) 0.57589(13) 0.48520(10)
Zn1_2 Zn 1.0000 0.5000 0.5000
loop_
_geom_bond_atom_site_label_1
_geom_bond_atom_site_label_2
_geom_bond_site_symmetry_1
_geom_bond_site_symmetry_2
H1 O1 1_555 1_555
H2 O1 1_555 1_555
Zn1 O1 1_555 1_555
O2 C1 1_555 1_555
O3 Zn1 1_555 1_555
N1 Zn1 1_555 1_555
C1 C2 1_555 1_555
C2 O3 1_555 1_555
C3 H3 1_555 1_555
C4 H4 1_555 1_555
C5 N1 1_555 1_555
H5 C5 1_555 1_555
C6 N1 1_555 1_555
H6 C6 1_555 1_555
C7 C3 1_555 1_555
H7 C7 1_555 1_555
C1D C2 1_555 1_555
O2D C1D 1_555 1_555
C2D C1 1_555 1_555
O3D C2D 1_555 1_555
H1D O1D 1_555 1_555
H2D O1D 1_555 1_555
O1D Zn1 1_555 1_555
N1D Zn1 1_555 1_555
C3D H3D 1_555 1_555
C4D H4D 1_555 1_555
C5D N1D 1_555 1_555
H5D C5D 1_555 1_555
C6D N1D 1_555 1_555
H6D C6D 1_555 1_555
C7D C3D 1_555 1_555
H7D C7D 1_555 1_555
O3D_2 Zn1 1_555 1_555
Zn1_2 O3D 1_555 1_555
C3 C5 1_555 1_555
C4 C6 1_555 1_555
C4 C7 1_555 1_555
C1D C2D 1_555 1_555
C3D C5D 1_555 1_555
C4D C6D 1_555 1_555
C4D C7D 1_555 1_555

#END
