
#######################################################################
#
#                 Cambridge Crystallographic Data Centre
#                                CCDC 
#
#######################################################################
#
# If this CIF has been generated from an entry in the Cambridge 
# Structural Database, then it will include bibliographic, chemical, 
# crystal, experimental, refinement or atomic coordinate data resulting 
# from the CCDC's data processing and validation procedures.
#
#######################################################################

data_AYIQUU
_symmetry_cell_setting           monoclinic
_symmetry_space_group_name_H-M   'P 21/n'
_symmetry_Int_Tables_number      14
_space_group_name_Hall           '-P 2yn'
loop_
_symmetry_equiv_pos_site_id
_symmetry_equiv_pos_as_xyz
1 x,y,z
2 1/2-x,1/2+y,1/2-z
3 -x,-y,-z
4 1/2+x,1/2-y,1/2+z
_cell_length_a                   7.1883(14)
_cell_length_b                   11.331(2)
_cell_length_c                   7.2371(15)
_cell_angle_alpha                90
_cell_angle_beta                 91.38(2)
_cell_angle_gamma                90
_cell_volume                     589.295
loop_
_atom_site_label
_atom_site_type_symbol
_atom_site_fract_x
_atom_site_fract_y
_atom_site_fract_z
Zn1 Zn 0.0000 0.5000 0.0000
O1 O -0.0102(4) 0.6292(2) -0.2073(3)
O2 O 0.0021(4) 0.3677(2) -0.2017(4)
N1 N 0.3063(4) 0.5017(2) -0.0088(3)
C1 C 0.4024(5) 0.4015(3) -0.0280(5)
H1 H 0.3383 0.3312 -0.0478
C2 C 0.4065(5) 0.5999(3) 0.0192(5)
H2 H 0.3448 0.6714 0.0332
H3 H 0.056(6) 0.619(3) -0.282(6)
H4 H -0.124(7) 0.634(4) -0.258(6)
H5 H -0.058(7) 0.382(4) -0.287(7)
H6 H -0.030(6) 0.310(4) -0.171(6)
C2B C 0.5935(5) 0.4001(3) -0.0192(5)
N1B N 0.6937(4) 0.4983(2) 0.0088(3)
C1B C 0.5976(5) 0.5985(3) 0.0280(5)
H1B H 0.6617 0.6688 0.0478
H2B H 0.6552 0.3286 -0.0332
O1B O 0.0102(4) 0.3708(2) 0.2073(3)
H3B H -0.056(6) 0.381(3) 0.282(6)
H4B H 0.124(7) 0.366(4) 0.258(6)
O2B O -0.0021(4) 0.6323(2) 0.2017(4)
H5B H 0.058(7) 0.618(4) 0.287(7)
H6B H 0.030(6) 0.690(4) 0.171(6)
N1B_2 N -0.3063(4) 0.4983(2) 0.0088(3)
Zn1_2 Zn 1.0000 0.5000 0.0000
O3 O 0.2695(3) 1.10741(19) -0.0051(3)
O4 O 0.1585(3) 0.84166(19) 0.1211(3)
C3 C 0.0712(5) 0.9285(2) 0.0547(4)
C4 C 0.1229(5) 1.0487(3) -0.0024(4)
C4B C -0.1229(5) 0.9513(3) 0.0024(4)
O3B O -0.2695(3) 0.89259(19) 0.0051(3)
C3B C -0.0712(5) 1.0715(2) -0.0547(4)
O4B O -0.1585(3) 1.15834(19) -0.1211(3)
loop_
_geom_bond_atom_site_label_1
_geom_bond_atom_site_label_2
_geom_bond_site_symmetry_1
_geom_bond_site_symmetry_2
Zn1 O1 1_555 1_555
O1 H3 1_555 1_555
O2 Zn1 1_555 1_555
N1 Zn1 1_555 1_555
C1 N1 1_555 1_555
H1 C1 1_555 1_555
C2 N1 1_555 1_555
H2 C2 1_555 1_555
H4 O1 1_555 1_555
H5 O2 1_555 1_555
H6 O2 1_555 1_555
O3 C4 1_555 1_555
O4 C3 1_555 1_555
C3 C4 1_555 1_555
C4 C3B 1_555 1_555
C2B C1 1_555 1_555
N1B C2B 1_555 1_555
C1B C2 1_555 1_555
H1B C1B 1_555 1_555
H2B C2B 1_555 1_555
O1B Zn1 1_555 1_555
H3B O1B 1_555 1_555
H4B O1B 1_555 1_555
O2B Zn1 1_555 1_555
H5B O2B 1_555 1_555
H6B O2B 1_555 1_555
N1B_2 Zn1 1_555 1_555
Zn1_2 N1B 1_555 1_555
C4B C3 1_555 1_555
O3B C4B 1_555 1_555
C3B C4B 1_555 1_555
O4B C3B 1_555 1_555
N1B C1B 1_555 1_555

#END
