
#######################################################################
#
#                 Cambridge Crystallographic Data Centre
#                                CCDC 
#
#######################################################################
#
# If this CIF has been generated from an entry in the Cambridge 
# Structural Database, then it will include bibliographic, chemical, 
# crystal, experimental, refinement or atomic coordinate data resulting 
# from the CCDC's data processing and validation procedures.
#
#######################################################################

data_AYIQOO
_symmetry_cell_setting           monoclinic
_symmetry_space_group_name_H-M   'C 2/c'
_symmetry_Int_Tables_number      15
_space_group_name_Hall           '-C 2yn'
loop_
_symmetry_equiv_pos_site_id
_symmetry_equiv_pos_as_xyz
1 x,y,z
2 1/2+x,1/2+y,z
3 -x,y,1/2-z
4 1/2-x,1/2+y,1/2-z
5 -x,-y,-z
6 1/2-x,1/2-y,-z
7 x,-y,1/2+z
8 1/2+x,1/2-y,1/2+z
_cell_length_a                   16.631(3)
_cell_length_b                   11.155(2)
_cell_length_c                   13.096(3)
_cell_angle_alpha                90
_cell_angle_beta                 125.08(3)
_cell_angle_gamma                90
_cell_volume                     1988.23
loop_
_atom_site_label
_atom_site_type_symbol
_atom_site_fract_x
_atom_site_fract_y
_atom_site_fract_z
Cu1 Cu 0.5000 0.27075(4) 0.7500
O1 O 0.58196(17) 0.2701(2) 0.9730(2)
O2 O 0.36957(14) 0.26753(18) 0.7202(2)
N1 N 0.5000 0.4526(3) 0.7500
C1 C 0.4788(2) 0.5157(2) 0.8192(3)
H1 H 0.4633 0.4741 0.8672
C2 C 0.4792(2) 0.6389(2) 0.8222(3)
H2 H 0.4653 0.6785 0.8729
C3 C 0.5000 0.7044(3) 0.7500
C4 C 0.5000 0.8378(3) 0.7500
C5 C 0.4695(2) 0.9031(2) 0.8120(3)
H3 H 0.4485 0.8635 0.8553
C6 C 0.4701(2) 1.0262(2) 0.8095(3)
H4 H 0.4486 1.0680 0.8511
N2 N 0.5000 1.0889(3) 0.7500
H5 H 0.612(3) 0.326(3) 1.003(3)
H6 H 0.618(3) 0.220(3) 0.987(3)
H7 H 0.362(3) 0.269(4) 0.773(4)
H8 H 0.330(3) 0.308(3) 0.664(3)
C2B C 0.5208(2) 0.6389(2) 0.6778(3)
C1B C 0.5212(2) 0.5157(2) 0.6808(3)
H1B H 0.5367 0.4741 0.6328
H2B H 0.5347 0.6785 0.6271
C6B C 0.5299(2) 1.0262(2) 0.6905(3)
C5B C 0.5305(2) 0.9031(2) 0.6880(3)
H3B H 0.5515 0.8635 0.6447
H4B H 0.5514 1.0680 0.6489
O1B O 0.41804(17) 0.2701(2) 0.5270(2)
H5B H 0.388(3) 0.326(3) 0.497(3)
H6B H 0.382(3) 0.220(3) 0.513(3)
O2B O 0.63043(14) 0.26753(18) 0.7798(2)
H7B H 0.638(3) 0.269(4) 0.727(4)
H8B H 0.670(3) 0.308(3) 0.836(3)
N2_2 N 0.5000 0.0889(3) 0.7500
Cu1_2 Cu 0.5000 1.27075(4) 0.7500
O3 O 0.17715(18) 0.79292(18) 0.6217(2)
O4 O 0.19893(16) 0.59590(18) 0.63562(19)
C7 C 0.2048(2) 0.6973(3) 0.6002(3)
C8 C 0.2473(2) 0.7032(3) 0.5262(3)
H9 H 0.276(3) 0.634(3) 0.526(3)
C8E C 0.2527(2) 0.7968(3) 0.4738(3)
C7E C 0.2952(2) 0.8027(3) 0.3998(3)
O3E O 0.32285(18) 0.70708(18) 0.3783(2)
O4E O 0.30107(16) 0.90410(18) 0.36438(19)
H9E H 0.224(3) 0.866(3) 0.474(3)
O5 O 0.22315(16) 0.4013(2) 0.5360(2)
H10 H 0.218(3) 0.463(4) 0.564(4)
H11 H 0.234(2) 0.418(3) 0.487(2)
O6 O 0.2095(2) 1.0359(2) 0.6133(2)
H12 H 0.197(3) 0.967(3) 0.611(3)
H13 H 0.243(3) 1.049(4) 0.683(4)
loop_
_geom_bond_atom_site_label_1
_geom_bond_atom_site_label_2
_geom_bond_site_symmetry_1
_geom_bond_site_symmetry_2
Cu1 O1 1_555 1_555
O1 H5 1_555 1_555
O2 Cu1 1_555 1_555
N1 Cu1 1_555 1_555
C1 N1 1_555 1_555
H1 C1 1_555 1_555
C2 C1 1_555 1_555
H2 C2 1_555 1_555
C3 C2 1_555 1_555
C4 C3 1_555 1_555
C5 C4 1_555 1_555
H3 C5 1_555 1_555
C6 C5 1_555 1_555
H4 C6 1_555 1_555
N2 C6 1_555 1_555
H6 O1 1_555 1_555
H7 O2 1_555 1_555
H8 O2 1_555 1_555
O3 C7 1_555 1_555
O4 C7 1_555 1_555
C7 C8 1_555 1_555
C8 H9 1_555 1_555
O5 H10 1_555 1_555
H11 O5 1_555 1_555
O6 H12 1_555 1_555
H13 O6 1_555 1_555
C2B C3 1_555 1_555
C1B N1 1_555 1_555
H1B C1B 1_555 1_555
H2B C2B 1_555 1_555
C6B N2 1_555 1_555
C5B C4 1_555 1_555
H3B C5B 1_555 1_555
H4B C6B 1_555 1_555
O1B Cu1 1_555 1_555
H5B O1B 1_555 1_555
H6B O1B 1_555 1_555
O2B Cu1 1_555 1_555
H7B O2B 1_555 1_555
H8B O2B 1_555 1_555
N2_2 Cu1 1_555 1_555
Cu1_2 N2 1_555 1_555
C8E C8 1_555 1_555
C7E C8E 1_555 1_555
O3E C7E 1_555 1_555
O4E C7E 1_555 1_555
H9E C8E 1_555 1_555
C2B C1B 1_555 1_555
C6B C5B 1_555 1_555

#END
