
#######################################################################
#
#                 Cambridge Crystallographic Data Centre
#                                CCDC 
#
#######################################################################
#
# If this CIF has been generated from an entry in the Cambridge 
# Structural Database, then it will include bibliographic, chemical, 
# crystal, experimental, refinement or atomic coordinate data resulting 
# from the CCDC's data processing and validation procedures.
#
#######################################################################

data_AYIQII
_symmetry_cell_setting           monoclinic
_symmetry_space_group_name_H-M   'P 21/c'
_symmetry_Int_Tables_number      14
_space_group_name_Hall           '-P 2ybc'
loop_
_symmetry_equiv_pos_site_id
_symmetry_equiv_pos_as_xyz
1 x,y,z
2 -x,1/2+y,1/2-z
3 -x,-y,-z
4 x,1/2-y,1/2+z
_cell_length_a                   8.965(3)
_cell_length_b                   19.797(7)
_cell_length_c                   10.440(4)
_cell_angle_alpha                90
_cell_angle_beta                 101.780(6)
_cell_angle_gamma                90
_cell_volume                     1813.87
loop_
_atom_site_label
_atom_site_type_symbol
_atom_site_fract_x
_atom_site_fract_y
_atom_site_fract_z
Cu1 Cu 0.34587(6) 0.40503(2) 0.78799(5)
O1 O 0.1305(3) 0.43991(15) 0.8920(3)
O2 O 0.2017(3) 0.34037(13) 0.8362(3)
O3 O -0.4564(3) 0.30843(16) 0.7836(3)
O4 O -0.4945(3) 0.38028(15) 0.9342(3)
N1 N 0.4485(4) 0.49182(16) 0.7553(3)
N2 N 0.2258(4) 0.42289(16) 0.6082(3)
C1 C 0.5591(5) 0.5259(2) 0.8318(4)
H1 H 0.6020 0.5080 0.9134
C2 C 0.6134(5) 0.5866(2) 0.7961(5)
H2 H 0.6900 0.6093 0.8535
C3 C 0.5538(6) 0.6132(2) 0.6752(5)
H3 H 0.5908 0.6538 0.6494
C4 C 0.4375(5) 0.5791(2) 0.5916(4)
C5 C 0.3668(6) 0.6010(2) 0.4618(5)
H4 H 0.3998 0.6408 0.4293
C6 C 0.2544(6) 0.5655(2) 0.3866(5)
H5 H 0.2118 0.5813 0.3033
C7 C 0.1985(5) 0.5040(2) 0.4314(4)
C8 C 0.0794(5) 0.4656(3) 0.3601(5)
H6 H 0.0288 0.4794 0.2775
C9 C 0.0386(5) 0.4076(3) 0.4137(5)
H7 H -0.0405 0.3815 0.3674
C10 C 0.1146(5) 0.3871(2) 0.5377(4)
H8 H 0.0859 0.3468 0.5718
C11 C 0.2692(5) 0.4815(2) 0.5568(4)
C12 C 0.3873(5) 0.5182(2) 0.6362(4)
C13 C 0.1182(5) 0.3787(2) 0.8910(4)
C14 C 0.0033(5) 0.3424(2) 0.9578(4)
C15 C -0.1006(5) 0.3907(2) 1.0103(4)
C16 C -0.2041(6) 0.3527(3) 1.0851(5)
C17 C -0.2976(5) 0.2996(2) 0.9999(5)
C18 C -0.1959(6) 0.2513(2) 0.9423(5)
C19 C -0.0864(5) 0.2882(2) 0.8723(4)
C20 C -0.4251(5) 0.3305(2) 0.8957(4)
H9 H 0.064(4) 0.3236(17) 1.036(4)
H10 H -0.041(4) 0.4199(17) 1.070(4)
H11 H -0.1573 0.4126 0.9412
H12 H -0.275(5) 0.387(2) 1.110(4)
H13 H -0.141(5) 0.3315(19) 1.161(4)
H14 H -0.341(4) 0.2769(18) 1.059(4)
H15 H -0.257(4) 0.2188(15) 0.881(3)
H16 H -0.145(4) 0.2241(18) 1.013(3)
H17 H -0.1547 0.3071 0.7929
H18 H -0.016(4) 0.2555(17) 0.842(3)
O3_2 O 0.5436(3) 0.30843(16) 0.7836(3)
O4_2 O 0.5055(3) 0.38028(15) 0.9342(3)
Cu1_2 Cu -0.65413(6) 0.40503(2) 0.78799(5)
O5 O 0.3299(5) 0.2652(2) 0.5310(5)
H19 H 0.2669 0.2962 0.5472
H20 H 0.3948 0.2622 0.6091
loop_
_geom_bond_atom_site_label_1
_geom_bond_atom_site_label_2
_geom_bond_site_symmetry_1
_geom_bond_site_symmetry_2
Cu1 O1 1_555 1_555
O1 C13 1_555 1_555
O2 Cu1 1_555 1_555
O3 C20 1_555 1_555
O4 C20 1_555 1_555
N1 Cu1 1_555 1_555
N2 Cu1 1_555 1_555
C1 N1 1_555 1_555
H1 C1 1_555 1_555
C2 C1 1_555 1_555
H2 C2 1_555 1_555
C3 C2 1_555 1_555
H3 C3 1_555 1_555
C4 C3 1_555 1_555
C5 C4 1_555 1_555
H4 C5 1_555 1_555
C6 C5 1_555 1_555
H5 C6 1_555 1_555
C7 C6 1_555 1_555
C8 C7 1_555 1_555
H6 C8 1_555 1_555
C9 C8 1_555 1_555
H7 C9 1_555 1_555
C10 N2 1_555 1_555
H8 C10 1_555 1_555
C11 N2 1_555 1_555
C12 N1 1_555 1_555
C13 O2 1_555 1_555
C14 C13 1_555 1_555
C15 C14 1_555 1_555
C16 C15 1_555 1_555
C17 C16 1_555 1_555
C18 C17 1_555 1_555
C19 C14 1_555 1_555
C20 C17 1_555 1_555
H9 C14 1_555 1_555
H10 C15 1_555 1_555
H11 C15 1_555 1_555
H12 C16 1_555 1_555
H13 C16 1_555 1_555
H14 C17 1_555 1_555
H15 C18 1_555 1_555
H16 C18 1_555 1_555
H17 C19 1_555 1_555
H18 C19 1_555 1_555
O5 H19 1_555 1_555
H20 O5 1_555 1_555
O3_2 Cu1 1_555 1_555
O4_2 Cu1 1_555 1_555
Cu1_2 O3 1_555 1_555
O4 Cu1_2 1_555 1_555
C4 C12 1_555 1_555
C7 C11 1_555 1_555
C9 C10 1_555 1_555
C11 C12 1_555 1_555
C18 C19 1_555 1_555

#END
