
#######################################################################
#
#                 Cambridge Crystallographic Data Centre
#                                CCDC 
#
#######################################################################
#
# If this CIF has been generated from an entry in the Cambridge 
# Structural Database, then it will include bibliographic, chemical, 
# crystal, experimental, refinement or atomic coordinate data resulting 
# from the CCDC's data processing and validation procedures.
#
#######################################################################

data_AYIQOO01
_symmetry_cell_setting           monoclinic
_symmetry_space_group_name_H-M   'C 2/c'
_symmetry_Int_Tables_number      15
_space_group_name_Hall           '-C 2yn'
loop_
_symmetry_equiv_pos_site_id
_symmetry_equiv_pos_as_xyz
1 x,y,z
2 x,-y,1/2+z
3 1/2+x,1/2+y,z
4 1/2+x,1/2-y,1/2+z
5 -x,-y,-z
6 -x,y,1/2-z
7 1/2-x,1/2-y,-z
8 1/2-x,1/2+y,1/2-z
_cell_length_a                   16.6350(5)
_cell_length_b                   11.1667(2)
_cell_length_c                   13.1371(4)
_cell_angle_alpha                90
_cell_angle_beta                 125.1440(10)
_cell_angle_gamma                90
_cell_volume                     1995.47
loop_
_atom_site_label
_atom_site_type_symbol
_atom_site_fract_x
_atom_site_fract_y
_atom_site_fract_z
Cu1 Cu 0.5000 0.73026(3) 0.7500
O3 O 0.58155(16) 0.73111(18) 0.9727(2)
H4 H 0.611(2) 0.670(2) 1.003(3)
H5 H 0.617(2) 0.785(3) 0.987(4)
O5 O 0.63106(14) 0.73353(16) 0.78078(18)
H6 H 0.6252 0.7233 0.7150
H7 H 0.671(2) 0.691(3) 0.835(2)
N1 N 0.5000 0.9119(2) 0.7500
N2 N 0.5000 1.5486(3) 0.7500
C1 C 0.4700(2) 0.9748(2) 0.8095(3)
H8 H 0.4486 0.9332 0.8510
C2 C 0.4695(2) 1.0977(2) 0.8120(3)
H9 H 0.4486 1.1371 0.8553
C3 C 0.5000 1.1634(3) 0.7500
C4 C 0.5211(2) 1.4851(2) 0.6810(3)
H10 H 0.5366 1.5266 0.6330
C5 C 0.5210(2) 1.3625(2) 0.6778(3)
H11 H 0.5350 1.3230 0.6273
C6 C 0.5000 1.2967(3) 0.7500
C2E C 0.5305(2) 1.0977(2) 0.6880(3)
C1E C 0.5300(2) 0.9748(2) 0.6905(3)
H8E H 0.5514 0.9332 0.6490
H9E H 0.5514 1.1371 0.6447
C4E C 0.4789(2) 1.4851(2) 0.8190(3)
H10E H 0.4634 1.5266 0.8670
C5E C 0.4790(2) 1.3625(2) 0.8222(3)
H11E H 0.4650 1.3230 0.8727
O3E O 0.41845(16) 0.73111(18) 0.5273(2)
H4E H 0.389(2) 0.670(2) 0.497(3)
H5E H 0.383(2) 0.785(3) 0.513(4)
O5E O 0.36894(14) 0.73353(16) 0.71922(18)
H6E H 0.3748 0.7233 0.7850
H7E H 0.329(2) 0.691(3) 0.665(2)
N2_2 N 0.5000 0.5486(3) 0.7500
Cu1_2 Cu 0.5000 1.73026(3) 0.7500
O1 O 0.70798(17) 0.46397(19) 0.61298(19)
H1 H 0.740(3) 0.447(4) 0.684(2)
O2 O 0.72377(16) 0.90239(19) 1.0356(2)
H2 H 0.734(3) 0.925(4) 0.988(3)
H3 H 0.718(3) 0.973(2) 1.059(3)
O4 O 0.69915(18) 0.9043(2) 0.6357(2)
O6 O 0.67669(19) 0.70701(19) 0.6213(2)
C7 C 0.7480(2) 0.7971(3) 0.5269(3)
H12 H 0.764(2) 0.887(3) 0.528(3)
C8 C 0.7049(2) 0.8020(3) 0.5999(3)
C7F C 0.7520(2) 0.7029(3) 0.4731(3)
H12F H 0.736(2) 0.613(3) 0.472(3)
C8F C 0.7951(2) 0.6980(3) 0.4001(3)
O4F O 0.80085(18) 0.5957(2) 0.3643(2)
O6F O 0.82331(19) 0.79299(19) 0.3787(2)
loop_
_geom_bond_atom_site_label_1
_geom_bond_atom_site_label_2
_geom_bond_site_symmetry_1
_geom_bond_site_symmetry_2
Cu1 O3 1_555 1_555
O1 H1 1_555 1_555
O2 H2 1_555 1_555
H3 O2 1_555 1_555
O3 H4 1_555 1_555
H5 O3 1_555 1_555
O4 C8 1_555 1_555
O5 Cu1 1_555 1_555
H6 O5 1_555 1_555
H7 O5 1_555 1_555
O6 C8 1_555 1_555
N1 Cu1 1_555 1_555
N2 C4 1_555 1_555
C1 N1 1_555 1_555
H8 C1 1_555 1_555
C2 C1 1_555 1_555
H9 C2 1_555 1_555
C3 C2 1_555 1_555
C4 H10 1_555 1_555
C5 C4 1_555 1_555
H11 C5 1_555 1_555
C6 C3 1_555 1_555
C7 H12 1_555 1_555
C8 C7 1_555 1_555
C7F C7 1_555 1_555
H12F C7F 1_555 1_555
C8F C7F 1_555 1_555
O4F C8F 1_555 1_555
O6F C8F 1_555 1_555
C2E C3 1_555 1_555
C1E N1 1_555 1_555
H8E C1E 1_555 1_555
H9E C2E 1_555 1_555
C4E N2 1_555 1_555
H10E C4E 1_555 1_555
C5E C6 1_555 1_555
H11E C5E 1_555 1_555
O3E Cu1 1_555 1_555
H4E O3E 1_555 1_555
H5E O3E 1_555 1_555
O5E Cu1 1_555 1_555
H6E O5E 1_555 1_555
H7E O5E 1_555 1_555
N2_2 Cu1 1_555 1_555
Cu1_2 N2 1_555 1_555
C5 C6 1_555 1_555
C2E C1E 1_555 1_555
C4E C5E 1_555 1_555

#END
