
#######################################################################
#
#                 Cambridge Crystallographic Data Centre
#                                CCDC 
#
#######################################################################
#
# If this CIF has been generated from an entry in the Cambridge 
# Structural Database, then it will include bibliographic, chemical, 
# crystal, experimental, refinement or atomic coordinate data resulting 
# from the CCDC's data processing and validation procedures.
#
#######################################################################

data_AYIVIO
_symmetry_cell_setting           monoclinic
_symmetry_space_group_name_H-M   'P 21/c'
_symmetry_Int_Tables_number      14
_space_group_name_Hall           '-P 2ybc'
loop_
_symmetry_equiv_pos_site_id
_symmetry_equiv_pos_as_xyz
1 x,y,z
2 -x,1/2+y,1/2-z
3 -x,-y,-z
4 x,1/2-y,1/2+z
_cell_length_a                   8.1746(3)
_cell_length_b                   7.5513(2)
_cell_length_c                   12.3843(4)
_cell_angle_alpha                90
_cell_angle_beta                 91.8890(10)
_cell_angle_gamma                90
_cell_volume                     764.053
loop_
_atom_site_label
_atom_site_type_symbol
_atom_site_fract_x
_atom_site_fract_y
_atom_site_fract_z
Cs1 Cs 0.51201(2) 0.14792(3) 0.127051(18)
N1 N 0.0320(3) 0.2743(4) 0.4216(2)
H1 H 0.088(4) 0.348(4) 0.446(3)
C1 C 0.1062(3) 0.1326(4) 0.3746(3)
C2 C 0.0159(4) -0.0019(5) 0.3335(3)
H2 H 0.0655 -0.0992 0.3023
C3 C -0.1567(4) 0.0085(5) 0.3391(3)
H3 H -0.221 -0.0826 0.3102
C4 C -0.2296(4) 0.1484(5) 0.3857(3)
H4 H -0.343 0.152 0.3888
C5 C -0.1347(3) 0.2903(5) 0.4302(3)
C6 C 0.2926(3) 0.1403(4) 0.3700(3)
O1 O 0.3603(3) 0.0066(3) 0.3335(2)
O2 O 0.3588(2) 0.2803(4) 0.3984(2)
O3 O -0.1942(2) 0.4235(3) 0.4750(2)
Cs1B Cs 0.48799(2) -0.14792(3) -0.127051(18)
Cs1A Cs 0.48799(2) -0.35208(3) 0.372949(18)
Cs1A_2 Cs 0.48799(2) 0.64792(3) 0.372949(18)
Cs1C Cs 0.51201(2) 0.35208(3) 0.627051(18)
Cs1A_3 Cs -0.51201(2) 0.64792(3) 0.372949(18)
Cs1C_2 Cs -0.48799(2) 0.35208(3) 0.627051(18)
O1A O 0.6397(3) 0.5066(3) 0.1665(2)
O2A O 0.6412(2) -0.2197(4) 0.1016(2)
O2C O 0.3588(2) 0.2197(4) -0.1016(2)
O3A O 0.1942(2) -0.0765(3) 0.0250(2)
O3C O 0.8058(2) 0.0765(3) -0.0250(2)
loop_
_geom_bond_atom_site_label_1
_geom_bond_atom_site_label_2
_geom_bond_site_symmetry_1
_geom_bond_site_symmetry_2
Cs1 O1 1_555 1_555
N1 H1 1_555 1_555
C1 N1 1_555 1_555
C2 C1 1_555 1_555
H2 C2 1_555 1_555
C3 C2 1_555 1_555
H3 C3 1_555 1_555
C4 C3 1_555 1_555
H4 C4 1_555 1_555
C5 N1 1_555 1_555
C6 C1 1_555 1_555
O1 C6 1_555 1_555
O2 C6 1_555 1_555
O3 C5 1_555 1_555
Cs1B O2A 1_555 1_555
Cs1A O1 1_555 1_555
Cs1A_2 O2 1_555 1_555
Cs1C O2 1_555 1_555
Cs1A_3 O3 1_555 1_555
Cs1C_2 O3 1_555 1_555
O1A Cs1 1_555 1_555
O2A Cs1 1_555 1_555
O2C Cs1 1_555 1_555
O3A Cs1 1_555 1_555
O3C Cs1 1_555 1_555
C4 C5 1_555 1_555
Cs1B O2C 1_555 1_555
Cs1B O3A 1_555 1_555
Cs1B O3C 1_555 1_555
Cs1A_2 O1A 1_555 1_555

#END
