
#######################################################################
#
#                 Cambridge Crystallographic Data Centre
#                                CCDC 
#
#######################################################################
#
# If this CIF has been generated from an entry in the Cambridge 
# Structural Database, then it will include bibliographic, chemical, 
# crystal, experimental, refinement or atomic coordinate data resulting 
# from the CCDC's data processing and validation procedures.
#
#######################################################################

data_AYIVEK
_symmetry_cell_setting           triclinic
_symmetry_space_group_name_H-M   'P -1'
_symmetry_Int_Tables_number      2
_space_group_name_Hall           '-P 1'
loop_
_symmetry_equiv_pos_site_id
_symmetry_equiv_pos_as_xyz
1 x,y,z
2 -x,-y,-z
_cell_length_a                   8.8858(8)
_cell_length_b                   9.9311(9)
_cell_length_c                   11.1978(10)
_cell_angle_alpha                101.1580(10)
_cell_angle_beta                 94.6970(10)
_cell_angle_gamma                99.0920(10)
_cell_volume                     950.826
loop_
_atom_site_label
_atom_site_type_symbol
_atom_site_fract_x
_atom_site_fract_y
_atom_site_fract_z
Mo1 Mo 0.94356(2) 0.58128(2) 0.480838(17)
F1 F 0.46291(19) 0.34697(17) 0.29542(17)
F2 F 0.2509(2) 0.1493(2) 0.1523(2)
F3 F 0.3174(2) -0.10294(19) 0.05942(18)
F4 F 0.6015(2) -0.15799(17) 0.11139(18)
F5 F 0.81465(19) 0.03236(17) 0.25713(17)
F6 F 1.0522(2) 0.7439(2) 0.89717(17)
F7 F 0.9848(3) 0.8073(2) 1.13037(18)
F8 F 0.7539(2) 0.6435(2) 1.20533(14)
F9 F 0.5986(3) 0.4110(2) 1.05142(19)
F10 F 0.6643(2) 0.3488(2) 0.81764(17)
O1 O 0.75702(18) 0.43333(16) 0.38004(15)
O2 O 0.87528(19) 0.26377(17) 0.42436(15)
O3 O 0.85431(19) 0.59500(18) 0.65400(15)
O4 O 0.96917(19) 0.41976(17) 0.68947(15)
C1 C 0.7665(3) 0.3051(3) 0.3681(2)
C2 C 0.8955(3) 0.5167(3) 0.7219(2)
C3 C 0.6483(3) 0.1984(3) 0.2857(2)
C4 C 0.5018(3) 0.2234(3) 0.2528(2)
C5 C 0.3913(3) 0.1235(3) 0.1796(3)
C6 C 0.4231(3) -0.0065(3) 0.1325(3)
C7 C 0.5677(3) -0.0340(3) 0.1609(2)
C8 C 0.6762(3) 0.0656(3) 0.2357(2)
C9 C 0.8594(3) 0.5460(3) 0.8527(2)
C10 C 0.9392(3) 0.6610(3) 0.9340(2)
C11 C 0.9070(4) 0.6945(3) 1.0538(2)
C12 C 0.7909(3) 0.6100(3) 1.0917(2)
C13 C 0.7115(3) 0.4929(3) 1.0133(3)
C14 C 0.7458(3) 0.4611(3) 0.8941(2)
N1 N 0.7566(3) 0.7574(2) 0.4831(2)
C15 C 0.6117(4) 0.7200(3) 0.4360(2)
H1 H 0.5774 0.6273 0.3973
C16 C 0.8019(3) 0.8903(3) 0.5383(3)
H2 H 0.9034 0.9190 0.5730
C17 C 0.7066(3) 0.9887(3) 0.5473(3)
H3 H 0.7446 1.0805 0.5870
C18 C 0.5537(3) 0.9493(3) 0.4966(2)
C19 C 0.5073(3) 0.8100(3) 0.4406(2)
H4 H 0.4062 0.7770 0.4062
Mo1A Mo 1.05644(2) 0.41872(2) 0.519162(17)
Mo1A_2 Mo 0.05644(2) 1.41872(2) 0.519162(17)
F1A F 1.53709(19) 0.65303(17) 0.70458(17)
F2A F 1.7491(2) 0.8507(2) 0.8477(2)
F3A F 1.6826(2) 1.10294(19) 0.94058(18)
F4A F 1.3985(2) 1.15799(17) 0.88861(18)
F5A F 1.18535(19) 0.96764(17) 0.74287(17)
F6A F 0.9478(2) 0.2561(2) 0.10283(17)
F7A F 1.0152(3) 0.1927(2) -0.13037(18)
F8A F 1.2461(2) 0.3565(2) -0.20533(14)
F9A F 1.4014(3) 0.5890(2) -0.05142(19)
F10A F 1.3357(2) 0.6512(2) 0.18236(17)
O1A O 1.24298(18) 0.56667(16) 0.61996(15)
O2A O 1.12472(19) 0.73623(17) 0.57564(15)
O3A O 1.14569(19) 0.40500(18) 0.34600(15)
O4A O 1.03083(19) 0.58024(17) 0.31053(15)
C1A C 1.2335(3) 0.6949(3) 0.6319(2)
C2A C 1.1045(3) 0.4833(3) 0.2781(2)
C3A C 1.3517(3) 0.8016(3) 0.7143(2)
C4A C 1.4982(3) 0.7766(3) 0.7472(2)
C5A C 1.6087(3) 0.8765(3) 0.8204(3)
C6A C 1.5769(3) 1.0065(3) 0.8675(3)
C7A C 1.4323(3) 1.0340(3) 0.8391(2)
C8A C 1.3238(3) 0.9344(3) 0.7643(2)
C9A C 1.1406(3) 0.4540(3) 0.1473(2)
C10A C 1.0608(3) 0.3390(3) 0.0660(2)
C11A C 1.0930(4) 0.3055(3) -0.0538(2)
C12A C 1.2091(3) 0.3900(3) -0.0917(2)
C13A C 1.2885(3) 0.5071(3) -0.0133(3)
C14A C 1.2542(3) 0.5389(3) 0.1059(2)
N1A N 0.2434(3) 1.2426(2) 0.5169(2)
N1A_2 N 1.2434(3) 0.2426(2) 0.5169(2)
C15A C 0.3883(4) 1.2800(3) 0.5640(2)
H1A H 0.4226 1.3727 0.6027
C16A C 0.1981(3) 1.1097(3) 0.4617(3)
H2A H 0.0966 1.0810 0.4270
C17A C 0.2934(3) 1.0113(3) 0.4527(3)
H3A H 0.2554 0.9195 0.4130
C18A C 0.4463(3) 1.0507(3) 0.5034(2)
C19A C 0.4927(3) 1.1900(3) 0.5594(2)
H4A H 0.5938 1.2230 0.5938
loop_
_geom_bond_atom_site_label_1
_geom_bond_atom_site_label_2
_geom_bond_site_symmetry_1
_geom_bond_site_symmetry_2
Mo1 O1 1_555 1_555
F1 C4 1_555 1_555
F2 C5 1_555 1_555
F3 C6 1_555 1_555
F4 C7 1_555 1_555
F5 C8 1_555 1_555
F6 C10 1_555 1_555
F7 C11 1_555 1_555
F8 C12 1_555 1_555
F9 C13 1_555 1_555
F10 C14 1_555 1_555
O1 C1 1_555 1_555
O2 C1 1_555 1_555
O3 Mo1 1_555 1_555
O4 C2 1_555 1_555
C1 C3 1_555 1_555
C2 O3 1_555 1_555
C3 C4 1_555 1_555
C4 C5 1_555 1_555
C5 C6 1_555 1_555
C6 C7 1_555 1_555
C7 C8 1_555 1_555
C8 C3 1_555 1_555
C9 C2 1_555 1_555
C10 C9 1_555 1_555
C11 C10 1_555 1_555
C12 C11 1_555 1_555
C13 C12 1_555 1_555
C14 C9 1_555 1_555
N1 Mo1 1_555 1_555
C15 N1 1_555 1_555
H1 C15 1_555 1_555
C16 N1 1_555 1_555
H2 C16 1_555 1_555
C17 C16 1_555 1_555
H3 C17 1_555 1_555
C18 C17 1_555 1_555
C19 C15 1_555 1_555
H4 C19 1_555 1_555
Mo1A Mo1 1_555 1_555
Mo1A_2 N1A 1_555 1_555
F1A C4A 1_555 1_555
F2A C5A 1_555 1_555
F3A C6A 1_555 1_555
F4A C7A 1_555 1_555
F5A C8A 1_555 1_555
F6A C10A 1_555 1_555
F7A C11A 1_555 1_555
F8A C12A 1_555 1_555
F9A C13A 1_555 1_555
F10A C14A 1_555 1_555
O1A Mo1A 1_555 1_555
O2A Mo1 1_555 1_555
O3A Mo1A 1_555 1_555
O4A Mo1 1_555 1_555
C1A O1A 1_555 1_555
C2A O3A 1_555 1_555
C3A C1A 1_555 1_555
C4A C3A 1_555 1_555
C5A C4A 1_555 1_555
C6A C5A 1_555 1_555
C7A C6A 1_555 1_555
C8A C3A 1_555 1_555
C9A C2A 1_555 1_555
C10A C9A 1_555 1_555
C11A C10A 1_555 1_555
C12A C11A 1_555 1_555
C13A C12A 1_555 1_555
C14A C9A 1_555 1_555
N1A C15A 1_555 1_555
N1A_2 Mo1A 1_555 1_555
C15A H1A 1_555 1_555
C16A N1A 1_555 1_555
H2A C16A 1_555 1_555
C17A C16A 1_555 1_555
H3A C17A 1_555 1_555
C18A C18 1_555 1_555
C19A C15A 1_555 1_555
H4A C19A 1_555 1_555
O2 Mo1A 1_555 1_555
O4 Mo1A 1_555 1_555
C13 C14 1_555 1_555
C18 C19 1_555 1_555
O2A C1A 1_555 1_555
O4A C2A 1_555 1_555
C7A C8A 1_555 1_555
C13A C14A 1_555 1_555
C17A C18A 1_555 1_555
C18A C19A 1_555 1_555

#END
