
#######################################################################
#
#                 Cambridge Crystallographic Data Centre
#                                CCDC 
#
#######################################################################
#
# If this CIF has been generated from an entry in the Cambridge 
# Structural Database, then it will include bibliographic, chemical, 
# crystal, experimental, refinement or atomic coordinate data resulting 
# from the CCDC's data processing and validation procedures.
#
#######################################################################

data_AYIWUB
_symmetry_cell_setting           monoclinic
_symmetry_space_group_name_H-M   'C 2/c'
_symmetry_Int_Tables_number      15
_space_group_name_Hall           '-C 2yn'
loop_
_symmetry_equiv_pos_site_id
_symmetry_equiv_pos_as_xyz
1 x,y,z
2 -x,y,1/2-z
3 1/2+x,1/2+y,z
4 1/2-x,1/2+y,1/2-z
5 -x,-y,-z
6 x,-y,1/2+z
7 1/2-x,1/2-y,-z
8 1/2+x,1/2-y,1/2+z
_cell_length_a                   28.171(2)
_cell_length_b                   5.5540(10)
_cell_length_c                   22.1020(10)
_cell_angle_alpha                90
_cell_angle_beta                 115.8680(10)
_cell_angle_gamma                90
_cell_volume                     3111.62
loop_
_atom_site_label
_atom_site_type_symbol
_atom_site_fract_x
_atom_site_fract_y
_atom_site_fract_z
C1 C 0.21656(11) -0.0279(5) 0.16879(14)
H1 H 0.2405 0.0865 0.1682
C2 C 0.19178(13) 0.0055(6) 0.21029(16)
H2 H 0.1992 0.1421 0.2372
C3 C 0.15662(13) -0.1605(7) 0.21196(17)
H3 H 0.1402 -0.1381 0.2400
C4 C 0.14592(12) -0.3596(7) 0.17203(17)
H4 H 0.1221 -0.4737 0.1731
C5 C 0.17008(10) -0.3938(5) 0.12996(14)
H5 H 0.1620 -0.5292 0.1025
C6 C 0.20617(8) -0.2284(4) 0.12849(11)
C7 C 0.23445(9) -0.2828(4) 0.08544(12)
H6 H 0.2598 -0.4101 0.1070
H7 H 0.2088 -0.3439 0.0424
C8 C 0.31312(8) -0.0374(4) 0.10970(10)
C9 C 0.34020(8) 0.1452(4) 0.09326(10)
C10 C 0.36693(9) 0.4238(5) 0.05042(11)
H8 H 0.3680 0.5461 0.0223
C11 C 0.39354(8) 0.1695(4) 0.13382(9)
C12 C 0.39179(8) -0.1299(4) 0.20000(10)
H9 H 0.4091 -0.2269 0.2376
C13 C 0.49770(7) -0.0984(4) 0.37039(9)
C14 C 0.49924(8) -0.0458(4) 0.43782(9)
C15 C 0.48078(9) 0.1719(4) 0.44969(10)
H10 H 0.4679 0.2879 0.4160
C16 C 0.48156(9) 0.2161(4) 0.51161(10)
H11 H 0.4690 0.3622 0.5194
Cu1 Cu 0.5000 0.07414(6) 0.2500
N1 N 0.42174(6) 0.0364(3) 0.18941(8)
N2 N 0.41010(7) 0.3488(3) 0.10540(8)
H12 H 0.4407 0.4096 0.1204
N3 N 0.32360(7) 0.3089(4) 0.04042(9)
N4 N 0.26185(7) -0.0814(4) 0.07311(9)
H13 H 0.2441 0.0147 0.0405
N5 N 0.34090(7) -0.1755(3) 0.16430(9)
O1 O 0.48680(5) 0.0769(3) 0.32972(6)
O2 O 0.50664(7) -0.3073(3) 0.35810(7)
O3 O 0.5000 0.4643(4) 0.2500
H14 H 0.4975 0.5551 0.2799
C1A C 0.78344(11) -0.0279(5) 0.33121(14)
H1A H 0.7595 0.0865 0.3318
C2A C 0.80822(13) 0.0055(6) 0.28971(16)
H2A H 0.8008 0.1421 0.2628
C3A C 0.84338(13) -0.1605(7) 0.28804(17)
H3A H 0.8598 -0.1381 0.2600
C4A C 0.85408(12) -0.3596(7) 0.32797(17)
H4A H 0.8779 -0.4737 0.3269
C5A C 0.82992(10) -0.3938(5) 0.37004(14)
H5A H 0.8380 -0.5292 0.3975
C6A C 0.79383(8) -0.2284(4) 0.37151(11)
C7A C 0.76555(9) -0.2828(4) 0.41456(12)
H6A H 0.7402 -0.4101 0.3930
H7A H 0.7912 -0.3439 0.4576
C8A C 0.68688(8) -0.0374(4) 0.39030(10)
C9A C 0.65980(8) 0.1452(4) 0.40674(10)
C10A C 0.63307(9) 0.4238(5) 0.44958(11)
H8A H 0.6320 0.5461 0.4777
C11A C 0.60646(8) 0.1695(4) 0.36618(9)
C12A C 0.60821(8) -0.1299(4) 0.30000(10)
H9A H 0.5909 -0.2269 0.2624
C13D C 0.50230(7) 0.0984(4) 0.62961(9)
C14D C 0.50076(8) 0.0458(4) 0.56218(9)
C15D C 0.51922(9) -0.1719(4) 0.55031(10)
H10D H 0.5321 -0.2879 0.5840
C16D C 0.51844(9) -0.2161(4) 0.48839(10)
H11D H 0.5310 -0.3622 0.4806
Cu1D Cu 0.5000 -0.07414(6) 0.7500
N1A N 0.57826(6) 0.0364(3) 0.31059(8)
N2A N 0.58990(7) 0.3488(3) 0.39460(8)
H12A H 0.5593 0.4096 0.3796
N3A N 0.67640(7) 0.3089(4) 0.45958(9)
N4A N 0.73815(7) -0.0814(4) 0.42689(9)
H13A H 0.7559 0.0147 0.4595
N5A N 0.65910(7) -0.1755(3) 0.33570(9)
O1D O 0.51320(5) -0.0769(3) 0.67028(6)
O1A O 0.51320(5) 0.0769(3) 0.17028(6)
O2D O 0.49336(7) 0.3073(3) 0.64190(7)
H14A H 0.5025 0.5551 0.2201
loop_
_geom_bond_atom_site_label_1
_geom_bond_atom_site_label_2
_geom_bond_site_symmetry_1
_geom_bond_site_symmetry_2
C1 H1 1_555 1_555
C2 C1 1_555 1_555
H2 C2 1_555 1_555
C3 C2 1_555 1_555
H3 C3 1_555 1_555
C4 C3 1_555 1_555
H4 C4 1_555 1_555
C5 C4 1_555 1_555
H5 C5 1_555 1_555
C6 C1 1_555 1_555
C7 C6 1_555 1_555
H6 C7 1_555 1_555
H7 C7 1_555 1_555
C8 C9 1_555 1_555
C9 C11 1_555 1_555
C10 H8 1_555 1_555
C11 N1 1_555 1_555
C12 H9 1_555 1_555
C13 C14 1_555 1_555
C14 C15 1_555 1_555
C15 H10 1_555 1_555
C16 C15 1_555 1_555
H11 C16 1_555 1_555
Cu1 N1 1_555 1_555
N1 C12 1_555 1_555
N2 C10 1_555 1_555
H12 N2 1_555 1_555
N3 C9 1_555 1_555
N4 C7 1_555 1_555
H13 N4 1_555 1_555
N5 C8 1_555 1_555
O1 C13 1_555 1_555
O2 C13 1_555 1_555
O3 Cu1 1_555 1_555
H14 O3 1_555 1_555
C1A H1A 1_555 1_555
C2A C1A 1_555 1_555
H2A C2A 1_555 1_555
C3A C2A 1_555 1_555
H3A C3A 1_555 1_555
C4A C3A 1_555 1_555
H4A C4A 1_555 1_555
C5A C4A 1_555 1_555
H5A C5A 1_555 1_555
C6A C1A 1_555 1_555
C7A C6A 1_555 1_555
H6A C7A 1_555 1_555
H7A C7A 1_555 1_555
C8A C9A 1_555 1_555
C9A C11A 1_555 1_555
C10A H8A 1_555 1_555
C11A N1A 1_555 1_555
C12A H9A 1_555 1_555
C13D C14D 1_555 1_555
C14D C16 1_555 1_555
C15D C14D 1_555 1_555
H10D C15D 1_555 1_555
C16D C14 1_555 1_555
H11D C16D 1_555 1_555
Cu1D O1D 1_555 1_555
N1A Cu1 1_555 1_555
N2A C10A 1_555 1_555
H12A N2A 1_555 1_555
N3A C9A 1_555 1_555
N4A C7A 1_555 1_555
H13A N4A 1_555 1_555
N5A C8A 1_555 1_555
O1D C13D 1_555 1_555
O1A Cu1 1_555 1_555
O2D C13D 1_555 1_555
H14A O3 1_555 1_555
C5 C6 1_555 1_555
C8 N4 1_555 1_555
C10 N3 1_555 1_555
C11 N2 1_555 1_555
C12 N5 1_555 1_555
Cu1 O1 1_555 1_555
C5A C6A 1_555 1_555
C8A N4A 1_555 1_555
C10A N3A 1_555 1_555
C11A N2A 1_555 1_555
C12A N1A 1_555 1_555
C12A N5A 1_555 1_555
C15D C16D 1_555 1_555

#END
