
#######################################################################
#
#                 Cambridge Crystallographic Data Centre
#                                CCDC 
#
#######################################################################
#
# If this CIF has been generated from an entry in the Cambridge 
# Structural Database, then it will include bibliographic, chemical, 
# crystal, experimental, refinement or atomic coordinate data resulting 
# from the CCDC's data processing and validation procedures.
#
#######################################################################

data_AYIWOV01
_symmetry_cell_setting           triclinic
_symmetry_space_group_name_H-M   'P -1'
_symmetry_Int_Tables_number      2
_space_group_name_Hall           '-P 1'
loop_
_symmetry_equiv_pos_site_id
_symmetry_equiv_pos_as_xyz
1 x,y,z
2 -x,-y,-z
_cell_length_a                   5.8696(4)
_cell_length_b                   8.2405(6)
_cell_length_c                   10.8904(8)
_cell_angle_alpha                105.5640(10)
_cell_angle_beta                 97.8360(10)
_cell_angle_gamma                97.9780(10)
_cell_volume                     494.137
loop_
_atom_site_label
_atom_site_type_symbol
_atom_site_fract_x
_atom_site_fract_y
_atom_site_fract_z
Cd1 Cd 0.0000 1.0000 1.0000
N1 N -0.0044(3) 0.7980(2) 0.80232(16)
O1 O 0.2251(3) 0.85895(19) 1.10694(14)
O2 O -0.0640(3) 0.6553(2) 1.1129(2)
O3 O 0.5256(3) 0.7560(2) 1.27419(15)
O4 O -0.3438(3) 0.8343(2) 1.01845(16)
H1 H -0.4468 0.8709 1.0609
H2 H -0.2787 0.7756 1.0614
C1 C 0.1680(4) 0.5851(3) 0.6713(2)
H3 H 0.2870 0.5212 0.6657
C2 C 0.1605(4) 0.7024(3) 0.7870(2)
H4 H 0.2767 0.7156 0.8579
C3 C -0.1706(4) 0.7748(3) 0.6995(2)
H5 H -0.2889 0.8391 0.7084
C4 C -0.1750(4) 0.6600(3) 0.58082(19)
H6 H -0.2950 0.6481 0.5120
C5 C -0.0018(3) 0.5621(2) 0.56321(17)
C6 C 0.1432(4) 0.7255(3) 1.1349(2)
C7 C 0.6960(4) 1.0025(3) 1.4443(2)
H7 H 0.8287 1.0050 1.4065
C8 C 0.5016(4) 0.8758(3) 1.3844(2)
C9 C 0.3037(4) 0.8752(3) 1.4411(2)
H8 H 0.1707 0.7921 1.4017
C10 C 0.3206(4) 0.6408(3) 1.1983(2)
H9 H 0.2461 0.5832 1.2533
H10 H 0.3659 0.5542 1.1312
N1A N 0.0044(3) 0.2020(2) 0.19768(16)
C1A C -0.1680(4) 0.4149(3) 0.3287(2)
H3A H -0.2870 0.4788 0.3343
C2A C -0.1605(4) 0.2976(3) 0.2130(2)
H4A H -0.2767 0.2844 0.1421
C3A C 0.1706(4) 0.2252(3) 0.3005(2)
H5A H 0.2889 0.1609 0.2916
C4A C 0.1750(4) 0.3400(3) 0.41918(19)
H6A H 0.2950 0.3519 0.4880
C5A C 0.0018(3) 0.4379(2) 0.43679(17)
O1A O 0.7749(3) 1.14105(19) 1.89306(14)
O2A O 1.0640(3) 1.3447(2) 1.8871(2)
O3A O 0.4744(3) 1.2440(2) 1.72581(15)
C6A C 0.8568(4) 1.2745(3) 1.8651(2)
C7A C 0.3040(4) 0.9975(3) 1.5557(2)
H7A H 0.1713 0.9950 1.5935
C8A C 0.4984(4) 1.1242(3) 1.6156(2)
C9A C 0.6963(4) 1.1248(3) 1.5589(2)
H8A H 0.8293 1.2079 1.5983
C10A C 0.6794(4) 1.3592(3) 1.8017(2)
H9A H 0.7539 1.4168 1.7467
H10A H 0.6341 1.4458 1.8688
O4A O 0.3438(3) 1.1657(2) 0.98155(16)
H1A H 0.4468 1.1291 0.9391
H2A H 0.2787 1.2244 0.9386
Cd1_2 Cd 0.0000 0.0000 0.0000
Cd1_3 Cd 1.0000 1.0000 2.0000
N1A_2 N 0.0044(3) 1.2020(2) 1.19768(16)
O1A_2 O -0.2251(3) 1.14105(19) 0.89306(14)
loop_
_geom_bond_atom_site_label_1
_geom_bond_atom_site_label_2
_geom_bond_site_symmetry_1
_geom_bond_site_symmetry_2
Cd1 N1 1_555 1_555
N1 C2 1_555 1_555
O1 Cd1 1_555 1_555
O2 C6 1_555 1_555
O3 C8 1_555 1_555
O4 Cd1 1_555 1_555
H1 O4 1_555 1_555
H2 O4 1_555 1_555
C1 H3 1_555 1_555
C2 C1 1_555 1_555
H4 C2 1_555 1_555
C3 N1 1_555 1_555
H5 C3 1_555 1_555
C4 C3 1_555 1_555
H6 C4 1_555 1_555
C5 C1 1_555 1_555
C6 O1 1_555 1_555
C7 H7 1_555 1_555
C8 C7 1_555 1_555
C9 C8 1_555 1_555
H8 C9 1_555 1_555
C10 O3 1_555 1_555
H9 C10 1_555 1_555
H10 C10 1_555 1_555
N1A C2A 1_555 1_555
C1A H3A 1_555 1_555
C2A C1A 1_555 1_555
H4A C2A 1_555 1_555
C3A N1A 1_555 1_555
H5A C3A 1_555 1_555
C4A C3A 1_555 1_555
H6A C4A 1_555 1_555
C5A C5 1_555 1_555
O1A C6A 1_555 1_555
O2A C6A 1_555 1_555
O3A C8A 1_555 1_555
C6A C10A 1_555 1_555
C7A C9 1_555 1_555
H7A C7A 1_555 1_555
C8A C7A 1_555 1_555
C9A C7 1_555 1_555
H8A C9A 1_555 1_555
C10A O3A 1_555 1_555
H9A C10A 1_555 1_555
H10A C10A 1_555 1_555
O4A Cd1 1_555 1_555
H1A O4A 1_555 1_555
H2A O4A 1_555 1_555
Cd1_2 N1A 1_555 1_555
Cd1_3 O1A 1_555 1_555
N1A_2 Cd1 1_555 1_555
O1A_2 Cd1 1_555 1_555
C4 C5 1_555 1_555
C6 C10 1_555 1_555
C1A C5A 1_555 1_555
C4A C5A 1_555 1_555
C8A C9A 1_555 1_555

#END
