
#######################################################################
#
#                 Cambridge Crystallographic Data Centre
#                                CCDC 
#
#######################################################################
#
# If this CIF has been generated from an entry in the Cambridge 
# Structural Database, then it will include bibliographic, chemical, 
# crystal, experimental, refinement or atomic coordinate data resulting 
# from the CCDC's data processing and validation procedures.
#
#######################################################################

data_AYIWOV
_symmetry_cell_setting           triclinic
_symmetry_space_group_name_H-M   'P -1'
_symmetry_Int_Tables_number      2
_space_group_name_Hall           '-P 1'
loop_
_symmetry_equiv_pos_site_id
_symmetry_equiv_pos_as_xyz
1 x,y,z
2 -x,-y,-z
_cell_length_a                   5.8612(6)
_cell_length_b                   8.2313(8)
_cell_length_c                   10.8659(11)
_cell_angle_alpha                105.6400(10)
_cell_angle_beta                 97.6785(12)
_cell_angle_gamma                97.9310(10)
_cell_volume                     491.906
loop_
_atom_site_label
_atom_site_type_symbol
_atom_site_fract_x
_atom_site_fract_y
_atom_site_fract_z
C1 C 0.3288(6) 0.2750(4) 0.2007(3)
H1 H 0.2097 0.3389 0.2098
C2 C 0.3250(6) 0.1600(4) 0.0818(3)
H2 H 0.2047 0.1479 0.0130
C3 C 0.4983(5) 0.0624(4) 0.0637(3)
C4 C 0.6685(6) 0.0859(5) 0.1715(3)
H3 H 0.7881 0.0223 0.1656
C5 C 0.6607(6) 0.2037(5) 0.2877(3)
H4 H 0.7771 0.2169 0.3586
C6 C 0.3586(6) 0.7739(4) 0.3662(3)
C7 C 0.1802(6) 0.8591(4) 0.3031(3)
H5 H 0.1348 0.9458 0.3706
H6 H 0.2542 0.9168 0.2478
C8 C -0.1959(6) 0.4972(5) 0.0564(3)
H7 H -0.3285 0.4941 0.0948
C9 C -0.0019(6) 0.6241(4) 0.1162(3)
C10 C 0.1962(6) 0.6247(4) 0.0590(3)
H8 H 0.3294 0.7076 0.0986
N1 N 0.4958(5) 0.2990(3) 0.3034(2)
O1 O 0.2781(4) 0.6403(3) 0.3942(2)
O2 O 0.5658(5) 0.8448(3) 0.3879(3)
O3 O -0.0252(4) 0.7435(3) 0.2275(2)
O4 O 0.1584(4) 0.3373(3) 0.5183(2)
H9 H 0.0509 0.3664 0.5598
H10 H 0.2264 0.2728 0.5543
Cd1 Cd 0.5000 0.5000 0.5000
C1A C 0.6712(6) -0.2750(4) -0.2007(3)
H1A H 0.7903 -0.3389 -0.2098
C2A C 0.6750(6) -0.1600(4) -0.0818(3)
H2A H 0.7953 -0.1479 -0.0130
C3A C 0.5017(5) -0.0624(4) -0.0637(3)
C4A C 0.3315(6) -0.0859(5) -0.1715(3)
H3A H 0.2119 -0.0223 -0.1656
C5A C 0.3393(6) -0.2037(5) -0.2877(3)
H4A H 0.2229 -0.2169 -0.3586
C6A C -0.3586(6) 0.2261(4) -0.3662(3)
C7A C -0.1802(6) 0.1409(4) -0.3031(3)
H5A H -0.1348 0.0542 -0.3706
H6A H -0.2542 0.0832 -0.2478
C8A C 0.1959(6) 0.5028(5) -0.0564(3)
H7A H 0.3285 0.5059 -0.0948
C9A C 0.0019(6) 0.3759(4) -0.1162(3)
C10A C -0.1962(6) 0.3753(4) -0.0590(3)
H8A H -0.3294 0.2924 -0.0986
N1A N 0.5042(5) -0.2990(3) -0.3034(2)
N1A_2 N 0.5042(5) 0.7010(3) 0.6966(2)
O1A O -0.2781(4) 0.3597(3) -0.3942(2)
O1A_2 O 0.7219(4) 0.3597(3) 0.6058(2)
O2A O -0.5658(5) 0.1552(3) -0.3879(3)
O3A O 0.0252(4) 0.2565(3) -0.2275(2)
O4A O 0.8416(4) 0.6627(3) 0.4817(2)
H9A H 0.9491 0.6336 0.4402
H10A H 0.7736 0.7272 0.4457
Cd1_2 Cd -0.5000 0.5000 -0.5000
Cd1_3 Cd 0.5000 -0.5000 -0.5000
loop_
_geom_bond_atom_site_label_1
_geom_bond_atom_site_label_2
_geom_bond_site_symmetry_1
_geom_bond_site_symmetry_2
C1 H1 1_555 1_555
C2 C1 1_555 1_555
H2 C2 1_555 1_555
C3 C2 1_555 1_555
C4 C3 1_555 1_555
H3 C4 1_555 1_555
C5 C4 1_555 1_555
H4 C5 1_555 1_555
C6 C7 1_555 1_555
C7 H5 1_555 1_555
H6 C7 1_555 1_555
C8 H7 1_555 1_555
C9 C8 1_555 1_555
C10 C9 1_555 1_555
H8 C10 1_555 1_555
N1 C1 1_555 1_555
O1 C6 1_555 1_555
O2 C6 1_555 1_555
O3 C7 1_555 1_555
O4 H9 1_555 1_555
H10 O4 1_555 1_555
Cd1 N1 1_555 1_555
C1A H1A 1_555 1_555
C2A C1A 1_555 1_555
H2A C2A 1_555 1_555
C3A C3 1_555 1_555
C4A C3A 1_555 1_555
H3A C4A 1_555 1_555
C5A C4A 1_555 1_555
H4A C5A 1_555 1_555
C6A C7A 1_555 1_555
C7A H5A 1_555 1_555
H6A C7A 1_555 1_555
C8A C10 1_555 1_555
H7A C8A 1_555 1_555
C9A C8A 1_555 1_555
C10A C8 1_555 1_555
H8A C10A 1_555 1_555
N1A C1A 1_555 1_555
N1A_2 Cd1 1_555 1_555
O1A C6A 1_555 1_555
O1A_2 Cd1 1_555 1_555
O2A C6A 1_555 1_555
O3A C7A 1_555 1_555
O4A Cd1 1_555 1_555
H9A O4A 1_555 1_555
H10A O4A 1_555 1_555
Cd1_2 O1A 1_555 1_555
Cd1_3 N1A 1_555 1_555
C5 N1 1_555 1_555
C9 O3 1_555 1_555
O1 Cd1 1_555 1_555
O4 Cd1 1_555 1_555
C2A C3A 1_555 1_555
C5A N1A 1_555 1_555
C9A C10A 1_555 1_555
C9A O3A 1_555 1_555

#END
