
#######################################################################
#
#                 Cambridge Crystallographic Data Centre
#                                CCDC 
#
#######################################################################
#
# If this CIF has been generated from an entry in the Cambridge 
# Structural Database, then it will include bibliographic, chemical, 
# crystal, experimental, refinement or atomic coordinate data resulting 
# from the CCDC's data processing and validation procedures.
#
#######################################################################

data_AYOBOG
_symmetry_cell_setting           monoclinic
_symmetry_space_group_name_H-M   'P 21/c'
_symmetry_Int_Tables_number      14
_space_group_name_Hall           '-P 2ybc'
loop_
_symmetry_equiv_pos_site_id
_symmetry_equiv_pos_as_xyz
1 x,y,z
2 -x,1/2+y,1/2-z
3 -x,-y,-z
4 x,1/2-y,1/2+z
_cell_length_a                   10.97520(10)
_cell_length_b                   11.83420(10)
_cell_length_c                   17.4160(2)
_cell_angle_alpha                90
_cell_angle_beta                 102.1640(10)
_cell_angle_gamma                90
_cell_volume                     2211.25
loop_
_atom_site_label
_atom_site_type_symbol
_atom_site_fract_x
_atom_site_fract_y
_atom_site_fract_z
Sn1 Sn 0.980205(6) 0.157183(6) 0.217102(4)
O1 O 0.93081(8) 0.32432(7) 0.16122(5)
O2 O 0.97650(7) 0.46996(7) 0.24440(4)
O3 O 0.70740(8) 0.38800(8) 0.21137(5)
O4 O 0.53208(8) 0.43580(10) 0.13585(6)
N1 N 0.89051(11) 0.67399(10) -0.04786(6)
N2 N 0.64692(9) 0.43960(9) 0.15452(6)
C1 C 0.87574(10) 0.17504(9) 0.30535(6)
C2 C 0.89877(11) 0.25962(10) 0.36218(7)
H1 H 0.9597 0.3158 0.3599
C3 C 0.83296(13) 0.26235(12) 0.42251(7)
H2 H 0.8496 0.3199 0.4613
C4 C 0.74309(12) 0.18074(12) 0.42582(7)
H3 H 0.6988 0.1823 0.4672
C5 C 0.71792(11) 0.09704(12) 0.36888(7)
H4 H 0.6557 0.0419 0.3708
C6 C 0.78424(10) 0.09427(10) 0.30890(7)
H5 H 0.7670 0.0368 0.2700
C7 C 0.86334(10) 0.08532(9) 0.11625(6)
C8 C 0.73920(10) 0.12127(11) 0.09743(7)
H6 H 0.7118 0.1796 0.1272
C9 C 0.65528(12) 0.07180(14) 0.03508(7)
H7 H 0.5712 0.0969 0.0222
C10 C 0.69493(13) -0.01430(14) -0.00817(8)
H8 H 0.6375 -0.0486 -0.0502
C11 C 0.81737(14) -0.05009(11) 0.00968(7)
H9 H 0.8442 -0.1089 -0.0200
C12 C 0.90166(12) 0.00017(10) 0.07139(7)
H10 H 0.9861 -0.0239 0.0830
C13 C 1.17373(10) 0.19205(10) 0.23296(6)
C14 C 1.25426(11) 0.11915(12) 0.20473(7)
H11 H 1.2224 0.0527 0.1770
C15 C 1.38145(12) 0.14349(14) 0.21712(8)
H12 H 1.4356 0.0938 0.1974
C16 C 1.42905(12) 0.23968(14) 0.25801(10)
H13 H 1.5155 0.2561 0.2661
C17 C 1.34983(13) 0.31200(13) 0.28711(12)
H14 H 1.3825 0.3774 0.3158
C18 C 1.22256(11) 0.28880(11) 0.27429(9)
H15 H 1.1687 0.3391 0.2938
C19 C 0.92115(9) 0.42633(9) 0.18082(6)
C20 C 0.84255(9) 0.49904(9) 0.11779(6)
C21 C 0.90148(10) 0.55602(9) 0.06630(6)
H16 H 0.9895 0.5512 0.0730
C22 C 0.83273(11) 0.62117(10) 0.00411(6)
C23 C 0.70317(11) 0.63147(11) -0.00281(7)
H17 H 0.6562 0.6784 -0.0425
C24 C 0.64407(10) 0.57407(11) 0.04748(7)
H18 H 0.5564 0.5806 0.0420
C25 C 0.71282(10) 0.50604(10) 0.10674(6)
H19 H 0.8472(16) 0.6975(16) -0.0914(11)
H20 H 0.9684(18) 0.6650(15) -0.0455(11)
Sn1A Sn 1.019795(6) 0.657183(6) 0.282898(4)
O2A O 1.02350(7) -0.03004(7) 0.25560(4)
loop_
_geom_bond_atom_site_label_1
_geom_bond_atom_site_label_2
_geom_bond_site_symmetry_1
_geom_bond_site_symmetry_2
Sn1 O1 1_555 1_555
O1 C19 1_555 1_555
O2 C19 1_555 1_555
O3 N2 1_555 1_555
O4 N2 1_555 1_555
N1 C22 1_555 1_555
N2 C25 1_555 1_555
C1 Sn1 1_555 1_555
C2 C1 1_555 1_555
H1 C2 1_555 1_555
C3 C2 1_555 1_555
H2 C3 1_555 1_555
C4 C3 1_555 1_555
H3 C4 1_555 1_555
C5 C4 1_555 1_555
H4 C5 1_555 1_555
C6 C1 1_555 1_555
H5 C6 1_555 1_555
C7 Sn1 1_555 1_555
C8 C7 1_555 1_555
H6 C8 1_555 1_555
C9 C8 1_555 1_555
H7 C9 1_555 1_555
C10 C9 1_555 1_555
H8 C10 1_555 1_555
C11 C10 1_555 1_555
H9 C11 1_555 1_555
C12 C7 1_555 1_555
H10 C12 1_555 1_555
C13 Sn1 1_555 1_555
C14 C13 1_555 1_555
H11 C14 1_555 1_555
C15 C14 1_555 1_555
H12 C15 1_555 1_555
C16 C15 1_555 1_555
H13 C16 1_555 1_555
C17 C16 1_555 1_555
H14 C17 1_555 1_555
C18 C13 1_555 1_555
H15 C18 1_555 1_555
C19 C20 1_555 1_555
C20 C21 1_555 1_555
C21 H16 1_555 1_555
C22 C21 1_555 1_555
C23 C22 1_555 1_555
H17 C23 1_555 1_555
C24 C23 1_555 1_555
H18 C24 1_555 1_555
C25 C20 1_555 1_555
H19 N1 1_555 1_555
H20 N1 1_555 1_555
Sn1A O2 1_555 1_555
O2A Sn1 1_555 1_555
C5 C6 1_555 1_555
C11 C12 1_555 1_555
C17 C18 1_555 1_555
C24 C25 1_555 1_555

#END
