
#######################################################################
#
#                 Cambridge Crystallographic Data Centre
#                                CCDC 
#
#######################################################################
#
# If this CIF has been generated from an entry in the Cambridge 
# Structural Database, then it will include bibliographic, chemical, 
# crystal, experimental, refinement or atomic coordinate data resulting 
# from the CCDC's data processing and validation procedures.
#
#######################################################################

data_AYODIC
_symmetry_cell_setting           triclinic
_symmetry_space_group_name_H-M   'P -1'
_symmetry_Int_Tables_number      2
_space_group_name_Hall           '-P 1'
loop_
_symmetry_equiv_pos_site_id
_symmetry_equiv_pos_as_xyz
1 x,y,z
2 -x,-y,-z
_cell_length_a                   8.141(3)
_cell_length_b                   8.306(3)
_cell_length_c                   8.816(5)
_cell_angle_alpha                114.683(6)
_cell_angle_beta                 101.989(5)
_cell_angle_gamma                108.258(4)
_cell_volume                     473.147
loop_
_atom_site_label
_atom_site_type_symbol
_atom_site_fract_x
_atom_site_fract_y
_atom_site_fract_z
I1 I -0.63541(5) 0.55664(5) -0.19170(4)
Cu1 Cu -0.29230(10) 0.58503(11) -0.03571(10)
N1 N -0.1172(6) 0.8746(7) 0.1128(6)
N2 N 0.0984(6) 1.1683(7) 0.3412(6)
H1 H 0.1990 1.2584 0.4362
C1 C 0.2418(7) 0.9476(8) 0.4986(7)
H2 H 0.2385 1.0553 0.5891
C2 C 0.3354(7) 0.8513(9) 0.5428(7)
H3 H 0.3934 0.8906 0.6634
C3 C 0.3418(7) 0.6968(8) 0.4067(7)
H4 H 0.4039 0.6317 0.4384
C4 C 0.0440(7) 0.9714(7) 0.2574(7)
C5 C -0.1648(7) 1.0191(8) 0.1087(7)
H5 H -0.2713 0.9951 0.0220
C6 C -0.0336(8) 1.2007(8) 0.2495(7)
H6 H -0.0330 1.3221 0.2781
C7 C 0.1521(7) 0.8819(7) 0.3165(7)
C8 C 0.1698(7) 0.7266(7) 0.1884(7)
H7 H 0.1135 0.6846 0.0668
N3 N 0.2635(6) 0.6336(6) 0.2299(6)
I1A I -0.36459(5) 0.44336(5) 0.19170(4)
Cu1A Cu -0.70770(10) 0.41497(11) 0.03571(10)
Cu1_2 Cu -1.29230(10) 0.58503(11) -0.03571(10)
Cu1A_2 Cu 0.29230(10) 0.41497(11) 0.03571(10)
N1A N -0.8828(6) 0.1254(7) -0.1128(6)
N2A N -1.0984(6) -0.1683(7) -0.3412(6)
H1A H -1.1990 -0.2584 -0.4362
C1A C -1.2418(7) 0.0524(8) -0.4986(7)
H2A H -1.2385 -0.0553 -0.5891
C2A C -1.3354(7) 0.1487(9) -0.5428(7)
H3A H -1.3934 0.1094 -0.6634
C3A C -1.3418(7) 0.3032(8) -0.4067(7)
H4A H -1.4039 0.3683 -0.4384
C4A C -1.0440(7) 0.0286(7) -0.2574(7)
C5A C -0.8352(7) -0.0191(8) -0.1087(7)
H5A H -0.7287 0.0049 -0.0220
C6A C -0.9664(8) -0.2007(8) -0.2495(7)
H6A H -0.9670 -0.3221 -0.2781
C7A C -1.1521(7) 0.1181(7) -0.3165(7)
C8A C -1.1698(7) 0.2734(7) -0.1884(7)
H7A H -1.1135 0.3154 -0.0668
N3A N -1.2635(6) 0.3664(6) -0.2299(6)
N3_2 N -0.7365(6) 0.6336(6) 0.2299(6)
N3A_2 N -0.2635(6) 0.3664(6) -0.2299(6)
loop_
_geom_bond_atom_site_label_1
_geom_bond_atom_site_label_2
_geom_bond_site_symmetry_1
_geom_bond_site_symmetry_2
I1 Cu1 1_555 1_555
Cu1 N1 1_555 1_555
N1 C4 1_555 1_555
N2 H1 1_555 1_555
C1 H2 1_555 1_555
C2 C1 1_555 1_555
H3 C2 1_555 1_555
C3 C2 1_555 1_555
H4 C3 1_555 1_555
C4 N2 1_555 1_555
C5 N1 1_555 1_555
H5 C5 1_555 1_555
C6 N2 1_555 1_555
H6 C6 1_555 1_555
C7 C1 1_555 1_555
C8 C7 1_555 1_555
H7 C8 1_555 1_555
N3 C3 1_555 1_555
I1A Cu1 1_555 1_555
Cu1A I1 1_555 1_555
Cu1_2 N3A 1_555 1_555
Cu1A_2 N3 1_555 1_555
N1A Cu1A 1_555 1_555
N2A H1A 1_555 1_555
C1A H2A 1_555 1_555
C2A C1A 1_555 1_555
H3A C2A 1_555 1_555
C3A C2A 1_555 1_555
H4A C3A 1_555 1_555
C4A N1A 1_555 1_555
C5A N1A 1_555 1_555
H5A C5A 1_555 1_555
C6A N2A 1_555 1_555
H6A C6A 1_555 1_555
C7A C1A 1_555 1_555
C8A C7A 1_555 1_555
H7A C8A 1_555 1_555
N3A C3A 1_555 1_555
N3_2 Cu1A 1_555 1_555
N3A_2 Cu1 1_555 1_555
C4 C7 1_555 1_555
C5 C6 1_555 1_555
C8 N3 1_555 1_555
I1A Cu1A 1_555 1_555
N2A C4A 1_555 1_555
C4A C7A 1_555 1_555
C5A C6A 1_555 1_555
C8A N3A 1_555 1_555

#END
