
#######################################################################
#
#                 Cambridge Crystallographic Data Centre
#                                CCDC 
#
#######################################################################
#
# If this CIF has been generated from an entry in the Cambridge 
# Structural Database, then it will include bibliographic, chemical, 
# crystal, experimental, refinement or atomic coordinate data resulting 
# from the CCDC's data processing and validation procedures.
#
#######################################################################

data_AYOFOK
_symmetry_cell_setting           monoclinic
_symmetry_space_group_name_H-M   'P 21/c'
_symmetry_Int_Tables_number      14
_space_group_name_Hall           '-P 2ybc'
loop_
_symmetry_equiv_pos_site_id
_symmetry_equiv_pos_as_xyz
1 x,y,z
2 -x,1/2+y,1/2-z
3 -x,-y,-z
4 x,1/2-y,1/2+z
_cell_length_a                   13.4421(15)
_cell_length_b                   13.7754(17)
_cell_length_c                   16.2418(13)
_cell_angle_alpha                90
_cell_angle_beta                 115.813(4)
_cell_angle_gamma                90
_cell_volume                     2707.41
loop_
_atom_site_label
_atom_site_type_symbol
_atom_site_fract_x
_atom_site_fract_y
_atom_site_fract_z
O1 O 0.4403(3) 0.6060(3) 0.0967(3)
H20 H 0.4156 0.5777 0.1305
H21 H 0.3799 0.6182 0.0501
O2 O 0.4253(3) 0.1460(3) 0.5360(2)
H18 H 0.3687 0.1203 0.4936
H19 H 0.4382 0.1202 0.5872
Nd1 Nd 0.898403(16) 0.014994(16) 0.571291(14)
O3 O 0.7704(2) 0.1428(2) 0.56596(19)
O4 O 0.9065(2) 0.1322(2) 0.70371(19)
O5 O 0.9144(2) 0.4679(2) 0.8775(2)
O6 O 0.7730(2) 0.4510(2) 0.91087(18)
O7 O 0.4645(3) 0.5086(2) 0.5783(2)
O8 O 0.9932(2) 0.1532(2) 0.55514(19)
O9 O 1.1226(2) 0.1364(2) 0.50548(19)
O10 O 1.0730(2) 0.4069(2) 0.7959(2)
O11 O 1.2447(2) 0.4326(2) 0.89481(19)
O12 O 1.4746(3) 0.0803(2) 0.7157(2)
N1 N 0.4776(3) 0.3440(3) 0.5862(2)
H1 H 0.4395 0.2915 0.5689
N2 N 0.0898(3) 0.4082(3) 0.3610(3)
H2 H 0.0259 0.3971 0.3130
N3 N 1.4748(3) 0.2155(3) 0.7943(2)
H3 H 1.5175 0.2570 0.8333
N4 N 1.8768(3) 0.1047(4) 0.9233(4)
C1 C 0.8171(3) 0.1699(3) 0.6476(3)
C2 C 0.7617(3) 0.2495(3) 0.6762(3)
C3 C 0.8178(3) 0.3080(3) 0.7518(3)
H4 H 0.8933 0.3002 0.7871
C4 C 0.7597(3) 0.3787(3) 0.7744(2)
C5 C 0.6465(3) 0.3920(3) 0.7214(3)
H5 H 0.6080 0.4383 0.7377
C6 C 0.5922(3) 0.3350(3) 0.6440(3)
C7 C 0.6500(3) 0.2648(3) 0.6220(3)
H6 H 0.6133 0.2270 0.5700
C8 C 0.8192(3) 0.4374(3) 0.8595(3)
C9 C 0.4240(3) 0.4284(3) 0.5564(3)
C10 C 0.3035(3) 0.4177(3) 0.4879(3)
C11 C 0.2528(4) 0.4968(4) 0.4336(4)
H7 H 0.2917 0.5545 0.4407
C12 C 0.1446(5) 0.4904(4) 0.3688(4)
H8 H 0.1105 0.5430 0.3312
C13 C 0.1334(4) 0.3328(4) 0.4145(4)
H9 H 0.0912 0.2773 0.4082
C14 C 0.2411(4) 0.3362(4) 0.4796(3)
H10 H 0.2717 0.2834 0.5180
C15 C 1.0895(3) 0.1640(3) 0.5638(3)
C16 C 1.1716(3) 0.2123(3) 0.6484(3)
C17 C 1.2835(3) 0.1920(3) 0.6786(3)
H11 H 1.3067 0.1502 0.6455
C18 C 1.3594(3) 0.2342(3) 0.7580(3)
C19 C 1.3240(3) 0.2999(3) 0.8052(3)
H12 H 1.3756 0.3302 0.8576
C20 C 1.2126(3) 0.3201(3) 0.7746(3)
C21 C 1.1354(3) 0.2748(3) 0.6964(3)
H13 H 1.0603 0.2863 0.6766
C22 C 1.1748(3) 0.3909(3) 0.8245(3)
C23 C 1.5245(3) 0.1407(3) 0.7749(3)
C24 C 1.6479(3) 0.1320(3) 0.8288(3)
C25 C 1.7001(4) 0.0579(4) 0.8048(4)
H14 H 1.6603 0.0165 0.7563
C26 C 1.8130(4) 0.0472(5) 0.8552(4)
H15 H 1.8468 -0.0042 0.8402
C27 C 1.8250(4) 0.1743(4) 0.9450(4)
H16 H 1.8669 0.2148 0.9935
C28 C 1.7122(4) 0.1909(4) 0.9002(3)
H17 H 1.6804 0.2415 0.9183
Nd1A Nd 1.101597(16) 0.514994(16) 0.928709(14)
Nd1C Nd 0.898403(16) 0.485006(16) 1.071291(14)
Nd1B Nd 1.101597(16) -0.014994(16) 0.428709(14)
O5A O 1.0856(2) -0.0321(2) 0.6225(2)
O6C O 0.7730(2) 0.0490(2) 0.41087(18)
O9B O 0.8774(2) -0.1364(2) 0.49452(19)
O10A O 0.9270(2) -0.0931(2) 0.7041(2)
O11A O 0.7553(2) -0.0674(2) 0.60519(19)
loop_
_geom_bond_atom_site_label_1
_geom_bond_atom_site_label_2
_geom_bond_site_symmetry_1
_geom_bond_site_symmetry_2
O1 H20 1_555 1_555
O2 H18 1_555 1_555
Nd1 O3 1_555 1_555
O3 C1 1_555 1_555
O4 Nd1 1_555 1_555
O5 C8 1_555 1_555
O6 C8 1_555 1_555
O7 C9 1_555 1_555
O8 Nd1 1_555 1_555
O9 C15 1_555 1_555
O10 C22 1_555 1_555
O11 C22 1_555 1_555
O12 C23 1_555 1_555
N1 H1 1_555 1_555
N2 H2 1_555 1_555
N3 H3 1_555 1_555
N4 C26 1_555 1_555
C1 O4 1_555 1_555
C2 C1 1_555 1_555
C3 C2 1_555 1_555
H4 C3 1_555 1_555
C4 C3 1_555 1_555
C5 C4 1_555 1_555
H5 C5 1_555 1_555
C6 N1 1_555 1_555
C7 C2 1_555 1_555
H6 C7 1_555 1_555
C8 C4 1_555 1_555
C9 N1 1_555 1_555
C10 C9 1_555 1_555
C11 C10 1_555 1_555
H7 C11 1_555 1_555
C12 N2 1_555 1_555
H8 C12 1_555 1_555
C13 N2 1_555 1_555
H9 C13 1_555 1_555
C14 C10 1_555 1_555
H10 C14 1_555 1_555
C15 O8 1_555 1_555
C16 C15 1_555 1_555
C17 C16 1_555 1_555
H11 C17 1_555 1_555
C18 N3 1_555 1_555
C19 C18 1_555 1_555
H12 C19 1_555 1_555
C20 C19 1_555 1_555
C21 C16 1_555 1_555
H13 C21 1_555 1_555
C22 C20 1_555 1_555
C23 N3 1_555 1_555
C24 C23 1_555 1_555
C25 C24 1_555 1_555
H14 C25 1_555 1_555
C26 C25 1_555 1_555
H15 C26 1_555 1_555
C27 N4 1_555 1_555
H16 C27 1_555 1_555
C28 C24 1_555 1_555
H17 C28 1_555 1_555
H19 O2 1_555 1_555
H21 O1 1_555 1_555
Nd1A O5 1_555 1_555
Nd1C O6 1_555 1_555
Nd1B O9 1_555 1_555
O5A Nd1 1_555 1_555
O6C Nd1 1_555 1_555
O9B Nd1 1_555 1_555
O10A Nd1 1_555 1_555
O11A Nd1 1_555 1_555
O10 Nd1A 1_555 1_555
O11 Nd1A 1_555 1_555
C5 C6 1_555 1_555
C6 C7 1_555 1_555
C11 C12 1_555 1_555
C13 C14 1_555 1_555
C17 C18 1_555 1_555
C20 C21 1_555 1_555
C27 C28 1_555 1_555

#END
