
#######################################################################
#
#                 Cambridge Crystallographic Data Centre
#                                CCDC 
#
#######################################################################
#
# If this CIF has been generated from an entry in the Cambridge 
# Structural Database, then it will include bibliographic, chemical, 
# crystal, experimental, refinement or atomic coordinate data resulting 
# from the CCDC's data processing and validation procedures.
#
#######################################################################

data_AYOGEB
_symmetry_cell_setting           monoclinic
_symmetry_space_group_name_H-M   'C 2/c'
_symmetry_Int_Tables_number      15
_space_group_name_Hall           '-C 2yn'
loop_
_symmetry_equiv_pos_site_id
_symmetry_equiv_pos_as_xyz
1 x,y,z
2 -x,y,1/2-z
3 1/2+x,1/2+y,z
4 1/2-x,1/2+y,1/2-z
5 -x,-y,-z
6 x,-y,1/2+z
7 1/2-x,1/2-y,-z
8 1/2+x,1/2-y,1/2+z
_cell_length_a                   18.2193(5)
_cell_length_b                   10.5507(3)
_cell_length_c                   13.1307(5)
_cell_angle_alpha                90
_cell_angle_beta                 105.2920(10)
_cell_angle_gamma                90
_cell_volume                     2434.7
loop_
_atom_site_label
_atom_site_type_symbol
_atom_site_fract_x
_atom_site_fract_y
_atom_site_fract_z
La1 La 0.753537(8) 0.505715(13) 0.708865(11)
O1 O 0.70771(10) 0.72700(18) 0.73633(16)
O2 O 0.82152(11) 0.4381(2) 0.56948(15)
O3 O 0.70436(11) 0.60558(18) 0.52529(15)
O4 O 0.70189(11) 0.59526(17) 0.35400(15)
O5 O 0.81026(11) 0.41769(18) 0.39750(15)
O6 O 0.67446(12) 0.33869(19) 0.59002(18)
H1 H 0.6840(18) 0.2609(12) 0.590(3)
H2 H 0.6393(18) 0.356(3) 0.536(2)
O7 O 0.86289(12) 0.66714(19) 0.70250(17)
H3 H 0.8424(19) 0.7373(19) 0.682(3)
H4 H 0.8870(19) 0.643(3) 0.660(2)
O8 O 0.62477(11) 0.88451(18) 0.70103(17)
N1 N 0.59859(12) 0.5541(2) 0.67230(18)
N2 N 0.44670(13) 0.6197(2) 0.5937(2)
N3 N 0.47703(15) 0.8320(3) 0.6050(3)
H7 H 0.5096(15) 0.893(2) 0.630(3)
H8 H 0.4284(8) 0.851(3) 0.593(3)
C1 C 0.54410(17) 0.4653(3) 0.6480(2)
H9 H 0.5572 0.3801 0.6577
C2 C 0.4688(2) 0.4990(2) 0.6088(3)
H10 H 0.4321 0.4355 0.5924
C3 C 0.50011(15) 0.7099(3) 0.6213(2)
C4 C 0.57805(15) 0.6755(2) 0.6627(2)
C5 C 0.64079(15) 0.7689(3) 0.7022(2)
C6 C 0.72721(15) 0.5654(2) 0.4499(2)
C7 C 0.79244(16) 0.4649(3) 0.4748(2)
La1C La 0.746463(8) 1.005715(13) 0.791135(11)
La1E La 0.753537(8) 0.494285(13) 0.208865(11)
O1C O 0.79229(10) 0.22700(18) 0.76367(16)
O4E O 0.70189(11) 0.40474(17) 0.85400(15)
O5E O 0.81026(11) 0.58231(18) 0.89750(15)
O8C O 0.87523(11) 0.38451(18) 0.79897(17)
O9 O 0.99478(18) 0.6325(3) 0.6200(3)
H5 H 1.0385(11) 0.644(4) 0.661(2)
H6 H 0.999(2) 0.628(4) 0.5577(12)
loop_
_geom_bond_atom_site_label_1
_geom_bond_atom_site_label_2
_geom_bond_site_symmetry_1
_geom_bond_site_symmetry_2
La1 O1 1_555 1_555
O1 C5 1_555 1_555
O2 La1 1_555 1_555
O3 La1 1_555 1_555
O4 C6 1_555 1_555
O5 C7 1_555 1_555
O6 La1 1_555 1_555
H1 O6 1_555 1_555
H2 O6 1_555 1_555
O7 La1 1_555 1_555
H3 O7 1_555 1_555
H4 O7 1_555 1_555
O8 C5 1_555 1_555
O9 H5 1_555 1_555
H6 O9 1_555 1_555
N1 La1 1_555 1_555
N2 C2 1_555 1_555
N3 H7 1_555 1_555
H8 N3 1_555 1_555
C1 N1 1_555 1_555
H9 C1 1_555 1_555
C2 C1 1_555 1_555
H10 C2 1_555 1_555
C3 N2 1_555 1_555
C4 N1 1_555 1_555
C5 C4 1_555 1_555
C6 O3 1_555 1_555
C7 O2 1_555 1_555
La1C O1 1_555 1_555
La1E O4 1_555 1_555
O1C La1 1_555 1_555
O4E La1 1_555 1_555
O5E La1 1_555 1_555
O8C La1 1_555 1_555
O5 La1E 1_555 1_555
O8 La1C 1_555 1_555
N3 C3 1_555 1_555
C3 C4 1_555 1_555
C6 C7 1_555 1_555

#END
