
#######################################################################
#
#                 Cambridge Crystallographic Data Centre
#                                CCDC 
#
#######################################################################
#
# If this CIF has been generated from an entry in the Cambridge 
# Structural Database, then it will include bibliographic, chemical, 
# crystal, experimental, refinement or atomic coordinate data resulting 
# from the CCDC's data processing and validation procedures.
#
#######################################################################

data_AYOGOL
_symmetry_cell_setting           monoclinic
_symmetry_space_group_name_H-M   'P 21/c'
_symmetry_Int_Tables_number      14
_space_group_name_Hall           '-P 2ybc'
loop_
_symmetry_equiv_pos_site_id
_symmetry_equiv_pos_as_xyz
1 x,y,z
2 -x,1/2+y,1/2-z
3 -x,-y,-z
4 x,1/2-y,1/2+z
_cell_length_a                   5.0732(4)
_cell_length_b                   11.8367(10)
_cell_length_c                   13.6810(11)
_cell_angle_alpha                90
_cell_angle_beta                 94.473(7)
_cell_angle_gamma                90
_cell_volume                     819.041
loop_
_atom_site_label
_atom_site_type_symbol
_atom_site_fract_x
_atom_site_fract_y
_atom_site_fract_z
Cu1 Cu 0.5000 0.5000 0.5000
S1 S 0.94199(14) 0.32615(6) 0.53104(5)
O1 O 0.8041(5) 0.4192(2) 0.57814(17)
O2 O 0.8628(6) 0.2154(2) 0.56252(19)
O3 O 1.2247(5) 0.3403(2) 0.53856(19)
N1 N 0.6262(5) 0.4204(2) 0.38608(19)
N2 N 0.7482(6) 0.3464(2) 0.2509(2)
H1 H 0.7537 0.3326 0.1894
C1 C 0.5837(6) 0.4210(3) 0.2898(2)
C2 C 0.3917(8) 0.4933(3) 0.2308(3)
H2 H 0.4281 0.5717 0.2474
H3 H 0.2151 0.4763 0.2492
C3 C 0.3959(10) 0.4793(4) 0.1198(3)
H4 H 0.2724 0.5309 0.0872
H5 H 0.3475 0.4032 0.1018
H6 H 0.5704 0.4949 0.1008
C4 C 0.9057(7) 0.2957(3) 0.3252(2)
C5 C 0.8264(7) 0.3429(3) 0.4086(2)
C6 C 1.1174(8) 0.2112(3) 0.3088(3)
H7 H 1.2247 0.1995 0.3689
H8 H 1.2257 0.2389 0.2595
H9 H 1.0376 0.1410 0.2875
Cu1_2 Cu 1.5000 0.5000 0.5000
Cu1_3 Cu -0.5000 0.5000 0.5000
S1_2 S -0.05801(14) 0.32615(6) 0.53104(5)
O1_2 O -0.1959(5) 0.4192(2) 0.57814(17)
O1B O 0.1959(5) 0.5808(2) 0.42186(17)
O2_2 O -0.1372(6) 0.2154(2) 0.56252(19)
O3_2 O 0.2247(5) 0.3403(2) 0.53856(19)
O3B O 0.7753(5) 0.6597(2) 0.46144(19)
N1_2 N -0.3738(5) 0.4204(2) 0.38608(19)
N1B N 0.3738(5) 0.5796(2) 0.61392(19)
N2_2 N -0.2518(6) 0.3464(2) 0.2509(2)
H1_2 H -0.2463 0.3326 0.1894
C1_2 C -0.4163(6) 0.4210(3) 0.2898(2)
C2_2 C -0.6083(8) 0.4933(3) 0.2308(3)
H2_2 H -0.5719 0.5717 0.2474
H3_2 H -0.7849 0.4763 0.2492
C3_2 C -0.6041(10) 0.4793(4) 0.1198(3)
H4_2 H -0.7276 0.5309 0.0872
H5_2 H -0.6525 0.4032 0.1018
H6_2 H -0.4296 0.4949 0.1008
C4_2 C -0.0943(7) 0.2957(3) 0.3252(2)
C5_2 C -0.1736(7) 0.3429(3) 0.4086(2)
C6_2 C 0.1174(8) 0.2112(3) 0.3088(3)
H7_2 H 0.2247 0.1995 0.3689
H8_2 H 0.2257 0.2389 0.2595
H9_2 H 0.0376 0.1410 0.2875
loop_
_geom_bond_atom_site_label_1
_geom_bond_atom_site_label_2
_geom_bond_site_symmetry_1
_geom_bond_site_symmetry_2
Cu1 O1 1_555 1_555
S1 O1 1_555 1_555
O2 S1 1_555 1_555
O3 S1 1_555 1_555
N1 Cu1 1_555 1_555
N2 H1 1_555 1_555
C1 N1 1_555 1_555
C2 C1 1_555 1_555
H2 C2 1_555 1_555
H3 C2 1_555 1_555
C3 C2 1_555 1_555
H4 C3 1_555 1_555
H5 C3 1_555 1_555
H6 C3 1_555 1_555
C4 N2 1_555 1_555
C5 S1 1_555 1_555
C6 C4 1_555 1_555
H7 C6 1_555 1_555
H8 C6 1_555 1_555
H9 C6 1_555 1_555
Cu1_2 O3 1_555 1_555
Cu1_3 O1_2 1_555 1_555
S1_2 O1_2 1_555 1_555
O1B Cu1 1_555 1_555
O2_2 S1_2 1_555 1_555
O3_2 Cu1 1_555 1_555
O3B Cu1 1_555 1_555
N1_2 Cu1_3 1_555 1_555
N1B Cu1 1_555 1_555
N2_2 H1_2 1_555 1_555
C1_2 N1_2 1_555 1_555
C2_2 C1_2 1_555 1_555
H2_2 C2_2 1_555 1_555
H3_2 C2_2 1_555 1_555
C3_2 C2_2 1_555 1_555
H4_2 C3_2 1_555 1_555
H5_2 C3_2 1_555 1_555
H6_2 C3_2 1_555 1_555
C4_2 N2_2 1_555 1_555
C5_2 S1_2 1_555 1_555
C6_2 C4_2 1_555 1_555
H7_2 C6_2 1_555 1_555
H8_2 C6_2 1_555 1_555
H9_2 C6_2 1_555 1_555
N1 C5 1_555 1_555
N2 C1 1_555 1_555
C4 C5 1_555 1_555
S1_2 O3_2 1_555 1_555
N1_2 C5_2 1_555 1_555
N2_2 C1_2 1_555 1_555
C4_2 C5_2 1_555 1_555

#END
