
#######################################################################
#
#                 Cambridge Crystallographic Data Centre
#                                CCDC 
#
#######################################################################
#
# If this CIF has been generated from an entry in the Cambridge 
# Structural Database, then it will include bibliographic, chemical, 
# crystal, experimental, refinement or atomic coordinate data resulting 
# from the CCDC's data processing and validation procedures.
#
#######################################################################

data_AYOMUX
_symmetry_cell_setting           triclinic
_symmetry_space_group_name_H-M   'P -1'
_symmetry_Int_Tables_number      2
_space_group_name_Hall           '-P 1'
loop_
_symmetry_equiv_pos_site_id
_symmetry_equiv_pos_as_xyz
1 x,y,z
2 -x,-y,-z
_cell_length_a                   6.5932(8)
_cell_length_b                   13.0463(16)
_cell_length_c                   13.5933(16)
_cell_angle_alpha                104.3130(10)
_cell_angle_beta                 96.6620(10)
_cell_angle_gamma                97.6460(10)
_cell_volume                     1109.31
loop_
_atom_site_label
_atom_site_type_symbol
_atom_site_fract_x
_atom_site_fract_y
_atom_site_fract_z
Cd1 Cd 0.61304(4) 0.48371(2) 0.37140(2)
Cd2 Cd 0.84093(4) 0.24373(2) 0.30872(2)
Cd3 Cd 1.17453(4) 0.31863(2) 0.10959(2)
S1 S 0.66513(14) 0.33480(8) 0.11673(7)
S2 S 1.12894(14) 0.49174(7) 0.36347(7)
N1 N 0.9793(5) -0.2733(3) 0.0571(2)
C1 C 0.9838(6) -0.3440(3) 0.1108(3)
H1 H 0.9480 -0.4177 0.0821
C2 C 1.0811(6) -0.0704(3) 0.1153(3)
H2 H 1.0639 -0.0589 0.0502
C3 C 1.0487(6) -0.1732(3) 0.1279(3)
C4 C 1.1662(6) -0.0033(3) 0.3013(3)
H3 H 1.1998 0.0553 0.3589
C5 C 1.1437(7) -0.1046(4) 0.3146(3)
H4 H 1.1662 -0.1158 0.3797
C6 C 1.0852(6) -0.1906(3) 0.2263(3)
C7 C 1.1402(6) 0.0150(3) 0.2030(3)
C8 C 0.6557(7) 0.8881(3) 0.4017(3)
H5 H 0.6714 0.8841 0.4695
C9 C 0.6064(6) 0.6877(3) 0.3474(3)
C10 C 0.6106(6) 0.7927(3) 0.3226(3)
C11 C 0.6775(7) 0.9878(3) 0.3828(3)
H6 H 0.7064 1.0506 0.4361
O1 O 0.8233(4) 0.2704(2) 0.1470(2)
O2 O 0.5458(5) 0.3615(2) 0.2041(2)
O3 O 0.7711(5) 0.4300(2) 0.0964(2)
O4 O 0.5783(5) 0.6023(2) 0.2762(2)
O5 O 0.6395(5) 0.6846(2) 0.4412(2)
O6 O 0.9346(4) 0.4272(2) 0.3769(2)
O7 O 1.0948(5) 0.6016(2) 0.3744(2)
O8 O 1.1865(5) 0.4465(2) 0.2640(2)
O9 O 0.5172(5) 0.2693(2) 0.0280(2)
C12 C 0.5815(6) 0.7939(3) 0.2201(3)
H7 H 0.5493 0.7311 0.1668
C13 C 0.6033(6) 0.8950(3) 0.2021(3)
C14 C 0.6545(6) 0.9901(3) 0.2807(3)
O10 O 1.2984(4) 0.4879(2) 0.4437(2)
N2 N 1.0457(5) -0.2985(3) 0.2121(3)
H8 H 1.0580 -0.3318 0.2591
N3 N 0.5920(5) 0.9255(3) 0.1113(2)
H9 H 0.5611 0.8834 0.0501
C15 C 1.1664(6) 0.1274(3) 0.1935(3)
O11 O 1.1855(5) 0.1439(2) 0.1085(2)
N4 N 0.6749(5) 1.0765(3) 0.2371(2)
C16 C 0.6382(6) 1.0324(3) 0.1363(3)
H10 H 0.6441 1.0719 0.0881
O12 O 1.1663(4) 0.2035(2) 0.2739(2)
O13 O 0.9522(5) 0.2349(2) 0.4699(2)
H11 H 1.0790 0.2374 0.4926
H12 H 0.8920 0.2573 0.5212
O14 O 1.3093(5) 0.4879(2) 0.0835(2)
H13 H 1.3544 0.5197 0.0409
H14 H 1.3685 0.5238 0.1434
O15 O 0.5431(4) 0.3032(2) 0.3864(2)
H15 H 0.5114 0.3053 0.4457
H16 H 0.4386 0.2693 0.3422
Cd1_2 Cd 1.61304(4) 0.48371(2) 0.37140(2)
Cd1A Cd 1.38696(4) 0.51629(2) 0.62860(2)
Cd2_2 Cd 0.84093(4) 1.24373(2) 0.30872(2)
Cd3A Cd 0.82547(4) -0.31863(2) -0.10959(2)
Cd3_2 Cd 0.17453(4) 0.31863(2) 0.10959(2)
N1A N 1.0207(5) 0.2733(3) -0.0571(2)
O2_2 O 1.5458(5) 0.3615(2) 0.2041(2)
O9_2 O 1.5172(5) 0.2693(2) 0.0280(2)
O10_2 O 0.2984(4) 0.4879(2) 0.4437(2)
O10A O 0.7016(4) 0.5121(2) 0.5563(2)
N4_2 N 0.6749(5) 0.0765(3) 0.2371(2)
loop_
_geom_bond_atom_site_label_1
_geom_bond_atom_site_label_2
_geom_bond_site_symmetry_1
_geom_bond_site_symmetry_2
Cd1 O2 1_555 1_555
Cd2 O1 1_555 1_555
Cd3 O1 1_555 1_555
S1 O1 1_555 1_555
S2 O6 1_555 1_555
N1 C1 1_555 1_555
C1 H1 1_555 1_555
C2 H2 1_555 1_555
C3 N1 1_555 1_555
C4 H3 1_555 1_555
C5 C4 1_555 1_555
H4 C5 1_555 1_555
C6 C3 1_555 1_555
C7 C2 1_555 1_555
C8 H5 1_555 1_555
C9 C10 1_555 1_555
C10 C8 1_555 1_555
C11 C8 1_555 1_555
H6 C11 1_555 1_555
O2 S1 1_555 1_555
O3 S1 1_555 1_555
O4 Cd1 1_555 1_555
O5 Cd1 1_555 1_555
O6 Cd1 1_555 1_555
O7 S2 1_555 1_555
O8 Cd3 1_555 1_555
O9 S1 1_555 1_555
C12 C10 1_555 1_555
H7 C12 1_555 1_555
C13 C12 1_555 1_555
C14 C11 1_555 1_555
O10 S2 1_555 1_555
N2 C1 1_555 1_555
H8 N2 1_555 1_555
N3 C13 1_555 1_555
H9 N3 1_555 1_555
C15 C7 1_555 1_555
O11 Cd3 1_555 1_555
N4 C14 1_555 1_555
C16 N3 1_555 1_555
H10 C16 1_555 1_555
O12 Cd2 1_555 1_555
O13 Cd2 1_555 1_555
H11 O13 1_555 1_555
H12 O13 1_555 1_555
O14 Cd3 1_555 1_555
H13 O14 1_555 1_555
H14 O14 1_555 1_555
O15 Cd1 1_555 1_555
H15 O15 1_555 1_555
H16 O15 1_555 1_555
Cd1_2 O10 1_555 1_555
Cd1A O10 1_555 1_555
Cd2_2 N4 1_555 1_555
Cd3A N1 1_555 1_555
Cd3_2 O2 1_555 1_555
N1A Cd3 1_555 1_555
O2_2 Cd3 1_555 1_555
O9_2 Cd3 1_555 1_555
O10_2 Cd1 1_555 1_555
O10A Cd1 1_555 1_555
N4_2 Cd2 1_555 1_555
Cd2 O6 1_555 1_555
Cd2 O15 1_555 1_555
S2 O8 1_555 1_555
C2 C3 1_555 1_555
C4 C7 1_555 1_555
C5 C6 1_555 1_555
C6 N2 1_555 1_555
C9 O4 1_555 1_555
C9 O5 1_555 1_555
O9 Cd3_2 1_555 1_555
C13 C14 1_555 1_555
C15 O11 1_555 1_555
C15 O12 1_555 1_555
N4 C16 1_555 1_555
Cd1_2 O2_2 1_555 1_555

#END
