
#######################################################################
#
#                 Cambridge Crystallographic Data Centre
#                                CCDC 
#
#######################################################################
#
# If this CIF has been generated from an entry in the Cambridge 
# Structural Database, then it will include bibliographic, chemical, 
# crystal, experimental, refinement or atomic coordinate data resulting 
# from the CCDC's data processing and validation procedures.
#
#######################################################################

data_AYOMOR
_symmetry_cell_setting           triclinic
_symmetry_space_group_name_H-M   'P -1'
_symmetry_Int_Tables_number      2
_space_group_name_Hall           '-P 1'
loop_
_symmetry_equiv_pos_site_id
_symmetry_equiv_pos_as_xyz
1 x,y,z
2 -x,-y,-z
_cell_length_a                   7.1261(16)
_cell_length_b                   9.581(2)
_cell_length_c                   12.424(3)
_cell_angle_alpha                100.496(3)
_cell_angle_beta                 98.060(3)
_cell_angle_gamma                94.979(3)
_cell_volume                     820.303
loop_
_atom_site_label
_atom_site_type_symbol
_atom_site_fract_x
_atom_site_fract_y
_atom_site_fract_z
Eu1 Eu 0.82011(3) 0.30949(3) -0.00038(2)
S1 S 0.7557(2) 0.48078(15) -0.19659(11)
O1 O 0.8381(6) 0.2686(5) 0.1916(3)
O2 O 1.0266(6) 0.1509(4) 0.0920(3)
O3 O 0.6411(6) 0.3533(5) -0.1756(3)
O4 O 0.9029(5) 0.5245(4) -0.0939(3)
O5 O 0.6331(6) 0.5948(5) -0.2072(3)
O6 O 0.8483(7) 0.4467(5) -0.2935(3)
N1 N 1.3014(7) -0.0260(6) 0.5455(4)
N2 N 1.2981(7) 0.2039(6) 0.5675(4)
H1 H 1.3174 0.2932 0.5979
C1 C 0.9614(8) 0.1832(6) 0.1807(5)
C2 C 1.0383(8) 0.1201(6) 0.2791(5)
C3 C 1.0338(8) -0.0312(6) 0.2662(4)
C4 C 1.1219(8) -0.0927(6) 0.3485(5)
H2 H 1.1239 -0.1911 0.3393
C5 C 1.2079(8) -0.0005(6) 0.4462(5)
C6 C 1.2050(8) 0.1468(6) 0.4603(5)
C7 C 1.3518(9) 0.0977(7) 0.6146(5)
H3 H 1.4162 0.1086 0.6866
C8 C 1.1232(8) 0.2109(6) 0.3771(4)
H4 H 1.1250 0.3095 0.3864
O10 O 0.7114(6) 0.0596(4) -0.0781(4)
H11 H 0.6097 0.0179 -0.1180
H12 H 0.7713 -0.0084 -0.0605
O11 O 0.7080(6) 0.5224(4) 0.0984(4)
H13 H 0.6011 0.5504 0.1051
H14 H 0.7804 0.5996 0.1181
O12 O 0.4946(6) 0.2615(5) 0.0214(4)
H15 H 0.4110 0.1952 -0.0161
H16 H 0.4346 0.3063 0.0678
C9 C 0.9079(8) -0.1258(6) 0.1673(4)
O13 O 0.9655(6) -0.2426(4) 0.1255(3)
O14 O 0.7505(6) -0.0878(5) 0.1382(4)
H17 H 1.323(11) -0.109(9) 0.557(6)
Eu1A Eu 1.17989(3) 0.69051(3) 0.00038(2)
Eu1A_2 Eu 1.17989(3) -0.30949(3) 0.00038(2)
O4A O 1.0971(5) 0.4755(4) 0.0939(3)
O13A O 1.0345(6) 0.2426(4) -0.1255(3)
O7 O 0.5121(7) 0.1310(5) 0.2584(4)
H5 H 0.6008 0.1653 0.2294
H6 H 0.4457 0.2009 0.2736
O8 O 0.7298(9) 0.5166(6) 0.3452(4)
H7 H 0.8442 0.5054 0.3395
H8 H 0.6655 0.4779 0.2826
O9 O 0.6913(11) 0.3173(6) 0.4890(5)
H9 H 0.6934 0.3808 0.4506
H10 H 0.7710 0.3559 0.5453
loop_
_geom_bond_atom_site_label_1
_geom_bond_atom_site_label_2
_geom_bond_site_symmetry_1
_geom_bond_site_symmetry_2
Eu1 O1 1_555 1_555
S1 O3 1_555 1_555
O1 C1 1_555 1_555
O2 Eu1 1_555 1_555
O3 Eu1 1_555 1_555
O4 Eu1 1_555 1_555
O5 S1 1_555 1_555
O6 S1 1_555 1_555
N1 C5 1_555 1_555
N2 H1 1_555 1_555
C1 O2 1_555 1_555
C2 C1 1_555 1_555
C3 C2 1_555 1_555
C4 C3 1_555 1_555
H2 C4 1_555 1_555
C5 C4 1_555 1_555
C6 N2 1_555 1_555
C7 N1 1_555 1_555
H3 C7 1_555 1_555
C8 C2 1_555 1_555
H4 C8 1_555 1_555
O7 H5 1_555 1_555
H6 O7 1_555 1_555
O8 H7 1_555 1_555
H8 O8 1_555 1_555
O9 H9 1_555 1_555
H10 O9 1_555 1_555
O10 Eu1 1_555 1_555
H11 O10 1_555 1_555
H12 O10 1_555 1_555
O11 Eu1 1_555 1_555
H13 O11 1_555 1_555
H14 O11 1_555 1_555
O12 Eu1 1_555 1_555
H15 O12 1_555 1_555
H16 O12 1_555 1_555
C9 C3 1_555 1_555
O13 C9 1_555 1_555
O14 C9 1_555 1_555
H17 N1 1_555 1_555
Eu1A O4 1_555 1_555
Eu1A_2 O13 1_555 1_555
O4A Eu1 1_555 1_555
O13A Eu1 1_555 1_555
S1 O4 1_555 1_555
N2 C7 1_555 1_555
C5 C6 1_555 1_555
C6 C8 1_555 1_555
Eu1A O4A 1_555 1_555

#END
