
#######################################################################
#
#                 Cambridge Crystallographic Data Centre
#                                CCDC 
#
#######################################################################
#
# If this CIF has been generated from an entry in the Cambridge 
# Structural Database, then it will include bibliographic, chemical, 
# crystal, experimental, refinement or atomic coordinate data resulting 
# from the CCDC's data processing and validation procedures.
#
#######################################################################

data_AYOMEH
_symmetry_cell_setting           triclinic
_symmetry_space_group_name_H-M   'P -1'
_symmetry_Int_Tables_number      2
_space_group_name_Hall           '-P 1'
loop_
_symmetry_equiv_pos_site_id
_symmetry_equiv_pos_as_xyz
1 x,y,z
2 -x,-y,-z
_cell_length_a                   8.4530(4)
_cell_length_b                   10.9757(6)
_cell_length_c                   12.7124(7)
_cell_angle_alpha                112.1120(10)
_cell_angle_beta                 91.6140(10)
_cell_angle_gamma                104.4530(10)
_cell_volume                     1048.25
loop_
_atom_site_label
_atom_site_type_symbol
_atom_site_fract_x
_atom_site_fract_y
_atom_site_fract_z
C1 C 0.0343(4) 0.0408(4) -0.2244(3)
C2 C -0.1313(4) -0.0377(4) -0.2964(3)
C3 C -0.1457(5) -0.0513(4) -0.4085(3)
H1 H -0.051(5) -0.019(4) -0.434(3)
C4 C -0.3019(5) -0.1056(4) -0.4725(3)
C5 C -0.5240(5) -0.1795(4) -0.5977(3)
H2 H -0.5915 -0.2033 -0.6655
C6 C -0.4412(4) -0.1460(4) -0.4248(3)
C7 C -0.4269(4) -0.1359(4) -0.3119(3)
H3 H -0.5196 -0.1642 -0.2801
C8 C -0.2722(4) -0.0831(4) -0.2488(3)
C9 C -0.2606(4) -0.0819(4) -0.1297(3)
C10 C 0.5024(4) 0.4467(4) 0.2501(3)
C11 C 0.6702(4) 0.5243(4) 0.3216(3)
C12 C 0.6891(4) 0.5302(4) 0.4319(3)
H4 H 0.6019 0.4883 0.4609
C13 C 0.8420(4) 0.6003(4) 0.4979(3)
C14 C 1.0585(5) 0.7001(4) 0.6311(3)
H5 H 1.1247 0.7334 0.7012
C15 C 0.9760(4) 0.6562(4) 0.4530(3)
C16 C 0.9601(4) 0.6502(4) 0.3422(3)
H6 H 1.0501 0.6869 0.3122
C17 C 0.8053(4) 0.5876(4) 0.2777(3)
C18 C 0.7878(4) 0.6050(4) 0.1667(3)
Eu1 Eu 0.24165(2) 0.308010(18) 0.021383(14)
N1 N -0.3591(4) -0.1283(4) -0.5833(3)
H7 H -0.3003 -0.1126 -0.6334
N2 N -0.5797(4) -0.1922(4) -0.5056(3)
N3 N 1.1094(4) 0.7157(3) 0.5386(3)
H8 H 1.2081 0.7556 0.5326
N4 N 0.8992(4) 0.6303(3) 0.6108(3)
H9 H 0.8422 0.6080 0.6591
O1 O 0.1619(3) 0.0246(3) -0.2694(2)
O2 O 0.0329(3) 0.1254(3) -0.1235(2)
O3 O -0.1766(3) -0.1539(3) -0.1112(2)
O4 O -0.3436(3) -0.0182(3) -0.0613(2)
O5 O 0.5008(3) 0.3761(3) 0.1434(2)
O6 O 0.3781(3) 0.4550(3) 0.2988(3)
O7 O 0.8941(3) 0.5849(3) 0.1007(2)
O8 O 0.6729(3) 0.6529(3) 0.1488(2)
O9 O 0.3986(3) 0.1495(3) -0.0826(2)
H10 H 0.3469 0.0936 -0.1481
H11 H 0.4122 0.1032 -0.0442
O10 O 0.3436(3) 0.5492(3) 0.1002(3)
H12 H 0.4404 0.5907 0.1361
H13 H 0.3295 0.5815 0.0506
O11 O 0.0181(3) 0.3743(3) 0.1123(2)
H14 H -0.0036 0.4498 0.1257
H15 H -0.0456 0.3322 0.1459
Eu1A Eu -0.24165(2) -0.308010(18) -0.021383(14)
Eu1A_2 Eu 0.75835(2) 0.691990(18) -0.021383(14)
O3A O 0.1766(3) 0.1539(3) 0.1112(2)
O7A O 0.1059(3) 0.4151(3) -0.1007(2)
O8A O 0.3271(3) 0.3471(3) -0.1488(2)
O12 O 0.2568(4) 0.7730(3) 0.1413(3)
H16 H 0.1577 0.7772 0.1398
H17 H 0.3140 0.8382 0.1259
O13 O 0.7262(3) 0.2225(3) 0.1315(2)
H18 H 0.6621 0.2706 0.1300
H19 H 0.7262 0.1686 0.0628
loop_
_geom_bond_atom_site_label_1
_geom_bond_atom_site_label_2
_geom_bond_site_symmetry_1
_geom_bond_site_symmetry_2
C1 C2 1_555 1_555
C2 C3 1_555 1_555
C3 H1 1_555 1_555
C4 C3 1_555 1_555
C5 H2 1_555 1_555
C6 C4 1_555 1_555
C7 C6 1_555 1_555
H3 C7 1_555 1_555
C8 C2 1_555 1_555
C9 C8 1_555 1_555
C10 C11 1_555 1_555
C11 C12 1_555 1_555
C12 H4 1_555 1_555
C13 C12 1_555 1_555
C14 H5 1_555 1_555
C15 C13 1_555 1_555
C16 C15 1_555 1_555
H6 C16 1_555 1_555
C17 C11 1_555 1_555
C18 C17 1_555 1_555
Eu1 O2 1_555 1_555
N1 C4 1_555 1_555
H7 N1 1_555 1_555
N2 C5 1_555 1_555
N3 C14 1_555 1_555
H8 N3 1_555 1_555
N4 C13 1_555 1_555
H9 N4 1_555 1_555
O1 C1 1_555 1_555
O2 C1 1_555 1_555
O3 C9 1_555 1_555
O4 C9 1_555 1_555
O5 C10 1_555 1_555
O6 C10 1_555 1_555
O7 C18 1_555 1_555
O8 C18 1_555 1_555
O9 Eu1 1_555 1_555
H10 O9 1_555 1_555
H11 O9 1_555 1_555
O10 Eu1 1_555 1_555
H12 O10 1_555 1_555
H13 O10 1_555 1_555
O11 Eu1 1_555 1_555
H14 O11 1_555 1_555
H15 O11 1_555 1_555
O12 H16 1_555 1_555
H17 O12 1_555 1_555
O13 H18 1_555 1_555
H19 O13 1_555 1_555
Eu1A O3 1_555 1_555
Eu1A_2 O7 1_555 1_555
O3A Eu1 1_555 1_555
O7A Eu1 1_555 1_555
O8A Eu1 1_555 1_555
C5 N1 1_555 1_555
C6 N2 1_555 1_555
C7 C8 1_555 1_555
C14 N4 1_555 1_555
C15 N3 1_555 1_555
C16 C17 1_555 1_555
Eu1 O5 1_555 1_555
O8 Eu1A_2 1_555 1_555

#END
