
#######################################################################
#
#                 Cambridge Crystallographic Data Centre
#                                CCDC 
#
#######################################################################
#
# If this CIF has been generated from an entry in the Cambridge 
# Structural Database, then it will include bibliographic, chemical, 
# crystal, experimental, refinement or atomic coordinate data resulting 
# from the CCDC's data processing and validation procedures.
#
#######################################################################

data_AYOXUH
_symmetry_cell_setting           monoclinic
_symmetry_space_group_name_H-M   'P 21/c'
_symmetry_Int_Tables_number      14
_space_group_name_Hall           '-P 2ybc'
loop_
_symmetry_equiv_pos_site_id
_symmetry_equiv_pos_as_xyz
1 x,y,z
2 x,1/2-y,1/2+z
3 -x,-y,-z
4 -x,1/2+y,1/2-z
_cell_length_a                   9.06100(10)
_cell_length_b                   22.3800(3)
_cell_length_c                   14.7900(2)
_cell_angle_alpha                90
_cell_angle_beta                 100.9230(10)
_cell_angle_gamma                90
_cell_volume                     2944.86
loop_
_atom_site_label
_atom_site_type_symbol
_atom_site_fract_x
_atom_site_fract_y
_atom_site_fract_z
In1 In -0.268280(17) 0.251470(6) 0.055310(11)
S1 S -0.33237(6) 0.25686(2) 0.30304(4)
O1 O -0.2428(2) 0.25957(7) 0.23211(12)
O2 O -0.24383(19) 0.26641(7) 0.39457(11)
O3 O -0.44176(19) 0.21014(7) 0.29466(12)
F1 F -0.3637(2) 0.37321(7) 0.30050(15)
F2 F -0.51545(18) 0.32733(7) 0.19400(11)
F3 F -0.5522(2) 0.32519(8) 0.33300(12)
N1 N 0.0988(2) 0.24833(7) 0.11951(14)
N2 N 0.0092(2) 0.16091(8) 0.13018(13)
C1 C -0.2781(3) 0.34661(10) 0.03911(19)
H1 H -0.3815 0.3586 0.0133
H2 H -0.2117 0.3590 -0.0026
H3 H -0.2458 0.3657 0.0992
C2 C -0.4309(3) 0.18187(10) 0.05328(17)
H4 H -0.4330 0.1693 0.1165
H5 H -0.4038 0.1478 0.0182
H6 H -0.5304 0.1967 0.0242
C3 C -0.0308(2) 0.21701(9) 0.10050(15)
C4 C 0.2178(3) 0.21249(11) 0.15996(17)
H7 H 0.3195 0.2244 0.1792
C5 C 0.1614(3) 0.15760(11) 0.16659(18)
H8 H 0.2154 0.1231 0.1915
C6 C 0.1189(2) 0.31021(9) 0.09474(16)
C7 C 0.1554(3) 0.32171(10) 0.00883(16)
C8 C 0.1838(3) 0.38063(11) -0.01187(17)
H9 H 0.2100 0.3896 -0.0696
C9 C 0.1749(3) 0.42691(11) 0.04989(18)
C10 C 0.1371(3) 0.41333(11) 0.13351(17)
H10 H 0.1293 0.4448 0.1754
C11 C 0.1099(3) 0.35503(10) 0.15872(16)
C12 C 0.1627(3) 0.27258(12) -0.06033(18)
H11 H 0.0607 0.2594 -0.0871
H12 H 0.2202 0.2388 -0.0295
H13 H 0.2121 0.2877 -0.1092
C13 C 0.2064(4) 0.49101(12) 0.0251(2)
H14 H 0.1825 0.5181 0.0724
H15 H 0.1441 0.5012 -0.0346
H16 H 0.3128 0.4951 0.0215
C14 C 0.0733(3) 0.34158(12) 0.25115(17)
H17 H -0.0287 0.3252 0.2433
H18 H 0.0793 0.3784 0.2875
H19 H 0.1452 0.3123 0.2832
C15 C -0.0870(2) 0.10876(9) 0.11657(16)
C16 C -0.1505(3) 0.08754(10) 0.18902(17)
C17 C -0.2408(3) 0.03681(11) 0.17179(19)
H20 H -0.2873 0.0218 0.2196
C18 C -0.2655(3) 0.00752(10) 0.0879(2)
C19 C -0.1972(3) 0.02996(10) 0.01856(19)
H21 H -0.2127 0.0100 -0.0392
C20 C -0.1070(3) 0.08057(10) 0.03088(16)
C21 C -0.1227(3) 0.11651(12) 0.28252(18)
H22 H -0.2150 0.1153 0.3079
H23 H -0.0921 0.1581 0.2770
H24 H -0.0427 0.0949 0.3236
C22 C -0.3633(3) -0.04775(12) 0.0724(2)
H25 H -0.3669 -0.0625 0.0096
H26 H -0.4652 -0.0378 0.0807
H27 H -0.3211 -0.0787 0.1167
C23 C -0.0338(3) 0.10362(10) -0.04541(17)
H28 H -0.0424 0.0735 -0.0943
H29 H 0.0726 0.1118 -0.0212
H30 H -0.0839 0.1405 -0.0704
C24 C -0.4465(3) 0.32454(11) 0.28152(19)
O2A O -0.24383(19) 0.23359(7) -0.10543(11)
In1A In -0.268280(17) 0.248530(6) 0.555310(11)
C25 C -0.6183(4) -0.00378(14) 0.3048(3)
H31 H -0.6006 -0.0258 0.3640
H32 H -0.5666 -0.0256 0.2616
Cl1 Cl -0.54210(8) 0.06845(3) 0.32267(6)
Cl2 Cl -0.81230(9) -0.00167(3) 0.25983(6)
loop_
_geom_bond_atom_site_label_1
_geom_bond_atom_site_label_2
_geom_bond_site_symmetry_1
_geom_bond_site_symmetry_2
In1 O1 1_555 1_555
S1 O1 1_555 1_555
O2 S1 1_555 1_555
O3 S1 1_555 1_555
F1 C24 1_555 1_555
F2 C24 1_555 1_555
F3 C24 1_555 1_555
N1 C3 1_555 1_555
N2 C3 1_555 1_555
C1 In1 1_555 1_555
H1 C1 1_555 1_555
H2 C1 1_555 1_555
H3 C1 1_555 1_555
C2 In1 1_555 1_555
H4 C2 1_555 1_555
H5 C2 1_555 1_555
H6 C2 1_555 1_555
C3 In1 1_555 1_555
C4 N1 1_555 1_555
H7 C4 1_555 1_555
C5 N2 1_555 1_555
H8 C5 1_555 1_555
C6 N1 1_555 1_555
C7 C6 1_555 1_555
C8 C7 1_555 1_555
H9 C8 1_555 1_555
C9 C8 1_555 1_555
C10 C9 1_555 1_555
H10 C10 1_555 1_555
C11 C6 1_555 1_555
C12 C7 1_555 1_555
H11 C12 1_555 1_555
H12 C12 1_555 1_555
H13 C12 1_555 1_555
C13 C9 1_555 1_555
H14 C13 1_555 1_555
H15 C13 1_555 1_555
H16 C13 1_555 1_555
C14 C11 1_555 1_555
H17 C14 1_555 1_555
H18 C14 1_555 1_555
H19 C14 1_555 1_555
C15 N2 1_555 1_555
C16 C15 1_555 1_555
C17 C16 1_555 1_555
H20 C17 1_555 1_555
C18 C17 1_555 1_555
C19 C18 1_555 1_555
H21 C19 1_555 1_555
C20 C15 1_555 1_555
C21 C16 1_555 1_555
H22 C21 1_555 1_555
H23 C21 1_555 1_555
H24 C21 1_555 1_555
C22 C18 1_555 1_555
H25 C22 1_555 1_555
H26 C22 1_555 1_555
H27 C22 1_555 1_555
C23 C20 1_555 1_555
H28 C23 1_555 1_555
H29 C23 1_555 1_555
H30 C23 1_555 1_555
C24 S1 1_555 1_555
C25 H31 1_555 1_555
H32 C25 1_555 1_555
Cl1 C25 1_555 1_555
Cl2 C25 1_555 1_555
O2A In1 1_555 1_555
In1A O2 1_555 1_555
C4 C5 1_555 1_555
C10 C11 1_555 1_555
C19 C20 1_555 1_555

#END
