
#######################################################################
#
#                 Cambridge Crystallographic Data Centre
#                                CCDC 
#
#######################################################################
#
# If this CIF has been generated from an entry in the Cambridge 
# Structural Database, then it will include bibliographic, chemical, 
# crystal, experimental, refinement or atomic coordinate data resulting 
# from the CCDC's data processing and validation procedures.
#
#######################################################################

data_AYUDUT
_symmetry_cell_setting           orthorhombic
_symmetry_space_group_name_H-M   'P b a n'
_symmetry_Int_Tables_number      50
_space_group_name_Hall           '-P 2ab 2b'
loop_
_symmetry_equiv_pos_site_id
_symmetry_equiv_pos_as_xyz
1 x,y,z
2 1/2+x,1/2+y,-z
3 1/2+x,-y,z
4 -x,1/2+y,z
5 -x,-y,-z
6 1/2-x,1/2-y,z
7 1/2-x,y,-z
8 x,1/2-y,-z
_cell_length_a                   19.3580(16)
_cell_length_b                   6.8135(6)
_cell_length_c                   9.7015(8)
_cell_angle_alpha                90
_cell_angle_beta                 90
_cell_angle_gamma                90
_cell_volume                     1279.59
loop_
_atom_site_label
_atom_site_type_symbol
_atom_site_fract_x
_atom_site_fract_y
_atom_site_fract_z
Pb1 Pb 0.2500 0.2500 1.0000
N1 N 0.37157(10) 0.1885(3) 1.1339(2)
O1 O 0.26457(9) -0.0919(3) 0.86145(18)
C1 C 0.37242(14) 0.1283(4) 1.2635(2)
H5 H 0.3303 0.1059 1.3070
C2 C 0.43277(15) 0.0965(4) 1.3389(3)
H6 H 0.4307 0.0549 1.4301
C3 C 0.49425(14) 0.1272(4) 1.2770(2)
H7 H 0.5351 0.1085 1.3258
C4 C 0.49648(12) 0.1875(4) 1.1387(3)
C5 C 0.43297(13) 0.2184(3) 1.0712(3)
C6 C 0.55986(14) 0.2201(4) 1.0660(3)
H8 H 0.6017 0.1995 1.1109
C7 C 0.2500 -0.2500 0.9195(3)
C5G C 0.43297(13) 0.2816(3) 0.9288(3)
N1G N 0.37157(10) 0.3115(3) 0.8661(2)
N1E N 0.12843(10) 0.3115(3) 1.1339(2)
C1E C 0.12758(14) 0.3717(4) 1.2635(2)
H5E H 0.1697 0.3941 1.3070
C2E C 0.06723(15) 0.4035(4) 1.3389(3)
H6E H 0.0693 0.4451 1.4301
C3E C 0.00575(14) 0.3728(4) 1.2770(2)
H7E H -0.0351 0.3915 1.3258
C4E C 0.00352(12) 0.3125(4) 1.1387(3)
C5E C 0.06703(13) 0.2816(3) 1.0712(3)
C5F C 0.06703(13) 0.2184(3) 0.9288(3)
N1F N 0.12843(10) 0.1885(3) 0.8661(2)
O1E O 0.23543(9) -0.4081(3) 0.86145(18)
Pb1E Pb 0.2500 -0.7500 1.0000
O1G O 0.26457(9) -0.4081(3) 1.13855(18)
C7G C 0.2500 -0.2500 1.0805(3)
O1F O 0.23543(9) -0.0919(3) 1.13855(18)
O1E_2 O 0.23543(9) 0.5919(3) 0.86145(18)
O1G_2 O 0.26457(9) 0.5919(3) 1.13855(18)
C1F C 0.12758(14) 0.1283(4) 0.7365(2)
H5F H 0.1697 0.1059 0.6930
C2F C 0.06723(15) 0.0965(4) 0.6611(3)
H6F H 0.0693 0.0549 0.5699
C3F C 0.00575(14) 0.1272(4) 0.7230(2)
H7F H -0.0351 0.1085 0.6742
C4F C 0.00352(12) 0.1875(4) 0.8613(3)
C6F C -0.05986(14) 0.2201(4) 0.9340(3)
C6E C -0.05986(14) 0.2799(4) 1.0660(3)
H8E H -0.1017 0.3005 1.1109
H8F H -0.1017 0.1995 0.8891
C1G C 0.37242(14) 0.3717(4) 0.7365(2)
H5G H 0.3303 0.3941 0.6930
C2G C 0.43277(15) 0.4035(4) 0.6611(3)
H6G H 0.4307 0.4451 0.5699
C3G C 0.49425(14) 0.3728(4) 0.7230(2)
H7G H 0.5351 0.3915 0.6742
C4G C 0.49648(12) 0.3125(4) 0.8613(3)
C6G C 0.55986(14) 0.2799(4) 0.9340(3)
H8G H 0.6017 0.3005 0.8891
O2 O 0.2500 0.2500 0.5000
O3 O 0.32627(11) -0.0867(3) 0.5960(2)
H3 H 0.3017 -0.0935 0.6819
H4 H 0.2827 -0.0595 0.5529
H1? H 0.2210 0.3061 0.5527
H2? H 0.2566 0.2932 0.4189
loop_
_geom_bond_atom_site_label_1
_geom_bond_atom_site_label_2
_geom_bond_site_symmetry_1
_geom_bond_site_symmetry_2
Pb1 N1 1_555 1_555
N1 C1 1_555 1_555
O1 Pb1 1_555 1_555
O3 H3 1_555 1_555
H4 O3 1_555 1_555
C1 H5 1_555 1_555
C2 C1 1_555 1_555
H6 C2 1_555 1_555
C3 C2 1_555 1_555
H7 C3 1_555 1_555
C4 C3 1_555 1_555
C5 N1 1_555 1_555
C6 C4 1_555 1_555
H8 C6 1_555 1_555
C7 O1 1_555 1_555
C5G C5 1_555 1_555
N1G Pb1 1_555 1_555
N1E Pb1 1_555 1_555
C1E N1E 1_555 1_555
H5E C1E 1_555 1_555
C2E C1E 1_555 1_555
H6E C2E 1_555 1_555
C3E C2E 1_555 1_555
H7E C3E 1_555 1_555
C4E C3E 1_555 1_555
C5E N1E 1_555 1_555
C5F C5E 1_555 1_555
N1F Pb1 1_555 1_555
O1E C7 1_555 1_555
Pb1E O1E 1_555 1_555
O1G Pb1E 1_555 1_555
C7G C7 1_555 1_555
O1F Pb1 1_555 1_555
O1E_2 Pb1 1_555 1_555
O1G_2 Pb1 1_555 1_555
C1F N1F 1_555 1_555
H5F C1F 1_555 1_555
C2F C1F 1_555 1_555
H6F C2F 1_555 1_555
C3F C2F 1_555 1_555
H7F C3F 1_555 1_555
C4F C5F 1_555 1_555
C6F C4F 1_555 1_555
C6E C4E 1_555 1_555
H8E C6E 1_555 1_555
H8F C6F 1_555 1_555
C1G N1G 1_555 1_555
H5G C1G 1_555 1_555
C2G C1G 1_555 1_555
H6G C2G 1_555 1_555
C3G C2G 1_555 1_555
H7G C3G 1_555 1_555
C4G C5G 1_555 1_555
C6G C6 1_555 1_555
H8G C6G 1_555 1_555
C4 C5 1_555 1_555
C5G N1G 1_555 1_555
C4E C5E 1_555 1_555
C5F N1F 1_555 1_555
O1G C7G 1_555 1_555
C7G O1F 1_555 1_555
C3F C4F 1_555 1_555
C6F C6E 1_555 1_555
C3G C4G 1_555 1_555
C4G C6G 1_555 1_555

#END
