
#######################################################################
#
#                 Cambridge Crystallographic Data Centre
#                                CCDC 
#
#######################################################################
#
# If this CIF has been generated from an entry in the Cambridge 
# Structural Database, then it will include bibliographic, chemical, 
# crystal, experimental, refinement or atomic coordinate data resulting 
# from the CCDC's data processing and validation procedures.
#
#######################################################################

data_AYUYEY
_symmetry_cell_setting           monoclinic
_symmetry_space_group_name_H-M   'P 21/c'
_symmetry_Int_Tables_number      14
_space_group_name_Hall           '-P 2ybc'
loop_
_symmetry_equiv_pos_site_id
_symmetry_equiv_pos_as_xyz
1 x,y,z
2 x,1/2-y,1/2+z
3 -x,-y,-z
4 -x,1/2+y,1/2-z
_cell_length_a                   18.9232(12)
_cell_length_b                   19.5469(12)
_cell_length_c                   7.5040(5)
_cell_angle_alpha                90
_cell_angle_beta                 93.1400(10)
_cell_angle_gamma                90
_cell_volume                     2771.49
loop_
_atom_site_label
_atom_site_type_symbol
_atom_site_fract_x
_atom_site_fract_y
_atom_site_fract_z
Ag1 Ag -0.397000(16) -0.318450(15) 1.13818(5)
S1 S -0.37315(5) -0.19148(5) 1.01078(14)
N1 N -0.51212(15) -0.30182(13) 1.1812(4)
N2 N -0.62679(16) -0.30794(14) 1.2344(5)
H1 H -0.6656 -0.3275 1.2604
N3 N -0.68793(14) -0.61568(14) 0.9547(4)
N4 N -0.75290(11) -0.52908(11) 1.0451(4)
H2 H -0.7610 -0.4910 1.0974
N9 N -0.2324(2) -0.18525(19) 1.1433(6)
C1 C -0.53584(19) -0.23056(17) 1.2048(5)
H5 H -0.5243 -0.2027 1.1034
H6 H -0.5133 -0.2108 1.3122
C2 C -0.61648(19) -0.23462(17) 1.2198(5)
H7 H -0.6313 -0.2108 1.3247
H8 H -0.6417 -0.2161 1.1145
C3 C -0.56592(17) -0.34072(15) 1.2008(4)
C4 C -0.56453(17) -0.41610(16) 1.1898(4)
C5 C -0.50622(18) -0.45349(17) 1.2561(5)
H9 H -0.4667 -0.4310 1.3064
C6 C -0.5073(2) -0.52408(18) 1.2468(5)
H10 H -0.4681 -0.5490 1.2902
C7 C -0.56608(19) -0.55812(17) 1.1734(5)
H11 H -0.5663 -0.6057 1.1686
C8 C -0.62460(17) -0.52169(16) 1.1071(4)
C9 C -0.62349(17) -0.45077(15) 1.1166(4)
H12 H -0.6628 -0.4260 1.0735
C10 C -0.68861(17) -0.55732(16) 1.0324(4)
C11 C -0.80632(12) -0.57221(11) 0.9579(3)
H13 H -0.8281 -0.5503 0.8528
H14 H -0.8427 -0.5845 1.0382
C12 C -0.76269(12) -0.63449(11) 0.9084(3)
H15 H -0.7762 -0.6744 0.9755
H16 H -0.7695 -0.6444 0.7820
C25 C -0.2900(2) -0.18881(17) 1.0876(6)
Ag1A Ag -0.397000(16) -0.181550(15) 0.63818(5)
S1A S -0.37315(5) -0.30852(5) 1.51078(14)
Ag1B Ag -0.603000(16) -0.681550(15) 0.86182(5)
N3B N -0.31207(14) -0.38432(14) 1.0453(4)
Ag2 Ag -0.141840(16) -0.666880(15) -1.59635(4)
S2 S -0.20343(5) -0.76486(4) -1.39135(12)
N5 N -0.24886(11) -0.47144(11) -1.5031(4)
H3 H -0.2480 -0.4292 -1.4712
N6 N -0.20391(15) -0.57357(13) -1.5611(4)
N7 N -0.08224(16) -0.27459(15) -1.3697(6)
H4 H -0.1263 -0.2850 -1.3669
N8 N 0.03320(15) -0.29373(13) -1.3784(4)
N10 N -0.2144(2) -0.87968(18) -1.6154(5)
C13 C -0.27997(12) -0.57680(11) -1.6159(3)
H17 H -0.3030 -0.6125 -1.5505
H18 H -0.2864 -0.5865 -1.7425
C14 C -0.31089(18) -0.50752(18) -1.5742(5)
H19 H -0.3313 -0.4855 -1.6809
H20 H -0.3466 -0.5111 -1.4867
C15 C -0.19247(17) -0.51382(16) -1.4942(4)
C16 C -0.12427(17) -0.48878(16) -1.4170(4)
C17 C -0.07724(19) -0.53201(17) -1.3231(5)
H21 H -0.0880 -0.5781 -1.3107
C18 C -0.0139(2) -0.50600(18) -1.2476(5)
H22 H 0.0175 -0.5350 -1.1851
C19 C 0.00254(18) -0.43784(17) -1.2646(5)
H23 H 0.0452 -0.4212 -1.2145
C20 C -0.04383(17) -0.39385(16) -1.3556(4)
C21 C -0.10725(16) -0.41993(15) -1.4322(4)
H24 H -0.1386 -0.3907 -1.4944
C22 C -0.02886(18) -0.31999(16) -1.3686(5)
C23 C 0.0247(2) -0.21869(17) -1.3814(6)
H25 H 0.0429 -0.1996 -1.4890
H26 H 0.0498 -0.1981 -1.2787
C24 C -0.0547(2) -0.20565(17) -1.3763(6)
H27 H -0.0658 -0.1797 -1.2713
H28 H -0.0728 -0.1817 -1.4823
C26 C -0.20844(19) -0.83258(18) -1.5238(5)
Ag2A Ag -0.141840(16) -0.833120(15) -1.09635(4)
S2A S -0.20343(5) -0.73514(4) -1.89135(12)
Ag2B Ag 0.141840(16) -0.333120(15) -1.40365(4)
N8B N -0.03320(15) -0.70627(13) -1.6216(4)
loop_
_geom_bond_atom_site_label_1
_geom_bond_atom_site_label_2
_geom_bond_site_symmetry_1
_geom_bond_site_symmetry_2
Ag1 S1 1_555 1_555
Ag2 S2 1_555 1_555
S1 C25 1_555 1_555
S2 C26 1_555 1_555
N1 Ag1 1_555 1_555
N2 H1 1_555 1_555
N3 C10 1_555 1_555
N4 H2 1_555 1_555
N5 H3 1_555 1_555
N6 Ag2 1_555 1_555
N7 H4 1_555 1_555
N8 C22 1_555 1_555
N9 C25 1_555 1_555
N10 C26 1_555 1_555
C1 N1 1_555 1_555
H5 C1 1_555 1_555
H6 C1 1_555 1_555
C2 N2 1_555 1_555
H7 C2 1_555 1_555
H8 C2 1_555 1_555
C3 N1 1_555 1_555
C4 C3 1_555 1_555
C5 C4 1_555 1_555
H9 C5 1_555 1_555
C6 C5 1_555 1_555
H10 C6 1_555 1_555
C7 C6 1_555 1_555
H11 C7 1_555 1_555
C8 C7 1_555 1_555
C9 C4 1_555 1_555
H12 C9 1_555 1_555
C10 N4 1_555 1_555
C11 N4 1_555 1_555
H13 C11 1_555 1_555
H14 C11 1_555 1_555
C12 N3 1_555 1_555
H15 C12 1_555 1_555
H16 C12 1_555 1_555
C13 N6 1_555 1_555
H17 C13 1_555 1_555
H18 C13 1_555 1_555
C14 N5 1_555 1_555
H19 C14 1_555 1_555
H20 C14 1_555 1_555
C15 N5 1_555 1_555
C16 C15 1_555 1_555
C17 C16 1_555 1_555
H21 C17 1_555 1_555
C18 C17 1_555 1_555
H22 C18 1_555 1_555
C19 C18 1_555 1_555
H23 C19 1_555 1_555
C20 C19 1_555 1_555
C21 C16 1_555 1_555
H24 C21 1_555 1_555
C22 N7 1_555 1_555
C23 N8 1_555 1_555
H25 C23 1_555 1_555
H26 C23 1_555 1_555
C24 N7 1_555 1_555
H27 C24 1_555 1_555
H28 C24 1_555 1_555
Ag1A S1 1_555 1_555
S1A Ag1 1_555 1_555
Ag1B N3 1_555 1_555
N3B Ag1 1_555 1_555
Ag2A S2 1_555 1_555
S2A Ag2 1_555 1_555
Ag2B N8 1_555 1_555
N8B Ag2 1_555 1_555
N2 C3 1_555 1_555
N6 C15 1_555 1_555
C1 C2 1_555 1_555
C8 C9 1_555 1_555
C8 C10 1_555 1_555
C11 C12 1_555 1_555
C13 C14 1_555 1_555
C20 C21 1_555 1_555
C20 C22 1_555 1_555
C23 C24 1_555 1_555

#END
