
#######################################################################
#
#                 Cambridge Crystallographic Data Centre
#                                CCDC 
#
#######################################################################
#
# If this CIF has been generated from an entry in the Cambridge 
# Structural Database, then it will include bibliographic, chemical, 
# crystal, experimental, refinement or atomic coordinate data resulting 
# from the CCDC's data processing and validation procedures.
#
#######################################################################

data_AYUYAU
_symmetry_cell_setting           monoclinic
_symmetry_space_group_name_H-M   'C 2/c'
_symmetry_Int_Tables_number      15
_space_group_name_Hall           '-C 2yn'
loop_
_symmetry_equiv_pos_site_id
_symmetry_equiv_pos_as_xyz
1 x,y,z
2 1/2+x,1/2+y,z
3 x,-y,1/2+z
4 1/2+x,1/2-y,1/2+z
5 -x,-y,-z
6 1/2-x,1/2-y,-z
7 -x,y,1/2-z
8 1/2-x,1/2+y,1/2-z
_cell_length_a                   21.853(2)
_cell_length_b                   9.1570(10)
_cell_length_c                   16.0920(10)
_cell_angle_alpha                90
_cell_angle_beta                 110.920(10)
_cell_angle_gamma                90
_cell_volume                     3007.86
loop_
_atom_site_label
_atom_site_type_symbol
_atom_site_fract_x
_atom_site_fract_y
_atom_site_fract_z
Ag1 Ag 0.462115(10) 0.250589(19) 0.309835(13)
N1 N 0.53909(10) 0.1190(2) 0.39381(14)
N2 N 0.62113(11) 0.0483(3) 0.51634(15)
H1 H 0.6450 0.0435 0.5749
N3 N 0.60453(10) 0.5909(2) 0.76685(14)
N4 N 0.66440(12) 0.3887(3) 0.79974(17)
H2 H 0.6746 0.2949 0.7941
C1 C 0.63497(13) -0.0311(3) 0.44646(19)
H3 H 0.6386 -0.1341 0.4583
H4 H 0.6745 0.0032 0.4398
C2 C 0.57452(15) 0.0043(3) 0.36382(18)
H5 H 0.5873 0.0396 0.3162
H6 H 0.5475 -0.0807 0.3437
C3 C 0.56711(11) 0.1305(3) 0.47954(16)
C4 C 0.54381(13) 0.2295(3) 0.53458(19)
C5 C 0.47729(13) 0.2645(3) 0.5077(2)
H7 H 0.4466 0.2204 0.4552
C6 C 0.45579(11) 0.3625(3) 0.55637(18)
H8 H 0.4103 0.3887 0.5371
C7 C 0.49972(12) 0.4237(3) 0.63318(17)
H9 H 0.4845 0.4902 0.6677
C8 C 0.56661(11) 0.3887(3) 0.66157(16)
C9 C 0.58839(12) 0.2914(3) 0.61250(17)
H10 H 0.6339 0.2658 0.6318
C10 C 0.61224(11) 0.4593(3) 0.74314(17)
C11 C 0.65769(13) 0.6198(3) 0.85405(18)
H11 H 0.6399 0.6325 0.9001
H12 H 0.6818 0.7059 0.8509
C12 C 0.70137(14) 0.4855(4) 0.8715(2)
H13 H 0.7433 0.5082 0.8682
H14 H 0.7075 0.4440 0.9287
Ag1F Ag 0.537885(10) 0.250589(19) 0.190165(13)
N3D N 0.39547(10) 0.4091(2) 0.23315(14)
Ag1D Ag 0.537885(10) 0.749411(19) 0.690165(13)
O1 O 0.65223(12) -0.1087(4) 0.68103(18)
H15 H 0.669(3) -0.191(7) 0.671(4)
H16 H 0.677(2) -0.058(4) 0.717(3)
O2 O 0.72691(19) 0.1127(4) 0.7914(2)
N5 N 0.76854(14) 0.0717(4) 0.8614(2)
O3 O 0.80554(19) 0.1620(5) 0.9073(3)
O4 O 0.7708(2) -0.0556(4) 0.8830(3)
loop_
_geom_bond_atom_site_label_1
_geom_bond_atom_site_label_2
_geom_bond_site_symmetry_1
_geom_bond_site_symmetry_2
Ag1 N1 1_555 1_555
N1 C2 1_555 1_555
N2 H1 1_555 1_555
N3 C10 1_555 1_555
N4 H2 1_555 1_555
C1 N2 1_555 1_555
H3 C1 1_555 1_555
H4 C1 1_555 1_555
C2 C1 1_555 1_555
H5 C2 1_555 1_555
H6 C2 1_555 1_555
C3 N1 1_555 1_555
C4 C3 1_555 1_555
C5 C4 1_555 1_555
H7 C5 1_555 1_555
C6 C5 1_555 1_555
H8 C6 1_555 1_555
C7 C6 1_555 1_555
H9 C7 1_555 1_555
C8 C7 1_555 1_555
C9 C4 1_555 1_555
H10 C9 1_555 1_555
C10 N4 1_555 1_555
C11 N3 1_555 1_555
H11 C11 1_555 1_555
H12 C11 1_555 1_555
C12 N4 1_555 1_555
H13 C12 1_555 1_555
H14 C12 1_555 1_555
O1 H15 1_555 1_555
O2 N5 1_555 1_555
N5 O3 1_555 1_555
O4 N5 1_555 1_555
H16 O1 1_555 1_555
Ag1F Ag1 1_555 1_555
N3D Ag1 1_555 1_555
Ag1D N3 1_555 1_555
N2 C3 1_555 1_555
C8 C9 1_555 1_555
C8 C10 1_555 1_555
C11 C12 1_555 1_555

#END
