
#######################################################################
#
#                 Cambridge Crystallographic Data Centre
#                                CCDC 
#
#######################################################################
#
# If this CIF has been generated from an entry in the Cambridge 
# Structural Database, then it will include bibliographic, chemical, 
# crystal, experimental, refinement or atomic coordinate data resulting 
# from the CCDC's data processing and validation procedures.
#
#######################################################################

data_AYUZOJ
_symmetry_cell_setting           triclinic
_symmetry_space_group_name_H-M   'P -1'
_symmetry_Int_Tables_number      2
_space_group_name_Hall           '-P 1'
loop_
_symmetry_equiv_pos_site_id
_symmetry_equiv_pos_as_xyz
1 x,y,z
2 -x,-y,-z
_cell_length_a                   8.5612(12)
_cell_length_b                   9.0561(14)
_cell_length_c                   11.0144(16)
_cell_angle_alpha                88.841(2)
_cell_angle_beta                 78.326(2)
_cell_angle_gamma                67.832(2)
_cell_volume                     772.992
loop_
_atom_site_label
_atom_site_type_symbol
_atom_site_fract_x
_atom_site_fract_y
_atom_site_fract_z
Cd1 Cd -0.09019(10) 0.00014(10) 0.85391(8)
Cl1 Cl -0.1077(4) 0.2044(4) 1.0219(3)
O1 O -0.0495(16) 0.1635(15) 0.6885(11)
O2 O 0.1416(13) -0.0722(14) 0.6826(11)
C1 C 0.086(2) 0.058(2) 0.6375(12)
C2 C 0.176(3) 0.092(3) 0.5139(15)
H1 H 0.2422 -0.0078 0.4652
H2 H 0.0889 0.1570 0.4696
C3 C 0.593(3) 0.090(3) 0.514(2)
C4 C 0.577(4) 0.239(3) 0.551(2)
C5 C 0.393(4) 0.376(4) 0.577(2)
C6 C 0.278(4) 0.342(4) 0.565(2)
C7 C 0.289(3) 0.173(3) 0.5221(17)
C8 C 0.459(4) 0.050(4) 0.498(3)
C9 C -0.102(2) -0.3363(16) 0.7789(17)
H3 H 0.0145 -0.3703 0.7819
C10 C -0.164(3) -0.447(2) 0.747(2)
H4 H -0.0907 -0.5532 0.7271
C11 C -0.340(2) -0.3946(19) 0.7449(19)
H5 H -0.3869 -0.4658 0.7252
C12 C -0.4426(18) -0.2323(16) 0.7735(14)
H6 H -0.5591 -0.1935 0.7711
C13 C -0.3690(14) -0.1312(13) 0.8051(10)
C14 C -0.4708(13) 0.0402(13) 0.8394(9)
C15 C -0.6450(15) 0.1083(16) 0.8399(12)
H7 H -0.7032 0.0474 0.8188
C16 C -0.7298(19) 0.269(2) 0.8727(15)
H8 H -0.8476 0.3169 0.8755
C17 C -0.6440(19) 0.3575(18) 0.9009(16)
H9 H -0.7014 0.4667 0.9206
C18 C -0.4713(18) 0.2844(16) 0.9000(13)
H10 H -0.4121 0.3443 0.9212
N1 N -0.2011(12) -0.1837(11) 0.8055(9)
N2 N -0.3848(12) 0.1244(11) 0.8685(9)
C3A C 0.407(3) -0.090(3) 0.486(2)
C4A C 0.423(4) -0.239(3) 0.449(2)
C5A C 0.607(4) -0.376(4) 0.423(2)
C6A C 0.722(4) -0.342(4) 0.435(2)
C7A C 0.711(3) -0.173(3) 0.4779(17)
C2A C 0.824(3) -0.092(3) 0.4861(15)
C1A C 0.914(2) -0.058(2) 0.3625(12)
O1A O 1.0495(16) -0.1635(15) 0.3115(11)
O2A O 0.8584(13) 0.0722(14) 0.3174(11)
H1A H 0.7578 0.0078 0.5348
H2A H 0.9111 -0.1570 0.5304
C8A C 0.541(4) -0.050(4) 0.502(3)
Cl1A Cl 0.1077(4) -0.2044(4) 0.9781(3)
Cd1A Cd 0.09019(10) -0.00014(10) 1.14609(8)
C9A C 0.102(2) 0.3363(16) 1.2211(17)
H3A H -0.0145 0.3703 1.2181
C10A C 0.164(3) 0.447(2) 1.253(2)
H4A H 0.0907 0.5532 1.2729
C11A C 0.340(2) 0.3946(19) 1.2551(19)
H5A H 0.3869 0.4658 1.2748
C12A C 0.4426(18) 0.2323(16) 1.2265(14)
H6A H 0.5591 0.1935 1.2289
C13A C 0.3690(14) 0.1312(13) 1.1949(10)
C14A C 0.4708(13) -0.0402(13) 1.1606(9)
C15A C 0.6450(15) -0.1083(16) 1.1601(12)
H7A H 0.7032 -0.0474 1.1812
C16A C 0.7298(19) -0.269(2) 1.1273(15)
H8A H 0.8476 -0.3169 1.1245
C17A C 0.6440(19) -0.3575(18) 1.0991(16)
H9A H 0.7014 -0.4667 1.0794
C18A C 0.4713(18) -0.2844(16) 1.1000(13)
H10A H 0.4121 -0.3443 1.0788
N1A N 0.2011(12) 0.1837(11) 1.1945(9)
N2A N 0.3848(12) -0.1244(11) 1.1315(9)
Cd1A_2 Cd 1.09019(10) -0.00014(10) 0.14609(8)
O1A_2 O 0.0495(16) -0.1635(15) 1.3115(11)
O2A_2 O -0.1416(13) 0.0722(14) 1.3174(11)
loop_
_geom_bond_atom_site_label_1
_geom_bond_atom_site_label_2
_geom_bond_site_symmetry_1
_geom_bond_site_symmetry_2
Cd1 Cl1 1_555 1_555
Cl1 Cd1A 1_555 1_555
O1 Cd1 1_555 1_555
O2 Cd1 1_555 1_555
C1 O1 1_555 1_555
C2 C1 1_555 1_555
H1 C2 1_555 1_555
H2 C2 1_555 1_555
C3 C4 1_555 1_555
C4 C5 1_555 1_555
C5 C6 1_555 1_555
C6 C7 1_555 1_555
C7 C2 1_555 1_555
C8 C3 1_555 1_555
C9 H3 1_555 1_555
C10 C9 1_555 1_555
H4 C10 1_555 1_555
C11 C10 1_555 1_555
H5 C11 1_555 1_555
C12 C11 1_555 1_555
H6 C12 1_555 1_555
C13 C12 1_555 1_555
C14 C13 1_555 1_555
C15 C14 1_555 1_555
H7 C15 1_555 1_555
C16 C15 1_555 1_555
H8 C16 1_555 1_555
C17 C16 1_555 1_555
H9 C17 1_555 1_555
C18 C17 1_555 1_555
H10 C18 1_555 1_555
N1 Cd1 1_555 1_555
N2 Cd1 1_555 1_555
C3A C8 1_555 1_555
C4A C3A 1_555 1_555
C5A C4A 1_555 1_555
C6A C5A 1_555 1_555
C7A C6A 1_555 1_555
C2A C7A 1_555 1_555
C1A C2A 1_555 1_555
O1A C1A 1_555 1_555
O2A C1A 1_555 1_555
H1A C2A 1_555 1_555
H2A C2A 1_555 1_555
C8A C3 1_555 1_555
Cl1A Cd1 1_555 1_555
Cd1A Cl1A 1_555 1_555
C9A H3A 1_555 1_555
C10A C9A 1_555 1_555
H4A C10A 1_555 1_555
C11A C10A 1_555 1_555
H5A C11A 1_555 1_555
C12A C11A 1_555 1_555
H6A C12A 1_555 1_555
C13A C12A 1_555 1_555
C14A C13A 1_555 1_555
C15A C14A 1_555 1_555
H7A C15A 1_555 1_555
C16A C15A 1_555 1_555
H8A C16A 1_555 1_555
C17A C16A 1_555 1_555
H9A C17A 1_555 1_555
C18A C17A 1_555 1_555
H10A C18A 1_555 1_555
N1A Cd1A 1_555 1_555
N2A Cd1A 1_555 1_555
Cd1A_2 O1A 1_555 1_555
O1A_2 Cd1A 1_555 1_555
O2A_2 Cd1A 1_555 1_555
O2 C1 1_555 1_555
C7 C8 1_555 1_555
C8 C8A 1_555 1_555
C9 N1 1_555 1_555
C13 N1 1_555 1_555
C14 N2 1_555 1_555
C18 N2 1_555 1_555
C3A C8A 1_555 1_555
C7A C8A 1_555 1_555
O2A Cd1A_2 1_555 1_555
C9A N1A 1_555 1_555
C13A N1A 1_555 1_555
C14A N2A 1_555 1_555
C18A N2A 1_555 1_555

#END
