
#######################################################################
#
#                 Cambridge Crystallographic Data Centre
#                                CCDC 
#
#######################################################################
#
# If this CIF has been generated from an entry in the Cambridge 
# Structural Database, then it will include bibliographic, chemical, 
# crystal, experimental, refinement or atomic coordinate data resulting 
# from the CCDC's data processing and validation procedures.
#
#######################################################################

data_AYUZUP
_symmetry_cell_setting           monoclinic
_symmetry_space_group_name_H-M   'C 2/c'
_symmetry_Int_Tables_number      15
_space_group_name_Hall           '-C 2yn'
loop_
_symmetry_equiv_pos_site_id
_symmetry_equiv_pos_as_xyz
1 x,y,z
2 x,-y,1/2+z
3 1/2+x,1/2+y,z
4 1/2+x,1/2-y,1/2+z
5 -x,-y,-z
6 -x,y,1/2-z
7 1/2-x,1/2-y,-z
8 1/2-x,1/2+y,1/2-z
_cell_length_a                   28.5541(11)
_cell_length_b                   8.4358(2)
_cell_length_c                   15.0287(5)
_cell_angle_alpha                90
_cell_angle_beta                 95.748(2)
_cell_angle_gamma                90
_cell_volume                     3601.86
loop_
_atom_site_label
_atom_site_type_symbol
_atom_site_fract_x
_atom_site_fract_y
_atom_site_fract_z
Zn1 Zn 0.37842(2) 0.52056(7) -0.21651(4)
C1 C 0.3022(2) 0.7563(7) -0.2851(3)
H1 H 0.2845 0.6667 -0.3019
C2 C 0.2818(2) 0.9038(7) -0.3007(4)
H2 H 0.2509 0.9137 -0.3266
C3 C 0.3086(2) 1.0345(7) -0.2768(4)
H3 H 0.2962 1.1355 -0.2874
C4 C 0.3543(2) 1.0162(7) -0.2366(4)
H4 H 0.3727 1.1042 -0.2199
C5 C 0.37165(18) 0.8654(6) -0.2221(3)
C6 C 0.41958(19) 0.8332(6) -0.1789(4)
C7 C 0.4515(2) 0.9518(8) -0.1520(5)
H5 H 0.4439 1.0581 -0.1615
C8 C 0.4943(3) 0.9074(10) -0.1112(6)
H6 H 0.5162 0.9853 -0.0925
C9 C 0.5059(2) 0.7516(11) -0.0972(6)
H7 H 0.5350 0.7219 -0.0687
C10 C 0.4728(2) 0.6405(8) -0.1269(4)
H8 H 0.4802 0.5338 -0.1190
C11 C 0.3802(3) 0.3670(7) -0.3610(4)
C12 C 0.3929(2) 0.2808(6) -0.4450(4)
H9 H 0.3967 0.3589 -0.4911
H10 H 0.4230 0.2285 -0.4313
C13 C 0.3572(2) 0.1584(6) -0.4822(3)
C14 C 0.3144(2) 0.2018(7) -0.5254(3)
H11 H 0.3073 0.3085 -0.5347
C15 C 0.2819(2) 0.0883(8) -0.5548(4)
H12 H 0.2528 0.1189 -0.5828
C16 C 0.2921(2) -0.0707(7) -0.5429(3)
H13 H 0.2698 -0.1464 -0.5628
C17 C 0.33533(19) -0.1184(6) -0.5016(3)
C18 C 0.36734(17) -0.0018(6) -0.4713(3)
H14 H 0.3964 -0.0319 -0.4430
C19 C 0.3476(2) -0.2918(6) -0.4904(4)
H15 H 0.3197 -0.3511 -0.4792
H16 H 0.3708 -0.3052 -0.4391
C20 C 0.3671(2) -0.3560(6) -0.5735(4)
N1 N 0.34572(15) 0.7365(5) -0.2473(3)
N2 N 0.43034(15) 0.6794(5) -0.1667(3)
O1 O 0.33924(17) 0.3928(5) -0.3466(3)
O2 O 0.41418(15) 0.4121(5) -0.3072(3)
O3 O 0.33882(14) -0.4279(4) -0.6293(3)
O4 O 0.40874(17) -0.3361(6) -0.5851(3)
O3A O 0.33882(14) 0.4279(4) -0.1293(3)
Zn1A Zn 0.37842(2) -0.52056(7) -0.71651(4)
N1A N 0.34572(15) -0.7365(5) -0.7473(3)
C1A C 0.3022(2) -0.7563(7) -0.7851(3)
H1A H 0.2845 -0.6667 -0.8019
C2A C 0.2818(2) -0.9038(7) -0.8007(4)
H2A H 0.2509 -0.9137 -0.8266
C3A C 0.3086(2) -1.0345(7) -0.7768(4)
H3A H 0.2962 -1.1355 -0.7874
C4A C 0.3543(2) -1.0162(7) -0.7366(4)
H4A H 0.3727 -1.1042 -0.7199
C5A C 0.37165(18) -0.8654(6) -0.7221(3)
C6A C 0.41958(19) -0.8332(6) -0.6789(4)
C7A C 0.4515(2) -0.9518(8) -0.6520(5)
H5A H 0.4439 -1.0581 -0.6615
C8A C 0.4943(3) -0.9074(10) -0.6112(6)
H6A H 0.5162 -0.9853 -0.5925
C9A C 0.5059(2) -0.7516(11) -0.5972(6)
H7A H 0.5350 -0.7219 -0.5687
C10A C 0.4728(2) -0.6405(8) -0.6269(4)
H8A H 0.4802 -0.5338 -0.6190
N2A N 0.43034(15) -0.6794(5) -0.6667(3)
O1A O 0.33924(17) -0.3928(5) -0.8466(3)
C11A C 0.3802(3) -0.3670(7) -0.8610(4)
C12A C 0.3929(2) -0.2808(6) -0.9450(4)
H9A H 0.3967 -0.3589 -0.9911
H10A H 0.4230 -0.2285 -0.9313
C13A C 0.3572(2) -0.1584(6) -0.9822(3)
C14A C 0.3144(2) -0.2018(7) -1.0254(3)
H11A H 0.3073 -0.3085 -1.0347
C15A C 0.2819(2) -0.0883(8) -1.0548(4)
H12A H 0.2528 -0.1189 -1.0828
C16A C 0.2921(2) 0.0707(7) -1.0429(3)
H13A H 0.2698 0.1464 -1.0628
C17A C 0.33533(19) 0.1184(6) -1.0016(3)
C18A C 0.36734(17) 0.0018(6) -0.9713(3)
H14A H 0.3964 0.0319 -0.9430
C19A C 0.3476(2) 0.2918(6) -0.9904(4)
H15A H 0.3197 0.3511 -0.9792
H16A H 0.3708 0.3052 -0.9391
C20A C 0.3671(2) 0.3560(6) -1.0735(4)
O3A_2 O 0.33882(14) 0.4279(4) -1.1293(3)
Zn1_2 Zn 0.37842(2) 0.52056(7) -1.21651(4)
O4A O 0.40874(17) 0.3361(6) -1.0851(3)
O2A O 0.41418(15) -0.4121(5) -0.8072(3)
O5 O 0.5000 1.2515(10) -0.2500
loop_
_geom_bond_atom_site_label_1
_geom_bond_atom_site_label_2
_geom_bond_site_symmetry_1
_geom_bond_site_symmetry_2
Zn1 N1 1_555 1_555
C1 H1 1_555 1_555
C2 C1 1_555 1_555
H2 C2 1_555 1_555
C3 C2 1_555 1_555
H3 C3 1_555 1_555
C4 C3 1_555 1_555
H4 C4 1_555 1_555
C5 C4 1_555 1_555
C6 C5 1_555 1_555
C7 C6 1_555 1_555
H5 C7 1_555 1_555
C8 C7 1_555 1_555
H6 C8 1_555 1_555
C9 C8 1_555 1_555
H7 C9 1_555 1_555
C10 C9 1_555 1_555
H8 C10 1_555 1_555
C11 C12 1_555 1_555
C12 H9 1_555 1_555
H10 C12 1_555 1_555
C13 C12 1_555 1_555
C14 C13 1_555 1_555
H11 C14 1_555 1_555
C15 C14 1_555 1_555
H12 C15 1_555 1_555
C16 C15 1_555 1_555
H13 C16 1_555 1_555
C17 C16 1_555 1_555
C18 C13 1_555 1_555
H14 C18 1_555 1_555
C19 C17 1_555 1_555
H15 C19 1_555 1_555
H16 C19 1_555 1_555
C20 C19 1_555 1_555
N1 C1 1_555 1_555
N2 Zn1 1_555 1_555
O1 Zn1 1_555 1_555
O2 Zn1 1_555 1_555
O3 C20 1_555 1_555
O4 C20 1_555 1_555
O3A Zn1 1_555 1_555
Zn1A O3 1_555 1_555
N1A Zn1A 1_555 1_555
C1A N1A 1_555 1_555
H1A C1A 1_555 1_555
C2A C1A 1_555 1_555
H2A C2A 1_555 1_555
C3A C2A 1_555 1_555
H3A C3A 1_555 1_555
C4A C3A 1_555 1_555
H4A C4A 1_555 1_555
C5A N1A 1_555 1_555
C6A C5A 1_555 1_555
C7A C6A 1_555 1_555
H5A C7A 1_555 1_555
C8A C7A 1_555 1_555
H6A C8A 1_555 1_555
C9A C8A 1_555 1_555
H7A C9A 1_555 1_555
C10A C9A 1_555 1_555
H8A C10A 1_555 1_555
N2A Zn1A 1_555 1_555
O1A Zn1A 1_555 1_555
C11A O1A 1_555 1_555
C12A C11A 1_555 1_555
H9A C12A 1_555 1_555
H10A C12A 1_555 1_555
C13A C12A 1_555 1_555
C14A C13A 1_555 1_555
H11A C14A 1_555 1_555
C15A C14A 1_555 1_555
H12A C15A 1_555 1_555
C16A C15A 1_555 1_555
H13A C16A 1_555 1_555
C17A C16A 1_555 1_555
C18A C13A 1_555 1_555
H14A C18A 1_555 1_555
C19A C17A 1_555 1_555
H15A C19A 1_555 1_555
H16A C19A 1_555 1_555
C20A C19A 1_555 1_555
O3A_2 C20A 1_555 1_555
Zn1_2 O3A_2 1_555 1_555
O4A C20A 1_555 1_555
O2A Zn1A 1_555 1_555
C5 N1 1_555 1_555
C6 N2 1_555 1_555
C10 N2 1_555 1_555
C11 O1 1_555 1_555
C11 O2 1_555 1_555
C17 C18 1_555 1_555
C4A C5A 1_555 1_555
C6A N2A 1_555 1_555
C10A N2A 1_555 1_555
C11A O2A 1_555 1_555
C17A C18A 1_555 1_555

#END
