
#######################################################################
#
#                 Cambridge Crystallographic Data Centre
#                                CCDC 
#
#######################################################################
#
# If this CIF has been generated from an entry in the Cambridge 
# Structural Database, then it will include bibliographic, chemical, 
# crystal, experimental, refinement or atomic coordinate data resulting 
# from the CCDC's data processing and validation procedures.
#
#######################################################################

data_AZABUY
_symmetry_cell_setting           orthorhombic
_symmetry_space_group_name_H-M   'I m m a'
_symmetry_Int_Tables_number      74
_space_group_name_Hall           '-I 2b 2'
loop_
_symmetry_equiv_pos_site_id
_symmetry_equiv_pos_as_xyz
1 x,y,z
2 1/2+x,1/2+y,1/2+z
3 -x,1/2-y,z
4 -x,1/2+y,-z
5 x,-y,-z
6 1/2-x,-y,1/2+z
7 1/2-x,y,1/2-z
8 1/2+x,1/2-y,1/2-z
9 -x,-y,-z
10 1/2-x,1/2-y,1/2-z
11 x,1/2+y,-z
12 x,1/2-y,z
13 -x,y,z
14 1/2+x,y,1/2-z
15 1/2+x,-y,1/2+z
16 1/2-x,1/2+y,1/2+z
_cell_length_a                   7.0560(10)
_cell_length_b                   7.4470(10)
_cell_length_c                   13.1130(10)
_cell_angle_alpha                90
_cell_angle_beta                 90
_cell_angle_gamma                90
_cell_volume                     689.036
loop_
_atom_site_label
_atom_site_type_symbol
_atom_site_fract_x
_atom_site_fract_y
_atom_site_fract_z
Cd1 Cd 0.2500 0.2500 0.2500
Cl1 Cl 0.0000 0.48453(11) 0.31578(7)
N1 N 0.0949(4) 0.2500 0.0896(2)
C1 C 0.0968(5) 0.2500 -0.0917(3)
H1 H 0.1895 0.2500 -0.1453
C2 C 0.1873(5) 0.2500 0.0016(3)
H2 H 0.3233 0.2500 0.0028
N1L N -0.0949(4) 0.2500 0.0896(2)
C2L C -0.1873(5) 0.2500 0.0016(3)
C1L C -0.0968(5) 0.2500 -0.0917(3)
H1L H -0.1895 0.2500 -0.1453
H2L H -0.3233 0.2500 0.0028
Cl1K Cl 0.0000 0.01547(11) 0.31578(7)
Cl1M Cl 0.5000 0.48453(11) 0.18422(7)
Cl1I Cl 0.5000 0.01547(11) 0.18422(7)
N1I N 0.4051(4) 0.2500 0.4104(2)
Cd1L Cd -0.2500 0.2500 0.2500
loop_
_geom_bond_atom_site_label_1
_geom_bond_atom_site_label_2
_geom_bond_site_symmetry_1
_geom_bond_site_symmetry_2
Cd1 Cl1 1_555 1_555
Cl1 Cd1L 1_555 1_555
N1 Cd1 1_555 1_555
C1 H1 1_555 1_555
C2 N1 1_555 1_555
H2 C2 1_555 1_555
N1L N1 1_555 1_555
C2L N1L 1_555 1_555
C1L C1 1_555 1_555
H1L C1L 1_555 1_555
H2L C2L 1_555 1_555
Cl1K Cd1 1_555 1_555
Cl1M Cd1 1_555 1_555
Cl1I Cd1 1_555 1_555
N1I Cd1 1_555 1_555
Cd1L N1L 1_555 1_555
C1 C2 1_555 1_555
C2L C1L 1_555 1_555
Cl1K Cd1L 1_555 1_555

#END
