
#######################################################################
#
#                 Cambridge Crystallographic Data Centre
#                                CCDC 
#
#######################################################################
#
# If this CIF has been generated from an entry in the Cambridge 
# Structural Database, then it will include bibliographic, chemical, 
# crystal, experimental, refinement or atomic coordinate data resulting 
# from the CCDC's data processing and validation procedures.
#
#######################################################################

data_AZACIN
_symmetry_cell_setting           triclinic
_symmetry_space_group_name_H-M   'P -1'
_symmetry_Int_Tables_number      2
_space_group_name_Hall           '-P 1'
loop_
_symmetry_equiv_pos_site_id
_symmetry_equiv_pos_as_xyz
1 x,y,z
2 -x,-y,-z
_cell_length_a                   9.591(7)
_cell_length_b                   10.472(6)
_cell_length_c                   18.769(10)
_cell_angle_alpha                74.180(10)
_cell_angle_beta                 86.77(2)
_cell_angle_gamma                63.650(10)
_cell_volume                     1620.68
loop_
_atom_site_label
_atom_site_type_symbol
_atom_site_fract_x
_atom_site_fract_y
_atom_site_fract_z
Mn1 Mn 0.24951(8) 0.12126(7) 0.49184(3)
Mn2 Mn 0.08005(8) 0.36510(7) -0.08079(3)
O1 O 0.2003(5) 0.0088(4) 0.42233(17)
O2 O 0.0941(5) 0.2504(4) 0.36591(18)
O3 O 0.0779(4) 0.2323(4) 0.02936(16)
O4 O -0.0334(5) 0.4159(4) 0.08419(19)
O5 O 0.0586(4) 0.5319(4) 0.2021(2)
O6 O 0.1622(4) 0.6104(5) 0.10147(19)
O7 O 0.4252(5) 0.1604(5) 0.42759(19)
O8 O 0.6815(4) 0.0746(4) 0.41649(19)
N1 N 0.2817(4) 0.2412(4) 0.5707(2)
N2 N 0.0096(4) 0.2581(4) 0.52692(19)
N3 N 0.2491(4) 0.1835(4) -0.1331(2)
N4 N 0.3388(4) 0.3035(4) -0.0464(2)
C1 C 0.1326(6) 0.1200(6) 0.3652(2)
C2 C 0.1079(5) 0.0863(5) 0.2945(2)
C3 C 0.1333(6) -0.0570(5) 0.2958(3)
H1 H 0.1599 -0.1325 0.3423
C4 C 0.1200(6) -0.0899(5) 0.2299(3)
H2 H 0.1374 -0.1881 0.2311
C5 C 0.0818(5) 0.0207(5) 0.1617(2)
H3 H 0.0721 -0.0016 0.1164
C6 C 0.0563(5) 0.1640(5) 0.1597(2)
C7 C 0.0674(5) 0.1986(5) 0.2261(2)
H4 H 0.0466 0.2975 0.2252
C8 C 0.0299(5) 0.2807(5) 0.0856(2)
C9 C 0.1748(6) 0.5404(5) 0.1693(3)
C10 C 0.3352(5) 0.4628(5) 0.2119(2)
C11 C 0.4601(6) 0.4881(5) 0.1800(2)
H5 H 0.4423 0.5590 0.1324
C12 C 0.6092(6) 0.4092(6) 0.2165(3)
H6 H 0.6933 0.4283 0.1944
C13 C 0.6356(6) 0.3045(5) 0.2852(2)
H7 H 0.7385 0.2493 0.3099
C14 C 0.5111(5) 0.2790(4) 0.3186(2)
C15 C 0.3611(5) 0.3584(5) 0.2814(2)
H8 H 0.2761 0.3413 0.3036
C16 C 0.5404(6) 0.1627(5) 0.3932(2)
C17 C 0.4212(6) 0.2201(6) 0.5956(3)
H9 H 0.5130 0.1563 0.5765
C18 C 0.4384(8) 0.2874(7) 0.6469(3)
H10 H 0.5404 0.2691 0.6630
C19 C 0.3064(8) 0.3787(7) 0.6746(3)
H11 H 0.3155 0.4261 0.7101
C20 C 0.1587(7) 0.4020(6) 0.6500(3)
H12 H 0.0651 0.4656 0.6680
C21 C 0.1506(6) 0.3315(5) 0.5987(2)
C22 C -0.0008(5) 0.3461(5) 0.5707(2)
C23 C -0.1456(6) 0.4422(6) 0.5896(3)
H13 H -0.1502 0.5019 0.6213
C24 C -0.2808(7) 0.4498(7) 0.5625(3)
H14 H -0.3807 0.5170 0.5741
C25 C -0.2702(6) 0.3579(6) 0.5196(3)
H15 H -0.3626 0.3592 0.5016
C26 C -0.1235(6) 0.2651(6) 0.5016(3)
H16 H -0.1162 0.2034 0.4706
C27 C 0.1991(7) 0.1335(6) -0.1804(3)
H17 H 0.0887 0.1735 -0.1908
C28 C 0.2973(7) 0.0271(6) -0.2147(3)
H18 H 0.2565 -0.0050 -0.2483
C29 C 0.4569(7) -0.0306(7) -0.1993(3)
H19 H 0.5285 -0.1046 -0.2217
C30 C 0.5119(7) 0.0197(6) -0.1514(3)
H20 H 0.6220 -0.0186 -0.1407
C31 C 0.4060(5) 0.1264(5) -0.1182(3)
C32 C 0.4554(5) 0.1859(5) -0.0658(2)
C33 C 0.6102(6) 0.1254(5) -0.0378(3)
H21 H 0.6890 0.0408 -0.0510
C34 C 0.6475(7) 0.1895(6) 0.0099(3)
H22 H 0.7532 0.1505 0.0293
C35 C 0.5299(7) 0.3091(6) 0.0289(3)
H23 H 0.5533 0.3565 0.0604
C36 C 0.3767(7) 0.3618(6) 0.0007(3)
H24 H 0.2946 0.4415 0.0161
O8A O 0.3185(4) -0.0746(4) 0.58351(19)
O4A O 0.0334(5) 0.5841(4) -0.08419(19)
O5A O -0.0586(4) 0.4681(4) -0.2021(2)
O6A O -0.1622(4) 0.3896(5) -0.10147(19)
Mn2A Mn -0.08005(8) 0.63490(7) 0.08079(3)
Mn1A Mn 0.75049(8) -0.12126(7) 0.50816(3)
loop_
_geom_bond_atom_site_label_1
_geom_bond_atom_site_label_2
_geom_bond_site_symmetry_1
_geom_bond_site_symmetry_2
Mn1 O1 1_555 1_555
Mn2 O3 1_555 1_555
O1 C1 1_555 1_555
O2 C1 1_555 1_555
O3 C8 1_555 1_555
O4 C8 1_555 1_555
O5 C9 1_555 1_555
O6 C9 1_555 1_555
O7 Mn1 1_555 1_555
O8 C16 1_555 1_555
N1 Mn1 1_555 1_555
N2 Mn1 1_555 1_555
N3 Mn2 1_555 1_555
N4 Mn2 1_555 1_555
C1 C2 1_555 1_555
C2 C3 1_555 1_555
C3 H1 1_555 1_555
C4 C3 1_555 1_555
H2 C4 1_555 1_555
C5 C4 1_555 1_555
H3 C5 1_555 1_555
C6 C5 1_555 1_555
C7 C2 1_555 1_555
H4 C7 1_555 1_555
C8 C6 1_555 1_555
C9 C10 1_555 1_555
C10 C11 1_555 1_555
C11 H5 1_555 1_555
C12 C11 1_555 1_555
H6 C12 1_555 1_555
C13 C12 1_555 1_555
H7 C13 1_555 1_555
C14 C13 1_555 1_555
C15 C10 1_555 1_555
H8 C15 1_555 1_555
C16 O7 1_555 1_555
C17 N1 1_555 1_555
H9 C17 1_555 1_555
C18 C17 1_555 1_555
H10 C18 1_555 1_555
C19 C18 1_555 1_555
H11 C19 1_555 1_555
C20 C19 1_555 1_555
H12 C20 1_555 1_555
C21 N1 1_555 1_555
C22 N2 1_555 1_555
C23 C22 1_555 1_555
H13 C23 1_555 1_555
C24 C23 1_555 1_555
H14 C24 1_555 1_555
C25 C24 1_555 1_555
H15 C25 1_555 1_555
C26 N2 1_555 1_555
H16 C26 1_555 1_555
C27 N3 1_555 1_555
H17 C27 1_555 1_555
C28 C27 1_555 1_555
H18 C28 1_555 1_555
C29 C28 1_555 1_555
H19 C29 1_555 1_555
C30 C29 1_555 1_555
H20 C30 1_555 1_555
C31 N3 1_555 1_555
C32 N4 1_555 1_555
C33 C32 1_555 1_555
H21 C33 1_555 1_555
C34 C33 1_555 1_555
H22 C34 1_555 1_555
C35 C34 1_555 1_555
H23 C35 1_555 1_555
C36 N4 1_555 1_555
H24 C36 1_555 1_555
O8A Mn1 1_555 1_555
O4A Mn2 1_555 1_555
O5A Mn2 1_555 1_555
O6A Mn2 1_555 1_555
Mn2A O4 1_555 1_555
Mn1A O8 1_555 1_555
O5 Mn2A 1_555 1_555
O6 Mn2A 1_555 1_555
C6 C7 1_555 1_555
C14 C15 1_555 1_555
C14 C16 1_555 1_555
C20 C21 1_555 1_555
C21 C22 1_555 1_555
C25 C26 1_555 1_555
C30 C31 1_555 1_555
C31 C32 1_555 1_555
C35 C36 1_555 1_555

#END
