
#######################################################################
#
#                 Cambridge Crystallographic Data Centre
#                                CCDC 
#
#######################################################################
#
# If this CIF has been generated from an entry in the Cambridge 
# Structural Database, then it will include bibliographic, chemical, 
# crystal, experimental, refinement or atomic coordinate data resulting 
# from the CCDC's data processing and validation procedures.
#
#######################################################################

data_AZATIE
_symmetry_cell_setting           monoclinic
_symmetry_space_group_name_H-M   'P 21/n'
_symmetry_Int_Tables_number      14
_space_group_name_Hall           '-P 2yn'
loop_
_symmetry_equiv_pos_site_id
_symmetry_equiv_pos_as_xyz
1 x,y,z
2 1/2+x,1/2-y,1/2+z
3 -x,-y,-z
4 1/2-x,1/2+y,1/2-z
_cell_length_a                   5.219(1)
_cell_length_b                   19.655(6)
_cell_length_c                   5.845(2)
_cell_angle_alpha                90.00
_cell_angle_beta                 96.37(2)
_cell_angle_gamma                90.00
_cell_volume                     595.875
loop_
_atom_site_label
_atom_site_type_symbol
_atom_site_fract_x
_atom_site_fract_y
_atom_site_fract_z
Ca1 Ca 0.0000 0.0000 0.0000
O1 O 0.3698(2) 0.02633(7) 0.2333(2)
O2 O 0.7847(2) 0.05637(7) 0.2792(2)
O3 O 0.1586(3) 0.20272(6) 1.0042(2)
O4 O 0.0523(3) 0.10402(6) 0.8286(2)
N1 N 0.2226(2) 0.14303(6) 0.4328(2)
C1 C 0.4953(3) 0.12037(9) 0.4724(3)
C2 C 0.5531(3) 0.06271(8) 0.3120(2)
C3 C 0.1640(3) 0.19618(7) 0.6006(2)
C4 C 0.1235(3) 0.16445(8) 0.8323(2)
H1 H 0.1178(49) 0.1079(13) 0.4452(47)
H2 H 0.1876(48) 0.1685(12) 0.2866(43)
H3 H 0.5845(50) 0.1604(12) 0.4464(43)
H4 H 0.5254(58) 0.1015(15) 0.6342(55)
H5 H 0.0164(42) 0.2213(11) 0.5454(41)
H6 H 0.2878(52) 0.2287(13) 0.6141(44)
O1B O -0.3698(2) -0.02633(7) -0.2333(2)
O2B O -0.7847(2) -0.05637(7) -0.2792(2)
O3B O -0.1586(3) -0.20272(6) -1.0042(2)
O4B O -0.0523(3) -0.10402(6) -0.8286(2)
N1B N -0.2226(2) -0.14303(6) -0.4328(2)
C1B C -0.4953(3) -0.12037(9) -0.4724(3)
C2B C -0.5531(3) -0.06271(8) -0.3120(2)
C3B C -0.1640(3) -0.19618(7) -0.6006(2)
C4B C -0.1235(3) -0.16445(8) -0.8323(2)
H1B H -0.1178(49) -0.1079(13) -0.4452(47)
H2B H -0.1876(48) -0.1685(12) -0.2866(43)
H3B H -0.5845(50) -0.1604(12) -0.4464(43)
H4B H -0.5254(58) -0.1015(15) -0.6342(55)
H5B H -0.0164(42) -0.2213(11) -0.5454(41)
H6B H -0.2878(52) -0.2287(13) -0.6141(44)
O2_2 O -0.2153(2) 0.05637(7) 0.2792(2)
O2B_2 O 0.2153(2) -0.05637(7) -0.2792(2)
O4_2 O 0.0523(3) 0.10402(6) -0.1714(2)
O4B_2 O -0.0523(3) -0.10402(6) 0.1714(2)
Ca1_2 Ca 1.0000 0.0000 0.0000
Ca1_3 Ca 0.0000 0.0000 1.0000
Ca1_4 Ca -1.0000 0.0000 0.0000
Ca1_5 Ca 0.0000 0.0000 -1.0000
loop_
_geom_bond_atom_site_label_1
_geom_bond_atom_site_label_2
_geom_bond_site_symmetry_1
_geom_bond_site_symmetry_2
Ca1 O1 1_555 1_555
O1 C2 1_555 1_555
O2 C2 1_555 1_555
O3 C4 1_555 1_555
O4 C4 1_555 1_555
N1 C1 1_555 1_555
C1 C2 1_555 1_555
C3 N1 1_555 1_555
C4 C3 1_555 1_555
H1 N1 1_555 1_555
H2 N1 1_555 1_555
H3 C1 1_555 1_555
H4 C1 1_555 1_555
H5 C3 1_555 1_555
H6 C3 1_555 1_555
O1B Ca1 1_555 1_555
O2B C2B 1_555 1_555
O3B C4B 1_555 1_555
O4B C4B 1_555 1_555
N1B C1B 1_555 1_555
C1B C2B 1_555 1_555
C2B O1B 1_555 1_555
C3B N1B 1_555 1_555
C4B C3B 1_555 1_555
H1B N1B 1_555 1_555
H2B N1B 1_555 1_555
H3B C1B 1_555 1_555
H4B C1B 1_555 1_555
H5B C3B 1_555 1_555
H6B C3B 1_555 1_555
O2_2 Ca1 1_555 1_555
O2B_2 Ca1 1_555 1_555
O4_2 Ca1 1_555 1_555
O4B_2 Ca1 1_555 1_555
Ca1_2 O2 1_555 1_555
Ca1_3 O4 1_555 1_555
Ca1_4 O2B 1_555 1_555
Ca1_5 O4B 1_555 1_555

#END
