
#######################################################################
#
#                 Cambridge Crystallographic Data Centre
#                                CCDC 
#
#######################################################################
#
# If this CIF has been generated from an entry in the Cambridge 
# Structural Database, then it will include bibliographic, chemical, 
# crystal, experimental, refinement or atomic coordinate data resulting 
# from the CCDC's data processing and validation procedures.
#
#######################################################################

data_AZAWAZ
_symmetry_cell_setting           triclinic
_symmetry_space_group_name_H-M   'P -1'
_symmetry_Int_Tables_number      2
_space_group_name_Hall           '-P 1'
loop_
_symmetry_equiv_pos_site_id
_symmetry_equiv_pos_as_xyz
1 x,y,z
2 -x,-y,-z
_cell_length_a                   5.585(1)
_cell_length_b                   11.359(4)
_cell_length_c                   14.624(5)
_cell_angle_alpha                98.03(3)
_cell_angle_beta                 99.00(2)
_cell_angle_gamma                103.86(3)
_cell_volume                     874.33
loop_
_atom_site_label
_atom_site_type_symbol
_atom_site_fract_x
_atom_site_fract_y
_atom_site_fract_z
U1 U 0.2610(2) 0.20118(7) 0.42509(5)
U2 U -0.5404(1) 0.24486(6) 0.07682(4)
O1 O 0.067(2) 0.339(1) 0.346(1)
O2 O -0.291(3) 0.119(1) 0.159(1)
O3 O -0.767(3) 0.035(1) 0.0949(9)
O4 O -0.364(3) 0.207(1) -0.0052(9)
O5 O -0.287(2) 0.458(1) 0.0806(9)
O6 O -0.010(3) 0.103(1) 0.280(1)
O7 O -0.200(3) 0.357(1) 0.2228(9)
O8 O -1.093(3) -0.129(1) 0.0478(9)
O9 O -0.725(2) 0.288(1) 0.1545(9)
O10 O 0.511(3) 0.146(3) 0.5568(9)
O11 O -0.263(3) 0.635(1) 0.029(1)
O12 O 0.689(3) 0.006(1) 0.6093(9)
O13 O 0.005(3) 0.158(2) 0.478(1)
O14 O 0.517(3) 0.246(1) 0.375(1)
C1 C -0.954(4) -0.025(2) 0.042(1)
C2 C -0.087(4) 0.299(2) 0.271(1)
C3 C -0.139(4) 0.162(2) 0.233(1)
C4 C -0.377(3) 0.527(1) 0.031(1)
C5 C 0.558(4) 0.043(2) 0.546(1)
O19 O 0.433(4) 0.388(2) 0.533(1)
C1A C -1.046(4) 0.025(2) -0.042(1)
O3A O -1.233(3) -0.035(1) -0.0949(9)
O8A O -0.907(3) 0.129(1) -0.0478(9)
C4A C -0.623(3) 0.473(1) -0.031(1)
O5A O -0.713(2) 0.542(1) -0.0806(9)
O11A O -0.737(3) 0.365(1) -0.029(1)
C5A C 0.442(4) -0.043(2) 0.454(1)
O10A O 0.489(3) -0.146(3) 0.4432(9)
O12A O 0.311(3) -0.006(1) 0.3907(9)
U1A U 0.7390(2) -0.20118(7) 0.57491(5)
O1A O 0.933(2) -0.339(1) 0.654(1)
O2A O 1.291(3) -0.119(1) 0.841(1)
O6A O 1.010(3) -0.103(1) 0.720(1)
O7A O 1.200(3) -0.357(1) 0.7772(9)
C2A C 1.087(4) -0.299(2) 0.729(1)
C3A C 1.139(4) -0.162(2) 0.767(1)
O13A O 0.995(3) -0.158(2) 0.522(1)
O14A O 0.483(3) -0.246(1) 0.625(1)
O19A O 0.567(4) -0.388(2) 0.467(1)
U2A U 1.5404(1) -0.24486(6) 0.92318(4)
O4A O 1.364(3) -0.207(1) 1.0052(9)
O9A O 1.725(2) -0.288(1) 0.8455(9)
U2A_2 U -1.4596(1) -0.24486(6) -0.07682(4)
U2A_3 U -0.4596(1) 0.75514(6) -0.07682(4)
O3A_2 O 1.767(3) -0.035(1) 0.9051(9)
O5A_2 O 1.287(2) -0.458(1) 0.9194(9)
O8_2 O 1.907(3) -0.129(1) 1.0478(9)
O11_2 O 1.737(3) -0.365(1) 1.029(1)
Na1 Na -1.118(2) 0.2522(8) -0.1343(6)
O15 O -1.492(3) 0.114(1) -0.221(1)
O16 O -0.087(4) -0.207(2) 0.262(1)
O17 O 0.232(4) 0.572(2) 0.164(2)
O18 O -0.329(5) 0.571(2) 0.300(1)
loop_
_geom_bond_atom_site_label_1
_geom_bond_atom_site_label_2
_geom_bond_site_symmetry_1
_geom_bond_site_symmetry_2
U1 O1 1_555 1_555
U2 O2 1_555 1_555
O1 C2 1_555 1_555
O2 C3 1_555 1_555
O3 U2 1_555 1_555
O4 U2 1_555 1_555
O5 U2 1_555 1_555
O6 U1 1_555 1_555
O7 U2 1_555 1_555
O8 C1 1_555 1_555
O9 U2 1_555 1_555
O10 U1 1_555 1_555
O11 C4 1_555 1_555
O12 C5 1_555 1_555
O13 U1 1_555 1_555
O14 U1 1_555 1_555
C1 O3 1_555 1_555
C2 O7 1_555 1_555
C3 O6 1_555 1_555
C4 O5 1_555 1_555
C5 O10 1_555 1_555
O19 U1 1_555 1_555
C1A C1 1_555 1_555
O3A C1A 1_555 1_555
O8A U2 1_555 1_555
C4A C4 1_555 1_555
O5A C4A 1_555 1_555
O11A U2 1_555 1_555
C5A C5 1_555 1_555
O10A C5A 1_555 1_555
O12A U1 1_555 1_555
U1A O12 1_555 1_555
O1A U1A 1_555 1_555
O2A C3A 1_555 1_555
O6A U1A 1_555 1_555
O7A C2A 1_555 1_555
C2A O1A 1_555 1_555
C3A O6A 1_555 1_555
O13A U1A 1_555 1_555
O14A U1A 1_555 1_555
O19A U1A 1_555 1_555
U2A O2A 1_555 1_555
O4A U2A 1_555 1_555
O9A U2A 1_555 1_555
U2A_2 O8 1_555 1_555
U2A_3 O11 1_555 1_555
O3A_2 U2A 1_555 1_555
O5A_2 U2A 1_555 1_555
O8_2 U2A 1_555 1_555
O11_2 U2A 1_555 1_555
C2 C3 1_555 1_555
C1A O8A 1_555 1_555
O3A U2A_2 1_555 1_555
C4A O11A 1_555 1_555
O5A U2A_3 1_555 1_555
C5A O12A 1_555 1_555
O10A U1A 1_555 1_555
O7A U2A 1_555 1_555
C2A C3A 1_555 1_555

#END
