
#######################################################################
#
#                 Cambridge Crystallographic Data Centre
#                                CCDC 
#
#######################################################################
#
# If this CIF has been generated from an entry in the Cambridge 
# Structural Database, then it will include bibliographic, chemical, 
# crystal, experimental, refinement or atomic coordinate data resulting 
# from the CCDC's data processing and validation procedures.
#
#######################################################################

data_AZEKIZ
_symmetry_cell_setting           triclinic
_symmetry_space_group_name_H-M   'P -1'
_symmetry_Int_Tables_number      2
_space_group_name_Hall           '-P 1'
loop_
_symmetry_equiv_pos_site_id
_symmetry_equiv_pos_as_xyz
1 x,y,z
2 -x,-y,-z
_cell_length_a                   5.987(1)
_cell_length_b                   7.747(1)
_cell_length_c                   19.216(4)
_cell_angle_alpha                87.56(2)
_cell_angle_beta                 85.07(2)
_cell_angle_gamma                89.95(1)
_cell_volume                     887.157
loop_
_atom_site_label
_atom_site_type_symbol
_atom_site_fract_x
_atom_site_fract_y
_atom_site_fract_z
Na1 Na -0.1178(1) 0.1697(1) 0.52727(5)
P1 P -0.65064(8) -0.07225(6) 0.60197(2)
O1 O -0.3973(2) -0.0115(2) 0.60225(8)
O2 O -0.6463(2) -0.2457(2) 0.5682(1)
O3 O -0.7807(2) 0.0643(2) 0.56599(8)
C1 C -0.7540(4) -0.0971(3) 0.6918(1)
C2 C -0.9401(4) -0.0203(3) 0.7171(1)
C3 C -1.0430(4) -0.0329(3) 0.7901(1)
C4 C -0.9390(4) -0.1173(4) 0.8440(1)
C5 C -1.0374(5) -0.1194(5) 0.9119(1)
C6 C -1.2410(5) -0.0394(5) 0.9265(1)
C7 C -1.3480(5) 0.0435(5) 0.8738(2)
C8 C -1.2487(5) 0.0475(4) 0.8057(1)
H1 H -0.306(4) -0.116(3) 0.594(2)
H2 H -0.674(5) -0.180(4) 0.718(1)
H3 H -1.013(4) 0.057(3) 0.686(1)
H4 H -0.798(3) -0.168(3) 0.837(1)
H5 H -0.970(3) -0.182(3) 0.948(1)
H6 H -1.306(4) -0.041(4) 0.973(1)
H7 H -1.484(3) 0.101(4) 0.884(1)
H8 H -1.315(4) 0.110(3) 0.769(1)
Na2 Na -0.3821(1) -0.3244(1) 0.47276(4)
P2 P 0.14955(8) 0.44769(6) 0.39885(2)
O4 O -0.1041(2) 0.5082(2) 0.39835(8)
O5 O 0.1461(2) 0.2672(2) 0.4323(1)
O6 O 0.2794(2) 0.5770(2) 0.43501(8)
C9 C 0.2531(4) 0.4427(3) 0.3090(1)
C10 C 0.4394(4) 0.5254(3) 0.2844(1)
C11 C 0.5443(4) 0.5269(3) 0.2119(1)
C12 C 0.4495(4) 0.4468(4) 0.1581(1)
C13 C 0.5530(5) 0.4556(5) 0.0907(1)
C14 C 0.7515(5) 0.5458(5) 0.0766(1)
C15 C 0.8509(5) 0.6228(5) 0.1293(2)
C16 C 0.7487(5) 0.6136(4) 0.1971(1)
H9 H -0.198(4) 0.405(3) 0.407(1)
H10 H 0.163(5) 0.378(4) 0.281(1)
H11 H 0.514(4) 0.597(3) 0.314(1)
H12 H 0.312(2) 0.387(3) 0.165(1)
H13 H 0.494(3) 0.395(3) 0.055(1)
H14 H 0.822(3) 0.553(4) 0.031(1)
H15 H 0.980(3) 0.691(3) 0.120(1)
H16 H 0.811(4) 0.675(3) 0.232(1)
O2A O -0.3537(2) 0.2457(2) 0.4318(1)
O3_2 O 0.2193(2) 0.0643(2) 0.56599(8)
O6A O -0.2794(2) 0.4230(2) 0.56499(8)
Na1A Na -0.8822(1) -0.1697(1) 0.47273(5)
Na1_2 Na -1.1178(1) 0.1697(1) 0.52727(5)
Na2A Na -0.6179(1) 0.3244(1) 0.52724(4)
O3A O -0.2193(2) -0.0643(2) 0.43401(8)
O4_2 O -0.1041(2) -0.4918(2) 0.39835(8)
O5A O -0.1461(2) -0.2672(2) 0.5677(1)
O6_2 O -0.7206(2) -0.4230(2) 0.43501(8)
Na2_2 Na -0.3821(1) 0.6756(1) 0.47276(4)
Na2A_2 Na 0.3821(1) 0.3244(1) 0.52724(4)
Na1A_2 Na 0.1178(1) 0.8303(1) 0.47273(5)
Na2_3 Na 0.6179(1) 0.6756(1) 0.47276(4)
H9_2 H -0.198(4) -0.595(3) 0.407(1)
loop_
_geom_bond_atom_site_label_1
_geom_bond_atom_site_label_2
_geom_bond_site_symmetry_1
_geom_bond_site_symmetry_2
Na1 O1 1_555 1_555
P1 O1 1_555 1_555
O1 H1 1_555 1_555
O2 P1 1_555 1_555
O3 P1 1_555 1_555
C1 P1 1_555 1_555
C2 C1 1_555 1_555
C3 C2 1_555 1_555
C4 C3 1_555 1_555
C5 C4 1_555 1_555
C6 C5 1_555 1_555
C7 C6 1_555 1_555
C8 C3 1_555 1_555
H2 C1 1_555 1_555
H3 C2 1_555 1_555
H4 C4 1_555 1_555
H5 C5 1_555 1_555
H6 C6 1_555 1_555
H7 C7 1_555 1_555
H8 C8 1_555 1_555
Na2 O2 1_555 1_555
P2 O4 1_555 1_555
O4 H9 1_555 1_555
O5 Na1 1_555 1_555
O6 P2 1_555 1_555
C9 P2 1_555 1_555
C10 C9 1_555 1_555
C11 C10 1_555 1_555
C12 C11 1_555 1_555
C13 C12 1_555 1_555
C14 C13 1_555 1_555
C15 C14 1_555 1_555
C16 C11 1_555 1_555
H10 C9 1_555 1_555
H11 C10 1_555 1_555
H12 C12 1_555 1_555
H13 C13 1_555 1_555
H14 C14 1_555 1_555
H15 C15 1_555 1_555
H16 C16 1_555 1_555
O2A Na1 1_555 1_555
O3_2 Na1 1_555 1_555
O6A Na1 1_555 1_555
Na1A O2 1_555 1_555
Na1_2 O3 1_555 1_555
Na2A O3 1_555 1_555
O3A Na2 1_555 1_555
O4_2 Na2 1_555 1_555
O5A Na2 1_555 1_555
O6_2 Na2 1_555 1_555
Na2_2 O4 1_555 1_555
Na2A_2 O5 1_555 1_555
Na1A_2 O6 1_555 1_555
Na2_3 O6 1_555 1_555
H9_2 O4_2 1_555 1_555
C7 C8 1_555 1_555
P2 O5 1_555 1_555
C15 C16 1_555 1_555
O2A Na2A 1_555 1_555
O3_2 Na2A_2 1_555 1_555
O6A Na2A 1_555 1_555
Na1A O6_2 1_555 1_555

#END
