
#######################################################################
#
#                 Cambridge Crystallographic Data Centre
#                                CCDC 
#
#######################################################################
#
# If this CIF has been generated from an entry in the Cambridge 
# Structural Database, then it will include bibliographic, chemical, 
# crystal, experimental, refinement or atomic coordinate data resulting 
# from the CCDC's data processing and validation procedures.
#
#######################################################################

data_AZEMAU01
_symmetry_cell_setting           monoclinic
_symmetry_space_group_name_H-M   'P 21/n'
_symmetry_Int_Tables_number      14
_space_group_name_Hall           '-P 2yn'
loop_
_symmetry_equiv_pos_site_id
_symmetry_equiv_pos_as_xyz
1 x,y,z
2 1/2-x,1/2+y,1/2-z
3 -x,-y,-z
4 1/2+x,1/2-y,1/2+z
_cell_length_a                   11.037(5)
_cell_length_b                   16.559(5)
_cell_length_c                   13.018(5)
_cell_angle_alpha                90
_cell_angle_beta                 95.524(5)
_cell_angle_gamma                90
_cell_volume                     2368.14
loop_
_atom_site_label
_atom_site_type_symbol
_atom_site_fract_x
_atom_site_fract_y
_atom_site_fract_z
C1 C -0.8932(4) 0.1316(3) -0.3089(4)
C2 C -0.8028(3) 0.0861(3) -0.3650(3)
H1 H -0.8380 0.0349 -0.3886
H2 H -0.7850 0.1168 -0.4252
C3 C -0.6837(3) 0.0054(2) -0.2392(3)
C4 C -0.5719(3) -0.0025(2) -0.1784(3)
C5 C -0.5496(4) -0.0695(2) -0.1176(3)
H3 H -0.4754 -0.0749 -0.0779
C6 C -0.6370(4) -0.1291(3) -0.1150(4)
H4 H -0.6215 -0.1746 -0.0739
C7 C -0.7462(4) -0.1210(3) -0.1729(4)
H5 H -0.8050 -0.1610 -0.1708
C8 C -0.7702(3) -0.0542(3) -0.2344(3)
H6 H -0.8452 -0.0493 -0.2731
C9 C -0.3668(3) 0.0425(2) -0.1641(3)
H7 H -0.3442 -0.0025 -0.2060
H8 H -0.3497 0.0279 -0.0920
C10 C -0.2951(3) 0.1165(2) -0.1876(3)
C11 C -0.0920(4) 0.2540(3) -0.0282(3)
H9 H -0.1526 0.2183 -0.0125
C12 C 0.0344(3) 0.3181(2) -0.1109(3)
H10 H 0.0794 0.3360 -0.1634
C13 C -0.0329(4) 0.3057(3) 0.0389(3)
H11 H -0.0447 0.3122 0.1081
C14 C 0.1226(3) 0.4155(2) 0.0219(3)
H12 H 0.1758 0.4305 -0.0301
H13 H 0.1732 0.4002 0.0839
C15 C 0.0443(4) 0.4872(2) 0.0450(3)
H14 H -0.0011 0.4738 0.1029
H15 H 0.0970 0.5324 0.0655
C16 C -0.2757(4) 0.3244(2) -0.3251(3)
H16 H -0.2983 0.3316 -0.2588
C17 C -0.2686(4) 0.3367(3) -0.4900(3)
H17 H -0.2843 0.3529 -0.5584
C18 C -0.1856(4) 0.2820(2) -0.4525(3)
H18 H -0.1328 0.2541 -0.4913
C19 C -0.4284(3) 0.4202(2) -0.4079(3)
H19 H -0.4156 0.4549 -0.3477
H20 H -0.5021 0.3895 -0.4019
C20 C -0.4459(3) 0.4717(2) -0.5020(3)
H21 H -0.4590 0.4375 -0.5625
H22 H -0.3729 0.5032 -0.5081
N1 N 0.0476(3) 0.34650(18) -0.0150(2)
N2 N -0.3250(3) 0.36381(17) -0.4078(2)
N3 N -0.0495(3) 0.26192(17) -0.1228(2)
N4 N -0.1910(3) 0.27371(18) -0.3491(2)
O1 O -0.9935(3) 0.1429(2) -0.3534(3)
O2 O -0.8626(5) 0.1582(3) -0.2236(3)
O3 O -0.6929(2) 0.0715(2) -0.3020(2)
O4 O -0.4918(2) 0.06008(15) -0.1862(2)
O5 O -0.3389(2) 0.18361(17) -0.1834(3)
O6 O -0.1863(2) 0.10241(15) -0.2083(2)
Zn1 Zn -0.09825(3) 0.19853(2) -0.25039(3)
C1_2 C 0.1068(4) 0.1316(3) -0.3089(4)
C2_2 C 0.1972(3) 0.0861(3) -0.3650(3)
H1_2 H 0.1620 0.0349 -0.3886
H2_2 H 0.2150 0.1168 -0.4252
C3_2 C 0.3163(3) 0.0054(2) -0.2392(3)
C4_2 C 0.4281(3) -0.0025(2) -0.1784(3)
C5_2 C 0.4504(4) -0.0695(2) -0.1176(3)
H3_2 H 0.5246 -0.0749 -0.0779
C6_2 C 0.3630(4) -0.1291(3) -0.1150(4)
H4_2 H 0.3785 -0.1746 -0.0739
C7_2 C 0.2538(4) -0.1210(3) -0.1729(4)
H5_2 H 0.1950 -0.1610 -0.1708
C8_2 C 0.2298(3) -0.0542(3) -0.2344(3)
H6_2 H 0.1548 -0.0493 -0.2731
C9_2 C 0.6332(3) 0.0425(2) -0.1641(3)
H7_2 H 0.6558 -0.0025 -0.2060
H8_2 H 0.6503 0.0279 -0.0920
C10_2 C 0.7049(3) 0.1165(2) -0.1876(3)
C11B C 0.0920(4) 0.7460(3) 0.0282(3)
H9B H 0.1526 0.7817 0.0125
C12B C -0.0344(3) 0.6819(2) 0.1109(3)
H10B H -0.0794 0.6640 0.1634
C13B C 0.0329(4) 0.6943(3) -0.0389(3)
H11B H 0.0447 0.6878 -0.1081
C14B C -0.1226(3) 0.5845(2) -0.0219(3)
H12B H -0.1758 0.5695 0.0301
H13B H -0.1732 0.5998 -0.0839
C15B C -0.0443(4) 0.5128(2) -0.0450(3)
H14B H 0.0011 0.5262 -0.1029
H15B H -0.0970 0.4676 -0.0655
C16B C -0.7243(4) 0.6756(2) -0.6749(3)
H16B H -0.7017 0.6684 -0.7412
C17B C -0.7314(4) 0.6633(3) -0.5100(3)
H17B H -0.7157 0.6471 -0.4416
C18B C -0.8144(4) 0.7180(2) -0.5475(3)
H18B H -0.8672 0.7459 -0.5087
C19B C -0.5716(3) 0.5798(2) -0.5921(3)
H19B H -0.5844 0.5451 -0.6523
H20B H -0.4979 0.6105 -0.5981
C20B C -0.5541(3) 0.5283(2) -0.4980(3)
H21B H -0.5410 0.5625 -0.4375
H22B H -0.6271 0.4968 -0.4919
N1B N -0.0476(3) 0.65350(18) 0.0150(2)
N2B N -0.6750(3) 0.63619(17) -0.5922(2)
N3B N 0.0495(3) 0.73808(17) 0.1228(2)
N4B N -0.8090(3) 0.72629(18) -0.6509(2)
N4B_2 N 0.1910(3) 0.72629(18) 0.3491(2)
O1_2 O 0.0065(3) 0.1429(2) -0.3534(3)
O1B O -0.0065(3) 0.8571(2) 0.3534(3)
O2_2 O 0.1374(5) 0.1582(3) -0.2236(3)
O3_2 O 0.3071(2) 0.0715(2) -0.3020(2)
O4_2 O 0.5082(2) 0.06008(15) -0.1862(2)
O5_2 O 0.6611(2) 0.18361(17) -0.1834(3)
O6_2 O 0.8137(2) 0.10241(15) -0.2083(2)
O6B O 0.1863(2) 0.89759(15) 0.2083(2)
Zn1B Zn 0.09825(3) 0.80147(2) 0.25039(3)
Zn1_2 Zn -1.09825(3) 0.19853(2) -0.25039(3)
Zn1B_2 Zn -0.90175(3) 0.80147(2) -0.74961(3)
Zn1_3 Zn 0.90175(3) 0.19853(2) -0.25039(3)
O7 O -1.5776(3) 0.2410(2) -0.1893(3)
H23 H -1.6333 0.2064 -0.2026
H24 H -1.5118 0.2142 -0.1800
O8 O -1.1676(4) 0.9607(2) -0.3556(3)
H25 H -1.0995 0.9419 -0.3717
H26 H -1.1494 1.0064 -0.3285
O9 O -1.0370(4) 0.1130(3) -0.5724(3)
H27 H -1.0211 0.1272 -0.5092
H28 H -0.9945 0.1453 -0.6060
loop_
_geom_bond_atom_site_label_1
_geom_bond_atom_site_label_2
_geom_bond_site_symmetry_1
_geom_bond_site_symmetry_2
C1 C2 1_555 1_555
C2 H1 1_555 1_555
H2 C2 1_555 1_555
C3 C4 1_555 1_555
C4 C5 1_555 1_555
C5 H3 1_555 1_555
C6 C5 1_555 1_555
H4 C6 1_555 1_555
C7 C6 1_555 1_555
H5 C7 1_555 1_555
C8 C3 1_555 1_555
H6 C8 1_555 1_555
C9 H7 1_555 1_555
H8 C9 1_555 1_555
C10 C9 1_555 1_555
C11 H9 1_555 1_555
C12 H10 1_555 1_555
C13 C11 1_555 1_555
H11 C13 1_555 1_555
C14 H12 1_555 1_555
H13 C14 1_555 1_555
C15 C14 1_555 1_555
H14 C15 1_555 1_555
H15 C15 1_555 1_555
C16 H16 1_555 1_555
C17 H17 1_555 1_555
C18 C17 1_555 1_555
H18 C18 1_555 1_555
C19 H19 1_555 1_555
H20 C19 1_555 1_555
C20 C19 1_555 1_555
H21 C20 1_555 1_555
H22 C20 1_555 1_555
N1 C12 1_555 1_555
N2 C16 1_555 1_555
N3 C11 1_555 1_555
N4 C16 1_555 1_555
O1 C1 1_555 1_555
O2 C1 1_555 1_555
O3 C2 1_555 1_555
O4 C4 1_555 1_555
O5 C10 1_555 1_555
O6 C10 1_555 1_555
O7 H23 1_555 1_555
H24 O7 1_555 1_555
O8 H25 1_555 1_555
H26 O8 1_555 1_555
O9 H27 1_555 1_555
H28 O9 1_555 1_555
Zn1 N3 1_555 1_555
C1_2 C2_2 1_555 1_555
C2_2 H1_2 1_555 1_555
H2_2 C2_2 1_555 1_555
C3_2 C4_2 1_555 1_555
C4_2 C5_2 1_555 1_555
C5_2 H3_2 1_555 1_555
C6_2 C5_2 1_555 1_555
H4_2 C6_2 1_555 1_555
C7_2 C6_2 1_555 1_555
H5_2 C7_2 1_555 1_555
C8_2 C3_2 1_555 1_555
H6_2 C8_2 1_555 1_555
C9_2 H7_2 1_555 1_555
H8_2 C9_2 1_555 1_555
C10_2 C9_2 1_555 1_555
C11B H9B 1_555 1_555
C12B H10B 1_555 1_555
C13B C11B 1_555 1_555
H11B C13B 1_555 1_555
C14B H12B 1_555 1_555
H13B C14B 1_555 1_555
C15B C15 1_555 1_555
H14B C15B 1_555 1_555
H15B C15B 1_555 1_555
C16B H16B 1_555 1_555
C17B H17B 1_555 1_555
C18B C17B 1_555 1_555
H18B C18B 1_555 1_555
C19B H19B 1_555 1_555
H20B C19B 1_555 1_555
C20B C20 1_555 1_555
H21B C20B 1_555 1_555
H22B C20B 1_555 1_555
N1B C12B 1_555 1_555
N2B C16B 1_555 1_555
N3B C11B 1_555 1_555
N4B C16B 1_555 1_555
N4B_2 Zn1B 1_555 1_555
O1_2 Zn1 1_555 1_555
O1B Zn1B 1_555 1_555
O2_2 C1_2 1_555 1_555
O3_2 C2_2 1_555 1_555
O4_2 C4_2 1_555 1_555
O5_2 C10_2 1_555 1_555
O6_2 C10_2 1_555 1_555
O6B Zn1B 1_555 1_555
Zn1B N3B 1_555 1_555
Zn1_2 O1 1_555 1_555
Zn1B_2 N4B 1_555 1_555
Zn1_3 O6_2 1_555 1_555
C3 O3 1_555 1_555
C7 C8 1_555 1_555
C9 O4 1_555 1_555
C12 N3 1_555 1_555
C13 N1 1_555 1_555
C14 N1 1_555 1_555
C17 N2 1_555 1_555
C18 N4 1_555 1_555
C19 N2 1_555 1_555
N4 Zn1 1_555 1_555
O6 Zn1 1_555 1_555
C1_2 O1_2 1_555 1_555
C3_2 O3_2 1_555 1_555
C7_2 C8_2 1_555 1_555
C9_2 O4_2 1_555 1_555
C12B N3B 1_555 1_555
C13B N1B 1_555 1_555
C14B C15B 1_555 1_555
C14B N1B 1_555 1_555
C17B N2B 1_555 1_555
C18B N4B 1_555 1_555
C19B C20B 1_555 1_555
C19B N2B 1_555 1_555

#END
