
#######################################################################
#
#                 Cambridge Crystallographic Data Centre
#                                CCDC 
#
#######################################################################
#
# If this CIF has been generated from an entry in the Cambridge 
# Structural Database, then it will include bibliographic, chemical, 
# crystal, experimental, refinement or atomic coordinate data resulting 
# from the CCDC's data processing and validation procedures.
#
#######################################################################

data_AZEXIM
_symmetry_cell_setting           triclinic
_symmetry_space_group_name_H-M   'P -1'
_symmetry_Int_Tables_number      2
_space_group_name_Hall           '-P 1'
loop_
_symmetry_equiv_pos_site_id
_symmetry_equiv_pos_as_xyz
1 x,y,z
2 -x,-y,-z
_cell_length_a                   11.248(11)
_cell_length_b                   13.72(3)
_cell_length_c                   17.30(2)
_cell_angle_alpha                71.56(15)
_cell_angle_beta                 83.08(11)
_cell_angle_gamma                68.62(15)
_cell_volume                     2358.37
loop_
_atom_site_label
_atom_site_type_symbol
_atom_site_fract_x
_atom_site_fract_y
_atom_site_fract_z
Pb1 Pb 0.62138(2) 0.68477(2) 1.142911(14)
O4 O 0.8317(5) 0.4838(4) 1.1765(3)
O5 O 0.6726(5) 0.4979(4) 1.1109(3)
O6 O 0.7901(6) 0.3400(4) 1.1834(4)
O10 O 0.4479(4) 1.0136(4) 1.1571(3)
O11 O 0.5833(5) 0.8989(5) 1.0978(3)
O12 O 0.4277(5) 0.8582(4) 1.1687(3)
O13 O 0.4405(6) 0.6046(5) 1.2226(4)
N2 N 0.7646(6) 0.4402(5) 1.1573(4)
N4 N 0.4865(5) 0.9249(5) 1.1405(3)
N5 N 0.2610(7) 0.6181(6) 1.2992(4)
N7 N 0.8544(5) 0.8062(5) 0.9136(3)
N8 N 0.7794(5) 0.7200(5) 1.0273(3)
N9 N 1.3670(5) 0.8198(5) 0.9179(3)
N10 N 1.4777(5) 0.7331(4) 1.0313(3)
C1 C 0.9516(6) 0.9504(6) 0.8547(4)
C2 C 1.0819(6) 0.9095(5) 0.8418(4)
H1 H 1.1172 0.8473 0.8223
C3 C 1.1621(6) 0.9581(6) 0.8570(4)
C4 C 1.1090(6) 1.0511(6) 0.8825(4)
H2 H 1.1635 1.0855 0.8916
C5 C 0.9777(7) 1.0959(7) 0.8954(4)
C6 C 0.9008(6) 1.0426(6) 0.8821(4)
H3 H 0.8115 1.0700 0.8919
C7 C 0.8663(7) 0.8935(6) 0.8409(4)
H4 H 0.7804 0.9483 0.8246
H5 H 0.9018 0.8617 0.7954
C8 C 0.7627(6) 0.8150(6) 0.9715(4)
H6 H 0.6949 0.8811 0.9719
C9 C 0.8873(7) 0.6469(7) 1.0056(5)
H7 H 0.9240 0.5716 1.0350
C10 C 0.9330(7) 0.6988(7) 0.9362(5)
H8 H 1.0071 0.6668 0.9076
C11 C 1.3043(6) 0.9091(6) 0.8455(4)
H9 H 1.3210 0.8803 0.7980
H10 H 1.3420 0.9672 0.8336
C12 C 1.4299(5) 0.8286(6) 0.9750(4)
H11 H 1.4391 0.8947 0.9751
C13 C 1.4406(6) 0.6604(6) 1.0082(4)
H12 H 1.4598 0.5849 1.0371
C14 C 1.3733(6) 0.7130(6) 0.9386(4)
H13 H 1.3373 0.6822 0.9096
C15 C 0.9227(8) 1.1959(7) 0.9237(5)
H14 H 0.9544 1.1795 0.9784
H15 H 0.8294 1.2185 0.9253
H16 H 0.9483 1.2552 0.8860
C16 C 0.3365(8) 0.6591(8) 1.2432(5)
H17 H 0.3073 0.7360 1.2178
C17 C 0.3029(11) 0.5009(9) 1.3428(7)
H18 H 0.3908 0.4652 1.3268
H19 H 0.2469 0.4683 1.3291
H20 H 0.2991 0.4905 1.4016
C18 C 0.1385(9) 0.6863(10) 1.3205(7)
H21 H 0.1351 0.6765 1.3793
H22 H 0.0713 0.6658 1.3059
H23 H 0.1255 0.7632 1.2908
N10_2 N 0.4777(5) 0.7331(4) 1.0313(3)
Pb1_2 Pb 1.62138(2) 0.68477(2) 1.142911(14)
Pb2 Pb 1.09816(2) 0.67578(2) 0.652515(14)
O1 O 1.0668(7) 0.4770(5) 0.6818(4)
O2 O 1.2687(8) 0.4402(8) 0.6675(5)
O3 O 1.1971(9) 0.3190(6) 0.7438(5)
O7 O 0.9736(5) 0.8809(5) 0.6072(4)
O8 O 1.1464(5) 0.8631(6) 0.6599(4)
O9 O 0.9876(6) 1.0158(5) 0.6399(4)
O14 O 0.8806(5) 0.6991(5) 0.7308(3)
N1 N 1.1781(9) 0.4114(7) 0.6977(5)
N3 N 1.0345(6) 0.9222(6) 0.6343(4)
N6 N 0.7521(6) 0.6258(6) 0.8210(4)
N11 N 0.8530(5) 0.7854(5) 0.4264(3)
N12 N 0.9624(5) 0.7068(5) 0.5404(3)
N13 N 0.3288(5) 0.7986(6) 0.4206(4)
N14 N 0.2533(6) 0.7110(6) 0.5331(4)
C19 C 0.8589(8) 0.6196(8) 0.7792(5)
H24 H 0.9234 0.5495 0.7869
C20 C 0.6500(8) 0.7289(8) 0.8127(6)
H25 H 0.6715 0.7865 0.7697
H26 H 0.6377 0.7467 0.8644
H27 H 0.5711 0.7239 0.7984
C21 C 0.7332(10) 0.5289(9) 0.8773(7)
H28 H 0.8081 0.4643 0.8759
H29 H 0.6573 0.5209 0.8615
H30 H 0.7215 0.5361 0.9325
C22 C 0.6533(6) 0.9277(6) 0.3618(4)
C23 C 0.5632(7) 0.8852(7) 0.3495(4)
H31 H 0.5903 0.8210 0.3324
C24 C 0.4341(7) 0.9378(7) 0.3623(4)
C25 C 0.3953(7) 1.0320(7) 0.3841(4)
H32 H 0.3069 1.0663 0.3931
C26 C 0.4804(8) 1.0799(7) 0.3936(4)
C27 C 0.6108(7) 1.0236(7) 0.3833(4)
H33 H 0.6716 1.0527 0.3913
C28 C 0.7940(6) 0.8704(6) 0.3499(4)
H34 H 0.8056 0.8355 0.3061
H35 H 0.8376 0.9249 0.3328
C29 C 0.9197(6) 0.7980(6) 0.4805(4)
H36 H 0.9338 0.8639 0.4758
C30 C 0.9201(7) 0.6338(7) 0.5242(4)
H37 H 0.9370 0.5601 0.5570
C31 C 0.8506(7) 0.6812(6) 0.4547(4)
H38 H 0.8090 0.6488 0.4308
C32 C 0.3387(7) 0.8892(7) 0.3496(4)
H39 H 0.2537 0.9475 0.3384
H40 H 0.3648 0.8622 0.3013
C33 C 0.2411(7) 0.8050(8) 0.4797(4)
H41 H 0.1762 0.8717 0.4824
C34 C 0.3614(8) 0.6381(8) 0.5085(5)
H42 H 0.3979 0.5620 0.5357
C35 C 0.4061(8) 0.6937(9) 0.4391(6)
H43 H 0.4791 0.6637 0.4089
C36 C 0.4361(9) 1.1843(8) 0.4169(6)
H44 H 0.4857 1.2302 0.3865
H45 H 0.4483 1.1671 0.4755
H46 H 0.3454 1.2237 0.4038
N14_2 N 1.2533(6) 0.7110(6) 0.5331(4)
Pb2_2 Pb 0.09816(2) 0.67578(2) 0.652515(14)
loop_
_geom_bond_atom_site_label_1
_geom_bond_atom_site_label_2
_geom_bond_site_symmetry_1
_geom_bond_site_symmetry_2
Pb1 O5 1_555 1_555
Pb2 O1 1_555 1_555
O1 N1 1_555 1_555
O2 N1 1_555 1_555
O3 N1 1_555 1_555
O4 N2 1_555 1_555
O5 N2 1_555 1_555
O6 N2 1_555 1_555
O7 Pb2 1_555 1_555
O8 N3 1_555 1_555
O9 N3 1_555 1_555
O10 N4 1_555 1_555
O11 Pb1 1_555 1_555
O12 Pb1 1_555 1_555
O13 Pb1 1_555 1_555
O14 Pb2 1_555 1_555
N3 O7 1_555 1_555
N4 O11 1_555 1_555
N5 C16 1_555 1_555
N6 C19 1_555 1_555
N7 C7 1_555 1_555
N8 Pb1 1_555 1_555
N9 C11 1_555 1_555
N10 C12 1_555 1_555
N11 C28 1_555 1_555
N12 Pb2 1_555 1_555
N13 C32 1_555 1_555
N14 C33 1_555 1_555
C1 C2 1_555 1_555
C2 H1 1_555 1_555
C3 C2 1_555 1_555
C4 C3 1_555 1_555
H2 C4 1_555 1_555
C5 C4 1_555 1_555
C6 C1 1_555 1_555
H3 C6 1_555 1_555
C7 C1 1_555 1_555
H4 C7 1_555 1_555
H5 C7 1_555 1_555
C8 N7 1_555 1_555
H6 C8 1_555 1_555
C9 N8 1_555 1_555
H7 C9 1_555 1_555
C10 N7 1_555 1_555
H8 C10 1_555 1_555
C11 C3 1_555 1_555
H9 C11 1_555 1_555
H10 C11 1_555 1_555
C12 N9 1_555 1_555
H11 C12 1_555 1_555
C13 N10 1_555 1_555
H12 C13 1_555 1_555
C14 N9 1_555 1_555
H13 C14 1_555 1_555
C15 C5 1_555 1_555
H14 C15 1_555 1_555
H15 C15 1_555 1_555
H16 C15 1_555 1_555
C16 O13 1_555 1_555
H17 C16 1_555 1_555
C17 N5 1_555 1_555
H18 C17 1_555 1_555
H19 C17 1_555 1_555
H20 C17 1_555 1_555
C18 N5 1_555 1_555
H21 C18 1_555 1_555
H22 C18 1_555 1_555
H23 C18 1_555 1_555
C19 O14 1_555 1_555
H24 C19 1_555 1_555
C20 N6 1_555 1_555
H25 C20 1_555 1_555
H26 C20 1_555 1_555
H27 C20 1_555 1_555
C21 N6 1_555 1_555
H28 C21 1_555 1_555
H29 C21 1_555 1_555
H30 C21 1_555 1_555
C22 C23 1_555 1_555
C23 H31 1_555 1_555
C24 C23 1_555 1_555
C25 C24 1_555 1_555
H32 C25 1_555 1_555
C26 C25 1_555 1_555
C27 C22 1_555 1_555
H33 C27 1_555 1_555
C28 C22 1_555 1_555
H34 C28 1_555 1_555
H35 C28 1_555 1_555
C29 N11 1_555 1_555
H36 C29 1_555 1_555
C30 N12 1_555 1_555
H37 C30 1_555 1_555
C31 N11 1_555 1_555
H38 C31 1_555 1_555
C32 C24 1_555 1_555
H39 C32 1_555 1_555
H40 C32 1_555 1_555
C33 N13 1_555 1_555
H41 C33 1_555 1_555
C34 N14 1_555 1_555
H42 C34 1_555 1_555
C35 N13 1_555 1_555
H43 C35 1_555 1_555
C36 C26 1_555 1_555
H44 C36 1_555 1_555
H45 C36 1_555 1_555
H46 C36 1_555 1_555
N10_2 Pb1 1_555 1_555
N14_2 Pb2 1_555 1_555
Pb1_2 N10 1_555 1_555
Pb2_2 N14 1_555 1_555
O12 N4 1_555 1_555
N8 C8 1_555 1_555
N12 C29 1_555 1_555
C5 C6 1_555 1_555
C9 C10 1_555 1_555
C13 C14 1_555 1_555
C26 C27 1_555 1_555
C30 C31 1_555 1_555
C34 C35 1_555 1_555

#END
