
#######################################################################
#
#                 Cambridge Crystallographic Data Centre
#                                CCDC 
#
#######################################################################
#
# If this CIF has been generated from an entry in the Cambridge 
# Structural Database, then it will include bibliographic, chemical, 
# crystal, experimental, refinement or atomic coordinate data resulting 
# from the CCDC's data processing and validation procedures.
#
#######################################################################

data_AZEXUY
_symmetry_cell_setting           triclinic
_symmetry_space_group_name_H-M   'P -1'
_symmetry_Int_Tables_number      2
_space_group_name_Hall           '-P 1'
loop_
_symmetry_equiv_pos_site_id
_symmetry_equiv_pos_as_xyz
1 x,y,z
2 -x,-y,-z
_cell_length_a                   10.236(1)
_cell_length_b                   11.672(2)
_cell_length_c                   15.299(2)
_cell_angle_alpha                73.50(1)
_cell_angle_beta                 86.58(1)
_cell_angle_gamma                81.92(1)
_cell_volume                     1734.8
loop_
_atom_site_label
_atom_site_type_symbol
_atom_site_fract_x
_atom_site_fract_y
_atom_site_fract_z
Pb1 Pb 0.59309(3) 0.18571(3) 0.97736(2)
N1 N 0.5895(7) 0.3536(7) 0.8379(5)
N2 N 0.4910(7) 0.5016(7) 0.7270(5)
N3 N 0.3485(7) 0.2912(7) 1.0080(5)
N4 N 0.1894(7) 0.3861(7) 1.0774(5)
N5 N -0.1897(7) 0.1100(7) 1.9046(5)
N6 N -0.0579(7) -0.0030(7) 1.8351(5)
N7 N 0.7321(9) 0.3336(8) 1.0733(6)
N8 N 0.4443(11) 0.0474(10) 0.8438(7)
O1 O 0.7888(7) 0.3945(7) 1.1092(5)
O2 O 0.6141(7) 0.3485(6) 1.0690(5)
O3 O 0.7959(7) 0.2716(6) 1.0309(5)
O4 O 0.4395(8) 0.0652(7) 0.9189(5)
O5 O 0.5168(8) 0.0998(7) 0.7834(5)
O6 O 0.3765(9) -0.0233(8) 0.8285(5)
C1 C 0.6569(9) 0.3621(9) 0.7560(6)
H1 H 0.7335 0.3120 0.7490
C2 C 0.5997(9) 0.4506(8) 0.6879(6)
H2 H 0.6275 0.4728 0.6271
C3 C 0.4893(9) 0.4389(8) 0.8164(6)
H3 H 0.4241 0.4548 0.8580
C4 C 0.3858(9) 0.5908(8) 0.6816(7)
H4 H 0.3204 0.6049 0.7272
H5 H 0.3436 0.5576 0.6409
C5 C 0.4264(9) 0.7100(8) 0.6275(6)
C6 C 0.4375(9) 0.7417(9) 0.5359(7)
H6 H 0.4238 0.6861 0.5053
C7 C 0.4679(9) 0.8521(8) 0.4861(7)
H7 H 0.4767 0.8683 0.4231
C8 C 0.4857(8) 0.9398(8) 0.5263(6)
C9 C 0.4749(9) 0.9061(8) 0.6204(6)
H8 H 0.4878 0.9614 0.6514
C10 C 0.4462(9) 0.7947(8) 0.6696(6)
H9 H 0.4400 0.7762 0.7328
C11 C 0.2291(9) 0.2560(8) 0.9971(6)
H10 H 0.2163 0.2008 0.9659
C12 C 0.1333(9) 0.3149(8) 1.0391(6)
H11 H 0.0438 0.3074 1.0413
C13 C 0.3203(9) 0.3726(9) 1.0564(6)
H12 H 0.3821 0.4136 1.0729
C14 C 0.1293(9) 0.4583(8) 1.1341(6)
H13 H 0.0454 0.4999 1.1086
H14 H 0.1853 0.5188 1.1340
C15 C 0.1066(9) 0.3856(8) 1.2312(6)
C16 C -0.0147(9) 0.3738(9) 1.2688(6)
H15 H -0.0881 0.4142 1.2348
C17 C -0.0326(9) 0.3042(9) 1.3556(6)
H16 H -0.1185 0.3004 1.3788
C18 C 0.0669(8) 0.2405(8) 1.4099(6)
C19 C 0.1921(9) 0.2558(10) 1.3731(7)
H17 H 0.2657 0.2188 1.4080
C20 C 0.2080(10) 0.3268(10) 1.2837(7)
H18 H 0.2932 0.3334 1.2597
C21 C 0.0483(9) 0.1603(8) 1.5022(6)
C22 C 0.1476(10) 0.0973(9) 1.5552(6)
H19 H 0.2331 0.1057 1.5325
C23 C -0.0638(9) 0.1293(9) 1.9117(6)
H20 H -0.0377 0.1806 1.9421
C24 C 0.0182(10) 0.0611(9) 1.8669(6)
H21 H 0.1093 0.0592 1.8596
C25 C -0.1811(9) 0.0333(8) 1.8572(6)
H22 H -0.2543 0.0061 1.8403
C26 C -0.0169(10) -0.0739(8) 1.7710(6)
H23 H -0.0849 -0.1230 1.7688
H24 H 0.0632 -0.1274 1.7922
C27 C 0.0074(9) 0.0054(8) 1.6770(6)
C28 C -0.0965(10) 0.0676(9) 1.6259(7)
H25 H -0.1817 0.0591 1.6492
C29 C -0.0783(9) 0.1441(9) 1.5390(6)
H26 H -0.1515 0.1850 1.5050
C30 C 0.1322(9) 0.0204(9) 1.6417(6)
H27 H 0.2056 -0.0205 1.6754
C8A C 0.5143(8) 1.0602(8) 0.4737(6)
C7A C 0.5321(9) 1.1479(8) 0.5139(7)
C6A C 0.5625(9) 1.2583(9) 0.4641(7)
C5A C 0.5736(9) 1.2900(8) 0.3725(6)
C4A C 0.6142(9) 1.4092(8) 0.3184(7)
N2A N 0.5090(7) 1.4984(7) 0.2730(5)
C2A C 0.4003(9) 1.5494(8) 0.3121(6)
C1A C 0.3431(9) 1.6379(9) 0.2440(6)
N1A N 0.4105(7) 1.6464(7) 0.1621(5)
C3A C 0.5107(9) 1.5611(8) 0.1836(6)
H3A H 0.5759 1.5452 0.1420
H1A H 0.2665 1.6880 0.2510
H2A H 0.3725 1.5272 0.3729
H4A H 0.6796 1.3951 0.2728
H5A H 0.6564 1.4424 0.3591
C10A C 0.5538(9) 1.2053(8) 0.3304(6)
C9A C 0.5251(9) 1.0939(8) 0.3796(6)
H8A H 0.5122 1.0386 0.3486
H9A H 0.5600 1.2238 0.2672
H6A H 0.5762 1.3139 0.4947
H7A H 0.5233 1.1317 0.5769
N3_2 N 1.3485(7) 0.2912(7) 0.0080(5)
N4_2 N 1.1894(7) 0.3861(7) 0.0774(5)
N5_2 N 0.8103(7) 0.1100(7) 0.9046(5)
N6_2 N 0.9421(7) -0.0030(7) 0.8351(5)
C11_2 C 1.2291(9) 0.2560(8) -0.0029(6)
H10_2 H 1.2163 0.2008 -0.0341
C12_2 C 1.1333(9) 0.3149(8) 0.0391(6)
H11_2 H 1.0438 0.3074 0.0413
C13_2 C 1.3203(9) 0.3726(9) 0.0564(6)
H12_2 H 1.3821 0.4136 0.0729
C14_2 C 1.1293(9) 0.4583(8) 0.1341(6)
H13_2 H 1.0454 0.4999 0.1086
H14_2 H 1.1853 0.5188 0.1340
C15_2 C 1.1066(9) 0.3856(8) 0.2312(6)
C16_2 C 0.9853(9) 0.3738(9) 0.2688(6)
H15_2 H 0.9119 0.4142 0.2348
C17_2 C 0.9674(9) 0.3042(9) 0.3556(6)
H16_2 H 0.8815 0.3004 0.3788
C18_2 C 1.0669(8) 0.2405(8) 0.4099(6)
C19_2 C 1.1921(9) 0.2558(10) 0.3731(7)
H17_2 H 1.2657 0.2188 0.4080
C20_2 C 1.2080(10) 0.3268(10) 0.2837(7)
H18_2 H 1.2932 0.3334 0.2597
C21_2 C 1.0483(9) 0.1603(8) 0.5022(6)
C22_2 C 1.1476(10) 0.0973(9) 0.5552(6)
H19_2 H 1.2331 0.1057 0.5325
C23_2 C 0.9362(9) 0.1293(9) 0.9117(6)
H20_2 H 0.9623 0.1806 0.9421
C24_2 C 1.0182(10) 0.0611(9) 0.8669(6)
H21_2 H 1.1093 0.0592 0.8596
C25_2 C 0.8189(9) 0.0333(8) 0.8572(6)
H22_2 H 0.7457 0.0061 0.8403
C26_2 C 0.9831(10) -0.0739(8) 0.7710(6)
H23_2 H 0.9151 -0.1230 0.7688
H24_2 H 1.0632 -0.1274 0.7922
C27_2 C 1.0074(9) 0.0054(8) 0.6770(6)
C28_2 C 0.9035(10) 0.0676(9) 0.6259(7)
H25_2 H 0.8183 0.0591 0.6492
C29_2 C 0.9217(9) 0.1441(9) 0.5390(6)
H26_2 H 0.8485 0.1850 0.5050
C30_2 C 1.1322(9) 0.0204(9) 0.6417(6)
H27_2 H 1.2056 -0.0205 0.6754
Pb1A Pb 0.40691(3) 1.81429(3) 0.02264(2)
N7A N 0.2679(9) 1.6664(8) -0.0733(6)
O1A O 0.2112(7) 1.6055(7) -0.1092(5)
O2A O 0.3859(7) 1.6515(6) -0.0690(5)
O3A O 0.2041(7) 1.7284(6) -0.0309(5)
N8A N 0.5557(11) 1.9526(10) 0.1562(7)
O4A O 0.5605(8) 1.9348(7) 0.0811(5)
O5A O 0.4832(8) 1.9002(7) 0.2166(5)
O6A O 0.6235(9) 2.0233(8) 0.1715(5)
Pb1_2 Pb -0.40691(3) 0.18571(3) 1.97736(2)
Pb1_3 Pb 1.59309(3) 0.18571(3) -0.02264(2)
N3A N 0.6515(7) 1.7088(7) -0.0080(5)
N5A N 0.1897(7) 1.8900(7) 0.0954(5)
N9 N 0.1585(9) 0.3682(8) 0.6354(6)
O7 O 0.2793(9) 0.4674(7) 0.5252(5)
C31 C 0.2661(10) 0.2970(10) 0.6931(7)
H28 H 0.3489 0.3187 0.6651
H29 H 0.2631 0.2129 0.7006
H30 H 0.2571 0.3126 0.7517
C32 C 0.0254(11) 0.3441(10) 0.6681(8)
H31 H -0.0379 0.3969 0.6262
H32 H 0.0102 0.3578 0.7271
H33 H 0.0162 0.2619 0.6725
C33 C 0.1756(13) 0.4542(11) 0.5498(8)
H34 H 0.1038 0.4982 0.5156
loop_
_geom_bond_atom_site_label_1
_geom_bond_atom_site_label_2
_geom_bond_site_symmetry_1
_geom_bond_site_symmetry_2
Pb1 N1 1_555 1_555
N1 C1 1_555 1_555
N2 C2 1_555 1_555
N3 Pb1 1_555 1_555
N4 C12 1_555 1_555
N5 C23 1_555 1_555
N6 C24 1_555 1_555
N7 O1 1_555 1_555
N8 O4 1_555 1_555
N9 C31 1_555 1_555
O2 Pb1 1_555 1_555
O3 Pb1 1_555 1_555
O4 Pb1 1_555 1_555
O5 N8 1_555 1_555
O6 N8 1_555 1_555
O7 C33 1_555 1_555
C1 H1 1_555 1_555
C2 C1 1_555 1_555
H2 C2 1_555 1_555
C3 N1 1_555 1_555
H3 C3 1_555 1_555
C4 N2 1_555 1_555
H4 C4 1_555 1_555
H5 C4 1_555 1_555
C5 C4 1_555 1_555
C6 C5 1_555 1_555
H6 C6 1_555 1_555
C7 C6 1_555 1_555
H7 C7 1_555 1_555
C8 C7 1_555 1_555
C9 C8 1_555 1_555
H8 C9 1_555 1_555
C10 C5 1_555 1_555
H9 C10 1_555 1_555
C11 N3 1_555 1_555
H10 C11 1_555 1_555
C12 C11 1_555 1_555
H11 C12 1_555 1_555
C13 N3 1_555 1_555
H12 C13 1_555 1_555
C14 N4 1_555 1_555
H13 C14 1_555 1_555
H14 C14 1_555 1_555
C15 C14 1_555 1_555
C16 C15 1_555 1_555
H15 C16 1_555 1_555
C17 C16 1_555 1_555
H16 C17 1_555 1_555
C18 C17 1_555 1_555
C19 C18 1_555 1_555
H17 C19 1_555 1_555
C20 C15 1_555 1_555
H18 C20 1_555 1_555
C21 C18 1_555 1_555
C22 C21 1_555 1_555
H19 C22 1_555 1_555
C23 H20 1_555 1_555
C24 C23 1_555 1_555
H21 C24 1_555 1_555
C25 N5 1_555 1_555
H22 C25 1_555 1_555
C26 N6 1_555 1_555
H23 C26 1_555 1_555
H24 C26 1_555 1_555
C27 C26 1_555 1_555
C28 C27 1_555 1_555
H25 C28 1_555 1_555
C29 C21 1_555 1_555
H26 C29 1_555 1_555
C30 C22 1_555 1_555
H27 C30 1_555 1_555
C31 H28 1_555 1_555
H29 C31 1_555 1_555
H30 C31 1_555 1_555
C32 N9 1_555 1_555
H31 C32 1_555 1_555
H32 C32 1_555 1_555
H33 C32 1_555 1_555
C33 N9 1_555 1_555
H34 C33 1_555 1_555
C8A C8 1_555 1_555
C7A C8A 1_555 1_555
C6A C7A 1_555 1_555
C5A C6A 1_555 1_555
C4A C5A 1_555 1_555
N2A C4A 1_555 1_555
C2A N2A 1_555 1_555
C1A C2A 1_555 1_555
N1A C1A 1_555 1_555
C3A N2A 1_555 1_555
H3A C3A 1_555 1_555
H1A C1A 1_555 1_555
H2A C2A 1_555 1_555
H4A C4A 1_555 1_555
H5A C4A 1_555 1_555
C10A C5A 1_555 1_555
C9A C8A 1_555 1_555
H8A C9A 1_555 1_555
H9A C10A 1_555 1_555
H6A C6A 1_555 1_555
H7A C7A 1_555 1_555
N3_2 C11_2 1_555 1_555
N4_2 C12_2 1_555 1_555
N5_2 Pb1 1_555 1_555
N6_2 C24_2 1_555 1_555
C11_2 H10_2 1_555 1_555
C12_2 C11_2 1_555 1_555
H11_2 C12_2 1_555 1_555
C13_2 N3_2 1_555 1_555
H12_2 C13_2 1_555 1_555
C14_2 N4_2 1_555 1_555
H13_2 C14_2 1_555 1_555
H14_2 C14_2 1_555 1_555
C15_2 C14_2 1_555 1_555
C16_2 C15_2 1_555 1_555
H15_2 C16_2 1_555 1_555
C17_2 C16_2 1_555 1_555
H16_2 C17_2 1_555 1_555
C18_2 C17_2 1_555 1_555
C19_2 C18_2 1_555 1_555
H17_2 C19_2 1_555 1_555
C20_2 C15_2 1_555 1_555
H18_2 C20_2 1_555 1_555
C21_2 C18_2 1_555 1_555
C22_2 C21_2 1_555 1_555
H19_2 C22_2 1_555 1_555
C23_2 N5_2 1_555 1_555
H20_2 C23_2 1_555 1_555
C24_2 C23_2 1_555 1_555
H21_2 C24_2 1_555 1_555
C25_2 N5_2 1_555 1_555
H22_2 C25_2 1_555 1_555
C26_2 N6_2 1_555 1_555
H23_2 C26_2 1_555 1_555
H24_2 C26_2 1_555 1_555
C27_2 C26_2 1_555 1_555
C28_2 C27_2 1_555 1_555
H25_2 C28_2 1_555 1_555
C29_2 C21_2 1_555 1_555
H26_2 C29_2 1_555 1_555
C30_2 C22_2 1_555 1_555
H27_2 C30_2 1_555 1_555
Pb1A N1A 1_555 1_555
N7A O1A 1_555 1_555
O2A Pb1A 1_555 1_555
O3A Pb1A 1_555 1_555
N8A O4A 1_555 1_555
O4A Pb1A 1_555 1_555
O5A N8A 1_555 1_555
O6A N8A 1_555 1_555
Pb1_2 N5 1_555 1_555
Pb1_3 N3_2 1_555 1_555
N3A Pb1A 1_555 1_555
N5A Pb1A 1_555 1_555
N2 C3 1_555 1_555
N4 C13 1_555 1_555
N6 C25 1_555 1_555
N7 O2 1_555 1_555
N7 O3 1_555 1_555
C9 C10 1_555 1_555
C19 C20 1_555 1_555
C27 C30 1_555 1_555
C28 C29 1_555 1_555
N1A C3A 1_555 1_555
C10A C9A 1_555 1_555
N4_2 C13_2 1_555 1_555
N6_2 C25_2 1_555 1_555
C19_2 C20_2 1_555 1_555
C27_2 C30_2 1_555 1_555
C28_2 C29_2 1_555 1_555
N7A O2A 1_555 1_555
N7A O3A 1_555 1_555

#END
