
#######################################################################
#
#                 Cambridge Crystallographic Data Centre
#                                CCDC 
#
#######################################################################
#
# If this CIF has been generated from an entry in the Cambridge 
# Structural Database, then it will include bibliographic, chemical, 
# crystal, experimental, refinement or atomic coordinate data resulting 
# from the CCDC's data processing and validation procedures.
#
#######################################################################

data_AZEXOS
_symmetry_cell_setting           monoclinic
_symmetry_space_group_name_H-M   'P 21/c'
_symmetry_Int_Tables_number      14
_space_group_name_Hall           '-P 2ybc'
loop_
_symmetry_equiv_pos_site_id
_symmetry_equiv_pos_as_xyz
1 x,y,z
2 x,1/2-y,1/2+z
3 -x,-y,-z
4 -x,1/2+y,1/2-z
_cell_length_a                   11.968(2)
_cell_length_b                   10.0376(18)
_cell_length_c                   16.579(3)
_cell_angle_alpha                90
_cell_angle_beta                 92.804(3)
_cell_angle_gamma                90
_cell_volume                     1989.25
loop_
_atom_site_label
_atom_site_type_symbol
_atom_site_fract_x
_atom_site_fract_y
_atom_site_fract_z
Pb1 Pb 0.56716(2) 0.42641(3) -0.123084(16)
S1 S 0.34106(19) 0.2004(2) -0.32676(15)
S2 S 0.7354(3) 0.5401(4) 0.1617(2)
N1 N 0.6399(4) 0.0580(6) 0.0303(4)
N2 N 1.0945(5) -0.2834(6) 0.1968(3)
N3 N 0.5863(5) 0.2023(7) -0.0610(4)
N4 N 1.2420(5) -0.3780(6) 0.1501(4)
N5 N 0.5375(6) 0.2930(7) -0.2550(4)
N6 N 0.6608(7) 0.5281(12) 0.0179(5)
C1 C 0.6058(6) 0.0858(9) -0.0967(5)
H1 H 0.5959 0.0697 -0.1518
C2 C 0.9868(6) 0.0974(6) 0.0923(4)
C3 C 1.1480(6) -0.4333(7) 0.1121(5)
H2 H 1.1478 -0.4998 0.0730
C4 C 1.0363(6) 0.0049(7) 0.1446(4)
H3 H 1.1136 0.0042 0.1535
C5 C 0.8587(6) -0.0874(7) 0.1702(4)
H4 H 0.8158 -0.1507 0.1956
C6 C 0.8069(6) 0.0053(7) 0.1192(4)
C7 C 0.8727(6) 0.0959(6) 0.0809(4)
H5 H 0.8385 0.1581 0.0462
C8 C 1.2061(6) -0.2895(7) 0.1997(4)
H6 H 1.2524 -0.2367 0.2332
C9 C 0.9713(6) -0.0869(7) 0.1837(4)
C10 C 0.6814(6) 0.0013(8) 0.1081(4)
H7 H 0.6564 -0.0903 0.1116
H8 H 0.6493 0.0506 0.1517
C11 C 1.0571(7) -0.3755(8) 0.1408(5)
H9 H 0.9829 -0.3943 0.1255
C12 C 0.6414(6) -0.0035(8) -0.0425(6)
H10 H 0.6630 -0.0907 -0.0523
C13 C 0.6053(6) 0.1804(8) 0.0160(5)
H11 H 0.5956 0.2438 0.0559
C14 C 1.0262(6) -0.1899(7) 0.2395(4)
H12 H 0.9686 -0.2385 0.2664
H13 H 1.0726 -0.1448 0.2807
C15 C 1.0568(6) 0.1974(7) 0.0502(4)
H14 H 1.0091 0.2542 0.0170
H15 H 1.1080 0.1517 0.0170
H16 H 1.0980 0.2504 0.0896
C16 C 0.4555(7) 0.2536(9) -0.2838(5)
C17 C 0.6958(9) 0.5105(16) 0.0738(7)
N4B N 0.7580(5) 0.3780(6) -0.1501(4)
Pb1B Pb 1.43284(2) -0.42641(3) 0.123084(16)
loop_
_geom_bond_atom_site_label_1
_geom_bond_atom_site_label_2
_geom_bond_site_symmetry_1
_geom_bond_site_symmetry_2
Pb1 N3 1_555 1_555
S1 C16 1_555 1_555
S2 C17 1_555 1_555
N1 C10 1_555 1_555
N2 C8 1_555 1_555
N3 C1 1_555 1_555
N4 C3 1_555 1_555
N5 Pb1 1_555 1_555
N6 Pb1 1_555 1_555
C1 H1 1_555 1_555
C2 C4 1_555 1_555
C3 H2 1_555 1_555
C4 H3 1_555 1_555
C5 H4 1_555 1_555
C6 C5 1_555 1_555
C7 C2 1_555 1_555
H5 C7 1_555 1_555
C8 N4 1_555 1_555
H6 C8 1_555 1_555
C9 C4 1_555 1_555
C10 C6 1_555 1_555
H7 C10 1_555 1_555
H8 C10 1_555 1_555
C11 N2 1_555 1_555
H9 C11 1_555 1_555
C12 N1 1_555 1_555
H10 C12 1_555 1_555
C13 N1 1_555 1_555
H11 C13 1_555 1_555
C14 N2 1_555 1_555
H12 C14 1_555 1_555
H13 C14 1_555 1_555
C15 C2 1_555 1_555
H14 C15 1_555 1_555
H15 C15 1_555 1_555
H16 C15 1_555 1_555
C16 N5 1_555 1_555
C17 N6 1_555 1_555
N4B Pb1 1_555 1_555
Pb1B N4 1_555 1_555
N3 C13 1_555 1_555
C1 C12 1_555 1_555
C3 C11 1_555 1_555
C5 C9 1_555 1_555
C6 C7 1_555 1_555
C9 C14 1_555 1_555

#END
