
#######################################################################
#
#                 Cambridge Crystallographic Data Centre
#                                CCDC 
#
#######################################################################
#
# If this CIF has been generated from an entry in the Cambridge 
# Structural Database, then it will include bibliographic, chemical, 
# crystal, experimental, refinement or atomic coordinate data resulting 
# from the CCDC's data processing and validation procedures.
#
#######################################################################

data_AZEYEK
_symmetry_cell_setting           triclinic
_symmetry_space_group_name_H-M   'P -1'
_symmetry_Int_Tables_number      2
_space_group_name_Hall           '-P 1'
loop_
_symmetry_equiv_pos_site_id
_symmetry_equiv_pos_as_xyz
1 x,y,z
2 -x,-y,-z
_cell_length_a                   6.5525(3)
_cell_length_b                   6.8444(3)
_cell_length_c                   9.5265(2)
_cell_angle_alpha                71.798(2)
_cell_angle_beta                 85.988(2)
_cell_angle_gamma                89.219(2)
_cell_volume                     404.855
loop_
_atom_site_label
_atom_site_type_symbol
_atom_site_fract_x
_atom_site_fract_y
_atom_site_fract_z
Tl1 Tl 0.0132(4) 0.6150(6) 0.6442(4)
S1 S -0.05050 0.93709 0.34303
C1 C -0.02217 0.97239 0.15058
C2 C 0.11884 0.85718 0.09585
C3 C -0.14101 1.11521 0.05473
H1 H 0.21154 0.74577 0.17062
H2 H -0.25100 1.20508 0.09742
Tl1A Tl -0.0132(4) 1.3850(6) -0.6442(4)
Tl1A_2 Tl -0.0132(4) 0.3850(6) 0.3558(4)
Tl1_2 Tl 0.0132(4) 1.6150(6) -0.3558(4)
S1A S 0.05050 1.06291 -0.34303
C1A C 0.02217 1.02761 -0.15058
C2A C -0.11884 1.14282 -0.09585
C3A C 0.14101 0.88479 -0.05473
H1A H -0.21154 1.25423 -0.17062
H2A H 0.25100 0.79492 -0.09742
Tl2 Tl 0.4572(4) 0.8920(6) 0.3612(3)
S2 S 0.46871 0.47431 0.33719
C4 C 0.48627 0.48872 0.14802
C5 C 0.64075 0.60405 0.05277
C6 C 0.34552 0.38467 0.09525
H3 H 0.75054 0.68521 0.09393
H4 H 0.22501 0.29471 0.16955
Tl2A Tl 0.5428(4) 0.1080(6) -0.3612(3)
Tl2A_2 Tl 0.5428(4) 1.1080(6) 0.6388(3)
Tl2_2 Tl 0.4572(4) -0.1080(6) -0.6388(3)
S2A S 0.53129 0.52569 -0.33719
C4A C 0.51373 0.51128 -0.14802
C5A C 0.35925 0.39595 -0.05277
C6A C 0.65448 0.61533 -0.09525
H3A H 0.24946 0.31479 -0.09393
H4A H 0.77499 0.70529 -0.16955
loop_
_geom_bond_atom_site_label_1
_geom_bond_atom_site_label_2
_geom_bond_site_symmetry_1
_geom_bond_site_symmetry_2
Tl1 S1 1_555 1_555
S1 C1 1_555 1_555
C1 C2 1_555 1_555
C2 H1 1_555 1_555
C3 C1 1_555 1_555
Tl2 S2 1_555 1_555
S2 C4 1_555 1_555
C4 C5 1_555 1_555
C5 H3 1_555 1_555
C6 C4 1_555 1_555
H2 C3 1_555 1_555
H4 C6 1_555 1_555
Tl1A Tl1_2 1_555 1_555
Tl1A_2 Tl1 1_555 1_555
S1A Tl1A 1_555 1_555
C1A S1A 1_555 1_555
C2A C3 1_555 1_555
C3A C2 1_555 1_555
Tl2A Tl2_2 1_555 1_555
Tl2A_2 Tl2 1_555 1_555
S2A Tl2A 1_555 1_555
C4A S2A 1_555 1_555
C5A C6 1_555 1_555
C6A C5 1_555 1_555
H1A C2A 1_555 1_555
H2A C3A 1_555 1_555
H3A C5A 1_555 1_555
H4A C6A 1_555 1_555
C1A C2A 1_555 1_555
C1A C3A 1_555 1_555
C4A C5A 1_555 1_555
C4A C6A 1_555 1_555

#END
