
#######################################################################
#
#                 Cambridge Crystallographic Data Centre
#                                CCDC 
#
#######################################################################
#
# If this CIF has been generated from an entry in the Cambridge 
# Structural Database, then it will include bibliographic, chemical, 
# crystal, experimental, refinement or atomic coordinate data resulting 
# from the CCDC's data processing and validation procedures.
#
#######################################################################

data_AZEZAG
_symmetry_cell_setting           rhombohedral
_symmetry_space_group_name_H-M   'R -3'
_symmetry_Int_Tables_number      148
_space_group_name_Hall           '-R 3'
loop_
_symmetry_equiv_pos_site_id
_symmetry_equiv_pos_as_xyz
1 x,y,z
2 -y,x-y,z
3 -x+y,-x,z
4 2/3+x,1/3+y,1/3+z
5 2/3-y,1/3+x-y,1/3+z
6 2/3-x+y,1/3-x,1/3+z
7 1/3+x,2/3+y,2/3+z
8 1/3-y,2/3+x-y,2/3+z
9 1/3-x+y,2/3-x,2/3+z
10 -x,-y,-z
11 y,-x+y,-z
12 x-y,x,-z
13 1/3-x,2/3-y,2/3-z
14 1/3+y,2/3-x+y,2/3-z
15 1/3+x-y,2/3+x,2/3-z
16 2/3-x,1/3-y,1/3-z
17 2/3+y,1/3-x+y,1/3-z
18 2/3+x-y,1/3+x,1/3-z
_cell_length_a                   44.2373(18)
_cell_length_b                   44.2373(18)
_cell_length_c                   21.3285(18)
_cell_angle_alpha                90
_cell_angle_beta                 90
_cell_angle_gamma                120
_cell_volume                     36146.7
loop_
_atom_site_label
_atom_site_type_symbol
_atom_site_fract_x
_atom_site_fract_y
_atom_site_fract_z
Cu1 Cu 0.741159(15) 0.163698(15) 0.87084(3)
N1 N 0.70513(11) 0.14077(11) 0.8069(2)
O1 O 0.77638(9) 0.17780(10) 0.94010(19)
O2 O 0.77480(9) 0.15777(9) 0.81608(19)
N2 N 0.70905(11) 0.16664(11) 0.9303(2)
C1 C 0.59757(13) 0.12278(13) 0.8956(2)
H1 H 0.6036 0.1164 0.9342
C2 C 0.65954(13) 0.14786(13) 0.8578(3)
N3 N 0.55339(11) 0.12187(11) 0.8286(2)
C3 C 0.67161(13) 0.13598(13) 0.8095(2)
C4 C 0.67716(13) 0.16370(13) 0.9140(3)
C5 C 0.67602(14) 0.11218(15) 0.7188(3)
H2 H 0.6714 0.1007 0.6793
C6 C 0.82820(15) 0.19749(17) 0.9966(3)
C7 C 0.70769(14) 0.12712(14) 0.7528(3)
H3 H 0.7282 0.1274 0.7389
C8 C 0.80623(14) 0.16796(13) 0.8277(3)
C9 C 0.61310(14) 0.15284(15) 0.7969(3)
H4 H 0.6300 0.1675 0.7669
C10 C 0.62332(13) 0.14200(13) 0.8503(2)
C11 C 0.65350(14) 0.11767(14) 0.7544(3)
H5 H 0.6300 0.1105 0.7443
C12 C 0.56319(14) 0.11333(14) 0.8824(3)
H6 H 0.5458 0.1002 0.9128
C13 C 0.71752(14) 0.18202(14) 0.9868(3)
H7 H 0.7379 0.1869 1.0096
C14 C 0.80684(14) 0.18385(14) 0.9361(3)
C15 C 0.66703(15) 0.17846(14) 0.9626(3)
H8 H 0.6464 0.1800 0.9633
C16 C 0.57837(14) 0.14209(14) 0.7883(3)
H9 H 0.5718 0.1496 0.7515
C17 C 0.69185(14) 0.19004(14) 1.0080(3)
H10 H 0.6920 0.2012 1.0462
C18 C 0.82637(15) 0.16631(16) 0.7705(3)
C19 C 0.82402(15) 0.18071(15) 0.8833(3)
H11 H 0.8480 0.1874 0.8859
F1 F 0.80883(10) 0.18728(12) 1.04736(19)
F2 F 0.84523(10) 0.23263(10) 0.9964(2)
F3 F 0.80957(10) 0.13622(10) 0.7415(2)
F4 F 0.85837(10) 0.17287(13) 0.7834(2)
F5 F 0.85252(11) 0.18839(13) 1.0021(2)
F6 F 0.83004(13) 0.19045(13) 0.7282(2)
N3N N 0.76485(16) 0.22006(11) 0.8381(2)
Cu1M Cu 0.497031(15) 0.089206(21) 0.79583(3)
Cu2 Cu 0.674243(17) 0.093575(16) 0.01059(3)
N4 N 0.65029(11) 0.06914(11) -0.0661(2)
O3 O 0.63422(10) 0.10120(10) 0.02986(19)
O4 O 0.69902(11) 0.12279(11) 0.08504(18)
N5 N 0.71760(11) 0.09512(11) -0.0139(2)
C20 C 0.61772(14) 0.05924(13) -0.0831(3)
H12 H 0.6018 0.0625 -0.0579
C21 C 0.68918(13) 0.01259(14) -0.1786(2)
H13 H 0.6680 -0.0018 -0.1568
N6 N 0.73049(11) 0.01713(11) -0.2560(2)
C22 C 0.73759(13) 0.06830(13) -0.2037(2)
H14 H 0.7506 0.0929 -0.1986
C23 C 0.66441(13) 0.05931(12) -0.1150(2)
C24 C 0.70797(13) 0.04838(13) -0.1673(2)
C25 C 0.72355(13) 0.08099(13) -0.0680(2)
C26 C 0.74671(14) 0.10770(13) 0.0208(3)
H15 H 0.7500 0.1190 0.0601
C27 C 0.77171(14) 0.10179(14) -0.0092(2)
H16 H 0.7943 0.1083 0.0060
C28 C 0.75726(14) 0.08494(14) -0.0642(3)
H17 H 0.7679 0.0773 -0.0943
C29 C 0.74774(14) 0.05189(13) -0.2473(3)
H18 H 0.7678 0.0659 -0.2722
C30 C 0.63903(14) 0.04374(14) -0.1631(3)
H19 H 0.6419 0.0351 -0.2022
C31 C 0.69804(13) 0.06405(12) -0.1149(2)
C32 C 0.60954(14) 0.04351(14) -0.1425(3)
H20 H 0.5879 0.0345 -0.1640
C33 C 0.70175(14) -0.00189(14) -0.2222(3)
H21 H 0.6892 -0.0264 -0.2282
C34 C 0.68543(18) 0.13071(17) 0.1283(3)
C35 C 0.62943(17) 0.11162(16) 0.0812(3)
C36 C 0.7093(2) 0.1471(3) 0.1864(4)
C37 C 0.65195(19) 0.12569(19) 0.1318(3)
H22 H 0.6444 0.1319 0.1688
C38 C 0.5931(2) 0.1083(3) 0.0881(4)
F7 F 0.57086(13) 0.08868(16) 0.0461(3)
F8 F 0.70590(15) 0.17320(14) 0.2099(2)
F9 F 0.74177(14) 0.15794(16) 0.1742(3)
F10 F 0.69958(18) 0.12259(18) 0.2317(2)
F11 F 0.59490(18) 0.1373(2) 0.0835(9)
F12 F 0.5792(2) 0.0968(4) 0.1390(3)
N6D N 0.64954(11) 0.04669(16) 0.0773(2)
Cu2H Cu 0.752665(23) -0.007576(17) -0.32274(3)
Cu3 Cu 0.760321(16) 0.005650(17) 0.15099(3)
O5 O 0.79637(11) 0.03003(11) 0.0856(2)
N7 N 0.76601(11) 0.05086(12) 0.1754(2)
N8 N 0.73003(11) -0.01790(12) 0.2224(2)
C39 C 0.70951(13) 0.04303(14) 0.3141(2)
N9 N 0.68148(12) 0.06593(11) 0.4085(2)
C40 C 0.72489(13) 0.03139(14) 0.2642(2)
O6 O 0.76411(11) -0.03677(11) 0.1348(2)
C41 C 0.69392(15) -0.06019(15) 0.2904(3)
H23 H 0.6814 -0.0824 0.3101
C42 C 0.78614(15) 0.08154(14) 0.1475(3)
H24 H 0.8014 0.0849 0.1135
C43 C 0.71558(14) 0.07647(14) 0.4065(3)
H25 H 0.7303 0.0918 0.4383
C44 C 0.67390(14) 0.03170(16) 0.3170(3)
H26 H 0.6584 0.0156 0.2868
C45 C 0.71577(13) -0.00365(14) 0.2639(2)
C46 C 0.75838(14) 0.09341(14) 0.2214(3)
H27 H 0.7500 0.1048 0.2482
C47 C 0.71703(14) -0.05114(14) 0.2395(3)
H28 H 0.7227 -0.0669 0.2195
C48 C 0.80612(16) 0.01619(17) 0.0450(3)
C49 C 0.73048(13) 0.06609(14) 0.3606(2)
H29 H 0.7549 0.0746 0.3608
C50 C 0.78199(15) 0.10833(15) 0.1747(3)
H30 H 0.7935 0.1322 0.1625
C51 C 0.79764(17) -0.01861(18) 0.0413(3)
H31 H 0.8060 -0.0262 0.0072
C52 C 0.66138(14) 0.04403(14) 0.3639(3)
H32 H 0.6372 0.0365 0.3644
C53 C 0.69321(14) -0.03018(13) 0.3060(3)
H33 H 0.6800 -0.0278 0.3389
C54 C 0.74843(13) 0.05703(14) 0.2228(2)
C55 C 0.7687(3) -0.0801(2) 0.0799(4)
C56 C 0.77725(17) -0.04202(17) 0.0868(3)
F13 F 0.84408(12) 0.02931(13) -0.0422(2)
F14 F 0.81002(19) 0.04918(19) -0.0437(3)
F15 F 0.7761(3) -0.08716(19) 0.0269(4)
C57 C 0.8293(2) 0.0417(2) -0.0056(4)
F16 F 0.8525(2) 0.07119(16) 0.0173(3)
F17 F 0.7374(2) -0.10209(16) 0.0926(6)
F18 F 0.7869(3) -0.0870(2) 0.1172(6)
N9H N 0.71778(16) -0.01481(12) 0.0752(2)
Cu3D Cu 0.661017(17) 0.088004(23) 0.48432(3)
loop_
_geom_bond_atom_site_label_1
_geom_bond_atom_site_label_2
_geom_bond_site_symmetry_1
_geom_bond_site_symmetry_2
Cu1 N1 1_555 1_555
N1 C3 1_555 1_555
O1 Cu1 1_555 1_555
O2 Cu1 1_555 1_555
N2 Cu1 1_555 1_555
C1 H1 1_555 1_555
C2 C3 1_555 1_555
N3 C12 1_555 1_555
C3 C11 1_555 1_555
C4 N2 1_555 1_555
C5 H2 1_555 1_555
C6 C14 1_555 1_555
C7 N1 1_555 1_555
H3 C7 1_555 1_555
C8 O2 1_555 1_555
C9 H4 1_555 1_555
C10 C1 1_555 1_555
C11 C5 1_555 1_555
H5 C11 1_555 1_555
C12 C1 1_555 1_555
H6 C12 1_555 1_555
C13 N2 1_555 1_555
H7 C13 1_555 1_555
C14 O1 1_555 1_555
C15 C4 1_555 1_555
H8 C15 1_555 1_555
C16 N3 1_555 1_555
H9 C16 1_555 1_555
C17 C13 1_555 1_555
H10 C17 1_555 1_555
C18 C8 1_555 1_555
C19 C8 1_555 1_555
H11 C19 1_555 1_555
F1 C6 1_555 1_555
F2 C6 1_555 1_555
F3 C18 1_555 1_555
F4 C18 1_555 1_555
F5 C6 1_555 1_555
F6 C18 1_555 1_555
Cu2 N4 1_555 1_555
N4 C20 1_555 1_555
O3 Cu2 1_555 1_555
O4 Cu2 1_555 1_555
N5 Cu2 1_555 1_555
C20 H12 1_555 1_555
C21 H13 1_555 1_555
N6 C29 1_555 1_555
C22 H14 1_555 1_555
C23 N4 1_555 1_555
C24 C21 1_555 1_555
C25 N5 1_555 1_555
C26 N5 1_555 1_555
H15 C26 1_555 1_555
C27 C26 1_555 1_555
H16 C27 1_555 1_555
C28 C25 1_555 1_555
H17 C28 1_555 1_555
C29 C22 1_555 1_555
H18 C29 1_555 1_555
C30 C23 1_555 1_555
H19 C30 1_555 1_555
C31 C23 1_555 1_555
C32 C20 1_555 1_555
H20 C32 1_555 1_555
C33 C21 1_555 1_555
H21 C33 1_555 1_555
C34 O4 1_555 1_555
C35 O3 1_555 1_555
C36 C34 1_555 1_555
C37 C34 1_555 1_555
H22 C37 1_555 1_555
C38 C35 1_555 1_555
F7 C38 1_555 1_555
F8 C36 1_555 1_555
F9 C36 1_555 1_555
F10 C36 1_555 1_555
F11 C38 1_555 1_555
F12 C38 1_555 1_555
Cu3 O5 1_555 1_555
O5 C48 1_555 1_555
N7 Cu3 1_555 1_555
N8 Cu3 1_555 1_555
C39 C40 1_555 1_555
N9 C43 1_555 1_555
C40 C45 1_555 1_555
O6 Cu3 1_555 1_555
C41 H23 1_555 1_555
C42 N7 1_555 1_555
H24 C42 1_555 1_555
C43 H25 1_555 1_555
C44 C39 1_555 1_555
H26 C44 1_555 1_555
C45 N8 1_555 1_555
C46 H27 1_555 1_555
C47 N8 1_555 1_555
H28 C47 1_555 1_555
C48 C51 1_555 1_555
C49 C39 1_555 1_555
H29 C49 1_555 1_555
C50 C42 1_555 1_555
H30 C50 1_555 1_555
C51 H31 1_555 1_555
C52 N9 1_555 1_555
H32 C52 1_555 1_555
C53 C41 1_555 1_555
H33 C53 1_555 1_555
C54 N7 1_555 1_555
C55 C56 1_555 1_555
C56 O6 1_555 1_555
F13 C57 1_555 1_555
F14 C57 1_555 1_555
F15 C55 1_555 1_555
C57 C48 1_555 1_555
F16 C57 1_555 1_555
F17 C55 1_555 1_555
F18 C55 1_555 1_555
N3N Cu1 1_555 1_555
Cu1M N3 1_555 1_555
N6D Cu2 1_555 1_555
Cu2H N6 1_555 1_555
N9H Cu3 1_555 1_555
Cu3D N9 1_555 1_555
C2 C4 1_555 1_555
C2 C10 1_555 1_555
C5 C7 1_555 1_555
C9 C10 1_555 1_555
C9 C16 1_555 1_555
C14 C19 1_555 1_555
C15 C17 1_555 1_555
N6 C33 1_555 1_555
C22 C24 1_555 1_555
C24 C31 1_555 1_555
C25 C31 1_555 1_555
C27 C28 1_555 1_555
C30 C32 1_555 1_555
C35 C37 1_555 1_555
C40 C54 1_555 1_555
C41 C47 1_555 1_555
C43 C49 1_555 1_555
C44 C52 1_555 1_555
C45 C53 1_555 1_555
C46 C50 1_555 1_555
C46 C54 1_555 1_555
C51 C56 1_555 1_555

#END
