
#######################################################################
#
#                 Cambridge Crystallographic Data Centre
#                                CCDC 
#
#######################################################################
#
# If this CIF has been generated from an entry in the Cambridge 
# Structural Database, then it will include bibliographic, chemical, 
# crystal, experimental, refinement or atomic coordinate data resulting 
# from the CCDC's data processing and validation procedures.
#
#######################################################################

data_AZHPCU
_symmetry_cell_setting           orthorhombic
_symmetry_space_group_name_H-M   'P b 21 m'
_symmetry_Int_Tables_number      26
_space_group_name_Hall           'P -2 -2b'
loop_
_symmetry_equiv_pos_site_id
_symmetry_equiv_pos_as_xyz
1 x,y,z
2 x,y,-z
3 -x,1/2+y,z
4 -x,1/2+y,-z
_cell_length_a                   9.63(1)
_cell_length_b                   10.64(1)
_cell_length_c                   6.71(1)
_cell_angle_alpha                90
_cell_angle_beta                 90
_cell_angle_gamma                90
_cell_volume                     687.528
loop_
_atom_site_label
_atom_site_type_symbol
_atom_site_fract_x
_atom_site_fract_y
_atom_site_fract_z
N1 N 0.33100 -0.11400 0.09600
Cl1 Cl 0.37300 0.08000 0.50000
Cl2 Cl 0.14500 0.14200 0.00000
Cu1 Cu 0.22100 0.00000 0.25280
C1 C -0.09000 -0.03900 0.32600
C2 C 0.43900 -0.20300 0.16400
C3 C 0.57900 -0.13900 0.11900
C4 C 0.44000 -0.30600 0.00000
C5 C -0.15100 0.09100 0.38400
C6 C -0.14200 -0.13000 0.50000
N2 N 0.06300 -0.03600 0.40700
N1A N 0.33100 -0.11400 -0.09600
Cu1A Cu 0.22100 0.00000 0.74720
Cu1A_2 Cu 0.22100 0.00000 -0.25280
C3A C 0.57900 -0.13900 -0.11900
C2A C 0.43900 -0.20300 -0.16400
N2A N 0.06300 -0.03600 0.59300
C5A C -0.15100 0.09100 0.61600
C1A C -0.09000 -0.03900 0.67400
N1A_2 N 0.33100 -0.11400 0.90400
Cl2_2 Cl 0.14500 0.14200 1.00000
loop_
_geom_bond_atom_site_label_1
_geom_bond_atom_site_label_2
_geom_bond_site_symmetry_1
_geom_bond_site_symmetry_2
N1 Cu1 1_555 1_555
Cl1 Cu1 1_555 1_555
Cl2 Cu1 1_555 1_555
Cu1 N2 1_555 1_555
C1 C5 1_555 1_555
C2 N1 1_555 1_555
C3 C2 1_555 1_555
C4 C2 1_555 1_555
C5 C5A 1_555 1_555
C6 C1 1_555 1_555
N2 C1 1_555 1_555
N1A N1 1_555 1_555
Cu1A Cl1 1_555 1_555
Cu1A_2 Cl2 1_555 1_555
C3A C3 1_555 1_555
C2A C4 1_555 1_555
N2A N2 1_555 1_555
C5A C1A 1_555 1_555
C1A C6 1_555 1_555
N1A_2 Cu1A 1_555 1_555
Cl2_2 Cu1A 1_555 1_555
N1A Cu1A_2 1_555 1_555
N1A C2A 1_555 1_555
Cu1A N2A 1_555 1_555
C3A C2A 1_555 1_555
N2A C1A 1_555 1_555

#END
