
#######################################################################
#
#                 Cambridge Crystallographic Data Centre
#                                CCDC 
#
#######################################################################
#
# If this CIF has been generated from an entry in the Cambridge 
# Structural Database, then it will include bibliographic, chemical, 
# crystal, experimental, refinement or atomic coordinate data resulting 
# from the CCDC's data processing and validation procedures.
#
#######################################################################

data_AZICIV
_symmetry_cell_setting           monoclinic
_symmetry_space_group_name_H-M   'C 2/c'
_symmetry_Int_Tables_number      15
_space_group_name_Hall           '-C 2yn'
loop_
_symmetry_equiv_pos_site_id
_symmetry_equiv_pos_as_xyz
1 x,y,z
2 1/2+x,1/2+y,z
3 x,-y,1/2+z
4 1/2+x,1/2-y,1/2+z
5 -x,-y,-z
6 1/2-x,1/2-y,-z
7 -x,y,1/2-z
8 1/2-x,1/2+y,1/2-z
_cell_length_a                   12.661(2)
_cell_length_b                   11.320(2)
_cell_length_c                   27.735(5)
_cell_angle_alpha                90
_cell_angle_beta                 100.91(1)
_cell_angle_gamma                90
_cell_volume                     3903.2
loop_
_atom_site_label
_atom_site_type_symbol
_atom_site_fract_x
_atom_site_fract_y
_atom_site_fract_z
Ni1 Ni 0.5000 0.02997(11) 0.7500
O1 O 0.4100(4) 0.0372(4) 0.80273(17)
C1 C 0.4473(6) 0.0555(7) 0.8474(3)
C2 C 0.3647(7) 0.0907(9) 0.8778(3)
C3 C 0.2655(7) 0.1262(8) 0.8552(4)
H1 H 0.2493 0.1280 0.8204
C4 C 0.1882(9) 0.1593(12) 0.8806(5)
H2 H 0.1190 0.1822 0.8635
C5 C 0.2102(9) 0.1596(15) 0.9299(5)
H3 H 0.1563 0.1830 0.9475
C6 C 0.3096(10) 0.1264(16) 0.9550(5)
H4 H 0.3245 0.1265 0.9899
C7 C 0.3880(9) 0.0929(12) 0.9292(4)
H5 H 0.4576 0.0715 0.9463
C8 C 0.5555(6) 0.0470(9) 0.8699(3)
H6 H 0.5722 0.0598 0.9043
O2 O 0.6381(4) 0.0211(4) 0.80097(18)
C9 C 0.6427(6) 0.0210(7) 0.8463(3)
C10 C 0.7511(7) -0.0116(8) 0.8769(3)
C11 C 0.7769(8) 0.0038(13) 0.9267(4)
H7 H 0.7258 0.0378 0.9436
C12 C 0.8768(9) -0.0298(16) 0.9527(4)
H8 H 0.8959 -0.0146 0.9869
C13 C 0.9487(9) -0.0859(16) 0.9282(4)
H9 H 1.0149 -0.1143 0.9464
C14 C 0.9261(8) -0.1012(10) 0.8782(4)
H10 H 0.9776 -0.1349 0.8614
C15 C 0.8258(7) -0.0658(7) 0.8529(3)
H11 H 0.8075 -0.0788 0.8185
N1 N 0.5000 0.2170(7) 0.7500
C16 C 0.5906(6) 0.2799(6) 0.7605(3)
H12 H 0.6571 0.2391 0.7694
C17 C 0.5917(5) 0.4006(5) 0.7592(2)
H13 H 0.6587 0.4409 0.7648
C18 C 0.5000 0.4633(9) 0.7500
C19 C 0.5000 0.5950(8) 0.7500
C20 C 0.5850(6) 0.6608(6) 0.7360(3)
H14 H 0.6432 0.6219 0.7256
C21 C 0.5812(6) 0.7820(6) 0.7380(3)
H15 H 0.6402 0.8251 0.7304
N2 N 0.5000 0.8428(6) 0.7500
C17F C 0.4083(5) 0.4006(5) 0.7408(2)
C16F C 0.4094(6) 0.2799(6) 0.7395(3)
H12F H 0.3429 0.2391 0.7306
H13F H 0.3413 0.4409 0.7352
C21F C 0.4188(6) 0.7820(6) 0.7620(3)
C20F C 0.4150(6) 0.6608(6) 0.7640(3)
H14F H 0.3568 0.6219 0.7744
H15F H 0.3598 0.8251 0.7696
O1F O 0.5900(4) 0.0372(4) 0.69727(17)
C1F C 0.5527(6) 0.0555(7) 0.6526(3)
C2F C 0.6353(7) 0.0907(9) 0.6222(3)
C3F C 0.7345(7) 0.1262(8) 0.6448(4)
H1F H 0.7507 0.1280 0.6796
C4F C 0.8118(9) 0.1593(12) 0.6194(5)
H2F H 0.8810 0.1822 0.6365
C5F C 0.7898(9) 0.1596(15) 0.5701(5)
H3F H 0.8437 0.1830 0.5525
C6F C 0.6904(10) 0.1264(16) 0.5450(5)
H4F H 0.6755 0.1265 0.5101
C7F C 0.6120(9) 0.0929(12) 0.5708(4)
H5F H 0.5424 0.0715 0.5537
C8F C 0.4445(6) 0.0470(9) 0.6301(3)
H6F H 0.4278 0.0598 0.5957
O2F O 0.3619(4) 0.0211(4) 0.69903(18)
C9F C 0.3573(6) 0.0210(7) 0.6537(3)
C10F C 0.2489(7) -0.0116(8) 0.6231(3)
C11F C 0.2231(8) 0.0038(13) 0.5733(4)
H7F H 0.2742 0.0378 0.5564
C12F C 0.1232(9) -0.0298(16) 0.5473(4)
H8F H 0.1041 -0.0146 0.5131
C13F C 0.0513(9) -0.0859(16) 0.5718(4)
H9F H -0.0149 -0.1143 0.5536
C14F C 0.0739(8) -0.1012(10) 0.6218(4)
H10F H 0.0224 -0.1349 0.6386
C15F C 0.1742(7) -0.0658(7) 0.6471(3)
H11F H 0.1925 -0.0788 0.6815
N2_2 N 0.5000 -0.1572(6) 0.7500
Ni1_2 Ni 0.5000 1.02997(11) 0.7500
O3 O 0.8724(9) 0.3268(17) 1.0052(4)
C22 C 0.8090(12) 0.338(2) 0.9655(6)
H16 H 0.7406 0.3731 0.9651
N3 N 0.8354(6) 0.3012(14) 0.9223(4)
C23 C 0.9443(12) 0.266(2) 0.9189(8)
H17 H 0.9660 0.3073 0.8912
H18 H 0.9466 0.1807 0.9137
H19 H 0.9935 0.2873 0.9494
C24 C 0.7606(14) 0.310(2) 0.8757(5)
H20 H 0.6937 0.2686 0.8782
H21 H 0.7926 0.2731 0.8498
H22 H 0.7451 0.3929 0.8677
O4? O 0.671(3) 0.363(4) 0.8860(16)
C25? C 0.729(3) 0.326(6) 0.9241(14)
H23? H 0.7003 0.3183 0.9531
N4? N 0.834(3) 0.296(4) 0.9250(14)
C26? C 0.875(3) 0.273(6) 0.8803(18)
H24? H 0.8168 0.2808 0.8518
H25? H 0.9047 0.1926 0.8814
H26? H 0.9322 0.3299 0.8776
C27? C 0.916(4) 0.303(6) 0.9696(18)
H27? H 0.9646 0.3682 0.9670
H28? H 0.9563 0.2285 0.9741
H29? H 0.8806 0.3155 0.9978
loop_
_geom_bond_atom_site_label_1
_geom_bond_atom_site_label_2
_geom_bond_site_symmetry_1
_geom_bond_site_symmetry_2
Ni1 O1 1_555 1_555
O1 C1 1_555 1_555
C1 C2 1_555 1_555
C2 C3 1_555 1_555
C3 H1 1_555 1_555
C4 C3 1_555 1_555
H2 C4 1_555 1_555
C5 C4 1_555 1_555
H3 C5 1_555 1_555
C6 C5 1_555 1_555
H4 C6 1_555 1_555
C7 C2 1_555 1_555
H5 C7 1_555 1_555
C8 C1 1_555 1_555
H6 C8 1_555 1_555
O2 Ni1 1_555 1_555
C9 C8 1_555 1_555
C10 C9 1_555 1_555
C11 C10 1_555 1_555
H7 C11 1_555 1_555
C12 C11 1_555 1_555
H8 C12 1_555 1_555
C13 C12 1_555 1_555
H9 C13 1_555 1_555
C14 C13 1_555 1_555
H10 C14 1_555 1_555
C15 C10 1_555 1_555
H11 C15 1_555 1_555
N1 Ni1 1_555 1_555
C16 N1 1_555 1_555
H12 C16 1_555 1_555
C17 C16 1_555 1_555
H13 C17 1_555 1_555
C18 C17 1_555 1_555
C19 C18 1_555 1_555
C20 C19 1_555 1_555
H14 C20 1_555 1_555
C21 C20 1_555 1_555
H15 C21 1_555 1_555
N2 C21 1_555 1_555
O3 C22 1_555 1_555
C22 H16 1_555 1_555
N3 C22 1_555 1_555
C23 N3 1_555 1_555
H17 C23 1_555 1_555
H18 C23 1_555 1_555
H19 C23 1_555 1_555
C24 N3 1_555 1_555
H20 C24 1_555 1_555
H21 C24 1_555 1_555
H22 C24 1_555 1_555
C17F C18 1_555 1_555
C16F N1 1_555 1_555
H12F C16F 1_555 1_555
H13F C17F 1_555 1_555
C21F N2 1_555 1_555
C20F C19 1_555 1_555
H14F C20F 1_555 1_555
H15F C21F 1_555 1_555
O1F Ni1 1_555 1_555
C1F O1F 1_555 1_555
C2F C1F 1_555 1_555
C3F C2F 1_555 1_555
H1F C3F 1_555 1_555
C4F C3F 1_555 1_555
H2F C4F 1_555 1_555
C5F C4F 1_555 1_555
H3F C5F 1_555 1_555
C6F C5F 1_555 1_555
H4F C6F 1_555 1_555
C7F C2F 1_555 1_555
H5F C7F 1_555 1_555
C8F C1F 1_555 1_555
H6F C8F 1_555 1_555
O2F Ni1 1_555 1_555
C9F C8F 1_555 1_555
C10F C9F 1_555 1_555
C11F C10F 1_555 1_555
H7F C11F 1_555 1_555
C12F C11F 1_555 1_555
H8F C12F 1_555 1_555
C13F C12F 1_555 1_555
H9F C13F 1_555 1_555
C14F C13F 1_555 1_555
H10F C14F 1_555 1_555
C15F C10F 1_555 1_555
H11F C15F 1_555 1_555
N2_2 Ni1 1_555 1_555
Ni1_2 N2 1_555 1_555
C6 C7 1_555 1_555
O2 C9 1_555 1_555
C14 C15 1_555 1_555
C17F C16F 1_555 1_555
C21F C20F 1_555 1_555
C6F C7F 1_555 1_555
O2F C9F 1_555 1_555
C14F C15F 1_555 1_555

#END
