
#######################################################################
#
#                 Cambridge Crystallographic Data Centre
#                                CCDC 
#
#######################################################################
#
# If this CIF has been generated from an entry in the Cambridge 
# Structural Database, then it will include bibliographic, chemical, 
# crystal, experimental, refinement or atomic coordinate data resulting 
# from the CCDC's data processing and validation procedures.
#
#######################################################################

data_AZIMAY
_symmetry_cell_setting           monoclinic
_symmetry_space_group_name_H-M   'C 2/c'
_symmetry_Int_Tables_number      15
_space_group_name_Hall           '-C 2yn'
loop_
_symmetry_equiv_pos_site_id
_symmetry_equiv_pos_as_xyz
1 x,y,z
2 -x,y,1/2-z
3 1/2+x,1/2+y,z
4 1/2-x,1/2+y,1/2-z
5 -x,-y,-z
6 x,-y,1/2+z
7 1/2-x,1/2-y,-z
8 1/2+x,1/2-y,1/2+z
_cell_length_a                   20.506(8)
_cell_length_b                   5.534(2)
_cell_length_c                   20.219(8)
_cell_angle_alpha                90
_cell_angle_beta                 103.507(7)
_cell_angle_gamma                90
_cell_volume                     2230.99
loop_
_atom_site_label
_atom_site_type_symbol
_atom_site_fract_x
_atom_site_fract_y
_atom_site_fract_z
Pb1 Pb 1.0000 0.51034(2) 0.7500
O1 O 0.99708(9) 0.2668(3) 0.85225(9)
O2 O 0.92275(9) 0.1874(3) 0.75719(9)
N1 N 0.88014(11) 0.6287(4) 0.64774(11)
C1 C 0.92142(13) -0.0604(5) 0.85353(14)
C2 C 0.86958(12) -0.2024(5) 0.81811(13)
H1 H 0.8510 -0.1701 0.7725
C3 C 0.84468(13) -0.3932(5) 0.84970(14)
C4 C 0.87334(17) -0.4373(6) 0.91770(17)
H2 H 0.8574 -0.5645 0.9395
C5 C 0.92466(16) -0.2977(6) 0.95346(14)
H3 H 0.9432 -0.3309 0.9991
C6 C 0.94919(15) -0.1064(6) 0.92180(14)
H4 H 0.9838 -0.0103 0.9461
C7 C 0.94876(12) 0.1458(5) 0.81944(13)
C8 C 0.78855(17) -0.5504(6) 0.8108(2)
H5 H 0.7464 -0.4889 0.8162
H6 H 0.7946 -0.7127 0.8279
H7 H 0.7890 -0.5497 0.7634
C9 C 0.82897(17) 0.4775(5) 0.62681(17)
H8 H 0.8279 0.3363 0.6514
C10 C 0.77682(16) 0.5196(4) 0.56991(16)
H9 H 0.7418 0.4095 0.5582
C11 C 0.77707(11) 0.7242(4) 0.53090(11)
C12 C 0.83066(13) 0.8809(5) 0.55292(14)
H10 H 0.8335 1.0222 0.5289
C13 C 0.87981(13) 0.8270(5) 0.61065(14)
H11 H 0.9148 0.9365 0.6243
Pb1F Pb 0.5000 0.98966(2) 0.2500
O1A O 1.00292(9) 0.2668(3) 0.64775(9)
O2A O 1.07725(9) 0.1874(3) 0.74281(9)
N1F N 0.61986(11) 0.8713(4) 0.35226(11)
N1A N 1.11986(11) 0.6287(4) 0.85226(11)
C1A C 1.07858(13) -0.0604(5) 0.64647(14)
C2A C 1.13042(12) -0.2024(5) 0.68189(13)
H1A H 1.1490 -0.1701 0.7275
C3A C 1.15532(13) -0.3932(5) 0.65030(14)
C4A C 1.12666(17) -0.4373(6) 0.58230(17)
H2A H 1.1426 -0.5645 0.5605
C5A C 1.07534(16) -0.2977(6) 0.54654(14)
H3A H 1.0568 -0.3309 0.5009
C6A C 1.05081(15) -0.1064(6) 0.57820(14)
H4A H 1.0162 -0.0103 0.5539
C7A C 1.05124(12) 0.1458(5) 0.68056(13)
C8A C 1.21145(17) -0.5504(6) 0.6892(2)
H5A H 1.2536 -0.4889 0.6838
H6A H 1.2054 -0.7127 0.6721
H7A H 1.2110 -0.5497 0.7366
C9F C 0.67103(17) 1.0225(5) 0.37319(17)
H8F H 0.6721 1.1637 0.3486
C10F C 0.72318(16) 0.9804(4) 0.43009(16)
H9F H 0.7582 1.0905 0.4418
C11F C 0.72293(11) 0.7758(4) 0.46910(11)
C12F C 0.66934(13) 0.6191(5) 0.44708(14)
H10F H 0.6665 0.4778 0.4711
C13F C 0.62019(13) 0.6730(5) 0.38935(14)
H11F H 0.5852 0.5635 0.3757
loop_
_geom_bond_atom_site_label_1
_geom_bond_atom_site_label_2
_geom_bond_site_symmetry_1
_geom_bond_site_symmetry_2
Pb1 O1 1_555 1_555
O1 C7 1_555 1_555
O2 Pb1 1_555 1_555
N1 Pb1 1_555 1_555
C1 C2 1_555 1_555
C2 H1 1_555 1_555
C3 C2 1_555 1_555
C4 C3 1_555 1_555
H2 C4 1_555 1_555
C5 C4 1_555 1_555
H3 C5 1_555 1_555
C6 C1 1_555 1_555
H4 C6 1_555 1_555
C7 O2 1_555 1_555
C8 C3 1_555 1_555
H5 C8 1_555 1_555
H6 C8 1_555 1_555
H7 C8 1_555 1_555
C9 N1 1_555 1_555
H8 C9 1_555 1_555
C10 C9 1_555 1_555
H9 C10 1_555 1_555
C11 C10 1_555 1_555
C12 C11 1_555 1_555
H10 C12 1_555 1_555
C13 N1 1_555 1_555
H11 C13 1_555 1_555
Pb1F N1F 1_555 1_555
O1A Pb1 1_555 1_555
O2A Pb1 1_555 1_555
N1F C9F 1_555 1_555
N1A Pb1 1_555 1_555
C1A C2A 1_555 1_555
C2A H1A 1_555 1_555
C3A C2A 1_555 1_555
C4A C3A 1_555 1_555
H2A C4A 1_555 1_555
C5A C4A 1_555 1_555
H3A C5A 1_555 1_555
C6A C1A 1_555 1_555
H4A C6A 1_555 1_555
C7A O1A 1_555 1_555
C8A C3A 1_555 1_555
H5A C8A 1_555 1_555
H6A C8A 1_555 1_555
H7A C8A 1_555 1_555
C9F H8F 1_555 1_555
C10F C9F 1_555 1_555
H9F C10F 1_555 1_555
C11F C11 1_555 1_555
C12F C11F 1_555 1_555
H10F C12F 1_555 1_555
C13F N1F 1_555 1_555
H11F C13F 1_555 1_555
C1 C7 1_555 1_555
C5 C6 1_555 1_555
C12 C13 1_555 1_555
O2A C7A 1_555 1_555
C1A C7A 1_555 1_555
C5A C6A 1_555 1_555
C10F C11F 1_555 1_555
C12F C13F 1_555 1_555

#END
