
#######################################################################
#
#                 Cambridge Crystallographic Data Centre
#                                CCDC 
#
#######################################################################
#
# If this CIF has been generated from an entry in the Cambridge 
# Structural Database, then it will include bibliographic, chemical, 
# crystal, experimental, refinement or atomic coordinate data resulting 
# from the CCDC's data processing and validation procedures.
#
#######################################################################

data_AZINOM
_symmetry_cell_setting           triclinic
_symmetry_space_group_name_H-M   'P 1'
_symmetry_Int_Tables_number      1
_space_group_name_Hall           'P 1'
loop_
_symmetry_equiv_pos_site_id
_symmetry_equiv_pos_as_xyz
1 x,y,z
_cell_length_a                   8.7574(9)
_cell_length_b                   14.8390(16)
_cell_length_c                   16.7222(18)
_cell_angle_alpha                86.462(2)
_cell_angle_beta                 77.099(2)
_cell_angle_gamma                73.170(2)
_cell_volume                     2027.48
loop_
_atom_site_label
_atom_site_type_symbol
_atom_site_fract_x
_atom_site_fract_y
_atom_site_fract_z
P1 P 0.86364(18) 0.65660(10) 0.62191(9)
P2 P 0.20671(18) 0.48330(11) 0.45958(9)
C1 C 0.8820(11) 0.6402(6) 0.3752(5)
N1 N 0.8648(11) 0.6099(6) 0.3179(5)
C2 C 0.8626(17) 0.5657(9) 0.2424(7)
C3 C 0.699(2) 0.6099(11) 0.2238(9)
H1 H 0.6180 0.5882 0.2624
H2 H 0.6993 0.5929 0.1693
H3 H 0.6731 0.6771 0.2278
C4 C 0.992(2) 0.5950(15) 0.1701(8)
H4 H 0.9683 0.6623 0.1680
H5 H 0.9869 0.5718 0.1188
H6 H 1.1003 0.5684 0.1801
C5 C 0.890(3) 0.4595(9) 0.2550(11)
H7 H 1.0020 0.4301 0.2570
H8 H 0.8640 0.4336 0.2102
H9 H 0.8205 0.4484 0.3055
C6 C 1.1488(9) 0.7553(5) 0.4460(4)
N2 N 1.2210(7) 0.8104(4) 0.4360(3)
C7 C 1.3171(10) 0.8781(5) 0.4221(5)
C8 C 1.2029(13) 0.9747(6) 0.4216(8)
H10 H 1.1570 0.9822 0.3737
H11 H 1.2614 1.0205 0.4209
H12 H 1.1168 0.9836 0.4699
C9 C 1.407(2) 0.8651(11) 0.4889(9)
H13 H 1.3306 0.8769 0.5408
H14 H 1.4722 0.9082 0.4818
H15 H 1.4766 0.8017 0.4877
C10 C 1.4352(17) 0.8519(8) 0.3391(8)
H16 H 1.4754 0.7846 0.3341
H17 H 1.5252 0.8777 0.3354
H18 H 1.3793 0.8769 0.2958
C11 C 0.7188(7) 0.7669(4) 0.6640(4)
C12 C 0.6125(8) 0.7710(5) 0.7398(4)
H19 H 0.6118 0.7160 0.7696
C13 C 0.5083(9) 0.8557(6) 0.7712(5)
H20 H 0.4373 0.8580 0.8220
C14 C 0.5091(9) 0.9358(6) 0.7281(6)
H21 H 0.4396 0.9930 0.7500
C15 C 0.6114(10) 0.9340(5) 0.6521(6)
H22 H 0.6100 0.9894 0.6227
C16 C 0.7164(8) 0.8488(4) 0.6197(5)
H23 H 0.7852 0.8469 0.5683
C17 C 1.0004(8) 0.6241(5) 0.6940(4)
C18 C 1.0245(11) 0.5398(7) 0.7357(5)
H24 H 0.9647 0.4987 0.7306
C19 C 1.1380(13) 0.5164(10) 0.7851(6)
H25 H 1.1567 0.4584 0.8114
C20 C 1.2220(13) 0.5770(11) 0.7957(6)
H26 H 1.2942 0.5617 0.8309
C21 C 1.2009(13) 0.6583(9) 0.7556(7)
H27 H 1.2595 0.6993 0.7627
C22 C 1.0901(10) 0.6836(6) 0.7019(6)
H28 H 1.0788 0.7396 0.6727
C23 C 0.1183(7) 0.3845(4) 0.4750(4)
C24 C -0.0351(8) 0.3973(5) 0.4588(5)
H29 H -0.0935 0.4564 0.4437
C25 C -0.1029(9) 0.3209(5) 0.4650(5)
H30 H -0.2051 0.3292 0.4533
C26 C -0.0176(10) 0.2355(6) 0.4880(5)
H31 H -0.0629 0.1854 0.4921
C27 C 0.1347(10) 0.2204(5) 0.5056(5)
H32 H 0.1907 0.1615 0.5224
C28 C 0.2016(9) 0.2948(5) 0.4976(5)
H33 H 0.3055 0.2849 0.5075
C29 C 0.3402(8) 0.4616(5) 0.3571(5)
C30 C 0.3097(16) 0.5249(8) 0.2961(6)
H34 H 0.2232 0.5794 0.3077
C31 C 0.404(2) 0.5101(12) 0.2174(8)
H35 H 0.3827 0.5546 0.1767
C32 C 0.527(2) 0.4301(13) 0.2005(8)
H36 H 0.5864 0.4180 0.1469
C33 C 0.5650(15) 0.3674(8) 0.2595(8)
H37 H 0.6551 0.3147 0.2474
C34 C 0.4688(10) 0.3817(6) 0.3391(5)
H38 H 0.4919 0.3372 0.3796
C35 C 0.7443(8) 0.5737(4) 0.6399(4)
H39 H 0.8161 0.5105 0.6273
H40 H 0.6900 0.5756 0.6973
C36 C 0.6182(8) 0.5962(4) 0.5874(4)
H41 H 0.5351 0.6540 0.6073
H42 H 0.6704 0.6071 0.5315
C37 C 0.5370(8) 0.5199(5) 0.5868(4)
H43 H 0.6207 0.4606 0.5726
H44 H 0.4749 0.5137 0.6416
C38 C 0.4261(8) 0.5372(5) 0.5285(4)
H45 H 0.4878 0.5434 0.4735
H46 H 0.3417 0.5962 0.5427
C39 C 0.3456(8) 0.4578(5) 0.5291(4)
H47 H 0.2861 0.4503 0.5843
H48 H 0.4295 0.3991 0.5131
Ag1 Ag 1.01880(5) 0.64806(3) 0.47840(3)
Ag1_2 Ag 0.01880(5) 0.64806(3) 0.47840(3)
P2_2 P 1.20671(18) 0.48330(11) 0.45958(9)
P3 P 0.29512(16) 0.23671(10) 0.94238(9)
P4 P 1.11889(15) 0.08015(9) 1.11283(8)
C40 C 0.1378(7) 0.0436(4) 0.8752(4)
N3 N 0.0732(6) 0.0402(4) 0.8237(3)
C41 C -0.0106(9) 0.0371(6) 0.7570(4)
C42 C 0.026(2) 0.1108(18) 0.6978(9)
H49 H -0.0202 0.1715 0.7237
H50 H -0.0204 0.1097 0.6511
H51 H 0.1422 0.0990 0.6802
C43 C -0.1907(9) 0.0611(7) 0.7912(6)
H52 H -0.2140 0.0143 0.8305
H53 H -0.2465 0.0628 0.7476
H54 H -0.2272 0.1216 0.8175
C44 C 0.0552(16) -0.0599(11) 0.7207(9)
H55 H 0.1710 -0.0734 0.7002
H56 H 0.0035 -0.0636 0.6766
H57 H 0.0332 -0.1050 0.7621
C45 C 0.5051(7) -0.0392(4) 0.9607(4)
N4 N 0.6144(7) -0.0980(4) 0.9702(3)
C46 C 0.7556(9) -0.1746(5) 0.9847(5)
C47 C 0.7969(15) -0.2491(7) 0.9228(9)
H58 H 0.8484 -0.2283 0.8711
H59 H 0.6989 -0.2626 0.9173
H60 H 0.8701 -0.3049 0.9397
C48 C 0.696(2) -0.2217(11) 1.0636(11)
H61 H 0.7705 -0.2830 1.0669
H62 H 0.5896 -0.2275 1.0646
H63 H 0.6911 -0.1842 1.1095
C49 C 0.8882(16) -0.1356(8) 0.9873(14)
H64 H 0.8990 -0.0924 0.9427
H65 H 0.9881 -0.1856 0.9825
H66 H 0.8653 -0.1031 1.0383
C50 C 0.4073(6) 0.2602(4) 0.8409(3)
C51 C 0.4927(8) 0.3267(5) 0.8262(4)
H67 H 0.4943 0.3635 0.8689
C52 C 0.5763(9) 0.3378(5) 0.7468(5)
H68 H 0.6366 0.3812 0.7367
C53 C 0.5706(9) 0.2853(6) 0.6829(4)
H69 H 0.6283 0.2930 0.6302
C54 C 0.4816(10) 0.2226(5) 0.6961(4)
H70 H 0.4747 0.1890 0.6525
C55 C 0.4016(8) 0.2091(4) 0.7746(4)
H71 H 0.3424 0.1651 0.7838
C56 C 0.1037(7) 0.3305(5) 0.9529(4)
C57 C 0.0758(12) 0.4145(7) 0.9880(7)
H72 H 0.1556 0.4262 1.0110
C58 C -0.0712(15) 0.4840(8) 0.9902(8)
H73 H -0.0861 0.5422 1.0133
C59 C -0.1895(12) 0.4700(9) 0.9607(8)
H74 H -0.2865 0.5176 0.9623
C60 C -0.1679(10) 0.3881(9) 0.9292(9)
H75 H -0.2533 0.3766 0.9109
C61 C -0.0186(9) 0.3157(6) 0.9220(7)
H76 H -0.0043 0.2590 0.8966
C62 C 1.0779(6) -0.0255(4) 1.1640(3)
C63 C 0.9746(8) -0.0204(5) 1.2405(4)
H77 H 0.9205 0.0375 1.2660
C64 C 0.9526(10) -0.1034(6) 1.2790(5)
H78 H 0.8804 -0.1011 1.3294
C65 C 1.0377(13) -0.1877(6) 1.2421(5)
H79 H 1.0254 -0.2429 1.2687
C66 C 1.1415(11) -0.1933(5) 1.1663(5)
H80 H 1.1989 -0.2516 1.1422
C67 C 1.1595(8) -0.1119(4) 1.1266(4)
H81 H 1.2264 -0.1149 1.0745
C68 C 1.2237(7) 0.1170(4) 1.1822(3)
C69 C 1.3806(7) 0.0602(4) 1.1840(4)
H82 H 1.4272 0.0076 1.1501
C70 C 1.4675(9) 0.0820(6) 1.2363(4)
H83 H 1.5711 0.0431 1.2380
C71 C 1.4016(9) 0.1608(5) 1.2856(4)
H84 H 1.4602 0.1752 1.3205
C72 C 1.2488(9) 0.2177(6) 1.2826(4)
H85 H 1.2045 0.2716 1.3152
C73 C 1.1590(8) 0.1958(5) 1.2313(4)
H86 H 1.0549 0.2346 1.2303
C74 C 0.4013(7) 0.2676(4) 1.0142(3)
H87 H 0.4161 0.3294 1.0007
H88 H 0.3348 0.2704 1.0693
C75 C 0.5663(6) 0.1968(4) 1.0118(3)
H89 H 0.6334 0.1957 0.9570
H90 H 0.5511 0.1347 1.0229
C76 C 0.6560(6) 0.2177(4) 1.0729(4)
H91 H 0.5875 0.2217 1.1276
H92 H 0.6771 0.2782 1.0601
C77 C 0.8168(7) 0.1424(4) 1.0714(3)
H93 H 0.8802 0.1340 1.0155
H94 H 0.7945 0.0832 1.0894
C78 C 0.9190(7) 0.1672(4) 1.1270(3)
H95 H 0.8623 0.1681 1.1840
H96 H 0.9325 0.2293 1.1132
Ag2 Ag 0.26897(3) 0.07181(2) 0.96541(2)
Ag2_2 Ag 1.26897(3) 0.07181(2) 0.96541(2)
P4_2 P 0.11889(15) 0.08015(9) 1.11283(8)
B1 B 0.3630(12) 0.6170(9) 0.9811(6)
F1 F 0.4339(7) 0.6325(4) 1.0423(4)
F2 F 0.4356(12) 0.6499(9) 0.9123(5)
F3 F 0.2031(7) 0.6491(5) 0.9973(5)
F4 F 0.4042(8) 0.5222(5) 0.9688(6)
B2 B 0.6631(13) 0.1071(10) 0.4622(9)
F5 F 0.7793(8) 0.0673(6) 0.5025(7)
F6 F 0.6085(14) 0.2008(12) 0.4927(8)
F7 F 0.538(3) 0.0753(17) 0.469(3)
F8 F 0.724(2) 0.1281(18) 0.3809(10)
F9? F 0.655(4) 0.035(3) 0.4139(18)
F10? F 0.662(7) 0.177(4) 0.418(5)
F11? F 0.516(3) 0.113(2) 0.5125(13)
loop_
_geom_bond_atom_site_label_1
_geom_bond_atom_site_label_2
_geom_bond_site_symmetry_1
_geom_bond_site_symmetry_2
P1 C11 1_555 1_555
P2 C23 1_555 1_555
C1 N1 1_555 1_555
N1 C2 1_555 1_555
C2 C3 1_555 1_555
C3 H1 1_555 1_555
H2 C3 1_555 1_555
H3 C3 1_555 1_555
C4 C2 1_555 1_555
H4 C4 1_555 1_555
H5 C4 1_555 1_555
H6 C4 1_555 1_555
C5 C2 1_555 1_555
H7 C5 1_555 1_555
H8 C5 1_555 1_555
H9 C5 1_555 1_555
C6 N2 1_555 1_555
N2 C7 1_555 1_555
C7 C8 1_555 1_555
C8 H10 1_555 1_555
H11 C8 1_555 1_555
H12 C8 1_555 1_555
C9 C7 1_555 1_555
H13 C9 1_555 1_555
H14 C9 1_555 1_555
H15 C9 1_555 1_555
C10 C7 1_555 1_555
H16 C10 1_555 1_555
H17 C10 1_555 1_555
H18 C10 1_555 1_555
C11 C12 1_555 1_555
C12 H19 1_555 1_555
C13 C12 1_555 1_555
H20 C13 1_555 1_555
C14 C13 1_555 1_555
H21 C14 1_555 1_555
C15 C14 1_555 1_555
H22 C15 1_555 1_555
C16 C11 1_555 1_555
H23 C16 1_555 1_555
C17 P1 1_555 1_555
C18 C17 1_555 1_555
H24 C18 1_555 1_555
C19 C18 1_555 1_555
H25 C19 1_555 1_555
C20 C19 1_555 1_555
H26 C20 1_555 1_555
C21 C20 1_555 1_555
H27 C21 1_555 1_555
C22 C17 1_555 1_555
H28 C22 1_555 1_555
C23 C24 1_555 1_555
C24 H29 1_555 1_555
C25 C24 1_555 1_555
H30 C25 1_555 1_555
C26 C25 1_555 1_555
H31 C26 1_555 1_555
C27 C26 1_555 1_555
H32 C27 1_555 1_555
C28 C23 1_555 1_555
H33 C28 1_555 1_555
C29 P2 1_555 1_555
C30 C29 1_555 1_555
H34 C30 1_555 1_555
C31 C30 1_555 1_555
H35 C31 1_555 1_555
C32 C31 1_555 1_555
H36 C32 1_555 1_555
C33 C32 1_555 1_555
H37 C33 1_555 1_555
C34 C29 1_555 1_555
H38 C34 1_555 1_555
C35 P1 1_555 1_555
H39 C35 1_555 1_555
H40 C35 1_555 1_555
C36 C35 1_555 1_555
H41 C36 1_555 1_555
H42 C36 1_555 1_555
C37 C36 1_555 1_555
H43 C37 1_555 1_555
H44 C37 1_555 1_555
C38 C37 1_555 1_555
H45 C38 1_555 1_555
H46 C38 1_555 1_555
C39 P2 1_555 1_555
H47 C39 1_555 1_555
H48 C39 1_555 1_555
P3 C50 1_555 1_555
P4 C62 1_555 1_555
C40 N3 1_555 1_555
N3 C41 1_555 1_555
C41 C42 1_555 1_555
C42 H49 1_555 1_555
H50 C42 1_555 1_555
H51 C42 1_555 1_555
C43 C41 1_555 1_555
H52 C43 1_555 1_555
H53 C43 1_555 1_555
H54 C43 1_555 1_555
C44 C41 1_555 1_555
H55 C44 1_555 1_555
H56 C44 1_555 1_555
H57 C44 1_555 1_555
C45 N4 1_555 1_555
N4 C46 1_555 1_555
C46 C47 1_555 1_555
C47 H58 1_555 1_555
H59 C47 1_555 1_555
H60 C47 1_555 1_555
C48 C46 1_555 1_555
H61 C48 1_555 1_555
H62 C48 1_555 1_555
H63 C48 1_555 1_555
C49 C46 1_555 1_555
H64 C49 1_555 1_555
H65 C49 1_555 1_555
H66 C49 1_555 1_555
C50 C51 1_555 1_555
C51 H67 1_555 1_555
C52 C51 1_555 1_555
H68 C52 1_555 1_555
C53 C52 1_555 1_555
H69 C53 1_555 1_555
C54 C53 1_555 1_555
H70 C54 1_555 1_555
C55 C50 1_555 1_555
H71 C55 1_555 1_555
C56 P3 1_555 1_555
C57 C56 1_555 1_555
H72 C57 1_555 1_555
C58 C57 1_555 1_555
H73 C58 1_555 1_555
C59 C58 1_555 1_555
H74 C59 1_555 1_555
C60 C59 1_555 1_555
H75 C60 1_555 1_555
C61 C56 1_555 1_555
H76 C61 1_555 1_555
C62 C63 1_555 1_555
C63 H77 1_555 1_555
C64 C63 1_555 1_555
H78 C64 1_555 1_555
C65 C64 1_555 1_555
H79 C65 1_555 1_555
C66 C65 1_555 1_555
H80 C66 1_555 1_555
C67 C62 1_555 1_555
H81 C67 1_555 1_555
C68 P4 1_555 1_555
C69 C68 1_555 1_555
H82 C69 1_555 1_555
C70 C69 1_555 1_555
H83 C70 1_555 1_555
C71 C70 1_555 1_555
H84 C71 1_555 1_555
C72 C71 1_555 1_555
H85 C72 1_555 1_555
C73 C68 1_555 1_555
H86 C73 1_555 1_555
C74 P3 1_555 1_555
H87 C74 1_555 1_555
H88 C74 1_555 1_555
C75 C74 1_555 1_555
H89 C75 1_555 1_555
H90 C75 1_555 1_555
C76 C75 1_555 1_555
H91 C76 1_555 1_555
H92 C76 1_555 1_555
C77 C76 1_555 1_555
H93 C77 1_555 1_555
H94 C77 1_555 1_555
C78 P4 1_555 1_555
H95 C78 1_555 1_555
H96 C78 1_555 1_555
B1 F1 1_555 1_555
B2 F5 1_555 1_555
F2 B1 1_555 1_555
F3 B1 1_555 1_555
F4 B1 1_555 1_555
F6 B2 1_555 1_555
F7 B2 1_555 1_555
F8 B2 1_555 1_555
Ag1 P1 1_555 1_555
Ag2 P3 1_555 1_555
Ag1_2 P2 1_555 1_555
Ag2_2 P4 1_555 1_555
P2_2 Ag1 1_555 1_555
P4_2 Ag2 1_555 1_555
C1 Ag1 1_555 1_555
C6 Ag1 1_555 1_555
C15 C16 1_555 1_555
C21 C22 1_555 1_555
C27 C28 1_555 1_555
C33 C34 1_555 1_555
C38 C39 1_555 1_555
C40 Ag2 1_555 1_555
C45 Ag2 1_555 1_555
C54 C55 1_555 1_555
C60 C61 1_555 1_555
C66 C67 1_555 1_555
C72 C73 1_555 1_555
C77 C78 1_555 1_555

#END
