
#######################################################################
#
#                 Cambridge Crystallographic Data Centre
#                                CCDC 
#
#######################################################################
#
# If this CIF has been generated from an entry in the Cambridge 
# Structural Database, then it will include bibliographic, chemical, 
# crystal, experimental, refinement or atomic coordinate data resulting 
# from the CCDC's data processing and validation procedures.
#
#######################################################################

data_AZINIG
_symmetry_cell_setting           triclinic
_symmetry_space_group_name_H-M   'P -1'
_symmetry_Int_Tables_number      2
_space_group_name_Hall           '-P 1'
loop_
_symmetry_equiv_pos_site_id
_symmetry_equiv_pos_as_xyz
1 x,y,z
2 -x,-y,-z
_cell_length_a                   11.4175(12)
_cell_length_b                   17.7558(19)
_cell_length_c                   23.465(3)
_cell_angle_alpha                90.565(2)
_cell_angle_beta                 92.498(2)
_cell_angle_gamma                94.076(2)
_cell_volume                     4740.04
loop_
_atom_site_label
_atom_site_type_symbol
_atom_site_fract_x
_atom_site_fract_y
_atom_site_fract_z
B1 B 0.7587(11) 0.8894(6) 0.9724(5)
F1 F 0.7442(5) 0.9174(4) 0.9218(2)
F2 F 0.8161(6) 0.8257(4) 0.9741(4)
F3 F 0.6470(6) 0.8700(5) 0.9918(3)
F4 F 0.8193(8) 0.9386(4) 1.0066(3)
B2 B 0.7253(10) 0.6244(5) 0.5439(5)
F5 F 0.6763(6) 0.6849(4) 0.5645(4)
F6 F 0.7504(5) 0.5770(3) 0.5860(2)
F7 F 0.6537(7) 0.5901(5) 0.5049(3)
F8 F 0.8302(6) 0.6505(4) 0.5228(2)
N3 N 0.1973(7) 0.8027(5) 0.0860(4)
C97 C 0.2605(8) 0.8481(5) 0.0680(4)
C98 C 0.3427(8) 0.9068(6) 0.0449(4)
N4 N 0.3219(8) 0.6855(5) 0.4324(4)
C99 C 0.2502(18) 0.6404(11) 0.4443(10)
C100 C 0.1601(19) 0.5815(11) 0.4666(10)
Ag1 Ag 0.14141(2) 0.500661(18) 0.202390(14)
P1 P 0.22315(9) 0.48572(6) 0.10525(5)
P2 P 0.05786(9) 0.36822(6) 0.21519(5)
P3 P 0.02445(9) 0.61233(6) 0.21181(5)
P4 P 0.48266(9) 0.87058(6) 0.29540(5)
P5 P 0.44085(9) 0.11209(6) 0.28014(5)
P6 P 0.27575(9) 1.00135(6) 0.39463(5)
C1 C 0.3032(4) 0.5134(3) 0.2603(2)
N1 N 0.3912(3) 0.5144(2) 0.28576(18)
C2 C 0.5062(4) 0.5149(3) 0.3164(3)
C3 C 0.5271(7) 0.4327(4) 0.3283(4)
H1 H 0.4684 0.4119 0.3542
H2 H 0.6059 0.4295 0.3459
H3 H 0.5203 0.4037 0.2924
C4 C 0.5954(6) 0.5493(6) 0.2766(3)
H4 H 0.5799 0.6021 0.2697
H5 H 0.5894 0.5211 0.2404
H6 H 0.6746 0.5469 0.2941
C5 C 0.5016(6) 0.5616(4) 0.3690(3)
H7 H 0.4439 0.5377 0.3941
H8 H 0.4786 0.6120 0.3588
H9 H 0.5792 0.5659 0.3887
C6 C 0.3301(4) 0.4132(3) 0.11039(19)
C7 C 0.3083(4) 0.3405(2) 0.0889(2)
H10 H 0.2365 0.3263 0.0684
C8 C 0.3926(4) 0.2883(3) 0.0976(2)
H11 H 0.3779 0.2383 0.0830
C9 C 0.4980(5) 0.3088(3) 0.1276(2)
H12 H 0.5555 0.2731 0.1332
C10 C 0.5184(5) 0.3806(3) 0.1488(2)
H13 H 0.5900 0.3947 0.1696
C11 C 0.4353(4) 0.4332(3) 0.1404(2)
H14 H 0.4505 0.4830 0.1552
C12 C 0.3159(3) 0.5640(2) 0.07965(19)
C13 C 0.3713(4) 0.5599(3) 0.02808(19)
H15 H 0.3595 0.5152 0.0053
C14 C 0.4426(4) 0.6194(3) 0.0096(2)
H16 H 0.4785 0.6161 -0.0260
C15 C 0.4620(4) 0.6837(3) 0.0429(2)
H17 H 0.5107 0.7251 0.0299
C16 C 0.4112(4) 0.6882(3) 0.0948(3)
H18 H 0.4263 0.7323 0.1179
C17 C 0.3386(4) 0.6290(3) 0.1132(2)
H19 H 0.3037 0.6326 0.1491
C18 C 0.1268(3) 0.4561(2) 0.04358(18)
H20 H 0.1758 0.4480 0.0106
H21 H 0.0845 0.4072 0.0521
C19 C 0.0369(3) 0.5126(2) 0.02698(18)
H22 H -0.0159 0.5184 0.0589
H23 H 0.0784 0.5624 0.0204
C20 C -0.0332(4) 0.3377(2) 0.15223(19)
C21 C -0.1214(4) 0.3844(3) 0.1349(2)
H24 H -0.1351 0.4271 0.1576
C22 C -0.1880(4) 0.3695(3) 0.0858(2)
H25 H -0.2474 0.4020 0.0748
C23 C -0.1703(5) 0.3088(3) 0.0525(2)
H26 H -0.2176 0.2987 0.0186
C24 C -0.0839(5) 0.2619(3) 0.0679(3)
H27 H -0.0701 0.2200 0.0442
C25 C -0.0166(5) 0.2760(3) 0.1183(2)
H28 H 0.0415 0.2426 0.1294
C26 C -0.0351(4) 0.3539(2) 0.27526(19)
C27 C 0.0135(4) 0.3762(3) 0.3291(2)
H29 H 0.0930 0.3961 0.3328
C28 C -0.0521(5) 0.3698(3) 0.3767(2)
H30 H -0.0179 0.3849 0.4130
C29 C -0.1683(5) 0.3414(3) 0.3716(3)
H31 H -0.2137 0.3373 0.4045
C30 C -0.2181(4) 0.3191(3) 0.3197(2)
H32 H -0.2977 0.2994 0.3167
C31 C -0.1527(4) 0.3251(3) 0.2710(2)
H33 H -0.1877 0.3097 0.2349
C32 C -0.0868(3) 0.6268(2) 0.15580(19)
C33 C -0.0652(4) 0.6763(3) 0.1113(2)
H34 H 0.0083 0.7048 0.1106
C34 C -0.1496(4) 0.6845(3) 0.0681(2)
H35 H -0.1346 0.7189 0.0381
C35 C -0.2547(4) 0.6427(3) 0.0689(2)
H36 H -0.3123 0.6480 0.0391
C36 C -0.2786(4) 0.5931(3) 0.1123(2)
H37 H -0.3523 0.5647 0.1127
C37 C -0.1935(4) 0.5853(3) 0.1552(2)
H38 H -0.2091 0.5505 0.1849
C38 C -0.0534(4) 0.6240(2) 0.2768(2)
C39 C -0.1177(4) 0.6859(3) 0.2858(2)
H39 H -0.1264 0.7217 0.2564
C40 C -0.1688(4) 0.6959(3) 0.3369(2)
H40 H -0.2103 0.7395 0.3431
C41 C -0.1606(5) 0.6433(3) 0.3791(3)
H41 H -0.1975 0.6499 0.4141
C42 C -0.0996(6) 0.5822(4) 0.3704(3)
H42 H -0.0936 0.5459 0.3997
C43 C -0.0455(5) 0.5717(3) 0.3194(2)
H43 H -0.0030 0.5283 0.3138
C44 C 0.1163(3) 0.7005(2) 0.21051(19)
H44 H 0.1516 0.7054 0.1728
H45 H 0.0666 0.7433 0.2155
C45 C 0.2141(4) 0.7048(2) 0.25691(19)
H46 H 0.1793 0.7048 0.2948
H47 H 0.2602 0.6599 0.2541
C46 C 0.2950(4) 0.7760(2) 0.2512(2)
H48 H 0.2485 0.8208 0.2533
H49 H 0.3304 0.7756 0.2134
C47 C 0.3930(4) 0.7818(2) 0.29806(19)
H50 H 0.4437 0.7393 0.2937
H51 H 0.3577 0.7775 0.3358
C48 C 0.5628(3) 0.8582(2) 0.23114(19)
C49 C 0.6290(4) 0.7966(3) 0.2236(2)
H52 H 0.6371 0.7615 0.2536
C50 C 0.6826(4) 0.7859(3) 0.1738(2)
H53 H 0.7259 0.7428 0.1688
C51 C 0.6745(4) 0.8376(3) 0.1303(2)
H54 H 0.7113 0.8299 0.0954
C52 C 0.6132(4) 0.8995(3) 0.1381(2)
H55 H 0.6095 0.9360 0.1088
C53 C 0.5562(4) 0.9099(3) 0.1879(2)
H56 H 0.5122 0.9528 0.1924
C54 C 0.5940(4) 0.8589(2) 0.3528(2)
C55 C 0.5718(4) 0.8119(3) 0.3985(2)
H57 H 0.4981 0.7837 0.4000
C56 C 0.6566(4) 0.8060(3) 0.4418(2)
H58 H 0.6415 0.7732 0.4728
C57 C 0.7622(4) 0.8473(3) 0.4401(2)
H59 H 0.8201 0.8429 0.4700
C58 C 0.7856(4) 0.8951(3) 0.3954(3)
H60 H 0.8588 0.9239 0.3945
C59 C 0.7013(4) 0.9004(3) 0.3520(2)
H61 H 0.7170 0.9331 0.3210
C60 C 0.5348(4) 0.1263(2) 0.21973(19)
C61 C 0.4862(4) 0.1042(3) 0.1669(2)
H62 H 0.4061 0.0858 0.1632
C62 C 0.5533(5) 0.1085(3) 0.1188(2)
H63 H 0.5194 0.0933 0.0824
C63 C 0.6704(5) 0.1353(3) 0.1247(2)
H64 H 0.7174 0.1374 0.0923
C64 C 0.7187(4) 0.1587(3) 0.1763(2)
H65 H 0.7983 0.1784 0.1794
C65 C 0.6520(4) 0.1541(3) 0.2250(2)
H66 H 0.6863 0.1697 0.2612
C66 C 0.5281(4) 0.1480(2) 0.34266(19)
C67 C 0.6220(4) 0.1062(3) 0.3610(2)
H67 H 0.6410 0.0638 0.3391
C68 C 0.6864(4) 0.1256(3) 0.4098(2)
H68 H 0.7501 0.0970 0.4216
C69 C 0.6595(5) 0.1865(3) 0.4418(2)
H69 H 0.7053 0.2003 0.4756
C70 C 0.5673(5) 0.2270(3) 0.4256(2)
H70 H 0.5475 0.2682 0.4485
C71 C 0.5018(4) 0.2082(3) 0.3753(2)
H71 H 0.4386 0.2373 0.3637
C72 C 0.3283(4) 0.1790(3) 0.2686(2)
H72 H 0.2720 0.1575 0.2384
H73 H 0.2847 0.1815 0.3041
C73 C 0.3629(5) 0.2549(3) 0.2531(3)
H74 H 0.3849 0.2551 0.2127
H75 H 0.4334 0.2729 0.2767
C74 C 0.2665(5) 0.3099(4) 0.2605(3)
H76 H 0.2414 0.3074 0.3003
H77 H 0.3002 0.3619 0.2541
C77 C 0.1648(4) 0.2950(3) 0.2225(2)
C78 C 0.1854(3) 0.9245(2) 0.4246(2)
C79 C 0.1708(4) 0.8551(3) 0.3962(3)
H84 H 0.2097 0.8478 0.3618
C80 C 0.1003(5) 0.7970(3) 0.4177(3)
H85 H 0.0888 0.7502 0.3976
C81 C 0.0461(4) 0.8066(3) 0.4687(3)
H86 H 0.0003 0.7659 0.4845
C82 C 0.0590(4) 0.8753(3) 0.4963(2)
H87 H 0.0203 0.8824 0.5308
C83 C 0.1272(4) 0.9341(3) 0.4746(2)
H88 H 0.1347 0.9815 0.4939
C84 C 0.1667(4) 1.0709(2) 0.38508(19)
C85 C 0.0627(4) 1.0495(3) 0.3552(2)
H89 H 0.0476 0.9984 0.3432
C86 C -0.0196(4) 1.1004(3) 0.3425(2)
H90 H -0.0906 1.0842 0.3219
C87 C 0.0007(5) 1.1751(3) 0.3595(2)
H91 H -0.0561 1.2104 0.3510
C88 C 0.1044(4) 1.1978(3) 0.3892(2)
H92 H 0.1193 1.2490 0.4009
C89 C 0.1875(4) 1.1461(3) 0.4020(2)
H93 H 0.2587 1.1622 0.4224
C90 C 0.3710(3) 1.0376(2) 0.45527(19)
H94 H 0.4104 1.0867 0.4448
H95 H 0.3216 1.0467 0.4879
C91 C 0.4639(3) 0.9850(2) 0.47390(19)
H96 H 0.5168 0.9782 0.4422
H97 H 0.4253 0.9350 0.4825
C92 C 0.2023(4) 0.9683(3) 0.2391(2)
N2 N 0.1177(3) 0.9701(2) 0.21253(18)
C93 C 0.0061(5) 0.9753(4) 0.1796(3)
C94 C -0.0898(6) 0.9475(6) 0.2181(3)
H98 H -0.0839 0.8936 0.2252
H99 H -0.1666 0.9552 0.1997
H100 H -0.0811 0.9755 0.2544
C95 C 0.0073(6) 0.9276(5) 0.1276(3)
H101 H 0.0110 0.8746 0.1384
H102 H 0.0762 0.9433 0.1059
H103 H -0.0644 0.9332 0.1040
C96 C -0.0024(8) 1.0601(5) 0.1676(4)
H104 H 0.0598 1.0774 0.1423
H105 H 0.0068 1.0888 0.2036
H106 H -0.0793 1.0678 0.1492
Ag2 Ag 0.36191(2) 0.980179(18) 0.299485(14)
Ag2_2 Ag 0.36191(2) -0.019821(18) 0.299485(14)
C19A C -0.0369(3) 0.4874(2) -0.02698(18)
C91A C 0.5361(3) 1.0150(2) 0.52610(19)
P5_2 P 0.44085(9) 1.11209(6) 0.28014(5)
C75? C 0.2285(13) 1.1712(9) 0.2291(8)
H78? H 0.1945 1.1206 0.2329
H79? H 0.2580 1.1751 0.1915
C76? C 0.1304(11) 1.2267(8) 0.2345(6)
H80? H 0.1024 1.2257 0.2725
H81? H 0.0661 1.2095 0.2088
H82? H 0.1035 1.3301 0.2300
H83? H 0.1859 1.2993 0.1821
C101? C 0.3289(18) 0.6386(11) 0.4651(7)
C102? C 0.3330(18) 0.5706(10) 0.5057(9)
loop_
_geom_bond_atom_site_label_1
_geom_bond_atom_site_label_2
_geom_bond_site_symmetry_1
_geom_bond_site_symmetry_2
Ag1 P1 1_555 1_555
P1 C6 1_555 1_555
P2 Ag1 1_555 1_555
P3 Ag1 1_555 1_555
P4 C47 1_555 1_555
P5 C60 1_555 1_555
P6 C78 1_555 1_555
C1 Ag1 1_555 1_555
N1 C1 1_555 1_555
C2 N1 1_555 1_555
C3 C2 1_555 1_555
H1 C3 1_555 1_555
H2 C3 1_555 1_555
H3 C3 1_555 1_555
C4 C2 1_555 1_555
H4 C4 1_555 1_555
H5 C4 1_555 1_555
H6 C4 1_555 1_555
C5 C2 1_555 1_555
H7 C5 1_555 1_555
H8 C5 1_555 1_555
H9 C5 1_555 1_555
C6 C7 1_555 1_555
C7 H10 1_555 1_555
C8 C7 1_555 1_555
H11 C8 1_555 1_555
C9 C8 1_555 1_555
H12 C9 1_555 1_555
C10 C9 1_555 1_555
H13 C10 1_555 1_555
C11 C6 1_555 1_555
H14 C11 1_555 1_555
C12 P1 1_555 1_555
C13 C12 1_555 1_555
H15 C13 1_555 1_555
C14 C13 1_555 1_555
H16 C14 1_555 1_555
C15 C14 1_555 1_555
H17 C15 1_555 1_555
C16 C15 1_555 1_555
H18 C16 1_555 1_555
C17 C12 1_555 1_555
H19 C17 1_555 1_555
C18 P1 1_555 1_555
H20 C18 1_555 1_555
H21 C18 1_555 1_555
C19 C18 1_555 1_555
H22 C19 1_555 1_555
H23 C19 1_555 1_555
C20 P2 1_555 1_555
C21 C20 1_555 1_555
H24 C21 1_555 1_555
C22 C21 1_555 1_555
H25 C22 1_555 1_555
C23 C22 1_555 1_555
H26 C23 1_555 1_555
C24 C23 1_555 1_555
H27 C24 1_555 1_555
C25 C20 1_555 1_555
H28 C25 1_555 1_555
C26 P2 1_555 1_555
C27 C26 1_555 1_555
H29 C27 1_555 1_555
C28 C27 1_555 1_555
H30 C28 1_555 1_555
C29 C28 1_555 1_555
H31 C29 1_555 1_555
C30 C29 1_555 1_555
H32 C30 1_555 1_555
C31 C26 1_555 1_555
H33 C31 1_555 1_555
C32 P3 1_555 1_555
C33 C32 1_555 1_555
H34 C33 1_555 1_555
C34 C33 1_555 1_555
H35 C34 1_555 1_555
C35 C34 1_555 1_555
H36 C35 1_555 1_555
C36 C35 1_555 1_555
H37 C36 1_555 1_555
C37 C32 1_555 1_555
H38 C37 1_555 1_555
C38 P3 1_555 1_555
C39 C38 1_555 1_555
H39 C39 1_555 1_555
C40 C39 1_555 1_555
H40 C40 1_555 1_555
C41 C40 1_555 1_555
H41 C41 1_555 1_555
C42 C41 1_555 1_555
H42 C42 1_555 1_555
C43 C38 1_555 1_555
H43 C43 1_555 1_555
C44 P3 1_555 1_555
H44 C44 1_555 1_555
H45 C44 1_555 1_555
C45 C44 1_555 1_555
H46 C45 1_555 1_555
H47 C45 1_555 1_555
C46 C45 1_555 1_555
H48 C46 1_555 1_555
H49 C46 1_555 1_555
C47 C46 1_555 1_555
H50 C47 1_555 1_555
H51 C47 1_555 1_555
C48 P4 1_555 1_555
C49 C48 1_555 1_555
H52 C49 1_555 1_555
C50 C49 1_555 1_555
H53 C50 1_555 1_555
C51 C50 1_555 1_555
H54 C51 1_555 1_555
C52 C51 1_555 1_555
H55 C52 1_555 1_555
C53 C48 1_555 1_555
H56 C53 1_555 1_555
C54 P4 1_555 1_555
C55 C54 1_555 1_555
H57 C55 1_555 1_555
C56 C55 1_555 1_555
H58 C56 1_555 1_555
C57 C56 1_555 1_555
H59 C57 1_555 1_555
C58 C57 1_555 1_555
H60 C58 1_555 1_555
C59 C54 1_555 1_555
H61 C59 1_555 1_555
C60 C61 1_555 1_555
C61 H62 1_555 1_555
C62 C61 1_555 1_555
H63 C62 1_555 1_555
C63 C62 1_555 1_555
H64 C63 1_555 1_555
C64 C63 1_555 1_555
H65 C64 1_555 1_555
C65 C60 1_555 1_555
H66 C65 1_555 1_555
C66 P5 1_555 1_555
C67 C66 1_555 1_555
H67 C67 1_555 1_555
C68 C67 1_555 1_555
H68 C68 1_555 1_555
C69 C68 1_555 1_555
H69 C69 1_555 1_555
C70 C69 1_555 1_555
H70 C70 1_555 1_555
C71 C66 1_555 1_555
H71 C71 1_555 1_555
C72 P5 1_555 1_555
H72 C72 1_555 1_555
H73 C72 1_555 1_555
C73 C72 1_555 1_555
H74 C73 1_555 1_555
H75 C73 1_555 1_555
C74 C73 1_555 1_555
H76 C74 1_555 1_555
H77 C74 1_555 1_555
C77 P2 1_555 1_555
C78 C79 1_555 1_555
C79 H84 1_555 1_555
C80 C79 1_555 1_555
H85 C80 1_555 1_555
C81 C80 1_555 1_555
H86 C81 1_555 1_555
C82 C81 1_555 1_555
H87 C82 1_555 1_555
C83 C78 1_555 1_555
H88 C83 1_555 1_555
C84 P6 1_555 1_555
C85 C84 1_555 1_555
H89 C85 1_555 1_555
C86 C85 1_555 1_555
H90 C86 1_555 1_555
C87 C86 1_555 1_555
H91 C87 1_555 1_555
C88 C87 1_555 1_555
H92 C88 1_555 1_555
C89 C84 1_555 1_555
H93 C89 1_555 1_555
C90 P6 1_555 1_555
H94 C90 1_555 1_555
H95 C90 1_555 1_555
C91 C90 1_555 1_555
H96 C91 1_555 1_555
H97 C91 1_555 1_555
C92 N2 1_555 1_555
N2 C93 1_555 1_555
C93 C94 1_555 1_555
C94 H98 1_555 1_555
H99 C94 1_555 1_555
H100 C94 1_555 1_555
C95 C93 1_555 1_555
H101 C95 1_555 1_555
H102 C95 1_555 1_555
H103 C95 1_555 1_555
C96 C93 1_555 1_555
H104 C96 1_555 1_555
H105 C96 1_555 1_555
H106 C96 1_555 1_555
B1 F1 1_555 1_555
B2 F5 1_555 1_555
F2 B1 1_555 1_555
F3 B1 1_555 1_555
F4 B1 1_555 1_555
F6 B2 1_555 1_555
F7 B2 1_555 1_555
F8 B2 1_555 1_555
N3 C97 1_555 1_555
C97 C98 1_555 1_555
N4 C99 1_555 1_555
C99 C100 1_555 1_555
Ag2 P4 1_555 1_555
Ag2_2 P5 1_555 1_555
C19A C19 1_555 1_555
C91A C91 1_555 1_555
P5_2 Ag2 1_555 1_555
P6 Ag2 1_555 1_555
C10 C11 1_555 1_555
C16 C17 1_555 1_555
C24 C25 1_555 1_555
C30 C31 1_555 1_555
C36 C37 1_555 1_555
C42 C43 1_555 1_555
C52 C53 1_555 1_555
C58 C59 1_555 1_555
C64 C65 1_555 1_555
C70 C71 1_555 1_555
C74 C77 1_555 1_555
C82 C83 1_555 1_555
C88 C89 1_555 1_555
C92 Ag2 1_555 1_555

#END
