
#######################################################################
#
#                 Cambridge Crystallographic Data Centre
#                                CCDC 
#
#######################################################################
#
# If this CIF has been generated from an entry in the Cambridge 
# Structural Database, then it will include bibliographic, chemical, 
# crystal, experimental, refinement or atomic coordinate data resulting 
# from the CCDC's data processing and validation procedures.
#
#######################################################################

data_AZIQEF
_symmetry_cell_setting           triclinic
_symmetry_space_group_name_H-M   'P -1'
_symmetry_Int_Tables_number      2
_space_group_name_Hall           '-P 1'
loop_
_symmetry_equiv_pos_site_id
_symmetry_equiv_pos_as_xyz
1 x,y,z
2 -x,-y,-z
_cell_length_a                   5.452(2)
_cell_length_b                   10.382(4)
_cell_length_c                   10.551(4)
_cell_angle_alpha                80.679(6)
_cell_angle_beta                 82.296(7)
_cell_angle_gamma                87.125(7)
_cell_volume                     583.763
loop_
_atom_site_label
_atom_site_type_symbol
_atom_site_fract_x
_atom_site_fract_y
_atom_site_fract_z
O4 O 0.5063(19) 1.0650(10) 0.1526(10)
C8 C 0.515(2) 1.0202(9) 0.0459(10)
C9 C 0.261(4) 0.9776(15) 0.0189(15)
C8A C 0.485(2) 0.9798(9) -0.0459(10)
O4A O 0.4937(19) 0.9350(10) -0.1526(10)
C9A C 0.739(4) 1.0224(15) -0.0189(15)
Ag1 Ag 0.17958(6) 0.59101(3) 0.39905(3)
S1 S 0.0624(2) 0.70446(12) 0.86147(11)
S2 S 0.31598(16) 0.64370(8) 0.60030(9)
N1 N -0.1225(6) 0.5576(3) 0.7292(3)
C1 C -0.2136(9) 0.6335(4) 0.9244(4)
H1 H -0.3043 0.6448 1.0032
C2 C -0.2787(8) 0.5591(5) 0.8422(4)
H2 H -0.4222 0.5111 0.8608
C3 C 0.0654(7) 0.6313(3) 0.7254(4)
C4 C 0.3907(7) 0.8176(4) 0.5825(4)
H3 H 0.5381 0.8335 0.5203
H4 H 0.4292 0.8355 0.6650
C5 C 0.1888(7) 0.9109(3) 0.5395(4)
C6 C 0.0654(8) 0.9901(4) 0.6241(4)
H5 H 0.1076 0.9844 0.7074
C7 C 0.1216(8) 0.9220(4) 0.4164(4)
H6 H 0.2028 0.8698 0.3591
N2 N 0.7207(6) 0.7042(3) 0.2623(3)
O1 O 0.5139(6) 0.7030(4) 0.2228(3)
O2 O 0.7369(6) 0.6676(3) 0.3809(3)
O3 O 0.9055(6) 0.7373(4) 0.1875(4)
C7A C -0.1216(8) 1.0780(4) 0.5836(4)
C5A C -0.1888(7) 1.0891(3) 0.4605(4)
C4A C -0.3907(7) 1.1824(4) 0.4175(4)
S2A S -0.31598(16) 1.35630(8) 0.39970(9)
C3A C -0.0654(7) 1.3687(3) 0.2746(4)
S1A S -0.0624(2) 1.29554(12) 0.13853(11)
C1A C 0.2136(9) 1.3665(4) 0.0756(4)
H1A H 0.3043 1.3552 -0.0032
C2A C 0.2787(8) 1.4409(5) 0.1578(4)
N1A N 0.1225(6) 1.4424(3) 0.2708(3)
H2A H 0.4222 1.4889 0.1392
H3A H -0.5381 1.1665 0.4797
H4A H -0.4292 1.1645 0.3350
C6A C -0.0654(8) 1.0099(4) 0.3759(4)
H5A H -0.1076 1.0156 0.2926
H6A H -0.2028 1.1302 0.6409
N2_2 N -0.2793(6) 0.7042(3) 0.2623(3)
O1_2 O -0.4861(6) 0.7030(4) 0.2228(3)
O2_2 O -0.2631(6) 0.6676(3) 0.3809(3)
O3_2 O -0.0945(6) 0.7373(4) 0.1875(4)
Ag1A Ag -0.17958(6) 1.40899(3) 0.60095(3)
Ag1A_2 Ag -0.17958(6) 0.40899(3) 0.60095(3)
N1A_2 N 0.1225(6) 0.4424(3) 0.2708(3)
Ag1_2 Ag 1.17958(6) 0.59101(3) 0.39905(3)
Ag1_3 Ag 0.17958(6) 1.59101(3) 0.39905(3)
Ag1_4 Ag -0.82042(6) 0.59101(3) 0.39905(3)
N1_2 N -0.1225(6) 1.5576(3) 0.7292(3)
O1A O -0.5139(6) 1.2970(4) 0.7772(3)
O2A O 0.2631(6) 1.3324(3) 0.6191(3)
loop_
_geom_bond_atom_site_label_1
_geom_bond_atom_site_label_2
_geom_bond_site_symmetry_1
_geom_bond_site_symmetry_2
Ag1 S2 1_555 1_555
S1 C1 1_555 1_555
S2 C3 1_555 1_555
N1 C2 1_555 1_555
C1 H1 1_555 1_555
C2 C1 1_555 1_555
H2 C2 1_555 1_555
C3 S1 1_555 1_555
C4 S2 1_555 1_555
H3 C4 1_555 1_555
H4 C4 1_555 1_555
C5 C4 1_555 1_555
C6 C5 1_555 1_555
H5 C6 1_555 1_555
C7 C5 1_555 1_555
H6 C7 1_555 1_555
N2 O1 1_555 1_555
O1 Ag1 1_555 1_555
O2 N2 1_555 1_555
O3 N2 1_555 1_555
O4 C8 1_555 1_555
C8 C9 1_555 1_555
C9 C8A 1_555 1_555
C7A C6 1_555 1_555
C5A C7A 1_555 1_555
C4A C5A 1_555 1_555
S2A C4A 1_555 1_555
C3A S2A 1_555 1_555
S1A C3A 1_555 1_555
C1A S1A 1_555 1_555
H1A C1A 1_555 1_555
C2A C1A 1_555 1_555
N1A C3A 1_555 1_555
H2A C2A 1_555 1_555
H3A C4A 1_555 1_555
H4A C4A 1_555 1_555
C6A C7 1_555 1_555
H5A C6A 1_555 1_555
H6A C7A 1_555 1_555
C8A C8 1_555 1_555
O4A C8A 1_555 1_555
C9A C8 1_555 1_555
N2_2 O1_2 1_555 1_555
O1_2 Ag1_4 1_555 1_555
O2_2 Ag1 1_555 1_555
O3_2 N2_2 1_555 1_555
Ag1A S2A 1_555 1_555
Ag1A_2 Ag1 1_555 1_555
N1A_2 Ag1 1_555 1_555
Ag1_2 O2 1_555 1_555
Ag1_3 N1A 1_555 1_555
N1_2 Ag1A 1_555 1_555
O1A Ag1A 1_555 1_555
O2A Ag1A 1_555 1_555
N1 C3 1_555 1_555
N1 Ag1A_2 1_555 1_555
C5A C6A 1_555 1_555
C2A N1A 1_555 1_555
C8A C9A 1_555 1_555
N2_2 O2_2 1_555 1_555
Ag1A Ag1_3 1_555 1_555

#END
