
#######################################################################
#
#                 Cambridge Crystallographic Data Centre
#                                CCDC 
#
#######################################################################
#
# If this CIF has been generated from an entry in the Cambridge 
# Structural Database, then it will include bibliographic, chemical, 
# crystal, experimental, refinement or atomic coordinate data resulting 
# from the CCDC's data processing and validation procedures.
#
#######################################################################

data_AZIROQ
_symmetry_cell_setting           monoclinic
_symmetry_space_group_name_H-M   'P 21/c'
_symmetry_Int_Tables_number      14
_space_group_name_Hall           '-P 2ybc'
loop_
_symmetry_equiv_pos_site_id
_symmetry_equiv_pos_as_xyz
1 x,y,z
2 x,1/2-y,1/2+z
3 -x,-y,-z
4 -x,1/2+y,1/2-z
_cell_length_a                   9.5256(17)
_cell_length_b                   15.626(2)
_cell_length_c                   10.0747(17)
_cell_angle_alpha                90
_cell_angle_beta                 102.998(6)
_cell_angle_gamma                90
_cell_volume                     1461.17
loop_
_atom_site_label
_atom_site_type_symbol
_atom_site_fract_x
_atom_site_fract_y
_atom_site_fract_z
Zn1 Zn 0.37145(9) 0.06108(6) 0.01133(9)
C1 C 0.6097(8) 0.2158(5) -0.0100(8)
O1 O 0.5654(5) 0.0662(3) -0.0310(5)
O2 O 0.3198(7) 0.0667(4) 0.1929(6)
N1 N 0.2245(7) 0.0384(4) -0.1724(6)
N2 N 0.3622(7) 0.1981(4) 0.0317(6)
H1 H 0.3236 0.2243 -0.0513
C2 C 0.6343(8) 0.1363(5) -0.0620(8)
C3 C 0.7325(8) 0.1304(5) -0.1457(9)
H2 H 0.7503 0.0765 -0.1820
O3 O 0.2725(7) 0.1545(4) 0.3496(6)
C4 C 0.2726(9) 0.0443(6) -0.2848(9)
H3 H 0.3711 0.0588 -0.2765
C5 C 0.2726(9) 0.2136(6) 0.1319(9)
H4 H 0.3053 0.2680 0.1815
C6 C 0.2917(9) 0.1407(6) 0.2353(9)
C7 C 0.0464(8) 0.0082(4) -0.4324(7)
C8 C 0.1180(10) 0.2223(7) 0.0639(11)
H5 H 0.1055 0.2708 0.0007
H6 H 0.0615 0.2321 0.1327
H7 H 0.0848 0.1698 0.0135
C9 C 0.5124(9) 0.2255(5) 0.0876(8)
H8 H 0.5523 0.1916 0.1705
H9 H 0.5120 0.2864 0.1150
C10 C 0.7791(9) 0.2807(6) -0.1252(9)
H10 H 0.8287 0.3299 -0.1461
C11 C -0.0023(9) -0.0002(6) -0.3142(9)
H11 H -0.0990 -0.0173 -0.3189
C12 C 0.6815(9) 0.2878(6) -0.0433(9)
H12 H 0.6628 0.3423 -0.0093
C13 C 0.1890(9) 0.0309(6) -0.4134(8)
H13 H 0.2305 0.0375 -0.4902
C14 C 0.0877(10) 0.0160(6) -0.1892(9)
H14 H 0.0492 0.0108 -0.1104
C15 C 0.8043(9) 0.2021(6) -0.1764(9)
H15 H 0.8713 0.1970 -0.2330
Zn1B Zn 0.62855(9) -0.06108(6) -0.01133(9)
O1B O 0.4346(5) -0.0662(3) 0.0310(5)
C7B C -0.0464(8) -0.0082(4) -0.5676(7)
C11B C 0.0023(9) 0.0002(6) -0.6858(9)
H11B H 0.0990 0.0173 -0.6811
C14B C -0.0877(10) -0.0160(6) -0.8108(9)
N1B N -0.2245(7) -0.0384(4) -0.8276(6)
Zn1B_2 Zn -0.37145(9) -0.06108(6) -1.01133(9)
C4B C -0.2726(9) -0.0443(6) -0.7152(9)
H3B H -0.3711 -0.0588 -0.7235
C13B C -0.1890(9) -0.0309(6) -0.5866(8)
H13B H -0.2305 -0.0375 -0.5098
H14B H -0.0492 -0.0108 -0.8896
C2B C 0.3657(8) -0.1363(5) 0.0620(8)
O2B O 0.6802(7) -0.0667(4) -0.1929(6)
N1B_2 N 0.7755(7) -0.0384(4) 0.1724(6)
N2B N 0.6378(7) -0.1981(4) -0.0317(6)
C1B C 0.3903(8) -0.2158(5) 0.0100(8)
C3B C 0.2675(8) -0.1304(5) 0.1457(9)
C6B C 0.7083(9) -0.1407(6) -0.2353(9)
H1B H 0.6764 -0.2243 0.0513
C5B C 0.7274(9) -0.2136(6) -0.1319(9)
C9B C 0.4876(9) -0.2255(5) -0.0876(8)
C12B C 0.3185(9) -0.2878(6) 0.0433(9)
H2B H 0.2497 -0.0765 0.1820
C15B C 0.1957(9) -0.2021(6) 0.1764(9)
O3B O 0.7275(7) -0.1545(4) -0.3496(6)
H4B H 0.6947 -0.2680 -0.1815
C8B C 0.8820(10) -0.2223(7) -0.0639(11)
H8B H 0.4477 -0.1916 -0.1705
H9B H 0.4880 -0.2864 -0.1150
C10B C 0.2209(9) -0.2807(6) 0.1252(9)
H12B H 0.3372 -0.3423 0.0093
H15B H 0.1287 -0.1970 0.2330
H5B H 0.8945 -0.2708 -0.0007
H6B H 0.9385 -0.2321 -0.1327
H7B H 0.9152 -0.1698 -0.0135
H10B H 0.1713 -0.3299 0.1461
O4 O 0.4997(9) -0.0005(6) -0.5002(9)
loop_
_geom_bond_atom_site_label_1
_geom_bond_atom_site_label_2
_geom_bond_site_symmetry_1
_geom_bond_site_symmetry_2
Zn1 O1 1_555 1_555
C1 C2 1_555 1_555
O1 C2 1_555 1_555
O2 Zn1 1_555 1_555
N1 Zn1 1_555 1_555
N2 Zn1 1_555 1_555
H1 N2 1_555 1_555
C2 C3 1_555 1_555
C3 H2 1_555 1_555
O3 C6 1_555 1_555
C4 N1 1_555 1_555
H3 C4 1_555 1_555
C5 N2 1_555 1_555
H4 C5 1_555 1_555
C6 O2 1_555 1_555
C7 C11 1_555 1_555
C8 C5 1_555 1_555
H5 C8 1_555 1_555
H6 C8 1_555 1_555
H7 C8 1_555 1_555
C9 C1 1_555 1_555
H8 C9 1_555 1_555
H9 C9 1_555 1_555
C10 H10 1_555 1_555
C11 H11 1_555 1_555
C12 C1 1_555 1_555
H12 C12 1_555 1_555
C13 C4 1_555 1_555
H13 C13 1_555 1_555
C14 N1 1_555 1_555
H14 C14 1_555 1_555
C15 C3 1_555 1_555
H15 C15 1_555 1_555
Zn1B O1 1_555 1_555
O1B Zn1 1_555 1_555
C7B C7 1_555 1_555
C11B C7B 1_555 1_555
H11B C11B 1_555 1_555
C14B C11B 1_555 1_555
N1B C14B 1_555 1_555
Zn1B_2 N1B 1_555 1_555
C4B N1B 1_555 1_555
H3B C4B 1_555 1_555
C13B C7B 1_555 1_555
H13B C13B 1_555 1_555
H14B C14B 1_555 1_555
C2B O1B 1_555 1_555
O2B Zn1B 1_555 1_555
N1B_2 Zn1B 1_555 1_555
N2B Zn1B 1_555 1_555
C1B C2B 1_555 1_555
C3B C2B 1_555 1_555
C6B O2B 1_555 1_555
H1B N2B 1_555 1_555
C5B N2B 1_555 1_555
C9B N2B 1_555 1_555
C12B C1B 1_555 1_555
H2B C3B 1_555 1_555
C15B C3B 1_555 1_555
O3B C6B 1_555 1_555
H4B C5B 1_555 1_555
C8B C5B 1_555 1_555
H8B C9B 1_555 1_555
H9B C9B 1_555 1_555
C10B C12B 1_555 1_555
H12B C12B 1_555 1_555
H15B C15B 1_555 1_555
H5B C8B 1_555 1_555
H6B C8B 1_555 1_555
H7B C8B 1_555 1_555
H10B C10B 1_555 1_555
N2 C9 1_555 1_555
C5 C6 1_555 1_555
C7 C13 1_555 1_555
C10 C15 1_555 1_555
C10 C12 1_555 1_555
C11 C14 1_555 1_555
Zn1B O1B 1_555 1_555
C4B C13B 1_555 1_555
C1B C9B 1_555 1_555
C6B C5B 1_555 1_555
C15B C10B 1_555 1_555

#END
