
#######################################################################
#
#                 Cambridge Crystallographic Data Centre
#                                CCDC 
#
#######################################################################
#
# If this CIF has been generated from an entry in the Cambridge 
# Structural Database, then it will include bibliographic, chemical, 
# crystal, experimental, refinement or atomic coordinate data resulting 
# from the CCDC's data processing and validation procedures.
#
#######################################################################

data_AZITEJ
_symmetry_cell_setting           triclinic
_symmetry_space_group_name_H-M   'P -1'
_symmetry_Int_Tables_number      2
_space_group_name_Hall           '-P 1'
loop_
_symmetry_equiv_pos_site_id
_symmetry_equiv_pos_as_xyz
1 x,y,z
2 -x,-y,-z
_cell_length_a                   8.8797(18)
_cell_length_b                   10.458(2)
_cell_length_c                   10.561(2)
_cell_angle_alpha                87.55(3)
_cell_angle_beta                 73.50(3)
_cell_angle_gamma                72.31(3)
_cell_volume                     894.865
loop_
_atom_site_label
_atom_site_type_symbol
_atom_site_fract_x
_atom_site_fract_y
_atom_site_fract_z
C1 C 0.8929(3) 0.5157(2) 1.3377(2)
H1 H 0.8933 0.5634 1.4099
C2 C 0.9801(3) 0.3817(2) 1.3198(3)
H2 H 1.0380 0.3394 1.3786
C3 C 0.9800(3) 0.3111(2) 1.2128(3)
H3 H 1.0393 0.2203 1.1976
C4 C 0.8915(3) 0.3759(2) 1.1287(2)
H4 H 0.8894 0.3293 1.0565
C5 C 0.8052(3) 0.5115(2) 1.1526(2)
C6 C 0.7058(3) 0.5875(2) 1.0652(2)
H5 H 0.5895 0.6153 1.1133
H6 H 0.7376 0.6674 1.0367
C7 C 0.6566(3) 0.5573(2) 0.8599(2)
C8 C 0.6904(3) 0.4718(2) 0.7515(2)
H7 H 0.7590 0.3840 0.7478
C9 C 0.6227(3) 0.5165(2) 0.6498(2)
H8 H 0.6442 0.4583 0.5782
C10 C 0.5228(3) 0.6472(2) 0.6532(2)
C11 C 0.4855(3) 0.7321(2) 0.7619(2)
H9 H 0.4157 0.8194 0.7658
C12 C 0.5525(3) 0.6863(2) 0.8651(2)
H10 H 0.5270 0.7432 0.9386
C13 C 0.3676(3) 0.8196(2) 0.5444(2)
H11 H 0.4243 0.8803 0.5609
H12 H 0.2650 0.8351 0.6145
C14 C 0.3322(3) 0.8458(2) 0.4139(2)
C15 C 0.1734(3) 0.8713(2) 0.4044(2)
H13 H 0.0900 0.8629 0.4778
C16 C 0.1382(3) 0.9091(2) 0.2865(3)
H14 H 0.0322 0.9250 0.2792
C17 C 0.2624(3) 0.9227(2) 0.1811(3)
H15 H 0.2419 0.9512 0.1013
C18 C 0.4196(3) 0.8933(2) 0.1949(2)
H16 H 0.5040 0.9021 0.1225
Cl1 Cl 0.76914(7) 0.83611(6) 0.47450(6)
Cl2 Cl 0.81884(8) 0.89409(6) 0.12085(6)
N1 N 0.8066(2) 0.58173(17) 1.25574(17)
N2 N 0.4562(2) 0.85272(17) 0.30782(18)
O1 O 0.7344(2) 0.50350(16) 0.95442(16)
O2 O 0.4678(2) 0.68394(15) 0.54293(15)
Zn1 Zn 0.70586(3) 0.78909(2) 0.29601(3)
N1_2 N 0.8066(2) 0.58173(17) 0.25574(17)
Zn1_2 Zn 0.70586(3) 0.78909(2) 1.29601(3)
loop_
_geom_bond_atom_site_label_1
_geom_bond_atom_site_label_2
_geom_bond_site_symmetry_1
_geom_bond_site_symmetry_2
C1 H1 1_555 1_555
C2 C1 1_555 1_555
H2 C2 1_555 1_555
C3 C2 1_555 1_555
H3 C3 1_555 1_555
C4 C3 1_555 1_555
H4 C4 1_555 1_555
C5 C4 1_555 1_555
C6 C5 1_555 1_555
H5 C6 1_555 1_555
H6 C6 1_555 1_555
C7 C8 1_555 1_555
C8 H7 1_555 1_555
C9 C8 1_555 1_555
H8 C9 1_555 1_555
C10 C9 1_555 1_555
C11 C10 1_555 1_555
H9 C11 1_555 1_555
C12 C7 1_555 1_555
H10 C12 1_555 1_555
C13 H11 1_555 1_555
H12 C13 1_555 1_555
C14 C13 1_555 1_555
C15 C14 1_555 1_555
H13 C15 1_555 1_555
C16 C15 1_555 1_555
H14 C16 1_555 1_555
C17 C16 1_555 1_555
H15 C17 1_555 1_555
C18 C17 1_555 1_555
H16 C18 1_555 1_555
Cl1 Zn1 1_555 1_555
Cl2 Zn1 1_555 1_555
N1 C1 1_555 1_555
N2 C14 1_555 1_555
O1 C6 1_555 1_555
O2 C10 1_555 1_555
Zn1 N2 1_555 1_555
N1_2 Zn1 1_555 1_555
Zn1_2 N1 1_555 1_555
C5 N1 1_555 1_555
C7 O1 1_555 1_555
C11 C12 1_555 1_555
C13 O2 1_555 1_555
C18 N2 1_555 1_555

#END
