
#######################################################################
#
#                 Cambridge Crystallographic Data Centre
#                                CCDC 
#
#######################################################################
#
# If this CIF has been generated from an entry in the Cambridge 
# Structural Database, then it will include bibliographic, chemical, 
# crystal, experimental, refinement or atomic coordinate data resulting 
# from the CCDC's data processing and validation procedures.
#
#######################################################################

data_AZITOT
_symmetry_cell_setting           triclinic
_symmetry_space_group_name_H-M   'P -1'
_symmetry_Int_Tables_number      2
_space_group_name_Hall           '-P 1'
loop_
_symmetry_equiv_pos_site_id
_symmetry_equiv_pos_as_xyz
1 x,y,z
2 -x,-y,-z
_cell_length_a                   8.6269(19)
_cell_length_b                   10.5832(17)
_cell_length_c                   14.323(2)
_cell_angle_alpha                97.271(18)
_cell_angle_beta                 102.199(6)
_cell_angle_gamma                104.489(8)
_cell_volume                     1215.07
loop_
_atom_site_label
_atom_site_type_symbol
_atom_site_fract_x
_atom_site_fract_y
_atom_site_fract_z
La1 La 0.16724(4) 0.22260(3) 0.50902(3)
La2 La -0.30351(4) 0.34775(3) 0.49673(3)
O1 O -0.0850(4) 0.2911(4) 0.4193(3)
O2 O 0.0101(5) 0.1690(4) 0.3225(4)
O3 O 0.3563(6) 0.2580(6) 0.6913(4)
O4 O 0.4799(5) 0.3465(4) 0.5867(3)
O5 O 0.7181(5) 0.5887(4) 0.5813(3)
O6 O 0.5239(5) 0.6448(4) 0.6419(3)
O7 O -0.3449(6) -0.1149(4) 0.5627(4)
O8 O -0.5707(5) -0.1219(4) 0.6165(4)
O9 O -0.1888(5) 0.5423(4) 0.4122(3)
O10 O 0.0471(5) 0.5575(4) 0.3684(3)
O11 O -0.2597(5) 0.1804(4) 0.5913(4)
O12 O 0.0031(5) 0.1774(4) 0.6299(4)
O13 O 0.1603(6) -0.0025(4) 0.5669(4)
C1 C -0.0786(7) 0.2446(6) 0.3327(6)
C2 C -0.1747(7) 0.2850(7) 0.2501(5)
C3 C -0.2494(9) 0.1966(9) 0.1623(6)
C4 C -0.3483(10) 0.2326(13) 0.0877(6)
C5 C -0.3728(10) 0.3569(13) 0.1003(6)
C6 C -0.2982(8) 0.4457(9) 0.1859(5)
C7 C -0.1968(7) 0.4135(7) 0.2618(5)
C8 C -0.1036(7) 0.5116(6) 0.3539(5)
C9 C 0.4775(8) 0.3355(7) 0.6748(6)
C10 C 0.6412(7) 0.5955(6) 0.6477(5)
C11 C 0.6971(8) 0.5475(8) 0.7397(5)
C12 C 0.6165(8) 0.4227(8) 0.7530(5)
C13 C 0.6653(10) 0.3832(12) 0.8412(7)
C14 C 0.7926(11) 0.4676(16) 0.9153(7)
C15 C 0.8710(11) 0.5890(14) 0.9012(7)
C16 C 0.8232(9) 0.6330(9) 0.8153(6)
C17 C -0.4155(8) -0.0836(6) 0.6270(5)
C18 C -0.3075(7) -0.0081(6) 0.7229(5)
C19 C -0.3358(9) -0.0561(7) 0.8052(6)
C20 C -0.2256(10) -0.0039(9) 0.8933(7)
C21 C -0.0847(11) 0.1003(10) 0.9026(7)
C22 C -0.0567(9) 0.1496(8) 0.8216(7)
C23 C -0.1669(7) 0.0972(6) 0.7317(6)
C24 C -0.1373(7) 0.1562(6) 0.6441(6)
H1 H -0.23260 0.11290 0.15400
H2 H -0.39840 0.17330 0.02890
H3 H -0.44080 0.38060 0.05010
H4 H -0.31620 0.52910 0.19300
H5 H 0.61180 0.29940 0.85010
H6 H 0.82430 0.44130 0.97420
H7 H 0.95910 0.64440 0.95050
H8 H 0.87490 0.71840 0.80830
H9 H -0.43070 -0.12450 0.80030
H10 H -0.24470 -0.03830 0.94780
H11 H -0.01040 0.13620 0.96300
H12 H 0.03760 0.21900 0.82730
H13 H 0.17560 -0.07490 0.58980
H14 H 0.10320 -0.04070 0.50710
La1A La 0.83276(4) 0.77740(3) 0.49098(3)
La1A_2 La -0.16724(4) -0.22260(3) 0.49098(3)
La1A_3 La -0.16724(4) 0.77740(3) 0.49098(3)
La2_2 La 0.69649(4) 0.34775(3) 0.49673(3)
La2A La 0.30351(4) 0.65225(3) 0.50327(3)
La2A_2 La -0.69649(4) -0.34775(3) 0.50327(3)
O4_2 O -0.5201(5) 0.3465(4) 0.5867(3)
O5A O 0.2819(5) 0.4113(4) 0.4187(3)
O5_2 O -0.2819(5) 0.5887(4) 0.5813(3)
O6A O -0.5239(5) 0.3552(4) 0.3581(3)
O7A O 0.3449(6) 0.1149(4) 0.4373(4)
O8A O -0.4293(5) 0.1219(4) 0.3835(4)
O9A O 0.1888(5) 0.4577(4) 0.5878(3)
O10A O -0.0471(5) 0.4425(4) 0.6316(3)
O14 O 0.717(3) 0.922(2) 0.1959(16)
H15 H 0.82020 0.96320 0.23430
H16 H 0.67000 0.87010 0.23130
loop_
_geom_bond_atom_site_label_1
_geom_bond_atom_site_label_2
_geom_bond_site_symmetry_1
_geom_bond_site_symmetry_2
La1 O1 1_555 1_555
La2 O1 1_555 1_555
O1 C1 1_555 1_555
O2 La1 1_555 1_555
O3 La1 1_555 1_555
O4 La1 1_555 1_555
O5 C10 1_555 1_555
O6 C10 1_555 1_555
O7 C17 1_555 1_555
O8 C17 1_555 1_555
O9 La2 1_555 1_555
O10 C8 1_555 1_555
O11 La2 1_555 1_555
O12 La1 1_555 1_555
O13 La1 1_555 1_555
C1 O2 1_555 1_555
C2 C1 1_555 1_555
C3 C2 1_555 1_555
C4 C3 1_555 1_555
C5 C4 1_555 1_555
C6 C5 1_555 1_555
C7 C2 1_555 1_555
C8 O9 1_555 1_555
C9 O3 1_555 1_555
C10 C11 1_555 1_555
C11 C12 1_555 1_555
C12 C9 1_555 1_555
C13 C12 1_555 1_555
C14 C13 1_555 1_555
C15 C14 1_555 1_555
C16 C11 1_555 1_555
C17 C18 1_555 1_555
C18 C19 1_555 1_555
C19 C20 1_555 1_555
C20 C21 1_555 1_555
C21 C22 1_555 1_555
C22 C23 1_555 1_555
C23 C18 1_555 1_555
C24 O11 1_555 1_555
O14 H15 1_555 1_555
H1 C3 1_555 1_555
H2 C4 1_555 1_555
H3 C5 1_555 1_555
H4 C6 1_555 1_555
H5 C13 1_555 1_555
H6 C14 1_555 1_555
H7 C15 1_555 1_555
H8 C16 1_555 1_555
H9 C19 1_555 1_555
H10 C20 1_555 1_555
H11 C21 1_555 1_555
H12 C22 1_555 1_555
H13 O13 1_555 1_555
H14 O13 1_555 1_555
H16 O14 1_555 1_555
La1A O5 1_555 1_555
La1A_2 O7 1_555 1_555
La1A_3 O9 1_555 1_555
La2_2 O4 1_555 1_555
La2A O6 1_555 1_555
La2A_2 O8 1_555 1_555
O4_2 La2 1_555 1_555
O5A La1 1_555 1_555
O5_2 La2 1_555 1_555
O6A La2 1_555 1_555
O7A La1 1_555 1_555
O8A La2 1_555 1_555
O9A La1 1_555 1_555
O10A La2 1_555 1_555
O4 C9 1_555 1_555
O5 La2_2 1_555 1_555
O10 La2A 1_555 1_555
O12 C24 1_555 1_555
C6 C7 1_555 1_555
C7 C8 1_555 1_555
C15 C16 1_555 1_555
C23 C24 1_555 1_555
La1A_3 O5_2 1_555 1_555
La2A O5A 1_555 1_555
La2A O9A 1_555 1_555

#END
