
#######################################################################
#
#                 Cambridge Crystallographic Data Centre
#                                CCDC 
#
#######################################################################
#
# If this CIF has been generated from an entry in the Cambridge 
# Structural Database, then it will include bibliographic, chemical, 
# crystal, experimental, refinement or atomic coordinate data resulting 
# from the CCDC's data processing and validation procedures.
#
#######################################################################

data_AZIVUB
_symmetry_cell_setting           monoclinic
_symmetry_space_group_name_H-M   'P 21/c'
_symmetry_Int_Tables_number      14
_space_group_name_Hall           '-P 2ybc'
loop_
_symmetry_equiv_pos_site_id
_symmetry_equiv_pos_as_xyz
1 x,y,z
2 -x,1/2+y,1/2-z
3 -x,-y,-z
4 x,1/2-y,1/2+z
_cell_length_a                   16.121(3)
_cell_length_b                   15.568(3)
_cell_length_c                   7.9607(16)
_cell_angle_alpha                90
_cell_angle_beta                 97.42(3)
_cell_angle_gamma                90
_cell_volume                     1981.18
loop_
_atom_site_label
_atom_site_type_symbol
_atom_site_fract_x
_atom_site_fract_y
_atom_site_fract_z
C1 C 0.3837(3) 0.4533(3) 0.1246(6)
C2 C 0.3401(3) 0.5067(3) 0.0107(6)
H1 H 0.2915 0.4874 -0.0540
C3 C 0.3245(4) 0.6518(4) -0.1203(8)
H2 H 0.2742 0.6365 -0.1840
C4 C 0.3558(5) 0.7327(4) -0.1338(9)
H3 H 0.3263 0.7728 -0.2047
C5 C 0.4321(5) 0.7549(4) -0.0410(8)
H4 H 0.4537 0.8096 -0.0539
C6 C 0.4753(4) 0.6996(4) 0.0668(7)
H5 H 0.5258 0.7164 0.1281
C7 C 0.4575(3) 0.4845(3) 0.2190(7)
H6 H 0.4861 0.4485 0.3000
C8 C 0.3683(3) 0.5914(3) -0.0099(7)
C9 C 0.4441(3) 0.6161(3) 0.0865(7)
C10 C 0.3537(3) 0.3649(3) 0.1549(6)
C11 C 0.0395(3) 0.1320(3) -0.1213(6)
C12 C 0.0123(3) 0.1555(4) 0.0246(7)
H7 H 0.0446 0.1922 0.0988
C13 C -0.0952(4) 0.1433(5) 0.2191(9)
H8 H -0.0651 0.1797 0.2973
C14 C -0.1681(5) 0.1083(6) 0.2537(11)
H9 H -0.1873 0.1198 0.3566
C15 C -0.2145(5) 0.0549(5) 0.1353(10)
H10 H -0.2649 0.0321 0.1596
C16 C -0.1873(4) 0.0362(4) -0.0128(9)
H11 H -0.2188 0.0005 -0.0902
C17 C -0.0119(4) 0.0784(4) -0.2328(7)
H12 H 0.0064 0.0641 -0.3354
C18 C -0.0649(4) 0.1249(4) 0.0657(7)
C19 C -0.1115(4) 0.0702(4) -0.0512(7)
C20 C 0.1226(3) 0.1617(3) -0.1676(7)
N1 N 0.4882(3) 0.5620(3) 0.1991(6)
N2 N -0.0843(3) 0.0472(3) -0.2007(6)
O1 O 0.3147(2) 0.3241(2) 0.0321(4)
O2 O 0.3661(2) 0.3348(2) 0.3017(4)
O3 O 0.1346(2) 0.1615(3) -0.3193(4)
O4 O 0.1760(2) 0.1899(2) -0.0501(4)
O5 O 0.3523(2) 0.1106(3) 0.1318(5)
H13 H 0.355(3) 0.119(4) 0.028(2)
H14 H 0.3984(18) 0.093(4) 0.182(5)
O6 O 0.1494(3) 0.1094(3) 0.3479(5)
H15 H 0.141(4) 0.117(3) 0.448(3)
H16 H 0.129(4) 0.063(2) 0.308(6)
Sr1 Sr 0.25124(3) 0.21557(3) 0.23948(6)
O1C O 0.3147(2) 0.1759(2) 0.5321(4)
O3C O 0.1346(2) 0.3385(3) 0.1807(4)
O4C O 0.1760(2) 0.3101(2) 0.4499(4)
Sr1C Sr 0.25124(3) 0.28443(3) -0.26052(6)
loop_
_geom_bond_atom_site_label_1
_geom_bond_atom_site_label_2
_geom_bond_site_symmetry_1
_geom_bond_site_symmetry_2
C1 C2 1_555 1_555
C2 H1 1_555 1_555
C3 H2 1_555 1_555
C4 C3 1_555 1_555
H3 C4 1_555 1_555
C5 C4 1_555 1_555
H4 C5 1_555 1_555
C6 C5 1_555 1_555
H5 C6 1_555 1_555
C7 C1 1_555 1_555
H6 C7 1_555 1_555
C8 C2 1_555 1_555
C9 C6 1_555 1_555
C10 C1 1_555 1_555
C11 C12 1_555 1_555
C12 H7 1_555 1_555
C13 H8 1_555 1_555
C14 C13 1_555 1_555
H9 C14 1_555 1_555
C15 C14 1_555 1_555
H10 C15 1_555 1_555
C16 C15 1_555 1_555
H11 C16 1_555 1_555
C17 C11 1_555 1_555
H12 C17 1_555 1_555
C18 C12 1_555 1_555
C19 C16 1_555 1_555
C20 C11 1_555 1_555
N1 C7 1_555 1_555
N2 C17 1_555 1_555
O1 C10 1_555 1_555
O2 C10 1_555 1_555
O3 C20 1_555 1_555
O4 C20 1_555 1_555
O5 H13 1_555 1_555
H14 O5 1_555 1_555
O6 H15 1_555 1_555
H16 O6 1_555 1_555
Sr1 O1 1_555 1_555
O1C Sr1 1_555 1_555
O3C Sr1 1_555 1_555
O4C Sr1 1_555 1_555
Sr1C O1 1_555 1_555
C3 C8 1_555 1_555
C8 C9 1_555 1_555
C9 N1 1_555 1_555
C13 C18 1_555 1_555
C18 C19 1_555 1_555
C19 N2 1_555 1_555
O2 Sr1 1_555 1_555
O3 Sr1C 1_555 1_555
O4 Sr1 1_555 1_555
O4 Sr1C 1_555 1_555
O5 Sr1 1_555 1_555
O6 Sr1 1_555 1_555

#END
