
#######################################################################
#
#                 Cambridge Crystallographic Data Centre
#                                CCDC 
#
#######################################################################
#
# If this CIF has been generated from an entry in the Cambridge 
# Structural Database, then it will include bibliographic, chemical, 
# crystal, experimental, refinement or atomic coordinate data resulting 
# from the CCDC's data processing and validation procedures.
#
#######################################################################

data_AZIWEM
_symmetry_cell_setting           triclinic
_symmetry_space_group_name_H-M   'P -1'
_symmetry_Int_Tables_number      2
_space_group_name_Hall           '-P 1'
loop_
_symmetry_equiv_pos_site_id
_symmetry_equiv_pos_as_xyz
1 x,y,z
2 -x,-y,-z
_cell_length_a                   9.2788(4)
_cell_length_b                   11.4322(5)
_cell_length_c                   12.4204(5)
_cell_angle_alpha                74.566(2)
_cell_angle_beta                 76.690(2)
_cell_angle_gamma                72.067(2)
_cell_volume                     1192.41
loop_
_atom_site_label
_atom_site_type_symbol
_atom_site_fract_x
_atom_site_fract_y
_atom_site_fract_z
I1 I 0.855859(12) -0.132037(10) 0.055940(9)
Cu1 Cu 0.86308(2) 0.10732(2) 0.023918(18)
P1 P 0.75620(5) 0.16954(4) 0.18626(4)
N1 N 0.74367(17) 0.19616(15) -0.10892(13)
N2 N 0.53664(18) 0.47410(16) -0.45218(13)
C1 C 0.7889(2) 0.28666(19) -0.19227(16)
H1 H 0.8756 0.3112 -0.1869
C2 C 0.7158(2) 0.34564(19) -0.28518(16)
H2 H 0.7511 0.4099 -0.3412
C3 C 0.5898(2) 0.31012(17) -0.29597(15)
C4 C 0.5405(2) 0.21851(19) -0.20863(16)
H3 H 0.4539 0.1924 -0.2115
C5 C 0.6193(2) 0.16582(19) -0.11742(16)
H4 H 0.5828 0.1049 -0.0578
C6 C 0.5135(2) 0.36689(18) -0.39770(15)
C7 C 0.4228(3) 0.2953(2) -0.42808(18)
H5 H 0.3972 0.3349 -0.5040
H6 H 0.3280 0.2960 -0.3732
H7 H 0.4839 0.2082 -0.4269
C8 C 0.79470(19) 0.30849(17) 0.20650(15)
C9 C 0.8041(2) 0.32434(19) 0.31231(16)
H8 H 0.7892 0.2611 0.3780
C10 C 0.8351(2) 0.4324(2) 0.32155(18)
H9 H 0.8428 0.4422 0.3935
C11 C 0.8550(2) 0.52586(19) 0.22673(19)
H10 H 0.8755 0.5997 0.2338
C12 C 0.8450(3) 0.5120(2) 0.12104(18)
H11 H 0.8580 0.5762 0.0559
C13 C 0.8158(2) 0.40299(19) 0.11159(17)
H12 H 0.8102 0.3929 0.0393
C14 C 0.8022(2) 0.05253(17) 0.31409(15)
C15 C 0.6953(2) 0.0328(2) 0.41092(18)
H13 H 0.5914 0.0808 0.4125
C16 C 0.7404(3) -0.0575(3) 0.5063(2)
H14 H 0.6667 -0.0713 0.5721
C17 C 0.8924(3) -0.1270(2) 0.5051(2)
H15 H 0.9229 -0.1884 0.5699
C18 C 0.9990(3) -0.1063(2) 0.4092(2)
H16 H 1.1036 -0.1523 0.4087
C19 C 0.9544(2) -0.0186(2) 0.31328(17)
H17 H 1.0279 -0.0070 0.2468
C20 C 0.5469(2) 0.21052(18) 0.20193(16)
C21 C 0.4819(2) 0.1214(2) 0.18810(17)
H18 H 0.5455 0.0406 0.1792
C22 C 0.3255(2) 0.1495(2) 0.18721(17)
H19 H 0.2825 0.0876 0.1788
C23 C 0.2321(2) 0.2676(2) 0.1986(2)
H20 H 0.1256 0.2879 0.1957
C24 C 0.2950(3) 0.3556(2) 0.2141(3)
H21 H 0.2308 0.4362 0.2232
C25 C 0.4523(2) 0.3274(2) 0.2166(2)
H22 H 0.4942 0.3882 0.2284
I1A I 1.144141(12) 0.132037(10) -0.055940(9)
Cu1A Cu 1.13692(2) -0.10732(2) -0.023918(18)
Cu1A_2 Cu 0.13692(2) 0.89268(2) -1.023918(18)
P1A P 1.24380(5) -0.16954(4) -0.18626(4)
N1A N 0.25633(17) 0.80384(15) -0.89108(13)
N1A_2 N 1.25633(17) -0.19616(15) 0.10892(13)
N2A N 0.46336(18) 0.52590(16) -0.54782(13)
C1A C 0.2111(2) 0.71334(19) -0.80773(16)
H1A H 0.1244 0.6888 -0.8131
C2A C 0.2842(2) 0.65436(19) -0.71482(16)
H2A H 0.2489 0.5901 -0.6588
C3A C 0.4102(2) 0.68988(17) -0.70403(15)
C4A C 0.4595(2) 0.78149(19) -0.79137(16)
H3A H 0.5461 0.8076 -0.7885
C5A C 0.3807(2) 0.83418(19) -0.88258(16)
H4A H 0.4172 0.8951 -0.9422
C6A C 0.4865(2) 0.63311(18) -0.60230(15)
C7A C 0.5772(3) 0.7047(2) -0.57192(18)
H5A H 0.6028 0.6651 -0.4960
H6A H 0.6720 0.7040 -0.6268
H7A H 0.5161 0.7918 -0.5731
C8A C 1.20530(19) -0.30849(17) -0.20650(15)
C9A C 1.1959(2) -0.32434(19) -0.31231(16)
H8A H 1.2108 -0.2611 -0.3780
C10A C 1.1649(2) -0.4324(2) -0.32155(18)
H9A H 1.1572 -0.4422 -0.3935
C11A C 1.1450(2) -0.52586(19) -0.22673(19)
H10A H 1.1245 -0.5997 -0.2338
C12A C 1.1550(3) -0.5120(2) -0.12104(18)
H11A H 1.1420 -0.5762 -0.0559
C13A C 1.1842(2) -0.40299(19) -0.11159(17)
H12A H 1.1898 -0.3929 -0.0393
C14A C 1.1978(2) -0.05253(17) -0.31409(15)
C15A C 1.3047(2) -0.0328(2) -0.41092(18)
H13A H 1.4086 -0.0808 -0.4125
C16A C 1.2596(3) 0.0575(3) -0.5063(2)
H14A H 1.3333 0.0713 -0.5721
C17A C 1.1076(3) 0.1270(2) -0.5051(2)
H15A H 1.0771 0.1884 -0.5699
C18A C 1.0010(3) 0.1063(2) -0.4092(2)
H16A H 0.8964 0.1523 -0.4087
C19A C 1.0456(2) 0.0186(2) -0.31328(17)
H17A H 0.9721 0.0070 -0.2468
C20A C 1.4531(2) -0.21052(18) -0.20193(16)
C21A C 1.5181(2) -0.1214(2) -0.18810(17)
H18A H 1.4545 -0.0406 -0.1792
C22A C 1.6745(2) -0.1495(2) -0.18721(17)
H19A H 1.7175 -0.0876 -0.1788
C23A C 1.7679(2) -0.2676(2) -0.1986(2)
H20A H 1.8744 -0.2879 -0.1957
C24A C 1.7050(3) -0.3556(2) -0.2141(3)
H21A H 1.7692 -0.4362 -0.2232
C25A C 1.5477(2) -0.3274(2) -0.2166(2)
H22A H 1.5058 -0.3882 -0.2284
loop_
_geom_bond_atom_site_label_1
_geom_bond_atom_site_label_2
_geom_bond_site_symmetry_1
_geom_bond_site_symmetry_2
I1 Cu1 1_555 1_555
Cu1 P1 1_555 1_555
P1 C8 1_555 1_555
N1 Cu1 1_555 1_555
N2 C6 1_555 1_555
C1 N1 1_555 1_555
H1 C1 1_555 1_555
C2 C1 1_555 1_555
H2 C2 1_555 1_555
C3 C2 1_555 1_555
C4 C3 1_555 1_555
H3 C4 1_555 1_555
C5 N1 1_555 1_555
H4 C5 1_555 1_555
C6 C3 1_555 1_555
C7 C6 1_555 1_555
H5 C7 1_555 1_555
H6 C7 1_555 1_555
H7 C7 1_555 1_555
C8 C9 1_555 1_555
C9 H8 1_555 1_555
C10 C9 1_555 1_555
H9 C10 1_555 1_555
C11 C10 1_555 1_555
H10 C11 1_555 1_555
C12 C11 1_555 1_555
H11 C12 1_555 1_555
C13 C8 1_555 1_555
H12 C13 1_555 1_555
C14 P1 1_555 1_555
C15 C14 1_555 1_555
H13 C15 1_555 1_555
C16 C15 1_555 1_555
H14 C16 1_555 1_555
C17 C16 1_555 1_555
H15 C17 1_555 1_555
C18 C17 1_555 1_555
H16 C18 1_555 1_555
C19 C14 1_555 1_555
H17 C19 1_555 1_555
C20 P1 1_555 1_555
C21 C20 1_555 1_555
H18 C21 1_555 1_555
C22 C21 1_555 1_555
H19 C22 1_555 1_555
C23 C22 1_555 1_555
H20 C23 1_555 1_555
C24 C23 1_555 1_555
H21 C24 1_555 1_555
C25 C20 1_555 1_555
H22 C25 1_555 1_555
I1A Cu1 1_555 1_555
Cu1A I1 1_555 1_555
Cu1A_2 N1A 1_555 1_555
P1A Cu1A 1_555 1_555
N1A C1A 1_555 1_555
N1A_2 Cu1A 1_555 1_555
N2A N2 1_555 1_555
C1A H1A 1_555 1_555
C2A C1A 1_555 1_555
H2A C2A 1_555 1_555
C3A C2A 1_555 1_555
C4A C3A 1_555 1_555
H3A C4A 1_555 1_555
C5A N1A 1_555 1_555
H4A C5A 1_555 1_555
C6A N2A 1_555 1_555
C7A C6A 1_555 1_555
H5A C7A 1_555 1_555
H6A C7A 1_555 1_555
H7A C7A 1_555 1_555
C8A P1A 1_555 1_555
C9A C8A 1_555 1_555
H8A C9A 1_555 1_555
C10A C9A 1_555 1_555
H9A C10A 1_555 1_555
C11A C10A 1_555 1_555
H10A C11A 1_555 1_555
C12A C11A 1_555 1_555
H11A C12A 1_555 1_555
C13A C8A 1_555 1_555
H12A C13A 1_555 1_555
C14A P1A 1_555 1_555
C15A C14A 1_555 1_555
H13A C15A 1_555 1_555
C16A C15A 1_555 1_555
H14A C16A 1_555 1_555
C17A C16A 1_555 1_555
H15A C17A 1_555 1_555
C18A C17A 1_555 1_555
H16A C18A 1_555 1_555
C19A C14A 1_555 1_555
H17A C19A 1_555 1_555
C20A P1A 1_555 1_555
C21A C20A 1_555 1_555
H18A C21A 1_555 1_555
C22A C21A 1_555 1_555
H19A C22A 1_555 1_555
C23A C22A 1_555 1_555
H20A C23A 1_555 1_555
C24A C23A 1_555 1_555
H21A C24A 1_555 1_555
C25A C20A 1_555 1_555
H22A C25A 1_555 1_555
C4 C5 1_555 1_555
C12 C13 1_555 1_555
C18 C19 1_555 1_555
C24 C25 1_555 1_555
I1A Cu1A 1_555 1_555
C3A C6A 1_555 1_555
C4A C5A 1_555 1_555
C12A C13A 1_555 1_555
C18A C19A 1_555 1_555
C24A C25A 1_555 1_555

#END
