
#######################################################################
#
#                 Cambridge Crystallographic Data Centre
#                                CCDC 
#
#######################################################################
#
# If this CIF has been generated from an entry in the Cambridge 
# Structural Database, then it will include bibliographic, chemical, 
# crystal, experimental, refinement or atomic coordinate data resulting 
# from the CCDC's data processing and validation procedures.
#
#######################################################################

data_AZIXUD
_symmetry_cell_setting           orthorhombic
_symmetry_space_group_name_H-M   'P 21 21 21'
_symmetry_Int_Tables_number      19
_space_group_name_Hall           'P 2ac 2ab'
loop_
_symmetry_equiv_pos_site_id
_symmetry_equiv_pos_as_xyz
1 x,y,z
2 1/2-x,-y,1/2+z
3 -x,1/2+y,1/2-z
4 1/2+x,1/2-y,-z
_cell_length_a                   11.2562(6)
_cell_length_b                   13.1744(7)
_cell_length_c                   20.3965(12)
_cell_angle_alpha                90
_cell_angle_beta                 90
_cell_angle_gamma                90
_cell_volume                     3024.67
loop_
_atom_site_label
_atom_site_type_symbol
_atom_site_fract_x
_atom_site_fract_y
_atom_site_fract_z
Zn1 Zn 0.32282(3) 1.02153(3) 0.532246(16)
Zn2 Zn 0.11040(3) 0.92795(2) 0.640664(15)
O1 O 0.25310(18) 0.84177(15) 0.65422(10)
O2 O 0.3248(2) 0.86905(15) 0.55265(10)
O3 O 0.55588(18) 0.60034(16) 0.44912(10)
O4 O 0.6626(2) 0.49210(16) 0.51036(10)
O5 O 0.48922(18) 0.55461(15) 0.74102(10)
O6 O 0.51506(17) 0.38160(16) 0.71297(10)
O7 O 0.13001(19) 0.47767(17) 0.83474(11)
O8 O 0.00425(18) 0.35644(16) 0.80428(10)
O9 O 0.14499(16) 0.06646(15) 0.67100(10)
O10 O 0.32214(19) 0.08120(16) 0.62123(9)
O11 O 0.5015(2) 1.0047(2) 0.52425(14)
O12 O 0.3428(2) 1.15866(19) 0.48368(12)
N1 N 0.6865(3) 1.0308(3) 0.48390(18)
N2 N 0.3226(3) 1.2560(2) 0.39360(14)
C1 C 0.4858(3) 0.5963(2) 0.67844(14)
C2 C 0.4123(3) 0.6810(2) 0.67289(14)
H1 H 0.3707 0.7057 0.7101
C3 C 0.4002(3) 0.7295(2) 0.61255(14)
C4 C 0.4597(3) 0.6924(2) 0.55776(15)
H2 H 0.4517 0.7256 0.5167
C5 C 0.5308(3) 0.6065(2) 0.56331(15)
C6 C 0.5468(3) 0.5589(2) 0.62467(14)
H3 H 0.5986 0.5023 0.6290
C7 C 0.3202(3) 0.8206(2) 0.60605(14)
C8 C 0.5879(2) 0.5635(2) 0.50290(14)
C9 C 0.5557(3) 0.4640(2) 0.75127(14)
H4 H 0.6401 0.4772 0.7407
H5 H 0.5511 0.4452 0.7982
C10 C 0.4025(3) 0.3430(2) 0.72419(13)
C11 C 0.3158(3) 0.3889(2) 0.76253(14)
H6 H 0.3324 0.4504 0.7851
C12 C 0.2037(3) 0.3435(2) 0.76758(14)
C13 C 0.1795(3) 0.2524(2) 0.73604(13)
H7 H 0.1039 0.2212 0.7409
C14 C 0.2666(3) 0.2068(2) 0.69721(14)
C15 C 0.3786(3) 0.2523(2) 0.69091(14)
H8 H 0.4379 0.2218 0.6642
C16 C 0.1075(3) 0.3978(2) 0.80611(13)
C17 C 0.2425(2) 0.1110(2) 0.66028(13)
C18 C 0.5723(3) 1.0484(3) 0.4863(2)
H9 H 0.5409 1.0978 0.4571
C19 C 0.7341(6) 0.9558(5) 0.5254(3)
H10 H 0.6697 0.9236 0.5502
H11 H 0.7906 0.9871 0.5558
H12 H 0.7750 0.9045 0.4990
C20 C 0.7647(4) 1.0820(5) 0.4373(3)
H13 H 0.7176 1.1271 0.4093
H14 H 0.8049 1.0313 0.4100
H15 H 0.8240 1.1219 0.4612
C21 C 0.2853(3) 1.1867(3) 0.43474(17)
H16 H 0.2103 1.1560 0.4268
C22 C 0.2583(4) 1.2772(3) 0.3324(2)
H17 H 0.3031 1.2496 0.2952
H18 H 0.2492 1.3507 0.3270
H19 H 0.1796 1.2453 0.3341
C23 C 0.4417(3) 1.2999(3) 0.3995(2)
H20 H 0.4678 1.2963 0.4453
H21 H 0.4399 1.3710 0.3853
H22 H 0.4972 1.2617 0.3718
Zn1C Zn 0.82282(3) 0.47847(3) 0.467754(16)
Zn1_2 Zn 0.32282(3) 0.02153(3) 0.532246(16)
Zn2C Zn 0.61040(3) 0.57205(2) 0.359336(15)
Zn2B Zn -0.11040(3) 0.42795(2) 0.859336(15)
Zn2_2 Zn 0.11040(3) -0.07205(2) 0.640664(15)
O3C O 0.05588(18) 0.89966(16) 0.55088(10)
O4C O 0.1626(2) 1.00790(16) 0.48964(10)
O8B O -0.00425(18) 0.85644(16) 0.69572(10)
O9_2 O 0.14499(16) 1.06646(15) 0.67100(10)
O10_2 O 0.32214(19) 1.08120(16) 0.62123(9)
O13 O 0.3138(3) 1.0302(2) 0.33443(15)
N3 N 0.4694(3) 0.9184(2) 0.35115(14)
C24 C 0.4167(3) 1.0000(3) 0.32387(19)
H23 H 0.4628 1.0381 0.2936
C25 C 0.4002(5) 0.8543(3) 0.3960(2)
H24 H 0.3157 0.8708 0.3918
H25 H 0.4260 0.8666 0.4412
H26 H 0.4128 0.7827 0.3849
C26 C 0.5865(4) 0.8865(4) 0.3345(2)
H27 H 0.6201 0.9331 0.3019
H28 H 0.5837 0.8178 0.3163
H29 H 0.6364 0.8868 0.3739
loop_
_geom_bond_atom_site_label_1
_geom_bond_atom_site_label_2
_geom_bond_site_symmetry_1
_geom_bond_site_symmetry_2
Zn1 O2 1_555 1_555
Zn2 O1 1_555 1_555
O1 C7 1_555 1_555
O2 C7 1_555 1_555
O3 C8 1_555 1_555
O4 C8 1_555 1_555
O5 C1 1_555 1_555
O6 C9 1_555 1_555
O7 C16 1_555 1_555
O8 C16 1_555 1_555
O9 C17 1_555 1_555
O10 C17 1_555 1_555
O11 Zn1 1_555 1_555
O12 Zn1 1_555 1_555
O13 C24 1_555 1_555
N1 C18 1_555 1_555
N2 C21 1_555 1_555
N3 C24 1_555 1_555
C1 C2 1_555 1_555
C2 H1 1_555 1_555
C3 C2 1_555 1_555
C4 C3 1_555 1_555
H2 C4 1_555 1_555
C5 C4 1_555 1_555
C6 C1 1_555 1_555
H3 C6 1_555 1_555
C7 C3 1_555 1_555
C8 C5 1_555 1_555
C9 O5 1_555 1_555
H4 C9 1_555 1_555
H5 C9 1_555 1_555
C10 O6 1_555 1_555
C11 C10 1_555 1_555
H6 C11 1_555 1_555
C12 C11 1_555 1_555
C13 C12 1_555 1_555
H7 C13 1_555 1_555
C14 C13 1_555 1_555
C15 C10 1_555 1_555
H8 C15 1_555 1_555
C16 C12 1_555 1_555
C17 C14 1_555 1_555
C18 O11 1_555 1_555
H9 C18 1_555 1_555
C19 N1 1_555 1_555
H10 C19 1_555 1_555
H11 C19 1_555 1_555
H12 C19 1_555 1_555
C20 N1 1_555 1_555
H13 C20 1_555 1_555
H14 C20 1_555 1_555
H15 C20 1_555 1_555
C21 O12 1_555 1_555
H16 C21 1_555 1_555
C22 N2 1_555 1_555
H17 C22 1_555 1_555
H18 C22 1_555 1_555
H19 C22 1_555 1_555
C23 N2 1_555 1_555
H20 C23 1_555 1_555
H21 C23 1_555 1_555
H22 C23 1_555 1_555
C24 H23 1_555 1_555
C25 N3 1_555 1_555
H24 C25 1_555 1_555
H25 C25 1_555 1_555
H26 C25 1_555 1_555
C26 N3 1_555 1_555
H27 C26 1_555 1_555
H28 C26 1_555 1_555
H29 C26 1_555 1_555
Zn1C O4 1_555 1_555
Zn1_2 O10 1_555 1_555
Zn2C O3 1_555 1_555
Zn2B O8 1_555 1_555
Zn2_2 O9 1_555 1_555
O3C Zn2 1_555 1_555
O4C Zn1 1_555 1_555
O8B Zn2 1_555 1_555
O9_2 Zn2 1_555 1_555
O10_2 Zn1 1_555 1_555
C5 C6 1_555 1_555
C14 C15 1_555 1_555

#END
