
#######################################################################
#
#                 Cambridge Crystallographic Data Centre
#                                CCDC 
#
#######################################################################
#
# If this CIF has been generated from an entry in the Cambridge 
# Structural Database, then it will include bibliographic, chemical, 
# crystal, experimental, refinement or atomic coordinate data resulting 
# from the CCDC's data processing and validation procedures.
#
#######################################################################

data_AZIXAJ
_symmetry_cell_setting           triclinic
_symmetry_space_group_name_H-M   'P -1'
_symmetry_Int_Tables_number      2
_space_group_name_Hall           '-P 1'
loop_
_symmetry_equiv_pos_site_id
_symmetry_equiv_pos_as_xyz
1 x,y,z
2 -x,-y,-z
_cell_length_a                   7.0867(14)
_cell_length_b                   7.3614(15)
_cell_length_c                   10.418(2)
_cell_angle_alpha                95.51(3)
_cell_angle_beta                 102.51(3)
_cell_angle_gamma                97.27(3)
_cell_volume                     522.025
loop_
_atom_site_label
_atom_site_type_symbol
_atom_site_fract_x
_atom_site_fract_y
_atom_site_fract_z
Ni1 Ni 0.5000 1.0000 0.0000
N1 N 0.6792(2) 1.0320(2) 0.19330(14)
O1 O 0.2663(2) 1.0289(2) 0.08405(13)
H1 H 0.209(4) 1.105(4) 0.052(3)
H2 H 0.182(4) 0.935(4) 0.075(3)
O2 O 0.4632(2) 0.72250(19) 0.01349(16)
H3 H 0.565(5) 0.678(4) 0.048(3)
H4 H 0.391(4) 0.643(4) -0.042(3)
C1 C 0.6170(3) 0.9485(3) 0.28808(19)
H5 H 0.4846 0.8961 0.2712
C2 C 0.7352(3) 0.9347(3) 0.40847(19)
H6 H 0.6832 0.8755 0.4720
C3 C 0.9324(3) 1.0085(2) 0.43649(17)
C4 C 0.9949(3) 1.0998(3) 0.33922(18)
H7 H 1.1259 1.1554 0.3539
C5 C 0.8665(3) 1.1094(3) 0.22164(18)
H8 H 0.9127 1.1735 0.1581
Ni1_2 Ni 1.5000 1.0000 1.0000
N1A N 1.3208(2) 0.9680(2) 0.80670(14)
N1A_2 N 0.3208(2) 0.9680(2) -0.19330(14)
O1A O 0.7337(2) 0.9711(2) -0.08405(13)
H1A H 0.791(4) 0.895(4) -0.052(3)
H2A H 0.818(4) 1.065(4) -0.075(3)
O2A O 0.5368(2) 1.27750(19) -0.01349(16)
H3A H 0.435(5) 1.322(4) -0.048(3)
H4A H 0.609(4) 1.357(4) 0.042(3)
C1A C 1.3830(3) 1.0515(3) 0.71192(19)
H5A H 1.5154 1.1039 0.7288
C2A C 1.2648(3) 1.0653(3) 0.59153(19)
H6A H 1.3168 1.1245 0.5280
C3A C 1.0676(3) 0.9915(2) 0.56351(17)
C4A C 1.0051(3) 0.9002(3) 0.66078(18)
H7A H 0.8741 0.8446 0.6461
C5A C 1.1335(3) 0.8906(3) 0.77836(18)
H8A H 1.0873 0.8265 0.8419
O3 O -0.03762(19) 0.74413(19) 0.03648(14)
O4 O -0.22675(19) 0.58018(19) 0.14203(14)
C6 C 0.3586(3) 0.5704(3) 0.5528(2)
H9 H 0.2626 0.6181 0.5898
C7 C 0.4735(3) 0.4638(3) 0.3653(2)
H10 H 0.4564 0.4381 0.2730
C8 C 0.3284(3) 0.5354(3) 0.41562(19)
C9 C 0.1461(3) 0.5739(3) 0.3316(2)
H11 H 0.0401 0.5840 0.3713
C10 C 0.1196(3) 0.5953(3) 0.2054(2)
H12 H 0.2231 0.5798 0.1642
C11 C -0.0630(3) 0.6423(3) 0.12331(19)
O3A O 1.03762(19) 0.25587(19) 0.96352(14)
O4A O 1.22675(19) 0.41982(19) 0.85797(14)
C6A C 0.6414(3) 0.4296(3) 0.4472(2)
H9A H 0.7374 0.3819 0.4102
C7A C 0.5265(3) 0.5362(3) 0.6347(2)
H10A H 0.5436 0.5619 0.7270
C8A C 0.6716(3) 0.4646(3) 0.58438(19)
C9A C 0.8539(3) 0.4261(3) 0.6684(2)
H11A H 0.9599 0.4160 0.6287
C10A C 0.8804(3) 0.4047(3) 0.7946(2)
H12A H 0.7769 0.4202 0.8358
C11A C 1.0630(3) 0.3577(3) 0.87669(19)
loop_
_geom_bond_atom_site_label_1
_geom_bond_atom_site_label_2
_geom_bond_site_symmetry_1
_geom_bond_site_symmetry_2
Ni1 N1 1_555 1_555
N1 C1 1_555 1_555
O1 Ni1 1_555 1_555
H1 O1 1_555 1_555
H2 O1 1_555 1_555
O2 Ni1 1_555 1_555
H3 O2 1_555 1_555
H4 O2 1_555 1_555
O3 C11 1_555 1_555
O4 C11 1_555 1_555
C1 H5 1_555 1_555
C2 C1 1_555 1_555
H6 C2 1_555 1_555
C3 C2 1_555 1_555
C4 C3 1_555 1_555
H7 C4 1_555 1_555
C5 N1 1_555 1_555
H8 C5 1_555 1_555
C6 H9 1_555 1_555
C7 H10 1_555 1_555
C8 C6 1_555 1_555
C9 C8 1_555 1_555
H11 C9 1_555 1_555
C10 C9 1_555 1_555
H12 C10 1_555 1_555
C11 C10 1_555 1_555
Ni1_2 N1A 1_555 1_555
N1A C1A 1_555 1_555
N1A_2 Ni1 1_555 1_555
O1A Ni1 1_555 1_555
H1A O1A 1_555 1_555
H2A O1A 1_555 1_555
O2A Ni1 1_555 1_555
H3A O2A 1_555 1_555
H4A O2A 1_555 1_555
O3A C11A 1_555 1_555
O4A C11A 1_555 1_555
C1A H5A 1_555 1_555
C2A C1A 1_555 1_555
H6A C2A 1_555 1_555
C3A C3 1_555 1_555
C4A C3A 1_555 1_555
H7A C4A 1_555 1_555
C5A N1A 1_555 1_555
H8A C5A 1_555 1_555
C6A C7 1_555 1_555
H9A C6A 1_555 1_555
C7A C6 1_555 1_555
H10A C7A 1_555 1_555
C8A C6A 1_555 1_555
C9A C8A 1_555 1_555
H11A C9A 1_555 1_555
C10A C9A 1_555 1_555
H12A C10A 1_555 1_555
C11A C10A 1_555 1_555
C4 C5 1_555 1_555
C7 C8 1_555 1_555
C2A C3A 1_555 1_555
C4A C5A 1_555 1_555
C7A C8A 1_555 1_555

#END
