
#######################################################################
#
#                 Cambridge Crystallographic Data Centre
#                                CCDC 
#
#######################################################################
#
# If this CIF has been generated from an entry in the Cambridge 
# Structural Database, then it will include bibliographic, chemical, 
# crystal, experimental, refinement or atomic coordinate data resulting 
# from the CCDC's data processing and validation procedures.
#
#######################################################################

data_AZIYOX02
_symmetry_cell_setting           monoclinic
_symmetry_space_group_name_H-M   'C 2/c'
_symmetry_Int_Tables_number      15
_space_group_name_Hall           '-C 2yn'
loop_
_symmetry_equiv_pos_site_id
_symmetry_equiv_pos_as_xyz
1 x,y,z
2 1/2+x,1/2+y,z
3 -x,y,1/2-z
4 1/2-x,1/2+y,1/2-z
5 -x,-y,-z
6 1/2-x,1/2-y,-z
7 x,-y,1/2+z
8 1/2+x,1/2-y,1/2+z
_cell_length_a                   17.9796(4)
_cell_length_b                   7.8105(2)
_cell_length_c                   18.8844(4)
_cell_angle_alpha                90
_cell_angle_beta                 111.810(1)
_cell_angle_gamma                90
_cell_volume                     2462.11
loop_
_atom_site_label
_atom_site_type_symbol
_atom_site_fract_x
_atom_site_fract_y
_atom_site_fract_z
Nd1 Nd 0.975703(10) 0.756636(19) 0.462903(9)
O1 O 1.05259(15) 0.8338(3) 0.37559(13)
O2 O 1.06168(14) 1.0165(3) 0.46609(12)
O3 O 1.07689(15) 1.2365(2) 0.09765(15)
O4 O 1.10787(14) 0.9600(3) 0.12675(13)
O5 O 0.84021(15) 0.6844(3) 0.46389(15)
O6 O 0.93535(14) 0.4998(3) 0.52231(13)
C1 C 1.07220(19) 0.9799(4) 0.40451(18)
C2 C 1.1078(2) 1.1148(4) 0.3698(2)
H1 H 1.1573 1.1540 0.4088
H2 H 1.0714 1.2115 0.3559
C3 C 1.1258(2) 1.0641(4) 0.30021(19)
H3 H 1.0765 1.0335 0.2588
H4 H 1.1609 0.9651 0.3121
C4 C 1.1661(2) 1.2130(5) 0.2755(2)
H5 H 1.1294 1.3093 0.2616
H6 H 1.2131 1.2479 0.3187
C5 C 1.1913(2) 1.1712(5) 0.20832(19)
H7 H 1.2163 1.2713 0.1963
H8 H 1.2306 1.0798 0.2230
C6 C 1.1209(2) 1.1171(4) 0.13795(18)
C7 C 0.86364(19) 0.5552(4) 0.50522(19)
C8 C 0.8088(2) 0.4618(4) 0.5349(2)
H9 H 0.7654 0.5366 0.5342
H10 H 0.8379 0.4262 0.5872
C9 C 0.7750(2) 0.3054(5) 0.4849(2)
H11 H 0.7424 0.3430 0.4338
H12 H 0.8189 0.2380 0.4817
O7 O 0.91353(16) 0.5679(3) 0.35024(14)
H13 H 0.9145 0.4634 0.3608
H14 H 0.9290 0.5686 0.3106
Nd1D Nd 1.024297(10) 1.243364(19) 0.537097(9)
Nd1F Nd 0.975703(10) 1.243364(19) -0.037097(9)
Nd1B Nd 1.024297(10) 0.756636(19) 0.037097(9)
Nd1D_2 Nd 1.024297(10) 0.243364(19) 0.537097(9)
Nd1E Nd 0.524297(10) -0.256636(19) 0.537097(9)
Nd1A Nd 0.475703(10) 0.256636(19) 0.462903(9)
Nd1B_2 Nd 1.024297(10) 0.756636(19) 1.037097(9)
Nd1F_2 Nd 0.975703(10) 1.243364(19) 0.962903(9)
O1D O 0.94741(15) 1.1662(3) 0.62441(13)
O2D O 0.93832(14) 0.9835(3) 0.53391(12)
O3D O 0.92311(15) 0.7635(2) 0.90235(15)
O3F O 1.07689(15) 0.7635(2) 0.59765(15)
O3B O 0.92311(15) 1.2365(2) 0.40235(15)
O4D O 0.89213(14) 1.0400(3) 0.87325(13)
O4B O 0.89213(14) 0.9600(3) 0.37325(13)
O4F O 1.10787(14) 1.0400(3) 0.62675(13)
O5E O 0.65979(15) -0.1844(3) 0.53611(15)
O5D O 1.15979(15) 1.3156(3) 0.53611(15)
O6E O 0.56465(14) 0.0002(3) 0.47769(13)
O6D O 1.06465(14) 0.5002(3) 0.47769(13)
O6_2 O 0.93535(14) 1.4998(3) 0.52231(13)
O6D_2 O 1.06465(14) 1.5002(3) 0.47769(13)
C1D C 0.92780(19) 1.0201(4) 0.59549(18)
C2D C 0.8922(2) 0.8852(4) 0.6302(2)
H1D H 0.8427 0.8460 0.5912
H2D H 0.9286 0.7885 0.6441
C3D C 0.8742(2) 0.9359(4) 0.69979(19)
H3D H 0.9235 0.9665 0.7412
H4D H 0.8391 1.0349 0.6879
C4D C 0.8339(2) 0.7870(5) 0.7245(2)
H5D H 0.8706 0.6907 0.7384
H6D H 0.7869 0.7521 0.6813
C5D C 0.8087(2) 0.8288(5) 0.79168(19)
H7D H 0.7837 0.7287 0.8037
H8D H 0.7694 0.9202 0.7770
C6D C 0.8791(2) 0.8829(4) 0.86205(18)
C7E C 0.63636(19) -0.0552(4) 0.49478(19)
C8E C 0.6912(2) 0.0382(4) 0.4651(2)
H9E H 0.7346 -0.0366 0.4658
H10E H 0.6621 0.0738 0.4128
C9E C 0.7250(2) 0.1946(5) 0.5151(2)
H11E H 0.7576 0.1570 0.5662
H12E H 0.6811 0.2620 0.5183
O7D O 1.08647(16) 1.4321(3) 0.64976(14)
H13D H 1.0855 1.5366 0.6392
H14D H 1.0710 1.4314 0.6894
O8 O 1.0000 0.3752(5) 0.7500
H15 H 0.9652 0.3207 0.7025
H15B H 1.0348 0.3207 0.7975
loop_
_geom_bond_atom_site_label_1
_geom_bond_atom_site_label_2
_geom_bond_site_symmetry_1
_geom_bond_site_symmetry_2
Nd1 O1 1_555 1_555
O1 C1 1_555 1_555
O2 Nd1 1_555 1_555
O3 C6 1_555 1_555
O4 C6 1_555 1_555
O5 Nd1 1_555 1_555
O6 Nd1 1_555 1_555
C1 O2 1_555 1_555
C2 C1 1_555 1_555
H1 C2 1_555 1_555
H2 C2 1_555 1_555
C3 C2 1_555 1_555
H3 C3 1_555 1_555
H4 C3 1_555 1_555
C4 C3 1_555 1_555
H5 C4 1_555 1_555
H6 C4 1_555 1_555
C5 C4 1_555 1_555
H7 C5 1_555 1_555
H8 C5 1_555 1_555
C6 C5 1_555 1_555
C7 O5 1_555 1_555
C8 C7 1_555 1_555
H9 C8 1_555 1_555
H10 C8 1_555 1_555
C9 C8 1_555 1_555
H11 C9 1_555 1_555
H12 C9 1_555 1_555
O7 Nd1 1_555 1_555
H13 O7 1_555 1_555
H14 O7 1_555 1_555
O8 H15 1_555 1_555
Nd1D O2 1_555 1_555
Nd1F O3 1_555 1_555
Nd1B O4 1_555 1_555
Nd1D_2 O6 1_555 1_555
Nd1E O5E 1_555 1_555
Nd1A O6E 1_555 1_555
Nd1B_2 O3D 1_555 1_555
Nd1F_2 O4D 1_555 1_555
O1D Nd1D 1_555 1_555
O2D Nd1 1_555 1_555
O3D C6D 1_555 1_555
O3F Nd1 1_555 1_555
O3B Nd1D 1_555 1_555
O4D C6D 1_555 1_555
O4B Nd1 1_555 1_555
O4F Nd1D 1_555 1_555
O5E C7E 1_555 1_555
O5D Nd1D 1_555 1_555
O6E Nd1E 1_555 1_555
O6D Nd1 1_555 1_555
O6_2 Nd1D 1_555 1_555
O6D_2 Nd1D 1_555 1_555
C1D O1D 1_555 1_555
C2D C1D 1_555 1_555
H1D C2D 1_555 1_555
H2D C2D 1_555 1_555
C3D C2D 1_555 1_555
H3D C3D 1_555 1_555
H4D C3D 1_555 1_555
C4D C3D 1_555 1_555
H5D C4D 1_555 1_555
H6D C4D 1_555 1_555
C5D C4D 1_555 1_555
H7D C5D 1_555 1_555
H8D C5D 1_555 1_555
C6D C5D 1_555 1_555
C7E O6E 1_555 1_555
C8E C7E 1_555 1_555
H9E C8E 1_555 1_555
H10E C8E 1_555 1_555
C9E C9 1_555 1_555
H11E C9E 1_555 1_555
H12E C9E 1_555 1_555
O7D Nd1D 1_555 1_555
H13D O7D 1_555 1_555
H14D O7D 1_555 1_555
H15B O8 1_555 1_555
O6 C7 1_555 1_555
Nd1D O2D 1_555 1_555
Nd1D_2 O6D 1_555 1_555
O2D C1D 1_555 1_555
C8E C9E 1_555 1_555

#END
