
#######################################################################
#
#                 Cambridge Crystallographic Data Centre
#                                CCDC 
#
#######################################################################
#
# If this CIF has been generated from an entry in the Cambridge 
# Structural Database, then it will include bibliographic, chemical, 
# crystal, experimental, refinement or atomic coordinate data resulting 
# from the CCDC's data processing and validation procedures.
#
#######################################################################

data_AZIYUE
_symmetry_cell_setting           triclinic
_symmetry_space_group_name_H-M   'P -1'
_symmetry_Int_Tables_number      2
_space_group_name_Hall           '-P 1'
loop_
_symmetry_equiv_pos_site_id
_symmetry_equiv_pos_as_xyz
1 x,y,z
2 -x,-y,-z
_cell_length_a                   7.76210(10)
_cell_length_b                   7.96520(10)
_cell_length_c                   8.34160(10)
_cell_angle_alpha                79.6180(10)
_cell_angle_beta                 65.5740(10)
_cell_angle_gamma                83.5750(10)
_cell_volume                     461.483
loop_
_atom_site_label
_atom_site_type_symbol
_atom_site_fract_x
_atom_site_fract_y
_atom_site_fract_z
Ba1 Ba 0.047838(16) 0.597922(13) 0.212249(13)
O1 O 0.1383(2) 0.32074(19) 0.4588(2)
O2 O -0.1803(3) 0.8279(2) 0.0982(2)
H1 H -0.1919 0.9411 0.0794
H2 H -0.2053 0.7847 0.0267
O3 O 0.2226(3) 0.27828(19) 0.18144(19)
O4 O 0.2563(3) -0.1752(2) 0.8942(2)
O5 O 0.2032(2) -0.42403(18) 0.84296(19)
N1 N 0.4296(3) -0.3479(2) 0.1704(2)
H3 H 0.5246 -0.2931 0.0622
H4 H 0.5405 -0.4208 0.1747
C1 C 0.2029(3) 0.2256(2) 0.3391(3)
C2 C 0.2556(3) 0.0420(2) 0.3867(3)
C3 C 0.2367(3) -0.0217(2) 0.5594(3)
H5 H 0.1983 0.0512 0.6446
C4 C 0.2751(3) -0.1940(2) 0.6051(3)
C5 C 0.3385(3) -0.3012(2) 0.4757(3)
H6 H 0.3610 -0.4171 0.5071
C6 C 0.3688(3) -0.2373(2) 0.2996(3)
C7 C 0.3232(3) -0.0654(3) 0.2571(3)
H7 H 0.3382 -0.0221 0.1411
C8 C 0.2440(3) -0.2676(3) 0.7936(3)
Ba1A Ba -0.047838(16) 0.402078(13) 0.787751(13)
Ba1_2 Ba 0.047838(16) -0.402078(13) 1.212249(13)
Ba1A_2 Ba -0.047838(16) -0.597922(13) 0.787751(13)
Ba1_3 Ba 0.047838(16) -0.402078(13) 0.212249(13)
O1A O -0.1383(2) 0.67926(19) 0.5412(2)
O4_2 O 0.2563(3) 0.8248(2) -0.1058(2)
O5_2 O 0.2032(2) 0.57597(18) -0.15704(19)
O5A O -0.2032(2) 0.42403(18) 0.15704(19)
N1_2 N 0.4296(3) 0.6521(2) 0.1704(2)
H3_2 H 0.5246 0.7069 0.0622
H4_2 H 0.5405 0.5792 0.1747
loop_
_geom_bond_atom_site_label_1
_geom_bond_atom_site_label_2
_geom_bond_site_symmetry_1
_geom_bond_site_symmetry_2
Ba1 O1 1_555 1_555
O1 C1 1_555 1_555
O2 Ba1 1_555 1_555
H1 O2 1_555 1_555
H2 O2 1_555 1_555
O3 Ba1 1_555 1_555
O4 C8 1_555 1_555
O5 C8 1_555 1_555
N1 H3 1_555 1_555
H4 N1 1_555 1_555
C1 O3 1_555 1_555
C2 C1 1_555 1_555
C3 C2 1_555 1_555
H5 C3 1_555 1_555
C4 C3 1_555 1_555
C5 C4 1_555 1_555
H6 C5 1_555 1_555
C6 N1 1_555 1_555
C7 C2 1_555 1_555
H7 C7 1_555 1_555
C8 C4 1_555 1_555
Ba1A O1 1_555 1_555
Ba1_2 O4 1_555 1_555
Ba1A_2 O5 1_555 1_555
Ba1_3 N1 1_555 1_555
O1A Ba1 1_555 1_555
O4_2 Ba1 1_555 1_555
O5_2 Ba1 1_555 1_555
O5A Ba1 1_555 1_555
N1_2 Ba1 1_555 1_555
H3_2 N1_2 1_555 1_555
H4_2 N1_2 1_555 1_555
O5 Ba1_2 1_555 1_555
C5 C6 1_555 1_555
C6 C7 1_555 1_555
Ba1A O1A 1_555 1_555

#END
