
#######################################################################
#
#                 Cambridge Crystallographic Data Centre
#                                CCDC 
#
#######################################################################
#
# If this CIF has been generated from an entry in the Cambridge 
# Structural Database, then it will include bibliographic, chemical, 
# crystal, experimental, refinement or atomic coordinate data resulting 
# from the CCDC's data processing and validation procedures.
#
#######################################################################

data_AZIYIR
_symmetry_cell_setting           triclinic
_symmetry_space_group_name_H-M   'P -1'
_symmetry_Int_Tables_number      2
_space_group_name_Hall           '-P 1'
loop_
_symmetry_equiv_pos_site_id
_symmetry_equiv_pos_as_xyz
1 x,y,z
2 -x,-y,-z
_cell_length_a                   8.0752(10)
_cell_length_b                   11.637(2)
_cell_length_c                   13.209(3)
_cell_angle_alpha                106.759(9)
_cell_angle_beta                 93.419(18)
_cell_angle_gamma                107.225(12)
_cell_volume                     1120.87
loop_
_atom_site_label
_atom_site_type_symbol
_atom_site_fract_x
_atom_site_fract_y
_atom_site_fract_z
Nd1 Nd 0.22949(2) 0.516016(19) 0.723563(15)
Nd2 Nd 0.73456(2) 0.513360(19) 0.769580(15)
O1 O 0.7412(4) 0.5054(3) 0.9569(2)
H1 H 0.8201 0.5431 1.0027
H2 H 0.6873 0.4576 0.9832
O2 O 0.1588(3) 0.3479(3) 0.8154(2)
O3 O 0.7582(3) 0.7350(3) 0.8755(2)
O4 O -0.2829(4) 0.2844(3) 0.7356(2)
O5 O 0.2006(3) -0.2769(3) 0.7274(2)
O6 O 0.2037(4) 0.5303(3) 0.5396(2)
H3 H 0.2805 0.5791 0.5306
H4 H 0.1474 0.4634 0.4978
O7 O -0.0796(3) 0.3895(2) 0.6614(2)
O8 O 0.4390(3) 0.4272(2) 0.8096(2)
O9 O -0.2664(3) -0.3246(3) 0.4045(2)
O10 O -0.5540(3) -0.4014(3) 0.4061(2)
O11 O 0.5352(3) 0.6451(2) 0.7420(2)
O12 O -0.0897(3) -0.3580(3) 0.6742(2)
O13 O 0.6794(3) 1.3349(2) 1.0805(2)
O14 O 0.9624(3) 1.4154(2) 1.1393(2)
C1 C 0.6350(5) 0.7434(4) 0.8185(3)
C2 C 0.6024(5) 0.8682(4) 0.8358(3)
H5 H 0.4923 0.8633 0.8662
H6 H 0.5847 0.8806 0.7654
C3 C 0.7484(5) 0.9830(4) 0.9092(3)
H7 H 0.8562 0.9925 0.8759
H8 H 0.7730 0.9679 0.9777
C4 C 0.7061(5) 1.1064(4) 0.9326(3)
H9 H 0.6658 1.1163 0.8643
H10 H 0.6093 1.1024 0.9755
C5 C 0.8649(5) 1.2207(4) 0.9932(4)
H11 H 0.9455 1.1911 1.0306
H12 H 0.9272 1.2545 0.9402
C6 C 0.8302(5) 1.3283(4) 1.0739(3)
C7 C 0.0551(5) -0.2659(4) 0.7021(3)
C8 C 0.0481(5) -0.1378(4) 0.7031(3)
H13 H -0.0543 -0.1244 0.7363
H14 H 0.0272 -0.1394 0.6280
C9 C 0.2097(5) -0.0247(4) 0.7614(3)
H15 H 0.3101 -0.0308 0.7233
H16 H 0.2396 -0.0266 0.8346
C10 C 0.1803(5) 0.1008(4) 0.7687(3)
H17 H 0.1501 0.1018 0.6952
H18 H 0.0785 0.1055 0.8059
C11 C 0.3371(5) 0.2181(4) 0.8269(3)
H19 H 0.3569 0.2253 0.9034
H20 H 0.4434 0.2090 0.7964
C12 C 0.3093(5) 0.3363(4) 0.8175(3)
C13 C -0.1780(5) 0.2845(4) 0.6690(3)
C14 C -0.1712(5) 0.1629(4) 0.5924(3)
H21 H -0.2137 0.1583 0.5191
H22 H -0.0469 0.1665 0.5954
C15 C -0.2771(5) 0.0403(4) 0.6116(3)
H23 H -0.3984 0.0405 0.6186
H24 H -0.2237 0.0368 0.6797
C16 C -0.2829(5) -0.0772(4) 0.5206(3)
H25 H -0.1614 -0.0772 0.5145
H26 H -0.3342 -0.0722 0.4527
C17 C -0.3892(5) -0.2015(4) 0.5356(3)
H27 H -0.5089 -0.1997 0.5459
H28 H -0.3339 -0.2092 0.6011
C18 C -0.4026(5) -0.3166(4) 0.4417(3)
O5_2 O 0.2006(3) 0.7231(3) 0.7274(2)
O9A O 0.2664(3) 0.3246(3) 0.5955(2)
O13A O 0.3206(3) 0.6651(2) 0.9195(2)
O14A O 0.0376(3) 0.5846(2) 0.8607(2)
O4_2 O 0.7171(4) 0.2844(3) 0.7356(2)
O7_2 O 0.9204(3) 0.3895(2) 0.6614(2)
O10A O 0.5540(3) 0.4014(3) 0.5939(2)
O12_2 O 0.9103(3) 0.6420(3) 0.6742(2)
O14A_2 O 1.0376(3) 0.5846(2) 0.8607(2)
Nd2_2 Nd -0.26544(2) 0.513360(19) 0.769580(15)
Nd1_2 Nd 0.22949(2) -0.483984(19) 0.723563(15)
Nd1A Nd -0.22949(2) -0.516016(19) 0.276437(15)
Nd2A Nd -0.73456(2) -0.513360(19) 0.230420(15)
Nd2_3 Nd -0.26544(2) -0.486640(19) 0.769580(15)
Nd1A_2 Nd 0.77051(2) 1.483984(19) 1.276437(15)
Nd2A_2 Nd 1.26544(2) 1.486640(19) 1.230420(15)
loop_
_geom_bond_atom_site_label_1
_geom_bond_atom_site_label_2
_geom_bond_site_symmetry_1
_geom_bond_site_symmetry_2
Nd1 O2 1_555 1_555
Nd2 O1 1_555 1_555
O1 H1 1_555 1_555
H2 O1 1_555 1_555
O2 C12 1_555 1_555
O3 Nd2 1_555 1_555
O4 C13 1_555 1_555
O5 C7 1_555 1_555
O6 Nd1 1_555 1_555
H3 O6 1_555 1_555
H4 O6 1_555 1_555
O7 Nd1 1_555 1_555
O8 Nd1 1_555 1_555
O9 C18 1_555 1_555
O10 C18 1_555 1_555
O11 Nd1 1_555 1_555
O12 C7 1_555 1_555
O13 C6 1_555 1_555
O14 C6 1_555 1_555
C1 O3 1_555 1_555
C2 C1 1_555 1_555
H5 C2 1_555 1_555
H6 C2 1_555 1_555
C3 C2 1_555 1_555
H7 C3 1_555 1_555
H8 C3 1_555 1_555
C4 C3 1_555 1_555
H9 C4 1_555 1_555
H10 C4 1_555 1_555
C5 C4 1_555 1_555
H11 C5 1_555 1_555
H12 C5 1_555 1_555
C6 C5 1_555 1_555
C7 C8 1_555 1_555
C8 H13 1_555 1_555
H14 C8 1_555 1_555
C9 C8 1_555 1_555
H15 C9 1_555 1_555
H16 C9 1_555 1_555
C10 C9 1_555 1_555
H17 C10 1_555 1_555
H18 C10 1_555 1_555
C11 C10 1_555 1_555
H19 C11 1_555 1_555
H20 C11 1_555 1_555
C12 O8 1_555 1_555
C13 O7 1_555 1_555
C14 C13 1_555 1_555
H21 C14 1_555 1_555
H22 C14 1_555 1_555
C15 C14 1_555 1_555
H23 C15 1_555 1_555
H24 C15 1_555 1_555
C16 C15 1_555 1_555
H25 C16 1_555 1_555
H26 C16 1_555 1_555
C17 C16 1_555 1_555
H27 C17 1_555 1_555
H28 C17 1_555 1_555
C18 C17 1_555 1_555
O5_2 Nd1 1_555 1_555
O9A Nd1 1_555 1_555
O13A Nd1 1_555 1_555
O14A Nd1 1_555 1_555
O4_2 Nd2 1_555 1_555
O7_2 Nd2 1_555 1_555
O10A Nd2 1_555 1_555
O12_2 Nd2 1_555 1_555
O14A_2 Nd2 1_555 1_555
Nd2_2 O4 1_555 1_555
Nd1_2 O5 1_555 1_555
Nd1A O9 1_555 1_555
Nd2A O10 1_555 1_555
Nd2_3 O12 1_555 1_555
Nd1A_2 O13 1_555 1_555
Nd2A_2 O14 1_555 1_555
Nd2 O8 1_555 1_555
Nd2 O11 1_555 1_555
O7 Nd2_2 1_555 1_555
O11 C1 1_555 1_555
O14 Nd1A_2 1_555 1_555
C11 C12 1_555 1_555
O14A Nd2_2 1_555 1_555

#END
