
#######################################################################
#
#                 Cambridge Crystallographic Data Centre
#                                CCDC 
#
#######################################################################
#
# If this CIF has been generated from an entry in the Cambridge 
# Structural Database, then it will include bibliographic, chemical, 
# crystal, experimental, refinement or atomic coordinate data resulting 
# from the CCDC's data processing and validation procedures.
#
#######################################################################

data_AZIYOX
_symmetry_cell_setting           monoclinic
_symmetry_space_group_name_H-M   'C 2/c'
_symmetry_Int_Tables_number      15
_space_group_name_Hall           '-C 2yn'
loop_
_symmetry_equiv_pos_site_id
_symmetry_equiv_pos_as_xyz
1 x,y,z
2 1/2+x,1/2+y,z
3 x,-y,1/2+z
4 1/2+x,1/2-y,1/2+z
5 -x,-y,-z
6 1/2-x,1/2-y,-z
7 -x,y,1/2-z
8 1/2-x,1/2+y,1/2-z
_cell_length_a                   17.8476(9)
_cell_length_b                   7.7655(4)
_cell_length_c                   18.7665(10)
_cell_angle_alpha                90
_cell_angle_beta                 111.782(2)
_cell_angle_gamma                90
_cell_volume                     2415.25
loop_
_atom_site_label
_atom_site_type_symbol
_atom_site_fract_x
_atom_site_fract_y
_atom_site_fract_z
Nd1 Nd 0.024300(8) 0.742871(14) 0.037117(7)
C1 C -0.07251(15) 0.5207(3) 0.09542(14)
C2 C -0.10767(18) 0.3857(3) 0.13027(16)
H1 H -0.0707 0.2890 0.1443
H2 H -0.1574 0.3455 0.0911
C3 C -0.12597(17) 0.4361(3) 0.19998(15)
H3 H -0.0763 0.4663 0.2418
H4 H -0.1611 0.5360 0.1881
C4 C -0.16644(18) 0.2885(4) 0.22417(15)
H5 H -0.1298 0.1911 0.2378
H6 H -0.2140 0.2545 0.1807
C5 C -0.19148(16) 0.3291(4) 0.29152(15)
H7 H -0.2311 0.4211 0.2771
H8 H -0.2167 0.2282 0.3034
C6 C -0.12083(15) 0.3823(3) 0.36187(14)
C7 C 0.13642(15) 0.9447(3) -0.00526(15)
C8 C 0.19115(16) 1.0384(3) -0.03518(17)
H9 H 0.1617 1.0748 -0.0876
H10 H 0.2348 0.9635 -0.0347
C9 C 0.22498(16) 1.1945(3) 0.01542(16)
H11 H 0.1808 1.2621 0.0189
H12 H 0.2579 1.1562 0.0667
O1 O -0.06154(11) 0.4834(2) 0.03413(10)
O2 O -0.05267(12) 0.6656(2) 0.12461(11)
O3 O -0.07753(13) 0.2646(2) 0.40415(12)
O4 O -0.10818(12) 0.5392(2) 0.37326(10)
O5 O 0.15977(12) 0.8158(2) 0.03619(12)
O6 O 0.06469(11) 1.0002(2) -0.02203(11)
O7 O 0.08660(15) 0.9323(3) 0.15007(13)
H13 H 0.070(2) 0.934(5) 0.184(2)
H14 H 0.088(2) 1.036(5) 0.137(2)
C9E C 0.27502(16) 1.3055(3) -0.01542(16)
C8E C 0.30885(16) 1.4616(3) 0.03518(17)
C7E C 0.36358(15) 1.5553(3) 0.00526(15)
O5E O 0.34023(12) 1.6842(2) -0.03619(12)
O6E O 0.43531(11) 1.4998(2) 0.02203(11)
H9E H 0.3383 1.4252 0.0876
H10E H 0.2652 1.5365 0.0347
H11E H 0.3192 1.2379 -0.0189
H12E H 0.2421 1.3438 -0.0667
C1D C 0.07251(15) 0.4793(3) -0.09542(14)
C2D C 0.10767(18) 0.6143(3) -0.13027(16)
H1D H 0.0707 0.7110 -0.1443
H2D H 0.1574 0.6545 -0.0911
C3D C 0.12597(17) 0.5639(3) -0.19998(15)
H3D H 0.0763 0.5337 -0.2418
H4D H 0.1611 0.4640 -0.1881
C4D C 0.16644(18) 0.7115(4) -0.22417(15)
H5D H 0.1298 0.8089 -0.2378
H6D H 0.2140 0.7455 -0.1807
C5D C 0.19148(16) 0.6709(4) -0.29152(15)
H7D H 0.2311 0.5789 -0.2771
H8D H 0.2167 0.7718 -0.3034
C6D C 0.12083(15) 0.6177(3) -0.36187(14)
O1D O 0.06154(11) 0.5166(2) -0.03413(10)
O2D O 0.05267(12) 0.3344(2) -0.12461(11)
O3D O 0.07753(13) 0.7354(2) -0.40415(12)
O4D O 0.10818(12) 0.4608(2) -0.37326(10)
Nd1D Nd -0.024300(8) 0.257129(14) -0.037117(7)
O7D O -0.08660(15) 0.0677(3) -0.15007(13)
H13D H -0.070(2) 0.066(5) -0.184(2)
H14D H -0.088(2) -0.036(5) -0.137(2)
O3B O -0.07753(13) 0.7354(2) -0.09585(12)
O4F O 0.10818(12) 0.5392(2) 0.12674(10)
O6D O -0.06469(11) 0.9998(2) 0.02203(11)
Nd1B Nd 0.024300(8) 0.257129(14) 0.537117(7)
Nd1F Nd -0.024300(8) 0.742871(14) 0.462883(7)
Nd1D_2 Nd -0.024300(8) 1.257129(14) -0.037117(7)
Nd1E Nd 0.475700(8) 1.757129(14) -0.037117(7)
Nd1A Nd 0.524300(8) 1.242871(14) 0.037117(7)
Nd1F_2 Nd -0.024300(8) 0.742871(14) -0.537117(7)
Nd1B_2 Nd 0.024300(8) 0.257129(14) -0.462883(7)
O3F O 0.07753(13) 0.2646(2) 0.09585(12)
O4B O -0.10818(12) 0.4608(2) -0.12674(10)
O5D O -0.15977(12) 0.1842(2) -0.03619(12)
O6_2 O 0.06469(11) 0.0002(2) -0.02203(11)
O6D_2 O -0.06469(11) -0.0002(2) 0.02203(11)
O8 O 0.0000 0.8761(5) 0.2500
H15 H 0.025(3) 0.803(6) 0.281(3)
H15F H -0.025(3) 0.803(6) 0.219(3)
loop_
_geom_bond_atom_site_label_1
_geom_bond_atom_site_label_2
_geom_bond_site_symmetry_1
_geom_bond_site_symmetry_2
Nd1 O1 1_555 1_555
C1 C2 1_555 1_555
C2 H1 1_555 1_555
H2 C2 1_555 1_555
C3 C2 1_555 1_555
H3 C3 1_555 1_555
H4 C3 1_555 1_555
C4 C3 1_555 1_555
H5 C4 1_555 1_555
H6 C4 1_555 1_555
C5 C4 1_555 1_555
H7 C5 1_555 1_555
H8 C5 1_555 1_555
C6 C5 1_555 1_555
C7 C8 1_555 1_555
C8 H9 1_555 1_555
H10 C8 1_555 1_555
C9 C8 1_555 1_555
H11 C9 1_555 1_555
H12 C9 1_555 1_555
O1 C1 1_555 1_555
O2 Nd1 1_555 1_555
O3 C6 1_555 1_555
O4 C6 1_555 1_555
O5 Nd1 1_555 1_555
O6 Nd1 1_555 1_555
O7 Nd1 1_555 1_555
H13 O7 1_555 1_555
H14 O7 1_555 1_555
O8 H15 1_555 1_555
C9E C9 1_555 1_555
C8E C9E 1_555 1_555
C7E C8E 1_555 1_555
O5E C7E 1_555 1_555
O6E C7E 1_555 1_555
H9E C8E 1_555 1_555
H10E C8E 1_555 1_555
H11E C9E 1_555 1_555
H12E C9E 1_555 1_555
H15F O8 1_555 1_555
C1D C2D 1_555 1_555
C2D H1D 1_555 1_555
H2D C2D 1_555 1_555
C3D C2D 1_555 1_555
H3D C3D 1_555 1_555
H4D C3D 1_555 1_555
C4D C3D 1_555 1_555
H5D C4D 1_555 1_555
H6D C4D 1_555 1_555
C5D C4D 1_555 1_555
H7D C5D 1_555 1_555
H8D C5D 1_555 1_555
C6D C5D 1_555 1_555
O1D Nd1 1_555 1_555
O2D C1D 1_555 1_555
O3D C6D 1_555 1_555
O4D C6D 1_555 1_555
Nd1D O1 1_555 1_555
O7D Nd1D 1_555 1_555
H13D O7D 1_555 1_555
H14D O7D 1_555 1_555
O3B Nd1 1_555 1_555
O4F Nd1 1_555 1_555
O6D Nd1 1_555 1_555
Nd1B O3 1_555 1_555
Nd1F O4 1_555 1_555
Nd1D_2 O6 1_555 1_555
Nd1E O5E 1_555 1_555
Nd1A O6E 1_555 1_555
Nd1F_2 O3D 1_555 1_555
Nd1B_2 O4D 1_555 1_555
O3F Nd1D 1_555 1_555
O4B Nd1D 1_555 1_555
O5D Nd1D 1_555 1_555
O6_2 Nd1D 1_555 1_555
O6D_2 Nd1D 1_555 1_555
C1 O2 1_555 1_555
C7 O5 1_555 1_555
C7 O6 1_555 1_555
O6E Nd1E 1_555 1_555
C1D O1D 1_555 1_555
O1D Nd1D 1_555 1_555
O2D Nd1D 1_555 1_555
O6D Nd1D_2 1_555 1_555

#END
