
#######################################################################
#
#                 Cambridge Crystallographic Data Centre
#                                CCDC 
#
#######################################################################
#
# If this CIF has been generated from an entry in the Cambridge 
# Structural Database, then it will include bibliographic, chemical, 
# crystal, experimental, refinement or atomic coordinate data resulting 
# from the CCDC's data processing and validation procedures.
#
#######################################################################

data_AZNPYD
_symmetry_cell_setting           triclinic
_symmetry_space_group_name_H-M   'P -1'
_symmetry_Int_Tables_number      2
_space_group_name_Hall           '-P 1'
loop_
_symmetry_equiv_pos_site_id
_symmetry_equiv_pos_as_xyz
1 x,y,z
2 -x,-y,-z
_cell_length_a                   6.488(3)
_cell_length_b                   9.873(7)
_cell_length_c                   9.999(6)
_cell_angle_alpha                130.11(4)
_cell_angle_beta                 87.10(4)
_cell_angle_gamma                100.32(5)
_cell_volume                     480.141
loop_
_atom_site_label
_atom_site_type_symbol
_atom_site_fract_x
_atom_site_fract_y
_atom_site_fract_z
C1 C 0.16982 0.16239 0.37279
C2 C 0.18131 0.09274 0.20028
C3 C 0.24567 0.37692 0.29196
C4 C 0.23917 0.44848 0.46573
C5 C 0.27669 0.65155 0.62234
C6 C 0.28243 0.48844 0.23442
H1 H 0.14100 0.08900 0.40600
H2 H 0.16800 -0.01600 0.10500
H3 H 0.25000 0.63200 1.10600
H4 H 0.36500 0.73400 1.07500
H5 H 0.25300 0.23800 0.77700
H6 H 0.03000 0.26800 0.81300
N1 N 0.19899 0.33943 0.50458
N2 N 0.21891 0.19803 0.15931
O1 O 0.12268 0.51893 0.19822
O2 O 0.46714 0.53169 0.21099
O3 O 0.31411 0.75183 0.58728
O4 O 0.26567 0.69742 0.77289
O5 O 0.24774 0.67807 1.05703
O6 O 0.13493 0.26392 0.76195
Zn1 Zn 0.21330 0.49232 0.78310
C1A C -0.16982 0.83761 0.62721
C2A C -0.18131 0.90726 0.79972
C3A C -0.24567 0.62308 0.70804
C4A C -0.23917 0.55152 0.53427
C5A C -0.27669 0.34845 0.37766
C6A C -0.28243 0.51156 0.76558
H1A H -0.14100 0.91100 0.59400
H2A H -0.16800 1.01600 0.89500
N1A N -0.19899 0.66057 0.49542
N2A N -0.21891 0.80197 0.84069
O1A O -0.12268 0.48107 0.80178
O2A O -0.46714 0.46831 0.78901
O3A O -0.31411 0.24817 0.41272
O4A O -0.26567 0.30258 0.22711
O2A_2 O 0.53286 0.46831 0.78901
Zn1A Zn -0.21330 0.50768 0.21690
Zn1A_2 Zn 0.78670 0.50768 0.21690
Zn1_2 Zn -0.78670 0.49232 0.78310
O2_2 O -0.53286 0.53169 0.21099
H3A H -0.25000 0.36800 -0.10600
H4A H -0.36500 0.26600 -0.07500
O5A O -0.24774 0.32193 -0.05703
H5A H -0.25300 0.76200 0.22300
H6A H -0.03000 0.73200 0.18700
O6A O -0.13493 0.73608 0.23805
H7 H 0.36100 0.00900 0.76800
H8 H 0.32100 0.13000 0.93100
O7 O 0.36541 0.10962 0.84079
loop_
_geom_bond_atom_site_label_1
_geom_bond_atom_site_label_2
_geom_bond_site_symmetry_1
_geom_bond_site_symmetry_2
C1 C2 1_555 1_555
C2 H2 1_555 1_555
C3 C4 1_555 1_555
C4 C5 1_555 1_555
C5 O3 1_555 1_555
C6 C3 1_555 1_555
H1 C1 1_555 1_555
H3 O5 1_555 1_555
H4 O5 1_555 1_555
H5 O6 1_555 1_555
H6 O6 1_555 1_555
N1 C1 1_555 1_555
N2 C2 1_555 1_555
O1 C6 1_555 1_555
O2 C6 1_555 1_555
O4 C5 1_555 1_555
O5 Zn1 1_555 1_555
O6 Zn1 1_555 1_555
Zn1 N1 1_555 1_555
H7 O7 1_555 1_555
H8 O7 1_555 1_555
C1A C2A 1_555 1_555
C2A H2A 1_555 1_555
C3A C4A 1_555 1_555
C4A C5A 1_555 1_555
C5A O3A 1_555 1_555
C6A C3A 1_555 1_555
H1A C1A 1_555 1_555
N1A C1A 1_555 1_555
N2A C2A 1_555 1_555
O1A Zn1 1_555 1_555
O2A C6A 1_555 1_555
O4A C5A 1_555 1_555
O2A_2 Zn1 1_555 1_555
Zn1A O1 1_555 1_555
Zn1A_2 O2 1_555 1_555
Zn1_2 O2A 1_555 1_555
O2_2 Zn1A 1_555 1_555
H3A O5A 1_555 1_555
H4A O5A 1_555 1_555
O5A Zn1A 1_555 1_555
H5A O6A 1_555 1_555
H6A O6A 1_555 1_555
O6A Zn1A 1_555 1_555
C3 N2 1_555 1_555
C4 N1 1_555 1_555
O4 Zn1 1_555 1_555
C3A N2A 1_555 1_555
C4A N1A 1_555 1_555
C6A O1A 1_555 1_555
N1A Zn1A 1_555 1_555
O4A Zn1A 1_555 1_555

#END
