
#######################################################################
#
#                 Cambridge Crystallographic Data Centre
#                                CCDC 
#
#######################################################################
#
# If this CIF has been generated from an entry in the Cambridge 
# Structural Database, then it will include bibliographic, chemical, 
# crystal, experimental, refinement or atomic coordinate data resulting 
# from the CCDC's data processing and validation procedures.
#
#######################################################################

data_AZOBEX
_symmetry_cell_setting           orthorhombic
_symmetry_space_group_name_H-M   'P n a 21'
_symmetry_Int_Tables_number      33
_space_group_name_Hall           'P 2c -2n'
loop_
_symmetry_equiv_pos_site_id
_symmetry_equiv_pos_as_xyz
1 x,y,z
2 -x,-y,1/2+z
3 1/2+x,1/2-y,z
4 1/2-x,1/2+y,1/2+z
_cell_length_a                   16.0251(19)
_cell_length_b                   8.4550(10)
_cell_length_c                   17.293(2)
_cell_angle_alpha                90
_cell_angle_beta                 90
_cell_angle_gamma                90
_cell_volume                     2343.07
loop_
_atom_site_label
_atom_site_type_symbol
_atom_site_fract_x
_atom_site_fract_y
_atom_site_fract_z
Ag1 Ag 0.47527(3) 0.90148(7) 0.39948(4)
C1 C 0.3518(4) 1.2960(8) 0.3721(3)
C2 C 0.3877(5) 1.3393(13) 0.4422(5)
H1 H 0.4239 1.2714 0.4680
C3 C 0.3678(5) 1.4883(12) 0.4732(5)
H2 H 0.3912 1.5201 0.5199
C4 C 0.3152(6) 1.5845(10) 0.4357(6)
H3 H 0.3035 1.6836 0.4563
C5 C 0.2785(6) 1.5408(12) 0.3679(5)
H4 H 0.2411 1.6083 0.3434
C6 C 0.2974(5) 1.3950(8) 0.3356(5)
H5 H 0.2729 1.3647 0.2892
C7 C 0.3657(3) 0.9567(8) 0.2569(3)
C8 C 0.3670(4) 0.7515(7) 0.1808(4)
H6 H 0.3584 0.6836 0.1392
C9 C 0.4113(4) 0.7196(8) 0.2445(4)
H7 H 0.4383 0.6243 0.2542
C10 C 0.2915(3) 0.9926(9) 0.1299(3)
H8 H 0.2600 0.9216 0.0969
H9 H 0.2523 1.0625 0.1556
C11 C 0.3752(4) 1.2323(9) 0.0999(4)
H10 H 0.3593 1.2961 0.1412
C12 C 0.4303(5) 1.2674(9) 0.0438(4)
H11 H 0.4594 1.3623 0.0405
C13 C 0.3883(3) 1.0371(8) 0.0180(3)
C14 C 0.3903(4) 0.7183(8) -0.1108(4)
C15 C 0.4215(5) 0.7007(11) -0.1837(4)
H12 H 0.4534 0.7812 -0.2053
C16 C 0.4061(7) 0.5638(13) -0.2260(6)
H13 H 0.4262 0.5518 -0.2760
C17 C 0.3599(7) 0.4471(14) -0.1909(7)
H14 H 0.3498 0.3540 -0.2179
C18 C 0.3283(7) 0.4624(11) -0.1177(6)
H15 H 0.2972 0.3812 -0.0957
C19 C 0.3433(6) 0.6010(9) -0.0767(5)
H16 H 0.3219 0.6143 -0.0271
N1 N 0.3750(3) 1.1435(7) 0.3445(3)
N2 N 0.3443(3) 1.1075(6) 0.2807(3)
N3 N 0.4113(3) 0.8465(6) 0.2935(3)
N4 N 0.3370(3) 0.9007(6) 0.1878(3)
N5 N 0.3475(3) 1.0842(6) 0.0837(3)
N6 N 0.4379(4) 1.1474(7) -0.0069(3)
N7 N 0.3705(3) 0.8891(6) -0.0124(3)
N8 N 0.4090(3) 0.8640(7) -0.0747(3)
Ag1A Ag 0.52473(3) 1.09852(7) -0.10052(4)
N6A N 0.5621(4) 0.8526(7) 0.4931(3)
C20 C 0.5958(6) -0.0608(11) 0.1501(5)
F1 F 0.5243(3) 0.0059(14) 0.1521(6)
F2 F 0.5931(9) -0.2044(11) 0.1290(6)
F3 F 0.6175(6) -0.0668(10) 0.2239(4)
O1 O 0.6671(6) 0.1988(10) 0.1246(6)
O2 O 0.7448(5) -0.0336(14) 0.1010(6)
O3 O 0.6378(5) 0.0472(10) 0.0180(4)
S1 S 0.67017(10) 0.0515(2) 0.09234(12)
loop_
_geom_bond_atom_site_label_1
_geom_bond_atom_site_label_2
_geom_bond_site_symmetry_1
_geom_bond_site_symmetry_2
Ag1 N3 1_555 1_555
C1 C2 1_555 1_555
C2 H1 1_555 1_555
C3 C2 1_555 1_555
H2 C3 1_555 1_555
C4 C3 1_555 1_555
H3 C4 1_555 1_555
C5 C4 1_555 1_555
H4 C5 1_555 1_555
C6 C1 1_555 1_555
H5 C6 1_555 1_555
C7 N2 1_555 1_555
C8 H6 1_555 1_555
C9 C8 1_555 1_555
H7 C9 1_555 1_555
C10 H8 1_555 1_555
H9 C10 1_555 1_555
C11 H10 1_555 1_555
C12 C11 1_555 1_555
H11 C12 1_555 1_555
C13 N5 1_555 1_555
C14 C15 1_555 1_555
C15 H12 1_555 1_555
C16 C15 1_555 1_555
H13 C16 1_555 1_555
C17 C16 1_555 1_555
H14 C17 1_555 1_555
C18 C17 1_555 1_555
H15 C18 1_555 1_555
C19 C14 1_555 1_555
H16 C19 1_555 1_555
C20 F1 1_555 1_555
F2 C20 1_555 1_555
F3 C20 1_555 1_555
N1 C1 1_555 1_555
N2 N1 1_555 1_555
N3 C7 1_555 1_555
N4 C7 1_555 1_555
N5 C10 1_555 1_555
N6 C12 1_555 1_555
N7 C13 1_555 1_555
N8 C14 1_555 1_555
O1 S1 1_555 1_555
O2 S1 1_555 1_555
O3 S1 1_555 1_555
S1 C20 1_555 1_555
Ag1A N6 1_555 1_555
N6A Ag1 1_555 1_555
C5 C6 1_555 1_555
C8 N4 1_555 1_555
C9 N3 1_555 1_555
C10 N4 1_555 1_555
C11 N5 1_555 1_555
C13 N6 1_555 1_555
C18 C19 1_555 1_555
N7 N8 1_555 1_555

#END
