
#######################################################################
#
#                 Cambridge Crystallographic Data Centre
#                                CCDC 
#
#######################################################################
#
# If this CIF has been generated from an entry in the Cambridge 
# Structural Database, then it will include bibliographic, chemical, 
# crystal, experimental, refinement or atomic coordinate data resulting 
# from the CCDC's data processing and validation procedures.
#
#######################################################################

data_AZOBUN
_symmetry_cell_setting           triclinic
_symmetry_space_group_name_H-M   'P -1'
_symmetry_Int_Tables_number      2
_space_group_name_Hall           '-P 1'
loop_
_symmetry_equiv_pos_site_id
_symmetry_equiv_pos_as_xyz
1 x,y,z
2 -x,-y,-z
_cell_length_a                   10.1457(14)
_cell_length_b                   10.8728(15)
_cell_length_c                   13.7552(19)
_cell_angle_alpha                79.123(2)
_cell_angle_beta                 78.844(3)
_cell_angle_gamma                86.317(2)
_cell_volume                     1461.34
loop_
_atom_site_label
_atom_site_type_symbol
_atom_site_fract_x
_atom_site_fract_y
_atom_site_fract_z
Co1 Co 1.0000 0.5000 0.5000
Gd1 Gd 0.68073(2) 0.07754(2) -0.297110(17)
C1 C 0.7021(5) 0.4733(4) 0.7262(4)
C2 C 0.6789(5) 0.4174(5) 0.8277(3)
H1 H 0.6736 0.3308 0.8458
C3 C 0.6639(4) 0.4907(4) 0.9019(3)
C4 C 0.6653(4) 0.6204(4) 0.8743(4)
H2 H 0.6539 0.6703 0.9235
C5 C 0.6838(5) 0.6749(4) 0.7734(3)
C6 C 0.7035(5) 0.6027(4) 0.6993(4)
H3 H 0.7176 0.6405 0.6317
C7 C 0.6865(5) 0.8143(4) 0.7469(4)
C8 C 0.7333(5) 0.3940(5) 0.6454(4)
C9 C 0.6653(5) 0.4830(5) 1.0810(4)
C10 C 0.6520(5) 0.4000(5) 1.1831(4)
C11 C 0.6510(5) 0.2702(5) 1.2015(4)
H4 H 0.6536 0.2269 1.1489
C12 C 0.6462(5) 0.2065(5) 1.2977(4)
H5 H 0.6463 0.1195 1.3083
C13 C 0.6398(6) 0.3854(6) 1.3606(4)
H6 H 0.6347 0.4256 1.4152
C14 C 0.6451(6) 0.4584(6) 1.2657(4)
H7 H 0.6442 0.5454 1.2574
C15 C 1.0257(5) 0.1207(4) -0.1681(4)
C16 C 1.1577(5) 0.1051(4) -0.2161(4)
H8 H 1.1755 0.0884 -0.2814
C17 C 1.2619(5) 0.1141(5) -0.1675(4)
C18 C 1.2342(5) 0.1428(4) -0.0700(4)
H9 H 1.3043 0.1485 -0.0366
C19 C 1.1033(5) 0.1625(5) -0.0236(4)
C20 C 0.9992(5) 0.1483(5) -0.0720(4)
H10 H 0.9107 0.1574 -0.0397
C21 C 0.9089(5) 0.1090(4) -0.2167(4)
C22 C 1.4062(5) 0.0983(5) -0.2154(4)
C23 C 0.9939(5) 0.2964(5) 0.0919(4)
C24 C 0.9909(5) 0.3393(5) 0.1902(4)
C25 C 0.9824(5) 0.2572(5) 0.2814(4)
H11 H 0.9817 0.1711 0.2846
C26 C 0.9752(5) 0.3078(5) 0.3671(4)
H12 H 0.9670 0.2532 0.4286
C27 C 0.9848(5) 0.5065(5) 0.2779(4)
H13 H 0.9861 0.5923 0.2761
C28 C 0.9885(5) 0.4655(5) 0.1898(4)
H14 H 0.9895 0.5225 0.1301
N1 N 0.6472(4) 0.4306(4) 1.0036(3)
H15 H 0.6233 0.3539 1.0173
N2 N 0.6415(5) 0.2612(5) 1.3771(3)
N3 N 1.0794(4) 0.2000(4) 0.0720(3)
H16 H 1.1204 0.1604 0.1183
N4 N 0.9793(4) 0.4299(4) 0.3671(3)
O1 O 0.8077(3) 0.4368(3) 0.5644(2)
O2 O 0.6813(4) 0.2877(3) 0.6641(3)
O3 O 0.6714(4) 0.8704(3) 0.6616(3)
O4 O 0.7066(4) 0.8773(3) 0.8103(3)
O5 O 0.6911(5) 0.5913(4) 1.0738(3)
O6 O 0.9267(3) 0.0946(3) -0.3084(3)
O7 O 0.7925(3) 0.1148(3) -0.1665(2)
O8 O 1.4396(3) 0.0994(4) -0.3085(3)
O9 O 1.4954(3) 0.0854(4) -0.1622(3)
O10 O 0.9241(4) 0.3512(4) 0.0332(3)
O11 O 0.9258(4) 0.6827(3) 0.4333(3)
H17 H 0.8653 0.7196 0.4704
H18 H 0.9888 0.7243 0.3993
O12 O 0.7218(4) 0.0952(3) -0.4743(3)
H19 H 0.6782 0.0365 -0.4852
H20 H 0.6868 0.1627 -0.5018
Gd1A Gd 1.31927(2) 0.92246(2) 1.297110(17)
Gd1_2 Gd 0.68073(2) 0.07754(2) 0.702890(17)
Gd1_3 Gd 0.68073(2) 1.07754(2) 0.702890(17)
Gd1_4 Gd 1.68073(2) 0.07754(2) -0.297110(17)
Gd1A_2 Gd 0.31927(2) 0.92246(2) 1.297110(17)
Gd1A_3 Gd 1.31927(2) 0.92246(2) 0.297110(17)
Gd1A_4 Gd 1.31927(2) -0.07754(2) 0.297110(17)
C1A C 1.2979(5) 0.5267(4) 0.2738(4)
C2A C 1.3211(5) 0.5826(5) 0.1723(3)
H1A H 1.3264 0.6692 0.1542
C3A C 1.3361(4) 0.5093(4) 0.0981(3)
C4A C 1.3347(4) 0.3796(4) 0.1257(4)
H2A H 1.3461 0.3297 0.0765
C5A C 1.3162(5) 0.3251(4) 0.2266(3)
C6A C 1.2965(5) 0.3973(4) 0.3007(4)
H3A H 1.2824 0.3595 0.3683
C7A C 1.3135(5) 0.1857(4) 0.2531(4)
C8A C 1.2667(5) 0.6060(5) 0.3546(4)
C9A C 1.3347(5) 0.5170(5) -0.0810(4)
C10A C 1.3480(5) 0.6000(5) -0.1831(4)
C11A C 1.3490(5) 0.7298(5) -0.2015(4)
H4A H 1.3464 0.7731 -0.1489
C12A C 1.3538(5) 0.7935(5) -0.2977(4)
H5A H 1.3537 0.8805 -0.3083
C13A C 1.3602(6) 0.6146(6) -0.3606(4)
H6A H 1.3653 0.5744 -0.4152
C14A C 1.3549(6) 0.5416(6) -0.2657(4)
H7A H 1.3558 0.4546 -0.2574
C15A C 0.9743(5) 0.8793(4) 1.1681(4)
C16A C 0.8423(5) 0.8949(4) 1.2161(4)
H8A H 0.8245 0.9116 1.2814
C17A C 0.7381(5) 0.8859(5) 1.1675(4)
C18A C 0.7658(5) 0.8572(4) 1.0700(4)
H9A H 0.6957 0.8515 1.0366
C19A C 0.8967(5) 0.8375(5) 1.0236(4)
C20A C 1.0008(5) 0.8517(5) 1.0720(4)
H10A H 1.0893 0.8426 1.0397
C21A C 1.0911(5) 0.8910(4) 1.2167(4)
C22A C 0.5938(5) 0.9017(5) 1.2154(4)
C23A C 1.0061(5) 0.7036(5) 0.9081(4)
C24A C 1.0091(5) 0.6607(5) 0.8098(4)
C25A C 1.0176(5) 0.7428(5) 0.7186(4)
H11A H 1.0183 0.8289 0.7154
C26A C 1.0248(5) 0.6922(5) 0.6329(4)
H12A H 1.0330 0.7468 0.5714
C27A C 1.0152(5) 0.4935(5) 0.7221(4)
H13A H 1.0139 0.4077 0.7239
C28A C 1.0115(5) 0.5345(5) 0.8102(4)
H14A H 1.0105 0.4775 0.8699
N1A N 1.3528(4) 0.5694(4) -0.0036(3)
H15A H 1.3767 0.6461 -0.0173
N2A N 1.3585(5) 0.7388(5) -0.3771(3)
N3A N 0.9206(4) 0.8000(4) 0.9280(3)
H16A H 0.8796 0.8396 0.8817
N4A N 1.0207(4) 0.5701(4) 0.6329(3)
O1A O 1.1923(3) 0.5632(3) 0.4356(2)
O2A O 1.3187(4) 0.7123(3) 0.3359(3)
O2_2 O 0.6813(4) 0.2877(3) -0.3359(3)
O2A_2 O 1.3187(4) 0.7123(3) 1.3359(3)
O3A O 1.3286(4) 0.1296(3) 0.3384(3)
O3_2 O 0.6714(4) -0.1296(3) -0.3384(3)
O3A_2 O 1.3286(4) 1.1296(3) 1.3384(3)
O4A O 1.2934(4) 0.1227(3) 0.1897(3)
O4_2 O 0.7066(4) -0.1227(3) -0.1897(3)
O4A_2 O 1.2934(4) 1.1227(3) 1.1897(3)
O5A O 1.3089(5) 0.4087(4) -0.0738(3)
O6A O 1.0733(3) 0.9054(3) 1.3084(3)
O7A O 1.2075(3) 0.8852(3) 1.1665(2)
O8A O 0.5604(3) 0.9006(4) 1.3085(3)
O8_2 O 0.4396(3) 0.0994(4) -0.3085(3)
O8A_2 O 1.5604(3) 0.9006(4) 1.3085(3)
O9A O 0.5046(3) 0.9146(4) 1.1622(3)
O9_2 O 0.4954(3) 0.0854(4) -0.1622(3)
O9A_2 O 1.5046(3) 0.9146(4) 1.1622(3)
O10A O 1.0759(4) 0.6488(4) 0.9668(3)
O11A O 1.0742(4) 0.3173(3) 0.5667(3)
H17A H 1.1347 0.2804 0.5296
H18A H 1.0112 0.2757 0.6007
O12A O 1.2782(4) 0.9048(3) 1.4743(3)
H19A H 1.3218 0.9635 1.4852
H20A H 1.3132 0.8373 1.5018
O13 O 0.3006(4) 0.1662(5) 0.5329(3)
H21 H 0.3248 0.1472 0.4746
H22 H 0.3576 0.1389 0.5703
O14 O 0.4138(5) 0.8385(4) 0.9854(3)
H23 H 0.4328 0.9019 0.9390
H24 H 0.4384 0.8526 1.0379
loop_
_geom_bond_atom_site_label_1
_geom_bond_atom_site_label_2
_geom_bond_site_symmetry_1
_geom_bond_site_symmetry_2
Co1 N4 1_555 1_555
Gd1 O6 1_555 1_555
C1 C2 1_555 1_555
C2 H1 1_555 1_555
C3 C2 1_555 1_555
C4 C3 1_555 1_555
H2 C4 1_555 1_555
C5 C4 1_555 1_555
C6 C1 1_555 1_555
H3 C6 1_555 1_555
C7 C5 1_555 1_555
C8 C1 1_555 1_555
C9 C10 1_555 1_555
C10 C11 1_555 1_555
C11 H4 1_555 1_555
C12 C11 1_555 1_555
H5 C12 1_555 1_555
C13 H6 1_555 1_555
C14 C10 1_555 1_555
H7 C14 1_555 1_555
C15 C16 1_555 1_555
C16 H8 1_555 1_555
C17 C16 1_555 1_555
C18 C17 1_555 1_555
H9 C18 1_555 1_555
C19 C18 1_555 1_555
C20 C15 1_555 1_555
H10 C20 1_555 1_555
C21 C15 1_555 1_555
C22 C17 1_555 1_555
C23 C24 1_555 1_555
C24 C25 1_555 1_555
C25 H11 1_555 1_555
C26 C25 1_555 1_555
H12 C26 1_555 1_555
C27 H13 1_555 1_555
C28 C24 1_555 1_555
H14 C28 1_555 1_555
N1 C3 1_555 1_555
H15 N1 1_555 1_555
N2 C12 1_555 1_555
N3 C19 1_555 1_555
H16 N3 1_555 1_555
N4 C26 1_555 1_555
O1 Co1 1_555 1_555
O2 C8 1_555 1_555
O3 C7 1_555 1_555
O4 C7 1_555 1_555
O5 C9 1_555 1_555
O6 C21 1_555 1_555
O7 Gd1 1_555 1_555
O8 C22 1_555 1_555
O9 C22 1_555 1_555
O10 C23 1_555 1_555
O11 Co1 1_555 1_555
H17 O11 1_555 1_555
H18 O11 1_555 1_555
O12 Gd1 1_555 1_555
H19 O12 1_555 1_555
H20 O12 1_555 1_555
O13 H21 1_555 1_555
H22 O13 1_555 1_555
O14 H23 1_555 1_555
H24 O14 1_555 1_555
Gd1A O2A_2 1_555 1_555
Gd1_2 O2 1_555 1_555
Gd1_3 O3 1_555 1_555
Gd1_4 O8 1_555 1_555
Gd1A_2 O8A 1_555 1_555
Gd1A_3 O2A 1_555 1_555
Gd1A_4 O3A 1_555 1_555
C1A C2A 1_555 1_555
C2A H1A 1_555 1_555
C3A C2A 1_555 1_555
C4A C3A 1_555 1_555
H2A C4A 1_555 1_555
C5A C4A 1_555 1_555
C6A C1A 1_555 1_555
H3A C6A 1_555 1_555
C7A C5A 1_555 1_555
C8A C1A 1_555 1_555
C9A C10A 1_555 1_555
C10A C11A 1_555 1_555
C11A H4A 1_555 1_555
C12A C11A 1_555 1_555
H5A C12A 1_555 1_555
C13A H6A 1_555 1_555
C14A C10A 1_555 1_555
H7A C14A 1_555 1_555
C15A C16A 1_555 1_555
C16A H8A 1_555 1_555
C17A C16A 1_555 1_555
C18A C17A 1_555 1_555
H9A C18A 1_555 1_555
C19A C18A 1_555 1_555
C20A C15A 1_555 1_555
H10A C20A 1_555 1_555
C21A C15A 1_555 1_555
C22A C17A 1_555 1_555
C23A C24A 1_555 1_555
C24A C25A 1_555 1_555
C25A H11A 1_555 1_555
C26A C25A 1_555 1_555
H12A C26A 1_555 1_555
C27A H13A 1_555 1_555
C28A C24A 1_555 1_555
H14A C28A 1_555 1_555
N1A C3A 1_555 1_555
H15A N1A 1_555 1_555
N2A C12A 1_555 1_555
N3A C19A 1_555 1_555
H16A N3A 1_555 1_555
N4A Co1 1_555 1_555
O1A Co1 1_555 1_555
O2A C8A 1_555 1_555
O2_2 Gd1 1_555 1_555
O3A C7A 1_555 1_555
O3_2 Gd1 1_555 1_555
O3A_2 Gd1A 1_555 1_555
O4A Gd1A_4 1_555 1_555
O4_2 Gd1 1_555 1_555
O4A_2 Gd1A 1_555 1_555
O5A C9A 1_555 1_555
O6A Gd1A 1_555 1_555
O7A Gd1A 1_555 1_555
O8A C22A 1_555 1_555
O8_2 Gd1 1_555 1_555
O8A_2 Gd1A 1_555 1_555
O9A Gd1A_2 1_555 1_555
O9_2 Gd1 1_555 1_555
O9A_2 Gd1A 1_555 1_555
O10A C23A 1_555 1_555
O11A Co1 1_555 1_555
H17A O11A 1_555 1_555
H18A O11A 1_555 1_555
O12A Gd1A 1_555 1_555
H19A O12A 1_555 1_555
H20A O12A 1_555 1_555
C5 C6 1_555 1_555
C8 O1 1_555 1_555
C9 N1 1_555 1_555
C13 C14 1_555 1_555
C13 N2 1_555 1_555
C19 C20 1_555 1_555
C21 O7 1_555 1_555
C23 N3 1_555 1_555
C27 C28 1_555 1_555
C27 N4 1_555 1_555
O4 Gd1_3 1_555 1_555
O9 Gd1_4 1_555 1_555
C5A C6A 1_555 1_555
C7A O4A 1_555 1_555
C8A O1A 1_555 1_555
C9A N1A 1_555 1_555
C13A C14A 1_555 1_555
C13A N2A 1_555 1_555
C19A C20A 1_555 1_555
C21A O6A 1_555 1_555
C21A O7A 1_555 1_555
C22A O9A 1_555 1_555
C23A N3A 1_555 1_555
C26A N4A 1_555 1_555
C27A C28A 1_555 1_555
C27A N4A 1_555 1_555

#END
