
#######################################################################
#
#                 Cambridge Crystallographic Data Centre
#                                CCDC 
#
#######################################################################
#
# If this CIF has been generated from an entry in the Cambridge 
# Structural Database, then it will include bibliographic, chemical, 
# crystal, experimental, refinement or atomic coordinate data resulting 
# from the CCDC's data processing and validation procedures.
#
#######################################################################

data_AZOBIB
_symmetry_cell_setting           triclinic
_symmetry_space_group_name_H-M   'P -1'
_symmetry_Int_Tables_number      2
_space_group_name_Hall           '-P 1'
loop_
_symmetry_equiv_pos_site_id
_symmetry_equiv_pos_as_xyz
1 x,y,z
2 -x,-y,-z
_cell_length_a                   9.201(5)
_cell_length_b                   10.335(5)
_cell_length_c                   11.040(6)
_cell_angle_alpha                86.11(2)
_cell_angle_beta                 66.51(2)
_cell_angle_gamma                73.860(18)
_cell_volume                     923.771
loop_
_atom_site_label
_atom_site_type_symbol
_atom_site_fract_x
_atom_site_fract_y
_atom_site_fract_z
C1 C 0.3961(8) 2.3384(6) 0.0220(7)
H1 H 0.3896 2.4124 0.0692
C2 C 0.5080(10) 2.3141(7) -0.1062(7)
H2 H 0.5756 2.3705 -0.1448
C3 C 0.5187(9) 2.2054(7) -0.1767(7)
H3 H 0.5939 2.1867 -0.2640
C4 C 0.4164(9) 2.1238(7) -0.1164(7)
H4 H 0.4213 2.0497 -0.1626
C5 C 0.3057(8) 2.1542(6) 0.0148(6)
C6 C 0.1907(9) 2.0703(6) 0.0877(7)
H5 H 0.2040 2.0418 0.1691
H6 H 0.0774 2.1229 0.1100
C7 C 0.1385(9) 1.8632(6) 0.0600(6)
C8 C 0.0193(9) 1.8735(6) 0.1867(7)
H7 H -0.0110 1.9494 0.2412
C9 C -0.0548(9) 1.7707(6) 0.2322(7)
H8 H -0.1340 1.7771 0.3181
C10 C -0.0126(8) 1.6587(5) 0.1515(6)
C11 C 0.1058(9) 1.6489(6) 0.0227(6)
H9 H 0.1345 1.5739 -0.0326
C12 C 0.1794(9) 1.7515(7) -0.0215(7)
H10 H 0.2580 1.7457 -0.1076
C13 C -0.1985(8) 1.5549(6) 0.3153(6)
H11 H -0.2948 1.6272 0.3208
H12 H -0.1615 1.5746 0.3811
C14 C -0.2419(7) 1.4243(6) 0.3415(6)
C15 C -0.3957(8) 1.4143(7) 0.3561(7)
H13 H -0.4710 1.4882 0.3417
C16 C -0.4359(8) 1.2947(7) 0.3918(7)
H14 H -0.5389 1.2874 0.4030
C17 C -0.3210(8) 1.1850(6) 0.4111(7)
H15 H -0.3447 1.1027 0.4339
C18 C -0.1700(8) 1.2013(6) 0.3954(7)
H16 H -0.0937 1.1290 0.4106
Cl1 Cl 0.2047(2) 1.51507(16) 0.35012(17)
Cl2 Cl 0.2358(3) 1.10739(19) 0.4104(2)
Hg1 Hg 0.13517(3) 1.31748(2) 0.31567(2)
N1 N 0.2955(6) 2.2612(5) 0.0831(5)
N2 N -0.1291(6) 1.3179(5) 0.3590(5)
O1 O 0.2274(7) 1.9563(5) 0.0059(5)
O2 O -0.0724(6) 1.5467(4) 0.1880(5)
Hg1_2 Hg 0.13517(3) 2.31748(2) 0.31567(2)
N1_2 N 0.2955(6) 1.2612(5) 0.0831(5)
loop_
_geom_bond_atom_site_label_1
_geom_bond_atom_site_label_2
_geom_bond_site_symmetry_1
_geom_bond_site_symmetry_2
C1 H1 1_555 1_555
C2 C1 1_555 1_555
H2 C2 1_555 1_555
C3 C2 1_555 1_555
H3 C3 1_555 1_555
C4 C3 1_555 1_555
H4 C4 1_555 1_555
C5 C4 1_555 1_555
C6 C5 1_555 1_555
H5 C6 1_555 1_555
H6 C6 1_555 1_555
C7 C8 1_555 1_555
C8 H7 1_555 1_555
C9 C8 1_555 1_555
H8 C9 1_555 1_555
C10 C9 1_555 1_555
C11 C10 1_555 1_555
H9 C11 1_555 1_555
C12 C7 1_555 1_555
H10 C12 1_555 1_555
C13 H11 1_555 1_555
H12 C13 1_555 1_555
C14 C13 1_555 1_555
C15 C14 1_555 1_555
H13 C15 1_555 1_555
C16 C15 1_555 1_555
H14 C16 1_555 1_555
C17 C16 1_555 1_555
H15 C17 1_555 1_555
C18 C17 1_555 1_555
H16 C18 1_555 1_555
Cl1 Hg1 1_555 1_555
Cl2 Hg1 1_555 1_555
Hg1 N2 1_555 1_555
N1 C1 1_555 1_555
N2 C14 1_555 1_555
O1 C6 1_555 1_555
O2 C10 1_555 1_555
Hg1_2 N1 1_555 1_555
N1_2 Hg1 1_555 1_555
C5 N1 1_555 1_555
C7 O1 1_555 1_555
C11 C12 1_555 1_555
C13 O2 1_555 1_555
C18 N2 1_555 1_555

#END
