
#######################################################################
#
#                 Cambridge Crystallographic Data Centre
#                                CCDC 
#
#######################################################################
#
# If this CIF has been generated from an entry in the Cambridge 
# Structural Database, then it will include bibliographic, chemical, 
# crystal, experimental, refinement or atomic coordinate data resulting 
# from the CCDC's data processing and validation procedures.
#
#######################################################################

data_AZOCUO01
_symmetry_cell_setting           monoclinic
_symmetry_space_group_name_H-M   'P 21/n'
_symmetry_Int_Tables_number      14
_space_group_name_Hall           '-P 2yn'
loop_
_symmetry_equiv_pos_site_id
_symmetry_equiv_pos_as_xyz
1 x,y,z
2 1/2-x,1/2+y,1/2-z
3 -x,-y,-z
4 1/2+x,1/2-y,1/2+z
_cell_length_a                   9.1783(4)
_cell_length_b                   8.6816(3)
_cell_length_c                   9.5686(4)
_cell_angle_alpha                90
_cell_angle_beta                 105.917(2)
_cell_angle_gamma                90
_cell_volume                     733.216
loop_
_atom_site_label
_atom_site_type_symbol
_atom_site_fract_x
_atom_site_fract_y
_atom_site_fract_z
C1 C 0.12445(17) 0.67669(18) 0.47958(18)
C2 C 0.1409(2) 0.5422(2) 0.3817(2)
Zn1 Zn 0.5000 0.5000 0.0000
O1 O 0.03308(14) 0.78113(14) 0.42324(13)
O2 O 0.62930(14) 0.55317(16) 0.21564(13)
H1 H 0.6828 0.6328 0.2145
H2 H 0.6886 0.4788 0.2498
O3 O 0.20040(14) 0.67204(15) 0.61014(14)
N1 N 0.30023(15) 0.57742(16) 0.06001(15)
C3 C 0.15402(18) 0.58772(19) 0.23356(18)
C4 C 0.28064(19) 0.5441(2) 0.19075(19)
H3 H 0.3562 0.4888 0.2562
C5 C 0.1914(2) 0.6571(2) -0.0326(2)
H4 H 0.2035 0.6811 -0.1235
H5 H 0.0530 0.4751 0.3692
H6 H 0.2294 0.4829 0.4306
C6 C 0.0616(2) 0.7055(2) 0.0004(2)
H7 H -0.0116 0.7615 -0.0669
C7 C 0.04182(19) 0.6697(2) 0.1344(2)
H8 H -0.0456 0.7000 0.1582
C1B C 0.87555(17) 0.32331(18) -0.47958(18)
C2B C 0.8591(2) 0.4578(2) -0.3817(2)
Zn1A Zn 0.0000 1.0000 0.5000
Zn1A_2 Zn 1.0000 0.0000 -0.5000
O1A O 0.46692(14) 0.28113(14) 0.07676(13)
O1C O 0.53308(14) 0.71887(14) -0.07676(13)
O1B O 0.96692(14) 0.21887(14) -0.42324(13)
O2B O 0.37070(14) 0.44683(16) -0.21564(13)
H1B H 0.3172 0.3672 -0.2145
H2B H 0.3114 0.5212 -0.2498
O3B O 0.79960(14) 0.32796(15) -0.61014(14)
N1B N 0.69977(15) 0.42258(16) -0.06001(15)
C3B C 0.84598(18) 0.41228(19) -0.23356(18)
C4B C 0.71936(19) 0.4559(2) -0.19075(19)
H3B H 0.6438 0.5112 -0.2562
C5B C 0.8086(2) 0.3429(2) 0.0326(2)
H4B H 0.7965 0.3189 0.1235
H5B H 0.9470 0.5249 -0.3692
H6B H 0.7706 0.5171 -0.4306
C6B C 0.9384(2) 0.2945(2) -0.0004(2)
H7B H 1.0116 0.2385 0.0669
C7B C 0.95818(19) 0.3303(2) -0.1344(2)
H8B H 1.0456 0.3000 -0.1582
loop_
_geom_bond_atom_site_label_1
_geom_bond_atom_site_label_2
_geom_bond_site_symmetry_1
_geom_bond_site_symmetry_2
C1 C2 1_555 1_555
C2 C3 1_555 1_555
Zn1 O2 1_555 1_555
O1 C1 1_555 1_555
O2 H1 1_555 1_555
H2 O2 1_555 1_555
O3 C1 1_555 1_555
N1 Zn1 1_555 1_555
C3 C4 1_555 1_555
C4 N1 1_555 1_555
H3 C4 1_555 1_555
C5 N1 1_555 1_555
H4 C5 1_555 1_555
H5 C2 1_555 1_555
H6 C2 1_555 1_555
C6 C5 1_555 1_555
H7 C6 1_555 1_555
C7 C3 1_555 1_555
H8 C7 1_555 1_555
C1B C2B 1_555 1_555
C2B C3B 1_555 1_555
Zn1A O1 1_555 1_555
Zn1A_2 O1B 1_555 1_555
O1A Zn1 1_555 1_555
O1C Zn1 1_555 1_555
O1B C1B 1_555 1_555
O2B Zn1 1_555 1_555
H1B O2B 1_555 1_555
H2B O2B 1_555 1_555
O3B C1B 1_555 1_555
N1B Zn1 1_555 1_555
C3B C4B 1_555 1_555
C4B N1B 1_555 1_555
H3B C4B 1_555 1_555
C5B N1B 1_555 1_555
H4B C5B 1_555 1_555
H5B C2B 1_555 1_555
H6B C2B 1_555 1_555
C6B C5B 1_555 1_555
H7B C6B 1_555 1_555
C7B C3B 1_555 1_555
H8B C7B 1_555 1_555
C6 C7 1_555 1_555
C6B C7B 1_555 1_555

#END
