
#######################################################################
#
#                 Cambridge Crystallographic Data Centre
#                                CCDC 
#
#######################################################################
#
# If this CIF has been generated from an entry in the Cambridge 
# Structural Database, then it will include bibliographic, chemical, 
# crystal, experimental, refinement or atomic coordinate data resulting 
# from the CCDC's data processing and validation procedures.
#
#######################################################################

data_AZOCAU
_symmetry_cell_setting           monoclinic
_symmetry_space_group_name_H-M   'P 21/c'
_symmetry_Int_Tables_number      14
_space_group_name_Hall           '-P 2ybc'
loop_
_symmetry_equiv_pos_site_id
_symmetry_equiv_pos_as_xyz
1 x,y,z
2 -x,1/2+y,1/2-z
3 -x,-y,-z
4 x,1/2-y,1/2+z
_cell_length_a                   8.3714(3)
_cell_length_b                   14.6034(6)
_cell_length_c                   8.7518(4)
_cell_angle_alpha                90
_cell_angle_beta                 103.118(2)
_cell_angle_gamma                90
_cell_volume                     1042
loop_
_atom_site_label
_atom_site_type_symbol
_atom_site_fract_x
_atom_site_fract_y
_atom_site_fract_z
C1 C 1.3406(3) 0.31371(13) 0.2443(3)
C2 C 1.1598(3) 0.31134(14) 0.2330(3)
H1 H 1.0902 0.2974 0.1369
C3 C 1.0955(3) 0.32820(15) 0.3540(3)
H2 H 1.1665 0.3451 0.4476
C4 C 0.9169(3) 0.32223(14) 0.3522(3)
C5 C 0.5360(3) 0.10365(14) 0.3762(2)
C6 C 0.5244(3) 0.04325(14) 0.5105(3)
H3 H 0.5522 0.0668 0.6118
C7 C 0.9749(3) 0.06063(16) 0.3044(3)
O1 O 0.8615(2) 0.11349(12) 0.30016(19)
O2 O 1.0535(2) 0.05332(15) 0.1918(2)
H4 H 1.0106 0.0868 0.1187
C8 C 1.0333(3) -0.00121(16) 0.4388(3)
H5 H 1.1178 -0.0422 0.4369
O3 O 0.5972(2) 0.18329(9) 0.40478(19)
O4 O 0.4920(2) 0.07499(11) 0.23774(17)
O5 O 1.39185(18) 0.27539(11) 0.13689(17)
O6 O 1.43025(18) 0.35433(10) 0.36074(17)
O7 O 0.8147(2) 0.30866(10) 0.2257(2)
O8 O 0.8807(2) 0.33071(11) 0.48376(19)
O9 O 0.6829(2) 0.02369(11) 0.02361(19)
H6 H 0.645(3) -0.0181(14) 0.068(2)
H7 H 0.656(3) 0.0080(17) -0.0692(12)
Pr1 Pr 0.632685(13) 0.190489(7) 0.097718(13)
C1_2 C 0.3406(3) 0.31371(13) 0.2443(3)
C2_2 C 0.1598(3) 0.31134(14) 0.2330(3)
H1_2 H 0.0902 0.2974 0.1369
C3_2 C 0.0955(3) 0.32820(15) 0.3540(3)
H2_2 H 0.1665 0.3451 0.4476
C4_2 C -0.0831(3) 0.32223(14) 0.3522(3)
C5B C 0.4640(3) -0.10365(14) 0.6238(2)
C6B C 0.4756(3) -0.04325(14) 0.4895(3)
H3B H 0.4478 -0.0668 0.3882
C7B C 1.0251(3) -0.06063(16) 0.6956(3)
O1B O 1.1385(2) -0.11349(12) 0.69984(19)
O1_2 O -0.1385(2) 0.11349(12) 0.30016(19)
O2B O 0.9465(2) -0.05332(15) 0.8082(2)
H4B H 0.9894 -0.0868 0.8813
C8B C 0.9667(3) 0.00121(16) 0.5612(3)
H5B H 0.8822 0.0422 0.5631
O3B O 0.4028(2) -0.18329(9) 0.59522(19)
O3C O 0.5972(2) 0.31671(9) -0.09522(19)
O3_2 O -0.4028(2) 0.18329(9) 0.40478(19)
O3C_2 O -0.4028(2) 0.31671(9) -0.09522(19)
O4B O 0.5080(2) -0.07499(11) 0.76226(17)
O4_2 O -0.5080(2) 0.07499(11) 0.23774(17)
O5_2 O 0.39185(18) 0.27539(11) 0.13689(17)
O5_3 O -0.60815(18) 0.27539(11) 0.13689(17)
O6_2 O 0.43025(18) 0.35433(10) 0.36074(17)
O6C O 0.43025(18) 0.14567(10) -0.13926(17)
O6C_2 O -0.56975(18) 0.14567(10) -0.13926(17)
O7_2 O -0.1853(2) 0.30866(10) 0.2257(2)
O8_2 O -0.1193(2) 0.33071(11) 0.48376(19)
O8C O 0.8807(2) 0.16929(11) -0.01624(19)
O8C_2 O -0.1193(2) 0.16929(11) -0.01624(19)
O9_2 O -0.3171(2) 0.02369(11) 0.02361(19)
H6_2 H -0.355(3) -0.0181(14) 0.068(2)
H7_2 H -0.344(3) 0.0080(17) -0.0692(12)
Pr1_2 Pr -0.367315(13) 0.190489(7) 0.097718(13)
Pr1C Pr 0.632685(13) 0.309511(7) 0.597718(13)
Pr1_3 Pr 1.632685(13) 0.190489(7) 0.097718(13)
Pr1C_2 Pr 1.632685(13) 0.309511(7) 0.597718(13)
Pr1B Pr 0.367315(13) -0.190489(7) 0.902282(13)
Pr1A Pr 0.367315(13) -0.309511(7) 0.402282(13)
Pr1B_2 Pr 1.367315(13) -0.190489(7) 0.902282(13)
Pr1C_3 Pr -0.367315(13) 0.309511(7) 0.597718(13)
loop_
_geom_bond_atom_site_label_1
_geom_bond_atom_site_label_2
_geom_bond_site_symmetry_1
_geom_bond_site_symmetry_2
C1 C2 1_555 1_555
C2 H1 1_555 1_555
C3 C2 1_555 1_555
H2 C3 1_555 1_555
C4 C3 1_555 1_555
C5 C6 1_555 1_555
C6 H3 1_555 1_555
C7 O1 1_555 1_555
O1 Pr1 1_555 1_555
O2 C7 1_555 1_555
H4 O2 1_555 1_555
C8 C7 1_555 1_555
H5 C8 1_555 1_555
O3 C5 1_555 1_555
O4 C5 1_555 1_555
O5 C1 1_555 1_555
O6 C1 1_555 1_555
O7 C4 1_555 1_555
O8 C4 1_555 1_555
O9 H6 1_555 1_555
H7 O9 1_555 1_555
Pr1 O3 1_555 1_555
C1_2 C2_2 1_555 1_555
C2_2 H1_2 1_555 1_555
C3_2 C2_2 1_555 1_555
H2_2 C3_2 1_555 1_555
C4_2 C3_2 1_555 1_555
C5B C6B 1_555 1_555
C6B C6 1_555 1_555
H3B C6B 1_555 1_555
C7B O1B 1_555 1_555
O1B Pr1B_2 1_555 1_555
O1_2 Pr1_2 1_555 1_555
O2B C7B 1_555 1_555
H4B O2B 1_555 1_555
C8B C8 1_555 1_555
H5B C8B 1_555 1_555
O3B C5B 1_555 1_555
O3C Pr1 1_555 1_555
O3_2 Pr1_2 1_555 1_555
O3C_2 Pr1_2 1_555 1_555
O4B C5B 1_555 1_555
O4_2 Pr1_2 1_555 1_555
O5_2 Pr1 1_555 1_555
O5_3 Pr1_2 1_555 1_555
O6_2 C1_2 1_555 1_555
O6C Pr1 1_555 1_555
O6C_2 Pr1_2 1_555 1_555
O7_2 C4_2 1_555 1_555
O8_2 C4_2 1_555 1_555
O8C Pr1 1_555 1_555
O8C_2 Pr1_2 1_555 1_555
O9_2 H6_2 1_555 1_555
H7_2 O9_2 1_555 1_555
Pr1_2 O7_2 1_555 1_555
Pr1C O3 1_555 1_555
Pr1_3 O5 1_555 1_555
Pr1C_2 O6 1_555 1_555
Pr1B O3B 1_555 1_555
Pr1A O3B 1_555 1_555
Pr1C_3 O3_2 1_555 1_555
O4 Pr1 1_555 1_555
O7 Pr1 1_555 1_555
O8 Pr1C 1_555 1_555
O9 Pr1 1_555 1_555
C1_2 O5_2 1_555 1_555
C7B C8B 1_555 1_555
O4B Pr1B 1_555 1_555
O6_2 Pr1C 1_555 1_555
O8_2 Pr1C_3 1_555 1_555
O9_2 Pr1_2 1_555 1_555

#END
