
#######################################################################
#
#                 Cambridge Crystallographic Data Centre
#                                CCDC 
#
#######################################################################
#
# If this CIF has been generated from an entry in the Cambridge 
# Structural Database, then it will include bibliographic, chemical, 
# crystal, experimental, refinement or atomic coordinate data resulting 
# from the CCDC's data processing and validation procedures.
#
#######################################################################

data_AZOCUO
_symmetry_cell_setting           monoclinic
_symmetry_space_group_name_H-M   'P 21/n'
_symmetry_Int_Tables_number      14
_space_group_name_Hall           '-P 2yn'
loop_
_symmetry_equiv_pos_site_id
_symmetry_equiv_pos_as_xyz
1 x,y,z
2 1/2-x,1/2+y,1/2-z
3 -x,-y,-z
4 1/2+x,1/2-y,1/2+z
_cell_length_a                   9.175(2)
_cell_length_b                   8.686(2)
_cell_length_c                   9.574(2)
_cell_angle_alpha                90
_cell_angle_beta                 105.928(3)
_cell_angle_gamma                90
_cell_volume                     733.698
loop_
_atom_site_label
_atom_site_type_symbol
_atom_site_fract_x
_atom_site_fract_y
_atom_site_fract_z
Zn1 Zn 0.5000 0.0000 0.0000
O1 O 0.2994(3) -0.3281(3) -0.1106(3)
O2 O 0.4667(3) -0.2188(3) 0.0770(2)
O3 O 0.6282(3) 0.0534(3) 0.2153(3)
H1 H 0.694(3) 0.002(3) 0.272(3)
H2 H 0.676(4) 0.130(3) 0.207(4)
N1 N 0.1993(3) -0.4223(3) 0.4404(3)
C1 C 0.3087(4) -0.3428(4) 0.5326(4)
H3 H 0.2968 -0.3186 0.6235
C2 C 0.4389(4) -0.2946(4) 0.4997(4)
H4 H 0.5123 -0.2388 0.5670
C3 C 0.4586(4) -0.3301(4) 0.3659(4)
H5 H 0.5460 -0.2996 0.3422
C4 C 0.3463(4) -0.4119(4) 0.2667(3)
C5 C 0.2198(4) -0.4551(4) 0.3100(4)
H6 H 0.1443 -0.5104 0.2445
C6 C 0.3593(4) -0.4563(4) 0.1185(4)
H7 H 0.2704 -0.5158 0.0698
H8 H 0.4468 -0.5229 0.1308
C7 C 0.3745(4) -0.3232(4) 0.0201(4)
Zn1A Zn 0.0000 -0.5000 0.5000
Zn1A_2 Zn 0.0000 0.5000 0.5000
O1A O 0.2006(3) 0.1719(3) 0.6106(3)
O2A O 0.0333(3) 0.2812(3) 0.4230(2)
O2B O 0.5333(3) 0.2188(3) -0.0770(2)
O3B O 0.3718(3) -0.0534(3) -0.2153(3)
H1B H 0.306(3) -0.002(3) -0.272(3)
H2B H 0.324(4) -0.130(3) -0.207(4)
N1A N 0.3007(3) 0.0777(3) 0.0596(3)
N1C N 0.6993(3) -0.0777(3) -0.0596(3)
C1A C 0.1913(4) 0.1572(4) -0.0326(4)
H3A H 0.2032 0.1814 -0.1235
C2A C 0.0611(4) 0.2054(4) 0.0003(4)
H4A H -0.0123 0.2612 -0.0670
C3A C 0.0414(4) 0.1699(4) 0.1341(4)
H5A H -0.0460 0.2004 0.1578
C4A C 0.1537(4) 0.0881(4) 0.2333(3)
C5A C 0.2802(4) 0.0449(4) 0.1900(4)
H6A H 0.3557 -0.0104 0.2555
C6A C 0.1407(4) 0.0437(4) 0.3815(4)
H7A H 0.2296 -0.0158 0.4302
H8A H 0.0532 -0.0229 0.3692
C7A C 0.1255(4) 0.1768(4) 0.4799(4)
loop_
_geom_bond_atom_site_label_1
_geom_bond_atom_site_label_2
_geom_bond_site_symmetry_1
_geom_bond_site_symmetry_2
Zn1 O2 1_555 1_555
O1 C7 1_555 1_555
O2 C7 1_555 1_555
O3 Zn1 1_555 1_555
H1 O3 1_555 1_555
H2 O3 1_555 1_555
N1 C1 1_555 1_555
C1 H3 1_555 1_555
C2 C1 1_555 1_555
H4 C2 1_555 1_555
C3 C2 1_555 1_555
H5 C3 1_555 1_555
C4 C3 1_555 1_555
C5 N1 1_555 1_555
H6 C5 1_555 1_555
C6 C4 1_555 1_555
H7 C6 1_555 1_555
H8 C6 1_555 1_555
C7 C6 1_555 1_555
Zn1A N1 1_555 1_555
Zn1A_2 O2A 1_555 1_555
O1A C7A 1_555 1_555
O2A C7A 1_555 1_555
O2B Zn1 1_555 1_555
O3B Zn1 1_555 1_555
H1B O3B 1_555 1_555
H2B O3B 1_555 1_555
N1A Zn1 1_555 1_555
N1C Zn1 1_555 1_555
C1A N1A 1_555 1_555
H3A C1A 1_555 1_555
C2A C1A 1_555 1_555
H4A C2A 1_555 1_555
C3A C2A 1_555 1_555
H5A C3A 1_555 1_555
C4A C3A 1_555 1_555
C5A N1A 1_555 1_555
H6A C5A 1_555 1_555
C6A C4A 1_555 1_555
H7A C6A 1_555 1_555
H8A C6A 1_555 1_555
C7A C6A 1_555 1_555
C4 C5 1_555 1_555
C4A C5A 1_555 1_555

#END
