
#######################################################################
#
#                 Cambridge Crystallographic Data Centre
#                                CCDC 
#
#######################################################################
#
# If this CIF has been generated from an entry in the Cambridge 
# Structural Database, then it will include bibliographic, chemical, 
# crystal, experimental, refinement or atomic coordinate data resulting 
# from the CCDC's data processing and validation procedures.
#
#######################################################################

data_AZOCIC
_symmetry_cell_setting           monoclinic
_symmetry_space_group_name_H-M   'P 21/c'
_symmetry_Int_Tables_number      14
_space_group_name_Hall           '-P 2ybc'
loop_
_symmetry_equiv_pos_site_id
_symmetry_equiv_pos_as_xyz
1 x,y,z
2 -x,1/2+y,1/2-z
3 -x,-y,-z
4 x,1/2-y,1/2+z
_cell_length_a                   9.4139(19)
_cell_length_b                   13.310(3)
_cell_length_c                   16.087(3)
_cell_angle_alpha                90
_cell_angle_beta                 103.10(3)
_cell_angle_gamma                90
_cell_volume                     1963.23
loop_
_atom_site_label
_atom_site_type_symbol
_atom_site_fract_x
_atom_site_fract_y
_atom_site_fract_z
La1 La 0.49400(2) 0.626091(13) 0.826328(11)
La2 La 0.56140(2) 0.427790(13) 0.631660(11)
O1 O 0.3617(3) 0.57173(19) 0.93738(15)
O2 O 0.3667(3) 0.4876(2) 1.05838(16)
O3 O 0.7514(3) 0.6156(2) 0.81474(18)
O4 O 0.7413(4) 0.4615(3) 0.76263(18)
O5 O 0.2212(3) 0.64689(19) 0.75919(16)
O6 O 0.2988(3) 0.76927(17) 0.84850(14)
O7 O 0.4657(3) 0.60641(17) 0.66394(13)
O8 O 0.4577(3) 0.58817(17) 0.52914(13)
O9 O 0.7158(3) 0.90241(17) 0.93121(15)
O10 O 0.6023(3) 0.75914(17) 0.93639(13)
O11 O 0.4244(3) 0.45427(17) 0.76545(15)
O12 O 0.4709(3) 0.30015(16) 0.73551(14)
O13 O 0.7839(3) 0.5002(2) 0.59178(16)
H1 H 0.7600 0.5278 0.5451
H2 H 0.8730 0.4998 0.6081
C1 C 0.4214(4) 0.5171(2) 0.9990(2)
C2 C 0.8037(4) 0.5293(3) 0.8105(2)
C3 C 0.9496(5) 0.5054(4) 0.8655(3)
H5 H 0.9749 0.4372 0.8556
H6 H 0.9467 0.5134 0.9244
H7 H 1.0212 0.5500 0.8520
C4 C 0.1955(4) 0.7242(3) 0.7973(2)
C5 C 0.0446(5) 0.7640(3) 0.7823(3)
H8 H 0.0469 0.8360 0.7797
H9 H 0.0011 0.7436 0.8281
H10 H -0.0119 0.7381 0.7293
C6 C 0.4177(4) 0.6347(2) 0.58777(19)
C7 C 0.3107(5) 0.7187(3) 0.5678(2)
H11 H 0.2863 0.7303 0.5074
H12 H 0.2241 0.7015 0.5867
H13 H 0.3528 0.7785 0.5966
C8 C 0.7178(4) 0.8098(3) 0.95129(19)
C9 C 0.8593(5) 0.7623(3) 0.9952(3)
H14 H 0.8595 0.6930 0.9788
H15 H 0.8705 0.7669 1.0558
H16 H 0.9385 0.7967 0.9789
C10 C 0.4116(4) 0.3614(2) 0.77699(19)
C11 C 0.3262(4) 0.3243(3) 0.8384(2)
H17 H 0.3750 0.3430 0.8953
H18 H 0.3182 0.2525 0.8345
H19 H 0.2305 0.3536 0.8248
La1B La 0.50600(2) 0.373909(13) 1.173672(11)
La1A La 0.50600(2) 0.126091(13) 0.673672(11)
La1A_2 La 0.50600(2) 1.126091(13) 0.673672(11)
La1B_2 La 0.50600(2) 0.373909(13) 0.173672(11)
La2A La 0.43860(2) 0.927790(13) 0.868340(11)
La2B La 0.43860(2) 0.572210(13) 0.368340(11)
La2B_2 La 0.43860(2) 0.572210(13) 1.368340(11)
O1B O 0.6383(3) 0.42827(19) 1.06262(15)
O2B O 0.6333(3) 0.5124(2) 0.94162(16)
O3B O 0.2486(3) 0.3844(2) 1.18526(18)
O4B O 0.2587(4) 0.5385(3) 1.23737(18)
O4A O 0.2587(4) 0.9615(3) 0.73737(18)
O5A O 0.7788(3) 0.14689(19) 0.74081(16)
O5B O 0.7788(3) 0.35311(19) 1.24081(16)
O6A O 0.7012(3) 0.26927(17) 0.65150(14)
O6B O 0.7012(3) 0.23073(17) 1.15150(14)
O7B O 0.5343(3) 0.39359(17) 0.33606(13)
O7B_2 O 0.5343(3) 0.39359(17) 1.33606(13)
O7A O 0.5343(3) 1.10641(17) 0.83606(13)
O8B O 0.5423(3) 0.41183(17) 0.47086(13)
O8C O 0.4577(3) 0.91183(17) 1.02914(13)
O8A O 0.5423(3) 1.08817(17) 0.97086(13)
O9A O 0.2842(3) 0.40241(17) 0.56879(15)
O10A O 0.3977(3) 0.25914(17) 0.56361(13)
O10B O 0.3977(3) 0.24086(17) 1.06361(13)
O11A O 0.5756(3) 0.95427(17) 0.73455(15)
O11B O 0.5756(3) 0.54573(17) 1.23455(15)
O12A O 0.5291(3) 0.80015(16) 0.76449(14)
O12C O 0.4709(3) 0.19985(16) 1.23551(14)
O13A O 0.2161(3) 1.0002(2) 0.90822(16)
H1A H 0.2400 1.0278 0.9549
H2A H 0.1270 0.9998 0.8919
C1B C 0.5786(4) 0.4829(2) 1.0010(2)
C2B C 0.1963(4) 0.4707(3) 1.1895(2)
C3B C 0.0504(5) 0.4946(4) 1.1345(3)
H5B H 0.0251 0.5628 1.1444
H6B H 0.0533 0.4866 1.0756
H7B H -0.0212 0.4500 1.1480
C4A C 0.8045(4) 0.2242(3) 0.7027(2)
C5A C 0.9554(5) 0.2640(3) 0.7177(3)
H8A H 0.9531 0.3360 0.7203
H9A H 0.9989 0.2436 0.6719
H10A H 1.0119 0.2381 0.7707
C6B C 0.5823(4) 0.3653(2) 0.41223(19)
C7B C 0.6893(5) 0.2813(3) 0.4322(2)
H11B H 0.7137 0.2697 0.4926
H12B H 0.7759 0.2985 0.4133
H13B H 0.6472 0.2215 0.4034
C8A C 0.2822(4) 0.3098(3) 0.54871(19)
C9A C 0.1407(5) 0.2623(3) 0.5048(3)
H14A H 0.1405 0.1930 0.5212
H15A H 0.1295 0.2669 0.4442
H16A H 0.0615 0.2967 0.5211
C10A C 0.5884(4) 0.8614(2) 0.72301(19)
C11A C 0.6738(4) 0.8243(3) 0.6616(2)
H17A H 0.6250 0.8430 0.6047
H18A H 0.6818 0.7525 0.6655
H19A H 0.7695 0.8536 0.6752
O14 O -0.0721(3) 1.0087(3) 0.8562(2)
H3 H -0.1085 0.9687 0.8892
H4 H -0.1241 1.0501 0.8208
loop_
_geom_bond_atom_site_label_1
_geom_bond_atom_site_label_2
_geom_bond_site_symmetry_1
_geom_bond_site_symmetry_2
La1 O1 1_555 1_555
La2 O4 1_555 1_555
O1 C1 1_555 1_555
O2 C1 1_555 1_555
O3 La1 1_555 1_555
O4 C2 1_555 1_555
O5 La1 1_555 1_555
O6 La1 1_555 1_555
O7 La1 1_555 1_555
O8 La2 1_555 1_555
O9 C8 1_555 1_555
O10 La1 1_555 1_555
O11 La1 1_555 1_555
O12 La2 1_555 1_555
O13 La2 1_555 1_555
H1 O13 1_555 1_555
H2 O13 1_555 1_555
O14 H3 1_555 1_555
H4 O14 1_555 1_555
C1 C1B 1_555 1_555
C2 O3 1_555 1_555
C3 C2 1_555 1_555
H5 C3 1_555 1_555
H6 C3 1_555 1_555
H7 C3 1_555 1_555
C4 O5 1_555 1_555
C5 C4 1_555 1_555
H8 C5 1_555 1_555
H9 C5 1_555 1_555
H10 C5 1_555 1_555
C6 O7 1_555 1_555
C7 C6 1_555 1_555
H11 C7 1_555 1_555
H12 C7 1_555 1_555
H13 C7 1_555 1_555
C8 O10 1_555 1_555
C9 C8 1_555 1_555
H14 C9 1_555 1_555
H15 C9 1_555 1_555
H16 C9 1_555 1_555
C10 O11 1_555 1_555
C11 C10 1_555 1_555
H17 C11 1_555 1_555
H18 C11 1_555 1_555
H19 C11 1_555 1_555
La1B O2 1_555 1_555
La1A O12 1_555 1_555
La1A_2 O7A 1_555 1_555
La1B_2 O7B 1_555 1_555
La2A O6 1_555 1_555
La2B O8 1_555 1_555
La2B_2 O4B 1_555 1_555
O1B La1B 1_555 1_555
O2B La1 1_555 1_555
O3B La1B 1_555 1_555
O4B C2B 1_555 1_555
O4A La2A 1_555 1_555
O5A La1A 1_555 1_555
O5B La1B 1_555 1_555
O6A La2 1_555 1_555
O6B La1B 1_555 1_555
O7B La2B 1_555 1_555
O7B_2 La1B 1_555 1_555
O7A La2A 1_555 1_555
O8B La2 1_555 1_555
O8C La2A 1_555 1_555
O8A La2A 1_555 1_555
O9A La2 1_555 1_555
O10A La2 1_555 1_555
O10B La1B 1_555 1_555
O11A La1A_2 1_555 1_555
O11B La1B 1_555 1_555
O12A La1 1_555 1_555
O12C La1B 1_555 1_555
O13A La2A 1_555 1_555
H1A O13A 1_555 1_555
H2A O13A 1_555 1_555
C1B O1B 1_555 1_555
C2B O3B 1_555 1_555
C3B C2B 1_555 1_555
H5B C3B 1_555 1_555
H6B C3B 1_555 1_555
H7B C3B 1_555 1_555
C4A O5A 1_555 1_555
C5A C4A 1_555 1_555
H8A C5A 1_555 1_555
H9A C5A 1_555 1_555
H10A C5A 1_555 1_555
C6B O7B 1_555 1_555
C7B C6B 1_555 1_555
H11B C7B 1_555 1_555
H12B C7B 1_555 1_555
H13B C7B 1_555 1_555
C8A O9A 1_555 1_555
C9A C8A 1_555 1_555
H14A C9A 1_555 1_555
H15A C9A 1_555 1_555
H16A C9A 1_555 1_555
C10A O11A 1_555 1_555
C11A C10A 1_555 1_555
H17A C11A 1_555 1_555
H18A C11A 1_555 1_555
H19A C11A 1_555 1_555
La2 O7 1_555 1_555
La2 O11 1_555 1_555
O6 C4 1_555 1_555
O8 C6 1_555 1_555
O9 La2A 1_555 1_555
O10 La2A 1_555 1_555
O12 C10 1_555 1_555
La1A O6A 1_555 1_555
La1A O10A 1_555 1_555
La2A O11A 1_555 1_555
La2A O12A 1_555 1_555
La2B O8B 1_555 1_555
La2B_2 O7B_2 1_555 1_555
La2B_2 O11B 1_555 1_555
O2B C1B 1_555 1_555
O6A C4A 1_555 1_555
O8B C6B 1_555 1_555
O10A C8A 1_555 1_555
O12A C10A 1_555 1_555

#END
