
#######################################################################
#
#                 Cambridge Crystallographic Data Centre
#                                CCDC 
#
#######################################################################
#
# If this CIF has been generated from an entry in the Cambridge 
# Structural Database, then it will include bibliographic, chemical, 
# crystal, experimental, refinement or atomic coordinate data resulting 
# from the CCDC's data processing and validation procedures.
#
#######################################################################

data_AZOFIF
_symmetry_cell_setting           triclinic
_symmetry_space_group_name_H-M   'P -1'
_symmetry_Int_Tables_number      2
_space_group_name_Hall           '-P 1'
loop_
_symmetry_equiv_pos_site_id
_symmetry_equiv_pos_as_xyz
1 x,y,z
2 -x,-y,-z
_cell_length_a                   7.1460(14)
_cell_length_b                   10.553(2)
_cell_length_c                   11.849(2)
_cell_angle_alpha                74.76(3)
_cell_angle_beta                 88.84(3)
_cell_angle_gamma                82.66(3)
_cell_volume                     854.982
loop_
_atom_site_label
_atom_site_type_symbol
_atom_site_fract_x
_atom_site_fract_y
_atom_site_fract_z
O1 O 1.33971(14) 0.37455(9) -0.13840(8)
N1 N 1.10390(15) 0.62202(10) 0.11706(9)
O2 O 0.96540(14) 0.63950(9) 0.32369(8)
O3 O 1.23787(16) 0.17015(10) 0.53947(10)
O4 O 1.23917(16) 0.59174(9) -0.20181(8)
N2 N 1.11362(15) 0.11238(10) 0.10459(9)
O5 O 1.25615(16) 0.09387(9) -0.21859(8)
O6 O 1.20762(14) 0.49661(10) 0.41533(8)
O7 O 1.33640(15) -0.12661(9) -0.15991(9)
N3 N 1.14991(15) 0.60719(10) 0.01084(9)
N4 N 1.16009(15) 0.10114(10) -0.00299(9)
C1 C 1.17284(17) 0.01344(11) 0.19732(10)
C2 C 1.28009(17) 0.48652(11) -0.12415(10)
C3 C 1.25138(16) 0.49477(11) 0.00146(10)
C4 C 1.32071(18) 0.39278(12) 0.09751(11)
H1 H 1.3896 0.3153 0.0882
C5 C 1.28781(17) -0.01463(12) -0.14279(11)
C6 C 1.25859(16) -0.01031(11) -0.01611(10)
C7 C 1.10864(17) 0.55652(11) 0.32687(10)
C8 C 1.16970(17) 0.52784(11) 0.21171(10)
C9 C 1.28278(19) 0.41158(12) 0.20697(11)
H2 H 1.3305 0.3495 0.2745
Li1 Li 0.9854(4) 0.1617(2) 0.4735(2)
Li2 Li 1.1410(4) 0.2530(2) -0.1638(2)
Li3 Li 0.8796(4) 0.2444(2) 0.1597(2)
O8 O 1.44080(17) 0.38443(13) 0.63363(10)
Li4 Li 1.2246(4) 0.3519(2) 0.5542(2)
H3 H 1.420(3) 0.385(2) 0.704(2)
H4 H 1.532(3) 0.427(2) 0.609(2)
C10 C 1.32555(18) -0.11597(11) 0.07838(11)
H5 H 1.3954 -0.1921 0.0670
C11 C 1.28368(19) -0.10253(12) 0.18890(11)
H6 H 1.3275 -0.1681 0.2553
C12 C 1.10638(18) 0.03368(12) 0.31489(11)
O10 O 1.00788(16) 0.14240(10) 0.31261(9)
O11 O 1.15259(16) -0.05770(10) 0.40266(9)
O12 O 0.8353(3) 0.32916(12) 0.43507(11)
H7 H 0.799(3) 0.366(2) 0.368(2)
H9 H 1.250(3) 0.126(3) 0.611(2)
H10 H 1.336(4) 0.153(3) 0.506(3)
H11 H 0.812(4) 0.374(3) 0.474(2)
N1A N 0.89610(15) 0.37798(10) -0.11706(9)
O2A O 1.03460(14) 0.36050(9) -0.32369(8)
O2A_2 O 1.03460(14) 0.36050(9) 0.67631(8)
O4A O 0.76083(16) 0.40826(9) 0.20181(8)
O7A O 0.66360(15) 0.12661(9) 0.15991(9)
N3A N 0.85009(15) 0.39281(10) -0.01084(9)
Li1A Li 1.0146(4) -0.1617(2) 0.5265(2)
Li2A Li 0.8590(4) 0.7470(2) 0.1638(2)
Li3A Li 1.1204(4) 0.7556(2) -0.1597(2)
Li3A_2 Li 1.1204(4) -0.2444(2) -0.1597(2)
Li4A Li 0.7754(4) 0.6481(2) 0.4458(2)
O11A O 0.84741(16) 0.05770(10) 0.59734(9)
O9 O 0.4656(2) 0.86090(18) 0.60889(14)
H8 H 0.425(4) 0.870(3) 0.680(2)
H12 H 0.391(6) 0.835(4) 0.577(4)
loop_
_geom_bond_atom_site_label_1
_geom_bond_atom_site_label_2
_geom_bond_site_symmetry_1
_geom_bond_site_symmetry_2
O1 C2 1_555 1_555
N1 N3 1_555 1_555
O2 C7 1_555 1_555
O3 Li1 1_555 1_555
O4 C2 1_555 1_555
N2 N4 1_555 1_555
O5 C5 1_555 1_555
O6 C7 1_555 1_555
O7 C5 1_555 1_555
N3 C3 1_555 1_555
N4 C6 1_555 1_555
C1 N2 1_555 1_555
C2 C3 1_555 1_555
C3 C4 1_555 1_555
C4 H1 1_555 1_555
C5 C6 1_555 1_555
C6 C10 1_555 1_555
C7 C8 1_555 1_555
C8 N1 1_555 1_555
C9 C4 1_555 1_555
H2 C9 1_555 1_555
Li1 O10 1_555 1_555
Li2 O1 1_555 1_555
Li3 N2 1_555 1_555
O8 Li4 1_555 1_555
O9 H8 1_555 1_555
Li4 O3 1_555 1_555
H3 O8 1_555 1_555
H4 O8 1_555 1_555
C10 H5 1_555 1_555
C11 C1 1_555 1_555
H6 C11 1_555 1_555
C12 C1 1_555 1_555
O10 Li3 1_555 1_555
O11 C12 1_555 1_555
O12 Li1 1_555 1_555
H7 O12 1_555 1_555
H9 O3 1_555 1_555
H10 O3 1_555 1_555
H11 O12 1_555 1_555
H12 O9 1_555 1_555
N1A Li2 1_555 1_555
O2A Li2 1_555 1_555
O2A_2 Li4 1_555 1_555
O4A Li3 1_555 1_555
O7A Li3 1_555 1_555
N3A Li3 1_555 1_555
Li1A O11 1_555 1_555
Li2A N1 1_555 1_555
Li3A O4 1_555 1_555
Li3A_2 O7 1_555 1_555
Li4A O2 1_555 1_555
O11A Li1 1_555 1_555
O2 Li2A 1_555 1_555
O5 Li2 1_555 1_555
O6 Li4 1_555 1_555
N3 Li3A 1_555 1_555
N4 Li2 1_555 1_555
C8 C9 1_555 1_555
C10 C11 1_555 1_555
C12 O10 1_555 1_555
N1A N3A 1_555 1_555

#END
