
#######################################################################
#
#                 Cambridge Crystallographic Data Centre
#                                CCDC 
#
#######################################################################
#
# If this CIF has been generated from an entry in the Cambridge 
# Structural Database, then it will include bibliographic, chemical, 
# crystal, experimental, refinement or atomic coordinate data resulting 
# from the CCDC's data processing and validation procedures.
#
#######################################################################

data_AZOFUR
_symmetry_cell_setting           monoclinic
_symmetry_space_group_name_H-M   'P 21/c'
_symmetry_Int_Tables_number      14
_space_group_name_Hall           '-P 2ybc'
loop_
_symmetry_equiv_pos_site_id
_symmetry_equiv_pos_as_xyz
1 x,y,z
2 -x,1/2+y,1/2-z
3 -x,-y,-z
4 x,1/2-y,1/2+z
_cell_length_a                   10.7786(10)
_cell_length_b                   9.3152(9)
_cell_length_c                   18.1211(17)
_cell_angle_alpha                90
_cell_angle_beta                 92.3240(10)
_cell_angle_gamma                90
_cell_volume                     1817.95
loop_
_atom_site_label
_atom_site_type_symbol
_atom_site_fract_x
_atom_site_fract_y
_atom_site_fract_z
C1 C 0.2314(2) 0.6148(2) 0.75121(13)
C2 C 0.3407(2) 0.6653(3) 0.78657(13)
H1 H 0.3675 0.6260 0.8316
C3 C 0.4095(2) 0.7733(3) 0.75505(13)
C4 C 0.3705(2) 0.8302(3) 0.68700(13)
H2 H 0.4173 0.9009 0.6650
C5 C 0.2619(2) 0.7814(2) 0.65213(12)
C6 C 0.1920(2) 0.6747(2) 0.68380(12)
H3 H 0.1189 0.6430 0.6601
C7 C 0.1299(2) 0.1913(2) 0.61577(12)
H4 H 0.1999 0.1400 0.6032
C8 C 0.1411(2) 0.2878(2) 0.67343(12)
H5 H 0.2170 0.2994 0.6990
C9 C 0.0392(2) 0.3673(2) 0.69312(12)
C10 C -0.0692(2) 0.3470(2) 0.65150(13)
H6 H -0.1396 0.4001 0.6616
C11 C -0.0735(2) 0.2485(3) 0.59503(13)
H7 H -0.1479 0.2371 0.5678
C12 C 0.0430(2) 0.4665(2) 0.75874(13)
H8 H -0.0025 0.5533 0.7456
H9 H 0.0009 0.4206 0.7987
C13 C 0.2739(3) 1.0393(3) 0.97764(16)
H10 H 0.2331 1.0256 1.0213
C14 C 0.3599(2) 0.9375(3) 0.95793(15)
H11 H 0.3756 0.8582 0.9880
C15 C 0.4219(2) 0.9538(3) 0.89414(15)
C16 C 0.3910(3) 1.0717(3) 0.85121(17)
H12 H 0.4277 1.0856 0.8062
C17 C 0.3051(3) 1.1692(3) 0.87565(19)
H13 H 0.2877 1.2495 0.8466
C18 C 0.5200(2) 0.8495(3) 0.87000(15)
H14 H 0.6009 0.8861 0.8861
H15 H 0.5081 0.7587 0.8949
C19 C 0.2157(2) 0.8553(2) 0.58246(13)
N1 N 0.02360(17) 0.16775(19) 0.57703(10)
N2 N 0.16700(19) 0.5057(2) 0.78483(10)
H16 H 0.1781 0.4972 0.8355
N3 N 0.2462(2) 1.1551(3) 0.93783(14)
N4 N 0.52039(17) 0.8233(2) 0.79128(12)
H17 H 0.5447 0.8995 0.7696
Ni1 Ni 0.0000 0.0000 0.5000
O1 O 0.09988(14) 0.86368(16) 0.57090(8)
O2 O 0.29410(15) 0.9082(2) 0.54080(10)
O3 O 0.15872(13) 0.06418(16) 0.44745(8)
H18 H 0.2116 0.0178 0.4756
H19 H 0.1664 0.1683 0.4476
C1_2 C 0.2314(2) -0.3852(2) 0.75121(13)
C2_2 C 0.3407(2) -0.3347(3) 0.78657(13)
H1_2 H 0.3675 -0.3740 0.8316
C3_2 C 0.4095(2) -0.2267(3) 0.75505(13)
C4_2 C 0.3705(2) -0.1698(3) 0.68700(13)
H2_2 H 0.4173 -0.0991 0.6650
C5_2 C 0.2619(2) -0.2186(2) 0.65213(12)
C6_2 C 0.1920(2) -0.3253(2) 0.68380(12)
H3_2 H 0.1189 -0.3570 0.6601
C7_2 C 0.1299(2) -0.8087(2) 0.61577(12)
H4_2 H 0.1999 -0.8600 0.6032
C8_2 C 0.1411(2) -0.7122(2) 0.67343(12)
H5_2 H 0.2170 -0.7006 0.6990
C9_2 C 0.0392(2) -0.6327(2) 0.69312(12)
C10_2 C -0.0692(2) -0.6530(2) 0.65150(13)
H6_2 H -0.1396 -0.5999 0.6616
C11_2 C -0.0735(2) -0.7515(3) 0.59503(13)
H7_2 H -0.1479 -0.7629 0.5678
C12_2 C 0.0430(2) -0.5335(2) 0.75874(13)
H8_2 H -0.0025 -0.4467 0.7456
H9_2 H 0.0009 -0.5794 0.7987
C13_2 C 0.2739(3) 0.0393(3) 0.97764(16)
H10_2 H 0.2331 0.0256 1.0213
C14_2 C 0.3599(2) -0.0625(3) 0.95793(15)
H11_2 H 0.3756 -0.1418 0.9880
C15_2 C 0.4219(2) -0.0462(3) 0.89414(15)
C16_2 C 0.3910(3) 0.0717(3) 0.85121(17)
H12_2 H 0.4277 0.0856 0.8062
C17_2 C 0.3051(3) 0.1692(3) 0.87565(19)
H13_2 H 0.2877 0.2495 0.8466
C18_2 C 0.5200(2) -0.1505(3) 0.87000(15)
H14_2 H 0.6009 -0.1139 0.8861
H15_2 H 0.5081 -0.2413 0.8949
C19_2 C 0.2157(2) -0.1447(2) 0.58246(13)
N1_2 N 0.02360(17) -0.83225(19) 0.57703(10)
N1B N -0.02360(17) -0.16775(19) 0.42297(10)
N2_2 N 0.16700(19) -0.4943(2) 0.78483(10)
H16_2 H 0.1781 -0.5028 0.8355
N3_2 N 0.2462(2) 0.1551(3) 0.93783(14)
N4_2 N 0.52039(17) -0.1767(2) 0.79128(12)
H17_2 H 0.5447 -0.1005 0.7696
Ni1_2 Ni 0.0000 1.0000 0.5000
Ni1_3 Ni 0.0000 -1.0000 0.5000
O1_2 O 0.09988(14) -0.13632(16) 0.57090(8)
O1B O -0.09988(14) 0.13632(16) 0.42910(8)
O2_2 O 0.29410(15) -0.0918(2) 0.54080(10)
O3B O -0.15872(13) -0.06418(16) 0.55255(8)
H18B H -0.2116 -0.0178 0.5244
H19B H -0.1664 -0.1683 0.5524
O4 O 0.4743(5) -0.0193(9) 0.4494(3)
H20 H 0.4269 -0.0406 0.4985
H21 H 0.5132 0.0652 0.4551
loop_
_geom_bond_atom_site_label_1
_geom_bond_atom_site_label_2
_geom_bond_site_symmetry_1
_geom_bond_site_symmetry_2
C1 C2 1_555 1_555
C2 H1 1_555 1_555
C3 C2 1_555 1_555
C4 C3 1_555 1_555
H2 C4 1_555 1_555
C5 C4 1_555 1_555
C6 C1 1_555 1_555
H3 C6 1_555 1_555
C7 H4 1_555 1_555
C8 C7 1_555 1_555
H5 C8 1_555 1_555
C9 C8 1_555 1_555
C10 C9 1_555 1_555
H6 C10 1_555 1_555
C11 C10 1_555 1_555
H7 C11 1_555 1_555
C12 C9 1_555 1_555
H8 C12 1_555 1_555
H9 C12 1_555 1_555
C13 H10 1_555 1_555
C14 C13 1_555 1_555
H11 C14 1_555 1_555
C15 C14 1_555 1_555
C16 C15 1_555 1_555
H12 C16 1_555 1_555
C17 C16 1_555 1_555
H13 C17 1_555 1_555
C18 C15 1_555 1_555
H14 C18 1_555 1_555
H15 C18 1_555 1_555
C19 C5 1_555 1_555
N1 C7 1_555 1_555
N2 C1 1_555 1_555
H16 N2 1_555 1_555
N3 C13 1_555 1_555
N4 C3 1_555 1_555
H17 N4 1_555 1_555
Ni1 N1 1_555 1_555
O1 C19 1_555 1_555
O2 C19 1_555 1_555
O3 Ni1 1_555 1_555
H18 O3 1_555 1_555
H19 O3 1_555 1_555
O4 H20 1_555 1_555
H21 O4 1_555 1_555
C1_2 C2_2 1_555 1_555
C2_2 H1_2 1_555 1_555
C3_2 C2_2 1_555 1_555
C4_2 C3_2 1_555 1_555
H2_2 C4_2 1_555 1_555
C5_2 C4_2 1_555 1_555
C6_2 C1_2 1_555 1_555
H3_2 C6_2 1_555 1_555
C7_2 H4_2 1_555 1_555
C8_2 C7_2 1_555 1_555
H5_2 C8_2 1_555 1_555
C9_2 C8_2 1_555 1_555
C10_2 C9_2 1_555 1_555
H6_2 C10_2 1_555 1_555
C11_2 C10_2 1_555 1_555
H7_2 C11_2 1_555 1_555
C12_2 C9_2 1_555 1_555
H8_2 C12_2 1_555 1_555
H9_2 C12_2 1_555 1_555
C13_2 H10_2 1_555 1_555
C14_2 C13_2 1_555 1_555
H11_2 C14_2 1_555 1_555
C15_2 C14_2 1_555 1_555
C16_2 C15_2 1_555 1_555
H12_2 C16_2 1_555 1_555
C17_2 C16_2 1_555 1_555
H13_2 C17_2 1_555 1_555
C18_2 C15_2 1_555 1_555
H14_2 C18_2 1_555 1_555
H15_2 C18_2 1_555 1_555
C19_2 C5_2 1_555 1_555
N1_2 C7_2 1_555 1_555
N1B Ni1 1_555 1_555
N2_2 C1_2 1_555 1_555
H16_2 N2_2 1_555 1_555
N3_2 C13_2 1_555 1_555
N4_2 C3_2 1_555 1_555
H17_2 N4_2 1_555 1_555
Ni1_2 O1 1_555 1_555
Ni1_3 N1_2 1_555 1_555
O1_2 Ni1 1_555 1_555
O1B Ni1 1_555 1_555
O2_2 C19_2 1_555 1_555
O3B Ni1 1_555 1_555
H18B O3B 1_555 1_555
H19B O3B 1_555 1_555
C5 C6 1_555 1_555
C11 N1 1_555 1_555
C12 N2 1_555 1_555
C17 N3 1_555 1_555
C18 N4 1_555 1_555
C5_2 C6_2 1_555 1_555
C11_2 N1_2 1_555 1_555
C12_2 N2_2 1_555 1_555
C17_2 N3_2 1_555 1_555
C18_2 N4_2 1_555 1_555
C19_2 O1_2 1_555 1_555

#END
