
#######################################################################
#
#                 Cambridge Crystallographic Data Centre
#                                CCDC 
#
#######################################################################
#
# If this CIF has been generated from an entry in the Cambridge 
# Structural Database, then it will include bibliographic, chemical, 
# crystal, experimental, refinement or atomic coordinate data resulting 
# from the CCDC's data processing and validation procedures.
#
#######################################################################

data_AZOHIG
_symmetry_cell_setting           monoclinic
_symmetry_space_group_name_H-M   'P 2/c'
_symmetry_Int_Tables_number      13
_space_group_name_Hall           '-P 2yc'
loop_
_symmetry_equiv_pos_site_id
_symmetry_equiv_pos_as_xyz
1 x,y,z
2 x,-y,1/2+z
3 -x,-y,-z
4 -x,y,1/2-z
_cell_length_a                   14.8651(14)
_cell_length_b                   7.5694(7)
_cell_length_c                   22.796(2)
_cell_angle_alpha                90
_cell_angle_beta                 106.8330(10)
_cell_angle_gamma                90
_cell_volume                     2455.1
loop_
_atom_site_label
_atom_site_type_symbol
_atom_site_fract_x
_atom_site_fract_y
_atom_site_fract_z
Co1 Co 0.0000 -0.05424(16) 0.7500
Co2 Co -0.29523(6) 0.22187(12) 0.58450(4)
P1 P -0.35865(12) -0.1616(3) 0.55148(8)
P2 P -0.38109(13) 0.4055(3) 0.68101(8)
N1 N 0.0025(4) -0.0420(7) 0.6560(2)
N2 N -0.1905(4) 0.3449(7) 0.5514(2)
N3 N -0.3785(3) 0.0714(7) 0.6364(2)
C1 C -0.4419(5) 0.2002(10) 0.6534(3)
H1 H -0.4657 0.1497 0.6850
H2 H -0.4950 0.2242 0.6179
C2 C -0.3105(4) -0.0093(9) 0.6909(3)
H3 H -0.3232 -0.1350 0.6913
H4 H -0.3200 0.0417 0.7277
C3 C -0.2098(4) 0.0166(9) 0.6923(3)
C4 C -0.4320(5) -0.0684(9) 0.5949(3)
H5 H -0.4885 -0.0183 0.5671
H6 H -0.4505 -0.1603 0.6187
C5 C -0.0708(5) -0.0919(9) 0.5498(3)
H7 H -0.1217 -0.1387 0.5199
C6 C -0.0670(5) -0.1064(9) 0.6106(3)
H8 H -0.1158 -0.1646 0.6204
C7 C 0.0709(5) 0.0423(10) 0.6397(3)
H9 H 0.1199 0.0914 0.6705
C8 C 0.0728(4) 0.0602(10) 0.5800(3)
H10 H 0.1226 0.1184 0.5714
C9 C 0.0005(4) -0.0082(8) 0.5329(3)
C10 C -0.1109(5) 0.4056(11) 0.5895(3)
H11 H -0.1058 0.4051 0.6312
C11 C -0.1222(5) 0.4078(10) 0.4704(3)
H12 H -0.1291 0.4066 0.4285
C12 C -0.0361(5) 0.4686(10) 0.5722(3)
H13 H 0.0168 0.5113 0.6015
C13 C -0.1955(4) 0.3481(10) 0.4925(3)
H14 H -0.2504 0.3088 0.4643
C14 C -0.0398(4) 0.4683(8) 0.5107(3)
O1 O -0.1905(3) 0.1281(6) 0.65694(19)
O2 O -0.1485(3) -0.0728(6) 0.73047(18)
O3 O -0.4170(3) -0.2806(6) 0.5027(2)
O4 O -0.3133(3) -0.0060(6) 0.53011(19)
O5 O -0.2772(3) -0.2650(6) 0.5985(2)
H15 H -0.2982 -0.3563 0.6088
O6 O -0.3181(3) 0.3707(7) 0.7482(2)
H16 H -0.3444 0.4094 0.7726
O7 O -0.4524(3) 0.5451(7) 0.6787(2)
O8 O -0.3135(3) 0.4353(6) 0.6428(2)
O9 O 0.0000 0.2266(9) 0.7500
O10 O 0.0000 -0.3296(9) 0.7500
O11 O -0.3997(3) 0.3465(6) 0.5143(2)
C9B C -0.0005(4) 0.0082(8) 0.4671(3)
C5B C 0.0708(5) 0.0919(9) 0.4502(3)
H7B H 0.1217 0.1387 0.4801
C6B C 0.0670(5) 0.1064(9) 0.3894(3)
N1B N -0.0025(4) 0.0420(7) 0.3440(2)
C7B C -0.0709(5) -0.0423(10) 0.3603(3)
H9B H -0.1199 -0.0914 0.3295
C8B C -0.0728(4) -0.0602(10) 0.4200(3)
H10B H -0.1226 -0.1184 0.4286
H8B H 0.1158 0.1646 0.3796
C14B C 0.0398(4) 0.5317(8) 0.4893(3)
C11B C 0.1222(5) 0.5922(10) 0.5296(3)
H12B H 0.1291 0.5934 0.5715
C13B C 0.1955(4) 0.6519(10) 0.5075(3)
N2B N 0.1905(4) 0.6551(7) 0.4486(2)
C10B C 0.1109(5) 0.5944(11) 0.4105(3)
H11B H 0.1058 0.5949 0.3688
C12B C 0.0361(5) 0.5314(10) 0.4278(3)
H13B H -0.0168 0.4887 0.3985
H14B H 0.2504 0.6912 0.5357
P1C P 0.35865(12) -0.1616(3) 0.94852(8)
P2C P 0.38109(13) 0.4055(3) 0.81899(8)
N3C N 0.3785(3) 0.0714(7) 0.8636(2)
C1C C 0.4419(5) 0.2002(10) 0.8466(3)
H1C H 0.4657 0.1497 0.8150
H2C H 0.4950 0.2242 0.8821
C2C C 0.3105(4) -0.0093(9) 0.8091(3)
H3C H 0.3232 -0.1350 0.8087
H4C H 0.3200 0.0417 0.7723
C3C C 0.2098(4) 0.0166(9) 0.8077(3)
C4C C 0.4320(5) -0.0684(9) 0.9051(3)
H5C H 0.4885 -0.0183 0.9329
H6C H 0.4505 -0.1603 0.8813
O1C O 0.1905(3) 0.1281(6) 0.84306(19)
O2C O 0.1485(3) -0.0728(6) 0.76953(18)
O3C O 0.4170(3) -0.2806(6) 0.9973(2)
O4C O 0.3133(3) -0.0060(6) 0.96989(19)
O5C O 0.2772(3) -0.2650(6) 0.9015(2)
H15C H 0.2982 -0.3563 0.8912
O6C O 0.3181(3) 0.3707(7) 0.7518(2)
H16C H 0.3444 0.4094 0.7274
O7C O 0.4524(3) 0.5451(7) 0.8213(2)
O8C O 0.3135(3) 0.4353(6) 0.8572(2)
Co2C Co 0.29523(6) 0.22187(12) 0.91550(4)
O11C O 0.3997(3) 0.3465(6) 0.9857(2)
N1C N -0.0025(4) -0.0420(7) 0.8440(2)
Co1A Co 0.0000 0.05424(16) 0.2500
Co2B Co 0.29523(6) 0.77813(12) 0.41550(4)
N2C N 0.1905(4) 0.3449(7) 0.9486(2)
O12 O -0.3622(4) 0.4622(8) 0.8478(2)
O13 O -0.5000 0.7966(10) 0.7500
O14 O -0.2976(4) 0.1401(10) 0.9127(3)
O15 O -0.3238(5) 0.8416(11) 0.8406(3)
O16 O -0.1274(7) 0.4342(13) 0.7476(5)
O17 O -0.1667(5) 0.6504(12) 0.8096(3)
loop_
_geom_bond_atom_site_label_1
_geom_bond_atom_site_label_2
_geom_bond_site_symmetry_1
_geom_bond_site_symmetry_2
Co1 N1 1_555 1_555
Co2 N2 1_555 1_555
P1 C4 1_555 1_555
P2 C1 1_555 1_555
N1 C6 1_555 1_555
N2 C10 1_555 1_555
N3 Co2 1_555 1_555
C1 N3 1_555 1_555
H1 C1 1_555 1_555
H2 C1 1_555 1_555
C2 N3 1_555 1_555
H3 C2 1_555 1_555
H4 C2 1_555 1_555
C3 C2 1_555 1_555
C4 N3 1_555 1_555
H5 C4 1_555 1_555
H6 C4 1_555 1_555
C5 H7 1_555 1_555
C6 C5 1_555 1_555
H8 C6 1_555 1_555
C7 N1 1_555 1_555
H9 C7 1_555 1_555
C8 C7 1_555 1_555
H10 C8 1_555 1_555
C9 C5 1_555 1_555
C10 H11 1_555 1_555
C11 H12 1_555 1_555
C12 C10 1_555 1_555
H13 C12 1_555 1_555
C13 N2 1_555 1_555
H14 C13 1_555 1_555
C14 C11 1_555 1_555
O1 Co2 1_555 1_555
O2 Co1 1_555 1_555
O3 P1 1_555 1_555
O4 Co2 1_555 1_555
O5 P1 1_555 1_555
H15 O5 1_555 1_555
O6 P2 1_555 1_555
H16 O6 1_555 1_555
O7 P2 1_555 1_555
O8 Co2 1_555 1_555
O9 Co1 1_555 1_555
O10 Co1 1_555 1_555
O11 Co2 1_555 1_555
C9B C9 1_555 1_555
C5B C9B 1_555 1_555
H7B C5B 1_555 1_555
C6B C5B 1_555 1_555
N1B C6B 1_555 1_555
C7B N1B 1_555 1_555
H9B C7B 1_555 1_555
C8B C9B 1_555 1_555
H10B C8B 1_555 1_555
H8B C6B 1_555 1_555
C14B C14 1_555 1_555
C11B C14B 1_555 1_555
H12B C11B 1_555 1_555
C13B C11B 1_555 1_555
N2B C13B 1_555 1_555
C10B N2B 1_555 1_555
H11B C10B 1_555 1_555
C12B C14B 1_555 1_555
H13B C12B 1_555 1_555
H14B C13B 1_555 1_555
P1C C4C 1_555 1_555
P2C C1C 1_555 1_555
N3C C1C 1_555 1_555
C1C H1C 1_555 1_555
H2C C1C 1_555 1_555
C2C N3C 1_555 1_555
H3C C2C 1_555 1_555
H4C C2C 1_555 1_555
C3C C2C 1_555 1_555
C4C N3C 1_555 1_555
H5C C4C 1_555 1_555
H6C C4C 1_555 1_555
O1C C3C 1_555 1_555
O2C Co1 1_555 1_555
O3C P1C 1_555 1_555
O4C P1C 1_555 1_555
O5C P1C 1_555 1_555
H15C O5C 1_555 1_555
O6C P2C 1_555 1_555
H16C O6C 1_555 1_555
O7C P2C 1_555 1_555
O8C P2C 1_555 1_555
Co2C N3C 1_555 1_555
O11C Co2C 1_555 1_555
N1C Co1 1_555 1_555
Co1A N1B 1_555 1_555
Co2B N2B 1_555 1_555
N2C Co2C 1_555 1_555
P1 O4 1_555 1_555
P2 O8 1_555 1_555
C3 O1 1_555 1_555
C3 O2 1_555 1_555
C8 C9 1_555 1_555
C11 C13 1_555 1_555
C12 C14 1_555 1_555
C7B C8B 1_555 1_555
C10B C12B 1_555 1_555
C3C O2C 1_555 1_555
O1C Co2C 1_555 1_555
O4C Co2C 1_555 1_555
O8C Co2C 1_555 1_555

#END
