
#######################################################################
#
#                 Cambridge Crystallographic Data Centre
#                                CCDC 
#
#######################################################################
#
# If this CIF has been generated from an entry in the Cambridge 
# Structural Database, then it will include bibliographic, chemical, 
# crystal, experimental, refinement or atomic coordinate data resulting 
# from the CCDC's data processing and validation procedures.
#
#######################################################################

data_AZOHON
_symmetry_cell_setting           triclinic
_symmetry_space_group_name_H-M   'P -1'
_symmetry_Int_Tables_number      2
_space_group_name_Hall           '-P 1'
loop_
_symmetry_equiv_pos_site_id
_symmetry_equiv_pos_as_xyz
1 x,y,z
2 -x,-y,-z
_cell_length_a                   8.25990(10)
_cell_length_b                   10.5950(2)
_cell_length_c                   11.1097(2)
_cell_angle_alpha                111.7840(10)
_cell_angle_beta                 94.0660(10)
_cell_angle_gamma                102.7490(10)
_cell_volume                     867.941
loop_
_atom_site_label
_atom_site_type_symbol
_atom_site_fract_x
_atom_site_fract_y
_atom_site_fract_z
Cd1 Cd 0.622884(17) 0.135016(14) 0.438680(14)
N1 N 0.7226(2) 0.34613(18) 0.41261(17)
N2 N 0.5919(2) 0.32243(19) 0.62096(18)
O2 O 0.37311(19) -0.02140(17) 0.40538(16)
O3 O 0.3303(2) 0.11060(18) 0.30183(19)
O4 O -0.3040(2) -0.0038(2) 0.22846(18)
O5 O -0.1199(2) 0.09023(19) 0.40964(15)
O6 O -0.0940(2) -0.27932(18) 0.14335(18)
C1 C 0.2765(2) 0.0124(2) 0.33481(19)
C2 C 0.0974(2) -0.0774(2) 0.29330(19)
H3 H 0.0520 -0.0788 0.3721
C3 C 0.0822(3) -0.2314(2) 0.1986(2)
H4 H 0.1177 -0.2882 0.2426
C4 C 0.1675(3) -0.2356(3) 0.0796(2)
H5 H 0.1784 -0.3293 0.0290
H6 H 0.2776 -0.1685 0.1058
C5 C 0.0417(4) -0.1935(4) 0.0024(3)
H7 H 0.0937 -0.1068 -0.0067
H8 H -0.0049 -0.2675 -0.0841
C6 C -0.0928(3) -0.1738(3) 0.0910(2)
H9 H -0.2029 -0.1827 0.0448
C7 C -0.0255(3) -0.0357(2) 0.21353(19)
H10 H 0.0382 0.0371 0.1878
C8 C -0.1600(3) 0.0185(2) 0.2884(2)
C9 C 0.7903(3) 0.3532(3) 0.3088(2)
H11 H 0.7896 0.2695 0.2400
C10 C 0.8609(3) 0.4784(3) 0.2992(3)
H12 H 0.9063 0.4794 0.2252
C11 C 0.8631(4) 0.6025(3) 0.4012(3)
H13 H 0.9115 0.6889 0.3979
C12 C 0.7923(3) 0.5967(2) 0.5088(2)
H14 H 0.7914 0.6793 0.5784
C13 C 0.7229(3) 0.4670(2) 0.5117(2)
C14 C 0.6425(3) 0.4529(2) 0.6236(2)
C15 C 0.6177(3) 0.5688(2) 0.7256(2)
H15 H 0.6548 0.6591 0.7273
C16 C 0.5372(4) 0.5476(3) 0.8235(2)
H16 H 0.5199 0.6237 0.8924
C17 C 0.4825(3) 0.4128(3) 0.8190(2)
H17 H 0.4261 0.3964 0.8835
C18 C 0.5134(3) 0.3037(3) 0.7171(2)
H18 H 0.4784 0.2129 0.7145
Cd1A Cd 0.377116(17) -0.135016(14) 0.561320(14)
Cd1_2 Cd -0.377116(17) 0.135016(14) 0.438680(14)
O2A O 0.62689(19) 0.02140(17) 0.59462(16)
O4_2 O 0.6960(2) -0.0038(2) 0.22846(18)
O5_2 O 0.8801(2) 0.09023(19) 0.40964(15)
O1 O 0.4578(5) 0.1298(4) 0.0551(3)
H1 H 0.411(7) 0.057(5) -0.024(3)
H2 H 0.400(8) 0.088(6) 0.104(5)
loop_
_geom_bond_atom_site_label_1
_geom_bond_atom_site_label_2
_geom_bond_site_symmetry_1
_geom_bond_site_symmetry_2
Cd1 N1 1_555 1_555
N1 C9 1_555 1_555
N2 Cd1 1_555 1_555
O1 H1 1_555 1_555
H2 O1 1_555 1_555
O2 Cd1 1_555 1_555
O3 Cd1 1_555 1_555
O4 C8 1_555 1_555
O5 C8 1_555 1_555
O6 C3 1_555 1_555
C1 O2 1_555 1_555
C2 C1 1_555 1_555
H3 C2 1_555 1_555
C3 C2 1_555 1_555
H4 C3 1_555 1_555
C4 C3 1_555 1_555
H5 C4 1_555 1_555
H6 C4 1_555 1_555
C5 C4 1_555 1_555
H7 C5 1_555 1_555
H8 C5 1_555 1_555
C6 O6 1_555 1_555
H9 C6 1_555 1_555
C7 C2 1_555 1_555
H10 C7 1_555 1_555
C8 C7 1_555 1_555
C9 H11 1_555 1_555
C10 C9 1_555 1_555
H12 C10 1_555 1_555
C11 C10 1_555 1_555
H13 C11 1_555 1_555
C12 C11 1_555 1_555
H14 C12 1_555 1_555
C13 N1 1_555 1_555
C14 N2 1_555 1_555
C15 C14 1_555 1_555
H15 C15 1_555 1_555
C16 C15 1_555 1_555
H16 C16 1_555 1_555
C17 C16 1_555 1_555
H17 C17 1_555 1_555
C18 N2 1_555 1_555
H18 C18 1_555 1_555
Cd1A O2 1_555 1_555
Cd1_2 O4 1_555 1_555
O2A Cd1 1_555 1_555
O4_2 Cd1 1_555 1_555
O5_2 Cd1 1_555 1_555
O3 C1 1_555 1_555
O5 Cd1_2 1_555 1_555
C5 C6 1_555 1_555
C6 C7 1_555 1_555
C12 C13 1_555 1_555
C13 C14 1_555 1_555
C17 C18 1_555 1_555
Cd1A O2A 1_555 1_555

#END
