
#######################################################################
#
#                 Cambridge Crystallographic Data Centre
#                                CCDC 
#
#######################################################################
#
# If this CIF has been generated from an entry in the Cambridge 
# Structural Database, then it will include bibliographic, chemical, 
# crystal, experimental, refinement or atomic coordinate data resulting 
# from the CCDC's data processing and validation procedures.
#
#######################################################################

data_AZOKUW
_symmetry_cell_setting           monoclinic
_symmetry_space_group_name_H-M   'P 21/c'
_symmetry_Int_Tables_number      14
_space_group_name_Hall           '-P 2ybc'
loop_
_symmetry_equiv_pos_site_id
_symmetry_equiv_pos_as_xyz
1 x,y,z
2 -x,1/2+y,1/2-z
3 -x,-y,-z
4 x,1/2-y,1/2+z
_cell_length_a                   7.1790(14)
_cell_length_b                   13.490(3)
_cell_length_c                   10.129(2)
_cell_angle_alpha                90
_cell_angle_beta                 99.11(3)
_cell_angle_gamma                90
_cell_volume                     968.567
loop_
_atom_site_label
_atom_site_type_symbol
_atom_site_fract_x
_atom_site_fract_y
_atom_site_fract_z
Fe1 Fe 0.00000 0.00000 0.00000
O1 O 0.06876(16) 0.10364(9) -0.14553(12)
O2 O -0.00859(18) 0.15001(9) -0.35930(13)
O3 O -0.19925(18) 0.08021(10) -0.56865(12)
O4 O -0.38127(18) -0.05047(10) -0.62554(12)
N1 N -0.51150(18) -0.17230(10) -0.08531(13)
N2 N -0.5674(2) -0.23038(11) 0.01037(16)
N3 N -0.75834(19) -0.09910(10) -0.02990(14)
N4 N -0.16330(18) -0.05447(9) -0.17946(13)
N5 N -0.32936(18) -0.11788(10) -0.36005(13)
C1 C -0.7157(3) -0.18384(14) 0.0396(2)
C2 C -0.6267(2) -0.09475(12) -0.10846(16)
C3 C -0.3469(2) -0.20523(12) -0.14359(18)
C4 C -0.2792(2) -0.12666(11) -0.22693(16)
C5 C -0.1404(2) 0.00355(11) -0.28705(16)
C6 C -0.0165(2) 0.09232(12) -0.26313(16)
C7 C -0.2437(2) -0.03540(12) -0.40038(16)
C8 C -0.2797(2) -0.00276(12) -0.54165(17)
H1 H -0.78580 -0.20710 0.10290
H2 H -0.61660 -0.04490 -0.17040
H3 H -0.13760 0.10250 -0.50000
H4 H -0.38060 -0.26360 -0.19810
H5 H -0.24600 -0.22340 -0.07230
H6 H -0.40260 -0.15730 -0.41090
Fe1_2 Fe -1.00000 0.00000 0.00000
Fe1_3 Fe 1.00000 0.00000 0.00000
O1B O -0.06876(16) -0.10364(9) 0.14553(12)
O2B O 0.00859(18) -0.15001(9) 0.35930(13)
O3B O 0.19925(18) -0.08021(10) 0.56865(12)
O4B O 0.38127(18) 0.05047(10) 0.62554(12)
N1B N 0.51150(18) 0.17230(10) 0.08531(13)
N2B N 0.5674(2) 0.23038(11) -0.01037(16)
N3B N 0.75834(19) 0.09910(10) 0.02990(14)
N3_2 N 0.24166(19) -0.09910(10) -0.02990(14)
N3B_2 N -0.24166(19) 0.09910(10) 0.02990(14)
N4B N 0.16330(18) 0.05447(9) 0.17946(13)
N5B N 0.32936(18) 0.11788(10) 0.36005(13)
C1B C 0.7157(3) 0.18384(14) -0.0396(2)
C2B C 0.6267(2) 0.09475(12) 0.10846(16)
C3B C 0.3469(2) 0.20523(12) 0.14359(18)
C4B C 0.2792(2) 0.12666(11) 0.22693(16)
C5B C 0.1404(2) -0.00355(11) 0.28705(16)
C6B C 0.0165(2) -0.09232(12) 0.26313(16)
C7B C 0.2437(2) 0.03540(12) 0.40038(16)
C8B C 0.2797(2) 0.00276(12) 0.54165(17)
H1B H 0.78580 0.20710 -0.10290
H2B H 0.61660 0.04490 0.17040
H3B H 0.13760 -0.10250 0.50000
H4B H 0.38060 0.26360 0.19810
H5B H 0.24600 0.22340 0.07230
H6B H 0.40260 0.15730 0.41090
loop_
_geom_bond_atom_site_label_1
_geom_bond_atom_site_label_2
_geom_bond_site_symmetry_1
_geom_bond_site_symmetry_2
Fe1 O1 1_555 1_555
O1 C6 1_555 1_555
O2 C6 1_555 1_555
O3 C8 1_555 1_555
O4 C8 1_555 1_555
N1 N2 1_555 1_555
N2 C1 1_555 1_555
N3 C1 1_555 1_555
N4 Fe1 1_555 1_555
N5 C4 1_555 1_555
C1 H1 1_555 1_555
C2 N1 1_555 1_555
C3 N1 1_555 1_555
C4 N4 1_555 1_555
C5 N4 1_555 1_555
C6 C5 1_555 1_555
C7 N5 1_555 1_555
C8 C7 1_555 1_555
H2 C2 1_555 1_555
H3 O3 1_555 1_555
H4 C3 1_555 1_555
H5 C3 1_555 1_555
H6 N5 1_555 1_555
Fe1_2 N3 1_555 1_555
Fe1_3 N3B 1_555 1_555
O1B Fe1 1_555 1_555
O2B C6B 1_555 1_555
O3B C8B 1_555 1_555
O4B C8B 1_555 1_555
N1B N2B 1_555 1_555
N2B C1B 1_555 1_555
N3B C1B 1_555 1_555
N3_2 Fe1 1_555 1_555
N3B_2 Fe1 1_555 1_555
N4B Fe1 1_555 1_555
N5B C4B 1_555 1_555
C1B H1B 1_555 1_555
C2B N1B 1_555 1_555
C3B N1B 1_555 1_555
C4B N4B 1_555 1_555
C5B N4B 1_555 1_555
C6B O1B 1_555 1_555
C7B N5B 1_555 1_555
C8B C7B 1_555 1_555
H2B C2B 1_555 1_555
H3B O3B 1_555 1_555
H4B C3B 1_555 1_555
H5B C3B 1_555 1_555
H6B N5B 1_555 1_555
N3 C2 1_555 1_555
C3 C4 1_555 1_555
C5 C7 1_555 1_555
N3B C2B 1_555 1_555
C3B C4B 1_555 1_555
C5B C6B 1_555 1_555
C5B C7B 1_555 1_555

#END
