
#######################################################################
#
#                 Cambridge Crystallographic Data Centre
#                                CCDC 
#
#######################################################################
#
# If this CIF has been generated from an entry in the Cambridge 
# Structural Database, then it will include bibliographic, chemical, 
# crystal, experimental, refinement or atomic coordinate data resulting 
# from the CCDC's data processing and validation procedures.
#
#######################################################################

data_AZOLIL
_symmetry_cell_setting           triclinic
_symmetry_space_group_name_H-M   'P -1'
_symmetry_Int_Tables_number      2
_space_group_name_Hall           '-P 1'
loop_
_symmetry_equiv_pos_site_id
_symmetry_equiv_pos_as_xyz
1 x,y,z
2 -x,-y,-z
_cell_length_a                   11.3736(5)
_cell_length_b                   12.0349(6)
_cell_length_c                   17.8360(8)
_cell_angle_alpha                91.3100(10)
_cell_angle_beta                 103.1870(10)
_cell_angle_gamma                106.5050(10)
_cell_volume                     2269
loop_
_atom_site_label
_atom_site_type_symbol
_atom_site_fract_x
_atom_site_fract_y
_atom_site_fract_z
C1 C 0.4251(5) 0.8899(5) 0.7503(3)
C2 C 0.3246(5) 0.8628(5) 0.6840(3)
H1 H 0.3093 0.7969 0.6508
C3 C 0.2482(5) 0.9350(5) 0.6685(3)
C4 C 0.2704(5) 1.0328(5) 0.7175(3)
H2 H 0.2188 1.0809 0.7064
C5 C 0.3692(6) 1.0599(6) 0.7831(4)
C6 C 0.4462(6) 0.9871(5) 0.7995(4)
H3 H 0.5120 1.0043 0.8440
C7 C 0.5145(5) 0.8182(5) 0.7643(3)
C8 C 0.1446(5) 0.9091(5) 0.5952(3)
C9 C 0.0136(5) 0.8915(5) 0.1828(3)
C10 C 0.1249(5) 0.9454(5) 0.1611(3)
H4 H 0.1973 0.9860 0.1983
C11 C 0.1270(5) 0.9381(5) 0.0836(3)
C12 C 0.0188(5) 0.8775(5) 0.0280(3)
H5 H 0.0204 0.8723 -0.0238
C13 C -0.0921(5) 0.8246(5) 0.0506(3)
C14 C -0.0937(5) 0.8305(5) 0.1277(3)
H6 H -0.1673 0.7932 0.1425
C15 C 0.0150(5) 0.9011(5) 0.2669(3)
C16 C -0.2103(5) 0.7609(5) -0.0104(3)
C17 C -0.5160(5) 0.5841(5) 0.3977(3)
C18 C -0.3978(5) 0.6676(5) 0.4100(3)
H7 H -0.3485 0.6693 0.3747
C19 C -0.3540(5) 0.7474(5) 0.4743(3)
C20 C -0.4278(5) 0.7441(5) 0.5283(3)
H8 H -0.4007 0.8002 0.5703
C21 C -0.5417(5) 0.6562(5) 0.5181(3)
C22 C -0.5862(5) 0.5782(5) 0.4528(3)
H9 H -0.6638 0.5212 0.4456
C23 C -0.2276(5) 0.8376(5) 0.4863(3)
C24 C -0.5688(5) 0.5022(5) 0.3256(3)
C25 C 1.0000(8) 0.7669(10) 0.8074(5)
H10 H 0.9747 0.8291 0.7869
C26 C 1.1267(8) 0.7756(10) 0.8224(6)
H11 H 1.1856 0.8417 0.8129
C27 C 1.1621(9) 0.6827(10) 0.8517(6)
H12 H 1.2463 0.6840 0.8608
C28 C 1.0729(8) 0.5862(9) 0.8679(5)
H13 H 1.0970 0.5233 0.8883
C29 C 0.9474(8) 0.5858(8) 0.8531(5)
C30 C 0.8518(8) 0.4909(8) 0.8756(5)
C31 C 0.8801(9) 0.3964(8) 0.9129(5)
H14 H 0.9610 0.3886 0.9213
C32 C 0.7869(9) 0.3161(8) 0.9366(6)
H15 H 0.8057 0.2552 0.9631
C33 C 0.6694(9) 0.3243(8) 0.9220(5)
H16 H 0.6055 0.2697 0.9375
C34 C 0.6460(9) 0.4171(8) 0.8831(5)
H17 H 0.5638 0.4221 0.8719
C35 C 0.3302(6) 0.9129(6) 0.3933(4)
H18 H 0.3510 0.9844 0.4219
C36 C 0.4133(7) 0.8951(6) 0.3514(4)
H19 H 0.4897 0.9515 0.3535
C37 C 0.3786(7) 0.7913(6) 0.3068(4)
H20 H 0.4285 0.7779 0.2750
C38 C 0.2695(6) 0.7073(6) 0.3096(4)
H21 H 0.2461 0.6358 0.2807
C39 C 0.1949(6) 0.7292(5) 0.3553(4)
C40 C 0.0846(6) 0.6358(6) 0.3694(4)
C41 C 0.0697(7) 0.5191(6) 0.3519(4)
H22 H 0.1247 0.4972 0.3274
C42 C -0.0277(7) 0.4353(6) 0.3710(5)
H23 H -0.0391 0.3565 0.3601
C43 C -0.1078(7) 0.4720(6) 0.4069(5)
H24 H -0.1743 0.4182 0.4206
C44 C -0.0871(6) 0.5902(6) 0.4219(4)
H25 H -0.1419 0.6141 0.4457
Dy1 Dy 0.04319(2) 0.89445(2) 0.429009(13)
Dy2 Dy 0.67367(2) 0.67220(2) 0.800601(14)
N1 N 0.9105(5) 0.6742(5) 0.8207(3)
N2 N 0.7338(6) 0.4996(5) 0.8606(3)
N3 N 0.0070(4) 0.6719(4) 0.4043(3)
N4 N 0.2227(5) 0.8338(4) 0.3947(3)
O1 O 0.4947(4) 0.7273(4) 0.7207(2)
O2 O 0.6118(4) 0.8495(3) 0.8205(2)
O3 O 0.0652(4) 0.9668(4) 0.5843(3)
O4 O 0.1422(4) 0.8342(4) 0.5450(2)
O5 O 0.3955(6) 1.1574(5) 0.8318(3)
H26 H 0.3461 1.1943 0.8150
O6 O -0.0618(4) 0.8244(4) 0.2938(2)
O7 O 0.0951(4) 0.9848(4) 0.3114(2)
O8 O -0.3077(5) 0.7129(6) 0.0117(3)
O9 O -0.2044(4) 0.7600(4) -0.0800(2)
O10 O 0.2343(4) 0.9872(4) 0.0599(2)
H27 H 0.2877 1.0299 0.0958
O11 O -0.6748(4) 0.4259(4) 0.3173(2)
O12 O -0.5103(4) 0.5091(4) 0.2728(2)
O13 O -0.1492(3) 0.8116(3) 0.4548(2)
O14 O -0.2080(3) 0.9311(3) 0.5265(2)
O15 O -0.6135(4) 0.6428(4) 0.5704(2)
H28 H -0.5706 0.6787 0.6119
O16 O 0.5317(4) 0.6243(4) 0.8801(2)
H29 H 0.5604 0.6566 0.9261
H30 H 0.4515 0.6014 0.8712
O17 O 0.7608(4) 0.8059(4) 0.7123(2)
H31 H 0.7579 0.7565 0.6765
H32 H 0.7932 0.8733 0.6996
Dy1A Dy -0.04319(2) 1.10555(2) 0.570991(13)
Dy2_2 Dy -0.32633(2) 0.67220(2) -0.199399(14)
Dy2A Dy -0.67367(2) 0.32780(2) 0.199399(14)
O3A O -0.0652(4) 1.0332(4) 0.4157(3)
O9_2 O 0.7956(4) 0.7600(4) 0.9200(2)
O11A O 0.6748(4) 0.5741(4) 0.6827(2)
O12A O 0.5103(4) 0.4909(4) 0.7272(2)
O14A O 0.2080(3) 1.0689(3) 0.4735(2)
O18 O 0.6892(5) 0.5249(5) 0.1047(4)
H33 H 0.7242 0.5719 0.1452
H34 H 0.6780 0.5651 0.0666
O19 O 0.2982(7) 0.3417(7) 0.7652(4)
H35 H 0.2287 0.2884 0.7480
H36 H 0.3365 0.3533 0.7291
loop_
_geom_bond_atom_site_label_1
_geom_bond_atom_site_label_2
_geom_bond_site_symmetry_1
_geom_bond_site_symmetry_2
C1 C2 1_555 1_555
C2 H1 1_555 1_555
C3 C2 1_555 1_555
C4 C3 1_555 1_555
H2 C4 1_555 1_555
C5 C4 1_555 1_555
C6 C1 1_555 1_555
H3 C6 1_555 1_555
C7 C1 1_555 1_555
C8 C3 1_555 1_555
C9 C10 1_555 1_555
C10 H4 1_555 1_555
C11 C10 1_555 1_555
C12 C11 1_555 1_555
H5 C12 1_555 1_555
C13 C12 1_555 1_555
C14 C9 1_555 1_555
H6 C14 1_555 1_555
C15 C9 1_555 1_555
C16 C13 1_555 1_555
C17 C18 1_555 1_555
C18 H7 1_555 1_555
C19 C18 1_555 1_555
C20 C19 1_555 1_555
H8 C20 1_555 1_555
C21 C20 1_555 1_555
C22 C17 1_555 1_555
H9 C22 1_555 1_555
C23 C19 1_555 1_555
C24 C17 1_555 1_555
C25 H10 1_555 1_555
C26 C25 1_555 1_555
H11 C26 1_555 1_555
C27 C26 1_555 1_555
H12 C27 1_555 1_555
C28 C27 1_555 1_555
H13 C28 1_555 1_555
C29 C28 1_555 1_555
C30 C29 1_555 1_555
C31 C30 1_555 1_555
H14 C31 1_555 1_555
C32 C31 1_555 1_555
H15 C32 1_555 1_555
C33 C32 1_555 1_555
H16 C33 1_555 1_555
C34 C33 1_555 1_555
H17 C34 1_555 1_555
C35 H18 1_555 1_555
C36 C35 1_555 1_555
H19 C36 1_555 1_555
C37 C36 1_555 1_555
H20 C37 1_555 1_555
C38 C37 1_555 1_555
H21 C38 1_555 1_555
C39 C38 1_555 1_555
C40 C39 1_555 1_555
C41 C40 1_555 1_555
H22 C41 1_555 1_555
C42 C41 1_555 1_555
H23 C42 1_555 1_555
C43 C42 1_555 1_555
H24 C43 1_555 1_555
C44 C43 1_555 1_555
H25 C44 1_555 1_555
Dy1 N3 1_555 1_555
Dy2 N1 1_555 1_555
N1 C25 1_555 1_555
N2 C30 1_555 1_555
N3 C40 1_555 1_555
N4 C35 1_555 1_555
O1 C7 1_555 1_555
O2 C7 1_555 1_555
O3 C8 1_555 1_555
O4 C8 1_555 1_555
O5 C5 1_555 1_555
H26 O5 1_555 1_555
O6 C15 1_555 1_555
O7 C15 1_555 1_555
O8 C16 1_555 1_555
O9 C16 1_555 1_555
O10 C11 1_555 1_555
H27 O10 1_555 1_555
O11 C24 1_555 1_555
O12 C24 1_555 1_555
O13 C23 1_555 1_555
O14 C23 1_555 1_555
O15 C21 1_555 1_555
H28 O15 1_555 1_555
O16 Dy2 1_555 1_555
H29 O16 1_555 1_555
H30 O16 1_555 1_555
O17 Dy2 1_555 1_555
H31 O17 1_555 1_555
H32 O17 1_555 1_555
O18 H33 1_555 1_555
H34 O18 1_555 1_555
O19 H35 1_555 1_555
H36 O19 1_555 1_555
Dy1A O3 1_555 1_555
Dy2_2 O9 1_555 1_555
Dy2A O11 1_555 1_555
O3A Dy1 1_555 1_555
O9_2 Dy2 1_555 1_555
O11A Dy2 1_555 1_555
O12A Dy2 1_555 1_555
O14A Dy1 1_555 1_555
C5 C6 1_555 1_555
C13 C14 1_555 1_555
C21 C22 1_555 1_555
C29 N1 1_555 1_555
C34 N2 1_555 1_555
C39 N4 1_555 1_555
C44 N3 1_555 1_555
Dy1 N4 1_555 1_555
Dy1 O3 1_555 1_555
Dy1 O4 1_555 1_555
Dy1 O6 1_555 1_555
Dy1 O7 1_555 1_555
Dy1 O13 1_555 1_555
Dy2 N2 1_555 1_555
Dy2 O1 1_555 1_555
Dy2 O2 1_555 1_555
O12 Dy2A 1_555 1_555
O14 Dy1A 1_555 1_555
Dy1A O3A 1_555 1_555

#END
