
#######################################################################
#
#                 Cambridge Crystallographic Data Centre
#                                CCDC 
#
#######################################################################
#
# If this CIF has been generated from an entry in the Cambridge 
# Structural Database, then it will include bibliographic, chemical, 
# crystal, experimental, refinement or atomic coordinate data resulting 
# from the CCDC's data processing and validation procedures.
#
#######################################################################

data_AZOLEH
_symmetry_cell_setting           orthorhombic
_symmetry_space_group_name_H-M   'P c a 21'
_symmetry_Int_Tables_number      29
_space_group_name_Hall           'P 2c -2ac'
loop_
_symmetry_equiv_pos_site_id
_symmetry_equiv_pos_as_xyz
1 x,y,z
2 -x,-y,1/2+z
3 1/2-x,y,1/2+z
4 1/2+x,-y,z
_cell_length_a                   17.8088(12)
_cell_length_b                   9.4003(4)
_cell_length_c                   15.5798(8)
_cell_angle_alpha                90
_cell_angle_beta                 90
_cell_angle_gamma                90
_cell_volume                     2608.18
loop_
_atom_site_label
_atom_site_type_symbol
_atom_site_fract_x
_atom_site_fract_y
_atom_site_fract_z
Zn1 Zn 0.73885(3) 0.97189(5) 0.87767(6)
O1 O 0.6630(2) 0.8258(4) 0.8567(3)
O2 O 0.7521(2) 0.6656(5) 0.8691(6)
O3 O 0.5991(3) 0.1007(5) 0.9535(4)
O4 O 0.6934(2) 0.1619(3) 0.8694(3)
C1 C 0.6499(2) 0.4454(4) 0.8818(5)
H1 H 0.7012 0.4269 0.8817
N1 N 0.8088(3) 0.9860(6) 0.7781(4)
N2 N 0.8753(3) 0.9276(6) 0.6618(4)
N3 N 1.2098(4) 1.0326(6) 0.4941(4)
N4 N 1.1556(4) 0.9499(7) 0.6067(3)
C2 C 0.6262(3) 0.5836(5) 0.8704(4)
C3 C 0.5488(2) 0.6115(5) 0.8722(4)
N5 N 0.5019(2) 0.4987(4) 0.8838(6)
C4 C 0.5237(3) 0.3608(6) 0.8968(3)
C5 C 0.5999(3) 0.3304(5) 0.8935(3)
C6 C 0.6854(3) 0.6980(5) 0.8651(4)
C7 C 0.6308(3) 0.1830(5) 0.9067(3)
C8 C 0.5117(3) 0.7510(6) 0.8585(5)
H2 H 0.5160 0.7777 0.7992
H3 H 0.5354 0.8218 0.8937
H4 H 0.4596 0.7439 0.8738
C9 C 0.4619(4) 0.2569(7) 0.9113(5)
H5 H 0.4456 0.2623 0.9700
H6 H 0.4796 0.1625 0.8993
H7 H 0.4206 0.2789 0.8740
C10 C 0.8374(4) 0.8823(7) 0.7308(4)
H8 H 0.8318 0.7865 0.7444
C11 C 0.8304(5) 1.1069(9) 0.7376(5)
H9 H 0.8187 1.1980 0.7567
C12 C 0.8718(5) 1.0785(10) 0.6648(6)
H10 H 0.8927 1.1432 0.6264
C13 C 0.9116(4) 0.8468(8) 0.5972(4)
H11 H 0.8888 0.8685 0.5422
H12 H 0.9035 0.7465 0.6086
C14 C 0.9961(4) 0.8745(8) 0.5913(4)
H13 H 1.0183 0.8045 0.5532
H14 H 1.0041 0.9675 0.5659
C15 C 1.0364(4) 0.8687(9) 0.6769(4)
H15 H 1.0157 0.7917 0.7109
H16 H 1.0277 0.9569 0.7076
C16 C 1.1211(4) 0.8462(11) 0.6664(5)
H17 H 1.1451 0.8545 0.7221
H18 H 1.1301 0.7507 0.6452
C17 C 1.1862(5) 0.9177(9) 0.5306(5)
H19 H 1.1900 0.8266 0.5077
C18 C 1.1924(4) 1.1407(8) 0.5463(4)
H20 H 1.2017 1.2365 0.5358
C19 C 1.1601(4) 1.0882(12) 0.6143(5)
H21 H 1.1429 1.1408 0.6609
Zn1_2 Zn 0.73885(3) -0.02811(5) 0.87767(6)
Zn1A Zn 1.26115(3) 1.02811(5) 0.37767(6)
O4_2 O 0.6934(2) 1.1619(3) 0.8694(3)
N3A N 0.7902(4) 0.9674(6) 0.9941(4)
O5 O 0.3529(5) 0.5563(7) 0.9086(4)
H22 H 0.320(2) 0.488(4) 0.910(3)
H23 H 0.3963(11) 0.515(6) 0.916(4)
O6 O 0.7170(19) 0.455(3) 1.0985(19)
O7 O 0.9930(11) 0.4765(19) 1.0714(12)
O8? O 0.9724(18) 0.538(3) 1.1357(19)
O9? O 0.670(3) 0.304(5) 1.064(3)
loop_
_geom_bond_atom_site_label_1
_geom_bond_atom_site_label_2
_geom_bond_site_symmetry_1
_geom_bond_site_symmetry_2
Zn1 O1 1_555 1_555
O1 C6 1_555 1_555
O2 C6 1_555 1_555
O3 C7 1_555 1_555
O4 C7 1_555 1_555
C1 H1 1_555 1_555
N1 Zn1 1_555 1_555
N2 C10 1_555 1_555
N3 C17 1_555 1_555
N4 C16 1_555 1_555
C2 C1 1_555 1_555
C3 C2 1_555 1_555
N5 C3 1_555 1_555
C4 N5 1_555 1_555
C5 C1 1_555 1_555
C6 C2 1_555 1_555
C7 C5 1_555 1_555
C8 C3 1_555 1_555
H2 C8 1_555 1_555
H3 C8 1_555 1_555
H4 C8 1_555 1_555
C9 C4 1_555 1_555
H5 C9 1_555 1_555
H6 C9 1_555 1_555
H7 C9 1_555 1_555
C10 N1 1_555 1_555
H8 C10 1_555 1_555
C11 N1 1_555 1_555
H9 C11 1_555 1_555
C12 N2 1_555 1_555
H10 C12 1_555 1_555
C13 N2 1_555 1_555
H11 C13 1_555 1_555
H12 C13 1_555 1_555
C14 C13 1_555 1_555
H13 C14 1_555 1_555
H14 C14 1_555 1_555
C15 C14 1_555 1_555
H15 C15 1_555 1_555
H16 C15 1_555 1_555
C16 C15 1_555 1_555
H17 C16 1_555 1_555
H18 C16 1_555 1_555
C17 N4 1_555 1_555
H19 C17 1_555 1_555
C18 N3 1_555 1_555
H20 C18 1_555 1_555
C19 N4 1_555 1_555
H21 C19 1_555 1_555
O5 H22 1_555 1_555
H23 O5 1_555 1_555
Zn1_2 O4 1_555 1_555
Zn1A N3 1_555 1_555
O4_2 Zn1 1_555 1_555
N3A Zn1 1_555 1_555
C4 C5 1_555 1_555
C11 C12 1_555 1_555
C18 C19 1_555 1_555

#END
