
#######################################################################
#
#                 Cambridge Crystallographic Data Centre
#                                CCDC 
#
#######################################################################
#
# If this CIF has been generated from an entry in the Cambridge 
# Structural Database, then it will include bibliographic, chemical, 
# crystal, experimental, refinement or atomic coordinate data resulting 
# from the CCDC's data processing and validation procedures.
#
#######################################################################

data_AZOSAJ
_symmetry_cell_setting           monoclinic
_symmetry_space_group_name_H-M   'P 21/c'
_symmetry_Int_Tables_number      14
_space_group_name_Hall           '-P 2ybc'
loop_
_symmetry_equiv_pos_site_id
_symmetry_equiv_pos_as_xyz
1 x,y,z
2 x,1/2-y,1/2+z
3 -x,-y,-z
4 -x,1/2+y,1/2-z
_cell_length_a                   16.417(7)
_cell_length_b                   7.848(3)
_cell_length_c                   13.612(6)
_cell_angle_alpha                90
_cell_angle_beta                 111.173(5)
_cell_angle_gamma                90
_cell_volume                     1635.39
loop_
_atom_site_label
_atom_site_type_symbol
_atom_site_fract_x
_atom_site_fract_y
_atom_site_fract_z
Mo1 Mo -0.00040(7) 0.53772(14) 0.75791(8)
S1 S 0.1560(2) 0.5963(5) 0.8325(2)
S2 S 0.2834(2) 0.7076(6) 0.7410(3)
O1 O -0.0005(5) 0.5272(9) 0.8796(5)
O2 O 0.0024(6) 0.3303(12) 0.7184(7)
O3 O -0.1217(7) 0.5975(12) 0.6757(7)
N1 N 0.0292(7) 0.6518(15) 0.6220(8)
N2 N 0.1147(7) 0.6873(15) 0.6246(8)
C1 C -0.1227(8) 0.6878(18) 0.5050(10)
C2 C -0.1646(7) 0.6441(16) 0.5735(9)
C3 C -0.2571(9) 0.654(2) 0.5424(13)
H1 H -0.2846 0.6224 0.5903
C4 C -0.3045(10) 0.706(2) 0.4461(15)
H2 H -0.3655 0.7232 0.4279
C5 C -0.2666(10) 0.738(2) 0.3701(12)
H3 H -0.3027 0.7608 0.2992
C6 C -0.1765(10) 0.736(2) 0.3989(12)
H4 H -0.1505 0.7651 0.3493
C7 C -0.0298(9) 0.6918(17) 0.5298(10)
H5 H -0.0094 0.7257 0.4757
C8 C 0.1720(8) 0.6626(18) 0.7197(10)
C9 C 0.2777(8) 0.778(2) 0.6113(10)
H6 H 0.2476 0.6915 0.5578
H7 H 0.2441 0.8860 0.5925
C10 C 0.3698(9) 0.806(2) 0.6133(11)
C11 C 0.4305(10) 0.911(3) 0.6907(13)
H8 H 0.4138 0.9638 0.7434
C12 C 0.5138(11) 0.937(3) 0.6900(15)
H9 H 0.5529 1.0113 0.7405
C13 C 0.5407(10) 0.856(3) 0.6153(14)
H10 H 0.5987 0.8701 0.6173
C14 C 0.4816(12) 0.754(3) 0.5381(16)
H11 H 0.4977 0.7037 0.4843
C15 C 0.3985(11) 0.729(3) 0.5411(13)
H12 H 0.3598 0.6537 0.4909
O2C O -0.0024(6) 0.8303(12) 0.7816(7)
Mo1C Mo 0.00040(7) 0.03772(14) 0.74209(8)
loop_
_geom_bond_atom_site_label_1
_geom_bond_atom_site_label_2
_geom_bond_site_symmetry_1
_geom_bond_site_symmetry_2
Mo1 S1 1_555 1_555
S1 C8 1_555 1_555
S2 C8 1_555 1_555
O1 Mo1 1_555 1_555
O2 Mo1 1_555 1_555
O3 Mo1 1_555 1_555
N1 Mo1 1_555 1_555
N2 N1 1_555 1_555
C1 C2 1_555 1_555
C2 O3 1_555 1_555
C3 C2 1_555 1_555
H1 C3 1_555 1_555
C4 C3 1_555 1_555
H2 C4 1_555 1_555
C5 C4 1_555 1_555
H3 C5 1_555 1_555
C6 C1 1_555 1_555
H4 C6 1_555 1_555
C7 N1 1_555 1_555
H5 C7 1_555 1_555
C8 N2 1_555 1_555
C9 S2 1_555 1_555
H6 C9 1_555 1_555
H7 C9 1_555 1_555
C10 C9 1_555 1_555
C11 C10 1_555 1_555
H8 C11 1_555 1_555
C12 C11 1_555 1_555
H9 C12 1_555 1_555
C13 C12 1_555 1_555
H10 C13 1_555 1_555
C14 C13 1_555 1_555
H11 C14 1_555 1_555
C15 C10 1_555 1_555
H12 C15 1_555 1_555
O2C Mo1 1_555 1_555
Mo1C O2 1_555 1_555
C1 C7 1_555 1_555
C5 C6 1_555 1_555
C14 C15 1_555 1_555

#END
