
#######################################################################
#
#                 Cambridge Crystallographic Data Centre
#                                CCDC 
#
#######################################################################
#
# If this CIF has been generated from an entry in the Cambridge 
# Structural Database, then it will include bibliographic, chemical, 
# crystal, experimental, refinement or atomic coordinate data resulting 
# from the CCDC's data processing and validation procedures.
#
#######################################################################

data_AZPYCD
_symmetry_cell_setting           tetragonal
_symmetry_space_group_name_H-M   'I 41/a'
_symmetry_Int_Tables_number      88
_space_group_name_Hall           '-I 4ad'
loop_
_symmetry_equiv_pos_site_id
_symmetry_equiv_pos_as_xyz
1 x,y,z
2 1/2+x,1/2+y,1/2+z
3 3/4-y,1/4+x,1/4+z
4 1/4-y,3/4+x,3/4+z
5 1/2-x,-y,1/2+z
6 -x,1/2-y,z
7 3/4+y,3/4-x,3/4+z
8 1/4+y,1/4-x,1/4+z
9 -x,-y,-z
10 1/2-x,1/2-y,1/2-z
11 1/4+y,3/4-x,3/4-z
12 3/4+y,1/4-x,1/4-z
13 1/2+x,y,1/2-z
14 x,1/2+y,-z
15 1/4-y,1/4+x,1/4-z
16 3/4-y,3/4+x,3/4-z
_cell_length_a                   15.795(1)
_cell_length_b                   15.795(1)
_cell_length_c                   10.148(2)
_cell_angle_alpha                90
_cell_angle_beta                 90
_cell_angle_gamma                90
_cell_volume                     2531.74
loop_
_atom_site_label
_atom_site_type_symbol
_atom_site_fract_x
_atom_site_fract_y
_atom_site_fract_z
Cd1 Cd 0.00000 0.00000 0.00000
C1 C -0.12720 -0.04120 0.24230
C2 C -0.17330 -0.08650 0.33300
C3 C -0.17090 -0.17620 0.32930
C4 C -0.12140 -0.21540 0.23500
C5 C -0.07780 -0.16310 0.14840
N1 N 0.04150 0.09260 0.16750
N2 N 0.10290 0.11210 0.22360
N3 N 0.11890 -0.08750 0.03000
N4 N -0.08030 -0.07770 0.15270
N1H N -0.04150 -0.09260 -0.16750
N3H N -0.11890 0.08750 -0.03000
N4H N 0.08030 0.07770 -0.15270
N3G N 0.16250 0.13110 0.28000
N2C N 0.13790 -0.14710 -0.02640
C1H C 0.12720 0.04120 -0.24230
C5H C 0.07780 0.16310 -0.14840
Cd1G Cd 0.25000 0.25000 0.25000
N1C N 0.15740 -0.20850 -0.08250
C2H C 0.17330 0.08650 -0.33300
C4H C 0.12140 0.21540 -0.23500
Cd1C Cd 0.25000 -0.25000 -0.25000
C3H C 0.17090 0.17620 -0.32930
loop_
_geom_bond_atom_site_label_1
_geom_bond_atom_site_label_2
_geom_bond_site_symmetry_1
_geom_bond_site_symmetry_2
Cd1 N1 1_555 1_555
C1 C2 1_555 1_555
C2 C3 1_555 1_555
C3 C4 1_555 1_555
C4 C5 1_555 1_555
C5 N4 1_555 1_555
N1 N2 1_555 1_555
N2 N3G 1_555 1_555
N3 Cd1 1_555 1_555
N4 Cd1 1_555 1_555
N1H Cd1 1_555 1_555
N3H Cd1 1_555 1_555
N4H Cd1 1_555 1_555
N3G Cd1G 1_555 1_555
N2C N3 1_555 1_555
C1H N4H 1_555 1_555
C5H N4H 1_555 1_555
N1C N2C 1_555 1_555
C2H C1H 1_555 1_555
C4H C5H 1_555 1_555
Cd1C N1C 1_555 1_555
C3H C2H 1_555 1_555
C1 N4 1_555 1_555
C4H C3H 1_555 1_555

#END
