
#######################################################################
#
#                 Cambridge Crystallographic Data Centre
#                                CCDC 
#
#######################################################################
#
# If this CIF has been generated from an entry in the Cambridge 
# Structural Database, then it will include bibliographic, chemical, 
# crystal, experimental, refinement or atomic coordinate data resulting 
# from the CCDC's data processing and validation procedures.
#
#######################################################################

data_AZUBEC
_symmetry_cell_setting           orthorhombic
_symmetry_space_group_name_H-M   'P b c a'
_symmetry_Int_Tables_number      61
_space_group_name_Hall           '-P 2ac 2ab'
loop_
_symmetry_equiv_pos_site_id
_symmetry_equiv_pos_as_xyz
1 x,y,z
2 1/2+x,y,1/2-z
3 x,1/2-y,1/2+z
4 1/2-x,1/2+y,z
5 -x,-y,-z
6 1/2-x,-y,1/2+z
7 -x,1/2+y,1/2-z
8 1/2+x,1/2-y,-z
_cell_length_a                   11.987(6)
_cell_length_b                   18.759(9)
_cell_length_c                   18.976(10)
_cell_angle_alpha                90
_cell_angle_beta                 90
_cell_angle_gamma                90
_cell_volume                     4267.02
loop_
_atom_site_label
_atom_site_type_symbol
_atom_site_fract_x
_atom_site_fract_y
_atom_site_fract_z
Sn1 Sn 0.32226(3) 0.091050(19) 0.72451(2)
N1 N 0.2568(3) 0.2173(2) 0.7695(3)
N2 N 0.1517(4) 0.3298(3) 0.8398(3)
N3 N 0.2390(4) -0.0174(2) 0.6834(3)
N4 N 0.1729(5) -0.1485(3) 0.6280(3)
O1 O 0.1360(3) 0.10910(19) 0.7202(2)
O2 O -0.0222(3) 0.16134(19) 0.7543(2)
O3 O 0.4521(3) 0.0110(2) 0.7100(2)
O4 O 0.5022(4) -0.0997(2) 0.6822(3)
C1 C 0.0820(5) 0.1577(3) 0.7493(3)
C2 C 0.1456(4) 0.2190(3) 0.7797(3)
C3 C 0.0958(5) 0.2736(3) 0.8159(4)
H1 H 0.0194 0.2712 0.8241
C4 C 0.2611(5) 0.3291(3) 0.8279(4)
H2 H 0.3038 0.3675 0.8432
C5 C 0.3137(5) 0.2734(3) 0.7937(3)
H3 H 0.3906 0.2749 0.7875
C6 C 0.4323(5) -0.0526(4) 0.6885(4)
C7 C 0.3135(5) -0.0690(3) 0.6711(3)
C8 C 0.2790(6) -0.1338(3) 0.6435(4)
H4 H 0.3325 -0.1687 0.6354
C9 C 0.1015(5) -0.0970(3) 0.6409(3)
H5 H 0.0265 -0.1050 0.6312
C10 C 0.1320(5) -0.0318(3) 0.6682(3)
H6 H 0.0777 0.0027 0.6762
C11 C 0.3410(6) 0.1324(3) 0.6214(4)
C12 C 0.4429(7) 0.1250(4) 0.5877(4)
H7 H 0.4994 0.0994 0.6098
C13 C 0.4628(10) 0.1546(6) 0.5228(6)
H8 H 0.5313 0.1481 0.5006
C14 C 0.3819(14) 0.1932(6) 0.4915(6)
H9 H 0.3965 0.2155 0.4488
C15 C 0.2795(12) 0.2000(5) 0.5215(6)
H10 H 0.2235 0.2247 0.4980
C16 C 0.2585(8) 0.1701(4) 0.5867(5)
H11 H 0.1886 0.1754 0.6073
C17 C 0.3086(5) 0.0659(3) 0.8323(3)
C18 C 0.2201(5) 0.0238(3) 0.8565(4)
H12 H 0.1654 0.0095 0.8247
C19 C 0.2119(7) 0.0028(4) 0.9259(5)
H13 H 0.1520 -0.0250 0.9406
C20 C 0.2915(8) 0.0230(5) 0.9727(5)
H14 H 0.2866 0.0086 1.0196
C21 C 0.3785(8) 0.0641(6) 0.9513(5)
H15 H 0.4325 0.0783 0.9835
C22 C 0.3868(6) 0.0848(4) 0.8819(4)
H16 H 0.4473 0.1124 0.8680
O2A O 0.4778(3) 0.16134(19) 0.7457(2)
Sn1A Sn -0.17774(3) 0.091050(19) 0.77549(2)
loop_
_geom_bond_atom_site_label_1
_geom_bond_atom_site_label_2
_geom_bond_site_symmetry_1
_geom_bond_site_symmetry_2
Sn1 N1 1_555 1_555
N1 C2 1_555 1_555
N2 C3 1_555 1_555
N3 Sn1 1_555 1_555
N4 C8 1_555 1_555
O1 Sn1 1_555 1_555
O2 C1 1_555 1_555
O3 Sn1 1_555 1_555
O4 C6 1_555 1_555
C1 O1 1_555 1_555
C2 C1 1_555 1_555
C3 C2 1_555 1_555
H1 C3 1_555 1_555
C4 N2 1_555 1_555
H2 C4 1_555 1_555
C5 N1 1_555 1_555
H3 C5 1_555 1_555
C6 O3 1_555 1_555
C7 N3 1_555 1_555
C8 C7 1_555 1_555
H4 C8 1_555 1_555
C9 N4 1_555 1_555
H5 C9 1_555 1_555
C10 N3 1_555 1_555
H6 C10 1_555 1_555
C11 Sn1 1_555 1_555
C12 C11 1_555 1_555
H7 C12 1_555 1_555
C13 C12 1_555 1_555
H8 C13 1_555 1_555
C14 C13 1_555 1_555
H9 C14 1_555 1_555
C15 C14 1_555 1_555
H10 C15 1_555 1_555
C16 C11 1_555 1_555
H11 C16 1_555 1_555
C17 Sn1 1_555 1_555
C18 C17 1_555 1_555
H12 C18 1_555 1_555
C19 C18 1_555 1_555
H13 C19 1_555 1_555
C20 C19 1_555 1_555
H14 C20 1_555 1_555
C21 C20 1_555 1_555
H15 C21 1_555 1_555
C22 C17 1_555 1_555
H16 C22 1_555 1_555
O2A Sn1 1_555 1_555
Sn1A O2 1_555 1_555
C4 C5 1_555 1_555
C6 C7 1_555 1_555
C9 C10 1_555 1_555
C15 C16 1_555 1_555
C21 C22 1_555 1_555

#END
