
#######################################################################
#
#                 Cambridge Crystallographic Data Centre
#                                CCDC 
#
#######################################################################
#
# If this CIF has been generated from an entry in the Cambridge 
# Structural Database, then it will include bibliographic, chemical, 
# crystal, experimental, refinement or atomic coordinate data resulting 
# from the CCDC's data processing and validation procedures.
#
#######################################################################

data_AZUCED
_symmetry_cell_setting           triclinic
_symmetry_space_group_name_H-M   'P -1'
_symmetry_Int_Tables_number      2
_space_group_name_Hall           '-P 1'
loop_
_symmetry_equiv_pos_site_id
_symmetry_equiv_pos_as_xyz
1 x,y,z
2 -x,-y,-z
_cell_length_a                   8.9619(2)
_cell_length_b                   12.0924(3)
_cell_length_c                   13.6786(4)
_cell_angle_alpha                82.3830(10)
_cell_angle_beta                 86.7680(12)
_cell_angle_gamma                78.8418(8)
_cell_volume                     1440.79
loop_
_atom_site_label
_atom_site_type_symbol
_atom_site_fract_x
_atom_site_fract_y
_atom_site_fract_z
Mn1 Mn 0.0000 -0.5000 0.5000
Mn2 Mn 0.36450(5) -0.52406(4) 0.59594(3)
Mn3 Mn -0.27373(5) -0.40681(4) 0.64454(3)
S1 S 0.39748(9) -0.90823(6) 0.67795(6)
S2 S 0.22639(10) -0.45117(8) 0.87289(6)
S3 S 0.44768(9) -1.07433(6) 0.65286(6)
S4 S 0.25963(10) -0.47832(7) 1.02160(6)
O1 O 0.0399(3) -0.62943(19) 0.62457(16)
O2 O 0.2873(2) -0.67255(17) 0.65641(16)
O3 O 0.1898(2) -0.40988(17) 0.67151(14)
O4 O -0.0459(2) -0.37930(17) 0.61395(14)
O5 O 0.5616(3) -1.27357(17) 0.59548(16)
O6 O 0.4564(2) -1.37504(16) 0.50368(14)
O7 O 0.4623(2) -0.45914(18) 1.30037(15)
O8 O 0.2953(3) -0.51333(19) 1.21424(15)
O9 O 0.2305(2) -0.49278(19) 0.46794(15)
H1 H 0.238(5) -0.437(3) 0.450(3)
C1 C 0.1221(3) -0.7878(2) 0.7406(2)
C2 C 0.2208(4) -0.8935(2) 0.7478(2)
C3 C 0.1793(4) -0.9840(3) 0.8103(2)
H2 H 0.246(4) -1.052(3) 0.815(2)
C4 C 0.0472(4) -0.9699(3) 0.8664(2)
H3 H 0.020(5) -1.031(3) 0.910(3)
C5 C -0.0498(4) -0.8644(3) 0.8621(2)
H4 H -0.146(5) -0.853(3) 0.900(3)
C6 C -0.0111(4) -0.7749(3) 0.7977(2)
H5 H -0.088(4) -0.701(3) 0.791(3)
C7 C 0.1522(3) -0.6890(2) 0.6683(2)
C8 C -0.0141(3) -0.3184(2) 0.7680(2)
C9 C 0.0533(4) -0.3475(3) 0.8597(2)
C10 C -0.0170(4) -0.2954(3) 0.9402(2)
H6 H 0.024(5) -0.317(3) 0.998(3)
C11 C -0.1488(4) -0.2155(3) 0.9299(3)
H7 H -0.195(5) -0.181(3) 0.986(3)
C12 C -0.2154(4) -0.1849(3) 0.8386(3)
H8 H -0.301(5) -0.127(3) 0.825(3)
C13 C -0.1489(4) -0.2370(3) 0.7590(2)
H9 H -0.195(4) -0.220(3) 0.697(3)
C14 C 0.0499(3) -0.3732(2) 0.6787(2)
C15 C 0.3519(3) -1.1772(2) 0.5026(2)
C16 C 0.3350(3) -1.0777(2) 0.5490(2)
C17 C 0.2285(4) -0.9835(3) 0.5129(3)
H10 H 0.212(4) -0.915(3) 0.543(3)
C18 C 0.1434(4) -0.9858(3) 0.4324(3)
H11 H 0.067(4) -0.919(3) 0.410(3)
C19 C 0.1614(4) -1.0819(3) 0.3852(3)
H12 H 0.098(5) -1.084(3) 0.329(3)
C20 C 0.2648(4) -1.1771(3) 0.4214(2)
H13 H 0.280(4) -1.241(3) 0.387(2)
C21 C 0.4636(3) -1.2817(2) 0.5357(2)
C22 C 0.4127(3) -0.3649(3) 1.1360(2)
C23 C 0.3540(4) -0.3658(3) 1.0428(2)
C24 C 0.3713(4) -0.2770(3) 0.9685(2)
H14 H 0.337(4) -0.281(3) 0.905(3)
C25 C 0.4411(4) -0.1898(3) 0.9873(3)
H15 H 0.455(4) -0.132(3) 0.935(3)
C26 C 0.4987(4) -0.1891(3) 1.0785(3)
H16 H 0.551(5) -0.127(3) 1.091(3)
C27 C 0.4843(4) -0.2767(3) 1.1520(3)
H17 H 0.523(4) -0.274(3) 1.210(3)
C28 C 0.3921(4) -0.4511(3) 1.2211(2)
S1A S -0.39748(9) -0.09177(6) 0.32205(6)
S3A S -0.44768(9) 0.07433(6) 0.34714(6)
O1A O -0.0399(3) -0.37057(19) 0.37543(16)
O2A O -0.2873(2) -0.32745(17) 0.34359(16)
O5A O -0.5616(3) 0.27357(17) 0.40452(16)
O6A O -0.4564(2) 0.37504(16) 0.49632(14)
C1A C -0.1221(3) -0.2122(2) 0.2594(2)
C2A C -0.2208(4) -0.1065(2) 0.2522(2)
C3A C -0.1793(4) -0.0160(3) 0.1897(2)
H2A H -0.246(4) 0.052(3) 0.185(2)
C4A C -0.0472(4) -0.0301(3) 0.1336(2)
H3A H -0.020(5) 0.031(3) 0.090(3)
C5A C 0.0498(4) -0.1356(3) 0.1379(2)
H4A H 0.146(5) -0.147(3) 0.100(3)
C6A C 0.0111(4) -0.2251(3) 0.2023(2)
H5A H 0.088(4) -0.299(3) 0.209(3)
C7A C -0.1522(3) -0.3110(2) 0.3317(2)
C15A C -0.3519(3) 0.1772(2) 0.4974(2)
C16A C -0.3350(3) 0.0777(2) 0.4510(2)
C17A C -0.2285(4) -0.0165(3) 0.4871(3)
H10A H -0.212(4) -0.085(3) 0.457(3)
C18A C -0.1434(4) -0.0142(3) 0.5676(3)
H11A H -0.067(4) -0.081(3) 0.590(3)
C19A C -0.1614(4) 0.0819(3) 0.6148(3)
H12A H -0.098(5) 0.084(3) 0.671(3)
C20A C -0.2648(4) 0.1771(3) 0.5786(2)
H13A H -0.280(4) 0.241(3) 0.613(2)
C21A C -0.4636(3) 0.2817(2) 0.4643(2)
S2A S -0.22639(10) -0.54883(8) 0.12711(6)
S4A S -0.25963(10) -0.52168(7) -0.02160(6)
O3A O -0.1898(2) -0.59012(17) 0.32849(14)
O4A O 0.0459(2) -0.62070(17) 0.38605(14)
O7A O -0.4623(2) -0.54086(18) -0.30037(15)
O8A O -0.2953(3) -0.48667(19) -0.21424(15)
C8A C 0.0141(3) -0.6816(2) 0.2320(2)
C9A C -0.0533(4) -0.6525(3) 0.1403(2)
C10A C 0.0170(4) -0.7046(3) 0.0598(2)
H6A H -0.024(5) -0.683(3) 0.002(3)
C11A C 0.1488(4) -0.7845(3) 0.0701(3)
H7A H 0.195(5) -0.819(3) 0.014(3)
C12A C 0.2154(4) -0.8151(3) 0.1614(3)
H8A H 0.301(5) -0.873(3) 0.175(3)
C13A C 0.1489(4) -0.7630(3) 0.2410(2)
H9A H 0.195(4) -0.780(3) 0.303(3)
C14A C -0.0499(3) -0.6268(2) 0.3213(2)
C22A C -0.4127(3) -0.6351(3) -0.1360(2)
C23A C -0.3540(4) -0.6342(3) -0.0428(2)
C24A C -0.3713(4) -0.7230(3) 0.0315(2)
H14A H -0.337(4) -0.719(3) 0.095(3)
C25A C -0.4411(4) -0.8102(3) 0.0127(3)
H15A H -0.455(4) -0.868(3) 0.065(3)
C26A C -0.4987(4) -0.8109(3) -0.0785(3)
H16A H -0.551(5) -0.873(3) -0.091(3)
C27A C -0.4843(4) -0.7233(3) -0.1520(3)
H17A H -0.523(4) -0.726(3) -0.210(3)
C28A C -0.3921(4) -0.5489(3) -0.2211(2)
O9A O -0.2305(2) -0.50722(19) 0.53206(15)
H1A H -0.238(5) -0.563(3) 0.550(3)
Mn2A Mn -0.36450(5) -0.47594(4) 0.40406(3)
Mn3A Mn 0.27373(5) -0.59319(4) 0.35546(3)
O6_2 O 0.4564(2) -0.37504(16) 0.50368(14)
O6A_2 O 0.5436(2) -0.62496(16) 0.49632(14)
O7A_2 O 0.5377(2) -0.54086(18) 0.69963(15)
O5_2 O -0.4384(3) -0.27357(17) 0.59548(16)
O8A_2 O -0.2953(3) -0.48667(19) 0.78576(15)
Mn3_2 Mn 0.72627(5) -1.40681(4) 0.64454(3)
Mn2_2 Mn 0.36450(5) -1.52406(4) 0.59594(3)
Mn2A_2 Mn 0.63550(5) -1.47594(4) 0.40406(3)
Mn2A_3 Mn 0.63550(5) -0.47594(4) 1.40406(3)
Mn3A_2 Mn 0.27373(5) -0.59319(4) 1.35546(3)
Mn3A_3 Mn -0.72627(5) 0.40681(4) 0.35546(3)
Mn2_3 Mn -0.63550(5) 0.47594(4) 0.59594(3)
Mn2A_4 Mn -0.36450(5) 0.52406(4) 0.40406(3)
Mn2_4 Mn -0.63550(5) -0.52406(4) -0.40406(3)
Mn3_3 Mn -0.27373(5) -0.40681(4) -0.35546(3)
O6_3 O -0.5436(2) -0.37504(16) 0.50368(14)
O6A_3 O -0.4564(2) -0.62496(16) 0.49632(14)
O7_2 O -0.5377(2) -0.45914(18) 0.30037(15)
O5A_2 O 0.4384(3) -0.72643(17) 0.40452(16)
O8_2 O 0.2953(3) -0.51333(19) 0.21424(15)
loop_
_geom_bond_atom_site_label_1
_geom_bond_atom_site_label_2
_geom_bond_site_symmetry_1
_geom_bond_site_symmetry_2
Mn1 O1 1_555 1_555
Mn2 O2 1_555 1_555
Mn3 O4 1_555 1_555
S1 S3 1_555 1_555
S2 S4 1_555 1_555
S3 C16 1_555 1_555
S4 C23 1_555 1_555
O1 C7 1_555 1_555
O2 C7 1_555 1_555
O3 Mn2 1_555 1_555
O4 Mn1 1_555 1_555
O5 C21 1_555 1_555
O6 C21 1_555 1_555
O7 C28 1_555 1_555
O8 C28 1_555 1_555
O9 Mn1 1_555 1_555
H1 O9 1_555 1_555
C1 C2 1_555 1_555
C2 S1 1_555 1_555
C3 C2 1_555 1_555
H2 C3 1_555 1_555
C4 C3 1_555 1_555
H3 C4 1_555 1_555
C5 C4 1_555 1_555
H4 C5 1_555 1_555
C6 C1 1_555 1_555
H5 C6 1_555 1_555
C7 C1 1_555 1_555
C8 C9 1_555 1_555
C9 S2 1_555 1_555
C10 C9 1_555 1_555
H6 C10 1_555 1_555
C11 C10 1_555 1_555
H7 C11 1_555 1_555
C12 C11 1_555 1_555
H8 C12 1_555 1_555
C13 C8 1_555 1_555
H9 C13 1_555 1_555
C14 O3 1_555 1_555
C15 C16 1_555 1_555
C16 C17 1_555 1_555
C17 H10 1_555 1_555
C18 C17 1_555 1_555
H11 C18 1_555 1_555
C19 C18 1_555 1_555
H12 C19 1_555 1_555
C20 C15 1_555 1_555
H13 C20 1_555 1_555
C21 C15 1_555 1_555
C22 C23 1_555 1_555
C23 C24 1_555 1_555
C24 H14 1_555 1_555
C25 C24 1_555 1_555
H15 C25 1_555 1_555
C26 C25 1_555 1_555
H16 C26 1_555 1_555
C27 C22 1_555 1_555
H17 C27 1_555 1_555
C28 C22 1_555 1_555
S1A S3A 1_555 1_555
S3A C16A 1_555 1_555
O1A Mn1 1_555 1_555
O2A C7A 1_555 1_555
O5A C21A 1_555 1_555
O6A C21A 1_555 1_555
C1A C2A 1_555 1_555
C2A S1A 1_555 1_555
C3A C2A 1_555 1_555
H2A C3A 1_555 1_555
C4A C3A 1_555 1_555
H3A C4A 1_555 1_555
C5A C4A 1_555 1_555
H4A C5A 1_555 1_555
C6A C1A 1_555 1_555
H5A C6A 1_555 1_555
C7A O1A 1_555 1_555
C15A C16A 1_555 1_555
C16A C17A 1_555 1_555
C17A H10A 1_555 1_555
C18A C17A 1_555 1_555
H11A C18A 1_555 1_555
C19A C18A 1_555 1_555
H12A C19A 1_555 1_555
C20A C15A 1_555 1_555
H13A C20A 1_555 1_555
C21A C15A 1_555 1_555
S2A S4A 1_555 1_555
S4A C23A 1_555 1_555
O3A C14A 1_555 1_555
O4A Mn1 1_555 1_555
O7A C28A 1_555 1_555
O8A C28A 1_555 1_555
C8A C9A 1_555 1_555
C9A S2A 1_555 1_555
C10A C9A 1_555 1_555
H6A C10A 1_555 1_555
C11A C10A 1_555 1_555
H7A C11A 1_555 1_555
C12A C11A 1_555 1_555
H8A C12A 1_555 1_555
C13A C8A 1_555 1_555
H9A C13A 1_555 1_555
C14A O4A 1_555 1_555
C22A C23A 1_555 1_555
C23A C24A 1_555 1_555
C24A H14A 1_555 1_555
C25A C24A 1_555 1_555
H15A C25A 1_555 1_555
C26A C25A 1_555 1_555
H16A C26A 1_555 1_555
C27A C22A 1_555 1_555
H17A C27A 1_555 1_555
C28A C22A 1_555 1_555
O9A Mn1 1_555 1_555
H1A O9A 1_555 1_555
Mn2A O2A 1_555 1_555
Mn3A O9 1_555 1_555
O6_2 Mn2 1_555 1_555
O6A_2 Mn2 1_555 1_555
O7A_2 Mn2 1_555 1_555
O5_2 Mn3 1_555 1_555
O8A_2 Mn3 1_555 1_555
Mn3_2 O5 1_555 1_555
Mn2_2 O6 1_555 1_555
Mn2A_2 O6 1_555 1_555
Mn2A_3 O7 1_555 1_555
Mn3A_2 O8 1_555 1_555
Mn3A_3 O5A 1_555 1_555
Mn2_3 O6A 1_555 1_555
Mn2A_4 O6A 1_555 1_555
Mn2_4 O7A 1_555 1_555
Mn3_3 O8A 1_555 1_555
O6_3 Mn2A 1_555 1_555
O6A_3 Mn2A 1_555 1_555
O7_2 Mn2A 1_555 1_555
O5A_2 Mn3A 1_555 1_555
O8_2 Mn3A 1_555 1_555
Mn2 O9 1_555 1_555
Mn3 O9A 1_555 1_555
O4 C14 1_555 1_555
C5 C6 1_555 1_555
C8 C14 1_555 1_555
C12 C13 1_555 1_555
C19 C20 1_555 1_555
C26 C27 1_555 1_555
C1A C7A 1_555 1_555
C5A C6A 1_555 1_555
C19A C20A 1_555 1_555
O3A Mn2A 1_555 1_555
O4A Mn3A 1_555 1_555
C8A C14A 1_555 1_555
C12A C13A 1_555 1_555
C26A C27A 1_555 1_555
O9A Mn2A 1_555 1_555

#END
