
#######################################################################
#
#                 Cambridge Crystallographic Data Centre
#                                CCDC 
#
#######################################################################
#
# If this CIF has been generated from an entry in the Cambridge 
# Structural Database, then it will include bibliographic, chemical, 
# crystal, experimental, refinement or atomic coordinate data resulting 
# from the CCDC's data processing and validation procedures.
#
#######################################################################

data_AZUCIH
_symmetry_cell_setting           monoclinic
_symmetry_space_group_name_H-M   'C 2/c'
_symmetry_Int_Tables_number      15
_space_group_name_Hall           '-C 2yn'
loop_
_symmetry_equiv_pos_site_id
_symmetry_equiv_pos_as_xyz
1 x,y,z
2 1/2+x,1/2+y,z
3 x,-y,1/2+z
4 1/2+x,1/2-y,1/2+z
5 -x,-y,-z
6 1/2-x,1/2-y,-z
7 -x,y,1/2-z
8 1/2-x,1/2+y,1/2-z
_cell_length_a                   27.0809(7)
_cell_length_b                   7.5696(4)
_cell_length_c                   7.1040(4)
_cell_angle_alpha                90
_cell_angle_beta                 93.11(3)
_cell_angle_gamma                90
_cell_volume                     1454.12
loop_
_atom_site_label
_atom_site_type_symbol
_atom_site_fract_x
_atom_site_fract_y
_atom_site_fract_z
Zn1 Zn 0.219510(18) 0.46412(7) 0.15397(7)
S1 S 0.16791(4) 0.43288(14) -0.11752(15)
O1 O 0.23011(10) 0.7657(4) -0.2121(4)
O2 O 0.21050(11) 1.0146(4) -0.0815(4)
C1 C 0.14612(15) 0.8021(6) -0.1134(6)
C2 C 0.12994(15) 0.6258(6) -0.1035(6)
C3 C 0.07993(17) 0.5934(7) -0.0770(7)
H1 H 0.0701(19) 0.475(7) -0.057(8)
C4 C 0.04677(18) 0.7290(8) -0.0631(8)
H2 H 0.012(3) 0.703(10) -0.069(10)
C5 C 0.0624(2) 0.9024(8) -0.0758(9)
H3 H 0.041(2) 0.990(8) -0.094(8)
C6 C 0.11154(19) 0.9385(7) -0.1001(8)
H4 H 0.125(2) 1.050(8) -0.117(8)
C7 C 0.19850(15) 0.8608(6) -0.1377(6)
S1B S 0.16791(4) 0.56712(14) 0.38248(15)
O1B O 0.23011(10) 0.2343(4) 0.2879(4)
O1E O 0.26989(10) 0.7343(4) 0.2121(4)
O2E O 0.28950(11) 0.4854(4) 0.0815(4)
Zn1B Zn 0.219510(18) 0.53588(7) -0.34603(7)
Zn1E Zn 0.280490(18) 1.03588(7) -0.15397(7)
loop_
_geom_bond_atom_site_label_1
_geom_bond_atom_site_label_2
_geom_bond_site_symmetry_1
_geom_bond_site_symmetry_2
Zn1 S1 1_555 1_555
S1 C2 1_555 1_555
O1 C7 1_555 1_555
O2 C7 1_555 1_555
C1 C2 1_555 1_555
C2 C3 1_555 1_555
C3 H1 1_555 1_555
C4 C3 1_555 1_555
H2 C4 1_555 1_555
C5 C4 1_555 1_555
H3 C5 1_555 1_555
C6 C1 1_555 1_555
H4 C6 1_555 1_555
C7 C1 1_555 1_555
S1B Zn1 1_555 1_555
O1B Zn1 1_555 1_555
O1E Zn1 1_555 1_555
O2E Zn1 1_555 1_555
Zn1B S1 1_555 1_555
Zn1E O1 1_555 1_555
O1 Zn1B 1_555 1_555
O2 Zn1E 1_555 1_555
C5 C6 1_555 1_555

#END
