
#######################################################################
#
#                 Cambridge Crystallographic Data Centre
#                                CCDC 
#
#######################################################################
#
# If this CIF has been generated from an entry in the Cambridge 
# Structural Database, then it will include bibliographic, chemical, 
# crystal, experimental, refinement or atomic coordinate data resulting 
# from the CCDC's data processing and validation procedures.
#
#######################################################################

data_AZUDUU
_symmetry_cell_setting           triclinic
_symmetry_space_group_name_H-M   'P -1'
_symmetry_Int_Tables_number      2
_space_group_name_Hall           '-P 1'
loop_
_symmetry_equiv_pos_site_id
_symmetry_equiv_pos_as_xyz
1 x,y,z
2 -x,-y,-z
_cell_length_a                   8.8297(2)
_cell_length_b                   11.9594(2)
_cell_length_c                   12.4824(2)
_cell_angle_alpha                68.5636(9)
_cell_angle_beta                 79.3247(8)
_cell_angle_gamma                71.1423(8)
_cell_volume                     1157.7
loop_
_atom_site_label
_atom_site_type_symbol
_atom_site_fract_x
_atom_site_fract_y
_atom_site_fract_z
Au1 Au 0.0000 0.0000 0.5000
Au2 Au 0.0000 -0.5000 0.5000
Tl1 Tl -0.05981(3) -0.26572(3) 0.56513(3)
C1 C 0.0624(6) 0.0395(5) 0.3260(5)
C2 C 0.2151(6) 0.0517(4) 0.2773(5)
C3 C 0.2576(7) 0.0871(6) 0.1598(5)
C4 C 0.1426(7) 0.1163(7) 0.0840(6)
C5 C -0.0103(7) 0.1023(6) 0.1277(5)
C6 C -0.0451(7) 0.0616(6) 0.2462(5)
Cl1 Cl 0.35782(18) 0.02338(16) 0.37073(15)
Cl2 Cl 0.4497(2) 0.0943(2) 0.10705(17)
Cl3 Cl 0.1870(3) 0.1718(3) -0.06262(17)
Cl4 Cl -0.1509(2) 0.1360(2) 0.03319(17)
Cl5 Cl -0.23270(19) 0.0365(2) 0.29843(16)
C7 C 0.2277(7) -0.4938(5) 0.4288(4)
C8 C 0.2594(6) -0.3905(5) 0.3391(5)
C9 C 0.4129(7) -0.3867(6) 0.2870(5)
C10 C 0.5424(7) -0.4902(5) 0.3264(5)
C11 C 0.5181(6) -0.5954(5) 0.4151(6)
C12 C 0.3640(6) -0.5955(5) 0.4663(5)
Cl6 Cl 0.0989(2) -0.26161(17) 0.28695(16)
Cl7 Cl 0.4427(3) -0.2573(2) 0.17678(19)
Cl8 Cl 0.7329(2) -0.4902(2) 0.2612(2)
Cl9 Cl 0.67563(19) -0.72856(17) 0.4582(2)
Cl10 Cl 0.33824(19) -0.72888(15) 0.57704(17)
N1 N -0.2373(11) -0.3664(8) 0.7728(7)
C13 C -0.1826(15) -0.4612(12) 0.8630(10)
H1 H -0.0720 -0.4939 0.8662
C14 C -0.2806(14) -0.5166(12) 0.9553(9)
H2 H -0.2353 -0.5833 1.0181
C15 C -0.4446(11) -0.4714(8) 0.9520(7)
C16 C -0.5023(12) -0.3722(8) 0.8565(7)
H3 H -0.6122 -0.3381 0.8496
C17 C -0.3932(13) -0.3234(9) 0.7701(8)
H4 H -0.4342 -0.2558 0.7064
C15A C -0.5554(11) -0.5286(8) 1.0480(7)
C14A C -0.7194(14) -0.4834(12) 1.0447(9)
C13A C -0.8174(15) -0.5388(12) 1.1370(10)
N1A N -0.7627(11) -0.6336(8) 1.2272(7)
C17A C -0.6068(13) -0.6766(9) 1.2299(8)
C16A C -0.4977(12) -0.6278(8) 1.1435(7)
H3A H -0.3878 -0.6619 1.1504
H4A H -0.5658 -0.7442 1.2936
H1A H -0.9280 -0.5061 1.1338
H2A H -0.7647 -0.4167 0.9819
C1A C -0.0624(6) -0.0395(5) 0.6740(5)
C2A C -0.2151(6) -0.0517(4) 0.7227(5)
C3A C -0.2576(7) -0.0871(6) 0.8402(5)
C4A C -0.1426(7) -0.1163(7) 0.9160(6)
C5A C 0.0103(7) -0.1023(6) 0.8723(5)
C6A C 0.0451(7) -0.0616(6) 0.7538(5)
Cl1A Cl -0.35782(18) -0.02338(16) 0.62927(15)
Cl2A Cl -0.4497(2) -0.0943(2) 0.89295(17)
Cl3A Cl -0.1870(3) -0.1718(3) 1.06262(17)
Cl4A Cl 0.1509(2) -0.1360(2) 0.96681(17)
Cl5A Cl 0.23270(19) -0.0365(2) 0.70157(16)
Tl1A Tl 0.05981(3) 0.26572(3) 0.43487(3)
C7A C -0.2277(7) -0.5062(5) 0.5712(4)
C8A C -0.2594(6) -0.6095(5) 0.6609(5)
C9A C -0.4129(7) -0.6133(6) 0.7130(5)
C10A C -0.5424(7) -0.5098(5) 0.6736(5)
C11A C -0.5181(6) -0.4046(5) 0.5849(6)
C12A C -0.3640(6) -0.4045(5) 0.5337(5)
Cl6A Cl -0.0989(2) -0.73839(17) 0.71305(16)
Cl7A Cl -0.4427(3) -0.7427(2) 0.82322(19)
Cl8A Cl -0.7329(2) -0.5098(2) 0.7388(2)
Cl9A Cl -0.67563(19) -0.27144(17) 0.5418(2)
Cl10A Cl -0.33824(19) -0.27112(15) 0.42296(17)
Tl1A_2 Tl 0.05981(3) -0.73428(3) 0.43487(3)
Tl1A_3 Tl -0.94019(3) -0.73428(3) 1.43487(3)
Au2_2 Au 0.0000 0.5000 0.5000
N1A_2 N 0.2373(11) 0.3664(8) 0.2272(7)
loop_
_geom_bond_atom_site_label_1
_geom_bond_atom_site_label_2
_geom_bond_site_symmetry_1
_geom_bond_site_symmetry_2
Au1 Tl1 1_555 1_555
Au2 Tl1 1_555 1_555
Tl1 N1 1_555 1_555
C1 Au1 1_555 1_555
C2 C1 1_555 1_555
C3 C2 1_555 1_555
C4 C3 1_555 1_555
C5 C4 1_555 1_555
C6 C1 1_555 1_555
Cl1 C2 1_555 1_555
Cl2 C3 1_555 1_555
Cl3 C4 1_555 1_555
Cl4 C5 1_555 1_555
Cl5 C6 1_555 1_555
C7 Au2 1_555 1_555
C8 C7 1_555 1_555
C9 C8 1_555 1_555
C10 C9 1_555 1_555
C11 C10 1_555 1_555
C12 C7 1_555 1_555
Cl6 C8 1_555 1_555
Cl7 C9 1_555 1_555
Cl8 C10 1_555 1_555
Cl9 C11 1_555 1_555
Cl10 C12 1_555 1_555
N1 C13 1_555 1_555
C13 H1 1_555 1_555
C14 C13 1_555 1_555
H2 C14 1_555 1_555
C15 C14 1_555 1_555
C16 C15 1_555 1_555
H3 C16 1_555 1_555
C17 N1 1_555 1_555
H4 C17 1_555 1_555
C15A C15 1_555 1_555
C14A C15A 1_555 1_555
C13A C14A 1_555 1_555
N1A C13A 1_555 1_555
C17A N1A 1_555 1_555
C16A C15A 1_555 1_555
H3A C16A 1_555 1_555
H4A C17A 1_555 1_555
H1A C13A 1_555 1_555
H2A C14A 1_555 1_555
C1A Au1 1_555 1_555
C2A C1A 1_555 1_555
C3A C2A 1_555 1_555
C4A C3A 1_555 1_555
C5A C4A 1_555 1_555
C6A C1A 1_555 1_555
Cl1A C2A 1_555 1_555
Cl2A C3A 1_555 1_555
Cl3A C4A 1_555 1_555
Cl4A C5A 1_555 1_555
Cl5A C6A 1_555 1_555
Tl1A Au1 1_555 1_555
C7A Au2 1_555 1_555
C8A C7A 1_555 1_555
C9A C8A 1_555 1_555
C10A C9A 1_555 1_555
C11A C10A 1_555 1_555
C12A C7A 1_555 1_555
Cl6A C8A 1_555 1_555
Cl7A C9A 1_555 1_555
Cl8A C10A 1_555 1_555
Cl9A C11A 1_555 1_555
Cl10A C12A 1_555 1_555
Tl1A_2 Au2 1_555 1_555
Tl1A_3 N1A 1_555 1_555
Au2_2 Tl1A 1_555 1_555
N1A_2 Tl1A 1_555 1_555
C5 C6 1_555 1_555
C11 C12 1_555 1_555
C16 C17 1_555 1_555
C17A C16A 1_555 1_555
C5A C6A 1_555 1_555
C11A C12A 1_555 1_555

#END
