
#######################################################################
#
#                 Cambridge Crystallographic Data Centre
#                                CCDC 
#
#######################################################################
#
# If this CIF has been generated from an entry in the Cambridge 
# Structural Database, then it will include bibliographic, chemical, 
# crystal, experimental, refinement or atomic coordinate data resulting 
# from the CCDC's data processing and validation procedures.
#
#######################################################################

data_AZUFEG
_symmetry_cell_setting           monoclinic
_symmetry_space_group_name_H-M   'P 21/c'
_symmetry_Int_Tables_number      14
_space_group_name_Hall           '-P 2ybc'
loop_
_symmetry_equiv_pos_site_id
_symmetry_equiv_pos_as_xyz
1 x,y,z
2 x,1/2-y,1/2+z
3 -x,-y,-z
4 -x,1/2+y,1/2-z
_cell_length_a                   11.8776(2)
_cell_length_b                   36.5372(5)
_cell_length_c                   15.6912(2)
_cell_angle_alpha                90
_cell_angle_beta                 106.1219(9)
_cell_angle_gamma                90
_cell_volume                     6541.78
loop_
_atom_site_label
_atom_site_type_symbol
_atom_site_fract_x
_atom_site_fract_y
_atom_site_fract_z
Au1 Au 0.80026(4) 0.625506(14) 0.31465(3)
Tl1 Tl 0.54693(4) 0.612867(14) 0.29968(3)
Au2 Au 0.29361(4) 0.637655(14) 0.29464(3)
Tl2 Tl 1.05677(4) 0.638354(15) 0.32599(3)
C1 C 0.2877(8) 0.5830(3) 0.3236(6)
C2 C 0.3395(8) 0.5689(3) 0.4081(7)
C3 C 0.3313(10) 0.5335(4) 0.4342(8)
C4 C 0.2663(11) 0.5084(4) 0.3695(7)
C5 C 0.2102(10) 0.5214(3) 0.2828(8)
C6 C 0.2222(10) 0.5574(3) 0.2622(7)
Cl1 Cl 0.4238(3) 0.59810(11) 0.48815(19)
Cl2 Cl 0.3905(4) 0.51847(13) 0.5401(3)
Cl3 Cl 0.2516(4) 0.46373(13) 0.3966(4)
Cl4 Cl 0.1318(4) 0.49133(13) 0.2046(3)
Cl5 Cl 0.1524(3) 0.57294(11) 0.1563(2)
C7 C 0.2944(7) 0.6937(3) 0.2711(6)
C8 C 0.3864(8) 0.7154(3) 0.3186(5)
C9 C 0.3871(9) 0.7529(3) 0.3102(6)
C10 C 0.2918(8) 0.7707(3) 0.2526(7)
C11 C 0.1982(9) 0.7497(3) 0.2039(6)
C12 C 0.2018(8) 0.7117(3) 0.2125(6)
Cl6 Cl 0.5058(2) 0.69526(9) 0.39394(18)
Cl7 Cl 0.5036(3) 0.77863(10) 0.3706(2)
Cl8 Cl 0.2895(3) 0.81762(10) 0.2428(2)
Cl9 Cl 0.0784(3) 0.77107(10) 0.1336(2)
Cl10 Cl 0.0854(2) 0.68637(10) 0.14825(19)
C13 C 0.7989(7) 0.5833(3) 0.2285(6)
C14 C 0.8226(7) 0.5887(3) 0.1464(6)
C15 C 0.8291(8) 0.5603(4) 0.0895(7)
C16 C 0.8130(10) 0.5250(3) 0.1132(7)
C17 C 0.7879(12) 0.5180(3) 0.1916(8)
C18 C 0.7834(10) 0.5467(3) 0.2475(7)
Cl11 Cl 0.8355(3) 0.63342(11) 0.1122(2)
Cl12 Cl 0.8569(3) 0.56933(14) -0.0116(2)
Cl13 Cl 0.8242(4) 0.48921(13) 0.0416(3)
Cl14 Cl 0.7569(4) 0.47344(12) 0.2166(3)
Cl15 Cl 0.7489(3) 0.53663(10) 0.3460(2)
C19 C 0.8010(7) 0.6699(3) 0.3971(5)
C20 C 0.7773(6) 0.6670(3) 0.4792(6)
C21 C 0.7698(7) 0.6967(3) 0.5308(6)
C22 C 0.7845(9) 0.7321(3) 0.5004(6)
C23 C 0.8118(9) 0.7357(3) 0.4190(6)
C24 C 0.8187(9) 0.7051(3) 0.3705(6)
Cl16 Cl 0.7521(3) 0.62425(10) 0.51831(18)
Cl17 Cl 0.7373(3) 0.69300(12) 0.63073(18)
Cl18 Cl 0.7687(3) 0.77049(11) 0.5592(2)
Cl19 Cl 0.8331(3) 0.77915(10) 0.3828(2)
Cl20 Cl 0.8496(2) 0.71115(9) 0.26960(16)
N1 N 0.4932(7) 0.6574(3) 0.1617(5)
C25 C 0.3851(9) 0.6536(3) 0.1068(6)
H1 H 0.3501 0.6307 0.1018
C26 C 0.3224(9) 0.6823(3) 0.0566(7)
H2 H 0.2476 0.6783 0.0194
C27 C 0.3716(8) 0.7164(3) 0.0624(6)
C28 C 0.4827(9) 0.7208(3) 0.1187(7)
H3 H 0.5191 0.7436 0.1243
C29 C 0.5398(10) 0.6913(4) 0.1668(8)
H4 H 0.6144 0.6949 0.2047
N2 N 0.4948(8) 0.5679(3) 0.1609(6)
C30 C 0.4658(10) 0.5335(4) 0.1698(8)
H5 H 0.4424 0.5274 0.2198
C31 C 0.5273(10) 0.5501(4) 0.0231(7)
H6 H 0.5487 0.5571 -0.0272
C32 C 0.4981(9) 0.5142(3) 0.0338(7)
C33 C 0.4678(11) 0.5060(4) 0.1099(7)
H7 H 0.4487 0.4822 0.1211
C34 C 0.5248(10) 0.5756(4) 0.0870(7)
H8 H 0.5451 0.5996 0.0782
N3 N 0.1591(8) 0.8061(3) -0.0697(6)
C35 C 0.2583(10) 0.8121(4) -0.0056(7)
H9 H 0.2804 0.8361 0.0101
C36 C 0.3287(9) 0.7843(4) 0.0381(7)
H10 H 0.3959 0.7897 0.0832
C37 C 0.3004(9) 0.7485(3) 0.0153(7)
C38 C 0.1993(9) 0.7420(3) -0.0528(7)
H11 H 0.1776 0.7183 -0.0714
C39 C 0.1321(10) 0.7711(4) -0.0921(7)
H12 H 0.0638 0.7664 -0.1368
O1 O 1.1115(9) 0.6010(3) 0.4785(7)
C40 C 1.0613(19) 0.5659(7) 0.4623(14)
H13 H 1.1128 0.5492 0.4428
H14 H 0.9864 0.5668 0.4174
C41 C 1.046(2) 0.5543(8) 0.5484(16)
H15 H 0.9678 0.5448 0.5405
H16 H 1.1019 0.5351 0.5738
C42 C 1.065(2) 0.5853(8) 0.6065(17)
H17 H 1.1261 0.5796 0.6604
H18 H 0.9939 0.5907 0.6226
C43 C 1.1012(19) 0.6182(7) 0.5621(13)
H19 H 1.0418 0.6372 0.5506
H20 H 1.1754 0.6282 0.5968
C32B C 0.5019(9) 0.4858(3) -0.0338(7)
C31B C 0.4727(10) 0.4499(4) -0.0231(7)
H6B H 0.4513 0.4429 0.0272
C34B C 0.4752(10) 0.4244(4) -0.0870(7)
N2B N 0.5052(8) 0.4321(3) -0.1609(6)
C30B C 0.5342(10) 0.4665(4) -0.1698(8)
H5B H 0.5576 0.4726 -0.2198
C33B C 0.5322(11) 0.4940(4) -0.1099(7)
H7B H 0.5513 0.5178 -0.1211
H8B H 0.4549 0.4004 -0.0782
N1A N 1.4932(7) 0.8426(3) 0.6617(5)
C25A C 1.3851(9) 0.8464(3) 0.6068(6)
H1A H 1.3501 0.8693 0.6018
C26A C 1.3224(9) 0.8177(3) 0.5566(7)
H2A H 1.2476 0.8217 0.5194
C27A C 1.3716(8) 0.7836(3) 0.5624(6)
C28A C 1.4827(9) 0.7792(3) 0.6187(7)
H3A H 1.5191 0.7564 0.6243
C29A C 1.5398(10) 0.8087(4) 0.6668(8)
H4A H 1.6144 0.8051 0.7047
N3A N 1.1591(8) 0.6939(3) 0.4303(6)
C35A C 1.2583(10) 0.6879(4) 0.4944(7)
H9A H 1.2804 0.6639 0.5101
C36A C 1.3287(9) 0.7157(4) 0.5381(7)
H10A H 1.3959 0.7103 0.5832
C37A C 1.3004(9) 0.7515(3) 0.5153(7)
C38A C 1.1993(9) 0.7580(3) 0.4472(7)
H11A H 1.1776 0.7817 0.4286
C39A C 1.1321(10) 0.7289(4) 0.4079(7)
H12A H 1.0638 0.7336 0.3632
Tl1A Tl 1.54693(4) 0.887133(14) 0.79968(3)
Au2_2 Au 1.29361(4) 0.637655(14) 0.29464(3)
Tl2A Tl 0.05677(4) 0.861646(15) -0.17401(3)
C1_2 C 1.2877(8) 0.5830(3) 0.3236(6)
C2_2 C 1.3395(8) 0.5689(3) 0.4081(7)
C3_2 C 1.3313(10) 0.5335(4) 0.4342(8)
C4_2 C 1.2663(11) 0.5084(4) 0.3695(7)
C5_2 C 1.2102(10) 0.5214(3) 0.2828(8)
C6_2 C 1.2222(10) 0.5574(3) 0.2622(7)
Cl1_2 Cl 1.4238(3) 0.59810(11) 0.48815(19)
Cl2_2 Cl 1.3905(4) 0.51847(13) 0.5401(3)
Cl3_2 Cl 1.2516(4) 0.46373(13) 0.3966(4)
Cl4_2 Cl 1.1318(4) 0.49133(13) 0.2046(3)
Cl5_2 Cl 1.1524(3) 0.57294(11) 0.1563(2)
C7_2 C 1.2944(7) 0.6937(3) 0.2711(6)
C8_2 C 1.3864(8) 0.7154(3) 0.3186(5)
C9_2 C 1.3871(9) 0.7529(3) 0.3102(6)
C10_2 C 1.2918(8) 0.7707(3) 0.2526(7)
C11_2 C 1.1982(9) 0.7497(3) 0.2039(6)
C12_2 C 1.2018(8) 0.7117(3) 0.2125(6)
Cl6_2 Cl 1.5058(2) 0.69526(9) 0.39394(18)
Cl7_2 Cl 1.5036(3) 0.77863(10) 0.3706(2)
Cl8_2 Cl 1.2895(3) 0.81762(10) 0.2428(2)
Cl9_2 Cl 1.0784(3) 0.77107(10) 0.1336(2)
Cl10_2 Cl 1.0854(2) 0.68637(10) 0.14825(19)
O1A O 0.1115(9) 0.8990(3) -0.0215(7)
C40A C 0.0613(19) 0.9341(7) -0.0377(14)
H13A H 0.1128 0.9508 -0.0572
H14A H -0.0136 0.9332 -0.0826
C41A C 0.046(2) 0.9457(8) 0.0484(16)
H15A H -0.0322 0.9552 0.0405
H16A H 0.1019 0.9649 0.0738
C42A C 0.065(2) 0.9147(8) 0.1065(17)
H17A H 0.1261 0.9204 0.1604
H18A H -0.0061 0.9093 0.1226
C43A C 0.1012(19) 0.8818(7) 0.0621(13)
H19A H 0.0418 0.8628 0.0506
H20A H 0.1754 0.8718 0.0968
Au1A Au 1.80026(4) 0.874494(14) 0.81465(3)
C13A C 1.7989(7) 0.9167(3) 0.7285(6)
C14A C 1.8226(7) 0.9113(3) 0.6464(6)
C15A C 1.8291(8) 0.9397(4) 0.5895(7)
C16A C 1.8130(10) 0.9750(3) 0.6132(7)
C17A C 1.7879(12) 0.9820(3) 0.6916(8)
C18A C 1.7834(10) 0.9533(3) 0.7475(7)
Cl11A Cl 1.8355(3) 0.86658(11) 0.6122(2)
Cl12A Cl 1.8569(3) 0.93067(14) 0.4884(2)
Cl13A Cl 1.8242(4) 1.01079(13) 0.5416(3)
Cl14A Cl 1.7569(4) 1.02656(12) 0.7166(3)
Cl15A Cl 1.7489(3) 0.96337(10) 0.8460(2)
C19A C 1.8010(7) 0.8301(3) 0.8971(5)
C20A C 1.7773(6) 0.8330(3) 0.9792(6)
C21A C 1.7698(7) 0.8033(3) 1.0308(6)
C22A C 1.7845(9) 0.7679(3) 1.0004(6)
C23A C 1.8118(9) 0.7643(3) 0.9190(6)
C24A C 1.8187(9) 0.7949(3) 0.8705(6)
Cl16A Cl 1.7521(3) 0.87575(10) 1.01831(18)
Cl17A Cl 1.7373(3) 0.80700(12) 1.13073(18)
Cl18A Cl 1.7687(3) 0.72951(11) 1.0592(2)
Cl19A Cl 1.8331(3) 0.72085(10) 0.8828(2)
Cl20A Cl 1.8496(2) 0.78885(9) 0.76960(16)
Tl2_2 Tl 0.05677(4) 0.638354(15) 0.32599(3)
Tl1B Tl 0.45307(4) 0.387133(14) -0.29968(3)
Au2A Au 1.29361(4) 0.862345(14) 0.79464(3)
N2A N 1.4948(8) 0.9321(3) 0.6609(6)
Tl1_2 Tl 1.54693(4) 0.612867(14) 0.29968(3)
Au1A_2 Au -0.19974(4) 0.874494(14) -0.18535(3)
Au2A_2 Au 0.29361(4) 0.862345(14) -0.20536(3)
Tl2A_2 Tl 2.05677(4) 0.861646(15) 0.82599(3)
O2 O 0.5321(13) 0.5850(5) -0.1722(9)
C44 C 0.5644(18) 0.6206(6) -0.1425(13)
H21 H 0.6229 0.6202 -0.0853
H22 H 0.4969 0.6344 -0.1371
C45 C 0.614(2) 0.6370(8) -0.2127(15)
H23 H 0.5723 0.6592 -0.2364
H24 H 0.6963 0.6427 -0.1884
C46 C 0.598(3) 0.6104(10) -0.278(2)
H25 H 0.6732 0.6051 -0.2884
H26 H 0.5465 0.6199 -0.3325
C47 C 0.549(3) 0.5768(10) -0.2548(19)
H27 H 0.4759 0.5708 -0.2980
H28 H 0.6035 0.5565 -0.2503
O3 O 0.1120(14) 0.6540(5) -0.1197(10)
C48 C 0.0179(18) 0.6569(7) -0.1942(13)
H29 H -0.0284 0.6784 -0.1911
H30 H 0.0440 0.6582 -0.2474
C49 C -0.044(3) 0.6264(10) -0.193(2)
H31 H -0.0879 0.6204 -0.2536
H32 H -0.0991 0.6307 -0.1593
C50 C 0.031(2) 0.5953(8) -0.1553(15)
H33 H 0.0487 0.5802 -0.2006
H34 H -0.0039 0.5803 -0.1181
C51 C 0.136(3) 0.6159(11) -0.102(2)
H35 H 0.1492 0.6108 -0.0396
H36 H 0.2047 0.6087 -0.1196
loop_
_geom_bond_atom_site_label_1
_geom_bond_atom_site_label_2
_geom_bond_site_symmetry_1
_geom_bond_site_symmetry_2
Au1 Tl1 1_555 1_555
Tl1 Au2 1_555 1_555
Au2 C1 1_555 1_555
Tl2 Au1 1_555 1_555
C1 C2 1_555 1_555
C2 C3 1_555 1_555
C3 C4 1_555 1_555
C4 C5 1_555 1_555
C5 C6 1_555 1_555
C6 C1 1_555 1_555
Cl1 C2 1_555 1_555
Cl2 C3 1_555 1_555
Cl3 C4 1_555 1_555
Cl4 C5 1_555 1_555
Cl5 C6 1_555 1_555
C7 Au2 1_555 1_555
C8 C7 1_555 1_555
C9 C8 1_555 1_555
C10 C9 1_555 1_555
C11 C10 1_555 1_555
C12 C7 1_555 1_555
Cl6 C8 1_555 1_555
Cl7 C9 1_555 1_555
Cl8 C10 1_555 1_555
Cl9 C11 1_555 1_555
Cl10 C12 1_555 1_555
C13 Au1 1_555 1_555
C14 C13 1_555 1_555
C15 C14 1_555 1_555
C16 C15 1_555 1_555
C17 C16 1_555 1_555
C18 C13 1_555 1_555
Cl11 C14 1_555 1_555
Cl12 C15 1_555 1_555
Cl13 C16 1_555 1_555
Cl14 C17 1_555 1_555
Cl15 C18 1_555 1_555
C19 Au1 1_555 1_555
C20 C19 1_555 1_555
C21 C20 1_555 1_555
C22 C21 1_555 1_555
C23 C22 1_555 1_555
C24 C19 1_555 1_555
Cl16 C20 1_555 1_555
Cl17 C21 1_555 1_555
Cl18 C22 1_555 1_555
Cl19 C23 1_555 1_555
Cl20 C24 1_555 1_555
N1 Tl1 1_555 1_555
C25 N1 1_555 1_555
H1 C25 1_555 1_555
C26 C25 1_555 1_555
H2 C26 1_555 1_555
C27 C26 1_555 1_555
C28 C27 1_555 1_555
H3 C28 1_555 1_555
C29 N1 1_555 1_555
H4 C29 1_555 1_555
N2 Tl1 1_555 1_555
C30 N2 1_555 1_555
H5 C30 1_555 1_555
C31 H6 1_555 1_555
C32 C31 1_555 1_555
C33 C30 1_555 1_555
H7 C33 1_555 1_555
C34 N2 1_555 1_555
H8 C34 1_555 1_555
N3 C35 1_555 1_555
C35 H9 1_555 1_555
C36 C35 1_555 1_555
H10 C36 1_555 1_555
C37 C27 1_555 1_555
C38 C37 1_555 1_555
H11 C38 1_555 1_555
C39 N3 1_555 1_555
H12 C39 1_555 1_555
O1 Tl2 1_555 1_555
C40 O1 1_555 1_555
H13 C40 1_555 1_555
H14 C40 1_555 1_555
C41 C40 1_555 1_555
H15 C41 1_555 1_555
H16 C41 1_555 1_555
C42 C41 1_555 1_555
H17 C42 1_555 1_555
H18 C42 1_555 1_555
C43 O1 1_555 1_555
H19 C43 1_555 1_555
H20 C43 1_555 1_555
O2 C44 1_555 1_555
C44 H21 1_555 1_555
H22 C44 1_555 1_555
C45 C44 1_555 1_555
H23 C45 1_555 1_555
H24 C45 1_555 1_555
C46 C45 1_555 1_555
H25 C46 1_555 1_555
H26 C46 1_555 1_555
C47 O2 1_555 1_555
H27 C47 1_555 1_555
H28 C47 1_555 1_555
O3 C48 1_555 1_555
C48 H29 1_555 1_555
H30 C48 1_555 1_555
C49 C48 1_555 1_555
H31 C49 1_555 1_555
H32 C49 1_555 1_555
C50 C49 1_555 1_555
H33 C50 1_555 1_555
H34 C50 1_555 1_555
C51 O3 1_555 1_555
H35 C51 1_555 1_555
H36 C51 1_555 1_555
C32B C32 1_555 1_555
C31B C32B 1_555 1_555
H6B C31B 1_555 1_555
C34B C31B 1_555 1_555
N2B C34B 1_555 1_555
C30B N2B 1_555 1_555
H5B C30B 1_555 1_555
C33B C32B 1_555 1_555
H7B C33B 1_555 1_555
H8B C34B 1_555 1_555
N1A C25A 1_555 1_555
C25A H1A 1_555 1_555
C26A C25A 1_555 1_555
H2A C26A 1_555 1_555
C27A C26A 1_555 1_555
C28A C27A 1_555 1_555
H3A C28A 1_555 1_555
C29A N1A 1_555 1_555
H4A C29A 1_555 1_555
N3A Tl2 1_555 1_555
C35A N3A 1_555 1_555
H9A C35A 1_555 1_555
C36A C35A 1_555 1_555
H10A C36A 1_555 1_555
C37A C27A 1_555 1_555
C38A C37A 1_555 1_555
H11A C38A 1_555 1_555
C39A N3A 1_555 1_555
H12A C39A 1_555 1_555
Tl1A N1A 1_555 1_555
Au2_2 Tl2 1_555 1_555
Tl2A N3 1_555 1_555
C1_2 Au2_2 1_555 1_555
C2_2 C1_2 1_555 1_555
C3_2 C2_2 1_555 1_555
C4_2 C3_2 1_555 1_555
C5_2 C4_2 1_555 1_555
C6_2 C1_2 1_555 1_555
Cl1_2 C2_2 1_555 1_555
Cl2_2 C3_2 1_555 1_555
Cl3_2 C4_2 1_555 1_555
Cl4_2 C5_2 1_555 1_555
Cl5_2 C6_2 1_555 1_555
C7_2 Au2_2 1_555 1_555
C8_2 C7_2 1_555 1_555
C9_2 C8_2 1_555 1_555
C10_2 C9_2 1_555 1_555
C11_2 C10_2 1_555 1_555
C12_2 C7_2 1_555 1_555
Cl6_2 C8_2 1_555 1_555
Cl7_2 C9_2 1_555 1_555
Cl8_2 C10_2 1_555 1_555
Cl9_2 C11_2 1_555 1_555
Cl10_2 C12_2 1_555 1_555
O1A Tl2A 1_555 1_555
C40A O1A 1_555 1_555
H13A C40A 1_555 1_555
H14A C40A 1_555 1_555
C41A C40A 1_555 1_555
H15A C41A 1_555 1_555
H16A C41A 1_555 1_555
C42A C41A 1_555 1_555
H17A C42A 1_555 1_555
H18A C42A 1_555 1_555
C43A O1A 1_555 1_555
H19A C43A 1_555 1_555
H20A C43A 1_555 1_555
Au1A Tl1A 1_555 1_555
C13A Au1A 1_555 1_555
C14A C13A 1_555 1_555
C15A C14A 1_555 1_555
C16A C15A 1_555 1_555
C17A C16A 1_555 1_555
C18A C13A 1_555 1_555
Cl11A C14A 1_555 1_555
Cl12A C15A 1_555 1_555
Cl13A C16A 1_555 1_555
Cl14A C17A 1_555 1_555
Cl15A C18A 1_555 1_555
C19A Au1A 1_555 1_555
C20A C19A 1_555 1_555
C21A C20A 1_555 1_555
C22A C21A 1_555 1_555
C23A C22A 1_555 1_555
C24A C19A 1_555 1_555
Cl16A C20A 1_555 1_555
Cl17A C21A 1_555 1_555
Cl18A C22A 1_555 1_555
Cl19A C23A 1_555 1_555
Cl20A C24A 1_555 1_555
Tl2_2 Au2 1_555 1_555
Tl1B N2B 1_555 1_555
Au2A Tl1A 1_555 1_555
N2A Tl1A 1_555 1_555
Tl1_2 Au2_2 1_555 1_555
Au1A_2 Tl2A 1_555 1_555
Au2A_2 Tl2A 1_555 1_555
Tl2A_2 Au1A 1_555 1_555
C11 C12 1_555 1_555
C17 C18 1_555 1_555
C23 C24 1_555 1_555
C28 C29 1_555 1_555
C31 C34 1_555 1_555
C32 C33 1_555 1_555
C36 C37 1_555 1_555
C38 C39 1_555 1_555
C42 C43 1_555 1_555
C46 C47 1_555 1_555
C50 C51 1_555 1_555
C30B C33B 1_555 1_555
C28A C29A 1_555 1_555
C36A C37A 1_555 1_555
C38A C39A 1_555 1_555
C5_2 C6_2 1_555 1_555
C11_2 C12_2 1_555 1_555
C42A C43A 1_555 1_555
C17A C18A 1_555 1_555
C23A C24A 1_555 1_555

#END
