
#######################################################################
#
#                 Cambridge Crystallographic Data Centre
#                                CCDC 
#
#######################################################################
#
# If this CIF has been generated from an entry in the Cambridge 
# Structural Database, then it will include bibliographic, chemical, 
# crystal, experimental, refinement or atomic coordinate data resulting 
# from the CCDC's data processing and validation procedures.
#
#######################################################################

data_AZUFIK
_symmetry_cell_setting           triclinic
_symmetry_space_group_name_H-M   'P -1'
_symmetry_Int_Tables_number      2
_space_group_name_Hall           '-P 1'
loop_
_symmetry_equiv_pos_site_id
_symmetry_equiv_pos_as_xyz
1 x,y,z
2 -x,-y,-z
_cell_length_a                   11.9316(2)
_cell_length_b                   12.6350(3)
_cell_length_c                   13.2072(3)
_cell_angle_alpha                110.3043(10)
_cell_angle_beta                 97.8932(10)
_cell_angle_gamma                107.9319(10)
_cell_volume                     1708.83
loop_
_atom_site_label
_atom_site_type_symbol
_atom_site_fract_x
_atom_site_fract_y
_atom_site_fract_z
Tl1 Tl 0.27179(2) 0.03887(2) 0.068935(19)
Au1 Au 0.5000 0.0000 0.0000
Au2 Au 0.0000 0.0000 0.0000
C1 C 0.6103(5) 0.1816(6) 0.0794(5)
C2 C 0.5935(5) 0.2688(6) 0.0427(5)
C3 C 0.6720(6) 0.3928(6) 0.0923(5)
C4 C 0.7718(6) 0.4341(6) 0.1827(5)
C5 C 0.7922(6) 0.3525(6) 0.2235(5)
C6 C 0.7125(6) 0.2287(5) 0.1711(5)
Cl1 Cl 0.46939(18) 0.22061(18) -0.07098(17)
Cl2 Cl 0.6463(2) 0.49290(19) 0.0401(2)
Cl3 Cl 0.8689(2) 0.58424(16) 0.24331(16)
Cl4 Cl 0.91900(18) 0.40160(17) 0.33353(15)
Cl5 Cl 0.74657(16) 0.12787(16) 0.22037(13)
C7 C -0.0031(5) 0.0321(5) 0.1638(4)
C8 C 0.0633(5) 0.1440(6) 0.2538(5)
C9 C 0.0456(6) 0.1689(6) 0.3611(5)
C10 C -0.0404(6) 0.0819(6) 0.3795(5)
C11 C -0.1060(6) -0.0329(6) 0.2930(5)
C12 C -0.0844(6) -0.0557(6) 0.1883(4)
Cl6 Cl 0.17092(16) 0.25774(15) 0.23406(14)
Cl7 Cl 0.1305(2) 0.3108(2) 0.46996(14)
Cl8 Cl -0.0694(2) 0.1160(2) 0.50932(15)
Cl9 Cl -0.21565(19) -0.14233(19) 0.31476(16)
Cl10 Cl -0.16513(16) -0.20166(15) 0.08235(13)
N1 N 0.3675(6) 0.0578(6) 0.2775(4)
C13 C 0.4641(7) 0.0284(8) 0.2806(6)
H1 H 0.4983 0.0215 0.2188
C14 C 0.5191(7) 0.0070(8) 0.3640(6)
H2 H 0.5902 -0.0116 0.3602
C15 C 0.4725(6) 0.0123(6) 0.4538(5)
C16 C 0.3739(9) 0.0431(12) 0.4517(7)
H3 H 0.3373 0.0489 0.5118
C17 C 0.3248(10) 0.0666(12) 0.3656(8)
H4 H 0.2568 0.0903 0.3698
N2 N 0.1622(6) -0.1876(6) 0.0581(5)
C18 C 0.0673(7) -0.2618(6) -0.0320(6)
H5 H 0.0425 -0.2290 -0.0817
C19 C 0.0030(7) -0.3836(6) -0.0575(6)
H6 H -0.0627 -0.4315 -0.1241
C20 C 0.0325(7) -0.4360(7) 0.0115(6)
C21 C 0.1301(11) -0.3608(10) 0.1024(10)
H7 H 0.1579 -0.3922 0.1522
C22 C 0.1900(10) -0.2389(9) 0.1240(10)
H8 H 0.2554 -0.1893 0.1906
C15A C 0.5275(6) -0.0123(6) 0.5462(5)
C14A C 0.4809(7) -0.0070(8) 0.6360(6)
C13A C 0.5359(7) -0.0284(8) 0.7194(6)
N1A N 0.6325(6) -0.0578(6) 0.7225(4)
C17A C 0.6752(10) -0.0666(12) 0.6344(8)
C16A C 0.6261(9) -0.0431(12) 0.5483(7)
H3A H 0.6627 -0.0489 0.4882
H4A H 0.7432 -0.0903 0.6302
H1A H 0.5017 -0.0215 0.7812
H2A H 0.4098 0.0116 0.6398
C20A C -0.0325(7) -0.5640(7) -0.0115(6)
C19A C -0.0030(7) -0.6164(6) 0.0575(6)
C18A C -0.0673(7) -0.7382(6) 0.0320(6)
N2A N -0.1622(6) -0.8124(6) -0.0581(5)
C22A C -0.1900(10) -0.7611(9) -0.1240(10)
C21A C -0.1301(11) -0.6392(10) -0.1024(10)
H7A H -0.1579 -0.6078 -0.1522
H8A H -0.2554 -0.8107 -0.1906
H5A H -0.0425 -0.7710 0.0817
H6A H 0.0627 -0.5685 0.1241
C1A C 0.3897(5) -0.1816(6) -0.0794(5)
C2A C 0.4065(5) -0.2688(6) -0.0427(5)
C3A C 0.3280(6) -0.3928(6) -0.0923(5)
C4A C 0.2282(6) -0.4341(6) -0.1827(5)
C5A C 0.2078(6) -0.3525(6) -0.2235(5)
C6A C 0.2875(6) -0.2287(5) -0.1711(5)
Cl1A Cl 0.53061(18) -0.22061(18) 0.07098(17)
Cl2A Cl 0.3537(2) -0.49290(19) -0.0401(2)
Cl3A Cl 0.1311(2) -0.58424(16) -0.24331(16)
Cl4A Cl 0.08100(18) -0.40160(17) -0.33353(15)
Cl5A Cl 0.25343(16) -0.12787(16) -0.22037(13)
Tl1A Tl 0.72821(2) -0.03887(2) -0.068935(19)
C7A C 0.0031(5) -0.0321(5) -0.1638(4)
C8A C -0.0633(5) -0.1440(6) -0.2538(5)
C9A C -0.0456(6) -0.1689(6) -0.3611(5)
C10A C 0.0404(6) -0.0819(6) -0.3795(5)
C11A C 0.1060(6) 0.0329(6) -0.2930(5)
C12A C 0.0844(6) 0.0557(6) -0.1883(4)
Cl6A Cl -0.17092(16) -0.25774(15) -0.23406(14)
Cl7A Cl -0.1305(2) -0.3108(2) -0.46996(14)
Cl8A Cl 0.0694(2) -0.1160(2) -0.50932(15)
Cl9A Cl 0.21565(19) 0.14233(19) -0.31476(16)
Cl10A Cl 0.16513(16) 0.20166(15) -0.08235(13)
Tl1A_2 Tl -0.27179(2) -0.03887(2) -0.068935(19)
Tl1A_3 Tl 0.72821(2) -0.03887(2) 0.931065(19)
Tl1A_4 Tl -0.27179(2) -1.03887(2) -0.068935(19)
Au2_2 Au 1.0000 0.0000 0.0000
N1A_2 N 0.6325(6) -0.0578(6) -0.2775(4)
N2A_2 N 0.8378(6) 0.1876(6) -0.0581(5)
C23 C 0.449(2) 0.610(3) 0.372(2)
C24 C 0.356(3) 0.636(3) 0.322(2)
C25 C 0.270(3) 0.663(3) 0.378(2)
C26 C 0.274(3) 0.656(3) 0.482(2)
C27 C 0.371(3) 0.637(3) 0.5351(19)
C28 C 0.461(3) 0.618(4) 0.481(2)
C29 C 0.537(3) 0.578(4) 0.310(3)
C30? C 0.3432(17) 0.642(2) 0.3970(18)
C31? C 0.425(2) 0.640(3) 0.4822(16)
C32? C 0.537(2) 0.635(3) 0.4678(17)
C33? C 0.5687(18) 0.634(3) 0.369(2)
C34? C 0.482(2) 0.626(2) 0.2807(15)
C35? C 0.377(2) 0.646(3) 0.3008(18)
C36? C 0.232(3) 0.665(5) 0.420(3)
loop_
_geom_bond_atom_site_label_1
_geom_bond_atom_site_label_2
_geom_bond_site_symmetry_1
_geom_bond_site_symmetry_2
Tl1 Au1 1_555 1_555
Au1 C1 1_555 1_555
Au2 Tl1 1_555 1_555
C1 C2 1_555 1_555
C2 C3 1_555 1_555
C3 C4 1_555 1_555
C4 C5 1_555 1_555
C5 C6 1_555 1_555
C6 C1 1_555 1_555
Cl1 C2 1_555 1_555
Cl2 C3 1_555 1_555
Cl3 C4 1_555 1_555
Cl4 C5 1_555 1_555
Cl5 C6 1_555 1_555
C7 Au2 1_555 1_555
C8 C7 1_555 1_555
C9 C8 1_555 1_555
C10 C9 1_555 1_555
C11 C10 1_555 1_555
C12 C7 1_555 1_555
Cl6 C8 1_555 1_555
Cl7 C9 1_555 1_555
Cl8 C10 1_555 1_555
Cl9 C11 1_555 1_555
Cl10 C12 1_555 1_555
N1 Tl1 1_555 1_555
C13 N1 1_555 1_555
H1 C13 1_555 1_555
C14 C13 1_555 1_555
H2 C14 1_555 1_555
C15 C14 1_555 1_555
C16 C15 1_555 1_555
H3 C16 1_555 1_555
C17 N1 1_555 1_555
H4 C17 1_555 1_555
N2 Tl1 1_555 1_555
C18 N2 1_555 1_555
H5 C18 1_555 1_555
C19 C18 1_555 1_555
H6 C19 1_555 1_555
C20 C19 1_555 1_555
C21 C20 1_555 1_555
H7 C21 1_555 1_555
C22 N2 1_555 1_555
H8 C22 1_555 1_555
C23 C24 1_555 1_555
C24 C25 1_555 1_555
C25 C26 1_555 1_555
C26 C27 1_555 1_555
C27 C28 1_555 1_555
C28 C23 1_555 1_555
C29 C23 1_555 1_555
C15A C15 1_555 1_555
C14A C15A 1_555 1_555
C13A C14A 1_555 1_555
N1A C13A 1_555 1_555
C17A N1A 1_555 1_555
C16A C15A 1_555 1_555
H3A C16A 1_555 1_555
H4A C17A 1_555 1_555
H1A C13A 1_555 1_555
H2A C14A 1_555 1_555
C20A C20 1_555 1_555
C19A C20A 1_555 1_555
C18A C19A 1_555 1_555
N2A C18A 1_555 1_555
C22A N2A 1_555 1_555
C21A C20A 1_555 1_555
H7A C21A 1_555 1_555
H8A C22A 1_555 1_555
H5A C18A 1_555 1_555
H6A C19A 1_555 1_555
C1A Au1 1_555 1_555
C2A C1A 1_555 1_555
C3A C2A 1_555 1_555
C4A C3A 1_555 1_555
C5A C4A 1_555 1_555
C6A C1A 1_555 1_555
Cl1A C2A 1_555 1_555
Cl2A C3A 1_555 1_555
Cl3A C4A 1_555 1_555
Cl4A C5A 1_555 1_555
Cl5A C6A 1_555 1_555
Tl1A Au1 1_555 1_555
C7A Au2 1_555 1_555
C8A C7A 1_555 1_555
C9A C8A 1_555 1_555
C10A C9A 1_555 1_555
C11A C10A 1_555 1_555
C12A C7A 1_555 1_555
Cl6A C8A 1_555 1_555
Cl7A C9A 1_555 1_555
Cl8A C10A 1_555 1_555
Cl9A C11A 1_555 1_555
Cl10A C12A 1_555 1_555
Tl1A_2 Au2 1_555 1_555
Tl1A_3 N1A 1_555 1_555
Tl1A_4 N2A 1_555 1_555
Au2_2 Tl1A 1_555 1_555
N1A_2 Tl1A 1_555 1_555
N2A_2 Tl1A 1_555 1_555
C11 C12 1_555 1_555
C16 C17 1_555 1_555
C21 C22 1_555 1_555
C17A C16A 1_555 1_555
C22A C21A 1_555 1_555
C5A C6A 1_555 1_555
C11A C12A 1_555 1_555

#END
