
#######################################################################
#
#                 Cambridge Crystallographic Data Centre
#                                CCDC 
#
#######################################################################
#
# If this CIF has been generated from an entry in the Cambridge 
# Structural Database, then it will include bibliographic, chemical, 
# crystal, experimental, refinement or atomic coordinate data resulting 
# from the CCDC's data processing and validation procedures.
#
#######################################################################

data_AZUFAC
_symmetry_cell_setting           monoclinic
_symmetry_space_group_name_H-M   'P 21/c'
_symmetry_Int_Tables_number      14
_space_group_name_Hall           '-P 2ybc'
loop_
_symmetry_equiv_pos_site_id
_symmetry_equiv_pos_as_xyz
1 x,y,z
2 x,1/2-y,1/2+z
3 -x,-y,-z
4 -x,1/2+y,1/2-z
_cell_length_a                   11.8147(3)
_cell_length_b                   22.2102(5)
_cell_length_c                   11.8448(3)
_cell_angle_alpha                90
_cell_angle_beta                 106.0959(12)
_cell_angle_gamma                90
_cell_volume                     2986.31
loop_
_atom_site_label
_atom_site_type_symbol
_atom_site_fract_x
_atom_site_fract_y
_atom_site_fract_z
Tl1 Tl 0.25746(2) 0.490565(11) 0.53308(2)
Au1 Au 0.0000 0.5000 0.5000
Au2 Au 0.5000 0.5000 0.5000
C1 C 0.0212(5) 0.5620(3) 0.6340(5)
C2 C 0.0711(4) 0.6191(3) 0.6278(5)
C3 C 0.0747(5) 0.6649(2) 0.7097(6)
C4 C 0.0261(5) 0.6548(3) 0.8019(6)
C5 C -0.0232(5) 0.5991(3) 0.8140(5)
C6 C -0.0216(5) 0.5546(2) 0.7317(5)
Cl1 Cl 0.12454(14) 0.63498(7) 0.50823(15)
Cl2 Cl 0.13659(16) 0.73361(7) 0.69654(17)
Cl3 Cl 0.02385(16) 0.71216(8) 0.89980(16)
Cl4 Cl -0.08571(16) 0.58694(8) 0.92740(16)
Cl5 Cl -0.08556(14) 0.48526(7) 0.74908(16)
C7 C 0.4356(5) 0.5108(2) 0.3206(6)
C8 C 0.3650(4) 0.5598(2) 0.2712(5)
C9 C 0.3144(5) 0.5667(3) 0.1503(6)
C10 C 0.3332(5) 0.5231(3) 0.0735(6)
C11 C 0.4025(5) 0.4736(3) 0.1175(6)
C12 C 0.4556(5) 0.4691(3) 0.2383(5)
Cl6 Cl 0.34162(14) 0.61576(7) 0.36438(16)
Cl7 Cl 0.23009(16) 0.62884(8) 0.09541(17)
Cl8 Cl 0.26674(17) 0.52915(9) -0.07529(17)
Cl9 Cl 0.42405(17) 0.41828(8) 0.02319(16)
Cl10 Cl 0.54785(14) 0.40808(7) 0.29005(15)
N1 N 0.2381(4) 0.3735(2) 0.4511(5)
C13 C 0.2912(5) 0.3635(3) 0.3666(6)
H1 H 0.3248 0.3969 0.3376
C14 C 0.2999(6) 0.3079(3) 0.3195(6)
H2 H 0.3373 0.3035 0.2585
C15 C 0.2537(5) 0.2580(3) 0.3615(6)
C16 C 0.1971(6) 0.2680(3) 0.4480(6)
H3 H 0.1621 0.2354 0.4781
C17 C 0.1922(5) 0.3256(3) 0.4899(6)
H4 H 0.1539 0.3315 0.5498
N2 N 0.2781(4) 0.0835(2) 0.2178(5)
C18 C 0.3653(5) 0.1232(3) 0.2349(6)
H5 H 0.4341 0.1123 0.2131
C19 C 0.3610(5) 0.1793(3) 0.2825(6)
H6 H 0.4259 0.2060 0.2928
C20 C 0.2632(5) 0.1969(3) 0.3153(6)
C21 C 0.1726(5) 0.1551(3) 0.2990(6)
H7 H 0.1031 0.1645 0.3208
C22 C 0.1849(6) 0.0997(3) 0.2506(6)
H8 H 0.1222 0.0716 0.2404
C1B C -0.0212(5) 0.4380(3) 0.3660(5)
C2B C -0.0711(4) 0.3809(3) 0.3722(5)
C3B C -0.0747(5) 0.3351(2) 0.2903(6)
C4B C -0.0261(5) 0.3452(3) 0.1981(6)
C5B C 0.0232(5) 0.4009(3) 0.1860(5)
C6B C 0.0216(5) 0.4454(2) 0.2683(5)
Cl1B Cl -0.12454(14) 0.36502(7) 0.49177(15)
Cl2B Cl -0.13659(16) 0.26639(7) 0.30346(17)
Cl3B Cl -0.02385(16) 0.28784(8) 0.10020(16)
Cl4B Cl 0.08571(16) 0.41306(8) 0.07260(16)
Cl5B Cl 0.08556(14) 0.51474(7) 0.25092(16)
Tl1B Tl -0.25746(2) 0.509435(11) 0.46692(2)
N1A N 0.2381(4) 0.1265(2) 0.9511(5)
C13A C 0.2912(5) 0.1365(3) 0.8666(6)
H1A H 0.3248 0.1031 0.8376
C14A C 0.2999(6) 0.1921(3) 0.8195(6)
H2A H 0.3373 0.1965 0.7585
C15A C 0.2537(5) 0.2420(3) 0.8615(6)
C16A C 0.1971(6) 0.2320(3) 0.9480(6)
H3A H 0.1621 0.2646 0.9781
C17A C 0.1922(5) 0.1744(3) 0.9899(6)
H4A H 0.1539 0.1685 1.0498
N2A N 0.2781(4) 0.4165(2) 0.7178(5)
C18A C 0.3653(5) 0.3768(3) 0.7349(6)
H5A H 0.4341 0.3877 0.7131
C19A C 0.3610(5) 0.3207(3) 0.7825(6)
H6A H 0.4259 0.2940 0.7928
C20A C 0.2632(5) 0.3031(3) 0.8153(6)
C21A C 0.1726(5) 0.3449(3) 0.7990(6)
H7A H 0.1031 0.3355 0.8208
C22A C 0.1849(6) 0.4003(3) 0.7506(6)
H8A H 0.1222 0.4284 0.7404
C7B C 0.5644(5) 0.4892(2) 0.6794(6)
C8B C 0.6350(4) 0.4402(2) 0.7288(5)
C9B C 0.6856(5) 0.4333(3) 0.8497(6)
C10B C 0.6668(5) 0.4769(3) 0.9265(6)
C11B C 0.5975(5) 0.5264(3) 0.8825(6)
C12B C 0.5444(5) 0.5309(3) 0.7617(5)
Cl6B Cl 0.65838(14) 0.38424(7) 0.63562(16)
Cl7B Cl 0.76991(16) 0.37116(8) 0.90459(17)
Cl8B Cl 0.73326(17) 0.47085(9) 1.07529(17)
Cl9B Cl 0.57595(17) 0.58172(8) 0.97681(16)
Cl10B Cl 0.45215(14) 0.59192(7) 0.70995(15)
Tl1B_2 Tl 0.74254(2) 0.509435(11) 0.46692(2)
Tl1A Tl 0.25746(2) 0.009435(11) 0.03308(2)
Au2_2 Au -0.5000 0.5000 0.5000
N1B N -0.2381(4) 0.6265(2) 0.5489(5)
N2C N -0.2781(4) 0.5835(2) 0.2822(5)
Tl1A_2 Tl 0.25746(2) 0.009435(11) 1.03308(2)
loop_
_geom_bond_atom_site_label_1
_geom_bond_atom_site_label_2
_geom_bond_site_symmetry_1
_geom_bond_site_symmetry_2
Tl1 Au1 1_555 1_555
Au1 C1 1_555 1_555
Au2 Tl1 1_555 1_555
C1 C2 1_555 1_555
C2 C3 1_555 1_555
C3 C4 1_555 1_555
C4 C5 1_555 1_555
C5 C6 1_555 1_555
C6 C1 1_555 1_555
Cl1 C2 1_555 1_555
Cl2 C3 1_555 1_555
Cl3 C4 1_555 1_555
Cl4 C5 1_555 1_555
Cl5 C6 1_555 1_555
C7 Au2 1_555 1_555
C8 C7 1_555 1_555
C9 C8 1_555 1_555
C10 C9 1_555 1_555
C11 C10 1_555 1_555
C12 C7 1_555 1_555
Cl6 C8 1_555 1_555
Cl7 C9 1_555 1_555
Cl8 C10 1_555 1_555
Cl9 C11 1_555 1_555
Cl10 C12 1_555 1_555
N1 Tl1 1_555 1_555
C13 N1 1_555 1_555
H1 C13 1_555 1_555
C14 C13 1_555 1_555
H2 C14 1_555 1_555
C15 C14 1_555 1_555
C16 C15 1_555 1_555
H3 C16 1_555 1_555
C17 N1 1_555 1_555
H4 C17 1_555 1_555
N2 C18 1_555 1_555
C18 H5 1_555 1_555
C19 C18 1_555 1_555
H6 C19 1_555 1_555
C20 C15 1_555 1_555
C21 C20 1_555 1_555
H7 C21 1_555 1_555
C22 N2 1_555 1_555
H8 C22 1_555 1_555
C1B Au1 1_555 1_555
C2B C1B 1_555 1_555
C3B C2B 1_555 1_555
C4B C3B 1_555 1_555
C5B C4B 1_555 1_555
C6B C1B 1_555 1_555
Cl1B C2B 1_555 1_555
Cl2B C3B 1_555 1_555
Cl3B C4B 1_555 1_555
Cl4B C5B 1_555 1_555
Cl5B C6B 1_555 1_555
Tl1B Au1 1_555 1_555
N1A C13A 1_555 1_555
C13A H1A 1_555 1_555
C14A C13A 1_555 1_555
H2A C14A 1_555 1_555
C15A C14A 1_555 1_555
C16A C15A 1_555 1_555
H3A C16A 1_555 1_555
C17A N1A 1_555 1_555
H4A C17A 1_555 1_555
N2A Tl1 1_555 1_555
C18A N2A 1_555 1_555
H5A C18A 1_555 1_555
C19A C18A 1_555 1_555
H6A C19A 1_555 1_555
C20A C15A 1_555 1_555
C21A C20A 1_555 1_555
H7A C21A 1_555 1_555
C22A N2A 1_555 1_555
H8A C22A 1_555 1_555
C7B Au2 1_555 1_555
C8B C7B 1_555 1_555
C9B C8B 1_555 1_555
C10B C9B 1_555 1_555
C11B C10B 1_555 1_555
C12B C7B 1_555 1_555
Cl6B C8B 1_555 1_555
Cl7B C9B 1_555 1_555
Cl8B C10B 1_555 1_555
Cl9B C11B 1_555 1_555
Cl10B C12B 1_555 1_555
Tl1B_2 Au2 1_555 1_555
Tl1A N2 1_555 1_555
Au2_2 Tl1B 1_555 1_555
N1B Tl1B 1_555 1_555
N2C Tl1B 1_555 1_555
Tl1A_2 N1A 1_555 1_555
C11 C12 1_555 1_555
C16 C17 1_555 1_555
C19 C20 1_555 1_555
C21 C22 1_555 1_555
C5B C6B 1_555 1_555
C16A C17A 1_555 1_555
C19A C20A 1_555 1_555
C21A C22A 1_555 1_555
C11B C12B 1_555 1_555

#END
