
#######################################################################
#
#                 Cambridge Crystallographic Data Centre
#                                CCDC 
#
#######################################################################
#
# If this CIF has been generated from an entry in the Cambridge 
# Structural Database, then it will include bibliographic, chemical, 
# crystal, experimental, refinement or atomic coordinate data resulting 
# from the CCDC's data processing and validation procedures.
#
#######################################################################

data_AZULEM
_symmetry_cell_setting           triclinic
_symmetry_space_group_name_H-M   'P -1'
_symmetry_Int_Tables_number      2
_space_group_name_Hall           '-P 1'
loop_
_symmetry_equiv_pos_site_id
_symmetry_equiv_pos_as_xyz
1 x,y,z
2 -x,-y,-z
_cell_length_a                   10.6989(2)
_cell_length_b                   10.7307(2)
_cell_length_c                   13.7191(3)
_cell_angle_alpha                82.7600(8)
_cell_angle_beta                 81.7860(8)
_cell_angle_gamma                85.2540(15)
_cell_volume                     1543.09
loop_
_atom_site_label
_atom_site_type_symbol
_atom_site_fract_x
_atom_site_fract_y
_atom_site_fract_z
Ag1 Ag 0.554022(16) 0.458172(17) 0.859136(12)
S1 S 0.42186(5) 0.35133(5) 1.02003(4)
P1 P 0.36323(5) 0.53859(5) 0.78150(4)
P2 P 0.22993(5) 0.60480(5) 1.20794(4)
N1 N 0.33825(19) 0.12971(18) 1.09208(14)
H3 H 0.2650 0.1688 1.0814
C1 C 0.3746(2) 0.7008(2) 0.72336(15)
C2 C 0.4944(2) 0.7415(2) 0.68690(17)
H4 H 0.5669 0.6848 0.6918
C3 C 0.5088(3) 0.8647(2) 0.64339(18)
H5 H 0.5907 0.8914 0.6175
C4 C 0.4040(3) 0.9481(2) 0.63784(18)
H6 H 0.4139 1.0323 0.6084
C5 C 0.2846(2) 0.9094(2) 0.67504(17)
H7 H 0.2128 0.9673 0.6718
C6 C 0.2692(2) 0.7857(2) 0.71718(16)
H8 H 0.1869 0.7591 0.7417
C7 C 0.3250(2) 0.4524(2) 0.68450(16)
C8 C 0.2719(2) 0.3366(2) 0.71144(18)
H9 H 0.2569 0.3042 0.7795
C9 C 0.2407(3) 0.2682(2) 0.6401(2)
H10 H 0.2030 0.1902 0.6597
C10 C 0.2642(3) 0.3128(2) 0.5405(2)
H11 H 0.2423 0.2662 0.4917
C11 C 0.3198(3) 0.4256(3) 0.51296(19)
H12 H 0.3378 0.4557 0.4446
C12 C 0.3498(3) 0.4960(2) 0.58393(18)
H13 H 0.3874 0.5739 0.5638
C13 C 0.2156(2) 0.5368(2) 0.86773(16)
H14 H 0.2015 0.4490 0.8968
H15 H 0.1441 0.5677 0.8307
C14 C 0.2173(2) 0.6182(2) 0.95136(16)
H16 H 0.2039 0.7079 0.9254
H17 H 0.3015 0.6062 0.9745
C15 C 0.1158(2) 0.5858(2) 1.03884(16)
H18 H 0.0318 0.5971 1.0155
H19 H 0.1297 0.4961 1.0649
C16 C 0.1160(2) 0.6677(2) 1.12319(16)
H20 H 0.1369 0.7539 1.0943
H21 H 0.0301 0.6731 1.1611
C17 C 0.2189(2) 0.7217(2) 1.29496(16)
C18 C 0.3173(2) 0.7225(2) 1.35234(17)
H22 H 0.3875 0.6624 1.3456
C19 C 0.3129(3) 0.8106(2) 1.41904(18)
H23 H 0.3790 0.8094 1.4587
C20 C 0.2123(3) 0.9000(2) 1.42768(18)
H24 H 0.2099 0.9608 1.4727
C21 C 0.1157(3) 0.9011(2) 1.37103(18)
H25 H 0.0469 0.9628 1.3772
C22 C 0.1181(2) 0.8124(2) 1.30483(17)
H26 H 0.0509 0.8136 1.2663
C23 C 0.1475(2) 0.4722(2) 1.27844(16)
C24 C 0.0465(2) 0.4876(2) 1.35357(17)
H27 H 0.0208 0.5691 1.3723
C25 C -0.0164(2) 0.3843(2) 1.40078(18)
H28 H -0.0846 0.3953 1.4521
C26 C 0.0193(2) 0.2654(2) 1.37387(18)
H29 H -0.0239 0.1949 1.4068
C27 C 0.1183(2) 0.2492(2) 1.29876(18)
H30 H 0.1422 0.1677 1.2795
C28 C 0.1829(2) 0.3520(2) 1.25157(17)
H31 H 0.2515 0.3403 1.2007
C29 C 0.4435(2) 0.1952(2) 1.06738(15)
C30 C 0.5589(2) 0.1294(2) 1.08360(17)
H32 H 0.6355 0.1708 1.0665
C31 C 0.5620(2) 0.0051(2) 1.12423(17)
H33 H 0.6408 -0.0386 1.1347
C32 C 0.4507(3) -0.0566(2) 1.14998(18)
H34 H 0.4521 -0.1417 1.1793
C33 C 0.3391(2) 0.0080(2) 1.13208(18)
H35 H 0.2621 -0.0328 1.1478
S1A S 0.57814(5) 0.64867(5) 0.97997(4)
P2A P 0.77007(5) 0.39520(5) 0.79206(4)
Ag1A Ag 0.445978(16) 0.541828(17) 1.140864(12)
O1 O 0.86964(18) 0.05819(17) 1.04570(13)
O2 O 0.97471(19) 0.04902(19) 1.17119(14)
O3 O 0.87502(18) -0.11195(17) 1.14951(14)
N2 N 0.90647(19) -0.0011(2) 1.12178(15)
O4 O 1.11544(18) 0.21533(18) 1.03398(16)
H1 H 1.122(3) 0.182(3) 0.9768(17)
H2 H 1.061(3) 0.168(3) 1.076(2)
loop_
_geom_bond_atom_site_label_1
_geom_bond_atom_site_label_2
_geom_bond_site_symmetry_1
_geom_bond_site_symmetry_2
Ag1 S1 1_555 1_555
S1 C29 1_555 1_555
P1 Ag1 1_555 1_555
P2 C16 1_555 1_555
O1 N2 1_555 1_555
O2 N2 1_555 1_555
O3 N2 1_555 1_555
O4 H1 1_555 1_555
H2 O4 1_555 1_555
N1 H3 1_555 1_555
C1 P1 1_555 1_555
C2 C1 1_555 1_555
H4 C2 1_555 1_555
C3 C2 1_555 1_555
H5 C3 1_555 1_555
C4 C3 1_555 1_555
H6 C4 1_555 1_555
C5 C4 1_555 1_555
H7 C5 1_555 1_555
C6 C1 1_555 1_555
H8 C6 1_555 1_555
C7 P1 1_555 1_555
C8 C7 1_555 1_555
H9 C8 1_555 1_555
C9 C8 1_555 1_555
H10 C9 1_555 1_555
C10 C9 1_555 1_555
H11 C10 1_555 1_555
C11 C10 1_555 1_555
H12 C11 1_555 1_555
C12 C7 1_555 1_555
H13 C12 1_555 1_555
C13 P1 1_555 1_555
H14 C13 1_555 1_555
H15 C13 1_555 1_555
C14 C13 1_555 1_555
H16 C14 1_555 1_555
H17 C14 1_555 1_555
C15 C14 1_555 1_555
H18 C15 1_555 1_555
H19 C15 1_555 1_555
C16 C15 1_555 1_555
H20 C16 1_555 1_555
H21 C16 1_555 1_555
C17 P2 1_555 1_555
C18 C17 1_555 1_555
H22 C18 1_555 1_555
C19 C18 1_555 1_555
H23 C19 1_555 1_555
C20 C19 1_555 1_555
H24 C20 1_555 1_555
C21 C20 1_555 1_555
H25 C21 1_555 1_555
C22 C17 1_555 1_555
H26 C22 1_555 1_555
C23 P2 1_555 1_555
C24 C23 1_555 1_555
H27 C24 1_555 1_555
C25 C24 1_555 1_555
H28 C25 1_555 1_555
C26 C25 1_555 1_555
H29 C26 1_555 1_555
C27 C26 1_555 1_555
H30 C27 1_555 1_555
C28 C23 1_555 1_555
H31 C28 1_555 1_555
C29 N1 1_555 1_555
C30 C29 1_555 1_555
H32 C30 1_555 1_555
C31 C30 1_555 1_555
H33 C31 1_555 1_555
C32 C31 1_555 1_555
H34 C32 1_555 1_555
C33 N1 1_555 1_555
H35 C33 1_555 1_555
S1A Ag1 1_555 1_555
P2A Ag1 1_555 1_555
Ag1A S1 1_555 1_555
P2 Ag1A 1_555 1_555
C5 C6 1_555 1_555
C11 C12 1_555 1_555
C21 C22 1_555 1_555
C27 C28 1_555 1_555
C32 C33 1_555 1_555
S1A Ag1A 1_555 1_555

#END
