
#######################################################################
#
#                 Cambridge Crystallographic Data Centre
#                                CCDC 
#
#######################################################################
#
# If this CIF has been generated from an entry in the Cambridge 
# Structural Database, then it will include bibliographic, chemical, 
# crystal, experimental, refinement or atomic coordinate data resulting 
# from the CCDC's data processing and validation procedures.
#
#######################################################################

data_AZULAI
_symmetry_cell_setting           monoclinic
_symmetry_space_group_name_H-M   'P 21/n'
_symmetry_Int_Tables_number      14
_space_group_name_Hall           '-P 2yn'
loop_
_symmetry_equiv_pos_site_id
_symmetry_equiv_pos_as_xyz
1 x,y,z
2 1/2+x,1/2-y,1/2+z
3 -x,-y,-z
4 1/2-x,1/2+y,1/2-z
_cell_length_a                   14.33580(10)
_cell_length_b                   14.9951(2)
_cell_length_c                   16.4825(2)
_cell_angle_alpha                90
_cell_angle_beta                 94.99
_cell_angle_gamma                90
_cell_volume                     3529.76
loop_
_atom_site_label
_atom_site_type_symbol
_atom_site_fract_x
_atom_site_fract_y
_atom_site_fract_z
Ag1 Ag 0.242863(9) 0.043104(10) 0.492826(8)
S1 S 0.25473(4) 0.03855(3) 0.65439(3)
S2 S 0.24610(4) -0.13039(3) 0.51513(3)
P1 P 0.39054(3) 0.08837(3) 0.44053(3)
P2 P 0.08769(3) 0.08807(4) 0.42981(3)
N1 N 0.29091(13) 0.21093(12) 0.63655(11)
N2 N 0.25791(13) 0.16425(12) 0.76671(10)
H1 H 0.2485 0.1203 0.8005
N3 N 0.20403(12) -0.26642(12) 0.41838(10)
H2 H 0.2303 -0.2985 0.4589
N4 N 0.15735(12) -0.12656(12) 0.36606(10)
C1 C 0.27011(14) 0.14437(14) 0.68702(11)
C2 C 0.29259(17) 0.29325(16) 0.66473(14)
H3 H 0.3062 0.3398 0.6285
C3 C 0.27586(18) 0.31676(16) 0.74372(14)
H4 H 0.2756 0.3773 0.7608
C4 C 0.25988(17) 0.24886(16) 0.79521(14)
H5 H 0.2502 0.2606 0.8505
C5 C 0.19905(13) -0.17616(13) 0.42757(11)
C6 C 0.17040(17) -0.30827(16) 0.34992(14)
H6 H 0.1748 -0.3713 0.3456
C7 C 0.13007(18) -0.25936(17) 0.28695(14)
H7 H 0.1066 -0.2865 0.2372
C8 C 0.12484(17) -0.16814(16) 0.29868(13)
H8 H 0.0960 -0.1331 0.2555
C9 C 0.49801(13) 0.05095(12) 0.49887(12)
H9 H 0.5531 0.0744 0.4735
H10 H 0.4999 0.0745 0.5551
C10 C 0.40556(13) 0.20903(13) 0.43416(11)
C11 C 0.48929(14) 0.25146(14) 0.41973(12)
H11 H 0.5434 0.2170 0.4119
C12 C 0.49368(16) 0.34390(15) 0.41682(13)
H12 H 0.5505 0.3724 0.4061
C13 C 0.41568(17) 0.39488(15) 0.42941(13)
H13 H 0.4192 0.4581 0.4275
C14 C 0.33242(16) 0.35376(14) 0.44473(13)
H14 H 0.2789 0.3886 0.4535
C15 C 0.32781(14) 0.26167(14) 0.44715(12)
H15 H 0.2707 0.2337 0.4578
C16 C 0.40433(14) 0.04335(13) 0.33923(11)
C17 C 0.48961(15) 0.04047(15) 0.30410(13)
H16 H 0.5440 0.0662 0.3318
C18 C 0.49513(17) 0.00004(17) 0.22875(14)
H17 H 0.5532 -0.0014 0.2051
C19 C 0.41661(19) -0.03806(16) 0.18806(13)
H18 H 0.4209 -0.0657 0.1367
C20 C 0.33166(18) -0.03584(15) 0.22235(13)
H19 H 0.2776 -0.0619 0.1945
C21 C 0.32589(15) 0.00455(14) 0.29762(12)
H20 H 0.2676 0.0057 0.3210
C22 C -0.00277(13) 0.00842(14) 0.45411(12)
H21 H -0.0653 0.0323 0.4354
H22 H 0.0059 -0.0485 0.4252
C23 C 0.04507(13) 0.19499(14) 0.46549(12)
C24 C 0.08051(17) 0.22530(17) 0.54113(15)
H23 H 0.1228 0.1889 0.5740
C25 C 0.05521(19) 0.3079(2) 0.56966(18)
H24 H 0.0802 0.3278 0.6218
C26 C -0.00615(17) 0.36141(16) 0.52269(16)
H25 H -0.0229 0.4185 0.5418
C27 C -0.04294(16) 0.33137(16) 0.44787(15)
H26 H -0.0858 0.3677 0.4154
C28 C -0.01802(15) 0.24861(16) 0.41949(13)
H27 H -0.0445 0.2283 0.3679
C29 C 0.06771(14) 0.10231(15) 0.31978(12)
C30 C 0.11738(15) 0.16888(18) 0.28364(13)
H28 H 0.1639 0.2015 0.3158
C31 C 0.10018(18) 0.1884(2) 0.20152(15)
H29 H 0.1334 0.2352 0.1780
C32 C 0.03438(19) 0.1393(2) 0.15380(14)
H30 H 0.0226 0.1522 0.0974
C33 C -0.01384(19) 0.07194(18) 0.18825(14)
H31 H -0.0581 0.0377 0.1552
C34 C 0.00155(16) 0.05350(15) 0.27107(13)
H32 H -0.0331 0.0076 0.2945
C9B C 0.50199(13) -0.05095(12) 0.50113(12)
P1B P 0.60946(3) -0.08837(3) 0.55947(3)
C10B C 0.59444(13) -0.20903(13) 0.56584(11)
C11B C 0.51071(14) -0.25146(14) 0.58027(12)
H11B H 0.4566 -0.2170 0.5881
C12B C 0.50632(16) -0.34390(15) 0.58318(13)
H12B H 0.4495 -0.3724 0.5939
C13B C 0.58432(17) -0.39488(15) 0.57059(13)
H13B H 0.5808 -0.4581 0.5725
C14B C 0.66758(16) -0.35376(14) 0.55527(13)
H14B H 0.7211 -0.3886 0.5465
C15B C 0.67219(14) -0.26167(14) 0.55285(12)
H15B H 0.7293 -0.2337 0.5422
C16B C 0.59567(14) -0.04335(13) 0.66077(11)
C17B C 0.51039(15) -0.04047(15) 0.69590(13)
H16B H 0.4560 -0.0662 0.6682
C18B C 0.50487(17) -0.00004(17) 0.77125(14)
H17B H 0.4468 0.0014 0.7949
C19B C 0.58339(19) 0.03806(16) 0.81194(13)
H18B H 0.5791 0.0657 0.8633
C20B C 0.66834(18) 0.03584(15) 0.77765(13)
H19B H 0.7224 0.0619 0.8055
C21B C 0.67411(15) -0.00455(14) 0.70238(12)
H20B H 0.7324 -0.0057 0.6790
H9B H 0.4469 -0.0744 0.5265
H10B H 0.5001 -0.0745 0.4449
C22B C 0.00277(13) -0.00842(14) 0.54589(12)
P2B P -0.08769(3) -0.08807(4) 0.57019(3)
C23B C -0.04507(13) -0.19499(14) 0.53451(12)
C24B C -0.08051(17) -0.22530(17) 0.45887(15)
H23B H -0.1228 -0.1889 0.4260
C25B C -0.05521(19) -0.3079(2) 0.43034(18)
H24B H -0.0802 -0.3278 0.3782
C26B C 0.00615(17) -0.36141(16) 0.47731(16)
H25B H 0.0229 -0.4185 0.4582
C27B C 0.04294(16) -0.33137(16) 0.55213(15)
H26B H 0.0858 -0.3677 0.5846
C28B C 0.01802(15) -0.24861(16) 0.58051(13)
H27B H 0.0445 -0.2283 0.6321
C29B C -0.06771(14) -0.10231(15) 0.68022(12)
C30B C -0.11738(15) -0.16888(18) 0.71636(13)
H28B H -0.1639 -0.2015 0.6842
C31B C -0.10018(18) -0.1884(2) 0.79848(15)
H29B H -0.1334 -0.2352 0.8220
C32B C -0.03438(19) -0.1393(2) 0.84620(14)
H30B H -0.0226 -0.1522 0.9026
C33B C 0.01384(19) -0.07194(18) 0.81175(14)
H31B H 0.0581 -0.0377 0.8448
C34B C -0.00155(16) -0.05350(15) 0.72893(13)
H32B H 0.0331 -0.0076 0.7055
H21B H 0.0653 -0.0323 0.5646
H22B H -0.0059 0.0485 0.5748
Ag1B Ag 0.757137(9) -0.043104(10) 0.507174(8)
S1B S 0.74527(4) -0.03855(3) 0.34561(3)
N1B N 0.70909(13) -0.21093(12) 0.36345(11)
N2B N 0.74209(13) -0.16425(12) 0.23329(10)
H1B H 0.7515 -0.1203 0.1995
C1B C 0.72989(14) -0.14437(14) 0.31298(11)
C2B C 0.70741(17) -0.29325(16) 0.33527(14)
H3B H 0.6938 -0.3398 0.3715
C3B C 0.72414(18) -0.31676(16) 0.25628(14)
H4B H 0.7244 -0.3773 0.2392
C4B C 0.74012(17) -0.24886(16) 0.20479(14)
H5B H 0.7498 -0.2606 0.1495
S2B S 0.75390(4) 0.13039(3) 0.48487(3)
N3B N 0.79597(12) 0.26642(12) 0.58162(10)
H2B H 0.7697 0.2985 0.5411
N4B N 0.84265(12) 0.12656(12) 0.63394(10)
C5B C 0.80095(13) 0.17616(13) 0.57243(11)
C6B C 0.82960(17) 0.30827(16) 0.65008(14)
H6B H 0.8252 0.3713 0.6544
C7B C 0.86993(18) 0.25936(17) 0.71305(14)
H7B H 0.8934 0.2865 0.7628
C8B C 0.87516(17) 0.16814(16) 0.70132(13)
H8B H 0.9040 0.1331 0.7445
Ag1B_2 Ag -0.242863(9) -0.043104(10) 0.507174(8)
P2B_2 P 0.91231(3) -0.08807(4) 0.57019(3)
O1 O 0.21150(14) 0.52837(11) 0.48564(10)
O2 O 0.27731(11) 0.63917(11) 0.55306(10)
O3 O 0.24649(15) 0.51758(12) 0.61625(10)
N5 N 0.24512(14) 0.56045(13) 0.55090(11)
loop_
_geom_bond_atom_site_label_1
_geom_bond_atom_site_label_2
_geom_bond_site_symmetry_1
_geom_bond_site_symmetry_2
Ag1 S1 1_555 1_555
S1 C1 1_555 1_555
S2 Ag1 1_555 1_555
P1 Ag1 1_555 1_555
P2 Ag1 1_555 1_555
O1 N5 1_555 1_555
O2 N5 1_555 1_555
O3 N5 1_555 1_555
N1 C1 1_555 1_555
N2 H1 1_555 1_555
N3 H2 1_555 1_555
N4 C5 1_555 1_555
C1 N2 1_555 1_555
C2 N1 1_555 1_555
H3 C2 1_555 1_555
C3 C2 1_555 1_555
H4 C3 1_555 1_555
C4 N2 1_555 1_555
H5 C4 1_555 1_555
C5 S2 1_555 1_555
C6 N3 1_555 1_555
H6 C6 1_555 1_555
C7 C6 1_555 1_555
H7 C7 1_555 1_555
C8 N4 1_555 1_555
H8 C8 1_555 1_555
C9 P1 1_555 1_555
H9 C9 1_555 1_555
H10 C9 1_555 1_555
C10 P1 1_555 1_555
C11 C10 1_555 1_555
H11 C11 1_555 1_555
C12 C11 1_555 1_555
H12 C12 1_555 1_555
C13 C12 1_555 1_555
H13 C13 1_555 1_555
C14 C13 1_555 1_555
H14 C14 1_555 1_555
C15 C10 1_555 1_555
H15 C15 1_555 1_555
C16 P1 1_555 1_555
C17 C16 1_555 1_555
H16 C17 1_555 1_555
C18 C17 1_555 1_555
H17 C18 1_555 1_555
C19 C18 1_555 1_555
H18 C19 1_555 1_555
C20 C19 1_555 1_555
H19 C20 1_555 1_555
C21 C16 1_555 1_555
H20 C21 1_555 1_555
C22 P2 1_555 1_555
H21 C22 1_555 1_555
H22 C22 1_555 1_555
C23 P2 1_555 1_555
C24 C23 1_555 1_555
H23 C24 1_555 1_555
C25 C24 1_555 1_555
H24 C25 1_555 1_555
C26 C25 1_555 1_555
H25 C26 1_555 1_555
C27 C26 1_555 1_555
H26 C27 1_555 1_555
C28 C23 1_555 1_555
H27 C28 1_555 1_555
C29 P2 1_555 1_555
C30 C29 1_555 1_555
H28 C30 1_555 1_555
C31 C30 1_555 1_555
H29 C31 1_555 1_555
C32 C31 1_555 1_555
H30 C32 1_555 1_555
C33 C32 1_555 1_555
H31 C33 1_555 1_555
C34 C29 1_555 1_555
H32 C34 1_555 1_555
C9B C9 1_555 1_555
P1B C9B 1_555 1_555
C10B P1B 1_555 1_555
C11B C10B 1_555 1_555
H11B C11B 1_555 1_555
C12B C11B 1_555 1_555
H12B C12B 1_555 1_555
C13B C12B 1_555 1_555
H13B C13B 1_555 1_555
C14B C13B 1_555 1_555
H14B C14B 1_555 1_555
C15B C10B 1_555 1_555
H15B C15B 1_555 1_555
C16B P1B 1_555 1_555
C17B C16B 1_555 1_555
H16B C17B 1_555 1_555
C18B C17B 1_555 1_555
H17B C18B 1_555 1_555
C19B C18B 1_555 1_555
H18B C19B 1_555 1_555
C20B C19B 1_555 1_555
H19B C20B 1_555 1_555
C21B C16B 1_555 1_555
H20B C21B 1_555 1_555
H9B C9B 1_555 1_555
H10B C9B 1_555 1_555
C22B C22 1_555 1_555
P2B C22B 1_555 1_555
C23B P2B 1_555 1_555
C24B C23B 1_555 1_555
H23B C24B 1_555 1_555
C25B C24B 1_555 1_555
H24B C25B 1_555 1_555
C26B C25B 1_555 1_555
H25B C26B 1_555 1_555
C27B C26B 1_555 1_555
H26B C27B 1_555 1_555
C28B C23B 1_555 1_555
H27B C28B 1_555 1_555
C29B P2B 1_555 1_555
C30B C29B 1_555 1_555
H28B C30B 1_555 1_555
C31B C30B 1_555 1_555
H29B C31B 1_555 1_555
C32B C31B 1_555 1_555
H30B C32B 1_555 1_555
C33B C32B 1_555 1_555
H31B C33B 1_555 1_555
C34B C29B 1_555 1_555
H32B C34B 1_555 1_555
H21B C22B 1_555 1_555
H22B C22B 1_555 1_555
Ag1B P1B 1_555 1_555
S1B Ag1B 1_555 1_555
N1B C1B 1_555 1_555
N2B H1B 1_555 1_555
C1B S1B 1_555 1_555
C2B N1B 1_555 1_555
H3B C2B 1_555 1_555
C3B C2B 1_555 1_555
H4B C3B 1_555 1_555
C4B N2B 1_555 1_555
H5B C4B 1_555 1_555
S2B Ag1B 1_555 1_555
N3B H2B 1_555 1_555
N4B C5B 1_555 1_555
C5B S2B 1_555 1_555
C6B N3B 1_555 1_555
H6B C6B 1_555 1_555
C7B C6B 1_555 1_555
H7B C7B 1_555 1_555
C8B N4B 1_555 1_555
H8B C8B 1_555 1_555
Ag1B_2 P2B 1_555 1_555
P2B_2 Ag1B 1_555 1_555
N3 C5 1_555 1_555
C3 C4 1_555 1_555
C7 C8 1_555 1_555
C14 C15 1_555 1_555
C20 C21 1_555 1_555
C27 C28 1_555 1_555
C33 C34 1_555 1_555
C14B C15B 1_555 1_555
C20B C21B 1_555 1_555
C27B C28B 1_555 1_555
C33B C34B 1_555 1_555
N2B C1B 1_555 1_555
C3B C4B 1_555 1_555
N3B C5B 1_555 1_555
C7B C8B 1_555 1_555

#END
