
#######################################################################
#
#                 Cambridge Crystallographic Data Centre
#                                CCDC 
#
#######################################################################
#
# If this CIF has been generated from an entry in the Cambridge 
# Structural Database, then it will include bibliographic, chemical, 
# crystal, experimental, refinement or atomic coordinate data resulting 
# from the CCDC's data processing and validation procedures.
#
#######################################################################

data_BABDEP
_symmetry_cell_setting           orthorhombic
_symmetry_space_group_name_H-M   'P c a 21'
_symmetry_Int_Tables_number      29
_space_group_name_Hall           'P 2c -2ac'
loop_
_symmetry_equiv_pos_site_id
_symmetry_equiv_pos_as_xyz
1 x,y,z
2 1/2-x,y,1/2+z
3 1/2+x,-y,z
4 -x,-y,1/2+z
_cell_length_a                   24.636(8)
_cell_length_b                   7.932(3)
_cell_length_c                   7.200(2)
_cell_angle_alpha                90
_cell_angle_beta                 90
_cell_angle_gamma                90
_cell_volume                     1406.97
loop_
_atom_site_label
_atom_site_type_symbol
_atom_site_fract_x
_atom_site_fract_y
_atom_site_fract_z
Zn1 Zn 0.344473(16) 1.05341(5) 0.32997(8)
O1 O 0.48039(13) 0.2928(4) 0.4601(6)
O2 O 0.34256(12) 1.2308(4) 0.5214(4)
O4 O 0.60107(10) -0.2130(3) 0.3276(6)
O5 O 0.62380(12) -0.1760(4) 0.6227(4)
O6 O 0.72509(12) -0.1528(4) 0.3775(7)
O7 O 0.77704(11) 0.0675(3) 0.3103(7)
N1 N 0.55400(14) 0.4611(4) 0.4068(5)
H1 H 0.5635 0.5674 0.3933
N2 N 0.39415(13) 0.8586(4) 0.3996(5)
C1 C 0.59634(16) 0.3412(5) 0.3960(6)
C2 C 0.58864(17) 0.1687(5) 0.4288(6)
H2 H 0.5537 0.1271 0.4602
C3 C 0.63229(17) 0.0588(5) 0.4152(6)
C4 C 0.68440(16) 0.1179(5) 0.3675(6)
C5 C 0.69110(15) 0.2896(5) 0.3350(10)
H3 H 0.7261 0.3320 0.3050
C6 C 0.64775(16) 0.3994(5) 0.3456(11)
H4 H 0.6529 0.5155 0.3185
C7 C 0.50039(19) 0.4313(5) 0.4357(6)
C8 C 0.37836(16) 0.7031(5) 0.3522(9)
H5 H 0.3425 0.6876 0.3065
C9 C 0.41185(17) 0.5644(5) 0.3668(6)
H6 H 0.3989 0.4555 0.3347
C10 C 0.46458(18) 0.5859(5) 0.4290(6)
C11 C 0.48070(17) 0.7454(6) 0.4860(6)
H7 H 0.5158 0.7628 0.5376
C12 C 0.44481(17) 0.8792(6) 0.4666(7)
H8 H 0.4563 0.9890 0.5017
C13 C 0.61990(16) -0.1238(5) 0.4571(6)
C14 C 0.73164(15) 0.0007(5) 0.3521(8)
Zn1B Zn 0.844473(16) -0.05341(5) 0.32997(8)
Zn1C Zn 0.655527(16) -0.05341(5) 0.82997(8)
O5C O 0.37620(12) 1.1760(4) 0.1227(4)
O7B O 0.27704(11) 0.9325(3) 0.3103(7)
O3 O 0.7492(3) 0.6139(8) 0.6370(10)
loop_
_geom_bond_atom_site_label_1
_geom_bond_atom_site_label_2
_geom_bond_site_symmetry_1
_geom_bond_site_symmetry_2
Zn1 O2 1_555 1_555
O1 C7 1_555 1_555
O4 C13 1_555 1_555
O5 C13 1_555 1_555
O6 C14 1_555 1_555
O7 C14 1_555 1_555
N1 H1 1_555 1_555
N2 Zn1 1_555 1_555
C1 N1 1_555 1_555
C2 C1 1_555 1_555
H2 C2 1_555 1_555
C3 C2 1_555 1_555
C4 C3 1_555 1_555
C5 C4 1_555 1_555
H3 C5 1_555 1_555
C6 C1 1_555 1_555
H4 C6 1_555 1_555
C7 N1 1_555 1_555
C8 N2 1_555 1_555
H5 C8 1_555 1_555
C9 C8 1_555 1_555
H6 C9 1_555 1_555
C10 C7 1_555 1_555
C11 C10 1_555 1_555
H7 C11 1_555 1_555
C12 N2 1_555 1_555
H8 C12 1_555 1_555
C13 C3 1_555 1_555
C14 C4 1_555 1_555
Zn1B O7 1_555 1_555
Zn1C O5 1_555 1_555
O5C Zn1 1_555 1_555
O7B Zn1 1_555 1_555
C5 C6 1_555 1_555
C9 C10 1_555 1_555
C11 C12 1_555 1_555

#END
