
#######################################################################
#
#                 Cambridge Crystallographic Data Centre
#                                CCDC 
#
#######################################################################
#
# If this CIF has been generated from an entry in the Cambridge 
# Structural Database, then it will include bibliographic, chemical, 
# crystal, experimental, refinement or atomic coordinate data resulting 
# from the CCDC's data processing and validation procedures.
#
#######################################################################

data_BABDIT
_symmetry_cell_setting           monoclinic
_symmetry_space_group_name_H-M   'P 21/n'
_symmetry_Int_Tables_number      14
_space_group_name_Hall           '-P 2yn'
loop_
_symmetry_equiv_pos_site_id
_symmetry_equiv_pos_as_xyz
1 x,y,z
2 1/2-x,1/2+y,1/2-z
3 -x,-y,-z
4 1/2+x,1/2-y,1/2+z
_cell_length_a                   9.1382(10)
_cell_length_b                   11.8973(13)
_cell_length_c                   22.921(3)
_cell_angle_alpha                90
_cell_angle_beta                 92.059(2)
_cell_angle_gamma                90
_cell_volume                     2490.36
loop_
_atom_site_label
_atom_site_type_symbol
_atom_site_fract_x
_atom_site_fract_y
_atom_site_fract_z
Cd1 Cd 0.64171(3) 0.43372(2) 1.053822(12)
C1 C 1.3702(4) 0.4221(3) 0.65181(16)
C2 C 1.2537(4) 0.2342(3) 0.62304(17)
C3 C 1.2776(4) 0.3331(3) 0.66374(16)
C4 C 0.4450(4) 0.4783(3) 1.16825(18)
H1 H 0.4991 0.5445 1.1695
C5 C 0.3765(4) 0.3181(3) 1.12165(18)
H2 H 0.3812 0.2708 1.0895
C6 C 0.3570(4) 0.4554(3) 1.21469(18)
H3 H 0.3518 0.5053 1.2458
C7 C -0.1111(4) 0.1650(3) 1.44074(19)
C8 C 1.1864(4) 0.4328(3) 0.74650(16)
C9 C 0.8560(4) 0.5039(3) 0.95122(17)
H4 H 0.8431 0.5758 0.9661
C10 C 1.0198(4) 0.3604(3) 0.82012(17)
C11 C 1.1881(4) 0.3372(3) 0.71100(15)
H5 H 1.1287 0.2761 0.7193
C12 C 0.9321(4) 0.4923(3) 0.90039(16)
H6 H 0.9696 0.5553 0.8821
C13 C -0.2359(4) 0.3869(3) 1.48924(18)
C14 C -0.0701(4) 0.4847(3) 1.42327(17)
H7 H -0.0992 0.5520 1.4400
C15 C 0.0204(4) 0.2860(3) 1.37435(17)
H8 H 0.0525 0.2193 1.3579
C16 C 0.9518(4) 0.3868(3) 0.87701(16)
C17 C 0.1815(5) 0.3182(3) 1.26215(19)
C18 C -0.0735(4) 0.2824(3) 1.42052(16)
C19 C 0.0669(4) 0.3880(3) 1.35245(17)
C20 C 0.8961(4) 0.2964(3) 0.90758(17)
H9 H 0.9076 0.2235 0.8937
C21 C 0.0237(4) 0.4871(3) 1.37827(17)
H10 H 0.0586 0.5555 1.3649
C22 C 0.2769(4) 0.3565(3) 1.21375(17)
C23 C -0.1231(4) 0.3836(3) 1.44459(17)
C24 C 0.8244(4) 0.3147(3) 0.95805(17)
H11 H 0.7905 0.2528 0.9783
C25 C 1.4776(4) 0.4137(3) 0.60521(18)
C26 C 1.2718(4) 0.5246(3) 0.73180(17)
H12 H 1.2670 0.5905 0.7535
C27 C 0.2879(4) 0.2880(3) 1.16585(17)
H13 H 0.2350 0.2212 1.1635
C28 C 1.3628(4) 0.5190(3) 0.68578(17)
H14 H 1.4205 0.5807 0.6770
N1 N 0.1577(4) 0.3960(3) 1.30424(15)
H15 H 0.2043 0.4583 1.3010
N2 N 0.4572(3) 0.4123(2) 1.12227(14)
N3 N 1.1022(3) 0.4425(2) 0.79645(13)
H16 H 1.1031 0.5067 0.8137
N4 N 0.8004(3) 0.4173(2) 0.97993(13)
O1 O -0.2965(3) 0.2986(2) 1.50550(13)
O2 O -0.2679(3) 0.4834(2) 1.50800(14)
H17 H -0.3309 0.4776 1.5324
O3 O -0.0465(3) 0.1248(2) 1.48484(12)
O4 O -0.1966(3) 0.1090(2) 1.40864(12)
O5 O 0.1319(4) 0.2239(2) 1.26258(14)
O6 O 1.2941(3) 0.13781(19) 0.63940(11)
O7 O 1.1820(3) 0.2527(2) 0.57680(11)
O8 O 1.4970(3) 0.3219(2) 0.57980(12)
O9 O 1.5516(3) 0.5008(2) 0.59483(14)
H18 H 1.6077 0.4876 0.5685
O10 O 0.9985(3) 0.2693(2) 0.79741(12)
Cd1A Cd -0.14171(3) -0.06628(2) 1.446178(12)
Cd1C Cd 0.14171(3) 0.06628(2) 1.553822(12)
Cd1C_2 Cd 1.14171(3) 0.06628(2) 0.553822(12)
O3A O 0.5465(3) 0.6248(2) 1.01516(12)
O3C O 0.4535(3) 0.3752(2) 0.98484(12)
O4A O 0.6966(3) 0.6090(2) 1.09136(12)
O6C O 0.7941(3) 0.36219(19) 1.13940(11)
O7C O 0.6820(3) 0.2473(2) 1.07680(11)
loop_
_geom_bond_atom_site_label_1
_geom_bond_atom_site_label_2
_geom_bond_site_symmetry_1
_geom_bond_site_symmetry_2
Cd1 N2 1_555 1_555
C1 C3 1_555 1_555
C2 C3 1_555 1_555
C3 C11 1_555 1_555
C4 H1 1_555 1_555
C5 H2 1_555 1_555
C6 C4 1_555 1_555
H3 C6 1_555 1_555
C7 C18 1_555 1_555
C8 C11 1_555 1_555
C9 H4 1_555 1_555
C10 C16 1_555 1_555
C11 H5 1_555 1_555
C12 C9 1_555 1_555
H6 C12 1_555 1_555
C13 C23 1_555 1_555
C14 H7 1_555 1_555
C15 H8 1_555 1_555
C16 C12 1_555 1_555
C17 C22 1_555 1_555
C18 C15 1_555 1_555
C19 C15 1_555 1_555
C20 C16 1_555 1_555
H9 C20 1_555 1_555
C21 C14 1_555 1_555
H10 C21 1_555 1_555
C22 C6 1_555 1_555
C23 C14 1_555 1_555
C24 C20 1_555 1_555
H11 C24 1_555 1_555
C25 C1 1_555 1_555
C26 C8 1_555 1_555
H12 C26 1_555 1_555
C27 C5 1_555 1_555
H13 C27 1_555 1_555
C28 C1 1_555 1_555
H14 C28 1_555 1_555
N1 C17 1_555 1_555
H15 N1 1_555 1_555
N2 C4 1_555 1_555
N3 C8 1_555 1_555
H16 N3 1_555 1_555
N4 Cd1 1_555 1_555
O1 C13 1_555 1_555
O2 C13 1_555 1_555
H17 O2 1_555 1_555
O3 C7 1_555 1_555
O4 C7 1_555 1_555
O5 C17 1_555 1_555
O6 C2 1_555 1_555
O7 C2 1_555 1_555
O8 C25 1_555 1_555
O9 C25 1_555 1_555
H18 O9 1_555 1_555
O10 C10 1_555 1_555
Cd1A O3 1_555 1_555
Cd1C O3 1_555 1_555
Cd1C_2 O6 1_555 1_555
O3A Cd1 1_555 1_555
O3C Cd1 1_555 1_555
O4A Cd1 1_555 1_555
O6C Cd1 1_555 1_555
O7C Cd1 1_555 1_555
C5 N2 1_555 1_555
C9 N4 1_555 1_555
C10 N3 1_555 1_555
C18 C23 1_555 1_555
C19 C21 1_555 1_555
C19 N1 1_555 1_555
C22 C27 1_555 1_555
C24 N4 1_555 1_555
C26 C28 1_555 1_555
O4 Cd1A 1_555 1_555
O7 Cd1C_2 1_555 1_555

#END
