
#######################################################################
#
#                 Cambridge Crystallographic Data Centre
#                                CCDC 
#
#######################################################################
#
# If this CIF has been generated from an entry in the Cambridge 
# Structural Database, then it will include bibliographic, chemical, 
# crystal, experimental, refinement or atomic coordinate data resulting 
# from the CCDC's data processing and validation procedures.
#
#######################################################################

data_BABDAL
_symmetry_cell_setting           monoclinic
_symmetry_space_group_name_H-M   'C 2/c'
_symmetry_Int_Tables_number      15
_space_group_name_Hall           '-C 2yn'
loop_
_symmetry_equiv_pos_site_id
_symmetry_equiv_pos_as_xyz
1 x,y,z
2 -x,y,1/2-z
3 1/2+x,1/2+y,z
4 1/2-x,1/2+y,1/2-z
5 -x,-y,-z
6 x,-y,1/2+z
7 1/2-x,1/2-y,-z
8 1/2+x,1/2-y,1/2+z
_cell_length_a                   21.764(3)
_cell_length_b                   7.3700(11)
_cell_length_c                   24.119(4)
_cell_angle_alpha                90
_cell_angle_beta                 95.197(3)
_cell_angle_gamma                90
_cell_volume                     3852.8
loop_
_atom_site_label
_atom_site_type_symbol
_atom_site_fract_x
_atom_site_fract_y
_atom_site_fract_z
Co1 Co 0.64539(3) 1.17465(8) 0.23276(2)
C1 C 0.2875(2) 1.0753(6) -0.15344(18)
C2 C 0.2947(2) 1.2198(6) -0.10934(18)
C3 C 0.3444(2) 1.2023(6) -0.0690(2)
H1 H 0.3739 1.1131 -0.0729
C4 C 0.3504(2) 1.3163(6) -0.02316(18)
C5 C 0.3062(2) 1.4463(7) -0.01702(19)
H2 H 0.3094 1.5210 0.0142
C6 C 0.2572(2) 1.4666(7) -0.05702(19)
H3 H 0.2279 1.5561 -0.0526
C7 C 0.2507(2) 1.3554(6) -0.10403(18)
C8 C 0.4581(2) 1.2522(6) 0.01281(19)
C9 C 0.5003(2) 1.2478(6) 0.06523(19)
C10 C 0.5627(2) 1.2798(7) 0.0628(2)
H4 H 0.5779 1.3098 0.0292
C11 C 0.6023(2) 1.2668(7) 0.11077(19)
H5 H 0.6440 1.2899 0.1084
C12 C 0.5235(2) 1.1964(6) 0.16248(19)
H6 H 0.5094 1.1684 0.1967
C13 C 0.4812(2) 1.2081(6) 0.11713(19)
H7 H 0.4395 1.1894 0.1211
C14 C 0.2001(2) 1.3919(6) -0.14823(18)
N1 N 0.58384(17) 1.2228(5) 0.16038(15)
N2 N 0.39947(18) 1.2986(5) 0.01913(15)
H11 H 0.3908 1.3200 0.0526
O1 O 0.32721(14) 1.0644(4) -0.18810(12)
O2 O 0.24497(16) 0.9636(5) -0.15041(15)
O3 O 0.20765(14) 1.3412(4) -0.19668(12)
O4 O 0.15344(16) 1.4765(5) -0.13551(13)
O5 O 0.47646(16) 1.2147(6) -0.03182(14)
O6 O 0.71473(15) 1.3253(4) 0.19986(14)
O7 O 0.60235(16) 1.3938(4) 0.26922(13)
O8 O 0.58562(14) 0.9987(4) 0.27061(12)
Co1D Co 0.35461(3) 0.82535(8) -0.23276(2)
Co1G Co 0.14539(3) 1.32535(8) -0.26724(2)
O1D O 0.67279(14) 0.9356(4) 0.18810(12)
O3G O 0.70765(14) 1.1588(4) 0.30332(12)
C15 C 0.4694(3) 0.3103(8) 0.8333(3)
H8 H 0.5029 0.3701 0.8174
H9 H 0.4811 0.1878 0.8428
H10 H 0.4600 0.3739 0.8662
O9 O 0.41689(19) 0.3089(5) 0.79418(15)
H12 H 0.3878 0.2624 0.8083
O10 O 0.13095(16) 0.0121(5) 0.87923(13)
O11 O 0.40262(19) 0.2066(5) 0.56739(18)
loop_
_geom_bond_atom_site_label_1
_geom_bond_atom_site_label_2
_geom_bond_site_symmetry_1
_geom_bond_site_symmetry_2
Co1 N1 1_555 1_555
C1 C2 1_555 1_555
C2 C3 1_555 1_555
C3 H1 1_555 1_555
C4 C3 1_555 1_555
C5 C4 1_555 1_555
H2 C5 1_555 1_555
C6 C5 1_555 1_555
H3 C6 1_555 1_555
C7 C2 1_555 1_555
C8 C9 1_555 1_555
C9 C10 1_555 1_555
C10 H4 1_555 1_555
C11 C10 1_555 1_555
H5 C11 1_555 1_555
C12 H6 1_555 1_555
C13 C9 1_555 1_555
H7 C13 1_555 1_555
C14 C7 1_555 1_555
C15 H8 1_555 1_555
H9 C15 1_555 1_555
H10 C15 1_555 1_555
N1 C11 1_555 1_555
N2 C4 1_555 1_555
H11 N2 1_555 1_555
O1 C1 1_555 1_555
O2 C1 1_555 1_555
O3 C14 1_555 1_555
O4 C14 1_555 1_555
O5 C8 1_555 1_555
O6 Co1 1_555 1_555
O7 Co1 1_555 1_555
O8 Co1 1_555 1_555
O9 C15 1_555 1_555
H12 O9 1_555 1_555
Co1D O1 1_555 1_555
Co1G O3 1_555 1_555
O1D Co1 1_555 1_555
O3G Co1 1_555 1_555
C6 C7 1_555 1_555
C8 N2 1_555 1_555
C12 C13 1_555 1_555
C12 N1 1_555 1_555

#END
