
#######################################################################
#
#                 Cambridge Crystallographic Data Centre
#                                CCDC 
#
#######################################################################
#
# If this CIF has been generated from an entry in the Cambridge 
# Structural Database, then it will include bibliographic, chemical, 
# crystal, experimental, refinement or atomic coordinate data resulting 
# from the CCDC's data processing and validation procedures.
#
#######################################################################

data_BABLUN
_symmetry_cell_setting           orthorhombic
_symmetry_space_group_name_H-M   'C c c a'
_symmetry_Int_Tables_number      68
_space_group_name_Hall           '-C 2a 2ac'
loop_
_symmetry_equiv_pos_site_id
_symmetry_equiv_pos_as_xyz
1 x,y,z
2 -x,1/2-y,z
3 x,1/2-y,1/2-z
4 -x,y,1/2-z
5 1/2+x,1/2+y,z
6 1/2-x,-y,z
7 1/2+x,-y,1/2-z
8 1/2-x,1/2+y,1/2-z
9 -x,-y,-z
10 x,1/2+y,-z
11 -x,1/2+y,1/2+z
12 x,-y,1/2+z
13 1/2-x,1/2-y,-z
14 1/2+x,y,-z
15 1/2-x,y,1/2+z
16 1/2+x,1/2-y,1/2+z
_cell_length_a                   25.2948(12)
_cell_length_b                   14.6275(11)
_cell_length_c                   17.2954(11)
_cell_angle_alpha                90
_cell_angle_beta                 90
_cell_angle_gamma                90
_cell_volume                     6399.29
loop_
_atom_site_label
_atom_site_type_symbol
_atom_site_fract_x
_atom_site_fract_y
_atom_site_fract_z
Hg1 Hg 0.062037(12) 0.16311(2) -0.155258(16)
Hg2 Hg 0.230407(17) 0.2500 -0.2500
Cl1 Cl 0.17771(8) 0.16191(14) -0.15533(11)
Cl2 Cl 0.06136(9) 0.32433(16) -0.16299(12)
Cl3 Cl 0.05618(9) 0.00449(19) -0.15647(17)
O1 O 0.3228(3) 0.1337(5) -0.0688(3)
N1 N 0.2721(2) 0.1495(4) -0.3307(3)
N2 N 0.3458(2) 0.1513(4) -0.1944(3)
H1 H 0.3627 0.1840 -0.2276
N3 N 0.4126(3) 0.2911(6) -0.1531(3)
N4 N 0.4351(3) 0.3190(6) 0.0030(4)
C1 C 0.3494(3) 0.1706(5) -0.1188(4)
C2 C 0.2629(3) 0.1592(6) -0.4068(4)
H2 H 0.2404 0.2056 -0.4235
C3 C 0.3038(3) 0.0826(5) -0.3056(4)
C4 C 0.3137(3) 0.0758(5) -0.2201(5)
H3 H 0.3315 0.0186 -0.2087
H4 H 0.2802 0.0762 -0.1927
C5 C 0.3891(3) 0.2416(5) -0.0971(4)
C6 C 0.4007(4) 0.2564(6) -0.0198(4)
H5 H 0.3837 0.2212 0.0174
C7 C 0.4469(4) 0.3549(8) -0.1309(6)
H6 H 0.4638 0.3908 -0.1678
C8 C 0.3282(3) 0.0232(6) -0.3580(6)
H7 H 0.3504 -0.0228 -0.3401
C9 C 0.2859(4) 0.1020(7) -0.4613(5)
H8 H 0.2792 0.1096 -0.5137
C10 C 0.3193(4) 0.0330(7) -0.4353(6)
H9 H 0.3354 -0.0062 -0.4704
C11 C 0.4579(4) 0.3684(8) -0.0517(5)
H10 H 0.4819 0.4135 -0.0375
Hg1B Hg 0.062037(12) 0.33689(2) -0.344742(16)
Hg1L Hg 0.437963(12) 0.33689(2) 0.155258(16)
Hg1N Hg 0.437963(12) 0.16311(2) -0.655258(16)
Cl1B Cl 0.17771(8) 0.33809(14) -0.34467(11)
Cl2B Cl 0.06136(9) 0.17567(16) -0.33701(12)
Cl3B Cl 0.05618(9) 0.49551(19) -0.34353(17)
O1B O 0.3228(3) 0.3663(5) -0.4312(3)
N1B N 0.2721(2) 0.3505(4) -0.1693(3)
N2B N 0.3458(2) 0.3487(4) -0.3056(3)
H1B H 0.3627 0.3160 -0.2724
N3B N 0.4126(3) 0.2089(6) -0.3469(3)
N4B N 0.4351(3) 0.1810(6) -0.5030(4)
N4L N 0.0649(3) 0.1810(6) -0.0030(4)
N4N N 0.0649(3) 0.3190(6) -0.4970(4)
C1B C 0.3494(3) 0.3294(5) -0.3812(4)
C2B C 0.2629(3) 0.3408(6) -0.0932(4)
H2B H 0.2404 0.2944 -0.0765
C3B C 0.3038(3) 0.4174(5) -0.1944(4)
C4B C 0.3137(3) 0.4242(5) -0.2799(5)
H3B H 0.3315 0.4814 -0.2913
H4B H 0.2802 0.4238 -0.3073
C5B C 0.3891(3) 0.2584(5) -0.4029(4)
C6B C 0.4007(4) 0.2436(6) -0.4802(4)
H5B H 0.3837 0.2788 -0.5174
C7B C 0.4469(4) 0.1451(8) -0.3691(6)
H6B H 0.4638 0.1092 -0.3322
C8B C 0.3282(3) 0.4768(6) -0.1420(6)
H7B H 0.3504 0.5228 -0.1599
C9B C 0.2859(4) 0.3980(7) -0.0387(5)
H8B H 0.2792 0.3904 0.0137
C10B C 0.3193(4) 0.4670(7) -0.0647(6)
H9B H 0.3354 0.5062 -0.0296
C11B C 0.4579(4) 0.1316(8) -0.4483(5)
H10B H 0.4819 0.0865 -0.4625
loop_
_geom_bond_atom_site_label_1
_geom_bond_atom_site_label_2
_geom_bond_site_symmetry_1
_geom_bond_site_symmetry_2
Hg1 Cl1 1_555 1_555
Hg2 Cl1 1_555 1_555
Cl2 Hg1 1_555 1_555
Cl3 Hg1 1_555 1_555
O1 C1 1_555 1_555
N1 Hg2 1_555 1_555
N2 H1 1_555 1_555
N3 C5 1_555 1_555
N4 C6 1_555 1_555
C1 N2 1_555 1_555
C2 N1 1_555 1_555
H2 C2 1_555 1_555
C3 N1 1_555 1_555
C4 N2 1_555 1_555
H3 C4 1_555 1_555
H4 C4 1_555 1_555
C5 C1 1_555 1_555
C6 C5 1_555 1_555
H5 C6 1_555 1_555
C7 N3 1_555 1_555
H6 C7 1_555 1_555
C8 C3 1_555 1_555
H7 C8 1_555 1_555
C9 C2 1_555 1_555
H8 C9 1_555 1_555
C10 C8 1_555 1_555
H9 C10 1_555 1_555
C11 N4 1_555 1_555
H10 C11 1_555 1_555
Hg1B Cl1B 1_555 1_555
Hg1L N4 1_555 1_555
Hg1N N4B 1_555 1_555
Cl1B Hg2 1_555 1_555
Cl2B Hg1B 1_555 1_555
Cl3B Hg1B 1_555 1_555
O1B C1B 1_555 1_555
N1B Hg2 1_555 1_555
N2B H1B 1_555 1_555
N3B C5B 1_555 1_555
N4B C6B 1_555 1_555
N4L Hg1 1_555 1_555
N4N Hg1B 1_555 1_555
C1B N2B 1_555 1_555
C2B N1B 1_555 1_555
H2B C2B 1_555 1_555
C3B N1B 1_555 1_555
C4B N2B 1_555 1_555
H3B C4B 1_555 1_555
H4B C4B 1_555 1_555
C5B C1B 1_555 1_555
C6B C5B 1_555 1_555
H5B C6B 1_555 1_555
C7B N3B 1_555 1_555
H6B C7B 1_555 1_555
C8B C3B 1_555 1_555
H7B C8B 1_555 1_555
C9B C2B 1_555 1_555
H8B C9B 1_555 1_555
C10B C8B 1_555 1_555
H9B C10B 1_555 1_555
C11B N4B 1_555 1_555
H10B C11B 1_555 1_555
C3 C4 1_555 1_555
C7 C11 1_555 1_555
C9 C10 1_555 1_555
C3B C4B 1_555 1_555
C7B C11B 1_555 1_555
C9B C10B 1_555 1_555

#END
