
#######################################################################
#
#                 Cambridge Crystallographic Data Centre
#                                CCDC 
#
#######################################################################
#
# If this CIF has been generated from an entry in the Cambridge 
# Structural Database, then it will include bibliographic, chemical, 
# crystal, experimental, refinement or atomic coordinate data resulting 
# from the CCDC's data processing and validation procedures.
#
#######################################################################

data_BABLOH
_symmetry_cell_setting           monoclinic
_symmetry_space_group_name_H-M   'P 21/n'
_symmetry_Int_Tables_number      14
_space_group_name_Hall           '-P 2yn'
loop_
_symmetry_equiv_pos_site_id
_symmetry_equiv_pos_as_xyz
1 x,y,z
2 1/2-x,1/2+y,1/2-z
3 -x,-y,-z
4 1/2+x,1/2-y,1/2+z
_cell_length_a                   14.482(3)
_cell_length_b                   4.0378(8)
_cell_length_c                   49.631(10)
_cell_angle_alpha                90
_cell_angle_beta                 91.58(3)
_cell_angle_gamma                90
_cell_volume                     2901.09
loop_
_atom_site_label
_atom_site_type_symbol
_atom_site_fract_x
_atom_site_fract_y
_atom_site_fract_z
C1 C -0.1810(6) 0.709(3) 0.22586(18)
H1 H -0.2404 0.7060 0.2325
C2 C -0.1674(6) 0.863(2) 0.20183(18)
H2 H -0.2174 0.9594 0.1927
C3 C -0.0159(6) 0.732(2) 0.20491(17)
H3 H 0.0430 0.7335 0.1979
C4 C -0.0291(6) 0.578(2) 0.22915(16)
C5 C 0.0508(6) 0.424(2) 0.24385(17)
C6 C 0.1012(6) 0.093(2) 0.28327(18)
H4 H 0.1474 0.0079 0.2713
H5 H 0.0716 -0.0949 0.2916
C7 C 0.1493(6) 0.297(2) 0.30511(18)
C8 C 0.2352(6) 0.431(3) 0.30170(19)
H6 H 0.2630 0.4038 0.2852
C9 C 0.2819(6) 0.604(3) 0.3215(2)
H7 H 0.3397 0.6964 0.3186
C10 C 0.2393(7) 0.636(3) 0.3459(2)
H8 H 0.2691 0.7433 0.3603
C11 C 0.1508(7) 0.505(2) 0.3487(2)
H9 H 0.1218 0.5335 0.3650
C12 C 0.3496(8) 0.543(3) 0.0862(2)
H10 H 0.3684 0.4837 0.1036
C13 C 0.4070(8) 0.475(3) 0.0650(3)
H11 H 0.4626 0.3654 0.0684
C14 C 0.3035(6) 0.718(3) 0.0360(2)
H12 H 0.2849 0.7837 0.0187
C15 C 0.2464(6) 0.783(2) 0.05749(19)
C16 C 0.1584(7) 0.970(2) 0.0526(2)
C17 C 0.0176(7) 1.198(2) 0.0718(2)
H13 H 0.0240 1.3668 0.0581
H14 H 0.0103 1.3095 0.0889
C18 C -0.0672(6) 1.001(2) 0.06552(18)
C19 C -0.0912(7) 0.911(3) 0.03900(19)
H15 H -0.0520 0.9606 0.0250
C20 C -0.1719(8) 0.752(3) 0.0339(2)
H16 H -0.1884 0.6904 0.0164
C21 C -0.2289(7) 0.681(3) 0.0545(2)
H17 H -0.2849 0.5733 0.0512
C22 C -0.2022(6) 0.770(3) 0.0804(2)
H18 H -0.2406 0.7187 0.0945
N1 N -0.1133(5) 0.562(2) 0.24030(14)
N2 N -0.0842(6) 0.878(2) 0.19117(15)
N3 N 0.0318(5) 0.2755(19) 0.26723(13)
H19 H -0.0235 0.2879 0.2730
N4 N 0.1053(5) 0.3396(18) 0.32872(15)
N5 N 0.2686(6) 0.691(2) 0.08235(18)
N6 N 0.3842(6) 0.563(2) 0.03964(18)
N7 N 0.1034(5) 0.9977(19) 0.07330(17)
H20 H 0.1179 0.8967 0.0881
N8 N -0.1230(5) 0.929(2) 0.08585(15)
O1 O 0.1283(5) 0.422(2) 0.23451(15)
O2 O 0.1411(6) 1.094(3) 0.03009(15)
Cl1 Cl -0.0580(2) 0.5155(8) 0.38063(6)
Cl2 Cl -0.10979(16) -0.1603(6) 0.30771(5)
Cl3 Cl -0.20045(15) 1.3896(6) 0.14325(4)
Cl4 Cl 0.05182(15) 0.6702(6) 0.13569(5)
Cl5 Cl 0.58728(16) 1.1181(6) 0.02605(5)
Hg1 Hg -0.06038(3) 0.19625(11) 0.341879(8)
Hg2 Hg -0.08306(2) 0.99887(9) 0.135420(7)
Hg3 Hg 0.5000 0.5000 0.0000
C1B C 1.1810(6) 0.291(3) -0.22586(18)
H1B H 1.2404 0.2940 -0.2325
C2B C 1.1674(6) 0.137(2) -0.20183(18)
H2B H 1.2174 0.0406 -0.1927
C3B C 1.0159(6) 0.268(2) -0.20491(17)
H3B H 0.9570 0.2665 -0.1979
C4B C 1.0291(6) 0.422(2) -0.22915(16)
C5B C 0.9492(6) 0.576(2) -0.24385(17)
C6B C 0.8988(6) 0.907(2) -0.28327(18)
H4B H 0.8526 0.9921 -0.2713
H5B H 0.9284 1.0949 -0.2916
C7B C 0.8507(6) 0.703(2) -0.30511(18)
C8B C 0.7648(6) 0.569(3) -0.30170(19)
H6B H 0.7370 0.5962 -0.2852
C9B C 0.7181(6) 0.396(3) -0.3215(2)
H7B H 0.6603 0.3036 -0.3186
C10B C 0.7607(7) 0.364(3) -0.3459(2)
H8B H 0.7309 0.2567 -0.3603
C11B C 0.8492(7) 0.495(2) -0.3487(2)
H9B H 0.8782 0.4665 -0.3650
C12B C 0.6504(8) 0.457(3) -0.0862(2)
H10B H 0.6316 0.5163 -0.1036
C13B C 0.5930(8) 0.525(3) -0.0650(3)
H11B H 0.5374 0.6346 -0.0684
C14B C 0.6965(6) 0.282(3) -0.0360(2)
H12B H 0.7151 0.2163 -0.0187
C15B C 0.7536(6) 0.217(2) -0.05749(19)
C16B C 0.8416(7) 0.030(2) -0.0526(2)
C17B C 0.9824(7) -0.198(2) -0.0718(2)
H13B H 0.9760 -0.3668 -0.0581
H14B H 0.9897 -0.3095 -0.0889
C18B C 1.0672(6) -0.001(2) -0.06552(18)
C19B C 1.0912(7) 0.089(3) -0.03900(19)
H15B H 1.0520 0.0394 -0.0250
C20B C 1.1719(8) 0.248(3) -0.0339(2)
H16B H 1.1884 0.3096 -0.0164
C21B C 1.2289(7) 0.319(3) -0.0545(2)
H17B H 1.2849 0.4267 -0.0512
C22B C 1.2022(6) 0.230(3) -0.0804(2)
H18B H 1.2406 0.2813 -0.0945
N1B N 1.1133(5) 0.438(2) -0.24030(14)
N2B N 1.0842(6) 0.122(2) -0.19117(15)
N3B N 0.9682(5) 0.7245(19) -0.26723(13)
H19B H 1.0235 0.7121 -0.2730
N4B N 0.8947(5) 0.6604(18) -0.32872(15)
N5B N 0.7314(6) 0.309(2) -0.08235(18)
N6B N 0.6158(6) 0.437(2) -0.03964(18)
N7B N 0.8966(5) 0.0023(19) -0.07330(17)
H20B H 0.8821 0.1033 -0.0881
N8B N 1.1230(5) 0.071(2) -0.08585(15)
O1B O 0.8717(5) 0.578(2) -0.23451(15)
O2B O 0.8589(6) -0.094(3) -0.03009(15)
Cl1B Cl 1.0580(2) 0.4845(8) -0.38063(6)
Cl2B Cl 1.10979(16) 1.1603(6) -0.30771(5)
Cl3_2 Cl -0.20045(15) 0.3896(6) 0.14325(4)
Cl3B Cl 1.20045(15) -0.3896(6) -0.14325(4)
Cl3B_2 Cl 1.20045(15) 0.6104(6) -0.14325(4)
Cl4B Cl 0.94818(15) 0.3298(6) -0.13569(5)
Cl5_2 Cl 0.58728(16) 0.1181(6) 0.02605(5)
Cl5B Cl 0.41272(16) -0.1181(6) -0.02605(5)
Cl5B_2 Cl 0.41272(16) 0.8819(6) -0.02605(5)
Hg1B Hg 1.06038(3) 0.80375(11) -0.341879(8)
Hg2B Hg 1.08306(2) 0.00113(9) -0.135420(7)
Hg2_2 Hg -0.08306(2) 1.99887(9) 0.135420(7)
Hg2_3 Hg -0.08306(2) -0.00113(9) 0.135420(7)
Hg3_2 Hg 0.5000 1.5000 0.0000
Hg3_3 Hg 0.5000 -0.5000 0.0000
loop_
_geom_bond_atom_site_label_1
_geom_bond_atom_site_label_2
_geom_bond_site_symmetry_1
_geom_bond_site_symmetry_2
C1 H1 1_555 1_555
C2 C1 1_555 1_555
H2 C2 1_555 1_555
C3 H3 1_555 1_555
C4 C3 1_555 1_555
C5 C4 1_555 1_555
C6 H4 1_555 1_555
H5 C6 1_555 1_555
C7 C6 1_555 1_555
C8 C7 1_555 1_555
H6 C8 1_555 1_555
C9 C8 1_555 1_555
H7 C9 1_555 1_555
C10 C9 1_555 1_555
H8 C10 1_555 1_555
C11 C10 1_555 1_555
H9 C11 1_555 1_555
C12 H10 1_555 1_555
C13 C12 1_555 1_555
H11 C13 1_555 1_555
C14 H12 1_555 1_555
C15 C14 1_555 1_555
C16 C15 1_555 1_555
C17 H13 1_555 1_555
H14 C17 1_555 1_555
C18 C17 1_555 1_555
C19 C18 1_555 1_555
H15 C19 1_555 1_555
C20 C19 1_555 1_555
H16 C20 1_555 1_555
C21 C20 1_555 1_555
H17 C21 1_555 1_555
C22 C21 1_555 1_555
H18 C22 1_555 1_555
N1 C1 1_555 1_555
N2 C2 1_555 1_555
N3 C5 1_555 1_555
H19 N3 1_555 1_555
N4 C7 1_555 1_555
N5 C12 1_555 1_555
N6 C13 1_555 1_555
N7 C16 1_555 1_555
H20 N7 1_555 1_555
N8 C18 1_555 1_555
O1 C5 1_555 1_555
O2 C16 1_555 1_555
Cl1 Hg1 1_555 1_555
Cl2 Hg1 1_555 1_555
Cl3 Hg2 1_555 1_555
Cl4 Hg2 1_555 1_555
Cl5 Hg3 1_555 1_555
Hg1 N4 1_555 1_555
Hg2 N2 1_555 1_555
Hg3 N6 1_555 1_555
C1B H1B 1_555 1_555
C2B C1B 1_555 1_555
H2B C2B 1_555 1_555
C3B H3B 1_555 1_555
C4B C3B 1_555 1_555
C5B C4B 1_555 1_555
C6B H4B 1_555 1_555
H5B C6B 1_555 1_555
C7B C6B 1_555 1_555
C8B C7B 1_555 1_555
H6B C8B 1_555 1_555
C9B C8B 1_555 1_555
H7B C9B 1_555 1_555
C10B C9B 1_555 1_555
H8B C10B 1_555 1_555
C11B C10B 1_555 1_555
H9B C11B 1_555 1_555
C12B H10B 1_555 1_555
C13B C12B 1_555 1_555
H11B C13B 1_555 1_555
C14B H12B 1_555 1_555
C15B C14B 1_555 1_555
C16B C15B 1_555 1_555
C17B H13B 1_555 1_555
H14B C17B 1_555 1_555
C18B C17B 1_555 1_555
C19B C18B 1_555 1_555
H15B C19B 1_555 1_555
C20B C19B 1_555 1_555
H16B C20B 1_555 1_555
C21B C20B 1_555 1_555
H17B C21B 1_555 1_555
C22B C21B 1_555 1_555
H18B C22B 1_555 1_555
N1B C1B 1_555 1_555
N2B C2B 1_555 1_555
N3B C5B 1_555 1_555
H19B N3B 1_555 1_555
N4B C7B 1_555 1_555
N5B C12B 1_555 1_555
N6B Hg3 1_555 1_555
N7B C16B 1_555 1_555
H20B N7B 1_555 1_555
N8B C18B 1_555 1_555
O1B C5B 1_555 1_555
O2B C16B 1_555 1_555
Cl1B Hg1B 1_555 1_555
Cl2B Hg1B 1_555 1_555
Cl3_2 Hg2 1_555 1_555
Cl3B Hg2B 1_555 1_555
Cl3B_2 Hg2B 1_555 1_555
Cl4B Hg2B 1_555 1_555
Cl5_2 Hg3 1_555 1_555
Cl5B Hg3 1_555 1_555
Cl5B_2 Hg3 1_555 1_555
Hg1B N4B 1_555 1_555
Hg2B N2B 1_555 1_555
Hg2_2 Cl3 1_555 1_555
Hg2_3 Cl3_2 1_555 1_555
Hg3_2 Cl5 1_555 1_555
Hg3_3 Cl5_2 1_555 1_555
C3 N2 1_555 1_555
C4 N1 1_555 1_555
C6 N3 1_555 1_555
C11 N4 1_555 1_555
C14 N6 1_555 1_555
C15 N5 1_555 1_555
C17 N7 1_555 1_555
C22 N8 1_555 1_555
N8 Hg2 1_555 1_555
C3B N2B 1_555 1_555
C4B N1B 1_555 1_555
C6B N3B 1_555 1_555
C11B N4B 1_555 1_555
C13B N6B 1_555 1_555
C14B N6B 1_555 1_555
C15B N5B 1_555 1_555
C17B N7B 1_555 1_555
C22B N8B 1_555 1_555
N8B Hg2B 1_555 1_555
Cl5B Hg3_3 1_555 1_555
Cl5B_2 Hg3_2 1_555 1_555

#END
