
#######################################################################
#
#                 Cambridge Crystallographic Data Centre
#                                CCDC 
#
#######################################################################
#
# If this CIF has been generated from an entry in the Cambridge 
# Structural Database, then it will include bibliographic, chemical, 
# crystal, experimental, refinement or atomic coordinate data resulting 
# from the CCDC's data processing and validation procedures.
#
#######################################################################

data_BABNAT
_symmetry_cell_setting           monoclinic
_symmetry_space_group_name_H-M   'P 21/n'
_symmetry_Int_Tables_number      14
_space_group_name_Hall           '-P 2yn'
loop_
_symmetry_equiv_pos_site_id
_symmetry_equiv_pos_as_xyz
1 x,y,z
2 1/2-x,1/2+y,1/2-z
3 -x,-y,-z
4 1/2+x,1/2-y,1/2+z
_cell_length_a                   9.882(5)
_cell_length_b                   22.810(12)
_cell_length_c                   9.851(8)
_cell_angle_alpha                90
_cell_angle_beta                 100.02(5)
_cell_angle_gamma                90
_cell_volume                     2186.63
loop_
_atom_site_label
_atom_site_type_symbol
_atom_site_fract_x
_atom_site_fract_y
_atom_site_fract_z
Nd1 Nd -0.26280 -0.49950 -0.48270
O1 O -0.43700 -0.45770 -0.37400
O2 O -0.64400 -0.41410 -0.39390
O3 O -0.22080 -0.39140 -0.51440
O4 O -0.38570 -0.43170 -0.66510
O5 O -0.11700 -0.48980 0.34540
O6 O 0.07920 -0.52800 0.30020
O7 O -0.09220 -0.58780 -0.45070
N1 N -0.25820 -0.20630 -0.10260
N2 N -0.47760 -0.16070 -0.83530
N3 N -0.31780 -0.57450 -0.28150
C1 C -0.51440 -0.41420 -0.35460
C2 C -0.44660 -0.35960 -0.27970
C3 C -0.52810 -0.31030 -0.27380
C4 C -0.46580 -0.25890 -0.21790
C5 C -0.32330 -0.25820 -0.15940
C6 C -0.24680 -0.30970 -0.16090
C7 C -0.30510 -0.36080 -0.21890
C8 C -0.31640 -0.38580 -0.61400
C9 C -0.35650 -0.32690 -0.67130
C10 C -0.31850 -0.27670 -0.59270
C11 C -0.35640 -0.22110 -0.64430
C12 C -0.43840 -0.21580 -0.78060
C13 C -0.47670 -0.26680 -0.85950
C14 C -0.43780 -0.32280 -0.80710
C15 C -0.04900 -0.51610 0.26430
C16 C -0.12030 -0.53390 0.12350
C17 C -0.05130 -0.56750 0.03830
C18 C -0.11890 -0.58240 -0.09530
C19 C -0.25310 -0.56200 -0.14220
C20 C -0.32180 -0.52710 -0.05730
C21 C -0.25650 -0.51400 0.07820
O2B O -0.35600 -0.58590 -0.60610
Nd1B Nd -0.73720 -0.50050 -0.51730
O5_2 O -0.11700 -0.48980 -0.65460
O6B O -0.07920 -0.47200 -0.30020
Nd1B_2 Nd 0.26280 -0.50050 0.48270
Nd1_2 Nd -0.26280 -0.49950 0.51730
loop_
_geom_bond_atom_site_label_1
_geom_bond_atom_site_label_2
_geom_bond_site_symmetry_1
_geom_bond_site_symmetry_2
Nd1 O1 1_555 1_555
O1 C1 1_555 1_555
O2 C1 1_555 1_555
O3 Nd1 1_555 1_555
O4 Nd1 1_555 1_555
O5 C15 1_555 1_555
O6 C15 1_555 1_555
O7 Nd1 1_555 1_555
N1 C5 1_555 1_555
N2 C12 1_555 1_555
N3 Nd1 1_555 1_555
C1 C2 1_555 1_555
C2 C3 1_555 1_555
C3 C4 1_555 1_555
C4 C5 1_555 1_555
C5 C6 1_555 1_555
C6 C7 1_555 1_555
C7 C2 1_555 1_555
C8 O3 1_555 1_555
C9 C8 1_555 1_555
C10 C9 1_555 1_555
C11 C10 1_555 1_555
C12 C11 1_555 1_555
C13 C12 1_555 1_555
C14 C9 1_555 1_555
C15 C16 1_555 1_555
C16 C17 1_555 1_555
C17 C18 1_555 1_555
C18 C19 1_555 1_555
C19 N3 1_555 1_555
C20 C19 1_555 1_555
C21 C16 1_555 1_555
O2B Nd1 1_555 1_555
Nd1B O2 1_555 1_555
O5_2 Nd1 1_555 1_555
O6B Nd1 1_555 1_555
Nd1B_2 O6 1_555 1_555
Nd1_2 O5 1_555 1_555
O4 C8 1_555 1_555
C13 C14 1_555 1_555
C20 C21 1_555 1_555

#END
