
#######################################################################
#
#                 Cambridge Crystallographic Data Centre
#                                CCDC 
#
#######################################################################
#
# If this CIF has been generated from an entry in the Cambridge 
# Structural Database, then it will include bibliographic, chemical, 
# crystal, experimental, refinement or atomic coordinate data resulting 
# from the CCDC's data processing and validation procedures.
#
#######################################################################

data_BABNAT01
_symmetry_cell_setting           monoclinic
_symmetry_space_group_name_H-M   'P 21/n'
_symmetry_Int_Tables_number      14
_space_group_name_Hall           '-P 2yn'
loop_
_symmetry_equiv_pos_site_id
_symmetry_equiv_pos_as_xyz
1 x,y,z
2 1/2+x,1/2-y,1/2+z
3 -x,-y,-z
4 1/2-x,1/2+y,1/2-z
_cell_length_a                   9.8069(5)
_cell_length_b                   22.736(2)
_cell_length_c                   9.8254(8)
_cell_angle_alpha                90
_cell_angle_beta                 100.053(5)
_cell_angle_gamma                90
_cell_volume                     2157.13
loop_
_atom_site_label
_atom_site_type_symbol
_atom_site_fract_x
_atom_site_fract_y
_atom_site_fract_z
Nd1 Nd -0.48279(3) 0.49948(2) -0.26282(3)
N1 N -0.8372(8) 0.1611(3) -0.4785(8)
N2 N -0.8947(8) 0.7942(3) -0.7411(8)
N3 N -0.2814(7) 0.5737(3) -0.3145(7)
O1 O -0.6642(5) 0.4324(2) -0.3849(5)
O2 O -0.5144(5) 0.3914(2) -0.2190(5)
O3 O -0.6062(6) 0.5858(2) -0.3586(5)
O4 O -0.6263(6) 0.5426(2) -0.5613(5)
O5 O 0.3445(5) 0.4896(2) -0.1179(5)
O6 O 0.3002(5) 0.5277(2) 0.0780(5)
O7 O -0.4510(5) 0.5876(2) -0.0924(5)
C1 C -0.6142(8) 0.3870(3) -0.3183(7)
C2 C -0.6752(8) 0.3276(3) -0.3595(7)
C3 C -0.8039(9) 0.3216(3) -0.4367(9)
C4 C -0.8556(9) 0.2674(4) -0.4763(8)
C5 C -0.7784(8) 0.2168(3) -0.4372(8)
C6 C -0.6490(10) 0.2224(4) -0.3588(10)
C7 C -0.5969(9) 0.2772(4) -0.3212(9)
C8 C -0.6470(7) 0.5860(3) -0.4874(8)
C9 C -0.7195(8) 0.6387(3) -0.5517(7)
C10 C -0.7240(8) 0.6904(3) -0.4747(8)
C11 C -0.7812(10) 0.7413(4) -0.5365(10)
C12 C -0.8388(8) 0.7422(3) -0.6761(8)
C13 C -0.8387(9) 0.6904(4) -0.7517(8)
C14 C -0.7784(9) 0.6400(4) -0.6903(8)
C15 C 0.2648(7) 0.5161(3) -0.0498(7)
C16 C 0.1241(7) 0.5335(3) -0.1199(7)
C17 C 0.0752(8) 0.5141(3) -0.2550(7)
C18 C -0.0563(8) 0.5282(4) -0.3179(8)
C19 C -0.1429(7) 0.5619(3) -0.2546(7)
C20 C -0.0928(8) 0.5815(3) -0.1210(8)
C21 C 0.0377(8) 0.5667(3) -0.0554(8)
H1 H -0.9342(70) 0.2607(28) -0.5118(60)
H2 H -0.0829(72) 0.5159(28) -0.3832(72)
H3 H -0.8672(80) 0.3535(34) -0.4619(74)
H4 H -0.1507(76) 0.6048(32) -0.0811(74)
H5 H 0.0687(75) 0.5729(32) 0.0250(71)
H6 H -0.8811(74) 0.6857(32) -0.8376(73)
H7 H 0.1392(82) 0.4903(30) -0.2960(77)
H8 H -0.5245(90) 0.2809(42) -0.2802(87)
H9 H -0.6981(73) 0.6957(31) -0.3876(73)
H10 H -0.6078(86) 0.1959(35) -0.3387(84)
H11 H -0.7902(83) 0.6160(34) -0.7395(79)
H12 H -0.2828(72) 0.5775(30) -0.3779(65)
H13 H -0.7990(69) 0.7653(29) -0.4989(66)
H14 H -0.7769(69) 0.1403(30) -0.4749(70)
O4B O -0.3737(6) 0.4574(2) -0.4387(5)
Nd1B Nd -0.51721(3) 0.50052(2) -0.73718(3)
O5_2 O -0.6555(5) 0.4896(2) -0.1179(5)
O6B O -0.3002(5) 0.4723(2) -0.0780(5)
Nd1_2 Nd 0.51721(3) 0.49948(2) -0.26282(3)
Nd1B_2 Nd 0.48279(3) 0.50052(2) 0.26282(3)
loop_
_geom_bond_atom_site_label_1
_geom_bond_atom_site_label_2
_geom_bond_site_symmetry_1
_geom_bond_site_symmetry_2
Nd1 N3 1_555 1_555
N1 C5 1_555 1_555
N2 C12 1_555 1_555
N3 C19 1_555 1_555
O1 Nd1 1_555 1_555
O2 Nd1 1_555 1_555
O3 Nd1 1_555 1_555
O4 C8 1_555 1_555
O5 C15 1_555 1_555
O6 C15 1_555 1_555
O7 Nd1 1_555 1_555
C1 O1 1_555 1_555
C2 C1 1_555 1_555
C3 C2 1_555 1_555
C4 C3 1_555 1_555
C5 C4 1_555 1_555
C6 C5 1_555 1_555
C7 C2 1_555 1_555
C8 O3 1_555 1_555
C9 C8 1_555 1_555
C10 C9 1_555 1_555
C11 C10 1_555 1_555
C12 C11 1_555 1_555
C13 C12 1_555 1_555
C14 C9 1_555 1_555
C15 C16 1_555 1_555
C16 C17 1_555 1_555
C17 C18 1_555 1_555
C18 C19 1_555 1_555
C19 C20 1_555 1_555
C20 C21 1_555 1_555
C21 C16 1_555 1_555
H1 C4 1_555 1_555
H2 C18 1_555 1_555
H3 C3 1_555 1_555
H4 C20 1_555 1_555
H5 C21 1_555 1_555
H6 C13 1_555 1_555
H7 C17 1_555 1_555
H8 C7 1_555 1_555
H9 C10 1_555 1_555
H10 C6 1_555 1_555
H11 C14 1_555 1_555
H12 N3 1_555 1_555
H13 C11 1_555 1_555
H14 N1 1_555 1_555
O4B Nd1 1_555 1_555
Nd1B O4 1_555 1_555
O5_2 Nd1 1_555 1_555
O6B Nd1 1_555 1_555
Nd1_2 O5 1_555 1_555
Nd1B_2 O6 1_555 1_555
O2 C1 1_555 1_555
C6 C7 1_555 1_555
C13 C14 1_555 1_555

#END
