
#######################################################################
#
#                 Cambridge Crystallographic Data Centre
#                                CCDC 
#
#######################################################################
#
# If this CIF has been generated from an entry in the Cambridge 
# Structural Database, then it will include bibliographic, chemical, 
# crystal, experimental, refinement or atomic coordinate data resulting 
# from the CCDC's data processing and validation procedures.
#
#######################################################################

data_BABQUS
_symmetry_cell_setting           monoclinic
_symmetry_space_group_name_H-M   'P 21/c'
_symmetry_Int_Tables_number      14
_space_group_name_Hall           '-P 2ybc'
loop_
_symmetry_equiv_pos_site_id
_symmetry_equiv_pos_as_xyz
1 x,y,z
2 -x,1/2+y,1/2-z
3 -x,-y,-z
4 x,1/2-y,1/2+z
_cell_length_a                   7.02440(10)
_cell_length_b                   20.9256(3)
_cell_length_c                   7.28880(10)
_cell_angle_alpha                90
_cell_angle_beta                 101.8620(10)
_cell_angle_gamma                90
_cell_volume                     1048.5
loop_
_atom_site_label
_atom_site_type_symbol
_atom_site_fract_x
_atom_site_fract_y
_atom_site_fract_z
Zn1 Zn -0.59506(3) 0.389480(12) -0.42105(3)
Cl1 Cl -0.71370(8) 0.48678(3) -0.40727(8)
Cl2 Cl -0.57738(7) 0.33697(3) -0.68266(7)
P1 P 0.06463(7) 0.35127(3) -0.19841(7)
O1 O 0.22824(19) 0.33662(7) -0.2973(2)
N1 N -0.3238(2) 0.37527(8) -0.2389(2)
N2 N -0.1613(2) 0.30786(8) 0.0288(2)
N3 N -0.0960(2) 0.42334(9) 0.0293(2)
C1 C -0.1700(3) 0.36423(10) -0.3517(3)
H1 H -0.1627 0.4018 -0.4326
H2 H -0.2050 0.3265 -0.4336
C2 C 0.0074(3) 0.28794(10) -0.0509(3)
H3 H -0.0245 0.2484 -0.1253
H4 H 0.1208 0.2792 0.0514
C3 C 0.0833(3) 0.42052(10) -0.0487(3)
H5 H 0.1994 0.4171 0.0540
H6 H 0.0954 0.4597 -0.1215
C4 C -0.3352(3) 0.31799(10) -0.1155(3)
H7 H -0.4478 0.3234 -0.0545
H8 H -0.3591 0.2794 -0.1953
C5 C -0.2698(3) 0.43267(10) -0.1145(3)
H9 H -0.2495 0.4696 -0.1931
H10 H -0.3795 0.4431 -0.0536
C6 C -0.1181(3) 0.36678(10) 0.1414(3)
H11 H -0.2244 0.3745 0.2092
H12 H 0.0034 0.3604 0.2361
Zn1_2 Zn 0.40494(3) 0.389480(12) -0.42105(3)
O1_2 O -0.77176(19) 0.33662(7) -0.2973(2)
loop_
_geom_bond_atom_site_label_1
_geom_bond_atom_site_label_2
_geom_bond_site_symmetry_1
_geom_bond_site_symmetry_2
Zn1 Cl1 1_555 1_555
Cl2 Zn1 1_555 1_555
P1 O1 1_555 1_555
O1 Zn1_2 1_555 1_555
N1 Zn1 1_555 1_555
N2 C2 1_555 1_555
N3 C3 1_555 1_555
C1 P1 1_555 1_555
H1 C1 1_555 1_555
H2 C1 1_555 1_555
C2 P1 1_555 1_555
H3 C2 1_555 1_555
H4 C2 1_555 1_555
C3 P1 1_555 1_555
H5 C3 1_555 1_555
H6 C3 1_555 1_555
C4 N1 1_555 1_555
H7 C4 1_555 1_555
H8 C4 1_555 1_555
C5 N1 1_555 1_555
H9 C5 1_555 1_555
H10 C5 1_555 1_555
C6 N2 1_555 1_555
H11 C6 1_555 1_555
H12 C6 1_555 1_555
O1_2 Zn1 1_555 1_555
N1 C1 1_555 1_555
N2 C4 1_555 1_555
N3 C5 1_555 1_555
N3 C6 1_555 1_555

#END
