
#######################################################################
#
#                 Cambridge Crystallographic Data Centre
#                                CCDC 
#
#######################################################################
#
# If this CIF has been generated from an entry in the Cambridge 
# Structural Database, then it will include bibliographic, chemical, 
# crystal, experimental, refinement or atomic coordinate data resulting 
# from the CCDC's data processing and validation procedures.
#
#######################################################################

data_BABRED
_symmetry_cell_setting           monoclinic
_symmetry_space_group_name_H-M   'P 21/c'
_symmetry_Int_Tables_number      14
_space_group_name_Hall           '-P 2ybc'
loop_
_symmetry_equiv_pos_site_id
_symmetry_equiv_pos_as_xyz
1 x,y,z
2 -x,1/2+y,1/2-z
3 -x,-y,-z
4 x,1/2-y,1/2+z
_cell_length_a                   7.2619(2)
_cell_length_b                   21.0889(5)
_cell_length_c                   7.3568(2)
_cell_angle_alpha                90
_cell_angle_beta                 102.9610(10)
_cell_angle_gamma                90
_cell_volume                     1097.96
loop_
_atom_site_label
_atom_site_type_symbol
_atom_site_fract_x
_atom_site_fract_y
_atom_site_fract_z
Hg1 Hg 0.560498(17) 0.403558(5) 0.461748(17)
Cl1 Cl 0.68679(14) 0.49929(4) 0.37047(15)
Cl2 Cl 0.53497(12) 0.32680(4) 0.68853(12)
P1 P -0.10422(12) 0.34970(4) 0.19100(12)
O1 O -0.2630(4) 0.33683(12) 0.2845(4)
N1 N 0.2691(4) 0.37898(13) 0.2390(4)
N2 N 0.0488(4) 0.42209(16) -0.0387(4)
N3 N 0.1264(4) 0.30809(14) -0.0215(4)
C1 C 0.1210(5) 0.36698(15) 0.3474(5)
H1 H 0.102(9) 0.402(2) 0.417(9)
H2 H 0.154(9) 0.330(3) 0.439(9)
C2 C -0.1256(5) 0.41695(16) 0.0341(5)
H3 H -0.235(9) 0.414(2) -0.061(9)
H4 H -0.138(8) 0.453(3) 0.096(8)
C3 C -0.0356(5) 0.28649(16) 0.0534(5)
H5 H 0.007(9) 0.253(3) 0.139(10)
H6 H -0.136(8) 0.274(2) -0.061(8)
C4 C 0.2150(5) 0.43391(15) 0.1100(5)
H7 H 0.195(6) 0.471(2) 0.186(6)
H8 H 0.304(6) 0.443(2) 0.051(6)
C5 C 0.0795(5) 0.36452(16) -0.1407(5)
H9 H -0.036(7) 0.354(2) -0.242(7)
H10 H 0.164(7) 0.375(2) -0.206(7)
C6 C 0.2926(5) 0.32168(16) 0.1257(5)
H11 H 0.316(9) 0.280(3) 0.203(8)
H12 H 0.390(7) 0.331(2) 0.064(6)
Hg1_2 Hg -0.439502(17) 0.403558(5) 0.461748(17)
O1_2 O 0.7370(4) 0.33683(12) 0.2845(4)
loop_
_geom_bond_atom_site_label_1
_geom_bond_atom_site_label_2
_geom_bond_site_symmetry_1
_geom_bond_site_symmetry_2
Hg1 Cl1 1_555 1_555
Cl2 Hg1 1_555 1_555
P1 O1 1_555 1_555
O1 Hg1_2 1_555 1_555
N1 Hg1 1_555 1_555
N2 C2 1_555 1_555
N3 C3 1_555 1_555
C1 P1 1_555 1_555
H1 C1 1_555 1_555
H2 C1 1_555 1_555
C2 P1 1_555 1_555
H3 C2 1_555 1_555
H4 C2 1_555 1_555
C3 P1 1_555 1_555
H5 C3 1_555 1_555
H6 C3 1_555 1_555
C4 N1 1_555 1_555
H7 C4 1_555 1_555
H8 C4 1_555 1_555
C5 N2 1_555 1_555
H9 C5 1_555 1_555
H10 C5 1_555 1_555
C6 N1 1_555 1_555
H11 C6 1_555 1_555
H12 C6 1_555 1_555
O1_2 Hg1 1_555 1_555
N1 C1 1_555 1_555
N2 C4 1_555 1_555
N3 C5 1_555 1_555
N3 C6 1_555 1_555

#END
