
#######################################################################
#
#                 Cambridge Crystallographic Data Centre
#                                CCDC 
#
#######################################################################
#
# If this CIF has been generated from an entry in the Cambridge 
# Structural Database, then it will include bibliographic, chemical, 
# crystal, experimental, refinement or atomic coordinate data resulting 
# from the CCDC's data processing and validation procedures.
#
#######################################################################

data_BABRON
_symmetry_cell_setting           orthorhombic
_symmetry_space_group_name_H-M   'P b c a'
_symmetry_Int_Tables_number      61
_space_group_name_Hall           '-P 2ac 2ab'
loop_
_symmetry_equiv_pos_site_id
_symmetry_equiv_pos_as_xyz
1 x,y,z
2 1/2-x,-y,1/2+z
3 -x,1/2+y,1/2-z
4 1/2+x,1/2-y,-z
5 -x,-y,-z
6 1/2+x,y,1/2-z
7 x,1/2-y,1/2+z
8 1/2-x,1/2+y,z
_cell_length_a                   7.05870(10)
_cell_length_b                   14.4678(2)
_cell_length_c                   25.9383(3)
_cell_angle_alpha                90
_cell_angle_beta                 90
_cell_angle_gamma                90
_cell_volume                     2648.92
loop_
_atom_site_label
_atom_site_type_symbol
_atom_site_fract_x
_atom_site_fract_y
_atom_site_fract_z
Cd1 Cd 0.443666(19) 0.783046(10) 0.282444(5)
Cl1 Cl 0.26247(7) 0.88076(3) 0.214689(18)
Cl2 Cl 0.63915(6) 0.68081(3) 0.219765(19)
S1 S -0.07436(8) 0.81737(4) 0.48562(2)
P1 P 0.10861(7) 0.88239(4) 0.44271(2)
O1 O 0.5283(2) 0.68743(12) 0.35073(6)
H1 H 0.472(4) 0.650(2) 0.3543(11)
N1 N 0.3297(2) 0.87766(12) 0.35567(6)
N2 N 0.1710(2) 1.02623(12) 0.37682(6)
N3 N 0.4394(2) 0.97265(12) 0.42939(7)
C1 C 0.7220(3) 0.66083(17) 0.35860(9)
H2 H 0.7519 0.6075 0.3367
H3 H 0.7412 0.6443 0.3949
H4 H 0.8054 0.7125 0.3496
C2 C 0.2002(3) 0.81918(14) 0.38712(8)
H5 H 0.2692 0.7637 0.3992
H6 H 0.0930 0.7983 0.3654
C3 C 0.0218(3) 0.98572(14) 0.41038(8)
H7 H -0.0903 0.9698 0.3892
H8 H -0.0177 1.0318 0.4364
C4 C 0.3290(3) 0.92632(15) 0.47028(8)
H9 H 0.3006 0.9707 0.4983
H10 H 0.4034 0.8747 0.4850
C5 C 0.2292(3) 0.96147(14) 0.33610(7)
H11 H 0.3134 0.9943 0.3117
H12 H 0.1153 0.9416 0.3168
C6 C 0.4929(3) 0.90923(15) 0.38808(8)
H13 H 0.5549 0.8544 0.4035
H14 H 0.5868 0.9401 0.3656
C7 C 0.3392(3) 1.05170(15) 0.40768(8)
H15 H 0.4278 1.0870 0.3856
H16 H 0.2988 1.0928 0.4362
Cd1E Cd -0.056334(19) 0.783046(10) 0.217556(5)
Cd1E_2 Cd 0.943666(19) 0.783046(10) 0.217556(5)
Cl1E Cl 0.76247(7) 0.88076(3) 0.285311(18)
Cl2E Cl 0.13915(6) 0.68081(3) 0.280235(19)
loop_
_geom_bond_atom_site_label_1
_geom_bond_atom_site_label_2
_geom_bond_site_symmetry_1
_geom_bond_site_symmetry_2
Cd1 Cl1 1_555 1_555
Cl1 Cd1E 1_555 1_555
Cl2 Cd1 1_555 1_555
S1 P1 1_555 1_555
P1 C2 1_555 1_555
O1 Cd1 1_555 1_555
H1 O1 1_555 1_555
N1 Cd1 1_555 1_555
N2 C3 1_555 1_555
N3 C4 1_555 1_555
C1 O1 1_555 1_555
H2 C1 1_555 1_555
H3 C1 1_555 1_555
H4 C1 1_555 1_555
C2 N1 1_555 1_555
H5 C2 1_555 1_555
H6 C2 1_555 1_555
C3 P1 1_555 1_555
H7 C3 1_555 1_555
H8 C3 1_555 1_555
C4 P1 1_555 1_555
H9 C4 1_555 1_555
H10 C4 1_555 1_555
C5 N1 1_555 1_555
H11 C5 1_555 1_555
H12 C5 1_555 1_555
C6 N1 1_555 1_555
H13 C6 1_555 1_555
H14 C6 1_555 1_555
C7 N2 1_555 1_555
H15 C7 1_555 1_555
H16 C7 1_555 1_555
Cd1E Cl2E 1_555 1_555
Cd1E_2 Cl2 1_555 1_555
Cl1E Cd1 1_555 1_555
Cl2E Cd1 1_555 1_555
N2 C5 1_555 1_555
N3 C6 1_555 1_555
N3 C7 1_555 1_555
Cd1E_2 Cl1E 1_555 1_555

#END
