
#######################################################################
#
#                 Cambridge Crystallographic Data Centre
#                                CCDC 
#
#######################################################################
#
# If this CIF has been generated from an entry in the Cambridge 
# Structural Database, then it will include bibliographic, chemical, 
# crystal, experimental, refinement or atomic coordinate data resulting 
# from the CCDC's data processing and validation procedures.
#
#######################################################################

data_BABTOP
_symmetry_cell_setting           monoclinic
_symmetry_space_group_name_H-M   'P 21/c'
_symmetry_Int_Tables_number      14
_space_group_name_Hall           '-P 2ybc'
loop_
_symmetry_equiv_pos_site_id
_symmetry_equiv_pos_as_xyz
1 x,y,z
2 -x,1/2+y,1/2-z
3 -x,-y,-z
4 x,1/2-y,1/2+z
_cell_length_a                   5.1195(12)
_cell_length_b                   12.734(3)
_cell_length_c                   7.2012(17)
_cell_angle_alpha                90
_cell_angle_beta                 107.396(7)
_cell_angle_gamma                90
_cell_volume                     447.986
loop_
_atom_site_label
_atom_site_type_symbol
_atom_site_fract_x
_atom_site_fract_y
_atom_site_fract_z
Ca1 Ca 0.0000 0.0000 0.5000
O1 O 0.2575(2) -0.01083(7) 0.28419(16)
O2 O 0.63202(18) 0.06057(8) 0.24273(15)
O3 O 0.1104(2) 0.32143(8) 0.03567(19)
N1 N 0.5392(3) 0.27702(10) 0.2052(2)
C1 C 0.3778(3) 0.05764(10) 0.21420(18)
C2 C 0.2005(3) 0.13928(10) 0.0805(2)
C3 C 0.2857(3) 0.25324(10) 0.10810(19)
H1 H 0.010(5) 0.1340(18) 0.088(3)
H2 H 0.195(4) 0.1205(17) -0.052(3)
H3 H 0.648(4) 0.2281(19) 0.250(3)
H4 H 0.600(4) 0.3404(18) 0.212(3)
Ca1_2 Ca 1.0000 0.0000 0.5000
Ca1A Ca 0.0000 0.5000 0.0000
Ca1_3 Ca -1.0000 0.0000 0.5000
Ca1A_2 Ca 0.0000 -0.5000 1.0000
O1B O -0.2575(2) 0.01083(7) 0.71581(16)
O2B O -0.63202(18) -0.06057(8) 0.75727(15)
O2_2 O -0.36798(18) 0.06057(8) 0.24273(15)
O2B_2 O 0.36798(18) -0.06057(8) 0.75727(15)
O3B O -0.1104(2) -0.32143(8) 0.96433(19)
O3A O -0.1104(2) -0.17857(8) 0.46433(19)
O3C O 0.1104(2) 0.17857(8) 0.53567(19)
N1B N -0.5392(3) -0.27702(10) 0.7948(2)
C1B C -0.3778(3) -0.05764(10) 0.78580(18)
C2B C -0.2005(3) -0.13928(10) 0.9195(2)
C3B C -0.2857(3) -0.25324(10) 0.89190(19)
H1B H -0.010(5) -0.1340(18) 0.912(3)
H2B H -0.195(4) -0.1205(17) 1.052(3)
H3B H -0.648(4) -0.2281(19) 0.750(3)
H4B H -0.600(4) -0.3404(18) 0.788(3)
loop_
_geom_bond_atom_site_label_1
_geom_bond_atom_site_label_2
_geom_bond_site_symmetry_1
_geom_bond_site_symmetry_2
Ca1 O1 1_555 1_555
O1 C1 1_555 1_555
O2 C1 1_555 1_555
O3 C3 1_555 1_555
N1 C3 1_555 1_555
C1 C2 1_555 1_555
C2 C3 1_555 1_555
H1 C2 1_555 1_555
H2 C2 1_555 1_555
H3 N1 1_555 1_555
H4 N1 1_555 1_555
Ca1_2 O2 1_555 1_555
Ca1A O3 1_555 1_555
Ca1_3 O2B 1_555 1_555
Ca1A_2 O3B 1_555 1_555
O1B Ca1 1_555 1_555
O2B C1B 1_555 1_555
O2_2 Ca1 1_555 1_555
O2B_2 Ca1 1_555 1_555
O3B C3B 1_555 1_555
O3A Ca1 1_555 1_555
O3C Ca1 1_555 1_555
N1B C3B 1_555 1_555
C1B O1B 1_555 1_555
C2B C1B 1_555 1_555
C3B C2B 1_555 1_555
H1B C2B 1_555 1_555
H2B C2B 1_555 1_555
H3B N1B 1_555 1_555
H4B N1B 1_555 1_555

#END
