
#######################################################################
#
#                 Cambridge Crystallographic Data Centre
#                                CCDC 
#
#######################################################################
#
# If this CIF has been generated from an entry in the Cambridge 
# Structural Database, then it will include bibliographic, chemical, 
# crystal, experimental, refinement or atomic coordinate data resulting 
# from the CCDC's data processing and validation procedures.
#
#######################################################################

data_BACFAN
_symmetry_cell_setting           orthorhombic
_symmetry_space_group_name_H-M   'P n m a'
_symmetry_Int_Tables_number      62
_space_group_name_Hall           '-P 2ac 2n'
loop_
_symmetry_equiv_pos_site_id
_symmetry_equiv_pos_as_xyz
1 x,y,z
2 1/2+x,1/2-y,1/2-z
3 -x,1/2+y,-z
4 1/2-x,-y,1/2+z
5 -x,-y,-z
6 1/2-x,1/2+y,1/2+z
7 x,1/2-y,z
8 1/2+x,y,1/2-z
_cell_length_a                   9.50(1)
_cell_length_b                   10.901(10)
_cell_length_c                   17.79(1)
_cell_angle_alpha                90
_cell_angle_beta                 90
_cell_angle_gamma                90
_cell_volume                     1842.32
loop_
_atom_site_label
_atom_site_type_symbol
_atom_site_fract_x
_atom_site_fract_y
_atom_site_fract_z
Ag1 Ag 0.7287(1) 0.2500 0.10510(8)
O1 O 0.6820(10) 0.0390(9) 0.1727(6)
N1 N 0.495(1) 0.2500 0.1358(9)
N2 N -0.041(1) 0.2500 0.0951(8)
C1 C 0.467(1) 0.143(2) 0.1850(10)
C2 C 0.534(3) 0.043(1) 0.183(2)
C3 C 0.721(2) -0.071(1) 0.141(1)
C4 C 0.408(2) 0.2500 0.0702(9)
C5 C 0.250(1) 0.2500 0.0756(7)
C6 C 0.1753(10) 0.356(1) 0.0777(6)
C7 C 0.0314(9) 0.353(1) 0.0880(8)
H1 H 0.4382 0.1522 0.2303
H2 H 0.3927 0.0896 0.1558
H3 H 0.4997 -0.0349 0.1765
H4 H 0.5454 0.0278 0.2509
H5 H 0.6625 -0.1048 0.1080
H6 H 0.7120 -0.1383 0.1885
H7 H 0.8167 -0.0794 0.1321
H8 H 0.4378 0.3212 0.0405
H9 H 0.4378 0.1788 0.0405
H10 H 0.2260 0.4357 0.0733
H11 H -0.0224 0.0699 0.0877
O1F O 0.6820(10) 0.4610(9) 0.1727(6)
C2F C 0.534(3) 0.457(1) 0.183(2)
C1F C 0.467(1) 0.357(2) 0.1850(10)
N2_2 N 0.959(1) 0.2500 0.0951(8)
Ag1_2 Ag -0.2713(1) 0.2500 0.10510(8)
C7F C 0.0314(9) 0.147(1) 0.0880(8)
C6F C 0.1753(10) 0.144(1) 0.0777(6)
H10F H 0.2260 0.0643 0.0733
H11F H -0.0224 0.4301 0.0877
H1F H 0.4382 0.3478 0.2303
H2F H 0.3927 0.4104 0.1558
H3F H 0.4997 0.5349 0.1765
H4F H 0.5454 0.4722 0.2509
C3F C 0.721(2) 0.571(1) 0.141(1)
H5F H 0.6625 0.6048 0.1080
H6F H 0.7120 0.6383 0.1885
H7F H 0.8167 0.5794 0.1321
S1 S 0.3065(4) -0.2500 0.0821(3)
F1 F 0.036(1) -0.2500 0.0838(10)
F2 F 0.122(1) -0.154(1) 0.1720(6)
O2 O 0.3017(9) -0.3598(7) 0.0385(5)
O3 O 0.404(1) -0.2500 0.1451(10)
C8 C 0.143(3) -0.2500 0.125(2)
O2F O 0.3017(9) -0.1402(7) 0.0385(5)
F2F F 0.122(1) -0.346(1) 0.1720(6)
loop_
_geom_bond_atom_site_label_1
_geom_bond_atom_site_label_2
_geom_bond_site_symmetry_1
_geom_bond_site_symmetry_2
Ag1 O1 1_555 1_555
O1 C2 1_555 1_555
N1 Ag1 1_555 1_555
N2 C7 1_555 1_555
C1 N1 1_555 1_555
C2 C1 1_555 1_555
C3 O1 1_555 1_555
C4 N1 1_555 1_555
C5 C4 1_555 1_555
C6 C5 1_555 1_555
C7 C6 1_555 1_555
H1 C1 1_555 1_555
H2 C1 1_555 1_555
H3 C2 1_555 1_555
H4 C2 1_555 1_555
H5 C3 1_555 1_555
H6 C3 1_555 1_555
H7 C3 1_555 1_555
H8 C4 1_555 1_555
H9 C4 1_555 1_555
H10 C6 1_555 1_555
H11 C7F 1_555 1_555
S1 O2 1_555 1_555
F1 C8 1_555 1_555
F2 C8 1_555 1_555
O3 S1 1_555 1_555
C8 S1 1_555 1_555
O1F Ag1 1_555 1_555
C2F O1F 1_555 1_555
C1F N1 1_555 1_555
N2_2 Ag1 1_555 1_555
Ag1_2 N2 1_555 1_555
C7F N2 1_555 1_555
C6F C5 1_555 1_555
H10F C6F 1_555 1_555
H11F C7 1_555 1_555
H1F C1F 1_555 1_555
H2F C1F 1_555 1_555
H3F C2F 1_555 1_555
H4F C2F 1_555 1_555
C3F O1F 1_555 1_555
H5F C3F 1_555 1_555
H6F C3F 1_555 1_555
H7F C3F 1_555 1_555
O2F S1 1_555 1_555
F2F C8 1_555 1_555
C2F C1F 1_555 1_555
C7F C6F 1_555 1_555

#END
