
#######################################################################
#
#                 Cambridge Crystallographic Data Centre
#                                CCDC 
#
#######################################################################
#
# If this CIF has been generated from an entry in the Cambridge 
# Structural Database, then it will include bibliographic, chemical, 
# crystal, experimental, refinement or atomic coordinate data resulting 
# from the CCDC's data processing and validation procedures.
#
#######################################################################

data_BACHAP
_symmetry_cell_setting           monoclinic
_symmetry_space_group_name_H-M   'P 21/c'
_symmetry_Int_Tables_number      14
_space_group_name_Hall           '-P 2ybc'
loop_
_symmetry_equiv_pos_site_id
_symmetry_equiv_pos_as_xyz
1 x,y,z
2 x,1/2-y,1/2+z
3 -x,-y,-z
4 -x,1/2+y,1/2-z
_cell_length_a                   9.497(6)
_cell_length_b                   9.410(2)
_cell_length_c                   18.232(8)
_cell_angle_alpha                90
_cell_angle_beta                 100.01(3)
_cell_angle_gamma                90
_cell_volume                     1604.53
loop_
_atom_site_label
_atom_site_type_symbol
_atom_site_fract_x
_atom_site_fract_y
_atom_site_fract_z
Cu1 Cu 0.87270(5) 0.36631(5) 0.18375(3)
N1 N 0.8833(4) 0.5563(3) 0.14256(18)
N2 N 0.7181(3) 0.4559(3) 0.23829(18)
N3 N 0.8210(5) 0.1763(4) 0.2142(3)
N4 N 0.8822(3) 0.0664(4) 0.21111(18)
N5 N 0.9378(4) -0.0422(4) 0.2092(2)
O1 O 1.0054(3) 0.2899(3) 0.12578(16)
O2 O 0.4759(3) 0.3996(4) 0.31265(19)
C1 C 1.0990(4) 0.3654(4) 0.0961(2)
C2 C 1.2071(5) 0.2911(5) 0.0681(2)
H1 H 1.2085 0.1923 0.0701
C3 C 1.3111(5) 0.3614(6) 0.0377(2)
H2 H 1.3826 0.3099 0.0208
C4 C 1.3091(5) 0.5097(6) 0.0324(2)
H3 H 1.3797 0.5574 0.0126
C5 C 1.2017(5) 0.5838(5) 0.0567(2)
H4 H 1.1984 0.6821 0.0515
C6 C 1.0963(4) 0.5154(4) 0.0895(2)
C7 C 0.9838(4) 0.6023(4) 0.1103(2)
H5 H 0.9845 0.6988 0.0994
C8 C 0.7715(5) 0.6531(3) 0.1595(3)
H6 H 0.6858 0.6440 0.1221
H7 H 0.8042 0.7508 0.1598
C9 C 0.7404(4) 0.6130(4) 0.2347(2)
H8 H 0.8196 0.6412 0.2730
H9 H 0.6553 0.6624 0.2438
C10 C 0.7309(4) 0.4046(5) 0.3168(2)
H10 H 0.8189 0.4411 0.3457
H11 H 0.7368 0.3017 0.3172
C11 C 0.6082(5) 0.4493(6) 0.3529(3)
H12 H 0.6218 0.4122 0.4033
H13 H 0.6059 0.5522 0.3558
C12 C 0.4534(4) 0.4558(5) 0.2388(2)
H14 H 0.4478 0.5586 0.2408
H15 H 0.3635 0.4206 0.2114
C13 C 0.5731(4) 0.4135(5) 0.1990(2)
H16 H 0.5711 0.3112 0.1925
H17 H 0.5565 0.4563 0.1499
N5C N 1.0622(4) 0.4578(4) 0.2908(2)
Cu1C Cu 1.12730(5) -0.13369(5) 0.31625(3)
O3 O 0.6322(5) 0.9801(8) 0.0458(3)
H18 H 0.616(10) 1.082(3) 0.044(5)
H19 H 0.634(9) 0.937(9) 0.093(2)
O4 O 0.8915(4) 0.0825(4) 0.0178(2)
H20 H 0.926(6) 0.148(5) 0.055(2)
H21 H 0.837(5) 0.018(5) 0.039(3)
loop_
_geom_bond_atom_site_label_1
_geom_bond_atom_site_label_2
_geom_bond_site_symmetry_1
_geom_bond_site_symmetry_2
Cu1 N1 1_555 1_555
N1 C7 1_555 1_555
N2 Cu1 1_555 1_555
N3 Cu1 1_555 1_555
N4 N3 1_555 1_555
N5 N4 1_555 1_555
O1 Cu1 1_555 1_555
O2 C11 1_555 1_555
C1 O1 1_555 1_555
C2 C1 1_555 1_555
H1 C2 1_555 1_555
C3 C2 1_555 1_555
H2 C3 1_555 1_555
C4 C3 1_555 1_555
H3 C4 1_555 1_555
C5 C4 1_555 1_555
H4 C5 1_555 1_555
C6 C1 1_555 1_555
C7 C6 1_555 1_555
H5 C7 1_555 1_555
C8 N1 1_555 1_555
H6 C8 1_555 1_555
H7 C8 1_555 1_555
C9 N2 1_555 1_555
H8 C9 1_555 1_555
H9 C9 1_555 1_555
C10 N2 1_555 1_555
H10 C10 1_555 1_555
H11 C10 1_555 1_555
C11 C10 1_555 1_555
H12 C11 1_555 1_555
H13 C11 1_555 1_555
C12 O2 1_555 1_555
H14 C12 1_555 1_555
H15 C12 1_555 1_555
C13 N2 1_555 1_555
H16 C13 1_555 1_555
H17 C13 1_555 1_555
O3 H18 1_555 1_555
H19 O3 1_555 1_555
O4 H20 1_555 1_555
H21 O4 1_555 1_555
N5C Cu1 1_555 1_555
Cu1C N5 1_555 1_555
C5 C6 1_555 1_555
C8 C9 1_555 1_555
C12 C13 1_555 1_555

#END
