
#######################################################################
#
#                 Cambridge Crystallographic Data Centre
#                                CCDC 
#
#######################################################################
#
# If this CIF has been generated from an entry in the Cambridge 
# Structural Database, then it will include bibliographic, chemical, 
# crystal, experimental, refinement or atomic coordinate data resulting 
# from the CCDC's data processing and validation procedures.
#
#######################################################################

data_BACHAP02
_symmetry_cell_setting           monoclinic
_symmetry_space_group_name_H-M   'P 21/c'
_symmetry_Int_Tables_number      14
_space_group_name_Hall           '-P 2ybc'
loop_
_symmetry_equiv_pos_site_id
_symmetry_equiv_pos_as_xyz
1 x,y,z
2 -x,1/2+y,1/2-z
3 -x,-y,-z
4 x,1/2-y,1/2+z
_cell_length_a                   9.4934(15)
_cell_length_b                   9.2962(14)
_cell_length_c                   18.377(3)
_cell_angle_alpha                90
_cell_angle_beta                 97.902(2)
_cell_angle_gamma                90
_cell_volume                     1606.42
loop_
_atom_site_label
_atom_site_type_symbol
_atom_site_fract_x
_atom_site_fract_y
_atom_site_fract_z
C1 C 0.5998(4) 0.3612(4) 0.0959(2)
C2 C 0.7104(5) 0.2863(5) 0.0680(2)
H1 H 0.7136 0.1865 0.0711
C3 C 0.8131(5) 0.3575(6) 0.0367(3)
H2 H 0.8854 0.3054 0.0195
C4 C 0.8108(5) 0.5049(6) 0.0302(3)
H3 H 0.8818 0.5526 0.0095
C5 C 0.7028(5) 0.5801(5) 0.0545(2)
H4 H 0.6994 0.6794 0.0485
C6 C 0.5964(4) 0.5119(4) 0.0883(2)
C7 C 0.4840(4) 0.6002(4) 0.1096(2)
H5 H 0.4849 0.6978 0.0985
C8 C 0.2739(5) 0.6525(4) 0.1610(2)
H6 H 0.1899 0.6457 0.1245
H7 H 0.3085 0.7507 0.1617
C9 C 0.2380(4) 0.6122(4) 0.2348(2)
H8 H 0.1526 0.6625 0.2438
H9 H 0.3149 0.6405 0.2724
C10 C 0.0750(4) 0.4107(4) 0.1972(2)
H10 H 0.0736 0.3071 0.1906
H11 H 0.0652 0.4544 0.1488
C11 C -0.0497(5) 0.4538(5) 0.2344(3)
H12 H -0.0551 0.5580 0.2361
H13 H -0.1366 0.4187 0.2060
C12 C 0.0887(5) 0.4474(5) 0.3490(3)
H14 H 0.0951 0.4089 0.3984
H15 H 0.0863 0.5515 0.3523
C13 C 0.2192(5) 0.4018(5) 0.3150(2)
H16 H 0.3037 0.4395 0.3445
H17 H 0.2258 0.2976 0.3157
Cu1 Cu 0.37445(5) 0.36400(5) 0.18594(3)
N1 N 0.3836(3) 0.5537(3) 0.14259(18)
N2 N 0.2148(3) 0.4532(3) 0.23851(18)
N3 N 0.3279(4) 0.1724(4) 0.2203(3)
N4 N 0.3897(3) 0.0632(3) 0.2150(2)
N5 N 0.4469(4) -0.0454(4) 0.2121(2)
O1 O 0.5059(3) 0.2854(3) 0.12625(16)
O2 O -0.0386(3) 0.3982(3) 0.30691(19)
Cu1A Cu 0.62555(5) -0.13600(5) 0.31406(3)
N5A N 0.5531(4) 0.4546(4) 0.2879(2)
O3 O 0.1639(11) 0.0306(13) 0.0480(4)
O4 O 0.3858(7) 0.0835(5) 0.0212(3)
loop_
_geom_bond_atom_site_label_1
_geom_bond_atom_site_label_2
_geom_bond_site_symmetry_1
_geom_bond_site_symmetry_2
C1 C2 1_555 1_555
C2 H1 1_555 1_555
C3 C2 1_555 1_555
H2 C3 1_555 1_555
C4 C3 1_555 1_555
H3 C4 1_555 1_555
C5 C4 1_555 1_555
H4 C5 1_555 1_555
C6 C1 1_555 1_555
C7 C6 1_555 1_555
H5 C7 1_555 1_555
C8 H6 1_555 1_555
H7 C8 1_555 1_555
C9 C8 1_555 1_555
H8 C9 1_555 1_555
H9 C9 1_555 1_555
C10 H10 1_555 1_555
H11 C10 1_555 1_555
C11 C10 1_555 1_555
H12 C11 1_555 1_555
H13 C11 1_555 1_555
C12 H14 1_555 1_555
H15 C12 1_555 1_555
C13 C12 1_555 1_555
H16 C13 1_555 1_555
H17 C13 1_555 1_555
Cu1 N1 1_555 1_555
N1 C7 1_555 1_555
N2 C9 1_555 1_555
N3 Cu1 1_555 1_555
N4 N3 1_555 1_555
N5 N4 1_555 1_555
O1 C1 1_555 1_555
O2 C11 1_555 1_555
Cu1A N5 1_555 1_555
N5A Cu1 1_555 1_555
C5 C6 1_555 1_555
C8 N1 1_555 1_555
C10 N2 1_555 1_555
C12 O2 1_555 1_555
C13 N2 1_555 1_555
Cu1 N2 1_555 1_555
Cu1 O1 1_555 1_555

#END
