
#######################################################################
#
#                 Cambridge Crystallographic Data Centre
#                                CCDC 
#
#######################################################################
#
# If this CIF has been generated from an entry in the Cambridge 
# Structural Database, then it will include bibliographic, chemical, 
# crystal, experimental, refinement or atomic coordinate data resulting 
# from the CCDC's data processing and validation procedures.
#
#######################################################################

data_BACMEZ
_symmetry_cell_setting           triclinic
_symmetry_space_group_name_H-M   'P -1'
_symmetry_Int_Tables_number      2
_space_group_name_Hall           '-P 1'
loop_
_symmetry_equiv_pos_site_id
_symmetry_equiv_pos_as_xyz
1 x,y,z
2 -x,-y,-z
_cell_length_a                   5.5204(3)
_cell_length_b                   14.0381(7)
_cell_length_c                   14.2388(7)
_cell_angle_alpha                90.726(3)
_cell_angle_beta                 95.356(3)
_cell_angle_gamma                94.292(3)
_cell_volume                     1095.34
loop_
_atom_site_label
_atom_site_type_symbol
_atom_site_fract_x
_atom_site_fract_y
_atom_site_fract_z
Fe1 Fe 0.67976(7) -0.02965(2) 0.60171(2)
P1 P 0.21387(13) 0.09870(4) 0.61582(4)
P2 P 0.21780(13) -0.09485(4) 0.70377(5)
O1 O 0.3558(4) 0.05577(12) 0.54095(12)
O2 O 0.3042(4) 0.20424(12) 0.63088(12)
O3 O -0.0604(4) 0.08654(12) 0.59756(13)
O4 O 0.4023(4) -0.13280(12) 0.64402(12)
O5 O -0.0445(4) -0.11014(12) 0.66374(13)
O6 O 0.2469(4) -0.13581(13) 0.80557(13)
H1 H 0.264(7) -0.188(2) 0.810(2)
O7 O 0.5722(4) 0.03923(13) 0.72960(13)
H2 H 0.605(7) 0.093(2) 0.741(2)
C1 C 0.3079(5) 0.03348(18) 0.72351(17)
C2 C 0.2116(5) 0.07836(18) 0.81045(18)
H5 H 0.0413 0.0540 0.8128
H6 H 0.2130 0.1475 0.8018
C3 C 0.3523(6) 0.06044(18) 0.90656(18)
H7 H 0.2768 0.0034 0.9343
H8 H 0.5208 0.0482 0.8968
C4 C 0.3541(6) 0.14528(19) 0.97508(19)
H9 H 0.4675 0.1353 1.0306
H10 H 0.4140 0.2034 0.9446
C5 C 0.1037(6) 0.15945(19) 1.0068(2)
H11 H -0.0184 0.1546 0.9520
H12 H 0.0600 0.1092 1.0507
N1 N 0.1038(6) 0.25431(18) 1.05359(19)
H13 H 0.092(7) 0.301(2) 1.010(3)
H14 H -0.031(8) 0.263(2) 1.078(3)
H15 H 0.228(8) 0.263(2) 1.099(3)
Fe1A Fe 0.32024(7) 0.02965(2) 0.39829(2)
Fe1_2 Fe -0.32024(7) -0.02965(2) 0.60171(2)
O1A O 0.6442(4) -0.05577(12) 0.45905(12)
O3_2 O 0.9396(4) 0.08654(12) 0.59756(13)
O5_2 O 0.9555(4) -0.11014(12) 0.66374(13)
Fe2 Fe -0.18557(7) 0.46477(3) 0.90889(3)
P3 P 0.33450(13) 0.59080(4) 0.87247(4)
P4 P 0.24596(13) 0.38304(4) 0.81813(4)
O8 O 0.1597(4) 0.57101(12) 0.94824(12)
O9 O 0.3239(4) 0.69127(12) 0.83538(13)
O10 O 0.5961(4) 0.57066(12) 0.90183(13)
O11 O 0.0769(4) 0.36998(12) 0.89550(12)
O12 O 0.5112(4) 0.36983(12) 0.84480(13)
O13 O 0.1377(4) 0.31559(13) 0.73517(13)
H3 H 0.213(6) 0.278(2) 0.701(2)
O14 O -0.0539(4) 0.51068(13) 0.76468(13)
H4 H -0.079(7) 0.560(2) 0.762(2)
C6 C 0.2111(5) 0.50541(17) 0.77622(17)
C7 C 0.3201(5) 0.51891(18) 0.68126(18)
H16 H 0.4971 0.5320 0.6937
H17 H 0.2907 0.4587 0.6450
C8 C 0.2204(6) 0.59851(19) 0.62076(18)
H18 H 0.0417 0.5925 0.6167
H19 H 0.2768 0.6605 0.6506
C9 C 0.3033(6) 0.59447(19) 0.52200(18)
H20 H 0.4810 0.6074 0.5262
H21 H 0.2642 0.5297 0.4957
C10 C 0.1868(6) 0.66497(18) 0.45528(19)
H22 H 0.2055 0.6459 0.3901
H23 H 0.0119 0.6637 0.4627
N2 N 0.2998(5) 0.76358(17) 0.47403(18)
H24 H 0.432(7) 0.771(2) 0.452(2)
H25 H 0.200(7) 0.806(2) 0.447(2)
H26 H 0.312(7) 0.781(2) 0.540(2)
Fe2A Fe 0.18557(7) 0.53523(3) 1.09111(3)
Fe2_2 Fe 0.81443(7) 0.46477(3) 0.90889(3)
O8A O -0.1597(4) 0.42899(12) 1.05176(12)
O10_2 O -0.4039(4) 0.57066(12) 0.90183(13)
O12_2 O -0.4888(4) 0.36983(12) 0.84480(13)
O15 O -0.2335(5) -0.29751(19) 0.7294(2)
H27 H -0.191(9) -0.250(3) 0.706(3)
H28 H -0.347(10) -0.284(3) 0.750(3)
O16 O -0.2679(5) 0.20873(15) 0.79500(19)
H29 H -0.162(9) 0.234(3) 0.772(3)
H30 H -0.338(8) 0.253(3) 0.810(3)
loop_
_geom_bond_atom_site_label_1
_geom_bond_atom_site_label_2
_geom_bond_site_symmetry_1
_geom_bond_site_symmetry_2
Fe1 O1 1_555 1_555
Fe2 O8 1_555 1_555
P1 O1 1_555 1_555
P2 O4 1_555 1_555
P3 O8 1_555 1_555
P4 O11 1_555 1_555
O1 Fe1A 1_555 1_555
O2 P1 1_555 1_555
O3 P1 1_555 1_555
O4 Fe1 1_555 1_555
O5 P2 1_555 1_555
O6 P2 1_555 1_555
H1 O6 1_555 1_555
O7 Fe1 1_555 1_555
H2 O7 1_555 1_555
O8 Fe2A 1_555 1_555
O9 P3 1_555 1_555
O10 P3 1_555 1_555
O11 Fe2 1_555 1_555
O12 P4 1_555 1_555
O13 P4 1_555 1_555
H3 O13 1_555 1_555
O14 Fe2 1_555 1_555
H4 O14 1_555 1_555
C1 P1 1_555 1_555
C2 C1 1_555 1_555
H5 C2 1_555 1_555
H6 C2 1_555 1_555
C3 C2 1_555 1_555
H7 C3 1_555 1_555
H8 C3 1_555 1_555
C4 C3 1_555 1_555
H9 C4 1_555 1_555
H10 C4 1_555 1_555
C5 C4 1_555 1_555
H11 C5 1_555 1_555
H12 C5 1_555 1_555
N1 C5 1_555 1_555
H13 N1 1_555 1_555
H14 N1 1_555 1_555
H15 N1 1_555 1_555
C6 P3 1_555 1_555
C7 C6 1_555 1_555
H16 C7 1_555 1_555
H17 C7 1_555 1_555
C8 C7 1_555 1_555
H18 C8 1_555 1_555
H19 C8 1_555 1_555
C9 C8 1_555 1_555
H20 C9 1_555 1_555
H21 C9 1_555 1_555
C10 C9 1_555 1_555
H22 C10 1_555 1_555
H23 C10 1_555 1_555
N2 C10 1_555 1_555
H24 N2 1_555 1_555
H25 N2 1_555 1_555
H26 N2 1_555 1_555
O15 H27 1_555 1_555
H28 O15 1_555 1_555
O16 H29 1_555 1_555
H30 O16 1_555 1_555
Fe1A O1A 1_555 1_555
Fe1_2 O3 1_555 1_555
Fe2A O8A 1_555 1_555
Fe2_2 O10 1_555 1_555
O1A Fe1 1_555 1_555
O3_2 Fe1 1_555 1_555
O5_2 Fe1 1_555 1_555
O8A Fe2 1_555 1_555
O10_2 Fe2 1_555 1_555
O12_2 Fe2 1_555 1_555
P2 C1 1_555 1_555
P4 C6 1_555 1_555
O5 Fe1_2 1_555 1_555
O7 C1 1_555 1_555
O12 Fe2_2 1_555 1_555
O14 C6 1_555 1_555

#END
