
#######################################################################
#
#                 Cambridge Crystallographic Data Centre
#                                CCDC 
#
#######################################################################
#
# If this CIF has been generated from an entry in the Cambridge 
# Structural Database, then it will include bibliographic, chemical, 
# crystal, experimental, refinement or atomic coordinate data resulting 
# from the CCDC's data processing and validation procedures.
#
#######################################################################

data_BACMOI
_symmetry_cell_setting           monoclinic
_symmetry_space_group_name_H-M   'P 21/n'
_symmetry_Int_Tables_number      14
_space_group_name_Hall           '-P 2yn'
loop_
_symmetry_equiv_pos_site_id
_symmetry_equiv_pos_as_xyz
1 x,y,z
2 1/2+x,1/2-y,1/2+z
3 -x,-y,-z
4 1/2-x,1/2+y,1/2-z
_cell_length_a                   11.9420(10)
_cell_length_b                   8.7190(10)
_cell_length_c                   16.123(2)
_cell_angle_alpha                90
_cell_angle_beta                 110.260(10)
_cell_angle_gamma                90
_cell_volume                     1574.9
loop_
_atom_site_label
_atom_site_type_symbol
_atom_site_fract_x
_atom_site_fract_y
_atom_site_fract_z
Cu1 Cu 0.28723(3) 0.04040(3) 0.161712(15)
N1 N 0.15219(18) 0.1303(2) 0.06686(11)
N2 N 0.30115(18) -0.1083(2) 0.07294(11)
N3 N 0.24937(19) 0.0862(2) -0.03617(12)
N4 N 0.5182(2) -0.0268(3) 0.25609(13)
N5 N 0.33102(18) 0.3429(2) 0.21357(12)
O1 O 0.41586(18) -0.05671(19) 0.25888(10)
O2 O 0.5262(2) 0.0571(3) 0.19773(17)
O3 O 0.6070(2) -0.0798(4) 0.31343(16)
O4 O 0.29615(16) 0.22089(17) 0.24132(9)
O5 O 0.3570(2) 0.3369(2) 0.14651(13)
O6 O 0.33725(19) 0.46263(18) 0.25598(14)
C1 C 0.0619(2) 0.1936(3) 0.08745(15)
H1 H 0.0591 0.1766 0.1437
C2 C -0.0253(3) 0.2809(3) 0.03001(16)
H2 H -0.0864 0.3226 0.0462
C3 C -0.0199(3) 0.3058(3) -0.05367(16)
H3 H -0.0768 0.3670 -0.0941
C4 C 0.0688(3) 0.2401(3) -0.07621(15)
H4 H 0.0716 0.2542 -0.1327
C5 C 0.1559(2) 0.1514(2) -0.01456(14)
C6 C 0.3380(2) -0.2533(3) 0.09755(15)
H5 H 0.3341 -0.2900 0.1506
C7 C 0.3805(3) -0.3478(3) 0.04812(17)
H6 H 0.4036 -0.4478 0.0662
C8 C 0.3883(3) -0.2904(3) -0.03020(18)
H7 H 0.4208 -0.3504 -0.0639
C9 C 0.3482(3) -0.1456(3) -0.05773(16)
H8 H 0.3532 -0.1065 -0.1100
C10 C 0.2995(2) -0.0572(3) -0.00624(14)
C11 C 0.2806(3) 0.1592(3) -0.10796(17)
H9 H 0.3642 0.1389 -0.0977
H10 H 0.2718 0.2693 -0.1040
C12 C 0.2094(3) 0.1096(4) -0.20062(19)
H11 H 0.2245 0.1609 -0.2462
C13 C 0.1295(3) 0.0034(5) -0.2232(2)
H12 H 0.1111 -0.0512 -0.1801
H13 H 0.0902 -0.0186 -0.2827
O6C O 0.16275(19) -0.03737(18) 0.24402(14)
Cu1C Cu 0.21277(3) 0.54040(3) 0.338288(15)
loop_
_geom_bond_atom_site_label_1
_geom_bond_atom_site_label_2
_geom_bond_site_symmetry_1
_geom_bond_site_symmetry_2
Cu1 N1 1_555 1_555
N1 C1 1_555 1_555
N2 Cu1 1_555 1_555
N3 C5 1_555 1_555
N4 O1 1_555 1_555
N5 O4 1_555 1_555
O1 Cu1 1_555 1_555
O2 N4 1_555 1_555
O3 N4 1_555 1_555
O4 Cu1 1_555 1_555
O5 N5 1_555 1_555
O6 N5 1_555 1_555
C1 H1 1_555 1_555
C2 C1 1_555 1_555
H2 C2 1_555 1_555
C3 C2 1_555 1_555
H3 C3 1_555 1_555
C4 C3 1_555 1_555
H4 C4 1_555 1_555
C5 N1 1_555 1_555
C6 N2 1_555 1_555
H5 C6 1_555 1_555
C7 C6 1_555 1_555
H6 C7 1_555 1_555
C8 C7 1_555 1_555
H7 C8 1_555 1_555
C9 C8 1_555 1_555
H8 C9 1_555 1_555
C10 N2 1_555 1_555
C11 N3 1_555 1_555
H9 C11 1_555 1_555
H10 C11 1_555 1_555
C12 C11 1_555 1_555
H11 C12 1_555 1_555
C13 C12 1_555 1_555
H12 C13 1_555 1_555
H13 C13 1_555 1_555
O6C Cu1 1_555 1_555
Cu1C O6 1_555 1_555
N3 C10 1_555 1_555
C4 C5 1_555 1_555
C9 C10 1_555 1_555

#END
