
#######################################################################
#
#                 Cambridge Crystallographic Data Centre
#                                CCDC 
#
#######################################################################
#
# If this CIF has been generated from an entry in the Cambridge 
# Structural Database, then it will include bibliographic, chemical, 
# crystal, experimental, refinement or atomic coordinate data resulting 
# from the CCDC's data processing and validation procedures.
#
#######################################################################

data_BACMEY
_symmetry_cell_setting           triclinic
_symmetry_space_group_name_H-M   'P -1'
_symmetry_Int_Tables_number      2
_space_group_name_Hall           '-P 1'
loop_
_symmetry_equiv_pos_site_id
_symmetry_equiv_pos_as_xyz
1 x,y,z
2 -x,-y,-z
_cell_length_a                   4.6494(4)
_cell_length_b                   10.4474(7)
_cell_length_c                   12.7846(10)
_cell_angle_alpha                84.239(3)
_cell_angle_beta                 86.169(3)
_cell_angle_gamma                82.596(2)
_cell_volume                     611.799
loop_
_atom_site_label
_atom_site_type_symbol
_atom_site_fract_x
_atom_site_fract_y
_atom_site_fract_z
Ag1 Ag 0.2670(2) 0.37760(8) 0.05243(10)
S1 S 0.7444(5) 0.3901(2) 0.21757(19)
C1 C 0.6459(17) 0.2313(8) 0.2347(7)
C2 C 0.685(2) 0.0245(9) 0.3068(9)
C3 C 0.820(3) -0.0742(11) 0.3882(10)
H1 H 0.7591 -0.1570 0.3806
H2 H 0.7586 -0.0488 0.4571
H3 H 1.0274 -0.0800 0.3791
C4 C 0.516(2) -0.0064(9) 0.2353(8)
H4 H 0.4786 -0.0915 0.2341
C5 C 0.3967(17) 0.0898(9) 0.1632(8)
C6 C 0.1991(18) 0.0676(10) 0.0803(8)
H5 H 0.1447 0.1479 0.0389
H6 H 0.0282 0.0352 0.1134
H7 H 0.2982 0.0056 0.0356
C7 C 0.9132(18) 0.4052(9) 0.3386(7)
H8 H 1.0102 0.3211 0.3640
H9 H 1.0596 0.4638 0.3240
C8 C 0.7042(16) 0.4538(8) 0.4219(7)
C9 C 0.571(2) 0.5789(8) 0.4128(8)
H10 H 0.6170 0.6349 0.3546
C10 C 0.634(2) 0.3768(9) 0.5092(9)
H11 H 0.7249 0.2920 0.5177
N1 N 0.4657(14) 0.2117(7) 0.1622(6)
N2 N 0.7551(15) 0.1469(7) 0.3078(6)
N3 N 0.194(3) 0.6755(9) 0.1152(9)
O1 O 0.1809(17) 0.6062(6) 0.0434(6)
O2 O 0.050(4) 0.6893(17) 0.1854(11)
O3 O 0.408(5) 0.7263(15) 0.1158(11)
C10A C 0.366(2) 0.6232(9) 0.4908(9)
C8A C 0.2958(16) 0.5462(8) 0.5781(7)
C7A C 0.0868(18) 0.5948(9) 0.6614(7)
S1A S 0.2556(5) 0.6099(2) 0.78243(19)
C1A C 0.3541(17) 0.7687(8) 0.7653(7)
N1A N 0.5343(14) 0.7883(7) 0.8378(6)
C5A C 0.6033(17) 0.9102(9) 0.8368(8)
C4A C 0.484(2) 1.0064(9) 0.7647(8)
C2A C 0.315(2) 0.9755(9) 0.6932(9)
C3A C 0.180(3) 1.0742(11) 0.6118(10)
H1A H 0.2409 1.1570 0.6194
H2A H 0.2414 1.0488 0.5429
H3A H -0.0274 1.0800 0.6209
N2A N 0.2449(15) 0.8531(7) 0.6922(6)
H4A H 0.5214 1.0915 0.7659
C6A C 0.8009(18) 0.9324(10) 0.9197(8)
H5A H 0.8553 0.8521 0.9611
H6A H 0.9718 0.9648 0.8866
H7A H 0.7018 0.9944 0.9644
H8A H -0.0102 0.6789 0.6360
H9A H -0.0596 0.5362 0.6760
C9A C 0.429(2) 0.4211(8) 0.5872(8)
H10A H 0.3830 0.3651 0.6454
H11A H 0.2751 0.7080 0.4823
N3A N -0.194(3) 0.3245(9) -0.1152(9)
O1A O -0.1809(17) 0.3938(6) -0.0434(6)
O2A O -0.050(4) 0.3107(17) -0.1854(11)
O3A O -0.408(5) 0.2737(15) -0.1158(11)
Ag1A Ag 0.7330(2) 0.62240(8) 0.94757(10)
Ag1A_2 Ag -0.2670(2) 0.62240(8) -0.05243(10)
O1_2 O 1.1809(17) 0.6062(6) 1.0434(6)
O1A_2 O 0.8191(17) 0.3938(6) 0.9566(6)
loop_
_geom_bond_atom_site_label_1
_geom_bond_atom_site_label_2
_geom_bond_site_symmetry_1
_geom_bond_site_symmetry_2
Ag1 N1 1_555 1_555
S1 C1 1_555 1_555
C1 N1 1_555 1_555
C2 C3 1_555 1_555
C3 H1 1_555 1_555
H2 C3 1_555 1_555
H3 C3 1_555 1_555
C4 C2 1_555 1_555
H4 C4 1_555 1_555
C5 C4 1_555 1_555
C6 C5 1_555 1_555
H5 C6 1_555 1_555
H6 C6 1_555 1_555
H7 C6 1_555 1_555
C7 S1 1_555 1_555
H8 C7 1_555 1_555
H9 C7 1_555 1_555
C8 C7 1_555 1_555
C9 C8 1_555 1_555
H10 C9 1_555 1_555
C10 C8 1_555 1_555
H11 C10 1_555 1_555
N1 C5 1_555 1_555
N2 C1 1_555 1_555
N3 O1 1_555 1_555
O1 Ag1 1_555 1_555
O2 N3 1_555 1_555
O3 N3 1_555 1_555
C10A C9 1_555 1_555
C8A C10A 1_555 1_555
C7A C8A 1_555 1_555
S1A C7A 1_555 1_555
C1A S1A 1_555 1_555
N1A C1A 1_555 1_555
C5A N1A 1_555 1_555
C4A C5A 1_555 1_555
C2A C4A 1_555 1_555
C3A C2A 1_555 1_555
H1A C3A 1_555 1_555
H2A C3A 1_555 1_555
H3A C3A 1_555 1_555
N2A C1A 1_555 1_555
H4A C4A 1_555 1_555
C6A C5A 1_555 1_555
H5A C6A 1_555 1_555
H6A C6A 1_555 1_555
H7A C6A 1_555 1_555
H8A C7A 1_555 1_555
H9A C7A 1_555 1_555
C9A C10 1_555 1_555
H10A C9A 1_555 1_555
H11A C10A 1_555 1_555
N3A O1A 1_555 1_555
O1A Ag1 1_555 1_555
O2A N3A 1_555 1_555
O3A N3A 1_555 1_555
Ag1A N1A 1_555 1_555
Ag1A_2 O1 1_555 1_555
O1_2 Ag1A 1_555 1_555
O1A_2 Ag1A 1_555 1_555
C2 N2 1_555 1_555
C8A C9A 1_555 1_555
C2A N2A 1_555 1_555
O1A Ag1A_2 1_555 1_555

#END
