
#######################################################################
#
#                 Cambridge Crystallographic Data Centre
#                                CCDC 
#
#######################################################################
#
# If this CIF has been generated from an entry in the Cambridge 
# Structural Database, then it will include bibliographic, chemical, 
# crystal, experimental, refinement or atomic coordinate data resulting 
# from the CCDC's data processing and validation procedures.
#
#######################################################################

data_BACMIC
_symmetry_cell_setting           orthorhombic
_symmetry_space_group_name_H-M   'P n n a'
_symmetry_Int_Tables_number      52
_space_group_name_Hall           '-P 2a 2bc'
loop_
_symmetry_equiv_pos_site_id
_symmetry_equiv_pos_as_xyz
1 x,y,z
2 1/2+x,y,-z
3 1/2+x,1/2-y,1/2+z
4 -x,1/2+y,1/2+z
5 -x,-y,-z
6 1/2-x,-y,z
7 1/2-x,1/2+y,1/2-z
8 x,1/2-y,1/2-z
_cell_length_a                   17.01080(10)
_cell_length_b                   27.9953(5)
_cell_length_c                   10.2189(2)
_cell_angle_alpha                90
_cell_angle_beta                 90
_cell_angle_gamma                90
_cell_volume                     4866.47
loop_
_atom_site_label
_atom_site_type_symbol
_atom_site_fract_x
_atom_site_fract_y
_atom_site_fract_z
Ag1 Ag 0.72490(3) 0.63765(3) 0.30489(6)
Ag2 Ag 0.29060(3) 0.62583(2) 0.24943(6)
Ag3 Ag 0.2500 0.5000 0.07022(7)
S1 S 0.67368(8) 0.58571(6) 0.51837(15)
S2 S 0.34316(8) 0.53297(6) 0.33270(16)
O1 O 0.7143(5) 0.7129(3) 0.4275(10)
O2 O 0.7723(5) 0.7334(3) 0.6040(9)
O3 O 0.8154(4) 0.6764(3) 0.4830(8)
O4 O 0.8264(3) 0.6093(2) 0.1748(5)
O5 O 0.8388(3) 0.5904(2) -0.0296(5)
O6 O 0.7436(3) 0.6345(2) 0.0314(6)
N1 N 0.6655(3) 0.6443(2) 0.7181(5)
N2 N 0.5445(3) 0.6290(2) 0.6077(5)
N3 N 0.5874(3) 0.63074(18) 0.2772(5)
N4 N 0.4242(3) 0.63142(18) 0.2774(5)
N5 N 0.4805(3) 0.4932(2) 0.2651(5)
N6 N 0.3689(3) 0.47622(19) 0.1335(5)
N7 N 0.7679(5) 0.7090(3) 0.5049(9)
N8 N 0.8027(3) 0.6120(2) 0.0595(6)
C1 C 0.6287(4) 0.6759(3) 0.7914(7)
H1 H 0.6571 0.6925 0.8545
C2 C 0.5487(4) 0.6854(3) 0.7778(7)
H2 H 0.5234 0.7081 0.8292
C3 C 0.5095(4) 0.6598(3) 0.6858(7)
H3 H 0.4556 0.6642 0.6776
C4 C 0.6216(3) 0.6233(2) 0.6243(6)
C5 C 0.5943(3) 0.5621(2) 0.4210(6)
H4 H 0.5586 0.5449 0.4783
H5 H 0.6158 0.5393 0.3594
C6 C 0.5478(3) 0.5988(2) 0.3460(5)
C7 C 0.5478(3) 0.6652(2) 0.2076(6)
C8 C 0.5887(4) 0.7005(2) 0.1411(6)
H6 H 0.6433 0.7001 0.1390
C9 C 0.5482(4) 0.7360(2) 0.0787(6)
H7 H 0.5757 0.7603 0.0365
C10 C 0.4660(4) 0.7362(3) 0.0775(6)
H8 H 0.4392 0.7604 0.0341
C11 C 0.4248(4) 0.7011(2) 0.1397(6)
H9 H 0.3702 0.7010 0.1368
C12 C 0.4644(3) 0.6655(2) 0.2073(6)
C13 C 0.4633(3) 0.5995(2) 0.3468(5)
C14 C 0.4139(3) 0.5665(2) 0.4288(6)
H10 H 0.4481 0.5443 0.4744
H11 H 0.3861 0.5850 0.4941
C15 C 0.4051(3) 0.4980(2) 0.2332(6)
C16 C 0.5223(4) 0.4642(3) 0.1897(8)
H12 H 0.5755 0.4605 0.2075
C17 C 0.4908(4) 0.4393(3) 0.0867(7)
H13 H 0.5211 0.4187 0.0364
C18 C 0.4120(4) 0.4465(2) 0.0613(6)
H14 H 0.3885 0.4302 -0.0076
S1E S -0.17368(8) 0.41429(6) 0.51837(15)
S2E S 0.15684(8) 0.46703(6) 0.33270(16)
N1E N -0.1655(3) 0.3557(2) 0.7181(5)
N2E N -0.0445(3) 0.3710(2) 0.6077(5)
N3E N -0.0874(3) 0.36926(18) 0.2772(5)
N4E N 0.0758(3) 0.36858(18) 0.2774(5)
N5E N 0.0195(3) 0.5068(2) 0.2651(5)
N6E N 0.1311(3) 0.52378(19) 0.1335(5)
C1E C -0.1287(4) 0.3241(3) 0.7914(7)
H1E H -0.1571 0.3075 0.8545
C2E C -0.0487(4) 0.3146(3) 0.7778(7)
H2E H -0.0234 0.2919 0.8292
C3E C -0.0095(4) 0.3402(3) 0.6858(7)
H3E H 0.0444 0.3358 0.6776
C4E C -0.1216(3) 0.3767(2) 0.6243(6)
C5E C -0.0943(3) 0.4379(2) 0.4210(6)
H4E H -0.0586 0.4551 0.4783
H5E H -0.1158 0.4607 0.3594
C6E C -0.0478(3) 0.4012(2) 0.3460(5)
C7E C -0.0478(3) 0.3348(2) 0.2076(6)
C8E C -0.0887(4) 0.2995(2) 0.1411(6)
H6E H -0.1433 0.2999 0.1390
C9E C -0.0482(4) 0.2640(2) 0.0787(6)
H7E H -0.0757 0.2397 0.0365
C10E C 0.0340(4) 0.2638(3) 0.0775(6)
H8E H 0.0608 0.2396 0.0341
C11E C 0.0752(4) 0.2989(2) 0.1397(6)
H9E H 0.1298 0.2990 0.1368
C12E C 0.0356(3) 0.3345(2) 0.2073(6)
C13E C 0.0367(3) 0.4005(2) 0.3468(5)
C14E C 0.0861(3) 0.4335(2) 0.4288(6)
H10E H 0.0519 0.4557 0.4744
H11E H 0.1139 0.4150 0.4941
C15E C 0.0949(3) 0.5020(2) 0.2332(6)
C16E C -0.0223(4) 0.5358(3) 0.1897(8)
H12E H -0.0755 0.5395 0.2075
C17E C 0.0092(4) 0.5607(3) 0.0867(7)
H13E H -0.0211 0.5813 0.0364
C18E C 0.0880(4) 0.5535(2) 0.0613(6)
H14E H 0.1115 0.5698 -0.0076
Ag1E Ag -0.22490(3) 0.36235(3) 0.30489(6)
Ag2E Ag 0.20940(3) 0.37417(2) 0.24943(6)
O4A O 0.3264(3) 0.6093(2) -0.1748(5)
O5A O 0.3388(3) 0.5904(2) 0.0296(5)
O6A O 0.2436(3) 0.6345(2) -0.0314(6)
N8A N 0.3027(3) 0.6120(2) -0.0595(6)
O1E O -0.2143(5) 0.2871(3) 0.4275(10)
O2E O -0.2723(5) 0.2666(3) 0.6040(9)
O3E O -0.3154(4) 0.3236(3) 0.4830(8)
N7E N -0.2679(5) 0.2910(3) 0.5049(9)
N1A N 0.1655(3) 0.6443(2) 0.2819(5)
Ag2A Ag 0.79060(3) 0.62583(2) -0.24943(6)
Ag2A_2 Ag 0.79060(3) 0.62583(2) 0.75057(6)
Ag2D Ag -0.29060(3) 0.37417(2) 0.75057(6)
O4E O -0.3264(3) 0.3907(2) 0.1748(5)
O5D O 0.1612(3) 0.4096(2) 0.0296(5)
N1D N 0.3345(3) 0.3557(2) 0.2819(5)
Ag1A Ag 0.22490(3) 0.63765(3) -0.30489(6)
O7 O -0.1989(3) 0.4777(2) 0.1645(5)
O8 O -0.2500 0.5000 0.3448(8)
N9 N -0.2500 0.5000 0.2253(8)
O7E O -0.3011(3) 0.5223(2) 0.1645(5)
O9 O 0.3707(9) 0.7500 -0.2500
loop_
_geom_bond_atom_site_label_1
_geom_bond_atom_site_label_2
_geom_bond_site_symmetry_1
_geom_bond_site_symmetry_2
Ag1 S1 1_555 1_555
Ag2 S2 1_555 1_555
Ag3 N6 1_555 1_555
S1 C4 1_555 1_555
S2 C14 1_555 1_555
O1 Ag1 1_555 1_555
O2 N7 1_555 1_555
O3 Ag1 1_555 1_555
O4 Ag1 1_555 1_555
O5 N8 1_555 1_555
O6 N8 1_555 1_555
O7 N9 1_555 1_555
O8 N9 1_555 1_555
N1 C1 1_555 1_555
N2 C3 1_555 1_555
N3 Ag1 1_555 1_555
N4 Ag2 1_555 1_555
N5 C15 1_555 1_555
N6 C15 1_555 1_555
N7 O1 1_555 1_555
N8 O4 1_555 1_555
N9 O7E 1_555 1_555
C1 H1 1_555 1_555
C2 C1 1_555 1_555
H2 C2 1_555 1_555
C3 C2 1_555 1_555
H3 C3 1_555 1_555
C4 N1 1_555 1_555
C5 S1 1_555 1_555
H4 C5 1_555 1_555
H5 C5 1_555 1_555
C6 N3 1_555 1_555
C7 N3 1_555 1_555
C8 C7 1_555 1_555
H6 C8 1_555 1_555
C9 C8 1_555 1_555
H7 C9 1_555 1_555
C10 C9 1_555 1_555
H8 C10 1_555 1_555
C11 C10 1_555 1_555
H9 C11 1_555 1_555
C12 N4 1_555 1_555
C13 N4 1_555 1_555
C14 C13 1_555 1_555
H10 C14 1_555 1_555
H11 C14 1_555 1_555
C15 S2 1_555 1_555
C16 N5 1_555 1_555
H12 C16 1_555 1_555
C17 C16 1_555 1_555
H13 C17 1_555 1_555
C18 N6 1_555 1_555
H14 C18 1_555 1_555
S1E C4E 1_555 1_555
S2E C14E 1_555 1_555
N1E C1E 1_555 1_555
N2E C3E 1_555 1_555
N3E C6E 1_555 1_555
N4E C12E 1_555 1_555
N5E C15E 1_555 1_555
N6E Ag3 1_555 1_555
C1E H1E 1_555 1_555
C2E C1E 1_555 1_555
H2E C2E 1_555 1_555
C3E C2E 1_555 1_555
H3E C3E 1_555 1_555
C4E N1E 1_555 1_555
C5E S1E 1_555 1_555
H4E C5E 1_555 1_555
H5E C5E 1_555 1_555
C6E C5E 1_555 1_555
C7E N3E 1_555 1_555
C8E C7E 1_555 1_555
H6E C8E 1_555 1_555
C9E C8E 1_555 1_555
H7E C9E 1_555 1_555
C10E C9E 1_555 1_555
H8E C10E 1_555 1_555
C11E C10E 1_555 1_555
H9E C11E 1_555 1_555
C12E C7E 1_555 1_555
C13E N4E 1_555 1_555
C14E C13E 1_555 1_555
H10E C14E 1_555 1_555
H11E C14E 1_555 1_555
C15E S2E 1_555 1_555
C16E N5E 1_555 1_555
H12E C16E 1_555 1_555
C17E C16E 1_555 1_555
H13E C17E 1_555 1_555
C18E N6E 1_555 1_555
H14E C18E 1_555 1_555
Ag1E S1E 1_555 1_555
Ag2E S2E 1_555 1_555
O4A N8A 1_555 1_555
O5A Ag2 1_555 1_555
O6A N8A 1_555 1_555
N8A O5A 1_555 1_555
O1E Ag1E 1_555 1_555
O2E N7E 1_555 1_555
O3E Ag1E 1_555 1_555
N7E O1E 1_555 1_555
N1A Ag2 1_555 1_555
Ag2A O5 1_555 1_555
Ag2A_2 N1 1_555 1_555
Ag2D N1E 1_555 1_555
O4E Ag1E 1_555 1_555
O5D Ag2E 1_555 1_555
N1D Ag2E 1_555 1_555
Ag1A O4A 1_555 1_555
O3 N7 1_555 1_555
N2 C4 1_555 1_555
C5 C6 1_555 1_555
C6 C13 1_555 1_555
C7 C12 1_555 1_555
C11 C12 1_555 1_555
C17 C18 1_555 1_555
N2E C4E 1_555 1_555
N3E Ag1E 1_555 1_555
N4E Ag2E 1_555 1_555
N6E C15E 1_555 1_555
C6E C13E 1_555 1_555
C11E C12E 1_555 1_555
C17E C18E 1_555 1_555
O3E N7E 1_555 1_555

#END
