
#######################################################################
#
#                 Cambridge Crystallographic Data Centre
#                                CCDC 
#
#######################################################################
#
# If this CIF has been generated from an entry in the Cambridge 
# Structural Database, then it will include bibliographic, chemical, 
# crystal, experimental, refinement or atomic coordinate data resulting 
# from the CCDC's data processing and validation procedures.
#
#######################################################################

data_BACMOJ
_symmetry_cell_setting           triclinic
_symmetry_space_group_name_H-M   'P -1'
_symmetry_Int_Tables_number      2
_space_group_name_Hall           '-P 1'
loop_
_symmetry_equiv_pos_site_id
_symmetry_equiv_pos_as_xyz
1 x,y,z
2 -x,-y,-z
_cell_length_a                   8.1805(3)
_cell_length_b                   8.3881(4)
_cell_length_c                   10.3572(4)
_cell_angle_alpha                75.270(2)
_cell_angle_beta                 77.932(2)
_cell_angle_gamma                76.967(2)
_cell_volume                     660.896
loop_
_atom_site_label
_atom_site_type_symbol
_atom_site_fract_x
_atom_site_fract_y
_atom_site_fract_z
Zn1 Zn 0.38823(3) 0.37599(3) 0.66590(2)
Zn2 Zn -0.03100(3) 0.75836(3) 0.62822(2)
Cl1 Cl 0.23662(7) 0.33288(7) 0.87765(5)
P1 P 0.25799(6) 0.51061(6) 0.39266(5)
P2 P 0.26358(6) 0.86885(6) 0.41388(5)
O1 O 0.21589(17) 0.46174(17) 0.54871(14)
O2 O 0.44996(17) 0.48222(17) 0.34659(15)
O3 O 0.17212(18) 0.41878(18) 0.32598(14)
O4 O 0.19607(18) 0.82914(18) 0.56533(14)
O5 O 0.21008(18) 1.04988(17) 0.34457(15)
O6 O 0.45837(17) 0.82322(18) 0.38367(15)
O7 O -0.00852(17) 0.75763(18) 0.41848(14)
H1 H -0.061(3) 0.689(3) 0.412(3)
O8 O 0.0194(2) 0.6923(2) 0.82733(16)
H2 H -0.058(4) 0.704(4) 0.878(3)
H3 H 0.074(4) 0.592(4) 0.849(3)
N1 N 0.4415(3) 0.8515(3) -0.28801(18)
H4 H 0.515(4) 0.796(4) -0.340(3)
H5 H 0.458(4) 0.956(4) -0.314(3)
H6 H 0.339(4) 0.845(3) -0.310(3)
C1 C 0.1657(2) 0.7365(2) 0.34464(19)
C2 C 0.1545(3) 0.7988(3) 0.1939(2)
H7 H 0.0795 0.7376 0.1712
H8 H 0.1010 0.9175 0.1782
C3 C 0.3225(3) 0.7808(3) 0.0976(2)
H9 H 0.3754 0.6620 0.1098
H10 H 0.3993 0.8405 0.1199
C4 C 0.2997(3) 0.8497(3) -0.0499(2)
H11 H 0.1986 0.8176 -0.0654
H12 H 0.2826 0.9724 -0.0700
C5 C 0.4529(3) 0.7828(3) -0.1422(2)
H13 H 0.5542 0.8101 -0.1225
H14 H 0.4666 0.6604 -0.1236
Zn1A Zn 0.61177(3) 0.62401(3) 0.33410(2)
Zn2A Zn 0.03100(3) 0.24164(3) 0.37178(2)
Zn2A_2 Zn 0.03100(3) 1.24164(3) 0.37178(2)
O2A O 0.55004(17) 0.51778(17) 0.65341(15)
O3A O -0.17212(18) 0.58122(18) 0.67402(14)
O5A O -0.21008(18) 0.95012(17) 0.65543(15)
O6A O 0.54163(17) 0.17678(18) 0.61633(15)
loop_
_geom_bond_atom_site_label_1
_geom_bond_atom_site_label_2
_geom_bond_site_symmetry_1
_geom_bond_site_symmetry_2
Zn1 Cl1 1_555 1_555
Zn2 O4 1_555 1_555
P1 O1 1_555 1_555
P2 O4 1_555 1_555
O1 Zn1 1_555 1_555
O2 P1 1_555 1_555
O3 P1 1_555 1_555
O5 P2 1_555 1_555
O6 P2 1_555 1_555
O7 Zn2 1_555 1_555
H1 O7 1_555 1_555
O8 Zn2 1_555 1_555
H2 O8 1_555 1_555
H3 O8 1_555 1_555
N1 H4 1_555 1_555
H5 N1 1_555 1_555
H6 N1 1_555 1_555
C1 P1 1_555 1_555
C2 C1 1_555 1_555
H7 C2 1_555 1_555
H8 C2 1_555 1_555
C3 C2 1_555 1_555
H9 C3 1_555 1_555
H10 C3 1_555 1_555
C4 C3 1_555 1_555
H11 C4 1_555 1_555
H12 C4 1_555 1_555
C5 N1 1_555 1_555
H13 C5 1_555 1_555
H14 C5 1_555 1_555
Zn1A O2 1_555 1_555
Zn2A O3 1_555 1_555
Zn2A_2 O5 1_555 1_555
O2A Zn1 1_555 1_555
O3A Zn2 1_555 1_555
O5A Zn2 1_555 1_555
O6A Zn1 1_555 1_555
P2 C1 1_555 1_555
O6 Zn1A 1_555 1_555
O7 C1 1_555 1_555
C4 C5 1_555 1_555

#END
