
#######################################################################
#
#                 Cambridge Crystallographic Data Centre
#                                CCDC 
#
#######################################################################
#
# If this CIF has been generated from an entry in the Cambridge 
# Structural Database, then it will include bibliographic, chemical, 
# crystal, experimental, refinement or atomic coordinate data resulting 
# from the CCDC's data processing and validation procedures.
#
#######################################################################

data_BACPIE10
_symmetry_cell_setting           monoclinic
_symmetry_space_group_name_H-M   'P 21/c'
_symmetry_Int_Tables_number      14
_space_group_name_Hall           '-P 2ybc'
loop_
_symmetry_equiv_pos_site_id
_symmetry_equiv_pos_as_xyz
1 x,y,z
2 -x,1/2+y,1/2-z
3 -x,-y,-z
4 x,1/2-y,1/2+z
_cell_length_a                   8.114(1)
_cell_length_b                   10.482(2)
_cell_length_c                   19.133(2)
_cell_angle_alpha                90
_cell_angle_beta                 107.06(4)
_cell_angle_gamma                90
_cell_volume                     1555.68
loop_
_atom_site_label
_atom_site_type_symbol
_atom_site_fract_x
_atom_site_fract_y
_atom_site_fract_z
Cd1 Cd 0.00000 0.00000 0.00000
Cd2 Cd -0.09311 -0.19249 0.31515
I1 I 0.23893 0.08913 0.13860
I2 I 0.24737 -0.22257 0.32999
I3 I -0.28567 0.00909 0.33373
O1 O 0.19190 -0.16180 0.00960
N1 N -0.16270 -0.13750 0.06830
N2 N -0.45290 -0.19120 0.07550
N3 N -0.24190 -0.35820 0.08190
N4 N -0.20720 -0.21130 0.18370
C1 C -0.35120 -0.10530 0.04120
C2 C -0.14160 -0.27120 0.05090
C3 C -0.10110 -0.12700 0.14990
C4 C -0.42580 -0.32150 0.05510
C5 C -0.18560 -0.34490 0.16190
C6 C -0.38980 -0.17600 0.15700
H1 H -0.36400 -0.01600 0.05900
H2 H -0.39300 -0.11400 -0.01000
H3 H -0.17600 -0.27700 -0.00400
H4 H -0.01400 -0.29000 0.07000
H5 H 0.02100 -0.15100 0.16900
H6 H -0.11800 -0.03700 0.16400
H7 H -0.49500 -0.38300 0.07700
H8 H -0.46700 -0.33200 0.00100
H9 H -0.24800 -0.40000 0.18500
H10 H -0.05700 -0.36400 0.18000
H11 H -0.46200 -0.23100 0.17800
H12 H -0.40600 -0.08400 0.16900
I1B I -0.23893 -0.08913 -0.13860
O1B O -0.19190 0.16180 -0.00960
N1B N 0.16270 0.13750 -0.06830
Cd2C Cd -0.09311 -0.30751 -0.18485
C1B C 0.35120 0.10530 -0.04120
C2B C 0.14160 0.27120 -0.05090
C3B C 0.10110 0.12700 -0.14990
Cd2A Cd 0.09311 0.30751 0.18485
N2B N 0.45290 0.19120 -0.07550
H1B H 0.36400 0.01600 -0.05900
H2B H 0.39300 0.11400 0.01000
N3B N 0.24190 0.35820 -0.08190
H3B H 0.17600 0.27700 0.00400
H4B H 0.01400 0.29000 -0.07000
N4B N 0.20720 0.21130 -0.18370
H5B H -0.02100 0.15100 -0.16900
H6B H 0.11800 0.03700 -0.16400
I1A I -0.23893 -0.41087 0.36140
C4B C 0.42580 0.32150 -0.05510
C6B C 0.38980 0.17600 -0.15700
C5B C 0.18560 0.34490 -0.16190
Cd2B Cd 0.09311 0.19249 -0.31515
H7B H 0.49500 0.38300 -0.07700
H8B H 0.46700 0.33200 -0.00100
H11B H 0.46200 0.23100 -0.17800
H12B H 0.40600 0.08400 -0.16900
H9B H 0.24800 0.40000 -0.18500
H10B H 0.05700 0.36400 -0.18000
I1C I 0.23893 0.41087 -0.36140
I2B I -0.24737 0.22257 -0.32999
I3B I 0.28567 -0.00909 -0.33373
O2 O 0.12700 -0.08500 0.47630
loop_
_geom_bond_atom_site_label_1
_geom_bond_atom_site_label_2
_geom_bond_site_symmetry_1
_geom_bond_site_symmetry_2
Cd1 I1 1_555 1_555
Cd2 I2 1_555 1_555
I1 Cd2A 1_555 1_555
I3 Cd2 1_555 1_555
O1 Cd1 1_555 1_555
N1 Cd1 1_555 1_555
N2 C1 1_555 1_555
N3 C2 1_555 1_555
N4 Cd2 1_555 1_555
C1 N1 1_555 1_555
C2 N1 1_555 1_555
C3 N1 1_555 1_555
C4 N2 1_555 1_555
C5 N3 1_555 1_555
C6 N2 1_555 1_555
H1 C1 1_555 1_555
H2 C1 1_555 1_555
H3 C2 1_555 1_555
H4 C2 1_555 1_555
H5 C3 1_555 1_555
H6 C3 1_555 1_555
H7 C4 1_555 1_555
H8 C4 1_555 1_555
H9 C5 1_555 1_555
H10 C5 1_555 1_555
H11 C6 1_555 1_555
H12 C6 1_555 1_555
I1B Cd1 1_555 1_555
O1B Cd1 1_555 1_555
N1B Cd1 1_555 1_555
Cd2C I1B 1_555 1_555
C1B N1B 1_555 1_555
C2B N1B 1_555 1_555
C3B N1B 1_555 1_555
N2B C1B 1_555 1_555
H1B C1B 1_555 1_555
H2B C1B 1_555 1_555
N3B C2B 1_555 1_555
H3B C2B 1_555 1_555
H4B C2B 1_555 1_555
N4B C3B 1_555 1_555
H5B C3B 1_555 1_555
H6B C3B 1_555 1_555
I1A Cd2 1_555 1_555
C4B N2B 1_555 1_555
C6B N2B 1_555 1_555
C5B N3B 1_555 1_555
Cd2B N4B 1_555 1_555
H7B C4B 1_555 1_555
H8B C4B 1_555 1_555
H11B C6B 1_555 1_555
H12B C6B 1_555 1_555
H9B C5B 1_555 1_555
H10B C5B 1_555 1_555
I1C Cd2B 1_555 1_555
I2B Cd2B 1_555 1_555
I3B Cd2B 1_555 1_555
N3 C4 1_555 1_555
N4 C3 1_555 1_555
N4 C6 1_555 1_555
N4 C5 1_555 1_555
N3B C4B 1_555 1_555
N4B C5B 1_555 1_555
N4B C6B 1_555 1_555

#END
