
#######################################################################
#
#                 Cambridge Crystallographic Data Centre
#                                CCDC 
#
#######################################################################
#
# If this CIF has been generated from an entry in the Cambridge 
# Structural Database, then it will include bibliographic, chemical, 
# crystal, experimental, refinement or atomic coordinate data resulting 
# from the CCDC's data processing and validation procedures.
#
#######################################################################

data_BACQEB03
_symmetry_cell_setting           orthorhombic
_symmetry_space_group_name_H-M   'P 21 21 21'
_symmetry_Int_Tables_number      19
_space_group_name_Hall           'P 2ac 2ab'
loop_
_symmetry_equiv_pos_site_id
_symmetry_equiv_pos_as_xyz
1 x,y,z
2 1/2-x,-y,1/2+z
3 1/2+x,1/2-y,-z
4 -x,1/2+y,1/2-z
_cell_length_a                   7.3343(3)
_cell_length_b                   9.3981(4)
_cell_length_c                   13.8270(6)
_cell_angle_alpha                90
_cell_angle_beta                 90
_cell_angle_gamma                90
_cell_volume                     953.074
loop_
_atom_site_label
_atom_site_type_symbol
_atom_site_fract_x
_atom_site_fract_y
_atom_site_fract_z
Co1 Co 0.09862(3) 0.39381(2) 0.735882(16)
O1 O 0.07838(17) 0.54215(13) 0.62606(9)
O2 O 0.23845(18) 0.67193(14) 0.52225(9)
O3 O 0.75007(18) 0.05215(13) 0.68193(10)
O4 O 0.96212(18) 0.22060(13) 0.66473(9)
O5 O -0.13665(19) 0.47637(15) 0.79189(10)
H1 H -0.119(3) 0.564(3) 0.8189(17)
H2 H -0.226(4) 0.442(3) 0.8217(17)
O6 O 0.1621(2) 0.25239(14) 0.84217(9)
H3 H 0.107(3) 0.174(3) 0.8501(16)
H4 H 0.195(4) 0.294(3) 0.895(2)
N1 N 0.3469(2) 0.36260(15) 0.65709(10)
C1 C 0.2216(2) 0.57063(18) 0.57829(12)
C2 C 0.3800(2) 0.46864(18) 0.59369(12)
C3 C 0.5462(3) 0.4861(2) 0.54784(13)
H5 H 0.562(3) 0.562(2) 0.5031(15)
C4 C 0.6864(2) 0.3910(2) 0.56952(12)
H6 H 0.806(3) 0.407(2) 0.5390(16)
C5 C 0.6528(2) 0.28088(19) 0.63419(12)
C6 C 0.4800(3) 0.26951(18) 0.67530(13)
H7 H 0.460(3) 0.204(2) 0.7230(16)
C7 C 0.8001(2) 0.17738(18) 0.66232(12)
Co1C Co 0.90138(3) -0.10619(2) 0.764118(16)
Co1_2 Co 1.09862(3) 0.39381(2) 0.735882(16)
O3C O 0.24993(18) 0.55215(13) 0.81807(10)
O4_2 O -0.03788(18) 0.22060(13) 0.66473(9)
O7 O 0.5667(2) 0.41976(19) 0.89036(13)
H8 H 0.468(4) 0.449(3) 0.866(2)
H9 H 0.559(6) 0.356(4) 0.927(3)
loop_
_geom_bond_atom_site_label_1
_geom_bond_atom_site_label_2
_geom_bond_site_symmetry_1
_geom_bond_site_symmetry_2
Co1 O1 1_555 1_555
O1 C1 1_555 1_555
O2 C1 1_555 1_555
O3 C7 1_555 1_555
O4 C7 1_555 1_555
O5 Co1 1_555 1_555
H1 O5 1_555 1_555
H2 O5 1_555 1_555
O6 Co1 1_555 1_555
H3 O6 1_555 1_555
H4 O6 1_555 1_555
N1 Co1 1_555 1_555
C1 C2 1_555 1_555
C2 N1 1_555 1_555
C3 C2 1_555 1_555
H5 C3 1_555 1_555
C4 C3 1_555 1_555
H6 C4 1_555 1_555
C5 C4 1_555 1_555
C6 N1 1_555 1_555
H7 C6 1_555 1_555
C7 C5 1_555 1_555
O7 H8 1_555 1_555
H9 O7 1_555 1_555
Co1C O3 1_555 1_555
Co1_2 O4 1_555 1_555
O3C Co1 1_555 1_555
O4_2 Co1 1_555 1_555
C5 C6 1_555 1_555

#END
