
#######################################################################
#
#                 Cambridge Crystallographic Data Centre
#                                CCDC 
#
#######################################################################
#
# If this CIF has been generated from an entry in the Cambridge 
# Structural Database, then it will include bibliographic, chemical, 
# crystal, experimental, refinement or atomic coordinate data resulting 
# from the CCDC's data processing and validation procedures.
#
#######################################################################

data_BACQEB04
_symmetry_cell_setting           orthorhombic
_symmetry_space_group_name_H-M   'P 21 21 21'
_symmetry_Int_Tables_number      19
_space_group_name_Hall           'P 2ac 2ab'
loop_
_symmetry_equiv_pos_site_id
_symmetry_equiv_pos_as_xyz
1 x,y,z
2 1/2-x,-y,1/2+z
3 -x,1/2+y,1/2-z
4 1/2+x,1/2-y,-z
_cell_length_a                   7.3489(18)
_cell_length_b                   9.403(2)
_cell_length_c                   13.949(3)
_cell_angle_alpha                90
_cell_angle_beta                 90
_cell_angle_gamma                90
_cell_volume                     963.9
loop_
_atom_site_label
_atom_site_type_symbol
_atom_site_fract_x
_atom_site_fract_y
_atom_site_fract_z
Co1 Co 0.09822(3) 0.60526(3) 0.264649(19)
O1 O 0.0784(2) 0.45868(13) 0.37444(10)
O2 O 0.2368(2) 0.33232(15) 0.47928(11)
O3 O 0.96019(19) 0.77867(13) 0.33464(10)
O4 O 0.7493(2) 0.94738(13) 0.31593(11)
O5 O -0.1363(2) 0.52223(15) 0.20869(11)
H1 H -0.1164 0.4485 0.1835
H2 H -0.2242 0.5537 0.1782
O6 O 0.1598(2) 0.74539(15) 0.15773(10)
H3 H 0.1867 0.7164 0.0973
H4 H 0.0938 0.8189 0.1461
N1 N 0.3461(2) 0.63833(16) 0.34286(12)
C1 C 0.2205(3) 0.43185(19) 0.42262(13)
C2 C 0.3786(3) 0.53307(19) 0.40636(13)
C3 C 0.5450(3) 0.5170(2) 0.45129(15)
H5 H 0.5631 0.4444 0.4956
C4 C 0.6834(3) 0.6101(2) 0.42942(14)
H6 H 0.7975 0.5992 0.4573
C5 C 0.6514(3) 0.7200(2) 0.36562(14)
C6 C 0.4792(3) 0.73038(19) 0.32427(15)
H7 H 0.4563 0.8047 0.2819
C7 C 0.7984(3) 0.8223(2) 0.33630(14)
Co1_2 Co 1.09822(3) 0.60526(3) 0.264649(19)
Co1B Co 0.90178(3) 1.10526(3) 0.235351(19)
O3_2 O -0.03981(19) 0.77867(13) 0.33464(10)
O4B O 0.2507(2) 0.44738(13) 0.18407(11)
O7 O 0.4308(2) 0.0841(2) 0.38895(14)
H8 H 0.4224 0.1647 0.4250
H9 H 0.5552 0.0418 0.3753
loop_
_geom_bond_atom_site_label_1
_geom_bond_atom_site_label_2
_geom_bond_site_symmetry_1
_geom_bond_site_symmetry_2
Co1 O1 1_555 1_555
O1 C1 1_555 1_555
O2 C1 1_555 1_555
O3 C7 1_555 1_555
O4 C7 1_555 1_555
O5 Co1 1_555 1_555
H1 O5 1_555 1_555
H2 O5 1_555 1_555
O6 Co1 1_555 1_555
H3 O6 1_555 1_555
H4 O6 1_555 1_555
N1 Co1 1_555 1_555
C1 C2 1_555 1_555
C2 N1 1_555 1_555
C3 C2 1_555 1_555
H5 C3 1_555 1_555
C4 C3 1_555 1_555
H6 C4 1_555 1_555
C5 C4 1_555 1_555
C6 N1 1_555 1_555
H7 C6 1_555 1_555
C7 C5 1_555 1_555
O7 H8 1_555 1_555
H9 O7 1_555 1_555
Co1_2 O3 1_555 1_555
Co1B O4 1_555 1_555
O3_2 Co1 1_555 1_555
O4B Co1 1_555 1_555
C5 C6 1_555 1_555

#END
