
#######################################################################
#
#                 Cambridge Crystallographic Data Centre
#                                CCDC 
#
#######################################################################
#
# If this CIF has been generated from an entry in the Cambridge 
# Structural Database, then it will include bibliographic, chemical, 
# crystal, experimental, refinement or atomic coordinate data resulting 
# from the CCDC's data processing and validation procedures.
#
#######################################################################

data_BACQEB05
_symmetry_cell_setting           orthorhombic
_symmetry_space_group_name_H-M   'P 21 21 21'
_symmetry_Int_Tables_number      19
_space_group_name_Hall           'P 2ac 2ab'
loop_
_symmetry_equiv_pos_site_id
_symmetry_equiv_pos_as_xyz
1 x,y,z
2 1/2-x,-y,1/2+z
3 1/2+x,1/2-y,-z
4 -x,1/2+y,1/2-z
_cell_length_a                   9.39530(10)
_cell_length_b                   7.34220(10)
_cell_length_c                   13.9495(2)
_cell_angle_alpha                90
_cell_angle_beta                 90
_cell_angle_gamma                90
_cell_volume                     962.267
loop_
_atom_site_label
_atom_site_type_symbol
_atom_site_fract_x
_atom_site_fract_y
_atom_site_fract_z
Co1 Co 0.35505(4) 0.65190(5) 0.51478(3)
O1 O 0.2721(2) 0.8855(3) 0.45752(19)
H1 H 0.1844 0.9168 0.4569
H2 H 0.3172 0.9719 0.4858
O2 O 0.2085(2) 0.6727(3) 0.62472(17)
O3 O 0.6972(2) 0.0003(3) 0.56567(19)
O4 O 0.5284(2) -0.2108(3) 0.58428(17)
O5 O 0.0820(3) 0.5137(3) 0.72948(18)
O6 O 0.4951(2) 0.5923(3) 0.40747(17)
H3 H 0.5613 0.6044 0.3664
H4 H 0.4562 0.4893 0.3981
C1 C 0.5722(3) -0.0486(4) 0.5861(2)
C2 C 0.2671(4) 0.2058(5) 0.7015(2)
H5 H 0.1952 0.1882 0.7464
C3 C 0.2827(3) 0.3718(4) 0.6566(2)
N1 N 0.3885(3) 0.4034(4) 0.5928(2)
C4 C 0.4809(3) 0.2705(4) 0.5744(2)
H6 H 0.5554 0.2933 0.5322
C5 C 0.1825(3) 0.5296(4) 0.6722(2)
C6 C 0.3593(4) 0.0665(4) 0.6792(2)
H7 H 0.3475 -0.0483 0.7063
C7 C 0.4704(3) 0.0995(4) 0.6157(2)
O3B O 0.1972(2) 0.4997(3) 0.43433(19)
O4_2 O 0.5284(2) 0.7892(3) 0.58428(17)
Co1B Co 0.85505(4) -0.15190(5) 0.48522(3)
Co1_2 Co 0.35505(4) -0.34810(5) 0.51478(3)
O7 O 0.3339(3) 0.1820(4) 0.3621(2)
H8 H 0.3843 0.1193 0.3226
H9 H 0.2938 0.2802 0.3395
loop_
_geom_bond_atom_site_label_1
_geom_bond_atom_site_label_2
_geom_bond_site_symmetry_1
_geom_bond_site_symmetry_2
Co1 O1 1_555 1_555
O1 H1 1_555 1_555
H2 O1 1_555 1_555
O2 Co1 1_555 1_555
O3 C1 1_555 1_555
O4 C1 1_555 1_555
O5 C5 1_555 1_555
O6 Co1 1_555 1_555
H3 O6 1_555 1_555
H4 O6 1_555 1_555
C1 C7 1_555 1_555
C2 H5 1_555 1_555
C3 C2 1_555 1_555
N1 Co1 1_555 1_555
C4 N1 1_555 1_555
H6 C4 1_555 1_555
C5 O2 1_555 1_555
C6 C2 1_555 1_555
H7 C6 1_555 1_555
C7 C4 1_555 1_555
O7 H8 1_555 1_555
H9 O7 1_555 1_555
O3B Co1 1_555 1_555
O4_2 Co1 1_555 1_555
Co1B O3 1_555 1_555
Co1_2 O4 1_555 1_555
C3 N1 1_555 1_555
C3 C5 1_555 1_555
C6 C7 1_555 1_555

#END
