
#######################################################################
#
#                 Cambridge Crystallographic Data Centre
#                                CCDC 
#
#######################################################################
#
# If this CIF has been generated from an entry in the Cambridge 
# Structural Database, then it will include bibliographic, chemical, 
# crystal, experimental, refinement or atomic coordinate data resulting 
# from the CCDC's data processing and validation procedures.
#
#######################################################################

data_BACXUZ
_symmetry_cell_setting           triclinic
_symmetry_space_group_name_H-M   'P -1'
_symmetry_Int_Tables_number      2
_space_group_name_Hall           '-P 1'
loop_
_symmetry_equiv_pos_site_id
_symmetry_equiv_pos_as_xyz
1 x,y,z
2 -x,-y,-z
_cell_length_a                   11.393(1)
_cell_length_b                   11.466(2)
_cell_length_c                   8.7817(9)
_cell_angle_alpha                97.64(1)
_cell_angle_beta                 94.081(9)
_cell_angle_gamma                79.79(1)
_cell_volume                     1117.65
loop_
_atom_site_label
_atom_site_type_symbol
_atom_site_fract_x
_atom_site_fract_y
_atom_site_fract_z
U1 U 1.0000 0.0000 1.0000
U2 U 0.58269(3) -0.34550(3) 0.49993(3)
O1 O 0.7441(5) -0.2456(4) 0.6372(6)
O2 O 0.6451(5) -0.1612(5) 0.4507(6)
O3 O 0.9886(5) -0.1002(5) 0.7335(6)
O4 O 0.8211(5) -0.0003(5) 0.8192(6)
O5 O 0.6707(6) -0.4208(5) 0.7482(6)
O6 O 0.5618(5) -0.5328(5) 0.6112(6)
O7 O 0.5104(5) -0.7128(5) 0.7290(6)
O8 O 0.6102(5) -0.7664(5) 0.9377(6)
O9 O 0.6978(5) -0.4332(5) 0.3950(6)
O10 O 0.4676(5) -0.2601(5) 0.6075(6)
O11 O 1.0327(5) 0.1259(5) 0.9295(6)
O12 O 0.8117(4) 0.1201(5) 1.0967(5)
C1 C 0.7312(7) -0.1662(7) 0.5492(8)
C2 C 0.8209(7) -0.0835(7) 0.5492(8)
C3 C 0.9144(9) -0.1480(10) 0.4341(10)
C4 C 0.7612(9) 0.0368(8) 0.501(1)
C5 C 0.8806(7) -0.0606(7) 0.7112(9)
C6 C 0.6323(7) -0.5150(7) 0.7283(8)
C7 C 0.6743(7) -0.6104(7) 0.8305(9)
C8 C 0.698(1) -0.5532(9) 0.994(1)
C9 C 0.7921(9) -0.6777(9) 0.763(1)
C10 C 0.5910(7) -0.7029(6) 0.8325(9)
H1 H 0.9736 -0.1002 0.4282
H2 H 0.9516 -0.2226 0.4663
H3 H 0.8763 -0.1624 0.3347
H4 H 0.7021 0.0734 0.5716
H5 H 0.8198 0.0871 0.5026
H6 H 0.7257 0.0256 0.4009
H7 H 0.6212 -0.5057 1.0319
H8 H 0.7220 -0.6120 1.0601
H9 H 0.7518 -0.5010 0.9972
H10 H 0.8451 -0.6230 0.7687
H11 H 0.8221 -0.7388 0.8261
H12 H 0.7758 -0.7097 0.6626
H13 H 0.8090 0.1765 1.1946
H14 H 0.7483 0.1421 1.0345
O1A O 1.2559(5) 0.2456(4) 1.3628(6)
O2A O 1.3549(5) 0.1612(5) 1.5493(6)
O3A O 1.0114(5) 0.1002(5) 1.2665(6)
O4A O 1.1789(5) 0.0003(5) 1.1808(6)
C1A C 1.2688(7) 0.1662(7) 1.4508(8)
C2A C 1.1791(7) 0.0835(7) 1.4508(8)
C3A C 1.0856(9) 0.1480(10) 1.5659(10)
C4A C 1.2388(9) -0.0368(8) 1.499(1)
C5A C 1.1194(7) 0.0606(7) 1.2888(9)
H1A H 1.0264 0.1002 1.5718
H2A H 1.0484 0.2226 1.5337
H3A H 1.1237 0.1624 1.6653
H4A H 1.2979 -0.0734 1.4284
H5A H 1.1802 -0.0871 1.4974
H6A H 1.2743 -0.0256 1.5991
O11A O 0.9673(5) -0.1259(5) 1.0705(6)
O12A O 1.1883(4) -0.1201(5) 0.9033(5)
H13A H 1.1910 -0.1765 0.8054
H14A H 1.2517 -0.1421 0.9655
U2A U 1.41731(3) 0.34550(3) 1.50007(3)
O5A O 0.3293(6) -0.5792(5) 0.2518(6)
O6A O 0.4382(5) -0.4672(5) 0.3888(6)
O7A O 0.4896(5) -0.2872(5) 0.2710(6)
O8A O 0.3898(5) -0.2336(5) 0.0623(6)
C6A C 0.3677(7) -0.4850(7) 0.2717(8)
C7A C 0.3257(7) -0.3896(7) 0.1695(9)
C8A C 0.302(1) -0.4468(9) 0.006(1)
C9A C 0.2079(9) -0.3223(9) 0.237(1)
C10A C 0.4090(7) -0.2971(6) 0.1675(9)
H7A H 0.3788 -0.4943 -0.0319
H8A H 0.2780 -0.3880 -0.0601
H9A H 0.2482 -0.4990 0.0028
H10A H 0.1549 -0.3770 0.2313
H11A H 0.1779 -0.2612 0.1739
H12A H 0.2242 -0.2903 0.3374
O9A O 1.3022(5) 0.4332(5) 1.6050(6)
O10A O 1.5324(5) 0.2601(5) 1.3925(6)
U2A_2 U 0.41731(3) -0.65450(3) 0.50007(3)
O5A_2 O 1.3293(6) 0.4208(5) 1.2518(6)
O6_2 O 1.5618(5) 0.4672(5) 1.6112(6)
O6A_2 O 1.4382(5) 0.5328(5) 1.3888(6)
O7_2 O 1.5104(5) 0.2872(5) 1.7290(6)
N1 N 0.5709(6) -0.1128(6) 0.0293(7)
C16 C 0.5617(8) -0.0710(7) -0.1221(9)
C17 C 0.5552(8) -0.0091(7) 0.1513(8)
C18 C 0.6858(8) -0.1960(8) 0.055(1)
H15 H 0.5082 -0.1592 0.0412
H16 H 0.5732 -0.1398 -0.2014
H17 H 0.6285 -0.0293 -0.1306
H18 H 0.6259 0.0495 0.1732
H19 H 0.5538 -0.0226 0.2556
H20 H 0.6925 -0.2631 -0.0244
H21 H 0.7515 -0.1567 0.0532
H22 H 0.6861 -0.2256 0.1516
C17A C 0.4448(8) 0.0091(7) -0.1513(8)
N1A N 0.4291(6) 0.1128(6) -0.0293(7)
C16A C 0.4383(8) 0.0710(7) 0.1221(9)
H16A H 0.4268 0.1398 0.2014
H17A H 0.3715 0.0293 0.1306
C18A C 0.3142(8) 0.1960(8) -0.055(1)
H20A H 0.3075 0.2631 0.0244
H21A H 0.2485 0.1567 -0.0532
H22A H 0.3139 0.2256 -0.1516
H15A H 0.4918 0.1592 -0.0412
H18A H 0.3741 -0.0495 -0.1732
H19A H 0.4462 0.0226 -0.2556
O13 O 1.1859(6) -0.3012(6) 0.6641(7)
C11? C 0.047(3) 0.412(3) -0.048(4)
C12? C 0.042(3) 0.385(3) 0.111(5)
C13? C 0.040(3) 0.398(3) 0.258(4)
C14? C 0.023(3) 0.426(3) 0.343(4)
C15? C 0.008(5) 0.431(4) 0.420(5)
loop_
_geom_bond_atom_site_label_1
_geom_bond_atom_site_label_2
_geom_bond_site_symmetry_1
_geom_bond_site_symmetry_2
U1 O3 1_555 1_555
U2 O1 1_555 1_555
O1 C1 1_555 1_555
O2 U2 1_555 1_555
O3 C5 1_555 1_555
O4 U1 1_555 1_555
O5 U2 1_555 1_555
O6 U2 1_555 1_555
O7 C10 1_555 1_555
O8 C10 1_555 1_555
O9 U2 1_555 1_555
O10 U2 1_555 1_555
O11 U1 1_555 1_555
O12 U1 1_555 1_555
C1 O2 1_555 1_555
C2 C1 1_555 1_555
C3 C2 1_555 1_555
C4 C2 1_555 1_555
C5 O4 1_555 1_555
C6 O5 1_555 1_555
C7 C6 1_555 1_555
C8 C7 1_555 1_555
C9 C7 1_555 1_555
C10 C7 1_555 1_555
H1 C3 1_555 1_555
H2 C3 1_555 1_555
H3 C3 1_555 1_555
H4 C4 1_555 1_555
H5 C4 1_555 1_555
H6 C4 1_555 1_555
H7 C8 1_555 1_555
H8 C8 1_555 1_555
H9 C8 1_555 1_555
H10 C9 1_555 1_555
H11 C9 1_555 1_555
H12 C9 1_555 1_555
H13 O12 1_555 1_555
H14 O12 1_555 1_555
N1 C16 1_555 1_555
C16 H16 1_555 1_555
C17 N1 1_555 1_555
C18 N1 1_555 1_555
H15 N1 1_555 1_555
H17 C16 1_555 1_555
H18 C17 1_555 1_555
H19 C17 1_555 1_555
H20 C18 1_555 1_555
H21 C18 1_555 1_555
H22 C18 1_555 1_555
C17A C16 1_555 1_555
N1A C17A 1_555 1_555
C16A C17 1_555 1_555
H16A C16A 1_555 1_555
H17A C16A 1_555 1_555
C18A N1A 1_555 1_555
H20A C18A 1_555 1_555
H21A C18A 1_555 1_555
H22A C18A 1_555 1_555
H15A N1A 1_555 1_555
H18A C17A 1_555 1_555
H19A C17A 1_555 1_555
O1A C1A 1_555 1_555
O2A C1A 1_555 1_555
O3A U1 1_555 1_555
O4A U1 1_555 1_555
C1A C2A 1_555 1_555
C2A C3A 1_555 1_555
C3A H1A 1_555 1_555
C4A C2A 1_555 1_555
C5A O3A 1_555 1_555
H2A C3A 1_555 1_555
H3A C3A 1_555 1_555
H4A C4A 1_555 1_555
H5A C4A 1_555 1_555
H6A C4A 1_555 1_555
O11A U1 1_555 1_555
O12A U1 1_555 1_555
H13A O12A 1_555 1_555
H14A O12A 1_555 1_555
U2A O1A 1_555 1_555
O5A C6A 1_555 1_555
O6A U2 1_555 1_555
O7A U2 1_555 1_555
O8A C10A 1_555 1_555
C6A O6A 1_555 1_555
C7A C6A 1_555 1_555
C8A C7A 1_555 1_555
C9A C7A 1_555 1_555
C10A O7A 1_555 1_555
H7A C8A 1_555 1_555
H8A C8A 1_555 1_555
H9A C8A 1_555 1_555
H10A C9A 1_555 1_555
H11A C9A 1_555 1_555
H12A C9A 1_555 1_555
O9A U2A 1_555 1_555
O10A U2A 1_555 1_555
U2A_2 O6 1_555 1_555
O5A_2 U2A 1_555 1_555
O6_2 U2A 1_555 1_555
O6A_2 U2A 1_555 1_555
O7_2 U2A 1_555 1_555
O6 C6 1_555 1_555
O7 U2A_2 1_555 1_555
C2 C5 1_555 1_555
N1A C16A 1_555 1_555
O2A U2A 1_555 1_555
O4A C5A 1_555 1_555
C2A C5A 1_555 1_555
O5A U2A_2 1_555 1_555
O6A U2A_2 1_555 1_555
C7A C10A 1_555 1_555

#END
