
#######################################################################
#
#                 Cambridge Crystallographic Data Centre
#                                CCDC 
#
#######################################################################
#
# If this CIF has been generated from an entry in the Cambridge 
# Structural Database, then it will include bibliographic, chemical, 
# crystal, experimental, refinement or atomic coordinate data resulting 
# from the CCDC's data processing and validation procedures.
#
#######################################################################

data_BADBOX
_symmetry_cell_setting           monoclinic
_symmetry_space_group_name_H-M   'C 2/c'
_symmetry_Int_Tables_number      15
_space_group_name_Hall           '-C 2yn'
loop_
_symmetry_equiv_pos_site_id
_symmetry_equiv_pos_as_xyz
1 x,y,z
2 1/2+x,1/2+y,z
3 x,-y,1/2+z
4 1/2+x,1/2-y,1/2+z
5 -x,-y,-z
6 1/2-x,1/2-y,-z
7 -x,y,1/2-z
8 1/2-x,1/2+y,1/2-z
_cell_length_a                   12.236(3)
_cell_length_b                   8.919(3)
_cell_length_c                   16.655(3)
_cell_angle_alpha                90
_cell_angle_beta                 96.18(2)
_cell_angle_gamma                90
_cell_volume                     1807.05
loop_
_atom_site_label
_atom_site_type_symbol
_atom_site_fract_x
_atom_site_fract_y
_atom_site_fract_z
Cd1 Cd 0.0000 0.10798(4) 0.2500
S1 S 0.02932(11) 0.00106(14) 0.38722(6)
S2 S 0.19865(8) -0.32248(11) 0.27929(6)
O1 O 0.1409(4) -0.4129(4) 0.2175(2)
O2 O 0.3126(3) -0.2939(4) 0.2704(3)
N1 N 0.1354(3) -0.1621(4) 0.2873(2)
C1 C 0.1006(3) -0.1508(5) 0.3583(2)
C2 C 0.1254(4) -0.2796(5) 0.4138(3)
C3 C 0.1001(5) -0.3001(6) 0.4915(3)
H1 H 0.0614 -0.2275 0.5169
C4 C 0.1339(6) -0.4320(7) 0.5312(3)
H2 H 0.1174 -0.4487 0.5836
C5 C 0.1917(6) -0.5382(7) 0.4931(4)
H3 H 0.2149 -0.6246 0.5212
C6 C 0.2162(5) -0.5208(6) 0.4146(3)
H4 H 0.2537 -0.5942 0.3889
C7 C 0.1822(4) -0.3892(5) 0.3764(3)
O3 O 0.0000 0.3568(7) 0.2500
H5 H -0.0525 0.4203 0.2661
H5F H 0.0525 0.4203 0.2339
S1F S -0.02932(11) 0.00106(14) 0.11278(6)
S2F S -0.19865(8) -0.32248(11) 0.22071(6)
O1F O -0.1409(4) -0.4129(4) 0.2825(2)
O2F O -0.3126(3) -0.2939(4) 0.2296(3)
N1F N -0.1354(3) -0.1621(4) 0.2127(2)
C1F C -0.1006(3) -0.1508(5) 0.1417(2)
C2F C -0.1254(4) -0.2796(5) 0.0862(3)
C3F C -0.1001(5) -0.3001(6) 0.0085(3)
H1F H -0.0614 -0.2275 -0.0169
C4F C -0.1339(6) -0.4320(7) -0.0312(3)
H2F H -0.1174 -0.4487 -0.0836
C5F C -0.1917(6) -0.5382(7) 0.0069(4)
H3F H -0.2149 -0.6246 -0.0212
C6F C -0.2162(5) -0.5208(6) 0.0854(3)
H4F H -0.2537 -0.5942 0.1111
C7F C -0.1822(4) -0.3892(5) 0.1236(3)
O2A O -0.1874(3) 0.2061(4) 0.2704(3)
O2G O 0.1874(3) 0.2061(4) 0.2296(3)
Cd1A Cd 0.5000 -0.39202(4) 0.2500
Cd1A_2 Cd -0.5000 -0.39202(4) 0.2500
loop_
_geom_bond_atom_site_label_1
_geom_bond_atom_site_label_2
_geom_bond_site_symmetry_1
_geom_bond_site_symmetry_2
Cd1 S1 1_555 1_555
S1 C1 1_555 1_555
S2 O1 1_555 1_555
O2 S2 1_555 1_555
N1 S2 1_555 1_555
C1 N1 1_555 1_555
C2 C1 1_555 1_555
C3 C2 1_555 1_555
H1 C3 1_555 1_555
C4 C3 1_555 1_555
H2 C4 1_555 1_555
C5 C4 1_555 1_555
H3 C5 1_555 1_555
C6 C5 1_555 1_555
H4 C6 1_555 1_555
C7 S2 1_555 1_555
O3 Cd1 1_555 1_555
H5 O3 1_555 1_555
H5F O3 1_555 1_555
S1F Cd1 1_555 1_555
S2F O1F 1_555 1_555
O2F S2F 1_555 1_555
N1F S2F 1_555 1_555
C1F S1F 1_555 1_555
C2F C1F 1_555 1_555
C3F C2F 1_555 1_555
H1F C3F 1_555 1_555
C4F C3F 1_555 1_555
H2F C4F 1_555 1_555
C5F C4F 1_555 1_555
H3F C5F 1_555 1_555
C6F C5F 1_555 1_555
H4F C6F 1_555 1_555
C7F S2F 1_555 1_555
O2A Cd1 1_555 1_555
O2G Cd1 1_555 1_555
Cd1A O2 1_555 1_555
Cd1A_2 O2F 1_555 1_555
C2 C7 1_555 1_555
C6 C7 1_555 1_555
N1F C1F 1_555 1_555
C2F C7F 1_555 1_555
C6F C7F 1_555 1_555

#END
