
#######################################################################
#
#                 Cambridge Crystallographic Data Centre
#                                CCDC 
#
#######################################################################
#
# If this CIF has been generated from an entry in the Cambridge 
# Structural Database, then it will include bibliographic, chemical, 
# crystal, experimental, refinement or atomic coordinate data resulting 
# from the CCDC's data processing and validation procedures.
#
#######################################################################

data_BADBUF
_symmetry_cell_setting           monoclinic
_symmetry_space_group_name_H-M   'C c'
_symmetry_Int_Tables_number      9
_space_group_name_Hall           'C -2yc'
loop_
_symmetry_equiv_pos_site_id
_symmetry_equiv_pos_as_xyz
1 x,y,z
2 x,-y,1/2+z
3 1/2+x,1/2+y,z
4 1/2+x,1/2-y,1/2+z
_cell_length_a                   18.327(4)
_cell_length_b                   12.534(3)
_cell_length_c                   10.911(2)
_cell_angle_alpha                90
_cell_angle_beta                 121.59(3)
_cell_angle_gamma                90
_cell_volume                     2134.97
loop_
_atom_site_label
_atom_site_type_symbol
_atom_site_fract_x
_atom_site_fract_y
_atom_site_fract_z
Br1 Br 1.16440(3) 0.65855(5) 0.89101(5)
Cd1 Cd 1.002260(16) 0.63193(2) 0.74288(2)
N1 N 0.9599(2) 0.5682(3) 0.5288(3)
N2 N 0.9588(2) 0.4686(3) 0.3550(3)
N3 N 1.0511(3) 0.3405(3) 0.6701(4)
C1 C 1.0159(6) 0.2512(6) 0.6159(8)
H1 H 0.9961 0.2325 0.5210
N4 N 1.0106(5) 0.1904(5) 0.7030(8)
N5 N 1.0420(6) 0.2465(5) 0.8246(10)
N6 N 0.9489(2) 0.7975(3) 0.7022(4)
N7 N 0.9505(3) 0.9732(3) 0.6890(5)
H2 H 0.9628 1.0357 0.6728
N8 N 1.0957(3) 0.9581(4) 0.6478(4)
N9 N 1.1617(5) 0.9887(7) 0.7788(7)
N10 N 1.1997(4) 1.0701(6) 0.7590(8)
N11 N 1.1564(5) 1.0849(6) 0.6142(8)
C2 C 0.8932(3) 0.6032(3) 0.3969(4)
C3 C 0.8326(3) 0.6836(4) 0.3620(5)
H3 H 0.8317 0.7235 0.4331
C4 C 0.7742(3) 0.7016(4) 0.2183(5)
H4 H 0.7327 0.7541 0.1922
C5 C 0.7756(3) 0.6435(4) 0.1114(6)
H5 H 0.7362 0.6595 0.0154
C6 C 0.8344(3) 0.5619(4) 0.1440(5)
H6 H 0.8351 0.5226 0.0724
C7 C 0.8920(3) 0.5421(3) 0.2886(5)
C8 C 0.9959(3) 0.4885(4) 0.4965(5)
C9 C 1.0736(3) 0.4294(4) 0.6111(5)
H7 H 1.1061 0.4030 0.5703
H8 H 1.1098 0.4785 0.6881
N12 N 1.0680(6) 0.3366(5) 0.8035(9)
C10 C 0.8942(3) 0.8404(4) 0.7432(5)
C11 C 0.8436(4) 0.7905(6) 0.7864(7)
H9 H 0.8403 0.7165 0.7884
C12 C 0.7990(4) 0.8540(7) 0.8256(8)
H10 H 0.7655 0.8230 0.8570
C13 C 0.8026(4) 0.9658(8) 0.8193(9)
H11 H 0.7711 1.0069 0.8463
C14 C 0.8504(4) 1.0153(6) 0.7753(8)
H12 H 0.8520 1.0892 0.7706
C15 C 0.8967(3) 0.9506(4) 0.7375(5)
C16 C 0.9806(3) 0.8800(4) 0.6711(5)
C17 C 1.0371(4) 0.8686(4) 0.6111(7)
H13 H 1.0700 0.8033 0.6476
H14 H 1.0017 0.8626 0.5072
C18 C 1.0957(4) 1.0167(5) 0.5491(6)
H15 H 1.0587 1.0103 0.4501
Cd1A Cd 1.002260(16) 0.36807(2) 0.24288(2)
N2A N 0.9588(2) 0.5314(3) 0.8550(3)
loop_
_geom_bond_atom_site_label_1
_geom_bond_atom_site_label_2
_geom_bond_site_symmetry_1
_geom_bond_site_symmetry_2
Br1 Cd1 1_555 1_555
Cd1 N1 1_555 1_555
N1 C2 1_555 1_555
N2 C7 1_555 1_555
N3 C1 1_555 1_555
C1 H1 1_555 1_555
N4 C1 1_555 1_555
N5 N4 1_555 1_555
N6 Cd1 1_555 1_555
N7 H2 1_555 1_555
N8 N9 1_555 1_555
N9 N10 1_555 1_555
N10 N11 1_555 1_555
N11 C18 1_555 1_555
C2 C3 1_555 1_555
C3 H3 1_555 1_555
C4 C3 1_555 1_555
H4 C4 1_555 1_555
C5 C4 1_555 1_555
H5 C5 1_555 1_555
C6 C5 1_555 1_555
H6 C6 1_555 1_555
C7 C2 1_555 1_555
C8 N1 1_555 1_555
C9 N3 1_555 1_555
H7 C9 1_555 1_555
H8 C9 1_555 1_555
N12 N3 1_555 1_555
C10 N6 1_555 1_555
C11 C10 1_555 1_555
H9 C11 1_555 1_555
C12 C11 1_555 1_555
H10 C12 1_555 1_555
C13 C12 1_555 1_555
H11 C13 1_555 1_555
C14 C13 1_555 1_555
H12 C14 1_555 1_555
C15 N7 1_555 1_555
C16 N6 1_555 1_555
C17 N8 1_555 1_555
H13 C17 1_555 1_555
H14 C17 1_555 1_555
C18 N8 1_555 1_555
H15 C18 1_555 1_555
Cd1A N2 1_555 1_555
N2A Cd1 1_555 1_555
N2 C8 1_555 1_555
N5 N12 1_555 1_555
N7 C16 1_555 1_555
C6 C7 1_555 1_555
C8 C9 1_555 1_555
C10 C15 1_555 1_555
C14 C15 1_555 1_555
C16 C17 1_555 1_555

#END
