
#######################################################################
#
#                 Cambridge Crystallographic Data Centre
#                                CCDC 
#
#######################################################################
#
# If this CIF has been generated from an entry in the Cambridge 
# Structural Database, then it will include bibliographic, chemical, 
# crystal, experimental, refinement or atomic coordinate data resulting 
# from the CCDC's data processing and validation procedures.
#
#######################################################################

data_BADCIU
_symmetry_cell_setting           triclinic
_symmetry_space_group_name_H-M   'P -1'
_symmetry_Int_Tables_number      2
_space_group_name_Hall           '-P 1'
loop_
_symmetry_equiv_pos_site_id
_symmetry_equiv_pos_as_xyz
1 x,y,z
2 -x,-y,-z
_cell_length_a                   8.2515(17)
_cell_length_b                   8.5716(17)
_cell_length_c                   10.786(2)
_cell_angle_alpha                92.46(3)
_cell_angle_beta                 94.20(3)
_cell_angle_gamma                101.94(3)
_cell_volume                     743.049
loop_
_atom_site_label
_atom_site_type_symbol
_atom_site_fract_x
_atom_site_fract_y
_atom_site_fract_z
Cd1 Cd 0.270259(19) 0.259714(18) 0.134750(15)
N1 N 0.4261(2) 0.2721(2) 0.32897(17)
N2 N 0.6185(2) 0.3491(2) 0.48766(18)
H1 H 0.7082 0.4004 0.5290
N3 N 0.8445(2) 0.4450(2) 0.28875(18)
C1 C 0.9042(3) 0.3406(3) 0.2207(2)
H2 H 0.8428 0.2667 0.1604
N4 N 1.0631(2) 0.3584(3) 0.25220(19)
N5 N 1.1006(3) 0.4797(3) 0.3416(2)
N6 N 0.6342(3) 0.4729(2) -0.1056(2)
N7 N -0.1252(3) -0.0085(3) -0.1402(2)
S1 S 0.52441(8) 0.18972(7) 0.01098(6)
S2 S 0.06456(10) 0.29526(8) -0.07106(7)
C2 C 0.4964(3) 0.2351(3) 0.5325(2)
C3 C 0.4838(3) 0.1688(3) 0.6477(2)
H3 H 0.5665 0.1995 0.7126
C4 C 0.3425(4) 0.0553(4) 0.6606(3)
H4 H 0.3279 0.0099 0.7368
C5 C 0.2204(3) 0.0066(4) 0.5621(3)
H5 H 0.1273 -0.0716 0.5740
C6 C 0.2345(3) 0.0717(3) 0.4471(3)
H6 H 0.1528 0.0385 0.3818
C7 C 0.3752(3) 0.1887(3) 0.4327(2)
C8 C 0.5714(3) 0.3655(3) 0.3671(2)
C9 C 0.6772(3) 0.4775(3) 0.2883(2)
H7 H 0.6262 0.4661 0.2036
H8 H 0.6843 0.5866 0.3198
N8 N 0.9698(3) 0.5331(3) 0.3639(2)
C10 C 0.5877(3) 0.3582(3) -0.0558(2)
C11 C -0.0455(3) 0.1161(3) -0.1112(2)
Cd1_2 Cd 1.270259(19) 0.259714(18) 0.134750(15)
Cd1A Cd 0.729741(19) 0.740286(18) -0.134750(15)
Cd1A_2 Cd -0.270259(19) -0.259714(18) -0.134750(15)
N4_2 N 0.0631(2) 0.3584(3) 0.25220(19)
N6A N 0.3658(3) 0.5271(2) 0.1056(2)
N7A N 0.1252(3) 0.0085(3) 0.1402(2)
loop_
_geom_bond_atom_site_label_1
_geom_bond_atom_site_label_2
_geom_bond_site_symmetry_1
_geom_bond_site_symmetry_2
Cd1 N1 1_555 1_555
N1 C7 1_555 1_555
N2 H1 1_555 1_555
N3 C1 1_555 1_555
C1 H2 1_555 1_555
N4 C1 1_555 1_555
N5 N4 1_555 1_555
N6 C10 1_555 1_555
N7 C11 1_555 1_555
S1 Cd1 1_555 1_555
S2 Cd1 1_555 1_555
C2 N2 1_555 1_555
C3 C2 1_555 1_555
H3 C3 1_555 1_555
C4 C3 1_555 1_555
H4 C4 1_555 1_555
C5 C4 1_555 1_555
H5 C5 1_555 1_555
C6 C5 1_555 1_555
H6 C6 1_555 1_555
C7 C2 1_555 1_555
C8 N1 1_555 1_555
C9 N3 1_555 1_555
H7 C9 1_555 1_555
H8 C9 1_555 1_555
N8 N3 1_555 1_555
C10 S1 1_555 1_555
C11 S2 1_555 1_555
Cd1_2 N4 1_555 1_555
Cd1A N6 1_555 1_555
Cd1A_2 N7 1_555 1_555
N4_2 Cd1 1_555 1_555
N6A Cd1 1_555 1_555
N7A Cd1 1_555 1_555
N2 C8 1_555 1_555
N5 N8 1_555 1_555
C6 C7 1_555 1_555
C8 C9 1_555 1_555

#END
