
#######################################################################
#
#                 Cambridge Crystallographic Data Centre
#                                CCDC 
#
#######################################################################
#
# If this CIF has been generated from an entry in the Cambridge 
# Structural Database, then it will include bibliographic, chemical, 
# crystal, experimental, refinement or atomic coordinate data resulting 
# from the CCDC's data processing and validation procedures.
#
#######################################################################

data_BADCEQ
_symmetry_cell_setting           triclinic
_symmetry_space_group_name_H-M   'P -1'
_symmetry_Int_Tables_number      2
_space_group_name_Hall           '-P 1'
loop_
_symmetry_equiv_pos_site_id
_symmetry_equiv_pos_as_xyz
1 x,y,z
2 -x,-y,-z
_cell_length_a                   7.6595(15)
_cell_length_b                   8.5363(17)
_cell_length_c                   13.028(3)
_cell_angle_alpha                74.12(3)
_cell_angle_beta                 88.94(3)
_cell_angle_gamma                72.10(3)
_cell_volume                     777.648
loop_
_atom_site_label
_atom_site_type_symbol
_atom_site_fract_x
_atom_site_fract_y
_atom_site_fract_z
Cd1 Cd 0.19475(2) 0.94400(2) 0.684517(14)
N1 N 0.2000(3) 1.0253(3) 0.83978(18)
N2 N 0.1198(3) 1.1599(3) 0.96504(19)
H1 H 0.0640 1.2386 0.9945
N3 N 0.0114(3) 1.4784(3) 0.78620(19)
C1 C 0.0988(4) 1.5748(4) 0.7229(2)
H2 H 0.1475 1.5594 0.6592
N4 N 0.1050(3) 1.6961(3) 0.76563(19)
N5 N 0.0186(4) 1.6711(3) 0.8570(2)
O1 O -0.1013(3) 1.1086(3) 0.64664(18)
O2 O -0.4184(3) 1.2284(3) 0.58774(19)
O3 O -0.2596(3) 0.9311(3) 0.60027(19)
O4 O -0.1941(3) 1.1554(3) 0.46266(17)
O5 O 0.5014(3) 0.7873(3) 0.71441(19)
H3 H 0.5959 0.8190 0.6991
H4 H 0.5291 0.7007 0.6900
O6 O 0.2514(3) 1.1853(3) 0.5818(2)
H5 H 0.1827 1.2837 0.5460
H6 H 0.3527 1.1999 0.5948
C2 C 0.2470(4) 1.0042(3) 1.0155(2)
C3 C 0.3246(5) 0.9347(4) 1.1202(2)
H9 H 0.2914 0.9934 1.1717
C4 C 0.4532(5) 0.7742(4) 1.1434(2)
H10 H 0.5073 0.7225 1.2127
C5 C 0.5051(5) 0.6862(4) 1.0655(3)
H11 H 0.5933 0.5783 1.0842
C6 C 0.4274(4) 0.7570(4) 0.9616(2)
H12 H 0.4617 0.6988 0.9099
C7 C 0.2956(4) 0.9193(3) 0.9372(2)
C8 C 0.0984(4) 1.1669(3) 0.8610(2)
C9 C -0.0256(4) 1.3212(3) 0.7806(3)
H13 H -0.0064 1.3077 0.7093
H14 H -0.1529 1.3311 0.7944
N6 N -0.0385(4) 1.5405(3) 0.8702(2)
S1 S -0.24247(9) 1.10334(8) 0.57395(5)
Cd1A Cd -0.19475(2) 1.05600(2) 0.315483(14)
Cd1_2 Cd 0.19475(2) 1.94400(2) 0.684517(14)
Cd1A_2 Cd -0.19475(2) 0.05600(2) 0.315483(14)
N1A N -0.2000(3) 0.9747(3) 0.16022(18)
N2A N -0.1198(3) 0.8401(3) 0.03496(19)
H1A H -0.0640 0.7614 0.0055
N3A N -0.0114(3) 0.5216(3) 0.21380(19)
C1A C -0.0988(4) 0.4252(4) 0.2771(2)
H2A H -0.1475 0.4406 0.3408
N4A N -0.1050(3) 0.3039(3) 0.23437(19)
N4_2 N 0.1050(3) 0.6961(3) 0.76563(19)
N4A_2 N -0.1050(3) 1.3039(3) 0.23437(19)
N5A N -0.0186(4) 0.3289(3) 0.1430(2)
O1A O 0.1013(3) 0.8914(3) 0.35336(18)
O2A O 0.4184(3) 0.7716(3) 0.41226(19)
O3A O 0.2596(3) 1.0689(3) 0.39973(19)
O4A O 0.1941(3) 0.8446(3) 0.53734(17)
O5A O -0.5014(3) 1.2127(3) 0.28559(19)
H3A H -0.5959 1.1810 0.3009
H4A H -0.5291 1.2993 0.3100
O6A O -0.2514(3) 0.8147(3) 0.4182(2)
H5A H -0.1827 0.7163 0.4540
H6A H -0.3527 0.8001 0.4052
C2A C -0.2470(4) 0.9958(3) -0.0155(2)
C3A C -0.3246(5) 1.0653(4) -0.1202(2)
H9A H -0.2914 1.0066 -0.1717
C4A C -0.4532(5) 1.2258(4) -0.1434(2)
H10A H -0.5073 1.2775 -0.2127
C5A C -0.5051(5) 1.3138(4) -0.0655(3)
H11A H -0.5933 1.4217 -0.0842
C6A C -0.4274(4) 1.2430(4) 0.0384(2)
H12A H -0.4617 1.3012 0.0901
C7A C -0.2956(4) 1.0807(3) 0.0628(2)
C8A C -0.0984(4) 0.8331(3) 0.1390(2)
C9A C 0.0256(4) 0.6788(3) 0.2194(3)
H13A H 0.0064 0.6923 0.2907
H14A H 0.1529 0.6689 0.2056
N6A N 0.0385(4) 0.4595(3) 0.1298(2)
S1A S 0.24247(9) 0.89666(8) 0.42605(5)
O7 O 0.5782(8) 0.5341(4) 0.6194(3)
H7 H 0.5948 0.4309 0.6193
H8 H 0.4821 0.5971 0.5791
O8 O 0.0000 1.5000 0.5000
loop_
_geom_bond_atom_site_label_1
_geom_bond_atom_site_label_2
_geom_bond_site_symmetry_1
_geom_bond_site_symmetry_2
Cd1 N1 1_555 1_555
N1 C7 1_555 1_555
N2 H1 1_555 1_555
N3 C1 1_555 1_555
C1 H2 1_555 1_555
N4 C1 1_555 1_555
N5 N4 1_555 1_555
O1 Cd1 1_555 1_555
O2 S1 1_555 1_555
O3 S1 1_555 1_555
O4 S1 1_555 1_555
O5 Cd1 1_555 1_555
H3 O5 1_555 1_555
H4 O5 1_555 1_555
O6 Cd1 1_555 1_555
H5 O6 1_555 1_555
H6 O6 1_555 1_555
O7 H7 1_555 1_555
H8 O7 1_555 1_555
C2 N2 1_555 1_555
C3 C2 1_555 1_555
H9 C3 1_555 1_555
C4 C3 1_555 1_555
H10 C4 1_555 1_555
C5 C4 1_555 1_555
H11 C5 1_555 1_555
C6 C5 1_555 1_555
H12 C6 1_555 1_555
C7 C2 1_555 1_555
C8 N1 1_555 1_555
C9 N3 1_555 1_555
H13 C9 1_555 1_555
H14 C9 1_555 1_555
N6 N3 1_555 1_555
S1 O1 1_555 1_555
Cd1A O4 1_555 1_555
Cd1_2 N4 1_555 1_555
Cd1A_2 N4A 1_555 1_555
N1A Cd1A 1_555 1_555
N2A H1A 1_555 1_555
N3A C1A 1_555 1_555
C1A H2A 1_555 1_555
N4A C1A 1_555 1_555
N4_2 Cd1 1_555 1_555
N4A_2 Cd1A 1_555 1_555
N5A N4A 1_555 1_555
O1A Cd1A 1_555 1_555
O2A S1A 1_555 1_555
O3A S1A 1_555 1_555
O4A Cd1 1_555 1_555
O5A Cd1A 1_555 1_555
H3A O5A 1_555 1_555
H4A O5A 1_555 1_555
O6A Cd1A 1_555 1_555
H5A O6A 1_555 1_555
H6A O6A 1_555 1_555
C2A N2A 1_555 1_555
C3A C2A 1_555 1_555
H9A C3A 1_555 1_555
C4A C3A 1_555 1_555
H10A C4A 1_555 1_555
C5A C4A 1_555 1_555
H11A C5A 1_555 1_555
C6A C5A 1_555 1_555
H12A C6A 1_555 1_555
C7A N1A 1_555 1_555
C8A N1A 1_555 1_555
C9A N3A 1_555 1_555
H13A C9A 1_555 1_555
H14A C9A 1_555 1_555
N6A N3A 1_555 1_555
S1A O1A 1_555 1_555
N2 C8 1_555 1_555
N5 N6 1_555 1_555
C6 C7 1_555 1_555
C8 C9 1_555 1_555
N2A C8A 1_555 1_555
N5A N6A 1_555 1_555
O4A S1A 1_555 1_555
C2A C7A 1_555 1_555
C6A C7A 1_555 1_555
C8A C9A 1_555 1_555

#END
