
#######################################################################
#
#                 Cambridge Crystallographic Data Centre
#                                CCDC 
#
#######################################################################
#
# If this CIF has been generated from an entry in the Cambridge 
# Structural Database, then it will include bibliographic, chemical, 
# crystal, experimental, refinement or atomic coordinate data resulting 
# from the CCDC's data processing and validation procedures.
#
#######################################################################

data_BADFOD
_symmetry_cell_setting           monoclinic
_symmetry_space_group_name_H-M   'P 21/n'
_symmetry_Int_Tables_number      14
_space_group_name_Hall           '-P 2yn'
loop_
_symmetry_equiv_pos_site_id
_symmetry_equiv_pos_as_xyz
1 x,y,z
2 1/2-x,1/2+y,1/2-z
3 -x,-y,-z
4 1/2+x,1/2-y,1/2+z
_cell_length_a                   9.879(5)
_cell_length_b                   7.569(3)
_cell_length_c                   15.419(8)
_cell_angle_alpha                90
_cell_angle_beta                 105.299(5)
_cell_angle_gamma                90
_cell_volume                     1112.08
loop_
_atom_site_label
_atom_site_type_symbol
_atom_site_fract_x
_atom_site_fract_y
_atom_site_fract_z
Y1 Y -0.00121(3) 0.32114(3) 0.252675(19)
O1 O -0.1032(3) 0.5698(3) 0.17154(16)
H1 H -0.124(4) 0.589(5) 0.1147(17)
H2 H -0.160(4) 0.620(5) 0.194(3)
O2 O 0.1356(3) 0.0657(3) 0.25938(16)
H3 H 0.168(4) 0.045(5) 0.215(2)
H4 H 0.183(4) 0.012(5) 0.302(2)
O3 O 0.0042(3) 0.1636(3) 0.38793(17)
H5 H 0.018(4) 0.054(3) 0.399(2)
H6 H -0.028(4) 0.199(4) 0.428(2)
O4 O 0.1315(2) 0.3730(3) 0.14458(14)
O5 O 0.1589(3) 0.3636(3) 0.00620(15)
O6 O -0.2190(3) 0.1702(3) 0.23310(15)
O7 O -0.3891(2) -0.0060(3) 0.15496(14)
O8 O -0.3056(2) 0.0501(3) -0.15769(13)
N1 N -0.1026(3) 0.2001(3) 0.10158(17)
C1 C -0.0450(3) 0.2322(4) 0.03337(19)
C2 C -0.1079(4) 0.1838(4) -0.0540(2)
H7 H -0.0648 0.2094 -0.0994
C3 C -0.2380(3) 0.0952(4) -0.0744(2)
C4 C -0.2947(3) 0.0583(4) -0.0021(2)
H8 H -0.3792 -0.0025 -0.0116
C5 C -0.2250(3) 0.1121(4) 0.08275(19)
C6 C 0.0921(3) 0.3313(4) 0.0625(2)
C7 C -0.2830(3) 0.0885(4) 0.1625(2)
Y1A Y -0.49879(3) -0.17886(3) 0.247325(19)
Y1C Y -0.50121(3) 0.17886(3) -0.247325(19)
O7A O -0.1109(2) 0.4940(3) 0.34504(14)
O8C O 0.1944(2) 0.4499(3) 0.34231(13)
O9 O 0.0612(3) -0.1776(3) 0.4315(2)
H9 H 0.051(5) -0.232(6) 0.383(2)
H10 H 0.150(3) -0.166(6) 0.448(3)
loop_
_geom_bond_atom_site_label_1
_geom_bond_atom_site_label_2
_geom_bond_site_symmetry_1
_geom_bond_site_symmetry_2
Y1 O1 1_555 1_555
O1 H1 1_555 1_555
H2 O1 1_555 1_555
O2 Y1 1_555 1_555
H3 O2 1_555 1_555
H4 O2 1_555 1_555
O3 Y1 1_555 1_555
H5 O3 1_555 1_555
H6 O3 1_555 1_555
O4 Y1 1_555 1_555
O5 C6 1_555 1_555
O6 Y1 1_555 1_555
O7 C7 1_555 1_555
O8 C3 1_555 1_555
N1 Y1 1_555 1_555
C1 N1 1_555 1_555
C2 C1 1_555 1_555
H7 C2 1_555 1_555
C3 C2 1_555 1_555
C4 C3 1_555 1_555
H8 C4 1_555 1_555
C5 N1 1_555 1_555
C6 O4 1_555 1_555
C7 O6 1_555 1_555
O9 H9 1_555 1_555
H10 O9 1_555 1_555
Y1A O7 1_555 1_555
Y1C O8 1_555 1_555
O7A Y1 1_555 1_555
O8C Y1 1_555 1_555
C1 C6 1_555 1_555
C4 C5 1_555 1_555
C5 C7 1_555 1_555

#END
