
#######################################################################
#
#                 Cambridge Crystallographic Data Centre
#                                CCDC 
#
#######################################################################
#
# If this CIF has been generated from an entry in the Cambridge 
# Structural Database, then it will include bibliographic, chemical, 
# crystal, experimental, refinement or atomic coordinate data resulting 
# from the CCDC's data processing and validation procedures.
#
#######################################################################

data_BADFUJ
_symmetry_cell_setting           monoclinic
_symmetry_space_group_name_H-M   'P 21/n'
_symmetry_Int_Tables_number      14
_space_group_name_Hall           '-P 2yn'
loop_
_symmetry_equiv_pos_site_id
_symmetry_equiv_pos_as_xyz
1 x,y,z
2 1/2-x,1/2+y,1/2-z
3 -x,-y,-z
4 1/2+x,1/2-y,1/2+z
_cell_length_a                   10.047(3)
_cell_length_b                   7.521(2)
_cell_length_c                   15.578(5)
_cell_angle_alpha                90
_cell_angle_beta                 104.753(4)
_cell_angle_gamma                90
_cell_volume                     1138.32
loop_
_atom_site_label
_atom_site_type_symbol
_atom_site_fract_x
_atom_site_fract_y
_atom_site_fract_z
Sm1 Sm 0.999867(13) 0.17466(2) 0.254196(9)
O1 O 0.8972(3) -0.0840(4) 0.17110(17)
H1 H 0.876(5) -0.107(6) 0.1162(18)
H2 H 0.839(4) -0.130(6) 0.193(3)
O2 O 0.9973(3) 0.3399(3) 0.38957(17)
H3 H 1.002(5) 0.454(4) 0.394(3)
H4 H 0.969(5) 0.312(5) 0.433(2)
O3 O 1.1358(3) 0.4436(4) 0.25984(17)
H5 H 1.179(4) 0.460(6) 0.221(2)
H6 H 1.183(4) 0.482(6) 0.307(2)
O4 O 0.7764(3) 0.3210(3) 0.23135(16)
O5 O 0.6067(2) 0.4897(3) 0.15260(15)
O6 O 1.1311(2) 0.1302(3) 0.14298(14)
O7 O 1.1568(2) 0.1437(4) 0.00540(15)
O8 O 0.7007(2) 0.4482(3) -0.15420(14)
N1 N 0.8962(3) 0.2954(4) 0.10172(17)
C1 C 0.7736(3) 0.3783(4) 0.0831(2)
C2 C 0.7052(3) 0.4334(4) -0.0013(2)
H7 H 0.6208 0.4909 -0.0109
C3 C 0.7647(3) 0.4015(4) -0.07228(19)
C4 C 0.8937(3) 0.3179(4) -0.0523(2)
H8 H 0.9384 0.2969 -0.0968
C5 C 0.9538(3) 0.2669(4) 0.0339(2)
C6 C 0.7140(3) 0.3993(5) 0.1612(2)
C7 C 1.0908(3) 0.1730(4) 0.0621(2)
Sm1A Sm 0.500133(13) 0.67466(2) 0.245804(9)
Sm1C Sm 0.499867(13) 0.32534(2) -0.245804(9)
O5A O 0.8933(2) -0.0103(3) 0.34740(15)
O8C O 1.2007(2) 0.0518(3) 0.34580(14)
O9 O 0.4316(3) 1.1783(4) 0.0638(2)
H9 H 0.349(3) 1.157(6) 0.047(3)
H10 H 0.450(5) 1.260(6) 0.101(3)
loop_
_geom_bond_atom_site_label_1
_geom_bond_atom_site_label_2
_geom_bond_site_symmetry_1
_geom_bond_site_symmetry_2
Sm1 O1 1_555 1_555
O1 H1 1_555 1_555
H2 O1 1_555 1_555
O2 Sm1 1_555 1_555
H3 O2 1_555 1_555
H4 O2 1_555 1_555
O3 Sm1 1_555 1_555
H5 O3 1_555 1_555
H6 O3 1_555 1_555
O4 Sm1 1_555 1_555
O5 C6 1_555 1_555
O6 Sm1 1_555 1_555
O7 C7 1_555 1_555
O8 C3 1_555 1_555
N1 Sm1 1_555 1_555
C1 N1 1_555 1_555
C2 C1 1_555 1_555
H7 C2 1_555 1_555
C3 C2 1_555 1_555
C4 C3 1_555 1_555
H8 C4 1_555 1_555
C5 N1 1_555 1_555
C6 O4 1_555 1_555
C7 O6 1_555 1_555
O9 H9 1_555 1_555
H10 O9 1_555 1_555
Sm1A O5 1_555 1_555
Sm1C O8 1_555 1_555
O5A Sm1 1_555 1_555
O8C Sm1 1_555 1_555
C1 C6 1_555 1_555
C4 C5 1_555 1_555
C5 C7 1_555 1_555

#END
