
#######################################################################
#
#                 Cambridge Crystallographic Data Centre
#                                CCDC 
#
#######################################################################
#
# If this CIF has been generated from an entry in the Cambridge 
# Structural Database, then it will include bibliographic, chemical, 
# crystal, experimental, refinement or atomic coordinate data resulting 
# from the CCDC's data processing and validation procedures.
#
#######################################################################

data_BADFUI
_symmetry_cell_setting           orthorhombic
_symmetry_space_group_name_H-M   'P m n 21'
_symmetry_Int_Tables_number      31
_space_group_name_Hall           'P 2ac -2'
loop_
_symmetry_equiv_pos_site_id
_symmetry_equiv_pos_as_xyz
1 x,y,z
2 1/2-x,-y,1/2+z
3 1/2+x,-y,1/2+z
4 -x,y,z
_cell_length_a                   6.562(5)
_cell_length_b                   13.342(8)
_cell_length_c                   8.555(3)
_cell_angle_alpha                90
_cell_angle_beta                 90
_cell_angle_gamma                90
_cell_volume                     748.992
loop_
_atom_site_label
_atom_site_type_symbol
_atom_site_fract_x
_atom_site_fract_y
_atom_site_fract_z
Ag1 Ag 1.0000 0.88876(3) 1.00018(6)
N2 N 0.6885(5) 0.8727(2) 1.1387(4)
N3 N 0.5000 0.7719(3) 1.3300(6)
N4 N 0.5000 0.9555(3) 1.3522(5)
C5 C 0.6824(6) 0.7770(3) 1.2304(5)
H4 H 0.8021 0.7724 1.2945
H5 H 0.6827 0.7211 1.1597
C6 C 0.5000 0.8574(4) 1.4384(7)
H6 H 0.6184 0.8538 1.5041
C7 C 0.6847(5) 0.9569(2) 1.2517(4)
H7 H 0.6894 1.0191 1.1955
H8 H 0.8037 0.9534 1.3168
C8 C 0.5000 0.8789(4) 1.0420(6)
H9 H 0.5000 0.8257 0.9664
H10 H 0.5000 0.9414 0.9864
C5C C 0.3176(6) 0.7770(3) 1.2304(5)
N2C N 0.3115(5) 0.8727(2) 1.1387(4)
C7C C 0.3153(5) 0.9569(2) 1.2517(4)
H6C H 0.3816 0.8538 1.5041
H7C H 0.3106 1.0191 1.1955
H8C H 0.1963 0.9534 1.3168
H4C H 0.1979 0.7724 1.2945
H5C H 0.3173 0.7211 1.1597
N2C_2 N 1.3115(5) 0.8727(2) 1.1387(4)
N4A N 1.0000 1.0445(3) 0.8522(5)
Ag1A Ag 0.5000 1.11124(3) 1.50018(6)
Ag1_2 Ag 0.0000 0.88876(3) 1.00018(6)
S1 S 1.0000 0.76900(9) 0.67374(16)
O1 O 1.0000 0.8417(3) 0.5467(5)
O2 O 0.8138(9) 0.7773(3) 0.7673(5)
N1 N 1.0000 0.3633(4) 0.3816(8)
H1 H 0.8712 0.3448 0.3599
C1 C 1.0000 0.6485(4) 0.5879(7)
C2 C 0.8181(7) 0.6021(3) 0.5495(6)
H2 H 0.6916 0.6352 0.5719
C3 C 0.8166(7) 0.5087(3) 0.4782(7)
H3 H 0.6891 0.4774 0.4529
C4 C 1.0000 0.4595(4) 0.4446(7)
O2C O 1.1862(9) 0.7773(3) 0.7673(5)
H1C H 1.1288 0.3448 0.3599
C3C C 1.1834(7) 0.5087(3) 0.4782(7)
C2C C 1.1819(7) 0.6021(3) 0.5495(6)
H2C H 1.3084 0.6352 0.5719
H3C H 1.3109 0.4774 0.4529
loop_
_geom_bond_atom_site_label_1
_geom_bond_atom_site_label_2
_geom_bond_site_symmetry_1
_geom_bond_site_symmetry_2
Ag1 N2 1_555 1_555
S1 O1 1_555 1_555
O2 S1 1_555 1_555
N1 H1 1_555 1_555
N2 C5 1_555 1_555
N3 C5 1_555 1_555
N4 C6 1_555 1_555
C1 S1 1_555 1_555
C2 C1 1_555 1_555
H2 C2 1_555 1_555
C3 C2 1_555 1_555
H3 C3 1_555 1_555
C4 N1 1_555 1_555
C5 H4 1_555 1_555
H5 C5 1_555 1_555
C6 N3 1_555 1_555
H6 C6 1_555 1_555
C7 N2 1_555 1_555
H7 C7 1_555 1_555
H8 C7 1_555 1_555
C8 N2 1_555 1_555
H9 C8 1_555 1_555
H10 C8 1_555 1_555
O2C S1 1_555 1_555
H1C N1 1_555 1_555
C3C C4 1_555 1_555
C2C C1 1_555 1_555
H2C C2C 1_555 1_555
H3C C3C 1_555 1_555
C5C N3 1_555 1_555
N2C C8 1_555 1_555
C7C N4 1_555 1_555
H6C C6 1_555 1_555
H7C C7C 1_555 1_555
H8C C7C 1_555 1_555
H4C C5C 1_555 1_555
H5C C5C 1_555 1_555
N2C_2 Ag1 1_555 1_555
N4A Ag1 1_555 1_555
Ag1A N4 1_555 1_555
Ag1_2 N2C 1_555 1_555
N4 C7 1_555 1_555
C3 C4 1_555 1_555
C3C C2C 1_555 1_555
C5C N2C 1_555 1_555
N2C C7C 1_555 1_555

#END
