
#######################################################################
#
#                 Cambridge Crystallographic Data Centre
#                                CCDC 
#
#######################################################################
#
# If this CIF has been generated from an entry in the Cambridge 
# Structural Database, then it will include bibliographic, chemical, 
# crystal, experimental, refinement or atomic coordinate data resulting 
# from the CCDC's data processing and validation procedures.
#
#######################################################################

data_BADGET
_symmetry_cell_setting           orthorhombic
_symmetry_space_group_name_H-M   'P n n m'
_symmetry_Int_Tables_number      58
_space_group_name_Hall           '-P 2 2n'
loop_
_symmetry_equiv_pos_site_id
_symmetry_equiv_pos_as_xyz
1 x,y,z
2 x,y,-z
3 1/2+x,1/2-y,1/2+z
4 1/2-x,1/2+y,1/2+z
5 -x,-y,-z
6 -x,-y,z
7 1/2-x,1/2+y,1/2-z
8 1/2+x,1/2-y,1/2-z
_cell_length_a                   10.588(4)
_cell_length_b                   23.728(12)
_cell_length_c                   6.3740(10)
_cell_angle_alpha                90
_cell_angle_beta                 90
_cell_angle_gamma                90
_cell_volume                     1601.35
loop_
_atom_site_label
_atom_site_type_symbol
_atom_site_fract_x
_atom_site_fract_y
_atom_site_fract_z
Ag1 Ag 0.69823(5) 0.21042(3) 0.0000
N1 N 0.5674(4) 0.20130(18) -0.3062(7)
N2 N 0.4481(7) 0.1298(3) -0.5000
N3 N 0.3742(6) 0.2271(3) -0.5000
C6 C 0.5233(5) 0.1409(2) -0.3120(9)
H2 H 0.4734 0.1331 -0.1897
H3 H 0.5954 0.1164 -0.3097
C7 C 0.3380(7) 0.1661(3) -0.5000
H4 H 0.2877 0.1582 -0.3782
C8 C 0.4536(5) 0.2381(2) -0.3111(8)
H5 H 0.4797 0.2768 -0.3116
H6 H 0.4041 0.2317 -0.1871
C9 C 0.6417(7) 0.2120(4) -0.5000
H7 H 0.7149 0.1881 -0.5000
H8 H 0.6700 0.2504 -0.5000
C6A C 0.5233(5) 0.1409(2) -0.6880(9)
N1A N 0.5674(4) 0.20130(18) -0.6938(7)
C8A C 0.4536(5) 0.2381(2) -0.6889(8)
H4A H 0.2877 0.1582 -0.6218
H5A H 0.4797 0.2768 -0.6884
H6A H 0.4041 0.2317 -0.8129
H2A H 0.4734 0.1331 -0.8103
H3A H 0.5954 0.1164 -0.6903
N1A_2 N 0.5674(4) 0.20130(18) 0.3062(7)
N2A N 0.4481(7) 0.1298(3) 0.5000
N3A N 0.3742(6) 0.2271(3) 0.5000
C6A_2 C 0.5233(5) 0.1409(2) 0.3120(9)
H2A_2 H 0.4734 0.1331 0.1897
H3A_2 H 0.5954 0.1164 0.3097
C7A C 0.3380(7) 0.1661(3) 0.5000
H4A_2 H 0.2877 0.1582 0.3782
C8A_2 C 0.4536(5) 0.2381(2) 0.3111(8)
H5A_2 H 0.4797 0.2768 0.3116
H6A_2 H 0.4041 0.2317 0.1871
C9A C 0.6417(7) 0.2120(4) 0.5000
H7A H 0.7149 0.1881 0.5000
H8A H 0.6700 0.2504 0.5000
C6_2 C 0.5233(5) 0.1409(2) 0.6880(9)
N1_2 N 0.5674(4) 0.20130(18) 0.6938(7)
C8_2 C 0.4536(5) 0.2381(2) 0.6889(8)
H4_2 H 0.2877 0.1582 0.6218
H5_2 H 0.4797 0.2768 0.6884
H6_2 H 0.4041 0.2317 0.8129
H2_2 H 0.4734 0.1331 0.8103
H3_2 H 0.5954 0.1164 0.6903
Ag1A Ag 0.69823(5) 0.21042(3) -1.0000
N3B N 0.8742(6) 0.2729(3) 0.0000
Ag1B Ag 0.19823(5) 0.28958(3) -0.5000
Ag1B_2 Ag 0.19823(5) 0.28958(3) 0.5000
Ag1_2 Ag 0.69823(5) 0.21042(3) 1.0000
N1_3 N 0.5674(4) 0.20130(18) -1.3062(7)
N3B_2 N 0.8742(6) 0.2729(3) -1.0000
Ag2 Ag 0.61721(9) 0.45706(4) 0.0000
N4 N 0.5237(8) 0.3773(3) 0.0000
H9 H 0.4394 0.3824 0.0000
H10 H 0.5465 0.3579 -0.1153
N5 N 0.7184(11) 0.5334(4) 0.0000
H11 H 0.7673 0.5352 0.1153
H12 H 0.6637 0.5625 0.0000
H10A H 0.5465 0.3579 0.1153
H11A H 0.7673 0.5352 -0.1153
O1 O 1.2748(7) 0.0958(3) 0.0000
O2 O 1.1071(7) 0.1489(3) 0.0000
O3 O 0.8305(5) 0.12805(19) 0.1730(8)
C1 C 1.1583(8) 0.1031(3) 0.0000
C2 C 0.8653(7) 0.1077(3) 0.0000
C3 C 1.1304(7) -0.0032(3) 0.0000
H1 H 1.2209 -0.0058 0.0000
C4 C 1.0731(7) 0.0507(3) 0.0000
C5 C 0.9420(7) 0.0539(3) 0.0000
C5D C 1.0580(7) -0.0539(3) 0.0000
C2D C 1.1347(7) -0.1077(3) 0.0000
O3D O 1.1695(5) -0.12805(19) -0.1730(8)
O3E O 1.1695(5) -0.12805(19) 0.1730(8)
C4D C 0.9269(7) -0.0507(3) 0.0000
C1D C 0.8417(8) -0.1031(3) 0.0000
O1D O 0.7252(7) -0.0958(3) 0.0000
O2D O 0.8929(7) -0.1489(3) 0.0000
C3D C 0.8696(7) 0.0032(3) 0.0000
H1D H 0.7791 0.0058 0.0000
O3A O 0.8305(5) 0.12805(19) -0.1730(8)
O5 O 0.9352(18) 0.4853(7) -0.316(5)
O4? O 0.958(4) 0.493(2) 0.0000
H13? H 0.9736 0.4722 -0.1044
H14? H 0.9675 0.4779 -0.5000
H15? H 0.9781 0.5154 -0.3065
loop_
_geom_bond_atom_site_label_1
_geom_bond_atom_site_label_2
_geom_bond_site_symmetry_1
_geom_bond_site_symmetry_2
Ag1 N1 1_555 1_555
Ag2 N4 1_555 1_555
O1 C1 1_555 1_555
O2 C1 1_555 1_555
O3 C2 1_555 1_555
N1 C6 1_555 1_555
N2 C6 1_555 1_555
N3 C7 1_555 1_555
C1 C4 1_555 1_555
C2 C5 1_555 1_555
C3 H1 1_555 1_555
C4 C3 1_555 1_555
C5 C4 1_555 1_555
C6 H2 1_555 1_555
H3 C6 1_555 1_555
C7 N2 1_555 1_555
H4 C7 1_555 1_555
C8 N1 1_555 1_555
H5 C8 1_555 1_555
H6 C8 1_555 1_555
C9 N1 1_555 1_555
H7 C9 1_555 1_555
H8 C9 1_555 1_555
N4 H9 1_555 1_555
H10 N4 1_555 1_555
N5 Ag2 1_555 1_555
H11 N5 1_555 1_555
H12 N5 1_555 1_555
C5D C3 1_555 1_555
C2D C5D 1_555 1_555
O3D C2D 1_555 1_555
O3E C2D 1_555 1_555
C4D C5D 1_555 1_555
C1D C4D 1_555 1_555
O1D C1D 1_555 1_555
O2D C1D 1_555 1_555
C3D C5 1_555 1_555
H1D C3D 1_555 1_555
O3A C2 1_555 1_555
C6A N2 1_555 1_555
N1A C9 1_555 1_555
C8A N3 1_555 1_555
H4A C7 1_555 1_555
H5A C8A 1_555 1_555
H6A C8A 1_555 1_555
H2A C6A 1_555 1_555
H3A C6A 1_555 1_555
H10A N4 1_555 1_555
H11A N5 1_555 1_555
N1A_2 Ag1 1_555 1_555
N2A C6A_2 1_555 1_555
N3A C7A 1_555 1_555
C6A_2 N1A_2 1_555 1_555
H2A_2 C6A_2 1_555 1_555
H3A_2 C6A_2 1_555 1_555
C7A N2A 1_555 1_555
H4A_2 C7A 1_555 1_555
C8A_2 N1A_2 1_555 1_555
H5A_2 C8A_2 1_555 1_555
H6A_2 C8A_2 1_555 1_555
C9A N1A_2 1_555 1_555
H7A C9A 1_555 1_555
H8A C9A 1_555 1_555
C6_2 N2A 1_555 1_555
N1_2 C9A 1_555 1_555
C8_2 N3A 1_555 1_555
H4_2 C7A 1_555 1_555
H5_2 C8_2 1_555 1_555
H6_2 C8_2 1_555 1_555
H2_2 C6_2 1_555 1_555
H3_2 C6_2 1_555 1_555
Ag1A N1A 1_555 1_555
N3B Ag1 1_555 1_555
Ag1B N3 1_555 1_555
Ag1B_2 N3A 1_555 1_555
Ag1_2 N1_2 1_555 1_555
N1_3 Ag1A 1_555 1_555
N3B_2 Ag1A 1_555 1_555
N3 C8 1_555 1_555
C4D C3D 1_555 1_555
C6A N1A 1_555 1_555
N1A C8A 1_555 1_555
N3A C8A_2 1_555 1_555
C6_2 N1_2 1_555 1_555
N1_2 C8_2 1_555 1_555

#END
