
#######################################################################
#
#                 Cambridge Crystallographic Data Centre
#                                CCDC 
#
#######################################################################
#
# If this CIF has been generated from an entry in the Cambridge 
# Structural Database, then it will include bibliographic, chemical, 
# crystal, experimental, refinement or atomic coordinate data resulting 
# from the CCDC's data processing and validation procedures.
#
#######################################################################

data_BADGAQ
_symmetry_cell_setting           monoclinic
_symmetry_space_group_name_H-M   'P 21/n'
_symmetry_Int_Tables_number      14
_space_group_name_Hall           '-P 2yn'
loop_
_symmetry_equiv_pos_site_id
_symmetry_equiv_pos_as_xyz
1 x,y,z
2 1/2-x,1/2+y,1/2-z
3 -x,-y,-z
4 1/2+x,1/2-y,1/2+z
_cell_length_a                   10.109(2)
_cell_length_b                   7.5421(15)
_cell_length_c                   15.653(3)
_cell_angle_alpha                90
_cell_angle_beta                 104.49(3)
_cell_angle_gamma                90
_cell_volume                     1155.47
loop_
_atom_site_label
_atom_site_type_symbol
_atom_site_fract_x
_atom_site_fract_y
_atom_site_fract_z
Nd1 Nd -0.000582(16) 0.67368(2) 0.245181(11)
O1 O -0.1380(4) 0.9457(5) 0.2389(2)
H1 H -0.173(6) 0.970(8) 0.281(3)
H2 H -0.192(5) 0.989(8) 0.193(3)
O2 O 0.1020(3) 0.4125(4) 0.3293(2)
H3 H 0.116(6) 0.384(8) 0.384(2)
H4 H 0.166(5) 0.371(8) 0.310(4)
O3 O 0.0045(4) 0.8414(4) 0.1094(2)
H5 H -0.015(6) 0.949(4) 0.106(4)
H6 H 0.030(6) 0.818(7) 0.062(3)
O4 O 0.2250(3) 0.8189(4) 0.2695(2)
O5 O 0.3941(3) 0.9849(4) 0.34858(18)
O6 O -0.1311(3) 0.6315(4) 0.35769(18)
O7 O -0.1568(3) 0.6463(4) 0.49501(19)
O8 O 0.2971(3) 0.9484(4) 0.65282(16)
N1 N 0.1041(3) 0.7951(4) 0.3989(2)
C1 C 0.2266(4) 0.8761(5) 0.4175(2)
C2 C 0.2934(4) 0.9305(5) 0.5008(2)
H7 H 0.3777 0.9868 0.5101
C3 C 0.2348(4) 0.9012(5) 0.5719(2)
C4 C 0.1054(4) 0.8180(5) 0.5524(2)
H8 H 0.0609 0.7977 0.5967
C5 C 0.0458(3) 0.7672(5) 0.4661(2)
C6 C 0.2869(4) 0.8963(5) 0.3400(2)
C7 C -0.0907(4) 0.6742(5) 0.4382(3)
Nd1A Nd 0.500582(16) 1.17368(2) 0.254819(11)
Nd1C Nd 0.499418(16) 0.82632(2) 0.745181(11)
O5A O 0.1059(3) 0.4849(4) 0.15142(18)
O8C O -0.2029(3) 0.5516(4) 0.15282(16)
O9 O -0.4296(3) 0.6785(4) 0.4378(3)
H9 H -0.449(6) 0.757(7) 0.397(3)
H10 H -0.344(3) 0.661(8) 0.450(4)
loop_
_geom_bond_atom_site_label_1
_geom_bond_atom_site_label_2
_geom_bond_site_symmetry_1
_geom_bond_site_symmetry_2
Nd1 O1 1_555 1_555
O1 H1 1_555 1_555
H2 O1 1_555 1_555
O2 Nd1 1_555 1_555
H3 O2 1_555 1_555
H4 O2 1_555 1_555
O3 Nd1 1_555 1_555
H5 O3 1_555 1_555
H6 O3 1_555 1_555
O4 Nd1 1_555 1_555
O5 C6 1_555 1_555
O6 Nd1 1_555 1_555
O7 C7 1_555 1_555
O8 C3 1_555 1_555
N1 Nd1 1_555 1_555
C1 N1 1_555 1_555
C2 C1 1_555 1_555
H7 C2 1_555 1_555
C3 C2 1_555 1_555
C4 C3 1_555 1_555
H8 C4 1_555 1_555
C5 N1 1_555 1_555
C6 O4 1_555 1_555
C7 O6 1_555 1_555
O9 H9 1_555 1_555
H10 O9 1_555 1_555
Nd1A O5 1_555 1_555
Nd1C O8 1_555 1_555
O5A Nd1 1_555 1_555
O8C Nd1 1_555 1_555
C1 C6 1_555 1_555
C4 C5 1_555 1_555
C5 C7 1_555 1_555

#END
