
#######################################################################
#
#                 Cambridge Crystallographic Data Centre
#                                CCDC 
#
#######################################################################
#
# If this CIF has been generated from an entry in the Cambridge 
# Structural Database, then it will include bibliographic, chemical, 
# crystal, experimental, refinement or atomic coordinate data resulting 
# from the CCDC's data processing and validation procedures.
#
#######################################################################

data_BADGIY
_symmetry_cell_setting           monoclinic
_symmetry_space_group_name_H-M   'C 2/c'
_symmetry_Int_Tables_number      15
_space_group_name_Hall           '-C 2yn'
loop_
_symmetry_equiv_pos_site_id
_symmetry_equiv_pos_as_xyz
1 x,y,z
2 -x,y,1/2-z
3 1/2+x,1/2+y,z
4 1/2-x,1/2+y,1/2-z
5 -x,-y,-z
6 x,-y,1/2+z
7 1/2-x,1/2-y,-z
8 1/2+x,1/2-y,1/2+z
_cell_length_a                   7.9916(8)
_cell_length_b                   10.4155(10)
_cell_length_c                   20.951(2)
_cell_angle_alpha                90
_cell_angle_beta                 99.512(2)
_cell_angle_gamma                90
_cell_volume                     1719.91
loop_
_atom_site_label
_atom_site_type_symbol
_atom_site_fract_x
_atom_site_fract_y
_atom_site_fract_z
Ce1 Ce 0.0000 0.04710(4) 0.2500
Ce2 Ce -0.5000 0.12552(6) 0.2500
O1 O 0.0000 0.2915(6) 0.2500
O2 O 0.0614(5) -0.1582(4) 0.18758(18)
H1 H -0.038(3) -0.135(5) 0.178(3)
H2 H 0.112(4) -0.146(6) 0.1567(13)
O3 O 0.2265(4) 0.1322(4) 0.18940(16)
O4 O 0.3072(5) 0.2343(4) 0.10525(18)
O5 O -0.2906(4) -0.0190(4) 0.19611(16)
O6 O -0.4888(5) -0.0463(4) 0.10926(19)
O7 O -0.2012(5) 0.1320(4) -0.07228(17)
H3 H -0.2978 0.1056 -0.0846
N1 N -0.0793(5) 0.0910(4) 0.12637(19)
C1 C 0.0308(6) 0.1427(5) 0.0921(2)
C2 C -0.0052(6) 0.1604(5) 0.0256(2)
H4 H 0.0723 0.2002 0.0035
C3 C -0.1605(7) 0.1168(5) -0.0069(2)
C4 C -0.2740(7) 0.0591(5) 0.0280(2)
H5 H -0.3774 0.0272 0.0071
C5 C -0.2291(6) 0.0505(4) 0.0945(2)
C6 C 0.2020(6) 0.1745(5) 0.1310(2)
C7 C -0.3482(6) -0.0093(5) 0.1350(2)
Ce2B Ce 0.0000 -0.37448(6) 0.2500
Ce2_2 Ce 0.5000 0.12552(6) 0.2500
O2A O -0.0614(5) -0.1582(4) 0.31242(18)
O2B O -0.4386(5) 0.3418(4) 0.18758(18)
O2C O -0.5614(5) 0.3418(4) 0.31242(18)
H1A H 0.038(3) -0.135(5) 0.322(3)
H1B H -0.538(3) 0.365(5) 0.178(3)
H1C H -0.462(3) 0.365(5) 0.322(3)
H2A H -0.112(4) -0.146(6) 0.3433(13)
H2B H -0.388(4) 0.354(6) 0.1567(13)
H2C H -0.612(4) 0.354(6) 0.3433(13)
O3A O -0.2265(4) 0.1322(4) 0.31060(16)
O3_2 O -0.7735(4) 0.1322(4) 0.18940(16)
O4A O -0.3072(5) 0.2343(4) 0.39475(18)
O5A O 0.2906(4) -0.0190(4) 0.30389(16)
O5A_2 O -0.7094(4) -0.0190(4) 0.30389(16)
O6A O 0.4888(5) -0.0463(4) 0.39074(19)
O7A O 0.2012(5) 0.1320(4) 0.57228(17)
H3A H 0.2978 0.1056 0.5846
N1A N 0.0793(5) 0.0910(4) 0.37363(19)
C1A C -0.0308(6) 0.1427(5) 0.4079(2)
C2A C 0.0052(6) 0.1604(5) 0.4744(2)
H4A H -0.0723 0.2002 0.4965
C3A C 0.1605(7) 0.1168(5) 0.5069(2)
C4A C 0.2740(7) 0.0591(5) 0.4720(2)
H5A H 0.3774 0.0272 0.4929
C5A C 0.2291(6) 0.0505(4) 0.4055(2)
C6A C -0.2020(6) 0.1745(5) 0.3690(2)
C7A C 0.3482(6) -0.0093(5) 0.3650(2)
loop_
_geom_bond_atom_site_label_1
_geom_bond_atom_site_label_2
_geom_bond_site_symmetry_1
_geom_bond_site_symmetry_2
Ce1 O1 1_555 1_555
Ce2 O5 1_555 1_555
O2 Ce1 1_555 1_555
H1 O2 1_555 1_555
H2 O2 1_555 1_555
O3 Ce1 1_555 1_555
O4 C6 1_555 1_555
O5 Ce1 1_555 1_555
O6 C7 1_555 1_555
O7 H3 1_555 1_555
N1 Ce1 1_555 1_555
C1 N1 1_555 1_555
C2 C1 1_555 1_555
H4 C2 1_555 1_555
C3 O7 1_555 1_555
C4 C3 1_555 1_555
H5 C4 1_555 1_555
C5 N1 1_555 1_555
C6 O3 1_555 1_555
C7 O5 1_555 1_555
Ce2B O2 1_555 1_555
Ce2_2 O3 1_555 1_555
O2A Ce1 1_555 1_555
O2B Ce2 1_555 1_555
O2C Ce2 1_555 1_555
H1A O2A 1_555 1_555
H1B O2B 1_555 1_555
H1C O2C 1_555 1_555
H2A O2A 1_555 1_555
H2B O2B 1_555 1_555
H2C O2C 1_555 1_555
O3A Ce1 1_555 1_555
O3_2 Ce2 1_555 1_555
O4A C6A 1_555 1_555
O5A Ce1 1_555 1_555
O5A_2 Ce2 1_555 1_555
O6A C7A 1_555 1_555
O7A H3A 1_555 1_555
N1A Ce1 1_555 1_555
C1A N1A 1_555 1_555
C2A C1A 1_555 1_555
H4A C2A 1_555 1_555
C3A O7A 1_555 1_555
C4A C3A 1_555 1_555
H5A C4A 1_555 1_555
C5A N1A 1_555 1_555
C6A O3A 1_555 1_555
C7A O5A 1_555 1_555
Ce2 O3A 1_555 1_555
C1 C6 1_555 1_555
C2 C3 1_555 1_555
C4 C5 1_555 1_555
C5 C7 1_555 1_555
Ce2B O2A 1_555 1_555
Ce2_2 O5A 1_555 1_555
C1A C6A 1_555 1_555
C2A C3A 1_555 1_555
C4A C5A 1_555 1_555
C5A C7A 1_555 1_555

#END
