
#######################################################################
#
#                 Cambridge Crystallographic Data Centre
#                                CCDC 
#
#######################################################################
#
# If this CIF has been generated from an entry in the Cambridge 
# Structural Database, then it will include bibliographic, chemical, 
# crystal, experimental, refinement or atomic coordinate data resulting 
# from the CCDC's data processing and validation procedures.
#
#######################################################################

data_BADNUR
_symmetry_cell_setting           monoclinic
_symmetry_space_group_name_H-M   'P 21'
_symmetry_Int_Tables_number      4
_space_group_name_Hall           'P 2yb'
loop_
_symmetry_equiv_pos_site_id
_symmetry_equiv_pos_as_xyz
1 x,y,z
2 -x,1/2+y,-z
_cell_length_a                   12.5607(14)
_cell_length_b                   9.4615(11)
_cell_length_c                   13.7266(16)
_cell_angle_alpha                90
_cell_angle_beta                 114.062(1)
_cell_angle_gamma                90
_cell_volume                     1489.56
loop_
_atom_site_label
_atom_site_type_symbol
_atom_site_fract_x
_atom_site_fract_y
_atom_site_fract_z
Bi1 Bi 0.92957(3) 0.33211(3) 0.91658(3)
Bi2 Bi 0.73646(3) 0.02657(3) 0.86867(2)
Bi3 Bi 0.63228(3) 0.35836(3) 0.71570(3)
Bi4 Bi 0.88137(3) 0.35813(3) 0.63342(2)
Bi5 Bi 0.98760(3) 0.02684(3) 0.78237(2)
Bi6 Bi 0.68468(3) 0.04445(4) 0.58647(2)
S1 S 0.5081(2) 0.2288(3) 0.90583(18)
S2 S 0.26125(18) 0.1357(2) 1.04728(17)
S3 S 1.11722(18) 0.1604(2) 0.60339(18)
S4 S 1.37365(18) 0.1491(2) 0.49665(18)
S5 S 0.71000(19) 0.1933(3) 0.35129(17)
S6 S 0.91243(19) 0.1441(2) 0.16660(17)
O1 O 0.7435(5) 0.2771(7) 0.8988(5)
O2 O 0.8146(5) 0.3831(6) 0.7580(4)
O3 O 1.0221(5) 0.2812(7) 0.8009(5)
O4 O 0.8131(5) -0.0852(7) 0.7519(5)
O5 O 0.6525(5) 0.1346(7) 0.7193(5)
O6 O 0.6649(5) 0.2873(7) 0.5642(5)
O7 O 0.8601(5) 0.1349(7) 0.6480(5)
O8 O 0.9104(5) 0.1114(7) 0.8888(5)
O9 O 0.5931(5) -0.1537(8) 0.7341(5)
O10 O 0.9373(6) -0.1422(8) 0.6135(5)
O11 O 0.5477(6) 0.0861(8) 0.8985(6)
O12 O 0.4796(6) 0.3102(8) 0.8059(5)
O13 O 0.5872(6) 0.3070(7) 0.9986(5)
O14 O 0.2023(6) 0.2722(8) 1.0268(5)
O15 O 0.1906(5) 0.0270(7) 0.9733(5)
O16 O 0.3020(6) 0.0936(7) 1.1596(5)
O17 O 1.0558(6) 0.2936(7) 0.6010(5)
O18 O 1.1364(6) 0.0790(8) 0.6986(5)
O19 O 1.0646(6) 0.0803(8) 0.5060(5)
O20 O 1.4594(5) 0.0426(8) 0.4961(5)
O21 O 1.4248(5) 0.2893(7) 0.5229(5)
O22 O 1.2692(6) 0.1439(8) 0.3979(5)
O23 O 0.8036(6) 0.2763(8) 0.4316(5)
O24 O 0.6664(6) 0.0805(8) 0.3978(6)
O25 O 0.6160(6) 0.2823(8) 0.2761(6)
O26 O 0.9490(6) 0.2597(8) 0.1173(5)
O27 O 0.8533(6) 0.0330(8) 0.0900(5)
O28 O 1.0092(6) 0.0903(7) 0.2615(5)
C1 C 0.3724(8) 0.2140(11) 0.9178(8)
H1 H 0.3353 0.3082 0.9088
H2 H 0.3194 0.1511 0.8611
C2 C 0.3925(8) 0.1532(10) 1.0286(7)
H3 H 0.4465 0.2160 1.0847
H4 H 0.4300 0.0593 1.0369
C3 C 1.2546(8) 0.2201(10) 0.6140(7)
H5 H 1.2427 0.2920 0.5582
H6 H 1.2953 0.2666 0.6842
C4 C 1.3331(8) 0.1020(10) 0.6028(7)
H7 H 1.2906 0.0110 0.5869
H8 H 1.4036 0.0916 0.6702
C5 C 0.7741(8) 0.1070(10) 0.2747(7)
H9 H 0.8436 0.0535 0.3222
H10 H 0.7178 0.0393 0.2252
C6 C 0.8097(8) 0.2168(10) 0.2107(7)
H11 H 0.8441 0.3003 0.2561
H12 H 0.7398 0.2482 0.1483
Bi4A Bi 1.11863(3) -0.14187(3) 0.36658(2)
Bi6_2 Bi 1.68468(3) 0.04445(4) 0.58647(2)
O20_2 O 0.4594(5) 0.0426(8) 0.4961(5)
O28A O 0.9908(6) 0.5903(7) 0.7385(5)
loop_
_geom_bond_atom_site_label_1
_geom_bond_atom_site_label_2
_geom_bond_site_symmetry_1
_geom_bond_site_symmetry_2
Bi1 O1 1_555 1_555
Bi2 O1 1_555 1_555
Bi3 O1 1_555 1_555
Bi4 O2 1_555 1_555
Bi5 O3 1_555 1_555
Bi6 O4 1_555 1_555
S1 O11 1_555 1_555
S2 O14 1_555 1_555
S3 O17 1_555 1_555
S4 O20 1_555 1_555
S5 O23 1_555 1_555
S6 O26 1_555 1_555
O2 Bi1 1_555 1_555
O3 Bi1 1_555 1_555
O4 Bi2 1_555 1_555
O5 Bi2 1_555 1_555
O6 Bi3 1_555 1_555
O7 Bi4 1_555 1_555
O8 Bi1 1_555 1_555
O9 Bi2 1_555 1_555
O10 Bi5 1_555 1_555
O11 Bi2 1_555 1_555
O12 S1 1_555 1_555
O13 S1 1_555 1_555
O15 S2 1_555 1_555
O16 S2 1_555 1_555
O17 Bi4 1_555 1_555
O18 Bi5 1_555 1_555
O19 S3 1_555 1_555
O20 Bi6_2 1_555 1_555
O21 S4 1_555 1_555
O22 S4 1_555 1_555
O23 Bi4 1_555 1_555
O24 Bi6 1_555 1_555
O25 S5 1_555 1_555
O27 S6 1_555 1_555
O28 S6 1_555 1_555
C1 S1 1_555 1_555
H1 C1 1_555 1_555
H2 C1 1_555 1_555
C2 S2 1_555 1_555
H3 C2 1_555 1_555
H4 C2 1_555 1_555
C3 S3 1_555 1_555
H5 C3 1_555 1_555
H6 C3 1_555 1_555
C4 S4 1_555 1_555
H7 C4 1_555 1_555
H8 C4 1_555 1_555
C5 S5 1_555 1_555
H9 C5 1_555 1_555
H10 C5 1_555 1_555
C6 S6 1_555 1_555
H11 C6 1_555 1_555
H12 C6 1_555 1_555
Bi4A O28 1_555 1_555
O20_2 Bi6 1_555 1_555
O28A Bi4 1_555 1_555
Bi2 O8 1_555 1_555
Bi3 O2 1_555 1_555
Bi3 O5 1_555 1_555
Bi4 O3 1_555 1_555
Bi4 O6 1_555 1_555
Bi5 O4 1_555 1_555
Bi5 O7 1_555 1_555
Bi5 O8 1_555 1_555
Bi6 O5 1_555 1_555
Bi6 O6 1_555 1_555
Bi6 O7 1_555 1_555
S3 O18 1_555 1_555
S5 O24 1_555 1_555
C1 C2 1_555 1_555
C3 C4 1_555 1_555
C5 C6 1_555 1_555

#END
