
#######################################################################
#
#                 Cambridge Crystallographic Data Centre
#                                CCDC 
#
#######################################################################
#
# If this CIF has been generated from an entry in the Cambridge 
# Structural Database, then it will include bibliographic, chemical, 
# crystal, experimental, refinement or atomic coordinate data resulting 
# from the CCDC's data processing and validation procedures.
#
#######################################################################

data_BADQII
_symmetry_cell_setting           monoclinic
_symmetry_space_group_name_H-M   'C 2/c'
_symmetry_Int_Tables_number      15
_space_group_name_Hall           '-C 2yn'
loop_
_symmetry_equiv_pos_site_id
_symmetry_equiv_pos_as_xyz
1 x,y,z
2 -x,y,1/2-z
3 1/2+x,1/2+y,z
4 1/2-x,1/2+y,1/2-z
5 -x,-y,-z
6 x,-y,1/2+z
7 1/2-x,1/2-y,-z
8 1/2+x,1/2-y,1/2+z
_cell_length_a                   16.635(6)
_cell_length_b                   13.223(4)
_cell_length_c                   7.805(3)
_cell_angle_alpha                90
_cell_angle_beta                 102.56(3)
_cell_angle_gamma                90
_cell_volume                     1675.74
loop_
_atom_site_label
_atom_site_type_symbol
_atom_site_fract_x
_atom_site_fract_y
_atom_site_fract_z
Cu1 Cu 0.0000 0.0000 -0.5000
N1 N -0.2886(3) 0.1736(6) -0.3208(7)
H1 H -0.3128 0.1789 -0.2344
H2 H -0.3135 0.1925 -0.4241
N2 N -0.2081(3) 0.1336(4) -0.2929(6)
N3 N -0.0959(3) 0.0719(3) -0.3504(5)
N4 N -0.0919(3) 0.0649(3) -0.1708(5)
C1 C -0.1658(4) 0.1137(5) -0.4169(7)
H3 H -0.1845 0.1282 -0.5355
C2 C -0.1606(4) 0.1007(5) -0.1429(9)
H4 H -0.1759(16) 0.1033(6) -0.025(12)
N5 N 0.0000 0.3871(5) -0.7500
H5 H 0.0053 0.4197 -0.8423
N6 N 0.0000 0.2811(5) -0.7500
N7 N -0.0047(3) 0.1250(4) -0.6640(5)
C3 C -0.0077(3) 0.2195(5) -0.6176(9)
H6 H -0.0140(6) 0.2404(17) -0.512(8)
Cu1A Cu 0.0000 0.0000 0.0000
Cu1A_2 Cu 0.0000 0.0000 -1.0000
N1A N 0.2886(3) 0.1736(6) -0.1792(7)
H1A H 0.3128 0.1789 -0.2656
H2A H 0.3135 0.1925 -0.0759
N2A N 0.2081(3) 0.1336(4) -0.2071(6)
N3A N 0.0959(3) 0.0719(3) -0.1496(5)
N3D N 0.0959(3) -0.0719(3) -0.6496(5)
N4A N 0.0919(3) 0.0649(3) -0.3292(5)
N4E N -0.0919(3) -0.0649(3) -0.6708(5)
C1A C 0.1658(4) 0.1137(5) -0.0831(7)
H3A H 0.1845 0.1282 0.0355
C2A C 0.1606(4) 0.1007(5) -0.3571(9)
H4A H 0.1759(16) 0.1033(6) -0.475(12)
H5A H -0.0053 0.4197 -0.6577
N7A N 0.0047(3) 0.1250(4) -0.8360(5)
N7D N 0.0047(3) -0.1250(4) -0.3360(5)
C3A C 0.0077(3) 0.2195(5) -0.8824(9)
H6A H 0.0140(6) 0.2404(17) -0.988(8)
N8 N 0.3176(6) 0.1035(8) 0.3702(11)
O1 O 0.3459(4) 0.1738(6) 0.4617(8)
O2 O 0.3640(8) 0.0459(10) 0.324(2)
O3 O 0.2428(4) 0.0972(6) 0.3184(7)
O4 O 0.5000 0.1671(7) 0.2500
H7 H 0.475(5) 0.150(6) 0.318(11)
H7A H 0.525(5) 0.150(6) 0.182(11)
loop_
_geom_bond_atom_site_label_1
_geom_bond_atom_site_label_2
_geom_bond_site_symmetry_1
_geom_bond_site_symmetry_2
Cu1 N3 1_555 1_555
N1 H1 1_555 1_555
H2 N1 1_555 1_555
N2 N1 1_555 1_555
N3 N4 1_555 1_555
N4 C2 1_555 1_555
C1 N2 1_555 1_555
H3 C1 1_555 1_555
C2 N2 1_555 1_555
H4 C2 1_555 1_555
N5 H5 1_555 1_555
N6 N5 1_555 1_555
N7 Cu1 1_555 1_555
C3 N6 1_555 1_555
H6 C3 1_555 1_555
N8 O1 1_555 1_555
O2 N8 1_555 1_555
O3 N8 1_555 1_555
O4 H7 1_555 1_555
Cu1A N4 1_555 1_555
Cu1A_2 N7A 1_555 1_555
N1A H1A 1_555 1_555
H2A N1A 1_555 1_555
N2A N1A 1_555 1_555
N3A Cu1A 1_555 1_555
N3D Cu1 1_555 1_555
N4A Cu1 1_555 1_555
N4E Cu1 1_555 1_555
C1A N2A 1_555 1_555
H3A C1A 1_555 1_555
C2A N2A 1_555 1_555
H4A C2A 1_555 1_555
H5A N5 1_555 1_555
N7A N7 1_555 1_555
N7D Cu1 1_555 1_555
C3A N6 1_555 1_555
H6A C3A 1_555 1_555
H7A O4 1_555 1_555
N3 C1 1_555 1_555
N7 C3 1_555 1_555
N3A N4A 1_555 1_555
N3A C1A 1_555 1_555
N4A C2A 1_555 1_555
N7A C3A 1_555 1_555

#END
