
#######################################################################
#
#                 Cambridge Crystallographic Data Centre
#                                CCDC 
#
#######################################################################
#
# If this CIF has been generated from an entry in the Cambridge 
# Structural Database, then it will include bibliographic, chemical, 
# crystal, experimental, refinement or atomic coordinate data resulting 
# from the CCDC's data processing and validation procedures.
#
#######################################################################

data_BADRIH01
_symmetry_cell_setting           orthorhombic
_symmetry_space_group_name_H-M   'C c c m'
_symmetry_Int_Tables_number      66
_space_group_name_Hall           '-C 2 2n'
loop_
_symmetry_equiv_pos_site_id
_symmetry_equiv_pos_as_xyz
1 x,y,z
2 -x,-y,z
3 x,-y,1/2-z
4 -x,y,1/2-z
5 1/2+x,1/2+y,z
6 1/2-x,1/2-y,z
7 1/2+x,1/2-y,1/2-z
8 1/2-x,1/2+y,1/2-z
9 -x,-y,-z
10 x,y,-z
11 -x,y,1/2+z
12 x,-y,1/2+z
13 1/2-x,1/2-y,-z
14 1/2+x,1/2+y,-z
15 1/2-x,1/2+y,1/2+z
16 1/2+x,1/2-y,1/2+z
_cell_length_a                   9.9132(9)
_cell_length_b                   19.8182(18)
_cell_length_c                   8.0659(7)
_cell_angle_alpha                90
_cell_angle_beta                 90
_cell_angle_gamma                90
_cell_volume                     1584.64
loop_
_atom_site_label
_atom_site_type_symbol
_atom_site_fract_x
_atom_site_fract_y
_atom_site_fract_z
K1 K 0.25000 0.25000 0.24173(5)
S1 S 0.49356(4) 0.24282(3) 0.50000
S2 S 0.63424(6) 0.37639(3) 0.50000
O1 O 0.37019(15) 0.35505(9) 0.50000
C1 C 0.49555(18) 0.32857(11) 0.50000
C2 C 0.3545(3) 0.42823(15) 0.50000
C3 C 0.2073(4) 0.44331(19) 0.4583(7)
C4 C 0.1239(5) 0.4249(2) 0.6085(8)
C3I C 0.2073(4) 0.44331(19) 0.5417(7)
C4I C 0.1239(5) 0.4249(2) 0.3915(8)
K1I K 0.25000 0.25000 -0.24173(5)
K1I_2 K 0.25000 0.25000 0.75827(5)
S1C S 0.50644(4) 0.24282(3) 0.00000
S1E S 0.00644(4) 0.25718(3) 0.50000
S1F S -0.00644(4) 0.25718(3) 0.00000
S2C S 0.36576(6) 0.37639(3) 0.00000
S2F S 0.13424(6) 0.12361(3) 0.00000
O1E O 0.12981(15) 0.14495(9) 0.50000
K1C K 0.75000 0.25000 0.25827(5)
K1J K 0.75000 0.25000 0.74173(5)
loop_
_geom_bond_atom_site_label_1
_geom_bond_atom_site_label_2
_geom_bond_site_symmetry_1
_geom_bond_site_symmetry_2
K1 S1 1_555 1_555
S1 C1 1_555 1_555
S2 C1 1_555 1_555
O1 K1 1_555 1_555
C1 O1 1_555 1_555
C2 O1 1_555 1_555
C3 C2 1_555 1_555
C4 C3 1_555 1_555
C3I C2 1_555 1_555
C4I C3 1_555 1_555
K1I S1C 1_555 1_555
K1I_2 S1 1_555 1_555
S1C K1 1_555 1_555
S1E K1 1_555 1_555
S1F K1 1_555 1_555
S2C K1 1_555 1_555
S2F K1 1_555 1_555
O1E K1 1_555 1_555
K1C S1 1_555 1_555
K1J S1 1_555 1_555
S2 K1C 1_555 1_555
S2 K1J 1_555 1_555
O1 K1I_2 1_555 1_555
C3 C3I 1_555 1_555
C4 C3I 1_555 1_555
C4 C4I 1_555 1_555
C3I C4I 1_555 1_555
K1I S1F 1_555 1_555
K1I S2C 1_555 1_555
K1I S2F 1_555 1_555
K1I_2 S1E 1_555 1_555
K1I_2 O1E 1_555 1_555
S1C K1C 1_555 1_555

#END
