
#######################################################################
#
#                 Cambridge Crystallographic Data Centre
#                                CCDC 
#
#######################################################################
#
# If this CIF has been generated from an entry in the Cambridge 
# Structural Database, then it will include bibliographic, chemical, 
# crystal, experimental, refinement or atomic coordinate data resulting 
# from the CCDC's data processing and validation procedures.
#
#######################################################################

data_BADXEJ01
_symmetry_cell_setting           monoclinic
_symmetry_space_group_name_H-M   'P 21/m'
_symmetry_Int_Tables_number      11
_space_group_name_Hall           '-P 2yb'
loop_
_symmetry_equiv_pos_site_id
_symmetry_equiv_pos_as_xyz
1 x,y,z
2 -x,1/2+y,-z
3 -x,-y,-z
4 x,1/2-y,z
_cell_length_a                   3.9294(7)
_cell_length_b                   12.373(2)
_cell_length_c                   7.0498(13)
_cell_angle_alpha                90
_cell_angle_beta                 91.206(4)
_cell_angle_gamma                90
_cell_volume                     342.675
loop_
_atom_site_label
_atom_site_type_symbol
_atom_site_fract_x
_atom_site_fract_y
_atom_site_fract_z
Cu1 Cu -1.0000 0.5000 0.0000
Cl1 Cl -0.63430(14) 0.45022(4) 0.23441(8)
N1 N -1.1566(8) 0.2500 0.1361(5)
H1 H -1.228(7) 0.303(3) 0.170(4)
N2 N -0.9779(5) 0.34650(14) -0.1225(3)
C1 C -1.0360(7) 0.2500 -0.0374(4)
C2 C -0.8791(6) 0.34453(18) -0.3025(4)
H2 H -0.8429 0.4097 -0.3645
C3 C -0.8290(8) 0.2500 -0.3993(5)
H3 H -0.7638 0.2500 -0.5253
H1C H -1.228(7) 0.197(3) 0.170(4)
C2C C -0.8791(6) 0.15547(18) -0.3025(4)
N2C N -0.9779(5) 0.15350(14) -0.1225(3)
H2C H -0.8429 0.0903 -0.3645
Cl1B Cl -1.36570(14) 0.54978(4) -0.23441(8)
N2B N -1.0221(5) 0.65350(14) 0.1225(3)
Cu1C Cu -1.0000 0.0000 0.0000
loop_
_geom_bond_atom_site_label_1
_geom_bond_atom_site_label_2
_geom_bond_site_symmetry_1
_geom_bond_site_symmetry_2
Cu1 Cl1 1_555 1_555
N1 H1 1_555 1_555
N2 Cu1 1_555 1_555
C1 N1 1_555 1_555
C2 N2 1_555 1_555
H2 C2 1_555 1_555
C3 C2 1_555 1_555
H3 C3 1_555 1_555
H1C N1 1_555 1_555
C2C C3 1_555 1_555
N2C C1 1_555 1_555
H2C C2C 1_555 1_555
Cl1B Cu1 1_555 1_555
N2B Cu1 1_555 1_555
Cu1C N2C 1_555 1_555
N2 C1 1_555 1_555
C2C N2C 1_555 1_555

#END
