
#######################################################################
#
#                 Cambridge Crystallographic Data Centre
#                                CCDC 
#
#######################################################################
#
# If this CIF has been generated from an entry in the Cambridge 
# Structural Database, then it will include bibliographic, chemical, 
# crystal, experimental, refinement or atomic coordinate data resulting 
# from the CCDC's data processing and validation procedures.
#
#######################################################################

data_BAFBIT
_symmetry_cell_setting           monoclinic
_symmetry_space_group_name_H-M   'I 2/c'
_symmetry_Int_Tables_number      15
_space_group_name_Hall           '-I 2yc'
loop_
_symmetry_equiv_pos_site_id
_symmetry_equiv_pos_as_xyz
1 x,y,z
2 1/2+x,1/2+y,1/2+z
3 1/2-x,1/2+y,-z
4 -x,y,1/2-z
5 -x,-y,-z
6 1/2-x,1/2-y,1/2-z
7 1/2+x,1/2-y,z
8 x,-y,1/2+z
_cell_length_a                   23.052(5)
_cell_length_b                   13.840(2)
_cell_length_c                   6.441(1)
_cell_angle_alpha                90
_cell_angle_beta                 98.20(1)
_cell_angle_gamma                90
_cell_volume                     2033.93
loop_
_atom_site_label
_atom_site_type_symbol
_atom_site_fract_x
_atom_site_fract_y
_atom_site_fract_z
Mn1 Mn 0.50000 0.56100 0.25000
O1 O 0.54460 0.54430 -0.03600
N1 N 0.57540 0.67170 0.25820
C1 C 0.40460 0.58020 0.54210
C2 C 0.38990 0.66500 0.39510
C3 C 0.41460 0.74590 0.11160
O2 O 0.36960 0.55040 0.65330
C4 C 0.34680 0.73190 0.41480
Cl1 Cl 0.45970 0.75180 -0.08120
C5 C 0.37370 0.81780 0.12210
Cl2 Cl 0.30230 0.72650 0.60730
C6 C 0.33750 0.81170 0.27960
Cl3 Cl 0.36680 0.91470 -0.04520
N2 N 0.29650 0.88010 0.29580
H1 H 0.27910 0.87780 0.41560
H2 H 0.28970 0.91770 0.19570
O1C O 0.45540 0.54430 0.53600
N1C N 0.42460 0.67170 0.24180
O1D O 0.45540 0.45570 0.03600
O1G O 0.54460 0.45570 0.46400
Mn1D Mn 0.50000 0.43900 -0.25000
Mn1D_2 Mn 0.50000 0.43900 0.75000
C1G C 0.40460 0.41980 0.04210
N1D N 0.42460 0.32830 -0.25820
O2G O 0.36960 0.44960 0.15330
C2G C 0.38990 0.33500 -0.10490
C3G C 0.41460 0.25410 -0.38840
C4G C 0.34680 0.26810 -0.08520
Cl1G Cl 0.45970 0.24820 -0.58120
C5G C 0.37370 0.18220 -0.37790
Cl2G Cl 0.30230 0.27350 0.10730
C6G C 0.33750 0.18830 -0.22040
Cl3G Cl 0.36680 0.08530 -0.54520
N2G N 0.29650 0.11990 -0.20420
H2G H 0.28970 0.08230 -0.30430
H1G H 0.27910 0.12220 -0.08440
O3 O 0.27500 0.54630 -0.08650
H3 H 0.30050 0.59590 -0.06580
H4 H 0.30500 0.53400 0.01770
loop_
_geom_bond_atom_site_label_1
_geom_bond_atom_site_label_2
_geom_bond_site_symmetry_1
_geom_bond_site_symmetry_2
Mn1 O1 1_555 1_555
O1 Mn1D 1_555 1_555
N1 Mn1 1_555 1_555
C1 C2 1_555 1_555
C2 C4 1_555 1_555
C3 Cl1 1_555 1_555
O2 C1 1_555 1_555
C4 Cl2 1_555 1_555
C5 C3 1_555 1_555
C6 C4 1_555 1_555
Cl3 C5 1_555 1_555
N2 C6 1_555 1_555
H1 N2 1_555 1_555
H2 N2 1_555 1_555
O3 H3 1_555 1_555
H4 O3 1_555 1_555
O1C Mn1 1_555 1_555
N1C Mn1 1_555 1_555
O1D Mn1 1_555 1_555
O1G Mn1 1_555 1_555
Mn1D O1D 1_555 1_555
Mn1D_2 O1C 1_555 1_555
C1G O1D 1_555 1_555
N1D Mn1D 1_555 1_555
O2G C1G 1_555 1_555
C2G C1G 1_555 1_555
C3G N1D 1_555 1_555
C4G C2G 1_555 1_555
Cl1G C3G 1_555 1_555
C5G C3G 1_555 1_555
Cl2G C4G 1_555 1_555
C6G C4G 1_555 1_555
Cl3G C5G 1_555 1_555
N2G C6G 1_555 1_555
H2G N2G 1_555 1_555
H1G N2G 1_555 1_555
C1 O1C 1_555 1_555
C2 N1C 1_555 1_555
C3 N1C 1_555 1_555
C5 C6 1_555 1_555
O1G Mn1D_2 1_555 1_555
N1D C2G 1_555 1_555
C5G C6G 1_555 1_555

#END
