
#######################################################################
#
#                 Cambridge Crystallographic Data Centre
#                                CCDC 
#
#######################################################################
#
# If this CIF has been generated from an entry in the Cambridge 
# Structural Database, then it will include bibliographic, chemical, 
# crystal, experimental, refinement or atomic coordinate data resulting 
# from the CCDC's data processing and validation procedures.
#
#######################################################################

data_BAFJID
_symmetry_cell_setting           orthorhombic
_symmetry_space_group_name_H-M   'P b c a'
_symmetry_Int_Tables_number      61
_space_group_name_Hall           '-P 2ac 2ab'
loop_
_symmetry_equiv_pos_site_id
_symmetry_equiv_pos_as_xyz
1 x,y,z
2 1/2-x,-y,1/2+z
3 -x,1/2+y,1/2-z
4 1/2+x,1/2-y,-z
5 -x,-y,-z
6 1/2+x,y,1/2-z
7 x,1/2-y,1/2+z
8 1/2-x,1/2+y,z
_cell_length_a                   17.0961(19)
_cell_length_b                   8.902(2)
_cell_length_c                   20.622(5)
_cell_angle_alpha                90
_cell_angle_beta                 90
_cell_angle_gamma                90
_cell_volume                     3138.45
loop_
_atom_site_label
_atom_site_type_symbol
_atom_site_fract_x
_atom_site_fract_y
_atom_site_fract_z
Zn1 Zn 0.13748(2) -0.27698(5) 0.127150(19)
C1 C -0.0134(2) -0.7616(4) 0.30502(19)
C2 C 0.0619(2) -0.7413(4) 0.26733(17)
C3 C 0.1222(2) -0.8473(4) 0.27545(17)
H1 H 0.1150 -0.9257 0.3046
C4 C 0.1913(2) -0.8389(4) 0.24169(18)
H2 H 0.2302 -0.9111 0.2463
C5 C 0.20005(19) -0.7165(4) 0.20015(16)
C6 C 0.1417(2) -0.6057(4) 0.19455(16)
C7 C 0.0706(2) -0.6195(4) 0.22778(17)
H3 H 0.0310 -0.5486 0.2231
C8 C 0.0757(2) 0.0592(4) 0.1074(2)
H4 H 0.0677 0.0587 0.1520
C9 C 0.0596(2) 0.1908(4) 0.0728(2)
H5 H 0.0411 0.2757 0.0941
C10 C 0.0713(3) 0.1932(5) 0.0075(2)
H6 H 0.0604 0.2798 -0.0161
C11 C 0.0996(2) 0.0652(5) -0.0241(2)
C12 C 0.1122(3) 0.0571(6) -0.0930(2)
H7 H 0.1053 0.1425 -0.1183
C13 C 0.1338(3) -0.0720(6) -0.1209(2)
H8 H 0.1399 -0.0752 -0.1657
C14 C 0.1478(2) -0.2048(5) -0.08396(19)
C15 C 0.1686(3) -0.3431(6) -0.1114(2)
H9 H 0.1748 -0.3519 -0.1560
C16 C 0.1798(3) -0.4641(5) -0.0724(2)
H10 H 0.1932 -0.5566 -0.0901
C17 C 0.1712(3) -0.4486(5) -0.0053(2)
H11 H 0.1795 -0.5324 0.0207
C18 C 0.1389(2) -0.1998(4) -0.01586(18)
C19 C 0.1136(2) -0.0624(4) 0.01463(18)
N1 N 0.25864(17) -0.6763(3) 0.15750(14)
N2 N 0.23779(16) -0.5471(3) 0.12954(14)
N3 N 0.16859(16) -0.5003(3) 0.15138(14)
N4 N 0.10189(17) -0.0644(3) 0.07936(14)
N5 N 0.15169(17) -0.3191(4) 0.02321(15)
O1 O -0.07518(16) -0.7082(3) 0.28305(15)
O2 O -0.01092(18) -0.8299(3) 0.35829(13)
Zn1G Zn 0.36252(2) -0.77698(5) 0.127150(19)
Zn1B Zn -0.13748(2) -0.77698(5) 0.372850(19)
N1G N 0.24136(17) -0.1763(3) 0.15750(14)
O1B O 0.07518(16) -0.2082(3) 0.21695(15)
O2B O 0.01092(18) -0.3299(3) 0.14171(13)
loop_
_geom_bond_atom_site_label_1
_geom_bond_atom_site_label_2
_geom_bond_site_symmetry_1
_geom_bond_site_symmetry_2
Zn1 N3 1_555 1_555
C1 C2 1_555 1_555
C2 C3 1_555 1_555
C3 H1 1_555 1_555
C4 C3 1_555 1_555
H2 C4 1_555 1_555
C5 C4 1_555 1_555
C6 C5 1_555 1_555
C7 C2 1_555 1_555
H3 C7 1_555 1_555
C8 H4 1_555 1_555
C9 C8 1_555 1_555
H5 C9 1_555 1_555
C10 C9 1_555 1_555
H6 C10 1_555 1_555
C11 C10 1_555 1_555
C12 C11 1_555 1_555
H7 C12 1_555 1_555
C13 C12 1_555 1_555
H8 C13 1_555 1_555
C14 C13 1_555 1_555
C15 C14 1_555 1_555
H9 C15 1_555 1_555
C16 C15 1_555 1_555
H10 C16 1_555 1_555
C17 C16 1_555 1_555
H11 C17 1_555 1_555
C18 C14 1_555 1_555
C19 C11 1_555 1_555
N1 C5 1_555 1_555
N2 N1 1_555 1_555
N3 C6 1_555 1_555
N4 Zn1 1_555 1_555
N5 Zn1 1_555 1_555
O1 C1 1_555 1_555
O2 C1 1_555 1_555
Zn1G N1 1_555 1_555
Zn1B O1 1_555 1_555
N1G Zn1 1_555 1_555
O1B Zn1 1_555 1_555
O2B Zn1 1_555 1_555
C6 C7 1_555 1_555
C8 N4 1_555 1_555
C17 N5 1_555 1_555
C18 C19 1_555 1_555
C18 N5 1_555 1_555
C19 N4 1_555 1_555
N2 N3 1_555 1_555
O2 Zn1B 1_555 1_555

#END
