
#######################################################################
#
#                 Cambridge Crystallographic Data Centre
#                                CCDC 
#
#######################################################################
#
# If this CIF has been generated from an entry in the Cambridge 
# Structural Database, then it will include bibliographic, chemical, 
# crystal, experimental, refinement or atomic coordinate data resulting 
# from the CCDC's data processing and validation procedures.
#
#######################################################################

data_BAFJOJ
_symmetry_cell_setting           monoclinic
_symmetry_space_group_name_H-M   'P 21/n'
_symmetry_Int_Tables_number      14
_space_group_name_Hall           '-P 2yn'
loop_
_symmetry_equiv_pos_site_id
_symmetry_equiv_pos_as_xyz
1 x,y,z
2 1/2-x,1/2+y,1/2-z
3 -x,-y,-z
4 1/2+x,1/2-y,1/2+z
_cell_length_a                   10.967(5)
_cell_length_b                   15.658(8)
_cell_length_c                   13.300(7)
_cell_angle_alpha                90
_cell_angle_beta                 90.719(7)
_cell_angle_gamma                90
_cell_volume                     2283.71
loop_
_atom_site_label
_atom_site_type_symbol
_atom_site_fract_x
_atom_site_fract_y
_atom_site_fract_z
Zn1 Zn -0.26933(11) 0.17105(7) -0.48428(9)
I1 I -0.05983(7) 0.11891(5) 0.16265(6)
I2 I -0.31725(7) -0.05087(4) -0.19026(6)
I3 I 0.01470(7) 0.25399(4) -0.25578(5)
C1 C 0.0516(11) 0.2329(6) -0.0182(9)
C2 C -0.0391(10) 0.1674(6) -0.0584(8)
C3 C -0.0928(10) 0.1093(6) 0.0061(7)
C4 C -0.1695(11) 0.0422(6) -0.0281(10)
C5 C -0.1976(9) 0.0424(6) -0.1322(8)
C6 C -0.1487(9) 0.1039(6) -0.1996(8)
C7 C -0.0672(9) 0.1642(6) -0.1585(7)
C8 C -0.1815(9) 0.1034(6) -0.3104(7)
C9 C -0.3949(10) 0.0313(7) -0.5942(9)
H1 H -0.4643 0.0610 -0.5750
C10 C -0.4093(12) -0.0463(7) -0.6411(11)
H2 H -0.4865 -0.0684 -0.6545
C11 C -0.3049(12) -0.0907(7) -0.6677(10)
H3 H -0.3114 -0.1449 -0.6958
C12 C -0.1931(11) -0.0550(7) -0.6529(9)
H4 H -0.1232 -0.0829 -0.6742
C13 C -0.1848(10) 0.0242(6) -0.6050(7)
C14 C -0.0240(10) 0.1380(6) -0.5689(9)
C15 C 0.1014(11) 0.1534(8) -0.5841(9)
H5 H 0.1535 0.1092 -0.6020
C16 C 0.1436(12) 0.2335(8) -0.5719(10)
H6 H 0.2251 0.2453 -0.5847
C17 C 0.0671(13) 0.2990(8) -0.5405(12)
H7 H 0.0966 0.3540 -0.5302
C18 C -0.0520(12) 0.2797(7) -0.5253(10)
H8 H -0.1046 0.3233 -0.5064
N1 N -0.2208(9) -0.0179(6) 0.0347(7)
H9 H -0.2702 -0.0555 0.0106
H10 H -0.2033 -0.0176 0.0980
N2 N -0.2841(8) 0.0670(5) -0.5745(7)
N3 N -0.0676(9) 0.0574(5) -0.5927(7)
H11 H -0.0109 0.0203 -0.6017
N4 N -0.0976(8) 0.1994(5) -0.5367(7)
O1 O 0.1623(7) 0.2106(4) -0.0147(6)
O2 O 0.0151(8) 0.3059(4) 0.0065(7)
O3 O -0.1227(7) 0.0564(4) -0.3664(5)
O4 O -0.2630(7) 0.1554(4) -0.3363(6)
Zn1C Zn 0.23067(11) 0.32895(7) 0.01572(9)
O1C O -0.3377(7) 0.2894(4) -0.5147(6)
O2C O -0.4849(8) 0.1941(4) -0.4935(7)
loop_
_geom_bond_atom_site_label_1
_geom_bond_atom_site_label_2
_geom_bond_site_symmetry_1
_geom_bond_site_symmetry_2
Zn1 N2 1_555 1_555
I1 C3 1_555 1_555
I2 C5 1_555 1_555
I3 C7 1_555 1_555
C1 C2 1_555 1_555
C2 C3 1_555 1_555
C3 C4 1_555 1_555
C4 C5 1_555 1_555
C5 C6 1_555 1_555
C6 C7 1_555 1_555
C7 C2 1_555 1_555
C8 C6 1_555 1_555
C9 H1 1_555 1_555
C10 C9 1_555 1_555
H2 C10 1_555 1_555
C11 C10 1_555 1_555
H3 C11 1_555 1_555
C12 C11 1_555 1_555
H4 C12 1_555 1_555
C13 C12 1_555 1_555
C14 C15 1_555 1_555
C15 H5 1_555 1_555
C16 C15 1_555 1_555
H6 C16 1_555 1_555
C17 C16 1_555 1_555
H7 C17 1_555 1_555
C18 C17 1_555 1_555
H8 C18 1_555 1_555
N1 C4 1_555 1_555
H9 N1 1_555 1_555
H10 N1 1_555 1_555
N2 C9 1_555 1_555
N3 C13 1_555 1_555
H11 N3 1_555 1_555
N4 Zn1 1_555 1_555
O1 C1 1_555 1_555
O2 C1 1_555 1_555
O3 C8 1_555 1_555
O4 Zn1 1_555 1_555
Zn1C O1 1_555 1_555
O1C Zn1 1_555 1_555
O2C Zn1 1_555 1_555
C8 O4 1_555 1_555
C13 N2 1_555 1_555
C14 N3 1_555 1_555
C14 N4 1_555 1_555
C18 N4 1_555 1_555
O2 Zn1C 1_555 1_555

#END
