
#######################################################################
#
#                 Cambridge Crystallographic Data Centre
#                                CCDC 
#
#######################################################################
#
# If this CIF has been generated from an entry in the Cambridge 
# Structural Database, then it will include bibliographic, chemical, 
# crystal, experimental, refinement or atomic coordinate data resulting 
# from the CCDC's data processing and validation procedures.
#
#######################################################################

data_BAFQOQ
_symmetry_cell_setting           monoclinic
_symmetry_space_group_name_H-M   'P 21/c'
_symmetry_Int_Tables_number      14
_space_group_name_Hall           '-P 2ybc'
loop_
_symmetry_equiv_pos_site_id
_symmetry_equiv_pos_as_xyz
1 x,y,z
2 -x,1/2+y,1/2-z
3 -x,-y,-z
4 x,1/2-y,1/2+z
_cell_length_a                   14.018(3)
_cell_length_b                   17.427(3)
_cell_length_c                   10.639(2)
_cell_angle_alpha                90
_cell_angle_beta                 100.108(4)
_cell_angle_gamma                90
_cell_volume                     2558.68
loop_
_atom_site_label
_atom_site_type_symbol
_atom_site_fract_x
_atom_site_fract_y
_atom_site_fract_z
N1 N -0.0411(6) 1.6596(5) 0.3172(8)
La1 La -0.38748(3) 1.26597(2) 0.30324(4)
La2 La 0.11617(3) 1.72986(2) 0.29100(4)
C1 C -0.1847(7) 1.5854(6) 0.0094(9)
C2 C -0.1361(7) 1.5175(5) -0.0196(9)
H1 H -0.0772 1.5201 -0.0482
C3 C -0.1795(7) 1.4475(5) -0.0037(8)
C4 C -0.2703(7) 1.4450(5) 0.0400(9)
C5 C -0.3184(7) 1.5115(5) 0.0675(9)
H2 H -0.3777 1.5092 0.0952
C6 C -0.2730(7) 1.5821(5) 0.0514(9)
C7 C -0.2346(7) 1.7022(6) 0.0442(10)
H3 H -0.2354 1.7555 0.0497
C8 C -0.1267(7) 1.3758(5) -0.0254(9)
C9 C -0.3207(7) 1.3668(5) 0.0467(9)
C10 C -0.0332(7) 1.4426(5) 0.3347(9)
C11 C 0.0032(7) 1.5168(5) 0.3160(8)
H4 H 0.0645 1.5232 0.2953
C12 C -0.0564(7) 1.5810(5) 0.3295(8)
C13 C -0.1486(7) 1.5702(5) 0.3634(9)
C14 C -0.1844(7) 1.4983(5) 0.3839(8)
H5 H -0.2455 1.4922 0.4053
C15 C -0.1256(7) 1.4352(5) 0.3714(8)
C16 C -0.1189(7) 1.6949(5) 0.3417(9)
H6 H -0.1275 1.7478 0.3406
C17 C 0.0304(7) 1.3745(5) 0.3191(9)
C18 C -0.1613(7) 1.3575(5) 0.4090(8)
C19 C -0.5573(7) 1.4259(5) 0.2918(9)
C20 C -0.4922(7) 1.4876(5) 0.3150(8)
H7 H -0.4267 1.4805 0.3128
C21 C -0.5270(7) 1.5587(5) 0.3410(8)
C22 C -0.6282(7) 1.5686(5) 0.3491(8)
C23 C -0.6947(7) 1.5087(5) 0.3262(8)
H8 H -0.7600 1.5155 0.3293
C24 C -0.6571(7) 1.4381(6) 0.2985(9)
C25 C -0.6299(7) 1.3168(6) 0.2549(9)
H9 H -0.6415 1.2653 0.2349
C26 C -0.4626(7) 1.6288(6) 0.3580(9)
C27 C -0.6618(6) 1.6431(5) 0.4005(8)
N2 N -0.1626(7) 1.6622(5) 0.0092(9)
H10 H -0.1106 1.6813 -0.0104
N3 N -0.3049(7) 1.6573(5) 0.0703(8)
N4 N -0.1837(6) 1.6438(4) 0.3685(8)
H11 H -0.2395 1.6553 0.3864
N5 N -0.5429(6) 1.3497(5) 0.2662(8)
N6 N -0.6983(6) 1.3660(5) 0.2755(8)
H12 H -0.7581 1.3549 0.2747
O1 O -0.1034(5) 1.3299(4) 0.0686(6)
O2 O -0.1034(5) 1.3647(4) -0.1338(6)
O3 O -0.3702(5) 1.3552(4) 0.1351(6)
O4 O -0.3089(5) 1.3205(4) -0.0406(6)
O5 O -0.0050(5) 1.3080(4) 0.3338(6)
O6 O 0.1099(5) 1.3860(5) 0.2870(9)
O7 O -0.1470(5) 1.3446(4) 0.5264(6)
O8 O -0.2095(4) 1.3114(4) 0.3251(6)
O9 O -0.3735(5) 1.6208(4) 0.3861(8)
O10 O -0.5056(5) 1.6943(4) 0.3440(6)
O11 O -0.7129(4) 1.6905(4) 0.3230(5)
O12 O -0.6425(5) 1.6506(4) 0.5198(6)
O13 O -0.5053(5) 1.2093(5) 0.4222(7)
H13 H -0.4926 1.1670 0.4614
H14 H -0.5588 1.2319 0.4241
La1C La -0.38748(3) 1.23403(2) -0.19676(4)
La1A La -0.61252(3) 1.76597(2) 0.19676(4)
La1B La -0.61252(3) 1.73403(2) 0.69676(4)
La2A La -0.11617(3) 1.22986(2) 0.20900(4)
La2B La -0.11617(3) 1.27014(2) -0.29100(4)
La2B_2 La -0.11617(3) 1.27014(2) 0.70900(4)
La2_2 La -0.88383(3) 1.72986(2) 0.29100(4)
O1A O 0.1034(5) 1.8299(4) 0.4314(6)
O2B O 0.1034(5) 1.6353(4) 0.1338(6)
O4C O -0.3089(5) 1.1795(4) 0.4594(6)
O5A O 0.0050(5) 1.8080(4) 0.1662(6)
O7B O 0.1470(5) 1.6554(4) 0.4736(6)
O8A O 0.2095(4) 1.8114(4) 0.1749(6)
O10A O -0.4944(5) 1.1943(4) 0.1560(6)
O11A O -0.2871(4) 1.1905(4) 0.1770(5)
O11_2 O 0.2871(4) 1.6905(4) 0.3230(5)
O12B O -0.3575(5) 1.3494(4) 0.4802(6)
loop_
_geom_bond_atom_site_label_1
_geom_bond_atom_site_label_2
_geom_bond_site_symmetry_1
_geom_bond_site_symmetry_2
N1 La2 1_555 1_555
La1 N5 1_555 1_555
La2 O1A 1_555 1_555
C1 C2 1_555 1_555
C2 H1 1_555 1_555
C3 C2 1_555 1_555
C4 C3 1_555 1_555
C5 C4 1_555 1_555
H2 C5 1_555 1_555
C6 C1 1_555 1_555
C7 H3 1_555 1_555
C8 C3 1_555 1_555
C9 C4 1_555 1_555
C10 C11 1_555 1_555
C11 H4 1_555 1_555
C12 N1 1_555 1_555
C13 C12 1_555 1_555
C14 C13 1_555 1_555
H5 C14 1_555 1_555
C15 C10 1_555 1_555
C16 N1 1_555 1_555
H6 C16 1_555 1_555
C17 C10 1_555 1_555
C18 C15 1_555 1_555
C19 C20 1_555 1_555
C20 H7 1_555 1_555
C21 C20 1_555 1_555
C22 C21 1_555 1_555
C23 C22 1_555 1_555
H8 C23 1_555 1_555
C24 C19 1_555 1_555
C25 H9 1_555 1_555
C26 C21 1_555 1_555
C27 C22 1_555 1_555
N2 C1 1_555 1_555
H10 N2 1_555 1_555
N3 C6 1_555 1_555
N4 C13 1_555 1_555
H11 N4 1_555 1_555
N5 C19 1_555 1_555
N6 C24 1_555 1_555
H12 N6 1_555 1_555
O1 C8 1_555 1_555
O2 C8 1_555 1_555
O3 La1 1_555 1_555
O4 C9 1_555 1_555
O5 C17 1_555 1_555
O6 C17 1_555 1_555
O7 C18 1_555 1_555
O8 La1 1_555 1_555
O9 C26 1_555 1_555
O10 C26 1_555 1_555
O11 C27 1_555 1_555
O12 C27 1_555 1_555
O13 La1 1_555 1_555
H13 O13 1_555 1_555
H14 O13 1_555 1_555
La1C O4 1_555 1_555
La1A O10 1_555 1_555
La1B O12 1_555 1_555
La2A O1 1_555 1_555
La2B O2 1_555 1_555
La2B_2 O7 1_555 1_555
La2_2 O11 1_555 1_555
O2B La2 1_555 1_555
O4C La1 1_555 1_555
O5A La2 1_555 1_555
O7B La2 1_555 1_555
O8A La2 1_555 1_555
O10A La1 1_555 1_555
O11A La1 1_555 1_555
O11_2 La2 1_555 1_555
O12B La1 1_555 1_555
C5 C6 1_555 1_555
C7 N2 1_555 1_555
C7 N3 1_555 1_555
C9 O3 1_555 1_555
C11 C12 1_555 1_555
C14 C15 1_555 1_555
C16 N4 1_555 1_555
C18 O8 1_555 1_555
C23 C24 1_555 1_555
C25 N5 1_555 1_555
C25 N6 1_555 1_555
O5 La2A 1_555 1_555
O8 La2A 1_555 1_555
O11 La1A 1_555 1_555
La2A O11A 1_555 1_555

#END
