
#######################################################################
#
#                 Cambridge Crystallographic Data Centre
#                                CCDC 
#
#######################################################################
#
# If this CIF has been generated from an entry in the Cambridge 
# Structural Database, then it will include bibliographic, chemical, 
# crystal, experimental, refinement or atomic coordinate data resulting 
# from the CCDC's data processing and validation procedures.
#
#######################################################################

data_BAFVIP
_symmetry_cell_setting           monoclinic
_symmetry_space_group_name_H-M   'P 21/c'
_symmetry_Int_Tables_number      14
_space_group_name_Hall           '-P 2ybc'
loop_
_symmetry_equiv_pos_site_id
_symmetry_equiv_pos_as_xyz
1 x,y,z
2 -x,1/2+y,1/2-z
3 -x,-y,-z
4 x,1/2-y,1/2+z
_cell_length_a                   12.0205(3)
_cell_length_b                   18.3252(4)
_cell_length_c                   9.7499(2)
_cell_angle_alpha                90
_cell_angle_beta                 96.752(1)
_cell_angle_gamma                90
_cell_volume                     2132.79
loop_
_atom_site_label
_atom_site_type_symbol
_atom_site_fract_x
_atom_site_fract_y
_atom_site_fract_z
Cd1 Cd 0.15933(2) 0.050259(14) 0.56416(3)
N1 N 0.2626(3) 0.13656(18) 0.4524(3)
N2 N 0.3312(3) 0.2024(2) 0.2872(4)
N3 N 0.3806(3) 0.22132(18) 0.4159(4)
N4 N 1.0480(3) 0.35921(18) 0.1328(3)
N5 N 0.9225(3) 0.27455(18) 0.1329(4)
N6 N 0.9859(3) 0.2688(2) 0.2570(4)
O1 O 0.3208(3) -0.00911(16) 0.6673(3)
O2 O 0.2684(3) 0.08427(19) 0.7834(3)
O3 O 0.0405(3) -0.03912(16) 0.6414(3)
O4 O -0.1361(3) -0.00231(18) 0.6471(3)
C1 C 0.3293(4) 0.0310(2) 0.7719(4)
C2 C 0.5126(4) -0.0271(2) 0.8690(4)
H1 H 0.5212 -0.0453 0.7819
C3 C 0.4179(3) 0.0137(2) 0.8892(4)
C4 C 0.4067(4) 0.0404(2) 1.0216(5)
H2 H 0.3437 0.0675 1.0358
C5 C -0.0399(4) -0.0167(2) 0.7040(4)
C6 C -0.1044(4) 0.0178(2) 0.9295(4)
H3 H -0.1739 0.0298 0.8827
C7 C -0.0188(3) -0.0070(2) 0.8569(4)
C8 C 0.0854(4) -0.0246(2) 0.9274(4)
H4 H 0.1425 -0.0410 0.8786
C9 C 0.2615(4) 0.1515(3) 0.3167(5)
H5 H 0.2145 0.1273 0.2489
C10 C 0.3377(3) 0.1826(2) 0.5095(4)
H6 H 0.3579 0.1871 0.6042
C11 C 0.4657(4) 0.2787(2) 0.4327(5)
H7 H 0.4958 0.2819 0.5293
H8 H 0.4311 0.3251 0.4059
C12 C 0.5603(3) 0.2647(2) 0.3472(4)
C13 C 0.6045(4) 0.1957(2) 0.3341(4)
H9 H 0.5753 0.1566 0.3789
C14 C 0.6908(4) 0.1841(2) 0.2561(4)
H10 H 0.7194 0.1373 0.2485
C15 C 0.7356(3) 0.2418(2) 0.1885(5)
C16 C 0.6931(4) 0.3105(2) 0.2036(5)
H11 H 0.7237 0.3499 0.1610
C17 C 0.6062(4) 0.3219(2) 0.2805(4)
H12 H 0.5778 0.3688 0.2879
C18 C 0.8273(3) 0.2272(2) 0.0989(5)
H13 H 0.8513 0.1768 0.1103
H14 H 0.7981 0.2343 0.0028
C19 C 1.0595(4) 0.3204(3) 0.2505(5)
H15 H 1.1160 0.3296 0.3220
C20 C 0.9593(3) 0.3283(2) 0.0617(4)
H16 H 0.9278 0.3427 -0.0258
Cd1C Cd -0.84067(2) 0.449741(14) 1.06416(3)
Cd1C_2 Cd 1.15933(2) 0.449741(14) 0.06416(3)
Cd1B Cd -0.15933(2) -0.050259(14) 0.43584(3)
Cd1B_2 Cd 0.84067(2) -0.050259(14) 1.43584(3)
Cd1B_3 Cd -0.15933(2) -0.050259(14) 1.43584(3)
Cd1_2 Cd 0.15933(2) 0.050259(14) 1.56416(3)
N1C N -0.7374(3) 0.36344(18) 0.9524(3)
N2C N -0.6688(3) 0.2976(2) 0.7872(4)
N3C N -0.6194(3) 0.27868(18) 0.9159(4)
N4C N 0.0480(3) 0.14079(18) 0.6328(3)
N4_2 N -0.9520(3) 0.35921(18) 1.1328(3)
N5C N -0.0775(3) 0.22545(18) 0.6329(4)
N6C N -0.0141(3) 0.2312(2) 0.7570(4)
O1B O 0.6792(3) 0.00911(16) 1.3327(3)
O1C O -0.6792(3) 0.50911(16) 1.1673(3)
O2B O 0.7316(3) -0.08427(19) 1.2166(3)
O2C O -0.7316(3) 0.41573(19) 1.2834(3)
O3B O -0.0405(3) 0.03912(16) 1.3586(3)
O3C O -0.9595(3) 0.53912(16) 1.1414(3)
O4B O 0.1361(3) 0.00231(18) 1.3529(3)
O4B_2 O 0.1361(3) 0.00231(18) 0.3529(3)
O4A O -0.8639(3) 0.49769(18) 0.8529(3)
C1B C 0.6707(4) -0.0310(2) 1.2281(4)
C2B C 0.4874(4) 0.0271(2) 1.1310(4)
H1B H 0.4788 0.0453 1.2181
C3B C 0.5821(3) -0.0137(2) 1.1108(4)
C4B C 0.5933(4) -0.0404(2) 0.9784(5)
H2B H 0.6563 -0.0675 0.9642
C5B C 0.0399(4) 0.0167(2) 1.2960(4)
C6B C 0.1044(4) -0.0178(2) 1.0705(4)
H3B H 0.1739 -0.0298 1.1173
C7B C 0.0188(3) 0.0070(2) 1.1431(4)
C8B C -0.0854(4) 0.0246(2) 1.0726(4)
H4B H -0.1425 0.0410 1.1214
C9C C -0.7385(4) 0.3485(3) 0.8167(5)
H5C H -0.7855 0.3727 0.7489
C10C C -0.6623(3) 0.3174(2) 1.0095(4)
H6C H -0.6421 0.3129 1.1042
C11C C -0.5343(4) 0.2213(2) 0.9327(5)
H7C H -0.5042 0.2181 1.0293
H8C H -0.5689 0.1749 0.9059
C12C C -0.4397(3) 0.2353(2) 0.8472(4)
C13C C -0.3955(4) 0.3043(2) 0.8341(4)
H9C H -0.4247 0.3434 0.8789
C14C C -0.3092(4) 0.3159(2) 0.7561(4)
H10C H -0.2806 0.3627 0.7485
C15C C -0.2644(3) 0.2582(2) 0.6885(5)
C16C C -0.3069(4) 0.1895(2) 0.7036(5)
H11C H -0.2763 0.1501 0.6610
C17C C -0.3938(4) 0.1781(2) 0.7805(4)
H12C H -0.4222 0.1312 0.7879
C18C C -0.1727(3) 0.2728(2) 0.5989(5)
H13C H -0.1487 0.3232 0.6103
H14C H -0.2019 0.2657 0.5028
C19C C 0.0595(4) 0.1796(3) 0.7505(5)
H15C H 0.1160 0.1704 0.8220
C20C C -0.0407(3) 0.1717(2) 0.5617(4)
H16C H -0.0722 0.1573 0.4742
O5 O 0.5206(16) 0.0478(6) 0.522(2)
H17? H 0.484(14) 0.043(9) 0.475(17)
H18? H 0.567(11) 0.038(10) 0.571(16)
loop_
_geom_bond_atom_site_label_1
_geom_bond_atom_site_label_2
_geom_bond_site_symmetry_1
_geom_bond_site_symmetry_2
Cd1 N1 1_555 1_555
N1 C9 1_555 1_555
N2 N3 1_555 1_555
N3 C10 1_555 1_555
N4 C19 1_555 1_555
N5 N6 1_555 1_555
N6 C19 1_555 1_555
O1 Cd1 1_555 1_555
O2 Cd1 1_555 1_555
O3 Cd1 1_555 1_555
O4 C5 1_555 1_555
C1 O1 1_555 1_555
C2 H1 1_555 1_555
C3 C1 1_555 1_555
C4 C3 1_555 1_555
H2 C4 1_555 1_555
C5 O3 1_555 1_555
C6 H3 1_555 1_555
C7 C5 1_555 1_555
C8 C7 1_555 1_555
H4 C8 1_555 1_555
C9 N2 1_555 1_555
H5 C9 1_555 1_555
C10 N1 1_555 1_555
H6 C10 1_555 1_555
C11 N3 1_555 1_555
H7 C11 1_555 1_555
H8 C11 1_555 1_555
C12 C11 1_555 1_555
C13 C12 1_555 1_555
H9 C13 1_555 1_555
C14 C13 1_555 1_555
H10 C14 1_555 1_555
C15 C14 1_555 1_555
C16 C15 1_555 1_555
H11 C16 1_555 1_555
C17 C12 1_555 1_555
H12 C17 1_555 1_555
C18 N5 1_555 1_555
H13 C18 1_555 1_555
H14 C18 1_555 1_555
C19 H15 1_555 1_555
C20 N4 1_555 1_555
H16 C20 1_555 1_555
Cd1C N1C 1_555 1_555
Cd1C_2 N4 1_555 1_555
Cd1B O4 1_555 1_555
Cd1B_2 O1B 1_555 1_555
Cd1B_3 O3B 1_555 1_555
Cd1_2 O4B 1_555 1_555
N1C C9C 1_555 1_555
N2C N3C 1_555 1_555
N3C C10C 1_555 1_555
N4C Cd1 1_555 1_555
N4_2 Cd1C 1_555 1_555
N5C N6C 1_555 1_555
N6C C19C 1_555 1_555
O1B C1B 1_555 1_555
O1C Cd1C 1_555 1_555
O2B Cd1B_2 1_555 1_555
O2C Cd1C 1_555 1_555
O3B C5B 1_555 1_555
O3C Cd1C 1_555 1_555
O4B C5B 1_555 1_555
O4B_2 Cd1 1_555 1_555
O4A Cd1C 1_555 1_555
C1B O2B 1_555 1_555
C2B C4 1_555 1_555
H1B C2B 1_555 1_555
C3B C1B 1_555 1_555
C4B C2 1_555 1_555
H2B C4B 1_555 1_555
C5B C7B 1_555 1_555
C6B C8 1_555 1_555
H3B C6B 1_555 1_555
C7B C6B 1_555 1_555
C8B C6 1_555 1_555
H4B C8B 1_555 1_555
C9C N2C 1_555 1_555
H5C C9C 1_555 1_555
C10C N1C 1_555 1_555
H6C C10C 1_555 1_555
C11C N3C 1_555 1_555
H7C C11C 1_555 1_555
H8C C11C 1_555 1_555
C12C C11C 1_555 1_555
C13C C12C 1_555 1_555
H9C C13C 1_555 1_555
C14C C13C 1_555 1_555
H10C C14C 1_555 1_555
C15C C14C 1_555 1_555
C16C C15C 1_555 1_555
H11C C16C 1_555 1_555
C17C C12C 1_555 1_555
H12C C17C 1_555 1_555
C18C N5C 1_555 1_555
H13C C18C 1_555 1_555
H14C C18C 1_555 1_555
C19C N4C 1_555 1_555
H15C C19C 1_555 1_555
C20C N4C 1_555 1_555
H16C C20C 1_555 1_555
N5 C20 1_555 1_555
O2 C1 1_555 1_555
C2 C3 1_555 1_555
C6 C7 1_555 1_555
C15 C18 1_555 1_555
C16 C17 1_555 1_555
N5C C20C 1_555 1_555
C2B C3B 1_555 1_555
C3B C4B 1_555 1_555
C7B C8B 1_555 1_555
C15C C18C 1_555 1_555
C16C C17C 1_555 1_555

#END
