
#######################################################################
#
#                 Cambridge Crystallographic Data Centre
#                                CCDC 
#
#######################################################################
#
# If this CIF has been generated from an entry in the Cambridge 
# Structural Database, then it will include bibliographic, chemical, 
# crystal, experimental, refinement or atomic coordinate data resulting 
# from the CCDC's data processing and validation procedures.
#
#######################################################################

data_BAGFUM
_symmetry_cell_setting           triclinic
_symmetry_space_group_name_H-M   'P -1'
_symmetry_Int_Tables_number      2
_space_group_name_Hall           '-P 1'
loop_
_symmetry_equiv_pos_site_id
_symmetry_equiv_pos_as_xyz
1 x,y,z
2 -x,-y,-z
_cell_length_a                   10.728(2)
_cell_length_b                   15.002(3)
_cell_length_c                   15.860(3)
_cell_angle_alpha                68.321(3)
_cell_angle_beta                 82.549(4)
_cell_angle_gamma                85.492(4)
_cell_volume                     2350.65
loop_
_atom_site_label
_atom_site_type_symbol
_atom_site_fract_x
_atom_site_fract_y
_atom_site_fract_z
Rh1 Rh 0.02054(4) -0.04977(3) 0.07576(3)
Rh2 Rh -0.02655(4) 0.04754(3) -0.45358(3)
O1 O -0.1651(3) -0.0326(3) 0.1173(2)
O2 O 0.2009(3) -0.0639(2) 0.0255(2)
O3 O 0.0591(3) 0.0719(2) 0.0948(2)
O4 O -0.0221(3) -0.1653(2) 0.0484(2)
O5 O 0.1723(3) 0.0389(3) -0.6098(2)
O6 O 0.1214(3) 0.1304(3) -0.5236(2)
O7 O -0.0802(3) 0.0487(3) -0.6397(2)
O8 O -0.1305(3) 0.1376(3) -0.5513(2)
N1 N -0.0734(4) 0.1352(3) -0.2149(3)
N2 N -0.0791(4) 0.1317(3) -0.3630(3)
C1 C -0.2368(5) 0.0180(4) 0.0580(3)
C2 C -0.3733(5) 0.0236(4) 0.0870(3)
C3 C -0.4256(5) -0.0449(4) 0.1678(4)
H1 H -0.3727 -0.0922 0.2062
C4 C -0.5543(5) -0.0443(5) 0.1925(4)
H2 H -0.5898 -0.0919 0.2469
C5 C -0.6310(5) 0.0257(5) 0.1375(4)
H3 H -0.7193 0.0259 0.1542
C6 C -0.5798(5) 0.0949(4) 0.0590(4)
H4 H -0.6329 0.1437 0.0224
C7 C -0.4519(5) 0.0942(4) 0.0327(4)
H5 H -0.4175 0.1417 -0.0222
C8 C 0.0529(4) 0.1524(4) 0.0300(3)
C9 C 0.0840(5) 0.2388(4) 0.0469(4)
C10 C 0.1185(5) 0.2313(4) 0.1306(4)
H6 H 0.1251 0.1701 0.1776
C11 C 0.1434(5) 0.3132(4) 0.1460(4)
H7 H 0.1658 0.3080 0.2037
C12 C 0.1358(5) 0.4025(4) 0.0772(4)
H8 H 0.1539 0.4585 0.0874
C13 C 0.1016(5) 0.4100(4) -0.0065(4)
H9 H 0.0969 0.4711 -0.0540
C14 C 0.0746(5) 0.3292(4) -0.0209(4)
H10 H 0.0491 0.3351 -0.0780
C15 C 0.1867(5) 0.1109(4) -0.5882(4)
C16 C -0.2849(5) -0.1790(4) -0.3551(4)
C17 C -0.3571(5) -0.1630(4) -0.2834(4)
H11 H -0.3479 -0.1057 -0.2726
C18 C -0.4428(6) -0.2293(5) -0.2269(4)
H12 H -0.4928 -0.2175 -0.1778
C19 C -0.4551(6) -0.3131(5) -0.2423(5)
H13 H -0.5119 -0.3599 -0.2025
C20 C -0.3850(6) -0.3291(5) -0.3155(4)
H14 H -0.3949 -0.3859 -0.3269
C21 C -0.3012(5) -0.2622(4) -0.3710(4)
H15 H -0.2534 -0.2728 -0.4214
C22 C -0.1281(5) 0.1236(4) -0.6247(4)
C23 C 0.1766(5) -0.2009(4) -0.2960(4)
C24 C 0.1867(5) -0.1848(5) -0.2150(4)
H16 H 0.1718 -0.1224 -0.2129
C25 C 0.2189(5) -0.2617(5) -0.1380(4)
H17 H 0.2266 -0.2510 -0.0835
C26 C 0.2392(6) -0.3502(5) -0.1396(5)
H18 H 0.2593 -0.4018 -0.0860
C27 C 0.2309(7) -0.3676(5) -0.2205(5)
H19 H 0.2476 -0.4304 -0.2213
C28 C 0.1981(7) -0.2924(5) -0.2998(5)
H20 H 0.1909 -0.3035 -0.3541
C29 C -0.0386(5) 0.0991(4) -0.2808(4)
H21 H -0.0198 -0.0460 -0.7325
C30 C 0.1594(5) -0.2084(4) -0.6181(4)
H22 H 0.1884 -0.2347 -0.5594
C31 C 0.2003(5) -0.2494(4) -0.6808(4)
H23 H 0.2581 -0.3028 -0.6674
C32 C 0.1540(5) -0.2099(4) -0.7650(4)
H24 H 0.1810 -0.2373 -0.8099
Rh1A Rh -0.02054(4) 0.04977(3) -0.07576(3)
Rh1_2 Rh 0.02054(4) -0.04977(3) -0.92424(3)
Rh2A Rh 0.02655(4) -0.04754(3) -0.54642(3)
O1A O 0.1651(3) 0.0326(3) -0.1173(2)
O2A O -0.2009(3) 0.0639(2) -0.0255(2)
O3A O -0.0591(3) -0.0719(2) -0.0948(2)
O4A O 0.0221(3) 0.1653(2) -0.0484(2)
O5A O -0.1723(3) -0.0389(3) -0.3902(2)
O6A O -0.1214(3) -0.1304(3) -0.4764(2)
O7A O 0.0802(3) -0.0487(3) -0.3603(2)
O8A O 0.1305(3) -0.1376(3) -0.4487(2)
N1A N 0.0734(4) -0.1352(3) 0.2149(3)
N1A_2 N 0.0734(4) -0.1352(3) -0.7851(3)
N2A N 0.0791(4) -0.1317(3) -0.6370(3)
C1A C 0.2368(5) -0.0180(4) -0.0580(3)
C2A C 0.3733(5) -0.0236(4) -0.0870(3)
C3A C 0.4256(5) 0.0449(4) -0.1678(4)
H1A H 0.3727 0.0922 -0.2062
C4A C 0.5543(5) 0.0443(5) -0.1925(4)
H2A H 0.5898 0.0919 -0.2469
C5A C 0.6310(5) -0.0257(5) -0.1375(4)
H3A H 0.7193 -0.0259 -0.1542
C6A C 0.5798(5) -0.0949(4) -0.0590(4)
H4A H 0.6329 -0.1437 -0.0224
C7A C 0.4519(5) -0.0942(4) -0.0327(4)
H5A H 0.4175 -0.1417 0.0222
C8A C -0.0529(4) -0.1524(4) -0.0300(3)
C9A C -0.0840(5) -0.2388(4) -0.0469(4)
C10A C -0.1185(5) -0.2313(4) -0.1306(4)
H6A H -0.1251 -0.1701 -0.1776
C11A C -0.1434(5) -0.3132(4) -0.1460(4)
H7A H -0.1658 -0.3080 -0.2037
C12A C -0.1358(5) -0.4025(4) -0.0772(4)
H8A H -0.1539 -0.4585 -0.0874
C13A C -0.1016(5) -0.4100(4) 0.0065(4)
H9A H -0.0969 -0.4711 0.0540
C14A C -0.0746(5) -0.3292(4) 0.0209(4)
H10A H -0.0491 -0.3351 0.0780
C15A C -0.1867(5) -0.1109(4) -0.4118(4)
C16A C 0.2849(5) 0.1790(4) -0.6449(4)
C17A C 0.3571(5) 0.1630(4) -0.7166(4)
H11A H 0.3479 0.1057 -0.7274
C18A C 0.4428(6) 0.2293(5) -0.7731(4)
H12A H 0.4928 0.2175 -0.8222
C19A C 0.4551(6) 0.3131(5) -0.7577(5)
H13A H 0.5119 0.3599 -0.7975
C20A C 0.3850(6) 0.3291(5) -0.6845(4)
H14A H 0.3949 0.3859 -0.6731
C21A C 0.3012(5) 0.2622(4) -0.6290(4)
H15A H 0.2534 0.2728 -0.5786
C22A C 0.1281(5) -0.1236(4) -0.3753(4)
C23A C -0.1766(5) 0.2009(4) -0.7040(4)
C24A C -0.1867(5) 0.1848(5) -0.7850(4)
H16A H -0.1718 0.1224 -0.7871
C25A C -0.2189(5) 0.2617(5) -0.8620(4)
H17A H -0.2266 0.2510 -0.9165
C26A C -0.2392(6) 0.3502(5) -0.8604(5)
H18A H -0.2593 0.4018 -0.9140
C27A C -0.2309(7) 0.3676(5) -0.7795(5)
H19A H -0.2476 0.4304 -0.7787
C28A C -0.1981(7) 0.2924(5) -0.7002(5)
H20A H -0.1909 0.3035 -0.6459
C29A C 0.0386(5) -0.0991(4) -0.7192(4)
H21A H 0.0198 0.0460 -0.2675
C30A C -0.1594(5) 0.2084(4) -0.3819(4)
H22A H -0.1884 0.2347 -0.4406
C31A C -0.2003(5) 0.2494(4) -0.3192(4)
H23A H -0.2581 0.3028 -0.3326
C32A C -0.1540(5) 0.2099(4) -0.2350(4)
H24A H -0.1810 0.2373 -0.1901
Rh3 Rh 0.61120(4) -0.51178(3) 0.48521(3)
O9 O 0.5795(3) -0.6513(3) 0.5085(2)
O10 O 0.6296(3) -0.3707(3) 0.4635(2)
O11 O 0.6212(3) -0.5480(3) 0.6211(2)
O12 O 0.5887(3) -0.4722(3) 0.3501(2)
N3 N 0.8171(4) -0.5421(3) 0.4610(3)
C33 C 0.4684(5) -0.6803(4) 0.5321(3)
C34 C 0.4530(5) -0.7852(4) 0.5574(4)
C35 C 0.5526(6) -0.8443(4) 0.5426(4)
H25 H 0.6319 -0.8180 0.5145
C36 C 0.5358(6) -0.9418(4) 0.5690(4)
H26 H 0.6041 -0.9821 0.5586
C37 C 0.4228(6) -0.9810(4) 0.6097(4)
H27 H 0.4129 -1.0482 0.6287
C38 C 0.3232(6) -0.9223(4) 0.6231(4)
H28 H 0.2439 -0.9490 0.6505
C39 C 0.3380(6) -0.8240(4) 0.5968(4)
H29 H 0.2688 -0.7838 0.6060
C40 C 0.5194(5) -0.5495(4) 0.6739(4)
C41 C 0.5338(5) -0.5803(4) 0.7738(4)
C42 C 0.6531(5) -0.5921(4) 0.8034(4)
H30 H 0.7258 -0.5814 0.7603
C43 C 0.6655(6) -0.6191(4) 0.8946(4)
H31 H 0.7468 -0.6259 0.9144
C44 C 0.5611(6) -0.6363(5) 0.9570(4)
H32 H 0.5707 -0.6555 1.0200
C45 C 0.4423(6) -0.6262(4) 0.9299(4)
H33 H 0.3702 -0.6381 0.9737
C46 C 0.4293(5) -0.5988(4) 0.8385(4)
H34 H 0.3477 -0.5923 0.8193
C47 C 0.9154(6) -0.5715(5) 0.4498(4)
C48 C 1.0413(6) -0.6122(5) 0.4332(6)
H35 H 1.0396 -0.6824 0.4595
H36 H 1.1018 -0.5899 0.4617
H37 H 1.0662 -0.5915 0.3673
Rh3A Rh 0.38880(4) -0.48822(3) 0.51479(3)
O9A O 0.4205(3) -0.3487(3) 0.4915(2)
O10A O 0.3704(3) -0.6293(3) 0.5365(2)
O11A O 0.3788(3) -0.4520(3) 0.3789(2)
O12A O 0.4113(3) -0.5278(3) 0.6499(2)
N3A N 0.1829(4) -0.4579(3) 0.5390(3)
C33A C 0.5316(5) -0.3197(4) 0.4679(3)
C34A C 0.5470(5) -0.2148(4) 0.4426(4)
C35A C 0.4474(6) -0.1557(4) 0.4574(4)
H25A H 0.3681 -0.1820 0.4855
C36A C 0.4642(6) -0.0582(4) 0.4310(4)
H26A H 0.3959 -0.0179 0.4414
C37A C 0.5772(6) -0.0190(4) 0.3903(4)
H27A H 0.5871 0.0482 0.3713
C38A C 0.6768(6) -0.0777(4) 0.3769(4)
H28A H 0.7561 -0.0510 0.3495
C39A C 0.6620(6) -0.1760(4) 0.4032(4)
H29A H 0.7312 -0.2162 0.3940
C40A C 0.4806(5) -0.4505(4) 0.3261(4)
C41A C 0.4662(5) -0.4197(4) 0.2262(4)
C42A C 0.3469(5) -0.4079(4) 0.1966(4)
H30A H 0.2742 -0.4186 0.2397
C43A C 0.3345(6) -0.3809(4) 0.1054(4)
H31A H 0.2532 -0.3741 0.0856
C44A C 0.4389(6) -0.3637(5) 0.0430(4)
H32A H 0.4293 -0.3445 -0.0200
C45A C 0.5577(6) -0.3738(4) 0.0701(4)
H33A H 0.6298 -0.3619 0.0263
C46A C 0.5707(5) -0.4012(4) 0.1615(4)
H34A H 0.6523 -0.4077 0.1807
C47A C 0.0846(6) -0.4285(5) 0.5502(4)
C48A C -0.0413(6) -0.3878(5) 0.5668(6)
H35A H -0.0396 -0.3176 0.5405
H36A H -0.1018 -0.4101 0.5383
H37A H -0.0662 -0.4085 0.6327
N4 N 0.0069(8) -0.4055(7) 0.2589(5)
C49 C -0.0800(10) -0.3550(8) 0.2549(5)
C50 C -0.1869(8) -0.2898(7) 0.2449(6)
H38 H -0.1634 -0.2303 0.2500
H39 H -0.2547 -0.3192 0.2928
H40 H -0.2159 -0.2752 0.1849
loop_
_geom_bond_atom_site_label_1
_geom_bond_atom_site_label_2
_geom_bond_site_symmetry_1
_geom_bond_site_symmetry_2
Rh1 O1 1_555 1_555
Rh2 O6 1_555 1_555
Rh3 O9 1_555 1_555
O1 C1 1_555 1_555
O2 Rh1 1_555 1_555
O3 Rh1 1_555 1_555
O4 Rh1 1_555 1_555
O5 C15 1_555 1_555
O6 C15 1_555 1_555
O7 C22 1_555 1_555
O8 Rh2 1_555 1_555
O9 C33 1_555 1_555
O10 Rh3 1_555 1_555
O11 Rh3 1_555 1_555
O12 Rh3 1_555 1_555
N1 C29 1_555 1_555
N2 Rh2 1_555 1_555
N3 Rh3 1_555 1_555
N4 C49 1_555 1_555
C1 C2 1_555 1_555
C2 C3 1_555 1_555
C3 H1 1_555 1_555
C4 C3 1_555 1_555
H2 C4 1_555 1_555
C5 C4 1_555 1_555
H3 C5 1_555 1_555
C6 C5 1_555 1_555
H4 C6 1_555 1_555
C7 C2 1_555 1_555
H5 C7 1_555 1_555
C8 O3 1_555 1_555
C9 C8 1_555 1_555
C10 C9 1_555 1_555
H6 C10 1_555 1_555
C11 C10 1_555 1_555
H7 C11 1_555 1_555
C12 C11 1_555 1_555
H8 C12 1_555 1_555
C13 C12 1_555 1_555
H9 C13 1_555 1_555
C14 C9 1_555 1_555
H10 C14 1_555 1_555
C15 C16A 1_555 1_555
C16 C17 1_555 1_555
C17 H11 1_555 1_555
C18 C17 1_555 1_555
H12 C18 1_555 1_555
C19 C18 1_555 1_555
H13 C19 1_555 1_555
C20 C19 1_555 1_555
H14 C20 1_555 1_555
C21 C16 1_555 1_555
H15 C21 1_555 1_555
C22 O8 1_555 1_555
C23 C24 1_555 1_555
C24 H16 1_555 1_555
C25 C24 1_555 1_555
H17 C25 1_555 1_555
C26 C25 1_555 1_555
H18 C26 1_555 1_555
C27 C26 1_555 1_555
H19 C27 1_555 1_555
C28 C23 1_555 1_555
H20 C28 1_555 1_555
C29 N2 1_555 1_555
H21 C29A 1_555 1_555
C30 H22 1_555 1_555
C31 C30 1_555 1_555
H23 C31 1_555 1_555
C32 C31 1_555 1_555
H24 C32 1_555 1_555
C33 C34 1_555 1_555
C34 C35 1_555 1_555
C35 H25 1_555 1_555
C36 C35 1_555 1_555
H26 C36 1_555 1_555
C37 C36 1_555 1_555
H27 C37 1_555 1_555
C38 C37 1_555 1_555
H28 C38 1_555 1_555
C39 C34 1_555 1_555
H29 C39 1_555 1_555
C40 O11 1_555 1_555
C41 C40 1_555 1_555
C42 C41 1_555 1_555
H30 C42 1_555 1_555
C43 C42 1_555 1_555
H31 C43 1_555 1_555
C44 C43 1_555 1_555
H32 C44 1_555 1_555
C45 C44 1_555 1_555
H33 C45 1_555 1_555
C46 C41 1_555 1_555
H34 C46 1_555 1_555
C47 N3 1_555 1_555
C48 C47 1_555 1_555
H35 C48 1_555 1_555
H36 C48 1_555 1_555
H37 C48 1_555 1_555
C49 C50 1_555 1_555
C50 H38 1_555 1_555
H39 C50 1_555 1_555
H40 C50 1_555 1_555
Rh1A Rh1 1_555 1_555
Rh1_2 N1A_2 1_555 1_555
Rh2A Rh2 1_555 1_555
Rh3A Rh3 1_555 1_555
O1A Rh1A 1_555 1_555
O2A C1 1_555 1_555
O3A Rh1A 1_555 1_555
O4A C8 1_555 1_555
O5A Rh2 1_555 1_555
O6A Rh2A 1_555 1_555
O7A Rh2 1_555 1_555
O8A Rh2A 1_555 1_555
O9A Rh3A 1_555 1_555
O10A C33 1_555 1_555
O11A Rh3A 1_555 1_555
O12A C40 1_555 1_555
N1A Rh1 1_555 1_555
N1A_2 C32 1_555 1_555
N2A C30 1_555 1_555
N3A Rh3A 1_555 1_555
C1A O2 1_555 1_555
C2A C1A 1_555 1_555
C3A C2A 1_555 1_555
H1A C3A 1_555 1_555
C4A C3A 1_555 1_555
H2A C4A 1_555 1_555
C5A C4A 1_555 1_555
H3A C5A 1_555 1_555
C6A C5A 1_555 1_555
H4A C6A 1_555 1_555
C7A C2A 1_555 1_555
H5A C7A 1_555 1_555
C8A O4 1_555 1_555
C9A C8A 1_555 1_555
C10A C9A 1_555 1_555
H6A C10A 1_555 1_555
C11A C10A 1_555 1_555
H7A C11A 1_555 1_555
C12A C11A 1_555 1_555
H8A C12A 1_555 1_555
C13A C12A 1_555 1_555
H9A C13A 1_555 1_555
C14A C9A 1_555 1_555
H10A C14A 1_555 1_555
C15A C16 1_555 1_555
C16A C17A 1_555 1_555
C17A H11A 1_555 1_555
C18A C17A 1_555 1_555
H12A C18A 1_555 1_555
C19A C18A 1_555 1_555
H13A C19A 1_555 1_555
C20A C19A 1_555 1_555
H14A C20A 1_555 1_555
C21A C16A 1_555 1_555
H15A C21A 1_555 1_555
C22A C23 1_555 1_555
C23A C22 1_555 1_555
C24A C23A 1_555 1_555
H16A C24A 1_555 1_555
C25A C24A 1_555 1_555
H17A C25A 1_555 1_555
C26A C25A 1_555 1_555
H18A C26A 1_555 1_555
C27A C26A 1_555 1_555
H19A C27A 1_555 1_555
C28A C23A 1_555 1_555
H20A C28A 1_555 1_555
C29A N1A_2 1_555 1_555
H21A C29 1_555 1_555
C30A N2 1_555 1_555
H22A C30A 1_555 1_555
C31A C30A 1_555 1_555
H23A C31A 1_555 1_555
C32A N1 1_555 1_555
H24A C32A 1_555 1_555
C33A O10 1_555 1_555
C34A C33A 1_555 1_555
C35A C34A 1_555 1_555
H25A C35A 1_555 1_555
C36A C35A 1_555 1_555
H26A C36A 1_555 1_555
C37A C36A 1_555 1_555
H27A C37A 1_555 1_555
C38A C37A 1_555 1_555
H28A C38A 1_555 1_555
C39A C34A 1_555 1_555
H29A C39A 1_555 1_555
C40A O12 1_555 1_555
C41A C40A 1_555 1_555
C42A C41A 1_555 1_555
H30A C42A 1_555 1_555
C43A C42A 1_555 1_555
H31A C43A 1_555 1_555
C44A C43A 1_555 1_555
H32A C44A 1_555 1_555
C45A C44A 1_555 1_555
H33A C45A 1_555 1_555
C46A C41A 1_555 1_555
H34A C46A 1_555 1_555
C47A N3A 1_555 1_555
C48A C47A 1_555 1_555
H35A C48A 1_555 1_555
H36A C48A 1_555 1_555
H37A C48A 1_555 1_555
O5 Rh2A 1_555 1_555
O7 Rh2A 1_555 1_555
N1 Rh1A 1_555 1_555
C6 C7 1_555 1_555
C13 C14 1_555 1_555
C20 C21 1_555 1_555
C27 C28 1_555 1_555
C38 C39 1_555 1_555
C45 C46 1_555 1_555
Rh1A O2A 1_555 1_555
Rh1A O4A 1_555 1_555
Rh2A N2A 1_555 1_555
Rh3A O10A 1_555 1_555
Rh3A O12A 1_555 1_555
O1A C1A 1_555 1_555
O3A C8A 1_555 1_555
O5A C15A 1_555 1_555
O6A C15A 1_555 1_555
O7A C22A 1_555 1_555
O8A C22A 1_555 1_555
O9A C33A 1_555 1_555
O11A C40A 1_555 1_555
N2A C29A 1_555 1_555
C6A C7A 1_555 1_555
C13A C14A 1_555 1_555
C20A C21A 1_555 1_555
C27A C28A 1_555 1_555
C31A C32A 1_555 1_555
C38A C39A 1_555 1_555
C45A C46A 1_555 1_555

#END
