
#######################################################################
#
#                 Cambridge Crystallographic Data Centre
#                                CCDC 
#
#######################################################################
#
# If this CIF has been generated from an entry in the Cambridge 
# Structural Database, then it will include bibliographic, chemical, 
# crystal, experimental, refinement or atomic coordinate data resulting 
# from the CCDC's data processing and validation procedures.
#
#######################################################################

data_BAGGEX
_symmetry_cell_setting           orthorhombic
_symmetry_space_group_name_H-M   'P 21 21 21'
_symmetry_Int_Tables_number      19
_space_group_name_Hall           'P 2ac 2ab'
loop_
_symmetry_equiv_pos_site_id
_symmetry_equiv_pos_as_xyz
1 x,y,z
2 1/2-x,-y,1/2+z
3 -x,1/2+y,1/2-z
4 1/2+x,1/2-y,-z
_cell_length_a                   11.5161(16)
_cell_length_b                   20.946(3)
_cell_length_c                   28.944(4)
_cell_angle_alpha                90
_cell_angle_beta                 90
_cell_angle_gamma                90
_cell_volume                     6981.76
loop_
_atom_site_label
_atom_site_type_symbol
_atom_site_fract_x
_atom_site_fract_y
_atom_site_fract_z
Rh1 Rh 0.75443(2) 0.492569(13) 0.672472(7)
Rh2 Rh 0.76775(2) 0.496565(14) 0.583878(8)
N1 N 0.8903(3) 0.42820(16) 0.66880(13)
N2 N 0.8870(3) 0.42294(16) 0.58839(13)
N3 N 0.8714(3) 0.56741(16) 0.67274(13)
N4 N 0.9013(3) 0.56110(15) 0.59303(12)
N5 N 0.6204(3) 0.55796(16) 0.66650(13)
N6 N 0.6494(3) 0.57085(16) 0.58748(13)
N7 N 0.6366(3) 0.41920(16) 0.66427(12)
N8 N 0.6332(3) 0.43149(16) 0.58386(14)
N9 N 0.7436(3) 0.48585(14) 0.78287(9)
N10 N 0.7267(2) 0.49703(15) 0.97339(8)
C1 C 0.9262(3) 0.40544(19) 0.62935(17)
H1 H 0.9853 0.3738 0.6302
C2 C 0.9589(3) 0.41233(19) 0.70887(13)
C3 C 1.0735(3) 0.43254(18) 0.71168(13)
H2 H 1.1073 0.4557 0.6869
C4 C 1.1387(3) 0.41885(19) 0.75076(13)
H3 H 1.2174 0.4323 0.7520
C5 C 1.0929(4) 0.3865(2) 0.78754(14)
C6 C 0.9796(4) 0.3654(2) 0.78418(15)
H4 H 0.9466 0.3416 0.8088
C7 C 0.9129(3) 0.37860(19) 0.74528(13)
H5 H 0.8347 0.3641 0.7438
C8 C 1.1627(4) 0.3721(2) 0.83049(13)
H6 H 1.1144 0.3483 0.8524
H7 H 1.1881 0.4122 0.8447
H8 H 1.2308 0.3465 0.8222
C9 C 0.9259(3) 0.3853(2) 0.55019(13)
C10 C 0.9862(4) 0.4121(2) 0.51458(15)
H9 H 0.9997 0.4569 0.5146
C11 C 1.0282(4) 0.3753(2) 0.47834(15)
H10 H 1.0701 0.3952 0.4540
C12 C 1.0096(3) 0.3096(2) 0.47725(13)
C13 C 0.9464(3) 0.28321(19) 0.51277(14)
H11 H 0.9312 0.2386 0.5126
C14 C 0.9040(3) 0.32023(19) 0.54907(13)
H12 H 0.8602 0.3008 0.5731
C15 C 1.0595(4) 0.2692(2) 0.43871(14)
H13 H 1.0376 0.2245 0.4435
H14 H 1.1443 0.2730 0.4387
H15 H 1.0288 0.2840 0.4090
C16 C 0.9236(4) 0.5847(2) 0.63397(16)
H16 H 0.9818 0.6167 0.6360
C17 C 0.8929(3) 0.60783(19) 0.71158(13)
C18 C 0.9475(3) 0.5847(2) 0.75073(14)
H17 H 0.9680 0.5408 0.7527
C19 C 0.9722(4) 0.6254(2) 0.78686(15)
H18 H 1.0098 0.6087 0.8135
C20 C 0.9441(3) 0.6899(2) 0.78575(13)
C21 C 0.8853(3) 0.71190(19) 0.74716(13)
H19 H 0.8621 0.7554 0.7458
C22 C 0.8597(3) 0.67173(19) 0.71059(13)
H20 H 0.8190 0.6879 0.6845
C23 C 0.9812(4) 0.7348(2) 0.82404(14)
H21 H 0.9539 0.7780 0.8171
H22 H 1.0660 0.7348 0.8264
H23 H 0.9475 0.7205 0.8534
C24 C 0.9863(3) 0.57323(18) 0.55860(13)
C25 C 1.1012(3) 0.55662(19) 0.56491(14)
H24 H 1.1250 0.5385 0.5935
C26 C 1.1823(3) 0.5659(2) 0.53022(14)
H25 H 1.2612 0.5553 0.5358
C27 C 1.1512(4) 0.5903(2) 0.48770(15)
C28 C 1.0358(4) 0.6084(2) 0.48206(15)
H26 H 1.0125 0.6269 0.4536
C29 C 0.9550(4) 0.6004(2) 0.51610(15)
H27 H 0.8770 0.6134 0.5110
C30 C 1.2378(4) 0.5989(2) 0.44907(14)
H28 H 1.1985 0.6168 0.4220
H29 H 1.2717 0.5574 0.4411
H30 H 1.2995 0.6280 0.4591
C31 C 0.5973(4) 0.5850(2) 0.62640(18)
H31 H 0.5387 0.6169 0.6257
C32 C 0.5374(3) 0.56837(18) 0.70175(13)
C33 C 0.5710(4) 0.5925(2) 0.74457(15)
H32 H 0.6499 0.6036 0.7498
C34 C 0.4902(4) 0.6003(2) 0.77959(15)
H33 H 0.5146 0.6176 0.8083
C35 C 0.3747(4) 0.5835(2) 0.77373(15)
C36 C 0.3423(4) 0.5604(2) 0.73104(15)
H34 H 0.2633 0.5495 0.7258
C37 C 0.4217(3) 0.55272(18) 0.69580(14)
H35 H 0.3964 0.5364 0.6669
C38 C 0.2883(4) 0.5914(3) 0.81274(15)
H36 H 0.2116 0.5771 0.8025
H37 H 0.2844 0.6365 0.8217
H38 H 0.3132 0.5659 0.8393
C39 C 0.6261(3) 0.6138(2) 0.54995(13)
C40 C 0.6588(3) 0.67731(19) 0.55219(13)
H39 H 0.7000 0.6925 0.5784
C41 C 0.6321(3) 0.7188(2) 0.51661(14)
H40 H 0.6553 0.7622 0.5188
C42 C 0.5720(3) 0.6984(2) 0.47782(14)
C43 C 0.5421(4) 0.6352(2) 0.47572(15)
H41 H 0.5022 0.6199 0.4492
C44 C 0.5682(3) 0.5928(2) 0.51113(15)
H42 H 0.5462 0.5492 0.5086
C45 C 0.5388(4) 0.7442(2) 0.43967(14)
H43 H 0.4979 0.7209 0.4152
H44 H 0.6091 0.7638 0.4269
H45 H 0.4880 0.7775 0.4522
C46 C 0.5962(4) 0.4060(2) 0.62260(17)
H46 H 0.5355 0.3754 0.6205
C47 C 0.5956(3) 0.3788(2) 0.70034(13)
C48 C 0.6145(3) 0.31338(19) 0.69915(13)
H47 H 0.6585 0.2955 0.6746
C49 C 0.5702(3) 0.27366(19) 0.73315(14)
H48 H 0.5846 0.2291 0.7316
C50 C 0.5050(3) 0.2981(2) 0.76963(13)
C51 C 0.4897(4) 0.3639(2) 0.77149(14)
H49 H 0.4477 0.3821 0.7965
C52 C 0.5349(3) 0.4035(2) 0.73738(15)
H50 H 0.5239 0.4483 0.7396
C53 C 0.4546(3) 0.2550(2) 0.80643(14)
H51 H 0.4742 0.2105 0.7994
H52 H 0.3700 0.2599 0.8071
H53 H 0.4870 0.2666 0.8366
C54 C 0.5630(3) 0.41928(19) 0.54409(13)
C55 C 0.6101(3) 0.39104(19) 0.50460(13)
H54 H 0.6895 0.3788 0.5043
C56 C 0.5419(4) 0.3808(2) 0.46607(14)
H55 H 0.5749 0.3605 0.4398
C57 C 0.4258(3) 0.3997(2) 0.46485(13)
C58 C 0.3796(3) 0.4271(2) 0.50419(13)
H56 H 0.3001 0.4392 0.5045
C59 C 0.4470(3) 0.43757(19) 0.54334(13)
H57 H 0.4136 0.4573 0.5697
C60 C 0.3539(4) 0.3896(2) 0.42197(14)
H58 H 0.2751 0.4056 0.4272
H59 H 0.3509 0.3440 0.4147
H60 H 0.3892 0.4128 0.3961
C61 C 0.7467(3) 0.48867(16) 0.74285(10)
C62 C 0.7393(3) 0.48656(18) 0.83128(10)
C63 C 0.8423(3) 0.4872(2) 0.85579(12)
H61 H 0.9148 0.4858 0.8401
C64 C 0.6321(3) 0.4883(2) 0.85287(12)
H62 H 0.5626 0.4869 0.8352
C65 C 0.7252(3) 0.50016(18) 1.01316(11)
C66 C 0.7303(3) 0.49279(18) 0.92505(10)
C67 C 0.6274(3) 0.4920(2) 0.90028(12)
H63 H 0.5548 0.4941 0.9158
C68 C 0.8379(3) 0.4901(2) 0.90370(11)
H64 H 0.9073 0.4902 0.9215
Rh2A Rh 0.73225(2) 0.503435(14) 1.083878(8)
C65A C 0.7748(3) 0.49984(18) 0.51316(11)
C69 C 0.7867(3) 0.2749(2) 0.38328(14)
C70 C 0.7377(3) 0.2407(2) 0.41933(13)
H65 H 0.7152 0.2624 0.4467
C71 C 0.7212(3) 0.1762(2) 0.41623(16)
H66 H 0.6860 0.1536 0.4410
C72 C 0.7560(4) 0.1440(2) 0.37670(18)
H67 H 0.7459 0.0991 0.3743
C73 C 0.8057(4) 0.1782(3) 0.34085(17)
H68 H 0.8305 0.1565 0.3138
C74 C 0.8194(4) 0.2426(2) 0.34410(15)
H69 H 0.8520 0.2655 0.3189
C75 C 0.8011(4) 0.3463(2) 0.38647(18)
H70 H 0.8374 0.3622 0.3581
H71 H 0.8505 0.3567 0.4130
H72 H 0.7249 0.3663 0.3904
C76 C 0.2495(4) 0.72833(19) 0.65792(14)
C77 C 0.2832(3) 0.6829(2) 0.62565(15)
H73 H 0.2694 0.6390 0.6320
C78 C 0.3364(4) 0.6998(2) 0.58452(17)
H74 H 0.3587 0.6678 0.5630
C79 C 0.3569(4) 0.7631(2) 0.57490(17)
H75 H 0.3941 0.7749 0.5469
C80 C 0.3232(4) 0.8093(2) 0.60610(18)
H76 H 0.3353 0.8531 0.5992
C81 C 0.2722(4) 0.7920(2) 0.64717(16)
H77 H 0.2519 0.8243 0.6688
C82 C 0.1900(4) 0.7094(2) 0.70173(15)
H78 H 0.1729 0.7477 0.7200
H79 H 0.2408 0.6810 0.7195
H80 H 0.1175 0.6872 0.6944
loop_
_geom_bond_atom_site_label_1
_geom_bond_atom_site_label_2
_geom_bond_site_symmetry_1
_geom_bond_site_symmetry_2
Rh1 Rh2 1_555 1_555
Rh2 N2 1_555 1_555
N1 Rh1 1_555 1_555
N2 C1 1_555 1_555
N3 Rh1 1_555 1_555
N4 Rh2 1_555 1_555
N5 Rh1 1_555 1_555
N6 Rh2 1_555 1_555
N7 Rh1 1_555 1_555
N8 Rh2 1_555 1_555
N9 C61 1_555 1_555
N10 C65 1_555 1_555
C1 N1 1_555 1_555
H1 C1 1_555 1_555
C2 N1 1_555 1_555
C3 C2 1_555 1_555
H2 C3 1_555 1_555
C4 C3 1_555 1_555
H3 C4 1_555 1_555
C5 C4 1_555 1_555
C6 C5 1_555 1_555
H4 C6 1_555 1_555
C7 C2 1_555 1_555
H5 C7 1_555 1_555
C8 C5 1_555 1_555
H6 C8 1_555 1_555
H7 C8 1_555 1_555
H8 C8 1_555 1_555
C9 N2 1_555 1_555
C10 C9 1_555 1_555
H9 C10 1_555 1_555
C11 C10 1_555 1_555
H10 C11 1_555 1_555
C12 C11 1_555 1_555
C13 C12 1_555 1_555
H11 C13 1_555 1_555
C14 C9 1_555 1_555
H12 C14 1_555 1_555
C15 C12 1_555 1_555
H13 C15 1_555 1_555
H14 C15 1_555 1_555
H15 C15 1_555 1_555
C16 N3 1_555 1_555
H16 C16 1_555 1_555
C17 N3 1_555 1_555
C18 C17 1_555 1_555
H17 C18 1_555 1_555
C19 C18 1_555 1_555
H18 C19 1_555 1_555
C20 C19 1_555 1_555
C21 C20 1_555 1_555
H19 C21 1_555 1_555
C22 C17 1_555 1_555
H20 C22 1_555 1_555
C23 C20 1_555 1_555
H21 C23 1_555 1_555
H22 C23 1_555 1_555
H23 C23 1_555 1_555
C24 N4 1_555 1_555
C25 C24 1_555 1_555
H24 C25 1_555 1_555
C26 C25 1_555 1_555
H25 C26 1_555 1_555
C27 C26 1_555 1_555
C28 C27 1_555 1_555
H26 C28 1_555 1_555
C29 C24 1_555 1_555
H27 C29 1_555 1_555
C30 C27 1_555 1_555
H28 C30 1_555 1_555
H29 C30 1_555 1_555
H30 C30 1_555 1_555
C31 N5 1_555 1_555
H31 C31 1_555 1_555
C32 N5 1_555 1_555
C33 C32 1_555 1_555
H32 C33 1_555 1_555
C34 C33 1_555 1_555
H33 C34 1_555 1_555
C35 C34 1_555 1_555
C36 C35 1_555 1_555
H34 C36 1_555 1_555
C37 C32 1_555 1_555
H35 C37 1_555 1_555
C38 C35 1_555 1_555
H36 C38 1_555 1_555
H37 C38 1_555 1_555
H38 C38 1_555 1_555
C39 N6 1_555 1_555
C40 C39 1_555 1_555
H39 C40 1_555 1_555
C41 C40 1_555 1_555
H40 C41 1_555 1_555
C42 C41 1_555 1_555
C43 C42 1_555 1_555
H41 C43 1_555 1_555
C44 C39 1_555 1_555
H42 C44 1_555 1_555
C45 C42 1_555 1_555
H43 C45 1_555 1_555
H44 C45 1_555 1_555
H45 C45 1_555 1_555
C46 N7 1_555 1_555
H46 C46 1_555 1_555
C47 N7 1_555 1_555
C48 C47 1_555 1_555
H47 C48 1_555 1_555
C49 C48 1_555 1_555
H48 C49 1_555 1_555
C50 C49 1_555 1_555
C51 C50 1_555 1_555
H49 C51 1_555 1_555
C52 C47 1_555 1_555
H50 C52 1_555 1_555
C53 C50 1_555 1_555
H51 C53 1_555 1_555
H52 C53 1_555 1_555
H53 C53 1_555 1_555
C54 N8 1_555 1_555
C55 C54 1_555 1_555
H54 C55 1_555 1_555
C56 C55 1_555 1_555
H55 C56 1_555 1_555
C57 C56 1_555 1_555
C58 C57 1_555 1_555
H56 C58 1_555 1_555
C59 C54 1_555 1_555
H57 C59 1_555 1_555
C60 C57 1_555 1_555
H58 C60 1_555 1_555
H59 C60 1_555 1_555
H60 C60 1_555 1_555
C61 Rh1 1_555 1_555
C62 N9 1_555 1_555
C63 C62 1_555 1_555
H61 C63 1_555 1_555
C64 C62 1_555 1_555
H62 C64 1_555 1_555
C65 Rh2A 1_555 1_555
C66 N10 1_555 1_555
C67 C64 1_555 1_555
H63 C67 1_555 1_555
C68 C63 1_555 1_555
H64 C68 1_555 1_555
C69 C70 1_555 1_555
C70 H65 1_555 1_555
C71 C70 1_555 1_555
H66 C71 1_555 1_555
C72 C71 1_555 1_555
H67 C72 1_555 1_555
C73 C72 1_555 1_555
H68 C73 1_555 1_555
C74 C69 1_555 1_555
H69 C74 1_555 1_555
C75 C69 1_555 1_555
H70 C75 1_555 1_555
H71 C75 1_555 1_555
H72 C75 1_555 1_555
C76 C77 1_555 1_555
C77 H73 1_555 1_555
C78 C77 1_555 1_555
H74 C78 1_555 1_555
C79 C78 1_555 1_555
H75 C79 1_555 1_555
C80 C79 1_555 1_555
H76 C80 1_555 1_555
C81 C76 1_555 1_555
H77 C81 1_555 1_555
C82 C76 1_555 1_555
H78 C82 1_555 1_555
H79 C82 1_555 1_555
H80 C82 1_555 1_555
C65A Rh2 1_555 1_555
N4 C16 1_555 1_555
N6 C31 1_555 1_555
N8 C46 1_555 1_555
C6 C7 1_555 1_555
C13 C14 1_555 1_555
C21 C22 1_555 1_555
C28 C29 1_555 1_555
C36 C37 1_555 1_555
C43 C44 1_555 1_555
C51 C52 1_555 1_555
C58 C59 1_555 1_555
C66 C67 1_555 1_555
C66 C68 1_555 1_555
C73 C74 1_555 1_555
C80 C81 1_555 1_555

#END
