
#######################################################################
#
#                 Cambridge Crystallographic Data Centre
#                                CCDC 
#
#######################################################################
#
# If this CIF has been generated from an entry in the Cambridge 
# Structural Database, then it will include bibliographic, chemical, 
# crystal, experimental, refinement or atomic coordinate data resulting 
# from the CCDC's data processing and validation procedures.
#
#######################################################################

data_BAGPOP01
_symmetry_cell_setting           monoclinic
_symmetry_space_group_name_H-M   'C c'
_symmetry_Int_Tables_number      9
_space_group_name_Hall           'C -2yc'
loop_
_symmetry_equiv_pos_site_id
_symmetry_equiv_pos_as_xyz
1 x,y,z
2 x,-y,1/2+z
3 1/2+x,1/2+y,z
4 1/2+x,1/2-y,1/2+z
_cell_length_a                   8.6495(18)
_cell_length_b                   17.118(4)
_cell_length_c                   10.568(2)
_cell_angle_alpha                90
_cell_angle_beta                 113.85(2)
_cell_angle_gamma                90
_cell_volume                     1431.1
loop_
_atom_site_label
_atom_site_type_symbol
_atom_site_fract_x
_atom_site_fract_y
_atom_site_fract_z
Cu1 Cu -0.07395(2) -0.183633(13) -0.71806(2)
N1 N -0.3290(5) -0.18665(12) -0.7987(4)
N2 N -0.1092(3) -0.30078(12) -0.7266(3)
C1 C -0.3984(3) -0.25867(13) -0.8158(3)
C2 C -0.4277(4) -0.12434(15) -0.8421(3)
H1 H -0.3785 -0.0752 -0.8326
C3 C -0.6031(4) -0.13072(19) -0.9014(3)
H2 H -0.6704 -0.0864 -0.9307
C4 C -0.6749(4) -0.2032(2) -0.9161(4)
H3 H -0.7919 -0.2085 -0.9542
C5 C -0.5725(3) -0.26869(17) -0.8740(3)
H4 H -0.6195 -0.3184 -0.8845
C6 C -0.2736(3) -0.32352(13) -0.7709(3)
C7 C 0.0126(4) -0.35507(18) -0.6876(3)
H5 H 0.1248 -0.3395 -0.6572
C8 C -0.0251(4) -0.43418(18) -0.6915(4)
H6 H 0.0611 -0.4711 -0.6661
C9 C -0.1886(5) -0.45744(16) -0.7325(4)
H7 H -0.2142 -0.5102 -0.7321
C10 C -0.3183(4) -0.40172(15) -0.7753(3)
H8 H -0.4310 -0.4166 -0.8058
C11 C 0.3182(4) -0.17978(16) -0.5806(3)
N3 N 0.1728(5) -0.19182(16) -0.6217(5)
N4 N 0.4790(5) -0.17500(18) -0.5413(5)
C12 C 0.5685(4) -0.11258(16) -0.4834(3)
N5 N 0.6617(4) -0.06218(15) -0.4330(4)
C13 C -0.0472(4) -0.01411(18) -0.6014(3)
N6 N -0.0680(3) -0.07777(15) -0.6359(3)
N7 N -0.0121(6) 0.05849(19) -0.5707(4)
C14 C -0.0491(3) 0.09740(14) -0.4821(3)
N8 N -0.0722(3) 0.13972(14) -0.4090(3)
N8A N -0.0722(3) -0.13972(14) -0.9090(3)
Cu1A Cu -0.07395(2) 0.183633(13) -0.21806(2)
loop_
_geom_bond_atom_site_label_1
_geom_bond_atom_site_label_2
_geom_bond_site_symmetry_1
_geom_bond_site_symmetry_2
Cu1 N1 1_555 1_555
N1 C1 1_555 1_555
N2 Cu1 1_555 1_555
C1 C5 1_555 1_555
C2 N1 1_555 1_555
H1 C2 1_555 1_555
C3 C2 1_555 1_555
H2 C3 1_555 1_555
C4 C3 1_555 1_555
H3 C4 1_555 1_555
C5 C4 1_555 1_555
H4 C5 1_555 1_555
C6 N2 1_555 1_555
C7 N2 1_555 1_555
H5 C7 1_555 1_555
C8 C7 1_555 1_555
H6 C8 1_555 1_555
C9 C8 1_555 1_555
H7 C9 1_555 1_555
C10 C6 1_555 1_555
H8 C10 1_555 1_555
C11 N3 1_555 1_555
N3 Cu1 1_555 1_555
N4 C11 1_555 1_555
C12 N4 1_555 1_555
N5 C12 1_555 1_555
C13 N6 1_555 1_555
N6 Cu1 1_555 1_555
N7 C13 1_555 1_555
C14 N7 1_555 1_555
N8 C14 1_555 1_555
N8A Cu1 1_555 1_555
Cu1A N8 1_555 1_555
C1 C6 1_555 1_555
C9 C10 1_555 1_555

#END
