
#######################################################################
#
#                 Cambridge Crystallographic Data Centre
#                                CCDC 
#
#######################################################################
#
# If this CIF has been generated from an entry in the Cambridge 
# Structural Database, then it will include bibliographic, chemical, 
# crystal, experimental, refinement or atomic coordinate data resulting 
# from the CCDC's data processing and validation procedures.
#
#######################################################################

data_BAGQAC
_symmetry_cell_setting           orthorhombic
_symmetry_space_group_name_H-M   'P c a 21'
_symmetry_Int_Tables_number      29
_space_group_name_Hall           'P 2c -2ac'
loop_
_symmetry_equiv_pos_site_id
_symmetry_equiv_pos_as_xyz
1 x,y,z
2 -x,-y,1/2+z
3 1/2+x,-y,z
4 1/2-x,y,1/2+z
_cell_length_a                   9.171(2)
_cell_length_b                   10.514(2)
_cell_length_c                   14.339(3)
_cell_angle_alpha                90
_cell_angle_beta                 90
_cell_angle_gamma                90
_cell_volume                     1382.62
loop_
_atom_site_label
_atom_site_type_symbol
_atom_site_fract_x
_atom_site_fract_y
_atom_site_fract_z
Ni1 Ni -0.43885(3) -0.36318(3) -0.43799(3)
V1 V 0.11376(5) -0.33361(4) -0.71103(4)
V2 V -0.17185(4) -0.46813(4) -0.59235(3)
N1 N -0.2804(2) -0.2607(2) -0.36621(18)
N2 N -0.4970(2) -0.1813(2) -0.47279(18)
O1 O 0.0615(2) -0.3647(2) -0.81744(18)
O2 O 0.1591(2) -0.18660(18) -0.7001(2)
O3 O -0.0302(2) -0.36470(19) -0.62855(18)
O4 O -0.22679(19) -0.56769(18) -0.68631(17)
O5 O -0.1143(2) -0.5580(2) -0.50373(16)
O6 O -0.3125(2) -0.38462(19) -0.55371(17)
O7 O -0.3656(2) -0.5416(2) -0.39006(17)
H1 H -0.2903 -0.5610 -0.4174
C1 C -0.1724(3) -0.3069(3) -0.3141(3)
H2 H -0.1527 -0.3935 -0.3169
C2 C -0.0886(4) -0.2322(3) -0.2561(3)
H3 H -0.0132 -0.2672 -0.2211
C3 C -0.1196(3) -0.1038(4) -0.2514(3)
H4 H -0.0674 -0.0510 -0.2115
C4 C -0.2291(3) -0.0550(3) -0.3067(3)
H5 H -0.2505 0.0314 -0.3047
C5 C -0.3061(3) -0.1332(3) -0.3644(2)
C6 C -0.4189(3) -0.0885(3) -0.4308(3)
C7 C -0.4393(3) 0.0382(3) -0.4534(3)
H6 H -0.3845 0.1009 -0.4239
C8 C -0.5419(3) 0.0712(3) -0.5202(3)
H7 H -0.5564 0.1558 -0.5366
C9 C -0.6213(3) -0.0233(3) -0.5616(3)
H8 H -0.6914 -0.0033 -0.6061
C10 C -0.5970(3) -0.1487(3) -0.5370(2)
H9 H -0.6514 -0.2122 -0.5657
H10 H -0.358(3) -0.552(3) -0.326(3)
O1C O -0.5615(2) -0.3647(2) -0.31744(18)
O5B O -0.6143(2) -0.4420(2) -0.50373(16)
V1B V -0.38624(5) -0.66639(4) -0.71103(4)
Ni1C Ni -0.06115(3) -0.36318(3) -0.93799(3)
Ni1B Ni 0.06115(3) -0.63682(3) -0.43799(3)
O4B O 0.27321(19) -0.43231(18) -0.68631(17)
loop_
_geom_bond_atom_site_label_1
_geom_bond_atom_site_label_2
_geom_bond_site_symmetry_1
_geom_bond_site_symmetry_2
Ni1 N1 1_555 1_555
V1 O1 1_555 1_555
V2 O3 1_555 1_555
N1 C1 1_555 1_555
N2 Ni1 1_555 1_555
O1 Ni1C 1_555 1_555
O2 V1 1_555 1_555
O3 V1 1_555 1_555
O4 V2 1_555 1_555
O5 V2 1_555 1_555
O6 Ni1 1_555 1_555
O7 Ni1 1_555 1_555
H1 O7 1_555 1_555
C1 H2 1_555 1_555
C2 C1 1_555 1_555
H3 C2 1_555 1_555
C3 C2 1_555 1_555
H4 C3 1_555 1_555
C4 C3 1_555 1_555
H5 C4 1_555 1_555
C5 N1 1_555 1_555
C6 N2 1_555 1_555
C7 C6 1_555 1_555
H6 C7 1_555 1_555
C8 C7 1_555 1_555
H7 C8 1_555 1_555
C9 C8 1_555 1_555
H8 C9 1_555 1_555
C10 N2 1_555 1_555
H9 C10 1_555 1_555
H10 O7 1_555 1_555
O1C Ni1 1_555 1_555
O5B Ni1 1_555 1_555
V1B O4 1_555 1_555
Ni1B O5 1_555 1_555
O4B V1 1_555 1_555
V2 O6 1_555 1_555
C4 C5 1_555 1_555
C5 C6 1_555 1_555
C9 C10 1_555 1_555

#END
