
#######################################################################
#
#                 Cambridge Crystallographic Data Centre
#                                CCDC 
#
#######################################################################
#
# If this CIF has been generated from an entry in the Cambridge 
# Structural Database, then it will include bibliographic, chemical, 
# crystal, experimental, refinement or atomic coordinate data resulting 
# from the CCDC's data processing and validation procedures.
#
#######################################################################

data_BAGQIK
_symmetry_cell_setting           orthorhombic
_symmetry_space_group_name_H-M   'P c a 21'
_symmetry_Int_Tables_number      29
_space_group_name_Hall           'P 2c -2ac'
loop_
_symmetry_equiv_pos_site_id
_symmetry_equiv_pos_as_xyz
1 x,y,z
2 -x,-y,1/2+z
3 1/2+x,-y,z
4 1/2-x,y,1/2+z
_cell_length_a                   9.212(2)
_cell_length_b                   10.543(2)
_cell_length_c                   14.388(3)
_cell_angle_alpha                90
_cell_angle_beta                 90
_cell_angle_gamma                90
_cell_volume                     1397.39
loop_
_atom_site_label
_atom_site_type_symbol
_atom_site_fract_x
_atom_site_fract_y
_atom_site_fract_z
Co1 Co 0.05969(3) 0.13961(3) -0.26108(3)
V1 V -0.38595(5) 0.16508(4) -0.53260(3)
V2 V -0.17157(4) -0.03076(4) -0.41536(3)
N1 N 0.0057(2) 0.3273(2) -0.29460(16)
N2 N 0.2208(2) 0.2452(2) -0.18844(16)
O1 O -0.4380(2) 0.1390(2) -0.63949(16)
O2 O -0.3387(2) 0.31066(18) -0.51885(18)
O3 O -0.2290(2) 0.06467(17) -0.51024(15)
O4 O -0.0283(2) -0.13166(18) -0.45097(15)
O5 O -0.1164(2) 0.0620(2) -0.32786(14)
O6 O -0.30896(19) -0.11519(17) -0.37542(14)
O7 O 0.1344(3) -0.0434(2) -0.21214(15)
H1 H 0.2087 -0.0632 -0.2400
H2 H 0.138(3) -0.055(3) -0.156(2)
C1 C -0.0942(3) 0.3623(3) -0.3577(2)
H3 H -0.1498 0.2998 -0.3862
C2 C -0.1173(3) 0.4867(3) -0.3817(2)
H4 H -0.1866 0.5075 -0.4262
C3 C -0.0372(4) 0.5800(3) -0.3396(3)
H5 H -0.0510 0.6647 -0.3553
C4 C 0.0651(3) 0.5458(3) -0.2732(3)
H6 H 0.1199 0.6075 -0.2432
C5 C 0.0845(3) 0.4183(3) -0.2523(2)
C6 C 0.1956(3) 0.3723(3) -0.18658(19)
C7 C 0.2725(3) 0.4503(3) -0.1280(2)
H7 H 0.2513 0.5364 -0.1254
C8 C 0.3815(3) 0.4001(3) -0.0727(2)
H8 H 0.4343 0.4522 -0.0329
C9 C 0.4104(3) 0.2726(4) -0.0775(2)
H9 H 0.4846 0.2371 -0.0422
C10 C 0.3273(3) 0.1982(3) -0.1356(2)
H10 H 0.3461 0.1116 -0.1381
Co1B Co -0.44031(3) -0.13961(3) -0.26108(3)
Co1C Co -0.55969(3) 0.13961(3) -0.76108(3)
O1C O -0.0620(2) 0.1390(2) -0.13949(16)
V1B V 0.11405(5) -0.16508(4) -0.53260(3)
O6B O 0.19104(19) 0.11519(17) -0.37542(14)
O4B O -0.5283(2) 0.13166(18) -0.45097(15)
loop_
_geom_bond_atom_site_label_1
_geom_bond_atom_site_label_2
_geom_bond_site_symmetry_1
_geom_bond_site_symmetry_2
Co1 N1 1_555 1_555
V1 O1 1_555 1_555
V2 O3 1_555 1_555
N1 C1 1_555 1_555
N2 Co1 1_555 1_555
O1 Co1C 1_555 1_555
O2 V1 1_555 1_555
O3 V1 1_555 1_555
O4 V2 1_555 1_555
O5 Co1 1_555 1_555
O6 V2 1_555 1_555
O7 Co1 1_555 1_555
H1 O7 1_555 1_555
H2 O7 1_555 1_555
C1 H3 1_555 1_555
C2 C1 1_555 1_555
H4 C2 1_555 1_555
C3 C2 1_555 1_555
H5 C3 1_555 1_555
C4 C3 1_555 1_555
H6 C4 1_555 1_555
C5 N1 1_555 1_555
C6 N2 1_555 1_555
C7 C6 1_555 1_555
H7 C7 1_555 1_555
C8 C7 1_555 1_555
H8 C8 1_555 1_555
C9 C8 1_555 1_555
H9 C9 1_555 1_555
C10 N2 1_555 1_555
H10 C10 1_555 1_555
Co1B O6 1_555 1_555
O1C Co1 1_555 1_555
V1B O4 1_555 1_555
O6B Co1 1_555 1_555
O4B V1 1_555 1_555
V2 O5 1_555 1_555
C4 C5 1_555 1_555
C5 C6 1_555 1_555
C9 C10 1_555 1_555

#END
