
#######################################################################
#
#                 Cambridge Crystallographic Data Centre
#                                CCDC 
#
#######################################################################
#
# If this CIF has been generated from an entry in the Cambridge 
# Structural Database, then it will include bibliographic, chemical, 
# crystal, experimental, refinement or atomic coordinate data resulting 
# from the CCDC's data processing and validation procedures.
#
#######################################################################

data_BAGQIK02
_symmetry_cell_setting           orthorhombic
_symmetry_space_group_name_H-M   'P c a 21'
_symmetry_Int_Tables_number      29
_space_group_name_Hall           'P 2c -2ac'
loop_
_symmetry_equiv_pos_site_id
_symmetry_equiv_pos_as_xyz
1 x,y,z
2 -x,-y,1/2+z
3 1/2+x,-y,z
4 1/2-x,y,1/2+z
_cell_length_a                   9.2214(7)
_cell_length_b                   10.5713(6)
_cell_length_c                   14.3469(8)
_cell_angle_alpha                90
_cell_angle_beta                 90
_cell_angle_gamma                90
_cell_volume                     1398.57
loop_
_atom_site_label
_atom_site_type_symbol
_atom_site_fract_x
_atom_site_fract_y
_atom_site_fract_z
Co1 Co 0.44025(11) 0.13961(11) 0.31028(8)
V1 V 0.17145(14) 0.03080(13) 0.15597(10)
V2 V 0.38587(15) -0.16511(13) 0.03877(10)
O1 O 0.3091(6) 0.1159(6) 0.1959(5)
O2 O 0.4378(7) -0.1398(8) -0.0687(5)
O3 O 0.1164(6) -0.0615(7) 0.2438(5)
O4 O 0.3659(7) -0.0433(7) 0.3598(5)
H1 H 0.2924 -0.0488 0.3244
H2 H 0.3593 -0.0640 0.4181
O5 O 0.2286(6) -0.0646(7) 0.0609(5)
O6 O 0.0278(7) 0.1325(7) 0.1207(5)
O7 O 0.3386(8) -0.3114(7) 0.0528(6)
N1 N 0.2795(8) 0.2461(8) 0.3833(5)
N2 N 0.4946(8) 0.3278(8) 0.2766(6)
C1 C 0.1726(10) 0.1975(10) 0.4361(8)
H3 H 0.1538 0.1083 0.4339
C2 C 0.0900(11) 0.2735(13) 0.4941(8)
H4 H 0.0128 0.2377 0.5304
C3 C 0.1187(11) 0.4010(13) 0.4993(9)
H5 H 0.0643 0.4546 0.5404
C4 C 0.2279(11) 0.4512(10) 0.4432(8)
H6 H 0.2498 0.5399 0.4454
C5 C 0.3066(9) 0.3732(9) 0.3830(7)
C6 C 0.4138(9) 0.4185(9) 0.3214(7)
C7 C 0.4345(10) 0.5425(9) 0.2991(9)
H7 H 0.3780 0.6063 0.3299
C8 C 0.5362(12) 0.5794(12) 0.2320(9)
H8 H 0.5494 0.6667 0.2158
C9 C 0.6176(12) 0.4869(12) 0.1889(8)
H9 H 0.6892 0.5092 0.1432
C10 C 0.5938(11) 0.3619(11) 0.2134(8)
H10 H 0.6508 0.2969 0.1845
O3B O 0.6164(6) 0.0615(7) 0.2438(5)
V2B V -0.11413(15) 0.16511(13) 0.03877(10)
Co1B Co -0.05975(11) -0.13961(11) 0.31028(8)
O2A O 0.5622(7) 0.1398(8) 0.4313(5)
O6B O 0.5278(7) -0.1325(7) 0.1207(5)
Co1A Co 0.55975(11) -0.13961(11) -0.18972(8)
loop_
_geom_bond_atom_site_label_1
_geom_bond_atom_site_label_2
_geom_bond_site_symmetry_1
_geom_bond_site_symmetry_2
Co1 O1 1_555 1_555
V1 O1 1_555 1_555
V2 O2 1_555 1_555
O2 Co1A 1_555 1_555
O3 V1 1_555 1_555
O4 Co1 1_555 1_555
H1 O4 1_555 1_555
H2 O4 1_555 1_555
O5 V1 1_555 1_555
O6 V1 1_555 1_555
O7 V2 1_555 1_555
N1 Co1 1_555 1_555
N2 Co1 1_555 1_555
C1 N1 1_555 1_555
H3 C1 1_555 1_555
C2 C1 1_555 1_555
H4 C2 1_555 1_555
C3 C2 1_555 1_555
H5 C3 1_555 1_555
C4 C3 1_555 1_555
H6 C4 1_555 1_555
C5 N1 1_555 1_555
C6 N2 1_555 1_555
C7 C6 1_555 1_555
H7 C7 1_555 1_555
C8 C7 1_555 1_555
H8 C8 1_555 1_555
C9 C8 1_555 1_555
H9 C9 1_555 1_555
C10 N2 1_555 1_555
H10 C10 1_555 1_555
O3B Co1 1_555 1_555
V2B O6 1_555 1_555
Co1B O3 1_555 1_555
O2A Co1 1_555 1_555
O6B V2 1_555 1_555
V2 O5 1_555 1_555
C4 C5 1_555 1_555
C5 C6 1_555 1_555
C9 C10 1_555 1_555

#END
