
#######################################################################
#
#                 Cambridge Crystallographic Data Centre
#                                CCDC 
#
#######################################################################
#
# If this CIF has been generated from an entry in the Cambridge 
# Structural Database, then it will include bibliographic, chemical, 
# crystal, experimental, refinement or atomic coordinate data resulting 
# from the CCDC's data processing and validation procedures.
#
#######################################################################

data_BAGQAC01
_symmetry_cell_setting           orthorhombic
_symmetry_space_group_name_H-M   'P c a 21'
_symmetry_Int_Tables_number      29
_space_group_name_Hall           'P 2c -2ac'
loop_
_symmetry_equiv_pos_site_id
_symmetry_equiv_pos_as_xyz
1 x,y,z
2 -x,-y,1/2+z
3 1/2+x,-y,z
4 1/2-x,y,1/2+z
_cell_length_a                   9.1445(4)
_cell_length_b                   10.5076(5)
_cell_length_c                   14.3123(7)
_cell_angle_alpha                90
_cell_angle_beta                 90
_cell_angle_gamma                90
_cell_volume                     1375.22
loop_
_atom_site_label
_atom_site_type_symbol
_atom_site_fract_x
_atom_site_fract_y
_atom_site_fract_z
O1 O -0.05978(19) -0.63722(17) -0.06389(14)
O2 O -0.18659(18) -0.38530(17) 0.19851(13)
O3 O -0.38381(19) -0.55865(17) 0.25093(13)
O4 O -0.13464(19) -0.54090(17) 0.36305(12)
H1 H -0.2162 -0.5550 0.3416
H2 H -0.1542 -0.5479 0.4209
O5 O -0.27640(17) -0.56765(17) 0.06553(13)
O6 O -0.47272(19) -0.36467(17) 0.12672(13)
O7 O -0.16147(19) -0.81516(17) 0.05369(14)
N1 N -0.0033(2) -0.1810(2) 0.27963(15)
N2 N -0.2215(2) -0.2601(2) 0.38573(14)
C1 C 0.0977(3) -0.1485(3) 0.21648(19)
H3 H 0.1533 -0.2124 0.1889
C2 C 0.1228(3) -0.0233(3) 0.19050(18)
H4 H 0.1931 -0.0037 0.1458
C3 C 0.0409(3) 0.0727(3) 0.23261(19)
H5 H 0.0548 0.1575 0.2162
C4 C -0.0617(3) 0.0391(2) 0.29932(19)
H6 H -0.1168 0.1014 0.3291
C5 C -0.0818(2) -0.0883(2) 0.3214(2)
C6 C -0.1959(3) -0.1341(2) 0.38800(18)
C7 C -0.2727(3) -0.0529(3) 0.4458(2)
H7 H -0.2509 0.0336 0.4473
C8 C -0.3832(3) -0.1025(3) 0.5016(2)
H8 H -0.4357 -0.0499 0.5417
C9 C -0.4144(3) -0.2314(3) 0.4968(2)
H9 H -0.4895 -0.2663 0.5323
C10 C -0.3311(3) -0.3071(3) 0.43799(19)
H10 H -0.3518 -0.3936 0.4345
Ni1 Ni -0.06171(3) -0.36295(3) 0.31688(2)
V1 V -0.32898(4) -0.46830(4) 0.16212(3)
V2 V -0.11538(4) -0.66693(4) 0.04379(3)
V2B V -0.61538(4) -0.33307(4) 0.04379(3)
O3B O 0.11619(19) -0.44135(17) 0.25093(13)
O6B O 0.02728(19) -0.63533(17) 0.12672(13)
O1A O 0.05978(19) -0.36278(17) 0.43611(14)
Ni1B Ni -0.56171(3) -0.63705(3) 0.31688(2)
Ni1A Ni 0.06171(3) -0.63705(3) -0.18312(2)
loop_
_geom_bond_atom_site_label_1
_geom_bond_atom_site_label_2
_geom_bond_site_symmetry_1
_geom_bond_site_symmetry_2
O1 V2 1_555 1_555
O2 Ni1 1_555 1_555
O3 V1 1_555 1_555
O4 H1 1_555 1_555
H2 O4 1_555 1_555
O5 V1 1_555 1_555
O6 V1 1_555 1_555
O7 V2 1_555 1_555
N1 C1 1_555 1_555
N2 C6 1_555 1_555
C1 H3 1_555 1_555
C2 C1 1_555 1_555
H4 C2 1_555 1_555
C3 C2 1_555 1_555
H5 C3 1_555 1_555
C4 C3 1_555 1_555
H6 C4 1_555 1_555
C5 N1 1_555 1_555
C6 C5 1_555 1_555
C7 C6 1_555 1_555
H7 C7 1_555 1_555
C8 C7 1_555 1_555
H8 C8 1_555 1_555
C9 C8 1_555 1_555
H9 C9 1_555 1_555
C10 N2 1_555 1_555
H10 C10 1_555 1_555
Ni1 O4 1_555 1_555
V1 O2 1_555 1_555
V2 O5 1_555 1_555
V2B O6 1_555 1_555
O3B Ni1 1_555 1_555
O6B V2 1_555 1_555
O1A Ni1 1_555 1_555
Ni1B O3 1_555 1_555
Ni1A O1 1_555 1_555
N1 Ni1 1_555 1_555
N2 Ni1 1_555 1_555
C4 C5 1_555 1_555
C9 C10 1_555 1_555

#END
