
#######################################################################
#
#                 Cambridge Crystallographic Data Centre
#                                CCDC 
#
#######################################################################
#
# If this CIF has been generated from an entry in the Cambridge 
# Structural Database, then it will include bibliographic, chemical, 
# crystal, experimental, refinement or atomic coordinate data resulting 
# from the CCDC's data processing and validation procedures.
#
#######################################################################

data_BAGQAC02
_symmetry_cell_setting           orthorhombic
_symmetry_space_group_name_H-M   'P c a 21'
_symmetry_Int_Tables_number      29
_space_group_name_Hall           'P 2c -2ac'
loop_
_symmetry_equiv_pos_site_id
_symmetry_equiv_pos_as_xyz
1 x,y,z
2 -x,-y,1/2+z
3 1/2+x,-y,z
4 1/2-x,y,1/2+z
_cell_length_a                   9.1704(18)
_cell_length_b                   10.519(2)
_cell_length_c                   14.336(3)
_cell_angle_alpha                90
_cell_angle_beta                 90
_cell_angle_gamma                90
_cell_volume                     1382.9
loop_
_atom_site_label
_atom_site_type_symbol
_atom_site_fract_x
_atom_site_fract_y
_atom_site_fract_z
V1 V 0.11366(5) -0.66638(4) -0.12666(3)
V2 V -0.17189(5) -0.53193(4) -0.00795(3)
Ni1 Ni -0.06111(3) -0.63681(3) -0.35289(2)
O1 O 0.0616(2) -0.6357(2) -0.23452(16)
O2 O -0.1344(3) -0.4583(2) -0.30723(18)
H1 H -0.202(4) -0.438(4) -0.328(3)
H2 H -0.143(4) -0.453(4) -0.252(3)
O3 O 0.1587(3) -0.8138(2) -0.1169(2)
O4 O -0.0305(3) -0.6351(2) -0.04578(16)
O5 O 0.2732(2) -0.5678(2) -0.10301(15)
O6 O -0.3122(2) -0.6150(2) 0.02971(16)
O7 O -0.1144(2) -0.4425(2) 0.07963(15)
N1 N -0.2196(3) -0.7394(3) -0.28317(17)
N2 N -0.0029(3) -0.8190(2) -0.38963(17)
C1 C -0.3281(3) -0.6924(3) -0.2311(2)
H3 H -0.3487 -0.6059 -0.2344
C2 C -0.4108(4) -0.7685(4) -0.1722(3)
H4 H -0.4853 -0.7335 -0.1365
C3 C -0.3810(4) -0.8956(4) -0.1677(3)
H5 H -0.4338 -0.9479 -0.1278
C4 C -0.2709(4) -0.9460(4) -0.2234(3)
H6 H -0.2495 -1.0324 -0.2215
C5 C -0.1941(3) -0.8656(3) -0.2814(2)
C6 C -0.0815(3) -0.9112(3) -0.3478(3)
C7 C -0.0609(4) -1.0386(3) -0.3694(3)
H7 H -0.1149 -1.1011 -0.3393
C8 C 0.0414(4) -1.0714(4) -0.4368(3)
H8 H 0.0555 -1.1560 -0.4533
C9 C 0.1217(4) -0.9762(4) -0.4787(2)
H9 H 0.1915 -0.9958 -0.5235
C10 C 0.0971(4) -0.8514(3) -0.4533(2)
H10 H 0.1520 -0.7877 -0.4814
V2B V 0.32811(5) -0.46807(4) -0.00795(3)
Ni1C Ni -0.43889(3) -0.63681(3) 0.14711(2)
Ni1A Ni 0.06111(3) -0.36319(3) 0.14711(2)
O5B O -0.2268(2) -0.4322(2) -0.10301(15)
O6C O -0.1878(2) -0.6150(2) -0.47029(16)
O7A O 0.1144(2) -0.5575(2) -0.42037(15)
loop_
_geom_bond_atom_site_label_1
_geom_bond_atom_site_label_2
_geom_bond_site_symmetry_1
_geom_bond_site_symmetry_2
V1 O1 1_555 1_555
V2 O4 1_555 1_555
Ni1 O1 1_555 1_555
O2 Ni1 1_555 1_555
H1 O2 1_555 1_555
H2 O2 1_555 1_555
O3 V1 1_555 1_555
O4 V1 1_555 1_555
O5 V1 1_555 1_555
O6 V2 1_555 1_555
O7 V2 1_555 1_555
N1 Ni1 1_555 1_555
N2 Ni1 1_555 1_555
C1 N1 1_555 1_555
H3 C1 1_555 1_555
C2 C1 1_555 1_555
H4 C2 1_555 1_555
C3 C2 1_555 1_555
H5 C3 1_555 1_555
C4 C3 1_555 1_555
H6 C4 1_555 1_555
C5 N1 1_555 1_555
C6 N2 1_555 1_555
C7 C6 1_555 1_555
H7 C7 1_555 1_555
C8 C7 1_555 1_555
H8 C8 1_555 1_555
C9 C8 1_555 1_555
H9 C9 1_555 1_555
C10 N2 1_555 1_555
H10 C10 1_555 1_555
V2B O5 1_555 1_555
Ni1C O6 1_555 1_555
Ni1A O7 1_555 1_555
O5B V2 1_555 1_555
O6C Ni1 1_555 1_555
O7A Ni1 1_555 1_555
C4 C5 1_555 1_555
C5 C6 1_555 1_555
C9 C10 1_555 1_555

#END
