
#######################################################################
#
#                 Cambridge Crystallographic Data Centre
#                                CCDC 
#
#######################################################################
#
# If this CIF has been generated from an entry in the Cambridge 
# Structural Database, then it will include bibliographic, chemical, 
# crystal, experimental, refinement or atomic coordinate data resulting 
# from the CCDC's data processing and validation procedures.
#
#######################################################################

data_BAHJUR
_symmetry_cell_setting           monoclinic
_symmetry_space_group_name_H-M   'P 21/n'
_symmetry_Int_Tables_number      14
_space_group_name_Hall           '-P 2yn'
loop_
_symmetry_equiv_pos_site_id
_symmetry_equiv_pos_as_xyz
1 x,y,z
2 1/2-x,1/2+y,1/2-z
3 -x,-y,-z
4 1/2+x,1/2-y,1/2+z
_cell_length_a                   11.7831(8)
_cell_length_b                   14.4426(8)
_cell_length_c                   14.6872(10)
_cell_angle_alpha                90
_cell_angle_beta                 94.730(6)
_cell_angle_gamma                90
_cell_volume                     2490.93
loop_
_atom_site_label
_atom_site_type_symbol
_atom_site_fract_x
_atom_site_fract_y
_atom_site_fract_z
Hg1 Hg 0.745167(14) 0.531960(10) 0.791359(13)
Br1 Br 0.75989(4) 0.68011(3) 0.88507(3)
Br2 Br 0.89481(4) 0.40908(3) 0.79569(4)
N1 N 0.5730(2) 0.4743(2) 0.8325(2)
N2 N 0.4052(2) 0.4800(2) 0.8918(2)
N3 N 0.1070(3) 0.8325(2) 1.0373(2)
N4 N 0.1841(2) 0.9238(2) 1.1472(2)
C1 C 0.4991(3) 0.5255(3) 0.8711(3)
H1 H 0.5105 0.5881 0.8832
C2 C 0.5232(3) 0.3871(2) 0.8254(3)
C3 C 0.5635(3) 0.3062(3) 0.7884(3)
H2 H 0.6338 0.3040 0.7641
C4 C 0.4949(4) 0.2300(3) 0.7896(3)
H3 H 0.5198 0.1745 0.7659
C5 C 0.3891(4) 0.2328(3) 0.8249(3)
H4 H 0.3445 0.1796 0.8232
C6 C 0.3489(3) 0.3123(3) 0.8622(3)
H5 H 0.2788 0.3140 0.8869
C7 C 0.4182(3) 0.3896(2) 0.8613(2)
C8 C 0.3102(3) 0.5187(2) 0.9377(3)
H6 H 0.3363 0.5739 0.9708
H7 H 0.2872 0.4741 0.9820
C9 C 0.2087(3) 0.5432(2) 0.8739(3)
H8 H 0.1758 0.4871 0.8469
H9 H 0.2329 0.5817 0.8250
C10 C 0.1173(3) 0.5952(2) 0.9232(3)
H10 H 0.0495 0.6025 0.8817
H11 H 0.0970 0.5586 0.9748
C11 C 0.1579(3) 0.6904(2) 0.9570(3)
H12 H 0.2186 0.6828 1.0052
H13 H 0.1887 0.7237 0.9072
C12 C 0.0632(3) 0.7469(2) 0.9929(3)
H14 H 0.0077 0.7625 0.9428
H15 H 0.0250 0.7102 1.0365
C13 C 0.1433(3) 0.8406(3) 1.1240(3)
H16 H 0.1406 0.7922 1.1655
C14 C 0.1729(3) 0.9737(3) 1.0661(3)
C15 C 0.1986(3) 1.0659(2) 1.0483(3)
H17 H 0.2314 1.1047 1.0938
C16 C 0.1734(3) 1.0966(3) 0.9608(4)
H18 H 0.1882 1.1581 0.9472
C17 C 0.1262(3) 1.0392(3) 0.8912(3)
H19 H 0.1122 1.0627 0.8324
C18 C 0.0999(3) 0.9478(3) 0.9085(3)
H20 H 0.0674 0.9093 0.8628
C19 C 0.1240(3) 0.9167(3) 0.9964(3)
Hg1C Hg 0.245167(14) 0.968040(10) 1.291359(13)
N4C N 0.6841(2) 0.5762(2) 0.6472(2)
O1 O 0.3942(3) 0.7167(2) 0.8102(3)
N5 N 0.4201(3) 0.8522(3) 0.8880(3)
C20 C 0.3878(4) 0.8010(4) 0.8171(4)
H21 H 0.3562 0.8324 0.7658
C21 C 0.4742(5) 0.8105(4) 0.9683(4)
H22 H 0.4603 0.7450 0.9668
H23 H 0.4439 0.8368 1.0213
H24 H 0.5547 0.8218 0.9708
C22 C 0.4148(4) 0.9508(3) 0.8852(3)
H25 H 0.4895 0.9753 0.8787
H26 H 0.3875 0.9735 0.9408
H27 H 0.3641 0.9700 0.8342
loop_
_geom_bond_atom_site_label_1
_geom_bond_atom_site_label_2
_geom_bond_site_symmetry_1
_geom_bond_site_symmetry_2
Hg1 Br1 1_555 1_555
Br2 Hg1 1_555 1_555
N1 Hg1 1_555 1_555
N2 C1 1_555 1_555
N3 C12 1_555 1_555
N4 C13 1_555 1_555
C1 N1 1_555 1_555
H1 C1 1_555 1_555
C2 N1 1_555 1_555
C3 C2 1_555 1_555
H2 C3 1_555 1_555
C4 C3 1_555 1_555
H3 C4 1_555 1_555
C5 C4 1_555 1_555
H4 C5 1_555 1_555
C6 C5 1_555 1_555
H5 C6 1_555 1_555
C7 N2 1_555 1_555
C8 N2 1_555 1_555
H6 C8 1_555 1_555
H7 C8 1_555 1_555
C9 C8 1_555 1_555
H8 C9 1_555 1_555
H9 C9 1_555 1_555
C10 C9 1_555 1_555
H10 C10 1_555 1_555
H11 C10 1_555 1_555
C11 C10 1_555 1_555
H12 C11 1_555 1_555
H13 C11 1_555 1_555
C12 C11 1_555 1_555
H14 C12 1_555 1_555
H15 C12 1_555 1_555
C13 N3 1_555 1_555
H16 C13 1_555 1_555
C14 N4 1_555 1_555
C15 C14 1_555 1_555
H17 C15 1_555 1_555
C16 C15 1_555 1_555
H18 C16 1_555 1_555
C17 C16 1_555 1_555
H19 C17 1_555 1_555
C18 C17 1_555 1_555
H20 C18 1_555 1_555
C19 N3 1_555 1_555
O1 C20 1_555 1_555
N5 C20 1_555 1_555
C20 H21 1_555 1_555
C21 N5 1_555 1_555
H22 C21 1_555 1_555
H23 C21 1_555 1_555
H24 C21 1_555 1_555
C22 N5 1_555 1_555
H25 C22 1_555 1_555
H26 C22 1_555 1_555
H27 C22 1_555 1_555
Hg1C N4 1_555 1_555
N4C Hg1 1_555 1_555
C2 C7 1_555 1_555
C6 C7 1_555 1_555
C14 C19 1_555 1_555
C18 C19 1_555 1_555

#END
