
#######################################################################
#
#                 Cambridge Crystallographic Data Centre
#                                CCDC 
#
#######################################################################
#
# If this CIF has been generated from an entry in the Cambridge 
# Structural Database, then it will include bibliographic, chemical, 
# crystal, experimental, refinement or atomic coordinate data resulting 
# from the CCDC's data processing and validation procedures.
#
#######################################################################

data_BAHKEB
_symmetry_cell_setting           monoclinic
_symmetry_space_group_name_H-M   'P 21/n'
_symmetry_Int_Tables_number      14
_space_group_name_Hall           '-P 2yn'
loop_
_symmetry_equiv_pos_site_id
_symmetry_equiv_pos_as_xyz
1 x,y,z
2 1/2+x,1/2-y,1/2+z
3 -x,-y,-z
4 1/2-x,1/2+y,1/2-z
_cell_length_a                   8.842(5)
_cell_length_b                   30.420(10)
_cell_length_c                   9.895(4)
_cell_angle_alpha                90
_cell_angle_beta                 96.14(4)
_cell_angle_gamma                90
_cell_volume                     2646.23
loop_
_atom_site_label
_atom_site_type_symbol
_atom_site_fract_x
_atom_site_fract_y
_atom_site_fract_z
N1 N 0.8940(14) 0.5462(5) 0.8690(14)
O1 O 0.9859(17) 0.5757(4) 0.8667(18)
O2 O 0.8892(14) 0.5176(4) 0.7864(12)
O3 O 0.8133(15) 0.5468(5) 0.9572(13)
N2 N 0.7704(14) 0.6994(5) 0.6830(14)
O4 O 0.7860(10) 0.6584(3) 0.7052(9)
O5 O 0.6759(12) 0.7112(4) 0.5890(12)
O6 O 0.8510(14) 0.7250(3) 0.7496(11)
C1 C 0.7297(14) 0.6132(4) 1.1673(12)
N3 N 0.7498(10) 0.6617(3) 1.1714(9)
N4 N 0.8479(11) 0.6790(4) 1.0903(9)
C2 C 0.8417(15) 0.7219(5) 1.1151(14)
C3 C 0.7501(15) 0.7313(4) 1.2117(13)
C4 C 0.6901(14) 0.6925(4) 1.2480(12)
N5 N 0.8185(11) 0.5936(3) 1.2843(9)
N6 N 0.7871(11) 0.5976(3) 1.4134(10)
C5 C 0.8915(15) 0.5727(5) 1.4861(14)
C6 C 0.9887(15) 0.5531(4) 1.4017(16)
C7 C 0.9403(14) 0.5668(4) 1.2746(13)
N7 N 0.5735(12) 0.6006(3) 1.1552(9)
N8 N 0.4802(12) 0.6118(4) 1.2526(10)
C8 C 0.3512(16) 0.5924(5) 1.2110(16)
C9 C 0.3587(16) 0.5693(5) 1.0933(15)
C10 C 0.5018(16) 0.5749(5) 1.0596(13)
C11 C 1.2426(13) 0.6218(4) 0.7008(12)
N9 N 1.3087(10) 0.6478(3) 0.8113(9)
N10 N 1.2156(11) 0.6650(3) 0.9009(10)
C12 C 1.3052(18) 0.6901(4) 0.9821(12)
C13 C 1.4504(16) 0.6913(5) 0.9449(13)
C14 C 1.4522(13) 0.6641(4) 0.8388(14)
N11 N 1.3228(11) 0.5806(3) 0.6867(10)
N12 N 1.4719(11) 0.5793(4) 0.6624(10)
C15 C 1.5097(16) 0.5369(5) 0.6680(14)
C16 C 1.3840(19) 0.5118(4) 0.6937(16)
C17 C 1.2701(15) 0.5399(5) 0.7091(14)
N13 N 1.2178(11) 0.6462(3) 0.5758(9)
N14 N 1.3343(11) 0.6603(3) 0.5052(11)
C18 C 1.2681(18) 0.6851(5) 0.4084(14)
C19 C 1.1149(17) 0.6893(5) 0.4135(14)
C20 C 1.0869(14) 0.6646(5) 0.5226(15)
H1 H 0.76564 0.60152 1.08652
H2 H 0.89468 0.74323 1.06930
H3 H 0.73247 0.75973 1.24675
H4 H 0.62054 0.68802 1.31368
H5 H 0.89851 0.56879 1.58241
H6 H 1.07135 0.53411 1.42735
H7 H 0.98326 0.55903 1.19378
H8 H 0.26240 0.59448 1.25685
H9 H 0.27912 0.55231 1.04558
H10 H 0.54213 0.56283 0.98190
H11 H 1.14323 0.61398 0.72269
H12 H 1.27412 0.70600 1.05807
H13 H 1.53442 0.70814 0.98638
H14 H 1.53917 0.65727 0.79009
H15 H 1.60748 0.52532 0.65621
H16 H 1.38010 0.48057 0.69776
H17 H 1.17204 0.53244 0.73337
H18 H 1.32102 0.69918 0.34148
H19 H 1.04343 0.70579 0.35244
H20 H 0.99030 0.66137 0.55549
Ag1 Ag 0.96516(13) 0.65168(4) 0.91827(12)
Ag2 Ag 0.57752(11) 0.62644(4) 0.50475(10)
N6_2 N 0.7871(11) 0.5976(3) 0.4134(10)
N8_2 N 0.4802(12) 0.6118(4) 0.2526(10)
N12_2 N 0.4719(11) 0.5793(4) 0.6624(10)
N14_2 N 0.3343(11) 0.6603(3) 0.5052(11)
Ag2_2 Ag 0.57752(11) 0.62644(4) 1.50475(10)
Ag2_3 Ag 1.57752(11) 0.62644(4) 0.50475(10)
loop_
_geom_bond_atom_site_label_1
_geom_bond_atom_site_label_2
_geom_bond_site_symmetry_1
_geom_bond_site_symmetry_2
N1 O1 1_555 1_555
O1 Ag1 1_555 1_555
O2 N1 1_555 1_555
O3 N1 1_555 1_555
N2 O4 1_555 1_555
O4 Ag1 1_555 1_555
O5 N2 1_555 1_555
O6 N2 1_555 1_555
C1 N3 1_555 1_555
N3 N4 1_555 1_555
N4 C2 1_555 1_555
C2 C3 1_555 1_555
C3 C4 1_555 1_555
C4 N3 1_555 1_555
N5 C1 1_555 1_555
N6 N5 1_555 1_555
C5 N6 1_555 1_555
C6 C5 1_555 1_555
C7 N5 1_555 1_555
N7 C1 1_555 1_555
N8 N7 1_555 1_555
C8 N8 1_555 1_555
C9 C8 1_555 1_555
C10 N7 1_555 1_555
C11 N9 1_555 1_555
N9 N10 1_555 1_555
N10 C12 1_555 1_555
C12 C13 1_555 1_555
C13 C14 1_555 1_555
C14 N9 1_555 1_555
N11 C11 1_555 1_555
N12 N11 1_555 1_555
C15 N12 1_555 1_555
C16 C15 1_555 1_555
C17 N11 1_555 1_555
N13 C11 1_555 1_555
N14 N13 1_555 1_555
C18 N14 1_555 1_555
C19 C18 1_555 1_555
C20 N13 1_555 1_555
H1 C1 1_555 1_555
H2 C2 1_555 1_555
H3 C3 1_555 1_555
H4 C4 1_555 1_555
H5 C5 1_555 1_555
H6 C6 1_555 1_555
H7 C7 1_555 1_555
H8 C8 1_555 1_555
H9 C9 1_555 1_555
H10 C10 1_555 1_555
H11 C11 1_555 1_555
H12 C12 1_555 1_555
H13 C13 1_555 1_555
H14 C14 1_555 1_555
H15 C15 1_555 1_555
H16 C16 1_555 1_555
H17 C17 1_555 1_555
H18 C18 1_555 1_555
H19 C19 1_555 1_555
H20 C20 1_555 1_555
Ag1 O6 1_555 1_555
Ag2 O4 1_555 1_555
N6_2 Ag2 1_555 1_555
N8_2 Ag2 1_555 1_555
N12_2 Ag2 1_555 1_555
N14_2 Ag2 1_555 1_555
Ag2_2 N6 1_555 1_555
Ag2_3 N12 1_555 1_555
O5 Ag2 1_555 1_555
N4 Ag1 1_555 1_555
C6 C7 1_555 1_555
N8 Ag2_2 1_555 1_555
C9 C10 1_555 1_555
N10 Ag1 1_555 1_555
C16 C17 1_555 1_555
N14 Ag2_3 1_555 1_555
C19 C20 1_555 1_555

#END
