
#######################################################################
#
#                 Cambridge Crystallographic Data Centre
#                                CCDC 
#
#######################################################################
#
# If this CIF has been generated from an entry in the Cambridge 
# Structural Database, then it will include bibliographic, chemical, 
# crystal, experimental, refinement or atomic coordinate data resulting 
# from the CCDC's data processing and validation procedures.
#
#######################################################################

data_BAHLUS
_symmetry_cell_setting           monoclinic
_symmetry_space_group_name_H-M   'P 21/c'
_symmetry_Int_Tables_number      14
_space_group_name_Hall           '-P 2ybc'
loop_
_symmetry_equiv_pos_site_id
_symmetry_equiv_pos_as_xyz
1 x,y,z
2 x,1/2-y,1/2+z
3 -x,-y,-z
4 -x,1/2+y,1/2-z
_cell_length_a                   6.366(3)
_cell_length_b                   11.736(7)
_cell_length_c                   21.998(12)
_cell_angle_alpha                90
_cell_angle_beta                 97.60
_cell_angle_gamma                90
_cell_volume                     1629.06
loop_
_atom_site_label
_atom_site_type_symbol
_atom_site_fract_x
_atom_site_fract_y
_atom_site_fract_z
Ag1 Ag 0.01103(10) 0.61882(5) -0.29371(3)
Ag2 Ag -0.41646(7) 0.48651(4) -0.05698(2)
N1 N -0.1424(7) 0.4510(4) -0.1206(2)
N2 N 0.2428(7) 0.4457(4) -0.1168(2)
N3 N 0.0228(7) 0.5003(4) -0.2111(2)
N4 N 0.0268(7) 0.3020(4) -0.1756(2)
C1 C 0.0629(9) 0.4706(5) -0.0830(3)
H1 H 0.0709 0.5488 -0.0702
H2 H 0.0728 0.4239 -0.0470
C2 C 0.2297(9) 0.3247(5) -0.1358(3)
H3 H 0.3476 0.3057 -0.1569
H4 H 0.2363 0.2774 -0.0999
C3 C -0.1496(9) 0.3302(5) -0.1400(3)
H5 H -0.1409 0.2821 -0.1045
H6 H -0.2828 0.3158 -0.1647
C4 C 0.2257(9) 0.5187(5) -0.1712(3)
H7 H 0.2357 0.5970 -0.1585
H8 H 0.3418 0.5027 -0.1936
C5 C 0.0097(9) 0.3786(5) -0.2296(3)
H9 H -0.1233 0.3652 -0.2546
H10 H 0.1210 0.3616 -0.2536
C6 C -0.1542(9) 0.5235(5) -0.1758(3)
H11 H -0.2865 0.5098 -0.2012
H12 H -0.1502 0.6022 -0.1638
O1 O 0.6689(9) 0.1807(5) -0.5077(3)
O2 O 0.4112(9) 0.1814(4) -0.4490(3)
O3 O 0.4780(10) 0.4012(5) -0.4197(4)
O4 O 0.2389(12) 0.5197(5) -0.3515(3)
O5 O 0.5269(13) 0.6033(5) -0.3013(3)
C7 C 0.5577(11) 0.2284(6) -0.4730(3)
C8 C 0.6111(13) 0.3500(7) -0.4583(4)
H13 H 0.6912 0.4463 -0.3552
H14 H 0.6353 0.5398 -0.4044
C9 C 0.5751(14) 0.4821(7) -0.3810(4)
H15 H 0.6030 0.3921 -0.4961
H16 H 0.7551 0.3548 -0.4385
C10 C 0.4369(17) 0.5383(7) -0.3406(4)
O1A O -0.3311(9) 0.3193(5) -0.0077(3)
Ag2_2 Ag 0.58354(7) 0.48651(4) -0.05698(2)
N4C N -0.0268(7) 0.8020(4) -0.3244(2)
Ag1C Ag -0.01103(10) 0.11882(5) -0.20629(3)
Ag2A Ag 0.58354(7) 0.01349(4) -0.55698(2)
Ag2C Ag 0.41646(7) -0.01349(4) -0.44302(2)
N2_2 N -0.7572(7) 0.4457(4) -0.1168(2)
O2C O -0.4112(9) 0.6814(4) -0.0510(3)
O6 O -0.1281(11) -1.2132(5) -0.1213(4)
H17 H -0.0613 -1.2095 -0.0853
H18 H -0.1690 -1.1479 -0.1212
O7 O -0.4775(10) -0.7224(6) -0.2754(3)
H19 H -0.4932 -0.7426 -0.3208
H20 H -0.4985 -0.7943 -0.2544
O8 O 0.0628(14) -0.8869(8) -0.0387(4)
H21 H -0.0340 -0.9156 -0.0742
H22 H 0.0261 -0.9532 -0.0146
loop_
_geom_bond_atom_site_label_1
_geom_bond_atom_site_label_2
_geom_bond_site_symmetry_1
_geom_bond_site_symmetry_2
Ag1 N3 1_555 1_555
Ag2 N1 1_555 1_555
N1 C1 1_555 1_555
N2 C1 1_555 1_555
N3 C4 1_555 1_555
N4 C2 1_555 1_555
C1 H1 1_555 1_555
H2 C1 1_555 1_555
C2 N2 1_555 1_555
H3 C2 1_555 1_555
H4 C2 1_555 1_555
C3 N1 1_555 1_555
H5 C3 1_555 1_555
H6 C3 1_555 1_555
C4 N2 1_555 1_555
H7 C4 1_555 1_555
H8 C4 1_555 1_555
C5 N3 1_555 1_555
H9 C5 1_555 1_555
H10 C5 1_555 1_555
C6 N1 1_555 1_555
H11 C6 1_555 1_555
H12 C6 1_555 1_555
O1 C7 1_555 1_555
O2 C7 1_555 1_555
O3 C8 1_555 1_555
O4 Ag1 1_555 1_555
O5 C10 1_555 1_555
C7 C8 1_555 1_555
C8 H15 1_555 1_555
H13 C9 1_555 1_555
H14 C9 1_555 1_555
C9 O3 1_555 1_555
H16 C8 1_555 1_555
C10 O4 1_555 1_555
O6 H17 1_555 1_555
H18 O6 1_555 1_555
O7 H19 1_555 1_555
H20 O7 1_555 1_555
O8 H21 1_555 1_555
H22 O8 1_555 1_555
O1A Ag2 1_555 1_555
Ag2_2 N2 1_555 1_555
N4C Ag1 1_555 1_555
Ag1C N4 1_555 1_555
Ag2A O1 1_555 1_555
Ag2C O2 1_555 1_555
N2_2 Ag2 1_555 1_555
O2C Ag2 1_555 1_555
N3 C6 1_555 1_555
N4 C3 1_555 1_555
N4 C5 1_555 1_555
C9 C10 1_555 1_555

#END
