
#######################################################################
#
#                 Cambridge Crystallographic Data Centre
#                                CCDC 
#
#######################################################################
#
# If this CIF has been generated from an entry in the Cambridge 
# Structural Database, then it will include bibliographic, chemical, 
# crystal, experimental, refinement or atomic coordinate data resulting 
# from the CCDC's data processing and validation procedures.
#
#######################################################################

data_BAHMAZ
_symmetry_cell_setting           monoclinic
_symmetry_space_group_name_H-M   'P 21/c'
_symmetry_Int_Tables_number      14
_space_group_name_Hall           '-P 2ybc'
loop_
_symmetry_equiv_pos_site_id
_symmetry_equiv_pos_as_xyz
1 x,y,z
2 x,1/2-y,1/2+z
3 -x,-y,-z
4 -x,1/2+y,1/2-z
_cell_length_a                   12.944(4)
_cell_length_b                   11.998(7)
_cell_length_c                   23.491(14)
_cell_angle_alpha                90
_cell_angle_beta                 95.49
_cell_angle_gamma                90
_cell_volume                     3631.47
loop_
_atom_site_label
_atom_site_type_symbol
_atom_site_fract_x
_atom_site_fract_y
_atom_site_fract_z
Ag1 Ag -0.49518(6) 0.34058(5) 0.23053(3)
Ag2 Ag -0.22866(6) 0.54412(6) 0.44365(3)
Ag3 Ag -0.73000(6) 0.52693(6) 0.44203(3)
Ag4 Ag 0.00554(7) 0.30924(7) 0.24469(3)
N1 N -0.3970(5) 0.5536(5) 0.3826(3)
N2 N -0.4989(5) 0.4716(5) 0.3002(3)
N3 N -0.5847(5) 0.5510(6) 0.3783(3)
N4 N -0.5009(5) 0.6754(5) 0.3153(3)
C1 C -0.4008(7) 0.4640(7) 0.3384(3)
H1 H -0.3966 0.3924 0.3566
H2 H -0.3426 0.4717 0.3163
C2 C -0.4864(6) 0.5425(7) 0.4159(3)
H3 H -0.4833 0.4718 0.4352
H4 H -0.4840 0.6002 0.4443
C3 C -0.4027(7) 0.6624(7) 0.3529(3)
H5 H -0.3451 0.6685 0.3302
H6 H -0.3971 0.7212 0.3807
C4 C -0.5899(6) 0.6610(7) 0.3502(3)
H7 H -0.6540 0.6673 0.3262
H8 H -0.5884 0.7184 0.3787
C5 C -0.5875(7) 0.4631(7) 0.3343(3)
H9 H -0.5864 0.3915 0.3526
H10 H -0.6508 0.4689 0.3096
C6 C -0.5039(8) 0.5827(6) 0.2725(3)
H11 H -0.5671 0.5875 0.2476
H12 H -0.4468 0.5908 0.2496
N5 N -0.0846(6) 0.5442(6) 0.3838(3)
N6 N 0.0025(5) 0.4537(6) 0.3086(3)
N7 N 0.1061(6) 0.5460(6) 0.3879(3)
N8 N 0.0008(6) 0.6565(6) 0.3149(3)
C7 C -0.0876(7) 0.4505(7) 0.3436(3)
H13 H -0.1512 0.4525 0.3189
H14 H -0.0859 0.3820 0.3647
C8 C 0.0169(7) 0.5418(8) 0.4210(3)
H15 H 0.0204 0.4754 0.4439
H16 H 0.0198 0.6046 0.4464
C9 C -0.0877(7) 0.6480(7) 0.3498(4)
H17 H -0.0863 0.7107 0.3752
H18 H -0.1512 0.6512 0.3251
C10 C 0.0990(7) 0.6512(8) 0.3550(4)
H19 H 0.1579 0.6572 0.3333
H20 H 0.1006 0.7131 0.3810
C11 C 0.1004(8) 0.4508(7) 0.3476(4)
H21 H 0.1588 0.4530 0.3254
H22 H 0.1033 0.3823 0.3689
C12 C -0.0014(8) 0.5594(7) 0.2763(3)
H23 H -0.0632 0.5617 0.2502
H24 H 0.0574 0.5628 0.2544
O1 O -0.7614(6) 0.8498(5) 0.0562(3)
O2 O -0.6394(5) 0.8434(6) -0.0050(3)
C13 C -0.6839(8) 0.8054(8) 0.0361(4)
C14 C -0.6385(7) 0.7005(7) 0.0643(3)
C15 C -0.5509(7) 0.6531(8) 0.0447(4)
H25 H -0.5178 0.6901 0.0150
C16 C -0.5114(8) 0.5542(8) 0.0669(4)
H26 H -0.4492 0.5235 0.0541
C17 C -0.5631(8) 0.5008(8) 0.1091(4)
H27 H -0.5387 0.4299 0.1237
C18 C -0.6493(7) 0.5470(7) 0.1293(3)
C19 C -0.6894(7) 0.6492(7) 0.1070(3)
H28 H -0.7497 0.6821 0.1209
C20 C -0.7041(7) 0.4865(7) 0.1747(4)
O3 O -0.7740(6) 0.5375(6) 0.1973(3)
O4 O -0.6760(6) 0.3898(6) 0.1885(3)
O5 O -0.2217(7) 0.7847(6) -0.0152(3)
O6 O -0.2936(7) 0.8393(6) 0.0610(3)
C21 C -0.2561(8) 0.7687(8) 0.0321(4)
C22 C -0.2522(8) 0.6500(8) 0.0547(3)
C23 C -0.2312(8) 0.5620(8) 0.0196(4)
H29 H -0.2194 0.5767 -0.0194
C24 C -0.2252(9) 0.4543(9) 0.0406(4)
H30 H -0.2085 0.3938 0.0163
C25 C -0.2426(9) 0.4339(8) 0.0963(4)
H31 H -0.2398 0.3591 0.1109
C26 C -0.2662(7) 0.5211(7) 0.1327(4)
C27 C -0.2689(7) 0.6296(7) 0.1112(4)
H32 H -0.2812 0.6909 0.1360
C28 C -0.2865(7) 0.4949(8) 0.1937(4)
O7 O -0.2706(6) 0.5712(6) 0.2298(3)
O8 O -0.3217(6) 0.4010(5) 0.2032(3)
N4C N -0.4991(5) 0.1754(5) 0.1847(3)
N7_2 N -0.8939(6) 0.5460(6) 0.3879(3)
N8C N -0.0008(6) 0.1565(6) 0.1851(3)
Ag1C Ag -0.50482(6) 0.84058(5) 0.26947(3)
Ag3_2 Ag 0.27000(6) 0.52693(6) 0.44203(3)
Ag4C Ag -0.00554(7) 0.80924(7) 0.25531(3)
O1C O -0.2386(6) 0.3498(5) 0.4438(3)
O2A O -0.6394(5) 0.6566(6) 0.4950(3)
O5A O -0.2217(7) 0.7153(6) 0.4848(3)
O6C O -0.7064(7) 0.3393(6) 0.4390(3)
Ag2C Ag -0.77134(6) 1.04412(6) 0.05635(3)
Ag3A Ag -0.73000(6) 0.97307(6) -0.05797(3)
Ag2A Ag -0.22866(6) 0.95588(6) -0.05635(3)
Ag3C Ag -0.27000(6) 1.02693(6) 0.05797(3)
O9 O -0.2059(6) -0.2118(6) 0.2339(3)
H33 H -0.2178 -0.1489 0.2589
H34 H -0.2115 -0.2769 0.2591
O10 O -0.0488(9) 0.2511(10) 0.4529(5)
H35 H -0.0157 0.2184 0.4876
H36 H -0.0037 0.2195 0.4254
O11 O 0.0232(10) 0.1701(9) 0.3551(4)
H37 H -0.0105 0.0991 0.3642
H38 H -0.0283 0.1896 0.3325
O12 O -0.0311(8) -0.0556(8) 0.3480(4)
H39 H -0.0325 -0.0919 0.3853
H40 H -0.0975 -0.0241 0.3327
O13 O -0.0350(10) -0.1609(14) 0.4542(5)
H41 H -0.0415 -0.0923 0.4454
H42 H -0.0867 -0.1952 0.4646
O14 O -0.1905(6) 0.2497(7) 0.2638(4)
H43 H -0.2609 0.2974 0.2491
H44 H -0.1986 0.1625 0.2628
loop_
_geom_bond_atom_site_label_1
_geom_bond_atom_site_label_2
_geom_bond_site_symmetry_1
_geom_bond_site_symmetry_2
Ag1 N2 1_555 1_555
Ag2 N1 1_555 1_555
Ag3 N3 1_555 1_555
Ag4 N6 1_555 1_555
N1 C1 1_555 1_555
N2 C1 1_555 1_555
N3 C2 1_555 1_555
N4 C3 1_555 1_555
C1 H1 1_555 1_555
H2 C1 1_555 1_555
C2 N1 1_555 1_555
H3 C2 1_555 1_555
H4 C2 1_555 1_555
C3 N1 1_555 1_555
H5 C3 1_555 1_555
H6 C3 1_555 1_555
C4 N3 1_555 1_555
H7 C4 1_555 1_555
H8 C4 1_555 1_555
C5 N2 1_555 1_555
H9 C5 1_555 1_555
H10 C5 1_555 1_555
C6 N2 1_555 1_555
H11 C6 1_555 1_555
H12 C6 1_555 1_555
N5 Ag2 1_555 1_555
N6 C7 1_555 1_555
N7 C8 1_555 1_555
N8 C9 1_555 1_555
C7 N5 1_555 1_555
H13 C7 1_555 1_555
H14 C7 1_555 1_555
C8 N5 1_555 1_555
H15 C8 1_555 1_555
H16 C8 1_555 1_555
C9 N5 1_555 1_555
H17 C9 1_555 1_555
H18 C9 1_555 1_555
C10 N7 1_555 1_555
H19 C10 1_555 1_555
H20 C10 1_555 1_555
C11 N6 1_555 1_555
H21 C11 1_555 1_555
H22 C11 1_555 1_555
C12 N6 1_555 1_555
H23 C12 1_555 1_555
H24 C12 1_555 1_555
O1 C13 1_555 1_555
O2 C13 1_555 1_555
C13 C14 1_555 1_555
C14 C15 1_555 1_555
C15 H25 1_555 1_555
C16 C15 1_555 1_555
H26 C16 1_555 1_555
C17 C16 1_555 1_555
H27 C17 1_555 1_555
C18 C17 1_555 1_555
C19 C14 1_555 1_555
H28 C19 1_555 1_555
C20 C18 1_555 1_555
O3 C20 1_555 1_555
O4 Ag1 1_555 1_555
O5 C21 1_555 1_555
O6 C21 1_555 1_555
C21 C22 1_555 1_555
C22 C23 1_555 1_555
C23 H29 1_555 1_555
C24 C23 1_555 1_555
H30 C24 1_555 1_555
C25 C24 1_555 1_555
H31 C25 1_555 1_555
C26 C25 1_555 1_555
C27 C22 1_555 1_555
H32 C27 1_555 1_555
C28 C26 1_555 1_555
O7 C28 1_555 1_555
O8 Ag1 1_555 1_555
O9 H33 1_555 1_555
H34 O9 1_555 1_555
O10 H35 1_555 1_555
H36 O10 1_555 1_555
O11 H37 1_555 1_555
H38 O11 1_555 1_555
O12 H39 1_555 1_555
H40 O12 1_555 1_555
O13 H41 1_555 1_555
H42 O13 1_555 1_555
O14 H43 1_555 1_555
H44 O14 1_555 1_555
N4C Ag1 1_555 1_555
N7_2 Ag3 1_555 1_555
N8C Ag4 1_555 1_555
Ag1C N4 1_555 1_555
Ag3_2 N7 1_555 1_555
Ag4C N8 1_555 1_555
O1C Ag2 1_555 1_555
O2A Ag3 1_555 1_555
O5A Ag2 1_555 1_555
O6C Ag3 1_555 1_555
Ag2C O1 1_555 1_555
Ag3A O2 1_555 1_555
Ag2A O5 1_555 1_555
Ag3C O6 1_555 1_555
N3 C5 1_555 1_555
N4 C6 1_555 1_555
N4 C4 1_555 1_555
N7 C11 1_555 1_555
N8 C12 1_555 1_555
N8 C10 1_555 1_555
C18 C19 1_555 1_555
C20 O4 1_555 1_555
C26 C27 1_555 1_555
C28 O8 1_555 1_555

#END
