
#######################################################################
#
#                 Cambridge Crystallographic Data Centre
#                                CCDC 
#
#######################################################################
#
# If this CIF has been generated from an entry in the Cambridge 
# Structural Database, then it will include bibliographic, chemical, 
# crystal, experimental, refinement or atomic coordinate data resulting 
# from the CCDC's data processing and validation procedures.
#
#######################################################################

data_BAHMAY
_symmetry_cell_setting           triclinic
_symmetry_space_group_name_H-M   'P 1'
_symmetry_Int_Tables_number      1
_space_group_name_Hall           'P 1'
loop_
_symmetry_equiv_pos_site_id
_symmetry_equiv_pos_as_xyz
1 x,y,z
_cell_length_a                   11.289(2)
_cell_length_b                   10.093(2)
_cell_length_c                   11.831(2)
_cell_angle_alpha                107.99(1)
_cell_angle_beta                 114.40(1)
_cell_angle_gamma                114.97(1)
_cell_volume                     902.299
loop_
_atom_site_label
_atom_site_type_symbol
_atom_site_fract_x
_atom_site_fract_y
_atom_site_fract_z
Cu1 Cu 0.00000 0.00000 0.00000
O1 O 0.23690 0.21860 0.14850
O2 O -0.23800 -0.21900 -0.15090
O3 O -0.07480 0.09480 0.14550
N1 N -0.44070 0.05030 -0.30350
C1 C -0.38500 0.17580 -0.33000
N2 N -0.49300 0.19820 -0.40380
N3 N -0.23350 0.27240 -0.29040
C2 C -0.13920 0.23670 -0.21520
C3 C -0.17830 0.11900 -0.17640
C4 C -0.34550 0.01090 -0.22350
O4 O -0.40600 -0.09980 -0.20130
N4 N -0.03930 0.12730 -0.09430
C5 C 0.07890 0.24900 -0.08600
N5 N 0.02590 0.32020 -0.15700
C6 C 0.13350 0.45970 -0.16320
O5 O 0.16680 0.61870 -0.07750
C7 C 0.05170 0.40930 -0.32380
O6 O 0.06890 0.29440 -0.40890
C8 C 0.14670 0.59340 -0.29250
O7 O 0.31080 0.65630 -0.24220
C9 C 0.15370 0.69930 -0.16260
C10 C -0.00290 0.68630 -0.21790
O8 O 0.03640 0.85490 -0.17920
P1 P -0.09210 0.09510 -0.55650
O9 O -0.14140 -0.01360 -0.49230
O10 O -0.02610 0.03850 -0.62870
O11 O -0.23450 0.08880 -0.64770
N6 N 0.44600 -0.05400 0.27920
C11 C 0.38830 -0.19370 0.29370
N7 N 0.49910 -0.21880 0.35830
N8 N 0.23750 -0.29520 0.25400
C12 C 0.14310 -0.24990 0.19240
C13 C 0.18790 -0.11490 0.17380
C14 C 0.35280 -0.00450 0.22110
O12 O 0.42020 0.12470 0.21410
N9 N 0.04940 -0.12240 0.10100
C15 C -0.07050 -0.25570 0.08080
N10 N -0.02290 -0.33940 0.13240
C16 C -0.11670 -0.49040 0.13200
O13 O -0.28650 -0.60960 -0.00510
C17 C -0.13500 -0.45250 0.25680
O14 O 0.01600 -0.36420 0.40230
C18 C -0.27930 -0.64440 0.19020
O15 O -0.21930 -0.74060 0.20290
C19 C -0.39440 -0.71720 0.02090
C20 C -0.54020 -0.71570 -0.03220
O16 O -0.49630 -0.55480 0.07530
P2 P 0.11250 -0.16240 0.53520
O17 O 0.15060 -0.05080 0.47020
O18 O -0.00560 -0.16040 0.56520
O19 O 0.27040 -0.10580 0.66270
H1 H -0.53400 0.01200 -0.29600
H2 H -0.61600 0.10500 -0.47900
H3 H -0.47100 0.28000 -0.43500
H4 H 0.19800 0.28400 -0.01700
H5 H 0.24200 0.46900 -0.10800
H6 H -0.07500 0.36200 -0.38300
H7 H 0.09000 0.59100 -0.39300
H8 H 0.36400 0.74800 -0.25400
H9 H 0.26300 0.84000 -0.09000
H10 H -0.09700 -0.06900 -0.46200
H11 H -0.04200 0.67500 -0.15000
H12 H -0.10100 0.60300 -0.33900
H13 H 0.02700 0.87700 -0.25400
H14 H 0.56900 0.02100 0.33400
H15 H 0.47000 -0.31800 0.37400
H16 H 0.60500 -0.17800 0.37600
H17 H -0.19700 -0.31000 0.02900
H18 H -0.06600 -0.56000 0.12800
H19 H -0.19100 -0.39000 0.23800
H20 H -0.23100 -0.78700 0.26000
H21 H -0.45100 -0.85600 -0.05300
H22 H 0.25900 0.01500 0.49300
H23 H -0.58000 -0.70700 -0.12700
H24 H -0.60800 -0.81300 -0.01900
H25 H -0.44200 -0.45900 0.06700
H26 H 0.30100 0.17400 0.16500
H27 H 0.29600 0.33300 0.24300
H28 H -0.30800 -0.19300 -0.19900
H29 H -0.28200 -0.29900 -0.25300
H30 H -0.12100 0.15300 0.16000
H31 H -0.12900 0.00800 0.16100
O8_2 O 0.03640 -0.14510 -0.17920
Cu1_2 Cu 0.00000 1.00000 0.00000
H13_2 H 0.02700 -0.12300 -0.25400
O20 O -0.36900 0.57300 -0.61860
O21 O -0.42300 0.49020 -0.43860
O22 O -0.73030 0.48400 -0.65470
O23 O -0.42740 0.71000 -0.97940
O24 O -0.69050 0.41200 -0.45090
loop_
_geom_bond_atom_site_label_1
_geom_bond_atom_site_label_2
_geom_bond_site_symmetry_1
_geom_bond_site_symmetry_2
Cu1 O1 1_555 1_555
O1 H26 1_555 1_555
O2 Cu1 1_555 1_555
O3 Cu1 1_555 1_555
N1 C1 1_555 1_555
C1 N2 1_555 1_555
N2 H2 1_555 1_555
N3 C1 1_555 1_555
C2 N3 1_555 1_555
C3 C2 1_555 1_555
C4 N1 1_555 1_555
O4 C4 1_555 1_555
N4 Cu1 1_555 1_555
C5 N4 1_555 1_555
N5 C2 1_555 1_555
C6 N5 1_555 1_555
O5 C6 1_555 1_555
C7 C6 1_555 1_555
O6 C7 1_555 1_555
C8 C7 1_555 1_555
O7 C8 1_555 1_555
C9 O5 1_555 1_555
C10 C9 1_555 1_555
O8 C10 1_555 1_555
P1 O6 1_555 1_555
O9 P1 1_555 1_555
O10 P1 1_555 1_555
O11 P1 1_555 1_555
N6 C11 1_555 1_555
C11 N7 1_555 1_555
N7 H15 1_555 1_555
N8 C11 1_555 1_555
C12 N8 1_555 1_555
C13 C12 1_555 1_555
C14 N6 1_555 1_555
O12 C14 1_555 1_555
N9 Cu1 1_555 1_555
C15 N9 1_555 1_555
N10 C12 1_555 1_555
C16 N10 1_555 1_555
O13 C16 1_555 1_555
C17 C16 1_555 1_555
O14 C17 1_555 1_555
C18 C17 1_555 1_555
O15 C18 1_555 1_555
C19 O13 1_555 1_555
C20 C19 1_555 1_555
O16 C20 1_555 1_555
P2 O14 1_555 1_555
O17 P2 1_555 1_555
O18 P2 1_555 1_555
O19 P2 1_555 1_555
H1 N1 1_555 1_555
H3 N2 1_555 1_555
H4 C5 1_555 1_555
H5 C6 1_555 1_555
H6 C7 1_555 1_555
H7 C8 1_555 1_555
H8 O7 1_555 1_555
H9 C9 1_555 1_555
H10 O9 1_555 1_555
H11 C10 1_555 1_555
H12 C10 1_555 1_555
H13 O8 1_555 1_555
H14 N6 1_555 1_555
H16 N7 1_555 1_555
H17 C15 1_555 1_555
H18 C16 1_555 1_555
H19 C17 1_555 1_555
H20 O15 1_555 1_555
H21 C19 1_555 1_555
H22 O17 1_555 1_555
H23 C20 1_555 1_555
H24 C20 1_555 1_555
H25 O16 1_555 1_555
H27 O1 1_555 1_555
H28 O2 1_555 1_555
H29 O2 1_555 1_555
H30 O3 1_555 1_555
H31 O3 1_555 1_555
O8_2 Cu1 1_555 1_555
Cu1_2 O8 1_555 1_555
H13_2 O8_2 1_555 1_555
C3 C4 1_555 1_555
C3 N4 1_555 1_555
C5 N5 1_555 1_555
C8 C9 1_555 1_555
C13 C14 1_555 1_555
C13 N9 1_555 1_555
C15 N10 1_555 1_555
C18 C19 1_555 1_555

#END
