
#######################################################################
#
#                 Cambridge Crystallographic Data Centre
#                                CCDC 
#
#######################################################################
#
# If this CIF has been generated from an entry in the Cambridge 
# Structural Database, then it will include bibliographic, chemical, 
# crystal, experimental, refinement or atomic coordinate data resulting 
# from the CCDC's data processing and validation procedures.
#
#######################################################################

data_BAHNIJ
_symmetry_cell_setting           monoclinic
_symmetry_space_group_name_H-M   'C 2/c'
_symmetry_Int_Tables_number      15
_space_group_name_Hall           '-C 2yn'
loop_
_symmetry_equiv_pos_site_id
_symmetry_equiv_pos_as_xyz
1 x,y,z
2 -x,y,1/2-z
3 1/2+x,1/2+y,z
4 1/2-x,1/2+y,1/2-z
5 -x,-y,-z
6 x,-y,1/2+z
7 1/2-x,1/2-y,-z
8 1/2+x,1/2-y,1/2+z
_cell_length_a                   19.560(4)
_cell_length_b                   12.428(3)
_cell_length_c                   15.761(3)
_cell_angle_alpha                90
_cell_angle_beta                 105.70(3)
_cell_angle_gamma                90
_cell_volume                     3688.43
loop_
_atom_site_label
_atom_site_type_symbol
_atom_site_fract_x
_atom_site_fract_y
_atom_site_fract_z
Zn1 Zn 0.123966(15) 0.09452(2) 0.123243(17)
N1 N 0.13768(10) 0.18644(16) 0.02261(12)
N2 N 0.17044(12) 0.32249(17) -0.05138(14)
N3 N 0.15923(10) 0.23041(16) -0.10023(12)
N4 N 0.11282(11) 0.28085(16) -0.25206(12)
N5 N 0.05823(12) 0.22098(18) -0.30235(14)
N6 N 0.01418(12) 0.2847(2) -0.35556(15)
O1 O 0.18373(9) 0.16421(13) 0.22912(10)
O2 O 0.15859(10) 0.02949(15) 0.30888(12)
O3 O 0.32902(10) 0.45627(14) 0.37572(11)
O4 O 0.41610(10) 0.43369(15) 0.49547(13)
O5 O 0.02531(9) 0.11788(15) 0.12572(11)
H1 H 0.0150 0.0761 0.1631
H2 H -0.0065 0.1094 0.0773
C1 C 0.15664(14) 0.2915(2) 0.02139(16)
H3 H 0.1596 0.3376 0.0687
C2 C 0.13978(13) 0.15085(19) -0.05591(15)
H4 H 0.1292 0.0811 -0.0766
C3 C 0.16952(14) 0.2284(2) -0.18864(15)
H5 H 0.2140 0.2637 -0.1875
H6 H 0.1727 0.1543 -0.2064
C4 C 0.10318(13) 0.3870(2) -0.27384(15)
C5 C 0.14144(14) 0.4803(2) -0.24351(17)
H7 H 0.1842 0.4788 -0.1996
C6 C 0.11233(17) 0.5746(2) -0.2822(2)
H8 H 0.1358 0.6390 -0.2636
C7 C 0.04839(18) 0.5765(3) -0.3487(2)
H9 H 0.0305 0.6424 -0.3729
C8 C 0.01162(16) 0.4853(3) -0.3794(2)
H10 H -0.0305 0.4874 -0.4244
C9 C 0.03973(14) 0.3882(2) -0.34035(17)
C10 C 0.19357(13) 0.10943(18) 0.30066(16)
C11 C 0.25281(12) 0.14791(18) 0.37619(14)
C12 C 0.28035(12) 0.25042(18) 0.37565(14)
H11 H 0.2610 0.2959 0.3284
C13 C 0.33620(12) 0.28680(18) 0.44419(15)
C14 C 0.36470(13) 0.2194(2) 0.51489(16)
H12 H 0.4025 0.2427 0.5609
C15 C 0.33677(14) 0.1170(2) 0.51695(17)
H13 H 0.3555 0.0721 0.5648
C16 C 0.28136(13) 0.0814(2) 0.44845(16)
H14 H 0.2629 0.0127 0.4504
C17 C 0.36348(13) 0.39862(19) 0.43990(16)
Zn1C Zn 0.376034(15) 0.59452(2) 0.376757(17)
O3C O 0.17098(10) -0.04373(14) 0.12428(11)
O6 O 0.0000 -0.0075(3) 0.2500
H15 H -0.0052 -0.0478 0.2914
H15A H 0.0052 -0.0478 0.2086
loop_
_geom_bond_atom_site_label_1
_geom_bond_atom_site_label_2
_geom_bond_site_symmetry_1
_geom_bond_site_symmetry_2
Zn1 N1 1_555 1_555
N1 C1 1_555 1_555
N2 N3 1_555 1_555
N3 C2 1_555 1_555
N4 N5 1_555 1_555
N5 N6 1_555 1_555
N6 C9 1_555 1_555
O1 Zn1 1_555 1_555
O2 C10 1_555 1_555
O3 C17 1_555 1_555
O4 C17 1_555 1_555
O5 Zn1 1_555 1_555
H1 O5 1_555 1_555
H2 O5 1_555 1_555
C1 N2 1_555 1_555
H3 C1 1_555 1_555
C2 N1 1_555 1_555
H4 C2 1_555 1_555
C3 N3 1_555 1_555
H5 C3 1_555 1_555
H6 C3 1_555 1_555
C4 N4 1_555 1_555
C5 C4 1_555 1_555
H7 C5 1_555 1_555
C6 C5 1_555 1_555
H8 C6 1_555 1_555
C7 C6 1_555 1_555
H9 C7 1_555 1_555
C8 C7 1_555 1_555
H10 C8 1_555 1_555
C9 C4 1_555 1_555
C10 O1 1_555 1_555
C11 C10 1_555 1_555
C12 C11 1_555 1_555
H11 C12 1_555 1_555
C13 C12 1_555 1_555
C14 C13 1_555 1_555
H12 C14 1_555 1_555
C15 C14 1_555 1_555
H13 C15 1_555 1_555
C16 C11 1_555 1_555
H14 C16 1_555 1_555
C17 C13 1_555 1_555
O6 H15 1_555 1_555
Zn1C O3 1_555 1_555
O3C Zn1 1_555 1_555
H15A O6 1_555 1_555
N4 C3 1_555 1_555
C8 C9 1_555 1_555
C15 C16 1_555 1_555

#END
