
#######################################################################
#
#                 Cambridge Crystallographic Data Centre
#                                CCDC 
#
#######################################################################
#
# If this CIF has been generated from an entry in the Cambridge 
# Structural Database, then it will include bibliographic, chemical, 
# crystal, experimental, refinement or atomic coordinate data resulting 
# from the CCDC's data processing and validation procedures.
#
#######################################################################

data_BAHOXH13
_symmetry_cell_setting           monoclinic
_symmetry_space_group_name_H-M   'C 2/c'
_symmetry_Int_Tables_number      15
_space_group_name_Hall           '-C 2yn'
loop_
_symmetry_equiv_pos_site_id
_symmetry_equiv_pos_as_xyz
1 x,y,z
2 -x,y,1/2-z
3 1/2+x,1/2+y,z
4 1/2-x,1/2+y,1/2-z
5 -x,-y,-z
6 x,-y,1/2+z
7 1/2-x,1/2-y,-z
8 1/2+x,1/2-y,1/2+z
_cell_length_a                   14.405(4)
_cell_length_b                   5.3976(14)
_cell_length_c                   12.398(3)
_cell_angle_alpha                90
_cell_angle_beta                 116.123(10)
_cell_angle_gamma                90
_cell_volume                     865.505
loop_
_atom_site_label
_atom_site_type_symbol
_atom_site_fract_x
_atom_site_fract_y
_atom_site_fract_z
Ba1 Ba 0.0000 0.83402(3) 0.2500
O1 O -0.01261(15) 0.3657(3) 0.12139(17)
C1 C -0.26526(19) 0.6606(3) 0.0385(2)
O2 O -0.19726(12) 0.5816(3) 0.13478(14)
O3 O -0.36142(12) 0.6101(3) -0.00557(15)
O4 O -0.18279(14) 1.0943(3) 0.21313(19)
O5 O -0.07517(12) 0.2406(3) -0.07115(14)
H1 H -0.1077 0.1365 -0.0506
C2 C -0.02406(15) 0.3892(4) 0.01855(18)
H2 H -0.183(3) 1.230(9) 0.193(4)
H3 H -0.216(5) 1.083(12) 0.252(5)
Ba1F Ba -0.5000 0.66598(3) -0.2500
Ba1D Ba 0.0000 0.16598(3) -0.2500
O1D O 0.01261(15) 0.6343(3) -0.12139(17)
O1A O 0.01261(15) 0.3657(3) 0.37861(17)
C1F C -0.23474(19) 0.8394(3) -0.0385(2)
O2F O -0.30274(12) 0.9184(3) -0.13478(14)
O2A O 0.19726(12) 0.5816(3) 0.36522(14)
O3F O -0.13858(12) 0.8899(3) 0.00557(15)
O3G O 0.13858(12) 0.8899(3) 0.49443(15)
O4A O 0.18279(14) 1.0943(3) 0.28687(19)
O5D O 0.07517(12) 0.7594(3) 0.07115(14)
O5E O -0.07517(12) 0.7594(3) 0.42885(14)
H1D H 0.1077 0.8635 0.0506
H1E H -0.1077 0.8635 0.4494
C2D C 0.02406(15) 0.6108(4) -0.01855(18)
H2A H 0.183(3) 1.230(9) 0.307(4)
H3A H 0.216(5) 1.083(12) 0.248(5)
loop_
_geom_bond_atom_site_label_1
_geom_bond_atom_site_label_2
_geom_bond_site_symmetry_1
_geom_bond_site_symmetry_2
Ba1 O1 1_555 1_555
O1 C2 1_555 1_555
C1 O2 1_555 1_555
O2 Ba1 1_555 1_555
O3 C1 1_555 1_555
O4 Ba1 1_555 1_555
O5 H1 1_555 1_555
C2 O5 1_555 1_555
H2 O4 1_555 1_555
H3 O4 1_555 1_555
Ba1F O3 1_555 1_555
Ba1D O5 1_555 1_555
O1D Ba1D 1_555 1_555
O1A Ba1 1_555 1_555
C1F C1 1_555 1_555
O2F Ba1F 1_555 1_555
O2A Ba1 1_555 1_555
O3F Ba1 1_555 1_555
O3G Ba1 1_555 1_555
O4A Ba1 1_555 1_555
O5D Ba1 1_555 1_555
O5E Ba1 1_555 1_555
H1D O5D 1_555 1_555
H1E O5E 1_555 1_555
C2D C2 1_555 1_555
H2A O4A 1_555 1_555
H3A O4A 1_555 1_555
O1D C2D 1_555 1_555
C1F O2F 1_555 1_555
C1F O3F 1_555 1_555
O5D C2D 1_555 1_555

#END
