
#######################################################################
#
#                 Cambridge Crystallographic Data Centre
#                                CCDC 
#
#######################################################################
#
# If this CIF has been generated from an entry in the Cambridge 
# Structural Database, then it will include bibliographic, chemical, 
# crystal, experimental, refinement or atomic coordinate data resulting 
# from the CCDC's data processing and validation procedures.
#
#######################################################################

data_BAHPUX
_symmetry_cell_setting           tetragonal
_symmetry_space_group_name_H-M   'P 4/m n c'
_symmetry_Int_Tables_number      128
_space_group_name_Hall           '-P 4 2n'
loop_
_symmetry_equiv_pos_site_id
_symmetry_equiv_pos_as_xyz
1 x,y,z
2 -x,-y,z
3 -y,x,z
4 y,-x,z
5 1/2-x,1/2+y,1/2-z
6 1/2+x,1/2-y,1/2-z
7 1/2+y,1/2+x,1/2-z
8 1/2-y,1/2-x,1/2-z
9 -x,-y,-z
10 x,y,-z
11 y,-x,-z
12 -y,x,-z
13 1/2+x,1/2-y,1/2+z
14 1/2-x,1/2+y,1/2+z
15 1/2-y,1/2-x,1/2+z
16 1/2+y,1/2+x,1/2+z
_cell_length_a                   14.4569(10)
_cell_length_b                   14.4569(10)
_cell_length_c                   15.1276(14)
_cell_angle_alpha                90
_cell_angle_beta                 90
_cell_angle_gamma                90
_cell_volume                     3161.7
loop_
_atom_site_label
_atom_site_type_symbol
_atom_site_fract_x
_atom_site_fract_y
_atom_site_fract_z
Zn1 Zn 0.0000 0.5000 0.7500
C1 C -0.0720(10) 0.3479(10) 0.6369(9)
H1 H -0.1315 0.3725 0.6388
C2 C 0.0690(10) 0.3254(10) 0.6556(9)
H2 H 0.1297 0.3322 0.6749
N1 N -0.0005(6) 0.3841(6) 0.6780(5)
N2 N 0.0417(12) 0.2592(9) 0.6048(8)
N3 N -0.0498(11) 0.2734(8) 0.5929(7)
C3 C -0.1027(16) 0.2164(16) 0.5421(13)
H3 H -0.1663 0.2269 0.5600
H4 H -0.0876 0.1538 0.5600
Zn1H Zn 0.0000 0.5000 0.2500
C1I C -0.0720(10) 0.3479(10) 0.3631(9)
C1A C 0.0720(10) 0.6521(10) 0.6369(9)
C1H C 0.0720(10) 0.6521(10) 0.3631(9)
H1I H -0.1315 0.3725 0.3612
H1A H 0.1315 0.6275 0.6388
H1H H 0.1315 0.6275 0.3612
C2I C 0.0690(10) 0.3254(10) 0.3444(9)
C2A C -0.0690(10) 0.6746(10) 0.6556(9)
C2H C -0.0690(10) 0.6746(10) 0.3444(9)
H2I H 0.1297 0.3322 0.3251
H2A H -0.1297 0.6678 0.6749
H2H H -0.1297 0.6678 0.3251
N1I N -0.0005(6) 0.3841(6) 0.3220(5)
N1A N 0.0005(6) 0.6159(6) 0.6780(5)
N1H N 0.0005(6) 0.6159(6) 0.3220(5)
N1F N -0.1159(6) 0.4995(6) 0.8220(5)
N1G N 0.1159(6) 0.5005(6) 0.8220(5)
N2I N 0.0417(12) 0.2592(9) 0.3952(8)
N2A N -0.0417(12) 0.7408(9) 0.6048(8)
N2H N -0.0417(12) 0.7408(9) 0.3952(8)
N3I N -0.0498(11) 0.2734(8) 0.4071(7)
N3A N 0.0498(11) 0.7266(8) 0.5929(7)
N3H N 0.0498(11) 0.7266(8) 0.4071(7)
C3I C -0.1027(16) 0.2164(16) 0.4579(13)
C3A C 0.1027(16) 0.7836(16) 0.5421(13)
C3H C 0.1027(16) 0.7836(16) 0.4579(13)
H3I H -0.1663 0.2269 0.4400
H3A H 0.1663 0.7731 0.5600
H3H H 0.1663 0.7731 0.4400
H4I H -0.0876 0.1538 0.4400
H4A H 0.0876 0.8462 0.5600
H4H H 0.0876 0.8462 0.4400
O7 O 0.0000 1.0000 0.389(4)
Si1 Si 0.0000 1.0000 0.0000
W1 W 0.13305(3) 1.11012(3) -0.16516(3)
W2 W 0.24307(4) 0.97623(4) 0.0000
O1 O 0.0925(8) 0.9906(7) -0.0617(7)
O2 O 0.1273(8) 0.9876(5) -0.2081(7)
O3 O 0.2263(9) 1.0703(6) -0.0855(7)
O4 O 0.1965(7) 1.1611(7) -0.2442(6)
O5 O 0.3575(8) 0.9679(9) 0.0000
O6 O 0.2097(6) 0.8878(9) -0.0858(7)
W1A W -0.13305(3) 0.88988(3) -0.16516(3)
W1B W -0.11012(3) 1.13305(3) -0.16516(3)
W1C W 0.11012(3) 0.86695(3) -0.16516(3)
W1H W -0.13305(3) 0.88988(3) 0.16516(3)
W1I W 0.13305(3) 1.11012(3) 0.16516(3)
W1J W 0.11012(3) 0.86695(3) 0.16516(3)
W1K W -0.11012(3) 1.13305(3) 0.16516(3)
W2A W -0.24307(4) 1.02377(4) 0.0000
W2B W 0.02377(4) 1.24307(4) 0.0000
W2C W -0.02377(4) 0.75693(4) 0.0000
O1A O -0.0925(8) 1.0094(7) -0.0617(7)
O1B O 0.0094(7) 1.0925(8) -0.0617(7)
O1C O -0.0094(7) 0.9075(8) -0.0617(7)
O1H O -0.0925(8) 1.0094(7) 0.0617(7)
O1I O 0.0925(8) 0.9906(7) 0.0617(7)
O1J O -0.0094(7) 0.9075(8) 0.0617(7)
O1K O 0.0094(7) 1.0925(8) 0.0617(7)
O2B O 0.0124(5) 1.1273(8) -0.2081(7)
O2A O -0.1273(8) 1.0124(5) -0.2081(7)
O2C O -0.0124(5) 0.8727(8) -0.2081(7)
O2H O -0.1273(8) 1.0124(5) 0.2081(7)
O2J O -0.0124(5) 0.8727(8) 0.2081(7)
O2I O 0.1273(8) 0.9876(5) 0.2081(7)
O2K O 0.0124(5) 1.1273(8) 0.2081(7)
O3I O 0.2263(9) 1.0703(6) 0.0855(7)
O3A O -0.2263(9) 0.9297(6) -0.0855(7)
O3H O -0.2263(9) 0.9297(6) 0.0855(7)
O3B O -0.0703(6) 1.2263(9) -0.0855(7)
O3K O -0.0703(6) 1.2263(9) 0.0855(7)
O3C O 0.0703(6) 0.7737(9) -0.0855(7)
O3J O 0.0703(6) 0.7737(9) 0.0855(7)
O4A O -0.1965(7) 0.8389(7) -0.2442(6)
O4B O -0.1611(7) 1.1965(7) -0.2442(6)
O4C O 0.1611(7) 0.8035(7) -0.2442(6)
O4H O -0.1965(7) 0.8389(7) 0.2442(6)
O4I O 0.1965(7) 1.1611(7) 0.2442(6)
O4J O 0.1611(7) 0.8035(7) 0.2442(6)
O4K O -0.1611(7) 1.1965(7) 0.2442(6)
O5A O -0.3575(8) 1.0321(9) 0.0000
O5B O 0.0321(9) 1.3575(8) 0.0000
O5C O -0.0321(9) 0.6425(8) 0.0000
O6I O 0.2097(6) 0.8878(9) 0.0858(7)
O6B O 0.1122(9) 1.2097(6) -0.0858(7)
O6A O -0.2097(6) 1.1122(9) -0.0858(7)
O6H O -0.2097(6) 1.1122(9) 0.0858(7)
O6K O 0.1122(9) 1.2097(6) 0.0858(7)
O6C O -0.1122(9) 0.7903(6) -0.0858(7)
O6J O -0.1122(9) 0.7903(6) 0.0858(7)
loop_
_geom_bond_atom_site_label_1
_geom_bond_atom_site_label_2
_geom_bond_site_symmetry_1
_geom_bond_site_symmetry_2
Si1 O1 1_555 1_555
W1 O1 1_555 1_555
W2 O1 1_555 1_555
O1 W1C 1_555 1_555
O2 W1 1_555 1_555
O3 W1 1_555 1_555
O4 W1 1_555 1_555
O5 W2 1_555 1_555
O6 W2 1_555 1_555
Zn1 N1 1_555 1_555
C1 H1 1_555 1_555
C2 H2 1_555 1_555
N1 C1 1_555 1_555
N2 C2 1_555 1_555
N3 C1 1_555 1_555
C3 N3 1_555 1_555
H3 C3 1_555 1_555
H4 C3 1_555 1_555
W1A O1A 1_555 1_555
W1B O1A 1_555 1_555
W1C O2 1_555 1_555
W1H O1H 1_555 1_555
W1I O1I 1_555 1_555
W1J O1I 1_555 1_555
W1K O1H 1_555 1_555
W2A O1A 1_555 1_555
W2B O1B 1_555 1_555
W2C O1C 1_555 1_555
O1A Si1 1_555 1_555
O1B Si1 1_555 1_555
O1C Si1 1_555 1_555
O1H Si1 1_555 1_555
O1I Si1 1_555 1_555
O1J Si1 1_555 1_555
O1K Si1 1_555 1_555
O2B W1 1_555 1_555
O2A W1A 1_555 1_555
O2C W1A 1_555 1_555
O2H W1H 1_555 1_555
O2J W1H 1_555 1_555
O2I W1I 1_555 1_555
O2K W1I 1_555 1_555
O3I W2 1_555 1_555
O3A W1A 1_555 1_555
O3H W1H 1_555 1_555
O3B W1B 1_555 1_555
O3K W1K 1_555 1_555
O3C W1C 1_555 1_555
O3J W1J 1_555 1_555
O4A W1A 1_555 1_555
O4B W1B 1_555 1_555
O4C W1C 1_555 1_555
O4H W1H 1_555 1_555
O4I W1I 1_555 1_555
O4J W1J 1_555 1_555
O4K W1K 1_555 1_555
O5A W2A 1_555 1_555
O5B W2B 1_555 1_555
O5C W2C 1_555 1_555
O6I W2 1_555 1_555
O6B W1 1_555 1_555
O6A W1B 1_555 1_555
O6H W1K 1_555 1_555
O6K W1I 1_555 1_555
O6C W1A 1_555 1_555
O6J W1H 1_555 1_555
Zn1H N1I 1_555 1_555
C1I H1I 1_555 1_555
C1A H1A 1_555 1_555
C1H H1H 1_555 1_555
C2I H2I 1_555 1_555
C2A H2A 1_555 1_555
C2H H2H 1_555 1_555
N1I C1I 1_555 1_555
N1A Zn1 1_555 1_555
N1H Zn1H 1_555 1_555
N1F Zn1 1_555 1_555
N1G Zn1 1_555 1_555
N2I C2I 1_555 1_555
N2A C2A 1_555 1_555
N2H C2H 1_555 1_555
N3I C1I 1_555 1_555
N3A C1A 1_555 1_555
N3H C1H 1_555 1_555
C3I C3 1_555 1_555
C3A N3A 1_555 1_555
C3H N3H 1_555 1_555
H3I C3I 1_555 1_555
H3A C3A 1_555 1_555
H3H C3H 1_555 1_555
H4I C3I 1_555 1_555
H4A C3A 1_555 1_555
H4H C3H 1_555 1_555
W1 O1B 1_555 1_555
W2 O3 1_555 1_555
W2 O1I 1_555 1_555
O6 W1C 1_555 1_555
C2 N1 1_555 1_555
N2 N3 1_555 1_555
W1A O1C 1_555 1_555
W1B O1B 1_555 1_555
W1B O2B 1_555 1_555
W1B O2A 1_555 1_555
W1C O1C 1_555 1_555
W1C O2C 1_555 1_555
W1H O1J 1_555 1_555
W1I O1K 1_555 1_555
W1I O3I 1_555 1_555
W1J O1J 1_555 1_555
W1J O2J 1_555 1_555
W1J O2I 1_555 1_555
W1J O6I 1_555 1_555
W1K O1K 1_555 1_555
W1K O2H 1_555 1_555
W1K O2K 1_555 1_555
W2A O1H 1_555 1_555
W2A O3A 1_555 1_555
W2A O3H 1_555 1_555
W2A O6A 1_555 1_555
W2A O6H 1_555 1_555
W2B O1K 1_555 1_555
W2B O3B 1_555 1_555
W2B O3K 1_555 1_555
W2B O6B 1_555 1_555
W2B O6K 1_555 1_555
W2C O1J 1_555 1_555
W2C O3C 1_555 1_555
W2C O3J 1_555 1_555
W2C O6C 1_555 1_555
W2C O6J 1_555 1_555
C1A N1A 1_555 1_555
C1H N1H 1_555 1_555
C2I N1I 1_555 1_555
C2A N1A 1_555 1_555
C2H N1H 1_555 1_555
N2I N3I 1_555 1_555
N2A N3A 1_555 1_555
N2H N3H 1_555 1_555
N3I C3I 1_555 1_555
C3A C3H 1_555 1_555

#END
