
#######################################################################
#
#                 Cambridge Crystallographic Data Centre
#                                CCDC 
#
#######################################################################
#
# If this CIF has been generated from an entry in the Cambridge 
# Structural Database, then it will include bibliographic, chemical, 
# crystal, experimental, refinement or atomic coordinate data resulting 
# from the CCDC's data processing and validation procedures.
#
#######################################################################

data_BAHPAD
_symmetry_cell_setting           monoclinic
_symmetry_space_group_name_H-M   'P 21/c'
_symmetry_Int_Tables_number      14
_space_group_name_Hall           '-P 2ybc'
loop_
_symmetry_equiv_pos_site_id
_symmetry_equiv_pos_as_xyz
1 x,y,z
2 -x,1/2+y,1/2-z
3 -x,-y,-z
4 x,1/2-y,1/2+z
_cell_length_a                   10.2733(18)
_cell_length_b                   13.615(2)
_cell_length_c                   14.512(3)
_cell_angle_alpha                90
_cell_angle_beta                 102.807(3)
_cell_angle_gamma                90
_cell_volume                     1979.31
loop_
_atom_site_label
_atom_site_type_symbol
_atom_site_fract_x
_atom_site_fract_y
_atom_site_fract_z
Ag1 Ag 0.46723(8) 0.63311(6) 0.28130(6)
C1 C 0.5201(11) 0.5812(7) 0.0592(7)
H1 H 0.5328 0.6360 0.0984
C2 C 0.3795(11) 0.4502(8) -0.0179(7)
H2 H 0.2980 0.4175 -0.0301
C3 C 0.3994(10) 0.5311(7) 0.0423(6)
C4 C 0.2899(11) 0.5648(8) 0.0878(8)
C5 C 0.0758(13) 0.5756(11) 0.0953(9)
H3 H 0.0254 0.5226 0.1155
H4 H 0.0138 0.6227 0.0594
C6 C 0.1649(13) 0.6240(10) 0.1787(10)
H5 H 0.1434 0.6932 0.1814
H6 H 0.1562 0.5929 0.2372
C7 C 0.3489(15) 0.6120(10) 0.4890(10)
H7 H 0.4261 0.6122 0.5415
H8 H 0.3330 0.5456 0.4650
C8 C 0.2285(18) 0.6527(12) 0.5178(13)
H9 H 0.1567 0.6049 0.5067
H10 H 0.2497 0.6698 0.5844
C9 C 0.2791(10) 0.7459(8) 0.4044(7)
C10 C 0.2634(10) 0.8302(7) 0.3390(7)
C11 C 0.3761(10) 0.8595(7) 0.3072(7)
H11 H 0.4574 0.8274 0.3274
C12 C 0.3636(10) 0.9375(8) 0.2446(7)
H12 H 0.4381 0.9581 0.2233
C13 C 0.1432(11) 0.8763(7) 0.3071(8)
H13 H 0.0686 0.8557 0.3283
C14 C 0.1274(13) 1.1698(12) 0.0334(11)
H14 H 0.0761 1.2252 0.0480
H15 H 0.0981 1.1542 -0.0332
C15 C 0.2765(13) 1.1925(10) 0.0586(9)
H16 H 0.3164 1.1820 0.0047
H17 H 0.2925 1.2598 0.0800
C16 C 0.2357(11) 1.0696(8) 0.1467(7)
C17 C 0.2441(10) 0.9854(7) 0.2131(6)
C18 C 0.1325(11) 0.9521(8) 0.2443(8)
H18 H 0.0501 0.9820 0.2221
N1 N 0.3000(9) 0.6111(7) 0.1633(6)
N2 N 0.3298(9) 1.1227(6) 0.1352(6)
N3 N 0.3673(10) 0.6809(8) 0.4134(7)
O1 O 0.1653(8) 0.5382(6) 0.0395(5)
O2 O 0.1120(7) 1.0853(7) 0.0914(6)
O3 O 0.1899(9) 0.7398(7) 0.4600(6)
Ag1B Ag 0.53277(8) 0.36689(6) -0.28130(6)
Ag1A Ag 0.53277(8) 1.13311(6) 0.21870(6)
Ag1C Ag 0.46723(8) -0.13311(6) -0.21870(6)
C1B C 0.4799(11) 0.4188(7) -0.0592(7)
H1B H 0.4672 0.3640 -0.0984
C2B C 0.6205(11) 0.5498(8) 0.0179(7)
H2B H 0.7020 0.5825 0.0301
C3B C 0.6006(10) 0.4689(7) -0.0423(6)
C4B C 0.7101(11) 0.4352(8) -0.0878(8)
C5B C 0.9242(13) 0.4244(11) -0.0953(9)
H3B H 0.9746 0.4774 -0.1155
H4B H 0.9862 0.3773 -0.0594
C6B C 0.8351(13) 0.3760(10) -0.1787(10)
H5B H 0.8566 0.3068 -0.1814
H6B H 0.8438 0.4071 -0.2372
C7B C 0.6511(15) 0.3880(10) -0.4890(10)
H7B H 0.5739 0.3878 -0.5415
H8B H 0.6670 0.4544 -0.4650
C8B C 0.7715(18) 0.3473(12) -0.5178(13)
H9B H 0.8433 0.3951 -0.5067
H10B H 0.7503 0.3302 -0.5844
C9B C 0.7209(10) 0.2541(8) -0.4044(7)
C10B C 0.7366(10) 0.1698(7) -0.3390(7)
C11B C 0.6239(10) 0.1405(7) -0.3072(7)
H11B H 0.5426 0.1726 -0.3274
C12B C 0.6364(10) 0.0625(8) -0.2446(7)
H12B H 0.5619 0.0419 -0.2233
C13B C 0.8568(11) 0.1237(7) -0.3071(8)
H13B H 0.9314 0.1443 -0.3283
C14B C 0.8726(13) -0.1698(12) -0.0334(11)
H14B H 0.9239 -0.2252 -0.0480
H15B H 0.9019 -0.1542 0.0332
C15B C 0.7235(13) -0.1925(10) -0.0586(9)
H16B H 0.6836 -0.1820 -0.0047
H17B H 0.7075 -0.2598 -0.0800
C16B C 0.7643(11) -0.0696(8) -0.1467(7)
C17B C 0.7559(10) 0.0146(7) -0.2131(6)
C18B C 0.8675(11) 0.0479(8) -0.2443(8)
H18B H 0.9499 0.0180 -0.2221
N1B N 0.7000(9) 0.3889(7) -0.1633(6)
N2B N 0.6702(9) -0.1227(6) -0.1352(6)
N2A N 0.6702(9) 0.6227(6) 0.3648(6)
N2C N 0.3298(9) 0.3773(6) -0.3648(6)
N3B N 0.6327(10) 0.3191(8) -0.4134(7)
O1B O 0.8347(8) 0.4618(6) -0.0395(5)
O2B O 0.8880(7) -0.0853(7) -0.0914(6)
O3B O 0.8101(9) 0.2602(7) -0.4600(6)
B1 B 0.740(2) 0.8466(16) 0.2119(14)
F1 F 0.8189(18) 0.7744(16) 0.1916(15)
F2 F 0.6226(13) 0.8090(15) 0.1892(13)
F3 F 0.774(3) 0.8683(13) 0.3027(10)
F4 F 0.764(3) 0.9204(12) 0.1620(11)
loop_
_geom_bond_atom_site_label_1
_geom_bond_atom_site_label_2
_geom_bond_site_symmetry_1
_geom_bond_site_symmetry_2
Ag1 N1 1_555 1_555
B1 F1 1_555 1_555
C1 H1 1_555 1_555
C2 H2 1_555 1_555
C3 C1 1_555 1_555
C4 C3 1_555 1_555
C5 H3 1_555 1_555
H4 C5 1_555 1_555
C6 C5 1_555 1_555
H5 C6 1_555 1_555
H6 C6 1_555 1_555
C7 H7 1_555 1_555
H8 C7 1_555 1_555
C8 C7 1_555 1_555
H9 C8 1_555 1_555
H10 C8 1_555 1_555
C9 C10 1_555 1_555
C10 C11 1_555 1_555
C11 H11 1_555 1_555
C12 C11 1_555 1_555
H12 C12 1_555 1_555
C13 C10 1_555 1_555
H13 C13 1_555 1_555
C14 H14 1_555 1_555
H15 C14 1_555 1_555
C15 C14 1_555 1_555
H16 C15 1_555 1_555
H17 C15 1_555 1_555
C16 C17 1_555 1_555
C17 C12 1_555 1_555
C18 C13 1_555 1_555
H18 C18 1_555 1_555
F2 B1 1_555 1_555
F3 B1 1_555 1_555
F4 B1 1_555 1_555
N1 C4 1_555 1_555
N2 C15 1_555 1_555
N3 Ag1 1_555 1_555
O1 C4 1_555 1_555
O2 C14 1_555 1_555
O3 C8 1_555 1_555
Ag1B N1B 1_555 1_555
Ag1A N2 1_555 1_555
Ag1C N2B 1_555 1_555
C1B C2 1_555 1_555
H1B C1B 1_555 1_555
C2B C1 1_555 1_555
H2B C2B 1_555 1_555
C3B C1B 1_555 1_555
C4B C3B 1_555 1_555
C5B H3B 1_555 1_555
H4B C5B 1_555 1_555
C6B C5B 1_555 1_555
H5B C6B 1_555 1_555
H6B C6B 1_555 1_555
C7B H7B 1_555 1_555
H8B C7B 1_555 1_555
C8B C7B 1_555 1_555
H9B C8B 1_555 1_555
H10B C8B 1_555 1_555
C9B C10B 1_555 1_555
C10B C11B 1_555 1_555
C11B H11B 1_555 1_555
C12B C11B 1_555 1_555
H12B C12B 1_555 1_555
C13B C10B 1_555 1_555
H13B C13B 1_555 1_555
C14B H14B 1_555 1_555
H15B C14B 1_555 1_555
C15B C14B 1_555 1_555
H16B C15B 1_555 1_555
H17B C15B 1_555 1_555
C16B C17B 1_555 1_555
C17B C12B 1_555 1_555
C18B C13B 1_555 1_555
H18B C18B 1_555 1_555
N1B C4B 1_555 1_555
N2B C15B 1_555 1_555
N2A Ag1 1_555 1_555
N2C Ag1B 1_555 1_555
N3B Ag1B 1_555 1_555
O1B C4B 1_555 1_555
O2B C14B 1_555 1_555
O3B C8B 1_555 1_555
C2 C3 1_555 1_555
C5 O1 1_555 1_555
C6 N1 1_555 1_555
C7 N3 1_555 1_555
C9 N3 1_555 1_555
C9 O3 1_555 1_555
C16 N2 1_555 1_555
C16 O2 1_555 1_555
C17 C18 1_555 1_555
C2B C3B 1_555 1_555
C5B O1B 1_555 1_555
C6B N1B 1_555 1_555
C7B N3B 1_555 1_555
C9B N3B 1_555 1_555
C9B O3B 1_555 1_555
C16B N2B 1_555 1_555
C16B O2B 1_555 1_555
C17B C18B 1_555 1_555

#END
