
#######################################################################
#
#                 Cambridge Crystallographic Data Centre
#                                CCDC 
#
#######################################################################
#
# If this CIF has been generated from an entry in the Cambridge 
# Structural Database, then it will include bibliographic, chemical, 
# crystal, experimental, refinement or atomic coordinate data resulting 
# from the CCDC's data processing and validation procedures.
#
#######################################################################

data_BAHPEH
_symmetry_cell_setting           monoclinic
_symmetry_space_group_name_H-M   'P 21/c'
_symmetry_Int_Tables_number      14
_space_group_name_Hall           '-P 2ybc'
loop_
_symmetry_equiv_pos_site_id
_symmetry_equiv_pos_as_xyz
1 x,y,z
2 -x,1/2+y,1/2-z
3 -x,-y,-z
4 x,1/2-y,1/2+z
_cell_length_a                   9.8773(9)
_cell_length_b                   14.0702(13)
_cell_length_c                   15.1690(14)
_cell_angle_alpha                90
_cell_angle_beta                 96.4080(10)
_cell_angle_gamma                90
_cell_volume                     2094.95
loop_
_atom_site_label
_atom_site_type_symbol
_atom_site_fract_x
_atom_site_fract_y
_atom_site_fract_z
Ag1 Ag -0.05952(3) 0.608776(19) 0.775705(16)
C1 C 0.2314(3) 0.3120(2) 0.64280(19)
C2 C 0.3510(3) 0.3605(3) 0.6651(2)
H1 H 0.4290 0.3434 0.6398
C3 C 0.3556(3) 0.4351(2) 0.7255(2)
H2 H 0.4374 0.4664 0.7420
C4 C 0.2392(3) 0.4627(2) 0.76097(18)
C5 C 0.1184(3) 0.4143(2) 0.7380(2)
H3 H 0.0397 0.4328 0.7618
C6 C 0.1143(3) 0.3387(2) 0.6798(2)
H4 H 0.0334 0.3055 0.6654
C7 C 0.2453(3) 0.5425(2) 0.82461(18)
C8 C 0.3498(4) 0.6406(3) 0.9262(3)
H5 H 0.4036 0.6946 0.9108
H6 H 0.3762 0.6241 0.9878
C9 C 0.2003(4) 0.6627(3) 0.9106(2)
H7 H 0.1572 0.6542 0.9644
H8 H 0.1852 0.7274 0.8897
C10 C 0.2254(3) 0.2302(2) 0.5827(2)
C11 C 0.1777(5) 0.0954(3) 0.5120(3)
H9 H 0.0942 0.0818 0.4742
H10 H 0.2184 0.0359 0.5337
C12 C 0.2745(5) 0.1512(3) 0.4630(3)
H11 H 0.3561 0.1146 0.4567
H12 H 0.2322 0.1687 0.4045
C13 C 0.1251(3) 0.5443(2) 0.5149(2)
H13 H 0.2096 0.5738 0.5253
C14 C 0.0180(3) 0.5757(2) 0.5588(2)
H14 H 0.0302 0.6267 0.5979
C15 C -0.1074(3) 0.5309(2) 0.54446(19)
C16 C -0.2234(3) 0.5647(2) 0.5899(2)
C17 C -0.3596(4) 0.6270(3) 0.6821(3)
H15 H -0.3707 0.6945 0.6923
H16 H -0.3849 0.5920 0.7329
C18 C -0.4438(4) 0.5954(3) 0.5973(3)
H17 H -0.5134 0.5504 0.6100
H18 H -0.4873 0.6495 0.5661
N1 N 0.1512(3) 0.1582(2) 0.58643(19)
N2 N 0.1468(3) 0.59355(19) 0.84181(17)
N3 N -0.2182(3) 0.60479(18) 0.66562(17)
O1 O 0.3067(3) 0.2350(2) 0.51680(19)
O2 O 0.3681(2) 0.56052(18) 0.86867(16)
O3 O -0.3467(2) 0.55125(18) 0.54530(15)
Ag1B Ag 0.05952(3) 0.391224(19) 0.224295(16)
Ag1A Ag 0.05952(3) 0.108776(19) 0.724295(16)
Ag1C Ag -0.05952(3) 0.891224(19) 0.275705(16)
C1B C -0.2314(3) 0.6880(2) 0.35720(19)
C2B C -0.3510(3) 0.6395(3) 0.3349(2)
H1B H -0.4290 0.6566 0.3602
C3B C -0.3556(3) 0.5649(2) 0.2745(2)
H2B H -0.4374 0.5336 0.2580
C4B C -0.2392(3) 0.5373(2) 0.23903(18)
C5B C -0.1184(3) 0.5857(2) 0.2620(2)
H3B H -0.0397 0.5672 0.2382
C6B C -0.1143(3) 0.6613(2) 0.3202(2)
H4B H -0.0334 0.6945 0.3346
C7B C -0.2453(3) 0.4575(2) 0.17539(18)
C8B C -0.3498(4) 0.3594(3) 0.0738(3)
H5B H -0.4036 0.3054 0.0892
H6B H -0.3762 0.3759 0.0122
C9B C -0.2003(4) 0.3373(3) 0.0894(2)
H7B H -0.1572 0.3458 0.0356
H8B H -0.1852 0.2726 0.1103
C10B C -0.2254(3) 0.7698(2) 0.4173(2)
C11B C -0.1777(5) 0.9046(3) 0.4880(3)
H9B H -0.0942 0.9182 0.5258
H10B H -0.2184 0.9641 0.4663
C12B C -0.2745(5) 0.8488(3) 0.5370(3)
H11B H -0.3561 0.8854 0.5433
H12B H -0.2322 0.8313 0.5955
C13B C -0.1251(3) 0.4557(2) 0.4851(2)
H13B H -0.2096 0.4262 0.4747
C14B C -0.0180(3) 0.4243(2) 0.4412(2)
H14B H -0.0302 0.3733 0.4021
C15B C 0.1074(3) 0.4691(2) 0.45554(19)
C16B C 0.2234(3) 0.4353(2) 0.4101(2)
C17B C 0.3596(4) 0.3730(3) 0.3179(3)
H15B H 0.3707 0.3055 0.3077
H16B H 0.3849 0.4080 0.2671
C18B C 0.4438(4) 0.4046(3) 0.4027(3)
H17B H 0.5134 0.4496 0.3900
H18B H 0.4873 0.3505 0.4339
N1B N -0.1512(3) 0.8418(2) 0.41357(19)
N1A N -0.1512(3) 0.6582(2) 0.91357(19)
N1C N 0.1512(3) 0.3418(2) 0.08643(19)
N2B N -0.1468(3) 0.40645(19) 0.15819(17)
N3B N 0.2182(3) 0.39521(18) 0.33438(17)
O1B O -0.3067(3) 0.7650(2) 0.48320(19)
O2B O -0.3681(2) 0.43948(18) 0.13133(16)
O3B O 0.3467(2) 0.44875(18) 0.45470(15)
F1 F 0.2512(3) 0.7523(2) 0.59660(17)
F2 F 0.1738(5) 0.8920(2) 0.6332(3)
F3 F 0.1373(3) 0.7675(2) 0.7153(2)
F4 F 0.2854(6) 0.8749(3) 0.7702(2)
F5 F 0.3567(3) 0.7360(3) 0.7336(2)
F6 F 0.3959(4) 0.8599(3) 0.6497(2)
P1 P 0.26660(11) 0.81450(8) 0.68374(6)
loop_
_geom_bond_atom_site_label_1
_geom_bond_atom_site_label_2
_geom_bond_site_symmetry_1
_geom_bond_site_symmetry_2
Ag1 N2 1_555 1_555
C1 C2 1_555 1_555
C2 H1 1_555 1_555
C3 C2 1_555 1_555
H2 C3 1_555 1_555
C4 C3 1_555 1_555
C5 C4 1_555 1_555
H3 C5 1_555 1_555
C6 C1 1_555 1_555
H4 C6 1_555 1_555
C7 C4 1_555 1_555
C8 H5 1_555 1_555
H6 C8 1_555 1_555
C9 C8 1_555 1_555
H7 C9 1_555 1_555
H8 C9 1_555 1_555
C10 C1 1_555 1_555
C11 H9 1_555 1_555
H10 C11 1_555 1_555
C12 C11 1_555 1_555
H11 C12 1_555 1_555
H12 C12 1_555 1_555
C13 H13 1_555 1_555
C14 C13 1_555 1_555
H14 C14 1_555 1_555
C15 C14 1_555 1_555
C16 C15 1_555 1_555
C17 H15 1_555 1_555
H16 C17 1_555 1_555
C18 C17 1_555 1_555
H17 C18 1_555 1_555
H18 C18 1_555 1_555
F1 P1 1_555 1_555
F2 P1 1_555 1_555
F3 P1 1_555 1_555
F4 P1 1_555 1_555
F5 P1 1_555 1_555
F6 P1 1_555 1_555
N1 C10 1_555 1_555
N2 C7 1_555 1_555
N3 Ag1 1_555 1_555
O1 C10 1_555 1_555
O2 C7 1_555 1_555
O3 C16 1_555 1_555
Ag1B N1C 1_555 1_555
Ag1A N1 1_555 1_555
Ag1C N1B 1_555 1_555
C1B C2B 1_555 1_555
C2B H1B 1_555 1_555
C3B C2B 1_555 1_555
H2B C3B 1_555 1_555
C4B C3B 1_555 1_555
C5B C4B 1_555 1_555
H3B C5B 1_555 1_555
C6B C1B 1_555 1_555
H4B C6B 1_555 1_555
C7B C4B 1_555 1_555
C8B H5B 1_555 1_555
H6B C8B 1_555 1_555
C9B C8B 1_555 1_555
H7B C9B 1_555 1_555
H8B C9B 1_555 1_555
C10B C1B 1_555 1_555
C11B H9B 1_555 1_555
H10B C11B 1_555 1_555
C12B C11B 1_555 1_555
H11B C12B 1_555 1_555
H12B C12B 1_555 1_555
C13B C15 1_555 1_555
H13B C13B 1_555 1_555
C14B C13B 1_555 1_555
H14B C14B 1_555 1_555
C15B C13 1_555 1_555
C16B C15B 1_555 1_555
C17B H15B 1_555 1_555
H16B C17B 1_555 1_555
C18B C17B 1_555 1_555
H17B C18B 1_555 1_555
H18B C18B 1_555 1_555
N1B C10B 1_555 1_555
N1A Ag1 1_555 1_555
N2B Ag1B 1_555 1_555
N3B Ag1B 1_555 1_555
O1B C10B 1_555 1_555
O2B C7B 1_555 1_555
O3B C16B 1_555 1_555
C5 C6 1_555 1_555
C8 O2 1_555 1_555
C9 N2 1_555 1_555
C11 N1 1_555 1_555
C12 O1 1_555 1_555
C16 N3 1_555 1_555
C17 N3 1_555 1_555
C18 O3 1_555 1_555
C5B C6B 1_555 1_555
C7B N2B 1_555 1_555
C8B O2B 1_555 1_555
C9B N2B 1_555 1_555
C11B N1B 1_555 1_555
C12B O1B 1_555 1_555
C14B C15B 1_555 1_555
C16B N3B 1_555 1_555
C17B N3B 1_555 1_555
C18B O3B 1_555 1_555

#END
