
#######################################################################
#
#                 Cambridge Crystallographic Data Centre
#                                CCDC 
#
#######################################################################
#
# If this CIF has been generated from an entry in the Cambridge 
# Structural Database, then it will include bibliographic, chemical, 
# crystal, experimental, refinement or atomic coordinate data resulting 
# from the CCDC's data processing and validation procedures.
#
#######################################################################

data_BAHPIL
_symmetry_cell_setting           monoclinic
_symmetry_space_group_name_H-M   'C 2/c'
_symmetry_Int_Tables_number      15
_space_group_name_Hall           '-C 2yn'
loop_
_symmetry_equiv_pos_site_id
_symmetry_equiv_pos_as_xyz
1 x,y,z
2 -x,y,1/2-z
3 1/2+x,1/2+y,z
4 1/2-x,1/2+y,1/2-z
5 -x,-y,-z
6 x,-y,1/2+z
7 1/2-x,1/2-y,-z
8 1/2+x,1/2-y,1/2+z
_cell_length_a                   21.306(5)
_cell_length_b                   5.8782(15)
_cell_length_c                   16.714(4)
_cell_angle_alpha                90
_cell_angle_beta                 111.798(3)
_cell_angle_gamma                90
_cell_volume                     1943.61
loop_
_atom_site_label
_atom_site_type_symbol
_atom_site_fract_x
_atom_site_fract_y
_atom_site_fract_z
O1 O 0.1435(3) 0.9286(9) 0.1769(3)
Ag1 Ag 0.20829(3) 1.19631(9) 0.28638(3)
C1 C 0.2514(3) 1.6259(12) 0.4306(4)
H1 H 0.2528 1.5419 0.3842
C2 C 0.2938(3) 1.8114(10) 0.4597(4)
H2 H 0.3227 1.8523 0.4319
C3 C 0.2065(3) 1.5630(10) 0.4700(3)
C4 C 0.1599(3) 1.3710(10) 0.4390(3)
C5 C 0.0791(3) 1.1328(13) 0.4438(5)
H3 H 0.0310 1.1637 0.4247
H4 H 0.0903 1.0091 0.4852
C6 C 0.0994(3) 1.0764(12) 0.3681(4)
H5 H 0.1150 0.9203 0.3714
H6 H 0.0618 1.0985 0.3139
C7 C 0.0708(4) 0.6158(16) 0.1610(6)
C8 C 0.1417(3) 0.7230(11) 0.1849(4)
F1 F 0.0575(4) 0.566(2) 0.2259(5)
F2 F 0.0247(3) 0.7204(15) 0.1039(7)
F3 F 0.0689(3) 0.4131(12) 0.1276(6)
N1 N 0.1547(3) 1.2371(10) 0.3766(3)
O2 O 0.1889(2) 0.5826(8) 0.2090(3)
O3 O 0.1183(3) 1.3346(8) 0.4808(3)
O1C O 0.3565(3) 1.4286(9) 0.3231(3)
Ag1C Ag 0.29171(3) 1.69631(9) 0.21362(3)
Ag1C_2 Ag 0.29171(3) 0.69631(9) 0.21362(3)
Ag1_2 Ag 0.20829(3) 0.19631(9) 0.28638(3)
Ag1F Ag 0.29171(3) 2.30369(9) 0.71362(3)
C1F C 0.2486(3) 1.8741(12) 0.5694(4)
H1F H 0.2472 1.9581 0.6158
C2F C 0.2062(3) 1.6886(10) 0.5403(4)
H2F H 0.1773 1.6477 0.5681
C3F C 0.2935(3) 1.9370(10) 0.5300(3)
C4F C 0.3401(3) 2.1290(10) 0.5610(3)
C5F C 0.4209(3) 2.3672(13) 0.5562(5)
H3F H 0.4690 2.3363 0.5753
H4F H 0.4097 2.4909 0.5148
C6F C 0.4006(3) 2.4236(12) 0.6319(4)
H5F H 0.3850 2.5797 0.6286
H6F H 0.4382 2.4015 0.6861
C7C C 0.4292(4) 1.1158(16) 0.3390(6)
C8C C 0.3583(3) 1.2230(11) 0.3151(4)
F1C F 0.4425(4) 1.066(2) 0.2741(5)
F2C F 0.4753(3) 1.2204(15) 0.3961(7)
F3C F 0.4311(3) 0.9131(12) 0.3724(6)
N1F N 0.3453(3) 2.2629(10) 0.6234(3)
N1C N 0.3453(3) 1.7371(10) 0.1234(3)
O2C O 0.3111(2) 1.0826(8) 0.2910(3)
O2_2 O 0.1889(2) 1.5826(8) 0.2090(3)
O2C_2 O 0.3111(2) 2.0826(8) 0.2910(3)
O3F O 0.3817(3) 2.1654(8) 0.5192(3)
loop_
_geom_bond_atom_site_label_1
_geom_bond_atom_site_label_2
_geom_bond_site_symmetry_1
_geom_bond_site_symmetry_2
O1 Ag1 1_555 1_555
Ag1 N1 1_555 1_555
C1 H1 1_555 1_555
C2 C1 1_555 1_555
H2 C2 1_555 1_555
C3 C1 1_555 1_555
C4 C3 1_555 1_555
C5 H3 1_555 1_555
H4 C5 1_555 1_555
C6 C5 1_555 1_555
H5 C6 1_555 1_555
H6 C6 1_555 1_555
C7 C8 1_555 1_555
C8 O1 1_555 1_555
F1 C7 1_555 1_555
F2 C7 1_555 1_555
F3 C7 1_555 1_555
N1 C4 1_555 1_555
O2 C8 1_555 1_555
O3 C4 1_555 1_555
O1C Ag1C 1_555 1_555
Ag1C N1C 1_555 1_555
Ag1C_2 O2 1_555 1_555
Ag1_2 O2 1_555 1_555
Ag1F N1F 1_555 1_555
C1F H1F 1_555 1_555
C2F C3 1_555 1_555
H2F C2F 1_555 1_555
C3F C2 1_555 1_555
C4F C3F 1_555 1_555
C5F H3F 1_555 1_555
H4F C5F 1_555 1_555
C6F C5F 1_555 1_555
H5F C6F 1_555 1_555
H6F C6F 1_555 1_555
C7C C8C 1_555 1_555
C8C O1C 1_555 1_555
F1C C7C 1_555 1_555
F2C C7C 1_555 1_555
F3C C7C 1_555 1_555
N1F C4F 1_555 1_555
O2C Ag1 1_555 1_555
O2_2 Ag1 1_555 1_555
O2C_2 Ag1C 1_555 1_555
O3F C4F 1_555 1_555
C5 O3 1_555 1_555
C6 N1 1_555 1_555
Ag1C O2_2 1_555 1_555
Ag1C_2 O2C 1_555 1_555
C1F C2F 1_555 1_555
C1F C3F 1_555 1_555
C5F O3F 1_555 1_555
C6F N1F 1_555 1_555
C8C O2C 1_555 1_555

#END
