
#######################################################################
#
#                 Cambridge Crystallographic Data Centre
#                                CCDC 
#
#######################################################################
#
# If this CIF has been generated from an entry in the Cambridge 
# Structural Database, then it will include bibliographic, chemical, 
# crystal, experimental, refinement or atomic coordinate data resulting 
# from the CCDC's data processing and validation procedures.
#
#######################################################################

data_BAHRAE
_symmetry_cell_setting           orthorhombic
_symmetry_space_group_name_H-M   'P n m a'
_symmetry_Int_Tables_number      62
_space_group_name_Hall           '-P 2ac 2n'
loop_
_symmetry_equiv_pos_site_id
_symmetry_equiv_pos_as_xyz
1 x,y,z
2 1/2-x,-y,1/2+z
3 1/2+x,1/2-y,1/2-z
4 -x,1/2+y,-z
5 -x,-y,-z
6 1/2+x,y,1/2-z
7 1/2-x,1/2+y,1/2+z
8 x,1/2-y,z
_cell_length_a                   15.1821(5)
_cell_length_b                   11.7506(2)
_cell_length_c                   10.8342(3)
_cell_angle_alpha                90
_cell_angle_beta                 90
_cell_angle_gamma                90
_cell_volume                     1932.81
loop_
_atom_site_label
_atom_site_type_symbol
_atom_site_fract_x
_atom_site_fract_y
_atom_site_fract_z
Sn1 Sn 0.09055(2) 0.25000 0.45990(3)
Sn2 Sn 0.41143(2) 0.25000 0.78152(3)
C1 C 0.2791(3) 0.25000 0.5518(4)
C2 C 0.2262(3) 0.25000 0.6734(4)
C3 C 0.1234(2) -0.0235(3) 0.4341(3)
C4 C 0.1230(3) 0.0228(3) 0.2994(3)
O1 O 0.2350(2) 0.25000 0.4527(3)
O2 O 0.3607(2) 0.25000 0.5597(3)
O3 O 0.2687(2) 0.25000 0.7733(3)
O4 O 0.1449(2) 0.25000 0.6671(3)
O5 O 0.1259(2) -0.12831(19) 0.4488(2)
O6 O 0.1212(2) 0.0498(2) 0.5183(2)
O7 O 0.1229(2) -0.0506(2) 0.2156(2)
O8 O 0.12235(19) 0.12820(19) 0.2835(2)
C3G C 0.1234(2) 0.5235(3) 0.4341(3)
C4G C 0.1230(3) 0.4772(3) 0.2994(3)
O5G O 0.1259(2) 0.62831(19) 0.4488(2)
O6G O 0.1212(2) 0.4502(2) 0.5183(2)
O7G O 0.1229(2) 0.5506(2) 0.2156(2)
O8G O 0.12235(19) 0.37180(19) 0.2835(2)
O5A O 0.3741(2) 0.12831(19) 0.9488(2)
O5F O 0.3741(2) 0.37169(19) 0.9488(2)
O7A O 0.3771(2) 0.0506(2) 0.7156(2)
O7F O 0.3771(2) 0.4494(2) 0.7156(2)
Sn2A Sn 0.08857(2) -0.25000 0.28152(3)
Sn2A_2 Sn 0.08857(2) 0.75000 0.28152(3)
N1 N 0.2755(4) 0.25000 0.1575(5)
N2 N 0.4743(3) 0.25000 0.3498(5)
O9 O 0.6417(4) 0.25000 0.5341(4)
O10 O 0.3834(3) 0.0619(3) 0.2451(3)
O11 O 0.0884(4) 0.0278(4) 0.9832(3)
loop_
_geom_bond_atom_site_label_1
_geom_bond_atom_site_label_2
_geom_bond_site_symmetry_1
_geom_bond_site_symmetry_2
Sn1 O1 1_555 1_555
Sn2 O2 1_555 1_555
C1 C2 1_555 1_555
C2 O3 1_555 1_555
C3 C4 1_555 1_555
C4 O7 1_555 1_555
O1 C1 1_555 1_555
O2 C1 1_555 1_555
O3 Sn2 1_555 1_555
O4 Sn1 1_555 1_555
O5 C3 1_555 1_555
O6 Sn1 1_555 1_555
O7 Sn2A 1_555 1_555
O8 Sn1 1_555 1_555
C3G C4G 1_555 1_555
C4G O7G 1_555 1_555
O5G C3G 1_555 1_555
O6G Sn1 1_555 1_555
O7G Sn2A_2 1_555 1_555
O8G Sn1 1_555 1_555
O5A Sn2 1_555 1_555
O5F Sn2 1_555 1_555
O7A Sn2 1_555 1_555
O7F Sn2 1_555 1_555
Sn2A O5 1_555 1_555
Sn2A_2 O5G 1_555 1_555
C2 O4 1_555 1_555
C3 O6 1_555 1_555
C4 O8 1_555 1_555
C3G O6G 1_555 1_555
C4G O8G 1_555 1_555

#END
