
#######################################################################
#
#                 Cambridge Crystallographic Data Centre
#                                CCDC 
#
#######################################################################
#
# If this CIF has been generated from an entry in the Cambridge 
# Structural Database, then it will include bibliographic, chemical, 
# crystal, experimental, refinement or atomic coordinate data resulting 
# from the CCDC's data processing and validation procedures.
#
#######################################################################

data_BAJGUP
_symmetry_cell_setting           monoclinic
_symmetry_space_group_name_H-M   'P 21/n'
_symmetry_Int_Tables_number      14
_space_group_name_Hall           '-P 2yn'
loop_
_symmetry_equiv_pos_site_id
_symmetry_equiv_pos_as_xyz
1 x,y,z
2 1/2+x,1/2-y,1/2+z
3 -x,-y,-z
4 1/2-x,1/2+y,1/2-z
_cell_length_a                   11.2837(3)
_cell_length_b                   14.7785(4)
_cell_length_c                   16.9745(4)
_cell_angle_alpha                90
_cell_angle_beta                 100.4270(10)
_cell_angle_gamma                90
_cell_volume                     2783.86
loop_
_atom_site_label
_atom_site_type_symbol
_atom_site_fract_x
_atom_site_fract_y
_atom_site_fract_z
Pr1 Pr 0.333246(8) 0.861516(6) 0.488151(5)
Cu1 Cu 0.45526(2) 0.872051(15) 0.305818(13)
C1 C 0.56172(16) 0.74075(12) 0.43060(11)
C2 C 0.55222(17) 0.68676(13) 0.49800(11)
C3 C 0.6368(2) 0.62084(15) 0.52556(14)
H1 H 0.6273 0.5843 0.5700
C4 C 0.7362(2) 0.60786(17) 0.48812(15)
H2 H 0.7942 0.5626 0.5070
C5 C 0.7490(2) 0.66081(16) 0.42422(14)
H3 H 0.8174 0.6528 0.3995
C6 C 0.66260(16) 0.72725(14) 0.39409(11)
C7 C 0.68577(17) 0.77966(14) 0.32704(12)
H4 H 0.7600 0.7675 0.3102
C8 C 0.6759(2) 0.8833(2) 0.22290(18)
H5 H 0.7158 0.8353 0.1964
H6 H 0.7393 0.9256 0.2485
C9 C 0.5910(2) 0.93396(19) 0.15956(15)
H7 H 0.6372 0.9587 0.1201
H8 H 0.5309 0.8909 0.1310
C10 C 0.5263(2) 1.00924(17) 0.19106(14)
H9 H 0.5838 1.0442 0.2306
H10 H 0.4928 1.0504 0.1466
C11 C 0.32475(19) 1.01341(13) 0.20657(11)
H11 H 0.3201 1.0568 0.1648
C12 C 0.21543(17) 0.99754(12) 0.23699(10)
C13 C 0.1104(2) 1.04217(13) 0.19803(11)
H12 H 0.1130 1.0772 0.1514
C14 C 0.0050(2) 1.03553(14) 0.22668(12)
H13 H -0.0659 1.0642 0.1991
C15 C 0.00173(18) 0.98636(14) 0.29670(12)
H14 H -0.0712 0.9824 0.3171
C16 C 0.10383(16) 0.94379(12) 0.33609(11)
C17 C 0.21336(16) 0.94740(11) 0.30685(10)
C18 C 0.4325(2) 0.64467(14) 0.59469(14)
H15 H 0.4224 0.5833 0.5727
H16 H 0.3592 0.6628 0.6140
H17 H 0.5011 0.6460 0.6393
C19 C -0.0001(2) 0.8837(2) 0.43603(16)
H18 H -0.0557 0.8481 0.3970
H19 H -0.0362 0.9427 0.4433
H20 H 0.0159 0.8515 0.4873
C20 C 0.36130(15) 1.08312(11) 0.44516(10)
C21 C 0.28624(16) 1.14918(11) 0.38900(10)
C22 C 0.33508(16) 1.19222(12) 0.32996(11)
H21 H 0.4171 1.1830 0.3259
C23 C 0.26250(16) 1.24897(12) 0.27683(11)
H22 H 0.2962 1.2770 0.2356
C24 C 0.10085(17) 1.22418(14) 0.33832(12)
H23 H 0.0191 1.2353 0.3419
C25 C 0.16661(17) 1.16517(13) 0.39289(11)
H24 H 0.1301 1.1361 0.4324
N1 N 0.61979(15) 0.84062(13) 0.28686(10)
N2 N 0.42811(15) 0.97556(11) 0.22938(9)
N3 N 0.25807(16) 0.87570(11) 0.65103(10)
N4 N 0.17826(18) 0.68991(13) 0.46878(11)
N5 N 0.14693(14) 1.26635(11) 0.28079(9)
O1 O 0.30908(11) 0.90513(9) 0.34750(7)
O2 O 0.47746(11) 0.80139(9) 0.40579(8)
O3 O 0.11105(11) 0.89657(10) 0.40735(8)
O4 O 0.45415(13) 0.70637(9) 0.53311(8)
O5 O 0.20367(14) 0.91937(10) 0.59121(9)
O6 O 0.35422(13) 0.83579(11) 0.64275(9)
O7 O 0.22070(17) 0.87292(12) 0.71434(10)
O8 O 0.22981(15) 0.71343(10) 0.41217(9)
O9 O 0.18691(13) 0.74325(10) 0.52825(8)
O10 O 0.1246(3) 0.61808(15) 0.46810(13)
O11 O 0.30663(12) 1.02585(9) 0.48005(8)
O12 O 0.47336(12) 1.08888(10) 0.45091(9)
O12B O 0.52664(12) 0.91112(10) 0.54909(9)
N5C N 0.35307(14) 0.76635(11) 0.21921(9)
Cu1C Cu 0.04474(2) 1.372051(15) 0.194182(13)
Pr1B Pr 0.666754(8) 1.138484(6) 0.511849(5)
loop_
_geom_bond_atom_site_label_1
_geom_bond_atom_site_label_2
_geom_bond_site_symmetry_1
_geom_bond_site_symmetry_2
Pr1 O1 1_555 1_555
Cu1 N1 1_555 1_555
C1 C2 1_555 1_555
C2 C3 1_555 1_555
C3 H1 1_555 1_555
C4 C3 1_555 1_555
H2 C4 1_555 1_555
C5 C4 1_555 1_555
H3 C5 1_555 1_555
C6 C1 1_555 1_555
C7 C6 1_555 1_555
H4 C7 1_555 1_555
C8 H5 1_555 1_555
H6 C8 1_555 1_555
C9 C8 1_555 1_555
H7 C9 1_555 1_555
H8 C9 1_555 1_555
C10 C9 1_555 1_555
H9 C10 1_555 1_555
H10 C10 1_555 1_555
C11 H11 1_555 1_555
C12 C11 1_555 1_555
C13 C12 1_555 1_555
H12 C13 1_555 1_555
C14 C13 1_555 1_555
H13 C14 1_555 1_555
C15 C14 1_555 1_555
H14 C15 1_555 1_555
C16 C15 1_555 1_555
C17 C12 1_555 1_555
C18 H15 1_555 1_555
H16 C18 1_555 1_555
H17 C18 1_555 1_555
C19 H18 1_555 1_555
H19 C19 1_555 1_555
H20 C19 1_555 1_555
C20 C21 1_555 1_555
C21 C22 1_555 1_555
C22 H21 1_555 1_555
C23 C22 1_555 1_555
H22 C23 1_555 1_555
C24 H23 1_555 1_555
C25 C21 1_555 1_555
H24 C25 1_555 1_555
N1 C7 1_555 1_555
N2 Cu1 1_555 1_555
N3 O5 1_555 1_555
N4 O8 1_555 1_555
N5 C23 1_555 1_555
O1 Cu1 1_555 1_555
O2 Pr1 1_555 1_555
O3 Pr1 1_555 1_555
O4 Pr1 1_555 1_555
O5 Pr1 1_555 1_555
O6 Pr1 1_555 1_555
O7 N3 1_555 1_555
O8 Pr1 1_555 1_555
O9 Pr1 1_555 1_555
O10 N4 1_555 1_555
O11 Pr1 1_555 1_555
O12 C20 1_555 1_555
O12B Pr1 1_555 1_555
N5C Cu1 1_555 1_555
Cu1C N5 1_555 1_555
Pr1B O12 1_555 1_555
Cu1 O2 1_555 1_555
C1 O2 1_555 1_555
C2 O4 1_555 1_555
C5 C6 1_555 1_555
C8 N1 1_555 1_555
C10 N2 1_555 1_555
C11 N2 1_555 1_555
C16 C17 1_555 1_555
C16 O3 1_555 1_555
C17 O1 1_555 1_555
C18 O4 1_555 1_555
C19 O3 1_555 1_555
C20 O11 1_555 1_555
C24 N5 1_555 1_555
C24 C25 1_555 1_555
N3 O6 1_555 1_555
N4 O9 1_555 1_555

#END
