
#######################################################################
#
#                 Cambridge Crystallographic Data Centre
#                                CCDC 
#
#######################################################################
#
# If this CIF has been generated from an entry in the Cambridge 
# Structural Database, then it will include bibliographic, chemical, 
# crystal, experimental, refinement or atomic coordinate data resulting 
# from the CCDC's data processing and validation procedures.
#
#######################################################################

data_BAJMEE
_symmetry_cell_setting           orthorhombic
_symmetry_space_group_name_H-M   'P c c n'
_symmetry_Int_Tables_number      56
_space_group_name_Hall           '-P 2ab 2ac'
loop_
_symmetry_equiv_pos_site_id
_symmetry_equiv_pos_as_xyz
1 x,y,z
2 1/2-x,1/2-y,z
3 1/2+x,-y,1/2-z
4 -x,1/2+y,1/2-z
5 -x,-y,-z
6 1/2+x,1/2+y,-z
7 1/2-x,y,1/2+z
8 x,1/2-y,1/2+z
_cell_length_a                   11.185(3)
_cell_length_b                   22.475(6)
_cell_length_c                   14.802(4)
_cell_angle_alpha                90
_cell_angle_beta                 90
_cell_angle_gamma                90
_cell_volume                     3720.97
loop_
_atom_site_label
_atom_site_type_symbol
_atom_site_fract_x
_atom_site_fract_y
_atom_site_fract_z
Au1 Au 0.25000 0.25000 -0.25130
Au2 Au 0.25000 0.25000 0.05350
Ag1 Ag 0.11630 0.23730 -0.09850
S1 S -0.09560 0.26600 -0.10280
C1 C -0.12290 0.32190 -0.18830
H1 H -0.18700 0.30910 -0.22690
H2 H -0.05310 0.32960 -0.22420
C2 C -0.16780 0.37370 -0.14230
H3 H -0.24230 0.38770 -0.16650
H4 H -0.10690 0.40310 -0.15190
C3 C -0.17090 0.36940 -0.04940
H5 H -0.13120 0.40210 -0.02040
H6 H -0.25480 0.37080 -0.03580
C4 C -0.13390 0.31330 -0.00970
H7 H -0.06190 0.32170 0.02320
H8 H -0.19110 0.29500 0.02990
C5 C 0.04690 0.16050 -0.27530
F1 F -0.02250 0.20740 -0.29790
C6 C -0.00790 0.10440 -0.28530
F2 F -0.11950 0.10070 -0.31620
C7 C 0.05670 0.05720 -0.26370
F3 F 0.01010 0.00200 -0.27570
C8 C 0.17120 0.06160 -0.23530
F4 F 0.23590 0.01310 -0.21740
C9 C 0.22310 0.11660 -0.22670
F5 F 0.33670 0.12040 -0.19630
C10 C 0.16120 0.17010 -0.24730
C11 C 0.25480 0.11770 0.03280
F6 F 0.36930 0.12720 0.01050
C12 C 0.21470 0.06110 0.04450
F7 F 0.29440 0.01440 0.03230
C13 C 0.10470 0.04900 0.06890
F8 F 0.06790 -0.01010 0.08200
C14 C 0.02360 0.09150 0.08510
F9 F -0.08780 0.08090 0.11040
C15 C 0.06460 0.15120 0.07300
F10 F -0.01760 0.19340 0.08810
C16 C 0.17850 0.16540 0.04890
Ag1A Ag 0.38370 0.26270 -0.09850
C10A C 0.33880 0.32990 -0.24730
Au2F Au 0.25000 0.25000 -0.44650
S1A S 0.59560 0.23400 -0.10280
C5A C 0.45310 0.33950 -0.27530
C9A C 0.27690 0.38340 -0.22670
Au1F Au 0.25000 0.25000 0.24870
C16A C 0.32150 0.33460 0.04890
C1A C 0.62290 0.17810 -0.18830
C4A C 0.63390 0.18670 -0.00970
F1A F 0.52250 0.29260 -0.29790
C6A C 0.50790 0.39560 -0.28530
C8A C 0.32880 0.43840 -0.23530
F5A F 0.16330 0.37960 -0.19630
C11A C 0.24520 0.38230 0.03280
C15A C 0.43540 0.34880 0.07300
H1A H 0.68700 0.19090 -0.22690
H2A H 0.55310 0.17040 -0.22420
C2A C 0.66780 0.12630 -0.14230
C3A C 0.67090 0.13060 -0.04940
H7A H 0.56190 0.17830 0.02320
H8A H 0.69110 0.20500 0.02990
F2A F 0.61950 0.39930 -0.31620
C7A C 0.44330 0.44280 -0.26370
F4A F 0.26410 0.48690 -0.21740
F6A F 0.13070 0.37280 0.01050
C12A C 0.28530 0.43890 0.04450
C14A C 0.47640 0.40850 0.08510
F10A F 0.51760 0.30660 0.08810
H3A H 0.74230 0.11230 -0.16650
H4A H 0.60690 0.09690 -0.15190
H5A H 0.63120 0.09790 -0.02040
H6A H 0.75480 0.12920 -0.03580
F3A F 0.48990 0.49800 -0.27570
F7A F 0.20560 0.48560 0.03230
C13A C 0.39530 0.45100 0.06890
F9A F 0.58780 0.41910 0.11040
F8A F 0.43210 0.51010 0.08200
loop_
_geom_bond_atom_site_label_1
_geom_bond_atom_site_label_2
_geom_bond_site_symmetry_1
_geom_bond_site_symmetry_2
Au1 Ag1 1_555 1_555
Au2 Ag1 1_555 1_555
Ag1 S1 1_555 1_555
S1 C1 1_555 1_555
C1 H1 1_555 1_555
H2 C1 1_555 1_555
C2 C1 1_555 1_555
H3 C2 1_555 1_555
H4 C2 1_555 1_555
C3 C2 1_555 1_555
H5 C3 1_555 1_555
H6 C3 1_555 1_555
C4 S1 1_555 1_555
H7 C4 1_555 1_555
H8 C4 1_555 1_555
C5 F1 1_555 1_555
C6 C5 1_555 1_555
F2 C6 1_555 1_555
C7 C6 1_555 1_555
F3 C7 1_555 1_555
C8 C7 1_555 1_555
F4 C8 1_555 1_555
C9 C8 1_555 1_555
F5 C9 1_555 1_555
C10 Au1 1_555 1_555
C11 F6 1_555 1_555
C12 C11 1_555 1_555
F7 C12 1_555 1_555
C13 C12 1_555 1_555
F8 C13 1_555 1_555
C14 C13 1_555 1_555
F9 C14 1_555 1_555
C15 C14 1_555 1_555
F10 C15 1_555 1_555
C16 Au2 1_555 1_555
Ag1A Au1 1_555 1_555
C10A Au1 1_555 1_555
Au2F Au1 1_555 1_555
S1A Ag1A 1_555 1_555
C5A C10A 1_555 1_555
C9A C10A 1_555 1_555
Au1F Au2 1_555 1_555
C16A Au2 1_555 1_555
C1A S1A 1_555 1_555
C4A S1A 1_555 1_555
F1A C5A 1_555 1_555
C6A C5A 1_555 1_555
C8A C9A 1_555 1_555
F5A C9A 1_555 1_555
C11A C16A 1_555 1_555
C15A C16A 1_555 1_555
H1A C1A 1_555 1_555
H2A C1A 1_555 1_555
C2A C1A 1_555 1_555
C3A C4A 1_555 1_555
H7A C4A 1_555 1_555
H8A C4A 1_555 1_555
F2A C6A 1_555 1_555
C7A C6A 1_555 1_555
F4A C8A 1_555 1_555
F6A C11A 1_555 1_555
C12A C11A 1_555 1_555
C14A C15A 1_555 1_555
F10A C15A 1_555 1_555
H3A C2A 1_555 1_555
H4A C2A 1_555 1_555
H5A C3A 1_555 1_555
H6A C3A 1_555 1_555
F3A C7A 1_555 1_555
F7A C12A 1_555 1_555
C13A C12A 1_555 1_555
F9A C14A 1_555 1_555
F8A C13A 1_555 1_555
Au2 Ag1A 1_555 1_555
C3 C4 1_555 1_555
C5 C10 1_555 1_555
C9 C10 1_555 1_555
C11 C16 1_555 1_555
C15 C16 1_555 1_555
C8A C7A 1_555 1_555
C2A C3A 1_555 1_555
C14A C13A 1_555 1_555

#END
