
#######################################################################
#
#                 Cambridge Crystallographic Data Centre
#                                CCDC 
#
#######################################################################
#
# If this CIF has been generated from an entry in the Cambridge 
# Structural Database, then it will include bibliographic, chemical, 
# crystal, experimental, refinement or atomic coordinate data resulting 
# from the CCDC's data processing and validation procedures.
#
#######################################################################

data_BAJMEE10
_symmetry_cell_setting           orthorhombic
_symmetry_space_group_name_H-M   'P c c n'
_symmetry_Int_Tables_number      56
_space_group_name_Hall           '-P 2ab 2ac'
loop_
_symmetry_equiv_pos_site_id
_symmetry_equiv_pos_as_xyz
1 x,y,z
2 1/2-x,y,1/2+z
3 x,1/2-y,1/2+z
4 1/2-x,1/2-y,z
5 -x,-y,-z
6 1/2+x,-y,1/2-z
7 -x,1/2+y,1/2-z
8 1/2+x,1/2+y,-z
_cell_length_a                   11.185(3)
_cell_length_b                   22.475(6)
_cell_length_c                   14.802(4)
_cell_angle_alpha                90
_cell_angle_beta                 90
_cell_angle_gamma                90
_cell_volume                     3720.97
loop_
_atom_site_label
_atom_site_type_symbol
_atom_site_fract_x
_atom_site_fract_y
_atom_site_fract_z
Au1 Au 0.25000 0.25000 0.24870
Au2 Au 0.25000 0.25000 0.55350
Ag1 Ag 0.11620 0.23740 0.40140
C1 C 0.16190 0.16970 0.25340
C2 C 0.04610 0.16030 0.22400
C3 C -0.00670 0.10520 0.21490
C4 C 0.05670 0.05670 0.23580
C5 C 0.17360 0.06110 0.26560
C6 C 0.22220 0.11690 0.27480
F1 F -0.02220 0.20770 0.20220
F2 F -0.11950 0.10080 0.18480
F3 F 0.01090 0.00220 0.22400
F4 F 0.23630 0.01330 0.28280
F5 F 0.33660 0.12070 0.30410
C7 C 0.17880 0.16560 0.54970
C8 C 0.25480 0.11740 0.53310
C9 C 0.21520 0.05940 0.54360
C10 C 0.10260 0.04760 0.57030
C11 C 0.02480 0.09340 0.58450
C12 C 0.06450 0.15130 0.57310
F6 F 0.36860 0.12730 0.51050
F7 F 0.29520 0.01450 0.53040
F8 F 0.06720 -0.00950 0.58200
F9 F -0.08850 0.08080 0.61020
F10 F -0.01750 0.19360 0.58850
S1 S -0.09550 0.26600 0.39750
C13 C -0.12360 0.32270 0.31230
C14 C -0.16240 0.37500 0.35880
C15 C -0.17360 0.37050 0.45080
C16 C -0.13480 0.31450 0.48980
H1 H -0.18440 0.30930 0.27110
H2 H -0.05160 0.33100 0.27940
H3 H -0.23930 0.38560 0.33500
H4 H -0.10620 0.40620 0.34610
H5 H -0.12670 0.40170 0.47750
H6 H -0.25620 0.37610 0.46610
H7 H -0.06660 0.32090 0.52810
H8 H -0.19840 0.29720 0.52450
Ag1C Ag 0.38380 0.26260 0.40140
C1C C 0.33810 0.33030 0.25340
Au2A Au 0.25000 0.25000 0.05350
S1C S 0.59550 0.23400 0.39750
C2C C 0.45390 0.33970 0.22400
C6C C 0.27780 0.38310 0.27480
Au1A Au 0.25000 0.25000 0.74870
C7C C 0.32120 0.33440 0.54970
C13C C 0.62360 0.17730 0.31230
C16C C 0.63480 0.18550 0.48980
C3C C 0.50670 0.39480 0.21490
F1C F 0.52220 0.29230 0.20220
C5C C 0.32640 0.43890 0.26560
F5C F 0.16340 0.37930 0.30410
C8C C 0.24520 0.38260 0.53310
C12C C 0.43550 0.34870 0.57310
C14C C 0.66240 0.12500 0.35880
H1C H 0.68440 0.19070 0.27110
H2C H 0.55160 0.16900 0.27940
C15C C 0.67360 0.12950 0.45080
H7C H 0.56660 0.17910 0.52810
H8C H 0.69840 0.20280 0.52450
C4C C 0.44330 0.44330 0.23580
F2C F 0.61950 0.39920 0.18480
F4C F 0.26370 0.48670 0.28280
C9C C 0.28480 0.44060 0.54360
F6C F 0.13140 0.37270 0.51050
C11C C 0.47520 0.40660 0.58450
F10C F 0.51750 0.30640 0.58850
H3C H 0.73930 0.11440 0.33500
H4C H 0.60620 0.09380 0.34610
H5C H 0.62670 0.09830 0.47750
H6C H 0.75620 0.12390 0.46610
F3C F 0.48910 0.49780 0.22400
C10C C 0.39740 0.45240 0.57030
F7C F 0.20480 0.48550 0.53040
F9C F 0.58850 0.41920 0.61020
F8C F 0.43280 0.50950 0.58200
loop_
_geom_bond_atom_site_label_1
_geom_bond_atom_site_label_2
_geom_bond_site_symmetry_1
_geom_bond_site_symmetry_2
Au1 Ag1 1_555 1_555
Au2 Ag1 1_555 1_555
Ag1 S1 1_555 1_555
C1 Au1 1_555 1_555
C2 C1 1_555 1_555
C3 C2 1_555 1_555
C4 C3 1_555 1_555
C5 C4 1_555 1_555
C6 C1 1_555 1_555
F1 C2 1_555 1_555
F2 C3 1_555 1_555
F3 C4 1_555 1_555
F4 C5 1_555 1_555
F5 C6 1_555 1_555
C7 Au2 1_555 1_555
C8 C7 1_555 1_555
C9 C8 1_555 1_555
C10 C9 1_555 1_555
C11 C10 1_555 1_555
C12 C7 1_555 1_555
F6 C8 1_555 1_555
F7 C9 1_555 1_555
F8 C10 1_555 1_555
F9 C11 1_555 1_555
F10 C12 1_555 1_555
S1 C13 1_555 1_555
C13 C14 1_555 1_555
C14 C15 1_555 1_555
C15 C16 1_555 1_555
C16 S1 1_555 1_555
H1 C13 1_555 1_555
H2 C13 1_555 1_555
H3 C14 1_555 1_555
H4 C14 1_555 1_555
H5 C15 1_555 1_555
H6 C15 1_555 1_555
H7 C16 1_555 1_555
H8 C16 1_555 1_555
Ag1C Au1 1_555 1_555
C1C Au1 1_555 1_555
Au2A Au1 1_555 1_555
S1C Ag1C 1_555 1_555
C2C C1C 1_555 1_555
C6C C1C 1_555 1_555
Au1A Au2 1_555 1_555
C7C Au2 1_555 1_555
C13C S1C 1_555 1_555
C16C S1C 1_555 1_555
C3C C2C 1_555 1_555
F1C C2C 1_555 1_555
C5C C6C 1_555 1_555
F5C C6C 1_555 1_555
C8C C7C 1_555 1_555
C12C C7C 1_555 1_555
C14C C13C 1_555 1_555
H1C C13C 1_555 1_555
H2C C13C 1_555 1_555
C15C C16C 1_555 1_555
H7C C16C 1_555 1_555
H8C C16C 1_555 1_555
C4C C3C 1_555 1_555
F2C C3C 1_555 1_555
F4C C5C 1_555 1_555
C9C C8C 1_555 1_555
F6C C8C 1_555 1_555
C11C C12C 1_555 1_555
F10C C12C 1_555 1_555
H3C C14C 1_555 1_555
H4C C14C 1_555 1_555
H5C C15C 1_555 1_555
H6C C15C 1_555 1_555
F3C C4C 1_555 1_555
C10C C9C 1_555 1_555
F7C C9C 1_555 1_555
F9C C11C 1_555 1_555
F8C C10C 1_555 1_555
Au2 Ag1C 1_555 1_555
C5 C6 1_555 1_555
C11 C12 1_555 1_555
C5C C4C 1_555 1_555
C14C C15C 1_555 1_555
C11C C10C 1_555 1_555

#END
