
#######################################################################
#
#                 Cambridge Crystallographic Data Centre
#                                CCDC 
#
#######################################################################
#
# If this CIF has been generated from an entry in the Cambridge 
# Structural Database, then it will include bibliographic, chemical, 
# crystal, experimental, refinement or atomic coordinate data resulting 
# from the CCDC's data processing and validation procedures.
#
#######################################################################

data_BAJRUA
_symmetry_cell_setting           monoclinic
_symmetry_space_group_name_H-M   'P 21/c'
_symmetry_Int_Tables_number      14
_space_group_name_Hall           '-P 2ybc'
loop_
_symmetry_equiv_pos_site_id
_symmetry_equiv_pos_as_xyz
1 x,y,z
2 -x,1/2+y,1/2-z
3 -x,-y,-z
4 x,1/2-y,1/2+z
_cell_length_a                   10.451(2)
_cell_length_b                   8.557(2)
_cell_length_c                   16.569(3)
_cell_angle_alpha                90
_cell_angle_beta                 95.50(3)
_cell_angle_gamma                90
_cell_volume                     1474.93
loop_
_atom_site_label
_atom_site_type_symbol
_atom_site_fract_x
_atom_site_fract_y
_atom_site_fract_z
Cu1 Cu 0.05186(7) 0.14378(8) 0.04353(5)
N1 N -0.0733(4) 0.2793(5) -0.0072(3)
N2 N -0.8265(4) 0.4639(5) -0.3857(3)
C1 C -0.0635(5) 0.3452(7) -0.0800(4)
H1 H 0.0061 0.3184 -0.1082
C2 C -0.1519(5) 0.4508(6) -0.1148(3)
H2 H -0.1424 0.4913 -0.1659
C3 C -0.2546(5) 0.4965(6) -0.0737(3)
C4 C -0.2644(5) 0.4268(7) 0.0005(3)
H3 H -0.3326 0.4517 0.0303
C5 C -0.1734(6) 0.3205(7) 0.0304(3)
H4 H -0.1831 0.2749 0.0804
C6 C -0.3527(5) 0.6119(6) -0.1095(4)
H5 H -0.3093 0.6935 -0.1369
H6 H -0.3946 0.6602 -0.0660
C7 C -0.4540(5) 0.5377(5) -0.1690(3)
H7 H -0.5050 0.4651 -0.1406
H8 H -0.4125 0.4797 -0.2095
C8 C -0.5415(5) 0.6623(6) -0.2106(3)
H9 H -0.5834 0.7187 -0.1697
H10 H -0.4893 0.7363 -0.2373
C9 C -0.6424(5) 0.5973(6) -0.2720(3)
C10 C -0.6217(5) 0.5830(6) -0.3535(4)
H11 H -0.5450 0.6179 -0.3713
C11 C -0.7141(5) 0.5176(6) -0.4073(3)
H12 H -0.6981 0.5100 -0.4614
C12 C -0.8469(6) 0.4788(7) -0.3081(4)
H13 H -0.9250 0.4446 -0.2920
C13 C -0.7582(6) 0.5424(7) -0.2505(4)
H14 H -0.7767 0.5482 -0.1968
Cu1B Cu -0.05186(7) -0.14378(8) -0.04353(5)
N2C N 0.1735(4) 0.0361(5) 0.1143(3)
Cu1C Cu -0.94814(7) 0.35622(8) -0.45647(5)
B1 B 0.2278(5) 0.1019(6) -0.1412(3)
F1 F 0.1748(12) 0.1663(19) -0.2122(6)
F2 F 0.3106(8) -0.0214(7) -0.1426(6)
F3 F 0.3050(9) 0.2149(9) -0.1038(6)
F4 F 0.1392(5) 0.0591(9) -0.0897(4)
F5? F 0.1314(16) 0.143(4) -0.1992(12)
F6? F 0.201(2) -0.0465(10) -0.1688(11)
F7? F 0.3198(17) 0.188(2) -0.1742(17)
F8? F 0.2008(19) 0.174(2) -0.0711(6)
loop_
_geom_bond_atom_site_label_1
_geom_bond_atom_site_label_2
_geom_bond_site_symmetry_1
_geom_bond_site_symmetry_2
Cu1 N1 1_555 1_555
N1 C1 1_555 1_555
N2 C11 1_555 1_555
C1 H1 1_555 1_555
C2 C1 1_555 1_555
H2 C2 1_555 1_555
C3 C2 1_555 1_555
C4 C3 1_555 1_555
H3 C4 1_555 1_555
C5 N1 1_555 1_555
H4 C5 1_555 1_555
C6 C3 1_555 1_555
H5 C6 1_555 1_555
H6 C6 1_555 1_555
C7 C6 1_555 1_555
H7 C7 1_555 1_555
H8 C7 1_555 1_555
C8 C7 1_555 1_555
H9 C8 1_555 1_555
H10 C8 1_555 1_555
C9 C8 1_555 1_555
C10 C9 1_555 1_555
H11 C10 1_555 1_555
C11 C10 1_555 1_555
H12 C11 1_555 1_555
C12 N2 1_555 1_555
H13 C12 1_555 1_555
C13 C9 1_555 1_555
H14 C13 1_555 1_555
B1 F1 1_555 1_555
F2 B1 1_555 1_555
F3 B1 1_555 1_555
F4 B1 1_555 1_555
Cu1B Cu1 1_555 1_555
N2C Cu1 1_555 1_555
Cu1C N2 1_555 1_555
C4 C5 1_555 1_555
C12 C13 1_555 1_555

#END
