
#######################################################################
#
#                 Cambridge Crystallographic Data Centre
#                                CCDC 
#
#######################################################################
#
# If this CIF has been generated from an entry in the Cambridge 
# Structural Database, then it will include bibliographic, chemical, 
# crystal, experimental, refinement or atomic coordinate data resulting 
# from the CCDC's data processing and validation procedures.
#
#######################################################################

data_BAJWAM
_symmetry_cell_setting           triclinic
_symmetry_space_group_name_H-M   'P -1'
_symmetry_Int_Tables_number      2
_space_group_name_Hall           '-P 1'
loop_
_symmetry_equiv_pos_site_id
_symmetry_equiv_pos_as_xyz
1 x,y,z
2 -x,-y,-z
_cell_length_a                   12.8576(3)
_cell_length_b                   14.5491(3)
_cell_length_c                   14.8713(3)
_cell_angle_alpha                76.2500(10)
_cell_angle_beta                 68.6450(10)
_cell_angle_gamma                84.7590(10)
_cell_volume                     2516.64
loop_
_atom_site_label
_atom_site_type_symbol
_atom_site_fract_x
_atom_site_fract_y
_atom_site_fract_z
Mn1 Mn 0.22462(4) 0.24070(4) 0.40450(4)
Mn2 Mn 0.13909(4) 0.03377(4) 0.41924(4)
Mn3 Mn -0.04178(4) 0.19184(4) 0.53821(4)
Mn4 Mn -0.27174(4) 0.11087(4) 0.71948(4)
Na1 Na 0.40451(12) 0.08505(11) 0.27753(11)
O1 O 0.1916(2) 0.36980(19) 0.3667(2)
O2 O 0.3426(2) 0.2464(2) 0.27689(19)
O3 O 0.4786(3) 0.3113(3) 0.1399(3)
O4 O 0.1141(2) 0.23541(18) 0.53372(18)
O5 O 0.2701(2) 0.10835(18) 0.43483(18)
O6 O 0.5570(3) 0.4320(3) 0.4467(3)
H1 H 0.5879 0.4359 0.3870
O7 O -0.1955(2) 0.11121(17) 0.56293(17)
O8 O 0.2423(2) 0.02442(18) 0.26720(17)
O9 O 0.0867(2) 0.17813(18) 0.38776(18)
O10 O -0.1119(2) 0.32988(19) 0.5890(2)
O11 O 0.1247(2) -0.14232(18) 0.29902(18)
O12 O -0.4229(2) 0.08296(19) 0.73524(19)
O13 O -0.3085(2) 0.24149(18) 0.7081(2)
O14 O -0.6002(2) 0.1027(2) 0.7517(2)
O15 O 0.4935(3) -0.1361(2) -0.1109(2)
O16 O 0.5633(3) 0.0549(2) 0.3217(3)
N1 N 0.3344(3) 0.2584(2) 0.4946(2)
N2 N -0.0235(2) -0.0263(2) 0.4244(2)
N3 N -0.0505(2) -0.0115(2) 0.3522(2)
N4 N -0.0751(3) 0.0018(3) 0.2830(3)
N5 N 0.2806(3) -0.0746(2) 0.1172(2)
N6 N -0.1166(2) 0.2783(2) 0.4191(2)
C1 C 0.2272(4) 0.4265(3) 0.2768(3)
C2 C 0.1683(4) 0.5109(3) 0.2596(3)
H2 H 0.1051 0.5249 0.3102
C3 C 0.2030(6) 0.5737(4) 0.1685(4)
H3 H 0.1620 0.6288 0.1586
C4 C 0.2972(7) 0.5560(4) 0.0921(4)
H4 H 0.3207 0.5993 0.0316
C5 C 0.3553(6) 0.4742(4) 0.1067(4)
H5 H 0.4187 0.4622 0.0553
C6 C 0.3221(4) 0.4072(3) 0.1974(3)
C7 C 0.3859(4) 0.3181(3) 0.2045(3)
C8 C 0.2531(3) 0.2656(3) 0.5936(3)
H6 H 0.2785 0.3119 0.6184
H7 H 0.2466 0.2050 0.6398
C9 C 0.1404(3) 0.2956(3) 0.5842(3)
H8 H 0.0834 0.2910 0.6493
H9 H 0.1435 0.3607 0.5477
C10 C 0.3962(3) 0.1682(3) 0.4955(3)
H10 H 0.4250 0.1553 0.5491
H11 H 0.4591 0.1728 0.4338
C11 C 0.3207(3) 0.0870(3) 0.5086(3)
H12 H 0.3645 0.0292 0.5032
H13 H 0.2632 0.0770 0.5739
C12 C 0.4081(3) 0.3416(3) 0.4466(3)
H14 H 0.3622 0.3983 0.4510
H15 H 0.4446 0.3413 0.3770
C13 C 0.4973(4) 0.3476(4) 0.4895(4)
H16 H 0.4623 0.3426 0.5603
H17 H 0.5487 0.2948 0.4791
C14 C 0.2966(3) 0.0283(3) 0.0921(3)
H18 H 0.2765 0.0562 0.0346
H19 H 0.3747 0.0419 0.0757
C15 C 0.2252(3) 0.0722(3) 0.1787(3)
H20 H 0.2443 0.1384 0.1641
H21 H 0.1470 0.0686 0.1875
C16 C 0.1683(3) -0.1003(3) 0.1238(3)
H22 H 0.1750 -0.1255 0.0671
H23 H 0.1209 -0.0445 0.1235
C17 C 0.1166(3) -0.1740(3) 0.2187(3)
H24 H 0.0388 -0.1832 0.2295
H25 H 0.1554 -0.2340 0.2137
C18 C 0.3717(3) -0.1254(3) 0.0551(3)
H26 H 0.3556 -0.1925 0.0773
H27 H 0.4399 -0.1155 0.0652
C19 C 0.3921(4) -0.0964(4) -0.0552(3)
H28 H 0.3304 -0.1176 -0.0679
H29 H 0.3954 -0.0280 -0.0761
C20 C -0.4096(3) 0.2817(3) 0.7339(3)
C21 C -0.4139(4) 0.3761(4) 0.7396(5)
H30 H -0.3483 0.4080 0.7249
C22 C -0.5154(5) 0.4228(5) 0.7669(7)
H31 H -0.5179 0.4859 0.7708
C23 C -0.6130(5) 0.3760(5) 0.7886(8)
H32 H -0.6812 0.4074 0.8074
C24 C -0.6098(4) 0.2825(4) 0.7823(5)
H33 H -0.6760 0.2517 0.7962
C25 C -0.5091(3) 0.2340(3) 0.7555(3)
C26 C -0.5123(3) 0.1356(3) 0.7474(3)
C27 C -0.2630(3) 0.1573(3) 0.5078(3)
H34 H -0.3049 0.1104 0.4986
H35 H -0.3159 0.1990 0.5446
C28 C -0.1921(3) 0.2142(3) 0.4078(3)
H36 H -0.2401 0.2511 0.3751
H37 H -0.1481 0.1716 0.3667
C29 C -0.0215(3) 0.3063(3) 0.3259(3)
H38 H -0.0490 0.3291 0.2719
H39 H 0.0183 0.3576 0.3303
C30 C 0.0584(3) 0.2240(3) 0.3043(3)
H40 H 0.1258 0.2471 0.2492
H41 H 0.0240 0.1788 0.2852
C31 C -0.1216(3) 0.4021(3) 0.5082(3)
H42 H -0.1652 0.4545 0.5332
H43 H -0.0480 0.4254 0.4643
C32 C -0.1773(3) 0.3632(3) 0.4515(3)
H44 H -0.1783 0.4113 0.3940
H45 H -0.2540 0.3467 0.4932
C33 C 0.6577(4) 0.1134(3) 0.2834(4)
H46 H 0.6759 0.1360 0.2133
H47 H 0.7196 0.0780 0.2959
H48 H 0.6419 0.1662 0.3147
H49 H 0.480(5) -0.190(4) -0.099(4)
H50 H 0.578(5) 0.017(4) 0.297(4)
H51 H -0.172(4) 0.316(3) 0.628(4)
Mn2A Mn -0.13909(4) -0.03377(4) 0.58076(4)
Mn3A Mn 0.04178(4) -0.19184(4) 0.46179(4)
Mn4A Mn 0.27174(4) -0.11087(4) 0.28052(4)
Na1A Na -0.40451(12) -0.08505(11) 0.72247(11)
Na1A_2 Na 0.59549(12) -0.08505(11) -0.27753(11)
O7A O 0.1955(2) -0.11121(17) 0.43707(17)
O8A O -0.2423(2) -0.02442(18) 0.73280(17)
O11A O -0.1247(2) 0.14232(18) 0.70098(18)
O12A O 0.4229(2) -0.08296(19) 0.26476(19)
O15A O 0.5065(3) 0.1361(2) 0.1109(2)
N2A N 0.0235(2) 0.0263(2) 0.5756(2)
N5A N -0.2806(3) 0.0746(2) 0.8828(2)
H49A H 0.520(5) 0.190(4) 0.099(4)
O17 O 1.030(3) 0.178(3) -0.007(2)
C34 C 0.9507(15) 0.1840(13) 0.0909(13)
O18 O 0.7098(6) 0.4032(6) 0.2607(5)
H52 H 0.7754 0.4125 0.2509
C35 C 0.7014(8) 0.3812(6) 0.1748(7)
H53 H 0.6401 0.3389 0.1945
H54 H 0.7694 0.3516 0.1405
H55 H 0.6892 0.4384 0.1319
O19 O 0.8931(6) 0.5147(6) 0.1784(6)
H56 H 0.9330 0.5176 0.1205
C36 C 0.9057(12) 0.5914(10) 0.2049(13)
H57 H 0.8228 0.6196 0.2380
H58 H 0.9394 0.5906 0.2477
H59 H 0.9325 0.6475 0.1463
O20 O -0.059(3) -0.427(2) 0.976(3)
H60 H -0.0445 -0.4678 0.9217
C37 C -0.149(2) -0.3656(18) 0.9604(19)
H61 H -0.2196 -0.3962 0.9995
H62 H -0.1409 -0.3521 0.8917
H63 H -0.1472 -0.3076 0.9798
O21 O 0.7993(18) -0.1409(14) 0.1084(16)
H64 H 0.7315 -0.1317 0.1196
C38 C 0.8525(9) -0.0839(9) 0.1373(10)
H65 H 0.8121 -0.0254 0.1421
H66 H 0.9266 -0.0715 0.0897
H67 H 0.8567 -0.1145 0.2007
O22? O 0.8924(12) 0.2367(10) 0.0281(10)
loop_
_geom_bond_atom_site_label_1
_geom_bond_atom_site_label_2
_geom_bond_site_symmetry_1
_geom_bond_site_symmetry_2
Mn1 O1 1_555 1_555
Mn2 O5 1_555 1_555
Mn3 O4 1_555 1_555
Mn4 O7 1_555 1_555
Na1 O2 1_555 1_555
O1 C1 1_555 1_555
O2 Mn1 1_555 1_555
O3 C7 1_555 1_555
O4 Mn1 1_555 1_555
O5 Mn1 1_555 1_555
O6 H1 1_555 1_555
O7 Mn3 1_555 1_555
O8 Mn2 1_555 1_555
O9 Mn1 1_555 1_555
O10 Mn3 1_555 1_555
O11 C17 1_555 1_555
O12 Mn4 1_555 1_555
O13 Mn4 1_555 1_555
O14 C26 1_555 1_555
O15 C19 1_555 1_555
O16 Na1 1_555 1_555
N1 Mn1 1_555 1_555
N2 Mn2 1_555 1_555
N3 N2 1_555 1_555
N4 N3 1_555 1_555
N5 C14 1_555 1_555
N6 Mn3 1_555 1_555
C1 C2 1_555 1_555
C2 H2 1_555 1_555
C3 C2 1_555 1_555
H3 C3 1_555 1_555
C4 C3 1_555 1_555
H4 C4 1_555 1_555
C5 C4 1_555 1_555
H5 C5 1_555 1_555
C6 C1 1_555 1_555
C7 O2 1_555 1_555
C8 N1 1_555 1_555
H6 C8 1_555 1_555
H7 C8 1_555 1_555
C9 O4 1_555 1_555
H8 C9 1_555 1_555
H9 C9 1_555 1_555
C10 N1 1_555 1_555
H10 C10 1_555 1_555
H11 C10 1_555 1_555
C11 O5 1_555 1_555
H12 C11 1_555 1_555
H13 C11 1_555 1_555
C12 N1 1_555 1_555
H14 C12 1_555 1_555
H15 C12 1_555 1_555
C13 O6 1_555 1_555
H16 C13 1_555 1_555
H17 C13 1_555 1_555
C14 H18 1_555 1_555
H19 C14 1_555 1_555
C15 O8 1_555 1_555
H20 C15 1_555 1_555
H21 C15 1_555 1_555
C16 N5 1_555 1_555
H22 C16 1_555 1_555
H23 C16 1_555 1_555
C17 C16 1_555 1_555
H24 C17 1_555 1_555
H25 C17 1_555 1_555
C18 N5 1_555 1_555
H26 C18 1_555 1_555
H27 C18 1_555 1_555
C19 C18 1_555 1_555
H28 C19 1_555 1_555
H29 C19 1_555 1_555
C20 O13 1_555 1_555
C21 C20 1_555 1_555
H30 C21 1_555 1_555
C22 C21 1_555 1_555
H31 C22 1_555 1_555
C23 C22 1_555 1_555
H32 C23 1_555 1_555
C24 C23 1_555 1_555
H33 C24 1_555 1_555
C25 C20 1_555 1_555
C26 O12 1_555 1_555
C27 O7 1_555 1_555
H34 C27 1_555 1_555
H35 C27 1_555 1_555
C28 N6 1_555 1_555
H36 C28 1_555 1_555
H37 C28 1_555 1_555
C29 N6 1_555 1_555
H38 C29 1_555 1_555
H39 C29 1_555 1_555
C30 O9 1_555 1_555
H40 C30 1_555 1_555
H41 C30 1_555 1_555
C31 O10 1_555 1_555
H42 C31 1_555 1_555
H43 C31 1_555 1_555
C32 N6 1_555 1_555
H44 C32 1_555 1_555
H45 C32 1_555 1_555
C33 O16 1_555 1_555
H46 C33 1_555 1_555
H47 C33 1_555 1_555
H48 C33 1_555 1_555
H49 O15 1_555 1_555
H50 O16 1_555 1_555
H51 O10 1_555 1_555
O17 C34 1_555 1_555
O18 H52 1_555 1_555
C35 O18 1_555 1_555
H53 C35 1_555 1_555
H54 C35 1_555 1_555
H55 C35 1_555 1_555
O19 H56 1_555 1_555
C36 O19 1_555 1_555
H57 C36 1_555 1_555
H58 C36 1_555 1_555
H59 C36 1_555 1_555
O20 H60 1_555 1_555
C37 O20 1_555 1_555
H61 C37 1_555 1_555
H62 C37 1_555 1_555
H63 C37 1_555 1_555
O21 H64 1_555 1_555
C38 O21 1_555 1_555
H65 C38 1_555 1_555
H66 C38 1_555 1_555
H67 C38 1_555 1_555
Mn2A O7 1_555 1_555
Mn3A O11 1_555 1_555
Mn4A O8 1_555 1_555
Na1A O12 1_555 1_555
Na1A_2 O15 1_555 1_555
O7A Mn2 1_555 1_555
O8A Mn4 1_555 1_555
O11A Mn3 1_555 1_555
O12A Na1 1_555 1_555
O15A Na1 1_555 1_555
N2A Mn2 1_555 1_555
N5A Mn4 1_555 1_555
H49A O15A 1_555 1_555
Mn2 O9 1_555 1_555
Mn3 O9 1_555 1_555
Mn3 N2A 1_555 1_555
Mn4 O11A 1_555 1_555
Na1 O5 1_555 1_555
Na1 O8 1_555 1_555
O11 Mn4A 1_555 1_555
N2 Mn2A 1_555 1_555
N2 Mn3A 1_555 1_555
N5 Mn4A 1_555 1_555
C5 C6 1_555 1_555
C6 C7 1_555 1_555
C8 C9 1_555 1_555
C10 C11 1_555 1_555
C12 C13 1_555 1_555
C14 C15 1_555 1_555
C24 C25 1_555 1_555
C25 C26 1_555 1_555
C27 C28 1_555 1_555
C29 C30 1_555 1_555
C31 C32 1_555 1_555
Mn2A O8A 1_555 1_555
Mn2A N2A 1_555 1_555
Mn3A O7A 1_555 1_555
Mn4A O7A 1_555 1_555
Mn4A O12A 1_555 1_555
Na1A O8A 1_555 1_555

#END
