
#######################################################################
#
#                 Cambridge Crystallographic Data Centre
#                                CCDC 
#
#######################################################################
#
# If this CIF has been generated from an entry in the Cambridge 
# Structural Database, then it will include bibliographic, chemical, 
# crystal, experimental, refinement or atomic coordinate data resulting 
# from the CCDC's data processing and validation procedures.
#
#######################################################################

data_BAJWIT
_symmetry_cell_setting           tetragonal
_symmetry_space_group_name_H-M   'I 41 c d'
_symmetry_Int_Tables_number      110
_space_group_name_Hall           'I 4bw -2c'
loop_
_symmetry_equiv_pos_site_id
_symmetry_equiv_pos_as_xyz
1 x,y,z
2 -x,-y,z
3 -x,y,1/2+z
4 x,-y,1/2+z
5 y,1/2-x,1/4+z
6 -y,1/2+x,1/4+z
7 1/2+y,x,1/4+z
8 1/2-y,-x,1/4+z
9 1/2+x,1/2+y,1/2+z
10 1/2-x,1/2-y,1/2+z
11 1/2-x,1/2+y,z
12 1/2+x,1/2-y,z
13 1/2+y,-x,3/4+z
14 1/2-y,x,3/4+z
15 y,1/2+x,3/4+z
16 -y,1/2-x,3/4+z
_cell_length_a                   22.366(5)
_cell_length_b                   22.366(5)
_cell_length_c                   13.311(2)
_cell_angle_alpha                90
_cell_angle_beta                 90
_cell_angle_gamma                90
_cell_volume                     6658.67
loop_
_atom_site_label
_atom_site_type_symbol
_atom_site_fract_x
_atom_site_fract_y
_atom_site_fract_z
O3 O 0.5310(3) 0.4985(6) 0.105(3)
O3A O 0.4690(3) 0.5015(6) 0.105(3)
Fe1 Fe 0.60971(3) 0.40465(3) 0.3527(2)
O1 O 0.5574(6) 0.4842(7) 0.3889(18)
N1 N 0.67320(18) 0.33009(16) 0.3497(7)
N2 N 0.6618(3) 0.4457(3) 0.2356(6)
N3 N 0.6652(3) 0.5565(3) -0.0312(6)
N4 N 0.5567(3) 0.3631(3) 0.4677(8)
N5 N 0.4452(3) 0.3638(3) 0.7405(7)
N7 N 0.4966(14) 0.3202(12) 0.584(3)
N8 N 0.7131(3) 0.5031(5) 0.1066(19)
N9 N 0.8786(2) 0.0878(2) 0.352(2)
C1 C 0.6839(4) 0.4730(4) 0.1713(8)
C2 C 0.6846(4) 0.5302(4) 0.0348(8)
C3 C 0.5310(4) 0.3446(4) 0.5362(10)
C4 C 0.4730(5) 0.3459(4) 0.6763(11)
C5 C 0.7320(2) 0.3397(2) 0.3495(8)
H1 H 0.7457 0.3790 0.3507
C6 C 0.7733(2) 0.2946(2) 0.3476(7)
H2 H 0.8139 0.3035 0.3459
C7 C 0.7546(2) 0.23542(19) 0.3483(9)
C8 C 0.6938(2) 0.2256(2) 0.3482(7)
H3 H 0.6790 0.1867 0.3467
C9 C 0.6548(2) 0.2735(2) 0.3502(8)
H4 H 0.6139 0.2659 0.3521
C10 C 0.7980(2) 0.1847(2) 0.3488(9)
C11 C 0.8588(2) 0.1934(3) 0.3510(10)
H5 H 0.8742 0.2320 0.3507
C12 C 0.8971(3) 0.1449(3) 0.3538(10)
H6 H 0.9380 0.1523 0.3573
C13 C 0.8194(3) 0.0805(2) 0.3493(10)
H7 H 0.8048 0.0415 0.3494
C14 C 0.7784(3) 0.1263(2) 0.3467(10)
H8 H 0.7377 0.1179 0.3437
N2C N 0.6618(3) 0.5543(3) 0.7356(6)
N3C N 0.6652(3) 0.4435(3) 0.4688(6)
N8C N 0.7131(3) 0.4969(5) 0.6066(19)
C1C C 0.6839(4) 0.5270(4) 0.6713(8)
C2C C 0.6846(4) 0.4698(4) 0.5348(8)
N4B N 0.4433(3) 0.3631(3) -0.0323(8)
N5B N 0.5548(3) 0.3638(3) 0.2405(7)
N7B N 0.5034(14) 0.3202(12) 0.084(3)
C3B C 0.4690(4) 0.3446(4) 0.0362(10)
C4B C 0.5270(5) 0.3459(4) 0.1763(11)
Fe1C Fe 0.60971(3) 0.59535(3) 0.8527(2)
O1C O 0.5574(6) 0.5158(7) 0.8889(18)
N1C N 0.67320(18) 0.66991(16) 0.8497(7)
N9C N 0.8786(2) 0.9122(2) 0.852(2)
C5C C 0.7320(2) 0.6603(2) 0.8495(8)
H1C H 0.7457 0.6210 0.8507
C6C C 0.7733(2) 0.7054(2) 0.8476(7)
H2C H 0.8139 0.6965 0.8459
C7C C 0.7546(2) 0.76458(19) 0.8483(9)
C8C C 0.6938(2) 0.7744(2) 0.8482(7)
H3C H 0.6790 0.8133 0.8467
C9C C 0.6548(2) 0.7265(2) 0.8502(8)
H4C H 0.6139 0.7341 0.8521
C10C C 0.7980(2) 0.8153(2) 0.8488(9)
C11C C 0.8588(2) 0.8066(3) 0.8510(10)
H5C H 0.8742 0.7680 0.8507
C12C C 0.8971(3) 0.8551(3) 0.8538(10)
H6C H 0.9380 0.8477 0.8573
C13C C 0.8194(3) 0.9195(2) 0.8493(10)
H7C H 0.8048 0.9585 0.8494
C14C C 0.7784(3) 0.8737(2) 0.8467(10)
H8C H 0.7377 0.8821 0.8437
Fe1C_2 Fe 0.60971(3) 0.59535(3) -0.1473(2)
Fe1B Fe 0.39029(3) 0.40465(3) 0.8527(2)
Fe1B_2 Fe 0.39029(3) 0.40465(3) -0.1473(2)
N3_2 N 0.6652(3) 0.5565(3) 0.9688(6)
N4C N 0.5567(3) 0.6369(3) 0.9677(8)
N5A N 0.5548(3) 0.6362(3) 0.7405(7)
O2? O 0.5589(7) 0.4891(9) 0.3184(15)
N6? N 0.515(2) 0.3163(13) 0.627(3)
loop_
_geom_bond_atom_site_label_1
_geom_bond_atom_site_label_2
_geom_bond_site_symmetry_1
_geom_bond_site_symmetry_2
Fe1 O1 1_555 1_555
O3 O3A 1_555 1_555
N1 Fe1 1_555 1_555
N2 Fe1 1_555 1_555
N3 C2 1_555 1_555
N4 Fe1 1_555 1_555
N5 C4 1_555 1_555
N7 C3 1_555 1_555
N8 C1 1_555 1_555
N9 C12 1_555 1_555
C1 N2 1_555 1_555
C2 N8 1_555 1_555
C3 N4 1_555 1_555
C4 N7 1_555 1_555
C5 N1 1_555 1_555
H1 C5 1_555 1_555
C6 C5 1_555 1_555
H2 C6 1_555 1_555
C7 C6 1_555 1_555
C8 C7 1_555 1_555
H3 C8 1_555 1_555
C9 N1 1_555 1_555
H4 C9 1_555 1_555
C10 C7 1_555 1_555
C11 C10 1_555 1_555
H5 C11 1_555 1_555
C12 C11 1_555 1_555
H6 C12 1_555 1_555
C13 N9 1_555 1_555
H7 C13 1_555 1_555
C14 C10 1_555 1_555
H8 C14 1_555 1_555
N2C C1C 1_555 1_555
N3C Fe1 1_555 1_555
N8C C1C 1_555 1_555
C2C N3C 1_555 1_555
N4B C3B 1_555 1_555
N5B Fe1 1_555 1_555
N7B C3B 1_555 1_555
C4B N5B 1_555 1_555
Fe1C N2C 1_555 1_555
O1C Fe1C 1_555 1_555
N1C Fe1C 1_555 1_555
N9C C12C 1_555 1_555
C5C N1C 1_555 1_555
H1C C5C 1_555 1_555
C6C C5C 1_555 1_555
H2C C6C 1_555 1_555
C7C C6C 1_555 1_555
C8C C7C 1_555 1_555
H3C C8C 1_555 1_555
C9C N1C 1_555 1_555
H4C C9C 1_555 1_555
C10C C7C 1_555 1_555
C11C C10C 1_555 1_555
H5C C11C 1_555 1_555
C12C C11C 1_555 1_555
H6C C12C 1_555 1_555
C13C N9C 1_555 1_555
H7C C13C 1_555 1_555
C14C C10C 1_555 1_555
H8C C14C 1_555 1_555
Fe1C_2 N3 1_555 1_555
Fe1B N5 1_555 1_555
Fe1B_2 N4B 1_555 1_555
N3_2 Fe1C 1_555 1_555
N4C Fe1C 1_555 1_555
N5A Fe1C 1_555 1_555
C8 C9 1_555 1_555
C13 C14 1_555 1_555
N8C C2C 1_555 1_555
N7B C4B 1_555 1_555
C8C C9C 1_555 1_555
C13C C14C 1_555 1_555

#END
