
#######################################################################
#
#                 Cambridge Crystallographic Data Centre
#                                CCDC 
#
#######################################################################
#
# If this CIF has been generated from an entry in the Cambridge 
# Structural Database, then it will include bibliographic, chemical, 
# crystal, experimental, refinement or atomic coordinate data resulting 
# from the CCDC's data processing and validation procedures.
#
#######################################################################

data_BAJXER
_symmetry_cell_setting           triclinic
_symmetry_space_group_name_H-M   'P -1'
_symmetry_Int_Tables_number      2
_space_group_name_Hall           '-P 1'
loop_
_symmetry_equiv_pos_site_id
_symmetry_equiv_pos_as_xyz
1 x,y,z
2 -x,-y,-z
_cell_length_a                   9.0858(11)
_cell_length_b                   9.1643(12)
_cell_length_c                   9.7940(13)
_cell_angle_alpha                112.078(10)
_cell_angle_beta                 101.018(10)
_cell_angle_gamma                93.931(10)
_cell_volume                     732.881
loop_
_atom_site_label
_atom_site_type_symbol
_atom_site_fract_x
_atom_site_fract_y
_atom_site_fract_z
Dy1 Dy 0.129071(16) 0.840119(16) 0.446298(17)
Na1 Na 0.5000 1.0000 0.5000
Na2 Na 0.0000 0.5000 0.5000
O1 O 0.2077(3) 0.7048(3) 0.6122(3)
O2 O 0.3664(3) 0.9147(3) 0.6493(3)
C1 C 0.3305(5) 0.8025(5) 0.6855(5)
C2 C 0.4285(5) 0.7815(6) 0.8173(5)
H1 H 0.5348 0.7920 0.8111
H2 H 0.3970 0.6757 0.8142
H3 H 0.4175 0.8633 0.9124
O3 O 0.0466(4) 0.8128(4) 0.1848(3)
O4 O -0.0755(3) 0.9589(3) 0.3436(3)
C3 C -0.0566(5) 0.8950(5) 0.2081(5)
C4 C -0.1604(6) 0.9166(7) 0.0821(6)
H4 H -0.1144 1.0062 0.0648
H5 H -0.2574 0.9388 0.1089
H6 H -0.1776 0.8193 -0.0104
O5 O 0.7472(3) 0.9178(3) 0.5419(3)
O6 O 0.9014(3) 0.7344(3) 0.4909(3)
C5 C 0.7802(4) 0.7813(4) 0.5234(4)
C6 C 0.6698(5) 0.6673(5) 0.5462(6)
H7 H 0.5812 0.7175 0.5708
H8 H 0.6375 0.5703 0.4531
H9 H 0.7190 0.6398 0.6296
O7 O 0.6646(3) 1.2383(3) 0.6588(3)
O8 O 0.7076(4) 1.4911(4) 0.8244(4)
C7 C 0.6341(5) 1.3529(5) 0.7671(4)
C8 C 0.4986(6) 1.3191(6) 0.8259(6)
H10 H 0.5325 1.3365 0.9327
H11 H 0.4258 1.3906 0.8161
H12 H 0.4501 1.2082 0.7668
O9 O 0.0557(3) 0.5497(3) 0.2889(3)
H13 H 0.140(5) 0.522(6) 0.260(6)
C9 C -0.0794(5) 0.4785(6) 0.1666(5)
H14 H -0.0833 0.3626 0.1217
H15 H -0.0766 0.5211 0.0890
H16 H -0.1697 0.5037 0.2066
Dy1A Dy 0.870929(16) 1.159881(16) 0.553702(17)
Dy1A_2 Dy -0.129071(16) 1.159881(16) 0.553702(17)
Dy1_2 Dy 1.129071(16) 0.840119(16) 0.446298(17)
Dy1A_3 Dy -0.129071(16) 0.159881(16) 0.553702(17)
Na2_2 Na 1.0000 0.5000 0.5000
Na2_3 Na 1.0000 1.5000 0.5000
Na2_4 Na 0.0000 1.5000 0.5000
O1A O 0.7923(3) 1.2952(3) 0.3878(3)
O1A_2 O -0.2077(3) 0.2952(3) 0.3878(3)
O2A O 0.6336(3) 1.0853(3) 0.3507(3)
C1A C 0.6695(5) 1.1975(5) 0.3145(5)
C2A C 0.5715(5) 1.2185(6) 0.1827(5)
H1A H 0.4652 1.2080 0.1889
H2A H 0.6030 1.3243 0.1858
H3A H 0.5825 1.1367 0.0876
O3A O -0.0466(4) 1.1872(4) 0.8152(3)
O3A_2 O 0.9534(4) 1.1872(4) 0.8152(3)
O4A O 0.0755(3) 1.0411(3) 0.6564(3)
O4A_2 O 1.0755(3) 1.0411(3) 0.6564(3)
O4_2 O 0.9245(3) 0.9589(3) 0.3436(3)
C3A C 0.0566(5) 1.1050(5) 0.7919(5)
C4A C 0.1604(6) 1.0834(7) 0.9179(6)
H4A H 0.1144 0.9938 0.9352
H5A H 0.2574 1.0612 0.8911
H6A H 0.1776 1.1807 1.0104
O5A O 0.2528(3) 1.0822(3) 0.4581(3)
O6A O 0.0986(3) 1.2656(3) 0.5091(3)
O6_2 O -0.0986(3) 0.7344(3) 0.4909(3)
O6A_2 O 0.0986(3) 0.2656(3) 0.5091(3)
O6A_3 O 1.0986(3) 1.2656(3) 0.5091(3)
C5A C 0.2198(4) 1.2187(4) 0.4766(4)
C6A C 0.3302(5) 1.3327(5) 0.4538(6)
H7A H 0.4188 1.2825 0.4292
H8A H 0.3625 1.4297 0.5469
H9A H 0.2810 1.3602 0.3704
O7A O 0.3354(3) 0.7617(3) 0.3412(3)
O8A O 0.2924(4) 0.5089(4) 0.1756(4)
C7A C 0.3659(5) 0.6471(5) 0.2329(4)
C8A C 0.5014(6) 0.6809(6) 0.1741(6)
H10A H 0.4675 0.6635 0.0673
H11A H 0.5742 0.6094 0.1839
H12A H 0.5499 0.7918 0.2332
O9A O -0.0557(3) 0.4503(3) 0.7111(3)
O9A_2 O 0.9443(3) 1.4503(3) 0.7111(3)
H13A H -0.140(5) 0.478(6) 0.740(6)
H13A_2 H 0.860(5) 1.478(6) 0.740(6)
C9A C 0.0794(5) 0.5215(6) 0.8334(5)
H14A H 0.0833 0.6374 0.8783
H15A H 0.0766 0.4789 0.9110
H16A H 0.1697 0.4963 0.7934
loop_
_geom_bond_atom_site_label_1
_geom_bond_atom_site_label_2
_geom_bond_site_symmetry_1
_geom_bond_site_symmetry_2
Dy1 O1 1_555 1_555
Na1 O2 1_555 1_555
Na2 O1 1_555 1_555
O1 C1 1_555 1_555
O2 Dy1 1_555 1_555
C1 O2 1_555 1_555
C2 C1 1_555 1_555
H1 C2 1_555 1_555
H2 C2 1_555 1_555
H3 C2 1_555 1_555
O3 Dy1 1_555 1_555
O4 Dy1 1_555 1_555
C3 O3 1_555 1_555
C4 C3 1_555 1_555
H4 C4 1_555 1_555
H5 C4 1_555 1_555
H6 C4 1_555 1_555
O5 Na1 1_555 1_555
O6 C5 1_555 1_555
C5 O5 1_555 1_555
C6 C5 1_555 1_555
H7 C6 1_555 1_555
H8 C6 1_555 1_555
H9 C6 1_555 1_555
O7 Na1 1_555 1_555
O8 C7 1_555 1_555
C7 O7 1_555 1_555
C8 C7 1_555 1_555
H10 C8 1_555 1_555
H11 C8 1_555 1_555
H12 C8 1_555 1_555
O9 Dy1 1_555 1_555
H13 O9 1_555 1_555
C9 O9 1_555 1_555
H14 C9 1_555 1_555
H15 C9 1_555 1_555
H16 C9 1_555 1_555
Dy1A O5 1_555 1_555
Dy1A_2 O4 1_555 1_555
Dy1_2 O6 1_555 1_555
Dy1A_3 O1A_2 1_555 1_555
Na2_2 O6 1_555 1_555
Na2_3 O1A 1_555 1_555
Na2_4 O6A 1_555 1_555
O1A Dy1A 1_555 1_555
O1A_2 Na2 1_555 1_555
O2A Na1 1_555 1_555
C1A O1A 1_555 1_555
C2A C1A 1_555 1_555
H1A C2A 1_555 1_555
H2A C2A 1_555 1_555
H3A C2A 1_555 1_555
O3A Dy1A_2 1_555 1_555
O3A_2 Dy1A 1_555 1_555
O4A Dy1 1_555 1_555
O4A_2 Dy1A 1_555 1_555
O4_2 Dy1A 1_555 1_555
C3A O3A 1_555 1_555
C4A C3A 1_555 1_555
H4A C4A 1_555 1_555
H5A C4A 1_555 1_555
H6A C4A 1_555 1_555
O5A Dy1 1_555 1_555
O6A Dy1A_2 1_555 1_555
O6_2 Dy1 1_555 1_555
O6A_2 Na2 1_555 1_555
O6A_3 Dy1A 1_555 1_555
C5A O5A 1_555 1_555
C6A C5A 1_555 1_555
H7A C6A 1_555 1_555
H8A C6A 1_555 1_555
H9A C6A 1_555 1_555
O7A Dy1 1_555 1_555
O8A C7A 1_555 1_555
C7A O7A 1_555 1_555
C8A C7A 1_555 1_555
H10A C8A 1_555 1_555
H11A C8A 1_555 1_555
H12A C8A 1_555 1_555
O9A Na2 1_555 1_555
O9A_2 Dy1A 1_555 1_555
H13A O9A 1_555 1_555
H13A_2 O9A_2 1_555 1_555
C9A O9A 1_555 1_555
H14A C9A 1_555 1_555
H15A C9A 1_555 1_555
H16A C9A 1_555 1_555
Na1 O5A 1_555 1_555
Na1 O7A 1_555 1_555
Na2 O9 1_555 1_555
Na2 O6_2 1_555 1_555
O4 C3 1_555 1_555
O7 Dy1A 1_555 1_555
Dy1A O2A 1_555 1_555
Dy1A_2 O4A 1_555 1_555
Dy1_2 O4A_2 1_555 1_555
Dy1_2 O4_2 1_555 1_555
Dy1A_3 O6A_2 1_555 1_555
Dy1A_3 O9A 1_555 1_555
Na2_3 O6A_3 1_555 1_555
Na2_3 O9A_2 1_555 1_555
O2A C1A 1_555 1_555
O4A C3A 1_555 1_555
O6A C5A 1_555 1_555

#END
