
#######################################################################
#
#                 Cambridge Crystallographic Data Centre
#                                CCDC 
#
#######################################################################
#
# If this CIF has been generated from an entry in the Cambridge 
# Structural Database, then it will include bibliographic, chemical, 
# crystal, experimental, refinement or atomic coordinate data resulting 
# from the CCDC's data processing and validation procedures.
#
#######################################################################

data_BAJXIV
_symmetry_cell_setting           tetragonal
_symmetry_space_group_name_H-M   'I 41 2 2'
_symmetry_Int_Tables_number      98
_space_group_name_Hall           'I 4bw 2bw'
loop_
_symmetry_equiv_pos_site_id
_symmetry_equiv_pos_as_xyz
1 x,y,z
2 1/2-x,1/2-y,1/2+z
3 -y,1/2+x,1/4+z
4 1/2+y,-x,3/4+z
5 1/2-x,y,3/4-z
6 x,1/2-y,1/4-z
7 1/2+y,1/2+x,1/2-z
8 -y,-x,-z
9 1/2+x,1/2+y,1/2+z
10 -x,-y,z
11 1/2-y,x,3/4+z
12 y,1/2-x,1/4+z
13 -x,1/2+y,1/4-z
14 1/2+x,-y,3/4-z
15 y,x,-z
16 1/2-y,1/2-x,1/2-z
_cell_length_a                   16.3848(7)
_cell_length_b                   16.3848(7)
_cell_length_c                   16.3848(7)
_cell_angle_alpha                90
_cell_angle_beta                 90
_cell_angle_gamma                90
_cell_volume                     4398.69
loop_
_atom_site_label
_atom_site_type_symbol
_atom_site_fract_x
_atom_site_fract_y
_atom_site_fract_z
Dy1 Dy 0.586864(7) 0.413136(7) 0.0000
Na1 Na 0.57272(12) 0.2500 0.1250
O1 O 0.66867(17) 0.35551(17) 0.10870(17)
O2 O 0.73440(16) 0.42430(17) 0.01563(15)
C1 C 0.7348(2) 0.3846(2) 0.0813(2)
C2 C 0.8129(2) 0.3743(3) 0.1284(3)
H1 H 0.8116 0.4122 0.1753
H2 H 0.8140 0.3181 0.1507
C3 C 0.8896(3) 0.3879(5) 0.0839(3)
H3 H 0.8891 0.4439 0.0613
H4 H 0.8920 0.3494 0.0374
C4 C 0.9668(3) 0.3772(5) 0.1355(4)
H5 H 1.0149 0.3882 0.1017
H6 H 0.9693 0.3212 0.1562
H7 H 0.9655 0.4154 0.1814
O3 O 0.5890(2) 0.52540(16) 0.08255(17)
O4 O 0.50746(17) 0.63281(17) 0.09725(16)
C5 C 0.5693(2) 0.5916(2) 0.1157(3)
C6 C 0.6211(3) 0.6251(4) 0.1856(3)
H8 H 0.6280 0.6845 0.1768
H9 H 0.5897 0.6183 0.2368
C7 C 0.7040(3) 0.5891(4) 0.1987(4)
H10 H 0.7250 0.6065 0.2526
H11 H 0.6997 0.5288 0.1989
C8 C 0.7612(6) 0.6143(5) 0.1352(6)
H12 H 0.8143 0.5886 0.1449
H13 H 0.7674 0.6738 0.1364
H14 H 0.7404 0.5975 0.0818
Dy1I Dy 0.413136(7) 0.586864(7) 0.0000
Na1C Na 0.7500 0.42728(12) -0.1250
Na1I Na 0.42728(12) 0.7500 0.1250
O1G O 0.64449(17) 0.33133(17) -0.10870(17)
O1E O 0.66867(17) 0.14449(17) 0.14130(17)
O2G O 0.57570(17) 0.26560(16) -0.01563(15)
O2B O 0.57570(17) 0.23440(16) 0.26563(15)
C1G C 0.6154(2) 0.2652(2) -0.0813(2)
C2G C 0.6257(3) 0.1871(2) -0.1284(3)
H1G H 0.5878 0.1884 -0.1753
H2G H 0.6819 0.1860 -0.1507
C3G C 0.6121(5) 0.1104(3) -0.0839(3)
H3G H 0.5561 0.1109 -0.0613
H4G H 0.6506 0.1080 -0.0374
C4G C 0.6228(5) 0.0332(3) -0.1355(4)
H5G H 0.6118 -0.0149 -0.1017
H6G H 0.6788 0.0307 -0.1562
H7G H 0.5846 0.0345 -0.1814
O3I O 0.4110(2) 0.47460(16) 0.08255(17)
O3G O 0.47460(16) 0.4110(2) -0.08255(17)
O4I O 0.49254(17) 0.36719(17) 0.09725(16)
O4N O 0.63281(17) 0.50746(17) -0.09725(16)
O4L O 0.49254(17) 0.13281(17) 0.15275(16)
C5I C 0.4307(2) 0.4084(2) 0.1157(3)
C6I C 0.3789(3) 0.3749(4) 0.1856(3)
H8I H 0.3720 0.3155 0.1768
H9I H 0.4103 0.3817 0.2368
C7I C 0.2960(3) 0.4109(4) 0.1987(4)
H10I H 0.2750 0.3935 0.2526
H11I H 0.3003 0.4712 0.1989
C8I C 0.2388(6) 0.3857(5) 0.1352(6)
H12I H 0.1857 0.4114 0.1449
H13I H 0.2326 0.3262 0.1364
H14I H 0.2596 0.4025 0.0818
loop_
_geom_bond_atom_site_label_1
_geom_bond_atom_site_label_2
_geom_bond_site_symmetry_1
_geom_bond_site_symmetry_2
Dy1 O1 1_555 1_555
Na1 O1 1_555 1_555
O1 C1 1_555 1_555
O2 Dy1 1_555 1_555
C1 O2 1_555 1_555
C2 C1 1_555 1_555
H1 C2 1_555 1_555
H2 C2 1_555 1_555
C3 C2 1_555 1_555
H3 C3 1_555 1_555
H4 C3 1_555 1_555
C4 C3 1_555 1_555
H5 C4 1_555 1_555
H6 C4 1_555 1_555
H7 C4 1_555 1_555
O3 Dy1 1_555 1_555
O4 C5 1_555 1_555
C5 O3 1_555 1_555
C6 C5 1_555 1_555
H8 C6 1_555 1_555
H9 C6 1_555 1_555
C7 C6 1_555 1_555
H10 C7 1_555 1_555
H11 C7 1_555 1_555
C8 C7 1_555 1_555
H12 C8 1_555 1_555
H13 C8 1_555 1_555
H14 C8 1_555 1_555
Dy1I O4 1_555 1_555
Na1C O2 1_555 1_555
Na1I O4 1_555 1_555
O1G Dy1 1_555 1_555
O1E Na1 1_555 1_555
O2G Dy1 1_555 1_555
O2B Na1 1_555 1_555
C1G O1G 1_555 1_555
C2G C1G 1_555 1_555
H1G C2G 1_555 1_555
H2G C2G 1_555 1_555
C3G C2G 1_555 1_555
H3G C3G 1_555 1_555
H4G C3G 1_555 1_555
C4G C3G 1_555 1_555
H5G C4G 1_555 1_555
H6G C4G 1_555 1_555
H7G C4G 1_555 1_555
O3I Dy1I 1_555 1_555
O3G Dy1 1_555 1_555
O4I Dy1 1_555 1_555
O4N Dy1 1_555 1_555
O4L Na1 1_555 1_555
C5I O3I 1_555 1_555
C6I C5I 1_555 1_555
H8I C6I 1_555 1_555
H9I C6I 1_555 1_555
C7I C6I 1_555 1_555
H10I C7I 1_555 1_555
H11I C7I 1_555 1_555
C8I C7I 1_555 1_555
H12I C8I 1_555 1_555
H13I C8I 1_555 1_555
H14I C8I 1_555 1_555
Na1 O2G 1_555 1_555
Na1 O4I 1_555 1_555
Na1C O1G 1_555 1_555
Na1C O4N 1_555 1_555
O2G C1G 1_555 1_555
O4I C5I 1_555 1_555

#END
