
#######################################################################
#
#                 Cambridge Crystallographic Data Centre
#                                CCDC 
#
#######################################################################
#
# If this CIF has been generated from an entry in the Cambridge 
# Structural Database, then it will include bibliographic, chemical, 
# crystal, experimental, refinement or atomic coordinate data resulting 
# from the CCDC's data processing and validation procedures.
#
#######################################################################

data_BAJYIW
_symmetry_cell_setting           triclinic
_symmetry_space_group_name_H-M   'P -1'
_symmetry_Int_Tables_number      2
_space_group_name_Hall           '-P 1'
loop_
_symmetry_equiv_pos_site_id
_symmetry_equiv_pos_as_xyz
1 x,y,z
2 -x,-y,-z
_cell_length_a                   11.482(2)
_cell_length_b                   15.768(3)
_cell_length_c                   23.647(4)
_cell_angle_alpha                78.404(7)
_cell_angle_beta                 82.580(7)
_cell_angle_gamma                76.245(6)
_cell_volume                     4058.67
loop_
_atom_site_label
_atom_site_type_symbol
_atom_site_fract_x
_atom_site_fract_y
_atom_site_fract_z
Co1 Co 0.24189(14) 0.17620(11) 0.40061(6)
O1 O 0.1004(6) 0.3987(5) 0.0671(3)
N1 N 0.0760(8) 0.1459(6) 0.3918(4)
C1 C 0.0707(9) 0.7194(7) 0.0062(4)
H1 H 0.0660 0.7084 -0.0331
H2 H 0.0117 0.7749 0.0114
O2 O -0.0479(6) 0.4237(5) 0.1642(3)
N2 N 0.3033(8) 1.0438(7) 0.4456(4)
C2 C 0.0377(9) 0.6426(7) 0.0511(4)
O3 O -0.1910(7) 0.4291(5) 0.1056(3)
N3 N 0.8229(8) 0.6933(6) -0.3540(4)
C3 C 0.0840(9) 0.5599(7) 0.0388(4)
H3 H 0.1341 0.5539 0.0039
O4 O 0.0307(9) 0.7114(6) 0.3192(3)
N4 N 0.2143(13) 0.2498(10) 0.4928(5)
C4 C 0.0603(9) 0.4834(8) 0.0757(5)
O5 O 0.2155(9) 0.7879(6) 0.2813(3)
N5 N 0.4169(13) 0.1315(7) 0.3223(5)
C5 C -0.0158(10) 0.4972(8) 0.1260(5)
O6 O 0.3258(11) 0.6534(9) 0.2762(6)
C6 C -0.0629(10) 0.5814(8) 0.1390(4)
H4 H -0.1145 0.5883 0.1733
O7 O 0.5559(7) 0.7330(5) 0.0218(3)
C7 C -0.0344(10) 0.6559(7) 0.1017(5)
O8 O 0.4994(6) 0.6250(5) -0.0417(3)
C8 C -0.0831(10) 0.7420(8) 0.1198(5)
H5 H -0.1638 0.7423 0.1406
H6 H -0.0921 0.7894 0.0852
O9 O 0.5220(7) 0.7379(5) -0.1141(3)
C9 C 0.0002(11) 0.7603(7) 0.1596(5)
O10 O 0.1416(10) 0.2172(7) 0.4808(4)
C10 C -0.0248(11) 0.7295(7) 0.2194(5)
H7 H -0.0918 0.7029 0.2321
O11 O 0.3154(11) 0.2445(7) 0.4589(5)
C11 C 0.0478(12) 0.7379(7) 0.2596(5)
O12 O 0.2097(11) 0.2925(11) 0.5332(5)
C12 C 0.1452(12) 0.7778(8) 0.2399(6)
O13 O 0.4400(8) 0.1620(6) 0.3646(4)
C13 C 0.1662(11) 0.8092(7) 0.1823(5)
H8 H 0.2323 0.8371 0.1700
O14 O 0.4989(10) 0.1027(7) 0.2879(5)
C14 C 0.0958(10) 0.8023(7) 0.1415(5)
O15 O 0.3078(8) 0.1324(6) 0.3193(3)
C15 C 0.1262(10) 0.8436(7) 0.0788(4)
H9 H 0.0521 0.8595 0.0581
H10 H 0.1522 0.8992 0.0785
C16 C 0.2227(10) 0.7849(7) 0.0460(4)
C17 C 0.3409(11) 0.7862(7) 0.0493(4)
H11 H 0.3577 0.8237 0.0726
C18 C 0.4368(11) 0.7357(8) 0.0205(5)
C19 C 0.4079(10) 0.6821(7) -0.0129(4)
C20 C 0.2924(10) 0.6793(7) -0.0176(4)
H12 H 0.2766 0.6415 -0.0410
C21 C 0.1964(10) 0.7309(7) 0.0112(4)
C22 C 0.1879(9) 0.3842(7) 0.0183(4)
H13 H 0.1491 0.4089 -0.0178
H14 H 0.2200 0.3204 0.0201
H15 H 0.2537 0.4134 0.0194
C23 C -0.1408(10) 0.3960(8) 0.1487(5)
C24 C -0.1754(10) 0.3209(8) 0.1930(5)
C25 C -0.2731(10) 0.2898(8) 0.1820(5)
H16 H -0.3112 0.3133 0.1471
C26 C -0.3136(10) 0.2247(8) 0.2225(5)
H17 H -0.3820 0.2047 0.2164
C27 C -0.2552(10) 0.1895(7) 0.2708(5)
H18 H -0.2818 0.1427 0.2973
C28 C -0.1582(9) 0.2186(7) 0.2831(4)
C29 C -0.1186(9) 0.2849(7) 0.2425(4)
H19 H -0.0512 0.3056 0.2493
C30 C -0.1011(10) 0.1810(7) 0.3373(5)
C31 C -0.1671(11) 0.1497(8) 0.3889(5)
H20 H -0.2509 0.1533 0.3888
C32 C -0.1122(11) 0.1146(9) 0.4383(5)
H21 H -0.1552 0.0900 0.4723
C33 C 0.0101(11) 0.1153(8) 0.4382(5)
H22 H 0.0475 0.0927 0.4733
C34 C 0.0190(10) 0.1771(7) 0.3420(5)
H23 H 0.0654 0.1977 0.3080
C35 C -0.0824(14) 0.6789(10) 0.3409(6)
H24 H -0.1521 0.7242 0.3271
H25 H -0.0895 0.6669 0.3834
H26 H -0.0795 0.6242 0.3265
C36 C 0.3071(15) 0.7202(12) 0.2957(6)
C37 C 0.3820(15) 0.7349(10) 0.3368(7)
C38 C 0.4951(16) 0.6748(11) 0.3482(8)
H27 H 0.5199 0.6251 0.3290
C39 C 0.5666(15) 0.6867(13) 0.3851(8)
H28 H 0.6426 0.6471 0.3901
C40 C 0.5326(13) 0.7544(11) 0.4156(6)
H29 H 0.5839 0.7607 0.4423
C41 C 0.4231(12) 0.8147(9) 0.4079(5)
C42 C 0.3468(13) 0.8064(9) 0.3662(5)
H30 H 0.2740 0.8490 0.3590
C43 C 0.3870(11) 0.8888(9) 0.4428(6)
C44 C 0.4165(10) 0.8755(10) 0.4986(6)
H31 H 0.4556 0.8184 0.5170
C45 C 0.3894(11) 0.9441(11) 0.5268(6)
H32 H 0.4087 0.9351 0.5657
C46 C 0.3336(10) 1.0283(10) 0.5003(5)
H33 H 0.3164 1.0758 0.5214
C47 C 0.3271(11) 0.9761(10) 0.4184(5)
H34 H 0.3031 0.9858 0.3803
C48 C 0.5850(12) 0.7853(11) 0.0566(6)
H35 H 0.5507 0.8480 0.0423
H36 H 0.6727 0.7761 0.0554
H37 H 0.5522 0.7688 0.0966
C49 C 0.5445(9) 0.6615(8) -0.0948(4)
C50 C 0.6225(9) 0.5903(7) -0.1257(4)
C51 C 0.6854(10) 0.6159(7) -0.1785(4)
H38 H 0.6798 0.6774 -0.1930
C52 C 0.7541(10) 0.5562(8) -0.2100(4)
C53 C 0.7607(10) 0.4668(8) -0.1876(5)
H39 H 0.8094 0.4239 -0.2087
C54 C 0.7003(10) 0.4386(8) -0.1369(5)
H40 H 0.7062 0.3769 -0.1230
C55 C 0.6311(10) 0.4991(8) -0.1060(5)
H41 H 0.5880 0.4795 -0.0706
C56 C 0.8180(10) 0.5845(8) -0.2658(5)
C57 C 0.9305(10) 0.5381(8) -0.2840(5)
H42 H 0.9691 0.4856 -0.2601
C58 C 0.9859(10) 0.5681(8) -0.3366(5)
H43 H 1.0622 0.5358 -0.3495
C59 C 0.9314(11) 0.6446(9) -0.3705(5)
H44 H 0.9711 0.6643 -0.4069
C60 C 0.7699(10) 0.6600(8) -0.3027(4)
H45 H 0.6922 0.6918 -0.2911
Co1A Co 0.75811(14) 0.82380(11) -0.40061(6)
Co1_2 Co 0.24189(14) 1.17620(11) 0.40061(6)
Co1A_2 Co 0.75811(14) -0.17620(11) -0.40061(6)
O1A O 0.8996(6) 0.6013(5) -0.0671(3)
N1A N 0.9240(8) 0.8541(6) -0.3918(4)
C1A C 0.9293(9) 0.2806(7) -0.0062(4)
H1A H 0.9340 0.2916 0.0331
H2A H 0.9883 0.2251 -0.0114
O2A O 1.0479(6) 0.5763(5) -0.1642(3)
N2A N 0.6967(8) -0.0438(7) -0.4456(4)
N2_2 N 0.3033(8) 0.0438(7) 0.4456(4)
N2A_2 N 0.6967(8) 0.9562(7) -0.4456(4)
C2A C 0.9623(9) 0.3574(7) -0.0511(4)
O3A O 1.1910(7) 0.5709(5) -0.1056(3)
N3A N 0.1771(8) 0.3067(6) 0.3540(4)
C3A C 0.9160(9) 0.4401(7) -0.0388(4)
H3A H 0.8659 0.4461 -0.0039
O4A O 0.9693(9) 0.2886(6) -0.3192(3)
N4A N 0.7857(13) 0.7502(10) -0.4928(5)
C4A C 0.9397(9) 0.5166(8) -0.0757(5)
O5A O 0.7845(9) 0.2121(6) -0.2813(3)
N5A N 0.5831(13) 0.8685(7) -0.3223(5)
C5A C 1.0158(10) 0.5028(8) -0.1260(5)
O6A O 0.6742(11) 0.3466(9) -0.2762(6)
C6A C 1.0629(10) 0.4186(8) -0.1390(4)
H4A H 1.1145 0.4117 -0.1733
O7A O 0.4441(7) 0.2670(5) -0.0218(3)
C7A C 1.0344(10) 0.3441(7) -0.1017(5)
O8A O 0.5006(6) 0.3750(5) 0.0417(3)
C8A C 1.0831(10) 0.2580(8) -0.1198(5)
H5A H 1.1638 0.2577 -0.1406
H6A H 1.0921 0.2106 -0.0852
O9A O 0.4780(7) 0.2621(5) 0.1141(3)
C9A C 0.9998(11) 0.2397(7) -0.1596(5)
O10A O 0.8584(10) 0.7828(7) -0.4808(4)
C10A C 1.0248(11) 0.2705(7) -0.2194(5)
H7A H 1.0918 0.2971 -0.2321
O11A O 0.6846(11) 0.7555(7) -0.4589(5)
C11A C 0.9522(12) 0.2621(7) -0.2596(5)
O12A O 0.7903(11) 0.7075(11) -0.5332(5)
C12A C 0.8548(12) 0.2222(8) -0.2399(6)
O13A O 0.5600(8) 0.8380(6) -0.3646(4)
C13A C 0.8338(11) 0.1908(7) -0.1823(5)
H8A H 0.7677 0.1629 -0.1700
O14A O 0.5011(10) 0.8973(7) -0.2879(5)
C14A C 0.9042(10) 0.1977(7) -0.1415(5)
O15A O 0.6922(8) 0.8676(6) -0.3193(3)
C15A C 0.8738(10) 0.1564(7) -0.0788(4)
H9A H 0.9479 0.1405 -0.0581
H10A H 0.8478 0.1008 -0.0785
C16A C 0.7773(10) 0.2151(7) -0.0460(4)
C17A C 0.6591(11) 0.2138(7) -0.0493(4)
H11A H 0.6423 0.1763 -0.0726
C18A C 0.5632(11) 0.2643(8) -0.0205(5)
C19A C 0.5921(10) 0.3179(7) 0.0129(4)
C20A C 0.7076(10) 0.3207(7) 0.0176(4)
H12A H 0.7234 0.3585 0.0410
C21A C 0.8036(10) 0.2691(7) -0.0112(4)
C22A C 0.8121(9) 0.6158(7) -0.0183(4)
H13A H 0.8509 0.5911 0.0178
H14A H 0.7800 0.6796 -0.0201
H15A H 0.7463 0.5866 -0.0194
C23A C 1.1408(10) 0.6040(8) -0.1487(5)
C24A C 1.1754(10) 0.6791(8) -0.1930(5)
C25A C 1.2731(10) 0.7102(8) -0.1820(5)
H16A H 1.3112 0.6867 -0.1471
C26A C 1.3136(10) 0.7753(8) -0.2225(5)
H17A H 1.3820 0.7953 -0.2164
C27A C 1.2552(10) 0.8105(7) -0.2708(5)
H18A H 1.2818 0.8573 -0.2973
C28A C 1.1582(9) 0.7814(7) -0.2831(4)
C29A C 1.1186(9) 0.7151(7) -0.2425(4)
H19A H 1.0512 0.6944 -0.2493
C30A C 1.1011(10) 0.8190(7) -0.3373(5)
C31A C 1.1671(11) 0.8503(8) -0.3889(5)
H20A H 1.2509 0.8467 -0.3888
C32A C 1.1122(11) 0.8854(9) -0.4383(5)
H21A H 1.1552 0.9100 -0.4723
C33A C 0.9899(11) 0.8847(8) -0.4382(5)
H22A H 0.9525 0.9073 -0.4733
C34A C 0.9810(10) 0.8229(7) -0.3420(5)
H23A H 0.9346 0.8023 -0.3080
C35A C 1.0824(14) 0.3211(10) -0.3409(6)
H24A H 1.1521 0.2758 -0.3271
H25A H 1.0895 0.3331 -0.3834
H26A H 1.0795 0.3758 -0.3265
C36A C 0.6929(15) 0.2798(12) -0.2957(6)
C37A C 0.6180(15) 0.2651(10) -0.3368(7)
C38A C 0.5049(16) 0.3252(11) -0.3482(8)
H27A H 0.4801 0.3749 -0.3290
C39A C 0.4334(15) 0.3133(13) -0.3851(8)
H28A H 0.3574 0.3529 -0.3901
C40A C 0.4674(13) 0.2456(11) -0.4156(6)
H29A H 0.4161 0.2393 -0.4423
C41A C 0.5769(12) 0.1853(9) -0.4079(5)
C42A C 0.6532(13) 0.1936(9) -0.3662(5)
H30A H 0.7260 0.1510 -0.3590
C43A C 0.6130(11) 0.1112(9) -0.4428(6)
C44A C 0.5835(10) 0.1245(10) -0.4986(6)
H31A H 0.5444 0.1816 -0.5170
C45A C 0.6106(11) 0.0559(11) -0.5268(6)
H32A H 0.5913 0.0649 -0.5657
C46A C 0.6664(10) -0.0283(10) -0.5003(5)
H33A H 0.6836 -0.0758 -0.5214
C47A C 0.6729(11) 0.0239(10) -0.4184(5)
H34A H 0.6969 0.0142 -0.3803
C48A C 0.4150(12) 0.2147(11) -0.0566(6)
H35A H 0.4493 0.1520 -0.0423
H36A H 0.3273 0.2239 -0.0554
H37A H 0.4478 0.2312 -0.0966
C49A C 0.4555(9) 0.3385(8) 0.0948(4)
C50A C 0.3775(9) 0.4097(7) 0.1257(4)
C51A C 0.3146(10) 0.3841(7) 0.1785(4)
H38A H 0.3202 0.3226 0.1930
C52A C 0.2459(10) 0.4438(8) 0.2100(4)
C53A C 0.2393(10) 0.5332(8) 0.1876(5)
H39A H 0.1906 0.5761 0.2087
C54A C 0.2997(10) 0.5614(8) 0.1369(5)
H40A H 0.2938 0.6231 0.1230
C55A C 0.3689(10) 0.5009(8) 0.1060(5)
H41A H 0.4120 0.5205 0.0706
C56A C 0.1820(10) 0.4155(8) 0.2658(5)
C57A C 0.0695(10) 0.4619(8) 0.2840(5)
H42A H 0.0309 0.5144 0.2601
C58A C 0.0141(10) 0.4319(8) 0.3366(5)
H43A H -0.0622 0.4642 0.3495
C59A C 0.0686(11) 0.3554(9) 0.3705(5)
H44A H 0.0289 0.3357 0.4069
C60A C 0.2301(10) 0.3400(8) 0.3027(4)
H45A H 0.3078 0.3082 0.2911
N6 N 0.9491(16) 0.9727(12) 0.2940(8)
O16 O 1.0862(15) 0.9600(10) 0.3561(6)
C61 C 0.8425(16) 0.9446(12) 0.2888(7)
H46 H 0.8603 0.8927 0.2691
H47 H 0.7832 0.9931 0.2678
C62 C 0.8015(16) 0.9220(12) 0.3486(7)
H48 H 0.7632 0.8705 0.3544
H49 H 0.7416 0.9726 0.3611
C63 C 0.9128(15) 0.8986(11) 0.3845(7)
H50 H 0.8941 0.9226 0.4210
H51 H 0.9455 0.8339 0.3932
C64 C 0.9932(19) 0.9437(13) 0.3438(9)
C65 C 1.012(2) 1.0139(16) 0.2415(10)
H52 H 0.9595 1.0301 0.2097
H53 H 1.0855 0.9719 0.2310
H54 H 1.0328 1.0673 0.2488
O17 O 1.3548(10) 0.9528(8) 0.1120(5)
N9 N 1.2995(12) 1.0414(10) 0.1793(6)
C71 C 1.2475(16) 1.1357(12) 0.1873(7)
H64 H 1.1898 1.1387 0.2222
H65 H 1.3112 1.1672 0.1898
C72 C 1.1858(15) 1.1715(11) 0.1327(7)
H66 H 1.1903 1.2342 0.1185
H67 H 1.1001 1.1678 0.1394
C73 C 1.2542(14) 1.1122(10) 0.0879(6)
H68 H 1.1985 1.1041 0.0617
H69 H 1.3190 1.1384 0.0644
C74 C 1.3592(18) 0.9757(13) 0.2269(8)
H70 H 1.3449 1.0013 0.2623
H71 H 1.4459 0.9601 0.2161
H72 H 1.3261 0.9223 0.2337
C75 C 1.3046(16) 1.0269(13) 0.1251(8)
N7 N 0.1967(18) 0.9654(13) -0.0768(8)
O18 O 0.1436(11) 1.0595(8) -0.0209(5)
C76 C 0.2861(16) 0.9096(12) -0.1145(8)
H73 H 0.2745 0.9280 -0.1563
H74 H 0.2911 0.8451 -0.1022
C77 C 0.397(3) 0.943(2) -0.0952(14)
H75 H 0.4578 0.8917 -0.0784
H76 H 0.4361 0.9767 -0.1293
C78 C 0.352(2) 0.9954(17) -0.0559(11)
H77 H 0.3789 1.0519 -0.0676
H78 H 0.3819 0.9659 -0.0179
C79 C 0.201(2) 1.0164(15) -0.0497(9)
C80 C 0.0813(18) 0.9512(13) -0.0841(8)
H79 H 0.0916 0.9058 -0.1083
H80 H 0.0317 1.0068 -0.1029
H81 H 0.0417 0.9314 -0.0461
C66 C 0.6791(15) 0.4441(11) 0.3268(7)
H55 H 0.7500 0.3939 0.3312
H56 H 0.6619 0.4699 0.3626
O19 O 0.5954(16) 0.5892(12) 0.1820(8)
C67 C 0.5723(19) 0.4142(15) 0.3142(9)
H57 H 0.5943 0.3500 0.3126
H58 H 0.5067 0.4241 0.3453
N8 N 0.7017(16) 0.5162(12) 0.2725(7)
C68 C 0.5342(19) 0.4618(14) 0.2619(9)
H59 H 0.4512 0.4970 0.2676
H60 H 0.5341 0.4207 0.2352
C69 C 0.6145(14) 0.5202(10) 0.2371(7)
C70 C 0.7738(10) 0.5644(8) 0.2672(5)
H61 H 0.8512 0.5356 0.2499
H62 H 0.7834 0.5762 0.3052
H63 H 0.7426 0.6209 0.2418
loop_
_geom_bond_atom_site_label_1
_geom_bond_atom_site_label_2
_geom_bond_site_symmetry_1
_geom_bond_site_symmetry_2
Co1 N1 1_555 1_555
O1 C4 1_555 1_555
N1 C33 1_555 1_555
C1 H1 1_555 1_555
H2 C1 1_555 1_555
O2 C5 1_555 1_555
N2 C46 1_555 1_555
C2 C1 1_555 1_555
O3 C23 1_555 1_555
N3 C59 1_555 1_555
C3 C2 1_555 1_555
H3 C3 1_555 1_555
O4 C11 1_555 1_555
N4 O10 1_555 1_555
C4 C3 1_555 1_555
O5 C12 1_555 1_555
N5 O13 1_555 1_555
C5 C4 1_555 1_555
O6 C36 1_555 1_555
C6 C5 1_555 1_555
H4 C6 1_555 1_555
O7 C18 1_555 1_555
N6 C61 1_555 1_555
C7 C2 1_555 1_555
O8 C19 1_555 1_555
C8 C7 1_555 1_555
H5 C8 1_555 1_555
H6 C8 1_555 1_555
O9 C49 1_555 1_555
C9 C8 1_555 1_555
O10 Co1 1_555 1_555
C10 C9 1_555 1_555
H7 C10 1_555 1_555
O11 Co1 1_555 1_555
C11 C10 1_555 1_555
O12 N4 1_555 1_555
C12 C11 1_555 1_555
O13 Co1 1_555 1_555
C13 C12 1_555 1_555
H8 C13 1_555 1_555
O14 N5 1_555 1_555
C14 C9 1_555 1_555
O15 Co1 1_555 1_555
C15 C14 1_555 1_555
H9 C15 1_555 1_555
H10 C15 1_555 1_555
O16 C64 1_555 1_555
C16 C15 1_555 1_555
C17 C16 1_555 1_555
H11 C17 1_555 1_555
C18 C17 1_555 1_555
O17 C75 1_555 1_555
C19 C18 1_555 1_555
C20 C19 1_555 1_555
H12 C20 1_555 1_555
N7 C76 1_555 1_555
C21 C1 1_555 1_555
C22 O1 1_555 1_555
H13 C22 1_555 1_555
H14 C22 1_555 1_555
H15 C22 1_555 1_555
C23 O2 1_555 1_555
C24 C23 1_555 1_555
C25 C24 1_555 1_555
H16 C25 1_555 1_555
C26 C25 1_555 1_555
H17 C26 1_555 1_555
C27 C26 1_555 1_555
H18 C27 1_555 1_555
C28 C27 1_555 1_555
C29 C24 1_555 1_555
H19 C29 1_555 1_555
C30 C28 1_555 1_555
C31 C30 1_555 1_555
H20 C31 1_555 1_555
C32 C31 1_555 1_555
H21 C32 1_555 1_555
C33 C32 1_555 1_555
H22 C33 1_555 1_555
C34 N1 1_555 1_555
H23 C34 1_555 1_555
C35 O4 1_555 1_555
H24 C35 1_555 1_555
H25 C35 1_555 1_555
H26 C35 1_555 1_555
C36 O5 1_555 1_555
C37 C36 1_555 1_555
C38 C37 1_555 1_555
H27 C38 1_555 1_555
C39 C38 1_555 1_555
H28 C39 1_555 1_555
C40 C39 1_555 1_555
H29 C40 1_555 1_555
C41 C40 1_555 1_555
C42 C37 1_555 1_555
H30 C42 1_555 1_555
C43 C41 1_555 1_555
C44 C43 1_555 1_555
H31 C44 1_555 1_555
C45 C44 1_555 1_555
H32 C45 1_555 1_555
C46 C45 1_555 1_555
H33 C46 1_555 1_555
C47 N2 1_555 1_555
H34 C47 1_555 1_555
C48 O7 1_555 1_555
H35 C48 1_555 1_555
H36 C48 1_555 1_555
H37 C48 1_555 1_555
C49 O8 1_555 1_555
C50 C49 1_555 1_555
C51 C50 1_555 1_555
H38 C51 1_555 1_555
C52 C51 1_555 1_555
C53 C52 1_555 1_555
H39 C53 1_555 1_555
C54 C53 1_555 1_555
H40 C54 1_555 1_555
C55 C50 1_555 1_555
H41 C55 1_555 1_555
C56 C52 1_555 1_555
C57 C56 1_555 1_555
H42 C57 1_555 1_555
C58 C57 1_555 1_555
H43 C58 1_555 1_555
C59 C58 1_555 1_555
H44 C59 1_555 1_555
C60 N3 1_555 1_555
H45 C60 1_555 1_555
O18 C79 1_555 1_555
C61 H46 1_555 1_555
H47 C61 1_555 1_555
C62 C61 1_555 1_555
H48 C62 1_555 1_555
H49 C62 1_555 1_555
C63 C62 1_555 1_555
H50 C63 1_555 1_555
H51 C63 1_555 1_555
C64 N6 1_555 1_555
C65 N6 1_555 1_555
H52 C65 1_555 1_555
H53 C65 1_555 1_555
H54 C65 1_555 1_555
C66 H55 1_555 1_555
H56 C66 1_555 1_555
O19 C69 1_555 1_555
C67 C66 1_555 1_555
H57 C67 1_555 1_555
H58 C67 1_555 1_555
N8 C66 1_555 1_555
C68 C67 1_555 1_555
H59 C68 1_555 1_555
H60 C68 1_555 1_555
C69 N8 1_555 1_555
C70 N8 1_555 1_555
H61 C70 1_555 1_555
H62 C70 1_555 1_555
H63 C70 1_555 1_555
N9 C71 1_555 1_555
C71 H64 1_555 1_555
H65 C71 1_555 1_555
C72 C71 1_555 1_555
H66 C72 1_555 1_555
H67 C72 1_555 1_555
C73 C72 1_555 1_555
H68 C73 1_555 1_555
H69 C73 1_555 1_555
C74 N9 1_555 1_555
H70 C74 1_555 1_555
H71 C74 1_555 1_555
H72 C74 1_555 1_555
C75 N9 1_555 1_555
C76 H73 1_555 1_555
H74 C76 1_555 1_555
C77 C76 1_555 1_555
H75 C77 1_555 1_555
H76 C77 1_555 1_555
C78 C77 1_555 1_555
H77 C78 1_555 1_555
H78 C78 1_555 1_555
C79 N7 1_555 1_555
C80 N7 1_555 1_555
H79 C80 1_555 1_555
H80 C80 1_555 1_555
H81 C80 1_555 1_555
Co1A N3 1_555 1_555
Co1_2 N2 1_555 1_555
Co1A_2 N2A 1_555 1_555
O1A C4A 1_555 1_555
N1A Co1A 1_555 1_555
C1A H1A 1_555 1_555
H2A C1A 1_555 1_555
O2A C5A 1_555 1_555
N2A C46A 1_555 1_555
N2_2 Co1 1_555 1_555
N2A_2 Co1A 1_555 1_555
C2A C1A 1_555 1_555
O3A C23A 1_555 1_555
N3A Co1 1_555 1_555
C3A C2A 1_555 1_555
H3A C3A 1_555 1_555
O4A C11A 1_555 1_555
N4A O10A 1_555 1_555
C4A C3A 1_555 1_555
O5A C12A 1_555 1_555
N5A O13A 1_555 1_555
C5A C4A 1_555 1_555
O6A C36A 1_555 1_555
C6A C5A 1_555 1_555
H4A C6A 1_555 1_555
O7A C18A 1_555 1_555
C7A C2A 1_555 1_555
O8A C19A 1_555 1_555
C8A C7A 1_555 1_555
H5A C8A 1_555 1_555
H6A C8A 1_555 1_555
O9A C49A 1_555 1_555
C9A C8A 1_555 1_555
O10A Co1A 1_555 1_555
C10A C9A 1_555 1_555
H7A C10A 1_555 1_555
O11A Co1A 1_555 1_555
C11A C10A 1_555 1_555
O12A N4A 1_555 1_555
C12A C11A 1_555 1_555
O13A Co1A 1_555 1_555
C13A C12A 1_555 1_555
H8A C13A 1_555 1_555
O14A N5A 1_555 1_555
C14A C9A 1_555 1_555
O15A Co1A 1_555 1_555
C15A C14A 1_555 1_555
H9A C15A 1_555 1_555
H10A C15A 1_555 1_555
C16A C15A 1_555 1_555
C17A C16A 1_555 1_555
H11A C17A 1_555 1_555
C18A C17A 1_555 1_555
C19A C18A 1_555 1_555
C20A C19A 1_555 1_555
H12A C20A 1_555 1_555
C21A C1A 1_555 1_555
C22A O1A 1_555 1_555
H13A C22A 1_555 1_555
H14A C22A 1_555 1_555
H15A C22A 1_555 1_555
C23A O2A 1_555 1_555
C24A C23A 1_555 1_555
C25A C24A 1_555 1_555
H16A C25A 1_555 1_555
C26A C25A 1_555 1_555
H17A C26A 1_555 1_555
C27A C26A 1_555 1_555
H18A C27A 1_555 1_555
C28A C27A 1_555 1_555
C29A C24A 1_555 1_555
H19A C29A 1_555 1_555
C30A C28A 1_555 1_555
C31A C30A 1_555 1_555
H20A C31A 1_555 1_555
C32A C31A 1_555 1_555
H21A C32A 1_555 1_555
C33A N1A 1_555 1_555
H22A C33A 1_555 1_555
C34A N1A 1_555 1_555
H23A C34A 1_555 1_555
C35A O4A 1_555 1_555
H24A C35A 1_555 1_555
H25A C35A 1_555 1_555
H26A C35A 1_555 1_555
C36A O5A 1_555 1_555
C37A C36A 1_555 1_555
C38A C37A 1_555 1_555
H27A C38A 1_555 1_555
C39A C38A 1_555 1_555
H28A C39A 1_555 1_555
C40A C39A 1_555 1_555
H29A C40A 1_555 1_555
C41A C40A 1_555 1_555
C42A C37A 1_555 1_555
H30A C42A 1_555 1_555
C43A C41A 1_555 1_555
C44A C43A 1_555 1_555
H31A C44A 1_555 1_555
C45A C44A 1_555 1_555
H32A C45A 1_555 1_555
C46A C45A 1_555 1_555
H33A C46A 1_555 1_555
C47A N2A 1_555 1_555
H34A C47A 1_555 1_555
C48A O7A 1_555 1_555
H35A C48A 1_555 1_555
H36A C48A 1_555 1_555
H37A C48A 1_555 1_555
C49A O8A 1_555 1_555
C50A C49A 1_555 1_555
C51A C50A 1_555 1_555
H38A C51A 1_555 1_555
C52A C51A 1_555 1_555
C53A C52A 1_555 1_555
H39A C53A 1_555 1_555
C54A C53A 1_555 1_555
H40A C54A 1_555 1_555
C55A C50A 1_555 1_555
H41A C55A 1_555 1_555
C56A C52A 1_555 1_555
C57A C56A 1_555 1_555
H42A C57A 1_555 1_555
C58A C57A 1_555 1_555
H43A C58A 1_555 1_555
C59A N3A 1_555 1_555
H44A C59A 1_555 1_555
C60A N3A 1_555 1_555
H45A C60A 1_555 1_555
N4 O11 1_555 1_555
N5 O15 1_555 1_555
C6 C7 1_555 1_555
C13 C14 1_555 1_555
C16 C21 1_555 1_555
C20 C21 1_555 1_555
C28 C29 1_555 1_555
C30 C34 1_555 1_555
C41 C42 1_555 1_555
C43 C47 1_555 1_555
C54 C55 1_555 1_555
C56 C60 1_555 1_555
C63 C64 1_555 1_555
C68 C69 1_555 1_555
C73 C75 1_555 1_555
C78 C79 1_555 1_555
N4A O11A 1_555 1_555
N5A O15A 1_555 1_555
C6A C7A 1_555 1_555
C13A C14A 1_555 1_555
C16A C21A 1_555 1_555
C20A C21A 1_555 1_555
C28A C29A 1_555 1_555
C30A C34A 1_555 1_555
C32A C33A 1_555 1_555
C41A C42A 1_555 1_555
C43A C47A 1_555 1_555
C54A C55A 1_555 1_555
C56A C60A 1_555 1_555
C58A C59A 1_555 1_555

#END
