
#######################################################################
#
#                 Cambridge Crystallographic Data Centre
#                                CCDC 
#
#######################################################################
#
# If this CIF has been generated from an entry in the Cambridge 
# Structural Database, then it will include bibliographic, chemical, 
# crystal, experimental, refinement or atomic coordinate data resulting 
# from the CCDC's data processing and validation procedures.
#
#######################################################################

data_BAJYOC
_symmetry_cell_setting           triclinic
_symmetry_space_group_name_H-M   'P -1'
_symmetry_Int_Tables_number      2
_space_group_name_Hall           '-P 1'
loop_
_symmetry_equiv_pos_site_id
_symmetry_equiv_pos_as_xyz
1 x,y,z
2 -x,-y,-z
_cell_length_a                   20.523(2)
_cell_length_b                   22.227(2)
_cell_length_c                   22.922(3)
_cell_angle_alpha                79.579(7)
_cell_angle_beta                 73.913(7)
_cell_angle_gamma                72.387(6)
_cell_volume                     9521.89
loop_
_atom_site_label
_atom_site_type_symbol
_atom_site_fract_x
_atom_site_fract_y
_atom_site_fract_z
O27 O -0.1657(7) -0.3605(7) 0.9574(6)
N10 N -0.2217(7) -0.2622(6) 0.9996(6)
C126 C -0.1673(7) -0.2930(6) 0.9719(5)
C127 C -0.0976(7) -0.2849(6) 0.9525(6)
H100 H -0.0773 -0.2871 0.9082
H101 H -0.0649 -0.3143 0.9762
C128 C -0.1214(11) -0.2196(9) 0.9699(9)
H102 H -0.0915 -0.2160 0.9958
H103 H -0.1132 -0.1902 0.9323
C129 C -0.1903(7) -0.1996(6) 1.0004(6)
H104 H -0.2153 -0.1604 0.9790
H105 H -0.1944 -0.1920 1.0427
C130 C -0.2819(4) -0.2605(3) 1.0186(3)
H106 H -0.2866 -0.3037 1.0325
H107 H -0.3069 -0.2419 0.9861
H108 H -0.3020 -0.2346 1.0529
Cd1 Cd 0.30431(4) 0.21717(3) 0.73210(3)
Cd2 Cd -0.25174(2) 1.24663(2) 1.23252(2)
O1 O 0.3881(2) 0.6476(2) 0.9857(2)
O2 O 0.4821(2) 0.60579(19) 0.8828(2)
O3 O 0.5432(2) 0.52522(18) 0.9397(2)
O4 O 0.6736(2) 0.8125(2) 0.67663(18)
O5 O 0.6528(2) 0.93248(19) 0.70317(18)
O6 O 0.7720(2) 0.9088(2) 0.69061(19)
O7 O 0.3899(2) 1.03592(19) 0.9674(2)
O8 O 0.3233(2) 0.9550(2) 1.0460(2)
O9 O 0.3540(2) 0.97576(19) 1.1272(2)
O10 O 0.1193(2) -0.1464(2) 0.4979(2)
O11 O 0.0287(2) -0.1069(2) 0.6024(2)
O12 O -0.0442(3) -0.0184(2) 0.5624(3)
O13 O -0.1779(2) -0.2909(2) 0.80666(19)
O14 O -0.1529(2) -0.41249(19) 0.78458(19)
O15 O -0.2712(2) -0.39102(19) 0.79378(19)
O16 O 0.1133(3) -0.5283(2) 0.5301(2)
O17 O 0.1798(2) -0.4525(2) 0.4456(2)
O18 O 0.1450(2) -0.4831(2) 0.3718(2)
O19 O 0.1978(2) 0.2860(2) 0.7707(2)
O20 O 0.2470(3) 0.1847(3) 0.8378(3)
O21 O 0.3380(4) 0.1149(3) 0.7980(3)
O22 O 0.2652(4) 0.0875(4) 0.8856(4)
O23 O -0.2177(3) 1.3111(3) 1.2857(3)
O24 O -0.2159(9) 1.4093(8) 1.2879(8)
O25 O -0.1555(7) 1.3604(6) 1.2076(6)
O26 O -0.2871(3) 1.1739(2) 1.1951(2)
O28 O 0.4112(8) 0.1466(7) 0.6891(7)
O29 O 0.4917(7) 0.1507(6) 0.5989(6)
O30 O 0.4002(7) 0.2259(7) 0.6305(7)
N1 N 0.3523(4) 0.2802(3) 0.7702(3)
N2 N 0.7353(3) 1.1791(3) 0.3267(3)
N3 N -0.1312(3) 1.1869(3) 1.2059(3)
N4 N 0.2368(5) 0.1642(3) 0.7017(4)
N5 N -0.2430(3) -0.6862(3) 1.1383(3)
N6 N 0.6277(3) -0.6979(3) 0.2679(3)
N7 N 0.2813(5) 0.1296(5) 0.8404(5)
N8 N -0.2075(8) 1.3539(7) 1.2615(7)
N9 N -0.2705(4) 1.0926(3) 1.1341(4)
N11 N 0.4304(10) 0.1716(9) 0.6409(9)
C1 C 0.5275(3) 0.7287(2) 0.9791(3)
C2 C 0.4634(3) 0.7104(3) 0.9997(3)
H1 H 0.4305 0.7261 1.0354
C3 C 0.4479(3) 0.6705(3) 0.9690(3)
C4 C 0.4963(4) 0.6496(3) 0.9136(3)
C5 C 0.5593(3) 0.6690(3) 0.8916(3)
H2 H 0.5910 0.6548 0.8548
C6 C 0.5758(3) 0.7090(2) 0.9235(3)
C7 C 0.6451(3) 0.7279(3) 0.8980(3)
H3 H 0.6591 0.7380 0.9323
H4 H 0.6819 0.6907 0.8811
C8 C 0.6435(3) 0.7839(3) 0.8490(3)
C9 C 0.6548(3) 0.7723(3) 0.7869(3)
H5 H 0.6601 0.7307 0.7781
C10 C 0.6582(3) 0.8213(3) 0.7387(3)
C11 C 0.6496(3) 0.8827(3) 0.7510(3)
C12 C 0.6362(3) 0.8965(3) 0.8118(3)
H6 H 0.6299 0.9387 0.8196
C13 C 0.6320(3) 0.8473(3) 0.8620(3)
C14 C 0.6193(3) 0.8657(3) 0.9277(3)
H7 H 0.6435 0.8291 0.9527
H8 H 0.6400 0.9012 0.9253
C15 C 0.5398(3) 0.8856(3) 0.9595(3)
C16 C 0.5017(3) 0.9507(3) 0.9466(3)
H9 H 0.5250 0.9788 0.9183
C17 C 0.4297(3) 0.9727(3) 0.9758(3)
C18 C 0.3970(3) 0.9316(3) 1.0168(3)
C19 C 0.4324(3) 0.8683(3) 1.0296(3)
H10 H 0.4079 0.8409 1.0576
C20 C 0.5036(3) 0.8446(3) 1.0018(3)
C21 C 0.5398(3) 0.7726(3) 1.0185(3)
H11 H 0.5910 0.7666 1.0121
H12 H 0.5208 0.7603 1.0622
C22 C 0.3405(4) 0.6657(4) 1.0435(4)
H13 H 0.3653 0.6493 1.0764
H14 H 0.3002 0.6480 1.0515
H15 H 0.3239 0.7121 1.0416
C23 C 0.5062(3) 0.5429(3) 0.9037(3)
C24 C 0.4769(3) 0.5006(3) 0.8782(3)
C25 C 0.4573(4) 0.5152(3) 0.8244(3)
H16 H 0.4595 0.5550 0.8016
C26 C 0.4334(4) 0.4722(4) 0.8012(4)
H17 H 0.4222 0.4828 0.7624
C27 C 0.4265(4) 0.4149(3) 0.8352(3)
C28 C 0.4470(4) 0.3996(3) 0.8919(3)
H18 H 0.4439 0.3605 0.9158
C29 C 0.4711(4) 0.4415(3) 0.9119(3)
H19 H 0.4845 0.4306 0.9497
C30 C 0.4005(4) 0.3666(4) 0.8129(4)
C31 C 0.4157(5) 0.3605(4) 0.7495(4)
H20 H 0.4441 0.3840 0.7202
C32 C 0.3873(6) 0.3185(5) 0.7315(5)
H21 H 0.3936 0.3174 0.6890
C33 C 0.3407(4) 0.2858(4) 0.8295(4)
H22 H 0.3145 0.2599 0.8579
C34 C 0.3644(4) 0.3271(3) 0.8522(4)
H23 H 0.3555 0.3278 0.8951
C35 C 0.6781(4) 0.7499(4) 0.6630(3)
H24 H 0.7114 0.7178 0.6836
H25 H 0.6943 0.7478 0.6188
H26 H 0.6316 0.7418 0.6774
C36 C 0.7188(3) 0.9370(3) 0.6717(3)
C37 C 0.7187(3) 0.9805(3) 0.6134(3)
C38 C 0.6569(3) 1.0114(3) 0.5931(3)
H27 H 0.6129 1.0061 0.6176
C39 C 0.6592(4) 1.0498(4) 0.5373(4)
H28 H 0.6170 1.0695 0.5239
C40 C 0.7242(3) 1.0593(3) 0.5007(3)
C41 C 0.7864(3) 1.0277(3) 0.5214(3)
H29 H 0.8307 1.0325 0.4972
C42 C 0.7829(3) 0.9893(3) 0.5777(3)
H30 H 0.8247 0.9692 0.5915
C43 C 0.7273(4) 1.1004(3) 0.4400(3)
C44 C 0.6831(4) 1.1058(4) 0.4003(4)
H31 H 0.6487 1.0826 0.4115
C45 C 0.6896(4) 1.1453(4) 0.3439(3)
H32 H 0.6598 1.1472 0.3180
C46 C 0.7784(4) 1.1739(3) 0.3619(3)
H33 H 0.8123 1.1976 0.3485
C47 C 0.7775(4) 1.1354(4) 0.4182(3)
H34 H 0.8104 1.1332 0.4412
C48 C 0.4195(4) 1.0769(3) 0.9194(3)
H35 H 0.4620 1.0818 0.9272
H36 H 0.3852 1.1185 0.9170
H37 H 0.4315 1.0587 0.8806
C49 C 0.3087(3) 0.9796(3) 1.1016(3)
C50 C 0.2317(3) 1.0118(3) 1.1216(3)
C51 C 0.1827(4) 1.0118(4) 1.0867(3)
H38 H 0.1986 0.9910 1.0505
C52 C 0.1118(4) 1.0427(4) 1.1069(3)
H39 H 0.0790 1.0406 1.0856
C53 C 0.0875(3) 1.0774(3) 1.1589(3)
C54 C 0.1345(3) 1.0758(3) 1.1940(3)
H40 H 0.1185 1.0965 1.2301
C55 C 0.2076(3) 1.0419(3) 1.1741(3)
H41 H 0.2397 1.0404 1.1976
C56 C 0.0106(3) 1.1135(3) 1.1762(3)
C57 C -0.0437(4) 1.0941(4) 1.1674(4)
H42 H -0.0330 1.0548 1.1512
C58 C -0.1146(4) 1.1306(3) 1.1818(3)
H43 H -0.1505 1.1161 1.1747
C59 C -0.0811(3) 1.2062(3) 1.2147(4)
H44 H -0.0932 1.2458 1.2306
C60 C -0.0072(4) 1.1701(3) 1.2015(4)
H45 H 0.0277 1.1850 1.2100
C61 C -0.0721(3) -0.2006(2) 0.5581(3)
C62 C -0.0557(3) -0.1609(3) 0.5900(3)
H46 H -0.0882 -0.1444 0.6256
C63 C 0.0096(4) -0.1457(3) 0.5688(3)
C64 C 0.0586(3) -0.1683(3) 0.5159(3)
C65 C 0.0415(3) -0.2063(3) 0.4851(3)
H47 H 0.0741 -0.2223 0.4494
C66 C -0.0236(3) -0.2225(3) 0.5048(3)
C67 C -0.0346(3) -0.2684(3) 0.4646(3)
H48 H -0.0856 -0.2622 0.4691
H49 H -0.0132 -0.2580 0.4210
C68 C 0.0000(3) -0.3390(3) 0.4852(3)
C69 C 0.0708(3) -0.3636(3) 0.4571(3)
H50 H 0.0952 -0.3378 0.4266
C70 C 0.1058(3) -0.4268(3) 0.4740(3)
C71 C 0.0720(4) -0.4652(3) 0.5175(3)
C72 C 0.0004(3) -0.4408(3) 0.5449(3)
H51 H -0.0234 -0.4676 0.5747
C73 C -0.0373(3) -0.3777(3) 0.5297(3)
C74 C -0.1159(3) -0.3571(3) 0.5595(3)
H52 H -0.1364 -0.3931 0.5636
H53 H -0.1394 -0.3220 0.5328
C75 C -0.1308(3) -0.3347(3) 0.6240(3)
C76 C -0.1339(3) -0.3819(3) 0.6762(3)
H54 H -0.1254 -0.4251 0.6703
C77 C -0.1490(3) -0.3652(3) 0.7343(3)
C78 C -0.1607(3) -0.3020(3) 0.7457(3)
C79 C -0.1576(3) -0.2547(3) 0.6954(3)
H55 H -0.1651 -0.2119 0.7020
C80 C -0.1431(3) -0.2708(3) 0.6346(3)
C81 C -0.1450(3) -0.2163(3) 0.5833(3)
H56 H -0.1810 -0.1780 0.5988
H57 H -0.1589 -0.2277 0.5496
C82 C 0.1643(5) -0.1609(5) 0.4401(4)
H58 H 0.1798 -0.2071 0.4391
H59 H 0.2054 -0.1445 0.4332
H60 H 0.1388 -0.1413 0.4082
C83 C 0.0004(4) -0.0425(3) 0.5917(3)
C84 C 0.0373(4) -0.0069(3) 0.6172(3)
C85 C 0.0731(4) -0.0346(3) 0.6635(3)
H61 H 0.0717 -0.0760 0.6825
C86 C 0.1116(5) -0.0006(4) 0.6821(3)
H62 H 0.1368 -0.0198 0.7127
C87 C 0.1119(5) 0.0617(3) 0.6546(4)
C88 C 0.0731(5) 0.0895(4) 0.6102(4)
H63 H 0.0709 0.1321 0.5933
C89 C 0.0380(4) 0.0551(3) 0.5906(4)
H64 H 0.0143 0.0738 0.5589
C90 C 0.1543(5) 0.0969(4) 0.6707(4)
C91 C 0.2237(5) 0.0659(4) 0.6811(5)
H65 H 0.2451 0.0223 0.6760
C92 C 0.2587(7) 0.1032(5) 0.6993(5)
H66 H 0.3017 0.0816 0.7107
C93 C 0.1741(7) 0.1946(4) 0.6871(6)
H67 H 0.1581 0.2395 0.6859
C94 C 0.1320(7) 0.1613(4) 0.6736(7)
H68 H 0.0871 0.1841 0.6664
C95 C 0.0824(5) -0.5650(3) 0.5807(4)
H69 H 0.0641 -0.5407 0.6162
H70 H 0.1179 -0.6040 0.5898
H71 H 0.0438 -0.5759 0.5715
C96 C 0.1924(4) -0.4832(3) 0.3949(3)
C97 C 0.2685(3) -0.5172(3) 0.3741(3)
C98 C 0.3218(4) -0.5159(4) 0.4022(4)
H72 H 0.3101 -0.4912 0.4353
C99 C 0.3897(4) -0.5502(4) 0.3816(4)
H73 H 0.4243 -0.5486 0.4011
C100 C 0.4104(3) -0.5869(3) 0.3338(3)
C101 C 0.3606(4) -0.5877(3) 0.3039(3)
H74 H 0.3738 -0.6118 0.2701
C102 C 0.2886(3) -0.5517(3) 0.3244(3)
H75 H 0.2545 -0.5517 0.3036
C103 C 0.4862(3) -0.6252(3) 0.3125(3)
C104 C 0.5430(4) -0.6104(4) 0.3242(3)
H76 H 0.5340 -0.5749 0.3456
C105 C 0.6137(4) -0.6474(4) 0.3047(3)
H77 H 0.6510 -0.6388 0.3159
C106 C 0.5753(4) -0.7104(3) 0.2576(4)
H78 H 0.5845 -0.7447 0.2344
C107 C 0.5054(4) -0.6765(3) 0.2783(4)
H79 H 0.4694 -0.6888 0.2688
C108 C -0.1807(4) -0.2270(3) 0.8166(3)
H80 H -0.1382 -0.2156 0.7916
H81 H -0.1837 -0.2258 0.8598
H82 H -0.2222 -0.1968 0.8052
C109 C -0.2189(3) -0.4193(3) 0.8140(3)
C110 C -0.2178(3) -0.4654(3) 0.8692(3)
C111 C -0.2834(3) -0.4762(3) 0.9064(3)
H83 H -0.3257 -0.4534 0.8944
C112 C -0.2872(3) -0.5173(3) 0.9575(3)
H84 H -0.3316 -0.5234 0.9802
C113 C -0.2254(3) -0.5518(3) 0.9776(3)
C114 C -0.1604(4) -0.5418(4) 0.9424(4)
H85 H -0.1183 -0.5651 0.9544
C115 C -0.1571(3) -0.4982(3) 0.8899(3)
H86 H -0.1131 -0.4907 0.8680
C116 C -0.2294(3) -0.5986(3) 1.0334(3)
C117 C -0.1780(5) -0.6537(4) 1.0372(5)
H87 H -0.1379 -0.6637 1.0042
C118 C -0.1856(5) -0.6958(4) 1.0912(4)
H88 H -0.1483 -0.7329 1.0946
C119 C -0.2912(4) -0.6361(5) 1.1303(4)
H89 H -0.3333 -0.6293 1.1617
C120 C -0.2888(4) -0.5906(5) 1.0808(4)
H90 H -0.3275 -0.5542 1.0793
C121 C -0.2840(4) 1.1543(4) 1.1441(5)
C122 C -0.2901(7) 1.1922(5) 1.0825(5)
H91 H -0.3302 1.2307 1.0881
H92 H -0.2465 1.2056 1.0627
C123 C -0.3014(10) 1.1500(6) 1.0431(7)
H93 H -0.2741 1.1557 1.0004
H94 H -0.3518 1.1598 1.0432
C124 C -0.2749(8) 1.0807(6) 1.0728(6)
H95 H -0.3087 1.0556 1.0771
H96 H -0.2283 1.0586 1.0488
C125 C -0.2548(7) 1.0402(5) 1.1854(6)
H97 H -0.2040 1.0204 1.1777
H98 H -0.2792 1.0081 1.1869
H99 H -0.2710 1.0584 1.2244
O31 O 0.1689(7) 0.3890(6) 0.6989(6)
N12 N 0.1962(6) 0.3219(6) 0.7331(6)
O32 O 0.2534(4) 0.3191(4) 0.6719(4)
Cd2_2 Cd 0.74826(2) 1.24663(2) 0.23252(2)
Cd2_3 Cd -0.25174(2) -0.75337(2) 1.23252(2)
Cd2_4 Cd 0.74826(2) -0.75337(2) 0.23252(2)
N2_2 N -0.2647(3) 1.1791(3) 1.3267(3)
N5_2 N -0.2430(3) 1.3138(3) 1.1383(3)
N6_2 N -0.3723(3) 1.3021(3) 1.2679(3)
loop_
_geom_bond_atom_site_label_1
_geom_bond_atom_site_label_2
_geom_bond_site_symmetry_1
_geom_bond_site_symmetry_2
Cd1 O19 1_555 1_555
Cd2 O23 1_555 1_555
O1 C3 1_555 1_555
O2 C4 1_555 1_555
O3 C23 1_555 1_555
O4 C10 1_555 1_555
O5 C11 1_555 1_555
O6 C36 1_555 1_555
O7 C17 1_555 1_555
O8 C18 1_555 1_555
O9 C49 1_555 1_555
O10 C64 1_555 1_555
O11 C63 1_555 1_555
O12 C83 1_555 1_555
O13 C78 1_555 1_555
O14 C77 1_555 1_555
O15 C109 1_555 1_555
O16 C71 1_555 1_555
O17 C70 1_555 1_555
O18 C96 1_555 1_555
O19 N12 1_555 1_555
O20 Cd1 1_555 1_555
O21 Cd1 1_555 1_555
O22 N7 1_555 1_555
O23 N8 1_555 1_555
O24 N8 1_555 1_555
O25 N8 1_555 1_555
O26 Cd2 1_555 1_555
O27 C126 1_555 1_555
O28 Cd1 1_555 1_555
O29 N11 1_555 1_555
O30 Cd1 1_555 1_555
N1 Cd1 1_555 1_555
N2 C45 1_555 1_555
N3 Cd2 1_555 1_555
N4 Cd1 1_555 1_555
N5 C118 1_555 1_555
N6 C105 1_555 1_555
N7 O20 1_555 1_555
N9 C121 1_555 1_555
N10 C126 1_555 1_555
N11 O28 1_555 1_555
C1 C2 1_555 1_555
C2 H1 1_555 1_555
C3 C2 1_555 1_555
C4 C3 1_555 1_555
C5 C4 1_555 1_555
H2 C5 1_555 1_555
C6 C1 1_555 1_555
C7 C6 1_555 1_555
H3 C7 1_555 1_555
H4 C7 1_555 1_555
C8 C7 1_555 1_555
C9 C8 1_555 1_555
H5 C9 1_555 1_555
C10 C9 1_555 1_555
C11 C10 1_555 1_555
C12 C11 1_555 1_555
H6 C12 1_555 1_555
C13 C8 1_555 1_555
C14 C13 1_555 1_555
H7 C14 1_555 1_555
H8 C14 1_555 1_555
C15 C14 1_555 1_555
C16 C15 1_555 1_555
H9 C16 1_555 1_555
C17 C16 1_555 1_555
C18 C17 1_555 1_555
C19 C18 1_555 1_555
H10 C19 1_555 1_555
C20 C15 1_555 1_555
C21 C1 1_555 1_555
H11 C21 1_555 1_555
H12 C21 1_555 1_555
C22 O1 1_555 1_555
H13 C22 1_555 1_555
H14 C22 1_555 1_555
H15 C22 1_555 1_555
C23 O2 1_555 1_555
C24 C23 1_555 1_555
C25 C24 1_555 1_555
H16 C25 1_555 1_555
C26 C25 1_555 1_555
H17 C26 1_555 1_555
C27 C26 1_555 1_555
C28 C27 1_555 1_555
H18 C28 1_555 1_555
C29 C24 1_555 1_555
H19 C29 1_555 1_555
C30 C27 1_555 1_555
C31 C30 1_555 1_555
H20 C31 1_555 1_555
C32 N1 1_555 1_555
H21 C32 1_555 1_555
C33 N1 1_555 1_555
H22 C33 1_555 1_555
C34 C30 1_555 1_555
H23 C34 1_555 1_555
C35 O4 1_555 1_555
H24 C35 1_555 1_555
H25 C35 1_555 1_555
H26 C35 1_555 1_555
C36 O5 1_555 1_555
C37 C36 1_555 1_555
C38 C37 1_555 1_555
H27 C38 1_555 1_555
C39 C38 1_555 1_555
H28 C39 1_555 1_555
C40 C39 1_555 1_555
C41 C40 1_555 1_555
H29 C41 1_555 1_555
C42 C37 1_555 1_555
H30 C42 1_555 1_555
C43 C40 1_555 1_555
C44 C43 1_555 1_555
H31 C44 1_555 1_555
C45 C44 1_555 1_555
H32 C45 1_555 1_555
C46 N2 1_555 1_555
H33 C46 1_555 1_555
C47 C43 1_555 1_555
H34 C47 1_555 1_555
C48 O7 1_555 1_555
H35 C48 1_555 1_555
H36 C48 1_555 1_555
H37 C48 1_555 1_555
C49 O8 1_555 1_555
C50 C49 1_555 1_555
C51 C50 1_555 1_555
H38 C51 1_555 1_555
C52 C51 1_555 1_555
H39 C52 1_555 1_555
C53 C52 1_555 1_555
C54 C53 1_555 1_555
H40 C54 1_555 1_555
C55 C50 1_555 1_555
H41 C55 1_555 1_555
C56 C53 1_555 1_555
C57 C56 1_555 1_555
H42 C57 1_555 1_555
C58 N3 1_555 1_555
H43 C58 1_555 1_555
C59 N3 1_555 1_555
H44 C59 1_555 1_555
C60 C56 1_555 1_555
H45 C60 1_555 1_555
C61 C62 1_555 1_555
C62 H46 1_555 1_555
C63 C62 1_555 1_555
C64 C63 1_555 1_555
C65 C64 1_555 1_555
H47 C65 1_555 1_555
C66 C61 1_555 1_555
C67 C66 1_555 1_555
H48 C67 1_555 1_555
H49 C67 1_555 1_555
C68 C67 1_555 1_555
C69 C68 1_555 1_555
H50 C69 1_555 1_555
C70 C69 1_555 1_555
C71 C70 1_555 1_555
C72 C71 1_555 1_555
H51 C72 1_555 1_555
C73 C68 1_555 1_555
C74 C73 1_555 1_555
H52 C74 1_555 1_555
H53 C74 1_555 1_555
C75 C74 1_555 1_555
C76 C75 1_555 1_555
H54 C76 1_555 1_555
C77 C76 1_555 1_555
C78 C77 1_555 1_555
C79 C78 1_555 1_555
H55 C79 1_555 1_555
C80 C75 1_555 1_555
C81 C61 1_555 1_555
H56 C81 1_555 1_555
H57 C81 1_555 1_555
C82 O10 1_555 1_555
H58 C82 1_555 1_555
H59 C82 1_555 1_555
H60 C82 1_555 1_555
C83 O11 1_555 1_555
C84 C83 1_555 1_555
C85 C84 1_555 1_555
H61 C85 1_555 1_555
C86 C85 1_555 1_555
H62 C86 1_555 1_555
C87 C86 1_555 1_555
C88 C87 1_555 1_555
H63 C88 1_555 1_555
C89 C84 1_555 1_555
H64 C89 1_555 1_555
C90 C87 1_555 1_555
C91 C90 1_555 1_555
H65 C91 1_555 1_555
C92 N4 1_555 1_555
H66 C92 1_555 1_555
C93 N4 1_555 1_555
H67 C93 1_555 1_555
C94 C90 1_555 1_555
H68 C94 1_555 1_555
C95 O16 1_555 1_555
H69 C95 1_555 1_555
H70 C95 1_555 1_555
H71 C95 1_555 1_555
C96 O17 1_555 1_555
C97 C96 1_555 1_555
C98 C97 1_555 1_555
H72 C98 1_555 1_555
C99 C98 1_555 1_555
H73 C99 1_555 1_555
C100 C99 1_555 1_555
C101 C100 1_555 1_555
H74 C101 1_555 1_555
C102 C97 1_555 1_555
H75 C102 1_555 1_555
C103 C100 1_555 1_555
C104 C103 1_555 1_555
H76 C104 1_555 1_555
C105 C104 1_555 1_555
H77 C105 1_555 1_555
C106 N6 1_555 1_555
H78 C106 1_555 1_555
C107 C103 1_555 1_555
H79 C107 1_555 1_555
C108 O13 1_555 1_555
H80 C108 1_555 1_555
H81 C108 1_555 1_555
H82 C108 1_555 1_555
C109 O14 1_555 1_555
C110 C109 1_555 1_555
C111 C110 1_555 1_555
H83 C111 1_555 1_555
C112 C111 1_555 1_555
H84 C112 1_555 1_555
C113 C112 1_555 1_555
C114 C113 1_555 1_555
H85 C114 1_555 1_555
C115 C110 1_555 1_555
H86 C115 1_555 1_555
C116 C113 1_555 1_555
C117 C116 1_555 1_555
H87 C117 1_555 1_555
C118 C117 1_555 1_555
H88 C118 1_555 1_555
C119 N5 1_555 1_555
H89 C119 1_555 1_555
C120 C116 1_555 1_555
H90 C120 1_555 1_555
C121 O26 1_555 1_555
C122 C121 1_555 1_555
H91 C122 1_555 1_555
H92 C122 1_555 1_555
C123 C122 1_555 1_555
H93 C123 1_555 1_555
H94 C123 1_555 1_555
C124 N9 1_555 1_555
H95 C124 1_555 1_555
H96 C124 1_555 1_555
C125 N9 1_555 1_555
H97 C125 1_555 1_555
H98 C125 1_555 1_555
H99 C125 1_555 1_555
C126 C127 1_555 1_555
C127 H100 1_555 1_555
H101 C127 1_555 1_555
C128 C127 1_555 1_555
H102 C128 1_555 1_555
H103 C128 1_555 1_555
C129 N10 1_555 1_555
H104 C129 1_555 1_555
H105 C129 1_555 1_555
C130 N10 1_555 1_555
H106 C130 1_555 1_555
H107 C130 1_555 1_555
H108 C130 1_555 1_555
O31 N12 1_555 1_555
N12 O32 1_555 1_555
O32 Cd1 1_555 1_555
Cd2_2 N2 1_555 1_555
Cd2_3 N5 1_555 1_555
Cd2_4 N6 1_555 1_555
N2_2 Cd2 1_555 1_555
N5_2 Cd2 1_555 1_555
N6_2 Cd2 1_555 1_555
O21 N7 1_555 1_555
O30 N11 1_555 1_555
C5 C6 1_555 1_555
C12 C13 1_555 1_555
C19 C20 1_555 1_555
C20 C21 1_555 1_555
C28 C29 1_555 1_555
C31 C32 1_555 1_555
C33 C34 1_555 1_555
C41 C42 1_555 1_555
C46 C47 1_555 1_555
C54 C55 1_555 1_555
C57 C58 1_555 1_555
C59 C60 1_555 1_555
C65 C66 1_555 1_555
C72 C73 1_555 1_555
C79 C80 1_555 1_555
C80 C81 1_555 1_555
C88 C89 1_555 1_555
C91 C92 1_555 1_555
C93 C94 1_555 1_555
C101 C102 1_555 1_555
C106 C107 1_555 1_555
C114 C115 1_555 1_555
C119 C120 1_555 1_555
C123 C124 1_555 1_555
C128 C129 1_555 1_555

#END
