
#######################################################################
#
#                 Cambridge Crystallographic Data Centre
#                                CCDC 
#
#######################################################################
#
# If this CIF has been generated from an entry in the Cambridge 
# Structural Database, then it will include bibliographic, chemical, 
# crystal, experimental, refinement or atomic coordinate data resulting 
# from the CCDC's data processing and validation procedures.
#
#######################################################################

data_BAKBIA
_symmetry_cell_setting           tetragonal
_symmetry_space_group_name_H-M   'I 4 2 2'
_symmetry_Int_Tables_number      97
_space_group_name_Hall           'I 4 2'
loop_
_symmetry_equiv_pos_site_id
_symmetry_equiv_pos_as_xyz
1 x,y,z
2 x,-y,-z
3 -x,-y,z
4 -x,y,-z
5 y,x,-z
6 y,-x,z
7 -y,x,z
8 -y,-x,-z
9 1/2+x,1/2+y,1/2+z
10 1/2+x,1/2-y,1/2-z
11 1/2-x,1/2-y,1/2+z
12 1/2-x,1/2+y,1/2-z
13 1/2+y,1/2+x,1/2-z
14 1/2+y,1/2-x,1/2+z
15 1/2-y,1/2+x,1/2+z
16 1/2-y,1/2-x,1/2-z
_cell_length_a                   11.9523(2)
_cell_length_b                   11.9523(2)
_cell_length_c                   20.2090(7)
_cell_angle_alpha                90
_cell_angle_beta                 90
_cell_angle_gamma                90
_cell_volume                     2887.01
loop_
_atom_site_label
_atom_site_type_symbol
_atom_site_fract_x
_atom_site_fract_y
_atom_site_fract_z
Sn1 Sn -1.0000 0.0000 0.0000
Cl1 Cl -0.67641(8) -0.15782(8) -0.14102(4)
O2 O -0.58480(18) -0.34448(18) -0.05835(11)
O3 O -0.86109(16) -0.06581(17) -0.05763(10)
C5 C -0.6657(3) -0.2939(2) -0.03436(15)
C6 C -0.7218(3) -0.2031(3) -0.06428(15)
C7 C -0.8091(2) -0.1502(2) -0.03337(14)
Ca1 Ca -0.5000 -0.5000 0.0000
Cl1G Cl -0.84218(8) -0.32359(8) 0.14102(4)
Cl1A Cl -0.67641(8) 0.15782(8) 0.14102(4)
Cl1F Cl -0.84218(8) 0.32359(8) -0.14102(4)
Cl1B Cl -1.32359(8) 0.15782(8) -0.14102(4)
Cl1D Cl -1.15782(8) 0.32359(8) 0.14102(4)
Cl1C Cl -1.32359(8) -0.15782(8) 0.14102(4)
Cl1E Cl -1.15782(8) -0.32359(8) -0.14102(4)
O2G O -0.65552(18) -0.41520(18) 0.05835(11)
O2A O -0.58480(18) 0.34448(18) 0.05835(11)
O2F O -0.65552(18) 0.41520(18) -0.05835(11)
O2B O -1.41520(18) 0.34448(18) -0.05835(11)
O2D O -1.34448(18) 0.41520(18) 0.05835(11)
O2C O -1.41520(18) -0.34448(18) 0.05835(11)
O2E O -1.34448(18) -0.41520(18) -0.05835(11)
O2A_2 O -0.58480(18) -0.65552(18) 0.05835(11)
O2B_2 O -0.41520(18) -0.65552(18) -0.05835(11)
O2C_2 O -0.41520(18) -0.34448(18) 0.05835(11)
O2D_2 O -0.34448(18) -0.58480(18) 0.05835(11)
O2F_2 O -0.65552(18) -0.58480(18) -0.05835(11)
O2E_2 O -0.34448(18) -0.41520(18) -0.05835(11)
O3G O -0.93419(17) -0.13891(16) 0.05763(10)
O3A O -0.86109(16) 0.06581(17) 0.05763(10)
O3F O -0.93419(17) 0.13891(16) -0.05763(10)
O3B O -1.13891(16) 0.06581(17) -0.05763(10)
O3D O -1.06581(17) 0.13891(16) 0.05763(10)
O3C O -1.13891(16) -0.06581(17) 0.05763(10)
O3E O -1.06581(17) -0.13891(16) -0.05763(10)
C5G C -0.7061(2) -0.3343(3) 0.03436(15)
C5A C -0.6657(3) 0.2939(2) 0.03436(15)
C5F C -0.7061(2) 0.3343(3) -0.03436(15)
C5B C -1.3343(3) 0.2939(2) -0.03436(15)
C5D C -1.2939(2) 0.3343(3) 0.03436(15)
C5C C -1.3343(3) -0.2939(2) 0.03436(15)
C5E C -1.2939(2) -0.3343(3) -0.03436(15)
C6G C -0.7969(3) -0.2782(3) 0.06428(15)
C6A C -0.7218(3) 0.2031(3) 0.06428(15)
C6F C -0.7969(3) 0.2782(3) -0.06428(15)
C6B C -1.2782(3) 0.2031(3) -0.06428(15)
C6D C -1.2031(3) 0.2782(3) 0.06428(15)
C6C C -1.2782(3) -0.2031(3) 0.06428(15)
C6E C -1.2031(3) -0.2782(3) -0.06428(15)
C7G C -0.8498(2) -0.1909(2) 0.03337(14)
C7A C -0.8091(2) 0.1502(2) 0.03337(14)
C7F C -0.8498(2) 0.1909(2) -0.03337(14)
C7B C -1.1909(2) 0.1502(2) -0.03337(14)
C7D C -1.1502(2) 0.1909(2) 0.03337(14)
C7C C -1.1909(2) -0.1502(2) 0.03337(14)
C7E C -1.1502(2) -0.1909(2) -0.03337(14)
Ca1_2 Ca -0.5000 0.5000 0.0000
Ca1_3 Ca -1.5000 0.5000 0.0000
Ca1_4 Ca -1.5000 -0.5000 0.0000
O1 O 1.0000 0.5000 0.2500
N1? N 0.5000 0.5000 0.2460(3)
C1? C 0.4696(6) 0.5971(7) 0.2012(4)
H1? H 0.5356 0.6155 0.1737
H2? H 0.4093 0.5723 0.1710
C2? C 0.4317(19) 0.7018(11) 0.2356(11)
H3? H 0.4128 0.7587 0.2025
H4? H 0.4919 0.7296 0.2641
H5? H 0.3655 0.6853 0.2625
C3? C -0.0334(18) 0.4701(19) -0.0156(13)
C4? C 0.0497(17) 0.5440(17) -0.0532(9)
N2? N 0.1083(18) 0.5938(19) -0.0871(10)
C8? C 0.5969(6) 0.5307(6) 0.2916(3)
C9? C 0.7038(12) 0.5601(16) 0.2555(9)
H6? H 0.5743 0.5951 0.3193
H7? H 0.6119 0.4669 0.3215
H8? H 0.7625 0.5776 0.2878
H9? H 0.6909 0.6253 0.2271
H10? H 0.7275 0.4966 0.2283
loop_
_geom_bond_atom_site_label_1
_geom_bond_atom_site_label_2
_geom_bond_site_symmetry_1
_geom_bond_site_symmetry_2
Sn1 O3 1_555 1_555
Cl1 C6 1_555 1_555
O2 C5 1_555 1_555
O3 C7 1_555 1_555
C5 C6 1_555 1_555
C6 C7 1_555 1_555
C7 C7G 1_555 1_555
Ca1 O2 1_555 1_555
Cl1G C6G 1_555 1_555
Cl1A C6A 1_555 1_555
Cl1F C6F 1_555 1_555
Cl1B C6B 1_555 1_555
Cl1D C6D 1_555 1_555
Cl1C C6C 1_555 1_555
Cl1E C6E 1_555 1_555
O2G Ca1 1_555 1_555
O2A C5A 1_555 1_555
O2F C5F 1_555 1_555
O2B C5B 1_555 1_555
O2D C5D 1_555 1_555
O2C C5C 1_555 1_555
O2E C5E 1_555 1_555
O2A_2 Ca1 1_555 1_555
O2B_2 Ca1 1_555 1_555
O2C_2 Ca1 1_555 1_555
O2D_2 Ca1 1_555 1_555
O2F_2 Ca1 1_555 1_555
O2E_2 Ca1 1_555 1_555
O3G Sn1 1_555 1_555
O3A Sn1 1_555 1_555
O3F Sn1 1_555 1_555
O3B Sn1 1_555 1_555
O3D Sn1 1_555 1_555
O3C Sn1 1_555 1_555
O3E Sn1 1_555 1_555
C5G C5 1_555 1_555
C5A C5F 1_555 1_555
C5F C6F 1_555 1_555
C5B C5D 1_555 1_555
C5D C6D 1_555 1_555
C5C C5E 1_555 1_555
C5E C6E 1_555 1_555
C6G C5G 1_555 1_555
C6A C5A 1_555 1_555
C6F C7F 1_555 1_555
C6B C5B 1_555 1_555
C6D C7D 1_555 1_555
C6C C5C 1_555 1_555
C6E C7E 1_555 1_555
C7G O3G 1_555 1_555
C7A O3A 1_555 1_555
C7F O3F 1_555 1_555
C7B O3B 1_555 1_555
C7D O3D 1_555 1_555
C7C O3C 1_555 1_555
C7E O3E 1_555 1_555
Ca1_2 O2A 1_555 1_555
Ca1_3 O2B 1_555 1_555
Ca1_4 O2C 1_555 1_555
O2G C5G 1_555 1_555
O2F Ca1_2 1_555 1_555
O2D Ca1_3 1_555 1_555
O2E Ca1_4 1_555 1_555
C6G C7G 1_555 1_555
C6A C7A 1_555 1_555
C6B C7B 1_555 1_555
C6C C7C 1_555 1_555
C7A C7F 1_555 1_555
C7B C7D 1_555 1_555
C7C C7E 1_555 1_555

#END
