
#######################################################################
#
#                 Cambridge Crystallographic Data Centre
#                                CCDC 
#
#######################################################################
#
# If this CIF has been generated from an entry in the Cambridge 
# Structural Database, then it will include bibliographic, chemical, 
# crystal, experimental, refinement or atomic coordinate data resulting 
# from the CCDC's data processing and validation procedures.
#
#######################################################################

data_BAKCAS
_symmetry_cell_setting           orthorhombic
_symmetry_space_group_name_H-M   'P b c a'
_symmetry_Int_Tables_number      61
_space_group_name_Hall           '-P 2ac 2ab'
loop_
_symmetry_equiv_pos_site_id
_symmetry_equiv_pos_as_xyz
1 x,y,z
2 1/2-x,1/2+y,z
3 x,1/2-y,1/2+z
4 1/2+x,y,1/2-z
5 -x,-y,-z
6 1/2+x,1/2-y,-z
7 -x,1/2+y,1/2-z
8 1/2-x,-y,1/2+z
_cell_length_a                   23.792(4)
_cell_length_b                   21.884(4)
_cell_length_c                   21.412(6)
_cell_angle_alpha                90
_cell_angle_beta                 90
_cell_angle_gamma                90
_cell_volume                     11148.5
loop_
_atom_site_label
_atom_site_type_symbol
_atom_site_fract_x
_atom_site_fract_y
_atom_site_fract_z
Au1 Au 0.20338(2) 0.071988(19) 0.044825(18)
Au2 Au 0.30103(2) -0.04335(2) -0.318613(18)
Fe1 Fe 0.24853(8) 0.01417(8) -0.14151(7)
S1 S 0.20604(18) 0.17146(13) 0.07945(13)
S2 S 0.39447(14) -0.06215(16) -0.34132(13)
P1 P 0.20068(15) -0.02249(13) 0.00359(12)
P2 P 0.21152(13) -0.02621(13) -0.28850(12)
O1 O 0.3638(4) 0.2464(5) -0.0210(4)
O2 O 0.4323(4) -0.2011(4) -0.1851(4)
N1 N 0.3308(5) 0.1978(5) 0.0633(5)
H1 H 0.3017 0.1794 0.0803
N2 N 0.3891(5) -0.1858(5) -0.2747(5)
H2 H 0.3801 -0.1601 -0.3046
C1 C 0.2655(5) 0.2290(5) -0.0194(5)
C2 C 0.3246(6) 0.2258(6) 0.0081(5)
C3 C 0.4384(5) -0.0998(6) -0.2239(5)
C4 C 0.4202(5) -0.1653(6) -0.2270(6)
C5 C 0.4274(5) -0.0531(6) -0.2682(5)
C6 C 0.2133(6) 0.2100(5) 0.0054(6)
C7 C 0.4499(5) 0.0049(6) -0.2567(6)
H3 H 0.4447 0.0362 -0.2869
C8 C 0.1648(6) 0.2210(6) -0.0270(6)
H4 H 0.1304 0.2068 -0.0099
C9 C 0.4803(6) 0.0182(7) -0.2015(7)
H5 H 0.4951 0.0578 -0.1942
C10 C 0.1634(7) 0.2515(6) -0.0834(6)
H6 H 0.1288 0.2601 -0.1037
C11 C 0.4876(6) -0.0287(7) -0.1582(6)
H7 H 0.5069 -0.0206 -0.1203
C12 C 0.2140(6) 0.2692(5) -0.1091(6)
H8 H 0.2146 0.2882 -0.1489
C13 C 0.4679(6) -0.0852(6) -0.1692(6)
H9 H 0.4741 -0.1162 -0.1390
C14 C 0.2649(6) 0.2593(5) -0.0767(6)
H10 H 0.2992 0.2735 -0.0942
C15 C 0.3838(6) 0.1971(7) 0.0955(6)
H11 H 0.3799 0.1743 0.1347
H12 H 0.3955 0.2391 0.1046
H13 H 0.4122 0.1773 0.0692
C16 C 0.3696(6) -0.2487(6) -0.2794(6)
H14 H 0.3479 -0.2537 -0.3180
H15 H 0.3458 -0.2583 -0.2434
H16 H 0.4020 -0.2763 -0.2800
C17 C 0.2506(5) -0.0293(5) -0.0581(4)
C18 C 0.2100(5) 0.0263(5) -0.2243(5)
C19 C 0.2984(6) 0.0082(5) -0.0667(5)
H17 H 0.3090 0.0412 -0.0404
C20 C 0.2524(6) 0.0712(6) -0.2151(5)
H18 H 0.2846 0.0770 -0.2407
C21 C 0.3278(6) -0.0112(7) -0.1205(5)
H19 H 0.3609 0.0071 -0.1368
C22 C 0.2386(7) 0.1058(6) -0.1615(6)
H20 H 0.2590 0.1394 -0.1451
C23 C 0.3002(6) -0.0612(5) -0.1454(5)
H21 H 0.3116 -0.0840 -0.1810
C24 C 0.1881(6) 0.0804(6) -0.1368(5)
H22 H 0.1697 0.0939 -0.0998
C25 C 0.2516(5) -0.0723(6) -0.1078(5)
H23 H 0.2245 -0.1034 -0.1149
C26 C 0.1695(5) 0.0328(5) -0.1750(5)
H24 H 0.1364 0.0091 -0.1695
C27 C 0.2165(5) -0.0846(5) 0.0575(4)
C28 C 0.1637(5) 0.0054(5) -0.3466(5)
C29 C 0.1788(5) -0.0983(5) 0.1034(4)
H25 H 0.1454 -0.0748 0.1068
C30 C 0.1382(5) 0.0622(5) -0.3380(5)
H26 H 0.1452 0.0855 -0.3013
C31 C 0.1877(5) -0.1453(5) 0.1449(5)
H27 H 0.1606 -0.1546 0.1760
C32 C 0.1024(6) 0.0842(7) -0.3843(7)
H28 H 0.0858 0.1234 -0.3798
C33 C 0.2366(6) -0.1785(6) 0.1405(6)
H29 H 0.2436 -0.2106 0.1693
C34 C 0.0910(6) 0.0503(8) -0.4355(6)
H30 H 0.0657 0.0655 -0.4661
C35 C 0.2753(6) -0.1657(5) 0.0947(5)
H31 H 0.3088 -0.1890 0.0920
C36 C 0.1154(6) -0.0057(7) -0.4440(5)
H32 H 0.1078 -0.0289 -0.4805
C37 C 0.2655(5) -0.1185(5) 0.0523(5)
H33 H 0.2920 -0.1097 0.0203
C38 C 0.1509(5) -0.0278(6) -0.3993(5)
H34 H 0.1671 -0.0671 -0.4047
C39 C 0.1329(5) -0.0435(6) -0.0290(4)
C40 C 0.1758(5) -0.0945(5) -0.2620(5)
C41 C 0.0910(5) -0.0010(6) -0.0398(5)
H35 H 0.0971 0.0407 -0.0296
C42 C 0.1167(5) -0.0945(6) -0.2497(5)
H36 H 0.0945 -0.0590 -0.2564
C43 C 0.0410(6) -0.0191(7) -0.0651(6)
H37 H 0.0125 0.0105 -0.0725
C44 C 0.0930(7) -0.1478(7) -0.2279(6)
H38 H 0.0537 -0.1485 -0.2197
C45 C 0.0313(6) -0.0774(8) -0.0796(6)
H39 H -0.0036 -0.0887 -0.0979
C46 C 0.1229(7) -0.1986(7) -0.2176(6)
H40 H 0.1046 -0.2339 -0.2020
C47 C 0.0712(6) -0.1212(6) -0.0683(5)
H41 H 0.0638 -0.1627 -0.0782
C48 C 0.1810(7) -0.2006(6) -0.2296(6)
H42 H 0.2027 -0.2363 -0.2220
C49 C 0.1227(5) -0.1047(6) -0.0422(5)
H43 H 0.1504 -0.1348 -0.0335
C50 C 0.2047(6) -0.1477(5) -0.2531(4)
H44 H 0.2435 -0.1484 -0.2636
Au2G Au 0.19897(2) 0.04335(2) 0.181387(18)
Au1G Au 0.29662(2) -0.071988(19) -0.455175(18)
Cl1 Cl 0.5384(2) -0.3185(2) -0.2159(2)
Cl2 Cl 0.43717(18) -0.37258(19) -0.1741(2)
Cl3 Cl 0.5248(2) -0.3452(2) -0.0866(2)
C51 C 0.4908(5) -0.3223(6) -0.1552(6)
H45 H 0.4744 -0.2807 -0.1485
Cl4 Cl 0.5147(3) 0.2407(3) -0.1070(3)
Cl5 Cl 0.4534(3) 0.1356(3) -0.0769(3)
Cl6 Cl 0.5266(2) 0.1898(2) 0.0138(2)
C52 C 0.4794(9) 0.2049(8) -0.0479(7)
H46 H 0.4478 0.2311 -0.0329
loop_
_geom_bond_atom_site_label_1
_geom_bond_atom_site_label_2
_geom_bond_site_symmetry_1
_geom_bond_site_symmetry_2
Au1 S1 1_555 1_555
Au2 S2 1_555 1_555
Fe1 C17 1_555 1_555
Cl1 C51 1_555 1_555
Cl2 C51 1_555 1_555
Cl3 C51 1_555 1_555
Cl4 C52 1_555 1_555
Cl5 C52 1_555 1_555
Cl6 C52 1_555 1_555
S1 C6 1_555 1_555
S2 C5 1_555 1_555
P1 Au1 1_555 1_555
P2 Au2 1_555 1_555
O1 C2 1_555 1_555
O2 C4 1_555 1_555
N1 H1 1_555 1_555
N2 H2 1_555 1_555
C1 C2 1_555 1_555
C2 N1 1_555 1_555
C3 C4 1_555 1_555
C4 N2 1_555 1_555
C5 C3 1_555 1_555
C6 C1 1_555 1_555
C7 C5 1_555 1_555
H3 C7 1_555 1_555
C8 C6 1_555 1_555
H4 C8 1_555 1_555
C9 C7 1_555 1_555
H5 C9 1_555 1_555
C10 C8 1_555 1_555
H6 C10 1_555 1_555
C11 C9 1_555 1_555
H7 C11 1_555 1_555
C12 C10 1_555 1_555
H8 C12 1_555 1_555
C13 C3 1_555 1_555
H9 C13 1_555 1_555
C14 C1 1_555 1_555
H10 C14 1_555 1_555
C15 N1 1_555 1_555
H11 C15 1_555 1_555
H12 C15 1_555 1_555
H13 C15 1_555 1_555
C16 N2 1_555 1_555
H14 C16 1_555 1_555
H15 C16 1_555 1_555
H16 C16 1_555 1_555
C17 P1 1_555 1_555
C18 Fe1 1_555 1_555
C19 Fe1 1_555 1_555
H17 C19 1_555 1_555
C20 Fe1 1_555 1_555
H18 C20 1_555 1_555
C21 Fe1 1_555 1_555
H19 C21 1_555 1_555
C22 Fe1 1_555 1_555
H20 C22 1_555 1_555
C23 Fe1 1_555 1_555
H21 C23 1_555 1_555
C24 Fe1 1_555 1_555
H22 C24 1_555 1_555
C25 Fe1 1_555 1_555
H23 C25 1_555 1_555
C26 Fe1 1_555 1_555
H24 C26 1_555 1_555
C27 P1 1_555 1_555
C28 P2 1_555 1_555
C29 C27 1_555 1_555
H25 C29 1_555 1_555
C30 C28 1_555 1_555
H26 C30 1_555 1_555
C31 C29 1_555 1_555
H27 C31 1_555 1_555
C32 C30 1_555 1_555
H28 C32 1_555 1_555
C33 C31 1_555 1_555
H29 C33 1_555 1_555
C34 C32 1_555 1_555
H30 C34 1_555 1_555
C35 C33 1_555 1_555
H31 C35 1_555 1_555
C36 C34 1_555 1_555
H32 C36 1_555 1_555
C37 C27 1_555 1_555
H33 C37 1_555 1_555
C38 C28 1_555 1_555
H34 C38 1_555 1_555
C39 P1 1_555 1_555
C40 P2 1_555 1_555
C41 C39 1_555 1_555
H35 C41 1_555 1_555
C42 C40 1_555 1_555
H36 C42 1_555 1_555
C43 C41 1_555 1_555
H37 C43 1_555 1_555
C44 C42 1_555 1_555
H38 C44 1_555 1_555
C45 C43 1_555 1_555
H39 C45 1_555 1_555
C46 C44 1_555 1_555
H40 C46 1_555 1_555
C47 C45 1_555 1_555
H41 C47 1_555 1_555
C48 C46 1_555 1_555
H42 C48 1_555 1_555
C49 C39 1_555 1_555
H43 C49 1_555 1_555
C50 C40 1_555 1_555
H44 C50 1_555 1_555
C51 H45 1_555 1_555
C52 H46 1_555 1_555
Au2G Au1 1_555 1_555
Au1G Au2 1_555 1_555
P2 C18 1_555 1_555
C11 C13 1_555 1_555
C12 C14 1_555 1_555
C17 C19 1_555 1_555
C17 C25 1_555 1_555
C18 C20 1_555 1_555
C18 C26 1_555 1_555
C19 C21 1_555 1_555
C20 C22 1_555 1_555
C21 C23 1_555 1_555
C22 C24 1_555 1_555
C23 C25 1_555 1_555
C24 C26 1_555 1_555
C35 C37 1_555 1_555
C36 C38 1_555 1_555
C47 C49 1_555 1_555
C48 C50 1_555 1_555

#END
