
#######################################################################
#
#                 Cambridge Crystallographic Data Centre
#                                CCDC 
#
#######################################################################
#
# If this CIF has been generated from an entry in the Cambridge 
# Structural Database, then it will include bibliographic, chemical, 
# crystal, experimental, refinement or atomic coordinate data resulting 
# from the CCDC's data processing and validation procedures.
#
#######################################################################

data_BAKFID
_symmetry_cell_setting           rhombohedral
_symmetry_space_group_name_H-M   'R -3'
_symmetry_Int_Tables_number      148
_space_group_name_Hall           '-R 3'
loop_
_symmetry_equiv_pos_site_id
_symmetry_equiv_pos_as_xyz
1 x,y,z
2 -y,x-y,z
3 -x+y,-x,z
4 2/3+x,1/3+y,1/3+z
5 2/3-y,1/3+x-y,1/3+z
6 2/3-x+y,1/3-x,1/3+z
7 1/3+x,2/3+y,2/3+z
8 1/3-y,2/3+x-y,2/3+z
9 1/3-x+y,2/3-x,2/3+z
10 -x,-y,-z
11 y,-x+y,-z
12 x-y,x,-z
13 1/3-x,2/3-y,2/3-z
14 1/3+y,2/3-x+y,2/3-z
15 1/3+x-y,2/3+x,2/3-z
16 2/3-x,1/3-y,1/3-z
17 2/3+y,1/3-x+y,1/3-z
18 2/3+x-y,1/3+x,1/3-z
_cell_length_a                   9.4141(2)
_cell_length_b                   9.4141(2)
_cell_length_c                   23.9946(5)
_cell_angle_alpha                90
_cell_angle_beta                 90
_cell_angle_gamma                120
_cell_volume                     1841.63
loop_
_atom_site_label
_atom_site_type_symbol
_atom_site_fract_x
_atom_site_fract_y
_atom_site_fract_z
Cd1 Cd 0.74423(9) 0.61551(9) -0.09619(3)
Rb1 Rb 0.0000 0.0000 0.0000
C1 C 0.4444(12) 0.4143(12) -0.0135(4)
C2 C -0.0920(12) 0.1822(13) 0.1479(4)
O1 O 0.4999(9) 0.3889(9) -0.0584(3)
O2 O 0.3146(9) 0.3173(9) 0.0094(3)
O3 O 0.0472(8) 0.2949(8) 0.1637(3)
O4 O -0.1187(9) 0.1003(9) 0.1051(3)
C1I C 0.5556(12) 0.5857(12) 0.0135(4)
O1I O 0.5001(9) 0.6111(9) 0.0584(3)
O2I O 0.6854(9) 0.6827(9) -0.0094(3)
C2O C -0.2413(12) 0.1511(13) 0.1854(4)
O3O O -0.3805(8) 0.0384(8) 0.1696(3)
O4O O -0.2146(9) 0.2330(9) 0.2282(3)
C1A C -0.4143(12) 0.0301(17) -0.0135(4)
O1A O -0.3889(9) 0.1110(13) -0.0584(3)
O2A O -0.3173(9) -0.0027(13) 0.0094(3)
C1J C -0.5857(12) -0.0301(17) 0.0135(4)
O1J O -0.6111(9) -0.1110(13) 0.0584(3)
O2J O -0.6827(9) 0.0027(13) -0.0094(3)
C1B C -0.0301(17) -0.4444(12) -0.0135(4)
O1B O -0.1110(13) -0.4999(9) -0.0584(3)
O2B O 0.0027(13) -0.3146(9) 0.0094(3)
C1K C 0.0301(17) -0.5556(12) 0.0135(4)
O1K O 0.1110(13) -0.5001(9) 0.0584(3)
O2K O -0.0027(13) -0.6854(9) -0.0094(3)
C2A C -0.1822(13) -0.2742(18) 0.1479(4)
O3A O -0.2949(8) -0.2477(11) 0.1637(3)
O4A O -0.1003(9) -0.2190(13) 0.1051(3)
C2P C -0.1511(13) -0.3925(18) 0.1854(4)
O3P O -0.0384(8) -0.4190(11) 0.1696(3)
O4P O -0.2330(9) -0.4477(13) 0.2282(3)
C2B C 0.2742(18) 0.0920(12) 0.1479(4)
O3B O 0.2477(11) -0.0472(8) 0.1637(3)
O4B O 0.2190(13) 0.1187(9) 0.1051(3)
C2Q C 0.3925(18) 0.2413(12) 0.1854(4)
O3Q O 0.4190(11) 0.3805(8) 0.1696(3)
O4Q O 0.4477(13) 0.2146(9) 0.2282(3)
Cd1I Cd 0.25577(9) 0.38449(9) 0.09619(3)
Cd1A Cd -0.61551(9) 0.12872(13) -0.09619(3)
Cd1J Cd -0.38449(9) -0.12872(13) 0.09619(3)
Cd1B Cd -0.12872(13) -0.74423(9) -0.09619(3)
Cd1K Cd 0.12872(13) -0.25577(9) 0.09619(3)
O1B_2 O 0.8890(13) 0.5001(9) -0.0584(3)
O3I O 0.9528(8) 0.7051(8) -0.1637(3)
O3H O 0.5810(11) 0.6195(8) -0.1696(3)
O4K O 0.7810(13) 0.8813(9) -0.1051(3)
O2I_2 O -0.3146(9) -0.3173(9) -0.0094(3)
O2J_2 O 0.3173(9) 0.0027(13) -0.0094(3)
O2K_2 O -0.0027(13) 0.3146(9) -0.0094(3)
O4I O 0.1187(9) -0.1003(9) -0.1051(3)
O4J O 0.1003(9) 0.2190(13) -0.1051(3)
O4K_2 O -0.2190(13) -0.1187(9) -0.1051(3)
Cd1A_2 Cd 0.38449(9) 0.12872(13) -0.09619(3)
Cd1D Cd 0.05116(9) 0.46205(13) 0.23714(3)
Cd1J_2 Cd 0.61551(9) 0.87128(13) 0.09619(3)
Rb1_2 Rb 1.0000 1.0000 0.0000
Cd1C Cd -0.58910(9) -0.05116(9) 0.23714(3)
Rb1C Rb -0.3333 0.3333 0.3333
Cd1B_2 Cd -0.12872(13) 0.25577(9) -0.09619(3)
Cd1K_2 Cd -0.87128(13) -0.25577(9) 0.09619(3)
Rb1_3 Rb -1.0000 0.0000 0.0000
Cd1_2 Cd -0.25577(9) -0.38449(9) -0.09619(3)
Cd1I_2 Cd 0.25577(9) -0.61551(9) 0.09619(3)
Rb1_4 Rb 0.0000 -1.0000 0.0000
Cd1E Cd -0.46205(13) -0.41090(9) 0.23714(3)
Cd1D_2 Cd 0.05116(9) -0.53795(13) 0.23714(3)
Rb1C_2 Rb -0.3333 -0.6667 0.3333
Cd1C_2 Cd 0.41090(9) -0.05116(9) 0.23714(3)
Cd1E_2 Cd 0.53795(13) 0.58910(9) 0.23714(3)
Rb1C_3 Rb 0.6667 0.3333 0.3333
O1K_2 O 0.1110(13) 0.4999(9) 0.0584(3)
O1_2 O -0.5001(9) 0.3889(9) -0.0584(3)
O3F O -0.6195(8) -0.0384(8) -0.1696(3)
O3J O -0.7051(8) 0.2477(11) -0.1637(3)
O4I_2 O -0.8813(9) -0.1003(9) -0.1051(3)
O1I_2 O -0.4999(9) -0.3889(9) 0.0584(3)
O1A_2 O -0.3889(9) -0.8890(13) -0.0584(3)
O3K O -0.2477(11) -0.9528(8) -0.1637(3)
O3G O 0.0384(8) -0.5810(11) -0.1696(3)
O4J_2 O 0.1003(9) -0.7810(13) -0.1051(3)
O1J_2 O 0.3889(9) -0.1110(13) 0.0584(3)
Br1 Br 0.3333 0.6667 0.1667
O5 O 0.6667 0.3333 0.0762(20)
loop_
_geom_bond_atom_site_label_1
_geom_bond_atom_site_label_2
_geom_bond_site_symmetry_1
_geom_bond_site_symmetry_2
Cd1 O1 1_555 1_555
Rb1 O2 1_555 1_555
C1 O1 1_555 1_555
C2 O3 1_555 1_555
O1 Cd1A_2 1_555 1_555
O2 C1 1_555 1_555
O3 Cd1I 1_555 1_555
O4 Rb1 1_555 1_555
C1I C1 1_555 1_555
O1I C1I 1_555 1_555
O2I Cd1 1_555 1_555
C2O C2 1_555 1_555
O3O C2O 1_555 1_555
O4O C2O 1_555 1_555
C1A O1A 1_555 1_555
O1A Cd1A 1_555 1_555
O2A Rb1 1_555 1_555
C1J C1A 1_555 1_555
O1J C1J 1_555 1_555
O2J C1J 1_555 1_555
C1B O1B 1_555 1_555
O1B Cd1B 1_555 1_555
O2B Rb1 1_555 1_555
C1K C1B 1_555 1_555
O1K C1K 1_555 1_555
O2K C1K 1_555 1_555
C2A O3A 1_555 1_555
O3A Cd1J 1_555 1_555
O4A Rb1 1_555 1_555
C2P C2A 1_555 1_555
O3P C2P 1_555 1_555
O4P C2P 1_555 1_555
C2B O3B 1_555 1_555
O3B Cd1K 1_555 1_555
O4B Rb1 1_555 1_555
C2Q C2B 1_555 1_555
O3Q C2Q 1_555 1_555
O4Q C2Q 1_555 1_555
Cd1I O2 1_555 1_555
Cd1A O2J 1_555 1_555
Cd1J O4 1_555 1_555
Cd1B O2K 1_555 1_555
Cd1K O2B 1_555 1_555
O1B_2 Cd1 1_555 1_555
O3I Cd1 1_555 1_555
O3H Cd1 1_555 1_555
O4K Cd1 1_555 1_555
O2I_2 Rb1 1_555 1_555
O2J_2 Rb1 1_555 1_555
O2K_2 Rb1 1_555 1_555
O4I Rb1 1_555 1_555
O4J Rb1 1_555 1_555
O4K_2 Rb1 1_555 1_555
Cd1A_2 O2J_2 1_555 1_555
Cd1D O3 1_555 1_555
Cd1J_2 O1I 1_555 1_555
Rb1_2 O2I 1_555 1_555
Cd1C O3O 1_555 1_555
Rb1C O4O 1_555 1_555
Cd1B_2 O1A 1_555 1_555
Cd1K_2 O1J 1_555 1_555
Rb1_3 O2J 1_555 1_555
Cd1_2 O1B 1_555 1_555
Cd1I_2 O1K 1_555 1_555
Rb1_4 O2K 1_555 1_555
Cd1E O3A 1_555 1_555
Cd1D_2 O3P 1_555 1_555
Rb1C_2 O4P 1_555 1_555
Cd1C_2 O3B 1_555 1_555
Cd1E_2 O3Q 1_555 1_555
Rb1C_3 O4Q 1_555 1_555
O1K_2 Cd1I 1_555 1_555
O1_2 Cd1A 1_555 1_555
O3F Cd1A 1_555 1_555
O3J Cd1A 1_555 1_555
O4I_2 Cd1A 1_555 1_555
O1I_2 Cd1J 1_555 1_555
O1A_2 Cd1B 1_555 1_555
O3K Cd1B 1_555 1_555
O3G Cd1B 1_555 1_555
O4J_2 Cd1B 1_555 1_555
O1J_2 Cd1K 1_555 1_555
C2 O4 1_555 1_555
C1I O2I 1_555 1_555
O1I Cd1I 1_555 1_555
O3O Cd1J 1_555 1_555
O4O Cd1D 1_555 1_555
C1A O2A 1_555 1_555
O2A Cd1J 1_555 1_555
O1J Cd1J 1_555 1_555
C1B O2B 1_555 1_555
O1K Cd1K 1_555 1_555
C2A O4A 1_555 1_555
O4A Cd1K 1_555 1_555
O3P Cd1K 1_555 1_555
O4P Cd1E 1_555 1_555
C2B O4B 1_555 1_555
O4B Cd1I 1_555 1_555
O3Q Cd1I 1_555 1_555
O4Q Cd1C_2 1_555 1_555
O4K Rb1_2 1_555 1_555
O2I_2 Cd1_2 1_555 1_555
O2K_2 Cd1B_2 1_555 1_555
O4I Cd1A_2 1_555 1_555
O4J Cd1B_2 1_555 1_555
O4K_2 Cd1_2 1_555 1_555
Rb1_3 O4I_2 1_555 1_555
Rb1_4 O4J_2 1_555 1_555

#END
