
#######################################################################
#
#                 Cambridge Crystallographic Data Centre
#                                CCDC 
#
#######################################################################
#
# If this CIF has been generated from an entry in the Cambridge 
# Structural Database, then it will include bibliographic, chemical, 
# crystal, experimental, refinement or atomic coordinate data resulting 
# from the CCDC's data processing and validation procedures.
#
#######################################################################

data_BAKFUQ
_symmetry_cell_setting           monoclinic
_symmetry_space_group_name_H-M   'C 2/c'
_symmetry_Int_Tables_number      15
_space_group_name_Hall           '-C 2yn'
loop_
_symmetry_equiv_pos_site_id
_symmetry_equiv_pos_as_xyz
1 x,y,z
2 -x,y,1/2-z
3 1/2+x,1/2+y,z
4 1/2-x,1/2+y,1/2-z
5 -x,-y,-z
6 x,-y,1/2+z
7 1/2-x,1/2-y,-z
8 1/2+x,1/2-y,1/2+z
_cell_length_a                   28.828(2)
_cell_length_b                   6.4136(5)
_cell_length_c                   13.9560(11)
_cell_angle_alpha                90
_cell_angle_beta                 91.547(2)
_cell_angle_gamma                90
_cell_volume                     2579.4
loop_
_atom_site_label
_atom_site_type_symbol
_atom_site_fract_x
_atom_site_fract_y
_atom_site_fract_z
Co1 Co 0.090315(10) 0.04645(4) 0.40355(2)
Co2 Co -0.008329(10) 0.20276(4) 0.44638(2)
S1 S 0.0000 -0.09872(11) 0.2500
O1 O 0.02218(5) 0.0423(2) 0.32482(11)
O2 O -0.03617(5) -0.2255(2) 0.29278(11)
O3 O 0.04597(5) 0.0543(2) 0.51819(11)
H1 H 0.0554 0.1264 0.5664
O4 O 0.15031(5) 0.0956(3) 0.48686(12)
H2 H 0.1724 0.0811 0.4479
H3 H 0.1592 0.0342 0.5386
O5 O -0.05558(6) 0.3620(3) 0.35911(12)
H4 H -0.0755 0.2909 0.3265
H5 H -0.0471 0.4668 0.3261
N1 N 0.13808(6) 0.0600(3) 0.29327(14)
N2 N 0.12735(7) 0.0902(3) 0.20241(14)
N3 N 0.18451(6) 0.0511(3) 0.30763(14)
N4 N 0.16701(6) 0.0993(3) 0.15424(14)
N5 N 0.41821(6) -0.1202(3) 0.11083(13)
N6 N 0.45873(6) -0.0570(3) 0.07563(13)
N7 N 0.45743(6) 0.1438(3) 0.06040(13)
N8 N 0.41590(6) 0.2178(3) 0.08754(13)
C1 C 0.20111(8) 0.0744(3) 0.22001(16)
C2 C 0.25060(7) 0.0716(3) 0.19649(16)
C3 C 0.26268(8) 0.0726(4) 0.10022(16)
H6 H 0.2391 0.0774 0.0513
C4 C 0.28532(8) 0.0681(3) 0.26734(16)
H7 H 0.2773 0.0694 0.3329
C5 C 0.30912(8) 0.0666(4) 0.07598(16)
H8 H 0.3173 0.0672 0.0105
C6 C 0.33184(8) 0.0625(3) 0.24322(16)
H9 H 0.3554 0.0605 0.2921
C7 C 0.34355(7) 0.0598(3) 0.14742(16)
C8 C 0.39248(7) 0.0524(3) 0.11736(15)
Co1A Co -0.090315(10) 0.04645(4) 0.09645(2)
Co1C Co 0.409685(10) -0.45355(4) 0.09645(2)
Co1C_2 Co 0.409685(10) 0.54645(4) 0.09645(2)
Co1_2 Co 0.090315(10) 1.04645(4) 0.40355(2)
Co1D Co -0.090315(10) -0.04645(4) 0.59645(2)
Co2A Co 0.008329(10) 0.20276(4) 0.05362(2)
Co2D Co 0.008329(10) -0.20276(4) 0.55362(2)
Co2C Co 0.508329(10) -0.29724(4) 0.05362(2)
Co2G Co 0.491671(10) 0.29724(4) -0.05362(2)
Co2D_2 Co 0.008329(10) 0.79724(4) 0.55362(2)
O1A O -0.02218(5) 0.0423(2) 0.17518(11)
O2A O 0.03617(5) -0.2255(2) 0.20722(11)
O3D O -0.04597(5) -0.0543(2) 0.48181(11)
O3A O -0.04597(5) 0.0543(2) -0.01819(11)
O3E O 0.04597(5) -0.0543(2) 0.01819(11)
H1D H -0.0554 -0.1264 0.4336
H1A H -0.0554 0.1264 -0.0664
H1E H 0.0554 -0.1264 0.0664
O4A O -0.15031(5) 0.0956(3) 0.01314(12)
H2A H -0.1724 0.0811 0.0521
H3A H -0.1592 0.0342 -0.0386
O5A O 0.05558(6) 0.3620(3) 0.14089(12)
H4A H 0.0755 0.2909 0.1735
H5A H 0.0471 0.4668 0.1739
N1C N 0.36192(6) 0.5600(3) 0.20673(14)
N1A N -0.13808(6) 0.0600(3) 0.20673(14)
N2C N 0.37265(7) 0.5902(3) 0.29759(14)
N3C N 0.31549(6) 0.5511(3) 0.19237(14)
N4C N 0.33299(6) 0.5993(3) 0.34576(14)
N5C N 0.08179(6) 0.3798(3) 0.38917(13)
N5B N -0.08179(6) 0.3798(3) 0.11083(13)
N6C N 0.04127(6) 0.4430(3) 0.42437(13)
N6B N -0.04127(6) 0.4430(3) 0.07563(13)
N7C N 0.04257(6) 0.6438(3) 0.43960(13)
N7G N -0.04257(6) 0.3562(3) 0.56040(13)
N7F N 0.04257(6) 0.3562(3) -0.06040(13)
N8C N 0.08410(6) 0.7178(3) 0.41246(13)
N8C_2 N 0.08410(6) -0.2822(3) 0.41246(13)
N8B N -0.08410(6) -0.2822(3) 0.08754(13)
C1C C 0.29889(8) 0.5744(3) 0.27999(16)
C2C C 0.24940(7) 0.5716(3) 0.30351(16)
C3C C 0.23732(8) 0.5726(4) 0.39978(16)
H6C H 0.2609 0.5774 0.4487
C4C C 0.21468(8) 0.5681(3) 0.23266(16)
H7C H 0.2227 0.5694 0.1671
C5C C 0.19088(8) 0.5666(4) 0.42402(16)
H8C H 0.1827 0.5672 0.4895
C6C C 0.16816(8) 0.5625(3) 0.25678(16)
H9C H 0.1446 0.5605 0.2079
C7C C 0.15645(7) 0.5598(3) 0.35258(16)
C8C C 0.10752(7) 0.5524(3) 0.38264(15)
loop_
_geom_bond_atom_site_label_1
_geom_bond_atom_site_label_2
_geom_bond_site_symmetry_1
_geom_bond_site_symmetry_2
Co1 O1 1_555 1_555
Co2 O1 1_555 1_555
S1 O1 1_555 1_555
O2 S1 1_555 1_555
O3 Co1 1_555 1_555
H1 O3 1_555 1_555
O4 Co1 1_555 1_555
H2 O4 1_555 1_555
H3 O4 1_555 1_555
O5 Co2 1_555 1_555
H4 O5 1_555 1_555
H5 O5 1_555 1_555
N1 Co1 1_555 1_555
N2 N1 1_555 1_555
N3 N1 1_555 1_555
N4 N2 1_555 1_555
N5 N6 1_555 1_555
N6 N7 1_555 1_555
N7 N8 1_555 1_555
N8 C8 1_555 1_555
C1 N3 1_555 1_555
C2 C1 1_555 1_555
C3 C2 1_555 1_555
H6 C3 1_555 1_555
C4 C2 1_555 1_555
H7 C4 1_555 1_555
C5 C3 1_555 1_555
H8 C5 1_555 1_555
C6 C4 1_555 1_555
H9 C6 1_555 1_555
C7 C5 1_555 1_555
C8 N5 1_555 1_555
Co1A O1A 1_555 1_555
Co1C N5 1_555 1_555
Co1C_2 N8 1_555 1_555
Co1_2 N8C 1_555 1_555
Co1D O3D 1_555 1_555
Co2A O1A 1_555 1_555
Co2D O3 1_555 1_555
Co2C N6 1_555 1_555
Co2G N7 1_555 1_555
Co2D_2 N7C 1_555 1_555
O1A S1 1_555 1_555
O2A S1 1_555 1_555
O3D Co2 1_555 1_555
O3A Co1A 1_555 1_555
O3E Co2A 1_555 1_555
H1D O3D 1_555 1_555
H1A O3A 1_555 1_555
H1E O3E 1_555 1_555
O4A Co1A 1_555 1_555
H2A O4A 1_555 1_555
H3A O4A 1_555 1_555
O5A Co2A 1_555 1_555
H4A O5A 1_555 1_555
H5A O5A 1_555 1_555
N1C Co1C_2 1_555 1_555
N1A Co1A 1_555 1_555
N2C N1C 1_555 1_555
N3C N1C 1_555 1_555
N4C N2C 1_555 1_555
N5C Co1 1_555 1_555
N5B Co1A 1_555 1_555
N6C Co2 1_555 1_555
N6B Co2A 1_555 1_555
N7C N6C 1_555 1_555
N7G Co2 1_555 1_555
N7F Co2A 1_555 1_555
N8C N7C 1_555 1_555
N8C_2 Co1 1_555 1_555
N8B Co1A 1_555 1_555
C1C N3C 1_555 1_555
C2C C1C 1_555 1_555
C3C C2C 1_555 1_555
H6C C3C 1_555 1_555
C4C C2C 1_555 1_555
H7C C4C 1_555 1_555
C5C C3C 1_555 1_555
H8C C5C 1_555 1_555
C6C C4C 1_555 1_555
H9C C6C 1_555 1_555
C7C C5C 1_555 1_555
C8C N5C 1_555 1_555
Co2 O3 1_555 1_555
N4 C1 1_555 1_555
C6 C7 1_555 1_555
C7 C8 1_555 1_555
Co2A O3A 1_555 1_555
Co2D O3D 1_555 1_555
N4C C1C 1_555 1_555
N5C N6C 1_555 1_555
N5B N6B 1_555 1_555
N8C C8C 1_555 1_555
C6C C7C 1_555 1_555
C7C C8C 1_555 1_555

#END
