
#######################################################################
#
#                 Cambridge Crystallographic Data Centre
#                                CCDC 
#
#######################################################################
#
# If this CIF has been generated from an entry in the Cambridge 
# Structural Database, then it will include bibliographic, chemical, 
# crystal, experimental, refinement or atomic coordinate data resulting 
# from the CCDC's data processing and validation procedures.
#
#######################################################################

data_BAKGAX
_symmetry_cell_setting           orthorhombic
_symmetry_space_group_name_H-M   'P n m a'
_symmetry_Int_Tables_number      62
_space_group_name_Hall           '-P 2ac 2n'
loop_
_symmetry_equiv_pos_site_id
_symmetry_equiv_pos_as_xyz
1 x,y,z
2 1/2-x,-y,1/2+z
3 -x,1/2+y,-z
4 1/2+x,1/2-y,1/2-z
5 -x,-y,-z
6 1/2+x,y,1/2-z
7 x,1/2-y,z
8 1/2-x,1/2+y,1/2+z
_cell_length_a                   7.3246(4)
_cell_length_b                   13.2240(7)
_cell_length_c                   22.7669(12)
_cell_angle_alpha                90
_cell_angle_beta                 90
_cell_angle_gamma                90
_cell_volume                     2205.21
loop_
_atom_site_label
_atom_site_type_symbol
_atom_site_fract_x
_atom_site_fract_y
_atom_site_fract_z
Co1 Co 0.34357(8) -0.7500 0.25854(2)
Co2 Co 0.32688(6) -0.88278(3) 0.389388(17)
S1 S 0.67587(14) -0.7500 0.35208(4)
O1 O 0.2561(4) -0.7500 0.34536(13)
H1 H 0.1397 -0.7500 0.3495
O2 O 0.6050(4) -0.7500 0.28984(12)
O3 O 0.8736(4) -0.7500 0.34439(14)
O4 O 0.6107(3) -0.84088(16) 0.38253(9)
O5 O 0.4122(4) -1.01725(19) 0.42899(13)
H2 H 0.3518 -1.0323 0.4607
H3 H 0.5254 -1.0118 0.4379
O6 O 0.0608(4) -0.9366(2) 0.39740(10)
H4 H -0.0053 -0.9399 0.3664
H5 H -0.0014 -0.9289 0.4290
N1 N 0.3593(4) -0.5934(2) 0.25756(11)
N2 N 0.3448(4) -0.5446(2) 0.30816(11)
N3 N 0.3659(3) -0.5273(2) 0.21343(11)
N4 N 0.3406(4) -0.4450(2) 0.29829(12)
N5 N 0.2231(4) -0.33362(19) 0.02271(11)
N6 N 0.1943(3) -0.30000(19) -0.03168(11)
C1 C 0.3526(4) -0.4373(2) 0.23987(13)
C2 C 0.3415(4) -0.3408(2) 0.20813(13)
C3 C 0.3641(6) -0.2500 0.23785(18)
H8 H 0.3950 -0.2500 0.2784
C4 C 0.2994(4) -0.3409(2) 0.14831(13)
H9 H 0.2834 -0.4031 0.1281
C5 C 0.2808(6) -0.2500 0.11837(18)
C6 C 0.2409(6) -0.2500 0.05478(18)
Co1C Co 0.84357(8) -0.7500 0.24146(2)
Co1_2 Co 0.34357(8) 0.2500 0.25854(2)
Co2F Co 0.32688(6) -0.61722(3) 0.389388(17)
Co2G Co 0.17312(6) -0.38278(3) -0.110612(17)
Co2_2 Co 0.32688(6) 0.11722(3) 0.389388(17)
Co2A Co 0.17312(6) -0.11722(3) -0.110612(17)
O2C O 0.1050(4) -0.7500 0.21016(12)
O3C O 0.3736(4) -0.7500 0.15561(14)
O4F O 0.6107(3) -0.65912(16) 0.38253(9)
O5F O 0.4122(4) -0.48275(19) 0.42899(13)
H2F H 0.3518 -0.4677 0.4607
H3F H 0.5254 -0.4882 0.4379
O6F O 0.0608(4) -0.5634(2) 0.39740(10)
H4F H -0.0053 -0.5601 0.3664
H5F H -0.0014 -0.5711 0.4290
N1F N 0.3593(4) 0.0934(2) 0.25756(11)
N1F_2 N 0.3593(4) -0.9066(2) 0.25756(11)
N2F N 0.3448(4) 0.0446(2) 0.30816(11)
N2F_2 N 0.3448(4) -0.9554(2) 0.30816(11)
N3F N 0.3659(3) 0.0273(2) 0.21343(11)
N4F N 0.3406(4) -0.0550(2) 0.29829(12)
N5F N 0.2231(4) -0.16638(19) 0.02271(11)
N6F N 0.1943(3) -0.20000(19) -0.03168(11)
N6G N 0.3057(3) -0.80000(19) 0.46832(11)
N6A N 0.3057(3) -0.70000(19) 0.46832(11)
C1F C 0.3526(4) -0.0627(2) 0.23987(13)
C2F C 0.3415(4) -0.1592(2) 0.20813(13)
C4F C 0.2994(4) -0.1591(2) 0.14831(13)
H9F H 0.2834 -0.0969 0.1281
O7 O 0.2519(8) 0.7500 0.3938(2)
O8 O 0.2796(5) 0.0447(3) 0.02721(17)
H6? H 0.1533 0.7500 0.3727
H7? H 0.2612 0.8132 0.3992
O9? O 0.2980(8) 0.1314(5) 0.0069(2)
loop_
_geom_bond_atom_site_label_1
_geom_bond_atom_site_label_2
_geom_bond_site_symmetry_1
_geom_bond_site_symmetry_2
Co1 O1 1_555 1_555
Co2 O1 1_555 1_555
S1 O2 1_555 1_555
O1 H1 1_555 1_555
O2 Co1 1_555 1_555
O3 S1 1_555 1_555
O4 Co2 1_555 1_555
O5 Co2 1_555 1_555
H2 O5 1_555 1_555
H3 O5 1_555 1_555
O6 Co2 1_555 1_555
H4 O6 1_555 1_555
H5 O6 1_555 1_555
N1 Co1 1_555 1_555
N2 N1 1_555 1_555
N3 N1 1_555 1_555
N4 N2 1_555 1_555
N5 N6 1_555 1_555
N6 Co2G 1_555 1_555
C1 N3 1_555 1_555
C2 C1 1_555 1_555
C3 C2 1_555 1_555
H8 C3 1_555 1_555
C4 C2 1_555 1_555
H9 C4 1_555 1_555
C5 C4 1_555 1_555
C6 N5 1_555 1_555
Co1C O2 1_555 1_555
Co1_2 N1F 1_555 1_555
Co2F O1 1_555 1_555
Co2_2 N2F 1_555 1_555
Co2A N6F 1_555 1_555
O2C Co1 1_555 1_555
O3C Co1 1_555 1_555
O4F S1 1_555 1_555
O5F Co2F 1_555 1_555
H2F O5F 1_555 1_555
H3F O5F 1_555 1_555
O6F Co2F 1_555 1_555
H4F O6F 1_555 1_555
H5F O6F 1_555 1_555
N1F N2F 1_555 1_555
N1F_2 Co1 1_555 1_555
N2F N4F 1_555 1_555
N2F_2 Co2 1_555 1_555
N3F N1F 1_555 1_555
N4F C1F 1_555 1_555
N5F C6 1_555 1_555
N6F N6 1_555 1_555
N6G Co2 1_555 1_555
N6A Co2F 1_555 1_555
C1F N3F 1_555 1_555
C2F C3 1_555 1_555
C4F C5 1_555 1_555
H9F C4F 1_555 1_555
S1 O4 1_555 1_555
O3 Co1C 1_555 1_555
N2 Co2F 1_555 1_555
N4 C1 1_555 1_555
C5 C6 1_555 1_555
Co2F O4F 1_555 1_555
N1F_2 N2F_2 1_555 1_555
N5F N6F 1_555 1_555
N6G N6A 1_555 1_555
C1F C2F 1_555 1_555
C2F C4F 1_555 1_555

#END
