
#######################################################################
#
#                 Cambridge Crystallographic Data Centre
#                                CCDC 
#
#######################################################################
#
# If this CIF has been generated from an entry in the Cambridge 
# Structural Database, then it will include bibliographic, chemical, 
# crystal, experimental, refinement or atomic coordinate data resulting 
# from the CCDC's data processing and validation procedures.
#
#######################################################################

data_BAKGEB
_symmetry_cell_setting           monoclinic
_symmetry_space_group_name_H-M   'P 21/c'
_symmetry_Int_Tables_number      14
_space_group_name_Hall           '-P 2ybc'
loop_
_symmetry_equiv_pos_site_id
_symmetry_equiv_pos_as_xyz
1 x,y,z
2 -x,1/2+y,1/2-z
3 -x,-y,-z
4 x,1/2-y,1/2+z
_cell_length_a                   14.0142(6)
_cell_length_b                   25.4144(11)
_cell_length_c                   8.7031(4)
_cell_angle_alpha                90
_cell_angle_beta                 100.2400(10)
_cell_angle_gamma                90
_cell_volume                     3050.34
loop_
_atom_site_label
_atom_site_type_symbol
_atom_site_fract_x
_atom_site_fract_y
_atom_site_fract_z
Co1 Co 0.5000 0.5000 1.0000
Co2 Co 0.42511(2) 0.543871(14) 0.64119(4)
Co3 Co 0.53917(3) 0.633276(15) 0.95310(4)
F1 F 0.45507(12) 0.56762(7) 0.87679(19)
O1 O 0.30719(14) 0.59438(8) 0.6001(2)
H1 H 0.2940 0.6005 0.5026
H2 H 0.3182 0.6249 0.6397
O2 O 0.46463(15) 0.63882(8) 1.1459(2)
H3 H 0.4333 0.6666 1.1587
H4 H 0.4911 0.6300 1.2376
O3 O 0.63109(17) 0.69451(10) 1.0272(3)
H5 H 0.6368 0.7038 1.1218
H6 H 0.5935 0.7148 0.9662
N1 N 0.39465(16) 0.46062(9) 0.8486(3)
N2 N 0.36091(17) 0.41529(10) 0.8870(3)
N3 N 0.28048(17) 0.40309(10) 0.7845(3)
N4 N 0.33853(16) 0.47946(9) 0.7177(3)
N5 N -0.40414(16) 0.48991(9) -0.1624(3)
N6 N -0.45069(16) 0.49284(9) -0.3111(3)
N7 N -0.39641(16) 0.47121(9) -0.4014(3)
N8 N -0.31376(17) 0.45343(10) -0.3142(3)
N9 N 0.52722(17) 0.60472(10) 0.6146(3)
N10 N 0.55353(17) 0.61846(10) 0.4832(3)
N11 N 0.63822(18) 0.64449(11) 0.5156(3)
N12 N 0.59408(17) 0.62165(9) 0.7369(3)
N13 N 1.34531(17) 0.81495(10) 1.2622(3)
N14 N 1.43866(18) 0.81025(10) 1.3286(3)
N15 N 1.4664(2) 0.76129(11) 1.3170(4)
N16 N 1.3912(2) 0.73241(11) 1.2458(4)
C1 C 0.26794(19) 0.44308(11) 0.6836(3)
C2 C 0.18419(19) 0.44622(11) 0.5551(3)
C3 C 0.1531(2) 0.49411(12) 0.4867(3)
H9 H 0.1883 0.5253 0.5197
C4 C 0.0716(2) 0.49686(12) 0.3709(4)
H10 H 0.0519 0.5299 0.3252
C5 C 0.1310(2) 0.40101(12) 0.5055(3)
H11 H 0.1505 0.3680 0.5518
C6 C 0.0495(2) 0.40406(12) 0.3886(4)
H12 H 0.0148 0.3728 0.3548
C7 C 0.0175(2) 0.45177(12) 0.3199(3)
C8 C -0.0716(2) 0.45525(12) 0.1980(3)
C9 C -0.0883(3) 0.49863(13) 0.0991(4)
H13 H -0.0431 0.5269 0.1117
C10 C -0.1698(3) 0.50131(13) -0.0174(4)
H14 H -0.1788 0.5309 -0.0853
C11 C -0.1415(2) 0.41640(14) 0.1791(4)
H15 H -0.1329 0.3867 0.2466
C12 C -0.2244(2) 0.41939(14) 0.0637(4)
H16 H -0.2716 0.3922 0.0542
C13 C -0.23775(19) 0.46152(12) -0.0357(3)
C14 C -0.32022(19) 0.46658(11) -0.1682(3)
C15 C 0.6621(2) 0.64540(12) 0.6714(3)
C16 C 0.7548(2) 0.66626(12) 0.7557(3)
C17 C 0.8036(2) 0.70622(12) 0.6909(4)
H17 H 0.7755 0.7213 0.5934
C18 C 0.8929(2) 0.72398(12) 0.7686(4)
H18 H 0.9250 0.7516 0.7247
C19 C 0.7967(2) 0.64481(12) 0.8982(4)
H19 H 0.7636 0.6179 0.9436
C20 C 0.8864(2) 0.66210(13) 0.9751(4)
H20 H 0.9142 0.6469 1.0725
C21 C 0.9361(2) 0.70168(12) 0.9109(4)
C22 C 1.0338(2) 0.71920(12) 0.9897(4)
C23 C 1.0990(2) 0.68321(13) 1.0711(4)
H21 H 1.0802 0.6475 1.0773
C24 C 1.1910(2) 0.69879(14) 1.1432(4)
H22 H 1.2345 0.6736 1.1972
C25 C 1.0635(2) 0.77136(13) 0.9842(4)
H23 H 1.0204 0.7965 0.9289
C26 C 1.1549(2) 0.78712(12) 1.0579(4)
H24 H 1.1731 0.8230 1.0541
C27 C 1.2201(2) 0.75098(12) 1.1372(4)
C28 C 1.3181(2) 0.76657(12) 1.2140(4)
Co1_2 Co -0.5000 0.5000 0.0000
Co1_3 Co 1.5000 0.5000 2.0000
Co2B Co 0.57489(2) 0.456129(14) 1.35881(4)
Co2_2 Co -0.57489(2) 0.543871(14) -0.35881(4)
Co2B_2 Co -0.42511(2) 0.456129(14) -0.64119(4)
Co2_3 Co 1.42511(2) 0.543871(14) 1.64119(4)
Co2B_3 Co 0.57489(2) 0.456129(14) 0.35881(4)
Co2C Co -0.57489(2) 0.956129(14) 0.14119(4)
Co3B Co 0.46083(3) 0.366724(15) 1.04690(4)
Co3C Co 1.53917(3) 0.866724(15) 1.45310(4)
Co3B_2 Co 1.46083(3) 0.366724(15) 2.04690(4)
Co3C_2 Co -0.46083(3) 0.866724(15) 0.45310(4)
F1B F 0.54493(12) 0.43238(7) 1.12321(19)
O1B O 0.69281(14) 0.40562(8) 1.3999(2)
H1B H 0.7060 0.3995 1.4974
H2B H 0.6818 0.3751 1.3603
O2B O 0.53537(15) 0.36118(8) 0.8541(2)
H3B H 0.5667 0.3334 0.8413
H4B H 0.5089 0.3700 0.7624
O3B O 0.36891(17) 0.30549(10) 0.9728(3)
H5B H 0.3632 0.2962 0.8782
H6B H 0.4065 0.2852 1.0338
N1_2 N 1.39465(16) 0.46062(9) 1.8486(3)
N1B N 0.60535(16) 0.53938(9) 1.1514(3)
N2_2 N 1.36091(17) 0.41529(10) 1.8870(3)
N2B N 0.63909(17) 0.58471(10) 1.1130(3)
N3_2 N 1.28048(17) 0.40309(10) 1.7845(3)
N4_2 N 1.33853(16) 0.47946(9) 1.7177(3)
N4B N 0.66147(16) 0.52054(9) 1.2823(3)
N5_2 N 0.59586(16) 0.48991(9) 0.8376(3)
N5B N 0.40414(16) 0.51009(9) 1.1624(3)
N6_2 N 0.54931(16) 0.49284(9) 0.6889(3)
N6B N 0.45069(16) 0.50716(9) 1.3111(3)
N7_2 N 0.60359(16) 0.47121(9) 0.5986(3)
N7B N 0.39641(16) 0.52879(9) 0.4014(3)
N7_3 N 0.60359(16) 0.47121(9) 1.5986(3)
N8_2 N 0.68624(17) 0.45343(10) 0.6858(3)
N9C N -0.47278(17) 0.89528(10) 0.1146(3)
N9B N 0.47278(17) 0.39528(10) 1.3854(3)
N10C N -0.44647(17) 0.88154(10) -0.0168(3)
N11C N -0.36178(18) 0.85551(11) 0.0156(3)
N12C N -0.40592(17) 0.87835(9) 0.2369(3)
N12B N 0.40592(17) 0.37835(9) 1.2631(3)
N13C N 0.34531(17) 0.68505(10) 0.7622(3)
N14C N 0.43866(18) 0.68975(10) 0.8286(3)
N14A N 0.56134(18) 0.31025(10) 1.1714(3)
N15C N 0.4664(2) 0.73871(11) 0.8170(4)
N16C N 0.3912(2) 0.76759(11) 0.7458(4)
C1_2 C 1.26794(19) 0.44308(11) 1.6836(3)
C2_2 C 1.18419(19) 0.44622(11) 1.5551(3)
C3_2 C 1.1531(2) 0.49411(12) 1.4867(3)
H9_2 H 1.1883 0.5253 1.5197
C4_2 C 1.0716(2) 0.49686(12) 1.3709(4)
H10_2 H 1.0519 0.5299 1.3252
C5_2 C 1.1310(2) 0.40101(12) 1.5055(3)
H11_2 H 1.1505 0.3680 1.5518
C6_2 C 1.0495(2) 0.40406(12) 1.3886(4)
H12_2 H 1.0148 0.3728 1.3548
C7_2 C 1.0175(2) 0.45177(12) 1.3199(3)
C8_2 C 0.9284(2) 0.45525(12) 1.1980(3)
C9_2 C 0.9117(3) 0.49863(13) 1.0991(4)
H13_2 H 0.9569 0.5269 1.1117
C10_2 C 0.8302(3) 0.50131(13) 0.9826(4)
H14_2 H 0.8212 0.5309 0.9147
C11_2 C 0.8585(2) 0.41640(14) 1.1791(4)
H15_2 H 0.8671 0.3867 1.2466
C12_2 C 0.7756(2) 0.41939(14) 1.0637(4)
H16_2 H 0.7284 0.3922 1.0542
C13_2 C 0.76225(19) 0.46152(12) 0.9643(3)
C14_2 C 0.67978(19) 0.46658(11) 0.8318(3)
C15C C -0.3379(2) 0.85460(12) 0.1714(3)
C16C C -0.2452(2) 0.83374(12) 0.2557(3)
C17C C -0.1964(2) 0.79378(12) 0.1909(4)
H17C H -0.2245 0.7787 0.0934
C18C C -0.1071(2) 0.77602(12) 0.2686(4)
H18C H -0.0750 0.7484 0.2247
C19C C -0.2033(2) 0.85519(12) 0.3982(4)
H19C H -0.2364 0.8821 0.4436
C20C C -0.1136(2) 0.83790(13) 0.4751(4)
H20C H -0.0858 0.8531 0.5725
C21C C -0.0639(2) 0.79832(12) 0.4109(4)
C22C C 0.0338(2) 0.78080(12) 0.4897(4)
C23C C 0.0990(2) 0.81679(13) 0.5711(4)
H21C H 0.0802 0.8525 0.5773
C24C C 0.1910(2) 0.80121(14) 0.6432(4)
H22C H 0.2345 0.8264 0.6972
C25C C 0.0635(2) 0.72864(13) 0.4842(4)
H23C H 0.0204 0.7035 0.4289
C26C C 0.1549(2) 0.71288(12) 0.5579(4)
H24C H 0.1731 0.6770 0.5541
C27C C 0.2201(2) 0.74902(12) 0.6372(4)
C28C C 0.3181(2) 0.73343(12) 0.7140(4)
O4 O 0.6532(2) 0.72414(13) 0.3174(4)
H7 H 0.5949 0.7359 0.3111
H8 H 0.6540 0.6960 0.3723
loop_
_geom_bond_atom_site_label_1
_geom_bond_atom_site_label_2
_geom_bond_site_symmetry_1
_geom_bond_site_symmetry_2
Co1 F1 1_555 1_555
Co2 F1 1_555 1_555
Co3 F1 1_555 1_555
O1 Co2 1_555 1_555
H1 O1 1_555 1_555
H2 O1 1_555 1_555
O2 Co3 1_555 1_555
H3 O2 1_555 1_555
H4 O2 1_555 1_555
O3 Co3 1_555 1_555
H5 O3 1_555 1_555
H6 O3 1_555 1_555
O4 H7 1_555 1_555
H8 O4 1_555 1_555
N1 Co1 1_555 1_555
N2 N1 1_555 1_555
N3 N2 1_555 1_555
N4 Co2 1_555 1_555
N5 N6 1_555 1_555
N6 N7 1_555 1_555
N7 N8 1_555 1_555
N8 C14 1_555 1_555
N9 Co2 1_555 1_555
N10 N9 1_555 1_555
N11 N10 1_555 1_555
N12 Co3 1_555 1_555
N13 N14 1_555 1_555
N14 N15 1_555 1_555
N15 N16 1_555 1_555
N16 C28 1_555 1_555
C1 N3 1_555 1_555
C2 C1 1_555 1_555
C3 C2 1_555 1_555
H9 C3 1_555 1_555
C4 C3 1_555 1_555
H10 C4 1_555 1_555
C5 C2 1_555 1_555
H11 C5 1_555 1_555
C6 C5 1_555 1_555
H12 C6 1_555 1_555
C7 C4 1_555 1_555
C8 C7 1_555 1_555
C9 C8 1_555 1_555
H13 C9 1_555 1_555
C10 C9 1_555 1_555
H14 C10 1_555 1_555
C11 C8 1_555 1_555
H15 C11 1_555 1_555
C12 C11 1_555 1_555
H16 C12 1_555 1_555
C13 C10 1_555 1_555
C14 N5 1_555 1_555
C15 N11 1_555 1_555
C16 C15 1_555 1_555
C17 C16 1_555 1_555
H17 C17 1_555 1_555
C18 C17 1_555 1_555
H18 C18 1_555 1_555
C19 C16 1_555 1_555
H19 C19 1_555 1_555
C20 C19 1_555 1_555
H20 C20 1_555 1_555
C21 C18 1_555 1_555
C22 C21 1_555 1_555
C23 C22 1_555 1_555
H21 C23 1_555 1_555
C24 C23 1_555 1_555
H22 C24 1_555 1_555
C25 C22 1_555 1_555
H23 C25 1_555 1_555
C26 C25 1_555 1_555
H24 C26 1_555 1_555
C27 C24 1_555 1_555
C28 N13 1_555 1_555
Co1_2 N5 1_555 1_555
Co1_3 N1_2 1_555 1_555
Co2B F1B 1_555 1_555
Co2_2 N6 1_555 1_555
Co2B_2 N7 1_555 1_555
Co2_3 N4_2 1_555 1_555
Co2B_3 N7_2 1_555 1_555
Co2C N9C 1_555 1_555
Co3B N2 1_555 1_555
Co3C N14 1_555 1_555
Co3B_2 N2_2 1_555 1_555
Co3C_2 N12C 1_555 1_555
F1B Co1 1_555 1_555
O1B Co2B 1_555 1_555
H1B O1B 1_555 1_555
H2B O1B 1_555 1_555
O2B Co3B 1_555 1_555
H3B O2B 1_555 1_555
H4B O2B 1_555 1_555
O3B Co3B 1_555 1_555
H5B O3B 1_555 1_555
H6B O3B 1_555 1_555
N1_2 N2_2 1_555 1_555
N1B Co1 1_555 1_555
N2_2 N3_2 1_555 1_555
N2B Co3 1_555 1_555
N3_2 C1_2 1_555 1_555
N4_2 N1_2 1_555 1_555
N4B Co2B 1_555 1_555
N5_2 Co1 1_555 1_555
N5B Co1 1_555 1_555
N6_2 Co2 1_555 1_555
N6B Co2B 1_555 1_555
N7_2 N6_2 1_555 1_555
N7B Co2 1_555 1_555
N7_3 Co2B 1_555 1_555
N8_2 N7_2 1_555 1_555
N9C N10C 1_555 1_555
N9B Co2B 1_555 1_555
N10C N11C 1_555 1_555
N11C C15C 1_555 1_555
N12C N9C 1_555 1_555
N12B Co3B 1_555 1_555
N13C N14C 1_555 1_555
N14C Co3 1_555 1_555
N14A Co3B 1_555 1_555
N15C N14C 1_555 1_555
N16C N15C 1_555 1_555
C1_2 N4_2 1_555 1_555
C2_2 C1_2 1_555 1_555
C3_2 C2_2 1_555 1_555
H9_2 C3_2 1_555 1_555
C4_2 C3_2 1_555 1_555
H10_2 C4_2 1_555 1_555
C5_2 C2_2 1_555 1_555
H11_2 C5_2 1_555 1_555
C6_2 C5_2 1_555 1_555
H12_2 C6_2 1_555 1_555
C7_2 C4_2 1_555 1_555
C8_2 C7_2 1_555 1_555
C9_2 C8_2 1_555 1_555
H13_2 C9_2 1_555 1_555
C10_2 C9_2 1_555 1_555
H14_2 C10_2 1_555 1_555
C11_2 C8_2 1_555 1_555
H15_2 C11_2 1_555 1_555
C12_2 C11_2 1_555 1_555
H16_2 C12_2 1_555 1_555
C13_2 C10_2 1_555 1_555
C14_2 N5_2 1_555 1_555
C15C N12C 1_555 1_555
C16C C15C 1_555 1_555
C17C C16C 1_555 1_555
H17C C17C 1_555 1_555
C18C C17C 1_555 1_555
H18C C18C 1_555 1_555
C19C C16C 1_555 1_555
H19C C19C 1_555 1_555
C20C C19C 1_555 1_555
H20C C20C 1_555 1_555
C21C C18C 1_555 1_555
C22C C21C 1_555 1_555
C23C C22C 1_555 1_555
H21C C23C 1_555 1_555
C24C C23C 1_555 1_555
H22C C24C 1_555 1_555
C25C C22C 1_555 1_555
H23C C25C 1_555 1_555
C26C C25C 1_555 1_555
H24C C26C 1_555 1_555
C27C C24C 1_555 1_555
C28C N13C 1_555 1_555
N1 N4 1_555 1_555
N4 C1 1_555 1_555
N9 N12 1_555 1_555
N12 C15 1_555 1_555
C6 C7 1_555 1_555
C12 C13 1_555 1_555
C13 C14 1_555 1_555
C20 C21 1_555 1_555
C26 C27 1_555 1_555
C27 C28 1_555 1_555
Co3B F1B 1_555 1_555
N1B N2B 1_555 1_555
N1B N4B 1_555 1_555
N5_2 N6_2 1_555 1_555
N5B N6B 1_555 1_555
N8_2 C14_2 1_555 1_555
N9B N12B 1_555 1_555
N16C C28C 1_555 1_555
C6_2 C7_2 1_555 1_555
C12_2 C13_2 1_555 1_555
C13_2 C14_2 1_555 1_555
C20C C21C 1_555 1_555
C26C C27C 1_555 1_555
C27C C28C 1_555 1_555

#END
