
#######################################################################
#
#                 Cambridge Crystallographic Data Centre
#                                CCDC 
#
#######################################################################
#
# If this CIF has been generated from an entry in the Cambridge 
# Structural Database, then it will include bibliographic, chemical, 
# crystal, experimental, refinement or atomic coordinate data resulting 
# from the CCDC's data processing and validation procedures.
#
#######################################################################

data_BAKJAZ01
_symmetry_cell_setting           monoclinic
_symmetry_space_group_name_H-M   'P 2/c'
_symmetry_Int_Tables_number      13
_space_group_name_Hall           '-P 2yc'
loop_
_symmetry_equiv_pos_site_id
_symmetry_equiv_pos_as_xyz
1 x,y,z
2 -x,y,1/2-z
3 -x,-y,-z
4 x,-y,1/2+z
_cell_length_a                   8.3582(3)
_cell_length_b                   10.4246(4)
_cell_length_c                   18.7777(7)
_cell_angle_alpha                90
_cell_angle_beta                 100.314(2)
_cell_angle_gamma                90
_cell_volume                     1609.68
loop_
_atom_site_label
_atom_site_type_symbol
_atom_site_fract_x
_atom_site_fract_y
_atom_site_fract_z
Mn1 Mn 0.1366(1) 0.6748(1) -0.3274(1)
C1 C 0.3431(6) 0.8585(5) -0.2054(3)
C2 C 0.4031(7) 0.9735(6) -0.1735(3)
C3 C 0.3445(8) 1.0860(6) -0.2025(3)
C4 C 0.2247(7) 1.0877(5) -0.2650(3)
C5 C 0.1575(9) 1.2024(6) -0.3014(4)
C6 C 0.0398(9) 1.1964(6) -0.3604(4)
C7 C -0.0221(7) 1.0767(5) -0.3907(3)
C8 C -0.1459(7) 1.0640(7) -0.4518(3)
C9 C -0.1955(7) 0.9454(7) -0.4765(3)
C10 C -0.1194(6) 0.8389(6) -0.4429(3)
C11 C 0.0447(6) 0.9631(4) -0.3585(3)
C12 C 0.1700(6) 0.9683(4) -0.2945(3)
C13 C -0.2180(6) 0.5453(4) -0.3118(2)
C14 C -0.3129(5) 0.4675(4) -0.3713(2)
C15 C -0.4632(5) 0.4150(4) -0.3651(2)
C16 C -0.5503(6) 0.3433(4) -0.4206(2)
C17 C -0.4870(6) 0.3230(4) -0.4834(2)
C18 C -0.3399(5) 0.3764(4) -0.4916(2)
C19 C -0.2537(5) 0.4488(4) -0.4356(2)
C20 C -0.2754(6) 0.3565(4) -0.5602(2)
O1 O -0.1009(4) 0.6094(3) -0.3258(2)
O2 O -0.2620(4) 0.5463(3) -0.2511(2)
O3 O -0.1507(4) 0.4181(3) -0.5695(2)
O4 O -0.3440(4) 0.2785(4) -0.6060(2)
N1 N -0.0020(5) 0.8460(4) -0.3851(2)
N2 N 0.2285(5) 0.8547(4) -0.2642(2)
Mn1A Mn -0.1366(1) 0.6748(1) -0.1726(1)
Mn1B Mn -0.1366(1) 0.3252(1) -0.6726(1)
O2A O 0.2620(4) 0.5463(3) -0.2489(2)
O3B O 0.1507(4) 0.5819(3) -0.4305(2)
O4B O 0.3440(4) 0.7215(4) -0.3940(2)
loop_
_geom_bond_atom_site_label_1
_geom_bond_atom_site_label_2
_geom_bond_site_symmetry_1
_geom_bond_site_symmetry_2
Mn1 O1 1_555 1_555
C1 C2 1_555 1_555
C2 C3 1_555 1_555
C3 C4 1_555 1_555
C4 C5 1_555 1_555
C5 C6 1_555 1_555
C6 C7 1_555 1_555
C7 C8 1_555 1_555
C8 C9 1_555 1_555
C9 C10 1_555 1_555
C10 N1 1_555 1_555
C11 C7 1_555 1_555
C12 C4 1_555 1_555
C13 C14 1_555 1_555
C14 C15 1_555 1_555
C15 C16 1_555 1_555
C16 C17 1_555 1_555
C17 C18 1_555 1_555
C18 C19 1_555 1_555
C19 C14 1_555 1_555
C20 C18 1_555 1_555
O1 C13 1_555 1_555
O2 C13 1_555 1_555
O3 C20 1_555 1_555
O4 C20 1_555 1_555
N1 Mn1 1_555 1_555
N2 Mn1 1_555 1_555
Mn1A O2 1_555 1_555
Mn1B O3 1_555 1_555
O2A Mn1 1_555 1_555
O3B Mn1 1_555 1_555
O4B Mn1 1_555 1_555
C1 N2 1_555 1_555
C11 C12 1_555 1_555
C11 N1 1_555 1_555
C12 N2 1_555 1_555
O4 Mn1B 1_555 1_555

#END
