
#######################################################################
#
#                 Cambridge Crystallographic Data Centre
#                                CCDC 
#
#######################################################################
#
# If this CIF has been generated from an entry in the Cambridge 
# Structural Database, then it will include bibliographic, chemical, 
# crystal, experimental, refinement or atomic coordinate data resulting 
# from the CCDC's data processing and validation procedures.
#
#######################################################################

data_BAKJAZ02
_symmetry_cell_setting           monoclinic
_symmetry_space_group_name_H-M   'P 2/c'
_symmetry_Int_Tables_number      13
_space_group_name_Hall           '-P 2yc'
loop_
_symmetry_equiv_pos_site_id
_symmetry_equiv_pos_as_xyz
1 x,y,z
2 -x,y,1/2-z
3 -x,-y,-z
4 x,-y,1/2+z
_cell_length_a                   8.3484(13)
_cell_length_b                   10.4276(15)
_cell_length_c                   18.790(3)
_cell_angle_alpha                90
_cell_angle_beta                 100.325(2)
_cell_angle_gamma                90
_cell_volume                     1609.25
loop_
_atom_site_label
_atom_site_type_symbol
_atom_site_fract_x
_atom_site_fract_y
_atom_site_fract_z
Mn1 Mn 0.36311(6) 0.67463(4) 0.82748(2)
O1 O 0.3495(3) 0.5820(2) 0.93048(11)
O2 O 0.1566(3) 0.7211(2) 0.89403(11)
O3 O 0.3988(3) 0.3906(2) 1.17448(11)
O4 O 0.2380(3) 0.4542(2) 1.24883(11)
N1 N 0.5020(3) 0.8459(2) 0.88533(13)
N2 N 0.2711(3) 0.8550(2) 0.76442(13)
C1 C 0.2248(4) 0.6437(3) 0.93986(16)
C2 C 0.1600(4) 0.6235(3) 1.00877(15)
C3 C 0.2469(4) 0.5512(3) 1.06468(15)
H1 H 0.3459 0.5148 1.0596
C4 C 0.1866(4) 0.5328(3) 1.12850(15)
C5 C 0.0366(4) 0.5848(3) 1.13511(16)
H2 H -0.0054 0.5711 1.1771
C6 C -0.0504(4) 0.6568(3) 1.07931(16)
H3 H -0.1507 0.6915 1.0837
C7 C 0.0126(4) 0.6769(3) 1.01692(16)
H4 H -0.0449 0.7270 0.9800
C8 C 0.2820(4) 0.4541(3) 1.18827(16)
C9 C 0.6195(4) 0.8394(3) 0.94285(18)
H5 H 0.6531 0.7589 0.9610
C10 C 0.6947(5) 0.9465(4) 0.9773(2)
H6 H 0.7773 0.9379 1.0174
C11 C 0.6453(5) 1.0647(4) 0.9513(2)
H7 H 0.6943 1.1376 0.9740
C12 C 0.5211(5) 1.0773(3) 0.8905(2)
C13 C 0.4594(6) 1.1969(4) 0.8609(3)
H8 H 0.5004 1.2727 0.8831
C14 C 0.3425(6) 1.2020(3) 0.8012(3)
H9 H 0.3048 1.2814 0.7829
C15 C 0.2755(5) 1.0878(3) 0.76555(19)
C16 C 0.1560(5) 1.0861(4) 0.7029(2)
H10 H 0.1168 1.1631 0.6815
C17 C 0.0965(5) 0.9730(4) 0.67287(19)
H11 H 0.0173 0.9721 0.6312
C18 C 0.1565(4) 0.8587(3) 0.70571(17)
H12 H 0.1142 0.7817 0.6856
C19 C 0.3306(4) 0.9681(3) 0.79476(17)
C20 C 0.4542(4) 0.9632(3) 0.85817(16)
Mn1B Mn 0.63689(6) 0.32537(4) 1.17252(2)
Mn1C Mn 0.36311(6) 0.32537(4) 1.32748(2)
O3B O 0.6012(3) 0.6094(2) 0.82552(11)
O4C O 0.2380(3) 0.5458(2) 0.74883(11)
loop_
_geom_bond_atom_site_label_1
_geom_bond_atom_site_label_2
_geom_bond_site_symmetry_1
_geom_bond_site_symmetry_2
Mn1 O1 1_555 1_555
O1 C1 1_555 1_555
O2 Mn1 1_555 1_555
O3 C8 1_555 1_555
O4 C8 1_555 1_555
N1 Mn1 1_555 1_555
N2 Mn1 1_555 1_555
C1 O2 1_555 1_555
C2 C1 1_555 1_555
C3 C2 1_555 1_555
H1 C3 1_555 1_555
C4 C3 1_555 1_555
C5 C4 1_555 1_555
H2 C5 1_555 1_555
C6 C5 1_555 1_555
H3 C6 1_555 1_555
C7 C2 1_555 1_555
H4 C7 1_555 1_555
C8 C4 1_555 1_555
C9 N1 1_555 1_555
H5 C9 1_555 1_555
C10 C9 1_555 1_555
H6 C10 1_555 1_555
C11 C10 1_555 1_555
H7 C11 1_555 1_555
C12 C11 1_555 1_555
C13 C12 1_555 1_555
H8 C13 1_555 1_555
C14 C13 1_555 1_555
H9 C14 1_555 1_555
C15 C14 1_555 1_555
C16 C15 1_555 1_555
H10 C16 1_555 1_555
C17 C16 1_555 1_555
H11 C17 1_555 1_555
C18 N2 1_555 1_555
H12 C18 1_555 1_555
C19 N2 1_555 1_555
C20 N1 1_555 1_555
Mn1B O3 1_555 1_555
Mn1C O4 1_555 1_555
O3B Mn1 1_555 1_555
O4C Mn1 1_555 1_555
C6 C7 1_555 1_555
C12 C20 1_555 1_555
C15 C19 1_555 1_555
C17 C18 1_555 1_555
C19 C20 1_555 1_555

#END
