
#######################################################################
#
#                 Cambridge Crystallographic Data Centre
#                                CCDC 
#
#######################################################################
#
# If this CIF has been generated from an entry in the Cambridge 
# Structural Database, then it will include bibliographic, chemical, 
# crystal, experimental, refinement or atomic coordinate data resulting 
# from the CCDC's data processing and validation procedures.
#
#######################################################################

data_BAKJUU
_symmetry_cell_setting           triclinic
_symmetry_space_group_name_H-M   'P -1'
_symmetry_Int_Tables_number      2
_space_group_name_Hall           '-P 1'
loop_
_symmetry_equiv_pos_site_id
_symmetry_equiv_pos_as_xyz
1 x,y,z
2 -x,-y,-z
_cell_length_a                   13.0468(3)
_cell_length_b                   13.4872(3)
_cell_length_c                   14.3727(3)
_cell_angle_alpha                102.579(2)
_cell_angle_beta                 109.1230(10)
_cell_angle_gamma                90.039(2)
_cell_volume                     2325.05
loop_
_atom_site_label
_atom_site_type_symbol
_atom_site_fract_x
_atom_site_fract_y
_atom_site_fract_z
W1 W 0.67247(3) 0.02740(2) 0.39537(3)
W2 W 0.83546(3) 0.57966(2) 0.62710(3)
Cu1 Cu 1.05503(9) 0.25410(8) 0.63095(9)
Cu2 Cu 0.53417(9) 0.31556(8) 0.62548(8)
Cu3 Cu 0.22502(11) 0.03669(9) 0.23523(9)
Cu4 Cu 0.72607(10) 0.34530(8) 0.25528(9)
C1 C 0.5848(8) -0.1176(7) 0.3689(7)
N1 N 0.5391(7) -0.1946(6) 0.3577(7)
C2 C 0.7946(7) -0.0788(7) 0.3942(7)
N2 N 0.8564(7) -0.1384(6) 0.3891(7)
C3 C 0.8243(7) 0.1149(7) 0.4873(8)
N3 N 0.9027(7) 0.1623(7) 0.5353(8)
C4 C 0.6199(7) 0.1504(7) 0.4884(6)
N4 N 0.5938(7) 0.2173(6) 0.5383(7)
N5 N 0.4152(7) 0.0501(7) 0.2683(7)
C5 C 0.5037(8) 0.0446(7) 0.3127(7)
C6 C 0.6886(8) 0.1541(7) 0.3311(7)
N6 N 0.7025(7) 0.2234(6) 0.3018(7)
C7 C 0.6622(8) -0.0346(8) 0.2415(8)
N7 N 0.6590(10) -0.0656(8) 0.1586(7)
C8 C 0.7123(8) -0.0076(7) 0.5449(7)
N8 N 0.7359(7) -0.0211(6) 0.6232(7)
C9 C 0.9304(7) 0.4493(7) 0.6475(7)
N9 N 0.9802(7) 0.3812(6) 0.6553(7)
C10 C 0.7945(8) 0.4761(6) 0.4784(7)
N10 N 0.7704(8) 0.4294(6) 0.3974(7)
C11 C 1.1189(8) 0.3421(7) 0.4720(7)
N11 N 1.0938(7) 0.3055(6) 0.5265(7)
C12 C 0.1849(8) 0.2653(6) 0.3067(7)
N12 N 0.2017(7) 0.1831(6) 0.2763(6)
C13 C 0.8621(9) 0.5831(7) 0.7835(8)
N13 N 0.8781(10) 0.5862(9) 0.8681(8)
C14 C 0.9988(7) 0.3584(7) 0.2990(8)
N14 N 0.9093(8) 0.3278(8) 0.2656(8)
C15 C 0.7144(7) 0.4742(7) 0.6343(7)
N15 N 0.6494(6) 0.4202(6) 0.6390(7)
C16 C 0.3182(7) 0.3783(7) 0.4625(7)
N16 N 0.4001(7) 0.3563(7) 0.5111(7)
O1 O 1.0542(10) 0.2257(7) 0.7568(7)
H1 H 1.0738 0.2743 0.8094
H2 H 1.0428 0.1652 0.7614
O2 O 0.4934(7) 0.3998(5) 0.7348(6)
H3 H 0.5012 0.4662 0.7529
H4 H 0.4376 0.3715 0.753
N17 N 0.1893(7) -0.1124(6) 0.1718(7)
C17 C 0.1453(10) -0.1297(9) 0.0703(8)
C18 C 0.1064(11) -0.2265(10) 0.0128(10)
H5 H 0.074 -0.2368 -0.057
C19 C 0.1148(12) -0.3070(10) 0.0571(11)
H6 H 0.0886 -0.3723 0.0182
C20 C 0.1621(12) -0.2902(10) 0.1592(11)
H7 H 0.1707 -0.3436 0.1919
C21 C 0.1970(10) -0.1915(8) 0.2127(11)
H8 H 0.2283 -0.18 0.2827
C22 C 0.1413(10) -0.0363(9) 0.0292(9)
O3 O 0.1787(8) 0.0470(6) 0.0964(6)
O4 O 0.1056(11) -0.0454(8) -0.0633(7)
N18 N 0.6705(7) 0.2709(7) 0.1105(6)
C23 C 0.6592(9) 0.3329(9) 0.0483(8)
C24 C 0.6213(12) 0.2968(12) -0.0553(10)
H9 H 0.6152 0.3411 -0.0979
C25 C 0.5925(12) 0.1937(13) -0.0951(10)
H10 H 0.5637 0.1681 -0.1647
C26 C 0.6068(11) 0.1309(12) -0.0315(10)
H11 H 0.5913 0.061 -0.0569
C27 C 0.6448(10) 0.1711(9) 0.0722(9)
H12 H 0.6525 0.1278 0.1159
C28 C 0.6937(11) 0.4417(10) 0.0994(11)
O5 O 0.7230(7) 0.4627(5) 0.1948(6)
O6 O 0.6921(11) 0.5052(9) 0.0492(9)
O7 O 0.5239(9) 0.3970(7) 0.2452(9)
H13 H 0.4868 0.3795 0.1826
C29 C 0.4735(15) 0.3466(14) 0.2959(18)
H14 H 0.4986 0.3793 0.3667
H15 H 0.4911 0.2769 0.2874
H16 H 0.396 0.3491 0.2685
W2A W 1.16454(3) 0.42034(2) 0.37290(3)
W2A_2 W 0.16454(3) 0.42034(2) 0.37290(3)
Cu1A Cu 0.94497(9) -0.25410(8) 0.36905(9)
Cu2A Cu 0.46583(9) -0.31556(8) 0.37452(8)
Cu3A Cu 0.77498(11) -0.03669(9) 0.76477(9)
N1A N 0.4609(7) 0.1946(6) 0.6423(7)
N2A N 1.1436(7) 0.1384(6) 0.6109(7)
N8A N 0.2641(7) 0.0211(6) 0.3768(7)
C11A C 0.8811(8) 0.6579(7) 0.5280(7)
C12A C 0.8151(8) 0.7347(6) 0.6933(7)
C14A C 1.0012(7) 0.6416(7) 0.7010(8)
C16A C 0.6818(7) 0.6217(7) 0.5375(7)
O8 O 0.0154(13) 0.0282(10) -0.2287(9)
H17 H 0.0395 0.0179 -0.1732
C30 C 0.0291(14) -0.0525(11) -0.3009(13)
H18 H 0.0849 -0.0328 -0.3247
H19 H -0.038 -0.0706 -0.3565
H20 H 0.0498 -0.1099 -0.2713
O9 O 0.4091(13) 0.3428(12) 0.0523(13)
H21 H 0.3579 0.3021 0.0498
H22 H 0.3833 0.3762 0.0071
O10 O 0.290(3) 0.1712(13) 0.0154(17)
H23 H 0.2566 0.1335 0.0392
H24 H 0.3047 0.1392 -0.0364
O11 O 0.6874(17) 0.6711(11) 0.2355(16)
H25 H 0.6995 0.6008 0.2216
H26 H 0.7089 0.717 0.2123
O12 O 1.1143(13) 0.3772(14) 0.9212(9)
H27 H 1.124 0.3799 0.9832
H28 H 1.1522 0.4272 0.9185
loop_
_geom_bond_atom_site_label_1
_geom_bond_atom_site_label_2
_geom_bond_site_symmetry_1
_geom_bond_site_symmetry_2
W1 C1 1_555 1_555
W2 C9 1_555 1_555
Cu1 N3 1_555 1_555
Cu2 N4 1_555 1_555
Cu3 N5 1_555 1_555
Cu4 N6 1_555 1_555
C1 N1 1_555 1_555
N1 Cu2A 1_555 1_555
C2 W1 1_555 1_555
N2 C2 1_555 1_555
C3 W1 1_555 1_555
N3 C3 1_555 1_555
C4 W1 1_555 1_555
N4 C4 1_555 1_555
N5 C5 1_555 1_555
C5 W1 1_555 1_555
C6 W1 1_555 1_555
N6 C6 1_555 1_555
C7 W1 1_555 1_555
N7 C7 1_555 1_555
C8 W1 1_555 1_555
N8 C8 1_555 1_555
C9 N9 1_555 1_555
N9 Cu1 1_555 1_555
C10 W2 1_555 1_555
N10 Cu4 1_555 1_555
C11 N11 1_555 1_555
N11 Cu1 1_555 1_555
C12 N12 1_555 1_555
N12 Cu3 1_555 1_555
C13 W2 1_555 1_555
N13 C13 1_555 1_555
C14 N14 1_555 1_555
N14 Cu4 1_555 1_555
C15 W2 1_555 1_555
N15 Cu2 1_555 1_555
C16 N16 1_555 1_555
N16 Cu2 1_555 1_555
O1 Cu1 1_555 1_555
H1 O1 1_555 1_555
H2 O1 1_555 1_555
O2 Cu2 1_555 1_555
H3 O2 1_555 1_555
H4 O2 1_555 1_555
N17 Cu3 1_555 1_555
C17 N17 1_555 1_555
C18 C17 1_555 1_555
H5 C18 1_555 1_555
C19 C18 1_555 1_555
H6 C19 1_555 1_555
C20 C19 1_555 1_555
H7 C20 1_555 1_555
C21 N17 1_555 1_555
H8 C21 1_555 1_555
C22 C17 1_555 1_555
O3 Cu3 1_555 1_555
O4 C22 1_555 1_555
N18 Cu4 1_555 1_555
C23 N18 1_555 1_555
C24 C23 1_555 1_555
H9 C24 1_555 1_555
C25 C24 1_555 1_555
H10 C25 1_555 1_555
C26 C25 1_555 1_555
H11 C26 1_555 1_555
C27 N18 1_555 1_555
H12 C27 1_555 1_555
C28 C23 1_555 1_555
O5 Cu4 1_555 1_555
O6 C28 1_555 1_555
O7 Cu4 1_555 1_555
H13 O7 1_555 1_555
C29 O7 1_555 1_555
H14 C29 1_555 1_555
H15 C29 1_555 1_555
H16 C29 1_555 1_555
O8 H17 1_555 1_555
C30 O8 1_555 1_555
H18 C30 1_555 1_555
H19 C30 1_555 1_555
H20 C30 1_555 1_555
O9 H21 1_555 1_555
H22 O9 1_555 1_555
O10 H23 1_555 1_555
H24 O10 1_555 1_555
O11 H25 1_555 1_555
H26 O11 1_555 1_555
O12 H27 1_555 1_555
H28 O12 1_555 1_555
W2A C11 1_555 1_555
W2A_2 C12 1_555 1_555
Cu1A N2 1_555 1_555
Cu3A N8 1_555 1_555
N1A Cu2 1_555 1_555
N2A Cu1 1_555 1_555
N8A Cu3 1_555 1_555
C11A W2 1_555 1_555
C12A W2 1_555 1_555
C14A W2 1_555 1_555
C16A W2 1_555 1_555
C10 N10 1_555 1_555
C14 W2A 1_555 1_555
C15 N15 1_555 1_555
C16 W2A_2 1_555 1_555
C20 C21 1_555 1_555
C22 O3 1_555 1_555
C26 C27 1_555 1_555
C28 O5 1_555 1_555

#END
