
#######################################################################
#
#                 Cambridge Crystallographic Data Centre
#                                CCDC 
#
#######################################################################
#
# If this CIF has been generated from an entry in the Cambridge 
# Structural Database, then it will include bibliographic, chemical, 
# crystal, experimental, refinement or atomic coordinate data resulting 
# from the CCDC's data processing and validation procedures.
#
#######################################################################

data_BAKJOM
_symmetry_cell_setting           triclinic
_symmetry_space_group_name_H-M   'P -1'
_symmetry_Int_Tables_number      2
_space_group_name_Hall           '-P 1'
loop_
_symmetry_equiv_pos_site_id
_symmetry_equiv_pos_as_xyz
1 x,y,z
2 -x,-y,-z
_cell_length_a                   10.0350(7)
_cell_length_b                   11.9656(8)
_cell_length_c                   12.9198(8)
_cell_angle_alpha                98.935(1)
_cell_angle_beta                 101.752(1)
_cell_angle_gamma                113.669(1)
_cell_volume                     1341.56
loop_
_atom_site_label
_atom_site_type_symbol
_atom_site_fract_x
_atom_site_fract_y
_atom_site_fract_z
Cl1 Cl -0.6604(8) 0.9681(4) 1.2040(4)
Cl2 Cl -0.9517(4) 0.7352(4) 1.1214(2)
Cl3 Cl -0.7885(7) 0.8388(5) 0.9369(4)
Cl4 Cl -0.7913(4) 0.6087(4) 0.9888(3)
C21 C -0.7538(22) 0.7972(18) 1.1389(14)
C22 C -0.7089(23) 0.7826(20) 1.0454(17)
H14 H -0.7118(22) 0.7560(18) 1.1893(14)
H15 H -0.5954(23) 0.8223(20) 1.0640(17)
N1 N 0.5695(8) 0.3939(7) 0.4076(5)
N2 N 0.3307(9) 0.4801(7) 0.3649(5)
N3 N 0.2576(9) 0.1804(7) -0.1178(6)
N4 N 1.0364(8) 0.1878(7) 0.6299(5)
C1 C 0.6764(10) 0.3529(8) 0.4396(6)
C2 C 0.6879(11) 0.2762(9) 0.3462(6)
C3 C 0.5860(11) 0.2709(9) 0.2561(7)
C4 C 0.5137(10) 0.3443(8) 0.2945(7)
C5 C 0.3922(10) 0.3542(9) 0.2256(6)
C6 C 0.3105(10) 0.4174(8) 0.2587(7)
C7 C 0.1925(11) 0.4322(9) 0.1898(6)
C8 C 0.1460(11) 0.5034(8) 0.2503(6)
C9 C 0.2347(10) 0.5356(8) 0.3616(6)
C10 C 0.7681(10) 0.3836(8) 0.5477(6)
C11 C 0.3447(10) 0.2928(8) 0.1066(6)
C12 C 0.2217(13) 0.1794(10) 0.0604(8)
C13 C 0.1797(13) 0.1244(10) -0.0546(8)
C14 C 0.3780(13) 0.2898(11) -0.0718(8)
C15 C 0.4255(14) 0.3470(11) 0.0391(8)
C16 C 0.8655(10) 0.3178(8) 0.5734(6)
C17 C 1.0235(10) 0.3801(9) 0.6081(7)
C18 C 1.1060(10) 0.3131(10) 0.6357(7)
C19 C 0.8857(10) 0.1282(8) 0.5939(6)
C20 C 0.7957(10) 0.1890(9) 0.5639(7)
Hg1 Hg 0.8222(1) 0.9272(1) 1.3174(1)
I1 I 0.5693(1) 0.7992(1) 1.3655(1)
I2 I 1.0357(1) 1.1507(1) 1.3258(1)
H1 H 0.3956(9) 0.4832(7) 0.4260(5)
H2 H 0.7540(11) 0.2373(9) 0.3478(6)
H3 H 0.5665(11) 0.2275(9) 0.1825(7)
H4 H 0.1524(11) 0.3973(9) 0.1126(6)
H5 H 0.0687(11) 0.5275(8) 0.2240(6)
H6 H 0.1636(13) 0.1368(10) 0.1040(8)
H7 H 0.0928(13) 0.0448(10) -0.0866(8)
H8 H 0.4347(13) 0.3312(11) -0.1166(8)
H9 H 0.5153(14) 0.4249(11) 0.0691(8)
H10 H 1.0753(10) 0.4678(9) 0.6130(7)
H11 H 1.2140(10) 0.3566(10) 0.6593(7)
H12 H 0.8363(10) 0.0401(8) 0.5881(6)
H13 H 0.6880(10) 0.1423(9) 0.5373(7)
C10A C 0.2319(10) 0.6164(8) 0.4523(6)
C1A C 0.3236(10) 0.6471(8) 0.5604(6)
N1A N 0.4305(8) 0.6061(7) 0.5924(5)
C4A C 0.4863(10) 0.6557(8) 0.7055(7)
C3A C 0.4140(11) 0.7291(9) 0.7439(7)
C2A C 0.3121(11) 0.7238(9) 0.6538(6)
H2A H 0.2460(11) 0.7627(9) 0.6522(6)
H3A H 0.4335(11) 0.7725(9) 0.8175(7)
C5A C 0.6078(10) 0.6458(9) 0.7744(6)
C6A C 0.6895(10) 0.5826(8) 0.7413(7)
N2A N 0.6693(9) 0.5199(7) 0.6351(5)
C9A C 0.7653(10) 0.4644(8) 0.6384(6)
C8A C 0.8540(11) 0.4966(8) 0.7497(6)
C7A C 0.8075(11) 0.5678(9) 0.8102(6)
H4A H 0.8476(11) 0.6027(9) 0.8874(6)
H5A H 0.9313(11) 0.4725(8) 0.7760(6)
Hg1A Hg 1.1778(1) 0.0728(1) 0.6826(1)
H1A H 0.6044(9) 0.5168(7) 0.5740(5)
C11A C 0.6553(10) 0.7072(8) 0.8934(6)
C12A C 0.7783(13) 0.8206(10) 0.9396(8)
C13A C 0.8203(13) 0.8756(10) 1.0546(8)
N3A N 0.7424(9) 0.8196(7) 1.1178(6)
C14A C 0.6220(13) 0.7102(11) 1.0718(8)
C15A C 0.5745(14) 0.6530(11) 0.9609(8)
H9A H 0.4847(14) 0.5751(11) 0.9309(8)
H8A H 0.5653(13) 0.6688(11) 1.1166(8)
Hg1A_2 Hg 0.1778(1) 0.0728(1) -0.3174(1)
N4A N 0.9636(8) 0.8122(7) 1.3701(5)
H7A H 0.9072(13) 0.9552(10) 1.0866(8)
H6A H 0.8364(13) 0.8632(10) 0.8960(8)
C16A C 0.1345(10) 0.6822(8) 0.4266(6)
C17A C -0.0235(10) 0.6199(9) 0.3919(7)
C20A C 0.2043(10) 0.8110(9) 0.4361(7)
C18A C -0.1060(10) 0.6869(10) 0.3643(7)
H10A H -0.0753(10) 0.5322(9) 0.3870(7)
C19A C 0.1143(10) 0.8718(8) 0.4061(6)
H13A H 0.3120(10) 0.8577(9) 0.4627(7)
N4A_2 N -0.0364(8) 0.8122(7) 0.3701(5)
H11A H -0.2140(10) 0.6434(10) 0.3407(7)
H12A H 0.1637(10) 0.9599(8) 0.4119(6)
Hg1_2 Hg -0.1778(1) 0.9272(1) 0.3174(1)
N3A_2 N -0.2576(9) 0.8196(7) 0.1178(6)
I1_2 I -0.4307(1) 0.7992(1) 0.3655(1)
I2_2 I 0.0357(1) 1.1507(1) 0.3258(1)
loop_
_geom_bond_atom_site_label_1
_geom_bond_atom_site_label_2
_geom_bond_site_symmetry_1
_geom_bond_site_symmetry_2
Cl1 C21 1_555 1_555
Cl2 C21 1_555 1_555
Cl3 C22 1_555 1_555
Cl4 C22 1_555 1_555
N1 C1 1_555 1_555
N2 C6 1_555 1_555
N3 C13 1_555 1_555
N4 C18 1_555 1_555
C1 C2 1_555 1_555
C2 C3 1_555 1_555
C3 C4 1_555 1_555
C4 N1 1_555 1_555
C5 C4 1_555 1_555
C6 C5 1_555 1_555
C7 C6 1_555 1_555
C8 C7 1_555 1_555
C9 N2 1_555 1_555
C10 C1 1_555 1_555
C11 C5 1_555 1_555
C12 C11 1_555 1_555
C13 C12 1_555 1_555
C14 N3 1_555 1_555
C15 C11 1_555 1_555
C16 C10 1_555 1_555
C17 C16 1_555 1_555
C18 C17 1_555 1_555
C19 N4 1_555 1_555
C20 C16 1_555 1_555
C21 C22 1_555 1_555
C22 H15 1_555 1_555
Hg1 I1 1_555 1_555
I2 Hg1 1_555 1_555
H1 N2 1_555 1_555
H2 C2 1_555 1_555
H3 C3 1_555 1_555
H4 C7 1_555 1_555
H5 C8 1_555 1_555
H6 C12 1_555 1_555
H7 C13 1_555 1_555
H8 C14 1_555 1_555
H9 C15 1_555 1_555
H10 C17 1_555 1_555
H11 C18 1_555 1_555
H12 C19 1_555 1_555
H13 C20 1_555 1_555
H14 C21 1_555 1_555
C10A C9 1_555 1_555
C1A C10A 1_555 1_555
N1A C1A 1_555 1_555
C4A N1A 1_555 1_555
C3A C4A 1_555 1_555
C2A C1A 1_555 1_555
H2A C2A 1_555 1_555
H3A C3A 1_555 1_555
C5A C4A 1_555 1_555
C6A C5A 1_555 1_555
N2A C6A 1_555 1_555
C9A C10 1_555 1_555
C8A C9A 1_555 1_555
C7A C6A 1_555 1_555
H4A C7A 1_555 1_555
H5A C8A 1_555 1_555
Hg1A N4 1_555 1_555
H1A N2A 1_555 1_555
C11A C5A 1_555 1_555
C12A C11A 1_555 1_555
C13A C12A 1_555 1_555
N3A Hg1 1_555 1_555
C14A N3A 1_555 1_555
C15A C11A 1_555 1_555
H9A C15A 1_555 1_555
H8A C14A 1_555 1_555
Hg1A_2 N3 1_555 1_555
N4A Hg1 1_555 1_555
H7A C13A 1_555 1_555
H6A C12A 1_555 1_555
C16A C10A 1_555 1_555
C17A C16A 1_555 1_555
C20A C16A 1_555 1_555
C18A C17A 1_555 1_555
H10A C17A 1_555 1_555
C19A C20A 1_555 1_555
H13A C20A 1_555 1_555
N4A_2 C18A 1_555 1_555
H11A C18A 1_555 1_555
H12A C19A 1_555 1_555
Hg1_2 N4A_2 1_555 1_555
N3A_2 Hg1_2 1_555 1_555
I1_2 Hg1_2 1_555 1_555
I2_2 Hg1_2 1_555 1_555
C8 C9 1_555 1_555
C14 C15 1_555 1_555
C19 C20 1_555 1_555
C3A C2A 1_555 1_555
N2A C9A 1_555 1_555
C8A C7A 1_555 1_555
C13A N3A 1_555 1_555
C14A C15A 1_555 1_555
C19A N4A_2 1_555 1_555

#END
