
#######################################################################
#
#                 Cambridge Crystallographic Data Centre
#                                CCDC 
#
#######################################################################
#
# If this CIF has been generated from an entry in the Cambridge 
# Structural Database, then it will include bibliographic, chemical, 
# crystal, experimental, refinement or atomic coordinate data resulting 
# from the CCDC's data processing and validation procedures.
#
#######################################################################

data_BAKKED
_symmetry_cell_setting           triclinic
_symmetry_space_group_name_H-M   'P -1'
_symmetry_Int_Tables_number      2
_space_group_name_Hall           '-P 1'
loop_
_symmetry_equiv_pos_site_id
_symmetry_equiv_pos_as_xyz
1 x,y,z
2 -x,-y,-z
_cell_length_a                   10.1734(6)
_cell_length_b                   11.7880(7)
_cell_length_c                   12.8166(6)
_cell_angle_alpha                97.884(1)
_cell_angle_beta                 102.216(1)
_cell_angle_gamma                113.594(1)
_cell_volume                     1333.73
loop_
_atom_site_label
_atom_site_type_symbol
_atom_site_fract_x
_atom_site_fract_y
_atom_site_fract_z
Hg1 Hg 0.1776(1) -0.9258(1) -0.3198(1)
I1 I 0.4246(1) -0.7946(2) -0.3704(1)
I2 I -0.0293(2) -1.1528(1) -0.3263(1)
Zn1 Zn -0.5000 -0.5000 -0.5000
N1 N -0.5671(15) -0.3945(13) -0.4060(11)
N2 N -0.3331(16) -0.4784(15) -0.3667(11)
N3 N -0.2565(17) -0.1816(14) 0.1194(12)
N4 N 0.0374(16) -0.8068(15) -0.3680(10)
C1 C -0.6759(19) -0.3548(16) -0.4411(13)
C2 C -0.6875(19) -0.2799(17) -0.3481(13)
C3 C -0.5869(19) -0.2744(19) -0.2563(13)
C4 C -0.5099(18) -0.3434(15) -0.2927(11)
C5 C -0.3913(19) -0.3529(17) -0.2249(14)
C6 C -0.3099(20) -0.4187(17) -0.2595(13)
C7 C -0.1911(22) -0.4292(19) -0.1889(14)
C8 C -0.1474(23) -0.5006(20) -0.2504(15)
C9 C -0.2360(17) -0.5322(15) -0.3600(12)
C10 C -0.7646(16) -0.3858(16) -0.5482(12)
C11 C -0.3435(19) -0.2896(17) -0.1047(12)
C12 C -0.2198(22) -0.1772(18) -0.0574(13)
C13 C -0.1809(23) -0.1191(21) 0.0532(14)
C14 C -0.3810(23) -0.2855(21) 0.0734(14)
C15 C -0.4300(20) -0.3457(19) -0.0375(13)
C16 C -0.8619(20) -0.3184(20) -0.5727(12)
C17 C -1.0194(19) -0.3851(18) -0.6097(13)
C18 C 0.1004(20) -0.6831(20) -0.3644(15)
C19 C -0.1140(20) -0.8694(18) -0.4011(13)
C20 C -0.7981(18) -0.1884(17) -0.5657(13)
H1 H -0.7536(19) -0.2412(17) -0.3504(13)
H2 H -0.5709(19) -0.2329(19) -0.1826(13)
H3 H -0.1495(22) -0.3923(19) -0.1118(14)
H4 H -0.0707(23) -0.5254(20) -0.2247(15)
H5 H -0.1586(22) -0.1374(18) -0.1009(13)
H6 H -0.1012(23) -0.0354(21) 0.0830(14)
H7 H -0.4414(23) -0.3218(21) 0.1185(14)
H8 H -0.5199(20) -0.4231(19) -0.0673(13)
H9 H -1.0690(19) -0.4745(18) -0.6167(13)
H10 H 0.2068(20) -0.6388(20) -0.3429(15)
H11 H -0.1609(20) -0.9572(18) -0.4012(13)
H12 H -0.6924(18) -0.1393(17) -0.5377(13)
N1A N -0.4329(15) -0.6055(13) -0.5940(11)
C1A C -0.3241(19) -0.6452(16) -0.5589(13)
C2A C -0.3125(19) -0.7201(17) -0.6519(13)
C3A C -0.4131(19) -0.7256(19) -0.7437(13)
C4A C -0.4901(18) -0.6566(15) -0.7073(11)
C5A C -0.6087(19) -0.6471(17) -0.7751(14)
C6A C -0.6901(20) -0.5813(17) -0.7405(13)
N2A N -0.6669(16) -0.5216(15) -0.6333(11)
C10A C -0.2354(16) -0.6142(16) -0.4518(12)
C16A C -0.1381(20) -0.6816(20) -0.4273(12)
C17A C 0.0194(19) -0.6149(18) -0.3903(13)
Hg1A Hg -0.1776(1) -0.0742(1) 0.3198(1)
N3A N 0.2565(17) -0.8184(14) -0.1194(12)
C20A C -0.2019(18) -0.8116(17) -0.4343(13)
H12A H -0.3076(18) -0.8607(17) -0.4623(13)
H9A H 0.0690(19) -0.5255(18) -0.3833(13)
C9A C -0.7640(17) -0.4678(15) -0.6400(12)
C8A C -0.8526(23) -0.4994(20) -0.7496(15)
C7A C -0.8089(22) -0.5708(19) -0.8111(14)
H3A H -0.8505(22) -0.6077(19) -0.8882(14)
H4A H -0.9293(23) -0.4746(20) -0.7753(15)
C18A C -1.1004(20) -0.3169(20) -0.6356(15)
N4A N -1.0374(16) -0.1932(15) -0.6320(10)
Hg1A_2 Hg -1.1776(1) -0.0742(1) -0.6802(1)
I1A I -1.4246(1) -0.2054(2) -0.6296(1)
I2A I -0.9707(2) 0.1528(1) -0.6737(1)
N3_2 N -1.2565(17) -0.1816(14) -0.8806(12)
C19A C -0.8860(20) -0.1306(18) -0.5989(13)
H11A H -0.8391(20) -0.0428(18) -0.5988(13)
H10A H -1.2068(20) -0.3612(20) -0.6571(15)
C11A C -0.6565(19) -0.7104(17) -0.8953(12)
H2A H -0.4291(19) -0.7671(19) -0.8174(13)
H1A H -0.2464(19) -0.7588(17) -0.6496(13)
C12A C -0.7802(22) -0.8228(18) -0.9426(13)
C15A C -0.5700(20) -0.6543(19) -0.9625(13)
C13A C -0.8191(23) -0.8809(21) -1.0532(14)
H5A H -0.8414(22) -0.8626(18) -0.8991(13)
C14A C -0.6190(23) -0.7145(21) -1.0734(14)
H8A H -0.4801(20) -0.5769(19) -0.9327(13)
N3A_2 N -0.7435(17) -0.8184(14) -1.1194(12)
H6A H -0.8988(23) -0.9646(21) -1.0830(14)
H7A H -0.5586(23) -0.6782(21) -1.1185(14)
Hg1_2 Hg -0.8224(1) -0.9258(1) -1.3198(1)
Cl1 Cl -0.6536(11) -0.0337(8) 1.2071(7)
Cl2 Cl -0.9435(7) -0.2593(8) 1.1213(5)
Cl3 Cl -0.7728(13) -0.1546(10) 0.9380(7)
Cl4 Cl -0.7880(8) -0.3910(7) 0.9858(5)
C21 C -0.7550(28) -0.2010(29) 1.1400(22)
C22 C -0.7105(40) -0.2226(43) 1.0419(28)
H13 H -0.7185(28) -0.2465(29) 1.1907(22)
H14 H -0.5985(40) -0.1856(43) 1.0627(28)
loop_
_geom_bond_atom_site_label_1
_geom_bond_atom_site_label_2
_geom_bond_site_symmetry_1
_geom_bond_site_symmetry_2
Hg1 I1 1_555 1_555
I2 Hg1 1_555 1_555
Zn1 N1 1_555 1_555
Cl1 C21 1_555 1_555
Cl2 C21 1_555 1_555
Cl3 C22 1_555 1_555
Cl4 C22 1_555 1_555
N1 C1 1_555 1_555
N2 Zn1 1_555 1_555
N3 C13 1_555 1_555
N4 Hg1 1_555 1_555
C1 C2 1_555 1_555
C2 C3 1_555 1_555
C3 C4 1_555 1_555
C4 N1 1_555 1_555
C5 C4 1_555 1_555
C6 N2 1_555 1_555
C7 C6 1_555 1_555
C8 C7 1_555 1_555
C9 N2 1_555 1_555
C10 C1 1_555 1_555
C11 C5 1_555 1_555
C12 C11 1_555 1_555
C13 C12 1_555 1_555
C14 N3 1_555 1_555
C15 C11 1_555 1_555
C16 C10 1_555 1_555
C17 C16 1_555 1_555
C18 N4 1_555 1_555
C19 N4 1_555 1_555
C20 C16 1_555 1_555
C21 C22 1_555 1_555
C22 H14 1_555 1_555
H1 C2 1_555 1_555
H2 C3 1_555 1_555
H3 C7 1_555 1_555
H4 C8 1_555 1_555
H5 C12 1_555 1_555
H6 C13 1_555 1_555
H7 C14 1_555 1_555
H8 C15 1_555 1_555
H9 C17 1_555 1_555
H10 C18 1_555 1_555
H11 C19 1_555 1_555
H12 C20 1_555 1_555
H13 C21 1_555 1_555
N1A Zn1 1_555 1_555
C1A N1A 1_555 1_555
C2A C1A 1_555 1_555
C3A C2A 1_555 1_555
C4A N1A 1_555 1_555
C5A C4A 1_555 1_555
C6A C5A 1_555 1_555
N2A Zn1 1_555 1_555
C10A C9 1_555 1_555
C16A C10A 1_555 1_555
C17A C18 1_555 1_555
Hg1A N3 1_555 1_555
N3A Hg1 1_555 1_555
C20A C19 1_555 1_555
H12A C20A 1_555 1_555
H9A C17A 1_555 1_555
C9A C10 1_555 1_555
C8A C9A 1_555 1_555
C7A C6A 1_555 1_555
H3A C7A 1_555 1_555
H4A C8A 1_555 1_555
C18A C17 1_555 1_555
N4A C18A 1_555 1_555
Hg1A_2 N4A 1_555 1_555
I1A Hg1A_2 1_555 1_555
I2A Hg1A_2 1_555 1_555
N3_2 Hg1A_2 1_555 1_555
C19A C20 1_555 1_555
H11A C19A 1_555 1_555
H10A C18A 1_555 1_555
C11A C5A 1_555 1_555
H2A C3A 1_555 1_555
H1A C2A 1_555 1_555
C12A C11A 1_555 1_555
C15A C11A 1_555 1_555
C13A C12A 1_555 1_555
H5A C12A 1_555 1_555
C14A C15A 1_555 1_555
H8A C15A 1_555 1_555
N3A_2 C13A 1_555 1_555
H6A C13A 1_555 1_555
H7A C14A 1_555 1_555
Hg1_2 N3A_2 1_555 1_555
C5 C6 1_555 1_555
C8 C9 1_555 1_555
C14 C15 1_555 1_555
C1A C10A 1_555 1_555
C3A C4A 1_555 1_555
C6A N2A 1_555 1_555
N2A C9A 1_555 1_555
C16A C17A 1_555 1_555
C16A C20A 1_555 1_555
C8A C7A 1_555 1_555
N4A C19A 1_555 1_555
C14A N3A_2 1_555 1_555

#END
