
#######################################################################
#
#                 Cambridge Crystallographic Data Centre
#                                CCDC 
#
#######################################################################
#
# If this CIF has been generated from an entry in the Cambridge 
# Structural Database, then it will include bibliographic, chemical, 
# crystal, experimental, refinement or atomic coordinate data resulting 
# from the CCDC's data processing and validation procedures.
#
#######################################################################

data_BAKMUW
_symmetry_cell_setting           orthorhombic
_symmetry_space_group_name_H-M   'P c a 21'
_symmetry_Int_Tables_number      29
_space_group_name_Hall           'P 2c -2ac'
loop_
_symmetry_equiv_pos_site_id
_symmetry_equiv_pos_as_xyz
1 x,y,z
2 -x,-y,1/2+z
3 1/2+x,-y,z
4 1/2-x,y,1/2+z
_cell_length_a                   25.2027(15)
_cell_length_b                   13.9213(8)
_cell_length_c                   11.4686(7)
_cell_angle_alpha                90
_cell_angle_beta                 90
_cell_angle_gamma                90
_cell_volume                     4023.81
loop_
_atom_site_label
_atom_site_type_symbol
_atom_site_fract_x
_atom_site_fract_y
_atom_site_fract_z
Na1 Na 0.43599(3) -0.06306(6) -0.45889(7)
C1 C 0.54214(8) 0.23113(13) -0.22208(17)
Na2 Na 0.49243(3) -0.12984(6) -0.17138(7)
B1 B 0.49795(9) 0.19184(18) -0.3127(2)
H1 H 0.4679 0.2479 -0.3266
B2 B 0.55304(9) 0.19458(18) -0.4389(2)
H2 H 0.5623 0.2718 -0.4405
B3 B 0.60455(10) 0.06585(19) -0.3192(2)
H3 H 0.6447 0.0370 -0.3059
B4 B 0.58253(9) 0.15997(18) -0.1914(2)
H4 H 0.6177 0.2067 -0.1897
B5 B 0.51236(9) 0.14322(17) -0.1666(2)
H5 H 0.4892 0.1460 -0.0854
B6 B 0.49248(10) 0.06489(19) -0.2793(2)
H6 H 0.4552 0.0264 -0.2618
B7 B 0.50802(10) 0.09984(18) -0.4226(2)
H7 H 0.4770 0.0925 -0.4895
B8 B 0.57458(10) 0.07286(19) -0.4656(2)
H8 H 0.5863 0.0373 -0.5473
B9 B 0.54230(10) 0.0065(2) -0.3554(2)
H9 H 0.5377 -0.0705 -0.3743
B10 B 0.55398(9) 0.04559(17) -0.2108(2)
H10 H 0.5634 -0.0090 -0.1446
C2 C 0.60637(7) 0.15931(15) -0.40550(17)
C3 C 0.65806(8) 0.20649(16) -0.43548(19)
H11 H 0.6528 0.2533 -0.4970
H12 H 0.6832 0.1588 -0.4629
C4 C 0.67964(8) 0.25612(16) -0.3258(2)
C5 C 0.72112(9) 0.2121(2) -0.2660(2)
H13 H 0.7376 0.1578 -0.2965
C6 C 0.73762(10) 0.2505(2) -0.1596(3)
H14 H 0.7648 0.2198 -0.1193
C7 C 0.71610(11) 0.3293(2) -0.1134(3)
H15 H 0.7287 0.3539 -0.0432
C8 C 0.67402(10) 0.37476(19) -0.1721(2)
H16 H 0.6579 0.4288 -0.1400
C9 C 0.65649(9) 0.33823(16) -0.2789(2)
C10 C 0.61326(9) 0.39172(15) -0.3393(2)
C11 C 0.62610(11) 0.44387(17) -0.4402(2)
H17 H 0.6607 0.4431 -0.4684
C12 C 0.58737(12) 0.49676(18) -0.4982(3)
H18 H 0.5961 0.5304 -0.5656
C13 C 0.53719(12) 0.49936(19) -0.4571(2)
H19 H 0.5115 0.5349 -0.4961
C14 C 0.52424(10) 0.45031(16) -0.3590(2)
H20 H 0.4895 0.4531 -0.3320
C15 C 0.56092(9) 0.39619(15) -0.29759(19)
C16 C 0.54274(9) 0.33698(14) -0.19293(19)
H21 H 0.5665 0.3482 -0.1278
H22 H 0.5074 0.3571 -0.1699
O1 O 0.43208(6) -0.19194(10) -0.31604(12)
C17 C 0.37982(9) -0.20760(16) -0.2696(2)
H23 H 0.3775 -0.1827 -0.1907
H24 H 0.3535 -0.1752 -0.3172
C18 C 0.37068(13) -0.3091(2) -0.2700(4)
H25 H 0.3355 -0.3227 -0.3002
H26 H 0.3728 -0.3340 -0.1911
C19 C 0.41129(12) -0.3557(2) -0.3442(4)
H27 H 0.4268 -0.4104 -0.3043
H28 H 0.3957 -0.3776 -0.4167
C20 C 0.45148(10) -0.28263(17) -0.3665(2)
H29 H 0.4571 -0.2754 -0.4497
H30 H 0.4849 -0.3008 -0.3307
O2 O 0.55776(6) -0.24386(13) -0.18451(16)
C21 C 0.60250(12) -0.2417(3) -0.2593(4)
H31 H 0.5917 -0.2566 -0.3384
H32 H 0.6181 -0.1780 -0.2589
C22 C 0.63891(15) -0.3071(4) -0.2223(5)
H33 H 0.6723 -0.2755 -0.2054
H34 H 0.6450 -0.3549 -0.2824
C23 C 0.61704(17) -0.3554(4) -0.1116(5)
H35 H 0.6177 -0.4248 -0.1187
H36 H 0.6374 -0.3368 -0.0434
C24 C 0.56512(14) -0.3214(3) -0.1046(4)
H37 H 0.5579 -0.2995 -0.0258
H38 H 0.5405 -0.3728 -0.1228
O3 O 0.35207(6) -0.00051(13) -0.43408(16)
C25 C 0.30888(10) -0.0133(2) -0.5111(3)
H39 H 0.2957 -0.0785 -0.5050
H40 H 0.3206 -0.0029 -0.5907
C26 C 0.26775(13) 0.0521(3) -0.4838(4)
H41 H 0.2342 0.0188 -0.4746
H42 H 0.2640 0.1001 -0.5446
C27 C 0.28479(13) 0.0989(3) -0.3687(4)
H43 H 0.2851 0.1683 -0.3763
H44 H 0.2605 0.0815 -0.3067
C28 C 0.33605(13) 0.0646(2) -0.3439(3)
H45 H 0.3361 0.0319 -0.2693
H46 H 0.3607 0.1179 -0.3397
Na2A Na 0.50757(3) 0.12984(6) -0.67138(7)
H7A H 0.5230 -0.0925 0.0105
Na1A Na 0.56401(3) 0.06306(6) 0.04111(7)
H10A H 0.4366 0.0090 -0.6446
O1A O 0.56792(6) 0.19194(10) 0.18396(12)
Na2A_2 Na 0.50757(3) 0.12984(6) 0.32862(7)
H7_2 H 0.4770 0.0925 0.5105
H10A_2 H 0.4366 0.0090 0.3554
O2A O 0.44224(6) 0.24386(13) 0.31549(16)
C21A C 0.39750(12) 0.2417(3) 0.2407(4)
H31A H 0.4083 0.2566 0.1616
H32A H 0.3819 0.1780 0.2411
C22A C 0.36109(15) 0.3071(4) 0.2777(5)
H33A H 0.3277 0.2755 0.2946
H34A H 0.3550 0.3549 0.2176
C23A C 0.38296(17) 0.3554(4) 0.3884(5)
H35A H 0.3823 0.4248 0.3813
H36A H 0.3626 0.3368 0.4566
C24A C 0.43488(14) 0.3214(3) 0.3954(4)
H37A H 0.4421 0.2995 0.4742
H38A H 0.4595 0.3728 0.3772
C17A C 0.62018(9) 0.20760(16) 0.2304(2)
H23A H 0.6225 0.1827 0.3093
H24A H 0.6465 0.1752 0.1828
C18A C 0.62932(13) 0.3091(2) 0.2300(4)
H25A H 0.6645 0.3227 0.1998
H26A H 0.6272 0.3340 0.3089
C19A C 0.58871(12) 0.3557(2) 0.1558(4)
H27A H 0.5732 0.4104 0.1957
H28A H 0.6043 0.3776 0.0833
C20A C 0.54852(10) 0.28263(17) 0.1335(2)
H29A H 0.5429 0.2754 0.0503
H30A H 0.5151 0.3008 0.1693
O3A O 0.64793(6) 0.00051(13) 0.06592(16)
C25A C 0.69112(10) 0.0133(2) -0.0111(3)
H39A H 0.7043 0.0785 -0.0050
H40A H 0.6794 0.0029 -0.0907
C26A C 0.73225(13) -0.0521(3) 0.0162(4)
H41A H 0.7658 -0.0188 0.0254
H42A H 0.7360 -0.1001 -0.0446
C27A C 0.71521(13) -0.0989(3) 0.1313(4)
H43A H 0.7149 -0.1683 0.1237
H44A H 0.7395 -0.0815 0.1933
C28A C 0.66395(13) -0.0646(2) 0.1561(3)
H45A H 0.6639 -0.0319 0.2307
H46A H 0.6393 -0.1179 0.1603
B7A B 0.49198(10) -0.09984(18) 0.0774(2)
B1A B 0.50205(9) -0.19184(18) 0.1873(2)
C1A C 0.45786(8) -0.23113(13) 0.27792(17)
B4A B 0.41747(9) -0.15997(18) 0.3086(2)
B3A B 0.39545(10) -0.06585(19) 0.1808(2)
H3A H 0.3553 -0.0370 0.1941
B8A B 0.42542(10) -0.07286(19) 0.0344(2)
B2A B 0.44696(9) -0.19458(18) 0.0611(2)
H1A H 0.5321 -0.2479 0.1734
B5A B 0.48764(9) -0.14322(17) 0.3334(2)
C16A C 0.45726(9) -0.33698(14) 0.30707(19)
C15A C 0.43908(9) -0.39619(15) 0.20241(19)
C10A C 0.38674(9) -0.39172(15) 0.1607(2)
C9A C 0.34351(9) -0.33823(16) 0.2211(2)
C4A C 0.32036(8) -0.25612(16) 0.1742(2)
C3A C 0.34194(8) -0.20649(16) 0.06452(19)
C2A C 0.39363(7) -0.15931(15) 0.09450(17)
H2A H 0.4377 -0.2718 0.0595
B6A B 0.50752(10) -0.06489(19) 0.2207(2)
H4A H 0.3823 -0.2067 0.3103
B10A B 0.44602(9) -0.04559(17) 0.2892(2)
B9A B 0.45770(10) -0.0065(2) 0.1446(2)
H6A H 0.5448 -0.0264 0.2382
H5A H 0.5108 -0.1460 0.4146
H8A H 0.4137 -0.0373 -0.0473
H9A H 0.4623 0.0705 0.1257
Na1_2 Na 0.43599(3) -0.06306(6) 0.54111(7)
H11A H 0.3472 -0.2533 0.0030
H12A H 0.3168 -0.1588 0.0371
C5A C 0.27888(9) -0.2121(2) 0.2340(2)
H13A H 0.2624 -0.1578 0.2035
C6A C 0.26238(10) -0.2505(2) 0.3404(3)
H14A H 0.2352 -0.2198 0.3807
C7A C 0.28390(11) -0.3293(2) 0.3866(3)
H15A H 0.2713 -0.3539 0.4568
C8A C 0.32598(10) -0.37476(19) 0.3279(2)
H16A H 0.3421 -0.4288 0.3600
C11A C 0.37390(11) -0.44387(17) 0.0598(2)
H17A H 0.3393 -0.4431 0.0316
C12A C 0.41263(12) -0.49676(18) 0.0018(3)
H18A H 0.4039 -0.5304 -0.0656
C13A C 0.46281(12) -0.49936(19) 0.0429(2)
H19A H 0.4885 -0.5349 0.0039
C14A C 0.47576(10) -0.45031(16) 0.1410(2)
H20A H 0.5105 -0.4531 0.1680
H21A H 0.4335 -0.3482 0.3722
H22A H 0.4926 -0.3571 0.3301
O4 O 0.35574(11) 0.3124(3) -0.2068(4)
C29 C 0.3285(2) 0.2919(4) -0.1025(5)
H47 H 0.3524 0.3000 -0.0368
H48 H 0.3166 0.2257 -0.1034
C30 C 0.28425(12) 0.3539(3) -0.0895(4)
H49 H 0.2874 0.3901 -0.0175
H50 H 0.2518 0.3165 -0.0861
C31 C 0.28218(18) 0.4259(3) -0.1982(6)
H51 H 0.2482 0.4238 -0.2377
H52 H 0.2901 0.4915 -0.1755
C32 C 0.3239(2) 0.3848(4) -0.2678(5)
H53 H 0.3472 0.4360 -0.2940
H54 H 0.3083 0.3556 -0.3365
loop_
_geom_bond_atom_site_label_1
_geom_bond_atom_site_label_2
_geom_bond_site_symmetry_1
_geom_bond_site_symmetry_2
Na1 H7 1_555 1_555
C1 B1 1_555 1_555
Na2 H10 1_555 1_555
B1 H1 1_555 1_555
B2 B1 1_555 1_555
H2 B2 1_555 1_555
B3 H3 1_555 1_555
B4 C1 1_555 1_555
H4 B4 1_555 1_555
B5 C1 1_555 1_555
H5 B5 1_555 1_555
B6 B1 1_555 1_555
H6 B6 1_555 1_555
B7 B1 1_555 1_555
H7 B7 1_555 1_555
B8 B2 1_555 1_555
H8 B8 1_555 1_555
B9 B3 1_555 1_555
H9 B9 1_555 1_555
B10 B3 1_555 1_555
H10 B10 1_555 1_555
C2 B2 1_555 1_555
C3 C2 1_555 1_555
H11 C3 1_555 1_555
H12 C3 1_555 1_555
C4 C3 1_555 1_555
C5 C4 1_555 1_555
H13 C5 1_555 1_555
C6 C5 1_555 1_555
H14 C6 1_555 1_555
C7 C6 1_555 1_555
H15 C7 1_555 1_555
C8 C7 1_555 1_555
H16 C8 1_555 1_555
C9 C4 1_555 1_555
C10 C9 1_555 1_555
C11 C10 1_555 1_555
H17 C11 1_555 1_555
C12 C11 1_555 1_555
H18 C12 1_555 1_555
C13 C12 1_555 1_555
H19 C13 1_555 1_555
C14 C13 1_555 1_555
H20 C14 1_555 1_555
C15 C10 1_555 1_555
C16 C1 1_555 1_555
H21 C16 1_555 1_555
H22 C16 1_555 1_555
O1 Na1 1_555 1_555
C17 O1 1_555 1_555
H23 C17 1_555 1_555
H24 C17 1_555 1_555
C18 C17 1_555 1_555
H25 C18 1_555 1_555
H26 C18 1_555 1_555
C19 C18 1_555 1_555
H27 C19 1_555 1_555
H28 C19 1_555 1_555
C20 O1 1_555 1_555
H29 C20 1_555 1_555
H30 C20 1_555 1_555
O2 Na2 1_555 1_555
C21 O2 1_555 1_555
H31 C21 1_555 1_555
H32 C21 1_555 1_555
C22 C21 1_555 1_555
H33 C22 1_555 1_555
H34 C22 1_555 1_555
C23 C22 1_555 1_555
H35 C23 1_555 1_555
H36 C23 1_555 1_555
C24 O2 1_555 1_555
H37 C24 1_555 1_555
H38 C24 1_555 1_555
O3 Na1 1_555 1_555
C25 O3 1_555 1_555
H39 C25 1_555 1_555
H40 C25 1_555 1_555
C26 C25 1_555 1_555
H41 C26 1_555 1_555
H42 C26 1_555 1_555
C27 C26 1_555 1_555
H43 C27 1_555 1_555
H44 C27 1_555 1_555
C28 O3 1_555 1_555
H45 C28 1_555 1_555
H46 C28 1_555 1_555
O4 C29 1_555 1_555
C29 H47 1_555 1_555
H48 C29 1_555 1_555
C30 C29 1_555 1_555
H49 C30 1_555 1_555
H50 C30 1_555 1_555
C31 C30 1_555 1_555
H51 C31 1_555 1_555
H52 C31 1_555 1_555
C32 O4 1_555 1_555
H53 C32 1_555 1_555
H54 C32 1_555 1_555
Na2A H7 1_555 1_555
H7A Na2 1_555 1_555
Na1A H10 1_555 1_555
H10A Na1 1_555 1_555
O1A Na1A 1_555 1_555
Na2A_2 O1A 1_555 1_555
H7_2 Na2A_2 1_555 1_555
H10A_2 Na2A_2 1_555 1_555
O2A Na2A_2 1_555 1_555
C21A O2A 1_555 1_555
H31A C21A 1_555 1_555
H32A C21A 1_555 1_555
C22A C21A 1_555 1_555
H33A C22A 1_555 1_555
H34A C22A 1_555 1_555
C23A C22A 1_555 1_555
H35A C23A 1_555 1_555
H36A C23A 1_555 1_555
C24A O2A 1_555 1_555
H37A C24A 1_555 1_555
H38A C24A 1_555 1_555
C17A O1A 1_555 1_555
H23A C17A 1_555 1_555
H24A C17A 1_555 1_555
C18A C17A 1_555 1_555
H25A C18A 1_555 1_555
H26A C18A 1_555 1_555
C19A C18A 1_555 1_555
H27A C19A 1_555 1_555
H28A C19A 1_555 1_555
C20A O1A 1_555 1_555
H29A C20A 1_555 1_555
H30A C20A 1_555 1_555
O3A Na1A 1_555 1_555
C25A O3A 1_555 1_555
H39A C25A 1_555 1_555
H40A C25A 1_555 1_555
C26A C25A 1_555 1_555
H41A C26A 1_555 1_555
H42A C26A 1_555 1_555
C27A C26A 1_555 1_555
H43A C27A 1_555 1_555
H44A C27A 1_555 1_555
C28A O3A 1_555 1_555
H45A C28A 1_555 1_555
H46A C28A 1_555 1_555
B7A H7A 1_555 1_555
B1A B7A 1_555 1_555
C1A B1A 1_555 1_555
B4A C1A 1_555 1_555
B3A B4A 1_555 1_555
H3A B3A 1_555 1_555
B8A B7A 1_555 1_555
B2A B7A 1_555 1_555
H1A B1A 1_555 1_555
B5A B1A 1_555 1_555
C16A C1A 1_555 1_555
C15A C16A 1_555 1_555
C10A C15A 1_555 1_555
C9A C10A 1_555 1_555
C4A C9A 1_555 1_555
C3A C4A 1_555 1_555
C2A B3A 1_555 1_555
H2A B2A 1_555 1_555
B6A B7A 1_555 1_555
H4A B4A 1_555 1_555
B10A H10A_2 1_555 1_555
B9A B7A 1_555 1_555
H6A B6A 1_555 1_555
H5A B5A 1_555 1_555
H8A B8A 1_555 1_555
H9A B9A 1_555 1_555
Na1_2 H7_2 1_555 1_555
H11A C3A 1_555 1_555
H12A C3A 1_555 1_555
C5A C4A 1_555 1_555
H13A C5A 1_555 1_555
C6A C5A 1_555 1_555
H14A C6A 1_555 1_555
C7A C6A 1_555 1_555
H15A C7A 1_555 1_555
C8A C9A 1_555 1_555
H16A C8A 1_555 1_555
C11A C10A 1_555 1_555
H17A C11A 1_555 1_555
C12A C11A 1_555 1_555
H18A C12A 1_555 1_555
C13A C12A 1_555 1_555
H19A C13A 1_555 1_555
C14A C15A 1_555 1_555
H20A C14A 1_555 1_555
H21A C16A 1_555 1_555
H22A C16A 1_555 1_555
Na2 O1 1_555 1_555
B1 B5 1_555 1_555
B2 B7 1_555 1_555
B3 B4 1_555 1_555
B3 B8 1_555 1_555
B3 C2 1_555 1_555
B4 B5 1_555 1_555
B4 B10 1_555 1_555
B5 B6 1_555 1_555
B5 B10 1_555 1_555
B6 B7 1_555 1_555
B6 B9 1_555 1_555
B6 B10 1_555 1_555
B7 B8 1_555 1_555
B7 B9 1_555 1_555
B8 B9 1_555 1_555
B8 C2 1_555 1_555
B9 B10 1_555 1_555
C8 C9 1_555 1_555
C14 C15 1_555 1_555
C15 C16 1_555 1_555
C19 C20 1_555 1_555
C23 C24 1_555 1_555
C27 C28 1_555 1_555
C31 C32 1_555 1_555
Na2A H10A 1_555 1_555
H7A Na1A 1_555 1_555
H10A_2 Na1_2 1_555 1_555
C23A C24A 1_555 1_555
C19A C20A 1_555 1_555
C27A C28A 1_555 1_555
B1A B2A 1_555 1_555
B1A B6A 1_555 1_555
C1A B5A 1_555 1_555
B4A B5A 1_555 1_555
B4A B10A 1_555 1_555
B3A B8A 1_555 1_555
B3A B10A 1_555 1_555
B3A B9A 1_555 1_555
B8A B2A 1_555 1_555
B8A C2A 1_555 1_555
B8A B9A 1_555 1_555
B2A C2A 1_555 1_555
B5A B6A 1_555 1_555
B5A B10A 1_555 1_555
C3A C2A 1_555 1_555
B6A B10A 1_555 1_555
B6A B9A 1_555 1_555
B10A B9A 1_555 1_555
C7A C8A 1_555 1_555
C13A C14A 1_555 1_555

#END
