
#######################################################################
#
#                 Cambridge Crystallographic Data Centre
#                                CCDC 
#
#######################################################################
#
# If this CIF has been generated from an entry in the Cambridge 
# Structural Database, then it will include bibliographic, chemical, 
# crystal, experimental, refinement or atomic coordinate data resulting 
# from the CCDC's data processing and validation procedures.
#
#######################################################################

data_BAKNIL
_symmetry_cell_setting           monoclinic
_symmetry_space_group_name_H-M   'P 21/c'
_symmetry_Int_Tables_number      14
_space_group_name_Hall           '-P 2ybc'
loop_
_symmetry_equiv_pos_site_id
_symmetry_equiv_pos_as_xyz
1 x,y,z
2 -x,1/2+y,1/2-z
3 -x,-y,-z
4 x,1/2-y,1/2+z
_cell_length_a                   8.900(3)
_cell_length_b                   9.559(3)
_cell_length_c                   11.956(4)
_cell_angle_alpha                90
_cell_angle_beta                 104.452(6)
_cell_angle_gamma                90
_cell_volume                     984.972
loop_
_atom_site_label
_atom_site_type_symbol
_atom_site_fract_x
_atom_site_fract_y
_atom_site_fract_z
C1 C 0.7173(4) 0.2652(4) 0.3004(3)
C2 C 0.8158(5) 0.1998(4) 0.2424(3)
H1 H 0.916(7) 0.218(5) 0.272(4)
C3 C 0.7595(4) 0.1059(3) 0.1542(3)
C4 C 0.8748(5) 0.0418(5) 0.0956(4)
H2 H 0.8222 -0.0224 0.0371
H3 H 0.9531 -0.0073 0.1517
H4 H 0.9225 0.1143 0.0608
C5 C 0.3029(6) 0.1203(6) 0.3841(5)
H5 H 0.3878 0.0761 0.3601
H6 H 0.2318 0.1599 0.3166
C6 C 0.2215(10) 0.0163(7) 0.4404(7)
H7 H 0.1262 -0.0152 0.3877
H8 H 0.2870 -0.0640 0.4676
C7 C 0.1892(9) 0.0952(8) 0.5374(7)
H9 H 0.0880 0.1393 0.5146
H10 H 0.1916 0.0337 0.6024
C8 C 0.3074(8) 0.1971(6) 0.5670(5)
H11 H 0.3924 0.1627 0.6282
H12 H 0.2673 0.2819 0.5936
O1 O 0.3593(4) 0.2249(3) 0.4659(3)
N1 N 0.6323(4) 0.3160(4) 0.3464(3)
N2 N 0.6152(4) 0.0641(3) 0.1164(2)
H13 H 0.564(4) 0.098(4) 0.151(3)
Li1 Li 0.4948(7) 0.3795(5) 0.4458(5)
Li1C Li 0.4948(7) 0.1205(5) -0.0542(5)
Li1A Li 0.5052(7) -0.1205(5) 0.0542(5)
N2C N 0.6152(4) 0.4359(3) 0.6164(2)
N2A N 0.3848(4) 0.5641(3) 0.3836(2)
H13C H 0.564(4) 0.402(4) 0.651(3)
H13A H 0.436(4) 0.598(4) 0.349(3)
loop_
_geom_bond_atom_site_label_1
_geom_bond_atom_site_label_2
_geom_bond_site_symmetry_1
_geom_bond_site_symmetry_2
C1 C2 1_555 1_555
C2 H1 1_555 1_555
C3 C2 1_555 1_555
C4 C3 1_555 1_555
H2 C4 1_555 1_555
H3 C4 1_555 1_555
H4 C4 1_555 1_555
C5 H5 1_555 1_555
H6 C5 1_555 1_555
C6 C5 1_555 1_555
H7 C6 1_555 1_555
H8 C6 1_555 1_555
C7 C6 1_555 1_555
H9 C7 1_555 1_555
H10 C7 1_555 1_555
C8 C7 1_555 1_555
H11 C8 1_555 1_555
H12 C8 1_555 1_555
O1 C5 1_555 1_555
N1 C1 1_555 1_555
N2 C3 1_555 1_555
H13 N2 1_555 1_555
Li1 O1 1_555 1_555
Li1C N2 1_555 1_555
Li1A N2 1_555 1_555
N2C Li1 1_555 1_555
N2A Li1 1_555 1_555
H13C N2C 1_555 1_555
H13A N2A 1_555 1_555
C8 O1 1_555 1_555
N1 Li1 1_555 1_555

#END
