
#######################################################################
#
#                 Cambridge Crystallographic Data Centre
#                                CCDC 
#
#######################################################################
#
# If this CIF has been generated from an entry in the Cambridge 
# Structural Database, then it will include bibliographic, chemical, 
# crystal, experimental, refinement or atomic coordinate data resulting 
# from the CCDC's data processing and validation procedures.
#
#######################################################################

data_BAKNOQ
_symmetry_cell_setting           triclinic
_symmetry_space_group_name_H-M   'P -1'
_symmetry_Int_Tables_number      2
_space_group_name_Hall           '-P 1'
loop_
_symmetry_equiv_pos_site_id
_symmetry_equiv_pos_as_xyz
1 x,y,z
2 -x,-y,-z
_cell_length_a                   14.6129(5)
_cell_length_b                   16.2090(5)
_cell_length_c                   16.3263(5)
_cell_angle_alpha                62.053(1)
_cell_angle_beta                 80.372(1)
_cell_angle_gamma                73.281(1)
_cell_volume                     3269.27
loop_
_atom_site_label
_atom_site_type_symbol
_atom_site_fract_x
_atom_site_fract_y
_atom_site_fract_z
Hg1 Hg -0.1165(1) -0.0691(1) 0.2914(1)
Hg2 Hg 0.6002(1) 0.8157(1) 0.3332(1)
I1 I -0.1108(1) -0.2022(1) 0.4655(1)
I2 I -0.0738(1) -0.0439(1) 0.1183(1)
I3 I 0.5910(1) 0.9529(1) 0.1615(1)
I4 I 0.5710(1) 0.7752(1) 0.5095(1)
Zn1 Zn 0.2447(3) 0.3788(4) 0.2936(4)
N1 N 0.1006(4) 0.3853(5) 0.2910(5)
N2 N 0.2814(5) 0.2618(6) 0.2722(5)
N3 N 0.3833(4) 0.3926(5) 0.2666(5)
N4 N 0.2033(5) 0.5055(6) 0.3045(5)
N5 N -0.0363(5) 0.0453(6) 0.2903(6)
N6 N 0.7281(5) 0.0405(6) 0.2754(6)
N7 N 0.5153(5) 0.7081(6) 0.3252(6)
N8 N -0.2439(5) 0.7102(6) 0.3333(6)
C1 C 0.0234(6) 0.4531(7) 0.3021(7)
C2 C -0.0600(6) 0.4299(8) 0.2951(8)
C3 C -0.0354(6) 0.3484(7) 0.2846(7)
C4 C 0.0659(6) 0.3192(7) 0.2832(6)
C5 C 0.1208(6) 0.2371(7) 0.2776(6)
C6 C 0.2222(6) 0.2106(7) 0.2729(6)
C7 C 0.2766(6) 0.1217(6) 0.2678(6)
C8 C 0.3692(6) 0.1227(7) 0.2633(7)
C9 C 0.3716(6) 0.2103(7) 0.2653(6)
C10 C 0.4564(5) 0.2395(7) 0.2568(6)
C11 C 0.4610(6) 0.3267(7) 0.2519(6)
C12 C 0.5438(6) 0.3600(7) 0.2422(6)
C13 C 0.5179(6) 0.4411(7) 0.2534(6)
C14 C 0.4167(6) 0.4607(7) 0.2712(6)
C15 C 0.3629(6) 0.5331(7) 0.2939(6)
C16 C 0.2635(6) 0.5539(6) 0.3112(7)
C17 C 0.2094(6) 0.6300(7) 0.3350(7)
C18 C 0.1165(6) 0.6306(7) 0.3392(7)
C19 C 0.1134(6) 0.5525(7) 0.3205(6)
C20 C 0.0291(6) 0.5303(6) 0.3162(6)
C21 C 0.0673(5) 0.1684(6) 0.2812(7)
C22 C 0.0630(6) 0.0863(7) 0.3614(7)
C23 C 0.0112(6) 0.0248(7) 0.3641(7)
C24 C -0.0317(6) 0.1227(7) 0.2152(7)
C25 C 0.0173(6) 0.1890(7) 0.2056(7)
C26 C 0.5500(6) 0.1693(7) 0.2603(7)
C27 C 0.6143(6) 0.1857(7) 0.1865(7)
C28 C 0.7025(6) 0.1209(7) 0.1955(7)
C29 C 0.6658(6) 0.0244(7) 0.3467(7)
C30 C 0.5761(6) 0.0864(7) 0.3418(7)
C31 C 0.4162(6) 0.5945(7) 0.3032(7)
C32 C 0.4524(9) 0.6622(8) 0.2311(8)
C33 C 0.4978(9) 0.7203(9) 0.2410(9)
C34 C 0.4843(8) 0.6415(9) 0.3953(9)
C35 C 0.4345(9) 0.5824(9) 0.3898(8)
C36 C -0.0652(6) 0.5946(7) 0.3245(7)
C37 C -0.0987(6) 0.6801(7) 0.2502(7)
C38 C -0.1890(6) 0.7349(7) 0.2585(7)
C39 C -0.2103(7) 0.6278(8) 0.4066(8)
C40 C -0.1219(7) 0.5659(8) 0.4048(8)
H1 H -0.1236(6) 0.4659(8) 0.2975(8)
H2 H -0.0779(6) 0.3166(7) 0.2791(7)
H3 H 0.2518(6) 0.0736(6) 0.2676(6)
H4 H 0.4229(6) 0.0747(7) 0.2595(7)
H5 H 0.6071(6) 0.3301(7) 0.2298(6)
H6 H 0.5593(6) 0.4784(7) 0.2501(6)
H7 H 0.2347(6) 0.6717(7) 0.3458(7)
H8 H 0.0634(6) 0.6738(7) 0.3518(7)
H9 H 0.0948(6) 0.0713(7) 0.4146(7)
H10 H 0.0095(6) -0.0329(7) 0.4193(7)
H11 H -0.0639(6) 0.1354(7) 0.1631(7)
H12 H 0.0168(6) 0.2462(7) 0.1494(7)
H13 H 0.5987(6) 0.2414(7) 0.1293(7)
H14 H 0.7464(6) 0.1333(7) 0.1436(7)
H15 H 0.6829(6) -0.0317(7) 0.4033(7)
H16 H 0.5328(6) 0.0720(7) 0.3941(7)
H17 H 0.4466(9) 0.6704(8) 0.1705(8)
H18 H 0.5174(9) 0.7707(9) 0.1869(9)
H19 H 0.4958(8) 0.6314(9) 0.4553(9)
H20 H 0.4132(9) 0.5343(9) 0.4449(8)
H21 H -0.0611(6) 0.7016(7) 0.1942(7)
H22 H -0.2122(6) 0.7941(7) 0.2064(7)
H23 H -0.2483(7) 0.6106(8) 0.4626(8)
H24 H -0.1014(7) 0.5060(8) 0.4571(8)
N6_2 N -0.2719(5) 0.0405(6) 0.2754(6)
Hg1_2 Hg 0.8835(1) -0.0691(1) 0.2914(1)
N8_2 N 0.7561(5) 0.7102(6) 0.3333(6)
Hg2_2 Hg -0.3998(1) 0.8157(1) 0.3332(1)
Cl1 Cl -1.7774(2) -0.2016(2) 0.6465(2)
Cl2 Cl -1.7106(2) -0.0847(3) 0.4618(3)
Cl3 Cl -1.8493(2) -0.2272(3) 0.4822(2)
Cl4 Cl -1.6996(2) -0.3860(3) 0.5936(2)
C41 C -1.7031(7) -0.2043(8) 0.5511(8)
C42 C -1.7273(8) -0.2620(10) 0.5122(9)
H25 H -1.6357(7) -0.2332(8) 0.5715(8)
H26 H -1.6862(8) -0.2545(10) 0.4548(9)
Cl5 Cl -1.4694(3) -0.2144(3) -0.0048(3)
Cl6 Cl -1.4065(2) -0.4059(3) 0.0117(3)
Cl7 Cl -1.1852(3) -0.3744(3) -0.0222(3)
Cl8 Cl -1.2954(3) -0.3682(4) 0.1417(3)
C43 C -1.3727(8) -0.3002(9) -0.0239(9)
C44 C -1.2840(10) -0.3105(11) 0.0182(11)
H27 H -1.3595(8) -0.2739(9) -0.0925(9)
H28 H -1.2748(10) -0.2448(10) -0.0019(11)
Cl9 Cl -1.8128(2) -1.0872(3) 0.2312(2)
Cl10 Cl -1.7327(3) -1.1640(3) 0.0977(4)
Cl11 Cl -1.6480(2) -0.9911(3) 0.0906(3)
Cl12 Cl -1.8410(2) -0.8721(3) 0.0480(3)
C45 C -1.8026(8) -1.0612(9) 0.1130(9)
C46 C -1.7596(7) -0.9798(10) 0.0538(9)
H29 H -1.8683(8) -1.0454(9) 0.0911(9)
H30 H -1.7499(7) -0.9752(10) -0.0102(9)
Cl13 Cl -1.1027(3) -0.7435(3) 0.9601(3)
Cl14 Cl -1.0438(2) -0.5766(3) 0.9432(3)
Cl15 Cl -1.3222(2) -0.6182(3) 0.9516(2)
Cl16 Cl -1.2090(2) -0.6477(3) 1.1001(2)
C47 C -1.1403(9) -0.6218(11) 0.9294(10)
C48 C -1.2211(8) -0.5920(10) 0.9794(9)
H31 H -1.1556(9) -0.5877(11) 0.8623(10)
H32 H -1.2335(8) -0.5208(10) 0.9561(9)
loop_
_geom_bond_atom_site_label_1
_geom_bond_atom_site_label_2
_geom_bond_site_symmetry_1
_geom_bond_site_symmetry_2
Hg1 I1 1_555 1_555
Hg2 I3 1_555 1_555
I2 Hg1 1_555 1_555
I4 Hg2 1_555 1_555
Zn1 N1 1_555 1_555
Cl1 C41 1_555 1_555
Cl2 C41 1_555 1_555
Cl3 C42 1_555 1_555
Cl4 C42 1_555 1_555
Cl5 C43 1_555 1_555
Cl6 C43 1_555 1_555
Cl7 C44 1_555 1_555
Cl8 C44 1_555 1_555
Cl9 C45 1_555 1_555
Cl10 C45 1_555 1_555
Cl11 C46 1_555 1_555
Cl12 C46 1_555 1_555
Cl13 C47 1_555 1_555
Cl14 C47 1_555 1_555
Cl15 C48 1_555 1_555
Cl16 C48 1_555 1_555
N1 C1 1_555 1_555
N2 Zn1 1_555 1_555
N3 Zn1 1_555 1_555
N4 Zn1 1_555 1_555
N5 Hg1 1_555 1_555
N6 C28 1_555 1_555
N7 Hg2 1_555 1_555
N8 C38 1_555 1_555
C1 C2 1_555 1_555
C2 C3 1_555 1_555
C3 C4 1_555 1_555
C4 N1 1_555 1_555
C5 C4 1_555 1_555
C6 N2 1_555 1_555
C7 C6 1_555 1_555
C8 C7 1_555 1_555
C9 N2 1_555 1_555
C10 C9 1_555 1_555
C11 N3 1_555 1_555
C12 C11 1_555 1_555
C13 C12 1_555 1_555
C14 N3 1_555 1_555
C15 C14 1_555 1_555
C16 N4 1_555 1_555
C17 C16 1_555 1_555
C18 C17 1_555 1_555
C19 N4 1_555 1_555
C20 C1 1_555 1_555
C21 C5 1_555 1_555
C22 C21 1_555 1_555
C23 N5 1_555 1_555
C24 N5 1_555 1_555
C25 C21 1_555 1_555
C26 C10 1_555 1_555
C27 C26 1_555 1_555
C28 C27 1_555 1_555
C29 N6 1_555 1_555
C30 C26 1_555 1_555
C31 C15 1_555 1_555
C32 C31 1_555 1_555
C33 N7 1_555 1_555
C34 N7 1_555 1_555
C35 C31 1_555 1_555
C36 C20 1_555 1_555
C37 C36 1_555 1_555
C38 C37 1_555 1_555
C39 N8 1_555 1_555
C40 C36 1_555 1_555
C41 C42 1_555 1_555
C42 H26 1_555 1_555
C43 C44 1_555 1_555
C44 H28 1_555 1_555
C45 C46 1_555 1_555
C46 H30 1_555 1_555
C47 C48 1_555 1_555
C48 H32 1_555 1_555
H1 C2 1_555 1_555
H2 C3 1_555 1_555
H3 C7 1_555 1_555
H4 C8 1_555 1_555
H5 C12 1_555 1_555
H6 C13 1_555 1_555
H7 C17 1_555 1_555
H8 C18 1_555 1_555
H9 C22 1_555 1_555
H10 C23 1_555 1_555
H11 C24 1_555 1_555
H12 C25 1_555 1_555
H13 C27 1_555 1_555
H14 C28 1_555 1_555
H15 C29 1_555 1_555
H16 C30 1_555 1_555
H17 C32 1_555 1_555
H18 C33 1_555 1_555
H19 C34 1_555 1_555
H20 C35 1_555 1_555
H21 C37 1_555 1_555
H22 C38 1_555 1_555
H23 C39 1_555 1_555
H24 C40 1_555 1_555
H25 C41 1_555 1_555
H27 C43 1_555 1_555
H29 C45 1_555 1_555
H31 C47 1_555 1_555
N6_2 Hg1 1_555 1_555
Hg1_2 N6 1_555 1_555
N8_2 Hg2 1_555 1_555
Hg2_2 N8 1_555 1_555
C5 C6 1_555 1_555
C8 C9 1_555 1_555
C10 C11 1_555 1_555
C13 C14 1_555 1_555
C15 C16 1_555 1_555
C18 C19 1_555 1_555
C19 C20 1_555 1_555
C22 C23 1_555 1_555
C24 C25 1_555 1_555
C29 C30 1_555 1_555
C32 C33 1_555 1_555
C34 C35 1_555 1_555
C39 C40 1_555 1_555

#END
