
#######################################################################
#
#                 Cambridge Crystallographic Data Centre
#                                CCDC 
#
#######################################################################
#
# If this CIF has been generated from an entry in the Cambridge 
# Structural Database, then it will include bibliographic, chemical, 
# crystal, experimental, refinement or atomic coordinate data resulting 
# from the CCDC's data processing and validation procedures.
#
#######################################################################

data_BAKPOS
_symmetry_cell_setting           triclinic
_symmetry_space_group_name_H-M   'P -1'
_symmetry_Int_Tables_number      2
_space_group_name_Hall           '-P 1'
loop_
_symmetry_equiv_pos_site_id
_symmetry_equiv_pos_as_xyz
1 x,y,z
2 -x,-y,-z
_cell_length_a                   10.8167(6)
_cell_length_b                   11.6757(7)
_cell_length_c                   16.1584(9)
_cell_angle_alpha                104.591(1)
_cell_angle_beta                 95.899(2)
_cell_angle_gamma                101.073(1)
_cell_volume                     1913.4
loop_
_atom_site_label
_atom_site_type_symbol
_atom_site_fract_x
_atom_site_fract_y
_atom_site_fract_z
Hg1 Hg 0.8270(1) 0.8739(1) 0.0412(1)
Br1 Br 0.6606(1) 0.9784(1) 0.0043(1)
Br2 Br 0.9501(1) 0.7261(1) -0.0238(1)
N1 N 0.6443(7) 0.6495(7) 0.5033(6)
N2 N 0.4451(7) 0.4765(7) 0.3708(6)
N3 N 0.7531(8) 0.7969(8) 0.1574(6)
N4 N 1.0155(8) 0.9690(8) 0.8561(6)
C1 C 0.7290(9) 0.7193(9) 0.5771(7)
C2 C 0.8100(10) 0.8106(10) 0.5500(8)
C3 C 0.7772(10) 0.7946(10) 0.4666(8)
C4 C 0.6692(9) 0.6914(9) 0.4341(7)
C5 C 0.6035(9) 0.6436(9) 0.3484(7)
C6 C 0.4992(10) 0.5423(9) 0.3216(7)
C7 C 0.4288(10) 0.4991(10) 0.2344(7)
C8 C 0.3378(10) 0.4033(9) 0.2307(7)
C9 C 0.3471(9) 0.3891(9) 0.3160(7)
C10 C 0.7353(9) 0.7033(9) 0.6596(7)
C11 C 0.6565(9) 0.7000(9) 0.2836(7)
C12 C 0.7105(12) 0.6348(11) 0.2210(8)
C13 C 0.7595(11) 0.6841(10) 0.1607(8)
C14 C 0.6991(10) 0.8614(10) 0.2196(8)
C15 C 0.6511(10) 0.8167(11) 0.2811(7)
C16 C 0.8316(9) 0.7927(9) 0.7301(7)
C17 C 0.8017(10) 0.8913(11) 0.7833(8)
C18 C 0.8960(11) 0.9770(10) 0.8455(8)
C19 C 1.0442(10) 0.8737(10) 0.8059(8)
C20 C 0.9576(10) 0.7845(10) 0.7435(8)
H1 H 0.5875(7) 0.5761(7) 0.4975(6)
H2 H 0.8772(10) 0.8731(10) 0.5867(8)
H3 H 0.8174(10) 0.8425(10) 0.4331(8)
H4 H 0.4448(10) 0.5334(10) 0.1881(7)
H5 H 0.2784(10) 0.3541(9) 0.1813(7)
H6 H 0.7138(12) 0.5536(11) 0.2195(8)
H7 H 0.7999(11) 0.6375(10) 0.1192(8)
H8 H 0.6949(10) 0.9419(10) 0.2196(8)
H9 H 0.6133(10) 0.8652(11) 0.3232(7)
H10 H 0.7165(10) 0.9015(11) 0.7779(8)
H11 H 0.8726(11) 1.0443(10) 0.8820(8)
H12 H 1.1302(10) 0.8661(10) 0.8133(8)
H13 H 0.9841(10) 0.7172(10) 0.7095(8)
C10A C 0.2647(9) 0.2967(9) 0.3404(7)
C1A C 0.2710(9) 0.2807(9) 0.4229(7)
N1A N 0.3557(7) 0.3505(7) 0.4967(6)
C4A C 0.3308(9) 0.3086(9) 0.5659(7)
C3A C 0.2228(10) 0.2054(10) 0.5334(8)
C2A C 0.1900(10) 0.1894(10) 0.4500(8)
H2A H 0.1228(10) 0.1269(10) 0.4133(8)
H3A H 0.1826(10) 0.1575(10) 0.5669(8)
C5A C 0.3965(9) 0.3564(9) 0.6516(7)
C6A C 0.5008(10) 0.4577(9) 0.6784(7)
N2A N 0.5549(7) 0.5235(7) 0.6292(6)
C9A C 0.6529(9) 0.6109(9) 0.6840(7)
C8A C 0.6622(10) 0.5967(9) 0.7693(7)
C7A C 0.5712(10) 0.5009(10) 0.7656(7)
H4A H 0.5552(10) 0.4666(10) 0.8119(7)
H5A H 0.7216(10) 0.6459(9) 0.8187(7)
C11A C 0.3435(9) 0.3000(9) 0.7164(7)
C12A C 0.2895(12) 0.3652(11) 0.7790(8)
C13A C 0.2405(11) 0.3159(10) 0.8393(8)
N3A N 0.2469(8) 0.2031(8) 0.8426(6)
C14A C 0.3009(10) 0.1386(10) 0.7804(8)
C15A C 0.3489(10) 0.1833(11) 0.7189(7)
H9A H 0.3867(10) 0.1348(11) 0.6768(7)
H8A H 0.3051(10) 0.0581(10) 0.7804(8)
H7A H 0.2001(11) 0.3625(10) 0.8808(8)
H6A H 0.2862(12) 0.4464(11) 0.7805(8)
H1A H 0.4125(7) 0.4239(7) 0.5025(6)
C16A C 0.1684(9) 0.2073(9) 0.2699(7)
C17A C 0.1983(10) 0.1087(11) 0.2167(8)
C18A C 0.1040(11) 0.0230(10) 0.1545(8)
N4A N -0.0155(8) 0.0310(8) 0.1439(6)
C19A C -0.0442(10) 0.1263(10) 0.1941(8)
C20A C 0.0424(10) 0.2155(10) 0.2565(8)
H13A H 0.0159(10) 0.2828(10) 0.2905(8)
H12A H -0.1302(10) 0.1339(10) 0.1867(8)
H11A H 0.1274(11) -0.0443(10) 0.1180(8)
H10A H 0.2835(10) 0.0985(11) 0.2221(8)
N4A_2 N 0.9845(8) 1.0310(8) 0.1439(6)
Hg1A Hg 0.1730(1) 0.1261(1) 0.9588(1)
Hg1A_2 Hg 1.1730(1) 1.1261(1) 0.9588(1)
Hg1_2 Hg -0.1730(1) -0.1261(1) 0.0412(1)
N3_2 N -0.2469(8) -0.2031(8) 0.1574(6)
Br1_2 Br -0.3394(1) -0.0216(1) 0.0043(1)
Br2_2 Br -0.0499(1) -0.2739(1) -0.0238(1)
Cl1 Cl 0.5112(3) 0.3628(3) 0.0053(3)
Cl2 Cl 0.7147(4) 0.3234(3) 0.1226(3)
Cl3 Cl 0.7935(3) 0.4207(3) -0.0445(3)
Cl4 Cl 0.6267(4) 0.1900(3) -0.1503(3)
C21 C 0.6208(12) 0.2726(11) 0.0174(10)
C22 C 0.7122(12) 0.2744(11) -0.0479(10)
H14 H 0.5726(12) 0.1870(11) 0.0079(10)
H15 H 0.7779(12) 0.2301(11) -0.0329(10)
Cl5 Cl 1.0494(7) 0.8085(5) 0.3058(6)
Cl6 Cl 1.3068(4) 0.8018(5) 0.3685(3)
Cl7 Cl 1.0735(7) 0.6022(7) 0.3998(4)
Cl8 Cl 1.0043(4) 0.5147(4) 0.2159(3)
C23 C 1.1643(16) 0.7282(18) 0.2905(12)
C24 C 1.1245(14) 0.5991(13) 0.3033(12)
H16 H 1.1851(16) 0.7206(18) 0.2307(12)
H17 H 1.1996(14) 0.5607(13) 0.3004(12)
Cl9 Cl 0.7730(4) 0.3803(4) 0.3673(3)
Cl10 Cl 0.7940(3) 0.1369(3) 0.3983(3)
Cl11 Cl 0.5680(4) 0.1522(4) 0.2527(3)
Cl12 Cl 0.5059(4) 0.1003(4) 0.4202(3)
C25 C 0.6872(19) 0.2346(19) 0.4180(14)
C26 C 0.5903(18) 0.2256(18) 0.3612(12)
H18 H 0.6737(19) 0.2607(19) 0.4796(14)
H19 H 0.5552(18) 0.3003(18) 0.3731(12)
loop_
_geom_bond_atom_site_label_1
_geom_bond_atom_site_label_2
_geom_bond_site_symmetry_1
_geom_bond_site_symmetry_2
Hg1 Br1 1_555 1_555
Br2 Hg1 1_555 1_555
Cl1 C21 1_555 1_555
Cl2 C21 1_555 1_555
Cl3 C22 1_555 1_555
Cl4 C22 1_555 1_555
Cl5 C23 1_555 1_555
Cl6 C23 1_555 1_555
Cl7 C24 1_555 1_555
Cl8 C24 1_555 1_555
Cl9 C25 1_555 1_555
Cl10 C25 1_555 1_555
Cl11 C26 1_555 1_555
Cl12 C26 1_555 1_555
N1 C1 1_555 1_555
N2 C6 1_555 1_555
N3 Hg1 1_555 1_555
N4 C18 1_555 1_555
C1 C2 1_555 1_555
C2 C3 1_555 1_555
C3 C4 1_555 1_555
C4 N1 1_555 1_555
C5 C4 1_555 1_555
C6 C5 1_555 1_555
C7 C6 1_555 1_555
C8 C7 1_555 1_555
C9 N2 1_555 1_555
C10 C1 1_555 1_555
C11 C5 1_555 1_555
C12 C11 1_555 1_555
C13 N3 1_555 1_555
C14 N3 1_555 1_555
C15 C11 1_555 1_555
C16 C10 1_555 1_555
C17 C16 1_555 1_555
C18 C17 1_555 1_555
C19 N4 1_555 1_555
C20 C16 1_555 1_555
C21 C22 1_555 1_555
C22 H15 1_555 1_555
C23 C24 1_555 1_555
C24 H17 1_555 1_555
C25 C26 1_555 1_555
C26 H19 1_555 1_555
H1 N1 1_555 1_555
H2 C2 1_555 1_555
H3 C3 1_555 1_555
H4 C7 1_555 1_555
H5 C8 1_555 1_555
H6 C12 1_555 1_555
H7 C13 1_555 1_555
H8 C14 1_555 1_555
H9 C15 1_555 1_555
H10 C17 1_555 1_555
H11 C18 1_555 1_555
H12 C19 1_555 1_555
H13 C20 1_555 1_555
H14 C21 1_555 1_555
H16 C23 1_555 1_555
H18 C25 1_555 1_555
C10A C9 1_555 1_555
C1A C10A 1_555 1_555
N1A C1A 1_555 1_555
C4A N1A 1_555 1_555
C3A C4A 1_555 1_555
C2A C1A 1_555 1_555
H2A C2A 1_555 1_555
H3A C3A 1_555 1_555
C5A C4A 1_555 1_555
C6A C5A 1_555 1_555
N2A C6A 1_555 1_555
C9A C10 1_555 1_555
C8A C9A 1_555 1_555
C7A C6A 1_555 1_555
H4A C7A 1_555 1_555
H5A C8A 1_555 1_555
C11A C5A 1_555 1_555
C12A C11A 1_555 1_555
C13A C12A 1_555 1_555
N3A C13A 1_555 1_555
C14A N3A 1_555 1_555
C15A C11A 1_555 1_555
H9A C15A 1_555 1_555
H8A C14A 1_555 1_555
H7A C13A 1_555 1_555
H6A C12A 1_555 1_555
H1A N1A 1_555 1_555
C16A C10A 1_555 1_555
C17A C16A 1_555 1_555
C18A C17A 1_555 1_555
N4A C18A 1_555 1_555
C19A N4A 1_555 1_555
C20A C16A 1_555 1_555
H13A C20A 1_555 1_555
H12A C19A 1_555 1_555
H11A C18A 1_555 1_555
H10A C17A 1_555 1_555
N4A_2 Hg1 1_555 1_555
Hg1A N3A 1_555 1_555
Hg1A_2 N4 1_555 1_555
Hg1_2 N4A 1_555 1_555
N3_2 Hg1_2 1_555 1_555
Br1_2 Hg1_2 1_555 1_555
Br2_2 Hg1_2 1_555 1_555
C8 C9 1_555 1_555
C12 C13 1_555 1_555
C14 C15 1_555 1_555
C19 C20 1_555 1_555
C3A C2A 1_555 1_555
N2A C9A 1_555 1_555
C8A C7A 1_555 1_555
C14A C15A 1_555 1_555
C19A C20A 1_555 1_555

#END
