
#######################################################################
#
#                 Cambridge Crystallographic Data Centre
#                                CCDC 
#
#######################################################################
#
# If this CIF has been generated from an entry in the Cambridge 
# Structural Database, then it will include bibliographic, chemical, 
# crystal, experimental, refinement or atomic coordinate data resulting 
# from the CCDC's data processing and validation procedures.
#
#######################################################################

data_BAKREK01
_symmetry_cell_setting           triclinic
_symmetry_space_group_name_H-M   'P -1'
_symmetry_Int_Tables_number      2
_space_group_name_Hall           '-P 1'
loop_
_symmetry_equiv_pos_site_id
_symmetry_equiv_pos_as_xyz
1 x,y,z
2 -x,-y,-z
_cell_length_a                   14.5981(4)
_cell_length_b                   16.1529(5)
_cell_length_c                   16.2682(5)
_cell_angle_alpha                61.764(3)
_cell_angle_beta                 80.443(3)
_cell_angle_gamma                73.315(3)
_cell_volume                     3235.24
loop_
_atom_site_label
_atom_site_type_symbol
_atom_site_fract_x
_atom_site_fract_y
_atom_site_fract_z
Hg1 Hg 1.38268(2) -0.06823(3) 0.29138(2)
Hg2 Hg 2.09828(2) 0.81830(3) 0.33314(2)
I1 I 1.38802(4) -0.20177(4) 0.46665(4)
I2 I 1.42536(4) -0.04240(5) 0.11702(4)
I3 I 2.08956(4) 0.95512(4) 0.15962(4)
I4 I 2.06858(4) 0.77837(5) 0.51019(4)
N1 N 1.8834(4) 0.3954(5) 0.2646(5)
H1 H 1.8229 0.3942 0.2689
N2 N 1.7013(4) 0.5080(5) 0.3047(4)
N3 N 1.7796(4) 0.2639(5) 0.2710(5)
N4 N 1.5985(4) 0.3883(4) 0.2898(4)
H3 H 1.6593 0.3868 0.2895
C1 C 1.9598(6) 0.3286(6) 0.2502(6)
C2 C 2.0434(6) 0.3611(6) 0.2415(5)
H4 H 2.1068 0.3306 0.2299
C3 C 2.0172(6) 0.4426(6) 0.2525(6)
H5 H 2.0593 0.4797 0.2483
C4 C 1.9159(5) 0.4642(6) 0.2714(5)
C5 C 1.8612(6) 0.5348(6) 0.2959(6)
C6 C 1.7606(6) 0.5555(6) 0.3131(6)
C7 C 1.7072(6) 0.6311(6) 0.3363(6)
H6 H 1.7333 0.6730 0.3462
C8 C 1.6139(6) 0.6332(6) 0.3417(5)
H7 H 1.5613 0.6755 0.3562
C9 C 1.6121(6) 0.5556(6) 0.3202(5)
C10 C 1.5272(5) 0.5325(6) 0.3169(5)
C11 C 1.5220(5) 0.4574(6) 0.3002(6)
C12 C 1.4376(6) 0.4329(6) 0.2929(6)
H8 H 1.3737 0.4682 0.2957
C13 C 1.4634(6) 0.3526(6) 0.2815(6)
H9 H 1.4208 0.3213 0.2754
C14 C 1.5642(5) 0.3215(6) 0.2800(6)
C15 C 1.6203(6) 0.2397(5) 0.2748(5)
C16 C 1.7195(6) 0.2117(6) 0.2718(5)
C17 C 1.7752(6) 0.1248(6) 0.2656(5)
H10 H 1.7506 0.0773 0.2636
C18 C 1.8685(6) 0.1238(6) 0.2630(6)
H11 H 1.9219 0.0751 0.2599
C19 C 1.8711(5) 0.2110(5) 0.2658(5)
C20 C 1.9555(5) 0.2412(6) 0.2547(5)
N5 N 2.0133(5) 0.7117(5) 0.3240(5)
C21 C 1.9839(9) 0.6433(8) 0.3952(8)
H12 H 1.9964 0.6329 0.4553
C22 C 1.9346(8) 0.5825(8) 0.3909(7)
H13 H 1.9155 0.5325 0.4465
C23 C 1.9144(5) 0.5966(6) 0.3050(6)
C24 C 1.9503(9) 0.6640(8) 0.2316(8)
H14 H 1.9436 0.6726 0.1707
C25 C 1.9977(9) 0.7223(8) 0.2419(9)
H15 H 2.0194 0.7714 0.1874
N6 N 1.2526(5) 0.7130(5) 0.3335(5)
C26 C 1.3101(6) 0.7381(6) 0.2571(7)
H16 H 1.2879 0.7975 0.2040
C27 C 1.3992(6) 0.6831(6) 0.2512(6)
H17 H 1.4374 0.7054 0.1955
C28 C 1.4334(5) 0.5967(6) 0.3246(6)
C29 C 1.3768(6) 0.5685(6) 0.4065(6)
H18 H 1.3978 0.5089 0.4598
C30 C 1.2874(7) 0.6313(7) 0.4075(7)
H19 H 1.2499 0.6143 0.4642
N7 N 1.4626(5) 0.0453(5) 0.2908(5)
C31 C 1.4662(6) 0.1276(7) 0.2125(6)
H20 H 1.4325 0.1426 0.1601
C32 C 1.5162(6) 0.1905(6) 0.2050(6)
H21 H 1.5169 0.2477 0.1483
C33 C 1.5660(5) 0.1710(6) 0.2800(6)
C34 C 1.5617(6) 0.0866(6) 0.3602(6)
H22 H 1.5944 0.0702 0.4137
C35 C 1.5103(6) 0.0266(6) 0.3627(6)
H23 H 1.5087 -0.0312 0.4187
N8 N 2.2274(5) 0.0419(5) 0.2744(5)
C36 C 2.2012(6) 0.1217(6) 0.1945(6)
H24 H 2.2445 0.1330 0.1420
C37 C 2.1147(6) 0.1880(6) 0.1844(6)
H25 H 2.0999 0.2447 0.1269
C38 C 2.0495(6) 0.1707(6) 0.2596(6)
C39 C 2.0753(6) 0.0858(6) 0.3408(6)
H26 H 2.0314 0.0697 0.3929
C40 C 2.1636(5) 0.0254(6) 0.3460(6)
H27 H 2.1805 -0.0310 0.4032
Hg1_2 Hg 2.38268(2) -0.06823(3) 0.29138(2)
Hg2_2 Hg 1.09828(2) 0.81830(3) 0.33314(2)
N6_2 N 2.2526(5) 0.7130(5) 0.3335(5)
N8_2 N 1.2274(5) 0.0419(5) 0.2744(5)
Cl1 Cl 0.79977(18) 0.6138(2) 0.5955(2)
Cl2 Cl 0.64918(18) 0.7745(2) 0.48342(19)
Cl3 Cl 0.7873(2) 0.9166(2) 0.4611(2)
Cl4 Cl 0.72315(16) 0.79762(18) 0.64933(17)
C41 C 0.7707(7) 0.7409(8) 0.5119(7)
H28 H 0.8113 0.7492 0.4539
C42 C 0.7949(6) 0.7966(7) 0.5512(7)
H29 H 0.8629 0.7674 0.5706
Cl5 Cl 0.6840(2) 0.3760(3) 0.0158(3)
Cl6 Cl 0.7987(3) 0.3700(3) -0.1480(3)
Cl7 Cl 0.9051(2) 0.4072(2) -0.0141(2)
Cl8 Cl 0.9694(2) 0.2147(2) 0.0038(2)
C43 C 0.7840(10) 0.3119(9) -0.0240(9)
H30 H 0.7746 0.2460 -0.0044
C44 C 0.8723(8) 0.3004(8) 0.0209(8)
H31 H 0.8576 0.2739 0.0897
Cl9 Cl 0.70922(18) 0.6456(2) -0.10105(16)
Cl10 Cl 0.82307(19) 0.6175(2) 0.04959(17)
Cl11 Cl 0.6056(2) 0.7402(2) 0.0419(2)
Cl12 Cl 0.5468(2) 0.5724(2) 0.0558(2)
C45 C 0.7215(9) 0.5874(9) 0.0209(8)
H32 H 0.7349 0.5158 0.0442
C46 C 0.6441(11) 0.6166(10) 0.0736(9)
H33 H 0.6602 0.5809 0.1411
Cl13 Cl 0.68514(19) 0.9153(2) 0.23275(19)
Cl14 Cl 0.7666(2) 0.8349(3) 0.0990(3)
Cl15 Cl 0.8516(2) 1.0073(3) 0.0919(2)
Cl16 Cl 0.6586(2) 1.1288(2) 0.0473(2)
C47 C 0.6948(7) 0.9397(8) 0.1140(8)
H34 H 0.6292 0.9564 0.0914
C48 C 0.7398(7) 1.0202(8) 0.0553(8)
H35 H 0.7495 1.0245 -0.0088
H2? H 0.7630 0.3197 0.2733
H36? H 0.7172 0.4582 0.2922
loop_
_geom_bond_atom_site_label_1
_geom_bond_atom_site_label_2
_geom_bond_site_symmetry_1
_geom_bond_site_symmetry_2
Hg1 I1 1_555 1_555
Hg2 I3 1_555 1_555
I2 Hg1 1_555 1_555
I4 Hg2 1_555 1_555
N1 H1 1_555 1_555
N2 C6 1_555 1_555
N3 C16 1_555 1_555
N4 H3 1_555 1_555
C1 N1 1_555 1_555
C2 C1 1_555 1_555
H4 C2 1_555 1_555
C3 C2 1_555 1_555
H5 C3 1_555 1_555
C4 N1 1_555 1_555
C5 C4 1_555 1_555
C6 C5 1_555 1_555
C7 C6 1_555 1_555
H6 C7 1_555 1_555
C8 C7 1_555 1_555
H7 C8 1_555 1_555
C9 N2 1_555 1_555
C10 C9 1_555 1_555
C11 N4 1_555 1_555
C12 C11 1_555 1_555
H8 C12 1_555 1_555
C13 C12 1_555 1_555
H9 C13 1_555 1_555
C14 N4 1_555 1_555
C15 C14 1_555 1_555
C16 C15 1_555 1_555
C17 C16 1_555 1_555
H10 C17 1_555 1_555
C18 C17 1_555 1_555
H11 C18 1_555 1_555
C19 N3 1_555 1_555
C20 C1 1_555 1_555
N5 Hg2 1_555 1_555
C21 N5 1_555 1_555
H12 C21 1_555 1_555
C22 C21 1_555 1_555
H13 C22 1_555 1_555
C23 C5 1_555 1_555
C24 C23 1_555 1_555
H14 C24 1_555 1_555
C25 N5 1_555 1_555
H15 C25 1_555 1_555
N6 C26 1_555 1_555
C26 H16 1_555 1_555
C27 C26 1_555 1_555
H17 C27 1_555 1_555
C28 C10 1_555 1_555
C29 C28 1_555 1_555
H18 C29 1_555 1_555
C30 N6 1_555 1_555
H19 C30 1_555 1_555
N7 Hg1 1_555 1_555
C31 N7 1_555 1_555
H20 C31 1_555 1_555
C32 C31 1_555 1_555
H21 C32 1_555 1_555
C33 C15 1_555 1_555
C34 C33 1_555 1_555
H22 C34 1_555 1_555
C35 N7 1_555 1_555
H23 C35 1_555 1_555
N8 C36 1_555 1_555
C36 H24 1_555 1_555
C37 C36 1_555 1_555
H25 C37 1_555 1_555
C38 C20 1_555 1_555
C39 C38 1_555 1_555
H26 C39 1_555 1_555
C40 N8 1_555 1_555
H27 C40 1_555 1_555
Cl1 C41 1_555 1_555
Cl2 C41 1_555 1_555
Cl3 C42 1_555 1_555
Cl4 C42 1_555 1_555
C41 H28 1_555 1_555
C42 C41 1_555 1_555
H29 C42 1_555 1_555
Cl5 C43 1_555 1_555
Cl6 C43 1_555 1_555
Cl7 C44 1_555 1_555
Cl8 C44 1_555 1_555
C43 H30 1_555 1_555
C44 C43 1_555 1_555
H31 C44 1_555 1_555
Cl9 C45 1_555 1_555
Cl10 C45 1_555 1_555
Cl11 C46 1_555 1_555
Cl12 C46 1_555 1_555
C45 H32 1_555 1_555
C46 C45 1_555 1_555
H33 C46 1_555 1_555
Cl13 C47 1_555 1_555
Cl14 C47 1_555 1_555
Cl15 C48 1_555 1_555
Cl16 C48 1_555 1_555
C47 H34 1_555 1_555
C48 C47 1_555 1_555
H35 C48 1_555 1_555
Hg1_2 N8 1_555 1_555
Hg2_2 N6 1_555 1_555
N6_2 Hg2 1_555 1_555
N8_2 Hg1 1_555 1_555
C3 C4 1_555 1_555
C8 C9 1_555 1_555
C10 C11 1_555 1_555
C13 C14 1_555 1_555
C18 C19 1_555 1_555
C19 C20 1_555 1_555
C22 C23 1_555 1_555
C24 C25 1_555 1_555
C27 C28 1_555 1_555
C29 C30 1_555 1_555
C32 C33 1_555 1_555
C34 C35 1_555 1_555
C37 C38 1_555 1_555
C39 C40 1_555 1_555

#END
