
#######################################################################
#
#                 Cambridge Crystallographic Data Centre
#                                CCDC 
#
#######################################################################
#
# If this CIF has been generated from an entry in the Cambridge 
# Structural Database, then it will include bibliographic, chemical, 
# crystal, experimental, refinement or atomic coordinate data resulting 
# from the CCDC's data processing and validation procedures.
#
#######################################################################

data_BAKWIV
_symmetry_cell_setting           monoclinic
_symmetry_space_group_name_H-M   'P 21/c'
_symmetry_Int_Tables_number      14
_space_group_name_Hall           '-P 2ybc'
loop_
_symmetry_equiv_pos_site_id
_symmetry_equiv_pos_as_xyz
1 x,y,z
2 -x,1/2+y,1/2-z
3 -x,-y,-z
4 x,1/2-y,1/2+z
_cell_length_a                   6.0357(13)
_cell_length_b                   7.6106(17)
_cell_length_c                   24.389(5)
_cell_angle_alpha                90
_cell_angle_beta                 100.136(5)
_cell_angle_gamma                90
_cell_volume                     1102.83
loop_
_atom_site_label
_atom_site_type_symbol
_atom_site_fract_x
_atom_site_fract_y
_atom_site_fract_z
Nd1 Nd 0.13966(8) 0.13098(7) 0.84730(2)
C1 C 0.240(2) 0.1651(18) 0.9890(5)
C2 C 0.108(2) -0.0076(18) 0.9877(4)
H1 H 0.2054 -0.0973 1.0084
C3 C 0.1096(19) 0.2484(14) 0.7138(4)
C4 C 0.2843(19) 0.1080(13) 0.7125(4)
H2 H 0.4300 0.1648 0.7126
C5 C 0.2206(16) -0.0035(12) 0.6568(4)
H3 H 0.2469 0.0683 0.6252
C6 C 0.3597(16) -0.1691(15) 0.6589(4)
O1 O 0.243(2) 0.2397(16) 0.9433(4)
O2 O 0.340(2) 0.2289(17) 1.0339(4)
O3 O 0.0605(17) -0.0556(12) 0.9316(4)
H4 H 0.1068 -0.1554 0.9280
O4 O -0.0025(13) 0.2418(10) 0.7532(3)
O5 O 0.0723(16) 0.3555(9) 0.6744(4)
O6 O 0.3024(14) -0.0026(9) 0.7609(3)
H5 H 0.2071 -0.0804 0.7552
O7 O -0.0102(11) -0.0497(9) 0.6491(3)
H6 H -0.0779 -0.0013 0.6211
O8 O 0.2543(12) -0.3106(11) 0.6554(4)
O9 O 0.5702(13) -0.1570(10) 0.6632(4)
O10 O 0.4658(15) -0.0645(14) 0.8734(4)
H7 H 0.5373 -0.1148 0.9033
H8 H 0.5849 -0.0466 0.8582
Nd1B Nd -0.13966(8) -0.13098(7) 1.15270(2)
Nd1A Nd -0.13966(8) -0.36902(7) 0.65270(2)
Nd1A_2 Nd -0.13966(8) 0.63098(7) 0.65270(2)
Nd1A_3 Nd 0.86034(8) -0.36902(7) 0.65270(2)
Nd1C Nd -0.86034(8) 0.36902(7) 1.34730(2)
Nd1C_2 Nd 0.13966(8) -0.63098(7) 1.34730(2)
Nd1C_3 Nd 0.13966(8) 0.36902(7) 1.34730(2)
C1B C -0.240(2) -0.1651(18) 1.0110(5)
C2B C -0.108(2) 0.0076(18) 1.0123(4)
H1B H -0.2054 0.0973 0.9916
C3B C -0.1096(19) -0.2484(14) 1.2862(4)
C4B C -0.2843(19) -0.1080(13) 1.2875(4)
H2B H -0.4300 -0.1648 1.2874
C5B C -0.2206(16) 0.0035(12) 1.3432(4)
H3B H -0.2469 -0.0683 1.3748
C6B C -0.3597(16) 0.1691(15) 1.3411(4)
O1B O -0.243(2) -0.2397(16) 1.0567(4)
O2B O -0.340(2) -0.2289(17) 0.9661(4)
O3B O -0.0605(17) 0.0556(12) 1.0684(4)
H4B H -0.1068 0.1554 1.0720
O4B O 0.0025(13) -0.2418(10) 1.2468(3)
O5B O -0.0723(16) -0.3555(9) 1.3256(4)
O5A O -0.0723(16) -0.1445(9) 0.8256(4)
O5C O 0.0723(16) 0.1445(9) 1.1744(4)
O6B O -0.3024(14) 0.0026(9) 1.2391(3)
H5B H -0.2071 0.0804 1.2448
O7B O 0.0102(11) 0.0497(9) 1.3509(3)
O7A O 0.0102(11) 0.4503(9) 0.8509(3)
O7C O -0.0102(11) -0.4503(9) 1.1491(3)
H6B H 0.0779 0.0013 1.3789
O8B O -0.2543(12) 0.3106(11) 1.3446(4)
O8A O -0.2543(12) 0.1894(11) 0.8446(4)
O8C O 0.2543(12) -0.1894(11) 1.1554(4)
O9B O -0.5702(13) 0.1570(10) 1.3368(4)
O9A O 0.4298(13) 0.3430(10) 0.8368(4)
O9C O -0.4298(13) -0.3430(10) 1.1632(4)
O10B O -0.4658(15) 0.0645(14) 1.1266(4)
H7B H -0.5373 0.1148 1.0967
H8B H -0.5849 0.0466 1.1418
O11 O 0.249(3) 0.6067(16) 0.9443(6)
H9 H 0.2718 0.5010 0.9480
H10 H 0.3396 0.6821 0.9625
loop_
_geom_bond_atom_site_label_1
_geom_bond_atom_site_label_2
_geom_bond_site_symmetry_1
_geom_bond_site_symmetry_2
Nd1 O1 1_555 1_555
C1 C2 1_555 1_555
C2 H1 1_555 1_555
C3 C4 1_555 1_555
C4 H2 1_555 1_555
C5 C4 1_555 1_555
H3 C5 1_555 1_555
C6 C5 1_555 1_555
O1 C1 1_555 1_555
O2 C1 1_555 1_555
O3 Nd1 1_555 1_555
H4 O3 1_555 1_555
O4 Nd1 1_555 1_555
O5 C3 1_555 1_555
O6 Nd1 1_555 1_555
H5 O6 1_555 1_555
O7 C5 1_555 1_555
H6 O7 1_555 1_555
O8 C6 1_555 1_555
O9 C6 1_555 1_555
O10 Nd1 1_555 1_555
H7 O10 1_555 1_555
H8 O10 1_555 1_555
O11 H9 1_555 1_555
H10 O11 1_555 1_555
Nd1B O1B 1_555 1_555
Nd1A O7 1_555 1_555
Nd1A_2 O5 1_555 1_555
Nd1A_3 O9 1_555 1_555
Nd1C O9B 1_555 1_555
Nd1C_2 O5B 1_555 1_555
Nd1C_3 O7B 1_555 1_555
C1B C2B 1_555 1_555
C2B C2 1_555 1_555
H1B C2B 1_555 1_555
C3B C4B 1_555 1_555
C4B H2B 1_555 1_555
C5B C4B 1_555 1_555
H3B C5B 1_555 1_555
C6B C5B 1_555 1_555
O1B C1B 1_555 1_555
O2B C1B 1_555 1_555
O3B Nd1B 1_555 1_555
H4B O3B 1_555 1_555
O4B Nd1B 1_555 1_555
O5B C3B 1_555 1_555
O5A Nd1 1_555 1_555
O5C Nd1B 1_555 1_555
O6B Nd1B 1_555 1_555
H5B O6B 1_555 1_555
O7B C5B 1_555 1_555
O7A Nd1 1_555 1_555
O7C Nd1B 1_555 1_555
H6B O7B 1_555 1_555
O8B Nd1C_3 1_555 1_555
O8A Nd1 1_555 1_555
O8C Nd1B 1_555 1_555
O9B C6B 1_555 1_555
O9A Nd1 1_555 1_555
O9C Nd1B 1_555 1_555
O10B Nd1B 1_555 1_555
H7B O10B 1_555 1_555
H8B O10B 1_555 1_555
C2 O3 1_555 1_555
C3 O4 1_555 1_555
C4 O6 1_555 1_555
O8 Nd1A 1_555 1_555
C2B O3B 1_555 1_555
C3B O4B 1_555 1_555
C4B O6B 1_555 1_555
C6B O8B 1_555 1_555

#END
