
#######################################################################
#
#                 Cambridge Crystallographic Data Centre
#                                CCDC 
#
#######################################################################
#
# If this CIF has been generated from an entry in the Cambridge 
# Structural Database, then it will include bibliographic, chemical, 
# crystal, experimental, refinement or atomic coordinate data resulting 
# from the CCDC's data processing and validation procedures.
#
#######################################################################

data_BAKWAN
_symmetry_cell_setting           triclinic
_symmetry_space_group_name_H-M   'P -1'
_symmetry_Int_Tables_number      2
_space_group_name_Hall           '-P 1'
loop_
_symmetry_equiv_pos_site_id
_symmetry_equiv_pos_as_xyz
1 x,y,z
2 -x,-y,-z
_cell_length_a                   9.3937(6)
_cell_length_b                   9.8644(6)
_cell_length_c                   10.9922(6)
_cell_angle_alpha                93.5460(10)
_cell_angle_beta                 101.7750(10)
_cell_angle_gamma                107.7470(10)
_cell_volume                     941.243
loop_
_atom_site_label
_atom_site_type_symbol
_atom_site_fract_x
_atom_site_fract_y
_atom_site_fract_z
Mn1 Mn 0.43206(3) 0.51520(3) 0.61651(3)
O1 O 0.2270(2) 0.3854(2) 0.48974(16)
O2 O 0.33208(18) 0.3646(2) 0.32808(16)
O3 O 0.16950(17) 0.10828(17) 0.17437(14)
O4 O 0.3941(2) -0.3096(2) 0.52936(18)
O5 O 0.5023(2) -0.32827(19) 0.36933(19)
N1 N 0.3765(2) 0.53579(19) 0.79526(16)
N2 N 0.2708(2) 0.4945(2) 0.95527(18)
C1 C 0.2214(3) 0.3385(2) 0.3794(2)
C2 C 0.0661(2) 0.2472(2) 0.30275(18)
C3 C -0.0652(3) 0.2698(3) 0.3278(2)
H1 H -0.0546 0.3390 0.3935
C4 C -0.2100(3) 0.1925(3) 0.2578(2)
H2 H -0.2959 0.2095 0.2760
C5 C -0.2267(3) 0.0898(3) 0.1606(2)
H3 H -0.3242 0.0382 0.1122
C6 C -0.0990(3) 0.0627(3) 0.1346(2)
H4 H -0.1106 -0.0072 0.0692
C7 C 0.0455(2) 0.1400(2) 0.20604(18)
C8 C 0.2349(2) 0.0231(2) 0.24683(18)
C9 C 0.1933(3) -0.0237(3) 0.3538(2)
H5 H 0.1210 0.0059 0.3848
C10 C 0.2607(3) -0.1158(3) 0.4151(2)
H6 H 0.2339 -0.1465 0.4881
C11 C 0.3669(2) -0.1628(2) 0.3698(2)
C12 C 0.4118(3) -0.1091(2) 0.2651(2)
H7 H 0.4869 -0.1357 0.2357
C13 C 0.3466(3) -0.0167(3) 0.2038(2)
H8 H 0.3779 0.0186 0.1337
C14 C 0.4269(3) -0.2742(2) 0.4282(2)
C15 C 0.4606(3) 0.6407(3) 0.8946(2)
H9 H 0.5479 0.7168 0.8937
C16 C 0.3962(3) 0.6156(3) 0.9933(2)
H10 H 0.4304 0.6701 1.0721
C17 C 0.2627(3) 0.4488(3) 0.8359(2)
C18 C 0.1464(4) 0.3184(4) 0.7610(3)
H11 H 0.1646 0.3082 0.6786
H12 H 0.0458 0.3260 0.7547
H13 H 0.1532 0.2360 0.8010
C19 C 0.1713(3) 0.4246(4) 1.0373(3)
H14 H 0.2351 0.4239 1.1185
H15 H 0.1154 0.3257 1.0009
C20 C 0.0572(4) 0.5011(5) 1.0549(3)
H16 H 0.0048 0.4582 1.1174
H17 H 0.1147 0.6005 1.0886
Mn1A Mn 0.56794(3) 0.48480(3) 0.38349(3)
Mn1_2 Mn 0.43206(3) -0.48480(3) 0.61651(3)
Mn1A_2 Mn 0.56794(3) -0.51520(3) 0.38349(3)
Mn1A_3 Mn -0.43206(3) 0.48480(3) 1.38349(3)
Mn1A_4 Mn 0.56794(3) 1.48480(3) 0.38349(3)
Mn1_3 Mn 0.43206(3) 1.51520(3) 0.61651(3)
O1A O 0.7730(2) 0.6146(2) 0.51026(16)
O2A O 0.66792(18) 0.6354(2) 0.67192(16)
O3A O 0.83050(17) 0.89172(17) 0.82563(14)
O4A O 0.6059(2) 1.3096(2) 0.47064(18)
O4_2 O 0.3941(2) 0.6904(2) 0.52936(18)
O4A_2 O 0.6059(2) 0.3096(2) 0.47064(18)
O5A O 0.4977(2) 1.32827(19) 0.63067(19)
O5A_2 O 0.4977(2) 0.32827(19) 0.63067(19)
O5_2 O 0.5023(2) 0.67173(19) 0.36933(19)
N1A N -0.3765(2) 0.46421(19) 1.20474(16)
N1A_2 N 0.6235(2) 0.46421(19) 0.20474(16)
N2A N -0.2708(2) 0.5055(2) 1.04473(18)
C1A C 0.7786(3) 0.6615(2) 0.6206(2)
C2A C 0.9339(2) 0.7528(2) 0.69725(18)
C3A C 1.0652(3) 0.7302(3) 0.6722(2)
H1A H 1.0546 0.6610 0.6065
C4A C 1.2100(3) 0.8075(3) 0.7422(2)
H2A H 1.2959 0.7905 0.7240
C5A C 1.2267(3) 0.9102(3) 0.8394(2)
H3A H 1.3242 0.9618 0.8878
C6A C 1.0990(3) 0.9373(3) 0.8654(2)
H4A H 1.1106 1.0072 0.9308
C7A C 0.9545(2) 0.8600(2) 0.79396(18)
C8A C 0.7651(2) 0.9769(2) 0.75317(18)
C9A C 0.8067(3) 1.0237(3) 0.6462(2)
H5A H 0.8790 0.9941 0.6152
C10A C 0.7393(3) 1.1158(3) 0.5849(2)
H6A H 0.7661 1.1465 0.5119
C11A C 0.6331(2) 1.1628(2) 0.6302(2)
C12A C 0.5882(3) 1.1091(2) 0.7349(2)
H7A H 0.5131 1.1357 0.7643
C13A C 0.6534(3) 1.0167(3) 0.7962(2)
H8A H 0.6221 0.9814 0.8663
C14A C 0.5731(3) 1.2742(2) 0.5718(2)
C15A C -0.4606(3) 0.3593(3) 1.1054(2)
H9A H -0.5479 0.2832 1.1063
C16A C -0.3962(3) 0.3844(3) 1.0067(2)
H10A H -0.4304 0.3299 0.9279
C17A C -0.2627(3) 0.5512(3) 1.1641(2)
C18A C -0.1464(4) 0.6816(4) 1.2390(3)
H11A H -0.1646 0.6918 1.3214
H12A H -0.0458 0.6740 1.2453
H13A H -0.1532 0.7640 1.1990
C19A C -0.1713(3) 0.5754(4) 0.9627(3)
H14A H -0.2351 0.5761 0.8815
H15A H -0.1154 0.6743 0.9991
C20A C -0.0572(4) 0.4989(5) 0.9451(3)
H16A H -0.0048 0.5418 0.8826
H17A H -0.1147 0.3995 0.9114
loop_
_geom_bond_atom_site_label_1
_geom_bond_atom_site_label_2
_geom_bond_site_symmetry_1
_geom_bond_site_symmetry_2
Mn1 O1 1_555 1_555
O1 C1 1_555 1_555
O2 C1 1_555 1_555
O3 C7 1_555 1_555
O4 C14 1_555 1_555
O5 C14 1_555 1_555
N1 Mn1 1_555 1_555
N2 C16 1_555 1_555
C1 C2 1_555 1_555
C2 C3 1_555 1_555
C3 H1 1_555 1_555
C4 C3 1_555 1_555
H2 C4 1_555 1_555
C5 C4 1_555 1_555
H3 C5 1_555 1_555
C6 C5 1_555 1_555
H4 C6 1_555 1_555
C7 C2 1_555 1_555
C8 O3 1_555 1_555
C9 C8 1_555 1_555
H5 C9 1_555 1_555
C10 C9 1_555 1_555
H6 C10 1_555 1_555
C11 C10 1_555 1_555
C12 C11 1_555 1_555
H7 C12 1_555 1_555
C13 C8 1_555 1_555
H8 C13 1_555 1_555
C14 C11 1_555 1_555
C15 N1 1_555 1_555
H9 C15 1_555 1_555
C16 C15 1_555 1_555
H10 C16 1_555 1_555
C17 N1 1_555 1_555
C18 C17 1_555 1_555
H11 C18 1_555 1_555
H12 C18 1_555 1_555
H13 C18 1_555 1_555
C19 N2 1_555 1_555
H14 C19 1_555 1_555
H15 C19 1_555 1_555
C20 C19 1_555 1_555
H16 C20 1_555 1_555
H17 C20 1_555 1_555
Mn1A O2 1_555 1_555
Mn1_2 O4 1_555 1_555
Mn1A_2 O5 1_555 1_555
Mn1A_3 N1A 1_555 1_555
Mn1A_4 O4A 1_555 1_555
Mn1_3 O5A 1_555 1_555
O1A Mn1A 1_555 1_555
O2A Mn1 1_555 1_555
O3A C7A 1_555 1_555
O4A C14A 1_555 1_555
O4_2 Mn1 1_555 1_555
O4A_2 Mn1A 1_555 1_555
O5A C14A 1_555 1_555
O5A_2 Mn1 1_555 1_555
O5_2 Mn1A 1_555 1_555
N1A C15A 1_555 1_555
N1A_2 Mn1A 1_555 1_555
N2A C16A 1_555 1_555
C1A O1A 1_555 1_555
C2A C1A 1_555 1_555
C3A C2A 1_555 1_555
H1A C3A 1_555 1_555
C4A C3A 1_555 1_555
H2A C4A 1_555 1_555
C5A C4A 1_555 1_555
H3A C5A 1_555 1_555
C6A C5A 1_555 1_555
H4A C6A 1_555 1_555
C7A C2A 1_555 1_555
C8A O3A 1_555 1_555
C9A C8A 1_555 1_555
H5A C9A 1_555 1_555
C10A C9A 1_555 1_555
H6A C10A 1_555 1_555
C11A C10A 1_555 1_555
C12A C11A 1_555 1_555
H7A C12A 1_555 1_555
C13A C8A 1_555 1_555
H8A C13A 1_555 1_555
C14A C11A 1_555 1_555
C15A H9A 1_555 1_555
C16A C15A 1_555 1_555
H10A C16A 1_555 1_555
C17A N1A 1_555 1_555
C18A C17A 1_555 1_555
H11A C18A 1_555 1_555
H12A C18A 1_555 1_555
H13A C18A 1_555 1_555
C19A N2A 1_555 1_555
H14A C19A 1_555 1_555
H15A C19A 1_555 1_555
C20A C20 1_555 1_555
H16A C20A 1_555 1_555
H17A C20A 1_555 1_555
N2 C17 1_555 1_555
C6 C7 1_555 1_555
C12 C13 1_555 1_555
O2A C1A 1_555 1_555
N2A C17A 1_555 1_555
C6A C7A 1_555 1_555
C12A C13A 1_555 1_555
C19A C20A 1_555 1_555

#END
