
#######################################################################
#
#                 Cambridge Crystallographic Data Centre
#                                CCDC 
#
#######################################################################
#
# If this CIF has been generated from an entry in the Cambridge 
# Structural Database, then it will include bibliographic, chemical, 
# crystal, experimental, refinement or atomic coordinate data resulting 
# from the CCDC's data processing and validation procedures.
#
#######################################################################

data_BAKXOC
_symmetry_cell_setting           triclinic
_symmetry_space_group_name_H-M   'P -1'
_symmetry_Int_Tables_number      2
_space_group_name_Hall           '-P 1'
loop_
_symmetry_equiv_pos_site_id
_symmetry_equiv_pos_as_xyz
1 x,y,z
2 -x,-y,-z
_cell_length_a                   9.0316(13)
_cell_length_b                   10.1179(14)
_cell_length_c                   11.8884(17)
_cell_angle_alpha                68.022(2)
_cell_angle_beta                 84.749(2)
_cell_angle_gamma                77.791(2)
_cell_volume                     984.546
loop_
_atom_site_label
_atom_site_type_symbol
_atom_site_fract_x
_atom_site_fract_y
_atom_site_fract_z
Br1 Br -0.20264(4) 0.33644(4) 1.25359(4)
C1 C 0.2131(3) 0.2611(3) 1.0917(3)
C2 C 0.2686(3) 0.3866(3) 1.0707(3)
H1 H 0.3637 0.3960 1.0350
C3 C 0.1814(3) 0.4978(3) 1.1034(3)
C4 C 0.0400(3) 0.4849(3) 1.1555(3)
H2 H -0.0195 0.5601 1.1756
C5 C -0.0118(3) 0.3585(3) 1.1773(3)
C6 C 0.0725(3) 0.2470(3) 1.1455(3)
H3 H 0.0350 0.1631 1.1602
C7 C 0.3044(3) 0.1381(3) 1.0586(3)
C8 C 0.2424(4) 0.6323(3) 1.0843(3)
C9 C 0.3623(4) -0.0681(4) 0.7805(3)
H4 H 0.4502 -0.1388 0.7992
C10 C 0.3272(5) 0.0074(4) 0.6603(3)
H5 H 0.3915 -0.0123 0.6005
C11 C 0.1974(5) 0.1119(4) 0.6281(4)
C12 C 0.1067(5) 0.1324(4) 0.7227(4)
H6 H 0.0161 0.1996 0.7063
C13 C 0.1504(4) 0.0535(4) 0.8413(3)
H7 H 0.0881 0.0702 0.9033
C14 C 0.1543(5) 0.2004(6) 0.4983(4)
H8 H 0.0837 0.2881 0.4960
H9 H 0.1015 0.1455 0.4693
C15 C 0.2840(7) 0.2430(6) 0.4123(4)
H10 H 0.2500 0.2708 0.3301
H11 H 0.3646 0.1584 0.4277
C16 C 0.3505(6) 0.3686(5) 0.4199(4)
H12 H 0.4216 0.3972 0.3531
H13 H 0.2690 0.4515 0.4103
C17 C 0.4295(5) 0.3306(4) 0.5364(4)
C18 C 0.5711(5) 0.2465(4) 0.5601(4)
H14 H 0.6251 0.2177 0.5000
C19 C 0.6340(5) 0.2042(4) 0.6716(4)
H15 H 0.7302 0.1461 0.6853
C20 C 0.4302(5) 0.3314(4) 0.7364(4)
H16 H 0.3815 0.3658 0.7953
C21 C 0.3597(5) 0.3755(4) 0.6266(4)
H17 H 0.2647 0.4359 0.6139
Co1 Co 0.35520(5) -0.15304(4) 1.05433(4)
N1 N 0.2780(3) -0.0457(3) 0.8709(3)
N2 N 0.5631(3) 0.2429(3) 0.7624(3)
O1 O 0.2506(3) 0.0258(2) 1.0897(2)
O2 O 0.4247(3) 0.1549(2) 1.0021(2)
O3 O 0.3742(3) 0.6387(2) 1.0457(2)
O4 O 0.1612(3) 0.7335(2) 1.1102(2)
Co1A Co 0.64480(5) 0.15304(4) 0.94567(4)
Co1_2 Co 0.35520(5) 0.84696(4) 1.05433(4)
N2A N 0.4369(3) -0.2429(3) 1.2376(3)
O2A O 0.5753(3) -0.1549(2) 0.9979(2)
O3_2 O 0.3742(3) -0.3613(2) 1.0457(2)
O4_2 O 0.1612(3) -0.2665(2) 1.1102(2)
loop_
_geom_bond_atom_site_label_1
_geom_bond_atom_site_label_2
_geom_bond_site_symmetry_1
_geom_bond_site_symmetry_2
Br1 C5 1_555 1_555
C1 C2 1_555 1_555
C2 H1 1_555 1_555
C3 C2 1_555 1_555
C4 C3 1_555 1_555
H2 C4 1_555 1_555
C5 C4 1_555 1_555
C6 C1 1_555 1_555
H3 C6 1_555 1_555
C7 C1 1_555 1_555
C8 C3 1_555 1_555
C9 H4 1_555 1_555
C10 C9 1_555 1_555
H5 C10 1_555 1_555
C11 C10 1_555 1_555
C12 C11 1_555 1_555
H6 C12 1_555 1_555
C13 C12 1_555 1_555
H7 C13 1_555 1_555
C14 C11 1_555 1_555
H8 C14 1_555 1_555
H9 C14 1_555 1_555
C15 C14 1_555 1_555
H10 C15 1_555 1_555
H11 C15 1_555 1_555
C16 C15 1_555 1_555
H12 C16 1_555 1_555
H13 C16 1_555 1_555
C17 C16 1_555 1_555
C18 C17 1_555 1_555
H14 C18 1_555 1_555
C19 C18 1_555 1_555
H15 C19 1_555 1_555
C20 H16 1_555 1_555
C21 C17 1_555 1_555
H17 C21 1_555 1_555
Co1 N1 1_555 1_555
N1 C9 1_555 1_555
N2 C19 1_555 1_555
O1 C7 1_555 1_555
O2 C7 1_555 1_555
O3 C8 1_555 1_555
O4 C8 1_555 1_555
Co1A N2 1_555 1_555
Co1_2 O3 1_555 1_555
N2A Co1 1_555 1_555
O2A Co1 1_555 1_555
O3_2 Co1 1_555 1_555
O4_2 Co1 1_555 1_555
C5 C6 1_555 1_555
C13 N1 1_555 1_555
C20 C21 1_555 1_555
C20 N2 1_555 1_555
Co1 O1 1_555 1_555
O2 Co1A 1_555 1_555
O4 Co1_2 1_555 1_555

#END
