
#######################################################################
#
#                 Cambridge Crystallographic Data Centre
#                                CCDC 
#
#######################################################################
#
# If this CIF has been generated from an entry in the Cambridge 
# Structural Database, then it will include bibliographic, chemical, 
# crystal, experimental, refinement or atomic coordinate data resulting 
# from the CCDC's data processing and validation procedures.
#
#######################################################################

data_BAKYET
_symmetry_cell_setting           triclinic
_symmetry_space_group_name_H-M   'P -1'
_symmetry_Int_Tables_number      2
_space_group_name_Hall           '-P 1'
loop_
_symmetry_equiv_pos_site_id
_symmetry_equiv_pos_as_xyz
1 x,y,z
2 -x,-y,-z
_cell_length_a                   7.6878(6)
_cell_length_b                   10.3453(8)
_cell_length_c                   10.9589(9)
_cell_angle_alpha                113.3540(10)
_cell_angle_beta                 90.5460(10)
_cell_angle_gamma                90.4280(10)
_cell_volume                     800.087
loop_
_atom_site_label
_atom_site_type_symbol
_atom_site_fract_x
_atom_site_fract_y
_atom_site_fract_z
Zn1 Zn -0.03081(4) 0.45938(4) 0.30857(3)
O1 O -0.2270(2) 0.4399(2) 0.4130(2)
O2 O -0.1257(3) 0.3775(2) 0.5739(2)
O3 O -0.8434(2) 0.3235(2) 0.2887(2)
O4 O -0.9727(3) 0.1450(2) 0.3207(3)
N1 N -0.1579(3) 0.3235(3) 0.1208(3)
N2 N -0.1100(3) 0.6030(3) 0.2216(3)
C1 C -0.1869(5) 0.1869(4) 0.0767(4)
H1 H -0.1472 0.1387 0.1271
C2 C -0.2747(5) 0.1116(4) -0.0426(4)
H2 H -0.2933 0.0151 -0.0707
C3 C -0.3330(5) 0.1808(4) -0.1174(4)
H3 H -0.3928 0.1317 -0.1967
C4 C -0.3033(4) 0.3252(4) -0.0753(3)
C5 C -0.3569(4) 0.4078(5) -0.1472(3)
H4 H -0.4138 0.3638 -0.2288
C6 C -0.3270(4) 0.5463(5) -0.1000(4)
H5 H -0.3617 0.5964 -0.1500
C7 C -0.2423(4) 0.6196(4) 0.0267(3)
C8 C -0.2127(4) 0.7658(4) 0.0846(4)
H6 H -0.2445 0.8210 0.0387
C9 C -0.1380(4) 0.8268(4) 0.2068(4)
H7 H -0.1195 0.9237 0.2460
C10 C -0.0889(4) 0.7413(4) 0.2737(4)
H8 H -0.0393 0.7839 0.3582
C11 C -0.2162(4) 0.3937(3) 0.0474(3)
C12 C -0.1878(3) 0.5424(3) 0.1001(3)
C13 C -0.2326(3) 0.3699(3) 0.4840(3)
C14 C -0.3825(3) 0.2688(3) 0.4605(3)
C15 C -0.5352(3) 0.2881(3) 0.4015(3)
H9 H -0.5427 0.3610 0.3723
C16 C -0.6765(3) 0.1988(3) 0.3861(3)
C17 C -0.8472(4) 0.2219(3) 0.3276(3)
C18 C -0.6619(4) 0.0880(3) 0.4264(3)
H10 H -0.7577 0.0292 0.4167
C19 C -0.5075(3) 0.0619(3) 0.4813(3)
C20 C -0.3703(4) 0.1560(3) 0.4988(3)
H11 H -0.2671 0.1433 0.5374
Zn1A Zn -0.96919(4) -0.45938(4) 0.69143(3)
Zn1A_2 Zn 0.03081(4) 0.54062(4) 0.69143(3)
Zn1_2 Zn -1.03081(4) 0.45938(4) 0.30857(3)
Zn1_3 Zn -1.03081(4) -0.54062(4) 0.30857(3)
Zn1A_3 Zn 0.03081(4) -0.45938(4) 0.69143(3)
O1A O -0.7730(2) -0.4399(2) 0.5870(2)
O2A O -0.8743(3) -0.3775(2) 0.4261(2)
O2A_2 O 0.1257(3) 0.6225(2) 0.4261(2)
O2_2 O -1.1257(3) -0.6225(2) 0.5739(2)
O3A O -0.1566(2) -0.3235(2) 0.7113(2)
O3_2 O 0.1566(2) 0.3235(2) 0.2887(2)
O3A_2 O -1.1566(2) -0.3235(2) 0.7113(2)
O4A O -0.0273(3) -0.1450(2) 0.6793(3)
N1A N -0.8421(3) -0.3235(3) 0.8792(3)
N2A N -0.8900(3) -0.6030(3) 0.7784(3)
C1A C -0.8131(5) -0.1869(4) 0.9233(4)
H1A H -0.8528 -0.1387 0.8729
C2A C -0.7253(5) -0.1116(4) 1.0426(4)
H2A H -0.7067 -0.0151 1.0707
C3A C -0.6670(5) -0.1808(4) 1.1174(4)
H3A H -0.6072 -0.1317 1.1967
C4A C -0.6967(4) -0.3252(4) 1.0753(3)
C5A C -0.6431(4) -0.4078(5) 1.1472(3)
H4A H -0.5862 -0.3638 1.2288
C6A C -0.6730(4) -0.5463(5) 1.1000(4)
H5A H -0.6383 -0.5964 1.1500
C7A C -0.7577(4) -0.6196(4) 0.9733(3)
C8A C -0.7873(4) -0.7658(4) 0.9154(4)
H6A H -0.7555 -0.8210 0.9613
C9A C -0.8620(4) -0.8268(4) 0.7932(4)
H7A H -0.8805 -0.9237 0.7540
C10A C -0.9111(4) -0.7413(4) 0.7263(4)
H8A H -0.9607 -0.7839 0.6418
C11A C -0.7838(4) -0.3937(3) 0.9526(3)
C12A C -0.8122(3) -0.5424(3) 0.8999(3)
C13A C -0.7674(3) -0.3699(3) 0.5160(3)
C14A C -0.6175(3) -0.2688(3) 0.5395(3)
C15A C -0.4648(3) -0.2881(3) 0.5985(3)
H9A H -0.4573 -0.3610 0.6277
C16A C -0.3235(3) -0.1988(3) 0.6139(3)
C17A C -0.1528(4) -0.2219(3) 0.6724(3)
C18A C -0.3381(4) -0.0880(3) 0.5736(3)
H10A H -0.2423 -0.0292 0.5833
C19A C -0.4925(3) -0.0619(3) 0.5187(3)
C20A C -0.6297(4) -0.1560(3) 0.5012(3)
H11A H -0.7329 -0.1433 0.4626
loop_
_geom_bond_atom_site_label_1
_geom_bond_atom_site_label_2
_geom_bond_site_symmetry_1
_geom_bond_site_symmetry_2
Zn1 O1 1_555 1_555
O1 C13 1_555 1_555
O2 C13 1_555 1_555
O3 C17 1_555 1_555
O4 C17 1_555 1_555
N1 Zn1 1_555 1_555
N2 Zn1 1_555 1_555
C1 N1 1_555 1_555
H1 C1 1_555 1_555
C2 C1 1_555 1_555
H2 C2 1_555 1_555
C3 C2 1_555 1_555
H3 C3 1_555 1_555
C4 C3 1_555 1_555
C5 C4 1_555 1_555
H4 C5 1_555 1_555
C6 C5 1_555 1_555
H5 C6 1_555 1_555
C7 C6 1_555 1_555
C8 C7 1_555 1_555
H6 C8 1_555 1_555
C9 C8 1_555 1_555
H7 C9 1_555 1_555
C10 N2 1_555 1_555
H8 C10 1_555 1_555
C11 N1 1_555 1_555
C12 N2 1_555 1_555
C13 C14 1_555 1_555
C14 C15 1_555 1_555
C15 H9 1_555 1_555
C16 C15 1_555 1_555
C17 C16 1_555 1_555
C18 C16 1_555 1_555
H10 C18 1_555 1_555
C19 C18 1_555 1_555
C20 C14 1_555 1_555
H11 C20 1_555 1_555
Zn1A O1A 1_555 1_555
Zn1A_2 O2 1_555 1_555
Zn1_2 O3 1_555 1_555
Zn1_3 O2A 1_555 1_555
Zn1A_3 O3A 1_555 1_555
O1A C13A 1_555 1_555
O2A C13A 1_555 1_555
O2A_2 Zn1 1_555 1_555
O2_2 Zn1A 1_555 1_555
O3A C17A 1_555 1_555
O3_2 Zn1 1_555 1_555
O3A_2 Zn1A 1_555 1_555
O4A C17A 1_555 1_555
N1A Zn1A 1_555 1_555
N2A Zn1A 1_555 1_555
C1A N1A 1_555 1_555
H1A C1A 1_555 1_555
C2A C1A 1_555 1_555
H2A C2A 1_555 1_555
C3A C2A 1_555 1_555
H3A C3A 1_555 1_555
C4A C3A 1_555 1_555
C5A C4A 1_555 1_555
H4A C5A 1_555 1_555
C6A C5A 1_555 1_555
H5A C6A 1_555 1_555
C7A C6A 1_555 1_555
C8A C7A 1_555 1_555
H6A C8A 1_555 1_555
C9A C8A 1_555 1_555
H7A C9A 1_555 1_555
C10A N2A 1_555 1_555
H8A C10A 1_555 1_555
C11A N1A 1_555 1_555
C12A N2A 1_555 1_555
C13A C14A 1_555 1_555
C14A C15A 1_555 1_555
C15A H9A 1_555 1_555
C16A C15A 1_555 1_555
C17A C16A 1_555 1_555
C18A C16A 1_555 1_555
H10A C18A 1_555 1_555
C19A C19 1_555 1_555
C20A C14A 1_555 1_555
H11A C20A 1_555 1_555
C4 C11 1_555 1_555
C7 C12 1_555 1_555
C9 C10 1_555 1_555
C11 C12 1_555 1_555
C19 C20 1_555 1_555
C4A C11A 1_555 1_555
C7A C12A 1_555 1_555
C9A C10A 1_555 1_555
C11A C12A 1_555 1_555
C18A C19A 1_555 1_555
C19A C20A 1_555 1_555

#END
