
#######################################################################
#
#                 Cambridge Crystallographic Data Centre
#                                CCDC 
#
#######################################################################
#
# If this CIF has been generated from an entry in the Cambridge 
# Structural Database, then it will include bibliographic, chemical, 
# crystal, experimental, refinement or atomic coordinate data resulting 
# from the CCDC's data processing and validation procedures.
#
#######################################################################

data_BAKYUJ
_symmetry_cell_setting           monoclinic
_symmetry_space_group_name_H-M   'C 2'
_symmetry_Int_Tables_number      5
_space_group_name_Hall           'C 2y'
loop_
_symmetry_equiv_pos_site_id
_symmetry_equiv_pos_as_xyz
1 x,y,z
2 -x,y,-z
3 1/2+x,1/2+y,z
4 1/2-x,1/2+y,-z
_cell_length_a                   25.321(5)
_cell_length_b                   6.3698(13)
_cell_length_c                   15.489(3)
_cell_angle_alpha                90
_cell_angle_beta                 118.54(3)
_cell_angle_gamma                90
_cell_volume                     2194.64
loop_
_atom_site_label
_atom_site_type_symbol
_atom_site_fract_x
_atom_site_fract_y
_atom_site_fract_z
C1 C 0.0736(3) 0.0307(9) 0.5963(4)
H1 H 0.0610 -0.0522 0.5404
C2 C 0.0575(3) -0.0298(10) 0.6676(4)
H2 H 0.0337 -0.1478 0.6581
C3 C 0.0775(3) 0.0889(8) 0.7522(4)
H3 H 0.0676 0.0510 0.8007
C4 C 0.1129(2) 0.2662(8) 0.7643(3)
C5 C 0.1362(3) 0.4028(8) 0.8514(4)
C6 C 0.1457(3) 0.4813(10) 1.0023(4)
C7 C 0.1358(3) 0.4293(11) 1.0831(4)
H4 H 0.1192 0.3005 1.0853
C8 C 0.1512(3) 0.5720(11) 1.1572(4)
H5 H 0.1442 0.5393 1.2093
C9 C 0.1774(3) 0.7665(13) 1.1571(4)
H6 H 0.1874 0.8594 1.2089
C10 C 0.1886(3) 0.8217(13) 1.0807(4)
H7 H 0.2056 0.9511 1.0804
C11 C 0.1734(3) 0.6742(9) 1.0019(4)
C12 C 0.1668(3) 0.5911(8) 0.8550(3)
C13 C 0.1795(3) 0.6442(8) 0.7736(4)
C14 C 0.2109(2) 0.8232(11) 0.7734(3)
H8 H 0.2256 0.9158 0.8263
C15 C 0.2197(3) 0.8610(8) 0.6931(4)
H9 H 0.2399 0.9810 0.6908
C16 C 0.1981(3) 0.7189(8) 0.6166(4)
H10 H 0.2043 0.7465 0.5631
C17 C 0.1586(2) 0.5074(8) 0.6935(3)
C18 C 0.1253(2) 0.3170(11) 0.6877(3)
C19 C 0.0817(3) -0.1164(8) 0.2700(4)
C20 C 0.0566(3) -0.3115(9) 0.2701(4)
C21 C 0.0120(3) -0.3930(9) 0.1816(4)
H11 H -0.0063 -0.5196 0.1818
C22 C -0.0057(3) -0.2887(10) 0.0938(4)
H12 H -0.0339 -0.3484 0.0348
C23 C 0.0194(3) -0.0924(9) 0.0944(4)
C24 C 0.0616(2) -0.0078(8) 0.1826(3)
H13 H 0.0768 0.1254 0.1833
C25 C 0.1284(3) -0.0177(8) 0.3651(3)
C26 C 0.0817(3) -0.4477(9) 0.3608(4)
C27 C 0.0000 0.0277(13) 0.0000
N1 N 0.1062(2) 0.2020(6) 0.6050(3)
N2 N 0.1685(2) 0.5422(7) 0.6155(3)
N3 N 0.1264(2) 0.3432(8) 0.9258(3)
N4 N 0.1847(2) 0.7261(6) 0.9283(3)
O1 O 0.10855(18) 0.0430(6) 0.4212(2)
O2 O 0.18076(18) 0.0040(6) 0.3791(3)
O3 O 0.2255(2) 0.2140(6) 0.5542(3)
O4 O 0.1379(2) -0.4737(7) 0.4062(3)
O6 O 0.0473(2) -0.5350(7) 0.3858(3)
O7 O 0.0000 0.2193(8) 0.0000
Co1 Co 0.13681(3) 0.30700(11) 0.50669(5)
H14 H 0.257(2) 0.287(10) 0.574(3)
H15 H 0.221(6) 0.110(17) 0.497(10)
C1A C -0.0736(3) 0.0307(9) -0.5963(4)
H1A H -0.0610 -0.0522 -0.5404
C2A C -0.0575(3) -0.0298(10) -0.6676(4)
H2A H -0.0337 -0.1478 -0.6581
C3A C -0.0775(3) 0.0889(8) -0.7522(4)
H3A H -0.0676 0.0510 -0.8007
C4A C -0.1129(2) 0.2662(8) -0.7643(3)
C5A C -0.1362(3) 0.4028(8) -0.8514(4)
C6A C -0.1457(3) 0.4813(10) -1.0023(4)
C7A C -0.1358(3) 0.4293(11) -1.0831(4)
H4A H -0.1192 0.3005 -1.0853
C8A C -0.1512(3) 0.5720(11) -1.1572(4)
H5A H -0.1442 0.5393 -1.2093
C9A C -0.1774(3) 0.7665(13) -1.1571(4)
H6A H -0.1874 0.8594 -1.2089
C10A C -0.1886(3) 0.8217(13) -1.0807(4)
H7A H -0.2056 0.9511 -1.0804
C11A C -0.1734(3) 0.6742(9) -1.0019(4)
C12A C -0.1668(3) 0.5911(8) -0.8550(3)
C13A C -0.1795(3) 0.6442(8) -0.7736(4)
C14A C -0.2109(2) 0.8232(11) -0.7734(3)
H8A H -0.2256 0.9158 -0.8263
C15A C -0.2197(3) 0.8610(8) -0.6931(4)
H9A H -0.2399 0.9810 -0.6908
C16A C -0.1981(3) 0.7189(8) -0.6166(4)
H10A H -0.2043 0.7465 -0.5631
C17A C -0.1586(2) 0.5074(8) -0.6935(3)
C18A C -0.1253(2) 0.3170(11) -0.6877(3)
C19A C -0.0817(3) -0.1164(8) -0.2700(4)
C20A C -0.0566(3) -0.3115(9) -0.2701(4)
C21A C -0.0120(3) -0.3930(9) -0.1816(4)
H11A H 0.0063 -0.5196 -0.1818
C22A C 0.0057(3) -0.2887(10) -0.0938(4)
H12A H 0.0339 -0.3484 -0.0348
C23A C -0.0194(3) -0.0924(9) -0.0944(4)
C24A C -0.0616(2) -0.0078(8) -0.1826(3)
H13A H -0.0768 0.1254 -0.1833
C25A C -0.1284(3) -0.0177(8) -0.3651(3)
C26A C -0.0817(3) -0.4477(9) -0.3608(4)
N1A N -0.1062(2) 0.2020(6) -0.6050(3)
N2A N -0.1685(2) 0.5422(7) -0.6155(3)
N3A N -0.1264(2) 0.3432(8) -0.9258(3)
N4A N -0.1847(2) 0.7261(6) -0.9283(3)
O1A O -0.10855(18) 0.0430(6) -0.4212(2)
O2A O -0.18076(18) 0.0040(6) -0.3791(3)
O3A O -0.2255(2) 0.2140(6) -0.5542(3)
O4A O -0.1379(2) -0.4737(7) -0.4062(3)
O4_2 O 0.1379(2) 0.5263(7) 0.4062(3)
O4A_2 O -0.1379(2) 0.5263(7) -0.4062(3)
O6A O -0.0473(2) -0.5350(7) -0.3858(3)
Co1A Co -0.13681(3) 0.30700(11) -0.50669(5)
Co1_2 Co 0.13681(3) -0.69300(11) 0.50669(5)
Co1A_2 Co -0.13681(3) -0.69300(11) -0.50669(5)
H14A H -0.257(2) 0.287(10) -0.574(3)
H15A H -0.221(6) 0.110(17) -0.497(10)
O5 O 0.0000 0.6139(10) 0.5000
H16 H 0.012(6) 0.52(2) 0.452(9)
H16A H -0.012(6) 0.52(2) 0.548(9)
loop_
_geom_bond_atom_site_label_1
_geom_bond_atom_site_label_2
_geom_bond_site_symmetry_1
_geom_bond_site_symmetry_2
C1 H1 1_555 1_555
C2 C1 1_555 1_555
H2 C2 1_555 1_555
C3 C2 1_555 1_555
H3 C3 1_555 1_555
C4 C3 1_555 1_555
C5 C4 1_555 1_555
C6 C7 1_555 1_555
C7 H4 1_555 1_555
C8 C7 1_555 1_555
H5 C8 1_555 1_555
C9 C8 1_555 1_555
H6 C9 1_555 1_555
C10 C9 1_555 1_555
H7 C10 1_555 1_555
C11 C6 1_555 1_555
C12 C5 1_555 1_555
C13 C12 1_555 1_555
C14 C13 1_555 1_555
H8 C14 1_555 1_555
C15 C14 1_555 1_555
H9 C15 1_555 1_555
C16 C15 1_555 1_555
H10 C16 1_555 1_555
C17 C13 1_555 1_555
C18 C4 1_555 1_555
C19 C20 1_555 1_555
C20 C21 1_555 1_555
C21 H11 1_555 1_555
C22 C21 1_555 1_555
H12 C22 1_555 1_555
C23 C22 1_555 1_555
C24 C19 1_555 1_555
H13 C24 1_555 1_555
C25 C19 1_555 1_555
C26 C20 1_555 1_555
C27 C23 1_555 1_555
N1 C1 1_555 1_555
N2 C16 1_555 1_555
N3 C5 1_555 1_555
N4 C11 1_555 1_555
O1 C25 1_555 1_555
O2 C25 1_555 1_555
O3 Co1 1_555 1_555
O4 C26 1_555 1_555
O5 H16 1_555 1_555
O6 C26 1_555 1_555
O7 C27 1_555 1_555
Co1 N1 1_555 1_555
H14 O3 1_555 1_555
H15 O3 1_555 1_555
C1A H1A 1_555 1_555
C2A C1A 1_555 1_555
H2A C2A 1_555 1_555
C3A C2A 1_555 1_555
H3A C3A 1_555 1_555
C4A C3A 1_555 1_555
C5A C4A 1_555 1_555
C6A C7A 1_555 1_555
C7A H4A 1_555 1_555
C8A C7A 1_555 1_555
H5A C8A 1_555 1_555
C9A C8A 1_555 1_555
H6A C9A 1_555 1_555
C10A C9A 1_555 1_555
H7A C10A 1_555 1_555
C11A C6A 1_555 1_555
C12A C5A 1_555 1_555
C13A C12A 1_555 1_555
C14A C13A 1_555 1_555
H8A C14A 1_555 1_555
C15A C14A 1_555 1_555
H9A C15A 1_555 1_555
C16A C15A 1_555 1_555
H10A C16A 1_555 1_555
C17A C13A 1_555 1_555
C18A C4A 1_555 1_555
C19A C20A 1_555 1_555
C20A C21A 1_555 1_555
C21A H11A 1_555 1_555
C22A C21A 1_555 1_555
H12A C22A 1_555 1_555
C23A C27 1_555 1_555
C24A C19A 1_555 1_555
H13A C24A 1_555 1_555
C25A C19A 1_555 1_555
C26A C20A 1_555 1_555
N1A C1A 1_555 1_555
N2A C16A 1_555 1_555
N3A C5A 1_555 1_555
N4A C11A 1_555 1_555
O1A C25A 1_555 1_555
O2A C25A 1_555 1_555
O3A Co1A 1_555 1_555
O4A C26A 1_555 1_555
O4_2 Co1 1_555 1_555
O4A_2 Co1A 1_555 1_555
O6A C26A 1_555 1_555
Co1A N1A 1_555 1_555
Co1_2 O4 1_555 1_555
Co1A_2 O4A 1_555 1_555
H14A O3A 1_555 1_555
H15A O3A 1_555 1_555
H16A O5 1_555 1_555
C6 N3 1_555 1_555
C10 C11 1_555 1_555
C12 N4 1_555 1_555
C17 C18 1_555 1_555
C17 N2 1_555 1_555
C18 N1 1_555 1_555
C23 C24 1_555 1_555
N2 Co1 1_555 1_555
O1 Co1 1_555 1_555
C6A N3A 1_555 1_555
C10A C11A 1_555 1_555
C12A N4A 1_555 1_555
C17A C18A 1_555 1_555
C17A N2A 1_555 1_555
C18A N1A 1_555 1_555
C22A C23A 1_555 1_555
C23A C24A 1_555 1_555
N2A Co1A 1_555 1_555
O1A Co1A 1_555 1_555

#END
