
#######################################################################
#
#                 Cambridge Crystallographic Data Centre
#                                CCDC 
#
#######################################################################
#
# If this CIF has been generated from an entry in the Cambridge 
# Structural Database, then it will include bibliographic, chemical, 
# crystal, experimental, refinement or atomic coordinate data resulting 
# from the CCDC's data processing and validation procedures.
#
#######################################################################

data_BAKZAQ
_symmetry_cell_setting           monoclinic
_symmetry_space_group_name_H-M   'P 21/c'
_symmetry_Int_Tables_number      14
_space_group_name_Hall           '-P 2ybc'
loop_
_symmetry_equiv_pos_site_id
_symmetry_equiv_pos_as_xyz
1 x,y,z
2 -x,1/2+y,1/2-z
3 -x,-y,-z
4 x,1/2-y,1/2+z
_cell_length_a                   13.499(2)
_cell_length_b                   25.577(4)
_cell_length_c                   13.854(2)
_cell_angle_alpha                90
_cell_angle_beta                 100.372(2)
_cell_angle_gamma                90
_cell_volume                     4705.13
loop_
_atom_site_label
_atom_site_type_symbol
_atom_site_fract_x
_atom_site_fract_y
_atom_site_fract_z
C1 C 0.8152(4) 0.41185(19) 0.1722(4)
C2 C 1.0386(4) 0.5808(2) 0.1561(4)
C3 C 0.8312(3) 0.43985(19) 0.2710(4)
C4 C 0.7836(3) 0.4178(2) 0.3426(4)
H1 H 0.7425 0.3888 0.3266
C5 C 0.8929(3) 0.48438(19) 0.2946(3)
C6 C 0.9017(4) 0.5037(2) 0.3900(4)
H2 H 0.9409 0.5333 0.4070
C7 C 0.8557(4) 0.4813(2) 0.4596(4)
H3 H 0.8647 0.4953 0.5225
C8 C 0.7958(4) 0.4379(2) 0.4361(4)
H4 H 0.7640 0.4223 0.4829
C9 C 0.9463(4) 0.5104(2) 0.2252(4)
H5 H 0.9518 0.4916 0.1689
C10 C 0.9874(4) 0.5571(2) 0.2329(4)
H6 H 0.9846 0.5765 0.2891
C11 C 0.5306(3) 0.4273(2) 0.2311(4)
O1 O 0.7453(2) 0.37865(12) 0.1565(2)
O2 O 0.8745(2) 0.42125(13) 0.1142(3)
O3 O 1.0585(3) 0.62835(15) 0.1604(3)
O4 O 1.0572(3) 0.55238(14) 0.0869(3)
O5 O 0.5389(2) 0.37792(14) 0.2220(2)
O6 O 0.5643(2) 0.45797(13) 0.1753(2)
C12 C 0.6260(4) 0.2740(2) 0.0790(4)
H7 H 0.6922 0.2803 0.1092
C13 C 0.5937(4) 0.2224(2) 0.0641(4)
H8 H 0.6378 0.1949 0.0834
C14 C 0.4960(4) 0.21291(19) 0.0205(4)
H9 H 0.4732 0.1787 0.0096
C15 C 0.4309(4) 0.25489(19) -0.0074(3)
C16 C 0.3247(4) 0.24759(19) -0.0524(3)
C17 C 0.1907(4) 0.1944(2) -0.1071(4)
C18 C 0.1491(5) 0.1436(2) -0.1209(4)
H10 H 0.1882 0.1142 -0.1010
C19 C 0.0502(5) 0.1384(3) -0.1642(5)
H11 H 0.0224 0.1051 -0.1733
C20 C -0.0103(5) 0.1817(3) -0.1950(5)
H12 H -0.0770 0.1766 -0.2249
C21 C 0.0269(4) 0.2313(3) -0.1821(4)
H13 H -0.0138 0.2600 -0.2025
C22 C 0.1295(4) 0.2381(2) -0.1367(4)
C23 C 0.2629(4) 0.2920(2) -0.0807(3)
C24 C 0.3049(4) 0.34476(19) -0.0629(3)
C25 C 0.2478(4) 0.3898(2) -0.0889(4)
H14 H 0.1809 0.3874 -0.1200
C26 C 0.2923(4) 0.4379(2) -0.0677(4)
H15 H 0.2562 0.4685 -0.0846
C27 C 0.3933(4) 0.4397(2) -0.0200(4)
H16 H 0.4231 0.4722 -0.0056
C28 C 0.4044(4) 0.35037(19) -0.0168(3)
C29 C 0.4688(4) 0.30481(18) 0.0096(3)
C30 C 0.8459(4) 0.2651(2) -0.0104(4)
H17 H 0.7816 0.2750 -0.0411
C31 C 0.8666(4) 0.2124(2) 0.0060(4)
H18 H 0.8162 0.1876 -0.0123
C32 C 0.9606(4) 0.1970(2) 0.0489(4)
H19 H 0.9749 0.1617 0.0600
C33 C 1.0350(4) 0.23436(19) 0.0761(3)
C34 C 1.1384(4) 0.2209(2) 0.1204(3)
C35 C 1.2604(4) 0.1596(2) 0.1697(4)
C36 C 1.2929(4) 0.1068(2) 0.1801(4)
H20 H 1.2480 0.0799 0.1584
C37 C 1.3904(5) 0.0954(3) 0.2223(4)
H21 H 1.4110 0.0608 0.2310
C38 C 1.4592(5) 0.1361(3) 0.2525(4)
H22 H 1.5253 0.1277 0.2802
C39 C 1.4321(4) 0.1872(2) 0.2422(4)
H23 H 1.4789 0.2134 0.2630
C40 C 1.3314(4) 0.2002(2) 0.1993(4)
C41 C 1.2104(4) 0.2616(2) 0.1500(3)
C42 C 1.1805(4) 0.31633(19) 0.1351(3)
C43 C 1.2448(4) 0.3583(2) 0.1672(4)
H24 H 1.3099 0.3523 0.2007
C44 C 1.2103(4) 0.4084(2) 0.1484(4)
H25 H 1.2518 0.4367 0.1699
C45 C 1.1137(4) 0.4167(2) 0.0976(4)
H26 H 1.0922 0.4508 0.0833
C46 C 1.0831(3) 0.32824(19) 0.0877(3)
C47 C 1.0098(4) 0.28702(19) 0.0595(3)
C48 C 0.3601(4) 0.5003(2) 0.3772(4)
H27 H 0.3156 0.5283 0.3707
C49 C 0.3769(4) 0.4715(2) 0.4636(4)
H28 H 0.3433 0.4800 0.5145
C50 C 0.4431(4) 0.4304(2) 0.4734(4)
H29 H 0.4549 0.4113 0.5315
C51 C 0.4922(4) 0.4172(2) 0.3985(4)
H30 H 0.5364 0.3890 0.4061
C52 C 0.4767(3) 0.44536(19) 0.3116(4)
C53 C 0.4091(3) 0.48770(18) 0.3011(3)
C54 C 0.3882(4) 0.51785(18) 0.2078(4)
H31 H 0.4322 0.5122 0.1644
C55 C 0.3153(4) 0.55147(19) 0.1791(4)
H32 H 0.2669 0.5568 0.2180
C56 C 0.3083(4) 0.58128(19) 0.0857(4)
N1 N 0.5656(3) 0.31470(15) 0.0517(3)
N2 N 0.4476(3) 0.39749(15) 0.0053(3)
N3 N 0.1672(3) 0.28723(17) -0.1231(3)
N4 N 0.2894(3) 0.19898(15) -0.0645(3)
N5 N 0.9158(3) 0.30222(15) 0.0167(3)
N6 N 1.0497(3) 0.37729(16) 0.0679(3)
N7 N 1.1635(3) 0.17086(16) 0.1305(3)
N8 N 1.3062(3) 0.25135(17) 0.1893(3)
O7 O 0.3614(2) 0.56626(12) 0.0254(2)
O8 O 0.2520(2) 0.62132(12) 0.0751(2)
Co1 Co 0.60052(5) 0.39268(2) 0.08688(5)
Co2 Co 0.89753(5) 0.38330(2) -0.00951(5)
O3B O 0.9415(3) 0.37165(15) -0.1604(3)
O4B O 0.9428(3) 0.44762(14) -0.0869(3)
O7B O 0.6386(2) 0.43374(12) -0.0254(2)
O8B O 0.7480(2) 0.37868(12) -0.0751(2)
Co1B Co 0.39948(5) 0.60732(2) -0.08688(5)
Co2B Co 1.10247(5) 0.61670(2) 0.00951(5)
Co2B_2 Co 0.10247(5) 0.61670(2) 0.00951(5)
O9 O 0.7672(5) 0.3153(4) 0.7468(6)
H33 H 0.721(7) 0.321(5) 0.778(9)
H34 H 0.814(7) 0.299(5) 0.741(10)
O10 O 0.6463(5) 0.2875(3) 0.3296(4)
H35 H 0.672(6) 0.286(4) 0.271(5)
H36 H 0.574(4) 0.294(4) 0.303(7)
loop_
_geom_bond_atom_site_label_1
_geom_bond_atom_site_label_2
_geom_bond_site_symmetry_1
_geom_bond_site_symmetry_2
C1 C3 1_555 1_555
C2 C10 1_555 1_555
C3 C4 1_555 1_555
C4 H1 1_555 1_555
C5 C3 1_555 1_555
C6 C5 1_555 1_555
H2 C6 1_555 1_555
C7 C6 1_555 1_555
H3 C7 1_555 1_555
C8 C4 1_555 1_555
H4 C8 1_555 1_555
C9 C5 1_555 1_555
H5 C9 1_555 1_555
C10 C9 1_555 1_555
H6 C10 1_555 1_555
C11 O5 1_555 1_555
O1 C1 1_555 1_555
O2 C1 1_555 1_555
O3 C2 1_555 1_555
O4 C2 1_555 1_555
O5 Co1 1_555 1_555
O6 C11 1_555 1_555
C12 H7 1_555 1_555
C13 C12 1_555 1_555
H8 C13 1_555 1_555
C14 C13 1_555 1_555
H9 C14 1_555 1_555
C15 C14 1_555 1_555
C16 C15 1_555 1_555
C17 C18 1_555 1_555
C18 H10 1_555 1_555
C19 C18 1_555 1_555
H11 C19 1_555 1_555
C20 C19 1_555 1_555
H12 C20 1_555 1_555
C21 C20 1_555 1_555
H13 C21 1_555 1_555
C22 C17 1_555 1_555
C23 C16 1_555 1_555
C24 C23 1_555 1_555
C25 C24 1_555 1_555
H14 C25 1_555 1_555
C26 C25 1_555 1_555
H15 C26 1_555 1_555
C27 C26 1_555 1_555
H16 C27 1_555 1_555
C28 C24 1_555 1_555
C29 C15 1_555 1_555
C30 H17 1_555 1_555
C31 C30 1_555 1_555
H18 C31 1_555 1_555
C32 C31 1_555 1_555
H19 C32 1_555 1_555
C33 C32 1_555 1_555
C34 C33 1_555 1_555
C35 C36 1_555 1_555
C36 H20 1_555 1_555
C37 C36 1_555 1_555
H21 C37 1_555 1_555
C38 C37 1_555 1_555
H22 C38 1_555 1_555
C39 C38 1_555 1_555
H23 C39 1_555 1_555
C40 C35 1_555 1_555
C41 C34 1_555 1_555
C42 C41 1_555 1_555
C43 C42 1_555 1_555
H24 C43 1_555 1_555
C44 C43 1_555 1_555
H25 C44 1_555 1_555
C45 C44 1_555 1_555
H26 C45 1_555 1_555
C46 C42 1_555 1_555
C47 C33 1_555 1_555
C48 H27 1_555 1_555
C49 C48 1_555 1_555
H28 C49 1_555 1_555
C50 C49 1_555 1_555
H29 C50 1_555 1_555
C51 C50 1_555 1_555
H30 C51 1_555 1_555
C52 C11 1_555 1_555
C53 C48 1_555 1_555
C54 C53 1_555 1_555
H31 C54 1_555 1_555
C55 C54 1_555 1_555
H32 C55 1_555 1_555
C56 C55 1_555 1_555
N1 C12 1_555 1_555
N2 C27 1_555 1_555
N3 C22 1_555 1_555
N4 C16 1_555 1_555
N5 C30 1_555 1_555
N6 C45 1_555 1_555
N7 C34 1_555 1_555
N8 C40 1_555 1_555
O7 C56 1_555 1_555
O8 C56 1_555 1_555
Co1 O1 1_555 1_555
Co2 O2 1_555 1_555
O9 H33 1_555 1_555
H34 O9 1_555 1_555
O10 H35 1_555 1_555
H36 O10 1_555 1_555
O3B Co2 1_555 1_555
O4B Co2 1_555 1_555
O7B Co1 1_555 1_555
O8B Co2 1_555 1_555
Co1B O7 1_555 1_555
Co2B O3 1_555 1_555
Co2B_2 O8 1_555 1_555
C7 C8 1_555 1_555
O4 Co2B 1_555 1_555
O6 Co1 1_555 1_555
C17 N4 1_555 1_555
C21 C22 1_555 1_555
C23 N3 1_555 1_555
C28 C29 1_555 1_555
C28 N2 1_555 1_555
C29 N1 1_555 1_555
C35 N7 1_555 1_555
C39 C40 1_555 1_555
C41 N8 1_555 1_555
C46 C47 1_555 1_555
C46 N6 1_555 1_555
C47 N5 1_555 1_555
C51 C52 1_555 1_555
C52 C53 1_555 1_555
N1 Co1 1_555 1_555
N2 Co1 1_555 1_555
N5 Co2 1_555 1_555
N6 Co2 1_555 1_555

#END
