
#######################################################################
#
#                 Cambridge Crystallographic Data Centre
#                                CCDC 
#
#######################################################################
#
# If this CIF has been generated from an entry in the Cambridge 
# Structural Database, then it will include bibliographic, chemical, 
# crystal, experimental, refinement or atomic coordinate data resulting 
# from the CCDC's data processing and validation procedures.
#
#######################################################################

data_BALFAV02
_symmetry_cell_setting           tetragonal
_symmetry_space_group_name_H-M   'I -4 m 2'
_symmetry_Int_Tables_number      119
_space_group_name_Hall           'I -4 -2'
loop_
_symmetry_equiv_pos_site_id
_symmetry_equiv_pos_as_xyz
1 x,y,z
2 y,-x,-z
3 -x,y,z
4 -x,-y,z
5 y,x,-z
6 -y,x,-z
7 x,-y,z
8 -y,-x,-z
9 1/2+x,1/2+y,1/2+z
10 1/2+y,1/2-x,1/2-z
11 1/2-x,1/2+y,1/2+z
12 1/2-x,1/2-y,1/2+z
13 1/2+y,1/2+x,1/2-z
14 1/2-y,1/2+x,1/2-z
15 1/2+x,1/2-y,1/2+z
16 1/2-y,1/2-x,1/2-z
_cell_length_a                   5.270
_cell_length_b                   5.270
_cell_length_c                   22.718
_cell_angle_alpha                90
_cell_angle_beta                 90
_cell_angle_gamma                90
_cell_volume                     630.945
loop_
_atom_site_label
_atom_site_type_symbol
_atom_site_fract_x
_atom_site_fract_y
_atom_site_fract_z
Mo1 Mo 0.0000 0.0000 0.7360
O1 O 0.2560 0.2440 0.7500
O2 O 0.0000 0.0000 0.6615
N1 N 0.0000 0.0000 0.8444
C1 C 0.0000 0.2138 0.8736
C2 C 0.0000 0.2248 0.9347
C3 C 0.0000 0.0000 0.9671
C2C C 0.0000 -0.2248 0.9347
C1C C 0.0000 -0.2138 0.8736
C3A C 0.0000 0.0000 1.0329
C2A C 0.2248 0.0000 1.0653
C1A C 0.2138 0.0000 1.1264
N1A N 0.0000 0.0000 1.1556
C1E C -0.2138 0.0000 1.1264
C2E C -0.2248 0.0000 1.0653
O1B O -0.2560 0.2440 0.7500
O1C O -0.2560 -0.2440 0.7500
O1F O 0.2560 -0.2440 0.7500
Mo1M Mo 0.5000 0.5000 0.7640
O2M O 0.5000 0.5000 0.8385
Mo1A Mo 0.0000 0.0000 1.2640
Mo1I Mo -0.5000 0.5000 0.7640
Mo1I_2 Mo -0.5000 -0.5000 0.7640
Mo1I_3 Mo 0.5000 -0.5000 0.7640
O1B_2 O 0.7440 0.2440 0.7500
O1C_2 O 0.7440 0.7560 0.7500
O1F_2 O 0.2560 0.7560 0.7500
N1I N 0.5000 0.5000 0.6556
loop_
_geom_bond_atom_site_label_1
_geom_bond_atom_site_label_2
_geom_bond_site_symmetry_1
_geom_bond_site_symmetry_2
Mo1 O1 1_555 1_555
O1 Mo1M 1_555 1_555
O2 Mo1 1_555 1_555
N1 Mo1 1_555 1_555
C1 N1 1_555 1_555
C2 C1 1_555 1_555
C3 C2 1_555 1_555
C2C C3 1_555 1_555
C1C N1 1_555 1_555
C3A C3 1_555 1_555
C2A C3A 1_555 1_555
C1A C2A 1_555 1_555
N1A C1A 1_555 1_555
C1E N1A 1_555 1_555
C2E C3A 1_555 1_555
O1B Mo1 1_555 1_555
O1C Mo1 1_555 1_555
O1F Mo1 1_555 1_555
Mo1M O2M 1_555 1_555
Mo1A N1A 1_555 1_555
Mo1I O1B 1_555 1_555
Mo1I_2 O1C 1_555 1_555
Mo1I_3 O1F 1_555 1_555
O1B_2 Mo1M 1_555 1_555
O1C_2 Mo1M 1_555 1_555
O1F_2 Mo1M 1_555 1_555
N1I Mo1M 1_555 1_555
C2C C1C 1_555 1_555
C1E C2E 1_555 1_555

#END
