
#######################################################################
#
#                 Cambridge Crystallographic Data Centre
#                                CCDC 
#
#######################################################################
#
# If this CIF has been generated from an entry in the Cambridge 
# Structural Database, then it will include bibliographic, chemical, 
# crystal, experimental, refinement or atomic coordinate data resulting 
# from the CCDC's data processing and validation procedures.
#
#######################################################################

data_BALKUV01
_symmetry_cell_setting           monoclinic
_symmetry_space_group_name_H-M   'P 21/n'
_symmetry_Int_Tables_number      14
_space_group_name_Hall           '-P 2yn'
loop_
_symmetry_equiv_pos_site_id
_symmetry_equiv_pos_as_xyz
1 x,y,z
2 1/2+x,1/2-y,1/2+z
3 -x,-y,-z
4 1/2-x,1/2+y,1/2-z
_cell_length_a                   8.860(4)
_cell_length_b                   14.827(6)
_cell_length_c                   12.435(5)
_cell_angle_alpha                90
_cell_angle_beta                 104.075(6)
_cell_angle_gamma                90
_cell_volume                     1584.51
loop_
_atom_site_label
_atom_site_type_symbol
_atom_site_fract_x
_atom_site_fract_y
_atom_site_fract_z
Ni1 Ni 0.23743(5) 0.13588(3) 0.29751(3)
N1 N 0.0045(3) 0.1309(2) 0.3137(3)
H1 H -0.0478 0.1767 0.2738
H2 H -0.0383 0.0793 0.2821
N2 N 0.2892(3) 0.2292(2) 0.4297(2)
H3 H 0.3931 0.2285 0.4569
H4 H 0.2646 0.2843 0.4003
N3 N 0.1853(3) 0.05019(18) 0.1566(2)
H5 H 0.1021 0.0168 0.1608
H6 H 0.1555 0.0856 0.0964
N4 N 0.4697(3) 0.14789(19) 0.2848(2)
H7 H 0.4739 0.1959 0.2414
H8 H 0.5280 0.1614 0.3528
N5 N 0.2965(3) 0.02406(19) 0.4020(2)
N6 N 0.3579(4) -0.13380(18) 0.4512(2)
N7 N 0.3281(3) -0.25491(19) 0.3140(2)
C1 C -0.0229(5) 0.1355(3) 0.4246(4)
H9 H 0.0201 0.0818 0.4652
H10 H -0.1343 0.1350 0.4179
C2 C 0.0440(5) 0.2152(3) 0.4896(4)
H11 H 0.0056 0.2168 0.5563
H12 H 0.0050 0.2686 0.4467
C3 C 0.2192(6) 0.2210(3) 0.5235(3)
H13 H 0.2491 0.2727 0.5717
H14 H 0.2598 0.1674 0.5654
C4 C 0.3048(5) -0.0122(2) 0.1360(3)
H15 H 0.2647 -0.0429 0.0660
H16 H 0.3271 -0.0574 0.1941
C5 C 0.4540(5) 0.0364(3) 0.1324(3)
H17 H 0.5195 -0.0048 0.1035
H18 H 0.4283 0.0863 0.0808
C6 C 0.5467(5) 0.0725(3) 0.2423(3)
H19 H 0.5642 0.0241 0.2964
H20 H 0.6474 0.0926 0.2340
C7 C 0.3234(4) -0.0505(2) 0.4213(2)
C8 C 0.3381(4) -0.1959(2) 0.3760(3)
N7C N 0.1719(3) 0.24509(19) 0.1860(2)
Ni1C Ni 0.26257(5) -0.36412(3) 0.20249(3)
Cl1 Cl -0.13471(11) -0.12010(6) 0.17052(8)
O1 O 0.0066(4) -0.1290(3) 0.2496(3)
O2 O -0.1219(6) -0.1648(3) 0.0728(3)
O3 O -0.1646(4) -0.02749(19) 0.1435(3)
O4 O -0.2541(5) -0.1588(3) 0.2091(4)
loop_
_geom_bond_atom_site_label_1
_geom_bond_atom_site_label_2
_geom_bond_site_symmetry_1
_geom_bond_site_symmetry_2
Ni1 N1 1_555 1_555
N1 H1 1_555 1_555
H2 N1 1_555 1_555
N2 Ni1 1_555 1_555
H3 N2 1_555 1_555
H4 N2 1_555 1_555
N3 Ni1 1_555 1_555
H5 N3 1_555 1_555
H6 N3 1_555 1_555
N4 Ni1 1_555 1_555
H7 N4 1_555 1_555
H8 N4 1_555 1_555
N5 Ni1 1_555 1_555
N6 C7 1_555 1_555
N7 C8 1_555 1_555
C1 N1 1_555 1_555
H9 C1 1_555 1_555
H10 C1 1_555 1_555
C2 C1 1_555 1_555
H11 C2 1_555 1_555
H12 C2 1_555 1_555
C3 N2 1_555 1_555
H13 C3 1_555 1_555
H14 C3 1_555 1_555
C4 N3 1_555 1_555
H15 C4 1_555 1_555
H16 C4 1_555 1_555
C5 C4 1_555 1_555
H17 C5 1_555 1_555
H18 C5 1_555 1_555
C6 N4 1_555 1_555
H19 C6 1_555 1_555
H20 C6 1_555 1_555
C7 N5 1_555 1_555
C8 N6 1_555 1_555
Cl1 O1 1_555 1_555
O2 Cl1 1_555 1_555
O3 Cl1 1_555 1_555
O4 Cl1 1_555 1_555
N7C Ni1 1_555 1_555
Ni1C N7 1_555 1_555
C2 C3 1_555 1_555
C5 C6 1_555 1_555

#END
