
#######################################################################
#
#                 Cambridge Crystallographic Data Centre
#                                CCDC 
#
#######################################################################
#
# If this CIF has been generated from an entry in the Cambridge 
# Structural Database, then it will include bibliographic, chemical, 
# crystal, experimental, refinement or atomic coordinate data resulting 
# from the CCDC's data processing and validation procedures.
#
#######################################################################

data_BALLOP
_symmetry_cell_setting           monoclinic
_symmetry_space_group_name_H-M   'P 2/n'
_symmetry_Int_Tables_number      13
_space_group_name_Hall           '-P 2yac'
loop_
_symmetry_equiv_pos_site_id
_symmetry_equiv_pos_as_xyz
1 x,y,z
2 1/2-x,y,1/2-z
3 -x,-y,-z
4 1/2+x,-y,1/2+z
_cell_length_a                   5.3337(8)
_cell_length_b                   5.33121(8)
_cell_length_c                   18.875(3)
_cell_angle_alpha                90
_cell_angle_beta                 94.036(3)
_cell_angle_gamma                90
_cell_volume                     535.381
loop_
_atom_site_label
_atom_site_type_symbol
_atom_site_fract_x
_atom_site_fract_y
_atom_site_fract_z
Cu1 Cu 1.2500 -0.1732(5) -0.7500
N1 N -0.0348(23) -0.0241(19) -0.3084(5)
C1 C 0.1292(26) -0.1060(24) -0.3364(6)
N2 N 0.5431(22) -0.5959(20) -0.3114(6)
C2 C 0.4421(27) -0.4257(26) -0.3396(7)
C3 C 0.3215(26) -0.2161(23) -0.3743(6)
C4 C 0.4204(24) -0.1067(23) -0.4372(6)
C5 C 0.2925(27) 0.1070(26) -0.4692(6)
C6 C 0.6172(24) -0.2080(26) -0.4700(6)
H1 H 0.1497(27) 0.1770(26) -0.4492(6)
H2 H 0.6956(24) -0.3545(26) -0.4502(6)
Cu1B Cu -0.2500 0.1732(5) -0.2500
N1B N 1.0348(23) 0.0241(19) -0.6916(5)
C1B C 0.8708(26) 0.1060(24) -0.6636(6)
N2B N 1.4569(22) -0.4041(20) -0.6886(6)
C3B C 0.6785(26) 0.2161(23) -0.6257(6)
C4B C 0.5796(24) 0.1067(23) -0.5628(6)
C6B C 0.3828(24) 0.2080(26) -0.5300(6)
H2B H 0.3044(24) 0.3545(26) -0.5498(6)
N1C N 1.4652(23) 0.0241(19) -0.8084(5)
N2C N 1.0431(22) -0.4041(20) -0.8114(6)
C2B C 0.5579(27) 0.4257(26) -0.6604(7)
C5B C 0.7075(27) -0.1070(26) -0.5308(6)
H1B H 0.8503(27) -0.1770(26) -0.5508(6)
N2B_2 N 0.4569(22) 0.5959(20) -0.6886(6)
Cu1B_2 Cu 0.7500 -0.8268(5) -0.2500
Cu1_2 Cu 0.2500 0.8268(5) -0.7500
loop_
_geom_bond_atom_site_label_1
_geom_bond_atom_site_label_2
_geom_bond_site_symmetry_1
_geom_bond_site_symmetry_2
Cu1 N1B 1_555 1_555
N1 C1 1_555 1_555
C1 C3 1_555 1_555
N2 C2 1_555 1_555
C2 C3 1_555 1_555
C3 C4 1_555 1_555
C4 C5 1_555 1_555
C5 H1 1_555 1_555
C6 C4 1_555 1_555
H2 C6 1_555 1_555
Cu1B N1 1_555 1_555
N1B C1B 1_555 1_555
C1B C3B 1_555 1_555
N2B Cu1 1_555 1_555
C3B C4B 1_555 1_555
C4B C6B 1_555 1_555
C6B C5 1_555 1_555
H2B C6B 1_555 1_555
N1C Cu1 1_555 1_555
N2C Cu1 1_555 1_555
C2B C3B 1_555 1_555
C5B C6 1_555 1_555
H1B C5B 1_555 1_555
N2B_2 C2B 1_555 1_555
Cu1B_2 N2 1_555 1_555
Cu1_2 N2B_2 1_555 1_555
C4B C5B 1_555 1_555

#END
