
#######################################################################
#
#                 Cambridge Crystallographic Data Centre
#                                CCDC 
#
#######################################################################
#
# If this CIF has been generated from an entry in the Cambridge 
# Structural Database, then it will include bibliographic, chemical, 
# crystal, experimental, refinement or atomic coordinate data resulting 
# from the CCDC's data processing and validation procedures.
#
#######################################################################

data_BALZAP
_symmetry_cell_setting           monoclinic
_symmetry_space_group_name_H-M   'P 21/c'
_symmetry_Int_Tables_number      14
_space_group_name_Hall           '-P 2ybc'
loop_
_symmetry_equiv_pos_site_id
_symmetry_equiv_pos_as_xyz
1 x,y,z
2 -x,1/2+y,1/2-z
3 -x,-y,-z
4 x,1/2-y,1/2+z
_cell_length_a                   13.908(2)
_cell_length_b                   9.775(1)
_cell_length_c                   13.424(3)
_cell_angle_alpha                90
_cell_angle_beta                 100.84(1)
_cell_angle_gamma                90
_cell_volume                     1792.44
loop_
_atom_site_label
_atom_site_type_symbol
_atom_site_fract_x
_atom_site_fract_y
_atom_site_fract_z
Sn1 Sn 0.47682(2) -0.06136(3) -0.29941(3)
O1 O 0.3716(2) -0.1962(3) -0.3899(2)
O2 O 0.4231(3) -0.3768(4) -0.2969(3)
O3 O 0.2194(3) 0.0231(4) -0.3648(3)
N1 N 0.1666(3) -0.2226(4) -0.4170(3)
N2 N 0.0771(3) -0.1999(4) -0.4141(3)
C1 C 0.3653(3) -0.3211(5) -0.3650(4)
C2 C 0.2828(3) -0.4033(4) -0.4256(4)
C3 C 0.3030(4) -0.5327(5) -0.4566(4)
C4 C 0.2316(4) -0.6133(6) -0.5149(5)
C5 C 0.1383(4) -0.5621(6) -0.5420(4)
C6 C 0.1153(4) -0.4346(6) -0.5108(4)
C7 C 0.1875(3) -0.3543(5) -0.4516(4)
C8 C 0.0569(3) -0.0685(5) -0.3822(3)
C9 C -0.0407(4) -0.0449(5) -0.3747(4)
C10 C -0.1786(5) 0.1022(7) -0.3368(5)
C11 C -0.0722(4) 0.0781(6) -0.3432(4)
C12 C -0.0027(4) 0.1810(6) -0.3185(4)
C13 C 0.0944(4) 0.1610(6) -0.3259(4)
C14 C 0.1245(4) 0.0370(5) -0.3573(4)
C15 C 0.6083(4) -0.1651(5) -0.3076(4)
C16 C 0.4098(4) -0.0723(5) -0.1710(4)
C17 C 0.4389(4) 0.0937(5) -0.4084(4)
H1 H 0.3689 -0.5686 -0.4371
H2 H 0.2229 -0.0665 -0.3959
H3 H 0.2476 -0.7042 -0.5361
H4 H 0.0879 -0.6165 -0.5843
H5 H 0.0489 -0.4000 -0.5296
H6 H -0.0880 -0.1183 -0.3922
H7 H -0.2045 0.1763 -0.3818
H8 H -0.2158 0.0195 -0.3563
H9 H -0.1831 0.1262 -0.2675
H10 H -0.0228 0.2693 -0.2957
H11 H 0.1412 0.2349 -0.3088
H12 H 0.6163 -0.1696 -0.3778
H13 H 0.6630 -0.1163 -0.2679
H14 H 0.6056 -0.2570 -0.2811
H15 H 0.3433 -0.0376 -0.1884
H16 H 0.4082 -0.1668 -0.1492
H17 H 0.4466 -0.0178 -0.1167
H18 H 0.4527 0.0631 -0.4729
H19 H 0.3699 0.1146 -0.4155
H20 H 0.4771 0.1752 -0.3867
O2A O 0.5769(3) 0.1232(4) -0.2031(3)
Sn1A Sn 0.52318(2) -0.56136(3) -0.20059(3)
loop_
_geom_bond_atom_site_label_1
_geom_bond_atom_site_label_2
_geom_bond_site_symmetry_1
_geom_bond_site_symmetry_2
Sn1 O1 1_555 1_555
O1 C1 1_555 1_555
O2 C1 1_555 1_555
O3 C14 1_555 1_555
N1 N2 1_555 1_555
N2 C8 1_555 1_555
C1 C2 1_555 1_555
C2 C3 1_555 1_555
C3 C4 1_555 1_555
C4 C5 1_555 1_555
C5 C6 1_555 1_555
C6 C7 1_555 1_555
C7 N1 1_555 1_555
C8 C9 1_555 1_555
C9 C11 1_555 1_555
C10 C11 1_555 1_555
C11 C12 1_555 1_555
C12 C13 1_555 1_555
C13 C14 1_555 1_555
C14 C8 1_555 1_555
C15 Sn1 1_555 1_555
C16 Sn1 1_555 1_555
C17 Sn1 1_555 1_555
H1 C3 1_555 1_555
H2 O3 1_555 1_555
H3 C4 1_555 1_555
H4 C5 1_555 1_555
H5 C6 1_555 1_555
H6 C9 1_555 1_555
H7 C10 1_555 1_555
H8 C10 1_555 1_555
H9 C10 1_555 1_555
H10 C12 1_555 1_555
H11 C13 1_555 1_555
H12 C15 1_555 1_555
H13 C15 1_555 1_555
H14 C15 1_555 1_555
H15 C16 1_555 1_555
H16 C16 1_555 1_555
H17 C16 1_555 1_555
H18 C17 1_555 1_555
H19 C17 1_555 1_555
H20 C17 1_555 1_555
O2A Sn1 1_555 1_555
Sn1A O2 1_555 1_555
C2 C7 1_555 1_555

#END
