
#######################################################################
#
#                 Cambridge Crystallographic Data Centre
#                                CCDC 
#
#######################################################################
#
# If this CIF has been generated from an entry in the Cambridge 
# Structural Database, then it will include bibliographic, chemical, 
# crystal, experimental, refinement or atomic coordinate data resulting 
# from the CCDC's data processing and validation procedures.
#
#######################################################################

data_BAMBIA
_symmetry_cell_setting           orthorhombic
_symmetry_space_group_name_H-M   'P b c a'
_symmetry_Int_Tables_number      61
_space_group_name_Hall           '-P 2ac 2ab'
loop_
_symmetry_equiv_pos_site_id
_symmetry_equiv_pos_as_xyz
1 x,y,z
2 1/2-x,-y,1/2+z
3 1/2+x,1/2-y,-z
4 -x,1/2+y,1/2-z
5 -x,-y,-z
6 1/2+x,y,1/2-z
7 1/2-x,1/2+y,z
8 x,1/2-y,1/2+z
_cell_length_a                   16.935(6)
_cell_length_b                   24.099(9)
_cell_length_c                   10.398(7)
_cell_angle_alpha                90
_cell_angle_beta                 90
_cell_angle_gamma                90
_cell_volume                     4243.6
loop_
_atom_site_label
_atom_site_type_symbol
_atom_site_fract_x
_atom_site_fract_y
_atom_site_fract_z
Sn1 Sn -0.55370(7) 0.21945(5) -0.1783(1)
O1 O -0.5437(7) 0.1549(5) -0.0302(9)
O2 O -0.5632(7) 0.2164(6) 0.127(1)
O3 O -0.3609(7) 0.1270(5) -0.079(1)
N1 N -0.4485(9) 0.0723(6) 0.083(1)
N2 N -0.4097(9) 0.0296(6) 0.074(1)
C1 C -0.555(1) 0.1659(8) 0.089(2)
C2 C -0.5613(10) 0.1187(7) 0.178(2)
C3 C -0.622(1) 0.1186(9) 0.268(2)
C4 C -0.634(1) 0.073(1) 0.346(2)
C5 C -0.586(1) 0.0317(10) 0.340(2)
C6 C -0.5239(10) 0.0300(8) 0.252(2)
C7 C -0.514(1) 0.0714(8) 0.171(2)
C8 C -0.345(1) 0.0307(9) -0.012(2)
C9 C -0.303(1) -0.0205(9) -0.021(2)
C10 C -0.190(1) -0.0720(9) -0.108(2)
C11 C -0.236(1) -0.024(1) -0.099(2)
C12 C -0.215(1) 0.025(1) -0.168(2)
C13 C -0.254(1) 0.0689(8) -0.161(2)
C14 C -0.321(1) 0.075(1) -0.085(2)
C15 C -0.673(1) 0.2426(8) -0.135(2)
C16 C -0.723(1) 0.209(2) -0.067(2)
C17 C -0.4558(10) 0.2649(8) -0.124(1)
C18 C -0.389(1) 0.2660(9) -0.220(2)
C19 C -0.551(2) 0.1582(8) -0.325(3)
C20 C -0.497(3) 0.129(1) -0.334(4)
H1 H -0.6569 0.1506 0.2751
H2 H -0.6788 0.0715 0.4052
H3 H -0.5931 0.0007 0.3988
H4 H -0.4882 -0.0015 0.2513
H5 H -0.3214 -0.0528 0.0257
H6 H -0.2130 -0.1011 -0.0556
H7 H -0.1872 -0.0840 -0.1966
H8 H -0.1368 -0.0642 -0.0768
H9 H -0.1687 0.0236 -0.2231
H10 H -0.2364 0.1004 -0.2117
H11 H -0.6701 0.2771 -0.0876
H12 H -0.6987 0.2492 -0.2173
H13 H -0.7749 0.2265 -0.0615
H14 H -0.7026 0.2034 0.0188
H15 H -0.7284 0.1736 -0.1104
H16 H -0.4357 0.2493 -0.0444
H17 H -0.4726 0.3029 -0.1090
H18 H -0.3691 0.2286 -0.2331
H19 H -0.3467 0.2895 -0.1886
H20 H -0.4081 0.2805 -0.3017
H21 H -0.5968 0.1347 -0.3121
H22 H -0.5557 0.1776 -0.4062
H23 H -0.4892 0.1098 -0.2536
H24 H -0.4508 0.1507 -0.3552
H25 H -0.5073 0.1023 -0.4021
O2G O -0.5632(7) 0.2836(6) -0.373(1)
Sn1G Sn -0.55370(7) 0.28055(5) 0.3217(1)
loop_
_geom_bond_atom_site_label_1
_geom_bond_atom_site_label_2
_geom_bond_site_symmetry_1
_geom_bond_site_symmetry_2
Sn1 O1 1_555 1_555
O1 C1 1_555 1_555
O2 C1 1_555 1_555
O3 C14 1_555 1_555
N1 N2 1_555 1_555
N2 C8 1_555 1_555
C1 C2 1_555 1_555
C2 C3 1_555 1_555
C3 C4 1_555 1_555
C4 C5 1_555 1_555
C5 C6 1_555 1_555
C6 C7 1_555 1_555
C7 N1 1_555 1_555
C8 C9 1_555 1_555
C9 C11 1_555 1_555
C10 C11 1_555 1_555
C11 C12 1_555 1_555
C12 C13 1_555 1_555
C13 C14 1_555 1_555
C14 C8 1_555 1_555
C15 Sn1 1_555 1_555
C16 C15 1_555 1_555
C17 Sn1 1_555 1_555
C18 C17 1_555 1_555
C19 Sn1 1_555 1_555
C20 C19 1_555 1_555
H1 C3 1_555 1_555
H2 C4 1_555 1_555
H3 C5 1_555 1_555
H4 C6 1_555 1_555
H5 C9 1_555 1_555
H6 C10 1_555 1_555
H7 C10 1_555 1_555
H8 C10 1_555 1_555
H9 C12 1_555 1_555
H10 C13 1_555 1_555
H11 C15 1_555 1_555
H12 C15 1_555 1_555
H13 C16 1_555 1_555
H14 C16 1_555 1_555
H15 C16 1_555 1_555
H16 C17 1_555 1_555
H17 C17 1_555 1_555
H18 C18 1_555 1_555
H19 C18 1_555 1_555
H20 C18 1_555 1_555
H21 C19 1_555 1_555
H22 C19 1_555 1_555
H23 C20 1_555 1_555
H24 C20 1_555 1_555
H25 C20 1_555 1_555
O2G Sn1 1_555 1_555
Sn1G O2 1_555 1_555
C2 C7 1_555 1_555

#END
