
#######################################################################
#
#                 Cambridge Crystallographic Data Centre
#                                CCDC 
#
#######################################################################
#
# If this CIF has been generated from an entry in the Cambridge 
# Structural Database, then it will include bibliographic, chemical, 
# crystal, experimental, refinement or atomic coordinate data resulting 
# from the CCDC's data processing and validation procedures.
#
#######################################################################

data_BAMJIJ
_symmetry_cell_setting           orthorhombic
_symmetry_space_group_name_H-M   'P 21 21 21'
_symmetry_Int_Tables_number      19
_space_group_name_Hall           'P 2ac 2ab'
loop_
_symmetry_equiv_pos_site_id
_symmetry_equiv_pos_as_xyz
1 x,y,z
2 1/2-x,-y,1/2+z
3 -x,1/2+y,1/2-z
4 1/2+x,1/2-y,-z
_cell_length_a                   7.1288(10)
_cell_length_b                   18.5462(17)
_cell_length_c                   20.032(2)
_cell_angle_alpha                90
_cell_angle_beta                 90
_cell_angle_gamma                90
_cell_volume                     2648.47
loop_
_atom_site_label
_atom_site_type_symbol
_atom_site_fract_x
_atom_site_fract_y
_atom_site_fract_z
O1 O 0.2683(16) -0.0832(6) -0.1893(7)
O2 O 0.1097(19) 0.0379(6) -0.1654(6)
O3 O -0.002(2) -0.0311(7) -0.0618(8)
O4 O 0.209(2) -0.1565(6) -0.0652(5)
C1 C 0.222(3) -0.1918(11) -0.2506(9)
C2 C 0.220(3) -0.1195(11) -0.2450(9)
C3 C 0.195(3) -0.0797(8) -0.2985(11)
C4 C 0.147(3) -0.1166(12) -0.3592(9)
H1 H 0.1143 -0.0889 -0.3961
C5 C 0.148(3) -0.1910(9) -0.3663(11)
H2 H 0.1186 -0.2136 -0.4064
C6 C 0.196(3) -0.2285(10) -0.3107(10)
H3 H 0.2110 -0.2783 -0.3126
C7 C 0.174(3) 0.0025(9) -0.2964(11)
H4 H 0.2662 0.0218 -0.2657
H5 H 0.2015 0.0217 -0.3403
C8 C -0.016(3) 0.0283(9) -0.2756(10)
C9 C -0.035(3) 0.0472(9) -0.2062(12)
C10 C -0.213(3) 0.0730(9) -0.1849(9)
C11 C -0.366(3) 0.0812(9) -0.2246(8)
H6 H -0.4802 0.0983 -0.2086
C12 C -0.338(3) 0.0604(11) -0.2962(13)
H7 H -0.4361 0.0608 -0.3267
C13 C -0.167(4) 0.0418(11) -0.3136(13)
H8 H -0.1484 0.0371 -0.3593
C14 C -0.225(4) 0.0947(10) -0.1086(9)
H9 H -0.1023 0.1107 -0.0938
H10 H -0.3112 0.1348 -0.1037
C15 C -0.290(4) 0.0330(9) -0.0646(8)
C16 C -0.187(4) -0.0244(13) -0.0423(10)
C17 C -0.255(3) -0.0860(8) -0.0061(9)
C18 C -0.441(4) -0.0818(11) 0.0096(11)
H11 H -0.4908 -0.1185 0.0359
C19 C -0.563(3) -0.0276(9) -0.0103(10)
H12 H -0.6907 -0.0289 -0.0019
C20 C -0.480(3) 0.0266(12) -0.0425(10)
H13 H -0.5565 0.0658 -0.0521
C21 C -0.142(2) -0.1470(8) 0.0099(9)
H14 H -0.0186 -0.1308 0.0236
H15 H -0.1981 -0.1726 0.0471
C22 C -0.124(3) -0.1956(11) -0.0463(10)
C23 C 0.059(3) -0.1943(10) -0.0880(11)
C24 C 0.079(3) -0.2405(10) -0.1447(9)
C25 C -0.064(3) -0.2833(11) -0.1628(11)
H16 H -0.0491 -0.3128 -0.2000
C26 C -0.238(4) -0.2857(10) -0.1272(10)
H17 H -0.3315 -0.3182 -0.1389
C27 C -0.263(4) -0.2371(13) -0.0738(11)
H18 H -0.3826 -0.2329 -0.0558
C28 C 0.251(3) -0.2360(10) -0.1856(9)
H19 H 0.2907 -0.2844 -0.1973
H20 H 0.3497 -0.2140 -0.1594
N1 N -0.339(3) -0.1841(10) -0.3342(8)
C29 C -0.339(4) -0.1585(13) -0.3970(9)
H21 H -0.3563 -0.1095 -0.4043
C30 C -0.313(3) -0.2040(11) -0.4512(9)
H22 H -0.3253 -0.1863 -0.4944
C31 C -0.271(4) -0.2722(13) -0.4413(11)
H23 H -0.2445 -0.3018 -0.4775
C32 C -0.267(3) -0.2983(11) -0.3816(12)
H24 H -0.2461 -0.3472 -0.3742
C33 C -0.294(4) -0.2522(11) -0.3306(10)
H25 H -0.2790 -0.2710 -0.2880
Cs1 Cs -0.29252(19) -0.10824(7) -0.19742(7)
C2_2 C -0.780(3) -0.1195(11) -0.2450(9)
O1_2 O -0.7317(16) -0.0832(6) -0.1893(7)
Cs1_2 Cs 0.70748(19) -0.10824(7) -0.19742(7)
loop_
_geom_bond_atom_site_label_1
_geom_bond_atom_site_label_2
_geom_bond_site_symmetry_1
_geom_bond_site_symmetry_2
O1 C2 1_555 1_555
O2 C9 1_555 1_555
O3 C16 1_555 1_555
O4 C23 1_555 1_555
C1 C2 1_555 1_555
C2 C3 1_555 1_555
C3 C4 1_555 1_555
C4 H1 1_555 1_555
C5 C4 1_555 1_555
H2 C5 1_555 1_555
C6 C1 1_555 1_555
H3 C6 1_555 1_555
C7 C3 1_555 1_555
H4 C7 1_555 1_555
H5 C7 1_555 1_555
C8 C7 1_555 1_555
C9 C8 1_555 1_555
C10 C9 1_555 1_555
C11 C10 1_555 1_555
H6 C11 1_555 1_555
C12 C11 1_555 1_555
H7 C12 1_555 1_555
C13 C8 1_555 1_555
H8 C13 1_555 1_555
C14 C10 1_555 1_555
H9 C14 1_555 1_555
H10 C14 1_555 1_555
C15 C14 1_555 1_555
C16 C15 1_555 1_555
C17 C16 1_555 1_555
C18 C17 1_555 1_555
H11 C18 1_555 1_555
C19 C18 1_555 1_555
H12 C19 1_555 1_555
C20 C15 1_555 1_555
H13 C20 1_555 1_555
C21 C17 1_555 1_555
H14 C21 1_555 1_555
H15 C21 1_555 1_555
C22 C21 1_555 1_555
C23 C22 1_555 1_555
C24 C23 1_555 1_555
C25 C24 1_555 1_555
H16 C25 1_555 1_555
C26 C25 1_555 1_555
H17 C26 1_555 1_555
C27 C22 1_555 1_555
H18 C27 1_555 1_555
C28 C1 1_555 1_555
H19 C28 1_555 1_555
H20 C28 1_555 1_555
N1 C29 1_555 1_555
C29 H21 1_555 1_555
C30 C29 1_555 1_555
H22 C30 1_555 1_555
C31 C30 1_555 1_555
H23 C31 1_555 1_555
C32 C31 1_555 1_555
H24 C32 1_555 1_555
C33 N1 1_555 1_555
H25 C33 1_555 1_555
Cs1 O3 1_555 1_555
C2_2 Cs1 1_555 1_555
O1_2 Cs1 1_555 1_555
Cs1_2 O1 1_555 1_555
C2 Cs1_2 1_555 1_555
C5 C6 1_555 1_555
C8 Cs1 1_555 1_555
C9 Cs1 1_555 1_555
C10 Cs1 1_555 1_555
C11 Cs1 1_555 1_555
C12 C13 1_555 1_555
C16 Cs1 1_555 1_555
C19 C20 1_555 1_555
C22 Cs1 1_555 1_555
C23 Cs1 1_555 1_555
C24 C28 1_555 1_555
C25 Cs1 1_555 1_555
C26 Cs1 1_555 1_555
C26 C27 1_555 1_555
C27 Cs1 1_555 1_555
N1 Cs1 1_555 1_555
C32 C33 1_555 1_555
C2_2 O1_2 1_555 1_555

#END
