
#######################################################################
#
#                 Cambridge Crystallographic Data Centre
#                                CCDC 
#
#######################################################################
#
# If this CIF has been generated from an entry in the Cambridge 
# Structural Database, then it will include bibliographic, chemical, 
# crystal, experimental, refinement or atomic coordinate data resulting 
# from the CCDC's data processing and validation procedures.
#
#######################################################################

data_BAMJOP
_symmetry_cell_setting           monoclinic
_symmetry_space_group_name_H-M   'C c'
_symmetry_Int_Tables_number      9
_space_group_name_Hall           'C -2yc'
loop_
_symmetry_equiv_pos_site_id
_symmetry_equiv_pos_as_xyz
1 x,y,z
2 x,-y,1/2+z
3 1/2+x,1/2+y,z
4 1/2+x,1/2-y,1/2+z
_cell_length_a                   26.3258(18)
_cell_length_b                   11.1154(8)
_cell_length_c                   17.7265(9)
_cell_angle_alpha                90
_cell_angle_beta                 111.824(4)
_cell_angle_gamma                90
_cell_volume                     4815.4
loop_
_atom_site_label
_atom_site_type_symbol
_atom_site_fract_x
_atom_site_fract_y
_atom_site_fract_z
Cs1 Cs -0.415910(16) 0.31591(4) -0.457570(19)
Cs2 Cs -0.15342(2) 0.25817(5) -0.22128(3)
O1 O -0.5649(3) 0.1835(6) -0.5293(4)
H1 H -0.5512 0.1872 -0.5775
O2 O -0.5233(3) 0.1475(5) -0.6327(3)
O3 O -0.5343(3) 0.3598(6) -0.6840(5)
H2 H -0.5277 0.2963 -0.6682
O4 O -0.5875(2) 0.4271(7) -0.5729(4)
H3 H -0.5815 0.3228 -0.5383
C1 C -0.5301(3) 0.2357(7) -0.3879(6)
C2 C -0.5316(3) 0.1593(7) -0.4536(5)
C3 C -0.4966(3) 0.0580(7) -0.4387(5)
C4 C -0.4616(3) 0.0362(8) -0.3581(5)
H4 H -0.4383 -0.0299 -0.3466
C5 C -0.4611(4) 0.1121(9) -0.2945(5)
H5 H -0.4379 0.0958 -0.2414
C6 C -0.4946(4) 0.2093(8) -0.3110(6)
H6 H -0.4933 0.2598 -0.2685
C7 C -0.4977(3) -0.0252(7) -0.5052(5)
H7 H -0.5345 -0.0266 -0.5460
H8 H -0.4892 -0.1058 -0.4831
C8 C -0.4584(3) 0.0076(7) -0.5456(4)
C9 C -0.4735(3) 0.0951(7) -0.6093(4)
C10 C -0.4367(3) 0.1280(8) -0.6453(4)
C11 C -0.3848(4) 0.0748(9) -0.6178(5)
H9 H -0.3599 0.0965 -0.6414
C12 C -0.3698(4) -0.0092(10) -0.5562(6)
H10 H -0.3351 -0.0433 -0.5381
C13 C -0.4070(3) -0.0425(9) -0.5214(5)
H11 H -0.3969 -0.1003 -0.4806
C14 C -0.4520(4) 0.2208(8) -0.7115(5)
H12 H -0.4306 0.2072 -0.7449
H13 H -0.4902 0.2102 -0.7457
C15 C -0.4435(3) 0.3481(7) -0.6813(4)
C16 C -0.4850(3) 0.4135(8) -0.6679(4)
C17 C -0.4779(3) 0.5333(8) -0.6406(4)
C18 C -0.4283(4) 0.5847(10) -0.6264(6)
H14 H -0.4236 0.6656 -0.6121
C19 C -0.3843(5) 0.5211(11) -0.6322(8)
H15 H -0.3501 0.5571 -0.6178
C20 C -0.3923(5) 0.4014(10) -0.6603(7)
H16 H -0.3633 0.3581 -0.6649
C21 C -0.5220(4) 0.5959(8) -0.6200(5)
H17 H -0.5204 0.6819 -0.6281
H18 H -0.5577 0.5672 -0.6556
C22 C -0.5140(3) 0.5706(7) -0.5328(5)
C23 C -0.5452(3) 0.4821(8) -0.5119(6)
C24 C -0.5335(3) 0.4521(7) -0.4292(5)
C25 C -0.4914(5) 0.5090(8) -0.3704(6)
H19 H -0.4827 0.4883 -0.3162
C26 C -0.4618(5) 0.5966(8) -0.3900(6)
H20 H -0.4341 0.6370 -0.3492
C27 C -0.4730(4) 0.6249(8) -0.4708(6)
H21 H -0.4518 0.6829 -0.4831
C28 C -0.5631(4) 0.3503(8) -0.4068(7)
H22 H -0.5712 0.3735 -0.3597
H23 H -0.5975 0.3358 -0.4514
O5 O -0.3223(2) 0.3572(5) -0.2937(3)
H24 H -0.2977 0.4179 -0.3113
O6 O -0.25314(19) 0.4923(5) -0.3262(3)
O7 O -0.24312(19) 0.3779(4) -0.4385(3)
H25 H -0.2585 0.4077 -0.3878
O8 O -0.3025(2) 0.2006(5) -0.4176(3)
H26 H -0.2825 0.2556 -0.4302
C29 C -0.2870(3) 0.1872(7) -0.2056(4)
C30 C -0.2892(3) 0.3124(7) -0.2191(4)
C31 C -0.2584(3) 0.3919(8) -0.1574(4)
C32 C -0.2249(4) 0.3448(8) -0.0823(5)
H27 H -0.2071 0.3986 -0.0379
C33 C -0.2245(4) 0.2230(9) -0.0674(5)
H28 H -0.2039 0.1924 -0.0163
C34 C -0.2554(3) 0.1461(9) -0.1296(5)
H29 H -0.2546 0.0640 -0.1193
C35 C -0.2589(3) 0.5260(7) -0.1716(5)
H30 H -0.2926 0.5475 -0.2158
H31 H -0.2584 0.5676 -0.1231
C36 C -0.2108(3) 0.5680(6) -0.1920(4)
C37 C -0.2101(3) 0.5479(6) -0.2697(4)
C38 C -0.1656(3) 0.5881(6) -0.2892(4)
C39 C -0.1204(3) 0.6421(7) -0.2274(5)
H32 H -0.0898 0.6640 -0.2385
C40 C -0.1211(3) 0.6626(7) -0.1505(4)
H33 H -0.0919 0.7006 -0.1108
C41 C -0.1667(3) 0.6252(7) -0.1340(4)
H34 H -0.1674 0.6391 -0.0827
C42 C -0.1656(3) 0.5713(6) -0.3742(4)
H35 H -0.1404 0.6290 -0.3821
H36 H -0.2019 0.5903 -0.4131
C43 C -0.1502(3) 0.4472(7) -0.3937(4)
C44 C -0.1900(3) 0.3568(6) -0.4257(4)
C45 C -0.1747(3) 0.2428(7) -0.4465(4)
C46 C -0.1200(3) 0.2215(7) -0.4338(4)
H37 H -0.1097 0.1469 -0.4470
C47 C -0.0803(3) 0.3106(8) -0.4013(4)
H38 H -0.0439 0.2958 -0.3936
C48 C -0.0958(3) 0.4197(7) -0.3812(4)
H39 H -0.0691 0.4779 -0.3583
C49 C -0.2164(3) 0.1428(7) -0.4754(5)
H40 H -0.2044 0.0848 -0.5060
H41 H -0.2511 0.1760 -0.5113
C50 C -0.2246(3) 0.0801(7) -0.4051(5)
C51 C -0.2657(3) 0.1133(7) -0.3779(5)
C52 C -0.2713(3) 0.0575(7) -0.3110(5)
C53 C -0.2334(3) -0.0308(8) -0.2679(6)
H42 H -0.2362 -0.0672 -0.2224
C54 C -0.1922(4) -0.0628(8) -0.2938(7)
H43 H -0.1669 -0.1208 -0.2652
C55 C -0.1876(3) -0.0094(7) -0.3624(6)
H44 H -0.1598 -0.0334 -0.3797
C56 C -0.3125(3) 0.0994(7) -0.2746(5)
H45 H -0.3262 0.0301 -0.2547
H46 H -0.3433 0.1375 -0.3165
O9 O -0.3423(11) 0.487(2) -0.4958(16)
Cs2C Cs -0.65342(2) 0.24183(5) -0.72128(3)
H1C H -0.0512 0.3128 -0.0775
H2C H -0.0277 0.2037 -0.1682
H3C H -0.0815 0.1772 -0.0383
O1C O -0.0649(3) 0.3165(6) -0.0293(4)
O2C O -0.0233(3) 0.3525(5) -0.1327(3)
O3C O -0.0343(3) 0.1402(6) -0.1840(5)
O4C O -0.0875(2) 0.0729(7) -0.0729(4)
N1 N -0.8455(4) -0.2780(8) -0.8033(7)
C57 C -0.8263(4) -0.2630(8) -0.8503(8)
C58 C -0.8010(5) -0.2451(9) -0.9088(7)
H47 H -0.7643 -0.2168 -0.8815
H48 H -0.8215 -0.1867 -0.9482
H49 H -0.8004 -0.3199 -0.9355
loop_
_geom_bond_atom_site_label_1
_geom_bond_atom_site_label_2
_geom_bond_site_symmetry_1
_geom_bond_site_symmetry_2
Cs1 C2 1_555 1_555
Cs2 O6 1_555 1_555
O1 H1 1_555 1_555
O2 C9 1_555 1_555
O3 H2 1_555 1_555
O4 H3 1_555 1_555
C1 C2 1_555 1_555
C2 O1 1_555 1_555
C3 Cs1 1_555 1_555
C4 C3 1_555 1_555
H4 C4 1_555 1_555
C5 C4 1_555 1_555
H5 C5 1_555 1_555
C6 C1 1_555 1_555
H6 C6 1_555 1_555
C7 C3 1_555 1_555
H7 C7 1_555 1_555
H8 C7 1_555 1_555
C8 C7 1_555 1_555
C9 Cs1 1_555 1_555
C10 C9 1_555 1_555
C11 C10 1_555 1_555
H9 C11 1_555 1_555
C12 C11 1_555 1_555
H10 C12 1_555 1_555
C13 C8 1_555 1_555
H11 C13 1_555 1_555
C14 C10 1_555 1_555
H12 C14 1_555 1_555
H13 C14 1_555 1_555
C15 C14 1_555 1_555
C16 Cs1 1_555 1_555
C17 C16 1_555 1_555
C18 C17 1_555 1_555
H14 C18 1_555 1_555
C19 C18 1_555 1_555
H15 C19 1_555 1_555
C20 C15 1_555 1_555
H16 C20 1_555 1_555
C21 C17 1_555 1_555
H17 C21 1_555 1_555
H18 C21 1_555 1_555
C22 Cs1 1_555 1_555
C23 Cs1 1_555 1_555
C24 Cs1 1_555 1_555
C25 Cs1 1_555 1_555
H19 C25 1_555 1_555
C26 Cs1 1_555 1_555
H20 C26 1_555 1_555
C27 Cs1 1_555 1_555
H21 C27 1_555 1_555
C28 C1 1_555 1_555
H22 C28 1_555 1_555
H23 C28 1_555 1_555
O5 Cs1 1_555 1_555
H24 O5 1_555 1_555
O6 C37 1_555 1_555
O7 H25 1_555 1_555
O8 Cs1 1_555 1_555
H26 O8 1_555 1_555
C29 Cs2 1_555 1_555
C30 Cs2 1_555 1_555
C31 Cs2 1_555 1_555
C32 C31 1_555 1_555
H27 C32 1_555 1_555
C33 C32 1_555 1_555
H28 C33 1_555 1_555
C34 C29 1_555 1_555
H29 C34 1_555 1_555
C35 C31 1_555 1_555
H30 C35 1_555 1_555
H31 C35 1_555 1_555
C36 C35 1_555 1_555
C37 Cs2 1_555 1_555
C38 C37 1_555 1_555
C39 C38 1_555 1_555
H32 C39 1_555 1_555
C40 C39 1_555 1_555
H33 C40 1_555 1_555
C41 C36 1_555 1_555
H34 C41 1_555 1_555
C42 C38 1_555 1_555
H35 C42 1_555 1_555
H36 C42 1_555 1_555
C43 C42 1_555 1_555
C44 Cs2 1_555 1_555
C45 C44 1_555 1_555
C46 C45 1_555 1_555
H37 C46 1_555 1_555
C47 C46 1_555 1_555
H38 C47 1_555 1_555
C48 C43 1_555 1_555
H39 C48 1_555 1_555
C49 C45 1_555 1_555
H40 C49 1_555 1_555
H41 C49 1_555 1_555
C50 Cs2 1_555 1_555
C51 Cs2 1_555 1_555
C52 Cs2 1_555 1_555
C53 C52 1_555 1_555
H42 C53 1_555 1_555
C54 C53 1_555 1_555
H43 C54 1_555 1_555
C55 C50 1_555 1_555
H44 C55 1_555 1_555
C56 C29 1_555 1_555
H45 C56 1_555 1_555
H46 C56 1_555 1_555
O9 Cs1 1_555 1_555
N1 C57 1_555 1_555
C57 C58 1_555 1_555
C58 H47 1_555 1_555
H48 C58 1_555 1_555
H49 C58 1_555 1_555
Cs2C O1 1_555 1_555
H1C O1C 1_555 1_555
H2C O3C 1_555 1_555
H3C O4C 1_555 1_555
O1C Cs2 1_555 1_555
O2C Cs2 1_555 1_555
O3C Cs2 1_555 1_555
O4C Cs2 1_555 1_555
O2 Cs2C 1_555 1_555
O3 C16 1_555 1_555
O3 Cs2C 1_555 1_555
O4 C23 1_555 1_555
O4 Cs2C 1_555 1_555
C2 C3 1_555 1_555
C5 C6 1_555 1_555
C8 C9 1_555 1_555
C12 C13 1_555 1_555
C15 C16 1_555 1_555
C19 C20 1_555 1_555
C21 C22 1_555 1_555
C22 C23 1_555 1_555
C22 C27 1_555 1_555
C23 C24 1_555 1_555
C24 C25 1_555 1_555
C24 C28 1_555 1_555
C25 C26 1_555 1_555
C26 C27 1_555 1_555
O5 C30 1_555 1_555
O7 C44 1_555 1_555
O8 C51 1_555 1_555
C29 C30 1_555 1_555
C30 C31 1_555 1_555
C33 C34 1_555 1_555
C36 C37 1_555 1_555
C40 C41 1_555 1_555
C43 C44 1_555 1_555
C47 C48 1_555 1_555
C49 C50 1_555 1_555
C50 C51 1_555 1_555
C51 C52 1_555 1_555
C52 C56 1_555 1_555
C54 C55 1_555 1_555

#END
