
#######################################################################
#
#                 Cambridge Crystallographic Data Centre
#                                CCDC 
#
#######################################################################
#
# If this CIF has been generated from an entry in the Cambridge 
# Structural Database, then it will include bibliographic, chemical, 
# crystal, experimental, refinement or atomic coordinate data resulting 
# from the CCDC's data processing and validation procedures.
#
#######################################################################

data_BAMLOS
_symmetry_cell_setting           monoclinic
_symmetry_space_group_name_H-M   'C 2/c'
_symmetry_Int_Tables_number      15
_space_group_name_Hall           '-C 2yn'
loop_
_symmetry_equiv_pos_site_id
_symmetry_equiv_pos_as_xyz
1 x,y,z
2 -x,y,1/2-z
3 1/2+x,1/2+y,z
4 1/2-x,1/2+y,1/2-z
5 -x,-y,-z
6 x,-y,1/2+z
7 1/2-x,1/2-y,-z
8 1/2+x,1/2-y,1/2+z
_cell_length_a                   34.076(6)
_cell_length_b                   12.753(2)
_cell_length_c                   29.702(5)
_cell_angle_alpha                90
_cell_angle_beta                 107.215(2)
_cell_angle_gamma                90
_cell_volume                     12329.4
loop_
_atom_site_label
_atom_site_type_symbol
_atom_site_fract_x
_atom_site_fract_y
_atom_site_fract_z
C1 C 0.16633(18) 0.8662(5) 0.17692(19)
C2 C 0.12637(17) 0.8595(5) 0.2453(2)
C3 C 0.08158(19) 0.7993(5) 0.1509(2)
C4 C 0.18710(18) 0.7075(5) 0.2518(2)
C5 C 0.1006(2) 0.6449(6) 0.2248(2)
C6 C 0.0783(2) 0.6622(6) -0.0262(3)
H1 H 0.0927 0.6024 -0.0329
H2 H 0.0600 0.6889 -0.0550
H3 H 0.0627 0.6419 -0.0054
C7 C 0.1089(2) 0.7467(6) -0.0028(2)
C8 C 0.1491(2) 0.7497(6) -0.0039(3)
H4 H 0.1579 0.6987 -0.0212
C9 C 0.1770(2) 0.8245(6) 0.0194(3)
H5 H 0.2037 0.8241 0.0174
C10 C 0.1651(2) 0.8987(6) 0.0454(3)
H6 H 0.1840 0.9480 0.0620
C11 C 0.12488(19) 0.9016(6) 0.0476(2)
C12 C 0.0958(2) 0.8261(6) 0.0235(2)
C13 C 0.1130(2) 0.9874(6) 0.0722(2)
H7 H 0.1330 1.0371 0.0858
C14 C 0.0691(2) 1.0905(6) 0.1042(2)
H8 H 0.0878 1.1473 0.1037
H9 H 0.0731 1.0699 0.1368
C15 C 0.0252(2) 1.1255(6) 0.0821(2)
H10 H 0.0160 1.1681 0.1041
H11 H 0.0230 1.1665 0.0540
C16 C -0.0389(2) 1.0334(6) 0.0666(2)
H12 H -0.0489 1.0965 0.0744
C17 C -0.0676(2) 0.9496(6) 0.0518(2)
C18 C -0.1084(2) 0.9668(7) 0.0515(2)
H13 H -0.1159 1.0310 0.0613
C19 C -0.1368(2) 0.8906(8) 0.0370(3)
H14 H -0.1636 0.9022 0.0375
C20 C -0.1263(2) 0.7945(8) 0.0214(3)
H15 H -0.1463 0.7430 0.0113
C21 C -0.0864(2) 0.7746(6) 0.0206(2)
C22 C -0.05629(19) 0.8525(6) 0.0354(2)
C23 C -0.0743(2) 0.6696(7) 0.0053(3)
H16 H -0.0622 0.6797 -0.0198
H17 H -0.0983 0.6262 -0.0056
H18 H -0.0548 0.6363 0.0315
C24 C 0.2486(2) 1.0967(6) 0.0367(2)
H19 H 0.2504 1.0764 0.0063
H20 H 0.2525 1.1711 0.0405
H21 H 0.2220 1.0783 0.0393
C25 C 0.28132(19) 1.0408(5) 0.0745(2)
C26 C 0.3174(2) 1.0077(6) 0.0654(2)
H22 H 0.3209 1.0210 0.0360
C27 C 0.3478(2) 0.9555(6) 0.0992(3)
H23 H 0.3718 0.9349 0.0927
C28 C 0.3429(2) 0.9343(5) 0.1418(2)
H24 H 0.3635 0.8985 0.1641
C29 C 0.30713(19) 0.9653(5) 0.1532(2)
C30 C 0.27646(19) 1.0228(5) 0.1192(2)
C31 C 0.30302(19) 0.9325(5) 0.1974(2)
H25 H 0.3236 0.8899 0.2162
C32 C 0.2703(2) 0.9100(5) 0.2577(2)
H26 H 0.2968 0.8824 0.2758
H27 H 0.2505 0.8531 0.2510
C33 C 0.2566(2) 0.9967(5) 0.2852(2)
H28 H 0.2459 0.9665 0.3092
H29 H 0.2796 1.0417 0.3005
C34 C 0.19375(19) 1.0945(5) 0.2633(2)
H30 H 0.1912 1.0742 0.2924
C35 C 0.16320(17) 1.1648(5) 0.2352(2)
C36 C 0.13383(18) 1.2021(5) 0.2561(2)
H31 H 0.1327 1.1747 0.2847
C37 C 0.10662(18) 1.2797(5) 0.2338(2)
H32 H 0.0875 1.3056 0.2478
C38 C 0.10789(18) 1.3187(5) 0.1908(2)
H33 H 0.0893 1.3706 0.1761
C39 C 0.13581(18) 1.2829(5) 0.1692(2)
C40 C 0.16345(17) 1.2030(5) 0.1904(2)
C41 C 0.13827(19) 1.3291(5) 0.1238(2)
H34 H 0.1157 1.3765 0.1117
H35 H 0.1369 1.2740 0.1014
H36 H 0.1637 1.3665 0.1292
C42 C 0.0570(2) 1.2440(5) 0.3375(3)
H37 H 0.0738 1.2376 0.3696
H38 H 0.0396 1.3044 0.3344
H39 H 0.0742 1.2518 0.3173
C43 C 0.0310(2) 1.1478(6) 0.3236(2)
C44 C -0.0111(2) 1.1522(7) 0.3051(2)
H40 H -0.0239 1.2174 0.3010
C45 C -0.0350(2) 1.0640(7) 0.2925(2)
H41 H -0.0632 1.0704 0.2786
C46 C -0.0172(2) 0.9656(6) 0.3004(2)
H42 H -0.0335 0.9058 0.2937
C47 C 0.02678(18) 0.9563(6) 0.3192(2)
C48 C 0.05008(19) 1.0478(5) 0.3289(2)
C49 C 0.0427(2) 0.8531(6) 0.3279(2)
H43 H 0.0244 0.7973 0.3236
C50 C 0.09589(19) 0.7240(5) 0.3538(2)
H44 H 0.0764 0.6755 0.3339
H45 H 0.0979 0.7093 0.3864
C51 C 0.13839(19) 0.7119(5) 0.3456(2)
H46 H 0.1529 0.6523 0.3631
H47 H 0.1352 0.7008 0.3124
C52 C 0.20083(19) 0.8069(5) 0.3785(2)
H48 H 0.2137 0.7418 0.3811
C53 C 0.22674(18) 0.8975(5) 0.3936(2)
C54 C 0.26939(19) 0.8813(6) 0.4126(2)
H49 H 0.2800 0.8136 0.4153
C55 C 0.2950(2) 0.9646(6) 0.4268(2)
H50 H 0.3230 0.9534 0.4398
C56 C 0.2797(2) 1.0663(6) 0.4222(2)
H51 H 0.2978 1.1222 0.4315
C57 C 0.23795(19) 1.0859(5) 0.4038(2)
C58 C 0.21122(18) 1.0007(5) 0.3894(2)
C59 C 0.2212(2) 1.1952(6) 0.3983(3)
H52 H 0.2066 1.2077 0.3658
H53 H 0.2434 1.2443 0.4084
H54 H 0.2029 1.2037 0.4171
Cr1 Cr 0.13511(3) 0.74660(8) 0.19799(3)
Mn1 Mn 0.23104(3) 1.06606(7) 0.18661(3)
Mn2 Mn 0.12620(3) 0.93464(7) 0.34696(3)
Mn3 Mn 0.03028(3) 0.90521(8) 0.05779(3)
N1 N 0.05208(16) 0.8277(4) 0.12296(18)
N2 N 0.18417(15) 0.9357(4) 0.16770(17)
N3 N 0.12364(16) 0.9188(4) 0.27397(18)
N4 N 0.21585(15) 0.6837(4) 0.28194(17)
N5 N 0.0801(2) 0.5872(6) 0.2381(2)
N6 N 0.14290(16) 0.6581(4) 0.15935(19)
N7 N 0.00011(17) 1.0292(4) 0.07011(17)
N8 N 0.07665(16) 1.0010(4) 0.07677(17)
N9 N 0.27312(15) 0.9571(4) 0.21334(16)
N10 N 0.22425(14) 1.0577(4) 0.25125(16)
N11 N 0.16137(15) 0.8086(4) 0.36180(16)
N12 N 0.08239(15) 0.8329(4) 0.34186(17)
O1 O 0.14807(17) 0.5981(5) 0.1312(2)
O4 O 0.17129(12) 1.0223(3) 0.37045(15)
O5 O 0.09095(12) 1.0459(3) 0.34482(14)
O6 O 0.19034(11) 1.1703(3) 0.16872(13)
O7 O 0.24293(11) 1.0604(3) 0.12801(13)
O8 O 0.05644(12) 0.8249(4) 0.02276(14)
O9 O -0.01894(13) 0.8334(4) 0.03219(14)
C1C C 0.33367(18) 0.3662(5) 0.32308(19)
C2C C 0.37363(17) 0.3595(5) 0.2547(2)
C3C C 0.41842(19) 0.2993(5) 0.3491(2)
C4C C 0.31290(18) 1.2075(5) 0.2482(2)
C4C_2 C 0.31290(18) 0.2075(5) 0.2482(2)
C5C C 0.3994(2) 0.1449(6) 0.2752(2)
C6C C 0.4217(2) 0.1622(6) 0.5262(3)
H1C H 0.4073 0.1024 0.5329
H2C H 0.4400 0.1889 0.5550
H3C H 0.4373 0.1419 0.5054
C7C C 0.3911(2) 0.2467(6) 0.5028(2)
C8C C 0.3509(2) 0.2497(6) 0.5039(3)
H4C H 0.3421 0.1987 0.5212
C9C C 0.3230(2) 0.3245(6) 0.4806(3)
H5C H 0.2963 0.3241 0.4826
C10C C 0.3349(2) 0.3987(6) 0.4546(3)
H6C H 0.3160 0.4480 0.4380
C11C C 0.37512(19) 0.4016(6) 0.4524(2)
C12C C 0.4042(2) 0.3261(6) 0.4765(2)
C13C C 0.3870(2) 0.4874(6) 0.4278(2)
H7C H 0.3670 0.5371 0.4142
C14C C 0.4309(2) 0.5905(6) 0.3958(2)
H8C H 0.4122 0.6473 0.3963
H9C H 0.4269 0.5699 0.3632
C15C C 0.4748(2) 0.6255(6) 0.4179(2)
H10C H 0.4840 0.6681 0.3959
H11C H 0.4770 0.6665 0.4460
C16C C 0.5389(2) 0.5334(6) 0.4334(2)
H12C H 0.5489 0.5965 0.4256
C17C C 0.5676(2) 0.4496(6) 0.4482(2)
C18C C 0.6084(2) 0.4668(7) 0.4485(2)
H13C H 0.6159 0.5310 0.4387
C19C C 0.6368(2) 0.3906(8) 0.4630(3)
H14C H 0.6636 0.4022 0.4625
C20C C 0.6263(2) 0.2945(8) 0.4786(3)
H15C H 0.6463 0.2430 0.4887
C21C C 0.5864(2) 0.2746(6) 0.4794(2)
C22C C 0.55629(19) 0.3525(6) 0.4646(2)
C23C C 0.5743(2) 0.1696(7) 0.4947(3)
H16C H 0.5622 0.1797 0.5198
H17C H 0.5983 0.1262 0.5056
H18C H 0.5548 0.1363 0.4685
C24C C 0.2514(2) 0.5967(6) 0.4633(2)
H19C H 0.2496 0.5764 0.4937
H20C H 0.2475 0.6711 0.4595
H21C H 0.2780 0.5783 0.4607
C25C C 0.21868(19) 0.5408(5) 0.4255(2)
C26C C 0.1826(2) 0.5077(6) 0.4346(2)
H22C H 0.1791 0.5210 0.4640
C27C C 0.1522(2) 0.4555(6) 0.4008(3)
H23C H 0.1282 0.4349 0.4073
C28C C 0.1571(2) 0.4343(5) 0.3582(2)
H24C H 0.1365 0.3985 0.3359
C29C C 0.19287(19) 0.4653(5) 0.3468(2)
C30C C 0.22354(19) 0.5228(5) 0.3808(2)
C31C C 0.19698(19) 0.4325(5) 0.3026(2)
H25C H 0.1764 0.3899 0.2838
C32C C 0.2297(2) 0.4100(5) 0.2423(2)
H26C H 0.2032 0.3824 0.2242
H27C H 0.2495 0.3531 0.2490
C33C C 0.2434(2) 0.4967(5) 0.2148(2)
H28C H 0.2541 0.4665 0.1908
H29C H 0.2204 0.5417 0.1995
C34C C 0.30625(19) 0.5945(5) 0.2367(2)
H30C H 0.3088 0.5742 0.2076
C35C C 0.33680(17) 0.6648(5) 0.2648(2)
C36C C 0.36617(18) 0.7021(5) 0.2439(2)
H31C H 0.3673 0.6747 0.2153
C37C C 0.39338(18) 0.7797(5) 0.2662(2)
H32C H 0.4125 0.8056 0.2522
C38C C 0.39211(18) 0.8187(5) 0.3092(2)
H33C H 0.4107 0.8706 0.3239
C39C C 0.36419(18) 0.7829(5) 0.3308(2)
C40C C 0.33655(17) 0.7030(5) 0.3096(2)
C41C C 0.36173(19) 0.8291(5) 0.3762(2)
H34C H 0.3843 0.8765 0.3883
H35C H 0.3631 0.7740 0.3986
H36C H 0.3363 0.8665 0.3708
C42C C 0.4430(2) 0.7440(5) 0.1625(3)
H37C H 0.4262 0.7376 0.1304
H38C H 0.4604 0.8044 0.1656
H39C H 0.4258 0.7518 0.1827
C43C C 0.4690(2) 0.6478(6) 0.1764(2)
C44C C 0.5111(2) 0.6522(7) 0.1949(2)
H40C H 0.5239 0.7174 0.1990
C45C C 0.5350(2) 0.5640(7) 0.2075(2)
H41C H 0.5632 0.5704 0.2214
C46C C 0.5172(2) 0.4656(6) 0.1996(2)
H42C H 0.5335 0.4058 0.2063
C47C C 0.47322(18) 0.4563(6) 0.1808(2)
C48C C 0.44992(19) 0.5478(5) 0.1711(2)
C49C C 0.4573(2) 0.3531(6) 0.1721(2)
H43C H 0.4756 0.2973 0.1764
C50C C 0.40411(19) 0.2240(5) 0.1462(2)
H44C H 0.4236 0.1755 0.1661
H45C H 0.4021 0.2093 0.1136
C51C C 0.36161(19) 0.2119(5) 0.1544(2)
H46C H 0.3471 0.1523 0.1369
H47C H 0.3648 0.2008 0.1876
C52C C 0.29917(19) 0.3069(5) 0.1215(2)
H48C H 0.2863 0.2418 0.1189
C53C C 0.27326(18) 0.3975(5) 0.1064(2)
C54C C 0.23061(19) 0.3813(6) 0.0874(2)
H49C H 0.2200 0.3136 0.0847
C55C C 0.2050(2) 0.4646(6) 0.0732(2)
H50C H 0.1770 0.4534 0.0602
C56C C 0.2203(2) 0.5663(6) 0.0778(2)
H51C H 0.2022 0.6222 0.0685
C57C C 0.26205(19) 0.5859(5) 0.0962(2)
C58C C 0.28878(18) 0.5007(5) 0.1106(2)
C59C C 0.2788(2) 0.6952(6) 0.1017(3)
H52C H 0.2934 0.7077 0.1342
H53C H 0.2566 0.7443 0.0916
H54C H 0.2971 0.7037 0.0829
Cr1C Cr 0.36489(3) 0.24660(8) 0.30201(3)
Cr1C_2 Cr 0.36489(3) 1.24660(8) 0.30201(3)
Mn1C Mn 0.26896(3) 0.56606(7) 0.31339(3)
Mn2C Mn 0.37380(3) 0.43464(7) 0.15304(3)
Mn3C Mn 0.46972(3) 0.40521(8) 0.44221(3)
N1C N 0.44792(16) 0.3277(4) 0.37704(18)
N2C N 0.31583(15) 0.4357(4) 0.33230(17)
N3C N 0.37636(16) 0.4188(4) 0.22603(18)
N4C N 0.28415(15) 1.1837(4) 0.21806(17)
N5C N 0.4199(2) 0.0872(6) 0.2619(2)
N6C N 0.35710(16) 0.1581(4) 0.34065(19)
N7C N 0.49989(17) 0.5292(4) 0.42989(17)
N8C N 0.42335(16) 0.5010(4) 0.42323(17)
N9C N 0.22688(15) 0.4571(4) 0.28666(16)
N10C N 0.27575(14) 0.5577(4) 0.24875(16)
N11C N 0.33863(15) 0.3086(4) 0.13820(16)
N12C N 0.41761(15) 0.3329(4) 0.15814(17)
O1C O 0.35193(17) 0.0981(5) 0.3688(2)
O4C O 0.32871(12) 0.5223(3) 0.12955(15)
O5C O 0.40905(12) 0.5459(3) 0.15518(14)
O6C O 0.30966(11) 0.6703(3) 0.33128(13)
O7C O 0.25707(11) 0.5604(3) 0.37199(13)
O8C O 0.44356(12) 0.3249(4) 0.47724(14)
O9C O 0.51894(13) 0.3334(4) 0.46781(14)
O2 O 0.0000 0.6921(8) 0.2500
H55 H 0.0121 0.6467 0.2372
H55A H -0.0121 0.6467 0.2628
O3 O 0.0116(6) 0.5350(19) 0.1069(8)
H57 H 0.0302 0.5814 0.1140
H58 H 0.0087 0.5164 0.1331
O10 O 0.0181(3) 0.4438(10) 0.2144(9)
H59 H 0.0214 0.4721 0.2412
H60 H 0.0216 0.3785 0.2204
H56? H 0.0025 0.6814 0.2800
loop_
_geom_bond_atom_site_label_1
_geom_bond_atom_site_label_2
_geom_bond_site_symmetry_1
_geom_bond_site_symmetry_2
C1 Cr1 1_555 1_555
C2 Cr1 1_555 1_555
C3 Cr1 1_555 1_555
C4 Cr1 1_555 1_555
C5 Cr1 1_555 1_555
C6 H1 1_555 1_555
H2 C6 1_555 1_555
H3 C6 1_555 1_555
C7 C6 1_555 1_555
C8 C7 1_555 1_555
H4 C8 1_555 1_555
C9 C8 1_555 1_555
H5 C9 1_555 1_555
C10 C9 1_555 1_555
H6 C10 1_555 1_555
C11 C10 1_555 1_555
C12 C7 1_555 1_555
C13 C11 1_555 1_555
H7 C13 1_555 1_555
C14 H8 1_555 1_555
H9 C14 1_555 1_555
C15 C14 1_555 1_555
H10 C15 1_555 1_555
H11 C15 1_555 1_555
C16 H12 1_555 1_555
C17 C16 1_555 1_555
C18 C17 1_555 1_555
H13 C18 1_555 1_555
C19 C18 1_555 1_555
H14 C19 1_555 1_555
C20 C19 1_555 1_555
H15 C20 1_555 1_555
C21 C20 1_555 1_555
C22 C17 1_555 1_555
C23 C21 1_555 1_555
H16 C23 1_555 1_555
H17 C23 1_555 1_555
H18 C23 1_555 1_555
C24 H19 1_555 1_555
H20 C24 1_555 1_555
H21 C24 1_555 1_555
C25 C24 1_555 1_555
C26 C25 1_555 1_555
H22 C26 1_555 1_555
C27 C26 1_555 1_555
H23 C27 1_555 1_555
C28 C27 1_555 1_555
H24 C28 1_555 1_555
C29 C28 1_555 1_555
C30 C25 1_555 1_555
C31 C29 1_555 1_555
H25 C31 1_555 1_555
C32 H26 1_555 1_555
H27 C32 1_555 1_555
C33 C32 1_555 1_555
H28 C33 1_555 1_555
H29 C33 1_555 1_555
C34 H30 1_555 1_555
C35 C34 1_555 1_555
C36 C35 1_555 1_555
H31 C36 1_555 1_555
C37 C36 1_555 1_555
H32 C37 1_555 1_555
C38 C37 1_555 1_555
H33 C38 1_555 1_555
C39 C38 1_555 1_555
C40 C35 1_555 1_555
C41 C39 1_555 1_555
H34 C41 1_555 1_555
H35 C41 1_555 1_555
H36 C41 1_555 1_555
C42 H37 1_555 1_555
H38 C42 1_555 1_555
H39 C42 1_555 1_555
C43 C42 1_555 1_555
C44 C43 1_555 1_555
H40 C44 1_555 1_555
C45 C44 1_555 1_555
H41 C45 1_555 1_555
C46 C45 1_555 1_555
H42 C46 1_555 1_555
C47 C46 1_555 1_555
C48 C43 1_555 1_555
C49 C47 1_555 1_555
H43 C49 1_555 1_555
C50 H44 1_555 1_555
H45 C50 1_555 1_555
C51 C50 1_555 1_555
H46 C51 1_555 1_555
H47 C51 1_555 1_555
C52 H48 1_555 1_555
C53 C52 1_555 1_555
C54 C53 1_555 1_555
H49 C54 1_555 1_555
C55 C54 1_555 1_555
H50 C55 1_555 1_555
C56 C55 1_555 1_555
H51 C56 1_555 1_555
C57 C56 1_555 1_555
C58 C53 1_555 1_555
C59 C57 1_555 1_555
H52 C59 1_555 1_555
H53 C59 1_555 1_555
H54 C59 1_555 1_555
Cr1 N6 1_555 1_555
Mn1 N2 1_555 1_555
Mn2 N3 1_555 1_555
Mn3 N1 1_555 1_555
N1 C3 1_555 1_555
N2 C1 1_555 1_555
N3 C2 1_555 1_555
N4 C4 1_555 1_555
N5 C5 1_555 1_555
N6 O1 1_555 1_555
N7 C15 1_555 1_555
N8 C13 1_555 1_555
N9 C31 1_555 1_555
N10 C33 1_555 1_555
N11 C51 1_555 1_555
N12 C49 1_555 1_555
O2 H55 1_555 1_555
O3 H57 1_555 1_555
H58 O3 1_555 1_555
O4 C58 1_555 1_555
O5 C48 1_555 1_555
O6 C40 1_555 1_555
O7 C30 1_555 1_555
O8 C12 1_555 1_555
O9 C22 1_555 1_555
O10 H59 1_555 1_555
H60 O10 1_555 1_555
C1C Cr1C 1_555 1_555
C2C Cr1C 1_555 1_555
C3C Cr1C 1_555 1_555
C4C Cr1C_2 1_555 1_555
C4C_2 Cr1C 1_555 1_555
C5C Cr1C 1_555 1_555
C6C H1C 1_555 1_555
H2C C6C 1_555 1_555
H3C C6C 1_555 1_555
C7C C6C 1_555 1_555
C8C C7C 1_555 1_555
H4C C8C 1_555 1_555
C9C C8C 1_555 1_555
H5C C9C 1_555 1_555
C10C C9C 1_555 1_555
H6C C10C 1_555 1_555
C11C C10C 1_555 1_555
C12C C7C 1_555 1_555
C13C C11C 1_555 1_555
H7C C13C 1_555 1_555
C14C H8C 1_555 1_555
H9C C14C 1_555 1_555
C15C C14C 1_555 1_555
H10C C15C 1_555 1_555
H11C C15C 1_555 1_555
C16C H12C 1_555 1_555
C17C C16C 1_555 1_555
C18C C17C 1_555 1_555
H13C C18C 1_555 1_555
C19C C18C 1_555 1_555
H14C C19C 1_555 1_555
C20C C19C 1_555 1_555
H15C C20C 1_555 1_555
C21C C20C 1_555 1_555
C22C C17C 1_555 1_555
C23C C21C 1_555 1_555
H16C C23C 1_555 1_555
H17C C23C 1_555 1_555
H18C C23C 1_555 1_555
C24C H19C 1_555 1_555
H20C C24C 1_555 1_555
H21C C24C 1_555 1_555
C25C C24C 1_555 1_555
C26C C25C 1_555 1_555
H22C C26C 1_555 1_555
C27C C26C 1_555 1_555
H23C C27C 1_555 1_555
C28C C27C 1_555 1_555
H24C C28C 1_555 1_555
C29C C28C 1_555 1_555
C30C C25C 1_555 1_555
C31C C29C 1_555 1_555
H25C C31C 1_555 1_555
C32C H26C 1_555 1_555
H27C C32C 1_555 1_555
C33C C32C 1_555 1_555
H28C C33C 1_555 1_555
H29C C33C 1_555 1_555
C34C H30C 1_555 1_555
C35C C34C 1_555 1_555
C36C C35C 1_555 1_555
H31C C36C 1_555 1_555
C37C C36C 1_555 1_555
H32C C37C 1_555 1_555
C38C C37C 1_555 1_555
H33C C38C 1_555 1_555
C39C C38C 1_555 1_555
C40C C35C 1_555 1_555
C41C C39C 1_555 1_555
H34C C41C 1_555 1_555
H35C C41C 1_555 1_555
H36C C41C 1_555 1_555
C42C H37C 1_555 1_555
H38C C42C 1_555 1_555
H39C C42C 1_555 1_555
C43C C42C 1_555 1_555
C44C C43C 1_555 1_555
H40C C44C 1_555 1_555
C45C C44C 1_555 1_555
H41C C45C 1_555 1_555
C46C C45C 1_555 1_555
H42C C46C 1_555 1_555
C47C C46C 1_555 1_555
C48C C43C 1_555 1_555
C49C C47C 1_555 1_555
H43C C49C 1_555 1_555
C50C H44C 1_555 1_555
H45C C50C 1_555 1_555
C51C C50C 1_555 1_555
H46C C51C 1_555 1_555
H47C C51C 1_555 1_555
C52C H48C 1_555 1_555
C53C C52C 1_555 1_555
C54C C53C 1_555 1_555
H49C C54C 1_555 1_555
C55C C54C 1_555 1_555
H50C C55C 1_555 1_555
C56C C55C 1_555 1_555
H51C C56C 1_555 1_555
C57C C56C 1_555 1_555
C58C C53C 1_555 1_555
C59C C57C 1_555 1_555
H52C C59C 1_555 1_555
H53C C59C 1_555 1_555
H54C C59C 1_555 1_555
Cr1C N6C 1_555 1_555
Mn1C N4 1_555 1_555
Mn2C N3C 1_555 1_555
Mn3C N1C 1_555 1_555
N1C C3C 1_555 1_555
N2C C1C 1_555 1_555
N3C C2C 1_555 1_555
N4C Mn1 1_555 1_555
N5C C5C 1_555 1_555
N6C O1C 1_555 1_555
N7C C15C 1_555 1_555
N8C C13C 1_555 1_555
N9C C31C 1_555 1_555
N10C C33C 1_555 1_555
N11C C51C 1_555 1_555
N12C C49C 1_555 1_555
H55A O2 1_555 1_555
O4C C58C 1_555 1_555
O5C C48C 1_555 1_555
O6C C40C 1_555 1_555
O7C C30C 1_555 1_555
O8C C12C 1_555 1_555
O9C C22C 1_555 1_555
C11 C12 1_555 1_555
C14 N8 1_555 1_555
C16 N7 1_555 1_555
C21 C22 1_555 1_555
C29 C30 1_555 1_555
C32 N9 1_555 1_555
C34 N10 1_555 1_555
C39 C40 1_555 1_555
C47 C48 1_555 1_555
C50 N12 1_555 1_555
C52 N11 1_555 1_555
C57 C58 1_555 1_555
Mn1 N9 1_555 1_555
Mn1 N10 1_555 1_555
Mn1 O6 1_555 1_555
Mn1 O7 1_555 1_555
Mn2 N11 1_555 1_555
Mn2 N12 1_555 1_555
Mn2 O4 1_555 1_555
Mn2 O5 1_555 1_555
Mn3 N7 1_555 1_555
Mn3 N8 1_555 1_555
Mn3 O8 1_555 1_555
Mn3 O9 1_555 1_555
C4C N4C 1_555 1_555
C11C C12C 1_555 1_555
C14C N8C 1_555 1_555
C16C N7C 1_555 1_555
C21C C22C 1_555 1_555
C29C C30C 1_555 1_555
C32C N9C 1_555 1_555
C34C N10C 1_555 1_555
C39C C40C 1_555 1_555
C47C C48C 1_555 1_555
C50C N12C 1_555 1_555
C52C N11C 1_555 1_555
C57C C58C 1_555 1_555
Mn1C N2C 1_555 1_555
Mn1C N9C 1_555 1_555
Mn1C N10C 1_555 1_555
Mn1C O6C 1_555 1_555
Mn1C O7C 1_555 1_555
Mn2C N11C 1_555 1_555
Mn2C N12C 1_555 1_555
Mn2C O4C 1_555 1_555
Mn2C O5C 1_555 1_555
Mn3C N7C 1_555 1_555
Mn3C N8C 1_555 1_555
Mn3C O8C 1_555 1_555
Mn3C O9C 1_555 1_555

#END
