
#######################################################################
#
#                 Cambridge Crystallographic Data Centre
#                                CCDC 
#
#######################################################################
#
# If this CIF has been generated from an entry in the Cambridge 
# Structural Database, then it will include bibliographic, chemical, 
# crystal, experimental, refinement or atomic coordinate data resulting 
# from the CCDC's data processing and validation procedures.
#
#######################################################################

data_BAMLUY
_symmetry_cell_setting           monoclinic
_symmetry_space_group_name_H-M   'P 21/n'
_symmetry_Int_Tables_number      14
_space_group_name_Hall           '-P 2yn'
loop_
_symmetry_equiv_pos_site_id
_symmetry_equiv_pos_as_xyz
1 x,y,z
2 1/2-x,1/2+y,1/2-z
3 -x,-y,-z
4 1/2+x,1/2-y,1/2+z
_cell_length_a                   28.159(4)
_cell_length_b                   13.7852(18)
_cell_length_c                   35.158(5)
_cell_angle_alpha                90
_cell_angle_beta                 102.854(2)
_cell_angle_gamma                90
_cell_volume                     13305.5
loop_
_atom_site_label
_atom_site_type_symbol
_atom_site_fract_x
_atom_site_fract_y
_atom_site_fract_z
C1 C 0.6113(2) 0.3874(4) 0.18271(17)
H1 H 0.6057 0.4431 0.1960
C2 C 0.5827(2) 0.3673(5) 0.14753(18)
H2 H 0.5576 0.4102 0.1371
C3 C 0.5890(3) 0.2843(5) 0.1260(2)
C4 C 0.5549(4) 0.2613(6) 0.0865(2)
H3 H 0.5573 0.3117 0.0682
H4 H 0.5220 0.2572 0.0897
H5 H 0.5641 0.2005 0.0770
C5 C 0.6261(3) 0.2240(5) 0.14204(19)
H6 H 0.6312 0.1683 0.1286
C6 C 0.6568(2) 0.2434(5) 0.17807(18)
C7 C 0.6495(2) 0.3251(5) 0.19936(17)
C8 C 0.6977(2) 0.1802(5) 0.18867(19)
H7 H 0.6999 0.1293 0.1718
C9 C 0.7770(2) 0.1252(5) 0.2273(2)
H8 H 0.7696 0.0641 0.2135
H9 H 0.8024 0.1574 0.2174
C10 C 0.7947(2) 0.1059(5) 0.2702(2)
H10 H 0.8283 0.0841 0.2759
H11 H 0.7749 0.0566 0.2788
C11 C 0.8259(2) 0.2335(5) 0.31606(18)
H12 H 0.8548 0.1981 0.3214
C12 C 0.8239(2) 0.3215(4) 0.33730(17)
C13 C 0.8670(2) 0.3527(5) 0.36251(18)
H13 H 0.8956 0.3185 0.3629
C14 C 0.8689(2) 0.4312(5) 0.38657(18)
C15 C 0.8248(2) 0.4771(5) 0.38733(17)
H14 H 0.8245 0.5274 0.4049
C16 C 0.7819(2) 0.4495(4) 0.36261(17)
H15 H 0.7534 0.4825 0.3634
C17 C 0.9162(2) 0.4676(5) 0.4108(2)
H16 H 0.9394 0.4155 0.4157
H17 H 0.9111 0.4921 0.4351
H18 H 0.9285 0.5186 0.3971
C18 C 0.6832(2) -0.0835(4) 0.26032(17)
C19 C 0.5944(2) -0.1686(5) 0.25756(17)
C20 C 0.6418(2) -0.0603(5) 0.32518(19)
C21 C 0.6532(2) 0.1024(5) 0.27726(17)
C22 C 0.5548(2) 0.0184(4) 0.27882(17)
C23 C 0.5223(3) 0.2628(6) 0.4493(2)
H19 H 0.5406 0.2088 0.4622
H20 H 0.4972 0.2797 0.4627
H21 H 0.5435 0.3172 0.4494
C24 C 0.4996(3) 0.2356(5) 0.4081(2)
C25 C 0.4606(3) 0.1723(5) 0.3998(2)
H22 H 0.4487 0.1483 0.4206
C26 C 0.4378(2) 0.1421(5) 0.3621(2)
H23 H 0.4117 0.0990 0.3582
C27 C 0.4550(2) 0.1781(5) 0.3301(2)
C28 C 0.4956(2) 0.2432(5) 0.33764(19)
C29 C 0.5153(3) 0.2699(5) 0.3769(2)
H24 H 0.5409 0.3141 0.3816
C30 C 0.5157(2) 0.2837(5) 0.3069(2)
H25 H 0.5388 0.3325 0.3136
C31 C 0.5286(2) 0.3003(5) 0.24179(19)
H26 H 0.5587 0.3321 0.2546
H27 H 0.5077 0.3476 0.2258
C32 C 0.5390(2) 0.2175(4) 0.21719(18)
H28 H 0.5477 0.2415 0.1937
H29 H 0.5657 0.1785 0.2316
C33 C 0.4783(2) 0.1227(4) 0.17246(18)
H30 H 0.4973 0.1330 0.1543
C34 C 0.4347(2) 0.0689(4) 0.15994(18)
C35 C 0.4051(2) 0.0384(4) 0.18537(18)
C36 C 0.3621(2) -0.0099(4) 0.1700(2)
H31 H 0.3427 -0.0319 0.1864
C37 C 0.7803(2) 0.3727(4) 0.33616(17)
C39 C 0.4187(2) 0.0469(5) 0.11994(19)
H32 H 0.4386 0.0644 0.1032
C40 C 0.3604(3) -0.0156(6) 0.0613(2)
H33 H 0.3399 0.0368 0.0494
H34 H 0.3426 -0.0755 0.0568
H35 H 0.3885 -0.0194 0.0501
C41 C 0.3905(2) 0.3408(5) 0.21320(17)
C42 C 0.3070(2) 0.4356(4) 0.22748(18)
C43 C 0.3296(2) 0.4650(4) 0.1546(2)
C44 C 0.4270(2) -0.4749(4) 0.19078(16)
C45 C 0.5181(3) -0.3126(5) 0.0639(2)
H36 H 0.5286 -0.3342 0.0421
C46 C 0.5427(2) -0.3435(5) 0.10028(19)
H37 H 0.5692 -0.3849 0.1023
C47 C 0.5285(2) -0.3138(4) 0.13434(18)
C48 C 0.4887(2) -0.2473(4) 0.12897(17)
C49 C 0.4656(2) -0.2174(5) 0.09166(19)
H38 H 0.4403 -0.1729 0.0890
C50 C 0.4786(3) -0.2507(5) 0.0586(2)
C51 C 0.4707(2) -0.2093(5) 0.16088(18)
H39 H 0.4478 -0.1597 0.1556
C52 C 0.4616(2) -0.1975(4) 0.22725(17)
H40 H 0.4321 -0.1619 0.2158
H41 H 0.4841 -0.1541 0.2440
C53 C 0.4499(2) -0.2844(4) 0.25009(17)
H42 H 0.4417 -0.2633 0.2742
H43 H 0.4224 -0.3200 0.2349
C54 C 0.5082(2) -0.3876(4) 0.29188(17)
H44 H 0.4891 -0.3789 0.3101
C55 C 0.5511(2) -0.4460(4) 0.30361(17)
C56 C 0.5789(2) -0.4742(4) 0.27641(17)
C57 C 0.6211(2) -0.5274(4) 0.29115(17)
H45 H 0.6404 -0.5480 0.2744
C58 C 0.6347(2) -0.5500(4) 0.33024(19)
H46 H 0.6631 -0.5856 0.3390
C59 C 0.6072(2) -0.5213(4) 0.35781(18)
C60 C 0.5649(2) -0.4713(4) 0.34274(18)
H47 H 0.5449 -0.4539 0.3594
C61 C 0.6239(3) -0.5423(5) 0.40077(18)
H48 H 0.6462 -0.4927 0.4128
H49 H 0.6399 -0.6041 0.4043
H50 H 0.5962 -0.5433 0.4125
C62 C 0.4517(3) -0.2213(6) 0.01868(19)
H51 H 0.4742 -0.2147 0.0020
H52 H 0.4356 -0.1605 0.0201
H53 H 0.4279 -0.2699 0.0083
C63 C 0.3371(2) 0.6185(5) 0.21090(17)
C64 C 0.4297(2) 0.4825(5) 0.39861(19)
H54 H 0.4489 0.4266 0.4082
H55 H 0.4266 0.5231 0.4201
H56 H 0.4453 0.5183 0.3814
C65 C 0.3786(2) 0.4499(5) 0.37628(18)
C66 C 0.3358(2) 0.4969(5) 0.38056(17)
H57 H 0.3382 0.5471 0.3985
C67 C 0.2910(2) 0.4713(5) 0.35936(17)
H58 H 0.2637 0.5040 0.3634
C68 C 0.2854(2) 0.3970(4) 0.33172(17)
C69 C 0.3275(2) 0.3444(4) 0.32785(17)
C70 C 0.3731(2) 0.3727(4) 0.35008(17)
H59 H 0.4006 0.3387 0.3473
C71 C 0.3258(2) 0.2606(5) 0.30351(18)
H60 H 0.3546 0.2263 0.3050
C72 C 0.2884(2) 0.1407(5) 0.2565(2)
H61 H 0.2716 0.0882 0.2663
H62 H 0.3218 0.1209 0.2577
C73 C 0.2632(2) 0.1656(5) 0.2150(2)
H63 H 0.2844 0.2045 0.2029
H64 H 0.2547 0.1069 0.1998
C74 C 0.1795(2) 0.2096(5) 0.19137(19)
H65 H 0.1790 0.1611 0.1729
C75 C 0.1351(2) 0.3496(5) 0.21178(18)
C76 C 0.1361(2) 0.2653(5) 0.18854(17)
C77 C 0.0943(2) 0.2389(5) 0.16064(17)
H66 H 0.0956 0.1837 0.1457
C78 C 0.0504(2) 0.2920(5) 0.15407(18)
C79 C 0.0516(2) 0.3788(5) 0.17551(17)
H67 H 0.0243 0.4186 0.1709
C80 C 0.0927(2) 0.4064(5) 0.20328(17)
H68 H 0.0920 0.4644 0.2167
C89 C 0.0034(2) 0.2574(5) 0.12726(18)
H74 H 0.0104 0.2045 0.1116
H75 H -0.0109 0.3097 0.1106
H76 H -0.0188 0.2361 0.1426
C100 C 0.3484(2) -0.0250(5) 0.1307(2)
H89 H 0.3186 -0.0551 0.1208
C101 C 0.3764(2) 0.0021(5) 0.10464(19)
Cr1 Cr 0.61890(3) -0.02852(7) 0.26598(3)
Cr2 Cr 0.36836(3) 0.48308(7) 0.21303(3)
Mn1 Mn 0.22644(3) 0.30571(6) 0.26389(3)
Mn2 Mn 0.45838(3) 0.15066(7) 0.25021(3)
Mn3 Mn 0.52838(3) -0.35107(6) 0.21494(3)
Mn4 Mn 0.73046(3) 0.27715(6) 0.26486(3)
N1 N 0.73215(18) 0.1878(4) 0.22004(16)
N2 N 0.79025(18) 0.2010(3) 0.29020(15)
N3 N 0.71923(19) -0.1198(4) 0.25652(15)
N4 N 0.6560(2) -0.0789(4) 0.35804(17)
N5 N 0.67654(18) 0.1722(4) 0.28115(14)
N6 N 0.59845(18) -0.0035(4) 0.21800(15)
N7 N 0.58166(18) -0.2460(4) 0.24935(15)
N8 N 0.49397(17) 0.1591(3) 0.20710(15)
N9 N 0.51824(19) 0.0472(4) 0.28264(15)
N10 N 0.50411(17) 0.2577(4) 0.27116(15)
N11 N 0.40440(18) 0.2626(4) 0.21681(16)
N12 N 0.2720(2) 0.4083(4) 0.23656(15)
N13 N 0.30655(19) 0.4562(4) 0.12341(16)
N14 N 0.46180(19) -0.4493(4) 0.18209(14)
N16 N 0.39731(17) 0.4965(4) 0.25951(15)
N17 N 0.48393(17) -0.2386(3) 0.19658(14)
N19 N 0.49367(16) -0.3463(3) 0.25858(14)
N20 N 0.28730(17) 0.2295(3) 0.27976(14)
N21 N 0.21882(17) 0.2206(4) 0.21693(15)
N22 N 0.31751(18) 0.6917(4) 0.21230(14)
O1 O 0.67720(13) 0.3473(3) 0.23396(11)
O2 O 0.73765(13) 0.3507(3) 0.31192(11)
O3 O 0.58277(19) 0.0150(4) 0.18468(13)
O4 O 0.41802(14) 0.0507(3) 0.22399(12)
O5 O 0.43045(14) 0.1532(3) 0.29410(12)
O6 O 0.56715(13) -0.4558(3) 0.23843(11)
O7 O 0.55296(13) -0.3449(3) 0.16880(11)
O8 O 0.41745(18) 0.5051(4) 0.29312(14)
O9 O 0.17045(13) 0.3771(3) 0.24042(12)
O10 O 0.24138(13) 0.3757(3) 0.31160(11)
C44_2 C 0.4270(2) 0.5251(4) 0.19078(16)
Cr2_2 Cr 0.36836(3) -0.51692(7) 0.21303(3)
Mn1A Mn 0.27356(3) 0.80571(6) 0.23611(3)
Mn4A Mn 0.76954(3) -0.22285(6) 0.23514(3)
N3A N 0.78077(19) 0.3802(4) 0.24348(15)
N22A N 0.18249(18) 0.1917(4) 0.28770(14)
C38 C 0.1617(2) 0.7235(5) -0.00891(18)
C81 C 0.4031(2) 0.4935(5) -0.0046(2)
H69 H 0.4150 0.4622 -0.0240
C82 C 0.1760(3) 0.7501(5) 0.06357(19)
H70 H 0.1623 0.7719 0.0837
C84 C 0.1490(2) 0.7667(5) 0.02381(19)
C93 C 0.3399(2) 0.5898(5) 0.0130(2)
C94 C 0.0936(2) 0.8096(5) -0.0509(2)
H80 H 0.0759 0.8233 -0.0760
C107 C 0.4301(3) 0.4909(6) 0.0333(3)
C108 C 0.3584(2) 0.5421(5) -0.0148(2)
H94 H 0.3410 0.5420 -0.0406
C109 C 0.3669(2) 0.5891(5) 0.0517(2)
C110 C 0.0802(2) 0.8530(5) -0.0190(2)
C111 C 0.3512(3) 0.6360(5) 0.0832(2)
H95 H 0.3728 0.6373 0.1074
C112 C 0.2439(3) 0.6941(5) 0.11316(17)
H96 H 0.2418 0.6272 0.1211
H97 H 0.2306 0.7354 0.1305
C113 C 0.2963(3) 0.7213(5) 0.11431(19)
H98 H 0.2996 0.7913 0.1133
H99 H 0.3174 0.6978 0.1382
C114 C 0.1077(3) 0.8293(5) 0.0178(2)
H100 H 0.0987 0.8556 0.0396
C115 C 0.4119(2) 0.5388(5) 0.0609(2)
H101 H 0.4296 0.5385 0.0866
C116 C 0.0378(3) 0.9233(6) -0.0249(2)
H102 H 0.0440 0.9716 -0.0047
H103 H 0.0085 0.8888 -0.0238
H104 H 0.0340 0.9542 -0.0499
C117 C 0.4767(3) 0.4343(6) 0.0432(3)
H105 H 0.4928 0.4468 0.0698
H106 H 0.4974 0.4537 0.0262
H107 H 0.4696 0.3663 0.0399
C118 C 0.1329(2) 0.7461(5) -0.04587(19)
H108 H 0.1405 0.7175 -0.0678
Mn6 Mn 0.25509(3) 0.66892(7) 0.03420(3)
N15 N 0.3092(2) 0.6766(4) 0.08050(15)
N18 N 0.2174(2) 0.7078(4) 0.07282(14)
O11 O 0.24743(14) 0.5134(3) 0.05124(11)
H115 H 0.2685 0.5037 0.0725
H116 H 0.2540 0.4691 0.0363
O12 O 0.26093(17) 0.8300(3) 0.02156(15)
H117 H 0.2597 0.8601 0.0009
H118 H 0.2739 0.8693 0.0399
O13 O 0.19947(14) 0.6636(3) -0.00645(11)
O14 O 0.29751(15) 0.6380(3) 0.00204(12)
C83 C 0.9469(3) 0.4317(6) 0.0078(3)
H71 H 0.9578 0.3971 -0.0113
C85 C 0.8845(3) 0.5330(5) 0.0264(2)
C86 C 0.9143(3) 0.5337(5) 0.0649(2)
C87 C 0.9590(3) 0.4862(6) 0.0725(2)
H72 H 0.9786 0.4895 0.0976
C88 C 0.9007(3) 0.5846(5) 0.0964(2)
H73 H 0.9232 0.5881 0.1201
C90 C 0.7914(3) 0.6614(5) 0.12602(17)
H77 H 0.7868 0.5975 0.1362
H78 H 0.7799 0.7093 0.1421
C91 C 0.7203(3) 0.7041(5) 0.0757(2)
H79 H 0.7066 0.7254 0.0959
C92 C 0.6908(3) 0.7133(5) 0.03687(17)
C95 C 0.6324(2) 0.7398(5) -0.0360(2)
H81 H 0.6130 0.7495 -0.0608
C96 C 0.6176(3) 0.7789(5) -0.0038(2)
C97 C 0.6472(2) 0.7635(5) 0.0326(2)
H82 H 0.6378 0.7871 0.0546
C98 C 0.5704(3) 0.8370(6) -0.0087(2)
H83 H 0.5548 0.8220 0.0123
H84 H 0.5489 0.8204 -0.0331
H85 H 0.5776 0.9051 -0.0084
C102 C 0.9753(3) 0.4352(7) 0.0449(3)
C103 C 0.9022(3) 0.4785(6) -0.0019(2)
H90 H 0.8836 0.4742 -0.0273
C104 C 0.8462(3) 0.6783(5) 0.12740(18)
H91 H 0.8527 0.7471 0.1259
H92 H 0.8659 0.6532 0.1516
C105 C 0.7050(2) 0.6732(5) 0.00434(18)
C106 C 0.6745(3) 0.6879(5) -0.03215(19)
H93 H 0.6828 0.6620 -0.0542
C119 C 1.0220(3) 0.3833(7) 0.0512(3)
H109 H 1.0426 0.4038 0.0754
H110 H 1.0376 0.3975 0.0302
H111 H 1.0163 0.3148 0.0521
Mn5 Mn 0.80235(4) 0.62299(7) 0.04737(3)
N23 N 0.8582(2) 0.6267(4) 0.09347(15)
N24 N 0.7634(2) 0.6695(4) 0.08511(14)
O15 O 0.79110(14) 0.4677(3) 0.06460(11)
H119 H 0.8082 0.4465 0.0876
H120 H 0.7985 0.4174 0.0473
O16 O 0.74579(16) 0.6212(3) 0.00631(11)
O17 O 0.81539(18) 0.7829(3) 0.03707(13)
H121 H 0.8166 0.8002 0.0140
H122 H 0.7847 0.7881 0.0369
O18 O 0.84244(17) 0.5822(3) 0.01503(12)
C99 C 0.7965(4) 0.7714(8) 0.4275(3)
H86 H 0.7635 0.7486 0.4228
H87 H 0.8064 0.7762 0.4031
H88 H 0.7986 0.8341 0.4396
O30 O 0.8321(6) 0.7040(13) 0.4547(5)
H145 H 0.8548 0.6965 0.4438
C120 C 0.1907(5) 0.8221(11) 0.8717(4)
H112 H 0.1883 0.8661 0.8924
H113 H 0.2067 0.8539 0.8537
H114 H 0.2093 0.7662 0.8825
O31 O 0.1364(4) 0.7870(7) 0.8531(3)
H146 H 0.1257 0.8234 0.8347
O19 O 0.8676(2) 0.8684(5) 0.98722(18)
H123 H 0.8397 0.8926 0.9771
H124 H 0.8717 0.8265 0.9704
O20 O 0.8322(2) 0.6971(4) 0.94326(18)
H125 H 0.8117 0.7436 0.9413
H126 H 0.8202 0.6617 0.9235
O21 O 0.8513(5) 0.5653(11) 0.8925(4)
H127 H 0.8779 0.5833 0.8870
H128 H 0.8570 0.5075 0.9010
O22 O 0.7939(3) 0.5252(7) 0.8387(3)
H129 H 0.7674 0.4970 0.8400
H130 H 0.7939 0.5759 0.8526
O23 O 0.7673(3) 0.8958(8) 0.3580(3)
H131 H 0.7928 0.9026 0.3489
H132 H 0.7789 0.8871 0.3824
O24 O 0.4466(4) 0.3296(8) 0.1314(3)
H133 H 0.4741 0.3498 0.1434
H134 H 0.4314 0.3803 0.1217
O25 O 0.3339(2) 0.2384(4) 0.12860(16)
H135 H 0.3168 0.1914 0.1174
H136 H 0.3503 0.2138 0.1496
O26 O 0.2425(2) 0.1634(5) 0.0907(2)
H137 H 0.2424 0.1700 0.0666
H138 H 0.2654 0.2008 0.1020
O27 O 0.2228(2) 0.0160(4) 0.03690(18)
H139 H 0.2449 0.0580 0.0459
H140 H 0.2343 -0.0162 0.0201
O28 O 0.7448(2) 0.9287(5) 0.0327(2)
H141 H 0.7511 0.9808 0.0457
H142 H 0.7253 0.9461 0.0117
O29 O 0.6673(4) 0.5384(9) 0.1230(3)
H143 H 0.6583 0.5507 0.0987
H144 H 0.6427 0.5091 0.1281
O32 O 0.7524(4) 0.1123(5) 0.0617(3)
H147 H 0.7794 0.1382 0.0546
H148 H 0.7397 0.0719 0.0439
loop_
_geom_bond_atom_site_label_1
_geom_bond_atom_site_label_2
_geom_bond_site_symmetry_1
_geom_bond_site_symmetry_2
C1 H1 1_555 1_555
C2 C1 1_555 1_555
H2 C2 1_555 1_555
C3 C2 1_555 1_555
C4 C3 1_555 1_555
H3 C4 1_555 1_555
H4 C4 1_555 1_555
H5 C4 1_555 1_555
C5 C3 1_555 1_555
H6 C5 1_555 1_555
C6 C5 1_555 1_555
C7 C1 1_555 1_555
C8 C6 1_555 1_555
H7 C8 1_555 1_555
C9 H8 1_555 1_555
H9 C9 1_555 1_555
C10 C9 1_555 1_555
H10 C10 1_555 1_555
H11 C10 1_555 1_555
C11 H12 1_555 1_555
C12 C11 1_555 1_555
C13 C12 1_555 1_555
H13 C13 1_555 1_555
C14 C13 1_555 1_555
C15 C14 1_555 1_555
H14 C15 1_555 1_555
C16 C15 1_555 1_555
H15 C16 1_555 1_555
C17 C14 1_555 1_555
H16 C17 1_555 1_555
H17 C17 1_555 1_555
H18 C17 1_555 1_555
C18 Cr1 1_555 1_555
C19 Cr1 1_555 1_555
C20 Cr1 1_555 1_555
C21 Cr1 1_555 1_555
C22 Cr1 1_555 1_555
C23 H19 1_555 1_555
H20 C23 1_555 1_555
H21 C23 1_555 1_555
C24 C23 1_555 1_555
C25 C24 1_555 1_555
H22 C25 1_555 1_555
C26 C25 1_555 1_555
H23 C26 1_555 1_555
C27 C26 1_555 1_555
C28 C27 1_555 1_555
C29 C24 1_555 1_555
H24 C29 1_555 1_555
C30 C28 1_555 1_555
H25 C30 1_555 1_555
C31 H26 1_555 1_555
H27 C31 1_555 1_555
C32 C31 1_555 1_555
H28 C32 1_555 1_555
H29 C32 1_555 1_555
C33 H30 1_555 1_555
C34 C33 1_555 1_555
C35 C34 1_555 1_555
C36 C35 1_555 1_555
H31 C36 1_555 1_555
C37 C12 1_555 1_555
C38 C84 1_555 1_555
C39 C34 1_555 1_555
H32 C39 1_555 1_555
C40 H33 1_555 1_555
H34 C40 1_555 1_555
H35 C40 1_555 1_555
C41 Cr2 1_555 1_555
C42 Cr2 1_555 1_555
C43 Cr2 1_555 1_555
C44 N14 1_555 1_555
C45 H36 1_555 1_555
C46 C45 1_555 1_555
H37 C46 1_555 1_555
C47 C46 1_555 1_555
C48 C47 1_555 1_555
C49 C48 1_555 1_555
H38 C49 1_555 1_555
C50 C45 1_555 1_555
C51 C48 1_555 1_555
H39 C51 1_555 1_555
C52 H40 1_555 1_555
H41 C52 1_555 1_555
C53 C52 1_555 1_555
H42 C53 1_555 1_555
H43 C53 1_555 1_555
C54 H44 1_555 1_555
C55 C54 1_555 1_555
C56 C55 1_555 1_555
C57 C56 1_555 1_555
H45 C57 1_555 1_555
C58 C57 1_555 1_555
H46 C58 1_555 1_555
C59 C58 1_555 1_555
C60 C55 1_555 1_555
H47 C60 1_555 1_555
C61 C59 1_555 1_555
H48 C61 1_555 1_555
H49 C61 1_555 1_555
H50 C61 1_555 1_555
C62 C50 1_555 1_555
H51 C62 1_555 1_555
H52 C62 1_555 1_555
H53 C62 1_555 1_555
C63 Cr2 1_555 1_555
C64 H54 1_555 1_555
H55 C64 1_555 1_555
H56 C64 1_555 1_555
C65 C64 1_555 1_555
C66 C65 1_555 1_555
H57 C66 1_555 1_555
C67 C66 1_555 1_555
H58 C67 1_555 1_555
C68 C67 1_555 1_555
C69 C68 1_555 1_555
C70 C65 1_555 1_555
H59 C70 1_555 1_555
C71 C69 1_555 1_555
H60 C71 1_555 1_555
C72 H61 1_555 1_555
H62 C72 1_555 1_555
C73 C72 1_555 1_555
H63 C73 1_555 1_555
H64 C73 1_555 1_555
C74 H65 1_555 1_555
C75 C76 1_555 1_555
C76 C74 1_555 1_555
C77 C76 1_555 1_555
H66 C77 1_555 1_555
C78 C77 1_555 1_555
C79 C78 1_555 1_555
H67 C79 1_555 1_555
C80 C75 1_555 1_555
H68 C80 1_555 1_555
C81 H69 1_555 1_555
C82 H70 1_555 1_555
C83 H71 1_555 1_555
C84 C82 1_555 1_555
C85 C86 1_555 1_555
C86 C87 1_555 1_555
C87 H72 1_555 1_555
C88 C86 1_555 1_555
H73 C88 1_555 1_555
C89 C78 1_555 1_555
H74 C89 1_555 1_555
H75 C89 1_555 1_555
H76 C89 1_555 1_555
C90 H77 1_555 1_555
H78 C90 1_555 1_555
C91 H79 1_555 1_555
C92 C91 1_555 1_555
C93 C108 1_555 1_555
C94 H80 1_555 1_555
C95 H81 1_555 1_555
C96 C95 1_555 1_555
C97 C92 1_555 1_555
H82 C97 1_555 1_555
C98 C96 1_555 1_555
H83 C98 1_555 1_555
H84 C98 1_555 1_555
H85 C98 1_555 1_555
C99 H86 1_555 1_555
H87 C99 1_555 1_555
H88 C99 1_555 1_555
C100 C36 1_555 1_555
H89 C100 1_555 1_555
C101 C39 1_555 1_555
C102 C83 1_555 1_555
C103 C83 1_555 1_555
H90 C103 1_555 1_555
C104 C90 1_555 1_555
H91 C104 1_555 1_555
H92 C104 1_555 1_555
C105 C92 1_555 1_555
C106 C95 1_555 1_555
H93 C106 1_555 1_555
C107 C81 1_555 1_555
C108 C81 1_555 1_555
H94 C108 1_555 1_555
C109 C93 1_555 1_555
C110 C94 1_555 1_555
C111 C109 1_555 1_555
H95 C111 1_555 1_555
C112 H96 1_555 1_555
H97 C112 1_555 1_555
C113 C112 1_555 1_555
H98 C113 1_555 1_555
H99 C113 1_555 1_555
C114 C84 1_555 1_555
H100 C114 1_555 1_555
C115 C107 1_555 1_555
H101 C115 1_555 1_555
C116 C110 1_555 1_555
H102 C116 1_555 1_555
H103 C116 1_555 1_555
H104 C116 1_555 1_555
C117 C107 1_555 1_555
H105 C117 1_555 1_555
H106 C117 1_555 1_555
H107 C117 1_555 1_555
C118 C38 1_555 1_555
H108 C118 1_555 1_555
C119 C102 1_555 1_555
H109 C119 1_555 1_555
H110 C119 1_555 1_555
H111 C119 1_555 1_555
C120 H112 1_555 1_555
H113 C120 1_555 1_555
H114 C120 1_555 1_555
Cr1 N6 1_555 1_555
Cr2 N16 1_555 1_555
Mn1 N12 1_555 1_555
Mn2 N8 1_555 1_555
Mn3 N7 1_555 1_555
Mn4 N1 1_555 1_555
Mn5 N23 1_555 1_555
Mn6 N15 1_555 1_555
N1 C8 1_555 1_555
N2 C10 1_555 1_555
N3 C18 1_555 1_555
N4 C20 1_555 1_555
N5 C21 1_555 1_555
N6 O3 1_555 1_555
N7 C19 1_555 1_555
N8 C32 1_555 1_555
N9 C22 1_555 1_555
N10 C30 1_555 1_555
N11 C41 1_555 1_555
N12 C42 1_555 1_555
N13 C43 1_555 1_555
N14 Mn3 1_555 1_555
N15 C111 1_555 1_555
N16 O8 1_555 1_555
N17 C51 1_555 1_555
N18 C82 1_555 1_555
N19 C53 1_555 1_555
N20 C71 1_555 1_555
N21 C73 1_555 1_555
N22 C63 1_555 1_555
N23 C88 1_555 1_555
N24 C90 1_555 1_555
O1 C7 1_555 1_555
O2 C37 1_555 1_555
O4 C35 1_555 1_555
O5 C27 1_555 1_555
O6 C56 1_555 1_555
O7 C47 1_555 1_555
O9 C75 1_555 1_555
O10 C68 1_555 1_555
O11 Mn6 1_555 1_555
H115 O11 1_555 1_555
H116 O11 1_555 1_555
O12 Mn6 1_555 1_555
H117 O12 1_555 1_555
H118 O12 1_555 1_555
O13 C38 1_555 1_555
O14 C93 1_555 1_555
O15 Mn5 1_555 1_555
H119 O15 1_555 1_555
H120 O15 1_555 1_555
O16 C105 1_555 1_555
O17 Mn5 1_555 1_555
H121 O17 1_555 1_555
H122 O17 1_555 1_555
O18 C85 1_555 1_555
O19 H123 1_555 1_555
H124 O19 1_555 1_555
O20 H125 1_555 1_555
H126 O20 1_555 1_555
O21 H127 1_555 1_555
H128 O21 1_555 1_555
O22 H129 1_555 1_555
H130 O22 1_555 1_555
O23 H131 1_555 1_555
H132 O23 1_555 1_555
O24 H133 1_555 1_555
H134 O24 1_555 1_555
O25 H135 1_555 1_555
H136 O25 1_555 1_555
O26 H137 1_555 1_555
H138 O26 1_555 1_555
O27 H139 1_555 1_555
H140 O27 1_555 1_555
O28 H141 1_555 1_555
H142 O28 1_555 1_555
O29 H143 1_555 1_555
H144 O29 1_555 1_555
O30 C99 1_555 1_555
H145 O30 1_555 1_555
O31 C120 1_555 1_555
H146 O31 1_555 1_555
O32 H147 1_555 1_555
H148 O32 1_555 1_555
C44_2 Cr2 1_555 1_555
Cr2_2 C44 1_555 1_555
Mn1A N22 1_555 1_555
Mn4A N3 1_555 1_555
N3A Mn4 1_555 1_555
N22A Mn1 1_555 1_555
C6 C7 1_555 1_555
C9 N1 1_555 1_555
C11 N2 1_555 1_555
C16 C37 1_555 1_555
C28 C29 1_555 1_555
C31 N10 1_555 1_555
C33 N8 1_555 1_555
C40 C101 1_555 1_555
C49 C50 1_555 1_555
C52 N17 1_555 1_555
C54 N19 1_555 1_555
C59 C60 1_555 1_555
C69 C70 1_555 1_555
C72 N20 1_555 1_555
C74 N21 1_555 1_555
C79 C80 1_555 1_555
C85 C103 1_555 1_555
C87 C102 1_555 1_555
C91 N24 1_555 1_555
C94 C118 1_555 1_555
C96 C97 1_555 1_555
C100 C101 1_555 1_555
C104 N23 1_555 1_555
C105 C106 1_555 1_555
C109 C115 1_555 1_555
C110 C114 1_555 1_555
C112 N18 1_555 1_555
C113 N15 1_555 1_555
Mn1 N20 1_555 1_555
Mn1 N21 1_555 1_555
Mn1 O9 1_555 1_555
Mn1 O10 1_555 1_555
Mn2 N9 1_555 1_555
Mn2 N10 1_555 1_555
Mn2 N11 1_555 1_555
Mn2 O4 1_555 1_555
Mn2 O5 1_555 1_555
Mn3 N17 1_555 1_555
Mn3 N19 1_555 1_555
Mn3 O6 1_555 1_555
Mn3 O7 1_555 1_555
Mn4 N2 1_555 1_555
Mn4 N5 1_555 1_555
Mn4 O1 1_555 1_555
Mn4 O2 1_555 1_555
Mn5 N24 1_555 1_555
Mn5 O16 1_555 1_555
Mn5 O18 1_555 1_555
Mn6 N18 1_555 1_555
Mn6 O13 1_555 1_555
Mn6 O14 1_555 1_555

#END
