
#######################################################################
#
#                 Cambridge Crystallographic Data Centre
#                                CCDC 
#
#######################################################################
#
# If this CIF has been generated from an entry in the Cambridge 
# Structural Database, then it will include bibliographic, chemical, 
# crystal, experimental, refinement or atomic coordinate data resulting 
# from the CCDC's data processing and validation procedures.
#
#######################################################################

data_BAMNUA
_symmetry_cell_setting           triclinic
_symmetry_space_group_name_H-M   'P -1'
_symmetry_Int_Tables_number      2
_space_group_name_Hall           '-P 1'
loop_
_symmetry_equiv_pos_site_id
_symmetry_equiv_pos_as_xyz
1 x,y,z
2 -x,-y,-z
_cell_length_a                   10.7531(6)
_cell_length_b                   10.9448(6)
_cell_length_c                   14.5573(8)
_cell_angle_alpha                83.3540(10)
_cell_angle_beta                 72.7540(10)
_cell_angle_gamma                79.9320(10)
_cell_volume                     1607.31
loop_
_atom_site_label
_atom_site_type_symbol
_atom_site_fract_x
_atom_site_fract_y
_atom_site_fract_z
Co1 Co 0.26124(7) 0.91692(6) 0.29075(5)
Gd1 Gd -0.13394(2) 0.60164(2) 0.204435(16)
Gd2 Gd 0.69590(2) 1.13894(2) 0.328729(17)
C1 C 0.2432(5) 0.6746(5) 0.2340(4)
C2 C 0.2658(6) 0.5542(6) 0.2104(5)
H1 H 0.2061 0.5235 0.1874
C3 C 0.3783(6) 0.4782(5) 0.2209(5)
H2 H 0.3933 0.3947 0.2084
C4 C 0.4693(5) 0.5294(5) 0.2506(4)
C5 C 0.4437(5) 0.6562(5) 0.2653(4)
H3 H 0.5064 0.6932 0.2800
C6 C 0.1134(5) 0.7573(5) 0.2372(4)
C7 C 0.5886(5) 0.4474(5) 0.2687(4)
C8 C 0.4313(5) 1.0708(5) 0.1472(4)
C9 C 0.4786(6) 1.1551(6) 0.0707(4)
H4 H 0.5535 1.1900 0.0658
C10 C 0.4100(7) 1.1853(6) 0.0020(4)
H5 H 0.4377 1.2429 -0.0490
C11 C 0.3017(6) 1.1306(5) 0.0090(4)
C12 C 0.2630(5) 1.0454(5) 0.0875(4)
H6 H 0.1902 1.0073 0.0926
C13 C 0.4919(5) 1.0356(5) 0.2296(4)
C14 C 0.2234(6) 1.1584(6) -0.0645(4)
C15 C 0.1368(5) 1.0810(5) 0.4479(4)
C16 C 0.0850(6) 1.1825(5) 0.5028(4)
H7 H 0.0798 1.1769 0.5680
C17 C 0.0415(6) 1.2922(5) 0.4578(4)
H8 H 0.0063 1.3626 0.4923
C18 C 0.0503(5) 1.2969(5) 0.3611(4)
C19 C 0.1104(5) 1.1922(5) 0.3107(4)
H9 H 0.1204 1.1966 0.2448
C20 C 0.1739(5) 0.9532(5) 0.4927(4)
C21 C -0.0095(5) 1.4084(5) 0.3105(4)
C22 C 0.4583(5) 1.0631(5) 0.5136(4)
C23 C 0.0538(5) 0.5426(5) -0.0092(4)
N1 N 0.3300(4) 0.7263(4) 0.2588(3)
N2 N 0.3250(4) 1.0164(4) 0.1549(3)
N3 N 0.1542(4) 1.0862(4) 0.3526(3)
O1 O 0.1036(3) 0.8691(3) 0.2562(3)
O2 O 0.0235(4) 0.7112(4) 0.2233(3)
O3 O 0.6839(4) 0.4956(4) 0.2704(3)
O4 O 0.5795(4) 0.3338(4) 0.2845(3)
O5 O 0.4397(4) 0.9608(4) 0.2941(3)
O6 O 0.5898(4) 1.0854(4) 0.2266(3)
O7 O 0.1430(5) 1.0900(5) -0.0628(3)
O8 O 0.2500(5) 1.2496(5) -0.1233(3)
O9 O -0.0827(5) 1.4960(4) 0.3576(3)
O10 O 0.0122(4) 1.4098(4) 0.2204(3)
O11 O 0.1535(4) 0.9419(4) 0.5824(3)
O12 O 0.2214(4) 0.8665(3) 0.4374(3)
O13 O 0.3593(4) 1.0618(3) 0.5833(3)
O14 O 0.4982(4) 1.1571(4) 0.4607(3)
O15 O 0.0385(4) 0.6166(4) 0.0541(3)
O16 O 0.1445(4) 0.5317(4) -0.0855(3)
O17 O -0.2713(5) 0.7148(4) 0.3352(3)
H10 H -0.2701 0.7795 0.3618
H11 H -0.3489 0.7169 0.3312
O18 O 0.7187(5) 1.3025(4) 0.4226(4)
H12 H 0.7464 1.2795 0.4718
H13 H 0.7571 1.3632 0.3930
O19 O 0.8523(5) 1.2249(4) 0.1956(4)
H14 H 0.8971 1.2846 0.1820
H15 H 0.9027 1.1606 0.1714
O20 O 0.8460(4) 0.9731(4) 0.2421(3)
H16 H 0.9122 0.9273 0.2546
H17 H 0.8254 0.9386 0.2003
Co1A Co -0.26124(7) 0.08308(6) -0.29075(5)
Gd1A Gd 0.13394(2) 0.39836(2) -0.204435(16)
Gd1_2 Gd -0.13394(2) -0.39836(2) 0.204435(16)
Gd1_3 Gd -0.13394(2) 1.60164(2) 0.204435(16)
Gd1_4 Gd 0.86606(2) 0.60164(2) 0.204435(16)
Gd1A_2 Gd -0.86606(2) 0.39836(2) -0.204435(16)
Gd1A_3 Gd 0.13394(2) -0.60164(2) -0.204435(16)
Gd1A_4 Gd 0.13394(2) 1.39836(2) -0.204435(16)
Gd2A Gd -0.69590(2) -0.13894(2) -0.328729(17)
Gd2_2 Gd -0.30410(2) 0.13894(2) -0.671271(17)
Gd2_3 Gd 0.69590(2) 0.13894(2) 0.328729(17)
Gd2A_2 Gd -0.69590(2) 0.86106(2) -0.328729(17)
Gd2A_3 Gd 0.30410(2) 0.86106(2) 0.671271(17)
C1A C -0.2432(5) 0.3254(5) -0.2340(4)
C2A C -0.2658(6) 0.4458(6) -0.2104(5)
H1A H -0.2061 0.4765 -0.1874
C3A C -0.3783(6) 0.5218(5) -0.2209(5)
H2A H -0.3933 0.6053 -0.2084
C4A C -0.4693(5) 0.4706(5) -0.2506(4)
C5A C -0.4437(5) 0.3438(5) -0.2653(4)
H3A H -0.5064 0.3068 -0.2800
C6A C -0.1134(5) 0.2427(5) -0.2372(4)
C7A C -0.5886(5) 0.5526(5) -0.2687(4)
C8A C -0.4313(5) -0.0708(5) -0.1472(4)
C9A C -0.4786(6) -0.1551(6) -0.0707(4)
H4A H -0.5535 -0.1900 -0.0658
C10A C -0.4100(7) -0.1853(6) -0.0020(4)
H5A H -0.4377 -0.2429 0.0490
C11A C -0.3017(6) -0.1306(5) -0.0090(4)
C12A C -0.2630(5) -0.0454(5) -0.0875(4)
H6A H -0.1902 -0.0073 -0.0926
C13A C -0.4919(5) -0.0356(5) -0.2296(4)
C14A C -0.2234(6) -0.1584(6) 0.0645(4)
C15A C -0.1368(5) -0.0810(5) -0.4479(4)
C16A C -0.0850(6) -0.1825(5) -0.5028(4)
H7A H -0.0798 -0.1769 -0.5680
C17A C -0.0415(6) -0.2922(5) -0.4578(4)
H8A H -0.0063 -0.3626 -0.4923
C18A C -0.0503(5) -0.2969(5) -0.3611(4)
C19A C -0.1104(5) -0.1922(5) -0.3107(4)
H9A H -0.1204 -0.1966 -0.2448
C20A C -0.1739(5) 0.0468(5) -0.4927(4)
C21A C 0.0095(5) -0.4084(5) -0.3105(4)
C21_2 C -0.0095(5) 0.4084(5) 0.3105(4)
C21A_2 C 0.0095(5) 0.5916(5) -0.3105(4)
C22A C 0.5417(5) 0.9369(5) 0.4864(4)
C23A C -0.0538(5) 0.4574(5) 0.0092(4)
N1A N -0.3300(4) 0.2737(4) -0.2588(3)
N2A N -0.3250(4) -0.0164(4) -0.1549(3)
N3A N -0.1542(4) -0.0862(4) -0.3526(3)
O1A O -0.1036(3) 0.1309(3) -0.2562(3)
O2A O -0.0235(4) 0.2888(4) -0.2233(3)
O3A O -0.6839(4) 0.5044(4) -0.2704(3)
O3_2 O -0.3161(4) 0.4956(4) 0.2704(3)
O3A_2 O 0.3161(4) 0.5044(4) -0.2704(3)
O4A O -0.5795(4) 0.6662(4) -0.2845(3)
O4_2 O 0.5795(4) 1.3338(4) 0.2845(3)
O4A_2 O -0.5795(4) -0.3338(4) -0.2845(3)
O5A O -0.4397(4) 0.0392(4) -0.2941(3)
O6A O -0.5898(4) -0.0854(4) -0.2266(3)
O7A O -0.1430(5) -0.0900(5) 0.0628(3)
O8A O -0.2500(5) -0.2496(5) 0.1233(3)
O8_2 O 0.2500(5) 0.2496(5) -0.1233(3)
O8A_2 O -0.2500(5) 0.7504(5) 0.1233(3)
O9A O 0.0827(5) -0.4960(4) -0.3576(3)
O9_2 O -0.0827(5) 0.4960(4) 0.3576(3)
O9A_2 O 0.0827(5) 0.5040(4) -0.3576(3)
O10A O -0.0122(4) -0.4098(4) -0.2204(3)
O10_2 O 0.0122(4) 0.4098(4) 0.2204(3)
O10A_2 O -0.0122(4) 0.5902(4) -0.2204(3)
O11A O -0.1535(4) 0.0581(4) -0.5824(3)
O11_2 O -0.8465(4) -0.0581(4) -0.4176(3)
O11A_2 O 0.8465(4) 1.0581(4) 0.4176(3)
O12A O -0.2214(4) 0.1335(3) -0.4374(3)
O13A O 0.6407(4) 0.9382(3) 0.4167(3)
O13_2 O -0.6407(4) 0.0618(3) -0.4167(3)
O14A O 0.5018(4) 0.8429(4) 0.5393(3)
O14A_2 O -0.4982(4) -0.1571(4) -0.4607(3)
O15A O -0.0385(4) 0.3834(4) -0.0541(3)
O16A O -0.1445(4) 0.4683(4) 0.0855(3)
O17A O 0.2713(5) 0.2852(4) -0.3352(3)
H10A H 0.2701 0.2205 -0.3618
H11A H 0.3489 0.2831 -0.3312
O18A O -0.7187(5) -0.3025(4) -0.4226(4)
H12A H -0.7464 -0.2795 -0.4718
H13A H -0.7571 -0.3632 -0.3930
O19A O -0.8523(5) -0.2249(4) -0.1956(4)
H14A H -0.8971 -0.2846 -0.1820
H15A H -0.9027 -0.1606 -0.1714
O20A O -0.8460(4) 0.0269(4) -0.2421(3)
H16A H -0.9122 0.0727 -0.2546
H17A H -0.8254 0.0614 -0.2003
O21 O 0.8327(7) 0.1743(7) 0.0259(5)
H18 H 0.8682 0.2290 -0.0149
H19 H 0.8661 0.1035 0.0040
O22 O 0.4011(10) 0.4212(7) 0.4988(6)
H20 H 0.4443 0.3629 0.4631
H21 H 0.3222 0.4319 0.4957
loop_
_geom_bond_atom_site_label_1
_geom_bond_atom_site_label_2
_geom_bond_site_symmetry_1
_geom_bond_site_symmetry_2
Co1 N1 1_555 1_555
Gd1 O2 1_555 1_555
Gd2 O6 1_555 1_555
C1 C2 1_555 1_555
C2 H1 1_555 1_555
C3 C2 1_555 1_555
H2 C3 1_555 1_555
C4 C3 1_555 1_555
C5 C4 1_555 1_555
H3 C5 1_555 1_555
C6 C1 1_555 1_555
C7 C4 1_555 1_555
C8 C9 1_555 1_555
C9 H4 1_555 1_555
C10 C9 1_555 1_555
H5 C10 1_555 1_555
C11 C10 1_555 1_555
C12 C11 1_555 1_555
H6 C12 1_555 1_555
C13 C8 1_555 1_555
C14 C11 1_555 1_555
C15 C16 1_555 1_555
C16 H7 1_555 1_555
C17 C16 1_555 1_555
H8 C17 1_555 1_555
C18 C17 1_555 1_555
C19 C18 1_555 1_555
H9 C19 1_555 1_555
C20 C15 1_555 1_555
C21 C18 1_555 1_555
C22 O13 1_555 1_555
C23 O15 1_555 1_555
N1 C1 1_555 1_555
N2 Co1 1_555 1_555
N3 Co1 1_555 1_555
O1 Co1 1_555 1_555
O2 C6 1_555 1_555
O3 C7 1_555 1_555
O4 C7 1_555 1_555
O5 Co1 1_555 1_555
O6 C13 1_555 1_555
O7 C14 1_555 1_555
O8 C14 1_555 1_555
O9 C21 1_555 1_555
O10 C21 1_555 1_555
O11 C20 1_555 1_555
O12 Co1 1_555 1_555
O13 Gd2A_3 1_555 1_555
O14 Gd2 1_555 1_555
O15 Gd1 1_555 1_555
O16 C23 1_555 1_555
O17 Gd1 1_555 1_555
H10 O17 1_555 1_555
H11 O17 1_555 1_555
O18 Gd2 1_555 1_555
H12 O18 1_555 1_555
H13 O18 1_555 1_555
O19 Gd2 1_555 1_555
H14 O19 1_555 1_555
H15 O19 1_555 1_555
O20 Gd2 1_555 1_555
H16 O20 1_555 1_555
H17 O20 1_555 1_555
O21 H18 1_555 1_555
H19 O21 1_555 1_555
O22 H20 1_555 1_555
H21 O22 1_555 1_555
Co1A N1A 1_555 1_555
Gd1A O16 1_555 1_555
Gd1_2 O8A 1_555 1_555
Gd1_3 O9 1_555 1_555
Gd1_4 O3 1_555 1_555
Gd1A_2 O3A 1_555 1_555
Gd1A_3 O9A 1_555 1_555
Gd1A_4 O8 1_555 1_555
Gd2A O4A_2 1_555 1_555
Gd2_2 O11A 1_555 1_555
Gd2_3 O4 1_555 1_555
Gd2A_2 O4A 1_555 1_555
Gd2A_3 O11 1_555 1_555
C1A C2A 1_555 1_555
C2A H1A 1_555 1_555
C3A C2A 1_555 1_555
H2A C3A 1_555 1_555
C4A C3A 1_555 1_555
C5A C4A 1_555 1_555
H3A C5A 1_555 1_555
C6A C1A 1_555 1_555
C7A C4A 1_555 1_555
C8A C9A 1_555 1_555
C9A H4A 1_555 1_555
C10A C9A 1_555 1_555
H5A C10A 1_555 1_555
C11A C10A 1_555 1_555
C12A C11A 1_555 1_555
H6A C12A 1_555 1_555
C13A C8A 1_555 1_555
C14A C11A 1_555 1_555
C15A C16A 1_555 1_555
C16A H7A 1_555 1_555
C17A C16A 1_555 1_555
H8A C17A 1_555 1_555
C18A C17A 1_555 1_555
C19A C18A 1_555 1_555
H9A C19A 1_555 1_555
C20A C15A 1_555 1_555
C21A C18A 1_555 1_555
C21_2 O9_2 1_555 1_555
C21A_2 O9A_2 1_555 1_555
C22A C22 1_555 1_555
C23A C23 1_555 1_555
N1A C1A 1_555 1_555
N2A Co1A 1_555 1_555
N3A Co1A 1_555 1_555
O1A Co1A 1_555 1_555
O2A Gd1A 1_555 1_555
O3A C7A 1_555 1_555
O3_2 Gd1 1_555 1_555
O3A_2 Gd1A 1_555 1_555
O4A C7A 1_555 1_555
O4_2 Gd2 1_555 1_555
O5A Co1A 1_555 1_555
O6A Gd2A 1_555 1_555
O7A C14A 1_555 1_555
O8A C14A 1_555 1_555
O8_2 Gd1A 1_555 1_555
O8A_2 Gd1 1_555 1_555
O9A C21A 1_555 1_555
O9_2 Gd1 1_555 1_555
O9A_2 Gd1A 1_555 1_555
O10A Gd1A_3 1_555 1_555
O10_2 Gd1 1_555 1_555
O10A_2 Gd1A 1_555 1_555
O11A C20A 1_555 1_555
O11_2 Gd2A 1_555 1_555
O11A_2 Gd2 1_555 1_555
O12A Co1A 1_555 1_555
O13A Gd2 1_555 1_555
O13_2 Gd2A 1_555 1_555
O14A Gd2A_3 1_555 1_555
O14A_2 Gd2A 1_555 1_555
O15A Gd1A 1_555 1_555
O16A Gd1 1_555 1_555
O17A Gd1A 1_555 1_555
H10A O17A 1_555 1_555
H11A O17A 1_555 1_555
O18A Gd2A 1_555 1_555
H12A O18A 1_555 1_555
H13A O18A 1_555 1_555
O19A Gd2A 1_555 1_555
H14A O19A 1_555 1_555
H15A O19A 1_555 1_555
O20A Gd2A 1_555 1_555
H16A O20A 1_555 1_555
H17A O20A 1_555 1_555
C5 N1 1_555 1_555
C6 O1 1_555 1_555
C8 N2 1_555 1_555
C12 N2 1_555 1_555
C13 O5 1_555 1_555
C15 N3 1_555 1_555
C19 N3 1_555 1_555
C20 O12 1_555 1_555
C22 O14 1_555 1_555
O10 Gd1_3 1_555 1_555
C5A N1A 1_555 1_555
C6A O1A 1_555 1_555
C6A O2A 1_555 1_555
C8A N2A 1_555 1_555
C12A N2A 1_555 1_555
C13A O5A 1_555 1_555
C13A O6A 1_555 1_555
C15A N3A 1_555 1_555
C19A N3A 1_555 1_555
C20A O12A 1_555 1_555
C21A O10A 1_555 1_555
C21_2 O10_2 1_555 1_555
C21A_2 O10A_2 1_555 1_555
C22A O13A 1_555 1_555
C22A O14A 1_555 1_555
C23A O15A 1_555 1_555
C23A O16A 1_555 1_555

#END
