
#######################################################################
#
#                 Cambridge Crystallographic Data Centre
#                                CCDC 
#
#######################################################################
#
# If this CIF has been generated from an entry in the Cambridge 
# Structural Database, then it will include bibliographic, chemical, 
# crystal, experimental, refinement or atomic coordinate data resulting 
# from the CCDC's data processing and validation procedures.
#
#######################################################################

data_BAMSEN
_symmetry_cell_setting           triclinic
_symmetry_space_group_name_H-M   'P -1'
_symmetry_Int_Tables_number      2
_space_group_name_Hall           '-P 1'
loop_
_symmetry_equiv_pos_site_id
_symmetry_equiv_pos_as_xyz
1 x,y,z
2 -x,-y,-z
_cell_length_a                   3.8711(3)
_cell_length_b                   12.601(1)
_cell_length_c                   12.793(1)
_cell_angle_alpha                90.271(1)
_cell_angle_beta                 96.42(1)
_cell_angle_gamma                91.28(1)
_cell_volume                     619.955
loop_
_atom_site_label
_atom_site_type_symbol
_atom_site_fract_x
_atom_site_fract_y
_atom_site_fract_z
Ga1 Ga 1.00000 0.00000 0.00000
F1 F 0.50000 0.00000 0.00000
N1 N 1.07620 0.07250 0.13750
N2 N 1.00690 0.13830 -0.07090
N3 N 1.08140 -0.08020 0.25340
N4 N 1.15220 0.25400 0.08110
C1 C 1.11000 0.02280 0.23300
C2 C 1.19900 0.10260 0.31550
C3 C 1.26300 0.09350 0.42340
C4 C 1.36000 0.18480 0.48070
C5 C 1.38700 0.28210 0.43120
C6 C 1.32100 0.29190 0.32330
C7 C 1.22300 0.19940 0.26530
C8 C 1.14300 0.17930 0.15390
C9 C 1.08900 0.23410 -0.02140
C10 C 1.11100 0.31530 -0.10110
C11 C 1.18900 0.42300 -0.09270
C12 C 1.18900 0.47950 -0.18510
C13 C 1.10900 0.43090 -0.28170
C14 C 1.03600 0.32280 -0.29110
C15 C 1.03600 0.26540 -0.19860
C16 C 0.98000 0.15360 -0.17810
H1 H 1.24400 0.03000 0.45000
H2 H 1.40300 0.18100 0.55400
H3 H 1.45600 0.33500 0.47600
H4 H 1.34100 0.35400 0.29700
H5 H 1.24100 0.44900 -0.03200
H6 H 1.23900 0.55300 -0.18100
H7 H 1.11400 0.47500 -0.34600
H8 H 0.98100 0.29600 -0.35800
F1_2 F 1.50000 0.00000 0.00000
N1A N 0.92380 -0.07250 -0.13750
N2A N 0.99310 -0.13830 0.07090
Ga1_2 Ga 0.00000 0.00000 0.00000
C16A C 1.02000 -0.15360 0.17810
N3A N 0.91860 0.08020 -0.25340
C1A C 0.89000 -0.02280 -0.23300
C8A C 0.85700 -0.17930 -0.15390
C9A C 0.91100 -0.23410 0.02140
C15A C 0.96400 -0.26540 0.19860
C2A C 0.80100 -0.10260 -0.31550
N4A N 0.84780 -0.25400 -0.08110
C7A C 0.77700 -0.19940 -0.26530
C10A C 0.88900 -0.31530 0.10110
C14A C 0.96400 -0.32280 0.29110
C3A C 0.73700 -0.09350 -0.42340
C6A C 0.67900 -0.29190 -0.32330
C11A C 0.81100 -0.42300 0.09270
C13A C 0.89100 -0.43090 0.28170
H8A H 1.01900 -0.29600 0.35800
C4A C 0.64000 -0.18480 -0.48070
H1A H 0.75600 -0.03000 -0.45000
C5A C 0.61300 -0.28210 -0.43120
H4A H 0.65900 -0.35400 -0.29700
C12A C 0.81100 -0.47950 0.18510
H5A H 0.75900 -0.44900 0.03200
H7A H 0.88600 -0.47500 0.34600
H2A H 0.59700 -0.18100 -0.55400
H3A H 0.54400 -0.33500 -0.47600
H6A H 0.76100 -0.55300 0.18100
loop_
_geom_bond_atom_site_label_1
_geom_bond_atom_site_label_2
_geom_bond_site_symmetry_1
_geom_bond_site_symmetry_2
Ga1 F1 1_555 1_555
F1 Ga1_2 1_555 1_555
N1 Ga1 1_555 1_555
N2 Ga1 1_555 1_555
N3 C1 1_555 1_555
N4 C8 1_555 1_555
C1 N1 1_555 1_555
C2 C1 1_555 1_555
C3 C2 1_555 1_555
C4 C3 1_555 1_555
C5 C4 1_555 1_555
C6 C5 1_555 1_555
C7 C2 1_555 1_555
C8 N1 1_555 1_555
C9 N2 1_555 1_555
C10 C9 1_555 1_555
C11 C10 1_555 1_555
C12 C11 1_555 1_555
C13 C12 1_555 1_555
C14 C13 1_555 1_555
C15 C10 1_555 1_555
C16 N2 1_555 1_555
H1 C3 1_555 1_555
H2 C4 1_555 1_555
H3 C5 1_555 1_555
H4 C6 1_555 1_555
H5 C11 1_555 1_555
H6 C12 1_555 1_555
H7 C13 1_555 1_555
H8 C14 1_555 1_555
F1_2 Ga1 1_555 1_555
N1A Ga1 1_555 1_555
N2A Ga1 1_555 1_555
C16A N3 1_555 1_555
N3A C16 1_555 1_555
C1A N1A 1_555 1_555
C8A N1A 1_555 1_555
C9A N2A 1_555 1_555
C15A C16A 1_555 1_555
C2A C1A 1_555 1_555
N4A C8A 1_555 1_555
C7A C8A 1_555 1_555
C10A C9A 1_555 1_555
C14A C15A 1_555 1_555
C3A C2A 1_555 1_555
C6A C7A 1_555 1_555
C11A C10A 1_555 1_555
C13A C14A 1_555 1_555
H8A C14A 1_555 1_555
C4A C3A 1_555 1_555
H1A C3A 1_555 1_555
C5A C6A 1_555 1_555
H4A C6A 1_555 1_555
C12A C11A 1_555 1_555
H5A C11A 1_555 1_555
H7A C13A 1_555 1_555
H2A C4A 1_555 1_555
H3A C5A 1_555 1_555
H6A C12A 1_555 1_555
N4 C9 1_555 1_555
C6 C7 1_555 1_555
C7 C8 1_555 1_555
C14 C15 1_555 1_555
C15 C16 1_555 1_555
N2A C16A 1_555 1_555
N3A C1A 1_555 1_555
C9A N4A 1_555 1_555
C15A C10A 1_555 1_555
C2A C7A 1_555 1_555
C13A C12A 1_555 1_555
C4A C5A 1_555 1_555

#END
