
#######################################################################
#
#                 Cambridge Crystallographic Data Centre
#                                CCDC 
#
#######################################################################
#
# If this CIF has been generated from an entry in the Cambridge 
# Structural Database, then it will include bibliographic, chemical, 
# crystal, experimental, refinement or atomic coordinate data resulting 
# from the CCDC's data processing and validation procedures.
#
#######################################################################

data_BAMSEN10
_symmetry_cell_setting           triclinic
_symmetry_space_group_name_H-M   'P -1'
_symmetry_Int_Tables_number      2
_space_group_name_Hall           '-P 1'
loop_
_symmetry_equiv_pos_site_id
_symmetry_equiv_pos_as_xyz
1 x,y,z
2 -x,-y,-z
_cell_length_a                   3.8711(3)
_cell_length_b                   12.601(1)
_cell_length_c                   12.793(1)
_cell_angle_alpha                90.27(1)
_cell_angle_beta                 96.42(1)
_cell_angle_gamma                91.28(1)
_cell_volume                     619.955
loop_
_atom_site_label
_atom_site_type_symbol
_atom_site_fract_x
_atom_site_fract_y
_atom_site_fract_z
Ga1 Ga 0.0000 0.0000 0.0000
F1 F -0.5000 0.0000 0.0000
N1 N 0.0762(8) 0.0725(2) 0.1376(2)
N2 N 0.0069(8) 0.1383(2) -0.0709(2)
N3 N 0.0814(8) -0.0802(2) 0.2534(2)
N4 N 0.1522(8) 0.2540(2) 0.0811(2)
C1 C 0.110(1) 0.0228(2) 0.2330(2)
C2 C 0.199(1) 0.1026(2) 0.3155(2)
C3 C 0.263(1) 0.0935(3) 0.4234(3)
C4 C 0.360(1) 0.1848(3) 0.4807(3)
C5 C 0.387(1) 0.2821(3) 0.4312(3)
C6 C 0.321(1) 0.2919(3) 0.3233(3)
C7 C 0.223(1) 0.1994(2) 0.2653(2)
C8 C 0.143(1) 0.1793(2) 0.1539(2)
C9 C 0.089(1) 0.2341(2) -0.0214(2)
C10 C 0.111(1) 0.3153(2) -0.1011(2)
C11 C 0.189(1) 0.4230(2) -0.0927(3)
C12 C 0.189(1) 0.4795(3) -0.1851(3)
C13 C 0.109(1) 0.4309(3) -0.2817(3)
C14 C 0.036(1) 0.3228(3) -0.2911(3)
C15 C 0.036(1) 0.2654(2) -0.1986(2)
C16 C -0.020(1) 0.1536(2) -0.1781(2)
F1_2 F 0.5000 0.0000 0.0000
N1A N -0.0762(8) -0.0725(2) -0.1376(2)
N2A N -0.0069(8) -0.1383(2) 0.0709(2)
Ga1_2 Ga -1.0000 0.0000 0.0000
C16A C 0.020(1) -0.1536(2) 0.1781(2)
N3A N -0.0814(8) 0.0802(2) -0.2534(2)
C1A C -0.110(1) -0.0228(2) -0.2330(2)
C8A C -0.143(1) -0.1793(2) -0.1539(2)
C9A C -0.089(1) -0.2341(2) 0.0214(2)
C15A C -0.036(1) -0.2654(2) 0.1986(2)
C2A C -0.199(1) -0.1026(2) -0.3155(2)
N4A N -0.1522(8) -0.2540(2) -0.0811(2)
C7A C -0.223(1) -0.1994(2) -0.2653(2)
C10A C -0.111(1) -0.3153(2) 0.1011(2)
C14A C -0.036(1) -0.3228(3) 0.2911(3)
C3A C -0.263(1) -0.0935(3) -0.4234(3)
C6A C -0.321(1) -0.2919(3) -0.3233(3)
C11A C -0.189(1) -0.4230(2) 0.0927(3)
C13A C -0.109(1) -0.4309(3) 0.2817(3)
C4A C -0.360(1) -0.1848(3) -0.4807(3)
C5A C -0.387(1) -0.2821(3) -0.4312(3)
C12A C -0.189(1) -0.4795(3) 0.1851(3)
loop_
_geom_bond_atom_site_label_1
_geom_bond_atom_site_label_2
_geom_bond_site_symmetry_1
_geom_bond_site_symmetry_2
Ga1 F1 1_555 1_555
F1 Ga1_2 1_555 1_555
N1 Ga1 1_555 1_555
N2 Ga1 1_555 1_555
N3 C1 1_555 1_555
N4 C8 1_555 1_555
C1 N1 1_555 1_555
C2 C1 1_555 1_555
C3 C2 1_555 1_555
C4 C3 1_555 1_555
C5 C4 1_555 1_555
C6 C5 1_555 1_555
C7 C2 1_555 1_555
C8 N1 1_555 1_555
C9 N2 1_555 1_555
C10 C9 1_555 1_555
C11 C10 1_555 1_555
C12 C11 1_555 1_555
C13 C12 1_555 1_555
C14 C13 1_555 1_555
C15 C10 1_555 1_555
C16 N2 1_555 1_555
F1_2 Ga1 1_555 1_555
N1A Ga1 1_555 1_555
N2A Ga1 1_555 1_555
C16A N3 1_555 1_555
N3A C16 1_555 1_555
C1A N1A 1_555 1_555
C8A N1A 1_555 1_555
C9A N2A 1_555 1_555
C15A C16A 1_555 1_555
C2A C1A 1_555 1_555
N4A C8A 1_555 1_555
C7A C8A 1_555 1_555
C10A C9A 1_555 1_555
C14A C15A 1_555 1_555
C3A C2A 1_555 1_555
C6A C7A 1_555 1_555
C11A C10A 1_555 1_555
C13A C14A 1_555 1_555
C4A C3A 1_555 1_555
C5A C6A 1_555 1_555
C12A C11A 1_555 1_555
N4 C9 1_555 1_555
C6 C7 1_555 1_555
C7 C8 1_555 1_555
C14 C15 1_555 1_555
C15 C16 1_555 1_555
N2A C16A 1_555 1_555
N3A C1A 1_555 1_555
C9A N4A 1_555 1_555
C15A C10A 1_555 1_555
C2A C7A 1_555 1_555
C13A C12A 1_555 1_555
C4A C5A 1_555 1_555

#END
