
#######################################################################
#
#                 Cambridge Crystallographic Data Centre
#                                CCDC 
#
#######################################################################
#
# If this CIF has been generated from an entry in the Cambridge 
# Structural Database, then it will include bibliographic, chemical, 
# crystal, experimental, refinement or atomic coordinate data resulting 
# from the CCDC's data processing and validation procedures.
#
#######################################################################

data_BAMWES
_symmetry_cell_setting           monoclinic
_symmetry_space_group_name_H-M   'P 21/n'
_symmetry_Int_Tables_number      14
_space_group_name_Hall           '-P 2yn'
loop_
_symmetry_equiv_pos_site_id
_symmetry_equiv_pos_as_xyz
1 x,y,z
2 1/2+x,1/2-y,1/2+z
3 -x,-y,-z
4 1/2-x,1/2+y,1/2-z
_cell_length_a                   6.7055(14)
_cell_length_b                   14.783(3)
_cell_length_c                   7.9166(15)
_cell_angle_alpha                90
_cell_angle_beta                 100.724(3)
_cell_angle_gamma                90
_cell_volume                     771.046
loop_
_atom_site_label
_atom_site_type_symbol
_atom_site_fract_x
_atom_site_fract_y
_atom_site_fract_z
Mn1 Mn 0.22533(5) 0.77848(2) 0.61339(4)
C1 C 0.3107(3) 1.16225(14) 0.2102(3)
C2 C 0.2713(3) 1.07424(14) 0.2951(3)
C3 C 0.2720(4) 0.99246(15) 0.2106(3)
H1 H 0.292(4) 0.9969(19) 0.099(3)
C4 C 0.2537(4) 0.91282(16) 0.2983(3)
H2 H 0.248(4) 0.854(2) 0.244(4)
C5 C 0.2369(3) 0.99039(15) 0.5465(3)
H3 H 0.221(3) 0.9892(16) 0.654(3)
C6 C 0.2476(3) 1.07288(13) 0.4676(2)
C7 C 0.2160(3) 1.15893(14) 0.5597(3)
N1 N 0.2396(3) 0.91042(12) 0.4659(2)
O1 O 0.4542(2) 1.20976(10) 0.2832(2)
O2 O 0.1963(2) 1.18129(12) 0.06846(19)
O3 O 0.1058(2) 1.21891(10) 0.47241(19)
O4 O 0.2979(2) 1.16536(11) 0.71527(19)
O5 O 0.1956(3) 0.86147(12) 0.8545(2)
H4 H 0.067(5) 0.857(2) 0.881(5)
H5 H 0.279(4) 0.826(2) 0.932(4)
O1B O 0.5458(2) 0.79024(10) 0.7168(2)
O2C O 0.3037(2) 0.68129(12) 0.43154(19)
O3B O -0.1058(2) 0.78109(10) 0.52759(19)
O4C O 0.2021(2) 0.66536(11) 0.78473(19)
Mn1B Mn 0.77467(5) 1.22152(2) 0.38661(4)
Mn1C Mn 0.27467(5) 1.27848(2) -0.11339(4)
Mn1B_2 Mn -0.22533(5) 1.22152(2) 0.38661(4)
Mn1C_2 Mn 0.27467(5) 1.27848(2) 0.88661(4)
loop_
_geom_bond_atom_site_label_1
_geom_bond_atom_site_label_2
_geom_bond_site_symmetry_1
_geom_bond_site_symmetry_2
Mn1 N1 1_555 1_555
C1 C2 1_555 1_555
C2 C3 1_555 1_555
C3 H1 1_555 1_555
C4 C3 1_555 1_555
H2 C4 1_555 1_555
C5 H3 1_555 1_555
C6 C2 1_555 1_555
C7 C6 1_555 1_555
N1 C4 1_555 1_555
O1 C1 1_555 1_555
O2 C1 1_555 1_555
O3 C7 1_555 1_555
O4 C7 1_555 1_555
O5 Mn1 1_555 1_555
H4 O5 1_555 1_555
H5 O5 1_555 1_555
O1B Mn1 1_555 1_555
O2C Mn1 1_555 1_555
O3B Mn1 1_555 1_555
O4C Mn1 1_555 1_555
Mn1B O1 1_555 1_555
Mn1C O2 1_555 1_555
Mn1B_2 O3 1_555 1_555
Mn1C_2 O4 1_555 1_555
C5 N1 1_555 1_555
C5 C6 1_555 1_555

#END
