
#######################################################################
#
#                 Cambridge Crystallographic Data Centre
#                                CCDC 
#
#######################################################################
#
# If this CIF has been generated from an entry in the Cambridge 
# Structural Database, then it will include bibliographic, chemical, 
# crystal, experimental, refinement or atomic coordinate data resulting 
# from the CCDC's data processing and validation procedures.
#
#######################################################################

data_BANGED
_symmetry_cell_setting           triclinic
_symmetry_space_group_name_H-M   'P -1'
_symmetry_Int_Tables_number      2
_space_group_name_Hall           '-P 1'
loop_
_symmetry_equiv_pos_site_id
_symmetry_equiv_pos_as_xyz
1 x,y,z
2 -x,-y,-z
_cell_length_a                   9.823(4)
_cell_length_b                   11.587(4)
_cell_length_c                   20.385(7)
_cell_angle_alpha                95.10(2)
_cell_angle_beta                 92.423(19)
_cell_angle_gamma                98.90(2)
_cell_volume                     2279.49
loop_
_atom_site_label
_atom_site_type_symbol
_atom_site_fract_x
_atom_site_fract_y
_atom_site_fract_z
Co1 Co 0.25145(7) 0.98731(6) 0.75326(3)
O1 O 0.3953(4) 1.1391(3) 0.78401(18)
O2 O 0.1027(4) 0.8379(3) 0.71986(17)
O3 O 0.3744(4) 0.8817(3) 0.79591(18)
O4 O 0.1341(4) 1.0922(3) 0.70675(18)
O5 O 0.3652(3) 0.9805(3) 0.66558(17)
O6 O 0.3577(4) 1.1595(3) 0.63577(18)
O7 O 0.5906(4) 1.3192(3) 0.54003(19)
O8 O 0.6851(4) 1.2293(3) 0.61776(18)
O9 O 0.1393(3) 1.0058(3) 0.83707(17)
O10 O 0.1144(4) 0.8217(3) 0.8627(2)
O11 O -0.1745(4) 0.7516(3) 0.88782(19)
O12 O -0.1023(4) 0.6827(3) 0.9786(2)
C1 C 0.3903(5) 1.0610(4) 0.6266(2)
C2 C 0.4551(5) 1.0293(4) 0.5629(2)
C3 C 0.4115(5) 0.9170(4) 0.5295(2)
H1 H 0.3511 0.8602 0.5497
C4 C 0.5435(5) 1.1109(4) 0.5325(2)
C5 C 0.6089(5) 1.2296(4) 0.5666(2)
C6 C 0.1038(5) 0.9238(4) 0.8745(2)
C7 C 0.0428(5) 0.9618(4) 0.9384(2)
C8 C 0.0895(5) 1.0757(4) 0.9676(2)
H2 H 0.1510 1.1280 0.9450
C9 C -0.0476(5) 0.8863(4) 0.9709(2)
C10 C -0.1114(5) 0.7642(4) 0.9422(2)
H19 H 0.4233 1.1677 0.8264
H20 H 0.4773 1.1440 0.7640
H21 H 0.0963 0.7680 0.7384
H22 H 0.0827 0.8114 0.6762
H23 H 0.3483 0.8275 0.8248
H24 H 0.4641 0.9085 0.8103
H25 H 0.1734 1.1277 0.6726
H26 H 0.0467 1.0642 0.6899
C4A C 0.4565(5) 0.8891(4) 0.4675(2)
C2A C 0.5449(5) 0.9707(4) 0.4371(2)
C1A C 0.6097(5) 0.9390(4) 0.3734(2)
O5A O 0.6348(3) 1.0195(3) 0.33442(17)
O6A O 0.6423(4) 0.8405(3) 0.36423(18)
C3A C 0.5885(5) 1.0830(4) 0.4705(2)
H1A H 0.6489 1.1398 0.4503
C5A C 0.3911(5) 0.7704(4) 0.4334(2)
O7A O 0.4094(4) 0.6808(3) 0.45997(19)
O8A O 0.3149(4) 0.7707(3) 0.38224(18)
C9A C 0.0476(5) 1.1137(4) 1.0291(2)
C7A C -0.0428(5) 1.0382(4) 1.0616(2)
C6A C -0.1038(5) 1.0762(4) 1.1255(2)
O9A O -0.1393(3) 0.9942(3) 1.16293(17)
O10A O -0.1144(4) 1.1783(3) 1.1373(2)
C8A C -0.0895(5) 0.9243(4) 1.0324(2)
H2A H -0.1510 0.8720 1.0550
C10A C 0.1114(5) 1.2358(4) 1.0578(2)
O11A O 0.1745(4) 1.2484(3) 1.11218(19)
O12A O 0.1023(4) 1.3173(3) 1.0214(2)
Co1A Co 0.74855(7) 1.01269(6) 0.24674(3)
O1A O 0.6047(4) 0.8609(3) 0.21599(18)
H19A H 0.5767 0.8323 0.1736
H20A H 0.5227 0.8560 0.2360
O2A O 0.8973(4) 1.1621(3) 0.28014(17)
H21A H 0.9037 1.2320 0.2616
H22A H 0.9173 1.1886 0.3238
O3A O 0.6256(4) 1.1183(3) 0.20409(18)
H23A H 0.6517 1.1725 0.1752
H24A H 0.5359 1.0915 0.1897
O4A O 0.8659(4) 0.9078(3) 0.29325(18)
H25A H 0.8266 0.8723 0.3274
H26A H 0.9533 0.9358 0.3101
Co1A_2 Co -0.25145(7) 1.01269(6) 1.24674(3)
O9A_2 O 0.8607(3) 0.9942(3) 0.16293(17)
Co2 Co -0.5000 0.5000 1.0000
Co3 Co -0.75569(6) 1.00524(5) 1.24801(3)
Co4 Co -1.0000 1.5000 1.5000
O13 O -0.6925(4) 0.5026(3) 1.03511(19)
O14 O -0.5826(4) 0.4574(3) 0.90173(18)
O15 O -0.4909(4) 0.6840(3) 0.99099(17)
O16 O -0.4983(4) 0.7480(3) 1.09712(17)
O17 O -0.6396(3) 1.0071(3) 1.16272(17)
O18 O -0.7593(4) 0.8539(3) 1.10004(18)
O19 O -0.8415(4) 1.1513(3) 1.22726(17)
O20 O -0.6689(4) 0.8564(3) 1.26798(17)
O21 O -0.5938(4) 1.1123(3) 1.30113(18)
O22 O -0.9210(4) 0.8895(3) 1.19535(17)
O23 O -0.8719(3) 1.0044(3) 1.33391(17)
O24 O -0.7525(4) 1.1546(3) 1.39834(19)
O25 O -1.0102(4) 1.3155(3) 1.50910(16)
O26 O -1.0294(4) 1.2471(3) 1.40350(18)
O27 O -1.2096(4) 1.4884(3) 1.5048(2)
O28 O -1.0306(4) 1.4715(3) 1.39746(17)
C11 C -0.4998(5) 0.7624(4) 1.0372(2)
C12 C -0.5073(5) 0.8841(4) 1.0180(2)
C13 C -0.4382(5) 0.9207(4) 0.9624(2)
H3 H -0.3964 0.8655 0.9361
C14 C -0.5709(5) 0.9661(4) 1.0552(2)
C15 C -0.6623(5) 0.9384(4) 1.1108(2)
C16 C -0.8477(5) 1.0694(4) 1.3878(2)
C17 C -0.9353(5) 1.0352(4) 1.4437(2)
C18 C -0.9343(5) 0.9234(4) 1.4619(2)
H4 H -0.8879 0.8711 1.4361
C19 C -0.9999(5) 1.1151(4) 1.4823(2)
C20 C -1.0137(5) 1.2349(4) 1.4630(2)
H27 H -0.7300 0.5695 1.0329
H28 H -0.7624 0.4534 1.0512
H29 H -0.6820 0.4640 0.8943
H30 H -0.5516 0.4039 0.8914
H31 H -0.8423 1.1417 1.1838
H32 H -0.9029 1.1577 1.2511
H33 H -0.6582 0.8593 1.3149
H34 H -0.6831 0.7946 1.2352
H35 H -0.5097 1.1083 1.3131
H36 H -0.6126 1.1364 1.3362
H37 H -0.8741 0.8615 1.1573
H38 H -1.0077 0.9123 1.1807
H39 H -1.2576 1.4385 1.5256
H40 H -1.2392 1.5603 1.4982
H41 H -1.0166 1.3989 1.3832
H42 H -0.9739 1.4938 1.3718
C14A C -0.4291(5) 1.0339(4) 0.9448(2)
C12A C -0.4927(5) 1.1159(4) 0.9820(2)
C11A C -0.5002(5) 1.2376(4) 0.9628(2)
O15A O -0.5091(4) 1.3160(3) 1.00901(17)
O16A O -0.5017(4) 1.2520(3) 0.90288(17)
C13A C -0.5618(5) 1.0793(4) 1.0376(2)
H3A H -0.6036 1.1345 1.0639
C15A C -0.3377(5) 1.0616(4) 0.8892(2)
O17A O -0.3604(3) 0.9929(3) 0.83728(17)
O18A O -0.2407(4) 1.1461(3) 0.89996(18)
C19A C -1.0001(5) 0.8849(4) 1.5177(2)
C17A C -1.0647(5) 0.9648(4) 1.5563(2)
C16A C -1.1523(5) 0.9306(4) 1.6122(2)
O23A O -1.1281(3) 0.9956(3) 1.66609(17)
O24A O -1.2475(4) 0.8454(3) 1.60166(19)
C18A C -1.0657(5) 1.0766(4) 1.5381(2)
H4A H -1.1121 1.1289 1.5639
C20A C -0.9863(5) 0.7651(4) 1.5370(2)
O25A O -0.9898(4) 0.6845(3) 1.49090(16)
O26A O -0.9706(4) 0.7529(3) 1.59650(18)
O13A O -0.3075(4) 0.4974(3) 0.96489(19)
H27A H -0.2700 0.4305 0.9671
H28A H -0.2376 0.5466 0.9488
O14A O -0.4174(4) 0.5426(3) 1.09827(18)
H29A H -0.3180 0.5360 1.1057
H30A H -0.4484 0.5961 1.1086
Co3A Co -0.24431(6) 0.99476(5) 0.75199(3)
O19A O -0.1585(4) 0.8487(3) 0.77274(17)
H31A H -0.1577 0.8583 0.8162
H32A H -0.0971 0.8423 0.7489
O20A O -0.3311(4) 1.1436(3) 0.73202(17)
H33A H -0.3418 1.1407 0.6851
H34A H -0.3169 1.2054 0.7648
O21A O -0.4062(4) 0.8877(3) 0.69887(18)
H35A H -0.4903 0.8917 0.6869
H36A H -0.3874 0.8636 0.6638
O22A O -0.0790(4) 1.1105(3) 0.80465(17)
H37A H -0.1259 1.1385 0.8427
H38A H 0.0077 1.0877 0.8193
O27A O -0.7904(4) 1.5116(3) 1.4952(2)
H39A H -0.7424 1.5615 1.4744
H40A H -0.7608 1.4397 1.5018
O28A O -0.9694(4) 1.5285(3) 1.60254(17)
H41A H -0.9834 1.6011 1.6168
H42A H -1.0261 1.5062 1.6282
O15A_2 O -0.5091(4) 0.3160(3) 1.00901(17)
O25A_2 O -0.9898(4) 1.6845(3) 1.49090(16)
Co2_2 Co -0.5000 1.5000 1.0000
Co3A_2 Co -1.24431(6) 0.99476(5) 1.75199(3)
Co4_2 Co -1.0000 0.5000 1.5000
O23A_2 O -0.1281(3) 0.9956(3) 0.66609(17)
N1 N 0.3884(4) 1.4887(4) 0.2900(2)
N2 N 0.7121(5) 1.4835(4) 0.3146(2)
C21 C 0.5062(6) 1.5866(5) 0.2985(3)
H5 H 0.5246 1.6127 0.3461
H6 H 0.4816 1.6536 0.2762
C22 C 0.5141(6) 1.3926(6) 0.3773(3)
H7 H 0.5427 1.4660 0.4066
H8 H 0.4974 1.3275 0.4057
C23 C 0.6348(6) 1.5511(5) 0.2707(3)
H9 H 0.6090 1.5028 0.2282
H10 H 0.6971 1.6228 0.2615
C24 C 0.6322(6) 1.3727(5) 0.3347(3)
H11 H 0.6958 1.3312 0.3592
H12 H 0.5951 1.3212 0.2946
C25 C 0.3791(6) 1.4011(5) 0.3404(3)
H13 H 0.3411 1.3228 0.3179
H14 H 0.3126 1.4217 0.3730
H15 H 0.3901 1.4297 0.2473
H16 H 0.2886 1.5155 0.2885
H17 H 0.7905 1.4532 0.2868
H18 H 0.7573 1.5389 0.3567
O29 O 0.1531(4) 1.3024(3) 0.62168(18)
H43 H 0.0852 1.2948 0.5847
H44 H 0.2265 1.2644 0.6031
O30 O -0.3192(4) 0.6825(3) 0.49592(19)
H45 H -0.4139 0.6915 0.4849
H46 H -0.2847 0.7412 0.5322
O31 O 0.1862(4) 0.6821(3) -0.0011(2)
H47 H 0.1955 0.7451 0.0351
H48 H 0.0964 0.6989 -0.0166
O32 O -0.2980(4) 1.3450(3) 0.81343(19)
H49 H -0.3379 1.3050 0.8462
H50 H -0.2176 1.3976 0.8201
O33 O 0.1261(5) 0.3971(4) -0.1115(2)
H51 H 0.0971 0.3549 -0.0768
H52 H 0.0909 0.3428 -0.1457
O34 O -0.0277(4) 0.6866(3) 0.2502(2)
H53 H 0.0164 0.7452 0.2280
H54 H -0.0883 0.6983 0.2819
O35 O 0.3201(4) 0.6936(4) 0.8732(2)
H55 H 0.3880 0.6621 0.8955
H56 H 0.2849 0.7077 0.9128
O36 O 0.4111(4) 1.3789(4) 0.1659(2)
H57 H 0.4710 1.4291 0.1411
H58 H 0.3468 1.3466 0.1522
O37 O 0.1565(4) 0.5843(3) 0.32177(18)
H59 H 0.1122 0.6354 0.2855
H60 H 0.1811 0.6208 0.3591
O38 O 0.0791(5) 0.4732(4) 0.1572(2)
H61 H 0.0586 0.5039 0.1962
H62 H 0.0816 0.5170 0.1420
O39 O -0.1282(4) 0.3771(3) 0.2320(2)
H63 H -0.0567 0.4153 0.2202
H64 H -0.1916 0.3425 0.1987
loop_
_geom_bond_atom_site_label_1
_geom_bond_atom_site_label_2
_geom_bond_site_symmetry_1
_geom_bond_site_symmetry_2
Co1 O1 1_555 1_555
O1 H19 1_555 1_555
O2 Co1 1_555 1_555
O3 Co1 1_555 1_555
O4 Co1 1_555 1_555
O5 Co1 1_555 1_555
O6 C1 1_555 1_555
O7 C5 1_555 1_555
O8 C5 1_555 1_555
O9 Co1 1_555 1_555
O10 C6 1_555 1_555
O11 C10 1_555 1_555
O12 C10 1_555 1_555
C1 O5 1_555 1_555
C2 C1 1_555 1_555
C3 C2 1_555 1_555
H1 C3 1_555 1_555
C4 C2 1_555 1_555
C5 C4 1_555 1_555
C6 O9 1_555 1_555
C7 C6 1_555 1_555
C8 C7 1_555 1_555
H2 C8 1_555 1_555
C9 C7 1_555 1_555
C10 C9 1_555 1_555
Co2 O13 1_555 1_555
Co3 O17 1_555 1_555
Co4 O25 1_555 1_555
O13 H27 1_555 1_555
O14 Co2 1_555 1_555
O15 Co2 1_555 1_555
O16 C11 1_555 1_555
O17 C15 1_555 1_555
O18 C15 1_555 1_555
O19 Co3 1_555 1_555
O20 Co3 1_555 1_555
O21 Co3 1_555 1_555
O22 Co3 1_555 1_555
O23 Co3 1_555 1_555
O24 C16 1_555 1_555
O25 C20 1_555 1_555
O26 C20 1_555 1_555
O27 Co4 1_555 1_555
O28 Co4 1_555 1_555
C11 O15 1_555 1_555
C12 C11 1_555 1_555
C13 C12 1_555 1_555
H3 C13 1_555 1_555
C14 C12 1_555 1_555
C15 C14 1_555 1_555
C16 O23 1_555 1_555
C17 C16 1_555 1_555
C18 C17 1_555 1_555
H4 C18 1_555 1_555
C19 C17 1_555 1_555
C20 C19 1_555 1_555
N1 C21 1_555 1_555
N2 C23 1_555 1_555
C21 H5 1_555 1_555
H6 C21 1_555 1_555
C22 H7 1_555 1_555
H8 C22 1_555 1_555
C23 C21 1_555 1_555
H9 C23 1_555 1_555
H10 C23 1_555 1_555
C24 N2 1_555 1_555
H11 C24 1_555 1_555
H12 C24 1_555 1_555
C25 N1 1_555 1_555
H13 C25 1_555 1_555
H14 C25 1_555 1_555
O29 H43 1_555 1_555
O30 H45 1_555 1_555
O31 H47 1_555 1_555
O32 H49 1_555 1_555
O33 H51 1_555 1_555
O34 H53 1_555 1_555
O35 H55 1_555 1_555
O36 H57 1_555 1_555
O37 H59 1_555 1_555
O38 H61 1_555 1_555
O39 H63 1_555 1_555
H15 N1 1_555 1_555
H16 N1 1_555 1_555
H17 N2 1_555 1_555
H18 N2 1_555 1_555
H20 O1 1_555 1_555
H21 O2 1_555 1_555
H22 O2 1_555 1_555
H23 O3 1_555 1_555
H24 O3 1_555 1_555
H25 O4 1_555 1_555
H26 O4 1_555 1_555
H28 O13 1_555 1_555
H29 O14 1_555 1_555
H30 O14 1_555 1_555
H31 O19 1_555 1_555
H32 O19 1_555 1_555
H33 O20 1_555 1_555
H34 O20 1_555 1_555
H35 O21 1_555 1_555
H36 O21 1_555 1_555
H37 O22 1_555 1_555
H38 O22 1_555 1_555
H39 O27 1_555 1_555
H40 O27 1_555 1_555
H41 O28 1_555 1_555
H42 O28 1_555 1_555
H44 O29 1_555 1_555
H46 O30 1_555 1_555
H48 O31 1_555 1_555
H50 O32 1_555 1_555
H52 O33 1_555 1_555
H54 O34 1_555 1_555
H56 O35 1_555 1_555
H58 O36 1_555 1_555
H60 O37 1_555 1_555
H62 O38 1_555 1_555
H64 O39 1_555 1_555
C4A C3 1_555 1_555
C2A C4A 1_555 1_555
C1A C2A 1_555 1_555
O5A C1A 1_555 1_555
O6A C1A 1_555 1_555
C3A C4 1_555 1_555
H1A C3A 1_555 1_555
C5A C4A 1_555 1_555
O7A C5A 1_555 1_555
O8A C5A 1_555 1_555
C9A C8 1_555 1_555
C7A C9A 1_555 1_555
C6A C7A 1_555 1_555
O9A C6A 1_555 1_555
O10A C6A 1_555 1_555
C8A C9 1_555 1_555
H2A C8A 1_555 1_555
C10A C9A 1_555 1_555
O11A C10A 1_555 1_555
O12A C10A 1_555 1_555
C14A C13 1_555 1_555
C12A C14A 1_555 1_555
C11A C12A 1_555 1_555
O15A C11A 1_555 1_555
O16A C11A 1_555 1_555
C13A C14 1_555 1_555
H3A C13A 1_555 1_555
C15A C14A 1_555 1_555
O17A C15A 1_555 1_555
O18A C15A 1_555 1_555
C19A C18 1_555 1_555
C17A C19A 1_555 1_555
C16A C17A 1_555 1_555
O23A C16A 1_555 1_555
O24A C16A 1_555 1_555
C18A C19 1_555 1_555
H4A C18A 1_555 1_555
C20A C19A 1_555 1_555
O25A C20A 1_555 1_555
O26A C20A 1_555 1_555
O13A Co2 1_555 1_555
H27A O13A 1_555 1_555
H28A O13A 1_555 1_555
O14A Co2 1_555 1_555
H29A O14A 1_555 1_555
H30A O14A 1_555 1_555
Co3A O17A 1_555 1_555
O19A Co3A 1_555 1_555
H31A O19A 1_555 1_555
H32A O19A 1_555 1_555
O20A Co3A 1_555 1_555
H33A O20A 1_555 1_555
H34A O20A 1_555 1_555
O21A Co3A 1_555 1_555
H35A O21A 1_555 1_555
H36A O21A 1_555 1_555
O22A Co3A 1_555 1_555
H37A O22A 1_555 1_555
H38A O22A 1_555 1_555
O27A Co4 1_555 1_555
H39A O27A 1_555 1_555
H40A O27A 1_555 1_555
O28A Co4 1_555 1_555
H41A O28A 1_555 1_555
H42A O28A 1_555 1_555
Co1A O5A 1_555 1_555
O1A Co1A 1_555 1_555
H19A O1A 1_555 1_555
H20A O1A 1_555 1_555
O2A Co1A 1_555 1_555
H21A O2A 1_555 1_555
H22A O2A 1_555 1_555
O3A Co1A 1_555 1_555
H23A O3A 1_555 1_555
H24A O3A 1_555 1_555
O4A Co1A 1_555 1_555
H25A O4A 1_555 1_555
H26A O4A 1_555 1_555
O15A_2 Co2 1_555 1_555
O25A_2 Co4 1_555 1_555
Co1A_2 O9A 1_555 1_555
Co2_2 O15A 1_555 1_555
Co3A_2 O23A 1_555 1_555
Co4_2 O25A 1_555 1_555
O23A_2 Co3A 1_555 1_555
O9A_2 Co1A 1_555 1_555
C22 C24 1_555 1_555
C22 C25 1_555 1_555
C2A C3A 1_555 1_555
C7A C8A 1_555 1_555
C12A C13A 1_555 1_555
C17A C18A 1_555 1_555

#END
