
#######################################################################
#
#                 Cambridge Crystallographic Data Centre
#                                CCDC 
#
#######################################################################
#
# If this CIF has been generated from an entry in the Cambridge 
# Structural Database, then it will include bibliographic, chemical, 
# crystal, experimental, refinement or atomic coordinate data resulting 
# from the CCDC's data processing and validation procedures.
#
#######################################################################

data_BANGIH
_symmetry_cell_setting           triclinic
_symmetry_space_group_name_H-M   'P -1'
_symmetry_Int_Tables_number      2
_space_group_name_Hall           '-P 1'
loop_
_symmetry_equiv_pos_site_id
_symmetry_equiv_pos_as_xyz
1 x,y,z
2 -x,-y,-z
_cell_length_a                   9.7755(17)
_cell_length_b                   11.208(3)
_cell_length_c                   11.224(2)
_cell_angle_alpha                60.304(12)
_cell_angle_beta                 73.687(12)
_cell_angle_gamma                84.311(14)
_cell_volume                     1024.05
loop_
_atom_site_label
_atom_site_type_symbol
_atom_site_fract_x
_atom_site_fract_y
_atom_site_fract_z
Co1 Co 0.5000 0.5000 0.0000
Co2 Co 0.5000 0.5000 -0.5000
O1 O 0.3755(2) 0.57991(18) -0.14968(19)
O2 O 0.3123(2) 0.47278(19) 0.15955(19)
O3 O 0.47311(19) 0.30919(17) 0.02397(18)
O4 O 0.6297(2) 0.18498(19) 0.14516(19)
O5 O 0.67249(19) 0.34092(18) -0.24925(18)
O6 O 0.46441(19) 0.33547(18) -0.29414(18)
O7 O 0.2711(2) 0.4999(2) -0.43945(19)
O8 O 0.5064(2) 0.64319(18) -0.43088(18)
O9 O 0.7209(2) 0.74450(19) -0.5666(2)
O10 O 0.7852(2) 0.7839(2) -0.3527(2)
O11 O 0.8503(2) 1.0026(2) -0.4495(2)
C1 C 0.5464(3) 0.2055(3) 0.0702(2)
C2 C 0.5287(3) 0.0987(3) 0.0327(2)
C3 C 0.5060(3) -0.0389(3) 0.1351(2)
H1 H 0.5108 -0.0660 0.2285
C4 C 0.5233(3) 0.1373(3) -0.1057(2)
C5 C 0.5568(3) 0.2837(2) -0.2242(2)
C6 C 0.5984(3) 0.7435(3) -0.4934(3)
C7 C 0.5481(3) 0.8716(3) -0.4865(3)
C8 C 0.4186(3) 0.9188(3) -0.5152(3)
H2 H 0.3607 0.8621 -0.5242
C9 C 0.6311(3) 0.9542(3) -0.4684(3)
C10 C 0.7652(3) 0.9094(3) -0.4205(3)
H13 H 0.423(5) 0.582(4) -0.224(2)
H14 H 0.359(4) 0.6596(15) -0.166(3)
H15 H 0.304(4) 0.5209(17) 0.197(2)
H16 H 0.298(4) 0.3933(18) 0.226(3)
H17 H 0.261(4) 0.4299(17) -0.443(3)
H18 H 0.224(2) 0.561(3) -0.484(3)
C4A C 0.4767(3) -0.1373(3) 0.1057(2)
C2A C 0.4713(3) -0.0987(3) -0.0327(2)
C1A C 0.4536(3) -0.2055(3) -0.0702(2)
O3A O 0.52689(19) -0.30919(17) -0.02397(18)
O4A O 0.3703(2) -0.18498(19) -0.14516(19)
C3A C 0.4940(3) 0.0389(3) -0.1351(2)
H1A H 0.4892 0.0660 -0.2285
C5A C 0.4432(3) -0.2837(2) 0.2242(2)
O5A O 0.32751(19) -0.34092(18) 0.24925(18)
O6A O 0.53559(19) -0.33547(18) 0.29414(18)
C9A C 0.3689(3) 1.0458(3) -0.5316(3)
C7A C 0.4519(3) 1.1284(3) -0.5135(3)
C6A C 0.4016(3) 1.2565(3) -0.5066(3)
O8A O 0.4936(2) 1.35681(18) -0.56912(18)
O9A O 0.2791(2) 1.25550(19) -0.4334(2)
C8A C 0.5814(3) 1.0812(3) -0.4848(3)
H2A H 0.6393 1.1379 -0.4758
C10A C 0.2348(3) 1.0906(3) -0.5795(3)
O10A O 0.2148(2) 1.2161(2) -0.6473(2)
O11A O 0.1497(2) 0.9974(2) -0.5505(2)
O1A O 0.6245(2) 0.42009(18) 0.14968(19)
H13A H 0.577(5) 0.418(4) 0.224(2)
H14A H 0.641(4) 0.3404(15) 0.166(3)
O2A O 0.6877(2) 0.52722(19) -0.15955(19)
H15A H 0.696(4) 0.4791(17) -0.197(2)
H16A H 0.702(4) 0.6067(18) -0.226(3)
O7A O 0.7289(2) 0.5001(2) -0.56055(19)
H17A H 0.739(4) 0.5701(17) -0.557(3)
H18A H 0.776(2) 0.439(3) -0.516(3)
O3A_2 O 0.52689(19) 0.69081(17) -0.02397(18)
O6A_2 O 0.53559(19) 0.66453(18) -0.70586(18)
O8A_2 O 0.4936(2) 0.35681(18) -0.56912(18)
Co1_2 Co 0.5000 -0.5000 0.0000
Co2_2 Co 0.5000 -0.5000 0.5000
Co2_3 Co 0.5000 1.5000 -0.5000
O12 O 1.0580(3) -0.2518(2) 0.4924(3)
H19 H 1.087(4) -0.180(2) 0.481(4)
H20 H 0.978(2) -0.262(4) 0.545(3)
N1 N 0.9667(2) -0.1318(2) 0.7807(2)
N2 N 0.8431(2) -0.2592(3) 1.1304(2)
C11 C 0.8319(3) -0.1161(3) 0.8735(3)
H3 H 0.7623 -0.1912 0.9050
H4 H 0.7910 -0.0279 0.8175
C12 C 0.8541(3) -0.1191(3) 1.0025(3)
H5 H 0.9497 -0.0766 0.9760
H6 H 0.7826 -0.0615 1.0293
C13 C 0.8971(3) -0.3740(3) 1.1020(3)
H7 H 0.8236 -0.4034 1.0753
H8 H 0.9126 -0.4531 1.1904
C14 C 1.0357(3) -0.3352(3) 0.9840(3)
H9 H 1.0913 -0.4187 1.0036
H10 H 1.0924 -0.2687 0.9869
C15 C 1.0176(3) -0.2727(3) 0.8339(3)
H11 H 1.1103 -0.2713 0.7683
H12 H 0.9488 -0.3317 0.8338
H25 H 0.954(3) -0.102(3) 0.6937(19)
H26 H 1.032(2) -0.074(2) 0.771(3)
H27 H 0.891(3) -0.250(4) 1.184(3)
H28 H 0.752(2) -0.278(4) 1.185(3)
O13 O 0.0572(2) -0.2311(3) 0.2337(2)
H21 H 0.1354(18) -0.264(3) 0.218(4)
H22 H 0.042(5) -0.239(3) 0.3136(18)
O14 O 0.8257(2) -0.0068(2) 0.2164(2)
H23 H 0.800(4) -0.083(2) 0.285(3)
H24 H 0.7539(19) 0.038(3) 0.204(3)
loop_
_geom_bond_atom_site_label_1
_geom_bond_atom_site_label_2
_geom_bond_site_symmetry_1
_geom_bond_site_symmetry_2
Co1 O1 1_555 1_555
Co2 O6 1_555 1_555
O1 H13 1_555 1_555
O2 Co1 1_555 1_555
O3 Co1 1_555 1_555
O4 C1 1_555 1_555
O5 C5 1_555 1_555
O6 C5 1_555 1_555
O7 Co2 1_555 1_555
O8 Co2 1_555 1_555
O9 C6 1_555 1_555
O10 C10 1_555 1_555
O11 C10 1_555 1_555
O12 H19 1_555 1_555
N1 C11 1_555 1_555
N2 C12 1_555 1_555
C1 O3 1_555 1_555
C2 C1 1_555 1_555
C3 C2 1_555 1_555
H1 C3 1_555 1_555
C4 C2 1_555 1_555
C5 C4 1_555 1_555
C6 O8 1_555 1_555
C7 C6 1_555 1_555
C8 C7 1_555 1_555
H2 C8 1_555 1_555
C9 C7 1_555 1_555
C10 C9 1_555 1_555
C11 H3 1_555 1_555
H4 C11 1_555 1_555
C12 C11 1_555 1_555
H5 C12 1_555 1_555
H6 C12 1_555 1_555
C13 N2 1_555 1_555
H7 C13 1_555 1_555
H8 C13 1_555 1_555
C14 C13 1_555 1_555
H9 C14 1_555 1_555
H10 C14 1_555 1_555
C15 N1 1_555 1_555
H11 C15 1_555 1_555
H12 C15 1_555 1_555
O13 H21 1_555 1_555
O14 H23 1_555 1_555
H14 O1 1_555 1_555
H15 O2 1_555 1_555
H16 O2 1_555 1_555
H17 O7 1_555 1_555
H18 O7 1_555 1_555
H20 O12 1_555 1_555
H22 O13 1_555 1_555
H24 O14 1_555 1_555
H25 N1 1_555 1_555
H26 N1 1_555 1_555
H27 N2 1_555 1_555
H28 N2 1_555 1_555
C4A C3 1_555 1_555
C2A C4A 1_555 1_555
C1A C2A 1_555 1_555
O3A C1A 1_555 1_555
O4A C1A 1_555 1_555
C3A C4 1_555 1_555
H1A C3A 1_555 1_555
C5A C4A 1_555 1_555
O5A C5A 1_555 1_555
O6A C5A 1_555 1_555
C9A C8 1_555 1_555
C7A C9A 1_555 1_555
C6A C7A 1_555 1_555
O8A C6A 1_555 1_555
O9A C6A 1_555 1_555
C8A C9 1_555 1_555
H2A C8A 1_555 1_555
C10A C9A 1_555 1_555
O10A C10A 1_555 1_555
O11A C10A 1_555 1_555
O1A Co1 1_555 1_555
H13A O1A 1_555 1_555
H14A O1A 1_555 1_555
O2A Co1 1_555 1_555
H15A O2A 1_555 1_555
H16A O2A 1_555 1_555
O7A Co2 1_555 1_555
H17A O7A 1_555 1_555
H18A O7A 1_555 1_555
O3A_2 Co1 1_555 1_555
O6A_2 Co2 1_555 1_555
O8A_2 Co2 1_555 1_555
Co1_2 O3A 1_555 1_555
Co2_2 O6A 1_555 1_555
Co2_3 O8A 1_555 1_555
C14 C15 1_555 1_555
C2A C3A 1_555 1_555
C7A C8A 1_555 1_555

#END
