
#######################################################################
#
#                 Cambridge Crystallographic Data Centre
#                                CCDC 
#
#######################################################################
#
# If this CIF has been generated from an entry in the Cambridge 
# Structural Database, then it will include bibliographic, chemical, 
# crystal, experimental, refinement or atomic coordinate data resulting 
# from the CCDC's data processing and validation procedures.
#
#######################################################################

data_BANHII
_symmetry_cell_setting           monoclinic
_symmetry_space_group_name_H-M   'P 21'
_symmetry_Int_Tables_number      4
_space_group_name_Hall           'P 2yb'
loop_
_symmetry_equiv_pos_site_id
_symmetry_equiv_pos_as_xyz
1 x,y,z
2 -x,1/2+y,-z
_cell_length_a                   13.165(3)
_cell_length_b                   20.119(9)
_cell_length_c                   15.446(6)
_cell_angle_alpha                90.00
_cell_angle_beta                 95.19(3)
_cell_angle_gamma                90.00
_cell_volume                     4074.36
loop_
_atom_site_label
_atom_site_type_symbol
_atom_site_fract_x
_atom_site_fract_y
_atom_site_fract_z
Cd1 Cd 0.08650(4) 0.09089(2) -0.00288(3)
Cd2 Cd 0.29039(4) 0.17885(2) -0.08976(3)
Cd3 Cd -0.35130(4) 0.22892(3) 0.50483(4)
Cd4 Cd -0.55598(4) 0.13634(3) 0.58988(4)
Cl1 Cl -0.15360(15) 0.18514(11) -0.03638(14)
Cl2 Cl -0.10018(17) 0.14961(13) 0.54152(16)
O1 O 0.2279(4) 0.0268(3) 0.0081(4)
O2 O 0.3592(4) 0.0823(3) -0.0372(4)
O3 O 0.1270(4) 0.1240(3) -0.1346(3)
O4 O 0.2501(4) 0.1050(3) -0.2181(4)
O5 O 0.3333(4) 0.2283(3) 0.0567(4)
O6 O 0.1777(4) 0.1886(3) 0.0206(3)
O7 O 0.4475(4) 0.2076(3) -0.1236(4)
O8 O -0.0481(5) 0.1698(4) -0.0010(5)
O9 O -0.2219(5) 0.1480(4) 0.0146(6)
O10 O -0.1695(6) 0.2552(4) -0.0279(6)
O11 O -0.1689(6) 0.1656(4) -0.1223(5)
O12 O -0.5968(4) 0.0903(4) 0.4424(4)
O13 O -0.4434(4) 0.1293(3) 0.4811(3)
O14 O -0.5177(5) 0.2130(4) -0.2883(4)
O15 O -0.3856(5) 0.1938(3) -0.3615(4)
O16 O -0.4960(4) 0.2916(3) 0.4987(4)
O17 O -0.6282(4) 0.2296(4) 0.5347(5)
O18 O -0.7169(4) 0.1039(3) 0.6154(4)
O19 O -0.2078(5) 0.1529(4) 0.5069(5)
O20 O -0.0905(8) 0.1713(5) 0.6283(6)
O21 O -0.0628(6) 0.0822(4) 0.5367(6)
O22 O -0.0405(5) 0.1919(4) 0.4892(5)
N1 N 0.9849(5) -0.0018(4) -0.0359(5)
N2 N 0.0674(5) 0.0761(3) 0.1445(4)
N3 N -0.3308(5) 0.2445(3) 0.3586(4)
N4 N 0.2218(7) 0.2744(4) -0.1563(5)
N5 N -1.2581(5) 0.3275(4) 0.5343(4)
C1 C 0.3154(5) 0.0297(4) -0.0144(5)
C2 C 0.3769(6) -0.0329(4) -0.0109(5)
C3 C 0.4787(6) -0.0332(4) -0.0264(5)
H1 H 0.5112 0.0068 -0.0413
C4 C 0.5348(6) -0.0942(5) -0.0197(6)
C5 C 0.4849(7) -0.1521(4) -0.0004(7)
H2 H 0.5215 -0.1929 0.0017
C6 C 0.3858(7) -0.1523(5) 0.0156(7)
H3 H 0.3537 -0.1924 0.0307
C7 C 0.3309(6) -0.0928(4) 0.0097(6)
H4 H 0.2608 -0.0931 0.0198
C8 C 0.6443(6) -0.0976(4) -0.0302(5)
H5 H 0.6719 -0.1411 -0.0331
C9 C 0.7086(6) -0.0490(4) -0.0359(6)
H6 H 0.6817 -0.0051 -0.0392
C10 C 0.8190(6) -0.0564(4) -0.0378(6)
C11 C 0.8819(6) -0.0003(5) -0.0367(6)
H7 H 0.8500 0.0421 -0.0364
C12 C 1.0319(7) -0.0612(4) -0.0343(7)
H8 H 1.1039 -0.0636 -0.0343
C13 C 0.9725(10) -0.1204(6) -0.0326(9)
H9 H 1.0048 -0.1626 -0.0300
C14 C 0.8705(7) -0.1158(5) -0.0346(8)
H10 H 0.8320 -0.1557 -0.0338
C15 C 0.1626(6) 0.0906(4) -0.1957(5)
C16 C 0.1026(6) 0.0345(4) -0.2343(5)
C17 C -0.0016(7) 0.0379(7) -0.2389(6)
H11 H -0.0322 0.0772 -0.2191
C18 C -0.0645(9) -0.0133(7) -0.2711(6)
C19 C -0.0182(11) -0.0680(7) -0.3001(8)
H12 H -0.0591 -0.1036 -0.3238
C20 C 0.0870(10) -0.0734(5) -0.2964(8)
H13 H 0.1167 -0.1131 -0.3161
C21 C 0.1490(9) -0.0226(5) -0.2647(7)
H14 H 0.2211 -0.0259 -0.2635
C22 C -0.1836(10) -0.0002(8) -0.2760(7)
H15 H -0.2065 0.0445 -0.2756
C23 C -0.2475(9) -0.0443(7) -0.2804(8)
H16 H -0.2277 -0.0898 -0.2798
C24 C -0.3531(5) -0.0259(5) -0.2865(6)
C25 C -0.3918(4) 0.0330(4) -0.3233(5)
H17 H -0.3466 0.0672 -0.3379
N6 N -0.4966(4) 0.0418(3) -0.3388(5)
C26 C -0.5627(4) -0.0083(4) -0.3174(6)
H18 H -0.6343 -0.0023 -0.3280
C27 C -0.5240(8) -0.0671(4) -0.2806(7)
H19 H -0.5692 -0.1013 -0.2660
C28 C -0.4192(8) -0.0759(4) -0.2651(6)
H20 H -0.3928 -0.1162 -0.2400
C29 C 0.2443(5) 0.2144(3) 0.0779(5)
C30 C 0.2138(6) 0.2317(4) 0.1646(5)
C31 C 0.1117(6) 0.2347(4) 0.1788(5)
H21 H 0.0614 0.2298 0.1312
C32 C 0.0815(7) 0.2449(4) 0.2620(5)
C33 C 0.1574(7) 0.2529(6) 0.3313(6)
H22 H 0.1380 0.2610 0.3882
C34 C 0.2611(7) 0.2492(6) 0.3180(7)
H23 H 0.3122 0.2539 0.3651
C35 C 0.2868(6) 0.2387(5) 0.2358(6)
H24 H 0.3569 0.2359 0.2263
C36 C -0.0255(6) 0.2492(4) 0.2805(5)
H25 H -0.0371 0.2533 0.3401
C37 C -0.1095(6) 0.2481(4) 0.2238(5)
H26 H -0.0994 0.2458 0.1637
C38 C -0.2141(6) 0.2501(4) 0.2464(5)
C39 C -0.2363(6) 0.2439(4) 0.3329(5)
H27 H -0.1808 0.2390 0.3762
C40 C -0.4090(7) 0.2546(5) 0.2977(6)
H28 H -0.4761 0.2579 0.3154
C41 C -0.3955(7) 0.2602(5) 0.2104(6)
H29 H -0.4523 0.2662 0.1687
C42 C -0.2970(6) 0.2568(5) 0.1848(6)
H30 H -0.2864 0.2592 0.1249
C43 C -0.5106(6) 0.1040(4) 0.4245(5)
C44 C -0.4784(5) 0.0937(4) 0.3339(5)
C45 C -0.3765(5) 0.0873(4) 0.3213(5)
H31 H -0.3268 0.0895 0.3698
C46 C -0.3447(6) 0.0775(4) 0.2368(5)
C47 C -0.4214(8) 0.0778(5) 0.1655(6)
H32 H -0.4021 0.0726 0.1081
C48 C -0.5212(6) 0.0852(5) 0.1780(6)
H33 H -0.5710 0.0860 0.1294
C49 C -0.5514(6) 0.0919(6) 0.2626(6)
H34 H -0.6217 0.0951 0.2712
C50 C -0.2369(6) 0.0736(4) 0.2193(6)
H35 H -0.2238 0.0691 0.1601
C51 C -0.1546(6) 0.0758(4) 0.2778(5)
H36 H -0.1658 0.0792 0.3376
C52 C -0.0495(5) 0.0731(4) 0.2556(5)
C53 C -0.0278(6) 0.0771(4) 0.1677(5)
H37 H -0.0829 0.0805 0.1237
C54 C 0.1460(6) 0.0721(4) 0.2050(5)
H38 H 0.2132 0.0702 0.1873
C55 C 0.1325(7) 0.0705(5) 0.2941(6)
H39 H 0.1893 0.0687 0.3366
C56 C 0.0329(7) 0.0718(5) 0.3178(6)
H40 H 0.0214 0.0717 0.3776
C57 C 0.5396(7) 0.1744(5) -0.0825(7)
H41 H 0.6003 0.1935 -0.1052
H42 H 0.5362 0.1267 -0.0957
H43 H 0.5435 0.1808 -0.0195
C58 C -0.4302(7) 0.2273(5) -0.3101(5)
C59 C -0.3806(8) 0.2918(5) -0.2730(6)
C60 C -0.2733(9) 0.2936(8) -0.2619(6)
H44 H -0.2302 0.2569 -0.2709
C61 C -0.2347(8) 0.3652(7) -0.2325(7)
C62 C -0.3034(11) 0.4144(7) -0.2227(9)
H45 H -0.2774 0.4568 -0.2046
C63 C -0.4010(13) 0.4082(8) -0.2359(10)
H46 H -0.4452 0.4448 -0.2293
C64 C -0.4394(11) 0.3455(7) -0.2604(8)
H47 H -0.5113 0.3402 -0.2687
C65 C -0.1219(9) 0.3704(6) -0.2240(7)
H48 H -0.0927 0.4135 -0.2256
C66 C -0.0620(8) 0.3212(5) -0.2147(6)
H49 H -0.0897 0.2776 -0.2142
C67 C 0.0585(10) 0.3304(6) -0.2038(7)
C68 C 0.1203(9) 0.2778(5) -0.1678(6)
H50 H 0.0847 0.2401 -0.1494
C69 C 0.2742(10) 0.3277(4) -0.1771(6)
H51 H 0.3466 0.3275 -0.1685
C70 C 0.2212(14) 0.3863(6) -0.2130(8)
H52 H 0.2583 0.4246 -0.2274
C71 C 0.1148(11) 0.3853(7) -0.2258(8)
H53 H 0.0800 0.4232 -0.2503
C72 C -0.5865(6) 0.2841(5) 0.5181(5)
C73 C -0.6509(7) 0.3448(5) 0.5212(6)
C74 C -0.7542(7) 0.3390(7) 0.5345(6)
H54 H -0.7776 0.2953 0.5451
C75 C -0.8242(8) 0.3869(7) 0.5341(7)
C76 C -0.7802(9) 0.4485(9) 0.5231(7)
H55 H -0.8245 0.4858 0.5230
C77 C -0.6755(10) 0.4626(7) 0.5119(7)
H56 H -0.6509 0.5068 0.5079
C78 C -0.6117(8) 0.4075(6) 0.5073(7)
H57 H -0.5428 0.4128 0.4949
C79 C -0.9387(9) 0.3704(5) 0.5432(7)
H58 H -0.9581 0.3272 0.5600
C80 C -1.0035(9) 0.4142(6) 0.5285(8)
H59 H -0.9837 0.4582 0.5154
C81 C -1.1114(8) 0.3974(7) 0.5314(6)
C82 C -1.1580(7) 0.3351(5) 0.5356(6)
H60 H -1.1160 0.2966 0.5394
C83 C -1.3153(8) 0.3828(5) 0.5347(7)
H61 H -1.3866 0.3788 0.5384
C84 C -1.2715(9) 0.4467(6) 0.5298(8)
H62 H -1.3136 0.4852 0.5277
C85 C -1.1692(11) 0.4528(6) 0.5281(7)
H63 H -1.1387 0.4954 0.5246
C86 C -0.8091(8) 0.1314(8) 0.5678(9)
H64 H -0.8696 0.1108 0.5890
H65 H -0.8079 0.1221 0.5056
H66 H -0.8113 0.1795 0.5770
N1_2 N -0.0151(5) -0.0018(4) -0.0359(5)
O15_2 O -0.3856(5) 0.1938(3) 0.6385(4)
N5_2 N -0.2581(5) 0.3275(4) 0.5343(4)
O14_2 O -0.5177(5) 0.2130(4) 0.7117(4)
N6_2 N -0.4966(4) 0.0418(3) 0.6612(5)
Cd4_2 Cd -0.55598(4) 0.13634(3) -0.41012(4)
Cd3_2 Cd -0.35130(4) 0.22892(3) -0.49517(4)
Cd1_2 Cd 1.08650(4) 0.09089(2) -0.00288(3)
Cd3_3 Cd -1.35130(4) 0.22892(3) 0.50483(4)
O23 O 0.606(3) 0.089(2) 0.000(2)
O24 O -0.831(4) 0.234(3) 0.501(3)
loop_
_geom_bond_atom_site_label_1
_geom_bond_atom_site_label_2
_geom_bond_site_symmetry_1
_geom_bond_site_symmetry_2
Cd1 O1 1_555 1_555
Cd2 O2 1_555 1_555
Cd3 O13 1_555 1_555
Cd4 O12 1_555 1_555
Cl1 O8 1_555 1_555
Cl2 O19 1_555 1_555
O1 C1 1_555 1_555
O2 C1 1_555 1_555
O3 Cd1 1_555 1_555
O4 Cd2 1_555 1_555
O5 Cd2 1_555 1_555
O6 Cd1 1_555 1_555
O7 Cd2 1_555 1_555
O8 Cd1 1_555 1_555
O9 Cl1 1_555 1_555
O10 Cl1 1_555 1_555
O11 Cl1 1_555 1_555
O12 C43 1_555 1_555
O13 Cd4 1_555 1_555
O14 C58 1_555 1_555
O15 C58 1_555 1_555
O16 Cd3 1_555 1_555
O17 Cd4 1_555 1_555
O18 Cd4 1_555 1_555
O19 Cd3 1_555 1_555
O20 Cl2 1_555 1_555
O21 Cl2 1_555 1_555
O22 Cl2 1_555 1_555
N1 C11 1_555 1_555
N2 Cd1 1_555 1_555
N3 Cd3 1_555 1_555
N4 Cd2 1_555 1_555
N5 C82 1_555 1_555
C1 C2 1_555 1_555
C2 C3 1_555 1_555
C3 H1 1_555 1_555
C4 C3 1_555 1_555
C5 C4 1_555 1_555
H2 C5 1_555 1_555
C6 C5 1_555 1_555
H3 C6 1_555 1_555
C7 C2 1_555 1_555
H4 C7 1_555 1_555
C8 C4 1_555 1_555
H5 C8 1_555 1_555
C9 C8 1_555 1_555
H6 C9 1_555 1_555
C10 C9 1_555 1_555
C11 C10 1_555 1_555
H7 C11 1_555 1_555
C12 N1 1_555 1_555
H8 C12 1_555 1_555
C13 C12 1_555 1_555
H9 C13 1_555 1_555
C14 C10 1_555 1_555
H10 C14 1_555 1_555
C15 O3 1_555 1_555
C16 C15 1_555 1_555
C17 C16 1_555 1_555
H11 C17 1_555 1_555
C18 C17 1_555 1_555
C19 C18 1_555 1_555
H12 C19 1_555 1_555
C20 C19 1_555 1_555
H13 C20 1_555 1_555
C21 C16 1_555 1_555
H14 C21 1_555 1_555
C22 C18 1_555 1_555
H15 C22 1_555 1_555
C23 C22 1_555 1_555
H16 C23 1_555 1_555
C24 C23 1_555 1_555
C25 C24 1_555 1_555
H17 C25 1_555 1_555
N6 C25 1_555 1_555
C26 N6 1_555 1_555
H18 C26 1_555 1_555
C27 C26 1_555 1_555
H19 C27 1_555 1_555
C28 C24 1_555 1_555
H20 C28 1_555 1_555
C29 O5 1_555 1_555
C30 C29 1_555 1_555
C31 C30 1_555 1_555
H21 C31 1_555 1_555
C32 C31 1_555 1_555
C33 C32 1_555 1_555
H22 C33 1_555 1_555
C34 C33 1_555 1_555
H23 C34 1_555 1_555
C35 C30 1_555 1_555
H24 C35 1_555 1_555
C36 C32 1_555 1_555
H25 C36 1_555 1_555
C37 C36 1_555 1_555
H26 C37 1_555 1_555
C38 C37 1_555 1_555
C39 N3 1_555 1_555
H27 C39 1_555 1_555
C40 N3 1_555 1_555
H28 C40 1_555 1_555
C41 C40 1_555 1_555
H29 C41 1_555 1_555
C42 C38 1_555 1_555
H30 C42 1_555 1_555
C43 O13 1_555 1_555
C44 C43 1_555 1_555
C45 C44 1_555 1_555
H31 C45 1_555 1_555
C46 C45 1_555 1_555
C47 C46 1_555 1_555
H32 C47 1_555 1_555
C48 C47 1_555 1_555
H33 C48 1_555 1_555
C49 C44 1_555 1_555
H34 C49 1_555 1_555
C50 C46 1_555 1_555
H35 C50 1_555 1_555
C51 C50 1_555 1_555
H36 C51 1_555 1_555
C52 C51 1_555 1_555
C53 N2 1_555 1_555
H37 C53 1_555 1_555
C54 N2 1_555 1_555
H38 C54 1_555 1_555
C55 C54 1_555 1_555
H39 C55 1_555 1_555
C56 C52 1_555 1_555
H40 C56 1_555 1_555
C57 O7 1_555 1_555
H41 C57 1_555 1_555
H42 C57 1_555 1_555
H43 C57 1_555 1_555
C58 C59 1_555 1_555
C59 C60 1_555 1_555
C60 H44 1_555 1_555
C61 C60 1_555 1_555
C62 C61 1_555 1_555
H45 C62 1_555 1_555
C63 C62 1_555 1_555
H46 C63 1_555 1_555
C64 C59 1_555 1_555
H47 C64 1_555 1_555
C65 C61 1_555 1_555
H48 C65 1_555 1_555
C66 C65 1_555 1_555
H49 C66 1_555 1_555
C67 C66 1_555 1_555
C68 N4 1_555 1_555
H50 C68 1_555 1_555
C69 N4 1_555 1_555
H51 C69 1_555 1_555
C70 C69 1_555 1_555
H52 C70 1_555 1_555
C71 C67 1_555 1_555
H53 C71 1_555 1_555
C72 O16 1_555 1_555
C73 C72 1_555 1_555
C74 C73 1_555 1_555
H54 C74 1_555 1_555
C75 C74 1_555 1_555
C76 C75 1_555 1_555
H55 C76 1_555 1_555
C77 C76 1_555 1_555
H56 C77 1_555 1_555
C78 C73 1_555 1_555
H57 C78 1_555 1_555
C79 C75 1_555 1_555
H58 C79 1_555 1_555
C80 C79 1_555 1_555
H59 C80 1_555 1_555
C81 C80 1_555 1_555
C82 C81 1_555 1_555
H60 C82 1_555 1_555
C83 N5 1_555 1_555
H61 C83 1_555 1_555
C84 C83 1_555 1_555
H62 C84 1_555 1_555
C85 C81 1_555 1_555
H63 C85 1_555 1_555
C86 O18 1_555 1_555
H64 C86 1_555 1_555
H65 C86 1_555 1_555
H66 C86 1_555 1_555
N1_2 Cd1 1_555 1_555
O15_2 Cd3 1_555 1_555
N5_2 Cd3 1_555 1_555
O14_2 Cd4 1_555 1_555
N6_2 Cd4 1_555 1_555
Cd4_2 O14 1_555 1_555
Cd3_2 O15 1_555 1_555
Cd1_2 N1 1_555 1_555
Cd3_3 N5 1_555 1_555
Cd2 O3 1_555 1_555
Cd2 O6 1_555 1_555
Cd4 O15_2 1_555 1_555
O4 C15 1_555 1_555
O6 C29 1_555 1_555
O15 Cd4_2 1_555 1_555
O17 C72 1_555 1_555
C6 C7 1_555 1_555
C13 C14 1_555 1_555
C20 C21 1_555 1_555
N6 Cd4_2 1_555 1_555
C27 C28 1_555 1_555
C34 C35 1_555 1_555
C38 C39 1_555 1_555
C41 C42 1_555 1_555
C48 C49 1_555 1_555
C52 C53 1_555 1_555
C55 C56 1_555 1_555
C63 C64 1_555 1_555
C67 C68 1_555 1_555
C70 C71 1_555 1_555
C77 C78 1_555 1_555
C84 C85 1_555 1_555

#END
