
#######################################################################
#
#                 Cambridge Crystallographic Data Centre
#                                CCDC 
#
#######################################################################
#
# If this CIF has been generated from an entry in the Cambridge 
# Structural Database, then it will include bibliographic, chemical, 
# crystal, experimental, refinement or atomic coordinate data resulting 
# from the CCDC's data processing and validation procedures.
#
#######################################################################

data_BANHEE
_symmetry_cell_setting           triclinic
_symmetry_space_group_name_H-M   'P -1'
_symmetry_Int_Tables_number      2
_space_group_name_Hall           '-P 1'
loop_
_symmetry_equiv_pos_site_id
_symmetry_equiv_pos_as_xyz
1 x,y,z
2 -x,-y,-z
_cell_length_a                   10.6745(4)
_cell_length_b                   12.6708(5)
_cell_length_c                   14.8381(6)
_cell_angle_alpha                74.7720(10)
_cell_angle_beta                 88.2830(10)
_cell_angle_gamma                73.6710(10)
_cell_volume                     1856.25
loop_
_atom_site_label
_atom_site_type_symbol
_atom_site_fract_x
_atom_site_fract_y
_atom_site_fract_z
Cd1 Cd 1.02924(2) 0.223998(17) 0.677187(15)
Cd2 Cd 0.93060(2) 0.035798(17) 0.872397(14)
O1 O 1.0991(2) -0.09201(18) 0.83778(17)
C1 C 1.4503(3) -0.3396(2) 0.8155(2)
O2 O 1.1591(2) 0.03887(19) 0.72534(18)
O3 O 0.7659(3) 0.0145(2) 0.77263(17)
C2 C 1.3064(3) -0.1455(2) 0.7730(2)
C3 C 0.5841(3) 0.3061(3) 0.4928(2)
C4 C 1.5474(3) -0.2993(3) 0.7654(2)
C5 C 1.3289(3) -0.2603(3) 0.8190(2)
C6 C 0.6780(3) 0.1514(3) 0.6288(2)
O4 O 0.8603(2) 0.1493(2) 0.71795(17)
C7 C 1.1017(3) 0.2855(3) 0.9415(2)
C8 C 1.1865(3) 0.3771(4) 1.0387(2)
C9 C 0.5798(4) 0.1017(3) 0.6202(3)
C10 C 1.0718(3) 0.3873(3) 0.8708(2)
C11 C 1.1775(3) -0.0597(3) 0.7789(2)
C12 C 1.0991(3) 0.4848(3) 0.8829(2)
C13 C 0.7738(3) 0.1006(3) 0.7108(2)
C14 C 0.6787(3) 0.2535(3) 0.5661(2)
C15 C 1.1558(3) 0.4773(3) 0.9688(2)
C16 C 1.1606(3) 0.2799(3) 1.0263(2)
C17 C 1.4043(3) -0.1081(3) 0.7241(3)
C18 C 1.5252(4) -0.1847(3) 0.7208(3)
C19 C 0.4892(4) 0.2530(3) 0.4843(3)
C20 C 0.4860(4) 0.1523(4) 0.5478(3)
O5 O 1.0194(2) 0.19087(19) 0.84759(16)
C21 C 1.0657(3) 0.1849(3) 0.9270(2)
C22 C 1.0621(3) 0.5938(3) 0.8093(2)
C23 C 1.0373(4) 0.6037(3) 0.7198(2)
C24 C 0.9949(3) 0.7093(3) 0.6440(2)
O6 O 1.0782(3) 0.0979(2) 0.99299(19)
N1 N 0.9568(3) 0.7905(2) 0.47679(19)
C25 C 0.9946(4) 0.7016(3) 0.5520(2)
C26 C 0.9141(5) 0.8939(3) 0.4921(3)
N2 N 1.7488(3) -0.8543(2) 0.93030(18)
C27 C 1.5814(3) -0.5432(3) 0.8679(2)
C28 C 1.6649(3) -0.8969(3) 0.9877(2)
C29 C 1.5190(3) -0.7119(3) 0.9739(2)
C30 C 1.7186(3) -0.7406(3) 0.8959(2)
C31 C 1.6042(3) -0.6646(2) 0.9146(2)
C32 C 1.5496(3) -0.8285(3) 1.0105(2)
C33 C 1.4707(3) -0.4601(3) 0.8646(2)
N3 N 0.8405(3) 0.4634(2) 0.6466(2)
O7 O 0.7724(3) 0.5594(3) 0.6302(3)
O8 O 0.9250(3) 0.4305(4) 0.5950(3)
C34 C 0.9513(6) 0.8176(3) 0.6573(3)
O9 O 0.8383(7) 0.3924(5) 0.7160(4)
C35 C 0.9110(8) 0.9096(4) 0.5802(3)
N4 N 0.7849(3) 0.7233(2) 0.31281(19)
C36 C 0.6917(3) 0.7836(3) 0.2456(2)
C37 C 0.5816(3) 0.7497(3) 0.2351(2)
C38 C 0.6647(4) 0.4767(3) 0.4273(3)
C39 C 0.6644(3) 0.5860(3) 0.3625(2)
C40 C 0.7692(3) 0.6287(3) 0.3703(3)
C41 C 0.5678(4) 0.6500(3) 0.2932(2)
C42 C 0.5836(4) 0.4152(3) 0.4239(3)
H1 H 1.056(3) 0.660(3) 0.827(2)
H2 H 0.828(4) 0.589(4) 0.417(3)
H3 H 1.774(4) -0.713(3) 0.853(3)
H4 H 0.520(4) 0.795(4) 0.185(3)
H5 H 1.024(4) 0.629(4) 0.543(3)
H6 H 0.745(3) 0.287(3) 0.575(2)
H7 H 0.425(4) 0.292(3) 0.437(3)
H8 H 1.255(4) -0.285(3) 0.853(3)
H9 H 1.436(3) -0.665(3) 0.993(2)
H10 H 1.684(3) -0.973(3) 1.010(2)
H11 H 1.187(4) 0.211(3) 1.071(3)
H12 H 1.169(4) 0.550(4) 0.974(3)
H13 H 1.043(4) 0.534(4) 0.704(3)
H14 H 1.654(4) -0.526(4) 0.840(3)
H15 H 1.626(4) -0.349(4) 0.759(3)
H16 H 0.497(6) 0.448(5) 0.405(4)
H17 H 0.580(4) 0.030(3) 0.667(3)
H18 H 1.499(5) -0.866(4) 1.052(3)
H19 H 1.025(4) 0.394(3) 0.808(3)
H20 H 0.703(4) 0.859(3) 0.206(3)
H21 H 0.744(5) 0.450(4) 0.488(4)
H22 H 1.397(4) -0.479(4) 0.897(3)
H23 H 1.594(5) -0.158(4) 0.680(4)
H24 H 1.217(4) 0.379(4) 1.094(3)
H25 H 0.875(4) 0.956(4) 0.437(3)
H26 H 0.494(4) 0.626(3) 0.290(3)
H27 H 0.411(5) 0.118(4) 0.540(3)
H28 H 1.391(4) -0.027(4) 0.688(3)
H29 H 0.877(6) 0.977(6) 0.588(5)
H30 H 0.950(6) 0.822(5) 0.710(4)
N1A N 1.0432(3) 0.2095(2) 0.52321(19)
N4A N 1.2151(3) 0.2767(2) 0.68719(19)
O6A O 0.9218(3) -0.0979(2) 1.00701(19)
N2_2 N 0.7488(3) 0.1457(2) 0.93030(18)
Cd2A Cd 1.06940(2) -0.035798(17) 1.127603(14)
Cd1A Cd 0.97076(2) 0.776002(17) 0.322813(15)
Cd2_2 Cd 1.93060(2) -0.964202(17) 0.872397(14)
loop_
_geom_bond_atom_site_label_1
_geom_bond_atom_site_label_2
_geom_bond_site_symmetry_1
_geom_bond_site_symmetry_2
Cd1 O2 1_555 1_555
Cd2 O1 1_555 1_555
O1 C11 1_555 1_555
C1 C4 1_555 1_555
O2 C11 1_555 1_555
O3 Cd2 1_555 1_555
C2 C5 1_555 1_555
C3 C14 1_555 1_555
C4 C18 1_555 1_555
C5 C1 1_555 1_555
C6 C9 1_555 1_555
O4 Cd1 1_555 1_555
C7 C10 1_555 1_555
C8 C15 1_555 1_555
C9 C20 1_555 1_555
C10 C12 1_555 1_555
C11 C2 1_555 1_555
C12 C15 1_555 1_555
C13 O3 1_555 1_555
C14 C6 1_555 1_555
C15 H12 1_555 1_555
C16 C7 1_555 1_555
C17 C2 1_555 1_555
C18 C17 1_555 1_555
C19 C3 1_555 1_555
C20 C19 1_555 1_555
O5 Cd1 1_555 1_555
C21 C7 1_555 1_555
C22 C12 1_555 1_555
C23 C22 1_555 1_555
C24 C23 1_555 1_555
O6 C21 1_555 1_555
N1 C25 1_555 1_555
C25 C24 1_555 1_555
C26 N1 1_555 1_555
N2 C28 1_555 1_555
C27 C31 1_555 1_555
C28 C32 1_555 1_555
C29 C31 1_555 1_555
C30 N2 1_555 1_555
C31 C30 1_555 1_555
C32 C29 1_555 1_555
C33 C1 1_555 1_555
N3 O7 1_555 1_555
O8 Cd1 1_555 1_555
C34 C24 1_555 1_555
O9 N3 1_555 1_555
C35 C26 1_555 1_555
N4 C36 1_555 1_555
C36 C37 1_555 1_555
C37 C41 1_555 1_555
C38 C39 1_555 1_555
C39 C40 1_555 1_555
C40 N4 1_555 1_555
C41 C39 1_555 1_555
C42 C3 1_555 1_555
H1 C22 1_555 1_555
H2 C40 1_555 1_555
H3 C30 1_555 1_555
H4 C37 1_555 1_555
H5 C25 1_555 1_555
H6 C14 1_555 1_555
H7 C19 1_555 1_555
H8 C5 1_555 1_555
H9 C29 1_555 1_555
H10 C28 1_555 1_555
H11 C16 1_555 1_555
H13 C23 1_555 1_555
H14 C27 1_555 1_555
H15 C4 1_555 1_555
H16 C42 1_555 1_555
H17 C9 1_555 1_555
H18 C32 1_555 1_555
H19 C10 1_555 1_555
H20 C36 1_555 1_555
H21 C38 1_555 1_555
H22 C33 1_555 1_555
H23 C18 1_555 1_555
H24 C8 1_555 1_555
H25 C26 1_555 1_555
H26 C41 1_555 1_555
H27 C20 1_555 1_555
H28 C17 1_555 1_555
H29 C35 1_555 1_555
H30 C34 1_555 1_555
N1A Cd1 1_555 1_555
N4A Cd1 1_555 1_555
O6A Cd2 1_555 1_555
N2_2 Cd2 1_555 1_555
Cd2A O6 1_555 1_555
Cd1A N1 1_555 1_555
Cd2_2 N2 1_555 1_555
Cd2 O4 1_555 1_555
Cd2 O5 1_555 1_555
C6 C13 1_555 1_555
O4 C13 1_555 1_555
C8 C16 1_555 1_555
O5 C21 1_555 1_555
C27 C33 1_555 1_555
N3 O8 1_555 1_555
C34 C35 1_555 1_555
N4 Cd1A 1_555 1_555
C38 C42 1_555 1_555

#END
