
#######################################################################
#
#                 Cambridge Crystallographic Data Centre
#                                CCDC 
#
#######################################################################
#
# If this CIF has been generated from an entry in the Cambridge 
# Structural Database, then it will include bibliographic, chemical, 
# crystal, experimental, refinement or atomic coordinate data resulting 
# from the CCDC's data processing and validation procedures.
#
#######################################################################

data_BANMIO
_symmetry_cell_setting           triclinic
_symmetry_space_group_name_H-M   'P -1'
_symmetry_Int_Tables_number      2
_space_group_name_Hall           '-P 1'
loop_
_symmetry_equiv_pos_site_id
_symmetry_equiv_pos_as_xyz
1 x,y,z
2 -x,-y,-z
_cell_length_a                   7.4859(15)
_cell_length_b                   8.8975(18)
_cell_length_c                   14.239(3)
_cell_angle_alpha                91.10(3)
_cell_angle_beta                 100.41(3)
_cell_angle_gamma                101.95(3)
_cell_volume                     910.994
loop_
_atom_site_label
_atom_site_type_symbol
_atom_site_fract_x
_atom_site_fract_y
_atom_site_fract_z
Ag1 Ag 0.36229(6) 1.00938(4) 0.09361(3)
Ag2 Ag 1.05214(6) 1.29545(4) 0.10002(3)
Cl1 Cl 0.8207(2) 1.07186(14) 0.38630(8)
Cl2 Cl 0.6799(2) 0.77234(18) 0.48426(8)
Cl3 Cl 0.56034(19) 0.45778(14) 0.36685(9)
Cl4 Cl 0.57371(16) 0.44378(11) 0.14937(8)
C1 C 0.2094(5) 0.6654(4) 0.1301(3)
C2 C 0.1161(6) 0.5615(5) 0.2647(3)
C3 C 0.1681(6) 0.7053(5) 0.3111(3)
H1 H 0.1546 0.7189 0.3741
C4 C 0.2408(6) 0.8293(5) 0.2623(3)
C5 C 0.3021(8) 0.9877(6) 0.3096(3)
H2 H 0.4152 1.0387 0.2909
H3 H 0.3230 0.9811 0.3778
H4 H 0.2073 1.0450 0.2906
C6 C 0.0364(7) 0.4219(6) 0.3123(3)
H5 H 0.1125 0.3475 0.3116
H6 H -0.0874 0.3785 0.2787
H7 H 0.0328 0.4501 0.3772
C7 C 0.8115(6) 1.0415(4) 0.1730(3)
C8 C 0.7511(5) 0.8941(4) 0.2228(3)
C9 C 0.7487(6) 0.8980(5) 0.3201(3)
C10 C 0.6890(6) 0.7648(5) 0.3645(3)
C11 C 0.6363(6) 0.6237(5) 0.3124(3)
C12 C 0.6438(5) 0.6178(4) 0.2146(3)
C13 C 0.7014(5) 0.7523(4) 0.1702(2)
C14 C 0.7131(5) 0.7515(4) 0.0652(3)
N1 N 0.2598(4) 0.8094(4) 0.1711(2)
N2 N 0.2295(5) 0.6448(4) 0.0385(2)
H8 H 0.2734 0.7224 0.0082
H9 H 0.1985 0.5541 0.0106
N3 N 0.1384(5) 0.5388(4) 0.1740(2)
O1 O 0.6999(5) 1.1247(4) 0.1524(3)
O2 O 0.9755(5) 1.0649(4) 0.1591(3)
O3 O 0.6063(4) 0.8241(4) 0.0148(2)
O4 O 0.8240(4) 0.6825(3) 0.0386(2)
Ag1A Ag 0.63771(6) 0.99062(4) -0.09361(3)
Ag2A Ag -0.05214(6) 0.70455(4) -0.10002(3)
Ag2_2 Ag 0.05214(6) 0.29545(4) 0.10002(3)
Ag2_3 Ag 0.05214(6) 1.29545(4) 0.10002(3)
Ag2A_2 Ag 0.94786(6) 0.70455(4) -0.10002(3)
Ag2A_3 Ag 0.94786(6) 1.70455(4) -0.10002(3)
Cl1A Cl 0.1793(2) 0.92814(14) -0.38630(8)
Cl2A Cl 0.3201(2) 1.22766(18) -0.48426(8)
Cl3A Cl 0.43966(19) 1.54222(14) -0.36685(9)
Cl4A Cl 0.42629(16) 1.55622(11) -0.14937(8)
C1A C 0.7906(5) 1.3346(4) -0.1301(3)
C2A C 0.8839(6) 1.4385(5) -0.2647(3)
C3A C 0.8319(6) 1.2947(5) -0.3111(3)
H1A H 0.8454 1.2811 -0.3741
C4A C 0.7592(6) 1.1707(5) -0.2623(3)
C5A C 0.6979(8) 1.0123(6) -0.3096(3)
H2A H 0.5848 0.9613 -0.2909
H3A H 0.6770 1.0189 -0.3778
H4A H 0.7927 0.9550 -0.2906
C6A C 0.9636(7) 1.5781(6) -0.3123(3)
H5A H 0.8875 1.6525 -0.3116
H6A H 1.0874 1.6215 -0.2787
H7A H 0.9672 1.5499 -0.3772
C7A C 0.1885(6) 0.9585(4) -0.1730(3)
C8A C 0.2489(5) 1.1059(4) -0.2228(3)
C9A C 0.2513(6) 1.1020(5) -0.3201(3)
C10A C 0.3110(6) 1.2352(5) -0.3645(3)
C11A C 0.3637(6) 1.3763(5) -0.3124(3)
C12A C 0.3562(5) 1.3822(4) -0.2146(3)
C13A C 0.2986(5) 1.2477(4) -0.1702(2)
C14A C 0.2869(5) 1.2485(4) -0.0652(3)
N1A N 0.7402(4) 1.1906(4) -0.1711(2)
N2A N 0.7705(5) 1.3552(4) -0.0385(2)
H8A H 0.7266 1.2776 -0.0082
H9A H 0.8015 1.4459 -0.0106
N3A N 0.8616(5) 1.4612(4) -0.1740(2)
N3_2 N 1.1384(5) 1.5388(4) 0.1740(2)
N3A_2 N -0.1384(5) 0.4612(4) -0.1740(2)
O1A O 0.3001(5) 0.8753(4) -0.1524(3)
O2A O 0.0245(5) 0.9351(4) -0.1591(3)
O3A O 0.3937(4) 1.1759(4) -0.0148(2)
O4A O 0.1760(4) 1.3175(3) -0.0386(2)
O4_2 O -0.1760(4) 0.6825(3) 0.0386(2)
O4A_2 O 1.1760(4) 1.3175(3) -0.0386(2)
loop_
_geom_bond_atom_site_label_1
_geom_bond_atom_site_label_2
_geom_bond_site_symmetry_1
_geom_bond_site_symmetry_2
Ag1 N1 1_555 1_555
Ag2 O2 1_555 1_555
Cl1 C9 1_555 1_555
Cl2 C10 1_555 1_555
Cl3 C11 1_555 1_555
Cl4 C12 1_555 1_555
C1 N1 1_555 1_555
C2 C3 1_555 1_555
C3 H1 1_555 1_555
C4 C3 1_555 1_555
C5 C4 1_555 1_555
H2 C5 1_555 1_555
H3 C5 1_555 1_555
H4 C5 1_555 1_555
C6 C2 1_555 1_555
H5 C6 1_555 1_555
H6 C6 1_555 1_555
H7 C6 1_555 1_555
C7 C8 1_555 1_555
C8 C9 1_555 1_555
C9 C10 1_555 1_555
C10 C11 1_555 1_555
C11 C12 1_555 1_555
C12 C13 1_555 1_555
C13 C8 1_555 1_555
C14 C13 1_555 1_555
N1 C4 1_555 1_555
N2 C1 1_555 1_555
H8 N2 1_555 1_555
H9 N2 1_555 1_555
N3 C1 1_555 1_555
O1 Ag1 1_555 1_555
O2 C7 1_555 1_555
O3 C14 1_555 1_555
O4 C14 1_555 1_555
Ag1A O3 1_555 1_555
Ag2A N3A_2 1_555 1_555
Ag2_2 N3 1_555 1_555
Ag2_3 O4A 1_555 1_555
Ag2A_2 O4 1_555 1_555
Ag2A_3 N3A 1_555 1_555
Cl1A C9A 1_555 1_555
Cl2A C10A 1_555 1_555
Cl3A C11A 1_555 1_555
Cl4A C12A 1_555 1_555
C1A N1A 1_555 1_555
C2A C3A 1_555 1_555
C3A H1A 1_555 1_555
C4A C3A 1_555 1_555
C5A C4A 1_555 1_555
H2A C5A 1_555 1_555
H3A C5A 1_555 1_555
H4A C5A 1_555 1_555
C6A C2A 1_555 1_555
H5A C6A 1_555 1_555
H6A C6A 1_555 1_555
H7A C6A 1_555 1_555
C7A C8A 1_555 1_555
C8A C9A 1_555 1_555
C9A C10A 1_555 1_555
C10A C11A 1_555 1_555
C11A C12A 1_555 1_555
C12A C13A 1_555 1_555
C13A C8A 1_555 1_555
C14A C13A 1_555 1_555
N1A Ag1A 1_555 1_555
N2A C1A 1_555 1_555
H8A N2A 1_555 1_555
H9A N2A 1_555 1_555
N3A C1A 1_555 1_555
N3_2 Ag2 1_555 1_555
O1A Ag1A 1_555 1_555
O2A Ag2A 1_555 1_555
O3A Ag1 1_555 1_555
O4A C14A 1_555 1_555
O4_2 Ag2A 1_555 1_555
O4A_2 Ag2 1_555 1_555
C2 N3 1_555 1_555
C7 O1 1_555 1_555
C2A N3A 1_555 1_555
C4A N1A 1_555 1_555
C7A O1A 1_555 1_555
C7A O2A 1_555 1_555
C14A O3A 1_555 1_555

#END
