
#######################################################################
#
#                 Cambridge Crystallographic Data Centre
#                                CCDC 
#
#######################################################################
#
# If this CIF has been generated from an entry in the Cambridge 
# Structural Database, then it will include bibliographic, chemical, 
# crystal, experimental, refinement or atomic coordinate data resulting 
# from the CCDC's data processing and validation procedures.
#
#######################################################################

data_BANMEK
_symmetry_cell_setting           monoclinic
_symmetry_space_group_name_H-M   'C 2/c'
_symmetry_Int_Tables_number      15
_space_group_name_Hall           '-C 2yn'
loop_
_symmetry_equiv_pos_site_id
_symmetry_equiv_pos_as_xyz
1 x,y,z
2 -x,y,1/2-z
3 1/2+x,1/2+y,z
4 1/2-x,1/2+y,1/2-z
5 -x,-y,-z
6 x,-y,1/2+z
7 1/2-x,1/2-y,-z
8 1/2+x,1/2-y,1/2+z
_cell_length_a                   13.4957(3)
_cell_length_b                   24.8634(6)
_cell_length_c                   25.4326(7)
_cell_angle_alpha                90
_cell_angle_beta                 97.085(2)
_cell_angle_gamma                90
_cell_volume                     8468.72
loop_
_atom_site_label
_atom_site_type_symbol
_atom_site_fract_x
_atom_site_fract_y
_atom_site_fract_z
Ag1 Ag 0.852301(18) 0.003589(9) 0.129382(10)
Ag2 Ag 0.851459(18) -0.249156(9) 0.124346(9)
Ag3 Ag 0.433660(19) 0.008300(10) 0.182610(10)
Ag4 Ag 0.93861(2) 0.247980(10) 0.179390(11)
Cl1 Cl 0.67835(6) 0.17926(3) 0.20303(3)
Cl2 Cl 0.63195(6) 0.24258(3) 0.09749(3)
Cl3 Cl 0.56940(6) 0.18035(3) -0.00830(3)
Cl4 Cl 0.57095(6) 0.05703(3) -0.00946(3)
Cl5 Cl 0.57261(6) -0.29919(3) -0.01587(3)
Cl6 Cl 0.56355(6) -0.42472(3) -0.01481(3)
Cl7 Cl 0.61756(6) -0.48652(3) 0.09088(3)
Cl8 Cl 0.67123(6) -0.42360(3) 0.19634(3)
O1 O 0.74563(14) 0.03152(8) 0.20211(7)
O2 O 0.59731(15) 0.05540(8) 0.22634(7)
O3 O 0.69453(15) -0.02223(8) 0.07802(8)
O4 O 0.55344(16) -0.02315(8) 0.11565(8)
O5 O 0.69366(15) -0.22114(8) 0.07311(8)
O6 O 0.55095(16) -0.22112(8) 0.10925(8)
O7 O 0.74175(15) -0.27540(8) 0.19572(7)
O8 O 0.59463(15) -0.30039(8) 0.22064(7)
C1 C 0.8841(2) 0.12870(12) 0.13698(11)
C2 C 0.8696(2) 0.19136(13) 0.07065(13)
H1 H 0.8736 0.2276 0.0592
C3 C 0.8441(2) 0.15228(15) 0.03319(13)
H2 H 0.8284 0.1609 -0.0033
C4 C 0.8426(2) 0.09991(14) 0.05120(13)
H3 H 0.8264 0.0717 0.0264
C5 C 0.8761(2) -0.12275(12) 0.13660(11)
C6 C 1.0121(2) -0.07647(14) 0.17747(12)
H4 H 1.0443 -0.0434 0.1874
C7 C 1.0613(2) -0.12383(14) 0.19164(13)
H5 H 1.1266 -0.1241 0.2105
C8 C 1.0110(2) -0.17087(14) 0.17703(12)
H6 H 1.0424 -0.2042 0.1867
C9 C 0.8849(2) -0.37318(12) 0.13562(11)
C10 C 0.8440(2) -0.34775(13) 0.04851(12)
H7 H 0.8292 -0.3205 0.0225
C11 C 0.8432(2) -0.40063(14) 0.03270(12)
H8 H 0.8283 -0.4105 -0.0035
C12 C 0.8650(2) -0.43850(13) 0.07187(13)
H9 H 0.8652 -0.4754 0.0621
C13 C 0.4201(2) -0.12302(12) 0.18655(11)
C14 C 0.3418(2) -0.07680(13) 0.24825(12)
H10 H 0.3228 -0.0439 0.2632
C15 C 0.3147(2) -0.12435(14) 0.26976(12)
H11 H 0.2779 -0.1249 0.2993
C16 C 0.3426(2) -0.17102(13) 0.24699(12)
H12 H 0.3236 -0.2044 0.2609
C17 C 0.6632(2) 0.05624(11) 0.19577(11)
C18 C 0.6413(2) 0.08849(11) 0.14479(11)
C19 C 0.6442(2) 0.14464(11) 0.14470(11)
C20 C 0.6251(2) 0.17338(12) 0.09771(11)
C21 C 0.6003(2) 0.14586(12) 0.04994(11)
C22 C 0.6005(2) 0.08989(12) 0.05004(11)
C23 C 0.6215(2) 0.06103(12) 0.09670(11)
C24 C 0.6228(2) -0.00011(12) 0.09645(10)
C25 C 0.6211(2) -0.24334(12) 0.09080(10)
C26 C 0.6195(2) -0.30476(12) 0.09042(11)
C27 C 0.5984(2) -0.33368(12) 0.04346(11)
C28 C 0.5948(2) -0.38931(12) 0.04321(11)
C29 C 0.6167(2) -0.41710(12) 0.09082(11)
C30 C 0.6385(2) -0.38853(11) 0.13810(11)
C31 C 0.6379(2) -0.33281(12) 0.13839(11)
C32 C 0.6602(2) -0.30051(12) 0.18976(11)
N1 N 0.90200(19) 0.11694(10) 0.18875(10)
H13 H 0.8999 0.0833 0.1994
H14 H 0.9158 0.1428 0.2121
N2 N 0.88900(18) 0.18074(10) 0.12233(10)
N3 N 0.86342(18) 0.08773(10) 0.10285(9)
N4 N 0.78533(17) -0.12245(10) 0.10990(9)
H15 H 0.7553 -0.0917 0.1014
H16 H 0.7551 -0.1530 0.1007
N5 N 0.91951(18) -0.17134(10) 0.14975(10)
N6 N 0.92081(18) -0.07514(10) 0.15029(10)
N7 N 0.90522(19) -0.35950(10) 0.18671(9)
H17 H 0.9187 -0.3846 0.2110
H18 H 0.9051 -0.3254 0.1961
N8 N 0.86508(17) -0.33350(10) 0.09946(9)
N9 N 0.88590(18) -0.42575(10) 0.12300(9)
N10 N 0.47040(18) -0.12211(10) 0.14455(9)
H19 H 0.4869 -0.1525 0.1301
H20 H 0.4871 -0.0912 0.1313
N11 N 0.39445(18) -0.07505(10) 0.20684(9)
N12 N 0.39566(18) -0.17119(10) 0.20592(9)
Ag3B Ag 0.933660(19) -0.491700(10) 0.182610(10)
Ag4B Ag 0.43861(2) -0.252020(10) 0.179390(11)
O6B O 1.05095(16) 0.27888(8) 0.10925(8)
O8B O 1.09463(15) 0.19961(8) 0.22064(7)
N9B N 0.38590(18) 0.07425(10) 0.12300(9)
N12B N 0.89566(18) 0.32881(10) 0.20592(9)
loop_
_geom_bond_atom_site_label_1
_geom_bond_atom_site_label_2
_geom_bond_site_symmetry_1
_geom_bond_site_symmetry_2
Ag1 O1 1_555 1_555
Ag2 O5 1_555 1_555
Ag3 O2 1_555 1_555
Ag4 N2 1_555 1_555
Cl1 C19 1_555 1_555
Cl2 C20 1_555 1_555
Cl3 C21 1_555 1_555
Cl4 C22 1_555 1_555
Cl5 C27 1_555 1_555
Cl6 C28 1_555 1_555
Cl7 C29 1_555 1_555
Cl8 C30 1_555 1_555
O1 C17 1_555 1_555
O2 C17 1_555 1_555
O3 Ag1 1_555 1_555
O4 Ag3 1_555 1_555
O5 C25 1_555 1_555
O6 C25 1_555 1_555
O7 Ag2 1_555 1_555
O8 C32 1_555 1_555
C1 N1 1_555 1_555
C2 H1 1_555 1_555
C3 C2 1_555 1_555
H2 C3 1_555 1_555
C4 C3 1_555 1_555
H3 C4 1_555 1_555
C5 N4 1_555 1_555
C6 H4 1_555 1_555
C7 C6 1_555 1_555
H5 C7 1_555 1_555
C8 C7 1_555 1_555
H6 C8 1_555 1_555
C9 N7 1_555 1_555
C10 H7 1_555 1_555
C11 C10 1_555 1_555
H8 C11 1_555 1_555
C12 C11 1_555 1_555
H9 C12 1_555 1_555
C13 N10 1_555 1_555
C14 H10 1_555 1_555
C15 C14 1_555 1_555
H11 C15 1_555 1_555
C16 C15 1_555 1_555
H12 C16 1_555 1_555
C17 C18 1_555 1_555
C18 C19 1_555 1_555
C19 C20 1_555 1_555
C20 C21 1_555 1_555
C21 C22 1_555 1_555
C22 C23 1_555 1_555
C23 C18 1_555 1_555
C24 O3 1_555 1_555
C25 C26 1_555 1_555
C26 C27 1_555 1_555
C27 C28 1_555 1_555
C28 C29 1_555 1_555
C29 C30 1_555 1_555
C30 C31 1_555 1_555
C31 C26 1_555 1_555
C32 O7 1_555 1_555
N1 H13 1_555 1_555
H14 N1 1_555 1_555
N2 C1 1_555 1_555
N3 Ag1 1_555 1_555
N4 H15 1_555 1_555
H16 N4 1_555 1_555
N5 Ag2 1_555 1_555
N6 Ag1 1_555 1_555
N7 H17 1_555 1_555
H18 N7 1_555 1_555
N8 Ag2 1_555 1_555
N9 C9 1_555 1_555
N10 H19 1_555 1_555
H20 N10 1_555 1_555
N11 Ag3 1_555 1_555
N12 C13 1_555 1_555
Ag3B N9 1_555 1_555
Ag4B O6 1_555 1_555
O6B Ag4 1_555 1_555
O8B Ag4 1_555 1_555
N9B Ag3 1_555 1_555
N12B Ag4 1_555 1_555
O4 C24 1_555 1_555
O8 Ag4B 1_555 1_555
C1 N3 1_555 1_555
C2 N2 1_555 1_555
C4 N3 1_555 1_555
C5 N5 1_555 1_555
C5 N6 1_555 1_555
C6 N6 1_555 1_555
C8 N5 1_555 1_555
C9 N8 1_555 1_555
C10 N8 1_555 1_555
C12 N9 1_555 1_555
C13 N11 1_555 1_555
C14 N11 1_555 1_555
C16 N12 1_555 1_555
C23 C24 1_555 1_555
C31 C32 1_555 1_555
N12 Ag4B 1_555 1_555

#END
