
#######################################################################
#
#                 Cambridge Crystallographic Data Centre
#                                CCDC 
#
#######################################################################
#
# If this CIF has been generated from an entry in the Cambridge 
# Structural Database, then it will include bibliographic, chemical, 
# crystal, experimental, refinement or atomic coordinate data resulting 
# from the CCDC's data processing and validation procedures.
#
#######################################################################

data_BANSUG
_symmetry_cell_setting           orthorhombic
_symmetry_space_group_name_H-M   'P n a 21'
_symmetry_Int_Tables_number      33
_space_group_name_Hall           'P 2c -2n'
loop_
_symmetry_equiv_pos_site_id
_symmetry_equiv_pos_as_xyz
1 x,y,z
2 1/2-x,1/2+y,1/2+z
3 1/2+x,1/2-y,z
4 -x,-y,1/2+z
_cell_length_a                   11.3516(14)
_cell_length_b                   9.1239(11)
_cell_length_c                   12.6019(16)
_cell_angle_alpha                90
_cell_angle_beta                 90
_cell_angle_gamma                90
_cell_volume                     1305.19
loop_
_atom_site_label
_atom_site_type_symbol
_atom_site_fract_x
_atom_site_fract_y
_atom_site_fract_z
Fe1 Fe 0.36351(4) 0.75056(6) 0.35384(12)
S1 S 0.74600(9) 0.85623(12) 0.18716(9)
S2 S -0.02020(9) 0.64715(11) 0.52016(9)
N1 N 0.4912(3) 0.3108(4) 0.3829(3)
N2 N 0.4261(3) 0.5381(4) 0.3943(3)
N3 N 0.7358(3) 0.3097(4) 0.3279(3)
N4 N 0.7998(3) 0.5363(4) 0.3150(3)
N5 N 0.5154(3) 0.7889(4) 0.2534(3)
N6 N 0.2098(3) 0.7149(4) 0.4534(3)
C1 C 0.5491(4) 0.1794(4) 0.3417(5)
H1 H 0.5412 0.1763 0.2643
H2 H 0.5112 0.0919 0.3711
C2 C 0.6781(3) 0.1803(4) 0.3715(4)
H3 H 0.6860 0.1801 0.4489
H4 H 0.7163 0.0918 0.3439
C3 C 0.4673(3) 0.4349(4) 0.3297(3)
H5 H 0.4783 0.4472 0.2563
C4 C 0.4245(4) 0.4755(5) 0.4931(4)
H6 H 0.3993 0.5228 0.5554
C5 C 0.4644(4) 0.3356(5) 0.4881(4)
H7 H 0.4722 0.2693 0.5447
C6 C 0.7577(3) 0.4365(4) 0.3797(3)
H8 H 0.7444 0.4513 0.4525
C7 C 0.8017(4) 0.4729(5) 0.2159(3)
H9 H 0.8266 0.5193 0.1532
C8 C 0.7617(4) 0.3323(5) 0.2228(4)
H10 H 0.7536 0.2647 0.1671
C9 C 0.6107(3) 0.8164(5) 0.2269(4)
C10 C 0.1155(3) 0.6875(5) 0.4809(4)
Fe1B Fe -0.13649(4) 0.74944(6) 0.35384(12)
Fe1B_2 Fe 0.86351(4) 0.74944(6) 0.35384(12)
S1B S 0.24600(9) 0.64377(12) 0.18716(9)
S2B S 0.47980(9) 0.85285(11) 0.52016(9)
N4B N 0.2998(3) 0.9637(4) 0.3150(3)
loop_
_geom_bond_atom_site_label_1
_geom_bond_atom_site_label_2
_geom_bond_site_symmetry_1
_geom_bond_site_symmetry_2
Fe1 N2 1_555 1_555
S1 C9 1_555 1_555
S2 C10 1_555 1_555
N1 C1 1_555 1_555
N2 C3 1_555 1_555
N3 C2 1_555 1_555
N4 C6 1_555 1_555
N5 Fe1 1_555 1_555
N6 Fe1 1_555 1_555
C1 H1 1_555 1_555
H2 C1 1_555 1_555
C2 C1 1_555 1_555
H3 C2 1_555 1_555
H4 C2 1_555 1_555
C3 N1 1_555 1_555
H5 C3 1_555 1_555
C4 N2 1_555 1_555
H6 C4 1_555 1_555
C5 N1 1_555 1_555
H7 C5 1_555 1_555
C6 N3 1_555 1_555
H8 C6 1_555 1_555
C7 N4 1_555 1_555
H9 C7 1_555 1_555
C8 N3 1_555 1_555
H10 C8 1_555 1_555
C9 N5 1_555 1_555
C10 N6 1_555 1_555
Fe1B S2 1_555 1_555
Fe1B_2 S1 1_555 1_555
S1B Fe1 1_555 1_555
S2B Fe1 1_555 1_555
N4B Fe1 1_555 1_555
N4 Fe1B_2 1_555 1_555
C4 C5 1_555 1_555
C7 C8 1_555 1_555

#END
