
#######################################################################
#
#                 Cambridge Crystallographic Data Centre
#                                CCDC 
#
#######################################################################
#
# If this CIF has been generated from an entry in the Cambridge 
# Structural Database, then it will include bibliographic, chemical, 
# crystal, experimental, refinement or atomic coordinate data resulting 
# from the CCDC's data processing and validation procedures.
#
#######################################################################

data_BANTAN
_symmetry_cell_setting           monoclinic
_symmetry_space_group_name_H-M   'C 2/c'
_symmetry_Int_Tables_number      15
_space_group_name_Hall           '-C 2yn'
loop_
_symmetry_equiv_pos_site_id
_symmetry_equiv_pos_as_xyz
1 x,y,z
2 -x,y,1/2-z
3 1/2+x,1/2+y,z
4 1/2-x,1/2+y,1/2-z
5 -x,-y,-z
6 x,-y,1/2+z
7 1/2-x,1/2-y,-z
8 1/2+x,1/2-y,1/2+z
_cell_length_a                   12.7188(10)
_cell_length_b                   8.3691(6)
_cell_length_c                   14.2281(11)
_cell_angle_alpha                90
_cell_angle_beta                 100.725(2)
_cell_angle_gamma                90
_cell_volume                     1488.05
loop_
_atom_site_label
_atom_site_type_symbol
_atom_site_fract_x
_atom_site_fract_y
_atom_site_fract_z
Fe1 Fe 0.0000 0.0000 0.5000
N1 N -0.03029(10) -0.23509(16) 0.55179(9)
N2 N -0.01814(11) -0.45697(17) 0.63631(10)
N3 N -0.12781(12) 0.09208(18) 0.57054(10)
N4 N -0.21818(13) 0.0770(3) 0.70860(11)
N5 N -0.11563(12) 0.03948(19) 0.87090(10)
C1 C 0.02764(12) -0.31603(19) 0.62278(11)
H1 H 0.0933 -0.2794 0.6596
C2 C -0.11114(15) -0.4676(2) 0.56972(13)
H2 H -0.1608 -0.5536 0.5614
C3 C -0.11759(13) -0.3302(2) 0.51822(12)
H3 H -0.1739 -0.3036 0.4668
C4 C 0.02477(12) -0.58118(18) 0.70516(11)
H4 H 0.1031 -0.5661 0.7241
H5 H 0.0124 -0.6868 0.6737
C5 C -0.16738(12) 0.0831(2) 0.63687(11)
C6 C -0.16025(13) 0.0563(2) 0.79396(12)
Fe1A Fe 0.0000 0.0000 1.0000
N1A N 0.03029(10) -0.23509(16) 0.94821(9)
N1D N 0.03029(10) 0.23509(16) 0.44821(9)
N2A N 0.01814(11) -0.45697(17) 0.86369(10)
N3A N 0.12781(12) 0.09208(18) 0.92946(10)
N3D N 0.12781(12) -0.09208(18) 0.42946(10)
N4A N 0.21818(13) 0.0770(3) 0.79140(11)
N5A N 0.11563(12) 0.03948(19) 0.62910(10)
N5E N -0.11563(12) -0.03948(19) 0.37090(10)
C1A C -0.02764(12) -0.31603(19) 0.87722(11)
H1A H -0.0933 -0.2794 0.8404
C2A C 0.11114(15) -0.4676(2) 0.93028(13)
H2A H 0.1608 -0.5536 0.9386
C3A C 0.11759(13) -0.3302(2) 0.98178(12)
H3A H 0.1739 -0.3036 1.0332
C4A C -0.02477(12) -0.58118(18) 0.79484(11)
H4A H -0.1031 -0.5661 0.7759
H5A H -0.0124 -0.6868 0.8263
C5A C 0.16738(12) 0.0831(2) 0.86313(11)
C6A C 0.16025(13) 0.0563(2) 0.70604(12)
loop_
_geom_bond_atom_site_label_1
_geom_bond_atom_site_label_2
_geom_bond_site_symmetry_1
_geom_bond_site_symmetry_2
Fe1 N1 1_555 1_555
N1 C1 1_555 1_555
N2 C1 1_555 1_555
N3 Fe1 1_555 1_555
N4 C5 1_555 1_555
N5 C6 1_555 1_555
C1 H1 1_555 1_555
C2 N2 1_555 1_555
H2 C2 1_555 1_555
C3 N1 1_555 1_555
H3 C3 1_555 1_555
C4 N2 1_555 1_555
H4 C4 1_555 1_555
H5 C4 1_555 1_555
C5 N3 1_555 1_555
C6 N4 1_555 1_555
Fe1A N5 1_555 1_555
N1A Fe1A 1_555 1_555
N1D Fe1 1_555 1_555
N2A C1A 1_555 1_555
N3A Fe1A 1_555 1_555
N3D Fe1 1_555 1_555
N4A C5A 1_555 1_555
N5A Fe1 1_555 1_555
N5E Fe1 1_555 1_555
C1A N1A 1_555 1_555
H1A C1A 1_555 1_555
C2A N2A 1_555 1_555
H2A C2A 1_555 1_555
C3A N1A 1_555 1_555
H3A C3A 1_555 1_555
C4A C4 1_555 1_555
H4A C4A 1_555 1_555
H5A C4A 1_555 1_555
C5A N3A 1_555 1_555
C6A N4A 1_555 1_555
C2 C3 1_555 1_555
N2A C4A 1_555 1_555
N5A C6A 1_555 1_555
C2A C3A 1_555 1_555

#END
