
#######################################################################
#
#                 Cambridge Crystallographic Data Centre
#                                CCDC 
#
#######################################################################
#
# If this CIF has been generated from an entry in the Cambridge 
# Structural Database, then it will include bibliographic, chemical, 
# crystal, experimental, refinement or atomic coordinate data resulting 
# from the CCDC's data processing and validation procedures.
#
#######################################################################

data_BANTIV
_symmetry_cell_setting           monoclinic
_symmetry_space_group_name_H-M   'P 21/c'
_symmetry_Int_Tables_number      14
_space_group_name_Hall           '-P 2ybc'
loop_
_symmetry_equiv_pos_site_id
_symmetry_equiv_pos_as_xyz
1 x,y,z
2 -x,1/2+y,1/2-z
3 -x,-y,-z
4 x,1/2-y,1/2+z
_cell_length_a                   8.3063(18)
_cell_length_b                   16.999(3)
_cell_length_c                   8.9049(18)
_cell_angle_alpha                90
_cell_angle_beta                 109.785(5)
_cell_angle_gamma                90
_cell_volume                     1183.14
loop_
_atom_site_label
_atom_site_type_symbol
_atom_site_fract_x
_atom_site_fract_y
_atom_site_fract_z
Fe1 Fe 0.0000 0.5000 0.0000
S1 S 0.56408(13) 0.56820(7) 0.32870(13)
N1 N 0.2110(4) 0.61660(17) -0.3270(3)
N2 N 0.0516(4) 0.60143(19) -0.4330(4)
N3 N 0.0738(4) 0.55996(17) -0.1862(3)
N4 N 0.8888(4) 0.79480(17) -0.2689(3)
N5 N 1.0500(4) 0.77192(18) -0.2549(4)
N6 N 0.9870(4) 0.88821(17) -0.3817(3)
N7 N 0.2638(4) 0.49337(19) 0.1421(4)
C1 C 0.3386(5) 0.6528(2) -0.3848(4)
H1 H 0.2841 0.6965 -0.4576
H2 H 0.3770 0.6133 -0.4471
C2 C 0.4940(5) 0.6843(2) -0.2525(4)
H3 H 0.4569 0.7218 -0.1856
H4 H 0.5552 0.6404 -0.1838
C3 C 0.6132(5) 0.7255(2) -0.3245(4)
H5 H 0.6349 0.6904 -0.4043
H6 H 0.5565 0.7736 -0.3807
C4 C 0.7825(5) 0.7479(2) -0.1999(4)
H7 H 0.7607 0.7785 -0.1141
H8 H 0.8452 0.6995 -0.1516
C5 C -0.0249(5) 0.5680(2) -0.3421(4)
H9 H -0.1405 0.5507 -0.3824
C6 C 0.2216(5) 0.5911(2) -0.1828(4)
H10 H 0.3210 0.5946 -0.0903
C7 C 1.1027(5) 0.8294(2) -0.3250(5)
H11 H 1.2128 0.8299 -0.3353
C8 C 0.8548(5) 0.8639(2) -0.3434(4)
H12 H 0.7502 0.8918 -0.3659
C9 C 0.3892(5) 0.5240(2) 0.2211(4)
Fe1A Fe -1.0000 0.0000 0.5000
Fe1A_2 Fe 1.0000 1.0000 -0.5000
S1B S -0.56408(13) 0.43180(7) -0.32870(13)
N1B N -0.2110(4) 0.38340(17) 0.3270(3)
N2B N -0.0516(4) 0.39857(19) 0.4330(4)
N3B N -0.0738(4) 0.44004(17) 0.1862(3)
N4B N -0.8888(4) 0.20520(17) 0.2689(3)
N5B N -1.0500(4) 0.22808(18) 0.2549(4)
N6B N -0.9870(4) 0.11179(17) 0.3817(3)
N6A N 0.0130(4) 0.38821(17) -0.1183(3)
N6C N -0.0130(4) 0.61179(17) 0.1183(3)
N7B N -0.2638(4) 0.50663(19) -0.1421(4)
C1B C -0.3386(5) 0.3472(2) 0.3848(4)
H1B H -0.2841 0.3035 0.4576
H2B H -0.3770 0.3867 0.4471
C2B C -0.4940(5) 0.3157(2) 0.2525(4)
H3B H -0.4569 0.2782 0.1856
H4B H -0.5552 0.3596 0.1838
C3B C -0.6132(5) 0.2745(2) 0.3245(4)
H5B H -0.6349 0.3096 0.4043
H6B H -0.5565 0.2264 0.3807
C4B C -0.7825(5) 0.2521(2) 0.1999(4)
H7B H -0.7607 0.2215 0.1141
H8B H -0.8452 0.3005 0.1516
C5B C 0.0249(5) 0.4320(2) 0.3421(4)
H9B H 0.1405 0.4493 0.3824
C6B C -0.2216(5) 0.4089(2) 0.1828(4)
H10B H -0.3210 0.4054 0.0903
C7B C -1.1027(5) 0.1706(2) 0.3250(5)
H11B H -1.2128 0.1701 0.3353
C8B C -0.8548(5) 0.1361(2) 0.3434(4)
H12B H -0.7502 0.1082 0.3659
C9B C -0.3892(5) 0.4760(2) -0.2211(4)
loop_
_geom_bond_atom_site_label_1
_geom_bond_atom_site_label_2
_geom_bond_site_symmetry_1
_geom_bond_site_symmetry_2
Fe1 N3 1_555 1_555
S1 C9 1_555 1_555
N1 N2 1_555 1_555
N2 C5 1_555 1_555
N3 C5 1_555 1_555
N4 N5 1_555 1_555
N5 C7 1_555 1_555
N6 C7 1_555 1_555
N7 Fe1 1_555 1_555
C1 N1 1_555 1_555
H1 C1 1_555 1_555
H2 C1 1_555 1_555
C2 C1 1_555 1_555
H3 C2 1_555 1_555
H4 C2 1_555 1_555
C3 C2 1_555 1_555
H5 C3 1_555 1_555
H6 C3 1_555 1_555
C4 N4 1_555 1_555
H7 C4 1_555 1_555
H8 C4 1_555 1_555
C5 H9 1_555 1_555
C6 N1 1_555 1_555
H10 C6 1_555 1_555
C7 H11 1_555 1_555
C8 N4 1_555 1_555
H12 C8 1_555 1_555
C9 N7 1_555 1_555
Fe1A N6B 1_555 1_555
Fe1A_2 N6 1_555 1_555
S1B C9B 1_555 1_555
N1B N2B 1_555 1_555
N2B C5B 1_555 1_555
N3B Fe1 1_555 1_555
N4B N5B 1_555 1_555
N5B C7B 1_555 1_555
N6B C7B 1_555 1_555
N6A Fe1 1_555 1_555
N6C Fe1 1_555 1_555
N7B Fe1 1_555 1_555
C1B N1B 1_555 1_555
H1B C1B 1_555 1_555
H2B C1B 1_555 1_555
C2B C1B 1_555 1_555
H3B C2B 1_555 1_555
H4B C2B 1_555 1_555
C3B C2B 1_555 1_555
H5B C3B 1_555 1_555
H6B C3B 1_555 1_555
C4B N4B 1_555 1_555
H7B C4B 1_555 1_555
H8B C4B 1_555 1_555
C5B N3B 1_555 1_555
H9B C5B 1_555 1_555
C6B N1B 1_555 1_555
H10B C6B 1_555 1_555
C7B H11B 1_555 1_555
C8B N4B 1_555 1_555
H12B C8B 1_555 1_555
C9B N7B 1_555 1_555
N3 C6 1_555 1_555
N6 C8 1_555 1_555
C3 C4 1_555 1_555
N3B C6B 1_555 1_555
N6B C8B 1_555 1_555
C3B C4B 1_555 1_555

#END
