
#######################################################################
#
#                 Cambridge Crystallographic Data Centre
#                                CCDC 
#
#######################################################################
#
# If this CIF has been generated from an entry in the Cambridge 
# Structural Database, then it will include bibliographic, chemical, 
# crystal, experimental, refinement or atomic coordinate data resulting 
# from the CCDC's data processing and validation procedures.
#
#######################################################################

data_BANTER
_symmetry_cell_setting           monoclinic
_symmetry_space_group_name_H-M   'P 21/c'
_symmetry_Int_Tables_number      14
_space_group_name_Hall           '-P 2ybc'
loop_
_symmetry_equiv_pos_site_id
_symmetry_equiv_pos_as_xyz
1 x,y,z
2 -x,1/2+y,1/2-z
3 -x,-y,-z
4 x,1/2-y,1/2+z
_cell_length_a                   6.8973(8)
_cell_length_b                   14.7556(19)
_cell_length_c                   10.1814(14)
_cell_angle_alpha                90
_cell_angle_beta                 96.254(3)
_cell_angle_gamma                90
_cell_volume                     1030.03
loop_
_atom_site_label
_atom_site_type_symbol
_atom_site_fract_x
_atom_site_fract_y
_atom_site_fract_z
Fe1 Fe 0.0000 0.5000 0.5000
N1 N 0.12060(19) 0.63741(9) 0.48925(13)
N2 N 0.34361(19) 0.73976(9) 0.45581(13)
N3 N 0.86520(18) 0.96077(8) 0.17687(12)
N4 N 0.65261(18) 0.91027(9) 0.30624(13)
N5 N 0.27070(19) 0.45872(11) 0.61297(13)
N6 N 0.3165(2) 0.42543(10) 0.71653(13)
N7 N 0.3698(3) 0.39393(14) 0.81938(16)
C1 C 0.2703(2) 0.65721(10) 0.42398(16)
H1 H 0.3202 0.6179 0.3619
C2 C 0.0968(2) 0.71220(11) 0.56696(16)
H2 H -0.0009 0.7184 0.6253
C3 C 0.2331(3) 0.77568(11) 0.54799(17)
H3 H 0.2492 0.8332 0.5897
C4 C 0.6882(2) 0.92777(10) 0.18135(15)
H4 H 0.5973 0.9176 0.1058
C5 C 0.9469(2) 0.96360(13) 0.30627(16)
H5 H 1.0751 0.9842 0.3348
C6 C 0.8175(3) 0.93271(14) 0.38722(16)
H6 H 0.8372 0.9277 0.4807
C7 C 0.5168(2) 0.77914(11) 0.40767(17)
H7 H 0.5626 0.7390 0.3395
H8 H 0.6223 0.7837 0.4816
C8 C 0.4743(2) 0.87259(11) 0.34915(16)
H9 H 0.3725 0.8682 0.2730
H10 H 0.4255 0.9128 0.4162
Fe1A Fe -1.0000 0.0000 1.0000
Fe1A_2 Fe 1.0000 1.0000 0.0000
N1B N -0.12060(19) 0.36259(9) 0.51075(13)
N2B N -0.34361(19) 0.26024(9) 0.54419(13)
N3B N -0.86520(18) 0.03923(8) 0.82313(12)
N3A N 0.13480(18) 0.46077(8) 0.32313(12)
N3C N -0.13480(18) 0.53923(8) 0.67687(12)
N4B N -0.65261(18) 0.08973(9) 0.69376(13)
N5B N -0.27070(19) 0.54128(11) 0.38703(13)
N6B N -0.3165(2) 0.57457(10) 0.28347(13)
N7B N -0.3698(3) 0.60607(14) 0.18062(16)
C1B C -0.2703(2) 0.34279(10) 0.57602(16)
H1B H -0.3202 0.3821 0.6381
C2B C -0.0968(2) 0.28780(11) 0.43304(16)
H2B H 0.0009 0.2816 0.3747
C3B C -0.2331(3) 0.22432(11) 0.45201(17)
H3B H -0.2492 0.1668 0.4103
C4B C -0.6882(2) 0.07223(10) 0.81865(15)
H4B H -0.5973 0.0824 0.8942
C5B C -0.9469(2) 0.03640(13) 0.69373(16)
H5B H -1.0751 0.0158 0.6652
C6B C -0.8175(3) 0.06729(14) 0.61278(16)
H6B H -0.8372 0.0723 0.5193
C7B C -0.5168(2) 0.22086(11) 0.59233(17)
H7B H -0.5626 0.2610 0.6605
H8B H -0.6223 0.2163 0.5184
C8B C -0.4743(2) 0.12741(11) 0.65085(16)
H9B H -0.3725 0.1318 0.7270
H10B H -0.4255 0.0872 0.5838
loop_
_geom_bond_atom_site_label_1
_geom_bond_atom_site_label_2
_geom_bond_site_symmetry_1
_geom_bond_site_symmetry_2
Fe1 N1 1_555 1_555
N1 C1 1_555 1_555
N2 C1 1_555 1_555
N3 C4 1_555 1_555
N4 C4 1_555 1_555
N5 Fe1 1_555 1_555
N6 N5 1_555 1_555
N7 N6 1_555 1_555
C1 H1 1_555 1_555
C2 N1 1_555 1_555
H2 C2 1_555 1_555
C3 N2 1_555 1_555
H3 C3 1_555 1_555
C4 H4 1_555 1_555
C5 N3 1_555 1_555
H5 C5 1_555 1_555
C6 N4 1_555 1_555
H6 C6 1_555 1_555
C7 N2 1_555 1_555
H7 C7 1_555 1_555
H8 C7 1_555 1_555
C8 N4 1_555 1_555
H9 C8 1_555 1_555
H10 C8 1_555 1_555
Fe1A N3B 1_555 1_555
Fe1A_2 N3 1_555 1_555
N1B Fe1 1_555 1_555
N2B C1B 1_555 1_555
N3B C4B 1_555 1_555
N3A Fe1 1_555 1_555
N3C Fe1 1_555 1_555
N4B C4B 1_555 1_555
N5B Fe1 1_555 1_555
N6B N5B 1_555 1_555
N7B N6B 1_555 1_555
C1B N1B 1_555 1_555
H1B C1B 1_555 1_555
C2B N1B 1_555 1_555
H2B C2B 1_555 1_555
C3B N2B 1_555 1_555
H3B C3B 1_555 1_555
C4B H4B 1_555 1_555
C5B N3B 1_555 1_555
H5B C5B 1_555 1_555
C6B N4B 1_555 1_555
H6B C6B 1_555 1_555
C7B N2B 1_555 1_555
H7B C7B 1_555 1_555
H8B C7B 1_555 1_555
C8B N4B 1_555 1_555
H9B C8B 1_555 1_555
H10B C8B 1_555 1_555
C2 C3 1_555 1_555
C5 C6 1_555 1_555
C7 C8 1_555 1_555
C2B C3B 1_555 1_555
C5B C6B 1_555 1_555
C7B C8B 1_555 1_555

#END
