
#######################################################################
#
#                 Cambridge Crystallographic Data Centre
#                                CCDC 
#
#######################################################################
#
# If this CIF has been generated from an entry in the Cambridge 
# Structural Database, then it will include bibliographic, chemical, 
# crystal, experimental, refinement or atomic coordinate data resulting 
# from the CCDC's data processing and validation procedures.
#
#######################################################################

data_BAOXAL
_symmetry_cell_setting           monoclinic
_symmetry_space_group_name_H-M   'P 21/c'
_symmetry_Int_Tables_number      14
_space_group_name_Hall           '-P 2ybc'
loop_
_symmetry_equiv_pos_site_id
_symmetry_equiv_pos_as_xyz
1 x,y,z
2 -x,1/2+y,1/2-z
3 -x,-y,-z
4 x,1/2-y,1/2+z
_cell_length_a                   7.41(3)
_cell_length_b                   10.98(3)
_cell_length_c                   7.03(3)
_cell_angle_alpha                90
_cell_angle_beta                 103.0
_cell_angle_gamma                90
_cell_volume                     557.314
loop_
_atom_site_label
_atom_site_type_symbol
_atom_site_fract_x
_atom_site_fract_y
_atom_site_fract_z
Ba1 Ba 0.19100 0.00890 0.28870
C1 C 0.20630 -0.20100 -0.06930
C2 C 0.03680 -0.24880 -0.01060
O1 O 0.24210 -0.08870 -0.05950
O2 O 0.56630 -0.02340 0.30480
O3 O 0.30840 -0.28230 -0.12930
O4 O 0.35530 0.24320 0.35210
O5 O -0.01730 -0.35890 -0.00060
O6 O -0.06380 -0.16610 0.02830
O2B O 0.43370 0.02340 0.69520
O5C O -0.01730 -0.14110 0.49940
O6B O 0.06380 0.16610 -0.02830
O3C O 0.30840 -0.21770 0.37070
O5A O 0.01730 0.14110 0.50060
Ba1B Ba 0.80900 -0.00890 0.71130
Ba1B_2 Ba -0.19100 -0.00890 -0.28870
Ba1C Ba 0.19100 -0.50890 -0.21130
Ba1A Ba -0.19100 -0.49110 0.21130
loop_
_geom_bond_atom_site_label_1
_geom_bond_atom_site_label_2
_geom_bond_site_symmetry_1
_geom_bond_site_symmetry_2
Ba1 O1 1_555 1_555
C1 C2 1_555 1_555
C2 O5 1_555 1_555
O1 C1 1_555 1_555
O2 Ba1 1_555 1_555
O3 C1 1_555 1_555
O4 Ba1 1_555 1_555
O5 Ba1C 1_555 1_555
O6 Ba1 1_555 1_555
O2B Ba1 1_555 1_555
O5C Ba1 1_555 1_555
O6B Ba1 1_555 1_555
O3C Ba1 1_555 1_555
O5A Ba1 1_555 1_555
Ba1B O2 1_555 1_555
Ba1B_2 O6 1_555 1_555
Ba1C O3 1_555 1_555
Ba1A O5 1_555 1_555
C2 O6 1_555 1_555
O2B Ba1B 1_555 1_555
O6B Ba1B_2 1_555 1_555

#END
