
#######################################################################
#
#                 Cambridge Crystallographic Data Centre
#                                CCDC 
#
#######################################################################
#
# If this CIF has been generated from an entry in the Cambridge 
# Structural Database, then it will include bibliographic, chemical, 
# crystal, experimental, refinement or atomic coordinate data resulting 
# from the CCDC's data processing and validation procedures.
#
#######################################################################

data_BAOXAL02
_symmetry_cell_setting           monoclinic
_symmetry_space_group_name_H-M   'P 21/c'
_symmetry_Int_Tables_number      14
_space_group_name_Hall           '-P 2ybc'
loop_
_symmetry_equiv_pos_site_id
_symmetry_equiv_pos_as_xyz
1 x,y,z
2 -x,1/2+y,1/2-z
3 -x,-y,-z
4 x,1/2-y,1/2+z
_cell_length_a                   7.538(1)
_cell_length_b                   11.062(1)
_cell_length_c                   7.105(1)
_cell_angle_alpha                90
_cell_angle_beta                 105.42(1)
_cell_angle_gamma                90
_cell_volume                     571.126
loop_
_atom_site_label
_atom_site_type_symbol
_atom_site_fract_x
_atom_site_fract_y
_atom_site_fract_z
Ba1 Ba 0.1913(1) 0.0086(1) 0.2889(1)
C1 C 0.207(3) -0.202(1) -0.077(3)
C2 C 0.036(2) -0.246(1) -0.011(2)
O1 O 0.234(2) -0.089(1) -0.067(2)
O2 O 0.309(2) -0.278(1) -0.129(2)
O3 O 0.014(2) -0.359(1) -0.003(3)
O4 O -0.062(2) -0.166(1) 0.033(2)
O5 O 0.419(2) 0.025(1) 0.689(2)
O6 O 0.356 0.245 0.359
H1 H 0.403 0.103 0.740
H2 H 0.382 -0.036 0.765
H3 H 0.460 0.245 0.443
H4 H 0.267 0.273 0.393
O3C O 0.014(2) -0.141(1) 0.497(3)
O4B O 0.062(2) 0.166(1) -0.033(2)
O5B O 0.581(2) -0.025(1) 0.311(2)
O2C O 0.309(2) -0.222(1) 0.371(2)
O3A O -0.014(2) 0.141(1) 0.503(3)
Ba1B Ba -0.1913(1) -0.0086(1) -0.2889(1)
Ba1B_2 Ba 0.8087(1) -0.0086(1) 0.7111(1)
H1B H 0.597 -0.103 0.260
H2B H 0.618 0.036 0.235
Ba1A Ba -0.1913(1) -0.4914(1) 0.2111(1)
Ba1C Ba 0.1913(1) -0.5086(1) -0.2111(1)
loop_
_geom_bond_atom_site_label_1
_geom_bond_atom_site_label_2
_geom_bond_site_symmetry_1
_geom_bond_site_symmetry_2
Ba1 O1 1_555 1_555
C1 C2 1_555 1_555
C2 O3 1_555 1_555
O1 C1 1_555 1_555
O2 C1 1_555 1_555
O3 Ba1A 1_555 1_555
O4 Ba1 1_555 1_555
O5 Ba1 1_555 1_555
O6 Ba1 1_555 1_555
H1 O5 1_555 1_555
H2 O5 1_555 1_555
H3 O6 1_555 1_555
H4 O6 1_555 1_555
O3C Ba1 1_555 1_555
O4B Ba1 1_555 1_555
O5B Ba1 1_555 1_555
O2C Ba1 1_555 1_555
O3A Ba1 1_555 1_555
Ba1B O4 1_555 1_555
Ba1B_2 O5 1_555 1_555
H1B O5B 1_555 1_555
H2B O5B 1_555 1_555
Ba1C O2 1_555 1_555
C2 O4 1_555 1_555
O3 Ba1C 1_555 1_555
O4B Ba1B 1_555 1_555
O5B Ba1B_2 1_555 1_555

#END
