
#######################################################################
#
#                 Cambridge Crystallographic Data Centre
#                                CCDC 
#
#######################################################################
#
# If this CIF has been generated from an entry in the Cambridge 
# Structural Database, then it will include bibliographic, chemical, 
# crystal, experimental, refinement or atomic coordinate data resulting 
# from the CCDC's data processing and validation procedures.
#
#######################################################################

data_BAPJIN
_symmetry_cell_setting           orthorhombic
_symmetry_space_group_name_H-M   'P 21 21 21'
_symmetry_Int_Tables_number      19
_space_group_name_Hall           'P 2ac 2ab'
loop_
_symmetry_equiv_pos_site_id
_symmetry_equiv_pos_as_xyz
1 x,y,z
2 1/2-x,-y,1/2+z
3 -x,1/2+y,1/2-z
4 1/2+x,1/2-y,-z
_cell_length_a                   8.6240(17)
_cell_length_b                   11.687(2)
_cell_length_c                   20.052(4)
_cell_angle_alpha                90
_cell_angle_beta                 90
_cell_angle_gamma                90
_cell_volume                     2021.01
loop_
_atom_site_label
_atom_site_type_symbol
_atom_site_fract_x
_atom_site_fract_y
_atom_site_fract_z
Cs1 Cs 0.72126(5) 0.81870(4) -0.04561(2)
O1 O 0.7390(5) 0.6582(4) 0.0774(2)
O2 O 0.5404(5) 0.8076(5) 0.1006(2)
O3 O 0.5586(6) 0.5723(5) -0.0057(2)
C1 C 0.8524(9) 0.6031(6) 0.1088(4)
C2 C 0.9269(10) 0.6383(8) 0.1657(4)
C3 C 1.0507(10) 0.5710(10) 0.1945(4)
H1 H 1.1025 0.5945 0.2340
C4 C 1.0894(12) 0.4734(10) 0.1626(6)
H2 H 1.1716 0.4293 0.1808
C5 C 1.0199(11) 0.4335(10) 0.1067(7)
H3 H 1.0513 0.3631 0.0872
C6 C 0.9046(9) 0.4965(7) 0.0794(5)
H4 H 0.8563 0.4700 0.0397
C7 C 0.8823(13) 0.7402(10) 0.1989(5)
H5 H 0.8532 0.7982 0.1659
H6 H 0.9692 0.7685 0.2258
H7 H 0.7936 0.7244 0.2281
C8 C 0.4616(8) 0.8113(8) 0.1598(3)
C9 C 0.4673(9) 0.7134(9) 0.2027(4)
H8 H 0.5255 0.6476 0.1907
C10 C 0.3858(11) 0.7172(10) 0.2623(4)
H9 H 0.3913 0.6545 0.2923
C11 C 0.2984(11) 0.8097(11) 0.2780(5)
H10 H 0.2404 0.8086 0.3183
C12 C 0.2905(12) 0.9040(9) 0.2385(4)
H11 H 0.2301 0.9681 0.2516
C13 C 0.3751(10) 0.9055(8) 0.1762(4)
C14 C 0.3670(12) 1.0046(8) 0.1305(6)
H12 H 0.4716 1.0244 0.1153
H13 H 0.3214 1.0701 0.1539
H14 H 0.3025 0.9850 0.0919
C15 C 0.4865(8) 0.4726(7) 0.0082(4)
C16 C 0.4955(9) 0.4212(7) 0.0694(4)
H15 H 0.5574 0.4546 0.1034
C17 C 0.4149(9) 0.3207(8) 0.0822(4)
H16 H 0.4228 0.2850 0.1247
C18 C 0.3237(10) 0.2729(8) 0.0333(6)
H17 H 0.2666 0.2051 0.0422
C19 C 0.3153(10) 0.3225(9) -0.0273(5)
H18 H 0.2533 0.2880 -0.0609
C20 C 0.3948(9) 0.4224(7) -0.0419(4)
C21 C 0.3854(13) 0.4771(11) -0.1104(5)
H19 H 0.3435 0.4217 -0.1424
H20 H 0.4893 0.5008 -0.1246
H21 H 0.3173 0.5442 -0.1085
Cs1C Cs 0.22126(5) 0.68130(4) 0.04561(2)
O2C O 1.0404(5) 0.6924(5) -0.1006(2)
O3C O 1.0586(6) 0.9277(5) 0.0057(2)
loop_
_geom_bond_atom_site_label_1
_geom_bond_atom_site_label_2
_geom_bond_site_symmetry_1
_geom_bond_site_symmetry_2
Cs1 O1 1_555 1_555
O1 C1 1_555 1_555
O2 Cs1 1_555 1_555
O3 Cs1 1_555 1_555
C1 C2 1_555 1_555
C2 C3 1_555 1_555
C3 H1 1_555 1_555
C4 C3 1_555 1_555
H2 C4 1_555 1_555
C5 C4 1_555 1_555
H3 C5 1_555 1_555
C6 C1 1_555 1_555
H4 C6 1_555 1_555
C7 C2 1_555 1_555
H5 C7 1_555 1_555
H6 C7 1_555 1_555
H7 C7 1_555 1_555
C8 O2 1_555 1_555
C9 C8 1_555 1_555
H8 C9 1_555 1_555
C10 C9 1_555 1_555
H9 C10 1_555 1_555
C11 C10 1_555 1_555
H10 C11 1_555 1_555
C12 C11 1_555 1_555
H11 C12 1_555 1_555
C13 C8 1_555 1_555
C14 C13 1_555 1_555
H12 C14 1_555 1_555
H13 C14 1_555 1_555
H14 C14 1_555 1_555
C15 O3 1_555 1_555
C16 C15 1_555 1_555
H15 C16 1_555 1_555
C17 C16 1_555 1_555
H16 C17 1_555 1_555
C18 C17 1_555 1_555
H17 C18 1_555 1_555
C19 C18 1_555 1_555
H18 C19 1_555 1_555
C20 C15 1_555 1_555
C21 C20 1_555 1_555
H19 C21 1_555 1_555
H20 C21 1_555 1_555
H21 C21 1_555 1_555
Cs1C O2 1_555 1_555
O2C Cs1 1_555 1_555
O3C Cs1 1_555 1_555
O3 Cs1C 1_555 1_555
C5 C6 1_555 1_555
C12 C13 1_555 1_555
C19 C20 1_555 1_555

#END
