
#######################################################################
#
#                 Cambridge Crystallographic Data Centre
#                                CCDC 
#
#######################################################################
#
# If this CIF has been generated from an entry in the Cambridge 
# Structural Database, then it will include bibliographic, chemical, 
# crystal, experimental, refinement or atomic coordinate data resulting 
# from the CCDC's data processing and validation procedures.
#
#######################################################################

data_BAPJUZ
_symmetry_cell_setting           triclinic
_symmetry_space_group_name_H-M   'P 1'
_symmetry_Int_Tables_number      1
_space_group_name_Hall           'P 1'
loop_
_symmetry_equiv_pos_site_id
_symmetry_equiv_pos_as_xyz
1 x,y,z
_cell_length_a                   12.2711(13)
_cell_length_b                   12.7492(14)
_cell_length_c                   17.1160(18)
_cell_angle_alpha                92.199(2)
_cell_angle_beta                 108.397(2)
_cell_angle_gamma                106.231(2)
_cell_volume                     2415.95
loop_
_atom_site_label
_atom_site_type_symbol
_atom_site_fract_x
_atom_site_fract_y
_atom_site_fract_z
Cs1 Cs 0.46054(7) 0.53482(7) 0.87422(4)
Cs2 Cs 0.38350(3) 0.51857(3) 0.47908(2)
Cs3 Cs 0.52731(3) 0.53886(3) 1.27398(2)
O1 O 0.2673(5) 0.2822(5) 0.7510(4)
O2 O 0.6330(4) 0.5945(4) 1.0596(3)
O3 O 0.4273(5) 0.5292(4) 1.0761(3)
O4 O 0.6498(5) 0.7714(4) 0.9943(3)
O5 O 0.2829(4) 0.4626(4) 0.6910(3)
O6 O 0.4930(5) 0.5373(5) 0.6748(4)
O7 O 0.4143(5) 0.6765(4) 0.3543(4)
O8 O 0.6314(5) 0.7798(4) 1.4086(3)
O9 O 0.4974(5) 0.3784(4) 0.4009(3)
C1 C 0.1595(7) 0.2241(7) 0.7555(5)
C2 C 0.1458(7) 0.1169(6) 0.7806(4)
C3 C 0.0380(7) 0.0669(7) 0.7892(5)
H1 H 0.0278 -0.0024 0.8092
C4 C -0.0582(7) 0.1089(7) 0.7713(5)
H2 H -0.1316 0.0685 0.7781
C5 C -0.0460(7) 0.2103(8) 0.7432(5)
H3 H -0.1112 0.2404 0.7291
C6 C 0.0665(7) 0.2681(7) 0.7361(5)
H4 H 0.0773 0.3384 0.7176
C7 C 0.2477(7) 0.0648(6) 0.7982(5)
C8 C 0.3605(8) 0.1414(7) 0.8739(5)
H5 H 0.3898 0.2140 0.8576
H6 H 0.4251 0.1071 0.8883
H7 H 0.3355 0.1501 0.9222
C9 C 0.2870(8) 0.0549(7) 0.7237(5)
H8 H 0.2190 0.0069 0.6773
H9 H 0.3536 0.0231 0.7379
H10 H 0.3137 0.1281 0.7077
C10 C 0.2090(9) -0.0523(7) 0.8223(6)
H11 H 0.1854 -0.0482 0.8717
H12 H 0.2767 -0.0827 0.8345
H13 H 0.1406 -0.1001 0.7761
C11 C 0.7055(6) 0.6026(6) 1.1396(4)
C12 C 0.7459(7) 0.5169(6) 1.1708(5)
C13 C 0.8130(8) 0.5284(7) 1.2570(5)
H14 H 0.8396 0.4691 1.2790
C14 C 0.8388(7) 0.6204(8) 1.3071(6)
H15 H 0.8802 0.6252 1.3649
C15 C 0.8049(7) 0.7116(6) 1.2749(5)
H16 H 0.8282 0.7794 1.3099
C16 C 0.7359(7) 0.7000(7) 1.1900(5)
H17 H 0.7104 0.7597 1.1676
C17 C 0.7228(8) 0.4078(6) 1.1131(6)
C18 C 0.7774(9) 0.4375(8) 1.0456(7)
H18 H 0.7616 0.3705 1.0084
H19 H 0.8647 0.4725 1.0711
H20 H 0.7411 0.4887 1.0136
C19 C 0.5870(8) 0.3470(7) 1.0725(6)
H21 H 0.5749 0.2857 1.0311
H22 H 0.5458 0.3983 1.0452
H23 H 0.5538 0.3183 1.1152
C20 C 0.7797(12) 0.3250(10) 1.1619(9)
H24 H 0.7423 0.3023 1.2039
H25 H 0.8667 0.3604 1.1893
H26 H 0.7662 0.2600 1.1234
C21 C 0.3431(7) 0.5771(7) 1.0321(4)
C22 C 0.2228(8) 0.5132(7) 1.0019(5)
C23 C 0.1455(8) 0.5731(10) 0.9561(6)
H27 H 0.0617 0.5345 0.9321
C24 C 0.1822(12) 0.6785(14) 0.9447(7)
H28 H 0.1254 0.7107 0.9118
C25 C 0.3062(10) 0.7437(9) 0.9815(6)
H29 H 0.3324 0.8199 0.9767
C26 C 0.3843(8) 0.6918(7) 1.0234(6)
H30 H 0.4677 0.7318 1.0475
C27 C 0.1797(8) 0.3939(8) 1.0094(6)
C28 C 0.2317(10) 0.3287(10) 0.9605(8)
H31 H 0.3197 0.3504 0.9867
H32 H 0.2112 0.3447 0.9031
H33 H 0.1974 0.2495 0.9608
C29 C 0.0433(10) 0.3469(11) 0.9715(12)
H34 H 0.0174 0.2716 0.9843
H35 H 0.0187 0.3457 0.9111
H36 H 0.0059 0.3929 0.9947
C30 C 0.2201(11) 0.3803(9) 1.1011(8)
H37 H 0.200(5) 0.432(4) 1.1343(11)
H38 H 0.180(4) 0.305(2) 1.1095(15)
H39 H 0.3082(15) 0.394(5) 1.1245(14)
C31 C 0.7594(6) 0.8287(6) 0.9889(4)
C32 C 0.8540(8) 0.7783(8) 1.0062(5)
H40 H 0.8422 0.7077 1.0241
C33 C 0.9599(7) 0.8321(8) 0.9966(5)
H41 H 1.0221 0.7983 1.0081
C34 C 0.9797(7) 0.9332(8) 0.9712(5)
H42 H 1.0540 0.9674 0.9631
C35 C 0.8930(7) 0.9868(7) 0.9569(5)
H43 H 0.9101 1.0596 0.9429
C36 C 0.7765(6) 0.9323(6) 0.9633(5)
C37 C 0.6770(7) 0.9887(6) 0.9453(4)
C38 C 0.5681(7) 0.9251(6) 0.8746(5)
H44 H 0.5882 0.9240 0.8236
H45 H 0.5044 0.9599 0.8676
H46 H 0.5396 0.8493 0.8859
C39 C 0.6444(8) 1.0012(7) 1.0258(6)
H47 H 0.5808 1.0367 1.0151
H48 H 0.7162 1.0465 1.0710
H49 H 0.6157 0.9282 1.0416
C40 C 0.7170(9) 1.1041(8) 0.9230(6)
H50 H 0.7386 1.1002 0.8728
H51 H 0.7872 1.1501 0.9690
H52 H 0.6509 1.1363 0.9128
C41 C 0.2115(6) 0.4556(5) 0.6137(4)
C42 C 0.1678(6) 0.5478(6) 0.5839(5)
C43 C 0.1064(8) 0.5352(8) 0.5011(6)
H53 H 0.0832 0.5958 0.4787
C44 C 0.0734(8) 0.4330(8) 0.4435(5)
H54 H 0.0273 0.4277 0.3864
C45 C 0.1094(8) 0.3481(8) 0.4731(6)
H55 H 0.0895 0.2819 0.4371
C46 C 0.1749(7) 0.3576(6) 0.5554(5)
H56 H 0.1977 0.2956 0.5754
C47 C 0.1899(8) 0.6462(7) 0.6438(6)
C48 C 0.1226(9) 0.7249(8) 0.5994(7)
H57 H 0.1523 0.7502 0.5544
H58 H 0.1371 0.7887 0.6394
H59 H 0.0359 0.6859 0.5763
C49 C 0.3251(8) 0.7103(7) 0.6799(7)
H60 H 0.3680 0.6658 0.7154
H61 H 0.3366 0.7796 0.7128
H62 H 0.3569 0.7264 0.6344
C50 C 0.1408(9) 0.6112(8) 0.7132(7)
H63 H 0.0565 0.5646 0.6891
H64 H 0.1453 0.6768 0.7474
H65 H 0.1889 0.5696 0.7479
C51 C 0.5798(7) 0.4912(6) 0.7149(5)
C52 C 0.5492(8) 0.3889(7) 0.7333(5)
H66 H 0.4667 0.3457 0.7147
C53 C 0.6379(9) 0.3439(8) 0.7801(7)
H67 H 0.6149 0.2746 0.7988
C54 C 0.7535(10) 0.3990(10) 0.7978(7)
H68 H 0.8135 0.3651 0.8225
C55 C 0.7876(9) 0.5088(9) 0.7798(7)
H69 H 0.8708 0.5491 0.7949
C56 C 0.7034(7) 0.5569(8) 0.7417(6)
C57 C 0.7405(7) 0.6766(7) 0.7234(6)
C58 C 0.6997(9) 0.7483(8) 0.7747(6)
H70 H 0.6129 0.7166 0.7637
H71 H 0.7164 0.8230 0.7594
H72 H 0.7437 0.7515 0.8339
C59 C 0.8807(9) 0.7231(10) 0.7486(11)
H73 H 0.9177 0.7279 0.8089
H74 H 0.9027 0.7967 0.7320
H75 H 0.9097 0.6739 0.7205
C60 C 0.6870(11) 0.6923(8) 0.6337(6)
H76 H 0.5982(14) 0.677(6) 0.6162(18)
H77 H 0.721(5) 0.7689(19) 0.6239(15)
H78 H 0.703(6) 0.642(4) 0.5955(10)
C61 C 0.4035(6) 0.7969(5) 0.4639(4)
H79 H 0.4778 0.7908 0.4996
C62 C 0.3486(7) 0.8621(5) 0.4932(4)
H80 H 0.3849 0.9011 0.5480
C63 C 0.3529(5) 0.7385(5) 0.3824(4)
C64 C 0.2364(7) 0.8704(5) 0.4401(4)
H81 H 0.1970 0.9154 0.4587
C65 C 0.1861(6) 0.8118(5) 0.3612(4)
H82 H 0.1113 0.8181 0.3264
C66 C 0.2383(7) 0.7434(6) 0.3290(4)
C67 C 0.1790(7) 0.6843(7) 0.2465(5)
C68 C 0.2565(6) 0.7009(6) 0.1885(4)
H83 H 0.2905 0.7799 0.1875
H84 H 0.2056 0.6645 0.1321
H85 H 0.3222 0.6687 0.2096
C69 C 0.0603(8) 0.7059(8) 0.1926(6)
H86 H -0.0023 0.6795 0.2175
H87 H 0.0332 0.6666 0.1362
H88 H 0.0757 0.7852 0.1902
C70 C 0.1432(9) 0.5559(8) 0.2475(7)
H89 H 0.2164 0.5338 0.2677
H90 H 0.0949 0.5180 0.1910
H91 H 0.0958 0.5360 0.2843
C71 C 0.6591(5) 0.8663(5) 1.3660(4)
C72 C 0.5835(6) 0.8644(6) 1.2847(4)
H92 H 0.5135 0.8028 1.2596
C73 C 0.6100(6) 0.9522(6) 1.2402(4)
H93 H 0.5596 0.9496 1.1847
C74 C 0.7113(7) 1.0438(6) 1.2781(5)
H94 H 0.7300 1.1043 1.2489
C75 C 0.7837(6) 1.0453(6) 1.3584(4)
H95 H 0.8467 1.1120 1.3840
C76 C 0.7742(11) 0.9601(8) 1.4052(6)
C77 C 0.8474(7) 0.9640(6) 1.4990(5)
C78 C 0.7546(12) 0.9662(9) 1.5442(7)
H96 H 0.6856 0.8989 1.5239
H97 H 0.7266 1.0307 1.5326
H98 H 0.7938 0.9705 1.6043
C79 C 0.8964(8) 0.8668(7) 1.5121(6)
H99 H 0.9488 0.8679 1.4790
H100 H 0.8291 0.7979 1.4947
H101 H 0.9429 0.8716 1.5711
C80 C 0.9566(8) 1.0658(8) 1.5283(8)
H102 H 0.9990 1.0691 1.5879
H103 H 0.9307 1.1317 1.5187
H104 H 1.0110 1.0627 1.4975
C81 C 0.5071(6) 0.3129(5) 0.4643(4)
C82 C 0.4043(7) 0.2520(6) 0.4832(4)
H105 H 0.3289 0.2631 0.4553
C83 C 0.4080(7) 0.1769(6) 0.5406(5)
H106 H 0.3367 0.1375 0.5505
C84 C 0.5160(7) 0.1609(6) 0.5822(4)
H107 H 0.5200 0.1085 0.6201
C85 C 0.6220(7) 0.2235(5) 0.5682(4)
H108 H 0.6965 0.2126 0.5987
C86 C 0.6226(6) 0.2997(5) 0.5123(4)
C87 C 0.7400(8) 0.3689(7) 0.5005(5)
C88 C 0.7283(8) 0.3238(7) 0.4084(5)
H109 H 0.6524 0.3275 0.3686
H110 H 0.7291 0.2471 0.4062
H111 H 0.7962 0.3692 0.3941
C89 C 0.7622(9) 0.4882(7) 0.5049(6)
H112 H 0.7721 0.5190 0.5610
H113 H 0.6936 0.5035 0.4644
H114 H 0.8358 0.5220 0.4923
C90 C 0.8496(8) 0.3446(8) 0.5572(6)
H115 H 0.9210 0.3844 0.5440
H116 H 0.8378 0.2651 0.5491
H117 H 0.8613 0.3684 0.6151
Cs3_2 Cs 0.52731(3) 0.53886(3) 0.27398(2)
O7_2 O 0.4143(5) 0.6765(4) 1.3543(4)
O9_2 O 0.4974(5) 0.3784(4) 1.4009(3)
Cs4 Cs 0.45849(6) 0.03247(5) 0.37248(4)
O10 O 0.2942(5) 0.2920(4) 0.2989(4)
C91 C 0.2925(6) 0.2058(5) 0.2470(4)
C92 C 0.1803(10) 0.1111(8) 0.2099(6)
C93 C 0.1957(7) 0.0300(6) 0.1662(5)
H118 H 0.1292 -0.0357 0.1467
C94 C 0.3012(7) 0.0304(6) 0.1453(5)
H119 H 0.3029 -0.0303 0.1122
C95 C 0.4008(6) 0.1258(5) 0.1768(4)
H120 H 0.4714 0.1319 0.1632
C96 C 0.3975(6) 0.2116(6) 0.2278(4)
H121 H 0.4667 0.2747 0.2499
C97 C 0.0774(7) 0.1021(7) 0.2409(6)
C98 C -0.0253(9) -0.0081(8) 0.1997(8)
H122 H 0.0019 -0.0704 0.2203
H123 H -0.0454 -0.0148 0.1392
H124 H -0.0969 -0.0084 0.2137
C99 C 0.0282(9) 0.2009(9) 0.2167(10)
H125 H -0.0404 0.1956 0.2357
H126 H 0.0019 0.1989 0.1562
H127 H 0.0921 0.2704 0.2431
C100 C 0.1185(12) 0.1029(9) 0.3316(6)
H128 H 0.1348 0.0335 0.3446
H129 H 0.0555 0.1111 0.3529
H130 H 0.1923 0.1648 0.3576
loop_
_geom_bond_atom_site_label_1
_geom_bond_atom_site_label_2
_geom_bond_site_symmetry_1
_geom_bond_site_symmetry_2
Cs1 O1 1_555 1_555
Cs2 O6 1_555 1_555
Cs3 O3 1_555 1_555
O1 C1 1_555 1_555
O2 Cs1 1_555 1_555
O3 Cs1 1_555 1_555
O4 Cs1 1_555 1_555
O5 Cs1 1_555 1_555
O6 Cs1 1_555 1_555
O7 Cs2 1_555 1_555
O8 Cs3 1_555 1_555
O9 Cs2 1_555 1_555
C1 C2 1_555 1_555
C2 C3 1_555 1_555
C3 H1 1_555 1_555
C4 C3 1_555 1_555
H2 C4 1_555 1_555
C5 C4 1_555 1_555
H3 C5 1_555 1_555
C6 C1 1_555 1_555
H4 C6 1_555 1_555
C7 C2 1_555 1_555
C8 C7 1_555 1_555
H5 C8 1_555 1_555
H6 C8 1_555 1_555
H7 C8 1_555 1_555
C9 C7 1_555 1_555
H8 C9 1_555 1_555
H9 C9 1_555 1_555
H10 C9 1_555 1_555
C10 C7 1_555 1_555
H11 C10 1_555 1_555
H12 C10 1_555 1_555
H13 C10 1_555 1_555
C11 O2 1_555 1_555
C12 C11 1_555 1_555
C13 C12 1_555 1_555
H14 C13 1_555 1_555
C14 C13 1_555 1_555
H15 C14 1_555 1_555
C15 C14 1_555 1_555
H16 C15 1_555 1_555
C16 C11 1_555 1_555
H17 C16 1_555 1_555
C17 C12 1_555 1_555
C18 C17 1_555 1_555
H18 C18 1_555 1_555
H19 C18 1_555 1_555
H20 C18 1_555 1_555
C19 C17 1_555 1_555
H21 C19 1_555 1_555
H22 C19 1_555 1_555
H23 C19 1_555 1_555
C20 C17 1_555 1_555
H24 C20 1_555 1_555
H25 C20 1_555 1_555
H26 C20 1_555 1_555
C21 O3 1_555 1_555
C22 C21 1_555 1_555
C23 C22 1_555 1_555
H27 C23 1_555 1_555
C24 C23 1_555 1_555
H28 C24 1_555 1_555
C25 C24 1_555 1_555
H29 C25 1_555 1_555
C26 C21 1_555 1_555
H30 C26 1_555 1_555
C27 C22 1_555 1_555
C28 C27 1_555 1_555
H31 C28 1_555 1_555
H32 C28 1_555 1_555
H33 C28 1_555 1_555
C29 C27 1_555 1_555
H34 C29 1_555 1_555
H35 C29 1_555 1_555
H36 C29 1_555 1_555
C30 C27 1_555 1_555
H37 C30 1_555 1_555
H38 C30 1_555 1_555
H39 C30 1_555 1_555
C31 O4 1_555 1_555
C32 C31 1_555 1_555
H40 C32 1_555 1_555
C33 C32 1_555 1_555
H41 C33 1_555 1_555
C34 C33 1_555 1_555
H42 C34 1_555 1_555
C35 C34 1_555 1_555
H43 C35 1_555 1_555
C36 C31 1_555 1_555
C37 C36 1_555 1_555
C38 C37 1_555 1_555
H44 C38 1_555 1_555
H45 C38 1_555 1_555
H46 C38 1_555 1_555
C39 C37 1_555 1_555
H47 C39 1_555 1_555
H48 C39 1_555 1_555
H49 C39 1_555 1_555
C40 C37 1_555 1_555
H50 C40 1_555 1_555
H51 C40 1_555 1_555
H52 C40 1_555 1_555
C41 O5 1_555 1_555
C42 C41 1_555 1_555
C43 C42 1_555 1_555
H53 C43 1_555 1_555
C44 C43 1_555 1_555
H54 C44 1_555 1_555
C45 C44 1_555 1_555
H55 C45 1_555 1_555
C46 C41 1_555 1_555
H56 C46 1_555 1_555
C47 C42 1_555 1_555
C48 C47 1_555 1_555
H57 C48 1_555 1_555
H58 C48 1_555 1_555
H59 C48 1_555 1_555
C49 C47 1_555 1_555
H60 C49 1_555 1_555
H61 C49 1_555 1_555
H62 C49 1_555 1_555
C50 C47 1_555 1_555
H63 C50 1_555 1_555
H64 C50 1_555 1_555
H65 C50 1_555 1_555
C51 O6 1_555 1_555
C52 C51 1_555 1_555
H66 C52 1_555 1_555
C53 C52 1_555 1_555
H67 C53 1_555 1_555
C54 C53 1_555 1_555
H68 C54 1_555 1_555
C55 C54 1_555 1_555
H69 C55 1_555 1_555
C56 C51 1_555 1_555
C57 C56 1_555 1_555
C58 C57 1_555 1_555
H70 C58 1_555 1_555
H71 C58 1_555 1_555
H72 C58 1_555 1_555
C59 C57 1_555 1_555
H73 C59 1_555 1_555
H74 C59 1_555 1_555
H75 C59 1_555 1_555
C60 C57 1_555 1_555
H76 C60 1_555 1_555
H77 C60 1_555 1_555
H78 C60 1_555 1_555
C61 H79 1_555 1_555
C62 C61 1_555 1_555
H80 C62 1_555 1_555
C63 O7 1_555 1_555
C64 C62 1_555 1_555
H81 C64 1_555 1_555
C65 C64 1_555 1_555
H82 C65 1_555 1_555
C66 C63 1_555 1_555
C67 C66 1_555 1_555
C68 C67 1_555 1_555
H83 C68 1_555 1_555
H84 C68 1_555 1_555
H85 C68 1_555 1_555
C69 C67 1_555 1_555
H86 C69 1_555 1_555
H87 C69 1_555 1_555
H88 C69 1_555 1_555
C70 C67 1_555 1_555
H89 C70 1_555 1_555
H90 C70 1_555 1_555
H91 C70 1_555 1_555
C71 O8 1_555 1_555
C72 C71 1_555 1_555
H92 C72 1_555 1_555
C73 C72 1_555 1_555
H93 C73 1_555 1_555
C74 C73 1_555 1_555
H94 C74 1_555 1_555
C75 C74 1_555 1_555
H95 C75 1_555 1_555
C76 C71 1_555 1_555
C77 C76 1_555 1_555
C78 C77 1_555 1_555
H96 C78 1_555 1_555
H97 C78 1_555 1_555
H98 C78 1_555 1_555
C79 C77 1_555 1_555
H99 C79 1_555 1_555
H100 C79 1_555 1_555
H101 C79 1_555 1_555
C80 C77 1_555 1_555
H102 C80 1_555 1_555
H103 C80 1_555 1_555
H104 C80 1_555 1_555
C81 O9 1_555 1_555
C82 C81 1_555 1_555
H105 C82 1_555 1_555
C83 C82 1_555 1_555
H106 C83 1_555 1_555
C84 C83 1_555 1_555
H107 C84 1_555 1_555
C85 C84 1_555 1_555
H108 C85 1_555 1_555
C86 C81 1_555 1_555
C87 C86 1_555 1_555
C88 C87 1_555 1_555
H109 C88 1_555 1_555
H110 C88 1_555 1_555
H111 C88 1_555 1_555
C89 C87 1_555 1_555
H112 C89 1_555 1_555
H113 C89 1_555 1_555
H114 C89 1_555 1_555
C90 C87 1_555 1_555
H115 C90 1_555 1_555
H116 C90 1_555 1_555
H117 C90 1_555 1_555
O10 C91 1_555 1_555
C91 C92 1_555 1_555
C92 C93 1_555 1_555
C93 H118 1_555 1_555
C94 C93 1_555 1_555
H119 C94 1_555 1_555
C95 C94 1_555 1_555
H120 C95 1_555 1_555
C96 C91 1_555 1_555
H121 C96 1_555 1_555
C97 C92 1_555 1_555
C98 C97 1_555 1_555
H122 C98 1_555 1_555
H123 C98 1_555 1_555
H124 C98 1_555 1_555
C99 C97 1_555 1_555
H125 C99 1_555 1_555
H126 C99 1_555 1_555
H127 C99 1_555 1_555
C100 C97 1_555 1_555
H128 C100 1_555 1_555
H129 C100 1_555 1_555
H130 C100 1_555 1_555
Cs3_2 O7 1_555 1_555
O7_2 Cs3 1_555 1_555
O9_2 Cs3 1_555 1_555
O9 Cs3_2 1_555 1_555
C5 C6 1_555 1_555
C15 C16 1_555 1_555
C25 C26 1_555 1_555
C35 C36 1_555 1_555
C45 C46 1_555 1_555
C55 C56 1_555 1_555
C61 C63 1_555 1_555
C65 C66 1_555 1_555
C75 C76 1_555 1_555
C85 C86 1_555 1_555
C95 C96 1_555 1_555

#END
