
#######################################################################
#
#                 Cambridge Crystallographic Data Centre
#                                CCDC 
#
#######################################################################
#
# If this CIF has been generated from an entry in the Cambridge 
# Structural Database, then it will include bibliographic, chemical, 
# crystal, experimental, refinement or atomic coordinate data resulting 
# from the CCDC's data processing and validation procedures.
#
#######################################################################

data_BAPKAG
_symmetry_cell_setting           monoclinic
_symmetry_space_group_name_H-M   'C 2'
_symmetry_Int_Tables_number      5
_space_group_name_Hall           'C 2y'
loop_
_symmetry_equiv_pos_site_id
_symmetry_equiv_pos_as_xyz
1 x,y,z
2 -x,y,-z
3 1/2+x,1/2+y,z
4 1/2-x,1/2+y,-z
_cell_length_a                   19.596(3)
_cell_length_b                   10.7838(15)
_cell_length_c                   12.9491(18)
_cell_angle_alpha                90
_cell_angle_beta                 107.988(2)
_cell_angle_gamma                90
_cell_volume                     2602.64
loop_
_atom_site_label
_atom_site_type_symbol
_atom_site_fract_x
_atom_site_fract_y
_atom_site_fract_z
Cs1 Cs 0.884101(11) 0.044859(19) 0.969700(17)
Cs2 Cs 0.843960(11) 0.455900(19) 1.131530(16)
O1 O 0.98171(14) 0.1446(3) 0.8547(2)
O2 O 0.78642(13) 0.2384(2) 0.9999(2)
O3 O 0.75484(15) -0.0146(3) 0.7372(2)
C1 C 0.98723(17) 0.2409(3) 0.7988(3)
C2 C 0.95878(18) 0.3580(3) 0.8151(3)
C3 C 0.96399(18) 0.4603(4) 0.7532(3)
C4 C 0.99395(19) 0.4513(4) 0.6688(3)
C5 C 1.0216(2) 0.3371(4) 0.6520(3)
C6 C 1.02026(18) 0.2325(4) 0.7138(3)
C7 C 1.0504(3) 0.1101(5) 0.6944(4)
H1 H 1.0639 0.1145 0.6277
H2 H 1.0141 0.0453 0.6870
H3 H 1.0928 0.0906 0.7558
C8 C 0.9202(2) 0.3676(5) 0.9002(4)
H4 H 0.8722 0.3749 0.8439
C9 C 0.71764(18) 0.2445(3) 0.9706(3)
C10 C 0.67726(19) 0.2859(3) 0.8640(3)
C11 C 0.6027(2) 0.2890(4) 0.8318(3)
C12 C 0.5654(2) 0.2520(4) 0.9018(4)
C13 C 0.6025(2) 0.2136(4) 1.0055(3)
C14 C 0.67716(19) 0.2113(3) 1.0424(3)
C15 C 0.7179(2) 0.1692(4) 1.1548(3)
H5 H 0.7416 0.2406 1.1980
H6 H 0.7542 0.1082 1.1511
H7 H 0.6847 0.1313 1.1887
H8 H 0.7752 0.0448 0.3706
H9 H 0.9387 0.5303 0.7626
H10 H 0.6766 0.1102 0.4064
H11 H 0.5100 0.2574 0.8789
H12 H 0.8677 -0.0511 0.4945
H13 H 1.0354 0.3233 0.5940
H14 H 0.9938 0.5249 0.6334
H15 H 0.5812 0.3028 0.7581
H16 H 0.5798 0.1837 1.0538
H17 H 0.9455 0.3095 0.9644
H18 H 0.9099 0.4538 0.9087
H19 H 0.9266 -0.1009 0.6856
H20 H 0.8697 -0.2010 0.7012
H21 H 0.9111 -0.0571 0.7535
C16 C 0.7181(2) 0.3220(4) 0.7885(3)
H22 H 0.7412 0.2484 0.7698
H23 H 0.7547 0.3833 0.8238
H24 H 0.6851 0.3578 0.7223
C17 C 0.75974(19) -0.0026(3) 0.6414(3)
C18 C 0.70551(18) 0.0579(3) 0.5558(3)
C19 C 0.7134(2) 0.0750(3) 0.4539(3)
C20 C 0.7736(2) 0.0331(4) 0.4294(3)
C21 C 0.8263(2) -0.0295(4) 0.5096(3)
C22 C 0.82095(18) -0.0469(4) 0.6131(3)
C23 C 0.8801(2) -0.1113(4) 0.6994(3)
C24 C 0.6380(2) 0.1002(4) 0.5784(3)
H25 H 0.6125 0.1597 0.5227
H26 H 0.6507 0.1397 0.6500
H27 H 0.6071 0.0284 0.5772
Cs1A Cs 1.115899(11) 0.044859(19) 1.030300(17)
Cs2C Cs 0.656040(11) -0.044100(19) 0.868470(16)
O1A O 1.01829(14) 0.1446(3) 1.1453(2)
O3C O 0.74516(15) 0.4854(3) 1.2628(2)
Cs3 Cs 0.835223(11) 0.279243(19) 0.58420(2)
loop_
_geom_bond_atom_site_label_1
_geom_bond_atom_site_label_2
_geom_bond_site_symmetry_1
_geom_bond_site_symmetry_2
Cs1 O1 1_555 1_555
Cs2 O2 1_555 1_555
O1 C1 1_555 1_555
O2 Cs1 1_555 1_555
O3 Cs1 1_555 1_555
C1 C2 1_555 1_555
C2 C3 1_555 1_555
C3 C4 1_555 1_555
C4 C5 1_555 1_555
C5 C6 1_555 1_555
C6 C1 1_555 1_555
C7 C6 1_555 1_555
H1 C7 1_555 1_555
H2 C7 1_555 1_555
H3 C7 1_555 1_555
C8 C2 1_555 1_555
H4 C8 1_555 1_555
C9 O2 1_555 1_555
C10 C9 1_555 1_555
C11 C10 1_555 1_555
C12 C11 1_555 1_555
C13 C12 1_555 1_555
C14 C9 1_555 1_555
C15 C14 1_555 1_555
H5 C15 1_555 1_555
H6 C15 1_555 1_555
H7 C15 1_555 1_555
H8 C20 1_555 1_555
H9 C3 1_555 1_555
H10 C19 1_555 1_555
H11 C12 1_555 1_555
H12 C21 1_555 1_555
H13 C5 1_555 1_555
H14 C4 1_555 1_555
H15 C11 1_555 1_555
H16 C13 1_555 1_555
H17 C8 1_555 1_555
H18 C8 1_555 1_555
H19 C23 1_555 1_555
H20 C23 1_555 1_555
H21 C23 1_555 1_555
C16 C10 1_555 1_555
H22 C16 1_555 1_555
H23 C16 1_555 1_555
H24 C16 1_555 1_555
C17 O3 1_555 1_555
C18 C17 1_555 1_555
C19 C18 1_555 1_555
C20 C19 1_555 1_555
C21 C20 1_555 1_555
C22 C17 1_555 1_555
C23 C22 1_555 1_555
C24 C18 1_555 1_555
H25 C24 1_555 1_555
H26 C24 1_555 1_555
H27 C24 1_555 1_555
Cs1A O1 1_555 1_555
Cs2C O3 1_555 1_555
O1A Cs1 1_555 1_555
O3C Cs2 1_555 1_555
C13 C14 1_555 1_555
C21 C22 1_555 1_555
Cs1A O1A 1_555 1_555

#END
