
#######################################################################
#
#                 Cambridge Crystallographic Data Centre
#                                CCDC 
#
#######################################################################
#
# If this CIF has been generated from an entry in the Cambridge 
# Structural Database, then it will include bibliographic, chemical, 
# crystal, experimental, refinement or atomic coordinate data resulting 
# from the CCDC's data processing and validation procedures.
#
#######################################################################

data_BAPXUL
_symmetry_cell_setting           triclinic
_symmetry_space_group_name_H-M   'P -1'
_symmetry_Int_Tables_number      2
_space_group_name_Hall           '-P 1'
loop_
_symmetry_equiv_pos_site_id
_symmetry_equiv_pos_as_xyz
1 x,y,z
2 -x,-y,-z
_cell_length_a                   8.1856(45)
_cell_length_b                   12.367(8)
_cell_length_c                   13.5957(62)
_cell_angle_alpha                67.020(44)
_cell_angle_beta                 87.378(41)
_cell_angle_gamma                75.465(48)
_cell_volume                     1224.43
loop_
_atom_site_label
_atom_site_type_symbol
_atom_site_fract_x
_atom_site_fract_y
_atom_site_fract_z
Zn1 Zn 0.75439(8) -0.03763(4) -0.37321(4)
K1 K 0.35711(15) 0.33520(8) -0.25632(7)
O1 O 0.47469(47) 0.44691(28) -0.14199(22)
C1 C 0.52235(78) 0.55759(44) -0.20231(34)
H1 H 0.63131 0.54025 -0.23182
H2 H 0.53034 0.60012 -0.15671
C2 C 0.38791(78) 0.63391(41) -0.29093(34)
H3 H 0.27748 0.64196 -0.26141
H4 H 0.40612 0.71443 -0.32699
O2 O 0.39410(44) 0.57826(25) -0.36491(21)
C3 C 0.26298(72) 0.64369(41) -0.44673(35)
H5 H 0.27294 0.72625 -0.48433
H6 H 0.15397 0.64686 -0.41531
C4 C 0.27465(72) 0.58349(42) -0.52274(33)
H7 H 0.18321 0.62653 -0.57759
H8 H 0.38098 0.58412 -0.55724
O3 O 0.26406(47) 0.46114(29) -0.46502(22)
C5 C 0.20656(76) 0.40755(47) -0.52783(35)
H9 H 0.27199 0.41728 -0.59065
H10 H 0.08868 0.44688 -0.55132
C6 C 0.22696(75) 0.27580(46) -0.46089(38)
H11 H 0.17672 0.23911 -0.49905
H12 H 0.34604 0.23437 -0.44540
O4 O 0.14613(48) 0.26477(27) -0.36463(25)
C7 C 0.13897(89) 0.14320(45) -0.30120(42)
H13 H 0.24919 0.08785 -0.29482
H14 H 0.05884 0.12004 -0.33457
C8 C 0.08498(87) 0.13711(48) -0.19307(46)
H15 H -0.01186 0.20432 -0.20039
H16 H 0.05248 0.06197 -0.15432
O5 O 0.22050(54) 0.14281(28) -0.13626(26)
C9 C 0.17371(95) 0.14671(51) -0.03564(42)
H17 H 0.12736 0.07843 0.00522
H18 H 0.08771 0.22094 -0.04618
C10 C 0.3250(10) 0.14180(46) 0.02373(39)
H19 H 0.29714 0.13553 0.09555
H20 H 0.41439 0.07095 0.02917
O6 O 0.38169(55) 0.25075(27) -0.03241(23)
C11 C 0.52344(87) 0.26111(43) 0.00750(34)
C12 C 0.6175(11) 0.17721(53) 0.09995(43)
H21 H 0.58515 0.10644 0.14027
C13 C 0.7592(12) 0.19890(69) 0.13205(54)
H22 H 0.82098 0.14230 0.19453
C14 C 0.81016(92) 0.29988(77) 0.07528(54)
H23 H 0.90650 0.31213 0.09853
C15 C 0.71810(94) 0.38699(62) -0.01920(44)
H24 H 0.75289 0.45687 -0.05898
C16 C 0.57559(82) 0.36696(46) -0.05174(35)
C17 C 0.69117(66) 0.08006(39) -0.30237(33)
C18 C 0.94582(70) -0.00648(41) -0.47205(36)
C19 C 0.81563(71) -0.21473(45) -0.27926(39)
C20 C 0.55588(66) -0.00720(42) -0.47274(39)
N1 N 0.64654(66) 0.14878(41) -0.26525(36)
N2 N 0.85359(74) -0.31563(42) -0.23057(44)
H25 H 0.0159(95) 0.4361(58) -0.2255(49)
O7 O 0.08496(78) 0.44994(45) -0.17497(52)
H26 H 0.04700 0.51952 -0.21853
C18A C 1.05418(70) 0.00648(41) -0.52795(36)
Zn1A Zn 1.24561(8) 0.03763(4) -0.62679(4)
C17A C 1.30883(66) -0.08006(39) -0.69763(33)
N1A N 1.35346(66) -0.14878(41) -0.73475(36)
K1A K 1.64289(15) -0.33520(8) -0.74368(7)
O1A O 1.52531(47) -0.44691(28) -0.85801(22)
C1A C 1.47765(78) -0.55759(44) -0.79769(34)
H1A H 1.36869 -0.54025 -0.76818
H2A H 1.46966 -0.60012 -0.84329
C2A C 1.61209(78) -0.63391(41) -0.70907(34)
H3A H 1.72252 -0.64196 -0.73859
H4A H 1.59388 -0.71443 -0.67301
O2A O 1.60590(44) -0.57826(25) -0.63509(21)
O3A O 1.73594(47) -0.46114(29) -0.53498(22)
C4A C 1.72535(72) -0.58349(42) -0.47726(33)
C3A C 1.73702(72) -0.64369(41) -0.55327(35)
H5A H 1.72706 -0.72625 -0.51567
H6A H 1.84603 -0.64686 -0.58469
H7A H 1.81679 -0.62653 -0.42241
H8A H 1.61902 -0.58412 -0.44276
C5A C 1.79344(76) -0.40755(47) -0.47217(35)
H9A H 1.72801 -0.41728 -0.40935
H10A H 1.91132 -0.44688 -0.44868
C6A C 1.77304(75) -0.27580(46) -0.53911(38)
H11A H 1.82328 -0.23911 -0.50095
H12A H 1.65396 -0.23437 -0.55460
O4A O 1.85387(48) -0.26477(27) -0.63537(25)
O5A O 1.77950(54) -0.14281(28) -0.86374(26)
C8A C 1.91502(87) -0.13711(48) -0.80693(46)
C7A C 1.86103(89) -0.14320(45) -0.69880(42)
H13A H 1.75081 -0.08785 -0.70518
H14A H 1.94116 -0.12004 -0.66543
H15A H 2.01186 -0.20432 -0.79961
H16A H 1.94752 -0.06197 -0.84568
C9A C 1.82629(95) -0.14671(51) -0.96436(42)
H17A H 1.87264 -0.07843 -1.00522
H18A H 1.91229 -0.22094 -0.95382
C10A C 1.6750(10) -0.14180(46) -1.02373(39)
H19A H 1.70286 -0.13553 -1.09555
H20A H 1.58561 -0.07095 -1.02917
O6A O 1.61831(55) -0.25075(27) -0.96759(23)
O7A O 1.91504(78) -0.44994(45) -0.82503(52)
H25A H 1.9841(95) -0.4361(58) -0.7745(49)
H26A H 1.95300 -0.51952 -0.78147
C11A C 1.47656(87) -0.26111(43) -1.00750(34)
C12A C 1.3825(11) -0.17721(53) -1.09995(43)
H21A H 1.41485 -0.10644 -1.14027
C13A C 1.2408(12) -0.19890(69) -1.13205(54)
H22A H 1.17902 -0.14230 -1.19453
C14A C 1.18984(92) -0.29988(77) -1.07528(54)
H23A H 1.09350 -0.31213 -1.09853
C15A C 1.28190(94) -0.38699(62) -0.98080(44)
H24A H 1.24711 -0.45687 -0.94102
C16A C 1.42441(82) -0.36696(46) -0.94826(35)
C19A C 1.18437(71) 0.21473(45) -0.72074(39)
N2A N 1.14641(74) 0.31563(42) -0.76943(44)
C20A C 1.44412(66) 0.00720(42) -0.52726(39)
C20_2 C 1.55588(66) -0.00720(42) -0.47274(39)
Zn1_2 Zn 1.75439(8) -0.03763(4) -0.37321(4)
C17_2 C 1.69117(66) 0.08006(39) -0.30237(33)
C18_2 C 1.94582(70) -0.00648(41) -0.47205(36)
C19_2 C 1.81563(71) -0.21473(45) -0.27926(39)
N2_2 N 1.85359(74) -0.31563(42) -0.23057(44)
C20A_2 C 0.44412(66) 0.00720(42) -0.52726(39)
Zn1A_2 Zn 0.24561(8) 0.03763(4) -0.62679(4)
loop_
_geom_bond_atom_site_label_1
_geom_bond_atom_site_label_2
_geom_bond_site_symmetry_1
_geom_bond_site_symmetry_2
Zn1 C17 1_555 1_555
K1 O1 1_555 1_555
O1 C1 1_555 1_555
C1 H1 1_555 1_555
H2 C1 1_555 1_555
C2 C1 1_555 1_555
H3 C2 1_555 1_555
H4 C2 1_555 1_555
O2 K1 1_555 1_555
C3 O2 1_555 1_555
H5 C3 1_555 1_555
H6 C3 1_555 1_555
C4 C3 1_555 1_555
H7 C4 1_555 1_555
H8 C4 1_555 1_555
O3 K1 1_555 1_555
C5 O3 1_555 1_555
H9 C5 1_555 1_555
H10 C5 1_555 1_555
C6 C5 1_555 1_555
H11 C6 1_555 1_555
H12 C6 1_555 1_555
O4 K1 1_555 1_555
C7 O4 1_555 1_555
H13 C7 1_555 1_555
H14 C7 1_555 1_555
C8 C7 1_555 1_555
H15 C8 1_555 1_555
H16 C8 1_555 1_555
O5 K1 1_555 1_555
C9 O5 1_555 1_555
H17 C9 1_555 1_555
H18 C9 1_555 1_555
C10 C9 1_555 1_555
H19 C10 1_555 1_555
H20 C10 1_555 1_555
O6 K1 1_555 1_555
C11 O6 1_555 1_555
C12 C11 1_555 1_555
H21 C12 1_555 1_555
C13 C12 1_555 1_555
H22 C13 1_555 1_555
C14 C13 1_555 1_555
H23 C14 1_555 1_555
C15 C14 1_555 1_555
H24 C15 1_555 1_555
C16 O1 1_555 1_555
C17 N1 1_555 1_555
C18 Zn1 1_555 1_555
C19 Zn1 1_555 1_555
C20 Zn1 1_555 1_555
N1 K1 1_555 1_555
N2 C19 1_555 1_555
H25 O7 1_555 1_555
O7 K1 1_555 1_555
H26 O7 1_555 1_555
C18A C18 1_555 1_555
Zn1A C18A 1_555 1_555
C17A Zn1A 1_555 1_555
N1A C17A 1_555 1_555
K1A N1A 1_555 1_555
O1A K1A 1_555 1_555
C1A O1A 1_555 1_555
H1A C1A 1_555 1_555
H2A C1A 1_555 1_555
C2A C1A 1_555 1_555
H3A C2A 1_555 1_555
H4A C2A 1_555 1_555
O2A K1A 1_555 1_555
O3A K1A 1_555 1_555
C4A O3A 1_555 1_555
C3A O2A 1_555 1_555
H5A C3A 1_555 1_555
H6A C3A 1_555 1_555
H7A C4A 1_555 1_555
H8A C4A 1_555 1_555
C5A O3A 1_555 1_555
H9A C5A 1_555 1_555
H10A C5A 1_555 1_555
C6A C5A 1_555 1_555
H11A C6A 1_555 1_555
H12A C6A 1_555 1_555
O4A K1A 1_555 1_555
O5A K1A 1_555 1_555
C8A O5A 1_555 1_555
C7A O4A 1_555 1_555
H13A C7A 1_555 1_555
H14A C7A 1_555 1_555
H15A C8A 1_555 1_555
H16A C8A 1_555 1_555
C9A O5A 1_555 1_555
H17A C9A 1_555 1_555
H18A C9A 1_555 1_555
C10A C9A 1_555 1_555
H19A C10A 1_555 1_555
H20A C10A 1_555 1_555
O6A K1A 1_555 1_555
O7A K1A 1_555 1_555
H25A O7A 1_555 1_555
H26A O7A 1_555 1_555
C11A O6A 1_555 1_555
C12A C11A 1_555 1_555
H21A C12A 1_555 1_555
C13A C12A 1_555 1_555
H22A C13A 1_555 1_555
C14A C13A 1_555 1_555
H23A C14A 1_555 1_555
C15A C14A 1_555 1_555
H24A C15A 1_555 1_555
C16A O1A 1_555 1_555
C19A Zn1A 1_555 1_555
N2A C19A 1_555 1_555
C20A Zn1A 1_555 1_555
C20_2 C20A 1_555 1_555
Zn1_2 C20_2 1_555 1_555
C17_2 Zn1_2 1_555 1_555
C18_2 Zn1_2 1_555 1_555
C19_2 Zn1_2 1_555 1_555
N2_2 C19_2 1_555 1_555
C20A_2 C20 1_555 1_555
Zn1A_2 C20A_2 1_555 1_555
C2 O2 1_555 1_555
C4 O3 1_555 1_555
C6 O4 1_555 1_555
C8 O5 1_555 1_555
C10 O6 1_555 1_555
C11 C16 1_555 1_555
C15 C16 1_555 1_555
C2A O2A 1_555 1_555
C4A C3A 1_555 1_555
C6A O4A 1_555 1_555
C8A C7A 1_555 1_555
C10A O6A 1_555 1_555
C11A C16A 1_555 1_555
C15A C16A 1_555 1_555

#END
