
#######################################################################
#
#                 Cambridge Crystallographic Data Centre
#                                CCDC 
#
#######################################################################
#
# If this CIF has been generated from an entry in the Cambridge 
# Structural Database, then it will include bibliographic, chemical, 
# crystal, experimental, refinement or atomic coordinate data resulting 
# from the CCDC's data processing and validation procedures.
#
#######################################################################

data_BAPXEV
_symmetry_cell_setting           tetragonal
_symmetry_space_group_name_H-M   'I 41/a c d'
_symmetry_Int_Tables_number      142
_space_group_name_Hall           'I -4 -2c -1bw'
loop_
_symmetry_equiv_pos_site_id
_symmetry_equiv_pos_as_xyz
1 x,y,z
2 -x,-y,z
3 -y,x,-z
4 y,-x,-z
5 x,-y,1/2+z
6 -x,y,1/2+z
7 y,x,1/2-z
8 -y,-x,1/2-z
9 x,1/2+y,1/4-z
10 -x,1/2-y,1/4-z
11 -y,1/2+x,1/4+z
12 y,1/2-x,1/4+z
13 x,1/2-y,3/4-z
14 -x,1/2+y,3/4-z
15 y,1/2+x,3/4+z
16 -y,1/2-x,3/4+z
17 1/2+x,1/2+y,1/2+z
18 1/2-x,1/2-y,1/2+z
19 1/2-y,1/2+x,1/2-z
20 1/2+y,1/2-x,1/2-z
21 1/2+x,1/2-y,z
22 1/2-x,1/2+y,z
23 1/2+y,1/2+x,-z
24 1/2-y,1/2-x,-z
25 1/2+x,y,3/4-z
26 1/2-x,-y,3/4-z
27 1/2-y,x,3/4+z
28 1/2+y,-x,3/4+z
29 1/2+x,-y,1/4-z
30 1/2-x,y,1/4-z
31 1/2+y,x,1/4+z
32 1/2-y,-x,1/4+z
_cell_length_a                   15.310(6)
_cell_length_b                   15.310(6)
_cell_length_c                   42.620(59)
_cell_angle_alpha                90
_cell_angle_beta                 90
_cell_angle_gamma                90
_cell_volume                     9989.96
loop_
_atom_site_label
_atom_site_type_symbol
_atom_site_fract_x
_atom_site_fract_y
_atom_site_fract_z
Sn1 Sn 0.50000 0.00000 0.06372
Sn2 Sn 0.25000 0.21569 0.12500
P1 P 0.44150 0.21430 0.07929
O1 O 0.43100 0.12900 0.06280
O2 O 0.39610 0.22110 0.11080
O3 O 0.54160 0.23340 0.08520
C1 C 0.40330 0.29930 0.05380
C2 C 0.35460 0.27690 0.02730
C3 C 0.32360 0.34340 0.00730
C4 C 0.34260 0.42980 0.01350
C5 C 0.39250 0.45290 0.03940
C6 C 0.42140 0.38640 0.06040
C7 C 0.50000 0.00000 0.11230
C8 C 0.38830 -0.05270 0.04100
C9 C 0.25000 0.35600 0.12500
C10 C 0.21390 0.14020 0.08530
O1A O 0.56900 -0.12900 0.06280
C8A C 0.61170 0.05270 0.04100
O2CA O 0.10390 0.22110 0.13920
C10CA C 0.28610 0.14020 0.16470
P1CA P 0.05850 0.21430 0.17071
O1CA O 0.06900 0.12900 0.18720
O3CA O -0.04160 0.23340 0.16480
C1CA C 0.09670 0.29930 0.19620
Sn1BA Sn 0.00000 0.00000 0.18628
C2CA C 0.14540 0.27690 0.22270
C6CA C 0.07860 0.38640 0.18960
C3CA C 0.17640 0.34340 0.24270
C5CA C 0.10750 0.45290 0.21060
C4CA C 0.15740 0.42980 0.23650
loop_
_geom_bond_atom_site_label_1
_geom_bond_atom_site_label_2
_geom_bond_site_symmetry_1
_geom_bond_site_symmetry_2
Sn1 O1 1_555 1_555
Sn2 O2 1_555 1_555
P1 O1 1_555 1_555
O2 P1 1_555 1_555
O3 P1 1_555 1_555
C1 P1 1_555 1_555
C2 C1 1_555 1_555
C3 C2 1_555 1_555
C4 C3 1_555 1_555
C5 C4 1_555 1_555
C6 C1 1_555 1_555
C7 Sn1 1_555 1_555
C8 Sn1 1_555 1_555
C9 Sn2 1_555 1_555
C10 Sn2 1_555 1_555
O1A Sn1 1_555 1_555
C8A Sn1 1_555 1_555
O2CA Sn2 1_555 1_555
C10CA Sn2 1_555 1_555
P1CA O2CA 1_555 1_555
O1CA P1CA 1_555 1_555
O3CA P1CA 1_555 1_555
C1CA P1CA 1_555 1_555
Sn1BA O1CA 1_555 1_555
C2CA C1CA 1_555 1_555
C6CA C1CA 1_555 1_555
C3CA C2CA 1_555 1_555
C5CA C6CA 1_555 1_555
C4CA C3CA 1_555 1_555
C5 C6 1_555 1_555
C5CA C4CA 1_555 1_555

#END
