
#######################################################################
#
#                 Cambridge Crystallographic Data Centre
#                                CCDC 
#
#######################################################################
#
# If this CIF has been generated from an entry in the Cambridge 
# Structural Database, then it will include bibliographic, chemical, 
# crystal, experimental, refinement or atomic coordinate data resulting 
# from the CCDC's data processing and validation procedures.
#
#######################################################################

data_BAQCIF
_symmetry_cell_setting           monoclinic
_symmetry_space_group_name_H-M   'P 21/c'
_symmetry_Int_Tables_number      14
_space_group_name_Hall           '-P 2ybc'
loop_
_symmetry_equiv_pos_site_id
_symmetry_equiv_pos_as_xyz
1 x,y,z
2 -x,1/2+y,1/2-z
3 -x,-y,-z
4 x,1/2-y,1/2+z
_cell_length_a                   7.157(3)
_cell_length_b                   16.870(2)
_cell_length_c                   11.884(3)
_cell_angle_alpha                90
_cell_angle_beta                 94.47(2)
_cell_angle_gamma                90
_cell_volume                     1430.49
loop_
_atom_site_label
_atom_site_type_symbol
_atom_site_fract_x
_atom_site_fract_y
_atom_site_fract_z
Fe1 Fe 0.00000 0.00000 0.00000
S1 S 0.3679(3) -0.2288(1) -0.0924(3)
N1 N 0.1579(7) -0.0960(3) -0.0551(4)
N2 N 0.1938(7) 0.0061(2) 0.1570(4)
N3 N 0.5058(6) 0.0282(3) 0.4674(4)
O1 O 0.1636(5) 0.0863(2) -0.0780(3)
C1 C 0.2451(8) -0.1513(3) -0.0701(5)
C2 C 0.2788(8) 0.0735(3) 0.1894(4)
C3 C 0.3850(8) 0.0808(3) 0.2905(4)
C4 C 0.4030(7) 0.0169(3) 0.3607(4)
C5 C 0.3195(8) -0.0547(3) 0.3256(4)
C6 C 0.2193(8) -0.0568(3) 0.2245(4)
C7 C 0.3321(11) 0.0770(4) -0.1253(8)
H1 H 0.1147(5) 0.1374(2) -0.0805(3)
H2 H 0.2660(8) 0.1172(3) 0.1419(5)
H3 H 0.4435(8) 0.1286(3) 0.3105(4)
H4 H 0.3325(8) -0.0997(3) 0.3707(4)
H5 H 0.1653(8) -0.1046(3) 0.2006(4)
H6 H 0.3718(11) 0.1272(4) -0.1532(8)
H7 H 0.3171(11) 0.0399(4) -0.1865(8)
H8 H 0.4246(11) 0.0576(4) -0.0692(8)
N3B N 0.4942(6) -0.0282(3) 0.5326(4)
C4B C 0.5970(7) -0.0169(3) 0.6393(4)
C3B C 0.6150(8) -0.0808(3) 0.7095(4)
C2B C 0.7212(8) -0.0735(3) 0.8106(4)
N2B N 0.8062(7) -0.0061(2) 0.8430(4)
C6B C 0.7807(8) 0.0568(3) 0.7755(4)
C5B C 0.6805(8) 0.0547(3) 0.6744(4)
H4B H 0.6675(8) 0.0997(3) 0.6293(4)
H5B H 0.8347(8) 0.1046(3) 0.7994(4)
H2B H 0.7340(8) -0.1172(3) 0.8581(5)
H3B H 0.5565(8) -0.1286(3) 0.6895(4)
S1B S -0.3679(3) 0.2288(1) 0.0924(3)
N1B N -0.1579(7) 0.0960(3) 0.0551(4)
C1B C -0.2451(8) 0.1513(3) 0.0701(5)
N2B_2 N -0.1938(7) -0.0061(2) -0.1570(4)
O1B O -0.1636(5) -0.0863(2) 0.0780(3)
H1B H -0.1147(5) -0.1374(2) 0.0805(3)
Fe1B Fe 1.00000 0.00000 1.00000
C7B C -0.3321(11) -0.0770(4) 0.1253(8)
H6B H -0.3718(11) -0.1272(4) 0.1532(8)
H7B H -0.3171(11) -0.0399(4) 0.1865(8)
H8B H -0.4246(11) -0.0576(4) 0.0692(8)
N4 N 0.0815(9) 0.2413(3) -0.0719(6)
N5 N -0.0392(8) 0.4832(3) -0.0415(5)
C8 C -0.0260(11) 0.2814(4) -0.1491(8)
C9 C -0.0702(10) 0.3597(4) -0.1398(7)
C10 C 0.0028(8) 0.4001(3) -0.0468(6)
C11 C 0.1134(11) 0.3603(4) 0.0350(7)
C12 C 0.1480(11) 0.2813(4) 0.0173(8)
H9 H -0.0738(11) 0.2543(4) -0.2131(8)
H10 H -0.1478(10) 0.3849(4) -0.1952(7)
H11 H 0.1630(11) 0.3860(4) 0.0998(7)
H12 H 0.2233(11) 0.2544(4) 0.0720(8)
N5B N 0.0392(8) 0.5168(3) 0.0415(5)
C10B C -0.0028(8) 0.5999(3) 0.0468(6)
C9B C 0.0702(10) 0.6403(4) 0.1398(7)
C8B C 0.0260(11) 0.7186(4) 0.1491(8)
N4B N -0.0815(9) 0.7587(3) 0.0719(6)
C12B C -0.1480(11) 0.7187(4) -0.0173(8)
C11B C -0.1134(11) 0.6397(4) -0.0350(7)
H11B H -0.1630(11) 0.6140(4) -0.0998(7)
H12B H -0.2233(11) 0.7456(4) -0.0720(8)
H9B H 0.0738(11) 0.7457(4) 0.2131(8)
H10B H 0.1478(10) 0.6151(4) 0.1952(7)
O2 O 0.50000 0.50000 0.50000
loop_
_geom_bond_atom_site_label_1
_geom_bond_atom_site_label_2
_geom_bond_site_symmetry_1
_geom_bond_site_symmetry_2
Fe1 N1 1_555 1_555
S1 C1 1_555 1_555
N1 C1 1_555 1_555
N2 Fe1 1_555 1_555
N3 C4 1_555 1_555
N4 C8 1_555 1_555
N5 C10 1_555 1_555
O1 Fe1 1_555 1_555
C2 N2 1_555 1_555
C3 C2 1_555 1_555
C4 C3 1_555 1_555
C5 C4 1_555 1_555
C6 N2 1_555 1_555
C7 O1 1_555 1_555
C8 C9 1_555 1_555
C9 C10 1_555 1_555
C10 C11 1_555 1_555
C11 C12 1_555 1_555
C12 N4 1_555 1_555
H1 O1 1_555 1_555
H2 C2 1_555 1_555
H3 C3 1_555 1_555
H4 C5 1_555 1_555
H5 C6 1_555 1_555
H6 C7 1_555 1_555
H7 C7 1_555 1_555
H8 C7 1_555 1_555
H9 C8 1_555 1_555
H10 C9 1_555 1_555
H11 C11 1_555 1_555
H12 C12 1_555 1_555
N3B N3 1_555 1_555
C4B N3B 1_555 1_555
C3B C4B 1_555 1_555
C2B C3B 1_555 1_555
N2B C2B 1_555 1_555
C6B N2B 1_555 1_555
C5B C4B 1_555 1_555
H4B C5B 1_555 1_555
H5B C6B 1_555 1_555
H2B C2B 1_555 1_555
H3B C3B 1_555 1_555
N5B N5 1_555 1_555
C10B N5B 1_555 1_555
C9B C10B 1_555 1_555
C8B C9B 1_555 1_555
N4B C8B 1_555 1_555
C12B N4B 1_555 1_555
C11B C10B 1_555 1_555
H11B C11B 1_555 1_555
H12B C12B 1_555 1_555
H9B C8B 1_555 1_555
H10B C9B 1_555 1_555
S1B C1B 1_555 1_555
N1B Fe1 1_555 1_555
C1B N1B 1_555 1_555
N2B_2 Fe1 1_555 1_555
O1B Fe1 1_555 1_555
H1B O1B 1_555 1_555
Fe1B N2B 1_555 1_555
C7B O1B 1_555 1_555
H6B C7B 1_555 1_555
H7B C7B 1_555 1_555
H8B C7B 1_555 1_555
C5 C6 1_555 1_555
C6B C5B 1_555 1_555
C12B C11B 1_555 1_555

#END
