
#######################################################################
#
#                 Cambridge Crystallographic Data Centre
#                                CCDC 
#
#######################################################################
#
# If this CIF has been generated from an entry in the Cambridge 
# Structural Database, then it will include bibliographic, chemical, 
# crystal, experimental, refinement or atomic coordinate data resulting 
# from the CCDC's data processing and validation procedures.
#
#######################################################################

data_BAQMOW
_symmetry_cell_setting           rhombohedral
_symmetry_space_group_name_H-M   'R -3'
_symmetry_Int_Tables_number      148
_space_group_name_Hall           '-R 3'
loop_
_symmetry_equiv_pos_site_id
_symmetry_equiv_pos_as_xyz
1 x,y,z
2 -y,x-y,z
3 -x+y,-x,z
4 2/3+x,1/3+y,1/3+z
5 2/3-y,1/3+x-y,1/3+z
6 2/3-x+y,1/3-x,1/3+z
7 1/3+x,2/3+y,2/3+z
8 2/3+y,1/3-x+y,1/3-z
9 2/3+x-y,1/3+x,1/3-z
10 -x,-y,-z
11 y,-x+y,-z
12 x-y,x,-z
13 1/3-x,2/3-y,2/3-z
14 1/3+y,2/3-x+y,2/3-z
15 1/3+x-y,2/3+x,2/3-z
16 2/3-x,1/3-y,1/3-z
17 1/3-y,2/3+x-y,2/3+z
18 1/3-x+y,2/3-x,2/3+z
_cell_length_a                   11.607(11)
_cell_length_b                   11.607(11)
_cell_length_c                   14.66(3)
_cell_angle_alpha                90
_cell_angle_beta                 90
_cell_angle_gamma                120.00
_cell_volume                     1710.43
loop_
_atom_site_label
_atom_site_type_symbol
_atom_site_fract_x
_atom_site_fract_y
_atom_site_fract_z
Mn1 Mn 0.3333 0.1667 0.1667
O1 O 0.17386(14) 0.00842(13) 0.09142(9)
O2 O 0.48331(13) 0.12569(15) 0.11367(9)
O3 O 0.71047(13) 0.06015(13) 0.04803(9)
C1 C 0.49137(17) 0.05645(19) 0.05129(12)
C2 C 0.59481(17) 0.02720(17) 0.02224(12)
H1 H 0.113(3) -0.059(3) 0.1231(19)
H2 H 0.192(3) -0.028(3) 0.047(2)
C1I C 0.50863(17) -0.05645(19) -0.05129(12)
O2I O 0.51669(13) -0.12569(15) -0.11367(9)
C2I C 0.40519(17) -0.02720(17) -0.02224(12)
O3I O 0.28953(13) -0.06015(13) -0.04803(9)
O1O O 0.49281(14) 0.32491(13) 0.24191(9)
H1O H 0.554(3) 0.392(3) 0.2102(19)
H2O H 0.475(3) 0.361(3) 0.286(2)
O2O O 0.18336(13) 0.20764(15) 0.21966(9)
O3B O 0.34968(18) 0.28953(13) 0.04803(9)
O3H O 0.31699(18) 0.04380(13) 0.28530(9)
Mn1A Mn 0.8333 0.1666 0.1667
Mn1F Mn 0.6666 -0.1666 -0.1666
Mn1J Mn 0.1667 -0.1666 -0.1667
loop_
_geom_bond_atom_site_label_1
_geom_bond_atom_site_label_2
_geom_bond_site_symmetry_1
_geom_bond_site_symmetry_2
Mn1 O1 1_555 1_555
O1 H1 1_555 1_555
O2 Mn1 1_555 1_555
O3 C2 1_555 1_555
C1 O2 1_555 1_555
C2 C1 1_555 1_555
H2 O1 1_555 1_555
C1I C2 1_555 1_555
O2I C1I 1_555 1_555
C2I C1 1_555 1_555
O3I C2I 1_555 1_555
O1O Mn1 1_555 1_555
H1O O1O 1_555 1_555
H2O O1O 1_555 1_555
O2O Mn1 1_555 1_555
O3B Mn1 1_555 1_555
O3H Mn1 1_555 1_555
Mn1A O3 1_555 1_555
Mn1F O2I 1_555 1_555
Mn1J O3I 1_555 1_555
C1I C2I 1_555 1_555

#END
