
#######################################################################
#
#                 Cambridge Crystallographic Data Centre
#                                CCDC 
#
#######################################################################
#
# If this CIF has been generated from an entry in the Cambridge 
# Structural Database, then it will include bibliographic, chemical, 
# crystal, experimental, refinement or atomic coordinate data resulting 
# from the CCDC's data processing and validation procedures.
#
#######################################################################

data_BAQPEQ
_symmetry_cell_setting           triclinic
_symmetry_space_group_name_H-M   'P -1'
_symmetry_Int_Tables_number      2
_space_group_name_Hall           '-P 1'
loop_
_symmetry_equiv_pos_site_id
_symmetry_equiv_pos_as_xyz
1 x,y,z
2 -x,-y,-z
_cell_length_a                   8.834(5)
_cell_length_b                   9.649(5)
_cell_length_c                   10.297(5)
_cell_angle_alpha                92.974(6)
_cell_angle_beta                 105.026(6)
_cell_angle_gamma                101.415(6)
_cell_volume                     825.979
loop_
_atom_site_label
_atom_site_type_symbol
_atom_site_fract_x
_atom_site_fract_y
_atom_site_fract_z
Cu1 Cu 0.67941(4) 0.62299(4) 0.12917(4)
Cl1 Cl 0.59748(9) 0.82916(9) 0.11499(9)
Cl2 Cl 0.44566(9) 0.49742(9) 0.15657(9)
C1 C 0.7156(4) 0.3182(3) 0.1546(3)
H1 H 0.6038 0.2961 0.1473
C2 C 0.7996(4) 0.2095(4) 0.1680(4)
H2 H 0.7449 0.1143 0.1681
C3 C 0.9614(4) 0.2405(4) 0.1810(3)
H3 H 1.0201 0.1674 0.1914
C4 C 1.0382(4) 0.3798(4) 0.1789(3)
H4 H 1.1503 0.4042 0.1876
C5 C 0.9475(4) 0.4827(3) 0.1636(3)
C6 C 1.0121(4) 0.6319(3) 0.1543(3)
C7 C 1.1601(4) 0.7137(3) 0.1647(3)
H5 H 1.2599 0.6852 0.1836
C8 C 1.2521(4) 0.9734(4) 0.1454(4)
H6 H 1.2011 1.0370 0.0841
H7 H 1.3397 0.9488 0.1117
C9 C 1.3221(4) 1.0513(4) 0.2856(4)
C10 C 1.4851(4) 1.0988(4) 0.3370(4)
H8 H 1.5564 1.0754 0.2887
C11 C 1.5441(4) 1.1818(4) 0.4610(4)
H9 H 1.6562 1.2186 0.4976
C12 C 1.4373(5) 1.2098(4) 0.5298(4)
H10 H 1.4742 1.2670 0.6145
C13 C 1.2756(4) 1.1533(4) 0.4735(4)
C14 C 1.1507(4) 1.1757(4) 0.5442(4)
H11 H 1.0445 1.1586 0.4765
H12 H 1.1442 1.1052 0.6102
N1 N 0.7881(3) 0.4525(3) 0.1518(3)
N2 N 0.9037(3) 0.7172(3) 0.1251(3)
N3 N 0.9774(3) 0.8465(3) 0.1182(3)
N4 N 1.1330(3) 0.8436(3) 0.1422(3)
N5 N 1.2169(3) 1.0753(3) 0.3527(3)
N6 N 1.1866(4) 1.3202(3) 0.6155(3)
N7 N 1.1863(5) 1.4180(4) 0.5431(4)
N8 N 1.1895(7) 1.5166(5) 0.4889(5)
Cu1A Cu 0.32059(4) 0.37701(4) -0.12917(4)
Cu1A_2 Cu 1.32059(4) 1.37701(4) 0.87083(4)
Cl2A Cl 0.55434(9) 0.50258(9) -0.15657(9)
N6A N 0.8134(4) 0.6798(3) 0.3845(3)
loop_
_geom_bond_atom_site_label_1
_geom_bond_atom_site_label_2
_geom_bond_site_symmetry_1
_geom_bond_site_symmetry_2
Cu1 Cl1 1_555 1_555
Cl2 Cu1 1_555 1_555
C1 H1 1_555 1_555
C2 C1 1_555 1_555
H2 C2 1_555 1_555
C3 C2 1_555 1_555
H3 C3 1_555 1_555
C4 C3 1_555 1_555
H4 C4 1_555 1_555
C5 C4 1_555 1_555
C6 C5 1_555 1_555
C7 C6 1_555 1_555
H5 C7 1_555 1_555
C8 H6 1_555 1_555
H7 C8 1_555 1_555
C9 C8 1_555 1_555
C10 C9 1_555 1_555
H8 C10 1_555 1_555
C11 C10 1_555 1_555
H9 C11 1_555 1_555
C12 C11 1_555 1_555
H10 C12 1_555 1_555
C13 C12 1_555 1_555
C14 C13 1_555 1_555
H11 C14 1_555 1_555
H12 C14 1_555 1_555
N1 Cu1 1_555 1_555
N2 Cu1 1_555 1_555
N3 N2 1_555 1_555
N4 C7 1_555 1_555
N5 C9 1_555 1_555
N6 C14 1_555 1_555
N7 N6 1_555 1_555
N8 N7 1_555 1_555
Cu1A Cl2 1_555 1_555
Cu1A_2 N6 1_555 1_555
Cl2A Cu1 1_555 1_555
N6A Cu1 1_555 1_555
C1 N1 1_555 1_555
C5 N1 1_555 1_555
C6 N2 1_555 1_555
C8 N4 1_555 1_555
C13 N5 1_555 1_555
N3 N4 1_555 1_555
Cu1A Cl2A 1_555 1_555

#END
