
#######################################################################
#
#                 Cambridge Crystallographic Data Centre
#                                CCDC 
#
#######################################################################
#
# If this CIF has been generated from an entry in the Cambridge 
# Structural Database, then it will include bibliographic, chemical, 
# crystal, experimental, refinement or atomic coordinate data resulting 
# from the CCDC's data processing and validation procedures.
#
#######################################################################

data_BAQROC
_symmetry_cell_setting           triclinic
_symmetry_space_group_name_H-M   'P -1'
_symmetry_Int_Tables_number      2
_space_group_name_Hall           '-P 1'
loop_
_symmetry_equiv_pos_site_id
_symmetry_equiv_pos_as_xyz
1 x,y,z
2 -x,-y,-z
_cell_length_a                   10.0972(5)
_cell_length_b                   10.8343(5)
_cell_length_c                   29.8363(14)
_cell_angle_alpha                84.7302(12)
_cell_angle_beta                 81.2071(10)
_cell_angle_gamma                86.9031(10)
_cell_volume                     3209.33
loop_
_atom_site_label
_atom_site_type_symbol
_atom_site_fract_x
_atom_site_fract_y
_atom_site_fract_z
C1 C 0.4065(7) 1.1927(7) 0.6428(3)
H1 H 0.3874 1.1236 0.6632
C2 C 0.4268(8) 1.1793(8) 0.5955(3)
H2 H 0.4249 1.1014 0.5849
C3 C 0.4501(7) 1.2866(7) 0.5641(2)
C4 C 0.4531(7) 1.3995(7) 0.5826(2)
H3 H 0.4664 1.4721 0.5635
C5 C 0.4365(7) 1.4035(7) 0.6288(3)
H4 H 0.4407 1.4803 0.6400
C6 C 0.4822(9) 1.2780(7) 0.5136(3)
C7 C 0.4529(7) 1.1732(6) 0.4490(2)
C8 C 0.3464(7) 1.1645(8) 0.4263(2)
H5 H 0.2598 1.1709 0.4421
C9 C 0.3644(7) 1.1457(6) 0.3789(2)
C10 C 0.4979(7) 1.1404(7) 0.3561(3)
H6 H 0.5139 1.1322 0.3250
C11 C 0.6054(7) 1.1472(6) 0.3798(2)
C12 C 0.5819(6) 1.1650(7) 0.4270(2)
H7 H 0.6535 1.1710 0.4428
C13 C 0.2472(7) 1.1273(6) 0.3553(2)
C14 C 0.7488(7) 1.1285(6) 0.3574(3)
C15 C -0.2133(9) 1.2259(8) 0.5831(2)
H8 H -0.2164 1.1403 0.5829
C16 C -0.1939(9) 1.2918(8) 0.5449(3)
H9 H -0.1805 1.2502 0.5185
C17 C -0.1913(6) 1.4180(7) 0.5397(2)
C18 C -0.2200(7) 1.4724(8) 0.5822(3)
H10 H -0.2288 1.5582 0.5826
C19 C -0.2344(6) 1.3996(7) 0.6219(3)
H11 H -0.2483 1.4372 0.6492
C20 C -0.1753(9) 1.5048(8) 0.4975(3)
C21 C -0.1022(7) 1.5031(7) 0.4146(2)
C22 C -0.0761(8) 1.4227(6) 0.3785(2)
H12 H -0.0739 1.3373 0.3857
C23 C -0.0541(7) 1.4680(7) 0.3336(3)
C24 C -0.0443(9) 1.5987(6) 0.3242(3)
H13 H -0.0129 1.6309 0.2947
C25 C -0.0812(7) 1.6800(7) 0.3585(2)
C26 C -0.1026(8) 1.6293(7) 0.4040(2)
H14 H -0.1173 1.6820 0.4273
C27 C -0.0255(6) 1.3823(6) 0.2963(2)
C28 C -0.0727(8) 1.8141(8) 0.3448(3)
C29 C -0.3939(8) 1.0823(8) -0.1240(3)
H15 H -0.3902 1.0045 -0.1351
C30 C -0.4304(7) 1.0929(8) -0.0785(3)
H16 H -0.4533 1.0228 -0.0590
C31 C -0.4335(6) 1.2121(6) -0.0605(2)
C32 C -0.4017(7) 1.3158(7) -0.0925(3)
H17 H -0.4028 1.3950 -0.0827
C33 C -0.3691(9) 1.2974(8) -0.1383(3)
H18 H -0.3510 1.3655 -0.1592
C34 C -0.4365(7) 1.3327(6) 0.0529(2)
C35 C -0.5659(7) 1.3383(7) 0.0767(3)
H19 H -0.6392 1.3219 0.0631
C36 C -0.5824(8) 1.3690(6) 0.1215(3)
C37 C -0.4732(7) 1.3905(8) 0.1424(2)
H20 H -0.4866 1.4068 0.1728
C38 C -0.3466(7) 1.3879(7) 0.1187(2)
C39 C -0.3257(7) 1.3616(7) 0.0733(2)
H21 H -0.2401 1.3630 0.0566
C40 C -0.7269(6) 1.3825(6) 0.1444(2)
C41 C -0.2275(7) 1.4043(7) 0.1389(2)
C42 C 0.2742(7) 1.0598(7) -0.1228(2)
H22 H 0.2962 1.0155 -0.1483
C43 C 0.2382(7) 0.9970(7) -0.0812(2)
H23 H 0.2364 0.9108 -0.0788
C44 C 0.2040(7) 1.0614(7) -0.0424(2)
C45 C 0.2088(8) 1.1902(7) -0.0477(2)
H24 H 0.1859 1.2373 -0.0230
C46 C 0.2478(10) 1.2443(8) -0.0898(3)
H25 H 0.2535 1.3302 -0.0926
C47 C 0.1684(6) 0.9844(6) 0.0023(2)
C48 C 0.0943(8) 0.9927(8) 0.0846(3)
C49 C 0.0751(5) 0.8657(6) 0.0957(2)
H26 H 0.0836 0.8116 0.0728
C50 C 0.0430(8) 0.8210(7) 0.1415(3)
C51 C 0.0216(8) 0.9035(8) 0.1757(3)
H27 H -0.0092 0.8742 0.2056
C52 C 0.0460(7) 1.0285(7) 0.1654(3)
C53 C 0.0780(6) 1.0730(7) 0.1188(2)
H28 H 0.0881 1.1575 0.1112
C54 C 0.0270(7) 0.6869(6) 0.1535(3)
C55 C 0.0285(7) 1.1111(7) 0.2030(3)
C56 C -0.4764(7) 1.2227(7) -0.0116(2)
N1 N 0.4147(6) 1.3053(6) 0.6589(2)
N2 N 0.4271(6) 1.1896(7) 0.4972(2)
H29 H 0.3749 1.1404 0.5151
N3 N -0.2292(6) 1.2749(6) 0.6234(2)
N4 N -0.1238(7) 1.4452(6) 0.4587(2)
H30 H -0.1040 1.3670 0.4622
N5 N -0.3631(7) 1.1834(7) -0.1532(2)
N6 N -0.4123(7) 1.3097(7) 0.0048(2)
H31 H -0.3552 1.3533 -0.0136
N7 N 0.2787(7) 1.1876(7) -0.1277(2)
N8 N 0.1265(7) 1.0450(5) 0.0393(2)
H32 H 0.1182 1.1244 0.0350
Ni1 Ni 0.41082(9) 1.31737(9) 0.72977(3)
O1 O 0.5631(5) 1.3480(5) 0.49289(17)
O2 O 0.1416(5) 1.0948(5) 0.38006(15)
O3 O 0.2613(5) 1.1481(5) 0.31312(17)
O4 O 0.7719(5) 1.1054(6) 0.31549(18)
O5 O 0.8405(5) 1.1306(4) 0.38054(18)
O6 O -0.2041(6) 1.6164(5) 0.49713(19)
O7 O -0.0543(5) 1.8854(4) 0.37602(16)
O8 O -0.0799(5) 1.8608(5) 0.30540(17)
O9 O -0.0422(5) 1.4342(5) 0.25762(17)
O10 O 0.0094(5) 1.2741(5) 0.30504(19)
O11 O -0.5624(5) 1.1604(5) 0.01022(18)
O12 O -0.8196(5) 1.3641(5) 0.12286(18)
O13 O -0.7542(5) 1.4190(5) 0.18461(18)
O14 O -0.2367(5) 1.4474(5) 0.17732(17)
O15 O -0.1091(5) 1.3804(5) 0.11804(17)
O16 O 0.1778(5) 0.8732(5) 0.00180(18)
O17 O 0.0444(6) 0.6098(5) 0.1232(2)
O18 O -0.0122(5) 0.6493(5) 0.19487(18)
O19 O 0.0463(5) 1.0595(5) 0.24198(17)
O20 O -0.0026(6) 1.2237(5) 0.19463(19)
O21 O 0.2029(5) 0.9022(5) 0.30624(17)
H33 H 0.2286 0.8702 0.3349
H34 H 0.1727 0.8359 0.2916
O22 O 0.5086(6) 1.1455(5) 0.7364(2)
H35 H 0.6008 1.1517 0.7228
H36 H 0.5039 1.1187 0.7682
O23 O 0.2376(5) 1.2328(5) 0.74622(18)
H37 H 0.1832 1.2541 0.7227
H38 H 0.1923 1.2605 0.7744
O24 O 0.3958(6) 1.3382(6) 0.79712(18)
H39 H 0.3938 1.2581 0.8139
H40 H 0.3148 1.3852 0.8067
O25 O 0.3248(6) 1.4973(6) 0.72332(19)
H41 H 0.2954 1.5242 0.7531
H42 H 0.2493 1.4969 0.7073
O26 O 0.5883(5) 1.4082(6) 0.7174(2)
H43 H 0.5777 1.4882 0.7292
H44 H 0.6502 1.3569 0.7330
Tb1 Tb 0.01558(3) 1.06225(3) 0.319730(10)
Tb2 Tb 0.00613(3) 1.42903(3) 0.179480(10)
O4_2 O -0.2281(5) 1.1054(6) 0.31549(18)
O5_2 O -0.1595(5) 1.1306(4) 0.38054(18)
O7_2 O -0.0543(5) 0.8854(4) 0.37602(16)
O8_2 O -0.0799(5) 0.8608(5) 0.30540(17)
O12_2 O 0.1804(5) 1.3641(5) 0.12286(18)
O13_2 O 0.2458(5) 1.4190(5) 0.18461(18)
O17_2 O 0.0444(6) 1.6098(5) 0.1232(2)
O18_2 O -0.0122(5) 1.6493(5) 0.19487(18)
Tb1_2 Tb 1.01558(3) 1.06225(3) 0.319730(10)
Tb1_3 Tb 0.01558(3) 2.06225(3) 0.319730(10)
Tb2_2 Tb -0.99387(3) 1.42903(3) 0.179480(10)
Tb2_3 Tb 0.00613(3) 0.42903(3) 0.179480(10)
O27 O 0.1542(6) 0.5791(4) 0.03300(16)
H45 H 0.1337 0.6402 0.0151
H46 H 0.1649 0.6044 0.0583
O28 O 0.8426(5) 0.9223(5) 0.46714(17)
H47 H 0.8317 0.9996 0.4701
H48 H 0.9258 0.9022 0.4627
O29 O 0.5516(6) 0.9135(5) 0.7802(2)
H49 H 0.6170 0.8758 0.7650
H50 H 0.4816 0.8720 0.7823
O30 O 0.6270(6) 0.6422(5) 0.7374(2)
H51 H 0.7097 0.6580 0.7312
H52 H 0.5823 0.6917 0.7210
O31 O 0.9547(5) 0.6709(5) 0.96459(17)
H53 H 0.9057 0.6637 0.9443
H54 H 0.9997 0.6034 0.9689
O32 O 0.7808(6) 0.2515(6) 0.7638(2)
H55 H 0.8439 0.2493 0.7798
H56 H 0.7175 0.2077 0.7778
O33 O 0.9992(5) 0.8343(5) 0.54103(19)
H57 H 0.9609 0.9062 0.5409
H58 H 0.9510 0.7889 0.5612
O34 O 0.3184(6) 0.7560(6) 0.7548(2)
H59 H 0.2424 0.7888 0.7647
H60 H 0.3260 0.7545 0.7261
loop_
_geom_bond_atom_site_label_1
_geom_bond_atom_site_label_2
_geom_bond_site_symmetry_1
_geom_bond_site_symmetry_2
C1 H1 1_555 1_555
C2 C1 1_555 1_555
H2 C2 1_555 1_555
C3 C2 1_555 1_555
C4 C3 1_555 1_555
H3 C4 1_555 1_555
C5 C4 1_555 1_555
H4 C5 1_555 1_555
C6 C3 1_555 1_555
C7 C8 1_555 1_555
C8 H5 1_555 1_555
C9 C8 1_555 1_555
C10 C9 1_555 1_555
H6 C10 1_555 1_555
C11 C10 1_555 1_555
C12 C7 1_555 1_555
H7 C12 1_555 1_555
C13 C9 1_555 1_555
C14 C11 1_555 1_555
C15 H8 1_555 1_555
C16 C15 1_555 1_555
H9 C16 1_555 1_555
C17 C16 1_555 1_555
C18 C17 1_555 1_555
H10 C18 1_555 1_555
C19 C18 1_555 1_555
H11 C19 1_555 1_555
C20 C17 1_555 1_555
C21 C22 1_555 1_555
C22 H12 1_555 1_555
C23 C22 1_555 1_555
C24 C23 1_555 1_555
H13 C24 1_555 1_555
C25 C24 1_555 1_555
C26 C21 1_555 1_555
H14 C26 1_555 1_555
C27 C23 1_555 1_555
C28 C25 1_555 1_555
C29 H15 1_555 1_555
C30 C29 1_555 1_555
H16 C30 1_555 1_555
C31 C30 1_555 1_555
C32 C31 1_555 1_555
H17 C32 1_555 1_555
C33 C32 1_555 1_555
H18 C33 1_555 1_555
C34 C35 1_555 1_555
C35 H19 1_555 1_555
C36 C35 1_555 1_555
C37 C36 1_555 1_555
H20 C37 1_555 1_555
C38 C37 1_555 1_555
C39 C34 1_555 1_555
H21 C39 1_555 1_555
C40 C36 1_555 1_555
C41 C38 1_555 1_555
C42 H22 1_555 1_555
C43 C42 1_555 1_555
H23 C43 1_555 1_555
C44 C43 1_555 1_555
C45 C44 1_555 1_555
H24 C45 1_555 1_555
C46 C45 1_555 1_555
H25 C46 1_555 1_555
C47 C44 1_555 1_555
C48 C49 1_555 1_555
C49 H26 1_555 1_555
C50 C49 1_555 1_555
C51 C50 1_555 1_555
H27 C51 1_555 1_555
C52 C51 1_555 1_555
C53 C48 1_555 1_555
H28 C53 1_555 1_555
C54 C50 1_555 1_555
C55 C52 1_555 1_555
C56 C31 1_555 1_555
N1 C1 1_555 1_555
N2 C6 1_555 1_555
H29 N2 1_555 1_555
N3 C15 1_555 1_555
N4 C20 1_555 1_555
H30 N4 1_555 1_555
N5 C29 1_555 1_555
N6 C34 1_555 1_555
H31 N6 1_555 1_555
N7 C42 1_555 1_555
N8 C47 1_555 1_555
H32 N8 1_555 1_555
Ni1 N1 1_555 1_555
O1 C6 1_555 1_555
O2 C13 1_555 1_555
O3 C13 1_555 1_555
O4 C14 1_555 1_555
O5 C14 1_555 1_555
O6 C20 1_555 1_555
O7 C28 1_555 1_555
O8 C28 1_555 1_555
O9 C27 1_555 1_555
O10 C27 1_555 1_555
O11 C56 1_555 1_555
O12 C40 1_555 1_555
O13 C40 1_555 1_555
O14 C41 1_555 1_555
O15 C41 1_555 1_555
O16 C47 1_555 1_555
O17 C54 1_555 1_555
O18 C54 1_555 1_555
O19 C55 1_555 1_555
O20 C55 1_555 1_555
O21 H33 1_555 1_555
H34 O21 1_555 1_555
O22 Ni1 1_555 1_555
H35 O22 1_555 1_555
H36 O22 1_555 1_555
O23 Ni1 1_555 1_555
H37 O23 1_555 1_555
H38 O23 1_555 1_555
O24 Ni1 1_555 1_555
H39 O24 1_555 1_555
H40 O24 1_555 1_555
O25 Ni1 1_555 1_555
H41 O25 1_555 1_555
H42 O25 1_555 1_555
O26 Ni1 1_555 1_555
H43 O26 1_555 1_555
H44 O26 1_555 1_555
O27 H45 1_555 1_555
H46 O27 1_555 1_555
O28 H47 1_555 1_555
H48 O28 1_555 1_555
O29 H49 1_555 1_555
H50 O29 1_555 1_555
O30 H51 1_555 1_555
H52 O30 1_555 1_555
O31 H53 1_555 1_555
H54 O31 1_555 1_555
O32 H55 1_555 1_555
H56 O32 1_555 1_555
O33 H57 1_555 1_555
H58 O33 1_555 1_555
O34 H59 1_555 1_555
H60 O34 1_555 1_555
Tb1 O2 1_555 1_555
Tb2 O9 1_555 1_555
O4_2 Tb1 1_555 1_555
O5_2 Tb1 1_555 1_555
O7_2 Tb1 1_555 1_555
O8_2 Tb1 1_555 1_555
O12_2 Tb2 1_555 1_555
O13_2 Tb2 1_555 1_555
O17_2 Tb2 1_555 1_555
O18_2 Tb2 1_555 1_555
Tb1_2 O4 1_555 1_555
Tb1_3 O7 1_555 1_555
Tb2_2 O12 1_555 1_555
Tb2_3 O17 1_555 1_555
C5 N1 1_555 1_555
C7 N2 1_555 1_555
C11 C12 1_555 1_555
C19 N3 1_555 1_555
C21 N4 1_555 1_555
C25 C26 1_555 1_555
C33 N5 1_555 1_555
C38 C39 1_555 1_555
C46 N7 1_555 1_555
C48 N8 1_555 1_555
C52 C53 1_555 1_555
C56 N6 1_555 1_555
O3 Tb1 1_555 1_555
O5 Tb1_2 1_555 1_555
O8 Tb1_3 1_555 1_555
O10 Tb1 1_555 1_555
O13 Tb2_2 1_555 1_555
O14 Tb2 1_555 1_555
O15 Tb2 1_555 1_555
O18 Tb2_3 1_555 1_555
O19 Tb1 1_555 1_555
O20 Tb2 1_555 1_555
O21 Tb1 1_555 1_555

#END
