
#######################################################################
#
#                 Cambridge Crystallographic Data Centre
#                                CCDC 
#
#######################################################################
#
# If this CIF has been generated from an entry in the Cambridge 
# Structural Database, then it will include bibliographic, chemical, 
# crystal, experimental, refinement or atomic coordinate data resulting 
# from the CCDC's data processing and validation procedures.
#
#######################################################################

data_BAQRES
_symmetry_cell_setting           triclinic
_symmetry_space_group_name_H-M   'P -1'
_symmetry_Int_Tables_number      2
_space_group_name_Hall           '-P 1'
loop_
_symmetry_equiv_pos_site_id
_symmetry_equiv_pos_as_xyz
1 x,y,z
2 -x,-y,-z
_cell_length_a                   11.2251(6)
_cell_length_b                   15.5401(8)
_cell_length_c                   17.7459(9)
_cell_angle_alpha                103.6820(10)
_cell_angle_beta                 91.6410(10)
_cell_angle_gamma                108.6880(10)
_cell_volume                     2830.77
loop_
_atom_site_label
_atom_site_type_symbol
_atom_site_fract_x
_atom_site_fract_y
_atom_site_fract_z
Ag1 Ag 1.07099(3) 0.42786(3) 0.99391(2)
Ag2 Ag 0.07289(3) -0.07705(3) 0.99203(2)
C1 C 1.6194(4) 0.7110(4) 1.2517(3)
C2 C 1.4883(4) 0.6612(3) 1.2669(2)
C3 C 1.4567(4) 0.5739(3) 1.2821(2)
H1 H 1.5190 0.5465 1.2829
C4 C 1.3345(4) 0.5250(3) 1.2964(2)
C5 C 1.3084(4) 0.4292(3) 1.3120(3)
C6 C 1.2416(4) 0.5676(3) 1.2937(2)
C7 C 1.2752(4) 0.6560(3) 1.2782(2)
H2 H 1.2138 0.6840 1.2766
C8 C 1.3963(4) 0.7027(3) 1.2653(3)
H3 H 1.4162 0.7617 1.2557
C9 C 1.1069(4) 0.5273(3) 1.3086(2)
C10 C 1.0775(4) 0.5134(3) 1.3810(2)
H4 H 1.1420 0.5204 1.4184
C11 C 0.9542(4) 0.4895(3) 1.3987(3)
H5 H 0.9364 0.4802 1.4476
C12 C 0.8570(4) 0.4792(3) 1.3441(2)
C13 C 0.7253(4) 0.4552(3) 1.3674(3)
C14 C 0.8848(4) 0.4934(3) 1.2727(3)
H6 H 0.8197 0.4879 1.2363
C15 C 1.0088(4) 0.5161(3) 1.2530(2)
C16 C 1.0326(4) 0.5232(4) 1.1711(3)
C17 C 0.8524(4) 0.2910(4) 1.0599(3)
H7 H 0.9101 0.3152 1.1046
C18 C 0.7325(4) 0.2333(3) 1.0640(3)
H8 H 0.7106 0.2200 1.1111
C19 C 0.6446(4) 0.1952(3) 0.9993(3)
C20 C 0.6847(4) 0.2177(3) 0.9317(3)
H9 H 0.6292 0.1931 0.8859
C21 C 0.8064(4) 0.2765(4) 0.9310(3)
H10 H 0.8307 0.2904 0.8844
C22 C 0.5138(4) 0.1345(3) 1.0016(3)
C23 C 0.4518(4) 0.1418(3) 1.0685(3)
H11 H 0.4932 0.1862 1.1145
C24 C 0.3306(4) 0.0840(3) 1.0667(3)
H12 H 0.2918 0.0906 1.1123
C25 C 0.3219(4) 0.0111(3) 0.9393(3)
H13 H 0.2774 -0.0336 0.8941
C26 C 0.4453(4) 0.0666(3) 0.9361(3)
H14 H 0.4818 0.0581 0.8897
C27 C 1.8353(5) 0.8136(4) 1.0507(3)
H15 H 1.8768 0.8572 1.0971
C28 C 1.7147(4) 0.7535(4) 1.0517(3)
H16 H 1.6762 0.7578 1.0976
C29 C 1.6515(4) 0.6865(3) 0.9840(3)
C30 C 1.7159(4) 0.6839(4) 0.9193(3)
H17 H 1.6782 0.6390 0.8728
C31 C 1.8360(5) 0.7472(4) 0.9226(3)
H18 H 1.8769 0.7438 0.8777
C32 C 1.5208(4) 0.6233(3) 0.9836(3)
C33 C 1.4723(4) 0.6102(4) 1.0524(3)
H19 H 1.5234 0.6403 1.0996
C34 C 1.3507(4) 0.5540(4) 1.0522(3)
H20 H 1.3211 0.5477 1.0997
C35 C 1.3184(4) 0.5186(4) 0.9197(3)
H21 H 1.2662 0.4861 0.8732
C36 C 1.4390(4) 0.5756(4) 0.9167(3)
H22 H 1.4658 0.5822 0.8686
C37 C -0.0034(4) -0.0640(3) 0.8112(3)
C38 C 0.0065(4) -0.0615(3) 0.7265(2)
C39 C 0.1247(4) -0.0478(3) 0.6991(3)
H23 H 0.1933 -0.0452 0.7313
C40 C 0.1399(4) -0.0381(3) 0.6244(3)
C41 C 0.2633(4) -0.0221(3) 0.5907(3)
C42 C 0.0367(4) -0.0425(3) 0.5777(3)
H24 H 0.0464 -0.0359 0.5272
C43 C -0.0799(4) -0.0564(3) 0.6040(3)
H25 H -0.1479 -0.0589 0.5713
C44 C -0.0975(4) -0.0666(3) 0.6789(2)
C45 C -0.2293(4) -0.0903(3) 0.7020(2)
C46 C -0.2845(4) -0.0207(3) 0.7282(2)
C47 C -0.2084(4) 0.0817(3) 0.7471(3)
C48 C -0.4122(4) -0.0463(3) 0.7388(2)
H26 H -0.4484 -0.0001 0.7557
C49 C -0.4857(4) -0.1400(3) 0.7245(3)
C50 C -0.6214(4) -0.1631(3) 0.7407(3)
C51 C -0.4316(4) -0.2087(3) 0.6996(3)
H27 H -0.4808 -0.2718 0.6901
C52 C -0.3046(4) -0.1841(3) 0.6888(3)
H28 H -0.2691 -0.2310 0.6725
N1 N 0.8897(3) 0.3137(3) 0.9941(2)
N2 N 0.2644(3) 0.0185(3) 1.0034(2)
N3 N 1.8958(3) 0.8130(3) 0.9872(2)
N4 N 1.2729(3) 0.5079(3) 0.9872(2)
O1 O 1.6515(3) 0.7882(3) 1.2405(2)
O2 O 1.6946(3) 0.6620(3) 1.2501(2)
H37 H 1.7626 0.6899 1.2368
O3 O 1.4045(3) 0.4123(2) 1.3344(2)
O4 O 1.1993(3) 0.3745(2) 1.3029(2)
O5 O 0.7027(3) 0.4408(3) 1.4301(2)
O6 O 0.6399(3) 0.4516(3) 1.3131(2)
H38 H 0.5710 0.4425 1.3301
O7 O 1.0995(3) 0.4808(3) 1.13729(18)
O8 O 0.9791(3) 0.5704(3) 1.14314(19)
O9 O 0.0436(3) -0.1134(2) 0.83777(18)
O10 O -0.0597(3) -0.0117(2) 0.85071(17)
O11 O 0.3577(3) -0.0180(3) 0.6372(2)
H39 H 0.4245 0.0105 0.6230
O12 O 0.2744(3) -0.0115(3) 0.5255(2)
O13 O -0.1025(3) 0.1083(2) 0.79328(19)
H40 H -0.0938 0.0626 0.8051
O14 O -0.2432(3) 0.1378(2) 0.7234(2)
O15 O -0.6588(3) -0.1079(2) 0.78360(19)
O16 O -0.6930(3) -0.2495(2) 0.7066(2)
H41 H -0.7655 -0.2577 0.7177
Ag1A Ag 0.92901(3) 0.57214(3) 1.00609(2)
Ag2_2 Ag 2.07289(3) 0.92295(3) 0.99203(2)
N3_2 N -0.1042(3) -0.1870(3) 0.9872(2)
O8A O 1.0209(3) 0.4296(3) 0.85686(19)
Ag3 Ag 0.67430(4) 0.27314(3) 0.51582(3)
C53 C 0.9278(4) 0.2843(3) 0.4568(3)
H29 H 0.8905 0.2945 0.4138
C54 C 1.0537(4) 0.2928(3) 0.4597(3)
H30 H 1.1002 0.3090 0.4196
C55 C 1.1103(4) 0.2771(3) 0.5228(3)
C56 C 1.0362(4) 0.2520(3) 0.5800(3)
H31 H 1.0703 0.2386 0.6224
C57 C 0.9119(4) 0.2470(4) 0.5738(3)
H32 H 0.8640 0.2324 0.6138
C58 C 1.2444(4) 0.2815(3) 0.5263(2)
C59 C 1.3347(4) 0.3464(3) 0.4983(3)
H33 H 1.3134 0.3911 0.4794
C60 C 1.4570(4) 0.3446(4) 0.4983(3)
H34 H 1.5175 0.3898 0.4805
C61 C 1.4045(4) 0.2181(3) 0.5503(3)
H35 H 1.4278 0.1732 0.5678
C62 C 1.2826(4) 0.2170(3) 0.5541(3)
H36 H 1.2255 0.1733 0.5751
N5 N 0.8564(3) 0.2620(3) 0.5131(3)
N6 N 1.4913(3) 0.2802(3) 0.5229(2)
Ag3_2 Ag 1.67430(4) 0.27314(3) 0.51582(3)
N6_2 N 0.4913(3) 0.2802(3) 0.5229(2)
O17 O 0.9265(3) 0.2767(3) 0.2542(2)
H42 H 0.939(5) 0.228(2) 0.228(3)
H43 H 0.995(3) 0.323(2) 0.267(3)
O18 O 0.4231(3) 0.9345(3) 0.4100(2)
H44 H 0.372(4) 0.908(4) 0.3691(18)
H45 H 0.386(5) 0.954(4) 0.448(2)
O19 O 0.0778(3) 0.2797(3) 0.7811(3)
H46 H 0.063(6) 0.328(2) 0.807(3)
H47 H 0.021(4) 0.231(2) 0.785(4)
loop_
_geom_bond_atom_site_label_1
_geom_bond_atom_site_label_2
_geom_bond_site_symmetry_1
_geom_bond_site_symmetry_2
Ag1 N1 1_555 1_555
Ag2 N2 1_555 1_555
Ag3 N5 1_555 1_555
C1 C2 1_555 1_555
C2 C3 1_555 1_555
C3 H1 1_555 1_555
C4 C3 1_555 1_555
C5 C4 1_555 1_555
C6 C4 1_555 1_555
C7 C6 1_555 1_555
H2 C7 1_555 1_555
C8 C2 1_555 1_555
H3 C8 1_555 1_555
C9 C6 1_555 1_555
C10 C9 1_555 1_555
H4 C10 1_555 1_555
C11 C10 1_555 1_555
H5 C11 1_555 1_555
C12 C11 1_555 1_555
C13 C12 1_555 1_555
C14 C12 1_555 1_555
H6 C14 1_555 1_555
C15 C9 1_555 1_555
C16 C15 1_555 1_555
C17 H7 1_555 1_555
C18 C17 1_555 1_555
H8 C18 1_555 1_555
C19 C18 1_555 1_555
C20 C19 1_555 1_555
H9 C20 1_555 1_555
C21 C20 1_555 1_555
H10 C21 1_555 1_555
C22 C19 1_555 1_555
C23 C22 1_555 1_555
H11 C23 1_555 1_555
C24 C23 1_555 1_555
H12 C24 1_555 1_555
C25 H13 1_555 1_555
C26 C22 1_555 1_555
H14 C26 1_555 1_555
C27 H15 1_555 1_555
C28 C27 1_555 1_555
H16 C28 1_555 1_555
C29 C28 1_555 1_555
C30 C29 1_555 1_555
H17 C30 1_555 1_555
C31 C30 1_555 1_555
H18 C31 1_555 1_555
C32 C29 1_555 1_555
C33 C32 1_555 1_555
H19 C33 1_555 1_555
C34 C33 1_555 1_555
H20 C34 1_555 1_555
C35 H21 1_555 1_555
C36 C32 1_555 1_555
H22 C36 1_555 1_555
C37 C38 1_555 1_555
C38 C39 1_555 1_555
C39 H23 1_555 1_555
C40 C39 1_555 1_555
C41 C40 1_555 1_555
C42 C40 1_555 1_555
H24 C42 1_555 1_555
C43 C42 1_555 1_555
H25 C43 1_555 1_555
C44 C38 1_555 1_555
C45 C44 1_555 1_555
C46 C45 1_555 1_555
C47 C46 1_555 1_555
C48 C46 1_555 1_555
H26 C48 1_555 1_555
C49 C48 1_555 1_555
C50 C49 1_555 1_555
C51 C49 1_555 1_555
H27 C51 1_555 1_555
C52 C45 1_555 1_555
H28 C52 1_555 1_555
C53 H29 1_555 1_555
C54 C53 1_555 1_555
H30 C54 1_555 1_555
C55 C54 1_555 1_555
C56 C55 1_555 1_555
H31 C56 1_555 1_555
C57 C56 1_555 1_555
H32 C57 1_555 1_555
C58 C55 1_555 1_555
C59 C58 1_555 1_555
H33 C59 1_555 1_555
C60 C59 1_555 1_555
H34 C60 1_555 1_555
C61 H35 1_555 1_555
C62 C58 1_555 1_555
H36 C62 1_555 1_555
N1 C17 1_555 1_555
N2 C24 1_555 1_555
N3 C27 1_555 1_555
N4 Ag1 1_555 1_555
N5 C53 1_555 1_555
N6 C60 1_555 1_555
O1 C1 1_555 1_555
O2 C1 1_555 1_555
H37 O2 1_555 1_555
O3 C5 1_555 1_555
O4 C5 1_555 1_555
O5 C13 1_555 1_555
O6 C13 1_555 1_555
H38 O6 1_555 1_555
O7 Ag1 1_555 1_555
O8 C16 1_555 1_555
O9 Ag2 1_555 1_555
O10 C37 1_555 1_555
O11 C41 1_555 1_555
H39 O11 1_555 1_555
O12 C41 1_555 1_555
O13 C47 1_555 1_555
H40 O13 1_555 1_555
O14 C47 1_555 1_555
O15 C50 1_555 1_555
O16 C50 1_555 1_555
H41 O16 1_555 1_555
O17 H42 1_555 1_555
H43 O17 1_555 1_555
O18 H44 1_555 1_555
H45 O18 1_555 1_555
O19 H46 1_555 1_555
H47 O19 1_555 1_555
Ag1A O8 1_555 1_555
Ag2_2 N3 1_555 1_555
Ag3_2 N6 1_555 1_555
N3_2 Ag2 1_555 1_555
N6_2 Ag3 1_555 1_555
O8A Ag1 1_555 1_555
C7 C8 1_555 1_555
C14 C15 1_555 1_555
C16 O7 1_555 1_555
C21 N1 1_555 1_555
C25 C26 1_555 1_555
C25 N2 1_555 1_555
C31 N3 1_555 1_555
C34 N4 1_555 1_555
C35 C36 1_555 1_555
C35 N4 1_555 1_555
C37 O9 1_555 1_555
C43 C44 1_555 1_555
C51 C52 1_555 1_555
C57 N5 1_555 1_555
C61 C62 1_555 1_555
C61 N6 1_555 1_555

#END
