
#######################################################################
#
#                 Cambridge Crystallographic Data Centre
#                                CCDC 
#
#######################################################################
#
# If this CIF has been generated from an entry in the Cambridge 
# Structural Database, then it will include bibliographic, chemical, 
# crystal, experimental, refinement or atomic coordinate data resulting 
# from the CCDC's data processing and validation procedures.
#
#######################################################################

data_BAQSIV
_symmetry_cell_setting           monoclinic
_symmetry_space_group_name_H-M   'P 21/c'
_symmetry_Int_Tables_number      14
_space_group_name_Hall           '-P 2ybc'
loop_
_symmetry_equiv_pos_site_id
_symmetry_equiv_pos_as_xyz
1 x,y,z
2 x,1/2-y,1/2+z
3 -x,-y,-z
4 -x,1/2+y,1/2-z
_cell_length_a                   11.952(2)
_cell_length_b                   11.247(2)
_cell_length_c                   18.779(4)
_cell_angle_alpha                90
_cell_angle_beta                 101.89(3)
_cell_angle_gamma                90
_cell_volume                     2470.19
loop_
_atom_site_label
_atom_site_type_symbol
_atom_site_fract_x
_atom_site_fract_y
_atom_site_fract_z
Mo1 Mo 0.22005(3) 0.47227(3) 0.113193(16)
Cu1 Cu 0.08127(4) 0.28369(4) 0.11772(3)
Cu2 Cu 0.37015(4) 0.37941(4) 0.22551(3)
Cu3 Cu 0.11016(4) 0.57389(4) 0.20678(3)
S1 S 0.02807(8) 0.48084(9) 0.10424(5)
S2 S 0.27513(8) 0.27951(8) 0.12599(5)
S3 S 0.30030(9) 0.56901(9) 0.21783(6)
N1 N -0.0133(3) 0.6981(3) 0.31069(19)
N2 N 0.0181(3) 0.2032(3) 0.01612(18)
N3 N 0.5418(3) 0.3981(3) 0.21177(19)
N4 N 0.3794(3) 0.2910(3) 0.32001(18)
C1 C 0.0837(4) 0.1310(4) -0.0143(3)
H1 H 0.1575 0.1155 0.0113
O1 O 0.2583(2) 0.5356(3) 0.03926(15)
C2 C 0.0314(3) 0.6525(4) 0.2712(2)
C3 C -0.0861(5) 0.2237(4) -0.0208(3)
H2 H -0.1343 0.2715 -0.0001
C4 C -0.1269(6) 0.1764(5) -0.0900(4)
H3 H -0.2000 0.1941 -0.1159
C5 C -0.0560(7) 0.1031(5) -0.1185(3)
H4 H -0.0812 0.0700 -0.1644
C6 C 0.0488(6) 0.0788(6) -0.0810(3)
H5 H 0.0969 0.0277 -0.0996
C7 C 0.5827(4) 0.3327(5) 0.1647(3)
H6 H 0.5360 0.2745 0.1389
C8 C 0.6925(5) 0.3468(6) 0.1521(4)
H7 H 0.7194 0.2982 0.1193
C9 C 0.7597(4) 0.4340(5) 0.1892(3)
H8 H 0.8332 0.4467 0.1815
C10 C 0.7183(4) 0.5018(4) 0.2374(3)
H9 H 0.7630 0.5611 0.2636
C11 C 0.6103(4) 0.4818(4) 0.2468(3)
H10 H 0.5826 0.5296 0.2797
C12 C 0.4768(4) 0.2447(4) 0.3570(2)
H11 H 0.5433 0.2576 0.3397
C13 C 0.4838(5) 0.1787(5) 0.4194(3)
H12 H 0.5536 0.1486 0.4440
C14 C 0.3857(5) 0.1582(5) 0.4444(3)
H13 H 0.3881 0.1138 0.4865
C15 C 0.2844(5) 0.2033(5) 0.4074(3)
H14 H 0.2170 0.1893 0.4234
C16 C 0.2839(4) 0.2704(4) 0.3454(2)
H15 H 0.2150 0.3023 0.3205
N1C N 0.0133(3) 0.1981(3) 0.18931(19)
Cu1C Cu -0.08127(4) 0.78369(4) 0.38228(3)
C17 C 0.3881(9) 0.5203(8) 0.4746(6)
C18 C 0.4618(9) 0.5352(7) 0.4317(5)
C19 C 0.4295(9) 0.4828(9) 0.5462(6)
C19B C 0.5705(9) 0.5172(9) 0.4538(6)
C17B C 0.6119(9) 0.4797(8) 0.5254(6)
C18B C 0.5382(9) 0.4648(7) 0.5683(5)
loop_
_geom_bond_atom_site_label_1
_geom_bond_atom_site_label_2
_geom_bond_site_symmetry_1
_geom_bond_site_symmetry_2
Mo1 Cu1 1_555 1_555
Cu1 S1 1_555 1_555
Cu2 Mo1 1_555 1_555
Cu3 Mo1 1_555 1_555
S1 Mo1 1_555 1_555
S2 Mo1 1_555 1_555
S3 Mo1 1_555 1_555
N1 C2 1_555 1_555
N2 Cu1 1_555 1_555
N3 Cu2 1_555 1_555
N4 Cu2 1_555 1_555
C1 N2 1_555 1_555
H1 C1 1_555 1_555
O1 Mo1 1_555 1_555
C2 Cu3 1_555 1_555
C3 N2 1_555 1_555
H2 C3 1_555 1_555
C4 C3 1_555 1_555
H3 C4 1_555 1_555
C5 C4 1_555 1_555
H4 C5 1_555 1_555
C6 C1 1_555 1_555
H5 C6 1_555 1_555
C7 N3 1_555 1_555
H6 C7 1_555 1_555
C8 C7 1_555 1_555
H7 C8 1_555 1_555
C9 C8 1_555 1_555
H8 C9 1_555 1_555
C10 C9 1_555 1_555
H9 C10 1_555 1_555
C11 N3 1_555 1_555
H10 C11 1_555 1_555
C12 N4 1_555 1_555
H11 C12 1_555 1_555
C13 C12 1_555 1_555
H12 C13 1_555 1_555
C14 C13 1_555 1_555
H13 C14 1_555 1_555
C15 C14 1_555 1_555
H14 C15 1_555 1_555
C16 N4 1_555 1_555
H15 C16 1_555 1_555
C17 C18 1_555 1_555
C18 C19B 1_555 1_555
C19 C17 1_555 1_555
N1C Cu1 1_555 1_555
Cu1C N1 1_555 1_555
C19B C17B 1_555 1_555
C17B C18B 1_555 1_555
C18B C19 1_555 1_555
Cu1 S2 1_555 1_555
Cu2 S2 1_555 1_555
Cu2 S3 1_555 1_555
Cu3 S3 1_555 1_555
Cu3 S1 1_555 1_555
C5 C6 1_555 1_555
C10 C11 1_555 1_555
C15 C16 1_555 1_555

#END
