
#######################################################################
#
#                 Cambridge Crystallographic Data Centre
#                                CCDC 
#
#######################################################################
#
# If this CIF has been generated from an entry in the Cambridge 
# Structural Database, then it will include bibliographic, chemical, 
# crystal, experimental, refinement or atomic coordinate data resulting 
# from the CCDC's data processing and validation procedures.
#
#######################################################################

data_BAQSOB
_symmetry_cell_setting           monoclinic
_symmetry_space_group_name_H-M   'P 21/n'
_symmetry_Int_Tables_number      14
_space_group_name_Hall           '-P 2yn'
loop_
_symmetry_equiv_pos_site_id
_symmetry_equiv_pos_as_xyz
1 x,y,z
2 1/2+x,1/2-y,1/2+z
3 -x,-y,-z
4 1/2-x,1/2+y,1/2-z
_cell_length_a                   13.023(3)
_cell_length_b                   12.199(2)
_cell_length_c                   17.579(4)
_cell_angle_alpha                90
_cell_angle_beta                 95.09(3)
_cell_angle_gamma                90
_cell_volume                     2781.72
loop_
_atom_site_label
_atom_site_type_symbol
_atom_site_fract_x
_atom_site_fract_y
_atom_site_fract_z
W1 W -1.04141(3) 0.68219(4) -0.20397(3)
Cu1 Cu -0.95686(13) 0.75928(14) -0.06891(10)
Cu2 Cu -0.88771(11) 0.53317(13) -0.21395(10)
Cu3 Cu -0.95169(11) 0.84730(13) -0.28047(10)
S1 S -0.9682(3) 0.5794(3) -0.10669(19)
S2 S -0.9507(2) 0.6579(3) -0.30579(19)
S3 S -1.0336(3) 0.8603(3) -0.1706(2)
N1 N -0.8162(9) 0.8201(9) -0.0298(7)
N2 N -1.0530(9) 0.7830(10) 0.0160(7)
N3 N -0.9755(8) 0.3851(9) -0.2582(8)
N4 N -1.0686(8) 0.8951(8) -0.3672(6)
N5 N -0.6752(10) 0.4360(10) -0.2124(7)
O1 O -1.1648(6) 0.6420(8) -0.2262(5)
C1 C -0.7517(13) 0.8524(17) -0.0785(9)
H1 H -0.7700 0.8459 -0.1306
C2 C -0.6558(12) 0.8966(18) -0.0528(13)
H2 H -0.6074 0.9133 -0.0869
C3 C -0.6354(13) 0.9143(17) 0.0233(12)
H3 H -0.5764 0.9527 0.0409
C4 C -0.6992(13) 0.8770(15) 0.0736(9)
H4 H -0.6831 0.8840 0.1260
C5 C -0.7893(13) 0.8283(12) 0.0442(11)
H5 H -0.8334 0.7998 0.0780
C6 C -1.0558(11) 0.8732(12) 0.0581(9)
H6 H -1.0029 0.9234 0.0539
C7 C -1.1246(11) 0.8990(15) 0.1044(10)
H7 H -1.1182 0.9644 0.1316
C8 C -1.2076(17) 0.8298(17) 0.1137(15)
H8 H -1.2556 0.8435 0.1486
C9 C -1.2125(15) 0.7380(16) 0.0660(11)
H9 H -1.2698 0.6922 0.0635
C10 C -1.1305(12) 0.7153(14) 0.0218(9)
H10 H -1.1309 0.6493 -0.0047
C11 C -1.0807(12) 0.3878(12) -0.2745(13)
H11 H -1.1142 0.4537 -0.2668
C12 C -1.1369(17) 0.3053(17) -0.300(2)
H12 H -1.2068 0.3142 -0.3145
C13 C -1.091(2) 0.206(2) -0.304(2)
H13 H -1.1316 0.1449 -0.3172
C14 C -0.993(2) 0.1963(14) -0.2914(14)
H14 H -0.9624 0.1280 -0.2948
C15 C -0.9331(15) 0.2893(14) -0.2721(12)
H15 H -0.8617 0.2835 -0.2689
C16 C -1.1652(11) 0.9279(12) -0.3547(10)
H16 H -1.1805 0.9351 -0.3043
C17 C -1.2417(12) 0.9511(15) -0.4108(10)
H17 H -1.3068 0.9733 -0.3992
C18 C -1.2186(14) 0.9404(15) -0.4832(11)
H18 H -1.2696 0.9520 -0.5229
C19 C -1.1259(14) 0.9141(17) -0.4991(10)
H19 H -1.1091 0.9162 -0.5494
C20 C -1.0512(15) 0.8825(15) -0.4404(9)
H20 H -0.9892 0.8526 -0.4528
C21 C -0.7519(8) 0.4815(10) -0.2091(7)
Cu3C Cu -0.54831(11) 0.34730(13) -0.21953(10)
N5C N -0.8248(10) 0.9360(10) -0.2876(7)
loop_
_geom_bond_atom_site_label_1
_geom_bond_atom_site_label_2
_geom_bond_site_symmetry_1
_geom_bond_site_symmetry_2
W1 Cu1 1_555 1_555
Cu1 S1 1_555 1_555
Cu2 W1 1_555 1_555
Cu3 W1 1_555 1_555
S1 W1 1_555 1_555
S2 W1 1_555 1_555
S3 W1 1_555 1_555
N1 Cu1 1_555 1_555
N2 Cu1 1_555 1_555
N3 Cu2 1_555 1_555
N4 Cu3 1_555 1_555
N5 C21 1_555 1_555
O1 W1 1_555 1_555
C1 N1 1_555 1_555
H1 C1 1_555 1_555
C2 C1 1_555 1_555
H2 C2 1_555 1_555
C3 C2 1_555 1_555
H3 C3 1_555 1_555
C4 C3 1_555 1_555
H4 C4 1_555 1_555
C5 N1 1_555 1_555
H5 C5 1_555 1_555
C6 N2 1_555 1_555
H6 C6 1_555 1_555
C7 C6 1_555 1_555
H7 C7 1_555 1_555
C8 C7 1_555 1_555
H8 C8 1_555 1_555
C9 C8 1_555 1_555
H9 C9 1_555 1_555
C10 N2 1_555 1_555
H10 C10 1_555 1_555
C11 N3 1_555 1_555
H11 C11 1_555 1_555
C12 C11 1_555 1_555
H12 C12 1_555 1_555
C13 C12 1_555 1_555
H13 C13 1_555 1_555
C14 C13 1_555 1_555
H14 C14 1_555 1_555
C15 N3 1_555 1_555
H15 C15 1_555 1_555
C16 N4 1_555 1_555
H16 C16 1_555 1_555
C17 C16 1_555 1_555
H17 C17 1_555 1_555
C18 C17 1_555 1_555
H18 C18 1_555 1_555
C19 C18 1_555 1_555
H19 C19 1_555 1_555
C20 N4 1_555 1_555
H20 C20 1_555 1_555
C21 Cu2 1_555 1_555
Cu3C N5 1_555 1_555
N5C Cu3 1_555 1_555
Cu1 S3 1_555 1_555
Cu2 S2 1_555 1_555
Cu2 S1 1_555 1_555
Cu3 S2 1_555 1_555
Cu3 S3 1_555 1_555
C4 C5 1_555 1_555
C9 C10 1_555 1_555
C14 C15 1_555 1_555
C19 C20 1_555 1_555

#END
