
#######################################################################
#
#                 Cambridge Crystallographic Data Centre
#                                CCDC 
#
#######################################################################
#
# If this CIF has been generated from an entry in the Cambridge 
# Structural Database, then it will include bibliographic, chemical, 
# crystal, experimental, refinement or atomic coordinate data resulting 
# from the CCDC's data processing and validation procedures.
#
#######################################################################

data_BAQXUO
_symmetry_cell_setting           monoclinic
_symmetry_space_group_name_H-M   'P 21/n'
_symmetry_Int_Tables_number      14
_space_group_name_Hall           '-P 2yn'
loop_
_symmetry_equiv_pos_site_id
_symmetry_equiv_pos_as_xyz
1 x,y,z
2 1/2-x,1/2+y,1/2-z
3 -x,-y,-z
4 1/2+x,1/2-y,1/2+z
_cell_length_a                   8.4798(3)
_cell_length_b                   20.8033(7)
_cell_length_c                   21.2503(8)
_cell_angle_alpha                90
_cell_angle_beta                 92.601(2)
_cell_angle_gamma                90
_cell_volume                     3744.86
loop_
_atom_site_label
_atom_site_type_symbol
_atom_site_fract_x
_atom_site_fract_y
_atom_site_fract_z
C1 C 0.3246(8) 0.2346(3) -0.1766(3)
H1 H 0.3703 0.2740 -0.1856
C2 C 0.2297(8) 0.2054(3) -0.2231(3)
H2 H 0.2117 0.2244 -0.2623
C3 C 0.1637(9) 0.1477(3) -0.2092(3)
H3 H 0.0992 0.1268 -0.2393
C4 C 0.1924(8) 0.1202(3) -0.1503(3)
H4 H 0.1475 0.0808 -0.1406
C5 C 0.2887(7) 0.1520(3) -0.1061(3)
C6 C 0.3204(7) 0.1294(3) -0.0407(3)
C7 C 0.2772(7) 0.0643(3) -0.0193(3)
C8 C 0.1913(8) 0.0559(3) 0.0338(3)
H5 H 0.1606 0.0917 0.0565
C9 C 0.1505(9) -0.0045(4) 0.0536(4)
H6 H 0.0912 -0.0095 0.0891
C10 C 0.1983(10) -0.0582(3) 0.0204(4)
H7 H 0.1698 -0.0992 0.0333
C11 C 0.2867(9) -0.0511(3) -0.0309(4)
H8 H 0.3213 -0.0870 -0.0524
C12 C 0.3251(8) 0.0102(3) -0.0510(4)
H9 H 0.3842 0.0150 -0.0866
C13 C 0.2143(7) 0.4960(3) 0.0608(3)
H10 H 0.2024 0.4801 0.1012
C14 C 0.1544(8) 0.5567(3) 0.0458(3)
H11 H 0.1036 0.5809 0.0757
C15 C 0.1717(8) 0.5799(3) -0.0132(4)
H12 H 0.1326 0.6204 -0.0241
C16 C 0.2477(7) 0.5433(3) -0.0574(3)
H13 H 0.2623 0.5592 -0.0976
C17 C 0.3014(7) 0.4823(3) -0.0401(3)
C18 C 0.3709(7) 0.4358(3) -0.0839(3)
C19 C 0.3727(7) 0.4453(3) -0.1526(3)
C20 C 0.4688(7) 0.4895(3) -0.1806(3)
H14 H 0.5294 0.5175 -0.1555
C21 C 0.4766(9) 0.4930(3) -0.2454(4)
H15 H 0.5415 0.5232 -0.2634
C22 C 0.3883(10) 0.4517(4) -0.2832(3)
H16 H 0.3956 0.4534 -0.3267
C23 C 0.2899(8) 0.4084(3) -0.2571(4)
H17 H 0.2287 0.3808 -0.2826
C24 C 0.2823(7) 0.4058(3) -0.1925(3)
H18 H 0.2141 0.3764 -0.1750
C25 C 0.3669(7) 0.1363(3) 0.1985(3)
H19 H 0.4151 0.1081 0.1713
C26 C 0.3075(8) 0.1128(3) 0.2522(4)
H20 H 0.3153 0.0693 0.2616
C27 C 0.2354(8) 0.1543(3) 0.2925(3)
H21 H 0.1937 0.1390 0.3294
C28 C 0.2257(7) 0.2183(3) 0.2779(3)
H22 H 0.1762 0.2468 0.3044
C29 C 0.2906(7) 0.2399(3) 0.2232(3)
C30 C 0.2820(7) 0.3073(3) 0.2000(3)
C31 C 0.1879(7) 0.3582(3) 0.2299(3)
C32 C 0.2149(8) 0.3752(3) 0.2927(3)
H23 H 0.2931 0.3546 0.3173
C33 C 0.1242(9) 0.4233(3) 0.3187(3)
H24 H 0.1407 0.4344 0.3609
C34 C 0.0114(9) 0.4542(3) 0.2825(4)
H25 H -0.0478 0.4867 0.3001
C35 C -0.0156(9) 0.4381(3) 0.2211(4)
H26 H -0.0932 0.4595 0.1969
C36 C 0.0722(8) 0.3896(3) 0.1940(3)
H27 H 0.0529 0.3785 0.1519
C37 C 0.8006(8) 0.2409(3) 0.1126(3)
C38 C 0.9576(8) 0.2100(4) 0.1239(4)
H28 H 0.9464 0.1724 0.1496
H29 H 1.0285 0.2397 0.1450
H30 H 0.9990 0.1978 0.0843
C39 C 0.8394(10) 0.2389(5) -0.0604(5)
C40 C 1.0743(9) 0.2831(4) -0.0257(4)
N1 N 0.3538(5) 0.2092(2) -0.1200(2)
N2 N 0.3892(5) 0.1728(2) -0.0043(2)
N3 N 0.2880(5) 0.4600(2) 0.0193(2)
N4 N 0.4178(5) 0.3827(2) -0.0564(2)
N5 N 0.3580(6) 0.1984(2) 0.1838(2)
N6 N 0.3547(6) 0.3161(2) 0.1481(2)
N7 N 0.7133(7) 0.2271(2) -0.0647(3)
N8 N 0.9867(8) 0.2488(4) -0.0633(4)
N9 N 1.1628(7) 0.3111(3) 0.0040(3)
O1 O 0.4140(5) 0.16051(18) 0.0563(2)
O2 O 0.4755(5) 0.33566(17) -0.09062(18)
O3 O 0.3527(5) 0.37477(17) 0.12245(19)
O4 O 0.5008(4) 0.29236(16) 0.03559(17)
H31 H 0.5800 0.2989 0.0452
O5 O 0.6839(5) 0.2149(2) 0.1372(2)
O6 O 0.7929(5) 0.2906(2) 0.0802(2)
Cu1 Cu 0.46569(8) 0.25177(3) -0.04651(3)
Cu2 Cu 0.37557(9) 0.37164(3) 0.03264(3)
Cu3 Cu 0.44595(8) 0.23920(3) 0.10765(3)
N9_2 N 0.1628(7) 0.3111(3) 0.0040(3)
Cu2_2 Cu 1.37557(9) 0.37164(3) 0.03264(3)
loop_
_geom_bond_atom_site_label_1
_geom_bond_atom_site_label_2
_geom_bond_site_symmetry_1
_geom_bond_site_symmetry_2
C1 H1 1_555 1_555
C2 C1 1_555 1_555
H2 C2 1_555 1_555
C3 C2 1_555 1_555
H3 C3 1_555 1_555
C4 C3 1_555 1_555
H4 C4 1_555 1_555
C5 C4 1_555 1_555
C6 C5 1_555 1_555
C7 C6 1_555 1_555
C8 C7 1_555 1_555
H5 C8 1_555 1_555
C9 C8 1_555 1_555
H6 C9 1_555 1_555
C10 C9 1_555 1_555
H7 C10 1_555 1_555
C11 C10 1_555 1_555
H8 C11 1_555 1_555
C12 C7 1_555 1_555
H9 C12 1_555 1_555
C13 H10 1_555 1_555
C14 C13 1_555 1_555
H11 C14 1_555 1_555
C15 C14 1_555 1_555
H12 C15 1_555 1_555
C16 C15 1_555 1_555
H13 C16 1_555 1_555
C17 C16 1_555 1_555
C18 C17 1_555 1_555
C19 C18 1_555 1_555
C20 C19 1_555 1_555
H14 C20 1_555 1_555
C21 C20 1_555 1_555
H15 C21 1_555 1_555
C22 C21 1_555 1_555
H16 C22 1_555 1_555
C23 C22 1_555 1_555
H17 C23 1_555 1_555
C24 C19 1_555 1_555
H18 C24 1_555 1_555
C25 H19 1_555 1_555
C26 C25 1_555 1_555
H20 C26 1_555 1_555
C27 C26 1_555 1_555
H21 C27 1_555 1_555
C28 C27 1_555 1_555
H22 C28 1_555 1_555
C29 C28 1_555 1_555
C30 C29 1_555 1_555
C31 C30 1_555 1_555
C32 C31 1_555 1_555
H23 C32 1_555 1_555
C33 C32 1_555 1_555
H24 C33 1_555 1_555
C34 C33 1_555 1_555
H25 C34 1_555 1_555
C35 C34 1_555 1_555
H26 C35 1_555 1_555
C36 C31 1_555 1_555
H27 C36 1_555 1_555
C37 C38 1_555 1_555
C38 H28 1_555 1_555
H29 C38 1_555 1_555
H30 C38 1_555 1_555
C39 N7 1_555 1_555
C40 N8 1_555 1_555
N1 C1 1_555 1_555
N2 C6 1_555 1_555
N3 C13 1_555 1_555
N4 C18 1_555 1_555
N5 C25 1_555 1_555
N6 C30 1_555 1_555
N7 Cu1 1_555 1_555
N8 C39 1_555 1_555
N9 C40 1_555 1_555
O1 N2 1_555 1_555
O2 N4 1_555 1_555
O3 N6 1_555 1_555
O4 H31 1_555 1_555
O5 C37 1_555 1_555
O6 C37 1_555 1_555
Cu1 N1 1_555 1_555
Cu2 N3 1_555 1_555
Cu3 N5 1_555 1_555
N9_2 Cu2 1_555 1_555
Cu2_2 N9 1_555 1_555
C5 N1 1_555 1_555
C11 C12 1_555 1_555
C17 N3 1_555 1_555
C23 C24 1_555 1_555
C29 N5 1_555 1_555
C35 C36 1_555 1_555
N2 Cu1 1_555 1_555
N4 Cu2 1_555 1_555
N6 Cu3 1_555 1_555
O1 Cu3 1_555 1_555
O2 Cu1 1_555 1_555
O3 Cu2 1_555 1_555
O4 Cu1 1_555 1_555
O4 Cu2 1_555 1_555
O4 Cu3 1_555 1_555
O5 Cu3 1_555 1_555

#END
