
#######################################################################
#
#                 Cambridge Crystallographic Data Centre
#                                CCDC 
#
#######################################################################
#
# If this CIF has been generated from an entry in the Cambridge 
# Structural Database, then it will include bibliographic, chemical, 
# crystal, experimental, refinement or atomic coordinate data resulting 
# from the CCDC's data processing and validation procedures.
#
#######################################################################

data_BAQXOI
_symmetry_cell_setting           orthorhombic
_symmetry_space_group_name_H-M   'P b c a'
_symmetry_Int_Tables_number      61
_space_group_name_Hall           '-P 2ac 2ab'
loop_
_symmetry_equiv_pos_site_id
_symmetry_equiv_pos_as_xyz
1 x,y,z
2 1/2-x,-y,1/2+z
3 -x,1/2+y,1/2-z
4 1/2+x,1/2-y,-z
5 -x,-y,-z
6 1/2+x,y,1/2-z
7 x,1/2-y,1/2+z
8 1/2-x,1/2+y,z
_cell_length_a                   9.7767(10)
_cell_length_b                   8.9439(9)
_cell_length_c                   20.868(2)
_cell_angle_alpha                90
_cell_angle_beta                 90
_cell_angle_gamma                90
_cell_volume                     1824.74
loop_
_atom_site_label
_atom_site_type_symbol
_atom_site_fract_x
_atom_site_fract_y
_atom_site_fract_z
Tl1 Tl 0.44301(2) 0.88158(2) -0.115662(10)
N1 N 0.2171(5) 0.8136(5) -0.0550(2)
N2 N 0.1552(6) 0.6975(6) -0.0826(2)
N3 N 0.0594(5) 0.6484(6) -0.0451(3)
N4 N 0.0565(4) 0.7314(6) 0.0088(3)
C1 C 0.1544(6) 0.8316(6) 0.0008(3)
C2 C 0.1879(7) 0.9534(6) 0.0472(3)
H1 H 0.1363 1.0419 0.0354
H2 H 0.2842 0.9775 0.0430
C3 C 0.1586(6) 0.9175(6) 0.1161(3)
C4 C 0.2443(6) 0.8210(7) 0.1494(3)
H3 H 0.3212 0.7818 0.1292
C5 C 0.2163(8) 0.7831(8) 0.2118(3)
H4 H 0.2735 0.7171 0.2334
C6 C 0.1041(10) 0.8425(8) 0.2425(4)
H5 H 0.0865 0.8185 0.2850
C7 C 0.0184(9) 0.9370(8) 0.2100(4)
H6 H -0.0580 0.9764 0.2305
C8 C 0.0449(6) 0.9742(7) 0.1466(3)
H7 H -0.0142 1.0376 0.1247
Tl1G Tl 0.05699(2) 0.38158(2) -0.115662(10)
Tl1C Tl -0.05699(2) 0.61842(2) 0.115662(10)
N3G N 0.4406(5) 1.1484(6) -0.0451(3)
N4C N 0.5565(4) 0.7686(6) -0.0088(3)
loop_
_geom_bond_atom_site_label_1
_geom_bond_atom_site_label_2
_geom_bond_site_symmetry_1
_geom_bond_site_symmetry_2
Tl1 N1 1_555 1_555
N1 N2 1_555 1_555
N2 N3 1_555 1_555
N3 N4 1_555 1_555
N4 C1 1_555 1_555
C1 N1 1_555 1_555
C2 C1 1_555 1_555
H1 C2 1_555 1_555
H2 C2 1_555 1_555
C3 C2 1_555 1_555
C4 C3 1_555 1_555
H3 C4 1_555 1_555
C5 C4 1_555 1_555
H4 C5 1_555 1_555
C6 C5 1_555 1_555
H5 C6 1_555 1_555
C7 C6 1_555 1_555
H6 C7 1_555 1_555
C8 C3 1_555 1_555
H7 C8 1_555 1_555
Tl1G N3 1_555 1_555
Tl1C N4 1_555 1_555
N3G Tl1 1_555 1_555
N4C Tl1 1_555 1_555
C7 C8 1_555 1_555

#END
