
#######################################################################
#
#                 Cambridge Crystallographic Data Centre
#                                CCDC 
#
#######################################################################
#
# If this CIF has been generated from an entry in the Cambridge 
# Structural Database, then it will include bibliographic, chemical, 
# crystal, experimental, refinement or atomic coordinate data resulting 
# from the CCDC's data processing and validation procedures.
#
#######################################################################

data_BAQYEZ
_symmetry_cell_setting           triclinic
_symmetry_space_group_name_H-M   'P -1'
_symmetry_Int_Tables_number      2
_space_group_name_Hall           '-P 1'
loop_
_symmetry_equiv_pos_site_id
_symmetry_equiv_pos_as_xyz
1 x,y,z
2 -x,-y,-z
_cell_length_a                   7.100(4)
_cell_length_b                   8.900(5)
_cell_length_c                   11.174(5)
_cell_angle_alpha                71.12(2)
_cell_angle_beta                 88.459(17)
_cell_angle_gamma                75.42(2)
_cell_volume                     645.433
loop_
_atom_site_label
_atom_site_type_symbol
_atom_site_fract_x
_atom_site_fract_y
_atom_site_fract_z
Ag1 Ag 0.23221(2) 0.03102(2) 0.883021(16)
O1 O 0.1780(2) 0.5596(2) 0.68305(15)
O2 O 0.1767(3) -0.0572(2) 1.09968(17)
O3 O 0.4250(3) -0.2437(4) 1.0819(2)
O4 O 0.2986(3) -0.2729(3) 1.26089(18)
O5 O 0.5036(2) -0.2245(2) 0.60734(15)
N1 N 0.1837(3) 0.2933(2) 0.75734(17)
N2 N 0.3044(3) -0.1935(3) 1.14942(19)
N3 N 0.3876(2) -0.1289(2) 0.76502(17)
C1 C 0.0736(3) 0.4649(3) 0.89218(19)
C2 C -0.0168(3) 0.3580(3) 0.9796(2)
H1 H -0.0286 0.2607 0.9659
C3 C 0.0893(3) 0.6067(3) 0.9134(2)
H2 H 0.1505 0.6802 0.8541
C4 C 0.1741(3) -0.0639(3) 0.57543(19)
C5 C 0.0027(3) 0.0047(3) 0.6230(2)
H3 H 0.0038 0.0076 0.7073
C6 C 0.1696(3) -0.0688(3) 0.4521(2)
H4 H 0.2857 -0.1164 0.4193
C7 C 0.1492(3) 0.4295(3) 0.77759(19)
C8 C 0.2458(4) 0.3225(3) 0.6261(2)
H5 H 0.1450 0.3147 0.5705
H6 H 0.3697 0.2422 0.6236
C9 C 0.2721(4) 0.4947(3) 0.5861(2)
H7 H 0.4120 0.4932 0.5847
H8 H 0.2082 0.5606 0.5011
C10 C 0.3562(3) -0.1363(3) 0.6554(2)
C11 C 0.5901(3) -0.2269(3) 0.8102(2)
H9 H 0.5920 -0.3141 0.8924
H10 H 0.6719 -0.1560 0.8200
C12 C 0.6617(3) -0.3008(3) 0.7071(2)
H11 H 0.7848 -0.2740 0.6753
H12 H 0.6834 -0.4217 0.7390
Ag1A Ag -0.23221(2) 0.96898(2) 1.116979(16)
Ag1A_2 Ag -0.23221(2) -0.03102(2) 0.116979(16)
O1A O -0.1780(2) 0.4404(2) 1.31695(15)
O2A O -0.1767(3) 1.0572(2) 0.90032(17)
O3A O -0.4250(3) 1.2437(4) 0.9181(2)
O4A O -0.2986(3) 1.2729(3) 0.73911(18)
O5A O -0.5036(2) 0.2245(2) 0.39266(15)
N1A N -0.1837(3) 0.7067(2) 1.24266(17)
N2A N -0.3044(3) 1.1935(3) 0.85058(19)
N3A N -0.3876(2) 0.1289(2) 0.23498(17)
N3A_2 N -0.3876(2) 1.1289(2) 1.23498(17)
C1A C -0.0736(3) 0.5351(3) 1.10782(19)
C2A C 0.0168(3) 0.6420(3) 1.0204(2)
H1A H 0.0286 0.7393 1.0341
C3A C -0.0893(3) 0.3933(3) 1.0866(2)
H2A H -0.1505 0.3198 1.1459
C4A C -0.1741(3) 0.0639(3) 0.42457(19)
C5A C -0.0027(3) -0.0047(3) 0.3770(2)
H3A H -0.0038 -0.0076 0.2927
C6A C -0.1696(3) 0.0688(3) 0.5479(2)
H4A H -0.2857 0.1164 0.5807
C7A C -0.1492(3) 0.5705(3) 1.22241(19)
C8A C -0.2458(4) 0.6775(3) 1.3739(2)
H5A H -0.1450 0.6853 1.4295
H6A H -0.3697 0.7578 1.3764
C9A C -0.2721(4) 0.5053(3) 1.4139(2)
H7A H -0.4120 0.5068 1.4153
H8A H -0.2082 0.4394 1.4989
C10A C -0.3562(3) 0.1363(3) 0.3446(2)
C11A C -0.5901(3) 0.2269(3) 0.1898(2)
H9A H -0.5920 0.3141 0.1076
H10A H -0.6719 0.1560 0.1800
C12A C -0.6617(3) 0.3008(3) 0.2929(2)
H11A H -0.7848 0.2740 0.3247
H12A H -0.6834 0.4217 0.2610
loop_
_geom_bond_atom_site_label_1
_geom_bond_atom_site_label_2
_geom_bond_site_symmetry_1
_geom_bond_site_symmetry_2
Ag1 O2 1_555 1_555
O1 C7 1_555 1_555
O2 N2 1_555 1_555
O3 N2 1_555 1_555
O4 N2 1_555 1_555
O5 C10 1_555 1_555
N1 Ag1 1_555 1_555
N3 Ag1 1_555 1_555
C1 C2 1_555 1_555
C2 H1 1_555 1_555
C3 C1 1_555 1_555
H2 C3 1_555 1_555
C4 C5 1_555 1_555
C5 H3 1_555 1_555
C6 C4 1_555 1_555
H4 C6 1_555 1_555
C7 N1 1_555 1_555
C8 N1 1_555 1_555
H5 C8 1_555 1_555
H6 C8 1_555 1_555
C9 O1 1_555 1_555
H7 C9 1_555 1_555
H8 C9 1_555 1_555
C10 N3 1_555 1_555
C11 N3 1_555 1_555
H9 C11 1_555 1_555
H10 C11 1_555 1_555
C12 O5 1_555 1_555
H11 C12 1_555 1_555
H12 C12 1_555 1_555
Ag1A O2A 1_555 1_555
Ag1A_2 N3A 1_555 1_555
O1A C7A 1_555 1_555
O2A N2A 1_555 1_555
O3A N2A 1_555 1_555
O4A N2A 1_555 1_555
O5A C10A 1_555 1_555
N1A Ag1A 1_555 1_555
N3A C10A 1_555 1_555
N3A_2 Ag1A 1_555 1_555
C1A C2A 1_555 1_555
C2A C3 1_555 1_555
H1A C2A 1_555 1_555
C3A C2 1_555 1_555
H2A C3A 1_555 1_555
C4A C5A 1_555 1_555
C5A C6 1_555 1_555
H3A C5A 1_555 1_555
C6A C5 1_555 1_555
H4A C6A 1_555 1_555
C7A N1A 1_555 1_555
C8A N1A 1_555 1_555
H5A C8A 1_555 1_555
H6A C8A 1_555 1_555
C9A O1A 1_555 1_555
H7A C9A 1_555 1_555
H8A C9A 1_555 1_555
C10A C4A 1_555 1_555
C11A N3A 1_555 1_555
H9A C11A 1_555 1_555
H10A C11A 1_555 1_555
C12A O5A 1_555 1_555
H11A C12A 1_555 1_555
H12A C12A 1_555 1_555
C1 C7 1_555 1_555
C4 C10 1_555 1_555
C8 C9 1_555 1_555
C11 C12 1_555 1_555
C1A C3A 1_555 1_555
C1A C7A 1_555 1_555
C4A C6A 1_555 1_555
C8A C9A 1_555 1_555
C11A C12A 1_555 1_555

#END
