
#######################################################################
#
#                 Cambridge Crystallographic Data Centre
#                                CCDC 
#
#######################################################################
#
# If this CIF has been generated from an entry in the Cambridge 
# Structural Database, then it will include bibliographic, chemical, 
# crystal, experimental, refinement or atomic coordinate data resulting 
# from the CCDC's data processing and validation procedures.
#
#######################################################################

data_BAQZUQ
_symmetry_cell_setting           triclinic
_symmetry_space_group_name_H-M   'P -1'
_symmetry_Int_Tables_number      2
_space_group_name_Hall           '-P 1'
loop_
_symmetry_equiv_pos_site_id
_symmetry_equiv_pos_as_xyz
1 x,y,z
2 -x,-y,-z
_cell_length_a                   7.505(9)
_cell_length_b                   9.049(10)
_cell_length_c                   9.245(11)
_cell_angle_alpha                111.494(7)
_cell_angle_beta                 107.567(15)
_cell_angle_gamma                99.924(2)
_cell_volume                     527.857
loop_
_atom_site_label
_atom_site_type_symbol
_atom_site_fract_x
_atom_site_fract_y
_atom_site_fract_z
Fe1 Fe 0.11101(7) 0.24631(5) 1.77182(5)
Fe2 Fe 0.0000 0.0000 1.0000
O1 O 0.1916(4) 0.5039(3) 1.8464(3)
O2 O 0.3202(4) 0.7074(3) 1.7921(3)
O3 O 0.3366(4) 0.5041(3) 1.1949(3)
O4 O 0.1385(4) 0.2424(3) 1.0107(3)
O5 O -0.0612(4) 0.0032(3) 1.3380(3)
N1 N 0.1061(4) 0.2699(3) 1.5402(3)
N2 N 0.0951(4) 0.1796(3) 1.2601(3)
C1 C 0.2413(5) 0.5573(4) 1.7523(4)
C2 C 0.1990(5) 0.4275(4) 1.5744(3)
C3 C 0.2456(5) 0.4678(4) 1.4578(4)
H1 H 0.3104 0.5774 1.4841
C4 C 0.1912(5) 0.3374(4) 1.2995(4)
C5 C 0.2276(5) 0.3660(4) 1.1580(4)
C6 C 0.0474(5) 0.1466(4) 1.3782(4)
O6 O 0.4253(3) 0.2664(3) 1.8541(3)
H2 H 0.5004 0.3408 1.8501
H3 H 0.4733 0.2707 1.9484
O7 O -0.1977(4) 0.2146(3) 1.7138(3)
H4 H -0.2195 0.3016 1.7609
H5 H -0.2347 0.1834 1.6113
O8 O 0.2726(4) -0.0415(3) 1.0451(3)
H6 H 0.3528 -0.0142 1.1407
H7 H 0.2715 -0.1295 0.9746
Fe1A Fe -0.11101(7) -0.24631(5) 0.22818(5)
Fe1_2 Fe 0.11101(7) 0.24631(5) 0.77182(5)
Fe1A_2 Fe -0.11101(7) -0.24631(5) 1.22818(5)
O1A O -0.1916(4) -0.5039(3) 0.1536(3)
O2A O -0.3202(4) -0.7074(3) 0.2079(3)
O3A O -0.3366(4) -0.5041(3) 0.8051(3)
O4A O -0.1385(4) -0.2424(3) 0.9893(3)
O4_2 O 0.1385(4) 0.2424(3) 2.0107(3)
O4A_2 O -0.1385(4) -0.2424(3) -0.0107(3)
O5A O 0.0612(4) -0.0032(3) 0.6620(3)
O5A_2 O 0.0612(4) -0.0032(3) 1.6620(3)
O5_2 O -0.0612(4) 0.0032(3) 0.3380(3)
N1A N -0.1061(4) -0.2699(3) 0.4598(3)
N2A N -0.0951(4) -0.1796(3) 0.7399(3)
C1A C -0.2413(5) -0.5573(4) 0.2477(4)
C2A C -0.1990(5) -0.4275(4) 0.4256(3)
C3A C -0.2456(5) -0.4678(4) 0.5422(4)
H1A H -0.3104 -0.5774 0.5159
C4A C -0.1912(5) -0.3374(4) 0.7005(4)
C5A C -0.2276(5) -0.3660(4) 0.8420(4)
C6A C -0.0474(5) -0.1466(4) 0.6218(4)
O6A O -0.4253(3) -0.2664(3) 0.1459(3)
H2A H -0.5004 -0.3408 0.1499
H3A H -0.4733 -0.2707 0.0516
O7A O 0.1977(4) -0.2146(3) 0.2862(3)
H4A H 0.2195 -0.3016 0.2391
H5A H 0.2347 -0.1834 0.3887
O8A O -0.2726(4) 0.0415(3) 0.9549(3)
H6A H -0.3528 0.0142 0.8593
H7A H -0.2715 0.1295 1.0254
O9 O 0.4157(4) 0.9165(4) 0.6328(4)
H8 H 0.3649 0.8505 0.6617
H9 H 0.3893 1.0038 0.6672
loop_
_geom_bond_atom_site_label_1
_geom_bond_atom_site_label_2
_geom_bond_site_symmetry_1
_geom_bond_site_symmetry_2
Fe1 O1 1_555 1_555
Fe2 O4 1_555 1_555
O1 C1 1_555 1_555
O2 C1 1_555 1_555
O3 C5 1_555 1_555
O4 C5 1_555 1_555
O5 C6 1_555 1_555
N1 Fe1 1_555 1_555
N2 Fe2 1_555 1_555
C1 C2 1_555 1_555
C2 N1 1_555 1_555
C3 C2 1_555 1_555
H1 C3 1_555 1_555
C4 N2 1_555 1_555
C5 C4 1_555 1_555
C6 N1 1_555 1_555
O6 Fe1 1_555 1_555
H2 O6 1_555 1_555
H3 O6 1_555 1_555
O7 Fe1 1_555 1_555
H4 O7 1_555 1_555
H5 O7 1_555 1_555
O8 Fe2 1_555 1_555
H6 O8 1_555 1_555
H7 O8 1_555 1_555
O9 H8 1_555 1_555
H9 O9 1_555 1_555
Fe1A O1A 1_555 1_555
Fe1_2 O4 1_555 1_555
Fe1A_2 O5 1_555 1_555
O1A C1A 1_555 1_555
O2A C1A 1_555 1_555
O3A C5A 1_555 1_555
O4A Fe2 1_555 1_555
O4_2 Fe1 1_555 1_555
O4A_2 Fe1A 1_555 1_555
O5A Fe1_2 1_555 1_555
O5A_2 Fe1 1_555 1_555
O5_2 Fe1A 1_555 1_555
N1A Fe1A 1_555 1_555
N2A Fe2 1_555 1_555
C1A C2A 1_555 1_555
C2A N1A 1_555 1_555
C3A C2A 1_555 1_555
H1A C3A 1_555 1_555
C4A N2A 1_555 1_555
C5A O4A 1_555 1_555
C6A O5A 1_555 1_555
O6A Fe1A 1_555 1_555
H2A O6A 1_555 1_555
H3A O6A 1_555 1_555
O7A Fe1A 1_555 1_555
H4A O7A 1_555 1_555
H5A O7A 1_555 1_555
O8A Fe2 1_555 1_555
H6A O8A 1_555 1_555
H7A O8A 1_555 1_555
N2 C6 1_555 1_555
C3 C4 1_555 1_555
Fe1A_2 O4A 1_555 1_555
N1A C6A 1_555 1_555
N2A C6A 1_555 1_555
C3A C4A 1_555 1_555
C4A C5A 1_555 1_555

#END
