
#######################################################################
#
#                 Cambridge Crystallographic Data Centre
#                                CCDC 
#
#######################################################################
#
# If this CIF has been generated from an entry in the Cambridge 
# Structural Database, then it will include bibliographic, chemical, 
# crystal, experimental, refinement or atomic coordinate data resulting 
# from the CCDC's data processing and validation procedures.
#
#######################################################################

data_BARFIK
_symmetry_cell_setting           monoclinic
_symmetry_space_group_name_H-M   'C 2/c'
_symmetry_Int_Tables_number      15
_space_group_name_Hall           '-C 2yn'
loop_
_symmetry_equiv_pos_site_id
_symmetry_equiv_pos_as_xyz
1 x,y,z
2 1/2+x,1/2+y,z
3 x,-y,1/2+z
4 1/2+x,1/2-y,1/2+z
5 -x,-y,-z
6 1/2-x,1/2-y,-z
7 -x,y,1/2-z
8 1/2-x,1/2+y,1/2-z
_cell_length_a                   16.0448(3)
_cell_length_b                   10.3215(2)
_cell_length_c                   12.8434(3)
_cell_angle_alpha                90
_cell_angle_beta                 122.3988(9)
_cell_angle_gamma                90
_cell_volume                     1795.87
loop_
_atom_site_label
_atom_site_type_symbol
_atom_site_fract_x
_atom_site_fract_y
_atom_site_fract_z
Zn1 Zn 0.2500 -0.7500 0.0000
N1 N 0.31294(15) -0.5622(2) 0.0687(2)
N2 N 0.31742(16) -0.8196(3) 0.1871(2)
N3 N 0.38099(16) -0.8071(3) 0.0017(2)
N4 N 0.44693(18) -0.8708(4) 0.3973(2)
C1 C 0.5000 -0.1301(4) 0.2500
H1 H 0.4889 -0.0728 0.3003
C2 C 0.4068(3) -0.1660(3) 0.1660(5)
H2 H 0.3887 -0.1240 0.0891
H3 H 0.3651 -0.1291 0.1919
C3 C 0.3784(2) -0.3072(3) 0.1368(3)
C4 C 0.3325(2) -0.3731(3) 0.1857(3)
H4 H 0.3229 -0.3329 0.2433
C5 C 0.3008(2) -0.4987(3) 0.1494(3)
H5 H 0.2694 -0.5408 0.1831
C6 C 0.3586(2) -0.4994(3) 0.0228(3)
H6 H 0.3687 -0.5425 -0.0332
C7 C 0.3917(2) -0.3735(3) 0.0541(3)
H7 H 0.4229 -0.3336 0.0191
C8 C 0.38138(17) -0.8399(2) 0.2849(2)
C9 C 0.46199(17) -0.8348(2) 0.0540(2)
H1F H 0.5111 -0.0728 0.1997
C2F C 0.5932(3) -0.1660(3) 0.3340(5)
H2F H 0.6113 -0.1240 0.4109
H3F H 0.6349 -0.1291 0.3081
C3F C 0.6216(2) -0.3072(3) 0.3632(3)
C4F C 0.6675(2) -0.3731(3) 0.3143(3)
H4F H 0.6771 -0.3329 0.2567
C5F C 0.6992(2) -0.4987(3) 0.3506(3)
N1F N 0.68706(15) -0.5622(2) 0.4313(2)
Zn1C Zn 0.7500 -0.7500 0.5000
N2F N 0.68258(16) -0.8196(3) 0.3129(2)
C8F C 0.61862(17) -0.8399(2) 0.2151(2)
N4F N 0.55307(18) -0.8708(4) 0.1027(2)
N3E N 0.11901(16) -0.6929(3) -0.0017(2)
N1E N 0.18706(15) -0.9378(2) -0.0687(2)
C9F C 0.53801(17) -0.8348(2) 0.4460(2)
N3F N 0.61901(16) -0.8071(3) 0.4983(2)
N2E N 0.18258(16) -0.6804(3) -0.1871(2)
C6F C 0.6414(2) -0.4994(3) 0.4772(3)
H6F H 0.6313 -0.5425 0.5332
C7F C 0.6083(2) -0.3735(3) 0.4459(3)
H7F H 0.5771 -0.3336 0.4809
H5F H 0.7306 -0.5408 0.3169
loop_
_geom_bond_atom_site_label_1
_geom_bond_atom_site_label_2
_geom_bond_site_symmetry_1
_geom_bond_site_symmetry_2
Zn1 N1 1_555 1_555
N1 C5 1_555 1_555
N2 Zn1 1_555 1_555
N3 Zn1 1_555 1_555
N4 C8 1_555 1_555
C1 H1 1_555 1_555
C2 C1 1_555 1_555
H2 C2 1_555 1_555
H3 C2 1_555 1_555
C3 C2 1_555 1_555
C4 C3 1_555 1_555
H4 C4 1_555 1_555
C5 C4 1_555 1_555
H5 C5 1_555 1_555
C6 N1 1_555 1_555
H6 C6 1_555 1_555
C7 C3 1_555 1_555
H7 C7 1_555 1_555
C8 N2 1_555 1_555
C9 N3 1_555 1_555
H1F C1 1_555 1_555
C2F C1 1_555 1_555
H2F C2F 1_555 1_555
H3F C2F 1_555 1_555
C3F C2F 1_555 1_555
C4F C3F 1_555 1_555
H4F C4F 1_555 1_555
C5F C4F 1_555 1_555
N1F C5F 1_555 1_555
Zn1C N1F 1_555 1_555
N2F Zn1C 1_555 1_555
C8F N2F 1_555 1_555
N4F C9 1_555 1_555
N3E Zn1 1_555 1_555
N1E Zn1 1_555 1_555
C9F N4 1_555 1_555
N3F Zn1C 1_555 1_555
N2E Zn1 1_555 1_555
C6F N1F 1_555 1_555
H6F C6F 1_555 1_555
C7F C3F 1_555 1_555
H7F C7F 1_555 1_555
H5F C5F 1_555 1_555
C6 C7 1_555 1_555
C8F N4F 1_555 1_555
C9F N3F 1_555 1_555
C6F C7F 1_555 1_555

#END
