
#######################################################################
#
#                 Cambridge Crystallographic Data Centre
#                                CCDC 
#
#######################################################################
#
# If this CIF has been generated from an entry in the Cambridge 
# Structural Database, then it will include bibliographic, chemical, 
# crystal, experimental, refinement or atomic coordinate data resulting 
# from the CCDC's data processing and validation procedures.
#
#######################################################################

data_BARFAC
_symmetry_cell_setting           monoclinic
_symmetry_space_group_name_H-M   'C 2/c'
_symmetry_Int_Tables_number      15
_space_group_name_Hall           '-C 2yn'
loop_
_symmetry_equiv_pos_site_id
_symmetry_equiv_pos_as_xyz
1 x,y,z
2 1/2+x,1/2+y,z
3 x,-y,1/2+z
4 1/2+x,1/2-y,1/2+z
5 -x,-y,-z
6 1/2-x,1/2-y,-z
7 -x,y,1/2-z
8 1/2-x,1/2+y,1/2-z
_cell_length_a                   16.0806(5)
_cell_length_b                   10.4123(4)
_cell_length_c                   12.7979(5)
_cell_angle_alpha                90
_cell_angle_beta                 122.0554(12)
_cell_angle_gamma                90
_cell_volume                     1816.12
loop_
_atom_site_label
_atom_site_type_symbol
_atom_site_fract_x
_atom_site_fract_y
_atom_site_fract_z
Mn1 Mn 0.2500 -0.7500 0.0000
N1 N 0.31804(15) -0.5554(2) 0.0752(2)
N2 N 0.31859(17) -0.8244(3) 0.1906(2)
N3 N 0.38176(17) -0.8089(3) -0.0021(2)
N4 N 0.44682(18) -0.8762(3) 0.4009(3)
C1 C 0.5000 -0.1232(4) 0.2500
H1 H 0.4889 -0.0659 0.3003
C2 C 0.4074(3) -0.1596(3) 0.1672(6)
H2 H 0.3886 -0.1181 0.0899
H3 H 0.3661 -0.1237 0.1941
C3 C 0.3803(2) -0.3001(3) 0.1390(4)
C4 C 0.3347(2) -0.3646(3) 0.1888(4)
H4 H 0.3243 -0.3241 0.2457
C5 C 0.3043(2) -0.4901(3) 0.1537(3)
H5 H 0.2724 -0.5310 0.1873
C6 C 0.3634(2) -0.4926(3) 0.0281(3)
H6 H 0.3743 -0.5358 -0.0271
C7 C 0.3949(2) -0.3673(3) 0.0571(4)
H7 H 0.4260 -0.3281 0.0216
C8 C 0.38179(19) -0.8457(3) 0.2887(3)
C9 C 0.4627(2) -0.8388(3) 0.0503(3)
H1F H 0.5111 -0.0659 0.1997
C2F C 0.5926(3) -0.1596(3) 0.3328(6)
H2F H 0.6114 -0.1181 0.4101
H3F H 0.6339 -0.1237 0.3059
C3F C 0.6197(2) -0.3001(3) 0.3610(4)
C4F C 0.6653(2) -0.3646(3) 0.3112(4)
H4F H 0.6757 -0.3241 0.2543
C5F C 0.6957(2) -0.4901(3) 0.3463(3)
N1F N 0.68196(15) -0.5554(2) 0.4248(2)
Mn1C Mn 0.7500 -0.7500 0.5000
N2F N 0.68141(17) -0.8244(3) 0.3094(2)
C8F C 0.61821(19) -0.8457(3) 0.2113(3)
N4F N 0.55318(18) -0.8762(3) 0.0991(3)
N3E N 0.11824(17) -0.6911(3) 0.0021(2)
N1E N 0.18196(15) -0.9446(2) -0.0752(2)
C9F C 0.5373(2) -0.8388(3) 0.4497(3)
N3F N 0.61824(17) -0.8089(3) 0.5021(2)
N2E N 0.18141(17) -0.6756(3) -0.1906(2)
C6F C 0.6366(2) -0.4926(3) 0.4719(3)
H6F H 0.6257 -0.5358 0.5271
C7F C 0.6051(2) -0.3673(3) 0.4429(4)
H7F H 0.5740 -0.3281 0.4784
H5F H 0.7276 -0.5310 0.3127
loop_
_geom_bond_atom_site_label_1
_geom_bond_atom_site_label_2
_geom_bond_site_symmetry_1
_geom_bond_site_symmetry_2
Mn1 N1 1_555 1_555
N1 C5 1_555 1_555
N2 Mn1 1_555 1_555
N3 Mn1 1_555 1_555
N4 C8 1_555 1_555
C1 H1 1_555 1_555
C2 C1 1_555 1_555
H2 C2 1_555 1_555
H3 C2 1_555 1_555
C3 C2 1_555 1_555
C4 C3 1_555 1_555
H4 C4 1_555 1_555
C5 C4 1_555 1_555
H5 C5 1_555 1_555
C6 N1 1_555 1_555
H6 C6 1_555 1_555
C7 C3 1_555 1_555
H7 C7 1_555 1_555
C8 N2 1_555 1_555
C9 N3 1_555 1_555
H1F C1 1_555 1_555
C2F C1 1_555 1_555
H2F C2F 1_555 1_555
H3F C2F 1_555 1_555
C3F C2F 1_555 1_555
C4F C3F 1_555 1_555
H4F C4F 1_555 1_555
C5F C4F 1_555 1_555
N1F C5F 1_555 1_555
Mn1C N1F 1_555 1_555
N2F Mn1C 1_555 1_555
C8F N2F 1_555 1_555
N4F C9 1_555 1_555
N3E Mn1 1_555 1_555
N1E Mn1 1_555 1_555
C9F N4 1_555 1_555
N3F Mn1C 1_555 1_555
N2E Mn1 1_555 1_555
C6F N1F 1_555 1_555
H6F C6F 1_555 1_555
C7F C3F 1_555 1_555
H7F C7F 1_555 1_555
H5F C5F 1_555 1_555
C6 C7 1_555 1_555
C8F N4F 1_555 1_555
C9F N3F 1_555 1_555
C6F C7F 1_555 1_555

#END
