
#######################################################################
#
#                 Cambridge Crystallographic Data Centre
#                                CCDC 
#
#######################################################################
#
# If this CIF has been generated from an entry in the Cambridge 
# Structural Database, then it will include bibliographic, chemical, 
# crystal, experimental, refinement or atomic coordinate data resulting 
# from the CCDC's data processing and validation procedures.
#
#######################################################################

data_BARFEG
_symmetry_cell_setting           monoclinic
_symmetry_space_group_name_H-M   'C 2/c'
_symmetry_Int_Tables_number      15
_space_group_name_Hall           '-C 2yn'
loop_
_symmetry_equiv_pos_site_id
_symmetry_equiv_pos_as_xyz
1 x,y,z
2 1/2+x,1/2+y,z
3 x,-y,1/2+z
4 1/2+x,1/2-y,1/2+z
5 -x,-y,-z
6 1/2-x,1/2-y,-z
7 -x,y,1/2-z
8 1/2-x,1/2+y,1/2-z
_cell_length_a                   15.9615(4)
_cell_length_b                   10.2737(3)
_cell_length_c                   12.7113(5)
_cell_angle_alpha                90
_cell_angle_beta                 122.4209(12)
_cell_angle_gamma                90
_cell_volume                     1759.55
loop_
_atom_site_label
_atom_site_type_symbol
_atom_site_fract_x
_atom_site_fract_y
_atom_site_fract_z
Co1 Co 0.2500 -0.7500 0.0000
N1 N 0.31358(17) -0.5617(2) 0.0694(2)
N2 N 0.31690(17) -0.8175(3) 0.1857(2)
N3 N 0.37972(17) -0.8065(2) 0.0032(2)
N4 N 0.44693(19) -0.8728(3) 0.3991(3)
C1 C 0.5000 -0.1255(5) 0.2500
H1 H 0.4889 -0.0683 0.3003
C2 C 0.4059(3) -0.1614(3) 0.1654(6)
H2 H 0.3872 -0.1194 0.0874
H3 H 0.3642 -0.1246 0.1919
C3 C 0.3784(2) -0.3039(4) 0.1370(5)
C4 C 0.3328(2) -0.3697(4) 0.1867(4)
H4 H 0.3229 -0.3289 0.2446
C5 C 0.3012(2) -0.4969(3) 0.1507(3)
H5 H 0.2699 -0.5390 0.1852
C6 C 0.3596(2) -0.4982(3) 0.0227(3)
H6 H 0.3701 -0.5419 -0.0333
C7 C 0.3924(2) -0.3710(3) 0.0532(4)
H7 H 0.4236 -0.3309 0.0176
C8 C 0.3807(2) -0.8403(3) 0.2854(3)
C9 C 0.4616(2) -0.8361(3) 0.0535(3)
H1F H 0.5111 -0.0683 0.1997
C2F C 0.5941(3) -0.1614(3) 0.3346(6)
H2F H 0.6128 -0.1194 0.4126
H3F H 0.6358 -0.1246 0.3081
C3F C 0.6216(2) -0.3039(4) 0.3630(5)
C4F C 0.6672(2) -0.3697(4) 0.3133(4)
H4F H 0.6771 -0.3289 0.2554
C5F C 0.6988(2) -0.4969(3) 0.3493(3)
N1F N 0.68642(17) -0.5617(2) 0.4306(2)
Co1C Co 0.7500 -0.7500 0.5000
N2F N 0.68310(17) -0.8175(3) 0.3143(2)
C8F C 0.6193(2) -0.8403(3) 0.2146(3)
N4F N 0.55307(19) -0.8728(3) 0.1009(3)
N3E N 0.12028(17) -0.6935(2) -0.0032(2)
N1E N 0.18642(17) -0.9383(2) -0.0694(2)
C9F C 0.5384(2) -0.8361(3) 0.4465(3)
N3F N 0.62028(17) -0.8065(2) 0.4968(2)
N2E N 0.18310(17) -0.6825(3) -0.1857(2)
C6F C 0.6404(2) -0.4982(3) 0.4773(3)
H6F H 0.6299 -0.5419 0.5333
C7F C 0.6076(2) -0.3710(3) 0.4468(4)
H7F H 0.5764 -0.3309 0.4824
H5F H 0.7301 -0.5390 0.3148
loop_
_geom_bond_atom_site_label_1
_geom_bond_atom_site_label_2
_geom_bond_site_symmetry_1
_geom_bond_site_symmetry_2
Co1 N1 1_555 1_555
N1 C5 1_555 1_555
N2 Co1 1_555 1_555
N3 Co1 1_555 1_555
N4 C8 1_555 1_555
C1 H1 1_555 1_555
C2 C1 1_555 1_555
H2 C2 1_555 1_555
H3 C2 1_555 1_555
C3 C2 1_555 1_555
C4 C3 1_555 1_555
H4 C4 1_555 1_555
C5 C4 1_555 1_555
H5 C5 1_555 1_555
C6 N1 1_555 1_555
H6 C6 1_555 1_555
C7 C3 1_555 1_555
H7 C7 1_555 1_555
C8 N2 1_555 1_555
C9 N3 1_555 1_555
H1F C1 1_555 1_555
C2F C1 1_555 1_555
H2F C2F 1_555 1_555
H3F C2F 1_555 1_555
C3F C2F 1_555 1_555
C4F C3F 1_555 1_555
H4F C4F 1_555 1_555
C5F C4F 1_555 1_555
N1F C5F 1_555 1_555
Co1C N1F 1_555 1_555
N2F Co1C 1_555 1_555
C8F N2F 1_555 1_555
N4F C9 1_555 1_555
N3E Co1 1_555 1_555
N1E Co1 1_555 1_555
C9F N4 1_555 1_555
N3F Co1C 1_555 1_555
N2E Co1 1_555 1_555
C6F N1F 1_555 1_555
H6F C6F 1_555 1_555
C7F C3F 1_555 1_555
H7F C7F 1_555 1_555
H5F C5F 1_555 1_555
C6 C7 1_555 1_555
C8F N4F 1_555 1_555
C9F N3F 1_555 1_555
C6F C7F 1_555 1_555

#END
