
#######################################################################
#
#                 Cambridge Crystallographic Data Centre
#                                CCDC 
#
#######################################################################
#
# If this CIF has been generated from an entry in the Cambridge 
# Structural Database, then it will include bibliographic, chemical, 
# crystal, experimental, refinement or atomic coordinate data resulting 
# from the CCDC's data processing and validation procedures.
#
#######################################################################

data_BARJIO
_symmetry_cell_setting           monoclinic
_symmetry_space_group_name_H-M   'P 21/n'
_symmetry_Int_Tables_number      14
_space_group_name_Hall           '-P 2yn'
loop_
_symmetry_equiv_pos_site_id
_symmetry_equiv_pos_as_xyz
1 x,y,z
2 1/2+x,1/2-y,1/2+z
3 -x,-y,-z
4 1/2-x,1/2+y,1/2-z
_cell_length_a                   11.0594(7)
_cell_length_b                   7.1239(4)
_cell_length_c                   13.0607(8)
_cell_angle_alpha                90
_cell_angle_beta                 90.6590(10)
_cell_angle_gamma                90
_cell_volume                     1028.93
loop_
_atom_site_label
_atom_site_type_symbol
_atom_site_fract_x
_atom_site_fract_y
_atom_site_fract_z
Li1 Li 0.39647(11) 0.48284(19) 0.67599(10)
Li2 Li 0.35667(11) 0.01633(19) 0.35518(9)
N1 N 0.03553(5) 0.27370(8) 0.57234(4)
C1 C 0.11085(5) 0.25595(9) 0.49148(4)
C2 C 0.24419(5) 0.27730(9) 0.51730(4)
O1 O 0.26878(4) 0.37554(8) 0.59340(4)
O2 O 0.31921(4) 0.19494(8) 0.46028(4)
C3 C 0.06618(5) 0.22757(9) 0.39426(4)
C4 C -0.06162(5) 0.21685(9) 0.37657(4)
O3 O -0.10803(4) 0.20146(8) 0.28628(4)
C5 C -0.13572(5) 0.22462(9) 0.46545(5)
C6 C -0.08568(5) 0.25416(9) 0.56046(4)
C7 C -0.16147(5) 0.27853(9) 0.65597(5)
O4 O -0.11232(5) 0.36679(8) 0.72717(4)
O5 O -0.26732(4) 0.21326(8) 0.65263(4)
O6 O 0.35713(5) 0.73584(8) 0.71749(4)
O7 O 0.53072(5) -0.05667(8) 0.37380(4)
O8 O 0.55426(6) 0.48689(10) 0.62383(7)
H1 H 0.0655(11) 0.2934(18) 0.6329(10)
H2 H 0.1189(10) 0.2180(16) 0.3373(9)
H3 H -0.2231(11) 0.2113(16) 0.4582(9)
H4 H 0.3933(13) 0.824(2) 0.6886(11)
H5 H 0.2802(13) 0.765(2) 0.7197(10)
H6 H 0.5655(13) -0.105(2) 0.4245(11)
H7 H 0.5505(13) -0.135(2) 0.3233(11)
H8 H 0.5834(14) 0.581(2) 0.5969(12)
H9 H 0.6073(15) 0.403(2) 0.6351(12)
O3A O 0.39197(4) 0.29854(8) 0.78628(4)
O4A O 0.38768(5) 0.13321(8) 0.22717(4)
O5B O 0.26732(4) -0.21326(8) 0.34737(4)
Li1A Li -0.10353(11) 0.01716(19) 0.17599(10)
Li2A Li -0.14333(11) 0.48367(19) 0.85518(9)
Li2B Li -0.35667(11) -0.01633(19) 0.64482(9)
loop_
_geom_bond_atom_site_label_1
_geom_bond_atom_site_label_2
_geom_bond_site_symmetry_1
_geom_bond_site_symmetry_2
Li1 O1 1_555 1_555
Li2 O2 1_555 1_555
N1 C1 1_555 1_555
C1 C2 1_555 1_555
C2 O1 1_555 1_555
O2 C2 1_555 1_555
C3 C1 1_555 1_555
C4 C3 1_555 1_555
O3 C4 1_555 1_555
C5 C4 1_555 1_555
C6 N1 1_555 1_555
C7 C6 1_555 1_555
O4 C7 1_555 1_555
O5 C7 1_555 1_555
O6 Li1 1_555 1_555
O7 Li2 1_555 1_555
O8 Li1 1_555 1_555
H1 N1 1_555 1_555
H2 C3 1_555 1_555
H3 C5 1_555 1_555
H4 O6 1_555 1_555
H5 O6 1_555 1_555
H6 O7 1_555 1_555
H7 O7 1_555 1_555
H8 O8 1_555 1_555
H9 O8 1_555 1_555
O3A Li1 1_555 1_555
O4A Li2 1_555 1_555
O5B Li2 1_555 1_555
Li1A O3 1_555 1_555
Li2A O4 1_555 1_555
Li2B O5 1_555 1_555
C5 C6 1_555 1_555

#END
