
#######################################################################
#
#                 Cambridge Crystallographic Data Centre
#                                CCDC 
#
#######################################################################
#
# If this CIF has been generated from an entry in the Cambridge 
# Structural Database, then it will include bibliographic, chemical, 
# crystal, experimental, refinement or atomic coordinate data resulting 
# from the CCDC's data processing and validation procedures.
#
#######################################################################

data_BARJIN
_symmetry_cell_setting           monoclinic
_symmetry_space_group_name_H-M   'C 2/c'
_symmetry_Int_Tables_number      15
_space_group_name_Hall           '-C 2yn'
loop_
_symmetry_equiv_pos_site_id
_symmetry_equiv_pos_as_xyz
1 x,y,z
2 1/2+x,1/2+y,z
3 -x,y,1/2-z
4 1/2-x,1/2+y,1/2-z
5 -x,-y,-z
6 1/2-x,1/2-y,-z
7 x,-y,1/2+z
8 1/2+x,1/2-y,1/2+z
_cell_length_a                   20.842(9)
_cell_length_b                   11.575(6)
_cell_length_c                   7.352(5)
_cell_angle_alpha                90
_cell_angle_beta                 97.97(4)
_cell_angle_gamma                90
_cell_volume                     1756.51
loop_
_atom_site_label
_atom_site_type_symbol
_atom_site_fract_x
_atom_site_fract_y
_atom_site_fract_z
Cu1 Cu 0.5000 0.5000 -0.5000
N1 N 0.5000 0.5824(7) -0.7500
N2 N 0.5000 0.6876(7) -0.7500
N3 N 0.5000 0.7856(9) -0.7500
O1 O 0.5310(3) 0.6816(5) -0.1185(9)
N4 N 0.5000 0.7367(9) -0.2500
O2 O 0.5000 0.8381(10) -0.2500
N5 N 0.4041(3) 0.4700(6) -0.5714(10)
C1 C 0.3794(4) 0.3640(8) -0.5737(12)
H1 H 0.4064(4) 0.3038(8) -0.5274(12)
C2 C 0.3160(4) 0.3383(8) -0.6408(12)
H2 H 0.3007(4) 0.2628(8) -0.6414(12)
C3 C 0.2760(4) 0.4274(7) -0.7066(13)
C4 C 0.2999(5) 0.5381(8) -0.6932(14)
H3 H 0.2733(5) 0.6006(8) -0.7310(14)
C5 C 0.3635(4) 0.5549(8) -0.6234(13)
H4 H 0.3790(4) 0.6303(8) -0.6120(13)
C6 C 0.2058(4) 0.4013(9) -0.7837(14)
O3 O 0.1822(4) 0.3088(7) -0.7659(14)
O4 O 0.1749(3) 0.4908(6) -0.8620(10)
C7 C 0.1082(5) 0.4719(10) -0.9449(16)
H5 H 0.1077(5) 0.4292(55) -1.0571(54)
H6 H 0.0872(11) 0.5450(10) -0.9708(92)
H7 H 0.0857(11) 0.4289(55) -0.8616(44)
Cu1F Cu 0.5000 0.5000 -1.0000
N1F N 0.5000 0.4176(7) -0.2500
Cu1F_2 Cu 0.5000 0.5000 0.0000
O1B O 0.4690(3) 0.6816(5) -0.3815(9)
O1F O 0.5310(3) 0.3184(5) -0.6185(9)
N5D N 0.5959(3) 0.5300(6) -0.4286(10)
C1D C 0.6206(4) 0.6360(8) -0.4263(12)
H1D H 0.5936(4) 0.6962(8) -0.4726(12)
C2D C 0.6840(4) 0.6617(8) -0.3592(12)
H2D H 0.6993(4) 0.7372(8) -0.3586(12)
C3D C 0.7240(4) 0.5726(7) -0.2934(13)
C4D C 0.7001(5) 0.4619(8) -0.3068(14)
H3D H 0.7267(5) 0.3994(8) -0.2690(14)
C5D C 0.6365(4) 0.4451(8) -0.3766(13)
H4D H 0.6210(4) 0.3697(8) -0.3880(13)
C6D C 0.7942(4) 0.5987(9) -0.2163(14)
O3D O 0.8178(4) 0.6912(7) -0.2341(14)
O4D O 0.8251(3) 0.5092(6) -0.1380(10)
C7D C 0.8918(5) 0.5281(10) -0.0551(16)
H5D H 0.8923(5) 0.5708(55) 0.0571(54)
H6D H 0.9128(11) 0.4550(10) -0.0292(92)
H7D H 0.9143(11) 0.5711(55) -0.1384(44)
loop_
_geom_bond_atom_site_label_1
_geom_bond_atom_site_label_2
_geom_bond_site_symmetry_1
_geom_bond_site_symmetry_2
Cu1 N1 1_555 1_555
N1 N2 1_555 1_555
N2 N3 1_555 1_555
O1 N4 1_555 1_555
N4 O2 1_555 1_555
N5 Cu1 1_555 1_555
C1 N5 1_555 1_555
H1 C1 1_555 1_555
C2 C1 1_555 1_555
H2 C2 1_555 1_555
C3 C2 1_555 1_555
C4 C3 1_555 1_555
H3 C4 1_555 1_555
C5 N5 1_555 1_555
H4 C5 1_555 1_555
C6 C3 1_555 1_555
O3 C6 1_555 1_555
O4 C6 1_555 1_555
C7 O4 1_555 1_555
H5 C7 1_555 1_555
H6 C7 1_555 1_555
H7 C7 1_555 1_555
Cu1F N1 1_555 1_555
N1F Cu1 1_555 1_555
Cu1F_2 O1 1_555 1_555
O1B Cu1 1_555 1_555
O1F Cu1 1_555 1_555
N5D Cu1 1_555 1_555
C1D N5D 1_555 1_555
H1D C1D 1_555 1_555
C2D C1D 1_555 1_555
H2D C2D 1_555 1_555
C3D C2D 1_555 1_555
C4D C3D 1_555 1_555
H3D C4D 1_555 1_555
C5D N5D 1_555 1_555
H4D C5D 1_555 1_555
C6D C3D 1_555 1_555
O3D C6D 1_555 1_555
O4D C6D 1_555 1_555
C7D O4D 1_555 1_555
H5D C7D 1_555 1_555
H6D C7D 1_555 1_555
H7D C7D 1_555 1_555
N4 O1B 1_555 1_555
C4 C5 1_555 1_555
N1F Cu1F_2 1_555 1_555
C4D C5D 1_555 1_555

#END
