
#######################################################################
#
#                 Cambridge Crystallographic Data Centre
#                                CCDC 
#
#######################################################################
#
# If this CIF has been generated from an entry in the Cambridge 
# Structural Database, then it will include bibliographic, chemical, 
# crystal, experimental, refinement or atomic coordinate data resulting 
# from the CCDC's data processing and validation procedures.
#
#######################################################################

data_BARJAG
_symmetry_cell_setting           orthorhombic
_symmetry_space_group_name_H-M   'P n n a'
_symmetry_Int_Tables_number      52
_space_group_name_Hall           '-P 2a 2bc'
loop_
_symmetry_equiv_pos_site_id
_symmetry_equiv_pos_as_xyz
1 x,y,z
2 1/2+x,y,-z
3 -x,1/2+y,1/2+z
4 1/2+x,1/2-y,1/2+z
5 -x,-y,-z
6 1/2-x,-y,z
7 x,1/2-y,1/2-z
8 1/2-x,1/2+y,1/2-z
_cell_length_a                   7.1943(6)
_cell_length_b                   16.5323(10)
_cell_length_c                   12.3142(10)
_cell_angle_alpha                90
_cell_angle_beta                 90
_cell_angle_gamma                90
_cell_volume                     1464.63
loop_
_atom_site_label
_atom_site_type_symbol
_atom_site_fract_x
_atom_site_fract_y
_atom_site_fract_z
Rb1 Rb 0.08445(2) 0.112044(9) -0.089801(13)
N1 N -0.1401(2) 0.24672(9) 0.39089(12)
C1 C -0.0755(2) 0.21967(9) 0.29483(13)
C2 C -0.0275(2) 0.13863(10) 0.27731(13)
C3 C 0.0525(2) 0.10794(10) 0.17107(13)
O1 O 0.20225(18) 0.13945(8) 0.13873(10)
O2 O -0.03524(18) 0.05245(8) 0.12499(11)
C4 C -0.0565(3) 0.08422(11) 0.36215(16)
C5 C -0.1218(3) 0.11196(12) 0.46089(15)
C6 C -0.1599(3) 0.19375(12) 0.47160(15)
H1 H -0.026(3) 0.0293(12) 0.3508(17)
H2 H -0.140(3) 0.0746(13) 0.5199(17)
H3 H -0.201(3) 0.2154(11) 0.5366(17)
C1F C -0.0755(2) 0.28033(9) 0.20517(13)
N1F N -0.1401(2) 0.25328(9) 0.10911(12)
C6F C -0.1599(3) 0.30625(12) 0.02840(15)
C5F C -0.1218(3) 0.38804(12) 0.03911(15)
C4F C -0.0565(3) 0.41578(11) 0.13785(16)
C2F C -0.0275(2) 0.36137(10) 0.22269(13)
C3F C 0.0525(2) 0.39206(10) 0.32893(13)
O1F O 0.20225(18) 0.36055(8) 0.36127(10)
O2F O -0.03524(18) 0.44755(8) 0.37501(11)
H1F H -0.026(3) 0.4707(12) 0.1492(17)
H2F H -0.140(3) 0.4254(13) -0.0199(17)
H3F H -0.201(3) 0.2846(11) -0.0366(17)
Rb1F Rb 0.08445(2) 0.387956(9) 0.589801(13)
O1A O -0.29775(18) 0.13945(8) -0.13873(10)
O2A O 0.46476(18) 0.05245(8) -0.12499(11)
O2D O 0.03524(18) -0.05245(8) -0.12499(11)
Rb1A Rb 0.58445(2) 0.112044(9) 0.089801(13)
Rb1A_2 Rb -0.41555(2) 0.112044(9) 0.089801(13)
Rb1D Rb -0.08445(2) -0.112044(9) 0.089801(13)
Rb1C Rb 0.58445(2) 0.387956(9) 0.410199(13)
Rb1B Rb -0.08445(2) 0.612044(9) 0.410199(13)
Rb1C_2 Rb -0.41555(2) 0.387956(9) 0.410199(13)
O1C O -0.29775(18) 0.36055(8) 0.63873(10)
O2B O 0.03524(18) 0.55245(8) 0.62499(11)
O2C O 0.46476(18) 0.44755(8) 0.62499(11)
O3 O 0.4146(3) 0.25000 0.25000
H4 H 0.349(3) 0.2149(14) 0.224(2)
H4F H 0.349(3) 0.2851(14) 0.276(2)
loop_
_geom_bond_atom_site_label_1
_geom_bond_atom_site_label_2
_geom_bond_site_symmetry_1
_geom_bond_site_symmetry_2
Rb1 O1 1_555 1_555
N1 C1 1_555 1_555
C1 C2 1_555 1_555
C2 C3 1_555 1_555
C3 O1 1_555 1_555
O1 Rb1A 1_555 1_555
O2 Rb1 1_555 1_555
C4 C2 1_555 1_555
C5 C4 1_555 1_555
C6 N1 1_555 1_555
O3 H4 1_555 1_555
H1 C4 1_555 1_555
H2 C5 1_555 1_555
H3 C6 1_555 1_555
C1F C1 1_555 1_555
N1F C1F 1_555 1_555
C6F N1F 1_555 1_555
C5F C6F 1_555 1_555
C4F C5F 1_555 1_555
C2F C1F 1_555 1_555
C3F C2F 1_555 1_555
O1F C3F 1_555 1_555
O2F C3F 1_555 1_555
H1F C4F 1_555 1_555
H2F C5F 1_555 1_555
H3F C6F 1_555 1_555
H4F O3 1_555 1_555
Rb1F O1F 1_555 1_555
O1A Rb1 1_555 1_555
O2A Rb1 1_555 1_555
O2D Rb1 1_555 1_555
Rb1A O2A 1_555 1_555
Rb1A_2 O2 1_555 1_555
Rb1D O2 1_555 1_555
Rb1C O1F 1_555 1_555
Rb1B O2F 1_555 1_555
Rb1C_2 O2F 1_555 1_555
O1C Rb1F 1_555 1_555
O2B Rb1F 1_555 1_555
O2C Rb1F 1_555 1_555
C3 O2 1_555 1_555
C5 C6 1_555 1_555
C4F C2F 1_555 1_555
O2F Rb1F 1_555 1_555
O1A Rb1A_2 1_555 1_555
O2D Rb1D 1_555 1_555
Rb1C O2C 1_555 1_555
Rb1B O2B 1_555 1_555
Rb1C_2 O1C 1_555 1_555

#END
