
#######################################################################
#
#                 Cambridge Crystallographic Data Centre
#                                CCDC 
#
#######################################################################
#
# If this CIF has been generated from an entry in the Cambridge 
# Structural Database, then it will include bibliographic, chemical, 
# crystal, experimental, refinement or atomic coordinate data resulting 
# from the CCDC's data processing and validation procedures.
#
#######################################################################

data_BARJUB
_symmetry_cell_setting           monoclinic
_symmetry_space_group_name_H-M   'P n'
_symmetry_Int_Tables_number      7
_space_group_name_Hall           'P -2yac'
loop_
_symmetry_equiv_pos_site_id
_symmetry_equiv_pos_as_xyz
1 x,y,z
2 1/2+x,-y,1/2+z
_cell_length_a                   5.9343(4)
_cell_length_b                   13.2243(10)
_cell_length_c                   7.9584(6)
_cell_angle_alpha                90
_cell_angle_beta                 110.4100(10)
_cell_angle_gamma                90
_cell_volume                     585.342
loop_
_atom_site_label
_atom_site_type_symbol
_atom_site_fract_x
_atom_site_fract_y
_atom_site_fract_z
Ni1 Ni 0.23411(6) -0.52550(3) 0.92376(6)
O1 O 0.1237(5) -0.3775(2) 0.9349(4)
O2 O -0.0293(4) -0.45506(18) 0.6791(4)
O3 O -0.5521(4) -0.42163(19) 0.4856(4)
O4 O -0.7090(5) -0.2739(2) 0.5237(6)
C1 C -0.0083(6) -0.3754(3) 0.7735(5)
C2 C -0.1284(7) -0.2752(3) 0.6984(5)
H1 H -0.0024 -0.2275 0.7026
H2 H -0.2060 -0.2501 0.7791
C3 C -0.3146(6) -0.2729(3) 0.5081(5)
H3 H -0.3502 -0.2023 0.4710
C4 C -0.5473(6) -0.3248(3) 0.5045(5)
N1 N -0.2238(5) -0.3239(2) 0.3806(4)
H4 H -0.0643 -0.3101 0.4103
C5 C -0.3522(9) -0.2939(3) 0.1903(7)
H5 H -0.5216 -0.3094 0.1594
H6 H -0.2916 -0.3345 0.1139
C6 C -0.3272(9) -0.1835(3) 0.1507(7)
C7 C -0.1274(16) -0.1500(5) 0.1171(13)
H7 H -0.0059 -0.1952 0.1205
C8 C -0.5023(18) -0.1151(6) 0.1433(17)
H8 H -0.6411 -0.1352 0.1632
C9 C -0.107(3) -0.0487(6) 0.078(2)
H9 H 0.0292 -0.0268 0.0557
C10 C -0.469(3) -0.0140(8) 0.105(3)
H10 H -0.5878 0.0323 0.1027
C11 C -0.282(3) 0.0191(6) 0.073(2)
H11 H -0.2687 0.0868 0.0463
O5 O 0.5111(5) -0.4810(2) 0.8418(4)
Ni1A Ni -0.26589(6) -0.47450(3) 0.42376(6)
O2A O 0.4707(4) -0.54494(18) 1.1791(4)
O3A O -0.0521(4) -0.57837(19) 0.9856(4)
N1A N 0.2762(5) -0.6761(2) 0.8806(4)
H4A H 0.4357 -0.6899 0.9103
loop_
_geom_bond_atom_site_label_1
_geom_bond_atom_site_label_2
_geom_bond_site_symmetry_1
_geom_bond_site_symmetry_2
Ni1 O1 1_555 1_555
O1 C1 1_555 1_555
O2 Ni1 1_555 1_555
O3 C4 1_555 1_555
O4 C4 1_555 1_555
C1 O2 1_555 1_555
C2 C1 1_555 1_555
H1 C2 1_555 1_555
H2 C2 1_555 1_555
C3 C2 1_555 1_555
H3 C3 1_555 1_555
C4 C3 1_555 1_555
N1 C3 1_555 1_555
H4 N1 1_555 1_555
C5 N1 1_555 1_555
H5 C5 1_555 1_555
H6 C5 1_555 1_555
C6 C5 1_555 1_555
C7 C6 1_555 1_555
H7 C7 1_555 1_555
C8 C6 1_555 1_555
H8 C8 1_555 1_555
C9 C7 1_555 1_555
H9 C9 1_555 1_555
C10 C8 1_555 1_555
H10 C10 1_555 1_555
C11 C9 1_555 1_555
H11 C11 1_555 1_555
O5 Ni1 1_555 1_555
Ni1A O2 1_555 1_555
O2A Ni1 1_555 1_555
O3A Ni1 1_555 1_555
N1A Ni1 1_555 1_555
H4A N1A 1_555 1_555
O3 Ni1A 1_555 1_555
N1 Ni1A 1_555 1_555
C10 C11 1_555 1_555

#END
