
#######################################################################
#
#                 Cambridge Crystallographic Data Centre
#                                CCDC 
#
#######################################################################
#
# If this CIF has been generated from an entry in the Cambridge 
# Structural Database, then it will include bibliographic, chemical, 
# crystal, experimental, refinement or atomic coordinate data resulting 
# from the CCDC's data processing and validation procedures.
#
#######################################################################

data_BARKEL
_symmetry_cell_setting           orthorhombic
_symmetry_space_group_name_H-M   'P b c n'
_symmetry_Int_Tables_number      60
_space_group_name_Hall           '-P 2n 2ab'
loop_
_symmetry_equiv_pos_site_id
_symmetry_equiv_pos_as_xyz
1 x,y,z
2 1/2+x,1/2+y,1/2-z
3 1/2-x,1/2+y,z
4 x,-y,1/2+z
5 -x,-y,-z
6 1/2-x,1/2-y,1/2+z
7 1/2+x,1/2-y,-z
8 -x,y,1/2-z
_cell_length_a                   11.677(5)
_cell_length_b                   6.969(4)
_cell_length_c                   19.414(9)
_cell_angle_alpha                90
_cell_angle_beta                 90
_cell_angle_gamma                90
_cell_volume                     1579.85
loop_
_atom_site_label
_atom_site_type_symbol
_atom_site_fract_x
_atom_site_fract_y
_atom_site_fract_z
K1 K 0.65693(4) 0.51489(7) 0.51616(2)
N1 N 0.60851(12) 0.6432(2) 0.80904(6)
C1 C 0.56393(13) 0.7220(2) 0.75165(7)
C2 C 0.63322(12) 0.7865(2) 0.69736(7)
C3 C 0.58865(13) 0.8923(2) 0.63464(7)
O1 O 0.64343(12) 0.8666(2) 0.57926(6)
O2 O 0.50510(11) 1.0021(2) 0.64172(6)
C4 C 0.75112(13) 0.7645(3) 0.70379(8)
C5 C 0.79765(14) 0.6903(3) 0.76372(9)
C6 C 0.72270(15) 0.6333(3) 0.81493(8)
O3 O 0.86708(14) 0.6334(3) 0.47168(8)
O4 O 0.48237(14) 0.3826(3) 0.59289(7)
H1 H 0.803(2) 0.810(3) 0.6689(11)
H2 H 0.882(2) 0.668(4) 0.7723(12)
H3 H 0.751(2) 0.584(3) 0.8587(9)
H4 H 0.906(3) 0.586(5) 0.4387(17)
H5 H 0.895(3) 0.556(5) 0.5033(17)
H6 H 0.468(3) 0.464(5) 0.6250(13)
H7 H 0.489(3) 0.269(5) 0.6086(15)
C1G C 0.43607(13) 0.7220(2) 0.74835(7)
N1G N 0.39149(12) 0.6432(2) 0.69096(6)
C6G C 0.27730(15) 0.6333(3) 0.68507(8)
C5G C 0.20235(14) 0.6903(3) 0.73628(9)
C4G C 0.24888(13) 0.7645(3) 0.79621(8)
C2G C 0.36678(12) 0.7865(2) 0.80264(7)
C3G C 0.41135(13) 0.8923(2) 0.86536(7)
O1G O 0.35657(12) 0.8666(2) 0.92074(6)
O2G O 0.49490(11) 1.0021(2) 0.85828(6)
H1G H 0.197(2) 0.810(3) 0.8311(11)
H2G H 0.118(2) 0.668(4) 0.7277(12)
H3G H 0.249(2) 0.584(3) 0.6413(9)
O3B O 0.63292(14) 0.1334(3) 0.47168(8)
H4B H 0.594(3) 0.086(5) 0.4387(17)
H5B H 0.605(3) 0.056(5) 0.5033(17)
O4D O 0.51763(14) 0.6174(3) 0.40711(7)
H6D H 0.532(3) 0.536(5) 0.3750(13)
H7D H 0.511(3) 0.731(5) 0.3914(15)
K1G K 0.34307(4) 0.51489(7) 0.98384(2)
O1B O 0.85657(12) 0.3666(2) 0.57926(6)
K1B K 0.84307(4) 1.01489(7) 0.51616(2)
K1D K 0.34307(4) 0.48511(7) 0.48384(2)
K1A K 0.15693(4) 1.01489(7) 0.98384(2)
K1B_2 K 0.84307(4) 0.01489(7) 0.51616(2)
O1A O 0.14343(12) 0.3666(2) 0.92074(6)
O3A O 0.36708(14) 0.1334(3) 1.02832(8)
O3G O 0.13292(14) 0.6334(3) 1.02832(8)
O4C O 0.48237(14) 0.6174(3) 1.09289(7)
O4G O 0.51763(14) 0.3826(3) 0.90711(7)
H4A H 0.406(3) 0.086(5) 1.0613(17)
H5A H 0.395(3) 0.056(5) 0.9967(17)
H4G H 0.094(3) 0.586(5) 1.0613(17)
H5G H 0.105(3) 0.556(5) 0.9967(17)
H6C H 0.468(3) 0.536(5) 1.1250(13)
H7C H 0.489(3) 0.731(5) 1.1086(15)
H6G H 0.532(3) 0.464(5) 0.8750(13)
H7G H 0.511(3) 0.269(5) 0.8914(15)
loop_
_geom_bond_atom_site_label_1
_geom_bond_atom_site_label_2
_geom_bond_site_symmetry_1
_geom_bond_site_symmetry_2
K1 O1 1_555 1_555
N1 C1 1_555 1_555
C1 C2 1_555 1_555
C2 C3 1_555 1_555
C3 O1 1_555 1_555
O1 K1B 1_555 1_555
O2 C3 1_555 1_555
C4 C2 1_555 1_555
C5 C4 1_555 1_555
C6 N1 1_555 1_555
O3 K1 1_555 1_555
O4 K1 1_555 1_555
H1 C4 1_555 1_555
H2 C5 1_555 1_555
H3 C6 1_555 1_555
H4 O3 1_555 1_555
H5 O3 1_555 1_555
H6 O4 1_555 1_555
H7 O4 1_555 1_555
C1G C1 1_555 1_555
N1G C1G 1_555 1_555
C6G N1G 1_555 1_555
C5G C6G 1_555 1_555
C4G C5G 1_555 1_555
C2G C1G 1_555 1_555
C3G C2G 1_555 1_555
O1G C3G 1_555 1_555
O2G C3G 1_555 1_555
H1G C4G 1_555 1_555
H2G C5G 1_555 1_555
H3G C6G 1_555 1_555
O3B K1 1_555 1_555
H4B O3B 1_555 1_555
H5B O3B 1_555 1_555
O4D K1 1_555 1_555
H6D O4D 1_555 1_555
H7D O4D 1_555 1_555
K1G O1G 1_555 1_555
O1B K1 1_555 1_555
K1B O3 1_555 1_555
K1D O4 1_555 1_555
K1A O1G 1_555 1_555
K1B_2 O3B 1_555 1_555
O1A K1G 1_555 1_555
O3A K1G 1_555 1_555
O3G K1G 1_555 1_555
O4C K1G 1_555 1_555
O4G K1G 1_555 1_555
H4A O3A 1_555 1_555
H5A O3A 1_555 1_555
H4G O3G 1_555 1_555
H5G O3G 1_555 1_555
H6C O4C 1_555 1_555
H7C O4C 1_555 1_555
H6G O4G 1_555 1_555
H7G O4G 1_555 1_555
C5 C6 1_555 1_555
C4G C2G 1_555 1_555
O4D K1D 1_555 1_555
O1B K1B_2 1_555 1_555
K1A O3G 1_555 1_555

#END
