
#######################################################################
#
#                 Cambridge Crystallographic Data Centre
#                                CCDC 
#
#######################################################################
#
# If this CIF has been generated from an entry in the Cambridge 
# Structural Database, then it will include bibliographic, chemical, 
# crystal, experimental, refinement or atomic coordinate data resulting 
# from the CCDC's data processing and validation procedures.
#
#######################################################################

data_BARKIP
_symmetry_cell_setting           orthorhombic
_symmetry_space_group_name_H-M   'P n n a'
_symmetry_Int_Tables_number      52
_space_group_name_Hall           '-P 2a 2bc'
loop_
_symmetry_equiv_pos_site_id
_symmetry_equiv_pos_as_xyz
1 x,y,z
2 1/2+x,y,-z
3 -x,1/2+y,1/2+z
4 1/2+x,1/2-y,1/2+z
5 -x,-y,-z
6 1/2-x,-y,z
7 x,1/2-y,1/2-z
8 1/2-x,1/2+y,1/2-z
_cell_length_a                   7.5957(3)
_cell_length_b                   17.1949(8)
_cell_length_c                   12.2581(6)
_cell_angle_alpha                90
_cell_angle_beta                 90
_cell_angle_gamma                90
_cell_volume                     1601
loop_
_atom_site_label
_atom_site_type_symbol
_atom_site_fract_x
_atom_site_fract_y
_atom_site_fract_z
Cs1 Cs 0.072411(12) 0.112638(5) -0.099773(8)
N1 N -0.14085(19) 0.24949(8) 0.39145(10)
C1 C -0.07910(18) 0.22182(8) 0.29605(12)
C2 C -0.0333(2) 0.14331(9) 0.28140(13)
C3 C 0.0432(2) 0.11132(9) 0.17648(13)
O1 O 0.18390(15) 0.14139(7) 0.14232(10)
O2 O -0.03858(15) 0.05623(7) 0.13321(10)
C4 C -0.0589(2) 0.09282(11) 0.36922(16)
C5 C -0.1224(3) 0.12169(11) 0.46747(15)
C6 C -0.1598(2) 0.20016(11) 0.47464(14)
H1 H -0.040(3) 0.0391(14) 0.3641(18)
H2 H -0.141(3) 0.0897(12) 0.5303(17)
H3 H -0.201(3) 0.2204(12) 0.5361(17)
C1F C -0.07910(18) 0.27818(8) 0.20395(12)
N1F N -0.14085(19) 0.25051(8) 0.10855(10)
C6F C -0.1598(2) 0.29984(11) 0.02536(14)
C5F C -0.1224(3) 0.37831(11) 0.03253(15)
C4F C -0.0589(2) 0.40718(11) 0.13078(16)
C2F C -0.0333(2) 0.35669(9) 0.21860(13)
C3F C 0.0432(2) 0.38868(9) 0.32352(13)
O1F O 0.18390(15) 0.35861(7) 0.35768(10)
O2F O -0.03858(15) 0.44377(7) 0.36679(10)
H1F H -0.040(3) 0.4609(14) 0.1359(18)
H2F H -0.141(3) 0.4103(12) -0.0303(17)
H3F H -0.201(3) 0.2796(12) -0.0361(17)
Cs1F Cs 0.072411(12) 0.387362(5) 0.599773(8)
O1A O -0.31610(15) 0.14139(7) -0.14232(10)
O2A O 0.46142(15) 0.05623(7) -0.13321(10)
O2D O 0.03858(15) -0.05623(7) -0.13321(10)
Cs1A Cs 0.572411(12) 0.112638(5) 0.099773(8)
Cs1A_2 Cs -0.427589(12) 0.112638(5) 0.099773(8)
Cs1D Cs -0.072411(12) -0.112638(5) 0.099773(8)
Cs1C Cs 0.572411(12) 0.387362(5) 0.400227(8)
Cs1B Cs -0.072411(12) 0.612638(5) 0.400227(8)
Cs1C_2 Cs -0.427589(12) 0.387362(5) 0.400227(8)
O1C O -0.31610(15) 0.35861(7) 0.64232(10)
O2B O 0.03858(15) 0.55623(7) 0.63321(10)
O2C O 0.46142(15) 0.44377(7) 0.63321(10)
O3 O 0.3834(2) 0.25000 0.25000
H4 H 0.316(3) 0.2183(12) 0.2224(17)
H4F H 0.316(3) 0.2817(12) 0.2776(17)
loop_
_geom_bond_atom_site_label_1
_geom_bond_atom_site_label_2
_geom_bond_site_symmetry_1
_geom_bond_site_symmetry_2
Cs1 O1 1_555 1_555
N1 C1 1_555 1_555
C1 C2 1_555 1_555
C2 C3 1_555 1_555
C3 O1 1_555 1_555
O1 Cs1A 1_555 1_555
O2 Cs1 1_555 1_555
C4 C2 1_555 1_555
C5 C4 1_555 1_555
C6 N1 1_555 1_555
O3 H4 1_555 1_555
H1 C4 1_555 1_555
H2 C5 1_555 1_555
H3 C6 1_555 1_555
C1F C1 1_555 1_555
N1F C1F 1_555 1_555
C6F N1F 1_555 1_555
C5F C6F 1_555 1_555
C4F C5F 1_555 1_555
C2F C1F 1_555 1_555
C3F C2F 1_555 1_555
O1F C3F 1_555 1_555
O2F C3F 1_555 1_555
H1F C4F 1_555 1_555
H2F C5F 1_555 1_555
H3F C6F 1_555 1_555
H4F O3 1_555 1_555
Cs1F O1F 1_555 1_555
O1A Cs1 1_555 1_555
O2A Cs1 1_555 1_555
O2D Cs1 1_555 1_555
Cs1A O2A 1_555 1_555
Cs1A_2 O2 1_555 1_555
Cs1D O2 1_555 1_555
Cs1C O1F 1_555 1_555
Cs1B O2F 1_555 1_555
Cs1C_2 O2F 1_555 1_555
O1C Cs1F 1_555 1_555
O2B Cs1F 1_555 1_555
O2C Cs1F 1_555 1_555
C3 O2 1_555 1_555
C5 C6 1_555 1_555
C4F C2F 1_555 1_555
O2F Cs1F 1_555 1_555
O1A Cs1A_2 1_555 1_555
O2D Cs1D 1_555 1_555
Cs1C O2C 1_555 1_555
Cs1B O2B 1_555 1_555
Cs1C_2 O1C 1_555 1_555

#END
