
#######################################################################
#
#                 Cambridge Crystallographic Data Centre
#                                CCDC 
#
#######################################################################
#
# If this CIF has been generated from an entry in the Cambridge 
# Structural Database, then it will include bibliographic, chemical, 
# crystal, experimental, refinement or atomic coordinate data resulting 
# from the CCDC's data processing and validation procedures.
#
#######################################################################

data_BARKOV
_symmetry_cell_setting           monoclinic
_symmetry_space_group_name_H-M   'P 21/n'
_symmetry_Int_Tables_number      14
_space_group_name_Hall           '-P 2yn'
loop_
_symmetry_equiv_pos_site_id
_symmetry_equiv_pos_as_xyz
1 x,y,z
2 1/2+x,1/2-y,1/2+z
3 -x,-y,-z
4 1/2-x,1/2+y,1/2-z
_cell_length_a                   3.9806(6)
_cell_length_b                   16.794(2)
_cell_length_c                   15.162(2)
_cell_angle_alpha                90
_cell_angle_beta                 92.532(3)
_cell_angle_gamma                90
_cell_volume                     1012.59
loop_
_atom_site_label
_atom_site_type_symbol
_atom_site_fract_x
_atom_site_fract_y
_atom_site_fract_z
Cs1 Cs 0.37002(11) 0.30581(2) 0.59223(3)
Cs2 Cs 0.42834(10) 0.11247(2) 0.43526(3)
N1 N 0.2120(15) 0.3602(3) 0.2599(4)
C1 C 0.0653(17) 0.3586(4) 0.3379(4)
C2 C -0.0601(18) 0.2757(4) 0.3652(5)
O1 O -0.0406(16) 0.2226(3) 0.3082(4)
O2 O -0.1708(14) 0.2702(3) 0.4411(3)
C3 C 0.0369(16) 0.4266(4) 0.3859(4)
C4 C 0.1575(18) 0.5016(4) 0.3538(4)
O3 O 0.1190(15) 0.5661(3) 0.3936(4)
C5 C 0.3186(18) 0.4978(4) 0.2704(4)
C6 C 0.3398(18) 0.4276(4) 0.2255(4)
C7 C 0.4937(16) 0.4165(4) 0.1353(4)
O4 O 0.4724(15) 0.3476(3) 0.1036(3)
O5 O 0.6172(14) 0.4775(3) 0.1018(3)
H1 H 0.22712 0.31342 0.22830
H2 H -0.06999 0.42497 0.44088
H3 H 0.41452 0.54548 0.24714
O2_2 O 0.8292(14) 0.2702(3) 0.4411(3)
O3B O -0.1190(15) 0.4339(3) 0.6064(4)
O3B_2 O 0.8810(15) 0.4339(3) 0.6064(4)
O4A O -0.0276(15) 0.1524(3) 0.6036(3)
O5C O -0.1172(14) -0.0225(3) 0.3982(3)
O5C_2 O 0.8828(14) -0.0225(3) 0.3982(3)
Cs1_2 Cs -0.62998(11) 0.30581(2) 0.59223(3)
Cs2_2 Cs -0.57166(10) 0.11247(2) 0.43526(3)
Cs1B Cs -0.37002(11) 0.69419(2) 0.40777(3)
Cs1B_2 Cs 0.62998(11) 0.69419(2) 0.40777(3)
Cs1A Cs 0.87002(11) 0.19419(2) 0.09223(3)
Cs2C Cs 0.07166(10) 0.61247(2) 0.06474(3)
Cs2C_2 Cs 1.07166(10) 0.61247(2) 0.06474(3)
loop_
_geom_bond_atom_site_label_1
_geom_bond_atom_site_label_2
_geom_bond_site_symmetry_1
_geom_bond_site_symmetry_2
Cs1 O2 1_555 1_555
Cs2 O1 1_555 1_555
N1 C1 1_555 1_555
C1 C2 1_555 1_555
C2 O1 1_555 1_555
O2 C2 1_555 1_555
C3 C1 1_555 1_555
C4 C3 1_555 1_555
O3 C4 1_555 1_555
C5 C4 1_555 1_555
C6 N1 1_555 1_555
C7 C6 1_555 1_555
O4 C7 1_555 1_555
O5 C7 1_555 1_555
H1 N1 1_555 1_555
H2 C3 1_555 1_555
H3 C5 1_555 1_555
O2_2 Cs1 1_555 1_555
O3B Cs1 1_555 1_555
O3B_2 Cs1 1_555 1_555
O4A Cs1 1_555 1_555
O5C Cs2 1_555 1_555
O5C_2 Cs2 1_555 1_555
Cs1_2 O2 1_555 1_555
Cs2_2 O2 1_555 1_555
Cs1B O3 1_555 1_555
Cs1B_2 O3 1_555 1_555
Cs1A O4 1_555 1_555
Cs2C O5 1_555 1_555
Cs2C_2 O5 1_555 1_555
Cs2 O2_2 1_555 1_555
C5 C6 1_555 1_555
O3B Cs1_2 1_555 1_555
O5C Cs2_2 1_555 1_555

#END
