
#######################################################################
#
#                 Cambridge Crystallographic Data Centre
#                                CCDC 
#
#######################################################################
#
# If this CIF has been generated from an entry in the Cambridge 
# Structural Database, then it will include bibliographic, chemical, 
# crystal, experimental, refinement or atomic coordinate data resulting 
# from the CCDC's data processing and validation procedures.
#
#######################################################################

data_BARKUB
_symmetry_cell_setting           orthorhombic
_symmetry_space_group_name_H-M   'P b c a'
_symmetry_Int_Tables_number      61
_space_group_name_Hall           '-P 2ac 2ab'
loop_
_symmetry_equiv_pos_site_id
_symmetry_equiv_pos_as_xyz
1 x,y,z
2 1/2+x,y,1/2-z
3 1/2-x,1/2+y,z
4 x,1/2-y,1/2+z
5 -x,-y,-z
6 1/2-x,-y,1/2+z
7 1/2+x,1/2-y,-z
8 -x,1/2+y,1/2-z
_cell_length_a                   7.044(3)
_cell_length_b                   31.980(8)
_cell_length_c                   20.517(13)
_cell_angle_alpha                90
_cell_angle_beta                 90
_cell_angle_gamma                90
_cell_volume                     4621.81
loop_
_atom_site_label
_atom_site_type_symbol
_atom_site_fract_x
_atom_site_fract_y
_atom_site_fract_z
Rb1 Rb 0.57925(15) 0.12531(3) 0.37995(5)
Rb2 Rb 0.86421(13) 0.20769(3) 0.50115(5)
Rb3 Rb 0.26056(14) 0.04945(3) 0.50341(5)
N1 N 0.6743(12) 0.2334(2) 0.2424(4)
C1 C 0.6761(14) 0.2413(3) 0.3597(5)
O1 O 0.7443(9) 0.2055(2) 0.3595(3)
O2 O 0.6402(10) 0.2649(2) 0.4065(4)
C2 C 0.6324(13) 0.2595(3) 0.2914(5)
C3 C 0.5624(14) 0.2986(3) 0.2795(5)
C4 C 0.5330(13) 0.3109(3) 0.2152(5)
O3 O 0.4631(9) 0.3472(2) 0.1983(3)
C5 C 0.5828(14) 0.2831(3) 0.1645(5)
C6 C 0.6519(14) 0.2445(3) 0.1797(5)
C7 C 0.7089(14) 0.2118(3) 0.1308(5)
O4 O 0.7549(9) 0.1766(2) 0.1522(4)
O5 O 0.7042(10) 0.2223(2) 0.0720(3)
N2 N 0.4352(11) 0.0150(2) 0.2455(4)
C8 C 0.4648(14) -0.0098(3) 0.2971(5)
C9 C 0.4284(15) 0.0104(3) 0.3635(5)
O6 O 0.3747(10) 0.0473(2) 0.3627(4)
O7 O 0.4554(10) -0.0124(2) 0.4119(3)
C10 C 0.5230(14) -0.0503(3) 0.2884(5)
C11 C 0.5514(13) -0.0666(3) 0.2241(5)
O8 O 0.6009(10) -0.1047(2) 0.2138(3)
C12 C 0.5188(14) -0.0379(3) 0.1722(5)
C13 C 0.4607(13) 0.0020(3) 0.1840(5)
C14 C 0.4266(14) 0.0332(3) 0.1303(5)
O9 O 0.3889(10) 0.0695(2) 0.1489(3)
O10 O 0.4325(10) 0.0201(2) 0.0730(3)
O11 O 0.4761(10) 0.1743(2) 0.4971(3)
O12 O 1.0620(10) 0.1245(2) 0.4424(4)
O13 O 0.8739(11) 0.1344(2) 0.5866(4)
O14 O 0.2709(10) 0.1228(2) 0.5869(4)
O15 O 0.5925(16) 0.1185(3) 0.2408(6)
O16 O 0.7100(10) 0.0708(2) 0.5087(3)
H1 H 0.72072 0.20676 0.25268
H2 H 0.53419 0.31704 0.31423
H3 H 0.41997 0.36621 0.22646
H4 H 0.56846 0.29082 0.11947
H5 H 0.39690 0.04251 0.25337
H6 H 0.54388 -0.06841 0.32558
H7 H 0.53877 -0.04685 0.12815
O4A O 0.2549(9) 0.1766(2) 0.3478(4)
O9A O 0.8889(10) 0.0695(2) 0.3511(3)
O2F O 1.1402(10) 0.2351(2) 0.5935(4)
O5A O 1.2042(10) 0.2223(2) 0.4280(3)
O5C O 0.7042(10) 0.2777(2) 0.5720(3)
O7D O 0.5446(10) 0.0124(2) 0.5881(3)
O10A O -0.0675(10) 0.0201(2) 0.4270(3)
O10E O 0.0675(10) -0.0201(2) 0.5730(3)
O12_2 O 0.0620(10) 0.1245(2) 0.4424(4)
Rb2F Rb 0.36421(13) 0.29231(3) 0.49885(5)
Rb1A Rb 1.07925(15) 0.12531(3) 0.12005(5)
Rb2A Rb 0.36421(13) 0.20769(3) -0.00115(5)
Rb2C Rb 0.86421(13) 0.29231(3) 0.00115(5)
Rb3D Rb 0.73944(14) -0.04945(3) 0.49659(5)
Rb1A_2 Rb 0.07925(15) 0.12531(3) 0.12005(5)
Rb3A Rb 0.76056(14) 0.04945(3) -0.00341(5)
Rb3E Rb 0.23944(14) -0.04945(3) 0.00341(5)
Rb3_2 Rb 1.26056(14) 0.04945(3) 0.50341(5)
loop_
_geom_bond_atom_site_label_1
_geom_bond_atom_site_label_2
_geom_bond_site_symmetry_1
_geom_bond_site_symmetry_2
Rb1 O1 1_555 1_555
Rb2 O1 1_555 1_555
Rb3 O6 1_555 1_555
N1 C2 1_555 1_555
C1 O1 1_555 1_555
O2 Rb2 1_555 1_555
C2 C1 1_555 1_555
C3 C2 1_555 1_555
C4 C3 1_555 1_555
O3 C4 1_555 1_555
C5 C4 1_555 1_555
C6 N1 1_555 1_555
C7 C6 1_555 1_555
O4 C7 1_555 1_555
O5 C7 1_555 1_555
N2 C8 1_555 1_555
C8 C9 1_555 1_555
C9 O6 1_555 1_555
O6 Rb1 1_555 1_555
O7 Rb3 1_555 1_555
C10 C8 1_555 1_555
C11 C10 1_555 1_555
O8 C11 1_555 1_555
C12 C11 1_555 1_555
C13 N2 1_555 1_555
C14 C13 1_555 1_555
O9 C14 1_555 1_555
O10 C14 1_555 1_555
O11 Rb1 1_555 1_555
O12 Rb2 1_555 1_555
O13 Rb2 1_555 1_555
O14 Rb3 1_555 1_555
O15 Rb1 1_555 1_555
O16 Rb1 1_555 1_555
H1 N1 1_555 1_555
H2 C3 1_555 1_555
H3 O3 1_555 1_555
H4 C5 1_555 1_555
H5 N2 1_555 1_555
H6 C10 1_555 1_555
H7 C12 1_555 1_555
O4A Rb1 1_555 1_555
O9A Rb1 1_555 1_555
O2F Rb2 1_555 1_555
O5A Rb2 1_555 1_555
O5C Rb2 1_555 1_555
O7D Rb3 1_555 1_555
O10A Rb3 1_555 1_555
O10E Rb3 1_555 1_555
O12_2 Rb3 1_555 1_555
Rb2F O2 1_555 1_555
Rb1A O4 1_555 1_555
Rb2A O5 1_555 1_555
Rb2C O5 1_555 1_555
Rb3D O7 1_555 1_555
Rb1A_2 O9 1_555 1_555
Rb3A O10 1_555 1_555
Rb3E O10 1_555 1_555
Rb3_2 O12 1_555 1_555
Rb2 O11 1_555 1_555
Rb3 O16 1_555 1_555
C1 O2 1_555 1_555
C5 C6 1_555 1_555
C9 O7 1_555 1_555
C12 C13 1_555 1_555
O5C Rb2F 1_555 1_555
O7D Rb3D 1_555 1_555

#END
