
#######################################################################
#
#                 Cambridge Crystallographic Data Centre
#                                CCDC 
#
#######################################################################
#
# If this CIF has been generated from an entry in the Cambridge 
# Structural Database, then it will include bibliographic, chemical, 
# crystal, experimental, refinement or atomic coordinate data resulting 
# from the CCDC's data processing and validation procedures.
#
#######################################################################

data_BARMOX
_symmetry_cell_setting           monoclinic
_symmetry_space_group_name_H-M   'P 21/c'
_symmetry_Int_Tables_number      14
_space_group_name_Hall           '-P 2ybc'
loop_
_symmetry_equiv_pos_site_id
_symmetry_equiv_pos_as_xyz
1 x,y,z
2 -x,1/2+y,1/2-z
3 -x,-y,-z
4 x,1/2-y,1/2+z
_cell_length_a                   6.1151(2)
_cell_length_b                   17.8393(7)
_cell_length_c                   8.2639(2)
_cell_angle_alpha                90
_cell_angle_beta                 107.618(3)
_cell_angle_gamma                90
_cell_volume                     859.217
loop_
_atom_site_label
_atom_site_type_symbol
_atom_site_fract_x
_atom_site_fract_y
_atom_site_fract_z
Zn1 Zn 0.00379(6) 0.355920(19) -0.82423(4)
Cl1 Cl 0.14581(13) 0.24058(4) -0.73154(9)
N1 N -0.4361(5) 0.29896(15) -0.3822(4)
O1 O 0.0061(4) 0.40770(12) -0.6078(3)
C1 C -0.1770(5) 0.38574(16) -0.5821(4)
O2 O 0.2670(4) 0.40073(14) -0.8862(3)
O3 O -0.3194(4) 0.34385(12) -0.6828(3)
C2 C -0.2246(5) 0.41247(17) -0.4213(4)
H1 H -0.0962 0.3965 -0.3220
H2 H -0.2286 0.4679 -0.4218
C3 C -0.4475(5) 0.38335(16) -0.4001(4)
H3 H -0.5739 0.3958 -0.5056
O4 O -0.2397(4) 0.46255(12) 0.0124(3)
C4 C -0.5066(5) 0.41840(17) -0.2496(4)
H4 H -0.5351 0.4726 -0.2714
H5 H -0.6503 0.3956 -0.2411
O5 O -0.2501(4) 0.34131(12) -0.0414(3)
C5 C -0.3199(5) 0.40838(17) -0.0814(3)
H6 H -0.409(6) 0.281(2) -0.468(5)
H7 H -0.312(7) 0.288(2) -0.291(5)
H8 H 0.261(8) 0.444(3) -0.925(5)
H9 H -0.562(8) 0.284(2) -0.364(5)
H10 H 0.396(10) 0.384(3) -0.849(7)
O5_2 O -0.2501(4) 0.34131(12) -1.0414(3)
Zn1_2 Zn 0.00379(6) 0.355920(19) 0.17577(4)
loop_
_geom_bond_atom_site_label_1
_geom_bond_atom_site_label_2
_geom_bond_site_symmetry_1
_geom_bond_site_symmetry_2
Zn1 Cl1 1_555 1_555
N1 C3 1_555 1_555
O1 Zn1 1_555 1_555
C1 O1 1_555 1_555
O2 Zn1 1_555 1_555
O3 C1 1_555 1_555
C2 C1 1_555 1_555
H1 C2 1_555 1_555
H2 C2 1_555 1_555
C3 C2 1_555 1_555
H3 C3 1_555 1_555
O4 C5 1_555 1_555
C4 C3 1_555 1_555
H4 C4 1_555 1_555
H5 C4 1_555 1_555
O5 C5 1_555 1_555
C5 C4 1_555 1_555
H6 N1 1_555 1_555
H7 N1 1_555 1_555
H8 O2 1_555 1_555
H9 N1 1_555 1_555
H10 O2 1_555 1_555
O5_2 Zn1 1_555 1_555
Zn1_2 O5 1_555 1_555

#END
