
#######################################################################
#
#                 Cambridge Crystallographic Data Centre
#                                CCDC 
#
#######################################################################
#
# If this CIF has been generated from an entry in the Cambridge 
# Structural Database, then it will include bibliographic, chemical, 
# crystal, experimental, refinement or atomic coordinate data resulting 
# from the CCDC's data processing and validation procedures.
#
#######################################################################

data_BARMIR
_symmetry_cell_setting           triclinic
_symmetry_space_group_name_H-M   'P -1'
_symmetry_Int_Tables_number      2
_space_group_name_Hall           '-P 1'
loop_
_symmetry_equiv_pos_site_id
_symmetry_equiv_pos_as_xyz
1 x,y,z
2 -x,-y,-z
_cell_length_a                   13.4790(10)
_cell_length_b                   13.5450(10)
_cell_length_c                   19.528(2)
_cell_angle_alpha                90.139(7)
_cell_angle_beta                 90.752(7)
_cell_angle_gamma                118.551(6)
_cell_volume                     3131.3
loop_
_atom_site_label
_atom_site_type_symbol
_atom_site_fract_x
_atom_site_fract_y
_atom_site_fract_z
Fe1 Fe 0.23013(13) -0.18969(13) 0.32123(8)
Fe2 Fe 0.26574(14) -0.26611(13) 0.19837(8)
C1 C 0.3189(11) -0.0650(11) 0.3702(6)
O1 O 0.3652(9) 0.0124(9) 0.4052(4)
C2 C 0.1124(10) -0.1671(13) 0.3271(7)
O2 O 0.0352(9) -0.1541(12) 0.3393(6)
C3 C 0.1999(10) -0.2861(11) 0.3879(6)
O3 O 0.1643(8) -0.3538(8) 0.4315(5)
C4 C 0.3826(11) -0.2056(12) 0.1440(6)
O4 O 0.4507(9) -0.1790(9) 0.1024(5)
C5 C 0.1658(11) -0.3019(10) 0.1304(6)
O5 O 0.1048(7) -0.3343(7) 0.0844(5)
C6 C 0.2545(14) -0.4009(12) 0.2087(8)
O6 O 0.2389(12) -0.4913(9) 0.2114(8)
C7 C 0.1342(11) -0.3171(11) 0.2623(7)
O7 O 0.0461(9) -0.3943(9) 0.2632(6)
Cl1 Cl 0.5227(2) 0.0355(2) 0.24682(14)
In1 In 0.29905(6) -0.05930(6) 0.21305(3)
In2 In 0.42623(6) -0.17887(6) 0.29373(4)
C8 C 0.2846(8) 0.0749(8) 0.1566(5)
Si1 Si 0.3466(3) 0.0838(3) 0.06984(16)
C9 C 0.2552(13) -0.0412(12) 0.0142(6)
H1 H 0.2430 -0.1088 0.0370
H2 H 0.2920 -0.0355 -0.0285
H3 H 0.1839 -0.0434 0.0057
C10 C 0.3634(14) 0.2094(13) 0.0200(7)
H4 H 0.2902 0.2002 0.0078
H5 H 0.4050 0.2160 -0.0208
H6 H 0.4035 0.2761 0.0476
C11 C 0.4897(11) 0.0917(12) 0.0727(7)
H7 H 0.5417 0.1575 0.0980
H8 H 0.5163 0.0956 0.0268
H9 H 0.4844 0.0260 0.0946
Si2 Si 0.1271(3) 0.0283(3) 0.15262(17)
C12 C 0.0388(10) -0.1276(10) 0.1387(7)
H10 H -0.0394 -0.1467 0.1355
H11 H 0.0502 -0.1666 0.1764
H12 H 0.0607 -0.1491 0.0970
C13 C 0.0729(13) 0.0614(13) 0.2326(7)
H13 H 0.1110 0.1412 0.2404
H14 H 0.0868 0.0249 0.2708
H15 H -0.0068 0.0349 0.2277
C14 C 0.0857(12) 0.0935(12) 0.0810(7)
H16 H 0.0048 0.0571 0.0766
H17 H 0.1171 0.0848 0.0390
H18 H 0.1138 0.1720 0.0906
Si3 Si 0.3629(3) 0.2135(3) 0.20560(17)
C15 C 0.3116(14) 0.3132(11) 0.1814(8)
H19 H 0.3679 0.3883 0.1933
H20 H 0.2433 0.2950 0.2053
H21 H 0.2968 0.3081 0.1329
C16 C 0.3492(13) 0.1953(12) 0.3007(6)
H22 H 0.3288 0.2484 0.3197
H23 H 0.4199 0.2078 0.3203
H24 H 0.2918 0.1203 0.3107
C17 C 0.5188(13) 0.2896(12) 0.1887(8)
H25 H 0.5307 0.2999 0.1403
H26 H 0.5527 0.2461 0.2059
H27 H 0.5526 0.3615 0.2114
C18 C 0.5745(9) -0.1952(9) 0.3360(6)
Si4 Si 0.6755(3) -0.0570(3) 0.38098(18)
C19 C 0.6052(12) 0.0124(12) 0.4259(6)
H28 H 0.6603 0.0754 0.4520
H29 H 0.5494 -0.0401 0.4560
H30 H 0.5693 0.0380 0.3929
C20 C 0.7805(12) 0.0533(11) 0.3233(8)
H31 H 0.7414 0.0766 0.2912
H32 H 0.8212 0.0229 0.2989
H33 H 0.8325 0.1169 0.3503
C21 C 0.7635(13) -0.0797(14) 0.4477(8)
H34 H 0.8078 -0.0110 0.4728
H35 H 0.8127 -0.1027 0.4260
H36 H 0.7150 -0.1371 0.4786
Si5 Si 0.6429(3) -0.2260(3) 0.2624(2)
C22 C 0.6799(12) -0.1241(14) 0.1900(7)
H37 H 0.6180 -0.1096 0.1807
H38 H 0.6949 -0.1555 0.1498
H39 H 0.7459 -0.0550 0.2023
C23 C 0.5538(15) -0.3724(15) 0.2260(11)
H40 H 0.5419 -0.4267 0.2608
H41 H 0.5919 -0.3840 0.1882
H42 H 0.4822 -0.3808 0.2106
C24 C 0.7809(12) -0.2215(15) 0.2890(10)
H43 H 0.8310 -0.1491 0.3085
H44 H 0.8151 -0.2347 0.2497
H45 H 0.7663 -0.2786 0.3224
Si6 Si 0.5089(3) -0.3103(3) 0.3994(2)
C25 C 0.4674(15) -0.2643(17) 0.4812(8)
H46 H 0.5325 -0.2013 0.5010
H47 H 0.4385 -0.3253 0.5130
H48 H 0.4103 -0.2432 0.4709
C26 C 0.3748(11) -0.4346(11) 0.3666(8)
H49 H 0.3190 -0.4114 0.3571
H50 H 0.3470 -0.4922 0.4007
H51 H 0.3902 -0.4633 0.3254
C27 C 0.6016(12) -0.3755(14) 0.4241(10)
H52 H 0.6041 -0.4201 0.3865
H53 H 0.5708 -0.4223 0.4634
H54 H 0.6766 -0.3171 0.4348
Na1 Na 0.0000 -0.5000 1.0000
O8 O 0.0585(10) -0.3763(9) 0.9105(5)
C28 C 0.010(2) -0.314(3) 0.8884(16)
H55 H -0.0650 -0.3617 0.8713
H56 H 0.0063 -0.2688 0.9253
C29 C 0.081(3) -0.242(3) 0.8337(16)
H57 H 0.1069 -0.1645 0.8459
H58 H 0.0369 -0.2577 0.7922
C30 C 0.162(4) -0.256(4) 0.824(2)
H59 H 0.1632 -0.2805 0.7777
H60 H 0.2324 -0.1896 0.8341
C31 C 0.139(4) -0.338(4) 0.870(3)
H61 H 0.2059 -0.3135 0.8976
H62 H 0.1314 -0.4018 0.8439
O9 O 0.1628(8) -0.5205(8) 0.9856(5)
C32 C 0.2722(16) -0.451(2) 1.0144(10)
H63 H 0.2681 -0.4463 1.0632
H64 H 0.3042 -0.3771 0.9959
C33 C 0.3389(17) -0.502(2) 0.9976(14)
H65 H 0.4150 -0.4460 0.9884
H66 H 0.3403 -0.5483 1.0344
C34 C 0.285(2) -0.571(2) 0.9358(13)
H67 H 0.2950 -0.6363 0.9346
H68 H 0.3158 -0.5282 0.8950
C35 C 0.1676(17) -0.6020(18) 0.9414(14)
H69 H 0.1357 -0.6016 0.8972
H70 H 0.1264 -0.6758 0.9603
Na2 Na 0.0000 -0.5000 0.5000
O10 O 0.1332(8) -0.4576(7) 0.5868(4)
C36 C 0.1671(15) -0.5309(14) 0.6201(9)
H71 H 0.2088 -0.5523 0.5895
H72 H 0.1024 -0.5975 0.6355
C37 C 0.2401(17) -0.4648(16) 0.6800(9)
H73 H 0.1954 -0.4723 0.7194
H74 H 0.2947 -0.4888 0.6914
C38 C 0.2965(16) -0.3464(17) 0.6547(9)
H75 H 0.3649 -0.3291 0.6312
H76 H 0.3133 -0.2935 0.6916
C39 C 0.2084(17) -0.3467(14) 0.6067(11)
H77 H 0.1681 -0.3138 0.6290
H78 H 0.2440 -0.3029 0.5670
O11 O -0.0288(9) -0.3537(9) 0.5438(6)
C40 C 0.001(2) -0.247(2) 0.5154(11)
H79 H -0.0173 -0.2536 0.4674
H80 H 0.0808 -0.1970 0.5214
C41 C -0.068(3) -0.205(3) 0.555(2)
H81 H -0.0218 -0.1282 0.5700
H82 H -0.1296 -0.2094 0.5276
C42 C -0.107(3) -0.275(2) 0.610(3)
H83 H -0.1874 -0.3073 0.6115
H84 H -0.0757 -0.2322 0.6513
C43 C -0.076(2) -0.368(2) 0.6067(16)
H85 H -0.0227 -0.3596 0.6423
H86 H -0.1415 -0.4401 0.6102
O3A O -0.1643(8) -0.6462(8) 0.5685(5)
C3A C -0.1999(10) -0.7139(11) 0.6121(6)
Fe1A Fe -0.23013(13) -0.81031(13) 0.67877(8)
C1A C -0.3189(11) -0.9350(11) 0.6298(6)
O1A O -0.3652(9) -1.0124(9) 0.5948(4)
C2A C -0.1124(10) -0.8329(13) 0.6729(7)
O2A O -0.0352(9) -0.8459(12) 0.6607(6)
C7A C -0.1342(11) -0.6829(11) 0.7377(7)
Fe2A Fe -0.26574(14) -0.73389(13) 0.80163(8)
C4A C -0.3826(11) -0.7944(12) 0.8560(6)
O4A O -0.4507(9) -0.8210(9) 0.8976(5)
C5A C -0.1658(11) -0.6981(10) 0.8696(6)
O5A O -0.1048(7) -0.6657(7) 0.9156(5)
Na1_2 Na 0.0000 -0.5000 0.0000
O5_2 O 0.1048(7) -0.3343(7) 1.0844(5)
O8A O -0.0585(10) -0.6237(9) 1.0895(5)
C28A C -0.010(2) -0.686(3) 1.1116(16)
H55A H 0.0650 -0.6383 1.1287
H56A H -0.0063 -0.7312 1.0747
C29A C -0.081(3) -0.758(3) 1.1663(16)
H57A H -0.1069 -0.8355 1.1541
H58A H -0.0369 -0.7423 1.2078
C30A C -0.162(4) -0.744(4) 1.176(2)
H59A H -0.1632 -0.7195 1.2223
H60A H -0.2324 -0.8104 1.1659
C31A C -0.139(4) -0.662(4) 1.130(3)
H61A H -0.2059 -0.6865 1.1024
H62A H -0.1314 -0.5982 1.1561
O9A O -0.1628(8) -0.4795(8) 1.0144(5)
C32A C -0.2722(16) -0.549(2) 0.9856(10)
H63A H -0.2681 -0.5537 0.9368
H64A H -0.3042 -0.6229 1.0041
C33A C -0.3389(17) -0.498(2) 1.0024(14)
H65A H -0.4150 -0.5540 1.0116
H66A H -0.3403 -0.4517 0.9656
C34A C -0.285(2) -0.429(2) 1.0642(13)
H67A H -0.2950 -0.3637 1.0654
H68A H -0.3158 -0.4718 1.1050
C35A C -0.1676(17) -0.3980(18) 1.0586(14)
H69A H -0.1357 -0.3984 1.1028
H70A H -0.1264 -0.3242 1.0397
C6A C -0.2545(14) -0.5991(12) 0.7913(8)
O6A O -0.2389(12) -0.5087(9) 0.7886(8)
In1A In -0.29905(6) -0.94070(6) 0.78695(3)
In2A In -0.42623(6) -0.82113(6) 0.70627(4)
Cl1A Cl -0.5227(2) -1.0355(2) 0.75318(14)
C8A C -0.2846(8) -1.0749(8) 0.8434(5)
Si1A Si -0.3466(3) -1.0838(3) 0.93016(16)
C9A C -0.2552(13) -0.9588(12) 0.9858(6)
H1A H -0.2430 -0.8912 0.9630
H2A H -0.2920 -0.9645 1.0285
H3A H -0.1839 -0.9566 0.9943
C10A C -0.3634(14) -1.2094(13) 0.9800(7)
H4A H -0.2902 -1.2002 0.9922
H5A H -0.4050 -1.2160 1.0208
H6A H -0.4035 -1.2761 0.9524
C11A C -0.4897(11) -1.0917(12) 0.9273(7)
H7A H -0.5417 -1.1575 0.9020
H8A H -0.5163 -1.0956 0.9732
H9A H -0.4844 -1.0260 0.9054
Si2A Si -0.1271(3) -1.0283(3) 0.84738(17)
C12A C -0.0388(10) -0.8724(10) 0.8613(7)
H10A H 0.0394 -0.8533 0.8645
H11A H -0.0502 -0.8334 0.8236
H12A H -0.0607 -0.8509 0.9030
C13A C -0.0729(13) -1.0614(13) 0.7674(7)
H13A H -0.1110 -1.1412 0.7596
H14A H -0.0868 -1.0249 0.7292
H15A H 0.0068 -1.0349 0.7723
C14A C -0.0857(12) -1.0935(12) 0.9190(7)
H16A H -0.0048 -1.0571 0.9234
H17A H -0.1171 -1.0848 0.9610
H18A H -0.1138 -1.1720 0.9094
Si3A Si -0.3629(3) -1.2135(3) 0.79440(17)
C15A C -0.3116(14) -1.3132(11) 0.8186(8)
H19A H -0.3679 -1.3883 0.8067
H20A H -0.2433 -1.2950 0.7947
H21A H -0.2968 -1.3081 0.8671
C16A C -0.3492(13) -1.1953(12) 0.6993(6)
H22A H -0.3288 -1.2484 0.6803
H23A H -0.4199 -1.2078 0.6797
H24A H -0.2918 -1.1203 0.6893
C17A C -0.5188(13) -1.2896(12) 0.8113(8)
H25A H -0.5307 -1.2999 0.8597
H26A H -0.5527 -1.2461 0.7941
H27A H -0.5526 -1.3615 0.7886
C18A C -0.5745(9) -0.8048(9) 0.6640(6)
Si4A Si -0.6755(3) -0.9430(3) 0.61902(18)
C19A C -0.6052(12) -1.0124(12) 0.5741(6)
H28A H -0.6603 -1.0754 0.5480
H29A H -0.5494 -0.9599 0.5440
H30A H -0.5693 -1.0380 0.6071
C20A C -0.7805(12) -1.0533(11) 0.6767(8)
H31A H -0.7414 -1.0766 0.7088
H32A H -0.8212 -1.0229 0.7011
H33A H -0.8325 -1.1169 0.6497
C21A C -0.7635(13) -0.9203(14) 0.5523(8)
H34A H -0.8078 -0.9890 0.5272
H35A H -0.8127 -0.8973 0.5740
H36A H -0.7150 -0.8629 0.5214
Si5A Si -0.6429(3) -0.7740(3) 0.7376(2)
C22A C -0.6799(12) -0.8759(14) 0.8100(7)
H37A H -0.6180 -0.8904 0.8193
H38A H -0.6949 -0.8445 0.8502
H39A H -0.7459 -0.9450 0.7977
C23A C -0.5538(15) -0.6276(15) 0.7740(11)
H40A H -0.5419 -0.5733 0.7392
H41A H -0.5919 -0.6160 0.8118
H42A H -0.4822 -0.6192 0.7894
C24A C -0.7809(12) -0.7785(15) 0.7110(10)
H43A H -0.8310 -0.8509 0.6915
H44A H -0.8151 -0.7653 0.7503
H45A H -0.7663 -0.7214 0.6776
Si6A Si -0.5089(3) -0.6897(3) 0.6006(2)
C25A C -0.4674(15) -0.7357(17) 0.5188(8)
H46A H -0.5325 -0.7987 0.4990
H47A H -0.4385 -0.6747 0.4870
H48A H -0.4103 -0.7568 0.5291
C26A C -0.3748(11) -0.5654(11) 0.6334(8)
H49A H -0.3190 -0.5886 0.6429
H50A H -0.3470 -0.5078 0.5993
H51A H -0.3902 -0.5367 0.6746
C27A C -0.6016(12) -0.6245(14) 0.5759(10)
H52A H -0.6041 -0.5799 0.6135
H53A H -0.5708 -0.5777 0.5366
H54A H -0.6766 -0.6829 0.5652
O7A O -0.0461(9) -0.6057(9) 0.7368(6)
O10A O -0.1332(8) -0.5424(7) 0.4132(4)
C36A C -0.1671(15) -0.4691(14) 0.3799(9)
H71A H -0.2088 -0.4477 0.4105
H72A H -0.1024 -0.4025 0.3645
C37A C -0.2401(17) -0.5352(16) 0.3200(9)
H73A H -0.1954 -0.5277 0.2806
H74A H -0.2947 -0.5112 0.3086
C38A C -0.2965(16) -0.6536(17) 0.3453(9)
H75A H -0.3649 -0.6709 0.3688
H76A H -0.3133 -0.7065 0.3084
C39A C -0.2084(17) -0.6533(14) 0.3933(11)
H77A H -0.1681 -0.6862 0.3710
H78A H -0.2440 -0.6971 0.4330
O11A O 0.0288(9) -0.6463(9) 0.4562(6)
C40A C -0.001(2) -0.753(2) 0.4846(11)
H79A H 0.0173 -0.7464 0.5326
H80A H -0.0808 -0.8030 0.4786
C41A C 0.068(3) -0.795(3) 0.445(2)
H81A H 0.0218 -0.8718 0.4300
H82A H 0.1296 -0.7906 0.4724
C42A C 0.107(3) -0.725(2) 0.390(3)
H83A H 0.1874 -0.6927 0.3885
H84A H 0.0757 -0.7678 0.3487
C43A C 0.076(2) -0.632(2) 0.3933(16)
H85A H 0.0227 -0.6404 0.3577
H86A H 0.1415 -0.5599 0.3898
loop_
_geom_bond_atom_site_label_1
_geom_bond_atom_site_label_2
_geom_bond_site_symmetry_1
_geom_bond_site_symmetry_2
Fe1 C1 1_555 1_555
Fe2 C4 1_555 1_555
C1 O1 1_555 1_555
C2 Fe1 1_555 1_555
O2 C2 1_555 1_555
C3 Fe1 1_555 1_555
O3 C3 1_555 1_555
C4 O4 1_555 1_555
C5 Fe2 1_555 1_555
O5 C5 1_555 1_555
C6 Fe2 1_555 1_555
O6 C6 1_555 1_555
C7 Fe1 1_555 1_555
O7 C7 1_555 1_555
Cl1 In1 1_555 1_555
In1 Fe1 1_555 1_555
In2 Fe1 1_555 1_555
C8 In1 1_555 1_555
Si1 C8 1_555 1_555
C9 Si1 1_555 1_555
H1 C9 1_555 1_555
H2 C9 1_555 1_555
H3 C9 1_555 1_555
C10 Si1 1_555 1_555
H4 C10 1_555 1_555
H5 C10 1_555 1_555
H6 C10 1_555 1_555
C11 Si1 1_555 1_555
H7 C11 1_555 1_555
H8 C11 1_555 1_555
H9 C11 1_555 1_555
Si2 C8 1_555 1_555
C12 Si2 1_555 1_555
H10 C12 1_555 1_555
H11 C12 1_555 1_555
H12 C12 1_555 1_555
C13 Si2 1_555 1_555
H13 C13 1_555 1_555
H14 C13 1_555 1_555
H15 C13 1_555 1_555
C14 Si2 1_555 1_555
H16 C14 1_555 1_555
H17 C14 1_555 1_555
H18 C14 1_555 1_555
Si3 C8 1_555 1_555
C15 Si3 1_555 1_555
H19 C15 1_555 1_555
H20 C15 1_555 1_555
H21 C15 1_555 1_555
C16 Si3 1_555 1_555
H22 C16 1_555 1_555
H23 C16 1_555 1_555
H24 C16 1_555 1_555
C17 Si3 1_555 1_555
H25 C17 1_555 1_555
H26 C17 1_555 1_555
H27 C17 1_555 1_555
C18 In2 1_555 1_555
Si4 C18 1_555 1_555
C19 Si4 1_555 1_555
H28 C19 1_555 1_555
H29 C19 1_555 1_555
H30 C19 1_555 1_555
C20 Si4 1_555 1_555
H31 C20 1_555 1_555
H32 C20 1_555 1_555
H33 C20 1_555 1_555
C21 Si4 1_555 1_555
H34 C21 1_555 1_555
H35 C21 1_555 1_555
H36 C21 1_555 1_555
Si5 C18 1_555 1_555
C22 Si5 1_555 1_555
H37 C22 1_555 1_555
H38 C22 1_555 1_555
H39 C22 1_555 1_555
C23 Si5 1_555 1_555
H40 C23 1_555 1_555
H41 C23 1_555 1_555
H42 C23 1_555 1_555
C24 Si5 1_555 1_555
H43 C24 1_555 1_555
H44 C24 1_555 1_555
H45 C24 1_555 1_555
Si6 C18 1_555 1_555
C25 Si6 1_555 1_555
H46 C25 1_555 1_555
H47 C25 1_555 1_555
H48 C25 1_555 1_555
C26 Si6 1_555 1_555
H49 C26 1_555 1_555
H50 C26 1_555 1_555
H51 C26 1_555 1_555
C27 Si6 1_555 1_555
H52 C27 1_555 1_555
H53 C27 1_555 1_555
H54 C27 1_555 1_555
Na1 O8 1_555 1_555
O8 C28 1_555 1_555
C28 H55 1_555 1_555
H56 C28 1_555 1_555
C29 C28 1_555 1_555
H57 C29 1_555 1_555
H58 C29 1_555 1_555
C30 C29 1_555 1_555
H59 C30 1_555 1_555
H60 C30 1_555 1_555
C31 O8 1_555 1_555
H61 C31 1_555 1_555
H62 C31 1_555 1_555
O9 Na1 1_555 1_555
C32 O9 1_555 1_555
H63 C32 1_555 1_555
H64 C32 1_555 1_555
C33 C32 1_555 1_555
H65 C33 1_555 1_555
H66 C33 1_555 1_555
C34 C33 1_555 1_555
H67 C34 1_555 1_555
H68 C34 1_555 1_555
C35 O9 1_555 1_555
H69 C35 1_555 1_555
H70 C35 1_555 1_555
Na2 O3 1_555 1_555
O10 Na2 1_555 1_555
C36 O10 1_555 1_555
H71 C36 1_555 1_555
H72 C36 1_555 1_555
C37 C36 1_555 1_555
H73 C37 1_555 1_555
H74 C37 1_555 1_555
C38 C37 1_555 1_555
H75 C38 1_555 1_555
H76 C38 1_555 1_555
C39 O10 1_555 1_555
H77 C39 1_555 1_555
H78 C39 1_555 1_555
O11 Na2 1_555 1_555
C40 O11 1_555 1_555
H79 C40 1_555 1_555
H80 C40 1_555 1_555
C41 C40 1_555 1_555
H81 C41 1_555 1_555
H82 C41 1_555 1_555
C42 C41 1_555 1_555
H83 C42 1_555 1_555
H84 C42 1_555 1_555
C43 O11 1_555 1_555
H85 C43 1_555 1_555
H86 C43 1_555 1_555
O3A Na2 1_555 1_555
C3A O3A 1_555 1_555
Fe1A C3A 1_555 1_555
C1A Fe1A 1_555 1_555
O1A C1A 1_555 1_555
C2A Fe1A 1_555 1_555
O2A C2A 1_555 1_555
C7A Fe1A 1_555 1_555
Fe2A C7A 1_555 1_555
C4A Fe2A 1_555 1_555
O4A C4A 1_555 1_555
C5A Fe2A 1_555 1_555
O5A Na1 1_555 1_555
Na1_2 O5 1_555 1_555
O5_2 Na1 1_555 1_555
O8A Na1 1_555 1_555
C28A O8A 1_555 1_555
H55A C28A 1_555 1_555
H56A C28A 1_555 1_555
C29A C28A 1_555 1_555
H57A C29A 1_555 1_555
H58A C29A 1_555 1_555
C30A C29A 1_555 1_555
H59A C30A 1_555 1_555
H60A C30A 1_555 1_555
C31A O8A 1_555 1_555
H61A C31A 1_555 1_555
H62A C31A 1_555 1_555
O9A Na1 1_555 1_555
C32A O9A 1_555 1_555
H63A C32A 1_555 1_555
H64A C32A 1_555 1_555
C33A C32A 1_555 1_555
H65A C33A 1_555 1_555
H66A C33A 1_555 1_555
C34A C33A 1_555 1_555
H67A C34A 1_555 1_555
H68A C34A 1_555 1_555
C35A O9A 1_555 1_555
H69A C35A 1_555 1_555
H70A C35A 1_555 1_555
C6A Fe2A 1_555 1_555
O6A C6A 1_555 1_555
In1A Fe1A 1_555 1_555
In2A Fe1A 1_555 1_555
Cl1A In1A 1_555 1_555
C8A In1A 1_555 1_555
Si1A C8A 1_555 1_555
C9A Si1A 1_555 1_555
H1A C9A 1_555 1_555
H2A C9A 1_555 1_555
H3A C9A 1_555 1_555
C10A Si1A 1_555 1_555
H4A C10A 1_555 1_555
H5A C10A 1_555 1_555
H6A C10A 1_555 1_555
C11A Si1A 1_555 1_555
H7A C11A 1_555 1_555
H8A C11A 1_555 1_555
H9A C11A 1_555 1_555
Si2A C8A 1_555 1_555
C12A Si2A 1_555 1_555
H10A C12A 1_555 1_555
H11A C12A 1_555 1_555
H12A C12A 1_555 1_555
C13A Si2A 1_555 1_555
H13A C13A 1_555 1_555
H14A C13A 1_555 1_555
H15A C13A 1_555 1_555
C14A Si2A 1_555 1_555
H16A C14A 1_555 1_555
H17A C14A 1_555 1_555
H18A C14A 1_555 1_555
Si3A C8A 1_555 1_555
C15A Si3A 1_555 1_555
H19A C15A 1_555 1_555
H20A C15A 1_555 1_555
H21A C15A 1_555 1_555
C16A Si3A 1_555 1_555
H22A C16A 1_555 1_555
H23A C16A 1_555 1_555
H24A C16A 1_555 1_555
C17A Si3A 1_555 1_555
H25A C17A 1_555 1_555
H26A C17A 1_555 1_555
H27A C17A 1_555 1_555
C18A In2A 1_555 1_555
Si4A C18A 1_555 1_555
C19A Si4A 1_555 1_555
H28A C19A 1_555 1_555
H29A C19A 1_555 1_555
H30A C19A 1_555 1_555
C20A Si4A 1_555 1_555
H31A C20A 1_555 1_555
H32A C20A 1_555 1_555
H33A C20A 1_555 1_555
C21A Si4A 1_555 1_555
H34A C21A 1_555 1_555
H35A C21A 1_555 1_555
H36A C21A 1_555 1_555
Si5A C18A 1_555 1_555
C22A Si5A 1_555 1_555
H37A C22A 1_555 1_555
H38A C22A 1_555 1_555
H39A C22A 1_555 1_555
C23A Si5A 1_555 1_555
H40A C23A 1_555 1_555
H41A C23A 1_555 1_555
H42A C23A 1_555 1_555
C24A Si5A 1_555 1_555
H43A C24A 1_555 1_555
H44A C24A 1_555 1_555
H45A C24A 1_555 1_555
Si6A C18A 1_555 1_555
C25A Si6A 1_555 1_555
H46A C25A 1_555 1_555
H47A C25A 1_555 1_555
H48A C25A 1_555 1_555
C26A Si6A 1_555 1_555
H49A C26A 1_555 1_555
H50A C26A 1_555 1_555
H51A C26A 1_555 1_555
C27A Si6A 1_555 1_555
H52A C27A 1_555 1_555
H53A C27A 1_555 1_555
H54A C27A 1_555 1_555
O7A C7A 1_555 1_555
O10A Na2 1_555 1_555
C36A O10A 1_555 1_555
H71A C36A 1_555 1_555
H72A C36A 1_555 1_555
C37A C36A 1_555 1_555
H73A C37A 1_555 1_555
H74A C37A 1_555 1_555
C38A C37A 1_555 1_555
H75A C38A 1_555 1_555
H76A C38A 1_555 1_555
C39A O10A 1_555 1_555
H77A C39A 1_555 1_555
H78A C39A 1_555 1_555
O11A Na2 1_555 1_555
C40A O11A 1_555 1_555
H79A C40A 1_555 1_555
H80A C40A 1_555 1_555
C41A C40A 1_555 1_555
H81A C41A 1_555 1_555
H82A C41A 1_555 1_555
C42A C41A 1_555 1_555
H83A C42A 1_555 1_555
H84A C42A 1_555 1_555
C43A O11A 1_555 1_555
H85A C43A 1_555 1_555
H86A C43A 1_555 1_555
Fe2 C7 1_555 1_555
Fe2 In1 1_555 1_555
Fe2 In2 1_555 1_555
Cl1 In2 1_555 1_555
C30 C31 1_555 1_555
C34 C35 1_555 1_555
C38 C39 1_555 1_555
C42 C43 1_555 1_555
Fe2A In1A 1_555 1_555
Fe2A In2A 1_555 1_555
C5A O5A 1_555 1_555
C30A C31A 1_555 1_555
C34A C35A 1_555 1_555
In2A Cl1A 1_555 1_555
C38A C39A 1_555 1_555
C42A C43A 1_555 1_555

#END
