
#######################################################################
#
#                 Cambridge Crystallographic Data Centre
#                                CCDC 
#
#######################################################################
#
# If this CIF has been generated from an entry in the Cambridge 
# Structural Database, then it will include bibliographic, chemical, 
# crystal, experimental, refinement or atomic coordinate data resulting 
# from the CCDC's data processing and validation procedures.
#
#######################################################################

data_BARQIW
_symmetry_cell_setting           monoclinic
_symmetry_space_group_name_H-M   'P 21/n'
_symmetry_Int_Tables_number      14
_space_group_name_Hall           '-P 2yn'
loop_
_symmetry_equiv_pos_site_id
_symmetry_equiv_pos_as_xyz
1 x,y,z
2 1/2-x,1/2+y,1/2-z
3 -x,-y,-z
4 1/2+x,1/2-y,1/2+z
_cell_length_a                   9.373(2)
_cell_length_b                   18.151(4)
_cell_length_c                   13.176(3)
_cell_angle_alpha                90
_cell_angle_beta                 90.765(3)
_cell_angle_gamma                90
_cell_volume                     2241.42
loop_
_atom_site_label
_atom_site_type_symbol
_atom_site_fract_x
_atom_site_fract_y
_atom_site_fract_z
Ni1 Ni 0.24862(4) 0.19522(2) 0.43531(3)
S1 S 0.28600(11) 0.04275(5) 0.29020(8)
S2 S 0.16685(18) 0.08222(8) -0.03132(11)
S3 S 0.21829(14) -0.18717(5) -0.12637(8)
S4 S 0.35041(17) 0.04459(7) -0.10186(10)
O1 O 0.2033(3) 0.10249(15) 0.3360(2)
O2 O 0.2734(3) -0.02562(17) 0.3446(2)
O3 O 0.4323(3) 0.06466(19) 0.2714(2)
O4 O 0.2282(2) -0.20080(13) -0.0175(2)
O5 O 0.0817(5) -0.2120(2) -0.1678(3)
O6 O 0.3405(5) -0.2142(2) -0.1781(2)
N1 N 0.3917(3) 0.14398(17) 0.5343(2)
N2 N 0.0734(3) 0.16673(17) 0.5206(2)
N3 N 0.1027(3) 0.24912(16) 0.3433(2)
N4 N 0.4269(3) 0.22370(16) 0.3551(2)
C1 C 0.3473(4) 0.0712(2) 0.5753(3)
C2 C 0.2045(5) 0.0753(2) 0.6274(3)
C3 C 0.0747(4) 0.0902(2) 0.5582(3)
C4 C -0.0541(4) 0.1850(2) 0.4595(3)
C5 C -0.0273(3) 0.2578(2) 0.4042(3)
C6 C 0.1496(4) 0.3179(2) 0.2957(3)
C7 C 0.2901(4) 0.3074(2) 0.2398(3)
C8 C 0.4209(4) 0.2976(2) 0.3079(3)
C9 C 0.5498(3) 0.2138(2) 0.4245(3)
C10 C 0.5310(4) 0.1421(2) 0.4828(3)
C11 C 0.2103(5) 0.0279(2) 0.1671(3)
C12 C 0.2167(6) 0.0976(2) 0.1014(3)
C13 C 0.2182(6) -0.0899(2) -0.1392(3)
C14 C 0.3461(4) -0.0551(2) -0.0885(3)
H1 H 0.4028 0.1752 0.5898
H2 H 0.0733 0.1974 0.5772
H3 H 0.0795 0.2169 0.2908
H4 H 0.4361 0.1896 0.3029
H5 H 0.4206 0.0536 0.6244
H6 H 0.3413 0.0351 0.5191
H7 H 0.2096 0.1147 0.6793
H8 H 0.1887 0.0282 0.6634
H9 H 0.0764 0.0560 0.4997
H10 H -0.0138 0.0807 0.5963
H11 H -0.1379 0.1899 0.5040
H12 H -0.0737 0.1454 0.4097
H13 H -0.1098 0.2699 0.3595
H14 H -0.0144 0.2982 0.4539
H15 H 0.1621 0.3563 0.3484
H16 H 0.0753 0.3350 0.2471
H17 H 0.2811 0.2636 0.1954
H18 H 0.3055 0.3507 0.1956
H19 H 0.5078 0.3054 0.2674
H20 H 0.4198 0.3355 0.3620
H21 H 0.5560 0.2556 0.4725
H22 H 0.6392 0.2120 0.3854
H23 H 0.5342 0.0997 0.4355
H24 H 0.6090 0.1363 0.5335
H25 H 0.2625 -0.0123 0.1331
H26 H 0.1096 0.0124 0.1738
H27 H 0.3150 0.1176 0.1046
H28 H 0.1522 0.1351 0.1302
H29 H 0.2172 -0.0770 -0.2122
H30 H 0.1303 -0.0698 -0.1089
H31 H 0.4337 -0.0760 -0.1181
H32 H 0.3461 -0.0677 -0.0154
Ni1A Ni 0.25138(4) -0.30478(2) 0.06469(3)
O4A O 0.2718(2) 0.29920(13) 0.5175(2)
loop_
_geom_bond_atom_site_label_1
_geom_bond_atom_site_label_2
_geom_bond_site_symmetry_1
_geom_bond_site_symmetry_2
Ni1 O1 1_555 1_555
S1 O1 1_555 1_555
S2 S4 1_555 1_555
S3 O4 1_555 1_555
S4 C14 1_555 1_555
O2 S1 1_555 1_555
O3 S1 1_555 1_555
O4 Ni1A 1_555 1_555
O5 S3 1_555 1_555
O6 S3 1_555 1_555
N1 Ni1 1_555 1_555
N2 Ni1 1_555 1_555
N3 Ni1 1_555 1_555
N4 Ni1 1_555 1_555
C1 N1 1_555 1_555
C2 C1 1_555 1_555
C3 N2 1_555 1_555
C4 N2 1_555 1_555
C5 N3 1_555 1_555
C6 N3 1_555 1_555
C7 C6 1_555 1_555
C8 N4 1_555 1_555
C9 N4 1_555 1_555
C10 N1 1_555 1_555
C11 S1 1_555 1_555
C12 S2 1_555 1_555
C13 S3 1_555 1_555
C14 C13 1_555 1_555
H1 N1 1_555 1_555
H2 N2 1_555 1_555
H3 N3 1_555 1_555
H4 N4 1_555 1_555
H5 C1 1_555 1_555
H6 C1 1_555 1_555
H7 C2 1_555 1_555
H8 C2 1_555 1_555
H9 C3 1_555 1_555
H10 C3 1_555 1_555
H11 C4 1_555 1_555
H12 C4 1_555 1_555
H13 C5 1_555 1_555
H14 C5 1_555 1_555
H15 C6 1_555 1_555
H16 C6 1_555 1_555
H17 C7 1_555 1_555
H18 C7 1_555 1_555
H19 C8 1_555 1_555
H20 C8 1_555 1_555
H21 C9 1_555 1_555
H22 C9 1_555 1_555
H23 C10 1_555 1_555
H24 C10 1_555 1_555
H25 C11 1_555 1_555
H26 C11 1_555 1_555
H27 C12 1_555 1_555
H28 C12 1_555 1_555
H29 C13 1_555 1_555
H30 C13 1_555 1_555
H31 C14 1_555 1_555
H32 C14 1_555 1_555
O4A Ni1 1_555 1_555
C2 C3 1_555 1_555
C4 C5 1_555 1_555
C7 C8 1_555 1_555
C9 C10 1_555 1_555
C11 C12 1_555 1_555

#END
