
#######################################################################
#
#                 Cambridge Crystallographic Data Centre
#                                CCDC 
#
#######################################################################
#
# If this CIF has been generated from an entry in the Cambridge 
# Structural Database, then it will include bibliographic, chemical, 
# crystal, experimental, refinement or atomic coordinate data resulting 
# from the CCDC's data processing and validation procedures.
#
#######################################################################

data_BARQAN
_symmetry_cell_setting           triclinic
_symmetry_space_group_name_H-M   'P -1'
_symmetry_Int_Tables_number      2
_space_group_name_Hall           '-P 1'
loop_
_symmetry_equiv_pos_site_id
_symmetry_equiv_pos_as_xyz
1 x,y,z
2 -x,-y,-z
_cell_length_a                   4.9659(3)
_cell_length_b                   5.4916(3)
_cell_length_c                   11.1730(6)
_cell_angle_alpha                87.841(3)
_cell_angle_beta                 93.827(4)
_cell_angle_gamma                90.652(3)
_cell_volume                     303.789
loop_
_atom_site_label
_atom_site_type_symbol
_atom_site_fract_x
_atom_site_fract_y
_atom_site_fract_z
Sn1 Sn 0.7092(7) -0.7953(5) 0.3671(3)
P1 P 0.172(1) -0.398(1) 0.3425(6)
O1 O 0.263(4) -0.228(2) 0.4372(9)
O2 O -0.129(2) -0.439(2) 0.349(2)
O3 O 0.321(2) -0.639(2) 0.355(2)
C1 C 0.250(5) -0.247(3) 0.2008(7)
C2 C 0.123(4) -0.388(4) 0.099(2)
C3 C -0.116(4) -0.296(4) 0.043(2)
C4 C -0.248(4) -0.415(4) -0.053(2)
O1A O 0.737(4) -0.772(2) 0.5628(9)
O2_2 O 0.871(2) -0.439(2) 0.349(2)
C2A C -0.123(4) -0.612(4) -0.099(2)
C1A C -0.250(5) -0.753(3) -0.2008(7)
P1A P -0.172(1) -0.602(1) -0.3425(6)
O1A_2 O -0.263(4) -0.772(2) -0.4372(9)
O2A O 0.129(2) -0.561(2) -0.349(2)
O3A O -0.321(2) -0.361(2) -0.355(2)
Sn1A Sn -0.7092(7) -0.2047(5) -0.3671(3)
O1_2 O -0.737(4) -0.228(2) -0.5628(9)
O2A_2 O -0.871(2) -0.561(2) -0.349(2)
C3A C 0.116(4) -0.704(4) -0.043(2)
C4A C 0.248(4) -0.585(4) 0.053(2)
Sn1A_2 Sn 0.2908(7) -0.2047(5) 0.6329(3)
Sn1_2 Sn -0.2908(7) -0.7953(5) 0.3671(3)
Sn1_3 Sn -0.2908(7) -0.7953(5) -0.6329(3)
Sn1A_3 Sn 0.2908(7) -0.2047(5) -0.3671(3)
loop_
_geom_bond_atom_site_label_1
_geom_bond_atom_site_label_2
_geom_bond_site_symmetry_1
_geom_bond_site_symmetry_2
Sn1 O3 1_555 1_555
P1 O1 1_555 1_555
O1 Sn1A_2 1_555 1_555
O2 P1 1_555 1_555
O3 P1 1_555 1_555
C1 P1 1_555 1_555
C2 C1 1_555 1_555
C3 C2 1_555 1_555
C4 C3 1_555 1_555
O1A Sn1 1_555 1_555
O2_2 Sn1 1_555 1_555
C2A C4 1_555 1_555
C1A C2A 1_555 1_555
P1A C1A 1_555 1_555
O1A_2 P1A 1_555 1_555
O2A P1A 1_555 1_555
O3A P1A 1_555 1_555
Sn1A O3A 1_555 1_555
O1_2 Sn1A 1_555 1_555
O2A_2 Sn1A 1_555 1_555
C3A C2A 1_555 1_555
C4A C2 1_555 1_555
Sn1_2 O2 1_555 1_555
Sn1_3 O1A_2 1_555 1_555
Sn1A_3 O2A 1_555 1_555
C3A C4A 1_555 1_555

#END
