
#######################################################################
#
#                 Cambridge Crystallographic Data Centre
#                                CCDC 
#
#######################################################################
#
# If this CIF has been generated from an entry in the Cambridge 
# Structural Database, then it will include bibliographic, chemical, 
# crystal, experimental, refinement or atomic coordinate data resulting 
# from the CCDC's data processing and validation procedures.
#
#######################################################################

data_BARVUN
_symmetry_cell_setting           monoclinic
_symmetry_space_group_name_H-M   'P 21/c'
_symmetry_Int_Tables_number      14
_space_group_name_Hall           '-P 2ybc'
loop_
_symmetry_equiv_pos_site_id
_symmetry_equiv_pos_as_xyz
1 x,y,z
2 -x,1/2+y,1/2-z
3 -x,-y,-z
4 x,1/2-y,1/2+z
_cell_length_a                   10.7731(3)
_cell_length_b                   13.7589(4)
_cell_length_c                   27.5931(9)
_cell_angle_alpha                90
_cell_angle_beta                 101.672(2)
_cell_angle_gamma                90
_cell_volume                     4005.44
loop_
_atom_site_label
_atom_site_type_symbol
_atom_site_fract_x
_atom_site_fract_y
_atom_site_fract_z
Fe1 Fe 0.40748(6) -0.43848(5) -0.19651(3)
Mn1 Mn 0.90609(6) -0.45811(5) -0.20203(3)
O1 O 0.8839(3) -0.4330(2) -0.27057(13)
O2 O 0.8931(3) -0.3252(2) -0.18632(13)
O3 O 0.5438(4) -0.3873(3) -0.05218(15)
N1 N 0.4379(4) -0.3022(3) -0.17614(16)
N2 N 0.4579(4) -0.4614(3) -0.12755(16)
N3 N 0.3895(3) -0.5805(3) -0.19895(16)
N4 N 0.3410(4) -0.4076(4) -0.31075(19)
N5 N 0.6826(4) -0.4645(3) -0.21357(16)
N6 N 0.9063(4) -0.5025(3) -0.13307(15)
N7 N 0.9280(3) -0.6010(3) -0.21017(15)
N8 N 0.1198(4) -0.4295(3) -0.19505(17)
C1 C 0.4199(5) -0.2224(4) -0.2041(2)
H1 H 0.3864 -0.2285 -0.2378
C2 C 0.4499(5) -0.1297(4) -0.1842(2)
H2 H 0.4371 -0.0751 -0.2045
C3 C 0.4985(6) -0.1207(4) -0.1345(3)
H3 H 0.5189 -0.0596 -0.1208
C4 C 0.5173(5) -0.2031(4) -0.1046(2)
H4 H 0.5506 -0.1985 -0.0708
C5 C 0.4845(5) -0.2925(4) -0.1270(2)
C6 C 0.4985(5) -0.3844(4) -0.0978(2)
C7 C 0.4598(5) -0.5580(4) -0.1123(2)
C8 C 0.4873(5) -0.5949(4) -0.0662(2)
H5 H 0.5123 -0.5541 -0.0391
C9 C 0.4776(6) -0.7006(5) -0.0592(3)
H6 H 0.4925 -0.7261 -0.0274
C10 C 0.4461(6) -0.7630(5) -0.0999(3)
H7 H 0.4428 -0.8297 -0.0950
C11 C 0.4196(5) -0.7247(4) -0.1476(2)
C12 C 0.4231(4) -0.6233(3) -0.15349(19)
C13 C 0.3786(5) -0.7816(4) -0.1897(2)
H8 H 0.3763 -0.8490 -0.1872
C14 C 0.3424(5) -0.7377(4) -0.2343(2)
H9 H 0.3131 -0.7751 -0.2623
C15 C 0.3489(4) -0.6371(4) -0.2383(2)
H10 H 0.3241 -0.6085 -0.2692
C16 C 0.3631(5) -0.4175(4) -0.2681(2)
C17 C 0.2254(5) -0.4276(3) -0.19619(19)
C18 C 0.5816(5) -0.4520(3) -0.20753(18)
C19 C 0.8598(4) -0.4961(4) -0.30748(18)
C20 C 0.8207(5) -0.4634(4) -0.3564(2)
H11 H 0.8104 -0.3970 -0.3624
C21 C 0.7974(5) -0.5271(4) -0.3957(2)
H12 H 0.7721 -0.5023 -0.4275
C22 C 0.8103(5) -0.6280(4) -0.3895(2)
C23 C 0.7888(6) -0.6971(4) -0.4321(2)
H13 H 0.7699 -0.7604 -0.4209
H14 H 0.8638 -0.7006 -0.4459
H15 H 0.7190 -0.6748 -0.4570
C24 C 0.8486(5) -0.6613(4) -0.3414(2)
H16 H 0.8580 -0.7279 -0.3361
C25 C 0.8736(4) -0.5994(4) -0.30034(19)
C26 C 0.9117(4) -0.6443(4) -0.2527(2)
H17 H 0.9261 -0.7109 -0.2523
C27 C 0.9718(4) -0.6575(4) -0.16308(18)
C28 C 1.1155(4) -0.6436(4) -0.1475(2)
H18 H 1.1336 -0.5769 -0.1384
H19 H 1.1551 -0.6604 -0.1745
H20 H 1.1479 -0.6847 -0.1197
C29 C 0.9434(5) -0.7666(4) -0.1704(2)
H21 H 0.9977 -0.7941 -0.1904
H22 H 0.8565 -0.7753 -0.1866
H23 H 0.9583 -0.7984 -0.1388
C30 C 0.9003(5) -0.6117(3) -0.12487(19)
C31 C 0.7608(4) -0.6414(4) -0.1353(2)
H24 H 0.7243 -0.6302 -0.1695
H25 H 0.7164 -0.6036 -0.1150
H26 H 0.7541 -0.7091 -0.1278
C32 C 0.9614(5) -0.6393(4) -0.0717(2)
H27 H 0.9070 -0.6198 -0.0498
H28 H 1.0417 -0.6071 -0.0623
H29 H 0.9739 -0.7084 -0.0695
C33 C 0.8890(4) -0.4446(4) -0.0978(2)
H30 H 0.8834 -0.4733 -0.0678
C34 C 0.8774(5) -0.3401(4) -0.10056(19)
C35 C 0.8800(4) -0.2863(4) -0.1439(2)
C36 C 0.8657(5) -0.1840(4) -0.1419(2)
H31 H 0.8660 -0.1468 -0.1700
C37 C 0.8514(5) -0.1392(4) -0.0985(2)
H32 H 0.8425 -0.0720 -0.0981
C38 C 0.8499(5) -0.1924(4) -0.0548(2)
C39 C 0.8342(7) -0.1409(5) -0.0079(2)
H33 H 0.9111 -0.1072 0.0061
H34 H 0.8158 -0.1878 0.0154
H35 H 0.7658 -0.0952 -0.0156
C40 C 0.8629(5) -0.2910(4) -0.0570(2)
H36 H 0.8621 -0.3273 -0.0287
Mn1_2 Mn -0.09391(6) -0.45811(5) -0.20203(3)
N8_2 N 1.1198(4) -0.4295(3) -0.19505(17)
O4 O 0.3187(5) -0.4299(3) -0.41361(18)
H37 H 0.3791 -0.3903 -0.4068
C41 C 0.2100(8) -0.3816(5) -0.4396(3)
H38 H 0.2325 -0.3171 -0.4480
H39 H 0.1478 -0.3780 -0.4192
H40 H 0.1758 -0.4168 -0.4693
O5 O 0.2262(4) -0.5174(4) 0.00015(18)
H41 H 0.2977 -0.5322 0.0148
C42 C 0.2337(6) -0.4424(5) -0.0320(3)
H42 H 0.1500 -0.4253 -0.0493
H43 H 0.2836 -0.4624 -0.0554
H44 H 0.2727 -0.3872 -0.0138
O7 O 0.5000 0.0000 0.0000
O6? O 0.4787(19) -0.0654(10) 0.0156(7)
loop_
_geom_bond_atom_site_label_1
_geom_bond_atom_site_label_2
_geom_bond_site_symmetry_1
_geom_bond_site_symmetry_2
Fe1 N1 1_555 1_555
Mn1 O1 1_555 1_555
O1 C19 1_555 1_555
O2 Mn1 1_555 1_555
O3 C6 1_555 1_555
N1 C1 1_555 1_555
N2 Fe1 1_555 1_555
N3 Fe1 1_555 1_555
N4 C16 1_555 1_555
N5 Mn1 1_555 1_555
N6 Mn1 1_555 1_555
N7 Mn1 1_555 1_555
N8 C17 1_555 1_555
C1 H1 1_555 1_555
C2 C1 1_555 1_555
H2 C2 1_555 1_555
C3 C2 1_555 1_555
H3 C3 1_555 1_555
C4 C3 1_555 1_555
H4 C4 1_555 1_555
C5 N1 1_555 1_555
C6 N2 1_555 1_555
C7 N2 1_555 1_555
C8 C7 1_555 1_555
H5 C8 1_555 1_555
C9 C8 1_555 1_555
H6 C9 1_555 1_555
C10 C9 1_555 1_555
H7 C10 1_555 1_555
C11 C10 1_555 1_555
C12 N3 1_555 1_555
C13 C11 1_555 1_555
H8 C13 1_555 1_555
C14 C13 1_555 1_555
H9 C14 1_555 1_555
C15 N3 1_555 1_555
H10 C15 1_555 1_555
C16 Fe1 1_555 1_555
C17 Fe1 1_555 1_555
C18 Fe1 1_555 1_555
C19 C20 1_555 1_555
C20 H11 1_555 1_555
C21 C20 1_555 1_555
H12 C21 1_555 1_555
C22 C21 1_555 1_555
C23 C22 1_555 1_555
H13 C23 1_555 1_555
H14 C23 1_555 1_555
H15 C23 1_555 1_555
C24 C22 1_555 1_555
H16 C24 1_555 1_555
C25 C19 1_555 1_555
C26 N7 1_555 1_555
H17 C26 1_555 1_555
C27 N7 1_555 1_555
C28 C27 1_555 1_555
H18 C28 1_555 1_555
H19 C28 1_555 1_555
H20 C28 1_555 1_555
C29 C27 1_555 1_555
H21 C29 1_555 1_555
H22 C29 1_555 1_555
H23 C29 1_555 1_555
C30 N6 1_555 1_555
C31 C30 1_555 1_555
H24 C31 1_555 1_555
H25 C31 1_555 1_555
H26 C31 1_555 1_555
C32 C30 1_555 1_555
H27 C32 1_555 1_555
H28 C32 1_555 1_555
H29 C32 1_555 1_555
C33 N6 1_555 1_555
H30 C33 1_555 1_555
C34 C33 1_555 1_555
C35 O2 1_555 1_555
C36 C35 1_555 1_555
H31 C36 1_555 1_555
C37 C36 1_555 1_555
H32 C37 1_555 1_555
C38 C37 1_555 1_555
C39 C38 1_555 1_555
H33 C39 1_555 1_555
H34 C39 1_555 1_555
H35 C39 1_555 1_555
C40 C34 1_555 1_555
H36 C40 1_555 1_555
O4 H37 1_555 1_555
C41 O4 1_555 1_555
H38 C41 1_555 1_555
H39 C41 1_555 1_555
H40 C41 1_555 1_555
O5 H41 1_555 1_555
C42 O5 1_555 1_555
H42 C42 1_555 1_555
H43 C42 1_555 1_555
H44 C42 1_555 1_555
Mn1_2 N8 1_555 1_555
N8_2 Mn1 1_555 1_555
N5 C18 1_555 1_555
C4 C5 1_555 1_555
C5 C6 1_555 1_555
C7 C12 1_555 1_555
C11 C12 1_555 1_555
C14 C15 1_555 1_555
C24 C25 1_555 1_555
C25 C26 1_555 1_555
C27 C30 1_555 1_555
C34 C35 1_555 1_555
C38 C40 1_555 1_555

#END
