
#######################################################################
#
#                 Cambridge Crystallographic Data Centre
#                                CCDC 
#
#######################################################################
#
# If this CIF has been generated from an entry in the Cambridge 
# Structural Database, then it will include bibliographic, chemical, 
# crystal, experimental, refinement or atomic coordinate data resulting 
# from the CCDC's data processing and validation procedures.
#
#######################################################################

data_BARVOH
_symmetry_cell_setting           monoclinic
_symmetry_space_group_name_H-M   'P 21/c'
_symmetry_Int_Tables_number      14
_space_group_name_Hall           '-P 2ybc'
loop_
_symmetry_equiv_pos_site_id
_symmetry_equiv_pos_as_xyz
1 x,y,z
2 -x,1/2+y,1/2-z
3 -x,-y,-z
4 x,1/2-y,1/2+z
_cell_length_a                   10.795(5)
_cell_length_b                   13.480(5)
_cell_length_c                   29.908(5)
_cell_angle_alpha                90
_cell_angle_beta                 96.240(5)
_cell_angle_gamma                90
_cell_volume                     4326.33
loop_
_atom_site_label
_atom_site_type_symbol
_atom_site_fract_x
_atom_site_fract_y
_atom_site_fract_z
Mn1 Mn -0.63492(6) 0.26390(4) 0.20361(2)
Fe1 Fe -0.13683(6) 0.23936(4) 0.202390(19)
O1 O -0.1262(3) 0.3969(2) 0.08943(10)
O2 O -0.1140(4) 0.1880(2) 0.07161(10)
O3 O -0.6624(3) 0.1303(2) 0.18640(9)
O4 O -0.6072(3) 0.23349(19) 0.26546(9)
N1 N -0.1543(3) 0.3837(2) 0.20595(11)
N2 N -0.1360(3) 0.2656(2) 0.14010(11)
N3 N -0.1205(3) 0.1011(2) 0.18291(12)
N4 N -0.1108(4) 0.2099(3) 0.30598(13)
N5 N 0.1508(4) 0.2698(2) 0.21425(12)
N6 N -0.6847(3) 0.3134(2) 0.14137(11)
N7 N -0.6025(3) 0.4089(2) 0.21374(12)
N8 N -0.4260(4) 0.2324(2) 0.19879(12)
C1 C -0.1717(4) 0.4380(3) 0.24225(14)
H1 H -0.1810 0.4058 0.2692
C2 C -0.1763(4) 0.5405(3) 0.24089(15)
H2 H -0.1881 0.5767 0.2666
C3 C -0.1631(4) 0.5885(3) 0.20060(15)
H3 H -0.1630 0.6574 0.1991
C4 C -0.1501(4) 0.5321(3) 0.16254(15)
H4 H -0.1442 0.5625 0.1349
C5 C -0.1460(4) 0.4302(3) 0.16642(14)
C6 C -0.1354(4) 0.3640(3) 0.12679(14)
C7 C -0.1189(4) 0.1864(3) 0.11176(15)
C8 C -0.1085(4) 0.0916(3) 0.13849(14)
C9 C -0.0891(5) 0.0013(3) 0.11906(16)
H5 H -0.0810 -0.0031 0.0885
C10 C -0.0819(5) -0.0828(3) 0.14546(16)
H6 H -0.0673 -0.1444 0.1330
C11 C -0.0967(4) -0.0745(3) 0.19014(16)
H7 H -0.0946 -0.1307 0.2082
C12 C -0.1148(4) 0.0185(3) 0.20830(15)
H8 H -0.1233 0.0239 0.2388
C13 C -0.1238(4) 0.2175(3) 0.26724(15)
C14 C -0.3194(4) 0.2285(3) 0.20075(14)
C15 C 0.0439(4) 0.2553(3) 0.21077(13)
C16 C -0.7067(4) 0.0926(3) 0.14703(15)
C17 C -0.7234(4) -0.0102(3) 0.14305(15)
H9 H -0.7054 -0.0501 0.1683
C18 C -0.7657(5) -0.0533(3) 0.10278(16)
H10 H -0.7757 -0.1218 0.1014
C19 C -0.7940(5) 0.0027(4) 0.06392(17)
C20 C -0.8363(7) -0.0448(4) 0.01900(18)
H11 H -0.8779 0.0038 -0.0008
H12 H -0.8927 -0.0982 0.0233
H13 H -0.7653 -0.0701 0.0060
C21 C -0.7801(5) 0.1042(4) 0.06739(16)
H14 H -0.7999 0.1431 0.0419
C22 C -0.7368(4) 0.1510(3) 0.10821(14)
C23 C -0.7254(4) 0.2568(3) 0.10825(15)
H15 H -0.7504 0.2884 0.0811
C24 C -0.6949(4) 0.4258(3) 0.13597(14)
C25 C -0.8251(4) 0.4553(3) 0.14566(16)
H16 H -0.8856 0.4194 0.1260
H17 H -0.8365 0.5252 0.1407
H18 H -0.8355 0.4400 0.1764
C26 C -0.6745(5) 0.4593(3) 0.08887(15)
H19 H -0.6039 0.4252 0.0793
H20 H -0.6593 0.5295 0.0890
H21 H -0.7472 0.4446 0.0686
C27 C -0.5944(4) 0.4699(3) 0.17161(14)
C28 C -0.4635(4) 0.4553(3) 0.15789(15)
H22 H -0.4030 0.4707 0.1829
H23 H -0.4517 0.4984 0.1332
H24 H -0.4534 0.3876 0.1490
C29 C -0.6163(5) 0.5806(3) 0.17968(16)
H25 H -0.6924 0.5889 0.1932
H26 H -0.6223 0.6153 0.1515
H27 H -0.5481 0.6068 0.1994
C30 C -0.5841(4) 0.4492(3) 0.25308(15)
H28 H -0.5668 0.5168 0.2540
C31 C -0.5876(4) 0.4003(3) 0.29560(14)
C32 C -0.5780(4) 0.4605(3) 0.33450(15)
H29 H -0.5668 0.5284 0.3313
C33 C -0.5844(4) 0.4230(3) 0.37678(15)
C34 C -0.5709(6) 0.4883(4) 0.41828(17)
H30 H -0.4890 0.4802 0.4339
H31 H -0.6320 0.4696 0.4377
H32 H -0.5830 0.5564 0.4095
C35 C -0.6007(4) 0.3199(3) 0.38038(15)
H33 H -0.6065 0.2926 0.4086
C36 C -0.6085(4) 0.2578(3) 0.34359(15)
H34 H -0.6180 0.1900 0.3476
C39 C -0.6022(4) 0.2958(3) 0.30001(14)
Mn1_2 Mn 0.36508(6) 0.26390(4) 0.20361(2)
N5_2 N -0.8492(4) 0.2698(2) 0.21425(12)
Cl1 Cl -0.4318(2) 0.25173(14) 0.05427(9)
Cl2 Cl -0.36343(15) 0.43879(10) 0.01934(5)
Cl3 Cl -0.3656(2) 0.26932(14) -0.03773(6)
C38 C -0.3390(5) 0.3110(4) 0.01828(17)
H36 H -0.2516 0.2981 0.0292
Cl4 Cl -0.22963(15) 0.68273(11) 0.03245(5)
Cl5 Cl 0.01418(15) 0.67879(9) 0.08430(4)
Cl6 Cl -0.01044(14) 0.63764(11) -0.01132(4)
C37 C -0.0804(5) 0.6271(4) 0.03887(16)
H35 H -0.0909 0.5564 0.0451
loop_
_geom_bond_atom_site_label_1
_geom_bond_atom_site_label_2
_geom_bond_site_symmetry_1
_geom_bond_site_symmetry_2
Mn1 O3 1_555 1_555
Fe1 N1 1_555 1_555
Cl1 C38 1_555 1_555
Cl2 C38 1_555 1_555
Cl3 C38 1_555 1_555
Cl4 C37 1_555 1_555
Cl5 C37 1_555 1_555
Cl6 C37 1_555 1_555
O1 C6 1_555 1_555
O2 C7 1_555 1_555
O3 C16 1_555 1_555
O4 Mn1 1_555 1_555
N1 C1 1_555 1_555
N2 Fe1 1_555 1_555
N3 Fe1 1_555 1_555
N4 C13 1_555 1_555
N5 C15 1_555 1_555
N6 Mn1 1_555 1_555
N7 Mn1 1_555 1_555
N8 Mn1 1_555 1_555
C1 H1 1_555 1_555
C2 C1 1_555 1_555
H2 C2 1_555 1_555
C3 C2 1_555 1_555
H3 C3 1_555 1_555
C4 C3 1_555 1_555
H4 C4 1_555 1_555
C5 N1 1_555 1_555
C6 N2 1_555 1_555
C7 N2 1_555 1_555
C8 N3 1_555 1_555
C9 C8 1_555 1_555
H5 C9 1_555 1_555
C10 C9 1_555 1_555
H6 C10 1_555 1_555
C11 C10 1_555 1_555
H7 C11 1_555 1_555
C12 N3 1_555 1_555
H8 C12 1_555 1_555
C13 Fe1 1_555 1_555
C14 Fe1 1_555 1_555
C15 Fe1 1_555 1_555
C16 C17 1_555 1_555
C17 H9 1_555 1_555
C18 C17 1_555 1_555
H10 C18 1_555 1_555
C19 C18 1_555 1_555
C20 C19 1_555 1_555
H11 C20 1_555 1_555
H12 C20 1_555 1_555
H13 C20 1_555 1_555
C21 C19 1_555 1_555
H14 C21 1_555 1_555
C22 C16 1_555 1_555
C23 N6 1_555 1_555
H15 C23 1_555 1_555
C24 N6 1_555 1_555
C25 C24 1_555 1_555
H16 C25 1_555 1_555
H17 C25 1_555 1_555
H18 C25 1_555 1_555
C26 C24 1_555 1_555
H19 C26 1_555 1_555
H20 C26 1_555 1_555
H21 C26 1_555 1_555
C27 N7 1_555 1_555
C28 C27 1_555 1_555
H22 C28 1_555 1_555
H23 C28 1_555 1_555
H24 C28 1_555 1_555
C29 C27 1_555 1_555
H25 C29 1_555 1_555
H26 C29 1_555 1_555
H27 C29 1_555 1_555
C30 N7 1_555 1_555
H28 C30 1_555 1_555
C31 C30 1_555 1_555
C32 C31 1_555 1_555
H29 C32 1_555 1_555
C33 C32 1_555 1_555
C34 C33 1_555 1_555
H30 C34 1_555 1_555
H31 C34 1_555 1_555
H32 C34 1_555 1_555
C35 C33 1_555 1_555
H33 C35 1_555 1_555
C36 C35 1_555 1_555
H34 C36 1_555 1_555
C37 H35 1_555 1_555
C38 H36 1_555 1_555
C39 O4 1_555 1_555
Mn1_2 N5 1_555 1_555
N5_2 Mn1 1_555 1_555
N8 C14 1_555 1_555
C4 C5 1_555 1_555
C5 C6 1_555 1_555
C7 C8 1_555 1_555
C11 C12 1_555 1_555
C21 C22 1_555 1_555
C22 C23 1_555 1_555
C24 C27 1_555 1_555
C31 C39 1_555 1_555
C36 C39 1_555 1_555

#END
