
#######################################################################
#
#                 Cambridge Crystallographic Data Centre
#                                CCDC 
#
#######################################################################
#
# If this CIF has been generated from an entry in the Cambridge 
# Structural Database, then it will include bibliographic, chemical, 
# crystal, experimental, refinement or atomic coordinate data resulting 
# from the CCDC's data processing and validation procedures.
#
#######################################################################

data_BARWAU
_symmetry_cell_setting           triclinic
_symmetry_space_group_name_H-M   'P -1'
_symmetry_Int_Tables_number      2
_space_group_name_Hall           '-P 1'
loop_
_symmetry_equiv_pos_site_id
_symmetry_equiv_pos_as_xyz
1 x,y,z
2 -x,-y,-z
_cell_length_a                   17.205(3)
_cell_length_b                   17.308(4)
_cell_length_c                   25.966(5)
_cell_angle_alpha                91.54(3)
_cell_angle_beta                 91.50(3)
_cell_angle_gamma                105.14(3)
_cell_volume                     7456.77
loop_
_atom_site_label
_atom_site_type_symbol
_atom_site_fract_x
_atom_site_fract_y
_atom_site_fract_z
Fe1 Fe 1.38423(6) 0.48866(6) 0.11150(4)
Fe2 Fe 0.87390(6) -0.00107(6) 0.11184(4)
Mn1 Mn 1.13866(6) 0.23294(6) 0.12151(4)
Mn2 Mn 1.63483(6) 0.74084(6) 0.11916(4)
O1 O 1.2593(4) 0.6487(4) 0.1377(3)
O2 O 1.4682(3) 0.3737(4) 0.2232(2)
O3 O 1.0684(3) 0.2686(3) 0.07621(17)
O4 O 1.1967(3) 0.2039(3) 0.06695(17)
O5 O 0.7642(4) 0.1751(4) 0.1326(3)
O6 O 0.9240(4) -0.1340(4) 0.2256(2)
O7 O 1.5634(3) 0.7797(3) 0.07639(18)
O8 O 1.6937(3) 0.7156(3) 0.06388(18)
N1 N 1.2215(4) 0.3589(4) 0.1190(2)
N2 N 1.0497(4) 0.1070(4) 0.1120(2)
N3 N 1.7137(4) 0.8679(4) 0.1170(2)
N4 N 1.5492(4) 0.6152(4) 0.1037(2)
N5 N 1.4293(3) 0.3985(3) 0.0901(2)
N6 N 1.4148(4) 0.4625(3) 0.1784(2)
N7 N 1.3429(4) 0.5645(4) 0.1472(2)
N8 N 1.3485(4) 0.5391(3) 0.0498(2)
N9 N 1.0868(3) 0.2599(3) 0.1847(2)
N10 N 1.2020(3) 0.1927(4) 0.1750(2)
N11 N 0.9142(3) -0.0951(3) 0.0926(2)
N12 N 0.8908(4) -0.0322(4) 0.1796(2)
N13 N 0.8323(4) 0.0773(4) 0.1458(2)
N14 N 0.8493(4) 0.0537(4) 0.0492(2)
N15 N 1.5827(3) 0.7645(3) 0.1833(2)
N16 N 1.6944(3) 0.6916(3) 0.1706(2)
C1 C 1.4286(4) 0.3626(4) 0.0438(3)
H5 H 1.4053 0.3819 0.0159
C2 C 1.4608(5) 0.2979(5) 0.0355(3)
H6 H 1.4581 0.2737 0.0028
C3 C 1.4970(5) 0.2701(5) 0.0767(3)
H7 H 1.5214 0.2286 0.0717
C4 C 1.4968(5) 0.3043(5) 0.1251(3)
H8 H 1.5203 0.2858 0.1532
C5 C 1.4607(4) 0.3675(4) 0.1313(3)
C6 C 1.4490(4) 0.4013(4) 0.1830(3)
C7 C 1.3925(5) 0.5065(4) 0.2184(3)
C8 C 1.4091(6) 0.5005(5) 0.2714(3)
H9 H 1.4363 0.4639 0.2828
C9 C 1.3841(6) 0.5501(6) 0.3061(3)
H10 H 1.3961 0.5477 0.3410
C10 C 1.3419(6) 0.6025(5) 0.2901(3)
H11 H 1.3237 0.6331 0.3147
C11 C 1.3252(5) 0.6118(5) 0.2374(3)
H12 H 1.2984 0.6491 0.2268
C12 C 1.3512(5) 0.5619(5) 0.2016(3)
C13 C 1.3010(5) 0.6058(5) 0.1213(3)
C14 C 1.3091(5) 0.5939(4) 0.0637(3)
C15 C 1.2834(5) 0.6408(5) 0.0283(4)
H13 H 1.2569 0.6786 0.0389
C16 C 1.2978(5) 0.6305(5) -0.0238(3)
H14 H 1.2810 0.6613 -0.0484
C17 C 1.3371(5) 0.5745(5) -0.0379(3)
H15 H 1.3476 0.5666 -0.0724
C18 C 1.3609(5) 0.5298(5) -0.0002(3)
H16 H 1.3868 0.4913 -0.0102
C19 C 1.2802(4) 0.4084(4) 0.1133(3)
C20 C 1.4890(5) 0.5645(4) 0.1040(3)
C21 C 1.2446(4) 0.1554(4) 0.0676(3)
C22 C 1.2782(4) 0.1393(4) 0.0217(3)
H17 H 1.2663 0.1629 -0.0082
C23 C 1.3291(5) 0.0890(4) 0.0195(3)
H18 H 1.3499 0.0785 -0.0119
C24 C 1.3491(5) 0.0541(5) 0.0638(3)
H19 H 1.3833 0.0205 0.0623
C25 C 1.3179(5) 0.0698(5) 0.1097(3)
H20 H 1.3309 0.0459 0.1392
C26 C 1.2667(4) 0.1209(4) 0.1135(3)
C27 C 1.2458(4) 0.1445(4) 0.1639(3)
H21 H 1.2662 0.1223 0.1917
C28 C 1.1980(4) 0.2234(4) 0.2292(3)
C29 C 1.2196(5) 0.1677(5) 0.2691(3)
H22 H 1.1874 0.1140 0.2621
H23 H 1.2094 0.1853 0.3030
H24 H 1.2756 0.1691 0.2670
C30 C 1.1078(5) 0.2910(5) 0.2792(3)
H25 H 1.1380 0.3437 0.2705
H26 H 1.1304 0.2758 0.3103
H27 H 1.0527 0.2911 0.2843
C31 C 1.1113(4) 0.2309(4) 0.2349(3)
C32 C 1.0509(4) 0.1509(5) 0.2442(3)
H28 H 0.9971 0.1566 0.2401
H29 H 1.0591 0.1347 0.2786
H30 H 1.0586 0.1110 0.2198
C33 C 1.0275(4) 0.2943(4) 0.1830(3)
H31 H 1.0049 0.3018 0.2143
C34 C 0.9939(4) 0.3213(4) 0.1385(3)
C35 C 0.9336(5) 0.3625(5) 0.1470(3)
H32 H 0.9197 0.3713 0.1806
C36 C 0.8954(5) 0.3895(5) 0.1073(3)
H33 H 0.8559 0.4161 0.1137
C37 C 0.9169(5) 0.3764(5) 0.0569(3)
H34 H 0.8913 0.3946 0.0296
C38 C 0.9753(4) 0.3369(4) 0.0467(3)
H35 H 0.9888 0.3294 0.0128
C39 C 1.0149(4) 0.3077(4) 0.0874(3)
C40 C 0.9856(4) 0.0668(4) 0.1096(3)
C41 C 0.8654(5) 0.0426(5) -0.0007(3)
H36 H 0.8868 0.0002 -0.0095
C42 C 0.8516(5) 0.0912(5) -0.0390(3)
H37 H 0.8627 0.0814 -0.0731
C43 C 0.8201(6) 0.1561(6) -0.0254(4)
H38 H 0.8117 0.1913 -0.0500
C44 C 0.8024(6) 0.1657(6) 0.0250(4)
H39 H 0.7795 0.2068 0.0345
C45 C 0.8178(5) 0.1157(4) 0.0615(3)
C46 C 0.8021(5) 0.1270(5) 0.1174(3)
C47 C 0.8298(5) 0.0715(4) 0.1995(3)
C48 C 0.7978(5) 0.1180(5) 0.2337(3)
H40 H 0.7748 0.1573 0.2214
C49 C 0.8005(6) 0.1051(5) 0.2862(4)
H41 H 0.7789 0.1355 0.3091
C50 C 0.8349(6) 0.0477(5) 0.3043(3)
H42 H 0.8368 0.0400 0.3395
C51 C 0.8669(5) 0.0009(5) 0.2710(3)
H43 H 0.8906 -0.0373 0.2841
C52 C 0.8635(4) 0.0112(4) 0.2183(3)
C53 C 0.9172(5) -0.0981(5) 0.1854(3)
C54 C 0.9351(4) -0.1307(4) 0.1342(3)
C55 C 0.9686(5) -0.1952(5) 0.1305(3)
H44 H 0.9848 -0.2164 0.1602
C56 C 0.9777(5) -0.2278(5) 0.0829(3)
H45 H 1.0005 -0.2708 0.0794
C57 C 0.9514(5) -0.1935(5) 0.0402(3)
H46 H 0.9540 -0.2153 0.0074
C58 C 0.9217(5) -0.1283(4) 0.0460(3)
H47 H 0.9060 -0.1058 0.0167
C59 C 1.7677(4) 0.9207(4) 0.1105(3)
C60 C 1.7444(4) 0.6704(4) 0.0626(3)
C61 C 1.7751(4) 0.6535(4) 0.0149(3)
H48 H 1.7594 0.6749 -0.0149
C62 C 1.8273(4) 0.6066(4) 0.0118(3)
H49 H 1.8470 0.5969 -0.0200
C63 C 1.8518(5) 0.5728(4) 0.0552(3)
H50 H 1.8869 0.5403 0.0523
C64 C 1.8237(5) 0.5881(4) 0.1023(3)
H51 H 1.8407 0.5664 0.1315
C65 C 1.7689(4) 0.6367(4) 0.1072(3)
C66 C 1.7429(4) 0.6487(4) 0.1576(3)
H52 H 1.7627 0.6232 0.1840
C67 C 1.7339(5) 0.6900(6) 0.2640(3)
H53 H 1.7455 0.6386 0.2633
H54 H 1.7182 0.7017 0.2979
H55 H 1.7810 0.7304 0.2552
C68 C 1.6654(5) 0.6887(5) 0.2252(3)
C69 C 1.5988(5) 0.6102(5) 0.2294(3)
H56 H 1.5497 0.6160 0.2136
H57 H 1.5905 0.5984 0.2650
H58 H 1.6147 0.5673 0.2121
C70 C 1.6297(5) 0.7604(5) 0.2326(3)
C71 C 1.6988(5) 0.8384(5) 0.2383(3)
H59 H 1.7369 0.8386 0.2119
H60 H 1.7252 0.8412 0.2716
H61 H 1.6770 0.8838 0.2348
C72 C 1.5799(5) 0.7547(5) 0.2801(3)
H62 H 1.5632 0.8031 0.2849
H63 H 1.6115 0.7473 0.3096
H64 H 1.5332 0.7100 0.2758
C73 C 1.5164(4) 0.7848(4) 0.1839(3)
H65 H 1.4944 0.7879 0.2160
C74 C 1.4720(4) 0.8036(4) 0.1398(3)
C75 C 1.4020(5) 0.8282(5) 0.1495(3)
H66 H 1.3839 0.8274 0.1830
C76 C 1.3602(5) 0.8533(6) 0.1110(3)
H67 H 1.3143 0.8701 0.1180
C77 C 1.3873(5) 0.8535(5) 0.0606(3)
H68 H 1.3588 0.8702 0.0340
C78 C 1.4548(5) 0.8298(5) 0.0497(3)
H69 H 1.4717 0.8306 0.0160
C79 C 1.4991(4) 0.8039(4) 0.0890(3)
C156 C 1.2602(5) 0.3051(5) 0.2344(3)
H134 H 1.3118 0.2995 0.2243
H135 H 1.2640 0.3247 0.2696
H136 H 1.2437 0.3423 0.2125
Fe2_2 Fe 1.87390(6) 0.99893(6) 0.11184(4)
C59_2 C 0.7677(4) -0.0793(4) 0.1105(3)
Fe3 Fe 0.24788(6) -0.11807(6) 0.39111(4)
Fe4 Fe -0.23602(6) -0.64026(6) 0.38636(4)
Mn3 Mn 0.01435(6) -0.38770(6) 0.37999(4)
Mn4 Mn 0.51200(6) 0.11337(6) 0.38022(4)
O9 O 0.0761(4) -0.0018(4) 0.3756(3)
O10 O 0.3514(4) -0.2019(3) 0.27355(19)
O11 O -0.0369(3) -0.3258(3) 0.42217(18)
O12 O 0.0475(3) -0.4387(3) 0.43634(17)
O13 O -0.1006(3) -0.7033(4) 0.2776(2)
O14 O 0.4841(3) 0.1873(3) 0.42628(18)
O15 O 0.5356(3) 0.0498(3) 0.43357(18)
O16 O -0.3990(4) -0.5180(4) 0.3568(2)
N17 N 0.1993(4) -0.0901(3) 0.4556(2)
N18 N 0.1677(3) -0.0767(3) 0.3593(2)
N19 N 0.2707(3) -0.1417(3) 0.3226(2)
N20 N 0.3413(3) -0.1626(3) 0.4078(2)
N21 N 0.1308(4) -0.2878(4) 0.3957(2)
N22 N -0.0155(4) -0.3405(3) 0.3152(2)
N23 N 0.0703(4) -0.4410(4) 0.3293(2)
N24 N -0.1037(4) -0.4813(4) 0.3800(2)
N25 N -0.2917(3) -0.6074(3) 0.4464(2)
N26 N -0.3099(3) -0.5976(3) 0.3491(2)
N27 N -0.2033(3) -0.6649(3) 0.3204(2)
N28 N -0.1447(3) -0.6831(3) 0.4094(2)
N29 N 0.6446(4) 0.1905(4) 0.3900(2)
N30 N 0.4917(3) 0.1711(3) 0.3181(2)
N31 N 0.5455(3) 0.0461(3) 0.3266(2)
N32 N 0.3803(4) 0.0415(4) 0.3835(2)
C80 C 0.2137(5) -0.1057(4) 0.5046(3)
H70 H 0.2556 -0.1287 0.5121
C81 C 0.1679(5) -0.0887(5) 0.5448(3)
H71 H 0.1780 -0.1015 0.5785
C82 C 0.1064(6) -0.0518(6) 0.5334(4)
H72 H 0.0748 -0.0398 0.5594
C83 C 0.0935(6) -0.0337(6) 0.4833(4)
H73 H 0.0538 -0.0080 0.4751
C84 C 0.1404(5) -0.0540(5) 0.4448(3)
C85 C 0.1235(5) -0.0409(5) 0.3889(3)
C86 C 0.1675(5) -0.0794(4) 0.3053(3)
C87 C 0.1160(5) -0.0510(5) 0.2723(3)
H74 H 0.0772 -0.0281 0.2857
C88 C 0.1240(6) -0.0578(6) 0.2190(4)
H75 H 0.0915 -0.0377 0.1967
C89 C 0.1799(6) -0.0943(6) 0.1992(4)
H76 H 0.1840 -0.0991 0.1637
C90 C 0.2243(4) -0.1170(4) 0.2845(3)
C91 C 0.3294(4) -0.1793(4) 0.3146(3)
C92 C 0.3684(4) -0.1908(4) 0.3648(3)
C93 C 0.4322(4) -0.2249(4) 0.3670(3)
H77 H 0.4492 -0.2450 0.3369
C94 C 0.4714(5) -0.2296(5) 0.4142(3)
H78 H 0.5138 -0.2537 0.4163
C95 C 0.4451(5) -0.1971(4) 0.4578(3)
H79 H 0.4708 -0.1971 0.4897
C96 C 0.3802(4) -0.1648(4) 0.4527(3)
H80 H 0.3625 -0.1435 0.4821
C97 C 0.3284(4) -0.0139(4) 0.3898(3)
C98 C -0.1224(5) -0.1583(5) 0.4376(3)
H81 H -0.1409 -0.1314 0.4641
C99 C -0.1249(6) -0.1324(5) 0.3869(3)
H82 H -0.1454 -0.0891 0.3798
C100 C -0.0970(6) -0.1717(5) 0.3484(3)
H83 H -0.0981 -0.1544 0.3148
C101 C -0.0663(4) -0.2381(4) 0.3584(3)
C102 C -0.0435(4) -0.2785(4) 0.3149(3)
H84 H -0.0496 -0.2576 0.2828
C103 C -0.0036(6) -0.3837(5) 0.2665(3)
C104 C -0.0053(6) -0.3361(5) 0.2194(3)
H85 H -0.0580 -0.3278 0.2144
H86 H 0.0072 -0.3647 0.1899
H87 H 0.0338 -0.2852 0.2238
C105 C -0.0772(6) -0.4606(5) 0.2593(4)
H88 H -0.1231 -0.4510 0.2760
H89 H -0.0632 -0.5055 0.2743
H90 H -0.0900 -0.4719 0.2232
C106 C 0.0731(6) -0.4115(5) 0.2748(3)
C107 C 0.1463(5) -0.3346(6) 0.2729(3)
H91 H 0.1339 -0.2909 0.2915
H92 H 0.1561 -0.3207 0.2377
H93 H 0.1935 -0.3455 0.2883
C108 C 0.0848(5) -0.4733(5) 0.2357(3)
H94 H 0.1389 -0.4785 0.2391
H95 H 0.0756 -0.4567 0.2016
H96 H 0.0475 -0.5239 0.2415
C109 C 0.1144(5) -0.4872(4) 0.3419(3)
H97 H 0.1415 -0.5049 0.3153
C110 C 0.1268(4) -0.5152(4) 0.3927(3)
C111 C 0.1760(5) -0.5684(5) 0.3976(3)
H98 H 0.2004 -0.5833 0.3687
C112 C 0.1881(5) -0.5979(5) 0.4441(3)
H99 H 0.2202 -0.6334 0.4467
C113 C 0.1533(4) -0.5761(4) 0.4881(3)
H100 H 0.1624 -0.5969 0.5197
C114 C 0.1053(4) -0.5235(4) 0.4848(3)
H101 H 0.0813 -0.5099 0.5141
C115 C 0.0921(4) -0.4902(4) 0.4373(3)
C116 C -0.1556(5) -0.5372(4) 0.3864(3)
C117 C -0.2854(5) -0.6214(4) 0.4971(3)
H102 H -0.2474 -0.6475 0.5080
C118 C -0.3327(5) -0.5986(5) 0.5330(3)
H103 H -0.3262 -0.6090 0.5676
C119 C -0.3895(5) -0.5606(5) 0.5180(3)
H104 H -0.4223 -0.5453 0.5420
C120 C -0.3969(5) -0.5454(5) 0.4665(3)
H105 H -0.4347 -0.5192 0.4553
C121 C -0.3481(5) -0.5693(4) 0.4318(3)
C122 C -0.3566(5) -0.5579(4) 0.3754(3)
C123 C -0.3023(5) -0.6006(4) 0.2948(3)
C124 C -0.3469(5) -0.5721(5) 0.2590(3)
H106 H -0.3844 -0.5452 0.2693
C125 C -0.3349(6) -0.5843(5) 0.2062(3)
H107 H -0.3638 -0.5643 0.1815
C126 C -0.2800(5) -0.6263(5) 0.1908(3)
H108 H -0.2740 -0.6358 0.1559
C127 C -0.2345(5) -0.6536(5) 0.2271(3)
H109 H -0.1974 -0.6810 0.2166
C128 C -0.2439(4) -0.6405(4) 0.2790(3)
C129 C -0.1375(5) -0.6932(4) 0.3167(3)
C130 C -0.1088(4) -0.7092(4) 0.3693(3)
C131 C -0.0450(5) -0.7441(5) 0.3763(3)
H110 H -0.0237 -0.7651 0.3483
C132 C -0.0142(5) -0.7469(5) 0.4253(3)
H111 H 0.0293 -0.7686 0.4307
C133 C -0.0479(5) -0.7175(5) 0.4664(3)
H112 H -0.0274 -0.7187 0.4998
C134 C -0.1130(5) -0.6859(5) 0.4572(3)
H113 H -0.1356 -0.6660 0.4850
C135 C 0.6900(4) 0.2529(4) 0.3908(3)
C136 C 0.4508(4) 0.2456(4) 0.4156(3)
C137 C 0.4232(5) 0.2860(4) 0.4566(3)
H114 H 0.4273 0.2695 0.4901
C138 C 0.3905(5) 0.3491(5) 0.4479(3)
H115 H 0.3735 0.3749 0.4756
C139 C 0.3826(5) 0.3746(5) 0.3982(3)
H116 H 0.3599 0.4170 0.3924
C140 C 0.4087(5) 0.3365(5) 0.3579(3)
H117 H 0.4038 0.3538 0.3247
C141 C 0.4427(4) 0.2718(4) 0.3653(3)
C142 C 0.4664(4) 0.2353(4) 0.3201(3)
H118 H 0.4633 0.2603 0.2891
C143 C 0.5168(4) 0.1438(4) 0.2667(3)
C144 C 0.4625(5) 0.1556(5) 0.2227(3)
H119 H 0.4074 0.1307 0.2301
H120 H 0.4763 0.1318 0.1916
H121 H 0.4692 0.2119 0.2184
C145 C 0.5166(4) 0.0540(4) 0.2716(3)
C146 C 0.5665(5) 0.0268(5) 0.2307(3)
H122 H 0.6224 0.0535 0.2369
H123 H 0.5494 0.0397 0.1972
H124 H 0.5590 -0.0300 0.2320
C147 C 0.4300(5) -0.0009(5) 0.2663(3)
H125 H 0.4307 -0.0550 0.2731
H126 H 0.4088 0.0013 0.2320
H127 H 0.3967 0.0168 0.2906
C148 C 0.6028(4) -0.0308(4) 0.4790(3)
H128 H 0.5827 -0.0163 0.5096
C149 C 0.6504(4) -0.0820(4) 0.4799(3)
H129 H 0.6619 -0.1021 0.5112
C150 C 0.6827(5) -0.1054(4) 0.4350(3)
H130 H 0.7160 -0.1399 0.4363
C151 C 0.6639(5) -0.0759(4) 0.3888(3)
H131 H 0.6845 -0.0915 0.3586
C152 C 0.6141(4) -0.0227(4) 0.3860(3)
C153 C 0.5910(5) -0.0013(4) 0.3363(3)
H132 H 0.6105 -0.0235 0.3080
C154 C 0.2293(5) -0.1234(5) 0.2312(3)
H133 H 0.2665 -0.1478 0.2172
C155 C 0.5832(4) 0.0010(4) 0.4324(3)
C157 C 0.6044(5) 0.1961(4) 0.2583(3)
H137 H 0.6232 0.1797 0.2263
H138 H 0.6394 0.1892 0.2862
H139 H 0.6042 0.2514 0.2571
C162 C 0.1760(4) -0.2260(4) 0.3968(3)
C163 C -0.0644(4) -0.2645(4) 0.4099(3)
C164 C -0.0927(4) -0.2230(4) 0.4487(3)
H152 H -0.0917 -0.2391 0.4826
Fe4_2 Fe 0.76398(6) 0.35974(6) 0.38636(4)
C135_2 C -0.3100(4) -0.7471(4) 0.3908(3)
O17 O 0.5999(5) 0.1303(5) 0.1064(4)
H1 H 0.6468 0.1482 0.1167
C158 C 0.5894(7) 0.0523(7) 0.0853(4)
H140 H 0.5991 0.0549 0.0491
H141 H 0.5353 0.0214 0.0905
H142 H 0.6266 0.0276 0.1021
O18 O 0.1293(5) 0.1615(4) 0.3972(3)
H2 H 0.0973 0.1374 0.4178
C159 C 0.2092(6) 0.1700(7) 0.4164(4)
H143 H 0.2405 0.2241 0.4125
H144 H 0.2329 0.1340 0.3976
H145 H 0.2082 0.1576 0.4523
O19 O 0.1042(6) 0.6398(5) 0.0971(4)
H3 H 0.1063 0.6461 0.1285
C160 C 0.0790(7) 0.5579(8) 0.0839(4)
H146 H 0.0936 0.5280 0.1114
H147 H 0.1045 0.5473 0.0530
H148 H 0.0216 0.5423 0.0782
O20 O 0.6110(6) 0.6386(5) 0.3958(4)
H4 H 0.6020 0.5955 0.3798
C161 C 0.6924(8) 0.6625(7) 0.4123(5)
H149 H 0.7243 0.6887 0.3848
H150 H 0.7100 0.6163 0.4216
H151 H 0.6987 0.6988 0.4416
loop_
_geom_bond_atom_site_label_1
_geom_bond_atom_site_label_2
_geom_bond_site_symmetry_1
_geom_bond_site_symmetry_2
Fe1 N5 1_555 1_555
Fe2 N11 1_555 1_555
Fe3 N17 1_555 1_555
Fe4 N25 1_555 1_555
Mn1 O3 1_555 1_555
Mn2 O7 1_555 1_555
Mn3 O11 1_555 1_555
Mn4 O14 1_555 1_555
O1 C13 1_555 1_555
O2 C6 1_555 1_555
O3 C39 1_555 1_555
O4 Mn1 1_555 1_555
O5 C46 1_555 1_555
O6 C53 1_555 1_555
O7 C79 1_555 1_555
O8 Mn2 1_555 1_555
O9 C85 1_555 1_555
O10 C91 1_555 1_555
O11 C163 1_555 1_555
O12 Mn3 1_555 1_555
O13 C129 1_555 1_555
O14 C136 1_555 1_555
O15 Mn4 1_555 1_555
O16 C122 1_555 1_555
O17 H1 1_555 1_555
O18 H2 1_555 1_555
O19 H3 1_555 1_555
O20 H4 1_555 1_555
N1 Mn1 1_555 1_555
N2 Mn1 1_555 1_555
N3 Mn2 1_555 1_555
N4 Mn2 1_555 1_555
N5 C1 1_555 1_555
N6 Fe1 1_555 1_555
N7 Fe1 1_555 1_555
N8 Fe1 1_555 1_555
N9 Mn1 1_555 1_555
N10 Mn1 1_555 1_555
N11 C54 1_555 1_555
N12 Fe2 1_555 1_555
N13 Fe2 1_555 1_555
N14 Fe2 1_555 1_555
N15 Mn2 1_555 1_555
N16 Mn2 1_555 1_555
N17 C80 1_555 1_555
N18 Fe3 1_555 1_555
N19 Fe3 1_555 1_555
N20 Fe3 1_555 1_555
N21 Mn3 1_555 1_555
N22 Mn3 1_555 1_555
N23 Mn3 1_555 1_555
N24 Mn3 1_555 1_555
N25 C117 1_555 1_555
N26 Fe4 1_555 1_555
N27 Fe4 1_555 1_555
N28 Fe4 1_555 1_555
N29 Mn4 1_555 1_555
N30 Mn4 1_555 1_555
N31 Mn4 1_555 1_555
N32 Mn4 1_555 1_555
C1 H5 1_555 1_555
C2 C1 1_555 1_555
H6 C2 1_555 1_555
C3 C2 1_555 1_555
H7 C3 1_555 1_555
C4 C3 1_555 1_555
H8 C4 1_555 1_555
C5 N5 1_555 1_555
C6 N6 1_555 1_555
C7 N6 1_555 1_555
C8 C7 1_555 1_555
H9 C8 1_555 1_555
C9 C8 1_555 1_555
H10 C9 1_555 1_555
C10 C9 1_555 1_555
H11 C10 1_555 1_555
C11 C10 1_555 1_555
H12 C11 1_555 1_555
C12 N7 1_555 1_555
C13 N7 1_555 1_555
C14 N8 1_555 1_555
C15 C14 1_555 1_555
H13 C15 1_555 1_555
C16 C15 1_555 1_555
H14 C16 1_555 1_555
C17 C16 1_555 1_555
H15 C17 1_555 1_555
C18 N8 1_555 1_555
H16 C18 1_555 1_555
C19 Fe1 1_555 1_555
C20 Fe1 1_555 1_555
C21 O4 1_555 1_555
C22 C21 1_555 1_555
H17 C22 1_555 1_555
C23 C22 1_555 1_555
H18 C23 1_555 1_555
C24 C23 1_555 1_555
H19 C24 1_555 1_555
C25 C24 1_555 1_555
H20 C25 1_555 1_555
C26 C21 1_555 1_555
C27 N10 1_555 1_555
H21 C27 1_555 1_555
C28 N10 1_555 1_555
C29 C28 1_555 1_555
H22 C29 1_555 1_555
H23 C29 1_555 1_555
H24 C29 1_555 1_555
C30 H25 1_555 1_555
H26 C30 1_555 1_555
H27 C30 1_555 1_555
C31 N9 1_555 1_555
C32 C31 1_555 1_555
H28 C32 1_555 1_555
H29 C32 1_555 1_555
H30 C32 1_555 1_555
C33 N9 1_555 1_555
H31 C33 1_555 1_555
C34 C33 1_555 1_555
C35 C34 1_555 1_555
H32 C35 1_555 1_555
C36 C35 1_555 1_555
H33 C36 1_555 1_555
C37 C36 1_555 1_555
H34 C37 1_555 1_555
C38 C37 1_555 1_555
H35 C38 1_555 1_555
C39 C34 1_555 1_555
C40 Fe2 1_555 1_555
C41 N14 1_555 1_555
H36 C41 1_555 1_555
C42 C41 1_555 1_555
H37 C42 1_555 1_555
C43 C42 1_555 1_555
H38 C43 1_555 1_555
C44 C43 1_555 1_555
H39 C44 1_555 1_555
C45 N14 1_555 1_555
C46 N13 1_555 1_555
C47 N13 1_555 1_555
C48 C47 1_555 1_555
H40 C48 1_555 1_555
C49 C48 1_555 1_555
H41 C49 1_555 1_555
C50 C49 1_555 1_555
H42 C50 1_555 1_555
C51 C50 1_555 1_555
H43 C51 1_555 1_555
C52 N12 1_555 1_555
C53 N12 1_555 1_555
C54 C53 1_555 1_555
C55 C54 1_555 1_555
H44 C55 1_555 1_555
C56 C55 1_555 1_555
H45 C56 1_555 1_555
C57 C56 1_555 1_555
H46 C57 1_555 1_555
C58 N11 1_555 1_555
H47 C58 1_555 1_555
C59 N3 1_555 1_555
C60 O8 1_555 1_555
C61 C60 1_555 1_555
H48 C61 1_555 1_555
C62 C61 1_555 1_555
H49 C62 1_555 1_555
C63 C62 1_555 1_555
H50 C63 1_555 1_555
C64 C63 1_555 1_555
H51 C64 1_555 1_555
C65 C60 1_555 1_555
C66 N16 1_555 1_555
H52 C66 1_555 1_555
C67 H53 1_555 1_555
H54 C67 1_555 1_555
H55 C67 1_555 1_555
C68 N16 1_555 1_555
C69 C68 1_555 1_555
H56 C69 1_555 1_555
H57 C69 1_555 1_555
H58 C69 1_555 1_555
C70 N15 1_555 1_555
C71 C70 1_555 1_555
H59 C71 1_555 1_555
H60 C71 1_555 1_555
H61 C71 1_555 1_555
C72 C70 1_555 1_555
H62 C72 1_555 1_555
H63 C72 1_555 1_555
H64 C72 1_555 1_555
C73 N15 1_555 1_555
H65 C73 1_555 1_555
C74 C73 1_555 1_555
C75 C74 1_555 1_555
H66 C75 1_555 1_555
C76 C75 1_555 1_555
H67 C76 1_555 1_555
C77 C76 1_555 1_555
H68 C77 1_555 1_555
C78 C77 1_555 1_555
H69 C78 1_555 1_555
C79 C74 1_555 1_555
C80 H70 1_555 1_555
C81 C80 1_555 1_555
H71 C81 1_555 1_555
C82 C81 1_555 1_555
H72 C82 1_555 1_555
C83 C82 1_555 1_555
H73 C83 1_555 1_555
C84 N17 1_555 1_555
C85 N18 1_555 1_555
C86 N18 1_555 1_555
C87 C86 1_555 1_555
H74 C87 1_555 1_555
C88 C87 1_555 1_555
H75 C88 1_555 1_555
C89 C88 1_555 1_555
H76 C89 1_555 1_555
C90 N19 1_555 1_555
C91 N19 1_555 1_555
C92 N20 1_555 1_555
C93 C92 1_555 1_555
H77 C93 1_555 1_555
C94 C93 1_555 1_555
H78 C94 1_555 1_555
C95 C94 1_555 1_555
H79 C95 1_555 1_555
C96 N20 1_555 1_555
H80 C96 1_555 1_555
C97 Fe3 1_555 1_555
C98 H81 1_555 1_555
C99 C98 1_555 1_555
H82 C99 1_555 1_555
C100 C99 1_555 1_555
H83 C100 1_555 1_555
C101 C100 1_555 1_555
C102 N22 1_555 1_555
H84 C102 1_555 1_555
C103 N22 1_555 1_555
C104 C103 1_555 1_555
H85 C104 1_555 1_555
H86 C104 1_555 1_555
H87 C104 1_555 1_555
C105 C103 1_555 1_555
H88 C105 1_555 1_555
H89 C105 1_555 1_555
H90 C105 1_555 1_555
C106 N23 1_555 1_555
C107 C106 1_555 1_555
H91 C107 1_555 1_555
H92 C107 1_555 1_555
H93 C107 1_555 1_555
C108 C106 1_555 1_555
H94 C108 1_555 1_555
H95 C108 1_555 1_555
H96 C108 1_555 1_555
C109 N23 1_555 1_555
H97 C109 1_555 1_555
C110 C109 1_555 1_555
C111 C110 1_555 1_555
H98 C111 1_555 1_555
C112 C111 1_555 1_555
H99 C112 1_555 1_555
C113 C112 1_555 1_555
H100 C113 1_555 1_555
C114 C113 1_555 1_555
H101 C114 1_555 1_555
C115 O12 1_555 1_555
C116 Fe4 1_555 1_555
C117 H102 1_555 1_555
C118 C117 1_555 1_555
H103 C118 1_555 1_555
C119 C118 1_555 1_555
H104 C119 1_555 1_555
C120 C119 1_555 1_555
H105 C120 1_555 1_555
C121 N25 1_555 1_555
C122 N26 1_555 1_555
C123 N26 1_555 1_555
C124 C123 1_555 1_555
H106 C124 1_555 1_555
C125 C124 1_555 1_555
H107 C125 1_555 1_555
C126 C125 1_555 1_555
H108 C126 1_555 1_555
C127 C126 1_555 1_555
H109 C127 1_555 1_555
C128 N27 1_555 1_555
C129 N27 1_555 1_555
C130 N28 1_555 1_555
C131 C130 1_555 1_555
H110 C131 1_555 1_555
C132 C131 1_555 1_555
H111 C132 1_555 1_555
C133 C132 1_555 1_555
H112 C133 1_555 1_555
C134 N28 1_555 1_555
H113 C134 1_555 1_555
C135 N29 1_555 1_555
C136 C137 1_555 1_555
C137 H114 1_555 1_555
C138 C137 1_555 1_555
H115 C138 1_555 1_555
C139 C138 1_555 1_555
H116 C139 1_555 1_555
C140 C139 1_555 1_555
H117 C140 1_555 1_555
C141 C136 1_555 1_555
C142 N30 1_555 1_555
H118 C142 1_555 1_555
C143 N30 1_555 1_555
C144 C143 1_555 1_555
H119 C144 1_555 1_555
H120 C144 1_555 1_555
H121 C144 1_555 1_555
C145 N31 1_555 1_555
C146 C145 1_555 1_555
H122 C146 1_555 1_555
H123 C146 1_555 1_555
H124 C146 1_555 1_555
C147 C145 1_555 1_555
H125 C147 1_555 1_555
H126 C147 1_555 1_555
H127 C147 1_555 1_555
C148 H128 1_555 1_555
C149 C148 1_555 1_555
H129 C149 1_555 1_555
C150 C149 1_555 1_555
H130 C150 1_555 1_555
C151 C150 1_555 1_555
H131 C151 1_555 1_555
C152 C151 1_555 1_555
C153 N31 1_555 1_555
H132 C153 1_555 1_555
C154 C89 1_555 1_555
H133 C154 1_555 1_555
C155 O15 1_555 1_555
C156 C28 1_555 1_555
H134 C156 1_555 1_555
H135 C156 1_555 1_555
H136 C156 1_555 1_555
C157 C143 1_555 1_555
H137 C157 1_555 1_555
H138 C157 1_555 1_555
H139 C157 1_555 1_555
C158 O17 1_555 1_555
H140 C158 1_555 1_555
H141 C158 1_555 1_555
H142 C158 1_555 1_555
C159 O18 1_555 1_555
H143 C159 1_555 1_555
H144 C159 1_555 1_555
H145 C159 1_555 1_555
C160 O19 1_555 1_555
H146 C160 1_555 1_555
H147 C160 1_555 1_555
H148 C160 1_555 1_555
C161 O20 1_555 1_555
H149 C161 1_555 1_555
H150 C161 1_555 1_555
H151 C161 1_555 1_555
C162 Fe3 1_555 1_555
C163 C101 1_555 1_555
C164 C98 1_555 1_555
H152 C164 1_555 1_555
Fe2_2 C59 1_555 1_555
Fe4_2 C135 1_555 1_555
C59_2 Fe2 1_555 1_555
C135_2 Fe4 1_555 1_555
N1 C19 1_555 1_555
N2 C40 1_555 1_555
N4 C20 1_555 1_555
N21 C162 1_555 1_555
N24 C116 1_555 1_555
N32 C97 1_555 1_555
C4 C5 1_555 1_555
C5 C6 1_555 1_555
C7 C12 1_555 1_555
C11 C12 1_555 1_555
C13 C14 1_555 1_555
C17 C18 1_555 1_555
C25 C26 1_555 1_555
C26 C27 1_555 1_555
C28 C31 1_555 1_555
C30 C31 1_555 1_555
C38 C39 1_555 1_555
C44 C45 1_555 1_555
C45 C46 1_555 1_555
C47 C52 1_555 1_555
C51 C52 1_555 1_555
C57 C58 1_555 1_555
C64 C65 1_555 1_555
C65 C66 1_555 1_555
C67 C68 1_555 1_555
C68 C70 1_555 1_555
C78 C79 1_555 1_555
C83 C84 1_555 1_555
C84 C85 1_555 1_555
C86 C90 1_555 1_555
C90 C154 1_555 1_555
C91 C92 1_555 1_555
C95 C96 1_555 1_555
C101 C102 1_555 1_555
C103 C106 1_555 1_555
C110 C115 1_555 1_555
C114 C115 1_555 1_555
C120 C121 1_555 1_555
C121 C122 1_555 1_555
C123 C128 1_555 1_555
C127 C128 1_555 1_555
C129 C130 1_555 1_555
C133 C134 1_555 1_555
C140 C141 1_555 1_555
C141 C142 1_555 1_555
C143 C145 1_555 1_555
C148 C155 1_555 1_555
C152 C153 1_555 1_555
C152 C155 1_555 1_555
C163 C164 1_555 1_555

#END
