
#######################################################################
#
#                 Cambridge Crystallographic Data Centre
#                                CCDC 
#
#######################################################################
#
# If this CIF has been generated from an entry in the Cambridge 
# Structural Database, then it will include bibliographic, chemical, 
# crystal, experimental, refinement or atomic coordinate data resulting 
# from the CCDC's data processing and validation procedures.
#
#######################################################################

data_BARXIC01
_symmetry_cell_setting           monoclinic
_symmetry_space_group_name_H-M   'P 21/c'
_symmetry_Int_Tables_number      14
_space_group_name_Hall           '-P 2ybc'
loop_
_symmetry_equiv_pos_site_id
_symmetry_equiv_pos_as_xyz
1 x,y,z
2 x,1/2-y,1/2+z
3 -x,-y,-z
4 -x,1/2+y,1/2-z
_cell_length_a                   18.8932(9)
_cell_length_b                   11.4502(8)
_cell_length_c                   8.0985(4)
_cell_angle_alpha                90
_cell_angle_beta                 93.032(5)
_cell_angle_gamma                90
_cell_volume                     1749.5
loop_
_atom_site_label
_atom_site_type_symbol
_atom_site_fract_x
_atom_site_fract_y
_atom_site_fract_z
Fe1 Fe 0.5000 1.0000 0.5000
O1 O 0.45525(12) 0.96587(19) 0.7348(2)
C1 C 0.48043(16) 0.9843(2) 0.8798(3)
C2 C 0.53289(16) 1.0659(2) 0.9579(3)
O2 O 0.57113(12) 1.14639(19) 0.9084(2)
O3 O 0.54668(13) 1.15599(18) 0.5843(2)
H1 H 0.5608 1.1600 0.6817
H2 H 0.5598 1.2146 0.5364
Fe2 Fe 1.0000 0.5000 1.0000
O4 O 1.03686(12) 0.54814(19) 0.7656(2)
C3 C 1.01592(16) 0.5208(3) 0.6205(3)
C4 C 1.03065(16) 0.5682(2) 0.4576(3)
O5 O 1.06743(13) 0.65115(19) 0.4090(2)
O6 O 1.04616(12) 0.65414(18) 1.0866(2)
H3 H 1.0578 0.7116 1.0340
H4 H 1.0560 0.6672 1.1847
N1 N 0.59563(14) 0.9081(2) 0.6030(3)
C5 C 0.71545(16) 0.7867(3) 0.7357(3)
C6 C 0.64831(17) 0.7350(3) 0.7259(4)
H5 H 0.6422 0.6573 0.7638
C7 C 0.59074(17) 0.7980(3) 0.6605(4)
H6 H 0.5455 0.7617 0.6560
C8 C 0.66012(17) 0.9576(3) 0.6148(4)
H7 H 0.6648 1.0356 0.5770
C9 C 0.72038(17) 0.9010(3) 0.6793(4)
H8 H 0.7648 0.9402 0.6849
N2 N 0.89856(14) 0.5961(2) 0.9270(3)
C10 C 0.77845(15) 0.7219(3) 0.8023(4)
C11 C 0.83497(17) 0.7779(3) 0.8864(4)
H9 H 0.8341 0.8600 0.9024
C12 C 0.89275(18) 0.7123(3) 0.9468(4)
H10 H 0.9304 0.7520 1.0055
C13 C 0.84365(17) 0.5421(3) 0.8461(4)
H11 H 0.8459 0.4599 0.8319
C14 C 0.78383(17) 0.6007(3) 0.7824(4)
H12 H 0.7467 0.5587 0.7255
C1B C 0.51957(16) 1.0157(2) 1.1202(3)
O1B O 0.54475(12) 1.03413(19) 1.2652(2)
Fe1B Fe 0.5000 1.0000 1.5000
C2B C 0.46711(16) 0.9341(2) 1.0421(3)
O2B O 0.42887(12) 0.85361(19) 1.0916(2)
O1B_2 O 0.54475(12) 1.03413(19) 0.2652(2)
O3B O 0.45332(13) 0.84401(18) 0.4157(2)
N1B N 0.40437(14) 1.0919(2) 0.3970(3)
O4B O 0.96314(12) 0.45186(19) 1.2344(2)
O6B O 0.95384(12) 0.34586(18) 0.9134(2)
N2B N 1.10144(14) 0.4039(2) 1.0730(3)
C4B C 0.96935(16) 0.4318(2) 0.5424(3)
C3B C 0.98408(16) 0.4792(3) 0.3795(3)
O4B_2 O 0.96314(12) 0.45186(19) 0.2344(2)
O5B O 0.93257(13) 0.34885(19) 0.5910(2)
H1B H 0.4392 0.8400 0.3183
H2B H 0.4402 0.7854 0.4636
C7B C 0.40926(17) 1.2020(3) 0.3395(4)
C8B C 0.33988(17) 1.0424(3) 0.3852(4)
H3B H 0.9422 0.2884 0.9660
H4B H 0.9440 0.3328 0.8153
Fe2_2 Fe 1.0000 0.5000 0.0000
C6B C 0.35169(17) 1.2650(3) 0.2741(4)
H6B H 0.4545 1.2383 0.3440
H7B H 0.3352 0.9644 0.4230
C9B C 0.27962(17) 1.0990(3) 0.3207(4)
C5B C 0.28455(16) 1.2133(3) 0.2643(3)
H5B H 0.3578 1.3427 0.2362
H8B H 0.2352 1.0598 0.3151
C10B C 0.22155(15) 1.2781(3) 0.1977(4)
Fe2_3 Fe 0.0000 1.5000 0.0000
C11B C 0.16503(17) 1.2221(3) 0.1136(4)
C14B C 0.21617(17) 1.3993(3) 0.2176(4)
H9B H 0.1659 1.1400 0.0976
C12B C 0.10725(18) 1.2877(3) 0.0532(4)
C13B C 0.15635(17) 1.4579(3) 0.1539(4)
H12B H 0.2533 1.4413 0.2745
N2B_2 N 0.10144(14) 1.4039(2) 0.0730(3)
H10B H 0.0696 1.2480 -0.0055
H11B H 0.1541 1.5401 0.1681
O7 O 0.68308(15) 0.3666(3) 0.7452(3)
H13 H 0.6963 0.3403 0.6579
H14 H 0.6414 0.3844 0.7532
O8 O 0.75257(16) 0.2651(3) 0.4899(3)
H15 H 0.7801 0.2985 0.4308
H16 H 0.7331 0.2290 0.4128
O9 O 0.82170(15) 0.1319(3) 0.7296(3)
H17 H 0.8052 0.1518 0.8169
H18 H 0.8643 0.1187 0.7275
loop_
_geom_bond_atom_site_label_1
_geom_bond_atom_site_label_2
_geom_bond_site_symmetry_1
_geom_bond_site_symmetry_2
Fe1 O1 1_555 1_555
O1 C1 1_555 1_555
C1 C2 1_555 1_555
C2 O2 1_555 1_555
O3 Fe1 1_555 1_555
H1 O3 1_555 1_555
H2 O3 1_555 1_555
Fe2 O4 1_555 1_555
O4 C3 1_555 1_555
C3 C4 1_555 1_555
C4 O5 1_555 1_555
O6 Fe2 1_555 1_555
H3 O6 1_555 1_555
H4 O6 1_555 1_555
N1 Fe1 1_555 1_555
C5 C6 1_555 1_555
C6 H5 1_555 1_555
C7 N1 1_555 1_555
H6 C7 1_555 1_555
C8 N1 1_555 1_555
H7 C8 1_555 1_555
C9 C5 1_555 1_555
H8 C9 1_555 1_555
N2 Fe2 1_555 1_555
C10 C5 1_555 1_555
C11 C10 1_555 1_555
H9 C11 1_555 1_555
C12 N2 1_555 1_555
H10 C12 1_555 1_555
C13 N2 1_555 1_555
H11 C13 1_555 1_555
C14 C10 1_555 1_555
H12 C14 1_555 1_555
O7 H13 1_555 1_555
H14 O7 1_555 1_555
O8 H15 1_555 1_555
H16 O8 1_555 1_555
O9 H17 1_555 1_555
H18 O9 1_555 1_555
C1B C2 1_555 1_555
O1B C1B 1_555 1_555
Fe1B O1B 1_555 1_555
C2B C1 1_555 1_555
O2B C2B 1_555 1_555
O1B_2 Fe1 1_555 1_555
O3B Fe1 1_555 1_555
N1B Fe1 1_555 1_555
O4B Fe2 1_555 1_555
O6B Fe2 1_555 1_555
N2B Fe2 1_555 1_555
C4B C3 1_555 1_555
C3B C4 1_555 1_555
O4B_2 C3B 1_555 1_555
O5B C4B 1_555 1_555
H1B O3B 1_555 1_555
H2B O3B 1_555 1_555
C7B N1B 1_555 1_555
C8B N1B 1_555 1_555
H3B O6B 1_555 1_555
H4B O6B 1_555 1_555
Fe2_2 O4B_2 1_555 1_555
C6B C7B 1_555 1_555
H6B C7B 1_555 1_555
H7B C8B 1_555 1_555
C9B C8B 1_555 1_555
C5B C6B 1_555 1_555
H5B C6B 1_555 1_555
H8B C9B 1_555 1_555
C10B C5B 1_555 1_555
Fe2_3 N2B_2 1_555 1_555
C11B C10B 1_555 1_555
C14B C10B 1_555 1_555
H9B C11B 1_555 1_555
C12B C11B 1_555 1_555
C13B C14B 1_555 1_555
H12B C14B 1_555 1_555
N2B_2 C12B 1_555 1_555
H10B C12B 1_555 1_555
H11B C13B 1_555 1_555
C6 C7 1_555 1_555
C8 C9 1_555 1_555
C11 C12 1_555 1_555
C13 C14 1_555 1_555
C1B C2B 1_555 1_555
C4B C3B 1_555 1_555
C9B C5B 1_555 1_555
C13B N2B_2 1_555 1_555

#END
