
#######################################################################
#
#                 Cambridge Crystallographic Data Centre
#                                CCDC 
#
#######################################################################
#
# If this CIF has been generated from an entry in the Cambridge 
# Structural Database, then it will include bibliographic, chemical, 
# crystal, experimental, refinement or atomic coordinate data resulting 
# from the CCDC's data processing and validation procedures.
#
#######################################################################

data_BARYOJ
_symmetry_cell_setting           orthorhombic
_symmetry_space_group_name_H-M   'P 21 21 21'
_symmetry_Int_Tables_number      19
_space_group_name_Hall           'P 2ac 2ab'
loop_
_symmetry_equiv_pos_site_id
_symmetry_equiv_pos_as_xyz
1 x,y,z
2 1/2-x,-y,1/2+z
3 1/2+x,1/2-y,-z
4 -x,1/2+y,1/2-z
_cell_length_a                   8.98190(10)
_cell_length_b                   13.5846(2)
_cell_length_c                   16.3968(2)
_cell_angle_alpha                90
_cell_angle_beta                 90
_cell_angle_gamma                90
_cell_volume                     2000.66
loop_
_atom_site_label
_atom_site_type_symbol
_atom_site_fract_x
_atom_site_fract_y
_atom_site_fract_z
Hg1 Hg -1.095440(16) 0.100890(11) 0.536000(8)
Cl1 Cl -1.30600(11) 0.11733(8) 0.45513(6)
Cl2 Cl -0.88717(11) 0.08542(9) 0.61874(6)
O1 O -0.4856(3) 0.3450(2) 0.11939(18)
O2 O -0.1791(3) 0.2228(2) 0.10063(17)
O3 O -0.7119(3) 0.1638(2) 0.13455(16)
O4 O 0.0295(3) 0.4160(2) 0.04910(15)
O5 O -0.1762(3) 0.4141(2) 0.12679(15)
C1 C -0.2639(4) 0.3894(3) 0.0555(2)
O6 O -0.5102(3) 0.1820(2) 0.21522(15)
C2 C -0.6808(4) 0.1710(3) 0.3549(2)
C3 C -0.6568(4) 0.1729(3) 0.2007(2)
C4 C -0.2803(4) 0.2760(3) 0.0498(2)
C5 C -0.4386(4) 0.2568(3) 0.0813(2)
C6 C 0.0554(4) 0.4239(2) 0.1928(2)
C7 C -0.7445(4) 0.1742(3) 0.2783(2)
N1 N -0.9227(4) 0.1650(2) 0.41641(19)
C8 C -0.8990(5) 0.1758(3) 0.2711(2)
C9 C -0.4147(4) 0.1766(3) 0.1451(2)
C10 C -0.2569(4) 0.1963(3) 0.1735(2)
C11 C -0.0289(4) 0.4178(3) 0.1152(2)
C12 C -0.7743(5) 0.1661(3) 0.4220(2)
C13 C 0.2092(4) 0.4226(3) 0.1890(2)
N2 N 0.2274(4) 0.4274(3) 0.33419(19)
C14 C -0.4220(4) 0.4221(3) 0.0718(3)
C15 C 0.2909(5) 0.4242(3) 0.2603(2)
C16 C -0.0125(4) 0.4278(3) 0.2697(2)
C17 C -0.9818(4) 0.1719(3) 0.3421(2)
C18 C 0.0777(5) 0.4289(3) 0.3379(2)
H1 H -0.2231 0.4183 0.0055
H2 H -0.5779 0.1721 0.3612
H3 H -0.2708 0.2543 -0.0070
H4 H -0.5066 0.2361 0.0378
H5 H -0.9447 0.1793 0.2202
H6 H -0.4214 0.1113 0.1199
H7 H -0.2549 0.2497 0.2127
H8 H -0.2137 0.1380 0.1981
H9 H -0.7317 0.1638 0.4737
H10 H 0.2572 0.4208 0.1388
H11 H -0.4240 0.4840 0.1012
H12 H -0.4760 0.4299 0.0210
H13 H 0.3942 0.4227 0.2569
H14 H -0.1156 0.4292 0.2747
H15 H -1.0849 0.1747 0.3379
H16 H 0.0330 0.4307 0.3891
N2B N -1.2726(4) 0.0726(3) 0.66581(19)
Hg1B Hg 0.404560(16) 0.399110(11) 0.464000(8)
loop_
_geom_bond_atom_site_label_1
_geom_bond_atom_site_label_2
_geom_bond_site_symmetry_1
_geom_bond_site_symmetry_2
Hg1 Cl1 1_555 1_555
Cl2 Hg1 1_555 1_555
O1 C5 1_555 1_555
O2 C4 1_555 1_555
O3 C3 1_555 1_555
O4 C11 1_555 1_555
O5 C1 1_555 1_555
C1 C4 1_555 1_555
O6 C3 1_555 1_555
C2 C7 1_555 1_555
C3 C7 1_555 1_555
C4 C5 1_555 1_555
C5 C9 1_555 1_555
C6 C11 1_555 1_555
C7 C8 1_555 1_555
N1 Hg1 1_555 1_555
C8 C17 1_555 1_555
C9 O6 1_555 1_555
C10 O2 1_555 1_555
C11 O5 1_555 1_555
C12 C2 1_555 1_555
C13 C6 1_555 1_555
N2 C15 1_555 1_555
C14 O1 1_555 1_555
C15 C13 1_555 1_555
C16 C6 1_555 1_555
C17 N1 1_555 1_555
C18 N2 1_555 1_555
H1 C1 1_555 1_555
H2 C2 1_555 1_555
H3 C4 1_555 1_555
H4 C5 1_555 1_555
H5 C8 1_555 1_555
H6 C9 1_555 1_555
H7 C10 1_555 1_555
H8 C10 1_555 1_555
H9 C12 1_555 1_555
H10 C13 1_555 1_555
H11 C14 1_555 1_555
H12 C14 1_555 1_555
H13 C15 1_555 1_555
H14 C16 1_555 1_555
H15 C17 1_555 1_555
H16 C18 1_555 1_555
N2B Hg1 1_555 1_555
Hg1B N2 1_555 1_555
C1 C14 1_555 1_555
N1 C12 1_555 1_555
C9 C10 1_555 1_555
C16 C18 1_555 1_555

#END
