
#######################################################################
#
#                 Cambridge Crystallographic Data Centre
#                                CCDC 
#
#######################################################################
#
# If this CIF has been generated from an entry in the Cambridge 
# Structural Database, then it will include bibliographic, chemical, 
# crystal, experimental, refinement or atomic coordinate data resulting 
# from the CCDC's data processing and validation procedures.
#
#######################################################################

data_BARZOL
_symmetry_cell_setting           monoclinic
_symmetry_space_group_name_H-M   'P 21/n'
_symmetry_Int_Tables_number      14
_space_group_name_Hall           '-P 2yn'
loop_
_symmetry_equiv_pos_site_id
_symmetry_equiv_pos_as_xyz
1 x,y,z
2 1/2-x,1/2+y,1/2-z
3 -x,-y,-z
4 1/2+x,1/2-y,1/2+z
_cell_length_a                   18.797(4)
_cell_length_b                   18.883(4)
_cell_length_c                   31.934(6)
_cell_angle_alpha                90
_cell_angle_beta                 90.69(3)
_cell_angle_gamma                90
_cell_volume                     11334
loop_
_atom_site_label
_atom_site_type_symbol
_atom_site_fract_x
_atom_site_fract_y
_atom_site_fract_z
Ag1 Ag 0.53616(5) 0.82413(6) -0.37496(3)
Ag2 Ag 1.03524(16) 0.78671(17) -0.47590(9)
Ag3 Ag 0.43319(5) 0.71766(7) -0.67370(3)
Ag4 Ag 0.20349(5) 0.95730(5) -0.29516(3)
N1 N 0.5437(6) 0.7672(6) -0.5344(3)
C1 C 0.5246(6) 0.7000(7) -0.5454(4)
C2 C 0.4876(6) 0.6902(7) -0.5844(4)
H1 H 0.4759 0.6449 -0.5935
N2 N 0.4703(6) 0.7453(6) -0.6072(3)
C3 C 0.4870(6) 0.8096(7) -0.5960(4)
H2 H 0.4757 0.8475 -0.6134
C4 C 0.5222(6) 0.8212(7) -0.5574(4)
N3 N 0.5455(6) 0.8873(5) -0.5441(3)
C5 C 0.5298(8) 0.9519(7) -0.5694(5)
H3 H 0.5483 0.9928 -0.5552
H4 H 0.4793 0.9567 -0.5731
H5 H 0.5517 0.9477 -0.5963
N4 N 0.6541(5) 0.9039(6) -0.5095(3)
C6 C 0.5847(6) 0.8951(6) -0.5066(4)
C7 C 0.5524(7) 0.8863(6) -0.4682(4)
H6 H 0.5032 0.8814 -0.4677
N5 N 0.5889(5) 0.8844(6) -0.4317(3)
C8 C 0.6586(6) 0.8969(6) -0.4351(4)
H7 H 0.6863 0.8995 -0.4108
C9 C 0.6904(6) 0.9059(6) -0.4725(4)
N6 N 0.7661(6) 0.9139(6) -0.4753(4)
C10 C 0.7947(8) 0.9677(7) -0.5047(4)
H8 H 0.8457 0.9684 -0.5027
H9 H 0.7763 1.0135 -0.4977
H10 H 0.7805 0.9558 -0.5329
N7 N 0.7691(6) 0.7921(6) -0.4594(3)
C11 C 0.8082(8) 0.8530(7) -0.4678(4)
C12 C 0.8824(7) 0.8511(7) -0.4708(4)
H11 H 0.9073 0.8925 -0.4762
N8 N 0.9178(6) 0.7898(6) -0.4658(3)
C13 C 0.8814(7) 0.7312(7) -0.4583(4)
H12 H 0.9058 0.6889 -0.4541
C14 C 0.8044(7) 0.7314(8) -0.4565(4)
N9 N 0.7681(6) 0.6715(6) -0.4505(3)
C15 C 0.7951(8) 0.6027(8) -0.4653(5)
H13 H 0.8462 0.6030 -0.4645
H14 H 0.7788 0.5946 -0.4935
H15 H 0.7779 0.5656 -0.4475
N10 N 0.6564(6) 0.6566(5) -0.4842(3)
C16 C 0.6912(8) 0.6780(7) -0.4498(4)
C17 C 0.6574(7) 0.7092(7) -0.4149(4)
H16 H 0.6846 0.7238 -0.3920
N11 N 0.5878(6) 0.7178(6) -0.4148(3)
C18 C 0.5496(8) 0.6938(7) -0.4482(5)
H17 H 0.5002 0.6962 -0.4483
C19 C 0.5866(8) 0.6643(6) -0.4838(4)
N12 N 0.5455(6) 0.6481(6) -0.5196(3)
C20 C 0.5291(8) 0.5733(8) -0.5274(5)
H18 H 0.5005 0.5692 -0.5524
H19 H 0.5035 0.5544 -0.5041
H20 H 0.5726 0.5474 -0.5309
N13 N 0.2695(5) 0.8050(5) -0.3899(3)
C21 C 0.3122(8) 0.7480(6) -0.3868(4)
C22 C 0.3865(7) 0.7546(7) -0.3832(4)
H21 H 0.4142 0.7141 -0.3803
N14 N 0.4165(6) 0.8150(6) -0.3837(4)
C23 C 0.3744(7) 0.8736(8) -0.3862(4)
H22 H 0.3957 0.9181 -0.3853
C24 C 0.3021(6) 0.8694(6) -0.3900(3)
N15 N 0.2575(5) 0.9273(6) -0.3906(4)
C25 C 0.2844(7) 0.9999(7) -0.3892(5)
H23 H 0.2451 1.0324 -0.3886
H24 H 0.3125 1.0088 -0.4135
H25 H 0.3134 1.0062 -0.3645
N16 N 0.1471(6) 0.9248(5) -0.3553(3)
C26 C 0.1850(6) 0.9139(6) -0.3900(4)
C27 C 0.1476(7) 0.8905(7) -0.4274(4)
H26 H 0.1733 0.8823 -0.4516
N17 N 0.0769(6) 0.8803(6) -0.4283(3)
C28 C 0.0418(7) 0.8879(7) -0.3912(4)
H27 H -0.0065 0.8775 -0.3900
C29 C 0.0789(6) 0.9116(6) -0.3538(4)
N18 N 0.0425(6) 0.9189(6) -0.3166(3)
C30 C 0.0134(8) 0.9877(7) -0.3035(5)
H28 H 0.0315 1.0244 -0.3212
H29 H 0.0272 0.9970 -0.2750
H30 H -0.0376 0.9866 -0.3057
N19 N 0.0488(5) 0.7962(6) -0.3135(3)
C31 C 0.0243(6) 0.8548(6) -0.2951(3)
C32 C -0.0088(7) 0.8557(7) -0.2566(4)
H31 H -0.0227 0.8986 -0.2450
N20 N -0.0205(6) 0.7974(7) -0.2369(4)
C33 C 0.0016(7) 0.7348(8) -0.2541(4)
H32 H -0.0052 0.6922 -0.2401
C34 C 0.0344(6) 0.7361(7) -0.2930(4)
N21 N 0.0567(7) 0.6762(6) -0.3126(4)
C35 C 0.0724(12) 0.6105(8) -0.2882(6)
H33 H 0.0883 0.5741 -0.3068
H34 H 0.0301 0.5951 -0.2744
H35 H 0.1090 0.6202 -0.2677
N22 N 0.1664(6) 0.6740(6) -0.3499(4)
C36 C 0.0970(7) 0.6832(7) -0.3512(4)
C37 C 0.0593(7) 0.7010(6) -0.3872(4)
H36 H 0.0100 0.7054 -0.3868
N23 N 0.0945(6) 0.7116(6) -0.4217(4)
C38 C 0.1637(7) 0.7024(7) -0.4218(5)
H37 H 0.1881 0.7078 -0.4467
C39 C 0.2009(6) 0.6852(6) -0.3861(4)
N24 N 0.2777(6) 0.6834(6) -0.3859(4)
C40 C 0.3139(7) 0.6202(7) -0.3696(5)
H38 H 0.3644 0.6267 -0.3710
H39 H 0.3003 0.5798 -0.3861
H40 H 0.3005 0.6126 -0.3410
N25 N 0.6943(6) 0.7447(5) -0.0981(3)
C41 C 0.6811(7) 0.6778(9) -0.0850(4)
C42 C 0.6385(6) 0.6652(7) -0.0484(4)
H41 H 0.6292 0.6193 -0.0394
N26 N 0.6127(6) 0.7213(6) -0.0276(4)
C43 C 0.6250(7) 0.7879(9) -0.0421(4)
H42 H 0.6051 0.8268 -0.0287
C44 C 0.6681(7) 0.7973(7) -0.0772(4)
N27 N 0.6824(6) 0.8636(6) -0.0937(3)
C45 C 0.6398(11) 0.9273(8) -0.0786(6)
H43 H 0.6143 0.9147 -0.0538
H44 H 0.6068 0.9417 -0.1001
H45 H 0.6717 0.9657 -0.0723
N28 N 0.6889(6) 0.8922(6) -0.1645(3)
C46 C 0.7241(6) 0.8717(6) -0.1295(4)
C47 C 0.7942(7) 0.8515(6) -0.1302(4)
H46 H 0.8144 0.8317 -0.1062
N29 N 0.8347(5) 0.8591(6) -0.1643(3)
C48 C 0.8013(6) 0.8823(7) -0.1984(4)
H47 H 0.8280 0.8882 -0.2225
C49 C 0.7324(7) 0.8978(7) -0.2006(4)
N30 N 0.6943(6) 0.9134(6) -0.2381(3)
C50 C 0.6861(9) 0.9859(8) -0.2504(5)
H48 H 0.7068 1.0161 -0.2293
H49 H 0.6364 0.9967 -0.2535
H50 H 0.7096 0.9935 -0.2765
N31 N 0.6864(5) 0.7936(6) -0.2465(4)
C51 C 0.6709(7) 0.8579(8) -0.2605(4)
C52 C 0.6313(6) 0.8654(7) -0.2997(4)
H51 H 0.6222 0.9101 -0.3108
N32 N 0.6087(5) 0.8084(6) -0.3190(3)
C53 C 0.6257(6) 0.7435(7) -0.3064(4)
H52 H 0.6119 0.7039 -0.3218
C54 C 0.6661(8) 0.7363(10) -0.2684(5)
N33 N 0.6823(6) 0.6690(5) -0.2522(3)
C55 C 0.6374(8) 0.6072(7) -0.2623(4)
H53 H 0.6111 0.6162 -0.2877
H54 H 0.6048 0.5989 -0.2399
H55 H 0.6669 0.5662 -0.2659
N34 N 0.6962(6) 0.6402(6) -0.1800(4)
C56 C 0.7261(8) 0.6673(7) -0.2163(4)
C57 C 0.7945(6) 0.6960(6) -0.2154(4)
H56 H 0.8107 0.7181 -0.2395
N35 N 0.8368(6) 0.6938(6) -0.1834(3)
C58 C 0.8096(7) 0.6638(8) -0.1466(4)
H57 H 0.8386 0.6598 -0.1230
C59 C 0.7404(7) 0.6403(6) -0.1455(4)
N36 N 0.7109(6) 0.6205(5) -0.1075(3)
C60 C 0.6840(13) 0.5480(10) -0.1011(5)
H58 H 0.7094 0.5158 -0.1187
H59 H 0.6342 0.5464 -0.1081
H60 H 0.6908 0.5347 -0.0723
N37 N 0.2262(5) 1.2195(6) -0.2711(4)
C61 C 0.2760(7) 1.1829(7) -0.2908(4)
C62 C 0.2739(6) 1.1098(6) -0.2927(4)
H61 H 0.3103 1.0852 -0.3057
N38 N 0.2199(5) 1.0746(6) -0.2760(4)
C63 C 0.1683(7) 1.1100(7) -0.2580(5)
H62 H 0.1294 1.0859 -0.2473
C64 C 0.1719(6) 1.1849(7) -0.2548(4)
N39 N 0.1230(6) 1.2239(5) -0.2356(4)
C65 C 0.0499(7) 1.1943(6) -0.2305(5)
H63 H 0.0528 1.1440 -0.2268
H64 H 0.0218 1.2048 -0.2550
H65 H 0.0282 1.2152 -0.2064
N40 N 0.0844(5) 1.3297(5) -0.2711(3)
C66 C 0.1254(6) 1.2978(6) -0.2404(4)
C67 C 0.1734(7) 1.3365(7) -0.2178(4)
H66 H 0.2011 1.3137 -0.1975
N41 N 0.1823(6) 1.4066(5) -0.2236(3)
C68 C 0.1454(6) 1.4347(7) -0.2540(4)
H67 H 0.1527 1.4822 -0.2605
C69 C 0.0950(6) 1.3962(7) -0.2772(4)
N42 N 0.0569(6) 1.4305(6) -0.3105(4)
C70 C -0.0197(7) 1.4195(9) -0.3125(5)
H68 H -0.0362 1.4041 -0.2856
H69 H -0.0306 1.3840 -0.3331
H70 H -0.0429 1.4630 -0.3200
N43 N 0.1636(6) 1.4375(6) -0.3463(3)
C71 C 0.0955(7) 1.4525(7) -0.3468(4)
C72 C 0.0617(10) 1.4871(9) -0.3791(5)
H71 H 0.0133 1.4971 -0.3780
N44 N 0.1011(7) 1.5066(8) -0.4129(4)
C73 C 0.1689(10) 1.4942(8) -0.4137(5)
H72 H 0.1956 1.5102 -0.4362
C74 C 0.2043(10) 1.4546(8) -0.3790(5)
N45 N 0.2734(6) 1.4333(6) -0.3776(4)
C75 C 0.3091(11) 1.4238(12) -0.4186(5)
H73 H 0.3575 1.4094 -0.4139
H74 H 0.3083 1.4678 -0.4337
H75 H 0.2846 1.3882 -0.4346
N46 N 0.3069(6) 1.3289(6) -0.3444(3)
C76 C 0.2977(7) 1.3991(6) -0.3426(4)
C77 C 0.3081(7) 1.4356(6) -0.3047(4)
H76 H 0.3025 1.4845 -0.3043
N47 N 0.3252(5) 1.4028(6) -0.2700(3)
C78 C 0.3346(7) 1.3331(6) -0.2707(5)
H77 H 0.3488 1.3090 -0.2466
C79 C 0.3230(7) 1.2973(8) -0.3076(5)
N48 N 0.3318(6) 1.2233(6) -0.3090(5)
C80 C 0.3738(10) 1.1897(9) -0.3428(5)
H78 H 0.3750 1.1393 -0.3386
H79 H 0.4215 1.2080 -0.3421
H80 H 0.3522 1.1999 -0.3695
Ag2_2 Ag 0.03524(16) 0.78671(17) -0.47590(9)
Ag2C Ag 0.53524(16) 0.71329(17) 0.02410(9)
Ag3C Ag -0.06681(5) 0.78234(7) -0.17370(3)
Ag3C_2 Ag 0.93319(5) 0.78234(7) -0.17370(3)
Ag4A Ag 0.29651(5) 1.45730(5) -0.20484(3)
N17_2 N 1.0769(6) 0.8803(6) -0.4283(3)
N20C N 0.4795(6) 0.7026(7) -0.7369(4)
N23_2 N 1.0945(6) 0.7116(6) -0.4217(4)
N26C N 1.1127(6) 0.7787(6) -0.5276(4)
N29C N 0.3347(5) 0.6409(6) -0.6643(3)
N35C N 0.3368(6) 0.8062(6) -0.6834(3)
N41A N 0.3177(6) 0.9066(5) -0.2764(3)
N47A N 0.1748(5) 0.9028(6) -0.2300(3)
B1 B 1.0057(13) 0.5179(14) -0.1859(7)
F1 F 0.9755(6) 0.5869(6) -0.1855(4)
F2 F 0.9701(7) 0.4815(6) -0.1555(3)
F3 F 0.9905(5) 0.4876(6) -0.2234(3)
F4 F 1.0763(5) 0.5259(5) -0.1772(3)
B2 B 0.8215(14) 0.8914(15) 0.0032(7)
F5 F 0.7663(10) 0.8643(17) 0.0105(6)
F6 F 0.8145(14) 0.9608(11) 0.0005(6)
F7 F 0.8740(10) 0.8746(11) 0.0323(5)
F8 F 0.8491(9) 0.8721(9) -0.0353(5)
B3 B 0.0103(13) 1.0131(14) -0.1667(7)
F9 F 0.0321(9) 0.9666(9) -0.1383(5)
F10 F -0.0059(9) 1.0807(7) -0.1499(4)
F11 F -0.0497(7) 0.9909(8) -0.1868(5)
F12 F 0.0608(6) 1.0253(6) -0.1978(4)
B4 B 0.6727(8) 0.3668(12) -0.1668(5)
F13 F 0.6618(18) 0.4316(14) -0.1824(10)
F14 F 0.7292(8) 0.3547(16) -0.1427(5)
F15 F 0.6153(9) 0.3685(15) -0.1428(6)
F16 F 0.6688(9) 0.3234(9) -0.2001(5)
O1 O 0.292(3) 1.042(2) -0.209(2)
Ag5? Ag 0.0212(15) 0.7891(19) -0.4756(12)
loop_
_geom_bond_atom_site_label_1
_geom_bond_atom_site_label_2
_geom_bond_site_symmetry_1
_geom_bond_site_symmetry_2
Ag1 N5 1_555 1_555
Ag2 N8 1_555 1_555
Ag3 N2 1_555 1_555
Ag4 N16 1_555 1_555
N1 C1 1_555 1_555
C1 C2 1_555 1_555
C2 H1 1_555 1_555
N2 C2 1_555 1_555
C3 N2 1_555 1_555
H2 C3 1_555 1_555
C4 N1 1_555 1_555
N3 C4 1_555 1_555
C5 N3 1_555 1_555
H3 C5 1_555 1_555
H4 C5 1_555 1_555
H5 C5 1_555 1_555
N4 C6 1_555 1_555
C6 N3 1_555 1_555
C7 C6 1_555 1_555
H6 C7 1_555 1_555
N5 C7 1_555 1_555
C8 N5 1_555 1_555
H7 C8 1_555 1_555
C9 N4 1_555 1_555
N6 C9 1_555 1_555
C10 N6 1_555 1_555
H8 C10 1_555 1_555
H9 C10 1_555 1_555
H10 C10 1_555 1_555
N7 C11 1_555 1_555
C11 N6 1_555 1_555
C12 C11 1_555 1_555
H11 C12 1_555 1_555
N8 C12 1_555 1_555
C13 N8 1_555 1_555
H12 C13 1_555 1_555
C14 N7 1_555 1_555
N9 C14 1_555 1_555
C15 N9 1_555 1_555
H13 C15 1_555 1_555
H14 C15 1_555 1_555
H15 C15 1_555 1_555
N10 C16 1_555 1_555
C16 N9 1_555 1_555
C17 C16 1_555 1_555
H16 C17 1_555 1_555
N11 Ag1 1_555 1_555
C18 N11 1_555 1_555
H17 C18 1_555 1_555
C19 N10 1_555 1_555
N12 C1 1_555 1_555
C20 N12 1_555 1_555
H18 C20 1_555 1_555
H19 C20 1_555 1_555
H20 C20 1_555 1_555
N13 C21 1_555 1_555
C21 C22 1_555 1_555
C22 H21 1_555 1_555
N14 Ag1 1_555 1_555
C23 N14 1_555 1_555
H22 C23 1_555 1_555
C24 N13 1_555 1_555
N15 C24 1_555 1_555
C25 N15 1_555 1_555
H23 C25 1_555 1_555
H24 C25 1_555 1_555
H25 C25 1_555 1_555
N16 C26 1_555 1_555
C26 N15 1_555 1_555
C27 C26 1_555 1_555
H26 C27 1_555 1_555
N17 C27 1_555 1_555
C28 N17 1_555 1_555
H27 C28 1_555 1_555
C29 N16 1_555 1_555
N18 C29 1_555 1_555
C30 N18 1_555 1_555
H28 C30 1_555 1_555
H29 C30 1_555 1_555
H30 C30 1_555 1_555
N19 C31 1_555 1_555
C31 N18 1_555 1_555
C32 C31 1_555 1_555
H31 C32 1_555 1_555
N20 C32 1_555 1_555
C33 N20 1_555 1_555
H32 C33 1_555 1_555
C34 N19 1_555 1_555
N21 C34 1_555 1_555
C35 N21 1_555 1_555
H33 C35 1_555 1_555
H34 C35 1_555 1_555
H35 C35 1_555 1_555
N22 C36 1_555 1_555
C36 N21 1_555 1_555
C37 C36 1_555 1_555
H36 C37 1_555 1_555
N23 C37 1_555 1_555
C38 N23 1_555 1_555
H37 C38 1_555 1_555
C39 N22 1_555 1_555
N24 C21 1_555 1_555
C40 N24 1_555 1_555
H38 C40 1_555 1_555
H39 C40 1_555 1_555
H40 C40 1_555 1_555
N25 C41 1_555 1_555
C41 C42 1_555 1_555
C42 H41 1_555 1_555
N26 C42 1_555 1_555
C43 N26 1_555 1_555
H42 C43 1_555 1_555
C44 N25 1_555 1_555
N27 C44 1_555 1_555
C45 N27 1_555 1_555
H43 C45 1_555 1_555
H44 C45 1_555 1_555
H45 C45 1_555 1_555
N28 C46 1_555 1_555
C46 N27 1_555 1_555
C47 C46 1_555 1_555
H46 C47 1_555 1_555
N29 C47 1_555 1_555
C48 N29 1_555 1_555
H47 C48 1_555 1_555
C49 N28 1_555 1_555
N30 C49 1_555 1_555
C50 N30 1_555 1_555
H48 C50 1_555 1_555
H49 C50 1_555 1_555
H50 C50 1_555 1_555
N31 C51 1_555 1_555
C51 N30 1_555 1_555
C52 C51 1_555 1_555
H51 C52 1_555 1_555
N32 Ag1 1_555 1_555
C53 N32 1_555 1_555
H52 C53 1_555 1_555
C54 N31 1_555 1_555
N33 C54 1_555 1_555
C55 N33 1_555 1_555
H53 C55 1_555 1_555
H54 C55 1_555 1_555
H55 C55 1_555 1_555
N34 C56 1_555 1_555
C56 N33 1_555 1_555
C57 C56 1_555 1_555
H56 C57 1_555 1_555
N35 C57 1_555 1_555
C58 N35 1_555 1_555
H57 C58 1_555 1_555
C59 N34 1_555 1_555
N36 C41 1_555 1_555
C60 N36 1_555 1_555
H58 C60 1_555 1_555
H59 C60 1_555 1_555
H60 C60 1_555 1_555
N37 C61 1_555 1_555
C61 C62 1_555 1_555
C62 H61 1_555 1_555
N38 Ag4 1_555 1_555
C63 N38 1_555 1_555
H62 C63 1_555 1_555
C64 N37 1_555 1_555
N39 C64 1_555 1_555
C65 N39 1_555 1_555
H63 C65 1_555 1_555
H64 C65 1_555 1_555
H65 C65 1_555 1_555
N40 C66 1_555 1_555
C66 N39 1_555 1_555
C67 C66 1_555 1_555
H66 C67 1_555 1_555
N41 C67 1_555 1_555
C68 N41 1_555 1_555
H67 C68 1_555 1_555
C69 N40 1_555 1_555
N42 C69 1_555 1_555
C70 N42 1_555 1_555
H68 C70 1_555 1_555
H69 C70 1_555 1_555
H70 C70 1_555 1_555
N43 C71 1_555 1_555
C71 N42 1_555 1_555
C72 C71 1_555 1_555
H71 C72 1_555 1_555
N44 C72 1_555 1_555
C73 N44 1_555 1_555
H72 C73 1_555 1_555
C74 N43 1_555 1_555
N45 C74 1_555 1_555
C75 N45 1_555 1_555
H73 C75 1_555 1_555
H74 C75 1_555 1_555
H75 C75 1_555 1_555
N46 C76 1_555 1_555
C76 N45 1_555 1_555
C77 C76 1_555 1_555
H76 C77 1_555 1_555
N47 C77 1_555 1_555
C78 N47 1_555 1_555
H77 C78 1_555 1_555
C79 N46 1_555 1_555
N48 C61 1_555 1_555
C80 N48 1_555 1_555
H78 C80 1_555 1_555
H79 C80 1_555 1_555
H80 C80 1_555 1_555
B1 F1 1_555 1_555
F2 B1 1_555 1_555
F3 B1 1_555 1_555
F4 B1 1_555 1_555
B2 F5 1_555 1_555
F6 B2 1_555 1_555
F7 B2 1_555 1_555
F8 B2 1_555 1_555
B3 F9 1_555 1_555
F10 B3 1_555 1_555
F11 B3 1_555 1_555
F12 B3 1_555 1_555
B4 F13 1_555 1_555
F14 B4 1_555 1_555
F15 B4 1_555 1_555
F16 B4 1_555 1_555
Ag2_2 N17 1_555 1_555
Ag2C N26 1_555 1_555
Ag3C N20 1_555 1_555
Ag3C_2 N29 1_555 1_555
Ag4A N41 1_555 1_555
N17_2 Ag2 1_555 1_555
N20C Ag3 1_555 1_555
N23_2 Ag2 1_555 1_555
N26C Ag2 1_555 1_555
N29C Ag3 1_555 1_555
N35C Ag3 1_555 1_555
N41A Ag4 1_555 1_555
N47A Ag4 1_555 1_555
C3 C4 1_555 1_555
C8 C9 1_555 1_555
C13 C14 1_555 1_555
C17 N11 1_555 1_555
C18 C19 1_555 1_555
C19 N12 1_555 1_555
C22 N14 1_555 1_555
C23 C24 1_555 1_555
C28 C29 1_555 1_555
C33 C34 1_555 1_555
N23 Ag2_2 1_555 1_555
C38 C39 1_555 1_555
C39 N24 1_555 1_555
C43 C44 1_555 1_555
C48 C49 1_555 1_555
C52 N32 1_555 1_555
C53 C54 1_555 1_555
N35 Ag3C_2 1_555 1_555
C58 C59 1_555 1_555
C59 N36 1_555 1_555
C62 N38 1_555 1_555
C63 C64 1_555 1_555
C68 C69 1_555 1_555
C73 C74 1_555 1_555
N47 Ag4A 1_555 1_555
C78 C79 1_555 1_555
C79 N48 1_555 1_555

#END
