
#######################################################################
#
#                 Cambridge Crystallographic Data Centre
#                                CCDC 
#
#######################################################################
#
# If this CIF has been generated from an entry in the Cambridge 
# Structural Database, then it will include bibliographic, chemical, 
# crystal, experimental, refinement or atomic coordinate data resulting 
# from the CCDC's data processing and validation procedures.
#
#######################################################################

data_BARZIF
_symmetry_cell_setting           monoclinic
_symmetry_space_group_name_H-M   'C 2/c'
_symmetry_Int_Tables_number      15
_space_group_name_Hall           '-C 2yn'
loop_
_symmetry_equiv_pos_site_id
_symmetry_equiv_pos_as_xyz
1 x,y,z
2 -x,y,1/2-z
3 1/2+x,1/2+y,z
4 1/2-x,1/2+y,1/2-z
5 -x,-y,-z
6 x,-y,1/2+z
7 1/2-x,1/2-y,-z
8 1/2+x,1/2-y,1/2+z
_cell_length_a                   28.615(6)
_cell_length_b                   13.315(3)
_cell_length_c                   18.187(4)
_cell_angle_alpha                90
_cell_angle_beta                 113.32(3)
_cell_angle_gamma                90
_cell_volume                     6363.33
loop_
_atom_site_label
_atom_site_type_symbol
_atom_site_fract_x
_atom_site_fract_y
_atom_site_fract_z
Ag1 Ag 0.733863(17) 1.03003(3) 0.17187(3)
Ag2 Ag 0.5000 0.53795(7) 0.2500
N1 N 0.64302(18) 0.7120(4) 0.1845(3)
C1 C 0.6765(2) 0.7566(4) 0.2503(3)
C2 C 0.6990(2) 0.8478(4) 0.2467(4)
H1 H 0.7216 0.8794 0.2945
N2 N 0.6887(2) 0.8910(4) 0.1755(3)
C3 C 0.6550(3) 0.8493(5) 0.1083(4)
H2 H 0.6470 0.8809 0.0579
C4 C 0.6316(2) 0.7583(5) 0.1134(4)
N3 N 0.5955(2) 0.7126(4) 0.0479(3)
C5 C 0.5900(4) 0.7367(7) -0.0342(4)
H3 H 0.6049 0.8028 -0.0348
H4 H 0.5539 0.7375 -0.0698
H5 H 0.6077 0.6857 -0.0527
N4 N 0.59746(18) 0.5349(4) 0.0488(3)
C6 C 0.5765(2) 0.6196(5) 0.0614(3)
C7 C 0.5387(2) 0.6175(5) 0.0919(3)
H6 H 0.5240 0.6790 0.0987
N5 N 0.52247(19) 0.5308(4) 0.1119(3)
C8 C 0.5443(2) 0.4468(5) 0.0998(3)
H7 H 0.5343 0.3838 0.1134
C9 C 0.5812(2) 0.4494(4) 0.0679(3)
N6 N 0.60237(19) 0.3584(4) 0.0544(3)
C10 C 0.6087(3) 0.3482(6) -0.0216(4)
H8 H 0.6234 0.2824 -0.0236
H9 H 0.6313 0.4012 -0.0256
H10 H 0.5754 0.3543 -0.0664
N7 N 0.64426(17) 0.3481(4) 0.1926(3)
C11 C 0.6354(2) 0.3065(4) 0.1208(3)
C12 C 0.6589(2) 0.2165(4) 0.1146(4)
H11 H 0.6523 0.1881 0.0635
N8 N 0.69079(18) 0.1706(4) 0.1813(3)
C13 C 0.6993(2) 0.2103(4) 0.2532(3)
H12 H 0.7215 0.1775 0.3006
C14 C 0.6755(2) 0.2997(4) 0.2582(3)
N9 N 0.68444(17) 0.3486(4) 0.3293(3)
C15 C 0.7181(2) 0.3074(5) 0.4071(4)
H13 H 0.7314 0.2423 0.3991
H14 H 0.6990 0.2987 0.4410
H15 H 0.7465 0.3538 0.4331
N10 N 0.68632(17) 0.5262(3) 0.3271(3)
C16 C 0.6604(2) 0.4417(4) 0.3248(3)
C17 C 0.6092(2) 0.4450(5) 0.3119(3)
H16 H 0.5918 0.3840 0.3115
N11 N 0.58383(18) 0.5313(4) 0.3002(3)
C18 C 0.6100(2) 0.6163(5) 0.3036(3)
H17 H 0.5932 0.6794 0.2966
C19 C 0.6607(2) 0.6129(4) 0.3169(3)
N12 N 0.68867(17) 0.7027(3) 0.3203(3)
C20 C 0.7187(2) 0.7455(5) 0.3995(3)
H18 H 0.7361 0.8063 0.3933
H19 H 0.7439 0.6963 0.4318
H20 H 0.6960 0.7626 0.4264
N13 N 0.7101(3) 1.0045(4) -0.0305(4)
O1 O 0.6887(2) 1.0421(4) 0.0092(3)
O2 O 0.7552(2) 1.0267(4) -0.0181(3)
O3 O 0.6873(3) 0.9447(6) -0.0851(5)
N14 N 0.5000 0.2504(9) 0.2500
O4 O 0.5000 0.3304(8) 0.2500
O5 O 0.4563(5) 0.2088(9) 0.2281(8)
O7 O 0.5000 0.7384(8) 0.2500
Ag1A Ag 0.266137(17) 1.03003(3) 0.32813(3)
Ag1_2 Ag 0.733863(17) 0.03003(3) 0.17187(3)
Ag1C Ag 0.766137(17) 0.53003(3) 0.32813(3)
Ag1A_2 Ag 0.266137(17) 0.03003(3) 0.32813(3)
Ag1B Ag 0.233863(17) 0.53003(3) 0.17187(3)
N1A N 0.35698(18) 0.7120(4) 0.3155(3)
C1A C 0.3235(2) 0.7566(4) 0.2497(3)
C2A C 0.3010(2) 0.8478(4) 0.2533(4)
H1A H 0.2784 0.8794 0.2055
N2A N 0.3113(2) 0.8910(4) 0.3245(3)
C3A C 0.3450(3) 0.8493(5) 0.3917(4)
H2A H 0.3530 0.8809 0.4421
C4A C 0.3684(2) 0.7583(5) 0.3866(4)
N3A N 0.4045(2) 0.7126(4) 0.4521(3)
C5A C 0.4100(4) 0.7367(7) 0.5342(4)
H3A H 0.3951 0.8028 0.5348
H4A H 0.4461 0.7375 0.5698
H5A H 0.3923 0.6857 0.5527
N4A N 0.40254(18) 0.5349(4) 0.4512(3)
C6A C 0.4235(2) 0.6196(5) 0.4386(3)
C7A C 0.4613(2) 0.6175(5) 0.4081(3)
H6A H 0.4760 0.6790 0.4013
N5A N 0.47753(19) 0.5308(4) 0.3881(3)
C8A C 0.4557(2) 0.4468(5) 0.4002(3)
H7A H 0.4657 0.3838 0.3866
C9A C 0.4188(2) 0.4494(4) 0.4321(3)
N6A N 0.39763(19) 0.3584(4) 0.4456(3)
C10A C 0.3913(3) 0.3482(6) 0.5216(4)
H8A H 0.3766 0.2824 0.5236
H9A H 0.3687 0.4012 0.5256
H10A H 0.4246 0.3543 0.5664
N7A N 0.35574(17) 0.3481(4) 0.3074(3)
C11A C 0.3646(2) 0.3065(4) 0.3792(3)
C12A C 0.3411(2) 0.2165(4) 0.3854(4)
H11A H 0.3477 0.1881 0.4365
N8A N 0.30921(18) 0.1706(4) 0.3187(3)
N8_2 N 0.69079(18) 1.1706(4) 0.1813(3)
N8A_2 N 0.30921(18) 1.1706(4) 0.3187(3)
C13A C 0.3007(2) 0.2103(4) 0.2468(3)
H12A H 0.2785 0.1775 0.1994
C14A C 0.3245(2) 0.2997(4) 0.2418(3)
N9A N 0.31556(17) 0.3486(4) 0.1707(3)
C15A C 0.2819(2) 0.3074(5) 0.0929(4)
H13A H 0.2686 0.2423 0.1009
H14A H 0.3010 0.2987 0.0590
H15A H 0.2535 0.3538 0.0669
N10A N 0.31368(17) 0.5262(3) 0.1729(3)
N10C N 0.81368(17) 1.0262(3) 0.1729(3)
N10B N 0.18632(17) 1.0262(3) 0.3271(3)
C16A C 0.3396(2) 0.4417(4) 0.1752(3)
C17A C 0.3908(2) 0.4450(5) 0.1881(3)
H16A H 0.4082 0.3840 0.1885
N11A N 0.41617(18) 0.5313(4) 0.1998(3)
C18A C 0.3900(2) 0.6163(5) 0.1964(3)
H17A H 0.4068 0.6794 0.2034
C19A C 0.3393(2) 0.6129(4) 0.1831(3)
N12A N 0.31133(17) 0.7027(3) 0.1797(3)
C20A C 0.2813(2) 0.7455(5) 0.1005(3)
H18A H 0.2639 0.8063 0.1067
H19A H 0.2561 0.6963 0.0682
H20A H 0.3040 0.7626 0.0736
N13A N 0.2899(3) 1.0045(4) 0.5305(4)
O1A O 0.3113(2) 1.0421(4) 0.4908(3)
O2A O 0.2448(2) 1.0267(4) 0.5181(3)
O3A O 0.3127(3) 0.9447(6) 0.5851(5)
O5A O 0.5437(5) 0.2088(9) 0.2719(8)
O6 O 0.78110(19) 1.0349(4) 0.3494(3)
H21 H 0.7734 1.0171 0.3876
H22 H 0.8130 1.0315 0.3711
O8 O 0.5785(5) 0.9731(8) -0.1379(11)
H23 H 0.6101 0.9653 -0.1229
H24 H 0.5682 0.9202 -0.1647
loop_
_geom_bond_atom_site_label_1
_geom_bond_atom_site_label_2
_geom_bond_site_symmetry_1
_geom_bond_site_symmetry_2
Ag1 N2 1_555 1_555
Ag2 N11 1_555 1_555
N1 C1 1_555 1_555
C1 C2 1_555 1_555
C2 H1 1_555 1_555
N2 C2 1_555 1_555
C3 N2 1_555 1_555
H2 C3 1_555 1_555
C4 N1 1_555 1_555
N3 C4 1_555 1_555
C5 N3 1_555 1_555
H3 C5 1_555 1_555
H4 C5 1_555 1_555
H5 C5 1_555 1_555
N4 C6 1_555 1_555
C6 N3 1_555 1_555
C7 C6 1_555 1_555
H6 C7 1_555 1_555
N5 C7 1_555 1_555
C8 N5 1_555 1_555
H7 C8 1_555 1_555
C9 N4 1_555 1_555
N6 C9 1_555 1_555
C10 N6 1_555 1_555
H8 C10 1_555 1_555
H9 C10 1_555 1_555
H10 C10 1_555 1_555
N7 C11 1_555 1_555
C11 N6 1_555 1_555
C12 C11 1_555 1_555
H11 C12 1_555 1_555
N8 C12 1_555 1_555
C13 N8 1_555 1_555
H12 C13 1_555 1_555
C14 N7 1_555 1_555
N9 C14 1_555 1_555
C15 N9 1_555 1_555
H13 C15 1_555 1_555
H14 C15 1_555 1_555
H15 C15 1_555 1_555
N10 C16 1_555 1_555
C16 N9 1_555 1_555
C17 C16 1_555 1_555
H16 C17 1_555 1_555
N11 C17 1_555 1_555
C18 N11 1_555 1_555
H17 C18 1_555 1_555
C19 N10 1_555 1_555
N12 C1 1_555 1_555
C20 N12 1_555 1_555
H18 C20 1_555 1_555
H19 C20 1_555 1_555
H20 C20 1_555 1_555
N13 O1 1_555 1_555
O1 Ag1 1_555 1_555
O2 N13 1_555 1_555
O3 N13 1_555 1_555
N14 O4 1_555 1_555
O4 Ag2 1_555 1_555
O5 N14 1_555 1_555
O6 H21 1_555 1_555
H22 O6 1_555 1_555
O7 Ag2 1_555 1_555
O8 H23 1_555 1_555
H24 O8 1_555 1_555
Ag1A N2A 1_555 1_555
Ag1_2 N8 1_555 1_555
Ag1C N10 1_555 1_555
Ag1A_2 N8A 1_555 1_555
Ag1B N10A 1_555 1_555
N1A C1A 1_555 1_555
C1A C2A 1_555 1_555
C2A H1A 1_555 1_555
N2A C2A 1_555 1_555
C3A N2A 1_555 1_555
H2A C3A 1_555 1_555
C4A N1A 1_555 1_555
N3A C4A 1_555 1_555
C5A N3A 1_555 1_555
H3A C5A 1_555 1_555
H4A C5A 1_555 1_555
H5A C5A 1_555 1_555
N4A C6A 1_555 1_555
C6A N3A 1_555 1_555
C7A C6A 1_555 1_555
H6A C7A 1_555 1_555
N5A C7A 1_555 1_555
C8A N5A 1_555 1_555
H7A C8A 1_555 1_555
C9A N4A 1_555 1_555
N6A C9A 1_555 1_555
C10A N6A 1_555 1_555
H8A C10A 1_555 1_555
H9A C10A 1_555 1_555
H10A C10A 1_555 1_555
N7A C11A 1_555 1_555
C11A N6A 1_555 1_555
C12A C11A 1_555 1_555
H11A C12A 1_555 1_555
N8A C12A 1_555 1_555
N8_2 Ag1 1_555 1_555
N8A_2 Ag1A 1_555 1_555
C13A N8A 1_555 1_555
H12A C13A 1_555 1_555
C14A N7A 1_555 1_555
N9A C14A 1_555 1_555
C15A N9A 1_555 1_555
H13A C15A 1_555 1_555
H14A C15A 1_555 1_555
H15A C15A 1_555 1_555
N10A C16A 1_555 1_555
N10C Ag1 1_555 1_555
N10B Ag1A 1_555 1_555
C16A N9A 1_555 1_555
C17A C16A 1_555 1_555
H16A C17A 1_555 1_555
N11A Ag2 1_555 1_555
C18A N11A 1_555 1_555
H17A C18A 1_555 1_555
C19A N10A 1_555 1_555
N12A C1A 1_555 1_555
C20A N12A 1_555 1_555
H18A C20A 1_555 1_555
H19A C20A 1_555 1_555
H20A C20A 1_555 1_555
N13A O1A 1_555 1_555
O1A Ag1A 1_555 1_555
O2A N13A 1_555 1_555
O3A N13A 1_555 1_555
O5A N14 1_555 1_555
C3 C4 1_555 1_555
C8 C9 1_555 1_555
C13 C14 1_555 1_555
C18 C19 1_555 1_555
C19 N12 1_555 1_555
C3A C4A 1_555 1_555
C8A C9A 1_555 1_555
C13A C14A 1_555 1_555
C17A N11A 1_555 1_555
C18A C19A 1_555 1_555
C19A N12A 1_555 1_555

#END
