
#######################################################################
#
#                 Cambridge Crystallographic Data Centre
#                                CCDC 
#
#######################################################################
#
# If this CIF has been generated from an entry in the Cambridge 
# Structural Database, then it will include bibliographic, chemical, 
# crystal, experimental, refinement or atomic coordinate data resulting 
# from the CCDC's data processing and validation procedures.
#
#######################################################################

data_BASBAA
_symmetry_cell_setting           orthorhombic
_symmetry_space_group_name_H-M   'P m m n'
_symmetry_Int_Tables_number      59
_space_group_name_Hall           '-P 2ab 2a'
loop_
_symmetry_equiv_pos_site_id
_symmetry_equiv_pos_as_xyz
1 x,y,z
2 1/2-x,1/2-y,z
3 1/2+x,-y,-z
4 -x,1/2+y,-z
5 -x,-y,-z
6 1/2+x,1/2+y,-z
7 1/2-x,y,z
8 x,1/2-y,z
_cell_length_a                   24.142(2)
_cell_length_b                   35.780(7)
_cell_length_c                   9.2090(10)
_cell_angle_alpha                90
_cell_angle_beta                 90
_cell_angle_gamma                90
_cell_volume                     7954.74
loop_
_atom_site_label
_atom_site_type_symbol
_atom_site_fract_x
_atom_site_fract_y
_atom_site_fract_z
Cu1 Cu 0.50677(5) 0.7500 0.18964(12)
Cu2 Cu 0.50716(6) 0.78416(3) -0.07049(10)
Cu3 Cu 0.2500 0.96292(4) 0.43956(17)
Cu4 Cu 0.7500 0.97066(4) 0.44831(17)
I1 I 0.60263(4) 0.7500 0.05481(8)
I2 I 0.41109(3) 0.7500 0.05069(7)
I3 I 0.50866(4) 0.7500 -0.31765(7)
I4 I 0.2500 0.96993(2) 0.72254(9)
I5 I 0.2500 1.022772(19) 0.26866(9)
N1 N 0.5061(2) 0.79674(16) 0.3181(6)
N2 N 0.5049(3) 0.85520(18) 0.5230(7)
N3 N 0.3164(3) 0.92969(18) 0.3772(7)
N4 N 0.4032(3) 0.88400(15) 0.2916(7)
N5 N 0.5029(3) 0.91356(18) 0.0594(6)
N6 N 0.5052(3) 0.83778(16) -0.0094(6)
N7 N 0.6030(3) 0.88741(17) 0.2938(6)
N8 N 0.6846(3) 0.93639(18) 0.3853(8)
N9 N 0.4067(3) 0.85595(19) 0.5155(6)
N10 N 0.4036(4) 0.9103(2) 0.0596(7)
N11 N 0.6009(4) 0.9146(2) 0.0659(7)
N12 N 0.6021(4) 0.8580(2) 0.5148(7)
C1 C 0.5538(3) 0.81159(17) 0.3660(7)
H1 H 0.5883 0.8026 0.3306
C2 C 0.5521(4) 0.84077(19) 0.4697(7)
C3 C 0.4573(4) 0.83971(17) 0.4692(6)
C4 C 0.4585(3) 0.81084(16) 0.3680(7)
H2 H 0.4245 0.8009 0.3333
C5 C 0.3821(4) 0.8815(2) 0.4290(9)
C6 C 0.3390(4) 0.9046(2) 0.4687(8)
H3 H 0.3247 0.9027 0.5645
C7 C 0.3358(4) 0.9319(2) 0.2424(10)
H4 H 0.3191 0.9483 0.1743
C8 C 0.3812(4) 0.90954(19) 0.2013(7)
C9 C 0.4566(4) 0.8929(2) 0.0391(7)
C10 C 0.4584(4) 0.85525(18) 0.0069(8)
H5 H 0.4247 0.8418 -0.0036
C11 C 0.5516(4) 0.85750(18) 0.0113(7)
H6 H 0.5863 0.8452 0.0028
C12 C 0.5510(4) 0.8953(2) 0.0446(7)
C13 C 0.6231(4) 0.9140(2) 0.2061(8)
C14 C 0.6646(4) 0.9386(2) 0.2474(9)
H7 H 0.6787 0.9566 0.1811
C15 C 0.6647(4) 0.9100(2) 0.4748(11)
H8 H 0.6784 0.9081 0.5712
C16 C 0.6239(4) 0.8852(2) 0.4264(7)
C17 C 0.3964(6) 0.8564(3) 0.6744(10)
H9 H 0.4050 0.8812 0.7132
H10 H 0.4199 0.8377 0.7217
H11 H 0.3574 0.8506 0.6931
C18 C 0.3943(6) 0.9438(3) -0.0305(13)
H12 H 0.4051 0.9661 0.0242
H13 H 0.3550 0.9455 -0.0563
H14 H 0.4166 0.9421 -0.1192
C19 C 0.6073(6) 0.9496(3) -0.0192(11)
H15 H 0.5895 0.9703 0.0328
H16 H 0.5898 0.9465 -0.1145
H17 H 0.6467 0.9551 -0.0320
C20 C 0.6148(7) 0.8569(3) 0.6711(9)
H18 H 0.6550 0.8556 0.6848
H19 H 0.5974 0.8349 0.7147
H20 H 0.6005 0.8796 0.7178
Cu2G Cu 0.50716(6) 0.71584(3) -0.07049(10)
Cu3A Cu 0.2500 0.53708(4) 0.43956(17)
Cu4B Cu 0.2500 1.02934(4) 0.55169(17)
Cu4A Cu 0.7500 0.52934(4) 0.44831(17)
I4B I 0.7500 1.03007(2) 0.27746(9)
I5B I 0.7500 0.977228(19) 0.73134(9)
N1G N 0.5061(2) 0.70326(16) 0.3181(6)
N2G N 0.5049(3) 0.64480(18) 0.5230(7)
N3G N 0.3164(3) 0.57031(18) 0.3772(7)
N3F N 0.1836(3) 0.92969(18) 0.3772(7)
N4G N 0.4032(3) 0.61600(15) 0.2916(7)
N5G N 0.5029(3) 0.58644(18) 0.0594(6)
N6G N 0.5052(3) 0.66222(16) -0.0094(6)
N7G N 0.6030(3) 0.61259(17) 0.2938(6)
N8G N 0.6846(3) 0.56361(18) 0.3853(8)
N8F N 0.8154(3) 0.93639(18) 0.3853(8)
N9G N 0.4067(3) 0.64405(19) 0.5155(6)
N10G N 0.4036(4) 0.5897(2) 0.0596(7)
N11G N 0.6009(4) 0.5854(2) 0.0659(7)
N12G N 0.6021(4) 0.6420(2) 0.5148(7)
C1G C 0.5538(3) 0.68841(17) 0.3660(7)
H1G H 0.5883 0.6974 0.3306
C2G C 0.5521(4) 0.65923(19) 0.4697(7)
C3G C 0.4573(4) 0.66029(17) 0.4692(6)
C4G C 0.4585(3) 0.68916(16) 0.3680(7)
H2G H 0.4245 0.6991 0.3333
C5G C 0.3821(4) 0.6185(2) 0.4290(9)
C6G C 0.3390(4) 0.5954(2) 0.4687(8)
H3G H 0.3247 0.5973 0.5645
C7G C 0.3358(4) 0.5681(2) 0.2424(10)
H4G H 0.3191 0.5517 0.1743
C8G C 0.3812(4) 0.59046(19) 0.2013(7)
C9G C 0.4566(4) 0.6071(2) 0.0391(7)
C10G C 0.4584(4) 0.64475(18) 0.0069(8)
H5G H 0.4247 0.6582 -0.0036
C11G C 0.5516(4) 0.64250(18) 0.0113(7)
H6G H 0.5863 0.6548 0.0028
C12G C 0.5510(4) 0.6047(2) 0.0446(7)
C13G C 0.6231(4) 0.5860(2) 0.2061(8)
C14G C 0.6646(4) 0.5614(2) 0.2474(9)
H7G H 0.6787 0.5434 0.1811
C15G C 0.6647(4) 0.5900(2) 0.4748(11)
H8G H 0.6784 0.5919 0.5712
C16G C 0.6239(4) 0.6148(2) 0.4264(7)
C17G C 0.3964(6) 0.6436(3) 0.6744(10)
H9G H 0.4050 0.6188 0.7132
H10G H 0.4199 0.6623 0.7217
H11G H 0.3574 0.6494 0.6931
C18G C 0.3943(6) 0.5562(3) -0.0305(13)
H12G H 0.4051 0.5339 0.0242
H13G H 0.3550 0.5545 -0.0563
H14G H 0.4166 0.5579 -0.1192
C19G C 0.6073(6) 0.5504(3) -0.0192(11)
H15G H 0.5895 0.5297 0.0328
H16G H 0.5898 0.5535 -0.1145
H17G H 0.6467 0.5449 -0.0320
C20G C 0.6148(7) 0.6431(3) 0.6711(9)
H18G H 0.6550 0.6444 0.6848
H19G H 0.5974 0.6651 0.7147
H20G H 0.6005 0.6204 0.7178
loop_
_geom_bond_atom_site_label_1
_geom_bond_atom_site_label_2
_geom_bond_site_symmetry_1
_geom_bond_site_symmetry_2
Cu1 I1 1_555 1_555
Cu2 I1 1_555 1_555
Cu3 I4 1_555 1_555
Cu4 N8 1_555 1_555
I1 Cu2G 1_555 1_555
I2 Cu1 1_555 1_555
I3 Cu2 1_555 1_555
I4 Cu4B 1_555 1_555
I5 Cu3 1_555 1_555
N1 Cu1 1_555 1_555
N2 C2 1_555 1_555
N3 Cu3 1_555 1_555
N4 C5 1_555 1_555
N5 C9 1_555 1_555
N6 Cu2 1_555 1_555
N7 C13 1_555 1_555
N8 C14 1_555 1_555
N9 C3 1_555 1_555
N10 C8 1_555 1_555
N11 C12 1_555 1_555
N12 C2 1_555 1_555
C1 N1 1_555 1_555
H1 C1 1_555 1_555
C2 C1 1_555 1_555
C3 N2 1_555 1_555
C4 N1 1_555 1_555
H2 C4 1_555 1_555
C5 N9 1_555 1_555
C6 N3 1_555 1_555
H3 C6 1_555 1_555
C7 N3 1_555 1_555
H4 C7 1_555 1_555
C8 N4 1_555 1_555
C9 N10 1_555 1_555
C10 N6 1_555 1_555
H5 C10 1_555 1_555
C11 N6 1_555 1_555
H6 C11 1_555 1_555
C12 N5 1_555 1_555
C13 N11 1_555 1_555
C14 C13 1_555 1_555
H7 C14 1_555 1_555
C15 N8 1_555 1_555
H8 C15 1_555 1_555
C16 N7 1_555 1_555
C17 N9 1_555 1_555
H9 C17 1_555 1_555
H10 C17 1_555 1_555
H11 C17 1_555 1_555
C18 N10 1_555 1_555
H12 C18 1_555 1_555
H13 C18 1_555 1_555
H14 C18 1_555 1_555
C19 N11 1_555 1_555
H15 C19 1_555 1_555
H16 C19 1_555 1_555
H17 C19 1_555 1_555
C20 N12 1_555 1_555
H18 C20 1_555 1_555
H19 C20 1_555 1_555
H20 C20 1_555 1_555
Cu2G I2 1_555 1_555
Cu3A N3G 1_555 1_555
Cu4B I5 1_555 1_555
Cu4A N8G 1_555 1_555
I4B Cu4 1_555 1_555
I5B Cu4 1_555 1_555
N1G Cu1 1_555 1_555
N2G C2G 1_555 1_555
N3G C6G 1_555 1_555
N3F Cu3 1_555 1_555
N4G C5G 1_555 1_555
N5G C9G 1_555 1_555
N6G Cu2G 1_555 1_555
N7G C13G 1_555 1_555
N8G C14G 1_555 1_555
N8F Cu4 1_555 1_555
N9G C3G 1_555 1_555
N10G C8G 1_555 1_555
N11G C12G 1_555 1_555
N12G C2G 1_555 1_555
C1G N1G 1_555 1_555
H1G C1G 1_555 1_555
C2G C1G 1_555 1_555
C3G N2G 1_555 1_555
C4G N1G 1_555 1_555
H2G C4G 1_555 1_555
C5G N9G 1_555 1_555
C6G C5G 1_555 1_555
H3G C6G 1_555 1_555
C7G N3G 1_555 1_555
H4G C7G 1_555 1_555
C8G N4G 1_555 1_555
C9G N10G 1_555 1_555
C10G N6G 1_555 1_555
H5G C10G 1_555 1_555
C11G N6G 1_555 1_555
H6G C11G 1_555 1_555
C12G N5G 1_555 1_555
C13G N11G 1_555 1_555
C14G C13G 1_555 1_555
H7G C14G 1_555 1_555
C15G N8G 1_555 1_555
H8G C15G 1_555 1_555
C16G N7G 1_555 1_555
C17G N9G 1_555 1_555
H9G C17G 1_555 1_555
H10G C17G 1_555 1_555
H11G C17G 1_555 1_555
C18G N10G 1_555 1_555
H12G C18G 1_555 1_555
H13G C18G 1_555 1_555
H14G C18G 1_555 1_555
C19G N11G 1_555 1_555
H15G C19G 1_555 1_555
H16G C19G 1_555 1_555
H17G C19G 1_555 1_555
C20G N12G 1_555 1_555
H18G C20G 1_555 1_555
H19G C20G 1_555 1_555
H20G C20G 1_555 1_555
Cu2 I2 1_555 1_555
I3 Cu2G 1_555 1_555
N12 C16 1_555 1_555
C3 C4 1_555 1_555
C5 C6 1_555 1_555
C7 C8 1_555 1_555
C9 C10 1_555 1_555
C11 C12 1_555 1_555
C15 C16 1_555 1_555
N12G C16G 1_555 1_555
C3G C4G 1_555 1_555
C7G C8G 1_555 1_555
C9G C10G 1_555 1_555
C11G C12G 1_555 1_555
C15G C16G 1_555 1_555

#END
