
#######################################################################
#
#                 Cambridge Crystallographic Data Centre
#                                CCDC 
#
#######################################################################
#
# If this CIF has been generated from an entry in the Cambridge 
# Structural Database, then it will include bibliographic, chemical, 
# crystal, experimental, refinement or atomic coordinate data resulting 
# from the CCDC's data processing and validation procedures.
#
#######################################################################

data_BASHAF
_symmetry_cell_setting           orthorhombic
_symmetry_space_group_name_H-M   'P n m a'
_symmetry_Int_Tables_number      62
_space_group_name_Hall           '-P 2ac 2n'
loop_
_symmetry_equiv_pos_site_id
_symmetry_equiv_pos_as_xyz
1 x,y,z
2 1/2+x,y,1/2-z
3 x,1/2-y,z
4 1/2-x,1/2+y,1/2+z
5 -x,-y,-z
6 1/2-x,-y,1/2+z
7 -x,1/2+y,-z
8 1/2+x,1/2-y,1/2-z
_cell_length_a                   12.654(6)
_cell_length_b                   17.650(7)
_cell_length_c                   12.543(6)
_cell_angle_alpha                90
_cell_angle_beta                 90
_cell_angle_gamma                90
_cell_volume                     2801.39
loop_
_atom_site_label
_atom_site_type_symbol
_atom_site_fract_x
_atom_site_fract_y
_atom_site_fract_z
Mn1 Mn 1.0000 0.5000 0.5000
N1 N 0.89837(18) 0.52204(15) 0.64734(18)
N2 N 0.8150(2) 0.5592(2) 0.8157(2)
N3 N 0.64947(18) 0.52562(15) 0.90551(17)
N4 N 0.9904(2) 0.62239(13) 0.4535(2)
N5 N 0.9725(3) 0.7500 0.3757(3)
C1 C 0.8542(2) 0.53638(17) 0.72454(19)
C2 C 0.72516(19) 0.53812(16) 0.85852(18)
C3 C 0.98212(19) 0.68391(14) 0.42275(19)
C3B C 0.98212(19) 0.81609(14) 0.42275(19)
N4B N 0.9904(2) 0.87761(13) 0.4535(2)
N1D N 1.10163(18) 0.47796(15) 0.35266(18)
N2D N 1.1850(2) 0.4408(2) 0.1843(2)
N3D N 1.35053(18) 0.47438(15) 0.09449(17)
C1D C 1.1458(2) 0.46362(17) 0.27546(19)
C2D C 1.27484(19) 0.46188(16) 0.14148(18)
N3A N 1.14947(18) 0.52562(15) 0.59449(17)
N3E N 0.85053(18) 0.47438(15) 0.40551(17)
N4D N 1.0096(2) 0.37761(13) 0.5465(2)
Mn1A Mn 0.5000 0.5000 1.0000
Mn1B Mn 1.0000 1.0000 0.5000
Mn1A_2 Mn 1.5000 0.5000 0.0000
N6 N 0.8453(2) 0.7500 0.0775(2)
C4 C 0.8394(3) 0.7500 -0.0455(3)
H1 H 0.7997 0.7938 -0.0669
C5 C 0.9463(4) 0.7500 -0.1034(3)
H2 H 0.9864 0.7061 -0.0833
C6 C 0.9334(6) 0.7500 -0.2252(4)
H3 H 0.8942 0.7940 -0.2464
C7 C 1.0384(7) 0.7500 -0.2838(5)
H4 H 1.0283 0.7500 -0.3597
H5 H 1.0772 0.7944 -0.2633
C8 C 0.90605(19) 0.68095(13) 0.11912(19)
H6 H 0.8995 0.6799 0.1954
H7 H 0.9796 0.6874 0.1025
C9 C 0.8681(2) 0.60296(15) 0.0819(2)
H8 H 0.8891 0.5971 0.0087
H9 H 0.7928 0.5979 0.0868
C10 C 0.9271(2) 0.54255(15) 0.1470(2)
H10 H 0.9022 0.5473 0.2189
H11 H 1.0018 0.5518 0.1466
C11 C 0.9026(3) 0.46203(16) 0.1114(3)
H12 H 0.9376 0.4257 0.1561
H13 H 0.8278 0.4529 0.1126
H14 H 0.9282 0.4574 0.0397
C12 C 0.7307(3) 0.7500 0.1191(3)
H15 H 0.6950 0.7061 0.0917
C13 C 0.7207(3) 0.7500 0.2402(3)
C14 C 0.7162(2) 0.68161(19) 0.2973(3)
H16 H 0.7146 0.6348 0.2584
C15 C 0.7128(3) 0.6817(2) 0.4087(3)
H17 H 0.7112 0.6343 0.4463
C16 C 0.7121(4) 0.7500 0.4642(5)
H18 H 0.7121 0.7500 0.5407
H1B H 0.7997 0.7062 -0.0669
H2B H 0.9864 0.7939 -0.0833
H3B H 0.8942 0.7060 -0.2464
H5B H 1.0772 0.7056 -0.2633
C8B C 0.90605(19) 0.81905(13) 0.11912(19)
H6B H 0.8995 0.8201 0.1954
H7B H 0.9796 0.8126 0.1025
C9B C 0.8681(2) 0.89704(15) 0.0819(2)
H8B H 0.8891 0.9029 0.0087
H9B H 0.7928 0.9021 0.0868
C10B C 0.9271(2) 0.95745(15) 0.1470(2)
H10B H 0.9022 0.9527 0.2189
H11B H 1.0018 0.9482 0.1466
C11B C 0.9026(3) 1.03797(16) 0.1114(3)
H12B H 0.9376 1.0743 0.1561
H13B H 0.8278 1.0471 0.1126
H14B H 0.9282 1.0426 0.0397
H15B H 0.6950 0.7939 0.0917
C15B C 0.7128(3) 0.8183(2) 0.4087(3)
C14B C 0.7162(2) 0.81839(19) 0.2973(3)
H16B H 0.7146 0.8652 0.2584
H17B H 0.7112 0.8657 0.4463
loop_
_geom_bond_atom_site_label_1
_geom_bond_atom_site_label_2
_geom_bond_site_symmetry_1
_geom_bond_site_symmetry_2
Mn1 N1 1_555 1_555
N1 C1 1_555 1_555
N2 C1 1_555 1_555
N3 C2 1_555 1_555
N4 Mn1 1_555 1_555
N5 C3 1_555 1_555
N6 C4 1_555 1_555
C2 N2 1_555 1_555
C3 N4 1_555 1_555
C4 H1 1_555 1_555
C5 C4 1_555 1_555
H2 C5 1_555 1_555
C6 C5 1_555 1_555
H3 C6 1_555 1_555
C7 C6 1_555 1_555
H4 C7 1_555 1_555
H5 C7 1_555 1_555
C8 N6 1_555 1_555
H6 C8 1_555 1_555
H7 C8 1_555 1_555
C9 C8 1_555 1_555
H8 C9 1_555 1_555
H9 C9 1_555 1_555
C10 C9 1_555 1_555
H10 C10 1_555 1_555
H11 C10 1_555 1_555
C11 C10 1_555 1_555
H12 C11 1_555 1_555
H13 C11 1_555 1_555
H14 C11 1_555 1_555
C12 N6 1_555 1_555
H15 C12 1_555 1_555
C13 C12 1_555 1_555
C14 C13 1_555 1_555
H16 C14 1_555 1_555
C15 C14 1_555 1_555
H17 C15 1_555 1_555
C16 C15 1_555 1_555
H18 C16 1_555 1_555
C3B N5 1_555 1_555
N4B C3B 1_555 1_555
H1B C4 1_555 1_555
H2B C5 1_555 1_555
H3B C6 1_555 1_555
H5B C7 1_555 1_555
C8B N6 1_555 1_555
H6B C8B 1_555 1_555
H7B C8B 1_555 1_555
C9B C8B 1_555 1_555
H8B C9B 1_555 1_555
H9B C9B 1_555 1_555
C10B C9B 1_555 1_555
H10B C10B 1_555 1_555
H11B C10B 1_555 1_555
C11B C10B 1_555 1_555
H12B C11B 1_555 1_555
H13B C11B 1_555 1_555
H14B C11B 1_555 1_555
H15B C12 1_555 1_555
C15B C16 1_555 1_555
C14B C13 1_555 1_555
H16B C14B 1_555 1_555
H17B C15B 1_555 1_555
N1D Mn1 1_555 1_555
N2D C1D 1_555 1_555
N3D C2D 1_555 1_555
C1D N1D 1_555 1_555
C2D N2D 1_555 1_555
N3A Mn1 1_555 1_555
N3E Mn1 1_555 1_555
N4D Mn1 1_555 1_555
Mn1A N3 1_555 1_555
Mn1B N4B 1_555 1_555
Mn1A_2 N3D 1_555 1_555
C15B C14B 1_555 1_555

#END
