
#######################################################################
#
#                 Cambridge Crystallographic Data Centre
#                                CCDC 
#
#######################################################################
#
# If this CIF has been generated from an entry in the Cambridge 
# Structural Database, then it will include bibliographic, chemical, 
# crystal, experimental, refinement or atomic coordinate data resulting 
# from the CCDC's data processing and validation procedures.
#
#######################################################################

data_BASHEJ
_symmetry_cell_setting           orthorhombic
_symmetry_space_group_name_H-M   'P n m a'
_symmetry_Int_Tables_number      62
_space_group_name_Hall           '-P 2ac 2n'
loop_
_symmetry_equiv_pos_site_id
_symmetry_equiv_pos_as_xyz
1 x,y,z
2 1/2+x,y,1/2-z
3 x,1/2-y,z
4 1/2-x,1/2+y,1/2+z
5 -x,-y,-z
6 1/2-x,-y,1/2+z
7 -x,1/2+y,-z
8 1/2+x,1/2-y,1/2-z
_cell_length_a                   12.536(8)
_cell_length_b                   17.480(1)
_cell_length_c                   12.372(6)
_cell_angle_alpha                90
_cell_angle_beta                 90
_cell_angle_gamma                90
_cell_volume                     2711.07
loop_
_atom_site_label
_atom_site_type_symbol
_atom_site_fract_x
_atom_site_fract_y
_atom_site_fract_z
Co1 Co 1.0000 0.5000 0.5000
N1 N 0.9001(2) 0.52068(18) 0.6426(2)
N2 N 0.8120(3) 0.5585(2) 0.8129(3)
N3 N 0.6443(2) 0.52404(17) 0.9070(2)
N4 N 0.9909(2) 0.61932(17) 0.4560(3)
N5 N 0.9734(3) 0.7500 0.3806(3)
C1 C 0.8533(3) 0.5350(2) 0.7213(3)
C2 C 0.7211(3) 0.5373(2) 0.8575(2)
C3 C 0.9828(2) 0.68271(19) 0.4278(3)
C3B C 0.9828(2) 0.81729(19) 0.4278(3)
N4B N 0.9909(2) 0.88068(17) 0.4560(3)
N1D N 1.0999(2) 0.47932(18) 0.3574(2)
N2D N 1.1880(3) 0.4415(2) 0.1871(3)
N3D N 1.3557(2) 0.47596(17) 0.0930(2)
C1D C 1.1467(3) 0.4650(2) 0.2787(3)
C2D C 1.2789(3) 0.4627(2) 0.1425(2)
N3A N 1.1443(2) 0.52404(17) 0.5930(2)
N3E N 0.8557(2) 0.47596(17) 0.4070(2)
N4D N 1.0091(2) 0.38068(17) 0.5440(3)
Co1A Co 0.5000 0.5000 1.0000
Co1B Co 1.0000 1.0000 0.5000
Co1A_2 Co 1.5000 0.5000 0.0000
N6 N 0.8468(3) 0.7500 0.0756(3)
C4 C 0.8404(4) 0.7500 -0.0491(4)
H1 H 0.8012 0.7944 -0.0718
C5 C 0.9500(5) 0.7500 -0.1075(4)
H2 H 0.9894 0.7056 -0.0855
C6 C 0.9382(6) 0.7500 -0.2310(5)
H3 H 0.8991 0.7945 -0.2535
C7 C 1.0448(7) 0.7500 -0.2882(5)
H4 H 1.0336 0.7500 -0.3649
H5 H 1.0843 0.7948 -0.2680
C8 C 0.9080(3) 0.68021(18) 0.1182(3)
H6 H 0.9058 0.6816 0.1957
H7 H 0.9813 0.6855 0.0971
C9 C 0.8697(3) 0.60142(19) 0.0814(3)
H8 H 0.8831 0.5947 0.0056
H9 H 0.7944 0.5965 0.0940
C10 C 0.9311(3) 0.5410(2) 0.1469(3)
H10 H 0.9139 0.5471 0.2220
H11 H 1.0062 0.5500 0.1386
C11 C 0.9063(3) 0.4584(2) 0.1140(3)
H12 H 0.9467 0.4234 0.1575
H13 H 0.8315 0.4487 0.1236
H14 H 0.9248 0.4516 0.0393
C12 C 0.7308(4) 0.7500 0.1194(4)
H15 H 0.6948 0.7057 0.0916
C13 C 0.7202(4) 0.7500 0.2410(4)
C14 C 0.7172(3) 0.6812(2) 0.2991(3)
H16 H 0.7157 0.6340 0.2594
C15 C 0.7150(4) 0.6804(3) 0.4113(4)
H17 H 0.7144 0.6329 0.4503
C16 C 0.7147(5) 0.7500 0.4667(6)
H18 H 0.7141 0.7500 0.5442
H1B H 0.8012 0.7056 -0.0718
H2B H 0.9894 0.7944 -0.0855
H3B H 0.8991 0.7055 -0.2535
H5B H 1.0843 0.7052 -0.2680
C8B C 0.9080(3) 0.81979(18) 0.1182(3)
H6B H 0.9058 0.8184 0.1957
H7B H 0.9813 0.8145 0.0971
C9B C 0.8697(3) 0.89858(19) 0.0814(3)
H8B H 0.8831 0.9053 0.0056
H9B H 0.7944 0.9035 0.0940
C10B C 0.9311(3) 0.9590(2) 0.1469(3)
H10B H 0.9139 0.9529 0.2220
H11B H 1.0062 0.9500 0.1386
C11B C 0.9063(3) 1.0416(2) 0.1140(3)
H12B H 0.9467 1.0766 0.1575
H13B H 0.8315 1.0513 0.1236
H14B H 0.9248 1.0484 0.0393
H15B H 0.6948 0.7943 0.0916
C15B C 0.7150(4) 0.8196(3) 0.4113(4)
C14B C 0.7172(3) 0.8188(2) 0.2991(3)
H16B H 0.7157 0.8660 0.2594
H17B H 0.7144 0.8671 0.4503
loop_
_geom_bond_atom_site_label_1
_geom_bond_atom_site_label_2
_geom_bond_site_symmetry_1
_geom_bond_site_symmetry_2
Co1 N1 1_555 1_555
N1 C1 1_555 1_555
N2 C1 1_555 1_555
N3 C2 1_555 1_555
N4 Co1 1_555 1_555
N5 C3 1_555 1_555
N6 C4 1_555 1_555
C2 N2 1_555 1_555
C3 N4 1_555 1_555
C4 H1 1_555 1_555
C5 C4 1_555 1_555
H2 C5 1_555 1_555
C6 C5 1_555 1_555
H3 C6 1_555 1_555
C7 C6 1_555 1_555
H4 C7 1_555 1_555
H5 C7 1_555 1_555
C8 N6 1_555 1_555
H6 C8 1_555 1_555
H7 C8 1_555 1_555
C9 C8 1_555 1_555
H8 C9 1_555 1_555
H9 C9 1_555 1_555
C10 C9 1_555 1_555
H10 C10 1_555 1_555
H11 C10 1_555 1_555
C11 C10 1_555 1_555
H12 C11 1_555 1_555
H13 C11 1_555 1_555
H14 C11 1_555 1_555
C12 N6 1_555 1_555
H15 C12 1_555 1_555
C13 C12 1_555 1_555
C14 C13 1_555 1_555
H16 C14 1_555 1_555
C15 C14 1_555 1_555
H17 C15 1_555 1_555
C16 C15 1_555 1_555
H18 C16 1_555 1_555
C3B N5 1_555 1_555
N4B C3B 1_555 1_555
H1B C4 1_555 1_555
H2B C5 1_555 1_555
H3B C6 1_555 1_555
H5B C7 1_555 1_555
C8B N6 1_555 1_555
H6B C8B 1_555 1_555
H7B C8B 1_555 1_555
C9B C8B 1_555 1_555
H8B C9B 1_555 1_555
H9B C9B 1_555 1_555
C10B C9B 1_555 1_555
H10B C10B 1_555 1_555
H11B C10B 1_555 1_555
C11B C10B 1_555 1_555
H12B C11B 1_555 1_555
H13B C11B 1_555 1_555
H14B C11B 1_555 1_555
H15B C12 1_555 1_555
C15B C16 1_555 1_555
C14B C13 1_555 1_555
H16B C14B 1_555 1_555
H17B C15B 1_555 1_555
N1D Co1 1_555 1_555
N2D C1D 1_555 1_555
N3D C2D 1_555 1_555
C1D N1D 1_555 1_555
C2D N2D 1_555 1_555
N3A Co1 1_555 1_555
N3E Co1 1_555 1_555
N4D Co1 1_555 1_555
Co1A N3 1_555 1_555
Co1B N4B 1_555 1_555
Co1A_2 N3D 1_555 1_555
C15B C14B 1_555 1_555

#END
