
#######################################################################
#
#                 Cambridge Crystallographic Data Centre
#                                CCDC 
#
#######################################################################
#
# If this CIF has been generated from an entry in the Cambridge 
# Structural Database, then it will include bibliographic, chemical, 
# crystal, experimental, refinement or atomic coordinate data resulting 
# from the CCDC's data processing and validation procedures.
#
#######################################################################

data_BASHIN
_symmetry_cell_setting           orthorhombic
_symmetry_space_group_name_H-M   'P n m a'
_symmetry_Int_Tables_number      62
_space_group_name_Hall           '-P 2ac 2n'
loop_
_symmetry_equiv_pos_site_id
_symmetry_equiv_pos_as_xyz
1 x,y,z
2 1/2+x,y,1/2-z
3 x,1/2-y,z
4 1/2-x,1/2+y,1/2+z
5 -x,-y,-z
6 1/2-x,-y,1/2+z
7 -x,1/2+y,-z
8 1/2+x,1/2-y,1/2-z
_cell_length_a                   12.932(6)
_cell_length_b                   16.352(7)
_cell_length_c                   10.625(5)
_cell_angle_alpha                90
_cell_angle_beta                 90
_cell_angle_gamma                90
_cell_volume                     2246.81
loop_
_atom_site_label
_atom_site_type_symbol
_atom_site_fract_x
_atom_site_fract_y
_atom_site_fract_z
Mn1 Mn 0.5000 1.0000 -0.5000
N1 N 0.41314(15) 1.05256(13) -0.33868(19)
N2 N 0.31812(14) 1.09215(13) -0.15105(18)
N3 N 0.15118(13) 1.03867(11) -0.08506(16)
N4 N 0.50520(14) 0.88256(12) -0.4026(2)
N5 N 0.48886(17) 0.7500 -0.2999(2)
C1 C 0.36519(14) 1.06778(12) -0.25196(18)
C2 C 0.22886(14) 1.06086(11) -0.12025(16)
C3 C 0.49780(13) 0.81870(12) -0.35992(18)
C3B C 0.49780(13) 0.68130(12) -0.35992(18)
N4B N 0.50520(14) 0.61744(12) -0.4026(2)
N1D N 0.58686(15) 0.94744(13) -0.66132(19)
N2D N 0.68188(14) 0.90785(13) -0.84895(18)
N3D N 0.84882(13) 0.96133(11) -0.91494(16)
C1D C 0.63481(14) 0.93222(12) -0.74804(18)
C2D C 0.77114(14) 0.93914(11) -0.87975(16)
N3A N 0.65118(13) 1.03867(11) -0.41494(16)
N3E N 0.34882(13) 0.96133(11) -0.58506(16)
N4D N 0.49480(14) 1.11744(12) -0.5974(2)
Mn1A Mn 0.0000 1.0000 0.0000
Mn1B Mn 0.5000 0.5000 -0.5000
Mn1A_2 Mn 1.0000 1.0000 -1.0000
N6 N 0.36794(16) 0.7500 0.05633(19)
C4 C 0.42811(17) 0.67560(14) 0.01149(19)
H1 H 0.4995 0.6814 0.0378
H2 H 0.4272 0.6750 -0.0793
C5 C 0.3879(2) 0.59401(13) 0.0585(2)
H3 H 0.4305 0.5503 0.0257
H4 H 0.3903 0.5932 0.1492
H5 H 0.3171 0.5867 0.0308
C6 C 0.3547(3) 0.7500 0.1985(2)
H6 H 0.3150 0.7022 0.2221
C7 C 0.4543(4) 0.7500 0.2743(3)
H7 H 0.4395 0.7500 0.3632
H8 H 0.4939 0.7017 0.2530
C8 C 0.2587(2) 0.7500 0.0008(2)
H9 H 0.2226 0.7977 0.0320
C9 C 0.25138(18) 0.7500 -0.1403(2)
C10 C 0.24408(15) 0.67700(13) -0.20633(19)
H10 H 0.2474 0.6255 -0.1619
C11 C 0.23207(18) 0.67729(17) -0.3366(2)
H11 H 0.2276 0.6261 -0.3818
C12 C 0.2264(3) 0.7500 -0.4005(3)
H12 H 0.2184 0.7500 -0.4908
C4B C 0.42811(17) 0.82440(14) 0.01149(19)
H1B H 0.4995 0.8186 0.0378
H2B H 0.4272 0.8250 -0.0793
C5B C 0.3879(2) 0.90599(13) 0.0585(2)
H3B H 0.4305 0.9497 0.0257
H4B H 0.3903 0.9068 0.1492
H5B H 0.3171 0.9133 0.0308
H6B H 0.3150 0.7978 0.2221
H8B H 0.4939 0.7983 0.2530
H9B H 0.2226 0.7023 0.0320
C11B C 0.23207(18) 0.82271(17) -0.3366(2)
C10B C 0.24408(15) 0.82300(13) -0.20633(19)
H10B H 0.2474 0.8745 -0.1619
H11B H 0.2276 0.8739 -0.3818
loop_
_geom_bond_atom_site_label_1
_geom_bond_atom_site_label_2
_geom_bond_site_symmetry_1
_geom_bond_site_symmetry_2
Mn1 N1 1_555 1_555
N1 C1 1_555 1_555
N2 C1 1_555 1_555
N3 C2 1_555 1_555
N4 Mn1 1_555 1_555
N5 C3 1_555 1_555
C2 N2 1_555 1_555
C3 N4 1_555 1_555
N6 C4 1_555 1_555
C4 H1 1_555 1_555
H2 C4 1_555 1_555
C5 C4 1_555 1_555
H3 C5 1_555 1_555
H4 C5 1_555 1_555
H5 C5 1_555 1_555
C6 N6 1_555 1_555
H6 C6 1_555 1_555
C7 C6 1_555 1_555
H7 C7 1_555 1_555
H8 C7 1_555 1_555
C8 N6 1_555 1_555
H9 C8 1_555 1_555
C9 C8 1_555 1_555
C10 C9 1_555 1_555
H10 C10 1_555 1_555
C11 C10 1_555 1_555
H11 C11 1_555 1_555
C12 C11 1_555 1_555
H12 C12 1_555 1_555
C3B N5 1_555 1_555
N4B C3B 1_555 1_555
C4B N6 1_555 1_555
H1B C4B 1_555 1_555
H2B C4B 1_555 1_555
C5B C4B 1_555 1_555
H3B C5B 1_555 1_555
H4B C5B 1_555 1_555
H5B C5B 1_555 1_555
H6B C6 1_555 1_555
H8B C7 1_555 1_555
H9B C8 1_555 1_555
C11B C12 1_555 1_555
C10B C9 1_555 1_555
H10B C10B 1_555 1_555
H11B C11B 1_555 1_555
N1D Mn1 1_555 1_555
N2D C1D 1_555 1_555
N3D C2D 1_555 1_555
C1D N1D 1_555 1_555
C2D N2D 1_555 1_555
N3A Mn1 1_555 1_555
N3E Mn1 1_555 1_555
N4D Mn1 1_555 1_555
Mn1A N3 1_555 1_555
Mn1B N4B 1_555 1_555
Mn1A_2 N3D 1_555 1_555
C11B C10B 1_555 1_555

#END
