
#######################################################################
#
#                 Cambridge Crystallographic Data Centre
#                                CCDC 
#
#######################################################################
#
# If this CIF has been generated from an entry in the Cambridge 
# Structural Database, then it will include bibliographic, chemical, 
# crystal, experimental, refinement or atomic coordinate data resulting 
# from the CCDC's data processing and validation procedures.
#
#######################################################################

data_BASHOT
_symmetry_cell_setting           orthorhombic
_symmetry_space_group_name_H-M   'P n m a'
_symmetry_Int_Tables_number      62
_space_group_name_Hall           '-P 2ac 2n'
loop_
_symmetry_equiv_pos_site_id
_symmetry_equiv_pos_as_xyz
1 x,y,z
2 1/2+x,y,1/2-z
3 x,1/2-y,z
4 1/2-x,1/2+y,1/2+z
5 -x,-y,-z
6 1/2-x,-y,1/2+z
7 -x,1/2+y,-z
8 1/2+x,1/2-y,1/2-z
_cell_length_a                   12.799(5)
_cell_length_b                   16.229(7)
_cell_length_c                   10.577(5)
_cell_angle_alpha                90
_cell_angle_beta                 90
_cell_angle_gamma                90
_cell_volume                     2197
loop_
_atom_site_label
_atom_site_type_symbol
_atom_site_fract_x
_atom_site_fract_y
_atom_site_fract_z
Fe1 Fe 0.5000 1.0000 -0.5000
N1 N 0.41273(12) 1.04896(10) -0.34224(15)
N2 N 0.31731(12) 1.09051(10) -0.15321(16)
N3 N 0.14728(11) 1.03762(9) -0.08585(14)
N4 N 0.50644(11) 0.88409(10) -0.40763(16)
N5 N 0.48941(15) 0.7500 -0.3042(2)
C1 C 0.36435(12) 1.06504(10) -0.25484(17)
C2 C 0.22645(13) 1.05970(10) -0.12171(15)
C3 C 0.49871(11) 0.81933(10) -0.36457(16)
C3B C 0.49871(11) 0.68067(10) -0.36457(16)
N4B N 0.50644(11) 0.61591(10) -0.40763(16)
N1D N 0.58727(12) 0.95104(10) -0.65776(15)
N2D N 0.68269(12) 0.90949(10) -0.84679(16)
N3D N 0.85272(11) 0.96238(9) -0.91415(14)
C1D C 0.63565(12) 0.93496(10) -0.74516(17)
C2D C 0.77355(13) 0.94030(10) -0.87829(15)
N3A N 0.64728(11) 1.03762(9) -0.41415(14)
N3E N 0.35272(11) 0.96238(9) -0.58585(14)
N4D N 0.49356(11) 1.11591(10) -0.59237(16)
Fe1A Fe 0.0000 1.0000 0.0000
Fe1B Fe 0.5000 0.5000 -0.5000
Fe1A_2 Fe 1.0000 1.0000 -1.0000
N6 N 0.36969(14) 0.7500 0.05603(18)
C4 C 0.43001(15) 0.67496(12) 0.01109(17)
H1 H 0.5014 0.6807 0.0374
H2 H 0.4291 0.6743 -0.0797
C5 C 0.38985(17) 0.59265(11) 0.0574(2)
H3 H 0.4324 0.5489 0.0246
H4 H 0.3922 0.5918 0.1481
H5 H 0.3190 0.5853 0.0297
C6 C 0.3563(2) 0.7500 0.1989(2)
H6 H 0.3165 0.7022 0.2225
C7 C 0.4570(3) 0.7500 0.2746(3)
H7 H 0.4422 0.7500 0.3636
H8 H 0.4966 0.7017 0.2534
C8 C 0.25890(18) 0.7500 0.0002(2)
H9 H 0.2228 0.7977 0.0314
C9 C 0.25192(16) 0.7500 -0.1416(2)
C10 C 0.24440(13) 0.67628(12) -0.20814(18)
H10 H 0.2477 0.6248 -0.1637
C11 C 0.23224(16) 0.67669(14) -0.3387(2)
H11 H 0.2278 0.6255 -0.3839
C12 C 0.2264(2) 0.7500 -0.4029(3)
H12 H 0.2184 0.7500 -0.4932
C4B C 0.43001(15) 0.82504(12) 0.01109(17)
H1B H 0.5014 0.8193 0.0374
H2B H 0.4291 0.8257 -0.0797
C5B C 0.38985(17) 0.90735(11) 0.0574(2)
H3B H 0.4324 0.9511 0.0246
H4B H 0.3922 0.9082 0.1481
H5B H 0.3190 0.9147 0.0297
H6B H 0.3165 0.7978 0.2225
H8B H 0.4966 0.7983 0.2534
H9B H 0.2228 0.7023 0.0314
C11B C 0.23224(16) 0.82331(14) -0.3387(2)
C10B C 0.24440(13) 0.82372(12) -0.20814(18)
H10B H 0.2477 0.8752 -0.1637
H11B H 0.2278 0.8745 -0.3839
loop_
_geom_bond_atom_site_label_1
_geom_bond_atom_site_label_2
_geom_bond_site_symmetry_1
_geom_bond_site_symmetry_2
Fe1 N1 1_555 1_555
N1 C1 1_555 1_555
N2 C1 1_555 1_555
N3 C2 1_555 1_555
N4 Fe1 1_555 1_555
N5 C3 1_555 1_555
C2 N2 1_555 1_555
C3 N4 1_555 1_555
N6 C4 1_555 1_555
C4 H1 1_555 1_555
H2 C4 1_555 1_555
C5 C4 1_555 1_555
H3 C5 1_555 1_555
H4 C5 1_555 1_555
H5 C5 1_555 1_555
C6 N6 1_555 1_555
H6 C6 1_555 1_555
C7 C6 1_555 1_555
H7 C7 1_555 1_555
H8 C7 1_555 1_555
C8 N6 1_555 1_555
H9 C8 1_555 1_555
C9 C8 1_555 1_555
C10 C9 1_555 1_555
H10 C10 1_555 1_555
C11 C10 1_555 1_555
H11 C11 1_555 1_555
C12 C11 1_555 1_555
H12 C12 1_555 1_555
C3B N5 1_555 1_555
N4B C3B 1_555 1_555
C4B N6 1_555 1_555
H1B C4B 1_555 1_555
H2B C4B 1_555 1_555
C5B C4B 1_555 1_555
H3B C5B 1_555 1_555
H4B C5B 1_555 1_555
H5B C5B 1_555 1_555
H6B C6 1_555 1_555
H8B C7 1_555 1_555
H9B C8 1_555 1_555
C11B C12 1_555 1_555
C10B C9 1_555 1_555
H10B C10B 1_555 1_555
H11B C11B 1_555 1_555
N1D Fe1 1_555 1_555
N2D C1D 1_555 1_555
N3D C2D 1_555 1_555
C1D N1D 1_555 1_555
C2D N2D 1_555 1_555
N3A Fe1 1_555 1_555
N3E Fe1 1_555 1_555
N4D Fe1 1_555 1_555
Fe1A N3 1_555 1_555
Fe1B N4B 1_555 1_555
Fe1A_2 N3D 1_555 1_555
C11B C10B 1_555 1_555

#END
