
#######################################################################
#
#                 Cambridge Crystallographic Data Centre
#                                CCDC 
#
#######################################################################
#
# If this CIF has been generated from an entry in the Cambridge 
# Structural Database, then it will include bibliographic, chemical, 
# crystal, experimental, refinement or atomic coordinate data resulting 
# from the CCDC's data processing and validation procedures.
#
#######################################################################

data_BASJEL
_symmetry_cell_setting           orthorhombic
_symmetry_space_group_name_H-M   'P c c n'
_symmetry_Int_Tables_number      56
_space_group_name_Hall           '-P 2ab 2ac'
loop_
_symmetry_equiv_pos_site_id
_symmetry_equiv_pos_as_xyz
1 x,y,z
2 1/2+x,1/2+y,-z
3 x,1/2-y,1/2+z
4 1/2-x,y,1/2+z
5 -x,-y,-z
6 1/2-x,1/2-y,z
7 -x,1/2+y,1/2-z
8 1/2+x,-y,1/2-z
_cell_length_a                   12.2414(2)
_cell_length_b                   13.1257(2)
_cell_length_c                   27.1081(4)
_cell_angle_alpha                90
_cell_angle_beta                 90
_cell_angle_gamma                90
_cell_volume                     4355.65
loop_
_atom_site_label
_atom_site_type_symbol
_atom_site_fract_x
_atom_site_fract_y
_atom_site_fract_z
Co1 Co 0.7500 0.2500 0.16539(3)
Cl1 Cl 0.84522(9) 0.08789(8) 0.16174(4)
N1 N 0.8673(3) 0.3076(3) 0.1086(1)
C1 C 0.9005(4) 0.4049(4) 0.1094(2)
C2 C 0.9823(5) 0.4434(4) 0.0798(2)
C3 C 1.0335(4) 0.3785(4) 0.0467(2)
C4 C 1.0003(4) 0.2778(3) 0.0449(2)
C5 C 0.9175(4) 0.2451(4) 0.0766(1)
C6 C 1.0529(4) 0.2023(3) 0.0120(2)
O1 O 1.0380(3) 0.1118(3) 0.0137(1)
O2 O 1.1206(3) 0.2475(3) -0.0200(1)
C7 C 1.1783(4) 0.1808(3) -0.0537(2)
C8 C 1.2500 0.2500 -0.0856(2)
C9 C 1.1792(3) 0.3203(3) -0.1175(2)
O3 O 1.1178(3) 0.2551(3) -0.1498(1)
C10 C 1.0427(4) 0.3000(4) -0.1785(2)
O4 O 1.0258(3) 0.3902(3) -0.1785(1)
C11 C 0.9833(4) 0.2235(3) -0.2088(2)
C12 C 0.9965(5) 0.1195(4) -0.2008(2)
C13 C 0.9133(4) 0.2568(4) -0.2458(2)
N2 N 0.8563(3) 0.1924(3) -0.2743(1)
C14 C 0.8675(5) 0.0922(4) -0.2654(2)
C15 C 0.9369(6) 0.0527(4) -0.2299(2)
H1 H 0.8654 0.4502 0.1316
H2 H 1.0033 0.5129 0.0821
H3 H 1.0899 0.4027 0.0257
H4 H 0.8957 0.1757 0.0754
H5 H 1.1279 0.1445 -0.0737
H6 H 1.2222 0.1339 -0.0359
H7 H 1.2241 0.3651 -0.1362
H8 H 1.1313 0.3590 -0.0973
H9 H 1.0450 0.0950 -0.1761
H10 H 0.9054 0.3280 -0.2511
H11 H 0.8255 0.0459 -0.2846
H12 H 0.9436 -0.0188 -0.2255
C7E C 1.3217(4) 0.3192(3) -0.0537(2)
O2E O 1.3794(3) 0.2525(3) -0.0200(1)
C6E C 1.4471(4) 0.2977(3) 0.0120(2)
C4E C 1.4997(4) 0.2222(3) 0.0449(2)
C3E C 1.4665(4) 0.1215(4) 0.0467(2)
C2E C 1.5177(5) 0.0566(4) 0.0798(2)
C1E C 1.5995(4) 0.0951(4) 0.1094(2)
N1E N 1.6327(3) 0.1924(3) 0.1086(1)
C5E C 1.5825(4) 0.2549(4) 0.0766(1)
H4E H 1.6043 0.3243 0.0754
H1E H 1.6346 0.0498 0.1316
H2E H 1.4967 -0.0129 0.0821
H3E H 1.4101 0.0973 0.0257
O1E O 1.4620(3) 0.3882(3) 0.0137(1)
H5E H 1.3721 0.3555 -0.0737
H6E H 1.2778 0.3661 -0.0359
C9E C 1.3208(3) 0.1797(3) -0.1175(2)
O3E O 1.3822(3) 0.2449(3) -0.1498(1)
C10E C 1.4573(4) 0.2000(4) -0.1785(2)
O4E O 1.4742(3) 0.1098(3) -0.1785(1)
C11E C 1.5167(4) 0.2765(3) -0.2088(2)
C12E C 1.5035(5) 0.3805(4) -0.2008(2)
C15E C 1.5631(6) 0.4473(4) -0.2299(2)
C14E C 1.6325(5) 0.4078(4) -0.2654(2)
N2E N 1.6437(3) 0.3076(3) -0.2743(1)
C13E C 1.5867(4) 0.2432(4) -0.2458(2)
H10E H 1.5946 0.1720 -0.2511
H11E H 1.6745 0.4541 -0.2846
H12E H 1.5564 0.5188 -0.2255
H9E H 1.4550 0.4050 -0.1761
H7E H 1.2759 0.1349 -0.1362
H8E H 1.3687 0.1410 -0.0973
Cl1E Cl 0.65478(9) 0.41211(8) 0.16174(4)
N1E_2 N 0.6327(3) 0.1924(3) 0.1086(1)
N2B N 0.8563(3) 0.3076(3) 0.2257(1)
N2C N 0.6437(3) 0.1924(3) 0.2257(1)
Co1B Co 0.7500 0.2500 -0.33461(3)
Co1_2 Co 1.7500 0.2500 0.16539(3)
Co1B_2 Co 1.7500 0.2500 -0.33461(3)
C16 C 1.1640(7) -0.0699(6) 0.0589(3)
Cl2 Cl 1.2224(3) -0.0017(3) 0.1054(1)
Cl3 Cl 1.1185(2) -0.1909(2) 0.08173(8)
Cl4 Cl 1.2571(2) -0.0886(2) 0.01075(8)
C17? C 0.2500 0.2500 0.1914(2)
Cl5? Cl 0.1332(3) 0.2354(3) 0.1640(1)
Cl6? Cl 0.2492(3) 0.3345(3) 0.2341(1)
Cl7? Cl 0.1539(3) 0.3533(3) 0.1878(1)
loop_
_geom_bond_atom_site_label_1
_geom_bond_atom_site_label_2
_geom_bond_site_symmetry_1
_geom_bond_site_symmetry_2
Co1 Cl1 1_555 1_555
N1 Co1 1_555 1_555
C1 N1 1_555 1_555
C2 C1 1_555 1_555
C3 C2 1_555 1_555
C4 C3 1_555 1_555
C5 N1 1_555 1_555
C6 C4 1_555 1_555
O1 C6 1_555 1_555
O2 C6 1_555 1_555
C7 O2 1_555 1_555
C8 C7 1_555 1_555
C9 C8 1_555 1_555
O3 C9 1_555 1_555
C10 O3 1_555 1_555
O4 C10 1_555 1_555
C11 C10 1_555 1_555
C12 C11 1_555 1_555
C13 C11 1_555 1_555
N2 C13 1_555 1_555
C14 N2 1_555 1_555
C15 C12 1_555 1_555
C16 Cl2 1_555 1_555
Cl3 C16 1_555 1_555
Cl4 C16 1_555 1_555
H1 C1 1_555 1_555
H2 C2 1_555 1_555
H3 C3 1_555 1_555
H4 C5 1_555 1_555
H5 C7 1_555 1_555
H6 C7 1_555 1_555
H7 C9 1_555 1_555
H8 C9 1_555 1_555
H9 C12 1_555 1_555
H10 C13 1_555 1_555
H11 C14 1_555 1_555
H12 C15 1_555 1_555
C7E C8 1_555 1_555
O2E C7E 1_555 1_555
C6E O2E 1_555 1_555
C4E C6E 1_555 1_555
C3E C4E 1_555 1_555
C2E C3E 1_555 1_555
C1E C2E 1_555 1_555
N1E C1E 1_555 1_555
C5E C4E 1_555 1_555
H4E C5E 1_555 1_555
H1E C1E 1_555 1_555
H2E C2E 1_555 1_555
H3E C3E 1_555 1_555
O1E C6E 1_555 1_555
H5E C7E 1_555 1_555
H6E C7E 1_555 1_555
C9E C8 1_555 1_555
O3E C9E 1_555 1_555
C10E O3E 1_555 1_555
O4E C10E 1_555 1_555
C11E C10E 1_555 1_555
C12E C11E 1_555 1_555
C15E C12E 1_555 1_555
C14E C15E 1_555 1_555
N2E C14E 1_555 1_555
C13E C11E 1_555 1_555
H10E C13E 1_555 1_555
H11E C14E 1_555 1_555
H12E C15E 1_555 1_555
H9E C12E 1_555 1_555
H7E C9E 1_555 1_555
H8E C9E 1_555 1_555
Cl1E Co1 1_555 1_555
N1E_2 Co1 1_555 1_555
N2B Co1 1_555 1_555
N2C Co1 1_555 1_555
Co1B N2 1_555 1_555
Co1_2 N1E 1_555 1_555
Co1B_2 N2E 1_555 1_555
C4 C5 1_555 1_555
C14 C15 1_555 1_555
N1E C5E 1_555 1_555
N2E C13E 1_555 1_555

#END
