
#######################################################################
#
#                 Cambridge Crystallographic Data Centre
#                                CCDC 
#
#######################################################################
#
# If this CIF has been generated from an entry in the Cambridge 
# Structural Database, then it will include bibliographic, chemical, 
# crystal, experimental, refinement or atomic coordinate data resulting 
# from the CCDC's data processing and validation procedures.
#
#######################################################################

data_BASJAH
_symmetry_cell_setting           monoclinic
_symmetry_space_group_name_H-M   'P 21/n'
_symmetry_Int_Tables_number      14
_space_group_name_Hall           '-P 2yn'
loop_
_symmetry_equiv_pos_site_id
_symmetry_equiv_pos_as_xyz
1 x,y,z
2 1/2+x,1/2-y,1/2+z
3 -x,-y,-z
4 1/2-x,1/2+y,1/2-z
_cell_length_a                   11.888(6)
_cell_length_b                   7.870(4)
_cell_length_c                   17.378(9)
_cell_angle_alpha                90
_cell_angle_beta                 100.736(9)
_cell_angle_gamma                90
_cell_volume                     1597.4
loop_
_atom_site_label
_atom_site_type_symbol
_atom_site_fract_x
_atom_site_fract_y
_atom_site_fract_z
Ag1 Ag 0.83005(3) 0.04008(5) 0.21578(2)
S1 S 0.66268(9) 0.24011(13) 0.23453(6)
F1 F 1.2371(5) 0.1954(12) 0.1733(4)
F2 F 1.1650(5) 0.3914(6) 0.2343(6)
F3 F 1.2433(4) 0.1937(9) 0.2897(3)
O1 O 1.0000(3) 0.1859(6) 0.2574(2)
O2 O 1.0439(4) 0.0246(6) 0.1626(3)
N1 N 0.7453(3) 0.1195(5) 0.08978(19)
C1 C 0.7942(5) 0.0779(7) 0.0298(3)
H1 H 0.8681 0.0343 0.0403
C2 C 0.7400(6) 0.0965(9) -0.0483(3)
H2 H 0.7782 0.0683 -0.0887
C3 C 0.6334(6) 0.1549(8) -0.0643(3)
H3 H 0.5961 0.1640 -0.1162
C4 C 0.5759(4) 0.2035(6) -0.0036(3)
C5 C 0.4634(5) 0.2676(8) -0.0166(3)
H4 H 0.4226 0.2759 -0.0676
C6 C 0.4142(5) 0.3169(9) 0.0430(4)
H5 H 0.3392 0.3564 0.0332
C7 C 0.4759(4) 0.3092(7) 0.1211(3)
H6 H 0.4425 0.3493 0.1620
C8 C 0.5839(3) 0.2433(5) 0.1366(2)
C9 C 0.6374(4) 0.1859(5) 0.0745(2)
C10 C 0.5683(4) 0.1290(7) 0.2894(3)
H7 H 0.4993 0.1950 0.2892
H8 H 0.5465 0.0196 0.2656
C11 C 0.6318(5) 0.1049(8) 0.3726(3)
H9 H 0.6550 0.2151 0.3950
H10 H 0.7005 0.0390 0.3718
C12 C 0.5596(8) 0.0145(10) 0.4245(4)
H11 H 0.5321 -0.0959 0.4027
C13 C 0.5947(12) 0.0059(18) 0.4997(7)
H12 H 0.6595 0.0749 0.5255
C14 C 0.4820(12) 0.0939(16) 0.4507(7)
H13 H 0.4770 0.2180 0.4465
C15 C 1.1774(6) 0.2253(8) 0.2220(5)
C16 C 1.0637(4) 0.1347(7) 0.2128(3)
C13B C 0.4053(12) -0.0059(18) 0.5003(7)
C12B C 0.4404(8) -0.0145(10) 0.5755(4)
C11B C 0.3682(5) -0.1049(8) 0.6274(3)
C10B C 0.4317(4) -0.1290(7) 0.7106(3)
S1B S 0.33732(9) -0.24011(13) 0.76547(6)
C8B C 0.4161(3) -0.2433(5) 0.8634(2)
C7B C 0.5241(4) -0.3092(7) 0.8789(3)
C6B C 0.5858(5) -0.3169(9) 0.9570(4)
C5B C 0.5366(5) -0.2676(8) 1.0166(3)
C4B C 0.4241(4) -0.2035(6) 1.0036(3)
C3B C 0.3666(6) -0.1549(8) 1.0643(3)
C2B C 0.2600(6) -0.0965(9) 1.0483(3)
C1B C 0.2058(5) -0.0779(7) 0.9702(3)
N1B N 0.2547(3) -0.1195(5) 0.91022(19)
C9B C 0.3626(4) -0.1859(5) 0.9255(2)
H1B H 0.1319 -0.0343 0.9597
H2B H 0.2218 -0.0683 1.0887
H3B H 0.4039 -0.1640 1.1162
H4B H 0.5774 -0.2759 1.0676
H5B H 0.6608 -0.3564 0.9668
H6B H 0.5575 -0.3493 0.8380
H7B H 0.5007 -0.1950 0.7108
H8B H 0.4535 -0.0196 0.7344
H9B H 0.3450 -0.2151 0.6050
H10B H 0.2995 -0.0390 0.6282
H11B H 0.4679 0.0959 0.5973
C14B C 0.5180(12) -0.0939(16) 0.5493(7)
H12B H 0.3405 -0.0749 0.4745
H13B H 0.5230 -0.2180 0.5535
Ag1B Ag 0.16995(3) -0.04008(5) 0.78422(2)
F1B F -0.2371(5) -0.1954(12) 0.8267(4)
F2B F -0.1650(5) -0.3914(6) 0.7657(6)
F3B F -0.2433(4) -0.1937(9) 0.7103(3)
O1B O 0.0000(3) -0.1859(6) 0.7426(2)
O2B O -0.0439(4) -0.0246(6) 0.8374(3)
C15B C -0.1774(6) -0.2253(8) 0.7780(5)
C16B C -0.0637(4) -0.1347(7) 0.7872(3)
S1C S 0.83732(9) -0.25989(13) 0.26547(6)
Ag1C Ag 0.66995(3) 0.54008(5) 0.28422(2)
Ag1A Ag 0.33005(3) -0.54008(5) 0.71578(2)
S1A S 0.16268(9) 0.25989(13) 0.73453(6)
loop_
_geom_bond_atom_site_label_1
_geom_bond_atom_site_label_2
_geom_bond_site_symmetry_1
_geom_bond_site_symmetry_2
Ag1 S1 1_555 1_555
S1 C8 1_555 1_555
F1 C15 1_555 1_555
F2 C15 1_555 1_555
F3 C15 1_555 1_555
O1 Ag1 1_555 1_555
O2 C16 1_555 1_555
N1 Ag1 1_555 1_555
C1 N1 1_555 1_555
H1 C1 1_555 1_555
C2 C1 1_555 1_555
H2 C2 1_555 1_555
C3 C2 1_555 1_555
H3 C3 1_555 1_555
C4 C3 1_555 1_555
C5 C4 1_555 1_555
H4 C5 1_555 1_555
C6 C5 1_555 1_555
H5 C6 1_555 1_555
C7 C6 1_555 1_555
H6 C7 1_555 1_555
C8 C7 1_555 1_555
C9 N1 1_555 1_555
C10 S1 1_555 1_555
H7 C10 1_555 1_555
H8 C10 1_555 1_555
C11 C10 1_555 1_555
H9 C11 1_555 1_555
H10 C11 1_555 1_555
C12 C11 1_555 1_555
H11 C12 1_555 1_555
C13 C12 1_555 1_555
H12 C13 1_555 1_555
C14 C12 1_555 1_555
H13 C14 1_555 1_555
C15 C16 1_555 1_555
C16 O1 1_555 1_555
C13B C14 1_555 1_555
C12B C13B 1_555 1_555
C11B C12B 1_555 1_555
C10B C11B 1_555 1_555
S1B C10B 1_555 1_555
C8B S1B 1_555 1_555
C7B C8B 1_555 1_555
C6B C7B 1_555 1_555
C5B C6B 1_555 1_555
C4B C5B 1_555 1_555
C3B C4B 1_555 1_555
C2B C3B 1_555 1_555
C1B C2B 1_555 1_555
N1B C1B 1_555 1_555
C9B C8B 1_555 1_555
H1B C1B 1_555 1_555
H2B C2B 1_555 1_555
H3B C3B 1_555 1_555
H4B C5B 1_555 1_555
H5B C6B 1_555 1_555
H6B C7B 1_555 1_555
H7B C10B 1_555 1_555
H8B C10B 1_555 1_555
H9B C11B 1_555 1_555
H10B C11B 1_555 1_555
H11B C12B 1_555 1_555
C14B C13 1_555 1_555
H12B C13B 1_555 1_555
H13B C14B 1_555 1_555
Ag1B S1B 1_555 1_555
F1B C15B 1_555 1_555
F2B C15B 1_555 1_555
F3B C15B 1_555 1_555
O1B Ag1B 1_555 1_555
O2B C16B 1_555 1_555
C15B C16B 1_555 1_555
C16B O1B 1_555 1_555
S1C Ag1 1_555 1_555
Ag1C S1 1_555 1_555
Ag1A S1B 1_555 1_555
S1A Ag1B 1_555 1_555
C4 C9 1_555 1_555
C8 C9 1_555 1_555
C13 C14 1_555 1_555
C13B C14B 1_555 1_555
C12B C14B 1_555 1_555
C4B C9B 1_555 1_555
N1B C9B 1_555 1_555
N1B Ag1B 1_555 1_555

#END
