
#######################################################################
#
#                 Cambridge Crystallographic Data Centre
#                                CCDC 
#
#######################################################################
#
# If this CIF has been generated from an entry in the Cambridge 
# Structural Database, then it will include bibliographic, chemical, 
# crystal, experimental, refinement or atomic coordinate data resulting 
# from the CCDC's data processing and validation procedures.
#
#######################################################################

data_BASKEM
_symmetry_cell_setting           monoclinic
_symmetry_space_group_name_H-M   'C 2/c'
_symmetry_Int_Tables_number      15
_space_group_name_Hall           '-C 2yn'
loop_
_symmetry_equiv_pos_site_id
_symmetry_equiv_pos_as_xyz
1 x,y,z
2 x,-y,1/2+z
3 1/2+x,1/2+y,z
4 1/2+x,1/2-y,1/2+z
5 -x,-y,-z
6 -x,y,1/2-z
7 1/2-x,1/2-y,-z
8 1/2-x,1/2+y,1/2-z
_cell_length_a                   18.46(3)
_cell_length_b                   5.612(11)
_cell_length_c                   18.46(3)
_cell_angle_alpha                90
_cell_angle_beta                 100.172(10)
_cell_angle_gamma                90
_cell_volume                     1882.35
loop_
_atom_site_label
_atom_site_type_symbol
_atom_site_fract_x
_atom_site_fract_y
_atom_site_fract_z
Ag1 Ag 0.2500 0.2500 0.0000
N1 N 0.2256(2) 0.4832(9) 0.0917(3)
C1 C 0.1663(3) 0.4591(13) 0.1238(4)
H1 H 0.1360 0.3278 0.1109
C2 C 0.1470(3) 0.6172(14) 0.1749(3)
H2 H 0.1059 0.5901 0.1965
C3 C 0.1902(4) 0.8138(18) 0.1930(4)
H3 H 0.1775 0.9270 0.2254
C4 C 0.2537(4) 0.8428(12) 0.1621(4)
H4 H 0.2847 0.9728 0.1745
C5 C 0.2691(3) 0.6718(12) 0.1125(3)
C6 C 0.3357(3) 0.7044(11) 0.0791(4)
H5 H 0.3676 0.8298 0.0947
N2 N 0.3503(2) 0.5637(9) 0.0291(3)
N3 N 0.4129(2) 0.6184(9) 0.0015(3)
C7 C 0.4667(3) 0.4731(10) 0.0167(3)
C8 C 0.4659(5) 0.2546(9) 0.0627(7)
H6 H 0.4669 0.2997 0.1130
H7 H 0.5082 0.1588 0.0593
H8 H 0.4220 0.1649 0.0452
C7D C 0.5333(3) 0.5269(10) -0.0167(3)
N3D N 0.5871(2) 0.3816(9) -0.0015(3)
N2D N 0.6497(2) 0.4363(9) -0.0291(3)
C6D C 0.6643(3) 0.2956(11) -0.0791(4)
C5D C 0.7309(3) 0.3282(12) -0.1125(3)
N1D N 0.7744(2) 0.5168(9) -0.0917(3)
C1D C 0.8337(3) 0.5409(13) -0.1238(4)
H1D H 0.8640 0.6722 -0.1109
C2D C 0.8530(3) 0.3828(14) -0.1749(3)
H2D H 0.8941 0.4099 -0.1965
C3D C 0.8098(4) 0.1862(18) -0.1930(4)
H3D H 0.8225 0.0730 -0.2254
C4D C 0.7463(4) 0.1572(12) -0.1621(4)
H4D H 0.7153 0.0272 -0.1745
H5D H 0.6324 0.1702 -0.0947
C8D C 0.5341(5) 0.7454(9) -0.0627(7)
H6D H 0.5331 0.7003 -0.1130
H7D H 0.4918 0.8412 -0.0593
H8D H 0.5780 0.8351 -0.0452
N1F N 0.2744(2) 0.0168(9) -0.0917(3)
N2F N 0.1497(2) -0.0637(9) -0.0291(3)
Ag1B Ag 0.7500 0.7500 0.0000
Cl1 Cl 0.0000 0.1883(8) 0.2500
O2 O -0.0716(8) 0.105(4) 0.2415(12)
O4 O 0.0159(12) 0.237(3) 0.1675(7)
O2E O 0.0716(8) 0.105(4) 0.2585(12)
O4E O -0.0159(12) 0.237(3) 0.3325(7)
O1? O 0.0555(10) -0.010(3) 0.2780(10)
O3? O 0.0290(10) 0.409(3) 0.2904(8)
loop_
_geom_bond_atom_site_label_1
_geom_bond_atom_site_label_2
_geom_bond_site_symmetry_1
_geom_bond_site_symmetry_2
Ag1 N1 1_555 1_555
N1 C1 1_555 1_555
C1 H1 1_555 1_555
C2 C1 1_555 1_555
H2 C2 1_555 1_555
C3 C2 1_555 1_555
H3 C3 1_555 1_555
C4 C3 1_555 1_555
H4 C4 1_555 1_555
C5 N1 1_555 1_555
C6 C5 1_555 1_555
H5 C6 1_555 1_555
N2 Ag1 1_555 1_555
N3 N2 1_555 1_555
C7 N3 1_555 1_555
C8 C7 1_555 1_555
H6 C8 1_555 1_555
H7 C8 1_555 1_555
H8 C8 1_555 1_555
Cl1 O2 1_555 1_555
O4 Cl1 1_555 1_555
C7D C7 1_555 1_555
N3D C7D 1_555 1_555
N2D N3D 1_555 1_555
C6D N2D 1_555 1_555
C5D C6D 1_555 1_555
N1D C5D 1_555 1_555
C1D N1D 1_555 1_555
H1D C1D 1_555 1_555
C2D C1D 1_555 1_555
H2D C2D 1_555 1_555
C3D C2D 1_555 1_555
H3D C3D 1_555 1_555
C4D C5D 1_555 1_555
H4D C4D 1_555 1_555
H5D C6D 1_555 1_555
C8D C7D 1_555 1_555
H6D C8D 1_555 1_555
H7D C8D 1_555 1_555
H8D C8D 1_555 1_555
O2E Cl1 1_555 1_555
O4E Cl1 1_555 1_555
N1F Ag1 1_555 1_555
N2F Ag1 1_555 1_555
Ag1B N2D 1_555 1_555
C4 C5 1_555 1_555
C6 N2 1_555 1_555
N1D Ag1B 1_555 1_555
C3D C4D 1_555 1_555

#END
