
#######################################################################
#
#                 Cambridge Crystallographic Data Centre
#                                CCDC 
#
#######################################################################
#
# If this CIF has been generated from an entry in the Cambridge 
# Structural Database, then it will include bibliographic, chemical, 
# crystal, experimental, refinement or atomic coordinate data resulting 
# from the CCDC's data processing and validation procedures.
#
#######################################################################

data_BASMIS01
_symmetry_cell_setting           monoclinic
_symmetry_space_group_name_H-M   'P 2/n'
_symmetry_Int_Tables_number      13
_space_group_name_Hall           '-P 2yac'
loop_
_symmetry_equiv_pos_site_id
_symmetry_equiv_pos_as_xyz
1 x,y,z
2 1/2-x,y,1/2-z
3 -x,-y,-z
4 1/2+x,-y,1/2+z
_cell_length_a                   7.6920(10)
_cell_length_b                   11.5880(10)
_cell_length_c                   10.7500(10)
_cell_angle_alpha                90
_cell_angle_beta                 92.67(2)
_cell_angle_gamma                90
_cell_volume                     957.16
loop_
_atom_site_label
_atom_site_type_symbol
_atom_site_fract_x
_atom_site_fract_y
_atom_site_fract_z
Mn1 Mn 0.2500 0.28111(3) 0.7500
O1 O 0.4216(2) 0.28393(13) 0.91958(15)
O3 O -0.2425(2) 0.34368(14) 0.9004(2)
O4 O 0.0309(2) 0.29325(13) 0.87304(14)
C1 C -0.1930(2) 0.1649(2) 0.8021(2)
C2 C -0.1396(3) 0.0600(2) 0.8545(2)
H1 H -0.0650(3) 0.0595(2) 0.9251(2)
C3 C -0.1964(3) -0.0436(2) 0.8028(3)
H2 H -0.1609(31) -0.1123(22) 0.8354(22)
C4 C -0.1306(3) 0.2765(2) 0.8622(2)
N1 N 0.2500 0.0867(2) 0.7500
N2 N 0.2500 -0.5229(2) 0.7500
C5 C 0.1810(3) 0.0267(2) 0.6534(2)
H3 H 0.1335(3) 0.0672(2) 0.5853(2)
C6 C 0.1770(3) -0.0928(2) 0.6499(2)
H4 H 0.1260(3) -0.1311(2) 0.5815(2)
C7 C 0.2500 -0.1545(2) 0.7500
C8 C 0.2500 -0.2830(2) 0.7500
C9 C 0.4028(3) -0.3442(2) 0.7721(2)
H5 H 0.5076(3) -0.3057(2) 0.7883(2)
C10 C 0.3970(3) -0.4635(2) 0.7697(2)
H6 H 0.5005(3) -0.5042(2) 0.7825(2)
H7 H 0.5348(42) 0.3009(25) 0.9130(27)
H8 H 0.3845(42) 0.3215(27) 0.9666(29)
Mn1_2 Mn 0.2500 -0.71889(3) 0.7500
Mn1_3 Mn -0.7500 0.28111(3) 0.7500
O1A O 0.0784(2) 0.28393(13) 0.58042(15)
O3A O -0.2575(2) 0.34368(14) 0.5996(2)
O4A O -0.5309(2) 0.29325(13) 0.62696(14)
O4A_2 O 0.4691(2) 0.29325(13) 0.62696(14)
C1A C -0.3070(2) 0.1649(2) 0.6979(2)
C2A C -0.3604(3) 0.0600(2) 0.6455(2)
H1A H -0.4350(3) 0.0595(2) 0.5749(2)
C3A C -0.3036(3) -0.0436(2) 0.6972(3)
H2A H -0.3391(31) -0.1123(22) 0.6646(22)
C4A C -0.3694(3) 0.2765(2) 0.6378(2)
N2_2 N 0.2500 0.4771(2) 0.7500
C5A C 0.3190(3) 0.0267(2) 0.8466(2)
H3A H 0.3665(3) 0.0672(2) 0.9147(2)
C6A C 0.3230(3) -0.0928(2) 0.8501(2)
H4A H 0.3740(3) -0.1311(2) 0.9185(2)
C9A C 0.0972(3) -0.3442(2) 0.7279(2)
H5A H -0.0076(3) -0.3057(2) 0.7117(2)
C10A C 0.1030(3) -0.4635(2) 0.7303(2)
H6A H -0.0005(3) -0.5042(2) 0.7175(2)
H7A H -0.0348(42) 0.3009(25) 0.5870(27)
H8A H 0.1155(42) 0.3215(27) 0.5334(29)
O2 O -0.2180(3) 0.5866(2) 0.9349(2)
H9 H -0.1302(41) 0.6039(27) 0.9827(28)
H10 H -0.2191(44) 0.5228(28) 0.9301(30)
loop_
_geom_bond_atom_site_label_1
_geom_bond_atom_site_label_2
_geom_bond_site_symmetry_1
_geom_bond_site_symmetry_2
Mn1 O1 1_555 1_555
O1 H7 1_555 1_555
O2 H9 1_555 1_555
O3 C4 1_555 1_555
O4 Mn1 1_555 1_555
C1 C2 1_555 1_555
C2 H1 1_555 1_555
C3 C2 1_555 1_555
H2 C3 1_555 1_555
C4 O4 1_555 1_555
N1 Mn1 1_555 1_555
N2 C10 1_555 1_555
C5 N1 1_555 1_555
H3 C5 1_555 1_555
C6 C5 1_555 1_555
H4 C6 1_555 1_555
C7 C6 1_555 1_555
C8 C7 1_555 1_555
C9 C8 1_555 1_555
H5 C9 1_555 1_555
C10 C9 1_555 1_555
H6 C10 1_555 1_555
H8 O1 1_555 1_555
H10 O2 1_555 1_555
Mn1_2 N2 1_555 1_555
Mn1_3 O4A 1_555 1_555
O1A Mn1 1_555 1_555
O3A C4A 1_555 1_555
O4A C4A 1_555 1_555
O4A_2 Mn1 1_555 1_555
C1A C1 1_555 1_555
C2A C1A 1_555 1_555
H1A C2A 1_555 1_555
C3A C3 1_555 1_555
H2A C3A 1_555 1_555
C4A C1A 1_555 1_555
N2_2 Mn1 1_555 1_555
C5A N1 1_555 1_555
H3A C5A 1_555 1_555
C6A C7 1_555 1_555
H4A C6A 1_555 1_555
C9A C8 1_555 1_555
H5A C9A 1_555 1_555
C10A N2 1_555 1_555
H6A C10A 1_555 1_555
H7A O1A 1_555 1_555
H8A O1A 1_555 1_555
C1 C4 1_555 1_555
C2A C3A 1_555 1_555
C5A C6A 1_555 1_555
C9A C10A 1_555 1_555

#END
