
#######################################################################
#
#                 Cambridge Crystallographic Data Centre
#                                CCDC 
#
#######################################################################
#
# If this CIF has been generated from an entry in the Cambridge 
# Structural Database, then it will include bibliographic, chemical, 
# crystal, experimental, refinement or atomic coordinate data resulting 
# from the CCDC's data processing and validation procedures.
#
#######################################################################

data_BASMUE
_symmetry_cell_setting           triclinic
_symmetry_space_group_name_H-M   'P -1'
_symmetry_Int_Tables_number      2
_space_group_name_Hall           '-P 1'
loop_
_symmetry_equiv_pos_site_id
_symmetry_equiv_pos_as_xyz
1 x,y,z
2 -x,-y,-z
_cell_length_a                   9.3349(7)
_cell_length_b                   10.3142(8)
_cell_length_c                   11.4065(8)
_cell_angle_alpha                92.0230(10)
_cell_angle_beta                 112.8640(10)
_cell_angle_gamma                116.479(2)
_cell_volume                     876.363
loop_
_atom_site_label
_atom_site_type_symbol
_atom_site_fract_x
_atom_site_fract_y
_atom_site_fract_z
Mn1 Mn 0.49672(8) 0.37241(6) 1.35059(5)
N1 N 0.2870(5) 0.3718(4) 1.1615(4)
N2 N -0.3054(5) 0.3548(4) 0.5337(3)
O1 O 0.4088(5) 0.1268(4) 1.2540(4)
O2 O 0.5981(4) 0.3229(3) 1.2209(3)
O3 O 0.6606(4) 0.6046(3) 1.3839(3)
O4 O 0.6890(4) 0.6923(3) 1.5767(3)
C1 C 0.3384(8) 0.4651(7) 1.0927(6)
H1 H 0.4584 0.5396 1.1305
C2 C 0.2288(7) 0.4616(7) 0.9689(6)
H2 H 0.2757 0.5323 0.9264
C3 C 0.0514(6) 0.3551(5) 0.9078(4)
C4 C -0.0020(8) 0.2574(8) 0.9783(6)
H3 H -0.1204 0.1798 0.9413
C5 C 0.1154(7) 0.2703(7) 1.1039(6)
H4 H 0.0708 0.2038 1.1502
C6 C -0.0714(6) 0.3507(5) 0.7768(4)
C7 C -0.0170(6) 0.4674(6) 0.7178(5)
H5 H 0.1000 0.5473 0.7594
C8 C -0.1353(6) 0.4647(6) 0.5991(5)
H6 H -0.0950 0.5438 0.5617
C9 C -0.3538(7) 0.2417(6) 0.5877(5)
H7 H -0.4702 0.1614 0.5420
C10 C -0.2456(6) 0.2336(5) 0.7059(5)
H8 H -0.2886 0.1504 0.7382
C11 C 0.4637(11) 0.1111(8) 0.9737(6)
H9 H 0.4391 0.1879 0.9539
C12 C 0.5017(6) 0.0880(5) 1.0962(4)
C13 C 0.5392(11) -0.0229(8) 1.1219(6)
H10 H 0.5674 -0.0402 1.2053
C14 C 0.5019(6) 0.1836(5) 1.1974(4)
C15 C 0.9323(7) 0.9810(5) 1.5902(5)
H11 H 0.8871 0.9688 1.6513
C16 C 0.8672(6) 0.8586(4) 1.4906(4)
C17 C 0.9365(7) 0.8796(5) 1.4010(5)
H12 H 0.8940 0.7986 1.3339
C18 C 0.7269(5) 0.7071(4) 1.4822(4)
C13A C 0.4608(11) 0.0229(8) 0.8781(6)
C12A C 0.4983(6) -0.0880(5) 0.9038(4)
C11A C 0.5363(11) -0.1111(8) 1.0263(6)
H9A H 0.5609 -0.1879 1.0461
C14A C 0.4981(6) -0.1836(5) 0.8026(4)
O1A O 0.5912(5) -0.1268(4) 0.7460(4)
O2A O 0.4019(4) -0.3229(3) 0.7791(3)
H10A H 0.4326 0.0402 0.7947
C17A C 1.0635(7) 1.1204(5) 1.5990(5)
C16A C 1.1328(6) 1.1414(4) 1.5094(4)
C15A C 1.0677(7) 1.0190(5) 1.4098(5)
H11A H 1.1129 1.0312 1.3487
C18A C 1.2731(5) 1.2929(4) 1.5178(4)
O3A O 1.3394(4) 1.3954(3) 1.6161(3)
O4A O 1.3110(4) 1.3077(3) 1.4233(3)
H12A H 1.1060 1.2014 1.6661
N1_2 N 1.2870(5) 0.3718(4) 2.1615(4)
N2_2 N 0.6946(5) 0.3548(4) 1.5337(3)
C1_2 C 1.3384(8) 0.4651(7) 2.0927(6)
H1_2 H 1.4584 0.5396 2.1305
C2_2 C 1.2288(7) 0.4616(7) 1.9689(6)
H2_2 H 1.2757 0.5323 1.9264
C3_2 C 1.0514(6) 0.3551(5) 1.9078(4)
C4_2 C 0.9980(8) 0.2574(8) 1.9783(6)
H3_2 H 0.8796 0.1798 1.9413
C5_2 C 1.1154(7) 0.2703(7) 2.1039(6)
H4_2 H 1.0708 0.2038 2.1502
C6_2 C 0.9286(6) 0.3507(5) 1.7768(4)
C7_2 C 0.9830(6) 0.4674(6) 1.7178(5)
H5_2 H 1.1000 0.5473 1.7594
C8_2 C 0.8647(6) 0.4647(6) 1.5991(5)
H6_2 H 0.9050 0.5438 1.5617
C9_2 C 0.6462(7) 0.2417(6) 1.5877(5)
H7_2 H 0.5298 0.1614 1.5420
C10_2 C 0.7544(6) 0.2336(5) 1.7059(5)
H8_2 H 0.7114 0.1504 1.7382
Mn1_2 Mn 1.49672(8) 0.37241(6) 2.35059(5)
O4A_2 O 0.3110(4) 0.3077(3) 1.4233(3)
Mn1_3 Mn -0.50328(8) 0.37241(6) 0.35059(5)
Mn1A Mn 0.50328(8) 0.62759(6) 1.64941(5)
Mn1A_2 Mn 0.50328(8) -0.37241(6) 0.64941(5)
Mn1A_3 Mn 1.50328(8) 1.62759(6) 1.64941(5)
Mn1_4 Mn 1.49672(8) 1.37241(6) 1.35059(5)
N2_3 N 1.6946(5) 0.3548(4) 2.5337(3)
O1_2 O 1.4088(5) 0.1268(4) 2.2540(4)
O2_2 O 1.5981(4) 0.3229(3) 2.2209(3)
O3_2 O 1.6606(4) 0.6046(3) 2.3839(3)
O4A_3 O 1.3110(4) 0.3077(3) 2.4233(3)
loop_
_geom_bond_atom_site_label_1
_geom_bond_atom_site_label_2
_geom_bond_site_symmetry_1
_geom_bond_site_symmetry_2
Mn1 N1 1_555 1_555
N1 C1 1_555 1_555
N2 C8 1_555 1_555
O1 Mn1 1_555 1_555
O2 Mn1 1_555 1_555
O3 Mn1 1_555 1_555
O4 C18 1_555 1_555
C1 H1 1_555 1_555
C2 C1 1_555 1_555
H2 C2 1_555 1_555
C3 C2 1_555 1_555
C4 C3 1_555 1_555
H3 C4 1_555 1_555
C5 N1 1_555 1_555
H4 C5 1_555 1_555
C6 C3 1_555 1_555
C7 C6 1_555 1_555
H5 C7 1_555 1_555
C8 C7 1_555 1_555
H6 C8 1_555 1_555
C9 N2 1_555 1_555
H7 C9 1_555 1_555
C10 C6 1_555 1_555
H8 C10 1_555 1_555
C11 H9 1_555 1_555
C12 C11 1_555 1_555
C13 C12 1_555 1_555
H10 C13 1_555 1_555
C14 O1 1_555 1_555
C15 H11 1_555 1_555
C16 C15 1_555 1_555
C17 C16 1_555 1_555
H12 C17 1_555 1_555
C18 O3 1_555 1_555
C13A C11 1_555 1_555
C12A C13A 1_555 1_555
C11A C13 1_555 1_555
H9A C11A 1_555 1_555
C14A C12A 1_555 1_555
O1A C14A 1_555 1_555
O2A C14A 1_555 1_555
H10A C13A 1_555 1_555
C17A C15 1_555 1_555
C16A C17A 1_555 1_555
C15A C17 1_555 1_555
H11A C15A 1_555 1_555
C18A C16A 1_555 1_555
O3A C18A 1_555 1_555
O4A C18A 1_555 1_555
H12A C17A 1_555 1_555
N1_2 C1_2 1_555 1_555
N2_2 Mn1 1_555 1_555
C1_2 H1_2 1_555 1_555
C2_2 C1_2 1_555 1_555
H2_2 C2_2 1_555 1_555
C3_2 C2_2 1_555 1_555
C4_2 C3_2 1_555 1_555
H3_2 C4_2 1_555 1_555
C5_2 N1_2 1_555 1_555
H4_2 C5_2 1_555 1_555
C6_2 C3_2 1_555 1_555
C7_2 C6_2 1_555 1_555
H5_2 C7_2 1_555 1_555
C8_2 N2_2 1_555 1_555
H6_2 C8_2 1_555 1_555
C9_2 N2_2 1_555 1_555
H7_2 C9_2 1_555 1_555
C10_2 C6_2 1_555 1_555
H8_2 C10_2 1_555 1_555
Mn1_2 N1_2 1_555 1_555
O4A_2 Mn1 1_555 1_555
Mn1_3 N2 1_555 1_555
Mn1A O4 1_555 1_555
Mn1A_2 O1A 1_555 1_555
Mn1A_3 O3A 1_555 1_555
Mn1_4 O4A 1_555 1_555
N2_3 Mn1_2 1_555 1_555
O1_2 Mn1_2 1_555 1_555
O2_2 Mn1_2 1_555 1_555
O3_2 Mn1_2 1_555 1_555
O4A_3 Mn1_2 1_555 1_555
O2 C14 1_555 1_555
C4 C5 1_555 1_555
C9 C10 1_555 1_555
C12 C14 1_555 1_555
C16 C18 1_555 1_555
C12A C11A 1_555 1_555
O2A Mn1A_2 1_555 1_555
C16A C15A 1_555 1_555
C4_2 C5_2 1_555 1_555
C7_2 C8_2 1_555 1_555
C9_2 C10_2 1_555 1_555

#END
