
#######################################################################
#
#                 Cambridge Crystallographic Data Centre
#                                CCDC 
#
#######################################################################
#
# If this CIF has been generated from an entry in the Cambridge 
# Structural Database, then it will include bibliographic, chemical, 
# crystal, experimental, refinement or atomic coordinate data resulting 
# from the CCDC's data processing and validation procedures.
#
#######################################################################

data_BASMIS02
_symmetry_cell_setting           monoclinic
_symmetry_space_group_name_H-M   'P 2/c'
_symmetry_Int_Tables_number      13
_space_group_name_Hall           '-P 2yc'
loop_
_symmetry_equiv_pos_site_id
_symmetry_equiv_pos_as_xyz
1 x,y,z
2 -x,y,1/2-z
3 -x,-y,-z
4 x,-y,1/2+z
_cell_length_a                   7.6923(11)
_cell_length_b                   11.5813(17)
_cell_length_c                   12.9165(14)
_cell_angle_alpha                90
_cell_angle_beta                 123.786(6)
_cell_angle_gamma                90
_cell_volume                     956.362
loop_
_atom_site_label
_atom_site_type_symbol
_atom_site_fract_x
_atom_site_fract_y
_atom_site_fract_z
C1 C 0.4930(2) -0.27641(13) 0.36226(14)
C2 C 0.4952(2) -0.16506(12) 0.30242(13)
C3 C 0.4942(2) -0.06019(15) 0.35455(16)
H1 H 0.4903 -0.0598 0.4252
C4 C 0.4990(3) 0.04298(15) 0.30329(19)
H2 H 0.5007 0.1124 0.3400
C5 C 0.0279(3) -0.02688(13) 0.34645(14)
H3 H 0.0487 -0.0672 0.4147
C6 C 0.0273(3) 0.09224(14) 0.34988(14)
H4 H 0.0451 0.1305 0.4185
C7 C 0.0000 0.15429(17) 0.2500
C8 C 0.0000 0.28226(16) 0.2500
C9 C 0.1308(3) 0.34403(13) 0.22787(16)
H5 H 0.2194 0.3057 0.2116
C10 C 0.1277(3) 0.46306(13) 0.23036(16)
H6 H 0.2188 0.5036 0.2178
N1 N 0.0000 0.52294(15) 0.2500
N2 N 0.0000 -0.08736(15) 0.2500
O1 O 0.34157(17) -0.29337(10) 0.37258(11)
O2 O 0.64252(19) -0.34406(11) 0.40053(13)
O3 O 0.00192(17) -0.28420(9) 0.08041(10)
H7 H 0.1103 -0.2996 0.0797
H8 H -0.0877 -0.3352 0.0312
Mn1 Mn 0.0000 -0.28148(2) 0.2500
C1A C 0.5070(2) -0.27641(13) 0.13774(14)
C2A C 0.5048(2) -0.16506(12) 0.19758(13)
C3A C 0.5058(2) -0.06019(15) 0.14545(16)
H1A H 0.5097 -0.0598 0.0748
C4A C 0.5010(3) 0.04298(15) 0.19671(19)
H2A H 0.4993 0.1124 0.1600
C5A C -0.0279(3) -0.02688(13) 0.15355(14)
H3A H -0.0487 -0.0672 0.0853
C6A C -0.0273(3) 0.09224(14) 0.15012(14)
H4A H -0.0451 0.1305 0.0815
C9A C -0.1308(3) 0.34403(13) 0.27213(16)
H5A H -0.2194 0.3057 0.2884
C10A C -0.1277(3) 0.46306(13) 0.26964(16)
H6A H -0.2188 0.5036 0.2822
N1_2 N 0.0000 -0.47706(15) 0.2500
O1A O 0.65843(17) -0.29337(10) 0.12742(11)
O1A_2 O -0.34157(17) -0.29337(10) 0.12742(11)
O2A O 0.35748(19) -0.34406(11) 0.09947(13)
O3A O -0.00192(17) -0.28420(9) 0.41959(10)
H7A H -0.1103 -0.2996 0.4203
H8A H 0.0877 -0.3352 0.4688
Mn1_2 Mn 0.0000 0.71852(2) 0.2500
Mn1_3 Mn 1.0000 -0.28148(2) 0.2500
O4 O 0.3474(2) 0.58657(13) 0.56506(12)
H9 H 0.3950 0.6039 0.5212
H10 H 0.3489 0.5114 0.5647
loop_
_geom_bond_atom_site_label_1
_geom_bond_atom_site_label_2
_geom_bond_site_symmetry_1
_geom_bond_site_symmetry_2
C1 C2 1_555 1_555
C2 C3 1_555 1_555
C3 H1 1_555 1_555
C4 C3 1_555 1_555
H2 C4 1_555 1_555
C5 H3 1_555 1_555
C6 C5 1_555 1_555
H4 C6 1_555 1_555
C7 C6 1_555 1_555
C8 C7 1_555 1_555
C9 C8 1_555 1_555
H5 C9 1_555 1_555
C10 C9 1_555 1_555
H6 C10 1_555 1_555
N1 C10 1_555 1_555
N2 C5 1_555 1_555
O1 C1 1_555 1_555
O2 C1 1_555 1_555
O3 H7 1_555 1_555
H8 O3 1_555 1_555
O4 H9 1_555 1_555
H10 O4 1_555 1_555
Mn1 N2 1_555 1_555
C1A C2A 1_555 1_555
C2A C2 1_555 1_555
C3A C2A 1_555 1_555
H1A C3A 1_555 1_555
C4A C4 1_555 1_555
H2A C4A 1_555 1_555
C5A N2 1_555 1_555
H3A C5A 1_555 1_555
C6A C7 1_555 1_555
H4A C6A 1_555 1_555
C9A C8 1_555 1_555
H5A C9A 1_555 1_555
C10A N1 1_555 1_555
H6A C10A 1_555 1_555
N1_2 Mn1 1_555 1_555
O1A C1A 1_555 1_555
O1A_2 Mn1 1_555 1_555
O2A C1A 1_555 1_555
O3A Mn1 1_555 1_555
H7A O3A 1_555 1_555
H8A O3A 1_555 1_555
Mn1_2 N1 1_555 1_555
Mn1_3 O1A 1_555 1_555
O1 Mn1 1_555 1_555
O3 Mn1 1_555 1_555
C3A C4A 1_555 1_555
C5A C6A 1_555 1_555
C9A C10A 1_555 1_555

#END
