
#######################################################################
#
#                 Cambridge Crystallographic Data Centre
#                                CCDC 
#
#######################################################################
#
# If this CIF has been generated from an entry in the Cambridge 
# Structural Database, then it will include bibliographic, chemical, 
# crystal, experimental, refinement or atomic coordinate data resulting 
# from the CCDC's data processing and validation procedures.
#
#######################################################################

data_BASPUH
_symmetry_cell_setting           monoclinic
_symmetry_space_group_name_H-M   'P 21/n'
_symmetry_Int_Tables_number      14
_space_group_name_Hall           '-P 2yn'
loop_
_symmetry_equiv_pos_site_id
_symmetry_equiv_pos_as_xyz
1 x,y,z
2 1/2+x,1/2-y,1/2+z
3 -x,-y,-z
4 1/2-x,1/2+y,1/2-z
_cell_length_a                   13.769(3)
_cell_length_b                   11.613(2)
_cell_length_c                   24.153(5)
_cell_angle_alpha                90
_cell_angle_beta                 96.31(3)
_cell_angle_gamma                90
_cell_volume                     3838.65
loop_
_atom_site_label
_atom_site_type_symbol
_atom_site_fract_x
_atom_site_fract_y
_atom_site_fract_z
W1 W 0.08639(4) 0.06521(5) 0.18750(3)
W2 W 0.03057(4) -0.43616(5) 0.17144(3)
Ag1 Ag 0.04542(11) -0.18323(10) 0.18853(7)
Ag2 Ag 0.27486(9) 0.06841(12) 0.26156(7)
Ag3 Ag 0.07635(11) 0.31651(9) 0.17061(6)
S1 S 0.0716(3) 0.1488(4) 0.1060(2)
S2 S -0.0560(3) -0.0088(3) 0.1995(2)
S3 S 0.1222(3) 0.1904(3) 0.2569(2)
S4 S 0.2024(3) -0.0670(3) 0.1832(2)
S5 S -0.0261(3) -0.3148(3) 0.1081(2)
S6 S 0.3329(3) -0.0097(3) 0.3573(2)
S7 S 0.0576(3) -0.3538(3) 0.2558(2)
S8 S -0.0823(3) -0.5659(3) 0.1780(2)
S7C S 0.4424(3) 0.1462(3) 0.2442(2)
S6C S 0.1671(3) 0.4903(3) 0.1427(2)
W2C W 0.46943(4) 0.06384(5) 0.32856(3)
Ag1C Ag 0.45458(11) 0.31677(10) 0.31147(7)
Ag2C Ag 0.22514(9) 0.56841(12) 0.23844(7)
Ag3C Ag 0.42365(11) -0.18349(9) 0.32939(6)
S8_2 S -0.0823(3) 0.4341(3) 0.1780(2)
S5C S 0.5261(3) 0.1852(3) 0.3919(2)
S2C S 0.5560(3) 0.4912(3) 0.3005(2)
S4C S 0.2976(3) 0.4330(3) 0.3168(2)
S3C S 0.3778(3) 0.6904(3) 0.2431(2)
S1C S 0.4284(3) -0.3512(4) 0.3940(2)
W1C W 0.41361(4) -0.43479(5) 0.31250(3)
Ag2C_2 Ag 0.22514(9) -0.43159(12) 0.23844(7)
Ag3_2 Ag 0.07635(11) -0.68349(9) 0.17061(6)
S6C_2 S 0.1671(3) -0.5097(3) 0.1427(2)
W2_2 W 0.03057(4) 0.56384(5) 0.17144(3)
S8C S 0.5823(3) -0.0659(3) 0.3220(2)
W1C_2 W 0.41361(4) 0.56521(5) 0.31250(3)
S7_2 S 0.0576(3) 0.6462(3) 0.2558(2)
S3C_2 S 0.3778(3) -0.3096(3) 0.2431(2)
Ag3C_2 Ag 0.42365(11) 0.81651(9) 0.32939(6)
Ag1C_2 Ag 0.45458(11) -0.68323(10) 0.31147(7)
S2C_2 S 0.5560(3) -0.5088(3) 0.3005(2)
S4C_2 S 0.2976(3) -0.5670(3) 0.3168(2)
Ca1 Ca -0.5000 0.0000 0.0000
O1 O -0.5150(9) 0.1356(11) 0.0675(5)
O2 O -0.3571(8) 0.0813(11) -0.0169(6)
O3 O -0.5820(10) 0.1199(12) -0.0659(6)
N1 N -0.5092(11) 0.2984(13) 0.1147(6)
N2 N -0.2101(10) 0.1618(13) 0.0033(7)
N3 N -0.6503(19) 0.2153(22) -0.1325(12)
C1 C -0.5608(14) 0.2099(14) 0.0896(7)
C2 C -0.2953(13) 0.1545(16) -0.0265(8)
C3 C -0.5829(39) 0.1294(40) -0.1301(31)
C4 C -0.6694(13) 0.1977(17) 0.0957(9)
C5 C -0.3239(18) 0.2331(19) -0.0759(10)
C6 C -0.5796(54) 0.0652(40) -0.1663(13)
C7 C -0.5558(15) 0.3958(16) 0.1457(9)
C8 C -0.5792(16) 0.4987(16) 0.1089(11)
C9 C -0.4017(17) 0.3171(23) 0.1007(15)
C10 C -0.3492(24) 0.2718(34) 0.1490(19)
C11 C -0.1313(16) 0.2420(19) -0.0112(11)
C12 C -0.1361(21) 0.3550(20) 0.0196(10)
C13 C -0.1867(13) 0.0834(17) 0.0525(8)
C14 C -0.1393(16) -0.0233(21) 0.0354(11)
C15 C -0.7332(30) 0.2612(35) -0.1896(21)
C16 C -0.6664(31) 0.3357(30) -0.1974(18)
C17 C -0.7124(47) 0.2651(43) -0.0840(29)
C18 C -0.6717(44) 0.3439(32) -0.0584(23)
O1B O -0.4850(9) -0.1356(11) -0.0675(5)
N1B N -0.4908(11) -0.2984(13) -0.1147(6)
C1B C -0.4392(14) -0.2099(14) -0.0896(7)
C4B C -0.3306(13) -0.1977(17) -0.0957(9)
C7B C -0.4442(15) -0.3958(16) -0.1457(9)
C8B C -0.4208(16) -0.4987(16) -0.1089(11)
C9B C -0.5983(17) -0.3171(23) -0.1007(15)
C10B C -0.6508(24) -0.2718(34) -0.1490(19)
O2B O -0.6429(8) -0.0813(11) 0.0169(6)
N2B N -0.7899(10) -0.1618(13) -0.0033(7)
C2B C -0.7047(13) -0.1545(16) 0.0265(8)
C5B C -0.6761(18) -0.2331(19) 0.0759(10)
C11B C -0.8687(16) -0.2420(19) 0.0112(11)
C12B C -0.8639(21) -0.3550(20) -0.0196(10)
C13B C -0.8133(13) -0.0834(17) -0.0525(8)
C14B C -0.8607(16) 0.0233(21) -0.0354(11)
O3B O -0.4180(10) -0.1199(12) 0.0659(6)
N3B N -0.3497(19) -0.2153(22) 0.1325(12)
C3B C -0.4171(39) -0.1294(40) 0.1301(31)
C6B C -0.4204(54) -0.0652(40) 0.1663(13)
C15B C -0.2668(30) -0.2612(35) 0.1896(21)
C16B C -0.3336(31) -0.3357(30) 0.1974(18)
C17B C -0.2876(47) -0.2651(43) 0.0840(29)
C18B C -0.3283(44) -0.3439(32) 0.0584(23)
loop_
_geom_bond_atom_site_label_1
_geom_bond_atom_site_label_2
_geom_bond_site_symmetry_1
_geom_bond_site_symmetry_2
W1 Ag1 1_555 1_555
W2 Ag1 1_555 1_555
Ag1 S2 1_555 1_555
Ag2 W1 1_555 1_555
Ag3 W1 1_555 1_555
S1 W1 1_555 1_555
S2 W1 1_555 1_555
S3 W1 1_555 1_555
S4 W1 1_555 1_555
S5 W2 1_555 1_555
S6 Ag2 1_555 1_555
S7 W2 1_555 1_555
S8 W2 1_555 1_555
Ca1 O1 1_555 1_555
O1 C1 1_555 1_555
O2 Ca1 1_555 1_555
O3 Ca1 1_555 1_555
N1 C1 1_555 1_555
N2 C2 1_555 1_555
N3 C3 1_555 1_555
C1 C4 1_555 1_555
C2 O2 1_555 1_555
C3 O3 1_555 1_555
C5 C2 1_555 1_555
C6 C3 1_555 1_555
C7 N1 1_555 1_555
C8 C7 1_555 1_555
C9 N1 1_555 1_555
C10 C9 1_555 1_555
C11 N2 1_555 1_555
C12 C11 1_555 1_555
C13 N2 1_555 1_555
C14 C13 1_555 1_555
C15 N3 1_555 1_555
C16 C15 1_555 1_555
C17 N3 1_555 1_555
C18 C17 1_555 1_555
O1B Ca1 1_555 1_555
N1B C1B 1_555 1_555
C1B O1B 1_555 1_555
C4B C1B 1_555 1_555
C7B N1B 1_555 1_555
C8B C7B 1_555 1_555
C9B N1B 1_555 1_555
C10B C9B 1_555 1_555
O2B Ca1 1_555 1_555
N2B C2B 1_555 1_555
C2B O2B 1_555 1_555
C5B C2B 1_555 1_555
C11B N2B 1_555 1_555
C12B C11B 1_555 1_555
C13B N2B 1_555 1_555
C14B C13B 1_555 1_555
O3B Ca1 1_555 1_555
N3B C3B 1_555 1_555
C3B O3B 1_555 1_555
C6B C3B 1_555 1_555
C15B N3B 1_555 1_555
C16B C15B 1_555 1_555
C17B N3B 1_555 1_555
C18B C17B 1_555 1_555
S7C Ag2 1_555 1_555
S6C Ag3 1_555 1_555
W2C Ag2 1_555 1_555
Ag1C S7C 1_555 1_555
Ag2C S6C 1_555 1_555
Ag3C S6 1_555 1_555
S8_2 Ag3 1_555 1_555
S5C W2C 1_555 1_555
S2C Ag1C 1_555 1_555
S4C Ag1C 1_555 1_555
S3C Ag2C 1_555 1_555
S1C Ag3C 1_555 1_555
W1C Ag3C 1_555 1_555
Ag2C_2 W2 1_555 1_555
Ag3_2 W2 1_555 1_555
S6C_2 W2 1_555 1_555
W2_2 Ag3 1_555 1_555
S8C W2C 1_555 1_555
W1C_2 Ag1C 1_555 1_555
S7_2 Ag2C 1_555 1_555
S3C_2 Ag3C 1_555 1_555
Ag3C_2 S3C 1_555 1_555
Ag1C_2 W1C 1_555 1_555
S2C_2 W1C 1_555 1_555
S4C_2 W1C 1_555 1_555
Ag1 S5 1_555 1_555
Ag1 S7 1_555 1_555
Ag1 S4 1_555 1_555
Ag2 S3 1_555 1_555
Ag2 S4 1_555 1_555
Ag3 S1 1_555 1_555
Ag3 S3 1_555 1_555
S6 W2C 1_555 1_555
S7 Ag2C_2 1_555 1_555
S8 Ag3_2 1_555 1_555
S7C W2C 1_555 1_555
S6C W2_2 1_555 1_555
W2C Ag1C 1_555 1_555
W2C Ag3C 1_555 1_555
Ag1C S5C 1_555 1_555
Ag2C S4C 1_555 1_555
Ag2C W1C_2 1_555 1_555
Ag2C W2_2 1_555 1_555
Ag3C S8C 1_555 1_555
S8_2 W2_2 1_555 1_555
S2C W1C_2 1_555 1_555
S4C W1C_2 1_555 1_555
S3C W1C_2 1_555 1_555
S1C W1C 1_555 1_555
W1C Ag2C_2 1_555 1_555
W1C S3C_2 1_555 1_555
Ag2C_2 S3C_2 1_555 1_555
Ag2C_2 S4C_2 1_555 1_555
Ag2C_2 S6C_2 1_555 1_555
Ag3_2 S6C_2 1_555 1_555
W2_2 S7_2 1_555 1_555
W1C_2 Ag3C_2 1_555 1_555
Ag1C_2 S2C_2 1_555 1_555
Ag1C_2 S4C_2 1_555 1_555

#END
