
#######################################################################
#
#                 Cambridge Crystallographic Data Centre
#                                CCDC 
#
#######################################################################
#
# If this CIF has been generated from an entry in the Cambridge 
# Structural Database, then it will include bibliographic, chemical, 
# crystal, experimental, refinement or atomic coordinate data resulting 
# from the CCDC's data processing and validation procedures.
#
#######################################################################

data_BASQOC01
_symmetry_cell_setting           monoclinic
_symmetry_space_group_name_H-M   'P 21/c'
_symmetry_Int_Tables_number      14
_space_group_name_Hall           '-P 2ybc'
loop_
_symmetry_equiv_pos_site_id
_symmetry_equiv_pos_as_xyz
1 x,y,z
2 -x,1/2+y,1/2-z
3 -x,-y,-z
4 x,1/2-y,1/2+z
_cell_length_a                   3.8726(5)
_cell_length_b                   14.613(2)
_cell_length_c                   11.8992(17)
_cell_angle_alpha                90
_cell_angle_beta                 92.449(3)
_cell_angle_gamma                90
_cell_volume                     672.764
loop_
_atom_site_label
_atom_site_type_symbol
_atom_site_fract_x
_atom_site_fract_y
_atom_site_fract_z
Cd1 Cd 0.0000 0.0000 0.0000
Cl1 Cl -0.5206(2) -0.03369(6) -0.14804(6)
N1 N -0.0033(6) 0.15474(17) -0.0547(2)
C1 C 0.1275(8) 0.2207(2) 0.0123(3)
H1 H 0.2264 0.2028 0.0862
C2 C 0.1324(9) 0.3124(2) -0.0159(3)
C3 C -0.0054(9) 0.3359(2) -0.1217(3)
H2 H -0.0051 0.3999 -0.1466
C4 C -0.1422(9) 0.2688(2) -0.1914(3)
H3 H -0.2429 0.2848 -0.2658
C5 C -0.1369(8) 0.1794(2) -0.1560(3)
H4 H -0.2340 0.1321 -0.2064
C6 C 0.2818(10) 0.3830(2) 0.0642(3)
H5 H 0.0940 0.4183 0.0959
H6 H 0.4331 0.4242 0.0239
H7 H 0.4156 0.3525 0.1251
Cl1_2 Cl 0.4794(2) -0.03369(6) -0.14804(6)
N1B N 0.0033(6) -0.15474(17) 0.0547(2)
C1B C -0.1275(8) -0.2207(2) -0.0123(3)
H1B H -0.2264 -0.2028 -0.0862
C2B C -0.1324(9) -0.3124(2) 0.0159(3)
C3B C 0.0054(9) -0.3359(2) 0.1217(3)
H2B H 0.0051 -0.3999 0.1466
C4B C 0.1422(9) -0.2688(2) 0.1914(3)
H3B H 0.2429 -0.2848 0.2658
C5B C 0.1369(8) -0.1794(2) 0.1560(3)
H4B H 0.2340 -0.1321 0.2064
C6B C -0.2818(10) -0.3830(2) -0.0642(3)
H5B H -0.0940 -0.4183 -0.0959
H6B H -0.4331 -0.4242 -0.0239
H7B H -0.4156 -0.3525 -0.1251
Cl1B Cl -0.4794(2) 0.03369(6) 0.14804(6)
Cl1B_2 Cl 0.5206(2) 0.03369(6) 0.14804(6)
Cd1_2 Cd -1.0000 0.0000 0.0000
Cd1_3 Cd 1.0000 0.0000 0.0000
loop_
_geom_bond_atom_site_label_1
_geom_bond_atom_site_label_2
_geom_bond_site_symmetry_1
_geom_bond_site_symmetry_2
Cd1 Cl1 1_555 1_555
Cl1 Cd1_2 1_555 1_555
N1 Cd1 1_555 1_555
C1 N1 1_555 1_555
H1 C1 1_555 1_555
C2 C1 1_555 1_555
C3 C2 1_555 1_555
H2 C3 1_555 1_555
C4 C3 1_555 1_555
H3 C4 1_555 1_555
C5 N1 1_555 1_555
H4 C5 1_555 1_555
C6 C2 1_555 1_555
H5 C6 1_555 1_555
H6 C6 1_555 1_555
H7 C6 1_555 1_555
Cl1_2 Cd1 1_555 1_555
N1B Cd1 1_555 1_555
C1B N1B 1_555 1_555
H1B C1B 1_555 1_555
C2B C1B 1_555 1_555
C3B C2B 1_555 1_555
H2B C3B 1_555 1_555
C4B C3B 1_555 1_555
H3B C4B 1_555 1_555
C5B N1B 1_555 1_555
H4B C5B 1_555 1_555
C6B C2B 1_555 1_555
H5B C6B 1_555 1_555
H6B C6B 1_555 1_555
H7B C6B 1_555 1_555
Cl1B Cd1 1_555 1_555
Cl1B_2 Cd1 1_555 1_555
Cd1_2 Cl1B 1_555 1_555
Cd1_3 Cl1_2 1_555 1_555
C4 C5 1_555 1_555
C4B C5B 1_555 1_555
Cl1B_2 Cd1_3 1_555 1_555

#END
