
#######################################################################
#
#                 Cambridge Crystallographic Data Centre
#                                CCDC 
#
#######################################################################
#
# If this CIF has been generated from an entry in the Cambridge 
# Structural Database, then it will include bibliographic, chemical, 
# crystal, experimental, refinement or atomic coordinate data resulting 
# from the CCDC's data processing and validation procedures.
#
#######################################################################

data_BASQUI
_symmetry_cell_setting           monoclinic
_symmetry_space_group_name_H-M   'C 2/c'
_symmetry_Int_Tables_number      15
_space_group_name_Hall           '-C 2yn'
loop_
_symmetry_equiv_pos_site_id
_symmetry_equiv_pos_as_xyz
1 x,y,z
2 -x,y,1/2-z
3 1/2+x,1/2+y,z
4 1/2-x,1/2+y,1/2-z
5 -x,-y,-z
6 x,-y,1/2+z
7 1/2-x,1/2-y,-z
8 1/2+x,1/2-y,1/2+z
_cell_length_a                   21.091(2)
_cell_length_b                   3.884(5)
_cell_length_c                   18.2317(3)
_cell_angle_alpha                90
_cell_angle_beta                 113.64(1)
_cell_angle_gamma                90
_cell_volume                     1368.16
loop_
_atom_site_label
_atom_site_type_symbol
_atom_site_fract_x
_atom_site_fract_y
_atom_site_fract_z
Cd1 Cd 0.0000 0.07019(7) 0.25000
Cl1 Cl -0.07527(4) -0.43333(18) 0.15393(4)
N1 N 0.07358(13) 0.06314(67) 0.18091(16)
C1 C 0.13741(17) -0.07184(88) 0.21375(20)
C2 C 0.17981(17) -0.10056(86) 0.17254(23)
C3 C 0.15755(17) 0.01263(82) 0.09427(22)
C4 C 0.09156(18) 0.15667(96) 0.06088(19)
C5 C 0.05228(16) 0.17516(94) 0.10535(19)
C6 C 0.20030(27) -0.0235(14) 0.04645(34)
H1 H 0.1495(20) -0.155(12) 0.2632(29)
H2 H 0.2228(22) -0.213(20) 0.1976(30)
H3 H 0.0726(23) 0.202(14) 0.0065(29)
H4 H 0.0116(19) 0.279(12) 0.0867(24)
H5 H 0.1959(34) 0.112(16) 0.0096(47)
H6 H 0.2439(51) 0.003(24) 0.0822(63)
H7 H 0.2009(44) -0.241(22) 0.0301(62)
Cl1_2 Cl -0.07527(4) 0.56667(18) 0.15393(4)
N1A N -0.07358(13) 0.06314(67) 0.31909(16)
C1A C -0.13741(17) -0.07184(88) 0.28625(20)
C2A C -0.17981(17) -0.10056(86) 0.32746(23)
C3A C -0.15755(17) 0.01263(82) 0.40573(22)
C4A C -0.09156(18) 0.15667(96) 0.43912(19)
C5A C -0.05228(16) 0.17516(94) 0.39465(19)
C6A C -0.20030(27) -0.0235(14) 0.45355(34)
H1A H -0.1495(20) -0.155(12) 0.2368(29)
H2A H -0.2228(22) -0.213(20) 0.3024(30)
H3A H -0.0726(23) 0.202(14) 0.4935(29)
H4A H -0.0116(19) 0.279(12) 0.4133(24)
H5A H -0.1959(34) 0.112(16) 0.4904(47)
H6A H -0.2439(51) 0.003(24) 0.4178(63)
H7A H -0.2009(44) -0.241(22) 0.4699(62)
Cl1A Cl 0.07527(4) -0.43333(18) 0.34607(4)
Cl1A_2 Cl 0.07527(4) 0.56667(18) 0.34607(4)
Cd1_2 Cd 0.0000 -0.92981(7) 0.25000
Cd1_3 Cd 0.0000 1.07019(7) 0.25000
loop_
_geom_bond_atom_site_label_1
_geom_bond_atom_site_label_2
_geom_bond_site_symmetry_1
_geom_bond_site_symmetry_2
Cd1 Cl1 1_555 1_555
Cl1 Cd1_2 1_555 1_555
N1 Cd1 1_555 1_555
C1 N1 1_555 1_555
C2 C1 1_555 1_555
C3 C2 1_555 1_555
C4 C3 1_555 1_555
C5 N1 1_555 1_555
C6 C3 1_555 1_555
H1 C1 1_555 1_555
H2 C2 1_555 1_555
H3 C4 1_555 1_555
H4 C5 1_555 1_555
H5 C6 1_555 1_555
H6 C6 1_555 1_555
H7 C6 1_555 1_555
Cl1_2 Cd1 1_555 1_555
N1A Cd1 1_555 1_555
C1A N1A 1_555 1_555
C2A C1A 1_555 1_555
C3A C2A 1_555 1_555
C4A C3A 1_555 1_555
C5A N1A 1_555 1_555
C6A C3A 1_555 1_555
H1A C1A 1_555 1_555
H2A C2A 1_555 1_555
H3A C4A 1_555 1_555
H4A C5A 1_555 1_555
H5A C6A 1_555 1_555
H6A C6A 1_555 1_555
H7A C6A 1_555 1_555
Cl1A Cd1 1_555 1_555
Cl1A_2 Cd1 1_555 1_555
Cd1_2 Cl1A 1_555 1_555
Cd1_3 Cl1_2 1_555 1_555
C4 C5 1_555 1_555
C4A C5A 1_555 1_555
Cl1A_2 Cd1_3 1_555 1_555

#END
