
#######################################################################
#
#                 Cambridge Crystallographic Data Centre
#                                CCDC 
#
#######################################################################
#
# If this CIF has been generated from an entry in the Cambridge 
# Structural Database, then it will include bibliographic, chemical, 
# crystal, experimental, refinement or atomic coordinate data resulting 
# from the CCDC's data processing and validation procedures.
#
#######################################################################

data_BASQOC
_symmetry_cell_setting           monoclinic
_symmetry_space_group_name_H-M   'P 21/a'
_symmetry_Int_Tables_number      14
_space_group_name_Hall           '-P 2yab'
loop_
_symmetry_equiv_pos_site_id
_symmetry_equiv_pos_as_xyz
1 x,y,z
2 1/2-x,1/2+y,-z
3 -x,-y,-z
4 1/2+x,1/2-y,z
_cell_length_a                   11.89(1)
_cell_length_b                   14.61(1)
_cell_length_c                   3.874(6)
_cell_angle_alpha                90
_cell_angle_beta                 92.3(1)
_cell_angle_gamma                90
_cell_volume                     672.422
loop_
_atom_site_label
_atom_site_type_symbol
_atom_site_fract_x
_atom_site_fract_y
_atom_site_fract_z
Cd1 Cd 0.00000 0.00000 0.00000
Cl1 Cl -0.14826(5) -0.03389(5) -0.52008(14)
N1 N -0.05430(18) 0.15469(15) -0.00301(49)
C1 C 0.01261(22) 0.22047(18) 0.12796(69)
C2 C -0.01647(24) 0.31281(19) 0.13158(71)
C3 C -0.12189(27) 0.33620(22) -0.01008(80)
C4 C -0.19137(25) 0.26929(23) -0.14277(83)
C5 C -0.15582(23) 0.17938(20) -0.13789(72)
C6 C 0.06445(31) 0.38279(23) 0.28329(88)
H1 H 0.0795(26) 0.2021(23) 0.2408(76)
H2 H -0.1477(32) 0.3891(33) 0.0060(90)
H3 H -0.2629(32) 0.2804(26) -0.1897(96)
H4 H -0.2025(25) 0.1293(22) -0.2125(73)
H5 H 0.0311(58) 0.4045(62) 0.443(15)
H6 H 0.0886(43) 0.4201(40) 0.123(13)
H7 H 0.1296(38) 0.3538(34) 0.358(12)
Cl1_2 Cl -0.14826(5) -0.03389(5) 0.47992(14)
N1B N 0.05430(18) -0.15469(15) 0.00301(49)
C1B C -0.01261(22) -0.22047(18) -0.12796(69)
C2B C 0.01647(24) -0.31281(19) -0.13158(71)
C3B C 0.12189(27) -0.33620(22) 0.01008(80)
C4B C 0.19137(25) -0.26929(23) 0.14277(83)
C5B C 0.15582(23) -0.17938(20) 0.13789(72)
C6B C -0.06445(31) -0.38279(23) -0.28329(88)
H1B H -0.0795(26) -0.2021(23) -0.2408(76)
H2B H 0.1477(32) -0.3891(33) -0.0060(90)
H3B H 0.2629(32) -0.2804(26) 0.1897(96)
H4B H 0.2025(25) -0.1293(22) 0.2125(73)
H5B H -0.0311(58) -0.4045(62) -0.443(15)
H6B H -0.0886(43) -0.4201(40) -0.123(13)
H7B H -0.1296(38) -0.3538(34) -0.358(12)
Cl1B Cl 0.14826(5) 0.03389(5) -0.47992(14)
Cl1B_2 Cl 0.14826(5) 0.03389(5) 0.52008(14)
Cd1_2 Cd 0.00000 0.00000 -1.00000
Cd1_3 Cd 0.00000 0.00000 1.00000
loop_
_geom_bond_atom_site_label_1
_geom_bond_atom_site_label_2
_geom_bond_site_symmetry_1
_geom_bond_site_symmetry_2
Cd1 Cl1 1_555 1_555
Cl1 Cd1_2 1_555 1_555
N1 Cd1 1_555 1_555
C1 N1 1_555 1_555
C2 C1 1_555 1_555
C3 C2 1_555 1_555
C4 C3 1_555 1_555
C5 N1 1_555 1_555
C6 C2 1_555 1_555
H1 C1 1_555 1_555
H2 C3 1_555 1_555
H3 C4 1_555 1_555
H4 C5 1_555 1_555
H5 C6 1_555 1_555
H6 C6 1_555 1_555
H7 C6 1_555 1_555
Cl1_2 Cd1 1_555 1_555
N1B Cd1 1_555 1_555
C1B N1B 1_555 1_555
C2B C1B 1_555 1_555
C3B C2B 1_555 1_555
C4B C3B 1_555 1_555
C5B N1B 1_555 1_555
C6B C2B 1_555 1_555
H1B C1B 1_555 1_555
H2B C3B 1_555 1_555
H3B C4B 1_555 1_555
H4B C5B 1_555 1_555
H5B C6B 1_555 1_555
H6B C6B 1_555 1_555
H7B C6B 1_555 1_555
Cl1B Cd1 1_555 1_555
Cl1B_2 Cd1 1_555 1_555
Cd1_2 Cl1B 1_555 1_555
Cd1_3 Cl1_2 1_555 1_555
C4 C5 1_555 1_555
C4B C5B 1_555 1_555
Cl1B_2 Cd1_3 1_555 1_555

#END
