
#######################################################################
#
#                 Cambridge Crystallographic Data Centre
#                                CCDC 
#
#######################################################################
#
# If this CIF has been generated from an entry in the Cambridge 
# Structural Database, then it will include bibliographic, chemical, 
# crystal, experimental, refinement or atomic coordinate data resulting 
# from the CCDC's data processing and validation procedures.
#
#######################################################################

data_BASQAO
_symmetry_cell_setting           monoclinic
_symmetry_space_group_name_H-M   'C 2/c'
_symmetry_Int_Tables_number      15
_space_group_name_Hall           '-C 2yn'
loop_
_symmetry_equiv_pos_site_id
_symmetry_equiv_pos_as_xyz
1 x,y,z
2 1/2+x,1/2+y,z
3 x,-y,1/2+z
4 1/2+x,1/2-y,1/2+z
5 -x,-y,-z
6 1/2-x,1/2-y,-z
7 -x,y,1/2-z
8 1/2-x,1/2+y,1/2-z
_cell_length_a                   8.996(2)
_cell_length_b                   21.728(4)
_cell_length_c                   21.560(4)
_cell_angle_alpha                90
_cell_angle_beta                 94.00(3)
_cell_angle_gamma                90
_cell_volume                     4203.96
loop_
_atom_site_label
_atom_site_type_symbol
_atom_site_fract_x
_atom_site_fract_y
_atom_site_fract_z
W1 W 0.23210(5) 0.51081(2) 0.15999(2)
Ag1 Ag 0.5000 0.51307(7) 0.2500
Ag2 Ag 0.0000 0.49990(9) 0.2500
S1 S 0.4438(3) 0.46420(14) 0.14455(14)
S2 S 0.2407(3) 0.56718(15) 0.24686(15)
S4 S 0.1815(8) 0.5739(3) 0.0844(2)
S5 S 0.0633(5) 0.4387(3) 0.1583(3)
S1F S 0.5562(3) 0.46420(14) 0.35545(14)
S2F S 0.7593(3) 0.56718(15) 0.25314(15)
W1F W 0.76790(5) 0.51081(2) 0.34001(2)
S5F S -0.0633(5) 0.4387(3) 0.3417(3)
S4F S 0.8185(8) 0.5739(3) 0.4156(2)
W1F_2 W -0.23210(5) 0.51081(2) 0.34001(2)
S2F_2 S -0.2407(3) 0.56718(15) 0.25314(15)
Ag2_2 Ag 1.0000 0.49990(9) 0.2500
S5F_2 S 0.9367(5) 0.4387(3) 0.3417(3)
Zn1 Zn 0.2500 0.2500 0.0000
S3 S 0.1151(4) 0.1116(2) 0.02796(15)
O1 O 0.2365(8) 0.1542(3) 0.0074(3)
N1 N 0.3537(8) 0.2537(3) 0.0929(3)
O2 O 0.0395(7) 0.2631(3) 0.0360(3)
C1 C 0.4699(10) 0.2544(4) 0.2164(4)
C2 C 0.4854(10) 0.2028(4) 0.1797(4)
C3 C 0.3427(11) 0.3043(4) 0.1284(4)
C4 C 0.4023(12) 0.3060(5) 0.1900(4)
C5 C -0.0261(11) 0.3120(6) 0.0457(5)
C6 C 0.4258(10) 0.2036(4) 0.1189(4)
N2 N -0.1597(11) 0.3145(6) 0.0672(5)
C7 C 0.0906(19) 0.1284(7) 0.1065(7)
C8 C -0.2328(17) 0.3739(11) 0.0776(8)
C9 C -0.2368(19) 0.2586(12) 0.0832(9)
C10 C 0.2115(30) 0.0391(7) 0.0376(10)
C1F C 0.5301(10) 0.2544(4) 0.2836(4)
C2F C 0.5146(10) 0.2028(4) 0.3203(4)
C6F C 0.5742(10) 0.2036(4) 0.3811(4)
N1F N 0.6463(8) 0.2537(3) 0.4071(3)
C3F C 0.6573(11) 0.3043(4) 0.3716(4)
C4F C 0.5977(12) 0.3060(5) 0.3100(4)
S3E S 0.3849(4) 0.3884(2) -0.02796(15)
O1E O 0.2635(8) 0.3458(3) -0.0074(3)
C7E C 0.4094(19) 0.3716(7) -0.1065(7)
C10E C 0.2885(30) 0.4609(7) -0.0376(10)
O2E O 0.4605(7) 0.2369(3) -0.0360(3)
C5E C 0.5261(11) 0.1880(6) -0.0457(5)
N2E N 0.6597(11) 0.1855(6) -0.0672(5)
C8E C 0.7328(17) 0.1261(11) -0.0776(8)
C9E C 0.7368(19) 0.2414(12) -0.0832(9)
N1E N 0.1463(8) 0.2463(3) -0.0929(3)
Zn1C Zn 0.7500 0.2500 0.5000
loop_
_geom_bond_atom_site_label_1
_geom_bond_atom_site_label_2
_geom_bond_site_symmetry_1
_geom_bond_site_symmetry_2
W1 Ag1 1_555 1_555
Ag1 S1 1_555 1_555
Zn1 O1 1_555 1_555
Ag2 W1 1_555 1_555
S1 W1 1_555 1_555
S2 W1 1_555 1_555
S3 O1 1_555 1_555
S4 W1 1_555 1_555
S5 W1 1_555 1_555
N1 Zn1 1_555 1_555
O2 Zn1 1_555 1_555
C1 C2 1_555 1_555
C2 C6 1_555 1_555
C3 N1 1_555 1_555
C4 C1 1_555 1_555
C5 O2 1_555 1_555
C6 N1 1_555 1_555
N2 C5 1_555 1_555
C7 S3 1_555 1_555
C8 N2 1_555 1_555
C9 N2 1_555 1_555
C10 S3 1_555 1_555
C1F C1 1_555 1_555
C2F C1F 1_555 1_555
C6F C2F 1_555 1_555
N1F C6F 1_555 1_555
C3F N1F 1_555 1_555
C4F C1F 1_555 1_555
S1F Ag1 1_555 1_555
S2F Ag1 1_555 1_555
W1F Ag1 1_555 1_555
S5F Ag2 1_555 1_555
S4F W1F 1_555 1_555
S3E O1E 1_555 1_555
O1E Zn1 1_555 1_555
C7E S3E 1_555 1_555
C10E S3E 1_555 1_555
O2E Zn1 1_555 1_555
C5E O2E 1_555 1_555
N2E C5E 1_555 1_555
C8E N2E 1_555 1_555
C9E N2E 1_555 1_555
N1E Zn1 1_555 1_555
W1F_2 Ag2 1_555 1_555
S2F_2 Ag2 1_555 1_555
Zn1C N1F 1_555 1_555
Ag2_2 S2F 1_555 1_555
S5F_2 W1F 1_555 1_555
Ag1 S2 1_555 1_555
Ag2 S2 1_555 1_555
Ag2 S5 1_555 1_555
C3 C4 1_555 1_555
C3F C4F 1_555 1_555
S1F W1F 1_555 1_555
S2F W1F 1_555 1_555
W1F Ag2_2 1_555 1_555
S5F W1F_2 1_555 1_555
W1F_2 S2F_2 1_555 1_555
Ag2_2 S5F_2 1_555 1_555

#END
