
#######################################################################
#
#                 Cambridge Crystallographic Data Centre
#                                CCDC 
#
#######################################################################
#
# If this CIF has been generated from an entry in the Cambridge 
# Structural Database, then it will include bibliographic, chemical, 
# crystal, experimental, refinement or atomic coordinate data resulting 
# from the CCDC's data processing and validation procedures.
#
#######################################################################

data_BASTOG
_symmetry_cell_setting           orthorhombic
_symmetry_space_group_name_H-M   'P n a 21'
_symmetry_Int_Tables_number      33
_space_group_name_Hall           'P 2c -2n'
loop_
_symmetry_equiv_pos_site_id
_symmetry_equiv_pos_as_xyz
1 x,y,z
2 -x,-y,1/2+z
3 1/2+x,1/2-y,z
4 1/2-x,1/2+y,1/2+z
_cell_length_a                   6.9529(14)
_cell_length_b                   22.109(4)
_cell_length_c                   11.875(2)
_cell_angle_alpha                90
_cell_angle_beta                 90
_cell_angle_gamma                90
_cell_volume                     1825.44
loop_
_atom_site_label
_atom_site_type_symbol
_atom_site_fract_x
_atom_site_fract_y
_atom_site_fract_z
Ce1 Ce 0.67310(3) 1.002950(10) 0.16801(3)
Ag1 Ag 0.24144(4) 0.840687(14) 0.15498(3)
O1 O 0.9733(4) 1.08389(13) 0.1792(3)
O2 O 0.8451(5) 1.04849(15) 0.3362(3)
O3 O 1.2384(5) 1.04868(15) 0.4848(3)
O4 O 1.0158(5) 1.06921(15) 0.6105(3)
O5 O 0.6757(5) 0.93666(14) 0.3540(3)
O6 O 0.5512(5) 0.89695(15) 0.2006(3)
O7 O 0.3466(5) 0.92851(15) 0.4974(3)
O8 O 0.4614(5) 0.88604(13) 0.6508(3)
O9 O 0.3665(6) 1.0184(2) 0.2784(3)
H1 H 0.350(7) 1.024(3) 0.3487(11)
H2 H 0.275(5) 1.029(3) 0.236(3)
O10 O 0.3603(6) 0.99111(19) 0.0511(4)
H3 H 0.337(7) 1.008(2) -0.012(3)
H4 H 0.267(5) 0.972(2) 0.080(4)
N1 N 0.9937(7) 1.3124(2) 0.3318(4)
H5 H 0.978(8) 1.332(2) 0.271(2)
N2 N 1.1069(6) 1.30697(18) 0.5080(3)
N3 N 0.5755(6) 0.66977(17) 0.3088(3)
N4 N 0.4804(6) 0.6609(2) 0.4874(4)
H6 H 0.467(8) 0.643(2) 0.550(2)
C1 C 0.9400(7) 1.0883(2) 0.2833(4)
C2 C 1.0000(8) 1.1439(2) 0.3472(4)
C3 C 0.9731(7) 1.1991(2) 0.2950(4)
H7 H 0.9308 1.2013 0.2208
C4 C 1.0108(7) 1.2513(2) 0.3561(4)
C5 C 1.0545(7) 1.3425(2) 0.4242(5)
H8 H 1.0591 1.3845 0.4283
C6 C 1.0798(7) 1.2485(2) 0.4673(4)
C7 C 1.1059(7) 1.1924(2) 0.5208(4)
H9 H 1.1501 1.1901 0.5946
C8 C 1.0636(7) 1.1405(2) 0.4600(4)
C9 C 1.1043(7) 1.0816(2) 0.5212(4)
C10 C 0.5900(7) 0.8940(2) 0.3057(4)
C11 C 0.5458(7) 0.8352(2) 0.3646(5)
C12 C 0.5770(7) 0.7833(2) 0.3019(4)
H10 H 0.6151 0.7858 0.2270
C13 C 0.5501(7) 0.7269(2) 0.3534(4)
C14 C 0.5338(7) 0.6321(2) 0.3920(4)
H11 H 0.5406 0.5902 0.3856
C15 C 0.4900(7) 0.7228(2) 0.4656(4)
C16 C 0.4562(7) 0.7744(2) 0.5282(4)
H12 H 0.4155 0.7717 0.6026
C17 C 0.4838(8) 0.8302(3) 0.4782(4)
C18 C 0.4283(7) 0.8852(2) 0.5452(4)
Ce1A Ce 1.32690(3) 0.997050(10) 0.66801(3)
Ce1A_2 Ce 0.32690(3) 0.997050(10) 0.66801(3)
Ag1C Ag 1.25856(4) 1.340687(14) 0.65498(3)
Ag1B Ag 0.74144(4) 0.659313(14) 0.15498(3)
O3A O 0.7616(5) 0.95132(15) -0.0152(3)
O4A O 0.9842(5) 0.93079(15) 0.1105(3)
O7A O 0.6534(5) 1.07149(15) -0.0026(3)
O8A O 0.5386(5) 1.11396(13) 0.1508(3)
N2C N 0.3931(6) 0.80697(18) 0.0080(3)
N3B N 0.0755(6) 0.83023(17) 0.3088(3)
loop_
_geom_bond_atom_site_label_1
_geom_bond_atom_site_label_2
_geom_bond_site_symmetry_1
_geom_bond_site_symmetry_2
Ce1 O1 1_555 1_555
Ag1 O6 1_555 1_555
O1 C1 1_555 1_555
O2 Ce1 1_555 1_555
O3 C9 1_555 1_555
O4 C9 1_555 1_555
O5 Ce1 1_555 1_555
O6 Ce1 1_555 1_555
O7 C18 1_555 1_555
O8 C18 1_555 1_555
O9 Ce1 1_555 1_555
H1 O9 1_555 1_555
H2 O9 1_555 1_555
O10 Ce1 1_555 1_555
H3 O10 1_555 1_555
H4 O10 1_555 1_555
N1 H5 1_555 1_555
N2 C5 1_555 1_555
N3 C13 1_555 1_555
N4 H6 1_555 1_555
C1 O2 1_555 1_555
C2 C1 1_555 1_555
C3 C2 1_555 1_555
H7 C3 1_555 1_555
C4 N1 1_555 1_555
C5 N1 1_555 1_555
H8 C5 1_555 1_555
C6 N2 1_555 1_555
C7 C6 1_555 1_555
H9 C7 1_555 1_555
C8 C2 1_555 1_555
C9 C8 1_555 1_555
C10 O5 1_555 1_555
C11 C10 1_555 1_555
C12 C11 1_555 1_555
H10 C12 1_555 1_555
C13 C12 1_555 1_555
C14 N3 1_555 1_555
H11 C14 1_555 1_555
C15 N4 1_555 1_555
C16 C15 1_555 1_555
H12 C16 1_555 1_555
C17 C11 1_555 1_555
C18 C17 1_555 1_555
Ce1A O3 1_555 1_555
Ce1A_2 O7 1_555 1_555
Ag1C N2 1_555 1_555
Ag1B N3 1_555 1_555
O3A Ce1 1_555 1_555
O4A Ce1 1_555 1_555
O7A Ce1 1_555 1_555
O8A Ce1 1_555 1_555
N2C Ag1 1_555 1_555
N3B Ag1 1_555 1_555
O4 Ce1A 1_555 1_555
O6 C10 1_555 1_555
O8 Ce1A_2 1_555 1_555
N4 C14 1_555 1_555
C3 C4 1_555 1_555
C4 C6 1_555 1_555
C7 C8 1_555 1_555
C13 C15 1_555 1_555
C16 C17 1_555 1_555

#END
