
#######################################################################
#
#                 Cambridge Crystallographic Data Centre
#                                CCDC 
#
#######################################################################
#
# If this CIF has been generated from an entry in the Cambridge 
# Structural Database, then it will include bibliographic, chemical, 
# crystal, experimental, refinement or atomic coordinate data resulting 
# from the CCDC's data processing and validation procedures.
#
#######################################################################

data_BASVUN
_symmetry_cell_setting           monoclinic
_symmetry_space_group_name_H-M   'P 21/c'
_symmetry_Int_Tables_number      14
_space_group_name_Hall           '-P 2ybc'
loop_
_symmetry_equiv_pos_site_id
_symmetry_equiv_pos_as_xyz
1 x,y,z
2 x,1/2-y,1/2+z
3 -x,-y,-z
4 -x,1/2+y,1/2-z
_cell_length_a                   14.4144(11)
_cell_length_b                   25.3537(19)
_cell_length_c                   15.1924(12)
_cell_angle_alpha                90
_cell_angle_beta                 107.7150(10)
_cell_angle_gamma                90
_cell_volume                     5288.92
loop_
_atom_site_label
_atom_site_type_symbol
_atom_site_fract_x
_atom_site_fract_y
_atom_site_fract_z
Cl2 Cl 0.4946(12) 1.0160(7) 0.3291(12)
C53 C 0.521(3) 0.9456(14) 0.363(2)
O12 O 1.384(3) 0.1204(9) 0.233(2)
C43 C 1.390(5) 0.147(3) 0.104(3)
H31 H 1.3256 0.1419 0.0631
H32 H 1.4367 0.1393 0.0721
H33 H 1.3982 0.1823 0.1263
C44 C 1.404(2) 0.1163(10) 0.170(2)
C45 C 1.483(6) 0.072(2) 0.179(3)
H34 H 1.4529 0.0383 0.1706
H35 H 1.5309 0.0745 0.2384
H36 H 1.5145 0.0778 0.1317
Cs1 Cs 1.12431(10) 0.12702(5) 0.20119(9)
Cs2 Cs 0.98677(10) 0.27646(5) 0.08109(9)
O1 O 1.1793(7) 0.2234(4) 0.1339(7)
O2 O 1.0209(7) 0.2109(3) 0.2598(6)
O3 O 0.9707(8) 0.1577(5) 0.0416(7)
O4 O 1.0178(6) 0.3004(3) 0.3935(5)
O5 O 0.8254(6) 0.2304(3) 0.1433(5)
O6 O 0.8083(6) 0.1372(3) 0.0840(6)
O7 O 0.9355(9) 0.0925(5) 0.2235(8)
O8 O 1.1160(6) 0.1762(3) 0.4736(6)
O9 O 1.1885(10) 0.2675(4) 0.4615(8)
O10 O 0.8170(9) 0.3168(4) -0.0541(8)
O11 O 1.1737(12) 0.0317(5) 0.1189(10)
C1 C 0.9932(9) 0.3298(5) 0.3149(9)
C2 C 0.8997(9) 0.3301(5) 0.2620(9)
C3 C 0.8722(11) 0.3627(5) 0.1832(9)
H1 H 0.8072 0.3639 0.1475
C4 C 0.9365(11) 0.3913(5) 0.1591(10)
H2 H 0.9170 0.4119 0.1061
C5 C 1.0345(13) 0.3908(5) 0.2133(11)
H3 H 1.0793 0.4114 0.1959
C6 C 1.0661(10) 0.3599(5) 0.2929(9)
C7 C 0.8222(9) 0.2964(5) 0.2883(8)
H4 H 0.8528 0.2638 0.3156
H5 H 0.8030 0.3152 0.3356
C8 C 0.7336(10) 0.2831(5) 0.2133(9)
C9 C 0.7371(10) 0.2516(5) 0.1402(9)
C10 C 0.6539(10) 0.2389(5) 0.0650(8)
C11 C 0.5661(10) 0.2604(6) 0.0714(10)
H6 H 0.5095 0.2541 0.0231
C12 C 0.5591(12) 0.2891(7) 0.1415(11)
H7 H 0.4980 0.2997 0.1435
C13 C 0.6405(10) 0.3035(6) 0.2116(10)
H8 H 0.6352 0.3263 0.2578
C14 C 0.6610(10) 0.2082(5) -0.0159(8)
H9 H 0.7253 0.2134 -0.0223
H10 H 0.6139 0.2220 -0.0712
C15 C 0.6432(10) 0.1488(5) -0.0097(8)
C16 C 0.7195(10) 0.1157(5) 0.0425(8)
C17 C 0.7031(10) 0.0618(5) 0.0497(9)
C18 C 0.6094(12) 0.0411(6) 0.0039(10)
H11 H 0.5968 0.0053 0.0082
C19 C 0.5376(12) 0.0741(7) -0.0467(11)
H12 H 0.4762 0.0606 -0.0769
C20 C 0.5551(11) 0.1263(6) -0.0532(10)
H13 H 0.5051 0.1476 -0.0886
C21 C 0.7837(10) 0.0262(5) 0.1012(9)
H14 H 0.8413 0.0355 0.0842
H15 H 0.7661 -0.0095 0.0797
C22 C 0.8119(9) 0.0259(4) 0.2077(9)
C23 C 0.8864(9) 0.0573(5) 0.2618(9)
C24 C 0.9157(9) 0.0551(5) 0.3567(8)
C25 C 0.8678(10) 0.0191(5) 0.3978(9)
H16 H 0.8876 0.0157 0.4618
C26 C 0.7933(10) -0.0108(5) 0.3462(11)
H17 H 0.7611 -0.0337 0.3749
C27 C 0.7651(10) -0.0075(5) 0.2514(10)
H18 H 0.7137 -0.0281 0.2164
C28 C 0.9891(9) 0.0949(5) 0.4133(8)
H19 H 0.9650 0.1299 0.3929
H20 H 0.9904 0.0916 0.4773
C29 C 1.0929(9) 0.0913(5) 0.4104(8)
C30 C 1.1534(9) 0.1345(5) 0.4404(8)
C31 C 1.2480(10) 0.1355(5) 0.4358(9)
C32 C 1.2832(10) 0.0901(6) 0.4015(9)
H21 H 1.3462 0.0899 0.3970
C33 C 1.2245(12) 0.0464(6) 0.3747(9)
H22 H 1.2489 0.0163 0.3545
C34 C 1.1286(10) 0.0470(5) 0.3779(9)
H23 H 1.0888 0.0178 0.3582
C35 C 1.3159(9) 0.1822(6) 0.4687(9)
H24 H 1.3824 0.1696 0.4835
H25 H 1.3068 0.1953 0.5255
C36 C 1.3038(10) 0.2289(5) 0.4012(9)
C37 C 1.2403(10) 0.2695(5) 0.4031(9)
C38 C 1.2356(11) 0.3137(6) 0.3466(10)
C39 C 1.2916(11) 0.3163(6) 0.2909(10)
H26 H 1.2878 0.3459 0.2539
C40 C 1.3537(12) 0.2770(7) 0.2869(11)
H27 H 1.3916 0.2794 0.2473
C41 C 1.3599(11) 0.2320(6) 0.3440(10)
H28 H 1.4024 0.2047 0.3422
C42 C 1.1688(11) 0.3608(5) 0.3523(10)
H29 H 1.1686 0.3637 0.4160
H30 H 1.1985 0.3927 0.3381
C46 C 1.0518(18) -0.0315(8) 0.1187(14)
H37 H 1.0400 -0.0636 0.0834
H38 H 1.0066 -0.0049 0.0865
H39 H 1.0433 -0.0377 0.1781
C47 C 1.1545(15) -0.0130(7) 0.1312(11)
C48 C 1.2305(16) -0.0534(8) 0.1532(14)
H40 H 1.2244 -0.0747 0.2034
H41 H 1.2933 -0.0368 0.1708
H42 H 1.2237 -0.0752 0.1000
C49 C 0.7306(12) 0.3488(6) -0.2022(12)
H43 H 0.7850 0.3356 -0.2196
H44 H 0.7236 0.3859 -0.2147
H45 H 0.6724 0.3309 -0.2371
C50 C 0.7477(13) 0.3394(6) -0.1009(11)
C51 C 0.6707(16) 0.3645(9) -0.0648(13)
H46 H 0.6776 0.3515 -0.0038
H47 H 0.6072 0.3557 -0.1051
H48 H 0.6788 0.4021 -0.0628
H49 H 0.904(11) 0.103(6) 0.198(10)
H50 H 1.150(10) 0.271(6) 0.444(11)
O8A O 1.1160(6) 0.3238(3) -0.0264(6)
Cs2A Cs 0.98677(10) 0.22354(5) 0.58109(9)
Cl1? Cl 0.518(5) 0.994(3) 0.437(5)
C52? C 0.5335(19) 0.9193(10) 0.2899(18)
C54? C 0.444(3) 0.9251(15) 0.430(3)
C55? C 0.5715(15) 0.9098(7) 0.3200(14)
C56? C 0.448(3) 0.9373(17) 0.423(3)
loop_
_geom_bond_atom_site_label_1
_geom_bond_atom_site_label_2
_geom_bond_site_symmetry_1
_geom_bond_site_symmetry_2
Cs1 O1 1_555 1_555
Cs2 O1 1_555 1_555
Cl2 C53 1_555 1_555
O2 Cs1 1_555 1_555
O3 Cs1 1_555 1_555
O4 C1 1_555 1_555
O5 Cs2 1_555 1_555
O6 C16 1_555 1_555
O7 Cs1 1_555 1_555
O8 C30 1_555 1_555
O9 C37 1_555 1_555
O10 Cs2 1_555 1_555
O11 Cs1 1_555 1_555
O12 C44 1_555 1_555
C1 C2 1_555 1_555
C2 C3 1_555 1_555
C3 H1 1_555 1_555
C4 C3 1_555 1_555
H2 C4 1_555 1_555
C5 C4 1_555 1_555
H3 C5 1_555 1_555
C6 C1 1_555 1_555
C7 C2 1_555 1_555
H4 C7 1_555 1_555
H5 C7 1_555 1_555
C8 C7 1_555 1_555
C9 O5 1_555 1_555
C10 C9 1_555 1_555
C11 C10 1_555 1_555
H6 C11 1_555 1_555
C12 C11 1_555 1_555
H7 C12 1_555 1_555
C13 C8 1_555 1_555
H8 C13 1_555 1_555
C14 C10 1_555 1_555
H9 C14 1_555 1_555
H10 C14 1_555 1_555
C15 C14 1_555 1_555
C16 C15 1_555 1_555
C17 C16 1_555 1_555
C18 C17 1_555 1_555
H11 C18 1_555 1_555
C19 C18 1_555 1_555
H12 C19 1_555 1_555
C20 C15 1_555 1_555
H13 C20 1_555 1_555
C21 C17 1_555 1_555
H14 C21 1_555 1_555
H15 C21 1_555 1_555
C22 C21 1_555 1_555
C23 O7 1_555 1_555
C24 C23 1_555 1_555
C25 C24 1_555 1_555
H16 C25 1_555 1_555
C26 C25 1_555 1_555
H17 C26 1_555 1_555
C27 C22 1_555 1_555
H18 C27 1_555 1_555
C28 C24 1_555 1_555
H19 C28 1_555 1_555
H20 C28 1_555 1_555
C29 C28 1_555 1_555
C30 C29 1_555 1_555
C31 C30 1_555 1_555
C32 C31 1_555 1_555
H21 C32 1_555 1_555
C33 C32 1_555 1_555
H22 C33 1_555 1_555
C34 C29 1_555 1_555
H23 C34 1_555 1_555
C35 C31 1_555 1_555
H24 C35 1_555 1_555
H25 C35 1_555 1_555
C36 C35 1_555 1_555
C37 C36 1_555 1_555
C38 C37 1_555 1_555
C39 C38 1_555 1_555
H26 C39 1_555 1_555
C40 C39 1_555 1_555
H27 C40 1_555 1_555
C41 C36 1_555 1_555
H28 C41 1_555 1_555
C42 C6 1_555 1_555
H29 C42 1_555 1_555
H30 C42 1_555 1_555
C43 H31 1_555 1_555
H32 C43 1_555 1_555
H33 C43 1_555 1_555
C44 C43 1_555 1_555
C45 C44 1_555 1_555
H34 C45 1_555 1_555
H35 C45 1_555 1_555
H36 C45 1_555 1_555
C46 H37 1_555 1_555
H38 C46 1_555 1_555
H39 C46 1_555 1_555
C47 O11 1_555 1_555
C48 C47 1_555 1_555
H40 C48 1_555 1_555
H41 C48 1_555 1_555
H42 C48 1_555 1_555
C49 H43 1_555 1_555
H44 C49 1_555 1_555
H45 C49 1_555 1_555
C50 O10 1_555 1_555
C51 C50 1_555 1_555
H46 C51 1_555 1_555
H47 C51 1_555 1_555
H48 C51 1_555 1_555
H49 O7 1_555 1_555
H50 O9 1_555 1_555
O8A Cs2 1_555 1_555
Cs2A O8 1_555 1_555
Cs2 O2 1_555 1_555
Cs2 O3 1_555 1_555
C5 C6 1_555 1_555
C8 C9 1_555 1_555
C12 C13 1_555 1_555
C19 C20 1_555 1_555
C22 C23 1_555 1_555
C26 C27 1_555 1_555
C33 C34 1_555 1_555
C38 C42 1_555 1_555
C40 C41 1_555 1_555
C46 C47 1_555 1_555
C49 C50 1_555 1_555

#END
