
#######################################################################
#
#                 Cambridge Crystallographic Data Centre
#                                CCDC 
#
#######################################################################
#
# If this CIF has been generated from an entry in the Cambridge 
# Structural Database, then it will include bibliographic, chemical, 
# crystal, experimental, refinement or atomic coordinate data resulting 
# from the CCDC's data processing and validation procedures.
#
#######################################################################

data_BASVIB
_symmetry_cell_setting           monoclinic
_symmetry_space_group_name_H-M   'P 21/c'
_symmetry_Int_Tables_number      14
_space_group_name_Hall           '-P 2ybc'
loop_
_symmetry_equiv_pos_site_id
_symmetry_equiv_pos_as_xyz
1 x,y,z
2 x,1/2-y,1/2+z
3 -x,-y,-z
4 -x,1/2+y,1/2-z
_cell_length_a                   14.6363(12)
_cell_length_b                   24.9037(19)
_cell_length_c                   15.0403(12)
_cell_angle_alpha                90
_cell_angle_beta                 108.0120(10)
_cell_angle_gamma                90
_cell_volume                     5213.49
loop_
_atom_site_label
_atom_site_type_symbol
_atom_site_fract_x
_atom_site_fract_y
_atom_site_fract_z
K1 K 0.40129(6) 0.36857(3) 0.29635(5)
K2 K 0.51818(6) 0.22175(3) 0.41090(6)
O1 O 0.3374(2) 0.27670(12) 0.3572(2)
O2 O 0.5379(2) 0.33383(13) 0.4511(2)
O3 O 0.4884(2) 0.28581(11) 0.2368(2)
O4 O 0.3898(2) 0.32351(14) 0.0192(2)
O5 O 0.57694(17) 0.40593(9) 0.28196(17)
O6 O 0.70068(15) 0.36044(8) 0.41744(16)
H1 H 0.7044 0.3279 0.4068
O7 O 0.67805(15) 0.26525(8) 0.35540(15)
O8 O 0.48208(15) 0.19560(9) 0.09924(15)
H2 H 0.4232 0.2009 0.0802
O9 O 0.31649(16) 0.22908(9) 0.03159(16)
H3 H 0.3256 0.2609 0.0200
O10 O 0.3422(3) 0.45600(13) 0.3802(2)
O11 O 0.6806(2) 0.18200(11) 0.5463(2)
C1 C 0.3544(2) 0.36477(13) 0.0580(2)
C2 C 0.4161(2) 0.40801(13) 0.0920(2)
C3 C 0.3821(3) 0.45197(13) 0.1285(2)
H4 H 0.4207 0.4853 0.1412
C4 C 0.2889(3) 0.45309(14) 0.1332(3)
H5 H 0.2623 0.4868 0.1500
C5 C 0.2300(3) 0.40930(15) 0.1021(3)
H6 H 0.1626 0.4111 0.1027
C6 C 0.2601(2) 0.36428(14) 0.0636(2)
C7 C 0.5180(2) 0.40492(13) 0.0862(2)
H7 H 0.5424 0.3687 0.1051
H8 H 0.5145 0.4092 0.0205
C8 C 0.6222(2) 0.44164(12) 0.2407(2)
C9 C 0.6976(2) 0.47389(12) 0.2950(2)
C10 C 0.7431(2) 0.50769(13) 0.2487(3)
H9 H 0.7954 0.5286 0.2836
C11 C 0.7130(3) 0.51129(14) 0.1521(3)
H10 H 0.7443 0.5347 0.1220
C12 C 0.6370(2) 0.48054(13) 0.1002(3)
H11 H 0.6157 0.4841 0.0348
C13 C 0.5910(2) 0.44427(13) 0.1427(2)
C14 C 0.7265(2) 0.47323(13) 0.4011(2)
H12 H 0.6695 0.4642 0.4191
H13 H 0.7457 0.5097 0.4235
C15 C 0.7891(2) 0.38015(13) 0.4580(2)
C16 C 0.8641(2) 0.34569(14) 0.5087(2)
C17 C 0.9539(3) 0.36744(16) 0.5543(3)
H14 H 1.0038 0.3448 0.5884
C18 C 0.9708(3) 0.42132(17) 0.5504(3)
H15 H 1.0316 0.4355 0.5824
C19 C 0.8980(3) 0.45486(15) 0.4990(3)
H16 H 0.9105 0.4917 0.4957
C20 C 0.8069(2) 0.43525(14) 0.4524(2)
C21 C 0.8458(3) 0.28631(13) 0.5144(2)
H17 H 0.7829 0.2815 0.5235
H18 H 0.8943 0.2717 0.5696
C22 C 0.7645(2) 0.24293(13) 0.3553(2)
C23 C 0.7657(2) 0.21012(13) 0.2806(2)
C24 C 0.8536(3) 0.18969(15) 0.2789(3)
H19 H 0.8561 0.1672 0.2295
C25 C 0.9380(3) 0.20220(17) 0.3495(3)
H20 H 0.9973 0.1894 0.3463
C26 C 0.9345(3) 0.23318(16) 0.4233(3)
H21 H 0.9916 0.2408 0.4713
C27 C 0.8479(2) 0.25378(14) 0.4291(2)
C28 C 0.6743(2) 0.19816(14) 0.2040(2)
H22 H 0.6905 0.1790 0.1539
H23 H 0.6443 0.2323 0.1781
C29 C 0.5045(2) 0.16538(13) 0.1786(2)
C30 C 0.4346(3) 0.13588(13) 0.2031(2)
C31 C 0.4642(3) 0.10487(14) 0.2847(3)
H24 H 0.4183 0.0794 0.2981
C32 C 0.5590(3) 0.10343(14) 0.3389(3)
H25 H 0.5806 0.0742 0.3853
C33 C 0.6277(3) 0.13286(13) 0.3134(2)
H26 H 0.6966 0.1250 0.3439
C34 C 0.6009(2) 0.16494(13) 0.2330(2)
C35 C 0.3307(2) 0.13416(14) 0.1406(3)
H27 H 0.3308 0.1309 0.0757
H28 H 0.3010 0.1016 0.1556
C36 C 0.2623(2) 0.22720(14) 0.0895(2)
C37 C 0.2677(2) 0.18160(14) 0.1465(2)
C38 C 0.2121(3) 0.18013(16) 0.2060(3)
H29 H 0.2153 0.1500 0.2446
C39 C 0.1518(3) 0.22237(17) 0.2094(3)
H30 H 0.1148 0.2209 0.2505
C40 C 0.1458(2) 0.26685(16) 0.1525(3)
H31 H 0.1041 0.2951 0.1550
C41 C 0.2005(2) 0.27022(14) 0.0919(2)
C42 C 0.1912(2) 0.31789(14) 0.0270(3)
H32 H 0.1255 0.3317 0.0115
H33 H 0.2004 0.3051 -0.0313
C43 C 0.3560(4) 0.50335(19) 0.3725(3)
C44 C 0.4523(4) 0.5235(2) 0.3795(4)
H34 H 0.4721 0.5495 0.4298
H35 H 0.4509 0.5404 0.3210
H36 H 0.4974 0.4938 0.3923
C45 C 0.2770(4) 0.5433(2) 0.3533(4)
H37 H 0.2173 0.5252 0.3501
H38 H 0.2704 0.5610 0.2942
H39 H 0.2915 0.5697 0.4030
C46 C 0.7505(3) 0.15889(15) 0.5953(3)
C47 C 0.8193(3) 0.1306(2) 0.5557(3)
H40 H 0.8030 0.0928 0.5480
H41 H 0.8841 0.1347 0.5979
H42 H 0.8154 0.1461 0.4954
C48 C 0.7732(3) 0.15652(17) 0.6989(3)
H43 H 0.8300 0.1779 0.7280
H44 H 0.7851 0.1196 0.7196
H45 H 0.7194 0.1705 0.7165
H59 H 0.308(4) 0.278(2) 0.404(4)
H60 H 0.523(5) 0.336(3) 0.502(5)
H61 H 0.483(4) 0.277(2) 0.190(3)
H62 H 0.370(3) 0.3016(14) 0.020(3)
H63 H 0.617(3) 0.3914(16) 0.335(3)
H64 H 0.289(4) 0.268(2) 0.313(4)
H65 H 0.591(6) 0.356(3) 0.468(6)
K2A K 0.51818(6) 0.27825(3) -0.08910(6)
O4A O 0.3898(2) 0.17649(14) 0.5192(2)
O5A O 0.57694(17) 0.09407(9) 0.78196(17)
O6A O 0.70068(15) 0.13956(8) 0.91744(16)
H1A H 0.7044 0.1721 0.9068
O7A O 0.67805(15) 0.23475(8) 0.85540(15)
O8A O 0.48208(15) 0.30440(9) 0.59924(15)
H2A H 0.4232 0.2991 0.5802
O9A O 0.31649(16) 0.27092(9) 0.53159(16)
H3A H 0.3256 0.2391 0.5200
C1A C 0.3544(2) 0.13523(13) 0.5580(2)
C2A C 0.4161(2) 0.09199(13) 0.5920(2)
C3A C 0.3821(3) 0.04803(13) 0.6285(2)
H4A H 0.4207 0.0147 0.6412
C4A C 0.2889(3) 0.04691(14) 0.6332(3)
H5A H 0.2623 0.0132 0.6500
C5A C 0.2300(3) 0.09070(15) 0.6021(3)
H6A H 0.1626 0.0889 0.6027
C6A C 0.2601(2) 0.13572(14) 0.5636(2)
C7A C 0.5180(2) 0.09508(13) 0.5862(2)
H7A H 0.5424 0.1313 0.6051
H8A H 0.5145 0.0908 0.5205
C8A C 0.6222(2) 0.05836(12) 0.7407(2)
C9A C 0.6976(2) 0.02611(12) 0.7950(2)
C10A C 0.7431(2) -0.00769(13) 0.7487(3)
H9A H 0.7954 -0.0286 0.7836
C11A C 0.7130(3) -0.01129(14) 0.6521(3)
H10A H 0.7443 -0.0347 0.6220
C12A C 0.6370(2) 0.01946(13) 0.6002(3)
H11A H 0.6157 0.0159 0.5348
C13A C 0.5910(2) 0.05573(13) 0.6427(2)
C14A C 0.7265(2) 0.02677(13) 0.9011(2)
H12A H 0.6695 0.0358 0.9191
H13A H 0.7457 -0.0097 0.9235
C15A C 0.7891(2) 0.11985(13) 0.9580(2)
C16A C 0.8641(2) 0.15431(14) 1.0087(2)
C17A C 0.9539(3) 0.13256(16) 1.0543(3)
H14A H 1.0038 0.1552 1.0884
C18A C 0.9708(3) 0.07868(17) 1.0504(3)
H15A H 1.0316 0.0645 1.0824
C19A C 0.8980(3) 0.04514(15) 0.9990(3)
H16A H 0.9105 0.0083 0.9957
C20A C 0.8069(2) 0.06475(14) 0.9524(2)
C21A C 0.8458(3) 0.21369(13) 1.0144(2)
H17A H 0.7829 0.2185 1.0235
H18A H 0.8943 0.2283 1.0696
C22A C 0.7645(2) 0.25707(13) 0.8553(2)
C23A C 0.7657(2) 0.28988(13) 0.7806(2)
C24A C 0.8536(3) 0.31031(15) 0.7789(3)
H19A H 0.8561 0.3328 0.7295
C25A C 0.9380(3) 0.29780(17) 0.8495(3)
H20A H 0.9973 0.3106 0.8463
C26A C 0.9345(3) 0.26682(16) 0.9233(3)
H21A H 0.9916 0.2592 0.9713
C27A C 0.8479(2) 0.24622(14) 0.9291(2)
C28A C 0.6743(2) 0.30184(14) 0.7040(2)
H22A H 0.6905 0.3210 0.6539
H23A H 0.6443 0.2677 0.6781
C29A C 0.5045(2) 0.33462(13) 0.6786(2)
C30A C 0.4346(3) 0.36412(13) 0.7031(2)
C31A C 0.4642(3) 0.39513(14) 0.7847(3)
H24A H 0.4183 0.4206 0.7981
C32A C 0.5590(3) 0.39657(14) 0.8389(3)
H25A H 0.5806 0.4258 0.8853
C33A C 0.6277(3) 0.36714(13) 0.8134(2)
H26A H 0.6966 0.3750 0.8439
C34A C 0.6009(2) 0.33506(13) 0.7330(2)
C35A C 0.3307(2) 0.36584(14) 0.6406(3)
H27A H 0.3308 0.3691 0.5757
H28A H 0.3010 0.3984 0.6556
C36A C 0.2623(2) 0.27280(14) 0.5895(2)
C37A C 0.2677(2) 0.31840(14) 0.6465(2)
C38A C 0.2121(3) 0.31987(16) 0.7060(3)
H29A H 0.2153 0.3500 0.7446
C39A C 0.1518(3) 0.27763(17) 0.7094(3)
H30A H 0.1148 0.2791 0.7505
C40A C 0.1458(2) 0.23315(16) 0.6525(3)
H31A H 0.1041 0.2049 0.6550
C41A C 0.2005(2) 0.22978(14) 0.5919(2)
C42A C 0.1912(2) 0.18211(14) 0.5270(3)
H32A H 0.1255 0.1683 0.5115
H33A H 0.2004 0.1949 0.4687
H62A H 0.370(3) 0.1984(14) 0.520(3)
H63A H 0.617(3) 0.1086(16) 0.835(3)
O1A O 0.3374(2) 0.22330(12) -0.1428(2)
H59A H 0.308(4) 0.222(2) -0.096(4)
H64A H 0.289(4) 0.232(2) -0.187(4)
O2A O 0.5379(2) 0.16617(13) -0.0489(2)
H60A H 0.523(5) 0.164(3) 0.002(5)
H65A H 0.591(6) 0.144(3) -0.032(6)
O3A O 0.4884(2) 0.21419(11) -0.2632(2)
H61A H 0.483(4) 0.223(2) -0.310(3)
O11A O 0.6806(2) 0.31800(11) 0.0463(2)
C46A C 0.7505(3) 0.34111(15) 0.0953(3)
C47A C 0.8193(3) 0.3694(2) 0.0557(3)
H40A H 0.8030 0.4072 0.0480
H41A H 0.8841 0.3653 0.0979
H42A H 0.8154 0.3539 -0.0046
C48A C 0.7732(3) 0.34348(17) 0.1989(3)
H43A H 0.8300 0.3221 0.2280
H44A H 0.7851 0.3804 0.2196
H45A H 0.7194 0.3295 0.2165
K1A K 0.40129(6) 0.13143(3) -0.20365(5)
O10A O 0.3422(3) 0.04400(13) -0.1198(2)
C43A C 0.3560(4) -0.00335(19) -0.1275(3)
C44A C 0.4523(4) -0.0235(2) -0.1205(4)
H34A H 0.4721 -0.0495 -0.0702
H35A H 0.4509 -0.0404 -0.1790
H36A H 0.4974 0.0062 -0.1077
C45A C 0.2770(4) -0.0433(2) -0.1467(4)
H37A H 0.2173 -0.0252 -0.1499
H38A H 0.2704 -0.0610 -0.2058
H39A H 0.2915 -0.0697 -0.0970
O7A_2 O 0.67805(15) 0.23475(8) -0.14460(15)
K1A_2 K 0.40129(6) 0.13143(3) 0.79635(5)
K2A_2 K 0.51818(6) 0.27825(3) 0.91090(6)
O5A_2 O 0.57694(17) 0.09407(9) -0.21804(17)
H63A_2 H 0.617(3) 0.1086(16) -0.165(3)
O12 O 0.0497(5) 0.3737(3) 0.2259(5)
C49 C 0.0152(10) 0.4297(4) 0.3190(7)
H46 H 0.0600 0.4561 0.3557
H47 H -0.0323 0.4213 0.3498
H48 H -0.0167 0.4442 0.2573
C50 C 0.0671(6) 0.3813(4) 0.3103(6)
C51 C 0.1171(9) 0.3546(6) 0.3858(7)
H49 H 0.0989 0.3170 0.3790
H50 H 0.1038 0.3693 0.4403
H51 H 0.1851 0.3580 0.3935
C52 C 0.0234(6) 0.0620(3) 0.3245(6)
H52 H 0.0879 0.0745 0.3568
H53 H -0.0110 0.0893 0.2812
H54 H 0.0268 0.0294 0.2903
C53 C -0.0303(6) 0.0502(3) 0.3969(6)
H55 H -0.0292 0.0822 0.4351
H56 H -0.0975 0.0412 0.3641
C54 C 0.0183(6) 0.0027(4) 0.4608(6)
H57 H 0.0066 -0.0306 0.4243
H58 H 0.0879 0.0087 0.4838
C54B C -0.0183(6) -0.0027(4) 0.5392(6)
C53B C 0.0303(6) -0.0502(3) 0.6031(6)
C52B C -0.0234(6) -0.0620(3) 0.6755(6)
H52B H -0.0879 -0.0745 0.6432
H53B H 0.0110 -0.0893 0.7188
H54B H -0.0268 -0.0294 0.7097
H55B H 0.0292 -0.0822 0.5649
H56B H 0.0975 -0.0412 0.6359
H57B H -0.0066 0.0306 0.5757
H58B H -0.0879 -0.0087 0.5162
loop_
_geom_bond_atom_site_label_1
_geom_bond_atom_site_label_2
_geom_bond_site_symmetry_1
_geom_bond_site_symmetry_2
K1 O1 1_555 1_555
K2 O1 1_555 1_555
O1 H59 1_555 1_555
O2 K1 1_555 1_555
O3 K1 1_555 1_555
O4 C1 1_555 1_555
O5 K1 1_555 1_555
O6 H1 1_555 1_555
O7 K2 1_555 1_555
O8 H2 1_555 1_555
O9 H3 1_555 1_555
O10 K1 1_555 1_555
O11 K2 1_555 1_555
O12 C50 1_555 1_555
C1 C2 1_555 1_555
C2 C3 1_555 1_555
C3 H4 1_555 1_555
C4 C3 1_555 1_555
H5 C4 1_555 1_555
C5 C4 1_555 1_555
H6 C5 1_555 1_555
C6 C1 1_555 1_555
C7 C2 1_555 1_555
H7 C7 1_555 1_555
H8 C7 1_555 1_555
C8 O5 1_555 1_555
C9 C8 1_555 1_555
C10 C9 1_555 1_555
H9 C10 1_555 1_555
C11 C10 1_555 1_555
H10 C11 1_555 1_555
C12 C11 1_555 1_555
H11 C12 1_555 1_555
C13 C7 1_555 1_555
C14 C9 1_555 1_555
H12 C14 1_555 1_555
H13 C14 1_555 1_555
C15 O6 1_555 1_555
C16 C15 1_555 1_555
C17 C16 1_555 1_555
H14 C17 1_555 1_555
C18 C17 1_555 1_555
H15 C18 1_555 1_555
C19 C18 1_555 1_555
H16 C19 1_555 1_555
C20 C14 1_555 1_555
C21 C16 1_555 1_555
H17 C21 1_555 1_555
H18 C21 1_555 1_555
C22 O7 1_555 1_555
C23 C22 1_555 1_555
C24 C23 1_555 1_555
H19 C24 1_555 1_555
C25 C24 1_555 1_555
H20 C25 1_555 1_555
C26 C25 1_555 1_555
H21 C26 1_555 1_555
C27 C21 1_555 1_555
C28 C23 1_555 1_555
H22 C28 1_555 1_555
H23 C28 1_555 1_555
C29 O8 1_555 1_555
C30 C29 1_555 1_555
C31 C30 1_555 1_555
H24 C31 1_555 1_555
C32 C31 1_555 1_555
H25 C32 1_555 1_555
C33 C32 1_555 1_555
H26 C33 1_555 1_555
C34 C28 1_555 1_555
C35 C30 1_555 1_555
H27 C35 1_555 1_555
H28 C35 1_555 1_555
C36 O9 1_555 1_555
C37 C35 1_555 1_555
C38 C37 1_555 1_555
H29 C38 1_555 1_555
C39 C38 1_555 1_555
H30 C39 1_555 1_555
C40 C39 1_555 1_555
H31 C40 1_555 1_555
C41 C36 1_555 1_555
C42 C6 1_555 1_555
H32 C42 1_555 1_555
H33 C42 1_555 1_555
C43 O10 1_555 1_555
C44 C43 1_555 1_555
H34 C44 1_555 1_555
H35 C44 1_555 1_555
H36 C44 1_555 1_555
C45 C43 1_555 1_555
H37 C45 1_555 1_555
H38 C45 1_555 1_555
H39 C45 1_555 1_555
C46 O11 1_555 1_555
C47 C46 1_555 1_555
H40 C47 1_555 1_555
H41 C47 1_555 1_555
H42 C47 1_555 1_555
C48 C46 1_555 1_555
H43 C48 1_555 1_555
H44 C48 1_555 1_555
H45 C48 1_555 1_555
C49 H46 1_555 1_555
H47 C49 1_555 1_555
H48 C49 1_555 1_555
C50 C49 1_555 1_555
C51 C50 1_555 1_555
H49 C51 1_555 1_555
H50 C51 1_555 1_555
H51 C51 1_555 1_555
C52 H52 1_555 1_555
H53 C52 1_555 1_555
H54 C52 1_555 1_555
C53 C52 1_555 1_555
H55 C53 1_555 1_555
H56 C53 1_555 1_555
C54 C53 1_555 1_555
H57 C54 1_555 1_555
H58 C54 1_555 1_555
H60 O2 1_555 1_555
H61 O3 1_555 1_555
H62 O4 1_555 1_555
H63 O5 1_555 1_555
H64 O1 1_555 1_555
H65 O2 1_555 1_555
C54B C54 1_555 1_555
C53B C54B 1_555 1_555
C52B C53B 1_555 1_555
H52B C52B 1_555 1_555
H53B C52B 1_555 1_555
H54B C52B 1_555 1_555
H55B C53B 1_555 1_555
H56B C53B 1_555 1_555
H57B C54B 1_555 1_555
H58B C54B 1_555 1_555
K2A O4 1_555 1_555
O4A K2 1_555 1_555
O5A C8A 1_555 1_555
O6A H1A 1_555 1_555
O7A C22A 1_555 1_555
O8A H2A 1_555 1_555
O9A H3A 1_555 1_555
C1A O4A 1_555 1_555
C2A C1A 1_555 1_555
C3A C2A 1_555 1_555
H4A C3A 1_555 1_555
C4A C3A 1_555 1_555
H5A C4A 1_555 1_555
C5A C4A 1_555 1_555
H6A C5A 1_555 1_555
C6A C1A 1_555 1_555
C7A C2A 1_555 1_555
H7A C7A 1_555 1_555
H8A C7A 1_555 1_555
C8A C9A 1_555 1_555
C9A C10A 1_555 1_555
C10A H9A 1_555 1_555
C11A C10A 1_555 1_555
H10A C11A 1_555 1_555
C12A C11A 1_555 1_555
H11A C12A 1_555 1_555
C13A C7A 1_555 1_555
C14A C9A 1_555 1_555
H12A C14A 1_555 1_555
H13A C14A 1_555 1_555
C15A O6A 1_555 1_555
C16A C15A 1_555 1_555
C17A C16A 1_555 1_555
H14A C17A 1_555 1_555
C18A C17A 1_555 1_555
H15A C18A 1_555 1_555
C19A C18A 1_555 1_555
H16A C19A 1_555 1_555
C20A C14A 1_555 1_555
C21A C16A 1_555 1_555
H17A C21A 1_555 1_555
H18A C21A 1_555 1_555
C22A C23A 1_555 1_555
C23A C24A 1_555 1_555
C24A H19A 1_555 1_555
C25A C24A 1_555 1_555
H20A C25A 1_555 1_555
C26A C25A 1_555 1_555
H21A C26A 1_555 1_555
C27A C21A 1_555 1_555
C28A C23A 1_555 1_555
H22A C28A 1_555 1_555
H23A C28A 1_555 1_555
C29A O8A 1_555 1_555
C30A C29A 1_555 1_555
C31A C30A 1_555 1_555
H24A C31A 1_555 1_555
C32A C31A 1_555 1_555
H25A C32A 1_555 1_555
C33A C32A 1_555 1_555
H26A C33A 1_555 1_555
C34A C28A 1_555 1_555
C35A C30A 1_555 1_555
H27A C35A 1_555 1_555
H28A C35A 1_555 1_555
C36A O9A 1_555 1_555
C37A C35A 1_555 1_555
C38A C37A 1_555 1_555
H29A C38A 1_555 1_555
C39A C38A 1_555 1_555
H30A C39A 1_555 1_555
C40A C39A 1_555 1_555
H31A C40A 1_555 1_555
C41A C36A 1_555 1_555
C42A C6A 1_555 1_555
H32A C42A 1_555 1_555
H33A C42A 1_555 1_555
H62A O4A 1_555 1_555
H63A O5A 1_555 1_555
O1A K2A 1_555 1_555
H59A O1A 1_555 1_555
H64A O1A 1_555 1_555
O2A K2A 1_555 1_555
H60A O2A 1_555 1_555
H65A O2A 1_555 1_555
O3A K2A 1_555 1_555
H61A O3A 1_555 1_555
O11A K2A 1_555 1_555
C46A O11A 1_555 1_555
C47A C46A 1_555 1_555
H40A C47A 1_555 1_555
H41A C47A 1_555 1_555
H42A C47A 1_555 1_555
C48A C46A 1_555 1_555
H43A C48A 1_555 1_555
H44A C48A 1_555 1_555
H45A C48A 1_555 1_555
K1A O1A 1_555 1_555
O10A K1A 1_555 1_555
C43A O10A 1_555 1_555
C44A C43A 1_555 1_555
H34A C44A 1_555 1_555
H35A C44A 1_555 1_555
H36A C44A 1_555 1_555
C45A C43A 1_555 1_555
H37A C45A 1_555 1_555
H38A C45A 1_555 1_555
H39A C45A 1_555 1_555
O7A_2 K2A 1_555 1_555
K1A_2 O5A 1_555 1_555
K2A_2 O7A 1_555 1_555
O5A_2 K1A 1_555 1_555
H63A_2 O5A_2 1_555 1_555
K2 O2 1_555 1_555
K2 O3 1_555 1_555
C5 C6 1_555 1_555
C8 C13 1_555 1_555
C12 C13 1_555 1_555
C15 C20 1_555 1_555
C19 C20 1_555 1_555
C22 C27 1_555 1_555
C26 C27 1_555 1_555
C29 C34 1_555 1_555
C33 C34 1_555 1_555
C36 C37 1_555 1_555
C40 C41 1_555 1_555
C41 C42 1_555 1_555
C5A C6A 1_555 1_555
C8A C13A 1_555 1_555
C12A C13A 1_555 1_555
C15A C20A 1_555 1_555
C19A C20A 1_555 1_555
C22A C27A 1_555 1_555
C26A C27A 1_555 1_555
C29A C34A 1_555 1_555
C33A C34A 1_555 1_555
C36A C37A 1_555 1_555
C40A C41A 1_555 1_555
C41A C42A 1_555 1_555
O2A K1A 1_555 1_555
O3A K1A 1_555 1_555

#END
