
#######################################################################
#
#                 Cambridge Crystallographic Data Centre
#                                CCDC 
#
#######################################################################
#
# If this CIF has been generated from an entry in the Cambridge 
# Structural Database, then it will include bibliographic, chemical, 
# crystal, experimental, refinement or atomic coordinate data resulting 
# from the CCDC's data processing and validation procedures.
#
#######################################################################

data_BASVOH
_symmetry_cell_setting           monoclinic
_symmetry_space_group_name_H-M   'P 21/c'
_symmetry_Int_Tables_number      14
_space_group_name_Hall           '-P 2ybc'
loop_
_symmetry_equiv_pos_site_id
_symmetry_equiv_pos_as_xyz
1 x,y,z
2 x,1/2-y,1/2+z
3 -x,-y,-z
4 -x,1/2+y,1/2-z
_cell_length_a                   14.3918(8)
_cell_length_b                   25.2018(15)
_cell_length_c                   15.1928(9)
_cell_angle_alpha                90
_cell_angle_beta                 107.4530(10)
_cell_angle_gamma                90
_cell_volume                     5256.74
loop_
_atom_site_label
_atom_site_type_symbol
_atom_site_fract_x
_atom_site_fract_y
_atom_site_fract_z
Rb1 Rb 0.37779(3) 0.627633(15) 0.79915(3)
Rb2 Rb 0.51745(3) 0.776729(16) 0.91980(3)
O1 O 0.3251(2) 0.72497(12) 0.8649(2)
O2 O 0.4835(2) 0.71058(13) 0.7413(3)
O3 O 0.5310(3) 0.6567(2) 0.9581(3)
O4 O 0.3900(2) 0.67594(13) 0.5269(2)
O5 O 0.56997(19) 0.59300(11) 0.77949(18)
O6 O 0.69540(17) 0.63733(10) 0.91527(15)
H1 H 0.6600 0.6343 0.9492
O7 O 0.67839(16) 0.73052(9) 0.85781(15)
O8 O 0.4888(3) 0.80091(15) 0.6072(2)
O9 O 0.31798(17) 0.76776(10) 0.53883(16)
H2 H 0.3736 0.7790 0.5651
O10 O 0.3200(3) 0.53412(14) 0.8814(3)
O11 O 0.6901(2) 0.81753(13) 1.0556(2)
C1 C 0.3514(3) 0.63420(14) 0.5613(2)
C2 C 0.2554(3) 0.63508(15) 0.5651(2)
C3 C 0.2212(3) 0.58963(17) 0.5980(3)
H3 H 0.1511 0.5870 0.5926
C4 C 0.2799(3) 0.54570(16) 0.6264(2)
H4 H 0.2508 0.5119 0.6383
C5 C 0.3754(3) 0.54665(15) 0.6236(2)
H5 H 0.4144 0.5136 0.6362
C6 C 0.4122(3) 0.59065(14) 0.5914(2)
C7 C 0.5164(3) 0.59392(15) 0.5877(2)
H6 H 0.5149 0.5900 0.5230
H7 H 0.5408 0.6297 0.6072
C8 C 0.6180(2) 0.55720(14) 0.7406(2)
C9 C 0.5890(3) 0.55495(14) 0.6436(2)
C10 C 0.6366(3) 0.51919(15) 0.6033(3)
H8 H 0.6171 0.5159 0.5387
C11 C 0.7119(3) 0.48825(15) 0.6555(3)
H9 H 0.7448 0.4651 0.6265
C12 C 0.7389(3) 0.49128(14) 0.7507(3)
H10 H 0.7903 0.4701 0.7861
C13 C 0.6911(3) 0.52508(14) 0.7945(2)
C14 C 0.7173(3) 0.52527(15) 0.8993(2)
H11 H 0.6588 0.5349 0.9160
H12 H 0.7347 0.4889 0.9211
C15 C 0.7839(3) 0.61628(15) 0.9578(2)
C16 C 0.7992(3) 0.56159(15) 0.9516(2)
C17 C 0.8897(3) 0.54126(17) 0.9996(3)
H13 H 0.9005 0.5046 0.9965
C18 C 0.9640(3) 0.57239(19) 1.0514(3)
H14 H 1.0247 0.5575 1.0832
C19 C 0.9476(3) 0.62611(18) 1.0558(3)
H15 H 0.9981 0.6478 1.0914
C20 C 0.8593(3) 0.64900(15) 1.0094(2)
C21 C 0.8442(3) 0.70794(15) 1.0162(2)
H16 H 0.8934 0.7215 1.0712
H17 H 0.7802 0.7138 1.0248
C22 C 0.7665(3) 0.75149(14) 0.8596(2)
C23 C 0.8500(3) 0.73972(14) 0.9331(2)
C24 C 0.9378(3) 0.75962(17) 0.9283(3)
H18 H 0.9949 0.7515 0.9758
C25 C 0.9443(3) 0.79079(18) 0.8565(3)
H19 H 1.0053 0.8033 0.8549
C26 C 0.8613(3) 0.80388(16) 0.7865(3)
H20 H 0.8657 0.8261 0.7383
C27 C 0.7715(3) 0.78444(14) 0.7869(2)
C28 C 0.6804(2) 0.79729(14) 0.7109(2)
H21 H 0.6491 0.7639 0.6849
H22 H 0.6987 0.8159 0.6620
C29 C 0.5095(3) 0.83085(14) 0.6851(2)
C30 C 0.6065(3) 0.83089(13) 0.7387(2)
C31 C 0.6331(3) 0.86273(14) 0.8162(2)
H23 H 0.7030 0.8702 0.8459
C32 C 0.5641(3) 0.89312(15) 0.8411(3)
H24 H 0.5865 0.9228 0.8851
C33 C 0.4680(3) 0.89179(15) 0.7869(3)
H25 H 0.4218 0.9180 0.7986
C34 C 0.4382(3) 0.86050(14) 0.7079(3)
C35 C 0.3335(3) 0.86213(15) 0.6464(3)
H26 H 0.3342 0.8652 0.5823
H27 H 0.3034 0.8945 0.6610
C36 C 0.2636(3) 0.77097(15) 0.5963(3)
C37 C 0.2688(3) 0.81573(16) 0.6523(3)
C38 C 0.2103(3) 0.81816(19) 0.7087(3)
H28 H 0.2135 0.8481 0.7463
C39 C 0.1459(3) 0.7772(2) 0.7116(3)
H29 H 0.1062 0.7796 0.7505
C40 C 0.1413(3) 0.73267(19) 0.6562(3)
H30 H 0.0987 0.7048 0.6586
C41 C 0.1989(3) 0.72906(16) 0.5975(3)
C42 C 0.1882(3) 0.68199(15) 0.5323(3)
H31 H 0.1210 0.6692 0.5174
H32 H 0.1977 0.6949 0.4748
C43 C 0.3377(4) 0.4889(2) 0.8683(3)
C44 C 0.4389(5) 0.4722(3) 0.8785(4)
H33 H 0.4823 0.5023 0.8979
H34 H 0.4433 0.4591 0.8199
H35 H 0.4576 0.4443 0.9245
C45 C 0.2633(4) 0.4477(2) 0.8414(4)
H36 H 0.1993 0.4637 0.8289
H37 H 0.2728 0.4222 0.8911
H38 H 0.2682 0.4299 0.7864
C46 C 0.7600(3) 0.84073(17) 1.1035(3)
C47 C 0.8337(4) 0.8645(3) 1.0644(3)
H39 H 0.8229 0.8518 1.0019
H40 H 0.8985 0.8544 1.1020
H41 H 0.8277 0.9029 1.0639
C48 C 0.7781(3) 0.84763(19) 1.2038(3)
H42 H 0.7245 0.8324 1.2217
H43 H 0.7833 0.8851 1.2188
H44 H 0.8382 0.8299 1.2369
H58 H 0.327(7) 0.729(4) 0.938(8)
H59 H 0.261(4) 0.742(3) 0.821(4)
H60 H 0.490(4) 0.716(2) 0.705(4)
H61 H 0.535(5) 0.667(3) 1.007(5)
H62 H 0.539(2) 0.6233(13) 0.975(2)
H63 H 0.367(3) 0.6999(15) 0.530(3)
H64 H 0.607(3) 0.6078(17) 0.825(3)
H65 H 0.450(2) 0.7988(16) 0.595(3)
Rb2A Rb 0.51745(3) 0.723271(16) 0.41980(3)
O4A O 0.3900(2) 0.82406(13) 1.0269(2)
O5A O 0.56997(19) 0.90700(11) 1.27949(18)
O6A O 0.69540(17) 0.86267(10) 1.41527(15)
H1A H 0.6600 0.8657 1.4492
O7A O 0.67839(16) 0.76948(9) 1.35781(15)
O8A O 0.4888(3) 0.69909(15) 1.1072(2)
O9A O 0.31798(17) 0.73224(10) 1.03883(16)
H2A H 0.3736 0.7210 1.0651
C1A C 0.3514(3) 0.86580(14) 1.0613(2)
C2A C 0.2554(3) 0.86492(15) 1.0651(2)
C3A C 0.2212(3) 0.91037(17) 1.0980(3)
H3A H 0.1511 0.9130 1.0926
C4A C 0.2799(3) 0.95430(16) 1.1264(2)
H4A H 0.2508 0.9881 1.1383
C5A C 0.3754(3) 0.95335(15) 1.1236(2)
H5A H 0.4144 0.9864 1.1362
C6A C 0.4122(3) 0.90935(14) 1.0914(2)
C7A C 0.5164(3) 0.90608(15) 1.0877(2)
H6A H 0.5149 0.9100 1.0230
H7A H 0.5408 0.8703 1.1072
C8A C 0.6180(2) 0.94280(14) 1.2406(2)
C9A C 0.5890(3) 0.94505(14) 1.1436(2)
C10A C 0.6366(3) 0.98081(15) 1.1033(3)
H8A H 0.6171 0.9841 1.0387
C11A C 0.7119(3) 1.01175(15) 1.1555(3)
H9A H 0.7448 1.0349 1.1265
C12A C 0.7389(3) 1.00872(14) 1.2507(3)
H10A H 0.7903 1.0299 1.2861
C13A C 0.6911(3) 0.97492(14) 1.2945(2)
C14A C 0.7173(3) 0.97473(15) 1.3993(2)
H11A H 0.6588 0.9651 1.4160
H12A H 0.7347 1.0111 1.4211
C15A C 0.7839(3) 0.88372(15) 1.4578(2)
C16A C 0.7992(3) 0.93841(15) 1.4516(2)
C17A C 0.8897(3) 0.95874(17) 1.4996(3)
H13A H 0.9005 0.9954 1.4965
C18A C 0.9640(3) 0.92761(19) 1.5514(3)
H14A H 1.0247 0.9425 1.5832
C19A C 0.9476(3) 0.87389(18) 1.5558(3)
H15A H 0.9981 0.8522 1.5914
C20A C 0.8593(3) 0.85100(15) 1.5094(2)
C21A C 0.8442(3) 0.79206(15) 1.5162(2)
H16A H 0.8934 0.7785 1.5712
H17A H 0.7802 0.7862 1.5248
C22A C 0.7665(3) 0.74851(14) 1.3596(2)
C23A C 0.8500(3) 0.76028(14) 1.4331(2)
C24A C 0.9378(3) 0.74038(17) 1.4283(3)
H18A H 0.9949 0.7485 1.4758
C25A C 0.9443(3) 0.70921(18) 1.3565(3)
H19A H 1.0053 0.6967 1.3549
C26A C 0.8613(3) 0.69612(16) 1.2865(3)
H20A H 0.8657 0.6739 1.2383
C27A C 0.7715(3) 0.71556(14) 1.2869(2)
C28A C 0.6804(2) 0.70271(14) 1.2109(2)
H21A H 0.6491 0.7361 1.1849
H22A H 0.6987 0.6841 1.1620
C29A C 0.5095(3) 0.66915(14) 1.1851(2)
C30A C 0.6065(3) 0.66911(13) 1.2387(2)
C31A C 0.6331(3) 0.63727(14) 1.3162(2)
H23A H 0.7030 0.6298 1.3459
C32A C 0.5641(3) 0.60688(15) 1.3411(3)
H24A H 0.5865 0.5772 1.3851
C33A C 0.4680(3) 0.60821(15) 1.2869(3)
H25A H 0.4218 0.5820 1.2986
C34A C 0.4382(3) 0.63950(14) 1.2079(3)
C35A C 0.3335(3) 0.63787(15) 1.1464(3)
H26A H 0.3342 0.6348 1.0823
H27A H 0.3034 0.6055 1.1610
C36A C 0.2636(3) 0.72903(15) 1.0963(3)
C37A C 0.2688(3) 0.68427(16) 1.1523(3)
C38A C 0.2103(3) 0.68184(19) 1.2087(3)
H28A H 0.2135 0.6519 1.2463
C39A C 0.1459(3) 0.7228(2) 1.2116(3)
H29A H 0.1062 0.7204 1.2505
C40A C 0.1413(3) 0.76733(19) 1.1562(3)
H30A H 0.0987 0.7952 1.1586
C41A C 0.1989(3) 0.77094(16) 1.0975(3)
C42A C 0.1882(3) 0.81801(15) 1.0323(3)
H31A H 0.1210 0.8308 1.0174
H32A H 0.1977 0.8051 0.9748
H63A H 0.367(3) 0.8001(15) 1.030(3)
H64A H 0.607(3) 0.8922(17) 1.325(3)
H65A H 0.450(2) 0.7012(16) 1.095(3)
O1A O 0.3251(2) 0.77503(12) 0.3649(2)
H58A H 0.327(7) 0.771(4) 0.438(8)
H59A H 0.261(4) 0.758(3) 0.321(4)
O2A O 0.4835(2) 0.78942(13) 0.2413(3)
H60A H 0.490(4) 0.784(2) 0.205(4)
O3A O 0.5310(3) 0.8433(2) 0.4581(3)
H61A H 0.535(5) 0.833(3) 0.507(5)
H62A H 0.539(2) 0.8767(13) 0.475(2)
O11A O 0.6901(2) 0.68247(13) 0.5556(2)
C46A C 0.7600(3) 0.65927(17) 0.6035(3)
C47A C 0.8337(4) 0.6355(3) 0.5644(3)
H39A H 0.8229 0.6482 0.5019
H40A H 0.8985 0.6456 0.6020
H41A H 0.8277 0.5971 0.5639
C48A C 0.7781(3) 0.65237(19) 0.7038(3)
H42A H 0.7245 0.6676 0.7217
H43A H 0.7833 0.6149 0.7188
H44A H 0.8382 0.6701 0.7369
Rb1A Rb 0.37779(3) 0.872367(15) 0.29915(3)
O10A O 0.3200(3) 0.96588(14) 0.3814(3)
C43A C 0.3377(4) 1.0111(2) 0.3683(3)
C44A C 0.4389(5) 1.0278(3) 0.3785(4)
H33A H 0.4823 0.9977 0.3979
H34A H 0.4433 1.0409 0.3199
H35A H 0.4576 1.0557 0.4245
C45A C 0.2633(4) 1.0523(2) 0.3414(4)
H36A H 0.1993 1.0363 0.3289
H37A H 0.2728 1.0778 0.3911
H38A H 0.2682 1.0701 0.2864
O7A_2 O 0.67839(16) 0.76948(9) 0.35781(15)
Rb1A_2 Rb 0.37779(3) 0.872367(15) 1.29915(3)
Rb2A_2 Rb 0.51745(3) 0.723271(16) 1.41980(3)
O5A_2 O 0.56997(19) 0.90700(11) 0.27949(18)
H64A_2 H 0.607(3) 0.8922(17) 0.325(3)
O12 O 0.1178(7) 0.6211(3) 0.7611(5)
C49 C 0.0884(6) 0.6126(3) 0.8244(5)
C50 C 0.1304(6) 0.6342(4) 0.9108(6)
H45 H 0.1955 0.6465 0.9155
H46 H 0.1337 0.6074 0.9575
H47 H 0.0913 0.6638 0.9200
C51 C 0.0142(5) 0.5701(3) 0.8159(4)
H48 H -0.0225 0.5655 0.7514
H49 H -0.0298 0.5802 0.8505
H50 H 0.0465 0.5371 0.8402
C52 C 0.0178(5) 0.5053(3) 0.4562(5)
H51 H 0.0890 0.5086 0.4761
H52 H 0.0003 0.4749 0.4143
C53 C -0.0259(5) 0.5549(3) 0.4049(5)
H53 H -0.0181 0.5846 0.4481
H54 H -0.0957 0.5496 0.3746
C54 C 0.0265(5) 0.5676(3) 0.3314(5)
H55 H 0.0926 0.5791 0.3621
H56 H -0.0084 0.5955 0.2910
H57 H 0.0280 0.5360 0.2954
C52B C -0.0178(5) 0.4947(3) 0.5438(5)
H51B H -0.0890 0.4914 0.5239
H52B H -0.0003 0.5251 0.5857
C53B C 0.0259(5) 0.4451(3) 0.5951(5)
H53B H 0.0181 0.4154 0.5519
H54B H 0.0957 0.4504 0.6254
C54B C -0.0265(5) 0.4324(3) 0.6686(5)
H55B H -0.0926 0.4209 0.6379
H56B H 0.0084 0.4045 0.7090
H57B H -0.0280 0.4640 0.7046
loop_
_geom_bond_atom_site_label_1
_geom_bond_atom_site_label_2
_geom_bond_site_symmetry_1
_geom_bond_site_symmetry_2
Rb1 O1 1_555 1_555
Rb2 O1 1_555 1_555
O1 H58 1_555 1_555
O2 Rb1 1_555 1_555
O3 Rb1 1_555 1_555
O4 C1 1_555 1_555
O5 Rb1 1_555 1_555
O6 H1 1_555 1_555
O7 Rb2 1_555 1_555
O8 C29 1_555 1_555
O9 H2 1_555 1_555
O10 Rb1 1_555 1_555
O11 Rb2 1_555 1_555
O12 C49 1_555 1_555
C1 C2 1_555 1_555
C2 C3 1_555 1_555
C3 H3 1_555 1_555
C4 C3 1_555 1_555
H4 C4 1_555 1_555
C5 C4 1_555 1_555
H5 C5 1_555 1_555
C6 C1 1_555 1_555
C7 C6 1_555 1_555
H6 C7 1_555 1_555
H7 C7 1_555 1_555
C8 O5 1_555 1_555
C9 C7 1_555 1_555
C10 C9 1_555 1_555
H8 C10 1_555 1_555
C11 C10 1_555 1_555
H9 C11 1_555 1_555
C12 C11 1_555 1_555
H10 C12 1_555 1_555
C13 C8 1_555 1_555
C14 C13 1_555 1_555
H11 C14 1_555 1_555
H12 C14 1_555 1_555
C15 O6 1_555 1_555
C16 C14 1_555 1_555
C17 C16 1_555 1_555
H13 C17 1_555 1_555
C18 C17 1_555 1_555
H14 C18 1_555 1_555
C19 C18 1_555 1_555
H15 C19 1_555 1_555
C20 C15 1_555 1_555
C21 C20 1_555 1_555
H16 C21 1_555 1_555
H17 C21 1_555 1_555
C22 O7 1_555 1_555
C23 C21 1_555 1_555
C24 C23 1_555 1_555
H18 C24 1_555 1_555
C25 C24 1_555 1_555
H19 C25 1_555 1_555
C26 C25 1_555 1_555
H20 C26 1_555 1_555
C27 C22 1_555 1_555
C28 C27 1_555 1_555
H21 C28 1_555 1_555
H22 C28 1_555 1_555
C29 C30 1_555 1_555
C30 C28 1_555 1_555
C31 C30 1_555 1_555
H23 C31 1_555 1_555
C32 C31 1_555 1_555
H24 C32 1_555 1_555
C33 C32 1_555 1_555
H25 C33 1_555 1_555
C34 C29 1_555 1_555
C35 C34 1_555 1_555
H26 C35 1_555 1_555
H27 C35 1_555 1_555
C36 O9 1_555 1_555
C37 C35 1_555 1_555
C38 C37 1_555 1_555
H28 C38 1_555 1_555
C39 C38 1_555 1_555
H29 C39 1_555 1_555
C40 C39 1_555 1_555
H30 C40 1_555 1_555
C41 C36 1_555 1_555
C42 C2 1_555 1_555
H31 C42 1_555 1_555
H32 C42 1_555 1_555
C43 O10 1_555 1_555
C44 C43 1_555 1_555
H33 C44 1_555 1_555
H34 C44 1_555 1_555
H35 C44 1_555 1_555
C45 C43 1_555 1_555
H36 C45 1_555 1_555
H37 C45 1_555 1_555
H38 C45 1_555 1_555
C46 O11 1_555 1_555
C47 C46 1_555 1_555
H39 C47 1_555 1_555
H40 C47 1_555 1_555
H41 C47 1_555 1_555
C48 C46 1_555 1_555
H42 C48 1_555 1_555
H43 C48 1_555 1_555
H44 C48 1_555 1_555
C49 C50 1_555 1_555
C50 H45 1_555 1_555
H46 C50 1_555 1_555
H47 C50 1_555 1_555
C51 C49 1_555 1_555
H48 C51 1_555 1_555
H49 C51 1_555 1_555
H50 C51 1_555 1_555
C52 H51 1_555 1_555
H52 C52 1_555 1_555
C53 C52 1_555 1_555
H53 C53 1_555 1_555
H54 C53 1_555 1_555
C54 C53 1_555 1_555
H55 C54 1_555 1_555
H56 C54 1_555 1_555
H57 C54 1_555 1_555
H59 O1 1_555 1_555
H60 O2 1_555 1_555
H61 O3 1_555 1_555
H62 O3 1_555 1_555
H63 O4 1_555 1_555
H64 O5 1_555 1_555
H65 O8 1_555 1_555
C52B C52 1_555 1_555
H51B C52B 1_555 1_555
H52B C52B 1_555 1_555
C53B C52B 1_555 1_555
H53B C53B 1_555 1_555
H54B C53B 1_555 1_555
C54B C53B 1_555 1_555
H55B C54B 1_555 1_555
H56B C54B 1_555 1_555
H57B C54B 1_555 1_555
Rb2A O4 1_555 1_555
O4A Rb2 1_555 1_555
O5A C8A 1_555 1_555
O6A H1A 1_555 1_555
O7A C22A 1_555 1_555
O8A C29A 1_555 1_555
O9A H2A 1_555 1_555
C1A O4A 1_555 1_555
C2A C1A 1_555 1_555
C3A C2A 1_555 1_555
H3A C3A 1_555 1_555
C4A C3A 1_555 1_555
H4A C4A 1_555 1_555
C5A C4A 1_555 1_555
H5A C5A 1_555 1_555
C6A C1A 1_555 1_555
C7A C6A 1_555 1_555
H6A C7A 1_555 1_555
H7A C7A 1_555 1_555
C8A C9A 1_555 1_555
C9A C7A 1_555 1_555
C10A C9A 1_555 1_555
H8A C10A 1_555 1_555
C11A C10A 1_555 1_555
H9A C11A 1_555 1_555
C12A C11A 1_555 1_555
H10A C12A 1_555 1_555
C13A C8A 1_555 1_555
C14A C13A 1_555 1_555
H11A C14A 1_555 1_555
H12A C14A 1_555 1_555
C15A O6A 1_555 1_555
C16A C14A 1_555 1_555
C17A C16A 1_555 1_555
H13A C17A 1_555 1_555
C18A C17A 1_555 1_555
H14A C18A 1_555 1_555
C19A C18A 1_555 1_555
H15A C19A 1_555 1_555
C20A C15A 1_555 1_555
C21A C20A 1_555 1_555
H16A C21A 1_555 1_555
H17A C21A 1_555 1_555
C22A C23A 1_555 1_555
C23A C21A 1_555 1_555
C24A C23A 1_555 1_555
H18A C24A 1_555 1_555
C25A C24A 1_555 1_555
H19A C25A 1_555 1_555
C26A C25A 1_555 1_555
H20A C26A 1_555 1_555
C27A C22A 1_555 1_555
C28A C27A 1_555 1_555
H21A C28A 1_555 1_555
H22A C28A 1_555 1_555
C29A C30A 1_555 1_555
C30A C28A 1_555 1_555
C31A C30A 1_555 1_555
H23A C31A 1_555 1_555
C32A C31A 1_555 1_555
H24A C32A 1_555 1_555
C33A C32A 1_555 1_555
H25A C33A 1_555 1_555
C34A C29A 1_555 1_555
C35A C34A 1_555 1_555
H26A C35A 1_555 1_555
H27A C35A 1_555 1_555
C36A O9A 1_555 1_555
C37A C35A 1_555 1_555
C38A C37A 1_555 1_555
H28A C38A 1_555 1_555
C39A C38A 1_555 1_555
H29A C39A 1_555 1_555
C40A C39A 1_555 1_555
H30A C40A 1_555 1_555
C41A C36A 1_555 1_555
C42A C2A 1_555 1_555
H31A C42A 1_555 1_555
H32A C42A 1_555 1_555
H63A O4A 1_555 1_555
H64A O5A 1_555 1_555
H65A O8A 1_555 1_555
O1A Rb2A 1_555 1_555
H58A O1A 1_555 1_555
H59A O1A 1_555 1_555
O2A Rb2A 1_555 1_555
H60A O2A 1_555 1_555
O3A Rb2A 1_555 1_555
H61A O3A 1_555 1_555
H62A O3A 1_555 1_555
O11A Rb2A 1_555 1_555
C46A O11A 1_555 1_555
C47A C46A 1_555 1_555
H39A C47A 1_555 1_555
H40A C47A 1_555 1_555
H41A C47A 1_555 1_555
C48A C46A 1_555 1_555
H42A C48A 1_555 1_555
H43A C48A 1_555 1_555
H44A C48A 1_555 1_555
Rb1A O1A 1_555 1_555
O10A Rb1A 1_555 1_555
C43A O10A 1_555 1_555
C44A C43A 1_555 1_555
H33A C44A 1_555 1_555
H34A C44A 1_555 1_555
H35A C44A 1_555 1_555
C45A C43A 1_555 1_555
H36A C45A 1_555 1_555
H37A C45A 1_555 1_555
H38A C45A 1_555 1_555
O7A_2 Rb2A 1_555 1_555
Rb1A_2 O5A 1_555 1_555
Rb2A_2 O7A 1_555 1_555
O5A_2 Rb1A 1_555 1_555
H64A_2 O5A_2 1_555 1_555
Rb2 O2 1_555 1_555
Rb2 O3 1_555 1_555
C5 C6 1_555 1_555
C8 C9 1_555 1_555
C12 C13 1_555 1_555
C15 C16 1_555 1_555
C19 C20 1_555 1_555
C22 C23 1_555 1_555
C26 C27 1_555 1_555
C33 C34 1_555 1_555
C36 C37 1_555 1_555
C40 C41 1_555 1_555
C41 C42 1_555 1_555
C5A C6A 1_555 1_555
C12A C13A 1_555 1_555
C15A C16A 1_555 1_555
C19A C20A 1_555 1_555
C26A C27A 1_555 1_555
C33A C34A 1_555 1_555
C36A C37A 1_555 1_555
C40A C41A 1_555 1_555
C41A C42A 1_555 1_555
O2A Rb1A 1_555 1_555
O3A Rb1A 1_555 1_555

#END
