
#######################################################################
#
#                 Cambridge Crystallographic Data Centre
#                                CCDC 
#
#######################################################################
#
# If this CIF has been generated from an entry in the Cambridge 
# Structural Database, then it will include bibliographic, chemical, 
# crystal, experimental, refinement or atomic coordinate data resulting 
# from the CCDC's data processing and validation procedures.
#
#######################################################################

data_BASWAU
_symmetry_cell_setting           monoclinic
_symmetry_space_group_name_H-M   'P 21/c'
_symmetry_Int_Tables_number      14
_space_group_name_Hall           '-P 2ybc'
loop_
_symmetry_equiv_pos_site_id
_symmetry_equiv_pos_as_xyz
1 x,y,z
2 x,1/2-y,1/2+z
3 -x,-y,-z
4 -x,1/2+y,1/2-z
_cell_length_a                   14.5123(8)
_cell_length_b                   24.7889(13)
_cell_length_c                   14.8909(8)
_cell_angle_alpha                90
_cell_angle_beta                 107.9540(10)
_cell_angle_gamma                90
_cell_volume                     5096.05
loop_
_atom_site_label
_atom_site_type_symbol
_atom_site_fract_x
_atom_site_fract_y
_atom_site_fract_z
Rb1 Rb 0.49145(3) 0.222388(14) 0.08478(3)
K1 K 0.60422(5) 0.12781(3) -0.29725(5)
O1 O 0.52600(19) 0.30223(10) -0.09836(17)
O2 O 0.69389(17) 0.26859(9) -0.03144(16)
O3 O 0.61917(19) 0.17596(11) -0.02083(18)
O4 O 0.42718(18) 0.09188(10) -0.28340(18)
O5 O 0.30262(15) 0.13882(9) -0.41966(15)
O6 O 0.32740(17) 0.23334(10) -0.35383(17)
O7 O 0.5179(2) 0.28781(11) 0.2628(2)
O8 O 0.6771(2) 0.28474(12) 0.1425(2)
O9 O 0.4688(2) 0.34117(16) 0.0462(2)
O10 O 0.3204(2) 0.18096(12) -0.0507(2)
O11 O 0.6620(3) 0.04013(12) -0.3824(2)
C1 C 0.5029(2) 0.33312(13) -0.1774(2)
C2 C 0.4051(2) 0.33403(13) -0.2315(2)
C3 C 0.3776(3) 0.36649(13) -0.3115(2)
H1 H 0.3072 0.3740 -0.3423
C4 C 0.4456(3) 0.39689(13) -0.3380(2)
H2 H 0.4227 0.4270 -0.3842
C5 C 0.5426(3) 0.39504(14) -0.2839(2)
H3 H 0.5888 0.4216 -0.2967
C6 C 0.5728(3) 0.36335(13) -0.2030(2)
C7 C 0.6785(2) 0.36473(14) -0.1399(3)
H4 H 0.6791 0.3673 -0.0734
H5 H 0.7089 0.3980 -0.1546
C8 C 0.7402(2) 0.31738(14) -0.1484(2)
C9 C 0.7463(2) 0.27129(14) -0.0911(2)
C10 C 0.8083(2) 0.22834(14) -0.0959(2)
C11 C 0.8628(2) 0.23181(15) -0.1579(3)
H6 H 0.9049 0.2031 -0.1610
C12 C 0.8564(3) 0.27713(16) -0.2158(3)
H7 H 0.8934 0.2789 -0.2584
C13 C 0.7956(3) 0.31915(15) -0.2104(2)
H8 H 0.7914 0.3499 -0.2496
C14 C 0.8183(2) 0.17990(14) -0.0308(3)
H9 H 0.8104 0.1925 0.0295
H10 H 0.8850 0.1656 -0.0167
C15 C 0.7479(2) 0.13377(13) -0.0675(2)
C16 C 0.6537(2) 0.13397(13) -0.0601(2)
C17 C 0.5900(2) 0.09063(13) -0.0932(2)
C18 C 0.6233(2) 0.04590(13) -0.1304(2)
H11 H 0.5833 0.0122 -0.1428
C19 C 0.7166(3) 0.04423(14) -0.1362(3)
H12 H 0.7426 0.0099 -0.1540
C20 C 0.7775(3) 0.08796(15) -0.1058(3)
H13 H 0.8457 0.0858 -0.1077
C21 C 0.4883(2) 0.09489(13) -0.0864(2)
H14 H 0.4643 0.1317 -0.1065
H15 H 0.4926 0.0913 -0.0190
C22 C 0.4132(2) 0.05557(13) -0.1415(2)
C23 C 0.3807(2) 0.05750(12) -0.2405(2)
C24 C 0.3025(2) 0.02586(12) -0.2936(2)
C25 C 0.2558(2) -0.00713(13) -0.2454(2)
H16 H 0.2012 -0.0278 -0.2801
C26 C 0.2876(2) -0.01036(13) -0.1474(3)
H17 H 0.2557 -0.0333 -0.1154
C27 C 0.3666(2) 0.02032(13) -0.0968(2)
H18 H 0.3895 0.0172 -0.0299
C28 C 0.2718(2) 0.02580(13) -0.4009(2)
H19 H 0.2503 -0.0111 -0.4230
H20 H 0.3296 0.0339 -0.4206
C29 C 0.1921(2) 0.06481(14) -0.4510(2)
C30 C 0.2123(2) 0.11992(13) -0.4589(2)
C31 C 0.1378(2) 0.15489(13) -0.5102(2)
C32 C 0.0459(3) 0.13477(16) -0.5541(3)
H21 H -0.0038 0.1584 -0.5890
C33 C 0.0258(3) 0.08085(17) -0.5479(3)
H22 H -0.0372 0.0673 -0.5788
C34 C 0.0981(3) 0.04647(16) -0.4962(3)
H23 H 0.0834 0.0094 -0.4914
C35 C 0.1584(3) 0.21452(13) -0.5168(2)
H24 H 0.2228 0.2186 -0.5259
H25 H 0.1097 0.2297 -0.5732
C36 C 0.1568(2) 0.24702(13) -0.4310(2)
C37 C 0.2410(2) 0.25606(13) -0.3558(2)
C38 C 0.2396(2) 0.28917(13) -0.2797(2)
C39 C 0.1519(3) 0.31136(15) -0.2785(3)
H26 H 0.1499 0.3338 -0.2275
C40 C 0.0673(3) 0.30092(17) -0.3513(3)
H27 H 0.0074 0.3156 -0.3494
C41 C 0.0703(3) 0.26939(16) -0.4261(3)
H28 H 0.0122 0.2626 -0.4757
C42 C 0.3326(2) 0.30022(13) -0.2017(2)
H29 H 0.3168 0.3189 -0.1496
H30 H 0.3632 0.2653 -0.1769
C43 C 0.2497(3) 0.15688(15) -0.0980(3)
C44 C 0.1829(3) 0.1288(2) -0.0544(3)
H31 H 0.2062 0.1337 0.0142
H32 H 0.1810 0.0902 -0.0693
H33 H 0.1177 0.1440 -0.0796
C45 C 0.2243(3) 0.15332(16) -0.2030(3)
H34 H 0.2724 0.1731 -0.2240
H35 H 0.1600 0.1691 -0.2321
H36 H 0.2237 0.1154 -0.2219
C46 C 0.6425(4) -0.00707(17) -0.3750(3)
C47 C 0.7172(4) -0.05008(18) -0.3589(4)
H37 H 0.7796 -0.0340 -0.3563
H38 H 0.7231 -0.0684 -0.2990
H39 H 0.6982 -0.0763 -0.4106
C48 C 0.5433(4) -0.0241(2) -0.3810(3)
H40 H 0.5009 0.0075 -0.3914
H41 H 0.5191 -0.0494 -0.4337
H42 H 0.5440 -0.0418 -0.3220
H43 H 0.577(3) 0.2968(16) -0.078(3)
H44 H 0.648(3) 0.1970(18) -0.020(3)
H45 H 0.392(3) 0.1037(16) -0.319(3)
H46 H 0.317(3) 0.2081(17) -0.374(3)
H47 H 0.531(4) 0.2799(19) 0.309(4)
H48 H 0.467(4) 0.288(2) 0.245(4)
H49 H 0.721(4) 0.271(2) 0.179(4)
H50 H 0.693(3) 0.2801(17) 0.089(3)
H51 H 0.423(4) 0.349(2) 0.037(4)
H52 H 0.480(4) 0.337(2) -0.002(4)
K1A K 0.60422(5) 0.37219(3) 0.20275(5)
O6A O 0.32740(17) 0.26666(10) 0.14617(17)
Rb1A Rb 0.49145(3) 0.277612(14) -0.41522(3)
O7A O 0.5179(2) 0.21219(11) -0.2372(2)
O8A O 0.6771(2) 0.21526(12) -0.3575(2)
O9A O 0.4688(2) 0.15883(16) -0.4538(2)
H46A H 0.317(3) 0.2919(17) 0.126(3)
H47A H 0.531(4) 0.2201(19) -0.191(4)
H48A H 0.467(4) 0.212(2) -0.255(4)
H49A H 0.721(4) 0.229(2) -0.321(4)
H50A H 0.693(3) 0.2199(17) -0.411(3)
H51A H 0.423(4) 0.151(2) -0.463(4)
H52A H 0.480(4) 0.163(2) -0.502(4)
loop_
_geom_bond_atom_site_label_1
_geom_bond_atom_site_label_2
_geom_bond_site_symmetry_1
_geom_bond_site_symmetry_2
Rb1 O3 1_555 1_555
K1 O4 1_555 1_555
O1 C1 1_555 1_555
O2 C9 1_555 1_555
O3 C16 1_555 1_555
O4 C23 1_555 1_555
O5 C30 1_555 1_555
O6 C37 1_555 1_555
O7 Rb1 1_555 1_555
O8 Rb1 1_555 1_555
O9 Rb1 1_555 1_555
O10 Rb1 1_555 1_555
O11 K1 1_555 1_555
C1 C2 1_555 1_555
C2 C3 1_555 1_555
C3 H1 1_555 1_555
C4 C3 1_555 1_555
H2 C4 1_555 1_555
C5 C4 1_555 1_555
H3 C5 1_555 1_555
C6 C1 1_555 1_555
C7 C6 1_555 1_555
H4 C7 1_555 1_555
H5 C7 1_555 1_555
C8 C7 1_555 1_555
C9 C8 1_555 1_555
C10 C9 1_555 1_555
C11 C10 1_555 1_555
H6 C11 1_555 1_555
C12 C11 1_555 1_555
H7 C12 1_555 1_555
C13 C8 1_555 1_555
H8 C13 1_555 1_555
C14 C10 1_555 1_555
H9 C14 1_555 1_555
H10 C14 1_555 1_555
C15 C14 1_555 1_555
C16 C15 1_555 1_555
C17 C16 1_555 1_555
C18 C17 1_555 1_555
H11 C18 1_555 1_555
C19 C18 1_555 1_555
H12 C19 1_555 1_555
C20 C15 1_555 1_555
H13 C20 1_555 1_555
C21 C17 1_555 1_555
H14 C21 1_555 1_555
H15 C21 1_555 1_555
C22 C21 1_555 1_555
C23 C22 1_555 1_555
C24 C23 1_555 1_555
C25 C24 1_555 1_555
H16 C25 1_555 1_555
C26 C25 1_555 1_555
H17 C26 1_555 1_555
C27 C22 1_555 1_555
H18 C27 1_555 1_555
C28 C24 1_555 1_555
H19 C28 1_555 1_555
H20 C28 1_555 1_555
C29 C28 1_555 1_555
C30 C29 1_555 1_555
C31 C30 1_555 1_555
C32 C31 1_555 1_555
H21 C32 1_555 1_555
C33 C32 1_555 1_555
H22 C33 1_555 1_555
C34 C29 1_555 1_555
H23 C34 1_555 1_555
C35 C31 1_555 1_555
H24 C35 1_555 1_555
H25 C35 1_555 1_555
C36 C35 1_555 1_555
C37 C36 1_555 1_555
C38 C37 1_555 1_555
C39 C38 1_555 1_555
H26 C39 1_555 1_555
C40 C39 1_555 1_555
H27 C40 1_555 1_555
C41 C36 1_555 1_555
H28 C41 1_555 1_555
C42 C2 1_555 1_555
H29 C42 1_555 1_555
H30 C42 1_555 1_555
C43 O10 1_555 1_555
C44 C43 1_555 1_555
H31 C44 1_555 1_555
H32 C44 1_555 1_555
H33 C44 1_555 1_555
C45 C43 1_555 1_555
H34 C45 1_555 1_555
H35 C45 1_555 1_555
H36 C45 1_555 1_555
C46 O11 1_555 1_555
C47 C46 1_555 1_555
H37 C47 1_555 1_555
H38 C47 1_555 1_555
H39 C47 1_555 1_555
C48 C46 1_555 1_555
H40 C48 1_555 1_555
H41 C48 1_555 1_555
H42 C48 1_555 1_555
H43 O1 1_555 1_555
H44 O3 1_555 1_555
H45 O4 1_555 1_555
H46 O6 1_555 1_555
H47 O7 1_555 1_555
H48 O7 1_555 1_555
H49 O8 1_555 1_555
H50 O8 1_555 1_555
H51 O9 1_555 1_555
H52 O9 1_555 1_555
K1A O7 1_555 1_555
O6A Rb1 1_555 1_555
Rb1A O6 1_555 1_555
O7A K1 1_555 1_555
O8A K1 1_555 1_555
O9A K1 1_555 1_555
H46A O6A 1_555 1_555
H47A O7A 1_555 1_555
H48A O7A 1_555 1_555
H49A O8A 1_555 1_555
H50A O8A 1_555 1_555
H51A O9A 1_555 1_555
H52A O9A 1_555 1_555
O8 K1A 1_555 1_555
O9 K1A 1_555 1_555
C5 C6 1_555 1_555
C12 C13 1_555 1_555
C19 C20 1_555 1_555
C26 C27 1_555 1_555
C33 C34 1_555 1_555
C38 C42 1_555 1_555
C40 C41 1_555 1_555
Rb1A O7A 1_555 1_555
Rb1A O8A 1_555 1_555
Rb1A O9A 1_555 1_555

#END
