
#######################################################################
#
#                 Cambridge Crystallographic Data Centre
#                                CCDC 
#
#######################################################################
#
# If this CIF has been generated from an entry in the Cambridge 
# Structural Database, then it will include bibliographic, chemical, 
# crystal, experimental, refinement or atomic coordinate data resulting 
# from the CCDC's data processing and validation procedures.
#
#######################################################################

data_BATHEL
_symmetry_cell_setting           monoclinic
_symmetry_space_group_name_H-M   'P 21/c'
_symmetry_Int_Tables_number      14
_space_group_name_Hall           '-P 2ybc'
loop_
_symmetry_equiv_pos_site_id
_symmetry_equiv_pos_as_xyz
1 x,y,z
2 -x,1/2+y,1/2-z
3 -x,-y,-z
4 x,1/2-y,1/2+z
_cell_length_a                   12.0900(18)
_cell_length_b                   5.8660(9)
_cell_length_c                   30.648(4)
_cell_angle_alpha                90
_cell_angle_beta                 112.880(12)
_cell_angle_gamma                90
_cell_volume                     2002.54
loop_
_atom_site_label
_atom_site_type_symbol
_atom_site_fract_x
_atom_site_fract_y
_atom_site_fract_z
S1 S 0.29853(10) -0.3873(2) -0.05642(4)
P1 P 0.47127(10) -0.6230(2) -0.07763(4)
Na1 Na 0.40109(15) 0.1359(2) 0.00882(5)
O1 O 0.2953(2) -0.1853(4) -0.03032(8)
O2 O 0.2642(2) -0.5957(4) -0.03951(8)
O3 O 0.4006(2) -0.6614(4) -0.13335(8)
O4 O 0.4715(2) -0.8455(4) -0.05558(8)
O5 O 0.6003(2) -0.5343(4) -0.07114(9)
N1 N 0.4246(3) -0.4029(5) -0.05994(9)
C1 C 0.1907(4) -0.3438(7) -0.11464(12)
C2 C 0.1042(4) -0.5001(7) -0.13592(15)
H1 H 0.1025 -0.6371 -0.1209
C3 C 0.0173(5) -0.4524(8) -0.18087(16)
H2 H -0.0437 -0.5568 -0.1957
C4 C 0.0219(4) -0.2516(9) -0.20306(16)
H3 H -0.0369 -0.2179 -0.2326
C5 C 0.1138(4) -0.1006(9) -0.18142(15)
H4 H 0.1191 0.0325 -0.1970
C6 C 0.1973(4) -0.1451(7) -0.13727(14)
H5 H 0.2586 -0.0413 -0.1225
C7 C 0.3852(4) -0.5097(7) -0.17032(14)
C8 C 0.3097(4) -0.5777(7) -0.21390(14)
H6 H 0.2700 -0.7166 -0.2174
C9 C 0.2904(4) -0.4431(7) -0.25370(15)
H7 H 0.2392 -0.4939 -0.2835
C10 C 0.3466(4) -0.2360(7) -0.24921(16)
C11 C 0.4200(4) -0.1720(7) -0.20502(16)
H8 H 0.4586 -0.0318 -0.2011
C12 C 0.4403(4) -0.3047(6) -0.16570(14)
H9 H 0.4917 -0.2538 -0.1360
C13 C 0.3291(4) -0.0872(7) -0.29167(12)
H10 H 0.3849 0.0374 -0.2822
H11 H 0.2486 -0.0289 -0.3043
H12 H 0.3427 -0.1758 -0.3155
C14 C 0.6927(4) -0.6701(7) -0.07384(14)
C15 C 0.6714(4) -0.8744(7) -0.09779(14)
H13 H 0.5934 -0.9286 -0.1128
C16 C 0.7673(5) -0.9987(7) -0.09936(15)
H14 H 0.7526 -1.1375 -0.1153
C17 C 0.8817(5) -0.9234(8) -0.07832(18)
C18 C 0.9012(4) -0.7161(8) -0.05462(15)
H15 H 0.9789 -0.6604 -0.0398
C19 C 0.8062(4) -0.5924(7) -0.05287(14)
H16 H 0.8205 -0.4535 -0.0370
C20 C 0.9871(4) -1.0583(7) -0.07921(16)
H17 H 1.0524 -0.9567 -0.0755
H18 H 0.9640 -1.1372 -0.1089
H19 H 1.0120 -1.1669 -0.0538
Na1_2 Na 0.40109(15) -0.8641(2) 0.00882(5)
Na1B Na 0.59891(15) -1.1359(2) -0.00882(5)
Na1B_2 Na 0.59891(15) -0.1359(2) -0.00882(5)
O2_2 O 0.2642(2) 0.4043(4) -0.03951(8)
O4_2 O 0.4715(2) 0.1545(4) -0.05558(8)
O4B O 0.5285(2) -0.1545(4) 0.05558(8)
N1B N 0.5754(3) 0.4029(5) 0.05994(9)
loop_
_geom_bond_atom_site_label_1
_geom_bond_atom_site_label_2
_geom_bond_site_symmetry_1
_geom_bond_site_symmetry_2
S1 O1 1_555 1_555
P1 O3 1_555 1_555
Na1 O1 1_555 1_555
O2 S1 1_555 1_555
O3 C7 1_555 1_555
O4 P1 1_555 1_555
O5 P1 1_555 1_555
N1 S1 1_555 1_555
C1 S1 1_555 1_555
C2 C1 1_555 1_555
H1 C2 1_555 1_555
C3 C2 1_555 1_555
H2 C3 1_555 1_555
C4 C3 1_555 1_555
H3 C4 1_555 1_555
C5 C4 1_555 1_555
H4 C5 1_555 1_555
C6 C1 1_555 1_555
H5 C6 1_555 1_555
C7 C8 1_555 1_555
C8 H6 1_555 1_555
C9 C8 1_555 1_555
H7 C9 1_555 1_555
C10 C9 1_555 1_555
C11 C10 1_555 1_555
H8 C11 1_555 1_555
C12 C7 1_555 1_555
H9 C12 1_555 1_555
C13 C10 1_555 1_555
H10 C13 1_555 1_555
H11 C13 1_555 1_555
H12 C13 1_555 1_555
C14 O5 1_555 1_555
C15 C14 1_555 1_555
H13 C15 1_555 1_555
C16 C15 1_555 1_555
H14 C16 1_555 1_555
C17 C16 1_555 1_555
C18 C17 1_555 1_555
H15 C18 1_555 1_555
C19 C14 1_555 1_555
H16 C19 1_555 1_555
C20 C17 1_555 1_555
H17 C20 1_555 1_555
H18 C20 1_555 1_555
H19 C20 1_555 1_555
Na1_2 O2 1_555 1_555
Na1B O4 1_555 1_555
Na1B_2 N1 1_555 1_555
O2_2 Na1 1_555 1_555
O4_2 Na1 1_555 1_555
O4B Na1 1_555 1_555
N1B Na1 1_555 1_555
P1 N1 1_555 1_555
O4 Na1_2 1_555 1_555
C5 C6 1_555 1_555
C11 C12 1_555 1_555
C18 C19 1_555 1_555
Na1B_2 O4_2 1_555 1_555
Na1B_2 O4B 1_555 1_555

#END
