
#######################################################################
#
#                 Cambridge Crystallographic Data Centre
#                                CCDC 
#
#######################################################################
#
# If this CIF has been generated from an entry in the Cambridge 
# Structural Database, then it will include bibliographic, chemical, 
# crystal, experimental, refinement or atomic coordinate data resulting 
# from the CCDC's data processing and validation procedures.
#
#######################################################################

data_BATMUG
_symmetry_cell_setting           orthorhombic
_symmetry_space_group_name_H-M   'P 21 21 21'
_symmetry_Int_Tables_number      19
_space_group_name_Hall           'P 2ac 2ab'
loop_
_symmetry_equiv_pos_site_id
_symmetry_equiv_pos_as_xyz
1 x,y,z
2 1/2+x,1/2-y,-z
3 -x,1/2+y,1/2-z
4 1/2-x,-y,1/2+z
_cell_length_a                   8.5781(9)
_cell_length_b                   11.4575(12)
_cell_length_c                   19.670(2)
_cell_angle_alpha                90
_cell_angle_beta                 90
_cell_angle_gamma                90
_cell_volume                     1933.24
loop_
_atom_site_label
_atom_site_type_symbol
_atom_site_fract_x
_atom_site_fract_y
_atom_site_fract_z
V1 V 0.03998(4) 0.41090(3) 0.290182(16)
O1 O 0.11857(18) 0.42962(12) 0.20515(7)
O2 O 0.12399(19) 0.28901(12) 0.33605(8)
O3 O -0.16574(17) 0.43820(12) 0.30615(8)
N1 N 0.1199(2) 0.52434(14) 0.32988(9)
N2 N 0.0851(2) 0.75121(16) 0.26402(9)
C1 C 0.1923(2) 0.62571(17) 0.35853(11)
C2 C 0.1078(2) 0.74009(17) 0.33746(10)
C3 C 0.1994(2) 0.84445(17) 0.36442(12)
C4 C 0.2184(3) 0.8396(2) 0.44132(13)
C5 C 0.2937(3) 0.7252(2) 0.46401(12)
C6 C 0.2046(3) 0.61943(19) 0.43646(11)
C7 C 0.2382(2) 0.50173(19) 0.17943(12)
C8 C 0.1759(3) 0.5695(2) 0.11909(14)
C9 C 0.3773(3) 0.4274(2) 0.16038(18)
C10 C 0.2244(3) 0.28857(19) 0.39355(12)
C11 C 0.3342(4) 0.1858(2) 0.3873(2)
C12 C 0.1284(4) 0.2867(3) 0.45732(14)
C13 C -0.2439(2) 0.5193(2) 0.34756(14)
C14 C -0.3480(4) 0.4539(2) 0.39634(19)
C15 C -0.3351(4) 0.6024(2) 0.30439(19)
H1 H 0.3008 0.6297 0.3401
H2 H 0.0028 0.7406 0.3595
H3 H 0.3037 0.8459 0.3428
H4 H 0.1446 0.9174 0.3519
H5 H 0.1150 0.8475 0.4631
H6 H 0.2839 0.9059 0.4564
H7 H 0.2956 0.7219 0.5143
H8 H 0.4028 0.7225 0.4476
H9 H 0.0988 0.6175 0.4565
H10 H 0.2593 0.5468 0.4497
H11 H 0.2702 0.5582 0.2156
H12 H 0.0866 0.6168 0.1335
H13 H 0.1429 0.5148 0.0835
H14 H 0.2578 0.6206 0.1012
H15 H 0.4139 0.3848 0.2005
H16 H 0.4611 0.4775 0.1433
H17 H 0.3469 0.3716 0.1250
H18 H 0.2874 0.3620 0.3931
H19 H 0.3947 0.1929 0.3453
H20 H 0.2738 0.1132 0.3863
H21 H 0.4052 0.1847 0.4263
H22 H 0.0609 0.3556 0.4586
H23 H 0.1976 0.2871 0.4970
H24 H 0.0641 0.2160 0.4581
H25 H -0.1650 0.5644 0.3743
H26 H -0.2848 0.4003 0.4237
H27 H -0.4257 0.4093 0.3706
H28 H -0.4010 0.5095 0.4263
H29 H -0.2641 0.6440 0.2737
H30 H -0.3890 0.6588 0.3336
H31 H -0.4118 0.5589 0.2776
H32 H 0.183(2) 0.755(2) 0.2429(11)
H33 H 0.039(2) 0.6871(17) 0.2468(11)
V1B V -0.03998(4) 0.91090(3) 0.209818(16)
N2B N -0.0851(2) 0.25121(16) 0.23598(9)
H32B H -0.183(2) 0.255(2) 0.2571(11)
H33B H -0.039(2) 0.1871(17) 0.2532(11)
loop_
_geom_bond_atom_site_label_1
_geom_bond_atom_site_label_2
_geom_bond_site_symmetry_1
_geom_bond_site_symmetry_2
V1 O1 1_555 1_555
O1 C7 1_555 1_555
O2 V1 1_555 1_555
O3 V1 1_555 1_555
N1 V1 1_555 1_555
N2 C2 1_555 1_555
C1 N1 1_555 1_555
C2 C1 1_555 1_555
C3 C2 1_555 1_555
C4 C3 1_555 1_555
C5 C4 1_555 1_555
C6 C1 1_555 1_555
C7 C8 1_555 1_555
C8 H12 1_555 1_555
C9 C7 1_555 1_555
C10 O2 1_555 1_555
C11 C10 1_555 1_555
C12 C10 1_555 1_555
C13 O3 1_555 1_555
C14 C13 1_555 1_555
C15 C13 1_555 1_555
H1 C1 1_555 1_555
H2 C2 1_555 1_555
H3 C3 1_555 1_555
H4 C3 1_555 1_555
H5 C4 1_555 1_555
H6 C4 1_555 1_555
H7 C5 1_555 1_555
H8 C5 1_555 1_555
H9 C6 1_555 1_555
H10 C6 1_555 1_555
H11 C7 1_555 1_555
H13 C8 1_555 1_555
H14 C8 1_555 1_555
H15 C9 1_555 1_555
H16 C9 1_555 1_555
H17 C9 1_555 1_555
H18 C10 1_555 1_555
H19 C11 1_555 1_555
H20 C11 1_555 1_555
H21 C11 1_555 1_555
H22 C12 1_555 1_555
H23 C12 1_555 1_555
H24 C12 1_555 1_555
H25 C13 1_555 1_555
H26 C14 1_555 1_555
H27 C14 1_555 1_555
H28 C14 1_555 1_555
H29 C15 1_555 1_555
H30 C15 1_555 1_555
H31 C15 1_555 1_555
H32 N2 1_555 1_555
H33 N2 1_555 1_555
V1B N2 1_555 1_555
N2B V1 1_555 1_555
H32B N2B 1_555 1_555
H33B N2B 1_555 1_555
C5 C6 1_555 1_555

#END
