
#######################################################################
#
#                 Cambridge Crystallographic Data Centre
#                                CCDC 
#
#######################################################################
#
# If this CIF has been generated from an entry in the Cambridge 
# Structural Database, then it will include bibliographic, chemical, 
# crystal, experimental, refinement or atomic coordinate data resulting 
# from the CCDC's data processing and validation procedures.
#
#######################################################################

data_BATNIV
_symmetry_cell_setting           triclinic
_symmetry_space_group_name_H-M   'P -1'
_symmetry_Int_Tables_number      2
_space_group_name_Hall           '-P 1'
loop_
_symmetry_equiv_pos_site_id
_symmetry_equiv_pos_as_xyz
1 x,y,z
2 -x,-y,-z
_cell_length_a                   10.0872(8)
_cell_length_b                   13.2135(10)
_cell_length_c                   15.7796(13)
_cell_angle_alpha                105.4727(19)
_cell_angle_beta                 102.896(3)
_cell_angle_gamma                97.070(2)
_cell_volume                     1938.17
loop_
_atom_site_label
_atom_site_type_symbol
_atom_site_fract_x
_atom_site_fract_y
_atom_site_fract_z
V1 V 0.96329(8) 0.22650(6) 0.81145(5)
V2 V 0.56168(8) 0.75187(6) 0.68509(5)
O1 O 1.1490(3) 0.2786(3) 0.8470(2)
O2 O 0.8857(4) 0.1411(3) 0.6947(2)
O3 O 0.8920(4) 0.1969(3) 0.9003(2)
O4 O 0.6286(4) 0.7869(3) 0.5965(2)
O5 O 0.6403(4) 0.8316(3) 0.8033(2)
O6 O 0.3767(4) 0.6999(3) 0.6512(3)
N1 N 0.9015(4) 0.3359(3) 0.8050(3)
N2 N 0.6222(4) 0.6413(3) 0.6849(3)
N3 N 1.0384(4) 0.0692(3) 0.8142(3)
N4 N 1.4887(5) -0.0889(3) 0.6888(3)
C1 C 0.8433(5) 0.4278(4) 0.7960(3)
C2 C 0.8998(5) 0.4764(4) 0.7300(4)
C3 C 0.8369(5) 0.5731(4) 0.7191(4)
C4 C 0.6782(5) 0.5462(4) 0.6898(4)
C5 C 0.6217(5) 0.4960(4) 0.7543(4)
C6 C 0.6839(5) 0.3993(4) 0.7649(4)
C7 C 1.2243(5) 0.3845(4) 0.8709(4)
C8 C 1.2257(7) 0.4435(5) 0.9678(4)
C9 C 1.3685(6) 0.3789(5) 0.8606(5)
C10 C 0.8085(5) 0.1627(4) 0.6167(3)
C11 C 0.8884(7) 0.1460(6) 0.5453(4)
C12 C 0.6657(6) 0.0935(5) 0.5829(4)
C13 C 0.8014(5) 0.2505(4) 0.9469(3)
C14 C 0.6630(6) 0.1784(5) 0.9162(5)
C15 C 0.8670(7) 0.2783(5) 1.0493(4)
C16 C 0.7189(5) 0.7366(4) 0.5479(3)
C17 C 0.6725(7) 0.7400(5) 0.4504(4)
C18 C 0.8651(6) 0.7946(5) 0.5948(4)
C19 C 0.7178(5) 0.8078(4) 0.8795(3)
C20 C 0.8533(6) 0.8865(5) 0.9210(4)
C21 C 0.6335(6) 0.8072(5) 0.9469(4)
C22 C 0.3036(6) 0.5941(4) 0.6305(4)
C23 C 0.2622(8) 0.5815(5) 0.7125(6)
C24 C 0.1844(8) 0.5709(6) 0.5498(6)
C25 C 1.1744(5) 0.0500(4) 0.7997(3)
C26 C 1.1792(5) 0.0526(4) 0.7047(3)
C27 C 1.3199(5) 0.0354(4) 0.6892(3)
C28 C 1.3539(5) -0.0694(4) 0.7043(3)
C29 C 1.3494(5) -0.0722(4) 0.7996(3)
C30 C 1.2079(5) -0.0546(4) 0.8154(4)
H1 H 0.8712 0.4830 0.8573
H2 H 1.0019 0.4986 0.7533
H3 H 0.8785 0.4215 0.6697
H4 H 0.8706 0.5991 0.6729
H5 H 0.8684 0.6314 0.7778
H6 H 1.016(4) 0.054(4) 0.8663(15)
H7 H 0.957(3) 0.020(3) 0.7719(19)
H8 H 0.6481 0.4930 0.6274
H9 H 1.567(4) -0.035(4) 0.729(2)
H10 H 1.511(4) -0.077(3) 0.6350(16)
H11 H 0.6424 0.5503 0.8149
H12 H 0.5197 0.4738 0.7306
H13 H 0.6539 0.3416 0.7059
H14 H 0.6490 0.3724 0.8103
H15 H 1.1777 0.4217 0.8286
H16 H 1.2700 0.4068 1.0095
H17 H 1.1303 0.4451 0.9717
H18 H 1.2775 0.5170 0.9850
H19 H 1.3630 0.3392 0.7974
H20 H 1.4146 0.3423 0.9018
H21 H 1.4218 0.4516 0.8758
H22 H 0.7989 0.2394 0.6347
H23 H 0.9006 0.0715 0.5279
H24 H 0.9794 0.1938 0.5701
H25 H 0.8369 0.1619 0.4914
H26 H 0.6181 0.1079 0.6313
H27 H 0.6734 0.0179 0.5656
H28 H 0.6128 0.1096 0.5296
H29 H 0.7920 0.3180 0.9307
H30 H 0.6721 0.1118 0.9313
H31 H 0.6265 0.1620 0.8501
H32 H 0.5993 0.2137 0.9471
H33 H 0.9580 0.3251 1.0656
H34 H 0.8781 0.2124 1.0651
H35 H 0.8071 0.3152 1.0828
H36 H 0.7102 0.6604 0.5479
H37 H 0.6810 0.8146 0.4503
H38 H 0.5757 0.7031 0.4232
H39 H 0.7310 0.7044 0.4147
H40 H 0.8894 0.7921 0.6578
H41 H 0.8738 0.8694 0.5949
H42 H 0.9279 0.7604 0.5623
H43 H 0.7383 0.7346 0.8579
H44 H 0.8353 0.9590 0.9412
H45 H 0.9060 0.8824 0.8754
H46 H 0.9069 0.8691 0.9734
H47 H 0.5478 0.7535 0.9176
H48 H 0.6106 0.8780 0.9678
H49 H 0.6872 0.7898 0.9992
H50 H 0.3672 0.5436 0.6155
H51 H 0.2031 0.6326 0.7297
H52 H 0.3453 0.5950 0.7632
H53 H 0.2110 0.5084 0.6987
H54 H 0.2176 0.5795 0.4979
H55 H 0.1219 0.6207 0.5631
H56 H 0.1344 0.4973 0.5350
H57 H 1.2473 0.1102 0.8448
H58 H 1.1627 0.1225 0.6975
H59 H 1.1051 -0.0041 0.6584
H60 H 1.3928 0.0960 0.7317
H61 H 1.3196 0.0339 0.6261
H62 H 1.2805 -0.1293 0.6593
H63 H 1.4238 -0.0156 0.8458
H64 H 1.3658 -0.1423 0.8065
H65 H 1.1348 -0.1153 0.7732
H66 H 1.2085 -0.0526 0.8786
V2_2 V 1.56168(8) -0.24813(6) 0.68509(5)
N4_2 N 0.4887(5) 0.9111(3) 0.6888(3)
H9_2 H 0.567(4) 0.965(4) 0.729(2)
H10_2 H 0.511(4) 0.923(3) 0.6350(16)
loop_
_geom_bond_atom_site_label_1
_geom_bond_atom_site_label_2
_geom_bond_site_symmetry_1
_geom_bond_site_symmetry_2
V1 O1 1_555 1_555
V2 O4 1_555 1_555
O1 C7 1_555 1_555
O2 V1 1_555 1_555
O3 V1 1_555 1_555
O4 C16 1_555 1_555
O5 V2 1_555 1_555
O6 V2 1_555 1_555
N1 V1 1_555 1_555
N2 V2 1_555 1_555
N3 V1 1_555 1_555
N4 C28 1_555 1_555
C1 N1 1_555 1_555
C2 C1 1_555 1_555
C3 C2 1_555 1_555
C4 N2 1_555 1_555
C5 C4 1_555 1_555
C6 C1 1_555 1_555
C7 C8 1_555 1_555
C8 H16 1_555 1_555
C9 C7 1_555 1_555
C10 O2 1_555 1_555
C11 C10 1_555 1_555
C12 C10 1_555 1_555
C13 O3 1_555 1_555
C14 C13 1_555 1_555
C15 C13 1_555 1_555
C16 C17 1_555 1_555
C17 H37 1_555 1_555
C18 C16 1_555 1_555
C19 O5 1_555 1_555
C20 C19 1_555 1_555
C21 C19 1_555 1_555
C22 O6 1_555 1_555
C23 C22 1_555 1_555
C24 C22 1_555 1_555
C25 N3 1_555 1_555
C26 C25 1_555 1_555
C27 C26 1_555 1_555
C28 C27 1_555 1_555
C29 C28 1_555 1_555
C30 C25 1_555 1_555
H1 C1 1_555 1_555
H2 C2 1_555 1_555
H3 C2 1_555 1_555
H4 C3 1_555 1_555
H5 C3 1_555 1_555
H6 N3 1_555 1_555
H7 N3 1_555 1_555
H8 C4 1_555 1_555
H9 N4 1_555 1_555
H10 N4 1_555 1_555
H11 C5 1_555 1_555
H12 C5 1_555 1_555
H13 C6 1_555 1_555
H14 C6 1_555 1_555
H15 C7 1_555 1_555
H17 C8 1_555 1_555
H18 C8 1_555 1_555
H19 C9 1_555 1_555
H20 C9 1_555 1_555
H21 C9 1_555 1_555
H22 C10 1_555 1_555
H23 C11 1_555 1_555
H24 C11 1_555 1_555
H25 C11 1_555 1_555
H26 C12 1_555 1_555
H27 C12 1_555 1_555
H28 C12 1_555 1_555
H29 C13 1_555 1_555
H30 C14 1_555 1_555
H31 C14 1_555 1_555
H32 C14 1_555 1_555
H33 C15 1_555 1_555
H34 C15 1_555 1_555
H35 C15 1_555 1_555
H36 C16 1_555 1_555
H38 C17 1_555 1_555
H39 C17 1_555 1_555
H40 C18 1_555 1_555
H41 C18 1_555 1_555
H42 C18 1_555 1_555
H43 C19 1_555 1_555
H44 C20 1_555 1_555
H45 C20 1_555 1_555
H46 C20 1_555 1_555
H47 C21 1_555 1_555
H48 C21 1_555 1_555
H49 C21 1_555 1_555
H50 C22 1_555 1_555
H51 C23 1_555 1_555
H52 C23 1_555 1_555
H53 C23 1_555 1_555
H54 C24 1_555 1_555
H55 C24 1_555 1_555
H56 C24 1_555 1_555
H57 C25 1_555 1_555
H58 C26 1_555 1_555
H59 C26 1_555 1_555
H60 C27 1_555 1_555
H61 C27 1_555 1_555
H62 C28 1_555 1_555
H63 C29 1_555 1_555
H64 C29 1_555 1_555
H65 C30 1_555 1_555
H66 C30 1_555 1_555
V2_2 N4 1_555 1_555
N4_2 V2 1_555 1_555
H9_2 N4_2 1_555 1_555
H10_2 N4_2 1_555 1_555
C3 C4 1_555 1_555
C5 C6 1_555 1_555
C29 C30 1_555 1_555

#END
