
#######################################################################
#
#                 Cambridge Crystallographic Data Centre
#                                CCDC 
#
#######################################################################
#
# If this CIF has been generated from an entry in the Cambridge 
# Structural Database, then it will include bibliographic, chemical, 
# crystal, experimental, refinement or atomic coordinate data resulting 
# from the CCDC's data processing and validation procedures.
#
#######################################################################

data_BATNER
_symmetry_cell_setting           triclinic
_symmetry_space_group_name_H-M   'P -1'
_symmetry_Int_Tables_number      2
_space_group_name_Hall           '-P 1'
loop_
_symmetry_equiv_pos_site_id
_symmetry_equiv_pos_as_xyz
1 x,y,z
2 -x,-y,-z
_cell_length_a                   9.356(2)
_cell_length_b                   11.905(3)
_cell_length_c                   15.500(3)
_cell_angle_alpha                97.776(4)
_cell_angle_beta                 93.436(5)
_cell_angle_gamma                112.623(4)
_cell_volume                     1567.07
loop_
_atom_site_label
_atom_site_type_symbol
_atom_site_fract_x
_atom_site_fract_y
_atom_site_fract_z
V1 V 0.02768(8) 0.14407(6) 0.03781(5)
O1 O 0.2376(4) 0.2092(3) 0.0565(2)
O2 O -0.0680(4) 0.1170(3) 0.1348(2)
O3 O -0.0616(4) 0.0257(3) -0.06157(19)
N1 N -0.0059(5) 0.2629(4) 0.0130(3)
C1 C -0.0418(8) 0.3696(5) 0.0064(4)
C2 C 0.0500(7) 0.4741(4) 0.0842(4)
C3 C -0.0098(9) 0.4123(5) -0.0785(4)
C4 C 0.3526(6) 0.3149(5) 0.0321(3)
C5 C 0.4334(8) 0.2705(6) -0.0390(4)
C6 C 0.4659(7) 0.3925(5) 0.1119(4)
C7 C -0.1617(6) 0.1684(5) 0.1811(4)
C8 C -0.1983(7) 0.1110(5) 0.2627(4)
C9 C -0.3113(8) 0.1425(7) 0.1235(5)
C10 C -0.1399(6) 0.0229(4) -0.1454(3)
C11 C -0.2827(7) 0.0507(5) -0.1318(4)
C12 C -0.0281(8) 0.1052(5) -0.1994(4)
H1 H -0.1556 0.3454 0.0108
H2 H 0.1634 0.4977 0.0827
H3 H 0.0229 0.4447 0.1402
H4 H -0.0723 0.3445 -0.1270
H5 H 0.1019 0.4344 -0.0852
H6 H 0.3004 0.3651 0.0079
H7 H 0.3562 0.2207 -0.0893
H8 H 0.4836 0.2203 -0.0159
H9 H 0.5125 0.3420 -0.0575
H10 H 0.5170 0.3436 0.1363
H11 H 0.4093 0.4186 0.1562
H12 H 0.5448 0.4655 0.0951
H13 H -0.1027 0.2597 0.1984
H14 H -0.1008 0.1286 0.2996
H15 H -0.2553 0.0214 0.2459
H16 H -0.2624 0.1457 0.2955
H17 H -0.3699 0.0530 0.1069
H18 H -0.2862 0.1790 0.0705
H19 H -0.3747 0.1787 0.1557
H20 H -0.1777 -0.0637 -0.1780
H21 H -0.2508 0.1329 -0.0963
H22 H -0.3537 -0.0113 -0.1015
H23 H -0.3359 0.0483 -0.1888
H24 H 0.0563 0.0772 -0.2092
H25 H 0.0159 0.1906 -0.1680
H26 H -0.0841 0.1010 -0.2561
V1A V -0.02768(8) -0.14407(6) -0.03781(5)
V1A_2 V -0.02768(8) 0.85593(6) -0.03781(5)
O1A O -0.2376(4) -0.2092(3) -0.0565(2)
O2A O 0.0680(4) -0.1170(3) -0.1348(2)
O3A O 0.0616(4) -0.0257(3) 0.06157(19)
N1A N 0.0059(5) -0.2629(4) -0.0130(3)
N1A_2 N 0.0059(5) 0.7371(4) -0.0130(3)
C1A C 0.0418(8) 0.6304(5) -0.0064(4)
C2A C -0.0500(7) 0.5259(4) -0.0842(4)
C3A C 0.0098(9) 0.5877(5) 0.0785(4)
C4A C -0.3526(6) -0.3149(5) -0.0321(3)
C5A C -0.4334(8) -0.2705(6) 0.0390(4)
C6A C -0.4659(7) -0.3925(5) -0.1119(4)
C7A C 0.1617(6) -0.1684(5) -0.1811(4)
C8A C 0.1983(7) -0.1110(5) -0.2627(4)
C9A C 0.3113(8) -0.1425(7) -0.1235(5)
C10A C 0.1399(6) -0.0229(4) 0.1454(3)
C11A C 0.2827(7) -0.0507(5) 0.1318(4)
C12A C 0.0281(8) -0.1052(5) 0.1994(4)
H1A H 0.1556 0.6546 -0.0108
H2A H -0.1634 0.5023 -0.0827
H3A H -0.0229 0.5553 -0.1402
H4A H 0.0723 0.6555 0.1270
H5A H -0.1019 0.5656 0.0852
H6A H -0.3004 -0.3651 -0.0079
H7A H -0.3562 -0.2207 0.0893
H8A H -0.4836 -0.2203 0.0159
H9A H -0.5125 -0.3420 0.0575
H10A H -0.5170 -0.3436 -0.1363
H11A H -0.4093 -0.4186 -0.1562
H12A H -0.5448 -0.4655 -0.0951
H13A H 0.1027 -0.2597 -0.1984
H14A H 0.1008 -0.1286 -0.2996
H15A H 0.2553 -0.0214 -0.2459
H16A H 0.2624 -0.1457 -0.2955
H17A H 0.3699 -0.0530 -0.1069
H18A H 0.2862 -0.1790 -0.0705
H19A H 0.3747 -0.1787 -0.1557
H20A H 0.1777 0.0637 0.1780
H21A H 0.2508 -0.1329 0.0963
H22A H 0.3537 0.0113 0.1015
H23A H 0.3359 -0.0483 0.1888
H24A H -0.0563 -0.0772 0.2092
H25A H -0.0159 -0.1906 0.1680
H26A H 0.0841 -0.1010 0.2561
V2 V 0.37708(8) 0.38346(6) 0.54174(5)
O4 O 0.4395(4) 0.4214(3) 0.43474(19)
O5 O 0.2711(4) 0.4662(3) 0.5943(2)
O6 O 0.5174(4) 0.3639(3) 0.6161(2)
N2 N 0.2418(5) 0.2411(3) 0.5138(3)
C13 C 0.1236(5) 0.1166(4) 0.4856(3)
C14 C -0.0384(5) 0.1092(4) 0.5030(3)
C15 C 0.1617(6) 0.0227(4) 0.5291(4)
C16 C 0.4012(5) 0.3546(4) 0.3477(3)
C17 C 0.4419(7) 0.2410(5) 0.3408(4)
C18 C 0.2320(6) 0.3237(5) 0.3124(4)
C19 C 0.1188(6) 0.4302(5) 0.6182(4)
C20 C 0.0768(9) 0.5415(7) 0.6238(7)
C21 C 0.1161(10) 0.3816(9) 0.7032(5)
C22 C 0.5286(6) 0.2606(5) 0.6480(4)
C23 C 0.6070(9) 0.3037(6) 0.7402(4)
C24 C 0.6165(9) 0.2065(6) 0.5885(5)
H27 H 0.1216 0.0944 0.4209
H28 H -0.0643 0.1678 0.4722
H29 H -0.0390 0.1330 0.5666
H30 H 0.1666 0.0438 0.5936
H31 H 0.2654 0.0263 0.5157
H32 H 0.4684 0.4103 0.3102
H33 H 0.3789 0.1841 0.3772
H34 H 0.5529 0.2669 0.3612
H35 H 0.4201 0.1993 0.2796
H36 H 0.2158 0.4003 0.3126
H37 H 0.1621 0.2732 0.3497
H38 H 0.2094 0.2778 0.2524
H39 H 0.0448 0.3629 0.5716
H40 H 0.0808 0.5683 0.5666
H41 H 0.1511 0.6088 0.6680
H42 H -0.0288 0.5195 0.6404
H43 H 0.1906 0.4465 0.7488
H44 H 0.1450 0.3104 0.6952
H45 H 0.0110 0.3564 0.7210
H46 H 0.4211 0.1966 0.6477
H47 H 0.5454 0.3374 0.7761
H48 H 0.7114 0.3680 0.7411
H49 H 0.6157 0.2340 0.7638
H50 H 0.7216 0.2690 0.5879
H51 H 0.5611 0.1803 0.5289
H52 H 0.6240 0.1350 0.6101
V2A V 0.62292(8) 0.61654(6) 0.45826(5)
V2A_2 V -0.37708(8) -0.38346(6) 0.45826(5)
O4A O 0.5605(4) 0.5786(3) 0.56526(19)
O5A O 0.7289(4) 0.5338(3) 0.4057(2)
O6A O 0.4826(4) 0.6361(3) 0.3839(2)
N2A N 0.7582(5) 0.7589(3) 0.4862(3)
N2A_2 N -0.2418(5) -0.2411(3) 0.4862(3)
C13A C -0.1236(5) -0.1166(4) 0.5144(3)
C14A C 0.0384(5) -0.1092(4) 0.4970(3)
C15A C -0.1617(6) -0.0227(4) 0.4709(4)
C16A C 0.5988(5) 0.6454(4) 0.6523(3)
C17A C 0.5581(7) 0.7590(5) 0.6592(4)
C18A C 0.7680(6) 0.6763(5) 0.6876(4)
C19A C 0.8812(6) 0.5698(5) 0.3818(4)
C20A C 0.9232(9) 0.4585(7) 0.3762(7)
C21A C 0.8839(10) 0.6184(9) 0.2968(5)
C22A C 0.4714(6) 0.7394(5) 0.3520(4)
C23A C 0.3930(9) 0.6963(6) 0.2598(4)
C24A C 0.3835(9) 0.7935(6) 0.4115(5)
H27A H -0.1216 -0.0944 0.5791
H28A H 0.0643 -0.1678 0.5278
H29A H 0.0390 -0.1330 0.4334
H30A H -0.1666 -0.0438 0.4064
H31A H -0.2654 -0.0263 0.4843
H32A H 0.5316 0.5897 0.6898
H33A H 0.6211 0.8159 0.6228
H34A H 0.4471 0.7331 0.6388
H35A H 0.5799 0.8007 0.7204
H36A H 0.7842 0.5997 0.6874
H37A H 0.8379 0.7268 0.6503
H38A H 0.7906 0.7222 0.7476
H39A H 0.9552 0.6371 0.4284
H40A H 0.9192 0.4317 0.4334
H41A H 0.8489 0.3912 0.3320
H42A H 1.0288 0.4805 0.3596
H43A H 0.8094 0.5535 0.2512
H44A H 0.8550 0.6896 0.3048
H45A H 0.9890 0.6436 0.2790
H46A H 0.5789 0.8034 0.3523
H47A H 0.4546 0.6626 0.2239
H48A H 0.2886 0.6320 0.2589
H49A H 0.3843 0.7660 0.2362
H50A H 0.2784 0.7310 0.4121
H51A H 0.4389 0.8197 0.4711
H52A H 0.3760 0.8650 0.3899
loop_
_geom_bond_atom_site_label_1
_geom_bond_atom_site_label_2
_geom_bond_site_symmetry_1
_geom_bond_site_symmetry_2
V1 O1 1_555 1_555
V2 O4 1_555 1_555
O1 C4 1_555 1_555
O2 V1 1_555 1_555
O3 V1 1_555 1_555
O4 C16 1_555 1_555
O5 V2 1_555 1_555
O6 V2 1_555 1_555
N1 V1 1_555 1_555
N2 V2 1_555 1_555
C1 N1 1_555 1_555
C2 C1 1_555 1_555
C3 C1 1_555 1_555
C4 C5 1_555 1_555
C5 H7 1_555 1_555
C6 C4 1_555 1_555
C7 O2 1_555 1_555
C8 C7 1_555 1_555
C9 C7 1_555 1_555
C10 O3 1_555 1_555
C11 C10 1_555 1_555
C12 C10 1_555 1_555
C13 N2 1_555 1_555
C14 C13 1_555 1_555
C15 C13 1_555 1_555
C16 C17 1_555 1_555
C17 H33 1_555 1_555
C18 C16 1_555 1_555
C19 O5 1_555 1_555
C20 C19 1_555 1_555
C21 C19 1_555 1_555
C22 O6 1_555 1_555
C23 C22 1_555 1_555
C24 C22 1_555 1_555
H1 C1 1_555 1_555
H2 C2 1_555 1_555
H3 C2 1_555 1_555
H4 C3 1_555 1_555
H5 C3 1_555 1_555
H6 C4 1_555 1_555
H8 C5 1_555 1_555
H9 C5 1_555 1_555
H10 C6 1_555 1_555
H11 C6 1_555 1_555
H12 C6 1_555 1_555
H13 C7 1_555 1_555
H14 C8 1_555 1_555
H15 C8 1_555 1_555
H16 C8 1_555 1_555
H17 C9 1_555 1_555
H18 C9 1_555 1_555
H19 C9 1_555 1_555
H20 C10 1_555 1_555
H21 C11 1_555 1_555
H22 C11 1_555 1_555
H23 C11 1_555 1_555
H24 C12 1_555 1_555
H25 C12 1_555 1_555
H26 C12 1_555 1_555
H27 C13 1_555 1_555
H28 C14 1_555 1_555
H29 C14 1_555 1_555
H30 C15 1_555 1_555
H31 C15 1_555 1_555
H32 C16 1_555 1_555
H34 C17 1_555 1_555
H35 C17 1_555 1_555
H36 C18 1_555 1_555
H37 C18 1_555 1_555
H38 C18 1_555 1_555
H39 C19 1_555 1_555
H40 C20 1_555 1_555
H41 C20 1_555 1_555
H42 C20 1_555 1_555
H43 C21 1_555 1_555
H44 C21 1_555 1_555
H45 C21 1_555 1_555
H46 C22 1_555 1_555
H47 C23 1_555 1_555
H48 C23 1_555 1_555
H49 C23 1_555 1_555
H50 C24 1_555 1_555
H51 C24 1_555 1_555
H52 C24 1_555 1_555
V1A O3 1_555 1_555
V1A_2 N1A_2 1_555 1_555
V2A O4 1_555 1_555
V2A_2 N2A_2 1_555 1_555
O1A V1A 1_555 1_555
O2A V1A 1_555 1_555
O3A V1 1_555 1_555
O4A V2 1_555 1_555
O5A V2A 1_555 1_555
O6A V2A 1_555 1_555
N1A V1A 1_555 1_555
N1A_2 C1A 1_555 1_555
N2A V2A 1_555 1_555
N2A_2 C13A 1_555 1_555
C1A C2A 1_555 1_555
C2A C3 1_555 1_555
C3A C2 1_555 1_555
C4A O1A 1_555 1_555
C5A C4A 1_555 1_555
C6A C4A 1_555 1_555
C7A O2A 1_555 1_555
C8A C7A 1_555 1_555
C9A C7A 1_555 1_555
C10A O3A 1_555 1_555
C11A C10A 1_555 1_555
C12A C10A 1_555 1_555
C13A C14A 1_555 1_555
C14A C15 1_555 1_555
C15A C14 1_555 1_555
C16A O4A 1_555 1_555
C17A C16A 1_555 1_555
C18A C16A 1_555 1_555
C19A O5A 1_555 1_555
C20A C19A 1_555 1_555
C21A C19A 1_555 1_555
C22A O6A 1_555 1_555
C23A C22A 1_555 1_555
C24A C22A 1_555 1_555
H1A C1A 1_555 1_555
H2A C2A 1_555 1_555
H3A C2A 1_555 1_555
H4A C3A 1_555 1_555
H5A C3A 1_555 1_555
H6A C4A 1_555 1_555
H7A C5A 1_555 1_555
H8A C5A 1_555 1_555
H9A C5A 1_555 1_555
H10A C6A 1_555 1_555
H11A C6A 1_555 1_555
H12A C6A 1_555 1_555
H13A C7A 1_555 1_555
H14A C8A 1_555 1_555
H15A C8A 1_555 1_555
H16A C8A 1_555 1_555
H17A C9A 1_555 1_555
H18A C9A 1_555 1_555
H19A C9A 1_555 1_555
H20A C10A 1_555 1_555
H21A C11A 1_555 1_555
H22A C11A 1_555 1_555
H23A C11A 1_555 1_555
H24A C12A 1_555 1_555
H25A C12A 1_555 1_555
H26A C12A 1_555 1_555
H27A C13A 1_555 1_555
H28A C14A 1_555 1_555
H29A C14A 1_555 1_555
H30A C15A 1_555 1_555
H31A C15A 1_555 1_555
H32A C16A 1_555 1_555
H33A C17A 1_555 1_555
H34A C17A 1_555 1_555
H35A C17A 1_555 1_555
H36A C18A 1_555 1_555
H37A C18A 1_555 1_555
H38A C18A 1_555 1_555
H39A C19A 1_555 1_555
H40A C20A 1_555 1_555
H41A C20A 1_555 1_555
H42A C20A 1_555 1_555
H43A C21A 1_555 1_555
H44A C21A 1_555 1_555
H45A C21A 1_555 1_555
H46A C22A 1_555 1_555
H47A C23A 1_555 1_555
H48A C23A 1_555 1_555
H49A C23A 1_555 1_555
H50A C24A 1_555 1_555
H51A C24A 1_555 1_555
H52A C24A 1_555 1_555
V1A O3A 1_555 1_555
V2A O4A 1_555 1_555
C1A C3A 1_555 1_555
C13A C15A 1_555 1_555

#END
