
#######################################################################
#
#                 Cambridge Crystallographic Data Centre
#                                CCDC 
#
#######################################################################
#
# If this CIF has been generated from an entry in the Cambridge 
# Structural Database, then it will include bibliographic, chemical, 
# crystal, experimental, refinement or atomic coordinate data resulting 
# from the CCDC's data processing and validation procedures.
#
#######################################################################

data_BAVDUZ
_symmetry_cell_setting           orthorhombic
_symmetry_space_group_name_H-M   'P b c a'
_symmetry_Int_Tables_number      61
_space_group_name_Hall           '-P 2ac 2ab'
loop_
_symmetry_equiv_pos_site_id
_symmetry_equiv_pos_as_xyz
1 x,y,z
2 1/2-x,-y,1/2+z
3 1/2+x,1/2-y,-z
4 -x,1/2+y,1/2-z
5 -x,-y,-z
6 1/2+x,y,1/2-z
7 1/2-x,1/2+y,z
8 x,1/2-y,1/2+z
_cell_length_a                   18.363(3)
_cell_length_b                   17.628(2)
_cell_length_c                   19.958(3)
_cell_angle_alpha                90
_cell_angle_beta                 90
_cell_angle_gamma                90
_cell_volume                     6460.46
loop_
_atom_site_label
_atom_site_type_symbol
_atom_site_fract_x
_atom_site_fract_y
_atom_site_fract_z
Cu1 Cu 0.560324(14) 0.100636(17) 0.032357(15)
O1 O 0.55909(8) -0.32386(10) -0.29842(9)
O2 O 0.59161(9) -0.02585(10) 0.02431(8)
O3 O 0.52932(11) -0.28654(11) -0.43147(10)
O4 O 0.67578(9) -0.13453(11) -0.10597(8)
O5 O 0.45429(9) -0.38730(11) -0.43794(9)
O6 O 0.54239(8) -0.09762(10) -0.05788(9)
C1 C 0.58324(16) 0.01249(17) -0.33961(15)
H1 H 0.5906 0.0655 -0.3450
C2 C 0.66209(14) -0.01771(17) -0.17043(14)
H2 H 0.6822 0.0111 -0.1347
N1 N 0.59173(10) 0.08856(11) 0.12783(10)
N2 N 0.66476(11) 0.13390(12) 0.02346(10)
C3 C 0.63348(12) -0.31670(14) -0.30517(12)
C4 C 0.70466(12) 0.12591(15) 0.07965(13)
C5 C 0.74660(13) -0.34166(15) -0.36097(13)
H3 H 0.7727 -0.3637 -0.3972
C6 C 0.67305(13) -0.35283(14) -0.35627(13)
H4 H 0.6489 -0.3849 -0.3874
C7 C 0.56258(12) -0.14276(15) -0.32558(12)
H5 H 0.5547 -0.1958 -0.3217
C8 C 0.69730(13) 0.07090(17) 0.19613(14)
H6 H 0.7487 0.0735 0.2012
C9 C 0.57943(13) 0.04143(15) 0.23900(13)
H7 H 0.5486 0.0246 0.2742
C10 C 0.60023(12) -0.10404(14) -0.27374(12)
C11 C 0.53737(14) -0.10541(16) -0.38114(13)
H8 H 0.5122 -0.1328 -0.4150
C12 C 0.51956(13) -0.37453(15) -0.34035(13)
H9 H 0.4738 -0.3886 -0.3172
H10 H 0.5486 -0.4214 -0.3460
C13 C 0.78462(13) -0.22981(15) -0.20670(13)
H11 H 0.7593 -0.2088 -0.1696
C14 C 0.66466(12) 0.09406(14) 0.13724(12)
C15 C 0.62636(11) -0.14145(14) -0.21472(12)
C16 C 0.66678(12) -0.27059(13) -0.25811(11)
C17 C 0.65389(12) -0.09718(15) -0.16351(12)
C18 C 0.60888(13) -0.02398(15) -0.28063(13)
C19 C 0.89706(13) -0.25234(15) -0.26515(16)
H12 H 0.9484 -0.2462 -0.2676
C20 C 0.65410(14) 0.04401(17) 0.24745(14)
H13 H 0.6755 0.0274 0.2882
C21 C 0.78435(12) -0.29811(14) -0.31314(13)
C22 C 0.74463(12) -0.26535(13) -0.25899(12)
C23 C 0.59466(12) -0.06910(14) -0.02448(12)
C24 C 0.76817(16) 0.1879(2) -0.03093(16)
H14 H 0.7890 0.2093 -0.0702
C25 C 0.64147(13) 0.01751(16) -0.22760(15)
H15 H 0.6489 0.0706 -0.2323
C26 C 0.55063(12) 0.06390(14) 0.17823(12)
H16 H 0.4994 0.0617 0.1722
C27 C 0.86097(13) -0.28720(15) -0.31613(15)
H17 H 0.8873 -0.3045 -0.3542
C28 C 0.85895(13) -0.22537(16) -0.20893(15)
H18 H 0.8849 -0.2040 -0.1723
C29 C 0.54845(15) -0.02709(17) -0.38843(15)
H19 H 0.5316 -0.0018 -0.4275
C30 C 0.50066(12) -0.34398(15) -0.40915(13)
C31 C 0.67142(13) -0.09464(16) -0.04399(13)
H20 H 0.7032 -0.0493 -0.0466
H21 H 0.6907 -0.1277 -0.0080
C32 C 0.80867(16) 0.1802(2) 0.02612(16)
H22 H 0.8580 0.1964 0.0270
C33 C 0.77726(14) 0.14889(18) 0.08245(15)
H23 H 0.8046 0.1430 0.1225
C34 C 0.69607(15) 0.16390(19) -0.03080(15)
H24 H 0.6681 0.1690 -0.0706
C35 C 0.62186(12) -0.22714(14) -0.20703(12)
H25 H 0.6386 -0.2411 -0.1615
H26 H 0.5703 -0.2429 -0.2112
Cu1C Cu 0.439676(14) -0.399364(17) -0.532357(15)
Cu1D Cu 0.439676(14) -0.100636(17) -0.032357(15)
O5C O 0.54571(9) 0.11270(11) -0.06206(9)
O6D O 0.45761(8) 0.09762(10) 0.05788(9)
O7 O 0.4951(3) 0.2634(2) 0.06106(16)
H27 H 0.4561(13) 0.250(3) 0.0405(18)
H28 H 0.5316(15) 0.276(3) 0.0322(18)
O8 O 0.4275(6) 0.3863(6) 0.1270(7)
O9 O 0.8390(8) 0.9990(8) 0.9275(9)
loop_
_geom_bond_atom_site_label_1
_geom_bond_atom_site_label_2
_geom_bond_site_symmetry_1
_geom_bond_site_symmetry_2
Cu1 O2 1_555 1_555
O1 C3 1_555 1_555
O2 C23 1_555 1_555
O3 C30 1_555 1_555
O4 C17 1_555 1_555
O5 C30 1_555 1_555
O6 C23 1_555 1_555
C1 H1 1_555 1_555
C2 H2 1_555 1_555
N1 Cu1 1_555 1_555
N2 Cu1 1_555 1_555
C3 C6 1_555 1_555
C4 N2 1_555 1_555
C5 H3 1_555 1_555
C6 C5 1_555 1_555
H4 C6 1_555 1_555
C7 H5 1_555 1_555
C8 H6 1_555 1_555
C9 H7 1_555 1_555
C10 C7 1_555 1_555
C11 C7 1_555 1_555
H8 C11 1_555 1_555
C12 O1 1_555 1_555
H9 C12 1_555 1_555
H10 C12 1_555 1_555
C13 H11 1_555 1_555
C14 N1 1_555 1_555
C15 C10 1_555 1_555
C16 C3 1_555 1_555
C17 C2 1_555 1_555
C18 C1 1_555 1_555
C19 H12 1_555 1_555
C20 C8 1_555 1_555
H13 C20 1_555 1_555
C21 C5 1_555 1_555
C22 C13 1_555 1_555
C23 C31 1_555 1_555
C24 H14 1_555 1_555
C25 C2 1_555 1_555
H15 C25 1_555 1_555
C26 N1 1_555 1_555
H16 C26 1_555 1_555
C27 C19 1_555 1_555
H17 C27 1_555 1_555
C28 C13 1_555 1_555
H18 C28 1_555 1_555
C29 C1 1_555 1_555
H19 C29 1_555 1_555
C30 C12 1_555 1_555
C31 O4 1_555 1_555
H20 C31 1_555 1_555
H21 C31 1_555 1_555
C32 C24 1_555 1_555
H22 C32 1_555 1_555
C33 C4 1_555 1_555
H23 C33 1_555 1_555
C34 N2 1_555 1_555
H24 C34 1_555 1_555
C35 C15 1_555 1_555
H25 C35 1_555 1_555
H26 C35 1_555 1_555
O7 H27 1_555 1_555
H28 O7 1_555 1_555
Cu1C O5 1_555 1_555
Cu1D O6 1_555 1_555
O5C Cu1 1_555 1_555
O6D Cu1 1_555 1_555
C4 C14 1_555 1_555
C8 C14 1_555 1_555
C9 C20 1_555 1_555
C9 C26 1_555 1_555
C10 C18 1_555 1_555
C11 C29 1_555 1_555
C15 C17 1_555 1_555
C16 C22 1_555 1_555
C16 C35 1_555 1_555
C18 C25 1_555 1_555
C19 C28 1_555 1_555
C21 C22 1_555 1_555
C21 C27 1_555 1_555
C24 C34 1_555 1_555
C32 C33 1_555 1_555

#END
