
#######################################################################
#
#                 Cambridge Crystallographic Data Centre
#                                CCDC 
#
#######################################################################
#
# If this CIF has been generated from an entry in the Cambridge 
# Structural Database, then it will include bibliographic, chemical, 
# crystal, experimental, refinement or atomic coordinate data resulting 
# from the CCDC's data processing and validation procedures.
#
#######################################################################

data_BAVDOT
_symmetry_cell_setting           orthorhombic
_symmetry_space_group_name_H-M   'P b c a'
_symmetry_Int_Tables_number      61
_space_group_name_Hall           '-P 2ac 2ab'
loop_
_symmetry_equiv_pos_site_id
_symmetry_equiv_pos_as_xyz
1 x,y,z
2 1/2-x,-y,1/2+z
3 1/2+x,1/2-y,-z
4 -x,1/2+y,1/2-z
5 -x,-y,-z
6 1/2+x,y,1/2-z
7 1/2-x,1/2+y,z
8 x,1/2-y,1/2+z
_cell_length_a                   19.401(5)
_cell_length_b                   18.667(5)
_cell_length_c                   19.423(5)
_cell_angle_alpha                90
_cell_angle_beta                 90
_cell_angle_gamma                90
_cell_volume                     7034.2
loop_
_atom_site_label
_atom_site_type_symbol
_atom_site_fract_x
_atom_site_fract_y
_atom_site_fract_z
Cu1 Cu 0.545794(16) 0.197156(16) 0.654500(17)
O1 O 0.10141(10) 0.42868(10) 0.86130(11)
O2 O 0.44653(10) 0.20276(10) 0.65695(11)
O3 O 0.29179(10) 0.29823(10) 0.68664(11)
O4 O -0.01466(13) 0.31339(12) 0.94965(12)
O5 O 0.43017(11) 0.29657(11) 0.72592(12)
O6 O 0.06489(10) 0.29359(10) 0.86475(11)
O7 O 0.57489(13) 0.21131(11) 0.77224(11)
N1 N 0.63680(11) 0.16710(11) 0.61178(12)
N2 N 0.53911(12) 0.09544(12) 0.67065(13)
N3 N 0.58965(17) 0.28364(16) 0.86711(16)
C1 C 0.20418(13) 0.36724(14) 0.77764(15)
H2 H 0.2080 0.3150 0.7695
H3 H 0.1567 0.3816 0.7651
C2 C 0.28364(16) 0.37755(15) 0.96783(15)
C3 C 0.21392(14) 0.38114(13) 0.85687(14)
C4 C 0.29846(13) 0.36867(14) 0.68465(14)
C5 C 0.59836(15) -0.01212(15) 0.66222(15)
H4 H 0.6364 -0.0393 0.6459
C6 C 0.54703(16) -0.04414(15) 0.70089(16)
H5 H 0.5505 -0.0936 0.7121
C7 C 0.25383(13) 0.40504(14) 0.72872(13)
C8 C 0.20897(15) 0.52133(14) 0.76438(15)
H6 H 0.1724 0.4995 0.7892
C9 C 0.59331(14) 0.05786(14) 0.64827(14)
C10 C 0.16173(14) 0.41140(14) 0.89645(15)
C11 C 0.25668(14) 0.47885(14) 0.72691(14)
C12 C 0.64686(14) 0.09824(14) 0.61039(14)
C13 C 0.31615(16) 0.58468(16) 0.69058(16)
H7 H 0.3525 0.6079 0.6666
C14 C 0.38651(17) 0.30367(16) 0.89665(18)
H8 H 0.4221 0.2780 0.8739
C15 C 0.17039(17) 0.42885(16) 0.96904(16)
H9 H 0.1339 0.4521 0.9928
C16 C 0.41167(14) 0.25352(14) 0.68187(15)
C17 C 0.30935(14) 0.51237(15) 0.68640(15)
C18 C 0.33995(14) 0.25589(15) 0.64873(16)
H10 H 0.3441 0.2756 0.6016
H11 H 0.3220 0.2064 0.6449
C19 C 0.22978(18) 0.41255(17) 1.00396(16)
H12 H 0.2347 0.4244 1.0513
C20 C 0.74291(16) 0.18283(17) 0.54958(17)
H13 H 0.7756 0.2149 0.5302
C21 C 0.03948(15) 0.40964(15) 0.89724(17)
H14 H 0.0404 0.4323 0.9433
H15 H -0.0004 0.4296 0.8719
C22 C 0.34715(15) 0.40209(16) 0.64082(15)
H16 H 0.3747 0.3744 0.6103
C23 C 0.27126(17) 0.62407(16) 0.72885(17)
H17 H 0.2773 0.6745 0.7317
C24 C 0.35344(15) 0.47200(17) 0.64325(16)
H18 H 0.3874 0.4954 0.6162
C25 C 0.02904(14) 0.33204(14) 0.90584(15)
C26 C 0.21622(17) 0.59195(15) 0.76425(17)
H19 H 0.1840 0.6210 0.7882
C27 C 0.48868(16) 0.06418(16) 0.70680(16)
H20 H 0.4503 0.0920 0.7210
C28 C 0.27562(14) 0.36147(13) 0.89367(15)
C29 C 0.68399(15) 0.20830(15) 0.58231(16)
H21 H 0.6771 0.2587 0.5836
C30 C 0.49100(17) -0.00541(16) 0.72344(17)
H22 H 0.4554 -0.0272 0.7498
C31 C 0.34451(19) 0.35704(17) 1.00410(17)
H23 H 0.3499 0.3686 1.0514
C32 C 0.70389(15) 0.06945(15) 0.57715(16)
H24 H 0.7096 0.0189 0.5759
C33 C 0.32912(15) 0.32362(15) 0.85962(16)
H25 H 0.3254 0.3122 0.8121
C34 C 0.39459(18) 0.32072(18) 0.96995(19)
H26 H 0.4351 0.3063 0.9937
C35 C 0.75215(16) 0.11227(17) 0.54618(17)
H27 H 0.7908 0.0923 0.5231
C36 C 0.57271(16) 0.26839(17) 0.80079(18)
H28 H 0.5573 0.3076 0.7737
C38 C 0.5909(3) 0.3535(2) 0.8941(3)
H32 H 0.6047 0.3517 0.9427
H33 H 0.5449 0.3748 0.8904
H34 H 0.6240 0.3825 0.8682
C39 C 0.6123(4) 0.2305(3) 0.9149(2)
H35 H 0.6321 0.1899 0.8898
H36 H 0.5730 0.2140 0.9424
H37 H 0.6472 0.2511 0.9455
Cu1E Cu 0.045794(16) 0.197156(16) 0.845500(17)
O6E O 0.56489(10) 0.29359(10) 0.63525(11)
O8 O 0.42463(16) 0.08830(17) 0.96661(15)
H1 H 0.4345 0.1249 0.9898
C37 C 0.4451(3) 0.0989(2) 0.8966(2)
H29 H 0.4313 0.1469 0.8816
H30 H 0.4227 0.0630 0.8674
H31 H 0.4952 0.0940 0.8928
loop_
_geom_bond_atom_site_label_1
_geom_bond_atom_site_label_2
_geom_bond_site_symmetry_1
_geom_bond_site_symmetry_2
Cu1 O2 1_555 1_555
O1 C10 1_555 1_555
O2 C16 1_555 1_555
O3 C4 1_555 1_555
O4 C25 1_555 1_555
O5 C16 1_555 1_555
O6 C25 1_555 1_555
O7 Cu1 1_555 1_555
N1 Cu1 1_555 1_555
N2 Cu1 1_555 1_555
O8 H1 1_555 1_555
N3 C36 1_555 1_555
C1 H2 1_555 1_555
H3 C1 1_555 1_555
C2 C19 1_555 1_555
C3 C1 1_555 1_555
C4 C7 1_555 1_555
C5 H4 1_555 1_555
C6 C5 1_555 1_555
H5 C6 1_555 1_555
C7 C1 1_555 1_555
C8 H6 1_555 1_555
C9 N2 1_555 1_555
C10 C3 1_555 1_555
C11 C7 1_555 1_555
C12 N1 1_555 1_555
C13 H7 1_555 1_555
C14 H8 1_555 1_555
C15 C10 1_555 1_555
H9 C15 1_555 1_555
C16 C18 1_555 1_555
C17 C11 1_555 1_555
C18 O3 1_555 1_555
H10 C18 1_555 1_555
H11 C18 1_555 1_555
C19 C15 1_555 1_555
H12 C19 1_555 1_555
C20 H13 1_555 1_555
C21 O1 1_555 1_555
H14 C21 1_555 1_555
H15 C21 1_555 1_555
C22 C4 1_555 1_555
H16 C22 1_555 1_555
C23 C13 1_555 1_555
H17 C23 1_555 1_555
C24 C17 1_555 1_555
H18 C24 1_555 1_555
C25 C21 1_555 1_555
C26 C8 1_555 1_555
H19 C26 1_555 1_555
C27 N2 1_555 1_555
H20 C27 1_555 1_555
C28 C2 1_555 1_555
C29 N1 1_555 1_555
H21 C29 1_555 1_555
C30 C6 1_555 1_555
H22 C30 1_555 1_555
C31 C2 1_555 1_555
H23 C31 1_555 1_555
C32 C12 1_555 1_555
H24 C32 1_555 1_555
C33 C14 1_555 1_555
H25 C33 1_555 1_555
C34 C14 1_555 1_555
H26 C34 1_555 1_555
C35 C20 1_555 1_555
H27 C35 1_555 1_555
C36 O7 1_555 1_555
H28 C36 1_555 1_555
C37 O8 1_555 1_555
H29 C37 1_555 1_555
H30 C37 1_555 1_555
H31 C37 1_555 1_555
C38 N3 1_555 1_555
H32 C38 1_555 1_555
H33 C38 1_555 1_555
H34 C38 1_555 1_555
C39 N3 1_555 1_555
H35 C39 1_555 1_555
H36 C39 1_555 1_555
H37 C39 1_555 1_555
Cu1E O6 1_555 1_555
O6E Cu1 1_555 1_555
C3 C28 1_555 1_555
C5 C9 1_555 1_555
C8 C11 1_555 1_555
C9 C12 1_555 1_555
C13 C17 1_555 1_555
C20 C29 1_555 1_555
C22 C24 1_555 1_555
C23 C26 1_555 1_555
C27 C30 1_555 1_555
C28 C33 1_555 1_555
C31 C34 1_555 1_555
C32 C35 1_555 1_555

#END
