
#######################################################################
#
#                 Cambridge Crystallographic Data Centre
#                                CCDC 
#
#######################################################################
#
# If this CIF has been generated from an entry in the Cambridge 
# Structural Database, then it will include bibliographic, chemical, 
# crystal, experimental, refinement or atomic coordinate data resulting 
# from the CCDC's data processing and validation procedures.
#
#######################################################################

data_BAVDEH
_symmetry_cell_setting           monoclinic
_symmetry_space_group_name_H-M   'P 21/n'
_symmetry_Int_Tables_number      14
_space_group_name_Hall           '-P 2yn'
loop_
_symmetry_equiv_pos_site_id
_symmetry_equiv_pos_as_xyz
1 x,y,z
2 1/2-x,1/2+y,1/2-z
3 -x,-y,-z
4 1/2+x,1/2-y,1/2+z
_cell_length_a                   8.8540(10)
_cell_length_b                   15.904(2)
_cell_length_c                   15.740(2)
_cell_angle_alpha                90
_cell_angle_beta                 99.160(10)
_cell_angle_gamma                90
_cell_volume                     2188.15
loop_
_atom_site_label
_atom_site_type_symbol
_atom_site_fract_x
_atom_site_fract_y
_atom_site_fract_z
O1 O 0.5937(2) 0.75462(12) -0.36683(11)
O2 O 0.7855(2) 0.78715(13) -0.20520(11)
O3 O 0.5595(3) 0.41757(12) -0.48969(13)
O4 O 0.4511(2) 0.91530(12) -0.50876(14)
C1 C 0.2138(3) 0.1218(2) -0.3282(2)
C2 C 0.0634(4) 0.0819(2) -0.3338(2)
H1 H -0.0231(4) 0.1105(2) -0.3601(2)
C3 C 0.0477(5) 0.0029(2) -0.3009(2)
H2 H -0.0485(5) -0.0220(2) -0.3073(2)
C4 C 0.1760(5) -0.0409(2) -0.2577(2)
H3 H 0.1645(5) -0.0944(2) -0.2357(2)
C5 C 0.3234(5) -0.0027(2) -0.2479(2)
H4 H 0.4074(5) -0.0304(2) -0.2174(2)
C6 C 0.3423(4) 0.0759(2) -0.2836(2)
H5 H 0.4397(4) 0.0991(2) -0.2785(2)
C7 C 0.0891(3) 0.2517(2) -0.4489(2)
C8 C 0.0571(3) 0.3370(2) -0.4667(2)
H6 H 0.1109(3) 0.3777(2) -0.4317(2)
C9 C -0.0544(3) 0.3628(2) -0.5361(2)
H7 H -0.0698(3) 0.4200(2) -0.5466(2)
C10 C -0.1420(3) 0.3048(2) -0.5895(2)
H8 H -0.2166(3) 0.3225(2) -0.6344(2)
C11 C -0.1144(3) 0.2204(2) -0.5733(2)
H9 H -0.1710(3) 0.1805(2) -0.6081(2)
C12 C -0.0014(3) 0.1937(2) -0.5048(2)
H10 H 0.0146(3) 0.1364(2) -0.4958(2)
C13 C 0.7471(3) 0.7162(2) -0.3419(2)
H11 H 0.7362(3) 0.6625(2) -0.3143(2)
H12 H 0.7919(3) 0.7059(2) -0.3933(2)
C14 C 0.8540(3) 0.7720(2) -0.2811(2)
H13 H 0.8701(3) 0.8248(2) -0.3091(2)
H14 H 0.9523(3) 0.7445(2) -0.2654(2)
C15 C 0.6331(3) 0.8265(2) -0.2292(2)
H15 H 0.5885(3) 0.8359(2) -0.1775(2)
H16 H 0.6450(3) 0.8807(2) -0.2555(2)
C16 C 0.5247(3) 0.7722(2) -0.2915(2)
H17 H 0.4284(3) 0.8015(2) -0.3082(2)
H18 H 0.5041(3) 0.7200(2) -0.2637(2)
C17 C 0.5473(4) 0.4601(2) -0.5704(2)
H19 H 0.5299(4) 0.4196(2) -0.6170(2)
H20 H 0.6418(4) 0.4897(2) -0.5740(2)
C18 C 0.5857(4) 0.4773(2) -0.4211(2)
H21 H 0.6807(4) 0.5070(2) -0.4230(2)
H22 H 0.5944(4) 0.4483(2) -0.3662(2)
C19 C 0.3433(3) 0.9800(2) -0.4933(2)
H23 H 0.2412(3) 0.9647(2) -0.5209(2)
H24 H 0.3426(3) 0.9854(2) -0.4320(2)
C20 C 0.6111(4) 0.9384(2) -0.4712(2)
H25 H 0.6194(4) 0.9427(2) -0.4092(2)
H26 H 0.6802(4) 0.8945(2) -0.4839(2)
P1 P 0.25214(8) 0.22747(5) -0.36315(4)
K1 K 0.57686(7) 0.25098(3) -0.46310(4)
C18B C 0.4143(4) 0.5227(2) -0.5789(2)
O3B O 0.4405(3) 0.58243(12) -0.51031(13)
C17B C 0.4527(4) 0.5399(2) -0.4296(2)
H19B H 0.4701(4) 0.5804(2) -0.3830(2)
H20B H 0.3582(4) 0.5103(2) -0.4260(2)
H21B H 0.3193(4) 0.4930(2) -0.5770(2)
H22B H 0.4056(4) 0.5517(2) -0.6338(2)
O2A O 0.7145(2) 0.28715(13) -0.29480(11)
C10_2 C 0.8580(3) 0.3048(2) -0.5895(2)
H8_2 H 0.7834(3) 0.3225(2) -0.6344(2)
C11_2 C 0.8856(3) 0.2204(2) -0.5733(2)
H9_2 H 0.8290(3) 0.1805(2) -0.6081(2)
K1B K 0.42314(7) 0.74902(3) -0.53690(4)
K1_2 K -0.42314(7) 0.25098(3) -0.46310(4)
O1B O 0.4063(2) 0.24538(12) -0.63317(11)
O1C O 0.0937(2) 0.74538(12) -0.86683(11)
O2C O 0.2855(2) 0.71285(13) -0.70520(11)
C13C C 0.2471(3) 0.7838(2) -0.8419(2)
H11C H 0.2362(3) 0.8375(2) -0.8143(2)
H12C H 0.2919(3) 0.7941(2) -0.8933(2)
C14C C 0.3540(3) 0.7280(2) -0.7811(2)
H13C H 0.3701(3) 0.6752(2) -0.8091(2)
H14C H 0.4523(3) 0.7555(2) -0.7654(2)
C15C C 0.1331(3) 0.6735(2) -0.7292(2)
H15C H 0.0885(3) 0.6641(2) -0.6775(2)
H16C H 0.1450(3) 0.6193(2) -0.7555(2)
C16C C 0.0247(3) 0.7278(2) -0.7915(2)
H17C H -0.0716(3) 0.6985(2) -0.8082(2)
H18C H 0.0041(3) 0.7800(2) -0.7637(2)
O4B O 0.5489(2) 0.08470(12) -0.49124(14)
C20B C 0.3889(4) 1.0616(2) -0.5288(2)
O4B_2 O 0.5489(2) 1.08470(12) -0.49124(14)
C19B C 0.6567(3) 1.0200(2) -0.5067(2)
H23B H 0.7588(3) 1.0353(2) -0.4791(2)
H24B H 0.6574(3) 1.0146(2) -0.5680(2)
H25B H 0.3806(4) 1.0573(2) -0.5908(2)
H26B H 0.3198(4) 1.1055(2) -0.5161(2)
C10B C 0.1420(3) 0.6952(2) -0.4105(2)
H8B H 0.2166(3) 0.6775(2) -0.3656(2)
C11B C 0.1144(3) 0.7796(2) -0.4267(2)
H9B H 0.1710(3) 0.8195(2) -0.3919(2)
C1B C 0.7862(3) 0.8782(2) -0.6718(2)
C2B C 0.9366(4) 0.9181(2) -0.6662(2)
H1B H 1.0231(4) 0.8895(2) -0.6399(2)
C3B C 0.9523(5) 0.9971(2) -0.6991(2)
H2B H 1.0485(5) 1.0220(2) -0.6927(2)
C4B C 0.8240(5) 1.0409(2) -0.7423(2)
H3B H 0.8355(5) 1.0944(2) -0.7643(2)
C5B C 0.6766(5) 1.0027(2) -0.7521(2)
H4B H 0.5926(5) 1.0304(2) -0.7826(2)
C6B C 0.6577(4) 0.9241(2) -0.7164(2)
H5B H 0.5603(4) 0.9009(2) -0.7215(2)
C7B C 0.9109(3) 0.7483(2) -0.5511(2)
C8B C 0.9429(3) 0.6630(2) -0.5333(2)
H6B H 0.8891(3) 0.6223(2) -0.5683(2)
C9B C 1.0544(3) 0.6372(2) -0.4639(2)
H7B H 1.0698(3) 0.5800(2) -0.4534(2)
C10B_2 C 1.1420(3) 0.6952(2) -0.4105(2)
H8B_2 H 1.2166(3) 0.6775(2) -0.3656(2)
C11B_2 C 1.1144(3) 0.7796(2) -0.4267(2)
H9B_2 H 1.1710(3) 0.8195(2) -0.3919(2)
C12B C 1.0014(3) 0.8063(2) -0.4952(2)
H10B H 0.9854(3) 0.8636(2) -0.5042(2)
P1B P 0.74786(8) 0.77253(5) -0.63685(4)
K1A K -0.07686(7) 0.75098(3) -1.03690(4)
K1A_2 K 0.92314(7) 0.75098(3) -0.03690(4)
K1_3 K 0.57686(7) 1.25098(3) -0.46310(4)
K1B_2 K 1.42314(7) 0.74902(3) -0.53690(4)
loop_
_geom_bond_atom_site_label_1
_geom_bond_atom_site_label_2
_geom_bond_site_symmetry_1
_geom_bond_site_symmetry_2
O1 C13 1_555 1_555
O2 C14 1_555 1_555
O3 C17 1_555 1_555
O4 C19 1_555 1_555
C1 C2 1_555 1_555
C2 H1 1_555 1_555
C3 C2 1_555 1_555
H2 C3 1_555 1_555
C4 C3 1_555 1_555
H3 C4 1_555 1_555
C5 C4 1_555 1_555
H4 C5 1_555 1_555
C6 C1 1_555 1_555
H5 C6 1_555 1_555
C7 C8 1_555 1_555
C8 H6 1_555 1_555
C9 C8 1_555 1_555
H7 C9 1_555 1_555
C10 C9 1_555 1_555
H8 C10 1_555 1_555
C11 C10 1_555 1_555
H9 C11 1_555 1_555
C12 C7 1_555 1_555
H10 C12 1_555 1_555
C13 H11 1_555 1_555
H12 C13 1_555 1_555
C14 C13 1_555 1_555
H13 C14 1_555 1_555
H14 C14 1_555 1_555
C15 O2 1_555 1_555
H15 C15 1_555 1_555
H16 C15 1_555 1_555
C16 O1 1_555 1_555
H17 C16 1_555 1_555
H18 C16 1_555 1_555
C17 H19 1_555 1_555
H20 C17 1_555 1_555
C18 O3 1_555 1_555
H21 C18 1_555 1_555
H22 C18 1_555 1_555
C19 H23 1_555 1_555
H24 C19 1_555 1_555
C20 O4 1_555 1_555
H25 C20 1_555 1_555
H26 C20 1_555 1_555
P1 C1 1_555 1_555
K1 O3 1_555 1_555
C18B C17 1_555 1_555
O3B C18B 1_555 1_555
C17B C18 1_555 1_555
H19B C17B 1_555 1_555
H20B C17B 1_555 1_555
H21B C18B 1_555 1_555
H22B C18B 1_555 1_555
O2A K1 1_555 1_555
C10_2 K1 1_555 1_555
H8_2 C10_2 1_555 1_555
C11_2 K1 1_555 1_555
H9_2 C11_2 1_555 1_555
K1B O1 1_555 1_555
K1_2 C10 1_555 1_555
O1B K1 1_555 1_555
O1C C13C 1_555 1_555
O2C K1B 1_555 1_555
C13C H11C 1_555 1_555
H12C C13C 1_555 1_555
C14C O2C 1_555 1_555
H13C C14C 1_555 1_555
H14C C14C 1_555 1_555
C15C O2C 1_555 1_555
H15C C15C 1_555 1_555
H16C C15C 1_555 1_555
C16C O1C 1_555 1_555
H17C C16C 1_555 1_555
H18C C16C 1_555 1_555
O4B K1 1_555 1_555
C20B C19 1_555 1_555
O4B_2 C20B 1_555 1_555
C19B C20 1_555 1_555
H23B C19B 1_555 1_555
H24B C19B 1_555 1_555
H25B C20B 1_555 1_555
H26B C20B 1_555 1_555
C10B K1B 1_555 1_555
H8B C10B 1_555 1_555
C11B K1B 1_555 1_555
H9B C11B 1_555 1_555
C1B C2B 1_555 1_555
C2B H1B 1_555 1_555
C3B C2B 1_555 1_555
H2B C3B 1_555 1_555
C4B C3B 1_555 1_555
H3B C4B 1_555 1_555
C5B C4B 1_555 1_555
H4B C5B 1_555 1_555
C6B C1B 1_555 1_555
H5B C6B 1_555 1_555
C7B C8B 1_555 1_555
C8B H6B 1_555 1_555
C9B C8B 1_555 1_555
H7B C9B 1_555 1_555
C10B_2 C9B 1_555 1_555
H8B_2 C10B_2 1_555 1_555
C11B_2 C10B_2 1_555 1_555
H9B_2 C11B_2 1_555 1_555
C12B C7B 1_555 1_555
H10B C12B 1_555 1_555
P1B K1B 1_555 1_555
K1A O1C 1_555 1_555
K1A_2 O2 1_555 1_555
K1_3 O4B_2 1_555 1_555
K1B_2 C10B_2 1_555 1_555
O4 K1B 1_555 1_555
C5 C6 1_555 1_555
C7 P1 1_555 1_555
C11 C12 1_555 1_555
C11 K1_2 1_555 1_555
C15 C16 1_555 1_555
P1 K1 1_555 1_555
O3B C17B 1_555 1_555
O3B K1B 1_555 1_555
C10_2 C11_2 1_555 1_555
C13C C14C 1_555 1_555
C15C C16C 1_555 1_555
O4B_2 C19B 1_555 1_555
C10B C11B 1_555 1_555
C1B P1B 1_555 1_555
C5B C6B 1_555 1_555
C7B P1B 1_555 1_555
C11B_2 C12B 1_555 1_555
C11B_2 K1B_2 1_555 1_555

#END
