
#######################################################################
#
#                 Cambridge Crystallographic Data Centre
#                                CCDC 
#
#######################################################################
#
# If this CIF has been generated from an entry in the Cambridge 
# Structural Database, then it will include bibliographic, chemical, 
# crystal, experimental, refinement or atomic coordinate data resulting 
# from the CCDC's data processing and validation procedures.
#
#######################################################################

data_BAVKUG
_symmetry_cell_setting           monoclinic
_symmetry_space_group_name_H-M   'P 21/n'
_symmetry_Int_Tables_number      14
_space_group_name_Hall           '-P 2yn'
loop_
_symmetry_equiv_pos_site_id
_symmetry_equiv_pos_as_xyz
1 x,y,z
2 1/2-x,1/2+y,1/2-z
3 -x,-y,-z
4 1/2+x,1/2-y,1/2+z
_cell_length_a                   14.473(2)
_cell_length_b                   22.512(3)
_cell_length_c                   16.595(3)
_cell_angle_alpha                90
_cell_angle_beta                 101.605(4)
_cell_angle_gamma                90
_cell_volume                     5296.39
loop_
_atom_site_label
_atom_site_type_symbol
_atom_site_fract_x
_atom_site_fract_y
_atom_site_fract_z
Dy1 Dy 0.810665(18) 0.169033(12) 0.664638(15)
O1 O 0.7546(3) 0.0752(2) 0.6925(3)
H1 H 0.7119 0.0683 0.7197
H2 H 0.7959 0.0480 0.7034
O2 O 0.9420(3) 0.22951(19) 0.6754(3)
H3 H 0.9368 0.2658 0.6878
H4 H 0.9972 0.2177 0.6970
O3 O 0.6458(3) 0.17590(19) 0.6533(3)
H5 H 0.6205 0.2100 0.6452
H6 H 0.6115 0.1510 0.6224
O4 O 0.9261(3) 0.1091(2) 0.6211(3)
H7 H 0.9243 0.0937 0.5741
H8 H 0.9152 0.0818 0.6535
O12 O 0.7502(3) 0.13494(18) 0.5318(2)
O13 O 0.7704(3) 0.25435(16) 0.5818(2)
O14 O 0.5803(3) 0.29852(18) 0.6417(2)
O15 O 0.4419(3) 0.19081(19) 0.6199(2)
O16 O 0.5489(3) 0.08120(17) 0.5589(2)
O17 O 0.3970(3) 0.15452(19) 0.2018(2)
O18 O 0.6015(3) 0.1924(2) 0.1728(2)
O19 O 0.6097(3) 0.32468(17) 0.2335(2)
O20 O 0.4156(3) 0.36514(17) 0.2858(2)
O21 O 0.2834(3) 0.26550(18) 0.2677(2)
N1 N 0.6995(3) 0.0913(2) 0.4047(3)
N2 N 0.8041(3) 0.1652(2) 0.4173(3)
N3 N 0.8217(3) 0.2675(2) 0.4578(3)
N4 N 0.7376(3) 0.3377(2) 0.5015(3)
N5 N 0.5921(3) 0.3672(2) 0.5417(3)
N6 N 0.4492(3) 0.3411(2) 0.5574(3)
N7 N 0.3404(3) 0.2586(2) 0.5439(3)
N8 N 0.3329(4) 0.1646(2) 0.5033(3)
N9 N 0.4147(4) 0.0811(2) 0.4583(3)
N10 N 0.5480(4) 0.0544(2) 0.4247(3)
N11 N 0.4880(4) 0.0847(2) 0.2810(3)
N12 N 0.3542(4) 0.1124(2) 0.3151(3)
N13 N 0.2705(3) 0.1943(2) 0.3615(3)
N14 N 0.2750(3) 0.2886(2) 0.3999(3)
N15 N 0.3822(3) 0.3706(2) 0.4157(3)
N16 N 0.5250(3) 0.39490(19) 0.3980(3)
N17 N 0.6695(3) 0.3664(2) 0.3596(3)
N18 N 0.7485(3) 0.2925(2) 0.3153(3)
N19 N 0.7396(4) 0.1903(2) 0.2713(3)
N20 N 0.6405(3) 0.1133(2) 0.2580(3)
C1 C 0.7517(4) 0.1311(3) 0.4571(4)
C2 C 0.8668(4) 0.2107(3) 0.4560(4)
H23 H 0.9187 0.2148 0.4265
H24 H 0.8939 0.1986 0.5125
C3 C 0.7748(4) 0.2836(3) 0.5191(3)
C4 C 0.6934(4) 0.3718(2) 0.5588(3)
H25 H 0.7180 0.3578 0.6149
H26 H 0.7110 0.4137 0.5562
C5 C 0.5444(4) 0.3316(2) 0.5858(3)
C6 C 0.3770(4) 0.3100(3) 0.5895(3)
H27 H 0.4031 0.2982 0.6463
H28 H 0.3248 0.3376 0.5907
C7 C 0.3780(4) 0.2025(3) 0.5603(4)
C8 C 0.3496(5) 0.1015(3) 0.5096(4)
H29 H 0.2893 0.0806 0.4931
H30 H 0.3756 0.0913 0.5671
C9 C 0.5077(5) 0.0736(2) 0.4869(4)
C10 C 0.6496(5) 0.0442(3) 0.4334(4)
H31 H 0.6769 0.0373 0.4916
H32 H 0.6590 0.0080 0.4032
C11 C 0.4788(5) 0.0450(2) 0.3488(3)
H33 H 0.4770 0.0028 0.3315
C12 C 0.3846(5) 0.0641(3) 0.3702(3)
H34 H 0.3381 0.0313 0.3627
C13 C 0.2554(4) 0.1914(3) 0.4456(3)
H35 H 0.1939 0.1732 0.4487
C14 C 0.2616(4) 0.2573(3) 0.4733(3)
H36 H 0.2024 0.2700 0.4895
C15 C 0.4303(4) 0.3887(2) 0.4990(3)
H37 H 0.3979 0.4224 0.5199
C16 C 0.5302(4) 0.4062(2) 0.4859(3)
H38 H 0.5442 0.4485 0.4997
C17 C 0.7543(4) 0.3610(3) 0.4243(3)
H39 H 0.7906 0.3985 0.4323
C18 C 0.8099(4) 0.3111(3) 0.3929(4)
H40 H 0.8716 0.3255 0.3837
C19 C 0.7916(4) 0.1477(3) 0.3302(3)
H41 H 0.8520 0.1359 0.3156
C20 C 0.7215(5) 0.0940(2) 0.3246(3)
H42 H 0.7503 0.0566 0.3102
C21 C 0.6555(4) 0.1673(3) 0.2301(3)
C22 C 0.5603(4) 0.0779(3) 0.2313(3)
H43 H 0.5797 0.0361 0.2326
H44 H 0.5327 0.0880 0.1741
C23 C 0.4126(4) 0.1213(3) 0.2607(3)
C24 C 0.2645(4) 0.1436(3) 0.3080(4)
H45 H 0.2430 0.1566 0.2510
H46 H 0.2173 0.1159 0.3211
C25 C 0.2852(4) 0.3506(2) 0.3942(4)
H47 H 0.2489 0.3700 0.4307
H48 H 0.2584 0.3631 0.3378
C26 C 0.5975(4) 0.4110(2) 0.3563(3)
H49 H 0.6270 0.4478 0.3804
H50 H 0.5693 0.4191 0.2986
C27 C 0.4397(4) 0.3754(2) 0.3606(3)
C28 C 0.2772(4) 0.2511(2) 0.3367(3)
C29 C 0.6700(4) 0.3271(2) 0.2970(3)
C30 C 0.7716(4) 0.2494(3) 0.2580(4)
H51 H 0.7432 0.2618 0.2019
H52 H 0.8402 0.2486 0.2628
Dy1C Dy 0.310665(18) 0.330967(12) 0.164638(15)
O20C O 0.9156(3) 0.13486(17) 0.7858(2)
O21C O 0.7834(3) 0.23450(18) 0.7677(2)
O5 O 0.7028(5) -0.0610(2) 0.2604(5)
H9 H 0.7223 -0.0995 0.2856
H10 H 0.7369 -0.0268 0.2885
O6 O 0.1357(4) 0.4606(3) 0.2871(5)
H11 H 0.1978 0.4689 0.3215
H12 H 0.0826 0.4825 0.3011
O7 O 0.1055(6) 0.1985(6) 0.5554(4)
H13 H 0.1651 0.1927 0.5949
H14 H 0.0527 0.2168 0.5750
Cl1 Cl 0.9149(8) 0.0456(5) 0.4744(7)
O8 O 0.0600(4) 0.3077(5) 0.3692(5)
H15 H 0.1207 0.3142 0.4067
H16 H 0.0038 0.3237 0.3859
O9 O 0.5240(6) 0.2994(5) 0.7988(4)
H17 H 0.5758 0.2787 0.8351
H18 H 0.4957 0.3337 0.8210
O10 O 0.4528(6) 0.1167(4) 0.7541(6)
H19 H 0.4873 0.0853 0.7885
H20 H 0.4409 0.1541 0.7805
O11 O 1.0084(12) 0.6403(8) 0.4786(7)
H21 H 1.0704 0.6272 0.5086
H22 H 0.9869 0.6791 0.4940
N21 N 0.9076(6) -0.0224(3) 0.8144(4)
O22 O 0.8779(8) -0.0175(4) 0.7390(6)
O23 O 0.9830(6) -0.0415(4) 0.8415(6)
O24 O 0.8632(6) -0.0020(3) 0.8646(5)
N22 N 0.7736(4) 0.5592(4) 0.4070(4)
O25 O 0.7070(5) 0.5585(4) 0.3461(4)
O26 O 0.7670(7) 0.5309(4) 0.4697(4)
O27 O 0.8403(6) 0.5938(5) 0.4072(12)
Cl2? Cl 0.8554(7) -0.0042(5) 0.5345(9)
loop_
_geom_bond_atom_site_label_1
_geom_bond_atom_site_label_2
_geom_bond_site_symmetry_1
_geom_bond_site_symmetry_2
Dy1 O1 1_555 1_555
O1 H1 1_555 1_555
H2 O1 1_555 1_555
O2 Dy1 1_555 1_555
H3 O2 1_555 1_555
H4 O2 1_555 1_555
O3 Dy1 1_555 1_555
H5 O3 1_555 1_555
H6 O3 1_555 1_555
O4 Dy1 1_555 1_555
H7 O4 1_555 1_555
H8 O4 1_555 1_555
O5 H9 1_555 1_555
H10 O5 1_555 1_555
O6 H11 1_555 1_555
H12 O6 1_555 1_555
O7 H13 1_555 1_555
H14 O7 1_555 1_555
O8 H15 1_555 1_555
H16 O8 1_555 1_555
O9 H17 1_555 1_555
H18 O9 1_555 1_555
O10 H19 1_555 1_555
H20 O10 1_555 1_555
O11 H21 1_555 1_555
H22 O11 1_555 1_555
O12 Dy1 1_555 1_555
O13 Dy1 1_555 1_555
O14 C5 1_555 1_555
O15 C7 1_555 1_555
O16 C9 1_555 1_555
O17 C23 1_555 1_555
O18 C21 1_555 1_555
O19 C29 1_555 1_555
O20 C27 1_555 1_555
O21 C28 1_555 1_555
N1 C1 1_555 1_555
N2 C1 1_555 1_555
N3 C2 1_555 1_555
N4 C3 1_555 1_555
N5 C4 1_555 1_555
N6 C5 1_555 1_555
N7 C6 1_555 1_555
N8 C7 1_555 1_555
N9 C8 1_555 1_555
N10 C9 1_555 1_555
N11 C11 1_555 1_555
N12 C12 1_555 1_555
N13 C13 1_555 1_555
N14 C14 1_555 1_555
N15 C15 1_555 1_555
N16 C16 1_555 1_555
N17 C17 1_555 1_555
N18 C18 1_555 1_555
N19 C19 1_555 1_555
N20 C20 1_555 1_555
N21 O22 1_555 1_555
N22 O25 1_555 1_555
O23 N21 1_555 1_555
O24 N21 1_555 1_555
O26 N22 1_555 1_555
O27 N22 1_555 1_555
C1 O12 1_555 1_555
C2 N2 1_555 1_555
H23 C2 1_555 1_555
H24 C2 1_555 1_555
C3 O13 1_555 1_555
C4 N4 1_555 1_555
H25 C4 1_555 1_555
H26 C4 1_555 1_555
C5 N5 1_555 1_555
C6 N6 1_555 1_555
H27 C6 1_555 1_555
H28 C6 1_555 1_555
C7 N7 1_555 1_555
C8 N8 1_555 1_555
H29 C8 1_555 1_555
H30 C8 1_555 1_555
C9 N9 1_555 1_555
C10 N1 1_555 1_555
H31 C10 1_555 1_555
H32 C10 1_555 1_555
C11 N10 1_555 1_555
H33 C11 1_555 1_555
C12 N9 1_555 1_555
H34 C12 1_555 1_555
C13 N8 1_555 1_555
H35 C13 1_555 1_555
C14 N7 1_555 1_555
H36 C14 1_555 1_555
C15 N6 1_555 1_555
H37 C15 1_555 1_555
C16 N5 1_555 1_555
H38 C16 1_555 1_555
C17 N4 1_555 1_555
H39 C17 1_555 1_555
C18 N3 1_555 1_555
H40 C18 1_555 1_555
C19 N2 1_555 1_555
H41 C19 1_555 1_555
C20 N1 1_555 1_555
H42 C20 1_555 1_555
C21 N19 1_555 1_555
C22 N11 1_555 1_555
H43 C22 1_555 1_555
H44 C22 1_555 1_555
C23 N11 1_555 1_555
C24 N12 1_555 1_555
H45 C24 1_555 1_555
H46 C24 1_555 1_555
C25 N14 1_555 1_555
H47 C25 1_555 1_555
H48 C25 1_555 1_555
C26 N16 1_555 1_555
H49 C26 1_555 1_555
H50 C26 1_555 1_555
C27 N15 1_555 1_555
C28 N13 1_555 1_555
C29 N17 1_555 1_555
C30 N18 1_555 1_555
H51 C30 1_555 1_555
H52 C30 1_555 1_555
Dy1C O20 1_555 1_555
O20C Dy1 1_555 1_555
O21C Dy1 1_555 1_555
O21 Dy1C 1_555 1_555
N3 C3 1_555 1_555
N10 C10 1_555 1_555
N12 C23 1_555 1_555
N13 C24 1_555 1_555
N14 C28 1_555 1_555
N15 C25 1_555 1_555
N16 C27 1_555 1_555
N17 C26 1_555 1_555
N18 C29 1_555 1_555
N19 C30 1_555 1_555
N20 C21 1_555 1_555
N20 C22 1_555 1_555
C11 C12 1_555 1_555
C13 C14 1_555 1_555
C15 C16 1_555 1_555
C17 C18 1_555 1_555
C19 C20 1_555 1_555

#END
