
#######################################################################
#
#                 Cambridge Crystallographic Data Centre
#                                CCDC 
#
#######################################################################
#
# If this CIF has been generated from an entry in the Cambridge 
# Structural Database, then it will include bibliographic, chemical, 
# crystal, experimental, refinement or atomic coordinate data resulting 
# from the CCDC's data processing and validation procedures.
#
#######################################################################

data_BAVMES
_symmetry_cell_setting           orthorhombic
_symmetry_space_group_name_H-M   'C c c a'
_symmetry_Int_Tables_number      68
_space_group_name_Hall           '-C 2b 2bc'
loop_
_symmetry_equiv_pos_site_id
_symmetry_equiv_pos_as_xyz
1 x,y,z
2 1/2-x,-y,z
3 -x,y,1/2-z
4 1/2+x,-y,1/2-z
5 1/2+x,1/2+y,z
6 -x,1/2-y,z
7 1/2-x,1/2+y,1/2-z
8 x,1/2-y,1/2-z
9 -x,-y,-z
10 1/2+x,y,-z
11 x,-y,1/2+z
12 1/2-x,y,1/2+z
13 1/2-x,1/2-y,-z
14 x,1/2+y,-z
15 1/2+x,1/2-y,1/2+z
16 -x,1/2+y,1/2+z
_cell_length_a                   23.533(4)
_cell_length_b                   29.906(4)
_cell_length_c                   15.980(2)
_cell_angle_alpha                90
_cell_angle_beta                 90
_cell_angle_gamma                90
_cell_volume                     11246.4
loop_
_atom_site_label
_atom_site_type_symbol
_atom_site_fract_x
_atom_site_fract_y
_atom_site_fract_z
Ag1 Ag -0.5000 0.44785(3) -0.2500
Ag2 Ag -0.25463(3) 0.2500 0.2500
C1 C -0.3764(3) 0.4250(3) -0.3083(6)
H1 H -0.3683 0.4475 -0.2699
C2 C -0.3342(3) 0.4109(2) -0.3611(5)
H2 H -0.2983 0.4237 -0.3575
C3 C -0.3445(3) 0.3780(2) -0.4193(5)
C4 C -0.3981(3) 0.3599(2) -0.4189(5)
H3 H -0.4072 0.3371 -0.4562
C5 C -0.4383(3) 0.3751(2) -0.3636(5)
H4 H -0.4742 0.3620 -0.3638
C6 C -0.3003(3) 0.3629(2) -0.4796(4)
C7 C -0.2603(4) 0.3925(3) -0.5125(5)
H5 H -0.2621 0.4226 -0.4979
C8 C -0.2183(4) 0.3783(3) -0.5657(5)
H6 H -0.1919 0.3987 -0.5861
C9 C -0.2151(3) 0.3339(2) -0.5892(4)
C10 C -0.2556(3) 0.3045(2) -0.5575(4)
H7 H -0.2543 0.2746 -0.5733
C11 C -0.2966(3) 0.3181(2) -0.5046(4)
H8 H -0.3228 0.2975 -0.4844
C12 C -0.1700(3) 0.3195(3) -0.6450(5)
H9 H -0.1364 0.3359 -0.6448
C13 C -0.1240(3) 0.2745(3) -0.7436(5)
H10 H -0.0892 0.2836 -0.7156
H11 H -0.1257 0.2896 -0.7973
C14 C -0.3028(3) 0.3489(3) 0.2176(5)
H12 H -0.2786 0.3550 0.2622
C15 C -0.3286(3) 0.3843(2) 0.1792(4)
H13 H -0.3221 0.4133 0.1983
C16 C -0.3646(2) 0.3770(2) 0.1118(4)
C17 C -0.3732(3) 0.3325(2) 0.0907(4)
H14 H -0.3976 0.3254 0.0469
C18 C -0.3463(3) 0.2987(2) 0.1336(4)
H15 H -0.3541 0.2693 0.1185
C19 C -0.3886(3) 0.4135(2) 0.0620(4)
C20 C -0.3648(3) 0.4560(2) 0.0639(4)
H16 H -0.3362 0.4623 0.1023
C21 C -0.3828(3) 0.4887(2) 0.0101(4)
H17 H -0.3657 0.5167 0.0125
C22 C -0.4247(3) 0.4816(2) -0.0467(4)
C23 C -0.4513(3) 0.4406(2) -0.0444(5)
H18 H -0.4819 0.4355 -0.0799
C24 C -0.4343(3) 0.4071(2) 0.0080(5)
H19 H -0.4534 0.3799 0.0077
C25 C -0.4400(4) 0.5162(2) -0.1068(5)
H20 H -0.4285 0.5453 -0.0948
C26 C -0.4752(5) 0.5490(3) -0.2329(7)
H21 H -0.4699 0.5769 -0.2028
H22 H -0.4465 0.5474 -0.2763
N1 N -0.4277(3) 0.40816(18) -0.3097(4)
N2 N -0.1732(2) 0.2870(2) -0.6928(4)
N3 N -0.3097(2) 0.30608(18) 0.1957(3)
N4 N -0.4672(3) 0.51034(17) -0.1731(4)
Ag1E Ag -0.5000 0.05215(3) -1.2500
Ag2_2 Ag -0.25463(3) 0.2500 -0.7500
Ag2B Ag -0.74537(3) 0.2500 -0.7500
C1G C -0.3764(3) 0.0750(3) -1.1917(6)
H1G H -0.3683 0.0525 -1.2301
C2G C -0.3342(3) 0.0891(2) -1.1389(5)
H2G H -0.2983 0.0763 -1.1425
C3G C -0.3445(3) 0.1220(2) -1.0807(5)
C4G C -0.3981(3) 0.1401(2) -1.0811(5)
H3G H -0.4072 0.1629 -1.0438
C5G C -0.4383(3) 0.1249(2) -1.1364(5)
H4G H -0.4742 0.1380 -1.1362
C6G C -0.3003(3) 0.1371(2) -1.0204(4)
C7G C -0.2603(4) 0.1075(3) -0.9875(5)
H5G H -0.2621 0.0774 -1.0021
C8G C -0.2183(4) 0.1217(3) -0.9343(5)
H6G H -0.1919 0.1013 -0.9139
C9G C -0.2151(3) 0.1661(2) -0.9108(4)
C10G C -0.2556(3) 0.1955(2) -0.9425(4)
H7G H -0.2543 0.2254 -0.9267
C11G C -0.2966(3) 0.1819(2) -0.9954(4)
H8G H -0.3228 0.2025 -1.0156
C12G C -0.1700(3) 0.1805(3) -0.8550(5)
H9G H -0.1364 0.1641 -0.8552
C13G C -0.1240(3) 0.2255(3) -0.7564(5)
H10G H -0.0892 0.2164 -0.7844
H11G H -0.1257 0.2104 -0.7027
C14B C -0.6972(3) 0.3489(3) -0.7176(5)
H12B H -0.7214 0.3550 -0.7622
C15B C -0.6714(3) 0.3843(2) -0.6792(4)
H13B H -0.6779 0.4133 -0.6983
C16B C -0.6354(2) 0.3770(2) -0.6118(4)
C17B C -0.6268(3) 0.3325(2) -0.5907(4)
H14B H -0.6024 0.3254 -0.5469
C18B C -0.6537(3) 0.2987(2) -0.6336(4)
H15B H -0.6459 0.2693 -0.6185
C19B C -0.6114(3) 0.4135(2) -0.5620(4)
C20B C -0.6352(3) 0.4560(2) -0.5639(4)
H16B H -0.6638 0.4623 -0.6023
C21B C -0.6172(3) 0.4887(2) -0.5101(4)
H17B H -0.6343 0.5167 -0.5125
C22B C -0.5753(3) 0.4816(2) -0.4533(4)
C23B C -0.5487(3) 0.4406(2) -0.4556(5)
H18B H -0.5181 0.4355 -0.4201
C24B C -0.5657(3) 0.4071(2) -0.5080(5)
H19B H -0.5466 0.3799 -0.5077
C25B C -0.5600(4) 0.5162(2) -0.3932(5)
H20B H -0.5715 0.5453 -0.4052
C26B C -0.5248(5) 0.5490(3) -0.2671(7)
H21B H -0.5301 0.5769 -0.2972
H22B H -0.5535 0.5474 -0.2237
N1G N -0.4277(3) 0.09184(18) -1.1903(4)
N1B N -0.5723(3) 0.40816(18) -0.1903(4)
N2G N -0.1732(2) 0.2130(2) -0.8072(4)
N2_2 N -0.1732(2) 0.2870(2) 0.3072(4)
N2G_2 N -0.1732(2) 0.2130(2) 0.1928(4)
N3B N -0.6903(2) 0.30608(18) -0.6957(3)
N3G N -0.3097(2) 0.19392(18) 0.3043(3)
N4B N -0.5328(3) 0.51034(17) -0.3269(4)
F1 F -0.2500 0.5000 -0.1010(5)
F2 F -0.2356(2) 0.55154(14) -0.2019(3)
F3 F -0.3148(2) 0.5109(2) -0.2019(5)
F4 F -0.2500 0.5000 -0.2986(4)
P1 P -0.2500 0.5000 -0.19945(17)
F2A F -0.2644(2) 0.44846(14) -0.2019(3)
F3A F -0.1852(2) 0.4891(2) -0.2019(5)
F5 F 0.0000 0.2500 -0.4485(8)
F6 F -0.0091(3) 0.2999(2) -0.5319(8)
F7 F -0.0661(2) 0.24437(17) -0.5408(6)
F8 F 0.0000 0.2500 -0.6309(7)
P2 P 0.0000 0.2500 -0.5405(2)
F6E F 0.0091(3) 0.2001(2) -0.5319(8)
F7E F 0.0661(2) 0.25563(17) -0.5408(6)
C28 C -0.4684(12) 0.6752(11) -0.2130(19)
O2 O -0.4195(5) 0.6635(4) -0.1550(8)
C27? C -0.4369(9) 0.6817(10) -0.194(2)
O1? O -0.4973(9) 0.6797(6) -0.2226(12)
loop_
_geom_bond_atom_site_label_1
_geom_bond_atom_site_label_2
_geom_bond_site_symmetry_1
_geom_bond_site_symmetry_2
Ag1 N1 1_555 1_555
Ag2 N3 1_555 1_555
C1 H1 1_555 1_555
C2 C1 1_555 1_555
H2 C2 1_555 1_555
C3 C2 1_555 1_555
C4 C3 1_555 1_555
H3 C4 1_555 1_555
C5 C4 1_555 1_555
H4 C5 1_555 1_555
C6 C3 1_555 1_555
C7 C6 1_555 1_555
H5 C7 1_555 1_555
C8 C7 1_555 1_555
H6 C8 1_555 1_555
C9 C8 1_555 1_555
C10 C9 1_555 1_555
H7 C10 1_555 1_555
C11 C6 1_555 1_555
H8 C11 1_555 1_555
C12 C9 1_555 1_555
H9 C12 1_555 1_555
C13 H10 1_555 1_555
H11 C13 1_555 1_555
C14 H12 1_555 1_555
C15 C14 1_555 1_555
H13 C15 1_555 1_555
C16 C15 1_555 1_555
C17 C16 1_555 1_555
H14 C17 1_555 1_555
C18 C17 1_555 1_555
H15 C18 1_555 1_555
C19 C16 1_555 1_555
C20 C19 1_555 1_555
H16 C20 1_555 1_555
C21 C20 1_555 1_555
H17 C21 1_555 1_555
C22 C21 1_555 1_555
C23 C22 1_555 1_555
H18 C23 1_555 1_555
C24 C19 1_555 1_555
H19 C24 1_555 1_555
C25 C22 1_555 1_555
H20 C25 1_555 1_555
C26 H21 1_555 1_555
H22 C26 1_555 1_555
F1 P1 1_555 1_555
F2 P1 1_555 1_555
F3 P1 1_555 1_555
F4 P1 1_555 1_555
F5 P2 1_555 1_555
F6 P2 1_555 1_555
F7 P2 1_555 1_555
F8 P2 1_555 1_555
N1 C1 1_555 1_555
N2 C12 1_555 1_555
N3 C14 1_555 1_555
N4 Ag1 1_555 1_555
P1 F2A 1_555 1_555
P2 F6E 1_555 1_555
C28 O2 1_555 1_555
Ag1E N1G 1_555 1_555
Ag2_2 N2 1_555 1_555
Ag2B N3B 1_555 1_555
C1G H1G 1_555 1_555
C2G C1G 1_555 1_555
H2G C2G 1_555 1_555
C3G C2G 1_555 1_555
C4G C3G 1_555 1_555
H3G C4G 1_555 1_555
C5G C4G 1_555 1_555
H4G C5G 1_555 1_555
C6G C3G 1_555 1_555
C7G C6G 1_555 1_555
H5G C7G 1_555 1_555
C8G C7G 1_555 1_555
H6G C8G 1_555 1_555
C9G C8G 1_555 1_555
C10G C9G 1_555 1_555
H7G C10G 1_555 1_555
C11G C6G 1_555 1_555
H8G C11G 1_555 1_555
C12G C9G 1_555 1_555
H9G C12G 1_555 1_555
C13G C13 1_555 1_555
H10G C13G 1_555 1_555
H11G C13G 1_555 1_555
C14B H12B 1_555 1_555
C15B C14B 1_555 1_555
H13B C15B 1_555 1_555
C16B C15B 1_555 1_555
C17B C16B 1_555 1_555
H14B C17B 1_555 1_555
C18B C17B 1_555 1_555
H15B C18B 1_555 1_555
C19B C16B 1_555 1_555
C20B C19B 1_555 1_555
H16B C20B 1_555 1_555
C21B C20B 1_555 1_555
H17B C21B 1_555 1_555
C22B C21B 1_555 1_555
C23B C22B 1_555 1_555
H18B C23B 1_555 1_555
C24B C19B 1_555 1_555
H19B C24B 1_555 1_555
C25B C22B 1_555 1_555
H20B C25B 1_555 1_555
C26B C26 1_555 1_555
H21B C26B 1_555 1_555
H22B C26B 1_555 1_555
F3A P1 1_555 1_555
F7E P2 1_555 1_555
N1G C1G 1_555 1_555
N1B Ag1 1_555 1_555
N2G Ag2_2 1_555 1_555
N2_2 Ag2 1_555 1_555
N2G_2 Ag2 1_555 1_555
N3B C14B 1_555 1_555
N3G Ag2 1_555 1_555
N4B Ag1 1_555 1_555
C5 N1 1_555 1_555
C10 C11 1_555 1_555
C13 N2 1_555 1_555
C18 N3 1_555 1_555
C23 C24 1_555 1_555
C25 N4 1_555 1_555
C26 N4 1_555 1_555
C5G N1G 1_555 1_555
C10G C11G 1_555 1_555
C12G N2G 1_555 1_555
C13G N2G 1_555 1_555
C18B N3B 1_555 1_555
C23B C24B 1_555 1_555
C25B N4B 1_555 1_555
C26B N4B 1_555 1_555

#END
