
#######################################################################
#
#                 Cambridge Crystallographic Data Centre
#                                CCDC 
#
#######################################################################
#
# If this CIF has been generated from an entry in the Cambridge 
# Structural Database, then it will include bibliographic, chemical, 
# crystal, experimental, refinement or atomic coordinate data resulting 
# from the CCDC's data processing and validation procedures.
#
#######################################################################

data_BAVMOC
_symmetry_cell_setting           orthorhombic
_symmetry_space_group_name_H-M   'C c c a'
_symmetry_Int_Tables_number      68
_space_group_name_Hall           '-C 2b 2bc'
loop_
_symmetry_equiv_pos_site_id
_symmetry_equiv_pos_as_xyz
1 x,y,z
2 1/2-x,-y,z
3 -x,y,1/2-z
4 1/2+x,-y,1/2-z
5 1/2+x,1/2+y,z
6 -x,1/2-y,z
7 1/2-x,1/2+y,1/2-z
8 x,1/2-y,1/2-z
9 -x,-y,-z
10 1/2+x,y,-z
11 x,-y,1/2+z
12 1/2-x,y,1/2+z
13 1/2-x,1/2-y,-z
14 x,1/2+y,-z
15 1/2+x,1/2-y,1/2+z
16 -x,1/2+y,1/2+z
_cell_length_a                   22.456(4)
_cell_length_b                   29.527(6)
_cell_length_c                   16.123(3)
_cell_angle_alpha                90
_cell_angle_beta                 90
_cell_angle_gamma                90
_cell_volume                     10690.5
loop_
_atom_site_label
_atom_site_type_symbol
_atom_site_fract_x
_atom_site_fract_y
_atom_site_fract_z
Cl1 Cl -1.0000 0.2500 -0.96228(13)
O1 O -0.9992(13) 0.2216(10) -0.894(2)
O2 O -0.9406(12) 0.2442(9) -0.996(2)
O1E O -1.0008(13) 0.2784(10) -0.894(2)
O2E O -1.0594(12) 0.2558(9) -0.996(2)
Ag1 Ag 0.0000 0.450900(19) -0.7500
Ag2 Ag -0.25129(2) 0.2500 -0.2500
C1 C 0.0626(3) 0.37445(17) -0.6406(4)
H1 H 0.0243 0.3608 -0.6420
C2 C 0.1027(3) 0.35911(17) -0.5832(4)
H2 H 0.0920 0.3353 -0.5463
C3 C 0.1586(3) 0.37833(17) -0.5790(4)
C4 C 0.1711(3) 0.41199(18) -0.6376(4)
H3 H 0.2097 0.4251 -0.6394
C5 C 0.1290(3) 0.42603(19) -0.6916(4)
H4 H 0.1385 0.4499 -0.7288
C6 C 0.2030(3) 0.36381(18) -0.5178(3)
C7 C 0.2081(3) 0.31874(18) -0.4929(3)
H5 H 0.1810 0.2970 -0.5143
C8 C 0.2510(2) 0.30529(18) -0.4389(3)
H6 H 0.2532 0.2743 -0.4231
C9 C 0.2920(2) 0.33629(19) -0.4057(3)
C10 C 0.2872(3) 0.3811(2) -0.4289(4)
H7 H 0.3147 0.4027 -0.4079
C11 C 0.2433(3) 0.3947(2) -0.4816(4)
H8 H 0.2398 0.4260 -0.4945
C12 C 0.3399(3) 0.3220(2) -0.3509(4)
H9 H 0.3756 0.3392 -0.3502
C13 C 0.3884(2) 0.2747(2) -0.2557(4)
H10 H 0.3873 0.2899 -0.2010
H11 H 0.4253 0.2842 -0.2846
C14 C -0.1552(2) 0.29851(16) -0.3671(3)
H12 H -0.1483 0.2681 -0.3838
C15 C -0.1260(2) 0.33259(17) -0.4095(3)
H13 H -0.1002 0.3253 -0.4542
C16 C -0.1343(2) 0.37754(17) -0.3869(3)
C17 C -0.1704(2) 0.38508(18) -0.3182(3)
H14 H -0.1760 0.4150 -0.2978
C18 C -0.1982(2) 0.34911(19) -0.2796(3)
H15 H -0.2228 0.3553 -0.2331
C19 C -0.1097(2) 0.41523(16) -0.4368(3)
C20 C -0.0627(2) 0.40837(18) -0.4920(3)
H16 H -0.0426 0.3801 -0.4928
C21 C -0.0452(3) 0.44230(18) -0.5454(4)
H17 H -0.0134 0.4369 -0.5829
C22 C -0.0730(3) 0.48393(17) -0.5455(3)
C23 C -0.1170(3) 0.49169(17) -0.4867(3)
H18 H -0.1349 0.5208 -0.4831
C24 C -0.1351(2) 0.45808(17) -0.4337(3)
H19 H -0.1655 0.4642 -0.3942
C25 C -0.0588(3) 0.5199(2) -0.6056(4)
H20 H -0.0712 0.5499 -0.5929
C26 C -0.0238(5) 0.5526(2) -0.7274(5)
H21 H -0.0520 0.5765 -0.7298
N1 N 0.0743(2) 0.40785(14) -0.6952(3)
N2 N 0.33634(18) 0.28790(17) -0.3045(3)
N3 N -0.19255(17) 0.30586(14) -0.3039(3)
N4 N -0.0316(3) 0.51358(15) -0.6723(3)
Ag1E Ag 0.0000 0.049100(19) 0.2500
Ag2B Ag 0.25129(2) 0.2500 -0.2500
Ag2B_2 Ag 0.25129(2) 0.2500 -1.2500
C1G C 0.0626(3) 0.12555(17) 0.1406(4)
H1G H 0.0243 0.1392 0.1420
C2G C 0.1027(3) 0.14089(17) 0.0832(4)
H2G H 0.0920 0.1647 0.0463
C3G C 0.1586(3) 0.12167(17) 0.0790(4)
C4G C 0.1711(3) 0.08801(18) 0.1376(4)
H3G H 0.2097 0.0749 0.1394
C5G C 0.1290(3) 0.07397(19) 0.1916(4)
H4G H 0.1385 0.0501 0.2288
C6G C 0.2030(3) 0.13619(18) 0.0178(3)
C7G C 0.2081(3) 0.18126(18) -0.0071(3)
H5G H 0.1810 0.2030 0.0143
C8G C 0.2510(2) 0.19471(18) -0.0611(3)
H6G H 0.2532 0.2257 -0.0769
C9G C 0.2920(2) 0.16371(19) -0.0943(3)
C10G C 0.2872(3) 0.1189(2) -0.0711(4)
H7G H 0.3147 0.0973 -0.0921
C11G C 0.2433(3) 0.1053(2) -0.0184(4)
H8G H 0.2398 0.0740 -0.0055
C12G C 0.3399(3) 0.1780(2) -0.1491(4)
H9G H 0.3756 0.1608 -0.1498
C13G C 0.3884(2) 0.2253(2) -0.2443(4)
H10G H 0.3873 0.2101 -0.2990
H11G H 0.4253 0.2158 -0.2154
C14B C 0.1552(2) 0.29851(16) -1.1329(3)
H12B H 0.1483 0.2681 -1.1162
C15B C 0.1260(2) 0.33259(17) -1.0905(3)
H13B H 0.1002 0.3253 -1.0458
C16B C 0.1343(2) 0.37754(17) -1.1131(3)
C17B C 0.1704(2) 0.38508(18) -1.1818(3)
H14B H 0.1760 0.4150 -1.2022
C18B C 0.1982(2) 0.34911(19) -1.2204(3)
H15B H 0.2228 0.3553 -1.2669
C19B C 0.1097(2) 0.41523(16) -1.0632(3)
C20B C 0.0627(2) 0.40837(18) -1.0080(3)
H16B H 0.0426 0.3801 -1.0072
C21B C 0.0452(3) 0.44230(18) -0.9546(4)
H17B H 0.0134 0.4369 -0.9171
C22B C 0.0730(3) 0.48393(17) -0.9545(3)
C23B C 0.1170(3) 0.49169(17) -1.0133(3)
H18B H 0.1349 0.5208 -1.0169
C24B C 0.1351(2) 0.45808(17) -1.0663(3)
H19B H 0.1655 0.4642 -1.1058
C25B C 0.0588(3) 0.5199(2) -0.8944(4)
H20B H 0.0712 0.5499 -0.9071
C26B C 0.0238(5) 0.5526(2) -0.7726(5)
H21B H 0.0520 0.5765 -0.7702
N1B N -0.0743(2) 0.40785(14) -0.8048(3)
N1G N 0.0743(2) 0.09215(14) 0.1952(3)
N2G N 0.33634(18) 0.21210(17) -0.1955(3)
N2B N -0.33634(18) 0.28790(17) -0.1955(3)
N2E N -0.33634(18) 0.21210(17) -0.3045(3)
N3B N 0.19255(17) 0.30586(14) -1.1961(3)
N3G N -0.19255(17) 0.19414(14) -0.1961(3)
N4B N 0.0316(3) 0.51358(15) -0.8277(3)
C27? C -1.0786(8) 0.3394(7) -0.1640(13)
H22? H -1.0977 0.3102 -0.1532
H23? H -1.0676 0.3414 -0.2227
H24? H -1.1064 0.3639 -0.1504
C28? C -1.0296(11) 0.1866(8) -0.3044(14)
C29? C -1.0280(9) 0.2335(6) -0.2789(11)
Cl2? Cl -0.7500 0.0000 -0.20619(15)
O3? O -0.7500 0.0000 -0.2950(4)
O4? O -0.6941(6) -0.0208(7) -0.1874(9)
O5? O -0.7970(5) -0.0167(6) -0.1629(7)
O6? O -0.7417(8) 0.0475(4) -0.1916(7)
O7? O -1.0299(7) 0.3433(6) -0.1172(11)
H25? H -1.0067 0.3623 -0.1387
O8? O -1.0000 0.1576(7) -0.2500
loop_
_geom_bond_atom_site_label_1
_geom_bond_atom_site_label_2
_geom_bond_site_symmetry_1
_geom_bond_site_symmetry_2
Ag1 N1 1_555 1_555
Ag2 N3 1_555 1_555
C1 H1 1_555 1_555
C2 C1 1_555 1_555
H2 C2 1_555 1_555
C3 C2 1_555 1_555
C4 C3 1_555 1_555
H3 C4 1_555 1_555
C5 C4 1_555 1_555
H4 C5 1_555 1_555
C6 C3 1_555 1_555
C7 C6 1_555 1_555
H5 C7 1_555 1_555
C8 C7 1_555 1_555
H6 C8 1_555 1_555
C9 C8 1_555 1_555
C10 C9 1_555 1_555
H7 C10 1_555 1_555
C11 C6 1_555 1_555
H8 C11 1_555 1_555
C12 C9 1_555 1_555
H9 C12 1_555 1_555
C13 H10 1_555 1_555
H11 C13 1_555 1_555
C14 H12 1_555 1_555
C15 C14 1_555 1_555
H13 C15 1_555 1_555
C16 C15 1_555 1_555
C17 C16 1_555 1_555
H14 C17 1_555 1_555
C18 C17 1_555 1_555
H15 C18 1_555 1_555
C19 C16 1_555 1_555
C20 C19 1_555 1_555
H16 C20 1_555 1_555
C21 C20 1_555 1_555
H17 C21 1_555 1_555
C22 C21 1_555 1_555
C23 C22 1_555 1_555
H18 C23 1_555 1_555
C24 C19 1_555 1_555
H19 C24 1_555 1_555
C25 C22 1_555 1_555
H20 C25 1_555 1_555
C26 H21 1_555 1_555
Cl1 O1 1_555 1_555
N1 C1 1_555 1_555
N2 C12 1_555 1_555
N3 C14 1_555 1_555
N4 Ag1 1_555 1_555
O2 Cl1 1_555 1_555
Ag1E N1G 1_555 1_555
Ag2B N2 1_555 1_555
Ag2B_2 N3B 1_555 1_555
C1G H1G 1_555 1_555
C2G C1G 1_555 1_555
H2G C2G 1_555 1_555
C3G C2G 1_555 1_555
C4G C3G 1_555 1_555
H3G C4G 1_555 1_555
C5G C4G 1_555 1_555
H4G C5G 1_555 1_555
C6G C3G 1_555 1_555
C7G C6G 1_555 1_555
H5G C7G 1_555 1_555
C8G C7G 1_555 1_555
H6G C8G 1_555 1_555
C9G C8G 1_555 1_555
C10G C9G 1_555 1_555
H7G C10G 1_555 1_555
C11G C6G 1_555 1_555
H8G C11G 1_555 1_555
C12G C9G 1_555 1_555
H9G C12G 1_555 1_555
C13G C13 1_555 1_555
H10G C13G 1_555 1_555
H11G C13G 1_555 1_555
C14B H12B 1_555 1_555
C15B C14B 1_555 1_555
H13B C15B 1_555 1_555
C16B C15B 1_555 1_555
C17B C16B 1_555 1_555
H14B C17B 1_555 1_555
C18B C17B 1_555 1_555
H15B C18B 1_555 1_555
C19B C16B 1_555 1_555
C20B C19B 1_555 1_555
H16B C20B 1_555 1_555
C21B C20B 1_555 1_555
H17B C21B 1_555 1_555
C22B C21B 1_555 1_555
C23B C22B 1_555 1_555
H18B C23B 1_555 1_555
C24B C19B 1_555 1_555
H19B C24B 1_555 1_555
C25B C22B 1_555 1_555
H20B C25B 1_555 1_555
C26B C26 1_555 1_555
H21B C26B 1_555 1_555
N1B Ag1 1_555 1_555
N1G C1G 1_555 1_555
N2G Ag2B 1_555 1_555
N2B Ag2 1_555 1_555
N2E Ag2 1_555 1_555
N3B C14B 1_555 1_555
N3G Ag2 1_555 1_555
N4B Ag1 1_555 1_555
O1E Cl1 1_555 1_555
O2E Cl1 1_555 1_555
C5 N1 1_555 1_555
C10 C11 1_555 1_555
C13 N2 1_555 1_555
C18 N3 1_555 1_555
C23 C24 1_555 1_555
C25 N4 1_555 1_555
C26 N4 1_555 1_555
C5G N1G 1_555 1_555
C10G C11G 1_555 1_555
C12G N2G 1_555 1_555
C13G N2G 1_555 1_555
C18B N3B 1_555 1_555
C23B C24B 1_555 1_555
C25B N4B 1_555 1_555
C26B N4B 1_555 1_555

#END
