
#######################################################################
#
#                 Cambridge Crystallographic Data Centre
#                                CCDC 
#
#######################################################################
#
# If this CIF has been generated from an entry in the Cambridge 
# Structural Database, then it will include bibliographic, chemical, 
# crystal, experimental, refinement or atomic coordinate data resulting 
# from the CCDC's data processing and validation procedures.
#
#######################################################################

data_BAVMUI
_symmetry_cell_setting           monoclinic
_symmetry_space_group_name_H-M   'P 21'
_symmetry_Int_Tables_number      4
_space_group_name_Hall           'P 2yb'
loop_
_symmetry_equiv_pos_site_id
_symmetry_equiv_pos_as_xyz
1 x,y,z
2 -x,1/2+y,-z
_cell_length_a                   11.17374(16)
_cell_length_b                   41.2997(5)
_cell_length_c                   12.37007(19)
_cell_angle_alpha                90
_cell_angle_beta                 106.5568(15)
_cell_angle_gamma                90
_cell_volume                     5471.76
loop_
_atom_site_label
_atom_site_type_symbol
_atom_site_fract_x
_atom_site_fract_y
_atom_site_fract_z
Sb1 Sb 0.29914(5) 0.402660(14) -1.10286(4)
Sb2 Sb 0.23060(5) 0.348300(14) -0.90243(4)
Sb3 Sb -0.08715(6) 0.013250(16) -0.40174(5)
Sb4 Sb -0.30867(6) 0.080430(18) -0.49747(7)
Sb5 Sb 0.01445(7) 0.101100(18) -0.45184(6)
Sb6 Sb 0.43740(5) 0.239170(15) -0.41044(5)
Sb7 Sb 0.53249(6) 0.162500(18) -0.50882(6)
Sb8 Sb 0.22408(7) 0.162780(19) -0.46037(6)
Sb9 Sb 0.39673(5) 0.393680(13) -0.55333(4)
Sb10 Sb 0.07477(5) 0.429150(14) -0.73402(4)
Sb11 Sb -0.04676(5) 0.331670(13) -0.74665(5)
Sb12 Sb -0.20660(5) 0.402030(15) -0.62886(5)
Sb13 Sb 0.13295(5) 0.357520(14) -0.45180(4)
Sb14 Sb 0.45485(5) 0.322170(13) -0.27119(4)
Sb15 Sb 0.73604(5) 0.349480(14) -0.37654(5)
Sb16 Sb 0.57606(5) 0.419700(13) -0.25885(4)
Sb17 Sb 0.47351(5) 0.433130(14) -0.80956(5)
Sb18 Sb 1.05574(5) 0.318100(14) -0.19600(5)
S1 S 0.71554(19) 0.37317(6) -0.20130(18)
S2 S 0.37453(18) 0.39511(5) -0.30432(18)
S3 S 0.5133(2) 0.41647(7) -0.98753(19)
S4 S 0.32215(19) 0.34465(6) -1.07455(17)
S5 S 0.49308(19) 0.38104(5) -0.71109(17)
S6 S 0.20754(19) 0.40630(6) -0.93029(17)
S7 S 1.0165(2) 0.33471(7) -0.01786(19)
S8 S 0.58620(19) 0.42401(6) -0.45427(18)
S9 S 0.28843(18) 0.44498(5) -0.62820(18)
S10 S 0.15503(18) 0.35619(5) -0.70106(17)
S11 S 0.00462(18) 0.42670(6) -0.56075(17)
S12 S -0.18634(19) 0.37816(6) -0.80437(18)
S13 S -0.30460(19) 0.45078(6) -0.72647(19)
S14 S 0.0230(2) 0.48700(6) -0.7831(2)
S15 S -0.2587(2) 0.03916(7) -0.3515(3)
S16 S 0.0757(2) 0.05412(6) -0.3291(2)
S17 S -0.1624(3) 0.12163(7) -0.3935(3)
S18 S -0.1794(3) 0.06084(7) -0.6047(2)
S19 S -0.05688(18) 0.32722(6) -0.55089(17)
S20 S 0.03668(19) 0.37026(5) -0.29391(17)
S21 S 0.24139(18) 0.30628(5) -0.37723(18)
S22 S 0.52524(18) 0.32470(6) -0.44466(17)
S23 S 0.8341(2) 0.30088(6) -0.27948(19)
S24 S 0.5081(2) 0.26456(6) -0.22288(19)
S25 S 0.2835(2) 0.20975(7) -0.3418(2)
S26 S 0.6081(2) 0.20028(6) -0.3510(2)
S27 S 0.4115(3) 0.12916(7) -0.4141(3)
S28 S 0.3672(2) 0.19391(7) -0.6161(2)
S29 S 0.1543(4) 0.13722(10) -0.3087(3)
Sb1_2 Sb 0.29914(5) 0.402660(14) -0.10286(4)
Sb2_2 Sb 1.23060(5) 0.348300(14) 0.09757(4)
Sb3A Sb 0.08715(6) 0.513250(16) -0.59826(5)
Sb17_2 Sb -0.52649(5) 0.433130(14) -0.80956(5)
Sb18_2 Sb 0.05574(5) 0.318100(14) -0.19600(5)
S2_2 S 0.37453(18) 0.39511(5) -1.30432(18)
S7_2 S 0.0165(2) 0.33471(7) -1.01786(19)
S13_2 S 0.69540(19) 0.45078(6) -0.72647(19)
S14A S -0.0230(2) -0.01300(6) -0.2169(2)
S20_2 S 1.03668(19) 0.37026(5) -0.29391(17)
Ni1 Ni -0.12360(10) 0.21268(3) 0.10978(9)
N7 N -0.0508(6) 0.21845(18) -0.0259(6)
N8 N 0.0419(6) 0.23755(19) 0.1897(6)
N9 N -0.2228(6) 0.25620(19) 0.0811(6)
N10 N -0.1848(7) 0.21440(18) 0.2538(6)
N11 N -0.2725(7) 0.1842(2) 0.0215(6)
N12 N -0.0483(6) 0.16605(18) 0.1497(6)
C37 C -0.0975(9) 0.2106(3) -0.1329(8)
H25 H -0.1747 0.2004 -0.1535
C38 C -0.0418(11) 0.2164(3) -0.2164(8)
H26 H -0.0812 0.2106 -0.2908
C39 C 0.0712(10) 0.2306(3) -0.1880(9)
H27 H 0.1124 0.2340 -0.2427
C40 C 0.1283(9) 0.2404(2) -0.0746(9)
C41 C 0.0643(8) 0.2337(2) 0.0031(7)
C42 C 0.2500(10) 0.2544(3) -0.0369(10)
H28 H 0.2980 0.2564 -0.0869
C43 C 0.2958(10) 0.2646(3) 0.0697(11)
H29 H 0.3731 0.2748 0.0913
C44 C 0.2268(9) 0.2599(2) 0.1528(9)
C45 C 0.1121(8) 0.2439(2) 0.1189(7)
C46 C 0.2668(9) 0.2715(3) 0.2637(10)
H30 H 0.3423 0.2824 0.2897
C47 C 0.1943(10) 0.2665(3) 0.3314(10)
H31 H 0.2178 0.2748 0.4044
C48 C 0.0804(9) 0.2484(2) 0.2923(8)
H32 H 0.0331 0.2443 0.3416
C49 C -0.2350(8) 0.2767(2) -0.0026(8)
H33 H -0.1999 0.2717 -0.0603
C50 C -0.3007(10) 0.3064(2) -0.0068(9)
H34 H -0.3058 0.3209 -0.0655
C51 C -0.3565(9) 0.3136(3) 0.0759(11)
H35 H -0.4038 0.3323 0.0712
C52 C -0.3410(8) 0.2919(2) 0.1697(10)
C53 C -0.2729(7) 0.2639(2) 0.1658(8)
C54 C -0.3838(9) 0.2991(3) 0.2616(11)
H36 H -0.4322 0.3174 0.2605
C55 C -0.3552(12) 0.2792(3) 0.3541(11)
H37 H -0.3814 0.2847 0.4167
C56 C -0.2860(11) 0.2502(3) 0.3555(9)
C57 C -0.2469(8) 0.2416(3) 0.2604(8)
C58 C -0.2488(13) 0.2304(3) 0.4495(10)
H38 H -0.2647 0.2364 0.5166
C59 C -0.1884(13) 0.2021(3) 0.4428(10)
H39 H -0.1680 0.1877 0.5033
C60 C -0.1573(11) 0.1949(3) 0.3422(8)
H40 H -0.1157 0.1756 0.3381
C61 C -0.3833(8) 0.1939(3) -0.0458(8)
H41 H -0.3999 0.2160 -0.0546
C62 C -0.4766(10) 0.1714(3) -0.1044(9)
H42 H -0.5535 0.1786 -0.1495
C63 C -0.4501(10) 0.1385(3) -0.0928(9)
H43 H -0.5084 0.1237 -0.1333
C64 C -0.3361(10) 0.1273(3) -0.0206(9)
C65 C -0.2507(8) 0.1514(2) 0.0333(7)
C66 C -0.3041(12) 0.0942(3) 0.0036(10)
H44 H -0.3588 0.0779 -0.0321
C67 C -0.1941(12) 0.0865(3) 0.0785(10)
H45 H -0.1775 0.0647 0.0954
C68 C -0.1059(10) 0.1085(2) 0.1309(8)
C69 C -0.1302(9) 0.1419(2) 0.1060(7)
C70 C 0.0113(10) 0.1021(3) 0.2037(9)
H46 H 0.0324 0.0808 0.2247
C71 C 0.0961(10) 0.1256(3) 0.2455(8)
H47 H 0.1748 0.1205 0.2925
C72 C 0.0625(9) 0.1578(3) 0.2162(8)
H48 H 0.1206 0.1741 0.2448
N1 N 0.8012(6) 0.56644(19) -0.0258(6)
N2 N 0.5725(6) 0.58420(19) -0.1468(6)
N3 N 0.5758(6) 0.5325(2) 0.0196(6)
N4 N 0.4854(6) 0.51290(17) -0.1948(6)
N5 N 0.7501(6) 0.49501(18) -0.0896(6)
N6 N 0.7098(6) 0.53735(19) -0.2632(6)
C1 C 0.9129(8) 0.5575(3) 0.0352(7)
H1 H 0.9325 0.5356 0.0376
C2 C 1.0043(9) 0.5789(3) 0.0968(8)
H2 H 1.0814 0.5713 0.1403
C3 C 0.9765(9) 0.6109(3) 0.0909(8)
H3 H 1.0354 0.6258 0.1303
C4 C 0.8594(9) 0.6216(2) 0.0256(7)
C5 C 0.7746(8) 0.5984(3) -0.0308(7)
C6 C 0.8231(10) 0.6552(3) 0.0140(9)
H4 H 0.8790 0.6708 0.0531
C7 C 0.7121(10) 0.6646(3) -0.0507(9)
H5 H 0.6925 0.6865 -0.0580
C8 C 0.6213(9) 0.6409(2) -0.1103(8)
C9 C 0.6535(8) 0.6083(2) -0.0979(7)
C10 C 0.5003(10) 0.6487(2) -0.1774(8)
H6 H 0.4764 0.6703 -0.1891
C11 C 0.4186(9) 0.6251(3) -0.2249(8)
H7 H 0.3382 0.6300 -0.2686
C12 C 0.4587(9) 0.5925(3) -0.2063(7)
H8 H 0.4022 0.5761 -0.2376
C13 C 0.6237(9) 0.5413(3) 0.1261(7)
H9 H 0.7010 0.5515 0.1467
C14 C 0.5636(12) 0.5359(3) 0.2083(9)
H10 H 0.6000 0.5426 0.2821
C15 C 0.4503(11) 0.5205(3) 0.1798(9)
H11 H 0.4100 0.5163 0.2345
C16 C 0.3954(9) 0.5113(2) 0.0669(9)
C17 C 0.4652(8) 0.5173(2) -0.0085(8)
C18 C 0.2765(10) 0.4953(3) 0.0284(12)
H12 H 0.2304 0.4911 0.0786
C19 C 0.2322(9) 0.4866(3) -0.0802(11)
H13 H 0.1537 0.4771 -0.1041
C20 C 0.2983(9) 0.4912(2) -0.1586(10)
C21 C 0.4159(8) 0.5069(2) -0.1240(7)
C22 C 0.2637(9) 0.4794(2) -0.2708(10)
H14 H 0.1887 0.4682 -0.2975
C23 C 0.3348(9) 0.4837(2) -0.3388(9)
H15 H 0.3105 0.4752 -0.4115
C24 C 0.4449(9) 0.5007(2) -0.3020(8)
H16 H 0.4930 0.5041 -0.3512
C25 C 0.7656(8) 0.4729(2) -0.0071(8)
H17 H 0.7299 0.4768 0.0510
C26 C 0.8334(9) 0.4439(2) -0.0043(9)
H18 H 0.8411 0.4291 0.0540
C27 C 0.8850(8) 0.4381(2) -0.0848(10)
H19 H 0.9320 0.4194 -0.0825
C28 C 0.8705(8) 0.4598(2) -0.1744(8)
C29 C 0.8024(7) 0.4877(2) -0.1737(7)
C30 C 0.9145(9) 0.4540(3) -0.2726(11)
H20 H 0.9590 0.4351 -0.2751
C31 C 0.8940(10) 0.4746(3) -0.3594(10)
H21 H 0.9277 0.4704 -0.4185
C32 C 0.8216(10) 0.5029(3) -0.3621(9)
C33 C 0.7786(7) 0.5099(2) -0.2667(7)
C34 C 0.7936(13) 0.5252(3) -0.4478(10)
H22 H 0.8220 0.5218 -0.5107
C35 C 0.7255(12) 0.5519(3) -0.4426(9)
H23 H 0.7073 0.5667 -0.5017
Ni2 Ni 0.65026(9) 0.53807(3) -0.11620(9)
C36 C 0.6829(10) 0.5573(2) -0.3491(8)
H24 H 0.6341 0.5754 -0.3475
loop_
_geom_bond_atom_site_label_1
_geom_bond_atom_site_label_2
_geom_bond_site_symmetry_1
_geom_bond_site_symmetry_2
Sb1 S3 1_555 1_555
Sb2 S4 1_555 1_555
Sb3 S15 1_555 1_555
Sb4 S15 1_555 1_555
Sb5 S16 1_555 1_555
Sb6 S24 1_555 1_555
Sb7 S26 1_555 1_555
Sb8 S25 1_555 1_555
Sb9 S5 1_555 1_555
Sb10 S9 1_555 1_555
Sb11 S10 1_555 1_555
Sb12 S11 1_555 1_555
Sb13 S19 1_555 1_555
Sb14 S21 1_555 1_555
Sb15 S1 1_555 1_555
Sb16 S1 1_555 1_555
Sb17 S3 1_555 1_555
Sb18 S7 1_555 1_555
S2 Sb16 1_555 1_555
S4 Sb1 1_555 1_555
S5 Sb17 1_555 1_555
S6 Sb1 1_555 1_555
S7 Sb2_2 1_555 1_555
S8 Sb9 1_555 1_555
S9 Sb9 1_555 1_555
S10 Sb2 1_555 1_555
S11 Sb10 1_555 1_555
S12 Sb11 1_555 1_555
S13 Sb12 1_555 1_555
S14 Sb10 1_555 1_555
S16 Sb3 1_555 1_555
S17 Sb4 1_555 1_555
S18 Sb4 1_555 1_555
S19 Sb11 1_555 1_555
S20 Sb13 1_555 1_555
S21 Sb13 1_555 1_555
S22 Sb14 1_555 1_555
S23 Sb15 1_555 1_555
S24 Sb14 1_555 1_555
S25 Sb6 1_555 1_555
S26 Sb6 1_555 1_555
S27 Sb7 1_555 1_555
S28 Sb7 1_555 1_555
S29 Sb5 1_555 1_555
Ni1 N7 1_555 1_555
N1 C1 1_555 1_555
N2 C9 1_555 1_555
N3 C13 1_555 1_555
N4 C21 1_555 1_555
N5 C25 1_555 1_555
N6 C33 1_555 1_555
C1 H1 1_555 1_555
C2 C1 1_555 1_555
H2 C2 1_555 1_555
C3 C2 1_555 1_555
H3 C3 1_555 1_555
C4 C3 1_555 1_555
C5 N1 1_555 1_555
C6 C4 1_555 1_555
H4 C6 1_555 1_555
C7 C6 1_555 1_555
H5 C7 1_555 1_555
C8 C7 1_555 1_555
C9 C5 1_555 1_555
C10 C8 1_555 1_555
H6 C10 1_555 1_555
C11 C10 1_555 1_555
H7 C11 1_555 1_555
C12 N2 1_555 1_555
H8 C12 1_555 1_555
C13 H9 1_555 1_555
C14 C13 1_555 1_555
H10 C14 1_555 1_555
C15 C14 1_555 1_555
H11 C15 1_555 1_555
C16 C15 1_555 1_555
C17 N3 1_555 1_555
C18 C16 1_555 1_555
H12 C18 1_555 1_555
C19 C18 1_555 1_555
H13 C19 1_555 1_555
C20 C19 1_555 1_555
C21 C17 1_555 1_555
C22 C20 1_555 1_555
H14 C22 1_555 1_555
C23 C22 1_555 1_555
H15 C23 1_555 1_555
C24 N4 1_555 1_555
H16 C24 1_555 1_555
C25 H17 1_555 1_555
C26 C25 1_555 1_555
H18 C26 1_555 1_555
C27 C26 1_555 1_555
H19 C27 1_555 1_555
C28 C27 1_555 1_555
C29 N5 1_555 1_555
C30 C28 1_555 1_555
H20 C30 1_555 1_555
C31 C30 1_555 1_555
H21 C31 1_555 1_555
C32 C31 1_555 1_555
C33 C29 1_555 1_555
C34 C32 1_555 1_555
H22 C34 1_555 1_555
C35 C34 1_555 1_555
H23 C35 1_555 1_555
Ni2 N1 1_555 1_555
N7 C37 1_555 1_555
N8 Ni1 1_555 1_555
N9 Ni1 1_555 1_555
N10 Ni1 1_555 1_555
N11 Ni1 1_555 1_555
N12 Ni1 1_555 1_555
C36 N6 1_555 1_555
H24 C36 1_555 1_555
C37 H25 1_555 1_555
C38 C37 1_555 1_555
H26 C38 1_555 1_555
C39 C38 1_555 1_555
H27 C39 1_555 1_555
C40 C39 1_555 1_555
C41 N7 1_555 1_555
C42 C40 1_555 1_555
H28 C42 1_555 1_555
C43 C42 1_555 1_555
H29 C43 1_555 1_555
C44 C43 1_555 1_555
C45 N8 1_555 1_555
C46 C44 1_555 1_555
H30 C46 1_555 1_555
C47 C46 1_555 1_555
H31 C47 1_555 1_555
C48 N8 1_555 1_555
H32 C48 1_555 1_555
C49 N9 1_555 1_555
H33 C49 1_555 1_555
C50 C49 1_555 1_555
H34 C50 1_555 1_555
C51 C50 1_555 1_555
H35 C51 1_555 1_555
C52 C51 1_555 1_555
C53 N9 1_555 1_555
C54 C52 1_555 1_555
H36 C54 1_555 1_555
C55 C54 1_555 1_555
H37 C55 1_555 1_555
C56 C55 1_555 1_555
C57 N10 1_555 1_555
C58 C56 1_555 1_555
H38 C58 1_555 1_555
C59 C58 1_555 1_555
H39 C59 1_555 1_555
C60 N10 1_555 1_555
H40 C60 1_555 1_555
C61 N11 1_555 1_555
H41 C61 1_555 1_555
C62 C61 1_555 1_555
H42 C62 1_555 1_555
C63 C62 1_555 1_555
H43 C63 1_555 1_555
C64 C63 1_555 1_555
C65 N11 1_555 1_555
C66 C64 1_555 1_555
H44 C66 1_555 1_555
C67 C66 1_555 1_555
H45 C67 1_555 1_555
C68 C67 1_555 1_555
C69 N12 1_555 1_555
C70 C68 1_555 1_555
H46 C70 1_555 1_555
C71 C70 1_555 1_555
H47 C71 1_555 1_555
C72 N12 1_555 1_555
H48 C72 1_555 1_555
Sb1_2 S2 1_555 1_555
Sb3A S14 1_555 1_555
Sb17_2 S13 1_555 1_555
Sb18_2 S20 1_555 1_555
S2_2 Sb1 1_555 1_555
S7_2 Sb2 1_555 1_555
S13_2 Sb17 1_555 1_555
S14A Sb3 1_555 1_555
S20_2 Sb18 1_555 1_555
Sb2 S6 1_555 1_555
Sb5 S17 1_555 1_555
Sb8 S27 1_555 1_555
Sb8 S29 1_555 1_555
Sb12 S12 1_555 1_555
Sb15 S22 1_555 1_555
Sb16 S8 1_555 1_555
Sb18 S23 1_555 1_555
N2 Ni2 1_555 1_555
N3 Ni2 1_555 1_555
N4 Ni2 1_555 1_555
N5 Ni2 1_555 1_555
N6 Ni2 1_555 1_555
C4 C5 1_555 1_555
C8 C9 1_555 1_555
C11 C12 1_555 1_555
C16 C17 1_555 1_555
C20 C21 1_555 1_555
C23 C24 1_555 1_555
C28 C29 1_555 1_555
C32 C33 1_555 1_555
C35 C36 1_555 1_555
C40 C41 1_555 1_555
C41 C45 1_555 1_555
C44 C45 1_555 1_555
C47 C48 1_555 1_555
C52 C53 1_555 1_555
C53 C57 1_555 1_555
C56 C57 1_555 1_555
C59 C60 1_555 1_555
C64 C65 1_555 1_555
C65 C69 1_555 1_555
C68 C69 1_555 1_555
C71 C72 1_555 1_555

#END
