
#######################################################################
#
#                 Cambridge Crystallographic Data Centre
#                                CCDC 
#
#######################################################################
#
# If this CIF has been generated from an entry in the Cambridge 
# Structural Database, then it will include bibliographic, chemical, 
# crystal, experimental, refinement or atomic coordinate data resulting 
# from the CCDC's data processing and validation procedures.
#
#######################################################################

data_BAVREW01
_symmetry_cell_setting           monoclinic
_symmetry_space_group_name_H-M   'P 21/c'
_symmetry_Int_Tables_number      14
_space_group_name_Hall           '-P 2ybc'
loop_
_symmetry_equiv_pos_site_id
_symmetry_equiv_pos_as_xyz
1 x,y,z
2 -x,1/2+y,1/2-z
3 -x,-y,-z
4 x,1/2-y,1/2+z
_cell_length_a                   17.0426(11)
_cell_length_b                   9.3703(5)
_cell_length_c                   16.1975(8)
_cell_angle_alpha                90
_cell_angle_beta                 96.894(3)
_cell_angle_gamma                90
_cell_volume                     2567.95
loop_
_atom_site_label
_atom_site_type_symbol
_atom_site_fract_x
_atom_site_fract_y
_atom_site_fract_z
Zn1 Zn 0.39151(3) 0.92506(6) 0.19288(3)
Zn2 Zn 0.09638(3) 1.24598(6) 0.25098(3)
Cl1 Cl 0.06668(9) 1.25843(16) 0.38120(8)
P1 P 0.46163(7) 0.65744(13) 0.30157(8)
P2 P 0.20015(8) 0.45220(13) 0.16002(8)
P3 P 0.20960(7) 1.01202(13) 0.17821(8)
P4 P 0.34474(8) 0.72419(14) 0.04696(8)
B1 B 0.2299(3) 0.7330(5) 0.1429(3)
B2 B 0.3403(4) 0.5797(6) 0.1856(4)
O1 O 0.3963(2) 0.8466(4) 0.0801(2)
O2 O 0.1830(2) 0.8549(3) 0.1617(2)
O3 O 0.2906(2) 0.4525(4) 0.1901(2)
O4 O 0.5442(2) 0.6006(4) 0.3110(3)
O5 O 0.2561(2) 0.7577(4) 0.0562(2)
O6 O 0.2983(2) 0.7092(3) 0.2000(2)
O7 O 0.1768(2) 0.6088(3) 0.1338(2)
O8 O 0.4545(2) 0.8119(3) 0.2772(2)
O9 O 0.2947(2) 1.0199(4) 0.2147(2)
O10 O 0.1816(2) 0.3540(4) 0.0875(2)
O11 O 0.1966(3) 1.0840(4) 0.0916(3)
O12 O 0.3647(2) 0.5853(4) 0.0984(3)
O13 O 0.1552(2) 1.0741(4) 0.2354(2)
O14 O 0.1575(2) 0.4134(4) 0.2339(2)
O15 O 0.4104(3) 0.5571(4) 0.2396(3)
O16 O 0.4291(4) 0.6356(5) 0.3863(3)
O17 O 0.3516(3) 0.6864(5) -0.0424(2)
N3 N -0.1322(3) 1.2487(5) 0.0659(3)
N4 N -0.0061(2) 1.2459(4) 0.1656(2)
C7 C 0.0007(5) 1.1503(11) 0.0951(5)
C8 C -0.0742(5) 1.1539(11) 0.0322(5)
C9 C -0.0237(6) 1.3888(9) 0.1327(8)
C10 C -0.1015(6) 1.3947(9) 0.0767(8)
C11 C -0.0731(4) 1.1961(14) 0.2056(5)
C12 C -0.1492(5) 1.1914(16) 0.1460(5)
H1 H 0.196(5) 1.150(8) 0.094(5)
H2 H 0.407(4) 0.719(8) 0.408(4)
H5 H -0.177(4) 1.253(7) 0.031(4)
H18 H 0.017(4) 1.053(8) 0.121(4)
H19 H 0.049(5) 1.199(8) 0.072(4)
H20 H -0.104(4) 1.074(8) 0.065(5)
H21 H -0.073(4) 1.180(8) -0.028(5)
H22 H 0.023(5) 1.404(9) 0.114(5)
H23 H -0.010(5) 1.458(8) 0.151(5)
H24 H -0.125(5) 1.459(8) 0.061(5)
H25 H -0.076(5) 1.356(8) 0.025(5)
H26 H -0.070(5) 1.298(8) 0.227(5)
H27 H -0.075(5) 1.173(8) 0.246(5)
H28 H -0.187(5) 1.174(9) 0.156(5)
H29 H -0.164(5) 1.306(8) 0.150(5)
O4A O 0.4558(2) 1.1006(4) 0.1890(3)
O14_2 O 0.1575(2) 1.4134(4) 0.2339(2)
Zn1A Zn 0.60849(3) 0.42506(6) 0.30712(3)
Zn2_2 Zn 0.09638(3) 0.24598(6) 0.25098(3)
N1 N 0.6408(3) 0.6165(5) 0.0445(3)
N2 N 0.6339(3) 0.8606(5) 0.0992(3)
C1 C 0.7216(4) 0.6630(7) 0.0786(4)
C2 C 0.5997(4) 0.7591(7) 0.1565(4)
C3 C 0.7179(4) 0.8248(8) 0.0935(5)
C4 C 0.5892(4) 0.6176(7) 0.1136(5)
C5 C 0.5873(5) 0.8529(7) 0.0146(4)
C6 C 0.6076(5) 0.7113(8) -0.0245(4)
H3 H 0.638(4) 0.531(8) 0.033(4)
H4 H 0.627(4) 0.945(8) 0.121(4)
H6 H 0.754(4) 0.648(8) 0.039(5)
H7 H 0.731(4) 0.602(8) 0.126(5)
H8 H 0.555(5) 0.796(8) 0.168(5)
H9 H 0.638(4) 0.765(7) 0.207(5)
H10 H 0.742(4) 0.835(8) 0.143(5)
H11 H 0.732(4) 0.871(8) 0.042(5)
H12 H 0.537(4) 0.613(8) 0.085(4)
H13 H 0.608(4) 0.517(8) 0.151(4)
H14 H 0.525(4) 0.859(8) 0.032(4)
H15 H 0.604(4) 0.926(8) -0.022(4)
H16 H 0.565(4) 0.662(8) -0.055(4)
H17 H 0.645(4) 0.736(8) -0.060(5)
loop_
_geom_bond_atom_site_label_1
_geom_bond_atom_site_label_2
_geom_bond_site_symmetry_1
_geom_bond_site_symmetry_2
Zn1 O1 1_555 1_555
Zn2 Cl1 1_555 1_555
P1 O4 1_555 1_555
P2 O3 1_555 1_555
P3 O2 1_555 1_555
P4 O1 1_555 1_555
B1 O2 1_555 1_555
B2 O3 1_555 1_555
O4 Zn1A 1_555 1_555
O5 P4 1_555 1_555
O6 B1 1_555 1_555
O7 P2 1_555 1_555
O8 Zn1 1_555 1_555
O9 Zn1 1_555 1_555
O10 P2 1_555 1_555
O11 P3 1_555 1_555
O12 P4 1_555 1_555
O13 Zn2 1_555 1_555
O14 P2 1_555 1_555
O15 P1 1_555 1_555
O16 P1 1_555 1_555
O17 P4 1_555 1_555
N1 C1 1_555 1_555
N2 C2 1_555 1_555
N3 C8 1_555 1_555
N4 Zn2 1_555 1_555
C1 C3 1_555 1_555
C2 C4 1_555 1_555
C3 N2 1_555 1_555
C4 N1 1_555 1_555
C5 N2 1_555 1_555
C6 N1 1_555 1_555
C7 N4 1_555 1_555
C8 C7 1_555 1_555
C9 N4 1_555 1_555
C10 N3 1_555 1_555
C11 N4 1_555 1_555
C12 N3 1_555 1_555
H1 O11 1_555 1_555
H2 O16 1_555 1_555
H3 N1 1_555 1_555
H4 N2 1_555 1_555
H5 N3 1_555 1_555
H6 C1 1_555 1_555
H7 C1 1_555 1_555
H8 C2 1_555 1_555
H9 C2 1_555 1_555
H10 C3 1_555 1_555
H11 C3 1_555 1_555
H12 C4 1_555 1_555
H13 C4 1_555 1_555
H14 C5 1_555 1_555
H15 C5 1_555 1_555
H16 C6 1_555 1_555
H17 C6 1_555 1_555
H18 C7 1_555 1_555
H19 C7 1_555 1_555
H20 C8 1_555 1_555
H21 C8 1_555 1_555
H22 C9 1_555 1_555
H23 C9 1_555 1_555
H24 C10 1_555 1_555
H25 C10 1_555 1_555
H26 C11 1_555 1_555
H27 C11 1_555 1_555
H28 C12 1_555 1_555
H29 C12 1_555 1_555
O4A Zn1 1_555 1_555
O14_2 Zn2 1_555 1_555
Zn2_2 O14 1_555 1_555
P1 O8 1_555 1_555
P3 O9 1_555 1_555
P3 O13 1_555 1_555
B1 O7 1_555 1_555
B1 O5 1_555 1_555
B2 O15 1_555 1_555
B2 O6 1_555 1_555
B2 O12 1_555 1_555
C5 C6 1_555 1_555
C9 C10 1_555 1_555
C11 C12 1_555 1_555

#END
