
#######################################################################
#
#                 Cambridge Crystallographic Data Centre
#                                CCDC 
#
#######################################################################
#
# If this CIF has been generated from an entry in the Cambridge 
# Structural Database, then it will include bibliographic, chemical, 
# crystal, experimental, refinement or atomic coordinate data resulting 
# from the CCDC's data processing and validation procedures.
#
#######################################################################

data_BAVRUL
_symmetry_cell_setting           monoclinic
_symmetry_space_group_name_H-M   'P 21/c'
_symmetry_Int_Tables_number      14
_space_group_name_Hall           '-P 2ybc'
loop_
_symmetry_equiv_pos_site_id
_symmetry_equiv_pos_as_xyz
1 x,y,z
2 -x,1/2+y,1/2-z
3 -x,-y,-z
4 x,1/2-y,1/2+z
_cell_length_a                   10.866(7)
_cell_length_b                   10.203(3)
_cell_length_c                   22.077(6)
_cell_angle_alpha                90
_cell_angle_beta                 101.14(4)
_cell_angle_gamma                90
_cell_volume                     2401.47
loop_
_atom_site_label
_atom_site_type_symbol
_atom_site_fract_x
_atom_site_fract_y
_atom_site_fract_z
Cd1 Cd 0.10750 0.15576 0.28826
P1 P 0.26710 0.06550 0.38130
S1 S 0.25710 0.35210 0.25170
S2 S -0.13270 0.56030 0.31760
N1 N 0.05910 0.52050 0.20540
N2 N -0.01250 0.32140 0.31220
C1 C 0.14040 0.45010 0.22470
C2 C -0.06140 0.41860 0.31380
C3 C 0.41310 0.15590 0.39010
C4 C 0.47200 0.16170 0.33940
C5 C 0.58030 0.23320 0.34040
C6 C 0.62860 0.30100 0.39400
C7 C 0.57110 0.29790 0.44380
C8 C 0.46400 0.22520 0.44190
C9 C 0.64140 0.23860 0.28520
C10 C 0.20890 0.08340 0.45220
C11 C 0.12330 0.18190 0.45640
C12 C 0.07280 0.20180 0.50850
C13 C 0.11070 0.11690 0.55690
C14 C 0.19620 0.01840 0.55470
C15 C 0.24490 0.00170 0.50260
C16 C -0.02220 0.30760 0.51110
C17 C 0.30640 -0.10460 0.37690
C18 C 0.43160 -0.15090 0.38810
C19 C 0.45860 -0.28290 0.38530
C20 C 0.36010 -0.36800 0.37190
C21 C 0.23610 -0.32790 0.36020
C22 C 0.21080 -0.19700 0.36230
C23 C 0.59370 -0.32960 0.39520
H1 H 0.43800 0.11800 0.30700
H2 H 0.69500 0.34600 0.39600
H3 H 0.61200 0.36100 0.47800
H4 H 0.42200 0.22800 0.47900
H5 H 0.09400 0.23900 0.42700
H6 H 0.08100 0.12800 0.59100
H7 H 0.20100 -0.02600 0.59000
H8 H 0.30600 -0.07100 0.50100
H9 H 0.49800 -0.08800 0.40000
H10 H 0.37500 -0.45400 0.36800
H11 H 0.17500 -0.39600 0.34800
H12 H 0.13700 -0.16900 0.35100
H13 H 0.64200 0.32500 0.27200
H14 H 0.60300 0.16800 0.26100
H15 H 0.72500 0.22100 0.29900
H16 H -0.08400 0.32100 0.47300
H17 H 0.01200 0.37700 0.51300
H18 H -0.05200 0.31500 0.54000
H19 H 0.61200 -0.32800 0.36500
H20 H 0.60500 -0.42000 0.40900
H21 H 0.65300 -0.29000 0.42800
N1A N -0.05910 0.02050 0.29460
S2A S 0.13270 0.06030 0.18240
Cd1A Cd -0.10750 0.65576 0.21174
loop_
_geom_bond_atom_site_label_1
_geom_bond_atom_site_label_2
_geom_bond_site_symmetry_1
_geom_bond_site_symmetry_2
Cd1 P1 1_555 1_555
P1 C3 1_555 1_555
S1 Cd1 1_555 1_555
S2 C2 1_555 1_555
N1 C1 1_555 1_555
N2 Cd1 1_555 1_555
C1 S1 1_555 1_555
C2 N2 1_555 1_555
C3 C4 1_555 1_555
C4 C5 1_555 1_555
C5 C6 1_555 1_555
C6 C7 1_555 1_555
C7 C8 1_555 1_555
C8 C3 1_555 1_555
C9 C5 1_555 1_555
C10 P1 1_555 1_555
C11 C10 1_555 1_555
C12 C11 1_555 1_555
C13 C12 1_555 1_555
C14 C13 1_555 1_555
C15 C10 1_555 1_555
C16 C12 1_555 1_555
C17 P1 1_555 1_555
C18 C17 1_555 1_555
C19 C18 1_555 1_555
C20 C19 1_555 1_555
C21 C20 1_555 1_555
C22 C17 1_555 1_555
C23 C19 1_555 1_555
H1 C4 1_555 1_555
H2 C6 1_555 1_555
H3 C7 1_555 1_555
H4 C8 1_555 1_555
H5 C11 1_555 1_555
H6 C13 1_555 1_555
H7 C14 1_555 1_555
H8 C15 1_555 1_555
H9 C18 1_555 1_555
H10 C20 1_555 1_555
H11 C21 1_555 1_555
H12 C22 1_555 1_555
H13 C9 1_555 1_555
H14 C9 1_555 1_555
H15 C9 1_555 1_555
H16 C16 1_555 1_555
H17 C16 1_555 1_555
H18 C16 1_555 1_555
H19 C23 1_555 1_555
H20 C23 1_555 1_555
H21 C23 1_555 1_555
N1A Cd1 1_555 1_555
S2A Cd1 1_555 1_555
Cd1A S2 1_555 1_555
N1 Cd1A 1_555 1_555
C14 C15 1_555 1_555
C21 C22 1_555 1_555

#END
