
#######################################################################
#
#                 Cambridge Crystallographic Data Centre
#                                CCDC 
#
#######################################################################
#
# If this CIF has been generated from an entry in the Cambridge 
# Structural Database, then it will include bibliographic, chemical, 
# crystal, experimental, refinement or atomic coordinate data resulting 
# from the CCDC's data processing and validation procedures.
#
#######################################################################

data_BAVWUS
_symmetry_cell_setting           triclinic
_symmetry_space_group_name_H-M   'P -1'
_symmetry_Int_Tables_number      2
_space_group_name_Hall           '-P 1'
loop_
_symmetry_equiv_pos_site_id
_symmetry_equiv_pos_as_xyz
1 x,y,z
2 -x,-y,-z
_cell_length_a                   7.7667(5)
_cell_length_b                   11.9159(8)
_cell_length_c                   12.1265(6)
_cell_angle_alpha                109.724(5)
_cell_angle_beta                 95.710(5)
_cell_angle_gamma                90.975(5)
_cell_volume                     1049.65
loop_
_atom_site_label
_atom_site_type_symbol
_atom_site_fract_x
_atom_site_fract_y
_atom_site_fract_z
Re1 Re 0.42252(3) -0.31837(2) -0.18964(2)
C1 C 0.5683(8) -0.3948(5) -0.1031(6)
C2 C 0.5512(8) -0.3935(5) -0.3201(6)
C3 C 0.5990(8) -0.1935(5) -0.1451(5)
O1 O 0.6590(6) -0.4378(4) -0.0524(4)
O2 O 0.6326(6) -0.4373(4) -0.3951(4)
O3 O 0.7064(6) -0.1185(4) -0.1170(5)
N1 N 0.2303(6) -0.2294(4) -0.2791(4)
N2 N 0.2563(6) -0.2356(4) -0.0455(4)
N3 N 0.1959(6) -0.4518(4) -0.2403(4)
C4 C 0.1813(8) -0.1241(5) -0.1821(5)
H1 H 0.0811 -0.0885 -0.2125
H2 H 0.2792 -0.0634 -0.1560
C5 C 0.1353(8) -0.1548(5) -0.0791(5)
H3 H 0.1338 -0.0802 -0.0108
H4 H 0.0170 -0.1932 -0.0977
C6 C 0.1616(8) -0.3391(5) -0.0312(5)
H5 H 0.2435 -0.3807 0.0075
H6 H 0.0702 -0.3089 0.0211
C7 C 0.0805(8) -0.4262(5) -0.1448(5)
H7 H -0.0276 -0.3943 -0.1699
H8 H 0.0491 -0.5017 -0.1327
C8 C 0.1075(8) -0.4397(5) -0.3505(5)
H9 H 0.1782 -0.4758 -0.4159
H10 H -0.0059 -0.4850 -0.3702
C9 C 0.0793(8) -0.3151(5) -0.3415(6)
H11 H -0.0235 -0.2888 -0.2992
H12 H 0.0534 -0.3119 -0.4220
C10 C 0.3181(7) -0.1867(5) -0.3632(5)
H13 H 0.3548 -0.2578 -0.4248
H14 H 0.4248 -0.1395 -0.3195
C11 C 0.2187(7) -0.1119(4) -0.4252(4)
C12 C 0.3688(8) -0.1701(5) 0.0648(5)
H15 H 0.4376 -0.1071 0.0498
H16 H 0.4515 -0.2266 0.0806
C13 C 0.2839(9) -0.1108(5) 0.1781(5)
C14 C 0.2615(7) -0.5750(5) -0.2662(6)
H17 H 0.3307 -0.5766 -0.1937
H18 H 0.3421 -0.5864 -0.3269
C15 C 0.1321(8) -0.6838(5) -0.3081(5)
O4 O 0.3074(5) -0.0724(3) -0.4863(3)
O5 O 0.0634(5) -0.0939(3) -0.4144(3)
O6 O 0.3927(6) -0.0583(4) 0.2655(4)
O7 O 0.1269(6) -0.1152(4) 0.1781(4)
O8 O 0.2010(5) -0.7786(3) -0.3154(4)
O9 O -0.0242(5) -0.6708(4) -0.3297(4)
O10 O 0.6371(6) -0.6825(4) -0.3027(5)
O11 O 0.2948(6) -0.8392(4) -0.5772(4)
H19 H 0.313(9) -0.892(5) -0.638(4)
H20 H 0.190(3) -0.843(6) -0.590(7)
Na1 Na 0.0551(3) -0.09516(18) 0.36707(19)
Na2 Na 0.4487(3) -0.86758(19) -0.40276(19)
O4_2 O 0.3074(5) -0.0724(3) 0.5137(3)
O4A O 0.6926(5) -0.9276(3) -0.5137(3)
O4_3 O 0.3074(5) -1.0724(3) -0.4863(3)
O5A O -0.0634(5) 0.0939(3) 0.4144(3)
O5_2 O 0.0634(5) -0.0939(3) 0.5856(3)
O6A O 0.6073(6) -0.9417(4) -0.2655(4)
O8A O -0.2010(5) -0.2214(3) 0.3154(4)
O9A O 0.0242(5) -0.3292(4) 0.3297(4)
Na1_2 Na 0.0551(3) -0.09516(18) -0.63293(19)
Na1A Na -0.0551(3) 0.09516(18) -0.36707(19)
Na1A_2 Na -0.0551(3) -0.90484(18) -0.36707(19)
Na2A Na 0.5513(3) -0.13242(19) -0.59724(19)
Na2_2 Na 0.4487(3) 0.13242(19) -0.40276(19)
Na2A_2 Na 0.5513(3) -0.13242(19) 0.40276(19)
O12 O -0.2158(13) -0.1759(10) 0.0984(9)
loop_
_geom_bond_atom_site_label_1
_geom_bond_atom_site_label_2
_geom_bond_site_symmetry_1
_geom_bond_site_symmetry_2
Re1 C1 1_555 1_555
C1 O1 1_555 1_555
C2 Re1 1_555 1_555
C3 Re1 1_555 1_555
O2 C2 1_555 1_555
O3 C3 1_555 1_555
N1 Re1 1_555 1_555
N2 Re1 1_555 1_555
N3 Re1 1_555 1_555
C4 N1 1_555 1_555
H1 C4 1_555 1_555
H2 C4 1_555 1_555
C5 N2 1_555 1_555
H3 C5 1_555 1_555
H4 C5 1_555 1_555
C6 N2 1_555 1_555
H5 C6 1_555 1_555
H6 C6 1_555 1_555
C7 N3 1_555 1_555
H7 C7 1_555 1_555
H8 C7 1_555 1_555
C8 N3 1_555 1_555
H9 C8 1_555 1_555
H10 C8 1_555 1_555
C9 N1 1_555 1_555
H11 C9 1_555 1_555
H12 C9 1_555 1_555
C10 N1 1_555 1_555
H13 C10 1_555 1_555
H14 C10 1_555 1_555
C11 C10 1_555 1_555
C12 N2 1_555 1_555
H15 C12 1_555 1_555
H16 C12 1_555 1_555
C13 C12 1_555 1_555
C14 N3 1_555 1_555
H17 C14 1_555 1_555
H18 C14 1_555 1_555
C15 C14 1_555 1_555
O4 C11 1_555 1_555
O5 C11 1_555 1_555
O6 C13 1_555 1_555
O7 C13 1_555 1_555
O8 C15 1_555 1_555
O9 C15 1_555 1_555
O10 Na2 1_555 1_555
O11 H19 1_555 1_555
H20 O11 1_555 1_555
Na1 O7 1_555 1_555
Na2 O8 1_555 1_555
O4_2 Na1 1_555 1_555
O4A Na2 1_555 1_555
O4_3 Na2 1_555 1_555
O5A Na1 1_555 1_555
O5_2 Na1 1_555 1_555
O6A Na2 1_555 1_555
O8A Na1 1_555 1_555
O9A Na1 1_555 1_555
Na1_2 O4 1_555 1_555
Na1A O5 1_555 1_555
Na1A_2 O8 1_555 1_555
Na2A O4 1_555 1_555
Na2_2 O4 1_555 1_555
Na2A_2 O6 1_555 1_555
C4 C5 1_555 1_555
C6 C7 1_555 1_555
C8 C9 1_555 1_555
O5 Na1_2 1_555 1_555
O9 Na1A_2 1_555 1_555
O11 Na2 1_555 1_555
O4_2 Na2A_2 1_555 1_555

#END
