
#######################################################################
#
#                 Cambridge Crystallographic Data Centre
#                                CCDC 
#
#######################################################################
#
# If this CIF has been generated from an entry in the Cambridge 
# Structural Database, then it will include bibliographic, chemical, 
# crystal, experimental, refinement or atomic coordinate data resulting 
# from the CCDC's data processing and validation procedures.
#
#######################################################################

data_BAVYON01
_symmetry_cell_setting           monoclinic
_symmetry_space_group_name_H-M   'P 2/c'
_symmetry_Int_Tables_number      13
_space_group_name_Hall           '-P 2yc'
loop_
_symmetry_equiv_pos_site_id
_symmetry_equiv_pos_as_xyz
1 x,y,z
2 x,-y,1/2+z
3 -x,-y,-z
4 -x,y,1/2-z
_cell_length_a                   8.730(4)
_cell_length_b                   10.339(11)
_cell_length_c                   18.569(17)
_cell_angle_alpha                90
_cell_angle_beta                 99.65(2)
_cell_angle_gamma                90
_cell_volume                     1652.31
loop_
_atom_site_label
_atom_site_type_symbol
_atom_site_fract_x
_atom_site_fract_y
_atom_site_fract_z
Zn1 Zn 0.13018(7) 0.17711(4) 0.17321(2)
O1 O -0.0834(5) 0.0964(4) 0.16958(17)
O2 O -0.2452(4) 0.0540(3) 0.24997(15)
O3 O -0.1779(5) -0.0992(4) -0.07935(17)
O4 O -0.3624(5) -0.2481(4) -0.10434(19)
N1 N -0.0044(6) 0.3383(4) 0.1145(2)
N2 N 0.2207(6) 0.3482(4) 0.23406(19)
C1 C -0.2023(7) 0.0446(4) 0.1870(2)
C2 C -0.3072(6) -0.0328(4) 0.1289(2)
C3 C -0.4535(7) -0.0764(4) 0.1395(2)
H1 H -0.4883 -0.0579 0.1848
C4 C -0.5476(7) -0.1484(5) 0.0855(2)
H2 H -0.6492 -0.1762 0.0920
C5 C -0.4901(8) -0.1770(5) 0.0201(2)
H3 H -0.5508 -0.2302 -0.0164
C6 C -0.3494(7) -0.1311(4) 0.0077(2)
C7 C -0.2559(6) -0.0574(4) 0.0622(2)
H4 H -0.1582 -0.0234 0.0537
C8 C -0.2946(8) -0.1620(5) -0.0639(2)
C9 C -0.1181(7) 0.3284(5) 0.0569(3)
H5 H -0.1493 0.2438 0.0388
C10 C -0.1921(8) 0.4385(6) 0.0220(3)
H6 H -0.2737 0.4282 -0.0192
C11 C -0.1471(8) 0.5595(6) 0.0475(3)
H7 H -0.1984 0.6345 0.0244
C12 C -0.0271(8) 0.5734(5) 0.1076(3)
C13 C 0.0412(6) 0.4576(4) 0.1405(2)
C14 C 0.0364(9) 0.6971(5) 0.1379(4)
H8 H -0.0052 0.7759 0.1152
C15 C 0.1524(9) 0.7025(5) 0.1970(4)
H9 H 0.1920 0.7847 0.2157
C16 C 0.2181(8) 0.5862(5) 0.2318(3)
C17 C 0.1631(7) 0.4633(4) 0.2033(2)
C18 C 0.3376(8) 0.5845(6) 0.2948(3)
H10 H 0.3787 0.6643 0.3164
C19 C 0.3940(7) 0.4698(6) 0.3232(3)
H11 H 0.4754 0.4685 0.3650
C20 C 0.3341(8) 0.3518(5) 0.2919(3)
H12 H 0.3750 0.2714 0.3126
O2C O 0.2452(4) 0.0540(3) 0.25003(15)
Zn1C Zn -0.13018(7) 0.17711(4) 0.32679(2)
Zn1B Zn -0.13018(7) -0.17711(4) -0.17321(2)
O3B O 0.1779(5) 0.0992(4) 0.07935(17)
loop_
_geom_bond_atom_site_label_1
_geom_bond_atom_site_label_2
_geom_bond_site_symmetry_1
_geom_bond_site_symmetry_2
Zn1 O1 1_555 1_555
O1 C1 1_555 1_555
O2 C1 1_555 1_555
O3 C8 1_555 1_555
O4 C8 1_555 1_555
N1 Zn1 1_555 1_555
N2 Zn1 1_555 1_555
C1 C2 1_555 1_555
C2 C3 1_555 1_555
C3 H1 1_555 1_555
C4 C3 1_555 1_555
H2 C4 1_555 1_555
C5 C4 1_555 1_555
H3 C5 1_555 1_555
C6 C5 1_555 1_555
C7 C2 1_555 1_555
H4 C7 1_555 1_555
C8 C6 1_555 1_555
C9 N1 1_555 1_555
H5 C9 1_555 1_555
C10 C9 1_555 1_555
H6 C10 1_555 1_555
C11 C10 1_555 1_555
H7 C11 1_555 1_555
C12 C11 1_555 1_555
C13 N1 1_555 1_555
C14 C12 1_555 1_555
H8 C14 1_555 1_555
C15 C14 1_555 1_555
H9 C15 1_555 1_555
C16 C15 1_555 1_555
C17 N2 1_555 1_555
C18 C16 1_555 1_555
H10 C18 1_555 1_555
C19 C18 1_555 1_555
H11 C19 1_555 1_555
C20 N2 1_555 1_555
H12 C20 1_555 1_555
O2C Zn1 1_555 1_555
Zn1C O2 1_555 1_555
Zn1B O3 1_555 1_555
O3B Zn1 1_555 1_555
C6 C7 1_555 1_555
C12 C13 1_555 1_555
C13 C17 1_555 1_555
C16 C17 1_555 1_555
C19 C20 1_555 1_555

#END
