
#######################################################################
#
#                 Cambridge Crystallographic Data Centre
#                                CCDC 
#
#######################################################################
#
# If this CIF has been generated from an entry in the Cambridge 
# Structural Database, then it will include bibliographic, chemical, 
# crystal, experimental, refinement or atomic coordinate data resulting 
# from the CCDC's data processing and validation procedures.
#
#######################################################################

data_BAVYUT
_symmetry_cell_setting           monoclinic
_symmetry_space_group_name_H-M   'P 2/c'
_symmetry_Int_Tables_number      13
_space_group_name_Hall           '-P 2yc'
loop_
_symmetry_equiv_pos_site_id
_symmetry_equiv_pos_as_xyz
1 x,y,z
2 -x,y,1/2-z
3 -x,-y,-z
4 x,-y,1/2+z
_cell_length_a                   8.3184(4)
_cell_length_b                   10.5814(6)
_cell_length_c                   18.9149(10)
_cell_angle_alpha                90
_cell_angle_beta                 100.8130(10)
_cell_angle_gamma                90
_cell_volume                     1635.33
loop_
_atom_site_label
_atom_site_type_symbol
_atom_site_fract_x
_atom_site_fract_y
_atom_site_fract_z
Cd1 Cd -0.36104(4) 1.17751(3) 0.675935(17)
C1 C -0.1544(7) 1.3698(6) 0.7966(3)
H1 H -0.1119 1.2946 0.8177
C2 C -0.0950(8) 1.4840(8) 0.8282(3)
H2 H -0.0153 1.4848 0.8699
C3 C -0.1557(9) 1.5940(8) 0.7970(4)
H3 H -0.1166 1.6707 0.8174
C4 C -0.2758(8) 1.5933(6) 0.7348(3)
C5 C -0.3449(10) 1.7055(6) 0.6976(5)
H4 H -0.3075 1.7843 0.7153
C6 C -0.4627(9) 1.6991(6) 0.6377(5)
H5 H -0.5053 1.7731 0.6151
C7 C -0.5218(8) 1.5796(6) 0.6090(3)
C8 C -0.6472(8) 1.5653(7) 0.5477(4)
H6 H -0.6959 1.6366 0.5241
C9 C -0.6970(7) 1.4494(7) 0.5230(3)
H7 H -0.7796 1.4403 0.4827
C10 C -0.6226(7) 1.3440(6) 0.5588(3)
H8 H -0.6570 1.2643 0.5416
C11 C -0.4557(6) 1.4679(5) 0.6423(3)
C12 C -0.3296(6) 1.4739(5) 0.7056(3)
C13 C -0.2244(6) 1.1452(5) 0.5584(2)
C14 C -0.1569(6) 1.1242(5) 0.4903(2)
C15 C -0.0085(6) 1.1789(5) 0.4839(3)
H9 H 0.0475 1.2288 0.5210
C16 C 0.0562(6) 1.1596(5) 0.4228(3)
H10 H 0.1570 1.1946 0.4193
C17 C -0.0283(6) 1.0881(5) 0.3667(2)
H11 H 0.0156 1.0756 0.3255
C18 C -0.1786(6) 1.0349(4) 0.3717(2)
C19 C -0.2416(6) 1.0523(4) 0.4346(2)
H12 H -0.3407 1.0153 0.4390
C20 C -0.2685(6) 0.9569(5) 0.3110(3)
N1 N -0.5045(5) 1.3521(4) 0.6164(2)
N2 N -0.2686(5) 1.3645(4) 0.7379(2)
O1 O -0.3513(5) 1.0866(4) 0.56583(18)
O2 O -0.1516(5) 1.2197(4) 0.60500(19)
O3 O -0.3756(5) 0.8815(4) 0.3238(2)
O4 O -0.2310(5) 0.9677(4) 0.24986(17)
O3B O -0.6244(5) 1.1185(4) 0.6762(2)
O4C O -0.2310(5) 1.0323(4) 0.74986(17)
Cd1B Cd -0.63896(4) 0.82249(3) 0.324065(17)
Cd1C Cd -0.36104(4) 0.82249(3) 0.175935(17)
loop_
_geom_bond_atom_site_label_1
_geom_bond_atom_site_label_2
_geom_bond_site_symmetry_1
_geom_bond_site_symmetry_2
Cd1 N1 1_555 1_555
C1 H1 1_555 1_555
C2 C1 1_555 1_555
H2 C2 1_555 1_555
C3 C2 1_555 1_555
H3 C3 1_555 1_555
C4 C3 1_555 1_555
C5 C4 1_555 1_555
H4 C5 1_555 1_555
C6 C5 1_555 1_555
H5 C6 1_555 1_555
C7 C6 1_555 1_555
C8 C7 1_555 1_555
H6 C8 1_555 1_555
C9 C8 1_555 1_555
H7 C9 1_555 1_555
C10 C9 1_555 1_555
H8 C10 1_555 1_555
C11 C7 1_555 1_555
C12 C4 1_555 1_555
C13 C14 1_555 1_555
C14 C15 1_555 1_555
C15 H9 1_555 1_555
C16 C15 1_555 1_555
H10 C16 1_555 1_555
C17 C16 1_555 1_555
H11 C17 1_555 1_555
C18 C17 1_555 1_555
C19 C14 1_555 1_555
H12 C19 1_555 1_555
C20 C18 1_555 1_555
N1 C10 1_555 1_555
N2 Cd1 1_555 1_555
O1 Cd1 1_555 1_555
O2 Cd1 1_555 1_555
O3 C20 1_555 1_555
O4 C20 1_555 1_555
O3B Cd1 1_555 1_555
O4C Cd1 1_555 1_555
Cd1B O3 1_555 1_555
Cd1C O4 1_555 1_555
C1 N2 1_555 1_555
C11 C12 1_555 1_555
C11 N1 1_555 1_555
C12 N2 1_555 1_555
C13 O1 1_555 1_555
C13 O2 1_555 1_555
C18 C19 1_555 1_555

#END
