
#######################################################################
#
#                 Cambridge Crystallographic Data Centre
#                                CCDC 
#
#######################################################################
#
# If this CIF has been generated from an entry in the Cambridge 
# Structural Database, then it will include bibliographic, chemical, 
# crystal, experimental, refinement or atomic coordinate data resulting 
# from the CCDC's data processing and validation procedures.
#
#######################################################################

data_BAVYUT02
_symmetry_cell_setting           monoclinic
_symmetry_space_group_name_H-M   'P 2/c'
_symmetry_Int_Tables_number      13
_space_group_name_Hall           '-P 2yc'
loop_
_symmetry_equiv_pos_site_id
_symmetry_equiv_pos_as_xyz
1 x,y,z
2 -x,y,1/2-z
3 -x,-y,-z
4 x,-y,1/2+z
_cell_length_a                   8.3440(3)
_cell_length_b                   10.6057(4)
_cell_length_c                   18.9374(7)
_cell_angle_alpha                90
_cell_angle_beta                 100.796(2)
_cell_angle_gamma                90
_cell_volume                     1646.18
loop_
_atom_site_label
_atom_site_type_symbol
_atom_site_fract_x
_atom_site_fract_y
_atom_site_fract_z
Cd1 Cd 0.36126(4) 0.32217(3) 0.324120(16)
O1 O 0.3516(4) 0.4131(3) 0.43446(17)
O2 O 0.1515(4) 0.2803(3) 0.39499(17)
O3 O 0.3750(4) 0.6190(3) 0.67593(18)
O4 O 0.2303(4) 0.5323(3) 0.74982(17)
N1 N 0.5050(5) 0.1478(4) 0.3838(2)
N2 N 0.2687(5) 0.1351(4) 0.2620(2)
C1 C 0.6218(6) 0.1558(5) 0.4415(3)
H1 H 0.6551 0.2353 0.4590
C2 C 0.6970(7) 0.0504(7) 0.4770(3)
H2 H 0.7802 0.0598 0.5169
C3 C 0.6473(7) -0.0662(6) 0.4527(3)
H3 H 0.6954 -0.1374 0.4764
C4 C 0.5226(7) -0.0794(5) 0.3916(3)
C5 C 0.4551(5) 0.0322(4) 0.3576(2)
C6 C 0.3295(5) 0.0253(4) 0.2940(2)
C7 C 0.2758(7) -0.0944(5) 0.2658(3)
C8 C 0.1550(8) -0.0943(6) 0.2025(4)
H4 H 0.1165 -0.1705 0.1817
C9 C 0.0944(7) 0.0154(7) 0.1717(3)
H5 H 0.0148 0.0146 0.1301
C10 C 0.1536(6) 0.1308(6) 0.2035(3)
H6 H 0.1107 0.2060 0.1827
C11 C 0.4621(9) -0.1987(5) 0.3625(4)
H7 H 0.5046 -0.2726 0.3849
C12 C 0.3458(9) -0.2056(5) 0.3035(5)
H8 H 0.3088 -0.2845 0.2863
C13 C 0.1569(5) 0.3753(4) 0.5091(2)
C14 C 0.2416(5) 0.4481(4) 0.5656(2)
H9 H 0.3404 0.4853 0.5615
C15 C 0.1778(5) 0.4649(4) 0.6279(2)
C16 C 0.0283(5) 0.4116(4) 0.6332(2)
H10 H -0.0149 0.4236 0.6746
C17 C -0.0559(6) 0.3411(4) 0.5774(3)
H11 H -0.1565 0.3066 0.5810
C18 C 0.0079(6) 0.3211(4) 0.5157(2)
H12 H -0.0486 0.2715 0.4788
C19 C 0.2241(6) 0.3549(4) 0.4418(2)
C20 C 0.2691(5) 0.5436(4) 0.6888(2)
Cd1B Cd 0.63874(4) 0.67783(3) 0.675880(16)
Cd1C Cd 0.36126(4) 0.67783(3) 0.824120(16)
O3B O 0.6250(4) 0.3810(3) 0.32407(18)
O4C O 0.2303(4) 0.4677(3) 0.24982(17)
loop_
_geom_bond_atom_site_label_1
_geom_bond_atom_site_label_2
_geom_bond_site_symmetry_1
_geom_bond_site_symmetry_2
Cd1 O1 1_555 1_555
O1 C19 1_555 1_555
O2 Cd1 1_555 1_555
O3 C20 1_555 1_555
O4 C20 1_555 1_555
N1 Cd1 1_555 1_555
N2 Cd1 1_555 1_555
C1 N1 1_555 1_555
H1 C1 1_555 1_555
C2 C1 1_555 1_555
H2 C2 1_555 1_555
C3 C2 1_555 1_555
H3 C3 1_555 1_555
C4 C3 1_555 1_555
C5 N1 1_555 1_555
C6 N2 1_555 1_555
C7 C6 1_555 1_555
C8 C7 1_555 1_555
H4 C8 1_555 1_555
C9 C8 1_555 1_555
H5 C9 1_555 1_555
C10 N2 1_555 1_555
H6 C10 1_555 1_555
C11 C4 1_555 1_555
H7 C11 1_555 1_555
C12 C7 1_555 1_555
H8 C12 1_555 1_555
C13 C14 1_555 1_555
C14 H9 1_555 1_555
C15 C14 1_555 1_555
C16 C15 1_555 1_555
H10 C16 1_555 1_555
C17 C16 1_555 1_555
H11 C17 1_555 1_555
C18 C13 1_555 1_555
H12 C18 1_555 1_555
C19 O2 1_555 1_555
C20 C15 1_555 1_555
Cd1B O3 1_555 1_555
Cd1C O4 1_555 1_555
O3B Cd1 1_555 1_555
O4C Cd1 1_555 1_555
C4 C5 1_555 1_555
C5 C6 1_555 1_555
C9 C10 1_555 1_555
C11 C12 1_555 1_555
C13 C19 1_555 1_555
C17 C18 1_555 1_555

#END
