
#######################################################################
#
#                 Cambridge Crystallographic Data Centre
#                                CCDC 
#
#######################################################################
#
# If this CIF has been generated from an entry in the Cambridge 
# Structural Database, then it will include bibliographic, chemical, 
# crystal, experimental, refinement or atomic coordinate data resulting 
# from the CCDC's data processing and validation procedures.
#
#######################################################################

data_BAVYON02
_symmetry_cell_setting           monoclinic
_symmetry_space_group_name_H-M   'P 2/c'
_symmetry_Int_Tables_number      13
_space_group_name_Hall           '-P 2yc'
loop_
_symmetry_equiv_pos_site_id
_symmetry_equiv_pos_as_xyz
1 x,y,z
2 -x,y,1/2-z
3 -x,-y,-z
4 x,-y,1/2+z
_cell_length_a                   8.6473(4)
_cell_length_b                   10.2374(5)
_cell_length_c                   18.3921(9)
_cell_angle_alpha                90
_cell_angle_beta                 99.6050(10)
_cell_angle_gamma                90
_cell_volume                     1605.35
loop_
_atom_site_label
_atom_site_type_symbol
_atom_site_fract_x
_atom_site_fract_y
_atom_site_fract_z
Zn1 Zn 0.63033(2) 0.677078(19) 0.173221(10)
O1 O 0.41424(17) 0.59617(16) 0.16978(7)
O2 O 0.25467(16) 0.55379(13) 0.25003(7)
O3 O 0.32225(18) 0.40114(15) -0.07945(7)
O4 O 0.1375(2) 0.25185(19) -0.10413(8)
N1 N 0.49566(18) 0.83784(15) 0.11445(8)
N2 N 0.72057(18) 0.84859(15) 0.23385(8)
C1 C 0.3819(2) 0.8288(2) 0.05660(11)
H1 H 0.3510 0.7463 0.0386
C2 C 0.3068(3) 0.9379(3) 0.02171(13)
H2 H 0.2263 0.9280 -0.0183
C3 C 0.3528(3) 1.0591(3) 0.04701(13)
H3 H 0.3039 1.1327 0.0240
C4 C 0.4744(3) 1.0738(2) 0.10801(12)
C5 C 0.5343(3) 1.1964(2) 0.13755(16)
H4 H 0.4926 1.2735 0.1157
C6 C 0.6498(3) 1.2023(2) 0.19644(16)
H5 H 0.6863 1.2835 0.2145
C7 C 0.7182(3) 1.0857(2) 0.23208(12)
C8 C 0.8364(3) 1.0851(2) 0.29418(13)
H6 H 0.8748 1.1635 0.3154
C9 C 0.8952(3) 0.9699(2) 0.32349(12)
H7 H 0.9747 0.9692 0.3643
C10 C 0.8348(2) 0.8525(2) 0.29157(11)
H8 H 0.8765 0.7742 0.3117
C11 C 0.6632(2) 0.96375(18) 0.20367(10)
C12 C 0.5411(2) 0.95770(18) 0.14034(10)
C13 C 0.2958(2) 0.54484(17) 0.18747(9)
C14 C 0.19244(19) 0.46746(16) 0.12905(8)
C15 C 0.0459(2) 0.42359(18) 0.13959(9)
H9 H 0.0099 0.4425 0.1833
C16 C -0.0471(2) 0.35157(19) 0.08503(10)
H10 H -0.1456 0.3228 0.0920
C17 C 0.0074(2) 0.32272(18) 0.02014(10)
H11 H -0.0535 0.2717 -0.0155
C18 C 0.1510(2) 0.36869(18) 0.00769(9)
C19 C 0.2435(2) 0.44206(17) 0.06218(9)
H12 H 0.3397 0.4743 0.0541
C20 C 0.2056(2) 0.3380(2) -0.06403(10)
Zn1A Zn 0.36967(2) 0.677078(19) 0.326779(10)
Zn1B Zn 0.36967(2) 0.322922(19) -0.173221(10)
O2A O 0.74533(16) 0.55379(13) 0.24997(7)
O3B O 0.67775(18) 0.59886(15) 0.07945(7)
loop_
_geom_bond_atom_site_label_1
_geom_bond_atom_site_label_2
_geom_bond_site_symmetry_1
_geom_bond_site_symmetry_2
Zn1 O1 1_555 1_555
O1 C13 1_555 1_555
O2 C13 1_555 1_555
O3 C20 1_555 1_555
O4 C20 1_555 1_555
N1 Zn1 1_555 1_555
N2 Zn1 1_555 1_555
C1 N1 1_555 1_555
H1 C1 1_555 1_555
C2 C1 1_555 1_555
H2 C2 1_555 1_555
C3 C2 1_555 1_555
H3 C3 1_555 1_555
C4 C3 1_555 1_555
C5 C4 1_555 1_555
H4 C5 1_555 1_555
C6 C5 1_555 1_555
H5 C6 1_555 1_555
C7 C6 1_555 1_555
C8 C7 1_555 1_555
H6 C8 1_555 1_555
C9 C8 1_555 1_555
H7 C9 1_555 1_555
C10 N2 1_555 1_555
H8 C10 1_555 1_555
C11 N2 1_555 1_555
C12 N1 1_555 1_555
C13 C14 1_555 1_555
C14 C15 1_555 1_555
C15 H9 1_555 1_555
C16 C15 1_555 1_555
H10 C16 1_555 1_555
C17 C16 1_555 1_555
H11 C17 1_555 1_555
C18 C17 1_555 1_555
C19 C14 1_555 1_555
H12 C19 1_555 1_555
C20 C18 1_555 1_555
Zn1A O2 1_555 1_555
Zn1B O3 1_555 1_555
O2A Zn1 1_555 1_555
O3B Zn1 1_555 1_555
C4 C12 1_555 1_555
C7 C11 1_555 1_555
C9 C10 1_555 1_555
C11 C12 1_555 1_555
C18 C19 1_555 1_555

#END
