
#######################################################################
#
#                 Cambridge Crystallographic Data Centre
#                                CCDC 
#
#######################################################################
#
# If this CIF has been generated from an entry in the Cambridge 
# Structural Database, then it will include bibliographic, chemical, 
# crystal, experimental, refinement or atomic coordinate data resulting 
# from the CCDC's data processing and validation procedures.
#
#######################################################################

data_BAVYUT01
_symmetry_cell_setting           monoclinic
_symmetry_space_group_name_H-M   'P 2/c'
_symmetry_Int_Tables_number      13
_space_group_name_Hall           '-P 2yc'
loop_
_symmetry_equiv_pos_site_id
_symmetry_equiv_pos_as_xyz
1 x,y,z
2 -x,y,1/2-z
3 -x,-y,-z
4 x,-y,1/2+z
_cell_length_a                   8.391(6)
_cell_length_b                   10.681(8)
_cell_length_c                   19.102(17)
_cell_angle_alpha                90
_cell_angle_beta                 100.73(2)
_cell_angle_gamma                90
_cell_volume                     1682.07
loop_
_atom_site_label
_atom_site_type_symbol
_atom_site_fract_x
_atom_site_fract_y
_atom_site_fract_z
Cd1 Cd 0.13904(4) 0.17736(3) 0.175978(17)
O1 O -0.1248(5) 0.1188(4) 0.1760(2)
O2 O -0.2701(5) 0.0309(4) 0.2499(2)
O3 O -0.1484(5) -0.0866(4) -0.06586(19)
O4 O -0.3483(5) -0.2195(4) -0.10488(19)
N1 N -0.0046(5) 0.3524(4) 0.1164(2)
N2 N 0.2309(5) 0.3647(4) 0.2377(2)
C1 C -0.2306(6) 0.0426(4) 0.1891(3)
C2 C -0.3215(6) -0.0348(4) 0.1283(2)
C3 C -0.4714(6) -0.0881(5) 0.1334(3)
H1 H -0.5155 -0.0765 0.1758
C4 C -0.5562(6) -0.1594(5) 0.0770(3)
H2 H -0.6597 -0.1948 0.0804
C5 C -0.4906(6) -0.1789(5) 0.0152(3)
H3 H -0.5483 -0.2291 -0.0230
C6 C -0.3433(6) -0.1252(5) 0.0091(2)
C7 C -0.2578(6) -0.0526(4) 0.0657(2)
H4 H -0.1563 -0.0150 0.0612
C8 C -0.2763(6) -0.1447(5) -0.0584(3)
C9 C -0.1223(7) 0.3441(6) 0.0587(3)
H5 H -0.1567 0.2624 0.0410
C10 C -0.1975(8) 0.4505(8) 0.0231(3)
H6 H -0.2820 0.4416 -0.0181
C11 C -0.1484(8) 0.5655(7) 0.0473(4)
H7 H -0.1988 0.6382 0.0233
C12 C -0.0229(8) 0.5807(6) 0.1086(4)
C13 C 0.0448(6) 0.4678(5) 0.1427(3)
C14 C 0.0376(10) 0.6979(7) 0.1383(5)
H8 H -0.0065 0.7736 0.1154
C15 C 0.1574(10) 0.7057(6) 0.1984(5)
H9 H 0.1973 0.7861 0.2161
C16 C 0.2240(8) 0.5944(6) 0.2349(4)
C17 C 0.1692(6) 0.4742(5) 0.2062(3)
C18 C 0.3442(9) 0.5924(8) 0.2981(4)
H10 H 0.3843 0.6703 0.3196
C19 C 0.4046(9) 0.4841(8) 0.3284(3)
H11 H 0.4859 0.4849 0.3710
C20 C 0.3455(7) 0.3698(6) 0.2968(3)
H12 H 0.3888 0.2925 0.3178
O2A O 0.2701(5) 0.0309(4) 0.2501(2)
Cd1A Cd -0.13904(4) 0.17736(3) 0.324022(17)
Cd1B Cd -0.13904(4) -0.17736(3) -0.175978(17)
O3B O 0.1484(5) 0.0866(4) 0.06586(19)
O4B O 0.3483(5) 0.2195(4) 0.10488(19)
loop_
_geom_bond_atom_site_label_1
_geom_bond_atom_site_label_2
_geom_bond_site_symmetry_1
_geom_bond_site_symmetry_2
Cd1 O1 1_555 1_555
O1 C1 1_555 1_555
O2 C1 1_555 1_555
O3 C8 1_555 1_555
O4 C8 1_555 1_555
N1 Cd1 1_555 1_555
N2 Cd1 1_555 1_555
C1 C2 1_555 1_555
C2 C3 1_555 1_555
C3 H1 1_555 1_555
C4 C3 1_555 1_555
H2 C4 1_555 1_555
C5 C4 1_555 1_555
H3 C5 1_555 1_555
C6 C5 1_555 1_555
C7 C2 1_555 1_555
H4 C7 1_555 1_555
C8 C6 1_555 1_555
C9 N1 1_555 1_555
H5 C9 1_555 1_555
C10 C9 1_555 1_555
H6 C10 1_555 1_555
C11 C10 1_555 1_555
H7 C11 1_555 1_555
C12 C11 1_555 1_555
C13 N1 1_555 1_555
C14 C12 1_555 1_555
H8 C14 1_555 1_555
C15 C14 1_555 1_555
H9 C15 1_555 1_555
C16 C15 1_555 1_555
C17 N2 1_555 1_555
C18 C16 1_555 1_555
H10 C18 1_555 1_555
C19 C18 1_555 1_555
H11 C19 1_555 1_555
C20 N2 1_555 1_555
H12 C20 1_555 1_555
O2A Cd1 1_555 1_555
Cd1A O2 1_555 1_555
Cd1B O3 1_555 1_555
O3B Cd1 1_555 1_555
O4B Cd1 1_555 1_555
O4 Cd1B 1_555 1_555
C6 C7 1_555 1_555
C12 C13 1_555 1_555
C13 C17 1_555 1_555
C16 C17 1_555 1_555
C19 C20 1_555 1_555

#END
