
#######################################################################
#
#                 Cambridge Crystallographic Data Centre
#                                CCDC 
#
#######################################################################
#
# If this CIF has been generated from an entry in the Cambridge 
# Structural Database, then it will include bibliographic, chemical, 
# crystal, experimental, refinement or atomic coordinate data resulting 
# from the CCDC's data processing and validation procedures.
#
#######################################################################

data_BAVYIH
_symmetry_cell_setting           monoclinic
_symmetry_space_group_name_H-M   'C c'
_symmetry_Int_Tables_number      9
_space_group_name_Hall           'C -2yc'
loop_
_symmetry_equiv_pos_site_id
_symmetry_equiv_pos_as_xyz
1 x,y,z
2 x,-y,1/2+z
3 1/2+x,1/2+y,z
4 1/2+x,1/2-y,1/2+z
_cell_length_a                   16.109(7)
_cell_length_b                   8.314(4)
_cell_length_c                   15.730(7)
_cell_angle_alpha                90
_cell_angle_beta                 113.818(6)
_cell_angle_gamma                90
_cell_volume                     1927.3
loop_
_atom_site_label
_atom_site_type_symbol
_atom_site_fract_x
_atom_site_fract_y
_atom_site_fract_z
Sm1 Sm 0.87508(11) 1.24047(3) 0.13646(11)
N1 N 0.5031(7) 1.1556(14) 0.0911(9)
H1 H 0.4470 1.1825 0.0629
H2 H 0.5440 1.2061 0.0797
N2 N 0.7445(6) 1.1560(14) 0.1809(8)
N3 N 0.6562(8) 0.7959(10) 0.3363(6)
N4 N 1.1046(7) 0.8856(12) -0.0154(7)
H3 H 1.1111 0.8174 -0.0534
H4 H 1.0512 0.9121 -0.0207
N5 N 1.0130(6) 1.1339(13) 0.1180(7)
N6 N 1.3099(6) 1.2281(10) 0.2161(8)
N7 N 1.0975(7) 0.5818(10) 0.4491(7)
H5 H 1.0801 0.5104 0.4780
H6 H 1.1537 0.5878 0.4581
N8 N 0.9410(7) 0.9999(10) 0.2437(9)
N9 N 1.2338(7) 0.8350(19) 0.3670(11)
O1 O 0.4651(5) 0.9650(7) 0.1673(6)
O2 O 1.2555(4) 0.9088(7) 0.0575(5)
O3 O 0.9537(6) 0.6771(9) 0.3761(6)
O4 O 0.8146(9) 1.0121(13) 0.0343(9)
O5 O 0.8690(5) 1.2930(11) -0.0237(5)
O6 O 0.8969(6) 1.3615(8) 0.2889(5)
C1 C 0.5261(7) 1.0377(9) 0.1514(7)
C2 C 0.6171(6) 1.0094(9) 0.2077(6)
C3 C 0.6835(7) 1.0927(14) 0.1867(9)
C4 C 0.6420(8) 0.8826(16) 0.2750(7)
C5 C 1.1752(5) 0.9483(9) 0.0494(6)
C6 C 1.1667(5) 1.0675(9) 0.1122(6)
C7 C 1.0818(7) 1.1031(19) 0.1151(11)
C8 C 1.2512(9) 1.1423(19) 0.1730(15)
C9 C 1.0380(6) 0.6823(11) 0.3912(7)
C10 C 1.0653(5) 0.8009(9) 0.3418(6)
C11 C 1.0025(6) 0.9111(10) 0.2803(6)
C12 C 1.1581(6) 0.8289(14) 0.3526(7)
H7 H 0.810(9) 0.910(4) 0.052(2)
H8 H 0.801(9) 1.013(5) -0.0275(19)
H9 H 0.9211(16) 1.315(13) -0.029(2)
H10 H 0.824(4) 1.355(11) -0.063(3)
H11 H 0.903(8) 1.468(2) 0.298(3)
H12 H 0.871(7) 1.319(8) 0.325(4)
O1B O 0.9651(5) 1.4650(7) 0.1673(6)
O2B O 0.7555(4) 1.4088(7) 0.0575(5)
Sm1B Sm 0.37508(11) 0.74047(3) 0.13646(11)
Sm1B_2 Sm 1.37508(11) 0.74047(3) 0.13646(11)
O7 O 0.9069(4) 0.9539(9) 0.9127(5)
H13 H 0.952(6) 0.937(14) 0.894(8)
H14 H 0.911(8) 0.881(11) 0.957(7)
loop_
_geom_bond_atom_site_label_1
_geom_bond_atom_site_label_2
_geom_bond_site_symmetry_1
_geom_bond_site_symmetry_2
Sm1 N2 1_555 1_555
N1 H1 1_555 1_555
H2 N1 1_555 1_555
N2 C3 1_555 1_555
N3 C4 1_555 1_555
N4 H3 1_555 1_555
H4 N4 1_555 1_555
N5 Sm1 1_555 1_555
N6 C8 1_555 1_555
N7 H5 1_555 1_555
H6 N7 1_555 1_555
N8 Sm1 1_555 1_555
N9 C12 1_555 1_555
O1 C1 1_555 1_555
O2 C5 1_555 1_555
O3 C9 1_555 1_555
O4 Sm1 1_555 1_555
O5 Sm1 1_555 1_555
O6 Sm1 1_555 1_555
O7 H13 1_555 1_555
C1 N1 1_555 1_555
C2 C1 1_555 1_555
C3 C2 1_555 1_555
C4 C2 1_555 1_555
C5 N4 1_555 1_555
C6 C5 1_555 1_555
C7 N5 1_555 1_555
C8 C6 1_555 1_555
C9 N7 1_555 1_555
C10 C9 1_555 1_555
C11 N8 1_555 1_555
C12 C10 1_555 1_555
H7 O4 1_555 1_555
H8 O4 1_555 1_555
H9 O5 1_555 1_555
H10 O5 1_555 1_555
H11 O6 1_555 1_555
H12 O6 1_555 1_555
H14 O7 1_555 1_555
O1B Sm1 1_555 1_555
O2B Sm1 1_555 1_555
Sm1B O1 1_555 1_555
Sm1B_2 O2 1_555 1_555
C6 C7 1_555 1_555
C10 C11 1_555 1_555

#END
