
#######################################################################
#
#                 Cambridge Crystallographic Data Centre
#                                CCDC 
#
#######################################################################
#
# If this CIF has been generated from an entry in the Cambridge 
# Structural Database, then it will include bibliographic, chemical, 
# crystal, experimental, refinement or atomic coordinate data resulting 
# from the CCDC's data processing and validation procedures.
#
#######################################################################

data_BAVZAA
_symmetry_cell_setting           monoclinic
_symmetry_space_group_name_H-M   'P 21/m'
_symmetry_Int_Tables_number      11
_space_group_name_Hall           '-P 2yb'
loop_
_symmetry_equiv_pos_site_id
_symmetry_equiv_pos_as_xyz
1 x,y,z
2 x,1/2-y,z
3 -x,-y,-z
4 -x,1/2+y,-z
_cell_length_a                   11.2792(6)
_cell_length_b                   27.8458(14)
_cell_length_c                   12.2023(6)
_cell_angle_alpha                90
_cell_angle_beta                 95.4360(10)
_cell_angle_gamma                90
_cell_volume                     3815.24
loop_
_atom_site_label
_atom_site_type_symbol
_atom_site_fract_x
_atom_site_fract_y
_atom_site_fract_z
Co1 Co 1.0000 0.0000 0.0000
C1 C 0.9295(3) 0.02059(11) 0.1265(2)
N1 N 0.8862(2) 0.03474(10) 0.2021(2)
C2 C 0.8630(3) 0.02185(10) -0.0884(2)
N2 N 0.7815(2) 0.03680(9) -0.1408(2)
C3 C 1.0651(3) 0.06235(12) -0.0110(2)
N3 N 1.1004(2) 0.10100(11) -0.0173(2)
C1B C 1.0705(3) -0.02059(11) -0.1265(2)
N1B N 1.1138(2) -0.03474(10) -0.2021(2)
C2B C 1.1370(3) -0.02185(10) 0.0884(2)
N2B N 1.2185(2) -0.03680(9) 0.1408(2)
C3B C 0.9349(3) -0.06235(12) 0.0110(2)
N3B N 0.8996(2) -0.10100(11) 0.0173(2)
Sn1 Sn 0.47577(3) 0.2500 0.05840(2)
C4 C 0.3029(3) 0.2500 -0.0238(3)
H3 H 0.2864 0.2814 -0.0580
C5 C 0.4985(5) 0.2500 0.2331(3)
H4 H 0.5048 0.2832 0.2599
C6 C 0.6257(4) 0.2500 -0.0336(4)
H9 H 0.6468 0.2832 -0.0505
N4 N 0.4805(2) 0.16426(8) 0.06668(18)
C7 C 0.5863(3) 0.14236(10) 0.0879(2)
H10 H 0.6564 0.1614 0.0895
C8 C 0.5987(3) 0.09424(10) 0.1074(2)
H11 H 0.6758 0.0805 0.1208
C9 C 0.4976(2) 0.06534(9) 0.1075(2)
C10 C 0.3885(2) 0.08778(10) 0.0841(2)
H12 H 0.3171 0.0695 0.0815
C11 C 0.3833(2) 0.13638(10) 0.0646(2)
H13 H 0.3074 0.1509 0.0490
C12 C 0.5025(3) 0.01382(10) 0.1320(2)
H14 H 0.4305(11) -0.0003(9) 0.129(2)
N5 N 0.6192(2) -0.15996(9) 0.23314(19)
H24 H 0.6240 -0.1909 0.2481
C16 C 0.5144(3) -0.13938(11) 0.2044(2)
H25 H 0.4448 -0.1588 0.1992
C17 C 0.5031(3) -0.09133(10) 0.1820(2)
H26 H 0.4267 -0.0778 0.1626
C18 C 0.6041(2) -0.06238(10) 0.1877(2)
C19 C 0.7132(3) -0.08412(10) 0.2169(2)
H27 H 0.7845 -0.0658 0.2216
C20 C 0.7169(3) -0.13267(11) 0.2388(2)
H28 H 0.7919 -0.1473 0.2587
C21 C 0.5999(3) -0.01096(10) 0.1624(2)
H29 H 0.6720(10) 0.0032(8) 0.168(2)
H3A H 0.2864 0.2186 -0.0580
H4A H 0.5048 0.2168 0.2599
H9A H 0.6468 0.2168 -0.0505
N4A N 0.4805(2) 0.33574(8) 0.06668(18)
C7A C 0.5863(3) 0.35764(10) 0.0879(2)
H10A H 0.6564 0.3386 0.0895
C8A C 0.5987(3) 0.40576(10) 0.1074(2)
H11A H 0.6758 0.4195 0.1208
C9A C 0.4976(2) 0.43466(9) 0.1075(2)
C10A C 0.3885(2) 0.41222(10) 0.0841(2)
H12A H 0.3171 0.4305 0.0815
C11A C 0.3833(2) 0.36362(10) 0.0646(2)
H13A H 0.3074 0.3491 0.0490
C12A C 0.5025(3) 0.48618(10) 0.1320(2)
H14A H 0.4305(11) 0.5003(9) 0.129(2)
N5A N 0.6192(2) 0.65996(9) 0.23314(19)
H24A H 0.6240 0.6909 0.2481
C16A C 0.5144(3) 0.63938(11) 0.2044(2)
H25A H 0.4448 0.6588 0.1992
C17A C 0.5031(3) 0.59133(10) 0.1820(2)
H26A H 0.4267 0.5778 0.1626
C18A C 0.6041(2) 0.56238(10) 0.1877(2)
C19A C 0.7132(3) 0.58412(10) 0.2169(2)
H27A H 0.7845 0.5658 0.2216
C20A C 0.7169(3) 0.63267(11) 0.2388(2)
H28A H 0.7919 0.6473 0.2587
C21A C 0.5999(3) 0.51096(10) 0.1624(2)
H29A H 0.6720(10) 0.4968(8) 0.168(2)
Sn2 Sn 0.91720(3) 0.2500 0.55345(2)
C13 C 0.8166(4) 0.2500 0.6908(4)
H15 H 0.8571 0.2696 0.7497
C14 C 1.1057(4) 0.2500 0.5780(4)
H19 H 1.1381 0.2666 0.5166
C15 C 0.8204(4) 0.2500 0.3962(3)
H23 H 0.7632 0.2234 0.3915
N6 N 0.9293(2) 0.16432(8) 0.55026(19)
C22 C 0.9543(2) 0.13886(10) 0.6434(2)
H30 H 0.9570 0.1552 0.7120
C23 C 0.9763(2) 0.09027(10) 0.6437(2)
H31 H 0.9935 0.0738 0.7115
C24 C 0.9733(2) 0.06524(10) 0.5449(2)
C25 C 0.9444(3) 0.09166(10) 0.4488(2)
H32 H 0.9386 0.0761 0.3793
C26 C 0.9244(3) 0.14000(10) 0.4548(2)
H33 H 0.9061 0.1572 0.3882
C27 C 0.9992(3) 0.01349(10) 0.5444(2)
H34 H 1.021(2) 0.0008(8) 0.6111(9)
H15A H 0.8571 0.2304 0.7497
H19A H 1.1381 0.2334 0.5166
H23A H 0.7632 0.2766 0.3915
C27B C 1.0008(3) -0.01349(10) 0.4556(2)
C24B C 1.0267(2) -0.06524(10) 0.4551(2)
C23B C 1.0237(2) -0.09027(10) 0.3563(2)
C22B C 1.0457(2) -0.13886(10) 0.3566(2)
N6B N 1.0707(2) -0.16432(8) 0.44974(19)
C26B C 1.0756(3) -0.14000(10) 0.5452(2)
C25B C 1.0556(3) -0.09166(10) 0.5512(2)
H32B H 1.0614 -0.0761 0.6207
H33B H 1.0939 -0.1572 0.6118
H30B H 1.0430 -0.1552 0.2880
H31B H 1.0065 -0.0738 0.2885
H34B H 0.979(2) -0.0008(8) 0.3889(9)
N6A N 0.9293(2) 0.33568(8) 0.55026(19)
Sn2B Sn 1.08280(3) -0.2500 0.44655(2)
N7 N 0.2132(2) 0.16228(9) 0.3547(2)
C28 C 0.1762(3) 0.12821(12) 0.2827(3)
H35 H 0.1316 0.1379 0.2164
C29 C 0.1980(3) 0.08027(11) 0.2977(3)
H36 H 0.1686 0.0579 0.2430
C30 C 0.2622(3) 0.06451(11) 0.3916(3)
C31 C 0.3005(3) 0.09941(12) 0.4685(3)
H37 H 0.3446 0.0906 0.5357
C32 C 0.2737(3) 0.14690(12) 0.4461(3)
H38 H 0.3005 0.1701 0.4999
C33 C 0.2880(3) 0.01327(12) 0.4043(3)
H39 H 0.266(3) -0.0056(9) 0.3458(16)
N8 N 0.4086(3) -0.15889(9) 0.5327(2)
C34 C 0.4304(4) -0.12702(13) 0.6134(3)
H40 H 0.4627 -0.1384 0.6833
C35 C 0.4089(4) -0.07893(12) 0.6013(3)
H41 H 0.4268 -0.0580 0.6621
C36 C 0.3617(3) -0.06042(11) 0.5023(2)
C37 C 0.3397(3) -0.09295(11) 0.4176(3)
H42 H 0.3083 -0.0823 0.3467
C38 C 0.3635(3) -0.14092(12) 0.4363(3)
H43 H 0.3466 -0.1626 0.3767
C39 C 0.3386(3) -0.00810(12) 0.4912(3)
H44 H 0.361(3) 0.0095(9) 0.5516(15)
O1 O 0.5931(3) 0.7500 0.2985(3)
O3 O 0.4747(12) 0.7500 0.484(2)
O5 O 0.1264(13) 0.2500 0.2770(15)
O7 O 0.8570(9) 0.1471(5) 0.1932(7)
O8 O 0.9333(8) 0.1824(3) -0.0011(9)
O9 O 1.0298(7) 0.1849(3) -0.1164(6)
O12 O 0.9698(17) 0.2500 0.1255(14)
O14 O 0.2004(5) 0.8575(2) 0.0981(5)
H1? H 0.2448 0.2435 0.0291
H2? H 0.2973 0.2251 -0.0808
H5? H 0.5712 0.2324 0.2583
H6? H 0.4298 0.2344 0.2617
H7? H 0.6067 0.2322 -0.1024
H8? H 0.6930 0.2346 0.0094
H16? H 0.8084 0.2170 0.7170
H17? H 0.7374 0.2634 0.6694
H18? H 1.1315 0.2666 0.6470
H20? H 1.1348 0.2168 0.5817
H21? H 0.8756 0.2461 0.3395
H22? H 0.7777 0.2805 0.3848
O2? O 0.5195(12) 0.7500 0.490(2)
O4? O 0.1836(5) 0.2500 0.2451(6)
O6? O 0.8747(6) 0.1467(3) 0.1325(5)
O10? O 0.9938(18) 0.1984(6) -0.0776(16)
O11? O 1.0012(8) 0.2313(3) 0.0897(6)
O13? O 0.2389(5) 0.8559(2) 0.1512(4)
loop_
_geom_bond_atom_site_label_1
_geom_bond_atom_site_label_2
_geom_bond_site_symmetry_1
_geom_bond_site_symmetry_2
Co1 C1 1_555 1_555
C1 N1 1_555 1_555
C2 Co1 1_555 1_555
N2 C2 1_555 1_555
C3 Co1 1_555 1_555
N3 C3 1_555 1_555
Sn1 C4 1_555 1_555
C4 H3 1_555 1_555
C5 Sn1 1_555 1_555
H4 C5 1_555 1_555
C6 Sn1 1_555 1_555
H9 C6 1_555 1_555
N4 Sn1 1_555 1_555
C7 N4 1_555 1_555
H10 C7 1_555 1_555
C8 C7 1_555 1_555
H11 C8 1_555 1_555
C9 C8 1_555 1_555
C10 C9 1_555 1_555
H12 C10 1_555 1_555
C11 N4 1_555 1_555
H13 C11 1_555 1_555
C12 C9 1_555 1_555
H14 C12 1_555 1_555
Sn2 C13 1_555 1_555
C13 H15 1_555 1_555
C14 Sn2 1_555 1_555
H19 C14 1_555 1_555
C15 Sn2 1_555 1_555
H23 C15 1_555 1_555
N5 H24 1_555 1_555
C16 N5 1_555 1_555
H25 C16 1_555 1_555
C17 C16 1_555 1_555
H26 C17 1_555 1_555
C18 C17 1_555 1_555
C19 C18 1_555 1_555
H27 C19 1_555 1_555
C20 N5 1_555 1_555
H28 C20 1_555 1_555
C21 C12 1_555 1_555
H29 C21 1_555 1_555
N6 Sn2 1_555 1_555
C22 N6 1_555 1_555
H30 C22 1_555 1_555
C23 C22 1_555 1_555
H31 C23 1_555 1_555
C24 C23 1_555 1_555
C25 C24 1_555 1_555
H32 C25 1_555 1_555
C26 N6 1_555 1_555
H33 C26 1_555 1_555
C27 C24 1_555 1_555
H34 C27 1_555 1_555
N7 C28 1_555 1_555
C28 H35 1_555 1_555
C29 C28 1_555 1_555
H36 C29 1_555 1_555
C30 C29 1_555 1_555
C31 C30 1_555 1_555
H37 C31 1_555 1_555
C32 N7 1_555 1_555
H38 C32 1_555 1_555
C33 C30 1_555 1_555
H39 C33 1_555 1_555
N8 C34 1_555 1_555
C34 H40 1_555 1_555
C35 C34 1_555 1_555
H41 C35 1_555 1_555
C36 C35 1_555 1_555
C37 C36 1_555 1_555
H42 C37 1_555 1_555
C38 N8 1_555 1_555
H43 C38 1_555 1_555
C39 C33 1_555 1_555
H44 C39 1_555 1_555
H3A C4 1_555 1_555
H4A C5 1_555 1_555
H9A C6 1_555 1_555
H15A C13 1_555 1_555
H19A C14 1_555 1_555
H23A C15 1_555 1_555
C27B C27 1_555 1_555
C24B C27B 1_555 1_555
C23B C24B 1_555 1_555
C22B C23B 1_555 1_555
N6B C22B 1_555 1_555
C26B N6B 1_555 1_555
C25B C24B 1_555 1_555
H32B C25B 1_555 1_555
H33B C26B 1_555 1_555
H30B C22B 1_555 1_555
H31B C23B 1_555 1_555
H34B C27B 1_555 1_555
C1B Co1 1_555 1_555
N1B C1B 1_555 1_555
C2B Co1 1_555 1_555
N2B C2B 1_555 1_555
C3B Co1 1_555 1_555
N3B C3B 1_555 1_555
N4A Sn1 1_555 1_555
C7A N4A 1_555 1_555
H10A C7A 1_555 1_555
C8A C7A 1_555 1_555
H11A C8A 1_555 1_555
C9A C8A 1_555 1_555
C10A C9A 1_555 1_555
H12A C10A 1_555 1_555
C11A N4A 1_555 1_555
H13A C11A 1_555 1_555
C12A C9A 1_555 1_555
H14A C12A 1_555 1_555
N5A H24A 1_555 1_555
C16A N5A 1_555 1_555
H25A C16A 1_555 1_555
C17A C16A 1_555 1_555
H26A C17A 1_555 1_555
C18A C17A 1_555 1_555
C19A C18A 1_555 1_555
H27A C19A 1_555 1_555
C20A N5A 1_555 1_555
H28A C20A 1_555 1_555
C21A C12A 1_555 1_555
H29A C21A 1_555 1_555
N6A Sn2 1_555 1_555
Sn2B N6B 1_555 1_555
C10 C11 1_555 1_555
C18 C21 1_555 1_555
C19 C20 1_555 1_555
C25 C26 1_555 1_555
C31 C32 1_555 1_555
C36 C39 1_555 1_555
C37 C38 1_555 1_555
C26B C25B 1_555 1_555
C10A C11A 1_555 1_555
C18A C21A 1_555 1_555
C19A C20A 1_555 1_555

#END
