
#######################################################################
#
#                 Cambridge Crystallographic Data Centre
#                                CCDC 
#
#######################################################################
#
# If this CIF has been generated from an entry in the Cambridge 
# Structural Database, then it will include bibliographic, chemical, 
# crystal, experimental, refinement or atomic coordinate data resulting 
# from the CCDC's data processing and validation procedures.
#
#######################################################################

data_BAWKUH
_symmetry_cell_setting           monoclinic
_symmetry_space_group_name_H-M   'P 21/n'
_symmetry_Int_Tables_number      14
_space_group_name_Hall           '-P 2yn'
loop_
_symmetry_equiv_pos_site_id
_symmetry_equiv_pos_as_xyz
1 x,y,z
2 1/2-x,1/2+y,1/2-z
3 -x,-y,-z
4 1/2+x,1/2-y,1/2+z
_cell_length_a                   8.06610(10)
_cell_length_b                   7.6108(2)
_cell_length_c                   10.0272(2)
_cell_angle_alpha                90
_cell_angle_beta                 111.5350(10)
_cell_angle_gamma                90
_cell_volume                     572.594
loop_
_atom_site_label
_atom_site_type_symbol
_atom_site_fract_x
_atom_site_fract_y
_atom_site_fract_z
Cu1 Cu 0.80595(3) 0.90256(3) -0.08115(2)
N1 N 0.72798(19) 0.9304(2) 0.09273(16)
N2 N 0.49336(19) 0.9864(2) 0.17648(16)
C1 C 0.8357(2) 0.8902(2) 0.2271(2)
H1 H 0.9528 0.8570 0.2445
C2 C 0.7768(3) 0.8968(3) 0.3399(2)
H2 H 0.8523 0.8703 0.4329
C3 C 0.6015(3) 0.9443(3) 0.3094(2)
H3 H 0.5576 0.9471 0.3832
C4 C 0.5608(2) 0.9769(2) 0.07415(17)
F1 F 1.10455(14) 0.86195(14) 0.06546(11)
F2 F 0.74832(17) 0.66261(15) -0.08319(12)
O1 O 0.81949(19) 0.87727(17) -0.27390(14)
H4 H 0.787(4) 0.985(2) -0.323(3)
H5 H 0.740(3) 0.792(3) -0.331(3)
Cu1B Cu 0.19405(3) 1.09744(3) 0.08115(2)
Cu1B_2 Cu 1.19405(3) 1.09744(3) 0.08115(2)
N1B N 0.27202(19) 1.0696(2) -0.09273(16)
N2B N 0.50664(19) 1.0136(2) -0.17648(16)
C1B C 0.1643(2) 1.1098(2) -0.2271(2)
H1B H 0.0472 1.1430 -0.2445
C2B C 0.2232(3) 1.1032(3) -0.3399(2)
H2B H 0.1477 1.1297 -0.4329
C3B C 0.3985(3) 1.0557(3) -0.3094(2)
H3B H 0.4424 1.0529 -0.3832
C4B C 0.4392(2) 1.0231(2) -0.07415(17)
F1B F 0.89545(14) 1.13805(14) -0.06546(11)
F1B_2 F -0.10455(14) 1.13805(14) -0.06546(11)
F1_2 F 0.10455(14) 0.86195(14) 0.06546(11)
F2B F 0.25168(17) 1.33739(15) 0.08319(12)
O1B O 0.18051(19) 1.12273(17) 0.27390(14)
H4B H 0.213(4) 1.015(2) 0.323(3)
H5B H 0.260(3) 1.208(3) 0.331(3)
loop_
_geom_bond_atom_site_label_1
_geom_bond_atom_site_label_2
_geom_bond_site_symmetry_1
_geom_bond_site_symmetry_2
Cu1 N1 1_555 1_555
N1 C1 1_555 1_555
N2 C3 1_555 1_555
C1 H1 1_555 1_555
C2 C1 1_555 1_555
H2 C2 1_555 1_555
C3 C2 1_555 1_555
H3 C3 1_555 1_555
C4 N1 1_555 1_555
F1 Cu1 1_555 1_555
F2 Cu1 1_555 1_555
O1 Cu1 1_555 1_555
H4 O1 1_555 1_555
H5 O1 1_555 1_555
Cu1B N2 1_555 1_555
Cu1B_2 F1 1_555 1_555
N1B Cu1B 1_555 1_555
N2B Cu1 1_555 1_555
C1B N1B 1_555 1_555
H1B C1B 1_555 1_555
C2B C1B 1_555 1_555
H2B C2B 1_555 1_555
C3B N2B 1_555 1_555
H3B C3B 1_555 1_555
C4B C4 1_555 1_555
F1B Cu1 1_555 1_555
F1B_2 Cu1B 1_555 1_555
F1_2 Cu1B 1_555 1_555
F2B Cu1B 1_555 1_555
O1B Cu1B 1_555 1_555
H4B O1B 1_555 1_555
H5B O1B 1_555 1_555
N2 C4 1_555 1_555
Cu1B_2 F1B 1_555 1_555
N1B C4B 1_555 1_555
N2B C4B 1_555 1_555
C2B C3B 1_555 1_555

#END
