
#######################################################################
#
#                 Cambridge Crystallographic Data Centre
#                                CCDC 
#
#######################################################################
#
# If this CIF has been generated from an entry in the Cambridge 
# Structural Database, then it will include bibliographic, chemical, 
# crystal, experimental, refinement or atomic coordinate data resulting 
# from the CCDC's data processing and validation procedures.
#
#######################################################################

data_BAWKIV
_symmetry_cell_setting           monoclinic
_symmetry_space_group_name_H-M   'P 21/c'
_symmetry_Int_Tables_number      14
_space_group_name_Hall           '-P 2ybc'
loop_
_symmetry_equiv_pos_site_id
_symmetry_equiv_pos_as_xyz
1 x,y,z
2 -x,1/2+y,1/2-z
3 -x,-y,-z
4 x,1/2-y,1/2+z
_cell_length_a                   11.2224(3)
_cell_length_b                   8.2587(2)
_cell_length_c                   13.2628(4)
_cell_angle_alpha                90
_cell_angle_beta                 99.2450(10)
_cell_angle_gamma                90
_cell_volume                     1213.26
loop_
_atom_site_label
_atom_site_type_symbol
_atom_site_fract_x
_atom_site_fract_y
_atom_site_fract_z
Cu1 Cu 0.502641(18) 0.82858(2) -0.000730(17)
O2 O 0.61263(12) 1.00184(13) 0.04730(10)
H3 H 0.632(4) 1.002(3) 0.1189(8)
C1 C 0.71431(16) 0.6407(2) 0.12431(15)
H4 H 0.7508 0.7381 0.1469
C2 C 0.77057(19) 0.4955(2) 0.15562(17)
H5 H 0.8447 0.4940 0.1986
C3 C 0.71351(18) 0.3533(2) 0.12123(16)
H6 H 0.7498 0.2547 0.1411
C4 C 0.55928(15) 0.49933(17) 0.03342(12)
N1 N 0.60773(13) 0.64169(17) 0.06172(12)
N2 N 0.60616(14) 0.35539(18) 0.05942(12)
Cu1B Cu 0.497359(18) 1.17142(2) 0.000730(17)
Cu1B_2 Cu 0.497359(18) 0.17142(2) 0.000730(17)
O2B O 0.38737(12) 0.99816(13) -0.04730(10)
H3B H 0.368(4) 0.998(3) -0.1189(8)
C1B C 0.28569(16) 0.3593(2) -0.12431(15)
H4B H 0.2492 0.2619 -0.1469
C2B C 0.22943(19) 0.5045(2) -0.15562(17)
H5B H 0.1553 0.5060 -0.1986
C3B C 0.28649(18) 0.6467(2) -0.12123(16)
H6B H 0.2502 0.7453 -0.1411
C4B C 0.44072(15) 0.50067(17) -0.03342(12)
N1B N 0.39227(13) 0.35831(17) -0.06172(12)
N1B_2 N 0.39227(13) 1.35831(17) -0.06172(12)
N2B N 0.39384(14) 0.64461(18) -0.05942(12)
N2_2 N 0.60616(14) 1.35539(18) 0.05942(12)
O1 O 0.43177(16) 0.8242(2) 0.17723(13)
H1 H 0.4932(19) 0.783(3) 0.2280(17)
H2 H 0.374(2) 0.738(3) 0.170(2)
Mn1 Mn 0.0000 1.0000 0.0000
O3 O -0.0027(2) 1.1178(3) 0.14839(14)
H7 H -0.041(2) 1.084(4) 0.2036(16)
H8 H 0.042(2) 1.212(2) 0.171(2)
O4 O 0.18928(15) 0.9411(3) 0.04676(16)
H9 H 0.251(2) 0.966(3) 0.009(2)
H10 H 0.200(3) 0.8318(16) 0.065(2)
O5 O -0.05363(15) 0.7672(2) 0.05206(13)
H11 H -0.102(2) 0.694(3) 0.008(2)
H12 H 0.0107(19) 0.699(3) 0.080(2)
O3B O 0.0027(2) 0.8822(3) -0.14839(14)
H7B H 0.041(2) 0.916(4) -0.2036(16)
H8B H -0.042(2) 0.788(2) -0.171(2)
O4B O -0.18928(15) 1.0589(3) -0.04676(16)
H9B H -0.251(2) 1.034(3) -0.009(2)
H10B H -0.200(3) 1.1682(16) -0.065(2)
O5B O 0.05363(15) 1.2328(2) -0.05206(13)
H11B H 0.102(2) 1.306(3) -0.008(2)
H12B H -0.0107(19) 1.301(3) -0.080(2)
S1 S 0.79774(5) 0.99549(6) 0.33245(4)
O6 O 0.9256(4) 1.0433(5) 0.3182(4)
O7 O 0.7184(5) 0.9949(6) 0.2368(3)
O8 O 0.8097(3) 0.8243(3) 0.3778(3)
O9 O 0.7593(4) 1.1044(5) 0.4092(4)
O10 O 0.58662(16) 0.8292(2) -0.15980(14)
H13 H 0.602(3) 0.9421(14) -0.166(2)
H14 H 0.6612(16) 0.777(3) -0.142(2)
O11? O 0.8934(4) 0.9330(4) 0.2781(3)
O12? O 0.6828(3) 1.0168(6) 0.2564(3)
O13? O 0.7746(3) 0.8831(5) 0.4131(2)
O14? O 0.8334(4) 1.1581(3) 0.3772(4)
loop_
_geom_bond_atom_site_label_1
_geom_bond_atom_site_label_2
_geom_bond_site_symmetry_1
_geom_bond_site_symmetry_2
Cu1 O2 1_555 1_555
O1 H1 1_555 1_555
H2 O1 1_555 1_555
O2 H3 1_555 1_555
C1 H4 1_555 1_555
C2 C1 1_555 1_555
H5 C2 1_555 1_555
C3 C2 1_555 1_555
H6 C3 1_555 1_555
C4 N1 1_555 1_555
N1 Cu1 1_555 1_555
N2 C3 1_555 1_555
Mn1 O3 1_555 1_555
O3 H7 1_555 1_555
H8 O3 1_555 1_555
O4 Mn1 1_555 1_555
H9 O4 1_555 1_555
H10 O4 1_555 1_555
O5 Mn1 1_555 1_555
H11 O5 1_555 1_555
H12 O5 1_555 1_555
S1 O6 1_555 1_555
O7 S1 1_555 1_555
O8 S1 1_555 1_555
O9 S1 1_555 1_555
O10 H13 1_555 1_555
H14 O10 1_555 1_555
Cu1B O2 1_555 1_555
Cu1B_2 N2 1_555 1_555
O2B Cu1 1_555 1_555
H3B O2B 1_555 1_555
C1B H4B 1_555 1_555
C2B C1B 1_555 1_555
H5B C2B 1_555 1_555
C3B C2B 1_555 1_555
H6B C3B 1_555 1_555
C4B C4 1_555 1_555
N1B Cu1B_2 1_555 1_555
N1B_2 Cu1B 1_555 1_555
N2B Cu1 1_555 1_555
N2_2 Cu1B 1_555 1_555
O3B Mn1 1_555 1_555
H7B O3B 1_555 1_555
H8B O3B 1_555 1_555
O4B Mn1 1_555 1_555
H9B O4B 1_555 1_555
H10B O4B 1_555 1_555
O5B Mn1 1_555 1_555
H11B O5B 1_555 1_555
H12B O5B 1_555 1_555
C1 N1 1_555 1_555
C4 N2 1_555 1_555
Cu1B O2B 1_555 1_555
C1B N1B 1_555 1_555
C3B N2B 1_555 1_555
C4B N1B 1_555 1_555
C4B N2B 1_555 1_555

#END
