
#######################################################################
#
#                 Cambridge Crystallographic Data Centre
#                                CCDC 
#
#######################################################################
#
# If this CIF has been generated from an entry in the Cambridge 
# Structural Database, then it will include bibliographic, chemical, 
# crystal, experimental, refinement or atomic coordinate data resulting 
# from the CCDC's data processing and validation procedures.
#
#######################################################################

data_BAWQIB
_symmetry_cell_setting           triclinic
_symmetry_space_group_name_H-M   'P -1'
_symmetry_Int_Tables_number      2
_space_group_name_Hall           '-P 1'
loop_
_symmetry_equiv_pos_site_id
_symmetry_equiv_pos_as_xyz
1 x,y,z
2 -x,-y,-z
_cell_length_a                   9.0695(7)
_cell_length_b                   9.3491(7)
_cell_length_c                   10.5511(8)
_cell_angle_alpha                80.933(6)
_cell_angle_beta                 75.831(7)
_cell_angle_gamma                61.733(8)
_cell_volume                     763.078
loop_
_atom_site_label
_atom_site_type_symbol
_atom_site_fract_x
_atom_site_fract_y
_atom_site_fract_z
Zn1 Zn 1.0000 0.0000 1.0000
O1 O 1.06259(19) -0.0099(2) 1.18404(14)
H1 H 1.142(2) -0.001(3) 1.200(2)
H2 H 0.992(3) -0.016(3) 1.2465(18)
N1 N 1.0615(2) 0.1959(2) 0.92605(15)
C1 C 0.9755(3) 0.3137(3) 0.84532(19)
H3 H 0.8846 0.3188 0.8123
N2 N 1.0337(2) 0.4225(2) 0.81736(15)
N3 N 1.1642(2) 0.3796(2) 0.88103(16)
C2 C 1.1757(3) 0.2427(3) 0.94440(19)
H4 H 1.2571 0.1815 0.9986
C3 C 0.9806(3) 0.5667(2) 0.72934(18)
H5 H 0.9519 0.6626 0.7770
H6 H 0.8763 0.5845 0.7015
C4 C 1.1175(2) 0.5526(2) 0.60930(18)
C5 C 1.1284(3) 0.6929(2) 0.55249(19)
H7 H 1.0542 0.7939 0.5919
C6 C 1.2461(3) 0.6866(2) 0.43934(19)
H8 H 1.2509 0.7838 0.4012
C7 C 1.3570(2) 0.5409(2) 0.38078(18)
C8 C 1.3499(3) 0.4000(2) 0.43884(19)
H9 H 1.4272 0.2985 0.4012
C9 C 1.2299(3) 0.4068(3) 0.55197(19)
H10 H 1.2254 0.3097 0.5904
C10 C 1.4840(3) 0.5450(2) 0.25794(19)
H11 H 1.4255 0.6424 0.2025
H12 H 1.5762 0.5560 0.2832
N4 N 1.5599(2) 0.4022(2) 0.18131(15)
N5 N 1.4645(2) 0.3621(2) 0.12424(16)
C11 C 1.5825(3) 0.2311(3) 0.06328(19)
H13 H 1.5557 0.1725 0.0142
N6 N 1.7447(2) 0.1851(2) 0.07499(14)
C12 C 1.7222(3) 0.2977(2) 0.15040(18)
H14 H 1.8118 0.3021 0.1784
Zn1_2 Zn 0.0000 0.0000 2.0000
Zn1_3 Zn 2.0000 0.0000 0.0000
O1A O 0.93741(19) 0.0099(2) 0.81596(14)
H1A H 0.858(2) 0.001(3) 0.800(2)
H2A H 1.008(3) 0.016(3) 0.7535(18)
N1A N 0.9385(2) -0.1959(2) 1.07395(15)
C1A C 1.0245(3) -0.3137(3) 1.15468(19)
H3A H 1.1154 -0.3188 1.1877
N2A N 0.9663(2) -0.4225(2) 1.18264(15)
N3A N 0.8358(2) -0.3796(2) 1.11897(16)
C2A C 0.8243(3) -0.2427(3) 1.05560(19)
H4A H 0.7429 -0.1815 1.0014
C3A C 1.0194(3) -0.5667(2) 1.27066(18)
H5A H 1.0481 -0.6626 1.2230
H6A H 1.1237 -0.5845 1.2985
C4A C 0.8825(2) -0.5526(2) 1.39070(18)
C5A C 0.8716(3) -0.6929(2) 1.44751(19)
H7A H 0.9458 -0.7939 1.4081
C6A C 0.7539(3) -0.6866(2) 1.56066(19)
H8A H 0.7491 -0.7838 1.5988
C7A C 0.6430(2) -0.5409(2) 1.61922(18)
C8A C 0.6501(3) -0.4000(2) 1.56116(19)
H9A H 0.5728 -0.2985 1.5988
C9A C 0.7701(3) -0.4068(3) 1.44803(19)
H10A H 0.7746 -0.3097 1.4096
C10A C 0.5160(3) -0.5450(2) 1.74206(19)
H11A H 0.5745 -0.6424 1.7975
H12A H 0.4238 -0.5560 1.7168
N4A N 0.4401(2) -0.4022(2) 1.81869(15)
N5A N 0.5355(2) -0.3621(2) 1.87576(16)
C11A C 0.4175(3) -0.2311(3) 1.93672(19)
H13A H 0.4443 -0.1725 1.9858
N6A N 0.2553(2) -0.1851(2) 1.92501(14)
N6_2 N 0.7447(2) 0.1851(2) 1.07499(14)
N6A_2 N 1.2553(2) -0.1851(2) 0.92501(14)
C12A C 0.2778(3) -0.2977(2) 1.84960(18)
H14A H 0.1882 -0.3021 1.8216
O2 O 1.8050(2) -0.0170(2) 1.37451(16)
H15 H 1.776(3) -0.017(3) 1.4551(16)
H16 H 1.725(3) -0.010(3) 1.346(2)
N7 N 1.3973(2) 0.0062(2) 1.27498(18)
O3 O 1.2614(16) 0.0599(15) 1.3622(15)
O4 O 1.3882(19) -0.0267(17) 1.1652(12)
O5 O 1.536(2) -0.0185(16) 1.294(2)
O6? O 1.2497(16) 0.040(2) 1.3273(18)
O7? O 1.436(3) -0.015(2) 1.1596(17)
O8? O 1.492(3) 0.007(2) 1.342(2)
loop_
_geom_bond_atom_site_label_1
_geom_bond_atom_site_label_2
_geom_bond_site_symmetry_1
_geom_bond_site_symmetry_2
Zn1 O1 1_555 1_555
O1 H1 1_555 1_555
H2 O1 1_555 1_555
N1 Zn1 1_555 1_555
C1 N1 1_555 1_555
H3 C1 1_555 1_555
N2 C1 1_555 1_555
N3 N2 1_555 1_555
C2 N1 1_555 1_555
H4 C2 1_555 1_555
C3 N2 1_555 1_555
H5 C3 1_555 1_555
H6 C3 1_555 1_555
C4 C3 1_555 1_555
C5 C4 1_555 1_555
H7 C5 1_555 1_555
C6 C5 1_555 1_555
H8 C6 1_555 1_555
C7 C6 1_555 1_555
C8 C7 1_555 1_555
H9 C8 1_555 1_555
C9 C4 1_555 1_555
H10 C9 1_555 1_555
C10 C7 1_555 1_555
H11 C10 1_555 1_555
H12 C10 1_555 1_555
N4 C10 1_555 1_555
N5 N4 1_555 1_555
C11 N5 1_555 1_555
H13 C11 1_555 1_555
N6 C11 1_555 1_555
C12 N4 1_555 1_555
H14 C12 1_555 1_555
O2 H15 1_555 1_555
H16 O2 1_555 1_555
N7 O3 1_555 1_555
O4 N7 1_555 1_555
O5 N7 1_555 1_555
Zn1_2 N6A 1_555 1_555
Zn1_3 N6 1_555 1_555
O1A Zn1 1_555 1_555
H1A O1A 1_555 1_555
H2A O1A 1_555 1_555
N1A Zn1 1_555 1_555
C1A N1A 1_555 1_555
H3A C1A 1_555 1_555
N2A C1A 1_555 1_555
N3A N2A 1_555 1_555
C2A N1A 1_555 1_555
H4A C2A 1_555 1_555
C3A N2A 1_555 1_555
H5A C3A 1_555 1_555
H6A C3A 1_555 1_555
C4A C3A 1_555 1_555
C5A C4A 1_555 1_555
H7A C5A 1_555 1_555
C6A C5A 1_555 1_555
H8A C6A 1_555 1_555
C7A C6A 1_555 1_555
C8A C7A 1_555 1_555
H9A C8A 1_555 1_555
C9A C4A 1_555 1_555
H10A C9A 1_555 1_555
C10A C7A 1_555 1_555
H11A C10A 1_555 1_555
H12A C10A 1_555 1_555
N4A C10A 1_555 1_555
N5A N4A 1_555 1_555
C11A N5A 1_555 1_555
H13A C11A 1_555 1_555
N6A C11A 1_555 1_555
N6_2 Zn1 1_555 1_555
N6A_2 Zn1 1_555 1_555
C12A N4A 1_555 1_555
H14A C12A 1_555 1_555
N3 C2 1_555 1_555
C8 C9 1_555 1_555
N6 C12 1_555 1_555
N3A C2A 1_555 1_555
C8A C9A 1_555 1_555
N6A C12A 1_555 1_555

#END
