
#######################################################################
#
#                 Cambridge Crystallographic Data Centre
#                                CCDC 
#
#######################################################################
#
# If this CIF has been generated from an entry in the Cambridge 
# Structural Database, then it will include bibliographic, chemical, 
# crystal, experimental, refinement or atomic coordinate data resulting 
# from the CCDC's data processing and validation procedures.
#
#######################################################################

data_BAWQIB01
_symmetry_cell_setting           monoclinic
_symmetry_space_group_name_H-M   'C 2/m'
_symmetry_Int_Tables_number      12
_space_group_name_Hall           '-C 2y'
loop_
_symmetry_equiv_pos_site_id
_symmetry_equiv_pos_as_xyz
1 x,y,z
2 -x,y,-z
3 1/2+x,1/2+y,z
4 1/2-x,1/2+y,-z
5 -x,-y,-z
6 x,-y,z
7 1/2-x,1/2-y,-z
8 1/2+x,1/2-y,z
_cell_length_a                   9.068(3)
_cell_length_b                   16.659(6)
_cell_length_c                   10.581(4)
_cell_angle_alpha                90
_cell_angle_beta                 104.331(6)
_cell_angle_gamma                90
_cell_volume                     1548.67
loop_
_atom_site_label
_atom_site_type_symbol
_atom_site_fract_x
_atom_site_fract_y
_atom_site_fract_z
Zn1 Zn 0.0000 0.5000 0.0000
O1 O 0.0567(5) 0.5000 -0.1846(4)
C1 C 0.2981(4) 0.3823(3) 0.0586(4)
H1 H 0.3496 0.4109 0.0073
N1 N 0.1612(3) 0.4052(2) 0.0747(3)
N2 N 0.2422(4) 0.2963(2) 0.1820(3)
N3 N 0.3531(4) 0.3161(3) 0.1213(4)
C2 C 0.3832(4) 0.2303(2) 0.3856(4)
C3 C 0.4417(5) 0.3011(2) 0.4438(4)
H2 H 0.4022 0.3497 0.4070
C4 C 0.2550(5) 0.2258(3) 0.2652(4)
H3 H 0.2694 0.1789 0.2153
H4 H 0.1603 0.2188 0.2909
C5 C 0.1324(4) 0.3491(3) 0.1537(4)
H5 H 0.0453 0.3475 0.1851
C6 C 0.4430(6) 0.1596(3) 0.4436(4)
H6 H 0.4055 0.1110 0.4057
C1A C 0.7019(4) 0.3823(3) 0.9414(4)
H1A H 0.6504 0.4109 0.9927
N1A N 0.8388(3) 0.4052(2) 0.9253(3)
N2A N 0.7578(4) 0.2963(2) 0.8180(3)
N3A N 0.6469(4) 0.3161(3) 0.8787(4)
C2A C 0.6168(4) 0.2303(2) 0.6144(4)
C3A C 0.5583(5) 0.3011(2) 0.5562(4)
H2A H 0.5978 0.3497 0.5930
C4A C 0.7450(5) 0.2258(3) 0.7348(4)
H3A H 0.7306 0.1789 0.7847
H4A H 0.8397 0.2188 0.7091
C5A C 0.8676(4) 0.3491(3) 0.8463(4)
H5A H 0.9547 0.3475 0.8149
C6A C 0.5570(6) 0.1596(3) 0.5564(4)
H6A H 0.5945 0.1110 0.5943
O1A O -0.0567(5) 0.5000 0.1846(4)
C1E C 0.2981(4) 0.6177(3) 0.0586(4)
H1E H 0.3496 0.5891 0.0073
N1E N 0.1612(3) 0.5948(2) 0.0747(3)
N2E N 0.2422(4) 0.7037(2) 0.1820(3)
N3E N 0.3531(4) 0.6839(3) 0.1213(4)
C2E C 0.3832(4) 0.7697(2) 0.3856(4)
C3E C 0.4417(5) 0.6989(2) 0.4438(4)
H2E H 0.4022 0.6503 0.4070
C4E C 0.2550(5) 0.7742(3) 0.2652(4)
H3E H 0.2694 0.8211 0.2153
H4E H 0.1603 0.7812 0.2909
C5E C 0.1324(4) 0.6509(3) 0.1537(4)
H5E H 0.0453 0.6525 0.1851
C6E C 0.4430(6) 0.8404(3) 0.4436(4)
H6E H 0.4055 0.8890 0.4057
C1D C 0.7019(4) 0.6177(3) 0.9414(4)
H1D H 0.6504 0.5891 0.9927
N1D N 0.8388(3) 0.5948(2) 0.9253(3)
N2D N 0.7578(4) 0.7037(2) 0.8180(3)
N3D N 0.6469(4) 0.6839(3) 0.8787(4)
C2D C 0.6168(4) 0.7697(2) 0.6144(4)
C3D C 0.5583(5) 0.6989(2) 0.5562(4)
H2D H 0.5978 0.6503 0.5930
C4D C 0.7450(5) 0.7742(3) 0.7348(4)
H3D H 0.7306 0.8211 0.7847
H4D H 0.8397 0.7812 0.7091
C5D C 0.8676(4) 0.6509(3) 0.8463(4)
H5D H 0.9547 0.6525 0.8149
C6D C 0.5570(6) 0.8404(3) 0.5564(4)
H6D H 0.5945 0.8890 0.5943
Zn1_2 Zn 1.0000 0.5000 1.0000
N1A_2 N -0.1612(3) 0.4052(2) -0.0747(3)
N1D_2 N -0.1612(3) 0.5948(2) -0.0747(3)
O2 O -0.0110(8) 0.0000 0.3124(9)
O3 O 0.1069(9) 0.0000 0.1641(6)
O4 O 0.2268(8) 0.0000 0.3475(7)
N4 N 0.1026(4) 0.0000 0.2763(4)
O5 O 0.2924(5) 0.0000 0.6257(5)
loop_
_geom_bond_atom_site_label_1
_geom_bond_atom_site_label_2
_geom_bond_site_symmetry_1
_geom_bond_site_symmetry_2
Zn1 O1 1_555 1_555
C1 H1 1_555 1_555
N1 Zn1 1_555 1_555
N2 N3 1_555 1_555
N3 C1 1_555 1_555
C2 C3 1_555 1_555
C3 H2 1_555 1_555
C4 N2 1_555 1_555
H3 C4 1_555 1_555
H4 C4 1_555 1_555
C5 N1 1_555 1_555
H5 C5 1_555 1_555
C6 C2 1_555 1_555
H6 C6 1_555 1_555
O2 N4 1_555 1_555
O3 N4 1_555 1_555
O4 N4 1_555 1_555
C1A H1A 1_555 1_555
N1A C1A 1_555 1_555
N2A N3A 1_555 1_555
N3A C1A 1_555 1_555
C2A C3A 1_555 1_555
C3A C3 1_555 1_555
H2A C3A 1_555 1_555
C4A N2A 1_555 1_555
H3A C4A 1_555 1_555
H4A C4A 1_555 1_555
C5A N1A 1_555 1_555
H5A C5A 1_555 1_555
C6A C6 1_555 1_555
H6A C6A 1_555 1_555
O1A Zn1 1_555 1_555
C1E H1E 1_555 1_555
N1E Zn1 1_555 1_555
N2E N3E 1_555 1_555
N3E C1E 1_555 1_555
C2E C3E 1_555 1_555
C3E H2E 1_555 1_555
C4E N2E 1_555 1_555
H3E C4E 1_555 1_555
H4E C4E 1_555 1_555
C5E N1E 1_555 1_555
H5E C5E 1_555 1_555
C6E C2E 1_555 1_555
H6E C6E 1_555 1_555
C1D H1D 1_555 1_555
N1D C1D 1_555 1_555
N2D N3D 1_555 1_555
N3D C1D 1_555 1_555
C2D C3D 1_555 1_555
C3D C3E 1_555 1_555
H2D C3D 1_555 1_555
C4D N2D 1_555 1_555
H3D C4D 1_555 1_555
H4D C4D 1_555 1_555
C5D N1D 1_555 1_555
H5D C5D 1_555 1_555
C6D C6E 1_555 1_555
H6D C6D 1_555 1_555
Zn1_2 N1A 1_555 1_555
N1A_2 Zn1 1_555 1_555
N1D_2 Zn1 1_555 1_555
C1 N1 1_555 1_555
N2 C5 1_555 1_555
C2 C4 1_555 1_555
N2A C5A 1_555 1_555
C2A C4A 1_555 1_555
C2A C6A 1_555 1_555
C1E N1E 1_555 1_555
N2E C5E 1_555 1_555
C2E C4E 1_555 1_555
N1D Zn1_2 1_555 1_555
N2D C5D 1_555 1_555
C2D C4D 1_555 1_555
C2D C6D 1_555 1_555

#END
