
#######################################################################
#
#                 Cambridge Crystallographic Data Centre
#                                CCDC 
#
#######################################################################
#
# If this CIF has been generated from an entry in the Cambridge 
# Structural Database, then it will include bibliographic, chemical, 
# crystal, experimental, refinement or atomic coordinate data resulting 
# from the CCDC's data processing and validation procedures.
#
#######################################################################

data_BAWRUO
_symmetry_cell_setting           monoclinic
_symmetry_space_group_name_H-M   'C 2/c'
_symmetry_Int_Tables_number      15
_space_group_name_Hall           '-C 2yn'
loop_
_symmetry_equiv_pos_site_id
_symmetry_equiv_pos_as_xyz
1 x,y,z
2 -x,y,1/2-z
3 1/2+x,1/2+y,z
4 1/2-x,1/2+y,1/2-z
5 -x,-y,-z
6 x,-y,1/2+z
7 1/2-x,1/2-y,-z
8 1/2+x,1/2-y,1/2+z
_cell_length_a                   25.903(5)
_cell_length_b                   17.021(3)
_cell_length_c                   16.723(3)
_cell_angle_alpha                90
_cell_angle_beta                 103.415(2)
_cell_angle_gamma                90
_cell_volume                     7171.91
loop_
_atom_site_label
_atom_site_type_symbol
_atom_site_fract_x
_atom_site_fract_y
_atom_site_fract_z
O27 O 0.2542(4) 0.1278(6) 0.4856(6)
O28 O 0.1585(5) 0.2543(8) 0.6166(9)
O29 O 0.1235(6) 0.1405(8) 0.7194(9)
O30 O -0.2319(6) 0.2683(8) 0.1211(8)
O31 O 0.4689(5) 0.2590(8) 0.4895(9)
O32 O -0.1214(6) 0.2534(8) 0.0711(9)
O33 O 0.3336(7) -0.2512(12) 0.6563(10)
O34 O 0.1190(8) 0.3623(10) 0.7241(16)
O35 O 0.0117(8) 0.3222(12) 0.6519(12)
O36 O 0.0303(12) 0.1361(18) 0.6434(19)
U1 U 0.406891(16) 0.02303(2) 0.55190(2)
U2 U 0.634890(15) 0.26241(2) 0.62610(2)
U3 U 0.101541(16) 0.02574(3) 0.46879(3)
U4 U 0.257086(16) 0.00151(2) 0.76944(3)
P1 P 0.62362(11) 0.09146(17) 0.75682(17)
P2 P 0.21201(11) -0.07608(17) 0.56484(17)
P3 P 0.63038(11) 0.41809(17) 0.77492(17)
P4 P 0.54007(11) 0.09858(17) 0.59454(17)
P5 P 0.54008(11) 0.42200(18) 0.61701(18)
P6 P 0.29747(11) -0.10384(17) 0.46541(17)
O1 O 0.6667(3) 0.4832(5) 0.7576(5)
O2 O 0.6434(3) 0.3381(5) 0.7442(5)
O3 O 0.4795(3) 0.4260(5) 0.5965(5)
O4 O 0.2511(3) -0.0507(5) 0.6434(5)
O5 O 0.4792(3) 0.1039(5) 0.5670(5)
O6 O 0.6420(3) 0.1716(5) 0.7341(5)
O7 O 0.5644(3) 0.1778(5) 0.5829(5)
O8 O 0.7322(3) 0.2712(5) 0.7010(5)
O9 O 0.6557(3) 0.0240(5) 0.7323(5)
O10 O 0.1908(3) -0.0049(5) 0.5121(5)
O11 O 0.6243(3) 0.0902(5) 0.8497(5)
O12 O 0.3678(3) 0.0877(5) 0.4781(5)
O13 O 0.6311(3) 0.4129(5) 0.8671(5)
O14 O 0.2705(3) -0.0966(5) 0.8082(5)
O15 O 0.2405(3) 0.0979(5) 0.7288(5)
O16 O 0.5584(3) 0.3382(5) 0.6027(5)
O17 O 0.5624(3) 0.0324(5) 0.5510(5)
O18 O 0.1654(3) -0.1227(5) 0.5821(5)
O19 O 0.2731(3) -0.0433(5) 0.4019(5)
O20 O 0.4460(3) -0.0394(5) 0.6283(5)
O21 O 0.0880(3) -0.0639(5) 0.4123(5)
O22 O 0.3404(3) -0.0680(5) 0.5331(5)
O23 O 0.3185(3) -0.1751(5) 0.4269(5)
O24 O 0.1152(4) 0.1147(5) 0.5257(5)
O25 O 0.6036(4) 0.2748(5) 0.4700(5)
O26 O 0.5633(4) 0.4845(6) 0.5702(6)
C1 C 0.5555(4) 0.0787(7) 0.7036(6)
H1 H 0.5338 0.1129 0.7289
H2 H 0.5452 0.0250 0.7117
C2 C 0.5623(5) 0.4419(7) 0.7244(7)
H3 H 0.5572 0.4975 0.7326
H4 H 0.5393 0.4137 0.7527
C3 C 0.2456(4) -0.1408(7) 0.5097(6)
H5 H 0.2190 -0.1640 0.4655
H6 H 0.2606 -0.1831 0.5467
U1A U 0.593109(16) 0.02303(2) 0.94810(2)
U1D U 0.593109(16) -0.02303(2) 0.44810(2)
U2B U 0.134890(15) -0.23759(2) 0.62610(2)
U2D U 0.365110(15) -0.26241(2) 0.37390(2)
U3F U 0.398459(16) 0.47426(3) 0.53121(3)
U3G U 0.601541(16) 0.47426(3) 0.96879(3)
U3B U 0.601541(16) 0.52574(3) 0.46879(3)
U4B U 0.757086(16) 0.50151(2) 0.76944(3)
U4A U 0.742914(16) 0.00151(2) 0.73056(3)
U4E U 0.257086(16) -0.00151(2) 0.26944(3)
O1B O 0.1667(3) -0.0168(5) 0.7576(5)
O3F O 0.0205(3) 0.0740(5) 0.4035(5)
O9A O 0.3443(3) 0.0240(5) 0.7677(5)
O11A O 0.3757(3) 0.0902(5) 0.6503(5)
O13G O 0.1311(3) 0.0871(5) 0.3671(5)
O17D O 0.4376(3) -0.0324(5) 0.4490(5)
O18B O 0.6654(3) 0.3773(5) 0.5821(5)
O19E O 0.2731(3) 0.0433(5) 0.9019(5)
O23D O 0.6815(3) 0.1751(5) 0.5731(5)
O26B O 0.0633(4) -0.0155(6) 0.5702(6)
loop_
_geom_bond_atom_site_label_1
_geom_bond_atom_site_label_2
_geom_bond_site_symmetry_1
_geom_bond_site_symmetry_2
U1 O5 1_555 1_555
U2 O2 1_555 1_555
U3 O10 1_555 1_555
U4 O4 1_555 1_555
P1 O6 1_555 1_555
P2 O4 1_555 1_555
P3 O1 1_555 1_555
P4 O5 1_555 1_555
P5 O3 1_555 1_555
P6 O19 1_555 1_555
O1 U4B 1_555 1_555
O2 P3 1_555 1_555
O3 U3F 1_555 1_555
O6 U2 1_555 1_555
O7 U2 1_555 1_555
O8 U2 1_555 1_555
O9 P1 1_555 1_555
O10 P2 1_555 1_555
O11 P1 1_555 1_555
O12 U1 1_555 1_555
O13 P3 1_555 1_555
O14 U4 1_555 1_555
O15 U4 1_555 1_555
O16 U2 1_555 1_555
O17 P4 1_555 1_555
O18 P2 1_555 1_555
O19 U4E 1_555 1_555
O20 U1 1_555 1_555
O21 U3 1_555 1_555
O22 U1 1_555 1_555
O23 P6 1_555 1_555
O24 U3 1_555 1_555
O25 U2 1_555 1_555
O26 P5 1_555 1_555
C1 P1 1_555 1_555
H1 C1 1_555 1_555
H2 C1 1_555 1_555
C2 P3 1_555 1_555
H3 C2 1_555 1_555
H4 C2 1_555 1_555
C3 P2 1_555 1_555
H5 C3 1_555 1_555
H6 C3 1_555 1_555
U1A O11 1_555 1_555
U1D O17 1_555 1_555
U2B O18 1_555 1_555
U2D O23 1_555 1_555
U3G O13 1_555 1_555
U3B O26 1_555 1_555
U4A O9 1_555 1_555
O1B U4 1_555 1_555
O3F U3 1_555 1_555
O9A U4 1_555 1_555
O11A U1 1_555 1_555
O13G U3 1_555 1_555
O17D U1 1_555 1_555
O18B U2 1_555 1_555
O19E U4 1_555 1_555
O23D U2 1_555 1_555
O26B U3 1_555 1_555
P4 O7 1_555 1_555
P4 C1 1_555 1_555
P5 O16 1_555 1_555
P5 C2 1_555 1_555
P6 O22 1_555 1_555
P6 C3 1_555 1_555

#END
