
#######################################################################
#
#                 Cambridge Crystallographic Data Centre
#                                CCDC 
#
#######################################################################
#
# If this CIF has been generated from an entry in the Cambridge 
# Structural Database, then it will include bibliographic, chemical, 
# crystal, experimental, refinement or atomic coordinate data resulting 
# from the CCDC's data processing and validation procedures.
#
#######################################################################

data_BAWROH
_symmetry_cell_setting           orthorhombic
_symmetry_space_group_name_H-M   'I m m a'
_symmetry_Int_Tables_number      74
_space_group_name_Hall           '-I 2b 2'
loop_
_symmetry_equiv_pos_site_id
_symmetry_equiv_pos_as_xyz
1 x,y,z
2 1/2+x,1/2+y,1/2+z
3 x,1/2+y,-z
4 x,1/2-y,z
5 -x,y,z
6 1/2+x,y,1/2-z
7 1/2+x,-y,1/2+z
8 1/2-x,1/2+y,1/2+z
9 -x,-y,-z
10 1/2-x,1/2-y,1/2-z
11 -x,1/2-y,z
12 -x,1/2+y,-z
13 x,-y,-z
14 1/2-x,-y,1/2+z
15 1/2-x,y,1/2-z
16 1/2+x,1/2-y,1/2-z
_cell_length_a                   20.6311(7)
_cell_length_b                   14.4631(4)
_cell_length_c                   15.3892(5)
_cell_angle_alpha                90
_cell_angle_beta                 90
_cell_angle_gamma                90
_cell_volume                     4591.98
loop_
_atom_site_label
_atom_site_type_symbol
_atom_site_fract_x
_atom_site_fract_y
_atom_site_fract_z
Cu1 Cu 0.5000 0.14339(5) 0.72223(4)
N1 N 0.4371(2) 0.1328(3) 0.6227(3)
N2 N 0.5000 -0.0055(4) 0.7615(3)
O1 O 0.56676(19) 0.1730(3) 0.8058(2)
C1 C 0.4640(4) 0.1264(4) 0.5439(3)
C2 C 0.4266(7) 0.1196(5) 0.4694(5)
H1 H 0.4468 0.1132 0.4133
C3 C 0.3604(8) 0.1202(8) 0.4762(9)
H2 H 0.3349 0.1196 0.4239
C4 C 0.3339(5) 0.1245(6) 0.5558(9)
H3 H 0.2874 0.1222 0.5607
C5 C 0.3724(4) 0.1319(4) 0.6296(6)
H4 H 0.3532 0.1342 0.6866
C6 C 0.4449(3) -0.0528(4) 0.7680(3)
H5 H 0.4044 -0.0199 0.7639
C7 C 0.4425(3) -0.1479(3) 0.7777(3)
H6 H 0.4016 -0.1790 0.7848
C8 C 0.5000 -0.1984(5) 0.7806(4)
C9 C 0.5830(3) 0.2500 0.8379(4)
C10 C 0.6215(3) 0.2500 0.9189(4)
C11 C 0.6391(3) 0.1677(4) 0.9583(3)
H7 H 0.6272 0.1102 0.9310
C12 C 0.6729(3) 0.1665(5) 1.0354(3)
H8 H 0.6846 0.1090 1.0627
C13 C 0.6903(4) 0.2500 1.0747(4)
N3 N 0.7233(4) 0.2500 1.1549(4)
H9 H 0.7343 0.1960 1.1803
C1D C 0.5360(4) 0.1264(4) 0.5439(3)
N1D N 0.5629(2) 0.1328(3) 0.6227(3)
C5D C 0.6276(4) 0.1319(4) 0.6296(6)
C4D C 0.6661(5) 0.1245(6) 0.5558(9)
C3D C 0.6396(8) 0.1202(8) 0.4762(9)
C2D C 0.5734(7) 0.1196(5) 0.4694(5)
H1D H 0.5532 0.1132 0.4133
H2D H 0.6651 0.1196 0.4239
H3D H 0.7126 0.1222 0.5607
H4D H 0.6468 0.1342 0.6866
C7D C 0.5575(3) -0.1479(3) 0.7777(3)
C6D C 0.5551(3) -0.0528(4) 0.7680(3)
H5D H 0.5956 -0.0199 0.7639
H6D H 0.5984 -0.1790 0.7848
C8C C 0.5000 -0.3016(5) 0.7806(4)
C7C C 0.4425(3) -0.3521(3) 0.7777(3)
C6C C 0.4449(3) -0.4472(4) 0.7680(3)
N2C N 0.5000 -0.4945(4) 0.7615(3)
C6J C 0.5551(3) -0.4472(4) 0.7680(3)
H5J H 0.5956 -0.4801 0.7639
C7J C 0.5575(3) -0.3521(3) 0.7777(3)
H6J H 0.5984 -0.3210 0.7848
H5C H 0.4044 -0.4801 0.7639
H6C H 0.4016 -0.3210 0.7848
O1C O 0.56676(19) 0.3270(3) 0.8058(2)
C12C C 0.6729(3) 0.3335(5) 1.0354(3)
C11C C 0.6391(3) 0.3323(4) 0.9583(3)
H7C H 0.6272 0.3898 0.9310
H8C H 0.6846 0.3910 1.0627
H9C H 0.7343 0.3040 1.1803
O1D O 0.43324(19) 0.1730(3) 0.8058(2)
C9D C 0.4170(3) 0.2500 0.8379(4)
C10D C 0.3785(3) 0.2500 0.9189(4)
C11D C 0.3609(3) 0.1677(4) 0.9583(3)
H7D H 0.3728 0.1102 0.9310
C12D C 0.3271(3) 0.1665(5) 1.0354(3)
H8D H 0.3154 0.1090 1.0627
C13D C 0.3097(4) 0.2500 1.0747(4)
N3D N 0.2767(4) 0.2500 1.1549(4)
H9D H 0.2657 0.1960 1.1803
O1J O 0.43324(19) 0.3270(3) 0.8058(2)
C12J C 0.3271(3) 0.3335(5) 1.0354(3)
C11J C 0.3609(3) 0.3323(4) 0.9583(3)
H7J H 0.3728 0.3898 0.9310
H8J H 0.3154 0.3910 1.0627
H9J H 0.2657 0.3040 1.1803
Cu1C Cu 0.5000 -0.64339(5) 0.72223(4)
Cu1C_2 Cu 0.5000 0.35661(5) 0.72223(4)
N1C N 0.4371(2) 0.3672(3) 0.6227(3)
N1J N 0.5629(2) 0.3672(3) 0.6227(3)
N2C_2 N 0.5000 0.5055(4) 0.7615(3)
C1C C 0.4640(4) 0.3736(4) 0.5439(3)
C5C C 0.3724(4) 0.3681(4) 0.6296(6)
C1J C 0.5360(4) 0.3736(4) 0.5439(3)
C5J C 0.6276(4) 0.3681(4) 0.6296(6)
C2C C 0.4266(7) 0.3804(5) 0.4694(5)
C4C C 0.3339(5) 0.3755(6) 0.5558(9)
H4C H 0.3532 0.3658 0.6866
C2J C 0.5734(7) 0.3804(5) 0.4694(5)
C4J C 0.6661(5) 0.3755(6) 0.5558(9)
H4J H 0.6468 0.3658 0.6866
H1C H 0.4468 0.3868 0.4133
C3C C 0.3604(8) 0.3798(8) 0.4762(9)
H3C H 0.2874 0.3778 0.5607
H1J H 0.5532 0.3868 0.4133
C3J C 0.6396(8) 0.3798(8) 0.4762(9)
H3J H 0.7126 0.3778 0.5607
H2C H 0.3349 0.3804 0.4239
H2J H 0.6651 0.3804 0.4239
Cl1 Cl 0.2500 0.0100(8) 0.2500
O2 O 0.2911(3) 0.0669(8) 0.2916(5)
O3 O 0.2840(5) -0.0522(15) 0.2038(18)
O2N O 0.2089(3) 0.0669(8) 0.2084(5)
O3N O 0.2160(5) -0.0522(15) 0.2962(18)
O4 O 0.2500 0.2500 0.7500
H10 H 0.2500 0.3046 0.7500
H10C H 0.2500 0.1954 0.7500
loop_
_geom_bond_atom_site_label_1
_geom_bond_atom_site_label_2
_geom_bond_site_symmetry_1
_geom_bond_site_symmetry_2
Cu1 N1 1_555 1_555
N1 C1 1_555 1_555
N2 Cu1 1_555 1_555
O1 Cu1 1_555 1_555
C1 C2 1_555 1_555
C2 H1 1_555 1_555
C3 C2 1_555 1_555
H2 C3 1_555 1_555
C4 C3 1_555 1_555
H3 C4 1_555 1_555
C5 N1 1_555 1_555
H4 C5 1_555 1_555
C6 N2 1_555 1_555
H5 C6 1_555 1_555
C7 C6 1_555 1_555
H6 C7 1_555 1_555
C8 C7 1_555 1_555
C9 O1 1_555 1_555
C10 C9 1_555 1_555
C11 C10 1_555 1_555
H7 C11 1_555 1_555
C12 C11 1_555 1_555
H8 C12 1_555 1_555
C13 C12 1_555 1_555
N3 C13 1_555 1_555
H9 N3 1_555 1_555
Cl1 O2 1_555 1_555
O3 Cl1 1_555 1_555
O4 H10 1_555 1_555
C1D C1 1_555 1_555
N1D Cu1 1_555 1_555
C5D N1D 1_555 1_555
C4D C5D 1_555 1_555
C3D C4D 1_555 1_555
C2D C1D 1_555 1_555
H1D C2D 1_555 1_555
H2D C3D 1_555 1_555
H3D C4D 1_555 1_555
H4D C5D 1_555 1_555
C7D C8 1_555 1_555
C6D N2 1_555 1_555
H5D C6D 1_555 1_555
H6D C7D 1_555 1_555
C8C C8 1_555 1_555
C7C C8C 1_555 1_555
C6C C7C 1_555 1_555
N2C C6C 1_555 1_555
C6J N2C 1_555 1_555
H5J C6J 1_555 1_555
C7J C8C 1_555 1_555
H6J C7J 1_555 1_555
H5C C6C 1_555 1_555
H6C C7C 1_555 1_555
O1C C9 1_555 1_555
C12C C13 1_555 1_555
C11C C10 1_555 1_555
H7C C11C 1_555 1_555
H8C C12C 1_555 1_555
H9C N3 1_555 1_555
O2N Cl1 1_555 1_555
O3N Cl1 1_555 1_555
H10C O4 1_555 1_555
O1D Cu1 1_555 1_555
C9D O1D 1_555 1_555
C10D C9D 1_555 1_555
C11D C10D 1_555 1_555
H7D C11D 1_555 1_555
C12D C11D 1_555 1_555
H8D C12D 1_555 1_555
C13D C12D 1_555 1_555
N3D C13D 1_555 1_555
H9D N3D 1_555 1_555
O1J C9D 1_555 1_555
C12J C13D 1_555 1_555
C11J C10D 1_555 1_555
H7J C11J 1_555 1_555
H8J C12J 1_555 1_555
H9J N3D 1_555 1_555
Cu1C N2C 1_555 1_555
Cu1C_2 O1C 1_555 1_555
N1C Cu1C_2 1_555 1_555
N1J Cu1C_2 1_555 1_555
N2C_2 Cu1C_2 1_555 1_555
C1C N1C 1_555 1_555
C5C N1C 1_555 1_555
C1J N1J 1_555 1_555
C5J N1J 1_555 1_555
C2C C1C 1_555 1_555
C4C C5C 1_555 1_555
H4C C5C 1_555 1_555
C2J C1J 1_555 1_555
C4J C5J 1_555 1_555
H4J C5J 1_555 1_555
H1C C2C 1_555 1_555
C3C C2C 1_555 1_555
H3C C4C 1_555 1_555
H1J C2J 1_555 1_555
C3J C2J 1_555 1_555
H3J C4J 1_555 1_555
H2C C3C 1_555 1_555
H2J C3J 1_555 1_555
C4 C5 1_555 1_555
C1D N1D 1_555 1_555
C3D C2D 1_555 1_555
C7D C6D 1_555 1_555
C6J C7J 1_555 1_555
C12C C11C 1_555 1_555
O1J Cu1C_2 1_555 1_555
C12J C11J 1_555 1_555
C1C C1J 1_555 1_555
C4C C3C 1_555 1_555
C4J C3J 1_555 1_555

#END
