
#######################################################################
#
#                 Cambridge Crystallographic Data Centre
#                                CCDC 
#
#######################################################################
#
# If this CIF has been generated from an entry in the Cambridge 
# Structural Database, then it will include bibliographic, chemical, 
# crystal, experimental, refinement or atomic coordinate data resulting 
# from the CCDC's data processing and validation procedures.
#
#######################################################################

data_BAXGEO01
_symmetry_cell_setting           monoclinic
_symmetry_space_group_name_H-M   'C 2/c'
_symmetry_Int_Tables_number      15
_space_group_name_Hall           '-C 2yn'
loop_
_symmetry_equiv_pos_site_id
_symmetry_equiv_pos_as_xyz
1 x,y,z
2 -x,y,1/2-z
3 1/2+x,1/2+y,z
4 1/2-x,1/2+y,1/2-z
5 -x,-y,-z
6 x,-y,1/2+z
7 1/2-x,1/2-y,-z
8 1/2+x,1/2-y,1/2+z
_cell_length_a                   20.4148(7)
_cell_length_b                   6.7777(3)
_cell_length_c                   13.2311(5)
_cell_angle_alpha                90
_cell_angle_beta                 95.562(2)
_cell_angle_gamma                90
_cell_volume                     1822.11
loop_
_atom_site_label
_atom_site_type_symbol
_atom_site_fract_x
_atom_site_fract_y
_atom_site_fract_z
Fe1 Fe 0.0000 0.24008(10) 0.2500
S1 S -0.15969(5) 0.25433(15) 0.48865(8)
N1 N 0.07500(13) 0.2401(4) 0.3581(2)
N2 N 0.06738(14) 0.2407(4) 0.4628(2)
N3 N 0.17180(14) 0.2440(4) 0.4418(2)
N4 N 0.24025(14) 0.2496(4) 0.4544(2)
N5 N -0.06309(14) 0.2410(4) 0.3517(2)
N6 N 0.0000 -0.0526(6) 0.2500
N7 N 0.0000 -0.4665(6) 0.2500
C1 C 0.13840(17) 0.2415(5) 0.3487(3)
H1 H 0.1577 0.2409 0.2862
C2 C 0.12597(18) 0.2439(6) 0.5101(3)
H2 H 0.1356 0.2458 0.5818
C3 C 0.00325(16) -0.1582(5) 0.3368(3)
H3 H 0.0056 -0.0902 0.3998
C4 C 0.00332(16) -0.3614(5) 0.3370(3)
H4 H 0.0058 -0.4294 0.4001
C5 C -0.10229(17) 0.2467(5) 0.4097(3)
Fe1_2 Fe 0.0000 -0.75992(10) 0.2500
Fe1F Fe 0.5000 0.25992(10) 0.7500
S1A S 0.15969(5) 0.25433(15) 0.01135(8)
N1F N 0.42500(13) 0.2599(4) 0.6419(2)
N1A N -0.07500(13) 0.2401(4) 0.1419(2)
N2F N 0.43262(14) 0.2593(4) 0.5372(2)
N3F N 0.32820(14) 0.2560(4) 0.5582(2)
N4F N 0.25975(14) 0.2504(4) 0.5456(2)
N5A N 0.06309(14) 0.2410(4) 0.1483(2)
N7_2 N 0.0000 0.5335(6) 0.2500
C1F C 0.36160(17) 0.2585(5) 0.6513(3)
H1F H 0.3423 0.2591 0.7138
C2F C 0.37403(18) 0.2561(6) 0.4899(3)
H2F H 0.3644 0.2542 0.4182
C3A C -0.00325(16) -0.1582(5) 0.1632(3)
H3A H -0.0056 -0.0902 0.1002
C4A C -0.00332(16) -0.3614(5) 0.1630(3)
H4A H -0.0058 -0.4294 0.0999
C5A C 0.10229(17) 0.2467(5) 0.0903(3)
O1 O 0.1631(3) -0.2773(9) 0.2555(4)
H5 H 0.1907 -0.3742 0.2415
H6 H 0.1191 -0.3274 0.2544
O2 O 0.2578(3) -0.0593(9) 0.2856(3)
H7 H 0.2248 -0.1354 0.2745
H8 H 0.2802 -0.1084 0.3403
loop_
_geom_bond_atom_site_label_1
_geom_bond_atom_site_label_2
_geom_bond_site_symmetry_1
_geom_bond_site_symmetry_2
Fe1 N1 1_555 1_555
S1 C5 1_555 1_555
N1 N2 1_555 1_555
N2 C2 1_555 1_555
N3 N4 1_555 1_555
N4 N4F 1_555 1_555
N5 Fe1 1_555 1_555
N6 Fe1 1_555 1_555
N7 C4 1_555 1_555
C1 N1 1_555 1_555
H1 C1 1_555 1_555
C2 N3 1_555 1_555
H2 C2 1_555 1_555
C3 N6 1_555 1_555
H3 C3 1_555 1_555
C4 C3 1_555 1_555
H4 C4 1_555 1_555
C5 N5 1_555 1_555
O1 H5 1_555 1_555
H6 O1 1_555 1_555
O2 H7 1_555 1_555
H8 O2 1_555 1_555
Fe1_2 N7 1_555 1_555
Fe1F N1F 1_555 1_555
S1A C5A 1_555 1_555
N1F N2F 1_555 1_555
N1A Fe1 1_555 1_555
N2F C2F 1_555 1_555
N3F N4F 1_555 1_555
N5A Fe1 1_555 1_555
N7_2 Fe1 1_555 1_555
C1F N1F 1_555 1_555
H1F C1F 1_555 1_555
C2F N3F 1_555 1_555
H2F C2F 1_555 1_555
C3A N6 1_555 1_555
H3A C3A 1_555 1_555
C4A N7 1_555 1_555
H4A C4A 1_555 1_555
C5A N5A 1_555 1_555
N3 C1 1_555 1_555
N3F C1F 1_555 1_555
C3A C4A 1_555 1_555

#END
