
#######################################################################
#
#                 Cambridge Crystallographic Data Centre
#                                CCDC 
#
#######################################################################
#
# If this CIF has been generated from an entry in the Cambridge 
# Structural Database, then it will include bibliographic, chemical, 
# crystal, experimental, refinement or atomic coordinate data resulting 
# from the CCDC's data processing and validation procedures.
#
#######################################################################

data_BAXHOZ
_symmetry_cell_setting           monoclinic
_symmetry_space_group_name_H-M   'C 2/c'
_symmetry_Int_Tables_number      15
_space_group_name_Hall           '-C 2yn'
loop_
_symmetry_equiv_pos_site_id
_symmetry_equiv_pos_as_xyz
1 x,y,z
2 -x,y,1/2-z
3 1/2+x,1/2+y,z
4 1/2-x,1/2+y,1/2-z
5 -x,-y,-z
6 x,-y,1/2+z
7 1/2-x,1/2-y,-z
8 1/2+x,1/2-y,1/2+z
_cell_length_a                   22.170(3)
_cell_length_b                   11.4788(11)
_cell_length_c                   20.663(3)
_cell_angle_alpha                90
_cell_angle_beta                 111.105(16)
_cell_angle_gamma                90
_cell_volume                     4905.7
loop_
_atom_site_label
_atom_site_type_symbol
_atom_site_fract_x
_atom_site_fract_y
_atom_site_fract_z
Nd1 Nd 0.401582(10) 0.460283(17) 0.696191(12)
F1 F 0.42327(18) 0.0751(3) 0.8047(2)
F2 F 0.42216(18) -0.1547(3) 0.8031(2)
F3 F 0.5008(2) 0.6857(3) 0.58120(18)
F4 F 0.45880(17) 0.7118(3) 0.44286(18)
O1 O 0.44651(15) 0.2646(3) 0.72649(19)
O2 O 0.44631(16) -0.3438(3) 0.7237(2)
O3 O 0.50530(14) 0.4624(3) 0.67945(17)
O4 O 0.60483(17) 0.4679(4) 0.6834(2)
O5 O 0.30684(17) 0.5840(3) 0.6705(2)
O6 O 0.31026(18) 0.3347(3) 0.6858(2)
O7 O 0.3783(3) 0.3483(3) 0.5840(2)
O8 O 0.3542(3) 0.4222(5) 0.4816(2)
O9 O 0.3708(2) 0.5327(4) 0.5711(2)
N1 N 0.2245(2) 0.6990(4) 0.6085(3)
N2 N 0.2523(2) 0.1712(4) 0.6820(3)
N3 N 0.3666(2) 0.4343(4) 0.5434(2)
C1 C 0.5000 0.2162(5) 0.7500
C2 C 0.5000 0.0855(5) 0.7500
C3 C 0.4610(2) 0.0201(4) 0.7759(3)
C4 C 0.4606(2) -0.1000(4) 0.7755(3)
C5 C 0.5000 -0.1634(5) 0.7500
C6 C 0.5000 -0.2965(5) 0.7500
C7 C 0.5462(2) 0.4713(4) 0.6508(2)
C8 C 0.5217(2) 0.4863(4) 0.5726(3)
C9 C 0.5003(2) 0.5925(4) 0.5411(3)
C10 C 0.4791(2) 0.6056(4) 0.4711(3)
C11 C 0.2848(3) 0.6660(4) 0.6306(3)
H1 H 0.3132 0.7073 0.6151
C12 C 0.1774(3) 0.6397(6) 0.6292(4)
H2 H 0.1947 0.5665 0.6502
H3 H 0.1391 0.6263 0.5893
H4 H 0.1669 0.6868 0.6621
C13 C 0.2001(3) 0.7952(6) 0.5588(4)
H5 H 0.2356 0.8327 0.5511
H6 H 0.1781 0.8506 0.5772
H7 H 0.1706 0.7650 0.5157
C14 C 0.3045(2) 0.2262(4) 0.6830(3)
H8 H 0.3392 0.1820 0.6816
C15 C 0.2486(3) 0.0434(5) 0.6800(4)
H9 H 0.2884 0.0120 0.6789
H10 H 0.2134 0.0192 0.6393
H11 H 0.2416 0.0155 0.7205
C16 C 0.1956(3) 0.2328(6) 0.6816(4)
H12 H 0.2054 0.3142 0.6896
H13 H 0.1821 0.2027 0.7176
H14 H 0.1615 0.2227 0.6374
Nd1A Nd 0.598418(10) 0.460283(17) 0.803809(12)
Nd1_2 Nd 0.401582(10) -0.539717(17) 0.696191(12)
Nd1A_2 Nd 0.598418(10) -0.539717(17) 0.803809(12)
Nd1D Nd 0.598418(10) 0.539717(17) 0.303809(12)
Nd1E Nd 0.401582(10) 0.539717(17) 0.196191(12)
F1A F 0.57673(18) 0.0751(3) 0.6953(2)
F2A F 0.57784(18) -0.1547(3) 0.6969(2)
F3D F 0.4992(2) 0.3143(3) 0.41880(18)
F4D F 0.54120(17) 0.2882(3) 0.55714(18)
O1A O 0.55349(15) 0.2646(3) 0.77351(19)
O2A O 0.55369(16) -0.3438(3) 0.7763(2)
O2_2 O 0.44631(16) 0.6562(3) 0.7237(2)
O2A_2 O 0.55369(16) 0.6562(3) 0.7763(2)
O3D O 0.49470(14) 0.5376(3) 0.32055(17)
O3A O 0.49470(14) 0.4624(3) 0.82055(17)
O4D O 0.39517(17) 0.5321(4) 0.3166(2)
O4A O 0.39517(17) 0.4679(4) 0.8166(2)
O5A O 0.69316(17) 0.5840(3) 0.8295(2)
O6A O 0.68974(18) 0.3347(3) 0.8142(2)
O7A O 0.6217(3) 0.3483(3) 0.9160(2)
O8A O 0.6458(3) 0.4222(5) 1.0184(2)
O9A O 0.6292(2) 0.5327(4) 0.9289(2)
N1A N 0.7755(2) 0.6990(4) 0.8915(3)
N2A N 0.7477(2) 0.1712(4) 0.8180(3)
N3A N 0.6334(2) 0.4343(4) 0.9566(2)
C3A C 0.5390(2) 0.0201(4) 0.7241(3)
C4A C 0.5394(2) -0.1000(4) 0.7245(3)
C7D C 0.4538(2) 0.5287(4) 0.3492(2)
C8D C 0.4783(2) 0.5137(4) 0.4274(3)
C9D C 0.4997(2) 0.4075(4) 0.4589(3)
C10D C 0.5209(2) 0.3944(4) 0.5289(3)
C11A C 0.7152(3) 0.6660(4) 0.8694(3)
H1A H 0.6868 0.7073 0.8849
C12A C 0.8226(3) 0.6397(6) 0.8708(4)
H2A H 0.8053 0.5665 0.8498
H3A H 0.8609 0.6263 0.9107
H4A H 0.8331 0.6868 0.8379
C13A C 0.7999(3) 0.7952(6) 0.9412(4)
H5A H 0.7644 0.8327 0.9489
H6A H 0.8219 0.8506 0.9228
H7A H 0.8294 0.7650 0.9843
C14A C 0.6955(2) 0.2262(4) 0.8170(3)
H8A H 0.6608 0.1820 0.8184
C15A C 0.7514(3) 0.0434(5) 0.8200(4)
H9A H 0.7116 0.0120 0.8211
H10A H 0.7866 0.0192 0.8607
H11A H 0.7584 0.0155 0.7795
C16A C 0.8044(3) 0.2328(6) 0.8184(4)
H12A H 0.7946 0.3142 0.8104
H13A H 0.8179 0.2027 0.7824
H14A H 0.8385 0.2227 0.8626
O10 O 0.3478(4) -0.0833(8) 0.5949(5)
N4 N 0.3698(3) 0.0511(6) 0.5261(4)
C17 C 0.3850(5) -0.0342(10) 0.5736(6)
H15 H 0.4280 -0.0576 0.5917
C18 C 0.4185(6) 0.1061(10) 0.5058(8)
H16 H 0.4591 0.0675 0.5280
H17 H 0.4224 0.1865 0.5196
H18 H 0.4064 0.1011 0.4564
C19 C 0.3050(4) 0.0949(9) 0.4990(6)
H19 H 0.2773 0.0452 0.5134
H20 H 0.2902 0.0964 0.4492
H21 H 0.3040 0.1723 0.5161
loop_
_geom_bond_atom_site_label_1
_geom_bond_atom_site_label_2
_geom_bond_site_symmetry_1
_geom_bond_site_symmetry_2
Nd1 O1 1_555 1_555
F1 C3 1_555 1_555
F2 C4 1_555 1_555
F3 C9 1_555 1_555
F4 C10 1_555 1_555
O1 C1 1_555 1_555
O2 C6 1_555 1_555
O3 Nd1 1_555 1_555
O4 C7 1_555 1_555
O5 Nd1 1_555 1_555
O6 Nd1 1_555 1_555
O7 Nd1 1_555 1_555
O8 N3 1_555 1_555
O9 Nd1 1_555 1_555
N1 C11 1_555 1_555
N2 C14 1_555 1_555
N3 O7 1_555 1_555
C1 C2 1_555 1_555
C2 C3 1_555 1_555
C3 C4 1_555 1_555
C4 C5 1_555 1_555
C5 C6 1_555 1_555
C6 O2A 1_555 1_555
C7 O3 1_555 1_555
C8 C7 1_555 1_555
C9 C8 1_555 1_555
C10 C9 1_555 1_555
C11 O5 1_555 1_555
H1 C11 1_555 1_555
C12 N1 1_555 1_555
H2 C12 1_555 1_555
H3 C12 1_555 1_555
H4 C12 1_555 1_555
C13 N1 1_555 1_555
H5 C13 1_555 1_555
H6 C13 1_555 1_555
H7 C13 1_555 1_555
C14 O6 1_555 1_555
H8 C14 1_555 1_555
C15 N2 1_555 1_555
H9 C15 1_555 1_555
H10 C15 1_555 1_555
H11 C15 1_555 1_555
C16 N2 1_555 1_555
H12 C16 1_555 1_555
H13 C16 1_555 1_555
H14 C16 1_555 1_555
O10 C17 1_555 1_555
N4 C17 1_555 1_555
C17 H15 1_555 1_555
C18 N4 1_555 1_555
H16 C18 1_555 1_555
H17 C18 1_555 1_555
H18 C18 1_555 1_555
C19 N4 1_555 1_555
H19 C19 1_555 1_555
H20 C19 1_555 1_555
H21 C19 1_555 1_555
Nd1A O3 1_555 1_555
Nd1_2 O2 1_555 1_555
Nd1A_2 O2A 1_555 1_555
Nd1D O3D 1_555 1_555
Nd1E O3D 1_555 1_555
F1A C3A 1_555 1_555
F2A C4A 1_555 1_555
F3D C9D 1_555 1_555
F4D C10D 1_555 1_555
O1A C1 1_555 1_555
O2_2 Nd1 1_555 1_555
O2A_2 Nd1A 1_555 1_555
O3D C7D 1_555 1_555
O3A Nd1 1_555 1_555
O4D Nd1E 1_555 1_555
O4A Nd1 1_555 1_555
O5A Nd1A 1_555 1_555
O6A Nd1A 1_555 1_555
O7A Nd1A 1_555 1_555
O8A N3A 1_555 1_555
O9A Nd1A 1_555 1_555
N1A C11A 1_555 1_555
N2A C14A 1_555 1_555
N3A O7A 1_555 1_555
C3A C2 1_555 1_555
C4A C5 1_555 1_555
C7D O4D 1_555 1_555
C8D C10 1_555 1_555
C9D C8D 1_555 1_555
C10D C8 1_555 1_555
C11A O5A 1_555 1_555
H1A C11A 1_555 1_555
C12A N1A 1_555 1_555
H2A C12A 1_555 1_555
H3A C12A 1_555 1_555
H4A C12A 1_555 1_555
C13A N1A 1_555 1_555
H5A C13A 1_555 1_555
H6A C13A 1_555 1_555
H7A C13A 1_555 1_555
C14A O6A 1_555 1_555
H8A C14A 1_555 1_555
C15A N2A 1_555 1_555
H9A C15A 1_555 1_555
H10A C15A 1_555 1_555
H11A C15A 1_555 1_555
C16A N2A 1_555 1_555
H12A C16A 1_555 1_555
H13A C16A 1_555 1_555
H14A C16A 1_555 1_555
O4 Nd1A 1_555 1_555
O9 N3 1_555 1_555
Nd1A O1A 1_555 1_555
Nd1A O3A 1_555 1_555
O9A N3A 1_555 1_555
C3A C4A 1_555 1_555
C7D C8D 1_555 1_555
C9D C10D 1_555 1_555

#END
