
#######################################################################
#
#                 Cambridge Crystallographic Data Centre
#                                CCDC 
#
#######################################################################
#
# If this CIF has been generated from an entry in the Cambridge 
# Structural Database, then it will include bibliographic, chemical, 
# crystal, experimental, refinement or atomic coordinate data resulting 
# from the CCDC's data processing and validation procedures.
#
#######################################################################

data_BAXHEP
_symmetry_cell_setting           monoclinic
_symmetry_space_group_name_H-M   'C 2/c'
_symmetry_Int_Tables_number      15
_space_group_name_Hall           '-C 2yn'
loop_
_symmetry_equiv_pos_site_id
_symmetry_equiv_pos_as_xyz
1 x,y,z
2 -x,y,1/2-z
3 1/2+x,1/2+y,z
4 1/2-x,1/2+y,1/2-z
5 -x,-y,-z
6 x,-y,1/2+z
7 1/2-x,1/2-y,-z
8 1/2+x,1/2-y,1/2+z
_cell_length_a                   22.0415(13)
_cell_length_b                   11.3438(5)
_cell_length_c                   20.5474(12)
_cell_angle_alpha                90
_cell_angle_beta                 111.466(2)
_cell_angle_gamma                90
_cell_volume                     4781.19
loop_
_atom_site_label
_atom_site_type_symbol
_atom_site_fract_x
_atom_site_fract_y
_atom_site_fract_z
Dy1 Dy 0.403017(6) 0.538540(10) 0.697324(6)
F1 F 0.42213(11) 0.15441(14) 0.80380(12)
F2 F 0.42319(11) -0.07767(14) 0.80549(12)
F3 F 0.49799(11) 0.31112(15) 0.57988(10)
F4 F 0.45639(10) 0.28827(14) 0.44002(9)
O1 O 0.44523(10) 0.34578(15) 0.72352(11)
O2 O 0.44541(10) -0.26988(15) 0.72787(11)
O3 O 0.50323(10) 0.53677(15) 0.67997(10)
O4 O 0.60401(11) 0.5262(2) 0.68628(11)
O5 O 0.31047(11) 0.41933(17) 0.67265(12)
O6 O 0.31324(11) 0.66015(17) 0.68774(13)
O8 O 0.37824(14) 0.6511(2) 0.58818(12)
O9 O 0.35540(14) 0.5773(2) 0.48483(12)
O10 O 0.37293(13) 0.46491(19) 0.57529(12)
N1 N 0.22738(14) 0.3020(2) 0.60957(14)
N2 N 0.25378(13) 0.8246(2) 0.68182(14)
N4 N 0.36787(14) 0.5650(3) 0.54715(14)
C1 C 0.5000 0.2988(3) 0.7500
C2 C 0.5000 0.1637(3) 0.7500
C3 C 0.46074(15) 0.0994(2) 0.77585(16)
C4 C 0.46106(15) -0.0224(2) 0.77642(17)
C5 C 0.5000 -0.0869(3) 0.7500
C6 C 0.5000 -0.2218(3) 0.7500
C7 C 0.54492(15) 0.5255(2) 0.65222(15)
C8 C 0.52124(15) 0.5121(2) 0.57315(15)
C9 C 0.49889(15) 0.4054(2) 0.54073(15)
C10 C 0.47786(15) 0.3943(2) 0.46947(15)
C11 C 0.28861(17) 0.3347(3) 0.63234(17)
H1 H 0.3173 0.2923 0.6176
C12 C 0.17949(19) 0.3626(3) 0.6307(2)
H2 H 0.1648 0.3110 0.6589
H3 H 0.1431 0.3854 0.5898
H4 H 0.1989 0.4316 0.6572
C13 C 0.2029(2) 0.2045(3) 0.5603(2)
H5 H 0.2386 0.1667 0.5526
H6 H 0.1727 0.2343 0.5167
H7 H 0.1811 0.1485 0.5792
C14 C 0.30589(16) 0.7692(3) 0.68303(17)
H8 H 0.3401 0.8141 0.6802
C15 C 0.2491(2) 0.9532(3) 0.6777(2)
H9 H 0.2887 0.9852 0.6758
H10 H 0.2424 0.9832 0.7183
H11 H 0.2131 0.9756 0.6364
C16 C 0.19772(18) 0.7608(3) 0.6844(2)
H12 H 0.2084 0.6787 0.6927
H13 H 0.1619 0.7697 0.6407
H14 H 0.1857 0.7916 0.7215
Dy1A Dy 0.596983(6) 0.538540(10) 0.802676(6)
Dy1_2 Dy 0.403017(6) -0.461460(10) 0.697324(6)
Dy1A_2 Dy 0.596983(6) -0.461460(10) 0.802676(6)
Dy1D Dy 0.596983(6) 0.461460(10) 0.302676(6)
Dy1E Dy 0.403017(6) 0.461460(10) 0.197324(6)
F1A F 0.57787(11) 0.15441(14) 0.69620(12)
F2A F 0.57681(11) -0.07767(14) 0.69451(12)
F3D F 0.50201(11) 0.68888(15) 0.42012(10)
F4D F 0.54361(10) 0.71173(14) 0.55998(9)
O1A O 0.55477(10) 0.34578(15) 0.77648(11)
O2A O 0.55459(10) -0.26988(15) 0.77213(11)
O2_2 O 0.44541(10) 0.73012(15) 0.72787(11)
O2A_2 O 0.55459(10) 0.73012(15) 0.77213(11)
O3D O 0.49677(10) 0.46323(15) 0.32003(10)
O3A O 0.49677(10) 0.53677(15) 0.82003(10)
O4D O 0.39599(11) 0.4738(2) 0.31372(11)
O4A O 0.39599(11) 0.5262(2) 0.81372(11)
O5A O 0.68953(11) 0.41933(17) 0.82735(12)
O6A O 0.68676(11) 0.66015(17) 0.81226(13)
O8A O 0.62176(14) 0.6511(2) 0.91182(12)
O9A O 0.64460(14) 0.5773(2) 1.01517(12)
O10A O 0.62707(13) 0.46491(19) 0.92471(12)
N1A N 0.77262(14) 0.3020(2) 0.89043(14)
N2A N 0.74622(13) 0.8246(2) 0.81818(14)
N4A N 0.63213(14) 0.5650(3) 0.95285(14)
C3A C 0.53926(15) 0.0994(2) 0.72415(16)
C4A C 0.53894(15) -0.0224(2) 0.72358(17)
C7D C 0.45508(15) 0.4745(2) 0.34778(15)
C8D C 0.47876(15) 0.4879(2) 0.42685(15)
C9D C 0.50111(15) 0.5946(2) 0.45927(15)
C10D C 0.52214(15) 0.6057(2) 0.53053(15)
C11A C 0.71139(17) 0.3347(3) 0.86766(17)
H1A H 0.6827 0.2923 0.8824
C12A C 0.82051(19) 0.3626(3) 0.8693(2)
H2A H 0.8352 0.3110 0.8411
H3A H 0.8569 0.3854 0.9102
H4A H 0.8011 0.4316 0.8428
C13A C 0.7971(2) 0.2045(3) 0.9397(2)
H5A H 0.7614 0.1667 0.9474
H6A H 0.8273 0.2343 0.9833
H7A H 0.8189 0.1485 0.9208
C14A C 0.69411(16) 0.7692(3) 0.81697(17)
H8A H 0.6599 0.8141 0.8198
C15A C 0.7509(2) 0.9532(3) 0.8223(2)
H9A H 0.7113 0.9852 0.8242
H10A H 0.7576 0.9832 0.7817
H11A H 0.7869 0.9756 0.8636
C16A C 0.80228(18) 0.7608(3) 0.8156(2)
H12A H 0.7916 0.6787 0.8073
H13A H 0.8381 0.7697 0.8593
H14A H 0.8143 0.7916 0.7785
O7 O 0.3508(2) 0.0820(4) 0.5954(2)
N3 N 0.3709(2) -0.0536(3) 0.5258(2)
C17 C 0.3865(3) 0.0327(5) 0.5715(3)
H15 H 0.4295 0.0586 0.5870
C18 C 0.4190(3) -0.1100(5) 0.5033(3)
H16 H 0.4034 -0.1115 0.4531
H17 H 0.4263 -0.1892 0.5209
H18 H 0.4592 -0.0667 0.5209
C19 C 0.3047(2) -0.0974(4) 0.4972(3)
H19 H 0.2798 -0.0632 0.5222
H20 H 0.3049 -0.1816 0.5018
H21 H 0.2854 -0.0764 0.4487
loop_
_geom_bond_atom_site_label_1
_geom_bond_atom_site_label_2
_geom_bond_site_symmetry_1
_geom_bond_site_symmetry_2
Dy1 O1 1_555 1_555
F1 C3 1_555 1_555
F2 C4 1_555 1_555
F3 C9 1_555 1_555
F4 C10 1_555 1_555
O1 C1 1_555 1_555
O2 C6 1_555 1_555
O3 Dy1 1_555 1_555
O4 C7 1_555 1_555
O5 Dy1 1_555 1_555
O6 Dy1 1_555 1_555
O7 C17 1_555 1_555
O8 Dy1 1_555 1_555
O9 N4 1_555 1_555
O10 Dy1 1_555 1_555
N1 C11 1_555 1_555
N2 C14 1_555 1_555
N3 C17 1_555 1_555
N4 O8 1_555 1_555
C1 C2 1_555 1_555
C2 C3 1_555 1_555
C3 C4 1_555 1_555
C4 C5 1_555 1_555
C5 C6 1_555 1_555
C6 O2A 1_555 1_555
C7 O3 1_555 1_555
C8 C7 1_555 1_555
C9 C8 1_555 1_555
C10 C9 1_555 1_555
C11 O5 1_555 1_555
H1 C11 1_555 1_555
C12 N1 1_555 1_555
H2 C12 1_555 1_555
H3 C12 1_555 1_555
H4 C12 1_555 1_555
C13 N1 1_555 1_555
H5 C13 1_555 1_555
H6 C13 1_555 1_555
H7 C13 1_555 1_555
C14 O6 1_555 1_555
H8 C14 1_555 1_555
C15 N2 1_555 1_555
H9 C15 1_555 1_555
H10 C15 1_555 1_555
H11 C15 1_555 1_555
C16 N2 1_555 1_555
H12 C16 1_555 1_555
H13 C16 1_555 1_555
H14 C16 1_555 1_555
C17 H15 1_555 1_555
C18 N3 1_555 1_555
H16 C18 1_555 1_555
H17 C18 1_555 1_555
H18 C18 1_555 1_555
C19 N3 1_555 1_555
H19 C19 1_555 1_555
H20 C19 1_555 1_555
H21 C19 1_555 1_555
Dy1A O3 1_555 1_555
Dy1_2 O2 1_555 1_555
Dy1A_2 O2A 1_555 1_555
Dy1D O3D 1_555 1_555
Dy1E O3D 1_555 1_555
F1A C3A 1_555 1_555
F2A C4A 1_555 1_555
F3D C9D 1_555 1_555
F4D C10D 1_555 1_555
O1A C1 1_555 1_555
O2_2 Dy1 1_555 1_555
O2A_2 Dy1A 1_555 1_555
O3D C7D 1_555 1_555
O3A Dy1 1_555 1_555
O4D Dy1E 1_555 1_555
O4A Dy1 1_555 1_555
O5A Dy1A 1_555 1_555
O6A Dy1A 1_555 1_555
O8A Dy1A 1_555 1_555
O9A N4A 1_555 1_555
O10A Dy1A 1_555 1_555
N1A C11A 1_555 1_555
N2A C14A 1_555 1_555
N4A O8A 1_555 1_555
C3A C2 1_555 1_555
C4A C5 1_555 1_555
C7D O4D 1_555 1_555
C8D C10 1_555 1_555
C9D C8D 1_555 1_555
C10D C8 1_555 1_555
C11A O5A 1_555 1_555
H1A C11A 1_555 1_555
C12A N1A 1_555 1_555
H2A C12A 1_555 1_555
H3A C12A 1_555 1_555
H4A C12A 1_555 1_555
C13A N1A 1_555 1_555
H5A C13A 1_555 1_555
H6A C13A 1_555 1_555
H7A C13A 1_555 1_555
C14A O6A 1_555 1_555
H8A C14A 1_555 1_555
C15A N2A 1_555 1_555
H9A C15A 1_555 1_555
H10A C15A 1_555 1_555
H11A C15A 1_555 1_555
C16A N2A 1_555 1_555
H12A C16A 1_555 1_555
H13A C16A 1_555 1_555
H14A C16A 1_555 1_555
O4 Dy1A 1_555 1_555
O10 N4 1_555 1_555
Dy1A O1A 1_555 1_555
Dy1A O3A 1_555 1_555
O10A N4A 1_555 1_555
C3A C4A 1_555 1_555
C7D C8D 1_555 1_555
C9D C10D 1_555 1_555

#END
