
#######################################################################
#
#                 Cambridge Crystallographic Data Centre
#                                CCDC 
#
#######################################################################
#
# If this CIF has been generated from an entry in the Cambridge 
# Structural Database, then it will include bibliographic, chemical, 
# crystal, experimental, refinement or atomic coordinate data resulting 
# from the CCDC's data processing and validation procedures.
#
#######################################################################

data_BAXHAL
_symmetry_cell_setting           monoclinic
_symmetry_space_group_name_H-M   'C 2/c'
_symmetry_Int_Tables_number      15
_space_group_name_Hall           '-C 2yn'
loop_
_symmetry_equiv_pos_site_id
_symmetry_equiv_pos_as_xyz
1 x,y,z
2 -x,y,1/2-z
3 1/2+x,1/2+y,z
4 1/2-x,1/2+y,1/2-z
5 -x,-y,-z
6 x,-y,1/2+z
7 1/2-x,1/2-y,-z
8 1/2+x,1/2-y,1/2+z
_cell_length_a                   22.227(4)
_cell_length_b                   11.5340(15)
_cell_length_c                   20.728(3)
_cell_angle_alpha                90
_cell_angle_beta                 110.981(13)
_cell_angle_gamma                90
_cell_volume                     4961.64
loop_
_atom_site_label
_atom_site_type_symbol
_atom_site_fract_x
_atom_site_fract_y
_atom_site_fract_z
Ce1 Ce 0.40069(2) 0.45962(4) 0.69559(2)
F1 F 0.4230(3) 0.0730(5) 0.8039(4)
F2 F 0.4223(3) -0.1549(5) 0.8027(4)
F3 F 0.5020(4) 0.6831(5) 0.5818(3)
F4 F 0.4600(3) 0.7125(5) 0.4442(3)
O1 O 0.4460(3) 0.2630(5) 0.7253(4)
O2 O 0.4458(3) -0.3435(5) 0.7237(4)
O3 O 0.5054(3) 0.4623(6) 0.6789(3)
O4 O 0.6051(3) 0.4662(8) 0.6821(3)
O5 O 0.3056(3) 0.5854(6) 0.6700(4)
O6 O 0.3091(3) 0.3310(6) 0.6847(4)
O8 O 0.3781(5) 0.3481(7) 0.5828(4)
O9 O 0.3540(5) 0.4209(9) 0.4803(4)
O10 O 0.3697(4) 0.5306(7) 0.5693(4)
N1 N 0.2236(4) 0.7009(7) 0.6074(4)
N2 N 0.2517(4) 0.1684(7) 0.6825(5)
N4 N 0.3658(4) 0.4339(8) 0.5417(4)
C1 C 0.5000 0.2104(10) 0.7500
C2 C 0.5000 0.0830(10) 0.7500
C3 C 0.4613(5) 0.0183(7) 0.7765(5)
C4 C 0.4606(5) -0.1018(8) 0.7746(5)
C5 C 0.5000 -0.1645(10) 0.7500
C6 C 0.5000 -0.2988(11) 0.7500
C7 C 0.5466(4) 0.4700(8) 0.6499(4)
C8 C 0.5215(4) 0.4857(8) 0.5722(4)
C9 C 0.5014(5) 0.5928(8) 0.5418(5)
C10 C 0.4797(4) 0.6048(8) 0.4707(5)
C11 C 0.2835(5) 0.6678(9) 0.6305(6)
H1 H 0.3121 0.7097 0.6160
C12 C 0.1766(6) 0.6409(13) 0.6298(8)
H2 H 0.1950 0.5702 0.6528
H3 H 0.1389 0.6235 0.5903
H4 H 0.1649 0.6896 0.6610
C13 C 0.1985(6) 0.7943(11) 0.5580(7)
H5 H 0.2333 0.8302 0.5482
H6 H 0.1778 0.8509 0.5770
H7 H 0.1678 0.7636 0.5161
C14 C 0.3038(5) 0.2242(9) 0.6826(6)
H8 H 0.3385 0.1805 0.6811
C15 C 0.2490(6) 0.0403(10) 0.6818(6)
H9 H 0.2175 0.0145 0.6389
H10 H 0.2372 0.0137 0.7195
H11 H 0.2904 0.0096 0.6864
C16 C 0.1947(5) 0.2277(12) 0.6818(8)
H12 H 0.2007 0.3098 0.6793
H13 H 0.1868 0.2097 0.7233
H14 H 0.1587 0.2033 0.6424
Ce1A Ce 0.59931(2) 0.45962(4) 0.80441(2)
Ce1_2 Ce 0.40069(2) -0.54038(4) 0.69559(2)
Ce1A_2 Ce 0.59931(2) -0.54038(4) 0.80441(2)
Ce1D Ce 0.59931(2) 0.54038(4) 0.30441(2)
Ce1E Ce 0.40069(2) 0.54038(4) 0.19559(2)
F1A F 0.5770(3) 0.0730(5) 0.6961(4)
F2A F 0.5777(3) -0.1549(5) 0.6973(4)
F3D F 0.4980(4) 0.3169(5) 0.4182(3)
F4D F 0.5400(3) 0.2875(5) 0.5558(3)
O1A O 0.5540(3) 0.2630(5) 0.7747(4)
O2A O 0.5542(3) -0.3435(5) 0.7763(4)
O2_2 O 0.4458(3) 0.6565(5) 0.7237(4)
O2A_2 O 0.5542(3) 0.6565(5) 0.7763(4)
O3D O 0.4946(3) 0.5377(6) 0.3211(3)
O3A O 0.4946(3) 0.4623(6) 0.8211(3)
O4D O 0.3949(3) 0.5338(8) 0.3179(3)
O4A O 0.3949(3) 0.4662(8) 0.8179(3)
O5A O 0.6944(3) 0.5854(6) 0.8300(4)
O6A O 0.6909(3) 0.3310(6) 0.8153(4)
O8A O 0.6219(5) 0.3481(7) 0.9172(4)
O9A O 0.6460(5) 0.4209(9) 1.0197(4)
O10A O 0.6303(4) 0.5306(7) 0.9307(4)
N1A N 0.7764(4) 0.7009(7) 0.8926(4)
N2A N 0.7483(4) 0.1684(7) 0.8175(5)
N4A N 0.6342(4) 0.4339(8) 0.9583(4)
C3A C 0.5387(5) 0.0183(7) 0.7235(5)
C4A C 0.5394(5) -0.1018(8) 0.7254(5)
C7D C 0.4534(4) 0.5300(8) 0.3501(4)
C8D C 0.4785(4) 0.5143(8) 0.4278(4)
C9D C 0.4986(5) 0.4072(8) 0.4582(5)
C10D C 0.5203(4) 0.3952(8) 0.5293(5)
C11A C 0.7165(5) 0.6678(9) 0.8695(6)
H1A H 0.6879 0.7097 0.8840
C12A C 0.8234(6) 0.6409(13) 0.8702(8)
H2A H 0.8050 0.5702 0.8472
H3A H 0.8611 0.6235 0.9097
H4A H 0.8351 0.6896 0.8390
C13A C 0.8015(6) 0.7943(11) 0.9420(7)
H5A H 0.7667 0.8302 0.9518
H6A H 0.8222 0.8509 0.9230
H7A H 0.8322 0.7636 0.9839
C14A C 0.6962(5) 0.2242(9) 0.8174(6)
H8A H 0.6615 0.1805 0.8189
C15A C 0.7510(6) 0.0403(10) 0.8182(6)
H9A H 0.7825 0.0145 0.8611
H10A H 0.7628 0.0137 0.7805
H11A H 0.7096 0.0096 0.8136
C16A C 0.8053(5) 0.2277(12) 0.8182(8)
H12A H 0.7993 0.3098 0.8207
H13A H 0.8132 0.2097 0.7767
H14A H 0.8413 0.2033 0.8576
O7 O 0.3454(8) -0.0843(14) 0.5943(9)
N3 N 0.3691(6) 0.0517(12) 0.5271(7)
C17 C 0.3832(10) -0.038(2) 0.5726(10)
H15 H 0.4252 -0.0662 0.5884
C18 C 0.4190(11) 0.107(2) 0.5082(15)
H16 H 0.4302 0.1798 0.5316
H17 H 0.4035 0.1192 0.4591
H18 H 0.4564 0.0576 0.5213
C19 C 0.3054(8) 0.0932(17) 0.4981(12)
H19 H 0.2782 0.0495 0.5161
H20 H 0.2903 0.0849 0.4488
H21 H 0.3043 0.1736 0.5097
loop_
_geom_bond_atom_site_label_1
_geom_bond_atom_site_label_2
_geom_bond_site_symmetry_1
_geom_bond_site_symmetry_2
Ce1 O1 1_555 1_555
F1 C3 1_555 1_555
F2 C4 1_555 1_555
F3 C9 1_555 1_555
F4 C10 1_555 1_555
O1 C1 1_555 1_555
O2 C6 1_555 1_555
O3 Ce1 1_555 1_555
O4 C7 1_555 1_555
O5 Ce1 1_555 1_555
O6 Ce1 1_555 1_555
O7 C17 1_555 1_555
O8 Ce1 1_555 1_555
O9 N4 1_555 1_555
O10 Ce1 1_555 1_555
N1 C11 1_555 1_555
N2 C14 1_555 1_555
N3 C17 1_555 1_555
N4 O8 1_555 1_555
C1 C2 1_555 1_555
C2 C3 1_555 1_555
C3 C4 1_555 1_555
C4 C5 1_555 1_555
C5 C6 1_555 1_555
C6 O2A 1_555 1_555
C7 O3 1_555 1_555
C8 C7 1_555 1_555
C9 C8 1_555 1_555
C10 C9 1_555 1_555
C11 O5 1_555 1_555
H1 C11 1_555 1_555
C12 N1 1_555 1_555
H2 C12 1_555 1_555
H3 C12 1_555 1_555
H4 C12 1_555 1_555
C13 N1 1_555 1_555
H5 C13 1_555 1_555
H6 C13 1_555 1_555
H7 C13 1_555 1_555
C14 O6 1_555 1_555
H8 C14 1_555 1_555
C15 N2 1_555 1_555
H9 C15 1_555 1_555
H10 C15 1_555 1_555
H11 C15 1_555 1_555
C16 N2 1_555 1_555
H12 C16 1_555 1_555
H13 C16 1_555 1_555
H14 C16 1_555 1_555
C17 H15 1_555 1_555
C18 N3 1_555 1_555
H16 C18 1_555 1_555
H17 C18 1_555 1_555
H18 C18 1_555 1_555
C19 N3 1_555 1_555
H19 C19 1_555 1_555
H20 C19 1_555 1_555
H21 C19 1_555 1_555
Ce1A O3 1_555 1_555
Ce1_2 O2 1_555 1_555
Ce1A_2 O2A 1_555 1_555
Ce1D O3D 1_555 1_555
Ce1E O3D 1_555 1_555
F1A C3A 1_555 1_555
F2A C4A 1_555 1_555
F3D C9D 1_555 1_555
F4D C10D 1_555 1_555
O1A C1 1_555 1_555
O2_2 Ce1 1_555 1_555
O2A_2 Ce1A 1_555 1_555
O3D C7D 1_555 1_555
O3A Ce1 1_555 1_555
O4D Ce1E 1_555 1_555
O4A Ce1 1_555 1_555
O5A Ce1A 1_555 1_555
O6A Ce1A 1_555 1_555
O8A Ce1A 1_555 1_555
O9A N4A 1_555 1_555
O10A Ce1A 1_555 1_555
N1A C11A 1_555 1_555
N2A C14A 1_555 1_555
N4A O8A 1_555 1_555
C3A C2 1_555 1_555
C4A C5 1_555 1_555
C7D O4D 1_555 1_555
C8D C10 1_555 1_555
C9D C8D 1_555 1_555
C10D C8 1_555 1_555
C11A O5A 1_555 1_555
H1A C11A 1_555 1_555
C12A N1A 1_555 1_555
H2A C12A 1_555 1_555
H3A C12A 1_555 1_555
H4A C12A 1_555 1_555
C13A N1A 1_555 1_555
H5A C13A 1_555 1_555
H6A C13A 1_555 1_555
H7A C13A 1_555 1_555
C14A O6A 1_555 1_555
H8A C14A 1_555 1_555
C15A N2A 1_555 1_555
H9A C15A 1_555 1_555
H10A C15A 1_555 1_555
H11A C15A 1_555 1_555
C16A N2A 1_555 1_555
H12A C16A 1_555 1_555
H13A C16A 1_555 1_555
H14A C16A 1_555 1_555
O4 Ce1A 1_555 1_555
O10 N4 1_555 1_555
Ce1A O1A 1_555 1_555
Ce1A O3A 1_555 1_555
O10A N4A 1_555 1_555
C3A C4A 1_555 1_555
C7D C8D 1_555 1_555
C9D C10D 1_555 1_555

#END
