
#######################################################################
#
#                 Cambridge Crystallographic Data Centre
#                                CCDC 
#
#######################################################################
#
# If this CIF has been generated from an entry in the Cambridge 
# Structural Database, then it will include bibliographic, chemical, 
# crystal, experimental, refinement or atomic coordinate data resulting 
# from the CCDC's data processing and validation procedures.
#
#######################################################################

data_BAXHIT
_symmetry_cell_setting           monoclinic
_symmetry_space_group_name_H-M   'C 2/c'
_symmetry_Int_Tables_number      15
_space_group_name_Hall           '-C 2yn'
loop_
_symmetry_equiv_pos_site_id
_symmetry_equiv_pos_as_xyz
1 x,y,z
2 -x,y,1/2-z
3 1/2+x,1/2+y,z
4 1/2-x,1/2+y,1/2-z
5 -x,-y,-z
6 x,-y,1/2+z
7 1/2-x,1/2-y,-z
8 1/2+x,1/2-y,1/2+z
_cell_length_a                   21.994(5)
_cell_length_b                   11.285(5)
_cell_length_c                   20.480(5)
_cell_angle_alpha                90
_cell_angle_beta                 111.437(5)
_cell_angle_gamma                90
_cell_volume                     4731.53
loop_
_atom_site_label
_atom_site_type_symbol
_atom_site_fract_x
_atom_site_fract_y
_atom_site_fract_z
Er1 Er 0.403311(6) 0.537915(11) 0.697658(6)
F1 F 0.42213(14) 0.1541(2) 0.80415(16)
F2 F 0.42358(14) -0.0789(2) 0.80617(16)
F3 F 0.49708(14) 0.3098(2) 0.57912(12)
F4 F 0.45612(12) 0.2881(2) 0.43931(12)
O1 O 0.44503(12) 0.3466(2) 0.72350(14)
O2 O 0.44546(11) -0.2717(2) 0.72859(13)
O3 O 0.50214(11) 0.5358(2) 0.68002(12)
O4 O 0.60327(13) 0.5240(3) 0.68708(14)
O5 O 0.31152(12) 0.4196(2) 0.67324(14)
O6 O 0.31384(13) 0.6586(2) 0.68840(17)
O8 O 0.37867(19) 0.6507(3) 0.58938(15)
O9 O 0.35578(18) 0.5769(4) 0.48565(15)
O10 O 0.37380(17) 0.4641(3) 0.57652(16)
N1 N 0.22782(15) 0.3022(3) 0.60993(17)
N2 N 0.25407(15) 0.8230(3) 0.68194(17)
N4 N 0.36826(15) 0.5641(3) 0.54823(16)
C1 C 0.5000 0.2983(4) 0.7500
C2 C 0.5000 0.1640(4) 0.7500
C3 C 0.46078(16) 0.0988(3) 0.7761(2)
C4 C 0.46123(17) -0.0235(3) 0.7768(2)
C5 C 0.5000 -0.0886(4) 0.7500
C6 C 0.5000 -0.2229(4) 0.7500
C7 C 0.54440(15) 0.5248(3) 0.65233(15)
C8 C 0.52122(16) 0.5117(3) 0.57344(16)
C9 C 0.49839(17) 0.4050(3) 0.54052(16)
C10 C 0.47753(16) 0.3935(3) 0.46854(17)
C11 C 0.28945(18) 0.3346(3) 0.6328(2)
H1 H 0.3181 0.2917 0.6179
C12 C 0.1800(2) 0.3637(5) 0.6309(3)
H2 H 0.1683 0.3149 0.6628
H3 H 0.1419 0.3800 0.5902
H4 H 0.1983 0.4368 0.6535
C13 C 0.2033(2) 0.2044(4) 0.5605(3)
H5 H 0.2393 0.1656 0.5534
H6 H 0.1738 0.2347 0.5165
H7 H 0.1808 0.1487 0.5790
C14 C 0.30664(18) 0.7674(3) 0.6833(2)
H8 H 0.3409 0.8125 0.6801
C15 C 0.2489(2) 0.9511(4) 0.6776(3)
H9 H 0.2887 0.9838 0.6764
H10 H 0.2414 0.9810 0.7179
H11 H 0.2131 0.9731 0.6358
C16 C 0.1982(2) 0.7588(5) 0.6849(3)
H12 H 0.2101 0.6778 0.6974
H13 H 0.1634 0.7617 0.6398
H14 H 0.1839 0.7944 0.7194
Er1A Er 0.596689(6) 0.537915(11) 0.802342(6)
Er1_2 Er 0.403311(6) -0.462085(11) 0.697658(6)
Er1A_2 Er 0.596689(6) -0.462085(11) 0.802342(6)
Er1D Er 0.596689(6) 0.462085(11) 0.302342(6)
Er1E Er 0.403311(6) 0.462085(11) 0.197658(6)
F1A F 0.57787(14) 0.1541(2) 0.69585(16)
F2A F 0.57642(14) -0.0789(2) 0.69383(16)
F3D F 0.50292(14) 0.6902(2) 0.42088(12)
F4D F 0.54388(12) 0.7119(2) 0.56069(12)
O1A O 0.55497(12) 0.3466(2) 0.77650(14)
O2A O 0.55454(11) -0.2717(2) 0.77141(13)
O2_2 O 0.44546(11) 0.7283(2) 0.72859(13)
O2A_2 O 0.55454(11) 0.7283(2) 0.77141(13)
O3D O 0.49786(11) 0.4642(2) 0.31998(12)
O3A O 0.49786(11) 0.5358(2) 0.81998(12)
O4D O 0.39673(13) 0.4760(3) 0.31292(14)
O4A O 0.39673(13) 0.5240(3) 0.81292(14)
O5A O 0.68848(12) 0.4196(2) 0.82676(14)
O6A O 0.68616(13) 0.6586(2) 0.81160(17)
O8A O 0.62133(19) 0.6507(3) 0.91062(15)
O9A O 0.64422(18) 0.5769(4) 1.01435(15)
O10A O 0.62620(17) 0.4641(3) 0.92348(16)
N1A N 0.77218(15) 0.3022(3) 0.89007(17)
N2A N 0.74593(15) 0.8230(3) 0.81806(17)
N4A N 0.63174(15) 0.5641(3) 0.95177(16)
C3A C 0.53922(16) 0.0988(3) 0.7239(2)
C4A C 0.53877(17) -0.0235(3) 0.7232(2)
C7D C 0.45560(15) 0.4752(3) 0.34767(15)
C8D C 0.47878(16) 0.4883(3) 0.42656(16)
C9D C 0.50161(17) 0.5950(3) 0.45948(16)
C10D C 0.52247(16) 0.6065(3) 0.53146(17)
C11A C 0.71055(18) 0.3346(3) 0.8672(2)
H1A H 0.6819 0.2917 0.8821
C12A C 0.8200(2) 0.3637(5) 0.8691(3)
H2A H 0.8317 0.3149 0.8372
H3A H 0.8581 0.3800 0.9098
H4A H 0.8017 0.4368 0.8465
C13A C 0.7967(2) 0.2044(4) 0.9395(3)
H5A H 0.7607 0.1656 0.9466
H6A H 0.8262 0.2347 0.9835
H7A H 0.8192 0.1487 0.9210
C14A C 0.69336(18) 0.7674(3) 0.8167(2)
H8A H 0.6591 0.8125 0.8199
C15A C 0.7511(2) 0.9511(4) 0.8224(3)
H9A H 0.7113 0.9838 0.8236
H10A H 0.7586 0.9810 0.7821
H11A H 0.7869 0.9731 0.8642
C16A C 0.8018(2) 0.7588(5) 0.8151(3)
H12A H 0.7899 0.6778 0.8026
H13A H 0.8366 0.7617 0.8602
H14A H 0.8161 0.7944 0.7806
O7 O 0.3513(3) 0.0813(6) 0.5961(3)
N3 N 0.3707(2) -0.0536(4) 0.5251(3)
C17 C 0.3872(3) 0.0323(7) 0.5717(4)
H15 H 0.4304 0.0577 0.5873
C18 C 0.4179(4) -0.1114(8) 0.5016(5)
H16 H 0.4074 -0.0951 0.4526
H17 H 0.4166 -0.1954 0.5084
H18 H 0.4608 -0.0820 0.5280
C19 C 0.3050(3) -0.0978(7) 0.4975(4)
H19 H 0.2796 -0.0597 0.5209
H20 H 0.3053 -0.1818 0.5050
H21 H 0.2861 -0.0816 0.4481
loop_
_geom_bond_atom_site_label_1
_geom_bond_atom_site_label_2
_geom_bond_site_symmetry_1
_geom_bond_site_symmetry_2
Er1 O1 1_555 1_555
F1 C3 1_555 1_555
F2 C4 1_555 1_555
F3 C9 1_555 1_555
F4 C10 1_555 1_555
O1 C1 1_555 1_555
O2 C6 1_555 1_555
O3 Er1 1_555 1_555
O4 C7 1_555 1_555
O5 Er1 1_555 1_555
O6 Er1 1_555 1_555
O7 C17 1_555 1_555
O8 Er1 1_555 1_555
O9 N4 1_555 1_555
O10 Er1 1_555 1_555
N1 C11 1_555 1_555
N2 C14 1_555 1_555
N3 C17 1_555 1_555
N4 O8 1_555 1_555
C1 C2 1_555 1_555
C2 C3 1_555 1_555
C3 C4 1_555 1_555
C4 C5 1_555 1_555
C5 C6 1_555 1_555
C6 O2A 1_555 1_555
C7 O3 1_555 1_555
C8 C7 1_555 1_555
C9 C8 1_555 1_555
C10 C9 1_555 1_555
C11 O5 1_555 1_555
H1 C11 1_555 1_555
C12 N1 1_555 1_555
H2 C12 1_555 1_555
H3 C12 1_555 1_555
H4 C12 1_555 1_555
C13 N1 1_555 1_555
H5 C13 1_555 1_555
H6 C13 1_555 1_555
H7 C13 1_555 1_555
C14 O6 1_555 1_555
H8 C14 1_555 1_555
C15 N2 1_555 1_555
H9 C15 1_555 1_555
H10 C15 1_555 1_555
H11 C15 1_555 1_555
C16 N2 1_555 1_555
H12 C16 1_555 1_555
H13 C16 1_555 1_555
H14 C16 1_555 1_555
C17 H15 1_555 1_555
C18 N3 1_555 1_555
H16 C18 1_555 1_555
H17 C18 1_555 1_555
H18 C18 1_555 1_555
C19 N3 1_555 1_555
H19 C19 1_555 1_555
H20 C19 1_555 1_555
H21 C19 1_555 1_555
Er1A O3 1_555 1_555
Er1_2 O2 1_555 1_555
Er1A_2 O2A 1_555 1_555
Er1D O3D 1_555 1_555
Er1E O3D 1_555 1_555
F1A C3A 1_555 1_555
F2A C4A 1_555 1_555
F3D C9D 1_555 1_555
F4D C10D 1_555 1_555
O1A C1 1_555 1_555
O2_2 Er1 1_555 1_555
O2A_2 Er1A 1_555 1_555
O3D C7D 1_555 1_555
O3A Er1 1_555 1_555
O4D Er1E 1_555 1_555
O4A Er1 1_555 1_555
O5A Er1A 1_555 1_555
O6A Er1A 1_555 1_555
O8A Er1A 1_555 1_555
O9A N4A 1_555 1_555
O10A Er1A 1_555 1_555
N1A C11A 1_555 1_555
N2A C14A 1_555 1_555
N4A O8A 1_555 1_555
C3A C2 1_555 1_555
C4A C5 1_555 1_555
C7D O4D 1_555 1_555
C8D C10 1_555 1_555
C9D C8D 1_555 1_555
C10D C8 1_555 1_555
C11A O5A 1_555 1_555
H1A C11A 1_555 1_555
C12A N1A 1_555 1_555
H2A C12A 1_555 1_555
H3A C12A 1_555 1_555
H4A C12A 1_555 1_555
C13A N1A 1_555 1_555
H5A C13A 1_555 1_555
H6A C13A 1_555 1_555
H7A C13A 1_555 1_555
C14A O6A 1_555 1_555
H8A C14A 1_555 1_555
C15A N2A 1_555 1_555
H9A C15A 1_555 1_555
H10A C15A 1_555 1_555
H11A C15A 1_555 1_555
C16A N2A 1_555 1_555
H12A C16A 1_555 1_555
H13A C16A 1_555 1_555
H14A C16A 1_555 1_555
O4 Er1A 1_555 1_555
O10 N4 1_555 1_555
Er1A O1A 1_555 1_555
Er1A O3A 1_555 1_555
O10A N4A 1_555 1_555
C3A C4A 1_555 1_555
C7D C8D 1_555 1_555
C9D C10D 1_555 1_555

#END
