
#######################################################################
#
#                 Cambridge Crystallographic Data Centre
#                                CCDC 
#
#######################################################################
#
# If this CIF has been generated from an entry in the Cambridge 
# Structural Database, then it will include bibliographic, chemical, 
# crystal, experimental, refinement or atomic coordinate data resulting 
# from the CCDC's data processing and validation procedures.
#
#######################################################################

data_BAXJIV
_symmetry_cell_setting           monoclinic
_symmetry_space_group_name_H-M   'C 2/c'
_symmetry_Int_Tables_number      15
_space_group_name_Hall           '-C 2yn'
loop_
_symmetry_equiv_pos_site_id
_symmetry_equiv_pos_as_xyz
1 x,y,z
2 -x,y,1/2-z
3 1/2+x,1/2+y,z
4 1/2-x,1/2+y,1/2-z
5 -x,-y,-z
6 x,-y,1/2+z
7 1/2-x,1/2-y,-z
8 1/2+x,1/2-y,1/2+z
_cell_length_a                   21.990(4)
_cell_length_b                   11.2571(15)
_cell_length_c                   20.506(4)
_cell_angle_alpha                90
_cell_angle_beta                 111.465(18)
_cell_angle_gamma                90
_cell_volume                     4724.06
loop_
_atom_site_label
_atom_site_type_symbol
_atom_site_fract_x
_atom_site_fract_y
_atom_site_fract_z
Yb1 Yb 0.403349(7) 0.537845(15) 0.697775(8)
F1 F 0.42220(14) 0.1546(2) 0.80428(18)
F2 F 0.42357(14) -0.0794(2) 0.80631(17)
F3 F 0.49566(14) 0.3087(3) 0.57867(14)
F4 F 0.45538(13) 0.2879(2) 0.43909(13)
O1 O 0.44497(13) 0.3484(3) 0.72377(15)
O2 O 0.44523(12) -0.2736(3) 0.72862(15)
O3 O 0.50066(12) 0.5358(3) 0.67990(13)
O4 O 0.60267(12) 0.5239(3) 0.68814(14)
O5 O 0.31246(13) 0.4205(3) 0.67398(17)
O6 O 0.31477(14) 0.6573(3) 0.68893(19)
O8 O 0.3783(2) 0.6514(4) 0.59008(18)
O9 O 0.35579(19) 0.5776(4) 0.48630(17)
O10 O 0.37371(16) 0.4641(4) 0.57699(17)
N1 N 0.22871(17) 0.3027(4) 0.6103(2)
N2 N 0.25441(16) 0.8227(4) 0.6821(2)
N4 N 0.36819(16) 0.5646(4) 0.54887(18)
C1 C 0.5000 0.2991(6) 0.7500
C2 C 0.5000 0.1654(6) 0.7500
C3 C 0.46075(18) 0.0980(4) 0.7764(2)
C4 C 0.46132(18) -0.0227(4) 0.7770(2)
C5 C 0.5000 -0.0898(5) 0.7500
C6 C 0.5000 -0.2240(5) 0.7500
C7 C 0.54355(17) 0.5246(4) 0.65239(18)
C8 C 0.52092(17) 0.5113(4) 0.57331(19)
C9 C 0.49768(19) 0.4044(4) 0.5405(2)
C10 C 0.47697(18) 0.3934(4) 0.4686(2)
C11 C 0.2902(2) 0.3347(4) 0.6330(2)
H1 H 0.3188 0.2917 0.6181
C12 C 0.1809(2) 0.3632(6) 0.6314(3)
H2 H 0.1685 0.3129 0.6623
H3 H 0.1431 0.3814 0.5908
H4 H 0.1994 0.4355 0.6553
C13 C 0.2037(3) 0.2058(5) 0.5603(3)
H5 H 0.2395 0.1653 0.5539
H6 H 0.1751 0.2374 0.5162
H7 H 0.1799 0.1511 0.5779
C14 C 0.30678(19) 0.7667(4) 0.6829(2)
H8 H 0.3405 0.8119 0.6786
C15 C 0.2488(2) 0.9513(5) 0.6771(3)
H9 H 0.2890 0.9844 0.6769
H10 H 0.2401 0.9816 0.7166
H11 H 0.2138 0.9728 0.6346
C16 C 0.1987(2) 0.7570(5) 0.6858(3)
H12 H 0.2120 0.6777 0.7020
H13 H 0.1649 0.7539 0.6401
H14 H 0.1824 0.7961 0.7176
Yb1A Yb 0.596651(7) 0.537845(15) 0.802225(8)
Yb1_2 Yb 0.403349(7) -0.462155(15) 0.697775(8)
Yb1A_2 Yb 0.596651(7) -0.462155(15) 0.802225(8)
Yb1D Yb 0.596651(7) 0.462155(15) 0.302225(8)
Yb1E Yb 0.403349(7) 0.462155(15) 0.197775(8)
F1A F 0.57780(14) 0.1546(2) 0.69572(18)
F2A F 0.57643(14) -0.0794(2) 0.69369(17)
F3D F 0.50434(14) 0.6913(3) 0.42133(14)
F4D F 0.54462(13) 0.7121(2) 0.56091(13)
O1A O 0.55503(13) 0.3484(3) 0.77623(15)
O2A O 0.55477(12) -0.2736(3) 0.77138(15)
O2_2 O 0.44523(12) 0.7264(3) 0.72862(15)
O2A_2 O 0.55477(12) 0.7264(3) 0.77138(15)
O3D O 0.49934(12) 0.4642(3) 0.32010(13)
O3A O 0.49934(12) 0.5358(3) 0.82010(13)
O4D O 0.39733(12) 0.4761(3) 0.31186(14)
O4A O 0.39733(12) 0.5239(3) 0.81186(14)
O5A O 0.68754(13) 0.4205(3) 0.82602(17)
O6A O 0.68523(14) 0.6573(3) 0.81107(19)
O8A O 0.6217(2) 0.6514(4) 0.90992(18)
O9A O 0.64421(19) 0.5776(4) 1.01370(17)
O10A O 0.62629(16) 0.4641(4) 0.92301(17)
N1A N 0.77129(17) 0.3027(4) 0.8897(2)
N2A N 0.74559(16) 0.8227(4) 0.8179(2)
N4A N 0.63181(16) 0.5646(4) 0.95113(18)
C3A C 0.53925(18) 0.0980(4) 0.7236(2)
C4A C 0.53868(18) -0.0227(4) 0.7230(2)
C7D C 0.45645(17) 0.4754(4) 0.34761(18)
C8D C 0.47908(17) 0.4887(4) 0.42669(19)
C9D C 0.50232(19) 0.5956(4) 0.4595(2)
C10D C 0.52303(18) 0.6066(4) 0.5314(2)
C11A C 0.7098(2) 0.3347(4) 0.8670(2)
H1A H 0.6812 0.2917 0.8819
C12A C 0.8191(2) 0.3632(6) 0.8686(3)
H2A H 0.8315 0.3129 0.8377
H3A H 0.8569 0.3814 0.9092
H4A H 0.8006 0.4355 0.8447
C13A C 0.7963(3) 0.2058(5) 0.9397(3)
H5A H 0.7605 0.1653 0.9461
H6A H 0.8249 0.2374 0.9838
H7A H 0.8201 0.1511 0.9221
C14A C 0.69322(19) 0.7667(4) 0.8171(2)
H8A H 0.6595 0.8119 0.8214
C15A C 0.7512(2) 0.9513(5) 0.8229(3)
H9A H 0.7110 0.9844 0.8231
H10A H 0.7599 0.9816 0.7834
H11A H 0.7862 0.9728 0.8654
C16A C 0.8013(2) 0.7570(5) 0.8142(3)
H12A H 0.7880 0.6777 0.7980
H13A H 0.8351 0.7539 0.8599
H14A H 0.8176 0.7961 0.7824
O7 O 0.3517(3) 0.0814(6) 0.5958(3)
N3 N 0.3708(2) -0.0550(5) 0.5241(3)
C17 C 0.3875(3) 0.0313(8) 0.5717(4)
H15 H 0.4310 0.0555 0.5882
C18 C 0.4182(4) -0.1115(8) 0.5010(5)
H16 H 0.4079 -0.0950 0.4521
H17 H 0.4174 -0.1958 0.5078
H18 H 0.4610 -0.0814 0.5275
C19 C 0.3043(3) -0.0969(7) 0.4967(4)
H19 H 0.2788 -0.0533 0.5179
H20 H 0.3033 -0.1798 0.5071
H21 H 0.2864 -0.0853 0.4469
loop_
_geom_bond_atom_site_label_1
_geom_bond_atom_site_label_2
_geom_bond_site_symmetry_1
_geom_bond_site_symmetry_2
Yb1 O1 1_555 1_555
F1 C3 1_555 1_555
F2 C4 1_555 1_555
F3 C9 1_555 1_555
F4 C10 1_555 1_555
O1 C1 1_555 1_555
O2 C6 1_555 1_555
O3 Yb1 1_555 1_555
O4 C7 1_555 1_555
O5 Yb1 1_555 1_555
O6 Yb1 1_555 1_555
O7 C17 1_555 1_555
O8 Yb1 1_555 1_555
O9 N4 1_555 1_555
O10 Yb1 1_555 1_555
N1 C11 1_555 1_555
N2 C14 1_555 1_555
N3 C17 1_555 1_555
N4 O8 1_555 1_555
C1 C2 1_555 1_555
C2 C3 1_555 1_555
C3 C4 1_555 1_555
C4 C5 1_555 1_555
C5 C6 1_555 1_555
C6 O2A 1_555 1_555
C7 O3 1_555 1_555
C8 C7 1_555 1_555
C9 C8 1_555 1_555
C10 C9 1_555 1_555
C11 O5 1_555 1_555
H1 C11 1_555 1_555
C12 N1 1_555 1_555
H2 C12 1_555 1_555
H3 C12 1_555 1_555
H4 C12 1_555 1_555
C13 N1 1_555 1_555
H5 C13 1_555 1_555
H6 C13 1_555 1_555
H7 C13 1_555 1_555
C14 O6 1_555 1_555
H8 C14 1_555 1_555
C15 N2 1_555 1_555
H9 C15 1_555 1_555
H10 C15 1_555 1_555
H11 C15 1_555 1_555
C16 N2 1_555 1_555
H12 C16 1_555 1_555
H13 C16 1_555 1_555
H14 C16 1_555 1_555
C17 H15 1_555 1_555
C18 N3 1_555 1_555
H16 C18 1_555 1_555
H17 C18 1_555 1_555
H18 C18 1_555 1_555
C19 N3 1_555 1_555
H19 C19 1_555 1_555
H20 C19 1_555 1_555
H21 C19 1_555 1_555
Yb1A O3 1_555 1_555
Yb1_2 O2 1_555 1_555
Yb1A_2 O2A 1_555 1_555
Yb1D O3D 1_555 1_555
Yb1E O3D 1_555 1_555
F1A C3A 1_555 1_555
F2A C4A 1_555 1_555
F3D C9D 1_555 1_555
F4D C10D 1_555 1_555
O1A C1 1_555 1_555
O2_2 Yb1 1_555 1_555
O2A_2 Yb1A 1_555 1_555
O3D C7D 1_555 1_555
O3A Yb1 1_555 1_555
O4D Yb1E 1_555 1_555
O4A Yb1 1_555 1_555
O5A Yb1A 1_555 1_555
O6A Yb1A 1_555 1_555
O8A Yb1A 1_555 1_555
O9A N4A 1_555 1_555
O10A Yb1A 1_555 1_555
N1A C11A 1_555 1_555
N2A C14A 1_555 1_555
N4A O8A 1_555 1_555
C3A C2 1_555 1_555
C4A C5 1_555 1_555
C7D O4D 1_555 1_555
C8D C10 1_555 1_555
C9D C8D 1_555 1_555
C10D C8 1_555 1_555
C11A O5A 1_555 1_555
H1A C11A 1_555 1_555
C12A N1A 1_555 1_555
H2A C12A 1_555 1_555
H3A C12A 1_555 1_555
H4A C12A 1_555 1_555
C13A N1A 1_555 1_555
H5A C13A 1_555 1_555
H6A C13A 1_555 1_555
H7A C13A 1_555 1_555
C14A O6A 1_555 1_555
H8A C14A 1_555 1_555
C15A N2A 1_555 1_555
H9A C15A 1_555 1_555
H10A C15A 1_555 1_555
H11A C15A 1_555 1_555
C16A N2A 1_555 1_555
H12A C16A 1_555 1_555
H13A C16A 1_555 1_555
H14A C16A 1_555 1_555
O4 Yb1A 1_555 1_555
O10 N4 1_555 1_555
Yb1A O1A 1_555 1_555
Yb1A O3A 1_555 1_555
O10A N4A 1_555 1_555
C3A C4A 1_555 1_555
C7D C8D 1_555 1_555
C9D C10D 1_555 1_555

#END
