
#######################################################################
#
#                 Cambridge Crystallographic Data Centre
#                                CCDC 
#
#######################################################################
#
# If this CIF has been generated from an entry in the Cambridge 
# Structural Database, then it will include bibliographic, chemical, 
# crystal, experimental, refinement or atomic coordinate data resulting 
# from the CCDC's data processing and validation procedures.
#
#######################################################################

data_BAXJAN
_symmetry_cell_setting           monoclinic
_symmetry_space_group_name_H-M   'C 2/c'
_symmetry_Int_Tables_number      15
_space_group_name_Hall           '-C 2yn'
loop_
_symmetry_equiv_pos_site_id
_symmetry_equiv_pos_as_xyz
1 x,y,z
2 -x,y,1/2-z
3 1/2+x,1/2+y,z
4 1/2-x,1/2+y,1/2-z
5 -x,-y,-z
6 x,-y,1/2+z
7 1/2-x,1/2-y,-z
8 1/2+x,1/2-y,1/2+z
_cell_length_a                   21.8362(12)
_cell_length_b                   11.4002(7)
_cell_length_c                   20.4284(8)
_cell_angle_alpha                90
_cell_angle_beta                 111.456(3)
_cell_angle_gamma                90
_cell_volume                     4732.96
loop_
_atom_site_label
_atom_site_type_symbol
_atom_site_fract_x
_atom_site_fract_y
_atom_site_fract_z
Sm1 Sm 0.400878(7) 0.452679(14) 0.694982(8)
F1 F 0.42001(10) 0.06878(17) 0.80305(11)
F2 F 0.41892(9) -0.16244(18) 0.80116(10)
F3 F 0.49897(10) 0.68089(17) 0.58609(9)
F4 F 0.45602(9) 0.71514(17) 0.44629(9)
O1 O 0.44484(10) 0.25921(19) 0.72664(11)
O2 O 0.44463(10) -0.35280(19) 0.72321(11)
O3 O 0.50556(10) 0.45644(19) 0.68107(11)
O4 O 0.60764(11) 0.4560(2) 0.68504(11)
O5 O 0.30679(11) 0.5768(2) 0.67127(11)
O6 O 0.30824(10) 0.3282(2) 0.67931(11)
O8 O 0.38184(12) 0.3398(2) 0.58318(11)
O9 O 0.35545(12) 0.4163(2) 0.47882(11)
O10 O 0.36901(12) 0.5269(2) 0.57034(12)
N1 N 0.22441(13) 0.6983(2) 0.60733(13)
N2 N 0.25229(12) 0.1606(2) 0.67966(13)
N4 N 0.36839(13) 0.4278(3) 0.54232(15)
C1 C 0.5000 0.2105(4) 0.7500
C2 C 0.5000 0.0784(4) 0.7500
C3 C 0.45919(15) 0.0134(3) 0.77486(17)
C4 C 0.45895(15) -0.1075(3) 0.77458(16)
C5 C 0.5000 -0.1718(4) 0.7500
C6 C 0.5000 -0.3054(4) 0.7500
C7 C 0.54785(16) 0.4634(3) 0.65189(17)
C8 C 0.52259(15) 0.4819(3) 0.57284(16)
C9 C 0.49930(15) 0.5904(3) 0.54368(16)
C10 C 0.47725(15) 0.6076(3) 0.47242(16)
C11 C 0.28577(16) 0.6615(3) 0.63015(16)
H1 H 0.3153 0.7009 0.6148
C12 C 0.17518(15) 0.6432(3) 0.63007(17)
H2 H 0.1936 0.5743 0.6572
H3 H 0.1376 0.6216 0.5896
H4 H 0.1620 0.6974 0.6584
C13 C 0.20088(16) 0.7925(3) 0.55533(17)
H5 H 0.2378 0.8321 0.5505
H6 H 0.1755 0.8474 0.5706
H7 H 0.1739 0.7599 0.5108
C14 C 0.30361(15) 0.2184(3) 0.67796(16)
H8 H 0.3389 0.1752 0.6756
C15 C 0.25125(17) 0.0318(3) 0.67994(19)
H9 H 0.2910 0.0024 0.6762
H10 H 0.2141 0.0042 0.6408
H11 H 0.2480 0.0045 0.7230
C16 C 0.19416(16) 0.2205(3) 0.68167(18)
H12 H 0.2043 0.3017 0.6931
H13 H 0.1806 0.1849 0.7167
H14 H 0.1593 0.2145 0.6365
Sm1A Sm 0.599122(7) 0.452679(14) 0.805018(8)
Sm1_2 Sm 0.400878(7) -0.547321(14) 0.694982(8)
Sm1A_2 Sm 0.599122(7) -0.547321(14) 0.805018(8)
Sm1D Sm 0.599122(7) 0.547321(14) 0.305018(8)
Sm1E Sm 0.400878(7) 0.547321(14) 0.194982(8)
F1A F 0.57999(10) 0.06878(17) 0.69695(11)
F2A F 0.58108(9) -0.16244(18) 0.69884(10)
F3D F 0.50103(10) 0.31911(17) 0.41391(9)
F4D F 0.54398(9) 0.28486(17) 0.55371(9)
O1A O 0.55516(10) 0.25921(19) 0.77336(11)
O2A O 0.55537(10) -0.35280(19) 0.77679(11)
O2_2 O 0.44463(10) 0.64720(19) 0.72321(11)
O2A_2 O 0.55537(10) 0.64720(19) 0.77679(11)
O3D O 0.49444(10) 0.54356(19) 0.31893(11)
O3A O 0.49444(10) 0.45644(19) 0.81893(11)
O4D O 0.39236(11) 0.5440(2) 0.31496(11)
O4A O 0.39236(11) 0.4560(2) 0.81496(11)
O5A O 0.69321(11) 0.5768(2) 0.82873(11)
O6A O 0.69176(10) 0.3282(2) 0.82069(11)
O8A O 0.61816(12) 0.3398(2) 0.91682(11)
O9A O 0.64455(12) 0.4163(2) 1.02118(11)
O10A O 0.63099(12) 0.5269(2) 0.92966(12)
N1A N 0.77559(13) 0.6983(2) 0.89267(13)
N2A N 0.74771(12) 0.1606(2) 0.82034(13)
N4A N 0.63161(13) 0.4278(3) 0.95768(15)
C3A C 0.54081(15) 0.0134(3) 0.72514(17)
C4A C 0.54105(15) -0.1075(3) 0.72542(16)
C7D C 0.45215(16) 0.5366(3) 0.34811(17)
C8D C 0.47741(15) 0.5181(3) 0.42716(16)
C9D C 0.50070(15) 0.4096(3) 0.45632(16)
C10D C 0.52275(15) 0.3924(3) 0.52758(16)
C11A C 0.71423(16) 0.6615(3) 0.86985(16)
H1A H 0.6847 0.7009 0.8852
C12A C 0.82482(15) 0.6432(3) 0.86993(17)
H2A H 0.8064 0.5743 0.8428
H3A H 0.8624 0.6216 0.9104
H4A H 0.8380 0.6974 0.8416
C13A C 0.79912(16) 0.7925(3) 0.94467(17)
H5A H 0.7622 0.8321 0.9495
H6A H 0.8245 0.8474 0.9294
H7A H 0.8261 0.7599 0.9892
C14A C 0.69639(15) 0.2184(3) 0.82204(16)
H8A H 0.6611 0.1752 0.8244
C15A C 0.74875(17) 0.0318(3) 0.82006(19)
H9A H 0.7090 0.0024 0.8238
H10A H 0.7859 0.0042 0.8592
H11A H 0.7520 0.0045 0.7770
C16A C 0.80584(16) 0.2205(3) 0.81833(18)
H12A H 0.7957 0.3017 0.8069
H13A H 0.8194 0.1849 0.7833
H14A H 0.8407 0.2145 0.8635
O7 O 0.35134(15) -0.0839(3) 0.59506(15)
N3 N 0.36981(15) 0.0501(3) 0.52133(16)
C17 C 0.3872(2) -0.0337(4) 0.5701(2)
H15 H 0.4312 -0.0563 0.5868
C18 C 0.41771(19) 0.1067(4) 0.4969(2)
H16 H 0.4611 0.0792 0.5243
H17 H 0.4158 0.1902 0.5021
H18 H 0.4077 0.0880 0.4483
C19 C 0.30218(18) 0.0928(4) 0.4925(2)
H19 H 0.2765 0.0536 0.5154
H20 H 0.2838 0.0770 0.4429
H21 H 0.3016 0.1758 0.5003
loop_
_geom_bond_atom_site_label_1
_geom_bond_atom_site_label_2
_geom_bond_site_symmetry_1
_geom_bond_site_symmetry_2
Sm1 O1 1_555 1_555
F1 C3 1_555 1_555
F2 C4 1_555 1_555
F3 C9 1_555 1_555
F4 C10 1_555 1_555
O1 C1 1_555 1_555
O2 C6 1_555 1_555
O3 Sm1 1_555 1_555
O4 C7 1_555 1_555
O5 Sm1 1_555 1_555
O6 Sm1 1_555 1_555
O7 C17 1_555 1_555
O8 Sm1 1_555 1_555
O9 N4 1_555 1_555
O10 Sm1 1_555 1_555
N1 C11 1_555 1_555
N2 C14 1_555 1_555
N3 C17 1_555 1_555
N4 O8 1_555 1_555
C1 C2 1_555 1_555
C2 C3 1_555 1_555
C3 C4 1_555 1_555
C4 C5 1_555 1_555
C5 C6 1_555 1_555
C6 O2A 1_555 1_555
C7 O3 1_555 1_555
C8 C7 1_555 1_555
C9 C8 1_555 1_555
C10 C9 1_555 1_555
C11 O5 1_555 1_555
H1 C11 1_555 1_555
C12 N1 1_555 1_555
H2 C12 1_555 1_555
H3 C12 1_555 1_555
H4 C12 1_555 1_555
C13 N1 1_555 1_555
H5 C13 1_555 1_555
H6 C13 1_555 1_555
H7 C13 1_555 1_555
C14 O6 1_555 1_555
H8 C14 1_555 1_555
C15 N2 1_555 1_555
H9 C15 1_555 1_555
H10 C15 1_555 1_555
H11 C15 1_555 1_555
C16 N2 1_555 1_555
H12 C16 1_555 1_555
H13 C16 1_555 1_555
H14 C16 1_555 1_555
C17 H15 1_555 1_555
C18 N3 1_555 1_555
H16 C18 1_555 1_555
H17 C18 1_555 1_555
H18 C18 1_555 1_555
C19 N3 1_555 1_555
H19 C19 1_555 1_555
H20 C19 1_555 1_555
H21 C19 1_555 1_555
Sm1A O3 1_555 1_555
Sm1_2 O2 1_555 1_555
Sm1A_2 O2A 1_555 1_555
Sm1D O3D 1_555 1_555
Sm1E O3D 1_555 1_555
F1A C3A 1_555 1_555
F2A C4A 1_555 1_555
F3D C9D 1_555 1_555
F4D C10D 1_555 1_555
O1A C1 1_555 1_555
O2_2 Sm1 1_555 1_555
O2A_2 Sm1A 1_555 1_555
O3D C7D 1_555 1_555
O3A Sm1 1_555 1_555
O4D Sm1E 1_555 1_555
O4A Sm1 1_555 1_555
O5A Sm1A 1_555 1_555
O6A Sm1A 1_555 1_555
O8A Sm1A 1_555 1_555
O9A N4A 1_555 1_555
O10A Sm1A 1_555 1_555
N1A C11A 1_555 1_555
N2A C14A 1_555 1_555
N4A O8A 1_555 1_555
C3A C2 1_555 1_555
C4A C5 1_555 1_555
C7D O4D 1_555 1_555
C8D C10 1_555 1_555
C9D C8D 1_555 1_555
C10D C8 1_555 1_555
C11A O5A 1_555 1_555
H1A C11A 1_555 1_555
C12A N1A 1_555 1_555
H2A C12A 1_555 1_555
H3A C12A 1_555 1_555
H4A C12A 1_555 1_555
C13A N1A 1_555 1_555
H5A C13A 1_555 1_555
H6A C13A 1_555 1_555
H7A C13A 1_555 1_555
C14A O6A 1_555 1_555
H8A C14A 1_555 1_555
C15A N2A 1_555 1_555
H9A C15A 1_555 1_555
H10A C15A 1_555 1_555
H11A C15A 1_555 1_555
C16A N2A 1_555 1_555
H12A C16A 1_555 1_555
H13A C16A 1_555 1_555
H14A C16A 1_555 1_555
O4 Sm1A 1_555 1_555
O10 N4 1_555 1_555
Sm1A O1A 1_555 1_555
Sm1A O3A 1_555 1_555
O10A N4A 1_555 1_555
C3A C4A 1_555 1_555
C7D C8D 1_555 1_555
C9D C10D 1_555 1_555

#END
