
#######################################################################
#
#                 Cambridge Crystallographic Data Centre
#                                CCDC 
#
#######################################################################
#
# If this CIF has been generated from an entry in the Cambridge 
# Structural Database, then it will include bibliographic, chemical, 
# crystal, experimental, refinement or atomic coordinate data resulting 
# from the CCDC's data processing and validation procedures.
#
#######################################################################

data_BAXJAN01
_symmetry_cell_setting           monoclinic
_symmetry_space_group_name_H-M   'C 2/c'
_symmetry_Int_Tables_number      15
_space_group_name_Hall           '-C 2yn'
loop_
_symmetry_equiv_pos_site_id
_symmetry_equiv_pos_as_xyz
1 x,y,z
2 -x,y,1/2-z
3 1/2+x,1/2+y,z
4 1/2-x,1/2+y,1/2-z
5 -x,-y,-z
6 x,-y,1/2+z
7 1/2-x,1/2-y,-z
8 1/2+x,1/2-y,1/2+z
_cell_length_a                   22.1079(9)
_cell_length_b                   11.4266(4)
_cell_length_c                   20.6025(8)
_cell_angle_alpha                90
_cell_angle_beta                 111.223(2)
_cell_angle_gamma                90
_cell_volume                     4851.58
loop_
_atom_site_label
_atom_site_type_symbol
_atom_site_fract_x
_atom_site_fract_y
_atom_site_fract_z
Sm1 Sm 0.402140(13) 0.46059(2) 0.696572(14)
F1 F 0.4230(2) 0.0761(3) 0.8049(3)
F2 F 0.4219(2) -0.1550(3) 0.8033(3)
F3 F 0.4992(2) 0.6869(3) 0.5804(2)
F4 F 0.4577(2) 0.7115(3) 0.4417(2)
O1 O 0.44587(19) 0.2664(3) 0.7270(2)
O2 O 0.4459(2) -0.3450(3) 0.7237(3)
O3 O 0.50448(19) 0.4629(3) 0.6797(2)
O4 O 0.6045(2) 0.4747(6) 0.6844(2)
O5 O 0.3085(2) 0.5826(4) 0.6716(3)
O6 O 0.3113(2) 0.3364(4) 0.6861(3)
O8 O 0.3781(3) 0.3483(5) 0.5852(3)
O9 O 0.3550(3) 0.4226(6) 0.4827(3)
O10 O 0.3740(3) 0.5337(4) 0.5734(2)
N1 N 0.2256(3) 0.6985(5) 0.6088(3)
N2 N 0.2533(3) 0.1725(5) 0.6823(3)
N4 N 0.3673(3) 0.4350(6) 0.5451(3)
C1 C 0.5000 0.2190(6) 0.7500
C2 C 0.5000 0.0843(7) 0.7500
C3 C 0.4606(3) 0.0205(5) 0.7758(4)
C4 C 0.4603(3) -0.1000(5) 0.7758(4)
C5 C 0.5000 -0.1638(6) 0.7500
C6 C 0.5000 -0.2976(7) 0.7500
C7 C 0.5459(3) 0.4730(5) 0.6511(3)
C8 C 0.5217(3) 0.4872(5) 0.5728(3)
C9 C 0.4996(3) 0.5933(5) 0.5412(3)
C10 C 0.4784(3) 0.6055(5) 0.4702(3)
C11 C 0.2865(3) 0.6658(6) 0.6316(4)
H1 H 0.3151 0.7078 0.6167
C12 C 0.1788(4) 0.6392(8) 0.6307(5)
H2 H 0.1965 0.5662 0.6523
H3 H 0.1401 0.6247 0.5910
H4 H 0.1684 0.6873 0.6635
C13 C 0.2012(4) 0.7956(7) 0.5592(5)
H5 H 0.2372 0.8397 0.5565
H6 H 0.1742 0.8456 0.5746
H7 H 0.1763 0.7647 0.5140
C14 C 0.3050(3) 0.2279(6) 0.6830(4)
H8 H 0.3395 0.1835 0.6811
C15 C 0.2496(4) 0.0445(6) 0.6799(5)
H9 H 0.2884 0.0132 0.6760
H10 H 0.2127 0.0206 0.6403
H11 H 0.2451 0.0158 0.7217
C16 C 0.1966(4) 0.2359(7) 0.6825(5)
H12 H 0.2078 0.3164 0.6943
H13 H 0.1812 0.2019 0.7163
H14 H 0.1631 0.2315 0.6372
Sm1A Sm 0.597860(13) 0.46059(2) 0.803428(14)
Sm1_2 Sm 0.402140(13) -0.53941(2) 0.696572(14)
Sm1A_2 Sm 0.597860(13) -0.53941(2) 0.803428(14)
Sm1D Sm 0.597860(13) 0.53941(2) 0.303428(14)
Sm1E Sm 0.402140(13) 0.53941(2) 0.196572(14)
F1A F 0.5770(2) 0.0761(3) 0.6951(3)
F2A F 0.5781(2) -0.1550(3) 0.6967(3)
F3D F 0.5008(2) 0.3131(3) 0.4196(2)
F4D F 0.5423(2) 0.2885(3) 0.5583(2)
O1A O 0.55413(19) 0.2664(3) 0.7730(2)
O2A O 0.5541(2) -0.3450(3) 0.7763(3)
O2_2 O 0.4459(2) 0.6550(3) 0.7237(3)
O2A_2 O 0.5541(2) 0.6550(3) 0.7763(3)
O3D O 0.49552(19) 0.5371(3) 0.3203(2)
O3A O 0.49552(19) 0.4629(3) 0.8203(2)
O4D O 0.3955(2) 0.5253(6) 0.3156(2)
O4A O 0.3955(2) 0.4747(6) 0.8156(2)
O5A O 0.6915(2) 0.5826(4) 0.8284(3)
O6A O 0.6887(2) 0.3364(4) 0.8139(3)
O8A O 0.6219(3) 0.3483(5) 0.9148(3)
O9A O 0.6450(3) 0.4226(6) 1.0173(3)
O10A O 0.6260(3) 0.5337(4) 0.9266(2)
N1A N 0.7744(3) 0.6985(5) 0.8912(3)
N2A N 0.7467(3) 0.1725(5) 0.8177(3)
N4A N 0.6327(3) 0.4350(6) 0.9549(3)
C3A C 0.5394(3) 0.0205(5) 0.7242(4)
C4A C 0.5397(3) -0.1000(5) 0.7242(4)
C7D C 0.4541(3) 0.5270(5) 0.3489(3)
C8D C 0.4783(3) 0.5128(5) 0.4272(3)
C9D C 0.5004(3) 0.4067(5) 0.4588(3)
C10D C 0.5216(3) 0.3945(5) 0.5298(3)
C11A C 0.7135(3) 0.6658(6) 0.8684(4)
H1A H 0.6849 0.7078 0.8833
C12A C 0.8212(4) 0.6392(8) 0.8693(5)
H2A H 0.8035 0.5662 0.8477
H3A H 0.8599 0.6247 0.9090
H4A H 0.8316 0.6873 0.8365
C13A C 0.7988(4) 0.7956(7) 0.9408(5)
H5A H 0.7628 0.8397 0.9435
H6A H 0.8258 0.8456 0.9254
H7A H 0.8237 0.7647 0.9860
C14A C 0.6950(3) 0.2279(6) 0.8170(4)
H8A H 0.6605 0.1835 0.8189
C15A C 0.7504(4) 0.0445(6) 0.8201(5)
H9A H 0.7116 0.0132 0.8240
H10A H 0.7873 0.0206 0.8597
H11A H 0.7549 0.0158 0.7783
C16A C 0.8034(4) 0.2359(7) 0.8175(5)
H12A H 0.7922 0.3164 0.8057
H13A H 0.8188 0.2019 0.7837
H14A H 0.8369 0.2315 0.8628
O7 O 0.3491(5) -0.0824(9) 0.5945(6)
N3 N 0.3711(4) 0.0511(7) 0.5267(5)
C17 C 0.3858(6) -0.0336(11) 0.5719(7)
H15 H 0.4287 -0.0591 0.5884
C18 C 0.4193(6) 0.1078(13) 0.5047(9)
H16 H 0.4593 0.0651 0.5225
H17 H 0.4261 0.1864 0.5223
H18 H 0.4042 0.1093 0.4548
C19 C 0.3045(5) 0.0973(11) 0.4984(6)
H19 H 0.2817 0.0749 0.5283
H20 H 0.2825 0.0659 0.4527
H21 H 0.3058 0.1811 0.4959
loop_
_geom_bond_atom_site_label_1
_geom_bond_atom_site_label_2
_geom_bond_site_symmetry_1
_geom_bond_site_symmetry_2
Sm1 O1 1_555 1_555
F1 C3 1_555 1_555
F2 C4 1_555 1_555
F3 C9 1_555 1_555
F4 C10 1_555 1_555
O1 C1 1_555 1_555
O2 C6 1_555 1_555
O3 Sm1 1_555 1_555
O4 C7 1_555 1_555
O5 Sm1 1_555 1_555
O6 Sm1 1_555 1_555
O7 C17 1_555 1_555
O8 Sm1 1_555 1_555
O9 N4 1_555 1_555
O10 Sm1 1_555 1_555
N1 C11 1_555 1_555
N2 C14 1_555 1_555
N3 C17 1_555 1_555
N4 O8 1_555 1_555
C1 C2 1_555 1_555
C2 C3 1_555 1_555
C3 C4 1_555 1_555
C4 C5 1_555 1_555
C5 C6 1_555 1_555
C6 O2A 1_555 1_555
C7 O3 1_555 1_555
C8 C7 1_555 1_555
C9 C8 1_555 1_555
C10 C9 1_555 1_555
C11 O5 1_555 1_555
H1 C11 1_555 1_555
C12 N1 1_555 1_555
H2 C12 1_555 1_555
H3 C12 1_555 1_555
H4 C12 1_555 1_555
C13 N1 1_555 1_555
H5 C13 1_555 1_555
H6 C13 1_555 1_555
H7 C13 1_555 1_555
C14 O6 1_555 1_555
H8 C14 1_555 1_555
C15 N2 1_555 1_555
H9 C15 1_555 1_555
H10 C15 1_555 1_555
H11 C15 1_555 1_555
C16 N2 1_555 1_555
H12 C16 1_555 1_555
H13 C16 1_555 1_555
H14 C16 1_555 1_555
C17 H15 1_555 1_555
C18 N3 1_555 1_555
H16 C18 1_555 1_555
H17 C18 1_555 1_555
H18 C18 1_555 1_555
C19 N3 1_555 1_555
H19 C19 1_555 1_555
H20 C19 1_555 1_555
H21 C19 1_555 1_555
Sm1A O3 1_555 1_555
Sm1_2 O2 1_555 1_555
Sm1A_2 O2A 1_555 1_555
Sm1D O3D 1_555 1_555
Sm1E O3D 1_555 1_555
F1A C3A 1_555 1_555
F2A C4A 1_555 1_555
F3D C9D 1_555 1_555
F4D C10D 1_555 1_555
O1A C1 1_555 1_555
O2_2 Sm1 1_555 1_555
O2A_2 Sm1A 1_555 1_555
O3D C7D 1_555 1_555
O3A Sm1 1_555 1_555
O4D Sm1E 1_555 1_555
O4A Sm1 1_555 1_555
O5A Sm1A 1_555 1_555
O6A Sm1A 1_555 1_555
O8A Sm1A 1_555 1_555
O9A N4A 1_555 1_555
O10A Sm1A 1_555 1_555
N1A C11A 1_555 1_555
N2A C14A 1_555 1_555
N4A O8A 1_555 1_555
C3A C2 1_555 1_555
C4A C5 1_555 1_555
C7D O4D 1_555 1_555
C8D C10 1_555 1_555
C9D C8D 1_555 1_555
C10D C8 1_555 1_555
C11A O5A 1_555 1_555
H1A C11A 1_555 1_555
C12A N1A 1_555 1_555
H2A C12A 1_555 1_555
H3A C12A 1_555 1_555
H4A C12A 1_555 1_555
C13A N1A 1_555 1_555
H5A C13A 1_555 1_555
H6A C13A 1_555 1_555
H7A C13A 1_555 1_555
C14A O6A 1_555 1_555
H8A C14A 1_555 1_555
C15A N2A 1_555 1_555
H9A C15A 1_555 1_555
H10A C15A 1_555 1_555
H11A C15A 1_555 1_555
C16A N2A 1_555 1_555
H12A C16A 1_555 1_555
H13A C16A 1_555 1_555
H14A C16A 1_555 1_555
O4 Sm1A 1_555 1_555
O10 N4 1_555 1_555
Sm1A O1A 1_555 1_555
Sm1A O3A 1_555 1_555
O10A N4A 1_555 1_555
C3A C4A 1_555 1_555
C7D C8D 1_555 1_555
C9D C10D 1_555 1_555

#END
