
#######################################################################
#
#                 Cambridge Crystallographic Data Centre
#                                CCDC 
#
#######################################################################
#
# If this CIF has been generated from an entry in the Cambridge 
# Structural Database, then it will include bibliographic, chemical, 
# crystal, experimental, refinement or atomic coordinate data resulting 
# from the CCDC's data processing and validation procedures.
#
#######################################################################

data_BAXLOD
_symmetry_cell_setting           tetragonal
_symmetry_space_group_name_H-M   'P 41'
_symmetry_Int_Tables_number      76
_space_group_name_Hall           'P 4w'
loop_
_symmetry_equiv_pos_site_id
_symmetry_equiv_pos_as_xyz
1 x,y,z
2 -x,-y,1/2+z
3 -y,x,1/4+z
4 y,-x,3/4+z
_cell_length_a                   12.2986(17)
_cell_length_b                   12.2986(17)
_cell_length_c                   5.2444(10)
_cell_angle_alpha                90
_cell_angle_beta                 90
_cell_angle_gamma                90
_cell_volume                     793.245
loop_
_atom_site_label
_atom_site_type_symbol
_atom_site_fract_x
_atom_site_fract_y
_atom_site_fract_z
O1 O 0.8731(2) 0.4163(2) 0.5760(5)
Ni1 Ni 1.01225(4) 0.67929(4) 0.25610(9)
S1 S 0.69150(8) 0.56127(8) 0.31643(19)
O2 O 0.96850(19) 0.56929(19) 0.5253(5)
O3 O 0.7443(2) 0.87226(19) 0.2552(6)
N1 N 0.8754(2) 0.6177(2) 0.0667(6)
H1 H 0.9065 0.5957 -0.1188
O4 O 0.8974(2) 0.7908(2) 0.3741(5)
O5 O 1.0450(2) 0.7894(2) -0.0243(5)
H2 H 1.0790 0.7613 -0.1212
H3 H 1.0276 0.8385 -0.0127
C1 C 0.8138(3) 0.7955(3) 0.2361(8)
C2 C 0.8971(3) 0.5022(3) 0.4575(8)
C3 C 0.8306(3) 0.5246(3) 0.2164(8)
H4 H 0.8285 0.4592 0.1097
C4 C 0.6808(3) 0.6563(3) 0.0538(8)
H5 H 0.6618 0.6190 -0.1030
H6 H 0.6264 0.7114 0.0888
C5 C 0.7944(3) 0.7068(3) 0.0351(8)
H7 H 0.8032 0.7388 -0.1348
O1A O 1.1269(2) 0.5837(2) 0.0760(5)
Ni1A Ni 0.98775(4) 0.32071(4) 0.75610(9)
Ni1C Ni 0.67929(4) 0.98775(4) 0.00610(9)
O3B O 1.12774(19) 0.7443(2) 0.5052(6)
O6 O 0.9956(7) 0.0168(7) 0.022(4)
loop_
_geom_bond_atom_site_label_1
_geom_bond_atom_site_label_2
_geom_bond_site_symmetry_1
_geom_bond_site_symmetry_2
O1 C2 1_555 1_555
Ni1 O2 1_555 1_555
S1 C3 1_555 1_555
O2 C2 1_555 1_555
O3 C1 1_555 1_555
N1 Ni1 1_555 1_555
H1 N1 1_555 1_555
O4 Ni1 1_555 1_555
O5 Ni1 1_555 1_555
H2 O5 1_555 1_555
H3 O5 1_555 1_555
C1 O4 1_555 1_555
C2 C3 1_555 1_555
C3 N1 1_555 1_555
H4 C3 1_555 1_555
C4 S1 1_555 1_555
H5 C4 1_555 1_555
H6 C4 1_555 1_555
C5 N1 1_555 1_555
H7 C5 1_555 1_555
O1A Ni1 1_555 1_555
Ni1A O1 1_555 1_555
Ni1C O3 1_555 1_555
O3B Ni1 1_555 1_555
C1 C5 1_555 1_555
C4 C5 1_555 1_555

#END
