
#######################################################################
#
#                 Cambridge Crystallographic Data Centre
#                                CCDC 
#
#######################################################################
#
# If this CIF has been generated from an entry in the Cambridge 
# Structural Database, then it will include bibliographic, chemical, 
# crystal, experimental, refinement or atomic coordinate data resulting 
# from the CCDC's data processing and validation procedures.
#
#######################################################################

data_BAXLUJ
_symmetry_cell_setting           monoclinic
_symmetry_space_group_name_H-M   'P 21'
_symmetry_Int_Tables_number      4
_space_group_name_Hall           'P 2yb'
loop_
_symmetry_equiv_pos_site_id
_symmetry_equiv_pos_as_xyz
1 x,y,z
2 -x,1/2+y,-z
_cell_length_a                   5.3190(11)
_cell_length_b                   9.5535(19)
_cell_length_c                   9.7302(19)
_cell_angle_alpha                90
_cell_angle_beta                 101.23(3)
_cell_angle_gamma                90
_cell_volume                     484.974
loop_
_atom_site_label
_atom_site_type_symbol
_atom_site_fract_x
_atom_site_fract_y
_atom_site_fract_z
Ni1 Ni 0.04303(7) 0.34975(3) 0.88468(4)
S1 S -0.07899(19) 0.66951(10) 0.57871(10)
N1 N 0.1819(5) 0.4675(3) 0.7393(3)
H1 H 0.3041 0.4275 0.7154
C1 C -0.0189(6) 0.4822(3) 0.6115(3)
H2 H 0.0406 0.4401 0.5317
C2 C -0.2750(6) 0.4160(3) 0.6263(3)
C3 C 0.2638(6) 0.6054(3) 0.8025(3)
H3 H 0.4458 0.6008 0.8465
C4 C 0.1072(6) 0.6405(3) 0.9149(3)
C5 C 0.2276(7) 0.7146(3) 0.6867(4)
H4 H 0.3637 0.7092 0.6335
H5 H 0.2240 0.8082 0.7249
O1 O -0.4596(4) 0.4327(3) 0.5288(2)
O2 O -0.2822(4) 0.3482(3) 0.73769(19)
O3 O -0.0379(4) 0.5485(2) 0.9485(2)
O4 O 0.1419(4) 0.7600(2) 0.9698(2)
O5 O 0.3768(4) 0.3660(4) 1.0356(2)
H6 H 0.3618 0.4298 1.0898
H7 H 0.5173 0.3349 1.0266
O6 O 0.1426(5) 0.1564(3) 0.8180(3)
H8 H 0.1480 0.0993 0.8814
H9 H 0.2689 0.1447 0.7696
Ni1A Ni -0.04303(7) 0.84975(3) 1.11532(4)
O4A O -0.1419(4) 0.2600(2) 1.0302(2)
O7 O 0.4323(5) 0.5455(3) 0.2666(3)
H10 H 0.4533 0.5088 0.3477
H11 H 0.2877 0.5965 0.2663
loop_
_geom_bond_atom_site_label_1
_geom_bond_atom_site_label_2
_geom_bond_site_symmetry_1
_geom_bond_site_symmetry_2
Ni1 N1 1_555 1_555
S1 C1 1_555 1_555
N1 H1 1_555 1_555
C1 N1 1_555 1_555
H2 C1 1_555 1_555
C2 C1 1_555 1_555
C3 N1 1_555 1_555
H3 C3 1_555 1_555
C4 C3 1_555 1_555
C5 S1 1_555 1_555
H4 C5 1_555 1_555
H5 C5 1_555 1_555
O1 C2 1_555 1_555
O2 Ni1 1_555 1_555
O3 Ni1 1_555 1_555
O4 C4 1_555 1_555
O5 Ni1 1_555 1_555
H6 O5 1_555 1_555
H7 O5 1_555 1_555
O6 Ni1 1_555 1_555
H8 O6 1_555 1_555
H9 O6 1_555 1_555
O7 H10 1_555 1_555
H11 O7 1_555 1_555
Ni1A O4 1_555 1_555
O4A Ni1 1_555 1_555
C2 O2 1_555 1_555
C3 C5 1_555 1_555
C4 O3 1_555 1_555

#END
