
#######################################################################
#
#                 Cambridge Crystallographic Data Centre
#                                CCDC 
#
#######################################################################
#
# If this CIF has been generated from an entry in the Cambridge 
# Structural Database, then it will include bibliographic, chemical, 
# crystal, experimental, refinement or atomic coordinate data resulting 
# from the CCDC's data processing and validation procedures.
#
#######################################################################

data_BAXNUK
_symmetry_cell_setting           monoclinic
_symmetry_space_group_name_H-M   'C 2/c'
_symmetry_Int_Tables_number      15
_space_group_name_Hall           '-C 2yn'
loop_
_symmetry_equiv_pos_site_id
_symmetry_equiv_pos_as_xyz
1 x,y,z
2 1/2+x,1/2+y,z
3 x,-y,1/2+z
4 1/2+x,1/2-y,1/2+z
5 -x,-y,-z
6 1/2-x,1/2-y,-z
7 -x,y,1/2-z
8 1/2-x,1/2+y,1/2-z
_cell_length_a                   34.465(7)
_cell_length_b                   21.644(4)
_cell_length_c                   9.3190(19)
_cell_angle_alpha                90
_cell_angle_beta                 100.01(3)
_cell_angle_gamma                90
_cell_volume                     6845.78
loop_
_atom_site_label
_atom_site_type_symbol
_atom_site_fract_x
_atom_site_fract_y
_atom_site_fract_z
Au1 Au -0.160121(14) -0.25036(2) -0.10379(5)
N1 N -0.1203(3) -0.1828(5) -0.0091(10)
C1 C -0.0954(4) -0.1538(6) -0.0765(14)
H1 H -0.0937 -0.1657 -0.1734
C2 C -0.0714(4) -0.1067(6) -0.0130(13)
H2 H -0.0533 -0.0872 -0.0642
C3 C -0.0744(3) -0.0886(6) 0.1271(13)
C4 C -0.1008(4) -0.1204(7) 0.1992(14)
H3 H -0.1026 -0.1104 0.2971
C5 C -0.1238(4) -0.1655(7) 0.1286(17)
H4 H -0.1427 -0.1855 0.1759
C6 C -0.0512(3) -0.0361(5) 0.2128(12)
O1 O -0.0498(3) -0.0328(4) 0.3437(9)
N2 N -0.0346(3) 0.0045(4) 0.1332(10)
H5 H -0.0351 -0.0033 0.0402
C7 C -0.0164(3) 0.0591(5) 0.1930(12)
C8 C -0.0316(3) 0.1156(6) 0.1373(12)
H6 H -0.0535 0.1158 0.0597
C9 C -0.0158(4) 0.1712(6) 0.1913(14)
H7 H -0.0262 0.2091 0.1495
P1 P -0.20716(10) -0.31968(15) -0.1796(4)
C10 C -0.2280(3) -0.3483(5) -0.0247(9)
C11 C -0.2669(2) -0.3679(5) -0.0383(10)
H8 H -0.2837 -0.3663 -0.1305
C12 C -0.2811(3) -0.3897(6) 0.0829(14)
H9 H -0.3077 -0.4031 0.0736
C13 C -0.2565(4) -0.3920(5) 0.2177(11)
H10 H -0.2662 -0.4069 0.3005
C14 C -0.2176(4) -0.3724(5) 0.2313(8)
H11 H -0.2007 -0.3740 0.3235
C15 C -0.2033(2) -0.3506(5) 0.1101(10)
H12 H -0.1768 -0.3372 0.1195
C16 C -0.1909(3) -0.3877(6) -0.2698(14)
C17 C -0.1523(5) -0.3951(9) -0.284(2)
H13 H -0.1328 -0.3668 -0.2391
C18 C -0.1421(6) -0.4445(11) -0.364(3)
H14 H -0.1153 -0.4512 -0.3707
C19 C -0.1710(7) -0.4846(12) -0.434(3)
H15 H -0.1644 -0.5163 -0.4962
C20 C -0.2096(7) -0.4774(11) -0.413(3)
H16 H -0.2292 -0.5063 -0.4543
C21 C -0.2197(5) -0.4286(9) -0.331(3)
H17 H -0.2462 -0.4232 -0.3178
C28 C -0.2474(4) -0.2870(6) -0.3090(15)
H23 H -0.2673 -0.3195 -0.3403
H24 H -0.2602 -0.2539 -0.2609
C29 C -0.2331(4) -0.2604(6) -0.4442(17)
H25 H -0.2153 -0.2250 -0.4146
H26 H -0.2179 -0.2923 -0.4869
C7F C 0.0164(3) 0.0591(5) 0.3070(12)
N2F N 0.0346(3) 0.0045(4) 0.3668(10)
C6F C 0.0512(3) -0.0361(5) 0.2872(12)
C3F C 0.0744(3) -0.0886(6) 0.3729(13)
C2F C 0.0714(4) -0.1067(6) 0.5130(13)
C1F C 0.0954(4) -0.1538(6) 0.5765(14)
N1F N 0.1203(3) -0.1828(5) 0.5091(10)
C5F C 0.1238(4) -0.1655(7) 0.3714(17)
C4F C 0.1008(4) -0.1204(7) 0.3008(14)
H3F H 0.1026 -0.1104 0.2029
H4F H 0.1427 -0.1855 0.3241
H1F H 0.0937 -0.1657 0.6734
H2F H 0.0533 -0.0872 0.5642
O1F O 0.0498(3) -0.0328(4) 0.1563(9)
H5F H 0.0351 -0.0033 0.4598
C8F C 0.0316(3) 0.1156(6) 0.3627(12)
H6F H 0.0535 0.1158 0.4403
C9F C 0.0158(4) 0.1712(6) 0.3087(14)
H7F H 0.0262 0.2091 0.3505
C29E C -0.2669(4) -0.2396(6) -0.5558(17)
C28E C -0.2526(4) -0.2130(6) -0.6910(15)
P1E P -0.29284(10) -0.18032(15) -0.8204(4)
C10E C -0.2720(3) -0.1517(5) -0.9753(9)
C11E C -0.2331(2) -0.1321(5) -0.9617(10)
H8E H -0.2163 -0.1337 -0.8695
C12E C -0.2189(3) -0.1103(6) -1.0829(14)
H9E H -0.1923 -0.0969 -1.0736
C13E C -0.2435(4) -0.1080(5) -1.2177(11)
H10E H -0.2338 -0.0931 -1.3005
C14E C -0.2824(4) -0.1276(5) -1.2313(8)
H11E H -0.2993 -0.1260 -1.3235
C15E C -0.2967(2) -0.1494(5) -1.1101(10)
H12E H -0.3232 -0.1628 -1.1195
C16E C -0.3091(3) -0.1123(6) -0.7302(14)
C17E C -0.3477(5) -0.1049(9) -0.716(2)
H13E H -0.3672 -0.1332 -0.7609
C18E C -0.3579(6) -0.0555(11) -0.636(3)
H14E H -0.3847 -0.0488 -0.6293
C19E C -0.3290(7) -0.0154(12) -0.566(3)
H15E H -0.3356 0.0163 -0.5038
C20E C -0.2904(7) -0.0226(11) -0.587(3)
H16E H -0.2708 0.0063 -0.5457
C21E C -0.2803(5) -0.0714(9) -0.669(3)
H17E H -0.2538 -0.0768 -0.6822
H23E H -0.2327 -0.1805 -0.6597
H24E H -0.2398 -0.2461 -0.7391
H25E H -0.2847 -0.2750 -0.5854
H26E H -0.2821 -0.2077 -0.5131
Au1F Au 0.160121(14) -0.25036(2) 0.60379(5)
Au1E Au -0.339879(14) -0.24964(2) -0.89621(5)
P1F P 0.20716(10) -0.31968(15) 0.6796(4)
O2 O -0.1746(7) -0.1244(11) -0.606(3)
O3 O -0.1355(9) -0.1681(16) -0.412(3)
C30 C -0.1539(7) -0.1270(13) -0.487(3)
C31 C -0.1544(9) -0.0597(14) -0.446(4)
F1 F -0.1341(8) -0.0240(13) -0.519(3)
F2 F -0.1876(8) -0.0298(14) -0.452(3)
F3 F -0.1396(8) -0.0473(15) -0.309(3)
O4 O -0.1614(6) -0.2498(8) -0.428(2)
O5 O -0.0969(11) -0.262(2) -0.319(4)
C32 C -0.1259(8) -0.2568(13) -0.409(4)
C33 C -0.1142(11) -0.275(2) -0.555(4)
F4 F -0.1144(15) -0.3337(19) -0.580(6)
F5 F -0.0816(11) -0.2565(15) -0.588(5)
F6 F -0.1461(11) -0.2607(17) -0.651(5)
Cl1 Cl 0.0504(9) 0.3163(14) 0.107(3)
C34 C 0.0375(10) 0.3644(18) -0.043(4)
H27 H 0.0113 0.3564 -0.1056
Cl2 Cl 0.048(2) 0.4403(17) 0.008(6)
Cl3 Cl 0.0790(13) 0.349(3) -0.122(5)
O6 O 0.0000 0.216(3) -0.2500
C22? C -0.1909(3) -0.3877(6) -0.2698(14)
C23? C -0.1513(6) -0.4017(15) -0.223(4)
H18? H -0.1355 -0.3753 -0.1557
C24? C -0.1346(8) -0.4538(17) -0.274(5)
H19? H -0.1076 -0.4628 -0.2411
C25? C -0.1573(11) -0.4929(17) -0.375(5)
H20? H -0.1458 -0.5282 -0.4113
C26? C -0.1970(11) -0.4793(15) -0.420(4)
H21? H -0.2129 -0.5057 -0.4880
C27? C -0.2135(7) -0.4275(14) -0.368(4)
H22? H -0.2407 -0.4190 -0.3988
C35? C 0.0375(10) 0.3644(18) -0.043(4)
H28? H 0.0168 0.3478 -0.1224
Cl4? Cl 0.0807(16) 0.387(4) -0.097(8)
Cl5? Cl 0.024(2) 0.431(2) 0.045(7)
loop_
_geom_bond_atom_site_label_1
_geom_bond_atom_site_label_2
_geom_bond_site_symmetry_1
_geom_bond_site_symmetry_2
Au1 N1 1_555 1_555
N1 C1 1_555 1_555
C1 H1 1_555 1_555
C2 C1 1_555 1_555
H2 C2 1_555 1_555
C3 C2 1_555 1_555
C4 C3 1_555 1_555
H3 C4 1_555 1_555
C5 N1 1_555 1_555
H4 C5 1_555 1_555
C6 C3 1_555 1_555
O1 C6 1_555 1_555
N2 C6 1_555 1_555
H5 N2 1_555 1_555
C7 N2 1_555 1_555
C8 C7 1_555 1_555
H6 C8 1_555 1_555
C9 C8 1_555 1_555
H7 C9 1_555 1_555
P1 Au1 1_555 1_555
C10 P1 1_555 1_555
C11 C10 1_555 1_555
H8 C11 1_555 1_555
C12 C11 1_555 1_555
H9 C12 1_555 1_555
C13 C12 1_555 1_555
H10 C13 1_555 1_555
C14 C13 1_555 1_555
H11 C14 1_555 1_555
C15 C10 1_555 1_555
H12 C15 1_555 1_555
C16 P1 1_555 1_555
C17 C16 1_555 1_555
H13 C17 1_555 1_555
C18 C17 1_555 1_555
H14 C18 1_555 1_555
C19 C18 1_555 1_555
H15 C19 1_555 1_555
C20 C19 1_555 1_555
H16 C20 1_555 1_555
C21 C16 1_555 1_555
H17 C21 1_555 1_555
C28 P1 1_555 1_555
H23 C28 1_555 1_555
H24 C28 1_555 1_555
C29 C28 1_555 1_555
H25 C29 1_555 1_555
H26 C29 1_555 1_555
O2 C30 1_555 1_555
O3 C30 1_555 1_555
C30 C31 1_555 1_555
C31 F1 1_555 1_555
F2 C31 1_555 1_555
F3 C31 1_555 1_555
O4 C32 1_555 1_555
O5 C32 1_555 1_555
C32 C33 1_555 1_555
C33 F4 1_555 1_555
F5 C33 1_555 1_555
F6 C33 1_555 1_555
Cl1 C34 1_555 1_555
C34 H27 1_555 1_555
Cl2 C34 1_555 1_555
Cl3 C34 1_555 1_555
C7F C7 1_555 1_555
N2F C7F 1_555 1_555
C6F N2F 1_555 1_555
C3F C6F 1_555 1_555
C2F C3F 1_555 1_555
C1F C2F 1_555 1_555
N1F C1F 1_555 1_555
C5F N1F 1_555 1_555
C4F C3F 1_555 1_555
H3F C4F 1_555 1_555
H4F C5F 1_555 1_555
H1F C1F 1_555 1_555
H2F C2F 1_555 1_555
O1F C6F 1_555 1_555
H5F N2F 1_555 1_555
C8F C7F 1_555 1_555
H6F C8F 1_555 1_555
C9F C9 1_555 1_555
H7F C9F 1_555 1_555
C29E C29 1_555 1_555
C28E C29E 1_555 1_555
P1E C28E 1_555 1_555
C10E P1E 1_555 1_555
C11E C10E 1_555 1_555
H8E C11E 1_555 1_555
C12E C11E 1_555 1_555
H9E C12E 1_555 1_555
C13E C12E 1_555 1_555
H10E C13E 1_555 1_555
C14E C13E 1_555 1_555
H11E C14E 1_555 1_555
C15E C10E 1_555 1_555
H12E C15E 1_555 1_555
C16E P1E 1_555 1_555
C17E C16E 1_555 1_555
H13E C17E 1_555 1_555
C18E C17E 1_555 1_555
H14E C18E 1_555 1_555
C19E C18E 1_555 1_555
H15E C19E 1_555 1_555
C20E C19E 1_555 1_555
H16E C20E 1_555 1_555
C21E C16E 1_555 1_555
H17E C21E 1_555 1_555
H23E C28E 1_555 1_555
H24E C28E 1_555 1_555
H25E C29E 1_555 1_555
H26E C29E 1_555 1_555
Au1F N1F 1_555 1_555
Au1E P1E 1_555 1_555
P1F Au1F 1_555 1_555
C4 C5 1_555 1_555
C14 C15 1_555 1_555
C20 C21 1_555 1_555
C5F C4F 1_555 1_555
C8F C9F 1_555 1_555
C14E C15E 1_555 1_555
C20E C21E 1_555 1_555

#END
