
#######################################################################
#
#                 Cambridge Crystallographic Data Centre
#                                CCDC 
#
#######################################################################
#
# If this CIF has been generated from an entry in the Cambridge 
# Structural Database, then it will include bibliographic, chemical, 
# crystal, experimental, refinement or atomic coordinate data resulting 
# from the CCDC's data processing and validation procedures.
#
#######################################################################

data_BAXPOG
_symmetry_cell_setting           monoclinic
_symmetry_space_group_name_H-M   'C 2'
_symmetry_Int_Tables_number      5
_space_group_name_Hall           'C 2y'
loop_
_symmetry_equiv_pos_site_id
_symmetry_equiv_pos_as_xyz
1 x,y,z
2 -x,y,-z
3 1/2+x,1/2+y,z
4 1/2-x,1/2+y,-z
_cell_length_a                   27.7870(13)
_cell_length_b                   7.3490(3)
_cell_length_c                   13.3830(7)
_cell_angle_alpha                90
_cell_angle_beta                 104.891(4)
_cell_angle_gamma                90
_cell_volume                     2641.12
loop_
_atom_site_label
_atom_site_type_symbol
_atom_site_fract_x
_atom_site_fract_y
_atom_site_fract_z
Hg1 Hg 0.5000 -0.32869(6) 0.0000
Hg2 Hg 0.5000 -0.41076(6) 0.5000
Br1 Br 0.49454(4) -0.45320(14) 0.16966(8)
Br2 Br 0.41876(5) -0.5367(2) 0.50247(11)
N1 N 0.4416(3) -0.0827(12) -0.0156(6)
N2 N 0.4736(2) -0.1652(10) 0.3812(5)
O1 O 0.2265(2) -0.0873(9) 0.1689(5)
C1 C 0.2680(3) -0.0509(11) 0.1627(6)
C2 C 0.2840(3) -0.0123(10) 0.0643(6)
C3 C 0.3341(3) 0.0055(10) 0.0949(6)
C4 C 0.3525(3) -0.0145(10) 0.2097(6)
C5 C 0.3142(3) -0.0450(11) 0.2513(6)
C6 C 0.2487(3) -0.0197(10) -0.0387(6)
C7 C 0.1993(3) 0.0319(10) -0.0514(6)
H1 H 0.1885 0.0768 0.0058
C8 C 0.1655(3) 0.0174(11) -0.1486(7)
H2 H 0.1319 0.0540 -0.1569
C9 C 0.1802(3) -0.0491(12) -0.2321(6)
H3 H 0.1569 -0.0575 -0.2977
C10 C 0.2292(3) -0.1039(11) -0.2206(7)
H4 H 0.2395 -0.1509 -0.2779
C11 C 0.2633(3) -0.0891(11) -0.1236(7)
H5 H 0.2968 -0.1268 -0.1155
C12 C 0.3695(3) 0.0281(11) 0.0290(6)
C13 C 0.3669(3) 0.1737(14) -0.0387(7)
H6 H 0.3407 0.2601 -0.0488
C14 C 0.4038(4) 0.1884(17) -0.0910(9)
H7 H 0.4045 0.2904 -0.1342
C15 C 0.4389(4) 0.0562(15) -0.0802(8)
H8 H 0.4624 0.0634 -0.1204
C16 C 0.4076(3) -0.0966(12) 0.0352(6)
H9 H 0.4090 -0.1987 0.0794
C17 C 0.4059(3) -0.0119(10) 0.2632(6)
C18 C 0.4380(3) 0.1250(11) 0.2523(6)
H10 H 0.4262 0.2251 0.2079
C19 C 0.4879(3) 0.1159(13) 0.3069(7)
H11 H 0.5105 0.2097 0.3008
C20 C 0.5038(3) -0.0327(14) 0.3700(6)
H12 H 0.5378 -0.0396 0.4069
C21 C 0.4252(3) -0.1566(11) 0.3297(5)
H13 H 0.4035 -0.2515 0.3387
C22 C 0.3128(3) -0.0591(11) 0.3607(6)
C23 C 0.3444(3) 0.0516(11) 0.4351(6)
H14 H 0.3662 0.1349 0.4146
C24 C 0.3440(3) 0.0400(14) 0.5366(7)
H15 H 0.3656 0.1150 0.5863
C25 C 0.3120(4) -0.0811(15) 0.5684(8)
H16 H 0.3119 -0.0893 0.6392
C26 C 0.2809(4) -0.1876(14) 0.4958(7)
H17 H 0.2587 -0.2691 0.5167
C27 C 0.2810(3) -0.1785(13) 0.3921(7)
H18 H 0.2594 -0.2543 0.3429
Br1A Br 0.50546(4) -0.45320(14) -0.16966(8)
N1A N 0.5584(3) -0.0827(12) 0.0156(6)
N2A N 0.5264(2) -0.1652(10) -0.3812(5)
O1A O 0.7735(2) -0.0873(9) -0.1689(5)
C1A C 0.7320(3) -0.0509(11) -0.1627(6)
C2A C 0.7160(3) -0.0123(10) -0.0643(6)
C3A C 0.6659(3) 0.0055(10) -0.0949(6)
C4A C 0.6475(3) -0.0145(10) -0.2097(6)
C5A C 0.6858(3) -0.0450(11) -0.2513(6)
C6A C 0.7513(3) -0.0197(10) 0.0387(6)
C7A C 0.8007(3) 0.0319(10) 0.0514(6)
H1A H 0.8115 0.0768 -0.0058
C8A C 0.8345(3) 0.0174(11) 0.1486(7)
H2A H 0.8681 0.0540 0.1569
C9A C 0.8198(3) -0.0491(12) 0.2321(6)
H3A H 0.8431 -0.0575 0.2977
C10A C 0.7708(3) -0.1039(11) 0.2206(7)
H4A H 0.7605 -0.1509 0.2779
C11A C 0.7367(3) -0.0891(11) 0.1236(7)
H5A H 0.7032 -0.1268 0.1155
C12A C 0.6305(3) 0.0281(11) -0.0290(6)
C13A C 0.6331(3) 0.1737(14) 0.0387(7)
H6A H 0.6593 0.2601 0.0488
C14A C 0.5962(4) 0.1884(17) 0.0910(9)
H7A H 0.5955 0.2904 0.1342
C15A C 0.5611(4) 0.0562(15) 0.0802(8)
H8A H 0.5376 0.0634 0.1204
C16A C 0.5924(3) -0.0966(12) -0.0352(6)
H9A H 0.5910 -0.1987 -0.0794
C17A C 0.5941(3) -0.0119(10) -0.2632(6)
C18A C 0.5620(3) 0.1250(11) -0.2523(6)
H10A H 0.5738 0.2251 -0.2079
C19A C 0.5121(3) 0.1159(13) -0.3069(7)
H11A H 0.4895 0.2097 -0.3008
C20A C 0.4962(3) -0.0327(14) -0.3700(6)
H12A H 0.4622 -0.0396 -0.4069
C21A C 0.5748(3) -0.1566(11) -0.3297(5)
H13A H 0.5965 -0.2515 -0.3387
C22A C 0.6872(3) -0.0591(11) -0.3607(6)
C23A C 0.6556(3) 0.0516(11) -0.4351(6)
H14A H 0.6338 0.1349 -0.4146
C24A C 0.6560(3) 0.0400(14) -0.5366(7)
H15A H 0.6344 0.1150 -0.5863
C25A C 0.6880(4) -0.0811(15) -0.5684(8)
H16A H 0.6881 -0.0893 -0.6392
C26A C 0.7191(4) -0.1876(14) -0.4958(7)
H17A H 0.7413 -0.2691 -0.5167
C27A C 0.7190(3) -0.1785(13) -0.3921(7)
H18A H 0.7406 -0.2543 -0.3429
Br2A Br 0.58124(5) -0.5367(2) 0.49753(11)
N2A_2 N 0.5264(2) -0.1652(10) 0.6188(5)
Hg2_2 Hg 0.5000 -0.41076(6) -0.5000
N3 N 0.1379(6) 0.201(3) 0.1671(12)
C28 C 0.1430(5) 0.096(2) 0.2334(11)
C29 C 0.1509(7) -0.030(3) 0.3144(13)
H19 H 0.1195 -0.0914 0.3136
H20 H 0.1633 0.0332 0.3805
H21 H 0.1755 -0.1204 0.3060
loop_
_geom_bond_atom_site_label_1
_geom_bond_atom_site_label_2
_geom_bond_site_symmetry_1
_geom_bond_site_symmetry_2
Hg1 Br1 1_555 1_555
Hg2 Br2 1_555 1_555
N1 Hg1 1_555 1_555
N2 Hg2 1_555 1_555
O1 C1 1_555 1_555
C1 C2 1_555 1_555
C2 C3 1_555 1_555
C3 C4 1_555 1_555
C4 C5 1_555 1_555
C5 C1 1_555 1_555
C6 C2 1_555 1_555
C7 C6 1_555 1_555
H1 C7 1_555 1_555
C8 C7 1_555 1_555
H2 C8 1_555 1_555
C9 C8 1_555 1_555
H3 C9 1_555 1_555
C10 C9 1_555 1_555
H4 C10 1_555 1_555
C11 C6 1_555 1_555
H5 C11 1_555 1_555
C12 C3 1_555 1_555
C13 C12 1_555 1_555
H6 C13 1_555 1_555
C14 C13 1_555 1_555
H7 C14 1_555 1_555
C15 N1 1_555 1_555
H8 C15 1_555 1_555
C16 N1 1_555 1_555
H9 C16 1_555 1_555
C17 C4 1_555 1_555
C18 C17 1_555 1_555
H10 C18 1_555 1_555
C19 C18 1_555 1_555
H11 C19 1_555 1_555
C20 N2 1_555 1_555
H12 C20 1_555 1_555
C21 N2 1_555 1_555
H13 C21 1_555 1_555
C22 C5 1_555 1_555
C23 C22 1_555 1_555
H14 C23 1_555 1_555
C24 C23 1_555 1_555
H15 C24 1_555 1_555
C25 C24 1_555 1_555
H16 C25 1_555 1_555
C26 C25 1_555 1_555
H17 C26 1_555 1_555
C27 C22 1_555 1_555
H18 C27 1_555 1_555
N3 C28 1_555 1_555
C28 C29 1_555 1_555
C29 H19 1_555 1_555
H20 C29 1_555 1_555
H21 C29 1_555 1_555
Br1A Hg1 1_555 1_555
N1A Hg1 1_555 1_555
N2A C20A 1_555 1_555
O1A C1A 1_555 1_555
C1A C2A 1_555 1_555
C2A C3A 1_555 1_555
C3A C4A 1_555 1_555
C4A C5A 1_555 1_555
C5A C1A 1_555 1_555
C6A C2A 1_555 1_555
C7A C6A 1_555 1_555
H1A C7A 1_555 1_555
C8A C7A 1_555 1_555
H2A C8A 1_555 1_555
C9A C8A 1_555 1_555
H3A C9A 1_555 1_555
C10A C9A 1_555 1_555
H4A C10A 1_555 1_555
C11A C6A 1_555 1_555
H5A C11A 1_555 1_555
C12A C3A 1_555 1_555
C13A C12A 1_555 1_555
H6A C13A 1_555 1_555
C14A C13A 1_555 1_555
H7A C14A 1_555 1_555
C15A N1A 1_555 1_555
H8A C15A 1_555 1_555
C16A N1A 1_555 1_555
H9A C16A 1_555 1_555
C17A C4A 1_555 1_555
C18A C17A 1_555 1_555
H10A C18A 1_555 1_555
C19A C18A 1_555 1_555
H11A C19A 1_555 1_555
C20A C19A 1_555 1_555
H12A C20A 1_555 1_555
C21A N2A 1_555 1_555
H13A C21A 1_555 1_555
C22A C5A 1_555 1_555
C23A C22A 1_555 1_555
H14A C23A 1_555 1_555
C24A C23A 1_555 1_555
H15A C24A 1_555 1_555
C25A C24A 1_555 1_555
H16A C25A 1_555 1_555
C26A C25A 1_555 1_555
H17A C26A 1_555 1_555
C27A C22A 1_555 1_555
H18A C27A 1_555 1_555
Br2A Hg2 1_555 1_555
N2A_2 Hg2 1_555 1_555
Hg2_2 N2A 1_555 1_555
C10 C11 1_555 1_555
C12 C16 1_555 1_555
C14 C15 1_555 1_555
C17 C21 1_555 1_555
C19 C20 1_555 1_555
C26 C27 1_555 1_555
C10A C11A 1_555 1_555
C12A C16A 1_555 1_555
C14A C15A 1_555 1_555
C17A C21A 1_555 1_555
C26A C27A 1_555 1_555

#END
