
#######################################################################
#
#                 Cambridge Crystallographic Data Centre
#                                CCDC 
#
#######################################################################
#
# If this CIF has been generated from an entry in the Cambridge 
# Structural Database, then it will include bibliographic, chemical, 
# crystal, experimental, refinement or atomic coordinate data resulting 
# from the CCDC's data processing and validation procedures.
#
#######################################################################

data_BAXPIA
_symmetry_cell_setting           monoclinic
_symmetry_space_group_name_H-M   'C 2'
_symmetry_Int_Tables_number      5
_space_group_name_Hall           'C 2y'
loop_
_symmetry_equiv_pos_site_id
_symmetry_equiv_pos_as_xyz
1 x,y,z
2 -x,y,-z
3 1/2+x,1/2+y,z
4 1/2-x,1/2+y,-z
_cell_length_a                   27.4530(8)
_cell_length_b                   7.1250(3)
_cell_length_c                   13.0170(5)
_cell_angle_alpha                90
_cell_angle_beta                 104.4730(15)
_cell_angle_gamma                90
_cell_volume                     2465.36
loop_
_atom_site_label
_atom_site_type_symbol
_atom_site_fract_x
_atom_site_fract_y
_atom_site_fract_z
Zn1 Zn 0.0000 -0.14512(9) 0.5000
Zn2 Zn 0.0000 -0.21762(10) 0.0000
Cl1 Cl -0.00687(5) -0.29925(19) 0.64375(11)
Cl2 Cl -0.06842(6) -0.3771(3) 0.00111(15)
O1 O 0.27248(10) 0.0679(4) 0.3245(2)
N1 N 0.05706(11) 0.0489(5) 0.5247(3)
N2 N 0.02301(12) -0.0152(5) 0.1163(3)
C1 C 0.23061(13) 0.1057(5) 0.3334(3)
C2 C 0.21551(13) 0.1394(6) 0.4364(3)
C3 C 0.16499(12) 0.1565(5) 0.4092(3)
C4 C 0.14562(13) 0.1403(5) 0.2902(3)
C5 C 0.18355(13) 0.1132(5) 0.2440(3)
C6 C 0.25221(13) 0.1323(6) 0.5404(3)
C7 C 0.30279(13) 0.1833(6) 0.5517(3)
H1 H 0.3133 0.2289 0.4921
C8 C 0.33737(14) 0.1675(6) 0.6489(3)
H2 H 0.3715 0.2000 0.6548
C9 C 0.32308(15) 0.1055(6) 0.7368(3)
H3 H 0.3470 0.0974 0.8034
C10 C 0.27340(15) 0.0548(6) 0.7274(3)
H4 H 0.2634 0.0125 0.7882
C11 C 0.23828(14) 0.0652(6) 0.6308(3)
H5 H 0.2046 0.0268 0.6253
C12 C 0.12998(12) 0.1747(6) 0.4781(3)
C13 C 0.13248(15) 0.3196(6) 0.5512(3)
H6 H 0.1585 0.4108 0.5609
C14 C 0.09686(16) 0.3294(7) 0.6095(4)
H7 H 0.0977 0.4277 0.6592
C15 C 0.05973(15) 0.1925(7) 0.5938(4)
H8 H 0.0351 0.2001 0.6335
C16 C 0.09142(13) 0.0449(6) 0.4682(3)
H9 H 0.0893 -0.0532 0.4178
C17 C 0.09099(12) 0.1431(6) 0.2365(3)
C18 C 0.05854(13) 0.2838(6) 0.2494(3)
H10 H 0.0704 0.3857 0.2960
C19 C 0.00855(13) 0.2756(7) 0.1940(3)
H11 H -0.0142 0.3726 0.2010
C20 C -0.00751(13) 0.1264(6) 0.1294(3)
H12 H -0.0419 0.1214 0.0917
C21 C 0.07123(13) -0.0051(6) 0.1691(3)
H13 H 0.0932 -0.1036 0.1604
C22 C 0.18381(13) 0.1061(6) 0.1312(3)
C23 C 0.15143(14) 0.2209(7) 0.0576(3)
H14 H 0.1291 0.3033 0.0807
C24 C 0.15152(16) 0.2159(8) -0.0481(3)
H15 H 0.1284 0.2915 -0.0975
C25 C 0.18444(18) 0.1034(9) -0.0827(4)
H16 H 0.1849 0.1039 -0.1554
C26 C 0.21705(18) -0.0113(9) -0.0114(4)
H17 H 0.2397 -0.0908 -0.0353
C27 C 0.21663(16) -0.0103(7) 0.0956(3)
H18 H 0.2389 -0.0897 0.1442
Cl1A Cl 0.00687(5) -0.29925(19) 0.35625(11)
O1A O -0.27248(10) 0.0679(4) 0.6755(2)
N1A N -0.05706(11) 0.0489(5) 0.4753(3)
N2A N -0.02301(12) -0.0152(5) 0.8837(3)
C1A C -0.23061(13) 0.1057(5) 0.6666(3)
C2A C -0.21551(13) 0.1394(6) 0.5636(3)
C3A C -0.16499(12) 0.1565(5) 0.5908(3)
C4A C -0.14562(13) 0.1403(5) 0.7098(3)
C5A C -0.18355(13) 0.1132(5) 0.7560(3)
C6A C -0.25221(13) 0.1323(6) 0.4596(3)
C7A C -0.30279(13) 0.1833(6) 0.4483(3)
H1A H -0.3133 0.2289 0.5079
C8A C -0.33737(14) 0.1675(6) 0.3511(3)
H2A H -0.3715 0.2000 0.3452
C9A C -0.32308(15) 0.1055(6) 0.2632(3)
H3A H -0.3470 0.0974 0.1966
C10A C -0.27340(15) 0.0548(6) 0.2726(3)
H4A H -0.2634 0.0125 0.2118
C11A C -0.23828(14) 0.0652(6) 0.3692(3)
H5A H -0.2046 0.0268 0.3747
C12A C -0.12998(12) 0.1747(6) 0.5219(3)
C13A C -0.13248(15) 0.3196(6) 0.4488(3)
H6A H -0.1585 0.4108 0.4391
C14A C -0.09686(16) 0.3294(7) 0.3905(4)
H7A H -0.0977 0.4277 0.3408
C15A C -0.05973(15) 0.1925(7) 0.4062(4)
H8A H -0.0351 0.2001 0.3665
C16A C -0.09142(13) 0.0449(6) 0.5318(3)
H9A H -0.0893 -0.0532 0.5822
C17A C -0.09099(12) 0.1431(6) 0.7635(3)
C18A C -0.05854(13) 0.2838(6) 0.7506(3)
H10A H -0.0704 0.3857 0.7040
C19A C -0.00855(13) 0.2756(7) 0.8060(3)
H11A H 0.0142 0.3726 0.7990
C20A C 0.00751(13) 0.1264(6) 0.8706(3)
H12A H 0.0419 0.1214 0.9083
C21A C -0.07123(13) -0.0051(6) 0.8309(3)
H13A H -0.0932 -0.1036 0.8396
C22A C -0.18381(13) 0.1061(6) 0.8688(3)
C23A C -0.15143(14) 0.2209(7) 0.9424(3)
H14A H -0.1291 0.3033 0.9193
C24A C -0.15152(16) 0.2159(8) 1.0481(3)
H15A H -0.1284 0.2915 1.0975
C25A C -0.18444(18) 0.1034(9) 1.0827(4)
H16A H -0.1849 0.1039 1.1554
C26A C -0.21705(18) -0.0113(9) 1.0114(4)
H17A H -0.2397 -0.0908 1.0353
C27A C -0.21663(16) -0.0103(7) 0.9044(3)
H18A H -0.2389 -0.0897 0.8558
Cl2A Cl 0.06842(6) -0.3771(3) -0.00111(15)
N2A_2 N -0.02301(12) -0.0152(5) -0.1163(3)
Zn2_2 Zn 0.0000 -0.21762(10) 1.0000
N3 N 0.3588(3) 0.3297(13) 0.3280(6)
C28 C 0.3579(5) 0.264(2) 0.2559(10)
C29 C 0.3504(9) 0.146(4) 0.1652(18)
H19 H 0.3333 0.0309 0.1776
H20 H 0.3830 0.1147 0.1518
H21 H 0.3296 0.2123 0.1036
C30? C 0.3764(10) 0.283(4) 0.2575(19)
C31? C 0.3837(10) 0.221(4) 0.166(2)
H22? H 0.3557 0.1398 0.1307
H23? H 0.4152 0.1500 0.1791
H24? H 0.3856 0.3284 0.1196
loop_
_geom_bond_atom_site_label_1
_geom_bond_atom_site_label_2
_geom_bond_site_symmetry_1
_geom_bond_site_symmetry_2
Zn1 Cl1 1_555 1_555
Zn2 Cl2 1_555 1_555
O1 C1 1_555 1_555
N1 Zn1 1_555 1_555
N2 Zn2 1_555 1_555
C1 C2 1_555 1_555
C2 C3 1_555 1_555
C3 C4 1_555 1_555
C4 C5 1_555 1_555
C5 C1 1_555 1_555
C6 C2 1_555 1_555
C7 C6 1_555 1_555
H1 C7 1_555 1_555
C8 C7 1_555 1_555
H2 C8 1_555 1_555
C9 C8 1_555 1_555
H3 C9 1_555 1_555
C10 C9 1_555 1_555
H4 C10 1_555 1_555
C11 C6 1_555 1_555
H5 C11 1_555 1_555
C12 C3 1_555 1_555
C13 C12 1_555 1_555
H6 C13 1_555 1_555
C14 C13 1_555 1_555
H7 C14 1_555 1_555
C15 N1 1_555 1_555
H8 C15 1_555 1_555
C16 N1 1_555 1_555
H9 C16 1_555 1_555
C17 C4 1_555 1_555
C18 C17 1_555 1_555
H10 C18 1_555 1_555
C19 C18 1_555 1_555
H11 C19 1_555 1_555
C20 N2 1_555 1_555
H12 C20 1_555 1_555
C21 N2 1_555 1_555
H13 C21 1_555 1_555
C22 C5 1_555 1_555
C23 C22 1_555 1_555
H14 C23 1_555 1_555
C24 C23 1_555 1_555
H15 C24 1_555 1_555
C25 C24 1_555 1_555
H16 C25 1_555 1_555
C26 C25 1_555 1_555
H17 C26 1_555 1_555
C27 C22 1_555 1_555
H18 C27 1_555 1_555
N3 C28 1_555 1_555
C28 C29 1_555 1_555
C29 H19 1_555 1_555
H20 C29 1_555 1_555
H21 C29 1_555 1_555
Cl1A Zn1 1_555 1_555
O1A C1A 1_555 1_555
N1A Zn1 1_555 1_555
N2A C20A 1_555 1_555
C1A C2A 1_555 1_555
C2A C3A 1_555 1_555
C3A C4A 1_555 1_555
C4A C5A 1_555 1_555
C5A C1A 1_555 1_555
C6A C2A 1_555 1_555
C7A C6A 1_555 1_555
H1A C7A 1_555 1_555
C8A C7A 1_555 1_555
H2A C8A 1_555 1_555
C9A C8A 1_555 1_555
H3A C9A 1_555 1_555
C10A C9A 1_555 1_555
H4A C10A 1_555 1_555
C11A C6A 1_555 1_555
H5A C11A 1_555 1_555
C12A C3A 1_555 1_555
C13A C12A 1_555 1_555
H6A C13A 1_555 1_555
C14A C13A 1_555 1_555
H7A C14A 1_555 1_555
C15A N1A 1_555 1_555
H8A C15A 1_555 1_555
C16A N1A 1_555 1_555
H9A C16A 1_555 1_555
C17A C4A 1_555 1_555
C18A C17A 1_555 1_555
H10A C18A 1_555 1_555
C19A C18A 1_555 1_555
H11A C19A 1_555 1_555
C20A C19A 1_555 1_555
H12A C20A 1_555 1_555
C21A N2A 1_555 1_555
H13A C21A 1_555 1_555
C22A C5A 1_555 1_555
C23A C22A 1_555 1_555
H14A C23A 1_555 1_555
C24A C23A 1_555 1_555
H15A C24A 1_555 1_555
C25A C24A 1_555 1_555
H16A C25A 1_555 1_555
C26A C25A 1_555 1_555
H17A C26A 1_555 1_555
C27A C22A 1_555 1_555
H18A C27A 1_555 1_555
Cl2A Zn2 1_555 1_555
N2A_2 Zn2 1_555 1_555
Zn2_2 N2A 1_555 1_555
C10 C11 1_555 1_555
C12 C16 1_555 1_555
C14 C15 1_555 1_555
C17 C21 1_555 1_555
C19 C20 1_555 1_555
C26 C27 1_555 1_555
C10A C11A 1_555 1_555
C12A C16A 1_555 1_555
C14A C15A 1_555 1_555
C17A C21A 1_555 1_555
C26A C27A 1_555 1_555

#END
