
#######################################################################
#
#                 Cambridge Crystallographic Data Centre
#                                CCDC 
#
#######################################################################
#
# If this CIF has been generated from an entry in the Cambridge 
# Structural Database, then it will include bibliographic, chemical, 
# crystal, experimental, refinement or atomic coordinate data resulting 
# from the CCDC's data processing and validation procedures.
#
#######################################################################

data_BAXRAU
_symmetry_cell_setting           triclinic
_symmetry_space_group_name_H-M   'P -1'
_symmetry_Int_Tables_number      2
_space_group_name_Hall           '-P 1'
loop_
_symmetry_equiv_pos_site_id
_symmetry_equiv_pos_as_xyz
1 x,y,z
2 -x,-y,-z
_cell_length_a                   10.3179(2)
_cell_length_b                   12.4168(2)
_cell_length_c                   12.9696(2)
_cell_angle_alpha                65.057(2)
_cell_angle_beta                 74.625(2)
_cell_angle_gamma                71.593(2)
_cell_volume                     1412.62
loop_
_atom_site_label
_atom_site_type_symbol
_atom_site_fract_x
_atom_site_fract_y
_atom_site_fract_z
Zn1 Zn 0.38843(6) 0.19549(5) 0.48919(5)
Zn2 Zn 0.70594(6) 0.32608(5) 0.05994(5)
P1 P 0.68691(13) 0.22179(12) 0.32450(11)
P2 P 0.37461(13) 0.40029(12) 0.13420(12)
P3 P 0.59638(14) -0.02527(12) 0.65100(11)
O1 O 0.7378(3) 0.3110(3) 0.2112(3)
O2 O 0.5355(3) 0.2675(3) 0.3689(3)
O3 O 0.5017(3) 0.3045(3) 0.1164(3)
O4 O 0.3240(4) 0.5004(3) 0.0297(3)
O5 O 0.4571(4) 0.0380(3) 0.6059(3)
O6 O 0.6624(4) -0.1390(3) 0.6206(3)
O7 O 0.7768(4) 0.1981(4) 0.4144(4)
O8 O 0.7114(4) 0.1002(4) 0.3088(4)
O9 O 0.4005(4) 0.4585(4) 0.2116(4)
O10 O 0.2526(4) 0.3362(3) 0.2026(3)
H1 H 0.2791 0.2751 0.2573
O11 O 0.5609(4) -0.0718(3) 0.7877(3)
O12 O 0.6885(4) 0.0607(3) 0.6147(3)
N1 N 0.1750(4) 0.2662(4) 0.5336(4)
N2 N 0.3859(4) 0.3122(4) 0.5782(4)
N3 N 0.7310(4) 0.2209(4) -0.0407(4)
N4 N 0.9293(5) 0.2728(4) 0.0147(4)
C1 C 0.0708(6) 0.2399(6) 0.5130(6)
C2 C -0.0658(6) 0.2878(7) 0.5499(6)
C3 C -0.0985(7) 0.3595(7) 0.6114(6)
C4 C 0.0084(6) 0.3880(5) 0.6380(5)
C5 C -0.0129(8) 0.4624(6) 0.7023(6)
C6 C 0.0918(8) 0.4861(6) 0.7248(6)
C7 C 0.2325(6) 0.4359(5) 0.6846(5)
C8 C 0.3481(7) 0.4538(6) 0.7073(6)
C9 C 0.4755(8) 0.4019(6) 0.6656(7)
C10 C 0.4930(7) 0.3323(6) 0.6007(6)
C11 C 0.2581(5) 0.3629(5) 0.6194(5)
C12 C 0.1441(5) 0.3381(5) 0.5955(4)
C13 C 0.6312(7) 0.1956(6) -0.0674(6)
C14 C 0.6598(8) 0.1249(7) -0.1336(7)
C15 C 0.7913(7) 0.0800(6) -0.1740(6)
C16 C 0.8997(6) 0.1053(5) -0.1484(5)
C17 C 1.0436(7) 0.0624(6) -0.1867(5)
C18 C 1.1423(7) 0.0884(6) -0.1599(6)
C19 C 1.1100(6) 0.1617(5) -0.0909(5)
C20 C 1.2079(8) 0.1924(8) -0.0591(7)
C21 C 1.1662(7) 0.2604(8) 0.0086(7)
C22 C 1.0262(7) 0.2988(7) 0.0440(6)
C23 C 0.9714(5) 0.2058(5) -0.0517(4)
C24 C 0.8637(5) 0.1769(4) -0.0811(4)
H2 H 0.757(6) 0.150(5) 0.474(5)
H3 H 0.654(6) 0.064(5) 0.343(5)
H4 H 0.447(9) 0.401(8) 0.262(7)
H5 H 0.523(7) -0.138(7) 0.812(6)
H6 H 0.086(5) 0.200(5) 0.468(5)
H7 H -0.128(6) 0.267(5) 0.535(5)
H8 H -0.184(7) 0.379(6) 0.642(6)
H9 H -0.098(6) 0.491(5) 0.724(5)
H10 H 0.078(6) 0.535(5) 0.773(5)
H11 H 0.328(5) 0.503(5) 0.761(5)
H12 H 0.540(6) 0.408(5) 0.682(5)
H13 H 0.588(8) 0.295(6) 0.570(6)
H14 H 0.533(6) 0.239(5) -0.041(5)
H15 H 0.587(7) 0.119(6) -0.152(6)
H16 H 0.816(6) 0.036(5) -0.222(5)
H17 H 1.065(6) 0.015(6) -0.232(5)
H18 H 1.227(6) 0.067(5) -0.184(5)
H19 H 1.280(7) 0.186(6) -0.089(6)
H20 H 1.229(7) 0.278(6) 0.023(6)
H21 H 0.992(5) 0.349(4) 0.093(4)
O6A O 0.3376(4) 0.1390(3) 0.3794(3)
O4A O 0.6760(4) 0.4996(3) -0.0297(3)
Zn2A Zn 0.29406(6) 0.67392(5) -0.05994(5)
Zn1A Zn 0.61157(6) -0.19549(5) 0.51081(5)
O13 O 0.953(2) -0.0865(18) -0.3336(17)
loop_
_geom_bond_atom_site_label_1
_geom_bond_atom_site_label_2
_geom_bond_site_symmetry_1
_geom_bond_site_symmetry_2
Zn1 O2 1_555 1_555
Zn2 O1 1_555 1_555
P1 O1 1_555 1_555
P2 O3 1_555 1_555
P3 O5 1_555 1_555
O2 P1 1_555 1_555
O3 Zn2 1_555 1_555
O4 P2 1_555 1_555
O5 Zn1 1_555 1_555
O6 P3 1_555 1_555
O7 P1 1_555 1_555
O8 P1 1_555 1_555
O9 P2 1_555 1_555
O10 P2 1_555 1_555
H1 O10 1_555 1_555
O11 P3 1_555 1_555
O12 P3 1_555 1_555
N1 Zn1 1_555 1_555
N2 Zn1 1_555 1_555
N3 Zn2 1_555 1_555
N4 Zn2 1_555 1_555
C1 N1 1_555 1_555
C2 C1 1_555 1_555
C3 C2 1_555 1_555
C4 C3 1_555 1_555
C5 C4 1_555 1_555
C6 C5 1_555 1_555
C7 C6 1_555 1_555
C8 C7 1_555 1_555
C9 C8 1_555 1_555
C10 N2 1_555 1_555
C11 N2 1_555 1_555
C12 N1 1_555 1_555
C13 N3 1_555 1_555
C14 C13 1_555 1_555
C15 C14 1_555 1_555
C16 C15 1_555 1_555
C17 C16 1_555 1_555
C18 C17 1_555 1_555
C19 C18 1_555 1_555
C20 C19 1_555 1_555
C21 C20 1_555 1_555
C22 N4 1_555 1_555
C23 N4 1_555 1_555
C24 N3 1_555 1_555
H2 O7 1_555 1_555
H3 O8 1_555 1_555
H4 O9 1_555 1_555
H5 O11 1_555 1_555
H6 C1 1_555 1_555
H7 C2 1_555 1_555
H8 C3 1_555 1_555
H9 C5 1_555 1_555
H10 C6 1_555 1_555
H11 C8 1_555 1_555
H12 C9 1_555 1_555
H13 C10 1_555 1_555
H14 C13 1_555 1_555
H15 C14 1_555 1_555
H16 C15 1_555 1_555
H17 C17 1_555 1_555
H18 C18 1_555 1_555
H19 C20 1_555 1_555
H20 C21 1_555 1_555
H21 C22 1_555 1_555
O6A Zn1 1_555 1_555
O4A Zn2 1_555 1_555
Zn2A O4 1_555 1_555
Zn1A O6 1_555 1_555
C4 C12 1_555 1_555
C7 C11 1_555 1_555
C9 C10 1_555 1_555
C11 C12 1_555 1_555
C16 C24 1_555 1_555
C19 C23 1_555 1_555
C21 C22 1_555 1_555
C23 C24 1_555 1_555

#END
