
#######################################################################
#
#                 Cambridge Crystallographic Data Centre
#                                CCDC 
#
#######################################################################
#
# If this CIF has been generated from an entry in the Cambridge 
# Structural Database, then it will include bibliographic, chemical, 
# crystal, experimental, refinement or atomic coordinate data resulting 
# from the CCDC's data processing and validation procedures.
#
#######################################################################

data_BAXWED
_symmetry_cell_setting           monoclinic
_symmetry_space_group_name_H-M   'P 21/c'
_symmetry_Int_Tables_number      14
_space_group_name_Hall           '-P 2ybc'
loop_
_symmetry_equiv_pos_site_id
_symmetry_equiv_pos_as_xyz
1 x,y,z
2 x,1/2-y,1/2+z
3 -x,-y,-z
4 -x,1/2+y,1/2-z
_cell_length_a                   8.0294(11)
_cell_length_b                   14.064(2)
_cell_length_c                   17.585(2)
_cell_angle_alpha                90
_cell_angle_beta                 101.613(3)
_cell_angle_gamma                90
_cell_volume                     1945.14
loop_
_atom_site_label
_atom_site_type_symbol
_atom_site_fract_x
_atom_site_fract_y
_atom_site_fract_z
Br1 Br 0.45062(13) 0.56296(7) 0.09016(6)
Cu1 Cu 0.34779(15) 0.42482(8) 0.00068(7)
O1 O 0.8806(8) 0.1765(4) 0.3248(4)
C1 C 0.6828(10) -0.0395(6) 0.2240(5)
O2 O 0.6544(8) 0.2571(4) 0.1972(4)
C2 C 0.5731(10) 0.0012(6) 0.1601(5)
C3 C 0.7922(10) 0.0224(6) 0.2808(5)
N1 N 0.4485(10) 0.1373(5) 0.0936(4)
C4 C 0.5585(10) 0.1049(6) 0.1516(5)
C5 C 0.6970(12) -0.1379(6) 0.2300(6)
H1 H 0.7692 -0.1655 0.2723
C6 C 0.7446(12) 0.4099(6) 0.2431(5)
H2 H 0.6707 0.4368 0.2010
N2 N 0.9022(9) -0.0200(5) 0.3350(4)
C7 C 0.7759(11) 0.1222(6) 0.2702(5)
C8 C 0.6660(11) 0.1618(6) 0.2088(5)
C9 C 0.9580(12) 0.4272(6) 0.3609(6)
H3 H 1.0241 0.4661 0.3979
C10 C 0.7553(11) 0.3143(6) 0.2520(5)
C11 C 0.9706(11) 0.3294(6) 0.3682(5)
H4 H 1.0478 0.3022 0.4089
C12 C 0.6030(12) -0.1946(6) 0.1726(5)
H5 H 0.6124 -0.2604 0.1766
N3 N 0.3766(11) 0.3025(6) 0.0514(5)
C13 C 0.4989(13) -0.1559(7) 0.1114(5)
H6 H 0.4371 -0.1954 0.0736
C14 C 0.8472(11) 0.4675(6) 0.2985(5)
C15 C 0.4809(12) -0.0582(6) 0.1031(5)
H7 H 0.4084 -0.0325 0.0601
C16 C 0.4197(12) 0.2282(7) 0.0760(5)
N4 N 0.847(2) 0.6514(10) 0.2913(9)
N5 N 1.1253(11) 0.0446(6) 0.4371(5)
C17 C 0.8696(11) 0.2740(6) 0.3155(5)
C18 C 0.8425(19) 0.5653(10) 0.2943(9)
C19 C 1.0157(12) 0.0236(6) 0.3872(5)
Cu1B Cu 0.65221(15) 0.57518(8) -0.00068(7)
Br1B Br 0.54938(13) 0.43704(7) -0.09016(6)
N5A N 0.1253(11) 0.4554(6) -0.0629(5)
Cu1A Cu 1.34779(15) 0.07518(8) 0.50068(7)
C20 C 0.1004(18) 0.7021(9) 0.9488(8)
H8 H 0.1475 0.6710 0.9093
H9 H -0.0196 0.6899 0.9402
H10 H 0.1542 0.6782 0.9988
N6 N 0.1672(19) 0.8775(11) 0.9498(8)
C21 C 0.127(2) 0.7967(14) 0.9460(10)
loop_
_geom_bond_atom_site_label_1
_geom_bond_atom_site_label_2
_geom_bond_site_symmetry_1
_geom_bond_site_symmetry_2
Br1 Cu1 1_555 1_555
Cu1 N3 1_555 1_555
O1 C7 1_555 1_555
C1 C2 1_555 1_555
O2 C8 1_555 1_555
C2 C4 1_555 1_555
C3 C1 1_555 1_555
N1 C4 1_555 1_555
C4 C8 1_555 1_555
C5 C1 1_555 1_555
H1 C5 1_555 1_555
C6 H2 1_555 1_555
N2 C3 1_555 1_555
C7 C3 1_555 1_555
C8 C7 1_555 1_555
C9 H3 1_555 1_555
C10 O2 1_555 1_555
C11 C9 1_555 1_555
H4 C11 1_555 1_555
C12 C5 1_555 1_555
H5 C12 1_555 1_555
N3 C16 1_555 1_555
C13 C12 1_555 1_555
H6 C13 1_555 1_555
C14 C6 1_555 1_555
C15 C2 1_555 1_555
H7 C15 1_555 1_555
C16 N1 1_555 1_555
N4 C18 1_555 1_555
N5 C19 1_555 1_555
C17 O1 1_555 1_555
C18 C14 1_555 1_555
C19 N2 1_555 1_555
C20 H8 1_555 1_555
H9 C20 1_555 1_555
H10 C20 1_555 1_555
N6 C21 1_555 1_555
C21 C20 1_555 1_555
Cu1B Br1 1_555 1_555
Br1B Cu1 1_555 1_555
N5A Cu1 1_555 1_555
Cu1A N5 1_555 1_555
C6 C10 1_555 1_555
C9 C14 1_555 1_555
C10 C17 1_555 1_555
C11 C17 1_555 1_555
C13 C15 1_555 1_555
Cu1B Br1B 1_555 1_555

#END
