
#######################################################################
#
#                 Cambridge Crystallographic Data Centre
#                                CCDC 
#
#######################################################################
#
# If this CIF has been generated from an entry in the Cambridge 
# Structural Database, then it will include bibliographic, chemical, 
# crystal, experimental, refinement or atomic coordinate data resulting 
# from the CCDC's data processing and validation procedures.
#
#######################################################################

data_BAYCUA
_symmetry_cell_setting           monoclinic
_symmetry_space_group_name_H-M   'C 2/c'
_symmetry_Int_Tables_number      15
_space_group_name_Hall           '-C 2yn'
loop_
_symmetry_equiv_pos_site_id
_symmetry_equiv_pos_as_xyz
1 x,y,z
2 1/2+x,1/2+y,z
3 x,-y,1/2+z
4 1/2+x,1/2-y,1/2+z
5 -x,-y,-z
6 1/2-x,1/2-y,-z
7 -x,y,1/2-z
8 1/2-x,1/2+y,1/2-z
_cell_length_a                   32.099(10)
_cell_length_b                   12.916(3)
_cell_length_c                   21.431(8)
_cell_angle_alpha                90
_cell_angle_beta                 126.74(1)
_cell_angle_gamma                90
_cell_volume                     7120.14
loop_
_atom_site_label
_atom_site_type_symbol
_atom_site_fract_x
_atom_site_fract_y
_atom_site_fract_z
O11 O 1.0594(3) 0.9800(5) 1.0554(4)
H31 H 1.0254 0.9456 1.0262
H32 H 1.0610 1.0261 1.0208
O12 O 1.2066(3) 0.8903(7) 1.1955(4)
H33 H 1.2161 0.9283 1.1661
H34 H 1.2172 0.8184 1.1951
O13 O 1.0066(2) 0.9898(4) 1.1933(3)
H35 H 0.9914 1.0322 1.2127
H36 H 0.9792 0.9562 1.1442
O14 O 1.0753(3) 1.0967(5) 1.1837(3)
H37 H 1.0646 1.0960 1.1302
H38 H 1.0749 1.1677 1.1994
O15 O 1.1882(3) 0.9169(5) 0.8128(4)
H39 H 1.2240 0.9408 0.8373
H40 H 1.1860 0.8411 0.8149
O16 O 1.3171(4) 1.1180(7) 0.9715(7)
H41 H 1.3108 1.0770 0.9290
H42 H 1.3154 1.1920 0.9577
O17 O 0.9290(6) 0.4294(7) 0.9439(8)
H43 H 0.8925 0.4489 0.9169
H44 H 0.9359 0.4859 0.9203
O18 O 1.3006(7) 0.9973(9) 0.8479(8)
H45 H 1.2893 1.0272 0.7993
H46 H 1.2682 0.9741 0.8383
O19 O 0.9358(8) 0.5331(10) 1.0687(10)
H47 H 0.9445 0.5147 1.0334
H48 H 0.9200 0.6018 1.0599
Ag1 Ag 1.0000 0.67989(8) 0.7500
Ag2 Ag 1.0000 0.32220(7) 0.7500
Ag3 Ag 1.17373(2) 1.01881(4) 0.91546(4)
Ag4 Ag 1.270200(19) 1.01445(4) 1.10642(3)
Ag5 Ag 1.11035(3) 0.79964(6) 1.10196(3)
O1 O 1.0049(6) 0.5012(8) 0.7993(10)
H1 H 1.0375 0.5012 0.8519
H2 H 0.9774 0.5012 0.8066
O2 O 1.26856(19) 0.9834(3) 0.9979(3)
H3 H 1.2774 0.9129 0.9943
H4 H 1.2885 1.0338 0.9913
O3 O 1.3350(2) 0.9174(4) 1.2125(3)
O4 O 1.2781(2) 0.7918(4) 1.1687(3)
O5 O 1.28908(18) 0.5696(4) 1.3750(3)
O6 O 1.3248(2) 0.6605(5) 1.4833(3)
O7 O 1.4401(2) 0.5967(5) 1.5532(3)
O8 O 1.44965(19) 0.7607(4) 1.5920(3)
O9 O 1.4505(2) 0.9586(4) 1.3586(4)
O10 O 1.4436(2) 0.8095(4) 1.3006(3)
N1 N 1.07638(19) 0.7363(4) 0.8684(3)
N2 N 1.11760(19) 0.7805(4) 1.0041(3)
N3 N 1.14529(19) 0.8681(4) 0.9329(3)
N4 N 1.16689(19) 0.6864(3) 0.9688(3)
C1 C 1.1361(2) 0.8790(4) 0.9920(3)
H5 H 1.1676 0.9008 1.0403
H6 H 1.1103 0.9315 0.9756
C2 C 1.1579(2) 0.7003(4) 1.0280(3)
H7 H 1.1461 0.6359 1.0348
H8 H 1.1898 0.7188 1.0771
C3 C 1.0689(2) 0.7489(5) 0.9287(3)
H9 H 1.0570 0.6849 0.9357
H10 H 1.0428 0.8009 0.9123
C4 C 1.0957(2) 0.8334(5) 0.8590(3)
H11 H 1.0699 0.8859 0.8425
H12 H 1.1004 0.8254 0.8190
C5 C 1.1171(2) 0.6565(4) 0.8939(3)
H13 H 1.1221 0.6467 0.8543
H14 H 1.1054 0.5921 0.9009
C6 C 1.1842(2) 0.7860(5) 0.9579(3)
H15 H 1.2162 0.8063 1.0062
H16 H 1.1907 0.7779 0.9199
N5 N 0.87932(19) 0.2352(4) 0.7863(3)
N6 N 0.92271(19) 0.2875(4) 0.7281(3)
N7 N 0.85173(19) 0.1615(4) 0.6623(3)
N8 N 0.83356(19) 0.3428(4) 0.6690(3)
C7 C 0.8594(2) 0.1422(4) 0.7366(3)
H17 H 0.8265 0.1247 0.7254
H18 H 0.8826 0.0849 0.7635
C8 C 0.9293(2) 0.2670(5) 0.8010(3)
H19 H 0.9542 0.2122 0.8283
H20 H 0.9428 0.3276 0.8334
C9 C 0.8418(2) 0.3211(5) 0.7433(3)
H21 H 0.8540 0.3824 0.7749
H22 H 0.8092 0.3014 0.7325
C10 C 0.8833(2) 0.3709(4) 0.6861(3)
H23 H 0.8782 0.3853 0.6380
H24 H 0.8960 0.4329 0.7169
C11 C 0.8140(2) 0.2480(5) 0.6216(3)
H25 H 0.7818 0.2284 0.6120
H26 H 0.8075 0.2609 0.5724
C12 C 0.9018(2) 0.1933(4) 0.6792(3)
H27 H 0.9263 0.1378 0.7056
H28 H 0.8969 0.2057 0.6310
C13 C 1.3184(2) 0.8384(4) 1.2224(3)
C14 C 1.3197(2) 0.6380(5) 1.4227(3)
C15 C 1.4325(3) 0.6925(6) 1.5412(3)
C16 C 1.4335(2) 0.8677(5) 1.3355(4)
C17 C 1.3490(2) 0.7940(4) 1.3033(3)
C18 C 1.3243(2) 0.7331(4) 1.3250(3)
H29 H 1.2888 0.7130 1.2865
C19 C 1.3497(2) 0.7001(4) 1.4015(3)
C20 C 1.4018(2) 0.7283(5) 1.4572(3)
C21 C 1.4265(2) 0.7868(5) 1.4351(3)
H30 H 1.4622 0.8056 1.4736
C22 C 1.4015(2) 0.8202(4) 1.3586(3)
O1F O 0.9951(6) 0.5012(8) 0.7007(10)
H1F H 0.9625 0.5012 0.6481
H2F H 1.0226 0.5012 0.6934
N1F N 0.92362(19) 0.7363(4) 0.6316(3)
N2F N 0.88240(19) 0.7805(4) 0.4959(3)
N3F N 0.85471(19) 0.8681(4) 0.5671(3)
N4F N 0.83311(19) 0.6864(3) 0.5312(3)
C1F C 0.8639(2) 0.8790(4) 0.5080(3)
H5F H 0.8324 0.9008 0.4597
H6F H 0.8897 0.9315 0.5244
C2F C 0.8421(2) 0.7003(4) 0.4720(3)
H7F H 0.8539 0.6359 0.4652
H8F H 0.8102 0.7188 0.4229
C3F C 0.9311(2) 0.7489(5) 0.5713(3)
H9F H 0.9430 0.6849 0.5643
H10F H 0.9572 0.8009 0.5877
C4F C 0.9043(2) 0.8334(5) 0.6410(3)
H11F H 0.9301 0.8859 0.6575
H12F H 0.8996 0.8254 0.6810
C5F C 0.8829(2) 0.6565(4) 0.6061(3)
H13F H 0.8779 0.6467 0.6457
H14F H 0.8946 0.5921 0.5991
C6F C 0.8158(2) 0.7860(5) 0.5421(3)
H15F H 0.7838 0.8063 0.4938
H16F H 0.8093 0.7779 0.5801
Ag3F Ag 0.82627(2) 1.01881(4) 0.58454(4)
Ag5F Ag 0.88965(3) 0.79964(6) 0.39804(3)
N5F N 1.12068(19) 0.2352(4) 0.7137(3)
N6F N 1.07729(19) 0.2875(4) 0.7719(3)
N7F N 1.14827(19) 0.1615(4) 0.8377(3)
N8F N 1.16644(19) 0.3428(4) 0.8310(3)
C7F C 1.1406(2) 0.1422(4) 0.7634(3)
H17F H 1.1735 0.1247 0.7746
H18F H 1.1174 0.0849 0.7365
C8F C 1.0707(2) 0.2670(5) 0.6990(3)
H19F H 1.0458 0.2122 0.6717
H20F H 1.0572 0.3276 0.6666
C9F C 1.1582(2) 0.3211(5) 0.7567(3)
H21F H 1.1460 0.3824 0.7251
H22F H 1.1908 0.3014 0.7675
C10F C 1.1167(2) 0.3709(4) 0.8139(3)
H23F H 1.1218 0.3853 0.8620
H24F H 1.1040 0.4329 0.7831
C11F C 1.1860(2) 0.2480(5) 0.8784(3)
H25F H 1.2182 0.2284 0.8880
H26F H 1.1925 0.2609 0.9276
C12F C 1.0982(2) 0.1933(4) 0.8208(3)
H27F H 1.0737 0.1378 0.7944
H28F H 1.1031 0.2057 0.8690
O2F O 0.73144(19) 0.9834(3) 0.5021(3)
H3F H 0.7226 0.9129 0.5057
H4F H 0.7115 1.0338 0.5087
Ag4F Ag 0.729800(19) 1.01445(4) 0.39358(3)
O3G O 1.1650(2) 1.4174(4) 1.2875(3)
O4G O 1.2219(2) 1.2918(4) 1.3313(3)
O5G O 1.21092(18) 1.0696(4) 1.1250(3)
O6G O 1.1752(2) 1.1605(5) 1.0167(3)
O7G O 1.0599(2) 1.0967(5) 0.9468(3)
O8G O 1.05035(19) 1.2607(4) 0.9080(3)
O9G O 1.0495(2) 1.4586(4) 1.1414(4)
O10G O 1.0564(2) 1.3095(4) 1.1994(3)
C13G C 1.1816(2) 1.3384(4) 1.2776(3)
C14G C 1.1803(2) 1.1380(5) 1.0773(3)
C15G C 1.0675(3) 1.1925(6) 0.9588(3)
C16G C 1.0665(2) 1.3677(5) 1.1645(4)
C17G C 1.1510(2) 1.2940(4) 1.1967(3)
C18G C 1.1757(2) 1.2331(4) 1.1750(3)
H29G H 1.2112 1.2130 1.2135
C19G C 1.1503(2) 1.2001(4) 1.0985(3)
C20G C 1.0982(2) 1.2283(5) 1.0428(3)
C21G C 1.0735(2) 1.2868(5) 1.0649(3)
H30G H 1.0378 1.3056 1.0264
C22G C 1.0985(2) 1.3202(4) 1.1414(3)
N7F_2 N 1.14827(19) 1.1615(4) 0.8377(3)
N8C N 1.33356(19) 1.1572(4) 1.1690(3)
N5D N 1.12068(19) 0.7648(4) 1.2137(3)
Ag4G Ag 1.229800(19) 0.51445(4) 1.39358(3)
Ag5D Ag 0.88965(3) 0.20036(6) 0.89804(3)
Ag3F_2 Ag 0.82627(2) 0.01881(4) 0.58454(4)
Ag4C Ag 0.770200(19) 0.48555(4) 0.60642(3)
N7_2 N 0.85173(19) 1.1615(4) 0.6623(3)
N5B N 0.87932(19) 0.7648(4) 0.2863(3)
Ag5B Ag 1.11035(3) 0.20036(6) 0.60196(3)
Ag3_2 Ag 1.17373(2) 0.01881(4) 0.91546(4)
Ag4E Ag 1.229800(19) 0.48555(4) 0.89358(3)
O3F O 0.6650(2) 0.9174(4) 0.2875(3)
O5A O 0.78908(18) 1.0696(4) 0.3750(3)
N8E N 0.66644(19) 1.1572(4) 0.3310(3)
Ag4G_2 Ag 1.229800(19) 1.51445(4) 1.39358(3)
loop_
_geom_bond_atom_site_label_1
_geom_bond_atom_site_label_2
_geom_bond_site_symmetry_1
_geom_bond_site_symmetry_2
Ag1 O1 1_555 1_555
Ag2 O1 1_555 1_555
Ag3 O2 1_555 1_555
Ag4 O2 1_555 1_555
Ag5 N2 1_555 1_555
O1 H1 1_555 1_555
H2 O1 1_555 1_555
O2 H3 1_555 1_555
H4 O2 1_555 1_555
O3 Ag4 1_555 1_555
O4 C13 1_555 1_555
O5 C14 1_555 1_555
O6 C14 1_555 1_555
O7 C15 1_555 1_555
O8 C15 1_555 1_555
O9 C16 1_555 1_555
O10 C16 1_555 1_555
N1 Ag1 1_555 1_555
N2 C1 1_555 1_555
N3 Ag3 1_555 1_555
N4 C2 1_555 1_555
C1 N3 1_555 1_555
H5 C1 1_555 1_555
H6 C1 1_555 1_555
C2 N2 1_555 1_555
H7 C2 1_555 1_555
H8 C2 1_555 1_555
C3 N1 1_555 1_555
H9 C3 1_555 1_555
H10 C3 1_555 1_555
C4 N1 1_555 1_555
H11 C4 1_555 1_555
H12 C4 1_555 1_555
C5 N1 1_555 1_555
H13 C5 1_555 1_555
H14 C5 1_555 1_555
C6 N3 1_555 1_555
H15 C6 1_555 1_555
H16 C6 1_555 1_555
N5 C7 1_555 1_555
N6 Ag2 1_555 1_555
N7 C7 1_555 1_555
N8 C9 1_555 1_555
C7 H17 1_555 1_555
H18 C7 1_555 1_555
C8 N5 1_555 1_555
H19 C8 1_555 1_555
H20 C8 1_555 1_555
C9 N5 1_555 1_555
H21 C9 1_555 1_555
H22 C9 1_555 1_555
C10 N6 1_555 1_555
H23 C10 1_555 1_555
H24 C10 1_555 1_555
C11 N7 1_555 1_555
H25 C11 1_555 1_555
H26 C11 1_555 1_555
C12 N6 1_555 1_555
H27 C12 1_555 1_555
H28 C12 1_555 1_555
C13 O3 1_555 1_555
C14 C19 1_555 1_555
C15 C20 1_555 1_555
C16 C22 1_555 1_555
C17 C13 1_555 1_555
C18 C17 1_555 1_555
H29 C18 1_555 1_555
C19 C18 1_555 1_555
C20 C19 1_555 1_555
C21 C20 1_555 1_555
H30 C21 1_555 1_555
C22 C17 1_555 1_555
O11 H31 1_555 1_555
H32 O11 1_555 1_555
O12 H33 1_555 1_555
H34 O12 1_555 1_555
O13 H35 1_555 1_555
H36 O13 1_555 1_555
O14 H37 1_555 1_555
H38 O14 1_555 1_555
O15 H39 1_555 1_555
H40 O15 1_555 1_555
O16 H41 1_555 1_555
H42 O16 1_555 1_555
O17 H43 1_555 1_555
H44 O17 1_555 1_555
O18 H45 1_555 1_555
H46 O18 1_555 1_555
O19 H47 1_555 1_555
H48 O19 1_555 1_555
O1F Ag1 1_555 1_555
H1F O1F 1_555 1_555
H2F O1F 1_555 1_555
N1F Ag1 1_555 1_555
N2F C1F 1_555 1_555
N3F C1F 1_555 1_555
N4F C2F 1_555 1_555
C1F H5F 1_555 1_555
H6F C1F 1_555 1_555
C2F N2F 1_555 1_555
H7F C2F 1_555 1_555
H8F C2F 1_555 1_555
C3F N1F 1_555 1_555
H9F C3F 1_555 1_555
H10F C3F 1_555 1_555
C4F N1F 1_555 1_555
H11F C4F 1_555 1_555
H12F C4F 1_555 1_555
C5F N1F 1_555 1_555
H13F C5F 1_555 1_555
H14F C5F 1_555 1_555
C6F N3F 1_555 1_555
H15F C6F 1_555 1_555
H16F C6F 1_555 1_555
Ag3F N3F 1_555 1_555
Ag5F N2F 1_555 1_555
N5F C7F 1_555 1_555
N6F Ag2 1_555 1_555
N7F C7F 1_555 1_555
N8F C9F 1_555 1_555
C7F H17F 1_555 1_555
H18F C7F 1_555 1_555
C8F N5F 1_555 1_555
H19F C8F 1_555 1_555
H20F C8F 1_555 1_555
C9F N5F 1_555 1_555
H21F C9F 1_555 1_555
H22F C9F 1_555 1_555
C10F N6F 1_555 1_555
H23F C10F 1_555 1_555
H24F C10F 1_555 1_555
C11F N7F 1_555 1_555
H25F C11F 1_555 1_555
H26F C11F 1_555 1_555
C12F N6F 1_555 1_555
H27F C12F 1_555 1_555
H28F C12F 1_555 1_555
O2F Ag3F 1_555 1_555
H3F O2F 1_555 1_555
H4F O2F 1_555 1_555
Ag4F O2F 1_555 1_555
O3G C13G 1_555 1_555
O4G C13G 1_555 1_555
O5G Ag4 1_555 1_555
O6G C14G 1_555 1_555
O7G C15G 1_555 1_555
O8G C15G 1_555 1_555
O9G C16G 1_555 1_555
O10G C16G 1_555 1_555
C13G C17G 1_555 1_555
C14G O5G 1_555 1_555
C15G C20G 1_555 1_555
C16G C22G 1_555 1_555
C17G C18G 1_555 1_555
C18G H29G 1_555 1_555
C19G C14G 1_555 1_555
C20G C19G 1_555 1_555
C21G C20G 1_555 1_555
H30G C21G 1_555 1_555
C22G C17G 1_555 1_555
N7F_2 Ag3 1_555 1_555
N8C Ag4 1_555 1_555
N5D Ag5 1_555 1_555
Ag4G O5 1_555 1_555
Ag5D N5 1_555 1_555
Ag3F_2 N7 1_555 1_555
Ag4C N8 1_555 1_555
N7_2 Ag3F 1_555 1_555
N5B Ag5F 1_555 1_555
Ag5B N5F 1_555 1_555
Ag3_2 N7F 1_555 1_555
Ag4E N8F 1_555 1_555
O3F Ag4F 1_555 1_555
O5A Ag4F 1_555 1_555
N8E Ag4F 1_555 1_555
Ag4G_2 O3G 1_555 1_555
Ag2 O1F 1_555 1_555
N2 C3 1_555 1_555
N3 C4 1_555 1_555
N4 C5 1_555 1_555
N4 C6 1_555 1_555
N6 C8 1_555 1_555
N7 C12 1_555 1_555
N8 C11 1_555 1_555
N8 C10 1_555 1_555
C21 C22 1_555 1_555
N2F C3F 1_555 1_555
N3F C4F 1_555 1_555
N4F C5F 1_555 1_555
N4F C6F 1_555 1_555
N6F C8F 1_555 1_555
N7F C12F 1_555 1_555
N8F C11F 1_555 1_555
N8F C10F 1_555 1_555
C18G C19G 1_555 1_555
C21G C22G 1_555 1_555

#END
