
#######################################################################
#
#                 Cambridge Crystallographic Data Centre
#                                CCDC 
#
#######################################################################
#
# If this CIF has been generated from an entry in the Cambridge 
# Structural Database, then it will include bibliographic, chemical, 
# crystal, experimental, refinement or atomic coordinate data resulting 
# from the CCDC's data processing and validation procedures.
#
#######################################################################

data_BAYJEQ
_symmetry_cell_setting           monoclinic
_symmetry_space_group_name_H-M   'P 21/c'
_symmetry_Int_Tables_number      14
_space_group_name_Hall           '-P 2ybc'
loop_
_symmetry_equiv_pos_site_id
_symmetry_equiv_pos_as_xyz
1 x,y,z
2 -x,1/2+y,1/2-z
3 -x,-y,-z
4 x,1/2-y,1/2+z
_cell_length_a                   4.880(1)
_cell_length_b                   9.725(4)
_cell_length_c                   13.883(2)
_cell_angle_alpha                90
_cell_angle_beta                 104.44(1)
_cell_angle_gamma                90
_cell_volume                     638.046
loop_
_atom_site_label
_atom_site_type_symbol
_atom_site_fract_x
_atom_site_fract_y
_atom_site_fract_z
Ag1 Ag 0.81475 0.13187 -0.01902
Ag2 Ag 0.83707 0.42919 0.05646
O1 O 0.56560 0.08960 0.08520
O2 O 0.71620 0.27810 0.17360
O3 O 0.54260 0.10720 0.40830
O4 O 0.83530 0.02010 0.32040
C1 C 0.57420 0.16930 0.15730
C2 C 0.41320 0.12840 0.23140
C3 C 0.61460 0.07940 0.32750
Ag2B Ag 1.16293 0.57081 -0.05646
O3A O 0.45740 0.60720 0.09170
O3C O 0.54260 0.39280 -0.09170
O4A O 1.16470 0.52010 0.17960
Ag2A Ag 0.16293 -0.07081 0.44354
Ag2C Ag 0.83707 0.07081 0.55646
Ag2A_2 Ag 1.16293 -0.07081 0.44354
loop_
_geom_bond_atom_site_label_1
_geom_bond_atom_site_label_2
_geom_bond_site_symmetry_1
_geom_bond_site_symmetry_2
Ag1 O1 1_555 1_555
Ag2 O2 1_555 1_555
O1 C1 1_555 1_555
O2 C1 1_555 1_555
O3 C3 1_555 1_555
O4 C3 1_555 1_555
C1 C2 1_555 1_555
C2 C3 1_555 1_555
Ag2B Ag2 1_555 1_555
O3A Ag2 1_555 1_555
O3C Ag2 1_555 1_555
O4A Ag2 1_555 1_555
Ag2A O3 1_555 1_555
Ag2C O3 1_555 1_555
Ag2A_2 O4 1_555 1_555
Ag2C Ag2A_2 1_555 1_555

#END
