
#######################################################################
#
#                 Cambridge Crystallographic Data Centre
#                                CCDC 
#
#######################################################################
#
# If this CIF has been generated from an entry in the Cambridge 
# Structural Database, then it will include bibliographic, chemical, 
# crystal, experimental, refinement or atomic coordinate data resulting 
# from the CCDC's data processing and validation procedures.
#
#######################################################################

data_BAYMOE
_symmetry_cell_setting           monoclinic
_symmetry_space_group_name_H-M   'P 21/n'
_symmetry_Int_Tables_number      14
_space_group_name_Hall           '-P 2yn'
loop_
_symmetry_equiv_pos_site_id
_symmetry_equiv_pos_as_xyz
1 x,y,z
2 1/2-x,1/2+y,1/2-z
3 -x,-y,-z
4 1/2+x,1/2-y,1/2+z
_cell_length_a                   14.8202(7)
_cell_length_b                   11.8105(6)
_cell_length_c                   19.3163(10)
_cell_angle_alpha                90
_cell_angle_beta                 94.6590(10)
_cell_angle_gamma                90
_cell_volume                     3369.84
loop_
_atom_site_label
_atom_site_type_symbol
_atom_site_fract_x
_atom_site_fract_y
_atom_site_fract_z
Cu1 Cu 0.4266(1) 0.5452(1) 0.7254(1)
Cu2 Cu 0.5623(1) 0.3509(1) 0.6944(1)
O1 O 0.4300(1) 0.3695(2) 0.6768(1)
C1 C 0.3742(2) 0.2868(2) 0.6893(1)
C2 C 0.4021(2) 0.1729(2) 0.7014(1)
C3 C 0.3421(2) 0.0886(2) 0.7202(1)
C4 C 0.2494(2) 0.1126(2) 0.7315(1)
C5 C 0.2187(2) 0.2205(2) 0.7065(1)
C6 C 0.2792(2) 0.3046(2) 0.6868(1)
Mn1 Mn 0.2923(1) 0.1583(1) 0.6201(1)
C7 C 0.3760(2) 0.1175(2) 0.5616(2)
O2 O 0.4253(2) 0.0891(2) 0.5233(1)
C8 C 0.2257(2) 0.0353(3) 0.5942(2)
O3 O 0.1856(2) -0.0435(3) 0.5777(2)
C9 C 0.2348(2) 0.2409(3) 0.5521(2)
O4 O 0.1968(2) 0.2927(4) 0.5091(2)
O5 O 0.1992(1) 0.0358(2) 0.7544(1)
O6 O 0.5522(1) 0.5434(1) 0.7002(1)
C10 C 0.6110(2) 0.6202(2) 0.7227(1)
C11 C 0.7025(2) 0.6154(2) 0.7051(1)
C12 C 0.7682(2) 0.6954(2) 0.7283(1)
C13 C 0.7481(2) 0.7866(2) 0.7738(1)
C14 C 0.6542(2) 0.7998(2) 0.7827(1)
C15 C 0.5885(2) 0.7189(2) 0.7590(1)
Mn2 Mn 0.6544(1) 0.7823(1) 0.6708(1)
C16 C 0.6258(2) 0.7164(2) 0.5876(2)
O7 O 0.6080(2) 0.6705(2) 0.5365(1)
C17 C 0.7286(2) 0.8837(3) 0.6351(2)
O8 O 0.7717(2) 0.9505(3) 0.6119(2)
C18 C 0.5643(2) 0.8841(3) 0.6588(2)
O9 O 0.5088(2) 0.9504(2) 0.6543(2)
O10 O 0.8065(1) 0.8585(2) 0.7992(1)
O11 O 0.4317(1) 0.7429(2) 0.3870(1)
C19 C 0.4116(2) 0.7188(2) 0.4490(1)
C20 C 0.4082(2) 0.6078(2) 0.4772(2)
C21 C 0.4001(2) 0.5877(2) 0.5486(2)
C22 C 0.3948(2) 0.6801(2) 0.5967(1)
C23 C 0.3757(2) 0.7874(2) 0.5647(2)
C24 C 0.3841(2) 0.8062(2) 0.4940(2)
Mn3 Mn 0.2799(1) 0.6779(1) 0.5042(1)
C25 C 0.2254(2) 0.5663(3) 0.4543(2)
O12 O 0.1893(2) 0.4961(2) 0.4212(2)
C26 C 0.2068(2) 0.6616(4) 0.5736(2)
O13 O 0.1614(2) 0.6529(5) 0.6175(2)
C27 C 0.2011(2) 0.7746(3) 0.4597(2)
O14 O 0.1501(2) 0.8336(2) 0.4318(2)
O15 O 0.3965(1) 0.6702(2) 0.6627(1)
O16 O 0.4649(2) 0.4873(2) 0.8184(1)
C28 C 0.5128(2) 0.4030(3) 0.8356(2)
C29 C 0.5233(3) 0.3743(5) 0.9124(2)
O17 O 0.5524(2) 0.3390(2) 0.7958(1)
H1 H 0.4621 0.1536 0.6966
H2 H 0.3630 0.0146 0.7256
H3 H 0.1570 0.2359 0.7030
H4 H 0.2560 0.3743 0.6717
H5 H 0.7195 0.5565 0.6769
H6 H 0.8263 0.6892 0.7139
H7 H 0.6354 0.8644 0.8049
H8 H 0.5284 0.7310 0.7677
H9 H 0.4114 0.5462 0.4476
H10 H 0.3982 0.5137 0.5648
H11 H 0.3570 0.8467 0.5917
H12 H 0.3713 0.8778 0.4757
H13 H 0.4714 0.3322 0.9245
H14 H 0.5282 0.4429 0.9390
H15 H 0.5769 0.3296 0.9222
O5A O 0.3008(1) 0.5358(2) 0.7456(1)
O10A O 0.6935(1) 0.3585(2) 0.7008(1)
O11B O 0.5683(1) 0.2571(2) 0.6130(1)
Cu1A Cu 0.0734(1) 0.0452(1) 0.7746(1)
Cu2A Cu 0.9377(1) 0.8509(1) 0.8056(1)
Cu2B Cu 0.4377(1) 0.6491(1) 0.3056(1)
C30 C 0.4733(12) 0.9008(17) 0.9246(10)
O18 O 0.4603(8) 0.9066(11) 0.8538(7)
H16 H 0.5103 0.9631 0.9416
H17 H 0.5029 0.8308 0.9378
H18 H 0.4158 0.9043 0.9441
H19 H 0.5054 0.8827 0.8367
loop_
_geom_bond_atom_site_label_1
_geom_bond_atom_site_label_2
_geom_bond_site_symmetry_1
_geom_bond_site_symmetry_2
Cu1 O1 1_555 1_555
Cu2 O1 1_555 1_555
O1 C1 1_555 1_555
C1 C2 1_555 1_555
C2 C3 1_555 1_555
C3 C4 1_555 1_555
C4 C5 1_555 1_555
C5 C6 1_555 1_555
C6 C1 1_555 1_555
Mn1 C2 1_555 1_555
C7 Mn1 1_555 1_555
O2 C7 1_555 1_555
C8 Mn1 1_555 1_555
O3 C8 1_555 1_555
C9 Mn1 1_555 1_555
O4 C9 1_555 1_555
O5 C4 1_555 1_555
O6 Cu1 1_555 1_555
C10 O6 1_555 1_555
C11 C10 1_555 1_555
C12 C11 1_555 1_555
C13 C12 1_555 1_555
C14 C13 1_555 1_555
C15 C10 1_555 1_555
Mn2 C11 1_555 1_555
C16 Mn2 1_555 1_555
O7 C16 1_555 1_555
C17 Mn2 1_555 1_555
O8 C17 1_555 1_555
C18 Mn2 1_555 1_555
O9 C18 1_555 1_555
O10 C13 1_555 1_555
O11 C19 1_555 1_555
C19 C20 1_555 1_555
C20 C21 1_555 1_555
C21 C22 1_555 1_555
C22 C23 1_555 1_555
C23 C24 1_555 1_555
C24 C19 1_555 1_555
Mn3 C20 1_555 1_555
C25 Mn3 1_555 1_555
O12 C25 1_555 1_555
C26 Mn3 1_555 1_555
O13 C26 1_555 1_555
C27 Mn3 1_555 1_555
O14 C27 1_555 1_555
O15 Cu1 1_555 1_555
O16 Cu1 1_555 1_555
C28 O16 1_555 1_555
C29 C28 1_555 1_555
O17 Cu2 1_555 1_555
C30 O18 1_555 1_555
O18 H19 1_555 1_555
H1 C2 1_555 1_555
H2 C3 1_555 1_555
H3 C5 1_555 1_555
H4 C6 1_555 1_555
H5 C11 1_555 1_555
H6 C12 1_555 1_555
H7 C14 1_555 1_555
H8 C15 1_555 1_555
H9 C20 1_555 1_555
H10 C21 1_555 1_555
H11 C23 1_555 1_555
H12 C24 1_555 1_555
H13 C29 1_555 1_555
H14 C29 1_555 1_555
H15 C29 1_555 1_555
H16 C30 1_555 1_555
H17 C30 1_555 1_555
H18 C30 1_555 1_555
O5A Cu1 1_555 1_555
O10A Cu2 1_555 1_555
O11B Cu2 1_555 1_555
Cu1A O5 1_555 1_555
Cu2A O10 1_555 1_555
Cu2B O11 1_555 1_555
Cu2 O6 1_555 1_555
C3 Mn1 1_555 1_555
C5 Mn1 1_555 1_555
C6 Mn1 1_555 1_555
C12 Mn2 1_555 1_555
C14 C15 1_555 1_555
C14 Mn2 1_555 1_555
C15 Mn2 1_555 1_555
C21 Mn3 1_555 1_555
C22 O15 1_555 1_555
C23 Mn3 1_555 1_555
C24 Mn3 1_555 1_555
C28 O17 1_555 1_555

#END
