
#######################################################################
#
#                 Cambridge Crystallographic Data Centre
#                                CCDC 
#
#######################################################################
#
# If this CIF has been generated from an entry in the Cambridge 
# Structural Database, then it will include bibliographic, chemical, 
# crystal, experimental, refinement or atomic coordinate data resulting 
# from the CCDC's data processing and validation procedures.
#
#######################################################################

data_BAYPUN
_symmetry_cell_setting           orthorhombic
_symmetry_space_group_name_H-M   'P b c a'
_symmetry_Int_Tables_number      61
_space_group_name_Hall           '-P 2ac 2ab'
loop_
_symmetry_equiv_pos_site_id
_symmetry_equiv_pos_as_xyz
1 x,y,z
2 1/2-x,-y,1/2+z
3 1/2+x,1/2-y,-z
4 -x,1/2+y,1/2-z
5 -x,-y,-z
6 1/2+x,y,1/2-z
7 1/2-x,1/2+y,z
8 x,1/2-y,1/2+z
_cell_length_a                   14.5899(3)
_cell_length_b                   10.8076(2)
_cell_length_c                   9.8200(2)
_cell_angle_alpha                90
_cell_angle_beta                 90
_cell_angle_gamma                90
_cell_volume                     1548.44
loop_
_atom_site_label
_atom_site_type_symbol
_atom_site_fract_x
_atom_site_fract_y
_atom_site_fract_z
Hg1 Hg 0.10652 0.53090 0.31146
N1 N 0.00346 0.40389 0.23351
N2 N 0.22737 0.54741 0.18048
N3 N -0.06350 0.22541 0.19187
N4 N 0.32364 0.54237 0.00807
C1 C 0.00299 0.28170 0.26661
C2 C 0.25612 0.47854 0.07272
C3 C -0.10411 0.31282 0.11258
C4 C 0.33662 0.65069 0.07586
C5 C -0.06273 0.42312 0.13832
C6 C 0.27713 0.65380 0.18242
H1 H 0.04345 0.24130 0.33271
H2 H 0.23235 0.39720 0.04631
H3 H -0.15437 0.29878 0.04820
H4 H 0.38105 0.71518 0.05210
H5 H -0.07793 0.50252 0.09575
H6 H 0.27115 0.72093 0.24892
N3C N 0.06350 0.72541 0.30813
N4A N 0.17636 0.45763 0.50807
Hg1C Hg -0.10652 0.03090 0.18854
Hg1A Hg 0.39348 0.46910 -0.18854
loop_
_geom_bond_atom_site_label_1
_geom_bond_atom_site_label_2
_geom_bond_site_symmetry_1
_geom_bond_site_symmetry_2
Hg1 N1 1_555 1_555
N1 C1 1_555 1_555
N2 Hg1 1_555 1_555
N3 C1 1_555 1_555
N4 C2 1_555 1_555
C1 H1 1_555 1_555
C2 N2 1_555 1_555
C3 N3 1_555 1_555
C4 N4 1_555 1_555
C5 N1 1_555 1_555
C6 N2 1_555 1_555
H2 C2 1_555 1_555
H3 C3 1_555 1_555
H4 C4 1_555 1_555
H5 C5 1_555 1_555
H6 C6 1_555 1_555
N3C Hg1 1_555 1_555
N4A Hg1 1_555 1_555
Hg1C N3 1_555 1_555
Hg1A N4 1_555 1_555
C3 C5 1_555 1_555
C4 C6 1_555 1_555

#END
