
#######################################################################
#
#                 Cambridge Crystallographic Data Centre
#                                CCDC 
#
#######################################################################
#
# If this CIF has been generated from an entry in the Cambridge 
# Structural Database, then it will include bibliographic, chemical, 
# crystal, experimental, refinement or atomic coordinate data resulting 
# from the CCDC's data processing and validation procedures.
#
#######################################################################

data_BAYQAU03
_symmetry_cell_setting           orthorhombic
_symmetry_space_group_name_H-M   'P b c a'
_symmetry_Int_Tables_number      61
_space_group_name_Hall           '-P 2ac 2ab'
loop_
_symmetry_equiv_pos_site_id
_symmetry_equiv_pos_as_xyz
1 x,y,z
2 1/2+x,1/2-y,-z
3 -x,1/2+y,1/2-z
4 1/2-x,-y,1/2+z
5 -x,-y,-z
6 1/2-x,1/2+y,z
7 x,1/2-y,1/2+z
8 1/2+x,y,1/2-z
_cell_length_a                   14.7195(6)
_cell_length_b                   10.7233(4)
_cell_length_c                   9.9500(4)
_cell_angle_alpha                90
_cell_angle_beta                 90
_cell_angle_gamma                90
_cell_volume                     1570.52
loop_
_atom_site_label
_atom_site_type_symbol
_atom_site_fract_x
_atom_site_fract_y
_atom_site_fract_z
Cd1 Cd 0.11320(3) 0.03080(4) 0.79860(4)
N1 N 0.2293(3) 0.0505(5) 0.6575(5)
C1 C 0.2571(5) -0.0158(6) 0.5533(6)
N2 N 0.3280(3) 0.0312(5) 0.4900(5)
C2 C 0.3461(5) 0.1381(7) 0.5580(6)
C3 C 0.2866(5) 0.1501(6) 0.6591(7)
H1 H 0.2306 -0.0919 0.5307
H2 H 0.3929 0.1931 0.5351
H3 H 0.2821 0.2159 0.7183
N3 N 0.0679(3) 0.2258(4) 0.8086(5)
C4 C 0.0028(5) 0.2821(6) 0.7414(7)
N4 N -0.0086(3) 0.4005(4) 0.7699(5)
C5 C 0.0558(5) 0.4207(7) 0.8626(9)
C6 C 0.1015(5) 0.3157(6) 0.8882(8)
H4 H -0.0331 0.2420 0.6761
H5 H 0.0665 0.4969 0.9016
H6 H 0.1486 0.3045 0.9531
Cd1B Cd -0.11320(3) 0.53080(4) 0.70140(4)
Cd1C Cd 0.38680(3) -0.03080(4) 0.29860(4)
N2C N 0.1720(3) -0.0312(5) 0.9900(5)
N4B N 0.0086(3) -0.0995(4) 0.7301(5)
loop_
_geom_bond_atom_site_label_1
_geom_bond_atom_site_label_2
_geom_bond_site_symmetry_1
_geom_bond_site_symmetry_2
Cd1 N1 1_555 1_555
N1 C1 1_555 1_555
C1 N2 1_555 1_555
N2 C2 1_555 1_555
C2 C3 1_555 1_555
C3 N1 1_555 1_555
H1 C1 1_555 1_555
H2 C2 1_555 1_555
H3 C3 1_555 1_555
N3 Cd1 1_555 1_555
C4 N3 1_555 1_555
N4 C4 1_555 1_555
C5 N4 1_555 1_555
C6 N3 1_555 1_555
H4 C4 1_555 1_555
H5 C5 1_555 1_555
H6 C6 1_555 1_555
Cd1B N4 1_555 1_555
Cd1C N2 1_555 1_555
N2C Cd1 1_555 1_555
N4B Cd1 1_555 1_555
C5 C6 1_555 1_555

#END
