
#######################################################################
#
#                 Cambridge Crystallographic Data Centre
#                                CCDC 
#
#######################################################################
#
# If this CIF has been generated from an entry in the Cambridge 
# Structural Database, then it will include bibliographic, chemical, 
# crystal, experimental, refinement or atomic coordinate data resulting 
# from the CCDC's data processing and validation procedures.
#
#######################################################################

data_BAYQAU09
_symmetry_cell_setting           orthorhombic
_symmetry_space_group_name_H-M   'P b c a'
_symmetry_Int_Tables_number      61
_space_group_name_Hall           '-P 2ac 2ab'
loop_
_symmetry_equiv_pos_site_id
_symmetry_equiv_pos_as_xyz
1 x,y,z
2 1/2+x,1/2-y,-z
3 -x,1/2+y,1/2-z
4 1/2-x,-y,1/2+z
5 -x,-y,-z
6 1/2-x,1/2+y,z
7 x,1/2-y,1/2+z
8 1/2+x,y,1/2-z
_cell_length_a                   14.4689(5)
_cell_length_b                   10.7738(3)
_cell_length_c                   9.9041(3)
_cell_angle_alpha                90
_cell_angle_beta                 90
_cell_angle_gamma                90
_cell_volume                     1543.9
loop_
_atom_site_label
_atom_site_type_symbol
_atom_site_fract_x
_atom_site_fract_y
_atom_site_fract_z
Cd1 Cd 0.11086(2) 0.03389(3) 0.80482(3)
N1 N 0.2303(2) 0.0513(3) 0.6656(4)
C1 C 0.2594(3) -0.0175(4) 0.5625(5)
N2 N 0.3320(3) 0.0308(4) 0.4970(4)
C2 C 0.3495(3) 0.1405(4) 0.5637(5)
C3 C 0.2878(3) 0.1526(4) 0.6652(5)
H1 H 0.2329 -0.0936 0.5398
H2 H 0.3963 0.1955 0.5408
H3 H 0.2834 0.2184 0.7244
N3 N 0.0694(2) 0.2293(3) 0.8132(4)
C4 C 0.0052(3) 0.2859(4) 0.7406(5)
N4 N -0.0051(3) 0.4059(3) 0.7683(4)
C5 C 0.0599(4) 0.4271(5) 0.8661(6)
C6 C 0.1039(4) 0.3205(4) 0.8938(6)
H4 H -0.0307 0.2458 0.6753
H5 H 0.0706 0.5033 0.9051
H6 H 0.1510 0.3093 0.9587
Cd1B Cd -0.11086(2) 0.53389(3) 0.69518(3)
Cd1C Cd 0.38914(2) -0.03389(3) 0.30482(3)
N2C N 0.1680(3) -0.0308(4) 0.9970(4)
N4B N 0.0051(3) -0.0941(3) 0.7317(4)
loop_
_geom_bond_atom_site_label_1
_geom_bond_atom_site_label_2
_geom_bond_site_symmetry_1
_geom_bond_site_symmetry_2
Cd1 N1 1_555 1_555
N1 C1 1_555 1_555
C1 N2 1_555 1_555
N2 C2 1_555 1_555
C2 C3 1_555 1_555
C3 N1 1_555 1_555
H1 C1 1_555 1_555
H2 C2 1_555 1_555
H3 C3 1_555 1_555
N3 Cd1 1_555 1_555
C4 N3 1_555 1_555
N4 C4 1_555 1_555
C5 N4 1_555 1_555
C6 N3 1_555 1_555
H4 C4 1_555 1_555
H5 C5 1_555 1_555
H6 C6 1_555 1_555
Cd1B N4 1_555 1_555
Cd1C N2 1_555 1_555
N2C Cd1 1_555 1_555
N4B Cd1 1_555 1_555
C5 C6 1_555 1_555

#END
