
#######################################################################
#
#                 Cambridge Crystallographic Data Centre
#                                CCDC 
#
#######################################################################
#
# If this CIF has been generated from an entry in the Cambridge 
# Structural Database, then it will include bibliographic, chemical, 
# crystal, experimental, refinement or atomic coordinate data resulting 
# from the CCDC's data processing and validation procedures.
#
#######################################################################

data_BAYQAU07
_symmetry_cell_setting           orthorhombic
_symmetry_space_group_name_H-M   'P b c a'
_symmetry_Int_Tables_number      61
_space_group_name_Hall           '-P 2ac 2ab'
loop_
_symmetry_equiv_pos_site_id
_symmetry_equiv_pos_as_xyz
1 x,y,z
2 1/2+x,1/2-y,-z
3 -x,1/2+y,1/2-z
4 1/2-x,-y,1/2+z
5 -x,-y,-z
6 1/2-x,1/2+y,z
7 x,1/2-y,1/2+z
8 1/2+x,y,1/2-z
_cell_length_a                   14.3358(5)
_cell_length_b                   10.7957(3)
_cell_length_c                   9.8884(3)
_cell_angle_alpha                90
_cell_angle_beta                 90
_cell_angle_gamma                90
_cell_volume                     1530.38
loop_
_atom_site_label
_atom_site_type_symbol
_atom_site_fract_x
_atom_site_fract_y
_atom_site_fract_z
Cd1 Cd 0.109772(18) 0.03555(2) 0.80754(3)
N1 N 0.2311(2) 0.0517(3) 0.6692(3)
C1 C 0.2615(3) -0.0178(3) 0.5669(4)
N2 N 0.3340(2) 0.0308(3) 0.5002(3)
C2 C 0.3515(3) 0.1410(3) 0.5656(4)
C3 C 0.2885(3) 0.1539(3) 0.6684(4)
H1 H 0.2349 -0.0939 0.5442
H2 H 0.3983 0.1961 0.5427
H3 H 0.2841 0.2197 0.7276
N3 N 0.0707(2) 0.2318(3) 0.8149(3)
C4 C 0.0060(3) 0.2887(3) 0.7409(4)
N4 N -0.0035(2) 0.4091(3) 0.7686(3)
C5 C 0.0620(3) 0.4306(4) 0.8680(5)
C6 C 0.1059(3) 0.3232(3) 0.8965(4)
H4 H -0.0299 0.2486 0.6756
H5 H 0.0727 0.5068 0.9070
H6 H 0.1530 0.3120 0.9614
Cd1B Cd -0.109772(18) 0.53555(2) 0.69246(3)
Cd1C Cd 0.390228(18) -0.03555(2) 0.30754(3)
N2C N 0.1660(2) -0.0308(3) 1.0002(3)
N4B N 0.0035(2) -0.0909(3) 0.7314(3)
loop_
_geom_bond_atom_site_label_1
_geom_bond_atom_site_label_2
_geom_bond_site_symmetry_1
_geom_bond_site_symmetry_2
Cd1 N1 1_555 1_555
N1 C1 1_555 1_555
C1 N2 1_555 1_555
N2 C2 1_555 1_555
C2 C3 1_555 1_555
C3 N1 1_555 1_555
H1 C1 1_555 1_555
H2 C2 1_555 1_555
H3 C3 1_555 1_555
N3 Cd1 1_555 1_555
C4 N3 1_555 1_555
N4 C4 1_555 1_555
C5 N4 1_555 1_555
C6 N3 1_555 1_555
H4 C4 1_555 1_555
H5 C5 1_555 1_555
H6 C6 1_555 1_555
Cd1B N4 1_555 1_555
Cd1C N2 1_555 1_555
N2C Cd1 1_555 1_555
N4B Cd1 1_555 1_555
C5 C6 1_555 1_555

#END
