
#######################################################################
#
#                 Cambridge Crystallographic Data Centre
#                                CCDC 
#
#######################################################################
#
# If this CIF has been generated from an entry in the Cambridge 
# Structural Database, then it will include bibliographic, chemical, 
# crystal, experimental, refinement or atomic coordinate data resulting 
# from the CCDC's data processing and validation procedures.
#
#######################################################################

data_BAYQAV
_symmetry_cell_setting           triclinic
_symmetry_space_group_name_H-M   'P -1'
_symmetry_Int_Tables_number      2
_space_group_name_Hall           '-P 1'
loop_
_symmetry_equiv_pos_site_id
_symmetry_equiv_pos_as_xyz
1 x,y,z
2 -x,-y,-z
_cell_length_a                   12.682(2)
_cell_length_b                   12.716(2)
_cell_length_c                   14.595(3)
_cell_angle_alpha                90.132(4)
_cell_angle_beta                 96.501(3)
_cell_angle_gamma                115.491(3)
_cell_volume                     2107.45
loop_
_atom_site_label
_atom_site_type_symbol
_atom_site_fract_x
_atom_site_fract_y
_atom_site_fract_z
Mn1 Mn 0.63305(3) 0.71601(4) -0.56572(3)
Mn2 Mn 0.42252(3) 0.55668(4) -0.45190(3)
Mn3 Mn 0.74638(4) 0.57098(4) -0.66684(3)
Mn4 Mn 0.81154(4) 0.80066(4) -0.74685(3)
Mn5 Mn 0.55685(4) 0.62311(4) -0.78294(3)
Na1 Na 0.30531(11) 0.51877(11) -0.11501(8)
O1 O 0.58796(16) 0.59468(16) -0.45057(13)
O2 O 0.81632(16) 0.75995(16) -0.61822(13)
O3 O 0.44365(16) 0.65075(17) -0.55445(14)
O4 O 0.62799(17) 0.77225(16) -0.71103(13)
O5 O 0.44569(17) 0.70008(17) -0.35478(14)
O6 O 0.31119(17) 0.59849(17) -0.26252(14)
O7 O 0.25054(16) 0.48680(17) -0.45610(14)
O8 O 0.90898(17) 0.60392(18) -0.68409(14)
O9 O 0.96582(17) 0.77202(18) -0.75654(15)
O10 O 0.78556(18) 0.83955(18) -0.87387(14)
O11 O 0.59151(18) 0.73102(19) -0.90778(14)
O12 O 0.3834(2) 0.6845(2) -0.01544(16)
O13 O 0.59739(16) 0.55114(16) -0.64218(13)
O14 O 0.71627(16) 0.63847(16) -0.77814(13)
N1 N 0.7756(2) 0.8150(2) -0.44531(16)
N2 N 0.6086(2) 0.8859(2) -0.54940(17)
N3 N 0.1014(3) 0.4732(3) -0.0827(2)
N4 N 0.8993(2) 0.9681(2) -0.71142(18)
N5 N 0.9263(3) 1.0409(3) -0.7654(2)
N6 N 0.9555(6) 1.1160(3) -0.8141(3)
N7 N 0.4961(2) 0.4735(2) -0.85755(18)
N8 N 0.4100(2) 0.4452(2) -0.91428(17)
N9 N 0.3282(3) 0.4143(3) -0.9681(2)
N10 N 0.4025(2) 0.6223(2) -0.78699(19)
N11 N 0.3039(2) 0.5464(2) -0.79217(18)
N12 N 0.2078(3) 0.4791(3) -0.7968(3)
C1 C 0.6680(2) 0.6337(2) -0.3670(2)
H1 H 0.7279 0.6034 -0.3672
H2 H 0.6246 0.6038 -0.3133
C2 C 0.7280(3) 0.7667(3) -0.3590(2)
H3 H 0.6706 0.7962 -0.3452
H4 H 0.7929 0.7935 -0.3073
C3 C 0.9173(2) 0.8198(3) -0.5516(2)
H5 H 0.9520 0.9044 -0.5615
H6 H 0.9773 0.7912 -0.5592
C4 C 0.8831(2) 0.7996(3) -0.4544(2)
H7 H 0.8697 0.7195 -0.4386
H8 H 0.9488 0.8550 -0.4101
C5 C 0.7997(3) 0.9394(2) -0.4502(2)
H9 H 0.8483 0.9732 -0.5005
H10 H 0.8458 0.9820 -0.3915
C6 C 0.6885(3) 0.9568(3) -0.4670(2)
H11 H 0.6463 0.9352 -0.4119
H12 H 0.7099 1.0404 -0.4760
C7 C 0.3982(2) 0.7325(2) -0.5771(2)
H13 H 0.3225 0.7089 -0.5519
H14 H 0.3827 0.7327 -0.6451
C8 C 0.4833(2) 0.8553(2) -0.5386(2)
H15 H 0.4601 0.9122 -0.5704
H16 H 0.4765 0.8621 -0.4721
C9 C 0.5949(3) 0.8658(2) -0.7214(2)
H17 H 0.5080 0.8346 -0.7310
H18 H 0.6261 0.9092 -0.7759
C10 C 0.6445(3) 0.9470(2) -0.6346(2)
H19 H 0.7316 0.9845 -0.6298
H20 H 0.6175 1.0093 -0.6401
C11 C 0.3917(2) 0.6919(3) -0.2861(2)
C12 C 0.4212(3) 0.8005(3) -0.2257(2)
H21 H 0.3567 0.8246 -0.2391
H22 H 0.4229 0.7798 -0.1604
C13 C 0.5363(3) 0.9042(3) -0.2362(2)
H23 H 0.5466 0.9692 -0.1942
H24 H 0.5352 0.9278 -0.3000
H25 H 0.6016 0.8829 -0.2210
C14 C 0.1608(3) 0.5118(3) -0.5038(3)
H26 H 0.0840 0.4563 -0.4880
H27 H 0.1621 0.5050 -0.5705
H28 H 0.1744 0.5914 -0.4858
C15 C 0.9844(2) 0.6918(3) -0.7216(2)
C16 C 1.1054(3) 0.6945(3) -0.7181(3)
H29 H 1.0976 0.6231 -0.7514
H30 H 1.1356 0.6925 -0.6528
C17 C 1.1945(3) 0.7991(3) -0.7589(3)
H31 H 1.2700 0.7941 -0.7539
H32 H 1.1669 0.8009 -0.8241
H33 H 1.2049 0.8704 -0.7253
C18 C 0.6895(3) 0.8043(3) -0.9276(2)
C19 C 0.6942(3) 0.8592(3) -1.0199(2)
H34 H 0.6477 0.9049 -1.0208
H35 H 0.6545 0.7956 -1.0687
C20 C 0.8087(5) 0.9342(7) -1.0442(5)
H36 H 0.8000 0.9644 -1.1049
H37 H 0.8488 0.9994 -0.9979
H38 H 0.8553 0.8897 -1.0465
C21 C 0.3243(4) 0.7441(4) 0.0205(3)
H39 H 0.3808 0.8110 0.0608
H40 H 0.2638 0.6911 0.0562
H41 H 0.2870 0.7715 -0.0304
C22 C 0.0657(3) 0.3959(4) -0.0397(3)
C23 C 0.0220(5) 0.2951(5) 0.0162(4)
H42 H -0.0582 0.2780 0.0279
H43 H 0.0733 0.3118 0.0751
H44 H 0.0215 0.2276 -0.0167
Mn2A Mn 0.57748(3) 0.44332(4) -0.54810(3)
Mn3A Mn 0.25362(4) 0.42902(4) -0.33316(3)
Na1A Na 0.69469(11) 0.48123(11) -0.88499(8)
Na1_2 Na 0.30531(11) 0.51877(11) -1.11501(8)
O1A O 0.41204(16) 0.40532(16) -0.54943(13)
O6A O 0.68881(17) 0.40151(17) -0.73748(14)
O7A O 0.74946(16) 0.51320(17) -0.54390(14)
O13A O 0.40261(16) 0.44886(16) -0.35782(13)
O14A O 0.28373(16) 0.36153(16) -0.22186(13)
N7A N 0.5039(2) 0.5265(2) -0.14245(18)
N9_2 N 0.3282(3) 0.4143(3) 0.0319(2)
N13 N 0.9288(4) 0.3488(4) 0.2731(4)
C24 C 0.8859(3) 0.2786(3) 0.3525(3)
C25 C 0.8540(3) 0.2264(3) 0.4124(3)
H45 H 0.9213 0.2316 0.4556
H46 H 0.8049 0.1447 0.3911
H47 H 0.8073 0.2565 0.4436
loop_
_geom_bond_atom_site_label_1
_geom_bond_atom_site_label_2
_geom_bond_site_symmetry_1
_geom_bond_site_symmetry_2
Mn1 O1 1_555 1_555
Mn2 O1 1_555 1_555
Mn3 O2 1_555 1_555
Mn4 O2 1_555 1_555
Mn5 O4 1_555 1_555
Na1 O6 1_555 1_555
O1 C1 1_555 1_555
O2 Mn1 1_555 1_555
O3 Mn1 1_555 1_555
O4 Mn1 1_555 1_555
O5 Mn2 1_555 1_555
O6 C11 1_555 1_555
O7 Mn2 1_555 1_555
O8 Mn3 1_555 1_555
O9 Mn4 1_555 1_555
O10 Mn4 1_555 1_555
O11 Mn5 1_555 1_555
O12 Na1 1_555 1_555
O13 Mn1 1_555 1_555
O14 Mn3 1_555 1_555
N1 Mn1 1_555 1_555
N2 C6 1_555 1_555
N3 Na1 1_555 1_555
N4 Mn4 1_555 1_555
N5 N4 1_555 1_555
N6 N5 1_555 1_555
N7 Mn5 1_555 1_555
N8 N7 1_555 1_555
N9 N8 1_555 1_555
N10 Mn5 1_555 1_555
N11 N10 1_555 1_555
N12 N11 1_555 1_555
N13 C24 1_555 1_555
C1 H1 1_555 1_555
H2 C1 1_555 1_555
C2 N1 1_555 1_555
H3 C2 1_555 1_555
H4 C2 1_555 1_555
C3 O2 1_555 1_555
H5 C3 1_555 1_555
H6 C3 1_555 1_555
C4 N1 1_555 1_555
H7 C4 1_555 1_555
H8 C4 1_555 1_555
C5 N1 1_555 1_555
H9 C5 1_555 1_555
H10 C5 1_555 1_555
C6 C5 1_555 1_555
H11 C6 1_555 1_555
H12 C6 1_555 1_555
C7 O3 1_555 1_555
H13 C7 1_555 1_555
H14 C7 1_555 1_555
C8 N2 1_555 1_555
H15 C8 1_555 1_555
H16 C8 1_555 1_555
C9 O4 1_555 1_555
H17 C9 1_555 1_555
H18 C9 1_555 1_555
C10 N2 1_555 1_555
H19 C10 1_555 1_555
H20 C10 1_555 1_555
C11 O5 1_555 1_555
C12 C11 1_555 1_555
H21 C12 1_555 1_555
H22 C12 1_555 1_555
C13 C12 1_555 1_555
H23 C13 1_555 1_555
H24 C13 1_555 1_555
H25 C13 1_555 1_555
C14 O7 1_555 1_555
H26 C14 1_555 1_555
H27 C14 1_555 1_555
H28 C14 1_555 1_555
C15 O8 1_555 1_555
C16 C15 1_555 1_555
H29 C16 1_555 1_555
H30 C16 1_555 1_555
C17 C16 1_555 1_555
H31 C17 1_555 1_555
H32 C17 1_555 1_555
H33 C17 1_555 1_555
C18 O10 1_555 1_555
C19 C18 1_555 1_555
H34 C19 1_555 1_555
H35 C19 1_555 1_555
C20 C19 1_555 1_555
H36 C20 1_555 1_555
H37 C20 1_555 1_555
H38 C20 1_555 1_555
C21 O12 1_555 1_555
H39 C21 1_555 1_555
H40 C21 1_555 1_555
H41 C21 1_555 1_555
C22 N3 1_555 1_555
C23 C22 1_555 1_555
H42 C23 1_555 1_555
H43 C23 1_555 1_555
H44 C23 1_555 1_555
C24 C25 1_555 1_555
C25 H45 1_555 1_555
H46 C25 1_555 1_555
H47 C25 1_555 1_555
Mn2A O1 1_555 1_555
Mn3A O6 1_555 1_555
Na1A O14 1_555 1_555
Na1_2 N9 1_555 1_555
O1A Mn2 1_555 1_555
O6A Mn3 1_555 1_555
O7A Mn3 1_555 1_555
O13A Mn2 1_555 1_555
O14A Na1 1_555 1_555
N7A Na1 1_555 1_555
N9_2 Na1 1_555 1_555
Mn2 O3 1_555 1_555
Mn3 O13 1_555 1_555
Mn4 O4 1_555 1_555
Mn4 O14 1_555 1_555
Mn5 O13 1_555 1_555
Mn5 O14 1_555 1_555
O7 Mn3A 1_555 1_555
O9 C15 1_555 1_555
O11 C18 1_555 1_555
O13 Mn2A 1_555 1_555
N7 Na1A 1_555 1_555
C1 C2 1_555 1_555
C3 C4 1_555 1_555
C7 C8 1_555 1_555
C9 C10 1_555 1_555
Mn2A O1A 1_555 1_555
Mn2A O7A 1_555 1_555
Mn3A O13A 1_555 1_555
Mn3A O14A 1_555 1_555
Na1A O6A 1_555 1_555

#END
