
#######################################################################
#
#                 Cambridge Crystallographic Data Centre
#                                CCDC 
#
#######################################################################
#
# If this CIF has been generated from an entry in the Cambridge 
# Structural Database, then it will include bibliographic, chemical, 
# crystal, experimental, refinement or atomic coordinate data resulting 
# from the CCDC's data processing and validation procedures.
#
#######################################################################

data_BAYQAU04
_symmetry_cell_setting           orthorhombic
_symmetry_space_group_name_H-M   'P b c a'
_symmetry_Int_Tables_number      61
_space_group_name_Hall           '-P 2ac 2ab'
loop_
_symmetry_equiv_pos_site_id
_symmetry_equiv_pos_as_xyz
1 x,y,z
2 1/2+x,1/2-y,-z
3 -x,1/2+y,1/2-z
4 1/2-x,-y,1/2+z
5 -x,-y,-z
6 1/2-x,1/2+y,z
7 x,1/2-y,1/2+z
8 1/2+x,y,1/2-z
_cell_length_a                   14.8002(7)
_cell_length_b                   10.7012(5)
_cell_length_c                   9.9666(5)
_cell_angle_alpha                90
_cell_angle_beta                 90
_cell_angle_gamma                90
_cell_volume                     1578.51
loop_
_atom_site_label
_atom_site_type_symbol
_atom_site_fract_x
_atom_site_fract_y
_atom_site_fract_z
Cd1 Cd 0.11396(4) 0.02980(5) 0.79622(5)
N1 N 0.2290(4) 0.0494(6) 0.6550(6)
C1 C 0.2565(6) -0.0155(7) 0.5493(8)
N2 N 0.3270(4) 0.0322(6) 0.4881(6)
C2 C 0.3454(6) 0.1375(9) 0.5562(8)
C3 C 0.2856(6) 0.1484(8) 0.6560(9)
H1 H 0.2300 -0.0916 0.5266
H2 H 0.3922 0.1926 0.5333
H3 H 0.2812 0.2142 0.7153
N3 N 0.0672(4) 0.2240(5) 0.8080(7)
C4 C 0.0025(6) 0.2802(7) 0.7417(9)
N4 N -0.0100(4) 0.3992(6) 0.7706(7)
C5 C 0.0540(8) 0.4193(9) 0.8628(12)
C6 C 0.1009(7) 0.3153(8) 0.8857(11)
H4 H -0.0333 0.2401 0.6764
H5 H 0.0647 0.4955 0.9018
H6 H 0.1480 0.3041 0.9506
Cd1B Cd -0.11396(4) 0.52980(5) 0.70378(5)
Cd1C Cd 0.38604(4) -0.02980(5) 0.29622(5)
N2C N 0.1730(4) -0.0322(6) 0.9881(6)
N4B N 0.0100(4) -0.1008(6) 0.7294(7)
loop_
_geom_bond_atom_site_label_1
_geom_bond_atom_site_label_2
_geom_bond_site_symmetry_1
_geom_bond_site_symmetry_2
Cd1 N1 1_555 1_555
N1 C1 1_555 1_555
C1 N2 1_555 1_555
N2 C2 1_555 1_555
C2 C3 1_555 1_555
C3 N1 1_555 1_555
H1 C1 1_555 1_555
H2 C2 1_555 1_555
H3 C3 1_555 1_555
N3 Cd1 1_555 1_555
C4 N3 1_555 1_555
N4 C4 1_555 1_555
C5 N4 1_555 1_555
C6 N3 1_555 1_555
H4 C4 1_555 1_555
H5 C5 1_555 1_555
H6 C6 1_555 1_555
Cd1B N4 1_555 1_555
Cd1C N2 1_555 1_555
N2C Cd1 1_555 1_555
N4B Cd1 1_555 1_555
C5 C6 1_555 1_555

#END
