
#######################################################################
#
#                 Cambridge Crystallographic Data Centre
#                                CCDC 
#
#######################################################################
#
# If this CIF has been generated from an entry in the Cambridge 
# Structural Database, then it will include bibliographic, chemical, 
# crystal, experimental, refinement or atomic coordinate data resulting 
# from the CCDC's data processing and validation procedures.
#
#######################################################################

data_BAYQAU11
_symmetry_cell_setting           orthorhombic
_symmetry_space_group_name_H-M   'P b c a'
_symmetry_Int_Tables_number      61
_space_group_name_Hall           '-P 2ac 2ab'
loop_
_symmetry_equiv_pos_site_id
_symmetry_equiv_pos_as_xyz
1 x,y,z
2 1/2+x,1/2-y,-z
3 -x,1/2+y,1/2-z
4 1/2-x,-y,1/2+z
5 -x,-y,-z
6 1/2-x,1/2+y,z
7 x,1/2-y,1/2+z
8 1/2+x,y,1/2-z
_cell_length_a                   14.6090(5)
_cell_length_b                   10.7472(4)
_cell_length_c                   9.9276(4)
_cell_angle_alpha                90
_cell_angle_beta                 90
_cell_angle_gamma                90
_cell_volume                     1558.69
loop_
_atom_site_label
_atom_site_type_symbol
_atom_site_fract_x
_atom_site_fract_y
_atom_site_fract_z
Cd1 Cd 0.11211(2) 0.03213(3) 0.80146(4)
N1 N 0.2295(3) 0.0508(4) 0.6613(4)
C1 C 0.2582(4) -0.0164(5) 0.5572(5)
N2 N 0.3297(3) 0.0314(4) 0.4930(4)
C2 C 0.3471(4) 0.1385(5) 0.5608(5)
C3 C 0.2862(4) 0.1515(5) 0.6621(5)
H1 H 0.2317 -0.0925 0.5345
H2 H 0.3940 0.1936 0.5379
H3 H 0.2818 0.2174 0.7214
N3 N 0.0684(3) 0.2276(3) 0.8108(5)
C4 C 0.0035(4) 0.2840(5) 0.7411(6)
N4 N -0.0076(3) 0.4031(4) 0.7690(5)
C5 C 0.0571(5) 0.4234(5) 0.8637(7)
C6 C 0.1029(4) 0.3174(5) 0.8895(6)
H4 H -0.0323 0.2438 0.6758
H5 H 0.0678 0.4996 0.9027
H6 H 0.1500 0.3062 0.9544
Cd1B Cd -0.11211(2) 0.53213(3) 0.69854(4)
Cd1C Cd 0.38789(2) -0.03213(3) 0.30146(4)
N2C N 0.1703(3) -0.0314(4) 0.9930(4)
N4B N 0.0076(3) -0.0969(4) 0.7310(5)
loop_
_geom_bond_atom_site_label_1
_geom_bond_atom_site_label_2
_geom_bond_site_symmetry_1
_geom_bond_site_symmetry_2
Cd1 N1 1_555 1_555
N1 C1 1_555 1_555
C1 N2 1_555 1_555
N2 C2 1_555 1_555
C2 C3 1_555 1_555
C3 N1 1_555 1_555
H1 C1 1_555 1_555
H2 C2 1_555 1_555
H3 C3 1_555 1_555
N3 Cd1 1_555 1_555
C4 N3 1_555 1_555
N4 C4 1_555 1_555
C5 N4 1_555 1_555
C6 N3 1_555 1_555
H4 C4 1_555 1_555
H5 C5 1_555 1_555
H6 C6 1_555 1_555
Cd1B N4 1_555 1_555
Cd1C N2 1_555 1_555
N2C Cd1 1_555 1_555
N4B Cd1 1_555 1_555
C5 C6 1_555 1_555

#END
