
#######################################################################
#
#                 Cambridge Crystallographic Data Centre
#                                CCDC 
#
#######################################################################
#
# If this CIF has been generated from an entry in the Cambridge 
# Structural Database, then it will include bibliographic, chemical, 
# crystal, experimental, refinement or atomic coordinate data resulting 
# from the CCDC's data processing and validation procedures.
#
#######################################################################

data_BAYVUU
_symmetry_cell_setting           orthorhombic
_symmetry_space_group_name_H-M   'P 21 21 21'
_symmetry_Int_Tables_number      19
_space_group_name_Hall           'P 2ac 2ab'
loop_
_symmetry_equiv_pos_site_id
_symmetry_equiv_pos_as_xyz
1 x,y,z
2 1/2-x,-y,1/2+z
3 1/2+x,1/2-y,-z
4 -x,1/2+y,1/2-z
_cell_length_a                   10.3132(3)
_cell_length_b                   11.3906(4)
_cell_length_c                   17.1833(6)
_cell_angle_alpha                90
_cell_angle_beta                 90
_cell_angle_gamma                90
_cell_volume                     2018.58
loop_
_atom_site_label
_atom_site_type_symbol
_atom_site_fract_x
_atom_site_fract_y
_atom_site_fract_z
La1 La 0.62663(3) 0.33471(3) 0.710179(18)
Sb1 Sb 0.40501(4) 0.50452(4) 0.38374(2)
Sb2 Sb 0.03520(4) 0.62058(4) 0.57081(2)
O1 O 0.4834(4) 0.4253(4) 0.6141(2)
O2 O 0.4968(3) 0.5062(4) 0.4977(2)
O3 O 0.2758(4) 0.4179(3) 0.4479(2)
O4 O 0.2055(4) 0.5424(4) 0.5926(2)
O5 O -0.0053(4) 0.4398(4) 0.5395(2)
O6 O 0.0679(4) 0.2583(4) 0.5602(3)
O7 O 0.2357(4) 0.1021(4) 0.9899(2)
O8 O 0.3402(4) 0.2238(4) 1.0684(2)
O9 O 0.4403(4) 0.3536(4) 0.9570(2)
O10 O 0.4058(4) 0.3316(4) 0.7713(2)
O11 O 0.2653(4) 0.4690(4) 0.8075(2)
O12 O 0.1564(3) 0.3377(3) 0.9156(2)
O13 O 0.8458(4) 0.2190(4) 0.7064(4)
O14 O 0.8627(5) 0.3949(5) 0.7490(3)
O15 O 1.0334(5) 0.2827(6) 0.7464(3)
O16 O 0.7439(4) 0.3847(4) 0.5846(3)
O17 O 0.5516(4) 0.1628(4) 0.6280(2)
O18 O 0.6384(4) 0.5558(4) 0.7311(3)
O19 O 0.6372(4) 0.3743(4) 0.8534(2)
O20 O 0.6253(4) 0.1342(3) 0.7891(2)
N1 N 0.9184(5) 0.2986(7) 0.7342(3)
C1 C 0.4413(6) 0.4416(5) 0.5475(3)
C2 C 0.3157(5) 0.3857(5) 0.5236(3)
H1 H 0.3269 0.3003 0.5248
C3 C 0.2117(5) 0.4193(5) 0.5844(3)
H2 H 0.2371 0.3857 0.6347
C4 C 0.0833(6) 0.3640(6) 0.5600(3)
C5 C 0.3093(5) 0.1859(5) 1.0009(3)
C6 C 0.3707(5) 0.2522(5) 0.9319(3)
H3 H 0.4306 0.1994 0.9048
C7 C 0.2602(5) 0.2867(5) 0.8755(3)
H4 H 0.2287 0.2151 0.8501
C8 C 0.3149(5) 0.3668(5) 0.8133(3)
Sb1A Sb 0.09499(4) 0.49548(4) 0.88374(2)
Sb2A Sb 0.46480(4) 0.37942(4) 1.07081(2)
O8A O 0.1598(4) 0.7762(4) 0.5684(2)
O9A O 0.0597(4) 0.6464(4) 0.4570(2)
O11A O 0.2347(4) 0.5310(4) 0.3075(2)
O12A O 0.3436(3) 0.6623(3) 0.4156(2)
O21 O 0.2742(4) 0.1159(4) 0.6161(3)
loop_
_geom_bond_atom_site_label_1
_geom_bond_atom_site_label_2
_geom_bond_site_symmetry_1
_geom_bond_site_symmetry_2
La1 O1 1_555 1_555
Sb1 O2 1_555 1_555
Sb2 O4 1_555 1_555
O1 C1 1_555 1_555
O2 C1 1_555 1_555
O3 Sb1 1_555 1_555
O4 C3 1_555 1_555
O5 Sb2 1_555 1_555
O6 C4 1_555 1_555
O7 C5 1_555 1_555
O8 C5 1_555 1_555
O9 C6 1_555 1_555
O10 La1 1_555 1_555
O11 C8 1_555 1_555
O12 C7 1_555 1_555
O13 La1 1_555 1_555
O14 La1 1_555 1_555
O15 N1 1_555 1_555
O16 La1 1_555 1_555
O17 La1 1_555 1_555
O18 La1 1_555 1_555
O19 La1 1_555 1_555
O20 La1 1_555 1_555
N1 O13 1_555 1_555
C1 C2 1_555 1_555
C2 O3 1_555 1_555
H1 C2 1_555 1_555
C3 C2 1_555 1_555
H2 C3 1_555 1_555
C4 O5 1_555 1_555
C5 C6 1_555 1_555
C6 H3 1_555 1_555
C7 C6 1_555 1_555
H4 C7 1_555 1_555
C8 O10 1_555 1_555
Sb1A O11 1_555 1_555
Sb2A O8 1_555 1_555
O8A Sb2 1_555 1_555
O9A Sb2 1_555 1_555
O11A Sb1 1_555 1_555
O12A Sb1 1_555 1_555
O9 Sb2A 1_555 1_555
O12 Sb1A 1_555 1_555
O14 N1 1_555 1_555
C3 C4 1_555 1_555
C7 C8 1_555 1_555

#END
