
#######################################################################
#
#                 Cambridge Crystallographic Data Centre
#                                CCDC 
#
#######################################################################
#
# If this CIF has been generated from an entry in the Cambridge 
# Structural Database, then it will include bibliographic, chemical, 
# crystal, experimental, refinement or atomic coordinate data resulting 
# from the CCDC's data processing and validation procedures.
#
#######################################################################

data_BAYVOO
_symmetry_cell_setting           triclinic
_symmetry_space_group_name_H-M   'P 1'
_symmetry_Int_Tables_number      1
_space_group_name_Hall           'P 1'
loop_
_symmetry_equiv_pos_site_id
_symmetry_equiv_pos_as_xyz
1 x,y,z
_cell_length_a                   8.059(2)
_cell_length_b                   8.180(2)
_cell_length_c                   14.813(4)
_cell_angle_alpha                98.870(3)
_cell_angle_beta                 99.255(3)
_cell_angle_gamma                90.596(3)
_cell_volume                     951.653
loop_
_atom_site_label
_atom_site_type_symbol
_atom_site_fract_x
_atom_site_fract_y
_atom_site_fract_z
La1 La 0.55725(6) 0.15971(6) 0.72122(4)
La2 La -0.00983(6) -0.04634(5) 0.52464(4)
O1 O 0.6351(10) -0.1596(9) 0.6550(5)
O2 O 0.3395(9) -0.0338(8) 0.6137(4)
O3 O 0.2372(10) -0.2458(8) 0.5095(5)
O4 O 0.6640(9) -0.1294(8) 0.4760(5)
O5 O 0.7060(11) -0.5549(10) 0.4988(5)
O6 O 0.8931(10) -0.3457(9) 0.5115(5)
O7 O 0.4643(10) 0.4529(9) 0.7263(5)
O8 O 0.2892(11) 0.6601(10) 0.7312(5)
O9 O 0.2486(10) 0.2397(9) 0.7659(5)
O10 O 0.1122(9) 0.2628(8) 0.5860(4)
O11 O -0.1583(9) 0.1440(8) 0.6361(5)
O12 O -0.1869(10) 0.3629(9) 0.7374(5)
O25 O 0.6080(11) 0.3032(10) 0.8906(6)
O26 O 0.8216(12) 0.0350(10) 0.8183(6)
O27 O 0.4490(10) -0.0442(10) 0.8140(5)
O28 O 0.5004(11) 0.2278(10) 0.5555(5)
O29 O -0.1634(10) 0.1575(9) 0.4253(5)
O30 O 0.0405(12) -0.1299(10) 0.6880(6)
O31 O 0.2010(9) 0.0688(8) 0.4327(5)
O32 O -0.0578(10) -0.1763(10) 0.3538(5)
C1 C 0.3549(13) -0.1754(12) 0.5674(6)
C2 C 0.5211(15) -0.2561(13) 0.5832(7)
H1 H 0.5024 -0.3639 0.6017
C3 C 0.6009(13) -0.2845(11) 0.4948(6)
H2 H 0.5140 -0.3311 0.4428
C4 C 0.7461(14) -0.4046(12) 0.5012(7)
C5 C 0.3225(13) 0.5107(12) 0.7354(7)
C6 C 0.1830(13) 0.3977(12) 0.7469(7)
H3 H 0.1307 0.4485 0.7992
C7 C 0.0486(14) 0.3670(13) 0.6596(7)
H4 H 0.0203 0.4735 0.6397
C8 C -0.1087(13) 0.2862(12) 0.6780(7)
La1_2 La -0.44275(6) 0.15971(6) 0.72122(4)
La2_2 La 0.99017(6) -0.04634(5) 0.52464(4)
O4_2 O -0.3360(9) -0.1294(8) 0.4760(5)
O6_2 O -0.1069(10) -0.3457(9) 0.5115(5)
O11_2 O 0.8417(9) 0.1440(8) 0.6361(5)
O12_2 O 0.8131(10) 0.3629(9) 0.7374(5)
Sb1 Sb 0.54367(9) 0.29850(8) 0.23569(5)
Sb2 Sb 0.10352(9) 0.65356(8) 0.08010(5)
O13 O 0.7507(12) 0.6486(11) 0.1118(6)
O14 O 0.6624(10) 0.4050(9) 0.1376(5)
O15 O 0.4923(9) 0.5315(9) 0.2685(5)
O16 O 0.3715(10) 0.2269(9) 0.1229(5)
O17 O 0.3135(10) 0.2664(9) 0.2937(5)
O18 O 0.0495(11) 0.1582(10) 0.2564(5)
O19 O 0.1715(11) 0.7830(10) 0.2267(5)
O20 O 0.3934(11) 0.8928(10) 0.3289(5)
O21 O 0.3527(11) 0.6736(9) 0.0978(5)
O22 O 0.0864(10) 0.4568(9) 0.1405(5)
O23 O 0.1390(11) 0.4565(9) -0.0292(5)
O24 O 0.1237(11) 0.1844(10) -0.0688(6)
C9 C 0.6702(14) 0.5613(13) 0.1530(7)
C10 C 0.5734(15) 0.6464(14) 0.2251(8)
H5 H 0.6530 0.7162 0.2729
C11 C 0.4413(14) 0.7586(13) 0.1814(7)
H6 H 0.5002 0.8552 0.1680
C12 C 0.3305(15) 0.8177(14) 0.2516(8)
C13 C 0.1870(14) 0.2021(13) 0.2351(7)
C14 C 0.2034(14) 0.1875(13) 0.1328(7)
H7 H 0.1768 0.0722 0.1040
C15 C 0.0762(15) 0.2962(13) 0.0840(7)
H8 H -0.0375 0.2472 0.0772
C16 C 0.1196(15) 0.3105(13) -0.0121(7)
O33 O 0.9133(12) 0.4870(10) 0.3097(6)
O34 O 0.5487(12) 0.0658(12) 0.9963(6)
O35 O 0.1852(11) 0.4321(10) 0.4529(5)
O36 O 0.7851(15) 0.9913(13) 0.1363(7)
O37 O 0.5222(15) 0.6338(14) 0.9354(8)
O38 O 0.7605(13) 0.6916(12) 0.8084(7)
O39 O 0.154(2) 0.8147(18) 0.9157(10)
loop_
_geom_bond_atom_site_label_1
_geom_bond_atom_site_label_2
_geom_bond_site_symmetry_1
_geom_bond_site_symmetry_2
La1 O1 1_555 1_555
La2 O2 1_555 1_555
Sb1 O14 1_555 1_555
Sb2 O19 1_555 1_555
O1 C2 1_555 1_555
O2 La1 1_555 1_555
O3 La2 1_555 1_555
O4 C3 1_555 1_555
O5 C4 1_555 1_555
O6 C4 1_555 1_555
O7 La1 1_555 1_555
O8 C5 1_555 1_555
O9 La1 1_555 1_555
O10 La2 1_555 1_555
O11 La2 1_555 1_555
O12 C8 1_555 1_555
O13 C9 1_555 1_555
O14 C9 1_555 1_555
O15 Sb1 1_555 1_555
O16 Sb1 1_555 1_555
O17 Sb1 1_555 1_555
O18 C13 1_555 1_555
O19 C12 1_555 1_555
O20 C12 1_555 1_555
O21 Sb2 1_555 1_555
O22 Sb2 1_555 1_555
O23 Sb2 1_555 1_555
O24 C16 1_555 1_555
O25 La1 1_555 1_555
O26 La1 1_555 1_555
O27 La1 1_555 1_555
O28 La1 1_555 1_555
O29 La2 1_555 1_555
O30 La2 1_555 1_555
O31 La2 1_555 1_555
O32 La2 1_555 1_555
C1 O2 1_555 1_555
C2 C1 1_555 1_555
H1 C2 1_555 1_555
C3 C2 1_555 1_555
H2 C3 1_555 1_555
C4 C3 1_555 1_555
C5 O7 1_555 1_555
C6 O9 1_555 1_555
H3 C6 1_555 1_555
C7 O10 1_555 1_555
H4 C7 1_555 1_555
C8 O11 1_555 1_555
C9 C10 1_555 1_555
C10 O15 1_555 1_555
H5 C10 1_555 1_555
C11 O21 1_555 1_555
H6 C11 1_555 1_555
C12 C11 1_555 1_555
C13 O17 1_555 1_555
C14 O16 1_555 1_555
H7 C14 1_555 1_555
C15 O22 1_555 1_555
H8 C15 1_555 1_555
C16 O23 1_555 1_555
La1_2 O11 1_555 1_555
La2_2 O4 1_555 1_555
O4_2 La2 1_555 1_555
O6_2 La2 1_555 1_555
O11_2 La1 1_555 1_555
O12_2 La1 1_555 1_555
O3 C1 1_555 1_555
O6 La2_2 1_555 1_555
O12 La1_2 1_555 1_555
C5 C6 1_555 1_555
C6 C7 1_555 1_555
C7 C8 1_555 1_555
C10 C11 1_555 1_555
C13 C14 1_555 1_555
C14 C15 1_555 1_555
C15 C16 1_555 1_555
La2_2 O11_2 1_555 1_555

#END
