
#######################################################################
#
#                 Cambridge Crystallographic Data Centre
#                                CCDC 
#
#######################################################################
#
# If this CIF has been generated from an entry in the Cambridge 
# Structural Database, then it will include bibliographic, chemical, 
# crystal, experimental, refinement or atomic coordinate data resulting 
# from the CCDC's data processing and validation procedures.
#
#######################################################################

data_BAYXEG
_symmetry_cell_setting           orthorhombic
_symmetry_space_group_name_H-M   'P 21 21 21'
_symmetry_Int_Tables_number      19
_space_group_name_Hall           'P 2ac 2ab'
loop_
_symmetry_equiv_pos_site_id
_symmetry_equiv_pos_as_xyz
1 x,y,z
2 1/2-x,-y,1/2+z
3 1/2+x,1/2-y,-z
4 -x,1/2+y,1/2-z
_cell_length_a                   10.2675(3)
_cell_length_b                   11.2978(4)
_cell_length_c                   16.8401(6)
_cell_angle_alpha                90
_cell_angle_beta                 90
_cell_angle_gamma                90
_cell_volume                     1953.45
loop_
_atom_site_label
_atom_site_type_symbol
_atom_site_fract_x
_atom_site_fract_y
_atom_site_fract_z
Tb1 Tb 0.622780(17) 0.337176(16) 0.710521(11)
Sb1 Sb 0.40097(2) 0.50375(2) 0.383622(15)
Sb2 Sb 0.02675(3) 0.62000(2) 0.573782(16)
O1 O 0.4772(3) 0.4189(3) 0.6182(2)
O2 O 0.4916(3) 0.5044(3) 0.50020(19)
O3 O 0.2694(3) 0.4172(3) 0.44824(17)
O4 O 0.1975(3) 0.5416(3) 0.5952(2)
O5 O -0.0152(3) 0.4373(3) 0.5425(2)
O6 O 0.0608(4) 0.2540(3) 0.5620(2)
O7 O 0.2409(3) 0.1005(3) 0.9924(2)
O8 O 0.3481(3) 0.2226(3) 1.07255(19)
O9 O 0.4463(3) 0.3521(3) 0.95809(18)
O10 O 0.4135(3) 0.3300(3) 0.77035(18)
O11 O 0.2698(3) 0.4681(3) 0.80556(18)
O12 O 0.1606(3) 0.3378(3) 0.91645(17)
O13 O 0.8334(4) 0.2224(4) 0.7068(3)
O14 O 0.8510(4) 0.4008(4) 0.7459(3)
O15 O 1.0222(4) 0.2865(6) 0.7475(3)
O16 O 0.7318(3) 0.3811(3) 0.5881(2)
O17 O 0.5547(3) 0.1724(3) 0.6316(2)
O18 O 0.6307(4) 0.5467(3) 0.7279(2)
O19 O 0.6415(3) 0.3740(3) 0.84866(18)
O20 O 0.6214(3) 0.1416(3) 0.7892(2)
N1 N 0.9068(4) 0.3026(5) 0.7335(3)
C1 C 0.4356(4) 0.4385(4) 0.5505(3)
C2 C 0.3081(4) 0.3828(4) 0.5255(2)
H1 H 0.3186 0.2965 0.5263
C3 C 0.2053(4) 0.4166(4) 0.5875(2)
H2 H 0.2305 0.3827 0.6388
C4 C 0.0751(4) 0.3630(4) 0.5622(2)
C5 C 0.3146(4) 0.1843(4) 1.0031(3)
C6 C 0.3754(4) 0.2511(4) 0.9337(2)
H3 H 0.4350 0.1975 0.9059
C7 C 0.2646(4) 0.2853(4) 0.8762(2)
H4 H 0.2329 0.2129 0.8507
C8 C 0.3220(4) 0.3652(4) 0.8122(2)
Sb1A Sb 0.09903(2) 0.49625(2) 0.883622(15)
Sb2A Sb 0.47325(3) 0.38000(2) 1.073782(16)
O8A O 0.1519(3) 0.7774(3) 0.57255(19)
O9A O 0.0537(3) 0.6479(3) 0.45809(18)
O11A O 0.2302(3) 0.5319(3) 0.30556(18)
O12A O 0.3394(3) 0.6622(3) 0.41645(17)
O21 O 0.2777(4) 0.1168(4) 0.6197(3)
loop_
_geom_bond_atom_site_label_1
_geom_bond_atom_site_label_2
_geom_bond_site_symmetry_1
_geom_bond_site_symmetry_2
Tb1 O1 1_555 1_555
Sb1 O2 1_555 1_555
Sb2 O4 1_555 1_555
O1 C1 1_555 1_555
O2 C1 1_555 1_555
O3 Sb1 1_555 1_555
O4 C3 1_555 1_555
O5 Sb2 1_555 1_555
O6 C4 1_555 1_555
O7 C5 1_555 1_555
O8 C5 1_555 1_555
O9 C6 1_555 1_555
O10 Tb1 1_555 1_555
O11 C8 1_555 1_555
O12 C7 1_555 1_555
O13 Tb1 1_555 1_555
O14 Tb1 1_555 1_555
O15 N1 1_555 1_555
O16 Tb1 1_555 1_555
O17 Tb1 1_555 1_555
O18 Tb1 1_555 1_555
O19 Tb1 1_555 1_555
O20 Tb1 1_555 1_555
N1 O13 1_555 1_555
C1 C2 1_555 1_555
C2 O3 1_555 1_555
H1 C2 1_555 1_555
C3 C2 1_555 1_555
H2 C3 1_555 1_555
C4 O5 1_555 1_555
C5 C6 1_555 1_555
C6 H3 1_555 1_555
C7 C6 1_555 1_555
H4 C7 1_555 1_555
C8 O10 1_555 1_555
Sb1A O11 1_555 1_555
Sb2A O8 1_555 1_555
O8A Sb2 1_555 1_555
O9A Sb2 1_555 1_555
O11A Sb1 1_555 1_555
O12A Sb1 1_555 1_555
O9 Sb2A 1_555 1_555
O12 Sb1A 1_555 1_555
O14 N1 1_555 1_555
C3 C4 1_555 1_555
C7 C8 1_555 1_555

#END
