
#######################################################################
#
#                 Cambridge Crystallographic Data Centre
#                                CCDC 
#
#######################################################################
#
# If this CIF has been generated from an entry in the Cambridge 
# Structural Database, then it will include bibliographic, chemical, 
# crystal, experimental, refinement or atomic coordinate data resulting 
# from the CCDC's data processing and validation procedures.
#
#######################################################################

data_BAYXOQ
_symmetry_cell_setting           orthorhombic
_symmetry_space_group_name_H-M   'P 21 21 21'
_symmetry_Int_Tables_number      19
_space_group_name_Hall           'P 2ac 2ab'
loop_
_symmetry_equiv_pos_site_id
_symmetry_equiv_pos_as_xyz
1 x,y,z
2 1/2-x,-y,1/2+z
3 1/2+x,1/2-y,-z
4 -x,1/2+y,1/2-z
_cell_length_a                   10.2606(3)
_cell_length_b                   11.2852(4)
_cell_length_c                   16.7766(5)
_cell_angle_alpha                90
_cell_angle_beta                 90
_cell_angle_gamma                90
_cell_volume                     1942.61
loop_
_atom_site_label
_atom_site_type_symbol
_atom_site_fract_x
_atom_site_fract_y
_atom_site_fract_z
Ho1 Ho 0.622024(16) 0.337686(16) 0.710463(10)
Sb1 Sb 0.39993(2) 0.50368(2) 0.383455(15)
Sb2 Sb 0.02501(3) 0.61980(3) 0.574307(16)
O1 O 0.4757(3) 0.4176(3) 0.61923(18)
O2 O 0.4906(3) 0.5041(3) 0.50103(18)
O3 O 0.2679(3) 0.4169(3) 0.44804(17)
O4 O 0.1956(3) 0.5410(3) 0.59558(19)
O5 O -0.0172(3) 0.4367(3) 0.5429(2)
O6 O 0.0591(3) 0.2540(3) 0.5621(2)
O7 O 0.2423(3) 0.0999(3) 0.99290(19)
O8 O 0.3495(3) 0.2222(3) 1.07335(18)
O9 O 0.4481(3) 0.3523(3) 0.95818(16)
O10 O 0.4159(3) 0.3296(3) 0.77017(17)
O11 O 0.2713(3) 0.4679(3) 0.80488(17)
O12 O 0.1614(3) 0.3375(3) 0.91634(16)
O13 O 0.8303(4) 0.2242(4) 0.7068(3)
O14 O 0.8499(4) 0.4023(4) 0.7453(3)
O15 O 1.0203(4) 0.2867(6) 0.7472(3)
O16 O 0.7297(3) 0.3815(3) 0.58852(18)
O17 O 0.5554(3) 0.1740(3) 0.63264(19)
O18 O 0.6288(3) 0.5454(3) 0.72663(19)
O19 O 0.6421(3) 0.3742(3) 0.84773(17)
O20 O 0.6214(3) 0.1428(3) 0.78952(18)
N1 N 0.9047(4) 0.3039(5) 0.7334(2)
C1 C 0.4339(4) 0.4380(4) 0.5510(2)
C2 C 0.3061(4) 0.3820(4) 0.5258(2)
H1 H 0.3163 0.2957 0.5267
C3 C 0.2041(4) 0.4169(4) 0.5879(2)
H2 H 0.2297 0.3834 0.6395
C4 C 0.0742(4) 0.3614(4) 0.5628(2)
C5 C 0.3161(4) 0.1842(3) 1.0037(2)
C6 C 0.3764(4) 0.2512(4) 0.9337(2)
H3 H 0.4359 0.1974 0.9059
C7 C 0.2659(4) 0.2855(4) 0.8756(2)
H4 H 0.2343 0.2130 0.8498
C8 C 0.3232(4) 0.3658(4) 0.8114(2)
Sb1A Sb 0.10007(2) 0.49632(2) 0.883455(15)
Sb2A Sb 0.47499(3) 0.38020(3) 1.074307(16)
O8A O 0.1505(3) 0.7778(3) 0.57335(18)
O9A O 0.0519(3) 0.6477(3) 0.45818(16)
O11A O 0.2287(3) 0.5321(3) 0.30488(17)
O12A O 0.3386(3) 0.6625(3) 0.41634(16)
O21 O 0.2776(4) 0.1170(4) 0.6205(3)
loop_
_geom_bond_atom_site_label_1
_geom_bond_atom_site_label_2
_geom_bond_site_symmetry_1
_geom_bond_site_symmetry_2
Ho1 O1 1_555 1_555
Sb1 O2 1_555 1_555
Sb2 O4 1_555 1_555
O1 C1 1_555 1_555
O2 C1 1_555 1_555
O3 Sb1 1_555 1_555
O4 C3 1_555 1_555
O5 Sb2 1_555 1_555
O6 C4 1_555 1_555
O7 C5 1_555 1_555
O8 C5 1_555 1_555
O9 C6 1_555 1_555
O10 Ho1 1_555 1_555
O11 C8 1_555 1_555
O12 C7 1_555 1_555
O13 Ho1 1_555 1_555
O14 Ho1 1_555 1_555
O15 N1 1_555 1_555
O16 Ho1 1_555 1_555
O17 Ho1 1_555 1_555
O18 Ho1 1_555 1_555
O19 Ho1 1_555 1_555
O20 Ho1 1_555 1_555
N1 O13 1_555 1_555
C1 C2 1_555 1_555
C2 O3 1_555 1_555
H1 C2 1_555 1_555
C3 C2 1_555 1_555
H2 C3 1_555 1_555
C4 O5 1_555 1_555
C5 C6 1_555 1_555
C6 H3 1_555 1_555
C7 C6 1_555 1_555
H4 C7 1_555 1_555
C8 O10 1_555 1_555
Sb1A O11 1_555 1_555
Sb2A O8 1_555 1_555
O8A Sb2 1_555 1_555
O9A Sb2 1_555 1_555
O11A Sb1 1_555 1_555
O12A Sb1 1_555 1_555
O9 Sb2A 1_555 1_555
O12 Sb1A 1_555 1_555
O14 N1 1_555 1_555
C3 C4 1_555 1_555
C7 C8 1_555 1_555

#END
