
#######################################################################
#
#                 Cambridge Crystallographic Data Centre
#                                CCDC 
#
#######################################################################
#
# If this CIF has been generated from an entry in the Cambridge 
# Structural Database, then it will include bibliographic, chemical, 
# crystal, experimental, refinement or atomic coordinate data resulting 
# from the CCDC's data processing and validation procedures.
#
#######################################################################

data_BAYYAD
_symmetry_cell_setting           orthorhombic
_symmetry_space_group_name_H-M   'P 21 21 21'
_symmetry_Int_Tables_number      19
_space_group_name_Hall           'P 2ac 2ab'
loop_
_symmetry_equiv_pos_site_id
_symmetry_equiv_pos_as_xyz
1 x,y,z
2 1/2-x,-y,1/2+z
3 1/2+x,1/2-y,-z
4 -x,1/2+y,1/2-z
_cell_length_a                   10.2590(5)
_cell_length_b                   11.2557(6)
_cell_length_c                   16.6920(9)
_cell_angle_alpha                90
_cell_angle_beta                 90
_cell_angle_gamma                90
_cell_volume                     1927.46
loop_
_atom_site_label
_atom_site_type_symbol
_atom_site_fract_x
_atom_site_fract_y
_atom_site_fract_z
Tm1 Tm 0.620424(17) 0.337810(17) 0.710357(10)
Sb1 Sb 0.39838(3) 0.50402(3) 0.383358(17)
Sb2 Sb 0.02276(3) 0.61943(3) 0.574845(17)
O1 O 0.4729(3) 0.4154(3) 0.61984(19)
O2 O 0.4890(3) 0.5036(3) 0.50140(19)
O3 O 0.2660(3) 0.4158(3) 0.44752(18)
O4 O 0.1931(3) 0.5395(3) 0.5964(2)
O5 O -0.0192(3) 0.4353(3) 0.5427(2)
O6 O 0.0569(4) 0.2528(3) 0.5614(2)
O7 O 0.2443(3) 0.0993(3) 0.9940(2)
O8 O 0.3513(3) 0.2224(3) 1.07478(19)
O9 O 0.4498(3) 0.3516(3) 0.95826(17)
O10 O 0.4175(3) 0.3276(3) 0.77033(18)
O11 O 0.2729(3) 0.4669(3) 0.80480(18)
O12 O 0.1633(3) 0.3370(3) 0.91674(17)
O13 O 0.8282(4) 0.2263(4) 0.7078(3)
O14 O 0.8491(4) 0.4027(4) 0.7442(3)
O15 O 1.0177(4) 0.2863(6) 0.7470(3)
O16 O 0.7266(3) 0.3803(3) 0.58947(18)
O17 O 0.5553(3) 0.1747(3) 0.6341(2)
O18 O 0.6269(4) 0.5430(3) 0.7260(2)
O19 O 0.6435(3) 0.3738(4) 0.84636(19)
O20 O 0.6228(3) 0.1436(3) 0.7912(2)
N1 N 0.9040(4) 0.3046(5) 0.7334(3)
C1 C 0.4322(4) 0.4364(4) 0.5520(3)
C2 C 0.3034(4) 0.3822(4) 0.5268(3)
H1 H 0.3134 0.2956 0.5278
C3 C 0.1997(4) 0.4153(4) 0.5880(2)
H2 H 0.2246 0.3812 0.6398
C4 C 0.0723(4) 0.3607(4) 0.5627(3)
C5 C 0.3191(4) 0.1833(4) 1.0044(3)
C6 C 0.3778(4) 0.2502(4) 0.9336(2)
H3 H 0.4372 0.1964 0.9054
C7 C 0.2678(4) 0.2843(4) 0.8760(3)
H4 H 0.2360 0.2116 0.8503
C8 C 0.3245(4) 0.3651(4) 0.8111(2)
Sb1A Sb 0.10162(3) 0.49598(3) 0.883358(17)
Sb2A Sb 0.47724(3) 0.38057(3) 1.074845(17)
O8A O 0.1487(3) 0.7776(3) 0.57478(19)
O9A O 0.0502(3) 0.6484(3) 0.45826(17)
O11A O 0.2271(3) 0.5331(3) 0.30480(18)
O12A O 0.3367(3) 0.6630(3) 0.41674(17)
O21 O 0.2756(4) 0.1161(4) 0.6216(3)
loop_
_geom_bond_atom_site_label_1
_geom_bond_atom_site_label_2
_geom_bond_site_symmetry_1
_geom_bond_site_symmetry_2
Tm1 O1 1_555 1_555
Sb1 O2 1_555 1_555
Sb2 O4 1_555 1_555
O1 C1 1_555 1_555
O2 C1 1_555 1_555
O3 Sb1 1_555 1_555
O4 C3 1_555 1_555
O5 Sb2 1_555 1_555
O6 C4 1_555 1_555
O7 C5 1_555 1_555
O8 C5 1_555 1_555
O9 C6 1_555 1_555
O10 Tm1 1_555 1_555
O11 C8 1_555 1_555
O12 C7 1_555 1_555
O13 Tm1 1_555 1_555
O14 Tm1 1_555 1_555
O15 N1 1_555 1_555
O16 Tm1 1_555 1_555
O17 Tm1 1_555 1_555
O18 Tm1 1_555 1_555
O19 Tm1 1_555 1_555
O20 Tm1 1_555 1_555
N1 O13 1_555 1_555
C1 C2 1_555 1_555
C2 O3 1_555 1_555
H1 C2 1_555 1_555
C3 C2 1_555 1_555
H2 C3 1_555 1_555
C4 O5 1_555 1_555
C5 C6 1_555 1_555
C6 H3 1_555 1_555
C7 C6 1_555 1_555
H4 C7 1_555 1_555
C8 O10 1_555 1_555
Sb1A O11 1_555 1_555
Sb2A O8 1_555 1_555
O8A Sb2 1_555 1_555
O9A Sb2 1_555 1_555
O11A Sb1 1_555 1_555
O12A Sb1 1_555 1_555
O9 Sb2A 1_555 1_555
O12 Sb1A 1_555 1_555
O14 N1 1_555 1_555
C3 C4 1_555 1_555
C7 C8 1_555 1_555

#END
