
#######################################################################
#
#                 Cambridge Crystallographic Data Centre
#                                CCDC 
#
#######################################################################
#
# If this CIF has been generated from an entry in the Cambridge 
# Structural Database, then it will include bibliographic, chemical, 
# crystal, experimental, refinement or atomic coordinate data resulting 
# from the CCDC's data processing and validation procedures.
#
#######################################################################

data_BAYYOR
_symmetry_cell_setting           orthorhombic
_symmetry_space_group_name_H-M   'P 21 21 21'
_symmetry_Int_Tables_number      19
_space_group_name_Hall           'P 2ac 2ab'
loop_
_symmetry_equiv_pos_site_id
_symmetry_equiv_pos_as_xyz
1 x,y,z
2 1/2-x,-y,1/2+z
3 1/2+x,1/2-y,-z
4 -x,1/2+y,1/2-z
_cell_length_a                   10.2648(7)
_cell_length_b                   11.2869(8)
_cell_length_c                   16.7783(12)
_cell_angle_alpha                90
_cell_angle_beta                 90
_cell_angle_gamma                90
_cell_volume                     1943.9
loop_
_atom_site_label
_atom_site_type_symbol
_atom_site_fract_x
_atom_site_fract_y
_atom_site_fract_z
Y1 Y 0.62166(5) 0.33765(5) 0.71046(3)
Sb1 Sb 0.39971(3) 0.50366(3) 0.383486(19)
Sb2 Sb 0.02486(3) 0.61977(3) 0.57432(2)
O1 O 0.4751(3) 0.4167(3) 0.6187(2)
O2 O 0.4908(3) 0.5044(4) 0.50097(19)
O3 O 0.2682(3) 0.4168(3) 0.44768(18)
O4 O 0.1951(3) 0.5409(3) 0.5956(2)
O5 O -0.0163(3) 0.4355(3) 0.5424(2)
O6 O 0.0589(3) 0.2542(4) 0.5617(2)
O7 O 0.2430(3) 0.1011(4) 0.9933(2)
O8 O 0.3500(3) 0.2226(3) 1.0732(2)
O9 O 0.4485(3) 0.3528(3) 0.95784(19)
O10 O 0.4158(3) 0.3289(3) 0.7707(2)
O11 O 0.2713(3) 0.4667(3) 0.80493(19)
O12 O 0.1617(3) 0.3375(3) 0.9163(2)
O13 O 0.8302(4) 0.2247(4) 0.7069(3)
O14 O 0.8504(4) 0.4012(5) 0.7452(3)
O15 O 1.0195(4) 0.2868(5) 0.7478(3)
O16 O 0.7297(3) 0.3806(4) 0.58829(19)
O17 O 0.5551(3) 0.1732(3) 0.6321(2)
O18 O 0.6283(4) 0.5451(3) 0.7274(2)
O19 O 0.6425(3) 0.3733(4) 0.84816(19)
O20 O 0.6223(3) 0.1421(3) 0.7901(2)
N1 N 0.9049(5) 0.3038(6) 0.7334(3)
C1 C 0.4350(5) 0.4371(5) 0.5513(3)
C2 C 0.3057(5) 0.3819(5) 0.5257(3)
H1 H 0.3155 0.2956 0.5264
C3 C 0.2015(5) 0.4162(5) 0.5877(3)
H2 H 0.2269 0.3827 0.6393
C4 C 0.0737(5) 0.3609(5) 0.5630(3)
C5 C 0.3152(5) 0.1839(5) 1.0038(3)
C6 C 0.3764(5) 0.2512(5) 0.9333(3)
H3 H 0.4359 0.1973 0.9055
C7 C 0.2677(5) 0.2859(5) 0.8757(3)
H4 H 0.2364 0.2135 0.8498
C8 C 0.3232(5) 0.3661(5) 0.8117(3)
Sb1A Sb 0.10029(3) 0.49634(3) 0.883486(19)
Sb2A Sb 0.47514(3) 0.38023(3) 1.07432(2)
O8A O 0.1500(3) 0.7774(3) 0.5732(2)
O9A O 0.0515(3) 0.6472(3) 0.45784(19)
O11A O 0.2287(3) 0.5333(3) 0.30493(19)
O12A O 0.3383(3) 0.6625(3) 0.4163(2)
O21 O 0.2761(4) 0.1164(4) 0.6203(3)
loop_
_geom_bond_atom_site_label_1
_geom_bond_atom_site_label_2
_geom_bond_site_symmetry_1
_geom_bond_site_symmetry_2
Y1 O1 1_555 1_555
Sb1 O2 1_555 1_555
Sb2 O4 1_555 1_555
O1 C1 1_555 1_555
O2 C1 1_555 1_555
O3 Sb1 1_555 1_555
O4 C3 1_555 1_555
O5 Sb2 1_555 1_555
O6 C4 1_555 1_555
O7 C5 1_555 1_555
O8 C5 1_555 1_555
O9 C6 1_555 1_555
O10 Y1 1_555 1_555
O11 C8 1_555 1_555
O12 C7 1_555 1_555
O13 Y1 1_555 1_555
O14 Y1 1_555 1_555
O15 N1 1_555 1_555
O16 Y1 1_555 1_555
O17 Y1 1_555 1_555
O18 Y1 1_555 1_555
O19 Y1 1_555 1_555
O20 Y1 1_555 1_555
N1 O13 1_555 1_555
C1 C2 1_555 1_555
C2 O3 1_555 1_555
H1 C2 1_555 1_555
C3 C2 1_555 1_555
H2 C3 1_555 1_555
C4 O5 1_555 1_555
C5 C6 1_555 1_555
C6 H3 1_555 1_555
C7 C6 1_555 1_555
H4 C7 1_555 1_555
C8 O10 1_555 1_555
Sb1A O11 1_555 1_555
Sb2A O8 1_555 1_555
O8A Sb2 1_555 1_555
O9A Sb2 1_555 1_555
O11A Sb1 1_555 1_555
O12A Sb1 1_555 1_555
O9 Sb2A 1_555 1_555
O12 Sb1A 1_555 1_555
O14 N1 1_555 1_555
C3 C4 1_555 1_555
C7 C8 1_555 1_555

#END
