
#######################################################################
#
#                 Cambridge Crystallographic Data Centre
#                                CCDC 
#
#######################################################################
#
# If this CIF has been generated from an entry in the Cambridge 
# Structural Database, then it will include bibliographic, chemical, 
# crystal, experimental, refinement or atomic coordinate data resulting 
# from the CCDC's data processing and validation procedures.
#
#######################################################################

data_BAYYIL
_symmetry_cell_setting           orthorhombic
_symmetry_space_group_name_H-M   'P 21 21 21'
_symmetry_Int_Tables_number      19
_space_group_name_Hall           'P 2ac 2ab'
loop_
_symmetry_equiv_pos_site_id
_symmetry_equiv_pos_as_xyz
1 x,y,z
2 1/2-x,-y,1/2+z
3 1/2+x,1/2-y,-z
4 -x,1/2+y,1/2-z
_cell_length_a                   10.260(3)
_cell_length_b                   11.279(3)
_cell_length_c                   16.619(4)
_cell_angle_alpha                90
_cell_angle_beta                 90
_cell_angle_gamma                90
_cell_volume                     1923.19
loop_
_atom_site_label
_atom_site_type_symbol
_atom_site_fract_x
_atom_site_fract_y
_atom_site_fract_z
Lu1 Lu 0.61957(4) 0.33842(3) 0.70963(2)
Sb1 Sb 0.39698(7) 0.50421(5) 0.38290(3)
Sb2 Sb 0.02108(6) 0.61899(6) 0.57514(4)
O1 O 0.4723(7) 0.4123(6) 0.6201(3)
O2 O 0.4868(6) 0.5023(5) 0.5006(3)
O3 O 0.2629(7) 0.4165(5) 0.4476(3)
O4 O 0.1922(7) 0.5400(5) 0.5964(4)
O5 O -0.0215(7) 0.4347(5) 0.5433(4)
O6 O 0.0546(7) 0.2525(6) 0.5601(4)
O7 O 0.2457(7) 0.0986(6) 0.9947(4)
O8 O 0.3512(7) 0.2233(6) 1.0754(4)
O9 O 0.4529(6) 0.3504(6) 0.9585(3)
O10 O 0.4208(6) 0.3270(6) 0.7702(3)
O11 O 0.2739(7) 0.4662(5) 0.8026(4)
O12 O 0.1652(6) 0.3368(6) 0.9170(3)
O13 O 0.8225(8) 0.2280(7) 0.7098(5)
O14 O 0.8484(10) 0.4044(7) 0.7419(4)
O15 O 1.0142(9) 0.2862(9) 0.7481(4)
O16 O 0.7243(6) 0.3807(6) 0.5881(3)
O17 O 0.5549(6) 0.1768(5) 0.6341(3)
O18 O 0.6255(7) 0.5424(5) 0.7262(4)
O19 O 0.6442(7) 0.3725(6) 0.8460(4)
O20 O 0.6198(7) 0.1420(5) 0.7914(4)
N1 N 0.9005(10) 0.3063(9) 0.7330(5)
C1 C 0.4283(9) 0.4344(8) 0.5514(5)
C2 C 0.3025(9) 0.3815(8) 0.5261(5)
H1 H 0.3122 0.2950 0.5265
C3 C 0.1982(10) 0.4146(8) 0.5880(5)
H2 H 0.2226 0.3803 0.6400
C4 C 0.0701(10) 0.3607(8) 0.5617(5)
C5 C 0.3187(9) 0.1845(8) 1.0055(5)
C6 C 0.3786(10) 0.2494(7) 0.9342(5)
H3 H 0.4376 0.1944 0.9067
C7 C 0.2711(9) 0.2831(8) 0.8756(5)
H4 H 0.2394 0.2106 0.8496
C8 C 0.3287(9) 0.3648(9) 0.8103(5)
Sb1A Sb 0.10302(7) 0.49579(5) 0.88290(3)
Sb2A Sb 0.47892(6) 0.38101(6) 1.07514(4)
O8A O 0.1488(7) 0.7767(6) 0.5754(4)
O9A O 0.0471(6) 0.6496(6) 0.4585(3)
O11A O 0.2261(7) 0.5338(5) 0.3026(4)
O12A O 0.3348(6) 0.6632(6) 0.4170(3)
O21 O 0.2751(8) 0.1149(7) 0.6217(4)
loop_
_geom_bond_atom_site_label_1
_geom_bond_atom_site_label_2
_geom_bond_site_symmetry_1
_geom_bond_site_symmetry_2
Lu1 O1 1_555 1_555
Sb1 O2 1_555 1_555
Sb2 O4 1_555 1_555
O1 C1 1_555 1_555
O2 C1 1_555 1_555
O3 Sb1 1_555 1_555
O4 C3 1_555 1_555
O5 Sb2 1_555 1_555
O6 C4 1_555 1_555
O7 C5 1_555 1_555
O8 C5 1_555 1_555
O9 C6 1_555 1_555
O10 Lu1 1_555 1_555
O11 C8 1_555 1_555
O12 C7 1_555 1_555
O13 Lu1 1_555 1_555
O14 Lu1 1_555 1_555
O15 N1 1_555 1_555
O16 Lu1 1_555 1_555
O17 Lu1 1_555 1_555
O18 Lu1 1_555 1_555
O19 Lu1 1_555 1_555
O20 Lu1 1_555 1_555
N1 O13 1_555 1_555
C1 C2 1_555 1_555
C2 O3 1_555 1_555
H1 C2 1_555 1_555
C3 C2 1_555 1_555
H2 C3 1_555 1_555
C4 O5 1_555 1_555
C5 C6 1_555 1_555
C6 H3 1_555 1_555
C7 C6 1_555 1_555
H4 C7 1_555 1_555
C8 O10 1_555 1_555
Sb1A O11 1_555 1_555
Sb2A O8 1_555 1_555
O8A Sb2 1_555 1_555
O9A Sb2 1_555 1_555
O11A Sb1 1_555 1_555
O12A Sb1 1_555 1_555
O9 Sb2A 1_555 1_555
O12 Sb1A 1_555 1_555
O14 N1 1_555 1_555
C3 C4 1_555 1_555
C7 C8 1_555 1_555

#END
