
#######################################################################
#
#                 Cambridge Crystallographic Data Centre
#                                CCDC 
#
#######################################################################
#
# If this CIF has been generated from an entry in the Cambridge 
# Structural Database, then it will include bibliographic, chemical, 
# crystal, experimental, refinement or atomic coordinate data resulting 
# from the CCDC's data processing and validation procedures.
#
#######################################################################

data_BAYYEH
_symmetry_cell_setting           orthorhombic
_symmetry_space_group_name_H-M   'P 21 21 21'
_symmetry_Int_Tables_number      19
_space_group_name_Hall           'P 2ac 2ab'
loop_
_symmetry_equiv_pos_site_id
_symmetry_equiv_pos_as_xyz
1 x,y,z
2 1/2-x,-y,1/2+z
3 1/2+x,1/2-y,-z
4 -x,1/2+y,1/2-z
_cell_length_a                   10.2511(3)
_cell_length_b                   11.2635(4)
_cell_length_c                   16.6615(6)
_cell_angle_alpha                90
_cell_angle_beta                 90
_cell_angle_gamma                90
_cell_volume                     1923.79
loop_
_atom_site_label
_atom_site_type_symbol
_atom_site_fract_x
_atom_site_fract_y
_atom_site_fract_z
Yb1 Yb 0.62020(2) 0.33786(2) 0.710096(16)
Sb1 Sb 0.39801(4) 0.50419(4) 0.38318(3)
Sb2 Sb 0.02190(4) 0.61923(4) 0.57491(3)
O1 O 0.4730(4) 0.4136(4) 0.6196(3)
O2 O 0.4889(4) 0.5032(4) 0.5013(3)
O3 O 0.2655(4) 0.4165(4) 0.4478(3)
O4 O 0.1927(4) 0.5394(4) 0.5963(3)
O5 O -0.0201(4) 0.4348(4) 0.5432(3)
O6 O 0.0567(5) 0.2526(4) 0.5608(3)
O7 O 0.2442(4) 0.0992(4) 0.9949(3)
O8 O 0.3517(4) 0.2232(4) 1.0751(3)
O9 O 0.4507(4) 0.3509(4) 0.9584(3)
O10 O 0.4177(4) 0.3269(4) 0.7702(3)
O11 O 0.2725(4) 0.4663(4) 0.8046(3)
O12 O 0.1641(4) 0.3367(4) 0.9168(3)
O13 O 0.8267(5) 0.2263(5) 0.7088(4)
O14 O 0.8498(6) 0.4038(6) 0.7441(4)
O15 O 1.0176(5) 0.2853(7) 0.7470(4)
O16 O 0.7259(4) 0.3812(5) 0.5896(3)
O17 O 0.5556(4) 0.1757(4) 0.6338(3)
O18 O 0.6268(5) 0.5422(4) 0.7262(3)
O19 O 0.6448(5) 0.3733(5) 0.8456(3)
O20 O 0.6218(4) 0.1423(4) 0.7914(3)
N1 N 0.9037(6) 0.3044(6) 0.7333(4)
C1 C 0.4315(6) 0.4363(6) 0.5510(4)
C2 C 0.3024(6) 0.3825(6) 0.5263(4)
H1 H 0.3122 0.2960 0.5269
C3 C 0.1989(6) 0.4151(5) 0.5874(4)
H2 H 0.2241 0.3808 0.6392
C4 C 0.0706(6) 0.3604(6) 0.5625(4)
C5 C 0.3188(5) 0.1844(5) 1.0054(4)
C6 C 0.3783(6) 0.2492(5) 0.9345(4)
H3 H 0.4378 0.1946 0.9070
C7 C 0.2674(6) 0.2825(6) 0.8755(4)
H4 H 0.2352 0.2100 0.8497
C8 C 0.3248(6) 0.3645(5) 0.8111(4)
Sb1A Sb 0.10199(4) 0.49581(4) 0.88318(3)
Sb2A Sb 0.47810(4) 0.38077(4) 1.07491(3)
O8A O 0.1483(4) 0.7768(4) 0.5751(3)
O9A O 0.0493(4) 0.6491(4) 0.4584(3)
O11A O 0.2275(4) 0.5337(4) 0.3046(3)
O12A O 0.3359(4) 0.6633(4) 0.4168(3)
O21 O 0.2761(5) 0.1150(5) 0.6208(4)
loop_
_geom_bond_atom_site_label_1
_geom_bond_atom_site_label_2
_geom_bond_site_symmetry_1
_geom_bond_site_symmetry_2
Yb1 O1 1_555 1_555
Sb1 O2 1_555 1_555
Sb2 O4 1_555 1_555
O1 C1 1_555 1_555
O2 C1 1_555 1_555
O3 Sb1 1_555 1_555
O4 C3 1_555 1_555
O5 Sb2 1_555 1_555
O6 C4 1_555 1_555
O7 C5 1_555 1_555
O8 C5 1_555 1_555
O9 C6 1_555 1_555
O10 Yb1 1_555 1_555
O11 C8 1_555 1_555
O12 C7 1_555 1_555
O13 Yb1 1_555 1_555
O14 Yb1 1_555 1_555
O15 N1 1_555 1_555
O16 Yb1 1_555 1_555
O17 Yb1 1_555 1_555
O18 Yb1 1_555 1_555
O19 Yb1 1_555 1_555
O20 Yb1 1_555 1_555
N1 O13 1_555 1_555
C1 C2 1_555 1_555
C2 O3 1_555 1_555
H1 C2 1_555 1_555
C3 C2 1_555 1_555
H2 C3 1_555 1_555
C4 O5 1_555 1_555
C5 C6 1_555 1_555
C6 H3 1_555 1_555
C7 C6 1_555 1_555
H4 C7 1_555 1_555
C8 O10 1_555 1_555
Sb1A O11 1_555 1_555
Sb2A O8 1_555 1_555
O8A Sb2 1_555 1_555
O9A Sb2 1_555 1_555
O11A Sb1 1_555 1_555
O12A Sb1 1_555 1_555
O9 Sb2A 1_555 1_555
O12 Sb1A 1_555 1_555
O14 N1 1_555 1_555
C3 C4 1_555 1_555
C7 C8 1_555 1_555

#END
