
#######################################################################
#
#                 Cambridge Crystallographic Data Centre
#                                CCDC 
#
#######################################################################
#
# If this CIF has been generated from an entry in the Cambridge 
# Structural Database, then it will include bibliographic, chemical, 
# crystal, experimental, refinement or atomic coordinate data resulting 
# from the CCDC's data processing and validation procedures.
#
#######################################################################

data_BAYZIM
_symmetry_cell_setting           monoclinic
_symmetry_space_group_name_H-M   'C 2'
_symmetry_Int_Tables_number      5
_space_group_name_Hall           'C 2y'
loop_
_symmetry_equiv_pos_site_id
_symmetry_equiv_pos_as_xyz
1 x,y,z
2 -x,y,-z
3 1/2+x,1/2+y,z
4 1/2-x,1/2+y,-z
_cell_length_a                   22.7141(10)
_cell_length_b                   8.5147(4)
_cell_length_c                   14.0115(6)
_cell_angle_alpha                90
_cell_angle_beta                 105.6590(10)
_cell_angle_gamma                90
_cell_volume                     2609.3
loop_
_atom_site_label
_atom_site_type_symbol
_atom_site_fract_x
_atom_site_fract_y
_atom_site_fract_z
La1 La 0.128141(15) 0.52789(4) 0.27841(3)
Sb1 Sb 0.40523(2) 0.75256(6) 0.40191(3)
Sb2 Sb 0.31198(3) 1.13014(10) 0.12211(5)
Sb3 Sb -0.075092(19) -0.00307(5) 0.10732(3)
O1 O 0.2167(3) 0.7169(9) 0.2964(4)
O2 O 0.3096(2) 0.7589(8) 0.3979(4)
O3 O 0.3673(2) 0.7177(7) 0.2606(4)
O4 O 0.2724(2) 0.9614(7) 0.1811(4)
O5 O 0.3119(3) 0.6663(14) 0.0285(5)
O6 O 0.3331(3) 0.9256(13) 0.0473(5)
O7 O 0.3094(3) 1.2613(8) 0.2560(7)
O8 O 0.3969(2) 1.1114(9) 0.2048(4)
O9 O 0.3692(5) 1.3693(11) 0.3897(8)
O10 O 0.5364(2) 1.0596(7) 0.3459(4)
O11 O 0.3948(2) 0.9841(6) 0.4020(3)
O12 O 0.4855(2) 0.8387(6) 0.3597(4)
O13 O 0.0427(3) 0.3749(7) 0.1722(4)
O14 O 0.0013(2) 0.1412(6) 0.1880(4)
O15 O -0.0634(2) 0.1339(6) 0.0009(3)
O16 O -0.0089(2) -0.1557(6) 0.1029(4)
O17 O -0.1195(2) -0.1506(6) -0.0171(4)
O18 O -0.1058(2) -0.3574(7) -0.1041(4)
O19 O 0.1130(3) 0.2574(8) 0.3605(5)
O20 O 0.1743(3) 0.3691(9) 0.1627(4)
O21 O 0.2290(3) 0.3894(11) 0.3650(5)
O22 O 0.1639(3) 0.5916(8) 0.4622(4)
O23 O 0.0890(3) 0.8177(7) 0.2696(5)
C1 C 0.2725(3) 0.7260(10) 0.3135(6)
C2 C 0.3029(3) 0.6956(9) 0.2302(6)
H1 H 0.2943 0.5872 0.2072
C3 C 0.2727(3) 0.8076(11) 0.1443(6)
H2 H 0.2305 0.7737 0.1143
C4 C 0.3094(3) 0.7923(16) 0.0682(6)
C5 C 0.3606(4) 1.2830(11) 0.3161(9)
C6 C 0.4131(4) 1.1909(10) 0.2931(6)
H3 H 0.4448 1.2668 0.2893
C7 C 0.4403(3) 1.0832(8) 0.3818(5)
H4 H 0.4577 1.1484 0.4402
C8 C 0.4915(3) 0.9851(9) 0.3595(5)
C9 C 0.0096(3) 0.2615(8) 0.1391(5)
C10 C -0.0244(3) 0.2622(8) 0.0294(4)
H5 H -0.0484 0.3590 0.0144
C11 C -0.0867(3) -0.2623(8) -0.0362(5)
C12 C -0.0227(3) -0.2767(7) 0.0320(5)
H6 H -0.0194 -0.3775 0.0668
La1A La -0.128141(15) 0.52789(4) -0.27841(3)
La1_2 La 0.128141(15) -0.47211(4) 0.27841(3)
La1A_2 La -0.128141(15) -0.47211(4) -0.27841(3)
La1B La 0.628141(15) 1.02789(4) 0.27841(3)
La1C La -0.628141(15) 1.02789(4) -0.27841(3)
Sb1A Sb -0.40523(2) 0.75256(6) -0.40191(3)
Sb2A Sb -0.31198(3) 1.13014(10) -0.12211(5)
Sb3A Sb 0.075092(19) -0.00307(5) -0.10732(3)
O1A O -0.2167(3) 0.7169(9) -0.2964(4)
O2A O -0.3096(2) 0.7589(8) -0.3979(4)
O3A O -0.3673(2) 0.7177(7) -0.2606(4)
O4A O -0.2724(2) 0.9614(7) -0.1811(4)
O5A O -0.3119(3) 0.6663(14) -0.0285(5)
O6A O -0.3331(3) 0.9256(13) -0.0473(5)
O7A O -0.3094(3) 1.2613(8) -0.2560(7)
O8A O -0.3969(2) 1.1114(9) -0.2048(4)
O9A O -0.3692(5) 1.3693(11) -0.3897(8)
O10A O -0.5364(2) 1.0596(7) -0.3459(4)
O10B O 0.0364(2) 0.5596(7) 0.3459(4)
O10C O -0.0364(2) 0.5596(7) -0.3459(4)
O11A O -0.3948(2) 0.9841(6) -0.4020(3)
O12A O -0.4855(2) 0.8387(6) -0.3597(4)
O13A O -0.0427(3) 0.3749(7) -0.1722(4)
O14A O -0.0013(2) 0.1412(6) -0.1880(4)
O15A O 0.0634(2) 0.1339(6) -0.0009(3)
O16A O 0.0089(2) -0.1557(6) -0.1029(4)
O17A O 0.1195(2) -0.1506(6) 0.0171(4)
O18A O 0.1058(2) -0.3574(7) 0.1041(4)
O18_2 O -0.1058(2) 0.6426(7) -0.1041(4)
O18A_2 O 0.1058(2) 0.6426(7) 0.1041(4)
O19A O -0.1130(3) 0.2574(8) -0.3605(5)
O20A O -0.1743(3) 0.3691(9) -0.1627(4)
O21A O -0.2290(3) 0.3894(11) -0.3650(5)
O22A O -0.1639(3) 0.5916(8) -0.4622(4)
O23A O -0.0890(3) 0.8177(7) -0.2696(5)
C1A C -0.2725(3) 0.7260(10) -0.3135(6)
C2A C -0.3029(3) 0.6956(9) -0.2302(6)
H1A H -0.2943 0.5872 -0.2072
C3A C -0.2727(3) 0.8076(11) -0.1443(6)
H2A H -0.2305 0.7737 -0.1143
C4A C -0.3094(3) 0.7923(16) -0.0682(6)
C5A C -0.3606(4) 1.2830(11) -0.3161(9)
C6A C -0.4131(4) 1.1909(10) -0.2931(6)
H3A H -0.4448 1.2668 -0.2893
C7A C -0.4403(3) 1.0832(8) -0.3818(5)
H4A H -0.4577 1.1484 -0.4402
C8A C -0.4915(3) 0.9851(9) -0.3595(5)
C9A C -0.0096(3) 0.2615(8) -0.1391(5)
C10A C 0.0244(3) 0.2622(8) -0.0294(4)
H5A H 0.0484 0.3590 -0.0144
C11A C 0.0867(3) -0.2623(8) 0.0362(5)
C12A C 0.0227(3) -0.2767(7) -0.0320(5)
H6A H 0.0194 -0.3775 -0.0668
O24 O 0.1549(3) 0.0546(9) 0.1983(6)
O25 O 0.2956(7) 0.4842(19) 0.5480(11)
O26 O 0.4625(8) 1.4336(18) 0.5722(10)
loop_
_geom_bond_atom_site_label_1
_geom_bond_atom_site_label_2
_geom_bond_site_symmetry_1
_geom_bond_site_symmetry_2
La1 O1 1_555 1_555
Sb1 O2 1_555 1_555
Sb2 O4 1_555 1_555
Sb3 O14 1_555 1_555
O1 C1 1_555 1_555
O2 C1 1_555 1_555
O3 Sb1 1_555 1_555
O4 C3 1_555 1_555
O5 C4 1_555 1_555
O6 Sb2 1_555 1_555
O7 Sb2 1_555 1_555
O8 Sb2 1_555 1_555
O9 C5 1_555 1_555
O10 C8 1_555 1_555
O11 Sb1 1_555 1_555
O12 Sb1 1_555 1_555
O13 La1 1_555 1_555
O14 C9 1_555 1_555
O15 Sb3 1_555 1_555
O16 Sb3 1_555 1_555
O17 Sb3 1_555 1_555
O18 C11 1_555 1_555
O19 La1 1_555 1_555
O20 La1 1_555 1_555
O21 La1 1_555 1_555
O22 La1 1_555 1_555
O23 La1 1_555 1_555
C1 C2 1_555 1_555
C2 O3 1_555 1_555
H1 C2 1_555 1_555
C3 C2 1_555 1_555
H2 C3 1_555 1_555
C4 O6 1_555 1_555
C5 O7 1_555 1_555
C6 O8 1_555 1_555
H3 C6 1_555 1_555
C7 O11 1_555 1_555
H4 C7 1_555 1_555
C8 O12 1_555 1_555
C9 O13 1_555 1_555
C10 O15 1_555 1_555
H5 C10 1_555 1_555
C11 O17 1_555 1_555
C12 O16 1_555 1_555
H6 C12 1_555 1_555
La1A O1A 1_555 1_555
La1_2 O18A 1_555 1_555
La1A_2 O18 1_555 1_555
La1B O10 1_555 1_555
La1C O10A 1_555 1_555
Sb1A O2A 1_555 1_555
Sb2A O4A 1_555 1_555
Sb3A O14A 1_555 1_555
O1A C1A 1_555 1_555
O2A C1A 1_555 1_555
O3A Sb1A 1_555 1_555
O4A C3A 1_555 1_555
O5A C4A 1_555 1_555
O6A Sb2A 1_555 1_555
O7A Sb2A 1_555 1_555
O8A Sb2A 1_555 1_555
O9A C5A 1_555 1_555
O10A C8A 1_555 1_555
O10B La1 1_555 1_555
O10C La1A 1_555 1_555
O11A Sb1A 1_555 1_555
O12A Sb1A 1_555 1_555
O13A La1A 1_555 1_555
O14A C9A 1_555 1_555
O15A Sb3A 1_555 1_555
O16A Sb3A 1_555 1_555
O17A Sb3A 1_555 1_555
O18A C11A 1_555 1_555
O18_2 La1A 1_555 1_555
O18A_2 La1 1_555 1_555
O19A La1A 1_555 1_555
O20A La1A 1_555 1_555
O21A La1A 1_555 1_555
O22A La1A 1_555 1_555
O23A La1A 1_555 1_555
C1A C2A 1_555 1_555
C2A O3A 1_555 1_555
H1A C2A 1_555 1_555
C3A C2A 1_555 1_555
H2A C3A 1_555 1_555
C4A O6A 1_555 1_555
C5A O7A 1_555 1_555
C6A O8A 1_555 1_555
H3A C6A 1_555 1_555
C7A O11A 1_555 1_555
H4A C7A 1_555 1_555
C8A O12A 1_555 1_555
C9A O13A 1_555 1_555
C10A C10 1_555 1_555
H5A C10A 1_555 1_555
C11A O17A 1_555 1_555
C12A C12 1_555 1_555
H6A C12A 1_555 1_555
C3 C4 1_555 1_555
C5 C6 1_555 1_555
C6 C7 1_555 1_555
C7 C8 1_555 1_555
C9 C10 1_555 1_555
C11 C12 1_555 1_555
O15A C10A 1_555 1_555
O16A C12A 1_555 1_555
C3A C4A 1_555 1_555
C5A C6A 1_555 1_555
C6A C7A 1_555 1_555
C7A C8A 1_555 1_555
C9A C10A 1_555 1_555
C11A C12A 1_555 1_555

#END
