
#######################################################################
#
#                 Cambridge Crystallographic Data Centre
#                                CCDC 
#
#######################################################################
#
# If this CIF has been generated from an entry in the Cambridge 
# Structural Database, then it will include bibliographic, chemical, 
# crystal, experimental, refinement or atomic coordinate data resulting 
# from the CCDC's data processing and validation procedures.
#
#######################################################################

data_BAYZAE
_symmetry_cell_setting           monoclinic
_symmetry_space_group_name_H-M   'P 21'
_symmetry_Int_Tables_number      4
_space_group_name_Hall           'P 2yb'
loop_
_symmetry_equiv_pos_site_id
_symmetry_equiv_pos_as_xyz
1 x,y,z
2 -x,1/2+y,-z
_cell_length_a                   8.475(3)
_cell_length_b                   26.271(8)
_cell_length_c                   12.204(4)
_cell_angle_alpha                90
_cell_angle_beta                 110.32
_cell_angle_gamma                90
_cell_volume                     2548.08
loop_
_atom_site_label
_atom_site_type_symbol
_atom_site_fract_x
_atom_site_fract_y
_atom_site_fract_z
Ce1 Ce 0.37081(5) 0.797009(15) 0.81969(3)
Ce2 Ce 0.20180(5) 0.511402(15) 0.49851(3)
Sb1 Sb -0.34138(6) 0.708610(19) 0.46606(4)
Sb2 Sb -0.16195(6) 0.598580(19) 0.83675(4)
Sb3 Sb 0.14484(6) 0.449560(19) -0.02243(4)
Sb4 Sb 0.58024(8) 0.59309(2) 0.07375(5)
Sb5 Sb 0.87984(6) 0.85726(2) 1.33196(4)
Sb6 Sb 1.22730(7) 0.72541(2) 1.22553(5)
O1 O 0.1306(8) 0.7466(2) 0.6957(6)
O2 O -0.1406(7) 0.7525(2) 0.5938(5)
O3 O -0.1708(7) 0.6553(2) 0.5299(5)
O4 O -0.0753(7) 0.5593(2) 0.7113(5)
O5 O -0.0510(7) 0.6540(2) 0.7835(4)
O6 O 0.1156(8) 0.5682(3) 0.6268(6)
O7 O 0.4841(7) 0.6448(2) 0.4177(5)
O8 O 0.3124(7) 0.5984(2) 0.4780(5)
O9 O 0.5697(6) 0.7071(2) 0.5965(4)
O10 O 0.7108(7) 0.6621(2) 0.8839(5)
O11 O 0.4698(8) 0.7053(2) 0.8255(6)
O12 O 0.6234(6) 0.6020(2) 0.7003(4)
O13 O 0.2422(8) 0.4527(2) 0.1694(5)
O14 O 0.2725(8) 0.5046(2) 0.3176(5)
O15 O 0.1240(7) 0.5226(2) 0.0076(4)
O16 O 0.3368(10) 0.6312(3) 0.0031(6)
O17 O 0.0973(9) 0.6429(2) 0.0391(5)
O18 O 0.4578(7) 0.5627(2) 0.1677(5)
O19 O 0.3228(7) 0.4798(2) 0.7089(5)
O20 O 0.1500(7) 0.4716(2) 0.8085(5)
O21 O 0.3909(6) 0.4510(2) 1.0073(4)
O22 O 0.7402(8) 0.5257(3) 1.1313(6)
O23 O 0.7999(8) 0.4518(3) 1.0685(7)
O24 O 0.4981(8) 0.5499(2) 0.9344(5)
O25 O 0.7781(7) 0.8544(2) 1.1394(5)
O26 O 0.6322(8) 0.8039(3) 0.9942(5)
O27 O 0.8289(8) 0.7845(2) 1.3019(5)
O28 O 1.0797(9) 0.6807(2) 1.2970(5)
O29 O 0.8123(10) 0.6653(3) 1.2809(6)
O30 O 0.9994(7) 0.7527(2) 1.1373(5)
O31 O 0.0457(7) 0.8306(2) 0.5016(5)
O32 O 0.3169(7) 0.8210(2) 0.6095(5)
O33 O 0.1051(7) 0.8609(2) 0.3151(4)
O34 O 0.3224(7) 0.8005(3) 0.1860(5)
O35 O 0.4718(9) 0.8671(3) 0.2801(6)
O36 O 0.2839(8) 0.7631(2) 0.3755(5)
O37 O 0.0872(9) 0.8497(3) 0.7344(6)
O38 O 0.2922(9) 0.8469(3) 0.9714(5)
O39 O 0.4494(8) 0.8880(2) 0.8088(5)
O40 O 0.6290(7) 0.7864(2) 0.7557(5)
O41 O 0.2805(8) 0.7409(2) 0.9554(5)
O42 O 0.5237(8) 0.5164(3) 0.5729(5)
O43 O 0.3228(9) 0.4230(2) 0.5130(5)
O44 O -0.0259(9) 0.4593(3) 0.3341(6)
O45 O -0.0389(8) 0.4702(3) 0.5531(6)
O46 O -0.0259(10) 0.5665(3) 0.3657(6)
C1 C -0.0032(10) 0.7277(3) 0.6343(7)
C2 C -0.0096(9) 0.6715(3) 0.6024(6)
H1 H 0.0697 0.6654 0.5614
C3 C 0.0474(9) 0.6406(3) 0.7154(6)
H2 H 0.1658 0.6482 0.7593
C4 C 0.0309(10) 0.5858(3) 0.6824(6)
C5 C 0.4100(9) 0.6353(3) 0.4891(6)
C6 C 0.4454(9) 0.6716(3) 0.5930(6)
H3 H 0.3415 0.6895 0.5875
C7 C 0.5013(9) 0.6380(3) 0.7037(6)
H4 H 0.4026 0.6192 0.7060
C8 C 0.5622(9) 0.6721(3) 0.8113(7)
C9 C 0.2967(10) 0.4717(3) 0.7996(6)
C10 C 0.4449(9) 0.4590(3) 0.9112(6)
H5 H 0.4980 0.4276 0.8976
C11 C 0.5740(10) 0.5018(3) 0.9367(7)
H6 H 0.6235 0.5014 0.8751
C12 C 0.7150(11) 0.4904(4) 1.0531(8)
C13 C 0.2306(10) 0.4965(3) 0.2121(7)
C14 C 0.1634(10) 0.5395(3) 0.1243(7)
H7 H 0.0608 0.5530 0.1333
C15 C 0.2957(11) 0.5814(3) 0.1548(7)
H8 H 0.3003 0.5968 0.2291
C16 C 0.2328(13) 0.6219(3) 0.0583(7)
C17 C 0.7158(9) 0.8115(3) 1.0989(6)
C18 C 0.7490(10) 0.7685(3) 1.1860(6)
H9 H 0.6413 0.7527 1.1795
C19 C 0.8598(11) 0.7281(3) 1.1539(7)
H10 H 0.7926 0.7112 1.0812
C20 C 0.9165(14) 0.6887(3) 1.2522(8)
C21 C 0.2033(10) 0.8315(3) 0.5190(6)
C22 C 0.2496(9) 0.8511(3) 0.4159(6)
H11 H 0.3150 0.8825 0.4391
C23 C 0.3601(9) 0.8101(3) 0.3870(6)
H12 H 0.4686 0.8086 0.4512
C24 C 0.3901(10) 0.8275(3) 0.2776(7)
Sb1_2 Sb 0.65862(6) 0.708610(19) 0.46606(4)
Sb2_2 Sb 0.83805(6) 0.598580(19) 0.83675(4)
Sb3_2 Sb 0.14484(6) 0.449560(19) 0.97757(4)
Sb4_2 Sb 0.58024(8) 0.59309(2) 1.07375(5)
Sb5_2 Sb -0.12016(6) 0.85726(2) 0.33196(4)
Sb6_2 Sb 0.22730(7) 0.72541(2) 0.22553(5)
O7_2 O -0.5159(7) 0.6448(2) 0.4177(5)
O9_2 O -0.4303(6) 0.7071(2) 0.5965(4)
O10_2 O -0.2892(7) 0.6621(2) 0.8839(5)
O12_2 O -0.3766(6) 0.6020(2) 0.7003(4)
O20_2 O 0.1500(7) 0.4716(2) -0.1915(5)
O21_2 O 0.3909(6) 0.4510(2) 0.0073(4)
O22_2 O 0.7402(8) 0.5257(3) 0.1313(6)
O24_2 O 0.4981(8) 0.5499(2) -0.0656(5)
O31_2 O 1.0457(7) 0.8306(2) 1.5016(5)
O33_2 O 1.1051(7) 0.8609(2) 1.3151(4)
O34_2 O 1.3224(7) 0.8005(3) 1.1860(5)
O36_2 O 1.2839(8) 0.7631(2) 1.3755(5)
O47 O -0.0613(8) 0.7517(3) -0.1008(5)
O48 O 0.2591(12) 0.3715(3) 0.3153(7)
O49 O 0.7535(11) 0.4552(3) 0.7463(7)
O50 O 0.3682(13) 0.9563(6) 0.6143(10)
O51 O -0.3163(17) 0.5548(5) 0.3954(12)
loop_
_geom_bond_atom_site_label_1
_geom_bond_atom_site_label_2
_geom_bond_site_symmetry_1
_geom_bond_site_symmetry_2
Ce1 O1 1_555 1_555
Ce2 O6 1_555 1_555
Sb1 O2 1_555 1_555
Sb2 O4 1_555 1_555
Sb3 O13 1_555 1_555
Sb4 O16 1_555 1_555
Sb5 O25 1_555 1_555
Sb6 O28 1_555 1_555
O1 C1 1_555 1_555
O2 C1 1_555 1_555
O3 Sb1 1_555 1_555
O4 C4 1_555 1_555
O5 Sb2 1_555 1_555
O6 C4 1_555 1_555
O7 C5 1_555 1_555
O8 Ce2 1_555 1_555
O9 C6 1_555 1_555
O10 C8 1_555 1_555
O11 Ce1 1_555 1_555
O12 C7 1_555 1_555
O13 C13 1_555 1_555
O14 Ce2 1_555 1_555
O15 Sb3 1_555 1_555
O16 C16 1_555 1_555
O17 C16 1_555 1_555
O18 Sb4 1_555 1_555
O19 Ce2 1_555 1_555
O20 C9 1_555 1_555
O21 C10 1_555 1_555
O22 C12 1_555 1_555
O23 C12 1_555 1_555
O24 C11 1_555 1_555
O25 C17 1_555 1_555
O26 Ce1 1_555 1_555
O27 Sb5 1_555 1_555
O28 C20 1_555 1_555
O29 C20 1_555 1_555
O30 Sb6 1_555 1_555
O31 C21 1_555 1_555
O32 Ce1 1_555 1_555
O33 C22 1_555 1_555
O34 C24 1_555 1_555
O35 C24 1_555 1_555
O36 C23 1_555 1_555
O37 Ce1 1_555 1_555
O38 Ce1 1_555 1_555
O39 Ce1 1_555 1_555
O40 Ce1 1_555 1_555
O41 Ce1 1_555 1_555
O42 Ce2 1_555 1_555
O43 Ce2 1_555 1_555
O44 Ce2 1_555 1_555
O45 Ce2 1_555 1_555
O46 Ce2 1_555 1_555
C1 C2 1_555 1_555
C2 O3 1_555 1_555
H1 C2 1_555 1_555
C3 O5 1_555 1_555
H2 C3 1_555 1_555
C4 C3 1_555 1_555
C5 O8 1_555 1_555
C6 C5 1_555 1_555
H3 C6 1_555 1_555
C7 C6 1_555 1_555
H4 C7 1_555 1_555
C8 O11 1_555 1_555
C9 O19 1_555 1_555
C10 C9 1_555 1_555
H5 C10 1_555 1_555
C11 C10 1_555 1_555
H6 C11 1_555 1_555
C12 C11 1_555 1_555
C13 O14 1_555 1_555
C14 O15 1_555 1_555
H7 C14 1_555 1_555
C15 O18 1_555 1_555
H8 C15 1_555 1_555
C16 C15 1_555 1_555
C17 O26 1_555 1_555
C18 O27 1_555 1_555
H9 C18 1_555 1_555
C19 O30 1_555 1_555
H10 C19 1_555 1_555
C20 C19 1_555 1_555
C21 O32 1_555 1_555
C22 C21 1_555 1_555
H11 C22 1_555 1_555
C23 C22 1_555 1_555
H12 C23 1_555 1_555
C24 C23 1_555 1_555
Sb1_2 O7 1_555 1_555
Sb2_2 O10 1_555 1_555
Sb3_2 O20 1_555 1_555
Sb4_2 O22 1_555 1_555
Sb5_2 O31 1_555 1_555
Sb6_2 O34 1_555 1_555
O7_2 Sb1 1_555 1_555
O9_2 Sb1 1_555 1_555
O10_2 Sb2 1_555 1_555
O12_2 Sb2 1_555 1_555
O20_2 Sb3 1_555 1_555
O21_2 Sb3 1_555 1_555
O22_2 Sb4 1_555 1_555
O24_2 Sb4 1_555 1_555
O31_2 Sb5 1_555 1_555
O33_2 Sb5 1_555 1_555
O34_2 Sb6 1_555 1_555
O36_2 Sb6 1_555 1_555
O9 Sb1_2 1_555 1_555
O12 Sb2_2 1_555 1_555
O21 Sb3_2 1_555 1_555
O24 Sb4_2 1_555 1_555
O33 Sb5_2 1_555 1_555
O36 Sb6_2 1_555 1_555
C2 C3 1_555 1_555
C7 C8 1_555 1_555
C13 C14 1_555 1_555
C14 C15 1_555 1_555
C17 C18 1_555 1_555
C18 C19 1_555 1_555

#END
