
#######################################################################
#
#                 Cambridge Crystallographic Data Centre
#                                CCDC 
#
#######################################################################
#
# If this CIF has been generated from an entry in the Cambridge 
# Structural Database, then it will include bibliographic, chemical, 
# crystal, experimental, refinement or atomic coordinate data resulting 
# from the CCDC's data processing and validation procedures.
#
#######################################################################

data_BAYZEI
_symmetry_cell_setting           monoclinic
_symmetry_space_group_name_H-M   'P 21'
_symmetry_Int_Tables_number      4
_space_group_name_Hall           'P 2yb'
loop_
_symmetry_equiv_pos_site_id
_symmetry_equiv_pos_as_xyz
1 x,y,z
2 -x,1/2+y,-z
_cell_length_a                   8.469(2)
_cell_length_b                   26.300(7)
_cell_length_c                   12.198(3)
_cell_angle_alpha                90
_cell_angle_beta                 110.31
_cell_angle_gamma                90
_cell_volume                     2548
loop_
_atom_site_label
_atom_site_type_symbol
_atom_site_fract_x
_atom_site_fract_y
_atom_site_fract_z
Pr1 Pr 0.37197(5) 0.796863(14) 0.81964(3)
Pr2 Pr 0.20368(5) 0.511523(14) 0.49898(3)
Sb1 Sb -0.33989(6) 0.708840(19) 0.46634(4)
Sb2 Sb -0.16002(6) 0.598570(19) 0.83724(4)
Sb3 Sb 0.14590(6) 0.449490(19) -0.02174(4)
Sb4 Sb 0.58288(8) 0.59288(2) 0.07454(5)
Sb5 Sb 0.87944(6) 0.857336(19) 1.33201(4)
Sb6 Sb 1.22768(7) 0.72535(2) 1.22576(5)
O1 O 0.1334(8) 0.7463(3) 0.6973(6)
O2 O -0.1390(7) 0.7532(2) 0.5943(5)
O3 O -0.1690(7) 0.6559(2) 0.5292(4)
O4 O -0.0732(7) 0.5590(2) 0.7113(5)
O5 O -0.0484(7) 0.65367(19) 0.7851(4)
O6 O 0.1178(8) 0.5681(2) 0.6262(6)
O7 O 0.4868(7) 0.6451(2) 0.4170(5)
O8 O 0.3133(7) 0.5983(2) 0.4783(5)
O9 O 0.5703(6) 0.7074(2) 0.5969(4)
O10 O 0.7120(7) 0.6621(2) 0.8842(5)
O11 O 0.4711(8) 0.7057(2) 0.8256(6)
O12 O 0.6252(6) 0.6023(2) 0.7011(5)
O13 O 0.2437(8) 0.4523(2) 0.1707(5)
O14 O 0.2753(8) 0.5047(2) 0.3195(5)
O15 O 0.1254(7) 0.5224(2) 0.0076(4)
O16 O 0.3400(10) 0.6316(2) 0.0042(6)
O17 O 0.0999(10) 0.6431(2) 0.0387(5)
O18 O 0.4599(7) 0.5622(2) 0.1689(5)
O19 O 0.3252(7) 0.4798(2) 0.7089(5)
O20 O 0.1514(7) 0.4718(2) 0.8087(4)
O21 O 0.3931(7) 0.4510(2) 1.0086(4)
O22 O 0.7423(8) 0.5253(3) 1.1329(6)
O23 O 0.8005(8) 0.4513(3) 1.0699(7)
O24 O 0.5005(8) 0.5494(2) 0.9355(5)
O25 O 0.7783(7) 0.8547(2) 1.1405(5)
O26 O 0.6328(7) 0.8037(3) 0.9944(5)
O27 O 0.8300(7) 0.7843(2) 1.3018(5)
O28 O 1.0804(9) 0.6807(2) 1.2974(5)
O29 O 0.8099(11) 0.6651(3) 1.2807(6)
O30 O 0.9979(7) 0.7525(2) 1.1367(5)
O31 O 0.0451(7) 0.8307(2) 0.5021(5)
O32 O 0.3178(7) 0.8214(2) 0.6106(5)
O33 O 0.1050(6) 0.8610(2) 0.3152(4)
O34 O 0.3227(8) 0.8007(3) 0.1855(5)
O35 O 0.4715(9) 0.8676(3) 0.2799(6)
O36 O 0.2833(7) 0.7627(2) 0.3750(5)
O37 O 0.0887(10) 0.8494(3) 0.7360(6)
O38 O 0.2933(9) 0.8468(2) 0.9709(6)
O39 O 0.4494(8) 0.8874(2) 0.8093(5)
O40 O 0.6286(7) 0.7861(2) 0.7566(4)
O41 O 0.2825(8) 0.7416(2) 0.9545(5)
O42 O 0.5228(7) 0.5165(3) 0.5732(5)
O43 O 0.3229(9) 0.4233(2) 0.5137(5)
O44 O -0.0228(9) 0.4587(3) 0.3356(5)
O45 O -0.0341(8) 0.4701(3) 0.5533(6)
O46 O -0.0218(10) 0.5660(3) 0.3663(6)
C1 C 0.0003(10) 0.7282(3) 0.6349(7)
C2 C -0.0077(9) 0.6712(3) 0.6013(6)
H1 H 0.0712 0.6651 0.5600
C3 C 0.0493(9) 0.6400(3) 0.7151(7)
H2 H 0.1679 0.6476 0.7587
C4 C 0.0342(9) 0.5859(3) 0.6812(7)
C5 C 0.4122(9) 0.6350(3) 0.4888(7)
C6 C 0.4455(8) 0.6708(3) 0.5931(6)
H3 H 0.3408 0.6884 0.5869
C7 C 0.5011(9) 0.6383(3) 0.7034(6)
H4 H 0.4027 0.6195 0.7061
C8 C 0.5635(9) 0.6718(3) 0.8119(6)
C9 C 0.2958(10) 0.4720(3) 0.7997(6)
C10 C 0.4459(10) 0.4582(3) 0.9114(6)
H5 H 0.4982 0.4268 0.8974
C11 C 0.5756(10) 0.5018(3) 0.9365(7)
H6 H 0.6255 0.5016 0.8750
C12 C 0.7169(11) 0.4906(4) 1.0545(8)
C13 C 0.2332(9) 0.4965(3) 0.2139(6)
C14 C 0.1656(10) 0.5392(3) 0.1263(6)
H7 H 0.0629 0.5525 0.1355
C15 C 0.2976(10) 0.5816(3) 0.1557(7)
H8 H 0.3027 0.5971 0.2299
C16 C 0.2370(13) 0.6226(3) 0.0587(7)
C17 C 0.7143(9) 0.8114(3) 1.0974(6)
C18 C 0.7489(10) 0.7682(3) 1.1846(7)
H9 H 0.6414 0.7523 1.1783
C19 C 0.8600(11) 0.7282(3) 1.1546(7)
H10 H 0.7929 0.7111 1.0820
C20 C 0.9164(14) 0.6887(3) 1.2524(8)
C21 C 0.2040(10) 0.8320(3) 0.5207(7)
C22 C 0.2492(9) 0.8516(3) 0.4160(6)
H11 H 0.3141 0.8832 0.4387
C23 C 0.3609(9) 0.8106(3) 0.3863(6)
H12 H 0.4699 0.8091 0.4501
C24 C 0.3885(10) 0.8279(3) 0.2769(7)
Sb1_2 Sb 0.66011(6) 0.708840(19) 0.46634(4)
Sb2_2 Sb 0.83998(6) 0.598570(19) 0.83724(4)
Sb3_2 Sb 0.14590(6) 0.449490(19) 0.97826(4)
Sb4_2 Sb 0.58288(8) 0.59288(2) 1.07454(5)
Sb5_2 Sb -0.12056(6) 0.857336(19) 0.33201(4)
Sb6_2 Sb 0.22768(7) 0.72535(2) 0.22576(5)
O7_2 O -0.5132(7) 0.6451(2) 0.4170(5)
O9_2 O -0.4297(6) 0.7074(2) 0.5969(4)
O10_2 O -0.2880(7) 0.6621(2) 0.8842(5)
O12_2 O -0.3748(6) 0.6023(2) 0.7011(5)
O20_2 O 0.1514(7) 0.4718(2) -0.1913(4)
O21_2 O 0.3931(7) 0.4510(2) 0.0086(4)
O22_2 O 0.7423(8) 0.5253(3) 0.1329(6)
O24_2 O 0.5005(8) 0.5494(2) -0.0645(5)
O31_2 O 1.0451(7) 0.8307(2) 1.5021(5)
O33_2 O 1.1050(6) 0.8610(2) 1.3152(4)
O34_2 O 1.3227(8) 0.8007(3) 1.1855(5)
O36_2 O 1.2833(7) 0.7627(2) 1.3750(5)
O47 O -0.0594(8) 0.7520(3) -0.1020(5)
O48 O 0.2579(12) 0.3714(3) 0.3160(7)
O49 O 0.7524(11) 0.4549(3) 0.7452(7)
O50 O 0.3660(12) 0.9546(5) 0.6134(9)
O51 O -0.3151(15) 0.5528(5) 0.3928(10)
loop_
_geom_bond_atom_site_label_1
_geom_bond_atom_site_label_2
_geom_bond_site_symmetry_1
_geom_bond_site_symmetry_2
Pr1 O1 1_555 1_555
Pr2 O6 1_555 1_555
Sb1 O2 1_555 1_555
Sb2 O4 1_555 1_555
Sb3 O13 1_555 1_555
Sb4 O16 1_555 1_555
Sb5 O25 1_555 1_555
Sb6 O28 1_555 1_555
O1 C1 1_555 1_555
O2 C1 1_555 1_555
O3 Sb1 1_555 1_555
O4 C4 1_555 1_555
O5 Sb2 1_555 1_555
O6 C4 1_555 1_555
O7 C5 1_555 1_555
O8 Pr2 1_555 1_555
O9 C6 1_555 1_555
O10 C8 1_555 1_555
O11 Pr1 1_555 1_555
O12 C7 1_555 1_555
O13 C13 1_555 1_555
O14 Pr2 1_555 1_555
O15 Sb3 1_555 1_555
O16 C16 1_555 1_555
O17 C16 1_555 1_555
O18 Sb4 1_555 1_555
O19 Pr2 1_555 1_555
O20 C9 1_555 1_555
O21 C10 1_555 1_555
O22 C12 1_555 1_555
O23 C12 1_555 1_555
O24 C11 1_555 1_555
O25 C17 1_555 1_555
O26 Pr1 1_555 1_555
O27 Sb5 1_555 1_555
O28 C20 1_555 1_555
O29 C20 1_555 1_555
O30 Sb6 1_555 1_555
O31 C21 1_555 1_555
O32 Pr1 1_555 1_555
O33 C22 1_555 1_555
O34 C24 1_555 1_555
O35 C24 1_555 1_555
O36 C23 1_555 1_555
O37 Pr1 1_555 1_555
O38 Pr1 1_555 1_555
O39 Pr1 1_555 1_555
O40 Pr1 1_555 1_555
O41 Pr1 1_555 1_555
O42 Pr2 1_555 1_555
O43 Pr2 1_555 1_555
O44 Pr2 1_555 1_555
O45 Pr2 1_555 1_555
O46 Pr2 1_555 1_555
C1 C2 1_555 1_555
C2 O3 1_555 1_555
H1 C2 1_555 1_555
C3 O5 1_555 1_555
H2 C3 1_555 1_555
C4 C3 1_555 1_555
C5 O8 1_555 1_555
C6 C5 1_555 1_555
H3 C6 1_555 1_555
C7 C6 1_555 1_555
H4 C7 1_555 1_555
C8 O11 1_555 1_555
C9 O19 1_555 1_555
C10 C9 1_555 1_555
H5 C10 1_555 1_555
C11 C10 1_555 1_555
H6 C11 1_555 1_555
C12 C11 1_555 1_555
C13 O14 1_555 1_555
C14 O15 1_555 1_555
H7 C14 1_555 1_555
C15 O18 1_555 1_555
H8 C15 1_555 1_555
C16 C15 1_555 1_555
C17 O26 1_555 1_555
C18 O27 1_555 1_555
H9 C18 1_555 1_555
C19 O30 1_555 1_555
H10 C19 1_555 1_555
C20 C19 1_555 1_555
C21 O32 1_555 1_555
C22 C21 1_555 1_555
H11 C22 1_555 1_555
C23 C22 1_555 1_555
H12 C23 1_555 1_555
C24 C23 1_555 1_555
Sb1_2 O7 1_555 1_555
Sb2_2 O10 1_555 1_555
Sb3_2 O20 1_555 1_555
Sb4_2 O22 1_555 1_555
Sb5_2 O31 1_555 1_555
Sb6_2 O34 1_555 1_555
O7_2 Sb1 1_555 1_555
O9_2 Sb1 1_555 1_555
O10_2 Sb2 1_555 1_555
O12_2 Sb2 1_555 1_555
O20_2 Sb3 1_555 1_555
O21_2 Sb3 1_555 1_555
O22_2 Sb4 1_555 1_555
O24_2 Sb4 1_555 1_555
O31_2 Sb5 1_555 1_555
O33_2 Sb5 1_555 1_555
O34_2 Sb6 1_555 1_555
O36_2 Sb6 1_555 1_555
O9 Sb1_2 1_555 1_555
O12 Sb2_2 1_555 1_555
O21 Sb3_2 1_555 1_555
O24 Sb4_2 1_555 1_555
O33 Sb5_2 1_555 1_555
O36 Sb6_2 1_555 1_555
C2 C3 1_555 1_555
C7 C8 1_555 1_555
C13 C14 1_555 1_555
C14 C15 1_555 1_555
C17 C18 1_555 1_555
C18 C19 1_555 1_555

#END
