
#######################################################################
#
#                 Cambridge Crystallographic Data Centre
#                                CCDC 
#
#######################################################################
#
# If this CIF has been generated from an entry in the Cambridge 
# Structural Database, then it will include bibliographic, chemical, 
# crystal, experimental, refinement or atomic coordinate data resulting 
# from the CCDC's data processing and validation procedures.
#
#######################################################################

data_BAZBOU
_symmetry_cell_setting           monoclinic
_symmetry_space_group_name_H-M   'C 2'
_symmetry_Int_Tables_number      5
_space_group_name_Hall           'C 2y'
loop_
_symmetry_equiv_pos_site_id
_symmetry_equiv_pos_as_xyz
1 x,y,z
2 -x,y,-z
3 1/2+x,1/2+y,z
4 1/2-x,1/2+y,-z
_cell_length_a                   17.209(4)
_cell_length_b                   19.865(5)
_cell_length_c                   13.880(11)
_cell_angle_alpha                90
_cell_angle_beta                 95.81(4)
_cell_angle_gamma                90
_cell_volume                     4720.6
loop_
_atom_site_label
_atom_site_type_symbol
_atom_site_fract_x
_atom_site_fract_y
_atom_site_fract_z
Co1 Co -0.32663(9) -0.46141(9) -0.76254(12)
Co2 Co -0.33530(9) -0.46031(9) -0.56683(12)
O1 O -0.2417(6) -0.5310(5) -0.7321(8)
O2 O -0.2527(7) -0.5346(5) -0.5710(9)
O3 O 0.0833(7) -0.8864(5) -0.5978(10)
O4 O 0.0921(7) -0.8897(6) -0.7523(8)
O5 O -0.2463(7) -0.3868(6) -0.7296(9)
O6 O -0.2529(7) -0.3880(6) -0.5744(8)
O7 O 0.0795(6) -0.0289(5) -0.5967(8)
O8 O 0.0900(7) -0.0356(6) -0.7581(9)
C1 C -0.1751(9) -0.6149(9) -0.6361(13)
C2 C -0.1269(12) -0.6312(9) -0.7115(13)
H1 H -0.1266 -0.6038 -0.7657
C3 C -0.0799(11) -0.6895(9) -0.7018(12)
C4 C -0.0332(12) -0.7072(12) -0.7783(14)
H2 H -0.0336 -0.6805 -0.8333
C5 C 0.0116(11) -0.7638(11) -0.7689(15)
H3 H 0.0421 -0.7760 -0.8178
C6 C 0.0118(10) -0.8031(7) -0.6865(13)
C7 C -0.0355(9) -0.7907(9) -0.6222(13)
H4 H -0.0396 -0.8221 -0.5733
C8 C -0.0809(11) -0.7324(10) -0.6226(14)
C9 C -0.1302(12) -0.7171(8) -0.5549(14)
H5 H -0.1335 -0.7474 -0.5044
C10 C -0.1757(11) -0.6596(9) -0.5560(11)
H6 H -0.2058 -0.6503 -0.5057
C11 C -0.2270(10) -0.5563(8) -0.6484(13)
C12 C 0.0656(8) -0.8646(8) -0.6810(11)
C13 C -0.1745(9) -0.3029(7) -0.6413(11)
C14 C -0.1285(8) -0.2905(7) -0.7087(12)
H7 H -0.1264 -0.3210 -0.7591
C15 C -0.0821(11) -0.2321(8) -0.7067(13)
C16 C -0.0332(10) -0.2167(7) -0.7751(12)
H8 H -0.0306 -0.2467 -0.8261
C17 C 0.0128(10) -0.1595(7) -0.7736(10)
H9 H 0.0434 -0.1507 -0.8237
C18 C 0.0126(9) -0.1140(8) -0.6932(13)
C19 C -0.0374(11) -0.1287(8) -0.6190(11)
H10 H -0.0384 -0.1003 -0.5659
C20 C -0.0852(10) -0.1869(8) -0.6278(13)
C21 C -0.1321(11) -0.2046(11) -0.5516(13)
H11 H -0.1322 -0.1778 -0.4967
C22 C -0.1759(10) -0.2608(10) -0.5612(14)
H12 H -0.2078 -0.2718 -0.5133
C23 C -0.2264(8) -0.3652(8) -0.6480(11)
C24 C 0.0650(10) -0.0551(8) -0.6801(14)
N1 N -0.3321(5) -0.4626(9) -1.4175(7)
C25 C -0.2671(7) -0.4724(12) -1.3615(10)
H13 H -0.2212 -0.4792 -1.3903
C26 C -0.2638(8) -0.4729(13) -1.2642(9)
H14 H -0.2160 -0.4802 -1.2282
C27 C -0.3299(8) -0.4630(12) -1.2162(8)
C28 C -0.3983(7) -0.4621(11) -1.2771(10)
H15 H -0.4460 -0.4618 -1.2510
C29 C -0.3970(7) -0.4616(11) -1.3751(10)
H16 H -0.4443 -0.4604 -1.4139
C30 C -0.3297(8) -0.4616(12) -1.1095(9)
C31 C -0.2712(10) -0.4359(11) -1.0541(12)
H17 H -0.2297 -0.4165 -1.0819
C32 C -0.2709(9) -0.4375(10) -0.9571(11)
H18 H -0.2271 -0.4207 -0.9200
N2 N -0.3278(6) -0.4609(10) -0.9120(8)
C33 C -0.3808(9) -0.4977(10) -0.9653(9)
H19 H -0.4171 -0.5215 -0.9335
C34 C -0.3851(8) -0.5027(9) -1.0663(10)
H20 H -0.4209 -0.5303 -1.1021
O1B O -0.7417(6) -0.0310(5) -0.7321(8)
O2B O -0.7527(7) -0.0346(5) -0.5710(9)
O3B O -0.4167(7) -0.3864(5) -0.5978(10)
O4B O -0.4079(7) -0.3897(6) -0.7523(8)
C1B C -0.6751(9) -0.1149(9) -0.6361(13)
C2B C -0.6269(12) -0.1312(9) -0.7115(13)
H1B H -0.6266 -0.1038 -0.7657
C3B C -0.5799(11) -0.1895(9) -0.7018(12)
C4B C -0.5332(12) -0.2072(12) -0.7783(14)
H2B H -0.5336 -0.1805 -0.8333
C5B C -0.4884(11) -0.2638(11) -0.7689(15)
H3B H -0.4579 -0.2760 -0.8178
C6B C -0.4882(10) -0.3031(7) -0.6865(13)
C7B C -0.5355(9) -0.2907(9) -0.6222(13)
H4B H -0.5396 -0.3221 -0.5733
C8B C -0.5809(11) -0.2324(10) -0.6226(14)
C9B C -0.6302(12) -0.2171(8) -0.5549(14)
H5B H -0.6335 -0.2474 -0.5044
C10B C -0.6757(11) -0.1596(9) -0.5560(11)
H6B H -0.7058 -0.1503 -0.5057
C11B C -0.7270(10) -0.0563(8) -0.6484(13)
C12B C -0.4344(8) -0.3646(8) -0.6810(11)
O5B O -0.7463(7) -0.8868(6) -0.7296(9)
O6B O -0.7529(7) -0.8880(6) -0.5744(8)
O7B O -0.4205(6) -0.5289(5) -0.5967(8)
O8B O -0.4100(7) -0.5356(6) -0.7581(9)
C13B C -0.6745(9) -0.8029(7) -0.6413(11)
C14B C -0.6285(8) -0.7905(7) -0.7087(12)
H7B H -0.6264 -0.8210 -0.7591
C15B C -0.5821(11) -0.7321(8) -0.7067(13)
C16B C -0.5332(10) -0.7167(7) -0.7751(12)
H8B H -0.5306 -0.7467 -0.8261
C17B C -0.4872(10) -0.6595(7) -0.7736(10)
H9B H -0.4566 -0.6507 -0.8237
C18B C -0.4874(9) -0.6140(8) -0.6932(13)
C19B C -0.5374(11) -0.6287(8) -0.6190(11)
H10B H -0.5384 -0.6003 -0.5659
C20B C -0.5852(10) -0.6869(8) -0.6278(13)
C21B C -0.6321(11) -0.7046(11) -0.5516(13)
H11B H -0.6322 -0.6778 -0.4967
C22B C -0.6759(10) -0.7608(10) -0.5612(14)
H12B H -0.7078 -0.7718 -0.5133
C23B C -0.7264(8) -0.8652(8) -0.6480(11)
C24B C -0.4350(10) -0.5551(8) -0.6801(14)
Co1B Co -0.82663(9) 0.03859(9) -0.76254(12)
Co2B Co -0.83530(9) 0.03969(9) -0.56683(12)
N1_2 N -0.3321(5) -0.4626(9) -0.4175(7)
C25_2 C -0.2671(7) -0.4724(12) -0.3615(10)
H13_2 H -0.2212 -0.4792 -0.3903
C26_2 C -0.2638(8) -0.4729(13) -0.2642(9)
H14_2 H -0.2160 -0.4802 -0.2282
C27_2 C -0.3299(8) -0.4630(12) -0.2162(8)
C28_2 C -0.3983(7) -0.4621(11) -0.2771(10)
H15_2 H -0.4460 -0.4618 -0.2510
C29_2 C -0.3970(7) -0.4616(11) -0.3751(10)
H16_2 H -0.4443 -0.4604 -0.4139
C30_2 C -0.3297(8) -0.4616(12) -0.1095(9)
C31_2 C -0.2712(10) -0.4359(11) -0.0541(12)
H17_2 H -0.2297 -0.4165 -0.0819
C32_2 C -0.2709(9) -0.4375(10) 0.0429(11)
H18_2 H -0.2271 -0.4207 0.0800
N2_2 N -0.3278(6) -0.4609(10) 0.0880(8)
C33_2 C -0.3808(9) -0.4977(10) 0.0347(9)
H19_2 H -0.4171 -0.5215 0.0665
C34_2 C -0.3851(8) -0.5027(9) -0.0663(10)
H20_2 H -0.4209 -0.5303 -0.1021
Co2B_2 Co 0.16470(9) -0.96031(9) -0.56683(12)
Co1B_2 Co 0.17337(9) -0.96141(9) -0.76254(12)
Co2B_3 Co 0.16470(9) 0.03969(9) -0.56683(12)
Co1B_3 Co 0.17337(9) 0.03859(9) -0.76254(12)
Co2_2 Co -0.33530(9) -0.46031(9) -1.56683(12)
Co1B_4 Co -0.82663(9) -0.96141(9) -0.76254(12)
Co2B_4 Co -0.83530(9) -0.96031(9) -0.56683(12)
O4_2 O -0.9079(7) 0.1103(6) -0.7523(8)
O5B_2 O -0.7463(7) 0.1132(6) -0.7296(9)
O8_2 O -0.9100(7) -0.0356(6) -0.7581(9)
N2B N -0.8278(6) 0.0391(10) -0.9120(8)
O3_2 O -0.9167(7) 0.1136(5) -0.5978(10)
O6B_2 O -0.7529(7) 0.1120(6) -0.5744(8)
O7_2 O -0.9205(6) -0.0289(5) -0.5967(8)
N1B N -0.8321(5) 0.0374(9) -0.4175(7)
Co1_2 Co -0.32663(9) -0.46141(9) 0.23746(12)
Co3 Co 0.00392(10) -0.43197(7) -0.09753(12)
O9 O -0.0750(7) -0.3568(6) -0.0887(8)
O10 O -0.0870(7) -0.3586(5) 0.0676(9)
O11 O -0.4186(7) -0.0032(5) 0.0983(9)
O12 O -0.4141(6) -0.0022(5) -0.0680(7)
C35 C -0.1589(9) -0.2756(6) -0.0220(10)
C36 C -0.1632(10) -0.2351(9) -0.1070(14)
H21 H -0.1344 -0.2478 -0.1571
C37 C -0.2066(10) -0.1800(8) -0.1174(10)
H22 H -0.2090 -0.1549 -0.1743
C38 C -0.2504(10) -0.1594(8) -0.0381(13)
C39 C -0.3000(10) -0.1023(8) -0.0459(10)
H23 H -0.3035 -0.0766 -0.1023
C40 C -0.3441(9) -0.0835(8) 0.0298(12)
C41 C -0.3430(12) -0.1265(9) 0.1129(12)
H24 H -0.3729 -0.1164 0.1632
C42 C -0.2966(13) -0.1831(9) 0.1165(13)
H25 H -0.2982 -0.2121 0.1687
C43 C -0.2474(11) -0.1993(10) 0.0463(12)
C44 C -0.2007(9) -0.2576(8) 0.0471(14)
H26 H -0.1995 -0.2854 0.1011
C45 C -0.1034(8) -0.3354(8) -0.0165(12)
C46 C -0.3976(10) -0.0263(7) 0.0174(13)
N3 N 0.0034(6) -0.4290(8) -0.2455(7)
C47 C 0.0607(7) -0.4576(10) -0.2899(10)
H27 H 0.1001 -0.4803 -0.2523
C48 C 0.0638(7) -0.4550(11) -0.3885(11)
H28 H 0.1067 -0.4723 -0.4161
C49 C 0.0005(7) -0.4256(9) -0.4475(9)
C50 C -0.0615(9) -0.4037(11) -0.4018(11)
H29 H -0.1071 -0.3895 -0.4379
C51 C -0.0564(9) -0.4025(10) -0.3047(11)
H30 H -0.0969 -0.3822 -0.2759
C49A C -0.0005(7) -0.4256(9) -0.5525(9)
C48A C -0.0638(7) -0.4550(11) -0.6115(11)
C47A C -0.0607(7) -0.4576(10) -0.7101(10)
N3A N -0.0034(6) -0.4290(8) -0.7545(7)
C51A C 0.0564(9) -0.4025(10) -0.6953(11)
C50A C 0.0615(9) -0.4037(11) -0.5982(11)
H29A H 0.1071 -0.3895 -0.5621
H30A H 0.0969 -0.3822 -0.7241
H27A H -0.1001 -0.4803 -0.7477
H28A H -0.1067 -0.4723 -0.5839
O9A O 0.0750(7) -0.3568(6) 0.0887(8)
O10A O 0.0870(7) -0.3586(5) -0.0676(9)
O11A O 0.4186(7) -0.0032(5) -0.0983(9)
O12A O 0.4141(6) -0.0022(5) 0.0680(7)
C35A C 0.1589(9) -0.2756(6) 0.0220(10)
C36A C 0.1632(10) -0.2351(9) 0.1070(14)
H21A H 0.1344 -0.2478 0.1571
C37A C 0.2066(10) -0.1800(8) 0.1174(10)
H22A H 0.2090 -0.1549 0.1743
C38A C 0.2504(10) -0.1594(8) 0.0381(13)
C39A C 0.3000(10) -0.1023(8) 0.0459(10)
H23A H 0.3035 -0.0766 0.1023
C40A C 0.3441(9) -0.0835(8) -0.0298(12)
C41A C 0.3430(12) -0.1265(9) -0.1129(12)
H24A H 0.3729 -0.1164 -0.1632
C42A C 0.2966(13) -0.1831(9) -0.1165(13)
H25A H 0.2982 -0.2121 -0.1687
C43A C 0.2474(11) -0.1993(10) -0.0463(12)
C44A C 0.2007(9) -0.2576(8) -0.0471(14)
H26A H 0.1995 -0.2854 -0.1011
C45A C 0.1034(8) -0.3354(8) 0.0165(12)
C46A C 0.3976(10) -0.0263(7) -0.0174(13)
Co3A Co -0.00392(10) -0.43197(7) 0.09753(12)
O11C O -0.0814(7) -0.5032(5) -0.0983(9)
O12B O 0.0859(6) -0.5022(5) -0.0680(7)
Co3C Co -0.50392(10) 0.06803(7) 0.09753(12)
Co3B Co -0.49608(10) 0.06803(7) -0.09753(12)
Co3A_2 Co -0.00392(10) -0.43197(7) -0.90247(12)
Co3B_2 Co 0.50392(10) 0.06803(7) -0.09753(12)
Co3C_2 Co 0.49608(10) 0.06803(7) 0.09753(12)
O11B O 0.0814(7) -0.5032(5) 0.0983(9)
O12C O -0.0859(6) -0.5022(5) 0.0680(7)
N3A_2 N -0.0034(6) -0.4290(8) 0.2455(7)
loop_
_geom_bond_atom_site_label_1
_geom_bond_atom_site_label_2
_geom_bond_site_symmetry_1
_geom_bond_site_symmetry_2
Co1 Co2 1_555 1_555
Co2 O2 1_555 1_555
O1 Co1 1_555 1_555
O2 C11 1_555 1_555
O3 C12 1_555 1_555
O4 C12 1_555 1_555
O5 Co1 1_555 1_555
O6 Co2 1_555 1_555
O7 C24 1_555 1_555
O8 C24 1_555 1_555
C1 C2 1_555 1_555
C2 H1 1_555 1_555
C3 C2 1_555 1_555
C4 C3 1_555 1_555
H2 C4 1_555 1_555
C5 C4 1_555 1_555
H3 C5 1_555 1_555
C6 C5 1_555 1_555
C7 C6 1_555 1_555
H4 C7 1_555 1_555
C8 C3 1_555 1_555
C9 C8 1_555 1_555
H5 C9 1_555 1_555
C10 C1 1_555 1_555
H6 C10 1_555 1_555
C11 O1 1_555 1_555
C12 C6 1_555 1_555
C13 C14 1_555 1_555
C14 H7 1_555 1_555
C15 C14 1_555 1_555
C16 C15 1_555 1_555
H8 C16 1_555 1_555
C17 C16 1_555 1_555
H9 C17 1_555 1_555
C18 C17 1_555 1_555
C19 C18 1_555 1_555
H10 C19 1_555 1_555
C20 C15 1_555 1_555
C21 C20 1_555 1_555
H11 C21 1_555 1_555
C22 C13 1_555 1_555
H12 C22 1_555 1_555
C23 O5 1_555 1_555
C24 C18 1_555 1_555
N1 C25 1_555 1_555
C25 H13 1_555 1_555
C26 C25 1_555 1_555
H14 C26 1_555 1_555
C27 C26 1_555 1_555
C28 C27 1_555 1_555
H15 C28 1_555 1_555
C29 N1 1_555 1_555
H16 C29 1_555 1_555
C30 C27 1_555 1_555
C31 C30 1_555 1_555
H17 C31 1_555 1_555
C32 C31 1_555 1_555
H18 C32 1_555 1_555
N2 Co1 1_555 1_555
C33 N2 1_555 1_555
H19 C33 1_555 1_555
C34 C30 1_555 1_555
H20 C34 1_555 1_555
Co3 O9 1_555 1_555
O9 C45 1_555 1_555
O10 C45 1_555 1_555
O11 C46 1_555 1_555
O12 C46 1_555 1_555
C35 C36 1_555 1_555
C36 H21 1_555 1_555
C37 C36 1_555 1_555
H22 C37 1_555 1_555
C38 C37 1_555 1_555
C39 C38 1_555 1_555
H23 C39 1_555 1_555
C40 C39 1_555 1_555
C41 C40 1_555 1_555
H24 C41 1_555 1_555
C42 C41 1_555 1_555
H25 C42 1_555 1_555
C43 C38 1_555 1_555
C44 C35 1_555 1_555
H26 C44 1_555 1_555
C45 C35 1_555 1_555
C46 C40 1_555 1_555
N3 Co3 1_555 1_555
C47 N3 1_555 1_555
H27 C47 1_555 1_555
C48 C47 1_555 1_555
H28 C48 1_555 1_555
C49 C48 1_555 1_555
C50 C49 1_555 1_555
H29 C50 1_555 1_555
C51 N3 1_555 1_555
H30 C51 1_555 1_555
O1B C11B 1_555 1_555
O2B C11B 1_555 1_555
O3B Co2 1_555 1_555
O4B Co1 1_555 1_555
C1B C2B 1_555 1_555
C2B H1B 1_555 1_555
C3B C2B 1_555 1_555
C4B C3B 1_555 1_555
H2B C4B 1_555 1_555
C5B C4B 1_555 1_555
H3B C5B 1_555 1_555
C6B C5B 1_555 1_555
C7B C6B 1_555 1_555
H4B C7B 1_555 1_555
C8B C3B 1_555 1_555
C9B C8B 1_555 1_555
H5B C9B 1_555 1_555
C10B C1B 1_555 1_555
H6B C10B 1_555 1_555
C11B C1B 1_555 1_555
C12B O3B 1_555 1_555
O5B C23B 1_555 1_555
O6B C23B 1_555 1_555
O7B Co2 1_555 1_555
O8B Co1 1_555 1_555
C13B C14B 1_555 1_555
C14B H7B 1_555 1_555
C15B C14B 1_555 1_555
C16B C15B 1_555 1_555
H8B C16B 1_555 1_555
C17B C16B 1_555 1_555
H9B C17B 1_555 1_555
C18B C17B 1_555 1_555
C19B C18B 1_555 1_555
H10B C19B 1_555 1_555
C20B C15B 1_555 1_555
C21B C20B 1_555 1_555
H11B C21B 1_555 1_555
C22B C13B 1_555 1_555
H12B C22B 1_555 1_555
C23B C13B 1_555 1_555
C24B O7B 1_555 1_555
Co1B O1B 1_555 1_555
Co2B O2B 1_555 1_555
N1_2 Co2 1_555 1_555
C25_2 N1_2 1_555 1_555
H13_2 C25_2 1_555 1_555
C26_2 C25_2 1_555 1_555
H14_2 C26_2 1_555 1_555
C27_2 C26_2 1_555 1_555
C28_2 C27_2 1_555 1_555
H15_2 C28_2 1_555 1_555
C29_2 N1_2 1_555 1_555
H16_2 C29_2 1_555 1_555
C30_2 C27_2 1_555 1_555
C31_2 C30_2 1_555 1_555
H17_2 C31_2 1_555 1_555
C32_2 C31_2 1_555 1_555
H18_2 C32_2 1_555 1_555
N2_2 C32_2 1_555 1_555
C33_2 N2_2 1_555 1_555
H19_2 C33_2 1_555 1_555
C34_2 C30_2 1_555 1_555
H20_2 C34_2 1_555 1_555
Co2B_2 O3 1_555 1_555
Co1B_2 O4 1_555 1_555
Co2B_3 O7 1_555 1_555
Co1B_3 O8 1_555 1_555
Co2_2 N1 1_555 1_555
Co1B_4 O5B 1_555 1_555
Co2B_4 O6B 1_555 1_555
O4_2 Co1B 1_555 1_555
O5B_2 Co1B 1_555 1_555
O8_2 Co1B 1_555 1_555
N2B Co1B 1_555 1_555
O3_2 Co2B 1_555 1_555
O6B_2 Co2B 1_555 1_555
O7_2 Co2B 1_555 1_555
N1B Co2B 1_555 1_555
Co1_2 N2_2 1_555 1_555
C49A C49 1_555 1_555
C48A C49A 1_555 1_555
C47A C48A 1_555 1_555
N3A C47A 1_555 1_555
C51A N3A 1_555 1_555
C50A C49A 1_555 1_555
H29A C50A 1_555 1_555
H30A C51A 1_555 1_555
H27A C47A 1_555 1_555
H28A C48A 1_555 1_555
O9A C45A 1_555 1_555
O10A Co3 1_555 1_555
O11A C46A 1_555 1_555
O12A C46A 1_555 1_555
C35A C36A 1_555 1_555
C36A H21A 1_555 1_555
C37A C36A 1_555 1_555
H22A C37A 1_555 1_555
C38A C37A 1_555 1_555
C39A C38A 1_555 1_555
H23A C39A 1_555 1_555
C40A C39A 1_555 1_555
C41A C40A 1_555 1_555
H24A C41A 1_555 1_555
C42A C41A 1_555 1_555
H25A C42A 1_555 1_555
C43A C38A 1_555 1_555
C44A C35A 1_555 1_555
H26A C44A 1_555 1_555
C45A O10A 1_555 1_555
C46A C40A 1_555 1_555
Co3A Co3 1_555 1_555
O11C Co3 1_555 1_555
O12B Co3 1_555 1_555
Co3C O11 1_555 1_555
Co3B O12 1_555 1_555
Co3A_2 N3A 1_555 1_555
Co3B_2 O11A 1_555 1_555
Co3C_2 O12A 1_555 1_555
O11B Co3A 1_555 1_555
O12C Co3A 1_555 1_555
N3A_2 Co3A 1_555 1_555
O6 C23 1_555 1_555
C1 C11 1_555 1_555
C7 C8 1_555 1_555
C9 C10 1_555 1_555
C13 C23 1_555 1_555
C19 C20 1_555 1_555
C21 C22 1_555 1_555
C28 C29 1_555 1_555
C32 N2 1_555 1_555
C33 C34 1_555 1_555
O10 Co3A 1_555 1_555
C42 C43 1_555 1_555
C43 C44 1_555 1_555
C50 C51 1_555 1_555
O4B C12B 1_555 1_555
C6B C12B 1_555 1_555
C7B C8B 1_555 1_555
C9B C10B 1_555 1_555
O8B C24B 1_555 1_555
C18B C24B 1_555 1_555
C19B C20B 1_555 1_555
C21B C22B 1_555 1_555
Co1B Co2B 1_555 1_555
C28_2 C29_2 1_555 1_555
C33_2 C34_2 1_555 1_555
Co2B_2 Co1B_2 1_555 1_555
Co2B_3 Co1B_3 1_555 1_555
Co1B_4 Co2B_4 1_555 1_555
C51A C50A 1_555 1_555
O9A Co3A 1_555 1_555
C35A C45A 1_555 1_555
C42A C43A 1_555 1_555
C43A C44A 1_555 1_555
Co3C Co3B 1_555 1_555
Co3B_2 Co3C_2 1_555 1_555

#END
