
#######################################################################
#
#                 Cambridge Crystallographic Data Centre
#                                CCDC 
#
#######################################################################
#
# If this CIF has been generated from an entry in the Cambridge 
# Structural Database, then it will include bibliographic, chemical, 
# crystal, experimental, refinement or atomic coordinate data resulting 
# from the CCDC's data processing and validation procedures.
#
#######################################################################

data_BAZBIO
_symmetry_cell_setting           monoclinic
_symmetry_space_group_name_H-M   'C 2'
_symmetry_Int_Tables_number      5
_space_group_name_Hall           'C 2y'
loop_
_symmetry_equiv_pos_site_id
_symmetry_equiv_pos_as_xyz
1 x,y,z
2 -x,y,-z
3 1/2+x,1/2+y,z
4 1/2-x,1/2+y,-z
_cell_length_a                   17.159(4)
_cell_length_b                   19.747(5)
_cell_length_c                   13.709(4)
_cell_angle_alpha                90
_cell_angle_beta                 95.935(4)
_cell_angle_gamma                90
_cell_volume                     4620.24
loop_
_atom_site_label
_atom_site_type_symbol
_atom_site_fract_x
_atom_site_fract_y
_atom_site_fract_z
Ni1 Ni -0.32785(7) -0.46087(6) -0.76145(11)
Ni2 Ni -0.33568(8) -0.45996(6) -0.56914(11)
O1 O -0.2420(5) -0.5297(4) -0.7331(7)
O2 O -0.2552(5) -0.5332(4) -0.5742(7)
O3 O 0.0857(6) -0.8869(4) -0.5958(7)
O4 O 0.0911(6) -0.8882(4) -0.7591(7)
O5 O -0.2487(6) -0.3878(4) -0.7342(7)
O6 O -0.2522(6) -0.3883(4) -0.5705(7)
O7 O 0.0790(5) -0.0282(4) -0.5986(7)
O8 O 0.0916(6) -0.0337(4) -0.7570(7)
C1 C -0.1751(7) -0.6142(6) -0.6402(10)
C2 C -0.1286(8) -0.6286(6) -0.7138(11)
H1 H -0.1278 -0.5999 -0.7674
C3 C -0.0813(7) -0.6891(6) -0.7060(10)
C4 C -0.0343(10) -0.7070(8) -0.7807(11)
H2 H -0.0330 -0.6797 -0.8358
C5 C 0.0100(9) -0.7660(7) -0.7705(12)
H3 H 0.0387 -0.7792 -0.8212
C6 C 0.0123(8) -0.8037(6) -0.6912(11)
C7 C -0.0356(8) -0.7889(7) -0.6239(11)
H4 H -0.0368 -0.8191 -0.5720
C8 C -0.0819(8) -0.7349(7) -0.6241(10)
C9 C -0.1350(8) -0.7168(7) -0.5553(11)
H5 H -0.1411 -0.7476 -0.5053
C10 C -0.1763(8) -0.6609(6) -0.5557(10)
H6 H -0.2056 -0.6507 -0.5042
C11 C -0.2286(7) -0.5562(5) -0.6476(9)
C12 C 0.0649(7) -0.8650(5) -0.6804(10)
C13 C -0.1759(8) -0.3050(5) -0.6394(10)
C14 C -0.1279(7) -0.2899(6) -0.7078(10)
H7 H -0.1258 -0.3200 -0.7596
C15 C -0.0818(8) -0.2335(5) -0.7063(9)
C16 C -0.0309(7) -0.2171(5) -0.7779(9)
H8 H -0.0273 -0.2473 -0.8293
C17 C 0.0118(8) -0.1611(5) -0.7757(9)
H9 H 0.0415 -0.1514 -0.8270
C18 C 0.0121(7) -0.1133(5) -0.6904(8)
C19 C -0.0379(7) -0.1263(5) -0.6196(10)
H10 H -0.0414 -0.0962 -0.5680
C20 C -0.0855(6) -0.1888(5) -0.6274(9)
C21 C -0.1305(8) -0.2040(6) -0.5502(10)
H11 H -0.1306 -0.1759 -0.4957
C22 C -0.1751(8) -0.2634(7) -0.5596(11)
H12 H -0.2053 -0.2750 -0.5096
C23 C -0.2285(7) -0.3654(5) -0.6497(10)
C24 C 0.0644(6) -0.0552(5) -0.6828(8)
N1 N -0.3326(4) -0.4622(7) -1.4209(6)
C25 C -0.2670(5) -0.4746(7) -1.3651(6)
H13 H -0.2218 -0.4845 -1.3945
C26 C -0.2636(5) -0.4733(7) -1.2649(7)
H14 H -0.2156 -0.4791 -1.2278
C27 C -0.3299(6) -0.4636(9) -1.2178(9)
C28 C -0.3974(7) -0.4644(7) -1.2778(9)
H15 H -0.4449 -0.4657 -1.2507
C29 C -0.3976(5) -0.4634(7) -1.3784(7)
H16 H -0.4453 -0.4636 -1.4173
C30 C -0.3285(6) -0.4618(9) -1.1104(8)
C31 C -0.2693(8) -0.4383(6) -1.0533(10)
H17 H -0.2260 -0.4203 -1.0798
C32 C -0.2715(8) -0.4406(6) -0.9528(10)
H18 H -0.2274 -0.4252 -0.9141
N2 N -0.3287(5) -0.4620(7) -0.9078(7)
C33 C -0.3842(6) -0.4960(7) -0.9647(6)
H19 H -0.4226 -0.5189 -0.9346
C34 C -0.3867(6) -0.4984(7) -1.0655(7)
H20 H -0.4251 -0.5231 -1.1029
O1B O -0.7420(5) -0.0297(4) -0.7331(7)
O2B O -0.7552(5) -0.0332(4) -0.5742(7)
O3B O -0.4143(6) -0.3869(4) -0.5958(7)
O4B O -0.4089(6) -0.3882(4) -0.7591(7)
C1B C -0.6751(7) -0.1142(6) -0.6402(10)
C2B C -0.6286(8) -0.1286(6) -0.7138(11)
H1B H -0.6278 -0.0999 -0.7674
C3B C -0.5813(7) -0.1891(6) -0.7060(10)
C4B C -0.5343(10) -0.2070(8) -0.7807(11)
H2B H -0.5330 -0.1797 -0.8358
C5B C -0.4900(9) -0.2660(7) -0.7705(12)
H3B H -0.4613 -0.2792 -0.8212
C6B C -0.4877(8) -0.3037(6) -0.6912(11)
C7B C -0.5356(8) -0.2889(7) -0.6239(11)
H4B H -0.5368 -0.3191 -0.5720
C8B C -0.5819(8) -0.2349(7) -0.6241(10)
C9B C -0.6350(8) -0.2168(7) -0.5553(11)
H5B H -0.6411 -0.2476 -0.5053
C10B C -0.6763(8) -0.1609(6) -0.5557(10)
H6B H -0.7056 -0.1507 -0.5042
C11B C -0.7286(7) -0.0562(5) -0.6476(9)
C12B C -0.4351(7) -0.3650(5) -0.6804(10)
O5B O -0.7487(6) -0.8878(4) -0.7342(7)
O6B O -0.7522(6) -0.8883(4) -0.5705(7)
O7B O -0.4210(5) -0.5282(4) -0.5986(7)
O8B O -0.4084(6) -0.5337(4) -0.7570(7)
C13B C -0.6759(8) -0.8050(5) -0.6394(10)
C14B C -0.6279(7) -0.7899(6) -0.7078(10)
H7B H -0.6258 -0.8200 -0.7596
C15B C -0.5818(8) -0.7335(5) -0.7063(9)
C16B C -0.5309(7) -0.7171(5) -0.7779(9)
H8B H -0.5273 -0.7473 -0.8293
C17B C -0.4882(8) -0.6611(5) -0.7757(9)
H9B H -0.4585 -0.6514 -0.8270
C18B C -0.4879(7) -0.6133(5) -0.6904(8)
C19B C -0.5379(7) -0.6263(5) -0.6196(10)
H10B H -0.5414 -0.5962 -0.5680
C20B C -0.5855(6) -0.6888(5) -0.6274(9)
C21B C -0.6305(8) -0.7040(6) -0.5502(10)
H11B H -0.6306 -0.6759 -0.4957
C22B C -0.6751(8) -0.7634(7) -0.5596(11)
H12B H -0.7053 -0.7750 -0.5096
C23B C -0.7285(7) -0.8654(5) -0.6497(10)
C24B C -0.4356(6) -0.5552(5) -0.6828(8)
Ni1B Ni -0.82785(7) 0.03913(6) -0.76145(11)
Ni2B Ni -0.83568(8) 0.04004(6) -0.56914(11)
N1_2 N -0.3326(4) -0.4622(7) -0.4209(6)
C25_2 C -0.2670(5) -0.4746(7) -0.3651(6)
H13_2 H -0.2218 -0.4845 -0.3945
C26_2 C -0.2636(5) -0.4733(7) -0.2649(7)
H14_2 H -0.2156 -0.4791 -0.2278
C27_2 C -0.3299(6) -0.4636(9) -0.2178(9)
C28_2 C -0.3974(7) -0.4644(7) -0.2778(9)
H15_2 H -0.4449 -0.4657 -0.2507
C29_2 C -0.3976(5) -0.4634(7) -0.3784(7)
H16_2 H -0.4453 -0.4636 -0.4173
C30_2 C -0.3285(6) -0.4618(9) -0.1104(8)
C31_2 C -0.2693(8) -0.4383(6) -0.0533(10)
H17_2 H -0.2260 -0.4203 -0.0798
C32_2 C -0.2715(8) -0.4406(6) 0.0472(10)
H18_2 H -0.2274 -0.4252 0.0859
N2_2 N -0.3287(5) -0.4620(7) 0.0922(7)
C33_2 C -0.3842(6) -0.4960(7) 0.0353(6)
H19_2 H -0.4226 -0.5189 0.0654
C34_2 C -0.3867(6) -0.4984(7) -0.0655(7)
H20_2 H -0.4251 -0.5231 -0.1029
Ni2B_2 Ni 0.16432(8) -0.95996(6) -0.56914(11)
Ni1B_2 Ni 0.17215(7) -0.96087(6) -0.76145(11)
Ni2B_3 Ni 0.16432(8) 0.04004(6) -0.56914(11)
Ni1B_3 Ni 0.17215(7) 0.03913(6) -0.76145(11)
Ni2_2 Ni -0.33568(8) -0.45996(6) -1.56914(11)
Ni1B_4 Ni -0.82785(7) -0.96087(6) -0.76145(11)
Ni2B_4 Ni -0.83568(8) -0.95996(6) -0.56914(11)
O4_2 O -0.9089(6) 0.1118(4) -0.7591(7)
O5B_2 O -0.7487(6) 0.1122(4) -0.7342(7)
O8_2 O -0.9084(6) -0.0337(4) -0.7570(7)
N2B N -0.8287(5) 0.0380(7) -0.9078(7)
O3_2 O -0.9143(6) 0.1131(4) -0.5958(7)
O6B_2 O -0.7522(6) 0.1117(4) -0.5705(7)
O7_2 O -0.9210(5) -0.0282(4) -0.5986(7)
N1B N -0.8326(4) 0.0378(7) -0.4209(6)
Ni1_2 Ni -0.32785(7) -0.46087(6) 0.23855(11)
Ni3 Ni 0.00360(8) -0.43202(4) -0.09589(11)
O9 O -0.0742(6) -0.3560(4) -0.0908(7)
O10 O -0.0879(6) -0.3627(4) 0.0706(7)
O11 O -0.4184(6) -0.0010(4) 0.0952(7)
O12 O -0.4159(5) -0.0051(4) -0.0674(7)
C35 C -0.1585(8) -0.2758(5) -0.0243(10)
C36 C -0.1605(7) -0.2394(5) -0.1024(10)
H21 H -0.1309 -0.2527 -0.1523
C37 C -0.2066(7) -0.1794(5) -0.1147(10)
H22 H -0.2080 -0.1530 -0.1710
C38 C -0.2502(7) -0.1624(5) -0.0357(10)
C39 C -0.2990(7) -0.1005(5) -0.0459(9)
H23 H -0.2990 -0.0727 -0.1007
C40 C -0.3454(7) -0.0851(5) 0.0298(9)
C41 C -0.3453(8) -0.1322(6) 0.1137(9)
H24 H -0.3772 -0.1236 0.1632
C42 C -0.2995(9) -0.1872(9) 0.1190(10)
H25 H -0.3006 -0.2160 0.1725
C43 C -0.2497(8) -0.2032(6) 0.0469(9)
C44 C -0.2019(8) -0.2589(6) 0.0493(10)
H26 H -0.1991 -0.2867 0.1043
C45 C -0.1024(7) -0.3369(5) -0.0118(10)
C46 C -0.3977(7) -0.0267(5) 0.0199(9)
N3 N 0.0023(5) -0.4294(6) -0.2425(7)
C47 C 0.0624(6) -0.4603(7) -0.2836(8)
H27 H 0.1013 -0.4840 -0.2454
C48 C 0.0630(6) -0.4549(7) -0.3848(10)
H28 H 0.1070 -0.4697 -0.4130
C49 C 0.0001(6) -0.4281(7) -0.4457(8)
C50 C -0.0624(7) -0.4051(7) -0.3998(9)
H29 H -0.1074 -0.3888 -0.4357
C51 C -0.0562(7) -0.4068(8) -0.2991(11)
H30 H -0.0984 -0.3901 -0.2691
C49A C -0.0001(6) -0.4281(7) -0.5543(8)
C48A C -0.0630(6) -0.4549(7) -0.6152(10)
C47A C -0.0624(6) -0.4603(7) -0.7164(8)
N3A N -0.0023(5) -0.4294(6) -0.7575(7)
C51A C 0.0562(7) -0.4068(8) -0.7009(11)
C50A C 0.0624(7) -0.4051(7) -0.6002(9)
H29A H 0.1074 -0.3888 -0.5643
H30A H 0.0984 -0.3901 -0.7309
H27A H -0.1013 -0.4840 -0.7546
H28A H -0.1070 -0.4697 -0.5870
O9A O 0.0742(6) -0.3560(4) 0.0908(7)
O10A O 0.0879(6) -0.3627(4) -0.0706(7)
O11A O 0.4184(6) -0.0010(4) -0.0952(7)
O12A O 0.4159(5) -0.0051(4) 0.0674(7)
C35A C 0.1585(8) -0.2758(5) 0.0243(10)
C36A C 0.1605(7) -0.2394(5) 0.1024(10)
H21A H 0.1309 -0.2527 0.1523
C37A C 0.2066(7) -0.1794(5) 0.1147(10)
H22A H 0.2080 -0.1530 0.1710
C38A C 0.2502(7) -0.1624(5) 0.0357(10)
C39A C 0.2990(7) -0.1005(5) 0.0459(9)
H23A H 0.2990 -0.0727 0.1007
C40A C 0.3454(7) -0.0851(5) -0.0298(9)
C41A C 0.3453(8) -0.1322(6) -0.1137(9)
H24A H 0.3772 -0.1236 -0.1632
C42A C 0.2995(9) -0.1872(9) -0.1190(10)
H25A H 0.3006 -0.2160 -0.1725
C43A C 0.2497(8) -0.2032(6) -0.0469(9)
C44A C 0.2019(8) -0.2589(6) -0.0493(10)
H26A H 0.1991 -0.2867 -0.1043
C45A C 0.1024(7) -0.3369(5) 0.0118(10)
C46A C 0.3977(7) -0.0267(5) -0.0199(9)
Ni3A Ni -0.00360(8) -0.43202(4) 0.09589(11)
O11C O -0.0816(6) -0.5010(4) -0.0952(7)
O12B O 0.0841(5) -0.5051(4) -0.0674(7)
Ni3C Ni -0.50360(8) 0.06798(4) 0.09589(11)
Ni3B Ni -0.49640(8) 0.06798(4) -0.09589(11)
Ni3A_2 Ni -0.00360(8) -0.43202(4) -0.90411(11)
Ni3B_2 Ni 0.50360(8) 0.06798(4) -0.09589(11)
Ni3C_2 Ni 0.49640(8) 0.06798(4) 0.09589(11)
O11B O 0.0816(6) -0.5010(4) 0.0952(7)
O12C O -0.0841(5) -0.5051(4) 0.0674(7)
N3A_2 N -0.0023(5) -0.4294(6) 0.2425(7)
loop_
_geom_bond_atom_site_label_1
_geom_bond_atom_site_label_2
_geom_bond_site_symmetry_1
_geom_bond_site_symmetry_2
Ni1 Ni2 1_555 1_555
Ni2 O2 1_555 1_555
O1 Ni1 1_555 1_555
O2 C11 1_555 1_555
O3 C12 1_555 1_555
O4 C12 1_555 1_555
O5 Ni1 1_555 1_555
O6 Ni2 1_555 1_555
O7 C24 1_555 1_555
O8 C24 1_555 1_555
C1 C2 1_555 1_555
C2 H1 1_555 1_555
C3 C2 1_555 1_555
C4 C3 1_555 1_555
H2 C4 1_555 1_555
C5 C4 1_555 1_555
H3 C5 1_555 1_555
C6 C5 1_555 1_555
C7 C6 1_555 1_555
H4 C7 1_555 1_555
C8 C3 1_555 1_555
C9 C8 1_555 1_555
H5 C9 1_555 1_555
C10 C1 1_555 1_555
H6 C10 1_555 1_555
C11 O1 1_555 1_555
C12 C6 1_555 1_555
C13 C14 1_555 1_555
C14 H7 1_555 1_555
C15 C14 1_555 1_555
C16 C15 1_555 1_555
H8 C16 1_555 1_555
C17 C16 1_555 1_555
H9 C17 1_555 1_555
C18 C17 1_555 1_555
C19 C18 1_555 1_555
H10 C19 1_555 1_555
C20 C15 1_555 1_555
C21 C20 1_555 1_555
H11 C21 1_555 1_555
C22 C13 1_555 1_555
H12 C22 1_555 1_555
C23 O5 1_555 1_555
C24 C18 1_555 1_555
N1 C25 1_555 1_555
C25 H13 1_555 1_555
C26 C25 1_555 1_555
H14 C26 1_555 1_555
C27 C26 1_555 1_555
C28 C27 1_555 1_555
H15 C28 1_555 1_555
C29 N1 1_555 1_555
H16 C29 1_555 1_555
C30 C27 1_555 1_555
C31 C30 1_555 1_555
H17 C31 1_555 1_555
C32 C31 1_555 1_555
H18 C32 1_555 1_555
N2 Ni1 1_555 1_555
C33 N2 1_555 1_555
H19 C33 1_555 1_555
C34 C30 1_555 1_555
H20 C34 1_555 1_555
Ni3 O9 1_555 1_555
O9 C45 1_555 1_555
O10 C45 1_555 1_555
O11 C46 1_555 1_555
O12 C46 1_555 1_555
C35 C36 1_555 1_555
C36 H21 1_555 1_555
C37 C36 1_555 1_555
H22 C37 1_555 1_555
C38 C37 1_555 1_555
C39 C38 1_555 1_555
H23 C39 1_555 1_555
C40 C39 1_555 1_555
C41 C40 1_555 1_555
H24 C41 1_555 1_555
C42 C41 1_555 1_555
H25 C42 1_555 1_555
C43 C38 1_555 1_555
C44 C35 1_555 1_555
H26 C44 1_555 1_555
C45 C35 1_555 1_555
C46 C40 1_555 1_555
N3 Ni3 1_555 1_555
C47 N3 1_555 1_555
H27 C47 1_555 1_555
C48 C47 1_555 1_555
H28 C48 1_555 1_555
C49 C48 1_555 1_555
C50 C49 1_555 1_555
H29 C50 1_555 1_555
C51 N3 1_555 1_555
H30 C51 1_555 1_555
C49A C49 1_555 1_555
C48A C49A 1_555 1_555
C47A C48A 1_555 1_555
N3A C47A 1_555 1_555
C51A N3A 1_555 1_555
C50A C49A 1_555 1_555
H29A C50A 1_555 1_555
H30A C51A 1_555 1_555
H27A C47A 1_555 1_555
H28A C48A 1_555 1_555
O1B C11B 1_555 1_555
O2B C11B 1_555 1_555
O3B Ni2 1_555 1_555
O4B Ni1 1_555 1_555
C1B C2B 1_555 1_555
C2B H1B 1_555 1_555
C3B C2B 1_555 1_555
C4B C3B 1_555 1_555
H2B C4B 1_555 1_555
C5B C4B 1_555 1_555
H3B C5B 1_555 1_555
C6B C5B 1_555 1_555
C7B C6B 1_555 1_555
H4B C7B 1_555 1_555
C8B C3B 1_555 1_555
C9B C8B 1_555 1_555
H5B C9B 1_555 1_555
C10B C1B 1_555 1_555
H6B C10B 1_555 1_555
C11B C1B 1_555 1_555
C12B O3B 1_555 1_555
O5B C23B 1_555 1_555
O6B C23B 1_555 1_555
O7B Ni2 1_555 1_555
O8B Ni1 1_555 1_555
C13B C14B 1_555 1_555
C14B H7B 1_555 1_555
C15B C14B 1_555 1_555
C16B C15B 1_555 1_555
H8B C16B 1_555 1_555
C17B C16B 1_555 1_555
H9B C17B 1_555 1_555
C18B C17B 1_555 1_555
C19B C18B 1_555 1_555
H10B C19B 1_555 1_555
C20B C15B 1_555 1_555
C21B C20B 1_555 1_555
H11B C21B 1_555 1_555
C22B C13B 1_555 1_555
H12B C22B 1_555 1_555
C23B C13B 1_555 1_555
C24B O7B 1_555 1_555
Ni1B O1B 1_555 1_555
Ni2B O2B 1_555 1_555
N1_2 Ni2 1_555 1_555
C25_2 N1_2 1_555 1_555
H13_2 C25_2 1_555 1_555
C26_2 C25_2 1_555 1_555
H14_2 C26_2 1_555 1_555
C27_2 C26_2 1_555 1_555
C28_2 C27_2 1_555 1_555
H15_2 C28_2 1_555 1_555
C29_2 N1_2 1_555 1_555
H16_2 C29_2 1_555 1_555
C30_2 C27_2 1_555 1_555
C31_2 C30_2 1_555 1_555
H17_2 C31_2 1_555 1_555
C32_2 C31_2 1_555 1_555
H18_2 C32_2 1_555 1_555
N2_2 C32_2 1_555 1_555
C33_2 N2_2 1_555 1_555
H19_2 C33_2 1_555 1_555
C34_2 C30_2 1_555 1_555
H20_2 C34_2 1_555 1_555
O9A C45A 1_555 1_555
O10A Ni3 1_555 1_555
O11A C46A 1_555 1_555
O12A C46A 1_555 1_555
C35A C36A 1_555 1_555
C36A H21A 1_555 1_555
C37A C36A 1_555 1_555
H22A C37A 1_555 1_555
C38A C37A 1_555 1_555
C39A C38A 1_555 1_555
H23A C39A 1_555 1_555
C40A C39A 1_555 1_555
C41A C40A 1_555 1_555
H24A C41A 1_555 1_555
C42A C41A 1_555 1_555
H25A C42A 1_555 1_555
C43A C38A 1_555 1_555
C44A C35A 1_555 1_555
H26A C44A 1_555 1_555
C45A O10A 1_555 1_555
C46A C40A 1_555 1_555
Ni3A Ni3 1_555 1_555
Ni2B_2 O3 1_555 1_555
Ni1B_2 O4 1_555 1_555
Ni2B_3 O7 1_555 1_555
Ni1B_3 O8 1_555 1_555
Ni2_2 N1 1_555 1_555
O11C Ni3 1_555 1_555
O12B Ni3 1_555 1_555
Ni3C O11 1_555 1_555
Ni3B O12 1_555 1_555
Ni3A_2 N3A 1_555 1_555
Ni1B_4 O5B 1_555 1_555
Ni2B_4 O6B 1_555 1_555
O4_2 Ni1B 1_555 1_555
O5B_2 Ni1B 1_555 1_555
O8_2 Ni1B 1_555 1_555
N2B Ni1B 1_555 1_555
O3_2 Ni2B 1_555 1_555
O6B_2 Ni2B 1_555 1_555
O7_2 Ni2B 1_555 1_555
N1B Ni2B 1_555 1_555
Ni1_2 N2_2 1_555 1_555
Ni3B_2 O11A 1_555 1_555
Ni3C_2 O12A 1_555 1_555
O11B Ni3A 1_555 1_555
O12C Ni3A 1_555 1_555
N3A_2 Ni3A 1_555 1_555
O6 C23 1_555 1_555
C1 C11 1_555 1_555
C7 C8 1_555 1_555
C9 C10 1_555 1_555
C13 C23 1_555 1_555
C19 C20 1_555 1_555
C21 C22 1_555 1_555
C28 C29 1_555 1_555
C32 N2 1_555 1_555
C33 C34 1_555 1_555
O10 Ni3A 1_555 1_555
C42 C43 1_555 1_555
C43 C44 1_555 1_555
C50 C51 1_555 1_555
C51A C50A 1_555 1_555
O4B C12B 1_555 1_555
C6B C12B 1_555 1_555
C7B C8B 1_555 1_555
C9B C10B 1_555 1_555
O8B C24B 1_555 1_555
C18B C24B 1_555 1_555
C19B C20B 1_555 1_555
C21B C22B 1_555 1_555
Ni1B Ni2B 1_555 1_555
C28_2 C29_2 1_555 1_555
C33_2 C34_2 1_555 1_555
O9A Ni3A 1_555 1_555
C35A C45A 1_555 1_555
C42A C43A 1_555 1_555
C43A C44A 1_555 1_555
Ni2B_2 Ni1B_2 1_555 1_555
Ni2B_3 Ni1B_3 1_555 1_555
Ni3C Ni3B 1_555 1_555
Ni1B_4 Ni2B_4 1_555 1_555
Ni3B_2 Ni3C_2 1_555 1_555

#END
