
#######################################################################
#
#                 Cambridge Crystallographic Data Centre
#                                CCDC 
#
#######################################################################
#
# If this CIF has been generated from an entry in the Cambridge 
# Structural Database, then it will include bibliographic, chemical, 
# crystal, experimental, refinement or atomic coordinate data resulting 
# from the CCDC's data processing and validation procedures.
#
#######################################################################

data_BAZBIO01
_symmetry_cell_setting           monoclinic
_symmetry_space_group_name_H-M   'C 2'
_symmetry_Int_Tables_number      5
_space_group_name_Hall           'C 2y'
loop_
_symmetry_equiv_pos_site_id
_symmetry_equiv_pos_as_xyz
1 x,y,z
2 -x,y,-z
3 1/2+x,1/2+y,z
4 1/2-x,1/2+y,-z
_cell_length_a                   17.1020(5)
_cell_length_b                   19.8425(7)
_cell_length_c                   13.7033(4)
_cell_angle_alpha                90
_cell_angle_beta                 96.070(2)
_cell_angle_gamma                90
_cell_volume                     4624.09
loop_
_atom_site_label
_atom_site_type_symbol
_atom_site_fract_x
_atom_site_fract_y
_atom_site_fract_z
Ni1 Ni 0.66434(5) 0.65583(5) 0.43080(6)
Ni2 Ni 0.67221(5) 0.65700(5) 0.23978(6)
O5 O 0.5883(4) 0.5848(4) 0.2408(5)
O6 O 0.5828(4) 0.5838(3) 0.4034(5)
O7 O 0.2564(4) 0.2266(3) 0.2652(5)
O8 O 0.2431(4) 0.2295(3) 0.4271(5)
O9 O 0.7542(4) 0.5842(3) 0.2689(5)
O10 O 0.7493(4) 0.5845(3) 0.4320(5)
O11 O 1.0923(4) 0.2300(4) 0.2443(5)
O12 O 1.0799(4) 0.2249(3) 0.4052(5)
N2 N 0.6705(3) 0.6570(6) 1.0931(4)
N3 N 0.6661(3) 0.6591(5) 0.5771(4)
C18 C 0.5657(5) 0.5607(5) 0.3192(8)
C19 C 0.5122(6) 0.5002(5) 0.3080(8)
C20 C 0.5128(7) 0.4597(6) 0.2253(9)
H11 H 0.5403 0.4727 0.1734
C21 C 0.4734(7) 0.4021(7) 0.2222(7)
H12 H 0.4799 0.3719 0.1718
C22 C 0.4220(6) 0.3847(5) 0.2921(8)
C23 C 0.3717(5) 0.3256(5) 0.2885(8)
H13 H 0.3712 0.2968 0.2349
C24 C 0.3252(6) 0.3104(6) 0.3605(8)
C25 C 0.2721(5) 0.2515(5) 0.3513(7)
C26 C 0.3224(6) 0.3534(5) 0.4425(8)
H14 H 0.2899 0.3439 0.4910
C27 C 0.3705(6) 0.4108(6) 0.4480(8)
H15 H 0.3706 0.4381 0.5032
C28 C 0.4193(5) 0.4301(5) 0.3742(7)
C29 C 0.4638(6) 0.4871(6) 0.3785(8)
H16 H 0.4612 0.5174 0.4299
C30 C 0.7716(5) 0.5607(5) 0.3526(7)
C31 C 0.8233(6) 0.4996(4) 0.3623(7)
C32 C 0.8742(5) 0.4869(5) 0.2924(7)
H17 H 0.8788 0.5175 0.2419
C33 C 0.9176(5) 0.4289(5) 0.2985(7)
C34 C 0.9646(6) 0.4126(5) 0.2216(8)
H18 H 0.9638 0.4403 0.1669
C35 C 1.0109(6) 0.3559(5) 0.2283(7)
H19 H 1.0442 0.3473 0.1803
C36 C 1.0087(6) 0.3090(5) 0.3094(8)
C37 C 1.0630(6) 0.2504(5) 0.3196(7)
C38 C 0.9624(5) 0.3242(5) 0.3814(7)
H20 H 0.9626 0.2952 0.4348
C39 C 0.9134(5) 0.3830(6) 0.3785(7)
C40 C 0.8645(6) 0.3970(6) 0.4477(7)
H21 H 0.8594 0.3666 0.4983
C41 C 0.8236(7) 0.4546(6) 0.4430(8)
H22 H 0.7944 0.4656 0.4942
C42 C 0.6158(5) 0.6918(6) 1.0370(5)
H23 H 0.5784 0.7156 1.0677
C43 C 0.6119(5) 0.6944(6) 0.9355(5)
H24 H 0.5724 0.7185 0.8989
C44 C 0.6699(5) 0.6591(8) 0.8891(6)
C45 C 0.7309(5) 0.6335(6) 0.9492(6)
H25 H 0.7743 0.6155 0.9228
C46 C 0.7284(5) 0.6341(5) 1.0492(6)
H26 H 0.7716 0.6169 1.0882
C47 C 0.6691(4) 0.6585(7) 0.7816(5)
C48 C 0.6014(4) 0.6599(6) 0.7211(5)
H27 H 0.5535 0.6622 0.7474
C49 C 0.6026(4) 0.6578(6) 0.6215(5)
H28 H 0.5546 0.6554 0.5828
C50 C 0.7325(4) 0.6715(6) 0.6343(5)
H29 H 0.7775 0.6818 0.6047
C51 C 0.7373(4) 0.6699(6) 0.7348(5)
H30 H 0.7855 0.6763 0.7719
Ni1B Ni 1.16434(5) 1.15583(5) 0.43080(6)
Ni1B_2 Ni 0.16434(5) 0.15583(5) 0.43080(6)
Ni1B_3 Ni 1.16434(5) 0.15583(5) 0.43080(6)
Ni1B_4 Ni 0.16434(5) 1.15583(5) 0.43080(6)
Ni1_2 Ni 0.66434(5) 0.65583(5) -0.56920(6)
Ni2B Ni 1.17221(5) 1.15700(5) 0.23978(6)
Ni2B_2 Ni 0.17221(5) 0.15700(5) 0.23978(6)
Ni2B_3 Ni 1.17221(5) 0.15700(5) 0.23978(6)
Ni2_2 Ni 0.67221(5) 0.65700(5) 1.23978(6)
Ni2B_4 Ni 0.17221(5) 1.15700(5) 0.23978(6)
O5B O 1.0883(4) 1.0848(4) 0.2408(5)
O6B O 1.0828(4) 1.0838(3) 0.4034(5)
O7B O 0.7564(4) 0.7266(3) 0.2652(5)
O7_2 O 1.2564(4) 1.2266(3) 0.2652(5)
O8B O 0.7431(4) 0.7295(3) 0.4271(5)
O8_2 O 1.2431(4) 1.2295(3) 0.4271(5)
O9B O 0.2542(4) 1.0842(3) 0.2689(5)
O9B_2 O 1.2542(4) 1.0842(3) 0.2689(5)
O10B O 0.2493(4) 1.0845(3) 0.4320(5)
O10B_2 O 1.2493(4) 1.0845(3) 0.4320(5)
O11B O 0.5923(4) 0.7300(4) 0.2443(5)
O11_2 O 1.0923(4) 1.2300(4) 0.2443(5)
O12B O 0.5799(4) 0.7249(3) 0.4052(5)
O12_2 O 1.0799(4) 1.2249(3) 0.4052(5)
N2_2 N 0.6705(3) 0.6570(6) 0.0931(4)
N2B N 1.1705(3) 1.1570(6) 0.0931(4)
N3_2 N 0.6661(3) 0.6591(5) -0.4229(4)
N3B N 1.1661(3) 1.1591(5) 0.5771(4)
C18B C 1.0657(5) 1.0607(5) 0.3192(8)
C19B C 1.0122(6) 1.0002(5) 0.3080(8)
C20B C 1.0128(7) 0.9597(6) 0.2253(9)
H11B H 1.0403 0.9727 0.1734
C21B C 0.9734(7) 0.9021(7) 0.2222(7)
H12B H 0.9799 0.8719 0.1718
C22B C 0.9220(6) 0.8847(5) 0.2921(8)
C23B C 0.8717(5) 0.8256(5) 0.2885(8)
H13B H 0.8712 0.7968 0.2349
C24B C 0.8252(6) 0.8104(6) 0.3605(8)
C25B C 0.7721(5) 0.7515(5) 0.3513(7)
C26B C 0.8224(6) 0.8534(5) 0.4425(8)
H14B H 0.7899 0.8439 0.4910
C27B C 0.8705(6) 0.9108(6) 0.4480(8)
H15B H 0.8706 0.9381 0.5032
C28B C 0.9193(5) 0.9301(5) 0.3742(7)
C29B C 0.9638(6) 0.9871(6) 0.3785(8)
H16B H 0.9612 1.0174 0.4299
C30B C 0.2716(5) 1.0607(5) 0.3526(7)
C31B C 0.3233(6) 0.9996(4) 0.3623(7)
C32B C 0.3742(5) 0.9869(5) 0.2924(7)
H17B H 0.3788 1.0175 0.2419
C33B C 0.4176(5) 0.9289(5) 0.2985(7)
C34B C 0.4646(6) 0.9126(5) 0.2216(8)
H18B H 0.4638 0.9403 0.1669
C35B C 0.5109(6) 0.8559(5) 0.2283(7)
H19B H 0.5442 0.8473 0.1803
C36B C 0.5087(6) 0.8090(5) 0.3094(8)
C37B C 0.5630(6) 0.7504(5) 0.3196(7)
C38B C 0.4624(5) 0.8242(5) 0.3814(7)
H20B H 0.4626 0.7952 0.4348
C39B C 0.4134(5) 0.8830(6) 0.3785(7)
C40B C 0.3645(6) 0.8970(6) 0.4477(7)
H21B H 0.3594 0.8666 0.4983
C41B C 0.3236(7) 0.9546(6) 0.4430(8)
H22B H 0.2944 0.9656 0.4942
C42_2 C 0.6158(5) 0.6918(6) 0.0370(5)
H23_2 H 0.5784 0.7156 0.0677
C43_2 C 0.6119(5) 0.6944(6) -0.0645(5)
H24_2 H 0.5724 0.7185 -0.1011
C44_2 C 0.6699(5) 0.6591(8) -0.1109(6)
C45_2 C 0.7309(5) 0.6335(6) -0.0508(6)
H25_2 H 0.7743 0.6155 -0.0772
C46_2 C 0.7284(5) 0.6341(5) 0.0492(6)
H26_2 H 0.7716 0.6169 0.0882
C47_2 C 0.6691(4) 0.6585(7) -0.2184(5)
C48_2 C 0.6014(4) 0.6599(6) -0.2789(5)
H27_2 H 0.5535 0.6622 -0.2526
C49_2 C 0.6026(4) 0.6578(6) -0.3785(5)
H28_2 H 0.5546 0.6554 -0.4172
C50_2 C 0.7325(4) 0.6715(6) -0.3657(5)
H29_2 H 0.7775 0.6818 -0.3953
C51_2 C 0.7373(4) 0.6699(6) -0.2652(5)
H30_2 H 0.7855 0.6763 -0.2281
O1 O 0.0905(4) 0.5593(3) 0.9319(5)
O2 O 0.0745(4) 0.5510(3) 1.0910(5)
O3 O 0.4185(4) 0.2012(3) 1.0687(5)
O4 O 0.4185(4) 0.1955(3) 0.9042(5)
N1 N 0.0031(3) 0.6249(5) 0.7566(4)
C1 C 0.1030(5) 0.5323(5) 1.0145(7)
C2 C 0.1573(5) 0.4728(4) 1.0240(7)
C3 C 0.2043(6) 0.4566(5) 0.9509(8)
H1 H 0.2058 0.4852 0.8974
C4 C 0.2482(6) 0.3998(5) 0.9566(7)
C5 C 0.2947(6) 0.3800(6) 0.8755(8)
H2 H 0.2913 0.4049 0.8177
C6 C 0.3429(6) 0.3242(6) 0.8867(8)
H3 H 0.3758 0.3146 0.8386
C7 C 0.3441(7) 0.2801(6) 0.9709(8)
C8 C 0.3970(5) 0.2218(5) 0.9809(7)
C9 C 0.2988(5) 0.2982(5) 1.0442(7)
H4 H 0.3000 0.2708 1.0995
C10 C 0.2489(6) 0.3583(5) 1.0393(8)
C11 C 0.2016(6) 0.3759(5) 1.1139(6)
H5 H 0.1998 0.3477 1.1679
C12 C 0.1607(6) 0.4312(5) 1.1074(8)
H6 H 0.1330 0.4436 1.1594
C13 C 0.0631(4) 0.6523(5) 0.7141(6)
H7 H 0.1044 0.6725 0.7530
C14 C 0.0639(5) 0.6509(6) 0.6152(6)
H8 H 0.1067 0.6686 0.5873
C15 C 0.0004(4) 0.6227(5) 0.5544(5)
C16 C -0.0617(5) 0.5996(6) 0.5985(6)
H9 H -0.1065 0.5840 0.5610
C17 C -0.0577(5) 0.5997(6) 0.6993(6)
H10 H -0.0993 0.5813 0.7288
Ni3 Ni 0.00362(6) 0.62738(5) 0.90494(7)
O1A O -0.0905(4) 0.5593(3) 1.0681(5)
O2A O -0.0745(4) 0.5510(3) 0.9090(5)
O3A O -0.4185(4) 0.2012(3) 0.9313(5)
O3C O 0.0815(4) 0.7012(3) 0.9313(5)
O3B O -0.0815(4) 0.7012(3) 1.0687(5)
O4A O -0.4185(4) 0.1955(3) 1.0958(5)
O4B O -0.0815(4) 0.6955(3) 0.9042(5)
O4C O 0.0815(4) 0.6955(3) 1.0958(5)
N1A N -0.0031(3) 0.6249(5) 0.2434(4)
N1A_2 N -0.0031(3) 0.6249(5) 1.2434(4)
C1A C -0.1030(5) 0.5323(5) 0.9855(7)
C2A C -0.1573(5) 0.4728(4) 0.9760(7)
C3A C -0.2043(6) 0.4566(5) 1.0491(8)
H1A H -0.2058 0.4852 1.1026
C4A C -0.2482(6) 0.3998(5) 1.0434(7)
C5A C -0.2947(6) 0.3800(6) 1.1245(8)
H2A H -0.2913 0.4049 1.1823
C6A C -0.3429(6) 0.3242(6) 1.1133(8)
H3A H -0.3758 0.3146 1.1614
C7A C -0.3441(7) 0.2801(6) 1.0291(8)
C8A C -0.3970(5) 0.2218(5) 1.0191(7)
C9A C -0.2988(5) 0.2982(5) 0.9558(7)
H4A H -0.3000 0.2708 0.9005
C10A C -0.2489(6) 0.3583(5) 0.9607(8)
C11A C -0.2016(6) 0.3759(5) 0.8861(6)
H5A H -0.1998 0.3477 0.8321
C12A C -0.1607(6) 0.4312(5) 0.8926(8)
H6A H -0.1330 0.4436 0.8406
C13A C -0.0631(4) 0.6523(5) 0.2859(6)
H7A H -0.1044 0.6725 0.2470
C14A C -0.0639(5) 0.6509(6) 0.3848(6)
H8A H -0.1067 0.6686 0.4127
C15A C -0.0004(4) 0.6227(5) 0.4456(5)
C16A C 0.0617(5) 0.5996(6) 0.4015(6)
H9A H 0.1065 0.5840 0.4390
C17A C 0.0577(5) 0.5997(6) 0.3007(6)
H10A H 0.0993 0.5813 0.2712
Ni3A Ni -0.00362(6) 0.62738(5) 1.09506(7)
Ni3C Ni 0.49638(6) 0.12738(5) 1.09506(7)
Ni3B Ni 0.50362(6) 0.12738(5) 0.90494(7)
Ni3A_2 Ni -0.00362(6) 0.62738(5) 0.09506(7)
Ni3B_2 Ni -0.49638(6) 0.12738(5) 0.90494(7)
Ni3C_2 Ni -0.50362(6) 0.12738(5) 1.09506(7)
loop_
_geom_bond_atom_site_label_1
_geom_bond_atom_site_label_2
_geom_bond_site_symmetry_1
_geom_bond_site_symmetry_2
Ni1 Ni2 1_555 1_555
Ni2 O5 1_555 1_555
O1 C1 1_555 1_555
O2 C1 1_555 1_555
O3 C8 1_555 1_555
O4 C8 1_555 1_555
O5 C18 1_555 1_555
O6 Ni1 1_555 1_555
O7 C25 1_555 1_555
O8 C25 1_555 1_555
O9 Ni2 1_555 1_555
O10 Ni1 1_555 1_555
O11 C37 1_555 1_555
O12 C37 1_555 1_555
N1 C13 1_555 1_555
N2 C42 1_555 1_555
N3 Ni1 1_555 1_555
C1 C2 1_555 1_555
C2 C3 1_555 1_555
C3 H1 1_555 1_555
C4 C3 1_555 1_555
C5 C4 1_555 1_555
H2 C5 1_555 1_555
C6 C5 1_555 1_555
H3 C6 1_555 1_555
C7 C6 1_555 1_555
C8 C7 1_555 1_555
C9 C7 1_555 1_555
H4 C9 1_555 1_555
C10 C4 1_555 1_555
C11 C10 1_555 1_555
H5 C11 1_555 1_555
C12 C2 1_555 1_555
H6 C12 1_555 1_555
C13 H7 1_555 1_555
C14 C13 1_555 1_555
H8 C14 1_555 1_555
C15 C14 1_555 1_555
C16 C15 1_555 1_555
H9 C16 1_555 1_555
C17 N1 1_555 1_555
H10 C17 1_555 1_555
C18 O6 1_555 1_555
C19 C18 1_555 1_555
C20 C19 1_555 1_555
H11 C20 1_555 1_555
C21 C20 1_555 1_555
H12 C21 1_555 1_555
C22 C21 1_555 1_555
C23 C22 1_555 1_555
H13 C23 1_555 1_555
C24 C23 1_555 1_555
C25 C24 1_555 1_555
C26 C24 1_555 1_555
H14 C26 1_555 1_555
C27 C26 1_555 1_555
H15 C27 1_555 1_555
C28 C22 1_555 1_555
C29 C19 1_555 1_555
H16 C29 1_555 1_555
C30 O9 1_555 1_555
C31 C30 1_555 1_555
C32 C31 1_555 1_555
H17 C32 1_555 1_555
C33 C32 1_555 1_555
C34 C33 1_555 1_555
H18 C34 1_555 1_555
C35 C34 1_555 1_555
H19 C35 1_555 1_555
C36 C35 1_555 1_555
C37 C36 1_555 1_555
C38 C36 1_555 1_555
H20 C38 1_555 1_555
C39 C33 1_555 1_555
C40 C39 1_555 1_555
H21 C40 1_555 1_555
C41 C31 1_555 1_555
H22 C41 1_555 1_555
C42 H23 1_555 1_555
C43 C42 1_555 1_555
H24 C43 1_555 1_555
C44 C43 1_555 1_555
C45 C44 1_555 1_555
H25 C45 1_555 1_555
C46 N2 1_555 1_555
H26 C46 1_555 1_555
C47 C44 1_555 1_555
C48 C47 1_555 1_555
H27 C48 1_555 1_555
C49 N3 1_555 1_555
H28 C49 1_555 1_555
C50 N3 1_555 1_555
H29 C50 1_555 1_555
C51 C47 1_555 1_555
H30 C51 1_555 1_555
Ni3 O1 1_555 1_555
Ni1B Ni2B 1_555 1_555
Ni1B_2 O8 1_555 1_555
Ni1B_3 O12 1_555 1_555
Ni1B_4 Ni2B_4 1_555 1_555
Ni1_2 N3_2 1_555 1_555
Ni2B O5B 1_555 1_555
Ni2B_2 O7 1_555 1_555
Ni2B_3 O11 1_555 1_555
Ni2_2 N2 1_555 1_555
Ni2B_4 O9B 1_555 1_555
O1A C1A 1_555 1_555
O2A Ni3 1_555 1_555
O3A C8A 1_555 1_555
O3C Ni3 1_555 1_555
O3B Ni3A 1_555 1_555
O4A C8A 1_555 1_555
O4B Ni3 1_555 1_555
O4C Ni3A 1_555 1_555
O5B C18B 1_555 1_555
O6B Ni1B 1_555 1_555
O7B Ni2 1_555 1_555
O7_2 Ni2B 1_555 1_555
O8B Ni1 1_555 1_555
O8_2 Ni1B 1_555 1_555
O9B C30B 1_555 1_555
O9B_2 Ni2B 1_555 1_555
O10B Ni1B_4 1_555 1_555
O10B_2 Ni1B 1_555 1_555
O11B Ni2 1_555 1_555
O11_2 Ni2B 1_555 1_555
O12B Ni1 1_555 1_555
O12_2 Ni1B 1_555 1_555
N1A C13A 1_555 1_555
N1A_2 Ni3A 1_555 1_555
N2_2 Ni2 1_555 1_555
N2B Ni2B 1_555 1_555
N3_2 C49_2 1_555 1_555
N3B Ni1B 1_555 1_555
C1A O2A 1_555 1_555
C2A C1A 1_555 1_555
C3A C2A 1_555 1_555
H1A C3A 1_555 1_555
C4A C3A 1_555 1_555
C5A C4A 1_555 1_555
H2A C5A 1_555 1_555
C6A C5A 1_555 1_555
H3A C6A 1_555 1_555
C7A C6A 1_555 1_555
C8A C7A 1_555 1_555
C9A C7A 1_555 1_555
H4A C9A 1_555 1_555
C10A C4A 1_555 1_555
C11A C10A 1_555 1_555
H5A C11A 1_555 1_555
C12A C2A 1_555 1_555
H6A C12A 1_555 1_555
C13A H7A 1_555 1_555
C14A C13A 1_555 1_555
H8A C14A 1_555 1_555
C15A C15 1_555 1_555
C16A C15A 1_555 1_555
H9A C16A 1_555 1_555
C17A N1A 1_555 1_555
H10A C17A 1_555 1_555
C18B O6B 1_555 1_555
C19B C18B 1_555 1_555
C20B C19B 1_555 1_555
H11B C20B 1_555 1_555
C21B C20B 1_555 1_555
H12B C21B 1_555 1_555
C22B C21B 1_555 1_555
C23B C22B 1_555 1_555
H13B C23B 1_555 1_555
C24B C23B 1_555 1_555
C25B O7B 1_555 1_555
C26B C24B 1_555 1_555
H14B C26B 1_555 1_555
C27B C26B 1_555 1_555
H15B C27B 1_555 1_555
C28B C22B 1_555 1_555
C29B C19B 1_555 1_555
H16B C29B 1_555 1_555
C30B O10B 1_555 1_555
C31B C30B 1_555 1_555
C32B C31B 1_555 1_555
H17B C32B 1_555 1_555
C33B C32B 1_555 1_555
C34B C33B 1_555 1_555
H18B C34B 1_555 1_555
C35B C34B 1_555 1_555
H19B C35B 1_555 1_555
C36B C35B 1_555 1_555
C37B O11B 1_555 1_555
C38B C36B 1_555 1_555
H20B C38B 1_555 1_555
C39B C33B 1_555 1_555
C40B C39B 1_555 1_555
H21B C40B 1_555 1_555
C41B C31B 1_555 1_555
H22B C41B 1_555 1_555
C42_2 N2_2 1_555 1_555
H23_2 C42_2 1_555 1_555
C43_2 C42_2 1_555 1_555
H24_2 C43_2 1_555 1_555
C44_2 C43_2 1_555 1_555
C45_2 C44_2 1_555 1_555
H25_2 C45_2 1_555 1_555
C46_2 N2_2 1_555 1_555
H26_2 C46_2 1_555 1_555
C47_2 C44_2 1_555 1_555
C48_2 C47_2 1_555 1_555
H27_2 C48_2 1_555 1_555
C49_2 C48_2 1_555 1_555
H28_2 C49_2 1_555 1_555
C50_2 N3_2 1_555 1_555
H29_2 C50_2 1_555 1_555
C51_2 C47_2 1_555 1_555
H30_2 C51_2 1_555 1_555
Ni3A O2 1_555 1_555
Ni3C O3 1_555 1_555
Ni3B O4 1_555 1_555
Ni3A_2 N1A 1_555 1_555
Ni3B_2 O3A 1_555 1_555
Ni3C_2 O4A 1_555 1_555
O10 C30 1_555 1_555
N1 Ni3 1_555 1_555
C9 C10 1_555 1_555
C11 C12 1_555 1_555
C16 C17 1_555 1_555
C27 C28 1_555 1_555
C28 C29 1_555 1_555
C38 C39 1_555 1_555
C40 C41 1_555 1_555
C45 C46 1_555 1_555
C48 C49 1_555 1_555
C50 C51 1_555 1_555
Ni3 Ni3A 1_555 1_555
Ni1B_2 Ni2B_2 1_555 1_555
Ni1B_3 Ni2B_3 1_555 1_555
O1A Ni3A 1_555 1_555
O8B C25B 1_555 1_555
O12B C37B 1_555 1_555
C9A C10A 1_555 1_555
C11A C12A 1_555 1_555
C14A C15A 1_555 1_555
C16A C17A 1_555 1_555
C24B C25B 1_555 1_555
C27B C28B 1_555 1_555
C28B C29B 1_555 1_555
C36B C37B 1_555 1_555
C38B C39B 1_555 1_555
C40B C41B 1_555 1_555
C45_2 C46_2 1_555 1_555
C50_2 C51_2 1_555 1_555
Ni3C Ni3B 1_555 1_555
Ni3B_2 Ni3C_2 1_555 1_555

#END
