
#######################################################################
#
#                 Cambridge Crystallographic Data Centre
#                                CCDC 
#
#######################################################################
#
# If this CIF has been generated from an entry in the Cambridge 
# Structural Database, then it will include bibliographic, chemical, 
# crystal, experimental, refinement or atomic coordinate data resulting 
# from the CCDC's data processing and validation procedures.
#
#######################################################################

data_BAZBOT
_symmetry_cell_setting           orthorhombic
_symmetry_space_group_name_H-M   'P c c n'
_symmetry_Int_Tables_number      56
_space_group_name_Hall           '-P 2ab 2ac'
loop_
_symmetry_equiv_pos_site_id
_symmetry_equiv_pos_as_xyz
1 x,y,z
2 1/2-x,y,1/2+z
3 x,1/2-y,1/2+z
4 1/2-x,1/2-y,z
5 -x,-y,-z
6 1/2+x,-y,1/2-z
7 -x,1/2+y,1/2-z
8 1/2+x,1/2+y,-z
_cell_length_a                   20.30(1)
_cell_length_b                   6.609(7)
_cell_length_c                   15.24(1)
_cell_angle_alpha                90
_cell_angle_beta                 90
_cell_angle_gamma                90
_cell_volume                     2044.64
loop_
_atom_site_label
_atom_site_type_symbol
_atom_site_fract_x
_atom_site_fract_y
_atom_site_fract_z
Mn1 Mn 0.25000 0.25000 0.40220
O1 O 0.18050 0.23770 0.32030
N1 N 0.18440 0.26530 0.50040
C1 C 0.08410 0.23550 0.41600
C2 C 0.11700 0.20910 0.33480
C3 C 0.07930 0.14620 0.26090
C4 C 0.01190 0.12870 0.26550
C5 C -0.02360 0.16860 0.34690
C6 C -0.09280 0.15570 0.34890
C7 C -0.12470 0.19310 0.42450
C8 C -0.08950 0.24670 0.49980
C9 C -0.02240 0.25900 0.49810
C10 C 0.01400 0.21950 0.42070
C11 C 0.12150 0.26500 0.49410
C12 C 0.21760 0.30670 0.58630
O2 O 0.25050 -0.08340 0.42020
C13 C 0.25000 -0.25000 0.38030
C14 C 0.25000 -0.25000 0.28070
H1 H 0.10410 0.11020 0.20020
H2 H -0.01540 0.08580 0.20760
H3 H -0.12000 0.11640 0.29040
H4 H -0.17770 0.18030 0.42710
H5 H -0.11570 0.28100 0.55960
H6 H 0.00370 0.29820 0.55750
H7 H 0.09410 0.29190 0.55370
H8 H 0.22810 0.46650 0.59130
H9 H 0.18540 0.26210 0.63930
O1C O 0.31950 0.26230 0.32030
N1C N 0.31560 0.23470 0.50040
O2C O 0.24950 0.58340 0.42020
C12C C 0.28240 0.19330 0.58630
O2C_2 O 0.24950 -0.41660 0.42020
C2C C 0.38300 0.29090 0.33480
C11C C 0.37850 0.23500 0.49410
H8C H 0.27190 0.03350 0.59130
H9C H 0.31460 0.23790 0.63930
C1C C 0.41590 0.26450 0.41600
C3C C 0.42070 0.35380 0.26090
H7C H 0.40590 0.20810 0.55370
C10C C 0.48600 0.28050 0.42070
C4C C 0.48810 0.37130 0.26550
H1C H 0.39590 0.38980 0.20020
C5C C 0.52360 0.33140 0.34690
C9C C 0.52240 0.24100 0.49810
H2C H 0.51540 0.41420 0.20760
C6C C 0.59280 0.34430 0.34890
C8C C 0.58950 0.25330 0.49980
H6C H 0.49630 0.20180 0.55750
C7C C 0.62470 0.30690 0.42450
H3C H 0.62000 0.38360 0.29040
H5C H 0.61570 0.21900 0.55960
H4C H 0.67770 0.31970 0.42710
Mn1_2 Mn 0.25000 -0.75000 0.40220
loop_
_geom_bond_atom_site_label_1
_geom_bond_atom_site_label_2
_geom_bond_site_symmetry_1
_geom_bond_site_symmetry_2
Mn1 O1 1_555 1_555
O1 C2 1_555 1_555
N1 Mn1 1_555 1_555
C1 C2 1_555 1_555
C2 C3 1_555 1_555
C3 C4 1_555 1_555
C4 C5 1_555 1_555
C5 C6 1_555 1_555
C6 C7 1_555 1_555
C7 C8 1_555 1_555
C8 C9 1_555 1_555
C9 C10 1_555 1_555
C10 C1 1_555 1_555
C11 N1 1_555 1_555
C12 N1 1_555 1_555
O2 Mn1 1_555 1_555
C13 O2 1_555 1_555
C14 C13 1_555 1_555
H1 C3 1_555 1_555
H2 C4 1_555 1_555
H3 C6 1_555 1_555
H4 C7 1_555 1_555
H5 C8 1_555 1_555
H6 C9 1_555 1_555
H7 C11 1_555 1_555
H8 C12 1_555 1_555
H9 C12 1_555 1_555
O1C Mn1 1_555 1_555
N1C Mn1 1_555 1_555
O2C Mn1 1_555 1_555
C12C C12 1_555 1_555
O2C_2 C13 1_555 1_555
C2C O1C 1_555 1_555
C11C N1C 1_555 1_555
H8C C12C 1_555 1_555
H9C C12C 1_555 1_555
C1C C2C 1_555 1_555
C3C C2C 1_555 1_555
H7C C11C 1_555 1_555
C10C C1C 1_555 1_555
C4C C3C 1_555 1_555
H1C C3C 1_555 1_555
C5C C10C 1_555 1_555
C9C C10C 1_555 1_555
H2C C4C 1_555 1_555
C6C C5C 1_555 1_555
C8C C9C 1_555 1_555
H6C C9C 1_555 1_555
C7C C6C 1_555 1_555
H3C C6C 1_555 1_555
H5C C8C 1_555 1_555
H4C C7C 1_555 1_555
Mn1_2 O2C_2 1_555 1_555
C1 C11 1_555 1_555
C5 C10 1_555 1_555
N1C C12C 1_555 1_555
C11C C1C 1_555 1_555
C4C C5C 1_555 1_555
C8C C7C 1_555 1_555

#END
