
#######################################################################
#
#                 Cambridge Crystallographic Data Centre
#                                CCDC 
#
#######################################################################
#
# If this CIF has been generated from an entry in the Cambridge 
# Structural Database, then it will include bibliographic, chemical, 
# crystal, experimental, refinement or atomic coordinate data resulting 
# from the CCDC's data processing and validation procedures.
#
#######################################################################

data_BAZBUB
_symmetry_cell_setting           monoclinic
_symmetry_space_group_name_H-M   'P 21/c'
_symmetry_Int_Tables_number      14
_space_group_name_Hall           '-P 2ybc'
loop_
_symmetry_equiv_pos_site_id
_symmetry_equiv_pos_as_xyz
1 x,y,z
2 -x,1/2+y,1/2-z
3 -x,-y,-z
4 x,1/2-y,1/2+z
_cell_length_a                   6.6447(10)
_cell_length_b                   44.942(7)
_cell_length_c                   6.9234(10)
_cell_angle_alpha                90
_cell_angle_beta                 109.998(3)
_cell_angle_gamma                90
_cell_volume                     1942.85
loop_
_atom_site_label
_atom_site_type_symbol
_atom_site_fract_x
_atom_site_fract_y
_atom_site_fract_z
C1 C 1.1058(10) 0.03290(15) 0.6634(10)
O1 O 1.6386(8) -0.01538(11) 0.8219(8)
Ag1 Ag 0.99227(10) 0.033909(12) 0.93723(10)
Ag2 Ag 1.12860(9) -0.014550(11) 0.71578(9)
Ag3 Ag 1.47214(9) 0.033850(13) 0.81916(10)
O2 O 1.4103(8) -0.02942(11) 0.5297(8)
O3 O 1.6856(9) -0.05660(11) 0.6846(9)
N1 N 1.5771(9) -0.03429(13) 0.6746(10)
C2 C 0.5908(12) 0.10587(15) 1.0320(11)
C3 C 1.1588(12) 0.11027(15) 0.5334(12)
H1 H 1.2900 0.1038 0.5287
O4 O 0.6725(11) 0.18841(11) 0.5078(10)
O5 O 0.1733(10) 0.19750(12) 1.0214(10)
C4 C 0.3938(12) 0.11154(15) 1.0592(12)
H2 H 0.3136 0.0961 1.0853
C5 C 1.0180(12) 0.09000(14) 0.5689(11)
C6 C 0.6751(11) 0.07598(15) 1.0493(10)
C7 C 0.7702(11) 0.05265(15) 1.0750(10)
O6 O 0.4506(11) 0.21597(12) 0.9481(11)
C8 C 0.4346(13) 0.16387(15) 1.0041(12)
C9 C 1.0751(11) 0.05883(15) 0.6190(10)
C10 C 0.8193(12) 0.09996(15) 0.5670(11)
H3 H 0.7218 0.0865 0.5869
C11 C 0.6272(13) 0.15802(16) 0.9771(12)
H4 H 0.7040 0.1735 0.9459
C12 C 0.7065(12) 0.12931(15) 0.9960(12)
H5 H 0.8398 0.1258 0.9842
C13 C 1.1054(14) 0.14002(15) 0.5050(12)
H6 H 1.2015 0.1534 0.4820
C14 C 0.7659(12) 0.12951(15) 0.5360(12)
H7 H 0.6312 0.1358 0.5321
O7 O 0.9778(11) 0.20098(12) 0.4630(12)
C15 C 0.9100(13) 0.15022(15) 0.5104(11)
C16 C 0.3223(12) 0.14050(15) 1.0463(12)
H8 H 0.1936 0.1444 1.0669
C17 C 0.3583(15) 0.19524(17) 0.9841(14)
C18 C 0.8603(16) 0.18240(17) 0.4876(13)
C19 C 0.0863(16) 0.22724(18) 1.0120(16)
H9 H 0.1922 0.2401 1.1029
H10 H -0.0379 0.2267 1.0529
H11 H 0.0470 0.2346 0.8740
C20 C 0.6077(17) 0.21918(17) 0.4926(15)
H12 H 0.7195 0.2309 0.5867
H13 H 0.4795 0.2210 0.5261
H14 H 0.5809 0.2261 0.3549
C1B C 0.8942(10) -0.03290(15) 1.3366(10)
O1B O 0.3614(8) 0.01538(11) 1.1781(8)
Ag1B Ag 1.00773(10) -0.033909(12) 1.06277(10)
Ag1_2 Ag 1.99227(10) 0.033909(12) 0.93723(10)
Ag1B_2 Ag 0.00773(10) -0.033909(12) 1.06277(10)
Ag2B Ag 0.87140(9) 0.014550(11) 1.28422(9)
Ag2B_2 Ag 1.87140(9) 0.014550(11) 1.28422(9)
Ag2B_3 Ag 0.87140(9) 0.014550(11) 0.28422(9)
Ag2_2 Ag 1.12860(9) -0.014550(11) 1.71578(9)
Ag2_3 Ag 0.12860(9) -0.014550(11) 0.71578(9)
Ag3_2 Ag 0.47214(9) 0.033850(13) 0.81916(10)
Ag3B Ag 0.52786(9) -0.033850(13) 1.18084(10)
Ag3B_2 Ag 1.52786(9) -0.033850(13) 1.18084(10)
O2B O 0.5897(8) 0.02942(11) 1.4703(8)
O3B O 0.3144(9) 0.05660(11) 1.3154(9)
N1B N 0.4229(9) 0.03429(13) 1.3254(10)
C2B C 1.4092(12) -0.10587(15) 0.9680(11)
C2_2 C 1.5908(12) 0.10587(15) 1.0320(11)
C2B_2 C 0.4092(12) -0.10587(15) 0.9680(11)
C3B C 0.8412(12) -0.11027(15) 1.4666(12)
H1B H 0.7100 -0.1038 1.4713
O4B O 1.3275(11) -0.18841(11) 1.4922(10)
O5B O 1.8267(10) -0.19750(12) 0.9786(10)
O5_2 O 1.1733(10) 0.19750(12) 1.0214(10)
O5B_2 O 0.8267(10) -0.19750(12) 0.9786(10)
C4B C 1.6062(12) -0.11154(15) 0.9408(12)
C4_2 C 1.3938(12) 0.11154(15) 1.0592(12)
C4B_2 C 0.6062(12) -0.11154(15) 0.9408(12)
H2B H 1.6864 -0.0961 0.9147
H2_2 H 1.3136 0.0961 1.0853
H2B_2 H 0.6864 -0.0961 0.9147
C5B C 0.9820(12) -0.09000(14) 1.4311(11)
C6B C 1.3249(11) -0.07598(15) 0.9507(10)
C6_2 C 1.6751(11) 0.07598(15) 1.0493(10)
C6B_2 C 0.3249(11) -0.07598(15) 0.9507(10)
C7B C 1.2298(11) -0.05265(15) 0.9250(10)
C7_2 C 1.7702(11) 0.05265(15) 1.0750(10)
C7B_2 C 0.2298(11) -0.05265(15) 0.9250(10)
O6B O 1.5494(11) -0.21597(12) 1.0519(11)
O6_2 O 1.4506(11) 0.21597(12) 0.9481(11)
O6B_2 O 0.5494(11) -0.21597(12) 1.0519(11)
C8B C 1.5654(13) -0.16387(15) 0.9959(12)
C8_2 C 1.4346(13) 0.16387(15) 1.0041(12)
C8B_2 C 0.5654(13) -0.16387(15) 0.9959(12)
C9B C 0.9249(11) -0.05883(15) 1.3810(10)
C10B C 1.1807(12) -0.09996(15) 1.4330(11)
H3B H 1.2782 -0.0865 1.4131
C11B C 1.3728(13) -0.15802(16) 1.0229(12)
C11_2 C 1.6272(13) 0.15802(16) 0.9771(12)
C11B_2 C 0.3728(13) -0.15802(16) 1.0229(12)
H4B H 1.2960 -0.1735 1.0541
H4_2 H 1.7040 0.1735 0.9459
H4B_2 H 0.2960 -0.1735 1.0541
C12B C 1.2935(12) -0.12931(15) 1.0040(12)
C12_2 C 1.7065(12) 0.12931(15) 0.9960(12)
C12B_2 C 0.2935(12) -0.12931(15) 1.0040(12)
H5B H 1.1602 -0.1258 1.0158
H5_2 H 1.8398 0.1258 0.9842
H5B_2 H 0.1602 -0.1258 1.0158
C13B C 0.8946(14) -0.14002(15) 1.4950(12)
H6B H 0.7985 -0.1534 1.5180
C14B C 1.2341(12) -0.12951(15) 1.4640(12)
H7B H 1.3688 -0.1358 1.4679
O7B O 1.0222(11) -0.20098(12) 1.5370(12)
C15B C 1.0900(13) -0.15022(15) 1.4896(11)
C16B C 1.6777(12) -0.14050(15) 0.9537(12)
C16_2 C 1.3223(12) 0.14050(15) 1.0463(12)
C16B_2 C 0.6777(12) -0.14050(15) 0.9537(12)
H8B H 1.8064 -0.1444 0.9331
H8_2 H 1.1936 0.1444 1.0669
H8B_2 H 0.8064 -0.1444 0.9331
C17B C 1.6417(15) -0.19524(17) 1.0159(14)
C17_2 C 1.3583(15) 0.19524(17) 0.9841(14)
C17B_2 C 0.6417(15) -0.19524(17) 1.0159(14)
C18B C 1.1397(16) -0.18240(17) 1.5124(13)
C19B C 1.9137(16) -0.22724(18) 0.9880(16)
C19_2 C 1.0863(16) 0.22724(18) 1.0120(16)
C19B_2 C 0.9137(16) -0.22724(18) 0.9880(16)
H9B H 1.8078 -0.2401 0.8971
H9_2 H 1.1922 0.2401 1.1029
H9B_2 H 0.8078 -0.2401 0.8971
H10B H 2.0379 -0.2267 0.9471
H10_2 H 0.9621 0.2267 1.0529
H10B_2 H 1.0379 -0.2267 0.9471
H11B H 1.9530 -0.2346 1.1260
H11_2 H 1.0470 0.2346 0.8740
H11B_2 H 0.9530 -0.2346 1.1260
C20B C 1.3923(17) -0.21918(17) 1.5074(15)
H12B H 1.2805 -0.2309 1.4133
H13B H 1.5205 -0.2210 1.4739
H14B H 1.4191 -0.2261 1.6451
loop_
_geom_bond_atom_site_label_1
_geom_bond_atom_site_label_2
_geom_bond_site_symmetry_1
_geom_bond_site_symmetry_2
C1 Ag1 1_555 1_555
O1 Ag3 1_555 1_555
Ag1 Ag2 1_555 1_555
Ag2 C1 1_555 1_555
Ag3 C1 1_555 1_555
O2 N1 1_555 1_555
O3 N1 1_555 1_555
N1 O1 1_555 1_555
C2 C4 1_555 1_555
C3 H1 1_555 1_555
O4 C18 1_555 1_555
O5 C17 1_555 1_555
C4 H2 1_555 1_555
C5 C3 1_555 1_555
C6 C2 1_555 1_555
C7 Ag1 1_555 1_555
O6 C17 1_555 1_555
C8 C11 1_555 1_555
C9 C1 1_555 1_555
C10 C5 1_555 1_555
H3 C10 1_555 1_555
C11 H4 1_555 1_555
C12 C2 1_555 1_555
H5 C12 1_555 1_555
C13 C3 1_555 1_555
H6 C13 1_555 1_555
C14 C10 1_555 1_555
H7 C14 1_555 1_555
O7 C18 1_555 1_555
C15 C13 1_555 1_555
C16 C4 1_555 1_555
H8 C16 1_555 1_555
C17 C8 1_555 1_555
C18 C15 1_555 1_555
C19 O5 1_555 1_555
H9 C19 1_555 1_555
H10 C19 1_555 1_555
H11 C19 1_555 1_555
C20 O4 1_555 1_555
H12 C20 1_555 1_555
H13 C20 1_555 1_555
H14 C20 1_555 1_555
C1B Ag1B 1_555 1_555
O1B Ag3B 1_555 1_555
Ag1B Ag1 1_555 1_555
Ag1_2 Ag3 1_555 1_555
Ag1B_2 Ag2_3 1_555 1_555
Ag2B Ag1 1_555 1_555
Ag2B_2 Ag1_2 1_555 1_555
Ag2B_3 Ag2 1_555 1_555
Ag2_2 Ag2B 1_555 1_555
Ag2_3 Ag3_2 1_555 1_555
Ag3_2 Ag1 1_555 1_555
Ag3B C1B 1_555 1_555
Ag3B_2 Ag1B 1_555 1_555
O2B N1B 1_555 1_555
O3B N1B 1_555 1_555
N1B O1B 1_555 1_555
C2B C4B 1_555 1_555
C2_2 C4_2 1_555 1_555
C2B_2 C4B_2 1_555 1_555
C3B H1B 1_555 1_555
O4B C18B 1_555 1_555
O5B C17B 1_555 1_555
O5_2 C17_2 1_555 1_555
O5B_2 C17B_2 1_555 1_555
C4B H2B 1_555 1_555
C4_2 H2_2 1_555 1_555
C4B_2 H2B_2 1_555 1_555
C5B C3B 1_555 1_555
C6B Ag3B_2 1_555 1_555
C6_2 Ag3 1_555 1_555
C6B_2 Ag3B 1_555 1_555
C7B Ag2 1_555 1_555
C7_2 Ag3 1_555 1_555
C7B_2 Ag1B_2 1_555 1_555
O6B C17B 1_555 1_555
O6_2 C17_2 1_555 1_555
O6B_2 C17B_2 1_555 1_555
C8B C11B 1_555 1_555
C8_2 C11_2 1_555 1_555
C8B_2 C11B_2 1_555 1_555
C9B C1B 1_555 1_555
C10B C5B 1_555 1_555
H3B C10B 1_555 1_555
C11B H4B 1_555 1_555
C11_2 H4_2 1_555 1_555
C11B_2 H4B_2 1_555 1_555
C12B C2B 1_555 1_555
C12_2 C2_2 1_555 1_555
C12B_2 C2B_2 1_555 1_555
H5B C12B 1_555 1_555
H5_2 C12_2 1_555 1_555
H5B_2 C12B_2 1_555 1_555
C13B C3B 1_555 1_555
H6B C13B 1_555 1_555
C14B C10B 1_555 1_555
H7B C14B 1_555 1_555
O7B C18B 1_555 1_555
C15B C13B 1_555 1_555
C16B C4B 1_555 1_555
C16_2 C4_2 1_555 1_555
C16B_2 C4B_2 1_555 1_555
H8B C16B 1_555 1_555
H8_2 C16_2 1_555 1_555
H8B_2 C16B_2 1_555 1_555
C17B C8B 1_555 1_555
C17_2 C8_2 1_555 1_555
C17B_2 C8B_2 1_555 1_555
C18B C15B 1_555 1_555
C19B O5B 1_555 1_555
C19_2 O5_2 1_555 1_555
C19B_2 O5B_2 1_555 1_555
H9B C19B 1_555 1_555
H9_2 C19_2 1_555 1_555
H9B_2 C19B_2 1_555 1_555
H10B C19B 1_555 1_555
H10_2 C19_2 1_555 1_555
H10B_2 C19B_2 1_555 1_555
H11B C19B 1_555 1_555
H11_2 C19_2 1_555 1_555
H11B_2 C19B_2 1_555 1_555
C20B O4B 1_555 1_555
H12B C20B 1_555 1_555
H13B C20B 1_555 1_555
H14B C20B 1_555 1_555
Ag2 Ag3 1_555 1_555
Ag2 Ag1B 1_555 1_555
C5 C9 1_555 1_555
C6 C7 1_555 1_555
C6 Ag3_2 1_555 1_555
C7 Ag2B 1_555 1_555
C7 Ag3_2 1_555 1_555
C8 C16 1_555 1_555
C11 C12 1_555 1_555
C14 C15 1_555 1_555
C1B Ag2B 1_555 1_555
Ag1B Ag2B 1_555 1_555
Ag1B C7B 1_555 1_555
Ag1_2 C7_2 1_555 1_555
Ag1B_2 Ag3B 1_555 1_555
Ag2B Ag3B 1_555 1_555
Ag2B_2 Ag3B_2 1_555 1_555
Ag2B_2 C7_2 1_555 1_555
Ag2_3 C7B_2 1_555 1_555
Ag3B C7B_2 1_555 1_555
Ag3B_2 C7B 1_555 1_555
C2B C6B 1_555 1_555
C2_2 C6_2 1_555 1_555
C2B_2 C6B_2 1_555 1_555
C5B C9B 1_555 1_555
C6B C7B 1_555 1_555
C6_2 C7_2 1_555 1_555
C6B_2 C7B_2 1_555 1_555
C8B C16B 1_555 1_555
C8_2 C16_2 1_555 1_555
C8B_2 C16B_2 1_555 1_555
C11B C12B 1_555 1_555
C11_2 C12_2 1_555 1_555
C11B_2 C12B_2 1_555 1_555
C14B C15B 1_555 1_555

#END
