
#######################################################################
#
#                 Cambridge Crystallographic Data Centre
#                                CCDC 
#
#######################################################################
#
# If this CIF has been generated from an entry in the Cambridge 
# Structural Database, then it will include bibliographic, chemical, 
# crystal, experimental, refinement or atomic coordinate data resulting 
# from the CCDC's data processing and validation procedures.
#
#######################################################################

data_BAZBOU01
_symmetry_cell_setting           monoclinic
_symmetry_space_group_name_H-M   'C 2'
_symmetry_Int_Tables_number      5
_space_group_name_Hall           'C 2y'
loop_
_symmetry_equiv_pos_site_id
_symmetry_equiv_pos_as_xyz
1 x,y,z
2 -x,y,-z
3 1/2+x,1/2+y,z
4 1/2-x,1/2+y,-z
_cell_length_a                   17.285(11)
_cell_length_b                   19.965(13)
_cell_length_c                   13.994(9)
_cell_angle_alpha                90
_cell_angle_beta                 95.822(11)
_cell_angle_gamma                90
_cell_volume                     4804.35
loop_
_atom_site_label
_atom_site_type_symbol
_atom_site_fract_x
_atom_site_fract_y
_atom_site_fract_z
Co1 Co -0.0039(1) 0.1793(1) 0.5976(1)
O1 O -0.0879(7) 0.2504(4) 0.5668(8)
O2 O 0.0812(7) 0.1090(5) 0.5898(9)
C1 C -0.1573(9) 0.3339(7) 0.4747(12)
C2 C -0.2027(8) 0.4366(7) 0.3855(10)
C3 C -0.2537(10) 0.4056(9) 0.5414(11)
C4 C -0.2910(8) 0.4317(7) 0.6211(10)
C5 C 0.1552(10) 0.0253(8) 0.5262(12)
C6 C 0.1013(9) 0.0849(7) 0.5150(12)
C7 C 0.0597(4) 0.2092(5) 0.8031(5)
C8 C -0.0008(5) 0.1814(5) 0.9455(3)
C9 C -0.0635(4) 0.1521(5) 0.7896(5)
O3 O 0.0765(6) 0.2552(5) 0.5935(7)
O4 O -0.0844(7) 0.1065(5) 0.5660(8)
C10 C -0.1047(9) 0.2752(7) 0.4834(12)
C11 C -0.1568(8) 0.3788(7) 0.3960(10)
C12 C -0.2524(8) 0.4500(7) 0.4576(10)
C13 C -0.2021(9) 0.3516(8) 0.5486(12)
C14 C 0.1644(8) -0.0126(6) 0.6128(10)
C15 C 0.2024(9) 0.0075(8) 0.4525(12)
N1 N -0.0022(4) 0.1804(5) 0.7467(3)
C16 C 0.0605(4) 0.2097(5) 0.9025(5)
C17 C -0.0628(4) 0.1526(6) 0.8890(5)
Co1A Co 0.0039(1) 0.1793(1) 0.4024(1)
Co1B Co -0.5039(1) 0.6793(1) 0.5976(1)
Co1C Co -0.4961(1) 0.6793(1) 0.4024(1)
Co1A_2 Co 0.0039(1) 0.1793(1) 1.4024(1)
Co1B_2 Co 0.4961(1) -0.3207(1) 0.5976(1)
Co1C_2 Co 0.5039(1) -0.3207(1) 0.4024(1)
Co1_2 Co -0.0039(1) 0.1793(1) -0.4024(1)
Co1C_3 Co 0.5039(1) 0.6793(1) 0.4024(1)
Co1B_3 Co 0.4961(1) 0.6793(1) 0.5976(1)
Co1C_4 Co -0.4961(1) -0.3207(1) 0.4024(1)
Co1B_4 Co -0.5039(1) -0.3207(1) 0.5976(1)
Co1A_3 Co 0.0039(1) 0.1793(1) -0.5976(1)
O1A O 0.0879(7) 0.2504(4) 0.4332(8)
O1B O 0.4121(7) -0.2496(4) 0.5668(8)
O1C O -0.4121(7) -0.2496(4) 0.4332(8)
O1_2 O -0.0879(7) 0.2504(4) -0.4332(8)
O1A_2 O 0.0879(7) 0.2504(4) -0.5668(8)
O2A O -0.0812(7) 0.1090(5) 0.4102(9)
O2B O -0.4188(7) 0.6090(5) 0.5898(9)
O2C O 0.4188(7) 0.6090(5) 0.4102(9)
O2_2 O 0.0812(7) 0.1090(5) -0.4102(9)
O2A_2 O -0.0812(7) 0.1090(5) -0.5898(9)
C1A C 0.1573(9) 0.3339(7) 0.5253(12)
C1B C 0.3427(9) -0.1661(7) 0.4747(12)
C1C C -0.3427(9) -0.1661(7) 0.5253(12)
C2B C 0.2973(8) -0.0634(7) 0.3855(10)
C2A C 0.2027(8) 0.4366(7) 0.6145(10)
C2C C -0.2973(8) -0.0634(7) 0.6145(10)
C3B C 0.2463(10) -0.0944(9) 0.5414(11)
C3A C 0.2537(10) 0.4056(9) 0.4586(11)
C3C C -0.2463(10) -0.0944(9) 0.4586(11)
C4B C 0.2090(8) -0.0683(7) 0.6211(10)
C4C C -0.2090(8) -0.0683(7) 0.3789(10)
C4A C 0.2910(8) 0.4317(7) 0.3789(10)
C5B C -0.3448(10) 0.5253(8) 0.5262(12)
C5A C -0.1552(10) 0.0253(8) 0.4738(12)
C5C C 0.3448(10) 0.5253(8) 0.4738(12)
C6A C -0.1013(9) 0.0849(7) 0.4850(12)
C6B C -0.3987(9) 0.5849(7) 0.5150(12)
C6C C 0.3987(9) 0.5849(7) 0.4850(12)
C7A C -0.0597(4) 0.2092(5) 0.1969(5)
C7A_2 C -0.0597(4) 0.2092(5) 1.1969(5)
C7_2 C 0.0597(4) 0.2092(5) -0.1969(5)
C8A C 0.0008(5) 0.1814(5) 1.0545(3)
C8A_2 C 0.0008(5) 0.1814(5) 0.0545(3)
C8_2 C -0.0008(5) 0.1814(5) -0.0545(3)
C9A C 0.0635(4) 0.1521(5) 0.2104(5)
C9A_2 C 0.0635(4) 0.1521(5) 1.2104(5)
C9_2 C -0.0635(4) 0.1521(5) -0.2104(5)
O3A O -0.0765(6) 0.2552(5) 0.4065(7)
O3C O 0.4235(6) -0.2448(5) 0.4065(7)
O3B O -0.4235(6) -0.2448(5) 0.5935(7)
O3_2 O 0.0765(6) 0.2552(5) -0.4065(7)
O3A_2 O -0.0765(6) 0.2552(5) -0.5935(7)
O4A O 0.0844(7) 0.1065(5) 0.4340(8)
O4C O -0.4156(7) 0.6065(5) 0.4340(8)
O4B O 0.4156(7) 0.6065(5) 0.5660(8)
O4_2 O -0.0844(7) 0.1065(5) -0.4340(8)
O4A_2 O 0.0844(7) 0.1065(5) -0.5660(8)
C10A C 0.1047(9) 0.2752(7) 0.5166(12)
C10B C 0.3953(9) -0.2248(7) 0.4834(12)
C10C C -0.3953(9) -0.2248(7) 0.5166(12)
C11A C 0.1568(8) 0.3788(7) 0.6040(10)
C11B C 0.3432(8) -0.1212(7) 0.3960(10)
C11C C -0.3432(8) -0.1212(7) 0.6040(10)
C12B C 0.2476(8) -0.0500(7) 0.4576(10)
C12C C -0.2476(8) -0.0500(7) 0.5424(10)
C12A C 0.2524(8) 0.4500(7) 0.5424(10)
C13A C 0.2021(9) 0.3516(8) 0.4514(12)
C13B C 0.2979(9) -0.1484(8) 0.5486(12)
C13C C -0.2979(9) -0.1484(8) 0.4514(12)
C14B C -0.3356(8) 0.4874(6) 0.6128(10)
C14A C -0.1644(8) -0.0126(6) 0.3872(10)
C14C C 0.3356(8) 0.4874(6) 0.3872(10)
C15B C -0.2976(9) 0.5075(8) 0.4525(12)
C15A C -0.2024(9) 0.0075(8) 0.5475(12)
C15C C 0.2976(9) 0.5075(8) 0.5475(12)
N1A N 0.0022(4) 0.1804(5) 0.2533(3)
N1A_2 N 0.0022(4) 0.1804(5) 1.2533(3)
N1_2 N -0.0022(4) 0.1804(5) -0.2533(3)
N1A_3 N 0.0022(4) 0.1804(5) -0.7467(3)
C16A C -0.0605(4) 0.2097(5) 1.0975(5)
C16A_2 C -0.0605(4) 0.2097(5) 0.0975(5)
C16_2 C 0.0605(4) 0.2097(5) -0.0975(5)
C17A C 0.0628(4) 0.1526(6) 1.1110(5)
C17A_2 C 0.0628(4) 0.1526(6) 0.1110(5)
C17_2 C -0.0628(4) 0.1526(6) -0.1110(5)
Co2 Co 0.8359(1) 0.6518(1) 0.0667(1)
O5 O 0.7532(7) 0.5804(6) 0.0753(9)
O6 O 0.9173(7) 0.7254(5) 0.0958(9)
O7 O 0.9215(8) 0.5822(6) 0.0977(9)
O8 O 0.7458(7) 0.7242(5) 0.2328(8)
C18 C 0.7275(10) 0.5568(8) 0.1485(13)
C19 C 0.6269(10) 0.4784(8) 0.2117(13)
C20 C 0.5834(10) 0.3798(9) 0.1275(12)
C21 C 0.6672(9) 0.4577(8) 0.0528(12)
C22 C 0.4860(10) 0.3062(9) 0.1934(13)
C23 C 0.5253(9) 0.4107(9) 0.2761(11)
C24 C 0.9354(10) 0.5562(8) 0.1809(13)
Co3 Co 0.8278(1) 0.6506(1) 0.2626(1)
O9 O 0.7421(7) 0.5832(5) 0.2303(6)
O10 O 0.9092(7) 0.7240(6) 0.2589(8)
O11 O 0.9114(7) 0.5777(5) 0.2536(8)
O12 O 0.7531(6) 0.7249(5) 0.0686(7)
N2 N 0.8290(5) 0.6484(7) 0.4087(6)
C25 C 0.6733(9) 0.4958(8) 0.1386(13)
C26 C 0.5818(10) 0.4198(9) 0.2079(12)
C27 C 0.6239(9) 0.4034(8) 0.0502(12)
C28 C 0.5350(9) 0.3197(9) 0.1242(13)
C29 C 0.4802(9) 0.3538(8) 0.2709(11)
C30 C 0.9360(9) 0.7480(8) 0.1837(13)
C31 C 0.9917(9) 0.4966(8) 0.1899(12)
C32 C 0.9958(8) 0.4574(7) 0.2740(11)
C33 C 1.0839(9) 0.3775(8) 0.2007(11)
C34 C 1.0388(9) 0.4834(8) 0.1201(12)
C35 C 1.1822(9) 0.3552(8) 0.0647(11)
C36 C 1.1312(9) 0.3203(8) 0.2076(12)
C37 C 0.7753(7) 0.6717(6) 0.4537(9)
C38 C 0.8295(7) 0.6472(8) 0.6130(7)
C39 C 0.8827(7) 0.6190(7) 0.4663(9)
C40 C 0.7614(3) 0.6392(6) 0.7619(5)
N3 N 0.8338(4) 0.6444(5) -0.0820(3)
C41 C 0.9012(3) 0.6452(6) 0.7756(5)
C42 C 1.0392(8) 0.4010(7) 0.2773(10)
C43 C 1.0828(9) 0.4220(9) 0.1222(12)
C44 C 1.1387(8) 0.4131(8) 0.0563(11)
C45 C 1.1759(9) 0.3067(8) 0.1392(12)
C46 C 0.7275(9) 0.7499(7) 0.1480(12)
C47 C 0.7704(7) 0.6732(6) 0.5514(8)
C48 C 0.8858(7) 0.6146(7) 0.5663(8)
C49 C 0.8304(4) 0.6415(5) 0.7190(3)
C50 C 0.7631(3) 0.6407(6) -0.1386(5)
C51 C 0.9029(3) 0.6467(6) -0.1249(5)
Co2B Co 0.3359(1) 0.1518(1) 0.0667(1)
Co2_2 Co 0.8359(1) 0.6518(1) 1.0667(1)
Co2B_2 Co 1.3359(1) 0.1518(1) 0.0667(1)
Co2B_3 Co 1.3359(1) 1.1518(1) 0.0667(1)
Co2B_4 Co 0.3359(1) 1.1518(1) 0.0667(1)
O5_2 O 0.7532(7) 0.5804(6) 1.0753(9)
O5B O 1.2532(7) 1.0804(6) 0.0753(9)
O6B O 0.4173(7) 0.2254(5) 0.0958(9)
O6_2 O 0.9173(7) 0.7254(5) 1.0958(9)
O7_2 O 0.9215(8) 0.5822(6) 1.0977(9)
O7B O 0.4215(8) 1.0822(6) 0.0977(9)
O8B O 1.2458(7) 0.2242(5) 0.2328(8)
O8_2 O 0.7458(7) 0.7242(5) 1.2328(8)
C18B C 1.2275(10) 1.0568(8) 0.1485(13)
C19B C 1.1269(10) 0.9784(8) 0.2117(13)
C20B C 1.0834(10) 0.8798(9) 0.1275(12)
C21B C 1.1672(9) 0.9577(8) 0.0528(12)
C22B C 0.9860(10) 0.8062(9) 0.1934(13)
C23B C 1.0253(9) 0.9107(9) 0.2761(11)
C24B C 0.4354(10) 1.0562(8) 0.1809(13)
Co3B Co 0.3278(1) 0.1506(1) 0.2626(1)
Co3B_2 Co 1.3278(1) 0.1506(1) 0.2626(1)
Co3_2 Co 0.8278(1) 0.6506(1) 1.2626(1)
Co3_3 Co 0.8278(1) 0.6506(1) -0.7374(1)
Co3B_3 Co 1.3278(1) 1.1506(1) 0.2626(1)
Co3B_4 Co 0.3278(1) 1.1506(1) 0.2626(1)
O9_2 O 0.7421(7) 0.5832(5) 1.2303(6)
O9B O 1.2421(7) 1.0832(5) 0.2303(6)
O10B O 0.4092(7) 0.2240(6) 0.2589(8)
O10_2 O 0.9092(7) 0.7240(6) 1.2589(8)
O11_2 O 0.9114(7) 0.5777(5) 1.2536(8)
O11B O 0.4114(7) 1.0777(5) 0.2536(8)
O12B O 1.2531(6) 0.2249(5) 0.0686(7)
O12_2 O 0.7531(6) 0.7249(5) 1.0686(7)
N2_2 N 0.8290(5) 0.6484(7) 1.4087(6)
N2_3 N 0.8290(5) 0.6484(7) -0.5913(6)
C25B C 1.1733(9) 0.9958(8) 0.1386(13)
C26B C 1.0818(10) 0.9198(9) 0.2079(12)
C27B C 1.1239(9) 0.9034(8) 0.0502(12)
C28B C 1.0350(9) 0.8197(9) 0.1242(13)
C29B C 0.9802(9) 0.8538(8) 0.2709(11)
C30B C 0.4360(9) 0.2480(8) 0.1837(13)
C31B C 0.4917(9) 0.9966(8) 0.1899(12)
C32B C 0.4958(8) 0.9574(7) 0.2740(11)
C33B C 0.5839(9) 0.8775(8) 0.2007(11)
C34B C 0.5388(9) 0.9834(8) 0.1201(12)
C35B C 0.6822(9) 0.8552(8) 0.0647(11)
C36B C 0.6312(9) 0.8203(8) 0.2076(12)
C37_2 C 0.7753(7) 0.6717(6) -0.5463(9)
C38_2 C 0.8295(7) 0.6472(8) -0.3870(7)
C39_2 C 0.8827(7) 0.6190(7) -0.5337(9)
C40_2 C 0.7614(3) 0.6392(6) -0.2381(5)
N3_2 N 0.8338(4) 0.6444(5) 0.9180(3)
C41_2 C 0.9012(3) 0.6452(6) -0.2244(5)
C42B C 0.5392(8) 0.9010(7) 0.2773(10)
C43B C 0.5828(9) 0.9220(9) 0.1222(12)
C44B C 0.6387(8) 0.9131(8) 0.0563(11)
C45B C 0.6759(9) 0.8067(8) 0.1392(12)
C46B C 1.2275(9) 0.2499(7) 0.1480(12)
C47_2 C 0.7704(7) 0.6732(6) -0.4486(8)
C48_2 C 0.8858(7) 0.6146(7) -0.4337(8)
C49_2 C 0.8304(4) 0.6415(5) -0.2810(3)
C50_2 C 0.7631(3) 0.6407(6) 0.8614(5)
C51_2 C 0.9029(3) 0.6467(6) 0.8751(5)
loop_
_geom_bond_atom_site_label_1
_geom_bond_atom_site_label_2
_geom_bond_site_symmetry_1
_geom_bond_site_symmetry_2
Co1 O1 1_555 1_555
O1 C10 1_555 1_555
O2 Co1 1_555 1_555
C1 C10 1_555 1_555
C2 C11 1_555 1_555
C3 C4 1_555 1_555
C4 C14B 1_555 1_555
C5 C6 1_555 1_555
C6 O2 1_555 1_555
C7 N1 1_555 1_555
C8 C16 1_555 1_555
C9 N1 1_555 1_555
O3 Co1 1_555 1_555
O4 Co1 1_555 1_555
C10 O3A 1_555 1_555
C11 C1 1_555 1_555
C12 C2 1_555 1_555
C13 C1 1_555 1_555
C14 C5 1_555 1_555
C15 C5 1_555 1_555
N1 Co1 1_555 1_555
C16 C7 1_555 1_555
C17 C8 1_555 1_555
Co2 O5 1_555 1_555
O5 C18 1_555 1_555
O6 Co2 1_555 1_555
O7 Co2 1_555 1_555
O8 Co3 1_555 1_555
C18 O9 1_555 1_555
C19 C25 1_555 1_555
C20 C26 1_555 1_555
C21 C25 1_555 1_555
C22 C28 1_555 1_555
C23 C26 1_555 1_555
C24 O7 1_555 1_555
Co3 Co2 1_555 1_555
O9 Co3 1_555 1_555
O10 Co3 1_555 1_555
O11 C24 1_555 1_555
O12 Co2 1_555 1_555
N2 Co3 1_555 1_555
C25 C18 1_555 1_555
C26 C19 1_555 1_555
C27 C20 1_555 1_555
C28 C20 1_555 1_555
C29 C22 1_555 1_555
C30 O6 1_555 1_555
C31 C24 1_555 1_555
C32 C31 1_555 1_555
C33 C36 1_555 1_555
C34 C31 1_555 1_555
C35 C44 1_555 1_555
C36 C45 1_555 1_555
C37 N2 1_555 1_555
C38 C47 1_555 1_555
C39 N2 1_555 1_555
C40 C49 1_555 1_555
N3 Co2 1_555 1_555
C41 C49 1_555 1_555
C42 C32 1_555 1_555
C43 C33 1_555 1_555
C44 C43 1_555 1_555
C45 C35 1_555 1_555
C46 O8 1_555 1_555
C47 C37 1_555 1_555
C48 C38 1_555 1_555
C49 C38 1_555 1_555
C50 N3 1_555 1_555
C51 N3 1_555 1_555
Co1A Co1 1_555 1_555
Co1B Co1C 1_555 1_555
Co1C O4C 1_555 1_555
Co1A_2 N1A_2 1_555 1_555
Co1B_2 Co1C_2 1_555 1_555
Co1C_2 O3C 1_555 1_555
Co1_2 Co1A_3 1_555 1_555
Co1C_3 Co1B_3 1_555 1_555
Co1B_3 O4B 1_555 1_555
Co1C_4 Co1B_4 1_555 1_555
Co1B_4 O3B 1_555 1_555
Co1A_3 O1A_2 1_555 1_555
O1A Co1A 1_555 1_555
O1B Co1B_2 1_555 1_555
O1C Co1C_4 1_555 1_555
O1_2 Co1_2 1_555 1_555
O2A Co1A 1_555 1_555
O2B Co1B 1_555 1_555
O2C Co1C_3 1_555 1_555
O2_2 Co1_2 1_555 1_555
O2A_2 Co1A_3 1_555 1_555
C1A C10A 1_555 1_555
C1B C10B 1_555 1_555
C1C C10C 1_555 1_555
C2B C11B 1_555 1_555
C2A C11A 1_555 1_555
C2C C11C 1_555 1_555
C3B C4B 1_555 1_555
C3A C4A 1_555 1_555
C3C C4C 1_555 1_555
C4B C14 1_555 1_555
C4C C14A 1_555 1_555
C4A C14C 1_555 1_555
C5B C6B 1_555 1_555
C5A C6A 1_555 1_555
C5C C6C 1_555 1_555
C6A O4 1_555 1_555
C6B O2B 1_555 1_555
C6C O2C 1_555 1_555
C7A N1A 1_555 1_555
C7A_2 N1A_2 1_555 1_555
C7_2 N1_2 1_555 1_555
C8A C8 1_555 1_555
C8A_2 C8_2 1_555 1_555
C8_2 C16_2 1_555 1_555
C9A N1A 1_555 1_555
C9A_2 N1A_2 1_555 1_555
C9_2 N1_2 1_555 1_555
O3A Co1A 1_555 1_555
O3C C10B 1_555 1_555
O3B C10C 1_555 1_555
O3_2 Co1_2 1_555 1_555
O3A_2 Co1A_3 1_555 1_555
O4A C6 1_555 1_555
O4C C6B 1_555 1_555
O4B C6C 1_555 1_555
O4_2 Co1_2 1_555 1_555
O4A_2 Co1A_3 1_555 1_555
C10A O3 1_555 1_555
C10B O1B 1_555 1_555
C10C O1C 1_555 1_555
C11A C1A 1_555 1_555
C11B C1B 1_555 1_555
C11C C1C 1_555 1_555
C12B C15 1_555 1_555
C12C C2C 1_555 1_555
C12A C2A 1_555 1_555
C13A C1A 1_555 1_555
C13B C1B 1_555 1_555
C13C C1C 1_555 1_555
C14B C5B 1_555 1_555
C14A C5A 1_555 1_555
C14C C5C 1_555 1_555
C15B C12 1_555 1_555
C15A C5A 1_555 1_555
C15C C5C 1_555 1_555
N1A Co1A 1_555 1_555
N1_2 Co1_2 1_555 1_555
N1A_3 Co1A_3 1_555 1_555
C16A C7A_2 1_555 1_555
C16A_2 C7A 1_555 1_555
C16_2 C7_2 1_555 1_555
C17A C8A 1_555 1_555
C17A_2 C8A_2 1_555 1_555
C17_2 C8_2 1_555 1_555
Co2B O6B 1_555 1_555
Co2_2 O5_2 1_555 1_555
Co2B_2 Co3B_2 1_555 1_555
Co2B_3 O5B 1_555 1_555
Co2B_4 O7B 1_555 1_555
O5B C18B 1_555 1_555
O6B C30B 1_555 1_555
O6_2 Co2_2 1_555 1_555
O7_2 Co2_2 1_555 1_555
O7B C24B 1_555 1_555
O8B Co3B_2 1_555 1_555
O8_2 Co3_2 1_555 1_555
C18B O9B 1_555 1_555
C19B C25B 1_555 1_555
C20B C26B 1_555 1_555
C21B C25B 1_555 1_555
C22B C30 1_555 1_555
C23B C26B 1_555 1_555
C24B O11B 1_555 1_555
Co3B Co2B 1_555 1_555
Co3_2 Co2_2 1_555 1_555
Co3_3 N2_3 1_555 1_555
Co3B_3 Co2B_3 1_555 1_555
Co3B_4 Co2B_4 1_555 1_555
O9_2 Co3_2 1_555 1_555
O9B Co3B_3 1_555 1_555
O10B Co3B 1_555 1_555
O10_2 Co3_2 1_555 1_555
O11_2 Co3_2 1_555 1_555
O11B Co3B_4 1_555 1_555
O12B Co2B_2 1_555 1_555
O12_2 Co2_2 1_555 1_555
N2_2 Co3_2 1_555 1_555
N2_3 C37_2 1_555 1_555
C25B C18B 1_555 1_555
C26B C19B 1_555 1_555
C27B C20B 1_555 1_555
C28B C20B 1_555 1_555
C29B C22B 1_555 1_555
C30B C22 1_555 1_555
C31B C24B 1_555 1_555
C32B C31B 1_555 1_555
C33B C36B 1_555 1_555
C34B C31B 1_555 1_555
C35B C44B 1_555 1_555
C36B C45B 1_555 1_555
C37_2 C47_2 1_555 1_555
C38_2 C47_2 1_555 1_555
C39_2 N2_3 1_555 1_555
C40_2 C50 1_555 1_555
N3_2 Co2_2 1_555 1_555
C41_2 C51 1_555 1_555
C42B C32B 1_555 1_555
C43B C33B 1_555 1_555
C44B C43B 1_555 1_555
C45B C46 1_555 1_555
C46B C45 1_555 1_555
C48_2 C38_2 1_555 1_555
C49_2 C38_2 1_555 1_555
C50_2 C40 1_555 1_555
C51_2 C41 1_555 1_555
C3 C12 1_555 1_555
C3 C13 1_555 1_555
C9 C17 1_555 1_555
C21 C27 1_555 1_555
C23 C29 1_555 1_555
Co3 O11 1_555 1_555
O10 C30 1_555 1_555
O12 C46 1_555 1_555
C33 C42 1_555 1_555
C34 C43 1_555 1_555
C39 C48 1_555 1_555
Co1A O4A 1_555 1_555
O1A C10A 1_555 1_555
O2A C6A 1_555 1_555
C2B C12B 1_555 1_555
C3B C12B 1_555 1_555
C3B C13B 1_555 1_555
C3A C12A 1_555 1_555
C3A C13A 1_555 1_555
C3C C12C 1_555 1_555
C3C C13C 1_555 1_555
C5B C15B 1_555 1_555
C8A C16A 1_555 1_555
C8A_2 C16A_2 1_555 1_555
C9A C17A_2 1_555 1_555
C9A_2 C17A 1_555 1_555
C9_2 C17_2 1_555 1_555
C12C C15A 1_555 1_555
C12A C15C 1_555 1_555
O8B C46B 1_555 1_555
C21B C27B 1_555 1_555
C22B C28B 1_555 1_555
C23B C29B 1_555 1_555
O10B C30B 1_555 1_555
O12B C46B 1_555 1_555
C33B C42B 1_555 1_555
C34B C43B 1_555 1_555
C35B C45B 1_555 1_555
C39_2 C48_2 1_555 1_555
C40_2 C49_2 1_555 1_555
N3_2 C50_2 1_555 1_555
N3_2 C51_2 1_555 1_555
C41_2 C49_2 1_555 1_555

#END
