
#######################################################################
#
#                 Cambridge Crystallographic Data Centre
#                                CCDC 
#
#######################################################################
#
# If this CIF has been generated from an entry in the Cambridge 
# Structural Database, then it will include bibliographic, chemical, 
# crystal, experimental, refinement or atomic coordinate data resulting 
# from the CCDC's data processing and validation procedures.
#
#######################################################################

data_BAZBOU02
_symmetry_cell_setting           monoclinic
_symmetry_space_group_name_H-M   'C 2'
_symmetry_Int_Tables_number      5
_space_group_name_Hall           'C 2y'
loop_
_symmetry_equiv_pos_site_id
_symmetry_equiv_pos_as_xyz
1 x,y,z
2 -x,y,-z
3 1/2+x,1/2+y,z
4 1/2-x,1/2+y,-z
_cell_length_a                   17.1134(11)
_cell_length_b                   19.9511(16)
_cell_length_c                   13.8844(13)
_cell_angle_alpha                90
_cell_angle_beta                 96.046(2)
_cell_angle_gamma                90
_cell_volume                     4714.2
loop_
_atom_site_label
_atom_site_type_symbol
_atom_site_fract_x
_atom_site_fract_y
_atom_site_fract_z
Co1 Co 0.16504(7) 0.40651(8) 0.43180(11)
Co2 Co 0.17310(7) 0.40479(8) 0.23869(11)
O1 O 0.2559(5) 0.4770(4) 0.2686(7)
O2 O 0.2504(5) 0.4788(4) 0.4319(8)
O3 O 0.5924(5) 0.8312(5) 0.2459(7)
O4 O 0.5804(6) 0.8348(5) 0.4029(8)
O5 O 0.2591(5) 0.3347(4) 0.2691(8)
O6 O 0.2440(5) 0.3324(5) 0.4247(7)
O7 O 0.5887(6) -0.0223(5) 0.2420(9)
O8 O 0.5813(5) -0.0219(4) 0.4042(8)
N1 N 0.1724(5) 0.4045(8) 1.0906(7)
N2 N 0.1665(4) 0.4047(7) 0.5807(7)
C1 C 0.2724(7) 0.5011(7) 0.3535(11)
C2 C 0.3254(8) 0.5623(6) 0.3643(12)
C3 C 0.3721(7) 0.5750(5) 0.2926(11)
H1 H 0.3753 0.5440 0.2403
C4 C 0.4187(7) 0.6345(6) 0.2926(12)
C5 C 0.4677(7) 0.6519(6) 0.2222(11)
H2 H 0.4752 0.6207 0.1714
C6 C 0.5073(8) 0.7071(7) 0.2275(13)
H3 H 0.5319 0.7209 0.1717
C7 C 0.5104(8) 0.7530(7) 0.3114(11)
C8 C 0.5630(7) 0.8108(6) 0.3214(11)
C9 C 0.4614(8) 0.7368(7) 0.3807(10)
H4 H 0.4621 0.7666 0.4350
C10 C 0.4163(7) 0.6799(8) 0.3725(10)
C11 C 0.3680(9) 0.6650(8) 0.4466(13)
H5 H 0.3684 0.6953 0.5004
C12 C 0.3211(8) 0.6075(7) 0.4394(11)
H6 H 0.2847 0.5999 0.4863
C13 C 0.2743(7) 0.3102(7) 0.3505(10)
C14 C 0.3267(7) 0.2500(8) 0.3614(13)
C15 C 0.3749(8) 0.2350(8) 0.2884(10)
H7 H 0.3718 0.2644 0.2333
C16 C 0.4214(7) 0.1791(8) 0.2963(10)
C17 C 0.4703(11) 0.1640(11) 0.2239(15)
H8 H 0.4734 0.1938 0.1702
C18 C 0.5160(9) 0.1038(7) 0.2310(11)
H9 H 0.5505 0.0946 0.1823
C19 C 0.5130(7) 0.0615(7) 0.3088(11)
C20 C 0.5657(8) 0.0024(8) 0.3175(13)
C21 C 0.4644(8) 0.0753(6) 0.3782(13)
H10 H 0.4594 0.0441 0.4300
C22 C 0.4171(8) 0.1343(6) 0.3762(13)
C23 C 0.3677(9) 0.1530(9) 0.4486(13)
H11 H 0.3638 0.1233 0.5023
C24 C 0.3274(10) 0.2083(8) 0.4443(13)
H12 H 0.3000 0.2217 0.4981
C25 C 0.1180(7) 0.3690(8) 1.0333(10)
H13 H 0.0755 0.3480 1.0617
C26 C 0.1155(7) 0.3641(6) 0.9344(10)
H14 H 0.0774 0.3370 0.8966
C27 C 0.1718(6) 0.4051(10) 0.8881(10)
C28 C 0.2286(6) 0.4315(7) 0.9474(10)
H15 H 0.2705 0.4543 0.9200
C29 C 0.2293(7) 0.4288(7) 1.0468(11)
H16 H 0.2737 0.4488 1.0840
C30 C 0.1700(6) 0.4041(10) 0.7829(9)
C31 C 0.1009(5) 0.4025(8) 0.7230(8)
H17 H 0.0520 0.4002 0.7511
C32 C 0.1023(6) 0.4034(8) 0.6232(8)
H18 H 0.0522 0.4047 0.5850
C33 C 0.2343(6) 0.3929(8) 0.6388(9)
H19 H 0.2827 0.3872 0.6104
C34 C 0.2387(6) 0.3955(11) 0.7374(10)
H20 H 0.2886 0.3916 0.7755
Co1B Co -0.33496(7) -0.09349(8) 0.43180(11)
Co1B_2 Co 0.66504(7) 0.90651(8) 0.43180(11)
Co1B_3 Co 0.66504(7) -0.09349(8) 0.43180(11)
Co1B_4 Co -0.33496(7) 0.90651(8) 0.43180(11)
Co1_2 Co 0.16504(7) 0.40651(8) -0.56820(11)
Co2B Co -0.32690(7) -0.09521(8) 0.23869(11)
Co2B_2 Co 0.67310(7) 0.90479(8) 0.23869(11)
Co2B_3 Co 0.67310(7) -0.09521(8) 0.23869(11)
Co2_2 Co 0.17310(7) 0.40479(8) 1.23869(11)
Co2B_4 Co -0.32690(7) 0.90479(8) 0.23869(11)
O1B O -0.2441(5) -0.0230(4) 0.2686(7)
O2B O -0.2496(5) -0.0212(4) 0.4319(8)
O3B O 0.0924(5) 0.3312(5) 0.2459(7)
O3_2 O -0.4076(5) -0.1688(5) 0.2459(7)
O4B O 0.0804(6) 0.3348(5) 0.4029(8)
O4_2 O -0.4196(6) -0.1652(5) 0.4029(8)
O5B O -0.2409(5) 0.8347(4) 0.2691(8)
O5B_2 O -0.2409(5) -0.1653(4) 0.2691(8)
O6B O -0.2560(5) 0.8324(5) 0.4247(7)
O6B_2 O -0.2560(5) -0.1676(5) 0.4247(7)
O7B O 0.0887(6) 0.4777(5) 0.2420(9)
O7_2 O -0.4113(6) -0.0223(5) 0.2420(9)
O8B O 0.0813(5) 0.4781(4) 0.4042(8)
O8_2 O -0.4187(5) -0.0219(4) 0.4042(8)
N1_2 N 0.1724(5) 0.4045(8) 0.0906(7)
N1B N -0.3276(5) -0.0955(8) 0.0906(7)
N2_2 N 0.1665(4) 0.4047(7) -0.4193(7)
N2B N -0.3335(4) -0.0953(7) 0.5807(7)
C1B C -0.2276(7) 0.0011(7) 0.3535(11)
C2B C -0.1746(8) 0.0623(6) 0.3643(12)
C3B C -0.1279(7) 0.0750(5) 0.2926(11)
H1B H -0.1247 0.0440 0.2403
C4B C -0.0813(7) 0.1345(6) 0.2926(12)
C5B C -0.0323(7) 0.1519(6) 0.2222(11)
H2B H -0.0248 0.1207 0.1714
C6B C 0.0073(8) 0.2071(7) 0.2275(13)
H3B H 0.0319 0.2209 0.1717
C7B C 0.0104(8) 0.2530(7) 0.3114(11)
C8B C 0.0630(7) 0.3108(6) 0.3214(11)
C9B C -0.0386(8) 0.2368(7) 0.3807(10)
H4B H -0.0379 0.2666 0.4350
C10B C -0.0837(7) 0.1799(8) 0.3725(10)
C11B C -0.1320(9) 0.1650(8) 0.4466(13)
H5B H -0.1316 0.1953 0.5004
C12B C -0.1789(8) 0.1075(7) 0.4394(11)
H6B H -0.2153 0.0999 0.4863
C13B C -0.2257(7) 0.8102(7) 0.3505(10)
C14B C -0.1733(7) 0.7500(8) 0.3614(13)
C15B C -0.1251(8) 0.7350(8) 0.2884(10)
H7B H -0.1282 0.7644 0.2333
C16B C -0.0786(7) 0.6791(8) 0.2963(10)
C17B C -0.0297(11) 0.6640(11) 0.2239(15)
H8B H -0.0266 0.6938 0.1702
C18B C 0.0160(9) 0.6038(7) 0.2310(11)
H9B H 0.0505 0.5946 0.1823
C19B C 0.0130(7) 0.5615(7) 0.3088(11)
C20B C 0.0657(8) 0.5024(8) 0.3175(13)
C21B C -0.0356(8) 0.5753(6) 0.3782(13)
H10B H -0.0406 0.5441 0.4300
C22B C -0.0829(8) 0.6343(6) 0.3762(13)
C23B C -0.1323(9) 0.6530(9) 0.4486(13)
H11B H -0.1362 0.6233 0.5023
C24B C -0.1726(10) 0.7083(8) 0.4443(13)
H12B H -0.2000 0.7217 0.4981
C25_2 C 0.1180(7) 0.3690(8) 0.0333(10)
H13_2 H 0.0755 0.3480 0.0617
C26_2 C 0.1155(7) 0.3641(6) -0.0656(10)
H14_2 H 0.0774 0.3370 -0.1034
C27_2 C 0.1718(6) 0.4051(10) -0.1119(10)
C28_2 C 0.2286(6) 0.4315(7) -0.0526(10)
H15_2 H 0.2705 0.4543 -0.0800
C29_2 C 0.2293(7) 0.4288(7) 0.0468(11)
H16_2 H 0.2737 0.4488 0.0840
C30_2 C 0.1700(6) 0.4041(10) -0.2171(9)
C31_2 C 0.1009(5) 0.4025(8) -0.2770(8)
H17_2 H 0.0520 0.4002 -0.2489
C32_2 C 0.1023(6) 0.4034(8) -0.3768(8)
H18_2 H 0.0522 0.4047 -0.4150
C33_2 C 0.2343(6) 0.3929(8) -0.3612(9)
H19_2 H 0.2827 0.3872 -0.3896
C34_2 C 0.2387(6) 0.3955(11) -0.2626(10)
H20_2 H 0.2886 0.3916 -0.2245
O9 O 0.0795(5) 0.0115(4) 0.0936(8)
O10 O 0.0903(5) 0.0044(4) -0.0677(7)
O11 O 0.4172(5) 0.3619(4) 0.0681(7)
O12 O 0.4197(5) 0.3662(4) -0.0921(7)
N3 N -0.0024(4) -0.0615(6) 0.2466(7)
C35 C 0.1044(7) 0.0315(6) 0.0181(11)
C36 C 0.1578(7) 0.0904(6) 0.0269(10)
C37 C 0.2009(7) 0.1066(6) -0.0467(13)
H21 H 0.2009 0.0777 -0.1020
C38 C 0.2492(9) 0.1661(6) -0.0467(12)
C39 C 0.2949(9) 0.1851(7) -0.1188(12)
H22 H 0.2974 0.1560 -0.1735
C40 C 0.3379(9) 0.2411(8) -0.1168(14)
H23 H 0.3609 0.2554 -0.1735
C41 C 0.3447(8) 0.2814(7) -0.0276(12)
C42 C 0.3965(7) 0.3418(5) -0.0156(10)
C43 C 0.3001(7) 0.2651(6) 0.0453(9)
H24 H 0.3024 0.2925 0.1024
C44 C 0.2522(7) 0.2069(6) 0.0372(9)
C45 C 0.2083(7) 0.1898(6) 0.1136(12)
H25 H 0.2110 0.2160 0.1719
C46 C 0.1599(8) 0.1324(6) 0.1081(11)
H26 H 0.1272 0.1229 0.1585
C47 C 0.0580(8) -0.0375(9) 0.3032(11)
H27 H 0.1010 -0.0171 0.2751
C48 C 0.0618(7) -0.0371(7) 0.4015(8)
H28 H 0.1049 -0.0172 0.4412
C49 C -0.0003(5) -0.0598(6) 0.4464(8)
C50 C -0.0639(6) -0.0869(7) 0.3852(10)
H29 H -0.1085 -0.1043 0.4134
C51 C -0.0613(6) -0.0884(7) 0.2895(9)
H30 H -0.1057 -0.1076 0.2511
Co3 Co -0.00335(7) -0.06412(6) 0.09602(12)
O9A O -0.0795(5) 0.0115(4) -0.0936(8)
O10A O -0.0903(5) 0.0044(4) 0.0677(7)
O11A O -0.4172(5) 0.3619(4) -0.0681(7)
O11B O -0.0828(5) -0.1381(4) 0.0681(7)
O11C O 0.0828(5) -0.1381(4) -0.0681(7)
O12A O -0.4197(5) 0.3662(4) 0.0921(7)
O12C O 0.0803(5) -0.1338(4) 0.0921(7)
O12B O -0.0803(5) -0.1338(4) -0.0921(7)
N3A N 0.0024(4) -0.0615(6) 0.7534(7)
N3A_2 N 0.0024(4) -0.0615(6) -0.2466(7)
C35A C -0.1044(7) 0.0315(6) -0.0181(11)
C36A C -0.1578(7) 0.0904(6) -0.0269(10)
C37A C -0.2009(7) 0.1066(6) 0.0467(13)
H21A H -0.2009 0.0777 0.1020
C38A C -0.2492(9) 0.1661(6) 0.0467(12)
C39A C -0.2949(9) 0.1851(7) 0.1188(12)
H22A H -0.2974 0.1560 0.1735
C40A C -0.3379(9) 0.2411(8) 0.1168(14)
H23A H -0.3609 0.2554 0.1735
C41A C -0.3447(8) 0.2814(7) 0.0276(12)
C42A C -0.3965(7) 0.3418(5) 0.0156(10)
C43A C -0.3001(7) 0.2651(6) -0.0453(9)
H24A H -0.3024 0.2925 -0.1024
C44A C -0.2522(7) 0.2069(6) -0.0372(9)
C45A C -0.2083(7) 0.1898(6) -0.1136(12)
H25A H -0.2110 0.2160 -0.1719
C46A C -0.1599(8) 0.1324(6) -0.1081(11)
H26A H -0.1272 0.1229 -0.1585
C47A C -0.0580(8) -0.0375(9) 0.6968(11)
H27A H -0.1010 -0.0171 0.7249
C48A C -0.0618(7) -0.0371(7) 0.5985(8)
H28A H -0.1049 -0.0172 0.5588
C49A C 0.0003(5) -0.0598(6) 0.5536(8)
C50A C 0.0639(6) -0.0869(7) 0.6148(10)
H29A H 0.1085 -0.1043 0.5866
C51A C 0.0613(6) -0.0884(7) 0.7105(9)
H30A H 0.1057 -0.1076 0.7489
Co3A Co 0.00335(7) -0.06412(6) -0.09602(12)
Co3B Co 0.49665(7) 0.43588(6) 0.09602(12)
Co3C Co 0.50335(7) 0.43588(6) -0.09602(12)
Co3A_2 Co 0.00335(7) -0.06412(6) 0.90398(12)
Co3C_2 Co -0.49665(7) 0.43588(6) -0.09602(12)
Co3B_2 Co -0.50335(7) 0.43588(6) 0.09602(12)
loop_
_geom_bond_atom_site_label_1
_geom_bond_atom_site_label_2
_geom_bond_site_symmetry_1
_geom_bond_site_symmetry_2
Co1 Co2 1_555 1_555
Co2 O1 1_555 1_555
O1 C1 1_555 1_555
O2 Co1 1_555 1_555
O3 C8 1_555 1_555
O4 C8 1_555 1_555
O5 Co2 1_555 1_555
O6 Co1 1_555 1_555
O7 C20 1_555 1_555
O8 C20 1_555 1_555
N1 C25 1_555 1_555
N2 Co1 1_555 1_555
C1 O2 1_555 1_555
C2 C1 1_555 1_555
C3 C2 1_555 1_555
H1 C3 1_555 1_555
C4 C3 1_555 1_555
C5 C4 1_555 1_555
H2 C5 1_555 1_555
C6 C5 1_555 1_555
H3 C6 1_555 1_555
C7 C6 1_555 1_555
C8 C7 1_555 1_555
C9 C7 1_555 1_555
H4 C9 1_555 1_555
C10 C4 1_555 1_555
C11 C10 1_555 1_555
H5 C11 1_555 1_555
C12 C2 1_555 1_555
H6 C12 1_555 1_555
C13 O5 1_555 1_555
C14 C13 1_555 1_555
C15 C14 1_555 1_555
H7 C15 1_555 1_555
C16 C15 1_555 1_555
C17 C16 1_555 1_555
H8 C17 1_555 1_555
C18 C17 1_555 1_555
H9 C18 1_555 1_555
C19 C18 1_555 1_555
C20 C19 1_555 1_555
C21 C19 1_555 1_555
H10 C21 1_555 1_555
C22 C16 1_555 1_555
C23 C22 1_555 1_555
H11 C23 1_555 1_555
C24 C14 1_555 1_555
H12 C24 1_555 1_555
C25 H13 1_555 1_555
C26 C25 1_555 1_555
H14 C26 1_555 1_555
C27 C26 1_555 1_555
C28 C27 1_555 1_555
H15 C28 1_555 1_555
C29 N1 1_555 1_555
H16 C29 1_555 1_555
C30 C27 1_555 1_555
C31 C30 1_555 1_555
H17 C31 1_555 1_555
C32 N2 1_555 1_555
H18 C32 1_555 1_555
C33 N2 1_555 1_555
H19 C33 1_555 1_555
C34 C30 1_555 1_555
H20 C34 1_555 1_555
O9 C35 1_555 1_555
O10 C35 1_555 1_555
O11 C42 1_555 1_555
O12 C42 1_555 1_555
N3 C47 1_555 1_555
C35 C36 1_555 1_555
C36 C37 1_555 1_555
C37 H21 1_555 1_555
C38 C37 1_555 1_555
C39 C38 1_555 1_555
H22 C39 1_555 1_555
C40 C39 1_555 1_555
H23 C40 1_555 1_555
C41 C40 1_555 1_555
C42 C41 1_555 1_555
C43 C41 1_555 1_555
H24 C43 1_555 1_555
C44 C38 1_555 1_555
C45 C44 1_555 1_555
H25 C45 1_555 1_555
C46 C36 1_555 1_555
H26 C46 1_555 1_555
C47 H27 1_555 1_555
C48 C47 1_555 1_555
H28 C48 1_555 1_555
C49 C48 1_555 1_555
C50 C49 1_555 1_555
H29 C50 1_555 1_555
C51 N3 1_555 1_555
H30 C51 1_555 1_555
Co3 O9 1_555 1_555
Co1B Co2B 1_555 1_555
Co1B_2 O4 1_555 1_555
Co1B_3 O8 1_555 1_555
Co1B_4 Co2B_4 1_555 1_555
Co1_2 N2_2 1_555 1_555
Co2B O1B 1_555 1_555
Co2B_2 O3 1_555 1_555
Co2B_3 O7 1_555 1_555
Co2_2 N1 1_555 1_555
Co2B_4 O5B 1_555 1_555
O1B C1B 1_555 1_555
O2B Co1B 1_555 1_555
O3B Co2 1_555 1_555
O3_2 Co2B 1_555 1_555
O4B Co1 1_555 1_555
O4_2 Co1B 1_555 1_555
O5B C13B 1_555 1_555
O5B_2 Co2B 1_555 1_555
O6B Co1B_4 1_555 1_555
O6B_2 Co1B 1_555 1_555
O7B Co2 1_555 1_555
O7_2 Co2B 1_555 1_555
O8B Co1 1_555 1_555
O8_2 Co1B 1_555 1_555
N1_2 Co2 1_555 1_555
N1B Co2B 1_555 1_555
N2_2 C32_2 1_555 1_555
N2B Co1B 1_555 1_555
C1B O2B 1_555 1_555
C2B C1B 1_555 1_555
C3B C2B 1_555 1_555
H1B C3B 1_555 1_555
C4B C3B 1_555 1_555
C5B C4B 1_555 1_555
H2B C5B 1_555 1_555
C6B C5B 1_555 1_555
H3B C6B 1_555 1_555
C7B C6B 1_555 1_555
C8B O3B 1_555 1_555
C9B C7B 1_555 1_555
H4B C9B 1_555 1_555
C10B C4B 1_555 1_555
C11B C10B 1_555 1_555
H5B C11B 1_555 1_555
C12B C2B 1_555 1_555
H6B C12B 1_555 1_555
C13B O6B 1_555 1_555
C14B C13B 1_555 1_555
C15B C14B 1_555 1_555
H7B C15B 1_555 1_555
C16B C15B 1_555 1_555
C17B C16B 1_555 1_555
H8B C17B 1_555 1_555
C18B C17B 1_555 1_555
H9B C18B 1_555 1_555
C19B C18B 1_555 1_555
C20B O7B 1_555 1_555
C21B C19B 1_555 1_555
H10B C21B 1_555 1_555
C22B C16B 1_555 1_555
C23B C22B 1_555 1_555
H11B C23B 1_555 1_555
C24B C14B 1_555 1_555
H12B C24B 1_555 1_555
C25_2 N1_2 1_555 1_555
H13_2 C25_2 1_555 1_555
C26_2 C25_2 1_555 1_555
H14_2 C26_2 1_555 1_555
C27_2 C26_2 1_555 1_555
C28_2 C27_2 1_555 1_555
H15_2 C28_2 1_555 1_555
C29_2 N1_2 1_555 1_555
H16_2 C29_2 1_555 1_555
C30_2 C27_2 1_555 1_555
C31_2 C30_2 1_555 1_555
H17_2 C31_2 1_555 1_555
C32_2 C31_2 1_555 1_555
H18_2 C32_2 1_555 1_555
C33_2 N2_2 1_555 1_555
H19_2 C33_2 1_555 1_555
C34_2 C30_2 1_555 1_555
H20_2 C34_2 1_555 1_555
O9A C35A 1_555 1_555
O10A Co3 1_555 1_555
O11A C42A 1_555 1_555
O11B Co3 1_555 1_555
O11C Co3A 1_555 1_555
O12A C42A 1_555 1_555
O12C Co3 1_555 1_555
O12B Co3A 1_555 1_555
N3A C47A 1_555 1_555
N3A_2 Co3A 1_555 1_555
C35A O10A 1_555 1_555
C36A C35A 1_555 1_555
C37A C36A 1_555 1_555
H21A C37A 1_555 1_555
C38A C37A 1_555 1_555
C39A C38A 1_555 1_555
H22A C39A 1_555 1_555
C40A C39A 1_555 1_555
H23A C40A 1_555 1_555
C41A C40A 1_555 1_555
C42A C41A 1_555 1_555
C43A C41A 1_555 1_555
H24A C43A 1_555 1_555
C44A C38A 1_555 1_555
C45A C44A 1_555 1_555
H25A C45A 1_555 1_555
C46A C36A 1_555 1_555
H26A C46A 1_555 1_555
C47A H27A 1_555 1_555
C48A C47A 1_555 1_555
H28A C48A 1_555 1_555
C49A C49 1_555 1_555
C50A C49A 1_555 1_555
H29A C50A 1_555 1_555
C51A N3A 1_555 1_555
H30A C51A 1_555 1_555
Co3A O10 1_555 1_555
Co3B O11 1_555 1_555
Co3C O12 1_555 1_555
Co3A_2 N3A 1_555 1_555
Co3C_2 O11A 1_555 1_555
Co3B_2 O12A 1_555 1_555
O6 C13 1_555 1_555
C9 C10 1_555 1_555
C11 C12 1_555 1_555
C21 C22 1_555 1_555
C23 C24 1_555 1_555
C28 C29 1_555 1_555
C31 C32 1_555 1_555
C33 C34 1_555 1_555
N3 Co3 1_555 1_555
C43 C44 1_555 1_555
C45 C46 1_555 1_555
C50 C51 1_555 1_555
Co3 Co3A 1_555 1_555
Co1B_2 Co2B_2 1_555 1_555
Co1B_3 Co2B_3 1_555 1_555
O4B C8B 1_555 1_555
O8B C20B 1_555 1_555
C7B C8B 1_555 1_555
C9B C10B 1_555 1_555
C11B C12B 1_555 1_555
C19B C20B 1_555 1_555
C21B C22B 1_555 1_555
C23B C24B 1_555 1_555
C28_2 C29_2 1_555 1_555
C33_2 C34_2 1_555 1_555
O9A Co3A 1_555 1_555
C43A C44A 1_555 1_555
C45A C46A 1_555 1_555
C48A C49A 1_555 1_555
C50A C51A 1_555 1_555
Co3B Co3C 1_555 1_555
Co3C_2 Co3B_2 1_555 1_555

#END
