
#######################################################################
#
#                 Cambridge Crystallographic Data Centre
#                                CCDC 
#
#######################################################################
#
# If this CIF has been generated from an entry in the Cambridge 
# Structural Database, then it will include bibliographic, chemical, 
# crystal, experimental, refinement or atomic coordinate data resulting 
# from the CCDC's data processing and validation procedures.
#
#######################################################################

data_BAZCOW
_symmetry_cell_setting           orthorhombic
_symmetry_space_group_name_H-M   'P 21 21 21'
_symmetry_Int_Tables_number      19
_space_group_name_Hall           'P 2ac 2ab'
loop_
_symmetry_equiv_pos_site_id
_symmetry_equiv_pos_as_xyz
1 x,y,z
2 1/2-x,-y,1/2+z
3 1/2+x,1/2-y,-z
4 -x,1/2+y,1/2-z
_cell_length_a                   13.9216(11)
_cell_length_b                   15.4812(14)
_cell_length_c                   15.5450(13)
_cell_angle_alpha                90
_cell_angle_beta                 90
_cell_angle_gamma                90
_cell_volume                     3350.31
loop_
_atom_site_label
_atom_site_type_symbol
_atom_site_fract_x
_atom_site_fract_y
_atom_site_fract_z
C1 C 1.0601(7) 0.3517(7) 0.3930(7)
C2 C 1.1505(7) 0.3553(7) 0.3547(7)
H1 H 1.1704 0.3083 0.3220
C3 C 1.2128(8) 0.4254(7) 0.3627(8)
H2 H 1.2725 0.4249 0.3359
C4 C 1.1840(8) 0.4956(7) 0.4112(8)
C5 C 1.0939(7) 0.4980(6) 0.4466(8)
H3 H 1.0740 0.5471 0.4761
C6 C 1.0316(7) 0.4278(6) 0.4391(8)
C7 C 0.9398(8) 0.4352(7) 0.4820(8)
H4 H 0.9267 0.4882 0.5076
C8 C 0.7860(7) 0.3969(7) 0.5343(7)
H5 H 0.7758 0.4588 0.5363
H6 H 0.7896 0.3755 0.5928
C9 C 0.7049(7) 0.3543(6) 0.4878(7)
H7 H 0.6451 0.3649 0.5180
H8 H 0.6992 0.3780 0.4302
C10 C 0.6633(7) 0.2140(6) 0.4201(7)
H9 H 0.5982 0.2362 0.4224
H10 H 0.6615 0.1529 0.4338
C11 C 0.7042(6) 0.2268(6) 0.3300(6)
H11 H 0.6672 0.1935 0.2889
H12 H 0.7002 0.2872 0.3141
C12 C 0.8133(8) 0.1054(6) 0.3161(8)
H13 H 0.8067 0.0916 0.2555
H14 H 0.7624 0.0762 0.3472
C13 C 0.9106(7) 0.0744(6) 0.3486(7)
H15 H 0.9137 0.0119 0.3462
H16 H 0.9615 0.0977 0.3128
C14 C 0.9497(7) 0.0527(7) 0.4982(8)
H17 H 0.9595 -0.0046 0.4825
C15 C 0.9666(7) 0.0737(7) 0.5862(8)
C16 C 0.9993(8) 0.0047(7) 0.6381(8)
H18 H 1.0098 -0.0494 0.6138
C17 C 1.0158(10) 0.0175(9) 0.7250(9)
C18 C 1.0016(10) 0.0985(8) 0.7613(9)
H19 H 1.0138 0.1075 0.8194
C19 C 0.9696(8) 0.1647(8) 0.7110(8)
H20 H 0.9610 0.2186 0.7363
C20 C 0.9493(7) 0.1557(7) 0.6239(7)
N1 N 0.8749(6) 0.3779(5) 0.4890(5)
N2 N 0.7234(5) 0.2596(6) 0.4830(5)
H21 H 0.7125 0.2363 0.5359
N3 N 0.8049(5) 0.1986(5) 0.3283(5)
H22 H 0.8336 0.2246 0.2825
N4 N 0.9225(5) 0.1042(5) 0.4382(6)
O1 O 1.0103(5) 0.2796(4) 0.3820(4)
O2 O 0.9191(5) 0.2232(4) 0.5802(4)
Cl1 Cl 1.2608(2) 0.58383(18) 0.4239(2)
Cl2 Cl 1.0508(3) -0.0701(3) 0.7891(3)
In1 In 0.88478(5) 0.24203(4) 0.44966(5)
C21 C 0.8322(7) 0.4731(7) 0.2803(7)
C22 C 0.8474(6) 0.5315(7) 0.2009(7)
C23 C 1.0586(8) 0.2967(6) 0.1592(7)
C24 C 0.9880(7) 0.2210(7) 0.1601(7)
C25 C 1.3266(8) 0.1519(6) 0.0245(7)
C26 C 1.2361(8) 0.1466(6) -0.0278(7)
O3 O 0.8103(5) 0.5054(4) 0.3490(5)
O4 O 0.8330(5) 0.6114(4) 0.2120(5)
O5 O 0.8455(5) 0.3925(4) 0.2632(4)
O6 O 0.8722(5) 0.4960(4) 0.1321(4)
O7 O 1.0205(4) 0.3731(4) 0.1611(5)
O8 O 0.8995(4) 0.2441(4) 0.1616(4)
O9 O 1.1449(5) 0.2828(4) 0.1601(5)
O10 O 1.0186(5) 0.1481(4) 0.1603(5)
O11 O 1.3220(5) 0.1581(5) 0.1037(5)
O12 O 1.1579(5) 0.1450(4) 0.0112(5)
O13 O 1.4039(4) 0.1449(4) -0.0181(4)
O14 O 1.2447(5) 0.1427(4) -0.1089(4)
Cr1 Cr 0.88087(13) 0.36910(9) 0.14267(10)
Mn1 Mn 1.17760(12) 0.14619(11) 0.15192(12)
O3C O 1.1897(5) 0.0054(4) 0.1510(5)
O4C O 1.1670(5) 0.1114(4) 0.2880(5)
O13B O 0.9039(4) 0.3551(4) 0.0181(4)
O14B O 0.7447(5) 0.3573(4) 0.1089(4)
Cr1B Cr 1.38087(13) 0.13090(9) -0.14267(10)
Mn1C Mn 0.82240(12) 0.64619(11) 0.34808(12)
loop_
_geom_bond_atom_site_label_1
_geom_bond_atom_site_label_2
_geom_bond_site_symmetry_1
_geom_bond_site_symmetry_2
C1 C2 1_555 1_555
C2 H1 1_555 1_555
C3 C2 1_555 1_555
H2 C3 1_555 1_555
C4 C3 1_555 1_555
C5 C4 1_555 1_555
H3 C5 1_555 1_555
C6 C1 1_555 1_555
C7 C6 1_555 1_555
H4 C7 1_555 1_555
C8 H5 1_555 1_555
H6 C8 1_555 1_555
C9 C8 1_555 1_555
H7 C9 1_555 1_555
H8 C9 1_555 1_555
C10 H9 1_555 1_555
H10 C10 1_555 1_555
C11 C10 1_555 1_555
H11 C11 1_555 1_555
H12 C11 1_555 1_555
C12 H13 1_555 1_555
H14 C12 1_555 1_555
C13 C12 1_555 1_555
H15 C13 1_555 1_555
H16 C13 1_555 1_555
C14 H17 1_555 1_555
C15 C14 1_555 1_555
C16 C15 1_555 1_555
H18 C16 1_555 1_555
C17 C16 1_555 1_555
C18 C17 1_555 1_555
H19 C18 1_555 1_555
C19 C18 1_555 1_555
H20 C19 1_555 1_555
C20 C15 1_555 1_555
C21 C22 1_555 1_555
C22 O4 1_555 1_555
C23 C24 1_555 1_555
C24 O8 1_555 1_555
C25 C26 1_555 1_555
C26 O12 1_555 1_555
N1 C7 1_555 1_555
N2 C9 1_555 1_555
H21 N2 1_555 1_555
N3 C11 1_555 1_555
H22 N3 1_555 1_555
N4 C13 1_555 1_555
O1 C1 1_555 1_555
O2 C20 1_555 1_555
O3 C21 1_555 1_555
O4 Mn1C 1_555 1_555
O5 C21 1_555 1_555
O6 C22 1_555 1_555
O7 C23 1_555 1_555
O8 Cr1 1_555 1_555
O9 C23 1_555 1_555
O10 C24 1_555 1_555
O11 C25 1_555 1_555
O12 Mn1 1_555 1_555
O13 C25 1_555 1_555
O14 C26 1_555 1_555
Cl1 C4 1_555 1_555
Cl2 C17 1_555 1_555
Cr1 O5 1_555 1_555
Mn1 O9 1_555 1_555
In1 N1 1_555 1_555
O3C Mn1 1_555 1_555
O4C Mn1 1_555 1_555
O13B Cr1 1_555 1_555
O14B Cr1 1_555 1_555
Cr1B O13 1_555 1_555
Mn1C O3 1_555 1_555
C5 C6 1_555 1_555
C8 N1 1_555 1_555
C10 N2 1_555 1_555
C12 N3 1_555 1_555
C14 N4 1_555 1_555
C19 C20 1_555 1_555
N2 In1 1_555 1_555
N3 In1 1_555 1_555
N4 In1 1_555 1_555
O1 In1 1_555 1_555
O2 In1 1_555 1_555
O6 Cr1 1_555 1_555
O7 Cr1 1_555 1_555
O10 Mn1 1_555 1_555
O11 Mn1 1_555 1_555
O14 Cr1B 1_555 1_555

#END
