
#######################################################################
#
#                 Cambridge Crystallographic Data Centre
#                                CCDC 
#
#######################################################################
#
# If this CIF has been generated from an entry in the Cambridge 
# Structural Database, then it will include bibliographic, chemical, 
# crystal, experimental, refinement or atomic coordinate data resulting 
# from the CCDC's data processing and validation procedures.
#
#######################################################################

data_BAZDEM
_symmetry_cell_setting           monoclinic
_symmetry_space_group_name_H-M   'P 21/n'
_symmetry_Int_Tables_number      14
_space_group_name_Hall           '-P 2yn'
loop_
_symmetry_equiv_pos_site_id
_symmetry_equiv_pos_as_xyz
1 x,y,z
2 1/2+x,1/2-y,1/2+z
3 -x,-y,-z
4 1/2-x,1/2+y,1/2-z
_cell_length_a                   10.118(3)
_cell_length_b                   18.436(6)
_cell_length_c                   16.672(6)
_cell_angle_alpha                90
_cell_angle_beta                 101.88(2)
_cell_angle_gamma                90
_cell_volume                     3043.31
loop_
_atom_site_label
_atom_site_type_symbol
_atom_site_fract_x
_atom_site_fract_y
_atom_site_fract_z
Cu1 Cu 0.05252(18) 0.28552(13) 0.44356(14)
Cl1 Cl 0.1806(4) 0.3189(3) 0.3486(3)
Cl2 Cl -0.0841(5) 0.2428(3) 0.5305(3)
O1 O -0.5489(11) 0.4951(8) 0.6518(9)
O2 O -0.2871(9) 0.4519(7) 0.5520(8)
O3 O 0.0159(11) 0.4054(7) 0.4890(8)
N1 N -0.5810(13) 0.2702(8) 0.6108(9)
N2 N -0.7840(12) 0.2630(8) 0.5263(9)
N3 N -0.5324(12) 0.4106(8) 0.5554(9)
N4 N -0.1961(12) 0.4282(8) 0.4186(9)
N5 N -0.2943(12) 0.3073(7) 0.2636(9)
N6 N -0.1089(12) 0.2800(8) 0.3531(9)
C1 C -0.6220(16) 0.1981(10) 0.6097(11)
C2 C -0.5535(20) 0.1387(12) 0.6492(12)
C3 C -0.6167(22) 0.0732(14) 0.6326(13)
C4 C -0.7445(20) 0.0698(12) 0.5806(13)
C5 C -0.8119(18) 0.1293(11) 0.5420(13)
C6 C -0.7489(16) 0.1956(10) 0.5571(11)
C7 C -0.6845(19) 0.3075(10) 0.5582(11)
C8 C -0.6782(16) 0.3872(10) 0.5410(12)
C9 C -0.4827(14) 0.4619(11) 0.6090(11)
C10 C -0.3331(15) 0.4759(10) 0.6218(12)
C11 C -0.1462(17) 0.4428(10) 0.5655(12)
C12 C -0.1018(16) 0.4232(10) 0.4879(12)
C13 C -0.1663(16) 0.4109(9) 0.3411(11)
C14 C -0.1928(14) 0.3330(9) 0.3188(11)
C15 C -0.1641(14) 0.2153(11) 0.3159(10)
C16 C -0.1189(19) 0.1440(11) 0.3279(12)
C17 C -0.1996(22) 0.0910(10) 0.2817(14)
C18 C -0.3133(18) 0.1090(11) 0.2240(11)
C19 C -0.3585(17) 0.1788(12) 0.2141(12)
C20 C -0.2818(14) 0.2322(9) 0.2591(10)
H1 H -0.469 0.141 0.685
H2 H -0.580 0.030 0.658
H3 H -0.791 0.024 0.578
H4 H -0.892 0.126 0.502
H5 H -0.722 0.397 0.487
H6 H -0.718 0.411 0.580
H7 H -0.285 0.447 0.666
H8 H -0.313 0.526 0.626
H9 H -0.100 0.484 0.591
H10 H -0.119 0.406 0.607
H11 H -0.226 0.440 0.300
H12 H -0.079 0.425 0.338
H13 H -0.030 0.131 0.356
H14 H -0.172 0.042 0.292
H15 H -0.366 0.072 0.193
H16 H -0.436 0.191 0.172
H17 H -0.503 0.291 0.644
H18 H -0.472 0.390 0.526
H19 H -0.286 0.436 0.423
H20 H -0.369 0.335 0.237
N2_2 N 0.2160(12) 0.2630(8) 0.5263(9)
Cu1_2 Cu -0.94748(18) 0.28552(13) 0.44356(14)
O4 O 0.2089(25) 0.2074(15) 0.1707(17)
O6 O 0.942(4) 0.819(3) 0.067(3)
C22 C 0.3595(19) 0.4066(16) 0.1798(21)
O7 O 0.4998(16) 0.4107(10) 0.2196(11)
C23 C 0.319(3) 0.4742(23) 0.131(3)
H21 H 0.348(5) 0.3677(20) 0.142(4)
H22 H 0.3070(21) 0.405(4) 0.220(3)
H23 H 0.226(3) 0.472(3) 0.105(3)
H24 H 0.371(4) 0.476(4) 0.090(3)
H25 H 0.330(5) 0.5131(19) 0.169(5)
C24 C 0.547(4) 0.1395(19) 0.429(3)
O8 O 0.421(4) 0.143(3) 0.371(3)
C25 C 0.597(4) 0.2144(24) 0.454(3)
H26 H 0.533(8) 0.116(3) 0.476(3)
H27 H 0.612(5) 0.118(4) 0.403(5)
H28 H 0.680(5) 0.212(4) 0.492(4)
H29 H 0.532(6) 0.236(4) 0.480(5)
H30 H 0.611(8) 0.238(4) 0.406(4)
O5? O 0.171(5) 0.194(3) 0.208(3)
C21? C 0.43862 0.44561 0.13886
loop_
_geom_bond_atom_site_label_1
_geom_bond_atom_site_label_2
_geom_bond_site_symmetry_1
_geom_bond_site_symmetry_2
Cu1 Cl1 1_555 1_555
Cl2 Cu1 1_555 1_555
O1 C9 1_555 1_555
O2 C10 1_555 1_555
O3 Cu1 1_555 1_555
N1 C1 1_555 1_555
N2 C6 1_555 1_555
N3 C8 1_555 1_555
N4 C12 1_555 1_555
N5 C14 1_555 1_555
N6 Cu1 1_555 1_555
C1 C2 1_555 1_555
C2 C3 1_555 1_555
C3 C4 1_555 1_555
C4 C5 1_555 1_555
C5 C6 1_555 1_555
C6 C1 1_555 1_555
C7 N1 1_555 1_555
C8 C7 1_555 1_555
C9 N3 1_555 1_555
C10 C9 1_555 1_555
C11 O2 1_555 1_555
C12 O3 1_555 1_555
C13 N4 1_555 1_555
C14 N6 1_555 1_555
C15 N6 1_555 1_555
C16 C15 1_555 1_555
C17 C16 1_555 1_555
C18 C17 1_555 1_555
C19 C18 1_555 1_555
C20 N5 1_555 1_555
H1 C2 1_555 1_555
H2 C3 1_555 1_555
H3 C4 1_555 1_555
H4 C5 1_555 1_555
H5 C8 1_555 1_555
H6 C8 1_555 1_555
H7 C10 1_555 1_555
H8 C10 1_555 1_555
H9 C11 1_555 1_555
H10 C11 1_555 1_555
H11 C13 1_555 1_555
H12 C13 1_555 1_555
H13 C16 1_555 1_555
H14 C17 1_555 1_555
H15 C18 1_555 1_555
H16 C19 1_555 1_555
H17 N1 1_555 1_555
H18 N3 1_555 1_555
H19 N4 1_555 1_555
H20 N5 1_555 1_555
C22 O7 1_555 1_555
C23 C22 1_555 1_555
H21 C22 1_555 1_555
H22 C22 1_555 1_555
H23 C23 1_555 1_555
H24 C23 1_555 1_555
H25 C23 1_555 1_555
C24 O8 1_555 1_555
C25 C24 1_555 1_555
H26 C24 1_555 1_555
H27 C24 1_555 1_555
H28 C25 1_555 1_555
H29 C25 1_555 1_555
H30 C25 1_555 1_555
N2_2 Cu1 1_555 1_555
Cu1_2 N2 1_555 1_555
N2 C7 1_555 1_555
C11 C12 1_555 1_555
C13 C14 1_555 1_555
C15 C20 1_555 1_555
C19 C20 1_555 1_555

#END
