
#######################################################################
#
#                 Cambridge Crystallographic Data Centre
#                                CCDC 
#
#######################################################################
#
# If this CIF has been generated from an entry in the Cambridge 
# Structural Database, then it will include bibliographic, chemical, 
# crystal, experimental, refinement or atomic coordinate data resulting 
# from the CCDC's data processing and validation procedures.
#
#######################################################################

data_BAZDAJ
_symmetry_cell_setting           orthorhombic
_symmetry_space_group_name_H-M   'P 21 21 21'
_symmetry_Int_Tables_number      19
_space_group_name_Hall           'P 2ac 2ab'
loop_
_symmetry_equiv_pos_site_id
_symmetry_equiv_pos_as_xyz
1 x,y,z
2 1/2-x,-y,1/2+z
3 1/2+x,1/2-y,-z
4 -x,1/2+y,1/2-z
_cell_length_a                   13.3082(3)
_cell_length_b                   15.6219(4)
_cell_length_c                   16.4727(5)
_cell_angle_alpha                90
_cell_angle_beta                 90
_cell_angle_gamma                90
_cell_volume                     3424.66
loop_
_atom_site_label
_atom_site_type_symbol
_atom_site_fract_x
_atom_site_fract_y
_atom_site_fract_z
C1 C 0.0356(3) 0.8242(3) 0.3787(3)
C2 C 0.0081(3) 0.8096(3) 0.2990(3)
H1 H 0.0152 0.7539 0.2767
C3 C -0.0297(3) 0.8750(3) 0.2510(3)
H2 H -0.0490 0.8634 0.1965
C4 C -0.0394(3) 0.9565(3) 0.2815(3)
C5 C -0.0117(3) 0.9734(3) 0.3583(3)
H3 H -0.0177 1.0302 0.3784
C6 C 0.0260(3) 0.9088(3) 0.4097(3)
C7 C 0.0567(3) 0.9315(3) 0.4911(2)
H4 H 0.0507 0.9899 0.5064
C8 C 0.1171(3) 0.9128(2) 0.6254(2)
H5 H 0.0728 0.9615 0.6395
H6 H 0.1877 0.9328 0.6264
C9 C 0.1028(3) 0.8418(2) 0.6838(2)
H7 H 0.0302 0.8310 0.6921
H8 H 0.1330 0.8569 0.7368
C10 C 0.2635(3) 0.7645(3) 0.6557(2)
H9 H 0.2881 0.7066 0.6702
H10 H 0.2854 0.8048 0.6985
C11 C 0.3077(3) 0.7916(2) 0.5739(2)
H11 H 0.3012 0.8542 0.5664
H12 H 0.3797 0.7760 0.5707
C12 C 0.2813(3) 0.6535(2) 0.5018(3)
H13 H 0.2994 0.6292 0.5553
H14 H 0.3406 0.6497 0.4656
C13 C 0.1934(3) 0.6050(2) 0.4654(3)
H15 H 0.1827 0.6220 0.4082
H16 H 0.2056 0.5425 0.4675
C14 C 0.0390(3) 0.5726(2) 0.5329(3)
H17 H 0.0488 0.5160 0.5135
C15 C -0.0488(3) 0.5883(3) 0.5790(3)
C16 C -0.1106(4) 0.5187(3) 0.6037(4)
H18 H -0.0944 0.4617 0.5883
C17 C -0.1962(3) 0.5357(4) 0.6512(4)
C18 C -0.2186(4) 0.6147(4) 0.6748(3)
H19 H -0.2759 0.6238 0.7082
C19 C -0.1619(3) 0.6821(3) 0.6525(3)
H20 H -0.1800 0.7378 0.6704
C20 C -0.0770(3) 0.6720(3) 0.6037(3)
N1 N 0.0914(2) 0.87913(19) 0.54467(19)
N2 N 0.1520(2) 0.7639(2) 0.6506(2)
H21 H 0.1288 0.7171 0.6801
N3 N 0.2486(2) 0.7447(2) 0.51077(19)
H22 H 0.2600 0.7718 0.4614
N4 N 0.1061(2) 0.6279(2) 0.5152(2)
O1 O 0.0690(2) 0.75946(17) 0.42138(17)
O2 O -0.03017(18) 0.74185(18) 0.57879(19)
Cl1 Cl -0.08505(11) 1.03757(9) 0.21919(9)
Cl2 Cl -0.27197(10) 0.44740(12) 0.67456(17)
Fe1 Fe 0.09951(4) 0.75243(3) 0.53407(3)
C21 C 0.0137(3) 0.7681(2) 0.8555(2)
C22 C -0.0679(3) 0.6976(2) 0.8492(2)
C23 C -0.2341(3) 0.8711(2) 1.0277(3)
C24 C -0.3325(3) 0.8696(2) 0.9776(2)
C25 C -0.1451(3) 0.9591(2) 0.7082(2)
C26 C -0.1584(3) 1.0264(2) 0.7766(2)
O3 O 0.10314(18) 0.74132(14) 0.85631(15)
O4 O -0.03442(18) 0.62226(14) 0.84465(17)
O5 O -0.01233(18) 0.84468(14) 0.85804(18)
O6 O -0.15705(18) 0.72124(15) 0.84788(18)
O7 O -0.15333(19) 0.86882(17) 0.98980(17)
O8 O -0.24506(18) 0.87937(16) 1.10298(15)
O9 O -0.3272(2) 0.85912(16) 0.90303(16)
O10 O -0.41215(18) 0.87954(15) 1.01791(15)
O11 O -0.1604(2) 0.88296(16) 0.72581(16)
O12 O -0.11907(18) 0.98830(14) 0.63977(16)
O13 O -0.1783(2) 1.00137(14) 0.84530(16)
O14 O -0.14515(19) 1.10360(15) 0.75371(15)
Cr1 Cr 0.11215(4) 0.61551(3) 0.86353(4)
Mn1 Mn -0.17530(5) 0.86006(3) 0.85701(4)
O8B O 0.25494(18) 0.62063(16) 0.89702(15)
O10B O 0.08785(18) 0.62046(15) 0.98209(15)
O12C O 0.11907(18) 0.48830(14) 0.86023(16)
O14C O 0.14515(19) 0.60360(15) 0.74629(15)
Cr1B Cr -0.38785(4) 0.88449(3) 1.13647(4)
Cr1C Cr -0.11215(4) 1.11551(3) 0.63647(4)
N5 N 0.3192(9) 0.0727(10) 0.5583(7)
O15 O 0.2420(7) 0.0544(6) 0.5290(5)
O16 O 0.3601(13) 0.0130(9) 0.5996(9)
C27 C 0.3637(10) 0.1453(7) 0.5548(8)
H23 H 0.4272 0.1422 0.5848
H24 H 0.3207 0.1893 0.5790
H25 H 0.3772 0.1598 0.4980
loop_
_geom_bond_atom_site_label_1
_geom_bond_atom_site_label_2
_geom_bond_site_symmetry_1
_geom_bond_site_symmetry_2
C1 C2 1_555 1_555
C2 H1 1_555 1_555
C3 C2 1_555 1_555
H2 C3 1_555 1_555
C4 C3 1_555 1_555
C5 C4 1_555 1_555
H3 C5 1_555 1_555
C6 C1 1_555 1_555
C7 C6 1_555 1_555
H4 C7 1_555 1_555
C8 H5 1_555 1_555
H6 C8 1_555 1_555
C9 C8 1_555 1_555
H7 C9 1_555 1_555
H8 C9 1_555 1_555
C10 H9 1_555 1_555
H10 C10 1_555 1_555
C11 C10 1_555 1_555
H11 C11 1_555 1_555
H12 C11 1_555 1_555
C12 H13 1_555 1_555
H14 C12 1_555 1_555
C13 C12 1_555 1_555
H15 C13 1_555 1_555
H16 C13 1_555 1_555
C14 H17 1_555 1_555
C15 C14 1_555 1_555
C16 C15 1_555 1_555
H18 C16 1_555 1_555
C17 C16 1_555 1_555
C18 C17 1_555 1_555
H19 C18 1_555 1_555
C19 C18 1_555 1_555
H20 C19 1_555 1_555
C20 C15 1_555 1_555
C21 C22 1_555 1_555
C22 O4 1_555 1_555
C23 C24 1_555 1_555
C24 O9 1_555 1_555
C25 C26 1_555 1_555
C26 O13 1_555 1_555
N1 C7 1_555 1_555
N2 C9 1_555 1_555
H21 N2 1_555 1_555
N3 C11 1_555 1_555
H22 N3 1_555 1_555
N4 C13 1_555 1_555
O1 C1 1_555 1_555
O2 C20 1_555 1_555
O3 C21 1_555 1_555
O4 Cr1 1_555 1_555
O5 C21 1_555 1_555
O6 C22 1_555 1_555
O7 C23 1_555 1_555
O8 C23 1_555 1_555
O9 Mn1 1_555 1_555
O10 C24 1_555 1_555
O11 C25 1_555 1_555
O12 C25 1_555 1_555
O13 Mn1 1_555 1_555
O14 C26 1_555 1_555
Cl1 C4 1_555 1_555
Cl2 C17 1_555 1_555
Cr1 O3 1_555 1_555
Mn1 O5 1_555 1_555
Fe1 N1 1_555 1_555
N5 O15 1_555 1_555
O16 N5 1_555 1_555
C27 N5 1_555 1_555
H23 C27 1_555 1_555
H24 C27 1_555 1_555
H25 C27 1_555 1_555
O8B Cr1 1_555 1_555
O10B Cr1 1_555 1_555
O12C Cr1 1_555 1_555
O14C Cr1 1_555 1_555
Cr1B O8 1_555 1_555
Cr1C O12 1_555 1_555
C5 C6 1_555 1_555
C8 N1 1_555 1_555
C10 N2 1_555 1_555
C12 N3 1_555 1_555
C14 N4 1_555 1_555
C19 C20 1_555 1_555
N2 Fe1 1_555 1_555
N3 Fe1 1_555 1_555
N4 Fe1 1_555 1_555
O1 Fe1 1_555 1_555
O2 Fe1 1_555 1_555
O6 Mn1 1_555 1_555
O7 Mn1 1_555 1_555
O10 Cr1B 1_555 1_555
O11 Mn1 1_555 1_555
O14 Cr1C 1_555 1_555

#END
