
#######################################################################
#
#                 Cambridge Crystallographic Data Centre
#                                CCDC 
#
#######################################################################
#
# If this CIF has been generated from an entry in the Cambridge 
# Structural Database, then it will include bibliographic, chemical, 
# crystal, experimental, refinement or atomic coordinate data resulting 
# from the CCDC's data processing and validation procedures.
#
#######################################################################

data_BAZLEU
_symmetry_cell_setting           monoclinic
_symmetry_space_group_name_H-M   'P 21/c'
_symmetry_Int_Tables_number      14
_space_group_name_Hall           '-P 2ybc'
loop_
_symmetry_equiv_pos_site_id
_symmetry_equiv_pos_as_xyz
1 x,y,z
2 x,1/2-y,1/2+z
3 -x,-y,-z
4 -x,1/2+y,1/2-z
_cell_length_a                   13.58290(10)
_cell_length_b                   38.3724(3)
_cell_length_c                   11.26830(10)
_cell_angle_alpha                90
_cell_angle_beta                 90.7307(3)
_cell_angle_gamma                90
_cell_volume                     5872.66
loop_
_atom_site_label
_atom_site_type_symbol
_atom_site_fract_x
_atom_site_fract_y
_atom_site_fract_z
Mn1 Mn 0.50099(3) 0.118785(10) 0.41660(4)
Si1 Si 1.01737(5) 0.116077(19) 0.88164(7)
O1 O 0.96306(13) 0.09527(5) 0.77444(18)
O2 O 1.12963(13) 0.10206(6) 0.88344(17)
O3 O 0.96988(16) 0.10967(5) 1.00974(18)
O4 O 1.00898(16) 0.15730(5) 0.85487(17)
O5 O 0.63962(14) 0.10415(6) 0.48181(18)
O6 O 1.44134(13) 0.10871(5) 0.58170(17)
O7 O 0.8356(2) 0.01314(7) 1.3256(2)
O8 O 0.9290(2) 0.27754(8) 1.0979(4)
O9 O 0.45823(16) 0.07065(5) 0.32699(19)
O10 O 0.35962(15) 0.13497(6) 0.34584(19)
O11 O 0.56382(16) 0.13007(5) 0.24552(18)
O12 O 0.51817(17) 0.17447(5) 0.43685(19)
N1 N 0.71217(15) 0.10357(6) 0.5564(2)
N2 N 1.36256(15) 0.10813(6) 0.6436(2)
N3 N 0.86780(19) 0.03618(7) 1.2522(2)
N4 N 0.9458(2) 0.25023(7) 1.0341(3)
C1 C 0.71360(19) 0.07379(7) 0.6423(2)
C2 C 0.8183(2) 0.06955(7) 0.6922(3)
H1 H 0.8165 0.0541 0.7601
H2 H 0.8587 0.0586 0.6323
C3 C 0.86583(18) 0.10333(7) 0.7295(2)
H3 H 0.8269 0.1145 0.7914
C4 C 0.8728(2) 0.12690(8) 0.6234(3)
H4 H 0.9127 0.1156 0.5638
H5 H 0.9060 0.1482 0.6470
C5 C 0.7720(2) 0.13619(7) 0.5680(3)
C6 C 0.6404(2) 0.08083(9) 0.7410(3)
H6 H 0.5756 0.0835 0.7072
H7 H 0.6587 0.1018 0.7822
H8 H 0.6407 0.0616 0.7956
C7 C 0.6849(3) 0.04077(8) 0.5736(3)
H9 H 0.7315 0.0368 0.5117
H10 H 0.6204 0.0436 0.5393
H11 H 0.6848 0.0212 0.6267
C8 C 0.7164(3) 0.16245(8) 0.6432(4)
H12 H 0.7071 0.1531 0.7212
H13 H 0.6535 0.1672 0.6069
H14 H 0.7536 0.1837 0.6488
C9 C 0.7873(3) 0.15092(11) 0.4437(3)
H15 H 0.8223 0.1342 0.3967
H16 H 0.8247 0.1721 0.4491
H17 H 0.7245 0.1557 0.4071
C10 C 1.3294(2) 0.14220(7) 0.6952(3)
C11 C 1.2655(2) 0.13464(8) 0.8031(3)
H18 H 1.3077 0.1275 0.8688
H19 H 1.2323 0.1559 0.8263
C12 C 1.18939(19) 0.10662(8) 0.7801(2)
H20 H 1.1476 0.1133 0.7123
C13 C 1.2413(2) 0.07303(8) 0.7528(3)
H21 H 1.1926 0.0547 0.7427
H22 H 1.2831 0.0668 0.8199
C14 C 1.3040(2) 0.07479(7) 0.6418(3)
C15 C 1.4211(3) 0.16240(10) 0.7342(3)
H23 H 1.4563 0.1493 0.7937
H24 H 1.4019 0.1845 0.7664
H25 H 1.4626 0.1661 0.6671
C16 C 1.2726(3) 0.16283(9) 0.6003(3)
H26 H 1.2151 0.1500 0.5762
H27 H 1.3139 0.1665 0.5330
H28 H 1.2531 0.1849 0.6323
C17 C 1.3769(3) 0.04454(9) 0.6423(4)
H29 H 1.4163 0.0454 0.7136
H30 H 1.4187 0.0463 0.5746
H31 H 1.3415 0.0229 0.6392
C18 C 1.2413(3) 0.07369(11) 0.5293(3)
H32 H 1.2830 0.0751 0.4613
H33 H 1.1964 0.0930 0.5287
H34 H 1.2047 0.0523 0.5267
C19 C 0.9755(3) 0.03924(10) 1.2442(3)
C20 C 1.0029(2) 0.07168(10) 1.1731(3)
H35 H 0.9963 0.0919 1.2239
H36 H 1.0716 0.0699 1.1512
C21 C 0.9427(2) 0.07734(7) 1.0635(3)
H37 H 0.9521 0.0581 1.0078
C22 C 0.8359(2) 0.08006(8) 1.0971(3)
H38 H 0.7968 0.0841 1.0258
H39 H 0.8279 0.1001 1.1486
C23 C 0.7964(2) 0.04812(8) 1.1595(3)
C24 C 1.0144(4) 0.00561(13) 1.1874(5)
H40 H 0.9953 -0.0141 1.2345
H41 H 1.0849 0.0066 1.1836
H42 H 0.9873 0.0033 1.1087
C25 C 1.0159(5) 0.0425(2) 1.3699(5)
H43 H 0.9987 0.0221 1.4143
H44 H 0.9882 0.0627 1.4069
H45 H 1.0862 0.0447 1.3679
C26 C 0.7758(4) 0.01865(11) 1.0730(4)
H46 H 0.7513 -0.0012 1.1153
H47 H 0.8355 0.0124 1.0335
H48 H 0.7276 0.0261 1.0153
C27 C 0.7010(3) 0.05806(13) 1.2233(5)
H49 H 0.7142 0.0768 1.2777
H50 H 0.6770 0.0383 1.2662
H51 H 0.6524 0.0653 1.1659
C28 C 0.8702(3) 0.22206(10) 1.0420(4)
C29 C 0.8904(2) 0.19392(9) 0.9490(3)
H52 H 0.8526 0.1733 0.9679
H53 H 0.8681 0.2022 0.8719
C30 C 0.9974(2) 0.18425(7) 0.9419(2)
H54 H 1.0218 0.1763 1.0195
C31 C 1.0531(3) 0.21605(8) 0.9031(3)
H55 H 1.0269 0.2238 0.8271
H56 H 1.1216 0.2098 0.8920
C32 C 1.0478(2) 0.24609(8) 0.9912(3)
C33 C 0.8727(4) 0.20722(14) 1.1658(5)
H57 H 0.8605 0.2255 1.2220
H58 H 0.9362 0.1971 1.1816
H59 H 0.8229 0.1896 1.1726
C34 C 0.7707(3) 0.23901(14) 1.0131(7)
H60 H 0.7716 0.2483 0.9340
H61 H 0.7586 0.2575 1.0685
H62 H 0.7195 0.2219 1.0188
C35 C 1.1159(3) 0.24022(11) 1.0977(3)
H63 H 1.0972 0.2192 1.1378
H64 H 1.1108 0.2596 1.1513
H65 H 1.1825 0.2382 1.0713
C36 C 1.0781(4) 0.28011(10) 0.9305(4)
H66 H 1.0357 0.2843 0.8632
H67 H 1.1449 0.2783 0.9046
H68 H 1.0726 0.2991 0.9856
C37 C 0.4106(3) 0.03491(10) 0.1668(4)
C38 C 0.4022(2) 0.06867(8) 0.2387(3)
C39 C 0.3336(3) 0.09262(9) 0.1967(3)
H69 H 0.2977 0.0876 0.1280
C40 C 0.3175(2) 0.12384(9) 0.2551(3)
C41 C 0.2393(3) 0.14774(12) 0.2057(4)
C42 C 0.5714(3) 0.15347(10) 0.0564(3)
C43 C 0.5550(2) 0.15770(8) 0.1900(3)
C44 C 0.5321(3) 0.19066(9) 0.2343(3)
H70 H 0.5275 0.2094 0.1822
C45 C 0.5161(3) 0.19616(8) 0.3538(3)
C46 C 0.4905(4) 0.23273(11) 0.3937(5)
F1 F 0.4688(3) 0.01188(7) 0.2137(4)
F2 F 0.3259(3) 0.01837(8) 0.1626(4)
F3 F 0.4350(5) 0.04025(9) 0.0604(3)
F4 F 0.2622(4) 0.17893(10) 0.2094(6)
F5 F 0.1625(3) 0.14914(15) 0.2756(4)
F6 F 0.1977(3) 0.13946(12) 0.1111(3)
F7 F 0.5226(3) 0.12777(9) 0.0125(2)
F8 F 0.5546(3) 0.18111(8) -0.0062(2)
F9 F 0.6655(3) 0.14574(11) 0.0353(3)
F10 F 0.4002(4) 0.23792(12) 0.3939(8)
F11 F 0.5278(5) 0.25694(8) 0.3304(4)
F12 F 0.5219(4) 0.24027(8) 0.4984(4)
O6_2 O 0.44134(13) 0.10871(5) 0.58170(17)
Mn1_2 Mn 1.50099(3) 0.118785(10) 0.41660(4)
loop_
_geom_bond_atom_site_label_1
_geom_bond_atom_site_label_2
_geom_bond_site_symmetry_1
_geom_bond_site_symmetry_2
Mn1 O5 1_555 1_555
Si1 O1 1_555 1_555
O1 C3 1_555 1_555
O2 Si1 1_555 1_555
O3 Si1 1_555 1_555
O4 Si1 1_555 1_555
O5 N1 1_555 1_555
O6 N2 1_555 1_555
O7 N3 1_555 1_555
O8 N4 1_555 1_555
O9 Mn1 1_555 1_555
O10 Mn1 1_555 1_555
O11 Mn1 1_555 1_555
O12 Mn1 1_555 1_555
N1 C1 1_555 1_555
N2 C10 1_555 1_555
N3 C19 1_555 1_555
N4 C28 1_555 1_555
C1 C2 1_555 1_555
C2 H1 1_555 1_555
H2 C2 1_555 1_555
C3 C2 1_555 1_555
H3 C3 1_555 1_555
C4 C3 1_555 1_555
H4 C4 1_555 1_555
H5 C4 1_555 1_555
C5 N1 1_555 1_555
C6 C1 1_555 1_555
H6 C6 1_555 1_555
H7 C6 1_555 1_555
H8 C6 1_555 1_555
C7 C1 1_555 1_555
H9 C7 1_555 1_555
H10 C7 1_555 1_555
H11 C7 1_555 1_555
C8 C5 1_555 1_555
H12 C8 1_555 1_555
H13 C8 1_555 1_555
H14 C8 1_555 1_555
C9 C5 1_555 1_555
H15 C9 1_555 1_555
H16 C9 1_555 1_555
H17 C9 1_555 1_555
C10 C11 1_555 1_555
C11 H18 1_555 1_555
H19 C11 1_555 1_555
C12 O2 1_555 1_555
H20 C12 1_555 1_555
C13 C12 1_555 1_555
H21 C13 1_555 1_555
H22 C13 1_555 1_555
C14 N2 1_555 1_555
C15 C10 1_555 1_555
H23 C15 1_555 1_555
H24 C15 1_555 1_555
H25 C15 1_555 1_555
C16 C10 1_555 1_555
H26 C16 1_555 1_555
H27 C16 1_555 1_555
H28 C16 1_555 1_555
C17 C14 1_555 1_555
H29 C17 1_555 1_555
H30 C17 1_555 1_555
H31 C17 1_555 1_555
C18 C14 1_555 1_555
H32 C18 1_555 1_555
H33 C18 1_555 1_555
H34 C18 1_555 1_555
C19 C20 1_555 1_555
C20 H35 1_555 1_555
H36 C20 1_555 1_555
C21 O3 1_555 1_555
H37 C21 1_555 1_555
C22 C21 1_555 1_555
H38 C22 1_555 1_555
H39 C22 1_555 1_555
C23 N3 1_555 1_555
C24 C19 1_555 1_555
H40 C24 1_555 1_555
H41 C24 1_555 1_555
H42 C24 1_555 1_555
C25 C19 1_555 1_555
H43 C25 1_555 1_555
H44 C25 1_555 1_555
H45 C25 1_555 1_555
C26 C23 1_555 1_555
H46 C26 1_555 1_555
H47 C26 1_555 1_555
H48 C26 1_555 1_555
C27 C23 1_555 1_555
H49 C27 1_555 1_555
H50 C27 1_555 1_555
H51 C27 1_555 1_555
C28 C29 1_555 1_555
C29 H52 1_555 1_555
H53 C29 1_555 1_555
C30 O4 1_555 1_555
H54 C30 1_555 1_555
C31 C30 1_555 1_555
H55 C31 1_555 1_555
H56 C31 1_555 1_555
C32 N4 1_555 1_555
C33 C28 1_555 1_555
H57 C33 1_555 1_555
H58 C33 1_555 1_555
H59 C33 1_555 1_555
C34 C28 1_555 1_555
H60 C34 1_555 1_555
H61 C34 1_555 1_555
H62 C34 1_555 1_555
C35 C32 1_555 1_555
H63 C35 1_555 1_555
H64 C35 1_555 1_555
H65 C35 1_555 1_555
C36 C32 1_555 1_555
H66 C36 1_555 1_555
H67 C36 1_555 1_555
H68 C36 1_555 1_555
C37 C38 1_555 1_555
C38 O9 1_555 1_555
C39 C38 1_555 1_555
H69 C39 1_555 1_555
C40 O10 1_555 1_555
C41 C40 1_555 1_555
C42 C43 1_555 1_555
C43 O11 1_555 1_555
C44 C43 1_555 1_555
H70 C44 1_555 1_555
C45 O12 1_555 1_555
C46 C45 1_555 1_555
F1 C37 1_555 1_555
F2 C37 1_555 1_555
F3 C37 1_555 1_555
F4 C41 1_555 1_555
F5 C41 1_555 1_555
F6 C41 1_555 1_555
F7 C42 1_555 1_555
F8 C42 1_555 1_555
F9 C42 1_555 1_555
F10 C46 1_555 1_555
F11 C46 1_555 1_555
F12 C46 1_555 1_555
O6_2 Mn1 1_555 1_555
Mn1_2 O6 1_555 1_555
C4 C5 1_555 1_555
C11 C12 1_555 1_555
C13 C14 1_555 1_555
C20 C21 1_555 1_555
C22 C23 1_555 1_555
C29 C30 1_555 1_555
C31 C32 1_555 1_555
C39 C40 1_555 1_555
C44 C45 1_555 1_555

#END
