
#######################################################################
#
#                 Cambridge Crystallographic Data Centre
#                                CCDC 
#
#######################################################################
#
# If this CIF has been generated from an entry in the Cambridge 
# Structural Database, then it will include bibliographic, chemical, 
# crystal, experimental, refinement or atomic coordinate data resulting 
# from the CCDC's data processing and validation procedures.
#
#######################################################################

data_BAZMOF
_symmetry_cell_setting           triclinic
_symmetry_space_group_name_H-M   'P 1'
_symmetry_Int_Tables_number      1
_space_group_name_Hall           'P 1'
loop_
_symmetry_equiv_pos_site_id
_symmetry_equiv_pos_as_xyz
1 x,y,z
_cell_length_a                   8.44470(10)
_cell_length_b                   12.72030(10)
_cell_length_c                   16.12770(10)
_cell_angle_alpha                105.4881(3)
_cell_angle_beta                 98.5223(3)
_cell_angle_gamma                96.6158(3)
_cell_volume                     1629.16
loop_
_atom_site_label
_atom_site_type_symbol
_atom_site_fract_x
_atom_site_fract_y
_atom_site_fract_z
Cu1 Cu 0.72601(4) 0.72363(3) 0.90936(2)
N1 N 0.7960(3) 0.6803(2) 0.79312(15)
H1 H 0.878(3) 0.6450(19) 0.7972(19)
H2 H 0.837(3) 0.7422(16) 0.7863(19)
N2 N 0.5263(3) 0.6097(2) 0.84959(15)
H3 H 0.442(3) 0.640(2) 0.8359(17)
H4 H 0.495(3) 0.567(2) 0.8797(17)
N3 N 0.9293(3) 0.8321(2) 0.97217(16)
H5 H 0.931(3) 0.8909(18) 0.9525(19)
H6 H 1.021(3) 0.812(2) 0.9656(18)
N4 N 0.6508(3) 0.7707(2) 1.02351(16)
H7 H 0.664(3) 0.720(2) 1.0495(19)
H8 H 0.548(2) 0.772(2) 1.0134(19)
C1 C 0.6592(3) 0.6092(2) 0.72614(16)
H9 H 0.5881 0.6573 0.7070
C2 C 0.7120(4) 0.5396(3) 0.64588(19)
H10 H 0.7866 0.4935 0.6634
H11 H 0.7682 0.5876 0.6181
C3 C 0.5643(5) 0.4665(3) 0.5807(2)
H12 H 0.4962 0.5129 0.5583
H13 H 0.6006 0.4193 0.5316
C4 C 0.4655(4) 0.3952(3) 0.6232(2)
H14 H 0.5295 0.3429 0.6398
H15 H 0.3694 0.3536 0.5815
C5 C 0.4157(4) 0.4669(2) 0.70388(19)
H16 H 0.3433 0.5142 0.6864
H17 H 0.3579 0.4201 0.7319
C6 C 0.5642(3) 0.5377(2) 0.76841(16)
H18 H 0.6342 0.4878 0.7855
C7 C 0.9251(3) 0.8664(2) 1.06674(16)
H19 H 0.9564 0.8074 1.0910
C8 C 1.0407(4) 0.9731(3) 1.1178(2)
H20 H 1.1516 0.9630 1.1134
H21 H 1.0160 1.0323 1.0931
C9 C 1.0230(4) 1.0035(3) 1.2132(2)
H22 H 1.0562 0.9466 1.2386
H23 H 1.0944 1.0724 1.2448
C10 C 0.8507(4) 1.0160(3) 1.2238(2)
H24 H 0.8198 1.0769 1.2030
H25 H 0.8433 1.0324 1.2852
C11 C 0.7349(5) 0.9086(3) 1.1714(2)
H26 H 0.7587 0.8495 1.1965
H27 H 0.6239 0.9188 1.1754
C12 C 0.7525(3) 0.8767(2) 1.07643(17)
H28 H 0.7203 0.9349 1.0513
Cu2 Cu 1.24543(4) 0.74125(3) 1.42247(2)
N5 N 1.0523(3) 0.6613(2) 1.45060(16)
H29 H 0.966(3) 0.663(3) 1.4144(15)
H30 H 1.036(3) 0.687(2) 1.5021(11)
N6 N 1.2965(3) 0.58892(19) 1.37090(17)
H31 H 1.386(3) 0.582(2) 1.4050(15)
H32 H 1.329(3) 0.578(3) 1.3198(12)
N7 N 1.1962(4) 0.8953(2) 1.46779(17)
H33 H 1.095(2) 0.902(3) 1.4608(19)
H34 H 1.229(3) 0.908(3) 1.5220(12)
N8 N 1.4389(3) 0.8182(2) 1.39258(18)
H35 H 1.424(3) 0.806(2) 1.3366(11)
H36 H 1.523(3) 0.794(3) 1.407(2)
C13 C 1.0768(4) 0.5466(2) 1.44280(18)
H37 H 1.1537 0.5465 1.4946
C14 C 0.9209(5) 0.4695(3) 1.4370(3)
H38 H 0.8415 0.4696 1.3870
H39 H 0.8760 0.4945 1.4895
C15 C 0.9600(7) 0.3510(3) 1.4271(3)
H40 H 1.0354 0.3507 1.4786
H41 H 0.8612 0.3010 1.4226
C16 C 1.0335(5) 0.3116(3) 1.3464(2)
H42 H 1.0585 0.2379 1.3418
H43 H 0.9554 0.3076 1.2946
C17 C 1.1865(4) 0.3888(2) 1.3505(2)
H44 H 1.2278 0.3644 1.2967
H45 H 1.2687 0.3870 1.3987
C18 C 1.1525(3) 0.5069(2) 1.36308(17)
H46 H 1.0744 0.5068 1.3117
C19 C 1.2863(4) 0.9668(2) 1.42552(18)
H47 H 1.2342 0.9463 1.3637
C20 C 1.2874(5) 1.0903(2) 1.4643(2)
H48 H 1.1771 1.1055 1.4578
H49 H 1.3338 1.1124 1.5263
C21 C 1.3858(5) 1.1556(3) 1.4184(2)
H50 H 1.3918 1.2340 1.4464
H51 H 1.3319 1.1396 1.3579
C22 C 1.5554(6) 1.1281(3) 1.4210(3)
H52 H 1.6137 1.1519 1.4811
H53 H 1.6128 1.1677 1.3877
C23 C 1.5517(5) 1.0045(3) 1.3830(3)
H54 H 1.5044 0.9822 1.3211
H55 H 1.6618 0.9886 1.3889
C24 C 1.4540(4) 0.9392(2) 1.4294(2)
H56 H 1.5073 0.9596 1.4910
Fe1 Fe 1.19575(4) 0.59000(3) 1.08967(2)
N9 N 1.0884(4) 0.7257(2) 1.25469(17)
N10 N 1.3066(4) 0.8019(3) 1.0410(2)
N11 N 1.5185(4) 0.6323(3) 1.2198(2)
N12 N 1.3456(4) 0.4463(3) 0.94537(19)
N13 N 1.0776(4) 0.3717(2) 1.1289(2)
N14 N 0.8655(3) 0.5728(2) 0.97033(18)
C25 C 1.1211(4) 0.6763(2) 1.19093(19)
C26 C 1.2650(4) 0.7235(3) 1.0591(2)
C27 C 1.4016(4) 0.6143(3) 1.1689(2)
C28 C 1.2883(4) 0.5004(3) 0.99627(19)
C29 C 1.1218(4) 0.4537(3) 1.11590(19)
C30 C 0.9872(4) 0.5773(2) 1.01368(18)
Fe2 Fe 0.26357(4) 0.86601(3) 0.74287(2)
N15 N 0.1184(4) 1.0107(3) 0.88973(19)
N16 N 0.3723(4) 1.0807(2) 0.6967(2)
N17 N 0.5995(3) 0.8827(2) 0.85788(17)
N18 N 0.3859(3) 0.7389(3) 0.58000(18)
N19 N 0.1517(4) 0.6520(3) 0.7884(2)
N20 N -0.0628(4) 0.8210(3) 0.6166(2)
C31 C 0.1757(4) 0.9554(3) 0.8373(2)
C32 C 0.3307(4) 1.0005(2) 0.71310(19)
C33 C 0.4746(3) 0.8790(2) 0.81583(17)
C34 C 0.3437(4) 0.7847(3) 0.64253(18)
C35 C 0.1934(4) 0.7322(3) 0.7722(2)
C36 C 0.0563(4) 0.8414(3) 0.6657(2)
N18_2 N 1.3859(3) 0.7389(3) 1.58000(18)
Cu2_2 Cu 0.24543(4) 0.74125(3) 0.42247(2)
Cu3 Cu 0.72201(5) 0.22876(3) 0.91366(2)
N21 N 0.8847(3) 0.3239(2) 0.87456(16)
H57 H 0.871(3) 0.3887(16) 0.8813(19)
H58 H 0.979(2) 0.321(2) 0.8986(18)
N22 N 0.7332(3) 0.1119(2) 0.80249(16)
H59 H 0.638(3) 0.091(2) 0.7657(17)
H60 H 0.754(3) 0.0491(17) 0.8095(18)
N23 N 0.7086(3) 0.3428(2) 1.02593(16)
H61 H 0.634(3) 0.376(2) 1.0118(19)
H62 H 0.797(2) 0.390(2) 1.0472(18)
N24 N 0.5615(4) 0.1310(2) 0.95382(17)
H63 H 0.625(3) 0.084(2) 0.9587(19)
H64 H 0.482(3) 0.092(2) 0.9119(16)
C37 C 0.8718(3) 0.2767(2) 0.77883(17)
H65 H 0.7691 0.2912 0.7503
C38 C 1.0064(4) 0.3261(3) 0.7408(2)
H66 H 1.0073 0.4051 0.7525
H67 H 1.1105 0.3148 0.7686
C39 C 0.9805(5) 0.2722(3) 0.6427(2)
H68 H 0.8839 0.2925 0.6144
H69 H 1.0721 0.2998 0.6202
C40 C 0.9624(5) 0.1488(4) 0.6204(2)
H70 H 1.0649 0.1285 0.6413
H71 H 0.9369 0.1177 0.5572
C41 C 0.8292(4) 0.0989(3) 0.6605(2)
H72 H 0.7241 0.1104 0.6342
H73 H 0.8283 0.0199 0.6485
C42 C 0.8604(3) 0.1531(2) 0.75911(17)
H74 H 0.9645 0.1372 0.7845
C43 C 0.6522(3) 0.2841(2) 1.08562(16)
H75 H 0.7398 0.2465 1.1045
C44 C 0.6075(4) 0.3558(3) 1.1666(2)
H76 H 0.5239 0.3964 1.1497
H77 H 0.7018 0.4091 1.2006
C45 C 0.5460(4) 0.2867(3) 1.2230(2)
H78 H 0.6339 0.2533 1.2458
H79 H 0.5111 0.3344 1.2723
C46 C 0.4065(4) 0.1970(3) 1.1713(2)
H80 H 0.3129 0.2305 1.1562
H81 H 0.3776 0.1504 1.2073
C47 C 0.4486(4) 0.1258(3) 1.0875(2)
H82 H 0.5313 0.0837 1.1027
H83 H 0.3530 0.0739 1.0535
C48 C 0.5091(3) 0.1955(2) 1.03304(16)
H84 H 0.4207 0.2325 1.0143
O1 O 0.9477(3) 0.1614(2) 0.99312(17)
H85 H 1.025(3) 0.214(2) 1.018(2)
H86 H 1.004(4) 0.114(2) 0.971(2)
O2 O 0.4998(3) 0.2929(2) 0.83191(17)
H87 H 0.437(4) 0.309(3) 0.8649(17)
H88 H 0.446(4) 0.249(2) 0.7871(14)
O3 O -0.1920(8) 0.6916(6) 0.3212(4)
H89 H -0.165(9) 0.625(3) 0.310(5)
H90 H -0.287(5) 0.667(6) 0.286(5)
O4 O -0.1403(8) -0.0993(5) 0.4563(4)
H91 H -0.210(8) -0.136(6) 0.473(5)
H92 H -0.147(12) -0.134(7) 0.404(2)
O5 O 0.6480(4) 0.7024(4) 0.4935(2)
H93 H 0.575(4) 0.719(4) 0.524(3)
H94 H 0.736(3) 0.726(4) 0.529(2)
O6? O -0.1820(8) 0.7624(5) 0.3357(4)
H95? H -0.179(11) 0.814(4) 0.382(3)
H96? H -0.121(8) 0.800(5) 0.311(4)
loop_
_geom_bond_atom_site_label_1
_geom_bond_atom_site_label_2
_geom_bond_site_symmetry_1
_geom_bond_site_symmetry_2
Cu1 N1 1_555 1_555
N1 H1 1_555 1_555
H2 N1 1_555 1_555
N2 Cu1 1_555 1_555
H3 N2 1_555 1_555
H4 N2 1_555 1_555
N3 Cu1 1_555 1_555
H5 N3 1_555 1_555
H6 N3 1_555 1_555
N4 Cu1 1_555 1_555
H7 N4 1_555 1_555
H8 N4 1_555 1_555
C1 N1 1_555 1_555
H9 C1 1_555 1_555
C2 C1 1_555 1_555
H10 C2 1_555 1_555
H11 C2 1_555 1_555
C3 C2 1_555 1_555
H12 C3 1_555 1_555
H13 C3 1_555 1_555
C4 C3 1_555 1_555
H14 C4 1_555 1_555
H15 C4 1_555 1_555
C5 C4 1_555 1_555
H16 C5 1_555 1_555
H17 C5 1_555 1_555
C6 N2 1_555 1_555
H18 C6 1_555 1_555
C7 N3 1_555 1_555
H19 C7 1_555 1_555
C8 C7 1_555 1_555
H20 C8 1_555 1_555
H21 C8 1_555 1_555
C9 C8 1_555 1_555
H22 C9 1_555 1_555
H23 C9 1_555 1_555
C10 C9 1_555 1_555
H24 C10 1_555 1_555
H25 C10 1_555 1_555
C11 C10 1_555 1_555
H26 C11 1_555 1_555
H27 C11 1_555 1_555
C12 N4 1_555 1_555
H28 C12 1_555 1_555
Cu2 N5 1_555 1_555
N5 H29 1_555 1_555
H30 N5 1_555 1_555
N6 Cu2 1_555 1_555
H31 N6 1_555 1_555
H32 N6 1_555 1_555
N7 Cu2 1_555 1_555
H33 N7 1_555 1_555
H34 N7 1_555 1_555
N8 Cu2 1_555 1_555
H35 N8 1_555 1_555
H36 N8 1_555 1_555
C13 N5 1_555 1_555
H37 C13 1_555 1_555
C14 C13 1_555 1_555
H38 C14 1_555 1_555
H39 C14 1_555 1_555
C15 C14 1_555 1_555
H40 C15 1_555 1_555
H41 C15 1_555 1_555
C16 C15 1_555 1_555
H42 C16 1_555 1_555
H43 C16 1_555 1_555
C17 C16 1_555 1_555
H44 C17 1_555 1_555
H45 C17 1_555 1_555
C18 N6 1_555 1_555
H46 C18 1_555 1_555
C19 N7 1_555 1_555
H47 C19 1_555 1_555
C20 C19 1_555 1_555
H48 C20 1_555 1_555
H49 C20 1_555 1_555
C21 C20 1_555 1_555
H50 C21 1_555 1_555
H51 C21 1_555 1_555
C22 C21 1_555 1_555
H52 C22 1_555 1_555
H53 C22 1_555 1_555
C23 C22 1_555 1_555
H54 C23 1_555 1_555
H55 C23 1_555 1_555
C24 N8 1_555 1_555
H56 C24 1_555 1_555
Fe1 C25 1_555 1_555
N9 Cu2 1_555 1_555
N10 C26 1_555 1_555
N11 C27 1_555 1_555
N12 C28 1_555 1_555
N13 C29 1_555 1_555
N14 Cu1 1_555 1_555
C25 N9 1_555 1_555
C26 Fe1 1_555 1_555
C27 Fe1 1_555 1_555
C28 Fe1 1_555 1_555
C29 Fe1 1_555 1_555
C30 Fe1 1_555 1_555
Fe2 C31 1_555 1_555
N15 C31 1_555 1_555
N16 C32 1_555 1_555
N17 Cu1 1_555 1_555
N18 C34 1_555 1_555
N19 C35 1_555 1_555
N20 C36 1_555 1_555
C32 Fe2 1_555 1_555
C33 Fe2 1_555 1_555
C34 Fe2 1_555 1_555
C35 Fe2 1_555 1_555
C36 Fe2 1_555 1_555
Cu3 N21 1_555 1_555
N21 H57 1_555 1_555
H58 N21 1_555 1_555
N22 Cu3 1_555 1_555
H59 N22 1_555 1_555
H60 N22 1_555 1_555
N23 Cu3 1_555 1_555
H61 N23 1_555 1_555
H62 N23 1_555 1_555
N24 Cu3 1_555 1_555
H63 N24 1_555 1_555
H64 N24 1_555 1_555
C37 N21 1_555 1_555
H65 C37 1_555 1_555
C38 C37 1_555 1_555
H66 C38 1_555 1_555
H67 C38 1_555 1_555
C39 C38 1_555 1_555
H68 C39 1_555 1_555
H69 C39 1_555 1_555
C40 C39 1_555 1_555
H70 C40 1_555 1_555
H71 C40 1_555 1_555
C41 C40 1_555 1_555
H72 C41 1_555 1_555
H73 C41 1_555 1_555
C42 N22 1_555 1_555
H74 C42 1_555 1_555
C43 N23 1_555 1_555
H75 C43 1_555 1_555
C44 C43 1_555 1_555
H76 C44 1_555 1_555
H77 C44 1_555 1_555
C45 C44 1_555 1_555
H78 C45 1_555 1_555
H79 C45 1_555 1_555
C46 C45 1_555 1_555
H80 C46 1_555 1_555
H81 C46 1_555 1_555
C47 C46 1_555 1_555
H82 C47 1_555 1_555
H83 C47 1_555 1_555
C48 N24 1_555 1_555
H84 C48 1_555 1_555
O1 Cu3 1_555 1_555
H85 O1 1_555 1_555
H86 O1 1_555 1_555
O2 Cu3 1_555 1_555
H87 O2 1_555 1_555
H88 O2 1_555 1_555
O3 H89 1_555 1_555
H90 O3 1_555 1_555
O4 H91 1_555 1_555
H92 O4 1_555 1_555
O5 H93 1_555 1_555
H94 O5 1_555 1_555
N18_2 Cu2 1_555 1_555
Cu2_2 N18 1_555 1_555
C1 C6 1_555 1_555
C5 C6 1_555 1_555
C7 C12 1_555 1_555
C11 C12 1_555 1_555
C13 C18 1_555 1_555
C17 C18 1_555 1_555
C19 C24 1_555 1_555
C23 C24 1_555 1_555
N14 C30 1_555 1_555
N17 C33 1_555 1_555
C37 C42 1_555 1_555
C41 C42 1_555 1_555
C43 C48 1_555 1_555
C47 C48 1_555 1_555

#END
