
#######################################################################
#
#                 Cambridge Crystallographic Data Centre
#                                CCDC 
#
#######################################################################
#
# If this CIF has been generated from an entry in the Cambridge 
# Structural Database, then it will include bibliographic, chemical, 
# crystal, experimental, refinement or atomic coordinate data resulting 
# from the CCDC's data processing and validation procedures.
#
#######################################################################

data_BAZTEB
_symmetry_cell_setting           tetragonal
_symmetry_space_group_name_H-M   'P 42/n'
_symmetry_Int_Tables_number      86
_space_group_name_Hall           '-P 4bc'
loop_
_symmetry_equiv_pos_site_id
_symmetry_equiv_pos_as_xyz
1 x,y,z
2 -y,1/2+x,1/2+z
3 1/2+y,-x,1/2+z
4 1/2+x,1/2+y,-z
5 -x,-y,-z
6 y,1/2-x,1/2-z
7 1/2-y,x,1/2-z
8 1/2-x,1/2-y,z
_cell_length_a                   12.434(1)
_cell_length_b                   12.434(1)
_cell_length_c                   14.066(1)
_cell_angle_alpha                90
_cell_angle_beta                 90
_cell_angle_gamma                90
_cell_volume                     2174.66
loop_
_atom_site_label
_atom_site_type_symbol
_atom_site_fract_x
_atom_site_fract_y
_atom_site_fract_z
Ni1 Ni -0.7500 0.2500 0.2500
O1 O -0.7500 0.2500 0.1008(3)
H1 H -0.7448(39) 0.3029(30) 0.0642(29)
N1 N -0.6545(2) 0.1176(2) 0.2402(2)
C1 C -0.5575(3) 0.1222(3) 0.1858(3)
C2 C -0.5169(3) 0.0307(3) 0.1432(3)
H2 H -0.5539 -0.0365 0.1511
C3 C -0.4237(3) 0.0343(4) 0.0893(3)
H3 H -0.3958 -0.0305 0.0616
C4 C -0.3708(3) 0.1289(4) 0.0753(3)
H4 H -0.3063 0.1309 0.0378
C5 C -0.4108(3) 0.2216(4) 0.1162(3)
H5 H -0.3738 0.2882 0.1056
C6 C -0.5036(3) 0.2206(3) 0.1717(3)
C7 C -0.6766(3) 0.0305(3) 0.2843(3)
H6 H -0.6201 -0.0219 0.2892
H1G H -0.7552(39) 0.1971(30) 0.0642(29)
O1E O -0.7500 0.2500 0.3992(3)
H1E H -0.6971(30) 0.2448(39) 0.4358(29)
H1F H -0.8029(30) 0.2552(39) 0.4358(29)
C7F C -0.5305(3) 0.3234(3) 0.2157(3)
N1F N -0.6176(2) 0.3455(2) 0.2598(2)
N1E N -0.8824(2) 0.1545(2) 0.2598(2)
C1E C -0.8778(3) 0.0575(3) 0.3142(3)
C2E C -0.9693(3) 0.0169(3) 0.3568(3)
H2E H -1.0365 0.0539 0.3489
C3E C -0.9657(4) -0.0763(3) 0.4107(3)
H3E H -1.0305 -0.1042 0.4384
C4E C -0.8711(4) -0.1292(3) 0.4247(3)
H4E H -0.8691 -0.1937 0.4622
C5E C -0.7784(4) -0.0892(3) 0.3838(3)
H5E H -0.7118 -0.1262 0.3944
C6E C -0.7794(3) 0.0036(3) 0.3283(3)
C7E C -0.9695(3) 0.1766(3) 0.2157(3)
C6G C -0.9964(3) 0.2794(3) 0.1717(3)
C1G C -0.9425(3) 0.3778(3) 0.1858(3)
N1G N -0.8455(2) 0.3824(2) 0.2402(2)
C7G C -0.8234(3) 0.4695(3) 0.2843(3)
C6F C -0.7206(3) 0.4964(3) 0.3283(3)
C1F C -0.6222(3) 0.4425(3) 0.3142(3)
C2F C -0.5307(3) 0.4831(3) 0.3568(3)
H2F H -0.4635 0.4461 0.3489
C3F C -0.5343(4) 0.5763(3) 0.4107(3)
H3F H -0.4695 0.6042 0.4384
C4F C -0.6289(4) 0.6292(3) 0.4247(3)
H4F H -0.6309 0.6937 0.4622
C5F C -0.7216(4) 0.5892(3) 0.3838(3)
H5F H -0.7882 0.6262 0.3944
H6G H -0.8799 0.5219 0.2892
C2G C -0.9831(3) 0.4693(3) 0.1432(3)
H2G H -0.9461 0.5365 0.1511
C3G C -1.0763(3) 0.4657(4) 0.0893(3)
H3G H -1.1042 0.5305 0.0616
C4G C -1.1292(3) 0.3711(4) 0.0753(3)
H4G H -1.1937 0.3691 0.0378
C5G C -1.0892(3) 0.2784(4) 0.1162(3)
H5G H -1.1262 0.2118 0.1056
H6E H -1.0219 0.1201 0.2108
H6F H -0.4781 0.3799 0.2108
C8 C -0.3676(3) 0.3734(3) -0.1193(3)
H7 H -0.2925 0.3904 -0.1240
C9 C -0.4085(3) 0.2861(3) -0.1710(3)
O2 O -0.3465(2) 0.2232(2) -0.2228(2)
H8 H -0.2500 0.2500 -0.2390(87)
C10 C -0.5198(3) 0.2660(3) -0.1667(3)
H9 H -0.5504 0.2096 -0.2047
C11 C -0.5850(3) 0.3271(3) -0.1093(3)
H10 H -0.6605 0.3111 -0.1065
C12 C -0.5441(3) 0.4113(3) -0.0549(3)
C13 C -0.6136(3) 0.4723(3) 0.0103(3)
O3 O -0.7094(2) 0.4471(2) 0.0222(2)
C14 C -0.4327(3) 0.4353(3) -0.0624(3)
C14D C -0.5673(3) 0.5647(3) 0.0624(3)
C8D C -0.6324(3) 0.6266(3) 0.1193(3)
H7D H -0.7075 0.6096 0.1240
C9D C -0.5915(3) 0.7139(3) 0.1710(3)
O2D O -0.6535(2) 0.7768(2) 0.2228(2)
H8C H -0.7500 0.7500 0.2390(87)
O2C O -0.8465(2) 0.7232(2) 0.2228(2)
C10D C -0.4802(3) 0.7340(3) 0.1667(3)
H9D H -0.4496 0.7904 0.2047
C11D C -0.4150(3) 0.6729(3) 0.1093(3)
H10D H -0.3395 0.6889 0.1065
C12D C -0.4559(3) 0.5887(3) 0.0549(3)
C13D C -0.3864(3) 0.5277(3) -0.0103(3)
O3D O -0.2906(2) 0.5529(2) -0.0222(2)
loop_
_geom_bond_atom_site_label_1
_geom_bond_atom_site_label_2
_geom_bond_site_symmetry_1
_geom_bond_site_symmetry_2
Ni1 O1 1_555 1_555
O1 H1 1_555 1_555
N1 Ni1 1_555 1_555
C1 N1 1_555 1_555
C2 C1 1_555 1_555
H2 C2 1_555 1_555
C3 C2 1_555 1_555
H3 C3 1_555 1_555
C4 C3 1_555 1_555
H4 C4 1_555 1_555
C5 C4 1_555 1_555
H5 C5 1_555 1_555
C6 C1 1_555 1_555
C7 N1 1_555 1_555
H6 C7 1_555 1_555
C8 H7 1_555 1_555
C9 C8 1_555 1_555
O2 C9 1_555 1_555
H8 O2 1_555 1_555
C10 C9 1_555 1_555
H9 C10 1_555 1_555
C11 C10 1_555 1_555
H10 C11 1_555 1_555
C12 C11 1_555 1_555
C13 C12 1_555 1_555
O3 C13 1_555 1_555
C14 C8 1_555 1_555
H1G O1 1_555 1_555
O1E Ni1 1_555 1_555
H1E O1E 1_555 1_555
H1F O1E 1_555 1_555
C7F C6 1_555 1_555
N1F Ni1 1_555 1_555
N1E Ni1 1_555 1_555
C1E N1E 1_555 1_555
C2E C1E 1_555 1_555
H2E C2E 1_555 1_555
C3E C2E 1_555 1_555
H3E C3E 1_555 1_555
C4E C3E 1_555 1_555
H4E C4E 1_555 1_555
C5E C4E 1_555 1_555
H5E C5E 1_555 1_555
C6E C7 1_555 1_555
C7E N1E 1_555 1_555
C6G C7E 1_555 1_555
C1G C6G 1_555 1_555
N1G Ni1 1_555 1_555
C7G N1G 1_555 1_555
C6F C7G 1_555 1_555
C1F N1F 1_555 1_555
C2F C1F 1_555 1_555
H2F C2F 1_555 1_555
C3F C2F 1_555 1_555
H3F C3F 1_555 1_555
C4F C3F 1_555 1_555
H4F C4F 1_555 1_555
C5F C6F 1_555 1_555
H5F C5F 1_555 1_555
H6G C7G 1_555 1_555
C2G C1G 1_555 1_555
H2G C2G 1_555 1_555
C3G C2G 1_555 1_555
H3G C3G 1_555 1_555
C4G C3G 1_555 1_555
H4G C4G 1_555 1_555
C5G C6G 1_555 1_555
H5G C5G 1_555 1_555
H6E C7E 1_555 1_555
H6F C7F 1_555 1_555
C14D C13 1_555 1_555
C8D C14D 1_555 1_555
H7D C8D 1_555 1_555
C9D C8D 1_555 1_555
O2D C9D 1_555 1_555
H8C O2D 1_555 1_555
O2C H8C 1_555 1_555
C10D C9D 1_555 1_555
H9D C10D 1_555 1_555
C11D C10D 1_555 1_555
H10D C11D 1_555 1_555
C12D C14D 1_555 1_555
C13D C14 1_555 1_555
O3D C13D 1_555 1_555
C5 C6 1_555 1_555
C12 C14 1_555 1_555
C7F N1F 1_555 1_555
C1E C6E 1_555 1_555
C5E C6E 1_555 1_555
C1G N1G 1_555 1_555
C6F C1F 1_555 1_555
C4F C5F 1_555 1_555
C4G C5G 1_555 1_555
C11D C12D 1_555 1_555
C12D C13D 1_555 1_555

#END
