
#######################################################################
#
#                 Cambridge Crystallographic Data Centre
#                                CCDC 
#
#######################################################################
#
# If this CIF has been generated from an entry in the Cambridge 
# Structural Database, then it will include bibliographic, chemical, 
# crystal, experimental, refinement or atomic coordinate data resulting 
# from the CCDC's data processing and validation procedures.
#
#######################################################################

data_BDMPHG
_symmetry_cell_setting           monoclinic
_symmetry_space_group_name_H-M   'C c'
_symmetry_Int_Tables_number      9
_space_group_name_Hall           'C -2yc'
loop_
_symmetry_equiv_pos_site_id
_symmetry_equiv_pos_as_xyz
1 x,y,z
2 1/2+x,1/2+y,z
3 x,-y,1/2+z
4 1/2+x,1/2-y,1/2+z
_cell_length_a                   12.750(11)
_cell_length_b                   10.804(11)
_cell_length_c                   7.780(8)
_cell_angle_alpha                90
_cell_angle_beta                 94.0(5)
_cell_angle_gamma                90
_cell_volume                     1069.09
loop_
_atom_site_label
_atom_site_type_symbol
_atom_site_fract_x
_atom_site_fract_y
_atom_site_fract_z
Hg1 Hg 0.00000 0.03720 0.25000
Br1 Br 0.14550 -0.04250 0.47790
Br2 Br -0.13960 -0.10070 0.11890
N1 N 0.00400 0.24140 0.26560
C1 C -0.07380 0.31870 0.23840
C2 C -0.06510 0.44440 0.25240
C3 C 0.02410 0.50150 0.30630
C4 C 0.11440 0.41750 0.35410
C5 C 0.10020 0.29120 0.32280
C6 C 0.04050 0.63620 0.32150
C7 C -0.17870 0.25670 0.17580
Br1B Br 0.14550 0.04250 -0.02210
Hg1B Hg 0.00000 -0.03720 0.75000
Hg1B_2 Hg 0.00000 -0.03720 -0.25000
Br1B_2 Br 0.14550 0.04250 0.97790
Br2B Br -0.13960 0.10070 0.61890
N1B N 0.00400 -0.24140 0.76560
C1B C -0.07380 -0.31870 0.73840
C5B C 0.10020 -0.29120 0.82280
C2B C -0.06510 -0.44440 0.75240
C7B C -0.17870 -0.25670 0.67580
C4B C 0.11440 -0.41750 0.85410
C3B C 0.02410 -0.50150 0.80630
C6B C 0.04050 -0.63620 0.82150
loop_
_geom_bond_atom_site_label_1
_geom_bond_atom_site_label_2
_geom_bond_site_symmetry_1
_geom_bond_site_symmetry_2
Hg1 Br1 1_555 1_555
Br1 Hg1B 1_555 1_555
Br2 Hg1 1_555 1_555
N1 Hg1 1_555 1_555
C1 N1 1_555 1_555
C2 C1 1_555 1_555
C3 C2 1_555 1_555
C4 C3 1_555 1_555
C5 N1 1_555 1_555
C6 C3 1_555 1_555
C7 C1 1_555 1_555
Br1B Hg1 1_555 1_555
Hg1B Br1B_2 1_555 1_555
Hg1B_2 Br1B 1_555 1_555
Br2B Hg1B 1_555 1_555
N1B Hg1B 1_555 1_555
C1B N1B 1_555 1_555
C5B N1B 1_555 1_555
C2B C1B 1_555 1_555
C7B C1B 1_555 1_555
C4B C5B 1_555 1_555
C3B C2B 1_555 1_555
C6B C3B 1_555 1_555
C4 C5 1_555 1_555
C4B C3B 1_555 1_555

#END
