
#######################################################################
#
#                 Cambridge Crystallographic Data Centre
#                                CCDC 
#
#######################################################################
#
# If this CIF has been generated from an entry in the Cambridge 
# Structural Database, then it will include bibliographic, chemical, 
# crystal, experimental, refinement or atomic coordinate data resulting 
# from the CCDC's data processing and validation procedures.
#
#######################################################################

data_BDOXSN
_symmetry_cell_setting           monoclinic
_symmetry_space_group_name_H-M   'C 2/c'
_symmetry_Int_Tables_number      15
_space_group_name_Hall           '-C 2yn'
loop_
_symmetry_equiv_pos_site_id
_symmetry_equiv_pos_as_xyz
1 x,y,z
2 1/2+x,1/2+y,z
3 -x,y,1/2-z
4 1/2-x,1/2+y,1/2-z
5 -x,-y,-z
6 1/2-x,1/2-y,-z
7 x,-y,1/2+z
8 1/2+x,1/2-y,1/2+z
_cell_length_a                   7.840(1)
_cell_length_b                   12.180(2)
_cell_length_c                   9.363(1)
_cell_angle_alpha                90
_cell_angle_beta                 95.65(1)
_cell_angle_gamma                90
_cell_volume                     889.741
loop_
_atom_site_label
_atom_site_type_symbol
_atom_site_fract_x
_atom_site_fract_y
_atom_site_fract_z
C1 C -0.40250 0.12350 0.28630
Sn1 Sn 0.00000 0.01030 0.25000
Br1 Br 0.01820 0.16230 0.45190
O1 O -0.32530 0.02830 0.23060
C2 C -0.40720 -0.07080 0.28780
Br1B Br -0.01820 0.16230 0.04810
O1B O 0.32530 0.02830 0.26940
C1B C -0.59750 0.12350 0.21370
C2B C -0.59280 -0.07080 0.21220
O1B_2 O -0.67470 0.02830 0.26940
Sn1_2 Sn -1.00000 0.01030 0.25000
loop_
_geom_bond_atom_site_label_1
_geom_bond_atom_site_label_2
_geom_bond_site_symmetry_1
_geom_bond_site_symmetry_2
C1 O1 1_555 1_555
Sn1 Br1 1_555 1_555
O1 Sn1 1_555 1_555
C2 O1 1_555 1_555
Br1B Sn1 1_555 1_555
O1B Sn1 1_555 1_555
C1B C1 1_555 1_555
C2B C2 1_555 1_555
O1B_2 C1B 1_555 1_555
Sn1_2 O1B_2 1_555 1_555
C2B O1B_2 1_555 1_555

#END
