
#######################################################################
#
#                 Cambridge Crystallographic Data Centre
#                                CCDC 
#
#######################################################################
#
# If this CIF has been generated from an entry in the Cambridge 
# Structural Database, then it will include bibliographic, chemical, 
# crystal, experimental, refinement or atomic coordinate data resulting 
# from the CCDC's data processing and validation procedures.
#
#######################################################################

data_BEBBAM
_symmetry_cell_setting           monoclinic
_symmetry_space_group_name_H-M   'C 2/c'
_symmetry_Int_Tables_number      15
_space_group_name_Hall           '-C 2yn'
loop_
_symmetry_equiv_pos_site_id
_symmetry_equiv_pos_as_xyz
1 x,y,z
2 x,-y,1/2+z
3 1/2+x,1/2+y,z
4 1/2+x,1/2-y,1/2+z
5 -x,-y,-z
6 -x,y,1/2-z
7 1/2-x,1/2-y,-z
8 1/2-x,1/2+y,1/2-z
_cell_length_a                   27.574(7)
_cell_length_b                   9.018(4)
_cell_length_c                   16.974(3)
_cell_angle_alpha                90
_cell_angle_beta                 125.23(2)
_cell_angle_gamma                90
_cell_volume                     3447.73
loop_
_atom_site_label
_atom_site_type_symbol
_atom_site_fract_x
_atom_site_fract_y
_atom_site_fract_z
I1 I 0.348074(13) 0.25991(3) 0.18221(2)
Mg1 Mg 0.50000 0.93393(16) 0.25000
O1 O 0.50749(14) 1.0905(3) 0.1695(2)
O2 O 0.59105(11) 0.9392(3) 0.33903(19)
N1 N 0.50337(14) 0.7565(3) 0.3442(2)
C1 C 0.54224(17) 0.7632(4) 0.4405(3)
C2 C 0.54253(16) 0.6666(4) 0.5031(2)
C3 C 0.50118(15) 0.5527(4) 0.4679(2)
C4 C 0.46123(19) 0.5447(4) 0.3679(3)
C5 C 0.46372(18) 0.6460(4) 0.3104(3)
H1 H 0.482(2) 1.128(5) 0.122(3)
H2 H 0.533(2) 1.144(5) 0.194(3)
H3 H 0.604(2) 1.009(6) 0.333(3)
H4 H 0.619(2) 0.881(5) 0.384(3)
H5 H 0.5701(15) 0.841(4) 0.462(2)
H6 H 0.5711(17) 0.675(5) 0.571(3)
H7 H 0.431(2) 0.474(5) 0.337(3)
H8 H 0.4340(19) 0.647(5) 0.241(3)
C3D C 0.49882(15) 0.4473(4) 0.5321(2)
C2D C 0.45747(16) 0.3334(4) 0.4969(2)
C1D C 0.45776(17) 0.2368(4) 0.5595(3)
N1D N 0.49663(14) 0.2435(3) 0.6558(2)
C5D C 0.53628(18) 0.3540(4) 0.6896(3)
C4D C 0.53877(19) 0.4553(4) 0.6321(3)
H7D H 0.569(2) 0.526(5) 0.663(3)
H8D H 0.5660(19) 0.353(5) 0.759(3)
H5D H 0.4299(15) 0.159(4) 0.538(2)
H6D H 0.4289(17) 0.325(5) 0.429(3)
O1E O 0.49251(14) 1.0905(3) 0.3305(2)
H1E H 0.518(2) 1.128(5) 0.378(3)
H2E H 0.467(2) 1.144(5) 0.306(3)
O2E O 0.40895(11) 0.9392(3) 0.16097(19)
H3E H 0.396(2) 1.009(6) 0.167(3)
H4E H 0.381(2) 0.881(5) 0.116(3)
N1E N 0.49663(14) 0.7565(3) 0.1558(2)
Mg1A Mg 0.50000 0.06607(16) 0.75000
N2 N 0.81720(15) 0.6904(5) 0.4969(3)
C6 C 0.79385(19) 0.8247(6) 0.4673(3)
C7 C 0.74719(17) 0.8558(5) 0.3731(3)
C8 C 0.72406(16) 0.7438(4) 0.3051(3)
C9 C 0.7476(2) 0.6022(5) 0.3357(3)
C10 C 0.7934(2) 0.5833(6) 0.4325(3)
N3 N 0.58234(15) 0.8219(5) 0.0100(2)
C11 C 0.58681(18) 0.8943(5) 0.0811(3)
C12 C 0.63167(17) 0.8751(5) 0.1773(3)
C13 C 0.67539(16) 0.7715(4) 0.2026(3)
C14 C 0.6709(2) 0.6945(6) 0.1287(3)
C15 C 0.6246(2) 0.7237(6) 0.0342(4)
H9 H 0.8077(18) 0.899(5) 0.509(3)
H10 H 0.7314(15) 0.957(4) 0.358(3)
H11 H 0.7301(16) 0.519(4) 0.293(3)
H12 H 0.8071(18) 0.490(5) 0.453(3)
H13 H 0.5610(18) 0.968(5) 0.066(3)
H14 H 0.6330(17) 0.932(4) 0.223(3)
H15 H 0.699(2) 0.630(6) 0.138(4)
H16 H 0.621(2) 0.666(6) -0.020(4)
loop_
_geom_bond_atom_site_label_1
_geom_bond_atom_site_label_2
_geom_bond_site_symmetry_1
_geom_bond_site_symmetry_2
Mg1 O1 1_555 1_555
O1 H1 1_555 1_555
O2 Mg1 1_555 1_555
N1 Mg1 1_555 1_555
C1 N1 1_555 1_555
C2 C1 1_555 1_555
C3 C2 1_555 1_555
C4 C3 1_555 1_555
C5 N1 1_555 1_555
N2 C6 1_555 1_555
C6 C7 1_555 1_555
C7 C8 1_555 1_555
C8 C9 1_555 1_555
C9 C10 1_555 1_555
C10 N2 1_555 1_555
N3 C11 1_555 1_555
C11 C12 1_555 1_555
C12 C13 1_555 1_555
C13 C8 1_555 1_555
C14 C13 1_555 1_555
C15 N3 1_555 1_555
H2 O1 1_555 1_555
H3 O2 1_555 1_555
H4 O2 1_555 1_555
H5 C1 1_555 1_555
H6 C2 1_555 1_555
H7 C4 1_555 1_555
H8 C5 1_555 1_555
H9 C6 1_555 1_555
H10 C7 1_555 1_555
H11 C9 1_555 1_555
H12 C10 1_555 1_555
H13 C11 1_555 1_555
H14 C12 1_555 1_555
H15 C14 1_555 1_555
H16 C15 1_555 1_555
C3D C3 1_555 1_555
C2D C3D 1_555 1_555
C1D C2D 1_555 1_555
N1D C1D 1_555 1_555
C5D N1D 1_555 1_555
C4D C3D 1_555 1_555
H7D C4D 1_555 1_555
H8D C5D 1_555 1_555
H5D C1D 1_555 1_555
H6D C2D 1_555 1_555
O1E Mg1 1_555 1_555
H1E O1E 1_555 1_555
H2E O1E 1_555 1_555
O2E Mg1 1_555 1_555
H3E O2E 1_555 1_555
H4E O2E 1_555 1_555
N1E Mg1 1_555 1_555
Mg1A N1D 1_555 1_555
C4 C5 1_555 1_555
C14 C15 1_555 1_555
C5D C4D 1_555 1_555

#END
