
#######################################################################
#
#                 Cambridge Crystallographic Data Centre
#                                CCDC 
#
#######################################################################
#
# If this CIF has been generated from an entry in the Cambridge 
# Structural Database, then it will include bibliographic, chemical, 
# crystal, experimental, refinement or atomic coordinate data resulting 
# from the CCDC's data processing and validation procedures.
#
#######################################################################

data_BEBCUH01
_symmetry_cell_setting           monoclinic
_symmetry_space_group_name_H-M   'P 21/c'
_symmetry_Int_Tables_number      14
_space_group_name_Hall           '-P 2ybc'
loop_
_symmetry_equiv_pos_site_id
_symmetry_equiv_pos_as_xyz
1 x,y,z
2 -x,1/2+y,1/2-z
3 -x,-y,-z
4 x,1/2-y,1/2+z
_cell_length_a                   11.648(2)
_cell_length_b                   12.091(3)
_cell_length_c                   11.846(3)
_cell_angle_alpha                90
_cell_angle_beta                 103.245(4)
_cell_angle_gamma                90
_cell_volume                     1623.96
loop_
_atom_site_label
_atom_site_type_symbol
_atom_site_fract_x
_atom_site_fract_y
_atom_site_fract_z
Co1 Co 0.00015(7) 0.25035(4) 0.37968(5)
Co2 Co -0.08571(5) -0.00031(4) 0.23099(5)
Co3 Co 0.0000 0.5000 0.5000
Co4 Co 0.0000 0.0000 0.5000
O1 O 0.1265(3) -0.1946(3) 0.2607(3)
O2 O 0.0572(3) -0.0627(2) 0.3577(2)
O3 O 0.1075(3) -0.3589(2) 0.5170(3)
O4 O 0.2099(3) -0.4045(2) 0.3856(3)
O5 O 0.0574(3) 0.0616(2) 0.1692(2)
O6 O 0.1247(3) 0.1968(3) 0.2935(3)
O7 O 0.2122(3) 0.4052(2) 0.2096(3)
O8 O 0.1106(3) 0.3590(2) 0.0322(3)
O9 O 0.0877(3) 0.3943(2) 0.4084(2)
H1 H 0.1599(14) 0.388(4) 0.442(4)
O10 O -0.0865(3) 0.1061(2) 0.3696(2)
H2 H -0.1589(13) 0.116(3) 0.368(4)
C1 C 0.1337(4) -0.1343(3) 0.3454(4)
C2 C 0.2404(4) -0.1441(3) 0.4433(3)
C3 C 0.3093(4) -0.0523(4) 0.4824(4)
H3 H 0.2910 0.0156 0.4459
C4 C 0.4049(5) -0.0614(4) 0.5749(4)
H4 H 0.4527 -0.0003 0.5994
C5 C 0.4294(5) -0.1613(4) 0.6308(4)
H5 H 0.4943 -0.1676 0.6929
C6 C 0.3594(5) -0.2510(4) 0.5961(4)
H6 H 0.3750 -0.3169 0.6371
C7 C 0.2655(4) -0.2452(3) 0.5005(4)
C8 C 0.1897(4) -0.3431(4) 0.4632(4)
C9 C 0.1324(4) 0.1346(4) 0.2131(4)
C10 C 0.2391(4) 0.1440(3) 0.1646(4)
C11 C 0.3068(4) 0.0505(4) 0.1562(4)
H7 H 0.2868 -0.0173 0.1833
C12 C 0.4037(5) 0.0584(4) 0.1075(4)
H8 H 0.4497 -0.0038 0.1040
C13 C 0.4320(5) 0.1567(4) 0.0649(5)
H9 H 0.4968 0.1616 0.0315
C14 C 0.3645(5) 0.2486(4) 0.0713(5)
H10 H 0.3839 0.3151 0.0410
C15 C 0.2685(4) 0.2449(3) 0.1215(4)
C16 C 0.1920(4) 0.3443(4) 0.1226(4)
Co1B Co -0.00015(7) -0.25035(4) 0.62032(5)
Co2B Co 0.08571(5) 0.00031(4) 0.76901(5)
O1B O -0.1265(3) 0.1946(3) 0.7393(3)
O2B O -0.0572(3) 0.0627(2) 0.6423(2)
O3B O -0.1075(3) 0.3589(2) 0.4830(3)
O4B O -0.2099(3) 0.4045(2) 0.6144(3)
O5B O -0.0574(3) -0.0616(2) 0.8308(2)
O6B O -0.1247(3) -0.1968(3) 0.7065(3)
O7B O -0.2122(3) -0.4052(2) 0.7904(3)
O8B O -0.1106(3) -0.3590(2) 0.9678(3)
O9B O -0.0877(3) -0.3943(2) 0.5916(2)
H1B H -0.1599(14) -0.388(4) 0.558(4)
O10B O 0.0865(3) -0.1061(2) 0.6304(2)
H2B H 0.1589(13) -0.116(3) 0.632(4)
C1B C -0.1337(4) 0.1343(3) 0.6546(4)
C2B C -0.2404(4) 0.1441(3) 0.5567(3)
C3B C -0.3093(4) 0.0523(4) 0.5176(4)
H3B H -0.2910 -0.0156 0.5541
C4B C -0.4049(5) 0.0614(4) 0.4251(4)
H4B H -0.4527 0.0003 0.4006
C5B C -0.4294(5) 0.1613(4) 0.3692(4)
H5B H -0.4943 0.1676 0.3071
C6B C -0.3594(5) 0.2510(4) 0.4039(4)
H6B H -0.3750 0.3169 0.3629
C7B C -0.2655(4) 0.2452(3) 0.4995(4)
C8B C -0.1897(4) 0.3431(4) 0.5368(4)
C9B C -0.1324(4) -0.1346(4) 0.7869(4)
C10B C -0.2391(4) -0.1440(3) 0.8354(4)
C11B C -0.3068(4) -0.0505(4) 0.8438(4)
H7B H -0.2868 0.0173 0.8167
C12B C -0.4037(5) -0.0584(4) 0.8925(4)
H8B H -0.4497 0.0038 0.8960
C13B C -0.4320(5) -0.1567(4) 0.9351(5)
H9B H -0.4968 -0.1616 0.9685
C14B C -0.3645(5) -0.2486(4) 0.9287(5)
H10B H -0.3839 -0.3151 0.9590
C15B C -0.2685(4) -0.2449(3) 0.8785(4)
C16B C -0.1920(4) -0.3443(4) 0.8774(4)
Co1A Co -0.00015(7) -0.24965(4) 0.12032(5)
Co1A_2 Co -0.00015(7) -0.24965(4) 1.12032(5)
Co1C Co 0.00015(7) 0.24965(4) -0.12032(5)
Co1C_2 Co 0.00015(7) 0.24965(4) 0.87968(5)
Co2A Co 0.08571(5) -0.50031(4) 0.26901(5)
Co2A_2 Co 0.08571(5) 0.49969(4) 0.26901(5)
Co2C Co -0.08571(5) -0.49969(4) 0.73099(5)
Co2C_2 Co -0.08571(5) 0.50031(4) 0.73099(5)
Co3_2 Co 0.0000 -0.5000 0.5000
Co3A Co 0.0000 0.0000 0.0000
Co3A_2 Co 0.0000 0.0000 1.0000
Co4A Co 0.0000 -0.5000 1.0000
Co4A_2 Co 0.0000 0.5000 0.0000
O1A O -0.1265(3) 0.3054(3) 0.2393(3)
O1C O 0.1265(3) -0.3054(3) 0.7607(3)
O3_2 O 0.1075(3) 0.6411(2) 0.5170(3)
O4A O -0.2099(3) 0.0955(2) 0.1144(3)
O4C O 0.2099(3) -0.0955(2) 0.8856(3)
O5A O -0.0574(3) 0.5616(2) 0.3308(2)
O5C O 0.0574(3) 0.4384(2) 0.6692(2)
O7A O -0.2122(3) -0.0948(2) 0.2904(3)
O7C O 0.2122(3) 0.0948(2) 0.7096(3)
O8A O -0.1106(3) -0.1410(2) 0.4678(3)
O8C O 0.1106(3) 0.1410(2) 0.5322(3)
O9A O -0.0877(3) -0.1057(2) 0.0916(2)
O9B_2 O -0.0877(3) 0.6057(2) 0.5916(2)
O9C O 0.0877(3) 0.1057(2) 0.9084(2)
loop_
_geom_bond_atom_site_label_1
_geom_bond_atom_site_label_2
_geom_bond_site_symmetry_1
_geom_bond_site_symmetry_2
Co1 O6 1_555 1_555
Co2 O2 1_555 1_555
Co3 O9 1_555 1_555
Co4 O2 1_555 1_555
O1 C1 1_555 1_555
O2 C1 1_555 1_555
O3 C8 1_555 1_555
O4 C8 1_555 1_555
O5 Co2 1_555 1_555
O6 C9 1_555 1_555
O7 C16 1_555 1_555
O8 C16 1_555 1_555
O9 Co1 1_555 1_555
H1 O9 1_555 1_555
O10 Co1 1_555 1_555
H2 O10 1_555 1_555
C1 C2 1_555 1_555
C2 C3 1_555 1_555
C3 H3 1_555 1_555
C4 C3 1_555 1_555
H4 C4 1_555 1_555
C5 C4 1_555 1_555
H5 C5 1_555 1_555
C6 C5 1_555 1_555
H6 C6 1_555 1_555
C7 C2 1_555 1_555
C8 C7 1_555 1_555
C9 O5 1_555 1_555
C10 C9 1_555 1_555
C11 C10 1_555 1_555
H7 C11 1_555 1_555
C12 C11 1_555 1_555
H8 C12 1_555 1_555
C13 C12 1_555 1_555
H9 C13 1_555 1_555
C14 C13 1_555 1_555
H10 C14 1_555 1_555
C15 C10 1_555 1_555
C16 C15 1_555 1_555
Co1B O3 1_555 1_555
Co2B O2B 1_555 1_555
O1B C1B 1_555 1_555
O2B Co4 1_555 1_555
O3B Co1 1_555 1_555
O4B C8B 1_555 1_555
O5B Co2B 1_555 1_555
O6B Co1B 1_555 1_555
O7B C16B 1_555 1_555
O8B C16B 1_555 1_555
O9B Co1B 1_555 1_555
H1B O9B 1_555 1_555
O10B Co4 1_555 1_555
H2B O10B 1_555 1_555
C1B O2B 1_555 1_555
C2B C1B 1_555 1_555
C3B C2B 1_555 1_555
H3B C3B 1_555 1_555
C4B C3B 1_555 1_555
H4B C4B 1_555 1_555
C5B C4B 1_555 1_555
H5B C5B 1_555 1_555
C6B C5B 1_555 1_555
H6B C6B 1_555 1_555
C7B C2B 1_555 1_555
C8B O3B 1_555 1_555
C9B O5B 1_555 1_555
C10B C9B 1_555 1_555
C11B C10B 1_555 1_555
H7B C11B 1_555 1_555
C12B C11B 1_555 1_555
H8B C12B 1_555 1_555
C13B C12B 1_555 1_555
H9B C13B 1_555 1_555
C14B C13B 1_555 1_555
H10B C14B 1_555 1_555
C15B C10B 1_555 1_555
C16B C15B 1_555 1_555
Co1A O1 1_555 1_555
Co1A_2 O8B 1_555 1_555
Co1C O8 1_555 1_555
Co1C_2 O1B 1_555 1_555
Co2A O4 1_555 1_555
Co2A_2 O7 1_555 1_555
Co2C O7B 1_555 1_555
Co2C_2 O4B 1_555 1_555
Co3_2 O3 1_555 1_555
Co3A O5 1_555 1_555
Co3A_2 O5B 1_555 1_555
Co4A O8B 1_555 1_555
Co4A_2 O8 1_555 1_555
O1A Co1 1_555 1_555
O1C Co1B 1_555 1_555
O3_2 Co3 1_555 1_555
O4A Co2 1_555 1_555
O4C Co2B 1_555 1_555
O5A Co3 1_555 1_555
O5C Co3 1_555 1_555
O7A Co2 1_555 1_555
O7C Co2B 1_555 1_555
O8A Co4 1_555 1_555
O8C Co1 1_555 1_555
O9A Co2 1_555 1_555
O9B_2 Co3 1_555 1_555
O9C Co2B 1_555 1_555
Co2 O10 1_555 1_555
Co3 O3B 1_555 1_555
Co4 O10 1_555 1_555
Co4 O8C 1_555 1_555
O9 Co2A_2 1_555 1_555
C6 C7 1_555 1_555
C14 C15 1_555 1_555
Co1B O10B 1_555 1_555
Co1B O8A 1_555 1_555
Co2B O10B 1_555 1_555
O6B C9B 1_555 1_555
O9B Co2C 1_555 1_555
O9B Co3_2 1_555 1_555
C6B C7B 1_555 1_555
C7B C8B 1_555 1_555
C14B C15B 1_555 1_555
Co1A O9A 1_555 1_555
Co1C_2 O9C 1_555 1_555
Co2A_2 O5A 1_555 1_555
Co2C_2 O5C 1_555 1_555
Co2C_2 O9B_2 1_555 1_555
Co3A O9A 1_555 1_555
Co3A_2 O9C 1_555 1_555

#END
