
#######################################################################
#
#                 Cambridge Crystallographic Data Centre
#                                CCDC 
#
#######################################################################
#
# If this CIF has been generated from an entry in the Cambridge 
# Structural Database, then it will include bibliographic, chemical, 
# crystal, experimental, refinement or atomic coordinate data resulting 
# from the CCDC's data processing and validation procedures.
#
#######################################################################

data_BEBCUH
_symmetry_cell_setting           orthorhombic
_symmetry_space_group_name_H-M   'P c c n'
_symmetry_Int_Tables_number      56
_space_group_name_Hall           '-P 2ab 2ac'
loop_
_symmetry_equiv_pos_site_id
_symmetry_equiv_pos_as_xyz
1 x,y,z
2 1/2-x,1/2-y,z
3 -x,1/2+y,1/2-z
4 1/2+x,-y,1/2-z
5 -x,-y,-z
6 1/2+x,1/2+y,-z
7 x,1/2-y,1/2+z
8 1/2-x,y,1/2+z
_cell_length_a                   12.1121(5)
_cell_length_b                   22.6847(9)
_cell_length_c                   11.8730(5)
_cell_angle_alpha                90
_cell_angle_beta                 90
_cell_angle_gamma                90
_cell_volume                     3262.22
loop_
_atom_site_label
_atom_site_type_symbol
_atom_site_fract_x
_atom_site_fract_y
_atom_site_fract_z
Co1 Co 0.50050(3) 0.24867(2) 0.88816(3)
Co2 Co 0.50056(3) 0.29295(2) 1.13811(3)
Co3 Co 0.2500 0.2500 0.76830(5)
Co4 Co 0.7500 0.2500 0.50924(5)
O1 O 0.4047(2) 0.354890(10) 1.0490(2)
O2 O 0.3586(2) 0.30320(10) 0.8958(2)
O3 O 0.1953(2) 0.31280(10) 1.1556(2)
O4 O 0.0606(2) 0.27960(10) 1.0451(2)
O5 O 0.6963(2) 0.31290(10) 0.6212(2)
O6 O 0.5637(2) 0.27790(10) 0.7336(2)
O7 O 0.9045(2) 0.35650(10) 0.7254(2)
O8 O 0.8587(2) 0.30640(10) 0.8818(2)
O9 O 0.6057(2) 0.29340(10) 0.9989(2)
O10 O 0.3943(2) 0.20570(10) 0.7764(2)
C1 C 0.3439(2) 0.34430(10) 0.9670(3)
C2 C 0.2451(2) 0.38270(10) 0.9470(2)
C3 C 0.2518(3) 0.4299(2) 0.8725(3)
C4 C 0.1616(3) 0.4650(2) 0.8524(3)
C5 C 0.0617(3) 0.4529(2) 0.9041(3)
C6 C 0.0521(3) 0.40540(10) 0.9754(3)
C7 C 0.1445(2) 0.37040(10) 0.9989(2)
C8 C 0.1341(2) 0.31690(10) 1.0729(3)
C9 C 0.6354(2) 0.31670(10) 0.7048(3)
C10 C 0.6433(3) 0.37000(10) 0.7780(3)
C11 C 0.5492(3) 0.40360(10) 0.8010(3)
C12 C 0.5561(3) 0.4518(2) 0.8692(3)
C13 C 0.6558(3) 0.4665(2) 0.9192(3)
C14 C 0.7484(3) 0.4331(2) 0.8983(3)
C15 C 0.7445(3) 0.38500(10) 0.8263(3)
C16 C 0.8443(3) 0.34670(10) 0.8083(3)
H1 H 0.6179 0.3339 0.9728
H2 H 0.3816 0.1651 0.8010
H3 H 0.3181 0.4378 0.8360
H4 H 0.1676 0.4970 0.8038
H5 H 0.0010 0.4770 0.8907
H6 H -0.0157 0.3966 1.0080
H7 H 0.4816 0.3930 0.7696
H8 H 0.4939 0.4749 0.8823
H9 H 0.6601 0.4989 0.9669
H10 H 0.8147 0.4429 0.9330
O1A O 0.0953(2) 0.145110(10) 1.0490(2)
O2A O 0.1414(2) 0.19680(10) 0.8958(2)
O3A O 0.3047(2) 0.18720(10) 1.1556(2)
O4A O 0.4394(2) 0.22040(10) 1.0451(2)
C1A C 0.1561(2) 0.15570(10) 0.9670(3)
C2A C 0.2549(2) 0.11730(10) 0.9470(2)
C3A C 0.2482(3) 0.0701(2) 0.8725(3)
C4A C 0.3384(3) 0.0350(2) 0.8524(3)
C5A C 0.4383(3) 0.0471(2) 0.9041(3)
C6A C 0.4479(3) 0.09460(10) 0.9754(3)
C7A C 0.3555(2) 0.12960(10) 0.9989(2)
C8A C 0.3659(2) 0.18310(10) 1.0729(3)
H3A H 0.1819 0.0622 0.8360
H4A H 0.3324 0.0030 0.8038
H5A H 0.4990 0.0230 0.8907
H6A H 0.5157 0.1034 1.0080
O10A O 0.1057(2) 0.29430(10) 0.7764(2)
H2A H 0.1184 0.3349 0.8010
Co1A Co -0.00050(3) 0.25133(2) 0.88816(3)
Co2A Co -0.00056(3) 0.20705(2) 1.13811(3)
O5A O 0.8037(2) 0.18710(10) 0.6212(2)
O6A O 0.9363(2) 0.22210(10) 0.7336(2)
O7A O 0.5955(2) 0.14350(10) 0.7254(2)
O8A O 0.6413(2) 0.19360(10) 0.8818(2)
C9A C 0.8646(2) 0.18330(10) 0.7048(3)
C10A C 0.8567(3) 0.13000(10) 0.7780(3)
C11A C 0.9508(3) 0.09640(10) 0.8010(3)
C12A C 0.9439(3) 0.0482(2) 0.8692(3)
C13A C 0.8442(3) 0.0335(2) 0.9192(3)
C14A C 0.7516(3) 0.0669(2) 0.8983(3)
C15A C 0.7555(3) 0.11500(10) 0.8263(3)
C16A C 0.6557(3) 0.15330(10) 0.8083(3)
H7A H 1.0184 0.1070 0.7696
H8A H 1.0061 0.0251 0.8823
H9A H 0.8399 0.0011 0.9669
H10A H 0.6853 0.0571 0.9330
O9A O -0.1057(2) 0.20660(10) 0.9989(2)
H1A H -0.1179 0.1661 0.9728
O6F O 0.5637(2) 0.22210(10) 1.2336(2)
O7G O 0.5955(2) 0.35650(10) 1.2254(2)
O10F O 0.3943(2) 0.29430(10) 1.2764(2)
O3F O 0.1953(2) 0.18720(10) 0.6556(2)
O3G O 0.3047(2) 0.31280(10) 0.6556(2)
O8F O 0.8587(2) 0.19360(10) 0.3818(2)
O8G O 0.6413(2) 0.30640(10) 0.3818(2)
O9F O 0.6057(2) 0.20660(10) 0.4989(2)
O9G O 0.8943(2) 0.29340(10) 0.4989(2)
Co3F Co 0.2500 0.2500 1.26830(5)
Co2F Co 0.50056(3) 0.20705(2) 0.63811(3)
Co2G Co 0.99944(3) 0.29295(2) 0.63811(3)
Co1A_2 Co 0.99950(3) 0.25133(2) 0.88816(3)
Co4F Co 0.7500 0.2500 1.00924(5)
Co2G_2 Co -0.00056(3) 0.29295(2) 0.63811(3)
O6A_2 O -0.0637(2) 0.22210(10) 0.7336(2)
O8_2 O -0.1413(2) 0.30640(10) 0.8818(2)
O6G O -0.0637(2) 0.27790(10) 1.2336(2)
O7F O -0.0955(2) 0.14350(10) 1.2254(2)
O10G O 0.1057(2) 0.20570(10) 1.2764(2)
Co4F_2 Co -0.2500 0.2500 1.00924(5)
H2F H 0.3816 0.3349 1.3010
H1F H 0.6179 0.1661 0.4728
H1G H 0.8821 0.3339 0.4728
H2G H 0.1184 0.1651 1.3010
loop_
_geom_bond_atom_site_label_1
_geom_bond_atom_site_label_2
_geom_bond_site_symmetry_1
_geom_bond_site_symmetry_2
Co1 O2 1_555 1_555
Co2 O1 1_555 1_555
Co3 O2 1_555 1_555
Co4 O5 1_555 1_555
O1 C1 1_555 1_555
O2 C1 1_555 1_555
O3 C8 1_555 1_555
O4 C8 1_555 1_555
O5 C9 1_555 1_555
O6 Co1 1_555 1_555
O7 C16 1_555 1_555
O8 C16 1_555 1_555
O9 Co1 1_555 1_555
O10 Co1 1_555 1_555
C1 C2 1_555 1_555
C2 C3 1_555 1_555
C3 C4 1_555 1_555
C4 C5 1_555 1_555
C5 C6 1_555 1_555
C6 C7 1_555 1_555
C7 C2 1_555 1_555
C8 C7 1_555 1_555
C9 O6 1_555 1_555
C10 C9 1_555 1_555
C11 C10 1_555 1_555
C12 C11 1_555 1_555
C13 C12 1_555 1_555
C14 C13 1_555 1_555
C15 C10 1_555 1_555
C16 C15 1_555 1_555
H1 O9 1_555 1_555
H2 O10 1_555 1_555
H3 C3 1_555 1_555
H4 C4 1_555 1_555
H5 C5 1_555 1_555
H6 C6 1_555 1_555
H7 C11 1_555 1_555
H8 C12 1_555 1_555
H9 C13 1_555 1_555
H10 C14 1_555 1_555
O1A C1A 1_555 1_555
O2A Co3 1_555 1_555
O3A C8A 1_555 1_555
O4A Co1 1_555 1_555
C1A O2A 1_555 1_555
C2A C1A 1_555 1_555
C3A C2A 1_555 1_555
C4A C3A 1_555 1_555
C5A C4A 1_555 1_555
C6A C5A 1_555 1_555
C7A C2A 1_555 1_555
C8A O4A 1_555 1_555
H3A C3A 1_555 1_555
H4A C4A 1_555 1_555
H5A C5A 1_555 1_555
H6A C6A 1_555 1_555
O10A Co3 1_555 1_555
H2A O10A 1_555 1_555
Co1A O4 1_555 1_555
Co2A O4 1_555 1_555
O5A Co4 1_555 1_555
O6A C9A 1_555 1_555
O7A C16A 1_555 1_555
O8A Co1 1_555 1_555
C9A O5A 1_555 1_555
C10A C9A 1_555 1_555
C11A C10A 1_555 1_555
C12A C11A 1_555 1_555
C13A C12A 1_555 1_555
C14A C13A 1_555 1_555
C15A C10A 1_555 1_555
C16A O8A 1_555 1_555
H7A C11A 1_555 1_555
H8A C12A 1_555 1_555
H9A C13A 1_555 1_555
H10A C14A 1_555 1_555
O9A Co1A 1_555 1_555
H1A O9A 1_555 1_555
O6F Co2 1_555 1_555
O7G Co2 1_555 1_555
O10F Co2 1_555 1_555
O3F Co3 1_555 1_555
O3G Co3 1_555 1_555
O8F Co4 1_555 1_555
O8G Co4 1_555 1_555
O9F Co4 1_555 1_555
O9G Co4 1_555 1_555
Co3F O3 1_555 1_555
Co2F O6 1_555 1_555
Co2G O7 1_555 1_555
Co1A_2 O8 1_555 1_555
Co4F O8 1_555 1_555
Co2G_2 O10A 1_555 1_555
O6A_2 Co1A 1_555 1_555
O8_2 Co1A 1_555 1_555
O6G Co2A 1_555 1_555
O7F Co2A 1_555 1_555
O10G Co2A 1_555 1_555
Co4F_2 O9A 1_555 1_555
H2F O10F 1_555 1_555
H1F O9F 1_555 1_555
H1G O9G 1_555 1_555
H2G O10G 1_555 1_555
Co2 O9 1_555 1_555
Co2 O4A 1_555 1_555
Co3 O10 1_555 1_555
O9 Co4F 1_555 1_555
O10 Co2F 1_555 1_555
C14 C15 1_555 1_555
O1A Co2A 1_555 1_555
O2A Co1A 1_555 1_555
O3A Co3F 1_555 1_555
C6A C7A 1_555 1_555
C7A C8A 1_555 1_555
O10A Co1A 1_555 1_555
Co2A O9A 1_555 1_555
O6A Co2G 1_555 1_555
O6A Co1A_2 1_555 1_555
O7A Co2F 1_555 1_555
O8A Co4F 1_555 1_555
C14A C15A 1_555 1_555
C15A C16A 1_555 1_555
O10F Co3F 1_555 1_555
O9F Co2F 1_555 1_555
O9G Co2G 1_555 1_555
Co3F O10G 1_555 1_555
Co2G_2 O6A_2 1_555 1_555
O8_2 Co4F_2 1_555 1_555

#END
