
#######################################################################
#
#                 Cambridge Crystallographic Data Centre
#                                CCDC 
#
#######################################################################
#
# If this CIF has been generated from an entry in the Cambridge 
# Structural Database, then it will include bibliographic, chemical, 
# crystal, experimental, refinement or atomic coordinate data resulting 
# from the CCDC's data processing and validation procedures.
#
#######################################################################

data_BEBCAM
_symmetry_cell_setting           orthorhombic
_symmetry_space_group_name_H-M   'P 21 21 21'
_symmetry_Int_Tables_number      19
_space_group_name_Hall           'P 2ac 2ab'
loop_
_symmetry_equiv_pos_site_id
_symmetry_equiv_pos_as_xyz
1 x,y,z
2 1/2+x,1/2-y,-z
3 -x,1/2+y,1/2-z
4 1/2-x,-y,1/2+z
_cell_length_a                   10.952(2)
_cell_length_b                   25.862(3)
_cell_length_c                   7.985(1)
_cell_angle_alpha                90
_cell_angle_beta                 90
_cell_angle_gamma                90
_cell_volume                     2261.68
loop_
_atom_site_label
_atom_site_type_symbol
_atom_site_fract_x
_atom_site_fract_y
_atom_site_fract_z
S1 S 0.90490 0.64820 0.08860
C1 C 0.96550 0.61130 0.27200
C2 C 0.97560 0.55320 0.21000
N1 N 0.88130 0.54810 0.08200
C3 C 0.85440 0.59280 -0.02500
C4 C 0.71600 0.57580 -0.02200
C5 C 0.75870 0.53640 0.11100
O1 O 0.71060 0.50530 0.20400
C6 C 0.86760 0.61260 0.41600
C7 C 1.08840 0.63490 0.33000
C8 C 1.10200 0.54160 0.13500
O2 O 1.12060 0.55120 -0.01800
O3 O 1.17990 0.52440 0.23300
N2 N 0.63050 0.61420 0.03500
C9 C 0.51100 0.60890 -0.00200
O4 O 0.47150 0.57080 -0.07800
C10 C 0.42830 0.65040 0.05000
C11 C 0.32790 0.66670 -0.04400
C12 C 0.27620 0.64990 -0.21000
O5 O 0.27780 0.70690 0.03500
N3 N 0.33950 0.71720 0.18500
C13 C 0.42740 0.68270 0.19300
C14 C 0.50570 0.68140 0.34400
C15 C 0.51700 0.63900 0.44600
C16 C 0.59200 0.63890 0.59400
C17 C 0.65520 0.68300 0.63400
C18 C 0.64750 0.72720 0.53600
C19 C 0.57220 0.72450 0.39300
Cl1 Cl 0.43360 0.58420 0.39880
F1 F 0.56560 0.76730 0.29700
Na1 Na 1.31890 0.51180 -0.00610
O6 O 1.46220 0.47140 0.16900
Na1C Na 1.18110 0.48820 0.49390
Na1_2 Na 0.31890 0.51180 -0.00610
O3C O 1.32010 0.47560 -0.26700
O4_2 O 1.47150 0.57080 -0.07800
loop_
_geom_bond_atom_site_label_1
_geom_bond_atom_site_label_2
_geom_bond_site_symmetry_1
_geom_bond_site_symmetry_2
S1 C1 1_555 1_555
C1 C2 1_555 1_555
C2 N1 1_555 1_555
N1 C3 1_555 1_555
C3 S1 1_555 1_555
C4 C3 1_555 1_555
C5 N1 1_555 1_555
O1 C5 1_555 1_555
C6 C1 1_555 1_555
C7 C1 1_555 1_555
C8 C2 1_555 1_555
O2 C8 1_555 1_555
O3 C8 1_555 1_555
N2 C4 1_555 1_555
C9 N2 1_555 1_555
O4 C9 1_555 1_555
C10 C9 1_555 1_555
C11 C10 1_555 1_555
C12 C11 1_555 1_555
O5 C11 1_555 1_555
N3 O5 1_555 1_555
C13 C10 1_555 1_555
C14 C13 1_555 1_555
C15 C14 1_555 1_555
C16 C15 1_555 1_555
C17 C16 1_555 1_555
C18 C17 1_555 1_555
C19 C14 1_555 1_555
Cl1 C15 1_555 1_555
F1 C19 1_555 1_555
Na1 O2 1_555 1_555
O6 Na1 1_555 1_555
Na1C O3 1_555 1_555
Na1_2 O4 1_555 1_555
O3C Na1 1_555 1_555
O4_2 Na1 1_555 1_555
C4 C5 1_555 1_555
O3 Na1 1_555 1_555
N3 C13 1_555 1_555
C18 C19 1_555 1_555

#END
