
#######################################################################
#
#                 Cambridge Crystallographic Data Centre
#                                CCDC 
#
#######################################################################
#
# If this CIF has been generated from an entry in the Cambridge 
# Structural Database, then it will include bibliographic, chemical, 
# crystal, experimental, refinement or atomic coordinate data resulting 
# from the CCDC's data processing and validation procedures.
#
#######################################################################

data_BEBCOB
_symmetry_cell_setting           monoclinic
_symmetry_space_group_name_H-M   'C 2/c'
_symmetry_Int_Tables_number      15
_space_group_name_Hall           '-C 2yn'
loop_
_symmetry_equiv_pos_site_id
_symmetry_equiv_pos_as_xyz
1 x,y,z
2 1/2+x,1/2+y,z
3 x,-y,1/2+z
4 1/2+x,1/2-y,1/2+z
5 -x,-y,-z
6 1/2-x,1/2-y,-z
7 -x,y,1/2-z
8 1/2-x,1/2+y,1/2-z
_cell_length_a                   10.718(5)
_cell_length_b                   14.292(7)
_cell_length_c                   12.192(6)
_cell_angle_alpha                90
_cell_angle_beta                 101.119(7)
_cell_angle_gamma                90
_cell_volume                     1832.53
loop_
_atom_site_label
_atom_site_type_symbol
_atom_site_fract_x
_atom_site_fract_y
_atom_site_fract_z
Cu1 Cu 1.0000 0.45912(3) 0.2500
N1 N 1.0429(2) 0.35303(15) 0.35841(18)
O1 O 0.92329(19) 0.55613(13) 0.14804(16)
O2 O 0.72008(19) 0.51031(14) 0.09839(16)
O3 O 0.6909(2) 0.61365(15) -0.25518(17)
O4 O 0.8107(2) 0.52529(13) -0.12813(16)
C1 C 0.8090(3) 0.56568(18) 0.0991(2)
C2 C 0.7801(2) 0.65964(18) 0.0428(2)
C3 C 0.7846(3) 0.73627(19) 0.1128(2)
H1 H 0.8085 0.7272 0.1895
C4 C 0.7452(2) 0.67375(18) -0.0730(2)
C5 C 0.7507(3) 0.59581(19) -0.1529(2)
C6 C 1.0772(3) 0.3562(2) 0.4686(2)
H2 H 1.0912 0.4140 0.5039
C7 C 1.0930(3) 0.2748(2) 0.5333(3)
H3 H 1.1157 0.2791 0.6107
C8 C 1.0755(3) 0.1901(2) 0.4839(3)
H4 H 1.0876 0.1361 0.5272
C9 C 1.0391(3) 0.1834(2) 0.3678(3)
C10 C 1.0215(3) 0.26828(19) 0.3092(2)
C11 C 1.0181(3) 0.0985(2) 0.3056(3)
H5 H 1.0299 0.0417 0.3433
H6 H 0.704(4) 0.5663(18) -0.294(3)
C10F C 0.9785(3) 0.26828(19) 0.1908(2)
N1F N 0.9571(2) 0.35303(15) 0.14159(18)
C6F C 0.9228(3) 0.3562(2) 0.0314(2)
H2F H 0.9088 0.4140 -0.0039
C7F C 0.9070(3) 0.2748(2) -0.0333(3)
H3F H 0.8843 0.2791 -0.1107
C8F C 0.9245(3) 0.1901(2) 0.0161(3)
H4F H 0.9124 0.1361 -0.0272
C9F C 0.9609(3) 0.1834(2) 0.1322(3)
C11F C 0.9819(3) 0.0985(2) 0.1944(3)
H5F H 0.9701 0.0417 0.1567
C4E C 0.7548(2) 0.82625(18) 0.0730(2)
C2E C 0.7199(2) 0.84036(18) -0.0428(2)
C1E C 0.6910(3) 0.93432(18) -0.0991(2)
O1E O 0.57671(19) 0.94387(13) -0.14804(16)
O2E O 0.77992(19) 0.98969(14) -0.09839(16)
C3E C 0.7154(3) 0.76373(19) -0.1128(2)
H1E H 0.6915 0.7728 -0.1895
C5E C 0.7493(3) 0.90419(19) 0.1529(2)
O3E O 0.8091(2) 0.88635(15) 0.25518(17)
H6E H 0.796(4) 0.9337(18) 0.294(3)
O4E O 0.6893(2) 0.97471(13) 0.12813(16)
O1F O 1.07671(19) 0.55613(13) 0.35196(16)
Cu1C Cu 0.5000 1.04088(3) -0.2500
loop_
_geom_bond_atom_site_label_1
_geom_bond_atom_site_label_2
_geom_bond_site_symmetry_1
_geom_bond_site_symmetry_2
Cu1 N1 1_555 1_555
N1 C6 1_555 1_555
O1 Cu1 1_555 1_555
O2 C1 1_555 1_555
O3 C5 1_555 1_555
O4 C5 1_555 1_555
C1 O1 1_555 1_555
C2 C1 1_555 1_555
C3 C2 1_555 1_555
H1 C3 1_555 1_555
C4 C2 1_555 1_555
C5 C4 1_555 1_555
C6 H2 1_555 1_555
C7 C6 1_555 1_555
H3 C7 1_555 1_555
C8 C7 1_555 1_555
H4 C8 1_555 1_555
C9 C8 1_555 1_555
C10 N1 1_555 1_555
C11 C9 1_555 1_555
H5 C11 1_555 1_555
H6 O3 1_555 1_555
C10F C10 1_555 1_555
N1F Cu1 1_555 1_555
C6F N1F 1_555 1_555
H2F C6F 1_555 1_555
C7F C6F 1_555 1_555
H3F C7F 1_555 1_555
C8F C7F 1_555 1_555
H4F C8F 1_555 1_555
C9F C10F 1_555 1_555
C11F C11 1_555 1_555
H5F C11F 1_555 1_555
C4E C3 1_555 1_555
C2E C4E 1_555 1_555
C1E C2E 1_555 1_555
O1E C1E 1_555 1_555
O2E C1E 1_555 1_555
C3E C4 1_555 1_555
H1E C3E 1_555 1_555
C5E C4E 1_555 1_555
O3E C5E 1_555 1_555
H6E O3E 1_555 1_555
O4E C5E 1_555 1_555
O1F Cu1 1_555 1_555
Cu1C O1E 1_555 1_555
C9 C10 1_555 1_555
C10F N1F 1_555 1_555
C8F C9F 1_555 1_555
C9F C11F 1_555 1_555
C2E C3E 1_555 1_555

#END
