
#######################################################################
#
#                 Cambridge Crystallographic Data Centre
#                                CCDC 
#
#######################################################################
#
# If this CIF has been generated from an entry in the Cambridge 
# Structural Database, then it will include bibliographic, chemical, 
# crystal, experimental, refinement or atomic coordinate data resulting 
# from the CCDC's data processing and validation procedures.
#
#######################################################################

data_BEBGEV
_symmetry_cell_setting           monoclinic
_symmetry_space_group_name_H-M   'P 21/n'
_symmetry_Int_Tables_number      14
_space_group_name_Hall           '-P 2yn'
loop_
_symmetry_equiv_pos_site_id
_symmetry_equiv_pos_as_xyz
1 x,y,z
2 1/2+x,1/2-y,1/2+z
3 -x,-y,-z
4 1/2-x,1/2+y,1/2-z
_cell_length_a                   7.6488(15)
_cell_length_b                   18.732(4)
_cell_length_c                   8.6668(17)
_cell_angle_alpha                90
_cell_angle_beta                 112.11(3)
_cell_angle_gamma                90
_cell_volume                     1150.44
loop_
_atom_site_label
_atom_site_type_symbol
_atom_site_fract_x
_atom_site_fract_y
_atom_site_fract_z
C1 C 0.3327(3) 0.12509(12) 0.0672(3)
H1 H 0.4136 0.0918 0.0499
C2 C 0.0910(4) 0.17421(13) 0.0860(4)
H2 H -0.0304 0.1812 0.0835
C3 C 0.2268(4) 0.22421(13) 0.1279(4)
H3 H 0.2173 0.2710 0.1594
C4 C 0.5695(4) 0.22336(15) 0.1569(4)
H4 H 0.6497 0.1881 0.1341
H5 H 0.6226 0.2334 0.2754
C5 C 0.5737(4) 0.28992(13) 0.0652(4)
H6 H 0.4923 0.3252 0.0860
H7 H 0.5245 0.2800 -0.0533
C6 C 0.7703(3) 0.32020(13) 0.1162(4)
H8 H 0.8255 0.3225 0.2369
H9 H 0.8457 0.2872 0.0809
C7 C 0.7850(4) 0.39189(14) 0.0497(4)
H10 H 0.7271 0.3909 -0.0709
H11 H 0.7166 0.4261 0.0896
C8 C 1.0895(3) 0.43827(13) 0.2529(3)
H12 H 1.0474 0.4430 0.3401
C9 C 1.0942(4) 0.41563(12) 0.0090(3)
H13 H 1.0596 0.4020 -0.1017
C10 C 1.2638(3) 0.44015(11) 0.1104(3)
H14 H 1.3673 0.4467 0.0803
N1 N 0.1572(3) 0.11152(10) 0.0476(3)
N2 N 0.3813(3) 0.19260(10) 0.1149(3)
N3 N 1.2615(2) 0.45398(10) 0.2644(2)
N4 N 0.9821(3) 0.41468(10) 0.1007(2)
Cd1 Cd 0.0000 0.0000 0.0000
Cl1 Cl -0.19637(8) 0.04189(4) 0.17972(7)
C1B C -0.3327(3) -0.12509(12) -0.0672(3)
H1B H -0.4136 -0.0918 -0.0499
C2B C -0.0910(4) -0.17421(13) -0.0860(4)
H2B H 0.0304 -0.1812 -0.0835
C3B C -0.2268(4) -0.22421(13) -0.1279(4)
H3B H -0.2173 -0.2710 -0.1594
C4B C -0.5695(4) -0.22336(15) -0.1569(4)
H4B H -0.6497 -0.1881 -0.1341
H5B H -0.6226 -0.2334 -0.2754
C5B C -0.5737(4) -0.28992(13) -0.0652(4)
H6B H -0.4923 -0.3252 -0.0860
H7B H -0.5245 -0.2800 0.0533
C6B C -0.7703(3) -0.32020(13) -0.1162(4)
H8B H -0.8255 -0.3225 -0.2369
H9B H -0.8457 -0.2872 -0.0809
C7B C -0.7850(4) -0.39189(14) -0.0497(4)
H10B H -0.7271 -0.3909 0.0709
H11B H -0.7166 -0.4261 -0.0896
C8B C -1.0895(3) -0.43827(13) -0.2529(3)
H12B H -1.0474 -0.4430 -0.3401
C9B C -1.0942(4) -0.41563(12) -0.0090(3)
H13B H -1.0596 -0.4020 0.1017
C10B C -1.2638(3) -0.44015(11) -0.1104(3)
H14B H -1.3673 -0.4467 -0.0803
N1B N -0.1572(3) -0.11152(10) -0.0476(3)
N2B N -0.3813(3) -0.19260(10) -0.1149(3)
N3B N -1.2615(2) -0.45398(10) -0.2644(2)
N4B N -0.9821(3) -0.41468(10) -0.1007(2)
Cl1B Cl 0.19637(8) -0.04189(4) -0.17972(7)
Cd1A Cd 1.5000 0.5000 0.5000
N3A N -0.2385(2) 0.04602(10) -0.2356(2)
N3C N 0.2385(2) -0.04602(10) 0.2356(2)
Cd1A_2 Cd -1.5000 -0.5000 -0.5000
loop_
_geom_bond_atom_site_label_1
_geom_bond_atom_site_label_2
_geom_bond_site_symmetry_1
_geom_bond_site_symmetry_2
C1 H1 1_555 1_555
C2 H2 1_555 1_555
C3 C2 1_555 1_555
H3 C3 1_555 1_555
C4 H4 1_555 1_555
H5 C4 1_555 1_555
C5 C4 1_555 1_555
H6 C5 1_555 1_555
H7 C5 1_555 1_555
C6 C5 1_555 1_555
H8 C6 1_555 1_555
H9 C6 1_555 1_555
C7 C6 1_555 1_555
H10 C7 1_555 1_555
H11 C7 1_555 1_555
C8 H12 1_555 1_555
C9 H13 1_555 1_555
C10 C9 1_555 1_555
H14 C10 1_555 1_555
N1 C1 1_555 1_555
N2 C1 1_555 1_555
N3 C8 1_555 1_555
N4 C7 1_555 1_555
Cd1 N1 1_555 1_555
Cl1 Cd1 1_555 1_555
C1B H1B 1_555 1_555
C2B H2B 1_555 1_555
C3B C2B 1_555 1_555
H3B C3B 1_555 1_555
C4B H4B 1_555 1_555
H5B C4B 1_555 1_555
C5B C4B 1_555 1_555
H6B C5B 1_555 1_555
H7B C5B 1_555 1_555
C6B C5B 1_555 1_555
H8B C6B 1_555 1_555
H9B C6B 1_555 1_555
C7B C6B 1_555 1_555
H10B C7B 1_555 1_555
H11B C7B 1_555 1_555
C8B H12B 1_555 1_555
C9B H13B 1_555 1_555
C10B C9B 1_555 1_555
H14B C10B 1_555 1_555
N1B Cd1 1_555 1_555
N2B C1B 1_555 1_555
N3B C8B 1_555 1_555
N4B C7B 1_555 1_555
Cl1B Cd1 1_555 1_555
Cd1A N3 1_555 1_555
N3A Cd1 1_555 1_555
N3C Cd1 1_555 1_555
Cd1A_2 N3B 1_555 1_555
C2 N1 1_555 1_555
C3 N2 1_555 1_555
C4 N2 1_555 1_555
C8 N4 1_555 1_555
C9 N4 1_555 1_555
C10 N3 1_555 1_555
C1B N1B 1_555 1_555
C2B N1B 1_555 1_555
C3B N2B 1_555 1_555
C4B N2B 1_555 1_555
C8B N4B 1_555 1_555
C9B N4B 1_555 1_555
C10B N3B 1_555 1_555

#END
