
#######################################################################
#
#                 Cambridge Crystallographic Data Centre
#                                CCDC 
#
#######################################################################
#
# If this CIF has been generated from an entry in the Cambridge 
# Structural Database, then it will include bibliographic, chemical, 
# crystal, experimental, refinement or atomic coordinate data resulting 
# from the CCDC's data processing and validation procedures.
#
#######################################################################

data_BEBHAS
_symmetry_cell_setting           monoclinic
_symmetry_space_group_name_H-M   'C 2/c'
_symmetry_Int_Tables_number      15
_space_group_name_Hall           '-C 2yn'
loop_
_symmetry_equiv_pos_site_id
_symmetry_equiv_pos_as_xyz
1 x,y,z
2 1/2+x,1/2+y,z
3 x,-y,1/2+z
4 1/2+x,1/2-y,1/2+z
5 -x,-y,-z
6 1/2-x,1/2-y,-z
7 -x,y,1/2-z
8 1/2-x,1/2+y,1/2-z
_cell_length_a                   26.717(4)
_cell_length_b                   7.4853(10)
_cell_length_c                   20.601(3)
_cell_angle_alpha                90
_cell_angle_beta                 117.906(9)
_cell_angle_gamma                90
_cell_volume                     3640.81
loop_
_atom_site_label
_atom_site_type_symbol
_atom_site_fract_x
_atom_site_fract_y
_atom_site_fract_z
Cu1 Cu 0.094415(9) 0.60016(3) 0.417161(11)
O1 O 0.17539(5) 0.57811(17) 0.45487(7)
O2 O 0.18161(5) 0.37388(19) 0.53669(7)
N1 N 0.10269(6) 0.7215(2) 0.50949(7)
N2 N 0.01189(6) 0.62087(19) 0.39175(8)
N3 N 0.08858(7) 0.8214(2) 0.34530(9)
N4 N 0.08104(10) 1.1150(2) 0.29091(10)
N5 N 0.07959(7) 1.39743(19) 0.34758(8)
C1 C 0.14921(8) 0.7745(3) 0.56829(10)
H1 H 0.1838 0.7636 0.5680
C2 C 0.14862(9) 0.8448(3) 0.62978(11)
H2 H 0.1824 0.8801 0.6697
C3 C 0.09966(9) 0.8626(3) 0.63246(10)
H3 H 0.0994 0.9088 0.6742
C4 C 0.04875(8) 0.8109(3) 0.57162(9)
C5 C -0.00594(8) 0.8281(3) 0.56632(10)
H4 H -0.0094 0.8741 0.6060
C6 C -0.05281(8) 0.7798(3) 0.50550(11)
H5 H -0.0880 0.7927 0.5039
C7 C -0.04962(7) 0.7088(3) 0.44303(10)
C8 C -0.09636(8) 0.6608(3) 0.37601(11)
H6 H -0.1329 0.6717 0.3700
C9 C -0.08784(9) 0.5987(3) 0.32027(12)
H7 H -0.1186 0.5692 0.2756
C10 C -0.03341(8) 0.5792(3) 0.32985(11)
H8 H -0.0284 0.5349 0.2911
C11 C 0.00369(7) 0.6880(2) 0.44739(9)
C12 C 0.05329(7) 0.7409(2) 0.51136(9)
C13 C 0.20358(8) 0.4709(3) 0.50841(10)
C14 C 0.26640(8) 0.4759(3) 0.53684(11)
H9 H 0.2841 0.3918 0.5764
H10 H 0.2802 0.5938 0.5544
H11 H 0.2751 0.4451 0.4980
C15 C 0.08496(8) 0.9620(3) 0.32277(10)
C16 C 0.08087(8) 1.2602(3) 0.32402(9)
N5_2 N 0.07959(7) 0.39743(19) 0.34758(8)
Cu1_2 Cu 0.094415(9) 1.60016(3) 0.417161(11)
O3 O 0.28697(7) 0.6126(2) 0.72872(8)
H12 H 0.2649(2) 0.607(3) 0.7538(3)
H13 H 0.2852(6) 0.7181(9) 0.7019(5)
O4 O 0.25171(6) 0.2503(2) 0.67596(8)
H14 H 0.2213(5) 0.262(3) 0.6273(4)
H15 H 0.2606(8) 0.3734(7) 0.6878(10)
O5 O 0.28985(6) 0.91490(19) 0.65445(8)
H16 H 0.2923(8) 1.0345(8) 0.6715(7)
H17 H 0.3069(2) 0.914(3) 0.6227(3)
loop_
_geom_bond_atom_site_label_1
_geom_bond_atom_site_label_2
_geom_bond_site_symmetry_1
_geom_bond_site_symmetry_2
Cu1 O1 1_555 1_555
O1 C13 1_555 1_555
O2 C13 1_555 1_555
N1 Cu1 1_555 1_555
N2 Cu1 1_555 1_555
N3 Cu1 1_555 1_555
N4 C15 1_555 1_555
N5 C16 1_555 1_555
C1 N1 1_555 1_555
H1 C1 1_555 1_555
C2 C1 1_555 1_555
H2 C2 1_555 1_555
C3 C2 1_555 1_555
H3 C3 1_555 1_555
C4 C3 1_555 1_555
C5 C4 1_555 1_555
H4 C5 1_555 1_555
C6 C5 1_555 1_555
H5 C6 1_555 1_555
C7 C6 1_555 1_555
C8 C7 1_555 1_555
H6 C8 1_555 1_555
C9 C8 1_555 1_555
H7 C9 1_555 1_555
C10 N2 1_555 1_555
H8 C10 1_555 1_555
C11 N2 1_555 1_555
C12 N1 1_555 1_555
C13 C14 1_555 1_555
C14 H9 1_555 1_555
H10 C14 1_555 1_555
H11 C14 1_555 1_555
C15 N3 1_555 1_555
C16 N4 1_555 1_555
O3 H12 1_555 1_555
H13 O3 1_555 1_555
O4 H14 1_555 1_555
H15 O4 1_555 1_555
O5 H16 1_555 1_555
H17 O5 1_555 1_555
N5_2 Cu1 1_555 1_555
Cu1_2 N5 1_555 1_555
C4 C12 1_555 1_555
C7 C11 1_555 1_555
C9 C10 1_555 1_555
C11 C12 1_555 1_555

#END
