
#######################################################################
#
#                 Cambridge Crystallographic Data Centre
#                                CCDC 
#
#######################################################################
#
# If this CIF has been generated from an entry in the Cambridge 
# Structural Database, then it will include bibliographic, chemical, 
# crystal, experimental, refinement or atomic coordinate data resulting 
# from the CCDC's data processing and validation procedures.
#
#######################################################################

data_BEBSAE
_symmetry_cell_setting           monoclinic
_symmetry_space_group_name_H-M   'P 2/n'
_symmetry_Int_Tables_number      13
_space_group_name_Hall           '-P 2yac'
loop_
_symmetry_equiv_pos_site_id
_symmetry_equiv_pos_as_xyz
1 x,y,z
2 1/2-x,y,1/2-z
3 -x,-y,-z
4 1/2+x,-y,1/2+z
_cell_length_a                   15.1295(5)
_cell_length_b                   10.5555(4)
_cell_length_c                   24.2910(9)
_cell_angle_alpha                90
_cell_angle_beta                 96.549(2)
_cell_angle_gamma                90
_cell_volume                     3853.95
loop_
_atom_site_label
_atom_site_type_symbol
_atom_site_fract_x
_atom_site_fract_y
_atom_site_fract_z
C1 C 0.4318(3) 0.5018(4) 0.33187(17)
H1 H 0.4550 0.5093 0.2982
C2 C 0.4901(3) 0.5030(4) 0.37956(17)
H2 H 0.5510 0.5108 0.3782
C3 C 0.4557(3) 0.4925(4) 0.42936(16)
C4 C 0.3645(3) 0.4781(5) 0.42990(16)
H3 H 0.3396 0.4686 0.4629
C5 C 0.3123(3) 0.4787(5) 0.37925(18)
H4 H 0.2511 0.4701 0.3791
C6 C 0.1028(3) 0.3276(5) 0.3025(2)
H5 H 0.0791 0.4051 0.3116
C7 C 0.0600(4) 0.2177(7) 0.3159(2)
H6 H 0.0080 0.2220 0.3329
C8 C 0.0950(4) 0.1033(6) 0.3040(2)
H7 H 0.0675 0.0288 0.3136
C9 C 0.1728(4) 0.0979(5) 0.27722(19)
C10 C 0.2114(3) 0.2134(4) 0.26414(15)
C11 C 0.2137(5) -0.0186(5) 0.2629(3)
H8 H 0.1889 -0.0953 0.2720
N1 N 0.3441(2) 0.4906(3) 0.33099(13)
N2 N 0.5183(2) 0.4948(4) 0.47830(14)
N3 N 0.1760(2) 0.3273(3) 0.27706(13)
Cl1 Cl 0.34911(8) 0.65044(11) 0.20607(5)
Mn1 Mn 0.2500 0.50679(8) 0.2500
C1B C 0.5682(3) 0.4982(4) 0.66813(17)
H1B H 0.5450 0.4907 0.7018
C2B C 0.5099(3) 0.4970(4) 0.62044(17)
H2B H 0.4490 0.4892 0.6218
C3B C 0.5443(3) 0.5075(4) 0.57064(16)
C4B C 0.6355(3) 0.5219(5) 0.57010(16)
H3B H 0.6604 0.5314 0.5371
C5B C 0.6877(3) 0.5213(5) 0.62075(18)
H4B H 0.7489 0.5299 0.6209
C6A C 0.3972(3) 0.3276(5) 0.1975(2)
H5A H 0.4209 0.4051 0.1884
C7A C 0.4400(4) 0.2177(7) 0.1841(2)
H6A H 0.4920 0.2220 0.1671
C8A C 0.4050(4) 0.1033(6) 0.1960(2)
H7A H 0.4325 0.0288 0.1864
C9A C 0.3272(4) 0.0979(5) 0.22278(19)
C10A C 0.2886(3) 0.2134(4) 0.23586(15)
C11A C 0.2863(5) -0.0186(5) 0.2371(3)
H8A H 0.3111 -0.0953 0.2280
N1B N 0.6559(2) 0.5094(3) 0.66901(13)
N1A N 0.1559(2) 0.4906(3) 0.16901(13)
N2B N 0.4817(2) 0.5052(4) 0.52170(14)
N3A N 0.3240(2) 0.3273(3) 0.22294(13)
Cl1A Cl 0.15089(8) 0.65044(11) 0.29393(5)
Mn1B Mn 0.7500 0.49321(8) 0.7500
C12 C 0.2922(4) 0.8026(5) 0.4137(2)
H9 H 0.2323 0.7946 0.4005
C13 C 0.3532(4) 0.8073(5) 0.3751(2)
H10 H 0.3342 0.8013 0.3374
C14 C 0.4403(4) 0.8207(5) 0.3931(2)
H11 H 0.4820 0.8261 0.3678
C15 C 0.4677(3) 0.8263(4) 0.4502(2)
C16 C 0.5593(4) 0.8396(5) 0.4730(3)
H12 H 0.6031 0.8442 0.4491
C17 C 0.5824(3) 0.8454(5) 0.5271(3)
H13 H 0.6421 0.8549 0.5406
C18 C 0.5174(3) 0.8374(4) 0.5655(2)
C19 C 0.5379(4) 0.8442(6) 0.6236(3)
H14 H 0.5966 0.8553 0.6388
C20 C 0.4732(5) 0.8347(6) 0.6570(3)
H15 H 0.4864 0.8383 0.6953
C21 C 0.3866(4) 0.8194(6) 0.6328(2)
H16 H 0.3425 0.8124 0.6564
C22 C 0.4274(3) 0.8228(4) 0.5455(2)
C23 C 0.4022(3) 0.8193(4) 0.48615(19)
C24 C 0.2394(4) 0.5196(5) 0.5501(3)
H17 H 0.2849 0.5395 0.5778
C25 C 0.2200(5) 0.3930(6) 0.5389(3)
H18 H 0.2528 0.3300 0.5587
C26 C 0.1541(5) 0.3611(5) 0.4994(3)
H19 H 0.1412 0.2763 0.4919
C27 C 0.1050(4) 0.4566(5) 0.4696(2)
C28 C 0.0307(5) 0.4334(7) 0.4277(3)
H20 H 0.0142 0.3504 0.4188
C29 C -0.0137(5) 0.5264(8) 0.4021(3)
H21 H -0.0604 0.5079 0.3750
C30 C 0.0077(4) 0.6562(7) 0.4148(2)
C31 C -0.0410(4) 0.7608(9) 0.3897(3)
H22 H -0.0885 0.7472 0.3625
C32 C -0.0174(4) 0.8803(9) 0.4057(3)
H23 H -0.0488 0.9489 0.3894
C33 C 0.0542(4) 0.9012(6) 0.4468(3)
H24 H 0.0691 0.9838 0.4574
C34 C 0.0788(3) 0.6843(5) 0.4556(2)
C35 C 0.1282(3) 0.5839(4) 0.4827(2)
N4 N 0.3139(3) 0.8087(3) 0.46758(16)
N5 N 0.3614(3) 0.8139(4) 0.57871(17)
N6 N 0.1955(3) 0.6129(4) 0.52298(18)
N7 N 0.1012(3) 0.8054(4) 0.47086(19)
Cl2 Cl 0.21885(10) 1.05387(12) 0.53202(8)
Cl3 Cl 0.14910(11) 0.80389(17) 0.62352(8)
Mn2 Mn 0.21941(5) 0.82482(7) 0.53653(3)
O1 O 0.2597(7) 1.1225(11) 0.6562(4)
H25 H 0.29661 1.18352 0.65977
H26 H 0.21189 1.14428 0.66888
O2 O 0.0258(6) 1.2190(14) 0.7632(4)
H27 H 0.02703 1.14223 0.77386
H28 H -0.02427 1.25149 0.76771
O3 O 0.1302(9) 1.0133(11) 0.7360(5)
O4 O 0.6667(8) 0.6402(14) 0.3281(5)
O5 O -0.2101(15) 0.4360(15) 0.3045(6)
loop_
_geom_bond_atom_site_label_1
_geom_bond_atom_site_label_2
_geom_bond_site_symmetry_1
_geom_bond_site_symmetry_2
C1 H1 1_555 1_555
C2 C1 1_555 1_555
H2 C2 1_555 1_555
C3 C2 1_555 1_555
C4 C3 1_555 1_555
H3 C4 1_555 1_555
C5 C4 1_555 1_555
H4 C5 1_555 1_555
C6 H5 1_555 1_555
C7 C6 1_555 1_555
H6 C7 1_555 1_555
C8 C7 1_555 1_555
H7 C8 1_555 1_555
C9 C8 1_555 1_555
C10 C9 1_555 1_555
C11 C9 1_555 1_555
H8 C11 1_555 1_555
C12 H9 1_555 1_555
C13 C12 1_555 1_555
H10 C13 1_555 1_555
C14 C13 1_555 1_555
H11 C14 1_555 1_555
C15 C14 1_555 1_555
C16 C15 1_555 1_555
H12 C16 1_555 1_555
C17 C16 1_555 1_555
H13 C17 1_555 1_555
C18 C17 1_555 1_555
C19 C18 1_555 1_555
H14 C19 1_555 1_555
C20 C19 1_555 1_555
H15 C20 1_555 1_555
C21 C20 1_555 1_555
H16 C21 1_555 1_555
C22 C18 1_555 1_555
C23 C15 1_555 1_555
C24 H17 1_555 1_555
C25 C24 1_555 1_555
H18 C25 1_555 1_555
C26 C25 1_555 1_555
H19 C26 1_555 1_555
C27 C26 1_555 1_555
C28 C27 1_555 1_555
H20 C28 1_555 1_555
C29 C28 1_555 1_555
H21 C29 1_555 1_555
C30 C29 1_555 1_555
C31 C30 1_555 1_555
H22 C31 1_555 1_555
C32 C31 1_555 1_555
H23 C32 1_555 1_555
C33 C32 1_555 1_555
H24 C33 1_555 1_555
C34 C30 1_555 1_555
C35 C27 1_555 1_555
N1 C1 1_555 1_555
N2 C3 1_555 1_555
N3 C6 1_555 1_555
N4 C12 1_555 1_555
N5 C21 1_555 1_555
N6 C24 1_555 1_555
N7 C33 1_555 1_555
Cl1 Mn1 1_555 1_555
Cl2 Mn2 1_555 1_555
Cl3 Mn2 1_555 1_555
Mn1 N1 1_555 1_555
Mn2 N4 1_555 1_555
O1 H25 1_555 1_555
H26 O1 1_555 1_555
O2 H27 1_555 1_555
H28 O2 1_555 1_555
C1B H1B 1_555 1_555
C2B C1B 1_555 1_555
H2B C2B 1_555 1_555
C3B C2B 1_555 1_555
C4B C3B 1_555 1_555
H3B C4B 1_555 1_555
C5B C4B 1_555 1_555
H4B C5B 1_555 1_555
C6A H5A 1_555 1_555
C7A C6A 1_555 1_555
H6A C7A 1_555 1_555
C8A C7A 1_555 1_555
H7A C8A 1_555 1_555
C9A C8A 1_555 1_555
C10A C10 1_555 1_555
C11A C11 1_555 1_555
H8A C11A 1_555 1_555
N1B C1B 1_555 1_555
N1A Mn1 1_555 1_555
N2B N2 1_555 1_555
N3A Mn1 1_555 1_555
Cl1A Mn1 1_555 1_555
Mn1B N1B 1_555 1_555
C5 N1 1_555 1_555
C10 N3 1_555 1_555
C22 C23 1_555 1_555
C22 N5 1_555 1_555
C23 N4 1_555 1_555
C34 C35 1_555 1_555
C34 N7 1_555 1_555
C35 N6 1_555 1_555
N3 Mn1 1_555 1_555
N5 Mn2 1_555 1_555
N6 Mn2 1_555 1_555
N7 Mn2 1_555 1_555
C3B N2B 1_555 1_555
C5B N1B 1_555 1_555
C6A N3A 1_555 1_555
C9A C10A 1_555 1_555
C9A C11A 1_555 1_555
C10A N3A 1_555 1_555

#END
