
#######################################################################
#
#                 Cambridge Crystallographic Data Centre
#                                CCDC 
#
#######################################################################
#
# If this CIF has been generated from an entry in the Cambridge 
# Structural Database, then it will include bibliographic, chemical, 
# crystal, experimental, refinement or atomic coordinate data resulting 
# from the CCDC's data processing and validation procedures.
#
#######################################################################

data_BEBTAF
_symmetry_cell_setting           monoclinic
_symmetry_space_group_name_H-M   'P 21/c'
_symmetry_Int_Tables_number      14
_space_group_name_Hall           '-P 2ybc'
loop_
_symmetry_equiv_pos_site_id
_symmetry_equiv_pos_as_xyz
1 x,y,z
2 -x,1/2+y,1/2-z
3 -x,-y,-z
4 x,1/2-y,1/2+z
_cell_length_a                   15.4828(11)
_cell_length_b                   7.3992(4)
_cell_length_c                   15.2252(11)
_cell_angle_alpha                90
_cell_angle_beta                 116.157(6)
_cell_angle_gamma                90
_cell_volume                     1565.58
loop_
_atom_site_label
_atom_site_type_symbol
_atom_site_fract_x
_atom_site_fract_y
_atom_site_fract_z
Br1 Br 0.73408(3) 0.02047(6) 0.02189(3)
Cu1 Cu 0.83071(3) 0.03990(7) 0.19105(3)
N1 N 0.9000(2) 0.1303(4) 0.3248(2)
O1 O 0.9440(2) 0.1567(4) 0.18338(19)
N2 N 0.7410(2) -0.0307(5) 0.2489(2)
N3 N 0.7131(2) -0.0472(5) 0.3812(2)
O2 O 1.0883(2) 0.2737(4) 0.2752(2)
C1 C 0.8628(3) 0.1099(5) 0.3883(3)
C2 C 0.7710(3) 0.0102(5) 0.3397(3)
C3 C 1.0362(3) 0.2834(5) 0.4414(3)
H1 H 1.0952 0.3396 0.4590
C4 C 0.9837(3) 0.2133(5) 0.3481(3)
O3 O 0.5713(2) -0.2062(5) 0.3208(3)
C5 C 0.7308(4) -0.4274(7) 0.2537(4)
H2 H 0.7893 -0.3600 0.2867
H3 H 0.7430 -0.5333 0.2244
H4 H 0.7073 -0.4627 0.2998
C6 C 1.0091(3) 0.2167(6) 0.2626(3)
C7 C 0.9103(3) 0.1800(5) 0.4815(3)
H5 H 0.8842 0.1696 0.5259
C8 C 0.6350(3) -0.1387(6) 0.3088(3)
C9 C 0.9977(3) 0.2658(6) 0.5079(3)
H6 H 1.0308 0.3128 0.5707
C10 C 0.6574(4) -0.3121(7) 0.1765(4)
H7 H 0.6800 -0.2932 0.1264
C11 C 0.6491(3) -0.1266(7) 0.2151(3)
C12 C 0.5597(5) -0.4082(11) 0.1265(5)
H8 H 0.5657 -0.5150 0.0938
H9 H 0.5139 -0.3276 0.0796
H10 H 0.5382 -0.4409 0.1746
C13 C 0.7229(3) -0.0226(6) 0.4798(3)
H11 H 0.7840 -0.0695 0.5257
H12 H 0.6722 -0.0863 0.4867
H13 H 0.7192 0.1037 0.4923
C14 C 0.5682(3) -0.0039(8) 0.1410(4)
H14 H 0.5721 0.1135 0.1694
H15 H 0.5065 -0.0564 0.1258
H16 H 0.5761 0.0072 0.0821
Cu1A Cu 1.16929(3) 0.53990(7) 0.30895(3)
O2A O 0.9117(2) -0.2263(4) 0.2248(2)
loop_
_geom_bond_atom_site_label_1
_geom_bond_atom_site_label_2
_geom_bond_site_symmetry_1
_geom_bond_site_symmetry_2
Br1 Cu1 1_555 1_555
Cu1 N1 1_555 1_555
N1 C1 1_555 1_555
O1 Cu1 1_555 1_555
N2 Cu1 1_555 1_555
N3 C2 1_555 1_555
O2 C6 1_555 1_555
C1 C2 1_555 1_555
C2 N2 1_555 1_555
C3 H1 1_555 1_555
C4 N1 1_555 1_555
O3 C8 1_555 1_555
C5 H2 1_555 1_555
H3 C5 1_555 1_555
H4 C5 1_555 1_555
C6 O1 1_555 1_555
C7 C1 1_555 1_555
H5 C7 1_555 1_555
C8 N3 1_555 1_555
C9 C3 1_555 1_555
H6 C9 1_555 1_555
C10 C5 1_555 1_555
H7 C10 1_555 1_555
C11 N2 1_555 1_555
C12 C10 1_555 1_555
H8 C12 1_555 1_555
H9 C12 1_555 1_555
H10 C12 1_555 1_555
C13 N3 1_555 1_555
H11 C13 1_555 1_555
H12 C13 1_555 1_555
H13 C13 1_555 1_555
C14 C11 1_555 1_555
H14 C14 1_555 1_555
H15 C14 1_555 1_555
H16 C14 1_555 1_555
Cu1A O2 1_555 1_555
O2A Cu1 1_555 1_555
C3 C4 1_555 1_555
C4 C6 1_555 1_555
C7 C9 1_555 1_555
C8 C11 1_555 1_555
C10 C11 1_555 1_555

#END
