
#######################################################################
#
#                 Cambridge Crystallographic Data Centre
#                                CCDC 
#
#######################################################################
#
# If this CIF has been generated from an entry in the Cambridge 
# Structural Database, then it will include bibliographic, chemical, 
# crystal, experimental, refinement or atomic coordinate data resulting 
# from the CCDC's data processing and validation procedures.
#
#######################################################################

data_BECDOD
_symmetry_cell_setting           monoclinic
_symmetry_space_group_name_H-M   'P 21/n'
_symmetry_Int_Tables_number      14
_space_group_name_Hall           '-P 2yn'
loop_
_symmetry_equiv_pos_site_id
_symmetry_equiv_pos_as_xyz
1 x,y,z
2 1/2-x,1/2+y,1/2-z
3 -x,-y,-z
4 1/2+x,1/2-y,1/2+z
_cell_length_a                   10.829(2)
_cell_length_b                   15.431(3)
_cell_length_c                   14.428(3)
_cell_angle_alpha                90
_cell_angle_beta                 101.65(3)
_cell_angle_gamma                90
_cell_volume                     2361.28
loop_
_atom_site_label
_atom_site_type_symbol
_atom_site_fract_x
_atom_site_fract_y
_atom_site_fract_z
O5 O 0.8502(14) 0.1527(11) 0.6139(13)
N3 N 0.9641(9) 0.1861(7) 0.5069(7)
C19 C 0.9240(20) 0.1272(13) 0.5606(18)
C20 C 0.9355(17) 0.2678(10) 0.5014(12)
C21 C 1.0320(30) 0.1520(20) 0.4500(19)
N4 N 0.5940(20) 0.9683(16) 0.4682(9)
C22 C 0.5834(15) 1.0623(15) 0.4996(13)
C23 C 0.5200(30) 0.9197(18) 0.4703(14)
C23B C 0.4800(30) 1.0803(18) 0.5297(14)
N4B N 0.4060(20) 1.0317(16) 0.5318(9)
C22B C 0.4166(15) 0.9377(15) 0.5004(13)
Co1 Co 0.8925(1) 0.0924(1) 0.0553(1)
O1 O 0.9040(3) -0.0370(2) 0.0659(2)
O2 O 0.7256(3) -0.3993(2) 0.3377(2)
O3 O 1.0210(3) -0.1486(2) 0.0420(2)
O4 O 0.6676(3) -0.2816(2) 0.4009(2)
N1 N 1.0632(4) 0.1056(3) 0.1622(3)
N2 N 0.7265(4) 0.0736(3) -0.0549(3)
C1 C 0.9409(4) -0.1125(2) 0.0815(3)
C2 C 0.8867(4) -0.1656(3) 0.1505(3)
C3 C 0.9032(5) -0.2538(3) 0.1550(4)
C4 C 0.8498(5) -0.3035(3) 0.2169(4)
C5 C 0.7822(4) -0.2646(3) 0.2769(3)
C6 C 0.7673(5) -0.1760(3) 0.2735(3)
C7 C 0.8188(5) -0.1261(3) 0.2107(3)
C8 C 0.7223(4) -0.3191(3) 0.3427(3)
C9 C 1.1401(6) 0.1721(4) 0.1592(4)
C10 C 1.2484(6) 0.1801(6) 0.2236(5)
C11 C 1.2847(7) 0.1184(7) 0.2944(6)
C12 C 1.2071(8) 0.0493(7) 0.2947(6)
C13 C 1.0967(6) 0.0447(5) 0.2297(4)
C14 C 0.6467(6) 0.0096(4) -0.0530(5)
C15 C 0.5416(7) -0.0056(5) -0.1186(6)
C16 C 0.5187(7) 0.0454(5) -0.1965(6)
C17 C 0.5965(8) 0.1142(6) -0.2002(6)
C18 C 0.6979(6) 0.1260(4) -0.1283(5)
O1A O 0.5960(3) 0.4630(2) 0.4341(2)
O2A O 0.7744(3) 0.1007(2) 0.1623(2)
O3A O 0.4790(3) 0.3514(2) 0.4580(2)
O4A O 0.8324(3) 0.2184(2) 0.0991(2)
C1A C 0.5591(4) 0.3875(2) 0.4185(3)
C2A C 0.6133(4) 0.3344(3) 0.3495(3)
C3A C 0.5968(5) 0.2462(3) 0.3450(4)
C4A C 0.6502(5) 0.1965(3) 0.2831(4)
C5A C 0.7178(4) 0.2354(3) 0.2231(3)
C6A C 0.7327(5) 0.3240(3) 0.2265(3)
C7A C 0.6812(5) 0.3739(3) 0.2893(3)
C8A C 0.7777(4) 0.1809(3) 0.1573(3)
Co1A Co 0.6075(1) 0.5924(1) 0.4447(1)
N1A N 0.4368(4) 0.6056(3) 0.3378(3)
C9A C 0.3599(6) 0.6721(4) 0.3408(4)
C10A C 0.2516(6) 0.6801(6) 0.2764(5)
C11A C 0.2153(7) 0.6184(7) 0.2056(6)
C12A C 0.2929(8) 0.5493(7) 0.2053(6)
C13A C 0.4033(6) 0.5447(5) 0.2703(4)
N2A N 0.7735(4) 0.5736(3) 0.5549(3)
C14A C 0.8533(6) 0.5096(4) 0.5530(5)
C15A C 0.9584(7) 0.4944(5) 0.6186(6)
C16A C 0.9813(7) 0.5454(5) 0.6965(6)
C17A C 0.9035(8) 0.6142(6) 0.7002(6)
C18A C 0.8021(6) 0.6260(4) 0.6283(5)
O3B O 0.9790(3) 0.1486(2) -0.0420(2)
Co1A_2 Co 0.6075(1) -0.4076(1) 0.4447(1)
Co1B Co 1.1075(1) -0.0924(1) -0.0553(1)
Co1C Co 0.3925(1) 0.4076(1) 0.5553(1)
O2_2 O 0.7256(3) 0.6007(2) 0.3377(2)
O3C O 0.5210(3) 0.6486(2) 0.5420(2)
O4_2 O 0.6676(3) 0.7184(2) 0.4009(2)
loop_
_geom_bond_atom_site_label_1
_geom_bond_atom_site_label_2
_geom_bond_site_symmetry_1
_geom_bond_site_symmetry_2
Co1 O1 1_555 1_555
O1 C1 1_555 1_555
O2 C8 1_555 1_555
O3 C1 1_555 1_555
O4 C8 1_555 1_555
O5 C19 1_555 1_555
N1 Co1 1_555 1_555
N2 Co1 1_555 1_555
N3 C19 1_555 1_555
N4 C22 1_555 1_555
C1 C2 1_555 1_555
C2 C3 1_555 1_555
C3 C4 1_555 1_555
C4 C5 1_555 1_555
C5 C6 1_555 1_555
C6 C7 1_555 1_555
C7 C2 1_555 1_555
C8 C5 1_555 1_555
C9 N1 1_555 1_555
C10 C9 1_555 1_555
C11 C10 1_555 1_555
C12 C11 1_555 1_555
C13 N1 1_555 1_555
C14 N2 1_555 1_555
C15 C14 1_555 1_555
C16 C15 1_555 1_555
C17 C16 1_555 1_555
C18 N2 1_555 1_555
C20 N3 1_555 1_555
C21 N3 1_555 1_555
C22 C23B 1_555 1_555
C23 N4 1_555 1_555
C23B N4B 1_555 1_555
N4B C22B 1_555 1_555
C22B C23 1_555 1_555
O1A C1A 1_555 1_555
O2A Co1 1_555 1_555
O3A C1A 1_555 1_555
O4A Co1 1_555 1_555
C1A C2A 1_555 1_555
C2A C3A 1_555 1_555
C3A C4A 1_555 1_555
C4A C5A 1_555 1_555
C5A C6A 1_555 1_555
C6A C7A 1_555 1_555
C7A C2A 1_555 1_555
C8A O2A 1_555 1_555
Co1A O1A 1_555 1_555
N1A Co1A 1_555 1_555
C9A N1A 1_555 1_555
C10A C9A 1_555 1_555
C11A C10A 1_555 1_555
C12A C11A 1_555 1_555
C13A N1A 1_555 1_555
N2A Co1A 1_555 1_555
C14A N2A 1_555 1_555
C15A C14A 1_555 1_555
C16A C15A 1_555 1_555
C17A C16A 1_555 1_555
C18A N2A 1_555 1_555
O3B Co1 1_555 1_555
Co1A_2 O2 1_555 1_555
Co1B O3 1_555 1_555
Co1C O3A 1_555 1_555
O2_2 Co1A 1_555 1_555
O3C Co1A 1_555 1_555
O4_2 Co1A 1_555 1_555
O4 Co1A_2 1_555 1_555
C12 C13 1_555 1_555
C17 C18 1_555 1_555
O4A C8A 1_555 1_555
C5A C8A 1_555 1_555
C12A C13A 1_555 1_555
C17A C18A 1_555 1_555

#END
