
#######################################################################
#
#                 Cambridge Crystallographic Data Centre
#                                CCDC 
#
#######################################################################
#
# If this CIF has been generated from an entry in the Cambridge 
# Structural Database, then it will include bibliographic, chemical, 
# crystal, experimental, refinement or atomic coordinate data resulting 
# from the CCDC's data processing and validation procedures.
#
#######################################################################

data_BECDIX
_symmetry_cell_setting           monoclinic
_symmetry_space_group_name_H-M   'C 2/c'
_symmetry_Int_Tables_number      15
_space_group_name_Hall           '-C 2yn'
loop_
_symmetry_equiv_pos_site_id
_symmetry_equiv_pos_as_xyz
1 x,y,z
2 -x,y,1/2-z
3 1/2+x,1/2+y,z
4 1/2-x,1/2+y,1/2-z
5 -x,-y,-z
6 x,-y,1/2+z
7 1/2-x,1/2-y,-z
8 1/2+x,1/2-y,1/2+z
_cell_length_a                   21.059(4)
_cell_length_b                   10.316(2)
_cell_length_c                   14.836(3)
_cell_angle_alpha                90
_cell_angle_beta                 99.09(3)
_cell_angle_gamma                90
_cell_volume                     3182.56
loop_
_atom_site_label
_atom_site_type_symbol
_atom_site_fract_x
_atom_site_fract_y
_atom_site_fract_z
Zn1 Zn 1.0054(1) 0.7840(1) 0.1330(1)
N1 N 1.0621(3) 0.7838(6) 0.0397(4)
N2 N 1.1276(6) 0.8357(15) -0.0544(7)
O1 O 0.9143(3) 0.6276(7) 0.0216(5)
O2 O 0.9140(3) 0.8072(5) 0.1031(5)
O3 O 1.0327(2) 0.6221(4) 0.1984(4)
O4 O 1.0300(2) -0.0501(4) 0.1954(4)
C1 C 0.8869(4) 0.7189(8) 0.0521(6)
C2 C 0.8167(4) 0.7360(7) 0.0264(5)
C3 C 0.7838(4) 0.8323(9) 0.0646(7)
C4 C 0.7820(5) 0.6502(10) -0.0388(7)
C5 C 1.0000 0.5650(9) 0.2500
C6 C 1.0000 0.4221(8) 0.2500
C7 C 1.0300(3) 0.3529(7) 0.1863(5)
C8 C 1.0295(4) 0.2190(7) 0.1875(5)
C9 C 1.0000 0.1521(9) 0.2500
C10 C 1.0000 0.0049(8) 0.2500
C11 C 1.0829(4) 0.6758(9) 0.0011(6)
C12 C 1.1236(5) 0.7084(10) -0.0534(7)
C13 C 1.0899(5) 0.8893(9) 0.0040(7)
C4F C 0.7180(5) 0.8498(10) 0.0388(7)
C2F C 0.6833(4) 0.7640(7) -0.0264(5)
C1F C 0.6131(4) 0.7811(8) -0.0521(6)
O1F O 0.5857(3) 0.8724(7) -0.0216(5)
O2F O 0.5860(3) 0.6928(5) -0.1031(5)
C3F C 0.7162(4) 0.6677(9) -0.0646(7)
O3A O 0.9673(2) 0.6221(4) 0.3016(4)
C8A C 0.9705(4) 0.2190(7) 0.3125(5)
C7A C 0.9700(3) 0.3529(7) 0.3137(5)
O4A O 0.9700(2) -0.0501(4) 0.3046(4)
Zn1F Zn 0.4946(1) 0.7160(1) -0.1330(1)
N1F N 0.4379(3) 0.7162(6) -0.0397(4)
N2F N 0.3724(6) 0.6643(15) 0.0544(7)
C11F C 0.4171(4) 0.8242(9) -0.0011(6)
C12F C 0.3764(5) 0.7916(10) 0.0534(7)
C13F C 0.4101(5) 0.6107(9) -0.0040(7)
O4_2 O 1.0300(2) 0.9499(4) 0.1954(4)
Zn1_2 Zn 1.0054(1) -0.2160(1) 0.1330(1)
Zn1A Zn 0.9946(1) 0.7840(1) 0.3670(1)
Zn1A_2 Zn 0.9946(1) -0.2160(1) 0.3670(1)
O3F O 0.4673(2) 0.8779(4) -0.1984(4)
O4F O 0.4700(2) 0.5501(4) -0.1954(4)
N3 N 0.2680(4) 0.0834(9) 0.2352(6)
O5 O 0.2989(5) -0.0739(10) 0.1490(7)
C14 C 0.3139(7) 0.0116(12) 0.2051(10)
C15 C 0.2010(5) 0.0719(15) 0.2016(8)
C16 C 0.2913(8) 0.1778(17) 0.3033(11)
loop_
_geom_bond_atom_site_label_1
_geom_bond_atom_site_label_2
_geom_bond_site_symmetry_1
_geom_bond_site_symmetry_2
Zn1 N1 1_555 1_555
N1 C11 1_555 1_555
N2 C12 1_555 1_555
N3 C14 1_555 1_555
O1 C1 1_555 1_555
O2 Zn1 1_555 1_555
O3 Zn1 1_555 1_555
O4 C10 1_555 1_555
O5 C14 1_555 1_555
C1 O2 1_555 1_555
C2 C1 1_555 1_555
C3 C2 1_555 1_555
C4 C2 1_555 1_555
C5 O3 1_555 1_555
C6 C5 1_555 1_555
C7 C6 1_555 1_555
C8 C7 1_555 1_555
C9 C8 1_555 1_555
C10 C9 1_555 1_555
C11 C12 1_555 1_555
C13 N1 1_555 1_555
C15 N3 1_555 1_555
C16 N3 1_555 1_555
C4F C3 1_555 1_555
C2F C4F 1_555 1_555
C1F C2F 1_555 1_555
O1F C1F 1_555 1_555
O2F C1F 1_555 1_555
C3F C4 1_555 1_555
O3A C5 1_555 1_555
C8A C9 1_555 1_555
C7A C6 1_555 1_555
O4A C10 1_555 1_555
Zn1F O2F 1_555 1_555
N1F Zn1F 1_555 1_555
N2F C12F 1_555 1_555
C11F N1F 1_555 1_555
C12F C11F 1_555 1_555
C13F N1F 1_555 1_555
O4_2 Zn1 1_555 1_555
Zn1_2 O4 1_555 1_555
Zn1A O3A 1_555 1_555
Zn1A_2 O4A 1_555 1_555
O3F Zn1F 1_555 1_555
O4F Zn1F 1_555 1_555
N2 C13 1_555 1_555
C2F C3F 1_555 1_555
C8A C7A 1_555 1_555
N2F C13F 1_555 1_555

#END
