
#######################################################################
#
#                 Cambridge Crystallographic Data Centre
#                                CCDC 
#
#######################################################################
#
# If this CIF has been generated from an entry in the Cambridge 
# Structural Database, then it will include bibliographic, chemical, 
# crystal, experimental, refinement or atomic coordinate data resulting 
# from the CCDC's data processing and validation procedures.
#
#######################################################################

data_BECHEY
_symmetry_cell_setting           triclinic
_symmetry_space_group_name_H-M   'P 1'
_symmetry_Int_Tables_number      1
_space_group_name_Hall           'P 1'
loop_
_symmetry_equiv_pos_site_id
_symmetry_equiv_pos_as_xyz
1 x,y,z
_cell_length_a                   8.49367(19)
_cell_length_b                   9.55023(18)
_cell_length_c                   9.92853(19)
_cell_angle_alpha                84.7024(16)
_cell_angle_beta                 68.0770(19)
_cell_angle_gamma                82.8068(17)
_cell_volume                     740.339
loop_
_atom_site_label
_atom_site_type_symbol
_atom_site_fract_x
_atom_site_fract_y
_atom_site_fract_z
Fe1 Fe 0.00000(5) 0.00000(6) 0.00000(6)
O1 O -0.3854(4) 0.0473(5) 0.5992(5)
N1 N 0.0791(4) 0.1866(4) -0.0868(3)
N2 N -0.0807(4) -0.1859(4) 0.0851(4)
Fe2 Fe -0.02806(7) 0.00266(7) 0.50845(7)
N3 N 0.2305(3) 0.2438(3) -0.1452(3)
N4 N -0.2333(4) -0.2427(4) 0.1445(3)
C1 C 0.1972(4) 0.3744(4) -0.1959(4)
C2 C -0.2014(4) -0.3714(4) 0.1938(4)
N5 N 0.0270(4) 0.4000(3) -0.1680(3)
N6 N -0.0291(4) -0.3995(4) 0.1654(3)
C3 C -0.0429(4) 0.2805(4) -0.0996(4)
C4 C 0.0421(4) -0.2802(4) 0.0968(4)
C5 C 0.3244(4) 0.4745(4) -0.2639(4)
C6 C -0.3294(5) -0.4716(4) 0.2627(4)
C7 C 0.4967(5) 0.4303(5) -0.3175(4)
H1 H 0.5353 0.3333 -0.3095
C8 C -0.5013(4) -0.4240(4) 0.3181(4)
H2 H -0.5384 -0.3264 0.3123
C9 C 0.6115(4) 0.5280(5) -0.3825(4)
H3 H 0.7306 0.5004 -0.4201
C10 C -0.6178(5) -0.5229(5) 0.3825(4)
H4 H -0.7366 -0.4940 0.4216
C11 C 0.5473(4) 0.6702(4) -0.3918(4)
H5 H 0.6227 0.7407 -0.4372
C12 C -0.5587(5) -0.6630(5) 0.3887(4)
H6 H -0.6356 -0.7328 0.4316
C13 C 0.3745(5) 0.7058(4) -0.3344(4)
H7 H 0.3328 0.8022 -0.3411
C14 C -0.3843(5) -0.7001(5) 0.3310(4)
H8 H -0.3445 -0.7971 0.3375
N7 N 0.2610(4) 0.6110(4) -0.2692(3)
N8 N -0.2697(4) -0.6094(3) 0.2677(3)
N9 N -0.0650(4) 0.5186(4) -0.2120(4)
H9 H 0.008(5) 0.590(5) -0.215(5)
H10 H -0.044(5) 0.512(5) -0.308(5)
N10 N 0.0604(4) -0.5196(4) 0.2090(4)
H11 H 0.001(6) -0.598(5) 0.217(5)
H12 H 0.045(6) -0.497(6) 0.293(6)
C15 C -0.2187(4) 0.2445(4) -0.0376(4)
C16 C 0.2157(4) -0.2461(4) 0.0372(4)
N11 N -0.2253(4) 0.1132(4) 0.0290(3)
N12 N 0.2254(3) -0.1120(4) -0.0276(3)
N13 N -0.0065(4) 0.0403(4) 0.1921(4)
C17 C -0.3795(6) 0.0697(6) 0.0976(5)
H13 H -0.3879 -0.0205 0.1473
C18 C 0.3805(5) -0.0665(6) -0.0917(5)
H14 H 0.3895 0.0262 -0.1361
N14 N 0.3630(6) -0.0389(5) 0.4062(5)
C19 C -0.5294(4) 0.1501(4) 0.1001(4)
H15 H -0.6369 0.1147 0.1502
C20 C 0.5269(5) -0.1486(4) -0.0957(4)
H16 H 0.6348 -0.1134 -0.1438
N15 N 0.0006(4) 0.3174(4) 0.5372(4)
C21 C -0.5195(4) 0.2813(4) 0.0292(4)
H17 H -0.6198 0.3374 0.0284
C22 C 0.5164(4) -0.2824(5) -0.0296(4)
H18 H 0.6165 -0.3398 -0.0305
N16 N 0.0004(4) -0.0393(4) 0.8103(4)
C23 C -0.3601(4) 0.3301(4) -0.0411(4)
H19 H -0.3490 0.4204 -0.0906
C24 C 0.3582(5) -0.3316(5) 0.0378(4)
H20 H 0.3478 -0.4235 0.0840
C25 C -0.0069(4) 0.0333(5) 0.3072(5)
N17 N -0.0077(4) -0.3166(4) 0.4637(4)
C26 C 0.2188(4) -0.0240(5) 0.4407(5)
N18 N -0.2393(4) 0.0264(4) 0.5660(4)
C27 C -0.0080(4) 0.2004(4) 0.5238(4)
C28 C -0.0123(5) -0.0316(5) 0.6988(5)
C29 C -0.0134(4) -0.1995(5) 0.4831(4)
Fe1_2 Fe 0.00000(5) 0.00000(6) 1.00000(6)
N16_2 N 0.0004(4) -0.0393(4) -0.1897(4)
loop_
_geom_bond_atom_site_label_1
_geom_bond_atom_site_label_2
_geom_bond_site_symmetry_1
_geom_bond_site_symmetry_2
Fe1 N1 1_555 1_555
O1 N18 1_555 1_555
N1 N3 1_555 1_555
N2 Fe1 1_555 1_555
Fe2 C25 1_555 1_555
N3 C1 1_555 1_555
N4 N2 1_555 1_555
C1 N5 1_555 1_555
C2 N4 1_555 1_555
N5 C3 1_555 1_555
N6 C2 1_555 1_555
C3 N1 1_555 1_555
C4 N2 1_555 1_555
C5 C1 1_555 1_555
C6 C2 1_555 1_555
C7 C5 1_555 1_555
H1 C7 1_555 1_555
C8 C6 1_555 1_555
H2 C8 1_555 1_555
C9 C7 1_555 1_555
H3 C9 1_555 1_555
C10 C8 1_555 1_555
H4 C10 1_555 1_555
C11 C9 1_555 1_555
H5 C11 1_555 1_555
C12 C10 1_555 1_555
H6 C12 1_555 1_555
C13 C11 1_555 1_555
H7 C13 1_555 1_555
C14 C12 1_555 1_555
H8 C14 1_555 1_555
N7 C5 1_555 1_555
N8 C6 1_555 1_555
N9 N5 1_555 1_555
H9 N9 1_555 1_555
H10 N9 1_555 1_555
N10 N6 1_555 1_555
H11 N10 1_555 1_555
H12 N10 1_555 1_555
C15 C3 1_555 1_555
C16 C4 1_555 1_555
N11 Fe1 1_555 1_555
N12 Fe1 1_555 1_555
N13 Fe1 1_555 1_555
C17 N11 1_555 1_555
H13 C17 1_555 1_555
C18 N12 1_555 1_555
H14 C18 1_555 1_555
N14 C26 1_555 1_555
C19 C17 1_555 1_555
H15 C19 1_555 1_555
C20 C18 1_555 1_555
H16 C20 1_555 1_555
N15 C27 1_555 1_555
C21 C19 1_555 1_555
H17 C21 1_555 1_555
C22 C20 1_555 1_555
H18 C22 1_555 1_555
N16 C28 1_555 1_555
C23 C15 1_555 1_555
H19 C23 1_555 1_555
C24 C16 1_555 1_555
H20 C24 1_555 1_555
C25 N13 1_555 1_555
N17 C29 1_555 1_555
C26 Fe2 1_555 1_555
N18 Fe2 1_555 1_555
C27 Fe2 1_555 1_555
C28 Fe2 1_555 1_555
C29 Fe2 1_555 1_555
Fe1_2 N16 1_555 1_555
N16_2 Fe1 1_555 1_555
N6 C4 1_555 1_555
C13 N7 1_555 1_555
C14 N8 1_555 1_555
C15 N11 1_555 1_555
C16 N12 1_555 1_555
C21 C23 1_555 1_555
C22 C24 1_555 1_555

#END
