
#######################################################################
#
#                 Cambridge Crystallographic Data Centre
#                                CCDC 
#
#######################################################################
#
# If this CIF has been generated from an entry in the Cambridge 
# Structural Database, then it will include bibliographic, chemical, 
# crystal, experimental, refinement or atomic coordinate data resulting 
# from the CCDC's data processing and validation procedures.
#
#######################################################################

data_BECQAD
_symmetry_cell_setting           triclinic
_symmetry_space_group_name_H-M   'P 1'
_symmetry_Int_Tables_number      1
_space_group_name_Hall           'P 1'
loop_
_symmetry_equiv_pos_site_id
_symmetry_equiv_pos_as_xyz
1 x,y,z
_cell_length_a                   8.1827(18)
_cell_length_b                   9.658(2)
_cell_length_c                   11.431(3)
_cell_angle_alpha                93.54(2)
_cell_angle_beta                 109.77(2)
_cell_angle_gamma                113.009(17)
_cell_volume                     762.626
loop_
_atom_site_label
_atom_site_type_symbol
_atom_site_fract_x
_atom_site_fract_y
_atom_site_fract_z
Ag1 Ag 0.6126(2) 0.45359(18) 0.37167(14)
Ag2 Ag 1.1664(2) 0.46455(18) 0.47441(14)
Cl1 Cl 1.5092(10) 0.8130(8) 0.6199(6)
Cl2 Cl 0.4672(10) 0.0929(7) 0.2184(6)
S1 S 0.8858(8) 0.4147(7) 0.5266(5)
S2 S 0.3296(8) 0.5042(7) 0.3195(5)
O1 O 1.539(3) 1.305(2) 0.8998(17)
O2 O 1.237(3) 1.279(3) 0.871(2)
O3 O 0.272(3) 0.276(2) 0.5498(18)
O4 O -0.635(3) -0.427(2) -0.053(2)
O5 O -0.345(3) -0.393(2) -0.0471(16)
O6 O -0.194(3) 0.627(2) 0.286(2)
O7 O 1.432(3) 0.677(2) 0.6669(19)
O8 O 1.629(3) 0.942(2) 0.7261(17)
O9 O 1.351(3) 0.830(3) 0.532(2)
O10 O 1.633(3) 0.798(3) 0.5556(17)
O11 O 0.476(3) 0.232(2) 0.1748(16)
O12 O 0.374(4) 0.078(3) 0.314(2)
O13 O 0.341(3) -0.033(2) 0.109(2)
O14 O 0.654(3) 0.102(3) 0.274(2)
N1 N 0.521(3) 0.202(2) 0.612(2)
N2 N 0.599(4) 0.449(2) 0.648(2)
N3 N 0.061(4) 0.704(3) 0.219(2)
N4 N -0.122(4) 0.452(3) 0.192(2)
C1 C 1.346(4) 1.225(4) 0.862(2)
C2 C 1.283(4) 1.056(3) 0.830(3)
C3 C 1.074(4) 0.959(3) 0.818(2)
C4 C 1.037(5) 0.793(3) 0.811(3)
C5 C 0.984(5) 0.704(3) 0.677(3)
C6 C 0.949(6) 0.525(4) 0.685(3)
C7 C 0.780(4) 0.437(4) 0.717(3)
C8 C 0.715(4) 0.263(3) 0.675(2)
C9 C 0.825(5) 0.243(4) 0.587(3)
C10 C 0.455(4) 0.313(3) 0.602(2)
C11 C -0.473(7) -0.343(4) -0.033(3)
C12 C -0.404(4) -0.170(4) -0.011(3)
C13 C -0.192(4) -0.061(3) 0.071(3)
C14 C -0.134(4) 0.099(3) 0.071(2)
C15 C 0.035(5) 0.215(3) 0.187(2)
C16 C 0.134(4) 0.373(3) 0.169(2)
C17 C 0.004(4) 0.464(3) 0.123(3)
C18 C 0.155(4) 0.642(3) 0.160(3)
C19 C 0.362(5) 0.672(3) 0.246(2)
C20 C -0.077(4) 0.605(4) 0.239(3)
H1 H 0.44500 0.10220 0.58180
H2 H 1.57050 1.39960 0.91660
H3 H 1.37160 1.02870 0.89620
H4 H 1.29150 1.02850 0.74770
H5 H 0.59030 0.53600 0.63940
H6 H 1.05660 0.99830 0.89260
H7 H 0.98140 0.96820 0.74010
H8 H 0.09600 0.80420 0.23970
H9 H 0.92980 0.74050 0.83860
H10 H 1.15340 0.78810 0.87120
H11 H -0.20640 0.36820 0.20190
H12 H -0.67500 -0.50470 -0.11050
H13 H 1.08970 0.75370 0.64760
H14 H 0.86490 0.70450 0.61530
H15 H 1.06870 0.52470 0.74810
H16 H 0.81710 0.46490 0.81080
H17 H 0.74940 0.21790 0.75130
H18 H 0.73920 0.15030 0.51590
H19 H 0.94250 0.23210 0.63720
H20 H -0.48400 -0.14470 0.02650
H21 H -0.43390 -0.14420 -0.09640
H22 H -0.16600 -0.07200 0.16040
H23 H -0.10930 -0.09440 0.04250
H24 H -0.24650 0.12090 0.05840
H25 H -0.10060 0.11810 -0.00430
H26 H -0.01280 0.22380 0.25520
H27 H 0.13090 0.17380 0.21840
H28 H 0.19190 0.36620 0.10540
H29 H -0.07390 0.42890 0.02890
H30 H 0.15510 0.68050 0.08080
H31 H 0.42570 0.76840 0.31220
H32 H 0.44050 0.67850 0.19550
Ag1_2 Ag -0.3874(2) 0.45359(18) 0.37167(14)
Ag2_2 Ag 0.1664(2) 0.46455(18) 0.47441(14)
S2_2 S 1.3296(8) 0.5042(7) 0.3195(5)
O3_2 O 1.272(3) 0.276(2) 0.5498(18)
O6_2 O 0.806(3) 0.627(2) 0.286(2)
loop_
_geom_bond_atom_site_label_1
_geom_bond_atom_site_label_2
_geom_bond_site_symmetry_1
_geom_bond_site_symmetry_2
Ag1 S1 1_555 1_555
Ag2 S1 1_555 1_555
Cl1 O7 1_555 1_555
Cl2 O11 1_555 1_555
S1 C6 1_555 1_555
S2 Ag1 1_555 1_555
O1 C1 1_555 1_555
O2 C1 1_555 1_555
O3 C10 1_555 1_555
O4 C11 1_555 1_555
O5 C11 1_555 1_555
O6 C20 1_555 1_555
O7 Ag2 1_555 1_555
O8 Cl1 1_555 1_555
O9 Cl1 1_555 1_555
O10 Cl1 1_555 1_555
O11 Ag1 1_555 1_555
O12 Cl2 1_555 1_555
O13 Cl2 1_555 1_555
O14 Cl2 1_555 1_555
N1 C8 1_555 1_555
N2 C7 1_555 1_555
N3 C18 1_555 1_555
N4 C17 1_555 1_555
C1 C2 1_555 1_555
C2 C3 1_555 1_555
C3 C4 1_555 1_555
C4 C5 1_555 1_555
C5 C6 1_555 1_555
C6 C7 1_555 1_555
C7 C8 1_555 1_555
C8 C9 1_555 1_555
C9 S1 1_555 1_555
C10 N1 1_555 1_555
C11 C12 1_555 1_555
C12 C13 1_555 1_555
C13 C14 1_555 1_555
C14 C15 1_555 1_555
C15 C16 1_555 1_555
C16 S2 1_555 1_555
C17 C16 1_555 1_555
C18 C17 1_555 1_555
C19 S2 1_555 1_555
C20 N3 1_555 1_555
H1 N1 1_555 1_555
H2 O1 1_555 1_555
H3 C2 1_555 1_555
H4 C2 1_555 1_555
H5 N2 1_555 1_555
H6 C3 1_555 1_555
H7 C3 1_555 1_555
H8 N3 1_555 1_555
H9 C4 1_555 1_555
H10 C4 1_555 1_555
H11 N4 1_555 1_555
H12 O4 1_555 1_555
H13 C5 1_555 1_555
H14 C5 1_555 1_555
H15 C6 1_555 1_555
H16 C7 1_555 1_555
H17 C8 1_555 1_555
H18 C9 1_555 1_555
H19 C9 1_555 1_555
H20 C12 1_555 1_555
H21 C12 1_555 1_555
H22 C13 1_555 1_555
H23 C13 1_555 1_555
H24 C14 1_555 1_555
H25 C14 1_555 1_555
H26 C15 1_555 1_555
H27 C15 1_555 1_555
H28 C16 1_555 1_555
H29 C17 1_555 1_555
H30 C18 1_555 1_555
H31 C19 1_555 1_555
H32 C19 1_555 1_555
Ag1_2 O6 1_555 1_555
Ag2_2 S2 1_555 1_555
S2_2 Ag2 1_555 1_555
O3_2 Ag2 1_555 1_555
O6_2 Ag1 1_555 1_555
O3 Ag2_2 1_555 1_555
N2 C10 1_555 1_555
N4 C20 1_555 1_555
C18 C19 1_555 1_555

#END
