
#######################################################################
#
#                 Cambridge Crystallographic Data Centre
#                                CCDC 
#
#######################################################################
#
# If this CIF has been generated from an entry in the Cambridge 
# Structural Database, then it will include bibliographic, chemical, 
# crystal, experimental, refinement or atomic coordinate data resulting 
# from the CCDC's data processing and validation procedures.
#
#######################################################################

data_BECQAB
_symmetry_cell_setting           monoclinic
_symmetry_space_group_name_H-M   'P 21/n'
_symmetry_Int_Tables_number      14
_space_group_name_Hall           '-P 2yn'
loop_
_symmetry_equiv_pos_site_id
_symmetry_equiv_pos_as_xyz
1 x,y,z
2 1/2+x,1/2-y,1/2+z
3 -x,-y,-z
4 1/2-x,1/2+y,1/2-z
_cell_length_a                   12.564(3)
_cell_length_b                   11.628(4)
_cell_length_c                   15.235(7)
_cell_angle_alpha                90
_cell_angle_beta                 93.64(3)
_cell_angle_gamma                90
_cell_volume                     2221.25
loop_
_atom_site_label
_atom_site_type_symbol
_atom_site_fract_x
_atom_site_fract_y
_atom_site_fract_z
Cu1 Cu 0.00000 0.00000 0.00000
Cu2 Cu -0.13112(8) 0.10614(9) -0.33028(7)
O1 O -0.1159(4) 0.0995(5) -0.0605(4)
O2 O -0.0896(5) 0.0507(5) -0.2001(4)
O3 O -0.4283(5) -0.0017(7) -0.3675(5)
O4 O -0.2540(5) 0.0139(6) -0.3748(4)
O5 O -0.1122(7) 0.4400(6) -0.3683(6)
O6 O -0.0672(5) 0.2571(5) -0.3538(5)
O7 O -0.0215(5) 0.1290(6) 0.1277(4)
N1 N 0.1112(5) 0.1134(6) -0.0374(5)
N2 N 0.5195(5) 0.5070(6) -0.1248(5)
N3 N -0.2381(5) 0.2002(6) -0.2672(4)
C1 C 0.2062(7) 0.0758(7) -0.0609(6)
C2 C 0.2871(7) 0.1528(8) -0.0788(7)
C3 C 0.2699(7) 0.2691(7) -0.0764(6)
C4 C 0.1702(6) 0.3052(7) -0.0538(6)
C5 C 0.0930(6) 0.2256(8) -0.0358(6)
C6 C 0.3569(7) 0.3535(7) -0.0922(6)
C7 C 0.4631(7) 0.3254(8) -0.0724(7)
C8 C 0.3348(7) 0.4605(8) -0.1255(7)
C9 C 0.4165(7) 0.5346(8) -0.1422(7)
C10 C 0.5402(7) 0.4036(8) -0.0894(7)
C11 C -0.1982(7) 0.2135(8) -0.1752(6)
C12 C -0.1302(6) 0.1115(7) -0.1436(6)
C13 C -0.3410(7) 0.1388(8) -0.2770(7)
C14 C -0.3413(7) 0.0433(8) -0.3457(6)
C15 C -0.2394(7) 0.3114(8) -0.3137(7)
C16 C -0.1322(8) 0.3395(8) -0.3475(6)
H1 H 0.21872 -0.0057 -0.06762
H2 H 0.35566 0.12218 -0.09212
H3 H 0.15526 0.38649 -0.05289
H4 H 0.02331 0.25343 -0.02095
H5 H 0.48082 0.2508 -0.04548
H6 H 0.26058 0.48452 -0.13613
H7 H 0.40005 0.6082 -0.16917
H8 H 0.61473 0.3833 -0.07436
H9 H -0.2566 0.22386 -0.13852
H10 H -0.15505 0.28308 -0.16981
H11 H -0.39589 0.19157 -0.29291
H12 H -0.35499 0.10394 -0.22176
H13 H -0.2592 0.37154 -0.27351
H14 H -0.29335 0.31061 -0.36141
O1B O 0.1159(4) -0.0995(5) 0.0605(4)
O2B O 0.0896(5) -0.0507(5) 0.2001(4)
O3B O 0.4283(5) 0.0017(7) 0.3675(5)
O4B O 0.2540(5) -0.0139(6) 0.3748(4)
O5B O 0.1122(7) -0.4400(6) 0.3683(6)
O6B O 0.0672(5) -0.2571(5) 0.3538(5)
N3B N 0.2381(5) -0.2002(6) 0.2672(4)
C11B C 0.1982(7) -0.2135(8) 0.1752(6)
C12B C 0.1302(6) -0.1115(7) 0.1436(6)
C13B C 0.3410(7) -0.1388(8) 0.2770(7)
C14B C 0.3413(7) -0.0433(8) 0.3457(6)
C15B C 0.2394(7) -0.3114(8) 0.3137(7)
C16B C 0.1322(8) -0.3395(8) 0.3475(6)
H9B H 0.2566 -0.22386 0.13852
H10B H 0.15505 -0.28308 0.16981
H11B H 0.39589 -0.19157 0.29291
H12B H 0.35499 -0.10394 0.22176
H13B H 0.2592 -0.37154 0.27351
H14B H 0.29335 -0.31061 0.36141
O7B O 0.0215(5) -0.1290(6) -0.1277(4)
N1B N -0.1112(5) -0.1134(6) 0.0374(5)
N2B N -0.5195(5) -0.5070(6) 0.1248(5)
C1B C -0.2062(7) -0.0758(7) 0.0609(6)
C2B C -0.2871(7) -0.1528(8) 0.0788(7)
C3B C -0.2699(7) -0.2691(7) 0.0764(6)
C4B C -0.1702(6) -0.3052(7) 0.0538(6)
C5B C -0.0930(6) -0.2256(8) 0.0358(6)
C6B C -0.3569(7) -0.3535(7) 0.0922(6)
C7B C -0.4631(7) -0.3254(8) 0.0724(7)
C8B C -0.3348(7) -0.4605(8) 0.1255(7)
C9B C -0.4165(7) -0.5346(8) 0.1422(7)
C10B C -0.5402(7) -0.4036(8) 0.0894(7)
H1B H -0.21872 0.0057 0.06762
H2B H -0.35566 -0.12218 0.09212
H3B H -0.15526 -0.38649 0.05289
H4B H -0.02331 -0.25343 0.02095
H5B H -0.48082 -0.2508 0.04548
H6B H -0.26058 -0.48452 0.13613
H7B H -0.40005 -0.6082 0.16917
H8B H -0.61473 -0.3833 0.07436
Cu2B Cu 0.13112(8) -0.10614(9) 0.33028(7)
Cu2C Cu 0.63112(8) 0.60614(9) -0.16972(7)
Cu2A Cu -0.63112(8) -0.60614(9) 0.16972(7)
N2C N -0.0195(5) 0.0070(6) -0.3752(5)
N2A N 0.0195(5) -0.0070(6) 0.3752(5)
O8 O -0.389(1) -0.103(1) -0.5325(9)
O9 O -0.3961(8) -0.041(2) -0.7389(9)
O10 O -0.1939(9) 0.257(1) -0.829(1)
O11 O -0.426(2) 0.084(2) -0.995(2)
O12 O -0.372(2) 0.142(2) -0.853(2)
O13 O -0.287(3) 0.232(3) -0.963(3)
loop_
_geom_bond_atom_site_label_1
_geom_bond_atom_site_label_2
_geom_bond_site_symmetry_1
_geom_bond_site_symmetry_2
Cu1 O1 1_555 1_555
Cu2 O2 1_555 1_555
O1 C12 1_555 1_555
O2 C12 1_555 1_555
O3 C14 1_555 1_555
O4 Cu2 1_555 1_555
O5 C16 1_555 1_555
O6 Cu2 1_555 1_555
O7 Cu1 1_555 1_555
N1 Cu1 1_555 1_555
N2 C9 1_555 1_555
N3 Cu2 1_555 1_555
C1 N1 1_555 1_555
C2 C1 1_555 1_555
C3 C2 1_555 1_555
C4 C3 1_555 1_555
C5 N1 1_555 1_555
C6 C3 1_555 1_555
C7 C6 1_555 1_555
C8 C6 1_555 1_555
C9 C8 1_555 1_555
C10 N2 1_555 1_555
C11 N3 1_555 1_555
C12 C11 1_555 1_555
C13 N3 1_555 1_555
C14 O4 1_555 1_555
C15 N3 1_555 1_555
C16 O6 1_555 1_555
H1 C1 1_555 1_555
H2 C2 1_555 1_555
H3 C4 1_555 1_555
H4 C5 1_555 1_555
H5 C7 1_555 1_555
H6 C8 1_555 1_555
H7 C9 1_555 1_555
H8 C10 1_555 1_555
H9 C11 1_555 1_555
H10 C11 1_555 1_555
H11 C13 1_555 1_555
H12 C13 1_555 1_555
H13 C15 1_555 1_555
H14 C15 1_555 1_555
O1B Cu1 1_555 1_555
O2B C12B 1_555 1_555
O3B C14B 1_555 1_555
O4B C14B 1_555 1_555
O5B C16B 1_555 1_555
O6B C16B 1_555 1_555
N3B C11B 1_555 1_555
C11B C12B 1_555 1_555
C12B O1B 1_555 1_555
C13B N3B 1_555 1_555
C14B C13B 1_555 1_555
C15B N3B 1_555 1_555
C16B C15B 1_555 1_555
H9B C11B 1_555 1_555
H10B C11B 1_555 1_555
H11B C13B 1_555 1_555
H12B C13B 1_555 1_555
H13B C15B 1_555 1_555
H14B C15B 1_555 1_555
O7B Cu1 1_555 1_555
N1B Cu1 1_555 1_555
N2B C9B 1_555 1_555
C1B N1B 1_555 1_555
C2B C1B 1_555 1_555
C3B C2B 1_555 1_555
C4B C3B 1_555 1_555
C5B N1B 1_555 1_555
C6B C3B 1_555 1_555
C7B C6B 1_555 1_555
C8B C6B 1_555 1_555
C9B C8B 1_555 1_555
C10B N2B 1_555 1_555
H1B C1B 1_555 1_555
H2B C2B 1_555 1_555
H3B C4B 1_555 1_555
H4B C5B 1_555 1_555
H5B C7B 1_555 1_555
H6B C8B 1_555 1_555
H7B C9B 1_555 1_555
H8B C10B 1_555 1_555
Cu2B O2B 1_555 1_555
Cu2C N2 1_555 1_555
Cu2A N2B 1_555 1_555
N2C Cu2 1_555 1_555
N2A Cu2B 1_555 1_555
C4 C5 1_555 1_555
C7 C10 1_555 1_555
C13 C14 1_555 1_555
C15 C16 1_555 1_555
O4B Cu2B 1_555 1_555
O6B Cu2B 1_555 1_555
N3B Cu2B 1_555 1_555
C4B C5B 1_555 1_555
C7B C10B 1_555 1_555

#END
