
#######################################################################
#
#                 Cambridge Crystallographic Data Centre
#                                CCDC 
#
#######################################################################
#
# If this CIF has been generated from an entry in the Cambridge 
# Structural Database, then it will include bibliographic, chemical, 
# crystal, experimental, refinement or atomic coordinate data resulting 
# from the CCDC's data processing and validation procedures.
#
#######################################################################

data_BECQEF
_symmetry_cell_setting           monoclinic
_symmetry_space_group_name_H-M   'P 21/c'
_symmetry_Int_Tables_number      14
_space_group_name_Hall           '-P 2ybc'
loop_
_symmetry_equiv_pos_site_id
_symmetry_equiv_pos_as_xyz
1 x,y,z
2 x,1/2-y,1/2+z
3 -x,-y,-z
4 -x,1/2+y,1/2-z
_cell_length_a                   16.8055(3)
_cell_length_b                   23.76560(10)
_cell_length_c                   11.1653(2)
_cell_angle_alpha                90
_cell_angle_beta                 102.2270(10)
_cell_angle_gamma                90
_cell_volume                     4358.19
loop_
_atom_site_label
_atom_site_type_symbol
_atom_site_fract_x
_atom_site_fract_y
_atom_site_fract_z
Cu1 Cu 0.38195(6) 0.15959(4) 0.47727(8)
Cu2 Cu 0.00658(7) -0.12416(5) -0.19487(10)
N1 N 0.4460(4) 0.2093(3) 0.6113(5)
N2 N -0.0451(4) -0.1796(3) -0.3244(7)
N3 N 0.3102(4) 0.1101(3) 0.3590(6)
N4 N 0.0617(4) -0.0699(3) -0.0714(6)
C11 C 0.3972(6) 0.2599(4) 0.6108(8)
H9 H 0.4328(6) 0.2917(4) 0.6360(8)
H10 H 0.3625(6) 0.2556(4) 0.6694(8)
C12 C 0.3439(5) 0.2715(4) 0.4828(8)
C13 C 0.5262(6) 0.2221(5) 0.5817(8)
H11 H 0.5675(6) 0.2003(5) 0.6361(8)
H12 H 0.5382(6) 0.2615(5) 0.5992(8)
C14 C 0.5333(5) 0.2104(4) 0.4494(8)
C15 C 0.4555(6) 0.1763(4) 0.7276(7)
H13 H 0.4153(6) 0.1887(4) 0.7725(7)
H14 H 0.5091(6) 0.1832(4) 0.7782(7)
C16 C 0.4453(5) 0.1140(4) 0.7021(8)
C17 C 0.0130(6) -0.2241(5) -0.3263(13)
H15 H 0.0015(6) -0.2414(5) -0.4068(13)
H16 H 0.0058(6) -0.2527(5) -0.2674(13)
C18 C 0.1012(7) -0.2047(5) -0.2968(13)
C19 C -0.0638(8) -0.1483(5) -0.4404(10)
H17 H -0.1183(8) -0.1582(5) -0.4839(10)
H18 H -0.0262(8) -0.1601(5) -0.4906(10)
C20 C -0.0587(6) -0.0858(4) -0.4259(9)
C21 C -0.1171(6) -0.2012(5) -0.2847(9)
H19 H -0.1284(6) -0.2391(5) -0.3156(9)
H20 H -0.1637(6) -0.1779(5) -0.3191(9)
C22 C -0.1051(6) -0.2017(4) -0.1452(10)
C23 C 0.2941(6) 0.1216(4) 0.2388(8)
H21 H 0.3184(6) 0.1530(4) 0.2120(8)
C24 C 0.2437(6) 0.0892(4) 0.1535(7)
H22 H 0.2349(6) 0.0990(4) 0.0711(7)
C25 C 0.2056(5) 0.0423(3) 0.1883(7)
C26 C 0.2208(5) 0.0314(3) 0.3127(7)
H23 H 0.1958(5) 0.0008(3) 0.3415(7)
C27 C 0.2726(5) 0.0650(4) 0.3944(7)
H24 H 0.2819(5) 0.0563(4) 0.4774(7)
C28 C 0.1059(6) -0.0289(4) -0.1062(8)
H25 H 0.1052(6) -0.0253(4) -0.1894(8)
C29 C 0.1518(6) 0.0081(4) -0.0279(8)
H26 H 0.1823(6) 0.0353(4) -0.0577(8)
C30 C 0.1533(5) 0.0051(3) 0.0970(7)
C31 C 0.1067(7) -0.0375(4) 0.1335(8)
H27 H 0.1055(7) -0.0418(4) 0.2158(8)
C32 C 0.0627(7) -0.0730(5) 0.0475(9)
H28 H 0.0317(7) -0.1009(5) 0.0742(9)
O5 O 0.3274(3) 0.2297(2) 0.4115(5)
O6 O 0.3193(4) 0.3201(3) 0.4575(6)
O7 O 0.4849(3) 0.1748(3) 0.3900(5)
O8 O 0.5890(4) 0.2353(3) 0.4154(6)
O9 O 0.4181(3) 0.0983(2) 0.5905(5)
O10 O 0.4624(4) 0.0802(3) 0.7882(5)
O11 O 0.1154(4) -0.1619(3) -0.2319(6)
O12 O 0.1538(6) -0.2323(5) -0.3345(13)
O13 O -0.0269(4) -0.0667(3) -0.3216(6)
O14 O -0.0836(5) -0.0561(3) -0.5189(7)
O15 O -0.0491(4) -0.1697(3) -0.0881(6)
O16 O -0.1479(5) -0.2312(3) -0.0947(7)
Cu3 Cu 0.66600(6) 0.40426(4) -0.22784(8)
N5 N 0.6674(4) 0.4031(3) -0.0448(5)
N6 N 0.6648(4) 0.4044(3) 0.5897(5)
C1 C 0.6156(5) 0.4366(4) 0.0019(7)
H1 H 0.5796(5) 0.4595(4) -0.0516(7)
C2 C 0.6139(5) 0.4383(4) 0.1239(7)
H2 H 0.5767(5) 0.4612(4) 0.1515(7)
C3 C 0.6685(5) 0.4054(4) 0.2063(7)
C4 C 0.7215(5) 0.3717(4) 0.1584(7)
H3 H 0.7594(5) 0.3494(4) 0.2102(7)
C5 C 0.7180(5) 0.3714(4) 0.0337(7)
H4 H 0.7531(5) 0.3476(4) 0.0034(7)
C6 C 0.6419(5) 0.4497(4) 0.5199(7)
H5 H 0.6246(5) 0.4814(4) 0.5563(7)
C7 C 0.6426(5) 0.4518(4) 0.3973(7)
H6 H 0.6259(5) 0.4843(4) 0.3527(7)
C8 C 0.6678(5) 0.4060(4) 0.3403(6)
C9 C 0.6914(7) 0.3598(4) 0.4110(8)
H7 H 0.7098(7) 0.3280(4) 0.3765(8)
C10 C 0.6883(6) 0.3598(4) 0.5344(8)
H8 H 0.7032(6) 0.3273(4) 0.5800(8)
O1 O 0.7885(4) 0.4141(3) -0.1944(5)
O2 O 0.6863(4) 0.3048(3) -0.2227(5)
O3 O 0.5434(4) 0.3962(3) -0.2595(5)
O4 O 0.6608(4) 0.4998(3) -0.2199(5)
N6_2 N 0.6648(4) 0.4044(3) -0.4103(5)
Cu3_2 Cu 0.66600(6) 0.40426(4) 0.77216(8)
O17 O -0.2487(6) 0.8177(4) 0.3013(8)
O18 O -0.0953(7) 0.6504(5) 0.6514(11)
O19 O 0.7924(5) 0.5700(4) -0.2199(8)
O20 O -0.1220(4) 0.4461(3) 0.0220(7)
O21 O 0.4371(4) 0.4060(3) 0.5232(7)
O22 O -0.0578(8) 0.3577(6) 0.1650(13)
O23 O 0.1466(14) -0.2405(10) -0.5648(21)
loop_
_geom_bond_atom_site_label_1
_geom_bond_atom_site_label_2
_geom_bond_site_symmetry_1
_geom_bond_site_symmetry_2
Cu1 N1 1_555 1_555
Cu2 N2 1_555 1_555
Cu3 N5 1_555 1_555
N1 C11 1_555 1_555
N2 C17 1_555 1_555
N3 Cu1 1_555 1_555
N4 Cu2 1_555 1_555
N5 C1 1_555 1_555
N6 C6 1_555 1_555
C1 H1 1_555 1_555
C2 C1 1_555 1_555
H2 C2 1_555 1_555
C3 C2 1_555 1_555
C4 C3 1_555 1_555
H3 C4 1_555 1_555
C5 N5 1_555 1_555
H4 C5 1_555 1_555
C6 H5 1_555 1_555
C7 C6 1_555 1_555
H6 C7 1_555 1_555
C8 C3 1_555 1_555
C9 C8 1_555 1_555
H7 C9 1_555 1_555
C10 N6 1_555 1_555
H8 C10 1_555 1_555
C11 H9 1_555 1_555
H10 C11 1_555 1_555
C12 C11 1_555 1_555
C13 N1 1_555 1_555
H11 C13 1_555 1_555
H12 C13 1_555 1_555
C14 C13 1_555 1_555
C15 N1 1_555 1_555
H13 C15 1_555 1_555
H14 C15 1_555 1_555
C16 C15 1_555 1_555
C17 H15 1_555 1_555
H16 C17 1_555 1_555
C18 C17 1_555 1_555
C19 N2 1_555 1_555
H17 C19 1_555 1_555
H18 C19 1_555 1_555
C20 C19 1_555 1_555
C21 N2 1_555 1_555
H19 C21 1_555 1_555
H20 C21 1_555 1_555
C22 C21 1_555 1_555
C23 N3 1_555 1_555
H21 C23 1_555 1_555
C24 C23 1_555 1_555
H22 C24 1_555 1_555
C25 C24 1_555 1_555
C26 C25 1_555 1_555
H23 C26 1_555 1_555
C27 N3 1_555 1_555
H24 C27 1_555 1_555
C28 N4 1_555 1_555
H25 C28 1_555 1_555
C29 C28 1_555 1_555
H26 C29 1_555 1_555
C30 C25 1_555 1_555
C31 C30 1_555 1_555
H27 C31 1_555 1_555
C32 N4 1_555 1_555
H28 C32 1_555 1_555
O1 Cu3 1_555 1_555
O2 Cu3 1_555 1_555
O3 Cu3 1_555 1_555
O4 Cu3 1_555 1_555
O5 Cu1 1_555 1_555
O6 C12 1_555 1_555
O7 Cu1 1_555 1_555
O8 C14 1_555 1_555
O9 Cu1 1_555 1_555
O10 C16 1_555 1_555
O11 Cu2 1_555 1_555
O12 C18 1_555 1_555
O13 Cu2 1_555 1_555
O14 C20 1_555 1_555
O15 Cu2 1_555 1_555
O16 C22 1_555 1_555
N6_2 Cu3 1_555 1_555
Cu3_2 N6 1_555 1_555
C4 C5 1_555 1_555
C7 C8 1_555 1_555
C9 C10 1_555 1_555
C12 O5 1_555 1_555
C14 O7 1_555 1_555
C16 O9 1_555 1_555
C18 O11 1_555 1_555
C20 O13 1_555 1_555
C22 O15 1_555 1_555
C26 C27 1_555 1_555
C29 C30 1_555 1_555
C31 C32 1_555 1_555

#END
