
#######################################################################
#
#                 Cambridge Crystallographic Data Centre
#                                CCDC 
#
#######################################################################
#
# If this CIF has been generated from an entry in the Cambridge 
# Structural Database, then it will include bibliographic, chemical, 
# crystal, experimental, refinement or atomic coordinate data resulting 
# from the CCDC's data processing and validation procedures.
#
#######################################################################

data_BECRUX03
_symmetry_cell_setting           monoclinic
_symmetry_space_group_name_H-M   'C 2/c'
_symmetry_Int_Tables_number      15
_space_group_name_Hall           '-C 2yn'
loop_
_symmetry_equiv_pos_site_id
_symmetry_equiv_pos_as_xyz
1 x,y,z
2 -x,y,1/2-z
3 1/2+x,1/2+y,z
4 1/2-x,1/2+y,1/2-z
5 -x,-y,-z
6 x,-y,1/2+z
7 1/2-x,1/2-y,-z
8 1/2+x,1/2-y,1/2+z
_cell_length_a                   17.9912(19)
_cell_length_b                   8.000(2)
_cell_length_c                   8.0643(6)
_cell_angle_alpha                90
_cell_angle_beta                 117.609(6)
_cell_angle_gamma                90
_cell_volume                     1028.52
loop_
_atom_site_label
_atom_site_type_symbol
_atom_site_fract_x
_atom_site_fract_y
_atom_site_fract_z
Zn1 Zn 0.5000 0.55556(18) 0.7500
P1 P 0.39200(6) 0.3094(3) 0.83826(14)
O1 O 0.40194(17) 0.4333(8) 0.7100(4)
O2 O 0.46560(17) 0.3052(8) 1.0327(4)
O3 O 0.3835(2) 0.1334(9) 0.7489(5)
H1 H 0.3927 0.0613 0.8284
C1 C 0.2884(3) 0.2297(11) 0.9884(6)
H2 H 0.2840 0.1161 0.9429
H3 H 0.3379 0.2364 1.1093
C2 C 0.2983(2) 0.3488(11) 0.8525(6)
H4 H 0.2988 0.4630 0.8933
H5 H 0.2508 0.3364 0.7294
P1F P 0.10800(6) 0.1906(3) 1.16174(14)
O1F O 0.09806(17) 0.0667(8) 1.2900(4)
O2F O 0.03440(17) 0.1948(8) 0.9673(4)
O3F O 0.1165(2) 0.3666(9) 1.2511(5)
H1F H 0.1073 0.4387 1.1716
C1F C 0.2116(3) 0.2703(11) 1.0116(6)
H2F H 0.2160 0.3839 1.0571
H3F H 0.1621 0.2636 0.8907
C2F C 0.2017(2) 0.1512(11) 1.1475(6)
H4F H 0.2012 0.0370 1.1067
H5F H 0.2492 0.1636 1.2706
Zn1B Zn 0.0000 0.05556(18) 0.7500
Zn1D Zn 0.5000 0.44444(18) 1.2500
Zn1F Zn 0.0000 -0.05556(18) 1.2500
O1A O 0.59806(17) 0.4333(8) 0.7900(4)
O2D O 0.53440(17) 0.6948(8) 0.9673(4)
O2E O 0.46560(17) 0.6948(8) 0.5327(4)
O4 O 0.4057(2) -0.1185(9) 0.9412(5)
H6 H 0.4064 -0.1079 1.0467
H7 H 0.4541 -0.1602 0.9745
loop_
_geom_bond_atom_site_label_1
_geom_bond_atom_site_label_2
_geom_bond_site_symmetry_1
_geom_bond_site_symmetry_2
Zn1 O1 1_555 1_555
P1 O1 1_555 1_555
O2 P1 1_555 1_555
O3 P1 1_555 1_555
H1 O3 1_555 1_555
C1 H2 1_555 1_555
H3 C1 1_555 1_555
C2 P1 1_555 1_555
H4 C2 1_555 1_555
H5 C2 1_555 1_555
O4 H6 1_555 1_555
H7 O4 1_555 1_555
P1F O1F 1_555 1_555
O1F Zn1F 1_555 1_555
O2F P1F 1_555 1_555
O3F P1F 1_555 1_555
H1F O3F 1_555 1_555
C1F C1 1_555 1_555
H2F C1F 1_555 1_555
H3F C1F 1_555 1_555
C2F P1F 1_555 1_555
H4F C2F 1_555 1_555
H5F C2F 1_555 1_555
Zn1B O2F 1_555 1_555
Zn1D O2 1_555 1_555
O1A Zn1 1_555 1_555
O2D Zn1 1_555 1_555
O2E Zn1 1_555 1_555
C1 C2 1_555 1_555
C1F C2F 1_555 1_555

#END
