
#######################################################################
#
#                 Cambridge Crystallographic Data Centre
#                                CCDC 
#
#######################################################################
#
# If this CIF has been generated from an entry in the Cambridge 
# Structural Database, then it will include bibliographic, chemical, 
# crystal, experimental, refinement or atomic coordinate data resulting 
# from the CCDC's data processing and validation procedures.
#
#######################################################################

data_BECRUX05
_symmetry_cell_setting           monoclinic
_symmetry_space_group_name_H-M   'C 2/c'
_symmetry_Int_Tables_number      15
_space_group_name_Hall           '-C 2yn'
loop_
_symmetry_equiv_pos_site_id
_symmetry_equiv_pos_as_xyz
1 x,y,z
2 -x,y,1/2-z
3 1/2+x,1/2+y,z
4 1/2-x,1/2+y,1/2-z
5 -x,-y,-z
6 x,-y,1/2+z
7 1/2-x,1/2-y,-z
8 1/2+x,1/2-y,1/2+z
_cell_length_a                   17.1996(18)
_cell_length_b                   8.139(2)
_cell_length_c                   7.4651(6)
_cell_angle_alpha                90
_cell_angle_beta                 122.431(6)
_cell_angle_gamma                90
_cell_volume                     882.037
loop_
_atom_site_label
_atom_site_type_symbol
_atom_site_fract_x
_atom_site_fract_y
_atom_site_fract_z
Zn1 Zn 0.5000 0.5403(2) 0.7500
P1 P 0.38203(8) 0.3030(3) 0.7986(2)
O1 O 0.3890(2) 0.4176(10) 0.6514(6)
O2 O 0.4699(2) 0.3106(8) 1.0201(5)
O3 O 0.3690(3) 0.1240(11) 0.7122(6)
H1 H 0.3902 0.0590 0.8115
C1 C 0.2847(3) 0.3388(14) 0.8126(8)
H2 H 0.2807 0.4547 0.8366
H3 H 0.2295 0.3083 0.6791
C2 C 0.2910(4) 0.2387(15) 0.9924(9)
H4 H 0.2971 0.1233 0.9698
H5 H 0.3458 0.2713 1.1255
P1F P 0.11797(8) 0.1970(3) 1.2014(2)
O1F O 0.1110(2) 0.0824(10) 1.3486(6)
O2F O 0.0301(2) 0.1894(8) 0.9799(5)
O3F O 0.1310(3) 0.3760(11) 1.2878(6)
H1F H 0.1098 0.4410 1.1885
C1F C 0.2153(3) 0.1612(14) 1.1874(8)
H2F H 0.2193 0.0453 1.1634
H3F H 0.2705 0.1917 1.3209
C2F C 0.2090(4) 0.2613(15) 1.0076(9)
H4F H 0.2029 0.3767 1.0302
H5F H 0.1542 0.2287 0.8745
Zn1B Zn 0.0000 0.0403(2) 0.7500
Zn1D Zn 0.5000 0.4597(2) 1.2500
Zn1F Zn 0.0000 -0.0403(2) 1.2500
O1A O 0.6110(2) 0.4176(10) 0.8486(6)
O2D O 0.5301(2) 0.6894(8) 0.9799(5)
O2E O 0.4699(2) 0.6894(8) 0.5201(5)
O4 O 0.4261(3) -0.0881(12) 0.9778(8)
H6 H 0.4088 -0.1489 1.0427
H7 H 0.4634 -0.0118 1.0518
loop_
_geom_bond_atom_site_label_1
_geom_bond_atom_site_label_2
_geom_bond_site_symmetry_1
_geom_bond_site_symmetry_2
Zn1 O1 1_555 1_555
P1 O1 1_555 1_555
O2 P1 1_555 1_555
O3 P1 1_555 1_555
H1 O3 1_555 1_555
C1 P1 1_555 1_555
H2 C1 1_555 1_555
H3 C1 1_555 1_555
C2 C1 1_555 1_555
H4 C2 1_555 1_555
H5 C2 1_555 1_555
O4 H6 1_555 1_555
H7 O4 1_555 1_555
P1F O1F 1_555 1_555
O1F Zn1F 1_555 1_555
O2F P1F 1_555 1_555
O3F P1F 1_555 1_555
H1F O3F 1_555 1_555
C1F P1F 1_555 1_555
H2F C1F 1_555 1_555
H3F C1F 1_555 1_555
C2F C2 1_555 1_555
H4F C2F 1_555 1_555
H5F C2F 1_555 1_555
Zn1B O2F 1_555 1_555
Zn1D O2 1_555 1_555
O1A Zn1 1_555 1_555
O2D Zn1 1_555 1_555
O2E Zn1 1_555 1_555
C1F C2F 1_555 1_555

#END
