
#######################################################################
#
#                 Cambridge Crystallographic Data Centre
#                                CCDC 
#
#######################################################################
#
# If this CIF has been generated from an entry in the Cambridge 
# Structural Database, then it will include bibliographic, chemical, 
# crystal, experimental, refinement or atomic coordinate data resulting 
# from the CCDC's data processing and validation procedures.
#
#######################################################################

data_BECRUX04
_symmetry_cell_setting           monoclinic
_symmetry_space_group_name_H-M   'C 2/c'
_symmetry_Int_Tables_number      15
_space_group_name_Hall           '-C 2yn'
loop_
_symmetry_equiv_pos_site_id
_symmetry_equiv_pos_as_xyz
1 x,y,z
2 -x,y,1/2-z
3 1/2+x,1/2+y,z
4 1/2-x,1/2+y,1/2-z
5 -x,-y,-z
6 x,-y,1/2+z
7 1/2-x,1/2-y,-z
8 1/2+x,1/2-y,1/2+z
_cell_length_a                   17.685(2)
_cell_length_b                   8.147(2)
_cell_length_c                   7.7557(6)
_cell_angle_alpha                90
_cell_angle_beta                 119.697(6)
_cell_angle_gamma                90
_cell_volume                     970.672
loop_
_atom_site_label
_atom_site_type_symbol
_atom_site_fract_x
_atom_site_fract_y
_atom_site_fract_z
Zn1 Zn 0.5000 0.54884(18) 0.7500
P1 P 0.38739(7) 0.3078(3) 0.81909(16)
O1 O 0.3960(2) 0.4271(9) 0.6837(5)
O2 O 0.46619(19) 0.3051(8) 1.0268(5)
O3 O 0.3783(3) 0.1339(10) 0.7290(5)
H1 H 0.3921 0.0648 0.8164
C1 C 0.2917(3) 0.3399(12) 0.8315(7)
H2 H 0.2887 0.4541 0.8629
H3 H 0.2415 0.3169 0.7028
C2 C 0.2885(3) 0.2315(13) 0.9872(8)
H4 H 0.2860 0.1174 0.9490
H5 H 0.3415 0.2469 1.1132
P1F P 0.11261(7) 0.1922(3) 1.18091(16)
O1F O 0.1040(2) 0.0729(9) 1.3163(5)
O2F O 0.03381(19) 0.1949(8) 0.9732(5)
O3F O 0.1217(3) 0.3661(10) 1.2710(5)
H1F H 0.1079 0.4352 1.1836
C1F C 0.2083(3) 0.1601(12) 1.1685(7)
H2F H 0.2113 0.0459 1.1371
H3F H 0.2585 0.1831 1.2972
C2F C 0.2115(3) 0.2685(13) 1.0128(8)
H4F H 0.2140 0.3826 1.0510
H5F H 0.1585 0.2531 0.8868
Zn1B Zn 0.0000 0.04884(18) 0.7500
Zn1D Zn 0.5000 0.45116(18) 1.2500
Zn1F Zn 0.0000 -0.04884(18) 1.2500
O1A O 0.6040(2) 0.4271(9) 0.8163(5)
O2D O 0.53381(19) 0.6949(8) 0.9732(5)
O2E O 0.46619(19) 0.6949(8) 0.5268(5)
O4 O 0.4143(3) -0.1000(12) 0.9447(6)
H6 H 0.3928 -0.0808 1.0193
H7 H 0.4591 -0.1515 0.9605
loop_
_geom_bond_atom_site_label_1
_geom_bond_atom_site_label_2
_geom_bond_site_symmetry_1
_geom_bond_site_symmetry_2
Zn1 O1 1_555 1_555
P1 O1 1_555 1_555
O2 P1 1_555 1_555
O3 P1 1_555 1_555
H1 O3 1_555 1_555
C1 P1 1_555 1_555
H2 C1 1_555 1_555
H3 C1 1_555 1_555
C2 C1 1_555 1_555
H4 C2 1_555 1_555
H5 C2 1_555 1_555
O4 H6 1_555 1_555
H7 O4 1_555 1_555
P1F O1F 1_555 1_555
O1F Zn1F 1_555 1_555
O2F P1F 1_555 1_555
O3F P1F 1_555 1_555
H1F O3F 1_555 1_555
C1F P1F 1_555 1_555
H2F C1F 1_555 1_555
H3F C1F 1_555 1_555
C2F C2 1_555 1_555
H4F C2F 1_555 1_555
H5F C2F 1_555 1_555
Zn1B O2F 1_555 1_555
Zn1D O2 1_555 1_555
O1A Zn1 1_555 1_555
O2D Zn1 1_555 1_555
O2E Zn1 1_555 1_555
C1F C2F 1_555 1_555

#END
