
#######################################################################
#
#                 Cambridge Crystallographic Data Centre
#                                CCDC 
#
#######################################################################
#
# If this CIF has been generated from an entry in the Cambridge 
# Structural Database, then it will include bibliographic, chemical, 
# crystal, experimental, refinement or atomic coordinate data resulting 
# from the CCDC's data processing and validation procedures.
#
#######################################################################

data_BECRUX02
_symmetry_cell_setting           monoclinic
_symmetry_space_group_name_H-M   'C 2/c'
_symmetry_Int_Tables_number      15
_space_group_name_Hall           '-C 2yn'
loop_
_symmetry_equiv_pos_site_id
_symmetry_equiv_pos_as_xyz
1 x,y,z
2 -x,y,1/2-z
3 1/2+x,1/2+y,z
4 1/2-x,1/2+y,1/2-z
5 -x,-y,-z
6 x,-y,1/2+z
7 1/2-x,1/2-y,-z
8 1/2+x,1/2-y,1/2+z
_cell_length_a                   18.515(4)
_cell_length_b                   8.2910(19)
_cell_length_c                   8.2652(19)
_cell_angle_alpha                90
_cell_angle_beta                 113.837(2)
_cell_angle_gamma                90
_cell_volume                     1160.55
loop_
_atom_site_label
_atom_site_type_symbol
_atom_site_fract_x
_atom_site_fract_y
_atom_site_fract_z
Zn1 Zn 0.5000 0.55847(5) 0.7500
P1 P 0.39872(4) 0.31270(8) 0.85968(7)
O1 O 0.41034(11) 0.4332(2) 0.7372(2)
O2 O 0.46522(10) 0.3043(2) 1.0420(2)
O3 O 0.39145(13) 0.1443(3) 0.7693(2)
H1 H 0.4057 0.0737 0.8451
C1 C 0.30746(15) 0.3512(4) 0.8759(3)
H2 H 0.3090 0.4587 0.9237
H3 H 0.2654 0.3493 0.7581
C2 C 0.28819(16) 0.2303(4) 0.9920(4)
H4 H 0.2845 0.1232 0.9421
H5 H 0.3308 0.2296 1.1090
P1F P 0.10128(4) 0.18730(8) 1.14032(7)
O1F O 0.08966(11) 0.0668(2) 1.2628(2)
O2F O 0.03478(10) 0.1957(2) 0.9580(2)
O3F O 0.10855(13) 0.3557(3) 1.2307(2)
H1F H 0.0943 0.4263 1.1549
C1F C 0.19254(15) 0.1488(4) 1.1241(3)
H2F H 0.1910 0.0413 1.0763
H3F H 0.2346 0.1507 1.2419
C2F C 0.21181(16) 0.2697(4) 1.0080(4)
H4F H 0.2155 0.3768 1.0579
H5F H 0.1692 0.2704 0.8910
Zn1B Zn 0.0000 0.05847(5) 0.7500
Zn1D Zn 0.5000 0.44153(5) 1.2500
Zn1F Zn 0.0000 -0.05847(5) 1.2500
O1A O 0.58966(11) 0.4332(2) 0.7628(2)
O2D O 0.53478(10) 0.6957(2) 0.9580(2)
O2E O 0.46522(10) 0.6957(2) 0.5420(2)
O4 O 0.40430(15) -0.1177(3) 0.9419(3)
H6 H 0.4419 -0.1758 0.9563
H7 H 0.4030 -0.1397 1.0400
loop_
_geom_bond_atom_site_label_1
_geom_bond_atom_site_label_2
_geom_bond_site_symmetry_1
_geom_bond_site_symmetry_2
Zn1 O1 1_555 1_555
P1 O1 1_555 1_555
O2 P1 1_555 1_555
O3 P1 1_555 1_555
H1 O3 1_555 1_555
C1 P1 1_555 1_555
H2 C1 1_555 1_555
H3 C1 1_555 1_555
C2 C1 1_555 1_555
H4 C2 1_555 1_555
H5 C2 1_555 1_555
O4 H6 1_555 1_555
H7 O4 1_555 1_555
P1F O1F 1_555 1_555
O1F Zn1F 1_555 1_555
O2F P1F 1_555 1_555
O3F P1F 1_555 1_555
H1F O3F 1_555 1_555
C1F P1F 1_555 1_555
H2F C1F 1_555 1_555
H3F C1F 1_555 1_555
C2F C2 1_555 1_555
H4F C2F 1_555 1_555
H5F C2F 1_555 1_555
Zn1B O2F 1_555 1_555
Zn1D O2 1_555 1_555
O1A Zn1 1_555 1_555
O2D Zn1 1_555 1_555
O2E Zn1 1_555 1_555
C1F C2F 1_555 1_555

#END
