
#######################################################################
#
#                 Cambridge Crystallographic Data Centre
#                                CCDC 
#
#######################################################################
#
# If this CIF has been generated from an entry in the Cambridge 
# Structural Database, then it will include bibliographic, chemical, 
# crystal, experimental, refinement or atomic coordinate data resulting 
# from the CCDC's data processing and validation procedures.
#
#######################################################################

data_BECRUX07
_symmetry_cell_setting           monoclinic
_symmetry_space_group_name_H-M   'C 2/c'
_symmetry_Int_Tables_number      15
_space_group_name_Hall           '-C 2yn'
loop_
_symmetry_equiv_pos_site_id
_symmetry_equiv_pos_as_xyz
1 x,y,z
2 -x,y,1/2-z
3 1/2+x,1/2+y,z
4 1/2-x,1/2+y,1/2-z
5 -x,-y,-z
6 x,-y,1/2+z
7 1/2-x,1/2-y,-z
8 1/2+x,1/2-y,1/2+z
_cell_length_a                   18.552(12)
_cell_length_b                   8.272(5)
_cell_length_c                   8.261(5)
_cell_angle_alpha                90
_cell_angle_beta                 113.790(6)
_cell_angle_gamma                90
_cell_volume                     1160.03
loop_
_atom_site_label
_atom_site_type_symbol
_atom_site_fract_x
_atom_site_fract_y
_atom_site_fract_z
Zn1 Zn 0.5000 0.55861(4) 0.7500
P1 P 0.39860(4) 0.31295(8) 0.85978(9)
O1 O 0.41042(13) 0.4331(2) 0.7372(3)
O2 O 0.46470(12) 0.3042(2) 1.0420(3)
O3 O 0.39160(14) 0.1435(2) 0.7694(3)
H1 H 0.3912 0.0724 0.8382
C1 C 0.28860(18) 0.2309(4) 0.9941(4)
H2 H 0.2862 0.1229 0.9465
H3 H 0.3305 0.2327 1.1118
C2 C 0.30768(17) 0.3520(3) 0.8763(4)
H4 H 0.3092 0.4599 0.9235
H5 H 0.2657 0.3494 0.7587
P1F P 0.10140(4) 0.18705(8) 1.14022(9)
O1F O 0.08958(13) 0.0669(2) 1.2628(3)
O2F O 0.03530(12) 0.1958(2) 0.9580(3)
O3F O 0.10840(14) 0.3565(2) 1.2306(3)
H1F H 0.1088 0.4276 1.1618
C1F C 0.21140(18) 0.2691(4) 1.0059(4)
H2F H 0.2138 0.3771 1.0535
H3F H 0.1695 0.2673 0.8882
C2F C 0.19232(17) 0.1480(3) 1.1237(4)
H4F H 0.1908 0.0401 1.0765
H5F H 0.2343 0.1506 1.2413
Zn1B Zn 0.0000 0.05861(4) 0.7500
Zn1D Zn 0.5000 0.44139(4) 1.2500
Zn1F Zn 0.0000 -0.05861(4) 1.2500
O1A O 0.58958(13) 0.4331(2) 0.7628(3)
O2D O 0.53530(12) 0.6958(2) 0.9580(3)
O2E O 0.46470(12) 0.6958(2) 0.5420(3)
O4 O 0.40458(16) -0.1184(3) 0.9417(3)
H6 H 0.4005 -0.1102 1.0402
H7 H 0.4514 -0.1427 0.9567
loop_
_geom_bond_atom_site_label_1
_geom_bond_atom_site_label_2
_geom_bond_site_symmetry_1
_geom_bond_site_symmetry_2
Zn1 O1 1_555 1_555
P1 O1 1_555 1_555
O2 P1 1_555 1_555
O3 P1 1_555 1_555
H1 O3 1_555 1_555
C1 H2 1_555 1_555
H3 C1 1_555 1_555
C2 P1 1_555 1_555
H4 C2 1_555 1_555
H5 C2 1_555 1_555
O4 H6 1_555 1_555
H7 O4 1_555 1_555
P1F O1F 1_555 1_555
O1F Zn1F 1_555 1_555
O2F P1F 1_555 1_555
O3F P1F 1_555 1_555
H1F O3F 1_555 1_555
C1F C1 1_555 1_555
H2F C1F 1_555 1_555
H3F C1F 1_555 1_555
C2F P1F 1_555 1_555
H4F C2F 1_555 1_555
H5F C2F 1_555 1_555
Zn1B O2F 1_555 1_555
Zn1D O2 1_555 1_555
O1A Zn1 1_555 1_555
O2D Zn1 1_555 1_555
O2E Zn1 1_555 1_555
C1 C2 1_555 1_555
C1F C2F 1_555 1_555

#END
