
#######################################################################
#
#                 Cambridge Crystallographic Data Centre
#                                CCDC 
#
#######################################################################
#
# If this CIF has been generated from an entry in the Cambridge 
# Structural Database, then it will include bibliographic, chemical, 
# crystal, experimental, refinement or atomic coordinate data resulting 
# from the CCDC's data processing and validation procedures.
#
#######################################################################

data_BECRUX06
_symmetry_cell_setting           monoclinic
_symmetry_space_group_name_H-M   'C 2/c'
_symmetry_Int_Tables_number      15
_space_group_name_Hall           '-C 2yn'
loop_
_symmetry_equiv_pos_site_id
_symmetry_equiv_pos_as_xyz
1 x,y,z
2 -x,y,1/2-z
3 1/2+x,1/2+y,z
4 1/2-x,1/2+y,1/2-z
5 -x,-y,-z
6 x,-y,1/2+z
7 1/2-x,1/2-y,-z
8 1/2+x,1/2-y,1/2+z
_cell_length_a                   17.023(2)
_cell_length_b                   8.066(3)
_cell_length_c                   7.4078(8)
_cell_angle_alpha                90
_cell_angle_beta                 123.227(8)
_cell_angle_gamma                90
_cell_volume                     850.849
loop_
_atom_site_label
_atom_site_type_symbol
_atom_site_fract_x
_atom_site_fract_y
_atom_site_fract_z
Zn1 Zn 0.5000 0.5379(3) 0.7500
P1 P 0.38055(12) 0.3023(5) 0.7954(3)
O1 O 0.3877(3) 0.4108(15) 0.6435(8)
O2 O 0.4707(3) 0.3117(13) 1.0195(8)
O3 O 0.3657(4) 0.1198(17) 0.7109(9)
H1 H 0.3893 0.0556 0.8136
C1 C 0.2834(4) 0.343(2) 0.8089(11)
H2 H 0.2808 0.4606 0.8337
H3 H 0.2262 0.3133 0.6737
C2 C 0.2922(5) 0.241(2) 0.9963(13)
H4 H 0.3010 0.1248 0.9775
H5 H 0.3469 0.2778 1.1322
P1F P 0.11945(12) 0.1977(5) 1.2046(3)
O1F O 0.1123(3) 0.0892(15) 1.3565(8)
O2F O 0.0293(3) 0.1883(13) 0.9805(8)
O3F O 0.1343(4) 0.3802(17) 1.2891(9)
H1F H 0.1107 0.4444 1.1864
C1F C 0.2166(4) 0.157(2) 1.1911(11)
H2F H 0.2192 0.0394 1.1663
H3F H 0.2738 0.1867 1.3263
C2F C 0.2078(5) 0.259(2) 1.0037(13)
H4F H 0.1990 0.3752 1.0225
H5F H 0.1531 0.2222 0.8678
Zn1B Zn 0.0000 0.0379(3) 0.7500
Zn1D Zn 0.5000 0.4621(3) 1.2500
Zn1F Zn 0.0000 -0.0379(3) 1.2500
O1A O 0.6123(3) 0.4108(15) 0.8565(8)
O2D O 0.5293(3) 0.6883(13) 0.9805(8)
O2E O 0.4707(3) 0.6883(13) 0.5195(8)
O4 O 0.4290(4) -0.0812(17) 0.9898(11)
H6 H 0.4172 -0.1104 1.0829
H7 H 0.4734 -0.1398 1.0036
loop_
_geom_bond_atom_site_label_1
_geom_bond_atom_site_label_2
_geom_bond_site_symmetry_1
_geom_bond_site_symmetry_2
Zn1 O1 1_555 1_555
P1 O1 1_555 1_555
O2 P1 1_555 1_555
O3 P1 1_555 1_555
H1 O3 1_555 1_555
C1 P1 1_555 1_555
H2 C1 1_555 1_555
H3 C1 1_555 1_555
C2 C1 1_555 1_555
H4 C2 1_555 1_555
H5 C2 1_555 1_555
O4 H6 1_555 1_555
H7 O4 1_555 1_555
P1F O1F 1_555 1_555
O1F Zn1F 1_555 1_555
O2F P1F 1_555 1_555
O3F P1F 1_555 1_555
H1F O3F 1_555 1_555
C1F P1F 1_555 1_555
H2F C1F 1_555 1_555
H3F C1F 1_555 1_555
C2F C2 1_555 1_555
H4F C2F 1_555 1_555
H5F C2F 1_555 1_555
Zn1B O2F 1_555 1_555
Zn1D O2 1_555 1_555
O1A Zn1 1_555 1_555
O2D Zn1 1_555 1_555
O2E Zn1 1_555 1_555
C1F C2F 1_555 1_555

#END
