
#######################################################################
#
#                 Cambridge Crystallographic Data Centre
#                                CCDC 
#
#######################################################################
#
# If this CIF has been generated from an entry in the Cambridge 
# Structural Database, then it will include bibliographic, chemical, 
# crystal, experimental, refinement or atomic coordinate data resulting 
# from the CCDC's data processing and validation procedures.
#
#######################################################################

data_BECRUW
_symmetry_cell_setting           monoclinic
_symmetry_space_group_name_H-M   'C 2'
_symmetry_Int_Tables_number      5
_space_group_name_Hall           'C 2y'
loop_
_symmetry_equiv_pos_site_id
_symmetry_equiv_pos_as_xyz
1 x,y,z
2 -x,y,-z
3 1/2+x,1/2+y,z
4 1/2-x,1/2+y,-z
_cell_length_a                   9.886(3)
_cell_length_b                   17.388(5)
_cell_length_c                   6.029(2)
_cell_angle_alpha                90
_cell_angle_beta                 103.33(2)
_cell_angle_gamma                90
_cell_volume                     1008.45
loop_
_atom_site_label
_atom_site_type_symbol
_atom_site_fract_x
_atom_site_fract_y
_atom_site_fract_z
Cr1 Cr 0.0000 0.0000 0.0000
N1 N 0.0904(3) -0.0919(2) 0.1968(5)
C1 C 0.1751(4) -0.0881(2) 0.4072(5)
C2 C 0.2143(4) -0.1550(3) 0.5318(6)
C3 C 0.1667(4) -0.2237(3) 0.4305(8)
N2 N 0.0836(3) -0.2280(2) 0.2209(6)
C4 C 0.0490(3) -0.1620(2) 0.1156(5)
Na1 Na 0.5000 0.1535(1) 0.0000
O1 O 0.1420(2) 0.0028(2) -0.1777(3)
C5 C 0.2412(3) 0.0509(2) -0.1053(5)
O2 O 0.3380(3) 0.0626(2) -0.1924(5)
C6 C 0.2282(3) 0.0956(2) 0.1126(6)
O3 O 0.3139(3) 0.1430(2) 0.1949(6)
O4 O 0.1202(3) 0.0768(1) 0.1870(5)
H1 H 0.2083(4) -0.0392(2) 0.4708(5)
H2 H 0.2723(4) -0.1534(3) 0.6833(6)
H3 H 0.1947(4) -0.2705(3) 0.5126(8)
C4A C -0.0490(3) -0.1620(2) -0.1156(5)
N1A N -0.0904(3) -0.0919(2) -0.1968(5)
Na1B Na 0.0000 -0.3465(1) 0.0000
N2B N 0.5836(3) 0.2720(2) 0.2209(6)
N2C N 0.4164(3) 0.2720(2) -0.2209(6)
O2A O 0.6620(3) 0.0626(2) 0.1924(5)
O3A O 0.6861(3) 0.1430(2) -0.1949(6)
O1A O -0.1420(2) 0.0028(2) 0.1777(3)
O4A O -0.1202(3) 0.0768(1) -0.1870(5)
C1A C -0.1751(4) -0.0881(2) -0.4072(5)
N2A N -0.0836(3) -0.2280(2) -0.2209(6)
C5A C -0.2412(3) 0.0509(2) 0.1053(5)
C6A C -0.2282(3) 0.0956(2) -0.1126(6)
C2A C -0.2143(4) -0.1550(3) -0.5318(6)
H1A H -0.2083(4) -0.0392(2) -0.4708(5)
C3A C -0.1667(4) -0.2237(3) -0.4305(8)
O2A_2 O -0.3380(3) 0.0626(2) 0.1924(5)
O3A_2 O -0.3139(3) 0.1430(2) -0.1949(6)
H2A H -0.2723(4) -0.1534(3) -0.6833(6)
H3A H -0.1947(4) -0.2705(3) -0.5126(8)
Na1_2 Na -0.5000 0.1535(1) 0.0000
O5 O 0.5000 -0.3294(3) -0.5
O6 O 0.5467(6) -0.0523(5) -0.269(2)
O7 O 0.5844(8) -0.2088(6) -0.144(1)
loop_
_geom_bond_atom_site_label_1
_geom_bond_atom_site_label_2
_geom_bond_site_symmetry_1
_geom_bond_site_symmetry_2
Cr1 N1 1_555 1_555
N1 C1 1_555 1_555
C1 C2 1_555 1_555
C2 C3 1_555 1_555
C3 N2 1_555 1_555
N2 C4 1_555 1_555
C4 N1 1_555 1_555
Na1 O2 1_555 1_555
O1 Cr1 1_555 1_555
C5 O1 1_555 1_555
O2 C5 1_555 1_555
C6 C5 1_555 1_555
O3 Na1 1_555 1_555
O4 Cr1 1_555 1_555
H1 C1 1_555 1_555
H2 C2 1_555 1_555
H3 C3 1_555 1_555
C4A C4 1_555 1_555
N1A Cr1 1_555 1_555
Na1B N2 1_555 1_555
N2B Na1 1_555 1_555
N2C Na1 1_555 1_555
O2A Na1 1_555 1_555
O3A Na1 1_555 1_555
O1A Cr1 1_555 1_555
O4A Cr1 1_555 1_555
C1A N1A 1_555 1_555
N2A C4A 1_555 1_555
C5A O1A 1_555 1_555
C6A O4A 1_555 1_555
C2A C1A 1_555 1_555
H1A C1A 1_555 1_555
C3A N2A 1_555 1_555
O2A_2 C5A 1_555 1_555
O3A_2 C6A 1_555 1_555
H2A C2A 1_555 1_555
H3A C3A 1_555 1_555
Na1_2 O2A_2 1_555 1_555
C6 O3 1_555 1_555
C6 O4 1_555 1_555
C4A N1A 1_555 1_555
Na1B N2A 1_555 1_555
C5A C6A 1_555 1_555
C2A C3A 1_555 1_555
O3A_2 Na1_2 1_555 1_555

#END
