
#######################################################################
#
#                 Cambridge Crystallographic Data Centre
#                                CCDC 
#
#######################################################################
#
# If this CIF has been generated from an entry in the Cambridge 
# Structural Database, then it will include bibliographic, chemical, 
# crystal, experimental, refinement or atomic coordinate data resulting 
# from the CCDC's data processing and validation procedures.
#
#######################################################################

data_BECRUX
_symmetry_cell_setting           monoclinic
_symmetry_space_group_name_H-M   'C 2/c'
_symmetry_Int_Tables_number      15
_space_group_name_Hall           '-C 2yn'
loop_
_symmetry_equiv_pos_site_id
_symmetry_equiv_pos_as_xyz
1 x,y,z
2 1/2+x,1/2+y,z
3 -x,y,1/2-z
4 1/2-x,1/2+y,1/2-z
5 -x,-y,-z
6 1/2-x,1/2-y,-z
7 x,-y,1/2+z
8 1/2+x,1/2-y,1/2+z
_cell_length_a                   18.545(2)
_cell_length_b                   8.2688(11)
_cell_length_c                   8.2977(11)
_cell_angle_alpha                90
_cell_angle_beta                 114.159(2)
_cell_angle_gamma                90
_cell_volume                     1160.96
loop_
_atom_site_label
_atom_site_type_symbol
_atom_site_fract_x
_atom_site_fract_y
_atom_site_fract_z
Zn1 Zn 0.0000 -0.05884(7) -0.2500
P1 P -0.10180(5) 0.18782(11) -0.14199(11)
C1 C -0.1931(2) 0.1492(5) -0.1252(5)
H1 H -0.231(3) 0.151(5) -0.239(6)
H2 H -0.193(3) 0.043(5) -0.079(6)
C2 C -0.2124(3) 0.2700(6) -0.0096(6)
H3 H -0.177(3) 0.271(5) 0.083(6)
H4 H -0.221(3) 0.394(5) -0.058(5)
O1 O -0.09020(16) 0.0663(3) -0.2640(3)
O2 O -0.03456(14) 0.1963(3) 0.0416(3)
O3 O -0.10898(18) 0.3571(4) -0.2321(4)
H5 H -0.110(4) 0.422(6) -0.183(8)
C2E C -0.2876(3) 0.2300(6) 0.0096(6)
C1E C -0.3069(2) 0.3508(5) 0.1252(5)
P1E P -0.39820(5) 0.31218(11) 0.14199(11)
O1E O -0.40980(16) 0.4337(3) 0.2640(3)
O2E O -0.46544(14) 0.3037(3) -0.0416(3)
O3E O -0.39102(18) 0.1429(4) 0.2321(4)
H5E H -0.390(4) 0.078(6) 0.183(8)
H1E H -0.269(3) 0.349(5) 0.239(6)
H2E H -0.307(3) 0.457(5) 0.079(6)
H3E H -0.323(3) 0.229(5) -0.083(6)
H4E H -0.279(3) 0.106(5) 0.058(5)
O1B O 0.09020(16) 0.0663(3) -0.2360(3)
O2F O -0.03456(14) -0.1963(3) -0.4584(3)
O2D O 0.03456(14) -0.1963(3) -0.0416(3)
Zn1F Zn 0.0000 0.05884(7) 0.2500
Zn1G Zn -0.5000 0.55884(7) 0.2500
Zn1A Zn -0.5000 0.44116(7) -0.2500
O4 O -0.0961(2) 0.6185(4) -0.0593(5)
H6 H -0.100(4) 0.629(7) 0.021(8)
H7 H -0.068(5) 0.671(10) -0.069(11)
loop_
_geom_bond_atom_site_label_1
_geom_bond_atom_site_label_2
_geom_bond_site_symmetry_1
_geom_bond_site_symmetry_2
Zn1 O1 1_555 1_555
P1 C1 1_555 1_555
C1 H1 1_555 1_555
H2 C1 1_555 1_555
C2 C1 1_555 1_555
H3 C2 1_555 1_555
H4 C2 1_555 1_555
O1 P1 1_555 1_555
O2 P1 1_555 1_555
O3 P1 1_555 1_555
H5 O3 1_555 1_555
O4 H6 1_555 1_555
H7 O4 1_555 1_555
C2E C2 1_555 1_555
C1E C2E 1_555 1_555
P1E C1E 1_555 1_555
O1E P1E 1_555 1_555
O2E P1E 1_555 1_555
O3E P1E 1_555 1_555
H5E O3E 1_555 1_555
H1E C1E 1_555 1_555
H2E C1E 1_555 1_555
H3E C2E 1_555 1_555
H4E C2E 1_555 1_555
O1B Zn1 1_555 1_555
O2F Zn1 1_555 1_555
O2D Zn1 1_555 1_555
Zn1F O2 1_555 1_555
Zn1G O1E 1_555 1_555
Zn1A O2E 1_555 1_555

#END
