
#######################################################################
#
#                 Cambridge Crystallographic Data Centre
#                                CCDC 
#
#######################################################################
#
# If this CIF has been generated from an entry in the Cambridge 
# Structural Database, then it will include bibliographic, chemical, 
# crystal, experimental, refinement or atomic coordinate data resulting 
# from the CCDC's data processing and validation procedures.
#
#######################################################################

data_BECSUY
_symmetry_cell_setting           monoclinic
_symmetry_space_group_name_H-M   'P 21/n'
_symmetry_Int_Tables_number      14
_space_group_name_Hall           '-P 2yn'
loop_
_symmetry_equiv_pos_site_id
_symmetry_equiv_pos_as_xyz
1 x,y,z
2 1/2+x,1/2-y,1/2+z
3 -x,-y,-z
4 1/2-x,1/2+y,1/2-z
_cell_length_a                   11.1352(7)
_cell_length_b                   21.0058(15)
_cell_length_c                   25.7261(18)
_cell_angle_alpha                90
_cell_angle_beta                 101.756(2)
_cell_angle_gamma                90
_cell_volume                     5891.21
loop_
_atom_site_label
_atom_site_type_symbol
_atom_site_fract_x
_atom_site_fract_y
_atom_site_fract_z
La1 La 0.27699(4) 0.036636(19) 0.534082(17)
O1 O 0.3601(4) 0.0834(2) 0.45871(19)
O2 O 0.3348(4) -0.0539(2) 0.47401(19)
H1 H 0.3196 -0.0784 0.4924
H2 H 0.4014 -0.0632 0.4616
O3 O 0.4550(4) -0.0335(2) 0.5828(2)
H3 H 0.4994 -0.0432 0.5623
H4 H 0.5118 -0.0205 0.6134
O4 O 0.2836(5) 0.1756(3) 0.4794(2)
O5 O 0.1113(4) 0.0404(2) 0.45091(19)
H5 H 0.1162 0.0591 0.4290
H6 H 0.0380 0.0194 0.4550
O6 O 0.1479(5) 0.3047(2) 0.3532(2)
O7 O -0.2722(5) 0.2600(2) 0.2036(2)
O8 O 0.3124(4) 0.0542(2) 0.6365(2)
H7 H 0.4056 0.0781 0.6682
H8 H 0.2912 0.0367 0.6520
O9 O -0.4263(4) 0.4505(3) 0.0627(2)
O10 O -0.3785(5) 0.3494(3) 0.0622(2)
O11 O 0.2447(5) -0.1570(2) 0.5258(2)
O12 O 0.1801(5) -0.0645(2) 0.5509(2)
O13 O 0.3752(5) -0.2659(2) 0.6687(2)
O14 O 0.8040(5) -0.1873(2) 0.8010(2)
O15 O 1.0386(4) -0.3955(2) 0.93036(18)
O16 O 0.9327(4) -0.3082(2) 0.94197(19)
N1 N 0.4357(5) 0.2435(3) 0.4261(2)
N2 N -0.5487(5) 0.3156(3) 0.1195(2)
N3 N 0.0977(6) -0.2238(3) 0.5772(3)
N4 N 1.0781(5) -0.2325(3) 0.8940(2)
C1 C 0.3495(7) 0.1428(4) 0.4564(3)
C2 C 0.4242(6) 0.1744(3) 0.4201(3)
H9 H 0.5058 0.1559 0.4270
H10 H 0.3863 0.1648 0.3835
C3 C 0.3446(6) 0.2834(3) 0.4034(3)
C4 C 0.3579(8) 0.3477(4) 0.4115(3)
H11 H 0.2945 0.3752 0.3969
C5 C 0.4658(8) 0.3716(4) 0.4416(3)
H12 H 0.4776 0.4153 0.4455
C6 C 0.5548(7) 0.3303(4) 0.4654(3)
H13 H 0.6261 0.3455 0.4872
C7 C 0.5381(6) 0.2675(4) 0.4569(3)
H14 H 0.5994 0.2396 0.4729
C8 C 0.2307(6) 0.2547(3) 0.3690(3)
H15 H 0.2512 0.2343 0.3381
H16 H 0.1949 0.2232 0.3888
C9 C 0.0422(6) 0.2905(3) 0.3160(3)
C10 C 0.0089(7) 0.2302(3) 0.2968(3)
H17 H 0.0579 0.1951 0.3088
C11 C -0.0981(7) 0.2229(3) 0.2595(3)
H18 H -0.1224 0.1826 0.2464
C12 C -0.1678(6) 0.2739(3) 0.2418(3)
C13 C -0.1364(7) 0.3346(4) 0.2594(3)
H19 H -0.1854 0.3693 0.2466
C14 C -0.0291(7) 0.3419(3) 0.2969(3)
H20 H -0.0049 0.3824 0.3093
C15 C -0.3538(6) 0.3099(3) 0.1844(3)
H21 H -0.3163 0.3395 0.1635
H22 H -0.3765 0.3329 0.2137
C16 C -0.4643(6) 0.2791(3) 0.1507(3)
C17 C -0.4835(7) 0.2146(4) 0.1512(3)
H23 H -0.4263 0.1885 0.1725
C18 C -0.5881(8) 0.1883(4) 0.1200(4)
H24 H -0.5990 0.1444 0.1186
C19 C -0.6749(8) 0.2275(4) 0.0913(3)
H25 H -0.7485 0.2109 0.0725
C20 C -0.6529(6) 0.2904(4) 0.0906(3)
H26 H -0.7102 0.3170 0.0699
C21 C -0.5262(6) 0.3843(3) 0.1124(3)
H27 H -0.4936 0.4035 0.1467
H28 H -0.6030 0.4053 0.0974
C22 C -0.4357(6) 0.3938(4) 0.0758(3)
C23 C 0.1840(6) -0.1231(3) 0.5493(3)
C24 C 0.0954(7) -0.1540(3) 0.5802(3)
H29 H 0.1173 -0.1410 0.6171
H30 H 0.0128 -0.1390 0.5660
C25 C 0.1905(6) -0.2576(4) 0.6068(3)
C26 C 0.1956(8) -0.3223(4) 0.6001(3)
H31 H 0.2581 -0.3459 0.6210
C27 C 0.1081(9) -0.3525(4) 0.5625(4)
H32 H 0.1113 -0.3963 0.5577
C28 C 0.0153(9) -0.3167(5) 0.5319(4)
H33 H -0.0436 -0.3359 0.5059
C29 C 0.0119(8) -0.2528(4) 0.5407(4)
H34 H -0.0515 -0.2288 0.5209
C30 C 0.2879(7) -0.2217(3) 0.6448(3)
H35 H 0.3255 -0.1899 0.6258
H36 H 0.2522 -0.2003 0.6714
C31 C 0.4816(7) -0.2427(4) 0.7014(3)
C32 C 0.5069(7) -0.1800(4) 0.7119(3)
H37 H 0.4509 -0.1489 0.6970
C33 C 0.6169(7) -0.1628(4) 0.7450(3)
H38 H 0.6353 -0.1200 0.7517
C34 C 0.6987(7) -0.2090(4) 0.7678(3)
C35 C 0.6732(7) -0.2718(4) 0.7570(3)
H39 H 0.7291 -0.3031 0.7715
C36 C 0.5620(7) -0.2884(4) 0.7238(3)
H40 H 0.5429 -0.3311 0.7169
C37 C 0.8862(7) -0.2331(3) 0.8272(3)
H41 H 0.9223 -0.2566 0.8017
H42 H 0.8438 -0.2629 0.8459
C38 C 0.9831(7) -0.1988(4) 0.8653(3)
C39 C 0.9786(8) -0.1340(4) 0.8736(3)
H43 H 0.9153 -0.1100 0.8537
C40 C 1.0685(8) -0.1043(4) 0.9115(4)
H44 H 1.0639 -0.0608 0.9179
C41 C 1.1637(8) -0.1396(4) 0.9394(3)
H45 H 1.2265 -0.1203 0.9637
C42 C 1.1643(7) -0.2040(4) 0.9308(3)
H46 H 1.2261 -0.2287 0.9509
C43 C 1.0846(6) -0.3027(3) 0.8893(3)
H47 H 1.1698 -0.3158 0.8986
H48 H 1.0532 -0.3147 0.8526
C44 C 1.0130(6) -0.3374(3) 0.9243(3)
O9A O 0.0737(4) 0.0495(3) 0.5627(2)
O15C O 0.4614(4) 0.1045(2) 0.56964(18)
La1A La -0.22301(4) 0.463364(19) 0.034082(17)
La1C La 1.22301(4) -0.463364(19) 0.965918(17)
S1 S -0.3370(2) 0.53298(14) 0.22664(10)
O17 O -0.4463(6) 0.5643(3) 0.2310(3)
O18 O -0.2551(9) 0.5707(5) 0.2018(4)
O19 O -0.3481(7) 0.4697(3) 0.2102(3)
C45 C -0.2576(16) 0.5277(7) 0.2948(6)
F1 F -0.2329(8) 0.5841(4) 0.3150(3)
F2 F -0.1537(9) 0.4989(5) 0.2968(4)
F3 F -0.3210(14) 0.4950(6) 0.3223(4)
S2 S 0.6623(2) 0.05596(10) 0.69122(9)
O20 O 0.7509(9) 0.0938(4) 0.6759(3)
O21 O 0.5576(7) 0.0897(4) 0.6945(3)
O22 O 0.6462(7) -0.0026(3) 0.6640(3)
C46 C 0.7331(11) 0.0365(5) 0.7579(4)
F4 F 0.7514(6) 0.0832(3) 0.7899(2)
F5 F 0.6458(10) 0.0042(4) 0.7798(3)
F6 F 0.8167(8) -0.0020(5) 0.7637(3)
S3 S 0.2528(4) 0.52659(14) 0.45805(18)
O23 O 0.2411(8) 0.5906(3) 0.4584(4)
O24 O 0.2688(16) 0.4978(7) 0.5055(6)
O25 O 0.3306(10) 0.5043(5) 0.4250(7)
C47 C 0.1155(19) 0.5003(9) 0.4289(13)
F7 F 0.0228(12) 0.5205(7) 0.4457(7)
F8 F 0.0768(15) 0.5215(7) 0.3798(5)
F9 F 0.1068(9) 0.4404(4) 0.4188(7)
O26 O 0.8443(5) -0.0820(3) 0.6454(2)
H49 H 0.9078 -0.0933 0.6746
H50 H 0.8380 -0.0478 0.6689
loop_
_geom_bond_atom_site_label_1
_geom_bond_atom_site_label_2
_geom_bond_site_symmetry_1
_geom_bond_site_symmetry_2
La1 O1 1_555 1_555
O1 C1 1_555 1_555
O2 La1 1_555 1_555
H1 O2 1_555 1_555
H2 O2 1_555 1_555
O3 La1 1_555 1_555
H3 O3 1_555 1_555
H4 O3 1_555 1_555
O4 C1 1_555 1_555
O5 La1 1_555 1_555
H5 O5 1_555 1_555
H6 O5 1_555 1_555
O6 C8 1_555 1_555
O7 C12 1_555 1_555
O8 La1 1_555 1_555
H7 O8 1_555 1_555
H8 O8 1_555 1_555
O9 C22 1_555 1_555
O10 C22 1_555 1_555
O11 C23 1_555 1_555
O12 La1 1_555 1_555
O13 C30 1_555 1_555
O14 C34 1_555 1_555
O15 C44 1_555 1_555
O16 C44 1_555 1_555
N1 C2 1_555 1_555
N2 C16 1_555 1_555
N3 C24 1_555 1_555
N4 C38 1_555 1_555
C1 C2 1_555 1_555
C2 H9 1_555 1_555
H10 C2 1_555 1_555
C3 N1 1_555 1_555
C4 C3 1_555 1_555
H11 C4 1_555 1_555
C5 C4 1_555 1_555
H12 C5 1_555 1_555
C6 C5 1_555 1_555
H13 C6 1_555 1_555
C7 N1 1_555 1_555
H14 C7 1_555 1_555
C8 C3 1_555 1_555
H15 C8 1_555 1_555
H16 C8 1_555 1_555
C9 O6 1_555 1_555
C10 C9 1_555 1_555
H17 C10 1_555 1_555
C11 C10 1_555 1_555
H18 C11 1_555 1_555
C12 C11 1_555 1_555
C13 C12 1_555 1_555
H19 C13 1_555 1_555
C14 C9 1_555 1_555
H20 C14 1_555 1_555
C15 O7 1_555 1_555
H21 C15 1_555 1_555
H22 C15 1_555 1_555
C16 C15 1_555 1_555
C17 C16 1_555 1_555
H23 C17 1_555 1_555
C18 C17 1_555 1_555
H24 C18 1_555 1_555
C19 C18 1_555 1_555
H25 C19 1_555 1_555
C20 N2 1_555 1_555
H26 C20 1_555 1_555
C21 N2 1_555 1_555
H27 C21 1_555 1_555
H28 C21 1_555 1_555
C22 C21 1_555 1_555
C23 O12 1_555 1_555
C24 C23 1_555 1_555
H29 C24 1_555 1_555
H30 C24 1_555 1_555
C25 N3 1_555 1_555
C26 C25 1_555 1_555
H31 C26 1_555 1_555
C27 C26 1_555 1_555
H32 C27 1_555 1_555
C28 C27 1_555 1_555
H33 C28 1_555 1_555
C29 N3 1_555 1_555
H34 C29 1_555 1_555
C30 C25 1_555 1_555
H35 C30 1_555 1_555
H36 C30 1_555 1_555
C31 O13 1_555 1_555
C32 C31 1_555 1_555
H37 C32 1_555 1_555
C33 C32 1_555 1_555
H38 C33 1_555 1_555
C34 C33 1_555 1_555
C35 C34 1_555 1_555
H39 C35 1_555 1_555
C36 C31 1_555 1_555
H40 C36 1_555 1_555
C37 O14 1_555 1_555
H41 C37 1_555 1_555
H42 C37 1_555 1_555
C38 C37 1_555 1_555
C39 C38 1_555 1_555
H43 C39 1_555 1_555
C40 C39 1_555 1_555
H44 C40 1_555 1_555
C41 C40 1_555 1_555
H45 C41 1_555 1_555
C42 N4 1_555 1_555
H46 C42 1_555 1_555
C43 N4 1_555 1_555
H47 C43 1_555 1_555
H48 C43 1_555 1_555
C44 C43 1_555 1_555
S1 O17 1_555 1_555
O18 S1 1_555 1_555
O19 S1 1_555 1_555
C45 S1 1_555 1_555
F1 C45 1_555 1_555
F2 C45 1_555 1_555
F3 C45 1_555 1_555
S2 O20 1_555 1_555
O21 S2 1_555 1_555
O22 S2 1_555 1_555
C46 S2 1_555 1_555
F4 C46 1_555 1_555
F5 C46 1_555 1_555
F6 C46 1_555 1_555
S3 O23 1_555 1_555
O24 S3 1_555 1_555
O25 S3 1_555 1_555
C47 S3 1_555 1_555
F7 C47 1_555 1_555
F8 C47 1_555 1_555
F9 C47 1_555 1_555
O26 H49 1_555 1_555
H50 O26 1_555 1_555
O9A La1 1_555 1_555
O15C La1 1_555 1_555
La1A O9 1_555 1_555
La1C O15 1_555 1_555
C6 C7 1_555 1_555
C13 C14 1_555 1_555
C19 C20 1_555 1_555
C28 C29 1_555 1_555
C35 C36 1_555 1_555
C41 C42 1_555 1_555

#END
