
#######################################################################
#
#                 Cambridge Crystallographic Data Centre
#                                CCDC 
#
#######################################################################
#
# If this CIF has been generated from an entry in the Cambridge 
# Structural Database, then it will include bibliographic, chemical, 
# crystal, experimental, refinement or atomic coordinate data resulting 
# from the CCDC's data processing and validation procedures.
#
#######################################################################

data_BECSIM
_symmetry_cell_setting           orthorhombic
_symmetry_space_group_name_H-M   'P c c n'
_symmetry_Int_Tables_number      56
_space_group_name_Hall           '-P 2ab 2ac'
loop_
_symmetry_equiv_pos_site_id
_symmetry_equiv_pos_as_xyz
1 x,y,z
2 1/2+x,1/2+y,-z
3 x,1/2-y,1/2+z
4 1/2-x,y,1/2+z
5 -x,-y,-z
6 1/2-x,1/2-y,z
7 -x,1/2+y,1/2-z
8 1/2+x,-y,1/2-z
_cell_length_a                   19.3603(19)
_cell_length_b                   8.4115(8)
_cell_length_c                   17.4009(17)
_cell_angle_alpha                90
_cell_angle_beta                 90
_cell_angle_gamma                90
_cell_volume                     2833.72
loop_
_atom_site_label
_atom_site_type_symbol
_atom_site_fract_x
_atom_site_fract_y
_atom_site_fract_z
La1 La 0.2500 0.7500 0.236578(13)
O1 O 0.37618(16) 0.4201(3) 0.29393(14)
O2 O 0.32398(12) 0.5291(3) 0.19254(13)
O3 O 0.44979(14) 0.6929(3) -0.00403(13)
N1 N 0.39286(11) 0.3380(3) 0.09239(13)
C1 C 0.36791(18) 0.4414(4) 0.22464(17)
C2 C 0.41789(15) 0.3511(3) 0.17227(17)
H1 H 0.4621 0.4051 0.1723
H2 H 0.4250 0.2452 0.1928
C3 C 0.40049(13) 0.4578(3) 0.04104(17)
C4 C 0.37352(16) 0.4386(4) -0.03226(18)
H3 H 0.3777 0.5204 -0.0679
C5 C 0.34079(18) 0.3001(5) -0.0529(2)
H4 H 0.3235 0.2867 -0.1023
C6 C 0.33401(18) 0.1799(5) 0.0019(2)
H5 H 0.3120 0.0851 -0.0106
C7 C 0.35961(16) 0.2023(4) 0.0731(2)
H6 H 0.3543 0.1227 0.1098
C8 C 0.43831(15) 0.6065(3) 0.06422(16)
H7 H 0.4108 0.6683 0.0999
H8 H 0.4819 0.5800 0.0886
C9 C 0.47468(17) 0.8469(4) 0.00166(19)
C10 C 0.47358(15) 0.9328(3) -0.06625(16)
H9 H 0.4559 0.8867 -0.1107
C11 C 0.50118(15) 0.9126(3) 0.06835(17)
H10 H 0.5021 0.8543 0.1138
N2 N 0.11616(15) 0.5583(4) 0.26674(16)
O4 O 0.16453(16) 0.5049(4) 0.22877(18)
O5 O 0.12449(17) 0.6947(4) 0.2938(3)
O6 O 0.06477(14) 0.4790(3) 0.28113(19)
O7 O 0.27282(16) 0.5762(3) 0.35440(14)
H11 H 0.3195 0.5371 0.3462
H12 H 0.2948 0.6332 0.3916
N3 N 0.2500 0.7500 0.0580(3)
O8 O 0.29306(12) 0.8306(3) 0.09472(13)
O9 O 0.2500 0.7500 -0.0112(3)
C11D C 0.49882(15) 1.0874(3) -0.06835(17)
C9D C 0.52532(17) 1.1531(4) -0.00166(19)
O3D O 0.55021(14) 1.3071(3) 0.00403(13)
C8D C 0.56169(15) 1.3935(3) -0.06422(16)
C3D C 0.59951(13) 1.5422(3) -0.04104(17)
N1D N 0.60714(11) 1.6620(3) -0.09239(13)
C2D C 0.58211(15) 1.6489(3) -0.17227(17)
C1D C 0.63209(18) 1.5586(4) -0.22464(17)
O1D O 0.62382(16) 1.5799(3) -0.29393(14)
O2D O 0.67602(12) 1.4709(3) -0.19254(13)
H1D H 0.5379 1.5949 -0.1723
H2D H 0.5750 1.7548 -0.1928
C7D C 0.64039(16) 1.7977(4) -0.0731(2)
C6D C 0.66599(18) 1.8201(5) -0.0019(2)
C5D C 0.65921(18) 1.6999(5) 0.0529(2)
C4D C 0.62648(16) 1.5614(4) 0.03226(18)
H3D H 0.6223 1.4796 0.0679
H4D H 0.6765 1.7133 0.1023
H5D H 0.6880 1.9149 0.0106
H6D H 0.6457 1.8773 -0.1098
H7D H 0.5892 1.3317 -0.0999
H8D H 0.5181 1.4200 -0.0886
C10D C 0.52642(15) 1.0672(3) 0.06625(16)
H9D H 0.5441 1.1133 0.1107
H10D H 0.4979 1.1457 -0.1138
O8E O 0.20694(12) 0.6694(3) 0.09472(13)
N2E N 0.38384(15) 0.9417(4) 0.26674(16)
O4E O 0.33547(16) 0.9951(4) 0.22877(18)
O5E O 0.37551(17) 0.8053(4) 0.2938(3)
O6E O 0.43523(14) 1.0210(3) 0.28113(19)
O7E O 0.22718(16) 0.9238(3) 0.35440(14)
H11E H 0.1805 0.9629 0.3462
H12E H 0.2052 0.8668 0.3916
O2E O 0.17602(12) 0.9709(3) 0.19254(13)
La1A La 0.7500 1.2500 -0.236578(13)
loop_
_geom_bond_atom_site_label_1
_geom_bond_atom_site_label_2
_geom_bond_site_symmetry_1
_geom_bond_site_symmetry_2
La1 O2 1_555 1_555
O1 C1 1_555 1_555
O2 C1 1_555 1_555
O3 C8 1_555 1_555
N1 C2 1_555 1_555
C1 C2 1_555 1_555
C2 H1 1_555 1_555
H2 C2 1_555 1_555
C3 N1 1_555 1_555
C4 C3 1_555 1_555
H3 C4 1_555 1_555
C5 C4 1_555 1_555
H4 C5 1_555 1_555
C6 C5 1_555 1_555
H5 C6 1_555 1_555
C7 N1 1_555 1_555
H6 C7 1_555 1_555
C8 C3 1_555 1_555
H7 C8 1_555 1_555
H8 C8 1_555 1_555
C9 O3 1_555 1_555
C10 C9 1_555 1_555
H9 C10 1_555 1_555
C11 C9 1_555 1_555
H10 C11 1_555 1_555
N2 O4 1_555 1_555
O4 La1 1_555 1_555
O5 La1 1_555 1_555
O6 N2 1_555 1_555
O7 La1 1_555 1_555
H11 O7 1_555 1_555
H12 O7 1_555 1_555
N3 O8 1_555 1_555
O8 La1 1_555 1_555
O9 N3 1_555 1_555
C11D C10 1_555 1_555
C9D C11D 1_555 1_555
O3D C9D 1_555 1_555
C8D O3D 1_555 1_555
C3D C8D 1_555 1_555
N1D C3D 1_555 1_555
C2D N1D 1_555 1_555
C1D C2D 1_555 1_555
O1D C1D 1_555 1_555
O2D C1D 1_555 1_555
H1D C2D 1_555 1_555
H2D C2D 1_555 1_555
C7D N1D 1_555 1_555
C6D C7D 1_555 1_555
C5D C6D 1_555 1_555
C4D C3D 1_555 1_555
H3D C4D 1_555 1_555
H4D C5D 1_555 1_555
H5D C6D 1_555 1_555
H6D C7D 1_555 1_555
H7D C8D 1_555 1_555
H8D C8D 1_555 1_555
C10D C11 1_555 1_555
H9D C10D 1_555 1_555
H10D C11D 1_555 1_555
O8E La1 1_555 1_555
N2E O4E 1_555 1_555
O4E La1 1_555 1_555
O5E La1 1_555 1_555
O6E N2E 1_555 1_555
O7E La1 1_555 1_555
H11E O7E 1_555 1_555
H12E O7E 1_555 1_555
O2E La1 1_555 1_555
La1A O2D 1_555 1_555
C6 C7 1_555 1_555
N2 O5 1_555 1_555
N3 O8E 1_555 1_555
C9D C10D 1_555 1_555
C5D C4D 1_555 1_555
N2E O5E 1_555 1_555

#END
