
#######################################################################
#
#                 Cambridge Crystallographic Data Centre
#                                CCDC 
#
#######################################################################
#
# If this CIF has been generated from an entry in the Cambridge 
# Structural Database, then it will include bibliographic, chemical, 
# crystal, experimental, refinement or atomic coordinate data resulting 
# from the CCDC's data processing and validation procedures.
#
#######################################################################

data_BECSEI
_symmetry_cell_setting           monoclinic
_symmetry_space_group_name_H-M   'P 21/c'
_symmetry_Int_Tables_number      14
_space_group_name_Hall           '-P 2ybc'
loop_
_symmetry_equiv_pos_site_id
_symmetry_equiv_pos_as_xyz
1 x,y,z
2 x,1/2-y,1/2+z
3 -x,-y,-z
4 -x,1/2+y,1/2-z
_cell_length_a                   13.248(2)
_cell_length_b                   19.361(3)
_cell_length_c                   28.408(5)
_cell_angle_alpha                90
_cell_angle_beta                 102.764(4)
_cell_angle_gamma                90
_cell_volume                     7106.44
loop_
_atom_site_label
_atom_site_type_symbol
_atom_site_fract_x
_atom_site_fract_y
_atom_site_fract_z
La1 La 0.46745(2) -0.140517(15) 0.689839(10)
La2 La -0.01206(2) 0.364000(16) 0.716866(11)
O1 O 0.3187(3) -0.1776(2) 0.61596(14)
O2 O 0.2615(3) -0.1489(2) 0.68135(14)
O3 O 0.1350(3) -0.0179(2) 0.50995(14)
O4 O 0.1452(3) 0.2664(2) 0.52486(14)
O5 O 0.1952(3) 0.3692(2) 0.70917(15)
O6 O 0.0759(3) 0.4142(2) 0.65069(15)
N1 N 0.1233(3) -0.1877(2) 0.56017(17)
N2 N 0.2046(3) 0.4269(2) 0.58847(17)
C1 C 0.2480(4) -0.1666(3) 0.6377(2)
C2 C 0.1342(4) -0.1753(3) 0.6119(2)
H1 H 0.1046 -0.2138 0.6260
H2 H 0.0962 -0.1339 0.6165
C3 C 0.1280(4) -0.1346(3) 0.5292(2)
C4 C 0.1166(5) -0.1482(3) 0.4807(2)
H3 H 0.1188 -0.1122 0.4593
C5 C 0.1016(5) -0.2160(4) 0.4637(3)
H4 H 0.0940 -0.2255 0.4310
C6 C 0.0982(5) -0.2690(3) 0.4964(3)
H5 H 0.0882 -0.3144 0.4857
C7 C 0.1096(4) -0.2540(3) 0.5444(3)
H6 H 0.1079 -0.2894 0.5664
C8 C 0.1446(4) -0.0627(3) 0.5497(2)
H7 H 0.0932 -0.0518 0.5681
H8 H 0.2128 -0.0585 0.5707
C9 C 0.1380(4) 0.0528(3) 0.5190(2)
C10 C 0.1177(4) 0.0933(3) 0.47745(19)
H9 H 0.1017 0.0725 0.4472
C11 C 0.1214(4) 0.1641(3) 0.4811(2)
H10 H 0.1076 0.1911 0.4534
C12 C 0.1458(4) 0.1951(3) 0.5263(2)
C13 C 0.1648(4) 0.1553(3) 0.5676(2)
H11 H 0.1798 0.1764 0.5978
C14 C 0.1613(4) 0.0837(3) 0.5640(2)
H12 H 0.1746 0.0566 0.5917
C15 C 0.1748(4) 0.3037(3) 0.5678(2)
H13 H 0.2446 0.2914 0.5844
H14 H 0.1284 0.2941 0.5891
C16 C 0.1694(4) 0.3786(3) 0.5538(2)
C17 C 0.1289(4) 0.4008(3) 0.5073(2)
H15 H 0.1047 0.3686 0.4832
C18 C 0.1238(5) 0.4707(4) 0.4962(3)
H16 H 0.0973 0.4857 0.4648
C19 C 0.1592(5) 0.5176(3) 0.5332(3)
H17 H 0.1556 0.5647 0.5268
C20 C 0.1991(5) 0.4946(3) 0.5788(3)
H18 H 0.2228 0.5262 0.6034
C21 C 0.2495(4) 0.4061(3) 0.6389(2)
H19 H 0.2978 0.4413 0.6543
H20 H 0.2877 0.3634 0.6389
C22 C 0.1663(4) 0.3959(3) 0.6683(2)
O7 O 0.5347(3) -0.24417(18) 0.64621(13)
H21 H 0.5883 -0.2527 0.6744
H22 H 0.4819 -0.2776 0.6341
O8 O 0.4063(3) -0.2561(2) 0.71927(16)
H23 H 0.4263 -0.2997 0.7346
H24 H 0.3524 -0.2485 0.7364
O9 O 0.6053(3) -0.1900(2) 0.75810(14)
H25 H 0.6740 -0.1666 0.7657
H26 H 0.5915 -0.2133 0.7823
O10 O 0.5651(3) -0.0361(2) 0.73795(16)
H27 H 0.5585 -0.0242 0.7629
H28 H 0.6318 -0.0366 0.7318
O11 O 0.4004(3) -0.1103(2) 0.76516(14)
H29 H 0.3309 -0.1209 0.7675
H30 H 0.4380 -0.0954 0.7964
O12 O 0.3669(3) -0.02773(19) 0.65999(14)
H31 H 0.3204 -0.0217 0.6725
H32 H 0.3923 0.0076 0.6626
O13 O -0.1089(3) 0.4692(2) 0.67130(16)
H33 H -0.1549 0.4825 0.6808
H34 H -0.0746 0.4941 0.6577
O14 O 0.0735(4) 0.4751(2) 0.75787(17)
H35 H 0.0791 0.4862 0.7894
H36 H 0.1156 0.4902 0.7447
O15 O 0.0503(3) 0.2602(2) 0.67399(15)
H37 H 0.0083 0.2195 0.6723
H38 H 0.1185 0.2416 0.6856
O16 O 0.1256(3) 0.3300(3) 0.79021(16)
H39 H 0.1169 0.2977 0.8153
H40 H 0.1965 0.3551 0.8036
O17 O -0.0887(3) 0.3977(3) 0.78668(15)
H41 H -0.0477 0.4131 0.8135
H42 H -0.1440 0.3855 0.7878
O18 O -0.0675(4) 0.2514(2) 0.75425(19)
H43 H -0.0399 0.2321 0.7819
H44 H -0.1354 0.2585 0.7317
O19 O 0.6599(3) -0.1223(2) 0.67603(13)
O20 O 0.5340(3) -0.0907(2) 0.61528(13)
O21 O 0.6154(3) -0.24815(19) 0.50193(13)
O22 O 0.6411(3) -0.5318(2) 0.51615(14)
O23 O 0.8410(3) -0.6813(2) 0.64008(14)
O24 O 0.7808(3) -0.6444(2) 0.70318(15)
N3 N 0.6658(3) -0.0770(2) 0.55274(15)
N4 N 0.6481(3) -0.6918(2) 0.58145(16)
C23 C 0.6277(4) -0.1020(3) 0.63385(19)
C24 C 0.7088(4) -0.0896(3) 0.60451(19)
H45 H 0.7505 -0.0501 0.6179
H46 H 0.7541 -0.1295 0.6077
C25 C 0.6355(4) -0.1301(3) 0.5216(2)
C26 C 0.5981(4) -0.1168(3) 0.4733(2)
H47 H 0.5776 -0.1531 0.4519
C27 C 0.5911(5) -0.0496(3) 0.4565(2)
H48 H 0.5666 -0.0406 0.4238
C28 C 0.6203(5) 0.0036(3) 0.4882(2)
H49 H 0.6149 0.0491 0.4775
C29 C 0.6585(4) -0.0118(3) 0.5369(2)
H50 H 0.6793 0.0240 0.5587
C30 C 0.6429(4) -0.2036(3) 0.5416(2)
H51 H 0.7129 -0.2132 0.5593
H52 H 0.5963 -0.2094 0.5632
C31 C 0.6238(4) -0.3187(3) 0.51006(19)
C32 C 0.6507(5) -0.3489(3) 0.5549(2)
H53 H 0.6647 -0.3217 0.5825
C33 C 0.6568(5) -0.4211(3) 0.5585(2)
H54 H 0.6753 -0.4421 0.5887
C34 C 0.6358(4) -0.4602(3) 0.5179(2)
C35 C 0.6065(4) -0.4294(3) 0.47241(19)
H55 H 0.5907 -0.4568 0.4448
C36 C 0.6010(4) -0.3590(3) 0.4686(2)
H56 H 0.5821 -0.3382 0.4384
C37 C 0.6576(4) -0.5687(3) 0.5601(2)
H57 H 0.6059 -0.5563 0.5781
H58 H 0.7256 -0.5586 0.5799
C38 C 0.6488(4) -0.6443(3) 0.54633(19)
C39 C 0.6416(4) -0.6668(3) 0.4993(2)
H59 H 0.6416 -0.6348 0.4749
C40 C 0.6343(5) -0.7368(3) 0.4885(3)
H60 H 0.6300 -0.7520 0.4571
C41 C 0.6335(5) -0.7841(3) 0.5254(3)
H61 H 0.6282 -0.8312 0.5190
C42 C 0.6406(5) -0.7598(3) 0.5710(3)
H62 H 0.6404 -0.7912 0.5957
C43 C 0.6563(4) -0.6712(3) 0.63239(19)
H63 H 0.6209 -0.7051 0.6481
H64 H 0.6220 -0.6271 0.6333
C44 C 0.7691(4) -0.6652(3) 0.6604(2)
O23_2 O -0.1590(3) 0.3187(2) 0.64008(14)
O24_2 O -0.2192(3) 0.3556(2) 0.70318(15)
La2_2 La 0.98794(2) -0.636000(16) 0.716866(11)
Cl1 Cl 0.50303(13) -0.00501(8) 0.84554(6)
Cl2 Cl -0.01571(13) -0.00256(9) 0.63561(6)
Cl3 Cl 0.41705(12) 0.24684(8) 0.64337(5)
Cl4 Cl -0.10466(14) 0.73150(9) 0.62783(6)
Cl5 Cl -0.30454(15) 0.09294(10) 0.64144(8)
Cl6 Cl 0.20324(17) -0.35347(12) 0.65868(10)
O25 O 0.4033(4) -0.3549(2) 0.61490(17)
H65 H 0.3432 -0.3553 0.6274
H66 H 0.4222 -0.4040 0.6217
O26 O -0.2693(3) 0.5409(2) 0.69780(17)
H67 H -0.3295 0.5121 0.6944
H68 H -0.2560 0.5847 0.7137
O27 O 0.7639(3) -0.3112(2) 0.79671(18)
H69 H 0.7043 -0.2939 0.8070
H70 H 0.7543 -0.3555 0.8102
O28 O 0.7224(3) -0.3133(2) 0.68989(17)
H71 H 0.7777 -0.3042 0.6775
H72 H 0.7475 -0.3023 0.7228
O29 O 0.2149(3) 0.04298(16) 0.69807(13)
H73 H 0.2227 0.0301 0.7313
H74 H 0.1411 0.0415 0.6867
O30 O 0.4765(3) 0.09406(16) 0.66420(13)
H75 H 0.4458 0.1375 0.6526
H76 H 0.5426 0.0896 0.6559
O31 O -0.0250(4) 0.5755(3) 0.6236(2)
H77 H 0.0356 0.6008 0.6235
H78 H -0.0115 0.5889 0.6567
O32 O -0.0779(5) 0.1504(3) 0.6481(3)
H79 H -0.0898 0.1423 0.6798
H80 H -0.0730 0.1093 0.6299
O33 O 0.5270(5) -0.3734(3) 0.7378(2)
H81 H 0.5383 -0.4267 0.7187
H82 H 0.4680 -0.3826 0.7346
O34 O -0.0798(4) 0.3967(3) 0.57009(17)
H83 H -0.1118 0.3682 0.5956
H84 H -0.0261 0.3940 0.6049
O35 O 0.7490(4) 0.0402(3) 0.7508(2)
H85 H 0.7292 0.0786 0.7680
H86 H 0.7429 0.0098 0.7826
O36 O 0.0358(9) 0.1192(6) 0.7602(5)
H87 H 0.0024 0.1016 0.7326
H88 H 0.0379 0.1129 0.7962
O37 O -0.2678(10) 0.2041(8) 0.7236(7)
H89 H -0.2817 0.1691 0.7032
H90 H -0.2561 0.1923 0.7526
loop_
_geom_bond_atom_site_label_1
_geom_bond_atom_site_label_2
_geom_bond_site_symmetry_1
_geom_bond_site_symmetry_2
La1 O1 1_555 1_555
La2 O5 1_555 1_555
O1 C1 1_555 1_555
O2 La1 1_555 1_555
O3 C8 1_555 1_555
O4 C12 1_555 1_555
O5 C22 1_555 1_555
O6 La2 1_555 1_555
N1 C2 1_555 1_555
N2 C16 1_555 1_555
C1 O2 1_555 1_555
C2 C1 1_555 1_555
H1 C2 1_555 1_555
H2 C2 1_555 1_555
C3 N1 1_555 1_555
C4 C3 1_555 1_555
H3 C4 1_555 1_555
C5 C4 1_555 1_555
H4 C5 1_555 1_555
C6 C5 1_555 1_555
H5 C6 1_555 1_555
C7 N1 1_555 1_555
H6 C7 1_555 1_555
C8 C3 1_555 1_555
H7 C8 1_555 1_555
H8 C8 1_555 1_555
C9 O3 1_555 1_555
C10 C9 1_555 1_555
H9 C10 1_555 1_555
C11 C10 1_555 1_555
H10 C11 1_555 1_555
C12 C11 1_555 1_555
C13 C12 1_555 1_555
H11 C13 1_555 1_555
C14 C9 1_555 1_555
H12 C14 1_555 1_555
C15 O4 1_555 1_555
H13 C15 1_555 1_555
H14 C15 1_555 1_555
C16 C15 1_555 1_555
C17 C16 1_555 1_555
H15 C17 1_555 1_555
C18 C17 1_555 1_555
H16 C18 1_555 1_555
C19 C18 1_555 1_555
H17 C19 1_555 1_555
C20 N2 1_555 1_555
H18 C20 1_555 1_555
C21 N2 1_555 1_555
H19 C21 1_555 1_555
H20 C21 1_555 1_555
C22 O6 1_555 1_555
O7 La1 1_555 1_555
H21 O7 1_555 1_555
H22 O7 1_555 1_555
O8 La1 1_555 1_555
H23 O8 1_555 1_555
H24 O8 1_555 1_555
O9 La1 1_555 1_555
H25 O9 1_555 1_555
H26 O9 1_555 1_555
O10 La1 1_555 1_555
H27 O10 1_555 1_555
H28 O10 1_555 1_555
O11 La1 1_555 1_555
H29 O11 1_555 1_555
H30 O11 1_555 1_555
O12 La1 1_555 1_555
H31 O12 1_555 1_555
H32 O12 1_555 1_555
O13 La2 1_555 1_555
H33 O13 1_555 1_555
H34 O13 1_555 1_555
O14 La2 1_555 1_555
H35 O14 1_555 1_555
H36 O14 1_555 1_555
O15 La2 1_555 1_555
H37 O15 1_555 1_555
H38 O15 1_555 1_555
O16 La2 1_555 1_555
H39 O16 1_555 1_555
H40 O16 1_555 1_555
O17 La2 1_555 1_555
H41 O17 1_555 1_555
H42 O17 1_555 1_555
O18 La2 1_555 1_555
H43 O18 1_555 1_555
H44 O18 1_555 1_555
O19 La1 1_555 1_555
O20 La1 1_555 1_555
O21 C30 1_555 1_555
O22 C34 1_555 1_555
O23 C44 1_555 1_555
O24 C44 1_555 1_555
N3 C24 1_555 1_555
N4 C38 1_555 1_555
C23 O19 1_555 1_555
C24 C23 1_555 1_555
H45 C24 1_555 1_555
H46 C24 1_555 1_555
C25 N3 1_555 1_555
C26 C25 1_555 1_555
H47 C26 1_555 1_555
C27 C26 1_555 1_555
H48 C27 1_555 1_555
C28 C27 1_555 1_555
H49 C28 1_555 1_555
C29 N3 1_555 1_555
H50 C29 1_555 1_555
C30 C25 1_555 1_555
H51 C30 1_555 1_555
H52 C30 1_555 1_555
C31 O21 1_555 1_555
C32 C31 1_555 1_555
H53 C32 1_555 1_555
C33 C32 1_555 1_555
H54 C33 1_555 1_555
C34 C33 1_555 1_555
C35 C34 1_555 1_555
H55 C35 1_555 1_555
C36 C31 1_555 1_555
H56 C36 1_555 1_555
C37 O22 1_555 1_555
H57 C37 1_555 1_555
H58 C37 1_555 1_555
C38 C37 1_555 1_555
C39 C38 1_555 1_555
H59 C39 1_555 1_555
C40 C39 1_555 1_555
H60 C40 1_555 1_555
C41 C40 1_555 1_555
H61 C41 1_555 1_555
C42 N4 1_555 1_555
H62 C42 1_555 1_555
C43 N4 1_555 1_555
H63 C43 1_555 1_555
H64 C43 1_555 1_555
C44 C43 1_555 1_555
O25 H65 1_555 1_555
H66 O25 1_555 1_555
O26 H67 1_555 1_555
H68 O26 1_555 1_555
O27 H69 1_555 1_555
H70 O27 1_555 1_555
O28 H71 1_555 1_555
H72 O28 1_555 1_555
O29 H73 1_555 1_555
H74 O29 1_555 1_555
O30 H75 1_555 1_555
H76 O30 1_555 1_555
O31 H77 1_555 1_555
H78 O31 1_555 1_555
O32 H79 1_555 1_555
H80 O32 1_555 1_555
O33 H81 1_555 1_555
H82 O33 1_555 1_555
O34 H83 1_555 1_555
H84 O34 1_555 1_555
O35 H85 1_555 1_555
H86 O35 1_555 1_555
O36 H87 1_555 1_555
H88 O36 1_555 1_555
O37 H89 1_555 1_555
H90 O37 1_555 1_555
O23_2 La2 1_555 1_555
O24_2 La2 1_555 1_555
La2_2 O23 1_555 1_555
C6 C7 1_555 1_555
C13 C14 1_555 1_555
C19 C20 1_555 1_555
C21 C22 1_555 1_555
O20 C23 1_555 1_555
O24 La2_2 1_555 1_555
C28 C29 1_555 1_555
C35 C36 1_555 1_555
C41 C42 1_555 1_555

#END
