
#######################################################################
#
#                 Cambridge Crystallographic Data Centre
#                                CCDC 
#
#######################################################################
#
# If this CIF has been generated from an entry in the Cambridge 
# Structural Database, then it will include bibliographic, chemical, 
# crystal, experimental, refinement or atomic coordinate data resulting 
# from the CCDC's data processing and validation procedures.
#
#######################################################################

data_BECTUA
_symmetry_cell_setting           triclinic
_symmetry_space_group_name_H-M   'P 1'
_symmetry_Int_Tables_number      1
_space_group_name_Hall           'P 1'
loop_
_symmetry_equiv_pos_site_id
_symmetry_equiv_pos_as_xyz
1 x,y,z
_cell_length_a                   7.2860(15)
_cell_length_b                   11.246(2)
_cell_length_c                   11.462(2)
_cell_angle_alpha                72.21(3)
_cell_angle_beta                 73.57(3)
_cell_angle_gamma                83.50(3)
_cell_volume                     857.383
loop_
_atom_site_label
_atom_site_type_symbol
_atom_site_fract_x
_atom_site_fract_y
_atom_site_fract_z
Co1 Co 0.00000(9) 0.50000(6) 0.24567(5)
S1 S 0.44606(17) 0.40461(11) 0.20092(11)
O1 O 0.4814(5) 0.5366(3) 0.1842(4)
O2 O 0.5603(6) 0.3684(4) 0.0896(3)
O3 O 0.4979(5) 0.3232(4) 0.3148(3)
O4 O 0.2432(5) 0.3919(4) 0.2152(4)
N3 N 0.0172(6) 0.4964(4) 0.4323(3)
N4 N -0.0110(6) 0.5045(4) 1.0566(3)
C11 C 0.0450(8) 0.3922(5) 0.5203(5)
H9 H 0.0688 0.3178 0.4982
C12 C 0.0405(9) 0.3886(5) 0.6426(5)
H10 H 0.0600 0.3128 0.7003
C13 C 0.0069(7) 0.4977(5) 0.6802(4)
C14 C -0.0193(8) 0.6061(5) 0.5870(5)
H11 H -0.0397 0.6824 0.6053
C15 C -0.0150(8) 0.6011(5) 0.4670(4)
H12 H -0.0359 0.6751 0.4074
C16 C -0.0361(8) 0.6078(5) 0.9662(5)
H13 H -0.0593 0.6829 0.9869
C17 C -0.0300(9) 0.6102(5) 0.8453(5)
H14 H -0.0459 0.6856 0.7860
C18 C 0.0000(8) 0.4996(5) 0.8109(4)
C19 C 0.0241(9) 0.3922(5) 0.9038(4)
H15 H 0.0447 0.3158 0.8857
C20 C 0.0178(8) 0.3972(5) 1.0234(5)
H16 H 0.0342 0.3231 1.0843
O15 O -0.1445(5) 0.3340(3) 0.3216(3)
H21 H -0.0932 0.2688 0.3552
H22 H -0.2527 0.3208 0.3212
O16 O 0.1576(5) 0.6711(3) 0.1778(3)
H23 H 0.1410 0.7295 0.1177
H24 H 0.2692 0.6452 0.1634
O17 O -0.2586(5) 0.6059(4) 0.2704(4)
H25 H -0.2758 0.6736 0.2855
H26 H -0.3403 0.5949 0.2384
Co1_2 Co 0.00000(9) 0.50000(6) 1.24567(5)
N4_2 N -0.0110(6) 0.5045(4) 0.0566(3)
Co2 Co 0.50218(10) 0.00192(7) 0.71794(6)
S2 S 0.91175(17) -0.00961(11) 0.49236(11)
S3 S 0.09428(17) -0.00163(11) 0.95204(10)
O5 O 0.9806(6) -0.0842(4) 0.6012(4)
O6 O 0.9383(6) -0.0833(4) 0.4029(4)
O7 O 1.0165(6) 0.1052(4) 0.4298(4)
O8 O 0.7035(5) 0.0226(3) 0.5345(3)
O9 O 0.0684(5) 0.0797(4) 1.0351(4)
O10 O 0.0129(5) 0.0626(4) 0.8446(3)
O11 O -0.0041(6) -0.1192(4) 1.0245(4)
O12 O 0.3017(5) -0.0303(3) 0.9057(3)
N1 N 0.4733(7) -0.1847(4) 0.7266(4)
N2 N 0.5282(6) -0.8141(4) 0.7158(4)
C1 C 0.4927(9) -0.2789(5) 0.8260(5)
H1 H 0.4982 -0.2608 0.8989
C2 C 0.5052(9) -0.4024(5) 0.8266(5)
H2 H 0.5211 -0.4650 0.8982
C3 C 0.4942(8) -0.4330(5) 0.7214(5)
C4 C 0.4620(9) -0.3350(5) 0.6200(5)
H3 H 0.4451 -0.3510 0.5487
C5 C 0.4553(9) -0.2141(5) 0.6261(5)
H4 H 0.4373 -0.1495 0.5565
C6 C 0.5253(9) -0.7837(5) 0.8203(5)
H5 H 0.5307 -0.8477 0.8933
C7 C 0.5148(10) -0.6624(5) 0.8251(5)
H6 H 0.5094 -0.6461 0.9008
C8 C 0.5121(8) -0.5645(5) 0.7174(5)
C9 C 0.5234(9) -0.5960(5) 0.6075(5)
H7 H 0.5278 -0.5338 0.5316
C10 C 0.5280(8) -0.7203(5) 0.6116(4)
H8 H 0.5310 -0.7395 0.5377
O13 O 0.2806(5) 0.0689(4) 0.6283(3)
H17 H 0.1875 0.0656 0.6889
H18 H 0.2561 0.0450 0.5741
O14 O 0.7302(5) -0.0594(3) 0.8092(3)
H19 H 0.8167 -0.0836 0.7575
H20 H 0.7691 -0.0072 0.8319
Co2_2 Co 0.50218(10) -0.99808(7) 0.71794(6)
N2_2 N 0.5282(6) 0.1859(4) 0.7158(4)
Co3 Co 0.50690(11) -0.00978(7) 0.21887(7)
O18 O 0.7459(5) -0.1278(3) 0.2532(3)
H27 H 0.7903 -0.1147 0.3063
H28 H 0.8278 -0.1200 0.1857
O19 O 0.2731(6) 0.1037(4) 0.1880(4)
H29 H 0.2068 0.1353 0.2422
H30 H 0.2179 0.1078 0.1336
O20 O 0.4817(6) 0.0654(4) 0.3679(3)
H31 H 0.4329 0.1360 0.3540
H32 H 0.5408 0.0537 0.4218
O21 O 0.6757(6) 0.1339(4) 0.0936(4)
H33 H 0.6366 0.1995 0.1106
H34 H 0.7928 0.1280 0.0789
O22 O 0.5297(6) -0.1009(4) 0.0751(3)
H35 H 0.4576 -0.0831 0.0284
H36 H 0.6420 -0.0954 0.0338
O23 O 0.3219(6) -0.1573(4) 0.3334(4)
H37 H 0.2131 -0.1264 0.3443
H38 H 0.3342 -0.2084 0.2935
loop_
_geom_bond_atom_site_label_1
_geom_bond_atom_site_label_2
_geom_bond_site_symmetry_1
_geom_bond_site_symmetry_2
Co1 O4 1_555 1_555
Co2 O8 1_555 1_555
Co3 O18 1_555 1_555
S1 O1 1_555 1_555
S2 O5 1_555 1_555
S3 O9 1_555 1_555
O2 S1 1_555 1_555
O3 S1 1_555 1_555
O4 S1 1_555 1_555
O6 S2 1_555 1_555
O7 S2 1_555 1_555
O8 S2 1_555 1_555
O10 S3 1_555 1_555
O11 S3 1_555 1_555
O12 Co2 1_555 1_555
N1 Co2 1_555 1_555
N2 C6 1_555 1_555
N3 Co1 1_555 1_555
N4 C16 1_555 1_555
C1 N1 1_555 1_555
H1 C1 1_555 1_555
C2 C1 1_555 1_555
H2 C2 1_555 1_555
C3 C2 1_555 1_555
C4 C3 1_555 1_555
H3 C4 1_555 1_555
C5 N1 1_555 1_555
H4 C5 1_555 1_555
C6 H5 1_555 1_555
C7 C6 1_555 1_555
H6 C7 1_555 1_555
C8 C3 1_555 1_555
C9 C8 1_555 1_555
H7 C9 1_555 1_555
C10 N2 1_555 1_555
H8 C10 1_555 1_555
C11 N3 1_555 1_555
H9 C11 1_555 1_555
C12 C11 1_555 1_555
H10 C12 1_555 1_555
C13 C12 1_555 1_555
C14 C13 1_555 1_555
H11 C14 1_555 1_555
C15 N3 1_555 1_555
H12 C15 1_555 1_555
C16 H13 1_555 1_555
C17 C16 1_555 1_555
H14 C17 1_555 1_555
C18 C13 1_555 1_555
C19 C18 1_555 1_555
H15 C19 1_555 1_555
C20 N4 1_555 1_555
H16 C20 1_555 1_555
O13 Co2 1_555 1_555
H17 O13 1_555 1_555
H18 O13 1_555 1_555
O14 Co2 1_555 1_555
H19 O14 1_555 1_555
H20 O14 1_555 1_555
O15 Co1 1_555 1_555
H21 O15 1_555 1_555
H22 O15 1_555 1_555
O16 Co1 1_555 1_555
H23 O16 1_555 1_555
H24 O16 1_555 1_555
O17 Co1 1_555 1_555
H25 O17 1_555 1_555
H26 O17 1_555 1_555
O18 H27 1_555 1_555
H28 O18 1_555 1_555
O19 Co3 1_555 1_555
H29 O19 1_555 1_555
H30 O19 1_555 1_555
O20 Co3 1_555 1_555
H31 O20 1_555 1_555
H32 O20 1_555 1_555
O21 Co3 1_555 1_555
H33 O21 1_555 1_555
H34 O21 1_555 1_555
O22 Co3 1_555 1_555
H35 O22 1_555 1_555
H36 O22 1_555 1_555
O23 Co3 1_555 1_555
H37 O23 1_555 1_555
H38 O23 1_555 1_555
Co1_2 N4 1_555 1_555
Co2_2 N2 1_555 1_555
N2_2 Co2 1_555 1_555
N4_2 Co1 1_555 1_555
S3 O12 1_555 1_555
C4 C5 1_555 1_555
C7 C8 1_555 1_555
C9 C10 1_555 1_555
C14 C15 1_555 1_555
C17 C18 1_555 1_555
C19 C20 1_555 1_555

#END
