
#######################################################################
#
#                 Cambridge Crystallographic Data Centre
#                                CCDC 
#
#######################################################################
#
# If this CIF has been generated from an entry in the Cambridge 
# Structural Database, then it will include bibliographic, chemical, 
# crystal, experimental, refinement or atomic coordinate data resulting 
# from the CCDC's data processing and validation procedures.
#
#######################################################################

data_BECTAF
_symmetry_cell_setting           triclinic
_symmetry_space_group_name_H-M   'P -1'
_symmetry_Int_Tables_number      2
_space_group_name_Hall           '-P 1'
loop_
_symmetry_equiv_pos_site_id
_symmetry_equiv_pos_as_xyz
1 x,y,z
2 -x,-y,-z
_cell_length_a                   8.0383(11)
_cell_length_b                   11.1684(14)
_cell_length_c                   13.0732(17)
_cell_angle_alpha                68.858(3)
_cell_angle_beta                 74.260(2)
_cell_angle_gamma                81.907(2)
_cell_volume                     1052.39
loop_
_atom_site_label
_atom_site_type_symbol
_atom_site_fract_x
_atom_site_fract_y
_atom_site_fract_z
La1 La 0.19479(3) 0.32812(2) 0.47260(2)
O1 O 0.2132(5) 0.4983(4) 0.2761(3)
O2 O 0.0229(5) 0.5854(4) 0.3883(3)
O3 O 0.7062(5) 0.8845(5) 0.0175(4)
N1 N 0.2598(6) 0.7150(5) 0.0974(4)
C1 C 0.1232(6) 0.5905(5) 0.2950(4)
C2 C 0.1319(7) 0.7210(5) 0.2002(5)
H1 H 0.0190 0.7464 0.1837
H2 H 0.1632 0.7853 0.2246
C3 C 0.4139(7) 0.7662(5) 0.0703(5)
H3 H 0.4367 0.8073 0.1151
C4 C 0.5377(8) 0.7583(6) -0.0228(5)
C5 C 0.4998(10) 0.6957(8) -0.0877(6)
H4 H 0.5818 0.6898 -0.1516
C6 C 0.3426(10) 0.6427(8) -0.0585(6)
H5 H 0.3183 0.5999 -0.1016
C7 C 0.2204(9) 0.6532(7) 0.0358(5)
H6 H 0.1128 0.6184 0.0565
C8 C 0.7110(8) 0.8150(7) -0.0535(6)
H7 H 0.8011 0.7471 -0.0446
H8 H 0.7361 0.8714 -0.1317
C9 C 0.8572(8) 0.9398(6) 0.0066(5)
C10 C 0.8508(8) 0.9997(6) 0.0829(6)
H9 H 0.7499 1.0000 0.1383
C11 C 1.0071(7) 0.9407(6) -0.0775(5)
H10 H 1.0111 0.9012 -0.1298
O4 O -0.1012(5) 0.3432(4) 0.4174(4)
H11 H -0.0929 0.4014 0.3415
H12 H -0.1511 0.2731 0.4121
O5 O 0.3833(5) 0.1144(4) 0.5226(4)
H13 H 0.4683 0.1235 0.5458
H14 H 0.3150 0.0605 0.5746
O6 O 0.5059(5) 0.3371(4) 0.3565(4)
H15 H 0.5546 0.4041 0.3109
H16 H 0.5640 0.2870 0.3446
O7 O 0.3461(5) 0.5327(4) 0.4551(4)
H17 H 0.2791 0.5904 0.4790
H18 H 0.4460 0.5121 0.4835
O8 O 0.2066(5) 0.1898(4) 0.3455(4)
H19 H 0.2713 0.2240 0.2803
H20 H 0.1057 0.1865 0.3379
O9 O 0.0059(5) 0.1421(4) 0.6002(4)
H21 H -0.1071 0.1499 0.6015
H22 H 0.0458 0.0747 0.6273
O10 O 0.3099(7) 0.2853(5) 0.6478(4)
H23 H 0.3870 0.2791 0.6521
H24 H 0.2588 0.3420 0.6979
C11A C 0.9929(7) 1.0593(6) 0.0775(5)
C9A C 1.1428(8) 1.0602(6) -0.0066(5)
O3A O 1.2938(5) 1.1155(5) -0.0175(4)
C8A C 1.2890(8) 1.1850(7) 0.0535(6)
C4A C 1.4623(8) 1.2417(6) 0.0228(5)
C3A C 1.5861(7) 1.2338(5) -0.0703(5)
N1A N 1.7402(6) 1.2850(5) -0.0974(4)
C2A C 1.8681(7) 1.2790(5) -0.2002(5)
C1A C 1.8768(6) 1.4095(5) -0.2950(4)
O1A O 1.7868(5) 1.5017(4) -0.2761(3)
O2A O 1.9771(5) 1.4146(4) -0.3883(3)
H1A H 1.9810 1.2536 -0.1837
H2A H 1.8368 1.2147 -0.2246
C7A C 1.7796(9) 1.3468(7) -0.0358(5)
C6A C 1.6574(10) 1.3573(8) 0.0585(6)
C5A C 1.5002(10) 1.3043(8) 0.0877(6)
H4A H 1.4182 1.3102 0.1516
H5A H 1.6817 1.4001 0.1016
H6A H 1.8872 1.3816 -0.0565
H3A H 1.5633 1.1927 -0.1151
H7A H 1.1989 1.2529 0.0446
H8A H 1.2639 1.1286 0.1317
C10A C 1.1492(8) 1.0003(6) -0.0829(6)
H9A H 1.2501 1.0000 -0.1383
H10A H 0.9889 1.0988 0.1298
La1A La 1.80521(3) 1.67188(2) -0.47260(2)
O4A O 2.1012(5) 1.6568(4) -0.4174(4)
H11A H 2.0929 1.5986 -0.3415
H12A H 2.1511 1.7269 -0.4121
O5A O 1.6167(5) 1.8856(4) -0.5226(4)
H13A H 1.5317 1.8765 -0.5458
H14A H 1.6850 1.9395 -0.5746
O6A O 1.4941(5) 1.6629(4) -0.3565(4)
H15A H 1.4454 1.5959 -0.3109
H16A H 1.4360 1.7130 -0.3446
O7A O 1.6539(5) 1.4673(4) -0.4551(4)
H17A H 1.7209 1.4096 -0.4790
H18A H 1.5540 1.4879 -0.4835
O8A O 1.7934(5) 1.8102(4) -0.3455(4)
H19A H 1.7287 1.7760 -0.2803
H20A H 1.8943 1.8135 -0.3379
O9A O 1.9941(5) 1.8579(4) -0.6002(4)
H21A H 2.1071 1.8501 -0.6015
H22A H 1.9542 1.9253 -0.6273
O10A O 1.6901(7) 1.7147(5) -0.6478(4)
H23A H 1.6130 1.7209 -0.6521
H24A H 1.7412 1.6580 -0.6979
O2A_2 O -0.0229(5) 0.4146(4) 0.6117(3)
La1A_2 La -0.19479(3) 0.67188(2) 0.52740(2)
La1_2 La 2.19479(3) 1.32812(2) -0.52740(2)
O2_2 O 2.0229(5) 1.5854(4) -0.6117(3)
Cl1 Cl 0.82527(19) 1.13541(14) 0.33586(15)
Cl2 Cl -0.3799(2) 0.08265(18) 0.69071(16)
Cl3 Cl 0.7795(2) 0.54509(15) 0.20337(14)
loop_
_geom_bond_atom_site_label_1
_geom_bond_atom_site_label_2
_geom_bond_site_symmetry_1
_geom_bond_site_symmetry_2
La1 O1 1_555 1_555
O1 C1 1_555 1_555
O2 C1 1_555 1_555
O3 C8 1_555 1_555
N1 C2 1_555 1_555
C1 C2 1_555 1_555
C2 H1 1_555 1_555
H2 C2 1_555 1_555
C3 N1 1_555 1_555
H3 C3 1_555 1_555
C4 C3 1_555 1_555
C5 C4 1_555 1_555
H4 C5 1_555 1_555
C6 C5 1_555 1_555
H5 C6 1_555 1_555
C7 N1 1_555 1_555
H6 C7 1_555 1_555
C8 C4 1_555 1_555
H7 C8 1_555 1_555
H8 C8 1_555 1_555
C9 O3 1_555 1_555
C10 C9 1_555 1_555
H9 C10 1_555 1_555
C11 C9 1_555 1_555
H10 C11 1_555 1_555
O4 La1 1_555 1_555
H11 O4 1_555 1_555
H12 O4 1_555 1_555
O5 La1 1_555 1_555
H13 O5 1_555 1_555
H14 O5 1_555 1_555
O6 La1 1_555 1_555
H15 O6 1_555 1_555
H16 O6 1_555 1_555
O7 La1 1_555 1_555
H17 O7 1_555 1_555
H18 O7 1_555 1_555
O8 La1 1_555 1_555
H19 O8 1_555 1_555
H20 O8 1_555 1_555
O9 La1 1_555 1_555
H21 O9 1_555 1_555
H22 O9 1_555 1_555
O10 La1 1_555 1_555
H23 O10 1_555 1_555
H24 O10 1_555 1_555
C11A C10 1_555 1_555
C9A C11A 1_555 1_555
O3A C9A 1_555 1_555
C8A O3A 1_555 1_555
C4A C8A 1_555 1_555
C3A C4A 1_555 1_555
N1A C3A 1_555 1_555
C2A N1A 1_555 1_555
C1A C2A 1_555 1_555
O1A C1A 1_555 1_555
O2A C1A 1_555 1_555
H1A C2A 1_555 1_555
H2A C2A 1_555 1_555
C7A N1A 1_555 1_555
C6A C7A 1_555 1_555
C5A C4A 1_555 1_555
H4A C5A 1_555 1_555
H5A C6A 1_555 1_555
H6A C7A 1_555 1_555
H3A C3A 1_555 1_555
H7A C8A 1_555 1_555
H8A C8A 1_555 1_555
C10A C11 1_555 1_555
H9A C10A 1_555 1_555
H10A C11A 1_555 1_555
La1A O1A 1_555 1_555
O4A La1A 1_555 1_555
H11A O4A 1_555 1_555
H12A O4A 1_555 1_555
O5A La1A 1_555 1_555
H13A O5A 1_555 1_555
H14A O5A 1_555 1_555
O6A La1A 1_555 1_555
H15A O6A 1_555 1_555
H16A O6A 1_555 1_555
O7A La1A 1_555 1_555
H17A O7A 1_555 1_555
H18A O7A 1_555 1_555
O8A La1A 1_555 1_555
H19A O8A 1_555 1_555
H20A O8A 1_555 1_555
O9A La1A 1_555 1_555
H21A O9A 1_555 1_555
H22A O9A 1_555 1_555
O10A La1A 1_555 1_555
H23A O10A 1_555 1_555
H24A O10A 1_555 1_555
O2A_2 La1 1_555 1_555
La1A_2 O2 1_555 1_555
La1_2 O2A 1_555 1_555
O2_2 La1A 1_555 1_555
C6 C7 1_555 1_555
C9A C10A 1_555 1_555
C6A C5A 1_555 1_555

#END
