
#######################################################################
#
#                 Cambridge Crystallographic Data Centre
#                                CCDC 
#
#######################################################################
#
# If this CIF has been generated from an entry in the Cambridge 
# Structural Database, then it will include bibliographic, chemical, 
# crystal, experimental, refinement or atomic coordinate data resulting 
# from the CCDC's data processing and validation procedures.
#
#######################################################################

data_BEDHOJ
_symmetry_cell_setting           tetragonal
_symmetry_space_group_name_H-M   'P 43 21 2'
_symmetry_Int_Tables_number      96
_space_group_name_Hall           'P 4nw 2abw'
loop_
_symmetry_equiv_pos_site_id
_symmetry_equiv_pos_as_xyz
1 x,y,z
2 -x,-y,1/2+z
3 1/2-y,1/2+x,3/4+z
4 1/2+y,1/2-x,1/4+z
5 1/2-x,1/2+y,3/4-z
6 1/2+x,1/2-y,1/4-z
7 y,x,-z
8 -y,-x,1/2-z
_cell_length_a                   15.3384(8)
_cell_length_b                   15.3384(8)
_cell_length_c                   8.1822(10)
_cell_angle_alpha                90
_cell_angle_beta                 90
_cell_angle_gamma                90
_cell_volume                     1925
loop_
_atom_site_label
_atom_site_type_symbol
_atom_site_fract_x
_atom_site_fract_y
_atom_site_fract_z
Ni1 Ni 0.74014(6) 0.74014(6) 0.0000
O1 O 0.7376(8) 0.6036(5) 0.0551(8)
O2 O 0.7455(5) 0.6995(4) 0.2450(9)
N1 N 0.7645(6) 0.3758(5) 0.7034(8)
C1 C 0.7379(7) 0.6121(10) 0.2128(13)
C2 C 0.7489(9) 0.4187(7) 0.5660(12)
C3 C 0.7411(7) 0.5556(7) 0.3341(10)
C4 C 0.7497(8) 0.5720(9) 0.4934(12)
H1 H 0.7535 0.6299 0.5261
C5 C 0.7386(11) 0.4628(9) 0.2901(11)
H2 H 0.7324 0.4469 0.1811
C6 C 0.7451(12) 0.4002(9) 0.4060(12)
H3 H 0.7471 0.3421 0.3734
N2 N 0.7650(10) 0.5076(8) 0.7759(12)
H4 H 0.7670 0.5520 0.8399
C7 C 0.7529(8) 0.5123(9) 0.6054(12)
C8 C 0.7726(10) 0.4262(10) 0.8239(14)
H5 H 0.7826 0.4084 0.9309
Ni1B Ni 0.75986(6) 0.24014(6) 0.7500
Ni1C Ni 0.24014(6) 0.75986(6) -0.7500
O1F O 0.6036(5) 0.7376(8) -0.0551(8)
O2F O 0.6995(4) 0.7455(5) -0.2450(9)
N1F N 0.3758(5) 0.7645(6) -0.7034(8)
N1C N 0.8758(5) 0.7355(6) -0.0466(8)
N1D N 0.7355(6) 0.8758(5) 0.0466(8)
C1F C 0.6121(10) 0.7379(7) -0.2128(13)
C2F C 0.4187(7) 0.7489(9) -0.5660(12)
C3F C 0.5556(7) 0.7411(7) -0.3341(10)
C4F C 0.5720(9) 0.7497(8) -0.4934(12)
H1F H 0.6299 0.7535 -0.5261
C5F C 0.4628(9) 0.7386(11) -0.2901(11)
H2F H 0.4469 0.7324 -0.1811
C6F C 0.4002(9) 0.7451(12) -0.4060(12)
H3F H 0.3421 0.7471 -0.3734
N2F N 0.5076(8) 0.7650(10) -0.7759(12)
H4F H 0.5520 0.7670 -0.8399
C7F C 0.5123(9) 0.7529(8) -0.6054(12)
C8F C 0.4262(10) 0.7726(10) -0.8239(14)
H5F H 0.4084 0.7826 -0.9309
loop_
_geom_bond_atom_site_label_1
_geom_bond_atom_site_label_2
_geom_bond_site_symmetry_1
_geom_bond_site_symmetry_2
Ni1 O1 1_555 1_555
O1 C1 1_555 1_555
O2 Ni1 1_555 1_555
N1 C2 1_555 1_555
C1 O2 1_555 1_555
C2 C6 1_555 1_555
C3 C1 1_555 1_555
C4 C3 1_555 1_555
H1 C4 1_555 1_555
C5 C3 1_555 1_555
H2 C5 1_555 1_555
C6 C5 1_555 1_555
H3 C6 1_555 1_555
N2 H4 1_555 1_555
C7 C2 1_555 1_555
C8 N1 1_555 1_555
H5 C8 1_555 1_555
Ni1B N1 1_555 1_555
Ni1C N1F 1_555 1_555
O1F Ni1 1_555 1_555
O2F Ni1 1_555 1_555
N1F C2F 1_555 1_555
N1C Ni1 1_555 1_555
N1D Ni1 1_555 1_555
C1F O1F 1_555 1_555
C2F C6F 1_555 1_555
C3F C1F 1_555 1_555
C4F C3F 1_555 1_555
H1F C4F 1_555 1_555
C5F C3F 1_555 1_555
H2F C5F 1_555 1_555
C6F C5F 1_555 1_555
H3F C6F 1_555 1_555
N2F H4F 1_555 1_555
C7F C2F 1_555 1_555
C8F N1F 1_555 1_555
H5F C8F 1_555 1_555
C4 C7 1_555 1_555
N2 C7 1_555 1_555
N2 C8 1_555 1_555
O2F C1F 1_555 1_555
C4F C7F 1_555 1_555
N2F C7F 1_555 1_555
N2F C8F 1_555 1_555

#END
