
#######################################################################
#
#                 Cambridge Crystallographic Data Centre
#                                CCDC 
#
#######################################################################
#
# If this CIF has been generated from an entry in the Cambridge 
# Structural Database, then it will include bibliographic, chemical, 
# crystal, experimental, refinement or atomic coordinate data resulting 
# from the CCDC's data processing and validation procedures.
#
#######################################################################

data_BEDJAW
_symmetry_cell_setting           tetragonal
_symmetry_space_group_name_H-M   'P 43 21 2'
_symmetry_Int_Tables_number      96
_space_group_name_Hall           'P 4nw 2abw'
loop_
_symmetry_equiv_pos_site_id
_symmetry_equiv_pos_as_xyz
1 x,y,z
2 -x,-y,1/2+z
3 1/2-y,1/2+x,3/4+z
4 1/2+y,1/2-x,1/4+z
5 1/2-x,1/2+y,3/4-z
6 1/2+x,1/2-y,1/4-z
7 y,x,-z
8 -y,-x,1/2-z
_cell_length_a                   9.6306(6)
_cell_length_b                   9.6306(6)
_cell_length_c                   11.8125(10)
_cell_angle_alpha                90
_cell_angle_beta                 90
_cell_angle_gamma                90
_cell_volume                     1095.59
loop_
_atom_site_label
_atom_site_type_symbol
_atom_site_fract_x
_atom_site_fract_y
_atom_site_fract_z
U1 U 0.27625(2) 0.27625(2) 1.0000
O1 O 0.4047(4) 0.4047(4) 1.0000
O2 O 0.1486(4) 0.1486(4) 1.0000
O3 O 0.1016(6) 0.4569(6) 1.0266(4)
O4 O 0.2154(5) 0.3344(6) 1.2026(3)
O5 O 0.3627(5) 0.1664(6) 1.1807(4)
C1 C 0.2927(6) 0.2434(7) 1.2471(7)
C2 C 0.2946(10) 0.2202(9) 1.3731(6)
H1 H 0.2053 0.1840 1.3970
H2 H 0.3648 0.1515 1.3914
C3 C 0.3232(14) 0.3454(13) 1.4336(6)
H3 H 0.2468 0.4096 1.4223
H4 H 0.4061 0.3878 1.4021
H5 H 0.115(6) 0.519(6) 1.009(6)
H6 H 0.012(8) 0.442(8) 1.028(7)
C3F C 0.3454(13) 0.3232(14) 1.5664(6)
C2F C 0.2202(9) 0.2946(10) 1.6269(6)
C1F C 0.2434(7) 0.2927(6) 1.7529(7)
O4F O 0.3344(6) 0.2154(5) 1.7974(3)
O5F O 0.1664(6) 0.3627(5) 1.8193(4)
H1F H 0.1840 0.2053 1.6030
H2F H 0.1515 0.3648 1.6086
H3F H 0.4096 0.2468 1.5777
H4F H 0.3878 0.4061 1.5979
O3F O 0.4569(6) 0.1016(6) 0.9734(4)
H5F H 0.519(6) 0.115(6) 0.991(6)
H6F H 0.442(8) 0.012(8) 0.972(7)
O4F_2 O 0.3344(6) 0.2154(5) 0.7974(3)
O5F_2 O 0.1664(6) 0.3627(5) 0.8193(4)
U1_2 U 0.27625(2) 0.27625(2) 2.0000
loop_
_geom_bond_atom_site_label_1
_geom_bond_atom_site_label_2
_geom_bond_site_symmetry_1
_geom_bond_site_symmetry_2
U1 O1 1_555 1_555
O2 U1 1_555 1_555
O3 U1 1_555 1_555
O4 U1 1_555 1_555
O5 U1 1_555 1_555
C1 O4 1_555 1_555
C2 C1 1_555 1_555
H1 C2 1_555 1_555
H2 C2 1_555 1_555
C3 C2 1_555 1_555
H3 C3 1_555 1_555
H4 C3 1_555 1_555
H5 O3 1_555 1_555
H6 O3 1_555 1_555
C3F C3 1_555 1_555
C2F C3F 1_555 1_555
C1F C2F 1_555 1_555
O4F C1F 1_555 1_555
O5F C1F 1_555 1_555
H1F C2F 1_555 1_555
H2F C2F 1_555 1_555
H3F C3F 1_555 1_555
H4F C3F 1_555 1_555
O3F U1 1_555 1_555
H5F O3F 1_555 1_555
H6F O3F 1_555 1_555
O4F_2 U1 1_555 1_555
O5F_2 U1 1_555 1_555
U1_2 O4F 1_555 1_555
O5 C1 1_555 1_555
O5F U1_2 1_555 1_555

#END
