
#######################################################################
#
#                 Cambridge Crystallographic Data Centre
#                                CCDC 
#
#######################################################################
#
# If this CIF has been generated from an entry in the Cambridge 
# Structural Database, then it will include bibliographic, chemical, 
# crystal, experimental, refinement or atomic coordinate data resulting 
# from the CCDC's data processing and validation procedures.
#
#######################################################################

data_BEDJEA
_symmetry_cell_setting           triclinic
_symmetry_space_group_name_H-M   'P -1'
_symmetry_Int_Tables_number      2
_space_group_name_Hall           '-P 1'
loop_
_symmetry_equiv_pos_site_id
_symmetry_equiv_pos_as_xyz
1 x,y,z
2 -x,-y,-z
_cell_length_a                   5.5835(12)
_cell_length_b                   8.791(2)
_cell_length_c                   9.2976(17)
_cell_angle_alpha                87.769(9)
_cell_angle_beta                 78.957(8)
_cell_angle_gamma                81.365(11)
_cell_volume                     442.817
loop_
_atom_site_label
_atom_site_type_symbol
_atom_site_fract_x
_atom_site_fract_y
_atom_site_fract_z
U1 U 0.44979(6) 0.98360(4) 0.72790(3)
O1 O 0.1610(16) 1.0961(11) 0.7340(12)
O2 O 0.7381(17) 0.8814(12) 0.7153(14)
O3 O 0.4030(18) 0.8764(11) 0.4877(9)
O4 O 0.2958(15) 0.7452(10) 0.6850(8)
O5 O 0.5699(16) 1.1841(10) 0.8376(8)
O6 O 0.684(2) 1.1040(12) 1.0433(9)
C1 C 0.3004(19) 0.7648(12) 0.5496(11)
C2 C 0.198(2) 0.6648(15) 0.4624(11)
H1 H 0.3307 0.6143 0.3894
H2 H 0.0835 0.7286 0.4106
C3 C 0.062(2) 0.5409(13) 0.5495(11)
H3 H 0.1793 0.4671 0.5905
H4 H -0.0600 0.5882 0.6299
C4 C 0.671(2) 1.2035(14) 0.9448(11)
C5 C 0.787(2) 1.3446(14) 0.9504(13)
H5 H 0.9278 1.3428 0.8707
H6 H 0.8462 1.3451 1.0418
C6 C 0.609(2) 1.4895(14) 0.9386(12)
H7 H 0.6962 1.5773 0.9355
H8 H 0.5503 1.4883 0.8470
C3A C -0.062(2) 0.4591(13) 0.4505(11)
C2A C -0.198(2) 0.3352(15) 0.5376(11)
C1A C -0.3004(19) 0.2352(12) 0.4504(11)
O3A O -0.4030(18) 0.1236(11) 0.5123(9)
O4A O -0.2958(15) 0.2548(10) 0.3150(8)
H1A H -0.3307 0.3857 0.6106
H2A H -0.0835 0.2714 0.5894
H3A H -0.1793 0.5329 0.4095
H4A H 0.0600 0.4118 0.3701
C6A C 0.391(2) 1.5105(14) 1.0614(12)
C5A C 0.213(2) 1.6554(14) 1.0496(13)
C4A C 0.329(2) 1.7965(14) 1.0552(11)
O5A O 0.4301(16) 1.8159(10) 1.1624(8)
O6A O 0.316(2) 1.8960(12) 0.9567(9)
H5A H 0.0722 1.6572 1.1293
H6A H 0.1538 1.6549 0.9582
H7A H 0.3038 1.4227 1.0645
H8A H 0.4497 1.5117 1.1530
U1A U -0.44979(6) 0.01640(4) 0.27210(3)
O1A O -0.1610(16) -0.0961(11) 0.2660(12)
O2A O -0.7381(17) 0.1186(12) 0.2847(14)
O3A_2 O 0.5970(18) 1.1236(11) 0.5123(9)
O6A_2 O 0.316(2) 0.8960(12) 0.9567(9)
U1A_2 U 0.55021(6) 1.01640(4) 0.27210(3)
U1A_3 U 0.55021(6) 1.01640(4) 1.27210(3)
U1_2 U -0.55021(6) -0.01640(4) 0.72790(3)
U1A_4 U 0.55021(6) 2.01640(4) 1.27210(3)
U1_3 U 0.44979(6) 1.98360(4) 0.72790(3)
O3_2 O -0.5970(18) -0.1236(11) 0.4877(9)
O5A_2 O -0.5699(16) -0.1841(10) 0.1624(8)
O6_2 O -0.316(2) 0.1040(12) 0.0433(9)
loop_
_geom_bond_atom_site_label_1
_geom_bond_atom_site_label_2
_geom_bond_site_symmetry_1
_geom_bond_site_symmetry_2
U1 O1 1_555 1_555
O2 U1 1_555 1_555
O3 U1 1_555 1_555
O4 U1 1_555 1_555
O5 U1 1_555 1_555
O6 C4 1_555 1_555
C1 O3 1_555 1_555
C2 C1 1_555 1_555
H1 C2 1_555 1_555
H2 C2 1_555 1_555
C3 C2 1_555 1_555
H3 C3 1_555 1_555
H4 C3 1_555 1_555
C4 O5 1_555 1_555
C5 C4 1_555 1_555
H5 C5 1_555 1_555
H6 C5 1_555 1_555
C6 C5 1_555 1_555
H7 C6 1_555 1_555
H8 C6 1_555 1_555
C3A C3 1_555 1_555
C2A C3A 1_555 1_555
C1A C2A 1_555 1_555
O3A C1A 1_555 1_555
O4A C1A 1_555 1_555
H1A C2A 1_555 1_555
H2A C2A 1_555 1_555
H3A C3A 1_555 1_555
H4A C3A 1_555 1_555
C6A C6 1_555 1_555
C5A C6A 1_555 1_555
C4A C5A 1_555 1_555
O5A C4A 1_555 1_555
O6A C4A 1_555 1_555
H5A C5A 1_555 1_555
H6A C5A 1_555 1_555
H7A C6A 1_555 1_555
H8A C6A 1_555 1_555
U1A O3A 1_555 1_555
O1A U1A 1_555 1_555
O2A U1A 1_555 1_555
O3A_2 U1 1_555 1_555
O6A_2 U1 1_555 1_555
U1A_2 O3 1_555 1_555
U1A_3 O6 1_555 1_555
U1_2 O3A 1_555 1_555
U1A_4 O5A 1_555 1_555
U1_3 O6A 1_555 1_555
O3_2 U1A 1_555 1_555
O5A_2 U1A 1_555 1_555
O6_2 U1A 1_555 1_555
O4 C1 1_555 1_555
O4A U1A 1_555 1_555
O3A_2 U1A_2 1_555 1_555
U1_2 O3_2 1_555 1_555

#END
