
#######################################################################
#
#                 Cambridge Crystallographic Data Centre
#                                CCDC 
#
#######################################################################
#
# If this CIF has been generated from an entry in the Cambridge 
# Structural Database, then it will include bibliographic, chemical, 
# crystal, experimental, refinement or atomic coordinate data resulting 
# from the CCDC's data processing and validation procedures.
#
#######################################################################

data_BEDNUU
_symmetry_cell_setting           orthorhombic
_symmetry_space_group_name_H-M   'P 21 21 21'
_symmetry_Int_Tables_number      19
_space_group_name_Hall           'P 2ac 2ab'
loop_
_symmetry_equiv_pos_site_id
_symmetry_equiv_pos_as_xyz
1 x,y,z
2 1/2-x,-y,1/2+z
3 -x,1/2+y,1/2-z
4 1/2+x,1/2-y,-z
_cell_length_a                   7.1116(5)
_cell_length_b                   13.4060(10)
_cell_length_c                   14.9176(11)
_cell_angle_alpha                90
_cell_angle_beta                 90
_cell_angle_gamma                90
_cell_volume                     1422.22
loop_
_atom_site_label
_atom_site_type_symbol
_atom_site_fract_x
_atom_site_fract_y
_atom_site_fract_z
U1 U -0.05103(3) 0.490971(14) 0.500562(16)
O1 O -0.2372(8) 0.4132(3) 0.5367(3)
O2 O -0.2602(7) 0.5698(3) 0.4027(3)
O3 O -0.0114(7) 0.5339(3) 0.6637(3)
O4 O 0.1347(7) 0.5705(3) 0.4677(3)
O5 O -0.1762(8) 0.6380(3) 0.5829(3)
C1 C -0.0988(10) 0.6138(5) 0.6557(4)
N1 N -0.2149(8) 0.6504(4) 0.3532(3)
C2 C -0.2085(11) 0.6416(5) 0.2642(4)
H1 H -0.2397 0.5813 0.2371
C3 C -0.1832(10) 0.7390(4) 0.3935(5)
H2 H -0.1962 0.7446 0.4553
C4 C -0.1564(11) 0.7207(5) 0.2131(4)
H3 H -0.1492 0.7139 0.1511
C5 C -0.1326(11) 0.8198(5) 0.3444(4)
H4 H -0.1106 0.8805 0.3727
C6 C -0.1137(10) 0.8121(5) 0.2530(4)
O6 O -0.0037(8) 0.8821(4) 0.1185(3)
C7 C -0.0609(10) 0.6569(5) 0.8186(4)
H5 H -0.0162 0.5929 0.8300
C8 C -0.1115(10) 0.6837(6) 0.7325(4)
C9 C -0.0511(10) 0.9016(5) 0.1991(4)
O7 O -0.0487(8) 0.9823(4) 0.2343(4)
C10 C -0.0765(10) 0.7250(5) 0.8878(4)
H6 H -0.0401 0.7067 0.9454
N2 N -0.1418(9) 0.8151(4) 0.8733(3)
O8 O -0.1683(8) 0.8785(4) 0.9416(3)
C11 C -0.1932(10) 0.8454(5) 0.7911(4)
H7 H -0.2396 0.9095 0.7822
C12 C -0.1762(11) 0.7797(6) 0.7197(4)
H8 H -0.2089 0.8007 0.6623
O6B O 0.0037(8) 0.3821(4) 0.3815(3)
O8B O 0.1683(8) 0.3785(4) 0.5584(3)
U1B U 0.05103(3) 0.990971(14) -0.000562(16)
U1B_2 U 0.05103(3) 0.990971(14) 0.999438(16)
loop_
_geom_bond_atom_site_label_1
_geom_bond_atom_site_label_2
_geom_bond_site_symmetry_1
_geom_bond_site_symmetry_2
U1 O1 1_555 1_555
O2 U1 1_555 1_555
O3 U1 1_555 1_555
O4 U1 1_555 1_555
O5 U1 1_555 1_555
C1 O3 1_555 1_555
N1 O2 1_555 1_555
C2 N1 1_555 1_555
H1 C2 1_555 1_555
C3 N1 1_555 1_555
H2 C3 1_555 1_555
C4 C2 1_555 1_555
H3 C4 1_555 1_555
C5 C3 1_555 1_555
H4 C5 1_555 1_555
C6 C4 1_555 1_555
O6 C9 1_555 1_555
C7 H5 1_555 1_555
C8 C1 1_555 1_555
C9 C6 1_555 1_555
O7 C9 1_555 1_555
C10 C7 1_555 1_555
H6 C10 1_555 1_555
N2 C10 1_555 1_555
O8 N2 1_555 1_555
C11 N2 1_555 1_555
H7 C11 1_555 1_555
C12 C8 1_555 1_555
H8 C12 1_555 1_555
O6B U1 1_555 1_555
O8B U1 1_555 1_555
U1B O6 1_555 1_555
U1B_2 O8 1_555 1_555
O5 C1 1_555 1_555
C5 C6 1_555 1_555
C7 C8 1_555 1_555
C11 C12 1_555 1_555

#END
