
#######################################################################
#
#                 Cambridge Crystallographic Data Centre
#                                CCDC 
#
#######################################################################
#
# If this CIF has been generated from an entry in the Cambridge 
# Structural Database, then it will include bibliographic, chemical, 
# crystal, experimental, refinement or atomic coordinate data resulting 
# from the CCDC's data processing and validation procedures.
#
#######################################################################

data_BEDPIL
_symmetry_cell_setting           tetragonal
_symmetry_space_group_name_H-M   'P 41 21 2'
_symmetry_Int_Tables_number      92
_space_group_name_Hall           'P 4abw 2nw'
loop_
_symmetry_equiv_pos_site_id
_symmetry_equiv_pos_as_xyz
1 x,y,z
2 -x,-y,1/2+z
3 1/2-y,1/2+x,1/4+z
4 1/2+y,1/2-x,3/4+z
5 1/2-x,1/2+y,1/4-z
6 1/2+x,1/2-y,3/4-z
7 y,x,-z
8 -y,-x,1/2-z
_cell_length_a                   10.6794(4)
_cell_length_b                   10.6794(4)
_cell_length_c                   41.718(2)
_cell_angle_alpha                90
_cell_angle_beta                 90
_cell_angle_gamma                90
_cell_volume                     4757.92
loop_
_atom_site_label
_atom_site_type_symbol
_atom_site_fract_x
_atom_site_fract_y
_atom_site_fract_z
Zn1 Zn 0.05339(4) 0.61060(4) 0.065102(11)
C1 C 0.0213(4) 0.6603(4) 0.13164(9)
C2 C 0.0813(4) 0.6790(4) 0.16467(9)
C3 C 0.1873(4) 0.7812(4) 0.16318(9)
C4 C 0.1956(4) 0.8223(4) 0.19921(9)
H1 H 0.2494 0.7598 0.2105
C5 C 0.0629(5) 0.8086(6) 0.21245(12)
H2 H 0.0652 0.7662 0.2336
H3 H 0.0243 0.8922 0.2153
C6 C -0.0118(4) 0.7331(4) 0.18929(10)
H4 H -0.0746 0.7866 0.1784
H5 H -0.0562 0.6647 0.2006
C7 C 0.2562(4) 0.9500(4) 0.20355(8)
C8 C 0.1299(5) 0.5508(4) 0.17618(10)
H6 H 0.0606 0.4907 0.1767
H7 H 0.1653 0.5594 0.1977
H8 H 0.1948 0.5208 0.1615
C9 C 0.3145(4) 0.7324(5) 0.15157(12)
H9 H 0.3750 0.8013 0.1513
H10 H 0.3056 0.6980 0.1299
H11 H 0.3440 0.6666 0.1661
C10 C 0.1485(5) 0.8903(4) 0.14206(10)
H12 H 0.2159 0.9526 0.1416
H13 H 0.0723 0.9286 0.1507
H14 H 0.1324 0.8600 0.1203
C11 C -0.4486(4) 0.6714(5) 0.07679(10)
H15 H -0.4266 0.6866 0.0993
H16 H -0.5093 0.6028 0.0756
H17 H -0.4853 0.7474 0.0676
C12 C -0.3338(4) 0.6370(4) 0.05852(9)
C13 C -0.3117(3) 0.6075(4) 0.02688(9)
C14 C -0.1815(4) 0.5911(4) 0.02400(9)
C15 C -0.1061(4) 0.5620(5) -0.00548(9)
H18 H -0.0173 0.5563 0.0002
H19 H -0.1179 0.6287 -0.0213
H20 H -0.1340 0.4821 -0.0145
C16 C -0.4063(4) 0.5937(4) 0.0000
H21 H -0.489(4) 0.595(4) 0.0105(10)
C17 C -0.0454(5) 0.9217(4) 0.06039(11)
H22 H -0.0600 0.8568 0.0766
H23 H -0.1234 0.9386 0.0488
H24 H -0.0167 0.9985 0.0709
C18 C 0.0515(4) 0.8782(4) 0.03748(10)
C19 C 0.0998(4) 0.9406(4) 0.01064(11)
C20 C 0.1866(4) 0.8580(4) -0.00277(10)
C21 C 0.2640(4) 0.8666(5) -0.03258(12)
H25 H 0.3152 0.7908 -0.0347
H26 H 0.3188 0.9401 -0.0313
H27 H 0.2089 0.8744 -0.0512
C22 C 0.0722(4) 1.0722(4) 0.0000
H28 H 0.085(4) 1.119(4) 0.0194(10)
N1 N -0.2204(3) 0.6339(3) 0.07328(7)
H29 H -0.2089 0.6486 0.0938
N2 N -0.1275(3) 0.6055(3) 0.05256(7)
N3 N 0.1056(3) 0.7656(3) 0.04082(8)
N4 N 0.1863(3) 0.7562(3) 0.01587(8)
H30 H 0.2335 0.6901 0.0123
O1 O -0.0902(3) 0.6876(4) 0.12710(7)
O2 O 0.0948(3) 0.6194(3) 0.10981(6)
O3 O 0.3753(2) 0.9534(3) 0.19938(6)
O4 O 0.1924(3) 1.0435(3) 0.21062(7)
Zn1F Zn -0.38940(4) 1.05339(4) -0.065102(11)
Zn1C Zn 0.11060(4) 1.44661(4) -0.184898(11)
Zn1D Zn 0.44661(4) 1.11060(4) 0.184898(11)
C1F C -0.3397(4) 1.0213(4) -0.13164(9)
C2F C -0.3210(4) 1.0813(4) -0.16467(9)
C3F C -0.2188(4) 1.1873(4) -0.16318(9)
C4F C -0.1777(4) 1.1956(4) -0.19921(9)
H1F H -0.2402 1.2494 -0.2105
C5F C -0.1914(6) 1.0629(5) -0.21245(12)
H2F H -0.2338 1.0652 -0.2336
H3F H -0.1078 1.0243 -0.2153
C6F C -0.2669(4) 0.9882(4) -0.18929(10)
H4F H -0.2134 0.9254 -0.1784
H5F H -0.3353 0.9438 -0.2006
C7F C -0.0500(4) 1.2562(4) -0.20355(8)
C8F C -0.4492(4) 1.1299(5) -0.17618(10)
H6F H -0.5093 1.0606 -0.1767
H7F H -0.4406 1.1653 -0.1977
H8F H -0.4792 1.1948 -0.1615
C9F C -0.2676(5) 1.3145(4) -0.15157(12)
H9F H -0.1987 1.3750 -0.1513
H10F H -0.3020 1.3056 -0.1299
H11F H -0.3334 1.3440 -0.1661
C10F C -0.1097(4) 1.1485(5) -0.14206(10)
H12F H -0.0474 1.2159 -0.1416
H13F H -0.0714 1.0723 -0.1507
H14F H -0.1400 1.1324 -0.1203
C11F C -0.3286(5) 0.5514(4) -0.07679(10)
H15F H -0.3134 0.5734 -0.0993
H16F H -0.3972 0.4907 -0.0756
H17F H -0.2526 0.5147 -0.0676
C12F C -0.3630(4) 0.6662(4) -0.05852(9)
C13F C -0.3925(4) 0.6883(3) -0.02688(9)
C14F C -0.4089(4) 0.8185(4) -0.02400(9)
C15F C -0.4380(5) 0.8939(4) 0.00548(9)
H18F H -0.4437 0.9827 -0.0002
H19F H -0.3713 0.8821 0.0213
H20F H -0.5179 0.8660 0.0145
H21F H -0.405(4) 0.511(4) -0.0105(10)
C17F C -0.0783(4) 0.9546(5) -0.06039(11)
H22F H -0.1432 0.9400 -0.0766
H23F H -0.0614 0.8766 -0.0488
H24F H -0.0015 0.9833 -0.0709
C18F C -0.1218(4) 1.0515(4) -0.03748(10)
C19F C -0.0594(4) 1.0998(4) -0.01064(11)
C20F C -0.1420(4) 1.1866(4) 0.00277(10)
C21F C -0.1334(5) 1.2640(4) 0.03258(12)
H25F H -0.2092 1.3152 0.0347
H26F H -0.0599 1.3188 0.0313
H27F H -0.1256 1.2089 0.0512
H28F H 0.119(4) 1.085(4) -0.0194(10)
N1F N -0.3661(3) 0.7796(3) -0.07328(7)
H29F H -0.3514 0.7911 -0.0938
N2F N -0.3945(3) 0.8725(3) -0.05256(7)
N3F N -0.2344(3) 1.1056(3) -0.04082(8)
N4F N -0.2438(3) 1.1863(3) -0.01587(8)
H30F H -0.3099 1.2335 -0.0123
O1F O -0.3124(4) 0.9098(3) -0.12710(7)
O2F O -0.3806(3) 1.0948(3) -0.10981(6)
O3F O -0.0466(3) 1.3753(2) -0.19938(6)
O3C O -0.5466(3) 1.1247(2) -0.05062(6)
O3D O 0.1247(2) 0.4534(3) 0.05062(6)
O4F O 0.0435(3) 1.1924(3) -0.21062(7)
loop_
_geom_bond_atom_site_label_1
_geom_bond_atom_site_label_2
_geom_bond_site_symmetry_1
_geom_bond_site_symmetry_2
Zn1 N2 1_555 1_555
C1 C2 1_555 1_555
C2 C3 1_555 1_555
C3 C4 1_555 1_555
C4 H1 1_555 1_555
C5 C4 1_555 1_555
H2 C5 1_555 1_555
H3 C5 1_555 1_555
C6 C2 1_555 1_555
H4 C6 1_555 1_555
H5 C6 1_555 1_555
C7 C4 1_555 1_555
C8 C2 1_555 1_555
H6 C8 1_555 1_555
H7 C8 1_555 1_555
H8 C8 1_555 1_555
C9 C3 1_555 1_555
H9 C9 1_555 1_555
H10 C9 1_555 1_555
H11 C9 1_555 1_555
C10 C3 1_555 1_555
H12 C10 1_555 1_555
H13 C10 1_555 1_555
H14 C10 1_555 1_555
C11 H15 1_555 1_555
H16 C11 1_555 1_555
H17 C11 1_555 1_555
C12 C11 1_555 1_555
C13 C12 1_555 1_555
C14 C13 1_555 1_555
C15 C14 1_555 1_555
H18 C15 1_555 1_555
H19 C15 1_555 1_555
H20 C15 1_555 1_555
C16 C13 1_555 1_555
H21 C16 1_555 1_555
C17 H22 1_555 1_555
H23 C17 1_555 1_555
H24 C17 1_555 1_555
C18 C17 1_555 1_555
C19 C18 1_555 1_555
C20 C19 1_555 1_555
C21 C20 1_555 1_555
H25 C21 1_555 1_555
H26 C21 1_555 1_555
H27 C21 1_555 1_555
C22 C19 1_555 1_555
H28 C22 1_555 1_555
N1 C12 1_555 1_555
H29 N1 1_555 1_555
N2 C14 1_555 1_555
N3 Zn1 1_555 1_555
N4 C20 1_555 1_555
H30 N4 1_555 1_555
O1 C1 1_555 1_555
O2 Zn1 1_555 1_555
O3 C7 1_555 1_555
O4 C7 1_555 1_555
Zn1F N2F 1_555 1_555
Zn1C O3F 1_555 1_555
Zn1D O3 1_555 1_555
C1F C2F 1_555 1_555
C2F C3F 1_555 1_555
C3F C4F 1_555 1_555
C4F H1F 1_555 1_555
C5F C4F 1_555 1_555
H2F C5F 1_555 1_555
H3F C5F 1_555 1_555
C6F C2F 1_555 1_555
H4F C6F 1_555 1_555
H5F C6F 1_555 1_555
C7F C4F 1_555 1_555
C8F C2F 1_555 1_555
H6F C8F 1_555 1_555
H7F C8F 1_555 1_555
H8F C8F 1_555 1_555
C9F C3F 1_555 1_555
H9F C9F 1_555 1_555
H10F C9F 1_555 1_555
H11F C9F 1_555 1_555
C10F C3F 1_555 1_555
H12F C10F 1_555 1_555
H13F C10F 1_555 1_555
H14F C10F 1_555 1_555
C11F H15F 1_555 1_555
H16F C11F 1_555 1_555
H17F C11F 1_555 1_555
C12F C11F 1_555 1_555
C13F C16 1_555 1_555
C14F C13F 1_555 1_555
C15F C14F 1_555 1_555
H18F C15F 1_555 1_555
H19F C15F 1_555 1_555
H20F C15F 1_555 1_555
H21F C16 1_555 1_555
C17F H22F 1_555 1_555
H23F C17F 1_555 1_555
H24F C17F 1_555 1_555
C18F C17F 1_555 1_555
C19F C22 1_555 1_555
C20F C19F 1_555 1_555
C21F C20F 1_555 1_555
H25F C21F 1_555 1_555
H26F C21F 1_555 1_555
H27F C21F 1_555 1_555
H28F C22 1_555 1_555
N1F C12F 1_555 1_555
H29F N1F 1_555 1_555
N2F C14F 1_555 1_555
N3F Zn1F 1_555 1_555
N4F C20F 1_555 1_555
H30F N4F 1_555 1_555
O1F C1F 1_555 1_555
O2F Zn1F 1_555 1_555
O3F C7F 1_555 1_555
O3C Zn1F 1_555 1_555
O3D Zn1 1_555 1_555
O4F C7F 1_555 1_555
C1 O2 1_555 1_555
C5 C6 1_555 1_555
C18 N3 1_555 1_555
N1 N2 1_555 1_555
N3 N4 1_555 1_555
C1F O2F 1_555 1_555
C5F C6F 1_555 1_555
C12F C13F 1_555 1_555
C18F C19F 1_555 1_555
C18F N3F 1_555 1_555
N1F N2F 1_555 1_555
N3F N4F 1_555 1_555

#END
