
#######################################################################
#
#                 Cambridge Crystallographic Data Centre
#                                CCDC 
#
#######################################################################
#
# If this CIF has been generated from an entry in the Cambridge 
# Structural Database, then it will include bibliographic, chemical, 
# crystal, experimental, refinement or atomic coordinate data resulting 
# from the CCDC's data processing and validation procedures.
#
#######################################################################

data_BEDSEJ
_symmetry_cell_setting           triclinic
_symmetry_space_group_name_H-M   'P -1'
_symmetry_Int_Tables_number      2
_space_group_name_Hall           '-P 1'
loop_
_symmetry_equiv_pos_site_id
_symmetry_equiv_pos_as_xyz
1 x,y,z
2 -x,-y,-z
_cell_length_a                   8.3122(2)
_cell_length_b                   16.4661(5)
_cell_length_c                   23.2800(7)
_cell_angle_alpha                90.7639(4)
_cell_angle_beta                 90.7241(6)
_cell_angle_gamma                94.6208(5)
_cell_volume                     3175.38
loop_
_atom_site_label
_atom_site_type_symbol
_atom_site_fract_x
_atom_site_fract_y
_atom_site_fract_z
Ni1 Ni 1.04625(8) 1.03864(4) 0.35713(3)
Ni2 Ni -0.54372(7) 1.48854(4) 0.83023(3)
S1 S 1.38705(18) 0.99645(10) 0.32375(8)
S2 S -0.86188(15) 1.47626(10) 0.83092(7)
O1 O 1.2082(5) 1.1527(2) 0.36511(18)
O2 O 1.1747(6) 1.0036(3) 0.4325(2)
O4 O 1.2221(4) 0.9952(3) 0.30697(17)
O5 O 1.4141(5) 0.9512(3) 0.3760(2)
O6 O 1.4609(4) 1.0808(3) 0.3296(2)
O7 O 1.4672(5) 0.9511(3) 0.2755(2)
O8 O -0.7488(4) 1.5445(2) 0.80938(18)
O9 O -0.7487(4) 1.4221(2) 0.85825(17)
O10 O -0.9460(5) 1.4340(3) 0.7827(2)
O11 O -0.9709(5) 1.5043(3) 0.8720(2)
N1 N 0.2262(5) 1.4546(3) 0.52011(18)
N2 N 0.3634(5) 1.4744(3) 0.43207(18)
N3 N 0.2410(5) 1.5839(3) 0.47605(18)
N4 N 0.6812(6) 1.1022(3) 0.46978(19)
N5 N 0.8969(5) 1.0786(3) 0.41799(18)
N6 N 0.7729(5) 1.8214(3) 0.30832(17)
N7 N 0.9287(5) 1.9233(3) 0.3455(2)
N8 N -0.2082(5) 1.6378(3) 0.74040(18)
N9 N -0.4074(5) 1.5624(2) 0.77838(18)
N10 N 0.2671(4) 1.0799(2) -0.02626(16)
N11 N 0.2629(4) 0.9516(2) 0.02050(16)
N12 N 0.1059(4) 0.9662(2) -0.06424(16)
N13 N 0.7855(5) 1.1538(3) 0.23103(18)
N14 N 0.9455(5) 1.0916(3) 0.28824(18)
N15 N -0.2835(5) 0.5767(2) -0.02763(19)
N16 N -0.4589(5) 0.5356(2) -0.09577(18)
N17 N -0.2634(4) 1.2914(2) -0.19577(17)
N18 N -0.4213(4) 1.3872(2) -0.17242(18)
C1 C 0.3101(6) 1.4281(3) 0.4754(2)
C2 C 0.3279(6) 1.5508(3) 0.4344(2)
C3 C 0.1985(6) 1.5322(4) 0.5191(2)
C4 C 0.3520(6) 1.3440(3) 0.4766(2)
C5 C 0.2953(7) 1.2894(3) 0.5186(2)
H1 H 0.2195 1.3060 0.5457
C6 C 0.3462(7) 1.2123(3) 0.5216(2)
H2 H 0.3058 1.1763 0.5506
C7 C 0.4571(7) 1.1868(3) 0.4822(2)
C8 C 0.5152(7) 1.2400(3) 0.4396(2)
H3 H 0.5905 1.2230 0.4124
C9 C 0.4623(7) 1.3173(3) 0.4371(2)
H4 H 0.5018 1.3531 0.4079
C10 C 0.5146(7) 1.1032(3) 0.4868(2)
H5 H 0.5037 1.0845 0.5269
H6 H 0.4462 1.0648 0.4619
C11 C 0.7407(7) 1.0630(3) 0.4242(2)
H7 H 0.6758 1.0277 0.3992
C12 C 0.9413(8) 1.1320(4) 0.4637(3)
H8 H 1.0484 1.1541 0.4719
C13 C 0.8095(9) 1.1479(4) 0.4947(3)
H9 H 0.8068 1.1835 0.5271
C14 C 0.3932(6) 1.6072(3) 0.3894(2)
C15 C 0.3518(6) 1.6860(3) 0.3866(2)
H10 H 0.2692 1.7034 0.4105
C16 C 0.4298(6) 1.7409(3) 0.3489(2)
H11 H 0.4023 1.7957 0.3480
C17 C 0.5464(6) 1.7153(4) 0.3132(2)
C18 C 0.5828(7) 1.6355(4) 0.3141(2)
H12 H 0.6603 1.6174 0.2883
C19 C 0.5091(6) 1.5814(3) 0.3518(2)
H13 H 0.5368 1.5266 0.3523
C20 C 0.6410(7) 1.7774(3) 0.2755(2)
H14 H 0.6857 1.7489 0.2423
H15 H 0.5673 1.8167 0.2604
C21 C 0.7966(6) 1.9031(4) 0.3147(3)
H16 H 0.7278 1.9408 0.2992
C22 C 0.9909(6) 1.8529(4) 0.3588(2)
H17 H 1.0871 1.8488 0.3807
C23 C 0.8959(6) 1.7879(4) 0.3364(2)
H18 H 0.9123 1.7317 0.3396
C24 C 0.1232(6) 1.5669(3) 0.5702(2)
C25 C 0.0919(7) 1.5179(4) 0.6175(2)
H19 H 0.1091 1.4615 0.6155
C26 C 0.0363(8) 1.5510(4) 0.6671(3)
H20 H 0.0155 1.5169 0.6992
C27 C 0.0096(6) 1.6328(3) 0.6716(2)
C28 C 0.0371(7) 1.6802(3) 0.6228(2)
H21 H 0.0165 1.7361 0.6239
C29 C 0.0938(7) 1.6467(4) 0.5731(2)
H22 H 0.1124 1.6799 0.5404
C30 C -0.0446(6) 1.6695(3) 0.7270(2)
H23 H 0.0297 1.6569 0.7586
H24 H -0.0408 1.7295 0.7235
C31 C -0.2516(6) 1.5799(3) 0.7781(2)
H25 H -0.1775 1.5545 0.8019
C32 C -0.4688(6) 1.6123(3) 0.7373(2)
H26 H -0.5794 1.6133 0.7268
C33 C -0.3460(7) 1.6587(3) 0.7150(2)
H27 H -0.3541 1.6991 0.6866
C34 C 0.3095(5) 1.0308(3) 0.0162(2)
C35 C 0.1606(5) 0.9226(3) -0.0215(2)
C36 C 0.1621(5) 1.0441(3) -0.06503(18)
C37 C 0.4063(5) 1.0711(3) 0.0641(2)
C38 C 0.4586(6) 1.1523(3) 0.0623(2)
H28 H 0.4390 1.1825 0.0288
C39 C 0.5398(6) 1.1908(3) 0.1090(2)
H29 H 0.5775 1.2467 0.1068
C40 C 0.5658(6) 1.1486(3) 0.1584(2)
C41 C 0.5187(7) 1.0665(4) 0.1591(2)
H30 H 0.5415 1.0360 0.1922
C42 C 0.4393(6) 1.0279(3) 0.1128(2)
H31 H 0.4069 0.9713 0.1144
C43 C 0.6424(7) 1.1929(4) 0.2107(2)
H32 H 0.6742 1.2502 0.2009
H33 H 0.5624 1.1931 0.2419
C44 C 0.8051(6) 1.1215(3) 0.2827(2)
H34 H 0.7264 1.1204 0.3120
C45 C 1.0220(6) 1.1066(4) 0.2370(2)
H35 H 1.1273 1.0923 0.2280
C46 C 0.9243(7) 1.1450(4) 0.2013(2)
H36 H 0.9473 1.1624 0.1633
C47 C 0.0963(5) 0.8357(3) -0.0186(2)
C48 C 0.1601(6) 0.7808(3) 0.0187(2)
H37 H 0.2539 0.7973 0.0410
C49 C 0.0894(6) 0.7033(3) 0.0237(2)
H38 H 0.1353 0.6667 0.0492
C50 C -0.0491(6) 0.6771(3) -0.0081(2)
C51 C -0.1091(6) 0.7304(3) -0.0460(2)
H39 H -0.2003 0.7132 -0.0694
C52 C -0.0387(5) 0.8087(3) -0.0506(2)
H40 H -0.0843 0.8450 -0.0764
C53 C -0.1264(7) 0.5911(3) 0.0006(3)
H41 H -0.0536 0.5515 -0.0146
H42 H -0.1386 0.5816 0.0422
C54 C -0.3066(6) 0.5366(3) -0.0776(2)
H43 H -0.2242 0.5117 -0.0977
C55 C -0.5346(7) 0.5792(3) -0.0548(3)
H44 H -0.6450 0.5904 -0.0559
C56 C -0.4276(7) 0.6038(3) -0.0127(3)
H45 H -0.4489 0.6342 0.0209
C57 C 0.0971(5) 1.0964(3) -0.10953(19)
C58 C 0.1447(5) 1.1797(3) -0.1121(2)
H46 H 0.2280 1.2028 -0.0871
C59 C 0.0720(6) 1.2284(3) -0.1503(2)
H47 H 0.1058 1.2849 -0.1516
C60 C -0.0494(5) 1.1965(3) -0.18693(19)
C61 C -0.0929(6) 1.1141(3) -0.1855(2)
H48 H -0.1724 1.0909 -0.2119
C62 C -0.0238(6) 1.0647(3) -0.1468(2)
H49 H -0.0593 1.0084 -0.1455
C63 C -0.1355(6) 1.2512(3) -0.2258(2)
H50 H -0.0564 1.2933 -0.2412
H51 H -0.1839 1.2187 -0.2586
C64 C -0.2933(5) 1.3687(3) -0.2016(2)
H52 H -0.2302 1.4065 -0.2242
C65 C -0.4747(6) 1.3145(3) -0.1463(2)
H53 H -0.5657 1.3070 -0.1221
C66 C -0.3767(6) 1.2568(3) -0.1609(2)
H54 H -0.3857 1.2017 -0.1489
N7_2 N 0.9287(5) 0.9233(3) 0.3455(2)
N16_2 N -0.4589(5) 1.5356(2) 0.90423(18)
N18_2 N -0.4213(4) 1.3872(2) 0.82758(18)
Ni1_2 Ni 1.04625(8) 2.03864(4) 0.35713(3)
Ni2_2 Ni -0.54372(7) 0.48854(4) -0.16977(3)
Ni2_3 Ni -0.54372(7) 1.48854(4) -0.16977(3)
O3 O 0.850(2) 0.3221(12) 0.1418(9)
loop_
_geom_bond_atom_site_label_1
_geom_bond_atom_site_label_2
_geom_bond_site_symmetry_1
_geom_bond_site_symmetry_2
Ni1 O1 1_555 1_555
Ni2 O8 1_555 1_555
S1 O4 1_555 1_555
S2 O8 1_555 1_555
O2 Ni1 1_555 1_555
O4 Ni1 1_555 1_555
O5 S1 1_555 1_555
O6 S1 1_555 1_555
O7 S1 1_555 1_555
O9 Ni2 1_555 1_555
O10 S2 1_555 1_555
O11 S2 1_555 1_555
N1 C1 1_555 1_555
N2 C1 1_555 1_555
N3 C2 1_555 1_555
N4 C10 1_555 1_555
N5 Ni1 1_555 1_555
N6 C20 1_555 1_555
N7 C21 1_555 1_555
N8 C30 1_555 1_555
N9 Ni2 1_555 1_555
N10 C34 1_555 1_555
N11 C34 1_555 1_555
N12 C35 1_555 1_555
N13 C43 1_555 1_555
N14 Ni1 1_555 1_555
N15 C53 1_555 1_555
N16 C54 1_555 1_555
N17 C63 1_555 1_555
N18 C64 1_555 1_555
C1 C4 1_555 1_555
C2 N2 1_555 1_555
C3 N1 1_555 1_555
C4 C5 1_555 1_555
C5 H1 1_555 1_555
C6 C5 1_555 1_555
H2 C6 1_555 1_555
C7 C6 1_555 1_555
C8 C7 1_555 1_555
H3 C8 1_555 1_555
C9 C4 1_555 1_555
H4 C9 1_555 1_555
C10 C7 1_555 1_555
H5 C10 1_555 1_555
H6 C10 1_555 1_555
C11 N4 1_555 1_555
H7 C11 1_555 1_555
C12 N5 1_555 1_555
H8 C12 1_555 1_555
C13 N4 1_555 1_555
H9 C13 1_555 1_555
C14 C2 1_555 1_555
C15 C14 1_555 1_555
H10 C15 1_555 1_555
C16 C15 1_555 1_555
H11 C16 1_555 1_555
C17 C16 1_555 1_555
C18 C17 1_555 1_555
H12 C18 1_555 1_555
C19 C14 1_555 1_555
H13 C19 1_555 1_555
C20 C17 1_555 1_555
H14 C20 1_555 1_555
H15 C20 1_555 1_555
C21 N6 1_555 1_555
H16 C21 1_555 1_555
C22 N7 1_555 1_555
H17 C22 1_555 1_555
C23 N6 1_555 1_555
H18 C23 1_555 1_555
C24 C3 1_555 1_555
C25 C24 1_555 1_555
H19 C25 1_555 1_555
C26 C25 1_555 1_555
H20 C26 1_555 1_555
C27 C26 1_555 1_555
C28 C27 1_555 1_555
H21 C28 1_555 1_555
C29 C24 1_555 1_555
H22 C29 1_555 1_555
C30 C27 1_555 1_555
H23 C30 1_555 1_555
H24 C30 1_555 1_555
C31 N8 1_555 1_555
H25 C31 1_555 1_555
C32 N9 1_555 1_555
H26 C32 1_555 1_555
C33 N8 1_555 1_555
H27 C33 1_555 1_555
C34 C37 1_555 1_555
C35 N11 1_555 1_555
C36 N10 1_555 1_555
C37 C38 1_555 1_555
C38 H28 1_555 1_555
C39 C38 1_555 1_555
H29 C39 1_555 1_555
C40 C39 1_555 1_555
C41 C40 1_555 1_555
H30 C41 1_555 1_555
C42 C37 1_555 1_555
H31 C42 1_555 1_555
C43 C40 1_555 1_555
H32 C43 1_555 1_555
H33 C43 1_555 1_555
C44 N13 1_555 1_555
H34 C44 1_555 1_555
C45 N14 1_555 1_555
H35 C45 1_555 1_555
C46 N13 1_555 1_555
H36 C46 1_555 1_555
C47 C35 1_555 1_555
C48 C47 1_555 1_555
H37 C48 1_555 1_555
C49 C48 1_555 1_555
H38 C49 1_555 1_555
C50 C49 1_555 1_555
C51 C50 1_555 1_555
H39 C51 1_555 1_555
C52 C47 1_555 1_555
H40 C52 1_555 1_555
C53 C50 1_555 1_555
H41 C53 1_555 1_555
H42 C53 1_555 1_555
C54 N15 1_555 1_555
H43 C54 1_555 1_555
C55 N16 1_555 1_555
H44 C55 1_555 1_555
C56 N15 1_555 1_555
H45 C56 1_555 1_555
C57 C36 1_555 1_555
C58 C57 1_555 1_555
H46 C58 1_555 1_555
C59 C58 1_555 1_555
H47 C59 1_555 1_555
C60 C59 1_555 1_555
C61 C60 1_555 1_555
H48 C61 1_555 1_555
C62 C57 1_555 1_555
H49 C62 1_555 1_555
C63 C60 1_555 1_555
H50 C63 1_555 1_555
H51 C63 1_555 1_555
C64 N17 1_555 1_555
H52 C64 1_555 1_555
C65 N18 1_555 1_555
H53 C65 1_555 1_555
C66 N17 1_555 1_555
H54 C66 1_555 1_555
N7_2 Ni1 1_555 1_555
N16_2 Ni2 1_555 1_555
N18_2 Ni2 1_555 1_555
Ni1_2 N7 1_555 1_555
Ni2_2 N16 1_555 1_555
Ni2_3 N18 1_555 1_555
S2 O9 1_555 1_555
N3 C3 1_555 1_555
N5 C11 1_555 1_555
N9 C31 1_555 1_555
N12 C36 1_555 1_555
N14 C44 1_555 1_555
C8 C9 1_555 1_555
C12 C13 1_555 1_555
C18 C19 1_555 1_555
C22 C23 1_555 1_555
C28 C29 1_555 1_555
C32 C33 1_555 1_555
C41 C42 1_555 1_555
C45 C46 1_555 1_555
C51 C52 1_555 1_555
C55 C56 1_555 1_555
C61 C62 1_555 1_555
C65 C66 1_555 1_555

#END
