
#######################################################################
#
#                 Cambridge Crystallographic Data Centre
#                                CCDC 
#
#######################################################################
#
# If this CIF has been generated from an entry in the Cambridge 
# Structural Database, then it will include bibliographic, chemical, 
# crystal, experimental, refinement or atomic coordinate data resulting 
# from the CCDC's data processing and validation procedures.
#
#######################################################################

data_BEFJUS
_symmetry_cell_setting           orthorhombic
_symmetry_space_group_name_H-M   'P n n b'
_symmetry_Int_Tables_number      52
_space_group_name_Hall           '-P 2b 2n'
loop_
_symmetry_equiv_pos_site_id
_symmetry_equiv_pos_as_xyz
1 x,y,z
2 1/2-x,1/2+y,1/2+z
3 1/2+x,-y,1/2+z
4 x,1/2+y,-z
5 -x,-y,-z
6 1/2+x,1/2-y,1/2-z
7 1/2-x,y,1/2-z
8 -x,1/2-y,z
_cell_length_a                   13.6590(6)
_cell_length_b                   8.4270(3)
_cell_length_c                   18.6420(9)
_cell_angle_alpha                90
_cell_angle_beta                 90
_cell_angle_gamma                90
_cell_volume                     2145.78
loop_
_atom_site_label
_atom_site_type_symbol
_atom_site_fract_x
_atom_site_fract_y
_atom_site_fract_z
Th1 Th 0.37467(3) 0.42158(4) -0.041788(17)
F1 F 0.4745(4) 0.4438(8) 0.0591(3)
F2 F 0.5000 0.2500 -0.0712(4)
F3 F 0.3531(4) 0.1963(6) 0.0299(3)
O1 O 0.2148(5) 0.4907(9) -0.0891(4)
O2 O 0.1546(4) 0.4315(11) -0.1972(3)
O3 O 0.3053(6) 0.2058(8) -0.1186(4)
O4 O 0.2658(5) -0.0202(9) -0.0609(4)
O5 O 0.4077(5) 0.4943(9) -0.1696(4)
C1 C 0.1531(6) 0.4226(14) -0.1320(5)
C2 C 0.0723(8) 0.3321(13) -0.0948(6)
C3 C 0.0000 0.2500 -0.1313(8)
C4 C 0.0705(7) 0.3295(14) -0.0192(5)
C5 C 0.2798(7) 0.0616(13) -0.1157(5)
C6 C 0.2636(7) -0.0229(12) -0.1862(5)
C7 C 0.2500 0.064(2) -0.2500
C8 C 0.2633(8) -0.1856(14) -0.1880(7)
N1 N 0.0000 0.2500 0.0156(6)
N2 N 0.2500 -0.2618(19) -0.2500
H1 H 0.1236 0.3865 0.0082
H2 H 0.0000 0.2500 -0.1850
H3 H 0.2500 0.1833 -0.2500
H4 H 0.2744 -0.2468 -0.1424
H5 H 0.2500 -0.3810 -0.2500
H6 H 0.0000 0.2500 0.0697
H7 H 0.4409 0.5856 -0.1945
H8 H 0.3972 0.3991 -0.2016
C2G C -0.0723(8) 0.1679(13) -0.0948(6)
C1G C -0.1531(6) 0.0774(14) -0.1320(5)
O1G O -0.2148(5) 0.0093(9) -0.0891(4)
O2G O -0.1546(4) 0.0685(11) -0.1972(3)
C4G C -0.0705(7) 0.1705(14) -0.0192(5)
H1G H -0.1236 0.1135 0.0082
C6F C 0.2364(7) -0.0229(12) -0.3138(5)
C5F C 0.2202(7) 0.0616(13) -0.3843(5)
O3F O 0.1947(6) 0.2058(8) -0.3814(4)
O4F O 0.2342(5) -0.0202(9) -0.4391(4)
C8F C 0.2367(8) -0.1856(14) -0.3120(7)
H4F H 0.2256 -0.2468 -0.3576
F1D F 0.5255(4) 0.5562(8) -0.0591(3)
F3C F 0.3531(4) 0.6963(6) -0.0299(3)
Th1D Th 0.62533(3) 0.57842(4) 0.041788(17)
O5D O 0.5923(5) 0.5057(9) 0.1696(4)
H7D H 0.5591 0.4144 0.1945
H8D H 0.6028 0.6009 0.2016
O4C O 0.2658(5) 0.4798(9) 0.0609(4)
Th1G Th 0.62533(3) 0.07842(4) -0.041788(17)
Th1C Th 0.37467(3) -0.07842(4) 0.041788(17)
Th1G_2 Th -0.37467(3) 0.07842(4) -0.041788(17)
Th1F Th 0.12533(3) 0.42158(4) -0.458212(17)
Th1A Th 0.12533(3) -0.07842(4) -0.541788(17)
Th1C_2 Th 0.37467(3) 0.92158(4) 0.041788(17)
F2C F 0.5000 0.7500 0.0712(4)
F3D F 0.6469(4) 0.8037(6) -0.0299(3)
F3G F 0.6469(4) 0.3037(6) 0.0299(3)
O1D O 0.7852(5) 0.5093(9) 0.0891(4)
O3D O 0.6947(6) 0.7942(8) 0.1186(4)
O4G O 0.7342(5) 0.5202(9) -0.0609(4)
N3 N 0.5000 0.7500 -0.3073(8)
O6 O 0.5000 0.7500 -0.2385(9)
O7 O 0.4599(8) 0.8607(13) -0.3398(5)
O7G O 0.5401(8) 0.6393(13) -0.3398(5)
loop_
_geom_bond_atom_site_label_1
_geom_bond_atom_site_label_2
_geom_bond_site_symmetry_1
_geom_bond_site_symmetry_2
Th1 F1 1_555 1_555
F1 Th1D 1_555 1_555
F2 Th1 1_555 1_555
F3 Th1 1_555 1_555
O1 Th1 1_555 1_555
O2 C1 1_555 1_555
O3 Th1 1_555 1_555
O4 C5 1_555 1_555
O5 Th1 1_555 1_555
C1 O1 1_555 1_555
C2 C1 1_555 1_555
C3 C2 1_555 1_555
C4 C2 1_555 1_555
C5 O3 1_555 1_555
C6 C5 1_555 1_555
C7 C6 1_555 1_555
C8 C6 1_555 1_555
N1 C4 1_555 1_555
N2 C8 1_555 1_555
N3 O6 1_555 1_555
O7 N3 1_555 1_555
H1 C4 1_555 1_555
H2 C3 1_555 1_555
H3 C7 1_555 1_555
H4 C8 1_555 1_555
H5 N2 1_555 1_555
H6 N1 1_555 1_555
H7 O5 1_555 1_555
H8 O5 1_555 1_555
C2G C3 1_555 1_555
C1G C2G 1_555 1_555
O1G C1G 1_555 1_555
O2G C1G 1_555 1_555
C4G N1 1_555 1_555
H1G C4G 1_555 1_555
C6F C7 1_555 1_555
C5F C6F 1_555 1_555
O3F C5F 1_555 1_555
O4F C5F 1_555 1_555
C8F N2 1_555 1_555
H4F C8F 1_555 1_555
O7G N3 1_555 1_555
F1D Th1 1_555 1_555
F3C Th1 1_555 1_555
Th1D F1D 1_555 1_555
O5D Th1D 1_555 1_555
H7D O5D 1_555 1_555
H8D O5D 1_555 1_555
O4C Th1 1_555 1_555
Th1G F2 1_555 1_555
Th1C F3 1_555 1_555
Th1G_2 O1G 1_555 1_555
Th1F O3F 1_555 1_555
Th1A O4F 1_555 1_555
Th1C_2 F3C 1_555 1_555
F2C Th1D 1_555 1_555
F3D Th1D 1_555 1_555
F3G Th1D 1_555 1_555
O1D Th1D 1_555 1_555
O3D Th1D 1_555 1_555
O4G Th1D 1_555 1_555
O4 Th1C 1_555 1_555
C2G C4G 1_555 1_555
C6F C8F 1_555 1_555
Th1G F3G 1_555 1_555
Th1C_2 F2C 1_555 1_555

#END
