
#######################################################################
#
#                 Cambridge Crystallographic Data Centre
#                                CCDC 
#
#######################################################################
#
# If this CIF has been generated from an entry in the Cambridge 
# Structural Database, then it will include bibliographic, chemical, 
# crystal, experimental, refinement or atomic coordinate data resulting 
# from the CCDC's data processing and validation procedures.
#
#######################################################################

data_BEFJIF10
_symmetry_cell_setting           monoclinic
_symmetry_space_group_name_H-M   'P 21/c'
_symmetry_Int_Tables_number      14
_space_group_name_Hall           '-P 2ybc'
loop_
_symmetry_equiv_pos_site_id
_symmetry_equiv_pos_as_xyz
1 x,y,z
2 -x,1/2+y,1/2-z
3 -x,-y,-z
4 x,1/2-y,1/2+z
_cell_length_a                   11.692(2)
_cell_length_b                   20.665(5)
_cell_length_c                   7.360(2)
_cell_angle_alpha                90
_cell_angle_beta                 103.84(2)
_cell_angle_gamma                90
_cell_volume                     1726.66
loop_
_atom_site_label
_atom_site_type_symbol
_atom_site_fract_x
_atom_site_fract_y
_atom_site_fract_z
Mn1 Mn -0.21235(29) 0.35115(13) -0.5442(5)
S1 S 0.1061(4) 0.20176(28) -0.3606(8)
S2 S 0.2086(4) 0.3492(3) -0.3340(9)
S3 S 0.4690(4) 0.29595(29) -0.2147(9)
S4 S 0.3686(4) 0.14803(28) -0.2634(9)
O1 O -0.0987(10) 0.2614(7) -0.4675(18)
O2 O -0.0153(10) 0.3793(1) -0.4447(19)
O3 O 0.6711(10) 0.2380(7) -0.1259(20)
O4 O 0.5905(11) 0.1190(8) -0.1672(20)
C1 C 0.0125(16) 0.2657(10) -0.4174(26)
C2 C 0.0608(16) 0.3326(9) -0.4005(27)
C3 C 0.5611(16) 0.2327(9) -0.1750(26)
C4 C 0.5189(17) 0.1625(10) -0.1939(29)
O5 O -0.2426(10) 0.3468(7) -0.2683(10)
O6 O -0.1845(10) 0.3530(7) -0.8246(18)
O7 O -0.2137(11) 0.4557(5) -0.5317(21)
Cu1 Cu 0.28723(21) 0.24819(17) -0.2930(4)
O3C O -0.3289(10) 0.2620(7) -0.6259(20)
O4C O -0.4095(11) 0.3810(8) -0.6672(20)
Mn1C Mn 0.78765(29) 0.14885(13) -0.0442(5)
O8 O -0.9569(12) 0.4716(7) -0.7131(19)
O9 O -0.5755(13) 0.4691(8) -0.4055(22)
O10 O -0.8669(14) 0.4582(8) -0.0362(22)
O11 O -0.2930(12) 0.4469(8) -0.0631(21)
O12 O -0.521(3) 0.4743(16) -0.045(5)
O12B O -0.479(3) 0.5257(16) 0.045(5)
loop_
_geom_bond_atom_site_label_1
_geom_bond_atom_site_label_2
_geom_bond_site_symmetry_1
_geom_bond_site_symmetry_2
Mn1 O1 1_555 1_555
S1 C1 1_555 1_555
S2 C2 1_555 1_555
S3 C3 1_555 1_555
S4 C4 1_555 1_555
O1 C1 1_555 1_555
O2 Mn1 1_555 1_555
O3 C3 1_555 1_555
O4 C4 1_555 1_555
C1 C2 1_555 1_555
C2 O2 1_555 1_555
C3 C4 1_555 1_555
O5 Mn1 1_555 1_555
O6 Mn1 1_555 1_555
O7 Mn1 1_555 1_555
Cu1 S1 1_555 1_555
O3C Mn1 1_555 1_555
O4C Mn1 1_555 1_555
Mn1C O3 1_555 1_555
S2 Cu1 1_555 1_555
S3 Cu1 1_555 1_555
S4 Cu1 1_555 1_555
O4 Mn1C 1_555 1_555

#END
