
#######################################################################
#
#                 Cambridge Crystallographic Data Centre
#                                CCDC 
#
#######################################################################
#
# If this CIF has been generated from an entry in the Cambridge 
# Structural Database, then it will include bibliographic, chemical, 
# crystal, experimental, refinement or atomic coordinate data resulting 
# from the CCDC's data processing and validation procedures.
#
#######################################################################

data_BEFJIF
_symmetry_cell_setting           monoclinic
_symmetry_space_group_name_H-M   'P 21/c'
_symmetry_Int_Tables_number      14
_space_group_name_Hall           '-P 2ybc'
loop_
_symmetry_equiv_pos_site_id
_symmetry_equiv_pos_as_xyz
1 x,y,z
2 -x,1/2+y,1/2-z
3 -x,-y,-z
4 x,1/2-y,1/2+z
_cell_length_a                   11.692(2)
_cell_length_b                   20.665(5)
_cell_length_c                   7.360(2)
_cell_angle_alpha                90
_cell_angle_beta                 103.73
_cell_angle_gamma                90
_cell_volume                     1727.47
loop_
_atom_site_label
_atom_site_type_symbol
_atom_site_fract_x
_atom_site_fract_y
_atom_site_fract_z
Cu1 Cu 0.28723 0.25181 0.20700
Mn1 Mn -0.21235 0.14885 -0.04420
S1 S 0.10610 0.29824 0.13940
S2 S 0.20860 0.15080 0.16600
S3 S -0.53100 0.29595 -0.21470
S4 S -0.63140 0.14803 -0.26340
O1 O -0.09870 0.23860 0.03250
O2 O -0.01530 0.12070 0.05530
O3 O -0.32890 0.23800 -0.12590
O4 O -0.40950 0.11900 -0.16720
C1 C 0.01250 0.23430 0.08260
C2 C 0.06080 0.16740 0.09950
C3 C -0.43890 0.23270 -0.17500
C4 C -0.48110 0.16250 -0.19390
O5 O -0.24260 0.13320 0.23170
O6 O -0.18450 0.14700 -0.32460
O7 O -0.21370 0.04430 -0.03170
S3C S 0.46900 0.20405 0.28530
S4C S 0.36860 0.35197 0.23660
Cu1C Cu -0.71277 0.24819 -0.29300
O8 O 0.04310 0.47160 0.28690
O9 O 0.42450 0.46910 0.59450
O10 O 0.13310 0.45820 0.96380
O11 O 0.70700 0.44690 0.93690
O12 O 0.47900 0.02570 0.45500
O12B O 0.52100 -0.02570 0.54500
loop_
_geom_bond_atom_site_label_1
_geom_bond_atom_site_label_2
_geom_bond_site_symmetry_1
_geom_bond_site_symmetry_2
Cu1 S1 1_555 1_555
Mn1 O1 1_555 1_555
S1 C1 1_555 1_555
S2 Cu1 1_555 1_555
S3 C3 1_555 1_555
S4 C4 1_555 1_555
O1 C1 1_555 1_555
O2 Mn1 1_555 1_555
O3 Mn1 1_555 1_555
O4 Mn1 1_555 1_555
C1 C2 1_555 1_555
C2 S2 1_555 1_555
C3 O3 1_555 1_555
C4 O4 1_555 1_555
O5 Mn1 1_555 1_555
O6 Mn1 1_555 1_555
O7 Mn1 1_555 1_555
S3C Cu1 1_555 1_555
S4C Cu1 1_555 1_555
Cu1C S3 1_555 1_555
S4 Cu1C 1_555 1_555
O2 C2 1_555 1_555
C3 C4 1_555 1_555

#END
