
#######################################################################
#
#                 Cambridge Crystallographic Data Centre
#                                CCDC 
#
#######################################################################
#
# If this CIF has been generated from an entry in the Cambridge 
# Structural Database, then it will include bibliographic, chemical, 
# crystal, experimental, refinement or atomic coordinate data resulting 
# from the CCDC's data processing and validation procedures.
#
#######################################################################

data_BEFPIM
_symmetry_cell_setting           monoclinic
_symmetry_space_group_name_H-M   'C 2'
_symmetry_Int_Tables_number      5
_space_group_name_Hall           'C 2y'
loop_
_symmetry_equiv_pos_site_id
_symmetry_equiv_pos_as_xyz
1 x,y,z
2 -x,y,-z
3 1/2+x,1/2+y,z
4 1/2-x,1/2+y,-z
_cell_length_a                   24.0169(17)
_cell_length_b                   11.4733(8)
_cell_length_c                   23.0113(16)
_cell_angle_alpha                90
_cell_angle_beta                 113.2880(10)
_cell_angle_gamma                90
_cell_volume                     5824.24
loop_
_atom_site_label
_atom_site_type_symbol
_atom_site_fract_x
_atom_site_fract_y
_atom_site_fract_z
Cu1 Cu 0.11482(4) 0.60315(10) 0.16781(5)
Cl1 Cl 0.04585(8) 0.6348(2) 0.20350(8)
Cl2 Cl 0.05445(7) 0.43987(16) 0.08509(8)
N1 N 0.1890(2) 0.5978(5) 0.1540(2)
Cu2 Cu -0.02154(4) 0.53192(9) 0.12046(4)
Cu3 Cu 0.0000 0.56892(14) 0.0000
C1 C 0.1872(3) 0.5605(7) 0.1019(3)
C2 C 0.2453(3) 0.6297(6) 0.1994(3)
Cl3 Cl -0.06533(8) 0.66946(17) 0.03574(9)
C3 C -0.0916(3) 0.4053(5) 0.0920(2)
C4 C -0.0743(3) 0.4185(7) 0.1520(3)
H1 H 0.1489 0.5513 0.0698
C5 C 0.2364(2) 0.5317(7) 0.0871(3)
C6 C 0.2983(3) 0.6057(6) 0.1880(3)
C7 C 0.2480(3) 0.6767(7) 0.2555(4)
H2 H 0.2314 0.4975 0.0487
C8 C 0.2930(2) 0.5567(6) 0.1329(3)
C9 C 0.3548(3) 0.6365(6) 0.2377(3)
C10 C 0.3025(4) 0.7032(7) 0.3020(4)
H3 H 0.2125 0.6903 0.2615
C11 C 0.3478(3) 0.5175(6) 0.1171(3)
H4 H 0.3906 0.6255 0.2319
C12 C 0.3569(3) 0.6822(7) 0.2939(4)
H5 H 0.3041 0.7355 0.3397
O1 O 0.33328(19) 0.4371(4) 0.0695(2)
H6 H 0.3776 0.4813 0.1553
C13 C 0.3775(2) 0.6281(6) 0.1033(3)
H7 H 0.3941 0.6991 0.3263
H8 H 0.3638 0.4200 0.0636
N2 N 0.4345(2) 0.5980(5) 0.0909(2)
H9 H 0.3899 0.6784 0.1407
C14 C 0.3331(3) 0.6974(6) 0.0466(3)
C15 C 0.4652(3) 0.7185(6) 0.0964(3)
C16 C 0.4166(3) 0.5585(7) 0.0218(3)
C17 C 0.4743(3) 0.5138(6) 0.1364(3)
C18 C 0.3648(3) 0.7513(7) 0.0104(3)
H10 H 0.3018 0.6457 0.0192
H11 H 0.3138 0.7576 0.0616
H12 H 0.4815 0.7425 0.1404
H13 H 0.4990 0.7106 0.0837
C19 C 0.4233(3) 0.8135(5) 0.0569(3)
C20 C 0.3860(3) 0.6526(6) -0.0239(4)
H14 H 0.4527 0.5341 0.0159
H15 H 0.3897 0.4918 0.0135
H16 H 0.4531 0.4399 0.1297
H17 H 0.4806 0.5402 0.1786
C21 C 0.5346(3) 0.4923(5) 0.1348(3)
H18 H 0.3382 0.8069 -0.0205
H19 H 0.4430 0.8502 0.0315
H20 H 0.3513 0.6212 -0.0587
H21 H 0.4138 0.6849 -0.0409
C22 C 0.5441(3) 0.4076(7) 0.0987(3)
C23 C 0.5846(3) 0.5511(7) 0.1759(4)
H22 H 0.3826 0.9628 0.0674
H23 H 0.5104 0.3666 0.0716
C24 C 0.6025(3) 0.3760(6) 0.0991(3)
C25 C 0.6422(3) 0.5264(7) 0.1775(4)
H24 H 0.5800 0.6076 0.2026
H25 H 0.4523 0.8626 0.1807
H26 H 0.4118 0.9846 0.1680
H27 H 0.6074 0.3170 0.0738
C26 C 0.6519(3) 0.4424(8) 0.1413(4)
H28 H 0.6751 0.5693 0.2046
C27 C 0.7130(3) 0.4203(7) 0.1427(3)
H29 H 0.7455 0.4496 0.1797
C28 C 0.7293(5) 0.3828(13) 0.1056(5)
H30 H 0.7664 0.3945 0.1025
H31 H 0.7009 0.3325 0.0776
Cl3A Cl 0.06533(8) 0.66946(17) -0.03574(9)
Cl2A Cl -0.05445(7) 0.43987(16) -0.08509(8)
Cu2A Cu 0.02154(4) 0.53192(9) -0.12046(4)
Cu1A Cu -0.11482(4) 0.60315(10) -0.16781(5)
Cl1A Cl -0.04585(8) 0.6348(2) -0.20350(8)
C3A C 0.0916(3) 0.4053(5) -0.0920(2)
C4A C 0.0743(3) 0.4185(7) -0.1520(3)
N1A N -0.1890(2) 0.5978(5) -0.1540(2)
C1A C -0.1872(3) 0.5605(7) -0.1019(3)
C2A C -0.2453(3) 0.6297(6) -0.1994(3)
H1A H -0.1489 0.5513 -0.0698
C5A C -0.2364(2) 0.5317(7) -0.0871(3)
C6A C -0.2983(3) 0.6057(6) -0.1880(3)
C7A C -0.2480(3) 0.6767(7) -0.2555(4)
H2A H -0.2314 0.4975 -0.0487
C8A C -0.2930(2) 0.5567(6) -0.1329(3)
C9A C -0.3548(3) 0.6365(6) -0.2377(3)
C10A C -0.3025(4) 0.7032(7) -0.3020(4)
H3A H -0.2125 0.6903 -0.2615
C11A C -0.3478(3) 0.5175(6) -0.1171(3)
H4A H -0.3906 0.6255 -0.2319
C12A C -0.3569(3) 0.6822(7) -0.2939(4)
H5A H -0.3041 0.7355 -0.3397
O1A O -0.33328(19) 0.4371(4) -0.0695(2)
H6A H -0.3776 0.4813 -0.1553
C13A C -0.3775(2) 0.6281(6) -0.1033(3)
H7A H -0.3941 0.6991 -0.3263
C3B C 0.4084(3) 0.9053(5) 0.0920(2)
H8A H -0.3638 0.4200 -0.0636
N2A N -0.4345(2) 0.5980(5) -0.0909(2)
H9A H -0.3899 0.6784 -0.1407
C14A C -0.3331(3) 0.6974(6) -0.0466(3)
C4B C 0.4257(3) 0.9185(7) 0.1520(3)
Cu2B Cu 0.47846(4) 1.03192(9) 0.12046(4)
C15A C -0.4652(3) 0.7185(6) -0.0964(3)
C16A C -0.4166(3) 0.5585(7) -0.0218(3)
C17A C -0.4743(3) 0.5138(6) -0.1364(3)
C18A C -0.3648(3) 0.7513(7) -0.0104(3)
H10A H -0.3018 0.6457 -0.0192
H11A H -0.3138 0.7576 -0.0616
H12A H -0.4815 0.7425 -0.1404
H13A H -0.4990 0.7106 -0.0837
C19A C -0.4233(3) 0.8135(5) -0.0569(3)
C20A C -0.3860(3) 0.6526(6) 0.0239(4)
H14A H -0.4527 0.5341 -0.0159
H15A H -0.3897 0.4918 -0.0135
H16A H -0.4531 0.4399 -0.1297
H17A H -0.4806 0.5402 -0.1786
C21A C -0.5346(3) 0.4923(5) -0.1348(3)
H18A H -0.3382 0.8069 0.0205
H19A H -0.4430 0.8502 -0.0315
C3C C -0.4084(3) 0.9053(5) -0.0920(2)
H20A H -0.3513 0.6212 0.0587
H21A H -0.4138 0.6849 0.0409
C22A C -0.5441(3) 0.4076(7) -0.0987(3)
C23A C -0.5846(3) 0.5511(7) -0.1759(4)
H22A H -0.3826 0.9628 -0.0674
C4C C -0.4257(3) 0.9185(7) -0.1520(3)
Cu2C Cu -0.47846(4) 1.03192(9) -0.12046(4)
H23A H -0.5104 0.3666 -0.0716
C24A C -0.6025(3) 0.3760(6) -0.0991(3)
C25A C -0.6422(3) 0.5264(7) -0.1775(4)
H24A H -0.5800 0.6076 -0.2026
H25A H -0.4523 0.8626 -0.1807
H26A H -0.4118 0.9846 -0.1680
H27A H -0.6074 0.3170 -0.0738
C26A C -0.6519(3) 0.4424(8) -0.1413(4)
H28A H -0.6751 0.5693 -0.2046
C27A C -0.7130(3) 0.4203(7) -0.1427(3)
H29A H -0.7455 0.4496 -0.1797
C28A C -0.7293(5) 0.3828(13) -0.1056(5)
H30A H -0.7664 0.3945 -0.1025
H31A H -0.7009 0.3325 -0.0776
C29 C -0.1317(3) 0.7237(10) 0.1249(3)
H32 H -0.1075 0.6602 0.1193
H33 H -0.1311 0.7896 0.0987
O2 O -0.1149(4) 0.7548(9) 0.1900(3)
H34 H -0.0835 0.7147 0.2106
C30 C -0.1921(3) 0.6884(11) 0.1156(5)
H35 H -0.2133 0.6628 0.0727
H36 H -0.2132 0.7531 0.1239
H37 H -0.1901 0.6257 0.1440
C31? C 0.7620(4) 0.450(2) 0.1543(12)
H38? H 0.7818 0.4271 0.1286
H39? H 0.7819 0.4973 0.1893
H40? H 0.7091 0.3514 0.1176
Cl4? Cl 0.02046(11) 1.2000(2) 0.28299(12)
Cu4? Cu 0.0805(3) 1.1816(7) 0.3645(3)
Cu5? Cu 0.00502(11) 0.8988(3) 0.48261(13)
Cl5? Cl -0.02793(19) 0.7575(5) 0.4516(2)
H41? H -0.3836 1.3564 0.3183
H42? H -0.3732 1.4690 0.3743
H43? H -0.3913 1.3133 0.2879
H44? H -0.3887 1.4525 0.2692
H45? H -0.3924 1.5456 0.3811
H46? H -0.3763 1.5450 0.3171
C32? C -0.6893(3) 1.002(3) 0.3395(6)
C33? C -0.7137(8) 0.979(3) 0.3722(8)
H47? H -0.6913 0.9608 0.4145
H48? H -0.7558 0.9785 0.3564
C34? C -0.3909(8) 1.394(2) 0.2982(4)
H49? H -0.7126 1.0204 0.2974
Cu6? Cu -0.08595(5) 0.90598(14) 0.33579(8)
Cu7? Cu 0.03657(8) 1.0024(2) 0.32505(9)
Cl6? Cl -0.04947(10) 0.8685(2) 0.26599(12)
Cl7? Cl -0.00335(12) 1.0249(3) 0.41474(14)
Cu8? Cu 0.06232(13) 1.1848(3) 0.39715(14)
Cl8? Cl 0.13533(18) 1.2367(4) 0.4830(2)
O3? O -0.2948(2) 0.9389(6) 0.4699(2)
H50? H -0.2780 0.8754 0.4799
N3? N -0.1586(2) 0.9219(6) 0.3539(3)
N4? N -0.4051(2) 1.0845(6) 0.3926(2)
C35? C -0.1562(3) 0.9591(6) 0.4077(4)
H51? H -0.1181 0.9803 0.4372
C36? C -0.2030(3) 0.9707(6) 0.4259(3)
H52? H -0.1959 0.9967 0.4664
C37? C -0.2606(3) 0.9444(7) 0.3849(3)
C38? C -0.2672(3) 0.9005(6) 0.3227(3)
C39? C -0.3244(4) 0.8657(7) 0.2742(4)
H53? H -0.3600 0.8723 0.2809
C40? C -0.3258(4) 0.8213(8) 0.2160(4)
H54? H -0.3627 0.7992 0.1847
C41? C -0.2744(4) 0.8104(8) 0.2050(4)
H55? H -0.2756 0.7794 0.1671
C42? C -0.2251(4) 0.8433(7) 0.2475(4)
H56? H -0.1907 0.8362 0.2384
C43? C -0.2162(3) 0.8892(7) 0.3065(4)
C44? C -0.3145(3) 0.9545(8) 0.4033(3)
H57? H -0.3435 0.8927 0.3818
C45? C -0.3459(3) 1.0724(7) 0.3828(3)
H58? H -0.3559 1.0806 0.3374
C46? C -0.3057(3) 1.1762(8) 0.4159(4)
H59? H -0.2672 1.1475 0.4460
H60? H -0.2979 1.2225 0.3847
C47? C -0.3336(3) 1.2513(7) 0.4493(3)
H61? H -0.3049 1.3131 0.4716
C48? C -0.3903(3) 1.3067(6) 0.3998(3)
H62? H -0.4116 1.3456 0.4230
C49? C -0.3841(4) 1.3932(5) 0.3555(3)
C50? C -0.3813(11) 1.5039(8) 0.3510(12)
C51? C -0.4302(3) 1.2013(7) 0.3650(3)
H63? H -0.4701 1.2102 0.3657
H64? H -0.4352 1.2028 0.3210
C52? C -0.3935(3) 1.0835(8) 0.4634(3)
H65? H -0.4313 1.0966 0.4684
H66? H -0.3777 1.0081 0.4815
C53? C -0.3479(4) 1.1793(9) 0.4977(4)
H67? H -0.3110 1.1445 0.5278
H68? H -0.3647 1.2293 0.5207
C54? C -0.4470(3) 0.9857(7) 0.3583(3)
H69? H -0.4295 0.9127 0.3786
H70? H -0.4500 0.9828 0.3151
C55? C -0.5119(3) 0.9975(8) 0.3575(3)
C56? C -0.5251(3) 0.9354(7) 0.4023(4)
H71? H -0.4956 0.8897 0.4322
C57? C -0.5830(3) 0.9423(8) 0.4018(4)
H72? H -0.5919 0.9006 0.4318
C58? C -0.6247(3) 1.0048(9) 0.3612(4)
C59? C -0.6118(3) 1.0594(8) 0.3170(4)
H73? H -0.6419 1.1038 0.2869
C60? C -0.5555(3) 1.0529(8) 0.3139(3)
H74? H -0.5490 1.0881 0.2807
C61? C -0.6810(3) 1.0085(11) 0.3689(5)
H75? H -0.6840 0.9620 0.4006
C62? C -0.7231(5) 1.0635(11) 0.3396(7)
H76? H -0.7224 1.1114 0.3073
H77? H -0.7578 1.0598 0.3483
loop_
_geom_bond_atom_site_label_1
_geom_bond_atom_site_label_2
_geom_bond_site_symmetry_1
_geom_bond_site_symmetry_2
Cu1 Cl1 1_555 1_555
Cl1 Cu2 1_555 1_555
Cl2 Cu1 1_555 1_555
N1 Cu1 1_555 1_555
Cu2 Cl2 1_555 1_555
Cu3 Cl2 1_555 1_555
C1 N1 1_555 1_555
C2 N1 1_555 1_555
Cl3 Cu2 1_555 1_555
C3 Cu2 1_555 1_555
C4 Cu2 1_555 1_555
H1 C1 1_555 1_555
C5 C1 1_555 1_555
C6 C2 1_555 1_555
C7 C2 1_555 1_555
H2 C5 1_555 1_555
C8 C5 1_555 1_555
C9 C6 1_555 1_555
C10 C7 1_555 1_555
H3 C7 1_555 1_555
C11 C8 1_555 1_555
H4 C9 1_555 1_555
C12 C9 1_555 1_555
H5 C10 1_555 1_555
O1 C11 1_555 1_555
H6 C11 1_555 1_555
C13 C11 1_555 1_555
H7 C12 1_555 1_555
H8 O1 1_555 1_555
N2 C13 1_555 1_555
H9 C13 1_555 1_555
C14 C13 1_555 1_555
C15 N2 1_555 1_555
C16 N2 1_555 1_555
C17 N2 1_555 1_555
C18 C14 1_555 1_555
H10 C14 1_555 1_555
H11 C14 1_555 1_555
H12 C15 1_555 1_555
H13 C15 1_555 1_555
C19 C15 1_555 1_555
C20 C16 1_555 1_555
H14 C16 1_555 1_555
H15 C16 1_555 1_555
H16 C17 1_555 1_555
H17 C17 1_555 1_555
C21 C17 1_555 1_555
H18 C18 1_555 1_555
H19 C19 1_555 1_555
H20 C20 1_555 1_555
H21 C20 1_555 1_555
C22 C21 1_555 1_555
C23 C21 1_555 1_555
H22 C3B 1_555 1_555
H23 C22 1_555 1_555
C24 C22 1_555 1_555
C25 C23 1_555 1_555
H24 C23 1_555 1_555
H25 C4B 1_555 1_555
H26 C4B 1_555 1_555
H27 C24 1_555 1_555
C26 C24 1_555 1_555
H28 C25 1_555 1_555
C27 C26 1_555 1_555
H29 C27 1_555 1_555
C28 C27 1_555 1_555
H30 C28 1_555 1_555
H31 C28 1_555 1_555
C29 H32 1_555 1_555
H33 C29 1_555 1_555
O2 C29 1_555 1_555
H34 O2 1_555 1_555
C30 C29 1_555 1_555
H35 C30 1_555 1_555
H36 C30 1_555 1_555
H37 C30 1_555 1_555
Cl3A Cu3 1_555 1_555
Cl2A Cu3 1_555 1_555
Cu2A Cl3A 1_555 1_555
Cu1A Cl2A 1_555 1_555
Cl1A Cu2A 1_555 1_555
C3A Cu2A 1_555 1_555
C4A Cu2A 1_555 1_555
N1A Cu1A 1_555 1_555
C1A N1A 1_555 1_555
C2A N1A 1_555 1_555
H1A C1A 1_555 1_555
C5A C1A 1_555 1_555
C6A C2A 1_555 1_555
C7A C2A 1_555 1_555
H2A C5A 1_555 1_555
C8A C5A 1_555 1_555
C9A C6A 1_555 1_555
C10A C7A 1_555 1_555
H3A C7A 1_555 1_555
C11A C8A 1_555 1_555
H4A C9A 1_555 1_555
C12A C9A 1_555 1_555
H5A C10A 1_555 1_555
O1A C11A 1_555 1_555
H6A C11A 1_555 1_555
C13A C11A 1_555 1_555
H7A C12A 1_555 1_555
C3B C19 1_555 1_555
H8A O1A 1_555 1_555
N2A C13A 1_555 1_555
H9A C13A 1_555 1_555
C14A C13A 1_555 1_555
C4B C3B 1_555 1_555
Cu2B C3B 1_555 1_555
C15A N2A 1_555 1_555
C16A N2A 1_555 1_555
C17A N2A 1_555 1_555
C18A C14A 1_555 1_555
H10A C14A 1_555 1_555
H11A C14A 1_555 1_555
H12A C15A 1_555 1_555
H13A C15A 1_555 1_555
C19A C15A 1_555 1_555
C20A C16A 1_555 1_555
H14A C16A 1_555 1_555
H15A C16A 1_555 1_555
H16A C17A 1_555 1_555
H17A C17A 1_555 1_555
C21A C17A 1_555 1_555
H18A C18A 1_555 1_555
H19A C19A 1_555 1_555
C3C C19A 1_555 1_555
H20A C20A 1_555 1_555
H21A C20A 1_555 1_555
C22A C21A 1_555 1_555
C23A C21A 1_555 1_555
H22A C3C 1_555 1_555
C4C C3C 1_555 1_555
Cu2C C3C 1_555 1_555
H23A C22A 1_555 1_555
C24A C22A 1_555 1_555
C25A C23A 1_555 1_555
H24A C23A 1_555 1_555
H25A C4C 1_555 1_555
H26A C4C 1_555 1_555
H27A C24A 1_555 1_555
C26A C24A 1_555 1_555
H28A C25A 1_555 1_555
C27A C26A 1_555 1_555
H29A C27A 1_555 1_555
C28A C27A 1_555 1_555
H30A C28A 1_555 1_555
H31A C28A 1_555 1_555
Cu3 Cl3 1_555 1_555
C3 C4 1_555 1_555
C6 C8 1_555 1_555
C10 C12 1_555 1_555
C18 C19 1_555 1_555
C18 C20 1_555 1_555
C25 C26 1_555 1_555
Cl2A Cu2A 1_555 1_555
Cu1A Cl1A 1_555 1_555
C3A C4A 1_555 1_555
C6A C8A 1_555 1_555
C10A C12A 1_555 1_555
C4B Cu2B 1_555 1_555
C18A C19A 1_555 1_555
C18A C20A 1_555 1_555
C4C Cu2C 1_555 1_555
C25A C26A 1_555 1_555

#END
