
#######################################################################
#
#                 Cambridge Crystallographic Data Centre
#                                CCDC 
#
#######################################################################
#
# If this CIF has been generated from an entry in the Cambridge 
# Structural Database, then it will include bibliographic, chemical, 
# crystal, experimental, refinement or atomic coordinate data resulting 
# from the CCDC's data processing and validation procedures.
#
#######################################################################

data_BEFQOU
_symmetry_cell_setting           monoclinic
_symmetry_space_group_name_H-M   'P 21/c'
_symmetry_Int_Tables_number      14
_space_group_name_Hall           '-P 2ybc'
loop_
_symmetry_equiv_pos_site_id
_symmetry_equiv_pos_as_xyz
1 x,y,z
2 -x,1/2+y,1/2-z
3 -x,-y,-z
4 x,1/2-y,1/2+z
_cell_length_a                   11.0215(10)
_cell_length_b                   9.2494(9)
_cell_length_c                   15.1890(14)
_cell_angle_alpha                90
_cell_angle_beta                 93.1170(10)
_cell_angle_gamma                90
_cell_volume                     1546.11
loop_
_atom_site_label
_atom_site_type_symbol
_atom_site_fract_x
_atom_site_fract_y
_atom_site_fract_z
Pr1 Pr 1.59751(2) 0.76450(2) 0.385204(16)
P1 P 1.35807(11) 0.83952(13) 0.54660(7)
P2 P 0.94391(11) 0.80402(13) 0.39669(7)
O1 O 1.4608(3) 0.7693(3) 0.5038(2)
O2 O 1.3517(3) 0.7642(4) 0.6410(2)
O3 O 1.3542(3) 0.9989(4) 0.5556(2)
O4 O 0.9798(3) 0.9606(3) 0.39848(19)
O5 O 0.8129(3) 0.7656(3) 0.3863(2)
O6 O 1.0177(3) 0.7242(4) 0.3257(3)
H1 H 0.9718 0.6721 0.2956
O7 O 1.4408(3) 0.5724(4) 0.3484(2)
O8 O 1.3732(3) 0.3999(4) 0.2560(2)
O9 O 1.6495(3) 0.5821(4) 0.2671(2)
O10 O 1.5829(3) 0.4105(4) 0.1740(2)
O11 O 1.6591(4) 0.5511(5) 0.4846(3)
H2 H 1.6522 0.5747 0.5382
H3 H 1.6128 0.4798 0.4719
N1 N 1.1091(3) 0.7887(4) 0.5450(2)
H10 H 1.0939 0.8834 0.5565
C1 C 1.2171(4) 0.7819(5) 0.4884(3)
H11 H 1.2018 0.8431 0.4371
H12 H 1.2267 0.6835 0.4679
C2 C 0.9973(5) 0.7250(5) 0.5010(4)
H13 H 0.9323 0.7321 0.5415
H14 H 1.0121 0.6229 0.4915
C3 C 1.1358(5) 0.7131(6) 0.6315(3)
H15 H 1.0635 0.7139 0.6652
H16 H 1.1568 0.6131 0.6205
C4 C 1.2380(5) 0.7843(6) 0.6841(3)
H17 H 1.2214 0.8868 0.6897
H18 H 1.2450 0.7428 0.7428
C5 C 1.4519(4) 0.4886(5) 0.2854(3)
C6 C 1.5713(4) 0.4945(5) 0.2375(3)
Pr1B Pr 1.40249(2) 1.23550(2) 0.614796(16)
Pr1_2 Pr 0.59751(2) 0.76450(2) 0.385204(16)
Pr1A Pr 1.40249(2) 0.26450(2) 0.114796(16)
Pr1B_2 Pr 2.40249(2) 1.23550(2) 0.614796(16)
Pr1C Pr 1.59751(2) 1.73550(2) 0.885204(16)
P1B P 1.64193(11) 1.16048(13) 0.45340(7)
P2B P 2.05609(11) 1.19598(13) 0.60331(7)
O1B O 1.5392(3) 1.2307(3) 0.4962(2)
O2B O 1.6483(3) 1.2358(4) 0.3590(2)
O3B O 1.6458(3) 1.0011(4) 0.4444(2)
O4B O 2.0202(3) 1.0394(3) 0.60152(19)
O5B O 2.1871(3) 1.2344(3) 0.6137(2)
O5_2 O 1.8129(3) 0.7656(3) 0.3863(2)
O5B_2 O 1.1871(3) 1.2344(3) 0.6137(2)
O6B O 1.9823(3) 1.2758(4) 0.6743(3)
H1B H 2.0282 1.3279 0.7044
O7B O 1.5592(3) 1.4276(4) 0.6516(2)
O8B O 1.6268(3) 1.6001(4) 0.7440(2)
O8A O 1.6268(3) 0.8999(4) 0.2440(2)
O8C O 1.3732(3) 1.1001(4) 0.7560(2)
O9B O 1.3505(3) 1.4179(4) 0.7329(2)
O10B O 1.4171(3) 1.5895(4) 0.8260(2)
O10A O 1.4171(3) 0.9105(4) 0.3260(2)
O10C O 1.5829(3) 1.0895(4) 0.6740(2)
O11B O 1.3409(4) 1.4489(5) 0.5154(3)
H2B H 1.3478 1.4253 0.4618
H3B H 1.3872 1.5202 0.5281
N1B N 1.8909(3) 1.2113(4) 0.4550(2)
H10B H 1.9061 1.1166 0.4435
C1B C 1.7829(4) 1.2181(5) 0.5116(3)
H11B H 1.7982 1.1569 0.5629
H12B H 1.7733 1.3165 0.5321
C2B C 2.0027(5) 1.2750(5) 0.4990(4)
H13B H 2.0677 1.2679 0.4585
H14B H 1.9879 1.3771 0.5085
C3B C 1.8642(5) 1.2869(6) 0.3685(3)
H15B H 1.9365 1.2861 0.3348
H16B H 1.8432 1.3869 0.3795
C4B C 1.7620(5) 1.2157(6) 0.3159(3)
H17B H 1.7786 1.1132 0.3103
H18B H 1.7550 1.2572 0.2572
C5B C 1.5481(4) 1.5114(5) 0.7146(3)
C6B C 1.4287(4) 1.5055(5) 0.7625(3)
O12 O 0.8885(4) 0.5603(6) 0.2313(3)
H4 H 0.8592 0.6259 0.1972
H5 H 0.8868 0.4798 0.2042
O13 O 1.1730(7) 0.4354(10) 0.3612(5)
H6 H 1.1200 0.4772 0.3274
H7 H 1.1888 0.3526 0.3403
O14 O 1.7193(9) 0.7910(11) 0.5820(8)
H8 H 1.7272 0.8800 0.5950
H9 H 1.6735 0.7507 0.6180
loop_
_geom_bond_atom_site_label_1
_geom_bond_atom_site_label_2
_geom_bond_site_symmetry_1
_geom_bond_site_symmetry_2
Pr1 O1 1_555 1_555
P1 O1 1_555 1_555
P2 O4 1_555 1_555
O2 P1 1_555 1_555
O3 P1 1_555 1_555
O5 P2 1_555 1_555
O6 P2 1_555 1_555
H1 O6 1_555 1_555
O7 Pr1 1_555 1_555
O8 C5 1_555 1_555
O9 Pr1 1_555 1_555
O10 C6 1_555 1_555
O11 Pr1 1_555 1_555
H2 O11 1_555 1_555
H3 O11 1_555 1_555
O12 H4 1_555 1_555
H5 O12 1_555 1_555
O13 H6 1_555 1_555
H7 O13 1_555 1_555
O14 H8 1_555 1_555
H9 O14 1_555 1_555
N1 H10 1_555 1_555
C1 P1 1_555 1_555
H11 C1 1_555 1_555
H12 C1 1_555 1_555
C2 P2 1_555 1_555
H13 C2 1_555 1_555
H14 C2 1_555 1_555
C3 N1 1_555 1_555
H15 C3 1_555 1_555
H16 C3 1_555 1_555
C4 O2 1_555 1_555
H17 C4 1_555 1_555
H18 C4 1_555 1_555
C5 O7 1_555 1_555
C6 O9 1_555 1_555
Pr1B O3 1_555 1_555
Pr1_2 O5 1_555 1_555
Pr1A O8 1_555 1_555
Pr1B_2 O5B 1_555 1_555
Pr1C O8B 1_555 1_555
P1B O1B 1_555 1_555
P2B O4B 1_555 1_555
O1B Pr1B 1_555 1_555
O2B P1B 1_555 1_555
O3B Pr1 1_555 1_555
O5B P2B 1_555 1_555
O5_2 Pr1 1_555 1_555
O5B_2 Pr1B 1_555 1_555
O6B P2B 1_555 1_555
H1B O6B 1_555 1_555
O7B Pr1B 1_555 1_555
O8B C5B 1_555 1_555
O8A Pr1 1_555 1_555
O8C Pr1B 1_555 1_555
O9B Pr1B 1_555 1_555
O10B Pr1C 1_555 1_555
O10A Pr1 1_555 1_555
O10C Pr1B 1_555 1_555
O11B Pr1B 1_555 1_555
H2B O11B 1_555 1_555
H3B O11B 1_555 1_555
N1B H10B 1_555 1_555
C1B P1B 1_555 1_555
H11B C1B 1_555 1_555
H12B C1B 1_555 1_555
C2B P2B 1_555 1_555
H13B C2B 1_555 1_555
H14B C2B 1_555 1_555
C3B N1B 1_555 1_555
H15B C3B 1_555 1_555
H16B C3B 1_555 1_555
C4B O2B 1_555 1_555
H17B C4B 1_555 1_555
H18B C4B 1_555 1_555
C5B O7B 1_555 1_555
C6B O9B 1_555 1_555
O10 Pr1A 1_555 1_555
N1 C1 1_555 1_555
N1 C2 1_555 1_555
C3 C4 1_555 1_555
C5 C6 1_555 1_555
P1B O3B 1_555 1_555
O10B C6B 1_555 1_555
N1B C1B 1_555 1_555
N1B C2B 1_555 1_555
C3B C4B 1_555 1_555
C5B C6B 1_555 1_555

#END
