
#######################################################################
#
#                 Cambridge Crystallographic Data Centre
#                                CCDC 
#
#######################################################################
#
# If this CIF has been generated from an entry in the Cambridge 
# Structural Database, then it will include bibliographic, chemical, 
# crystal, experimental, refinement or atomic coordinate data resulting 
# from the CCDC's data processing and validation procedures.
#
#######################################################################

data_BEFRIP
_symmetry_cell_setting           monoclinic
_symmetry_space_group_name_H-M   'P 21/c'
_symmetry_Int_Tables_number      14
_space_group_name_Hall           '-P 2ybc'
loop_
_symmetry_equiv_pos_site_id
_symmetry_equiv_pos_as_xyz
1 x,y,z
2 -x,1/2+y,1/2-z
3 -x,-y,-z
4 x,1/2-y,1/2+z
_cell_length_a                   10.9419(4)
_cell_length_b                   9.1270(4)
_cell_length_c                   15.2352(6)
_cell_angle_alpha                90
_cell_angle_beta                 93.0170(10)
_cell_angle_gamma                90
_cell_volume                     1519.38
loop_
_atom_site_label
_atom_site_type_symbol
_atom_site_fract_x
_atom_site_fract_y
_atom_site_fract_z
Sm1 Sm 1.596918(18) 0.76881(2) 0.381196(14)
P1 P 1.36308(10) 0.84099(12) 0.54373(7)
P2 P 0.94308(10) 0.80834(14) 0.39306(8)
O1 O 1.4698(3) 0.7756(4) 0.5014(2)
O2 O 1.3557(3) 0.7607(4) 0.6366(2)
O3 O 1.3541(3) 1.0021(4) 0.5557(2)
O4 O 0.9776(3) 0.9666(4) 0.4006(2)
O5 O 0.8104(3) 0.7674(4) 0.3854(2)
O6 O 1.0125(4) 0.7365(5) 0.3167(3)
H1 H 1.0396 0.8053 0.2853
O7 O 1.4399(3) 0.5793(4) 0.3479(2)
O8 O 1.3694(3) 0.4080(4) 0.2539(2)
O9 O 1.6505(3) 0.5866(4) 0.2679(2)
O10 O 1.5825(3) 0.4103(4) 0.1757(2)
O11 O 1.6627(4) 0.5662(5) 0.4837(3)
H2 H 1.6557 0.5898 0.5373
H3 H 1.6163 0.4949 0.4709
N1 N 1.1142(3) 0.7822(4) 0.5380(3)
H4 H 1.0960 0.8771 0.5510
C1 C 1.2241(4) 0.7801(5) 0.4829(3)
H5 H 1.2090 0.8444 0.4327
H6 H 1.2370 0.6816 0.4607
C2 C 1.0039(5) 0.7156(6) 0.4920(4)
H7 H 0.9394 0.7074 0.5332
H8 H 1.0251 0.6166 0.4746
C3 C 1.1397(4) 0.7026(6) 0.6239(3)
H9 H 1.0655 0.6990 0.6562
H10 H 1.1638 0.6025 0.6115
C4 C 1.2404(4) 0.7765(6) 0.6781(3)
H11 H 1.2210 0.8797 0.6850
H12 H 1.2465 0.7319 0.7360
C5 C 1.4491(4) 0.4943(5) 0.2843(3)
C6 C 1.5716(4) 0.4969(5) 0.2377(3)
Sm1B Sm 1.403082(18) 1.23119(2) 0.618804(14)
Sm1_2 Sm 0.596918(18) 0.76881(2) 0.381196(14)
Sm1A Sm 1.403082(18) 0.26881(2) 0.118804(14)
Sm1B_2 Sm 2.403082(18) 1.23119(2) 0.618804(14)
Sm1C Sm 1.596918(18) 1.73119(2) 0.881196(14)
P1B P 1.63692(10) 1.15901(12) 0.45627(7)
P2B P 2.05692(10) 1.19166(14) 0.60694(8)
O1B O 1.5302(3) 1.2244(4) 0.4986(2)
O2B O 1.6443(3) 1.2393(4) 0.3634(2)
O3B O 1.6459(3) 0.9979(4) 0.4443(2)
O4B O 2.0224(3) 1.0334(4) 0.5994(2)
O5B O 2.1896(3) 1.2326(4) 0.6146(2)
O5_2 O 1.8104(3) 0.7674(4) 0.3854(2)
O5B_2 O 1.1896(3) 1.2326(4) 0.6146(2)
O6B O 1.9875(4) 1.2635(5) 0.6833(3)
H1B H 1.9604 1.1947 0.7147
O7B O 1.5601(3) 1.4207(4) 0.6521(2)
O8B O 1.6306(3) 1.5920(4) 0.7461(2)
O8A O 1.6306(3) 0.9080(4) 0.2461(2)
O8C O 1.3694(3) 1.0920(4) 0.7539(2)
O9B O 1.3495(3) 1.4134(4) 0.7321(2)
O10B O 1.4175(3) 1.5897(4) 0.8243(2)
O10A O 1.4175(3) 0.9103(4) 0.3243(2)
O10C O 1.5825(3) 1.0897(4) 0.6757(2)
O11B O 1.3373(4) 1.4338(5) 0.5163(3)
H2B H 1.3443 1.4102 0.4627
H3B H 1.3837 1.5051 0.5291
N1B N 1.8858(3) 1.2178(4) 0.4620(3)
H4B H 1.9040 1.1229 0.4490
C1B C 1.7759(4) 1.2199(5) 0.5171(3)
H5B H 1.7910 1.1556 0.5673
H6B H 1.7630 1.3184 0.5393
C2B C 1.9961(5) 1.2844(6) 0.5080(4)
H7B H 2.0606 1.2926 0.4668
H8B H 1.9749 1.3834 0.5254
C3B C 1.8603(4) 1.2974(6) 0.3761(3)
H9B H 1.9345 1.3010 0.3438
H10B H 1.8362 1.3975 0.3885
C4B C 1.7596(4) 1.2235(6) 0.3219(3)
H11B H 1.7790 1.1203 0.3150
H12B H 1.7535 1.2681 0.2640
C5B C 1.5509(4) 1.5057(5) 0.7157(3)
C6B C 1.4284(4) 1.5031(5) 0.7623(3)
O12 O 0.8772(6) 0.6078(8) 0.2040(5)
H13 H 0.8327 0.6009 0.2479
H14 H 0.8755 0.5273 0.1769
O13 O 1.1802(7) 0.4195(11) 0.3701(5)
H15 H 1.1271 0.4613 0.3363
H16 H 1.1960 0.3367 0.3492
loop_
_geom_bond_atom_site_label_1
_geom_bond_atom_site_label_2
_geom_bond_site_symmetry_1
_geom_bond_site_symmetry_2
Sm1 O1 1_555 1_555
P1 O1 1_555 1_555
P2 O4 1_555 1_555
O2 P1 1_555 1_555
O3 P1 1_555 1_555
O5 P2 1_555 1_555
O6 P2 1_555 1_555
H1 O6 1_555 1_555
O7 Sm1 1_555 1_555
O8 C5 1_555 1_555
O9 Sm1 1_555 1_555
O10 C6 1_555 1_555
O11 Sm1 1_555 1_555
H2 O11 1_555 1_555
H3 O11 1_555 1_555
N1 H4 1_555 1_555
C1 P1 1_555 1_555
H5 C1 1_555 1_555
H6 C1 1_555 1_555
C2 P2 1_555 1_555
H7 C2 1_555 1_555
H8 C2 1_555 1_555
C3 N1 1_555 1_555
H9 C3 1_555 1_555
H10 C3 1_555 1_555
C4 O2 1_555 1_555
H11 C4 1_555 1_555
H12 C4 1_555 1_555
C5 O7 1_555 1_555
C6 O9 1_555 1_555
O12 H13 1_555 1_555
H14 O12 1_555 1_555
O13 H15 1_555 1_555
H16 O13 1_555 1_555
Sm1B O3 1_555 1_555
Sm1_2 O5 1_555 1_555
Sm1A O8 1_555 1_555
Sm1B_2 O5B 1_555 1_555
Sm1C O8B 1_555 1_555
P1B O1B 1_555 1_555
P2B O4B 1_555 1_555
O1B Sm1B 1_555 1_555
O2B P1B 1_555 1_555
O3B Sm1 1_555 1_555
O5B P2B 1_555 1_555
O5_2 Sm1 1_555 1_555
O5B_2 Sm1B 1_555 1_555
O6B P2B 1_555 1_555
H1B O6B 1_555 1_555
O7B Sm1B 1_555 1_555
O8B C5B 1_555 1_555
O8A Sm1 1_555 1_555
O8C Sm1B 1_555 1_555
O9B Sm1B 1_555 1_555
O10B Sm1C 1_555 1_555
O10A Sm1 1_555 1_555
O10C Sm1B 1_555 1_555
O11B Sm1B 1_555 1_555
H2B O11B 1_555 1_555
H3B O11B 1_555 1_555
N1B H4B 1_555 1_555
C1B P1B 1_555 1_555
H5B C1B 1_555 1_555
H6B C1B 1_555 1_555
C2B P2B 1_555 1_555
H7B C2B 1_555 1_555
H8B C2B 1_555 1_555
C3B N1B 1_555 1_555
H9B C3B 1_555 1_555
H10B C3B 1_555 1_555
C4B O2B 1_555 1_555
H11B C4B 1_555 1_555
H12B C4B 1_555 1_555
C5B O7B 1_555 1_555
C6B O9B 1_555 1_555
O10 Sm1A 1_555 1_555
N1 C1 1_555 1_555
N1 C2 1_555 1_555
C3 C4 1_555 1_555
C5 C6 1_555 1_555
P1B O3B 1_555 1_555
O10B C6B 1_555 1_555
N1B C1B 1_555 1_555
N1B C2B 1_555 1_555
C3B C4B 1_555 1_555
C5B C6B 1_555 1_555

#END
