
#######################################################################
#
#                 Cambridge Crystallographic Data Centre
#                                CCDC 
#
#######################################################################
#
# If this CIF has been generated from an entry in the Cambridge 
# Structural Database, then it will include bibliographic, chemical, 
# crystal, experimental, refinement or atomic coordinate data resulting 
# from the CCDC's data processing and validation procedures.
#
#######################################################################

data_BEFREL
_symmetry_cell_setting           monoclinic
_symmetry_space_group_name_H-M   'P 21/c'
_symmetry_Int_Tables_number      14
_space_group_name_Hall           '-P 2ybc'
loop_
_symmetry_equiv_pos_site_id
_symmetry_equiv_pos_as_xyz
1 x,y,z
2 -x,1/2+y,1/2-z
3 -x,-y,-z
4 x,1/2-y,1/2+z
_cell_length_a                   10.8542(18)
_cell_length_b                   9.0738(15)
_cell_length_c                   15.250(3)
_cell_angle_alpha                90
_cell_angle_beta                 92.902(2)
_cell_angle_gamma                90
_cell_volume                     1500.03
loop_
_atom_site_label
_atom_site_type_symbol
_atom_site_fract_x
_atom_site_fract_y
_atom_site_fract_z
Tb1 Tb 1.59653(3) 0.77597(3) 0.378058(18)
P1 P 1.36486(14) 0.8407(2) 0.54110(10)
P2 P 0.94156(14) 0.8143(2) 0.38900(10)
O1 O 1.4737(4) 0.7810(5) 0.4987(3)
O2 O 1.3571(4) 0.7541(5) 0.6312(3)
O3 O 1.3521(4) 1.0010(5) 0.5567(3)
O4 O 0.9754(4) 0.9727(5) 0.4022(3)
O5 O 0.8090(4) 0.7724(5) 0.3822(3)
O6 O 1.0106(4) 0.7550(6) 0.3088(3)
H1 H 0.9640 0.7026 0.2785
O7 O 1.4373(4) 0.5945(6) 0.3437(3)
O8 O 1.3671(4) 0.4182(5) 0.2516(3)
O9 O 1.6498(4) 0.5975(5) 0.2654(3)
O10 O 1.5817(4) 0.4171(5) 0.1754(3)
O11 O 1.6562(5) 0.5674(6) 0.4724(3)
H2 H 1.6493 0.5910 0.5260
H3 H 1.6098 0.4961 0.4597
N1 N 1.1150(4) 0.7775(6) 0.5316(3)
H8 H 1.0952 0.8717 0.5456
C1 C 1.2284(5) 0.7815(8) 0.4782(4)
H9 H 1.2137 0.8480 0.4290
H10 H 1.2427 0.6840 0.4548
C2 C 1.0070(6) 0.7104(8) 0.4823(4)
H11 H 0.9426 0.6947 0.5231
H12 H 1.0315 0.6143 0.4614
C3 C 1.1401(6) 0.6923(8) 0.6162(4)
H13 H 1.0649 0.6864 0.6478
H14 H 1.1653 0.5927 0.6025
C4 C 1.2389(5) 0.7649(8) 0.6732(4)
H15 H 1.2183 0.8676 0.6819
H16 H 1.2452 0.7171 0.7301
C5 C 1.4464(6) 0.5072(8) 0.2813(4)
C6 C 1.5709(5) 0.5058(7) 0.2358(4)
Tb1B Tb 1.40347(3) 1.22403(3) 0.621942(18)
Tb1_2 Tb 0.59653(3) 0.77597(3) 0.378058(18)
Tb1A Tb 1.40347(3) 0.27597(3) 0.121942(18)
Tb1B_2 Tb 2.40347(3) 1.22403(3) 0.621942(18)
Tb1C Tb 1.59653(3) 1.72403(3) 0.878058(18)
P1B P 1.63514(14) 1.1593(2) 0.45890(10)
P2B P 2.05844(14) 1.1857(2) 0.61100(10)
O1B O 1.5263(4) 1.2190(5) 0.5013(3)
O2B O 1.6429(4) 1.2459(5) 0.3688(3)
O3B O 1.6479(4) 0.9990(5) 0.4433(3)
O4B O 2.0246(4) 1.0273(5) 0.5978(3)
O5B O 2.1910(4) 1.2276(5) 0.6178(3)
O5_2 O 1.8090(4) 0.7724(5) 0.3822(3)
O5B_2 O 1.1910(4) 1.2276(5) 0.6178(3)
O6B O 1.9894(4) 1.2450(6) 0.6912(3)
H1B H 2.0360 1.2974 0.7215
O7B O 1.5627(4) 1.4055(6) 0.6563(3)
O8B O 1.6329(4) 1.5818(5) 0.7484(3)
O8A O 1.6329(4) 0.9182(5) 0.2484(3)
O8C O 1.3671(4) 1.0818(5) 0.7516(3)
O9B O 1.3502(4) 1.4025(5) 0.7346(3)
O10B O 1.4183(4) 1.5829(5) 0.8246(3)
O10A O 1.4183(4) 0.9171(5) 0.3246(3)
O10C O 1.5817(4) 1.0829(5) 0.6754(3)
O11B O 1.3438(5) 1.4326(6) 0.5276(3)
H2B H 1.3507 1.4090 0.4740
H3B H 1.3902 1.5039 0.5403
N1B N 1.8850(4) 1.2225(6) 0.4684(3)
H8B H 1.9048 1.1283 0.4544
C1B C 1.7716(5) 1.2185(8) 0.5218(4)
H9B H 1.7863 1.1520 0.5710
H10B H 1.7573 1.3160 0.5452
C2B C 1.9930(6) 1.2896(8) 0.5177(4)
H11B H 2.0574 1.3053 0.4769
H12B H 1.9685 1.3857 0.5386
C3B C 1.8599(6) 1.3077(8) 0.3838(4)
H13B H 1.9351 1.3136 0.3522
H14B H 1.8347 1.4073 0.3975
C4B C 1.7611(5) 1.2351(8) 0.3268(4)
H15B H 1.7817 1.1324 0.3181
H16B H 1.7548 1.2829 0.2699
C5B C 1.5536(6) 1.4928(8) 0.7187(4)
C6B C 1.4291(5) 1.4942(7) 0.7642(4)
O12 O 0.8713(5) 0.6239(9) 0.1948(4)
H4 H 0.8420 0.6895 0.1608
H5 H 0.8696 0.5434 0.1678
O13 O 1.1967(6) 0.4117(10) 0.3812(4)
H6 H 1.1436 0.4535 0.3474
H7 H 1.2125 0.3289 0.3603
loop_
_geom_bond_atom_site_label_1
_geom_bond_atom_site_label_2
_geom_bond_site_symmetry_1
_geom_bond_site_symmetry_2
Tb1 O1 1_555 1_555
P1 O1 1_555 1_555
P2 O4 1_555 1_555
O2 P1 1_555 1_555
O3 P1 1_555 1_555
O5 P2 1_555 1_555
O6 P2 1_555 1_555
H1 O6 1_555 1_555
O7 Tb1 1_555 1_555
O8 C5 1_555 1_555
O9 Tb1 1_555 1_555
O10 C6 1_555 1_555
O11 Tb1 1_555 1_555
H2 O11 1_555 1_555
H3 O11 1_555 1_555
O12 H4 1_555 1_555
H5 O12 1_555 1_555
O13 H6 1_555 1_555
H7 O13 1_555 1_555
N1 H8 1_555 1_555
C1 P1 1_555 1_555
H9 C1 1_555 1_555
H10 C1 1_555 1_555
C2 P2 1_555 1_555
H11 C2 1_555 1_555
H12 C2 1_555 1_555
C3 N1 1_555 1_555
H13 C3 1_555 1_555
H14 C3 1_555 1_555
C4 O2 1_555 1_555
H15 C4 1_555 1_555
H16 C4 1_555 1_555
C5 O7 1_555 1_555
C6 O9 1_555 1_555
Tb1B O3 1_555 1_555
Tb1_2 O5 1_555 1_555
Tb1A O8 1_555 1_555
Tb1B_2 O5B 1_555 1_555
Tb1C O8B 1_555 1_555
P1B O1B 1_555 1_555
P2B O4B 1_555 1_555
O1B Tb1B 1_555 1_555
O2B P1B 1_555 1_555
O3B Tb1 1_555 1_555
O5B P2B 1_555 1_555
O5_2 Tb1 1_555 1_555
O5B_2 Tb1B 1_555 1_555
O6B P2B 1_555 1_555
H1B O6B 1_555 1_555
O7B Tb1B 1_555 1_555
O8B C5B 1_555 1_555
O8A Tb1 1_555 1_555
O8C Tb1B 1_555 1_555
O9B Tb1B 1_555 1_555
O10B Tb1C 1_555 1_555
O10A Tb1 1_555 1_555
O10C Tb1B 1_555 1_555
O11B Tb1B 1_555 1_555
H2B O11B 1_555 1_555
H3B O11B 1_555 1_555
N1B H8B 1_555 1_555
C1B P1B 1_555 1_555
H9B C1B 1_555 1_555
H10B C1B 1_555 1_555
C2B P2B 1_555 1_555
H11B C2B 1_555 1_555
H12B C2B 1_555 1_555
C3B N1B 1_555 1_555
H13B C3B 1_555 1_555
H14B C3B 1_555 1_555
C4B O2B 1_555 1_555
H15B C4B 1_555 1_555
H16B C4B 1_555 1_555
C5B O7B 1_555 1_555
C6B O9B 1_555 1_555
O10 Tb1A 1_555 1_555
N1 C1 1_555 1_555
N1 C2 1_555 1_555
C3 C4 1_555 1_555
C5 C6 1_555 1_555
P1B O3B 1_555 1_555
O10B C6B 1_555 1_555
N1B C1B 1_555 1_555
N1B C2B 1_555 1_555
C3B C4B 1_555 1_555
C5B C6B 1_555 1_555

#END
