
#######################################################################
#
#                 Cambridge Crystallographic Data Centre
#                                CCDC 
#
#######################################################################
#
# If this CIF has been generated from an entry in the Cambridge 
# Structural Database, then it will include bibliographic, chemical, 
# crystal, experimental, refinement or atomic coordinate data resulting 
# from the CCDC's data processing and validation procedures.
#
#######################################################################

data_BEFWEQ
_symmetry_cell_setting           triclinic
_symmetry_space_group_name_H-M   'P -1'
_symmetry_Int_Tables_number      2
_space_group_name_Hall           '-P 1'
loop_
_symmetry_equiv_pos_site_id
_symmetry_equiv_pos_as_xyz
1 x,y,z
2 -x,-y,-z
_cell_length_a                   13.057(3)
_cell_length_b                   13.461(3)
_cell_length_c                   13.699(3)
_cell_angle_alpha                75.89(3)
_cell_angle_beta                 74.74(3)
_cell_angle_gamma                89.67(3)
_cell_volume                     2248.37
loop_
_atom_site_label
_atom_site_type_symbol
_atom_site_fract_x
_atom_site_fract_y
_atom_site_fract_z
I1 I 0.37782(4) 0.26617(4) 0.21585(4)
I2 I 0.08634(4) 0.42220(4) 0.25743(4)
I3 I 0.12267(4) 0.75226(4) 0.12147(4)
Cu1 Cu 0.17904(7) 0.25261(6) 0.30619(7)
Cu2 Cu 0.20509(7) 0.57927(7) 0.13206(7)
O1 O 0.0014(4) -0.0764(4) 0.3342(4)
O2 O 0.5706(4) 0.5470(4) 0.1542(4)
N1 N 0.1108(5) 0.1851(4) 0.4649(5)
N2 N 0.0600(5) 0.3039(5) 0.5671(5)
N3 N 0.2027(5) 0.2053(5) 0.5861(5)
N4 N 0.1071(5) 0.1142(4) 0.3015(4)
N5 N 0.2000(5) 0.0411(4) 0.1698(5)
N6 N 0.0396(5) 0.1101(4) 0.1617(4)
N7 N 0.2922(5) 0.5347(4) -0.0022(4)
N8 N 0.1860(5) 0.4301(5) -0.0555(5)
N9 N 0.2422(5) 0.5977(5) -0.1558(5)
N10 N 0.3616(5) 0.5878(4) 0.1415(5)
N11 N 0.3556(5) 0.6061(5) 0.3071(5)
N12 N 0.4427(5) 0.7329(5) 0.1619(6)
C1 C 0.0574(5) 0.0984(5) 0.4849(5)
C2 C 0.0546(5) 0.0581(5) 0.3960(6)
C3 C -0.0006(6) -0.0414(5) 0.4102(5)
C4 C 0.1217(6) 0.2294(5) 0.5434(5)
C5 C -0.0478(6) 0.3086(6) 0.5528(6)
H1 H -0.0633 0.2504 0.5289
H2 H -0.0520 0.3706 0.5021
H3 H -0.0984 0.3076 0.6182
C6 C 0.0942(6) 0.3869(6) 0.6051(6)
H4 H 0.1696 0.3865 0.5965
H5 H 0.0581 0.3773 0.6778
H6 H 0.0775 0.4515 0.5660
C7 C 0.1927(7) 0.2055(7) 0.6960(6)
H7 H 0.2428 0.2562 0.6984
H8 H 0.2070 0.1390 0.7333
H9 H 0.1218 0.2213 0.7277
C8 C 0.2874(6) 0.1437(7) 0.5410(7)
H10 H 0.2670 0.0720 0.5712
H11 H 0.3522 0.1601 0.5558
H12 H 0.2980 0.1587 0.4667
C9 C 0.1143(6) 0.0842(5) 0.2104(5)
C10 C 0.2665(6) -0.0146(6) 0.2329(6)
H13 H 0.2362 -0.0149 0.3049
H14 H 0.3367 0.0184 0.2092
H15 H 0.2702 -0.0839 0.2261
C11 C 0.2404(7) 0.0473(6) 0.0575(6)
H16 H 0.3157 0.0640 0.0356
H17 H 0.2057 0.0995 0.0189
H18 H 0.2263 -0.0177 0.0448
C12 C 0.0078(7) 0.0460(7) 0.0998(6)
H19 H 0.0502 -0.0126 0.1009
H20 H 0.0186 0.0855 0.0289
H21 H -0.0659 0.0234 0.1293
C13 C -0.0444(6) 0.1774(6) 0.1978(6)
H22 H -0.0735 0.2095 0.1412
H23 H -0.0144 0.2293 0.2213
H24 H -0.0997 0.1372 0.2544
C14 C 0.3912(5) 0.5172(5) -0.0045(5)
C15 C 0.4298(5) 0.5472(5) 0.0750(5)
C16 C 0.5379(6) 0.5277(5) 0.0835(6)
C17 C 0.2438(6) 0.5179(5) -0.0760(6)
C18 C 0.2158(7) 0.3354(6) 0.0037(7)
H25 H 0.2583 0.3506 0.0464
H26 H 0.2560 0.2981 -0.0434
H27 H 0.1529 0.2946 0.0476
C19 C 0.0880(7) 0.4216(8) -0.0872(8)
H28 H 0.0383 0.3721 -0.0336
H29 H 0.1043 0.4001 -0.1512
H30 H 0.0575 0.4871 -0.0977
C20 C 0.2929(6) 0.6989(6) -0.1632(7)
H31 H 0.2658 0.7180 -0.0985
H32 H 0.2770 0.7498 -0.2189
H33 H 0.3685 0.6943 -0.1769
C21 C 0.2206(9) 0.5810(8) -0.2507(8)
H34 H 0.2654 0.6281 -0.3110
H35 H 0.1473 0.5921 -0.2483
H36 H 0.2348 0.5119 -0.2548
C22 C 0.3912(6) 0.6401(6) 0.2050(6)
C23 C 0.3334(7) 0.6742(8) 0.3792(7)
H37 H 0.3907 0.6738 0.4112
H38 H 0.2682 0.6502 0.4324
H39 H 0.3271 0.7428 0.3408
C24 C 0.3167(8) 0.4995(7) 0.3534(7)
H40 H 0.3556 0.4572 0.3110
H41 H 0.2425 0.4926 0.3573
H42 H 0.3263 0.4782 0.4224
C25 C 0.4506(7) 0.7855(6) 0.0519(7)
H43 H 0.3846 0.7741 0.0365
H44 H 0.5070 0.7587 0.0067
H45 H 0.4652 0.8578 0.0409
C26 C 0.5189(8) 0.7719(8) 0.2075(9)
H46 H 0.5872 0.7860 0.1572
H47 H 0.5245 0.7213 0.2685
H48 H 0.4948 0.8338 0.2265
I1A I -0.37782(4) -0.26617(4) 0.78415(4)
I2A I -0.08634(4) -0.42220(4) 0.74257(4)
I3A I -0.12267(4) -0.75226(4) 0.87853(4)
Cu1A Cu -0.17904(7) -0.25261(6) 0.69381(7)
Cu2A Cu -0.20509(7) -0.57927(7) 0.86794(7)
Cu2A_2 Cu 0.79491(7) 0.42073(7) -0.13206(7)
O1A O -0.0014(4) 0.0764(4) 0.6658(4)
O2A O 0.4294(4) 0.4530(4) -0.1542(4)
N1A N -0.1108(5) -0.1851(4) 0.5351(5)
N2A N -0.0600(5) -0.3039(5) 0.4329(5)
N3A N -0.2027(5) -0.2053(5) 0.4139(5)
N4A N -0.1071(5) -0.1142(4) 0.6985(4)
N5A N -0.2000(5) -0.0411(4) 0.8302(5)
N6A N -0.0396(5) -0.1101(4) 0.8383(4)
N7A N 0.7078(5) 0.4653(4) 0.0022(4)
N7A_2 N -0.2922(5) -0.5347(4) 1.0022(4)
N8A N 0.8140(5) 0.5699(5) 0.0555(5)
N9A N 0.7578(5) 0.4023(5) 0.1558(5)
N10A N 0.6384(5) 0.4122(4) -0.1415(5)
N10A_2 N -0.3616(5) -0.5878(4) 0.8585(5)
N11A N 0.6444(5) 0.3939(5) -0.3071(5)
N12A N 0.5573(5) 0.2671(5) -0.1619(6)
C1A C -0.0574(5) -0.0984(5) 0.5151(5)
C2A C -0.0546(5) -0.0581(5) 0.6040(6)
C3A C 0.0006(6) 0.0414(5) 0.5898(5)
C4A C -0.1217(6) -0.2294(5) 0.4566(5)
C5A C 0.0478(6) -0.3086(6) 0.4472(6)
H1A H 0.0633 -0.2504 0.4711
H2A H 0.0520 -0.3706 0.4979
H3A H 0.0984 -0.3076 0.3818
C6A C -0.0942(6) -0.3869(6) 0.3949(6)
H4A H -0.1696 -0.3865 0.4035
H5A H -0.0581 -0.3773 0.3222
H6A H -0.0775 -0.4515 0.4340
C7A C -0.1927(7) -0.2055(7) 0.3040(6)
H7A H -0.2428 -0.2562 0.3016
H8A H -0.2070 -0.1390 0.2667
H9A H -0.1218 -0.2213 0.2723
C8A C -0.2874(6) -0.1437(7) 0.4590(7)
H10A H -0.2670 -0.0720 0.4288
H11A H -0.3522 -0.1601 0.4442
H12A H -0.2980 -0.1587 0.5333
C9A C -0.1143(6) -0.0842(5) 0.7896(5)
C10A C -0.2665(6) 0.0146(6) 0.7671(6)
H13A H -0.2362 0.0149 0.6951
H14A H -0.3367 -0.0184 0.7908
H15A H -0.2702 0.0839 0.7739
C11A C -0.2404(7) -0.0473(6) 0.9425(6)
H16A H -0.3157 -0.0640 0.9644
H17A H -0.2057 -0.0995 0.9811
H18A H -0.2263 0.0177 0.9552
C12A C -0.0078(7) -0.0460(7) 0.9002(6)
H19A H -0.0502 0.0126 0.8991
H20A H -0.0186 -0.0855 0.9711
H21A H 0.0659 -0.0234 0.8707
C13A C 0.0444(6) -0.1774(6) 0.8022(6)
H22A H 0.0735 -0.2095 0.8588
H23A H 0.0144 -0.2293 0.7787
H24A H 0.0997 -0.1372 0.7456
C14A C 0.6088(5) 0.4828(5) 0.0045(5)
C15A C 0.5702(5) 0.4528(5) -0.0750(5)
C16A C 0.4621(6) 0.4723(5) -0.0835(6)
C17A C 0.7562(6) 0.4821(5) 0.0760(6)
C18A C 0.7842(7) 0.6646(6) -0.0037(7)
H25A H 0.7417 0.6494 -0.0464
H26A H 0.7440 0.7019 0.0434
H27A H 0.8471 0.7054 -0.0476
C19A C 0.9120(7) 0.5784(8) 0.0872(8)
H28A H 0.9617 0.6279 0.0336
H29A H 0.8957 0.5999 0.1512
H30A H 0.9425 0.5129 0.0977
C20A C 0.7071(6) 0.3011(6) 0.1632(7)
H31A H 0.7342 0.2820 0.0985
H32A H 0.7230 0.2502 0.2189
H33A H 0.6315 0.3057 0.1769
C21A C 0.7794(9) 0.4190(8) 0.2507(8)
H34A H 0.7346 0.3719 0.3110
H35A H 0.8527 0.4079 0.2483
H36A H 0.7652 0.4881 0.2548
C22A C 0.6088(6) 0.3599(6) -0.2050(6)
C23A C 0.6666(7) 0.3258(8) -0.3792(7)
H37A H 0.6093 0.3262 -0.4112
H38A H 0.7318 0.3498 -0.4324
H39A H 0.6729 0.2572 -0.3408
C24A C 0.6833(8) 0.5005(7) -0.3534(7)
H40A H 0.6444 0.5428 -0.3110
H41A H 0.7575 0.5074 -0.3573
H42A H 0.6737 0.5218 -0.4224
C25A C 0.5494(7) 0.2145(6) -0.0519(7)
H43A H 0.6154 0.2259 -0.0365
H44A H 0.4930 0.2413 -0.0067
H45A H 0.5348 0.1422 -0.0409
C26A C 0.4811(8) 0.2281(8) -0.2075(9)
H46A H 0.4128 0.2140 -0.1572
H47A H 0.4755 0.2787 -0.2685
H48A H 0.5052 0.1662 -0.2265
I4 I -0.26246(4) 0.14379(4) 0.46917(4)
N13 N 0.6589(8) 0.0013(7) 0.1779(7)
C27 C 0.6032(8) 0.0183(6) 0.2490(7)
C28 C 0.5310(7) 0.0377(7) 0.3414(7)
H49 H 0.4865 0.0916 0.3212
H50 H 0.5710 0.0581 0.3837
H51 H 0.4875 -0.0236 0.3808
loop_
_geom_bond_atom_site_label_1
_geom_bond_atom_site_label_2
_geom_bond_site_symmetry_1
_geom_bond_site_symmetry_2
I1 Cu1 1_555 1_555
I2 Cu1 1_555 1_555
I3 Cu2 1_555 1_555
Cu1 N1 1_555 1_555
Cu2 I2 1_555 1_555
O1 C3 1_555 1_555
O2 C16 1_555 1_555
N1 C1 1_555 1_555
N2 C4 1_555 1_555
N3 C4 1_555 1_555
N4 Cu1 1_555 1_555
N5 C9 1_555 1_555
N6 C9 1_555 1_555
N7 Cu2 1_555 1_555
N8 C17 1_555 1_555
N9 C17 1_555 1_555
N10 Cu2 1_555 1_555
N11 C22 1_555 1_555
N12 C22 1_555 1_555
N13 C27 1_555 1_555
C1 C2 1_555 1_555
C2 N4 1_555 1_555
C3 C2 1_555 1_555
C4 N1 1_555 1_555
C5 N2 1_555 1_555
H1 C5 1_555 1_555
H2 C5 1_555 1_555
H3 C5 1_555 1_555
C6 N2 1_555 1_555
H4 C6 1_555 1_555
H5 C6 1_555 1_555
H6 C6 1_555 1_555
C7 N3 1_555 1_555
H7 C7 1_555 1_555
H8 C7 1_555 1_555
H9 C7 1_555 1_555
C8 N3 1_555 1_555
H10 C8 1_555 1_555
H11 C8 1_555 1_555
H12 C8 1_555 1_555
C9 N4 1_555 1_555
C10 N5 1_555 1_555
H13 C10 1_555 1_555
H14 C10 1_555 1_555
H15 C10 1_555 1_555
C11 N5 1_555 1_555
H16 C11 1_555 1_555
H17 C11 1_555 1_555
H18 C11 1_555 1_555
C12 N6 1_555 1_555
H19 C12 1_555 1_555
H20 C12 1_555 1_555
H21 C12 1_555 1_555
C13 N6 1_555 1_555
H22 C13 1_555 1_555
H23 C13 1_555 1_555
H24 C13 1_555 1_555
C14 N7 1_555 1_555
C15 N10 1_555 1_555
C16 C15 1_555 1_555
C17 N7 1_555 1_555
C18 N8 1_555 1_555
H25 C18 1_555 1_555
H26 C18 1_555 1_555
H27 C18 1_555 1_555
C19 N8 1_555 1_555
H28 C19 1_555 1_555
H29 C19 1_555 1_555
H30 C19 1_555 1_555
C20 N9 1_555 1_555
H31 C20 1_555 1_555
H32 C20 1_555 1_555
H33 C20 1_555 1_555
C21 N9 1_555 1_555
H34 C21 1_555 1_555
H35 C21 1_555 1_555
H36 C21 1_555 1_555
C22 N10 1_555 1_555
C23 N11 1_555 1_555
H37 C23 1_555 1_555
H38 C23 1_555 1_555
H39 C23 1_555 1_555
C24 N11 1_555 1_555
H40 C24 1_555 1_555
H41 C24 1_555 1_555
H42 C24 1_555 1_555
C25 N12 1_555 1_555
H43 C25 1_555 1_555
H44 C25 1_555 1_555
H45 C25 1_555 1_555
C26 N12 1_555 1_555
H46 C26 1_555 1_555
H47 C26 1_555 1_555
H48 C26 1_555 1_555
C27 C28 1_555 1_555
C28 H49 1_555 1_555
H50 C28 1_555 1_555
H51 C28 1_555 1_555
I1A Cu1A 1_555 1_555
I2A Cu1A 1_555 1_555
I3A Cu2A 1_555 1_555
Cu1A N1A 1_555 1_555
Cu2A I2A 1_555 1_555
Cu2A_2 N7A 1_555 1_555
O1A C3A 1_555 1_555
O2A C16A 1_555 1_555
N1A C1A 1_555 1_555
N2A C4A 1_555 1_555
N3A C4A 1_555 1_555
N4A Cu1A 1_555 1_555
N5A C9A 1_555 1_555
N6A C9A 1_555 1_555
N7A C14A 1_555 1_555
N7A_2 Cu2A 1_555 1_555
N8A C17A 1_555 1_555
N9A C17A 1_555 1_555
N10A Cu2A_2 1_555 1_555
N10A_2 Cu2A 1_555 1_555
N11A C22A 1_555 1_555
N12A C22A 1_555 1_555
C1A C3 1_555 1_555
C2A N4A 1_555 1_555
C3A C1 1_555 1_555
C4A N1A 1_555 1_555
C5A N2A 1_555 1_555
H1A C5A 1_555 1_555
H2A C5A 1_555 1_555
H3A C5A 1_555 1_555
C6A N2A 1_555 1_555
H4A C6A 1_555 1_555
H5A C6A 1_555 1_555
H6A C6A 1_555 1_555
C7A N3A 1_555 1_555
H7A C7A 1_555 1_555
H8A C7A 1_555 1_555
H9A C7A 1_555 1_555
C8A N3A 1_555 1_555
H10A C8A 1_555 1_555
H11A C8A 1_555 1_555
H12A C8A 1_555 1_555
C9A N4A 1_555 1_555
C10A N5A 1_555 1_555
H13A C10A 1_555 1_555
H14A C10A 1_555 1_555
H15A C10A 1_555 1_555
C11A N5A 1_555 1_555
H16A C11A 1_555 1_555
H17A C11A 1_555 1_555
H18A C11A 1_555 1_555
C12A N6A 1_555 1_555
H19A C12A 1_555 1_555
H20A C12A 1_555 1_555
H21A C12A 1_555 1_555
C13A N6A 1_555 1_555
H22A C13A 1_555 1_555
H23A C13A 1_555 1_555
H24A C13A 1_555 1_555
C14A C16 1_555 1_555
C15A N10A 1_555 1_555
C16A C14 1_555 1_555
C17A N7A 1_555 1_555
C18A N8A 1_555 1_555
H25A C18A 1_555 1_555
H26A C18A 1_555 1_555
H27A C18A 1_555 1_555
C19A N8A 1_555 1_555
H28A C19A 1_555 1_555
H29A C19A 1_555 1_555
H30A C19A 1_555 1_555
C20A N9A 1_555 1_555
H31A C20A 1_555 1_555
H32A C20A 1_555 1_555
H33A C20A 1_555 1_555
C21A N9A 1_555 1_555
H34A C21A 1_555 1_555
H35A C21A 1_555 1_555
H36A C21A 1_555 1_555
C22A N10A 1_555 1_555
C23A N11A 1_555 1_555
H37A C23A 1_555 1_555
H38A C23A 1_555 1_555
H39A C23A 1_555 1_555
C24A N11A 1_555 1_555
H40A C24A 1_555 1_555
H41A C24A 1_555 1_555
H42A C24A 1_555 1_555
C25A N12A 1_555 1_555
H43A C25A 1_555 1_555
H44A C25A 1_555 1_555
H45A C25A 1_555 1_555
C26A N12A 1_555 1_555
H46A C26A 1_555 1_555
H47A C26A 1_555 1_555
H48A C26A 1_555 1_555
C14 C15 1_555 1_555
C1A C2A 1_555 1_555
C2A C3A 1_555 1_555
C14A C15A 1_555 1_555
C15A C16A 1_555 1_555

#END
