
#######################################################################
#
#                 Cambridge Crystallographic Data Centre
#                                CCDC 
#
#######################################################################
#
# If this CIF has been generated from an entry in the Cambridge 
# Structural Database, then it will include bibliographic, chemical, 
# crystal, experimental, refinement or atomic coordinate data resulting 
# from the CCDC's data processing and validation procedures.
#
#######################################################################

data_BEGDAT
_symmetry_cell_setting           tetragonal
_symmetry_space_group_name_H-M   'P 4/n c c'
_symmetry_Int_Tables_number      130
_space_group_name_Hall           '-P 4a 2ac'
loop_
_symmetry_equiv_pos_site_id
_symmetry_equiv_pos_as_xyz
1 x,y,z
2 1/2-y,x,z
3 y,1/2-x,z
4 1/2+y,1/2+x,1/2-z
5 1/2+x,1/2+y,-z
6 x,1/2-y,1/2+z
7 1/2-x,y,1/2+z
8 y,x,1/2+z
9 -x,-y,-z
10 1/2+y,-x,-z
11 -y,1/2+x,-z
12 1/2-y,1/2-x,1/2+z
13 1/2-x,1/2-y,z
14 -x,1/2+y,1/2-z
15 1/2+x,-y,1/2-z
16 -y,-x,1/2-z
_cell_length_a                   14.216(2)
_cell_length_b                   14.216(2)
_cell_length_c                   17.471(5)
_cell_angle_alpha                90
_cell_angle_beta                 90
_cell_angle_gamma                90
_cell_volume                     3530.8
loop_
_atom_site_label
_atom_site_type_symbol
_atom_site_fract_x
_atom_site_fract_y
_atom_site_fract_z
Ni1 Ni 0.2500 0.2500 0.27491(5)
Fe1 Fe 0.44966(3) -0.05034(3) 0.2500
O1 O 0.37749(15) -0.09047(15) 0.16423(14)
N1 N 0.51846(19) 0.0464(2) 0.17746(17)
N2 N 0.3510(2) 0.06289(19) 0.27223(18)
C1 C 0.3609(2) -0.0492(2) 0.0976(2)
C2 C 0.2938(2) -0.0887(3) 0.0478(2)
H1 H 0.2624 -0.1432 0.0624
C3 C 0.2737(2) -0.0487(3) -0.0216(2)
H2 H 0.2300 -0.0773 -0.0537
C4 C 0.3171(3) 0.0331(3) -0.0448(3)
H3 H 0.3014 0.0614 -0.0910
C5 C 0.3835(3) 0.0715(3) 0.0016(2)
H4 H 0.4138 0.1261 -0.0142
C6 C 0.4080(3) 0.0320(3) 0.0722(2)
C7 C 0.4857(3) 0.0731(3) 0.1128(2)
H5 H 0.5152 0.1242 0.0898
C8 C 0.6025(3) 0.0921(3) 0.2090(2)
H6 H 0.6577 0.0545 0.1978
H7 H 0.6107 0.1534 0.1856
C9 C 0.3122(2) 0.1336(2) 0.2739(2)
C8C C 0.5921(3) 0.1025(3) 0.2910(2)
N1C N 0.5464(2) 0.01846(19) 0.32254(17)
C7C C 0.5731(3) -0.0143(3) 0.3872(2)
C6C C 0.5320(3) -0.0920(3) 0.4278(2)
C1C C 0.4508(2) -0.1391(2) 0.4024(2)
O1C O 0.40953(15) -0.12251(15) 0.33577(14)
C2C C 0.4113(3) -0.2062(2) 0.4522(2)
H1C H 0.3568 -0.2376 0.4376
C3C C 0.4513(3) -0.2263(2) 0.5216(2)
H2C H 0.4227 -0.2700 0.5537
C4C C 0.5331(3) -0.1829(3) 0.5448(3)
H3C H 0.5614 -0.1986 0.5910
C5C C 0.5715(3) -0.1165(3) 0.4984(2)
H4C H 0.6261 -0.0862 0.5142
H5C H 0.6242 0.0152 0.4102
H6C H 0.5545 0.1577 0.3022
H7C H 0.6534 0.1107 0.3144
N2A N 0.43711(19) 0.3510(2) 0.27223(18)
C9A C 0.3664(2) 0.3122(2) 0.2739(2)
N2B N 0.06289(19) 0.1490(2) 0.27223(18)
C9B C 0.1336(2) 0.1878(2) 0.2739(2)
N2L N 0.1490(2) 0.43711(19) 0.27223(18)
C9L C 0.1878(2) 0.3664(2) 0.2739(2)
Fe1A Fe 0.55034(3) 0.44966(3) 0.2500
O1A O 0.59047(15) 0.37749(15) 0.16423(14)
N1A N 0.4536(2) 0.51846(19) 0.17746(17)
C1A C 0.5492(2) 0.3609(2) 0.0976(2)
C2A C 0.5887(3) 0.2938(2) 0.0478(2)
H1A H 0.6432 0.2624 0.0624
C3A C 0.5487(3) 0.2737(2) -0.0216(2)
H2A H 0.5773 0.2300 -0.0537
C4A C 0.4669(3) 0.3171(3) -0.0448(3)
H3A H 0.4386 0.3014 -0.0910
C5A C 0.4285(3) 0.3835(3) 0.0016(2)
H4A H 0.3739 0.4138 -0.0142
C6A C 0.4680(3) 0.4080(3) 0.0722(2)
C7A C 0.4269(3) 0.4857(3) 0.1128(2)
H5A H 0.3758 0.5152 0.0898
C8A C 0.4079(3) 0.6025(3) 0.2090(2)
H6A H 0.4455 0.6577 0.1978
H7A H 0.3466 0.6107 0.1856
C8M C 0.3975(3) 0.5921(3) 0.2910(2)
N1M N 0.48154(19) 0.5464(2) 0.32254(17)
C7M C 0.5143(3) 0.5731(3) 0.3872(2)
C6M C 0.5920(3) 0.5320(3) 0.4278(2)
C1M C 0.6391(2) 0.4508(2) 0.4024(2)
O1M O 0.62251(15) 0.40953(15) 0.33577(14)
C2M C 0.7062(2) 0.4113(3) 0.4522(2)
H1M H 0.7376 0.3568 0.4376
C3M C 0.7263(2) 0.4513(3) 0.5216(2)
H2M H 0.7700 0.4227 0.5537
C4M C 0.6829(3) 0.5331(3) 0.5448(3)
H3M H 0.6986 0.5614 0.5910
C5M C 0.6165(3) 0.5715(3) 0.4984(2)
H4M H 0.5862 0.6261 0.5142
H5M H 0.4848 0.6242 0.4102
H6M H 0.3423 0.5545 0.3022
H7M H 0.3893 0.6534 0.3144
N2C N 0.56289(19) -0.1490(2) 0.22777(18)
Fe1B Fe -0.05034(3) 0.05034(3) 0.2500
Fe1L Fe 0.05034(3) 0.55034(3) 0.2500
N2M N 0.6490(2) 0.56289(19) 0.22777(18)
loop_
_geom_bond_atom_site_label_1
_geom_bond_atom_site_label_2
_geom_bond_site_symmetry_1
_geom_bond_site_symmetry_2
Ni1 C9 1_555 1_555
Fe1 O1 1_555 1_555
O1 C1 1_555 1_555
N1 Fe1 1_555 1_555
N2 Fe1 1_555 1_555
C1 C2 1_555 1_555
C2 H1 1_555 1_555
C3 C2 1_555 1_555
H2 C3 1_555 1_555
C4 C3 1_555 1_555
H3 C4 1_555 1_555
C5 C4 1_555 1_555
H4 C5 1_555 1_555
C6 C1 1_555 1_555
C7 N1 1_555 1_555
H5 C7 1_555 1_555
C8 N1 1_555 1_555
H6 C8 1_555 1_555
H7 C8 1_555 1_555
C9 N2 1_555 1_555
C8C C8 1_555 1_555
N1C Fe1 1_555 1_555
C7C N1C 1_555 1_555
C6C C7C 1_555 1_555
C1C C6C 1_555 1_555
O1C Fe1 1_555 1_555
C2C C1C 1_555 1_555
H1C C2C 1_555 1_555
C3C C2C 1_555 1_555
H2C C3C 1_555 1_555
C4C C3C 1_555 1_555
H3C C4C 1_555 1_555
C5C C6C 1_555 1_555
H4C C5C 1_555 1_555
H5C C7C 1_555 1_555
H6C C8C 1_555 1_555
H7C C8C 1_555 1_555
N2A C9A 1_555 1_555
C9A Ni1 1_555 1_555
N2B C9B 1_555 1_555
C9B Ni1 1_555 1_555
N2L C9L 1_555 1_555
C9L Ni1 1_555 1_555
Fe1A N2A 1_555 1_555
O1A Fe1A 1_555 1_555
N1A Fe1A 1_555 1_555
C1A O1A 1_555 1_555
C2A C1A 1_555 1_555
H1A C2A 1_555 1_555
C3A C2A 1_555 1_555
H2A C3A 1_555 1_555
C4A C3A 1_555 1_555
H3A C4A 1_555 1_555
C5A C4A 1_555 1_555
H4A C5A 1_555 1_555
C6A C1A 1_555 1_555
C7A N1A 1_555 1_555
H5A C7A 1_555 1_555
C8A N1A 1_555 1_555
H6A C8A 1_555 1_555
H7A C8A 1_555 1_555
C8M C8A 1_555 1_555
N1M Fe1A 1_555 1_555
C7M N1M 1_555 1_555
C6M C7M 1_555 1_555
C1M C6M 1_555 1_555
O1M Fe1A 1_555 1_555
C2M C1M 1_555 1_555
H1M C2M 1_555 1_555
C3M C2M 1_555 1_555
H2M C3M 1_555 1_555
C4M C3M 1_555 1_555
H3M C4M 1_555 1_555
C5M C6M 1_555 1_555
H4M C5M 1_555 1_555
H5M C7M 1_555 1_555
H6M C8M 1_555 1_555
H7M C8M 1_555 1_555
N2C Fe1 1_555 1_555
Fe1B N2B 1_555 1_555
Fe1L N2L 1_555 1_555
N2M Fe1A 1_555 1_555
C5 C6 1_555 1_555
C6 C7 1_555 1_555
C8C N1C 1_555 1_555
C1C O1C 1_555 1_555
C4C C5C 1_555 1_555
C5A C6A 1_555 1_555
C6A C7A 1_555 1_555
C8M N1M 1_555 1_555
C1M O1M 1_555 1_555
C4M C5M 1_555 1_555

#END
