
#######################################################################
#
#                 Cambridge Crystallographic Data Centre
#                                CCDC 
#
#######################################################################
#
# If this CIF has been generated from an entry in the Cambridge 
# Structural Database, then it will include bibliographic, chemical, 
# crystal, experimental, refinement or atomic coordinate data resulting 
# from the CCDC's data processing and validation procedures.
#
#######################################################################

data_BEGFID
_symmetry_cell_setting           monoclinic
_symmetry_space_group_name_H-M   'P c'
_symmetry_Int_Tables_number      7
_space_group_name_Hall           'P -2yc'
loop_
_symmetry_equiv_pos_site_id
_symmetry_equiv_pos_as_xyz
1 x,y,z
2 x,-y,1/2+z
_cell_length_a                   7.9889(9)
_cell_length_b                   7.8448(9)
_cell_length_c                   23.048(3)
_cell_angle_alpha                90
_cell_angle_beta                 99.389(4)
_cell_angle_gamma                90
_cell_volume                     1425.1
loop_
_atom_site_label
_atom_site_type_symbol
_atom_site_fract_x
_atom_site_fract_y
_atom_site_fract_z
V1 V 0.87821(11) -0.21741(11) 0.24917(4)
V2 V 0.48590(11) -0.25613(11) 0.28290(4)
V3 V 0.97243(11) -0.67091(12) 0.09829(4)
V4 V 0.38953(10) -0.74853(11) 0.07743(4)
Se1 Se 0.57095(6) 0.03556(7) 0.19489(2)
Se2 Se 1.18898(6) -0.38291(7) 0.17596(2)
Se3 Se 0.66134(6) -0.50176(7) 0.14522(2)
O1 O 0.6964(5) -0.1933(5) 0.29560(15)
O2 O 0.7384(5) -0.0857(5) 0.18436(17)
O3 O 1.0158(5) -0.2705(5) 0.18694(16)
O4 O 0.9965(5) -0.0720(5) 0.28169(18)
O5 O 0.4300(5) -0.1116(5) 0.21417(17)
O6 O 0.4053(5) -0.1589(5) 0.33235(17)
O7 O 1.1862(4) -0.6890(5) 0.06425(15)
O8 O 0.7816(4) -0.6813(5) 0.14427(17)
O9 O 0.9068(5) -0.5071(5) 0.06013(17)
O10 O 1.0688(5) -0.9151(5) 0.14942(19)
O11 O 1.1106(5) -0.5823(5) 0.17082(16)
O12 O 0.4887(5) -0.6654(5) 0.02908(17)
O13 O 0.4666(4) -0.6022(5) 0.14346(16)
O14 O 0.4775(5) 0.0577(5) 0.12433(17)
O15 O 1.3085(5) -0.4036(5) 0.24396(16)
O16 O 0.6992(5) -0.4367(5) 0.21509(17)
N1 N 0.9919(5) -0.4074(6) 0.3097(2)
N2 N 1.3178(6) -1.0326(6) 0.51858(19)
N3 N 0.5518(6) -0.4784(6) 0.3366(2)
N4 N 0.8605(5) -1.1389(6) 0.5360(2)
C1 C 0.9853(8) -0.5745(8) 0.2979(3)
H1 H 0.9346 -0.6105 0.2607
C2 C 1.0517(8) -0.6969(8) 0.3392(3)
H2 H 1.0444 -0.8119 0.3294
C3 C 1.1284(7) -0.6473(7) 0.3949(2)
C4 C 1.1371(8) -0.4734(7) 0.4065(3)
H3 H 1.1880 -0.4339 0.4432
C5 C 1.0701(7) -0.3596(7) 0.3634(2)
H4 H 1.0794 -0.2437 0.3718
C6 C 1.3226(7) -1.0488(7) 0.4614(2)
H5 H 1.3687 -1.1479 0.4485
C7 C 1.2633(7) -0.9277(7) 0.4207(2)
H6 H 1.2678 -0.9466 0.3811
C8 C 1.1966(7) -0.7769(8) 0.4380(3)
C9 C 1.1951(8) -0.7585(8) 0.4982(3)
H7 H 1.1545 -0.6585 0.5126
C10 C 1.2536(8) -0.8878(8) 0.5359(3)
H8 H 1.2483 -0.8742 0.5757
C11 C 0.5518(8) -0.6390(8) 0.3174(2)
H9 H 0.5116 -0.6602 0.2778
C12 C 0.6084(8) -0.7750(7) 0.3532(3)
H10 H 0.6075 -0.8846 0.3378
C13 C 0.6669(7) -0.7464(7) 0.4128(2)
C14 C 0.6610(9) -0.5808(8) 0.4329(2)
H11 H 0.6947 -0.5568 0.4726
C15 C 0.6053(8) -0.4512(8) 0.3942(3)
H12 H 0.6046 -0.3404 0.4085
C16 C 0.8724(7) -1.1546(8) 0.4775(2)
H13 H 0.9252 -1.2503 0.4650
C17 C 0.8080(8) -1.0322(7) 0.4368(3)
H14 H 0.8161 -1.0477 0.3974
C18 C 0.7311(7) -0.8859(7) 0.4542(2)
C19 C 0.7200(8) -0.8739(8) 0.5139(3)
H15 H 0.6689 -0.7792 0.5279
C20 C 0.7842(8) -1.0010(8) 0.5521(3)
H16 H 0.7734 -0.9897 0.5915
O15_2 O 0.3085(5) -0.4036(5) 0.24396(16)
N4A N 0.8605(5) -0.8611(6) 0.0360(2)
O7_2 O 0.1862(4) -0.6890(5) 0.06425(15)
O14_2 O 0.4775(5) -0.9423(5) 0.12433(17)
N2A N 0.3178(6) -0.9674(6) 0.01858(19)
V4_2 V 1.38953(10) -0.74853(11) 0.07743(4)
V4_3 V 0.38953(10) 0.25147(11) 0.07743(4)
V2_2 V 1.48590(11) -0.25613(11) 0.28290(4)
V4A V 1.38953(10) -1.25147(11) 0.57743(4)
V3A V 0.97243(11) -1.32909(12) 0.59829(4)
loop_
_geom_bond_atom_site_label_1
_geom_bond_atom_site_label_2
_geom_bond_site_symmetry_1
_geom_bond_site_symmetry_2
V1 O1 1_555 1_555
V2 O1 1_555 1_555
V3 O7 1_555 1_555
V4 O12 1_555 1_555
Se1 O2 1_555 1_555
Se2 O3 1_555 1_555
Se3 O8 1_555 1_555
O2 V1 1_555 1_555
O3 V1 1_555 1_555
O4 V1 1_555 1_555
O5 V2 1_555 1_555
O6 V2 1_555 1_555
O7 V4_2 1_555 1_555
O8 V3 1_555 1_555
O9 V3 1_555 1_555
O10 V3 1_555 1_555
O11 V3 1_555 1_555
O13 V4 1_555 1_555
O14 Se1 1_555 1_555
O15 Se2 1_555 1_555
O16 V1 1_555 1_555
N1 V1 1_555 1_555
N2 C6 1_555 1_555
N3 V2 1_555 1_555
N4 C16 1_555 1_555
C1 N1 1_555 1_555
H1 C1 1_555 1_555
C2 C1 1_555 1_555
H2 C2 1_555 1_555
C3 C2 1_555 1_555
C4 C3 1_555 1_555
H3 C4 1_555 1_555
C5 N1 1_555 1_555
H4 C5 1_555 1_555
C6 H5 1_555 1_555
C7 C6 1_555 1_555
H6 C7 1_555 1_555
C8 C3 1_555 1_555
C9 C8 1_555 1_555
H7 C9 1_555 1_555
C10 N2 1_555 1_555
H8 C10 1_555 1_555
C11 N3 1_555 1_555
H9 C11 1_555 1_555
C12 C11 1_555 1_555
H10 C12 1_555 1_555
C13 C12 1_555 1_555
C14 C13 1_555 1_555
H11 C14 1_555 1_555
C15 N3 1_555 1_555
H12 C15 1_555 1_555
C16 H13 1_555 1_555
C17 C16 1_555 1_555
H14 C17 1_555 1_555
C18 C13 1_555 1_555
C19 C18 1_555 1_555
H15 C19 1_555 1_555
C20 N4 1_555 1_555
H16 C20 1_555 1_555
O15_2 V2 1_555 1_555
N4A V3 1_555 1_555
O7_2 V4 1_555 1_555
O14_2 V4 1_555 1_555
N2A V4 1_555 1_555
V4_3 O14 1_555 1_555
V2_2 O15 1_555 1_555
V4A N2 1_555 1_555
V3A N4 1_555 1_555
Se1 O5 1_555 1_555
Se2 O11 1_555 1_555
Se3 O13 1_555 1_555
Se3 O16 1_555 1_555
C4 C5 1_555 1_555
C7 C8 1_555 1_555
C9 C10 1_555 1_555
C14 C15 1_555 1_555
C17 C18 1_555 1_555
C19 C20 1_555 1_555

#END
