
#######################################################################
#
#                 Cambridge Crystallographic Data Centre
#                                CCDC 
#
#######################################################################
#
# If this CIF has been generated from an entry in the Cambridge 
# Structural Database, then it will include bibliographic, chemical, 
# crystal, experimental, refinement or atomic coordinate data resulting 
# from the CCDC's data processing and validation procedures.
#
#######################################################################

data_BEGFEZ
_symmetry_cell_setting           triclinic
_symmetry_space_group_name_H-M   'P -1'
_symmetry_Int_Tables_number      2
_space_group_name_Hall           '-P 1'
loop_
_symmetry_equiv_pos_site_id
_symmetry_equiv_pos_as_xyz
1 x,y,z
2 -x,-y,-z
_cell_length_a                   7.1810(10)
_cell_length_b                   10.8937(13)
_cell_length_c                   11.1811(15)
_cell_angle_alpha                115.455(3)
_cell_angle_beta                 107.582(3)
_cell_angle_gamma                91.957(4)
_cell_volume                     739.079
loop_
_atom_site_label
_atom_site_type_symbol
_atom_site_fract_x
_atom_site_fract_y
_atom_site_fract_z
V1 V 0.24070(10) 0.32680(7) -0.03484(7)
V2 V 0.23292(10) 0.82228(7) 0.48837(7)
Se1 Se 0.21322(6) 0.65079(4) 0.15433(4)
Se2 Se 0.21302(6) 0.15045(4) -0.36626(4)
O1 O 0.3039(4) 0.5032(3) 0.1316(3)
O2 O 0.3323(4) 0.2663(3) -0.1943(3)
O3 O 0.1186(4) 0.2058(3) -0.0295(3)
O4 O 0.1027(4) 0.7138(3) 0.5056(3)
O5 O 0.3299(4) 0.7403(3) 0.3325(3)
O6 O -0.0249(4) 0.6036(3) 0.1356(3)
O7 O -0.0231(4) 0.1160(3) -0.3737(3)
O8 O 0.3030(4) 0.0099(3) -0.3596(3)
N1 N 0.5327(5) 0.3032(4) 0.0706(3)
N2 N 1.4822(5) 0.1936(4) 0.3898(3)
C1 C 0.5803(7) 0.1773(5) 0.0190(5)
H1 H 0.488(7) 0.112(5) -0.061(5)
C2 C 0.7620(6) 0.1499(5) 0.0779(5)
H2 H 0.779(6) 0.059(5) 0.034(4)
C3 C 0.9066(6) 0.2571(4) 0.1960(4)
C4 C 0.8577(7) 0.3870(5) 0.2474(5)
H3 H 0.936(7) 0.452(5) 0.322(5)
C5 C 0.6714(7) 0.4057(5) 0.1834(5)
H4 H 0.637(8) 0.499(6) 0.214(5)
C6 C 1.3222(7) 0.0939(5) 0.3257(5)
H5 H 1.323(7) 0.018(5) 0.331(5)
C7 C 1.1349(7) 0.1098(5) 0.2619(5)
H6 H 1.040(7) 0.049(5) 0.236(5)
C8 C 1.1047(6) 0.2336(4) 0.2614(4)
C9 C 1.2741(7) 0.3379(5) 0.3246(5)
H7 H 1.276(7) 0.431(5) 0.324(5)
C10 C 1.4554(7) 0.3144(5) 0.3865(5)
H8 H 1.561(7) 0.377(5) 0.427(5)
O6A O 0.0249(4) 0.3964(3) -0.1356(3)
O7A O 0.0231(4) 0.8840(3) 0.3737(3)
O8_2 O 0.3030(4) 1.0099(3) 0.6404(3)
N2A N 0.5178(5) 0.8064(4) 0.6102(3)
V1A V -0.24070(10) 0.67320(7) 0.03484(7)
V2A V -0.23292(10) 0.17772(7) -0.48837(7)
V2_2 V 0.23292(10) -0.17772(7) -0.51163(7)
V2A_2 V 1.76708(10) 0.17772(7) 0.51163(7)
loop_
_geom_bond_atom_site_label_1
_geom_bond_atom_site_label_2
_geom_bond_site_symmetry_1
_geom_bond_site_symmetry_2
V1 O1 1_555 1_555
V2 O4 1_555 1_555
Se1 O1 1_555 1_555
Se2 O2 1_555 1_555
O2 V1 1_555 1_555
O3 V1 1_555 1_555
O5 V2 1_555 1_555
O6 Se1 1_555 1_555
O7 Se2 1_555 1_555
O8 Se2 1_555 1_555
N1 V1 1_555 1_555
N2 C6 1_555 1_555
C1 N1 1_555 1_555
H1 C1 1_555 1_555
C2 C1 1_555 1_555
H2 C2 1_555 1_555
C3 C2 1_555 1_555
C4 C3 1_555 1_555
H3 C4 1_555 1_555
C5 N1 1_555 1_555
H4 C5 1_555 1_555
C6 H5 1_555 1_555
C7 C6 1_555 1_555
H6 C7 1_555 1_555
C8 C3 1_555 1_555
C9 C8 1_555 1_555
H7 C9 1_555 1_555
C10 N2 1_555 1_555
H8 C10 1_555 1_555
O6A V1 1_555 1_555
O7A V2 1_555 1_555
O8_2 V2 1_555 1_555
N2A V2 1_555 1_555
V1A O6 1_555 1_555
V2A O7 1_555 1_555
V2_2 O8 1_555 1_555
V2A_2 N2 1_555 1_555
Se1 O5 1_555 1_555
C4 C5 1_555 1_555
C7 C8 1_555 1_555
C9 C10 1_555 1_555

#END
