
#######################################################################
#
#                 Cambridge Crystallographic Data Centre
#                                CCDC 
#
#######################################################################
#
# If this CIF has been generated from an entry in the Cambridge 
# Structural Database, then it will include bibliographic, chemical, 
# crystal, experimental, refinement or atomic coordinate data resulting 
# from the CCDC's data processing and validation procedures.
#
#######################################################################

data_BEGFUP
_symmetry_cell_setting           monoclinic
_symmetry_space_group_name_H-M   'C 2/c'
_symmetry_Int_Tables_number      15
_space_group_name_Hall           '-C 2yn'
loop_
_symmetry_equiv_pos_site_id
_symmetry_equiv_pos_as_xyz
1 x,y,z
2 1/2+x,1/2+y,z
3 -x,y,1/2-z
4 1/2-x,1/2+y,1/2-z
5 -x,-y,-z
6 1/2-x,1/2-y,-z
7 x,-y,1/2+z
8 1/2+x,1/2-y,1/2+z
_cell_length_a                   17.0895(12)
_cell_length_b                   14.7707(10)
_cell_length_c                   11.7657(8)
_cell_angle_alpha                90
_cell_angle_beta                 131.354(3)
_cell_angle_gamma                90
_cell_volume                     2229.36
loop_
_atom_site_label
_atom_site_type_symbol
_atom_site_fract_x
_atom_site_fract_y
_atom_site_fract_z
V1 V 0.38102(4) 0.21895(4) 0.29285(6)
Se1 Se 0.36275(3) 0.22795(2) 0.00522(4)
O1 O 0.36447(18) 0.28659(16) 0.1323(2)
O2 O 0.4079(2) 0.11794(17) 0.2789(3)
O3 O 0.27491(18) 0.28659(16) -0.1577(2)
O4 O 0.47114(18) 0.26495(17) 0.0427(3)
N1 N 0.3621(2) 0.3499(2) 0.3767(3)
N2 N 0.3788(2) 0.1833(2) 0.4684(3)
C1 C 0.3541(3) 0.4324(3) 0.3242(4)
H1 H 0.3437 0.4372 0.2361
C2 C 0.3605(3) 0.5109(3) 0.3925(5)
H2 H 0.3541 0.5672 0.3518
C3 C 0.3764(4) 0.5035(3) 0.5225(5)
H3 H 0.3831 0.5554 0.5731
C4 C 0.3827(3) 0.4189(3) 0.5787(5)
H4 H 0.3921 0.4132 0.6658
C5 C 0.3745(3) 0.3422(3) 0.5022(4)
C6 C 0.3773(3) 0.2483(3) 0.5479(4)
C7 C 0.3747(3) 0.2266(3) 0.6607(4)
H5 H 0.3734 0.2719 0.7144
C8 C 0.3740(3) 0.1362(4) 0.6912(5)
H6 H 0.3730 0.1202 0.7667
C9 C 0.3748(3) 0.0702(3) 0.6098(5)
H7 H 0.3731 0.0093 0.6282
C10 C 0.3782(3) 0.0957(3) 0.5000(4)
H8 H 0.3802 0.0510 0.4463
O3E O 0.22509(18) 0.21341(16) 0.1577(2)
O4B O 0.52886(18) 0.26495(17) 0.4573(3)
V1E V 0.11898(4) 0.28105(4) -0.29285(6)
V1B V 0.61898(4) 0.21895(4) 0.20715(6)
loop_
_geom_bond_atom_site_label_1
_geom_bond_atom_site_label_2
_geom_bond_site_symmetry_1
_geom_bond_site_symmetry_2
V1 O1 1_555 1_555
Se1 O1 1_555 1_555
O2 V1 1_555 1_555
O3 Se1 1_555 1_555
O4 Se1 1_555 1_555
N1 V1 1_555 1_555
N2 V1 1_555 1_555
C1 N1 1_555 1_555
H1 C1 1_555 1_555
C2 C1 1_555 1_555
H2 C2 1_555 1_555
C3 C2 1_555 1_555
H3 C3 1_555 1_555
C4 C3 1_555 1_555
H4 C4 1_555 1_555
C5 N1 1_555 1_555
C6 N2 1_555 1_555
C7 C6 1_555 1_555
H5 C7 1_555 1_555
C8 C7 1_555 1_555
H6 C8 1_555 1_555
C9 C8 1_555 1_555
H7 C9 1_555 1_555
C10 N2 1_555 1_555
H8 C10 1_555 1_555
O3E V1 1_555 1_555
O4B V1 1_555 1_555
V1E O3 1_555 1_555
V1B O4 1_555 1_555
C4 C5 1_555 1_555
C5 C6 1_555 1_555
C9 C10 1_555 1_555

#END
