
#######################################################################
#
#                 Cambridge Crystallographic Data Centre
#                                CCDC 
#
#######################################################################
#
# If this CIF has been generated from an entry in the Cambridge 
# Structural Database, then it will include bibliographic, chemical, 
# crystal, experimental, refinement or atomic coordinate data resulting 
# from the CCDC's data processing and validation procedures.
#
#######################################################################

data_BEGHOL
_symmetry_cell_setting           triclinic
_symmetry_space_group_name_H-M   'P -1'
_symmetry_Int_Tables_number      2
_space_group_name_Hall           '-P 1'
loop_
_symmetry_equiv_pos_site_id
_symmetry_equiv_pos_as_xyz
1 x,y,z
2 -x,-y,-z
_cell_length_a                   8.166(3)
_cell_length_b                   9.026(4)
_cell_length_c                   11.548(4)
_cell_angle_alpha                78.802(6)
_cell_angle_beta                 83.426(7)
_cell_angle_gamma                81.531(6)
_cell_volume                     822.61
loop_
_atom_site_label
_atom_site_type_symbol
_atom_site_fract_x
_atom_site_fract_y
_atom_site_fract_z
Ag1 Ag 0.59793(11) 0.41132(11) 0.67100(8)
S1 S 0.4425(4) -0.2658(4) 0.7247(3)
S2 S 0.3278(4) 0.3297(4) 0.5530(2)
N1 N 0.4358(12) -0.5460(11) 0.8282(8)
N2 N 0.2179(11) 0.6126(11) 0.4830(8)
C1 C 0.3917(15) -0.6571(14) 0.9134(10)
H1 H 0.4412 -0.7559 0.9098
C2 C 0.2761(19) -0.6347(17) 1.0077(11)
H2 H 0.2426 -0.7168 1.0628
C3 C 0.2125(19) -0.4888(15) 1.0175(12)
H3 H 0.1351 -0.4702 1.0803
C4 C 0.2629(14) -0.3692(14) 0.9346(9)
H4 H 0.2255 -0.2689 0.9424
C5 C 0.3705(13) -0.4031(14) 0.8399(10)
C6 C 0.3235(16) -0.0911(15) 0.7534(10)
H5 H 0.2062 -0.1026 0.7656
H6 H 0.3561 -0.0656 0.8245
C7 C 0.3535(16) 0.0331(15) 0.6500(10)
H7 H 0.4714 0.0424 0.6369
H8 H 0.3194 0.0076 0.5793
C8 C 0.2598(15) 0.1802(14) 0.6711(11)
H9 H 0.2809 0.1996 0.7474
H10 H 0.1415 0.1774 0.6712
C9 C 0.1934(12) 0.4980(13) 0.5703(9)
C10 C 0.0752(15) 0.5125(14) 0.6653(10)
H11 H 0.0584 0.4292 0.7249
C11 C -0.0160(17) 0.6513(17) 0.6698(11)
H12 H -0.0976 0.6632 0.7317
C12 C 0.0143(16) 0.7735(15) 0.5815(11)
H13 H -0.0424 0.8702 0.5842
C13 C 0.1316(16) 0.7478(14) 0.4885(10)
H14 H 0.1506 0.8289 0.4274
N1_2 N 0.4358(12) 0.4540(11) 0.8282(8)
N2A N 0.7821(11) 0.3874(11) 0.5170(8)
Ag1_2 Ag 0.59793(11) -0.58868(11) 0.67100(8)
Ag1A Ag 0.40207(11) 0.58868(11) 0.32900(8)
Cl1 Cl 0.2073(4) 0.9293(4) 0.1610(3)
O1 O 0.1392(17) 0.7892(14) 0.1777(12)
O2 O 0.1000(16) 1.0434(15) 0.2016(13)
O3 O 0.345(2) 0.895(2) 0.2315(12)
O4 O 0.271(2) 0.9726(16) 0.0446(9)
loop_
_geom_bond_atom_site_label_1
_geom_bond_atom_site_label_2
_geom_bond_site_symmetry_1
_geom_bond_site_symmetry_2
Ag1 S2 1_555 1_555
S1 C5 1_555 1_555
S2 C8 1_555 1_555
N1 C1 1_555 1_555
N2 C9 1_555 1_555
C1 H1 1_555 1_555
C2 C1 1_555 1_555
H2 C2 1_555 1_555
C3 C2 1_555 1_555
H3 C3 1_555 1_555
C4 C3 1_555 1_555
H4 C4 1_555 1_555
C5 N1 1_555 1_555
C6 S1 1_555 1_555
H5 C6 1_555 1_555
H6 C6 1_555 1_555
C7 C6 1_555 1_555
H7 C7 1_555 1_555
H8 C7 1_555 1_555
C8 C7 1_555 1_555
H9 C8 1_555 1_555
H10 C8 1_555 1_555
C9 S2 1_555 1_555
C10 C9 1_555 1_555
H11 C10 1_555 1_555
C11 C10 1_555 1_555
H12 C11 1_555 1_555
C12 C11 1_555 1_555
H13 C12 1_555 1_555
C13 N2 1_555 1_555
H14 C13 1_555 1_555
Cl1 O1 1_555 1_555
O2 Cl1 1_555 1_555
O3 Cl1 1_555 1_555
O4 Cl1 1_555 1_555
N1_2 Ag1 1_555 1_555
N2A Ag1 1_555 1_555
Ag1_2 N1 1_555 1_555
Ag1A N2 1_555 1_555
C4 C5 1_555 1_555
C12 C13 1_555 1_555

#END
