
#######################################################################
#
#                 Cambridge Crystallographic Data Centre
#                                CCDC 
#
#######################################################################
#
# If this CIF has been generated from an entry in the Cambridge 
# Structural Database, then it will include bibliographic, chemical, 
# crystal, experimental, refinement or atomic coordinate data resulting 
# from the CCDC's data processing and validation procedures.
#
#######################################################################

data_BEGJED
_symmetry_cell_setting           orthorhombic
_symmetry_space_group_name_H-M   'P b c n'
_symmetry_Int_Tables_number      60
_space_group_name_Hall           '-P 2n 2ab'
loop_
_symmetry_equiv_pos_site_id
_symmetry_equiv_pos_as_xyz
1 x,y,z
2 1/2+x,1/2+y,1/2-z
3 x,-y,1/2+z
4 1/2-x,1/2+y,z
5 -x,-y,-z
6 1/2-x,1/2-y,1/2+z
7 -x,y,1/2-z
8 1/2+x,1/2-y,-z
_cell_length_a                   10.465(7)
_cell_length_b                   9.071(6)
_cell_length_c                   19.920(12)
_cell_angle_alpha                90
_cell_angle_beta                 90
_cell_angle_gamma                90
_cell_volume                     1890.97
loop_
_atom_site_label
_atom_site_type_symbol
_atom_site_fract_x
_atom_site_fract_y
_atom_site_fract_z
Ag1 Ag 0.88631(3) 0.09377(5) 0.697808(19)
S1 S 0.79839(11) 0.14150(14) 0.81304(6)
N1 N 0.9757(3) -0.0193(4) 0.87238(18)
C1 C 1.0221(5) -0.1152(6) 0.9184(2)
H1 H 1.1087 -0.1377 0.9172
C2 C 0.9482(6) -0.1810(6) 0.9668(3)
H2 H 0.9836 -0.2476 0.9970
C3 C 0.8196(6) -0.1455(6) 0.9694(3)
H3 H 0.7674 -0.1877 1.0019
C4 C 0.7689(5) -0.0473(6) 0.9235(2)
H4 H 0.6828 -0.0218 0.9249
C5 C 0.8497(4) 0.0129(5) 0.8748(2)
C6 C 0.6262(4) 0.1012(6) 0.8046(3)
H5 H 0.6137 -0.0004 0.7909
H6 H 0.5833 0.1162 0.8472
C7 C 0.5730(4) 0.2037(6) 0.7527(3)
H7 H 0.6083 0.1770 0.7093
H8 H 0.6012 0.3030 0.7628
C7F C 0.4270(4) 0.2037(6) 0.7473(3)
C6F C 0.3738(4) 0.1012(6) 0.6954(3)
S1F S 0.20161(11) 0.14150(14) 0.68696(6)
C5F C 0.1503(4) 0.0129(5) 0.6252(2)
N1F N 0.0243(3) -0.0193(4) 0.62762(18)
C1F C -0.0221(5) -0.1152(6) 0.5816(2)
H1F H -0.1087 -0.1377 0.5828
C2F C 0.0518(6) -0.1810(6) 0.5332(3)
H2F H 0.0164 -0.2476 0.5030
C3F C 0.1804(6) -0.1455(6) 0.5306(3)
H3F H 0.2326 -0.1877 0.4981
C4F C 0.2311(5) -0.0473(6) 0.5765(2)
H4F H 0.3172 -0.0218 0.5751
H5F H 0.3863 -0.0004 0.7091
H6F H 0.4167 0.1162 0.6528
H7F H 0.3917 0.1770 0.7907
H8F H 0.3988 0.3030 0.7372
Ag1F Ag 0.11369(3) 0.09377(5) 0.802192(19)
Ag1F_2 Ag 1.11369(3) 0.09377(5) 0.802192(19)
N1F_2 N 1.0243(3) -0.0193(4) 0.62762(18)
Ag1_2 Ag -0.11369(3) 0.09377(5) 0.697808(19)
N1_2 N -0.0243(3) -0.0193(4) 0.87238(18)
N2 N 0.8605(4) 0.4144(5) 0.6288(2)
O1 O 0.8278(7) 0.5318(6) 0.6043(3)
O2 O 0.9530(5) 0.3421(8) 0.6123(3)
O3 O 0.7942(5) 0.3675(6) 0.6750(2)
loop_
_geom_bond_atom_site_label_1
_geom_bond_atom_site_label_2
_geom_bond_site_symmetry_1
_geom_bond_site_symmetry_2
Ag1 S1 1_555 1_555
S1 C5 1_555 1_555
N1 C1 1_555 1_555
C1 H1 1_555 1_555
C2 C1 1_555 1_555
H2 C2 1_555 1_555
C3 C2 1_555 1_555
H3 C3 1_555 1_555
C4 C3 1_555 1_555
H4 C4 1_555 1_555
C5 N1 1_555 1_555
C6 S1 1_555 1_555
H5 C6 1_555 1_555
H6 C6 1_555 1_555
C7 C6 1_555 1_555
H7 C7 1_555 1_555
H8 C7 1_555 1_555
N2 O1 1_555 1_555
O2 N2 1_555 1_555
O3 N2 1_555 1_555
C7F C7 1_555 1_555
C6F C7F 1_555 1_555
S1F C6F 1_555 1_555
C5F S1F 1_555 1_555
N1F C5F 1_555 1_555
C1F N1F 1_555 1_555
H1F C1F 1_555 1_555
C2F C1F 1_555 1_555
H2F C2F 1_555 1_555
C3F C2F 1_555 1_555
H3F C3F 1_555 1_555
C4F C5F 1_555 1_555
H4F C4F 1_555 1_555
H5F C6F 1_555 1_555
H6F C6F 1_555 1_555
H7F C7F 1_555 1_555
H8F C7F 1_555 1_555
Ag1F S1F 1_555 1_555
Ag1F_2 Ag1 1_555 1_555
N1F_2 Ag1 1_555 1_555
Ag1_2 N1F 1_555 1_555
N1_2 Ag1F 1_555 1_555
N1 Ag1F_2 1_555 1_555
C4 C5 1_555 1_555
C3F C4F 1_555 1_555
Ag1F Ag1_2 1_555 1_555

#END
