
#######################################################################
#
#                 Cambridge Crystallographic Data Centre
#                                CCDC 
#
#######################################################################
#
# If this CIF has been generated from an entry in the Cambridge 
# Structural Database, then it will include bibliographic, chemical, 
# crystal, experimental, refinement or atomic coordinate data resulting 
# from the CCDC's data processing and validation procedures.
#
#######################################################################

data_BEGJAZ
_symmetry_cell_setting           triclinic
_symmetry_space_group_name_H-M   'P -1'
_symmetry_Int_Tables_number      2
_space_group_name_Hall           '-P 1'
loop_
_symmetry_equiv_pos_site_id
_symmetry_equiv_pos_as_xyz
1 x,y,z
2 -x,-y,-z
_cell_length_a                   10.567(4)
_cell_length_b                   10.868(4)
_cell_length_c                   11.038(4)
_cell_angle_alpha                67.397(5)
_cell_angle_beta                 73.358(6)
_cell_angle_gamma                74.758(5)
_cell_volume                     1104.38
loop_
_atom_site_label
_atom_site_type_symbol
_atom_site_fract_x
_atom_site_fract_y
_atom_site_fract_z
Ag1 Ag 0.37713(4) 0.44001(5) 0.11513(5)
C1 C 0.5448(7) 0.1741(7) 0.2936(7)
H1 H 0.4689 0.1405 0.3029
C2 C 0.6471(7) 0.0876(8) 0.3568(7)
H2 H 0.6417 -0.0032 0.4035
C3 C 0.7542(7) 0.1376(8) 0.3494(7)
H3 H 0.8222 0.0823 0.3937
C4 C 0.7621(6) 0.2735(7) 0.2742(6)
H4 H 0.8355 0.3100 0.2666
C5 C 0.6597(5) 0.3507(6) 0.2128(5)
C6 C 0.8223(6) 0.5544(7) 0.0921(6)
H5 H 0.8441 0.5237 0.1798
H6 H 0.8225 0.6510 0.0534
C7 C 0.9318(5) 0.4850(6) 0.0043(6)
H7 H 0.9333 0.3881 0.0417
H8 H 0.9133 0.5169 -0.0849
C8 C 0.2272(9) 0.4683(10) 0.4035(8)
H9 H 0.2593 0.3756 0.4302
C9 C 0.1541(11) 0.5217(15) 0.4999(10)
H10 H 0.1331 0.4686 0.5896
C10 C 0.1117(10) 0.6633(16) 0.4551(13)
H11 H 0.0619 0.7057 0.5169
C11 C 0.1429(9) 0.7397(10) 0.3215(10)
H12 H 0.1159 0.8331 0.2923
C12 C 0.2141(7) 0.6742(9) 0.2342(8)
C13 C 0.1782(10) 0.9214(9) 0.0236(11)
H13 H 0.1801 0.9582 0.0903
H14 H 0.2208 0.9773 -0.0633
C14 C 0.0333(11) 0.9262(10) 0.0226(12)
H15 H 0.0301 0.8829 -0.0383
H16 H -0.0132 0.8788 0.1117
N1 N 0.5512(5) 0.3052(5) 0.2191(5)
N2 N 0.2560(5) 0.5377(6) 0.2752(6)
S1 S 0.65409(14) 0.52612(15) 0.11415(15)
S2 S 0.2706(3) 0.7511(2) 0.0607(2)
C7A C 1.0682(5) 0.5150(6) -0.0043(6)
C6A C 1.1777(6) 0.4456(7) -0.0921(6)
H5A H 1.1559 0.4763 -0.1798
H6A H 1.1775 0.3490 -0.0534
S1A S 1.34591(14) 0.47388(15) -0.11415(15)
C5A C 1.3403(5) 0.6493(6) -0.2128(5)
C4A C 1.2379(6) 0.7265(7) -0.2742(6)
C3A C 1.2458(7) 0.8624(8) -0.3494(7)
C2A C 1.3529(7) 0.9124(8) -0.3568(7)
C1A C 1.4552(7) 0.8259(7) -0.2936(7)
H1A H 1.5311 0.8595 -0.3029
N1A N 1.4488(5) 0.6948(5) -0.2191(5)
H2A H 1.3583 1.0032 -0.4035
H3A H 1.1778 0.9177 -0.3937
H4A H 1.1645 0.6900 -0.2666
H7A H 1.0667 0.6119 -0.0417
H8A H 1.0867 0.4831 0.0849
C14A C -0.0333(11) 1.0738(10) -0.0226(12)
C13A C -0.1782(10) 1.0786(9) -0.0236(11)
H13A H -0.1801 1.0418 -0.0903
H14A H -0.2208 1.0227 0.0633
S2A S -0.2706(3) 1.2489(2) -0.0607(2)
C12A C -0.2141(7) 1.3258(9) -0.2342(8)
C11A C -0.1429(9) 1.2603(10) -0.3215(10)
C10A C -0.1117(10) 1.3367(16) -0.4551(13)
C9A C -0.1541(11) 1.4783(15) -0.4999(10)
C8A C -0.2272(9) 1.5317(10) -0.4035(8)
H9A H -0.2593 1.6244 -0.4302
N2A N -0.2560(5) 1.4623(6) -0.2752(6)
H10A H -0.1331 1.5314 -0.5896
H11A H -0.0619 1.2943 -0.5169
H12A H -0.1159 1.1669 -0.2923
H15A H -0.0301 1.1171 0.0383
H16A H 0.0132 1.1212 -0.1117
Ag1A Ag 1.62287(4) 0.55999(5) -0.11513(5)
Ag1A_2 Ag 0.62287(4) 0.55999(5) -0.11513(5)
S1A_2 S 0.34591(14) 0.47388(15) -0.11415(15)
Ag1_2 Ag 1.37713(4) 0.44001(5) 0.11513(5)
Ag1A_3 Ag -0.37713(4) 1.55999(5) -0.11513(5)
N2A_2 N 1.7440(5) 0.4623(6) -0.2752(6)
S1_2 S 1.65409(14) 0.52612(15) 0.11415(15)
C15 C 0.4689(14) 0.1276(12) 0.8410(13)
H17 H 0.4003 0.0787 0.9040
H18 H 0.4925 0.1811 0.8804
H19 H 0.5466 0.0647 0.8183
C16 C 0.4194(11) 0.2160(10) 0.7199(11)
C17 C 0.5110(12) 0.2981(16) 0.6105(12)
H20 H 0.4637 0.3589 0.5416
H21 H 0.5841 0.2399 0.5738
H22 H 0.5451 0.3493 0.6443
O5 O 0.3027(9) 0.2268(10) 0.7167(9)
Cl1 Cl 0.18318(16) 0.15601(17) 0.27032(18)
O1 O 0.2888(6) 0.2054(8) 0.1586(7)
O2 O 0.1321(18) 0.2706(14) 0.3113(16)
O3 O 0.2356(12) 0.0397(13) 0.3589(13)
O4 O 0.0834(9) 0.1414(14) 0.2179(13)
loop_
_geom_bond_atom_site_label_1
_geom_bond_atom_site_label_2
_geom_bond_site_symmetry_1
_geom_bond_site_symmetry_2
Ag1 N1 1_555 1_555
C1 H1 1_555 1_555
C2 C1 1_555 1_555
H2 C2 1_555 1_555
C3 C2 1_555 1_555
H3 C3 1_555 1_555
C4 C3 1_555 1_555
H4 C4 1_555 1_555
C5 C4 1_555 1_555
C6 H5 1_555 1_555
H6 C6 1_555 1_555
C7 C6 1_555 1_555
H7 C7 1_555 1_555
H8 C7 1_555 1_555
C8 H9 1_555 1_555
C9 C8 1_555 1_555
H10 C9 1_555 1_555
C10 C9 1_555 1_555
H11 C10 1_555 1_555
C11 C10 1_555 1_555
H12 C11 1_555 1_555
C12 C11 1_555 1_555
C13 H13 1_555 1_555
H14 C13 1_555 1_555
C14 C13 1_555 1_555
H15 C14 1_555 1_555
H16 C14 1_555 1_555
C15 H17 1_555 1_555
H18 C15 1_555 1_555
H19 C15 1_555 1_555
C16 C15 1_555 1_555
C17 C16 1_555 1_555
H20 C17 1_555 1_555
H21 C17 1_555 1_555
H22 C17 1_555 1_555
Cl1 O1 1_555 1_555
N1 C1 1_555 1_555
N2 Ag1 1_555 1_555
O2 Cl1 1_555 1_555
O3 Cl1 1_555 1_555
O4 Cl1 1_555 1_555
O5 C16 1_555 1_555
S1 C5 1_555 1_555
S2 C12 1_555 1_555
C7A C7 1_555 1_555
C6A C7A 1_555 1_555
H5A C6A 1_555 1_555
H6A C6A 1_555 1_555
S1A C6A 1_555 1_555
C5A S1A 1_555 1_555
C4A C5A 1_555 1_555
C3A C4A 1_555 1_555
C2A C3A 1_555 1_555
C1A C2A 1_555 1_555
H1A C1A 1_555 1_555
N1A C5A 1_555 1_555
H2A C2A 1_555 1_555
H3A C3A 1_555 1_555
H4A C4A 1_555 1_555
H7A C7A 1_555 1_555
H8A C7A 1_555 1_555
C14A C14 1_555 1_555
C13A C14A 1_555 1_555
H13A C13A 1_555 1_555
H14A C13A 1_555 1_555
S2A C13A 1_555 1_555
C12A S2A 1_555 1_555
C11A C12A 1_555 1_555
C10A C11A 1_555 1_555
C9A C10A 1_555 1_555
C8A C9A 1_555 1_555
H9A C8A 1_555 1_555
N2A C12A 1_555 1_555
H10A C9A 1_555 1_555
H11A C10A 1_555 1_555
H12A C11A 1_555 1_555
H15A C14A 1_555 1_555
H16A C14A 1_555 1_555
Ag1A N1A 1_555 1_555
Ag1A_2 Ag1 1_555 1_555
S1A_2 Ag1 1_555 1_555
Ag1_2 S1A 1_555 1_555
Ag1A_3 N2A 1_555 1_555
N2A_2 Ag1A 1_555 1_555
S1_2 Ag1A 1_555 1_555
C5 N1 1_555 1_555
C6 S1 1_555 1_555
C8 N2 1_555 1_555
C12 N2 1_555 1_555
C13 S2 1_555 1_555
S1 Ag1A_2 1_555 1_555
C1A N1A 1_555 1_555
C8A N2A 1_555 1_555
Ag1A Ag1_2 1_555 1_555

#END
