
#######################################################################
#
#                 Cambridge Crystallographic Data Centre
#                                CCDC 
#
#######################################################################
#
# If this CIF has been generated from an entry in the Cambridge 
# Structural Database, then it will include bibliographic, chemical, 
# crystal, experimental, refinement or atomic coordinate data resulting 
# from the CCDC's data processing and validation procedures.
#
#######################################################################

data_BEGJIH
_symmetry_cell_setting           triclinic
_symmetry_space_group_name_H-M   'P -1'
_symmetry_Int_Tables_number      2
_space_group_name_Hall           '-P 1'
loop_
_symmetry_equiv_pos_site_id
_symmetry_equiv_pos_as_xyz
1 x,y,z
2 -x,-y,-z
_cell_length_a                   5.707(2)
_cell_length_b                   10.006(4)
_cell_length_c                   11.118(4)
_cell_angle_alpha                93.866(6)
_cell_angle_beta                 96.241(7)
_cell_angle_gamma                104.652(6)
_cell_volume                     607.617
loop_
_atom_site_label
_atom_site_type_symbol
_atom_site_fract_x
_atom_site_fract_y
_atom_site_fract_z
Ag1 Ag -0.09094(6) 1.07616(3) 0.08948(3)
S1 S -0.27605(18) 1.15225(10) -0.09573(9)
N1 N 0.0583(6) 1.0811(3) -0.2194(3)
C1 C 0.1787(8) 1.0793(4) -0.3167(4)
H1 H 0.2897 1.0255 -0.3179
C2 C 0.1468(8) 1.1523(4) -0.4138(4)
H2 H 0.2374 1.1500 -0.4782
C3 C -0.0212(9) 1.2290(5) -0.4147(4)
H3 H -0.0488 1.2783 -0.4804
C4 C -0.1477(8) 1.2317(4) -0.3168(4)
H4 H -0.2627 1.2829 -0.3153
C5 C -0.1023(7) 1.1575(4) -0.2207(3)
C6 C -0.2564(8) 1.3353(4) -0.0597(4)
H5 H -0.3637 1.3435 0.0008
H6 H -0.3153 1.3717 -0.1323
C7 C -0.0031(8) 1.4230(4) -0.0125(4)
H7 H 0.0548 1.3896 0.0621
H8 H 0.1064 1.4137 -0.0716
S2 S 0.51782(19) 1.22824(11) 0.24966(10)
O1 O 0.3525(5) 1.2138(3) 0.1391(3)
O2 O 0.4319(6) 1.1404(3) 0.3391(3)
O3 O 0.7664(5) 1.2385(3) 0.2293(3)
C8 C 0.5326(10) 1.4014(5) 0.3170(5)
F1 F 0.6112(6) 1.4961(3) 0.2427(3)
F2 F 0.3155(6) 1.4119(4) 0.3387(3)
F3 F 0.6807(7) 1.4328(3) 0.4192(3)
C7A C 0.0031(8) 1.5770(4) 0.0125(4)
C6A C 0.2564(8) 1.6647(4) 0.0597(4)
S1A S 0.27605(18) 1.84775(10) 0.09573(9)
C5A C 0.1023(7) 1.8425(4) 0.2207(3)
N1A N -0.0583(6) 1.9189(3) 0.2194(3)
C1A C -0.1787(8) 1.9207(4) 0.3167(4)
H1A H -0.2897 1.9745 0.3179
C2A C -0.1468(8) 1.8477(4) 0.4138(4)
H2A H -0.2374 1.8500 0.4782
C3A C 0.0212(9) 1.7710(5) 0.4147(4)
H3A H 0.0488 1.7217 0.4804
C4A C 0.1477(8) 1.7683(4) 0.3168(4)
H4A H 0.2627 1.7171 0.3153
H5A H 0.3637 1.6565 -0.0008
H6A H 0.3153 1.6283 0.1323
H7A H -0.0548 1.6104 -0.0621
H8A H -0.1064 1.5863 0.0716
S2_2 S -0.48218(19) 1.22824(11) 0.24966(10)
O1_2 O -0.6475(5) 1.2138(3) 0.1391(3)
O2_2 O -0.5681(6) 1.1404(3) 0.3391(3)
O3_2 O -0.2336(5) 1.2385(3) 0.2293(3)
C8_2 C -0.4674(10) 1.4014(5) 0.3170(5)
F1_2 F -0.3888(6) 1.4961(3) 0.2427(3)
F2_2 F -0.6845(6) 1.4119(4) 0.3387(3)
F3_2 F -0.3193(7) 1.4328(3) 0.4192(3)
Ag1A Ag 0.09094(6) 1.92384(3) -0.08948(3)
Ag1A_2 Ag 0.09094(6) 0.92384(3) -0.08948(3)
N1A_2 N -0.0583(6) 0.9189(3) 0.2194(3)
Ag1_2 Ag 0.90906(6) 1.07616(3) 0.08948(3)
Ag1_3 Ag -0.09094(6) 2.07616(3) 0.08948(3)
Ag1_4 Ag -1.09094(6) 1.07616(3) 0.08948(3)
N1_2 N 0.0583(6) 2.0811(3) -0.2194(3)
O1A O -0.3525(5) 1.7862(3) -0.1391(3)
O3A O 0.2336(5) 1.7615(3) -0.2293(3)
loop_
_geom_bond_atom_site_label_1
_geom_bond_atom_site_label_2
_geom_bond_site_symmetry_1
_geom_bond_site_symmetry_2
Ag1 S1 1_555 1_555
S1 C5 1_555 1_555
N1 C1 1_555 1_555
C1 H1 1_555 1_555
C2 C1 1_555 1_555
H2 C2 1_555 1_555
C3 C2 1_555 1_555
H3 C3 1_555 1_555
C4 C3 1_555 1_555
H4 C4 1_555 1_555
C5 N1 1_555 1_555
C6 S1 1_555 1_555
H5 C6 1_555 1_555
H6 C6 1_555 1_555
C7 C6 1_555 1_555
H7 C7 1_555 1_555
H8 C7 1_555 1_555
S2 O1 1_555 1_555
O1 Ag1 1_555 1_555
O2 S2 1_555 1_555
O3 S2 1_555 1_555
C8 S2 1_555 1_555
F1 C8 1_555 1_555
F2 C8 1_555 1_555
F3 C8 1_555 1_555
C7A C7 1_555 1_555
C6A C7A 1_555 1_555
S1A C6A 1_555 1_555
C5A S1A 1_555 1_555
N1A C5A 1_555 1_555
C1A N1A 1_555 1_555
H1A C1A 1_555 1_555
C2A C1A 1_555 1_555
H2A C2A 1_555 1_555
C3A C2A 1_555 1_555
H3A C3A 1_555 1_555
C4A C5A 1_555 1_555
H4A C4A 1_555 1_555
H5A C6A 1_555 1_555
H6A C6A 1_555 1_555
H7A C7A 1_555 1_555
H8A C7A 1_555 1_555
S2_2 O1_2 1_555 1_555
O1_2 Ag1_4 1_555 1_555
O2_2 S2_2 1_555 1_555
O3_2 Ag1 1_555 1_555
C8_2 S2_2 1_555 1_555
F1_2 C8_2 1_555 1_555
F2_2 C8_2 1_555 1_555
F3_2 C8_2 1_555 1_555
Ag1A S1A 1_555 1_555
Ag1A_2 Ag1 1_555 1_555
N1A_2 Ag1 1_555 1_555
Ag1_2 O3 1_555 1_555
Ag1_3 N1A 1_555 1_555
N1_2 Ag1A 1_555 1_555
O1A Ag1A 1_555 1_555
O3A Ag1A 1_555 1_555
N1 Ag1A_2 1_555 1_555
C4 C5 1_555 1_555
C3A C4A 1_555 1_555
S2_2 O3_2 1_555 1_555
Ag1A Ag1_3 1_555 1_555

#END
