
#######################################################################
#
#                 Cambridge Crystallographic Data Centre
#                                CCDC 
#
#######################################################################
#
# If this CIF has been generated from an entry in the Cambridge 
# Structural Database, then it will include bibliographic, chemical, 
# crystal, experimental, refinement or atomic coordinate data resulting 
# from the CCDC's data processing and validation procedures.
#
#######################################################################

data_BEGJON
_symmetry_cell_setting           monoclinic
_symmetry_space_group_name_H-M   'C 2/c'
_symmetry_Int_Tables_number      15
_space_group_name_Hall           '-C 2yn'
loop_
_symmetry_equiv_pos_site_id
_symmetry_equiv_pos_as_xyz
1 x,y,z
2 1/2+x,1/2+y,z
3 x,-y,1/2+z
4 1/2+x,1/2-y,1/2+z
5 -x,-y,-z
6 1/2-x,1/2-y,-z
7 -x,y,1/2-z
8 1/2-x,1/2+y,1/2-z
_cell_length_a                   15.806(6)
_cell_length_b                   16.243(6)
_cell_length_c                   19.028(7)
_cell_angle_alpha                90
_cell_angle_beta                 97.892(8)
_cell_angle_gamma                90
_cell_volume                     4838.92
loop_
_atom_site_label
_atom_site_type_symbol
_atom_site_fract_x
_atom_site_fract_y
_atom_site_fract_z
Ag1 Ag 0.18885(5) 0.19910(5) 0.57714(4)
S1 S 0.37358(15) 0.18681(15) 0.55660(11)
S2 S 0.09923(18) 0.08730(17) 0.45041(13)
N1 N 0.3205(5) 0.1675(4) 0.4234(5)
N2 N 0.1720(5) 0.0656(4) 0.5790(5)
C1 C 0.3487(5) 0.1228(6) 0.4818(4)
C2 C 0.3546(6) 0.0382(6) 0.4795(5)
H1 H 0.3749 0.0090 0.5204
C3 C 0.3307(6) -0.0024(6) 0.4177(6)
H2 H 0.3339 -0.0595 0.4161
C4 C 0.3013(7) 0.0423(7) 0.3568(5)
H3 H 0.2843 0.0163 0.3136
C5 C 0.2985(6) 0.1256(7) 0.3633(5)
H4 H 0.2798 0.1558 0.3226
C6 C 0.4269(5) 0.1187(5) 0.6233(4)
H5 H 0.4721 0.0889 0.6046
H6 H 0.3866 0.0790 0.6376
C7 C 0.4640(5) 0.1709(5) 0.6864(4)
H7 H 0.5091 0.2055 0.6729
H8 H 0.4198 0.2066 0.7001
C8 C 0.5000 0.1170(8) 0.7500
H9 H 0.5449 0.0820 0.7367
C9 C 0.1385(6) 0.0223(7) 0.5204(5)
C10 C 0.1377(7) -0.0624(7) 0.5198(5)
H10 H 0.1141 -0.0905 0.4793
C11 C 0.1712(7) -0.1042(6) 0.5779(6)
H11 H 0.1720 -0.1614 0.5776
C12 C 0.2040(7) -0.0617(8) 0.6373(6)
H12 H 0.2257 -0.0896 0.6785
C13 C 0.2044(6) 0.0218(7) 0.6356(6)
H13 H 0.2285 0.0499 0.6760
C14 C 0.0628(6) 0.0176(6) 0.3793(4)
H14 H 0.1089 -0.0185 0.3701
H15 H 0.0162 -0.0159 0.3917
C15 C 0.0329(6) 0.0692(6) 0.3143(4)
H16 H 0.0799 0.1029 0.3030
H17 H -0.0124 0.1057 0.3246
C16 C 0.0000 0.0153(9) 0.2500
H18 H -0.0458 -0.0198 0.2616
C7F C 0.5360(5) 0.1709(5) 0.8136(4)
C6F C 0.5731(5) 0.1187(5) 0.8767(4)
S1F S 0.62642(15) 0.18681(15) 0.94340(11)
C1F C 0.6513(5) 0.1228(6) 1.0182(4)
N1F N 0.6795(5) 0.1675(4) 1.0766(5)
C5F C 0.7015(6) 0.1256(7) 1.1367(5)
C4F C 0.6987(7) 0.0423(7) 1.1432(5)
C3F C 0.6693(6) -0.0024(6) 1.0823(6)
C2F C 0.6454(6) 0.0382(6) 1.0205(5)
H1F H 0.6251 0.0090 0.9796
H2F H 0.6661 -0.0595 1.0839
H3F H 0.7157 0.0163 1.1864
H4F H 0.7202 0.1558 1.1774
H5F H 0.5279 0.0889 0.8954
H6F H 0.6134 0.0790 0.8624
H7F H 0.4909 0.2055 0.8271
H8F H 0.5802 0.2066 0.7999
H9F H 0.4551 0.0820 0.7633
C15F C -0.0329(6) 0.0692(6) 0.1857(4)
C14F C -0.0628(6) 0.0176(6) 0.1207(4)
S2F S -0.09923(18) 0.08730(17) 0.04959(13)
C9F C -0.1385(6) 0.0223(7) -0.0204(5)
N2F N -0.1720(5) 0.0656(4) -0.0790(5)
C13F C -0.2044(6) 0.0218(7) -0.1356(6)
C12F C -0.2040(7) -0.0617(8) -0.1373(6)
C11F C -0.1712(7) -0.1042(6) -0.0779(6)
C10F C -0.1377(7) -0.0624(7) -0.0198(5)
H10F H -0.1141 -0.0905 0.0207
H11F H -0.1720 -0.1614 -0.0776
H12F H -0.2257 -0.0896 -0.1785
H13F H -0.2285 0.0499 -0.1760
H14F H -0.1089 -0.0185 0.1299
H15F H -0.0162 -0.0159 0.1083
H16F H -0.0799 0.1029 0.1970
H17F H 0.0124 0.1057 0.1754
H18F H 0.0458 -0.0198 0.2384
Ag1F Ag 0.81115(5) 0.19910(5) 0.92286(4)
N1E N 0.1795(5) 0.3325(4) 0.5766(5)
Ag1E Ag 0.31115(5) 0.30090(5) 0.42286(4)
Ag1C Ag 0.68885(5) 0.30090(5) 1.07714(4)
Ag1F_2 Ag -0.18885(5) 0.19910(5) -0.07714(4)
N1C N 0.8205(5) 0.3325(4) 0.9234(5)
N2F_2 N 0.8280(5) 0.0656(4) 0.9210(5)
Cl1 Cl 0.2523(2) 0.1953(2) 0.79046(15)
O1 O 0.1899(7) 0.1351(7) 0.8032(8)
O2 O 0.3257(7) 0.1882(9) 0.8375(7)
O3 O 0.2127(9) 0.2745(6) 0.7963(7)
O4 O 0.2658(9) 0.1884(9) 0.7185(5)
C17 C 0.5695(7) 0.2071(7) 0.3826(7)
H19 H 0.6212 0.2204 0.3619
Cl2 Cl 0.4939(3) 0.2808(3) 0.3582(3)
Cl3 Cl 0.5349(2) 0.1107(2) 0.3547(2)
Cl4 Cl 0.5939(4) 0.2042(3) 0.4733(3)
O5? O 0.3072(9) 0.1264(8) 0.7779(9)
O6? O 0.3060(13) 0.2662(8) 0.7848(12)
O7? O 0.2329(14) 0.1888(14) 0.8589(7)
O8? O 0.1842(11) 0.1969(15) 0.7370(10)
loop_
_geom_bond_atom_site_label_1
_geom_bond_atom_site_label_2
_geom_bond_site_symmetry_1
_geom_bond_site_symmetry_2
Ag1 S1 1_555 1_555
S1 C1 1_555 1_555
S2 C9 1_555 1_555
N1 C1 1_555 1_555
N2 Ag1 1_555 1_555
C1 C2 1_555 1_555
C2 H1 1_555 1_555
C3 C2 1_555 1_555
H2 C3 1_555 1_555
C4 C3 1_555 1_555
H3 C4 1_555 1_555
C5 N1 1_555 1_555
H4 C5 1_555 1_555
C6 S1 1_555 1_555
H5 C6 1_555 1_555
H6 C6 1_555 1_555
C7 C6 1_555 1_555
H7 C7 1_555 1_555
H8 C7 1_555 1_555
C8 C7 1_555 1_555
H9 C8 1_555 1_555
C9 N2 1_555 1_555
C10 C9 1_555 1_555
H10 C10 1_555 1_555
C11 C10 1_555 1_555
H11 C11 1_555 1_555
C12 C11 1_555 1_555
H12 C12 1_555 1_555
C13 N2 1_555 1_555
H13 C13 1_555 1_555
C14 S2 1_555 1_555
H14 C14 1_555 1_555
H15 C14 1_555 1_555
C15 C14 1_555 1_555
H16 C15 1_555 1_555
H17 C15 1_555 1_555
C16 C15 1_555 1_555
H18 C16 1_555 1_555
Cl1 O1 1_555 1_555
O2 Cl1 1_555 1_555
O3 Cl1 1_555 1_555
O4 Cl1 1_555 1_555
C17 H19 1_555 1_555
Cl2 C17 1_555 1_555
Cl3 C17 1_555 1_555
Cl4 C17 1_555 1_555
C7F C8 1_555 1_555
C6F C7F 1_555 1_555
S1F C6F 1_555 1_555
C1F S1F 1_555 1_555
N1F C1F 1_555 1_555
C5F N1F 1_555 1_555
C4F C5F 1_555 1_555
C3F C4F 1_555 1_555
C2F C1F 1_555 1_555
H1F C2F 1_555 1_555
H2F C3F 1_555 1_555
H3F C4F 1_555 1_555
H4F C5F 1_555 1_555
H5F C6F 1_555 1_555
H6F C6F 1_555 1_555
H7F C7F 1_555 1_555
H8F C7F 1_555 1_555
H9F C8 1_555 1_555
C15F C16 1_555 1_555
C14F C15F 1_555 1_555
S2F C14F 1_555 1_555
C9F S2F 1_555 1_555
N2F C9F 1_555 1_555
C13F N2F 1_555 1_555
C12F C13F 1_555 1_555
C11F C12F 1_555 1_555
C10F C9F 1_555 1_555
H10F C10F 1_555 1_555
H11F C11F 1_555 1_555
H12F C12F 1_555 1_555
H13F C13F 1_555 1_555
H14F C14F 1_555 1_555
H15F C14F 1_555 1_555
H16F C15F 1_555 1_555
H17F C15F 1_555 1_555
H18F C16 1_555 1_555
Ag1F S1F 1_555 1_555
N1E Ag1 1_555 1_555
Ag1E N1 1_555 1_555
Ag1C N1F 1_555 1_555
Ag1F_2 N2F 1_555 1_555
N1C Ag1F 1_555 1_555
N2F_2 Ag1F 1_555 1_555
C4 C5 1_555 1_555
C12 C13 1_555 1_555
C3F C2F 1_555 1_555
C11F C10F 1_555 1_555

#END
