
#######################################################################
#
#                 Cambridge Crystallographic Data Centre
#                                CCDC 
#
#######################################################################
#
# If this CIF has been generated from an entry in the Cambridge 
# Structural Database, then it will include bibliographic, chemical, 
# crystal, experimental, refinement or atomic coordinate data resulting 
# from the CCDC's data processing and validation procedures.
#
#######################################################################

data_BEGKEE
_symmetry_cell_setting           monoclinic
_symmetry_space_group_name_H-M   'C 2/c'
_symmetry_Int_Tables_number      15
_space_group_name_Hall           '-C 2yn'
loop_
_symmetry_equiv_pos_site_id
_symmetry_equiv_pos_as_xyz
1 x,y,z
2 1/2+x,1/2+y,z
3 x,-y,1/2+z
4 1/2+x,1/2-y,1/2+z
5 -x,-y,-z
6 1/2-x,1/2-y,-z
7 -x,y,1/2-z
8 1/2-x,1/2+y,1/2-z
_cell_length_a                   27.746(10)
_cell_length_b                   10.096(4)
_cell_length_c                   19.083(7)
_cell_angle_alpha                90
_cell_angle_beta                 129.075(5)
_cell_angle_gamma                90
_cell_volume                     4149.9
loop_
_atom_site_label
_atom_site_type_symbol
_atom_site_fract_x
_atom_site_fract_y
_atom_site_fract_z
La1 La 0.0000 0.92998(5) 0.2500
Fe1 Fe 0.2500 0.7500 0.5000
Cu1 Cu 0.11587(4) 0.77180(8) 0.61159(5)
N1 N 0.0828(2) 0.9358(5) 0.5427(3)
C1 C 0.1383(4) 0.4853(8) 0.6381(5)
H1 H 0.1093 0.4485 0.6451
H2 H 0.1748 0.4292 0.6730
C2 C 0.2231(2) 0.5658(7) 0.4820(4)
C3 C 0.1654(3) 0.8100(6) 0.4085(4)
N2 N 0.0682(2) 0.6879(5) 0.4929(3)
O1 O 0.02587(19) 1.0036(4) 0.3952(3)
C4 C 0.0498(3) 0.9162(6) 0.4570(4)
N3 N 0.1158(2) 0.8478(5) 0.3545(3)
N4 N 0.2088(3) 0.4581(6) 0.4726(4)
C5 C 0.2607(3) 0.7256(6) 0.4094(4)
O2 O 0.00568(18) 0.7503(4) 0.3436(3)
N5 N 0.1643(3) 0.8574(6) 0.7319(4)
H3 H 0.1335 0.8558 0.7362
C6 C 0.0400(3) 0.7730(6) 0.4283(4)
N6 N 0.2659(3) 0.7088(6) 0.3554(4)
C7 C 0.1902(4) 0.6289(9) 0.7741(5)
H4 H 0.2291 0.5812 0.8065
H5 H 0.1670 0.5914 0.7918
C8 C 0.1732(4) 0.9931(8) 0.7413(5)
H6 H 0.2140 1.0090 0.7586
H7 H 0.1759 1.0182 0.7927
N7 N 0.1564(3) 0.6068(6) 0.6814(4)
H8 H 0.1899 0.6150 0.6833
C9 C 0.0652(3) 0.5481(7) 0.4726(5)
H9 H 0.0246 0.5149 0.4484
H10 H 0.0692 0.5390 0.4259
C10 C 0.2038(3) 0.7664(8) 0.8028(5)
H11 H 0.2000 0.7794 0.8495
H12 H 0.2464 0.7851 0.8289
C11 C 0.1118(5) 0.4660(9) 0.5484(5)
H13 H 0.0944 0.3774 0.5335
H14 H 0.1463 0.4627 0.5473
O3 O 0.06951(19) 1.1293(5) 0.2981(3)
C12 C 0.0987(4) 1.0723(8) 0.5775(5)
H15 H 0.1229 1.1118 0.5622
H16 H 0.0606 1.1229 0.5468
C13 C 0.1326(5) 1.0843(8) 0.6721(5)
H17 H 0.1568 1.1648 0.6890
H18 H 0.1016 1.1037 0.6791
H22 H 0.0997 1.1368 0.3496
H23 H 0.0488 1.1880 0.2667
N1F N -0.0828(2) 0.9358(5) -0.0427(3)
C1F C -0.1383(4) 0.4853(8) -0.1381(5)
H1F H -0.1093 0.4485 -0.1451
H2F H -0.1748 0.4292 -0.1730
N2F N -0.0682(2) 0.6879(5) 0.0071(3)
O1F O -0.02587(19) 1.0036(4) 0.1048(3)
C4F C -0.0498(3) 0.9162(6) 0.0430(4)
O2F O -0.00568(18) 0.7503(4) 0.1564(3)
N5F N -0.1643(3) 0.8574(6) -0.2319(4)
H3F H -0.1335 0.8558 -0.2362
C6F C -0.0400(3) 0.7730(6) 0.0717(4)
C7F C -0.1902(4) 0.6289(9) -0.2741(5)
H4F H -0.2291 0.5812 -0.3065
H5F H -0.1670 0.5914 -0.2918
C8F C -0.1732(4) 0.9931(8) -0.2413(5)
H6F H -0.2140 1.0090 -0.2586
H7F H -0.1759 1.0182 -0.2927
N7F N -0.1564(3) 0.6068(6) -0.1814(4)
H8F H -0.1899 0.6150 -0.1833
C9F C -0.0652(3) 0.5481(7) 0.0274(5)
H9F H -0.0246 0.5149 0.0516
H10F H -0.0692 0.5390 0.0741
C10F C -0.2038(3) 0.7664(8) -0.3028(5)
H11F H -0.2000 0.7794 -0.3495
H12F H -0.2464 0.7851 -0.3289
C11F C -0.1118(5) 0.4660(9) -0.0484(5)
H13F H -0.0944 0.3774 -0.0335
H14F H -0.1463 0.4627 -0.0473
C12F C -0.0987(4) 1.0723(8) -0.0775(5)
H15F H -0.1229 1.1118 -0.0622
H16F H -0.0606 1.1229 -0.0468
C13F C -0.1326(5) 1.0843(8) -0.1721(5)
H17F H -0.1568 1.1648 -0.1890
H18F H -0.1016 1.1037 -0.1791
C3F C -0.1654(3) 0.8100(6) 0.0915(4)
N3F N -0.1158(2) 0.8478(5) 0.1455(3)
O3F O -0.06951(19) 1.1293(5) 0.2019(3)
H22F H -0.0997 1.1368 0.1504
H23F H -0.0488 1.1880 0.2333
Cu1F Cu -0.11587(4) 0.77180(8) -0.11159(5)
C2E C 0.2769(2) 0.9342(7) 0.5180(4)
N4E N 0.2912(3) 1.0419(6) 0.5274(4)
C5E C 0.2393(3) 0.7744(6) 0.5906(4)
N6E N 0.2341(3) 0.7912(6) 0.6446(4)
C3E C 0.3346(3) 0.6900(6) 0.5915(4)
Fe1C Fe -0.2500 0.7500 0.0000
O4 O 0.1696(2) 0.1888(5) 0.4668(4)
H19 H 0.1791 0.2692 0.4701
H20 H 0.2036 0.1473 0.4884
O5 O 0.0241(2) 0.7437(5) 0.6224(4)
H26 H 0.0084 0.6798 0.6381
H27 H 0.0081 0.8071 0.6358
O6 O -0.0799(3) 0.5466(8) 0.2410(4)
H24 H -0.0529 0.6087 0.2679
H25 H -0.1031 0.5635 0.1817
O7 O 0.0000 1.3793(11) 0.2500
H21 H 0.0308 1.4197 0.2646
H21F H -0.0308 1.4197 0.2354
loop_
_geom_bond_atom_site_label_1
_geom_bond_atom_site_label_2
_geom_bond_site_symmetry_1
_geom_bond_site_symmetry_2
La1 O1 1_555 1_555
Fe1 C2 1_555 1_555
Cu1 N1 1_555 1_555
N1 C4 1_555 1_555
C1 H1 1_555 1_555
H2 C1 1_555 1_555
C2 N4 1_555 1_555
C3 Fe1 1_555 1_555
N2 Cu1 1_555 1_555
O1 C4 1_555 1_555
C4 C6 1_555 1_555
N3 La1 1_555 1_555
C5 Fe1 1_555 1_555
O2 La1 1_555 1_555
N5 Cu1 1_555 1_555
H3 N5 1_555 1_555
C6 N2 1_555 1_555
N6 C5 1_555 1_555
C7 H4 1_555 1_555
H5 C7 1_555 1_555
C8 N5 1_555 1_555
H6 C8 1_555 1_555
H7 C8 1_555 1_555
N7 Cu1 1_555 1_555
H8 N7 1_555 1_555
C9 N2 1_555 1_555
H9 C9 1_555 1_555
H10 C9 1_555 1_555
C10 N5 1_555 1_555
H11 C10 1_555 1_555
H12 C10 1_555 1_555
C11 C1 1_555 1_555
H13 C11 1_555 1_555
H14 C11 1_555 1_555
O3 La1 1_555 1_555
O4 H19 1_555 1_555
C12 N1 1_555 1_555
H15 C12 1_555 1_555
H16 C12 1_555 1_555
O5 H26 1_555 1_555
O6 H24 1_555 1_555
C13 C8 1_555 1_555
H17 C13 1_555 1_555
H18 C13 1_555 1_555
O7 H21 1_555 1_555
H20 O4 1_555 1_555
H22 O3 1_555 1_555
H23 O3 1_555 1_555
H25 O6 1_555 1_555
H27 O5 1_555 1_555
H21F O7 1_555 1_555
N1F C4F 1_555 1_555
C1F H1F 1_555 1_555
H2F C1F 1_555 1_555
N2F C6F 1_555 1_555
O1F La1 1_555 1_555
C4F O1F 1_555 1_555
O2F La1 1_555 1_555
N5F H3F 1_555 1_555
C6F C4F 1_555 1_555
C7F H4F 1_555 1_555
H5F C7F 1_555 1_555
C8F N5F 1_555 1_555
H6F C8F 1_555 1_555
H7F C8F 1_555 1_555
N7F C1F 1_555 1_555
H8F N7F 1_555 1_555
C9F N2F 1_555 1_555
H9F C9F 1_555 1_555
H10F C9F 1_555 1_555
C10F N5F 1_555 1_555
H11F C10F 1_555 1_555
H12F C10F 1_555 1_555
C11F C1F 1_555 1_555
H13F C11F 1_555 1_555
H14F C11F 1_555 1_555
C12F N1F 1_555 1_555
H15F C12F 1_555 1_555
H16F C12F 1_555 1_555
C13F C8F 1_555 1_555
H17F C13F 1_555 1_555
H18F C13F 1_555 1_555
C3F N3F 1_555 1_555
N3F La1 1_555 1_555
O3F La1 1_555 1_555
H22F O3F 1_555 1_555
H23F O3F 1_555 1_555
Cu1F N1F 1_555 1_555
C2E Fe1 1_555 1_555
N4E C2E 1_555 1_555
C5E Fe1 1_555 1_555
N6E C5E 1_555 1_555
C3E Fe1 1_555 1_555
Fe1C C3F 1_555 1_555
C1 N7 1_555 1_555
C3 N3 1_555 1_555
O2 C6 1_555 1_555
C7 N7 1_555 1_555
C7 C10 1_555 1_555
C9 C11 1_555 1_555
C12 C13 1_555 1_555
N2F Cu1F 1_555 1_555
O2F C6F 1_555 1_555
N5F Cu1F 1_555 1_555
C7F N7F 1_555 1_555
C7F C10F 1_555 1_555
N7F Cu1F 1_555 1_555
C9F C11F 1_555 1_555
C12F C13F 1_555 1_555

#END
