
#######################################################################
#
#                 Cambridge Crystallographic Data Centre
#                                CCDC 
#
#######################################################################
#
# If this CIF has been generated from an entry in the Cambridge 
# Structural Database, then it will include bibliographic, chemical, 
# crystal, experimental, refinement or atomic coordinate data resulting 
# from the CCDC's data processing and validation procedures.
#
#######################################################################

data_BEGKOO
_symmetry_cell_setting           monoclinic
_symmetry_space_group_name_H-M   'C 2/c'
_symmetry_Int_Tables_number      15
_space_group_name_Hall           '-C 2yn'
loop_
_symmetry_equiv_pos_site_id
_symmetry_equiv_pos_as_xyz
1 x,y,z
2 1/2+x,1/2+y,z
3 x,-y,1/2+z
4 1/2+x,1/2-y,1/2+z
5 -x,-y,-z
6 1/2-x,1/2-y,-z
7 -x,y,1/2-z
8 1/2-x,1/2+y,1/2-z
_cell_length_a                   28.006(8)
_cell_length_b                   10.1441(18)
_cell_length_c                   19.041(3)
_cell_angle_alpha                90
_cell_angle_beta                 129.622(9)
_cell_angle_gamma                90
_cell_volume                     4166.74
loop_
_atom_site_label
_atom_site_type_symbol
_atom_site_fract_x
_atom_site_fract_y
_atom_site_fract_z
Gd1 Gd 0.0000 0.93239(3) 0.2500
Cr1 Cr 0.2500 0.7500 0.5000
Cu1 Cu 0.11478(4) 0.77518(7) 0.60913(4)
N1 N 0.0822(2) 0.9384(5) 0.5397(3)
C1 C 0.1348(4) 0.4878(7) 0.6373(5)
H1 H 0.1020 0.4627 0.6387
H2 H 0.1682 0.4249 0.6751
C2 C 0.2194(2) 0.5564(5) 0.4799(3)
C3 C 0.1602(2) 0.8171(5) 0.4022(3)
N2 N 0.0672(2) 0.6915(5) 0.4891(3)
O1 O 0.02675(18) 1.0060(4) 0.3902(2)
C4 C 0.0502(2) 0.9199(5) 0.4532(3)
N3 N 0.1102(2) 0.8553(5) 0.3497(3)
N4 N 0.2050(3) 0.4500(5) 0.4694(4)
C5 C 0.2593(2) 0.7217(5) 0.4015(3)
O2 O 0.00597(16) 0.7544(4) 0.3372(2)
N5 N 0.1608(3) 0.8609(6) 0.7304(3)
H3 H 0.1301 0.8599 0.7344
C6 C 0.0397(2) 0.7768(5) 0.4233(3)
N6 N 0.2655(3) 0.7029(6) 0.3486(4)
C7 C 0.1873(4) 0.6328(7) 0.7736(4)
H4 H 0.2254 0.5821 0.8100
H5 H 0.1610 0.5996 0.7863
C8 C 0.1724(4) 0.9955(7) 0.7409(4)
H6 H 0.2108 1.0088 0.7514
H7 H 0.1801 1.0214 0.7964
N7 N 0.1572(3) 0.6118(6) 0.6806(4)
H8 H 0.1911 0.6167 0.6839
C9 C 0.0637(3) 0.5512(6) 0.4685(4)
H9 H 0.0667 0.5415 0.4208
H10 H 0.0234 0.5183 0.4449
C10 C 0.2018(3) 0.7691(7) 0.8016(4)
H11 H 0.2007 0.7830 0.8510
H12 H 0.2437 0.7867 0.8251
C11 C 0.1116(5) 0.4697(8) 0.5464(5)
H13 H 0.0966 0.3797 0.5302
H14 H 0.1473 0.4737 0.5490
O3 O 0.06624(18) 1.1223(4) 0.2934(3)
C12 C 0.0982(4) 1.0756(6) 0.5747(5)
H15 H 0.1256 1.1121 0.5651
H16 H 0.0606 1.1280 0.5397
C13 C 0.1279(5) 1.0870(7) 0.6711(5)
H17 H 0.1480 1.1725 0.6904
H18 H 0.0946 1.0917 0.6739
N1F N -0.0822(2) 0.9384(5) -0.0397(3)
C1F C -0.1348(4) 0.4878(7) -0.1373(5)
H1F H -0.1020 0.4627 -0.1387
H2F H -0.1682 0.4249 -0.1751
N2F N -0.0672(2) 0.6915(5) 0.0109(3)
O1F O -0.02675(18) 1.0060(4) 0.1098(2)
C4F C -0.0502(2) 0.9199(5) 0.0468(3)
O2F O -0.00597(16) 0.7544(4) 0.1628(2)
N5F N -0.1608(3) 0.8609(6) -0.2304(3)
H3F H -0.1301 0.8599 -0.2344
C6F C -0.0397(2) 0.7768(5) 0.0767(3)
C7F C -0.1873(4) 0.6328(7) -0.2736(4)
H4F H -0.2254 0.5821 -0.3100
H5F H -0.1610 0.5996 -0.2863
C8F C -0.1724(4) 0.9955(7) -0.2409(4)
H6F H -0.2108 1.0088 -0.2514
H7F H -0.1801 1.0214 -0.2964
N7F N -0.1572(3) 0.6118(6) -0.1806(4)
H8F H -0.1911 0.6167 -0.1839
C9F C -0.0637(3) 0.5512(6) 0.0315(4)
H9F H -0.0667 0.5415 0.0792
H10F H -0.0234 0.5183 0.0551
C10F C -0.2018(3) 0.7691(7) -0.3016(4)
H11F H -0.2007 0.7830 -0.3510
H12F H -0.2437 0.7867 -0.3251
C11F C -0.1116(5) 0.4697(8) -0.0464(5)
H13F H -0.0966 0.3797 -0.0302
H14F H -0.1473 0.4737 -0.0490
C12F C -0.0982(4) 1.0756(6) -0.0747(5)
H15F H -0.1256 1.1121 -0.0651
H16F H -0.0606 1.1280 -0.0397
C13F C -0.1279(5) 1.0870(7) -0.1711(5)
H17F H -0.1480 1.1725 -0.1904
H18F H -0.0946 1.0917 -0.1739
C3F C -0.1602(2) 0.8171(5) 0.0978(3)
N3F N -0.1102(2) 0.8553(5) 0.1503(3)
O3F O -0.06624(18) 1.1223(4) 0.2066(3)
Cu1F Cu -0.11478(4) 0.77518(7) -0.10913(4)
C2E C 0.2806(2) 0.9436(5) 0.5201(3)
N4E N 0.2950(3) 1.0500(5) 0.5306(4)
C5E C 0.2407(2) 0.7783(5) 0.5985(3)
N6E N 0.2345(3) 0.7971(6) 0.6514(4)
C3E C 0.3398(2) 0.6829(5) 0.5978(3)
Cr1C Cr -0.2500 0.7500 0.0000
O4 O 0.1681(2) 0.1815(5) 0.4651(3)
O5 O 0.0239(3) 0.7427(6) 0.6246(5)
O6 O -0.0761(4) 0.5468(8) 0.2413(5)
O7 O 0.0000 1.3737(11) 0.2500
loop_
_geom_bond_atom_site_label_1
_geom_bond_atom_site_label_2
_geom_bond_site_symmetry_1
_geom_bond_site_symmetry_2
Gd1 O1 1_555 1_555
Cr1 C2 1_555 1_555
Cu1 N1 1_555 1_555
N1 C4 1_555 1_555
C1 H1 1_555 1_555
H2 C1 1_555 1_555
C2 N4 1_555 1_555
C3 Cr1 1_555 1_555
N2 Cu1 1_555 1_555
O1 C4 1_555 1_555
C4 C6 1_555 1_555
N3 Gd1 1_555 1_555
C5 Cr1 1_555 1_555
O2 Gd1 1_555 1_555
N5 Cu1 1_555 1_555
H3 N5 1_555 1_555
C6 N2 1_555 1_555
N6 C5 1_555 1_555
C7 H4 1_555 1_555
H5 C7 1_555 1_555
C8 N5 1_555 1_555
H6 C8 1_555 1_555
H7 C8 1_555 1_555
N7 Cu1 1_555 1_555
H8 N7 1_555 1_555
C9 N2 1_555 1_555
H9 C9 1_555 1_555
H10 C9 1_555 1_555
C10 N5 1_555 1_555
H11 C10 1_555 1_555
H12 C10 1_555 1_555
C11 C1 1_555 1_555
H13 C11 1_555 1_555
H14 C11 1_555 1_555
O3 Gd1 1_555 1_555
C12 N1 1_555 1_555
H15 C12 1_555 1_555
H16 C12 1_555 1_555
C13 C8 1_555 1_555
H17 C13 1_555 1_555
H18 C13 1_555 1_555
N1F C4F 1_555 1_555
C1F H1F 1_555 1_555
H2F C1F 1_555 1_555
N2F C6F 1_555 1_555
O1F Gd1 1_555 1_555
C4F O1F 1_555 1_555
O2F Gd1 1_555 1_555
N5F H3F 1_555 1_555
C6F C4F 1_555 1_555
C7F H4F 1_555 1_555
H5F C7F 1_555 1_555
C8F N5F 1_555 1_555
H6F C8F 1_555 1_555
H7F C8F 1_555 1_555
N7F C1F 1_555 1_555
H8F N7F 1_555 1_555
C9F N2F 1_555 1_555
H9F C9F 1_555 1_555
H10F C9F 1_555 1_555
C10F N5F 1_555 1_555
H11F C10F 1_555 1_555
H12F C10F 1_555 1_555
C11F C1F 1_555 1_555
H13F C11F 1_555 1_555
H14F C11F 1_555 1_555
C12F N1F 1_555 1_555
H15F C12F 1_555 1_555
H16F C12F 1_555 1_555
C13F C8F 1_555 1_555
H17F C13F 1_555 1_555
H18F C13F 1_555 1_555
C3F N3F 1_555 1_555
N3F Gd1 1_555 1_555
O3F Gd1 1_555 1_555
Cu1F N1F 1_555 1_555
C2E Cr1 1_555 1_555
N4E C2E 1_555 1_555
C5E Cr1 1_555 1_555
N6E C5E 1_555 1_555
C3E Cr1 1_555 1_555
Cr1C C3F 1_555 1_555
C1 N7 1_555 1_555
C3 N3 1_555 1_555
O2 C6 1_555 1_555
C7 N7 1_555 1_555
C7 C10 1_555 1_555
C9 C11 1_555 1_555
C12 C13 1_555 1_555
N2F Cu1F 1_555 1_555
O2F C6F 1_555 1_555
N5F Cu1F 1_555 1_555
C7F N7F 1_555 1_555
C7F C10F 1_555 1_555
N7F Cu1F 1_555 1_555
C9F C11F 1_555 1_555
C12F C13F 1_555 1_555

#END
