
#######################################################################
#
#                 Cambridge Crystallographic Data Centre
#                                CCDC 
#
#######################################################################
#
# If this CIF has been generated from an entry in the Cambridge 
# Structural Database, then it will include bibliographic, chemical, 
# crystal, experimental, refinement or atomic coordinate data resulting 
# from the CCDC's data processing and validation procedures.
#
#######################################################################

data_BEGKII
_symmetry_cell_setting           monoclinic
_symmetry_space_group_name_H-M   'C 2/c'
_symmetry_Int_Tables_number      15
_space_group_name_Hall           '-C 2yn'
loop_
_symmetry_equiv_pos_site_id
_symmetry_equiv_pos_as_xyz
1 x,y,z
2 1/2+x,1/2+y,z
3 x,-y,1/2+z
4 1/2+x,1/2-y,1/2+z
5 -x,-y,-z
6 1/2-x,1/2-y,-z
7 -x,y,1/2-z
8 1/2-x,1/2+y,1/2-z
_cell_length_a                   27.510(9)
_cell_length_b                   10.130(3)
_cell_length_c                   19.055(6)
_cell_angle_alpha                90
_cell_angle_beta                 129.767(4)
_cell_angle_gamma                90
_cell_volume                     4081.68
loop_
_atom_site_label
_atom_site_type_symbol
_atom_site_fract_x
_atom_site_fract_y
_atom_site_fract_z
Gd1 Gd 0.0000 0.92755(3) 0.2500
Fe1 Fe 0.2500 0.7500 0.5000
Cu1 Cu 0.11572(4) 0.77423(7) 0.60967(4)
N1 N 0.0825(2) 0.9378(5) 0.5394(3)
C1 C 0.1362(4) 0.4861(7) 0.6388(5)
H1 H 0.1021 0.4616 0.6387
H2 H 0.1700 0.4229 0.6773
C2 C 0.2223(2) 0.5672(5) 0.4816(3)
C3 C 0.1639(2) 0.8122(5) 0.4066(3)
N2 N 0.0670(2) 0.6894(4) 0.4897(3)
O1 O 0.02692(18) 1.0040(4) 0.3897(2)
C4 C 0.0500(2) 0.9181(5) 0.4527(3)
N3 N 0.1132(2) 0.8492(5) 0.3524(3)
N4 N 0.2075(3) 0.4595(5) 0.4710(4)
C5 C 0.2604(2) 0.7243(5) 0.4087(3)
O2 O 0.00501(17) 0.7514(4) 0.3373(2)
N5 N 0.1617(3) 0.8604(5) 0.7308(3)
H3 H 0.1305 0.8598 0.7347
C6 C 0.0396(2) 0.7736(5) 0.4240(3)
N6 N 0.2666(3) 0.7078(5) 0.3555(4)
C7 C 0.1886(4) 0.6320(7) 0.7749(4)
H4 H 0.2270 0.5798 0.8123
H5 H 0.1608 0.6011 0.7863
C8 C 0.1743(4) 0.9960(7) 0.7408(4)
H6 H 0.2127 1.0083 0.7492
H7 H 0.1836 1.0232 0.7971
N7 N 0.1589(3) 0.6104(5) 0.6820(3)
H8 H 0.1937 0.6151 0.6863
C9 C 0.0632(3) 0.5479(6) 0.4692(4)
H9 H 0.0650 0.5374 0.4204
H10 H 0.0226 0.5144 0.4475
C10 C 0.2044(3) 0.7695(7) 0.8025(4)
H11 H 0.2045 0.7848 0.8528
H12 H 0.2468 0.7864 0.8243
C11 C 0.1136(5) 0.4685(7) 0.5478(5)
H13 H 0.1001 0.3772 0.5319
H14 H 0.1501 0.4773 0.5512
O3 O 0.06752(18) 1.1176(4) 0.2926(3)
C12 C 0.0987(4) 1.0750(6) 0.5746(4)
H15 H 0.1275 1.1110 0.5666
H16 H 0.0605 1.1279 0.5383
C13 C 0.1275(5) 1.0870(7) 0.6702(5)
H17 H 0.0930 1.0879 0.6719
H18 H 0.1467 1.1739 0.6896
H22 H 0.0997 1.1368 0.3496
H23 H 0.0488 1.1880 0.2667
N1F N -0.0825(2) 0.9378(5) -0.0394(3)
C1F C -0.1362(4) 0.4861(7) -0.1388(5)
H1F H -0.1021 0.4616 -0.1387
H2F H -0.1700 0.4229 -0.1773
N2F N -0.0670(2) 0.6894(4) 0.0103(3)
O1F O -0.02692(18) 1.0040(4) 0.1103(2)
C4F C -0.0500(2) 0.9181(5) 0.0473(3)
O2F O -0.00501(17) 0.7514(4) 0.1627(2)
N5F N -0.1617(3) 0.8604(5) -0.2308(3)
H3F H -0.1305 0.8598 -0.2347
C6F C -0.0396(2) 0.7736(5) 0.0760(3)
C7F C -0.1886(4) 0.6320(7) -0.2749(4)
H4F H -0.2270 0.5798 -0.3123
H5F H -0.1608 0.6011 -0.2863
C8F C -0.1743(4) 0.9960(7) -0.2408(4)
H6F H -0.2127 1.0083 -0.2492
H7F H -0.1836 1.0232 -0.2971
N7F N -0.1589(3) 0.6104(5) -0.1820(3)
H8F H -0.1937 0.6151 -0.1863
C9F C -0.0632(3) 0.5479(6) 0.0308(4)
H9F H -0.0650 0.5374 0.0796
H10F H -0.0226 0.5144 0.0525
C10F C -0.2044(3) 0.7695(7) -0.3025(4)
H11F H -0.2045 0.7848 -0.3528
H12F H -0.2468 0.7864 -0.3243
C11F C -0.1136(5) 0.4685(7) -0.0478(5)
H13F H -0.1001 0.3772 -0.0319
H14F H -0.1501 0.4773 -0.0512
C12F C -0.0987(4) 1.0750(6) -0.0746(4)
H15F H -0.1275 1.1110 -0.0666
H16F H -0.0605 1.1279 -0.0383
C13F C -0.1275(5) 1.0870(7) -0.1702(5)
H17F H -0.0930 1.0879 -0.1719
H18F H -0.1467 1.1739 -0.1896
C3F C -0.1639(2) 0.8122(5) 0.0934(3)
N3F N -0.1132(2) 0.8492(5) 0.1476(3)
O3F O -0.06752(18) 1.1176(4) 0.2074(3)
H22F H -0.0997 1.1368 0.1504
H23F H -0.0488 1.1880 0.2333
Cu1F Cu -0.11572(4) 0.77423(7) -0.10967(4)
C2E C 0.2777(2) 0.9328(5) 0.5184(3)
N4E N 0.2925(3) 1.0405(5) 0.5290(4)
C5E C 0.2396(2) 0.7757(5) 0.5913(3)
N6E N 0.2334(3) 0.7922(5) 0.6445(4)
C3E C 0.3361(2) 0.6878(5) 0.5934(3)
Fe1C Fe -0.2500 0.7500 0.0000
O4 O 0.1684(2) 0.1872(5) 0.4641(3)
H19 H 0.1791 0.2692 0.4701
H20 H 0.2036 0.1473 0.4884
O5 O 0.0236(3) 0.7423(6) 0.6249(5)
H26 H 0.0084 0.6798 0.6381
H27 H 0.0081 0.8071 0.6358
O6 O -0.0778(3) 0.5415(7) 0.2390(4)
H24 H -0.0529 0.6087 0.2679
H25 H -0.1031 0.5635 0.1817
O7 O 0.0000 1.3709(10) 0.2500
H21 H 0.0308 1.4197 0.2646
H21F H -0.0308 1.4197 0.2354
loop_
_geom_bond_atom_site_label_1
_geom_bond_atom_site_label_2
_geom_bond_site_symmetry_1
_geom_bond_site_symmetry_2
Gd1 O1 1_555 1_555
Fe1 C2 1_555 1_555
Cu1 N1 1_555 1_555
N1 C4 1_555 1_555
C1 H1 1_555 1_555
H2 C1 1_555 1_555
C2 N4 1_555 1_555
C3 Fe1 1_555 1_555
N2 Cu1 1_555 1_555
O1 C4 1_555 1_555
C4 C6 1_555 1_555
N3 Gd1 1_555 1_555
C5 Fe1 1_555 1_555
O2 Gd1 1_555 1_555
N5 Cu1 1_555 1_555
H3 N5 1_555 1_555
C6 N2 1_555 1_555
N6 C5 1_555 1_555
C7 H4 1_555 1_555
H5 C7 1_555 1_555
C8 N5 1_555 1_555
H6 C8 1_555 1_555
H7 C8 1_555 1_555
N7 Cu1 1_555 1_555
H8 N7 1_555 1_555
C9 N2 1_555 1_555
H9 C9 1_555 1_555
H10 C9 1_555 1_555
C10 N5 1_555 1_555
H11 C10 1_555 1_555
H12 C10 1_555 1_555
C11 C1 1_555 1_555
H13 C11 1_555 1_555
H14 C11 1_555 1_555
O3 Gd1 1_555 1_555
O4 H19 1_555 1_555
C12 N1 1_555 1_555
H15 C12 1_555 1_555
H16 C12 1_555 1_555
O5 H26 1_555 1_555
O6 H24 1_555 1_555
C13 C8 1_555 1_555
H17 C13 1_555 1_555
H18 C13 1_555 1_555
O7 H21 1_555 1_555
H20 O4 1_555 1_555
H22 O3 1_555 1_555
H23 O3 1_555 1_555
H25 O6 1_555 1_555
H27 O5 1_555 1_555
H21F O7 1_555 1_555
N1F C4F 1_555 1_555
C1F H1F 1_555 1_555
H2F C1F 1_555 1_555
N2F C6F 1_555 1_555
O1F Gd1 1_555 1_555
C4F O1F 1_555 1_555
O2F Gd1 1_555 1_555
N5F H3F 1_555 1_555
C6F C4F 1_555 1_555
C7F H4F 1_555 1_555
H5F C7F 1_555 1_555
C8F N5F 1_555 1_555
H6F C8F 1_555 1_555
H7F C8F 1_555 1_555
N7F C1F 1_555 1_555
H8F N7F 1_555 1_555
C9F N2F 1_555 1_555
H9F C9F 1_555 1_555
H10F C9F 1_555 1_555
C10F N5F 1_555 1_555
H11F C10F 1_555 1_555
H12F C10F 1_555 1_555
C11F C1F 1_555 1_555
H13F C11F 1_555 1_555
H14F C11F 1_555 1_555
C12F N1F 1_555 1_555
H15F C12F 1_555 1_555
H16F C12F 1_555 1_555
C13F C8F 1_555 1_555
H17F C13F 1_555 1_555
H18F C13F 1_555 1_555
C3F N3F 1_555 1_555
N3F Gd1 1_555 1_555
O3F Gd1 1_555 1_555
H22F O3F 1_555 1_555
H23F O3F 1_555 1_555
Cu1F N1F 1_555 1_555
C2E Fe1 1_555 1_555
N4E C2E 1_555 1_555
C5E Fe1 1_555 1_555
N6E C5E 1_555 1_555
C3E Fe1 1_555 1_555
Fe1C C3F 1_555 1_555
C1 N7 1_555 1_555
C3 N3 1_555 1_555
O2 C6 1_555 1_555
C7 N7 1_555 1_555
C7 C10 1_555 1_555
C9 C11 1_555 1_555
C12 C13 1_555 1_555
N2F Cu1F 1_555 1_555
O2F C6F 1_555 1_555
N5F Cu1F 1_555 1_555
C7F N7F 1_555 1_555
C7F C10F 1_555 1_555
N7F Cu1F 1_555 1_555
C9F C11F 1_555 1_555
C12F C13F 1_555 1_555

#END
