
#######################################################################
#
#                 Cambridge Crystallographic Data Centre
#                                CCDC 
#
#######################################################################
#
# If this CIF has been generated from an entry in the Cambridge 
# Structural Database, then it will include bibliographic, chemical, 
# crystal, experimental, refinement or atomic coordinate data resulting 
# from the CCDC's data processing and validation procedures.
#
#######################################################################

data_BEGWIU
_symmetry_cell_setting           monoclinic
_symmetry_space_group_name_H-M   'P 21/n'
_symmetry_Int_Tables_number      14
_space_group_name_Hall           '-P 2yn'
loop_
_symmetry_equiv_pos_site_id
_symmetry_equiv_pos_as_xyz
1 x,y,z
2 1/2+x,1/2-y,1/2+z
3 -x,-y,-z
4 1/2-x,1/2+y,1/2-z
_cell_length_a                   10.481(3)
_cell_length_b                   12.864(3)
_cell_length_c                   17.003(4)
_cell_angle_alpha                90
_cell_angle_beta                 93.626(4)
_cell_angle_gamma                90
_cell_volume                     2287.88
loop_
_atom_site_label
_atom_site_type_symbol
_atom_site_fract_x
_atom_site_fract_y
_atom_site_fract_z
Pd1 Pd 1.0000 0.0000 0.5000
S1 S 1.0189(2) 0.12799(15) 0.40407(12)
S2 S 1.1571(3) -0.09739(17) 0.44384(14)
Na1 Na 0.6537(3) 0.3740(3) 0.4645(2)
N1 N 0.8426(7) 0.2855(6) 0.4289(4)
N2 N 1.2514(8) 0.0060(6) 0.3151(5)
O1 O 0.6390(6) 0.2858(5) 0.6089(3)
O2 O 0.5170(5) 0.2053(4) 0.4906(3)
O3 O 0.5216(5) 0.2913(5) 0.3469(3)
O4 O 0.6585(7) 0.4760(5) 0.3263(4)
O5 O 0.7530(12) 0.5806(8) 0.4542(7)
O6 O 0.7672(8) 0.4674(7) 0.5932(5)
O7 O 0.5000 0.5000 0.5000
C1 C 0.5436(9) 0.2188(7) 0.6274(6)
C2 C 0.5131(11) 0.1982(9) 0.7043(5)
C3 C 0.4109(14) 0.1289(11) 0.7143(8)
C4 C 0.3426(13) 0.0845(8) 0.6518(10)
C5 C 0.3735(10) 0.1065(7) 0.5725(7)
C6 C 0.4771(9) 0.1753(7) 0.5636(6)
C7 C 0.4563(9) 0.1516(7) 0.4236(5)
C8 C 0.5309(10) 0.1812(7) 0.3547(5)
C9 C 0.5624(11) 0.3246(9) 0.2717(5)
C10 C 0.5547(10) 0.4405(11) 0.2726(6)
C11 C 0.6749(17) 0.5796(10) 0.3246(8)
C12 C 0.7719(15) 0.6148(9) 0.3811(11)
C13 C 0.7964(17) 0.6228(10) 0.5206(13)
C14 C 0.8358(18) 0.5573(14) 0.5842(10)
C15 C 0.8210(10) 0.3843(9) 0.6411(6)
C16 C 0.7205(10) 0.3243(8) 0.6751(6)
C17 C 0.9136(8) 0.2208(6) 0.4199(4)
C18 C 1.2116(8) -0.0328(6) 0.3682(5)
S1B S 0.9811(2) -0.12799(15) 0.59593(12)
N1B N 1.1574(7) -0.2855(6) 0.5711(4)
C17B C 1.0864(8) -0.2208(6) 0.5801(4)
S2B S 0.8429(3) 0.09739(17) 0.55616(14)
N2B N 0.7486(8) -0.0060(6) 0.6849(5)
C18B C 0.7884(8) 0.0328(6) 0.6318(5)
Na1B Na 1.3463(3) -0.3740(3) 0.5355(2)
O1B O 1.3610(6) -0.2858(5) 0.3911(3)
O2B O 1.4830(5) -0.2053(4) 0.5094(3)
O3B O 1.4784(5) -0.2913(5) 0.6531(3)
O4B O 1.3415(7) -0.4760(5) 0.6737(4)
O5B O 1.2470(12) -0.5806(8) 0.5458(7)
O6B O 1.2328(8) -0.4674(7) 0.4068(5)
C1B C 1.4564(9) -0.2188(7) 0.3726(6)
C2B C 1.4869(11) -0.1982(9) 0.2957(5)
C3B C 1.5891(14) -0.1289(11) 0.2857(8)
C4B C 1.6574(13) -0.0845(8) 0.3482(10)
C5B C 1.6265(10) -0.1065(7) 0.4275(7)
C6B C 1.5229(9) -0.1753(7) 0.4364(6)
C7B C 1.5437(9) -0.1516(7) 0.5764(5)
C8B C 1.4691(10) -0.1812(7) 0.6453(5)
C9B C 1.4376(11) -0.3246(9) 0.7283(5)
C10B C 1.4453(10) -0.4405(11) 0.7274(6)
C11B C 1.3251(17) -0.5796(10) 0.6754(8)
C12B C 1.2281(15) -0.6148(9) 0.6189(11)
C13B C 1.2036(17) -0.6228(10) 0.4794(13)
C14B C 1.1642(18) -0.5573(14) 0.4158(10)
C15B C 1.1790(10) -0.3843(9) 0.3589(6)
C16B C 1.2795(10) -0.3243(8) 0.3249(6)
Na1B_2 Na 0.3463(3) 0.6260(3) 0.5355(2)
O7_2 O 1.5000 -0.5000 0.5000
loop_
_geom_bond_atom_site_label_1
_geom_bond_atom_site_label_2
_geom_bond_site_symmetry_1
_geom_bond_site_symmetry_2
Pd1 S1 1_555 1_555
S1 C17 1_555 1_555
S2 Pd1 1_555 1_555
Na1 N1 1_555 1_555
N1 C17 1_555 1_555
N2 C18 1_555 1_555
O1 Na1 1_555 1_555
O2 Na1 1_555 1_555
O3 Na1 1_555 1_555
O4 Na1 1_555 1_555
O5 Na1 1_555 1_555
O6 Na1 1_555 1_555
O7 Na1 1_555 1_555
C1 O1 1_555 1_555
C2 C1 1_555 1_555
C3 C2 1_555 1_555
C4 C3 1_555 1_555
C5 C4 1_555 1_555
C6 O2 1_555 1_555
C7 O2 1_555 1_555
C8 O3 1_555 1_555
C9 O3 1_555 1_555
C10 O4 1_555 1_555
C11 O4 1_555 1_555
C12 O5 1_555 1_555
C13 O5 1_555 1_555
C14 O6 1_555 1_555
C15 O6 1_555 1_555
C16 O1 1_555 1_555
C18 S2 1_555 1_555
S1B Pd1 1_555 1_555
N1B C17B 1_555 1_555
C17B S1B 1_555 1_555
S2B Pd1 1_555 1_555
N2B C18B 1_555 1_555
C18B S2B 1_555 1_555
Na1B N1B 1_555 1_555
O1B Na1B 1_555 1_555
O2B Na1B 1_555 1_555
O3B Na1B 1_555 1_555
O4B Na1B 1_555 1_555
O5B Na1B 1_555 1_555
O6B Na1B 1_555 1_555
C1B O1B 1_555 1_555
C2B C1B 1_555 1_555
C3B C2B 1_555 1_555
C4B C3B 1_555 1_555
C5B C4B 1_555 1_555
C6B O2B 1_555 1_555
C7B O2B 1_555 1_555
C8B O3B 1_555 1_555
C9B O3B 1_555 1_555
C10B O4B 1_555 1_555
C11B O4B 1_555 1_555
C12B O5B 1_555 1_555
C13B O5B 1_555 1_555
C14B O6B 1_555 1_555
C15B O6B 1_555 1_555
C16B O1B 1_555 1_555
Na1B_2 O7 1_555 1_555
O7_2 Na1B 1_555 1_555
C1 C6 1_555 1_555
C5 C6 1_555 1_555
C7 C8 1_555 1_555
C9 C10 1_555 1_555
C11 C12 1_555 1_555
C13 C14 1_555 1_555
C15 C16 1_555 1_555
C1B C6B 1_555 1_555
C5B C6B 1_555 1_555
C7B C8B 1_555 1_555
C9B C10B 1_555 1_555
C11B C12B 1_555 1_555
C13B C14B 1_555 1_555
C15B C16B 1_555 1_555

#END
