
#######################################################################
#
#                 Cambridge Crystallographic Data Centre
#                                CCDC 
#
#######################################################################
#
# If this CIF has been generated from an entry in the Cambridge 
# Structural Database, then it will include bibliographic, chemical, 
# crystal, experimental, refinement or atomic coordinate data resulting 
# from the CCDC's data processing and validation procedures.
#
#######################################################################

data_BEGWOA
_symmetry_cell_setting           triclinic
_symmetry_space_group_name_H-M   'P -1'
_symmetry_Int_Tables_number      2
_space_group_name_Hall           '-P 1'
loop_
_symmetry_equiv_pos_site_id
_symmetry_equiv_pos_as_xyz
1 x,y,z
2 -x,-y,-z
_cell_length_a                   9.581(3)
_cell_length_b                   12.173(3)
_cell_length_c                   21.198(6)
_cell_angle_alpha                79.522(4)
_cell_angle_beta                 77.911(4)
_cell_angle_gamma                78.617(4)
_cell_volume                     2344.33
loop_
_atom_site_label
_atom_site_type_symbol
_atom_site_fract_x
_atom_site_fract_y
_atom_site_fract_z
Pt1 Pt 0.52007(3) 0.59817(3) 0.749459(16)
Na1 Na 0.9575(3) 0.9373(2) 0.60128(13)
Na2 Na 0.0516(3) 0.8443(2) 0.96439(13)
S1 S 0.5509(2) 0.76852(18) 0.77334(10)
S2 S 0.4220(2) 0.55645(17) 0.85923(9)
S3 S 0.4750(3) 0.4326(2) 0.72401(11)
S4 S 0.6041(3) 0.6491(2) 0.63889(11)
N1 N 0.7707(8) 0.8611(6) 0.6816(3)
N2 N 0.1921(7) 0.7365(6) 0.8806(3)
N3 N 0.4833(9) 0.2589(8) 0.8317(4)
N4 N 0.8220(10) 0.4724(8) 0.6000(4)
O1 O 0.9168(6) 1.1060(4) 0.6709(2)
O2 O 1.1147(5) 0.9364(5) 0.6873(2)
O3 O 1.1307(5) 0.7489(4) 0.6340(2)
O4 O 0.9532(5) 0.7707(5) 0.5449(2)
O5 O 0.8249(5) 0.9820(5) 0.4809(2)
O6 O 0.7427(5) 1.1139(4) 0.5826(3)
O7 O -0.0329(4) 0.6586(4) 1.0249(2)
O8 O 0.2180(5) 0.6827(4) 1.0363(2)
O9 O 0.3107(5) 0.8815(5) 0.9802(3)
O10 O 0.1141(6) 1.0725(4) 0.9382(2)
O11 O -0.0585(6) 0.9756(5) 0.8755(2)
O12 O -0.1762(5) 0.7865(4) 0.9298(2)
C1 C 1.0342(9) 1.1317(7) 0.6854(3)
C2 C 1.0587(9) 1.2380(7) 0.6904(4)
C3 C 1.1864(13) 1.2482(9) 0.7063(4)
C4 C 1.2995(10) 1.1571(10) 0.7167(4)
C5 C 1.2795(8) 1.0511(8) 0.7091(4)
C6 C 1.1423(9) 1.0401(8) 0.6945(3)
C7 C 1.2168(8) 0.8390(7) 0.7037(4)
C8 C 1.1479(8) 0.7403(7) 0.6996(4)
C9 C 1.0776(9) 0.6520(7) 0.6230(4)
C10 C 1.0604(10) 0.6728(8) 0.5520(4)
C11 C 0.9084(9) 0.7843(8) 0.4835(4)
C12 C 0.7820(8) 0.8742(8) 0.4823(4)
C13 C 0.7053(9) 1.0754(8) 0.4850(4)
C14 C 0.6359(7) 1.0832(8) 0.5560(4)
C15 C 0.6821(8) 1.1515(8) 0.6474(4)
C16 C 0.7959(8) 1.1975(7) 0.6670(4)
C17 C 0.0043(9) 0.6160(6) 1.0864(4)
C18 C -0.0833(9) 0.5644(6) 1.1389(4)
C19 C -0.0286(11) 0.5241(7) 1.1972(4)
C20 C 0.1079(12) 0.5359(8) 1.2020(5)
C21 C 0.2000(9) 0.5861(7) 1.1488(4)
C22 C 0.1450(8) 0.6265(6) 1.0901(4)
C23 C 0.3606(7) 0.7011(7) 1.0413(4)
C24 C 0.4119(8) 0.7794(8) 0.9822(4)
C25 C 0.3595(9) 0.9690(8) 0.9304(4)
C26 C 0.2612(10) 1.0754(7) 0.9444(5)
C27 C 0.0962(11) 1.1083(6) 0.8727(4)
C28 C -0.0585(12) 1.0920(8) 0.8672(4)
C29 C -0.1812(9) 0.9543(9) 0.8524(4)
C30 C -0.1714(9) 0.8255(9) 0.8630(4)
C31 C -0.1648(8) 0.6629(7) 0.9444(4)
C32 C -0.1640(7) 0.6287(6) 1.0129(4)
C33 C 0.6804(8) 0.8178(6) 0.7164(4)
C34 C 0.2869(8) 0.6614(7) 0.8695(3)
C35 C 0.4805(9) 0.3376(8) 0.7910(5)
C36 C 0.7304(10) 0.5444(8) 0.6199(5)
O1A O 1.0832(6) 0.8940(4) 0.3291(2)
O2A O 0.8853(5) 1.0636(5) 0.3127(2)
O3A O 0.8693(5) 1.2511(4) 0.3660(2)
O4A O 1.0468(5) 1.2293(5) 0.4551(2)
O5A O 1.1751(5) 1.0180(5) 0.5191(2)
O6A O 1.2573(5) 0.8861(4) 0.4174(3)
C1A C 0.9658(9) 0.8683(7) 0.3146(3)
C2A C 0.9413(9) 0.7620(7) 0.3096(4)
C3A C 0.8136(13) 0.7518(9) 0.2937(4)
C4A C 0.7005(10) 0.8429(10) 0.2833(4)
C5A C 0.7205(8) 0.9489(8) 0.2909(4)
C6A C 0.8577(9) 0.9599(8) 0.3055(3)
C7A C 0.7832(8) 1.1610(7) 0.2963(4)
C8A C 0.8521(8) 1.2597(7) 0.3004(4)
C9A C 0.9224(9) 1.3480(7) 0.3770(4)
C10A C 0.9396(10) 1.3272(8) 0.4480(4)
C11A C 1.0916(9) 1.2157(8) 0.5165(4)
C12A C 1.2180(8) 1.1258(8) 0.5177(4)
C13A C 1.2947(9) 0.9246(8) 0.5150(4)
C14A C 1.3641(7) 0.9168(8) 0.4440(4)
C15A C 1.3179(8) 0.8485(8) 0.3526(4)
C16A C 1.2041(8) 0.8025(7) 0.3330(4)
O7A O 0.0329(4) 1.3414(4) 0.9751(2)
O8A O -0.2180(5) 1.3173(4) 0.9637(2)
O9A O -0.3107(5) 1.1185(5) 1.0198(3)
O10A O -0.1141(6) 0.9275(4) 1.0618(2)
O11A O 0.0585(6) 1.0244(5) 1.1245(2)
O12A O 0.1762(5) 1.2135(4) 1.0702(2)
C17A C -0.0043(9) 1.3840(6) 0.9136(4)
C18A C 0.0833(9) 1.4356(6) 0.8611(4)
C19A C 0.0286(11) 1.4759(7) 0.8028(4)
C20A C -0.1079(12) 1.4641(8) 0.7980(5)
C21A C -0.2000(9) 1.4139(7) 0.8512(4)
C22A C -0.1450(8) 1.3735(6) 0.9099(4)
C23A C -0.3606(7) 1.2989(7) 0.9587(4)
C24A C -0.4119(8) 1.2206(8) 1.0178(4)
C25A C -0.3595(9) 1.0310(8) 1.0696(4)
C26A C -0.2612(10) 0.9246(7) 1.0556(5)
C27A C -0.0962(11) 0.8917(6) 1.1273(4)
C28A C 0.0585(12) 0.9080(8) 1.1328(4)
C29A C 0.1812(9) 1.0457(9) 1.1476(4)
C30A C 0.1714(9) 1.1745(9) 1.1370(4)
C31A C 0.1648(8) 1.3371(7) 1.0556(4)
C32A C 0.1640(7) 1.3713(6) 0.9871(4)
Na1A Na 1.0425(3) 1.0627(2) 0.39872(13)
Na2A Na -0.0516(3) 1.1557(2) 1.03561(13)
S1A S 1.4491(2) 1.23148(18) 0.22666(10)
N1A N 1.2293(8) 1.1389(6) 0.3184(3)
C33A C 1.3196(8) 1.1822(6) 0.2836(4)
S2A S -0.4220(2) 1.44355(17) 1.14077(9)
N2A N -0.1921(7) 1.2635(6) 1.1194(3)
C34A C -0.2869(8) 1.3386(7) 1.1305(3)
Pt1A Pt 1.47993(3) 1.40183(3) 0.250541(16)
S3A S 1.5250(3) 1.5674(2) 0.27599(11)
N3A N 1.5167(9) 1.7411(8) 0.1683(4)
C35A C 1.5195(9) 1.6624(8) 0.2090(5)
S4A S 1.3959(3) 1.3509(2) 0.36111(11)
N4A N 1.1780(10) 1.5276(8) 0.4000(4)
C36A C 1.2696(10) 1.4556(8) 0.3801(5)
Pt1A_2 Pt -0.52007(3) 1.40183(3) 1.250541(16)
S2A_2 S 1.5780(2) 1.44355(17) 0.14077(9)
Cl1 Cl 0.6347(3) 0.6151(3) 0.44320(14)
C37 C 0.4649(12) 0.5523(8) 0.4967(6)
C37A C 0.5351(12) 0.4477(8) 0.5033(6)
Cl1A Cl 0.3653(3) 0.3849(3) 0.55680(14)
loop_
_geom_bond_atom_site_label_1
_geom_bond_atom_site_label_2
_geom_bond_site_symmetry_1
_geom_bond_site_symmetry_2
Pt1 S1 1_555 1_555
Na1 N1 1_555 1_555
Na2 N2 1_555 1_555
S1 C33 1_555 1_555
S2 Pt1 1_555 1_555
S3 Pt1 1_555 1_555
S4 Pt1 1_555 1_555
Cl1 C37 1_555 1_555
N1 C33 1_555 1_555
N2 C34 1_555 1_555
N3 C35 1_555 1_555
N4 C36 1_555 1_555
O1 Na1 1_555 1_555
O2 Na1 1_555 1_555
O3 Na1 1_555 1_555
O4 Na1 1_555 1_555
O5 Na1 1_555 1_555
O6 Na1 1_555 1_555
O7 Na2 1_555 1_555
O8 Na2 1_555 1_555
O9 Na2 1_555 1_555
O10 Na2 1_555 1_555
O11 Na2 1_555 1_555
O12 Na2 1_555 1_555
C1 O1 1_555 1_555
C2 C1 1_555 1_555
C3 C2 1_555 1_555
C4 C3 1_555 1_555
C5 C4 1_555 1_555
C6 O2 1_555 1_555
C7 O2 1_555 1_555
C8 O3 1_555 1_555
C9 O3 1_555 1_555
C10 O4 1_555 1_555
C11 O4 1_555 1_555
C12 O5 1_555 1_555
C13 O5 1_555 1_555
C14 O6 1_555 1_555
C15 O6 1_555 1_555
C16 O1 1_555 1_555
C17 O7 1_555 1_555
C18 C17 1_555 1_555
C19 C18 1_555 1_555
C20 C19 1_555 1_555
C21 C20 1_555 1_555
C22 O8 1_555 1_555
C23 O8 1_555 1_555
C24 O9 1_555 1_555
C25 O9 1_555 1_555
C26 O10 1_555 1_555
C27 O10 1_555 1_555
C28 O11 1_555 1_555
C29 O11 1_555 1_555
C30 O12 1_555 1_555
C31 O12 1_555 1_555
C32 O7 1_555 1_555
C34 S2 1_555 1_555
C35 S3 1_555 1_555
C36 S4 1_555 1_555
C37 C37A 1_555 1_555
C37A Cl1A 1_555 1_555
O1A C1A 1_555 1_555
O2A C6A 1_555 1_555
O3A C8A 1_555 1_555
O4A C10A 1_555 1_555
O5A Na1 1_555 1_555
O6A C14A 1_555 1_555
C1A C2A 1_555 1_555
C2A C3A 1_555 1_555
C3A C4A 1_555 1_555
C4A C5A 1_555 1_555
C5A C6A 1_555 1_555
C6A C1A 1_555 1_555
C7A O2A 1_555 1_555
C8A C7A 1_555 1_555
C9A O3A 1_555 1_555
C10A C9A 1_555 1_555
C11A O4A 1_555 1_555
C12A O5A 1_555 1_555
C13A O5A 1_555 1_555
C14A C13A 1_555 1_555
C15A O6A 1_555 1_555
C16A O1A 1_555 1_555
O7A C17A 1_555 1_555
O8A C22A 1_555 1_555
O9A C24A 1_555 1_555
O10A Na2 1_555 1_555
O11A C28A 1_555 1_555
O12A C30A 1_555 1_555
C17A C18A 1_555 1_555
C18A C19A 1_555 1_555
C19A C20A 1_555 1_555
C20A C21A 1_555 1_555
C21A C22A 1_555 1_555
C22A C17A 1_555 1_555
C23A O8A 1_555 1_555
C24A C23A 1_555 1_555
C25A O9A 1_555 1_555
C26A O10A 1_555 1_555
C27A O10A 1_555 1_555
C28A C27A 1_555 1_555
C29A O11A 1_555 1_555
C30A C29A 1_555 1_555
C31A O12A 1_555 1_555
C32A O7A 1_555 1_555
Na1A O5 1_555 1_555
Na2A O10 1_555 1_555
S1A C33A 1_555 1_555
N1A Na1A 1_555 1_555
C33A N1A 1_555 1_555
S2A C34A 1_555 1_555
N2A Na2A 1_555 1_555
C34A N2A 1_555 1_555
Pt1A S1A 1_555 1_555
S3A Pt1A 1_555 1_555
N3A C35A 1_555 1_555
C35A S3A 1_555 1_555
S4A Pt1A 1_555 1_555
N4A C36A 1_555 1_555
C36A S4A 1_555 1_555
Pt1A_2 S2A 1_555 1_555
S2A_2 Pt1A 1_555 1_555
C1 C6 1_555 1_555
C5 C6 1_555 1_555
C7 C8 1_555 1_555
C9 C10 1_555 1_555
C11 C12 1_555 1_555
C13 C14 1_555 1_555
C15 C16 1_555 1_555
C17 C22 1_555 1_555
C21 C22 1_555 1_555
C23 C24 1_555 1_555
C25 C26 1_555 1_555
C27 C28 1_555 1_555
C29 C30 1_555 1_555
C31 C32 1_555 1_555
O1A Na1A 1_555 1_555
O2A Na1A 1_555 1_555
O3A Na1A 1_555 1_555
O4A Na1A 1_555 1_555
O5A Na1A 1_555 1_555
O6A Na1A 1_555 1_555
C11A C12A 1_555 1_555
C15A C16A 1_555 1_555
O7A Na2A 1_555 1_555
O8A Na2A 1_555 1_555
O9A Na2A 1_555 1_555
O10A Na2A 1_555 1_555
O11A Na2A 1_555 1_555
O12A Na2A 1_555 1_555
C25A C26A 1_555 1_555
C31A C32A 1_555 1_555

#END
