
#######################################################################
#
#                 Cambridge Crystallographic Data Centre
#                                CCDC 
#
#######################################################################
#
# If this CIF has been generated from an entry in the Cambridge 
# Structural Database, then it will include bibliographic, chemical, 
# crystal, experimental, refinement or atomic coordinate data resulting 
# from the CCDC's data processing and validation procedures.
#
#######################################################################

data_BEGYUJ
_symmetry_cell_setting           orthorhombic
_symmetry_space_group_name_H-M   'P b c a'
_symmetry_Int_Tables_number      61
_space_group_name_Hall           '-P 2ac 2ab'
loop_
_symmetry_equiv_pos_site_id
_symmetry_equiv_pos_as_xyz
1 x,y,z
2 1/2-x,-y,1/2+z
3 -x,1/2+y,1/2-z
4 1/2+x,1/2-y,-z
5 -x,-y,-z
6 1/2+x,y,1/2-z
7 x,1/2-y,1/2+z
8 1/2-x,1/2+y,z
_cell_length_a                   18.786(7)
_cell_length_b                   7.133(3)
_cell_length_c                   18.786(7)
_cell_angle_alpha                90
_cell_angle_beta                 90
_cell_angle_gamma                90
_cell_volume                     2517.33
loop_
_atom_site_label
_atom_site_type_symbol
_atom_site_fract_x
_atom_site_fract_y
_atom_site_fract_z
Zn1 Zn 0.048461(13) 0.12996(4) 0.165266(14)
O1 O 0.13948(8) 0.2435(2) 0.11398(8)
O2 O 0.25162(9) 0.3291(3) 0.13454(9)
O3 O -0.00400(9) -0.0401(2) 0.25633(9)
O4 O 0.03025(9) -0.1983(2) 0.35190(8)
O5 O 0.28358(10) 0.0784(3) 0.38587(9)
H1 H 0.2689 0.0412 0.4245
N1 N 0.12381(10) 0.1018(2) 0.23925(10)
N2 N 0.02977(10) -0.0900(3) 0.10086(10)
C1 C 0.18795(11) 0.1731(3) 0.22584(11)
C2 C 0.24242(12) 0.1649(3) 0.27389(13)
H2 H 0.2870 0.2137 0.2628
C3 C 0.22989(13) 0.0827(4) 0.33930(12)
C4 C 0.16304(12) 0.0038(3) 0.35256(12)
H3 H 0.1535 -0.0550 0.3957
C5 C 0.11192(11) 0.0148(3) 0.30076(11)
C6 C 0.19417(12) 0.2580(3) 0.15232(11)
C7 C 0.03929(11) -0.0787(3) 0.30319(13)
C8 C 0.08100(13) -0.2148(3) 0.09022(14)
H4 H 0.1256 -0.1920 0.1099
C9 C 0.07137(14) -0.3757(3) 0.05170(16)
H5 H 0.1088 -0.4599 0.0464
C10 C 0.00632(12) -0.4133(3) 0.02066(11)
C11 C -0.04671(11) -0.2811(3) 0.03101(13)
H6 H -0.0914 -0.2987 0.0107
C12 C -0.03347(13) -0.1247(3) 0.07096(14)
H7 H -0.0701 -0.0387 0.0776
Zn1B Zn -0.048461(13) 0.62996(4) 0.334734(14)
Zn1B_2 Zn -0.048461(13) -0.37004(4) 0.334734(14)
Zn1D Zn -0.048461(13) -1.12996(4) -0.165266(14)
O1B O -0.13948(8) 0.7435(2) 0.38602(8)
O2B O -0.25162(9) 0.8291(3) 0.36546(9)
O3B O 0.00400(9) 0.4599(2) 0.24367(9)
O4B O -0.03025(9) 0.3017(2) 0.14810(8)
O4_2 O 0.03025(9) 0.8017(2) 0.35190(8)
O5B O -0.28358(10) 0.5784(3) 0.11413(9)
H1B H -0.2689 0.5412 0.0755
N1B N -0.12381(10) 0.6018(2) 0.26075(10)
N2D N -0.02977(10) -0.9100(3) -0.10086(10)
N2B N -0.02977(10) 0.4100(3) 0.39914(10)
C1B C -0.18795(11) 0.6731(3) 0.27416(11)
C2B C -0.24242(12) 0.6649(3) 0.22611(13)
H2B H -0.2870 0.7137 0.2372
C3B C -0.22989(13) 0.5827(4) 0.16070(12)
C4B C -0.16304(12) 0.5038(3) 0.14744(12)
H3B H -0.1535 0.4450 0.1043
C5B C -0.11192(11) 0.5148(3) 0.19924(11)
C6B C -0.19417(12) 0.7580(3) 0.34768(11)
C7B C -0.03929(11) 0.4213(3) 0.19681(13)
C8D C -0.08100(13) -0.7852(3) -0.09022(14)
H4D H -0.1256 -0.8080 -0.1099
C9D C -0.07137(14) -0.6243(3) -0.05170(16)
H5D H -0.1088 -0.5401 -0.0464
C10D C -0.00632(12) -0.5867(3) -0.02066(11)
C11D C 0.04671(11) -0.7189(3) -0.03101(13)
H6D H 0.0914 -0.7013 -0.0107
C12D C 0.03347(13) -0.8753(3) -0.07096(14)
H7D H 0.0701 -0.9613 -0.0776
O6 O 0.25174(14) -0.0347(3) 0.51290(10)
H8 H 0.246(2) 0.045(4) 0.5482(16)
H9 H 0.263(2) -0.139(4) 0.524(2)
loop_
_geom_bond_atom_site_label_1
_geom_bond_atom_site_label_2
_geom_bond_site_symmetry_1
_geom_bond_site_symmetry_2
Zn1 O1 1_555 1_555
O1 C6 1_555 1_555
O2 C6 1_555 1_555
O3 Zn1 1_555 1_555
O4 C7 1_555 1_555
O5 H1 1_555 1_555
N1 Zn1 1_555 1_555
N2 Zn1 1_555 1_555
C1 N1 1_555 1_555
C2 C1 1_555 1_555
H2 C2 1_555 1_555
C3 O5 1_555 1_555
C4 C3 1_555 1_555
H3 C4 1_555 1_555
C5 N1 1_555 1_555
C6 C1 1_555 1_555
C7 O3 1_555 1_555
C8 N2 1_555 1_555
H4 C8 1_555 1_555
C9 C8 1_555 1_555
H5 C9 1_555 1_555
C10 C9 1_555 1_555
C11 C10 1_555 1_555
H6 C11 1_555 1_555
C12 N2 1_555 1_555
H7 C12 1_555 1_555
O6 H8 1_555 1_555
H9 O6 1_555 1_555
Zn1B O1B 1_555 1_555
Zn1B_2 O4 1_555 1_555
Zn1D N2D 1_555 1_555
O1B C6B 1_555 1_555
O2B C6B 1_555 1_555
O3B Zn1B 1_555 1_555
O4B Zn1 1_555 1_555
O4_2 Zn1B 1_555 1_555
O5B H1B 1_555 1_555
N1B Zn1B 1_555 1_555
N2D C8D 1_555 1_555
N2B Zn1B 1_555 1_555
C1B N1B 1_555 1_555
C2B C1B 1_555 1_555
H2B C2B 1_555 1_555
C3B O5B 1_555 1_555
C4B C3B 1_555 1_555
H3B C4B 1_555 1_555
C5B N1B 1_555 1_555
C6B C1B 1_555 1_555
C7B O3B 1_555 1_555
C8D H4D 1_555 1_555
C9D C8D 1_555 1_555
H5D C9D 1_555 1_555
C10D C10 1_555 1_555
C11D C10D 1_555 1_555
H6D C11D 1_555 1_555
C12D N2D 1_555 1_555
H7D C12D 1_555 1_555
C2 C3 1_555 1_555
C4 C5 1_555 1_555
C5 C7 1_555 1_555
C11 C12 1_555 1_555
O4B C7B 1_555 1_555
C2B C3B 1_555 1_555
C4B C5B 1_555 1_555
C5B C7B 1_555 1_555
C9D C10D 1_555 1_555
C11D C12D 1_555 1_555

#END
