
#######################################################################
#
#                 Cambridge Crystallographic Data Centre
#                                CCDC 
#
#######################################################################
#
# If this CIF has been generated from an entry in the Cambridge 
# Structural Database, then it will include bibliographic, chemical, 
# crystal, experimental, refinement or atomic coordinate data resulting 
# from the CCDC's data processing and validation procedures.
#
#######################################################################

data_BEGYUJ01
_symmetry_cell_setting           orthorhombic
_symmetry_space_group_name_H-M   'P b c a'
_symmetry_Int_Tables_number      61
_space_group_name_Hall           '-P 2ac 2ab'
loop_
_symmetry_equiv_pos_site_id
_symmetry_equiv_pos_as_xyz
1 x,y,z
2 1/2-x,-y,1/2+z
3 -x,1/2+y,1/2-z
4 1/2+x,1/2-y,-z
5 -x,-y,-z
6 1/2+x,y,1/2-z
7 x,1/2-y,1/2+z
8 1/2-x,1/2+y,z
_cell_length_a                   18.763(2)
_cell_length_b                   7.1628(8)
_cell_length_c                   18.966(2)
_cell_angle_alpha                90
_cell_angle_beta                 90
_cell_angle_gamma                90
_cell_volume                     2548.95
loop_
_atom_site_label
_atom_site_type_symbol
_atom_site_fract_x
_atom_site_fract_y
_atom_site_fract_z
Zn1 Zn 0.048458(13) 0.62939(4) 0.165284(14)
N1 N 0.12375(9) 0.6012(2) 0.23936(9)
N2 N 0.02969(10) 0.4098(3) 0.10078(10)
O1 O 0.03037(9) 0.3007(2) 0.35177(8)
O2 O -0.00390(9) 0.4595(3) 0.25641(9)
O3 O 0.13946(8) 0.7437(2) 0.11400(8)
O4 O 0.25153(9) 0.8283(3) 0.13444(9)
O5 O 0.28377(10) 0.5778(3) 0.38564(10)
H1 H 0.2692 0.5380 0.4235
C1 C 0.11176(11) 0.5141(3) 0.30061(11)
C2 C 0.16302(13) 0.5023(3) 0.35239(12)
H2 H 0.1535 0.4434 0.3951
C3 C 0.22989(13) 0.5816(4) 0.33905(12)
C4 C 0.24257(13) 0.6638(3) 0.27357(13)
H3 H 0.2873 0.7118 0.2626
C5 C 0.18805(12) 0.6727(3) 0.22557(12)
C6 C 0.03949(12) 0.4202(3) 0.30295(12)
C7 C 0.19439(12) 0.7567(3) 0.15230(12)
C8 C 0.08123(14) 0.2843(4) 0.09018(15)
H4 H 0.1258 0.3062 0.1100
C9 C 0.07156(14) 0.1247(3) 0.05134(16)
H5 H 0.1091 0.0414 0.0456
C10 C 0.00624(12) 0.0868(3) 0.02058(12)
C11 C -0.04662(12) 0.2193(3) 0.03113(13)
H6 H -0.0913 0.2025 0.0109
C12 C -0.03342(13) 0.3749(3) 0.07120(14)
H7 H -0.0702 0.4601 0.0781
N2D N -0.02969(10) -0.4098(3) -0.10078(10)
C8D C -0.08123(14) -0.2843(4) -0.09018(15)
H4D H -0.1258 -0.3062 -0.1100
C9D C -0.07156(14) -0.1247(3) -0.05134(16)
H5D H -0.1091 -0.0414 -0.0456
C10D C -0.00624(12) -0.0868(3) -0.02058(12)
C11D C 0.04662(12) -0.2193(3) -0.03113(13)
H6D H 0.0913 -0.2025 -0.0109
C12D C 0.03342(13) -0.3749(3) -0.07120(14)
H7D H 0.0702 -0.4601 -0.0781
Zn1D Zn -0.048458(13) -0.62939(4) -0.165284(14)
N1D N -0.12375(9) -0.6012(2) -0.23936(9)
O1D O -0.03037(9) -0.3007(2) -0.35177(8)
O2D O 0.00390(9) -0.4595(3) -0.25641(9)
O3D O -0.13946(8) -0.7437(2) -0.11400(8)
O4D O -0.25153(9) -0.8283(3) -0.13444(9)
O5D O -0.28377(10) -0.5778(3) -0.38564(10)
H1D H -0.2692 -0.5380 -0.4235
C1D C -0.11176(11) -0.5141(3) -0.30061(11)
C2D C -0.16302(13) -0.5023(3) -0.35239(12)
H2D H -0.1535 -0.4434 -0.3951
C3D C -0.22989(13) -0.5816(4) -0.33905(12)
C4D C -0.24257(13) -0.6638(3) -0.27357(13)
H3D H -0.2873 -0.7118 -0.2626
C5D C -0.18805(12) -0.6727(3) -0.22557(12)
C6D C -0.03949(12) -0.4202(3) -0.30295(12)
C7D C -0.19439(12) -0.7567(3) -0.15230(12)
Zn1B Zn -0.048458(13) 0.12939(4) 0.334716(14)
Zn1F Zn 0.048458(13) -0.12939(4) -0.334716(14)
O1B O -0.03037(9) 0.8007(2) 0.14823(8)
O1F O 0.03037(9) -0.8007(2) -0.14823(8)
O6 O 0.25184(13) 0.4650(3) 0.51260(9)
H8 H 0.2491 0.5472 0.5424
H9 H 0.2576 0.3593 0.5281
loop_
_geom_bond_atom_site_label_1
_geom_bond_atom_site_label_2
_geom_bond_site_symmetry_1
_geom_bond_site_symmetry_2
Zn1 N1 1_555 1_555
N1 C1 1_555 1_555
N2 Zn1 1_555 1_555
O1 C6 1_555 1_555
O2 Zn1 1_555 1_555
O3 Zn1 1_555 1_555
O4 C7 1_555 1_555
O5 H1 1_555 1_555
C1 C2 1_555 1_555
C2 H2 1_555 1_555
C3 O5 1_555 1_555
C4 C3 1_555 1_555
H3 C4 1_555 1_555
C5 N1 1_555 1_555
C6 O2 1_555 1_555
C7 O3 1_555 1_555
C8 N2 1_555 1_555
H4 C8 1_555 1_555
C9 C8 1_555 1_555
H5 C9 1_555 1_555
C10 C9 1_555 1_555
C11 C10 1_555 1_555
H6 C11 1_555 1_555
C12 N2 1_555 1_555
H7 C12 1_555 1_555
O6 H8 1_555 1_555
H9 O6 1_555 1_555
N2D C8D 1_555 1_555
C8D H4D 1_555 1_555
C9D C8D 1_555 1_555
H5D C9D 1_555 1_555
C10D C10 1_555 1_555
C11D C10D 1_555 1_555
H6D C11D 1_555 1_555
C12D N2D 1_555 1_555
H7D C12D 1_555 1_555
Zn1D N2D 1_555 1_555
N1D Zn1D 1_555 1_555
O1D C6D 1_555 1_555
O2D Zn1D 1_555 1_555
O3D Zn1D 1_555 1_555
O4D C7D 1_555 1_555
O5D H1D 1_555 1_555
C1D N1D 1_555 1_555
C2D C1D 1_555 1_555
H2D C2D 1_555 1_555
C3D O5D 1_555 1_555
C4D C3D 1_555 1_555
H3D C4D 1_555 1_555
C5D N1D 1_555 1_555
C6D O2D 1_555 1_555
C7D O3D 1_555 1_555
Zn1B O1 1_555 1_555
Zn1F O1D 1_555 1_555
O1B Zn1 1_555 1_555
O1F Zn1D 1_555 1_555
C1 C6 1_555 1_555
C2 C3 1_555 1_555
C4 C5 1_555 1_555
C5 C7 1_555 1_555
C11 C12 1_555 1_555
C9D C10D 1_555 1_555
C11D C12D 1_555 1_555
C1D C6D 1_555 1_555
C2D C3D 1_555 1_555
C4D C5D 1_555 1_555
C5D C7D 1_555 1_555

#END
