
#######################################################################
#
#                 Cambridge Crystallographic Data Centre
#                                CCDC 
#
#######################################################################
#
# If this CIF has been generated from an entry in the Cambridge 
# Structural Database, then it will include bibliographic, chemical, 
# crystal, experimental, refinement or atomic coordinate data resulting 
# from the CCDC's data processing and validation procedures.
#
#######################################################################

data_BEGZEU
_symmetry_cell_setting           monoclinic
_symmetry_space_group_name_H-M   'C 2/c'
_symmetry_Int_Tables_number      15
_space_group_name_Hall           '-C 2yn'
loop_
_symmetry_equiv_pos_site_id
_symmetry_equiv_pos_as_xyz
1 x,y,z
2 -x,y,1/2-z
3 1/2+x,1/2+y,z
4 1/2-x,1/2+y,1/2-z
5 -x,-y,-z
6 x,-y,1/2+z
7 1/2-x,1/2-y,-z
8 1/2+x,1/2-y,1/2+z
_cell_length_a                   20.097(10)
_cell_length_b                   10.151(4)
_cell_length_c                   22.229(10)
_cell_angle_alpha                90
_cell_angle_beta                 112.460(8)
_cell_angle_gamma                90
_cell_volume                     4190.84
loop_
_atom_site_label
_atom_site_type_symbol
_atom_site_fract_x
_atom_site_fract_y
_atom_site_fract_z
Co1 Co -0.30238(2) -0.30570(5) 0.23099(2)
O1 O -0.57685(14) -0.6436(3) 0.13645(19)
H1 H -0.5681 -0.7215 0.1458
O4 O -0.50879(13) -0.1512(3) 0.15238(14)
O5 O -0.26297(12) -0.5109(2) 0.24786(11)
O6 O -0.38946(12) -0.1703(2) 0.19945(12)
O7 O -0.29844(12) -0.7218(2) 0.23897(11)
N1 N -0.39284(14) -0.4226(3) 0.20312(13)
N2 N -0.29689(15) -0.3015(3) 0.13661(14)
N3 N -0.28754(16) -0.2867(3) 0.33087(14)
C1 C -0.3052(3) -0.1808(6) 0.0423(3)
H2 H -0.3261 -0.1100 0.0150
C2 C -0.3213(3) -0.2024(5) 0.0981(2)
H3 H -0.3509 -0.1423 0.1076
C3 C -0.2348(3) -0.3630(5) 0.0691(2)
H4 H -0.2027 -0.4221 0.0627
C4 C -0.2264(2) -0.3325(5) 0.3765(2)
H5 H -0.1930 -0.3740 0.3633
C5 C -0.2110(2) -0.3204(5) 0.4425(2)
H6 H -0.1683 -0.3554 0.4721
C6 C -0.2557(3) -0.3802(5) 0.1196(2)
H7 H -0.2390 -0.4554 0.1447
C7 C -0.2598(2) -0.2618(4) 0.02818(17)
C8 C -0.33239(18) -0.2238(4) 0.35319(17)
H8 H -0.3748 -0.1892 0.3228
C9 C -0.25776(19) -0.2575(4) 0.46559(17)
C10 C -0.31989(19) -0.2075(4) 0.41685(18)
H9 H -0.3533 -0.1622 0.4286
C11 C -0.45291(19) -0.2161(4) 0.17609(18)
C12 C -0.45748(19) -0.3656(4) 0.17875(17)
C13 C -0.5202(2) -0.4377(4) 0.1572(2)
H10 H -0.5648 -0.3962 0.1408
C14 C -0.5152(2) -0.5734(4) 0.1604(2)
C15 C -0.44710(19) -0.6334(4) 0.1864(2)
H11 H -0.4425 -0.7246 0.1898
C16 C -0.38785(18) -0.5539(4) 0.20648(17)
C17 C -0.31047(18) -0.5992(4) 0.23314(16)
Co1C Co -0.19762(2) 0.19430(5) 0.26901(2)
Co1C_2 Co -0.19762(2) -0.80570(5) 0.26901(2)
Co1F Co -0.19762(2) -0.19430(5) -0.23099(2)
Co1F_2 Co -0.19762(2) -0.19430(5) 0.76901(2)
O1C O 0.07685(14) -0.1436(3) 0.36355(19)
H1C H 0.0681 -0.2215 0.3542
O4C O 0.00879(13) 0.3488(3) 0.34762(14)
O5C O -0.23703(12) -0.0109(2) 0.25214(11)
O6C O -0.11054(12) 0.3297(2) 0.30055(12)
O7C O -0.20156(12) -0.2218(2) 0.26103(11)
O7_2 O -0.29844(12) 0.2782(2) 0.23897(11)
N1C N -0.10716(14) 0.0774(3) 0.29688(13)
N2F N -0.20311(15) -0.1985(3) -0.13661(14)
N2C N -0.20311(15) 0.1985(3) 0.36339(14)
N3F N -0.21246(16) -0.2133(3) 0.66913(14)
N3C N -0.21246(16) 0.2133(3) 0.16913(14)
C1F C -0.1948(3) -0.3192(6) -0.0423(3)
H2F H -0.1739 -0.3900 -0.0150
C2F C -0.1787(3) -0.2976(5) -0.0981(2)
H3F H -0.1491 -0.3577 -0.1076
C3F C -0.2652(3) -0.1370(5) -0.0691(2)
H4F H -0.2973 -0.0779 -0.0627
C4F C -0.2736(2) -0.1675(5) 0.6235(2)
H5F H -0.3070 -0.1260 0.6367
C5F C -0.2890(2) -0.1796(5) 0.5575(2)
H6F H -0.3317 -0.1446 0.5279
C6F C -0.2443(3) -0.1198(5) -0.1196(2)
H7F H -0.2610 -0.0446 -0.1447
C7F C -0.2402(2) -0.2382(4) -0.02818(17)
C8F C -0.16761(18) -0.2762(4) 0.64681(17)
H8F H -0.1252 -0.3108 0.6772
C9F C -0.24224(19) -0.2425(4) 0.53441(17)
C10F C -0.18011(19) -0.2925(4) 0.58315(18)
H9F H -0.1467 -0.3378 0.5714
C11C C -0.04709(19) 0.2839(4) 0.32391(18)
C12C C -0.04252(19) 0.1344(4) 0.32125(17)
C13C C 0.0202(2) 0.0623(4) 0.3428(2)
H10C H 0.0648 0.1038 0.3592
C14C C 0.0152(2) -0.0734(4) 0.3396(2)
C15C C -0.05290(19) -0.1334(4) 0.3136(2)
H11C H -0.0575 -0.2246 0.3102
C16C C -0.11215(18) -0.0539(4) 0.29352(17)
C17C C -0.18953(18) -0.0992(4) 0.26686(16)
O2 O 0.06692(16) -0.3960(3) 0.3411(2)
O3 O 0.10548(17) -0.4245(3) 0.2388(2)
O8 O -0.0158(5) -0.0763(9) 0.4926(4)
O9 O -0.0479(4) -0.4463(7) 0.5267(3)
loop_
_geom_bond_atom_site_label_1
_geom_bond_atom_site_label_2
_geom_bond_site_symmetry_1
_geom_bond_site_symmetry_2
Co1 O5 1_555 1_555
O1 H1 1_555 1_555
O4 C11 1_555 1_555
O5 C17 1_555 1_555
O6 Co1 1_555 1_555
O7 C17 1_555 1_555
N1 Co1 1_555 1_555
N2 Co1 1_555 1_555
N3 Co1 1_555 1_555
C1 H2 1_555 1_555
C2 N2 1_555 1_555
H3 C2 1_555 1_555
C3 H4 1_555 1_555
C4 N3 1_555 1_555
H5 C4 1_555 1_555
C5 C4 1_555 1_555
H6 C5 1_555 1_555
C6 N2 1_555 1_555
H7 C6 1_555 1_555
C7 C1 1_555 1_555
C8 N3 1_555 1_555
H8 C8 1_555 1_555
C9 C5 1_555 1_555
C10 C8 1_555 1_555
H9 C10 1_555 1_555
C11 O6 1_555 1_555
C12 N1 1_555 1_555
C13 C12 1_555 1_555
H10 C13 1_555 1_555
C14 O1 1_555 1_555
C15 C14 1_555 1_555
H11 C15 1_555 1_555
C16 N1 1_555 1_555
C17 C16 1_555 1_555
Co1C O5C 1_555 1_555
Co1C_2 O7 1_555 1_555
Co1F N2F 1_555 1_555
Co1F_2 N3F 1_555 1_555
O1C H1C 1_555 1_555
O4C C11C 1_555 1_555
O5C C17C 1_555 1_555
O6C Co1C 1_555 1_555
O7C Co1 1_555 1_555
O7_2 Co1C 1_555 1_555
N1C Co1C 1_555 1_555
N2F C2F 1_555 1_555
N2C Co1C 1_555 1_555
N3F C4F 1_555 1_555
N3C Co1C 1_555 1_555
C1F H2F 1_555 1_555
C2F C1F 1_555 1_555
H3F C2F 1_555 1_555
C3F H4F 1_555 1_555
C4F H5F 1_555 1_555
C5F C4F 1_555 1_555
H6F C5F 1_555 1_555
C6F N2F 1_555 1_555
H7F C6F 1_555 1_555
C7F C7 1_555 1_555
C8F N3F 1_555 1_555
H8F C8F 1_555 1_555
C9F C9 1_555 1_555
C10F C8F 1_555 1_555
H9F C10F 1_555 1_555
C11C O6C 1_555 1_555
C12C N1C 1_555 1_555
C13C C12C 1_555 1_555
H10C C13C 1_555 1_555
C14C O1C 1_555 1_555
C15C C14C 1_555 1_555
H11C C15C 1_555 1_555
C16C N1C 1_555 1_555
C17C O7C 1_555 1_555
C1 C2 1_555 1_555
C3 C6 1_555 1_555
C3 C7 1_555 1_555
C9 C10 1_555 1_555
C11 C12 1_555 1_555
C13 C14 1_555 1_555
C15 C16 1_555 1_555
C1F C7F 1_555 1_555
C3F C6F 1_555 1_555
C3F C7F 1_555 1_555
C5F C9F 1_555 1_555
C9F C10F 1_555 1_555
C11C C12C 1_555 1_555
C13C C14C 1_555 1_555
C15C C16C 1_555 1_555
C16C C17C 1_555 1_555

#END
