
#######################################################################
#
#                 Cambridge Crystallographic Data Centre
#                                CCDC 
#
#######################################################################
#
# If this CIF has been generated from an entry in the Cambridge 
# Structural Database, then it will include bibliographic, chemical, 
# crystal, experimental, refinement or atomic coordinate data resulting 
# from the CCDC's data processing and validation procedures.
#
#######################################################################

data_BEGZIY
_symmetry_cell_setting           orthorhombic
_symmetry_space_group_name_H-M   'P n c 2'
_symmetry_Int_Tables_number      30
_space_group_name_Hall           'P 2 -2bc'
loop_
_symmetry_equiv_pos_site_id
_symmetry_equiv_pos_as_xyz
1 x,y,z
2 -x,-y,z
3 x,1/2-y,1/2+z
4 -x,1/2+y,1/2+z
_cell_length_a                   11.3267(6)
_cell_length_b                   22.8648(13)
_cell_length_c                   13.3156(8)
_cell_angle_alpha                90
_cell_angle_beta                 90
_cell_angle_gamma                90
_cell_volume                     3448.51
loop_
_atom_site_label
_atom_site_type_symbol
_atom_site_fract_x
_atom_site_fract_y
_atom_site_fract_z
Co1 Co 0.26635(3) 0.303336(15) 0.12569(3)
O2 O 0.27945(18) 0.24256(10) 0.00027(19)
H1 H 0.227(3) 0.2330(18) -0.039(3)
H2 H 0.340(3) 0.2345(17) -0.030(3)
O4 O 0.27267(18) 0.37210(9) 0.02232(19)
H3 H 0.334(3) 0.3744(15) -0.016(3)
H4 H 0.261(3) 0.4099(11) 0.028(3)
O6 O 0.26642(18) 0.23447(10) 0.23262(19)
O7 O 0.25855(19) 0.36157(10) 0.24673(19)
H5 H 0.210(3) 0.3543(16) 0.290(3)
H6 H 0.266(3) 0.3973(11) 0.240(3)
N3 N 0.07961(18) 0.30199(9) 0.1186(2)
N4 N -0.54693(17) 0.30326(9) 0.1320(2)
C15 C -0.1686(2) 0.30245(10) 0.1221(2)
C16 C -0.1041(2) 0.25086(11) 0.1182(2)
H15 H -0.1429 0.2150 0.1164
C17 C -0.1041(2) 0.35385(12) 0.1252(3)
H16 H -0.1427 0.3897 0.1288
C18 C 0.0177(2) 0.35177(12) 0.1230(3)
H17 H 0.0590 0.3869 0.1247
C19 C 0.0170(2) 0.25285(11) 0.1168(2)
H18 H 0.0578 0.2176 0.1145
C20 C -0.4858(2) 0.25335(11) 0.1326(2)
H19 H -0.5275 0.2184 0.1356
C21 C -0.4842(2) 0.35295(11) 0.1309(3)
H20 H -0.5249 0.3883 0.1328
C22 C -0.3631(2) 0.35454(11) 0.1271(3)
H21 H -0.3238 0.3902 0.1252
C23 C -0.3637(2) 0.25069(11) 0.1289(2)
H22 H -0.3252 0.2148 0.1285
C24 C -0.2996(2) 0.30258(10) 0.1260(2)
Co1_2 Co -0.73365(3) 0.303336(15) 0.12569(3)
N4_2 N 0.45307(17) 0.30326(9) 0.1320(2)
Co2 Co -0.23909(3) 0.113312(14) -0.07306(4)
O1 O -0.26342(19) 0.06402(9) -0.20819(17)
O3 O -0.27557(18) 0.07192(9) 0.23151(16)
O5 O -0.49845(16) 0.24511(9) -0.10953(16)
O8 O 0.10451(17) 0.17418(8) -0.10678(16)
O9 O -0.46193(18) -0.11321(8) 0.07318(16)
H7 H -0.5003 -0.1277 0.0273
O11 O -0.23030(17) 0.11928(8) 0.09097(16)
O13 O -0.41455(16) 0.15893(7) -0.07689(17)
O15 O -0.04927(17) 0.11335(8) -0.09033(17)
O17 O -0.11372(18) 0.36510(8) -0.18063(19)
H10 H -0.1693 0.3817 -0.2079
O19 O -0.3218(2) -0.02265(8) -0.26583(16)
N1 N -0.2966(2) 0.03503(9) -0.02287(17)
N2 N -0.2027(2) 0.19683(9) -0.10935(17)
C1 C -0.4051(2) -0.06586(10) 0.0396(2)
C2 C -0.3133(2) 0.02569(10) 0.0749(2)
C3 C -0.2693(2) 0.07628(11) 0.1385(2)
C4 C -0.3302(2) -0.00503(10) -0.0905(2)
C5 C -0.3848(2) -0.05613(11) -0.0620(2)
H11 H -0.4077 -0.0836 -0.1098
C6 C -0.3666(2) -0.02434(10) 0.1101(2)
H12 H -0.3768 -0.0305 0.1786
C7 C -0.3032(3) 0.01313(11) -0.1976(2)
C8 C -0.1457(3) 0.31058(11) -0.1556(2)
C9 C -0.0897(2) 0.21324(11) -0.11897(19)
C10 C -0.2887(2) 0.23659(10) -0.1212(2)
C11 C -0.2632(2) 0.29377(13) -0.1451(2)
H13 H -0.3236 0.3208 -0.1541
C12 C -0.0030(2) 0.16299(11) -0.10414(19)
C13 C -0.0571(2) 0.26942(11) -0.1401(2)
H14 H 0.0221 0.2799 -0.1440
C14 C -0.4124(2) 0.21243(11) -0.1019(2)
O10 O 0.2417(2) 0.49123(12) 0.0462(2)
O12 O 0.4380(2) 0.36225(12) -0.1200(2)
H8 H 0.469(4) 0.3280(13) -0.124(4)
H9 H 0.482(4) 0.3905(15) -0.126(4)
O14 O -0.4004(2) 0.03725(11) 0.3979(2)
O16 O 0.0000 0.5000 0.0996(4)
O18 O 0.0000 0.0000 -0.1934(4)
N5 N 0.1794(3) 0.12639(11) 0.2044(2)
C25 C 0.1628(3) 0.09490(15) 0.2872(3)
H23 H 0.1985 0.1076 0.3462
C26 C 0.0568(3) 0.05855(12) 0.1185(3)
H24 H 0.0206 0.0477 0.0587
C27 C 0.0384(2) 0.02589(12) 0.2046(2)
C28 C 0.1288(3) 0.10706(13) 0.1214(3)
H25 H 0.1425 0.1272 0.0619
C29 C 0.0961(3) 0.04466(13) 0.2907(3)
H26 H 0.0897 0.0235 0.3501
N5A N -0.1794(3) -0.12639(11) 0.2044(2)
C25A C -0.1628(3) -0.09490(15) 0.2872(3)
H23A H -0.1985 -0.1076 0.3462
C26A C -0.0568(3) -0.05855(12) 0.1185(3)
H24A H -0.0206 -0.0477 0.0587
C27A C -0.0384(2) -0.02589(12) 0.2046(2)
C28A C -0.1288(3) -0.10706(13) 0.1214(3)
H25A H -0.1425 -0.1272 0.0619
C29A C -0.0961(3) -0.04466(13) 0.2907(3)
H26A H -0.0897 -0.0235 0.3501
loop_
_geom_bond_atom_site_label_1
_geom_bond_atom_site_label_2
_geom_bond_site_symmetry_1
_geom_bond_site_symmetry_2
Co1 O2 1_555 1_555
Co2 O1 1_555 1_555
O1 C7 1_555 1_555
O2 H1 1_555 1_555
H2 O2 1_555 1_555
O3 C3 1_555 1_555
O4 Co1 1_555 1_555
H3 O4 1_555 1_555
H4 O4 1_555 1_555
O5 C14 1_555 1_555
O6 Co1 1_555 1_555
O7 Co1 1_555 1_555
H5 O7 1_555 1_555
H6 O7 1_555 1_555
O8 C12 1_555 1_555
O9 H7 1_555 1_555
O11 Co2 1_555 1_555
O12 H8 1_555 1_555
H9 O12 1_555 1_555
O13 Co2 1_555 1_555
O15 Co2 1_555 1_555
O17 H10 1_555 1_555
O19 C7 1_555 1_555
N1 Co2 1_555 1_555
N2 Co2 1_555 1_555
N3 Co1 1_555 1_555
N4 C20 1_555 1_555
N5 C25 1_555 1_555
C1 O9 1_555 1_555
C2 N1 1_555 1_555
C3 O11 1_555 1_555
C4 N1 1_555 1_555
C5 C1 1_555 1_555
H11 C5 1_555 1_555
C6 C1 1_555 1_555
H12 C6 1_555 1_555
C7 C4 1_555 1_555
C8 O17 1_555 1_555
C9 N2 1_555 1_555
C10 N2 1_555 1_555
C11 C8 1_555 1_555
H13 C11 1_555 1_555
C12 O15 1_555 1_555
C13 C8 1_555 1_555
H14 C13 1_555 1_555
C14 O13 1_555 1_555
C15 C16 1_555 1_555
C16 H15 1_555 1_555
C17 C15 1_555 1_555
H16 C17 1_555 1_555
C18 N3 1_555 1_555
H17 C18 1_555 1_555
C19 N3 1_555 1_555
H18 C19 1_555 1_555
C20 H19 1_555 1_555
C21 N4 1_555 1_555
H20 C21 1_555 1_555
C22 C21 1_555 1_555
H21 C22 1_555 1_555
C23 C20 1_555 1_555
H22 C23 1_555 1_555
C24 C15 1_555 1_555
C25 H23 1_555 1_555
C26 H24 1_555 1_555
C27 C26 1_555 1_555
C28 N5 1_555 1_555
H25 C28 1_555 1_555
C29 C25 1_555 1_555
H26 C29 1_555 1_555
Co1_2 N4 1_555 1_555
N4_2 Co1 1_555 1_555
N5A C25A 1_555 1_555
C25A H23A 1_555 1_555
C26A H24A 1_555 1_555
C27A C27 1_555 1_555
C28A N5A 1_555 1_555
H25A C28A 1_555 1_555
C29A C25A 1_555 1_555
H26A C29A 1_555 1_555
C2 C3 1_555 1_555
C2 C6 1_555 1_555
C4 C5 1_555 1_555
C9 C12 1_555 1_555
C9 C13 1_555 1_555
C10 C11 1_555 1_555
C10 C14 1_555 1_555
C16 C19 1_555 1_555
C17 C18 1_555 1_555
C22 C24 1_555 1_555
C23 C24 1_555 1_555
C26 C28 1_555 1_555
C27 C29 1_555 1_555
C26A C27A 1_555 1_555
C26A C28A 1_555 1_555
C27A C29A 1_555 1_555

#END
