
#######################################################################
#
#                 Cambridge Crystallographic Data Centre
#                                CCDC 
#
#######################################################################
#
# If this CIF has been generated from an entry in the Cambridge 
# Structural Database, then it will include bibliographic, chemical, 
# crystal, experimental, refinement or atomic coordinate data resulting 
# from the CCDC's data processing and validation procedures.
#
#######################################################################

data_BEHBUN
_symmetry_cell_setting           triclinic
_symmetry_space_group_name_H-M   'P -1'
_symmetry_Int_Tables_number      2
_space_group_name_Hall           '-P 1'
loop_
_symmetry_equiv_pos_site_id
_symmetry_equiv_pos_as_xyz
1 x,y,z
2 -x,-y,-z
_cell_length_a                   9.727(5)
_cell_length_b                   17.417(8)
_cell_length_c                   17.927(6)
_cell_angle_alpha                65.87(4)
_cell_angle_beta                 82.16(3)
_cell_angle_gamma                82.36(4)
_cell_volume                     2735.79
loop_
_atom_site_label
_atom_site_type_symbol
_atom_site_fract_x
_atom_site_fract_y
_atom_site_fract_z
Pr1 Pr 0.417337(19) 0.231367(11) 1.142207(11)
Pr2 Pr 0.66568(2) -0.290873(11) 1.655367(11)
P1 P 0.53575(10) 0.31024(6) 0.91177(5)
P2 P 0.06267(9) 0.15720(6) 1.15008(5)
P3 P 0.53423(10) -0.27878(5) 1.46075(5)
O1 O 0.4857(2) 0.26365(15) 1.00010(13)
O2 O 0.2010(2) 0.18396(15) 1.15471(14)
O3 O 0.5913(2) -0.30647(14) 1.54294(14)
O4 O 0.8617(3) -0.20830(19) 1.64678(16)
O5 O 0.8513(3) -0.22623(18) 1.53659(15)
O6 O 1.0387(3) -0.1831(2) 1.55515(17)
O7 O 0.6783(2) -0.45281(15) 1.70938(15)
O8 O 0.8703(3) -0.40047(16) 1.64812(16)
O9 O 0.8586(3) -0.53546(17) 1.69886(17)
O10 O 0.6453(3) 0.13624(16) 1.14880(15)
O11 O 0.4602(3) 0.08305(15) 1.14578(16)
O12 O 0.6610(3) 0.0139(2) 1.1434(2)
O13 O 0.4793(3) 0.15574(16) 1.40999(15)
O14 O 0.4298(3) 0.17199(14) 1.28835(14)
O15 O 0.7298(2) 0.66664(14) 0.79538(13)
O16 O 0.7112(3) 0.63082(15) 0.92836(14)
O17 O -0.4508(2) 0.33145(16) 1.26947(15)
O18 O -0.4179(3) 0.31398(15) 1.15185(14)
N1 N 0.9209(3) -0.20430(19) 1.57787(18)
N2 N 0.8040(3) -0.46449(19) 1.68515(18)
N3 N 0.5907(3) 0.0760(2) 1.14585(19)
C1 C 0.3961(4) 0.3747(2) 0.8524(2)
C2 C 0.2595(4) 0.3651(2) 0.8862(2)
H1 H 0.2395 0.3297 0.9424
C3 C 0.1523(4) 0.4077(3) 0.8372(3)
H2 H 0.0584 0.4011 0.8601
C4 C 0.1803(4) 0.4596(2) 0.7557(3)
H3 H 0.1059 0.4880 0.7225
C5 C 0.3147(4) 0.4699(2) 0.7227(2)
H4 H 0.3341 0.5060 0.6667
C6 C 0.4225(4) 0.4281(2) 0.7706(2)
H5 H 0.5160 0.4358 0.7473
C7 C 0.6031(4) 0.2375(2) 0.8653(2)
C8 C 0.6918(4) 0.2605(2) 0.7937(2)
H6 H 0.7199 0.3163 0.7676
C9 C 0.7390(4) 0.2018(3) 0.7607(2)
H7 H 0.8006 0.2172 0.7120
C10 C 0.6977(4) 0.1213(3) 0.7976(2)
H8 H 0.7303 0.0814 0.7742
C11 C 0.6095(4) 0.0984(2) 0.8680(2)
H9 H 0.5807 0.0427 0.8934
C12 C 0.5622(4) 0.1563(2) 0.9022(2)
H10 H 0.5014 0.1403 0.9513
C13 C 0.0609(4) 0.1419(2) 1.0575(2)
C14 C 0.1845(4) 0.1126(2) 1.0265(2)
H11 H 0.2680 0.1068 1.0510
C15 C 0.1869(4) 0.0918(2) 0.9602(2)
H12 H 0.2722 0.0709 0.9397
C16 C 0.0668(4) 0.1009(2) 0.9226(2)
H13 H 0.0699 0.0865 0.8767
C17 C -0.0558(4) 0.1307(2) 0.9521(2)
H14 H -0.1383 0.1376 0.9264
C18 C -0.0602(4) 0.1510(2) 1.0197(2)
H15 H -0.1460 0.1711 1.0404
C19 C 0.0330(4) 0.0578(2) 1.2329(2)
C20 C -0.0551(4) 0.0052(2) 1.2264(2)
H16 H -0.1038 0.0224 1.1789
C21 C -0.0714(4) -0.0730(2) 1.2901(2)
H17 H -0.1315 -0.1095 1.2859
C22 C -0.0013(4) -0.0985(2) 1.3598(2)
H18 H -0.0130 -0.1524 1.4030
C23 C 0.0859(4) -0.0454(3) 1.3662(2)
H19 H 0.1334 -0.0626 1.4142
C24 C 0.1041(4) 0.0324(2) 1.3035(2)
H20 H 0.1645 0.0687 1.3078
C25 C 0.4022(4) -0.3439(2) 1.4663(2)
C26 C 0.2741(4) -0.3366(3) 1.5080(2)
H21 H 0.2553 -0.2952 1.5306
C27 C 0.1735(4) -0.3892(3) 1.5169(2)
H22 H 0.0855 -0.3839 1.5456
C28 C 0.2002(5) -0.4494(3) 1.4843(3)
H23 H 0.1311 -0.4859 1.4907
C29 C 0.3266(4) -0.4564(2) 1.4428(3)
H24 H 0.3450 -0.4980 1.4204
C30 C 0.4271(4) -0.4043(2) 1.4329(2)
H25 H 0.5141 -0.4094 1.4032
C31 C 0.6709(4) -0.2838(2) 1.3847(2)
C32 C 0.6448(4) -0.2529(2) 1.3022(2)
H26 H 0.5535 -0.2315 1.2863
C33 C 0.7533(4) -0.2537(2) 1.2443(2)
H27 H 0.7369 -0.2331 1.1881
C34 C 0.8850(4) -0.2843(2) 1.2677(2)
H28 H 0.9590 -0.2850 1.2274
C35 C 0.9114(4) -0.3141(2) 1.3488(2)
H29 H 1.0031 -0.3349 1.3642
C36 C 0.8050(4) -0.3134(2) 1.4073(2)
H30 H 0.8231 -0.3333 1.4632
C37 C 0.4920(4) 0.1304(2) 1.3532(2)
C38 C 0.5762(4) 0.0492(2) 1.3622(2)
H31 H 0.6399 0.0337 1.4058
H32 H 0.6332 0.0559 1.3101
C39 C 0.4792(4) -0.0198(2) 1.3843(2)
H33 H 0.4197 -0.0240 1.4351
H34 H 0.4174 -0.0040 1.3398
C40 C 0.5555(4) -0.1052(2) 1.3975(2)
H35 H 0.6217 -0.1199 1.4396
H36 H 0.6096 -0.1027 1.3457
C41 C 0.4543(4) -0.1730(2) 1.4251(2)
H37 H 0.4004 -0.1634 1.3786
H38 H 0.3877 -0.1669 1.4697
C42 C 0.7531(4) 0.6142(2) 0.8676(2)
C43 C 0.8373(4) 0.5315(2) 0.8803(2)
H39 H 0.8349 0.5178 0.8321
H40 H 0.9354 0.5367 0.8852
C44 C 0.7804(4) 0.4605(2) 0.9574(2)
H41 H 0.8524 0.4123 0.9735
H42 H 0.7617 0.4803 1.0026
C45 C 0.6474(4) 0.4302(2) 0.9467(2)
H43 H 0.5995 0.3993 1.0015
H44 H 0.5845 0.4797 0.9166
C46 C 0.6756(4) 0.3725(2) 0.9002(2)
H45 H 0.6958 0.4077 0.8412
H46 H 0.7599 0.3342 0.9194
C47 C -0.3825(4) 0.3391(2) 1.2034(2)
C48 C -0.2463(4) 0.3767(2) 1.1854(2)
H47 H -0.2605 0.4315 1.1910
H48 H -0.2094 0.3872 1.1281
C49 C -0.1397(4) 0.3173(2) 1.2445(2)
H49 H -0.0507 0.3439 1.2305
H50 H -0.1743 0.3106 1.3012
C50 C -0.1130(4) 0.2314(2) 1.2417(2)
H51 H -0.1976 0.2006 1.2653
H52 H -0.0367 0.1992 1.2762
C51 C -0.0735(4) 0.2350(2) 1.1538(2)
H53 H -0.0438 0.2917 1.1176
H54 H -0.1567 0.2267 1.1326
Pr1A Pr 0.582663(19) 0.768633(11) 0.857793(11)
Pr1_2 Pr -0.582663(19) 0.231367(11) 1.142207(11)
Pr2A Pr 0.33432(2) 0.290873(11) 1.344633(11)
Pr2_2 Pr 0.66568(2) 0.709127(11) 0.655367(11)
Pr2A_2 Pr -0.66568(2) 0.290873(11) 1.344633(11)
O13A O 0.5207(3) -0.15574(16) 1.59001(15)
O14A O 0.5702(3) -0.17199(14) 1.71165(14)
O15A O 0.2702(2) 0.33336(14) 1.20462(13)
O15_2 O 0.7298(2) -0.33336(14) 1.79538(13)
O16A O 0.2888(3) 0.36918(15) 1.07164(14)
O17A O 0.4508(2) -0.33145(16) 1.73053(15)
O18_2 O 0.5821(3) 0.31398(15) 1.15185(14)
loop_
_geom_bond_atom_site_label_1
_geom_bond_atom_site_label_2
_geom_bond_site_symmetry_1
_geom_bond_site_symmetry_2
Pr1 O1 1_555 1_555
Pr2 O3 1_555 1_555
P1 O1 1_555 1_555
P2 O2 1_555 1_555
P3 O3 1_555 1_555
O2 Pr1 1_555 1_555
O4 Pr2 1_555 1_555
O5 Pr2 1_555 1_555
O6 N1 1_555 1_555
O7 Pr2 1_555 1_555
O8 Pr2 1_555 1_555
O9 N2 1_555 1_555
O10 Pr1 1_555 1_555
O11 Pr1 1_555 1_555
O12 N3 1_555 1_555
O13 C37 1_555 1_555
O14 Pr1 1_555 1_555
O15 C42 1_555 1_555
O16 C42 1_555 1_555
O17 C47 1_555 1_555
O18 C47 1_555 1_555
N1 O4 1_555 1_555
N2 O7 1_555 1_555
N3 O10 1_555 1_555
C1 P1 1_555 1_555
C2 C1 1_555 1_555
H1 C2 1_555 1_555
C3 C2 1_555 1_555
H2 C3 1_555 1_555
C4 C3 1_555 1_555
H3 C4 1_555 1_555
C5 C4 1_555 1_555
H4 C5 1_555 1_555
C6 C1 1_555 1_555
H5 C6 1_555 1_555
C7 P1 1_555 1_555
C8 C7 1_555 1_555
H6 C8 1_555 1_555
C9 C8 1_555 1_555
H7 C9 1_555 1_555
C10 C9 1_555 1_555
H8 C10 1_555 1_555
C11 C10 1_555 1_555
H9 C11 1_555 1_555
C12 C7 1_555 1_555
H10 C12 1_555 1_555
C13 P2 1_555 1_555
C14 C13 1_555 1_555
H11 C14 1_555 1_555
C15 C14 1_555 1_555
H12 C15 1_555 1_555
C16 C15 1_555 1_555
H13 C16 1_555 1_555
C17 C16 1_555 1_555
H14 C17 1_555 1_555
C18 C13 1_555 1_555
H15 C18 1_555 1_555
C19 P2 1_555 1_555
C20 C19 1_555 1_555
H16 C20 1_555 1_555
C21 C20 1_555 1_555
H17 C21 1_555 1_555
C22 C21 1_555 1_555
H18 C22 1_555 1_555
C23 C22 1_555 1_555
H19 C23 1_555 1_555
C24 C19 1_555 1_555
H20 C24 1_555 1_555
C25 P3 1_555 1_555
C26 C25 1_555 1_555
H21 C26 1_555 1_555
C27 C26 1_555 1_555
H22 C27 1_555 1_555
C28 C27 1_555 1_555
H23 C28 1_555 1_555
C29 C28 1_555 1_555
H24 C29 1_555 1_555
C30 C25 1_555 1_555
H25 C30 1_555 1_555
C31 P3 1_555 1_555
C32 C31 1_555 1_555
H26 C32 1_555 1_555
C33 C32 1_555 1_555
H27 C33 1_555 1_555
C34 C33 1_555 1_555
H28 C34 1_555 1_555
C35 C34 1_555 1_555
H29 C35 1_555 1_555
C36 C31 1_555 1_555
H30 C36 1_555 1_555
C37 O14 1_555 1_555
C38 C37 1_555 1_555
H31 C38 1_555 1_555
H32 C38 1_555 1_555
C39 C38 1_555 1_555
H33 C39 1_555 1_555
H34 C39 1_555 1_555
C40 C39 1_555 1_555
H35 C40 1_555 1_555
H36 C40 1_555 1_555
C41 P3 1_555 1_555
H37 C41 1_555 1_555
H38 C41 1_555 1_555
C42 C43 1_555 1_555
C43 H39 1_555 1_555
H40 C43 1_555 1_555
C44 C43 1_555 1_555
H41 C44 1_555 1_555
H42 C44 1_555 1_555
C45 C44 1_555 1_555
H43 C45 1_555 1_555
H44 C45 1_555 1_555
C46 P1 1_555 1_555
H45 C46 1_555 1_555
H46 C46 1_555 1_555
C47 C48 1_555 1_555
C48 H47 1_555 1_555
H48 C48 1_555 1_555
C49 C48 1_555 1_555
H49 C49 1_555 1_555
H50 C49 1_555 1_555
C50 C49 1_555 1_555
H51 C50 1_555 1_555
H52 C50 1_555 1_555
C51 P2 1_555 1_555
H53 C51 1_555 1_555
H54 C51 1_555 1_555
Pr1A O15 1_555 1_555
Pr1_2 O18 1_555 1_555
Pr2A O13 1_555 1_555
Pr2_2 O15 1_555 1_555
Pr2A_2 O17 1_555 1_555
O13A Pr2 1_555 1_555
O14A Pr2 1_555 1_555
O15A Pr1 1_555 1_555
O15_2 Pr2 1_555 1_555
O16A Pr1 1_555 1_555
O17A Pr2 1_555 1_555
O18_2 Pr1 1_555 1_555
O5 N1 1_555 1_555
O8 N2 1_555 1_555
O11 N3 1_555 1_555
O14 Pr2A 1_555 1_555
O16 Pr1A 1_555 1_555
C5 C6 1_555 1_555
C11 C12 1_555 1_555
C17 C18 1_555 1_555
C23 C24 1_555 1_555
C29 C30 1_555 1_555
C35 C36 1_555 1_555
C40 C41 1_555 1_555
C45 C46 1_555 1_555
C50 C51 1_555 1_555
Pr2A O15A 1_555 1_555

#END
