
#######################################################################
#
#                 Cambridge Crystallographic Data Centre
#                                CCDC 
#
#######################################################################
#
# If this CIF has been generated from an entry in the Cambridge 
# Structural Database, then it will include bibliographic, chemical, 
# crystal, experimental, refinement or atomic coordinate data resulting 
# from the CCDC's data processing and validation procedures.
#
#######################################################################

data_BEHBOF
_symmetry_cell_setting           monoclinic
_symmetry_space_group_name_H-M   'P 21/n'
_symmetry_Int_Tables_number      14
_space_group_name_Hall           '-P 2yn'
loop_
_symmetry_equiv_pos_site_id
_symmetry_equiv_pos_as_xyz
1 x,y,z
2 1/2-x,1/2+y,1/2-z
3 -x,-y,-z
4 1/2+x,1/2-y,1/2+z
_cell_length_a                   6.554(2)
_cell_length_b                   9.156(2)
_cell_length_c                   12.134(8)
_cell_angle_alpha                90
_cell_angle_beta                 96.89(4)
_cell_angle_gamma                90
_cell_volume                     722.884
loop_
_atom_site_label
_atom_site_type_symbol
_atom_site_fract_x
_atom_site_fract_y
_atom_site_fract_z
Al1 Al 0.21503 0.21642 0.13886
C1 C 0.38800 0.04100 0.24070
C2 C 0.24490 -0.06480 0.19960
C3 C 0.38220 0.40500 0.21810
C4 C 0.31420 0.49750 0.12600
C5 C 0.35200 0.07460 0.35080
C6 C 0.31840 0.18470 -0.00420
C7 C -0.07790 0.22080 0.15240
H1 H 0.51100 0.06300 0.21200
H2 H 0.23800 -0.11100 0.12800
H3 H 0.52000 0.36000 0.23700
H4 H 0.36800 0.50100 0.06000
H5 H 0.43200 0.14200 0.39900
H6 H 0.28300 0.25900 -0.05800
H7 H 0.26400 0.09700 -0.03800
H8 H 0.45200 0.18600 0.00500
H9 H -0.14800 0.15400 0.10100
H10 H -0.09900 0.20200 0.22500
H11 H -0.14000 0.31000 0.13500
C3A C 0.11780 -0.09500 0.28190
C2A C 0.25510 0.43520 0.30040
C5A C 0.14800 0.57460 0.14920
C4A C 0.18580 -0.00250 0.37400
Al1A Al 0.28497 -0.28358 0.36114
H3A H -0.02000 -0.14000 0.26300
C1A C 0.11200 0.54100 0.25930
H2A H 0.26200 0.38900 0.37200
H5A H 0.06800 0.64200 0.10100
H4A H 0.13200 0.00100 0.44000
C1A_2 C 0.11200 -0.45900 0.25930
C6A C 0.18160 -0.31530 0.50420
C7A C 0.57790 -0.27920 0.34760
Al1A_2 Al 0.28497 0.71642 0.36114
H1A H -0.01100 0.56300 0.28800
H6A H 0.21700 -0.24100 0.55800
H7A H 0.23600 -0.40300 0.53800
H8A H 0.04800 -0.31400 0.49500
H9A H 0.64800 -0.34600 0.39900
H10A H 0.59900 -0.29800 0.27500
H11A H 0.64000 -0.19000 0.36500
loop_
_geom_bond_atom_site_label_1
_geom_bond_atom_site_label_2
_geom_bond_site_symmetry_1
_geom_bond_site_symmetry_2
Al1 C1 1_555 1_555
C1 C2 1_555 1_555
C2 H2 1_555 1_555
C3 Al1 1_555 1_555
C4 C3 1_555 1_555
C5 C1 1_555 1_555
C6 Al1 1_555 1_555
C7 Al1 1_555 1_555
H1 C1 1_555 1_555
H3 C3 1_555 1_555
H4 C4 1_555 1_555
H5 C5 1_555 1_555
H6 C6 1_555 1_555
H7 C6 1_555 1_555
H8 C6 1_555 1_555
H9 C7 1_555 1_555
H10 C7 1_555 1_555
H11 C7 1_555 1_555
C3A C2 1_555 1_555
C2A C3 1_555 1_555
C5A C4 1_555 1_555
C4A C5 1_555 1_555
Al1A C3A 1_555 1_555
H3A C3A 1_555 1_555
C1A C2A 1_555 1_555
H2A C2A 1_555 1_555
H5A C5A 1_555 1_555
H4A C4A 1_555 1_555
C1A_2 Al1A 1_555 1_555
C6A Al1A 1_555 1_555
C7A Al1A 1_555 1_555
Al1A_2 C1A 1_555 1_555
H1A C1A 1_555 1_555
H6A C6A 1_555 1_555
H7A C6A 1_555 1_555
H8A C6A 1_555 1_555
H9A C7A 1_555 1_555
H10A C7A 1_555 1_555
H11A C7A 1_555 1_555
C3A C4A 1_555 1_555
C5A C1A 1_555 1_555

#END
