
#######################################################################
#
#                 Cambridge Crystallographic Data Centre
#                                CCDC 
#
#######################################################################
#
# If this CIF has been generated from an entry in the Cambridge 
# Structural Database, then it will include bibliographic, chemical, 
# crystal, experimental, refinement or atomic coordinate data resulting 
# from the CCDC's data processing and validation procedures.
#
#######################################################################

data_BEHCAU
_symmetry_cell_setting           monoclinic
_symmetry_space_group_name_H-M   'P 21/c'
_symmetry_Int_Tables_number      14
_space_group_name_Hall           '-P 2ybc'
loop_
_symmetry_equiv_pos_site_id
_symmetry_equiv_pos_as_xyz
1 x,y,z
2 -x,1/2+y,1/2-z
3 -x,-y,-z
4 x,1/2-y,1/2+z
_cell_length_a                   10.341(5)
_cell_length_b                   19.827(3)
_cell_length_c                   17.229(10)
_cell_angle_alpha                90
_cell_angle_beta                 98.47(5)
_cell_angle_gamma                90
_cell_volume                     3493.95
loop_
_atom_site_label
_atom_site_type_symbol
_atom_site_fract_x
_atom_site_fract_y
_atom_site_fract_z
Pr1 Pr 0.92533(2) 0.064810(13) 0.406877(15)
P1 P 0.79046(12) 0.25041(6) 0.36533(8)
P2 P 0.62888(12) 0.05079(6) 0.23445(7)
O1 O 0.8544(3) 0.18299(15) 0.38742(19)
O2 O 0.7512(3) 0.06457(16) 0.29201(19)
O3 O 1.0926(4) 0.12524(19) 0.3294(3)
O4 O 1.0383(4) 0.0261(2) 0.2833(2)
O5 O 1.1709(4) 0.0892(3) 0.2249(2)
O6 O 0.2777(3) -0.06602(16) 0.52458(19)
O7 O 0.1190(3) -0.00740(16) 0.45534(19)
O8 O 1.0475(3) 0.37433(16) 0.0191(2)
O9 O 1.1412(3) 0.44702(15) 0.11281(19)
N1 N 1.1012(5) 0.0797(3) 0.2774(3)
C1 C 0.2386(5) -0.0270(2) 0.4686(3)
C2 C 0.3363(4) -0.0023(2) 0.4164(3)
H1 H 0.2915 0.0298 0.3773
H2 H 0.4075 0.0225 0.4492
C3 C 0.3966(5) -0.0595(2) 0.3728(3)
H3 H 0.4212 -0.0970 0.4100
H4 H 0.3292 -0.0767 0.3306
C4 C 0.5191(5) -0.0383(2) 0.3358(3)
H5 H 0.5483 -0.0769 0.3063
H6 H 0.5910 -0.0266 0.3782
C5 C 0.4899(5) 0.0227(2) 0.2800(3)
H7 H 0.4176 0.0105 0.2381
H8 H 0.4597 0.0608 0.3098
C6 C 1.0975(5) 0.3898(3) 0.0898(3)
C7 C 1.0980(5) 0.3346(2) 0.1520(3)
H9 H 1.1188 0.2906 0.1298
H10 H 1.1659 0.3446 0.1973
C8 C 0.9615(5) 0.3313(3) 0.1794(3)
H11 H 0.8972 0.3140 0.1357
H12 H 0.9346 0.3776 0.1916
C9 C 0.9572(5) 0.2868(2) 0.2513(3)
H13 H 0.9889 0.2410 0.2411
H14 H 1.0154 0.3058 0.2969
C10 C 0.8153(5) 0.2825(2) 0.2704(3)
H15 H 0.7772 0.3284 0.2648
H16 H 0.7642 0.2539 0.2299
C11 C 0.8555(5) 0.3146(2) 0.4364(3)
C12 C 0.9540(5) 0.2961(3) 0.4981(3)
H17 H 0.9863 0.2512 0.5015
C13 C 1.0048(5) 0.3444(3) 0.5548(3)
H18 H 1.0719 0.3323 0.5963
C14 C 0.9556(5) 0.4099(3) 0.5495(3)
H19 H 0.9888 0.4424 0.5879
C15 C 0.8588(5) 0.4283(3) 0.4887(3)
H20 H 0.8272 0.4734 0.4853
C16 C 0.8072(5) 0.3808(2) 0.4324(3)
H21 H 0.7395 0.3934 0.3915
C17 C 0.6122(5) 0.2480(2) 0.3611(3)
C18 C 0.5555(5) 0.1929(3) 0.3950(3)
H22 H 0.6091 0.1582 0.4205
C19 C 0.4179(5) 0.1895(3) 0.3909(3)
H23 H 0.3792 0.1527 0.4143
C20 C 0.3377(5) 0.2407(3) 0.3519(3)
H24 H 0.2453 0.2381 0.3484
C21 C 0.3950(5) 0.2939(3) 0.3193(3)
H25 H 0.3413 0.3285 0.2935
C22 C 0.5312(5) 0.2985(3) 0.3232(3)
H26 H 0.5687 0.3358 0.3001
C23 C 0.6596(4) -0.0127(2) 0.1618(3)
C24 C 0.7871(5) -0.0378(2) 0.1639(3)
H27 H 0.8546 -0.0244 0.2045
C25 C 0.8142(5) -0.0834(2) 0.1049(3)
H28 H 0.9001 -0.1005 0.1052
C26 C 0.7138(5) -0.1027(2) 0.0468(3)
H29 H 0.7323 -0.1333 0.0074
C27 C 0.5861(5) -0.0787(2) 0.0441(3)
H30 H 0.5187 -0.0932 0.0041
C28 C 0.5590(5) -0.0324(2) 0.1019(3)
H31 H 0.4733 -0.0147 0.1003
C29 C 0.5731(5) 0.1254(2) 0.1769(3)
C30 C 0.6607(5) 0.1538(3) 0.1298(3)
H32 H 0.7430 0.1332 0.1277
C31 C 0.6252(5) 0.2124(3) 0.0865(3)
H33 H 0.6849 0.2325 0.0564
C32 C 0.5021(5) 0.2414(3) 0.0872(3)
H34 H 0.4775 0.2804 0.0565
C33 C 0.4150(5) 0.2133(3) 0.1331(3)
H35 H 0.3322 0.2338 0.1341
C34 C 0.4490(5) 0.1551(3) 0.1777(3)
H36 H 0.3891 0.1358 0.2082
Pr1B Pr 0.07467(2) -0.064810(13) 0.593123(15)
Pr1_2 Pr -0.07467(2) 0.064810(13) 0.406877(15)
Pr1C Pr 0.92533(2) 0.435190(13) -0.093123(15)
Pr1A Pr 1.07467(2) 0.564810(13) 0.093123(15)
O6B O 0.7223(3) 0.06602(16) 0.47542(19)
O7_2 O 1.1190(3) -0.00740(16) 0.45534(19)
O7B O 0.8810(3) 0.00740(16) 0.54466(19)
O8C O 1.0475(3) 0.12567(16) 0.5191(2)
O9A O 0.8588(3) -0.05298(15) 0.38719(19)
loop_
_geom_bond_atom_site_label_1
_geom_bond_atom_site_label_2
_geom_bond_site_symmetry_1
_geom_bond_site_symmetry_2
Pr1 O1 1_555 1_555
P1 O1 1_555 1_555
P2 O2 1_555 1_555
O2 Pr1 1_555 1_555
O3 Pr1 1_555 1_555
O4 Pr1 1_555 1_555
O5 N1 1_555 1_555
O6 C1 1_555 1_555
O7 C1 1_555 1_555
O8 C6 1_555 1_555
O9 C6 1_555 1_555
N1 O3 1_555 1_555
C1 C2 1_555 1_555
C2 H1 1_555 1_555
H2 C2 1_555 1_555
C3 C2 1_555 1_555
H3 C3 1_555 1_555
H4 C3 1_555 1_555
C4 C3 1_555 1_555
H5 C4 1_555 1_555
H6 C4 1_555 1_555
C5 P2 1_555 1_555
H7 C5 1_555 1_555
H8 C5 1_555 1_555
C6 C7 1_555 1_555
C7 H9 1_555 1_555
H10 C7 1_555 1_555
C8 C7 1_555 1_555
H11 C8 1_555 1_555
H12 C8 1_555 1_555
C9 C8 1_555 1_555
H13 C9 1_555 1_555
H14 C9 1_555 1_555
C10 P1 1_555 1_555
H15 C10 1_555 1_555
H16 C10 1_555 1_555
C11 P1 1_555 1_555
C12 C11 1_555 1_555
H17 C12 1_555 1_555
C13 C12 1_555 1_555
H18 C13 1_555 1_555
C14 C13 1_555 1_555
H19 C14 1_555 1_555
C15 C14 1_555 1_555
H20 C15 1_555 1_555
C16 C11 1_555 1_555
H21 C16 1_555 1_555
C17 P1 1_555 1_555
C18 C17 1_555 1_555
H22 C18 1_555 1_555
C19 C18 1_555 1_555
H23 C19 1_555 1_555
C20 C19 1_555 1_555
H24 C20 1_555 1_555
C21 C20 1_555 1_555
H25 C21 1_555 1_555
C22 C17 1_555 1_555
H26 C22 1_555 1_555
C23 P2 1_555 1_555
C24 C23 1_555 1_555
H27 C24 1_555 1_555
C25 C24 1_555 1_555
H28 C25 1_555 1_555
C26 C25 1_555 1_555
H29 C26 1_555 1_555
C27 C26 1_555 1_555
H30 C27 1_555 1_555
C28 C23 1_555 1_555
H31 C28 1_555 1_555
C29 P2 1_555 1_555
C30 C29 1_555 1_555
H32 C30 1_555 1_555
C31 C30 1_555 1_555
H33 C31 1_555 1_555
C32 C31 1_555 1_555
H34 C32 1_555 1_555
C33 C32 1_555 1_555
H35 C33 1_555 1_555
C34 C29 1_555 1_555
H36 C34 1_555 1_555
Pr1B O6 1_555 1_555
Pr1_2 O7 1_555 1_555
Pr1C O8 1_555 1_555
Pr1A O9 1_555 1_555
O6B Pr1 1_555 1_555
O7_2 Pr1 1_555 1_555
O7B Pr1 1_555 1_555
O8C Pr1 1_555 1_555
O9A Pr1 1_555 1_555
O4 N1 1_555 1_555
O7 Pr1B 1_555 1_555
C4 C5 1_555 1_555
C9 C10 1_555 1_555
C15 C16 1_555 1_555
C21 C22 1_555 1_555
C27 C28 1_555 1_555
C33 C34 1_555 1_555

#END
