
#######################################################################
#
#                 Cambridge Crystallographic Data Centre
#                                CCDC 
#
#######################################################################
#
# If this CIF has been generated from an entry in the Cambridge 
# Structural Database, then it will include bibliographic, chemical, 
# crystal, experimental, refinement or atomic coordinate data resulting 
# from the CCDC's data processing and validation procedures.
#
#######################################################################

data_BEHHUR
_symmetry_cell_setting           monoclinic
_symmetry_space_group_name_H-M   'C 2/c'
_symmetry_Int_Tables_number      15
_space_group_name_Hall           '-C 2yn'
loop_
_symmetry_equiv_pos_site_id
_symmetry_equiv_pos_as_xyz
1 x,y,z
2 -x,y,1/2-z
3 1/2+x,1/2+y,z
4 1/2-x,1/2+y,1/2-z
5 -x,-y,-z
6 x,-y,1/2+z
7 1/2-x,1/2-y,-z
8 1/2+x,1/2-y,1/2+z
_cell_length_a                   19.706(4)
_cell_length_b                   11.381(3)
_cell_length_c                   7.482(3)
_cell_angle_alpha                90
_cell_angle_beta                 94.01(3)
_cell_angle_gamma                90
_cell_volume                     1673.91
loop_
_atom_site_label
_atom_site_type_symbol
_atom_site_fract_x
_atom_site_fract_y
_atom_site_fract_z
Mn1 Mn 0.00000 -0.38799(4) 0.2500
Cl1 Cl 0.22080(4) -0.3848(1) -0.1739(1)
O1 O 0.03915(9) -0.3758(1) -0.0154(2)
O2 O 0.0887(1) -0.5106(2) -0.1780(3)
N1 N -0.0620(1) -0.2241(2) 0.1601(3)
C1 C 0.0893(1) -0.4229(2) -0.0782(3)
C2 C 0.1572(2) -0.3677(3) -0.0191(5)
C3 C -0.1222(1) -0.2243(3) 0.0683(4)
C4 C -0.1568(2) -0.1218(3) 0.0161(4)
C5 C -0.1281(2) -0.0159(3) 0.0591(4)
C6 C -0.0643(1) -0.0112(2) 0.1536(4)
C7 C -0.0331(1) -0.1188(2) 0.2019(3)
C8 C -0.0300(2) 0.0965(2) 0.2034(4)
H1 H 0.176(2) -0.405(3) 0.082(5)
H2 H 0.154(2) -0.291(3) 0.002(5)
H3 H -0.143(1) -0.296(3) 0.035(4)
H4 H -0.196(2) -0.129(3) -0.051(5)
H5 H -0.151(2) 0.053(3) 0.021(5)
H6 H -0.051(1) 0.167(3) 0.168(4)
O2D O -0.0887(1) -0.4894(2) 0.1780(3)
Mn1D Mn 0.00000 -0.61201(4) -0.2500
O1A O -0.03915(9) -0.3758(1) 0.5154(2)
C1A C -0.0893(1) -0.4229(2) 0.5782(3)
O2A O -0.0887(1) -0.5106(2) 0.6780(3)
Mn1D_2 Mn 0.00000 -0.61201(4) 0.7500
O2E O 0.0887(1) -0.4894(2) 0.3220(3)
C7A C 0.0331(1) -0.1188(2) 0.2981(3)
N1A N 0.0620(1) -0.2241(2) 0.3399(3)
C3A C 0.1222(1) -0.2243(3) 0.4317(4)
C4A C 0.1568(2) -0.1218(3) 0.4839(4)
C5A C 0.1281(2) -0.0159(3) 0.4409(4)
C6A C 0.0643(1) -0.0112(2) 0.3464(4)
C8A C 0.0300(2) 0.0965(2) 0.2966(4)
H6A H 0.051(1) 0.167(3) 0.332(4)
H5A H 0.151(2) 0.053(3) 0.479(5)
H4A H 0.196(2) -0.129(3) 0.551(5)
H3A H 0.143(1) -0.296(3) 0.465(4)
C2A C -0.1572(2) -0.3677(3) 0.5191(5)
Cl1A Cl -0.22080(4) -0.3848(1) 0.6739(1)
H1A H -0.176(2) -0.405(3) 0.418(5)
H2A H -0.154(2) -0.291(3) 0.498(5)
loop_
_geom_bond_atom_site_label_1
_geom_bond_atom_site_label_2
_geom_bond_site_symmetry_1
_geom_bond_site_symmetry_2
Mn1 O1 1_555 1_555
Cl1 C2 1_555 1_555
O1 C1 1_555 1_555
O2 C1 1_555 1_555
N1 Mn1 1_555 1_555
C1 C2 1_555 1_555
C2 H1 1_555 1_555
C3 N1 1_555 1_555
C4 C3 1_555 1_555
C5 C4 1_555 1_555
C6 C5 1_555 1_555
C7 N1 1_555 1_555
C8 C6 1_555 1_555
H2 C2 1_555 1_555
H3 C3 1_555 1_555
H4 C4 1_555 1_555
H5 C5 1_555 1_555
H6 C8 1_555 1_555
O2D Mn1 1_555 1_555
Mn1D O2 1_555 1_555
O1A Mn1 1_555 1_555
C1A O1A 1_555 1_555
O2A C1A 1_555 1_555
Mn1D_2 O2A 1_555 1_555
O2E Mn1 1_555 1_555
C7A C7 1_555 1_555
N1A Mn1 1_555 1_555
C3A N1A 1_555 1_555
C4A C3A 1_555 1_555
C5A C4A 1_555 1_555
C6A C7A 1_555 1_555
C8A C8 1_555 1_555
H6A C8A 1_555 1_555
H5A C5A 1_555 1_555
H4A C4A 1_555 1_555
H3A C3A 1_555 1_555
C2A C1A 1_555 1_555
Cl1A C2A 1_555 1_555
H1A C2A 1_555 1_555
H2A C2A 1_555 1_555
C6 C7 1_555 1_555
C7A N1A 1_555 1_555
C5A C6A 1_555 1_555
C6A C8A 1_555 1_555

#END
