
#######################################################################
#
#                 Cambridge Crystallographic Data Centre
#                                CCDC 
#
#######################################################################
#
# If this CIF has been generated from an entry in the Cambridge 
# Structural Database, then it will include bibliographic, chemical, 
# crystal, experimental, refinement or atomic coordinate data resulting 
# from the CCDC's data processing and validation procedures.
#
#######################################################################

data_BEHJUV
_symmetry_cell_setting           monoclinic
_symmetry_space_group_name_H-M   'P 21/c'
_symmetry_Int_Tables_number      14
_space_group_name_Hall           '-P 2ybc'
loop_
_symmetry_equiv_pos_site_id
_symmetry_equiv_pos_as_xyz
1 x,y,z
2 -x,1/2+y,1/2-z
3 -x,-y,-z
4 x,1/2-y,1/2+z
_cell_length_a                   9.7007(4)
_cell_length_b                   11.3201(5)
_cell_length_c                   14.3886(5)
_cell_angle_alpha                90
_cell_angle_beta                 91.725(3)
_cell_angle_gamma                90
_cell_volume                     1579.34
loop_
_atom_site_label
_atom_site_type_symbol
_atom_site_fract_x
_atom_site_fract_y
_atom_site_fract_z
C1 C 0.44925(19) 0.86358(16) 0.43381(12)
C2 C 0.58819(19) 0.85676(17) 0.46142(13)
H1 H 0.6563 0.8637 0.4176
C3 C 0.62448(18) 0.83953(16) 0.55449(13)
C4 C 0.52297(19) 0.83078(17) 0.62002(13)
H2 H 0.5477 0.8177 0.6821
C5 C 0.38477(19) 0.84150(16) 0.59347(12)
C6 C 0.34822(19) 0.85708(17) 0.50003(13)
H3 H 0.2557 0.8632 0.4818
C7 C 0.4110(2) 0.87617(18) 0.33167(13)
C8 C 0.7739(2) 0.83029(18) 0.58592(14)
C9 C 0.3375(3) 0.4469(2) 0.6031(2)
H4 H 0.3868 0.4187 0.6584
H5 H 0.3783 0.4108 0.5493
C10 C 0.1895(3) 0.4133(2) 0.6068(2)
H6 H 0.1432 0.4304 0.5477
H7 H 0.1816 0.3292 0.6187
N1 N 0.28051(17) 0.82999(15) 0.66169(11)
H8 H 0.2107 0.8794 0.6465
H9 H 0.3164 0.8533 0.7171
N2 N 0.34909(18) 0.57591(16) 0.59714(12)
H10 H 0.3386 0.5992 0.5375
H11 H 0.4330 0.5990 0.6184
N3 N 0.1246(2) 0.48010(18) 0.68117(13)
H12 H 0.1461 0.4475 0.7368
H13 H 0.0323 0.4791 0.6729
O1 O 0.28675(15) 0.85774(16) 0.30839(9)
O2 O 0.50147(18) 0.9008(2) 0.27738(11)
O3 O 0.86604(15) 0.85846(16) 0.53113(11)
O4 O 0.79916(16) 0.79435(17) 0.66700(11)
Ni1 Ni 0.19703(2) 0.65298(2) 0.676731(15)
O5 O 0.03288(14) 0.71682(16) 0.75466(10)
O6 O 0.06936(17) 0.68231(17) 0.55826(10)
H14 H 0.007(3) 0.668(2) 0.7924(17)
H15 H -0.036(2) 0.741(3) 0.7231(18)
H16 H 0.013(3) 0.738(2) 0.551(2)
H17 H 0.096(3) 0.664(3) 0.5069(14)
O1C O 0.28675(15) 0.64226(16) 0.80839(9)
Ni1C Ni 0.19703(2) 0.84702(2) 0.176731(15)
O7 O 0.1859(4) 0.6315(2) 0.39821(15)
H18 H 0.225(5) 0.576(3) 0.377(3)
H19 H 0.182(5) 0.688(3) 0.365(3)
O8 O 0.2831(4) 0.4420(2) 0.3219(3)
H20 H 0.349(4) 0.439(5) 0.287(4)
H21 H 0.251(6) 0.374(3) 0.327(4)
O9 O 0.94667(19) 0.9747(2) 0.37404(12)
H22 H 0.911(3) 0.934(3) 0.414(2)
H23 H 1.009(3) 1.014(3) 0.397(2)
loop_
_geom_bond_atom_site_label_1
_geom_bond_atom_site_label_2
_geom_bond_site_symmetry_1
_geom_bond_site_symmetry_2
C1 C2 1_555 1_555
C2 H1 1_555 1_555
C3 C2 1_555 1_555
C4 C3 1_555 1_555
H2 C4 1_555 1_555
C5 C4 1_555 1_555
C6 C1 1_555 1_555
H3 C6 1_555 1_555
C7 C1 1_555 1_555
C8 C3 1_555 1_555
C9 H4 1_555 1_555
H5 C9 1_555 1_555
C10 C9 1_555 1_555
H6 C10 1_555 1_555
H7 C10 1_555 1_555
N1 C5 1_555 1_555
H8 N1 1_555 1_555
H9 N1 1_555 1_555
N2 C9 1_555 1_555
H10 N2 1_555 1_555
H11 N2 1_555 1_555
N3 C10 1_555 1_555
H12 N3 1_555 1_555
H13 N3 1_555 1_555
O1 C7 1_555 1_555
O2 C7 1_555 1_555
O3 C8 1_555 1_555
O4 C8 1_555 1_555
Ni1 N1 1_555 1_555
O5 Ni1 1_555 1_555
O6 Ni1 1_555 1_555
H14 O5 1_555 1_555
H15 O5 1_555 1_555
H16 O6 1_555 1_555
H17 O6 1_555 1_555
O7 H18 1_555 1_555
H19 O7 1_555 1_555
O8 H20 1_555 1_555
H21 O8 1_555 1_555
O9 H22 1_555 1_555
H23 O9 1_555 1_555
O1C Ni1 1_555 1_555
Ni1C O1 1_555 1_555
C5 C6 1_555 1_555
N2 Ni1 1_555 1_555
N3 Ni1 1_555 1_555

#END
