
#######################################################################
#
#                 Cambridge Crystallographic Data Centre
#                                CCDC 
#
#######################################################################
#
# If this CIF has been generated from an entry in the Cambridge 
# Structural Database, then it will include bibliographic, chemical, 
# crystal, experimental, refinement or atomic coordinate data resulting 
# from the CCDC's data processing and validation procedures.
#
#######################################################################

data_BEHJEE
_symmetry_cell_setting           orthorhombic
_symmetry_space_group_name_H-M   'P c a b'
_symmetry_Int_Tables_number      61
_space_group_name_Hall           '-P 2bc 2ac'
loop_
_symmetry_equiv_pos_site_id
_symmetry_equiv_pos_as_xyz
1 x,y,z
2 1/2-x,y,1/2+z
3 1/2+x,1/2-y,z
4 x,1/2+y,1/2-z
5 -x,-y,-z
6 1/2+x,-y,1/2-z
7 1/2-x,1/2+y,-z
8 -x,1/2-y,1/2+z
_cell_length_a                   6.1940(10)
_cell_length_b                   14.285(3)
_cell_length_c                   21.348(4)
_cell_angle_alpha                90
_cell_angle_beta                 90
_cell_angle_gamma                90
_cell_volume                     1888.9
loop_
_atom_site_label
_atom_site_type_symbol
_atom_site_fract_x
_atom_site_fract_y
_atom_site_fract_z
Na1 Na -0.08976(12) 0.26318(5) 0.50619(3)
O1 O 0.1792(2) 0.32642(9) 0.44204(5)
O2 O 0.3631(2) 0.44911(10) 0.40638(6)
O3 O -0.3444(2) 0.20673(10) 0.58797(6)
O4 O 0.1437(3) 0.11332(11) 0.50189(7)
N1 N 0.1918(3) 0.44251(10) 0.17112(6)
N2 N -0.2267(3) 0.36500(11) 0.16648(7)
C1 C 0.1055(3) 0.37743(10) 0.33885(7)
C2 C 0.1980(3) 0.41276(10) 0.28398(7)
C3 C 0.0915(3) 0.40879(9) 0.22655(7)
C4 C -0.1157(3) 0.36945(10) 0.22410(7)
C5 C -0.2052(3) 0.33254(11) 0.27855(8)
C6 C -0.0967(3) 0.33581(11) 0.33541(7)
C7 C 0.2240(3) 0.38442(11) 0.40036(7)
H1 H 0.339(3) 0.4441(13) 0.2865(8)
H2 H 0.297(4) 0.4846(16) 0.1829(10)
H3 H 0.104(4) 0.4741(16) 0.1482(10)
H4 H -0.215(4) 0.4161(16) 0.1426(11)
H5 H -0.357(4) 0.3548(17) 0.1714(11)
H6 H -0.344(4) 0.3060(16) 0.2763(10)
H7 H -0.170(3) 0.3101(14) 0.3749(9)
H8 H -0.336(4) 0.252(2) 0.6101(11)
H9 H -0.307(4) 0.1628(18) 0.6081(11)
H10 H 0.079(4) 0.0941(17) 0.4709(12)
H11 H 0.162(5) 0.068(2) 0.5239(15)
O1B O -0.3208(2) 0.17358(9) 0.44204(5)
O3B O 0.1556(2) 0.29327(10) 0.58797(6)
O4B O -0.3563(3) 0.38668(11) 0.50189(7)
Na1B Na 0.41024(12) 0.23682(5) 0.50619(3)
Na1B_2 Na -0.58976(12) 0.23682(5) 0.50619(3)
H8B H 0.164(4) 0.248(2) 0.6101(11)
H9B H 0.193(4) 0.3372(18) 0.6081(11)
H10B H -0.421(4) 0.4059(17) 0.4709(12)
H11B H -0.338(5) 0.432(2) 0.5239(15)
loop_
_geom_bond_atom_site_label_1
_geom_bond_atom_site_label_2
_geom_bond_site_symmetry_1
_geom_bond_site_symmetry_2
Na1 O1 1_555 1_555
O1 C7 1_555 1_555
O2 C7 1_555 1_555
O3 Na1 1_555 1_555
O4 Na1 1_555 1_555
N1 C3 1_555 1_555
N2 C4 1_555 1_555
C1 C2 1_555 1_555
C2 C3 1_555 1_555
C3 C4 1_555 1_555
C4 C5 1_555 1_555
C5 C6 1_555 1_555
C6 C1 1_555 1_555
C7 C1 1_555 1_555
H1 C2 1_555 1_555
H2 N1 1_555 1_555
H3 N1 1_555 1_555
H4 N2 1_555 1_555
H5 N2 1_555 1_555
H6 C5 1_555 1_555
H7 C6 1_555 1_555
H8 O3 1_555 1_555
H9 O3 1_555 1_555
H10 O4 1_555 1_555
H11 O4 1_555 1_555
O1B Na1 1_555 1_555
O3B Na1 1_555 1_555
O4B Na1 1_555 1_555
Na1B O1 1_555 1_555
Na1B_2 O3 1_555 1_555
H8B O3B 1_555 1_555
H9B O3B 1_555 1_555
H10B O4B 1_555 1_555
H11B O4B 1_555 1_555
O4 Na1B 1_555 1_555
O1B Na1B_2 1_555 1_555
O3B Na1B 1_555 1_555
O4B Na1B_2 1_555 1_555

#END
